CHEMBL83617
     RDKit          3D

  0  0  0  0  0  0  0  0  0  0999 V3000
M  V30 BEGIN CTAB
M  V30 COUNTS 58 62 0 0 1
M  V30 BEGIN ATOM
M  V30 1 N 5.685610 -1.027215 -15.011927 0
M  V30 2 C 5.325286 -0.102206 -14.123008 0
M  V30 3 O 4.306174 -0.227397 -13.447329 0
M  V30 4 C 6.191133 1.125615 -14.009152 0
M  V30 5 C 5.684880 2.279317 -13.366141 0
M  V30 6 C 6.470201 3.438656 -13.231825 0
M  V30 7 C 7.792714 3.457960 -13.718227 0
M  V30 8 C 8.305181 2.317318 -14.379102 0
M  V30 9 C 7.512245 1.157591 -14.519798 0
M  V30 10 C 9.701933 2.349690 -14.967701 0
M  V30 11 C 10.557676 3.481728 -14.386880 0
M  V30 12 O 9.809443 4.692035 -14.378142 0
M  V30 13 C 8.676927 4.686234 -13.508921 0 CFG=2
M  V30 14 C 9.162299 4.888694 -12.048231 0
M  V30 15 C 8.077279 5.365469 -11.044513 0
M  V30 16 N 8.596128 6.122306 -9.870073 0 CFG=1 CHG=1
M  V30 17 C 9.409961 5.328938 -8.909719 0
M  V30 18 C 10.134029 6.184879 -7.867293 0
M  V30 19 C 10.190029 7.530650 -7.875978 0
M  V30 20 C 10.880998 8.315874 -6.821723 0
M  V30 21 C 11.301459 9.594914 -7.047997 0
M  V30 22 N 11.802796 10.121161 -5.880339 0
M  V30 23 C 11.800426 9.169038 -4.885228 0
M  V30 24 C 12.200568 9.244095 -3.543055 0
M  V30 25 C 12.149756 8.096059 -2.742813 0
M  V30 26 F 12.528605 8.171474 -1.447313 0
M  V30 27 C 11.713200 6.879726 -3.296383 0
M  V30 28 C 11.285567 6.820210 -4.640512 0
M  V30 29 C 11.286285 7.966609 -5.474216 0
M  V30 30 C 9.429579 8.277060 -8.970523 0
M  V30 31 C 9.201280 7.425500 -10.225302 0
M  V30 32 H 5.112250 -1.848616 -15.129424 0
M  V30 33 H 6.539886 -0.934514 -15.542506 0
M  V30 34 H 4.676975 2.284198 -12.972139 0
M  V30 35 H 6.055000 4.302291 -12.732684 0
M  V30 36 H 7.931843 0.296392 -15.019412 0
M  V30 37 H 9.610620 2.480078 -16.044907 0
M  V30 38 H 10.195099 1.392160 -14.806785 0
M  V30 39 H 11.460764 3.616073 -14.982586 0
M  V30 40 H 10.886328 3.231367 -13.380149 0
M  V30 41 H 8.092941 5.562044 -13.797381 0
M  V30 42 H 9.958485 5.627388 -12.101555 0
M  V30 43 H 9.632181 3.979797 -11.671603 0
M  V30 44 H 7.504860 4.507629 -10.685765 0
M  V30 45 H 7.359721 6.010426 -11.553713 0
M  V30 46 H 10.160407 4.746917 -9.444034 0
M  V30 47 H 8.759210 4.618019 -8.399362 0
M  V30 48 H 10.662390 5.638295 -7.107032 0
M  V30 49 H 11.286150 10.172452 -7.954916 0
M  V30 50 H 12.158351 11.063602 -5.812696 0
M  V30 51 H 12.562908 10.167449 -3.118719 0
M  V30 52 H 11.685596 5.993153 -2.679290 0
M  V30 53 H 10.912450 5.878937 -5.010685 0
M  V30 54 H 8.486807 8.639777 -8.556120 0
M  V30 55 H 9.983704 9.154058 -9.297668 0
M  V30 56 H 8.533568 7.957646 -10.909139 0
M  V30 57 H 10.150484 7.277596 -10.741059 0
M  V30 58 H 7.758520 6.407964 -9.370481 0
M  V30 END ATOM
M  V30 BEGIN BOND
M  V30 1 1 2 1
M  V30 2 2 3 2
M  V30 3 1 4 2
M  V30 4 1 5 4
M  V30 5 2 6 5
M  V30 6 1 7 6
M  V30 7 2 8 7
M  V30 8 2 9 4
M  V30 9 1 9 8
M  V30 10 1 10 8
M  V30 11 1 11 10
M  V30 12 1 12 11
M  V30 13 1 13 7
M  V30 14 1 13 12
M  V30 15 1 14 13
M  V30 16 1 15 14
M  V30 17 1 16 15
M  V30 18 1 17 16
M  V30 19 1 18 17
M  V30 20 2 19 18
M  V30 21 1 20 19
M  V30 22 2 21 20
M  V30 23 1 22 21
M  V30 24 1 23 22
M  V30 25 1 24 23
M  V30 26 2 25 24
M  V30 27 1 26 25
M  V30 28 1 27 25
M  V30 29 2 28 27
M  V30 30 1 29 20
M  V30 31 2 29 23
M  V30 32 1 29 28
M  V30 33 1 30 19
M  V30 34 1 31 16
M  V30 35 1 31 30
M  V30 36 1 32 1
M  V30 37 1 33 1
M  V30 38 1 34 5
M  V30 39 1 35 6
M  V30 40 1 36 9
M  V30 41 1 37 10
M  V30 42 1 38 10
M  V30 43 1 39 11
M  V30 44 1 40 11
M  V30 45 1 13 41 CFG=3
M  V30 46 1 42 14
M  V30 47 1 43 14
M  V30 48 1 44 15
M  V30 49 1 45 15
M  V30 50 1 46 17
M  V30 51 1 47 17
M  V30 52 1 48 18
M  V30 53 1 49 21
M  V30 54 1 50 22
M  V30 55 1 51 24
M  V30 56 1 52 27
M  V30 57 1 53 28
M  V30 58 1 54 30
M  V30 59 1 55 30
M  V30 60 1 56 31
M  V30 61 1 57 31
M  V30 62 1 16 58 CFG=1
M  V30 END BOND
M  V30 END CTAB
M  END
>  <b_m_subgroup_collapsed>  (1) 
0

>  <r_i_docking_score>  (1) 
-11.0235409998606

>  <s_m_subgroup_title>  (1) 
glide-dock_SP_D22_pv

>  <s_m_subgroupid>  (1) 
glide-dock_SP_D22_pv

>  <Molecule ChEMBL ID>  (1) 
CHEMBL83617

>  <Standard Type>  (1) 
Ki

>  <Standard Value>  (1) 
4.7

>  <label>  (1) 
1

$$$$
CHEMBL3102875
     RDKit          3D

  0  0  0  0  0  0  0  0  0  0999 V3000
M  V30 BEGIN CTAB
M  V30 COUNTS 57 60 0 0 1
M  V30 BEGIN ATOM
M  V30 1 C 5.307877 -1.148240 -15.172080 0
M  V30 2 C 5.084770 -0.024854 -14.163331 0
M  V30 3 O 4.086174 -0.074799 -13.447239 0
M  V30 4 C 6.086168 1.080073 -14.108747 0
M  V30 5 C 7.359373 0.938363 -14.703267 0
M  V30 6 C 8.289386 1.992985 -14.647563 0
M  V30 7 C 7.965299 3.206732 -14.002094 0
M  V30 8 C 6.688066 3.366477 -13.405699 0
M  V30 9 C 5.767377 2.292413 -13.446868 0
M  V30 10 C 6.292602 4.653540 -12.689218 0
M  V30 11 C 7.488800 5.528934 -12.246490 0 CFG=1
M  V30 12 C 8.112913 5.054722 -10.903102 0
M  V30 13 N 8.486042 6.172262 -9.981059 0 CFG=1 CHG=1
M  V30 14 C 8.636571 5.706973 -8.570894 0
M  V30 15 C 9.074796 6.828849 -7.601981 0
M  V30 16 C 10.424697 7.420078 -8.047021 0 CFG=2
M  V30 17 C 10.998922 8.523761 -7.122909 0
M  V30 18 O 11.285773 9.608381 -7.620821 0
M  V30 19 C 11.286000 8.273297 -5.681433 0
M  V30 20 C 11.299908 6.984463 -5.100407 0
M  V30 21 C 11.692066 6.817985 -3.756252 0
M  V30 22 C 12.085607 7.930306 -2.987841 0
M  V30 23 F 12.485741 7.772230 -1.708596 0
M  V30 24 C 12.055563 9.216362 -3.547325 0
M  V30 25 C 11.654481 9.384254 -4.882697 0
M  V30 26 C 10.206536 7.960393 -9.479581 0
M  V30 27 C 9.696254 6.892797 -10.456196 0
M  V30 28 C 8.521560 5.626256 -13.387960 0
M  V30 29 C 8.991962 4.273755 -13.914872 0
M  V30 30 O 10.167529 4.134641 -14.249616 0
M  V30 31 H 5.605604 -0.746874 -16.141581 0
M  V30 32 H 6.083328 -1.828864 -14.815269 0
M  V30 33 H 4.391007 -1.721049 -15.310443 0
M  V30 34 H 7.645521 0.022628 -15.200886 0
M  V30 35 H 9.261167 1.858050 -15.099527 0
M  V30 36 H 4.796474 2.410033 -12.985804 0
M  V30 37 H 5.641545 4.429463 -11.843585 0
M  V30 38 H 5.681068 5.225116 -13.389462 0
M  V30 39 H 7.081492 6.526585 -12.073963 0
M  V30 40 H 8.979480 4.412948 -11.074965 0
M  V30 41 H 7.404386 4.402421 -10.400845 0
M  V30 42 H 7.686062 5.302731 -8.223734 0
M  V30 43 H 9.358743 4.889852 -8.535087 0
M  V30 44 H 9.114257 6.423684 -6.593408 0
M  V30 45 H 8.319057 7.615176 -7.568514 0
M  V30 46 H 11.164873 6.620382 -8.080951 0
M  V30 47 H 11.060397 6.107752 -5.679464 0
M  V30 48 H 11.718283 5.831079 -3.317057 0
M  V30 49 H 12.349086 10.071804 -2.954548 0
M  V30 50 H 11.659328 10.383616 -5.294597 0
M  V30 51 H 9.491382 8.785280 -9.457149 0
M  V30 52 H 11.136841 8.371536 -9.876356 0
M  V30 53 H 9.470072 7.393973 -11.396640 0
M  V30 54 H 10.486514 6.170792 -10.653024 0
M  V30 55 H 8.087205 6.166131 -14.227900 0
M  V30 56 H 9.401125 6.191064 -13.087113 0
M  V30 57 H 7.710082 6.839566 -9.984592 0
M  V30 END ATOM
M  V30 BEGIN BOND
M  V30 1 1 2 1
M  V30 2 2 3 2
M  V30 3 1 4 2
M  V30 4 1 5 4
M  V30 5 2 6 5
M  V30 6 1 7 6
M  V30 7 2 8 7
M  V30 8 2 9 4
M  V30 9 1 9 8
M  V30 10 1 10 8
M  V30 11 1 11 10
M  V30 12 1 12 11
M  V30 13 1 13 12
M  V30 14 1 14 13
M  V30 15 1 15 14
M  V30 16 1 16 15
M  V30 17 1 17 16
M  V30 18 2 18 17
M  V30 19 1 19 17
M  V30 20 1 20 19
M  V30 21 2 21 20
M  V30 22 1 22 21
M  V30 23 1 23 22
M  V30 24 2 24 22
M  V30 25 2 25 19
M  V30 26 1 25 24
M  V30 27 1 26 16
M  V30 28 1 27 13
M  V30 29 1 27 26
M  V30 30 1 28 11
M  V30 31 1 29 7
M  V30 32 1 29 28
M  V30 33 2 30 29
M  V30 34 1 31 1
M  V30 35 1 32 1
M  V30 36 1 33 1
M  V30 37 1 34 5
M  V30 38 1 35 6
M  V30 39 1 36 9
M  V30 40 1 37 10
M  V30 41 1 38 10
M  V30 42 1 11 39 CFG=1
M  V30 43 1 40 12
M  V30 44 1 41 12
M  V30 45 1 42 14
M  V30 46 1 43 14
M  V30 47 1 44 15
M  V30 48 1 45 15
M  V30 49 1 16 46 CFG=3
M  V30 50 1 47 20
M  V30 51 1 48 21
M  V30 52 1 49 24
M  V30 53 1 50 25
M  V30 54 1 51 26
M  V30 55 1 52 26
M  V30 56 1 53 27
M  V30 57 1 54 27
M  V30 58 1 55 28
M  V30 59 1 56 28
M  V30 60 1 13 57 CFG=1
M  V30 END BOND
M  V30 END CTAB
M  END
>  <b_m_subgroup_collapsed>  (2) 
0

>  <r_i_docking_score>  (2) 
-10.7936125741426

>  <s_m_subgroup_title>  (2) 
glide-dock_SP_D22_pv

>  <s_m_subgroupid>  (2) 
glide-dock_SP_D22_pv

>  <Molecule ChEMBL ID>  (2) 
CHEMBL3102875

>  <Standard Type>  (2) 
Ki

>  <Standard Value>  (2) 
32.36

>  <label>  (2) 
1

$$$$
CHEMBL4750660
     RDKit          3D

  0  0  0  0  0  0  0  0  0  0999 V3000
M  V30 BEGIN CTAB
M  V30 COUNTS 64 67 0 0 1
M  V30 BEGIN ATOM
M  V30 1 O 8.486478 5.366100 -14.645164 0
M  V30 2 S 8.844768 4.089777 -13.883936 0
M  V30 3 C 9.288295 4.640202 -12.173030 0
M  V30 4 C 8.189850 5.619205 -11.736123 0
M  V30 5 N 8.086000 5.772347 -10.274446 0 CHG=1
M  V30 6 C 9.250042 6.312183 -9.552106 0
M  V30 7 C 9.076267 6.066287 -8.051910 0
M  V30 8 C 10.253292 6.655928 -7.268559 0
M  V30 9 N 10.397653 8.096284 -7.512217 0
M  V30 10 C 11.580852 8.635200 -6.840264 0
M  V30 11 C 11.606969 8.573920 -5.317645 0
M  V30 12 C 11.848087 7.360577 -4.631631 0
M  V30 13 C 12.086379 7.356130 -3.246528 0
M  V30 14 C 12.086135 8.568585 -2.538371 0
M  V30 15 F 12.403048 8.578846 -1.226184 0
M  V30 16 C 11.773157 9.770218 -3.198968 0
M  V30 17 C 11.521880 9.772150 -4.583151 0
M  V30 18 C 10.585288 8.355443 -8.945138 0
M  V30 19 C 9.404164 7.824917 -9.768035 0
M  V30 20 C 10.521890 3.492599 -14.437490 0
M  V30 21 C 11.234132 4.660495 -15.117952 0
M  V30 22 C 12.260288 5.350120 -14.438958 0
M  V30 23 C 12.897743 6.448421 -15.047444 0
M  V30 24 C 12.530655 6.856147 -16.341843 0
M  V30 25 F 13.157499 7.905616 -16.923098 0
M  V30 26 C 11.509946 6.172390 -17.027359 0
M  V30 27 C 10.857697 5.086205 -16.413649 0
M  V30 28 C 10.400640 2.217998 -15.284652 0
M  V30 29 C 9.397955 1.259783 -15.004490 0
M  V30 30 C 9.286703 0.090762 -15.777513 0
M  V30 31 C 10.188387 -0.155790 -16.827036 0
M  V30 32 F 10.085828 -1.289220 -17.560799 0
M  V30 33 C 11.209343 0.771488 -17.098534 0
M  V30 34 C 11.317948 1.945123 -16.328148 0
M  V30 35 H 10.255311 5.141883 -12.184882 0
M  V30 36 H 9.361871 3.772287 -11.519300 0
M  V30 37 H 7.215363 5.259239 -12.069736 0
M  V30 38 H 8.330934 6.591337 -12.209997 0
M  V30 39 H 7.803657 4.893048 -9.864348 0
M  V30 40 H 10.152944 5.795519 -9.878757 0
M  V30 41 H 9.002761 4.997103 -7.848375 0
M  V30 42 H 8.145791 6.512154 -7.695285 0
M  V30 43 H 11.176538 6.130412 -7.518315 0
M  V30 44 H 10.045406 6.481968 -6.214265 0
M  V30 45 H 11.673003 9.686783 -7.116250 0
M  V30 46 H 12.484844 8.161298 -7.228139 0
M  V30 47 H 11.940826 6.429327 -5.169705 0
M  V30 48 H 12.314868 6.430152 -2.738659 0
M  V30 49 H 11.764855 10.697159 -2.647027 0
M  V30 50 H 11.328281 10.707784 -5.087584 0
M  V30 51 H 10.681618 9.428774 -9.114499 0
M  V30 52 H 11.511509 7.896338 -9.295971 0
M  V30 53 H 9.566859 8.051922 -10.821706 0
M  V30 54 H 8.491838 8.348490 -9.472957 0
M  V30 55 H 11.078761 3.199404 -13.547246 0
M  V30 56 H 12.563416 5.047004 -13.447219 0
M  V30 57 H 13.683538 6.974136 -14.525237 0
M  V30 58 H 11.218770 6.490373 -18.017279 0
M  V30 59 H 10.059509 4.581556 -16.938377 0
M  V30 60 H 8.702617 1.398502 -14.190379 0
M  V30 61 H 8.510706 -0.627256 -15.556882 0
M  V30 62 H 11.915591 0.578244 -17.892265 0
M  V30 63 H 12.124811 2.628476 -16.547525 0
M  V30 64 H 7.326838 6.444670 -10.123383 0
M  V30 END ATOM
M  V30 BEGIN BOND
M  V30 1 2 2 1
M  V30 2 1 2 3 CFG=1
M  V30 3 1 4 3
M  V30 4 1 5 4
M  V30 5 1 6 5
M  V30 6 1 7 6
M  V30 7 1 8 7
M  V30 8 1 9 8
M  V30 9 1 10 9
M  V30 10 1 11 10
M  V30 11 2 12 11
M  V30 12 1 13 12
M  V30 13 2 14 13
M  V30 14 1 15 14
M  V30 15 1 16 14
M  V30 16 1 17 11
M  V30 17 2 17 16
M  V30 18 1 18 9
M  V30 19 1 19 6
M  V30 20 1 19 18
M  V30 21 1 20 2
M  V30 22 1 21 20
M  V30 23 2 22 21
M  V30 24 1 23 22
M  V30 25 2 24 23
M  V30 26 1 25 24
M  V30 27 1 26 24
M  V30 28 1 27 21
M  V30 29 2 27 26
M  V30 30 1 28 20
M  V30 31 2 29 28
M  V30 32 1 30 29
M  V30 33 2 31 30
M  V30 34 1 32 31
M  V30 35 1 33 31
M  V30 36 1 34 28
M  V30 37 2 34 33
M  V30 38 1 35 3
M  V30 39 1 36 3
M  V30 40 1 37 4
M  V30 41 1 38 4
M  V30 42 1 39 5
M  V30 43 1 40 6
M  V30 44 1 41 7
M  V30 45 1 42 7
M  V30 46 1 43 8
M  V30 47 1 44 8
M  V30 48 1 45 10
M  V30 49 1 46 10
M  V30 50 1 47 12
M  V30 51 1 48 13
M  V30 52 1 49 16
M  V30 53 1 50 17
M  V30 54 1 51 18
M  V30 55 1 52 18
M  V30 56 1 53 19
M  V30 57 1 54 19
M  V30 58 1 55 20
M  V30 59 1 56 22
M  V30 60 1 57 23
M  V30 61 1 58 26
M  V30 62 1 59 27
M  V30 63 1 60 29
M  V30 64 1 61 30
M  V30 65 1 62 33
M  V30 66 1 63 34
M  V30 67 1 64 5
M  V30 END BOND
M  V30 END CTAB
M  END
>  <b_m_subgroup_collapsed>  (3) 
0

>  <r_i_docking_score>  (3) 
-10.6644068114059

>  <s_m_subgroup_title>  (3) 
glide-dock_SP_D22_pv

>  <s_m_subgroupid>  (3) 
glide-dock_SP_D22_pv

>  <Molecule ChEMBL ID>  (3) 
CHEMBL4750660

>  <Standard Type>  (3) 
Ki

>  <Standard Value>  (3) 
12400.0

>  <label>  (3) 
0

$$$$
CHEMBL4751063
     RDKit          3D

  0  0  0  0  0  0  0  0  0  0999 V3000
M  V30 BEGIN CTAB
M  V30 COUNTS 54 58 0 0 1
M  V30 BEGIN ATOM
M  V30 1 O 5.753777 4.715603 -12.769954 0
M  V30 2 S 7.199813 4.963873 -12.658318 0
M  V30 3 O 7.789258 6.253932 -13.044760 0
M  V30 4 N 7.686180 4.575871 -11.047444 0
M  V30 5 C 8.996442 4.945178 -10.498295 0 CFG=2
M  V30 6 C 9.164686 4.334781 -9.088397 0
M  V30 7 C 9.417775 5.513379 -8.147160 0
M  V30 8 N 8.886402 6.690668 -8.847261 0 CFG=1 CHG=1
M  V30 9 C 9.206522 8.028996 -8.279032 0
M  V30 10 C 10.648545 8.546859 -8.495107 0
M  V30 11 C 11.683098 8.207432 -7.405529 0
M  V30 12 C 11.446365 8.866393 -6.072930 0
M  V30 13 N 11.194655 10.171637 -6.012338 0
M  V30 14 O 11.284618 10.554155 -4.648349 0
M  V30 15 C 11.684873 9.470291 -3.883798 0
M  V30 16 C 12.085915 9.366241 -2.544902 0
M  V30 17 C 12.476459 8.099795 -2.070345 0
M  V30 18 C 12.427040 6.973064 -2.923135 0
M  V30 19 C 12.042316 7.109484 -4.275189 0
M  V30 20 C 11.690083 8.388573 -4.763453 0
M  V30 21 C 9.136824 6.465895 -10.284405 0
M  V30 22 C 8.020592 3.755491 -13.663772 0
M  V30 23 C 9.329944 3.821142 -14.068734 0
M  V30 24 C 9.681198 2.701003 -14.909122 0
M  V30 25 C 10.895298 2.378588 -15.557648 0
M  V30 26 C 11.022155 1.229616 -16.361168 0
M  V30 27 C 9.929170 0.362558 -16.531610 0
M  V30 28 Cl 10.086346 -1.027786 -17.538307 0
M  V30 29 C 8.709248 0.640768 -15.892975 0
M  V30 30 C 8.583904 1.799443 -15.100775 0
M  V30 31 S 7.153026 2.368056 -14.251860 0
M  V30 32 H 6.908319 4.670927 -10.382477 0
M  V30 33 H 9.770951 4.580073 -11.173973 0
M  V30 34 H 9.988555 3.618997 -9.048222 0
M  V30 35 H 8.263670 3.807679 -8.769778 0
M  V30 36 H 10.490343 5.610740 -7.997655 0
M  V30 37 H 8.946916 5.377465 -7.175416 0
M  V30 38 H 8.936969 8.053334 -7.222256 0
M  V30 39 H 8.520936 8.730270 -8.759149 0
M  V30 40 H 10.602773 9.632013 -8.574949 0
M  V30 41 H 11.048648 8.247699 -9.459732 0
M  V30 42 H 12.661228 8.527110 -7.768188 0
M  V30 43 H 11.773426 7.133323 -7.272263 0
M  V30 44 H 12.087065 10.218970 -1.886104 0
M  V30 45 H 12.797307 7.989472 -1.046118 0
M  V30 46 H 12.713734 6.002044 -2.545386 0
M  V30 47 H 12.059594 6.252666 -4.932965 0
M  V30 48 H 8.486096 7.088135 -10.892188 0
M  V30 49 H 10.158220 6.726526 -10.554714 0
M  V30 50 H 10.008978 4.620212 -13.810430 0
M  V30 51 H 11.744686 3.032923 -15.437762 0
M  V30 52 H 11.962028 1.012628 -16.848011 0
M  V30 53 H 7.869207 -0.027088 -16.018784 0
M  V30 54 H 7.874254 6.633621 -8.764528 0
M  V30 END ATOM
M  V30 BEGIN BOND
M  V30 1 2 2 1
M  V30 2 2 3 2
M  V30 3 1 4 2
M  V30 4 1 5 4
M  V30 5 1 6 5
M  V30 6 1 7 6
M  V30 7 1 8 7
M  V30 8 1 9 8
M  V30 9 1 10 9
M  V30 10 1 11 10
M  V30 11 1 12 11
M  V30 12 2 13 12
M  V30 13 1 14 13
M  V30 14 1 15 14
M  V30 15 2 16 15
M  V30 16 1 17 16
M  V30 17 2 18 17
M  V30 18 1 19 18
M  V30 19 1 20 12
M  V30 20 1 20 15
M  V30 21 2 20 19
M  V30 22 1 21 5
M  V30 23 1 21 8
M  V30 24 1 22 2
M  V30 25 2 23 22
M  V30 26 1 24 23
M  V30 27 1 25 24
M  V30 28 2 26 25
M  V30 29 1 27 26
M  V30 30 1 28 27
M  V30 31 2 29 27
M  V30 32 2 30 24
M  V30 33 1 30 29
M  V30 34 1 31 22
M  V30 35 1 31 30
M  V30 36 1 32 4
M  V30 37 1 5 33 CFG=3
M  V30 38 1 34 6
M  V30 39 1 35 6
M  V30 40 1 36 7
M  V30 41 1 37 7
M  V30 42 1 38 9
M  V30 43 1 39 9
M  V30 44 1 40 10
M  V30 45 1 41 10
M  V30 46 1 42 11
M  V30 47 1 43 11
M  V30 48 1 44 16
M  V30 49 1 45 17
M  V30 50 1 46 18
M  V30 51 1 47 19
M  V30 52 1 48 21
M  V30 53 1 49 21
M  V30 54 1 50 23
M  V30 55 1 51 25
M  V30 56 1 52 26
M  V30 57 1 53 29
M  V30 58 1 8 54 CFG=3
M  V30 END BOND
M  V30 END CTAB
M  END
>  <b_m_subgroup_collapsed>  (4) 
0

>  <r_i_docking_score>  (4) 
-10.3971110678131

>  <s_m_subgroup_title>  (4) 
glide-dock_SP_D22_pv

>  <s_m_subgroupid>  (4) 
glide-dock_SP_D22_pv

>  <Molecule ChEMBL ID>  (4) 
CHEMBL4751063

>  <Standard Type>  (4) 
Ki

>  <Standard Value>  (4) 
8.318

>  <label>  (4) 
1

$$$$
CHEMBL3423332
     RDKit          3D

  0  0  0  0  0  0  0  0  0  0999 V3000
M  V30 BEGIN CTAB
M  V30 COUNTS 73 78 0 0 1
M  V30 BEGIN ATOM
M  V30 1 C 14.329319 3.928428 -18.640453 0
M  V30 2 N 13.346395 4.351575 -17.627996 0
M  V30 3 C 12.240205 3.570927 -17.432610 0
M  V30 4 O 11.959236 2.545011 -18.053619 0
M  V30 5 C 11.389207 4.039052 -16.352074 0
M  V30 6 C 11.605795 5.162509 -15.638033 0
M  V30 7 N 10.687831 5.341192 -14.603964 0
M  V30 8 C 9.935813 4.272131 -14.738630 0
M  V30 9 N 8.899979 3.714151 -14.060581 0
M  V30 10 C 8.497726 4.314503 -12.792669 0
M  V30 11 C 9.641874 4.262479 -11.764750 0
M  V30 12 C 9.289479 4.793882 -10.375311 0
M  V30 13 C 8.759853 6.232833 -10.377629 0
M  V30 14 N 9.020518 6.973364 -9.116081 0 CHG=1
M  V30 15 C 10.343741 7.655630 -9.123063 0
M  V30 16 C 10.584765 8.481607 -7.845552 0
M  V30 17 N 10.318168 7.668325 -6.667757 0
M  V30 18 C 10.987339 7.906676 -5.447450 0
M  V30 19 C 11.362659 6.788964 -4.665771 0
M  V30 20 C 12.020771 6.960281 -3.431777 0
M  V30 21 C 12.286078 8.250724 -2.943755 0
M  V30 22 C 11.910925 9.372298 -3.703581 0
M  V30 23 C 11.281247 9.211411 -4.954953 0
M  V30 24 O 10.903703 10.337748 -5.628820 0
M  V30 25 C 8.999166 7.048056 -6.621140 0
M  V30 26 C 8.768023 6.192411 -7.871771 0
M  V30 27 C 8.486593 2.562822 -14.774322 0
M  V30 28 C 7.365461 1.705739 -14.385716 0
M  V30 29 C 6.167824 2.230312 -13.843480 0
M  V30 30 C 5.118794 1.378964 -13.447105 0
M  V30 31 C 5.214573 -0.000323 -13.684559 0
M  V30 32 C 6.388021 -0.536964 -14.241365 0
M  V30 33 C 7.459550 0.310005 -14.579532 0
M  V30 34 C 9.385291 2.442096 -15.818343 0
M  V30 35 N 10.266838 3.465311 -15.787366 0
M  V30 36 N 12.727196 5.954230 -15.995114 0
M  V30 37 C 12.936851 7.225493 -15.301420 0
M  V30 38 C 13.631153 5.513656 -16.927984 0
M  V30 39 O 14.671122 6.145057 -17.133556 0
M  V30 40 H 14.510411 4.727544 -19.359997 0
M  V30 41 H 15.276657 3.688993 -18.158541 0
M  V30 42 H 14.035225 3.051659 -19.217773 0
M  V30 43 H 7.651699 3.773703 -12.377007 0
M  V30 44 H 8.170224 5.337623 -12.979834 0
M  V30 45 H 10.485813 4.844345 -12.122819 0
M  V30 46 H 10.003420 3.238804 -11.671588 0
M  V30 47 H 10.184312 4.713440 -9.765079 0
M  V30 48 H 8.538019 4.172357 -9.896427 0
M  V30 49 H 7.686427 6.172174 -10.540116 0
M  V30 50 H 9.158762 6.799411 -11.220989 0
M  V30 51 H 10.425111 8.308915 -9.993251 0
M  V30 52 H 11.126167 6.901880 -9.220053 0
M  V30 53 H 9.928344 9.353290 -7.835431 0
M  V30 54 H 11.611201 8.849276 -7.830032 0
M  V30 55 H 11.160864 5.778943 -5.009268 0
M  V30 56 H 12.303281 6.094193 -2.850881 0
M  V30 57 H 12.766372 8.386447 -1.986592 0
M  V30 58 H 12.089314 10.358713 -3.299428 0
M  V30 59 H 11.216938 11.134072 -5.229173 0
M  V30 60 H 8.892199 6.418879 -5.741103 0
M  V30 61 H 8.237468 7.826367 -6.552749 0
M  V30 62 H 7.759062 5.774868 -7.875850 0
M  V30 63 H 9.449739 5.346164 -7.807613 0
M  V30 64 H 6.039659 3.296489 -13.731000 0
M  V30 65 H 4.207666 1.795084 -13.044998 0
M  V30 66 H 4.381088 -0.644136 -13.450947 0
M  V30 67 H 6.467663 -1.600318 -14.415343 0
M  V30 68 H 8.356432 -0.120816 -14.998742 0
M  V30 69 H 9.438438 1.673821 -16.575384 0
M  V30 70 H 12.024256 7.593087 -14.832639 0
M  V30 71 H 13.685844 7.106783 -14.519619 0
M  V30 72 H 13.276378 8.005499 -15.986630 0
M  V30 73 H 8.317470 7.704700 -9.114797 0
M  V30 END ATOM
M  V30 BEGIN BOND
M  V30 1 1 2 1
M  V30 2 1 3 2
M  V30 3 2 4 3
M  V30 4 1 5 3
M  V30 5 2 6 5
M  V30 6 1 7 6
M  V30 7 2 8 7
M  V30 8 1 9 8
M  V30 9 1 10 9
M  V30 10 1 11 10
M  V30 11 1 12 11
M  V30 12 1 13 12
M  V30 13 1 14 13
M  V30 14 1 15 14
M  V30 15 1 16 15
M  V30 16 1 17 16
M  V30 17 1 18 17
M  V30 18 2 19 18
M  V30 19 1 20 19
M  V30 20 2 21 20
M  V30 21 1 22 21
M  V30 22 1 23 18
M  V30 23 2 23 22
M  V30 24 1 24 23
M  V30 25 1 25 17
M  V30 26 1 26 14
M  V30 27 1 26 25
M  V30 28 1 27 9
M  V30 29 1 28 27
M  V30 30 2 29 28
M  V30 31 1 30 29
M  V30 32 2 31 30
M  V30 33 1 32 31
M  V30 34 1 33 28
M  V30 35 2 33 32
M  V30 36 2 34 27
M  V30 37 1 35 5
M  V30 38 1 35 8
M  V30 39 1 35 34
M  V30 40 1 36 6
M  V30 41 1 37 36
M  V30 42 1 38 2
M  V30 43 1 38 36
M  V30 44 2 39 38
M  V30 45 1 40 1
M  V30 46 1 41 1
M  V30 47 1 42 1
M  V30 48 1 43 10
M  V30 49 1 44 10
M  V30 50 1 45 11
M  V30 51 1 46 11
M  V30 52 1 47 12
M  V30 53 1 48 12
M  V30 54 1 49 13
M  V30 55 1 50 13
M  V30 56 1 51 15
M  V30 57 1 52 15
M  V30 58 1 53 16
M  V30 59 1 54 16
M  V30 60 1 55 19
M  V30 61 1 56 20
M  V30 62 1 57 21
M  V30 63 1 58 22
M  V30 64 1 59 24
M  V30 65 1 60 25
M  V30 66 1 61 25
M  V30 67 1 62 26
M  V30 68 1 63 26
M  V30 69 1 64 29
M  V30 70 1 65 30
M  V30 71 1 66 31
M  V30 72 1 67 32
M  V30 73 1 68 33
M  V30 74 1 69 34
M  V30 75 1 70 37
M  V30 76 1 71 37
M  V30 77 1 72 37
M  V30 78 1 73 14
M  V30 END BOND
M  V30 END CTAB
M  END
>  <b_m_subgroup_collapsed>  (5) 
0

>  <r_i_docking_score>  (5) 
-10.260915009361099

>  <s_m_subgroup_title>  (5) 
glide-dock_SP_D22_pv

>  <s_m_subgroupid>  (5) 
glide-dock_SP_D22_pv

>  <Molecule ChEMBL ID>  (5) 
CHEMBL3423332

>  <Standard Type>  (5) 
Ki

>  <Standard Value>  (5) 
4.0

>  <label>  (5) 
1

$$$$
CHEMBL5760252
     RDKit          3D

  0  0  0  0  0  0  0  0  0  0999 V3000
M  V30 BEGIN CTAB
M  V30 COUNTS 60 64 0 0 1
M  V30 BEGIN ATOM
M  V30 1 C 11.258540 10.820662 -5.846541 0
M  V30 2 N 11.355030 9.419747 -5.516304 0
M  V30 3 C 11.109563 8.359973 -6.317371 0
M  V30 4 S 10.539583 8.543699 -7.958312 0
M  V30 5 C 8.852224 7.964708 -7.635465 0
M  V30 6 C 8.714581 6.427650 -7.554498 0
M  V30 7 C 9.157267 5.629645 -8.790346 0
M  V30 8 N 8.486029 6.065408 -10.041062 0 CFG=1 CHG=1
M  V30 9 C 9.213629 7.110782 -10.802782 0
M  V30 10 C 9.014825 6.787816 -12.284896 0 CFG=1
M  V30 11 C 10.247566 6.175412 -12.973381 0
M  V30 12 C 9.686964 5.118867 -13.930685 0
M  V30 13 N 8.310135 4.875309 -13.509628 0
M  V30 14 C 7.643177 3.661705 -13.782788 0
M  V30 15 C 6.351447 3.418002 -13.255488 0
M  V30 16 C 5.715091 2.176084 -13.443212 0
M  V30 17 C 6.354008 1.154915 -14.177709 0
M  V30 18 C 5.723053 -0.217086 -14.330112 0
M  V30 19 F 6.470140 -1.088080 -13.654347 0
M  V30 20 F 4.479776 -0.250842 -13.847336 0
M  V30 21 F 5.692420 -0.566832 -15.615279 0
M  V30 22 C 7.614020 1.406827 -14.753174 0
M  V30 23 C 8.248321 2.649052 -14.566741 0
M  V30 24 C 7.987423 5.670314 -12.330025 0 CFG=1
M  V30 25 C 8.209354 4.967457 -10.988288 0
M  V30 26 N 11.285974 7.162691 -5.773980 0
M  V30 27 C 11.685977 7.478616 -4.500108 0
M  V30 28 C 12.077212 6.636670 -3.449270 0
M  V30 29 C 12.483530 7.179554 -2.225177 0
M  V30 30 C 12.484387 8.572567 -2.013142 0
M  V30 31 C 12.086185 9.434170 -3.051259 0
M  V30 32 C 11.722206 8.883909 -4.292665 0
M  V30 33 H 10.972847 11.374230 -4.956533 0
M  V30 34 H 10.489372 10.972052 -6.596616 0
M  V30 35 H 12.212260 11.183264 -6.230978 0
M  V30 36 H 8.495852 8.411490 -6.706089 0
M  V30 37 H 8.212214 8.376975 -8.408603 0
M  V30 38 H 9.251502 6.047314 -6.690701 0
M  V30 39 H 7.685385 6.172177 -7.332090 0
M  V30 40 H 10.242481 5.649213 -8.900973 0
M  V30 41 H 8.904799 4.584851 -8.601103 0
M  V30 42 H 8.806662 8.094373 -10.571758 0
M  V30 43 H 10.275930 7.141771 -10.558315 0
M  V30 44 H 8.631398 7.653924 -12.821890 0
M  V30 45 H 10.885976 6.914088 -13.457960 0
M  V30 46 H 10.878495 5.668396 -12.246902 0
M  V30 47 H 9.686565 5.483142 -14.958638 0
M  V30 48 H 10.305990 4.222210 -13.885648 0
M  V30 49 H 5.836947 4.169958 -12.676477 0
M  V30 50 H 4.743527 2.009932 -13.001920 0
M  V30 51 H 8.105976 0.632455 -15.323640 0
M  V30 52 H 9.218681 2.788488 -15.017198 0
M  V30 53 H 6.982438 6.092249 -12.387005 0
M  V30 54 H 9.075878 4.305063 -11.044641 0
M  V30 55 H 7.352782 4.369455 -10.677236 0
M  V30 56 H 12.085300 5.573356 -3.600278 0
M  V30 57 H 12.805537 6.506230 -1.446751 0
M  V30 58 H 12.791056 8.982382 -1.060923 0
M  V30 59 H 12.087213 10.503504 -2.897176 0
M  V30 60 H 7.580865 6.482326 -9.821222 0
M  V30 END ATOM
M  V30 BEGIN BOND
M  V30 1 1 2 1
M  V30 2 1 3 2
M  V30 3 1 4 3
M  V30 4 1 5 4
M  V30 5 1 6 5
M  V30 6 1 7 6
M  V30 7 1 8 7
M  V30 8 1 9 8
M  V30 9 1 10 9
M  V30 10 1 11 10
M  V30 11 1 12 11
M  V30 12 1 13 12
M  V30 13 1 14 13
M  V30 14 1 15 14
M  V30 15 2 16 15
M  V30 16 1 17 16
M  V30 17 1 18 17
M  V30 18 1 19 18
M  V30 19 1 20 18
M  V30 20 1 21 18
M  V30 21 2 22 17
M  V30 22 2 23 14
M  V30 23 1 23 22
M  V30 24 1 24 10
M  V30 25 1 24 13
M  V30 26 1 25 8
M  V30 27 1 25 24
M  V30 28 2 26 3
M  V30 29 1 27 26
M  V30 30 2 28 27
M  V30 31 1 29 28
M  V30 32 2 30 29
M  V30 33 1 31 30
M  V30 34 1 32 2
M  V30 35 1 32 27
M  V30 36 2 32 31
M  V30 37 1 33 1
M  V30 38 1 34 1
M  V30 39 1 35 1
M  V30 40 1 36 5
M  V30 41 1 37 5
M  V30 42 1 38 6
M  V30 43 1 39 6
M  V30 44 1 40 7
M  V30 45 1 41 7
M  V30 46 1 42 9
M  V30 47 1 43 9
M  V30 48 1 10 44 CFG=3
M  V30 49 1 45 11
M  V30 50 1 46 11
M  V30 51 1 47 12
M  V30 52 1 48 12
M  V30 53 1 49 15
M  V30 54 1 50 16
M  V30 55 1 51 22
M  V30 56 1 52 23
M  V30 57 1 24 53 CFG=3
M  V30 58 1 54 25
M  V30 59 1 55 25
M  V30 60 1 56 28
M  V30 61 1 57 29
M  V30 62 1 58 30
M  V30 63 1 59 31
M  V30 64 1 8 60 CFG=1
M  V30 END BOND
M  V30 END CTAB
M  END
>  <b_m_subgroup_collapsed>  (6) 
0

>  <r_i_docking_score>  (6) 
-10.2490308430956

>  <s_m_subgroup_title>  (6) 
glide-dock_SP_D22_pv

>  <s_m_subgroupid>  (6) 
glide-dock_SP_D22_pv

>  <Molecule ChEMBL ID>  (6) 
CHEMBL5760252

>  <Standard Type>  (6) 
Ki

>  <Standard Value>  (6) 
57.5

>  <label>  (6) 
1

$$$$
CHEMBL2059305
     RDKit          3D

  0  0  0  0  0  0  0  0  0  0999 V3000
M  V30 BEGIN CTAB
M  V30 COUNTS 59 63 0 0 1
M  V30 BEGIN ATOM
M  V30 1 O 11.289215 6.038225 -14.043191 0
M  V30 2 C 11.181128 4.910645 -14.530704 0
M  V30 3 C 12.401694 4.309858 -15.231764 0
M  V30 4 C 12.010275 3.363853 -16.372263 0
M  V30 5 C 10.938875 2.395845 -15.924244 0
M  V30 6 C 10.893358 1.092477 -16.456236 0
M  V30 7 C 9.901433 0.190964 -16.037247 0
M  V30 8 C 8.939680 0.599605 -15.097171 0
M  V30 9 C 8.976623 1.906525 -14.575635 0
M  V30 10 C 9.981622 2.822750 -14.971372 0
M  V30 11 N 10.050776 4.156720 -14.426830 0
M  V30 12 C 8.894335 4.734250 -13.712163 0
M  V30 13 C 9.074172 4.681557 -12.177950 0
M  V30 14 C 7.998134 5.495259 -11.421992 0
M  V30 15 N 8.486480 6.172588 -10.192949 0 CFG=2 CHG=1
M  V30 16 C 9.505849 7.227503 -10.461878 0
M  V30 17 C 9.873383 8.014100 -9.186706 0
M  V30 18 C 10.344416 7.073385 -8.056885 0 CFG=1
M  V30 19 C 10.794992 7.764269 -6.757451 0
M  V30 20 C 10.770017 9.169587 -6.630280 0
M  V30 21 C 11.203896 9.801122 -5.448454 0
M  V30 22 C 11.647081 9.017437 -4.371904 0
M  V30 23 N 12.090921 9.338057 -3.102031 0
M  V30 24 C 12.390069 8.191391 -2.390075 0
M  V30 25 C 12.153052 7.098376 -3.181447 0
M  V30 26 C 11.685939 7.595280 -4.447674 0
M  V30 27 C 11.272362 6.996751 -5.663724 0
M  V30 28 C 9.214125 6.060198 -7.821111 0
M  V30 29 C 8.886163 5.259627 -9.095769 0
M  V30 30 H 13.053641 5.101797 -15.601136 0
M  V30 31 H 12.964927 3.772916 -14.473091 0
M  V30 32 H 12.888047 2.813793 -16.714010 0
M  V30 33 H 11.639452 3.931729 -17.223919 0
M  V30 34 H 11.629586 0.775629 -17.181217 0
M  V30 35 H 9.871385 -0.811088 -16.439667 0
M  V30 36 H 8.173854 -0.092320 -14.775514 0
M  V30 37 H 8.228606 2.169816 -13.846532 0
M  V30 38 H 8.767366 5.768876 -14.032617 0
M  V30 39 H 7.955138 4.269246 -14.006234 0
M  V30 40 H 9.062632 3.645090 -11.845340 0
M  V30 41 H 10.071054 5.041292 -11.933622 0
M  V30 42 H 7.585639 6.271491 -12.069395 0
M  V30 43 H 7.153810 4.851516 -11.177543 0
M  V30 44 H 10.416783 6.791998 -10.872269 0
M  V30 45 H 9.114399 7.918154 -11.211823 0
M  V30 46 H 10.655777 8.731414 -9.438305 0
M  V30 47 H 9.003394 8.589790 -8.858146 0
M  V30 48 H 11.224526 6.535785 -8.413739 0
M  V30 49 H 10.409713 9.773212 -7.444361 0
M  V30 50 H 11.181849 10.877899 -5.366505 0
M  V30 51 H 12.201271 10.267273 -2.720223 0
M  V30 52 H 12.738049 8.250280 -1.367986 0
M  V30 53 H 12.284562 6.060101 -2.915247 0
M  V30 54 H 11.309522 5.920460 -5.740219 0
M  V30 55 H 9.515905 5.372226 -7.046740 0
M  V30 56 H 8.320836 6.569168 -7.455102 0
M  V30 57 H 8.086173 4.548533 -8.891076 0
M  V30 58 H 9.753015 4.672003 -9.401600 0
M  V30 59 H 7.664222 6.690902 -9.867666 0
M  V30 END ATOM
M  V30 BEGIN BOND
M  V30 1 2 2 1
M  V30 2 1 3 2
M  V30 3 1 4 3
M  V30 4 1 5 4
M  V30 5 2 6 5
M  V30 6 1 7 6
M  V30 7 2 8 7
M  V30 8 1 9 8
M  V30 9 1 10 5
M  V30 10 2 10 9
M  V30 11 1 11 2
M  V30 12 1 11 10
M  V30 13 1 12 11
M  V30 14 1 13 12
M  V30 15 1 14 13
M  V30 16 1 15 14
M  V30 17 1 16 15
M  V30 18 1 17 16
M  V30 19 1 18 17
M  V30 20 1 19 18
M  V30 21 2 20 19
M  V30 22 1 21 20
M  V30 23 2 22 21
M  V30 24 1 23 22
M  V30 25 1 24 23
M  V30 26 2 25 24
M  V30 27 1 26 22
M  V30 28 1 26 25
M  V30 29 1 27 19
M  V30 30 2 27 26
M  V30 31 1 28 18
M  V30 32 1 29 15
M  V30 33 1 29 28
M  V30 34 1 30 3
M  V30 35 1 31 3
M  V30 36 1 32 4
M  V30 37 1 33 4
M  V30 38 1 34 6
M  V30 39 1 35 7
M  V30 40 1 36 8
M  V30 41 1 37 9
M  V30 42 1 38 12
M  V30 43 1 39 12
M  V30 44 1 40 13
M  V30 45 1 41 13
M  V30 46 1 42 14
M  V30 47 1 43 14
M  V30 48 1 44 16
M  V30 49 1 45 16
M  V30 50 1 46 17
M  V30 51 1 47 17
M  V30 52 1 18 48 CFG=3
M  V30 53 1 49 20
M  V30 54 1 50 21
M  V30 55 1 51 23
M  V30 56 1 52 24
M  V30 57 1 53 25
M  V30 58 1 54 27
M  V30 59 1 55 28
M  V30 60 1 56 28
M  V30 61 1 57 29
M  V30 62 1 58 29
M  V30 63 1 15 59 CFG=1
M  V30 END BOND
M  V30 END CTAB
M  END
>  <b_m_subgroup_collapsed>  (7) 
0

>  <r_i_docking_score>  (7) 
-10.199130967249699

>  <s_m_subgroup_title>  (7) 
glide-dock_SP_D22_pv

>  <s_m_subgroupid>  (7) 
glide-dock_SP_D22_pv

>  <Molecule ChEMBL ID>  (7) 
CHEMBL2059305

>  <Standard Type>  (7) 
Ki

>  <Standard Value>  (7) 
42.0

>  <label>  (7) 
1

$$$$
CHEMBL4742856
     RDKit          3D

  0  0  0  0  0  0  0  0  0  0999 V3000
M  V30 BEGIN CTAB
M  V30 COUNTS 58 62 0 0 1
M  V30 BEGIN ATOM
M  V30 1 C 5.603680 -1.433062 -14.687308 0
M  V30 2 N 5.731246 -0.074877 -14.201781 0
M  V30 3 C 4.774079 0.586374 -13.450146 0
M  V30 4 C 5.208414 1.846267 -13.140655 0
M  V30 5 C 6.485947 2.007600 -13.772511 0
M  V30 6 C 7.453817 3.044370 -13.847226 0
M  V30 7 S 7.129443 4.645157 -13.105496 0
M  V30 8 O 5.685671 4.906889 -13.158172 0
M  V30 9 O 8.086029 5.603125 -13.679098 0
M  V30 10 N 7.544580 4.454834 -11.447254 0
M  V30 11 C 8.847892 4.917044 -10.959631 0 CFG=2
M  V30 12 C 9.094863 4.469904 -9.510022 0
M  V30 13 C 9.496909 5.723705 -8.750628 0
M  V30 14 N 8.886048 6.840135 -9.495666 0 CFG=1 CHG=1
M  V30 15 C 9.465201 8.177206 -9.249797 0
M  V30 16 C 9.530746 8.557954 -7.758401 0
M  V30 17 C 10.962743 8.946484 -7.377787 0
M  V30 18 C 11.123652 9.306267 -5.935147 0
M  V30 19 N 10.972664 10.563842 -5.526281 0
M  V30 20 O 11.285522 10.572279 -4.141208 0
M  V30 21 C 11.647475 9.311975 -3.716372 0
M  V30 22 C 12.086125 8.832026 -2.476823 0
M  V30 23 C 12.309315 7.446511 -2.368482 0
M  V30 24 C 12.086197 6.593346 -3.470187 0
M  V30 25 C 11.684740 7.109828 -4.721188 0
M  V30 26 C 11.478705 8.500228 -4.835806 0
M  V30 27 C 8.905862 6.453766 -10.918532 0
M  V30 28 C 8.685043 2.853596 -14.511430 0
M  V30 29 C 8.979738 1.619080 -15.117545 0
M  V30 30 C 8.039274 0.575819 -15.067812 0
M  V30 31 C 6.813355 0.769036 -14.402802 0
M  V30 32 H 4.551793 -1.703214 -14.784281 0
M  V30 33 H 6.078036 -1.527959 -15.664470 0
M  V30 34 H 6.083799 -2.116921 -13.988484 0
M  V30 35 H 3.839726 0.104095 -13.208184 0
M  V30 36 H 4.681561 2.590981 -12.563564 0
M  V30 37 H 6.757531 4.623905 -10.812454 0
M  V30 38 H 9.627875 4.526544 -11.615396 0
M  V30 39 H 9.877523 3.714827 -9.440798 0
M  V30 40 H 8.189013 4.056893 -9.061805 0
M  V30 41 H 10.582534 5.827460 -8.757351 0
M  V30 42 H 9.166009 5.675106 -7.713366 0
M  V30 43 H 8.867877 8.915400 -9.787776 0
M  V30 44 H 10.458953 8.214997 -9.698752 0
M  V30 45 H 9.185451 7.760504 -7.102819 0
M  V30 46 H 8.839583 9.373383 -7.567173 0
M  V30 47 H 11.287401 9.775269 -8.004670 0
M  V30 48 H 11.635624 8.120111 -7.610283 0
M  V30 49 H 12.230317 9.496748 -1.637386 0
M  V30 50 H 12.662295 7.022826 -1.446965 0
M  V30 51 H 12.278466 5.540352 -3.359160 0
M  V30 52 H 11.551205 6.453696 -5.569101 0
M  V30 53 H 8.087662 6.942875 -11.449232 0
M  V30 54 H 9.835249 6.783145 -11.386793 0
M  V30 55 H 9.411436 3.652194 -14.554795 0
M  V30 56 H 9.925060 1.473973 -15.620592 0
M  V30 57 H 8.258191 -0.375656 -15.530561 0
M  V30 58 H 7.898980 6.897666 -9.252182 0
M  V30 END ATOM
M  V30 BEGIN BOND
M  V30 1 1 2 1
M  V30 2 1 3 2
M  V30 3 2 4 3
M  V30 4 1 5 4
M  V30 5 2 6 5
M  V30 6 1 7 6
M  V30 7 2 8 7
M  V30 8 2 9 7
M  V30 9 1 10 7
M  V30 10 1 11 10
M  V30 11 1 12 11
M  V30 12 1 13 12
M  V30 13 1 14 13
M  V30 14 1 15 14
M  V30 15 1 16 15
M  V30 16 1 17 16
M  V30 17 1 18 17
M  V30 18 2 19 18
M  V30 19 1 20 19
M  V30 20 1 21 20
M  V30 21 2 22 21
M  V30 22 1 23 22
M  V30 23 2 24 23
M  V30 24 1 25 24
M  V30 25 1 26 18
M  V30 26 1 26 21
M  V30 27 2 26 25
M  V30 28 1 27 11
M  V30 29 1 27 14
M  V30 30 1 28 6
M  V30 31 2 29 28
M  V30 32 1 30 29
M  V30 33 1 31 2
M  V30 34 1 31 5
M  V30 35 2 31 30
M  V30 36 1 32 1
M  V30 37 1 33 1
M  V30 38 1 34 1
M  V30 39 1 35 3
M  V30 40 1 36 4
M  V30 41 1 37 10
M  V30 42 1 11 38 CFG=3
M  V30 43 1 39 12
M  V30 44 1 40 12
M  V30 45 1 41 13
M  V30 46 1 42 13
M  V30 47 1 43 15
M  V30 48 1 44 15
M  V30 49 1 45 16
M  V30 50 1 46 16
M  V30 51 1 47 17
M  V30 52 1 48 17
M  V30 53 1 49 22
M  V30 54 1 50 23
M  V30 55 1 51 24
M  V30 56 1 52 25
M  V30 57 1 53 27
M  V30 58 1 54 27
M  V30 59 1 55 28
M  V30 60 1 56 29
M  V30 61 1 57 30
M  V30 62 1 14 58 CFG=1
M  V30 END BOND
M  V30 END CTAB
M  END
>  <b_m_subgroup_collapsed>  (8) 
0

>  <r_i_docking_score>  (8) 
-10.1022609944919

>  <s_m_subgroup_title>  (8) 
glide-dock_SP_D22_pv

>  <s_m_subgroupid>  (8) 
glide-dock_SP_D22_pv

>  <Molecule ChEMBL ID>  (8) 
CHEMBL4742856

>  <Standard Type>  (8) 
Ki

>  <Standard Value>  (8) 
9.12

>  <label>  (8) 
1

$$$$
CHEMBL3798017
     RDKit          3D

  0  0  0  0  0  0  0  0  0  0999 V3000
M  V30 BEGIN CTAB
M  V30 COUNTS 57 60 0 0 1
M  V30 BEGIN ATOM
M  V30 1 C 12.053432 6.630518 -2.676172 0
M  V30 2 O 11.287833 6.575192 -3.872437 0
M  V30 3 C 11.356568 7.651450 -4.734817 0
M  V30 4 C 12.243708 8.741597 -4.555668 0
M  V30 5 C 12.294042 9.772237 -5.509135 0
M  V30 6 C 11.410021 9.773110 -6.593177 0
M  V30 7 C 10.493988 8.731761 -6.756503 0
M  V30 8 C 10.485553 7.648606 -5.848868 0
M  V30 9 O 9.640827 6.572355 -5.971499 0
M  V30 10 C 8.710901 6.523936 -7.045358 0
M  V30 11 C 9.428374 6.101990 -8.337767 0
M  V30 12 N 8.486021 6.036426 -9.464088 0 CHG=1
M  V30 13 C 9.118462 5.741736 -10.756557 0
M  V30 14 C 8.072770 5.658782 -11.876725 0 CFG=1
M  V30 15 O 7.686531 6.972807 -12.246926 0
M  V30 16 C 8.675092 4.971938 -13.111191 0
M  V30 17 O 7.638727 4.621214 -14.009155 0
M  V30 18 C 7.103010 3.374066 -13.847697 0
M  V30 19 C 5.877160 3.228092 -13.167899 0
M  V30 20 C 5.285997 1.958746 -13.046358 0
M  V30 21 C 5.904132 0.832220 -13.616733 0
M  V30 22 C 7.121015 0.981573 -14.307837 0
M  V30 23 N 7.900217 0.036957 -14.961240 0
M  V30 24 C 9.023667 0.663775 -15.488772 0
M  V30 25 C 10.098042 0.128463 -16.222452 0
M  V30 26 C 11.135339 0.971933 -16.661089 0
M  V30 27 C 11.094196 2.346995 -16.369032 0
M  V30 28 C 10.012591 2.880756 -15.642998 0
M  V30 29 C 8.961066 2.053963 -15.184686 0
M  V30 30 C 7.746269 2.256314 -14.432710 0
M  V30 31 H 11.818030 5.772315 -2.050420 0
M  V30 32 H 13.121544 6.601224 -2.891734 0
M  V30 33 H 11.823148 7.524817 -2.094422 0
M  V30 34 H 12.926698 8.785620 -3.722879 0
M  V30 35 H 13.015836 10.568737 -5.438225 0
M  V30 36 H 11.431869 10.572556 -7.307335 0
M  V30 37 H 9.831371 8.787012 -7.604175 0
M  V30 38 H 8.167251 7.463854 -7.148139 0
M  V30 39 H 7.957149 5.775743 -6.797450 0
M  V30 40 H 9.893253 5.124401 -8.202439 0
M  V30 41 H 10.231484 6.793575 -8.586947 0
M  V30 42 H 7.957749 6.904595 -9.548103 0
M  V30 43 H 9.635367 4.785637 -10.656355 0
M  V30 44 H 9.878314 6.490023 -10.990713 0
M  V30 45 H 7.201924 5.103376 -11.526336 0
M  V30 46 H 7.141397 7.368385 -11.558826 0
M  V30 47 H 9.382642 5.632751 -13.612383 0
M  V30 48 H 9.236411 4.080432 -12.822704 0
M  V30 49 H 5.383223 4.092331 -12.749187 0
M  V30 50 H 4.343880 1.859173 -12.536795 0
M  V30 51 H 5.444626 -0.141419 -13.533512 0
M  V30 52 H 7.687964 -0.951306 -15.049294 0
M  V30 53 H 10.128322 -0.927778 -16.443823 0
M  V30 54 H 11.967025 0.562791 -17.216515 0
M  V30 55 H 11.891600 2.993248 -16.704395 0
M  V30 56 H 9.988861 3.939170 -15.432095 0
M  V30 57 H 7.806454 5.309689 -9.274669 0
M  V30 END ATOM
M  V30 BEGIN BOND
M  V30 1 1 2 1
M  V30 2 1 3 2
M  V30 3 2 4 3
M  V30 4 1 5 4
M  V30 5 2 6 5
M  V30 6 1 7 6
M  V30 7 1 8 3
M  V30 8 2 8 7
M  V30 9 1 9 8
M  V30 10 1 10 9
M  V30 11 1 11 10
M  V30 12 1 12 11
M  V30 13 1 13 12
M  V30 14 1 14 13
M  V30 15 1 15 14
M  V30 16 1 16 14
M  V30 17 1 17 16
M  V30 18 1 18 17
M  V30 19 1 19 18
M  V30 20 2 20 19
M  V30 21 1 21 20
M  V30 22 2 22 21
M  V30 23 1 23 22
M  V30 24 1 24 23
M  V30 25 2 25 24
M  V30 26 1 26 25
M  V30 27 2 27 26
M  V30 28 1 28 27
M  V30 29 1 29 24
M  V30 30 2 29 28
M  V30 31 2 30 18
M  V30 32 1 30 22
M  V30 33 1 30 29
M  V30 34 1 31 1
M  V30 35 1 32 1
M  V30 36 1 33 1
M  V30 37 1 34 4
M  V30 38 1 35 5
M  V30 39 1 36 6
M  V30 40 1 37 7
M  V30 41 1 38 10
M  V30 42 1 39 10
M  V30 43 1 40 11
M  V30 44 1 41 11
M  V30 45 1 42 12
M  V30 46 1 43 13
M  V30 47 1 44 13
M  V30 48 1 14 45 CFG=1
M  V30 49 1 46 15
M  V30 50 1 47 16
M  V30 51 1 48 16
M  V30 52 1 49 19
M  V30 53 1 50 20
M  V30 54 1 51 21
M  V30 55 1 52 23
M  V30 56 1 53 25
M  V30 57 1 54 26
M  V30 58 1 55 27
M  V30 59 1 56 28
M  V30 60 1 57 12
M  V30 END BOND
M  V30 END CTAB
M  END
>  <b_m_subgroup_collapsed>  (9) 
0

>  <r_i_docking_score>  (9) 
-10.0901187674162

>  <s_m_subgroup_title>  (9) 
glide-dock_SP_D22_pv

>  <s_m_subgroupid>  (9) 
glide-dock_SP_D22_pv

>  <Molecule ChEMBL ID>  (9) 
CHEMBL3798017

>  <Standard Type>  (9) 
Ki

>  <Standard Value>  (9) 
26.0

>  <label>  (9) 
1

$$$$
CHEMBL2059312
     RDKit          3D

  0  0  0  0  0  0  0  0  0  0999 V3000
M  V30 BEGIN CTAB
M  V30 COUNTS 57 61 0 0 1
M  V30 BEGIN ATOM
M  V30 1 O 11.671970 6.876415 -13.048389 0
M  V30 2 C 11.559744 5.766864 -13.573244 0
M  V30 3 C 12.723305 5.184050 -14.381755 0
M  V30 4 C 12.247157 4.354878 -15.588148 0
M  V30 5 C 11.098280 3.427339 -15.230240 0
M  V30 6 C 10.885772 2.238010 -15.957818 0
M  V30 7 C 9.782345 1.417732 -15.658878 0
M  V30 8 C 8.879229 1.793942 -14.646919 0
M  V30 9 C 9.091636 2.978895 -13.914191 0
M  V30 10 C 10.212027 3.793061 -14.187819 0
M  V30 11 N 10.469109 4.979434 -13.440220 0
M  V30 12 O 9.376427 5.510453 -12.728703 0
M  V30 13 C 9.474401 5.243299 -11.329420 0
M  V30 14 C 8.486219 6.172248 -10.600076 0
M  V30 15 N 9.005415 6.846699 -9.377606 0 CFG=2 CHG=1
M  V30 16 C 10.212197 7.682015 -9.609860 0
M  V30 17 C 10.536907 8.543801 -8.385235 0
M  V30 18 C 10.723823 7.701550 -7.094502 0 CFG=1
M  V30 19 N 11.020413 8.509459 -5.883115 0
M  V30 20 C 11.147082 9.857323 -5.761538 0
M  V30 21 O 11.286064 10.679258 -6.646852 0
M  V30 22 N 11.301147 10.172237 -4.476484 0
M  V30 23 C 11.654279 9.041725 -3.789464 0
M  V30 24 C 12.171503 8.925570 -2.497786 0
M  V30 25 C 12.475151 7.623891 -2.072854 0
M  V30 26 C 12.216722 6.514492 -2.911834 0
M  V30 27 C 11.686240 6.667259 -4.216835 0
M  V30 28 C 11.437989 7.977955 -4.643933 0
M  V30 29 C 9.451873 6.836804 -6.918095 0
M  V30 30 C 9.137544 5.987252 -8.175273 0
M  V30 31 H 13.395932 5.978717 -14.703825 0
M  V30 32 H 13.286284 4.546793 -13.700624 0
M  V30 33 H 13.078694 3.773994 -15.990847 0
M  V30 34 H 11.915061 5.020422 -16.387167 0
M  V30 35 H 11.563818 1.955735 -16.749796 0
M  V30 36 H 9.620156 0.507232 -16.216373 0
M  V30 37 H 8.027025 1.168562 -14.424874 0
M  V30 38 H 8.390580 3.250462 -13.139742 0
M  V30 39 H 9.258785 4.196738 -11.116376 0
M  V30 40 H 10.485291 5.422637 -10.986344 0
M  V30 41 H 8.188449 6.964215 -11.289458 0
M  V30 42 H 7.569910 5.632706 -10.368971 0
M  V30 43 H 11.087947 7.070475 -9.824037 0
M  V30 44 H 10.050384 8.324321 -10.477276 0
M  V30 45 H 11.443794 9.109304 -8.607552 0
M  V30 46 H 9.730906 9.267592 -8.248696 0
M  V30 47 H 11.576838 7.038466 -7.247181 0
M  V30 48 H 11.465857 11.101675 -4.119369 0
M  V30 49 H 12.346399 9.783440 -1.866817 0
M  V30 50 H 12.885567 7.475410 -1.087817 0
M  V30 51 H 12.447648 5.526702 -2.548549 0
M  V30 52 H 11.527693 5.815213 -4.859018 0
M  V30 53 H 9.554081 6.175721 -6.059175 0
M  V30 54 H 8.597818 7.480010 -6.697296 0
M  V30 55 H 8.205451 5.439322 -8.018073 0
M  V30 56 H 9.920383 5.246086 -8.338517 0
M  V30 57 H 8.247654 7.486063 -9.160295 0
M  V30 END ATOM
M  V30 BEGIN BOND
M  V30 1 2 2 1
M  V30 2 1 3 2
M  V30 3 1 4 3
M  V30 4 1 5 4
M  V30 5 2 6 5
M  V30 6 1 7 6
M  V30 7 2 8 7
M  V30 8 1 9 8
M  V30 9 1 10 5
M  V30 10 2 10 9
M  V30 11 1 11 2
M  V30 12 1 11 10
M  V30 13 1 12 11
M  V30 14 1 13 12
M  V30 15 1 14 13
M  V30 16 1 15 14
M  V30 17 1 16 15
M  V30 18 1 17 16
M  V30 19 1 18 17
M  V30 20 1 19 18
M  V30 21 1 20 19
M  V30 22 2 21 20
M  V30 23 1 22 20
M  V30 24 1 23 22
M  V30 25 2 24 23
M  V30 26 1 25 24
M  V30 27 2 26 25
M  V30 28 1 27 26
M  V30 29 1 28 19
M  V30 30 1 28 23
M  V30 31 2 28 27
M  V30 32 1 29 18
M  V30 33 1 30 15
M  V30 34 1 30 29
M  V30 35 1 31 3
M  V30 36 1 32 3
M  V30 37 1 33 4
M  V30 38 1 34 4
M  V30 39 1 35 6
M  V30 40 1 36 7
M  V30 41 1 37 8
M  V30 42 1 38 9
M  V30 43 1 39 13
M  V30 44 1 40 13
M  V30 45 1 41 14
M  V30 46 1 42 14
M  V30 47 1 43 16
M  V30 48 1 44 16
M  V30 49 1 45 17
M  V30 50 1 46 17
M  V30 51 1 18 47 CFG=3
M  V30 52 1 48 22
M  V30 53 1 49 24
M  V30 54 1 50 25
M  V30 55 1 51 26
M  V30 56 1 52 27
M  V30 57 1 53 29
M  V30 58 1 54 29
M  V30 59 1 55 30
M  V30 60 1 56 30
M  V30 61 1 15 57 CFG=1
M  V30 END BOND
M  V30 END CTAB
M  END
>  <b_m_subgroup_collapsed>  (10) 
0

>  <r_i_docking_score>  (10) 
-10.062990870191999

>  <s_m_subgroup_title>  (10) 
glide-dock_SP_D22_pv

>  <s_m_subgroupid>  (10) 
glide-dock_SP_D22_pv

>  <Molecule ChEMBL ID>  (10) 
CHEMBL2059312

>  <Standard Type>  (10) 
Ki

>  <Standard Value>  (10) 
55.0

>  <label>  (10) 
1

$$$$
CHEMBL494701
     RDKit          3D

  0  0  0  0  0  0  0  0  0  0999 V3000
M  V30 BEGIN CTAB
M  V30 COUNTS 59 63 0 0 1
M  V30 BEGIN ATOM
M  V30 1 O 12.312161 6.087504 -14.217473 0
M  V30 2 C 11.308613 5.521697 -13.793548 0
M  V30 3 C 10.487639 6.141121 -12.646757 0
M  V30 4 C 9.512761 5.208310 -11.852635 0 CFG=1
M  V30 5 C 8.460367 5.998714 -11.021718 0
M  V30 6 N 8.887220 6.812685 -9.834447 0 CFG=2 CHG=1
M  V30 7 C 9.997862 7.769546 -10.074467 0
M  V30 8 C 10.194776 8.745167 -8.911404 0
M  V30 9 C 10.492043 7.984392 -7.601440 0 CFG=1
M  V30 10 C 10.858025 8.963446 -6.451893 0
M  V30 11 O 10.885968 10.172285 -6.654883 0
M  V30 12 C 11.285922 8.483291 -5.123710 0
M  V30 13 C 11.569969 7.132073 -4.829849 0
M  V30 14 C 12.085669 6.797403 -3.565563 0
M  V30 15 C 12.332253 7.806789 -2.622295 0
M  V30 16 F 12.885782 7.504930 -1.446853 0
M  V30 17 C 12.033988 9.142892 -2.892098 0
M  V30 18 C 11.498247 9.476506 -4.136242 0
M  V30 19 C 9.286800 7.041692 -7.353253 0
M  V30 20 C 9.061072 6.073578 -8.552627 0
M  V30 21 C 8.781171 4.216431 -12.803299 0
M  V30 22 C 9.670337 3.725901 -13.891649 0
M  V30 23 O 9.341298 2.599477 -14.586953 0
M  V30 24 C 10.340387 2.412165 -15.509730 0
M  V30 25 C 10.239528 1.270400 -16.416637 0
M  V30 26 C 9.039770 0.533986 -16.540657 0
M  V30 27 C 8.948084 -0.542047 -17.446854 0
M  V30 28 C 10.060109 -0.909902 -18.225420 0
M  V30 29 C 11.263317 -0.191488 -18.103891 0
M  V30 30 C 11.348032 0.892577 -17.208645 0
M  V30 31 C 11.275460 3.406489 -15.398886 0
M  V30 32 C 10.819177 4.266461 -14.366101 0
M  V30 33 H 11.238448 6.575494 -11.996881 0
M  V30 34 H 9.916042 6.971971 -13.042492 0
M  V30 35 H 10.087703 4.597528 -11.160546 0
M  V30 36 H 7.940961 6.678131 -11.698583 0
M  V30 37 H 7.686951 5.311461 -10.673965 0
M  V30 38 H 10.929979 7.216491 -10.163876 0
M  V30 39 H 9.826771 8.324667 -10.997763 0
M  V30 40 H 11.017834 9.418593 -9.156567 0
M  V30 41 H 9.307230 9.370544 -8.798081 0
M  V30 42 H 11.378878 7.369814 -7.759061 0
M  V30 43 H 11.443207 6.350840 -5.563855 0
M  V30 44 H 12.325615 5.772402 -3.327155 0
M  V30 45 H 12.222982 9.906945 -2.152249 0
M  V30 46 H 11.285502 10.520020 -4.322156 0
M  V30 47 H 9.416544 6.457205 -6.444019 0
M  V30 48 H 8.385294 7.635212 -7.190541 0
M  V30 49 H 8.173589 5.468254 -8.363177 0
M  V30 50 H 9.901983 5.384401 -8.643169 0
M  V30 51 H 7.923308 4.708807 -13.263139 0
M  V30 52 H 8.386633 3.374474 -12.246450 0
M  V30 53 H 8.172971 0.794201 -15.949940 0
M  V30 54 H 8.021690 -1.091396 -17.535376 0
M  V30 55 H 9.989007 -1.740271 -18.912035 0
M  V30 56 H 12.122154 -0.468362 -18.697519 0
M  V30 57 H 12.282067 1.430489 -17.133024 0
M  V30 58 H 12.163274 3.519267 -16.002815 0
M  V30 59 H 8.039785 7.371945 -9.694811 0
M  V30 END ATOM
M  V30 BEGIN BOND
M  V30 1 2 2 1
M  V30 2 1 3 2
M  V30 3 1 4 3
M  V30 4 1 5 4
M  V30 5 1 6 5
M  V30 6 1 7 6
M  V30 7 1 8 7
M  V30 8 1 9 8
M  V30 9 1 10 9
M  V30 10 2 11 10
M  V30 11 1 12 10
M  V30 12 1 13 12
M  V30 13 2 14 13
M  V30 14 1 15 14
M  V30 15 1 16 15
M  V30 16 2 17 15
M  V30 17 2 18 12
M  V30 18 1 18 17
M  V30 19 1 19 9
M  V30 20 1 20 6
M  V30 21 1 20 19
M  V30 22 1 21 4
M  V30 23 1 22 21
M  V30 24 1 23 22
M  V30 25 1 24 23
M  V30 26 1 25 24
M  V30 27 2 26 25
M  V30 28 1 27 26
M  V30 29 2 28 27
M  V30 30 1 29 28
M  V30 31 1 30 25
M  V30 32 2 30 29
M  V30 33 2 31 24
M  V30 34 1 32 2
M  V30 35 2 32 22
M  V30 36 1 32 31
M  V30 37 1 33 3
M  V30 38 1 34 3
M  V30 39 1 4 35 CFG=1
M  V30 40 1 36 5
M  V30 41 1 37 5
M  V30 42 1 38 7
M  V30 43 1 39 7
M  V30 44 1 40 8
M  V30 45 1 41 8
M  V30 46 1 9 42 CFG=3
M  V30 47 1 43 13
M  V30 48 1 44 14
M  V30 49 1 45 17
M  V30 50 1 46 18
M  V30 51 1 47 19
M  V30 52 1 48 19
M  V30 53 1 49 20
M  V30 54 1 50 20
M  V30 55 1 51 21
M  V30 56 1 52 21
M  V30 57 1 53 26
M  V30 58 1 54 27
M  V30 59 1 55 28
M  V30 60 1 56 29
M  V30 61 1 57 30
M  V30 62 1 58 31
M  V30 63 1 6 59 CFG=1
M  V30 END BOND
M  V30 END CTAB
M  END
>  <b_m_subgroup_collapsed>  (11) 
0

>  <r_i_docking_score>  (11) 
-10.002589722978

>  <s_m_subgroup_title>  (11) 
glide-dock_SP_D22_pv

>  <s_m_subgroupid>  (11) 
glide-dock_SP_D22_pv

>  <Molecule ChEMBL ID>  (11) 
CHEMBL494701

>  <Standard Type>  (11) 
Ki

>  <Standard Value>  (11) 
10000.0

>  <label>  (11) 
0

$$$$
CHEMBL83617
     RDKit          3D

  0  0  0  0  0  0  0  0  0  0999 V3000
M  V30 BEGIN CTAB
M  V30 COUNTS 58 62 0 0 1
M  V30 BEGIN ATOM
M  V30 1 N 5.686977 -1.190057 -14.650737 0
M  V30 2 C 5.176353 -0.148676 -13.993471 0
M  V30 3 O 4.080299 -0.227393 -13.446873 0
M  V30 4 C 6.002309 1.107402 -13.900868 0
M  V30 5 C 5.568872 2.172906 -13.074292 0
M  V30 6 C 6.304128 3.372411 -13.000154 0
M  V30 7 C 7.501384 3.510770 -13.730675 0
M  V30 8 C 7.924225 2.470030 -14.585492 0
M  V30 9 C 7.177611 1.276546 -14.670356 0
M  V30 10 C 9.157463 2.650245 -15.451700 0
M  V30 11 C 10.060769 3.786594 -14.958793 0
M  V30 12 O 9.268730 4.931678 -14.661922 0
M  V30 13 C 8.359713 4.759890 -13.572808 0 CFG=2
M  V30 14 C 9.163492 4.784027 -12.252601 0
M  V30 15 C 8.357570 5.164204 -10.989377 0
M  V30 16 N 9.234654 5.773278 -9.955744 0 CFG=2 CHG=1
M  V30 17 C 8.752912 5.563581 -8.563614 0
M  V30 18 C 9.473173 6.446850 -7.545629 0
M  V30 19 C 10.316214 7.451697 -7.861233 0
M  V30 20 C 10.949676 8.293188 -6.826498 0
M  V30 21 C 11.312047 9.590325 -7.047055 0
M  V30 22 N 11.753029 10.135171 -5.860410 0
M  V30 23 C 11.755883 9.180900 -4.865650 0
M  V30 24 C 12.142095 9.251659 -3.520418 0
M  V30 25 C 12.104691 8.097226 -2.733740 0
M  V30 26 F 12.494187 8.170811 -1.445899 0
M  V30 27 C 11.686259 6.876516 -3.292171 0
M  V30 28 C 11.286315 6.814685 -4.643173 0
M  V30 29 C 11.286068 7.968717 -5.463718 0
M  V30 30 C 10.624444 7.720025 -9.326754 0
M  V30 31 C 9.516150 7.200468 -10.241365 0
M  V30 32 H 5.138868 -2.034270 -14.731123 0
M  V30 33 H 6.611393 -1.162374 -15.053924 0
M  V30 34 H 4.661164 2.082965 -12.494646 0
M  V30 35 H 5.960108 4.169359 -12.355779 0
M  V30 36 H 7.518268 0.503787 -15.341352 0
M  V30 37 H 8.817564 2.870006 -16.463503 0
M  V30 38 H 9.720572 1.718032 -15.499924 0
M  V30 39 H 10.792135 4.041437 -15.726562 0
M  V30 40 H 10.630997 3.471742 -14.085126 0
M  V30 41 H 7.697519 5.627304 -13.595813 0
M  V30 42 H 9.965466 5.505770 -12.398002 0
M  V30 43 H 9.666058 3.830004 -12.087606 0
M  V30 44 H 7.876289 4.267816 -10.596591 0
M  V30 45 H 7.551669 5.860956 -11.225415 0
M  V30 46 H 8.884315 4.515195 -8.288696 0
M  V30 47 H 7.686606 5.772778 -8.503212 0
M  V30 48 H 9.221135 6.259710 -6.512106 0
M  V30 49 H 11.285624 10.172097 -7.950668 0
M  V30 50 H 12.065227 11.091481 -5.771728 0
M  V30 51 H 12.489228 10.173940 -3.082410 0
M  V30 52 H 11.676096 5.984395 -2.684191 0
M  V30 53 H 10.968326 5.866525 -5.048429 0
M  V30 54 H 10.695634 8.788572 -9.511501 0
M  V30 55 H 11.594761 7.294093 -9.578371 0
M  V30 56 H 8.610831 7.787230 -10.085711 0
M  V30 57 H 9.806940 7.358825 -11.278336 0
M  V30 58 H 10.119826 5.289698 -10.010818 0
M  V30 END ATOM
M  V30 BEGIN BOND
M  V30 1 1 2 1
M  V30 2 2 3 2
M  V30 3 1 4 2
M  V30 4 1 5 4
M  V30 5 2 6 5
M  V30 6 1 7 6
M  V30 7 2 8 7
M  V30 8 2 9 4
M  V30 9 1 9 8
M  V30 10 1 10 8
M  V30 11 1 11 10
M  V30 12 1 12 11
M  V30 13 1 13 7
M  V30 14 1 13 12
M  V30 15 1 14 13
M  V30 16 1 15 14
M  V30 17 1 16 15
M  V30 18 1 17 16
M  V30 19 1 18 17
M  V30 20 2 19 18
M  V30 21 1 20 19
M  V30 22 2 21 20
M  V30 23 1 22 21
M  V30 24 1 23 22
M  V30 25 1 24 23
M  V30 26 2 25 24
M  V30 27 1 26 25
M  V30 28 1 27 25
M  V30 29 2 28 27
M  V30 30 1 29 20
M  V30 31 2 29 23
M  V30 32 1 29 28
M  V30 33 1 30 19
M  V30 34 1 31 16
M  V30 35 1 31 30
M  V30 36 1 32 1
M  V30 37 1 33 1
M  V30 38 1 34 5
M  V30 39 1 35 6
M  V30 40 1 36 9
M  V30 41 1 37 10
M  V30 42 1 38 10
M  V30 43 1 39 11
M  V30 44 1 40 11
M  V30 45 1 13 41 CFG=1
M  V30 46 1 42 14
M  V30 47 1 43 14
M  V30 48 1 44 15
M  V30 49 1 45 15
M  V30 50 1 46 17
M  V30 51 1 47 17
M  V30 52 1 48 18
M  V30 53 1 49 21
M  V30 54 1 50 22
M  V30 55 1 51 24
M  V30 56 1 52 27
M  V30 57 1 53 28
M  V30 58 1 54 30
M  V30 59 1 55 30
M  V30 60 1 56 31
M  V30 61 1 57 31
M  V30 62 1 16 58 CFG=1
M  V30 END BOND
M  V30 END CTAB
M  END
>  <b_m_subgroup_collapsed>  (12) 
0

>  <r_i_docking_score>  (12) 
-9.9943334757270996

>  <s_m_subgroup_title>  (12) 
glide-dock_SP_D22_pv

>  <s_m_subgroupid>  (12) 
glide-dock_SP_D22_pv

>  <Molecule ChEMBL ID>  (12) 
CHEMBL83617

>  <Standard Type>  (12) 
Ki

>  <Standard Value>  (12) 
4.7

>  <label>  (12) 
1

$$$$
CHEMBL575788
     RDKit          3D

  0  0  0  0  0  0  0  0  0  0999 V3000
M  V30 BEGIN CTAB
M  V30 COUNTS 60 65 0 0 1
M  V30 BEGIN ATOM
M  V30 1 O 10.759247 4.273591 -13.754231 0
M  V30 2 C 9.545564 4.397679 -13.606869 0
M  V30 3 C 8.952694 5.730705 -13.159462 0
M  V30 4 C 7.848056 5.572634 -12.095911 0 CFG=2
M  V30 5 C 8.402104 5.065058 -10.735296 0
M  V30 6 N 8.666728 6.149423 -9.747100 0 CFG=2 CHG=1
M  V30 7 C 9.912008 6.905590 -10.059374 0
M  V30 8 C 10.276099 7.944436 -8.987838 0
M  V30 9 C 10.336287 7.313497 -7.584015 0 CFG=1
M  V30 10 C 10.727624 8.293450 -6.507658 0
M  V30 11 N 10.486590 9.593795 -6.642088 0
M  V30 12 O 10.942464 10.243971 -5.461943 0
M  V30 13 C 11.438833 9.301005 -4.579873 0
M  V30 14 C 11.976534 9.417099 -3.291557 0
M  V30 15 C 12.356349 8.232429 -2.631397 0
M  V30 16 F 12.885460 8.302931 -1.390436 0
M  V30 17 C 12.187849 6.974888 -3.258751 0
M  V30 18 C 11.663810 6.887939 -4.569018 0
M  V30 19 C 11.286034 8.075438 -5.231572 0
M  V30 20 C 8.983675 6.661432 -7.297223 0
M  V30 21 C 8.671098 5.601161 -8.361980 0
M  V30 22 C 6.713323 4.674512 -12.658211 0
M  V30 23 C 7.209048 3.465657 -13.446673 0
M  V30 24 N 6.308386 2.489813 -13.677505 0
M  V30 25 C 6.733874 1.375312 -14.287588 0
M  V30 26 C 5.721476 0.351185 -14.611541 0
M  V30 27 C 5.928921 -0.531963 -15.697319 0
M  V30 28 C 4.914911 -1.417740 -16.101435 0
M  V30 29 C 3.685244 -1.427560 -15.424056 0
M  V30 30 C 3.477808 -0.592001 -14.312056 0
M  V30 31 C 4.497683 0.288535 -13.900352 0
M  V30 32 N 7.992127 1.151640 -14.681618 0
M  V30 33 C 8.903884 2.119077 -14.465047 0
M  V30 34 C 8.553937 3.335232 -13.851391 0
M  V30 35 H 9.752945 6.392752 -12.835744 0
M  V30 36 H 8.505829 6.172303 -14.048263 0
M  V30 37 H 7.397402 6.551654 -11.918684 0
M  V30 38 H 7.684621 4.378503 -10.293445 0
M  V30 39 H 9.298103 4.455698 -10.862085 0
M  V30 40 H 10.740035 6.206731 -10.175185 0
M  V30 41 H 9.793503 7.426950 -11.007234 0
M  V30 42 H 11.233593 8.404635 -9.235245 0
M  V30 43 H 9.534573 8.745445 -9.008007 0
M  V30 44 H 11.093490 6.528115 -7.604242 0
M  V30 45 H 12.083798 10.379369 -2.813032 0
M  V30 46 H 12.473568 6.073394 -2.735816 0
M  V30 47 H 11.544307 5.926283 -5.046201 0
M  V30 48 H 8.997301 6.185230 -6.315888 0
M  V30 49 H 8.197088 7.417021 -7.261189 0
M  V30 50 H 7.697423 5.166923 -8.138886 0
M  V30 51 H 9.398229 4.790035 -8.295756 0
M  V30 52 H 6.101606 5.263615 -13.342106 0
M  V30 53 H 6.038378 4.352756 -11.863577 0
M  V30 54 H 6.856016 -0.518852 -16.251625 0
M  V30 55 H 5.073828 -2.080289 -16.939472 0
M  V30 56 H 2.905110 -2.099988 -15.752057 0
M  V30 57 H 2.526711 -0.615659 -13.797185 0
M  V30 58 H 4.319404 0.955027 -13.070230 0
M  V30 59 H 9.913342 1.916695 -14.792549 0
M  V30 60 H 7.881264 6.801249 -9.802973 0
M  V30 END ATOM
M  V30 BEGIN BOND
M  V30 1 2 2 1
M  V30 2 1 3 2
M  V30 3 1 4 3
M  V30 4 1 5 4
M  V30 5 1 6 5
M  V30 6 1 7 6
M  V30 7 1 8 7
M  V30 8 1 9 8
M  V30 9 1 10 9
M  V30 10 2 11 10
M  V30 11 1 12 11
M  V30 12 1 13 12
M  V30 13 1 14 13
M  V30 14 2 15 14
M  V30 15 1 16 15
M  V30 16 1 17 15
M  V30 17 2 18 17
M  V30 18 1 19 10
M  V30 19 2 19 13
M  V30 20 1 19 18
M  V30 21 1 20 9
M  V30 22 1 21 6
M  V30 23 1 21 20
M  V30 24 1 22 4
M  V30 25 1 23 22
M  V30 26 1 24 23
M  V30 27 2 25 24
M  V30 28 1 26 25
M  V30 29 2 27 26
M  V30 30 1 28 27
M  V30 31 2 29 28
M  V30 32 1 30 29
M  V30 33 1 31 26
M  V30 34 2 31 30
M  V30 35 1 32 25
M  V30 36 2 33 32
M  V30 37 1 34 2
M  V30 38 2 34 23
M  V30 39 1 34 33
M  V30 40 1 35 3
M  V30 41 1 36 3
M  V30 42 1 4 37 CFG=1
M  V30 43 1 38 5
M  V30 44 1 39 5
M  V30 45 1 40 7
M  V30 46 1 41 7
M  V30 47 1 42 8
M  V30 48 1 43 8
M  V30 49 1 9 44 CFG=3
M  V30 50 1 45 14
M  V30 51 1 46 17
M  V30 52 1 47 18
M  V30 53 1 48 20
M  V30 54 1 49 20
M  V30 55 1 50 21
M  V30 56 1 51 21
M  V30 57 1 52 22
M  V30 58 1 53 22
M  V30 59 1 54 27
M  V30 60 1 55 28
M  V30 61 1 56 29
M  V30 62 1 57 30
M  V30 63 1 58 31
M  V30 64 1 59 33
M  V30 65 1 6 60 CFG=1
M  V30 END BOND
M  V30 END CTAB
M  END
>  <b_m_subgroup_collapsed>  (13) 
0

>  <r_i_docking_score>  (13) 
-9.9819857930219698

>  <s_m_subgroup_title>  (13) 
glide-dock_SP_D22_pv

>  <s_m_subgroupid>  (13) 
glide-dock_SP_D22_pv

>  <Molecule ChEMBL ID>  (13) 
CHEMBL575788

>  <Standard Type>  (13) 
Ki

>  <Standard Value>  (13) 
33.88

>  <label>  (13) 
1

$$$$
CHEMBL4062602
     RDKit          3D

  0  0  0  0  0  0  0  0  0  0999 V3000
M  V30 BEGIN CTAB
M  V30 COUNTS 55 59 0 0 1
M  V30 BEGIN ATOM
M  V30 1 O 11.284684 6.060817 -13.731835 0
M  V30 2 C 10.871271 5.030447 -14.270668 0
M  V30 3 C 11.722439 4.369366 -15.360593 0
M  V30 4 O 11.689213 2.948993 -15.275868 0
M  V30 5 C 10.460364 2.376707 -15.066554 0
M  V30 6 C 10.274378 1.035177 -15.451050 0
M  V30 7 C 9.035048 0.404836 -15.244654 0
M  V30 8 C 7.981669 1.123118 -14.652193 0
M  V30 9 C 8.169557 2.458743 -14.246749 0
M  V30 10 C 9.420537 3.102387 -14.432314 0
M  V30 11 N 9.694686 4.434721 -13.957849 0
M  V30 12 C 8.777615 5.120745 -13.028543 0
M  V30 13 C 9.161230 4.837698 -11.565993 0
M  V30 14 C 8.101464 5.296131 -10.545617 0
M  V30 15 N 8.597085 6.172259 -9.448755 0 CFG=2 CHG=1
M  V30 16 C 9.305692 7.406057 -9.888646 0
M  V30 17 C 9.647038 8.317844 -8.692951 0
M  V30 18 C 10.491876 7.573994 -7.627076 0 CFG=1
M  V30 19 C 10.892389 8.449811 -6.444842 0
M  V30 20 N 10.885597 9.772703 -6.590899 0
M  V30 21 O 11.284585 10.364540 -5.364565 0
M  V30 22 C 11.610216 9.371455 -4.461380 0
M  V30 23 C 12.085986 9.444108 -3.144386 0
M  V30 24 C 12.380313 8.237701 -2.486076 0
M  V30 25 F 12.885789 8.268442 -1.233422 0
M  V30 26 C 12.172136 7.002057 -3.137148 0
M  V30 27 C 11.685308 6.957777 -4.463799 0
M  V30 28 C 11.380845 8.166174 -5.135546 0
M  V30 29 C 9.659210 6.352451 -7.202137 0
M  V30 30 C 9.332455 5.435251 -8.393816 0
M  V30 31 H 12.757806 4.702381 -15.272803 0
M  V30 32 H 11.361451 4.682353 -16.340647 0
M  V30 33 H 11.087990 0.488925 -15.905628 0
M  V30 34 H 8.891623 -0.625828 -15.537664 0
M  V30 35 H 7.026993 0.643582 -14.494319 0
M  V30 36 H 7.331062 2.946266 -13.777713 0
M  V30 37 H 8.804950 6.195377 -13.196904 0
M  V30 38 H 7.738364 4.866786 -13.214287 0
M  V30 39 H 9.315332 3.770428 -11.445190 0
M  V30 40 H 10.132298 5.269218 -11.359884 0
M  V30 41 H 7.264897 5.773998 -11.050734 0
M  V30 42 H 7.685697 4.395280 -10.097887 0
M  V30 43 H 10.234108 7.164338 -10.403279 0
M  V30 44 H 8.688539 7.949238 -10.605269 0
M  V30 45 H 10.188925 9.187981 -9.066647 0
M  V30 46 H 8.726096 8.695830 -8.242473 0
M  V30 47 H 11.406693 7.217712 -8.101865 0
M  V30 48 H 12.236832 10.392734 -2.650462 0
M  V30 49 H 12.404655 6.082262 -2.619880 0
M  V30 50 H 11.569620 5.997309 -4.935801 0
M  V30 51 H 10.204524 5.772486 -6.472354 0
M  V30 52 H 8.738025 6.676337 -6.713104 0
M  V30 53 H 8.726898 4.597385 -8.046287 0
M  V30 54 H 10.249163 5.012830 -8.808126 0
M  V30 55 H 7.747030 6.523757 -9.015186 0
M  V30 END ATOM
M  V30 BEGIN BOND
M  V30 1 2 2 1
M  V30 2 1 3 2
M  V30 3 1 4 3
M  V30 4 1 5 4
M  V30 5 2 6 5
M  V30 6 1 7 6
M  V30 7 2 8 7
M  V30 8 1 9 8
M  V30 9 1 10 5
M  V30 10 2 10 9
M  V30 11 1 11 2
M  V30 12 1 11 10
M  V30 13 1 12 11
M  V30 14 1 13 12
M  V30 15 1 14 13
M  V30 16 1 15 14
M  V30 17 1 16 15
M  V30 18 1 17 16
M  V30 19 1 18 17
M  V30 20 1 19 18
M  V30 21 2 20 19
M  V30 22 1 21 20
M  V30 23 1 22 21
M  V30 24 1 23 22
M  V30 25 2 24 23
M  V30 26 1 25 24
M  V30 27 1 26 24
M  V30 28 2 27 26
M  V30 29 1 28 19
M  V30 30 2 28 22
M  V30 31 1 28 27
M  V30 32 1 29 18
M  V30 33 1 30 15
M  V30 34 1 30 29
M  V30 35 1 31 3
M  V30 36 1 32 3
M  V30 37 1 33 6
M  V30 38 1 34 7
M  V30 39 1 35 8
M  V30 40 1 36 9
M  V30 41 1 37 12
M  V30 42 1 38 12
M  V30 43 1 39 13
M  V30 44 1 40 13
M  V30 45 1 41 14
M  V30 46 1 42 14
M  V30 47 1 43 16
M  V30 48 1 44 16
M  V30 49 1 45 17
M  V30 50 1 46 17
M  V30 51 1 18 47 CFG=3
M  V30 52 1 48 23
M  V30 53 1 49 26
M  V30 54 1 50 27
M  V30 55 1 51 29
M  V30 56 1 52 29
M  V30 57 1 53 30
M  V30 58 1 54 30
M  V30 59 1 15 55 CFG=1
M  V30 END BOND
M  V30 END CTAB
M  END
>  <b_m_subgroup_collapsed>  (14) 
0

>  <r_i_docking_score>  (14) 
-9.9049038524332005

>  <s_m_subgroup_title>  (14) 
glide-dock_SP_D22_pv

>  <s_m_subgroupid>  (14) 
glide-dock_SP_D22_pv

>  <Molecule ChEMBL ID>  (14) 
CHEMBL4062602

>  <Standard Type>  (14) 
Ki

>  <Standard Value>  (14) 
3.236

>  <label>  (14) 
1

$$$$
CHEMBL3220220
     RDKit          3D

  0  0  0  0  0  0  0  0  0  0999 V3000
M  V30 BEGIN CTAB
M  V30 COUNTS 60 65 0 0 1
M  V30 BEGIN ATOM
M  V30 1 O 9.993003 4.187353 -14.432687 0
M  V30 2 C 8.894883 4.406277 -13.929127 0
M  V30 3 C 8.563728 5.767583 -13.306026 0
M  V30 4 C 7.595522 5.663700 -12.099771 0 CFG=2
M  V30 5 C 8.306387 5.050977 -10.868751 0
M  V30 6 N 8.677176 6.059487 -9.845678 0 CFG=2 CHG=1
M  V30 7 C 9.798584 6.935317 -10.286016 0
M  V30 8 C 10.489705 7.668842 -9.146709 0
M  V30 9 C 10.279279 7.440630 -7.832873 0
M  V30 10 C 10.903143 8.310520 -6.813740 0
M  V30 11 C 11.286994 9.600734 -7.047126 0
M  V30 12 N 11.720550 10.152160 -5.859715 0
M  V30 13 C 11.738205 9.199868 -4.861595 0
M  V30 14 C 12.132000 9.272639 -3.513962 0
M  V30 15 C 12.116938 8.111239 -2.732052 0
M  V30 16 F 12.519978 8.172403 -1.446618 0
M  V30 17 C 11.705125 6.891254 -3.293182 0
M  V30 18 C 11.285993 6.830801 -4.637234 0
M  V30 19 C 11.271919 7.985232 -5.457640 0
M  V30 20 C 9.221965 6.426769 -7.439623 0
M  V30 21 C 8.938272 5.406160 -8.542731 0
M  V30 22 C 6.301035 4.881330 -12.460040 0
M  V30 23 C 6.625374 3.635586 -13.226846 0
M  V30 24 N 5.751105 2.553287 -13.328022 0
M  V30 25 C 6.278145 1.563435 -14.062410 0
M  V30 26 N 5.599618 0.405464 -14.412211 0
M  V30 27 C 4.214464 0.088991 -14.089007 0
M  V30 28 C 3.751730 -1.012685 -15.037111 0
M  V30 29 C 5.039987 -1.734557 -15.388408 0
M  V30 30 C 6.083502 -0.624822 -15.325365 0
M  V30 31 S 7.911672 1.891890 -14.646825 0
M  V30 32 C 7.811564 3.443373 -13.874872 0
M  V30 33 H 8.087761 6.370197 -14.079321 0
M  V30 34 H 9.489513 6.274020 -13.031219 0
M  V30 35 H 7.278548 6.673902 -11.847051 0
M  V30 36 H 9.190445 4.479569 -11.153443 0
M  V30 37 H 7.658708 4.310627 -10.403502 0
M  V30 38 H 9.413822 7.671127 -10.991966 0
M  V30 39 H 10.551258 6.348314 -10.808608 0
M  V30 40 H 11.202465 8.420226 -9.457974 0
M  V30 41 H 11.281383 10.169181 -7.961154 0
M  V30 42 H 12.029832 11.109082 -5.775542 0
M  V30 43 H 12.473003 10.198602 -3.078166 0
M  V30 44 H 11.705848 5.996320 -2.685842 0
M  V30 45 H 10.984727 5.873208 -5.032170 0
M  V30 46 H 9.543468 5.859088 -6.572759 0
M  V30 47 H 8.314234 6.961126 -7.150879 0
M  V30 48 H 9.788890 4.730421 -8.646145 0
M  V30 49 H 8.085962 4.795330 -8.245711 0
M  V30 50 H 5.717290 4.655093 -11.568164 0
M  V30 51 H 5.664065 5.519325 -13.073512 0
M  V30 52 H 4.168065 -0.228258 -13.048883 0
M  V30 53 H 3.578959 0.972143 -14.177254 0
M  V30 54 H 3.001713 -1.663439 -14.590790 0
M  V30 55 H 3.319708 -0.574076 -15.938234 0
M  V30 56 H 5.286228 -2.489269 -14.644494 0
M  V30 57 H 5.001984 -2.228312 -16.359972 0
M  V30 58 H 6.225110 -0.181350 -16.310503 0
M  V30 59 H 7.041416 -1.015573 -14.988381 0
M  V30 60 H 7.864002 6.662935 -9.716121 0
M  V30 END ATOM
M  V30 BEGIN BOND
M  V30 1 2 2 1
M  V30 2 1 3 2
M  V30 3 1 4 3
M  V30 4 1 5 4
M  V30 5 1 6 5
M  V30 6 1 7 6
M  V30 7 1 8 7
M  V30 8 2 9 8
M  V30 9 1 10 9
M  V30 10 2 11 10
M  V30 11 1 12 11
M  V30 12 1 13 12
M  V30 13 1 14 13
M  V30 14 2 15 14
M  V30 15 1 16 15
M  V30 16 1 17 15
M  V30 17 2 18 17
M  V30 18 1 19 10
M  V30 19 2 19 13
M  V30 20 1 19 18
M  V30 21 1 20 9
M  V30 22 1 21 6
M  V30 23 1 21 20
M  V30 24 1 22 4
M  V30 25 1 23 22
M  V30 26 1 24 23
M  V30 27 2 25 24
M  V30 28 1 26 25
M  V30 29 1 27 26
M  V30 30 1 28 27
M  V30 31 1 29 28
M  V30 32 1 30 26
M  V30 33 1 30 29
M  V30 34 1 31 25
M  V30 35 1 32 2
M  V30 36 2 32 23
M  V30 37 1 32 31
M  V30 38 1 33 3
M  V30 39 1 34 3
M  V30 40 1 4 35 CFG=1
M  V30 41 1 36 5
M  V30 42 1 37 5
M  V30 43 1 38 7
M  V30 44 1 39 7
M  V30 45 1 40 8
M  V30 46 1 41 11
M  V30 47 1 42 12
M  V30 48 1 43 14
M  V30 49 1 44 17
M  V30 50 1 45 18
M  V30 51 1 46 20
M  V30 52 1 47 20
M  V30 53 1 48 21
M  V30 54 1 49 21
M  V30 55 1 50 22
M  V30 56 1 51 22
M  V30 57 1 52 27
M  V30 58 1 53 27
M  V30 59 1 54 28
M  V30 60 1 55 28
M  V30 61 1 56 29
M  V30 62 1 57 29
M  V30 63 1 58 30
M  V30 64 1 59 30
M  V30 65 1 6 60 CFG=1
M  V30 END BOND
M  V30 END CTAB
M  END
>  <b_m_subgroup_collapsed>  (15) 
0

>  <r_i_docking_score>  (15) 
-9.8633005610397397

>  <s_m_subgroup_title>  (15) 
glide-dock_SP_D22_pv

>  <s_m_subgroupid>  (15) 
glide-dock_SP_D22_pv

>  <Molecule ChEMBL ID>  (15) 
CHEMBL3220220

>  <Standard Type>  (15) 
Ki

>  <Standard Value>  (15) 
54.95

>  <label>  (15) 
1

$$$$
CHEMBL494701
     RDKit          3D

  0  0  0  0  0  0  0  0  0  0999 V3000
M  V30 BEGIN CTAB
M  V30 COUNTS 59 63 0 0 1
M  V30 BEGIN ATOM
M  V30 1 O 5.600856 4.272483 -13.517194 0
M  V30 2 C 6.761359 4.167841 -13.128634 0
M  V30 3 C 7.183894 4.735236 -11.764422 0
M  V30 4 C 8.675483 5.156917 -11.593593 0 CFG=1
M  V30 5 C 9.047933 5.241828 -10.083898 0
M  V30 6 N 8.887572 6.569611 -9.422805 0 CFG=2 CHG=1
M  V30 7 C 9.891323 7.560012 -9.904216 0
M  V30 8 C 9.810379 8.900206 -9.146279 0
M  V30 9 C 9.913202 8.755801 -7.611335 0 CFG=2
M  V30 10 C 11.296641 8.390049 -7.075131 0
M  V30 11 O 12.190575 8.054289 -7.847350 0
M  V30 12 C 11.458385 8.407358 -5.599660 0
M  V30 13 C 11.485143 9.629262 -4.894750 0
M  V30 14 C 11.789051 9.639045 -3.517793 0
M  V30 15 C 12.085052 8.438691 -2.844727 0
M  V30 16 F 12.434362 8.462556 -1.537053 0
M  V30 17 C 12.013479 7.214131 -3.534486 0
M  V30 18 C 11.685901 7.197455 -4.905619 0
M  V30 19 C 8.883471 7.724473 -7.153925 0
M  V30 20 C 8.947101 6.398206 -7.940526 0
M  V30 21 C 9.685470 4.232908 -12.333106 0
M  V30 22 C 9.084384 3.517111 -13.486541 0
M  V30 23 O 9.894572 2.774177 -14.288072 0
M  V30 24 C 9.082554 2.192449 -15.223378 0
M  V30 25 C 9.714452 1.316738 -16.203766 0
M  V30 26 C 8.984446 0.264154 -16.798729 0
M  V30 27 C 9.590901 -0.586361 -17.743916 0
M  V30 28 C 10.934906 -0.388892 -18.108721 0
M  V30 29 C 11.672194 0.656354 -17.522057 0
M  V30 30 C 11.067222 1.497934 -16.568613 0
M  V30 31 C 7.780898 2.572171 -15.022511 0
M  V30 32 C 7.788723 3.430214 -13.884114 0
M  V30 33 H 6.532712 5.573906 -11.512470 0
M  V30 34 H 6.948050 3.949128 -11.047489 0
M  V30 35 H 8.761926 6.134072 -12.067303 0
M  V30 36 H 8.465139 4.497840 -9.538261 0
M  V30 37 H 10.085540 4.940047 -9.936078 0
M  V30 38 H 10.892028 7.136666 -9.819686 0
M  V30 39 H 9.738717 7.759218 -10.964221 0
M  V30 40 H 10.583949 9.577823 -9.510773 0
M  V30 41 H 8.857884 9.373288 -9.388410 0
M  V30 42 H 9.684093 9.724429 -7.167478 0
M  V30 43 H 11.312975 10.563902 -5.410097 0
M  V30 44 H 11.829600 10.572223 -2.976881 0
M  V30 45 H 12.223462 6.288496 -3.017066 0
M  V30 46 H 11.668944 6.253550 -5.433372 0
M  V30 47 H 8.979398 7.510077 -6.090207 0
M  V30 48 H 7.900087 8.174521 -7.243849 0
M  V30 49 H 8.116218 5.766533 -7.622161 0
M  V30 50 H 9.862459 5.866032 -7.675377 0
M  V30 51 H 10.080395 3.474281 -11.655286 0
M  V30 52 H 10.547200 4.813372 -12.662898 0
M  V30 53 H 7.952041 0.093712 -16.527170 0
M  V30 54 H 9.022409 -1.389976 -18.187140 0
M  V30 55 H 11.400203 -1.038231 -18.835009 0
M  V30 56 H 12.706231 0.807939 -17.795244 0
M  V30 57 H 11.650901 2.291316 -16.124573 0
M  V30 58 H 6.929234 2.263659 -15.610435 0
M  V30 59 H 7.959673 6.938181 -9.643158 0
M  V30 END ATOM
M  V30 BEGIN BOND
M  V30 1 2 2 1
M  V30 2 1 3 2
M  V30 3 1 4 3
M  V30 4 1 5 4
M  V30 5 1 6 5
M  V30 6 1 7 6
M  V30 7 1 8 7
M  V30 8 1 9 8
M  V30 9 1 10 9
M  V30 10 2 11 10
M  V30 11 1 12 10
M  V30 12 1 13 12
M  V30 13 2 14 13
M  V30 14 1 15 14
M  V30 15 1 16 15
M  V30 16 2 17 15
M  V30 17 2 18 12
M  V30 18 1 18 17
M  V30 19 1 19 9
M  V30 20 1 20 6
M  V30 21 1 20 19
M  V30 22 1 21 4
M  V30 23 1 22 21
M  V30 24 1 23 22
M  V30 25 1 24 23
M  V30 26 1 25 24
M  V30 27 2 26 25
M  V30 28 1 27 26
M  V30 29 2 28 27
M  V30 30 1 29 28
M  V30 31 1 30 25
M  V30 32 2 30 29
M  V30 33 2 31 24
M  V30 34 1 32 2
M  V30 35 2 32 22
M  V30 36 1 32 31
M  V30 37 1 33 3
M  V30 38 1 34 3
M  V30 39 1 4 35 CFG=3
M  V30 40 1 36 5
M  V30 41 1 37 5
M  V30 42 1 38 7
M  V30 43 1 39 7
M  V30 44 1 40 8
M  V30 45 1 41 8
M  V30 46 1 9 42 CFG=1
M  V30 47 1 43 13
M  V30 48 1 44 14
M  V30 49 1 45 17
M  V30 50 1 46 18
M  V30 51 1 47 19
M  V30 52 1 48 19
M  V30 53 1 49 20
M  V30 54 1 50 20
M  V30 55 1 51 21
M  V30 56 1 52 21
M  V30 57 1 53 26
M  V30 58 1 54 27
M  V30 59 1 55 28
M  V30 60 1 56 29
M  V30 61 1 57 30
M  V30 62 1 58 31
M  V30 63 1 6 59 CFG=1
M  V30 END BOND
M  V30 END CTAB
M  END
>  <b_m_subgroup_collapsed>  (16) 
0

>  <r_i_docking_score>  (16) 
-9.8631050434180896

>  <s_m_subgroup_title>  (16) 
glide-dock_SP_D22_pv

>  <s_m_subgroupid>  (16) 
glide-dock_SP_D22_pv

>  <Molecule ChEMBL ID>  (16) 
CHEMBL494701

>  <Standard Type>  (16) 
Ki

>  <Standard Value>  (16) 
10000.0

>  <label>  (16) 
0

$$$$
CHEMBL497963
     RDKit          3D

  0  0  0  0  0  0  0  0  0  0999 V3000
M  V30 BEGIN CTAB
M  V30 COUNTS 64 67 0 0 1
M  V30 BEGIN ATOM
M  V30 1 C 12.835236 8.707727 -1.194792 0
M  V30 2 C 12.303871 8.321180 -2.542428 0
M  V30 3 C 12.086035 6.972864 -2.871843 0
M  V30 4 C 11.650991 6.680940 -4.173037 0
M  V30 5 C 11.476922 7.730183 -5.093441 0
M  V30 6 C 11.135663 7.458899 -6.439341 0
M  V30 7 O 10.864045 6.172328 -6.810966 0
M  V30 8 C 10.428817 5.911930 -8.137688 0
M  V30 9 C 9.001156 6.443929 -8.401071 0
M  V30 10 N 8.486022 6.094211 -9.742182 0 CFG=2 CHG=1
M  V30 11 C 8.284254 4.645279 -9.909598 0
M  V30 12 C 7.397404 4.413436 -11.126189 0
M  V30 13 C 8.105997 4.873295 -12.397585 0 CFG=1
M  V30 14 C 7.210558 4.635363 -13.627270 0
M  V30 15 C 6.839563 3.177422 -13.846902 0
M  V30 16 C 5.685977 2.625526 -13.251878 0
M  V30 17 C 5.370343 1.266835 -13.446045 0
M  V30 18 C 6.201907 0.455133 -14.239668 0
M  V30 19 C 7.346230 1.001855 -14.853415 0
M  V30 20 N 8.148314 0.172302 -15.640910 0
M  V30 21 S 9.640841 0.521973 -16.434599 0
M  V30 22 C 10.748336 0.941806 -15.040347 0
M  V30 23 O 10.085994 -0.744078 -17.035725 0
M  V30 24 O 9.404250 1.715236 -17.260824 0
M  V30 25 C 7.654477 2.365906 -14.658025 0
M  V30 26 C 8.474136 6.366738 -12.219780 0
M  V30 27 C 9.219565 6.665584 -10.898943 0
M  V30 28 C 11.119896 8.513483 -7.364223 0
M  V30 29 C 11.308479 9.807350 -6.917482 0
M  V30 30 C 11.556510 10.098730 -5.576855 0
M  V30 31 C 11.704377 9.059540 -4.649076 0
M  V30 32 N 12.086096 9.342474 -3.390064 0
M  V30 33 H 13.173335 7.831720 -0.646867 0
M  V30 34 H 13.686026 9.372325 -1.298817 0
M  V30 35 H 12.055926 9.230087 -0.646864 0
M  V30 36 H 12.254139 6.178236 -2.158574 0
M  V30 37 H 11.479228 5.664332 -4.471582 0
M  V30 38 H 10.443576 4.831408 -8.249003 0
M  V30 39 H 11.151720 6.286865 -8.860892 0
M  V30 40 H 8.922823 7.523909 -8.295784 0
M  V30 41 H 8.321034 6.040110 -7.649314 0
M  V30 42 H 7.845409 4.202641 -9.016221 0
M  V30 43 H 9.254146 4.172313 -10.053881 0
M  V30 44 H 6.483253 4.997108 -11.046865 0
M  V30 45 H 7.091267 3.372346 -11.161308 0
M  V30 46 H 9.024106 4.295987 -12.519941 0
M  V30 47 H 7.721212 5.000615 -14.517294 0
M  V30 48 H 6.290373 5.212357 -13.523165 0
M  V30 49 H 5.042499 3.241058 -12.639874 0
M  V30 50 H 4.486101 0.847416 -12.993078 0
M  V30 51 H 5.951796 -0.586457 -14.382249 0
M  V30 52 H 7.851325 -0.795492 -15.710628 0
M  V30 53 H 11.697048 1.269976 -15.452271 0
M  V30 54 H 10.331012 1.743256 -14.436016 0
M  V30 55 H 10.886007 0.061190 -14.416549 0
M  V30 56 H 8.516259 2.810229 -15.130259 0
M  V30 57 H 9.098067 6.686666 -13.046868 0
M  V30 58 H 7.567597 6.973718 -12.257910 0
M  V30 59 H 9.323810 7.743735 -10.769892 0
M  V30 60 H 10.225385 6.248977 -10.951060 0
M  V30 61 H 10.948268 8.384295 -8.420775 0
M  V30 62 H 11.286022 10.572321 -7.648594 0
M  V30 63 H 11.685727 11.124701 -5.287184 0
M  V30 64 H 7.562819 6.530191 -9.790651 0
M  V30 END ATOM
M  V30 BEGIN BOND
M  V30 1 1 2 1
M  V30 2 1 3 2
M  V30 3 2 4 3
M  V30 4 1 5 4
M  V30 5 2 6 5
M  V30 6 1 7 6
M  V30 7 1 8 7
M  V30 8 1 9 8
M  V30 9 1 10 9
M  V30 10 1 11 10
M  V30 11 1 12 11
M  V30 12 1 13 12
M  V30 13 1 14 13
M  V30 14 1 15 14
M  V30 15 1 16 15
M  V30 16 2 17 16
M  V30 17 1 18 17
M  V30 18 2 19 18
M  V30 19 1 20 19
M  V30 20 1 21 20
M  V30 21 1 22 21
M  V30 22 2 23 21
M  V30 23 2 24 21
M  V30 24 2 25 15
M  V30 25 1 25 19
M  V30 26 1 26 13
M  V30 27 1 27 10
M  V30 28 1 27 26
M  V30 29 1 28 6
M  V30 30 2 29 28
M  V30 31 1 30 29
M  V30 32 1 31 5
M  V30 33 2 31 30
M  V30 34 2 32 2
M  V30 35 1 32 31
M  V30 36 1 33 1
M  V30 37 1 34 1
M  V30 38 1 35 1
M  V30 39 1 36 3
M  V30 40 1 37 4
M  V30 41 1 38 8
M  V30 42 1 39 8
M  V30 43 1 40 9
M  V30 44 1 41 9
M  V30 45 1 42 11
M  V30 46 1 43 11
M  V30 47 1 44 12
M  V30 48 1 45 12
M  V30 49 1 13 46 CFG=3
M  V30 50 1 47 14
M  V30 51 1 48 14
M  V30 52 1 49 16
M  V30 53 1 50 17
M  V30 54 1 51 18
M  V30 55 1 52 20
M  V30 56 1 53 22
M  V30 57 1 54 22
M  V30 58 1 55 22
M  V30 59 1 56 25
M  V30 60 1 57 26
M  V30 61 1 58 26
M  V30 62 1 59 27
M  V30 63 1 60 27
M  V30 64 1 61 28
M  V30 65 1 62 29
M  V30 66 1 63 30
M  V30 67 1 10 64 CFG=1
M  V30 END BOND
M  V30 END CTAB
M  END
>  <b_m_subgroup_collapsed>  (17) 
0

>  <r_i_docking_score>  (17) 
-9.8292571054804601

>  <s_m_subgroup_title>  (17) 
glide-dock_SP_D22_pv

>  <s_m_subgroupid>  (17) 
glide-dock_SP_D22_pv

>  <Molecule ChEMBL ID>  (17) 
CHEMBL497963

>  <Standard Type>  (17) 
Ki

>  <Standard Value>  (17) 
63.1

>  <label>  (17) 
1

$$$$
CHEMBL2059311
     RDKit          3D

  0  0  0  0  0  0  0  0  0  0999 V3000
M  V30 BEGIN CTAB
M  V30 COUNTS 57 61 0 0 1
M  V30 BEGIN ATOM
M  V30 1 O 11.053384 9.325863 -8.286280 0
M  V30 2 C 11.229396 9.235361 -7.070416 0
M  V30 3 C 11.743223 10.460486 -6.304405 0
M  V30 4 O 11.285285 10.467317 -4.963545 0
M  V30 5 C 11.558870 9.305018 -4.297344 0
M  V30 6 C 11.963427 9.366226 -2.952694 0
M  V30 7 C 12.229061 8.178514 -2.250345 0
M  V30 8 C 12.086085 6.939386 -2.897457 0
M  V30 9 C 11.685945 6.879309 -4.247951 0
M  V30 10 C 11.423350 8.065570 -4.975098 0
M  V30 11 N 11.057660 8.088142 -6.368528 0
M  V30 12 C 10.652048 6.879198 -7.113151 0
M  V30 13 C 9.174451 6.905992 -7.577491 0
M  V30 14 C 8.868283 5.741936 -8.544747 0
M  V30 15 N 8.486232 6.131369 -9.931516 0 CFG=2 CHG=1
M  V30 16 C 8.221858 4.913110 -10.740164 0
M  V30 17 C 7.616723 5.275850 -12.089735 0
M  V30 18 C 8.613054 6.094749 -12.937644 0 CFG=2
M  V30 19 N 9.754056 5.294648 -13.467529 0
M  V30 20 C 11.087647 5.587986 -13.447061 0
M  V30 21 O 11.632690 6.586985 -12.985632 0
M  V30 22 N 11.759505 4.592242 -14.044930 0
M  V30 23 C 10.870467 3.653478 -14.544075 0
M  V30 24 C 11.106935 2.484728 -15.283452 0
M  V30 25 C 9.982904 1.730413 -15.684440 0
M  V30 26 C 8.675904 2.175844 -15.373913 0
M  V30 27 C 8.472317 3.372015 -14.646790 0
M  V30 28 C 9.604836 4.090818 -14.209986 0
M  V30 29 C 8.971104 7.345539 -12.077835 0
M  V30 30 C 9.457416 7.005654 -10.644337 0
M  V30 31 H 11.410603 11.373741 -6.785072 0
M  V30 32 H 12.834056 10.462394 -6.315508 0
M  V30 33 H 12.076426 10.321353 -2.460703 0
M  V30 34 H 12.538928 8.222386 -1.215657 0
M  V30 35 H 12.285356 6.023949 -2.357685 0
M  V30 36 H 11.616062 5.899379 -4.688899 0
M  V30 37 H 11.303741 6.777554 -7.985263 0
M  V30 38 H 10.803651 5.960221 -6.552623 0
M  V30 39 H 8.535378 6.810070 -6.697071 0
M  V30 40 H 8.888502 7.863101 -8.014777 0
M  V30 41 H 9.714228 5.052999 -8.588824 0
M  V30 42 H 8.044572 5.164643 -8.124331 0
M  V30 43 H 9.152331 4.360580 -10.886741 0
M  V30 44 H 7.549500 4.221710 -10.245074 0
M  V30 45 H 7.272280 4.365429 -12.563351 0
M  V30 46 H 6.711171 5.863399 -11.924716 0
M  V30 47 H 8.085809 6.443411 -13.827893 0
M  V30 48 H 12.758222 4.558301 -14.189611 0
M  V30 49 H 12.105322 2.170284 -15.538618 0
M  V30 50 H 10.119143 0.817926 -16.245939 0
M  V30 51 H 7.821815 1.603849 -15.711065 0
M  V30 52 H 7.464488 3.710036 -14.479478 0
M  V30 53 H 9.676555 8.002290 -12.583526 0
M  V30 54 H 8.072882 7.955147 -11.983334 0
M  V30 55 H 9.594556 7.939816 -10.103290 0
M  V30 56 H 10.431014 6.517448 -10.666605 0
M  V30 57 H 7.616739 6.675038 -9.877148 0
M  V30 END ATOM
M  V30 BEGIN BOND
M  V30 1 2 2 1
M  V30 2 1 3 2
M  V30 3 1 4 3
M  V30 4 1 5 4
M  V30 5 2 6 5
M  V30 6 1 7 6
M  V30 7 2 8 7
M  V30 8 1 9 8
M  V30 9 1 10 5
M  V30 10 2 10 9
M  V30 11 1 11 2
M  V30 12 1 11 10
M  V30 13 1 12 11
M  V30 14 1 13 12
M  V30 15 1 14 13
M  V30 16 1 15 14
M  V30 17 1 16 15
M  V30 18 1 17 16
M  V30 19 1 18 17
M  V30 20 1 19 18
M  V30 21 1 20 19
M  V30 22 2 21 20
M  V30 23 1 22 20
M  V30 24 1 23 22
M  V30 25 2 24 23
M  V30 26 1 25 24
M  V30 27 2 26 25
M  V30 28 1 27 26
M  V30 29 1 28 19
M  V30 30 1 28 23
M  V30 31 2 28 27
M  V30 32 1 29 18
M  V30 33 1 30 15
M  V30 34 1 30 29
M  V30 35 1 31 3
M  V30 36 1 32 3
M  V30 37 1 33 6
M  V30 38 1 34 7
M  V30 39 1 35 8
M  V30 40 1 36 9
M  V30 41 1 37 12
M  V30 42 1 38 12
M  V30 43 1 39 13
M  V30 44 1 40 13
M  V30 45 1 41 14
M  V30 46 1 42 14
M  V30 47 1 43 16
M  V30 48 1 44 16
M  V30 49 1 45 17
M  V30 50 1 46 17
M  V30 51 1 18 47 CFG=3
M  V30 52 1 48 22
M  V30 53 1 49 24
M  V30 54 1 50 25
M  V30 55 1 51 26
M  V30 56 1 52 27
M  V30 57 1 53 29
M  V30 58 1 54 29
M  V30 59 1 55 30
M  V30 60 1 56 30
M  V30 61 1 15 57 CFG=1
M  V30 END BOND
M  V30 END CTAB
M  END
>  <b_m_subgroup_collapsed>  (18) 
0

>  <r_i_docking_score>  (18) 
-9.82336556808567

>  <s_m_subgroup_title>  (18) 
glide-dock_SP_D22_pv

>  <s_m_subgroupid>  (18) 
glide-dock_SP_D22_pv

>  <Molecule ChEMBL ID>  (18) 
CHEMBL2059311

>  <Standard Type>  (18) 
Ki

>  <Standard Value>  (18) 
16.0

>  <label>  (18) 
1

$$$$
CHEMBL3220212
     RDKit          3D

  0  0  0  0  0  0  0  0  0  0999 V3000
M  V30 BEGIN CTAB
M  V30 COUNTS 53 57 0 0 1
M  V30 BEGIN ATOM
M  V30 1 C 12.080153 9.777790 -2.936485 0
M  V30 2 C 11.744872 8.583291 -3.769982 0
M  V30 3 N 11.686354 7.378513 -3.216066 0
M  V30 4 O 11.389063 6.473541 -4.250827 0
M  V30 5 C 11.285901 7.171750 -5.405451 0
M  V30 6 C 11.516027 8.479834 -5.166101 0
M  V30 7 C 11.542486 9.473372 -6.246788 0
M  V30 8 O 11.604281 10.686747 -6.077346 0
M  V30 9 C 11.573215 8.871032 -7.663907 0
M  V30 10 C 10.816608 7.515508 -7.843357 0 CFG=2
M  V30 11 C 9.293423 7.700954 -8.108158 0
M  V30 12 N 8.886238 7.361793 -9.497820 0 CFG=2 CHG=1
M  V30 13 C 9.071969 5.936966 -9.872980 0
M  V30 14 C 8.368464 5.641827 -11.202514 0
M  V30 15 C 8.844712 6.574797 -12.332643 0 CFG=2
M  V30 16 C 10.175869 6.168244 -12.917527 0
M  V30 17 C 11.402866 6.777530 -12.790599 0
M  V30 18 N 12.325102 6.113735 -13.578641 0
M  V30 19 C 11.726732 5.079825 -14.263069 0
M  V30 20 C 12.218250 4.161822 -15.205409 0
M  V30 21 C 11.353734 3.183836 -15.728555 0
M  V30 22 F 11.809648 2.287032 -16.633812 0
M  V30 23 C 10.011976 3.134370 -15.305591 0
M  V30 24 C 9.524087 4.073424 -14.375761 0
M  V30 25 C 10.369053 5.071491 -13.831407 0
M  V30 26 C 8.766726 8.053158 -11.893216 0
M  V30 27 C 9.395176 8.315202 -10.511153 0
M  V30 28 C 11.067168 6.491762 -6.706398 0
M  V30 29 H 13.045700 10.171064 -3.239695 0
M  V30 30 H 11.341407 10.569590 -3.062039 0
M  V30 31 H 12.135835 9.533143 -1.875793 0
M  V30 32 H 12.625113 8.721615 -7.910190 0
M  V30 33 H 11.205516 9.611411 -8.374733 0
M  V30 34 H 11.261611 7.061382 -8.725221 0
M  V30 35 H 8.989406 8.727370 -7.897676 0
M  V30 36 H 8.687556 7.097080 -7.430086 0
M  V30 37 H 8.654336 5.297966 -9.096534 0
M  V30 38 H 10.126807 5.680506 -9.960822 0
M  V30 39 H 7.293851 5.772347 -11.058005 0
M  V30 40 H 8.503034 4.596023 -11.481212 0
M  V30 41 H 8.113939 6.470608 -13.135500 0
M  V30 42 H 11.711898 7.641922 -12.224081 0
M  V30 43 H 13.313519 6.349421 -13.607538 0
M  V30 44 H 13.251138 4.194147 -15.523101 0
M  V30 45 H 9.353285 2.376271 -15.702398 0
M  V30 46 H 8.489002 4.031579 -14.072161 0
M  V30 47 H 9.209716 8.706488 -12.645276 0
M  V30 48 H 7.711048 8.339698 -11.852223 0
M  V30 49 H 9.148914 9.333632 -10.204679 0
M  V30 50 H 10.480652 8.262952 -10.555681 0
M  V30 51 H 10.252742 5.773032 -6.637729 0
M  V30 52 H 11.959170 5.912230 -6.950519 0
M  V30 53 H 7.871044 7.496596 -9.543786 0
M  V30 END ATOM
M  V30 BEGIN BOND
M  V30 1 1 2 1
M  V30 2 2 3 2
M  V30 3 1 4 3
M  V30 4 1 5 4
M  V30 5 1 6 2
M  V30 6 2 6 5
M  V30 7 1 7 6
M  V30 8 2 8 7
M  V30 9 1 9 7
M  V30 10 1 10 9
M  V30 11 1 11 10
M  V30 12 1 12 11
M  V30 13 1 13 12
M  V30 14 1 14 13
M  V30 15 1 15 14
M  V30 16 1 16 15
M  V30 17 2 17 16
M  V30 18 1 18 17
M  V30 19 1 19 18
M  V30 20 1 20 19
M  V30 21 2 21 20
M  V30 22 1 22 21
M  V30 23 1 23 21
M  V30 24 2 24 23
M  V30 25 1 25 16
M  V30 26 2 25 19
M  V30 27 1 25 24
M  V30 28 1 26 15
M  V30 29 1 27 12
M  V30 30 1 27 26
M  V30 31 1 28 5
M  V30 32 1 28 10
M  V30 33 1 29 1
M  V30 34 1 30 1
M  V30 35 1 31 1
M  V30 36 1 32 9
M  V30 37 1 33 9
M  V30 38 1 10 34 CFG=3
M  V30 39 1 35 11
M  V30 40 1 36 11
M  V30 41 1 37 13
M  V30 42 1 38 13
M  V30 43 1 39 14
M  V30 44 1 40 14
M  V30 45 1 15 41 CFG=3
M  V30 46 1 42 17
M  V30 47 1 43 18
M  V30 48 1 44 20
M  V30 49 1 45 23
M  V30 50 1 46 24
M  V30 51 1 47 26
M  V30 52 1 48 26
M  V30 53 1 49 27
M  V30 54 1 50 27
M  V30 55 1 51 28
M  V30 56 1 52 28
M  V30 57 1 12 53 CFG=1
M  V30 END BOND
M  V30 END CTAB
M  END
>  <b_m_subgroup_collapsed>  (19) 
0

>  <r_i_docking_score>  (19) 
-9.7801465594321009

>  <s_m_subgroup_title>  (19) 
glide-dock_SP_D22_pv

>  <s_m_subgroupid>  (19) 
glide-dock_SP_D22_pv

>  <Molecule ChEMBL ID>  (19) 
CHEMBL3220212

>  <Standard Type>  (19) 
Ki

>  <Standard Value>  (19) 
63.1

>  <label>  (19) 
1

$$$$
CHEMBL2298817
     RDKit          3D

  0  0  0  0  0  0  0  0  0  0999 V3000
M  V30 BEGIN CTAB
M  V30 COUNTS 53 56 0 0 1
M  V30 BEGIN ATOM
M  V30 1 C 12.361470 7.235116 -14.138511 0
M  V30 2 O 11.368434 6.550420 -13.384678 0
M  V30 3 C 10.922650 5.326862 -13.847412 0
M  V30 4 C 11.500237 4.662137 -14.960952 0
M  V30 5 C 11.035968 3.396393 -15.365599 0
M  V30 6 C 9.981793 2.778276 -14.672153 0
M  V30 7 C 9.397032 3.430979 -13.573810 0
M  V30 8 C 9.858838 4.693017 -13.153724 0
M  V30 9 N 9.258298 5.287881 -12.034455 0
M  V30 10 C 9.149614 4.572463 -10.776114 0
M  V30 11 C 9.491736 5.502385 -9.596666 0
M  V30 12 N 8.886023 6.856729 -9.728162 0 CHG=1
M  V30 13 C 9.198967 7.767226 -8.607439 0
M  V30 14 C 10.662100 8.251120 -8.612713 0
M  V30 15 C 10.967776 9.180036 -7.443410 0
M  V30 16 C 11.280712 8.544982 -6.110896 0
M  V30 17 C 11.122434 7.162007 -5.868937 0
M  V30 18 C 11.409896 6.632535 -4.600629 0
M  V30 19 C 11.856530 7.461617 -3.558000 0
M  V30 20 N 12.155599 7.154717 -2.246888 0
M  V30 21 C 12.486135 8.347589 -1.766344 0
M  V30 22 N 12.464271 9.372306 -2.625078 0
M  V30 23 C 12.022632 8.850979 -3.825351 0
M  V30 24 C 11.740447 9.393633 -5.084965 0
M  V30 25 C 9.041733 7.482908 -11.067203 0
M  V30 26 C 8.529720 6.534859 -12.147114 0
M  V30 27 H 12.609960 8.172206 -13.642177 0
M  V30 28 H 13.284873 6.660993 -14.223781 0
M  V30 29 H 11.999453 7.476802 -15.138695 0
M  V30 30 H 12.314223 5.096025 -15.520752 0
M  V30 31 H 11.491403 2.898960 -16.209526 0
M  V30 32 H 9.621092 1.807792 -14.980674 0
M  V30 33 H 8.576925 2.972308 -13.047270 0
M  V30 34 H 8.136640 4.178223 -10.677435 0
M  V30 35 H 9.837398 3.728729 -10.775158 0
M  V30 36 H 9.179679 5.041542 -8.658564 0
M  V30 37 H 10.571224 5.607334 -9.546190 0
M  V30 38 H 8.529286 8.626723 -8.670476 0
M  V30 39 H 8.944005 7.271490 -7.670801 0
M  V30 40 H 11.387123 7.439123 -8.646486 0
M  V30 41 H 10.830716 8.834254 -9.517382 0
M  V30 42 H 11.835673 9.772278 -7.708382 0
M  V30 43 H 10.125485 9.844160 -7.281957 0
M  V30 44 H 10.781055 6.484049 -6.635159 0
M  V30 45 H 11.277606 5.585435 -4.407801 0
M  V30 46 H 12.801629 8.475095 -0.743255 0
M  V30 47 H 12.740743 10.319793 -2.389354 0
M  V30 48 H 11.864101 10.451061 -5.264257 0
M  V30 49 H 8.486425 8.421537 -11.106757 0
M  V30 50 H 10.087856 7.714207 -11.267156 0
M  V30 51 H 8.626404 6.972320 -13.130423 0
M  V30 52 H 7.465972 6.340112 -12.001020 0
M  V30 53 H 7.876733 6.737206 -9.670907 0
M  V30 END ATOM
M  V30 BEGIN BOND
M  V30 1 1 2 1
M  V30 2 1 3 2
M  V30 3 2 4 3
M  V30 4 1 5 4
M  V30 5 2 6 5
M  V30 6 1 7 6
M  V30 7 1 8 3
M  V30 8 2 8 7
M  V30 9 1 9 8
M  V30 10 1 10 9
M  V30 11 1 11 10
M  V30 12 1 12 11
M  V30 13 1 13 12
M  V30 14 1 14 13
M  V30 15 1 15 14
M  V30 16 1 16 15
M  V30 17 2 17 16
M  V30 18 1 18 17
M  V30 19 2 19 18
M  V30 20 1 20 19
M  V30 21 2 21 20
M  V30 22 1 22 21
M  V30 23 1 23 19
M  V30 24 1 23 22
M  V30 25 1 24 16
M  V30 26 2 24 23
M  V30 27 1 25 12
M  V30 28 1 26 9
M  V30 29 1 26 25
M  V30 30 1 27 1
M  V30 31 1 28 1
M  V30 32 1 29 1
M  V30 33 1 30 4
M  V30 34 1 31 5
M  V30 35 1 32 6
M  V30 36 1 33 7
M  V30 37 1 34 10
M  V30 38 1 35 10
M  V30 39 1 36 11
M  V30 40 1 37 11
M  V30 41 1 38 13
M  V30 42 1 39 13
M  V30 43 1 40 14
M  V30 44 1 41 14
M  V30 45 1 42 15
M  V30 46 1 43 15
M  V30 47 1 44 17
M  V30 48 1 45 18
M  V30 49 1 46 21
M  V30 50 1 47 22
M  V30 51 1 48 24
M  V30 52 1 49 25
M  V30 53 1 50 25
M  V30 54 1 51 26
M  V30 55 1 52 26
M  V30 56 1 53 12
M  V30 END BOND
M  V30 END CTAB
M  END
>  <b_m_subgroup_collapsed>  (20) 
0

>  <r_i_docking_score>  (20) 
-9.7287741183850596

>  <s_m_subgroup_title>  (20) 
glide-dock_SP_D22_pv

>  <s_m_subgroupid>  (20) 
glide-dock_SP_D22_pv

>  <Molecule ChEMBL ID>  (20) 
CHEMBL2298817

>  <Standard Type>  (20) 
Ki

>  <Standard Value>  (20) 
97.0

>  <label>  (20) 
1

$$$$
CHEMBL5790487
     RDKit          3D

  0  0  0  0  0  0  0  0  0  0999 V3000
M  V30 BEGIN CTAB
M  V30 COUNTS 57 61 0 0 1
M  V30 BEGIN ATOM
M  V30 1 C 5.367708 -0.391508 -14.721447 0
M  V30 2 O 5.092686 0.601615 -13.742761 0
M  V30 3 C 5.941323 1.686094 -13.662439 0
M  V30 4 C 5.667299 2.642661 -12.653402 0
M  V30 5 C 6.485418 3.772869 -12.442258 0
M  V30 6 C 7.646467 3.915483 -13.230179 0
M  V30 7 C 8.747441 4.796441 -13.135796 0
M  V30 8 C 9.166246 5.753327 -12.049018 0 CFG=1
M  V30 9 C 8.446632 7.108789 -12.068897 0
M  V30 10 C 9.052609 8.032547 -10.986186 0
M  V30 11 N 8.886165 7.407026 -9.650548 0 CFG=2 CHG=1
M  V30 12 C 9.186822 8.268422 -8.477971 0
M  V30 13 C 10.690989 8.582064 -8.286738 0
M  V30 14 N 11.103099 8.312017 -6.902358 0
M  V30 15 C 11.468824 6.903409 -6.698104 0
M  V30 16 C 11.318619 6.420759 -5.258884 0
M  V30 17 C 11.716635 7.449781 -4.246502 0
M  V30 18 C 12.160267 7.045415 -2.973983 0
M  V30 19 C 12.483490 8.035722 -2.039442 0
M  V30 20 C 12.290022 9.372533 -2.409628 0
M  V30 21 N 11.875625 9.771458 -3.631395 0
M  V30 22 C 11.619841 8.822365 -4.559448 0
M  V30 23 C 11.170528 9.263478 -5.935561 0
M  V30 24 O 10.891726 10.441100 -6.146957 0
M  V30 25 C 9.477155 6.045193 -9.549767 0
M  V30 26 C 8.998519 5.114787 -10.660505 0
M  V30 27 N 9.590859 4.531357 -14.132950 0
M  V30 28 O 9.070107 3.413589 -14.840617 0
M  V30 29 C 7.886746 2.996551 -14.251633 0
M  V30 30 C 7.061781 1.890810 -14.509779 0
M  V30 31 H 4.621185 -1.183066 -14.650775 0
M  V30 32 H 5.320551 0.020865 -15.730682 0
M  V30 33 H 6.345805 -0.848411 -14.564202 0
M  V30 34 H 4.843302 2.477923 -11.986111 0
M  V30 35 H 6.244009 4.464404 -11.650483 0
M  V30 36 H 10.230938 5.955496 -12.180850 0
M  V30 37 H 8.486115 7.579443 -13.046863 0
M  V30 38 H 7.384468 6.951932 -11.882840 0
M  V30 39 H 8.533976 8.992339 -11.000928 0
M  V30 40 H 10.106213 8.230431 -11.185879 0
M  V30 41 H 8.773077 7.777060 -7.595361 0
M  V30 42 H 8.626971 9.201088 -8.567346 0
M  V30 43 H 10.881101 9.623420 -8.554192 0
M  V30 44 H 11.331869 8.019101 -8.965530 0
M  V30 45 H 12.485450 6.747927 -7.047364 0
M  V30 46 H 10.870865 6.242192 -7.314930 0
M  V30 47 H 11.932617 5.537674 -5.118268 0
M  V30 48 H 10.276657 6.172164 -5.060259 0
M  V30 49 H 12.250991 5.999650 -2.717926 0
M  V30 50 H 12.836741 7.788352 -1.049857 0
M  V30 51 H 12.481450 10.154876 -1.693397 0
M  V30 52 H 10.563386 6.094517 -9.591722 0
M  V30 53 H 9.199480 5.602345 -8.592737 0
M  V30 54 H 9.551047 4.175807 -10.611988 0
M  V30 55 H 7.958132 4.870978 -10.460046 0
M  V30 56 H 7.326914 1.208720 -15.302339 0
M  V30 57 H 7.868502 7.301847 -9.622461 0
M  V30 END ATOM
M  V30 BEGIN BOND
M  V30 1 1 2 1
M  V30 2 1 3 2
M  V30 3 1 4 3
M  V30 4 2 5 4
M  V30 5 1 6 5
M  V30 6 1 7 6
M  V30 7 1 8 7
M  V30 8 1 9 8
M  V30 9 1 10 9
M  V30 10 1 11 10
M  V30 11 1 12 11
M  V30 12 1 13 12
M  V30 13 1 14 13
M  V30 14 1 15 14
M  V30 15 1 16 15
M  V30 16 1 17 16
M  V30 17 2 18 17
M  V30 18 1 19 18
M  V30 19 2 20 19
M  V30 20 1 21 20
M  V30 21 1 22 17
M  V30 22 2 22 21
M  V30 23 1 23 14
M  V30 24 1 23 22
M  V30 25 2 24 23
M  V30 26 1 25 11
M  V30 27 1 26 8
M  V30 28 1 26 25
M  V30 29 2 27 7
M  V30 30 1 28 27
M  V30 31 2 29 6
M  V30 32 1 29 28
M  V30 33 2 30 3
M  V30 34 1 30 29
M  V30 35 1 31 1
M  V30 36 1 32 1
M  V30 37 1 33 1
M  V30 38 1 34 4
M  V30 39 1 35 5
M  V30 40 1 8 36 CFG=3
M  V30 41 1 37 9
M  V30 42 1 38 9
M  V30 43 1 39 10
M  V30 44 1 40 10
M  V30 45 1 41 12
M  V30 46 1 42 12
M  V30 47 1 43 13
M  V30 48 1 44 13
M  V30 49 1 45 15
M  V30 50 1 46 15
M  V30 51 1 47 16
M  V30 52 1 48 16
M  V30 53 1 49 18
M  V30 54 1 50 19
M  V30 55 1 51 20
M  V30 56 1 52 25
M  V30 57 1 53 25
M  V30 58 1 54 26
M  V30 59 1 55 26
M  V30 60 1 56 30
M  V30 61 1 11 57 CFG=1
M  V30 END BOND
M  V30 END CTAB
M  END
>  <b_m_subgroup_collapsed>  (21) 
0

>  <r_i_docking_score>  (21) 
-9.7192173884187891

>  <s_m_subgroup_title>  (21) 
glide-dock_SP_D22_pv

>  <s_m_subgroupid>  (21) 
glide-dock_SP_D22_pv

>  <Molecule ChEMBL ID>  (21) 
CHEMBL5790487

>  <Standard Type>  (21) 
Ki

>  <Standard Value>  (21) 
10000.0

>  <label>  (21) 
0

$$$$
CHEMBL5931021
     RDKit          3D

  0  0  0  0  0  0  0  0  0  0999 V3000
M  V30 BEGIN CTAB
M  V30 COUNTS 61 64 0 0 1
M  V30 BEGIN ATOM
M  V30 1 C 4.599193 -2.113939 -16.077276 0
M  V30 2 N 5.420864 -0.943118 -15.760394 0
M  V30 3 C 6.428351 -0.582340 -16.766464 0
M  V30 4 C 7.664026 0.104712 -16.161751 0
M  V30 5 C 7.264525 1.151712 -15.146863 0
M  V30 6 C 8.044121 2.311141 -14.980855 0
M  V30 7 C 7.639854 3.307022 -14.074458 0
M  V30 8 C 6.470279 3.140373 -13.292665 0
M  V30 9 O 6.024761 4.052760 -12.355131 0
M  V30 10 C 6.861201 5.153509 -12.004182 0
M  V30 11 C 8.055140 4.696708 -11.138185 0
M  V30 12 C 9.112985 5.788760 -10.889022 0
M  V30 13 N 8.885830 6.593171 -9.662173 0 CFG=2 CHG=1
M  V30 14 C 9.487695 7.947164 -9.754406 0
M  V30 15 C 9.143483 8.813372 -8.523667 0
M  V30 16 C 9.458462 8.123266 -7.178442 0 CFG=2
M  V30 17 C 10.952911 8.112178 -6.839895 0
M  V30 18 O 11.802901 7.971318 -7.719507 0
M  V30 19 C 11.286680 8.223860 -5.408861 0
M  V30 20 C 11.287184 9.488652 -4.785888 0
M  V30 21 C 11.686099 9.603131 -3.442685 0
M  V30 22 C 12.094066 8.462345 -2.725381 0
M  V30 23 F 12.503887 8.578617 -1.445234 0
M  V30 24 C 12.090102 7.197303 -3.342809 0
M  V30 25 C 11.685975 7.078319 -4.685665 0
M  V30 26 C 8.883663 6.694673 -7.153801 0
M  V30 27 C 9.264153 5.882913 -8.408832 0
M  V30 28 C 5.710745 1.960433 -13.447186 0
M  V30 29 C 6.085135 0.972625 -14.390821 0
M  V30 30 C 5.200244 -0.228098 -14.632522 0
M  V30 31 O 4.288224 -0.494419 -13.846850 0
M  V30 32 H 3.536813 -1.915738 -15.913339 0
M  V30 33 H 4.703974 -2.427998 -17.116070 0
M  V30 34 H 4.887200 -2.957288 -15.447814 0
M  V30 35 H 6.745472 -1.454213 -17.340090 0
M  V30 36 H 5.949975 0.096656 -17.471987 0
M  V30 37 H 8.274513 0.547053 -16.949848 0
M  V30 38 H 8.290442 -0.626288 -15.650803 0
M  V30 39 H 8.942541 2.451127 -15.563320 0
M  V30 40 H 8.257814 4.187711 -13.995270 0
M  V30 41 H 6.243655 5.850279 -11.441253 0
M  V30 42 H 7.174790 5.704255 -12.890941 0
M  V30 43 H 8.569056 3.884780 -11.652205 0
M  V30 44 H 7.688188 4.255070 -10.214386 0
M  V30 45 H 9.169659 6.433668 -11.766297 0
M  V30 46 H 10.087797 5.315949 -10.809896 0
M  V30 47 H 9.104188 8.449232 -10.643919 0
M  V30 48 H 10.566462 7.861897 -9.892134 0
M  V30 49 H 8.086087 9.065892 -8.540299 0
M  V30 50 H 9.660736 9.770583 -8.593764 0
M  V30 51 H 8.969384 8.696313 -6.389804 0
M  V30 52 H 10.997484 10.372746 -5.337187 0
M  V30 53 H 11.693594 10.569687 -2.961232 0
M  V30 54 H 12.401844 6.322970 -2.791872 0
M  V30 55 H 11.702093 6.108653 -5.163615 0
M  V30 56 H 9.222547 6.171916 -6.259790 0
M  V30 57 H 7.802568 6.731750 -7.046785 0
M  V30 58 H 8.766578 4.914898 -8.359544 0
M  V30 59 H 10.336235 5.676414 -8.415972 0
M  V30 60 H 4.812747 1.836655 -12.858379 0
M  V30 61 H 7.882928 6.778335 -9.628742 0
M  V30 END ATOM
M  V30 BEGIN BOND
M  V30 1 1 2 1
M  V30 2 1 3 2
M  V30 3 1 4 3
M  V30 4 1 5 4
M  V30 5 1 6 5
M  V30 6 2 7 6
M  V30 7 1 8 7
M  V30 8 1 9 8
M  V30 9 1 10 9
M  V30 10 1 11 10
M  V30 11 1 12 11
M  V30 12 1 13 12
M  V30 13 1 14 13
M  V30 14 1 15 14
M  V30 15 1 16 15
M  V30 16 1 17 16
M  V30 17 2 18 17
M  V30 18 1 19 17
M  V30 19 1 20 19
M  V30 20 2 21 20
M  V30 21 1 22 21
M  V30 22 1 23 22
M  V30 23 2 24 22
M  V30 24 2 25 19
M  V30 25 1 25 24
M  V30 26 1 26 16
M  V30 27 1 27 13
M  V30 28 1 27 26
M  V30 29 2 28 8
M  V30 30 2 29 5
M  V30 31 1 29 28
M  V30 32 1 30 2
M  V30 33 1 30 29
M  V30 34 2 31 30
M  V30 35 1 32 1
M  V30 36 1 33 1
M  V30 37 1 34 1
M  V30 38 1 35 3
M  V30 39 1 36 3
M  V30 40 1 37 4
M  V30 41 1 38 4
M  V30 42 1 39 6
M  V30 43 1 40 7
M  V30 44 1 41 10
M  V30 45 1 42 10
M  V30 46 1 43 11
M  V30 47 1 44 11
M  V30 48 1 45 12
M  V30 49 1 46 12
M  V30 50 1 47 14
M  V30 51 1 48 14
M  V30 52 1 49 15
M  V30 53 1 50 15
M  V30 54 1 16 51 CFG=1
M  V30 55 1 52 20
M  V30 56 1 53 21
M  V30 57 1 54 24
M  V30 58 1 55 25
M  V30 59 1 56 26
M  V30 60 1 57 26
M  V30 61 1 58 27
M  V30 62 1 59 27
M  V30 63 1 60 28
M  V30 64 1 13 61 CFG=1
M  V30 END BOND
M  V30 END CTAB
M  END
>  <b_m_subgroup_collapsed>  (22) 
0

>  <r_i_docking_score>  (22) 
-9.7106540967174393

>  <s_m_subgroup_title>  (22) 
glide-dock_SP_D22_pv

>  <s_m_subgroupid>  (22) 
glide-dock_SP_D22_pv

>  <Molecule ChEMBL ID>  (22) 
CHEMBL5931021

>  <Standard Type>  (22) 
Ki

>  <Standard Value>  (22) 
32.8

>  <label>  (22) 
1

$$$$
CHEMBL85
     RDKit          3D

  0  0  0  0  0  0  0  0  0  0999 V3000
M  V30 BEGIN CTAB
M  V30 COUNTS 58 62 0 0 1
M  V30 BEGIN ATOM
M  V30 1 C 5.352685 3.674565 -12.652973 0
M  V30 2 C 6.737372 3.607609 -13.266033 0
M  V30 3 N 6.916599 2.607622 -14.229269 0
M  V30 4 C 8.092776 2.421570 -14.731964 0
M  V30 5 N 9.198806 3.239091 -14.414707 0
M  V30 6 C 9.093216 4.243333 -13.498793 0
M  V30 7 O 10.049246 4.968638 -13.213665 0
M  V30 8 C 7.770359 4.400248 -12.862707 0
M  V30 9 C 7.661437 5.450015 -11.757476 0
M  V30 10 C 8.363811 4.989680 -10.460330 0
M  V30 11 N 8.610573 6.109137 -9.505032 0 CFG=2 CHG=1
M  V30 12 C 9.850849 6.860817 -9.859090 0
M  V30 13 C 10.232575 7.944121 -8.829256 0
M  V30 14 C 10.320365 7.353455 -7.407467 0 CFG=1
M  V30 15 C 10.789085 8.334516 -6.355057 0
M  V30 16 N 10.649772 9.648820 -6.512938 0
M  V30 17 O 11.133701 10.281418 -5.333684 0
M  V30 18 C 11.557765 9.321241 -4.432398 0
M  V30 19 C 12.085176 9.418313 -3.135340 0
M  V30 20 C 12.387524 8.222276 -2.461334 0
M  V30 21 F 12.885711 8.272967 -1.207335 0
M  V30 22 C 12.164472 6.972110 -3.084379 0
M  V30 23 C 11.647262 6.900344 -4.398976 0
M  V30 24 C 11.336119 8.099600 -5.073827 0
M  V30 25 C 8.956904 6.735970 -7.080399 0
M  V30 26 C 8.637723 5.624213 -8.097973 0
M  V30 27 C 10.455740 3.000170 -15.150762 0
M  V30 28 C 10.878417 1.526233 -15.071568 0
M  V30 29 C 9.714499 0.552847 -15.322618 0
M  V30 30 C 8.403264 1.272025 -15.686994 0
M  V30 31 H 4.886404 4.630894 -12.881778 0
M  V30 32 H 4.706344 2.890647 -13.048172 0
M  V30 33 H 5.401916 3.544041 -11.570782 0
M  V30 34 H 6.620130 5.693714 -11.541537 0
M  V30 35 H 8.096684 6.379141 -12.125843 0
M  V30 36 H 9.317452 4.510559 -10.680529 0
M  V30 37 H 7.766310 4.186638 -10.013206 0
M  V30 38 H 9.731193 7.322860 -10.838575 0
M  V30 39 H 10.686771 6.168180 -9.942571 0
M  V30 40 H 9.493508 8.748924 -8.857874 0
M  V30 41 H 11.186863 8.393860 -9.112997 0
M  V30 42 H 11.053839 6.546862 -7.436971 0
M  V30 43 H 12.232428 10.371606 -2.652005 0
M  V30 44 H 12.395157 6.060287 -2.552432 0
M  V30 45 H 11.486165 5.943301 -4.869352 0
M  V30 46 H 8.978930 6.312617 -6.076700 0
M  V30 47 H 8.176432 7.497471 -7.072663 0
M  V30 48 H 7.685381 5.176365 -7.844937 0
M  V30 49 H 9.374670 4.829515 -8.008750 0
M  V30 50 H 10.301315 3.282108 -16.191055 0
M  V30 51 H 11.283506 3.620315 -14.805753 0
M  V30 52 H 11.686415 1.343459 -15.780196 0
M  V30 53 H 11.285852 1.337466 -14.078126 0
M  V30 54 H 9.980584 -0.158806 -16.105705 0
M  V30 55 H 9.555551 -0.044352 -14.424236 0
M  V30 56 H 7.583463 0.554520 -15.681457 0
M  V30 57 H 8.458694 1.667731 -16.701309 0
M  V30 58 H 7.821744 6.751711 -9.585166 0
M  V30 END ATOM
M  V30 BEGIN BOND
M  V30 1 1 2 1
M  V30 2 1 3 2
M  V30 3 2 4 3
M  V30 4 1 5 4
M  V30 5 1 6 5
M  V30 6 2 7 6
M  V30 7 2 8 2
M  V30 8 1 8 6
M  V30 9 1 9 8
M  V30 10 1 10 9
M  V30 11 1 11 10
M  V30 12 1 12 11
M  V30 13 1 13 12
M  V30 14 1 14 13
M  V30 15 1 15 14
M  V30 16 2 16 15
M  V30 17 1 17 16
M  V30 18 1 18 17
M  V30 19 1 19 18
M  V30 20 2 20 19
M  V30 21 1 21 20
M  V30 22 1 22 20
M  V30 23 2 23 22
M  V30 24 1 24 15
M  V30 25 2 24 18
M  V30 26 1 24 23
M  V30 27 1 25 14
M  V30 28 1 26 11
M  V30 29 1 26 25
M  V30 30 1 27 5
M  V30 31 1 28 27
M  V30 32 1 29 28
M  V30 33 1 30 4
M  V30 34 1 30 29
M  V30 35 1 31 1
M  V30 36 1 32 1
M  V30 37 1 33 1
M  V30 38 1 34 9
M  V30 39 1 35 9
M  V30 40 1 36 10
M  V30 41 1 37 10
M  V30 42 1 38 12
M  V30 43 1 39 12
M  V30 44 1 40 13
M  V30 45 1 41 13
M  V30 46 1 14 42 CFG=3
M  V30 47 1 43 19
M  V30 48 1 44 22
M  V30 49 1 45 23
M  V30 50 1 46 25
M  V30 51 1 47 25
M  V30 52 1 48 26
M  V30 53 1 49 26
M  V30 54 1 50 27
M  V30 55 1 51 27
M  V30 56 1 52 28
M  V30 57 1 53 28
M  V30 58 1 54 29
M  V30 59 1 55 29
M  V30 60 1 56 30
M  V30 61 1 57 30
M  V30 62 1 11 58 CFG=1
M  V30 END BOND
M  V30 END CTAB
M  END
>  <b_m_subgroup_collapsed>  (23) 
0

>  <r_i_docking_score>  (23) 
-9.6979513335167198

>  <s_m_subgroup_title>  (23) 
glide-dock_SP_D22_pv

>  <s_m_subgroupid>  (23) 
glide-dock_SP_D22_pv

>  <Molecule ChEMBL ID>  (23) 
CHEMBL85

>  <Standard Type>  (23) 
Ki

>  <Standard Value>  (23) 
0.44

>  <label>  (23) 
1

$$$$
CHEMBL422618
     RDKit          3D

  0  0  0  0  0  0  0  0  0  0999 V3000
M  V30 BEGIN CTAB
M  V30 COUNTS 62 66 0 0 1
M  V30 BEGIN ATOM
M  V30 1 C 5.295744 -2.338930 -16.206501 0
M  V30 2 C 5.118889 -1.145255 -15.288963 0
M  V30 3 C 3.864145 -0.916380 -14.710307 0
M  V30 4 C 3.697995 0.172187 -13.847287 0
M  V30 5 C 4.766772 1.045536 -13.558687 0
M  V30 6 C 6.018042 0.925980 -14.218755 0
M  V30 7 C 7.241171 1.698777 -14.358807 0
M  V30 8 C 7.592886 3.058560 -13.846950 0
M  V30 9 C 6.794684 3.772452 -13.021367 0
M  V30 10 C 7.143269 5.126390 -12.405898 0
M  V30 11 N 8.582651 5.475136 -12.560344 0 CFG=2 CHG=1
M  V30 12 C 8.892186 6.871239 -12.148198 0
M  V30 13 C 9.165798 7.021322 -10.645506 0
M  V30 14 C 9.311854 8.505194 -10.249937 0
M  V30 15 C 9.540572 8.706737 -8.745947 0
M  V30 16 C 11.036809 8.771315 -8.393783 0
M  V30 17 N 11.262918 8.567601 -6.962623 0
M  V30 18 C 11.515738 9.548349 -6.056344 0
M  V30 19 O 11.607183 10.758760 -6.245105 0
M  V30 20 C 11.685137 8.867219 -4.747701 0
M  V30 21 C 11.958261 9.378268 -3.466654 0
M  V30 22 C 12.095380 8.445177 -2.412514 0
M  V30 23 C 11.976058 7.051871 -2.656443 0
M  V30 24 C 11.686079 6.573968 -3.953530 0
M  V30 25 C 11.536497 7.522529 -4.971373 0
M  V30 26 C 11.258386 7.330036 -6.412696 0
M  V30 27 O 11.089528 6.249152 -6.975209 0
M  V30 28 C 9.060765 5.167361 -13.928823 0
M  V30 29 C 8.938784 3.662553 -14.236201 0
M  V30 30 C 8.124050 0.935052 -15.081102 0
M  V30 31 N 7.478592 -0.223121 -15.475732 0
M  V30 32 C 6.171579 -0.237766 -15.040218 0
M  V30 33 H 4.347590 -2.628211 -16.658875 0
M  V30 34 H 5.993191 -2.110837 -17.011915 0
M  V30 35 H 5.685338 -3.190754 -15.646453 0
M  V30 36 H 3.033595 -1.572503 -14.929678 0
M  V30 37 H 2.716331 0.355927 -13.446760 0
M  V30 38 H 4.554859 1.870461 -12.903632 0
M  V30 39 H 5.836458 3.399520 -12.712540 0
M  V30 40 H 6.510622 5.881367 -12.871603 0
M  V30 41 H 6.888965 5.110834 -11.346634 0
M  V30 42 H 9.796258 7.218293 -12.647014 0
M  V30 43 H 8.089388 7.540211 -12.466351 0
M  V30 44 H 8.358709 6.571124 -10.067161 0
M  V30 45 H 10.070479 6.473714 -10.377233 0
M  V30 46 H 10.115764 8.972397 -10.820621 0
M  V30 47 H 8.405555 9.035783 -10.537131 0
M  V30 48 H 9.060545 9.629597 -8.421560 0
M  V30 49 H 9.034284 7.913242 -8.193151 0
M  V30 50 H 11.585801 8.005287 -8.946038 0
M  V30 51 H 11.448873 9.724542 -8.725597 0
M  V30 52 H 12.059847 10.436869 -3.281345 0
M  V30 53 H 12.304467 8.799492 -1.413074 0
M  V30 54 H 12.097755 6.346123 -1.847280 0
M  V30 55 H 11.582340 5.528450 -4.171632 0
M  V30 56 H 10.103707 5.465028 -14.043155 0
M  V30 57 H 8.485800 5.757207 -14.646996 0
M  V30 58 H 9.724464 3.103182 -13.725903 0
M  V30 59 H 9.097886 3.527284 -15.306004 0
M  V30 60 H 9.149606 1.116518 -15.362702 0
M  V30 61 H 7.922786 -0.984655 -15.974931 0
M  V30 62 H 9.101117 4.867668 -11.942421 0
M  V30 END ATOM
M  V30 BEGIN BOND
M  V30 1 1 2 1
M  V30 2 1 3 2
M  V30 3 2 4 3
M  V30 4 1 5 4
M  V30 5 2 6 5
M  V30 6 1 7 6
M  V30 7 1 8 7
M  V30 8 2 9 8
M  V30 9 1 10 9
M  V30 10 1 11 10
M  V30 11 1 12 11
M  V30 12 1 13 12
M  V30 13 1 14 13
M  V30 14 1 15 14
M  V30 15 1 16 15
M  V30 16 1 17 16
M  V30 17 1 18 17
M  V30 18 2 19 18
M  V30 19 1 20 18
M  V30 20 2 21 20
M  V30 21 1 22 21
M  V30 22 2 23 22
M  V30 23 1 24 23
M  V30 24 1 25 20
M  V30 25 2 25 24
M  V30 26 1 26 17
M  V30 27 1 26 25
M  V30 28 2 27 26
M  V30 29 1 28 11
M  V30 30 1 29 8
M  V30 31 1 29 28
M  V30 32 2 30 7
M  V30 33 1 31 30
M  V30 34 2 32 2
M  V30 35 1 32 6
M  V30 36 1 32 31
M  V30 37 1 33 1
M  V30 38 1 34 1
M  V30 39 1 35 1
M  V30 40 1 36 3
M  V30 41 1 37 4
M  V30 42 1 38 5
M  V30 43 1 39 9
M  V30 44 1 40 10
M  V30 45 1 41 10
M  V30 46 1 42 12
M  V30 47 1 43 12
M  V30 48 1 44 13
M  V30 49 1 45 13
M  V30 50 1 46 14
M  V30 51 1 47 14
M  V30 52 1 48 15
M  V30 53 1 49 15
M  V30 54 1 50 16
M  V30 55 1 51 16
M  V30 56 1 52 21
M  V30 57 1 53 22
M  V30 58 1 54 23
M  V30 59 1 55 24
M  V30 60 1 56 28
M  V30 61 1 57 28
M  V30 62 1 58 29
M  V30 63 1 59 29
M  V30 64 1 60 30
M  V30 65 1 61 31
M  V30 66 1 11 62 CFG=1
M  V30 END BOND
M  V30 END CTAB
M  END
>  <b_m_subgroup_collapsed>  (24) 
0

>  <r_i_docking_score>  (24) 
-9.6863952101606294

>  <s_m_subgroup_title>  (24) 
glide-dock_SP_D22_pv

>  <s_m_subgroupid>  (24) 
glide-dock_SP_D22_pv

>  <Molecule ChEMBL ID>  (24) 
CHEMBL422618

>  <Standard Type>  (24) 
Ki

>  <Standard Value>  (24) 
40.0

>  <label>  (24) 
1

$$$$
CHEMBL3220220
     RDKit          3D

  0  0  0  0  0  0  0  0  0  0999 V3000
M  V30 BEGIN CTAB
M  V30 COUNTS 60 65 0 0 1
M  V30 BEGIN ATOM
M  V30 1 O 12.325872 6.067197 -14.247100 0
M  V30 2 C 11.311932 5.485710 -13.869821 0
M  V30 3 C 10.481647 6.047438 -12.705060 0
M  V30 4 C 9.452259 5.060507 -12.063238 0 CFG=1
M  V30 5 C 8.403604 5.771925 -11.159346 0
M  V30 6 N 8.886065 6.472072 -9.931745 0 CFG=1 CHG=1
M  V30 7 C 9.560833 5.608051 -8.925056 0
M  V30 8 C 10.191968 6.395580 -7.780118 0
M  V30 9 C 10.279549 7.740161 -7.718271 0
M  V30 10 C 10.898291 8.458044 -6.574727 0
M  V30 11 C 11.286166 9.768070 -6.662903 0
M  V30 12 N 11.769399 10.172318 -5.449710 0
M  V30 13 C 11.826027 9.123042 -4.575865 0
M  V30 14 C 12.322637 9.074597 -3.271153 0
M  V30 15 C 12.338631 7.856448 -2.595552 0
M  V30 16 F 12.885923 7.806252 -1.365484 0
M  V30 17 C 11.812099 6.707859 -3.211646 0
M  V30 18 C 11.286029 6.772776 -4.522135 0
M  V30 19 C 11.286366 7.985474 -5.258845 0
M  V30 20 C 9.672011 8.557590 -8.855798 0
M  V30 21 C 9.570876 7.764382 -10.160572 0
M  V30 22 C 8.705501 4.194949 -13.121164 0
M  V30 23 C 9.640504 3.663661 -14.159558 0
M  V30 24 N 9.396684 2.499139 -14.891897 0
M  V30 25 C 10.386098 2.239368 -15.756938 0
M  V30 26 N 10.412052 1.143846 -16.614784 0
M  V30 27 C 11.451941 0.820845 -17.587185 0
M  V30 28 C 10.926516 -0.300244 -18.481050 0
M  V30 29 C 9.954719 -1.024519 -17.570002 0
M  V30 30 C 9.385929 0.112309 -16.724796 0
M  V30 31 S 11.685596 3.436603 -15.734049 0
M  V30 32 C 10.814465 4.273508 -14.482128 0
M  V30 33 H 9.966788 6.941631 -13.046808 0
M  V30 34 H 11.204608 6.376247 -11.965865 0
M  V30 35 H 10.023811 4.354482 -11.460957 0
M  V30 36 H 7.683091 5.027774 -10.817845 0
M  V30 37 H 7.824955 6.479497 -11.755962 0
M  V30 38 H 10.359703 5.032089 -9.386539 0
M  V30 39 H 8.839520 4.897708 -8.518559 0
M  V30 40 H 10.619193 5.781496 -7.006379 0
M  V30 41 H 11.286018 10.473275 -7.469050 0
M  V30 42 H 12.094827 11.111627 -5.277595 0
M  V30 43 H 12.724782 9.957826 -2.799844 0
M  V30 44 H 11.814502 5.772430 -2.673896 0
M  V30 45 H 10.887209 5.867905 -4.946971 0
M  V30 46 H 8.700574 8.943662 -8.542104 0
M  V30 47 H 10.297289 9.417750 -9.083206 0
M  V30 48 H 9.033564 8.351819 -10.908288 0
M  V30 49 H 10.582045 7.611981 -10.526495 0
M  V30 50 H 8.173638 3.372449 -12.646283 0
M  V30 51 H 7.942787 4.799806 -13.613150 0
M  V30 52 H 11.727038 1.696742 -18.176004 0
M  V30 53 H 12.341832 0.494507 -17.049110 0
M  V30 54 H 10.391267 0.122938 -19.332188 0
M  V30 55 H 11.717113 -0.946566 -18.863131 0
M  V30 56 H 9.184952 -1.573523 -18.113497 0
M  V30 57 H 10.485972 -1.731301 -16.932753 0
M  V30 58 H 9.075081 -0.241353 -15.741033 0
M  V30 59 H 8.511647 0.546096 -17.211720 0
M  V30 60 H 8.012585 6.770922 -9.500948 0
M  V30 END ATOM
M  V30 BEGIN BOND
M  V30 1 2 2 1
M  V30 2 1 3 2
M  V30 3 1 4 3
M  V30 4 1 5 4
M  V30 5 1 6 5
M  V30 6 1 7 6
M  V30 7 1 8 7
M  V30 8 2 9 8
M  V30 9 1 10 9
M  V30 10 2 11 10
M  V30 11 1 12 11
M  V30 12 1 13 12
M  V30 13 1 14 13
M  V30 14 2 15 14
M  V30 15 1 16 15
M  V30 16 1 17 15
M  V30 17 2 18 17
M  V30 18 1 19 10
M  V30 19 2 19 13
M  V30 20 1 19 18
M  V30 21 1 20 9
M  V30 22 1 21 6
M  V30 23 1 21 20
M  V30 24 1 22 4
M  V30 25 1 23 22
M  V30 26 1 24 23
M  V30 27 2 25 24
M  V30 28 1 26 25
M  V30 29 1 27 26
M  V30 30 1 28 27
M  V30 31 1 29 28
M  V30 32 1 30 26
M  V30 33 1 30 29
M  V30 34 1 31 25
M  V30 35 1 32 2
M  V30 36 2 32 23
M  V30 37 1 32 31
M  V30 38 1 33 3
M  V30 39 1 34 3
M  V30 40 1 4 35 CFG=1
M  V30 41 1 36 5
M  V30 42 1 37 5
M  V30 43 1 38 7
M  V30 44 1 39 7
M  V30 45 1 40 8
M  V30 46 1 41 11
M  V30 47 1 42 12
M  V30 48 1 43 14
M  V30 49 1 44 17
M  V30 50 1 45 18
M  V30 51 1 46 20
M  V30 52 1 47 20
M  V30 53 1 48 21
M  V30 54 1 49 21
M  V30 55 1 50 22
M  V30 56 1 51 22
M  V30 57 1 52 27
M  V30 58 1 53 27
M  V30 59 1 54 28
M  V30 60 1 55 28
M  V30 61 1 56 29
M  V30 62 1 57 29
M  V30 63 1 58 30
M  V30 64 1 59 30
M  V30 65 1 6 60 CFG=1
M  V30 END BOND
M  V30 END CTAB
M  END
>  <b_m_subgroup_collapsed>  (25) 
0

>  <r_i_docking_score>  (25) 
-9.6782311524254805

>  <s_m_subgroup_title>  (25) 
glide-dock_SP_D22_pv

>  <s_m_subgroupid>  (25) 
glide-dock_SP_D22_pv

>  <Molecule ChEMBL ID>  (25) 
CHEMBL3220220

>  <Standard Type>  (25) 
Ki

>  <Standard Value>  (25) 
54.95

>  <label>  (25) 
1

$$$$
CHEMBL3883955
     RDKit          3D

  0  0  0  0  0  0  0  0  0  0999 V3000
M  V30 BEGIN CTAB
M  V30 COUNTS 59 63 0 0 1
M  V30 BEGIN ATOM
M  V30 1 O 9.659199 -0.200598 -16.188848 0
M  V30 2 C 9.453376 0.860415 -15.598224 0
M  V30 3 C 10.533545 1.764613 -15.207366 0
M  V30 4 C 10.304313 2.883979 -14.489020 0
M  V30 5 C 8.949254 3.186228 -14.085217 0
M  V30 6 O 8.735090 4.296253 -13.288106 0
M  V30 7 C 7.417717 4.484445 -12.771121 0
M  V30 8 C 7.481564 5.544741 -11.665723 0
M  V30 9 C 8.266948 5.067604 -10.431563 0
M  V30 10 N 8.561618 6.172153 -9.476832 0 CFG=2 CHG=1
M  V30 11 C 9.854000 6.841065 -9.806110 0
M  V30 12 C 10.250376 7.928712 -8.794031 0
M  V30 13 C 10.274351 7.360494 -7.362308 0 CFG=1
M  V30 14 C 10.726892 8.353438 -6.320358 0
M  V30 15 N 10.489391 9.653403 -6.464859 0
M  V30 16 O 10.962452 10.316022 -5.299344 0
M  V30 17 C 11.463545 9.381886 -4.411114 0
M  V30 18 C 11.996429 9.514125 -3.122686 0
M  V30 19 C 12.376190 8.337919 -2.447746 0
M  V30 20 F 12.885166 8.420959 -1.199647 0
M  V30 21 C 12.215191 7.074477 -3.063808 0
M  V30 22 C 11.685688 6.971504 -4.370488 0
M  V30 23 C 11.306927 8.149270 -5.050056 0
M  V30 24 C 8.883427 6.804879 -7.048751 0
M  V30 25 C 8.497588 5.711488 -8.060022 0
M  V30 26 N 7.973339 2.426562 -14.469209 0
M  V30 27 N 8.203948 1.291030 -15.230144 0
M  V30 28 C 7.074381 0.516718 -15.600546 0
M  V30 29 C 6.400933 -0.253680 -14.626657 0
M  V30 30 F 6.829493 -0.265782 -13.341509 0
M  V30 31 C 5.280107 -1.026754 -14.991629 0
M  V30 32 C 4.816386 -1.021578 -16.320728 0
M  V30 33 C 5.467647 -0.228403 -17.286757 0
M  V30 34 C 6.590616 0.543430 -16.929556 0
M  V30 35 F 7.191109 1.325186 -17.861801 0
M  V30 36 H 11.544064 1.523646 -15.502162 0
M  V30 37 H 11.110797 3.538548 -14.195623 0
M  V30 38 H 6.750820 4.816415 -13.568541 0
M  V30 39 H 6.997189 3.568786 -12.351662 0
M  V30 40 H 7.907226 6.463494 -12.071417 0
M  V30 41 H 6.460887 5.772192 -11.361818 0
M  V30 42 H 7.686149 4.284000 -9.944944 0
M  V30 43 H 9.197128 4.583602 -10.732231 0
M  V30 44 H 10.647426 6.094503 -9.834418 0
M  V30 45 H 9.799324 7.272330 -10.804637 0
M  V30 46 H 11.231042 8.329137 -9.053973 0
M  V30 47 H 9.544209 8.758780 -8.861387 0
M  V30 48 H 10.981410 6.528360 -7.346910 0
M  V30 49 H 12.090328 10.481640 -2.651059 0
M  V30 50 H 12.500804 6.178817 -2.532175 0
M  V30 51 H 11.558168 6.002617 -4.830572 0
M  V30 52 H 8.883834 6.379774 -6.044819 0
M  V30 53 H 8.140533 7.605330 -7.044349 0
M  V30 54 H 7.487591 5.372589 -7.846194 0
M  V30 55 H 9.153526 4.852387 -7.908192 0
M  V30 56 H 4.779211 -1.632055 -14.252378 0
M  V30 57 H 3.961033 -1.622347 -16.597643 0
M  V30 58 H 5.103542 -0.214341 -18.303431 0
M  V30 59 H 7.810430 6.856183 -9.590003 0
M  V30 END ATOM
M  V30 BEGIN BOND
M  V30 1 2 2 1
M  V30 2 1 3 2
M  V30 3 2 4 3
M  V30 4 1 5 4
M  V30 5 1 6 5
M  V30 6 1 7 6
M  V30 7 1 8 7
M  V30 8 1 9 8
M  V30 9 1 10 9
M  V30 10 1 11 10
M  V30 11 1 12 11
M  V30 12 1 13 12
M  V30 13 1 14 13
M  V30 14 2 15 14
M  V30 15 1 16 15
M  V30 16 1 17 16
M  V30 17 1 18 17
M  V30 18 2 19 18
M  V30 19 1 20 19
M  V30 20 1 21 19
M  V30 21 2 22 21
M  V30 22 1 23 14
M  V30 23 2 23 17
M  V30 24 1 23 22
M  V30 25 1 24 13
M  V30 26 1 25 10
M  V30 27 1 25 24
M  V30 28 2 26 5
M  V30 29 1 27 2
M  V30 30 1 27 26
M  V30 31 1 28 27
M  V30 32 2 29 28
M  V30 33 1 30 29
M  V30 34 1 31 29
M  V30 35 2 32 31
M  V30 36 1 33 32
M  V30 37 1 34 28
M  V30 38 2 34 33
M  V30 39 1 35 34
M  V30 40 1 36 3
M  V30 41 1 37 4
M  V30 42 1 38 7
M  V30 43 1 39 7
M  V30 44 1 40 8
M  V30 45 1 41 8
M  V30 46 1 42 9
M  V30 47 1 43 9
M  V30 48 1 44 11
M  V30 49 1 45 11
M  V30 50 1 46 12
M  V30 51 1 47 12
M  V30 52 1 13 48 CFG=3
M  V30 53 1 49 18
M  V30 54 1 50 21
M  V30 55 1 51 22
M  V30 56 1 52 24
M  V30 57 1 53 24
M  V30 58 1 54 25
M  V30 59 1 55 25
M  V30 60 1 56 31
M  V30 61 1 57 32
M  V30 62 1 58 33
M  V30 63 1 10 59 CFG=1
M  V30 END BOND
M  V30 END CTAB
M  END
>  <b_m_subgroup_collapsed>  (26) 
0

>  <r_i_docking_score>  (26) 
-9.6668727389992704

>  <s_m_subgroup_title>  (26) 
glide-dock_SP_D22_pv

>  <s_m_subgroupid>  (26) 
glide-dock_SP_D22_pv

>  <Molecule ChEMBL ID>  (26) 
CHEMBL3883955

>  <Standard Type>  (26) 
Ki

>  <Standard Value>  (26) 
5.0

>  <label>  (26) 
1

$$$$
CHEMBL4279397
     RDKit          3D

  0  0  0  0  0  0  0  0  0  0999 V3000
M  V30 BEGIN CTAB
M  V30 COUNTS 61 64 0 0 1
M  V30 BEGIN ATOM
M  V30 1 C 13.281384 4.574918 -15.013709 0
M  V30 2 C 12.041710 5.476341 -15.031312 0 CFG=2
M  V30 3 C 11.830914 6.073333 -16.435444 0
M  V30 4 C 10.941841 5.507731 -17.385843 0
M  V30 5 C 10.815333 6.058690 -18.675709 0
M  V30 6 C 11.590606 7.169980 -19.049452 0
M  V30 7 F 11.471432 7.699185 -20.289873 0
M  V30 8 C 12.493501 7.726346 -18.128696 0
M  V30 9 C 12.611772 7.185108 -16.832668 0
M  V30 10 N 12.173078 6.491608 -14.004328 0
M  V30 11 C 11.245273 6.408182 -13.047941 0
M  V30 12 O 11.208395 7.143211 -12.065948 0
M  V30 13 N 10.398737 5.401529 -13.356226 0
M  V30 14 C 9.176088 4.951267 -12.655413 0
M  V30 15 C 8.566051 5.909356 -11.603928 0 CFG=1
M  V30 16 O 7.164970 5.772101 -11.651767 0
M  V30 17 C 9.061159 5.571487 -10.174605 0
M  V30 18 N 8.885902 6.660385 -9.179833 0 CHG=1
M  V30 19 C 9.063195 6.173500 -7.779985 0
M  V30 20 C 9.010674 7.305450 -6.726137 0
M  V30 21 N 9.911377 8.393306 -7.110326 0
M  V30 22 C 10.981542 8.894551 -6.440787 0
M  V30 23 O 11.686723 9.772693 -6.928584 0
M  V30 24 C 11.318824 8.469218 -5.038699 0
M  V30 25 C 11.600902 9.478749 -4.089293 0
M  V30 26 C 12.077886 9.155878 -2.804784 0
M  V30 27 C 12.258548 7.812414 -2.445707 0
M  V30 28 C 11.996006 6.799870 -3.384759 0
M  V30 29 C 11.544301 7.119727 -4.681046 0
M  V30 30 C 9.530659 8.931640 -8.419045 0
M  V30 31 C 9.711111 7.854727 -9.479611 0
M  V30 32 C 10.821723 4.757675 -14.452827 0
M  V30 33 O 10.344095 3.719637 -14.912034 0
M  V30 34 H 13.175465 3.743610 -15.712869 0
M  V30 35 H 14.169311 5.137949 -15.301198 0
M  V30 36 H 13.456948 4.171920 -14.016644 0
M  V30 37 H 10.342821 4.640656 -17.155478 0
M  V30 38 H 10.127872 5.621624 -19.383389 0
M  V30 39 H 13.092246 8.577566 -18.414104 0
M  V30 40 H 13.320972 7.627501 -16.147404 0
M  V30 41 H 12.946400 7.139453 -13.974468 0
M  V30 42 H 9.353991 3.967263 -12.214049 0
M  V30 43 H 8.425591 4.784078 -13.432806 0
M  V30 44 H 8.741914 6.939422 -11.902054 0
M  V30 45 H 6.768674 6.480939 -11.141817 0
M  V30 46 H 8.548939 4.671555 -9.827761 0
M  V30 47 H 10.118621 5.314679 -10.203714 0
M  V30 48 H 8.293470 5.433495 -7.556830 0
M  V30 49 H 10.025061 5.664350 -7.703808 0
M  V30 50 H 7.998917 7.705917 -6.658027 0
M  V30 51 H 9.227674 6.896340 -5.744510 0
M  V30 52 H 11.469003 10.518283 -4.354372 0
M  V30 53 H 12.291879 9.938280 -2.092165 0
M  V30 54 H 12.609540 7.561158 -1.455801 0
M  V30 55 H 12.158115 5.772393 -3.107923 0
M  V30 56 H 11.400846 6.323837 -5.396132 0
M  V30 57 H 8.498859 9.287249 -8.394752 0
M  V30 58 H 10.138975 9.772032 -8.739588 0
M  V30 59 H 10.763659 7.573216 -9.535666 0
M  V30 60 H 9.440407 8.291056 -10.439325 0
M  V30 61 H 7.918730 6.971525 -9.255367 0
M  V30 END ATOM
M  V30 BEGIN BOND
M  V30 1 1 2 1 CFG=3
M  V30 2 1 3 2
M  V30 3 1 4 3
M  V30 4 2 5 4
M  V30 5 1 6 5
M  V30 6 1 7 6
M  V30 7 2 8 6
M  V30 8 2 9 3
M  V30 9 1 9 8
M  V30 10 1 10 2
M  V30 11 1 11 10
M  V30 12 2 12 11
M  V30 13 1 13 11
M  V30 14 1 14 13
M  V30 15 1 15 14
M  V30 16 1 16 15
M  V30 17 1 17 15
M  V30 18 1 18 17
M  V30 19 1 19 18
M  V30 20 1 20 19
M  V30 21 1 21 20
M  V30 22 1 22 21
M  V30 23 2 23 22
M  V30 24 1 24 22
M  V30 25 2 25 24
M  V30 26 1 26 25
M  V30 27 2 27 26
M  V30 28 1 28 27
M  V30 29 1 29 24
M  V30 30 2 29 28
M  V30 31 1 30 21
M  V30 32 1 31 18
M  V30 33 1 31 30
M  V30 34 1 32 2
M  V30 35 1 32 13
M  V30 36 2 33 32
M  V30 37 1 34 1
M  V30 38 1 35 1
M  V30 39 1 36 1
M  V30 40 1 37 4
M  V30 41 1 38 5
M  V30 42 1 39 8
M  V30 43 1 40 9
M  V30 44 1 41 10
M  V30 45 1 42 14
M  V30 46 1 43 14
M  V30 47 1 15 44 CFG=3
M  V30 48 1 45 16
M  V30 49 1 46 17
M  V30 50 1 47 17
M  V30 51 1 48 19
M  V30 52 1 49 19
M  V30 53 1 50 20
M  V30 54 1 51 20
M  V30 55 1 52 25
M  V30 56 1 53 26
M  V30 57 1 54 27
M  V30 58 1 55 28
M  V30 59 1 56 29
M  V30 60 1 57 30
M  V30 61 1 58 30
M  V30 62 1 59 31
M  V30 63 1 60 31
M  V30 64 1 61 18
M  V30 END BOND
M  V30 END CTAB
M  END
>  <b_m_subgroup_collapsed>  (27) 
0

>  <r_i_docking_score>  (27) 
-9.6587774193162996

>  <s_m_subgroup_title>  (27) 
glide-dock_SP_D22_pv

>  <s_m_subgroupid>  (27) 
glide-dock_SP_D22_pv

>  <Molecule ChEMBL ID>  (27) 
CHEMBL4279397

>  <Standard Type>  (27) 
Ki

>  <Standard Value>  (27) 
10080.0

>  <label>  (27) 
0

$$$$
CHEMBL2059305
     RDKit          3D

  0  0  0  0  0  0  0  0  0  0999 V3000
M  V30 BEGIN CTAB
M  V30 COUNTS 59 63 0 0 1
M  V30 BEGIN ATOM
M  V30 1 O 10.929835 9.123371 -8.389425 0
M  V30 2 C 11.137568 9.057108 -7.178370 0
M  V30 3 C 11.568142 10.336490 -6.452765 0
M  V30 4 C 10.975529 10.383180 -5.051155 0
M  V30 5 C 11.400302 9.137991 -4.330271 0
M  V30 6 C 11.828709 9.208990 -2.993059 0
M  V30 7 C 12.176178 8.034240 -2.309944 0
M  V30 8 C 12.086372 6.797238 -2.970318 0
M  V30 9 C 11.686051 6.737313 -4.320454 0
M  V30 10 C 11.359406 7.909695 -5.040726 0
M  V30 11 N 11.042974 7.906947 -6.455898 0
M  V30 12 C 10.733279 6.665451 -7.202659 0
M  V30 13 C 9.217849 6.469922 -7.441361 0
M  V30 14 C 8.905546 5.360984 -8.474686 0
M  V30 15 N 8.486081 5.854254 -9.816932 0 CFG=2 CHG=1
M  V30 16 C 8.117050 4.736404 -10.721529 0
M  V30 17 C 7.456488 5.269639 -11.992879 0
M  V30 18 C 8.434024 6.165202 -12.774747 0 CFG=2
M  V30 19 C 9.515829 5.372304 -13.525944 0
M  V30 20 C 10.891541 5.700193 -13.445845 0
M  V30 21 C 11.839724 5.008112 -14.220785 0
M  V30 22 C 11.412158 3.988311 -15.086175 0
M  V30 23 N 12.085632 3.170716 -15.970815 0
M  V30 24 C 11.211817 2.297938 -16.595724 0
M  V30 25 C 9.942050 2.545081 -16.142809 0
M  V30 26 C 10.042769 3.616065 -15.189478 0
M  V30 27 C 9.116468 4.331566 -14.397645 0
M  V30 28 C 8.933012 7.283228 -11.830736 0
M  V30 29 C 9.466578 6.750998 -10.482920 0
M  V30 30 H 12.656723 10.343761 -6.392564 0
M  V30 31 H 11.286394 11.220677 -7.013859 0
M  V30 32 H 9.888550 10.406626 -5.046766 0
M  V30 33 H 11.286019 11.280221 -4.533505 0
M  V30 34 H 11.878388 10.160651 -2.483322 0
M  V30 35 H 12.496891 8.086940 -1.280702 0
M  V30 36 H 12.339510 5.887707 -2.445034 0
M  V30 37 H 11.672297 5.771700 -4.783472 0
M  V30 38 H 11.249668 6.683972 -8.163652 0
M  V30 39 H 11.140051 5.774112 -6.736495 0
M  V30 40 H 8.767204 6.191191 -6.487908 0
M  V30 41 H 8.727278 7.402675 -7.723415 0
M  V30 42 H 9.752951 4.681411 -8.579464 0
M  V30 43 H 8.086632 4.757624 -8.082600 0
M  V30 44 H 9.014508 4.172275 -10.976760 0
M  V30 45 H 7.435183 4.036534 -10.246617 0
M  V30 46 H 7.077912 4.446108 -12.595976 0
M  V30 47 H 6.574688 5.848693 -11.713235 0
M  V30 48 H 7.856401 6.658703 -13.552280 0
M  V30 49 H 11.247987 6.497163 -12.812747 0
M  V30 50 H 12.885670 5.273417 -14.163609 0
M  V30 51 H 13.082080 3.172197 -16.141438 0
M  V30 52 H 11.565167 1.572153 -17.314627 0
M  V30 53 H 9.034538 2.040733 -16.439110 0
M  V30 54 H 8.072968 4.078691 -14.497340 0
M  V30 55 H 9.663071 7.931206 -12.314487 0
M  V30 56 H 8.089756 7.941005 -11.620555 0
M  V30 57 H 9.665089 7.608127 -9.848315 0
M  V30 58 H 10.411913 6.224889 -10.616685 0
M  V30 59 H 7.645441 6.416607 -9.689168 0
M  V30 END ATOM
M  V30 BEGIN BOND
M  V30 1 2 2 1
M  V30 2 1 3 2
M  V30 3 1 4 3
M  V30 4 1 5 4
M  V30 5 2 6 5
M  V30 6 1 7 6
M  V30 7 2 8 7
M  V30 8 1 9 8
M  V30 9 1 10 5
M  V30 10 2 10 9
M  V30 11 1 11 2
M  V30 12 1 11 10
M  V30 13 1 12 11
M  V30 14 1 13 12
M  V30 15 1 14 13
M  V30 16 1 15 14
M  V30 17 1 16 15
M  V30 18 1 17 16
M  V30 19 1 18 17
M  V30 20 1 19 18
M  V30 21 2 20 19
M  V30 22 1 21 20
M  V30 23 2 22 21
M  V30 24 1 23 22
M  V30 25 1 24 23
M  V30 26 2 25 24
M  V30 27 1 26 22
M  V30 28 1 26 25
M  V30 29 1 27 19
M  V30 30 2 27 26
M  V30 31 1 28 18
M  V30 32 1 29 15
M  V30 33 1 29 28
M  V30 34 1 30 3
M  V30 35 1 31 3
M  V30 36 1 32 4
M  V30 37 1 33 4
M  V30 38 1 34 6
M  V30 39 1 35 7
M  V30 40 1 36 8
M  V30 41 1 37 9
M  V30 42 1 38 12
M  V30 43 1 39 12
M  V30 44 1 40 13
M  V30 45 1 41 13
M  V30 46 1 42 14
M  V30 47 1 43 14
M  V30 48 1 44 16
M  V30 49 1 45 16
M  V30 50 1 46 17
M  V30 51 1 47 17
M  V30 52 1 18 48 CFG=3
M  V30 53 1 49 20
M  V30 54 1 50 21
M  V30 55 1 51 23
M  V30 56 1 52 24
M  V30 57 1 53 25
M  V30 58 1 54 27
M  V30 59 1 55 28
M  V30 60 1 56 28
M  V30 61 1 57 29
M  V30 62 1 58 29
M  V30 63 1 15 59 CFG=1
M  V30 END BOND
M  V30 END CTAB
M  END
>  <b_m_subgroup_collapsed>  (28) 
0

>  <r_i_docking_score>  (28) 
-9.6416639846284404

>  <s_m_subgroup_title>  (28) 
glide-dock_SP_D22_pv

>  <s_m_subgroupid>  (28) 
glide-dock_SP_D22_pv

>  <Molecule ChEMBL ID>  (28) 
CHEMBL2059305

>  <Standard Type>  (28) 
Ki

>  <Standard Value>  (28) 
42.0

>  <label>  (28) 
1

$$$$
CHEMBL1256786
     RDKit          3D

  0  0  0  0  0  0  0  0  0  0999 V3000
M  V30 BEGIN CTAB
M  V30 COUNTS 50 51 0 0 1
M  V30 BEGIN ATOM
M  V30 1 C 12.889253 8.970105 -1.595379 0
M  V30 2 O 12.335636 7.821206 -2.206057 0
M  V30 3 C 11.912970 7.942967 -3.508753 0
M  V30 4 C 11.685431 9.176022 -4.171026 0
M  V30 5 C 11.237955 9.193376 -5.509145 0
M  V30 6 C 11.034618 7.983162 -6.207638 0
M  V30 7 C 10.626212 7.983819 -7.672094 0
M  V30 8 C 9.163097 7.558752 -7.967763 0 CFG=2
M  V30 9 C 8.765128 6.170964 -7.424606 0
M  V30 10 N 8.886091 7.676125 -9.419847 0 CHG=1
M  V30 11 C 9.423703 6.610636 -10.295583 0
M  V30 12 C 9.397124 7.041906 -11.772016 0 CFG=2
M  V30 13 O 8.068321 7.139196 -12.246815 0
M  V30 14 C 10.181479 6.083339 -12.647937 0
M  V30 15 C 11.338652 6.523434 -13.323627 0
M  V30 16 C 11.980753 5.679371 -14.247166 0
M  V30 17 C 11.482647 4.386069 -14.491995 0
M  V30 18 O 12.098581 3.623108 -15.437464 0
M  V30 19 C 10.363827 3.907806 -13.762664 0
M  V30 20 N 9.891660 2.571751 -13.847538 0
M  V30 21 C 9.611649 1.867213 -14.955264 0
M  V30 22 O 9.800957 2.260551 -16.105055 0
M  V30 23 C 9.722892 4.762423 -12.843213 0
M  V30 24 C 11.284805 6.763450 -5.551793 0
M  V30 25 C 11.686092 6.745274 -4.207154 0
M  V30 26 H 13.344529 8.692204 -0.647361 0
M  V30 27 H 13.684532 9.372292 -2.219362 0
M  V30 28 H 12.135739 9.735345 -1.406582 0
M  V30 29 H 11.832288 10.118978 -3.665694 0
M  V30 30 H 11.067500 10.141281 -5.998799 0
M  V30 31 H 11.325388 7.327089 -8.190013 0
M  V30 32 H 10.804208 8.980261 -8.079321 0
M  V30 33 H 8.509182 8.288417 -7.486087 0
M  V30 34 H 8.724439 6.174022 -6.335667 0
M  V30 35 H 7.776485 5.863994 -7.767640 0
M  V30 36 H 9.469463 5.397861 -7.731802 0
M  V30 37 H 9.252211 8.563601 -9.729540 0
M  V30 38 H 8.860869 5.686990 -10.152124 0
M  V30 39 H 10.455874 6.399551 -10.016328 0
M  V30 40 H 9.845077 8.032852 -11.859442 0
M  V30 41 H 7.479474 7.476018 -11.572482 0
M  V30 42 H 11.713219 7.525876 -13.179051 0
M  V30 43 H 12.845428 6.035920 -14.787479 0
M  V30 44 H 11.511059 2.952619 -15.768562 0
M  V30 45 H 9.683892 2.114225 -12.966459 0
M  V30 46 H 9.202872 0.879435 -14.693967 0
M  V30 47 H 8.849828 4.414977 -12.309073 0
M  V30 48 H 11.172812 5.827341 -6.075883 0
M  V30 49 H 11.858215 5.799370 -3.714394 0
M  V30 50 H 7.871445 7.713342 -9.572997 0
M  V30 END ATOM
M  V30 BEGIN BOND
M  V30 1 1 2 1
M  V30 2 1 3 2
M  V30 3 1 4 3
M  V30 4 2 5 4
M  V30 5 1 6 5
M  V30 6 1 7 6
M  V30 7 1 8 7
M  V30 8 1 9 8
M  V30 9 1 10 8
M  V30 10 1 11 10
M  V30 11 1 12 11
M  V30 12 1 13 12
M  V30 13 1 14 12
M  V30 14 1 15 14
M  V30 15 2 16 15
M  V30 16 1 17 16
M  V30 17 1 18 17
M  V30 18 2 19 17
M  V30 19 1 20 19
M  V30 20 1 21 20
M  V30 21 2 22 21
M  V30 22 2 23 14
M  V30 23 1 23 19
M  V30 24 2 24 6
M  V30 25 2 25 3
M  V30 26 1 25 24
M  V30 27 1 26 1
M  V30 28 1 27 1
M  V30 29 1 28 1
M  V30 30 1 29 4
M  V30 31 1 30 5
M  V30 32 1 31 7
M  V30 33 1 32 7
M  V30 34 1 8 33 CFG=1
M  V30 35 1 34 9
M  V30 36 1 35 9
M  V30 37 1 36 9
M  V30 38 1 37 10
M  V30 39 1 38 11
M  V30 40 1 39 11
M  V30 41 1 12 40 CFG=1
M  V30 42 1 41 13
M  V30 43 1 42 15
M  V30 44 1 43 16
M  V30 45 1 44 18
M  V30 46 1 45 20
M  V30 47 1 46 21
M  V30 48 1 47 23
M  V30 49 1 48 24
M  V30 50 1 49 25
M  V30 51 1 50 10
M  V30 END BOND
M  V30 END CTAB
M  END
>  <b_m_subgroup_collapsed>  (29) 
0

>  <r_i_docking_score>  (29) 
-9.6305310956625103

>  <s_m_subgroup_title>  (29) 
glide-dock_SP_D22_pv

>  <s_m_subgroupid>  (29) 
glide-dock_SP_D22_pv

>  <Molecule ChEMBL ID>  (29) 
CHEMBL1256786

>  <Standard Type>  (29) 
Ki

>  <Standard Value>  (29) 
13000.0

>  <label>  (29) 
0

$$$$
CHEMBL4750660
     RDKit          3D

  0  0  0  0  0  0  0  0  0  0999 V3000
M  V30 BEGIN CTAB
M  V30 COUNTS 64 67 0 0 1
M  V30 BEGIN ATOM
M  V30 1 O 8.082828 3.473261 -14.644060 0
M  V30 2 S 9.199229 4.405463 -14.164840 0
M  V30 3 C 9.353785 4.083556 -12.346206 0
M  V30 4 C 8.144225 4.703846 -11.602443 0
M  V30 5 N 8.245560 6.170627 -11.379445 0 CHG=1
M  V30 6 C 9.306700 6.629338 -10.445096 0
M  V30 7 C 9.053854 6.201404 -8.989484 0
M  V30 8 C 10.150358 6.732909 -8.050319 0
M  V30 9 N 10.291962 8.192664 -8.117784 0
M  V30 10 C 11.449199 8.647122 -7.338690 0
M  V30 11 C 11.409385 8.535374 -5.814918 0
M  V30 12 C 11.519888 7.285067 -5.161495 0
M  V30 13 C 11.725157 7.219028 -3.771143 0
M  V30 14 C 11.833312 8.402962 -3.020424 0
M  V30 15 F 12.091735 8.342306 -1.694266 0
M  V30 16 C 11.664716 9.649541 -3.649895 0
M  V30 17 C 11.445109 9.716074 -5.041562 0
M  V30 18 C 10.547643 8.609421 -9.502988 0
M  V30 19 C 9.428503 8.158769 -10.458381 0
M  V30 20 C 10.841703 3.700314 -14.718629 0
M  V30 21 C 11.577530 4.787871 -15.494668 0
M  V30 22 C 12.849387 5.222082 -15.060479 0
M  V30 23 C 13.538338 6.225636 -15.769991 0
M  V30 24 C 12.963243 6.802211 -16.918715 0
M  V30 25 F 13.626443 7.769510 -17.594305 0
M  V30 26 C 11.698627 6.370980 -17.361975 0
M  V30 27 C 11.004094 5.369805 -16.651180 0
M  V30 28 C 10.681638 2.367394 -15.461133 0
M  V30 29 C 9.940542 1.323624 -14.861078 0
M  V30 30 C 9.744637 0.105592 -15.528604 0
M  V30 31 C 10.329312 -0.116212 -16.788452 0
M  V30 32 F 10.149040 -1.300321 -17.421951 0
M  V30 33 C 11.111945 0.894122 -17.380089 0
M  V30 34 C 11.290295 2.126408 -16.720716 0
M  V30 35 H 10.310285 4.437392 -11.971004 0
M  V30 36 H 9.350301 3.001354 -12.234195 0
M  V30 37 H 8.004445 4.206219 -10.643742 0
M  V30 38 H 7.229663 4.504759 -12.162268 0
M  V30 39 H 7.368134 6.520072 -10.988304 0
M  V30 40 H 10.264956 6.227489 -10.770239 0
M  V30 41 H 9.021220 5.116616 -8.898583 0
M  V30 42 H 8.086722 6.569148 -8.649641 0
M  V30 43 H 11.100982 6.252497 -8.284179 0
M  V30 44 H 9.877354 6.442360 -7.038661 0
M  V30 45 H 11.616909 9.700523 -7.566410 0
M  V30 46 H 12.346719 8.131434 -7.685369 0
M  V30 47 H 11.539013 6.364570 -5.723598 0
M  V30 48 H 11.847544 6.260572 -3.288470 0
M  V30 49 H 11.716903 10.555314 -3.061592 0
M  V30 50 H 11.363833 10.681966 -5.520130 0
M  V30 51 H 10.630825 9.696239 -9.542134 0
M  V30 52 H 11.502591 8.205817 -9.844969 0
M  V30 53 H 9.645299 8.511240 -11.467091 0
M  V30 54 H 8.486162 8.626142 -10.164235 0
M  V30 55 H 11.429806 3.478346 -13.828644 0
M  V30 56 H 13.298122 4.793514 -14.177053 0
M  V30 57 H 14.509649 6.558469 -15.432057 0
M  V30 58 H 11.257635 6.814490 -18.243048 0
M  V30 59 H 10.030847 5.047625 -16.998260 0
M  V30 60 H 9.483852 1.455266 -13.890241 0
M  V30 61 H 9.136291 -0.651511 -15.063413 0
M  V30 62 H 11.571953 0.724247 -18.343140 0
M  V30 63 H 11.902399 2.875271 -17.207182 0
M  V30 64 H 8.377122 6.626597 -12.269832 0
M  V30 END ATOM
M  V30 BEGIN BOND
M  V30 1 2 2 1
M  V30 2 1 2 3 CFG=1
M  V30 3 1 4 3
M  V30 4 1 5 4
M  V30 5 1 6 5
M  V30 6 1 7 6
M  V30 7 1 8 7
M  V30 8 1 9 8
M  V30 9 1 10 9
M  V30 10 1 11 10
M  V30 11 2 12 11
M  V30 12 1 13 12
M  V30 13 2 14 13
M  V30 14 1 15 14
M  V30 15 1 16 14
M  V30 16 1 17 11
M  V30 17 2 17 16
M  V30 18 1 18 9
M  V30 19 1 19 6
M  V30 20 1 19 18
M  V30 21 1 20 2
M  V30 22 1 21 20
M  V30 23 2 22 21
M  V30 24 1 23 22
M  V30 25 2 24 23
M  V30 26 1 25 24
M  V30 27 1 26 24
M  V30 28 1 27 21
M  V30 29 2 27 26
M  V30 30 1 28 20
M  V30 31 2 29 28
M  V30 32 1 30 29
M  V30 33 2 31 30
M  V30 34 1 32 31
M  V30 35 1 33 31
M  V30 36 1 34 28
M  V30 37 2 34 33
M  V30 38 1 35 3
M  V30 39 1 36 3
M  V30 40 1 37 4
M  V30 41 1 38 4
M  V30 42 1 39 5
M  V30 43 1 40 6
M  V30 44 1 41 7
M  V30 45 1 42 7
M  V30 46 1 43 8
M  V30 47 1 44 8
M  V30 48 1 45 10
M  V30 49 1 46 10
M  V30 50 1 47 12
M  V30 51 1 48 13
M  V30 52 1 49 16
M  V30 53 1 50 17
M  V30 54 1 51 18
M  V30 55 1 52 18
M  V30 56 1 53 19
M  V30 57 1 54 19
M  V30 58 1 55 20
M  V30 59 1 56 22
M  V30 60 1 57 23
M  V30 61 1 58 26
M  V30 62 1 59 27
M  V30 63 1 60 29
M  V30 64 1 61 30
M  V30 65 1 62 33
M  V30 66 1 63 34
M  V30 67 1 64 5
M  V30 END BOND
M  V30 END CTAB
M  END
>  <b_m_subgroup_collapsed>  (30) 
0

>  <r_i_docking_score>  (30) 
-9.6164705939471098

>  <s_m_subgroup_title>  (30) 
glide-dock_SP_D22_pv

>  <s_m_subgroupid>  (30) 
glide-dock_SP_D22_pv

>  <Molecule ChEMBL ID>  (30) 
CHEMBL4750660

>  <Standard Type>  (30) 
Ki

>  <Standard Value>  (30) 
12400.0

>  <label>  (30) 
0

$$$$
CHEMBL494702
     RDKit          3D

  0  0  0  0  0  0  0  0  0  0999 V3000
M  V30 BEGIN CTAB
M  V30 COUNTS 61 64 0 0 1
M  V30 BEGIN ATOM
M  V30 1 C 3.734325 -1.324204 -16.505413 0
M  V30 2 C 5.039504 -1.657029 -15.767902 0
M  V30 3 O 5.700778 -0.480971 -15.330433 0
M  V30 4 C 5.305333 0.169047 -14.219368 0
M  V30 5 O 4.354963 -0.160304 -13.506976 0
M  V30 6 C 6.113939 1.360194 -13.963768 0
M  V30 7 O 5.538874 2.390236 -13.270164 0
M  V30 8 C 6.461137 3.381670 -13.223188 0
M  V30 9 C 7.610394 3.007825 -13.847299 0
M  V30 10 C 7.404719 1.678619 -14.326248 0
M  V30 11 C 8.404565 0.813474 -15.058205 0
M  V30 12 C 8.750221 3.948573 -13.850950 0
M  V30 13 O 9.878371 3.644886 -14.232430 0
M  V30 14 C 8.449204 5.376356 -13.368077 0
M  V30 15 C 7.413263 5.457749 -12.199474 0 CFG=2
M  V30 16 C 8.018476 4.994836 -10.843002 0
M  V30 17 N 8.486199 6.124358 -9.986751 0 CFG=2 CHG=1
M  V30 18 C 9.847133 6.545259 -10.391826 0
M  V30 19 C 10.443560 7.621240 -9.493399 0
M  V30 20 C 10.443118 7.225413 -7.997756 0 CFG=1
M  V30 21 C 11.019950 8.372971 -7.150998 0
M  V30 22 O 11.286055 9.415898 -7.726873 0
M  V30 23 C 11.285881 8.223149 -5.693294 0
M  V30 24 C 11.285880 6.972197 -5.038686 0
M  V30 25 C 11.686172 6.879044 -3.688596 0
M  V30 26 C 12.085533 8.029874 -2.981063 0
M  V30 27 F 12.485439 7.937102 -1.693568 0
M  V30 28 C 12.056779 9.283459 -3.613330 0
M  V30 29 C 11.662211 9.375571 -4.960746 0
M  V30 30 C 8.995231 6.910096 -7.622082 0
M  V30 31 C 8.404116 5.816605 -8.529184 0
M  V30 32 C 6.124419 4.657729 -12.532037 0
M  V30 33 H 3.284649 -2.228216 -16.913269 0
M  V30 34 H 3.002131 -0.860986 -15.843964 0
M  V30 35 H 3.915491 -0.644799 -17.337528 0
M  V30 36 H 5.709076 -2.186107 -16.445515 0
M  V30 37 H 4.868911 -2.324438 -14.924560 0
M  V30 38 H 9.425362 1.140802 -14.869623 0
M  V30 39 H 8.325508 -0.223775 -14.733447 0
M  V30 40 H 8.222254 0.852546 -16.132025 0
M  V30 41 H 8.085642 5.929472 -14.232608 0
M  V30 42 H 9.392687 5.846613 -13.101539 0
M  V30 43 H 7.106513 6.499322 -12.084197 0
M  V30 44 H 8.825568 4.277299 -11.000916 0
M  V30 45 H 7.286191 4.407114 -10.300756 0
M  V30 46 H 9.828449 6.930522 -11.408241 0
M  V30 47 H 10.486008 5.668970 -10.380241 0
M  V30 48 H 9.873715 8.541203 -9.645107 0
M  V30 49 H 11.460960 7.833486 -9.828731 0
M  V30 50 H 11.065832 6.341932 -7.854444 0
M  V30 51 H 11.019802 6.069010 -5.565708 0
M  V30 52 H 11.701644 5.917095 -3.197133 0
M  V30 53 H 12.350946 10.171043 -3.069928 0
M  V30 54 H 11.681791 10.347569 -5.434252 0
M  V30 55 H 8.916904 6.590451 -6.582157 0
M  V30 56 H 8.397864 7.818863 -7.701278 0
M  V30 57 H 7.358272 5.760733 -8.250816 0
M  V30 58 H 8.869548 4.852891 -8.317165 0
M  V30 59 H 5.512411 4.474774 -11.649006 0
M  V30 60 H 5.503491 5.253941 -13.202627 0
M  V30 61 H 7.833243 6.899257 -10.129621 0
M  V30 END ATOM
M  V30 BEGIN BOND
M  V30 1 1 2 1
M  V30 2 1 3 2
M  V30 3 1 4 3
M  V30 4 2 5 4
M  V30 5 1 6 4
M  V30 6 1 7 6
M  V30 7 1 8 7
M  V30 8 2 9 8
M  V30 9 2 10 6
M  V30 10 1 10 9
M  V30 11 1 11 10
M  V30 12 1 12 9
M  V30 13 2 13 12
M  V30 14 1 14 12
M  V30 15 1 15 14
M  V30 16 1 16 15
M  V30 17 1 17 16
M  V30 18 1 18 17
M  V30 19 1 19 18
M  V30 20 1 20 19
M  V30 21 1 21 20
M  V30 22 2 22 21
M  V30 23 1 23 21
M  V30 24 1 24 23
M  V30 25 2 25 24
M  V30 26 1 26 25
M  V30 27 1 27 26
M  V30 28 2 28 26
M  V30 29 2 29 23
M  V30 30 1 29 28
M  V30 31 1 30 20
M  V30 32 1 31 17
M  V30 33 1 31 30
M  V30 34 1 32 8
M  V30 35 1 32 15
M  V30 36 1 33 1
M  V30 37 1 34 1
M  V30 38 1 35 1
M  V30 39 1 36 2
M  V30 40 1 37 2
M  V30 41 1 38 11
M  V30 42 1 39 11
M  V30 43 1 40 11
M  V30 44 1 41 14
M  V30 45 1 42 14
M  V30 46 1 15 43 CFG=1
M  V30 47 1 44 16
M  V30 48 1 45 16
M  V30 49 1 46 18
M  V30 50 1 47 18
M  V30 51 1 48 19
M  V30 52 1 49 19
M  V30 53 1 20 50 CFG=3
M  V30 54 1 51 24
M  V30 55 1 52 25
M  V30 56 1 53 28
M  V30 57 1 54 29
M  V30 58 1 55 30
M  V30 59 1 56 30
M  V30 60 1 57 31
M  V30 61 1 58 31
M  V30 62 1 59 32
M  V30 63 1 60 32
M  V30 64 1 17 61 CFG=1
M  V30 END BOND
M  V30 END CTAB
M  END
>  <b_m_subgroup_collapsed>  (31) 
0

>  <r_i_docking_score>  (31) 
-9.5991445911824904

>  <s_m_subgroup_title>  (31) 
glide-dock_SP_D22_pv

>  <s_m_subgroupid>  (31) 
glide-dock_SP_D22_pv

>  <Molecule ChEMBL ID>  (31) 
CHEMBL494702

>  <Standard Type>  (31) 
Ki

>  <Standard Value>  (31) 
10000.0

>  <label>  (31) 
0

$$$$
CHEMBL3104518
     RDKit          3D

  0  0  0  0  0  0  0  0  0  0999 V3000
M  V30 BEGIN CTAB
M  V30 COUNTS 62 66 0 0 1
M  V30 BEGIN ATOM
M  V30 1 O 10.987138 4.176795 -13.573149 0
M  V30 2 C 9.773994 4.350810 -13.475835 0
M  V30 3 C 9.238745 5.710009 -13.044916 0
M  V30 4 C 8.075364 5.617447 -12.036614 0 CFG=2
M  V30 5 C 8.500589 5.094106 -10.630757 0
M  V30 6 N 8.828963 6.172575 -9.653096 0 CFG=2 CHG=1
M  V30 7 C 10.074136 6.895283 -10.014071 0
M  V30 8 C 10.444891 7.987272 -9.010559 0
M  V30 9 C 10.551255 7.466614 -7.559289 0 CFG=1
M  V30 10 C 10.898252 8.629619 -6.603375 0
M  V30 11 O 10.883123 9.772192 -7.047042 0
M  V30 12 C 11.313693 8.395871 -5.195265 0
M  V30 13 C 11.583742 7.120116 -4.645813 0
M  V30 14 C 12.086784 7.012109 -3.328679 0
M  V30 15 C 12.334102 8.173652 -2.567068 0
M  V30 16 F 12.882940 8.108471 -1.335047 0
M  V30 17 C 12.033250 9.432538 -3.093617 0
M  V30 18 C 11.518853 9.542894 -4.392455 0
M  V30 19 C 9.215701 6.778988 -7.226781 0
M  V30 20 C 8.885751 5.667018 -8.252557 0
M  V30 21 C 6.929979 4.788928 -12.670097 0
M  V30 22 C 7.385066 3.554693 -13.446117 0
M  V30 23 C 6.424903 2.576199 -13.769593 0
M  V30 24 C 6.789935 1.343869 -14.358964 0
M  V30 25 C 5.759413 0.335050 -14.682450 0
M  V30 26 C 5.897567 -0.497177 -15.816975 0
M  V30 27 C 4.872146 -1.378944 -16.199598 0
M  V30 28 C 3.680953 -1.427747 -15.457559 0
M  V30 29 C 3.528026 -0.628771 -14.311659 0
M  V30 30 C 4.571332 0.229076 -13.917546 0
M  V30 31 C 8.154048 1.124343 -14.650655 0
M  V30 32 C 9.118613 2.113469 -14.384347 0
M  V30 33 C 8.742780 3.335062 -13.787292 0
M  V30 34 H 8.860928 6.172272 -13.952770 0
M  V30 35 H 10.066668 6.322203 -12.699872 0
M  V30 36 H 7.667461 6.619721 -11.890374 0
M  V30 37 H 7.686304 4.509153 -10.211184 0
M  V30 38 H 9.334311 4.393813 -10.701943 0
M  V30 39 H 10.885595 6.174746 -10.106194 0
M  V30 40 H 9.949984 7.389265 -10.974689 0
M  V30 41 H 11.388088 8.443280 -9.319079 0
M  V30 42 H 9.689944 8.775258 -9.073785 0
M  V30 43 H 11.357397 6.736520 -7.503992 0
M  V30 44 H 11.438112 6.220144 -5.224047 0
M  V30 45 H 12.311324 6.039598 -2.914568 0
M  V30 46 H 12.204268 10.321565 -2.505479 0
M  V30 47 H 11.310710 10.534369 -4.770371 0
M  V30 48 H 9.243113 6.349539 -6.225577 0
M  V30 49 H 8.412383 7.516784 -7.215461 0
M  V30 50 H 7.930076 5.214238 -7.989817 0
M  V30 51 H 9.636915 4.878725 -8.191458 0
M  V30 52 H 6.385251 5.413432 -13.376002 0
M  V30 53 H 6.196101 4.502756 -11.914784 0
M  V30 54 H 5.391101 2.774998 -13.531444 0
M  V30 55 H 6.787626 -0.449909 -16.427027 0
M  V30 56 H 4.988191 -2.004549 -17.073368 0
M  V30 57 H 2.890718 -2.094666 -15.769002 0
M  V30 58 H 2.606277 -0.673470 -13.747692 0
M  V30 59 H 4.433669 0.849413 -13.046844 0
M  V30 60 H 8.475000 0.190932 -15.087296 0
M  V30 61 H 10.153663 1.914795 -14.622801 0
M  V30 62 H 8.053328 6.833914 -9.691677 0
M  V30 END ATOM
M  V30 BEGIN BOND
M  V30 1 2 2 1
M  V30 2 1 3 2
M  V30 3 1 4 3
M  V30 4 1 5 4
M  V30 5 1 6 5
M  V30 6 1 7 6
M  V30 7 1 8 7
M  V30 8 1 9 8
M  V30 9 1 10 9
M  V30 10 2 11 10
M  V30 11 1 12 10
M  V30 12 1 13 12
M  V30 13 2 14 13
M  V30 14 1 15 14
M  V30 15 1 16 15
M  V30 16 2 17 15
M  V30 17 2 18 12
M  V30 18 1 18 17
M  V30 19 1 19 9
M  V30 20 1 20 6
M  V30 21 1 20 19
M  V30 22 1 21 4
M  V30 23 1 22 21
M  V30 24 1 23 22
M  V30 25 2 24 23
M  V30 26 1 25 24
M  V30 27 2 26 25
M  V30 28 1 27 26
M  V30 29 2 28 27
M  V30 30 1 29 28
M  V30 31 1 30 25
M  V30 32 2 30 29
M  V30 33 1 31 24
M  V30 34 2 32 31
M  V30 35 1 33 2
M  V30 36 2 33 22
M  V30 37 1 33 32
M  V30 38 1 34 3
M  V30 39 1 35 3
M  V30 40 1 4 36 CFG=1
M  V30 41 1 37 5
M  V30 42 1 38 5
M  V30 43 1 39 7
M  V30 44 1 40 7
M  V30 45 1 41 8
M  V30 46 1 42 8
M  V30 47 1 9 43 CFG=3
M  V30 48 1 44 13
M  V30 49 1 45 14
M  V30 50 1 46 17
M  V30 51 1 47 18
M  V30 52 1 48 19
M  V30 53 1 49 19
M  V30 54 1 50 20
M  V30 55 1 51 20
M  V30 56 1 52 21
M  V30 57 1 53 21
M  V30 58 1 54 23
M  V30 59 1 55 26
M  V30 60 1 56 27
M  V30 61 1 57 28
M  V30 62 1 58 29
M  V30 63 1 59 30
M  V30 64 1 60 31
M  V30 65 1 61 32
M  V30 66 1 6 62 CFG=1
M  V30 END BOND
M  V30 END CTAB
M  END
>  <b_m_subgroup_collapsed>  (32) 
0

>  <r_i_docking_score>  (32) 
-9.5958556925884402

>  <s_m_subgroup_title>  (32) 
glide-dock_SP_D22_pv

>  <s_m_subgroupid>  (32) 
glide-dock_SP_D22_pv

>  <Molecule ChEMBL ID>  (32) 
CHEMBL3104518

>  <Standard Type>  (32) 
Ki

>  <Standard Value>  (32) 
10000.0

>  <label>  (32) 
0

$$$$
CHEMBL459158
     RDKit          3D

  0  0  0  0  0  0  0  0  0  0999 V3000
M  V30 BEGIN CTAB
M  V30 COUNTS 73 76 0 0 1
M  V30 BEGIN ATOM
M  V30 1 C 14.116266 -0.556085 -20.200258 0
M  V30 2 O 12.810779 -1.027412 -19.906624 0
M  V30 3 C 12.070032 -0.358480 -18.954557 0
M  V30 4 C 10.832010 -0.921109 -18.576197 0
M  V30 5 C 10.036104 -0.324235 -17.581202 0
M  V30 6 C 10.471505 0.855082 -16.954384 0
M  V30 7 C 11.693738 1.442121 -17.337257 0
M  V30 8 C 12.169991 2.697166 -16.643732 0
M  V30 9 C 11.368782 3.939879 -17.055607 0
M  V30 10 C 11.728105 5.129419 -16.188572 0
M  V30 11 C 12.515408 6.174391 -16.718491 0
M  V30 12 C 12.888093 7.259871 -15.906217 0
M  V30 13 C 12.485755 7.294828 -14.559370 0
M  V30 14 C 11.695771 6.255481 -14.031067 0
M  V30 15 C 11.297077 5.165104 -14.842008 0
M  V30 16 O 10.517068 4.106998 -14.407938 0
M  V30 17 C 9.946743 4.123396 -13.107018 0
M  V30 18 C 8.669272 4.983047 -13.079020 0
M  V30 19 C 8.273002 5.417193 -11.661426 0
M  V30 20 C 9.168221 6.560893 -11.149377 0
M  V30 21 N 8.886115 6.952007 -9.751733 0 CHG=1
M  V30 22 C 9.409198 5.972115 -8.756652 0
M  V30 23 C 9.173882 6.416797 -7.304524 0
M  V30 24 N 9.604981 7.792860 -7.118164 0
M  V30 25 C 10.631691 8.153131 -6.226549 0
M  V30 26 C 11.398785 9.313805 -6.464402 0
M  V30 27 C 12.315341 9.772119 -5.512033 0
M  V30 28 C 12.486276 9.080965 -4.300640 0
M  V30 29 C 11.782611 7.882949 -4.057410 0
M  V30 30 C 11.991566 7.140375 -2.732213 0
M  V30 31 F 12.452826 7.989238 -1.815004 0
M  V30 32 F 10.886312 6.572542 -2.250363 0
M  V30 33 F 12.886006 6.172440 -2.881915 0
M  V30 34 C 10.886169 7.407879 -5.046857 0
M  V30 35 C 9.006833 8.751424 -8.034004 0
M  V30 36 C 9.315809 8.347198 -9.479273 0
M  V30 37 C 12.486801 0.843011 -18.334673 0
M  V30 38 H 14.586589 -1.230805 -20.916311 0
M  V30 39 H 14.089575 0.437162 -20.649878 0
M  V30 40 H 14.746181 -0.534782 -19.309820 0
M  V30 41 H 10.485508 -1.827481 -19.047207 0
M  V30 42 H 9.096846 -0.774032 -17.294722 0
M  V30 43 H 9.867855 1.308222 -16.181530 0
M  V30 44 H 13.231814 2.860506 -16.837317 0
M  V30 45 H 12.088766 2.521933 -15.570701 0
M  V30 46 H 10.298485 3.756303 -16.957060 0
M  V30 47 H 11.543998 4.168139 -18.106668 0
M  V30 48 H 12.840958 6.144701 -17.748089 0
M  V30 49 H 13.493123 8.058395 -16.311468 0
M  V30 50 H 12.788189 8.119732 -13.930228 0
M  V30 51 H 11.416955 6.323020 -12.994350 0
M  V30 52 H 9.684320 3.096387 -12.846927 0
M  V30 53 H 10.677732 4.417975 -12.357443 0
M  V30 54 H 8.789995 5.865627 -13.706704 0
M  V30 55 H 7.856307 4.414645 -13.532379 0
M  V30 56 H 7.236870 5.757758 -11.664978 0
M  V30 57 H 8.304682 4.551875 -11.000263 0
M  V30 58 H 10.223582 6.303823 -11.219112 0
M  V30 59 H 9.014502 7.420893 -11.803273 0
M  V30 60 H 8.955328 4.993097 -8.904045 0
M  V30 61 H 10.481776 5.845222 -8.913810 0
M  V30 62 H 8.116051 6.341024 -7.046532 0
M  V30 63 H 9.715508 5.749557 -6.645818 0
M  V30 64 H 11.302677 9.882460 -7.374072 0
M  V30 65 H 12.886281 10.656850 -5.733907 0
M  V30 66 H 13.179989 9.470764 -3.569623 0
M  V30 67 H 10.325703 6.513793 -4.821924 0
M  V30 68 H 7.937750 8.752020 -7.847095 0
M  V30 69 H 9.315057 9.772261 -7.846450 0
M  V30 70 H 10.386043 8.444679 -9.671822 0
M  V30 71 H 8.803799 9.030077 -10.158334 0
M  V30 72 H 13.424945 1.310013 -18.592072 0
M  V30 73 H 7.868797 6.998672 -9.671401 0
M  V30 END ATOM
M  V30 BEGIN BOND
M  V30 1 1 2 1
M  V30 2 1 3 2
M  V30 3 2 4 3
M  V30 4 1 5 4
M  V30 5 2 6 5
M  V30 6 1 7 6
M  V30 7 1 8 7
M  V30 8 1 9 8
M  V30 9 1 10 9
M  V30 10 2 11 10
M  V30 11 1 12 11
M  V30 12 2 13 12
M  V30 13 1 14 13
M  V30 14 1 15 10
M  V30 15 2 15 14
M  V30 16 1 16 15
M  V30 17 1 17 16
M  V30 18 1 18 17
M  V30 19 1 19 18
M  V30 20 1 20 19
M  V30 21 1 21 20
M  V30 22 1 22 21
M  V30 23 1 23 22
M  V30 24 1 24 23
M  V30 25 1 25 24
M  V30 26 1 26 25
M  V30 27 2 27 26
M  V30 28 1 28 27
M  V30 29 2 29 28
M  V30 30 1 30 29
M  V30 31 1 31 30
M  V30 32 1 32 30
M  V30 33 1 33 30
M  V30 34 2 34 25
M  V30 35 1 34 29
M  V30 36 1 35 24
M  V30 37 1 36 21
M  V30 38 1 36 35
M  V30 39 1 37 3
M  V30 40 2 37 7
M  V30 41 1 38 1
M  V30 42 1 39 1
M  V30 43 1 40 1
M  V30 44 1 41 4
M  V30 45 1 42 5
M  V30 46 1 43 6
M  V30 47 1 44 8
M  V30 48 1 45 8
M  V30 49 1 46 9
M  V30 50 1 47 9
M  V30 51 1 48 11
M  V30 52 1 49 12
M  V30 53 1 50 13
M  V30 54 1 51 14
M  V30 55 1 52 17
M  V30 56 1 53 17
M  V30 57 1 54 18
M  V30 58 1 55 18
M  V30 59 1 56 19
M  V30 60 1 57 19
M  V30 61 1 58 20
M  V30 62 1 59 20
M  V30 63 1 60 22
M  V30 64 1 61 22
M  V30 65 1 62 23
M  V30 66 1 63 23
M  V30 67 1 64 26
M  V30 68 1 65 27
M  V30 69 1 66 28
M  V30 70 1 67 34
M  V30 71 1 68 35
M  V30 72 1 69 35
M  V30 73 1 70 36
M  V30 74 1 71 36
M  V30 75 1 72 37
M  V30 76 1 73 21
M  V30 END BOND
M  V30 END CTAB
M  END
>  <b_m_subgroup_collapsed>  (33) 
0

>  <r_i_docking_score>  (33) 
-9.5956553841125505

>  <s_m_subgroup_title>  (33) 
glide-dock_SP_D22_pv

>  <s_m_subgroupid>  (33) 
glide-dock_SP_D22_pv

>  <Molecule ChEMBL ID>  (33) 
CHEMBL459158

>  <Standard Type>  (33) 
Ki

>  <Standard Value>  (33) 
1000000.0

>  <label>  (33) 
0

$$$$
CHEMBL3765422
     RDKit          3D

  0  0  0  0  0  0  0  0  0  0999 V3000
M  V30 BEGIN CTAB
M  V30 COUNTS 60 63 0 0 1
M  V30 BEGIN ATOM
M  V30 1 C 9.542376 0.243491 -15.338250 0
M  V30 2 N 8.847943 1.447143 -14.908582 0
M  V30 3 C 9.372300 2.668726 -14.669530 0
M  V30 4 S 11.081657 3.032462 -14.950483 0
M  V30 5 C 11.378317 4.326849 -13.703985 0
M  V30 6 C 11.012874 5.750213 -14.177578 0
M  V30 7 C 11.204948 6.819437 -13.074970 0
M  V30 8 N 10.485930 6.536629 -11.839052 0
M  V30 9 C 9.032124 6.449073 -11.930693 0
M  V30 10 C 8.469995 5.821998 -10.643759 0
M  V30 11 O 8.886892 6.585116 -9.512954 0
M  V30 12 C 10.295773 6.747684 -9.407079 0 CFG=2
M  V30 13 C 10.652882 7.453202 -8.109135 0
M  V30 14 C 11.082424 8.798129 -8.044704 0
M  V30 15 C 11.411203 9.370136 -6.799062 0
M  V30 16 C 11.332356 8.606278 -5.614752 0
M  V30 17 C 11.752566 9.222099 -4.294577 0
M  V30 18 F 12.958298 9.763781 -4.434815 0
M  V30 19 F 10.886375 10.172734 -3.959843 0
M  V30 20 F 11.807081 8.324420 -3.310233 0
M  V30 21 C 10.886216 7.272150 -5.679634 0
M  V30 22 C 10.538939 6.711223 -6.919325 0
M  V30 23 C 10.856983 7.371191 -10.704565 0
M  V30 24 N 8.472288 3.554969 -14.246652 0
M  V30 25 N 7.271557 2.887023 -14.241199 0
M  V30 26 C 7.534500 1.640674 -14.646866 0
M  V30 27 C 6.461963 0.661669 -14.796354 0
M  V30 28 C 5.551594 0.426733 -13.746483 0
M  V30 29 N 4.473382 -0.379437 -13.859462 0
M  V30 30 C 4.261043 -0.997641 -15.044199 0
M  V30 31 C 5.110813 -0.846440 -16.161608 0
M  V30 32 C 4.803800 -1.470022 -17.494244 0
M  V30 33 N 4.137318 -2.627246 -17.525970 0
M  V30 34 O 5.203051 -0.943202 -18.529213 0
M  V30 35 C 6.231806 0.003898 -16.023470 0
M  V30 36 H 10.013699 0.417542 -16.307646 0
M  V30 37 H 10.311790 -0.015496 -14.607108 0
M  V30 38 H 8.853230 -0.597595 -15.425021 0
M  V30 39 H 10.830111 4.064281 -12.799495 0
M  V30 40 H 12.436602 4.300368 -13.444121 0
M  V30 41 H 11.635523 6.012022 -15.033734 0
M  V30 42 H 9.990224 5.771730 -14.548852 0
M  V30 43 H 12.271477 6.875831 -12.854501 0
M  V30 44 H 10.932630 7.804605 -13.446292 0
M  V30 45 H 8.598130 7.437627 -12.086566 0
M  V30 46 H 8.726440 5.833566 -12.773989 0
M  V30 47 H 7.381418 5.772500 -10.677026 0
M  V30 48 H 8.824963 4.796123 -10.537505 0
M  V30 49 H 10.722141 5.749971 -9.319709 0
M  V30 50 H 11.165796 9.398092 -8.937942 0
M  V30 51 H 11.740802 10.396992 -6.747354 0
M  V30 52 H 10.804906 6.671212 -4.785659 0
M  V30 53 H 10.182695 5.695428 -6.968771 0
M  V30 54 H 11.943325 7.438749 -10.632910 0
M  V30 55 H 10.477863 8.382787 -10.847672 0
M  V30 56 H 5.671230 0.923008 -12.794508 0
M  V30 57 H 3.374549 -1.613286 -15.095501 0
M  V30 58 H 3.775002 -3.124490 -16.707178 0
M  V30 59 H 3.950938 -3.034434 -18.429602 0
M  V30 60 H 6.891223 0.184291 -16.859987 0
M  V30 END ATOM
M  V30 BEGIN BOND
M  V30 1 1 2 1
M  V30 2 1 3 2
M  V30 3 1 4 3
M  V30 4 1 5 4
M  V30 5 1 6 5
M  V30 6 1 7 6
M  V30 7 1 8 7
M  V30 8 1 9 8
M  V30 9 1 10 9
M  V30 10 1 11 10
M  V30 11 1 12 11
M  V30 12 1 13 12
M  V30 13 1 14 13
M  V30 14 2 15 14
M  V30 15 1 16 15
M  V30 16 1 17 16
M  V30 17 1 18 17
M  V30 18 1 19 17
M  V30 19 1 20 17
M  V30 20 2 21 16
M  V30 21 2 22 13
M  V30 22 1 22 21
M  V30 23 1 23 8
M  V30 24 1 23 12
M  V30 25 2 24 3
M  V30 26 1 25 24
M  V30 27 1 26 2
M  V30 28 2 26 25
M  V30 29 1 27 26
M  V30 30 2 28 27
M  V30 31 1 29 28
M  V30 32 2 30 29
M  V30 33 1 31 30
M  V30 34 1 32 31
M  V30 35 1 33 32
M  V30 36 2 34 32
M  V30 37 1 35 27
M  V30 38 2 35 31
M  V30 39 1 36 1
M  V30 40 1 37 1
M  V30 41 1 38 1
M  V30 42 1 39 5
M  V30 43 1 40 5
M  V30 44 1 41 6
M  V30 45 1 42 6
M  V30 46 1 43 7
M  V30 47 1 44 7
M  V30 48 1 45 9
M  V30 49 1 46 9
M  V30 50 1 47 10
M  V30 51 1 48 10
M  V30 52 1 12 49 CFG=1
M  V30 53 1 50 14
M  V30 54 1 51 15
M  V30 55 1 52 21
M  V30 56 1 53 22
M  V30 57 1 54 23
M  V30 58 1 55 23
M  V30 59 1 56 28
M  V30 60 1 57 30
M  V30 61 1 58 33
M  V30 62 1 59 33
M  V30 63 1 60 35
M  V30 END BOND
M  V30 END CTAB
M  END
>  <b_m_subgroup_collapsed>  (34) 
0

>  <r_i_docking_score>  (34) 
-9.5956439458358496

>  <s_m_subgroup_title>  (34) 
glide-dock_SP_D22_pv

>  <s_m_subgroupid>  (34) 
glide-dock_SP_D22_pv

>  <Molecule ChEMBL ID>  (34) 
CHEMBL3765422

>  <Standard Type>  (34) 
Ki

>  <Standard Value>  (34) 
15848.93

>  <label>  (34) 
0

$$$$
CHEMBL5182383
     RDKit          3D

  0  0  0  0  0  0  0  0  0  0999 V3000
M  V30 BEGIN CTAB
M  V30 COUNTS 66 70 0 0 1
M  V30 BEGIN ATOM
M  V30 1 S 13.170208 5.180820 -16.923676 0
M  V30 2 C 12.293694 3.781111 -16.647306 0
M  V30 3 N 11.546469 3.463970 -15.541217 0
M  V30 4 C 11.379944 4.291554 -14.342828 0
M  V30 5 C 10.242416 5.319159 -14.506356 0
M  V30 6 C 8.815412 4.743052 -14.355269 0
M  V30 7 C 8.447216 4.297157 -12.930691 0
M  V30 8 C 8.242134 5.473085 -11.958352 0
M  V30 9 C 8.459260 5.051600 -10.496077 0
M  V30 10 N 8.486647 6.171799 -9.517165 0 CHG=1
M  V30 11 C 9.581888 7.137946 -9.811077 0
M  V30 12 C 9.831586 8.157161 -8.692372 0
M  V30 13 N 9.959126 7.490861 -7.401142 0
M  V30 14 C 10.789150 8.015835 -6.386237 0
M  V30 15 C 11.427013 9.268093 -6.546463 0
M  V30 16 C 12.272160 9.776198 -5.551105 0
M  V30 17 C 12.465526 9.079221 -4.347599 0
M  V30 18 C 11.841941 7.836051 -4.167317 0
M  V30 19 Cl 12.085584 6.966305 -2.694519 0
M  V30 20 C 11.032147 7.295846 -5.186411 0
M  V30 21 C 8.802283 6.677316 -7.054461 0
M  V30 22 C 8.574104 5.616816 -8.138687 0
M  V30 23 C 10.944082 2.214232 -15.726302 0
M  V30 24 C 10.078852 1.411172 -14.954492 0
M  V30 25 C 9.650324 0.170174 -15.489945 0
M  V30 26 C 10.083339 -0.276580 -16.770618 0
M  V30 27 C 10.960577 0.518093 -17.537394 0
M  V30 28 C 11.327591 1.731957 -16.950180 0
M  V30 29 N 12.166410 2.708712 -17.489071 0
M  V30 30 C 12.790748 2.541521 -18.801092 0
M  V30 31 C 12.871532 1.046406 -19.173756 0
M  V30 32 C 11.548418 0.284788 -18.923483 0
M  V30 33 H 12.315120 4.816194 -14.141423 0
M  V30 34 H 11.213932 3.658222 -13.475322 0
M  V30 35 H 10.326569 5.783559 -15.488265 0
M  V30 36 H 10.403854 6.128175 -13.794238 0
M  V30 37 H 8.690346 3.905165 -15.042014 0
M  V30 38 H 8.089647 5.489815 -14.670543 0
M  V30 39 H 9.219616 3.622689 -12.558061 0
M  V30 40 H 7.532884 3.703000 -12.962816 0
M  V30 41 H 7.245320 5.900598 -12.085019 0
M  V30 42 H 8.938893 6.259710 -12.226855 0
M  V30 43 H 9.406279 4.511717 -10.419208 0
M  V30 44 H 7.686389 4.334226 -10.221560 0
M  V30 45 H 9.361842 7.697577 -10.722076 0
M  V30 46 H 10.510529 6.589191 -9.986771 0
M  V30 47 H 9.009291 8.876813 -8.649920 0
M  V30 48 H 10.732072 8.702384 -8.969440 0
M  V30 49 H 11.295508 9.874187 -7.429142 0
M  V30 50 H 12.780017 10.710398 -5.738217 0
M  V30 51 H 13.104368 9.491065 -3.577765 0
M  V30 52 H 10.603343 6.320422 -5.021957 0
M  V30 53 H 8.888004 6.174397 -6.095325 0
M  V30 54 H 7.939606 7.334323 -6.966751 0
M  V30 55 H 7.685958 5.041404 -7.897112 0
M  V30 56 H 9.411143 4.917101 -8.094852 0
M  V30 57 H 9.742654 1.730227 -13.978224 0
M  V30 58 H 8.972705 -0.447510 -14.922606 0
M  V30 59 H 9.733468 -1.222810 -17.155602 0
M  V30 60 H 12.193378 3.079860 -19.536924 0
M  V30 61 H 13.790342 2.976545 -18.814777 0
M  V30 62 H 13.655117 0.585214 -18.569710 0
M  V30 63 H 13.182127 0.932588 -20.211527 0
M  V30 64 H 11.704695 -0.784783 -19.064114 0
M  V30 65 H 10.805349 0.587387 -19.660616 0
M  V30 66 H 7.613204 6.697031 -9.595239 0
M  V30 END ATOM
M  V30 BEGIN BOND
M  V30 1 2 2 1
M  V30 2 1 3 2
M  V30 3 1 4 3
M  V30 4 1 5 4
M  V30 5 1 6 5
M  V30 6 1 7 6
M  V30 7 1 8 7
M  V30 8 1 9 8
M  V30 9 1 10 9
M  V30 10 1 11 10
M  V30 11 1 12 11
M  V30 12 1 13 12
M  V30 13 1 14 13
M  V30 14 2 15 14
M  V30 15 1 16 15
M  V30 16 2 17 16
M  V30 17 1 18 17
M  V30 18 1 19 18
M  V30 19 1 20 14
M  V30 20 2 20 18
M  V30 21 1 21 13
M  V30 22 1 22 10
M  V30 23 1 22 21
M  V30 24 1 23 3
M  V30 25 2 24 23
M  V30 26 1 25 24
M  V30 27 2 26 25
M  V30 28 1 27 26
M  V30 29 1 28 23
M  V30 30 2 28 27
M  V30 31 1 29 2
M  V30 32 1 29 28
M  V30 33 1 30 29
M  V30 34 1 31 30
M  V30 35 1 32 27
M  V30 36 1 32 31
M  V30 37 1 33 4
M  V30 38 1 34 4
M  V30 39 1 35 5
M  V30 40 1 36 5
M  V30 41 1 37 6
M  V30 42 1 38 6
M  V30 43 1 39 7
M  V30 44 1 40 7
M  V30 45 1 41 8
M  V30 46 1 42 8
M  V30 47 1 43 9
M  V30 48 1 44 9
M  V30 49 1 45 11
M  V30 50 1 46 11
M  V30 51 1 47 12
M  V30 52 1 48 12
M  V30 53 1 49 15
M  V30 54 1 50 16
M  V30 55 1 51 17
M  V30 56 1 52 20
M  V30 57 1 53 21
M  V30 58 1 54 21
M  V30 59 1 55 22
M  V30 60 1 56 22
M  V30 61 1 57 24
M  V30 62 1 58 25
M  V30 63 1 59 26
M  V30 64 1 60 30
M  V30 65 1 61 30
M  V30 66 1 62 31
M  V30 67 1 63 31
M  V30 68 1 64 32
M  V30 69 1 65 32
M  V30 70 1 66 10
M  V30 END BOND
M  V30 END CTAB
M  END
>  <b_m_subgroup_collapsed>  (35) 
0

>  <r_i_docking_score>  (35) 
-9.5803362895917399

>  <s_m_subgroup_title>  (35) 
glide-dock_SP_D22_pv

>  <s_m_subgroupid>  (35) 
glide-dock_SP_D22_pv

>  <Molecule ChEMBL ID>  (35) 
CHEMBL5182383

>  <Standard Type>  (35) 
Ki

>  <Standard Value>  (35) 
85.0

>  <label>  (35) 
1

$$$$
CHEMBL4062602
     RDKit          3D

  0  0  0  0  0  0  0  0  0  0999 V3000
M  V30 BEGIN CTAB
M  V30 COUNTS 55 59 0 0 1
M  V30 BEGIN ATOM
M  V30 1 O 10.903926 9.196576 -8.403313 0
M  V30 2 C 11.104702 9.068752 -7.197045 0
M  V30 3 C 11.349002 10.322199 -6.348031 0
M  V30 4 O 12.296671 10.081706 -5.325004 0
M  V30 5 C 12.055488 8.964253 -4.569371 0
M  V30 6 C 12.447083 8.955297 -3.215858 0
M  V30 7 C 12.265692 7.800504 -2.441582 0
M  V30 8 C 11.692810 6.656476 -3.021423 0
M  V30 9 C 11.291196 6.663685 -4.371854 0
M  V30 10 C 11.459100 7.823498 -5.163313 0
M  V30 11 N 11.103446 7.874704 -6.553707 0
M  V30 12 C 10.787325 6.660823 -7.329300 0
M  V30 13 C 9.265835 6.473359 -7.527826 0
M  V30 14 C 8.918633 5.380607 -8.563949 0
M  V30 15 N 8.512650 5.904561 -9.900529 0 CFG=2 CHG=1
M  V30 16 C 8.052884 4.811607 -10.789108 0
M  V30 17 C 7.459251 5.390061 -12.079707 0
M  V30 18 C 8.553794 6.101667 -12.890532 0 CFG=2
M  V30 19 C 9.616951 5.153044 -13.430096 0
M  V30 20 N 10.893686 5.535442 -13.445905 0
M  V30 21 O 11.657002 4.505157 -14.053827 0
M  V30 22 C 10.818120 3.482651 -14.453223 0
M  V30 23 C 11.081810 2.281443 -15.124878 0
M  V30 24 C 10.001774 1.415947 -15.386238 0
M  V30 25 F 10.218189 0.232537 -16.006378 0
M  V30 26 C 8.690032 1.788813 -15.007462 0
M  V30 27 C 8.446095 3.023015 -14.359832 0
M  V30 28 C 9.534922 3.878875 -14.059671 0
M  V30 29 C 9.097434 7.222788 -11.968943 0
M  V30 30 C 9.556643 6.719448 -10.582048 0
M  V30 31 H 10.427979 10.635323 -5.868860 0
M  V30 32 H 11.686229 11.154236 -6.961910 0
M  V30 33 H 12.886396 9.834969 -2.774184 0
M  V30 34 H 12.574488 7.794510 -1.409713 0
M  V30 35 H 11.554283 5.772458 -2.415996 0
M  V30 36 H 10.838687 5.772509 -4.773375 0
M  V30 37 H 11.282420 6.721077 -8.298797 0
M  V30 38 H 11.227381 5.774074 -6.880663 0
M  V30 39 H 8.834461 6.192556 -6.564561 0
M  V30 40 H 8.773155 7.409620 -7.797359 0
M  V30 41 H 9.741938 4.671387 -8.667892 0
M  V30 42 H 8.080509 4.803037 -8.170325 0
M  V30 43 H 8.901272 4.171675 -11.019992 0
M  V30 44 H 7.321050 4.173794 -10.301764 0
M  V30 45 H 6.956765 4.615837 -12.649482 0
M  V30 46 H 6.670142 6.106988 -11.838059 0
M  V30 47 H 8.085993 6.572649 -13.751108 0
M  V30 48 H 12.084180 2.025805 -15.432434 0
M  V30 49 H 7.863521 1.125899 -15.229316 0
M  V30 50 H 7.429594 3.285006 -14.120010 0
M  V30 51 H 9.907896 7.767573 -12.450446 0
M  V30 52 H 8.308415 7.960086 -11.814409 0
M  V30 53 H 9.803378 7.583300 -9.970623 0
M  V30 54 H 10.469991 6.135303 -10.679990 0
M  V30 55 H 7.717280 6.526195 -9.765031 0
M  V30 END ATOM
M  V30 BEGIN BOND
M  V30 1 2 2 1
M  V30 2 1 3 2
M  V30 3 1 4 3
M  V30 4 1 5 4
M  V30 5 2 6 5
M  V30 6 1 7 6
M  V30 7 2 8 7
M  V30 8 1 9 8
M  V30 9 1 10 5
M  V30 10 2 10 9
M  V30 11 1 11 2
M  V30 12 1 11 10
M  V30 13 1 12 11
M  V30 14 1 13 12
M  V30 15 1 14 13
M  V30 16 1 15 14
M  V30 17 1 16 15
M  V30 18 1 17 16
M  V30 19 1 18 17
M  V30 20 1 19 18
M  V30 21 2 20 19
M  V30 22 1 21 20
M  V30 23 1 22 21
M  V30 24 1 23 22
M  V30 25 2 24 23
M  V30 26 1 25 24
M  V30 27 1 26 24
M  V30 28 2 27 26
M  V30 29 1 28 19
M  V30 30 2 28 22
M  V30 31 1 28 27
M  V30 32 1 29 18
M  V30 33 1 30 15
M  V30 34 1 30 29
M  V30 35 1 31 3
M  V30 36 1 32 3
M  V30 37 1 33 6
M  V30 38 1 34 7
M  V30 39 1 35 8
M  V30 40 1 36 9
M  V30 41 1 37 12
M  V30 42 1 38 12
M  V30 43 1 39 13
M  V30 44 1 40 13
M  V30 45 1 41 14
M  V30 46 1 42 14
M  V30 47 1 43 16
M  V30 48 1 44 16
M  V30 49 1 45 17
M  V30 50 1 46 17
M  V30 51 1 18 47 CFG=3
M  V30 52 1 48 23
M  V30 53 1 49 26
M  V30 54 1 50 27
M  V30 55 1 51 29
M  V30 56 1 52 29
M  V30 57 1 53 30
M  V30 58 1 54 30
M  V30 59 1 15 55 CFG=1
M  V30 END BOND
M  V30 END CTAB
M  END
>  <b_m_subgroup_collapsed>  (36) 
0

>  <r_i_docking_score>  (36) 
-9.5786084652785206

>  <s_m_subgroup_title>  (36) 
glide-dock_SP_D22_pv

>  <s_m_subgroupid>  (36) 
glide-dock_SP_D22_pv

>  <Molecule ChEMBL ID>  (36) 
CHEMBL4062602

>  <Standard Type>  (36) 
Ki

>  <Standard Value>  (36) 
3.236

>  <label>  (36) 
1

$$$$
CHEMBL4779051
     RDKit          3D

  0  0  0  0  0  0  0  0  0  0999 V3000
M  V30 BEGIN CTAB
M  V30 COUNTS 54 57 0 0 1
M  V30 BEGIN ATOM
M  V30 1 C 4.788034 -1.783943 -15.471282 0
M  V30 2 C 4.932528 -0.526837 -14.617223 0
M  V30 3 O 4.036565 -0.227576 -13.830441 0
M  V30 4 N 6.084074 0.153022 -14.768615 0
M  V30 5 C 6.482529 1.420449 -14.246364 0
M  V30 6 C 7.743369 1.893038 -14.660460 0
M  V30 7 C 8.210916 3.153835 -14.246748 0
M  V30 8 C 7.440487 3.967174 -13.394834 0
M  V30 9 O 7.984391 5.191220 -13.064729 0
M  V30 10 C 7.622543 5.835279 -11.845729 0
M  V30 11 C 8.348004 5.180936 -10.650355 0
M  V30 12 N 8.728321 6.172338 -9.605232 0 CFG=1 CHG=1
M  V30 13 C 8.667542 5.609572 -8.231535 0
M  V30 14 C 8.970360 6.675208 -7.160550 0
M  V30 15 C 10.358288 7.289823 -7.395159 0 CFG=2
M  V30 16 C 10.736765 8.295598 -6.334808 0
M  V30 17 N 10.486098 9.591222 -6.500460 0
M  V30 18 O 10.937958 10.278397 -5.341085 0
M  V30 19 C 11.443213 9.363868 -4.435775 0
M  V30 20 C 11.980405 9.519541 -3.151873 0
M  V30 21 C 12.367048 8.355576 -2.457431 0
M  V30 22 F 12.886053 8.464235 -1.216297 0
M  V30 23 C 12.211906 7.081293 -3.051923 0
M  V30 24 C 11.685686 6.953606 -4.359324 0
M  V30 25 C 11.299444 8.118639 -5.055192 0
M  V30 26 C 10.405483 7.873200 -8.823749 0
M  V30 27 C 10.057278 6.803552 -9.869942 0
M  V30 28 C 6.169617 3.499847 -12.971244 0
M  V30 29 C 5.691451 2.238322 -13.395382 0
M  V30 30 H 5.154761 -1.613797 -16.484013 0
M  V30 31 H 5.345656 -2.616282 -15.040440 0
M  V30 32 H 3.741756 -2.083755 -15.542521 0
M  V30 33 H 6.743330 -0.280095 -15.398430 0
M  V30 34 H 8.362415 1.294253 -15.312423 0
M  V30 35 H 9.178738 3.499136 -14.581847 0
M  V30 36 H 7.947173 6.870685 -11.955352 0
M  V30 37 H 6.546201 5.886097 -11.689344 0
M  V30 38 H 7.686660 4.415229 -10.243737 0
M  V30 39 H 9.243621 4.653478 -10.983006 0
M  V30 40 H 7.686262 5.192049 -8.042746 0
M  V30 41 H 9.373955 4.783833 -8.152183 0
M  V30 42 H 8.932019 6.218301 -6.171562 0
M  V30 43 H 8.202717 7.452520 -7.166306 0
M  V30 44 H 11.089902 6.480123 -7.352077 0
M  V30 45 H 12.082744 10.495097 -2.700274 0
M  V30 46 H 12.501799 6.195271 -2.507209 0
M  V30 47 H 11.571630 5.978387 -4.808917 0
M  V30 48 H 11.396788 8.278930 -9.032362 0
M  V30 49 H 9.702049 8.703025 -8.916182 0
M  V30 50 H 10.861238 6.061214 -9.848988 0
M  V30 51 H 10.062016 7.247405 -10.865795 0
M  V30 52 H 5.538546 4.094506 -12.330423 0
M  V30 53 H 4.713853 1.930258 -13.058944 0
M  V30 54 H 8.004211 6.893417 -9.639792 0
M  V30 END ATOM
M  V30 BEGIN BOND
M  V30 1 1 2 1
M  V30 2 2 3 2
M  V30 3 1 4 2
M  V30 4 1 5 4
M  V30 5 1 6 5
M  V30 6 2 7 6
M  V30 7 1 8 7
M  V30 8 1 9 8
M  V30 9 1 10 9
M  V30 10 1 11 10
M  V30 11 1 12 11
M  V30 12 1 13 12
M  V30 13 1 14 13
M  V30 14 1 15 14
M  V30 15 1 16 15
M  V30 16 2 17 16
M  V30 17 1 18 17
M  V30 18 1 19 18
M  V30 19 1 20 19
M  V30 20 2 21 20
M  V30 21 1 22 21
M  V30 22 1 23 21
M  V30 23 2 24 23
M  V30 24 1 25 16
M  V30 25 2 25 19
M  V30 26 1 25 24
M  V30 27 1 26 15
M  V30 28 1 27 12
M  V30 29 1 27 26
M  V30 30 2 28 8
M  V30 31 2 29 5
M  V30 32 1 29 28
M  V30 33 1 30 1
M  V30 34 1 31 1
M  V30 35 1 32 1
M  V30 36 1 33 4
M  V30 37 1 34 6
M  V30 38 1 35 7
M  V30 39 1 36 10
M  V30 40 1 37 10
M  V30 41 1 38 11
M  V30 42 1 39 11
M  V30 43 1 40 13
M  V30 44 1 41 13
M  V30 45 1 42 14
M  V30 46 1 43 14
M  V30 47 1 15 44 CFG=3
M  V30 48 1 45 20
M  V30 49 1 46 23
M  V30 50 1 47 24
M  V30 51 1 48 26
M  V30 52 1 49 26
M  V30 53 1 50 27
M  V30 54 1 51 27
M  V30 55 1 52 28
M  V30 56 1 53 29
M  V30 57 1 12 54 CFG=1
M  V30 END BOND
M  V30 END CTAB
M  END
>  <b_m_subgroup_collapsed>  (37) 
0

>  <r_i_docking_score>  (37) 
-9.5689014853510894

>  <s_m_subgroup_title>  (37) 
glide-dock_SP_D22_pv

>  <s_m_subgroupid>  (37) 
glide-dock_SP_D22_pv

>  <Molecule ChEMBL ID>  (37) 
CHEMBL4779051

>  <Standard Type>  (37) 
Ki

>  <Standard Value>  (37) 
10000.0

>  <label>  (37) 
0

$$$$
CHEMBL147159
     RDKit          3D

  0  0  0  0  0  0  0  0  0  0999 V3000
M  V30 BEGIN CTAB
M  V30 COUNTS 55 58 0 0 1
M  V30 BEGIN ATOM
M  V30 1 O 13.077980 8.972312 -1.429266 0
M  V30 2 C 12.460107 8.654470 -2.595126 0
M  V30 3 C 11.996868 9.690967 -3.413164 0
M  V30 4 C 11.435464 9.408682 -4.671474 0
M  V30 5 C 11.286409 8.068801 -5.100662 0
M  V30 6 C 10.724935 7.782901 -6.445386 0
M  V30 7 C 10.826817 6.563131 -7.001799 0
M  V30 8 C 10.178860 6.132637 -8.302089 0
M  V30 9 N 9.756775 7.275723 -9.146167 0 CFG=1 CHG=1
M  V30 10 C 8.927462 6.840591 -10.301664 0
M  V30 11 C 9.685136 6.047547 -11.383374 0 CFG=2
M  V30 12 C 10.616386 6.939561 -12.225654 0
M  V30 13 C 11.327614 6.172929 -13.363152 0
M  V30 14 C 10.547338 4.982153 -13.898617 0
M  V30 15 C 9.346792 4.568558 -13.440459 0
M  V30 16 C 8.708195 3.331086 -13.947894 0
M  V30 17 C 9.477003 2.260849 -14.467241 0
M  V30 18 C 8.853880 1.065541 -14.880098 0
M  V30 19 C 7.456367 0.927749 -14.776408 0
M  V30 20 O 6.837630 -0.227610 -15.157676 0
M  V30 21 C 6.686076 1.991758 -14.271392 0
M  V30 22 C 7.303332 3.192835 -13.874047 0
M  V30 23 C 8.683572 5.321555 -12.294322 0
M  V30 24 C 9.075202 8.309141 -8.328483 0
M  V30 25 C 9.974957 8.857920 -7.210813 0
M  V30 26 C 11.686095 7.025771 -4.225275 0
M  V30 27 C 12.282278 7.316942 -2.984152 0
M  V30 28 H 13.309857 9.896412 -1.384194 0
M  V30 29 H 12.083325 10.701402 -3.047021 0
M  V30 30 H 11.126376 10.236092 -5.292172 0
M  V30 31 H 11.357634 5.772280 -6.503203 0
M  V30 32 H 10.886065 5.509381 -8.840762 0
M  V30 33 H 9.321726 5.504124 -8.054575 0
M  V30 34 H 8.089655 6.249461 -9.921788 0
M  V30 35 H 8.486198 7.716211 -10.779181 0
M  V30 36 H 10.260208 5.261278 -10.906739 0
M  V30 37 H 10.024790 7.751728 -12.646729 0
M  V30 38 H 11.364022 7.419679 -11.593991 0
M  V30 39 H 12.288150 5.790470 -13.018109 0
M  V30 40 H 11.558196 6.851740 -14.185049 0
M  V30 41 H 11.038935 4.447396 -14.697332 0
M  V30 42 H 10.553298 2.322749 -14.520265 0
M  V30 43 H 9.455648 0.252942 -15.259525 0
M  V30 44 H 7.415194 -0.924876 -15.444181 0
M  V30 45 H 5.615916 1.886190 -14.185665 0
M  V30 46 H 6.686985 3.992540 -13.490676 0
M  V30 47 H 8.149591 4.600486 -11.672644 0
M  V30 48 H 7.933618 6.003085 -12.699375 0
M  V30 49 H 8.728054 9.130682 -8.957255 0
M  V30 50 H 8.188143 7.867280 -7.873395 0
M  V30 51 H 9.327341 9.371712 -6.505224 0
M  V30 52 H 10.691776 9.583244 -7.596411 0
M  V30 53 H 11.558186 5.984891 -4.476043 0
M  V30 54 H 12.607705 6.513211 -2.339334 0
M  V30 55 H 10.588009 7.709876 -9.519550 0
M  V30 END ATOM
M  V30 BEGIN BOND
M  V30 1 1 2 1
M  V30 2 1 3 2
M  V30 3 2 4 3
M  V30 4 1 5 4
M  V30 5 1 6 5
M  V30 6 2 7 6
M  V30 7 1 8 7
M  V30 8 1 9 8
M  V30 9 1 10 9
M  V30 10 1 11 10
M  V30 11 1 12 11
M  V30 12 1 13 12
M  V30 13 1 14 13
M  V30 14 2 15 14
M  V30 15 1 16 15
M  V30 16 1 17 16
M  V30 17 2 18 17
M  V30 18 1 19 18
M  V30 19 1 20 19
M  V30 20 2 21 19
M  V30 21 2 22 16
M  V30 22 1 22 21
M  V30 23 1 23 11
M  V30 24 1 23 15
M  V30 25 1 24 9
M  V30 26 1 25 6
M  V30 27 1 25 24
M  V30 28 2 26 5
M  V30 29 2 27 2
M  V30 30 1 27 26
M  V30 31 1 28 1
M  V30 32 1 29 3
M  V30 33 1 30 4
M  V30 34 1 31 7
M  V30 35 1 32 8
M  V30 36 1 33 8
M  V30 37 1 34 10
M  V30 38 1 35 10
M  V30 39 1 11 36 CFG=1
M  V30 40 1 37 12
M  V30 41 1 38 12
M  V30 42 1 39 13
M  V30 43 1 40 13
M  V30 44 1 41 14
M  V30 45 1 42 17
M  V30 46 1 43 18
M  V30 47 1 44 20
M  V30 48 1 45 21
M  V30 49 1 46 22
M  V30 50 1 47 23
M  V30 51 1 48 23
M  V30 52 1 49 24
M  V30 53 1 50 24
M  V30 54 1 51 25
M  V30 55 1 52 25
M  V30 56 1 53 26
M  V30 57 1 54 27
M  V30 58 1 9 55 CFG=3
M  V30 END BOND
M  V30 END CTAB
M  END
>  <b_m_subgroup_collapsed>  (38) 
0

>  <r_i_docking_score>  (38) 
-9.5664857274978097

>  <s_m_subgroup_title>  (38) 
glide-dock_SP_D22_pv

>  <s_m_subgroupid>  (38) 
glide-dock_SP_D22_pv

>  <Molecule ChEMBL ID>  (38) 
CHEMBL147159

>  <Standard Type>  (38) 
Ki

>  <Standard Value>  (38) 
2.2

>  <label>  (38) 
1

$$$$
CHEMBL5753002
     RDKit          3D

  0  0  0  0  0  0  0  0  0  0999 V3000
M  V30 BEGIN CTAB
M  V30 COUNTS 53 57 0 0 1
M  V30 BEGIN ATOM
M  V30 1 O 11.287384 10.547470 -5.986449 0
M  V30 2 C 11.244133 9.344029 -5.718677 0
M  V30 3 C 11.645810 8.850942 -4.350921 0
M  V30 4 N 11.855537 9.772875 -3.395369 0
M  V30 5 C 12.274890 9.372284 -2.182423 0
M  V30 6 C 12.486036 8.032305 -1.846905 0
M  V30 7 C 12.238043 7.053570 -2.814003 0
M  V30 8 C 11.817594 7.475935 -4.086368 0
M  V30 9 C 11.548529 6.455232 -5.142504 0
M  V30 10 C 10.662281 6.983645 -6.262652 0
M  V30 11 N 10.845284 8.405659 -6.608709 0
M  V30 12 C 10.552644 8.718669 -8.015189 0
M  V30 13 C 9.067313 8.430610 -8.360489 0
M  V30 14 N 8.886658 7.534835 -9.531604 0 CFG=2 CHG=1
M  V30 15 C 9.495714 6.185403 -9.371113 0
M  V30 16 C 9.128681 5.242199 -10.513386 0
M  V30 17 C 9.408421 5.886457 -11.881152 0 CFG=1
M  V30 18 C 9.065202 4.938207 -12.994820 0
M  V30 19 N 9.988012 4.613866 -13.897793 0
M  V30 20 O 9.456127 3.552476 -14.681281 0
M  V30 21 C 8.182402 3.238704 -14.233995 0
M  V30 22 C 7.296663 2.208434 -14.579751 0
M  V30 23 F 7.604496 1.310315 -15.544645 0
M  V30 24 C 6.086043 2.118939 -13.861532 0
M  V30 25 C 5.753657 3.088606 -12.886402 0
M  V30 26 C 6.659635 4.122003 -12.560781 0
M  V30 27 C 7.908863 4.163815 -13.221988 0
M  V30 28 C 8.669635 7.225760 -11.960515 0
M  V30 29 C 9.162057 8.160564 -10.843607 0
M  V30 30 H 12.485948 10.143159 -1.459112 0
M  V30 31 H 12.885980 7.772342 -0.880483 0
M  V30 32 H 12.394223 6.007158 -2.594437 0
M  V30 33 H 12.486008 6.065965 -5.534563 0
M  V30 34 H 11.035102 5.639957 -4.647103 0
M  V30 35 H 10.830462 6.336076 -7.117870 0
M  V30 36 H 9.623960 6.851341 -5.954832 0
M  V30 37 H 10.764811 9.770012 -8.245396 0
M  V30 38 H 11.253839 8.169649 -8.642427 0
M  V30 39 H 8.521152 7.996892 -7.521698 0
M  V30 40 H 8.550877 9.371961 -8.554687 0
M  V30 41 H 10.581079 6.250564 -9.336003 0
M  V30 42 H 9.149146 5.742145 -8.437476 0
M  V30 43 H 9.686365 4.309308 -10.414802 0
M  V30 44 H 8.077863 4.980367 -10.407196 0
M  V30 45 H 10.478270 6.099793 -11.934074 0
M  V30 46 H 5.390847 1.324496 -14.085660 0
M  V30 47 H 4.813020 3.021487 -12.363299 0
M  V30 48 H 6.404328 4.833777 -11.789338 0
M  V30 49 H 8.799410 7.697932 -12.923672 0
M  V30 50 H 7.599045 7.052381 -11.862283 0
M  V30 51 H 8.630691 9.110873 -10.912441 0
M  V30 52 H 10.225848 8.375152 -10.952864 0
M  V30 53 H 7.872897 7.391055 -9.586589 0
M  V30 END ATOM
M  V30 BEGIN BOND
M  V30 1 2 2 1
M  V30 2 1 3 2
M  V30 3 2 4 3
M  V30 4 1 5 4
M  V30 5 2 6 5
M  V30 6 1 7 6
M  V30 7 1 8 3
M  V30 8 2 8 7
M  V30 9 1 9 8
M  V30 10 1 10 9
M  V30 11 1 11 2
M  V30 12 1 11 10
M  V30 13 1 12 11
M  V30 14 1 13 12
M  V30 15 1 14 13
M  V30 16 1 15 14
M  V30 17 1 16 15
M  V30 18 1 17 16
M  V30 19 1 18 17
M  V30 20 2 19 18
M  V30 21 1 20 19
M  V30 22 1 21 20
M  V30 23 2 22 21
M  V30 24 1 23 22
M  V30 25 1 24 22
M  V30 26 2 25 24
M  V30 27 1 26 25
M  V30 28 1 27 18
M  V30 29 1 27 21
M  V30 30 2 27 26
M  V30 31 1 28 17
M  V30 32 1 29 14
M  V30 33 1 29 28
M  V30 34 1 30 5
M  V30 35 1 31 6
M  V30 36 1 32 7
M  V30 37 1 33 9
M  V30 38 1 34 9
M  V30 39 1 35 10
M  V30 40 1 36 10
M  V30 41 1 37 12
M  V30 42 1 38 12
M  V30 43 1 39 13
M  V30 44 1 40 13
M  V30 45 1 41 15
M  V30 46 1 42 15
M  V30 47 1 43 16
M  V30 48 1 44 16
M  V30 49 1 17 45 CFG=1
M  V30 50 1 46 24
M  V30 51 1 47 25
M  V30 52 1 48 26
M  V30 53 1 49 28
M  V30 54 1 50 28
M  V30 55 1 51 29
M  V30 56 1 52 29
M  V30 57 1 14 53 CFG=3
M  V30 END BOND
M  V30 END CTAB
M  END
>  <b_m_subgroup_collapsed>  (39) 
0

>  <r_i_docking_score>  (39) 
-9.5538981994692609

>  <s_m_subgroup_title>  (39) 
glide-dock_SP_D22_pv

>  <s_m_subgroupid>  (39) 
glide-dock_SP_D22_pv

>  <Molecule ChEMBL ID>  (39) 
CHEMBL5753002

>  <Standard Type>  (39) 
Ki

>  <Standard Value>  (39) 
10000.0

>  <label>  (39) 
0

$$$$
CHEMBL3235465
     RDKit          3D

  0  0  0  0  0  0  0  0  0  0999 V3000
M  V30 BEGIN CTAB
M  V30 COUNTS 57 60 0 0 1
M  V30 BEGIN ATOM
M  V30 1 C 11.741107 -0.172343 -18.972223 0
M  V30 2 C 10.736164 -0.405258 -17.846670 0
M  V30 3 O 10.084928 -1.450929 -17.845005 0
M  V30 4 C 10.610106 0.644074 -16.795811 0
M  V30 5 C 9.725164 0.431434 -15.701115 0
M  V30 6 C 9.567253 1.403089 -14.684391 0
M  V30 7 C 10.319555 2.581112 -14.801739 0
M  V30 8 C 11.183290 2.802146 -15.850446 0
M  V30 9 C 11.355905 1.852198 -16.870010 0
M  V30 10 O 11.784484 4.017933 -15.698547 0
M  V30 11 C 11.324205 4.598145 -14.546980 0
M  V30 12 O 11.686479 5.687058 -14.104086 0
M  V30 13 N 10.395472 3.713200 -13.992532 0
M  V30 14 C 9.728361 3.914113 -12.711613 0
M  V30 15 C 8.549792 4.903312 -12.806062 0
M  V30 16 C 8.145096 5.459929 -11.429365 0
M  V30 17 C 9.133582 6.549660 -10.972769 0
M  V30 18 N 8.889288 7.096997 -9.615047 0 CHG=1
M  V30 19 C 9.716195 8.326208 -9.430018 0
M  V30 20 C 9.743597 8.873176 -7.993468 0
M  V30 21 N 10.032039 7.801876 -7.053765 0
M  V30 22 C 10.725937 8.048462 -5.847816 0
M  V30 23 C 11.285739 6.971669 -5.115148 0
M  V30 24 C 11.952122 7.185894 -3.892967 0
M  V30 25 C 12.085556 8.489081 -3.385943 0
M  V30 26 F 12.710826 8.697495 -2.205028 0
M  V30 27 C 11.553169 9.573454 -4.105906 0
M  V30 28 C 10.886497 9.360005 -5.330458 0
M  V30 29 C 9.078732 6.700747 -7.129029 0
M  V30 30 C 9.083807 6.083869 -8.538324 0
M  V30 31 H 11.475108 0.716240 -19.543257 0
M  V30 32 H 12.745194 -0.046116 -18.568176 0
M  V30 33 H 11.754137 -1.022860 -19.653481 0
M  V30 34 H 9.154821 -0.484929 -15.633249 0
M  V30 35 H 8.898488 1.238441 -13.852940 0
M  V30 36 H 12.046889 2.059533 -17.673876 0
M  V30 37 H 10.484235 4.254241 -12.006312 0
M  V30 38 H 9.363879 2.972660 -12.313941 0
M  V30 39 H 7.699871 4.389771 -13.258413 0
M  V30 40 H 8.789961 5.732978 -13.473773 0
M  V30 41 H 8.085340 4.639926 -10.714969 0
M  V30 42 H 7.144403 5.889757 -11.489084 0
M  V30 43 H 9.075177 7.370938 -11.689498 0
M  V30 44 H 10.159816 6.186180 -11.015846 0
M  V30 45 H 9.363163 9.103793 -10.106279 0
M  V30 46 H 10.744274 8.104215 -9.721838 0
M  V30 47 H 8.783631 9.328531 -7.743270 0
M  V30 48 H 10.506519 9.649766 -7.934836 0
M  V30 49 H 11.213328 5.959802 -5.485999 0
M  V30 50 H 12.360208 6.348091 -3.347659 0
M  V30 51 H 11.642804 10.571650 -3.704329 0
M  V30 52 H 10.486157 10.218830 -5.843484 0
M  V30 53 H 9.274732 5.932912 -6.387052 0
M  V30 54 H 8.086518 7.092074 -6.901733 0
M  V30 55 H 8.299477 5.329857 -8.593833 0
M  V30 56 H 10.032923 5.568906 -8.697047 0
M  V30 57 H 7.903458 7.376650 -9.603167 0
M  V30 END ATOM
M  V30 BEGIN BOND
M  V30 1 1 2 1
M  V30 2 2 3 2
M  V30 3 1 4 2
M  V30 4 1 5 4
M  V30 5 2 6 5
M  V30 6 1 7 6
M  V30 7 2 8 7
M  V30 8 2 9 4
M  V30 9 1 9 8
M  V30 10 1 10 8
M  V30 11 1 11 10
M  V30 12 2 12 11
M  V30 13 1 13 7
M  V30 14 1 13 11
M  V30 15 1 14 13
M  V30 16 1 15 14
M  V30 17 1 16 15
M  V30 18 1 17 16
M  V30 19 1 18 17
M  V30 20 1 19 18
M  V30 21 1 20 19
M  V30 22 1 21 20
M  V30 23 1 22 21
M  V30 24 1 23 22
M  V30 25 2 24 23
M  V30 26 1 25 24
M  V30 27 1 26 25
M  V30 28 2 27 25
M  V30 29 2 28 22
M  V30 30 1 28 27
M  V30 31 1 29 21
M  V30 32 1 30 18
M  V30 33 1 30 29
M  V30 34 1 31 1
M  V30 35 1 32 1
M  V30 36 1 33 1
M  V30 37 1 34 5
M  V30 38 1 35 6
M  V30 39 1 36 9
M  V30 40 1 37 14
M  V30 41 1 38 14
M  V30 42 1 39 15
M  V30 43 1 40 15
M  V30 44 1 41 16
M  V30 45 1 42 16
M  V30 46 1 43 17
M  V30 47 1 44 17
M  V30 48 1 45 19
M  V30 49 1 46 19
M  V30 50 1 47 20
M  V30 51 1 48 20
M  V30 52 1 49 23
M  V30 53 1 50 24
M  V30 54 1 51 27
M  V30 55 1 52 28
M  V30 56 1 53 29
M  V30 57 1 54 29
M  V30 58 1 55 30
M  V30 59 1 56 30
M  V30 60 1 57 18
M  V30 END BOND
M  V30 END CTAB
M  END
>  <b_m_subgroup_collapsed>  (40) 
0

>  <r_i_docking_score>  (40) 
-9.5343346050184596

>  <s_m_subgroup_title>  (40) 
glide-dock_SP_D22_pv

>  <s_m_subgroupid>  (40) 
glide-dock_SP_D22_pv

>  <Molecule ChEMBL ID>  (40) 
CHEMBL3235465

>  <Standard Type>  (40) 
Ki

>  <Standard Value>  (40) 
10000.0

>  <label>  (40) 
0

$$$$
CHEMBL5992622
     RDKit          3D

  0  0  0  0  0  0  0  0  0  0999 V3000
M  V30 BEGIN CTAB
M  V30 COUNTS 53 57 0 0 1
M  V30 BEGIN ATOM
M  V30 1 O 10.890163 10.432249 -6.157096 0
M  V30 2 C 11.175698 9.254421 -5.942249 0
M  V30 3 C 11.621171 8.816580 -4.564672 0
M  V30 4 N 11.879275 9.766911 -3.638936 0
M  V30 5 C 12.294255 9.372467 -2.415483 0
M  V30 6 C 12.483189 8.036292 -2.040273 0
M  V30 7 C 12.154672 7.043139 -2.972531 0
M  V30 8 C 11.714068 7.444766 -4.247475 0
M  V30 9 C 11.312960 6.413785 -5.256532 0
M  V30 10 C 11.472784 6.889416 -6.697436 0
M  V30 11 N 11.124986 8.302729 -6.910140 0
M  V30 12 C 10.743139 8.579604 -8.300892 0
M  V30 13 C 9.224079 8.372934 -8.509845 0
M  V30 14 N 8.886147 7.471931 -9.642363 0 CFG=2 CHG=1
M  V30 15 C 9.341686 6.075771 -9.446784 0
M  V30 16 C 8.756391 5.137334 -10.492799 0
M  V30 17 C 9.019503 5.629068 -11.919303 0 CFG=1
M  V30 18 C 8.446746 4.660900 -12.926432 0
M  V30 19 N 7.129866 4.459673 -13.000822 0
M  V30 20 O 6.909760 3.408343 -13.933221 0
M  V30 21 C 8.123675 2.972255 -14.437963 0
M  V30 22 C 8.440004 1.959435 -15.355975 0
M  V30 23 C 9.802333 1.752473 -15.661038 0
M  V30 24 C 10.799126 2.554232 -15.053626 0
M  V30 25 C 10.451943 3.565032 -14.128328 0
M  V30 26 F 11.417966 4.321745 -13.556793 0
M  V30 27 C 9.088078 3.771375 -13.819135 0
M  V30 28 C 8.484880 7.063323 -12.047378 0
M  V30 29 C 9.149559 7.991629 -11.006618 0
M  V30 30 H 12.484027 10.157290 -1.702952 0
M  V30 31 H 12.834750 7.787308 -1.050278 0
M  V30 32 H 12.241821 5.997473 -2.714308 0
M  V30 33 H 11.921072 5.528840 -5.106072 0
M  V30 34 H 10.268660 6.172289 -5.060539 0
M  V30 35 H 12.485553 6.715100 -7.047172 0
M  V30 36 H 10.863590 6.232915 -7.308605 0
M  V30 37 H 11.012487 9.600062 -8.575930 0
M  V30 38 H 11.344234 7.964211 -8.970796 0
M  V30 39 H 8.757172 7.966059 -7.610615 0
M  V30 40 H 8.739511 9.337473 -8.667568 0
M  V30 41 H 10.428917 6.017251 -9.501987 0
M  V30 42 H 9.035713 5.725218 -8.460416 0
M  V30 43 H 9.224240 4.171376 -10.358780 0
M  V30 44 H 7.686152 5.012091 -10.321427 0
M  V30 45 H 10.098449 5.675766 -12.061090 0
M  V30 46 H 7.665352 1.356336 -15.806522 0
M  V30 47 H 10.084929 0.979857 -16.361704 0
M  V30 48 H 11.838223 2.388072 -15.299479 0
M  V30 49 H 8.629291 7.448067 -13.046422 0
M  V30 50 H 7.404290 7.042704 -11.905905 0
M  V30 51 H 8.730396 8.993880 -11.097149 0
M  V30 52 H 10.221436 8.070112 -11.186178 0
M  V30 53 H 7.861072 7.432813 -9.644918 0
M  V30 END ATOM
M  V30 BEGIN BOND
M  V30 1 2 2 1
M  V30 2 1 3 2
M  V30 3 2 4 3
M  V30 4 1 5 4
M  V30 5 2 6 5
M  V30 6 1 7 6
M  V30 7 1 8 3
M  V30 8 2 8 7
M  V30 9 1 9 8
M  V30 10 1 10 9
M  V30 11 1 11 2
M  V30 12 1 11 10
M  V30 13 1 12 11
M  V30 14 1 13 12
M  V30 15 1 14 13
M  V30 16 1 15 14
M  V30 17 1 16 15
M  V30 18 1 17 16
M  V30 19 1 18 17
M  V30 20 2 19 18
M  V30 21 1 20 19
M  V30 22 1 21 20
M  V30 23 2 22 21
M  V30 24 1 23 22
M  V30 25 2 24 23
M  V30 26 1 25 24
M  V30 27 1 26 25
M  V30 28 1 27 18
M  V30 29 1 27 21
M  V30 30 2 27 25
M  V30 31 1 28 17
M  V30 32 1 29 14
M  V30 33 1 29 28
M  V30 34 1 30 5
M  V30 35 1 31 6
M  V30 36 1 32 7
M  V30 37 1 33 9
M  V30 38 1 34 9
M  V30 39 1 35 10
M  V30 40 1 36 10
M  V30 41 1 37 12
M  V30 42 1 38 12
M  V30 43 1 39 13
M  V30 44 1 40 13
M  V30 45 1 41 15
M  V30 46 1 42 15
M  V30 47 1 43 16
M  V30 48 1 44 16
M  V30 49 1 17 45 CFG=3
M  V30 50 1 46 22
M  V30 51 1 47 23
M  V30 52 1 48 24
M  V30 53 1 49 28
M  V30 54 1 50 28
M  V30 55 1 51 29
M  V30 56 1 52 29
M  V30 57 1 14 53 CFG=3
M  V30 END BOND
M  V30 END CTAB
M  END
>  <b_m_subgroup_collapsed>  (41) 
0

>  <r_i_docking_score>  (41) 
-9.5302748306896206

>  <s_m_subgroup_title>  (41) 
glide-dock_SP_D22_pv

>  <s_m_subgroupid>  (41) 
glide-dock_SP_D22_pv

>  <Molecule ChEMBL ID>  (41) 
CHEMBL5992622

>  <Standard Type>  (41) 
Ki

>  <Standard Value>  (41) 
10000.0

>  <label>  (41) 
0

$$$$
CHEMBL147159
     RDKit          3D

  0  0  0  0  0  0  0  0  0  0999 V3000
M  V30 BEGIN CTAB
M  V30 COUNTS 55 58 0 0 1
M  V30 BEGIN ATOM
M  V30 1 O 12.986010 8.972231 -1.446632 0
M  V30 2 C 12.409331 8.703422 -2.648493 0
M  V30 3 C 11.926755 9.760030 -3.438649 0
M  V30 4 C 11.383569 9.511528 -4.713576 0
M  V30 5 C 11.284002 8.184305 -5.186394 0
M  V30 6 C 10.685213 7.878695 -6.504878 0
M  V30 7 C 10.719529 8.735845 -7.546968 0
M  V30 8 C 10.067201 8.469217 -8.903316 0
M  V30 9 N 9.661757 7.044950 -9.066396 0 CFG=2 CHG=1
M  V30 10 C 8.886219 6.772184 -10.304377 0
M  V30 11 C 9.684132 6.007091 -11.368896 0 CFG=2
M  V30 12 C 10.596381 6.922223 -12.207646 0
M  V30 13 C 11.344175 6.174971 -13.333618 0
M  V30 14 C 10.594602 4.974006 -13.887079 0
M  V30 15 C 9.397775 4.536100 -13.442645 0
M  V30 16 C 8.769930 3.306195 -13.974344 0
M  V30 17 C 7.364866 3.172005 -13.911678 0
M  V30 18 C 6.748970 1.978523 -14.325783 0
M  V30 19 C 7.519044 0.919133 -14.834941 0
M  V30 20 O 6.895901 -0.227763 -15.228212 0
M  V30 21 C 8.917395 1.052890 -14.930265 0
M  V30 22 C 9.541587 2.242887 -14.502576 0
M  V30 23 C 8.713025 5.255210 -12.289109 0
M  V30 24 C 8.979401 6.542718 -7.852959 0
M  V30 25 C 9.933592 6.572503 -6.660193 0
M  V30 26 C 11.714327 7.120281 -4.358108 0
M  V30 27 C 12.285733 7.378337 -3.098539 0
M  V30 28 H 13.258898 9.882711 -1.374197 0
M  V30 29 H 11.968601 10.764369 -3.047919 0
M  V30 30 H 11.023577 10.343471 -5.300299 0
M  V30 31 H 11.218190 9.689133 -7.451307 0
M  V30 32 H 9.196142 9.120000 -8.993096 0
M  V30 33 H 10.763304 8.747112 -9.695028 0
M  V30 34 H 8.007895 6.173556 -10.048412 0
M  V30 35 H 8.486509 7.693966 -10.729521 0
M  V30 36 H 10.276340 5.251503 -10.860850 0
M  V30 37 H 9.983316 7.709630 -12.646308 0
M  V30 38 H 11.322583 7.429380 -11.572768 0
M  V30 39 H 12.306600 5.813478 -12.974863 0
M  V30 40 H 11.570910 6.862679 -14.148820 0
M  V30 41 H 11.099933 4.457178 -14.689384 0
M  V30 42 H 6.746034 3.968061 -13.524194 0
M  V30 43 H 5.679333 1.874274 -14.246382 0
M  V30 44 H 7.471833 -0.949757 -15.447889 0
M  V30 45 H 9.517361 0.240866 -15.314552 0
M  V30 46 H 10.618085 2.307464 -14.549512 0
M  V30 47 H 8.203485 4.509857 -11.676199 0
M  V30 48 H 7.941782 5.915911 -12.688609 0
M  V30 49 H 8.101284 7.154898 -7.640909 0
M  V30 50 H 8.625247 5.521185 -8.001583 0
M  V30 51 H 10.667182 5.772921 -6.743577 0
M  V30 52 H 9.348261 6.387357 -5.759513 0
M  V30 53 H 11.636673 6.093156 -4.681658 0
M  V30 54 H 12.632413 6.558822 -2.485175 0
M  V30 55 H 10.510517 6.504513 -9.142286 0
M  V30 END ATOM
M  V30 BEGIN BOND
M  V30 1 1 2 1
M  V30 2 1 3 2
M  V30 3 2 4 3
M  V30 4 1 5 4
M  V30 5 1 6 5
M  V30 6 2 7 6
M  V30 7 1 8 7
M  V30 8 1 9 8
M  V30 9 1 10 9
M  V30 10 1 11 10
M  V30 11 1 12 11
M  V30 12 1 13 12
M  V30 13 1 14 13
M  V30 14 2 15 14
M  V30 15 1 16 15
M  V30 16 1 17 16
M  V30 17 2 18 17
M  V30 18 1 19 18
M  V30 19 1 20 19
M  V30 20 2 21 19
M  V30 21 2 22 16
M  V30 22 1 22 21
M  V30 23 1 23 11
M  V30 24 1 23 15
M  V30 25 1 24 9
M  V30 26 1 25 6
M  V30 27 1 25 24
M  V30 28 2 26 5
M  V30 29 2 27 2
M  V30 30 1 27 26
M  V30 31 1 28 1
M  V30 32 1 29 3
M  V30 33 1 30 4
M  V30 34 1 31 7
M  V30 35 1 32 8
M  V30 36 1 33 8
M  V30 37 1 34 10
M  V30 38 1 35 10
M  V30 39 1 11 36 CFG=1
M  V30 40 1 37 12
M  V30 41 1 38 12
M  V30 42 1 39 13
M  V30 43 1 40 13
M  V30 44 1 41 14
M  V30 45 1 42 17
M  V30 46 1 43 18
M  V30 47 1 44 20
M  V30 48 1 45 21
M  V30 49 1 46 22
M  V30 50 1 47 23
M  V30 51 1 48 23
M  V30 52 1 49 24
M  V30 53 1 50 24
M  V30 54 1 51 25
M  V30 55 1 52 25
M  V30 56 1 53 26
M  V30 57 1 54 27
M  V30 58 1 9 55 CFG=3
M  V30 END BOND
M  V30 END CTAB
M  END
>  <b_m_subgroup_collapsed>  (42) 
0

>  <r_i_docking_score>  (42) 
-9.52719997900825

>  <s_m_subgroup_title>  (42) 
glide-dock_SP_D22_pv

>  <s_m_subgroupid>  (42) 
glide-dock_SP_D22_pv

>  <Molecule ChEMBL ID>  (42) 
CHEMBL147159

>  <Standard Type>  (42) 
Ki

>  <Standard Value>  (42) 
2.2

>  <label>  (42) 
1

$$$$
CHEMBL5089348
     RDKit          3D

  0  0  0  0  0  0  0  0  0  0999 V3000
M  V30 BEGIN CTAB
M  V30 COUNTS 55 58 0 0 1
M  V30 BEGIN ATOM
M  V30 1 O 10.703093 3.386286 -14.782122 0
M  V30 2 S 9.475723 3.918595 -14.169649 0
M  V30 3 O 8.886213 5.175026 -14.650706 0
M  V30 4 C 9.768422 4.081859 -12.372342 0
M  V30 5 C 8.788902 5.076970 -11.716559 0 CFG=2
M  V30 6 C 9.243421 6.544170 -11.781907 0
M  V30 7 C 9.429467 6.954687 -10.321020 0
M  V30 8 N 8.486041 6.105643 -9.569077 0 CFG=2 CHG=1
M  V30 9 C 8.648109 6.007245 -8.094978 0
M  V30 10 C 9.045393 7.308963 -7.380321 0
M  V30 11 C 10.570046 7.534668 -7.341270 0
M  V30 12 C 10.962648 8.460179 -6.238533 0
M  V30 13 N 10.885967 9.773571 -6.409366 0
M  V30 14 O 11.285328 10.379889 -5.187905 0
M  V30 15 C 11.631123 9.395430 -4.278725 0
M  V30 16 C 12.085793 9.466962 -2.959279 0
M  V30 17 C 12.382251 8.257151 -2.301213 0
M  V30 18 F 12.884631 8.286637 -1.049202 0
M  V30 19 C 12.170317 7.017125 -2.948570 0
M  V30 20 C 11.686015 6.971801 -4.274137 0
M  V30 21 C 11.424319 8.188881 -4.941048 0
M  V30 22 C 8.565004 4.792152 -10.230880 0
M  V30 23 C 8.210895 2.660673 -14.256615 0
M  V30 24 C 6.890636 2.965354 -13.866121 0
M  V30 25 C 5.923404 1.945567 -13.846783 0
M  V30 26 C 6.244947 0.646337 -14.294250 0
M  V30 27 C 5.161587 -0.412109 -14.389847 0
M  V30 28 F 5.685621 -1.627181 -14.247562 0
M  V30 29 F 4.237956 -0.228473 -13.447323 0
M  V30 30 F 4.574890 -0.335893 -15.582543 0
M  V30 31 C 7.567136 0.357784 -14.691970 0
M  V30 32 C 8.555498 1.354588 -14.651720 0
M  V30 33 H 9.688766 3.079996 -11.949049 0
M  V30 34 H 10.800457 4.396444 -12.247248 0
M  V30 35 H 7.815368 5.019140 -12.195105 0
M  V30 36 H 10.151132 6.694847 -12.368223 0
M  V30 37 H 8.459093 7.148070 -12.239548 0
M  V30 38 H 10.453066 6.721113 -10.027492 0
M  V30 39 H 9.243378 8.018038 -10.165384 0
M  V30 40 H 7.691034 5.662921 -7.698651 0
M  V30 41 H 9.364917 5.225687 -7.839124 0
M  V30 42 H 8.510633 8.174837 -7.774441 0
M  V30 43 H 8.696128 7.211071 -6.350865 0
M  V30 44 H 11.089017 6.586740 -7.206402 0
M  V30 45 H 10.928301 7.944256 -8.284660 0
M  V30 46 H 12.222761 10.419794 -2.473792 0
M  V30 47 H 12.386091 6.095464 -2.425847 0
M  V30 48 H 11.530547 6.024348 -4.765704 0
M  V30 49 H 7.686305 4.176594 -10.051565 0
M  V30 50 H 9.422714 4.242863 -9.839282 0
M  V30 51 H 6.607857 3.965442 -13.581529 0
M  V30 52 H 4.915037 2.180473 -13.539499 0
M  V30 53 H 7.823750 -0.627371 -15.045251 0
M  V30 54 H 9.570623 1.118007 -14.939654 0
M  V30 55 H 7.568490 6.518348 -9.752046 0
M  V30 END ATOM
M  V30 BEGIN BOND
M  V30 1 2 2 1
M  V30 2 2 3 2
M  V30 3 1 4 2
M  V30 4 1 5 4
M  V30 5 1 6 5
M  V30 6 1 7 6
M  V30 7 1 8 7
M  V30 8 1 9 8
M  V30 9 1 10 9
M  V30 10 1 11 10
M  V30 11 1 12 11
M  V30 12 2 13 12
M  V30 13 1 14 13
M  V30 14 1 15 14
M  V30 15 1 16 15
M  V30 16 2 17 16
M  V30 17 1 18 17
M  V30 18 1 19 17
M  V30 19 2 20 19
M  V30 20 1 21 12
M  V30 21 2 21 15
M  V30 22 1 21 20
M  V30 23 1 22 5
M  V30 24 1 22 8
M  V30 25 1 23 2
M  V30 26 1 24 23
M  V30 27 2 25 24
M  V30 28 1 26 25
M  V30 29 1 27 26
M  V30 30 1 28 27
M  V30 31 1 29 27
M  V30 32 1 30 27
M  V30 33 2 31 26
M  V30 34 2 32 23
M  V30 35 1 32 31
M  V30 36 1 33 4
M  V30 37 1 34 4
M  V30 38 1 5 35 CFG=3
M  V30 39 1 36 6
M  V30 40 1 37 6
M  V30 41 1 38 7
M  V30 42 1 39 7
M  V30 43 1 40 9
M  V30 44 1 41 9
M  V30 45 1 42 10
M  V30 46 1 43 10
M  V30 47 1 44 11
M  V30 48 1 45 11
M  V30 49 1 46 16
M  V30 50 1 47 19
M  V30 51 1 48 20
M  V30 52 1 49 22
M  V30 53 1 50 22
M  V30 54 1 51 24
M  V30 55 1 52 25
M  V30 56 1 53 31
M  V30 57 1 54 32
M  V30 58 1 8 55 CFG=1
M  V30 END BOND
M  V30 END CTAB
M  END
>  <b_m_subgroup_collapsed>  (43) 
0

>  <r_i_docking_score>  (43) 
-9.5063899000544296

>  <s_m_subgroup_title>  (43) 
glide-dock_SP_D22_pv

>  <s_m_subgroupid>  (43) 
glide-dock_SP_D22_pv

>  <Molecule ChEMBL ID>  (43) 
CHEMBL5089348

>  <Standard Type>  (43) 
Ki

>  <Standard Value>  (43) 
95.5

>  <label>  (43) 
1

$$$$
CHEMBL83617
     RDKit          3D

  0  0  0  0  0  0  0  0  0  0999 V3000
M  V30 BEGIN CTAB
M  V30 COUNTS 58 62 0 0 1
M  V30 BEGIN ATOM
M  V30 1 N 11.482728 1.592681 -16.996786 0
M  V30 2 C 10.597373 1.002675 -16.192122 0
M  V30 3 O 10.486023 -0.221036 -16.133013 0
M  V30 4 C 9.692630 1.913139 -15.410336 0
M  V30 5 C 10.098637 3.209852 -15.016076 0
M  V30 6 C 9.241056 4.032804 -14.255868 0
M  V30 7 C 7.974439 3.558228 -13.848002 0
M  V30 8 C 7.569580 2.262058 -14.246861 0
M  V30 9 C 8.422378 1.448663 -15.014202 0
M  V30 10 C 6.252149 1.686463 -13.760432 0
M  V30 11 C 5.346416 2.732959 -13.096037 0
M  V30 12 O 6.090423 3.617421 -12.280488 0
M  V30 13 C 6.993293 4.416738 -13.042559 0 CFG=1
M  V30 14 C 7.591554 5.470470 -12.087831 0
M  V30 15 C 8.301414 4.868869 -10.865391 0
M  V30 16 N 8.655786 5.884494 -9.840963 0 CFG=2 CHG=1
M  V30 17 C 9.752780 6.784093 -10.293653 0
M  V30 18 C 10.471663 7.515107 -9.165519 0
M  V30 19 C 10.271575 7.299239 -7.847836 0
M  V30 20 C 10.912513 8.178910 -6.842061 0
M  V30 21 C 11.288538 9.469306 -7.097313 0
M  V30 22 N 11.735547 10.038229 -5.921376 0
M  V30 23 C 11.747888 9.107200 -4.904304 0
M  V30 24 C 12.129508 9.215357 -3.557455 0
M  V30 25 C 12.101255 8.078024 -2.739927 0
M  V30 26 F 12.486009 8.172005 -1.447288 0
M  V30 27 C 11.689794 6.844015 -3.274370 0
M  V30 28 C 11.286720 6.744174 -4.624302 0
M  V30 29 C 11.281571 7.878999 -5.475222 0
M  V30 30 C 9.206131 6.300706 -7.439711 0
M  V30 31 C 8.930834 5.253588 -8.527815 0
M  V30 32 H 12.107327 1.018373 -17.543467 0
M  V30 33 H 11.528085 2.598638 -17.051872 0
M  V30 34 H 11.074321 3.586573 -15.283858 0
M  V30 35 H 9.574840 5.023062 -13.987324 0
M  V30 36 H 8.104136 0.449093 -15.283563 0
M  V30 37 H 6.485564 0.897808 -13.045411 0
M  V30 38 H 5.728361 1.204296 -14.586905 0
M  V30 39 H 4.549399 2.251552 -12.528175 0
M  V30 40 H 4.885632 3.353418 -13.852662 0
M  V30 41 H 6.413549 4.970045 -13.783482 0
M  V30 42 H 6.768385 6.092080 -11.732196 0
M  V30 43 H 8.248926 6.149996 -12.627815 0
M  V30 44 H 9.185772 4.305223 -11.167204 0
M  V30 45 H 7.633468 4.149491 -10.400388 0
M  V30 46 H 9.341732 7.525084 -10.981719 0
M  V30 47 H 10.486298 6.206833 -10.851247 0
M  V30 48 H 11.184301 8.258877 -9.491616 0
M  V30 49 H 11.261569 10.042500 -8.009216 0
M  V30 50 H 12.045094 10.997088 -5.851968 0
M  V30 51 H 12.465772 10.154934 -3.147638 0
M  V30 52 H 11.682867 5.966117 -2.645122 0
M  V30 53 H 10.987570 5.773409 -4.992806 0
M  V30 54 H 9.523501 5.774075 -6.548396 0
M  V30 55 H 8.294667 6.841240 -7.176161 0
M  V30 56 H 9.791217 4.588711 -8.624711 0
M  V30 57 H 8.086500 4.633409 -8.223877 0
M  V30 58 H 7.833893 6.472923 -9.710190 0
M  V30 END ATOM
M  V30 BEGIN BOND
M  V30 1 1 2 1
M  V30 2 2 3 2
M  V30 3 1 4 2
M  V30 4 1 5 4
M  V30 5 2 6 5
M  V30 6 1 7 6
M  V30 7 2 8 7
M  V30 8 2 9 4
M  V30 9 1 9 8
M  V30 10 1 10 8
M  V30 11 1 11 10
M  V30 12 1 12 11
M  V30 13 1 13 7
M  V30 14 1 13 12
M  V30 15 1 14 13
M  V30 16 1 15 14
M  V30 17 1 16 15
M  V30 18 1 17 16
M  V30 19 1 18 17
M  V30 20 2 19 18
M  V30 21 1 20 19
M  V30 22 2 21 20
M  V30 23 1 22 21
M  V30 24 1 23 22
M  V30 25 1 24 23
M  V30 26 2 25 24
M  V30 27 1 26 25
M  V30 28 1 27 25
M  V30 29 2 28 27
M  V30 30 1 29 20
M  V30 31 2 29 23
M  V30 32 1 29 28
M  V30 33 1 30 19
M  V30 34 1 31 16
M  V30 35 1 31 30
M  V30 36 1 32 1
M  V30 37 1 33 1
M  V30 38 1 34 5
M  V30 39 1 35 6
M  V30 40 1 36 9
M  V30 41 1 37 10
M  V30 42 1 38 10
M  V30 43 1 39 11
M  V30 44 1 40 11
M  V30 45 1 13 41 CFG=3
M  V30 46 1 42 14
M  V30 47 1 43 14
M  V30 48 1 44 15
M  V30 49 1 45 15
M  V30 50 1 46 17
M  V30 51 1 47 17
M  V30 52 1 48 18
M  V30 53 1 49 21
M  V30 54 1 50 22
M  V30 55 1 51 24
M  V30 56 1 52 27
M  V30 57 1 53 28
M  V30 58 1 54 30
M  V30 59 1 55 30
M  V30 60 1 56 31
M  V30 61 1 57 31
M  V30 62 1 16 58 CFG=1
M  V30 END BOND
M  V30 END CTAB
M  END
>  <b_m_subgroup_collapsed>  (44) 
0

>  <r_i_docking_score>  (44) 
-9.4985485353345993

>  <s_m_subgroup_title>  (44) 
glide-dock_SP_D22_pv

>  <s_m_subgroupid>  (44) 
glide-dock_SP_D22_pv

>  <Molecule ChEMBL ID>  (44) 
CHEMBL83617

>  <Standard Type>  (44) 
Ki

>  <Standard Value>  (44) 
4.7

>  <label>  (44) 
1

$$$$
CHEMBL4777080
     RDKit          3D

  0  0  0  0  0  0  0  0  0  0999 V3000
M  V30 BEGIN CTAB
M  V30 COUNTS 63 66 0 0 1
M  V30 BEGIN ATOM
M  V30 1 O 11.286324 9.593333 -7.456654 0
M  V30 2 C 11.077643 8.471273 -6.999494 0
M  V30 3 C 11.284922 8.299369 -5.507180 0
M  V30 4 C 11.286119 9.461568 -4.698263 0
M  V30 5 C 11.684994 9.415606 -3.350294 0
M  V30 6 C 12.086427 8.199066 -2.776043 0
M  V30 7 F 12.493565 8.167672 -1.485831 0
M  V30 8 C 12.071821 7.026052 -3.550594 0
M  V30 9 C 11.685954 7.076816 -4.906721 0
M  V30 10 N 10.757708 7.437400 -7.822974 0
M  V30 11 C 10.093796 6.179254 -7.457633 0
M  V30 12 C 8.848519 5.923802 -8.329732 0
M  V30 13 C 9.176468 6.011080 -9.830202 0
M  V30 14 N 7.984673 5.771943 -10.667822 0 CHG=1
M  V30 15 C 8.202949 5.699815 -12.133407 0
M  V30 16 C 9.149842 4.561572 -12.552414 0
M  V30 17 S 9.212331 4.498339 -14.406887 0
M  V30 18 O 10.565434 5.084484 -14.810677 0
M  V30 19 C 9.310081 2.645508 -14.632248 0
M  V30 20 C 9.848168 2.306179 -16.020645 0
M  V30 21 C 10.878848 1.350717 -16.149342 0
M  V30 22 C 11.382093 1.003943 -17.417879 0
M  V30 23 C 10.853654 1.608826 -18.572659 0
M  V30 24 F 11.336124 1.275753 -19.792973 0
M  V30 25 C 9.819335 2.556573 -18.456728 0
M  V30 26 C 9.315520 2.900509 -17.187323 0
M  V30 27 C 7.993206 1.918012 -14.331908 0
M  V30 28 C 7.956120 0.508288 -14.451696 0
M  V30 29 C 6.786444 -0.215174 -14.149549 0
M  V30 30 C 5.642169 0.462881 -13.696255 0
M  V30 31 F 4.505140 -0.220279 -13.428961 0
M  V30 32 C 5.677013 1.858380 -13.534398 0
M  V30 33 C 6.823905 2.587116 -13.892104 0
M  V30 34 C 9.811460 7.382377 -10.113053 0
M  V30 35 C 11.072259 7.504134 -9.262690 0
M  V30 36 H 11.017422 10.421927 -5.117062 0
M  V30 37 H 11.698270 10.319734 -2.759130 0
M  V30 38 H 12.387054 6.090006 -3.112178 0
M  V30 39 H 11.772286 6.168880 -5.483981 0
M  V30 40 H 10.813221 5.376447 -7.613404 0
M  V30 41 H 9.772530 6.167937 -6.417168 0
M  V30 42 H 8.419281 4.949690 -8.088305 0
M  V30 43 H 8.097674 6.666920 -8.071438 0
M  V30 44 H 9.898396 5.222385 -10.040661 0
M  V30 45 H 7.501692 4.944132 -10.347017 0
M  V30 46 H 7.225415 5.552688 -12.590553 0
M  V30 47 H 8.559442 6.656704 -12.512070 0
M  V30 48 H 10.164519 4.699435 -12.183891 0
M  V30 49 H 8.784106 3.620414 -12.157048 0
M  V30 50 H 10.042431 2.294725 -13.902802 0
M  V30 51 H 11.279128 0.870621 -15.268850 0
M  V30 52 H 12.173217 0.273591 -17.505888 0
M  V30 53 H 9.412928 3.017688 -19.344498 0
M  V30 54 H 8.515088 3.619667 -17.122183 0
M  V30 55 H 8.830330 -0.036665 -14.776173 0
M  V30 56 H 6.769415 -1.289143 -14.261117 0
M  V30 57 H 4.796509 2.376209 -13.180813 0
M  V30 58 H 6.777969 3.658244 -13.792200 0
M  V30 59 H 10.094765 7.481159 -11.160102 0
M  V30 60 H 9.113925 8.192249 -9.890594 0
M  V30 61 H 11.635908 8.394412 -9.548086 0
M  V30 62 H 11.686024 6.648200 -9.537366 0
M  V30 63 H 7.363173 6.577438 -10.498374 0
M  V30 END ATOM
M  V30 BEGIN BOND
M  V30 1 2 2 1
M  V30 2 1 3 2
M  V30 3 2 4 3
M  V30 4 1 5 4
M  V30 5 2 6 5
M  V30 6 1 7 6
M  V30 7 1 8 6
M  V30 8 1 9 3
M  V30 9 2 9 8
M  V30 10 1 10 2
M  V30 11 1 11 10
M  V30 12 1 12 11
M  V30 13 1 13 12
M  V30 14 1 14 13
M  V30 15 1 15 14
M  V30 16 1 16 15
M  V30 17 1 17 16 CFG=1
M  V30 18 2 18 17
M  V30 19 1 19 17
M  V30 20 1 20 19
M  V30 21 2 21 20
M  V30 22 1 22 21
M  V30 23 2 23 22
M  V30 24 1 24 23
M  V30 25 1 25 23
M  V30 26 1 26 20
M  V30 27 2 26 25
M  V30 28 1 27 19
M  V30 29 2 28 27
M  V30 30 1 29 28
M  V30 31 2 30 29
M  V30 32 1 31 30
M  V30 33 1 32 30
M  V30 34 1 33 27
M  V30 35 2 33 32
M  V30 36 1 34 13
M  V30 37 1 35 10
M  V30 38 1 35 34
M  V30 39 1 36 4
M  V30 40 1 37 5
M  V30 41 1 38 8
M  V30 42 1 39 9
M  V30 43 1 40 11
M  V30 44 1 41 11
M  V30 45 1 42 12
M  V30 46 1 43 12
M  V30 47 1 44 13
M  V30 48 1 45 14
M  V30 49 1 46 15
M  V30 50 1 47 15
M  V30 51 1 48 16
M  V30 52 1 49 16
M  V30 53 1 50 19
M  V30 54 1 51 21
M  V30 55 1 52 22
M  V30 56 1 53 25
M  V30 57 1 54 26
M  V30 58 1 55 28
M  V30 59 1 56 29
M  V30 60 1 57 32
M  V30 61 1 58 33
M  V30 62 1 59 34
M  V30 63 1 60 34
M  V30 64 1 61 35
M  V30 65 1 62 35
M  V30 66 1 63 14
M  V30 END BOND
M  V30 END CTAB
M  END
>  <b_m_subgroup_collapsed>  (45) 
0

>  <r_i_docking_score>  (45) 
-9.4982562104811805

>  <s_m_subgroup_title>  (45) 
glide-dock_SP_D22_pv

>  <s_m_subgroupid>  (45) 
glide-dock_SP_D22_pv

>  <Molecule ChEMBL ID>  (45) 
CHEMBL4777080

>  <Standard Type>  (45) 
Ki

>  <Standard Value>  (45) 
156000.0

>  <label>  (45) 
0

$$$$
CHEMBL106660
     RDKit          3D

  0  0  0  0  0  0  0  0  0  0999 V3000
M  V30 BEGIN CTAB
M  V30 COUNTS 65 69 0 0 1
M  V30 BEGIN ATOM
M  V30 1 Cl 10.086001 -0.012260 -15.506246 0
M  V30 2 C 9.213923 1.327834 -14.857751 0
M  V30 3 C 7.807760 1.291058 -14.773643 0
M  V30 4 C 7.108519 2.401691 -14.263887 0
M  V30 5 C 7.812690 3.550546 -13.846662 0
M  V30 6 C 9.223126 3.588344 -13.925760 0
M  V30 7 C 10.012039 4.814328 -13.485993 0 CFG=2
M  V30 8 O 9.169787 5.824026 -12.923423 0
M  V30 9 C 9.765449 6.573961 -11.866475 0 CFG=1
M  V30 10 C 9.132074 7.978797 -11.734302 0
M  V30 11 C 9.527091 8.671819 -10.389072 0 CFG=2
M  V30 12 C 11.058613 8.793892 -10.249018 0
M  V30 13 C 11.486093 7.445564 -9.665403 0
M  V30 14 C 10.151906 6.714707 -9.352945 0 CFG=2
M  V30 15 C 9.635640 5.830348 -10.517410 0
M  V30 16 N 9.174542 7.817305 -9.232957 0 CFG=1 CHG=1
M  V30 17 C 9.112034 8.579981 -7.945480 0
M  V30 18 C 9.521280 7.841732 -6.649216 0
M  V30 19 C 11.046353 7.826739 -6.386000 0
M  V30 20 C 11.449368 7.965939 -4.932418 0
M  V30 21 C 11.646214 9.248955 -4.380938 0
M  V30 22 C 12.061468 9.382832 -3.044118 0
M  V30 23 C 12.278357 8.243363 -2.248245 0
M  V30 24 C 12.086264 6.962307 -2.796436 0
M  V30 25 C 11.685333 6.824956 -4.138637 0
M  V30 26 C 10.904781 5.368325 -14.600814 0
M  V30 27 C 10.475641 5.371303 -15.946254 0
M  V30 28 C 11.302189 5.881020 -16.965223 0
M  V30 29 C 12.573464 6.394533 -16.649290 0
M  V30 30 C 13.017545 6.383615 -15.313901 0
M  V30 31 C 12.189724 5.868328 -14.297714 0
M  V30 32 C 9.916648 2.465239 -14.427439 0
M  V30 33 H 7.269238 0.412948 -15.101994 0
M  V30 34 H 6.032030 2.379057 -14.202613 0
M  V30 35 H 7.260137 4.395267 -13.463721 0
M  V30 36 H 10.672895 4.428518 -12.711056 0
M  V30 37 H 10.811830 6.724628 -12.116089 0
M  V30 38 H 8.051158 7.902665 -11.840436 0
M  V30 39 H 9.448339 8.596028 -12.574698 0
M  V30 40 H 9.020110 9.634743 -10.312173 0
M  V30 41 H 11.576766 8.972414 -11.180095 0
M  V30 42 H 11.334536 9.606443 -9.574447 0
M  V30 43 H 12.131597 6.940946 -10.373291 0
M  V30 44 H 12.106166 7.601168 -8.786298 0
M  V30 45 H 10.209621 6.091988 -8.461931 0
M  V30 46 H 10.115413 4.858366 -10.537764 0
M  V30 47 H 8.583522 5.594409 -10.344620 0
M  V30 48 H 8.085903 8.937634 -7.839638 0
M  V30 49 H 9.701920 9.490865 -8.007656 0
M  V30 50 H 9.077606 6.847353 -6.568249 0
M  V30 51 H 9.066842 8.419855 -5.846961 0
M  V30 52 H 11.529802 8.646564 -6.916923 0
M  V30 53 H 11.484318 6.903949 -6.765822 0
M  V30 54 H 11.482766 10.133410 -4.979276 0
M  V30 55 H 12.197891 10.367934 -2.622541 0
M  V30 56 H 12.585085 8.356378 -1.218953 0
M  V30 57 H 12.254154 6.081797 -2.190628 0
M  V30 58 H 11.546918 5.837568 -4.554257 0
M  V30 59 H 9.497622 4.997232 -16.205666 0
M  V30 60 H 10.956855 5.891243 -17.989462 0
M  V30 61 H 13.207311 6.794238 -17.427862 0
M  V30 62 H 13.999067 6.766417 -15.067529 0
M  V30 63 H 12.554625 5.855225 -13.282967 0
M  V30 64 H 10.995283 2.479246 -14.490367 0
M  V30 65 H 8.239260 7.448694 -9.392337 0
M  V30 END ATOM
M  V30 BEGIN BOND
M  V30 1 1 2 1
M  V30 2 1 3 2
M  V30 3 2 4 3
M  V30 4 1 5 4
M  V30 5 2 6 5
M  V30 6 1 7 6
M  V30 7 1 8 7
M  V30 8 1 9 8
M  V30 9 1 10 9
M  V30 10 1 11 10
M  V30 11 1 12 11
M  V30 12 1 13 12
M  V30 13 1 14 13
M  V30 14 1 15 9
M  V30 15 1 15 14
M  V30 16 1 16 11
M  V30 17 1 16 14
M  V30 18 1 17 16
M  V30 19 1 18 17
M  V30 20 1 19 18
M  V30 21 1 20 19
M  V30 22 2 21 20
M  V30 23 1 22 21
M  V30 24 2 23 22
M  V30 25 1 24 23
M  V30 26 1 25 20
M  V30 27 2 25 24
M  V30 28 1 26 7
M  V30 29 2 27 26
M  V30 30 1 28 27
M  V30 31 2 29 28
M  V30 32 1 30 29
M  V30 33 1 31 26
M  V30 34 2 31 30
M  V30 35 2 32 2
M  V30 36 1 32 6
M  V30 37 1 33 3
M  V30 38 1 34 4
M  V30 39 1 35 5
M  V30 40 1 7 36 CFG=1
M  V30 41 1 9 37 CFG=3
M  V30 42 1 38 10
M  V30 43 1 39 10
M  V30 44 1 11 40 CFG=1
M  V30 45 1 41 12
M  V30 46 1 42 12
M  V30 47 1 43 13
M  V30 48 1 44 13
M  V30 49 1 14 45 CFG=1
M  V30 50 1 46 15
M  V30 51 1 47 15
M  V30 52 1 48 17
M  V30 53 1 49 17
M  V30 54 1 50 18
M  V30 55 1 51 18
M  V30 56 1 52 19
M  V30 57 1 53 19
M  V30 58 1 54 21
M  V30 59 1 55 22
M  V30 60 1 56 23
M  V30 61 1 57 24
M  V30 62 1 58 25
M  V30 63 1 59 27
M  V30 64 1 60 28
M  V30 65 1 61 29
M  V30 66 1 62 30
M  V30 67 1 63 31
M  V30 68 1 64 32
M  V30 69 1 16 65 CFG=3
M  V30 END BOND
M  V30 END CTAB
M  END
>  <b_m_subgroup_collapsed>  (46) 
0

>  <r_i_docking_score>  (46) 
-9.4965867798605501

>  <s_m_subgroup_title>  (46) 
glide-dock_SP_D22_pv

>  <s_m_subgroupid>  (46) 
glide-dock_SP_D22_pv

>  <Molecule ChEMBL ID>  (46) 
CHEMBL106660

>  <Standard Type>  (46) 
Ki

>  <Standard Value>  (46) 
59.0

>  <label>  (46) 
1

$$$$
CHEMBL2059312
     RDKit          3D

  0  0  0  0  0  0  0  0  0  0999 V3000
M  V30 BEGIN CTAB
M  V30 COUNTS 57 61 0 0 1
M  V30 BEGIN ATOM
M  V30 1 O 11.180873 9.293175 -8.289346 0
M  V30 2 C 11.256408 9.219898 -7.062829 0
M  V30 3 C 11.635707 10.453388 -6.230272 0
M  V30 4 C 11.012551 10.375163 -4.841109 0
M  V30 5 C 11.426156 9.085592 -4.190542 0
M  V30 6 C 11.863142 9.040565 -2.857306 0
M  V30 7 C 12.194381 7.803588 -2.285731 0
M  V30 8 C 12.088035 6.625124 -3.048952 0
M  V30 9 C 11.685997 6.677905 -4.401065 0
M  V30 10 C 11.369737 7.920857 -4.985105 0
M  V30 11 N 11.054845 8.079605 -6.367905 0
M  V30 12 O 10.807682 6.918166 -7.112070 0
M  V30 13 C 9.410878 6.760054 -7.339293 0
M  V30 14 C 9.213171 5.586802 -8.309040 0
M  V30 15 N 8.672476 5.962457 -9.643229 0 CFG=2 CHG=1
M  V30 16 C 8.289891 4.745763 -10.387789 0
M  V30 17 C 7.512080 5.116102 -11.646119 0
M  V30 18 C 8.407682 5.893588 -12.635640 0 CFG=2
M  V30 19 N 9.421116 5.037518 -13.314833 0
M  V30 20 C 10.764321 5.240262 -13.443891 0
M  V30 21 O 11.419024 6.201821 -13.050075 0
M  V30 22 N 11.304065 4.175287 -14.057475 0
M  V30 23 C 10.312579 3.265829 -14.391381 0
M  V30 24 C 10.403064 2.031010 -15.052353 0
M  V30 25 C 9.192310 1.345655 -15.296953 0
M  V30 26 C 7.951224 1.913209 -14.910255 0
M  V30 27 C 7.898871 3.162853 -14.247477 0
M  V30 28 C 9.117762 3.812955 -13.969362 0
M  V30 29 C 8.932369 7.140529 -11.859282 0
M  V30 30 C 9.562932 6.816062 -10.475450 0
M  V30 31 H 12.721732 10.514464 -6.162150 0
M  V30 32 H 11.286091 11.372967 -6.664891 0
M  V30 33 H 9.928052 10.396289 -4.914748 0
M  V30 34 H 11.285975 11.230042 -4.246952 0
M  V30 35 H 11.932172 9.943825 -2.267034 0
M  V30 36 H 12.532708 7.772521 -1.262685 0
M  V30 37 H 12.346882 5.681917 -2.596194 0
M  V30 38 H 11.652699 5.772485 -4.987011 0
M  V30 39 H 8.927051 6.544905 -6.384837 0
M  V30 40 H 8.943377 7.668587 -7.723339 0
M  V30 41 H 10.136907 5.018163 -8.427677 0
M  V30 42 H 8.500360 4.904952 -7.846962 0
M  V30 43 H 9.182299 4.172432 -10.646424 0
M  V30 44 H 7.686449 4.097795 -9.759425 0
M  V30 45 H 7.072796 4.215769 -12.055968 0
M  V30 46 H 6.658894 5.739490 -11.372235 0
M  V30 47 H 7.772288 6.261456 -13.441191 0
M  V30 48 H 12.279781 4.056731 -14.282881 0
M  V30 49 H 11.352804 1.624603 -15.366755 0
M  V30 50 H 9.210028 0.389940 -15.800081 0
M  V30 51 H 7.033432 1.387857 -15.130191 0
M  V30 52 H 6.941436 3.594924 -14.006824 0
M  V30 53 H 9.610823 7.739624 -12.463200 0
M  V30 54 H 8.086092 7.806422 -11.693228 0
M  V30 55 H 9.772091 7.749174 -9.953087 0
M  V30 56 H 10.519263 6.310722 -10.602650 0
M  V30 57 H 7.819650 6.498068 -9.497178 0
M  V30 END ATOM
M  V30 BEGIN BOND
M  V30 1 2 2 1
M  V30 2 1 3 2
M  V30 3 1 4 3
M  V30 4 1 5 4
M  V30 5 2 6 5
M  V30 6 1 7 6
M  V30 7 2 8 7
M  V30 8 1 9 8
M  V30 9 1 10 5
M  V30 10 2 10 9
M  V30 11 1 11 2
M  V30 12 1 11 10
M  V30 13 1 12 11
M  V30 14 1 13 12
M  V30 15 1 14 13
M  V30 16 1 15 14
M  V30 17 1 16 15
M  V30 18 1 17 16
M  V30 19 1 18 17
M  V30 20 1 19 18
M  V30 21 1 20 19
M  V30 22 2 21 20
M  V30 23 1 22 20
M  V30 24 1 23 22
M  V30 25 2 24 23
M  V30 26 1 25 24
M  V30 27 2 26 25
M  V30 28 1 27 26
M  V30 29 1 28 19
M  V30 30 1 28 23
M  V30 31 2 28 27
M  V30 32 1 29 18
M  V30 33 1 30 15
M  V30 34 1 30 29
M  V30 35 1 31 3
M  V30 36 1 32 3
M  V30 37 1 33 4
M  V30 38 1 34 4
M  V30 39 1 35 6
M  V30 40 1 36 7
M  V30 41 1 37 8
M  V30 42 1 38 9
M  V30 43 1 39 13
M  V30 44 1 40 13
M  V30 45 1 41 14
M  V30 46 1 42 14
M  V30 47 1 43 16
M  V30 48 1 44 16
M  V30 49 1 45 17
M  V30 50 1 46 17
M  V30 51 1 18 47 CFG=3
M  V30 52 1 48 22
M  V30 53 1 49 24
M  V30 54 1 50 25
M  V30 55 1 51 26
M  V30 56 1 52 27
M  V30 57 1 53 29
M  V30 58 1 54 29
M  V30 59 1 55 30
M  V30 60 1 56 30
M  V30 61 1 15 57 CFG=1
M  V30 END BOND
M  V30 END CTAB
M  END
>  <b_m_subgroup_collapsed>  (47) 
0

>  <r_i_docking_score>  (47) 
-9.4922360519384306

>  <s_m_subgroup_title>  (47) 
glide-dock_SP_D22_pv

>  <s_m_subgroupid>  (47) 
glide-dock_SP_D22_pv

>  <Molecule ChEMBL ID>  (47) 
CHEMBL2059312

>  <Standard Type>  (47) 
Ki

>  <Standard Value>  (47) 
55.0

>  <label>  (47) 
1

$$$$
CHEMBL363829
     RDKit          3D

  0  0  0  0  0  0  0  0  0  0999 V3000
M  V30 BEGIN CTAB
M  V30 COUNTS 60 64 0 0 1
M  V30 BEGIN ATOM
M  V30 1 C 9.950283 1.133913 -14.947688 0
M  V30 2 C 9.214261 2.374735 -15.496595 0
M  V30 3 C 8.622107 2.025880 -16.880362 0
M  V30 4 C 10.226567 3.524618 -15.700723 0
M  V30 5 C 10.593239 4.209492 -14.384165 0
M  V30 6 N 9.408556 4.741405 -13.737003 0
M  V30 7 C 8.259294 3.937213 -13.669054 0
M  V30 8 C 7.239124 4.271737 -12.739457 0
M  V30 9 C 7.399203 5.433199 -11.768906 0
M  V30 10 C 8.223530 5.007589 -10.538907 0
M  V30 11 N 8.485959 6.133383 -9.605302 0 CHG=1
M  V30 12 C 8.610120 5.677350 -8.194036 0
M  V30 13 C 8.931350 6.833131 -7.227013 0
M  V30 14 N 10.101271 7.583541 -7.671189 0
M  V30 15 C 10.733752 8.438068 -6.731398 0
M  V30 16 N 10.908392 9.699792 -7.051576 0
M  V30 17 S 11.670869 10.533786 -5.846860 0
M  V30 18 C 11.754302 9.179357 -4.749475 0
M  V30 19 C 12.249089 9.129299 -3.434700 0
M  V30 20 C 12.260702 7.906326 -2.745869 0
M  V30 21 C 11.791181 6.747396 -3.387571 0
M  V30 22 C 11.286290 6.812791 -4.703217 0
M  V30 23 C 11.225137 8.033117 -5.419816 0
M  V30 24 C 9.950764 8.076025 -9.043126 0
M  V30 25 C 9.653458 6.942563 -10.029984 0
M  V30 26 C 6.081468 3.473242 -12.646585 0
M  V30 27 C 5.948859 2.327227 -13.446829 0
M  V30 28 F 4.869206 1.524313 -13.303985 0
M  V30 29 C 6.955732 1.990146 -14.366746 0
M  V30 30 C 8.115366 2.788882 -14.500138 0
M  V30 31 H 9.274410 0.287364 -14.822078 0
M  V30 32 H 10.750918 0.813848 -15.615497 0
M  V30 33 H 10.398033 1.335910 -13.974977 0
M  V30 34 H 7.961830 1.160063 -16.847929 0
M  V30 35 H 8.054852 2.860649 -17.291004 0
M  V30 36 H 9.412139 1.789508 -17.593962 0
M  V30 37 H 9.792728 4.282186 -16.356102 0
M  V30 38 H 11.123613 3.167640 -16.208574 0
M  V30 39 H 11.289854 5.027153 -14.570812 0
M  V30 40 H 11.094047 3.515985 -13.708627 0
M  V30 41 H 9.506088 5.543902 -13.133878 0
M  V30 42 H 7.846867 6.284515 -12.280740 0
M  V30 43 H 6.412177 5.771857 -11.450549 0
M  V30 44 H 7.686870 4.205916 -10.028457 0
M  V30 45 H 9.171185 4.562548 -10.846710 0
M  V30 46 H 7.686515 5.194281 -7.876113 0
M  V30 47 H 9.398892 4.926641 -8.133932 0
M  V30 48 H 8.086029 7.519726 -7.163643 0
M  V30 49 H 9.071907 6.437640 -6.223594 0
M  V30 50 H 12.623656 10.024391 -2.960832 0
M  V30 51 H 12.639383 7.856644 -1.735670 0
M  V30 52 H 11.809407 5.802358 -2.864158 0
M  V30 53 H 10.928411 5.907100 -5.165924 0
M  V30 54 H 9.147139 8.814061 -9.071112 0
M  V30 55 H 10.861619 8.584412 -9.363947 0
M  V30 56 H 10.530739 6.298817 -10.106617 0
M  V30 57 H 9.477948 7.362553 -11.020658 0
M  V30 58 H 5.311292 3.710695 -11.926892 0
M  V30 59 H 6.834059 1.092513 -14.953291 0
M  V30 60 H 7.664729 6.744512 -9.644582 0
M  V30 END ATOM
M  V30 BEGIN BOND
M  V30 1 1 2 1
M  V30 2 1 3 2
M  V30 3 1 4 2
M  V30 4 1 5 4
M  V30 5 1 6 5
M  V30 6 1 7 6
M  V30 7 2 8 7
M  V30 8 1 9 8
M  V30 9 1 10 9
M  V30 10 1 11 10
M  V30 11 1 12 11
M  V30 12 1 13 12
M  V30 13 1 14 13
M  V30 14 1 15 14
M  V30 15 2 16 15
M  V30 16 1 17 16
M  V30 17 1 18 17
M  V30 18 2 19 18
M  V30 19 1 20 19
M  V30 20 2 21 20
M  V30 21 1 22 21
M  V30 22 1 23 15
M  V30 23 1 23 18
M  V30 24 2 23 22
M  V30 25 1 24 14
M  V30 26 1 25 11
M  V30 27 1 25 24
M  V30 28 1 26 8
M  V30 29 2 27 26
M  V30 30 1 28 27
M  V30 31 1 29 27
M  V30 32 1 30 2
M  V30 33 1 30 7
M  V30 34 2 30 29
M  V30 35 1 31 1
M  V30 36 1 32 1
M  V30 37 1 33 1
M  V30 38 1 34 3
M  V30 39 1 35 3
M  V30 40 1 36 3
M  V30 41 1 37 4
M  V30 42 1 38 4
M  V30 43 1 39 5
M  V30 44 1 40 5
M  V30 45 1 41 6
M  V30 46 1 42 9
M  V30 47 1 43 9
M  V30 48 1 44 10
M  V30 49 1 45 10
M  V30 50 1 46 12
M  V30 51 1 47 12
M  V30 52 1 48 13
M  V30 53 1 49 13
M  V30 54 1 50 19
M  V30 55 1 51 20
M  V30 56 1 52 21
M  V30 57 1 53 22
M  V30 58 1 54 24
M  V30 59 1 55 24
M  V30 60 1 56 25
M  V30 61 1 57 25
M  V30 62 1 58 26
M  V30 63 1 59 29
M  V30 64 1 60 11
M  V30 END BOND
M  V30 END CTAB
M  END
>  <b_m_subgroup_collapsed>  (48) 
0

>  <r_i_docking_score>  (48) 
-9.4768247654333209

>  <s_m_subgroup_title>  (48) 
glide-dock_SP_D22_pv

>  <s_m_subgroupid>  (48) 
glide-dock_SP_D22_pv

>  <Molecule ChEMBL ID>  (48) 
CHEMBL363829

>  <Standard Type>  (48) 
Ki

>  <Standard Value>  (48) 
55.0

>  <label>  (48) 
1

$$$$
CHEMBL3220220
     RDKit          3D

  0  0  0  0  0  0  0  0  0  0999 V3000
M  V30 BEGIN CTAB
M  V30 COUNTS 60 65 0 0 1
M  V30 BEGIN ATOM
M  V30 1 O 8.367968 2.251649 -14.743165 0
M  V30 2 C 8.806598 3.286195 -14.246172 0
M  V30 3 C 8.036008 4.039670 -13.152905 0
M  V30 4 C 8.956988 4.719870 -12.095544 0 CFG=2
M  V30 5 C 8.041058 5.456155 -11.084235 0
M  V30 6 N 8.666839 6.172130 -9.936598 0 CFG=1 CHG=1
M  V30 7 C 9.407580 5.337236 -8.955199 0
M  V30 8 C 10.131938 6.172490 -7.894875 0
M  V30 9 C 10.229796 7.516856 -7.901716 0
M  V30 10 C 10.899572 8.290118 -6.827126 0
M  V30 11 C 11.301225 9.578671 -7.032197 0
M  V30 12 N 11.771198 10.098047 -5.849187 0
M  V30 13 C 11.770046 9.131806 -4.868938 0
M  V30 14 C 12.156612 9.201761 -3.523648 0
M  V30 15 C 12.117641 8.044936 -2.739899 0
M  V30 16 F 12.491661 8.115050 -1.446850 0
M  V30 17 C 11.703224 6.826530 -3.305869 0
M  V30 18 C 11.286050 6.767160 -4.654025 0
M  V30 19 C 11.284155 7.925761 -5.476921 0
M  V30 20 C 9.539548 8.288107 -9.024705 0
M  V30 21 C 9.347363 7.440121 -10.278417 0
M  V30 22 C 10.022361 5.619667 -12.779799 0
M  V30 23 C 10.586596 5.000910 -14.015227 0
M  V30 24 N 11.741317 5.486265 -14.622648 0
M  V30 25 C 12.053207 4.791251 -15.720740 0
M  V30 26 N 13.129961 5.100508 -16.541025 0
M  V30 27 C 14.049560 6.218946 -16.352802 0
M  V30 28 C 14.823783 6.400780 -17.652163 0
M  V30 29 C 14.888907 4.979681 -18.174433 0
M  V30 30 C 13.538815 4.407174 -17.756754 0
M  V30 31 S 10.949548 3.448771 -16.056034 0
M  V30 32 C 10.032189 3.935964 -14.659113 0
M  V30 33 H 7.328261 3.372250 -12.666467 0
M  V30 34 H 7.434727 4.800110 -13.652344 0
M  V30 35 H 9.485728 3.919429 -11.575004 0
M  V30 36 H 7.348315 4.729353 -10.659415 0
M  V30 37 H 7.411820 6.170181 -11.619229 0
M  V30 38 H 10.139365 4.716691 -9.467020 0
M  V30 39 H 8.706450 4.663890 -8.460245 0
M  V30 40 H 10.610009 5.609476 -7.113919 0
M  V30 41 H 11.285935 10.172273 -7.926151 0
M  V30 42 H 12.104376 11.046440 -5.754031 0
M  V30 43 H 12.493896 10.131285 -3.088948 0
M  V30 44 H 11.686679 5.934805 -2.695763 0
M  V30 45 H 10.950372 5.810600 -5.031067 0
M  V30 46 H 8.591547 8.683694 -8.656881 0
M  V30 47 H 10.134709 9.140602 -9.343816 0
M  V30 48 H 8.771005 8.000695 -11.016670 0
M  V30 49 H 10.332189 7.260596 -10.698457 0
M  V30 50 H 9.570503 6.574768 -13.038016 0
M  V30 51 H 10.847135 5.827788 -12.107912 0
M  V30 52 H 13.513869 7.130036 -16.083181 0
M  V30 53 H 14.725896 5.978853 -15.531838 0
M  V30 54 H 14.258430 7.027722 -18.342087 0
M  V30 55 H 15.804218 6.852901 -17.503439 0
M  V30 56 H 15.068921 4.917840 -19.247482 0
M  V30 57 H 15.685195 4.446655 -17.657227 0
M  V30 58 H 13.598315 3.330153 -17.595255 0
M  V30 59 H 12.790620 4.590166 -18.529680 0
M  V30 60 H 7.852590 6.517377 -9.434769 0
M  V30 END ATOM
M  V30 BEGIN BOND
M  V30 1 2 2 1
M  V30 2 1 3 2
M  V30 3 1 4 3
M  V30 4 1 5 4
M  V30 5 1 6 5
M  V30 6 1 7 6
M  V30 7 1 8 7
M  V30 8 2 9 8
M  V30 9 1 10 9
M  V30 10 2 11 10
M  V30 11 1 12 11
M  V30 12 1 13 12
M  V30 13 1 14 13
M  V30 14 2 15 14
M  V30 15 1 16 15
M  V30 16 1 17 15
M  V30 17 2 18 17
M  V30 18 1 19 10
M  V30 19 2 19 13
M  V30 20 1 19 18
M  V30 21 1 20 9
M  V30 22 1 21 6
M  V30 23 1 21 20
M  V30 24 1 22 4
M  V30 25 1 23 22
M  V30 26 1 24 23
M  V30 27 2 25 24
M  V30 28 1 26 25
M  V30 29 1 27 26
M  V30 30 1 28 27
M  V30 31 1 29 28
M  V30 32 1 30 26
M  V30 33 1 30 29
M  V30 34 1 31 25
M  V30 35 1 32 2
M  V30 36 2 32 23
M  V30 37 1 32 31
M  V30 38 1 33 3
M  V30 39 1 34 3
M  V30 40 1 4 35 CFG=1
M  V30 41 1 36 5
M  V30 42 1 37 5
M  V30 43 1 38 7
M  V30 44 1 39 7
M  V30 45 1 40 8
M  V30 46 1 41 11
M  V30 47 1 42 12
M  V30 48 1 43 14
M  V30 49 1 44 17
M  V30 50 1 45 18
M  V30 51 1 46 20
M  V30 52 1 47 20
M  V30 53 1 48 21
M  V30 54 1 49 21
M  V30 55 1 50 22
M  V30 56 1 51 22
M  V30 57 1 52 27
M  V30 58 1 53 27
M  V30 59 1 54 28
M  V30 60 1 55 28
M  V30 61 1 56 29
M  V30 62 1 57 29
M  V30 63 1 58 30
M  V30 64 1 59 30
M  V30 65 1 6 60 CFG=1
M  V30 END BOND
M  V30 END CTAB
M  END
>  <b_m_subgroup_collapsed>  (49) 
0

>  <r_i_docking_score>  (49) 
-9.4685562695966805

>  <s_m_subgroup_title>  (49) 
glide-dock_SP_D22_pv

>  <s_m_subgroupid>  (49) 
glide-dock_SP_D22_pv

>  <Molecule ChEMBL ID>  (49) 
CHEMBL3220220

>  <Standard Type>  (49) 
Ki

>  <Standard Value>  (49) 
54.95

>  <label>  (49) 
1

$$$$
CHEMBL1256786
     RDKit          3D

  0  0  0  0  0  0  0  0  0  0999 V3000
M  V30 BEGIN CTAB
M  V30 COUNTS 50 51 0 0 1
M  V30 BEGIN ATOM
M  V30 1 C 12.324152 8.573922 -1.781014 0
M  V30 2 O 12.486014 9.304893 -2.982671 0
M  V30 3 C 12.086016 8.700818 -4.149922 0
M  V30 4 C 12.085320 9.497825 -5.310729 0
M  V30 5 C 11.686341 8.966404 -6.544273 0
M  V30 6 C 11.260018 7.625534 -6.627649 0
M  V30 7 C 10.749838 7.095248 -7.947580 0
M  V30 8 C 9.257462 7.429421 -8.192953 0 CFG=1
M  V30 9 C 8.787200 8.787914 -7.633176 0
M  V30 10 N 8.886024 7.254114 -9.614051 0 CHG=1
M  V30 11 C 9.456512 8.228996 -10.571584 0
M  V30 12 C 8.994179 7.954898 -12.007473 0 CFG=2
M  V30 13 O 7.686031 8.443154 -12.246864 0
M  V30 14 C 9.214108 6.505177 -12.429862 0
M  V30 15 C 8.200960 5.534290 -12.280442 0
M  V30 16 C 8.420887 4.214647 -12.719341 0
M  V30 17 C 9.639775 3.860963 -13.332237 0
M  V30 18 O 9.854679 2.572034 -13.733491 0
M  V30 19 C 10.637274 4.837616 -13.536498 0
M  V30 20 N 11.812507 4.446880 -14.231926 0
M  V30 21 C 12.606605 5.208411 -15.003577 0
M  V30 22 O 12.512942 6.426146 -15.149855 0
M  V30 23 C 10.440117 6.143189 -13.031350 0
M  V30 24 C 11.273812 6.810835 -5.480505 0
M  V30 25 C 11.685994 7.343644 -4.246758 0
M  V30 26 H 12.650840 9.189617 -0.946038 0
M  V30 27 H 11.286019 8.303992 -1.629846 0
M  V30 28 H 12.886241 7.645400 -1.771940 0
M  V30 29 H 12.391541 10.530123 -5.270159 0
M  V30 30 H 11.687752 9.597631 -7.420612 0
M  V30 31 H 10.898479 6.015392 -7.994249 0
M  V30 32 H 11.397157 7.516452 -8.714211 0
M  V30 33 H 8.677600 6.682596 -7.647641 0
M  V30 34 H 8.872411 8.821932 -6.547118 0
M  V30 35 H 9.355362 9.621667 -8.038982 0
M  V30 36 H 7.739908 8.972367 -7.846972 0
M  V30 37 H 7.869188 7.373437 -9.692168 0
M  V30 38 H 10.543260 8.168809 -10.556230 0
M  V30 39 H 9.192019 9.248770 -10.291407 0
M  V30 40 H 9.621401 8.575213 -12.646874 0
M  V30 41 H 7.096052 8.172478 -11.534369 0
M  V30 42 H 7.250634 5.797719 -11.836614 0
M  V30 43 H 7.635777 3.481857 -12.609119 0
M  V30 44 H 9.681594 1.938553 -13.043130 0
M  V30 45 H 11.953981 3.448564 -14.291716 0
M  V30 46 H 13.368563 4.585300 -15.496695 0
M  V30 47 H 11.207876 6.894305 -13.140718 0
M  V30 48 H 10.962358 5.776091 -5.535125 0
M  V30 49 H 11.677053 6.687354 -3.389816 0
M  V30 50 H 9.111085 6.317259 -9.915388 0
M  V30 END ATOM
M  V30 BEGIN BOND
M  V30 1 1 2 1
M  V30 2 1 3 2
M  V30 3 1 4 3
M  V30 4 2 5 4
M  V30 5 1 6 5
M  V30 6 1 7 6
M  V30 7 1 8 7
M  V30 8 1 9 8
M  V30 9 1 10 8
M  V30 10 1 11 10
M  V30 11 1 12 11
M  V30 12 1 13 12
M  V30 13 1 14 12
M  V30 14 1 15 14
M  V30 15 2 16 15
M  V30 16 1 17 16
M  V30 17 1 18 17
M  V30 18 2 19 17
M  V30 19 1 20 19
M  V30 20 1 21 20
M  V30 21 2 22 21
M  V30 22 2 23 14
M  V30 23 1 23 19
M  V30 24 2 24 6
M  V30 25 2 25 3
M  V30 26 1 25 24
M  V30 27 1 26 1
M  V30 28 1 27 1
M  V30 29 1 28 1
M  V30 30 1 29 4
M  V30 31 1 30 5
M  V30 32 1 31 7
M  V30 33 1 32 7
M  V30 34 1 8 33 CFG=1
M  V30 35 1 34 9
M  V30 36 1 35 9
M  V30 37 1 36 9
M  V30 38 1 37 10
M  V30 39 1 38 11
M  V30 40 1 39 11
M  V30 41 1 12 40 CFG=3
M  V30 42 1 41 13
M  V30 43 1 42 15
M  V30 44 1 43 16
M  V30 45 1 44 18
M  V30 46 1 45 20
M  V30 47 1 46 21
M  V30 48 1 47 23
M  V30 49 1 48 24
M  V30 50 1 49 25
M  V30 51 1 50 10
M  V30 END BOND
M  V30 END CTAB
M  END
>  <b_m_subgroup_collapsed>  (50) 
0

>  <r_i_docking_score>  (50) 
-9.4641006489856192

>  <s_m_subgroup_title>  (50) 
glide-dock_SP_D22_pv

>  <s_m_subgroupid>  (50) 
glide-dock_SP_D22_pv

>  <Molecule ChEMBL ID>  (50) 
CHEMBL1256786

>  <Standard Type>  (50) 
Ki

>  <Standard Value>  (50) 
13000.0

>  <label>  (50) 
0

$$$$
CHEMBL3104518
     RDKit          3D

  0  0  0  0  0  0  0  0  0  0999 V3000
M  V30 BEGIN CTAB
M  V30 COUNTS 62 66 0 0 1
M  V30 BEGIN ATOM
M  V30 1 O 11.468762 3.790979 -14.245614 0
M  V30 2 C 10.311628 3.977544 -13.868830 0
M  V30 3 C 9.994904 5.210372 -13.013067 0
M  V30 4 C 8.817463 4.967149 -12.050684 0 CFG=1
M  V30 5 C 8.513384 6.173144 -11.147086 0
M  V30 6 N 9.582737 6.435219 -10.145482 0 CFG=2 CHG=1
M  V30 7 C 9.228833 5.972342 -8.782087 0
M  V30 8 C 10.450438 6.030354 -7.848002 0
M  V30 9 C 11.177285 7.387144 -7.819712 0 CFG=2
M  V30 10 C 10.537827 8.332273 -6.797119 0
M  V30 11 O 9.545512 8.972236 -7.124843 0
M  V30 12 C 11.163658 8.419906 -5.446001 0
M  V30 13 C 11.667630 7.271382 -4.786796 0
M  V30 14 C 12.162386 7.358519 -3.470953 0
M  V30 15 C 12.173298 8.594241 -2.802171 0
M  V30 16 F 12.647230 8.673681 -1.536674 0
M  V30 17 C 11.686083 9.743594 -3.450232 0
M  V30 18 C 11.176127 9.657633 -4.762300 0
M  V30 19 C 11.302148 7.996292 -9.241139 0
M  V30 20 C 10.029969 7.850120 -10.105330 0
M  V30 21 C 7.576992 4.571749 -12.869630 0
M  V30 22 C 7.857165 3.371027 -13.756649 0
M  V30 23 C 6.804173 2.479887 -14.053979 0
M  V30 24 C 7.035427 1.252842 -14.719303 0
M  V30 25 C 5.927197 0.298518 -14.954895 0
M  V30 26 C 5.885678 -0.496774 -16.124258 0
M  V30 27 C 4.798069 -1.352241 -16.384993 0
M  V30 28 C 3.721572 -1.416597 -15.484478 0
M  V30 29 C 3.741993 -0.637542 -14.313705 0
M  V30 30 C 4.847051 0.193415 -14.043645 0
M  V30 31 C 8.353004 0.971692 -15.146242 0
M  V30 32 C 9.404739 1.876668 -14.903710 0
M  V30 33 C 9.172097 3.073943 -14.192617 0
M  V30 34 H 9.768613 6.039095 -13.681260 0
M  V30 35 H 10.885106 5.494991 -12.459736 0
M  V30 36 H 9.068498 4.123832 -11.404332 0
M  V30 37 H 8.332128 7.054270 -11.765470 0
M  V30 38 H 7.577970 5.986834 -10.621964 0
M  V30 39 H 8.417782 6.585068 -8.384235 0
M  V30 40 H 8.854140 4.948108 -8.824051 0
M  V30 41 H 10.115891 5.770432 -6.844511 0
M  V30 42 H 11.167252 5.262672 -8.122698 0
M  V30 43 H 12.190457 7.216023 -7.457307 0
M  V30 44 H 11.657235 6.304107 -5.266222 0
M  V30 45 H 12.528745 6.472667 -2.972645 0
M  V30 46 H 11.687233 10.687776 -2.927994 0
M  V30 47 H 10.780819 10.545426 -5.235482 0
M  V30 48 H 11.575554 9.050776 -9.176601 0
M  V30 49 H 12.136419 7.522401 -9.757404 0
M  V30 50 H 10.248434 8.196529 -11.116800 0
M  V30 51 H 9.221673 8.479669 -9.728323 0
M  V30 52 H 7.249488 5.400583 -13.495000 0
M  V30 53 H 6.748823 4.338788 -12.197261 0
M  V30 54 H 5.808297 2.725718 -13.715468 0
M  V30 55 H 6.685727 -0.447919 -16.847189 0
M  V30 56 H 4.782693 -1.954686 -17.281677 0
M  V30 57 H 2.886202 -2.067285 -15.697567 0
M  V30 58 H 2.909900 -0.681828 -13.625415 0
M  V30 59 H 4.844059 0.776572 -13.134523 0
M  V30 60 H 8.572490 0.043786 -15.653643 0
M  V30 61 H 10.401878 1.622675 -15.234498 0
M  V30 62 H 10.379464 5.891764 -10.441297 0
M  V30 END ATOM
M  V30 BEGIN BOND
M  V30 1 2 2 1
M  V30 2 1 3 2
M  V30 3 1 4 3
M  V30 4 1 5 4
M  V30 5 1 6 5
M  V30 6 1 7 6
M  V30 7 1 8 7
M  V30 8 1 9 8
M  V30 9 1 10 9
M  V30 10 2 11 10
M  V30 11 1 12 10
M  V30 12 1 13 12
M  V30 13 2 14 13
M  V30 14 1 15 14
M  V30 15 1 16 15
M  V30 16 2 17 15
M  V30 17 2 18 12
M  V30 18 1 18 17
M  V30 19 1 19 9
M  V30 20 1 20 6
M  V30 21 1 20 19
M  V30 22 1 21 4
M  V30 23 1 22 21
M  V30 24 1 23 22
M  V30 25 2 24 23
M  V30 26 1 25 24
M  V30 27 2 26 25
M  V30 28 1 27 26
M  V30 29 2 28 27
M  V30 30 1 29 28
M  V30 31 1 30 25
M  V30 32 2 30 29
M  V30 33 1 31 24
M  V30 34 2 32 31
M  V30 35 1 33 2
M  V30 36 2 33 22
M  V30 37 1 33 32
M  V30 38 1 34 3
M  V30 39 1 35 3
M  V30 40 1 4 36 CFG=1
M  V30 41 1 37 5
M  V30 42 1 38 5
M  V30 43 1 39 7
M  V30 44 1 40 7
M  V30 45 1 41 8
M  V30 46 1 42 8
M  V30 47 1 9 43 CFG=1
M  V30 48 1 44 13
M  V30 49 1 45 14
M  V30 50 1 46 17
M  V30 51 1 47 18
M  V30 52 1 48 19
M  V30 53 1 49 19
M  V30 54 1 50 20
M  V30 55 1 51 20
M  V30 56 1 52 21
M  V30 57 1 53 21
M  V30 58 1 54 23
M  V30 59 1 55 26
M  V30 60 1 56 27
M  V30 61 1 57 28
M  V30 62 1 58 29
M  V30 63 1 59 30
M  V30 64 1 60 31
M  V30 65 1 61 32
M  V30 66 1 6 62 CFG=3
M  V30 END BOND
M  V30 END CTAB
M  END
>  <b_m_subgroup_collapsed>  (51) 
0

>  <r_i_docking_score>  (51) 
-9.4548625992921895

>  <s_m_subgroup_title>  (51) 
glide-dock_SP_D22_pv

>  <s_m_subgroupid>  (51) 
glide-dock_SP_D22_pv

>  <Molecule ChEMBL ID>  (51) 
CHEMBL3104518

>  <Standard Type>  (51) 
Ki

>  <Standard Value>  (51) 
10000.0

>  <label>  (51) 
0

$$$$
CHEMBL99198
     RDKit          3D

  0  0  0  0  0  0  0  0  0  0999 V3000
M  V30 BEGIN CTAB
M  V30 COUNTS 69 73 0 0 1
M  V30 BEGIN ATOM
M  V30 1 O 11.047791 7.465367 -11.392851 0
M  V30 2 C 10.126861 7.372412 -10.580669 0
M  V30 3 N 8.886479 6.989356 -10.920811 0
M  V30 4 C 8.511871 6.419180 -12.203863 0
M  V30 5 C 9.155415 5.037206 -12.405591 0
M  V30 6 C 8.923278 4.457413 -13.802777 0
M  V30 7 C 9.527817 3.046635 -13.918741 0
M  V30 8 N 9.092577 2.342335 -15.151589 0 CFG=1 CHG=1
M  V30 9 C 10.236342 1.645623 -15.800802 0
M  V30 10 C 9.833615 1.039728 -17.150551 0
M  V30 11 C 8.639997 0.093460 -16.989614 0
M  V30 12 C 7.461485 0.823752 -16.303699 0 CFG=1
M  V30 13 C 6.182818 -0.019710 -16.175365 0
M  V30 14 C 5.765958 -0.829542 -17.256651 0
M  V30 15 C 4.576863 -1.574227 -17.180386 0
M  V30 16 C 3.778141 -1.504137 -16.028179 0
M  V30 17 C 4.158081 -0.694137 -14.947123 0
M  V30 18 O 3.346674 -0.627769 -13.847210 0
M  V30 19 C 5.355887 0.053016 -15.015338 0
M  V30 20 C 5.709030 0.975308 -13.858669 0
M  V30 21 C 6.725706 2.050082 -14.240480 0
M  V30 22 C 7.934227 1.413895 -14.951589 0 CFG=2
M  V30 23 C 10.355685 7.670174 -9.129309 0
M  V30 24 C 9.656137 6.965089 -8.123505 0
M  V30 25 C 9.992094 7.138483 -6.765689 0
M  V30 26 C 11.031001 8.012514 -6.386667 0
M  V30 27 C 11.454447 8.126301 -4.982113 0
M  V30 28 C 11.684867 6.970586 -4.203027 0
M  V30 29 C 12.091749 7.067834 -2.857436 0
M  V30 30 C 12.292512 8.332935 -2.278800 0
M  V30 31 C 12.085875 9.492188 -3.048435 0
M  V30 32 C 11.666392 9.388993 -4.388068 0
M  V30 33 C 11.694962 8.746115 -7.392141 0
M  V30 34 C 11.370309 8.574999 -8.749593 0
M  V30 35 H 8.135799 7.109531 -10.246802 0
M  V30 36 H 7.423097 6.333980 -12.237083 0
M  V30 37 H 8.790852 7.097487 -13.004685 0
M  V30 38 H 10.234426 5.090325 -12.244065 0
M  V30 39 H 8.770568 4.354382 -11.644270 0
M  V30 40 H 7.854599 4.465312 -14.012182 0
M  V30 41 H 9.376495 5.111309 -14.550449 0
M  V30 42 H 10.613723 3.154049 -13.891397 0
M  V30 43 H 9.286600 2.440007 -13.047449 0
M  V30 44 H 11.060614 2.341843 -15.961388 0
M  V30 45 H 10.614841 0.863311 -15.138710 0
M  V30 46 H 9.583664 1.833337 -17.856968 0
M  V30 47 H 10.675836 0.498471 -17.586224 0
M  V30 48 H 8.371184 -0.279780 -17.977598 0
M  V30 49 H 8.941179 -0.771177 -16.398020 0
M  V30 50 H 7.176443 1.655846 -16.950333 0
M  V30 51 H 6.342288 -0.894541 -18.166508 0
M  V30 52 H 4.273753 -2.205759 -18.004560 0
M  V30 53 H 2.884146 -2.101020 -15.974048 0
M  V30 54 H 2.467825 -0.931462 -14.012551 0
M  V30 55 H 4.808755 1.460227 -13.480529 0
M  V30 56 H 6.099379 0.360684 -13.046124 0
M  V30 57 H 6.263303 2.790167 -14.893648 0
M  V30 58 H 6.989193 2.572840 -13.326027 0
M  V30 59 H 8.287947 0.591454 -14.323323 0
M  V30 60 H 8.879767 6.257021 -8.378507 0
M  V30 61 H 9.456130 6.572399 -6.015412 0
M  V30 62 H 11.538612 5.989007 -4.634819 0
M  V30 63 H 12.250359 6.173200 -2.274680 0
M  V30 64 H 12.601455 8.421132 -1.246170 0
M  V30 65 H 12.231193 10.468945 -2.612873 0
M  V30 66 H 11.501471 10.288682 -4.963104 0
M  V30 67 H 12.508705 9.406666 -7.127679 0
M  V30 68 H 11.934522 9.114358 -9.499185 0
M  V30 69 H 8.793250 3.058133 -15.797893 0
M  V30 END ATOM
M  V30 BEGIN BOND
M  V30 1 2 2 1
M  V30 2 1 3 2
M  V30 3 1 4 3
M  V30 4 1 5 4
M  V30 5 1 6 5
M  V30 6 1 7 6
M  V30 7 1 8 7
M  V30 8 1 9 8
M  V30 9 1 10 9
M  V30 10 1 11 10
M  V30 11 1 12 11
M  V30 12 1 13 12
M  V30 13 2 14 13
M  V30 14 1 15 14
M  V30 15 2 16 15
M  V30 16 1 17 16
M  V30 17 1 18 17
M  V30 18 1 19 13
M  V30 19 2 19 17
M  V30 20 1 20 19
M  V30 21 1 21 20
M  V30 22 1 22 8
M  V30 23 1 22 12
M  V30 24 1 22 21
M  V30 25 1 23 2
M  V30 26 1 24 23
M  V30 27 2 25 24
M  V30 28 1 26 25
M  V30 29 1 27 26
M  V30 30 2 28 27
M  V30 31 1 29 28
M  V30 32 2 30 29
M  V30 33 1 31 30
M  V30 34 1 32 27
M  V30 35 2 32 31
M  V30 36 2 33 26
M  V30 37 2 34 23
M  V30 38 1 34 33
M  V30 39 1 35 3
M  V30 40 1 36 4
M  V30 41 1 37 4
M  V30 42 1 38 5
M  V30 43 1 39 5
M  V30 44 1 40 6
M  V30 45 1 41 6
M  V30 46 1 42 7
M  V30 47 1 43 7
M  V30 48 1 44 9
M  V30 49 1 45 9
M  V30 50 1 46 10
M  V30 51 1 47 10
M  V30 52 1 48 11
M  V30 53 1 49 11
M  V30 54 1 12 50 CFG=3
M  V30 55 1 51 14
M  V30 56 1 52 15
M  V30 57 1 53 16
M  V30 58 1 54 18
M  V30 59 1 55 20
M  V30 60 1 56 20
M  V30 61 1 57 21
M  V30 62 1 58 21
M  V30 63 1 22 59 CFG=1
M  V30 64 1 60 24
M  V30 65 1 61 25
M  V30 66 1 62 28
M  V30 67 1 63 29
M  V30 68 1 64 30
M  V30 69 1 65 31
M  V30 70 1 66 32
M  V30 71 1 67 33
M  V30 72 1 68 34
M  V30 73 1 8 69 CFG=3
M  V30 END BOND
M  V30 END CTAB
M  END
>  <b_m_subgroup_collapsed>  (52) 
0

>  <r_i_docking_score>  (52) 
-9.4530335867553195

>  <s_m_subgroup_title>  (52) 
glide-dock_SP_D22_pv

>  <s_m_subgroupid>  (52) 
glide-dock_SP_D22_pv

>  <Molecule ChEMBL ID>  (52) 
CHEMBL99198

>  <Standard Type>  (52) 
Ki

>  <Standard Value>  (52) 
25.0

>  <label>  (52) 
1

$$$$
CHEMBL83617
     RDKit          3D

  0  0  0  0  0  0  0  0  0  0999 V3000
M  V30 BEGIN CTAB
M  V30 COUNTS 58 62 0 0 1
M  V30 BEGIN ATOM
M  V30 1 N 10.040175 -0.218536 -16.244644 0
M  V30 2 C 10.294645 1.091779 -16.209028 0
M  V30 3 O 11.276219 1.570566 -16.775196 0
M  V30 4 C 9.351962 1.954283 -15.408777 0
M  V30 5 C 9.711266 3.285388 -15.096921 0
M  V30 6 C 8.857792 4.103272 -14.329935 0
M  V30 7 C 7.633262 3.594584 -13.845701 0
M  V30 8 C 7.255911 2.271117 -14.176772 0
M  V30 9 C 8.104577 1.462220 -14.957766 0
M  V30 10 C 6.004256 1.656972 -13.562758 0
M  V30 11 C 5.131161 2.667049 -12.792842 0
M  V30 12 O 5.917395 3.614454 -12.109979 0
M  V30 13 C 6.683319 4.432184 -12.985812 0 CFG=1
M  V30 14 C 7.312651 5.508217 -12.081431 0
M  V30 15 C 8.105761 4.922771 -10.899400 0
M  V30 16 N 8.490863 5.952007 -9.898378 0 CFG=1 CHG=1
M  V30 17 C 8.670030 5.346453 -8.546456 0
M  V30 18 C 9.488538 6.187515 -7.577616 0
M  V30 19 C 10.162042 7.304705 -7.903947 0
M  V30 20 C 10.897170 8.119838 -6.906204 0
M  V30 21 C 11.322203 9.380497 -7.201948 0
M  V30 22 N 11.814831 9.966683 -6.053949 0
M  V30 23 C 11.795598 9.074453 -5.004168 0
M  V30 24 C 12.180995 9.218513 -3.658720 0
M  V30 25 C 12.131304 8.106324 -2.804748 0
M  V30 26 F 12.510677 8.223985 -1.511145 0
M  V30 27 C 11.701658 6.866324 -3.305714 0
M  V30 28 C 11.284148 6.740607 -4.648622 0
M  V30 29 C 11.285289 7.845185 -5.535690 0
M  V30 30 C 10.098129 7.792153 -9.347004 0
M  V30 31 C 9.677523 6.709227 -10.347616 0
M  V30 32 H 10.653192 -0.813620 -16.779219 0
M  V30 33 H 9.233050 -0.602390 -15.771651 0
M  V30 34 H 10.654864 3.686059 -15.440773 0
M  V30 35 H 9.167285 5.114084 -14.110476 0
M  V30 36 H 7.793514 0.449923 -15.168598 0
M  V30 37 H 6.330820 0.876830 -12.872699 0
M  V30 38 H 5.413237 1.148297 -14.324510 0
M  V30 39 H 4.485054 2.164732 -12.076693 0
M  V30 40 H 4.485566 3.234032 -13.446870 0
M  V30 41 H 6.007043 4.939013 -13.676502 0
M  V30 42 H 6.492118 6.102394 -11.680555 0
M  V30 43 H 7.912722 6.204572 -12.663656 0
M  V30 44 H 8.984089 4.384504 -11.257201 0
M  V30 45 H 7.499929 4.171921 -10.398603 0
M  V30 46 H 9.164314 4.376140 -8.631056 0
M  V30 47 H 7.688155 5.170021 -8.106959 0
M  V30 48 H 9.482689 5.837553 -6.561465 0
M  V30 49 H 11.284836 9.934308 -8.126620 0
M  V30 50 H 12.162219 10.914029 -6.020884 0
M  V30 51 H 12.526613 10.171046 -3.281214 0
M  V30 52 H 11.681757 6.006953 -2.651126 0
M  V30 53 H 10.948252 5.776598 -4.988073 0
M  V30 54 H 9.421448 8.647136 -9.398981 0
M  V30 55 H 11.084171 8.146487 -9.648813 0
M  V30 56 H 9.492666 7.170755 -11.317348 0
M  V30 57 H 10.486359 5.999134 -10.486652 0
M  V30 58 H 7.722688 6.625040 -9.828255 0
M  V30 END ATOM
M  V30 BEGIN BOND
M  V30 1 1 2 1
M  V30 2 2 3 2
M  V30 3 1 4 2
M  V30 4 1 5 4
M  V30 5 2 6 5
M  V30 6 1 7 6
M  V30 7 2 8 7
M  V30 8 2 9 4
M  V30 9 1 9 8
M  V30 10 1 10 8
M  V30 11 1 11 10
M  V30 12 1 12 11
M  V30 13 1 13 7
M  V30 14 1 13 12
M  V30 15 1 14 13
M  V30 16 1 15 14
M  V30 17 1 16 15
M  V30 18 1 17 16
M  V30 19 1 18 17
M  V30 20 2 19 18
M  V30 21 1 20 19
M  V30 22 2 21 20
M  V30 23 1 22 21
M  V30 24 1 23 22
M  V30 25 1 24 23
M  V30 26 2 25 24
M  V30 27 1 26 25
M  V30 28 1 27 25
M  V30 29 2 28 27
M  V30 30 1 29 20
M  V30 31 2 29 23
M  V30 32 1 29 28
M  V30 33 1 30 19
M  V30 34 1 31 16
M  V30 35 1 31 30
M  V30 36 1 32 1
M  V30 37 1 33 1
M  V30 38 1 34 5
M  V30 39 1 35 6
M  V30 40 1 36 9
M  V30 41 1 37 10
M  V30 42 1 38 10
M  V30 43 1 39 11
M  V30 44 1 40 11
M  V30 45 1 13 41 CFG=3
M  V30 46 1 42 14
M  V30 47 1 43 14
M  V30 48 1 44 15
M  V30 49 1 45 15
M  V30 50 1 46 17
M  V30 51 1 47 17
M  V30 52 1 48 18
M  V30 53 1 49 21
M  V30 54 1 50 22
M  V30 55 1 51 24
M  V30 56 1 52 27
M  V30 57 1 53 28
M  V30 58 1 54 30
M  V30 59 1 55 30
M  V30 60 1 56 31
M  V30 61 1 57 31
M  V30 62 1 16 58 CFG=1
M  V30 END BOND
M  V30 END CTAB
M  END
>  <b_m_subgroup_collapsed>  (53) 
0

>  <r_i_docking_score>  (53) 
-9.4505644100622899

>  <s_m_subgroup_title>  (53) 
glide-dock_SP_D22_pv

>  <s_m_subgroupid>  (53) 
glide-dock_SP_D22_pv

>  <Molecule ChEMBL ID>  (53) 
CHEMBL83617

>  <Standard Type>  (53) 
Ki

>  <Standard Value>  (53) 
4.7

>  <label>  (53) 
1

$$$$
CHEMBL99198
     RDKit          3D

  0  0  0  0  0  0  0  0  0  0999 V3000
M  V30 BEGIN CTAB
M  V30 COUNTS 69 73 0 0 1
M  V30 BEGIN ATOM
M  V30 1 O 10.087753 8.171058 -11.445961 0
M  V30 2 C 9.821144 7.318977 -10.598699 0
M  V30 3 N 9.285123 6.131310 -10.915887 0
M  V30 4 C 8.977559 5.707036 -12.279282 0
M  V30 5 C 10.215487 5.079680 -12.953924 0
M  V30 6 C 10.062784 4.821609 -14.465358 0
M  V30 7 C 8.961608 3.822052 -14.860872 0
M  V30 8 N 9.124356 2.473805 -14.247305 0 CFG=2 CHG=1
M  V30 9 C 10.350447 1.737639 -14.667665 0
M  V30 10 C 10.206891 1.133958 -16.075861 0
M  V30 11 C 8.968169 0.233311 -16.168411 0
M  V30 12 C 7.695791 0.991973 -15.736320 0 CFG=1
M  V30 13 C 6.411497 0.146840 -15.799574 0
M  V30 14 C 6.154681 -0.641081 -16.943975 0
M  V30 15 C 4.990142 -1.429053 -17.031792 0
M  V30 16 C 4.057197 -1.427399 -15.982954 0
M  V30 17 C 4.278647 -0.628042 -14.847090 0
M  V30 18 O 3.340938 -0.624043 -13.848214 0
M  V30 19 C 5.441085 0.172862 -14.755191 0
M  V30 20 C 5.592911 1.118536 -13.570783 0
M  V30 21 C 6.612486 2.231590 -13.841091 0
M  V30 22 C 7.918488 1.591125 -14.329317 0 CFG=2
M  V30 23 C 10.202275 7.527877 -9.160263 0
M  V30 24 C 11.290448 8.369855 -8.839255 0
M  V30 25 C 11.674156 8.568655 -7.499070 0
M  V30 26 C 10.981682 7.927173 -6.448439 0
M  V30 27 C 11.417260 8.091353 -5.050309 0
M  V30 28 C 11.590171 9.372355 -4.484004 0
M  V30 29 C 11.997434 9.517445 -3.142243 0
M  V30 30 C 12.241811 8.381493 -2.350027 0
M  V30 31 C 12.086754 7.098129 -2.905409 0
M  V30 32 C 11.685312 6.961091 -4.246880 0
M  V30 33 C 9.877399 7.109004 -6.770972 0
M  V30 34 C 9.481653 6.918862 -8.109680 0
M  V30 35 H 9.077446 5.490664 -10.164623 0
M  V30 36 H 8.156337 4.991011 -12.235042 0
M  V30 37 H 8.607981 6.556846 -12.859682 0
M  V30 38 H 11.062881 5.755390 -12.821010 0
M  V30 39 H 10.485813 4.161526 -12.437444 0
M  V30 40 H 9.854194 5.770412 -14.958333 0
M  V30 41 H 11.022758 4.511661 -14.874002 0
M  V30 42 H 8.016695 4.263964 -14.557171 0
M  V30 43 H 8.917357 3.732591 -15.946646 0
M  V30 44 H 11.235935 2.364408 -14.610970 0
M  V30 45 H 10.529363 0.928729 -13.961761 0
M  V30 46 H 10.151055 1.923207 -16.826012 0
M  V30 47 H 11.097055 0.552622 -16.316109 0
M  V30 48 H 8.879603 -0.140594 -17.186251 0
M  V30 49 H 9.109873 -0.634182 -15.526695 0
M  V30 50 H 7.530663 1.810841 -16.439407 0
M  V30 51 H 6.847858 -0.664108 -17.770805 0
M  V30 52 H 4.812044 -2.044827 -17.901869 0
M  V30 53 H 3.179503 -2.054989 -16.057440 0
M  V30 54 H 2.519383 -1.005811 -14.120853 0
M  V30 55 H 4.628592 1.566936 -13.326482 0
M  V30 56 H 5.891880 0.534066 -12.700958 0
M  V30 57 H 6.210944 2.903844 -14.602861 0
M  V30 58 H 6.754936 2.840964 -12.950637 0
M  V30 59 H 8.137726 0.760720 -13.657140 0
M  V30 60 H 11.852156 8.858231 -9.623166 0
M  V30 61 H 12.524805 9.197422 -7.277298 0
M  V30 62 H 11.394054 10.252999 -5.079093 0
M  V30 63 H 12.099511 10.502883 -2.710919 0
M  V30 64 H 12.538876 8.498253 -1.320142 0
M  V30 65 H 12.268443 6.217848 -2.303332 0
M  V30 66 H 11.568903 5.971372 -4.663952 0
M  V30 67 H 9.314576 6.627968 -5.982692 0
M  V30 68 H 8.616847 6.303923 -8.316889 0
M  V30 69 H 9.251726 2.649687 -13.260225 0
M  V30 END ATOM
M  V30 BEGIN BOND
M  V30 1 2 2 1
M  V30 2 1 3 2
M  V30 3 1 4 3
M  V30 4 1 5 4
M  V30 5 1 6 5
M  V30 6 1 7 6
M  V30 7 1 8 7
M  V30 8 1 9 8
M  V30 9 1 10 9
M  V30 10 1 11 10
M  V30 11 1 12 11
M  V30 12 1 13 12
M  V30 13 2 14 13
M  V30 14 1 15 14
M  V30 15 2 16 15
M  V30 16 1 17 16
M  V30 17 1 18 17
M  V30 18 1 19 13
M  V30 19 2 19 17
M  V30 20 1 20 19
M  V30 21 1 21 20
M  V30 22 1 22 8
M  V30 23 1 22 12
M  V30 24 1 22 21
M  V30 25 1 23 2
M  V30 26 1 24 23
M  V30 27 2 25 24
M  V30 28 1 26 25
M  V30 29 1 27 26
M  V30 30 2 28 27
M  V30 31 1 29 28
M  V30 32 2 30 29
M  V30 33 1 31 30
M  V30 34 1 32 27
M  V30 35 2 32 31
M  V30 36 2 33 26
M  V30 37 2 34 23
M  V30 38 1 34 33
M  V30 39 1 35 3
M  V30 40 1 36 4
M  V30 41 1 37 4
M  V30 42 1 38 5
M  V30 43 1 39 5
M  V30 44 1 40 6
M  V30 45 1 41 6
M  V30 46 1 42 7
M  V30 47 1 43 7
M  V30 48 1 44 9
M  V30 49 1 45 9
M  V30 50 1 46 10
M  V30 51 1 47 10
M  V30 52 1 48 11
M  V30 53 1 49 11
M  V30 54 1 12 50 CFG=3
M  V30 55 1 51 14
M  V30 56 1 52 15
M  V30 57 1 53 16
M  V30 58 1 54 18
M  V30 59 1 55 20
M  V30 60 1 56 20
M  V30 61 1 57 21
M  V30 62 1 58 21
M  V30 63 1 22 59 CFG=1
M  V30 64 1 60 24
M  V30 65 1 61 25
M  V30 66 1 62 28
M  V30 67 1 63 29
M  V30 68 1 64 30
M  V30 69 1 65 31
M  V30 70 1 66 32
M  V30 71 1 67 33
M  V30 72 1 68 34
M  V30 73 1 8 69 CFG=1
M  V30 END BOND
M  V30 END CTAB
M  END
>  <b_m_subgroup_collapsed>  (54) 
0

>  <r_i_docking_score>  (54) 
-9.4422243737571794

>  <s_m_subgroup_title>  (54) 
glide-dock_SP_D22_pv

>  <s_m_subgroupid>  (54) 
glide-dock_SP_D22_pv

>  <Molecule ChEMBL ID>  (54) 
CHEMBL99198

>  <Standard Type>  (54) 
Ki

>  <Standard Value>  (54) 
25.0

>  <label>  (54) 
1

$$$$
CHEMBL5089348
     RDKit          3D

  0  0  0  0  0  0  0  0  0  0999 V3000
M  V30 BEGIN CTAB
M  V30 COUNTS 55 58 0 0 1
M  V30 BEGIN ATOM
M  V30 1 O 5.163674 4.571431 -13.846918 0
M  V30 2 S 6.318219 4.172312 -13.035547 0
M  V30 3 O 6.084162 3.370772 -11.832495 0
M  V30 4 C 7.195944 5.721479 -12.551584 0
M  V30 5 C 8.550666 5.523082 -11.851978 0 CFG=1
M  V30 6 C 9.276298 6.870153 -11.707160 0
M  V30 7 C 9.508004 7.025021 -10.211421 0
M  V30 8 N 8.489938 6.172042 -9.569407 0 CFG=2 CHG=1
M  V30 9 C 8.689866 5.838965 -8.138226 0
M  V30 10 C 9.089212 7.034940 -7.262490 0
M  V30 11 C 10.611199 7.256097 -7.212489 0
M  V30 12 C 10.972364 8.291017 -6.210612 0
M  V30 13 N 10.885298 9.586082 -6.502356 0
M  V30 14 O 11.282646 10.297569 -5.339268 0
M  V30 15 C 11.627830 9.397947 -4.344964 0
M  V30 16 C 12.085835 9.582436 -3.041108 0
M  V30 17 C 12.381707 8.432869 -2.284449 0
M  V30 18 F 12.888764 8.572239 -1.047143 0
M  V30 19 C 12.168804 7.139304 -2.816810 0
M  V30 20 C 11.686347 6.978992 -4.134150 0
M  V30 21 C 11.428587 8.136320 -4.898217 0
M  V30 22 C 8.438041 4.982708 -10.429004 0
M  V30 23 C 7.429893 3.204739 -14.056808 0
M  V30 24 C 7.138086 1.839766 -14.247124 0
M  V30 25 C 8.018092 1.030749 -14.992172 0
M  V30 26 C 9.184045 1.587127 -15.562489 0
M  V30 27 C 10.135267 0.697885 -16.344492 0
M  V30 28 F 10.480162 -0.335560 -15.582606 0
M  V30 29 F 9.529721 0.244808 -17.442070 0
M  V30 30 F 11.245915 1.344114 -16.705593 0
M  V30 31 C 9.450638 2.963810 -15.395713 0
M  V30 32 C 8.575948 3.772451 -14.646901 0
M  V30 33 H 7.328587 6.316751 -13.446776 0
M  V30 34 H 6.512617 6.282698 -11.912096 0
M  V30 35 H 9.189421 4.840884 -12.407084 0
M  V30 36 H 10.212108 6.898987 -12.267438 0
M  V30 37 H 8.660416 7.699240 -12.063952 0
M  V30 38 H 10.499371 6.630229 -9.990101 0
M  V30 39 H 9.449652 8.064928 -9.888798 0
M  V30 40 H 7.749535 5.422564 -7.775868 0
M  V30 41 H 9.427984 5.042832 -8.029374 0
M  V30 42 H 8.560036 7.939912 -7.563135 0
M  V30 43 H 8.753563 6.823024 -6.247030 0
M  V30 44 H 11.113875 6.320215 -6.964589 0
M  V30 45 H 11.018384 7.569540 -8.167534 0
M  V30 46 H 12.227963 10.572529 -2.642066 0
M  V30 47 H 12.385651 6.268382 -2.214797 0
M  V30 48 H 11.525613 5.992310 -4.544094 0
M  V30 49 H 7.575749 4.358256 -10.246849 0
M  V30 50 H 9.312551 4.359656 -10.225254 0
M  V30 51 H 6.253436 1.409083 -13.800767 0
M  V30 52 H 7.802927 -0.021678 -15.120281 0
M  V30 53 H 10.329260 3.407969 -15.841907 0
M  V30 54 H 8.791515 4.824305 -14.554710 0
M  V30 55 H 7.605067 6.681621 -9.666288 0
M  V30 END ATOM
M  V30 BEGIN BOND
M  V30 1 2 2 1
M  V30 2 2 3 2
M  V30 3 1 4 2
M  V30 4 1 5 4
M  V30 5 1 6 5
M  V30 6 1 7 6
M  V30 7 1 8 7
M  V30 8 1 9 8
M  V30 9 1 10 9
M  V30 10 1 11 10
M  V30 11 1 12 11
M  V30 12 2 13 12
M  V30 13 1 14 13
M  V30 14 1 15 14
M  V30 15 1 16 15
M  V30 16 2 17 16
M  V30 17 1 18 17
M  V30 18 1 19 17
M  V30 19 2 20 19
M  V30 20 1 21 12
M  V30 21 2 21 15
M  V30 22 1 21 20
M  V30 23 1 22 5
M  V30 24 1 22 8
M  V30 25 1 23 2
M  V30 26 1 24 23
M  V30 27 2 25 24
M  V30 28 1 26 25
M  V30 29 1 27 26
M  V30 30 1 28 27
M  V30 31 1 29 27
M  V30 32 1 30 27
M  V30 33 2 31 26
M  V30 34 2 32 23
M  V30 35 1 32 31
M  V30 36 1 33 4
M  V30 37 1 34 4
M  V30 38 1 5 35 CFG=3
M  V30 39 1 36 6
M  V30 40 1 37 6
M  V30 41 1 38 7
M  V30 42 1 39 7
M  V30 43 1 40 9
M  V30 44 1 41 9
M  V30 45 1 42 10
M  V30 46 1 43 10
M  V30 47 1 44 11
M  V30 48 1 45 11
M  V30 49 1 46 16
M  V30 50 1 47 19
M  V30 51 1 48 20
M  V30 52 1 49 22
M  V30 53 1 50 22
M  V30 54 1 51 24
M  V30 55 1 52 25
M  V30 56 1 53 31
M  V30 57 1 54 32
M  V30 58 1 8 55 CFG=1
M  V30 END BOND
M  V30 END CTAB
M  END
>  <b_m_subgroup_collapsed>  (55) 
0

>  <r_i_docking_score>  (55) 
-9.44133979526754

>  <s_m_subgroup_title>  (55) 
glide-dock_SP_D22_pv

>  <s_m_subgroupid>  (55) 
glide-dock_SP_D22_pv

>  <Molecule ChEMBL ID>  (55) 
CHEMBL5089348

>  <Standard Type>  (55) 
Ki

>  <Standard Value>  (55) 
95.5

>  <label>  (55) 
1

$$$$
CHEMBL3102875
     RDKit          3D

  0  0  0  0  0  0  0  0  0  0999 V3000
M  V30 BEGIN CTAB
M  V30 COUNTS 57 60 0 0 1
M  V30 BEGIN ATOM
M  V30 1 C 11.403594 1.903326 -16.613089 0
M  V30 2 C 10.348203 0.992866 -15.990177 0
M  V30 3 O 10.464250 -0.225159 -16.122961 0
M  V30 4 C 9.215405 1.641715 -15.271659 0
M  V30 5 C 8.052032 0.893188 -14.990656 0
M  V30 6 C 6.976841 1.477743 -14.295148 0
M  V30 7 C 7.051943 2.815467 -13.846915 0
M  V30 8 C 8.223457 3.569552 -14.111602 0
M  V30 9 C 9.289539 2.982587 -14.827231 0
M  V30 10 C 8.364841 5.007246 -13.628825 0
M  V30 11 C 7.478775 5.334682 -12.409741 0 CFG=2
M  V30 12 C 8.085217 4.748638 -11.109480 0
M  V30 13 N 8.486156 5.772229 -10.112163 0 CFG=2 CHG=1
M  V30 14 C 9.643775 6.578701 -10.561116 0
M  V30 15 C 9.979776 7.678056 -9.548026 0
M  V30 16 C 10.179852 7.155966 -8.094736 0 CFG=1
M  V30 17 C 10.247212 8.338534 -7.113547 0
M  V30 18 O 9.686744 9.372322 -7.446873 0
M  V30 19 C 10.944668 8.227660 -5.799007 0
M  V30 20 C 11.285952 6.987820 -5.211577 0
M  V30 21 C 11.847507 6.944608 -3.917975 0
M  V30 22 C 12.085981 8.132528 -3.203408 0
M  V30 23 F 12.593214 8.085938 -1.950017 0
M  V30 24 C 11.772460 9.371268 -3.786499 0
M  V30 25 C 11.207425 9.417872 -5.075217 0
M  V30 26 C 8.999243 6.241392 -7.726326 0
M  V30 27 C 8.776227 5.161106 -8.788645 0
M  V30 28 C 6.034253 4.852965 -12.648795 0
M  V30 29 C 5.937136 3.374132 -13.034232 0
M  V30 30 O 4.973172 2.713854 -12.649104 0
M  V30 31 H 10.932988 2.708617 -17.176790 0
M  V30 32 H 12.037515 2.335861 -15.839382 0
M  V30 33 H 12.038703 1.335589 -17.293394 0
M  V30 34 H 7.974497 -0.138313 -15.307116 0
M  V30 35 H 6.101105 0.878214 -14.088937 0
M  V30 36 H 10.174341 3.573611 -15.013239 0
M  V30 37 H 8.087876 5.653952 -14.459786 0
M  V30 38 H 9.410580 5.229112 -13.411822 0
M  V30 39 H 7.426098 6.420097 -12.314686 0
M  V30 40 H 8.944651 4.114087 -11.330659 0
M  V30 41 H 7.349660 4.090697 -10.646761 0
M  V30 42 H 9.443236 7.042536 -11.526580 0
M  V30 43 H 10.485986 5.912364 -10.704906 0
M  V30 44 H 9.156178 8.393854 -9.594781 0
M  V30 45 H 10.869116 8.218267 -9.875153 0
M  V30 46 H 11.111894 6.592855 -8.041464 0
M  V30 47 H 11.109166 6.057770 -5.727175 0
M  V30 48 H 12.086743 5.992599 -3.466698 0
M  V30 49 H 11.945437 10.280696 -3.230623 0
M  V30 50 H 10.953543 10.382562 -5.492495 0
M  V30 51 H 9.165404 5.772562 -6.759732 0
M  V30 52 H 8.086976 6.827639 -7.611043 0
M  V30 53 H 7.955382 4.521362 -8.471430 0
M  V30 54 H 9.653585 4.515698 -8.861099 0
M  V30 55 H 5.429789 5.030373 -11.758371 0
M  V30 56 H 5.578125 5.435801 -13.447742 0
M  V30 57 H 7.697870 6.408781 -9.994591 0
M  V30 END ATOM
M  V30 BEGIN BOND
M  V30 1 1 2 1
M  V30 2 2 3 2
M  V30 3 1 4 2
M  V30 4 1 5 4
M  V30 5 2 6 5
M  V30 6 1 7 6
M  V30 7 2 8 7
M  V30 8 2 9 4
M  V30 9 1 9 8
M  V30 10 1 10 8
M  V30 11 1 11 10
M  V30 12 1 12 11
M  V30 13 1 13 12
M  V30 14 1 14 13
M  V30 15 1 15 14
M  V30 16 1 16 15
M  V30 17 1 17 16
M  V30 18 2 18 17
M  V30 19 1 19 17
M  V30 20 1 20 19
M  V30 21 2 21 20
M  V30 22 1 22 21
M  V30 23 1 23 22
M  V30 24 2 24 22
M  V30 25 2 25 19
M  V30 26 1 25 24
M  V30 27 1 26 16
M  V30 28 1 27 13
M  V30 29 1 27 26
M  V30 30 1 28 11
M  V30 31 1 29 7
M  V30 32 1 29 28
M  V30 33 2 30 29
M  V30 34 1 31 1
M  V30 35 1 32 1
M  V30 36 1 33 1
M  V30 37 1 34 5
M  V30 38 1 35 6
M  V30 39 1 36 9
M  V30 40 1 37 10
M  V30 41 1 38 10
M  V30 42 1 11 39 CFG=1
M  V30 43 1 40 12
M  V30 44 1 41 12
M  V30 45 1 42 14
M  V30 46 1 43 14
M  V30 47 1 44 15
M  V30 48 1 45 15
M  V30 49 1 16 46 CFG=3
M  V30 50 1 47 20
M  V30 51 1 48 21
M  V30 52 1 49 24
M  V30 53 1 50 25
M  V30 54 1 51 26
M  V30 55 1 52 26
M  V30 56 1 53 27
M  V30 57 1 54 27
M  V30 58 1 55 28
M  V30 59 1 56 28
M  V30 60 1 13 57 CFG=1
M  V30 END BOND
M  V30 END CTAB
M  END
>  <b_m_subgroup_collapsed>  (56) 
0

>  <r_i_docking_score>  (56) 
-9.4389442733562401

>  <s_m_subgroup_title>  (56) 
glide-dock_SP_D22_pv

>  <s_m_subgroupid>  (56) 
glide-dock_SP_D22_pv

>  <Molecule ChEMBL ID>  (56) 
CHEMBL3102875

>  <Standard Type>  (56) 
Ki

>  <Standard Value>  (56) 
32.36

>  <label>  (56) 
1

$$$$
CHEMBL1259187
     RDKit          3D

  0  0  0  0  0  0  0  0  0  0999 V3000
M  V30 BEGIN CTAB
M  V30 COUNTS 68 72 0 0 1
M  V30 BEGIN ATOM
M  V30 1 C 3.478482 -1.113130 -16.146132 0
M  V30 2 C 4.391153 -0.764256 -14.981012 0
M  V30 3 O 3.924762 -0.627610 -13.847816 0
M  V30 4 N 5.693789 -0.651829 -15.267781 0
M  V30 5 C 6.755453 -0.482610 -14.289420 0
M  V30 6 C 7.722476 0.630758 -14.646633 0
M  V30 7 C 8.942588 0.360552 -15.299713 0
M  V30 8 C 9.868288 1.397198 -15.524942 0
M  V30 9 C 9.585416 2.699096 -15.063087 0
M  V30 10 C 8.366920 2.990133 -14.377846 0
M  V30 11 C 7.424665 1.944813 -14.246875 0
M  V30 12 C 8.396729 4.356524 -13.940069 0
M  V30 13 C 7.324658 5.064042 -13.140754 0 CFG=1
M  V30 14 C 7.079788 4.438564 -11.766067 0
M  V30 15 C 8.234324 4.715684 -10.777720 0
M  V30 16 N 8.485999 6.172322 -10.607422 0 CFG=1 CHG=1
M  V30 17 C 9.547565 6.458889 -9.611438 0
M  V30 18 C 9.425661 7.881055 -9.025793 0
M  V30 19 N 10.517158 8.217004 -8.119416 0
M  V30 20 C 10.247848 8.615635 -6.748075 0
M  V30 21 C 11.594109 9.169744 -6.281459 0
M  V30 22 N 12.429802 8.972323 -7.447016 0
M  V30 23 C 11.791884 8.420257 -8.477261 0
M  V30 24 O 12.285398 8.171837 -9.574524 0
M  V30 25 C 8.708589 6.853444 -11.909137 0
M  V30 26 C 7.559890 6.565332 -12.897652 0
M  V30 27 C 9.565458 4.867459 -14.439749 0
M  V30 28 N 10.282239 3.901575 -15.128682 0
M  V30 29 C 11.505423 4.162924 -15.791960 0
M  V30 30 C 12.460591 5.020202 -15.198714 0
M  V30 31 C 13.630896 5.372355 -15.897260 0
M  V30 32 C 13.866672 4.853833 -17.185717 0
M  V30 33 F 14.998052 5.183887 -17.853680 0
M  V30 34 C 12.928106 3.985931 -17.775009 0
M  V30 35 C 11.747705 3.646794 -17.084709 0
M  V30 36 H 3.400607 -2.198509 -16.253937 0
M  V30 37 H 2.486092 -0.709276 -15.961309 0
M  V30 38 H 3.847002 -0.693254 -17.083454 0
M  V30 39 H 5.984161 -0.800286 -16.222790 0
M  V30 40 H 7.285977 -1.424789 -14.203930 0
M  V30 41 H 6.356851 -0.284443 -13.292964 0
M  V30 42 H 9.179832 -0.642645 -15.615275 0
M  V30 43 H 10.802331 1.186585 -16.022554 0
M  V30 44 H 6.486576 2.141766 -13.748901 0
M  V30 45 H 6.393436 4.972153 -13.702898 0
M  V30 46 H 6.152023 4.871005 -11.397717 0
M  V30 47 H 6.885628 3.372341 -11.842444 0
M  V30 48 H 9.146344 4.227808 -11.125342 0
M  V30 49 H 7.996662 4.276488 -9.808338 0
M  V30 50 H 9.473363 5.749590 -8.785458 0
M  V30 51 H 10.520873 6.290695 -10.070953 0
M  V30 52 H 9.404652 8.639535 -9.807830 0
M  V30 53 H 8.485887 7.973159 -8.486802 0
M  V30 54 H 9.467045 9.372128 -6.716893 0
M  V30 55 H 9.929345 7.755648 -6.155994 0
M  V30 56 H 11.987047 8.623072 -5.422886 0
M  V30 57 H 11.533802 10.229748 -6.030892 0
M  V30 58 H 13.399234 9.258615 -7.481490 0
M  V30 59 H 9.673069 6.549330 -12.311643 0
M  V30 60 H 8.759574 7.931548 -11.765725 0
M  V30 61 H 7.702632 7.076416 -13.840493 0
M  V30 62 H 6.645917 6.998117 -12.486999 0
M  V30 63 H 9.962940 5.864764 -14.382055 0
M  V30 64 H 12.296756 5.426522 -14.211441 0
M  V30 65 H 14.354168 6.034289 -15.443143 0
M  V30 66 H 13.106186 3.592299 -18.764812 0
M  V30 67 H 11.021195 3.009891 -17.567297 0
M  V30 68 H 7.627469 6.598951 -10.247312 0
M  V30 END ATOM
M  V30 BEGIN BOND
M  V30 1 1 2 1
M  V30 2 2 3 2
M  V30 3 1 4 2
M  V30 4 1 5 4
M  V30 5 1 6 5
M  V30 6 1 7 6
M  V30 7 2 8 7
M  V30 8 1 9 8
M  V30 9 2 10 9
M  V30 10 2 11 6
M  V30 11 1 11 10
M  V30 12 1 12 10
M  V30 13 1 13 12
M  V30 14 1 14 13
M  V30 15 1 15 14
M  V30 16 1 16 15
M  V30 17 1 17 16
M  V30 18 1 18 17
M  V30 19 1 19 18
M  V30 20 1 20 19
M  V30 21 1 21 20
M  V30 22 1 22 21
M  V30 23 1 23 19
M  V30 24 1 23 22
M  V30 25 2 24 23
M  V30 26 1 25 16
M  V30 27 1 26 13
M  V30 28 1 26 25
M  V30 29 2 27 12
M  V30 30 1 28 9
M  V30 31 1 28 27
M  V30 32 1 29 28
M  V30 33 1 30 29
M  V30 34 2 31 30
M  V30 35 1 32 31
M  V30 36 1 33 32
M  V30 37 2 34 32
M  V30 38 2 35 29
M  V30 39 1 35 34
M  V30 40 1 36 1
M  V30 41 1 37 1
M  V30 42 1 38 1
M  V30 43 1 39 4
M  V30 44 1 40 5
M  V30 45 1 41 5
M  V30 46 1 42 7
M  V30 47 1 43 8
M  V30 48 1 44 11
M  V30 49 1 13 45 CFG=3
M  V30 50 1 46 14
M  V30 51 1 47 14
M  V30 52 1 48 15
M  V30 53 1 49 15
M  V30 54 1 50 17
M  V30 55 1 51 17
M  V30 56 1 52 18
M  V30 57 1 53 18
M  V30 58 1 54 20
M  V30 59 1 55 20
M  V30 60 1 56 21
M  V30 61 1 57 21
M  V30 62 1 58 22
M  V30 63 1 59 25
M  V30 64 1 60 25
M  V30 65 1 61 26
M  V30 66 1 62 26
M  V30 67 1 63 27
M  V30 68 1 64 30
M  V30 69 1 65 31
M  V30 70 1 66 34
M  V30 71 1 67 35
M  V30 72 1 16 68 CFG=1
M  V30 END BOND
M  V30 END CTAB
M  END
>  <b_m_subgroup_collapsed>  (57) 
0

>  <r_i_docking_score>  (57) 
-9.4371435160186401

>  <s_m_subgroup_title>  (57) 
glide-dock_SP_D22_pv

>  <s_m_subgroupid>  (57) 
glide-dock_SP_D22_pv

>  <Molecule ChEMBL ID>  (57) 
CHEMBL1259187

>  <Standard Type>  (57) 
Ki

>  <Standard Value>  (57) 
3.1

>  <label>  (57) 
1

$$$$
CHEMBL5987244
     RDKit          3D

  0  0  0  0  0  0  0  0  0  0999 V3000
M  V30 BEGIN CTAB
M  V30 COUNTS 56 60 0 0 1
M  V30 BEGIN ATOM
M  V30 1 C 7.375538 0.730065 -15.654560 0
M  V30 2 C 7.052658 1.783800 -14.615894 0
M  V30 3 C 5.870125 1.711279 -13.846829 0
M  V30 4 C 5.571829 2.713996 -12.893853 0
M  V30 5 C 6.475486 3.772126 -12.645316 0
M  V30 6 C 7.692062 3.803068 -13.363936 0
M  V30 7 C 8.844497 4.603104 -13.211454 0
M  V30 8 C 9.238344 5.555141 -12.113449 0 CFG=1
M  V30 9 C 8.459876 6.878133 -12.088302 0
M  V30 10 C 9.030612 7.785867 -10.978142 0
M  V30 11 N 8.886041 7.111129 -9.663904 0 CFG=2 CHG=1
M  V30 12 C 9.149787 7.951303 -8.470386 0
M  V30 13 C 10.634043 8.350183 -8.305202 0
M  V30 14 N 11.062314 8.129375 -6.921481 0
M  V30 15 C 11.471769 6.736208 -6.686502 0
M  V30 16 C 11.392917 6.280381 -5.234652 0
M  V30 17 C 11.695068 7.363771 -4.246955 0
M  V30 18 C 12.120297 7.021682 -2.952591 0
M  V30 19 C 12.352762 8.057613 -2.040871 0
M  V30 20 C 12.086752 9.371813 -2.445753 0
M  V30 21 N 11.698022 9.708379 -3.689768 0
M  V30 22 C 11.534365 8.721481 -4.596851 0
M  V30 23 C 11.131861 9.116089 -5.993692 0
M  V30 24 O 10.886209 10.294318 -6.246821 0
M  V30 25 C 9.529663 5.772257 -9.599257 0
M  V30 26 C 9.094291 4.865125 -10.746655 0
M  V30 27 N 9.736273 4.251483 -14.136584 0
M  V30 28 O 9.186613 3.154069 -14.855895 0
M  V30 29 C 7.937063 2.840624 -14.346446 0
M  V30 30 H 6.477123 0.440285 -16.201315 0
M  V30 31 H 8.107111 1.101443 -16.373043 0
M  V30 32 H 7.786849 -0.158956 -15.174526 0
M  V30 33 H 5.172094 0.902614 -14.007374 0
M  V30 34 H 4.651821 2.653045 -12.332855 0
M  V30 35 H 6.249544 4.507583 -11.887273 0
M  V30 36 H 10.293390 5.802596 -12.246846 0
M  V30 37 H 8.489226 7.385841 -13.046858 0
M  V30 38 H 7.403872 6.677177 -11.902164 0
M  V30 39 H 8.486017 8.731208 -10.965519 0
M  V30 40 H 10.077628 8.023892 -11.170530 0
M  V30 41 H 8.785279 7.405745 -7.597691 0
M  V30 42 H 8.528449 8.847596 -8.519404 0
M  V30 43 H 10.764291 9.391213 -8.601949 0
M  V30 44 H 11.300094 7.803221 -8.971464 0
M  V30 45 H 12.485904 6.607333 -7.047823 0
M  V30 46 H 10.882233 6.040482 -7.276344 0
M  V30 47 H 12.086391 5.458838 -5.084623 0
M  V30 48 H 10.389623 5.931019 -5.007408 0
M  V30 49 H 12.269380 5.990820 -2.664828 0
M  V30 50 H 12.707164 7.853681 -1.046789 0
M  V30 51 H 12.218349 10.172354 -1.742109 0
M  V30 52 H 10.612686 5.866487 -9.626529 0
M  V30 53 H 9.269332 5.288393 -8.657334 0
M  V30 54 H 9.685688 3.948922 -10.730173 0
M  V30 55 H 8.061745 4.567025 -10.570088 0
M  V30 56 H 7.876173 6.969562 -9.625791 0
M  V30 END ATOM
M  V30 BEGIN BOND
M  V30 1 1 2 1
M  V30 2 1 3 2
M  V30 3 2 4 3
M  V30 4 1 5 4
M  V30 5 2 6 5
M  V30 6 1 7 6
M  V30 7 1 8 7
M  V30 8 1 9 8
M  V30 9 1 10 9
M  V30 10 1 11 10
M  V30 11 1 12 11
M  V30 12 1 13 12
M  V30 13 1 14 13
M  V30 14 1 15 14
M  V30 15 1 16 15
M  V30 16 1 17 16
M  V30 17 2 18 17
M  V30 18 1 19 18
M  V30 19 2 20 19
M  V30 20 1 21 20
M  V30 21 1 22 17
M  V30 22 2 22 21
M  V30 23 1 23 14
M  V30 24 1 23 22
M  V30 25 2 24 23
M  V30 26 1 25 11
M  V30 27 1 26 8
M  V30 28 1 26 25
M  V30 29 2 27 7
M  V30 30 1 28 27
M  V30 31 2 29 2
M  V30 32 1 29 6
M  V30 33 1 29 28
M  V30 34 1 30 1
M  V30 35 1 31 1
M  V30 36 1 32 1
M  V30 37 1 33 3
M  V30 38 1 34 4
M  V30 39 1 35 5
M  V30 40 1 8 36 CFG=3
M  V30 41 1 37 9
M  V30 42 1 38 9
M  V30 43 1 39 10
M  V30 44 1 40 10
M  V30 45 1 41 12
M  V30 46 1 42 12
M  V30 47 1 43 13
M  V30 48 1 44 13
M  V30 49 1 45 15
M  V30 50 1 46 15
M  V30 51 1 47 16
M  V30 52 1 48 16
M  V30 53 1 49 18
M  V30 54 1 50 19
M  V30 55 1 51 20
M  V30 56 1 52 25
M  V30 57 1 53 25
M  V30 58 1 54 26
M  V30 59 1 55 26
M  V30 60 1 11 56 CFG=1
M  V30 END BOND
M  V30 END CTAB
M  END
>  <b_m_subgroup_collapsed>  (58) 
0

>  <r_i_docking_score>  (58) 
-9.4314315412718308

>  <s_m_subgroup_title>  (58) 
glide-dock_SP_D22_pv

>  <s_m_subgroupid>  (58) 
glide-dock_SP_D22_pv

>  <Molecule ChEMBL ID>  (58) 
CHEMBL5987244

>  <Standard Type>  (58) 
Ki

>  <Standard Value>  (58) 
10000.0

>  <label>  (58) 
0

$$$$
CHEMBL335844
     RDKit          3D

  0  0  0  0  0  0  0  0  0  0999 V3000
M  V30 BEGIN CTAB
M  V30 COUNTS 59 63 0 0 1
M  V30 BEGIN ATOM
M  V30 1 O 10.810020 2.239157 -15.588937 0
M  V30 2 C 11.285864 3.361631 -15.426167 0
M  V30 3 C 12.308529 3.997501 -16.290770 0
M  V30 4 C 12.944182 3.516255 -17.446903 0
M  V30 5 C 13.876656 4.378429 -18.073027 0
M  V30 6 C 14.135981 5.673271 -17.549204 0
M  V30 7 C 13.470090 6.128326 -16.386837 0
M  V30 8 F 13.686121 7.370193 -15.895423 0
M  V30 9 C 12.564510 5.245473 -15.778770 0
M  V30 10 C 11.715674 5.416185 -14.575894 0
M  V30 11 O 11.685984 6.408493 -13.847352 0
M  V30 12 N 10.993909 4.270915 -14.461704 0
M  V30 13 C 9.968513 4.073796 -13.437066 0
M  V30 14 C 8.578740 4.499382 -13.952630 0
M  V30 15 C 7.438886 4.440704 -12.916943 0
M  V30 16 C 7.562740 5.465682 -11.773311 0
M  V30 17 C 8.298136 4.939322 -10.524756 0
M  V30 18 N 8.632501 6.022408 -9.566319 0 CFG=2 CHG=1
M  V30 19 C 9.801047 6.818834 -10.037606 0
M  V30 20 C 10.521356 7.584496 -8.941061 0
M  V30 21 C 10.256006 7.485659 -7.624411 0
M  V30 22 C 10.901000 8.405378 -6.673980 0
M  V30 23 C 11.286563 9.672367 -7.001279 0
M  V30 24 N 11.692409 10.307828 -5.847202 0
M  V30 25 C 11.711885 9.425480 -4.785032 0
M  V30 26 C 12.069837 9.600207 -3.437561 0
M  V30 27 C 12.092407 8.492138 -2.583431 0
M  V30 28 C 11.757400 7.224901 -3.082670 0
M  V30 29 F 11.816607 6.172342 -2.247366 0
M  V30 30 C 11.342518 7.057148 -4.422213 0
M  V30 31 C 11.286001 8.163508 -5.306686 0
M  V30 32 C 9.101534 6.612391 -7.178098 0
M  V30 33 C 8.800900 5.496072 -8.188807 0
M  V30 34 H 12.732249 2.531555 -17.837099 0
M  V30 35 H 14.392109 4.049407 -18.963133 0
M  V30 36 H 14.841534 6.322362 -18.045969 0
M  V30 37 H 10.253337 4.666895 -12.571637 0
M  V30 38 H 9.953111 3.033551 -13.106330 0
M  V30 39 H 8.313081 3.851749 -14.789342 0
M  V30 40 H 8.631332 5.509722 -14.361320 0
M  V30 41 H 7.315611 3.430678 -12.529070 0
M  V30 42 H 6.511342 4.655100 -13.449546 0
M  V30 43 H 6.561512 5.768982 -11.462534 0
M  V30 44 H 8.029910 6.371300 -12.159179 0
M  V30 45 H 9.204475 4.394600 -10.775187 0
M  V30 46 H 7.685954 4.185362 -10.038623 0
M  V30 47 H 9.466906 7.530363 -10.793226 0
M  V30 48 H 10.536014 6.171384 -10.512719 0
M  V30 49 H 11.295609 8.252674 -9.289329 0
M  V30 50 H 11.284387 10.172176 -7.954545 0
M  V30 51 H 11.987222 11.273574 -5.825041 0
M  V30 52 H 12.342678 10.569052 -3.046937 0
M  V30 53 H 12.380023 8.610021 -1.548796 0
M  V30 54 H 11.068064 6.071769 -4.766122 0
M  V30 55 H 9.328684 6.172362 -6.210918 0
M  V30 56 H 8.224603 7.245086 -7.029181 0
M  V30 57 H 9.613153 4.768450 -8.193783 0
M  V30 58 H 7.902027 4.968173 -7.871137 0
M  V30 59 H 7.832911 6.654682 -9.538360 0
M  V30 END ATOM
M  V30 BEGIN BOND
M  V30 1 2 2 1
M  V30 2 1 3 2
M  V30 3 2 4 3
M  V30 4 1 5 4
M  V30 5 2 6 5
M  V30 6 1 7 6
M  V30 7 1 8 7
M  V30 8 1 9 3
M  V30 9 2 9 7
M  V30 10 1 10 9
M  V30 11 2 11 10
M  V30 12 1 12 2
M  V30 13 1 12 10
M  V30 14 1 13 12
M  V30 15 1 14 13
M  V30 16 1 15 14
M  V30 17 1 16 15
M  V30 18 1 17 16
M  V30 19 1 18 17
M  V30 20 1 19 18
M  V30 21 1 20 19
M  V30 22 2 21 20
M  V30 23 1 22 21
M  V30 24 2 23 22
M  V30 25 1 24 23
M  V30 26 1 25 24
M  V30 27 1 26 25
M  V30 28 2 27 26
M  V30 29 1 28 27
M  V30 30 1 29 28
M  V30 31 2 30 28
M  V30 32 1 31 22
M  V30 33 2 31 25
M  V30 34 1 31 30
M  V30 35 1 32 21
M  V30 36 1 33 18
M  V30 37 1 33 32
M  V30 38 1 34 4
M  V30 39 1 35 5
M  V30 40 1 36 6
M  V30 41 1 37 13
M  V30 42 1 38 13
M  V30 43 1 39 14
M  V30 44 1 40 14
M  V30 45 1 41 15
M  V30 46 1 42 15
M  V30 47 1 43 16
M  V30 48 1 44 16
M  V30 49 1 45 17
M  V30 50 1 46 17
M  V30 51 1 47 19
M  V30 52 1 48 19
M  V30 53 1 49 20
M  V30 54 1 50 23
M  V30 55 1 51 24
M  V30 56 1 52 26
M  V30 57 1 53 27
M  V30 58 1 54 30
M  V30 59 1 55 32
M  V30 60 1 56 32
M  V30 61 1 57 33
M  V30 62 1 58 33
M  V30 63 1 18 59 CFG=1
M  V30 END BOND
M  V30 END CTAB
M  END
>  <b_m_subgroup_collapsed>  (59) 
0

>  <r_i_docking_score>  (59) 
-9.4266278996071193

>  <s_m_subgroup_title>  (59) 
glide-dock_SP_D22_pv

>  <s_m_subgroupid>  (59) 
glide-dock_SP_D22_pv

>  <Molecule ChEMBL ID>  (59) 
CHEMBL335844

>  <Standard Type>  (59) 
Ki

>  <Standard Value>  (59) 
12.0

>  <label>  (59) 
1

$$$$
CHEMBL422618
     RDKit          3D

  0  0  0  0  0  0  0  0  0  0999 V3000
M  V30 BEGIN CTAB
M  V30 COUNTS 62 66 0 0 1
M  V30 BEGIN ATOM
M  V30 1 C 10.140987 -1.427527 -17.954802 0
M  V30 2 C 10.512619 -0.052452 -17.455694 0
M  V30 3 C 11.598937 0.641400 -18.023144 0
M  V30 4 C 11.925624 1.930534 -17.561090 0
M  V30 5 C 11.171659 2.528742 -16.532015 0
M  V30 6 C 10.083458 1.850832 -15.925623 0
M  V30 7 C 9.121713 2.135311 -14.891904 0
M  V30 8 C 9.040239 3.361771 -14.088402 0
M  V30 9 C 10.156335 4.029622 -13.753801 0
M  V30 10 C 10.165950 5.360092 -13.030501 0
M  V30 11 N 8.857858 5.718444 -12.427891 0 CFG=1 CHG=1
M  V30 12 C 8.854770 7.114224 -11.912470 0
M  V30 13 C 9.540756 7.237446 -10.533036 0
M  V30 14 C 10.003670 8.674350 -10.235033 0
M  V30 15 C 10.793700 8.825157 -8.923853 0
M  V30 16 C 9.901664 8.839178 -7.670792 0
M  V30 17 N 10.666389 8.655685 -6.432424 0
M  V30 18 C 11.044083 7.429994 -5.997860 0
M  V30 19 O 10.942730 6.356696 -6.585399 0
M  V30 20 C 11.628318 7.630849 -4.647813 0
M  V30 21 C 12.060243 6.698215 -3.699024 0
M  V30 22 C 12.485912 7.194403 -2.447833 0
M  V30 23 C 12.486003 8.587874 -2.181742 0
M  V30 24 C 12.049649 9.507634 -3.162873 0
M  V30 25 C 11.624044 8.975519 -4.391826 0
M  V30 26 C 11.028347 9.642334 -5.570735 0
M  V30 27 O 10.887325 10.852963 -5.686204 0
M  V30 28 C 7.782568 5.454974 -13.401732 0
M  V30 29 C 7.685378 3.951301 -13.731507 0
M  V30 30 C 8.281281 1.066183 -14.763599 0
M  V30 31 N 8.681026 0.113858 -15.684503 0
M  V30 32 C 9.773004 0.548413 -16.418135 0
M  V30 33 H 10.885405 -1.817842 -18.646963 0
M  V30 34 H 10.075424 -2.107372 -17.110683 0
M  V30 35 H 9.175404 -1.401691 -18.461168 0
M  V30 36 H 12.181882 0.198026 -18.817101 0
M  V30 37 H 12.755013 2.465666 -18.001726 0
M  V30 38 H 11.434391 3.525190 -16.211117 0
M  V30 39 H 11.128441 3.639786 -14.015219 0
M  V30 40 H 10.886333 5.303772 -12.246860 0
M  V30 41 H 10.502566 6.124564 -13.732030 0
M  V30 42 H 9.340520 7.762817 -12.642477 0
M  V30 43 H 7.832740 7.485010 -11.846891 0
M  V30 44 H 8.856639 6.886812 -9.758407 0
M  V30 45 H 10.414040 6.586965 -10.477648 0
M  V30 46 H 10.663494 8.972848 -11.046826 0
M  V30 47 H 9.155888 9.360521 -10.246694 0
M  V30 48 H 11.543161 8.033414 -8.861138 0
M  V30 49 H 11.349453 9.762230 -8.957579 0
M  V30 50 H 9.333210 9.768814 -7.642716 0
M  V30 51 H 9.150118 8.049488 -7.733703 0
M  V30 52 H 12.053733 5.646249 -3.915486 0
M  V30 53 H 12.822981 6.499956 -1.692047 0
M  V30 54 H 12.815847 8.954269 -1.219825 0
M  V30 55 H 12.019543 10.570144 -2.965737 0
M  V30 56 H 8.086014 6.006909 -14.293083 0
M  V30 57 H 6.822770 5.832960 -13.047074 0
M  V30 58 H 7.013553 3.820046 -14.579872 0
M  V30 59 H 7.255846 3.375758 -12.910048 0
M  V30 60 H 7.445803 0.896857 -14.098557 0
M  V30 61 H 8.233314 -0.792954 -15.774631 0
M  V30 62 H 8.684432 5.109656 -11.640562 0
M  V30 END ATOM
M  V30 BEGIN BOND
M  V30 1 1 2 1
M  V30 2 1 3 2
M  V30 3 2 4 3
M  V30 4 1 5 4
M  V30 5 2 6 5
M  V30 6 1 7 6
M  V30 7 1 8 7
M  V30 8 2 9 8
M  V30 9 1 10 9
M  V30 10 1 11 10
M  V30 11 1 12 11
M  V30 12 1 13 12
M  V30 13 1 14 13
M  V30 14 1 15 14
M  V30 15 1 16 15
M  V30 16 1 17 16
M  V30 17 1 18 17
M  V30 18 2 19 18
M  V30 19 1 20 18
M  V30 20 2 21 20
M  V30 21 1 22 21
M  V30 22 2 23 22
M  V30 23 1 24 23
M  V30 24 1 25 20
M  V30 25 2 25 24
M  V30 26 1 26 17
M  V30 27 1 26 25
M  V30 28 2 27 26
M  V30 29 1 28 11
M  V30 30 1 29 8
M  V30 31 1 29 28
M  V30 32 2 30 7
M  V30 33 1 31 30
M  V30 34 2 32 2
M  V30 35 1 32 6
M  V30 36 1 32 31
M  V30 37 1 33 1
M  V30 38 1 34 1
M  V30 39 1 35 1
M  V30 40 1 36 3
M  V30 41 1 37 4
M  V30 42 1 38 5
M  V30 43 1 39 9
M  V30 44 1 40 10
M  V30 45 1 41 10
M  V30 46 1 42 12
M  V30 47 1 43 12
M  V30 48 1 44 13
M  V30 49 1 45 13
M  V30 50 1 46 14
M  V30 51 1 47 14
M  V30 52 1 48 15
M  V30 53 1 49 15
M  V30 54 1 50 16
M  V30 55 1 51 16
M  V30 56 1 52 21
M  V30 57 1 53 22
M  V30 58 1 54 23
M  V30 59 1 55 24
M  V30 60 1 56 28
M  V30 61 1 57 28
M  V30 62 1 58 29
M  V30 63 1 59 29
M  V30 64 1 60 30
M  V30 65 1 61 31
M  V30 66 1 11 62 CFG=1
M  V30 END BOND
M  V30 END CTAB
M  END
>  <b_m_subgroup_collapsed>  (60) 
0

>  <r_i_docking_score>  (60) 
-9.4263313459082898

>  <s_m_subgroup_title>  (60) 
glide-dock_SP_D22_pv

>  <s_m_subgroupid>  (60) 
glide-dock_SP_D22_pv

>  <Molecule ChEMBL ID>  (60) 
CHEMBL422618

>  <Standard Type>  (60) 
Ki

>  <Standard Value>  (60) 
40.0

>  <label>  (60) 
1

$$$$
CHEMBL5089348
     RDKit          3D

  0  0  0  0  0  0  0  0  0  0999 V3000
M  V30 BEGIN CTAB
M  V30 COUNTS 55 58 0 0 1
M  V30 BEGIN ATOM
M  V30 1 O 8.851494 5.372289 -14.324775 0
M  V30 2 S 8.561891 4.042682 -13.773685 0
M  V30 3 O 7.165877 3.662339 -13.509631 0
M  V30 4 C 9.509245 3.903511 -12.207039 0
M  V30 5 C 8.746948 4.572260 -11.045970 0 CFG=1
M  V30 6 C 9.286095 4.227517 -9.646834 0
M  V30 7 C 9.671221 5.552031 -9.019589 0
M  V30 8 N 8.886027 6.572395 -9.733717 0 CFG=1 CHG=1
M  V30 9 C 9.367880 7.962441 -9.604047 0
M  V30 10 C 9.480176 8.406661 -8.137733 0
M  V30 11 C 10.867028 8.120085 -7.522601 0
M  V30 12 C 11.074648 8.848726 -6.239146 0
M  V30 13 N 10.996653 10.172212 -6.246828 0
M  V30 14 O 11.285793 10.608303 -4.937943 0
M  V30 15 C 11.618988 9.535956 -4.144257 0
M  V30 16 C 12.075284 9.483544 -2.830037 0
M  V30 17 C 12.373088 8.225046 -2.293387 0
M  V30 18 F 12.885969 8.171820 -1.046889 0
M  V30 19 C 12.154994 7.049501 -3.057572 0
M  V30 20 C 11.686036 7.132065 -4.394321 0
M  V30 21 C 11.444236 8.411516 -4.946690 0
M  V30 22 C 8.751246 6.105190 -11.124630 0
M  V30 23 C 9.270353 2.820547 -14.872669 0
M  V30 24 C 8.748389 1.511971 -14.886431 0
M  V30 25 C 9.252642 0.569120 -15.804300 0
M  V30 26 C 10.284095 0.927575 -16.701635 0
M  V30 27 C 10.773336 -0.051921 -17.759689 0
M  V30 28 F 10.195308 0.242301 -18.923033 0
M  V30 29 F 12.093090 0.042655 -17.905067 0
M  V30 30 F 10.475010 -1.312312 -17.446606 0
M  V30 31 C 10.832287 2.228627 -16.642893 0
M  V30 32 C 10.331850 3.175529 -15.727165 0
M  V30 33 H 9.686031 2.850948 -12.018866 0
M  V30 34 H 10.486328 4.352479 -12.366368 0
M  V30 35 H 7.709795 4.232461 -11.066086 0
M  V30 36 H 8.492309 3.778123 -9.046660 0
M  V30 37 H 10.115412 3.522438 -9.656631 0
M  V30 38 H 9.469144 5.554371 -7.947966 0
M  V30 39 H 10.733413 5.737226 -9.181361 0
M  V30 40 H 10.317350 8.093679 -10.124954 0
M  V30 41 H 8.650864 8.607098 -10.114895 0
M  V30 42 H 9.309730 9.482340 -8.131992 0
M  V30 43 H 8.678277 7.988048 -7.526444 0
M  V30 44 H 11.018795 7.059146 -7.344347 0
M  V30 45 H 11.648341 8.420689 -8.222000 0
M  V30 46 H 12.199347 10.384705 -2.252258 0
M  V30 47 H 12.372155 6.083205 -2.625738 0
M  V30 48 H 11.549906 6.236334 -4.983195 0
M  V30 49 H 9.604556 6.454532 -11.708200 0
M  V30 50 H 7.848126 6.499509 -11.593067 0
M  V30 51 H 7.942799 1.239581 -14.220307 0
M  V30 52 H 8.822983 -0.421866 -15.834315 0
M  V30 53 H 11.623439 2.510773 -17.322195 0
M  V30 54 H 10.738319 4.176163 -15.706991 0
M  V30 55 H 7.940260 6.569522 -9.361665 0
M  V30 END ATOM
M  V30 BEGIN BOND
M  V30 1 2 2 1
M  V30 2 2 3 2
M  V30 3 1 4 2
M  V30 4 1 5 4
M  V30 5 1 6 5
M  V30 6 1 7 6
M  V30 7 1 8 7
M  V30 8 1 9 8
M  V30 9 1 10 9
M  V30 10 1 11 10
M  V30 11 1 12 11
M  V30 12 2 13 12
M  V30 13 1 14 13
M  V30 14 1 15 14
M  V30 15 1 16 15
M  V30 16 2 17 16
M  V30 17 1 18 17
M  V30 18 1 19 17
M  V30 19 2 20 19
M  V30 20 1 21 12
M  V30 21 2 21 15
M  V30 22 1 21 20
M  V30 23 1 22 5
M  V30 24 1 22 8
M  V30 25 1 23 2
M  V30 26 1 24 23
M  V30 27 2 25 24
M  V30 28 1 26 25
M  V30 29 1 27 26
M  V30 30 1 28 27
M  V30 31 1 29 27
M  V30 32 1 30 27
M  V30 33 2 31 26
M  V30 34 2 32 23
M  V30 35 1 32 31
M  V30 36 1 33 4
M  V30 37 1 34 4
M  V30 38 1 5 35 CFG=1
M  V30 39 1 36 6
M  V30 40 1 37 6
M  V30 41 1 38 7
M  V30 42 1 39 7
M  V30 43 1 40 9
M  V30 44 1 41 9
M  V30 45 1 42 10
M  V30 46 1 43 10
M  V30 47 1 44 11
M  V30 48 1 45 11
M  V30 49 1 46 16
M  V30 50 1 47 19
M  V30 51 1 48 20
M  V30 52 1 49 22
M  V30 53 1 50 22
M  V30 54 1 51 24
M  V30 55 1 52 25
M  V30 56 1 53 31
M  V30 57 1 54 32
M  V30 58 1 8 55 CFG=1
M  V30 END BOND
M  V30 END CTAB
M  END
>  <b_m_subgroup_collapsed>  (61) 
0

>  <r_i_docking_score>  (61) 
-9.4253294092090893

>  <s_m_subgroup_title>  (61) 
glide-dock_SP_D22_pv

>  <s_m_subgroupid>  (61) 
glide-dock_SP_D22_pv

>  <Molecule ChEMBL ID>  (61) 
CHEMBL5089348

>  <Standard Type>  (61) 
Ki

>  <Standard Value>  (61) 
95.5

>  <label>  (61) 
1

$$$$
CHEMBL476839
     RDKit          3D

  0  0  0  0  0  0  0  0  0  0999 V3000
M  V30 BEGIN CTAB
M  V30 COUNTS 62 64 0 0 1
M  V30 BEGIN ATOM
M  V30 1 C 10.386693 4.182455 -15.526341 0
M  V30 2 O 9.735052 4.405768 -14.283755 0
M  V30 3 C 8.505008 3.815159 -14.071802 0
M  V30 4 C 8.177071 2.498528 -14.507612 0
M  V30 5 O 9.144251 1.740462 -15.134928 0
M  V30 6 C 8.896287 0.359658 -15.366409 0
M  V30 7 C 10.193911 -0.289890 -15.848365 0
M  V30 8 F 10.521482 0.150631 -17.062653 0
M  V30 9 C 6.878642 1.994481 -14.246698 0
M  V30 10 C 5.950529 2.746639 -13.506326 0
M  V30 11 C 6.287675 4.028202 -13.048876 0
M  V30 12 C 7.557557 4.571969 -13.335438 0
M  V30 13 C 7.918587 5.970999 -12.837971 0 CFG=1
M  V30 14 O 6.788706 6.812555 -12.646856 0
M  V30 15 C 8.806130 5.929128 -11.574152 0 CFG=1
M  V30 16 C 9.313566 7.326981 -11.172736 0
M  V30 17 C 10.093405 7.296840 -9.852492 0
M  V30 18 N 9.290239 6.687177 -8.755852 0 CFG=2 CHG=1
M  V30 19 C 9.975961 6.726249 -7.438061 0
M  V30 20 C 10.195840 8.149431 -6.885569 0
M  V30 21 C 10.886013 8.221880 -5.529661 0
M  V30 22 C 11.048468 9.489985 -4.934527 0
M  V30 23 C 11.632890 9.605737 -3.660372 0
M  V30 24 C 12.095574 8.464101 -2.982064 0
M  V30 25 C 12.723620 8.614236 -1.614978 0
M  V30 26 C 11.965262 7.196113 -3.580957 0
M  V30 27 C 11.352036 7.073824 -4.843614 0
M  V30 28 C 8.897081 5.297957 -9.099778 0
M  V30 29 C 8.086646 5.257158 -10.397447 0
M  V30 30 H 11.019854 5.039813 -15.754359 0
M  V30 31 H 11.033279 3.305656 -15.478966 0
M  V30 32 H 9.680295 4.068543 -16.350361 0
M  V30 33 H 8.583113 -0.128430 -14.442303 0
M  V30 34 H 8.108411 0.224457 -16.108772 0
M  V30 35 H 11.021674 -0.071604 -15.174332 0
M  V30 36 H 10.086080 -1.371400 -15.922001 0
M  V30 37 H 6.573695 1.012480 -14.573809 0
M  V30 38 H 4.973602 2.339002 -13.291991 0
M  V30 39 H 5.565090 4.591192 -12.475932 0
M  V30 40 H 8.485906 6.445466 -13.632762 0
M  V30 41 H 6.728033 7.088462 -11.728608 0
M  V30 42 H 9.686087 5.325337 -11.801229 0
M  V30 43 H 9.946038 7.730680 -11.964288 0
M  V30 44 H 8.486017 8.027244 -11.067961 0
M  V30 45 H 10.368749 8.322252 -9.613967 0
M  V30 46 H 11.023870 6.741135 -9.978493 0
M  V30 47 H 9.371017 6.172068 -6.718043 0
M  V30 48 H 10.929192 6.201940 -7.525644 0
M  V30 49 H 10.807940 8.742608 -7.562697 0
M  V30 50 H 9.233413 8.658045 -6.805292 0
M  V30 51 H 10.692131 10.377121 -5.437924 0
M  V30 52 H 11.694515 10.573245 -3.187587 0
M  V30 53 H 12.886000 7.650896 -1.135928 0
M  V30 54 H 13.686043 9.112147 -1.701878 0
M  V30 55 H 12.086143 9.220053 -0.972380 0
M  V30 56 H 12.313241 6.310675 -3.068207 0
M  V30 57 H 11.251081 6.084282 -5.259942 0
M  V30 58 H 8.294365 4.873137 -8.295400 0
M  V30 59 H 9.785972 4.671804 -9.194379 0
M  V30 60 H 7.147856 5.772316 -10.246813 0
M  V30 61 H 7.835382 4.222249 -10.632818 0
M  V30 62 H 8.423031 7.209519 -8.676586 0
M  V30 END ATOM
M  V30 BEGIN BOND
M  V30 1 1 2 1
M  V30 2 1 3 2
M  V30 3 2 4 3
M  V30 4 1 5 4
M  V30 5 1 6 5
M  V30 6 1 7 6
M  V30 7 1 8 7
M  V30 8 1 9 4
M  V30 9 2 10 9
M  V30 10 1 11 10
M  V30 11 1 12 3
M  V30 12 2 12 11
M  V30 13 1 13 12
M  V30 14 1 14 13
M  V30 15 1 15 13
M  V30 16 1 16 15
M  V30 17 1 17 16
M  V30 18 1 18 17
M  V30 19 1 19 18
M  V30 20 1 20 19
M  V30 21 1 21 20
M  V30 22 1 22 21
M  V30 23 2 23 22
M  V30 24 1 24 23
M  V30 25 1 25 24
M  V30 26 2 26 24
M  V30 27 2 27 21
M  V30 28 1 27 26
M  V30 29 1 28 18
M  V30 30 1 29 15
M  V30 31 1 29 28
M  V30 32 1 30 1
M  V30 33 1 31 1
M  V30 34 1 32 1
M  V30 35 1 33 6
M  V30 36 1 34 6
M  V30 37 1 35 7
M  V30 38 1 36 7
M  V30 39 1 37 9
M  V30 40 1 38 10
M  V30 41 1 39 11
M  V30 42 1 13 40 CFG=3
M  V30 43 1 41 14
M  V30 44 1 15 42 CFG=3
M  V30 45 1 43 16
M  V30 46 1 44 16
M  V30 47 1 45 17
M  V30 48 1 46 17
M  V30 49 1 47 19
M  V30 50 1 48 19
M  V30 51 1 49 20
M  V30 52 1 50 20
M  V30 53 1 51 22
M  V30 54 1 52 23
M  V30 55 1 53 25
M  V30 56 1 54 25
M  V30 57 1 55 25
M  V30 58 1 56 26
M  V30 59 1 57 27
M  V30 60 1 58 28
M  V30 61 1 59 28
M  V30 62 1 60 29
M  V30 63 1 61 29
M  V30 64 1 18 62 CFG=1
M  V30 END BOND
M  V30 END CTAB
M  END
>  <b_m_subgroup_collapsed>  (62) 
0

>  <r_i_docking_score>  (62) 
-9.4059201105761208

>  <s_m_subgroup_title>  (62) 
glide-dock_SP_D22_pv

>  <s_m_subgroupid>  (62) 
glide-dock_SP_D22_pv

>  <Molecule ChEMBL ID>  (62) 
CHEMBL476839

>  <Standard Type>  (62) 
Ki

>  <Standard Value>  (62) 
10000.0

>  <label>  (62) 
0

$$$$
CHEMBL4451231
     RDKit          3D

  0  0  0  0  0  0  0  0  0  0999 V3000
M  V30 BEGIN CTAB
M  V30 COUNTS 70 75 0 0 1
M  V30 BEGIN ATOM
M  V30 1 O 6.467233 2.743579 -13.790560 0
M  V30 2 C 7.559812 2.577132 -14.336082 0
M  V30 3 C 7.849200 1.426605 -15.198985 0
M  V30 4 C 6.752891 0.469938 -15.464951 0
M  V30 5 C 6.244013 -0.319504 -14.412917 0
M  V30 6 C 5.188370 -1.217351 -14.658472 0
M  V30 7 C 4.630941 -1.329298 -15.946486 0
M  V30 8 C 5.131600 -0.534755 -16.995209 0
M  V30 9 C 6.188162 0.366703 -16.756348 0
M  V30 10 C 9.075448 1.314039 -15.792097 0
M  V30 11 C 9.381227 0.170812 -16.659740 0
M  V30 12 C 10.567546 0.060853 -17.274813 0
M  V30 13 C 11.562903 1.085336 -17.067818 0
M  V30 14 C 11.309659 2.121262 -16.246670 0
M  V30 15 N 10.092522 2.260432 -15.591529 0
M  V30 16 C 9.882579 3.367243 -14.747374 0
M  V30 17 O 10.777763 4.190454 -14.535810 0
M  V30 18 N 8.614605 3.498895 -14.157854 0
M  V30 19 C 8.397939 4.643336 -13.285513 0
M  V30 20 C 9.049655 4.492027 -11.893342 0
M  V30 21 C 8.149186 5.058290 -10.774321 0
M  V30 22 C 8.848062 5.278475 -9.410191 0
M  V30 23 N 9.286810 6.685119 -9.188868 0 CFG=2 CHG=1
M  V30 24 C 10.185572 7.179820 -10.274918 0
M  V30 25 C 10.630951 8.622143 -10.069971 0
M  V30 26 C 11.294734 8.751040 -8.709334 0
M  V30 27 C 10.284594 8.375397 -7.620085 0 CFG=2
M  V30 28 C 10.793887 8.830388 -6.271043 0
M  V30 29 C 10.887302 10.169250 -6.006907 0
M  V30 30 N 11.261575 10.374496 -4.708016 0
M  V30 31 C 11.585435 9.190409 -4.111829 0
M  V30 32 C 12.086855 8.923183 -2.830078 0
M  V30 33 C 12.341538 7.598277 -2.463948 0
M  V30 34 C 12.085741 6.572369 -3.386116 0
M  V30 35 C 11.556204 6.846342 -4.666268 0
M  V30 36 C 11.294962 8.172995 -5.077838 0
M  V30 37 C 9.851528 6.902917 -7.813449 0
M  V30 38 H 6.665396 -0.244856 -13.421366 0
M  V30 39 H 4.811784 -1.827226 -13.853038 0
M  V30 40 H 3.825256 -2.026865 -16.131006 0
M  V30 41 H 4.702026 -0.615563 -17.982895 0
M  V30 42 H 6.563433 0.976670 -17.565323 0
M  V30 43 H 8.666111 -0.623696 -16.809036 0
M  V30 44 H 10.784698 -0.791680 -17.901999 0
M  V30 45 H 12.522211 1.011294 -17.558798 0
M  V30 46 H 12.090322 2.856769 -16.108791 0
M  V30 47 H 8.787065 5.515857 -13.813716 0
M  V30 48 H 7.326259 4.834297 -13.213215 0
M  V30 49 H 9.281194 3.445831 -11.691889 0
M  V30 50 H 10.021166 4.983758 -11.911318 0
M  V30 51 H 7.670323 5.984628 -11.093103 0
M  V30 52 H 7.332704 4.350092 -10.647086 0
M  V30 53 H 8.135917 5.034518 -8.620196 0
M  V30 54 H 9.686188 4.590301 -9.292464 0
M  V30 55 H 11.079844 6.566229 -10.325983 0
M  V30 56 H 9.692524 7.127646 -11.244214 0
M  V30 57 H 11.331633 8.913858 -10.852432 0
M  V30 58 H 9.776410 9.296929 -10.144787 0
M  V30 59 H 12.189445 8.129433 -8.642616 0
M  V30 60 H 11.625875 9.772336 -8.587514 0
M  V30 61 H 9.383521 8.966280 -7.804139 0
M  V30 62 H 10.651680 11.002195 -6.643459 0
M  V30 63 H 11.326418 11.290462 -4.287530 0
M  V30 64 H 12.283906 9.729864 -2.138421 0
M  V30 65 H 12.733285 7.369910 -1.483501 0
M  V30 66 H 12.295258 5.556669 -3.097161 0
M  V30 67 H 11.363321 6.028261 -5.342078 0
M  V30 68 H 9.095431 6.641773 -7.070995 0
M  V30 69 H 10.701046 6.237213 -7.654428 0
M  V30 70 H 8.434589 7.236876 -9.245314 0
M  V30 END ATOM
M  V30 BEGIN BOND
M  V30 1 2 2 1
M  V30 2 1 3 2
M  V30 3 1 4 3
M  V30 4 2 5 4
M  V30 5 1 6 5
M  V30 6 2 7 6
M  V30 7 1 8 7
M  V30 8 1 9 4
M  V30 9 2 9 8
M  V30 10 2 10 3
M  V30 11 1 11 10
M  V30 12 2 12 11
M  V30 13 1 13 12
M  V30 14 2 14 13
M  V30 15 1 15 10
M  V30 16 1 15 14
M  V30 17 1 16 15
M  V30 18 2 17 16
M  V30 19 1 18 2
M  V30 20 1 18 16
M  V30 21 1 19 18
M  V30 22 1 20 19
M  V30 23 1 21 20
M  V30 24 1 22 21
M  V30 25 1 23 22
M  V30 26 1 24 23
M  V30 27 1 25 24
M  V30 28 1 26 25
M  V30 29 1 27 26
M  V30 30 1 28 27
M  V30 31 2 29 28
M  V30 32 1 30 29
M  V30 33 1 31 30
M  V30 34 2 32 31
M  V30 35 1 33 32
M  V30 36 2 34 33
M  V30 37 1 35 34
M  V30 38 1 36 28
M  V30 39 1 36 31
M  V30 40 2 36 35
M  V30 41 1 37 23
M  V30 42 1 37 27
M  V30 43 1 38 5
M  V30 44 1 39 6
M  V30 45 1 40 7
M  V30 46 1 41 8
M  V30 47 1 42 9
M  V30 48 1 43 11
M  V30 49 1 44 12
M  V30 50 1 45 13
M  V30 51 1 46 14
M  V30 52 1 47 19
M  V30 53 1 48 19
M  V30 54 1 49 20
M  V30 55 1 50 20
M  V30 56 1 51 21
M  V30 57 1 52 21
M  V30 58 1 53 22
M  V30 59 1 54 22
M  V30 60 1 55 24
M  V30 61 1 56 24
M  V30 62 1 57 25
M  V30 63 1 58 25
M  V30 64 1 59 26
M  V30 65 1 60 26
M  V30 66 1 27 61 CFG=3
M  V30 67 1 62 29
M  V30 68 1 63 30
M  V30 69 1 64 32
M  V30 70 1 65 33
M  V30 71 1 66 34
M  V30 72 1 67 35
M  V30 73 1 68 37
M  V30 74 1 69 37
M  V30 75 1 23 70 CFG=1
M  V30 END BOND
M  V30 END CTAB
M  END
>  <b_m_subgroup_collapsed>  (63) 
0

>  <r_i_docking_score>  (63) 
-9.4045161097867407

>  <s_m_subgroup_title>  (63) 
glide-dock_SP_D22_pv

>  <s_m_subgroupid>  (63) 
glide-dock_SP_D22_pv

>  <Molecule ChEMBL ID>  (63) 
CHEMBL4451231

>  <Standard Type>  (63) 
Ki

>  <Standard Value>  (63) 
17670.0

>  <label>  (63) 
0

$$$$
CHEMBL516944
     RDKit          3D

  0  0  0  0  0  0  0  0  0  0999 V3000
M  V30 BEGIN CTAB
M  V30 COUNTS 48 51 0 0 1
M  V30 BEGIN ATOM
M  V30 1 O 5.114087 2.834031 -12.646225 0
M  V30 2 C 6.087472 3.526625 -12.933316 0
M  V30 3 C 6.247381 4.953886 -12.372763 0
M  V30 4 C 7.714602 5.450969 -12.162412 0 CFG=1
M  V30 5 C 8.339284 5.021855 -10.793857 0
M  V30 6 N 8.576894 6.171698 -9.874309 0 CHG=1
M  V30 7 C 8.773188 5.779160 -8.449693 0
M  V30 8 C 8.989585 7.006544 -7.520175 0
M  V30 9 N 10.057184 7.874561 -8.035975 0
M  V30 10 C 11.143186 8.350052 -7.373017 0
M  V30 11 O 12.031439 8.971765 -7.952074 0
M  V30 12 C 11.279078 8.220165 -5.879317 0
M  V30 13 C 11.590859 9.377522 -5.127886 0
M  V30 14 C 11.946404 9.283548 -3.767493 0
M  V30 15 C 12.014639 8.024027 -3.146411 0
M  V30 16 F 12.387959 7.924263 -1.849164 0
M  V30 17 C 11.685653 6.867139 -3.877685 0
M  V30 18 C 11.307762 6.964793 -5.233232 0
M  V30 19 C 9.785211 8.292604 -9.420385 0
M  V30 20 C 9.669452 7.066283 -10.335442 0
M  V30 21 C 8.647929 5.100049 -13.353177 0
M  V30 22 C 8.279284 3.802043 -13.978408 0
M  V30 23 O 9.150569 3.219297 -14.844652 0
M  V30 24 C 8.557521 2.057533 -15.243781 0
M  V30 25 C 7.332247 1.905630 -14.653269 0
M  V30 26 C 7.146067 3.060656 -13.846684 0
M  V30 27 H 5.753636 5.618129 -13.082065 0
M  V30 28 H 5.680575 5.046488 -11.447021 0
M  V30 29 H 7.631549 6.538130 -12.154065 0
M  V30 30 H 7.685824 4.304942 -10.296434 0
M  V30 31 H 9.279106 4.485647 -10.936266 0
M  V30 32 H 7.901938 5.222886 -8.106388 0
M  V30 33 H 9.628242 5.107185 -8.378525 0
M  V30 34 H 8.086050 7.612239 -7.468059 0
M  V30 35 H 9.141580 6.663788 -6.500855 0
M  V30 36 H 11.603601 10.347301 -5.605771 0
M  V30 37 H 12.200048 10.168732 -3.204100 0
M  V30 38 H 11.738791 5.896879 -3.404258 0
M  V30 39 H 11.130322 6.055285 -5.785831 0
M  V30 40 H 8.853251 8.860699 -9.438243 0
M  V30 41 H 10.539460 8.966706 -9.831244 0
M  V30 42 H 10.613990 6.520530 -10.348039 0
M  V30 43 H 9.488968 7.405358 -11.354438 0
M  V30 44 H 9.701781 5.116844 -13.074850 0
M  V30 45 H 8.529598 5.860240 -14.123372 0
M  V30 46 H 9.134649 1.459962 -15.935143 0
M  V30 47 H 6.656237 1.072008 -14.782383 0
M  V30 48 H 7.728137 6.742814 -9.891063 0
M  V30 END ATOM
M  V30 BEGIN BOND
M  V30 1 2 2 1
M  V30 2 1 3 2
M  V30 3 1 4 3
M  V30 4 1 5 4
M  V30 5 1 6 5
M  V30 6 1 7 6
M  V30 7 1 8 7
M  V30 8 1 9 8
M  V30 9 1 10 9
M  V30 10 2 11 10
M  V30 11 1 12 10
M  V30 12 1 13 12
M  V30 13 2 14 13
M  V30 14 1 15 14
M  V30 15 1 16 15
M  V30 16 2 17 15
M  V30 17 2 18 12
M  V30 18 1 18 17
M  V30 19 1 19 9
M  V30 20 1 20 6
M  V30 21 1 20 19
M  V30 22 1 21 4
M  V30 23 1 22 21
M  V30 24 1 23 22
M  V30 25 1 24 23
M  V30 26 2 25 24
M  V30 27 1 26 2
M  V30 28 2 26 22
M  V30 29 1 26 25
M  V30 30 1 27 3
M  V30 31 1 28 3
M  V30 32 1 4 29 CFG=1
M  V30 33 1 30 5
M  V30 34 1 31 5
M  V30 35 1 32 7
M  V30 36 1 33 7
M  V30 37 1 34 8
M  V30 38 1 35 8
M  V30 39 1 36 13
M  V30 40 1 37 14
M  V30 41 1 38 17
M  V30 42 1 39 18
M  V30 43 1 40 19
M  V30 44 1 41 19
M  V30 45 1 42 20
M  V30 46 1 43 20
M  V30 47 1 44 21
M  V30 48 1 45 21
M  V30 49 1 46 24
M  V30 50 1 47 25
M  V30 51 1 48 6
M  V30 END BOND
M  V30 END CTAB
M  END
>  <b_m_subgroup_collapsed>  (64) 
0

>  <r_i_docking_score>  (64) 
-9.3952701650931303

>  <s_m_subgroup_title>  (64) 
glide-dock_SP_D22_pv

>  <s_m_subgroupid>  (64) 
glide-dock_SP_D22_pv

>  <Molecule ChEMBL ID>  (64) 
CHEMBL516944

>  <Standard Type>  (64) 
Ki

>  <Standard Value>  (64) 
10000.0

>  <label>  (64) 
0

$$$$
CHEMBL6055703
     RDKit          3D

  0  0  0  0  0  0  0  0  0  0999 V3000
M  V30 BEGIN CTAB
M  V30 COUNTS 72 77 0 0 1
M  V30 BEGIN ATOM
M  V30 1 O 10.083927 -0.206515 -15.042415 0
M  V30 2 C 9.208795 0.170454 -15.822081 0
M  V30 3 N 8.175113 1.042223 -15.538015 0
M  V30 4 C 8.128444 1.844413 -14.322045 0 CFG=1
M  V30 5 C 9.213160 2.933173 -14.433257 0
M  V30 6 C 9.166483 3.862580 -13.231166 0
M  V30 7 C 7.791676 4.549672 -13.111080 0 CFG=2
M  V30 8 C 7.771803 5.597853 -11.983679 0
M  V30 9 C 8.335213 5.105975 -10.626642 0
M  V30 10 N 8.486290 6.171916 -9.607663 0 CHG=1
M  V30 11 C 8.818292 5.601672 -8.274545 0
M  V30 12 C 9.016138 6.685730 -7.203794 0
M  V30 13 N 10.002403 7.667999 -7.642046 0
M  V30 14 C 10.687231 8.486470 -6.705358 0
M  V30 15 N 10.870833 9.747567 -7.027933 0
M  V30 16 S 11.678783 10.565457 -5.846545 0
M  V30 17 C 11.859345 9.189685 -4.788932 0
M  V30 18 C 12.482251 9.115708 -3.527529 0
M  V30 19 C 12.466766 7.901758 -2.823771 0
M  V30 20 C 11.895850 6.763376 -3.417850 0
M  V30 21 C 11.307806 6.841691 -4.697508 0
M  V30 22 C 11.238883 8.061658 -5.418892 0
M  V30 23 C 9.633474 8.273932 -8.925967 0
M  V30 24 C 9.436955 7.230618 -10.020018 0
M  V30 25 C 6.630025 3.534442 -13.041710 0
M  V30 26 C 6.724253 2.479116 -14.163882 0
M  V30 27 O 9.130196 -0.180854 -17.117071 0
M  V30 28 C 10.130740 -1.010348 -17.703693 0
M  V30 29 C 11.274911 -0.167835 -18.206747 0
M  V30 30 C 12.330009 -0.500820 -19.025375 0
M  V30 31 C 13.122859 0.686520 -19.166479 0
M  V30 32 C 14.305380 1.062745 -19.846157 0
M  V30 33 C 14.803447 2.381931 -19.751036 0
M  V30 34 C 14.134958 3.346404 -18.964811 0
M  V30 35 C 12.960514 2.994646 -18.270481 0
M  V30 36 C 12.479194 1.680337 -18.388470 0
M  V30 37 O 11.348743 1.145950 -17.807411 0
M  V30 38 H 7.530093 1.230634 -16.289989 0
M  V30 39 H 8.344382 1.210422 -13.452473 0
M  V30 40 H 10.206962 2.484625 -14.492049 0
M  V30 41 H 9.077411 3.511295 -15.349616 0
M  V30 42 H 9.391203 3.263570 -12.349595 0
M  V30 43 H 9.956721 4.609587 -13.317081 0
M  V30 44 H 7.652283 5.103317 -14.040755 0
M  V30 45 H 8.361124 6.432678 -12.358509 0
M  V30 46 H 6.758932 5.984964 -11.847662 0
M  V30 47 H 7.688726 4.318843 -10.237821 0
M  V30 48 H 9.322862 4.662304 -10.743466 0
M  V30 49 H 8.037941 4.910587 -7.956750 0
M  V30 50 H 9.735943 5.015652 -8.358882 0
M  V30 51 H 8.081744 7.210337 -7.016836 0
M  V30 52 H 9.276725 6.197617 -6.269891 0
M  V30 53 H 12.915041 9.997357 -3.079988 0
M  V30 54 H 12.883543 7.842886 -1.830537 0
M  V30 55 H 11.905466 5.821010 -2.886025 0
M  V30 56 H 10.907621 5.934793 -5.119119 0
M  V30 57 H 8.717129 8.852605 -8.796954 0
M  V30 58 H 10.401020 8.961234 -9.279425 0
M  V30 59 H 10.395743 6.786038 -10.292937 0
M  V30 60 H 9.048301 7.760768 -10.890348 0
M  V30 61 H 6.564689 3.056506 -12.066146 0
M  V30 62 H 5.683491 4.068443 -13.145823 0
M  V30 63 H 6.449011 2.971715 -15.094148 0
M  V30 64 H 5.973589 1.703477 -14.005044 0
M  V30 65 H 9.681403 -1.549890 -18.538229 0
M  V30 66 H 10.486251 -1.763788 -16.999870 0
M  V30 67 H 12.539127 -1.453012 -19.484526 0
M  V30 68 H 14.824482 0.333993 -20.450508 0
M  V30 69 H 15.700701 2.657652 -20.286697 0
M  V30 70 H 14.521883 4.353170 -18.895962 0
M  V30 71 H 12.432623 3.715256 -17.663177 0
M  V30 72 H 7.584780 6.649783 -9.533722 0
M  V30 END ATOM
M  V30 BEGIN BOND
M  V30 1 2 2 1
M  V30 2 1 3 2
M  V30 3 1 4 3
M  V30 4 1 5 4
M  V30 5 1 6 5
M  V30 6 1 7 6
M  V30 7 1 8 7
M  V30 8 1 9 8
M  V30 9 1 10 9
M  V30 10 1 11 10
M  V30 11 1 12 11
M  V30 12 1 13 12
M  V30 13 1 14 13
M  V30 14 2 15 14
M  V30 15 1 16 15
M  V30 16 1 17 16
M  V30 17 2 18 17
M  V30 18 1 19 18
M  V30 19 2 20 19
M  V30 20 1 21 20
M  V30 21 1 22 14
M  V30 22 1 22 17
M  V30 23 2 22 21
M  V30 24 1 23 13
M  V30 25 1 24 10
M  V30 26 1 24 23
M  V30 27 1 25 7
M  V30 28 1 26 4
M  V30 29 1 26 25
M  V30 30 1 27 2
M  V30 31 1 28 27
M  V30 32 1 29 28
M  V30 33 2 30 29
M  V30 34 1 31 30
M  V30 35 2 32 31
M  V30 36 1 33 32
M  V30 37 2 34 33
M  V30 38 1 35 34
M  V30 39 1 36 31
M  V30 40 2 36 35
M  V30 41 1 37 29
M  V30 42 1 37 36
M  V30 43 1 38 3
M  V30 44 1 4 39 CFG=1
M  V30 45 1 40 5
M  V30 46 1 41 5
M  V30 47 1 42 6
M  V30 48 1 43 6
M  V30 49 1 7 44 CFG=3
M  V30 50 1 45 8
M  V30 51 1 46 8
M  V30 52 1 47 9
M  V30 53 1 48 9
M  V30 54 1 49 11
M  V30 55 1 50 11
M  V30 56 1 51 12
M  V30 57 1 52 12
M  V30 58 1 53 18
M  V30 59 1 54 19
M  V30 60 1 55 20
M  V30 61 1 56 21
M  V30 62 1 57 23
M  V30 63 1 58 23
M  V30 64 1 59 24
M  V30 65 1 60 24
M  V30 66 1 61 25
M  V30 67 1 62 25
M  V30 68 1 63 26
M  V30 69 1 64 26
M  V30 70 1 65 28
M  V30 71 1 66 28
M  V30 72 1 67 30
M  V30 73 1 68 32
M  V30 74 1 69 33
M  V30 75 1 70 34
M  V30 76 1 71 35
M  V30 77 1 72 10
M  V30 END BOND
M  V30 END CTAB
M  END
>  <b_m_subgroup_collapsed>  (65) 
0

>  <r_i_docking_score>  (65) 
-9.3951964523909499

>  <s_m_subgroup_title>  (65) 
glide-dock_SP_D22_pv

>  <s_m_subgroupid>  (65) 
glide-dock_SP_D22_pv

>  <Molecule ChEMBL ID>  (65) 
CHEMBL6055703

>  <Standard Type>  (65) 
Ki

>  <Standard Value>  (65) 
5.73

>  <label>  (65) 
1

$$$$
CHEMBL252343
     RDKit          3D

  0  0  0  0  0  0  0  0  0  0999 V3000
M  V30 BEGIN CTAB
M  V30 COUNTS 69 73 0 0 1
M  V30 BEGIN ATOM
M  V30 1 C 8.086072 9.609276 -10.909505 0
M  V30 2 C 8.428008 9.048744 -12.302471 0
M  V30 3 C 7.741257 7.690623 -12.615535 0
M  V30 4 N 8.086004 6.533857 -11.741995 0 CFG=2 CHG=1
M  V30 5 C 9.499789 6.429865 -11.275700 0
M  V30 6 C 9.585261 5.861400 -9.847102 0
M  V30 7 N 9.576898 6.873055 -8.787636 0
M  V30 8 C 10.843459 7.630558 -8.748962 0
M  V30 9 C 10.965683 8.511931 -7.485772 0
M  V30 10 N 10.807611 7.670327 -6.310507 0
M  V30 11 C 11.285770 8.071859 -5.057503 0
M  V30 12 C 11.686141 7.076837 -4.138597 0
M  V30 13 C 12.108856 7.426774 -2.843259 0
M  V30 14 C 12.116975 8.778510 -2.455032 0
M  V30 15 C 11.707536 9.772082 -3.363810 0
M  V30 16 C 11.307941 9.427908 -4.668254 0
M  V30 17 C 9.513273 7.011363 -6.302497 0
M  V30 18 C 9.416761 6.118864 -7.539653 0
M  V30 19 C 7.504573 5.219073 -12.192311 0 CFG=1
M  V30 20 C 5.977368 5.265980 -12.375068 0
M  V30 21 C 5.381642 3.863300 -12.571810 0
M  V30 22 C 6.215825 2.917368 -13.422963 0
M  V30 23 C 5.688336 1.624744 -13.681421 0
M  V30 24 C 6.449429 0.644596 -14.350910 0
M  V30 25 C 7.745815 0.996606 -14.748693 0
M  V30 26 C 8.276754 2.261659 -14.519396 0
M  V30 27 C 7.531794 3.257690 -13.845859 0
M  V30 28 C 8.158010 4.596989 -13.461691 0
M  V30 29 C 9.709861 2.303988 -15.001870 0
M  V30 30 C 9.848911 0.861521 -15.521852 0
M  V30 31 O 10.882337 0.414044 -16.013803 0
M  V30 32 N 8.704984 0.183850 -15.353826 0
M  V30 33 H 8.485999 10.572303 -10.648608 0
M  V30 34 H 7.013871 9.772381 -10.845894 0
M  V30 35 H 8.425818 8.949290 -10.113601 0
M  V30 36 H 9.502994 9.000244 -12.455672 0
M  V30 37 H 8.086891 9.769956 -13.044775 0
M  V30 38 H 7.940063 7.371834 -13.618518 0
M  V30 39 H 6.664067 7.853322 -12.582605 0
M  V30 40 H 10.034628 7.368624 -11.307041 0
M  V30 41 H 10.074115 5.794584 -11.944765 0
M  V30 42 H 10.485999 5.260224 -9.748917 0
M  V30 43 H 8.762120 5.166717 -9.680066 0
M  V30 44 H 10.933347 8.272865 -9.623679 0
M  V30 45 H 11.685689 6.943969 -8.776497 0
M  V30 46 H 10.203445 9.292849 -7.489403 0
M  V30 47 H 11.939056 9.003448 -7.467615 0
M  V30 48 H 11.663065 6.035728 -4.426559 0
M  V30 49 H 12.410469 6.656281 -2.148408 0
M  V30 50 H 12.421022 9.057192 -1.456225 0
M  V30 51 H 11.686123 10.803462 -3.046990 0
M  V30 52 H 10.982076 10.203652 -5.345321 0
M  V30 53 H 9.388493 6.406258 -5.405135 0
M  V30 54 H 8.713703 7.753948 -6.302846 0
M  V30 55 H 8.456876 5.599574 -7.537451 0
M  V30 56 H 10.202585 5.370092 -7.472082 0
M  V30 57 H 7.676730 4.514270 -11.379581 0
M  V30 58 H 5.498265 5.752103 -11.522518 0
M  V30 59 H 5.725932 5.861708 -13.251543 0
M  V30 60 H 4.380406 3.932296 -12.997490 0
M  V30 61 H 5.286249 3.393555 -11.591867 0
M  V30 62 H 4.695267 1.373730 -13.338090 0
M  V30 63 H 6.058506 -0.346862 -14.527134 0
M  V30 64 H 8.080457 5.261700 -14.320850 0
M  V30 65 H 9.220011 4.423957 -13.304276 0
M  V30 66 H 9.848403 3.034251 -15.799129 0
M  V30 67 H 10.407479 2.493148 -14.185997 0
M  V30 68 H 8.540672 -0.787791 -15.588885 0
M  V30 69 H 7.561111 6.800811 -10.903664 0
M  V30 END ATOM
M  V30 BEGIN BOND
M  V30 1 1 2 1
M  V30 2 1 3 2
M  V30 3 1 4 3
M  V30 4 1 5 4
M  V30 5 1 6 5
M  V30 6 1 7 6
M  V30 7 1 8 7
M  V30 8 1 9 8
M  V30 9 1 10 9
M  V30 10 1 11 10
M  V30 11 2 12 11
M  V30 12 1 13 12
M  V30 13 2 14 13
M  V30 14 1 15 14
M  V30 15 1 16 11
M  V30 16 2 16 15
M  V30 17 1 17 10
M  V30 18 1 18 7
M  V30 19 1 18 17
M  V30 20 1 19 4
M  V30 21 1 20 19
M  V30 22 1 21 20
M  V30 23 1 22 21
M  V30 24 1 23 22
M  V30 25 2 24 23
M  V30 26 1 25 24
M  V30 27 2 26 25
M  V30 28 2 27 22
M  V30 29 1 27 26
M  V30 30 1 28 19
M  V30 31 1 28 27
M  V30 32 1 29 26
M  V30 33 1 30 29
M  V30 34 2 31 30
M  V30 35 1 32 25
M  V30 36 1 32 30
M  V30 37 1 33 1
M  V30 38 1 34 1
M  V30 39 1 35 1
M  V30 40 1 36 2
M  V30 41 1 37 2
M  V30 42 1 38 3
M  V30 43 1 39 3
M  V30 44 1 40 5
M  V30 45 1 41 5
M  V30 46 1 42 6
M  V30 47 1 43 6
M  V30 48 1 44 8
M  V30 49 1 45 8
M  V30 50 1 46 9
M  V30 51 1 47 9
M  V30 52 1 48 12
M  V30 53 1 49 13
M  V30 54 1 50 14
M  V30 55 1 51 15
M  V30 56 1 52 16
M  V30 57 1 53 17
M  V30 58 1 54 17
M  V30 59 1 55 18
M  V30 60 1 56 18
M  V30 61 1 19 57 CFG=1
M  V30 62 1 58 20
M  V30 63 1 59 20
M  V30 64 1 60 21
M  V30 65 1 61 21
M  V30 66 1 62 23
M  V30 67 1 63 24
M  V30 68 1 64 28
M  V30 69 1 65 28
M  V30 70 1 66 29
M  V30 71 1 67 29
M  V30 72 1 68 32
M  V30 73 1 4 69 CFG=1
M  V30 END BOND
M  V30 END CTAB
M  END
>  <b_m_subgroup_collapsed>  (66) 
0

>  <r_i_docking_score>  (66) 
-9.3883479367154106

>  <s_m_subgroup_title>  (66) 
glide-dock_SP_D22_pv

>  <s_m_subgroupid>  (66) 
glide-dock_SP_D22_pv

>  <Molecule ChEMBL ID>  (66) 
CHEMBL252343

>  <Standard Type>  (66) 
Ki

>  <Standard Value>  (66) 
90.6

>  <label>  (66) 
1

$$$$
CHEMBL553327
     RDKit          3D

  0  0  0  0  0  0  0  0  0  0999 V3000
M  V30 BEGIN CTAB
M  V30 COUNTS 54 57 0 0 1
M  V30 BEGIN ATOM
M  V30 1 O 10.485947 9.636028 -6.755552 0
M  V30 2 C 10.926254 8.613538 -6.242531 0
M  V30 3 C 11.102503 7.383694 -7.113006 0
M  V30 4 C 9.946831 6.357471 -7.036434 0
M  V30 5 C 8.609321 6.760433 -7.695576 0
M  V30 6 N 8.487551 6.585476 -9.175567 0 CFG=2 CHG=1
M  V30 7 C 8.473926 5.231692 -9.739175 0 CFG=2
M  V30 8 C 9.929836 4.932417 -10.111992 0
M  V30 9 C 10.583230 6.323089 -10.197190 0
M  V30 10 C 9.444132 7.308033 -10.039939 0 CFG=1
M  V30 11 C 8.830096 7.564021 -11.445724 0
M  V30 12 C 8.112413 6.313612 -12.077333 0 CFG=1
M  V30 13 O 6.944685 6.861809 -12.646956 0
M  V30 14 C 8.906272 5.501256 -13.126864 0
M  V30 15 C 8.263189 4.416714 -13.772286 0
M  V30 16 C 8.960600 3.573712 -14.657522 0
M  V30 17 C 10.314318 3.817788 -14.942252 0
M  V30 18 C 10.961705 4.915021 -14.348952 0
M  V30 19 C 10.263975 5.749629 -13.454847 0
M  V30 20 C 7.572540 5.348907 -10.981967 0
M  V30 21 C 11.401369 8.546712 -4.848382 0
M  V30 22 C 11.792779 7.330005 -4.241754 0
M  V30 23 C 12.343924 7.335553 -2.948833 0
M  V30 24 C 12.486423 8.550998 -2.258593 0
M  V30 25 F 13.067725 8.571820 -1.046898 0
M  V30 26 C 12.031818 9.748858 -2.829528 0
M  V30 27 C 11.487247 9.749377 -4.119907 0
M  V30 28 H 12.046255 6.897799 -6.867290 0
M  V30 29 H 11.240328 7.798290 -8.103734 0
M  V30 30 H 9.737569 6.173463 -5.982620 0
M  V30 31 H 10.281054 5.396109 -7.416193 0
M  V30 32 H 8.376211 7.796315 -7.447069 0
M  V30 33 H 7.816433 6.168595 -7.236892 0
M  V30 34 H 8.085996 4.497513 -9.033940 0
M  V30 35 H 10.045878 4.348436 -11.023653 0
M  V30 36 H 10.395585 4.337504 -9.326158 0
M  V30 37 H 11.180162 6.572391 -11.069445 0
M  V30 38 H 11.289375 6.363117 -9.391232 0
M  V30 39 H 9.759005 8.256495 -9.604213 0
M  V30 40 H 9.555521 8.005942 -12.126257 0
M  V30 41 H 8.121479 8.385385 -11.331811 0
M  V30 42 H 6.487236 7.334538 -11.953509 0
M  V30 43 H 7.221342 4.210674 -13.575972 0
M  V30 44 H 8.452932 2.740373 -15.120884 0
M  V30 45 H 10.850674 3.174700 -15.625130 0
M  V30 46 H 11.995345 5.120862 -14.583132 0
M  V30 47 H 10.803096 6.593064 -13.065283 0
M  V30 48 H 6.628123 5.772433 -10.646976 0
M  V30 49 H 7.315945 4.359897 -11.358150 0
M  V30 50 H 11.716449 6.383204 -4.756248 0
M  V30 51 H 12.674803 6.412292 -2.495168 0
M  V30 52 H 12.085937 10.672889 -2.276984 0
M  V30 53 H 11.165639 10.686455 -4.551475 0
M  V30 54 H 7.567788 6.989401 -9.383458 0
M  V30 END ATOM
M  V30 BEGIN BOND
M  V30 1 2 2 1
M  V30 2 1 3 2
M  V30 3 1 4 3
M  V30 4 1 5 4
M  V30 5 1 6 5
M  V30 6 1 7 6
M  V30 7 1 8 7
M  V30 8 1 9 8
M  V30 9 1 10 6
M  V30 10 1 10 9
M  V30 11 1 11 10
M  V30 12 1 12 11
M  V30 13 1 12 13 CFG=3
M  V30 14 1 14 12
M  V30 15 2 15 14
M  V30 16 1 16 15
M  V30 17 2 17 16
M  V30 18 1 18 17
M  V30 19 1 19 14
M  V30 20 2 19 18
M  V30 21 1 20 7
M  V30 22 1 20 12
M  V30 23 1 21 2
M  V30 24 1 22 21
M  V30 25 2 23 22
M  V30 26 1 24 23
M  V30 27 1 25 24
M  V30 28 2 26 24
M  V30 29 2 27 21
M  V30 30 1 27 26
M  V30 31 1 28 3
M  V30 32 1 29 3
M  V30 33 1 30 4
M  V30 34 1 31 4
M  V30 35 1 32 5
M  V30 36 1 33 5
M  V30 37 1 7 34 CFG=1
M  V30 38 1 35 8
M  V30 39 1 36 8
M  V30 40 1 37 9
M  V30 41 1 38 9
M  V30 42 1 10 39 CFG=1
M  V30 43 1 40 11
M  V30 44 1 41 11
M  V30 45 1 42 13
M  V30 46 1 43 15
M  V30 47 1 44 16
M  V30 48 1 45 17
M  V30 49 1 46 18
M  V30 50 1 47 19
M  V30 51 1 48 20
M  V30 52 1 49 20
M  V30 53 1 50 22
M  V30 54 1 51 23
M  V30 55 1 52 26
M  V30 56 1 53 27
M  V30 57 1 6 54 CFG=3
M  V30 END BOND
M  V30 END CTAB
M  END
>  <b_m_subgroup_collapsed>  (67) 
0

>  <r_i_docking_score>  (67) 
-9.3741780574698392

>  <s_m_subgroup_title>  (67) 
glide-dock_SP_D22_pv

>  <s_m_subgroupid>  (67) 
glide-dock_SP_D22_pv

>  <Molecule ChEMBL ID>  (67) 
CHEMBL553327

>  <Standard Type>  (67) 
Ki

>  <Standard Value>  (67) 
2.3

>  <label>  (67) 
1

$$$$
CHEMBL3942236
     RDKit          3D

  0  0  0  0  0  0  0  0  0  0999 V3000
M  V30 BEGIN CTAB
M  V30 COUNTS 59 63 0 0 1
M  V30 BEGIN ATOM
M  V30 1 O 8.132394 0.133063 -14.289335 0
M  V30 2 C 7.129250 0.837259 -14.254657 0
M  V30 3 C 5.806330 0.172346 -14.367494 0
M  V30 4 C 4.645963 0.256934 -13.642013 0
M  V30 5 C 3.707655 -0.626829 -14.246168 0
M  V30 6 C 4.377750 -1.235405 -15.267482 0
M  V30 7 O 5.655986 -0.774151 -15.340851 0
M  V30 8 N 7.226890 2.189473 -14.247187 0
M  V30 9 C 6.120875 3.145120 -14.096266 0
M  V30 10 C 6.415665 4.109415 -12.941239 0
M  V30 11 C 7.768801 4.814711 -13.129938 0
M  V30 12 C 8.072607 5.794915 -11.991435 0
M  V30 13 C 8.422391 5.131670 -10.641295 0
M  V30 14 N 8.486214 6.087308 -9.511606 0 CHG=1
M  V30 15 C 8.886006 5.405612 -8.250887 0
M  V30 16 C 9.112098 6.365936 -7.063681 0
M  V30 17 N 9.947671 7.501405 -7.444201 0
M  V30 18 C 10.793733 8.230780 -6.556543 0
M  V30 19 N 11.192789 9.409197 -6.983177 0
M  V30 20 S 12.085952 10.190342 -5.847028 0
M  V30 21 C 11.980781 8.947433 -4.653018 0
M  V30 22 C 12.485523 8.960056 -3.342138 0
M  V30 23 C 12.372668 7.813179 -2.549068 0
M  V30 24 C 11.792181 6.663861 -3.099567 0
M  V30 25 C 11.284843 6.674319 -4.415603 0
M  V30 26 C 11.293877 7.833479 -5.231253 0
M  V30 27 C 9.395506 8.198302 -8.611283 0
M  V30 28 C 9.322515 7.270439 -9.810240 0
M  V30 29 C 8.903262 3.809937 -13.394510 0
M  V30 30 C 8.519102 2.850723 -14.526605 0
M  V30 31 H 4.486460 0.895501 -12.785624 0
M  V30 32 H 2.679823 -0.808426 -13.963174 0
M  V30 33 H 4.112769 -1.990257 -15.995390 0
M  V30 34 H 5.978774 3.674662 -15.040075 0
M  V30 35 H 5.171404 2.687553 -13.847200 0
M  V30 36 H 5.614804 4.845256 -12.868110 0
M  V30 37 H 6.402890 3.548866 -12.006959 0
M  V30 38 H 7.685876 5.412350 -14.036731 0
M  V30 39 H 8.901905 6.420871 -12.320326 0
M  V30 40 H 7.220064 6.460145 -11.853001 0
M  V30 41 H 7.686041 4.372663 -10.388641 0
M  V30 42 H 9.381369 4.618846 -10.721552 0
M  V30 43 H 8.131936 4.662467 -7.983768 0
M  V30 44 H 9.815579 4.863790 -8.431721 0
M  V30 45 H 8.153568 6.737751 -6.695878 0
M  V30 46 H 9.551073 5.775461 -6.271094 0
M  V30 47 H 12.967256 9.842596 -2.954875 0
M  V30 48 H 12.746935 7.806822 -1.536600 0
M  V30 49 H 11.721342 5.772650 -2.495662 0
M  V30 50 H 10.842381 5.772106 -4.776924 0
M  V30 51 H 8.404949 8.575456 -8.357195 0
M  V30 52 H 9.964733 9.068687 -8.934917 0
M  V30 53 H 10.325004 6.959826 -10.110715 0
M  V30 54 H 8.890365 7.842841 -10.629505 0
M  V30 55 H 9.815827 4.342373 -13.661376 0
M  V30 56 H 9.143393 3.230453 -12.505635 0
M  V30 57 H 9.343350 2.151952 -14.672868 0
M  V30 58 H 8.453545 3.399339 -15.465803 0
M  V30 59 H 7.552675 6.471895 -9.379586 0
M  V30 END ATOM
M  V30 BEGIN BOND
M  V30 1 2 2 1
M  V30 2 1 3 2
M  V30 3 2 4 3
M  V30 4 1 5 4
M  V30 5 2 6 5
M  V30 6 1 7 3
M  V30 7 1 7 6
M  V30 8 1 8 2
M  V30 9 1 9 8
M  V30 10 1 10 9
M  V30 11 1 11 10
M  V30 12 1 12 11
M  V30 13 1 13 12
M  V30 14 1 14 13
M  V30 15 1 15 14
M  V30 16 1 16 15
M  V30 17 1 17 16
M  V30 18 1 18 17
M  V30 19 2 19 18
M  V30 20 1 20 19
M  V30 21 1 21 20
M  V30 22 2 22 21
M  V30 23 1 23 22
M  V30 24 2 24 23
M  V30 25 1 25 24
M  V30 26 1 26 18
M  V30 27 1 26 21
M  V30 28 2 26 25
M  V30 29 1 27 17
M  V30 30 1 28 14
M  V30 31 1 28 27
M  V30 32 1 29 11
M  V30 33 1 30 8
M  V30 34 1 30 29
M  V30 35 1 31 4
M  V30 36 1 32 5
M  V30 37 1 33 6
M  V30 38 1 34 9
M  V30 39 1 35 9
M  V30 40 1 36 10
M  V30 41 1 37 10
M  V30 42 1 38 11
M  V30 43 1 39 12
M  V30 44 1 40 12
M  V30 45 1 41 13
M  V30 46 1 42 13
M  V30 47 1 43 15
M  V30 48 1 44 15
M  V30 49 1 45 16
M  V30 50 1 46 16
M  V30 51 1 47 22
M  V30 52 1 48 23
M  V30 53 1 49 24
M  V30 54 1 50 25
M  V30 55 1 51 27
M  V30 56 1 52 27
M  V30 57 1 53 28
M  V30 58 1 54 28
M  V30 59 1 55 29
M  V30 60 1 56 29
M  V30 61 1 57 30
M  V30 62 1 58 30
M  V30 63 1 59 14
M  V30 END BOND
M  V30 END CTAB
M  END
>  <b_m_subgroup_collapsed>  (68) 
0

>  <r_i_docking_score>  (68) 
-9.3732414889485796

>  <s_m_subgroup_title>  (68) 
glide-dock_SP_D22_pv

>  <s_m_subgroupid>  (68) 
glide-dock_SP_D22_pv

>  <Molecule ChEMBL ID>  (68) 
CHEMBL3942236

>  <Standard Type>  (68) 
Ki

>  <Standard Value>  (68) 
15.0

>  <label>  (68) 
1

$$$$
CHEMBL456673
     RDKit          3D

  0  0  0  0  0  0  0  0  0  0999 V3000
M  V30 BEGIN CTAB
M  V30 COUNTS 70 73 0 0 1
M  V30 BEGIN ATOM
M  V30 1 C 12.871608 7.605335 -14.595409 0
M  V30 2 O 12.053083 6.590404 -14.035086 0
M  V30 3 C 11.939861 5.405995 -14.728732 0
M  V30 4 C 12.679200 5.084774 -15.895032 0
M  V30 5 C 12.486053 3.849722 -16.542444 0
M  V30 6 C 11.552421 2.924752 -16.042418 0
M  V30 7 C 10.807235 3.235083 -14.887627 0
M  V30 8 C 9.739520 2.280145 -14.386124 0
M  V30 9 C 8.500639 2.333009 -15.292030 0
M  V30 10 C 7.312686 1.563943 -14.746461 0
M  V30 11 C 7.096376 0.234986 -15.162066 0
M  V30 12 C 5.969794 -0.476838 -14.713708 0
M  V30 13 C 5.055229 0.139480 -13.843148 0
M  V30 14 C 5.285826 1.455185 -13.395781 0
M  V30 15 C 6.411192 2.186065 -13.847067 0
M  V30 16 O 6.677446 3.481448 -13.461164 0
M  V30 17 C 5.970282 4.027168 -12.352480 0
M  V30 18 C 6.731684 5.272871 -11.870630 0
M  V30 19 C 8.131596 4.902672 -11.351632 0
M  V30 20 C 9.063999 6.100282 -11.070147 0
M  V30 21 N 8.886024 6.782302 -9.758901 0 CHG=1
M  V30 22 C 9.009123 5.857055 -8.593786 0
M  V30 23 C 9.051617 6.583135 -7.240341 0
M  V30 24 N 10.063402 7.629309 -7.254659 0
M  V30 25 C 10.732553 7.947515 -6.052607 0
M  V30 26 C 11.274522 6.912091 -5.255833 0
M  V30 27 C 11.929401 7.186224 -4.041191 0
M  V30 28 C 12.076794 8.514795 -3.612273 0
M  V30 29 F 12.701281 8.784446 -2.441882 0
M  V30 30 C 11.561513 9.557928 -4.399569 0
M  V30 31 C 10.888630 9.282545 -5.608534 0
M  V30 32 C 9.842963 8.629692 -8.288668 0
M  V30 33 C 9.800397 7.957888 -9.674137 0
M  V30 34 C 11.015384 4.466204 -14.233812 0
M  V30 35 H 12.887797 8.471597 -13.935838 0
M  V30 36 H 13.895705 7.260540 -14.714454 0
M  V30 37 H 12.488488 7.930947 -15.562613 0
M  V30 38 H 13.400607 5.768369 -16.314526 0
M  V30 39 H 13.055986 3.613307 -17.428799 0
M  V30 40 H 11.400731 1.985063 -16.553020 0
M  V30 41 H 9.469090 2.553365 -13.364644 0
M  V30 42 H 10.137637 1.265611 -14.337689 0
M  V30 43 H 8.749046 1.957986 -16.286402 0
M  V30 44 H 8.208660 3.372009 -15.436193 0
M  V30 45 H 7.787292 -0.241872 -15.840474 0
M  V30 46 H 5.805451 -1.492028 -15.046958 0
M  V30 47 H 4.175597 -0.392064 -13.518498 0
M  V30 48 H 4.558222 1.899516 -12.731745 0
M  V30 49 H 4.957476 4.291576 -12.658791 0
M  V30 50 H 5.903363 3.315107 -11.529305 0
M  V30 51 H 6.809000 5.985837 -12.692286 0
M  V30 52 H 6.167151 5.772195 -11.083018 0
M  V30 53 H 8.055498 4.219157 -10.509849 0
M  V30 54 H 8.615672 4.312829 -12.127079 0
M  V30 55 H 10.089861 5.736832 -11.116931 0
M  V30 56 H 8.965171 6.828304 -11.878407 0
M  V30 57 H 8.171908 5.160519 -8.572754 0
M  V30 58 H 9.919058 5.262352 -8.703277 0
M  V30 59 H 8.085872 7.045918 -7.039649 0
M  V30 60 H 9.212101 5.860578 -6.444043 0
M  V30 61 H 11.199976 5.884395 -5.574020 0
M  V30 62 H 12.322712 6.376104 -3.444514 0
M  V30 63 H 11.681063 10.571917 -4.057746 0
M  V30 64 H 10.487104 10.110104 -6.173124 0
M  V30 65 H 8.906534 9.152498 -8.089205 0
M  V30 66 H 10.639187 9.373535 -8.284476 0
M  V30 67 H 10.812758 7.631814 -9.921008 0
M  V30 68 H 9.518454 8.693048 -10.428304 0
M  V30 69 H 10.443245 4.713389 -13.354228 0
M  V30 70 H 7.930734 7.155107 -9.753261 0
M  V30 END ATOM
M  V30 BEGIN BOND
M  V30 1 1 2 1
M  V30 2 1 3 2
M  V30 3 2 4 3
M  V30 4 1 5 4
M  V30 5 2 6 5
M  V30 6 1 7 6
M  V30 7 1 8 7
M  V30 8 1 9 8
M  V30 9 1 10 9
M  V30 10 2 11 10
M  V30 11 1 12 11
M  V30 12 2 13 12
M  V30 13 1 14 13
M  V30 14 1 15 10
M  V30 15 2 15 14
M  V30 16 1 16 15
M  V30 17 1 17 16
M  V30 18 1 18 17
M  V30 19 1 19 18
M  V30 20 1 20 19
M  V30 21 1 21 20
M  V30 22 1 22 21
M  V30 23 1 23 22
M  V30 24 1 24 23
M  V30 25 1 25 24
M  V30 26 1 26 25
M  V30 27 2 27 26
M  V30 28 1 28 27
M  V30 29 1 29 28
M  V30 30 2 30 28
M  V30 31 2 31 25
M  V30 32 1 31 30
M  V30 33 1 32 24
M  V30 34 1 33 21
M  V30 35 1 33 32
M  V30 36 1 34 3
M  V30 37 2 34 7
M  V30 38 1 35 1
M  V30 39 1 36 1
M  V30 40 1 37 1
M  V30 41 1 38 4
M  V30 42 1 39 5
M  V30 43 1 40 6
M  V30 44 1 41 8
M  V30 45 1 42 8
M  V30 46 1 43 9
M  V30 47 1 44 9
M  V30 48 1 45 11
M  V30 49 1 46 12
M  V30 50 1 47 13
M  V30 51 1 48 14
M  V30 52 1 49 17
M  V30 53 1 50 17
M  V30 54 1 51 18
M  V30 55 1 52 18
M  V30 56 1 53 19
M  V30 57 1 54 19
M  V30 58 1 55 20
M  V30 59 1 56 20
M  V30 60 1 57 22
M  V30 61 1 58 22
M  V30 62 1 59 23
M  V30 63 1 60 23
M  V30 64 1 61 26
M  V30 65 1 62 27
M  V30 66 1 63 30
M  V30 67 1 64 31
M  V30 68 1 65 32
M  V30 69 1 66 32
M  V30 70 1 67 33
M  V30 71 1 68 33
M  V30 72 1 69 34
M  V30 73 1 70 21
M  V30 END BOND
M  V30 END CTAB
M  END
>  <b_m_subgroup_collapsed>  (69) 
0

>  <r_i_docking_score>  (69) 
-9.3730809893207301

>  <s_m_subgroup_title>  (69) 
glide-dock_SP_D22_pv

>  <s_m_subgroupid>  (69) 
glide-dock_SP_D22_pv

>  <Molecule ChEMBL ID>  (69) 
CHEMBL456673

>  <Standard Type>  (69) 
Ki

>  <Standard Value>  (69) 
1324000.0

>  <label>  (69) 
0

$$$$
CHEMBL3104522
     RDKit          3D

  0  0  0  0  0  0  0  0  0  0999 V3000
M  V30 BEGIN CTAB
M  V30 COUNTS 59 63 0 0 1
M  V30 BEGIN ATOM
M  V30 1 N 3.775730 -0.406832 -13.846860 0
M  V30 2 C 4.977152 0.298377 -13.936376 0
M  V30 3 C 6.031363 -0.212581 -14.715069 0
M  V30 4 C 7.212638 0.535321 -14.875051 0
M  V30 5 C 7.353473 1.797123 -14.259467 0
M  V30 6 C 6.306323 2.307926 -13.450846 0
M  V30 7 C 5.132048 1.539911 -13.285043 0
M  V30 8 C 6.437151 3.639000 -12.711044 0 CFG=2
M  V30 9 O 5.315851 4.466805 -12.932851 0
M  V30 10 C 7.718966 4.458645 -13.032725 0 CFG=1
M  V30 11 C 8.044977 5.563622 -11.990309 0
M  V30 12 C 8.483236 5.067463 -10.593248 0
M  V30 13 N 8.777455 6.172134 -9.636775 0 CFG=2 CHG=1
M  V30 14 C 10.106275 6.805145 -9.891219 0
M  V30 15 C 10.463614 7.896235 -8.866302 0
M  V30 16 C 10.383412 7.346375 -7.429833 0 CFG=1
M  V30 17 C 10.788187 8.342827 -6.372765 0
M  V30 18 N 10.561020 9.643918 -6.528252 0
M  V30 19 O 11.000902 10.305614 -5.348720 0
M  V30 20 C 11.476849 9.371060 -4.446902 0
M  V30 21 C 11.994091 9.501655 -3.151554 0
M  V30 22 C 12.368357 8.324717 -2.474234 0
M  V30 23 F 12.885736 8.407496 -1.228890 0
M  V30 24 C 12.203068 7.060610 -3.088854 0
M  V30 25 C 11.685976 6.958173 -4.400826 0
M  V30 26 C 11.326984 8.138783 -5.085183 0
M  V30 27 C 8.968408 6.813104 -7.203829 0
M  V30 28 C 8.647783 5.712172 -8.226453 0
M  V30 29 C 8.941287 3.577944 -13.361280 0
M  V30 30 C 8.632835 2.583933 -14.486060 0
M  V30 31 H 3.602084 -1.127296 -14.536304 0
M  V30 32 H 2.941760 0.114740 -13.610066 0
M  V30 33 H 5.936890 -1.168695 -15.210542 0
M  V30 34 H 8.008192 0.135116 -15.486950 0
M  V30 35 H 4.330361 1.935654 -12.679803 0
M  V30 36 H 6.433616 3.374011 -11.654402 0
M  V30 37 H 5.390367 5.228079 -12.377298 0
M  V30 38 H 7.510319 4.974340 -13.970501 0
M  V30 39 H 8.822955 6.198775 -12.412873 0
M  V30 40 H 7.174485 6.210186 -11.873059 0
M  V30 41 H 7.686087 4.451313 -10.182940 0
M  V30 42 H 9.356412 4.418233 -10.665141 0
M  V30 43 H 10.884611 6.043396 -9.847733 0
M  V30 44 H 10.135561 7.231503 -10.893774 0
M  V30 45 H 11.467346 8.274152 -9.065598 0
M  V30 46 H 9.784796 8.742434 -8.987541 0
M  V30 47 H 11.074729 6.504283 -7.362555 0
M  V30 48 H 12.086725 10.469994 -2.681413 0
M  V30 49 H 12.481366 6.164796 -2.551918 0
M  V30 50 H 11.565056 5.991130 -4.866567 0
M  V30 51 H 8.885913 6.401862 -6.198208 0
M  V30 52 H 8.240252 7.623464 -7.266430 0
M  V30 53 H 7.637191 5.367499 -8.040576 0
M  V30 54 H 9.303143 4.855180 -8.066308 0
M  V30 55 H 9.284459 3.027192 -12.485126 0
M  V30 56 H 9.783517 4.203187 -13.659636 0
M  V30 57 H 9.471526 1.896665 -14.604264 0
M  V30 58 H 8.528680 3.116822 -15.432300 0
M  V30 59 H 8.043535 6.870091 -9.771176 0
M  V30 END ATOM
M  V30 BEGIN BOND
M  V30 1 1 2 1
M  V30 2 1 3 2
M  V30 3 2 4 3
M  V30 4 1 5 4
M  V30 5 2 6 5
M  V30 6 2 7 2
M  V30 7 1 7 6
M  V30 8 1 8 6
M  V30 9 1 9 8
M  V30 10 1 10 8
M  V30 11 1 11 10
M  V30 12 1 12 11
M  V30 13 1 13 12
M  V30 14 1 14 13
M  V30 15 1 15 14
M  V30 16 1 16 15
M  V30 17 1 17 16
M  V30 18 2 18 17
M  V30 19 1 19 18
M  V30 20 1 20 19
M  V30 21 1 21 20
M  V30 22 2 22 21
M  V30 23 1 23 22
M  V30 24 1 24 22
M  V30 25 2 25 24
M  V30 26 1 26 17
M  V30 27 2 26 20
M  V30 28 1 26 25
M  V30 29 1 27 16
M  V30 30 1 28 13
M  V30 31 1 28 27
M  V30 32 1 29 10
M  V30 33 1 30 5
M  V30 34 1 30 29
M  V30 35 1 31 1
M  V30 36 1 32 1
M  V30 37 1 33 3
M  V30 38 1 34 4
M  V30 39 1 35 7
M  V30 40 1 8 36 CFG=1
M  V30 41 1 37 9
M  V30 42 1 10 38 CFG=3
M  V30 43 1 39 11
M  V30 44 1 40 11
M  V30 45 1 41 12
M  V30 46 1 42 12
M  V30 47 1 43 14
M  V30 48 1 44 14
M  V30 49 1 45 15
M  V30 50 1 46 15
M  V30 51 1 16 47 CFG=3
M  V30 52 1 48 21
M  V30 53 1 49 24
M  V30 54 1 50 25
M  V30 55 1 51 27
M  V30 56 1 52 27
M  V30 57 1 53 28
M  V30 58 1 54 28
M  V30 59 1 55 29
M  V30 60 1 56 29
M  V30 61 1 57 30
M  V30 62 1 58 30
M  V30 63 1 13 59 CFG=3
M  V30 END BOND
M  V30 END CTAB
M  END
>  <b_m_subgroup_collapsed>  (70) 
0

>  <r_i_docking_score>  (70) 
-9.3683294746598307

>  <s_m_subgroup_title>  (70) 
glide-dock_SP_D22_pv

>  <s_m_subgroupid>  (70) 
glide-dock_SP_D22_pv

>  <Molecule ChEMBL ID>  (70) 
CHEMBL3104522

>  <Standard Type>  (70) 
Ki

>  <Standard Value>  (70) 
87.1

>  <label>  (70) 
1

$$$$
CHEMBL4470437
     RDKit          3D

  0  0  0  0  0  0  0  0  0  0999 V3000
M  V30 BEGIN CTAB
M  V30 COUNTS 74 79 0 0 1
M  V30 BEGIN ATOM
M  V30 1 O 5.805478 2.872090 -13.523178 0
M  V30 2 C 6.946142 2.876145 -13.993605 0
M  V30 3 C 7.492310 1.772819 -14.796339 0
M  V30 4 C 6.580956 0.691104 -15.217861 0
M  V30 5 C 6.037917 -0.183195 -14.252728 0
M  V30 6 C 5.118121 -1.170054 -14.646903 0
M  V30 7 C 4.744636 -1.304186 -15.996895 0
M  V30 8 C 5.287009 -0.433798 -16.961073 0
M  V30 9 C 6.197673 0.568120 -16.575071 0
M  V30 10 F 6.674983 1.430665 -17.506161 0
M  V30 11 C 8.790182 1.809472 -15.215121 0
M  V30 12 N 9.635766 2.889559 -14.938915 0
M  V30 13 C 9.156271 4.002524 -14.207765 0
M  V30 14 O 9.882351 4.971879 -13.972636 0
M  V30 15 N 7.819999 3.957002 -13.759370 0
M  V30 16 C 7.280398 5.102715 -13.035627 0
M  V30 17 C 7.310351 4.983256 -11.494717 0
M  V30 18 C 8.715608 5.141566 -10.882033 0
M  V30 19 C 8.740786 6.078577 -9.656302 0
M  V30 20 N 10.078948 6.636224 -9.340808 0 CFG=1 CHG=1
M  V30 21 C 10.623358 7.520017 -10.416449 0
M  V30 22 C 12.047429 7.970725 -10.089534 0
M  V30 23 C 12.072053 8.709456 -8.758149 0
M  V30 24 C 11.437323 7.871524 -7.629282 0 CFG=1
M  V30 25 C 11.379023 8.656271 -6.349247 0
M  V30 26 C 11.266472 10.017357 -6.240481 0
M  V30 27 N 11.286045 10.374533 -4.911731 0
M  V30 28 C 11.603049 9.287283 -4.133356 0
M  V30 29 C 11.958307 9.166072 -2.782774 0
M  V30 30 C 12.185870 7.889128 -2.246946 0
M  V30 31 C 12.020824 6.752379 -3.054935 0
M  V30 32 C 11.688543 6.888124 -4.419198 0
M  V30 33 C 11.531648 8.163577 -5.005811 0
M  V30 34 C 10.045343 7.353219 -8.037007 0
M  V30 35 C 11.031914 2.966629 -15.333939 0
M  V30 36 C 11.461992 1.939846 -16.384279 0
M  V30 37 C 10.909055 0.572735 -16.023790 0
M  V30 38 C 9.385674 0.646697 -16.023842 0
M  V30 39 H 6.313025 -0.088984 -13.212791 0
M  V30 40 H 4.694970 -1.827759 -13.906714 0
M  V30 41 H 4.038885 -2.071047 -16.287960 0
M  V30 42 H 4.991040 -0.525835 -17.995518 0
M  V30 43 H 7.798028 6.000637 -13.379194 0
M  V30 44 H 6.255254 5.242791 -13.384195 0
M  V30 45 H 6.663175 5.772304 -11.098826 0
M  V30 46 H 6.865819 4.042098 -11.168548 0
M  V30 47 H 9.137963 4.172427 -10.625314 0
M  V30 48 H 9.356371 5.524834 -11.661656 0
M  V30 49 H 8.092106 6.933759 -9.796483 0
M  V30 50 H 8.342017 5.538456 -8.797045 0
M  V30 51 H 10.677302 7.029557 -11.383293 0
M  V30 52 H 9.971172 8.387022 -10.547528 0
M  V30 53 H 12.707094 7.110495 -10.052241 0
M  V30 54 H 12.429290 8.621533 -10.878971 0
M  V30 55 H 13.098026 8.972229 -8.498022 0
M  V30 56 H 11.523337 9.639783 -8.899446 0
M  V30 57 H 12.076408 7.001224 -7.467133 0
M  V30 58 H 11.206659 10.777290 -6.999586 0
M  V30 59 H 11.263536 11.332766 -4.593582 0
M  V30 60 H 12.063318 10.045645 -2.164292 0
M  V30 61 H 12.486161 7.782154 -1.217172 0
M  V30 62 H 12.174252 5.772459 -2.631101 0
M  V30 63 H 11.617738 6.003241 -5.034092 0
M  V30 64 H 9.338382 8.184051 -8.098816 0
M  V30 65 H 9.669573 6.682886 -7.261672 0
M  V30 66 H 11.212778 3.967691 -15.730939 0
M  V30 67 H 11.596511 2.838542 -14.409373 0
M  V30 68 H 11.092448 2.236281 -17.366405 0
M  V30 69 H 12.549954 1.906745 -16.458096 0
M  V30 70 H 11.247226 -0.176216 -16.740030 0
M  V30 71 H 11.283909 0.266073 -15.045568 0
M  V30 72 H 9.007009 -0.301230 -15.639092 0
M  V30 73 H 9.034976 0.728393 -17.051352 0
M  V30 74 H 10.708577 5.853154 -9.239772 0
M  V30 END ATOM
M  V30 BEGIN BOND
M  V30 1 2 2 1
M  V30 2 1 3 2
M  V30 3 1 4 3
M  V30 4 2 5 4
M  V30 5 1 6 5
M  V30 6 2 7 6
M  V30 7 1 8 7
M  V30 8 1 9 4
M  V30 9 2 9 8
M  V30 10 1 10 9
M  V30 11 2 11 3
M  V30 12 1 12 11
M  V30 13 1 13 12
M  V30 14 2 14 13
M  V30 15 1 15 2
M  V30 16 1 15 13
M  V30 17 1 16 15
M  V30 18 1 17 16
M  V30 19 1 18 17
M  V30 20 1 19 18
M  V30 21 1 20 19
M  V30 22 1 21 20
M  V30 23 1 22 21
M  V30 24 1 23 22
M  V30 25 1 24 23
M  V30 26 1 25 24
M  V30 27 2 26 25
M  V30 28 1 27 26
M  V30 29 1 28 27
M  V30 30 2 29 28
M  V30 31 1 30 29
M  V30 32 2 31 30
M  V30 33 1 32 31
M  V30 34 1 33 25
M  V30 35 1 33 28
M  V30 36 2 33 32
M  V30 37 1 34 20
M  V30 38 1 34 24
M  V30 39 1 35 12
M  V30 40 1 36 35
M  V30 41 1 37 36
M  V30 42 1 38 11
M  V30 43 1 38 37
M  V30 44 1 39 5
M  V30 45 1 40 6
M  V30 46 1 41 7
M  V30 47 1 42 8
M  V30 48 1 43 16
M  V30 49 1 44 16
M  V30 50 1 45 17
M  V30 51 1 46 17
M  V30 52 1 47 18
M  V30 53 1 48 18
M  V30 54 1 49 19
M  V30 55 1 50 19
M  V30 56 1 51 21
M  V30 57 1 52 21
M  V30 58 1 53 22
M  V30 59 1 54 22
M  V30 60 1 55 23
M  V30 61 1 56 23
M  V30 62 1 24 57 CFG=1
M  V30 63 1 58 26
M  V30 64 1 59 27
M  V30 65 1 60 29
M  V30 66 1 61 30
M  V30 67 1 62 31
M  V30 68 1 63 32
M  V30 69 1 64 34
M  V30 70 1 65 34
M  V30 71 1 66 35
M  V30 72 1 67 35
M  V30 73 1 68 36
M  V30 74 1 69 36
M  V30 75 1 70 37
M  V30 76 1 71 37
M  V30 77 1 72 38
M  V30 78 1 73 38
M  V30 79 1 20 74 CFG=1
M  V30 END BOND
M  V30 END CTAB
M  END
>  <b_m_subgroup_collapsed>  (71) 
0

>  <r_i_docking_score>  (71) 
-9.3601662296922896

>  <s_m_subgroup_title>  (71) 
glide-dock_SP_D22_pv

>  <s_m_subgroupid>  (71) 
glide-dock_SP_D22_pv

>  <Molecule ChEMBL ID>  (71) 
CHEMBL4470437

>  <Standard Type>  (71) 
Ki

>  <Standard Value>  (71) 
10000.0

>  <label>  (71) 
0

$$$$
CHEMBL5790341
     RDKit          3D

  0  0  0  0  0  0  0  0  0  0999 V3000
M  V30 BEGIN CTAB
M  V30 COUNTS 60 64 0 0 1
M  V30 BEGIN ATOM
M  V30 1 O 4.264771 -0.227740 -13.529848 0
M  V30 2 C 5.174176 0.597551 -13.548464 0
M  V30 3 C 5.035097 1.900190 -12.747988 0
M  V30 4 C 5.824335 3.079518 -13.343081 0
M  V30 5 C 7.186035 2.656081 -13.849735 0
M  V30 6 C 8.248072 3.577787 -13.898831 0
M  V30 7 C 9.509933 3.191955 -14.416541 0
M  V30 8 O 10.588217 4.045288 -14.532803 0
M  V30 9 C 10.389092 5.428983 -14.269567 0
M  V30 10 C 10.612533 5.745862 -12.780216 0
M  V30 11 C 10.050795 7.115714 -12.358359 0
M  V30 12 N 10.318805 7.519820 -10.950827 0 CFG=2 CHG=1
M  V30 13 C 11.750351 7.574681 -10.576889 0
M  V30 14 C 11.916451 8.371237 -9.286870 0
M  V30 15 C 11.090850 7.770761 -8.115395 0 CFG=1
M  V30 16 C 11.217506 8.650286 -6.869525 0
M  V30 17 N 11.776475 9.772617 -6.871876 0
M  V30 18 O 11.769189 10.339360 -5.589766 0
M  V30 19 C 10.977336 9.534886 -4.739857 0 CFG=2
M  V30 20 C 11.685257 9.329028 -3.416071 0
M  V30 21 C 12.086196 8.128033 -2.982815 0
M  V30 22 F 12.662195 8.038157 -1.776438 0
M  V30 23 C 11.916966 6.939649 -3.789655 0
M  V30 24 C 11.286216 6.982321 -4.976129 0
M  V30 25 C 10.666364 8.252517 -5.545967 0 CFG=2
M  V30 26 C 9.622793 7.578790 -8.567392 0
M  V30 27 C 9.524501 6.819617 -9.911276 0
M  V30 28 C 9.687310 1.864280 -14.858207 0
M  V30 29 C 8.629280 0.933987 -14.801689 0
M  V30 30 C 7.376157 1.328301 -14.294339 0
M  V30 31 N 6.316216 0.391873 -14.224278 0
M  V30 32 H 5.405152 1.688888 -11.745996 0
M  V30 33 H 3.986050 2.172283 -12.647209 0
M  V30 34 H 5.938442 3.856158 -12.587080 0
M  V30 35 H 5.286018 3.533884 -14.172966 0
M  V30 36 H 8.061128 4.573944 -13.533413 0
M  V30 37 H 9.421458 5.772158 -14.634615 0
M  V30 38 H 11.117974 5.984710 -14.860232 0
M  V30 39 H 11.692608 5.734155 -12.646913 0
M  V30 40 H 10.182775 4.960626 -12.156955 0
M  V30 41 H 8.972628 7.142661 -12.523881 0
M  V30 42 H 10.486297 7.866322 -13.020685 0
M  V30 43 H 12.339334 8.027734 -11.376575 0
M  V30 44 H 12.134511 6.572463 -10.398462 0
M  V30 45 H 11.612225 9.402366 -9.483854 0
M  V30 46 H 12.975619 8.410720 -9.022612 0
M  V30 47 H 11.505012 6.791993 -7.870172 0
M  V30 48 H 10.085961 10.120199 -4.549009 0
M  V30 49 H 11.837509 10.205870 -2.802383 0
M  V30 50 H 12.314447 6.001516 -3.431990 0
M  V30 51 H 11.175875 6.078004 -5.556703 0
M  V30 52 H 9.595685 8.096763 -5.654320 0
M  V30 53 H 9.055808 7.037487 -7.806426 0
M  V30 54 H 9.135110 8.549959 -8.670795 0
M  V30 55 H 8.485792 6.760500 -10.222340 0
M  V30 56 H 9.876307 5.793290 -9.798812 0
M  V30 57 H 10.646759 1.554584 -15.245396 0
M  V30 58 H 8.789190 -0.079924 -15.139015 0
M  V30 59 H 6.436991 -0.494356 -14.694180 0
M  V30 60 H 9.989401 8.473356 -10.907747 0
M  V30 END ATOM
M  V30 BEGIN BOND
M  V30 1 2 2 1
M  V30 2 1 3 2
M  V30 3 1 4 3
M  V30 4 1 5 4
M  V30 5 1 6 5
M  V30 6 2 7 6
M  V30 7 1 8 7
M  V30 8 1 9 8
M  V30 9 1 10 9
M  V30 10 1 11 10
M  V30 11 1 12 11
M  V30 12 1 13 12
M  V30 13 1 14 13
M  V30 14 1 15 14
M  V30 15 1 16 15
M  V30 16 2 17 16
M  V30 17 1 18 17
M  V30 18 1 19 18
M  V30 19 1 20 19
M  V30 20 2 21 20
M  V30 21 1 22 21
M  V30 22 1 23 21
M  V30 23 2 24 23
M  V30 24 1 25 16
M  V30 25 1 25 19
M  V30 26 1 25 24
M  V30 27 1 26 15
M  V30 28 1 27 12
M  V30 29 1 27 26
M  V30 30 1 28 7
M  V30 31 2 29 28
M  V30 32 2 30 5
M  V30 33 1 30 29
M  V30 34 1 31 2
M  V30 35 1 31 30
M  V30 36 1 32 3
M  V30 37 1 33 3
M  V30 38 1 34 4
M  V30 39 1 35 4
M  V30 40 1 36 6
M  V30 41 1 37 9
M  V30 42 1 38 9
M  V30 43 1 39 10
M  V30 44 1 40 10
M  V30 45 1 41 11
M  V30 46 1 42 11
M  V30 47 1 43 13
M  V30 48 1 44 13
M  V30 49 1 45 14
M  V30 50 1 46 14
M  V30 51 1 15 47 CFG=1
M  V30 52 1 19 48 CFG=1
M  V30 53 1 49 20
M  V30 54 1 50 23
M  V30 55 1 51 24
M  V30 56 1 25 52 CFG=3
M  V30 57 1 53 26
M  V30 58 1 54 26
M  V30 59 1 55 27
M  V30 60 1 56 27
M  V30 61 1 57 28
M  V30 62 1 58 29
M  V30 63 1 59 31
M  V30 64 1 12 60 CFG=3
M  V30 END BOND
M  V30 END CTAB
M  END
>  <b_m_subgroup_collapsed>  (72) 
0

>  <r_i_docking_score>  (72) 
-9.3584532573254897

>  <s_m_subgroup_title>  (72) 
glide-dock_SP_D22_pv

>  <s_m_subgroupid>  (72) 
glide-dock_SP_D22_pv

>  <Molecule ChEMBL ID>  (72) 
CHEMBL5790341

>  <Standard Type>  (72) 
Ki

>  <Standard Value>  (72) 
5.6

>  <label>  (72) 
1

$$$$
CHEMBL1256786
     RDKit          3D

  0  0  0  0  0  0  0  0  0  0999 V3000
M  V30 BEGIN CTAB
M  V30 COUNTS 50 51 0 0 1
M  V30 BEGIN ATOM
M  V30 1 C 12.886444 8.840936 -1.651675 0
M  V30 2 O 12.486433 7.733593 -2.433304 0
M  V30 3 C 11.918259 7.980802 -3.660339 0
M  V30 4 C 11.652244 9.269558 -4.193958 0
M  V30 5 C 10.937699 9.402706 -5.405258 0
M  V30 6 C 10.485977 8.253204 -6.088395 0
M  V30 7 C 9.591949 8.349680 -7.312569 0
M  V30 8 C 10.285381 7.843381 -8.586331 0 CFG=2
M  V30 9 C 11.388486 8.813979 -9.053484 0
M  V30 10 N 9.286180 7.587406 -9.649610 0 CHG=1
M  V30 11 C 9.848143 6.917410 -10.838033 0
M  V30 12 C 8.793140 6.200382 -11.697116 0 CFG=1
M  V30 13 O 7.906857 7.148212 -12.247127 0
M  V30 14 C 9.442917 5.344445 -12.780917 0
M  V30 15 C 10.606080 5.764258 -13.468089 0
M  V30 16 C 11.207364 4.930216 -14.430539 0
M  V30 17 C 10.659388 3.664515 -14.715305 0
M  V30 18 O 11.289104 2.848603 -15.612034 0
M  V30 19 C 9.485026 3.244205 -14.048163 0
M  V30 20 N 8.948654 1.948952 -14.246890 0
M  V30 21 C 8.369446 1.500308 -15.370816 0
M  V30 22 O 8.180074 2.172376 -16.383453 0
M  V30 23 C 8.886571 4.086049 -13.086884 0
M  V30 24 C 10.820616 6.977794 -5.594708 0
M  V30 25 C 11.535513 6.845711 -4.394583 0
M  V30 26 H 13.288458 8.480303 -0.705762 0
M  V30 27 H 13.684794 9.372269 -2.161983 0
M  V30 28 H 12.062859 9.520980 -1.434156 0
M  V30 29 H 11.940738 10.168864 -3.668881 0
M  V30 30 H 10.698614 10.388474 -5.776188 0
M  V30 31 H 9.243192 9.372224 -7.451077 0
M  V30 32 H 8.698413 7.756078 -7.107358 0
M  V30 33 H 10.747760 6.882017 -8.357174 0
M  V30 34 H 12.106674 9.003273 -8.255239 0
M  V30 35 H 11.961527 8.414835 -9.890309 0
M  V30 36 H 10.973400 9.773136 -9.363174 0
M  V30 37 H 8.815677 8.437582 -9.931462 0
M  V30 38 H 10.565812 6.170915 -10.500695 0
M  V30 39 H 10.392481 7.657681 -11.424300 0
M  V30 40 H 8.205255 5.540791 -11.055284 0
M  V30 41 H 7.253916 7.376023 -11.580779 0
M  V30 42 H 11.055598 6.725636 -13.274618 0
M  V30 43 H 12.102346 5.262673 -14.936746 0
M  V30 44 H 12.055382 3.236231 -16.005295 0
M  V30 45 H 9.002489 1.319625 -13.458713 0
M  V30 46 H 8.067783 0.447379 -15.258359 0
M  V30 47 H 7.994647 3.767908 -12.568544 0
M  V30 48 H 10.483410 6.092169 -6.109634 0
M  V30 49 H 11.741937 5.860653 -4.002272 0
M  V30 50 H 8.570126 6.983208 -9.266006 0
M  V30 END ATOM
M  V30 BEGIN BOND
M  V30 1 1 2 1
M  V30 2 1 3 2
M  V30 3 1 4 3
M  V30 4 2 5 4
M  V30 5 1 6 5
M  V30 6 1 7 6
M  V30 7 1 8 7
M  V30 8 1 9 8
M  V30 9 1 10 8
M  V30 10 1 11 10
M  V30 11 1 12 11
M  V30 12 1 13 12
M  V30 13 1 14 12
M  V30 14 1 15 14
M  V30 15 2 16 15
M  V30 16 1 17 16
M  V30 17 1 18 17
M  V30 18 2 19 17
M  V30 19 1 20 19
M  V30 20 1 21 20
M  V30 21 2 22 21
M  V30 22 2 23 14
M  V30 23 1 23 19
M  V30 24 2 24 6
M  V30 25 2 25 3
M  V30 26 1 25 24
M  V30 27 1 26 1
M  V30 28 1 27 1
M  V30 29 1 28 1
M  V30 30 1 29 4
M  V30 31 1 30 5
M  V30 32 1 31 7
M  V30 33 1 32 7
M  V30 34 1 8 33 CFG=1
M  V30 35 1 34 9
M  V30 36 1 35 9
M  V30 37 1 36 9
M  V30 38 1 37 10
M  V30 39 1 38 11
M  V30 40 1 39 11
M  V30 41 1 12 40 CFG=1
M  V30 42 1 41 13
M  V30 43 1 42 15
M  V30 44 1 43 16
M  V30 45 1 44 18
M  V30 46 1 45 20
M  V30 47 1 46 21
M  V30 48 1 47 23
M  V30 49 1 48 24
M  V30 50 1 49 25
M  V30 51 1 50 10
M  V30 END BOND
M  V30 END CTAB
M  END
>  <b_m_subgroup_collapsed>  (73) 
0

>  <r_i_docking_score>  (73) 
-9.3581707142474606

>  <s_m_subgroup_title>  (73) 
glide-dock_SP_D22_pv

>  <s_m_subgroupid>  (73) 
glide-dock_SP_D22_pv

>  <Molecule ChEMBL ID>  (73) 
CHEMBL1256786

>  <Standard Type>  (73) 
Ki

>  <Standard Value>  (73) 
13000.0

>  <label>  (73) 
0

$$$$
CHEMBL5790341
     RDKit          3D

  0  0  0  0  0  0  0  0  0  0999 V3000
M  V30 BEGIN CTAB
M  V30 COUNTS 60 64 0 0 1
M  V30 BEGIN ATOM
M  V30 1 O 10.481215 -1.382984 -17.878981 0
M  V30 2 C 10.203672 -0.321244 -17.327354 0
M  V30 3 C 10.970831 0.959908 -17.682106 0
M  V30 4 C 11.099929 1.918880 -16.482769 0
M  V30 5 C 9.795419 2.043081 -15.715239 0
M  V30 6 C 9.471362 3.215104 -15.007206 0
M  V30 7 C 8.264572 3.304914 -14.284179 0
M  V30 8 O 8.026164 4.497040 -13.644060 0
M  V30 9 C 6.936377 4.580029 -12.739264 0
M  V30 10 C 7.295141 5.655315 -11.719592 0
M  V30 11 C 8.531002 5.254762 -10.901501 0
M  V30 12 N 8.883572 6.278342 -9.888191 0 CFG=2 CHG=1
M  V30 13 C 10.000937 7.160388 -10.320844 0
M  V30 14 C 10.370204 8.196371 -9.249759 0
M  V30 15 C 10.663676 7.525879 -7.887751 0 CFG=1
M  V30 16 C 11.057973 8.541173 -6.826110 0
M  V30 17 N 11.285956 9.774804 -7.003063 0
M  V30 18 O 11.518695 10.372665 -5.725400 0
M  V30 19 C 12.032413 9.313020 -4.949111 0 CFG=1
M  V30 20 C 12.083361 9.372434 -3.439170 0
M  V30 21 C 12.146132 8.194916 -2.782741 0
M  V30 22 F 12.282501 8.179780 -1.449809 0
M  V30 23 C 12.085840 6.930631 -3.519979 0
M  V30 24 C 11.616288 6.904085 -4.789004 0
M  V30 25 C 11.105919 8.203356 -5.383887 0 CFG=2
M  V30 26 C 9.414436 6.719911 -7.486248 0
M  V30 27 C 9.096837 5.667353 -8.551771 0
M  V30 28 C 7.376371 2.199263 -14.276054 0
M  V30 29 C 7.703056 1.021622 -14.975143 0
M  V30 30 C 8.906119 0.948376 -15.701296 0
M  V30 31 N 9.221097 -0.227643 -16.417257 0
M  V30 32 H 10.420793 1.451779 -18.485249 0
M  V30 33 H 11.955824 0.712001 -18.080111 0
M  V30 34 H 11.420472 2.902409 -16.826944 0
M  V30 35 H 11.870331 1.557830 -15.802707 0
M  V30 36 H 10.149247 4.056337 -15.017111 0
M  V30 37 H 6.758384 3.653273 -12.193225 0
M  V30 38 H 6.023763 4.838097 -13.278412 0
M  V30 39 H 6.444579 5.772140 -11.049430 0
M  V30 40 H 7.449337 6.613089 -12.219076 0
M  V30 41 H 9.384243 5.055638 -11.551428 0
M  V30 42 H 8.307011 4.304475 -10.415485 0
M  V30 43 H 9.719067 7.669668 -11.243192 0
M  V30 44 H 10.886009 6.569760 -10.549006 0
M  V30 45 H 9.551624 8.912404 -9.145761 0
M  V30 46 H 11.236144 8.767042 -9.590625 0
M  V30 47 H 11.505747 6.843291 -8.001207 0
M  V30 48 H 13.061955 9.146539 -5.276128 0
M  V30 49 H 12.136932 10.326665 -2.935632 0
M  V30 50 H 12.440210 6.021048 -3.055899 0
M  V30 51 H 11.561769 5.990005 -5.361290 0
M  V30 52 H 10.086087 8.351357 -5.043547 0
M  V30 53 H 9.552675 6.212375 -6.532371 0
M  V30 54 H 8.556718 7.383823 -7.356027 0
M  V30 55 H 8.198623 5.124067 -8.254685 0
M  V30 56 H 9.907286 4.939327 -8.610071 0
M  V30 57 H 6.429790 2.230210 -13.759412 0
M  V30 58 H 7.019768 0.184876 -14.965829 0
M  V30 59 H 8.665236 -1.053781 -16.226381 0
M  V30 60 H 8.049668 6.863050 -9.804942 0
M  V30 END ATOM
M  V30 BEGIN BOND
M  V30 1 2 2 1
M  V30 2 1 3 2
M  V30 3 1 4 3
M  V30 4 1 5 4
M  V30 5 1 6 5
M  V30 6 2 7 6
M  V30 7 1 8 7
M  V30 8 1 9 8
M  V30 9 1 10 9
M  V30 10 1 11 10
M  V30 11 1 12 11
M  V30 12 1 13 12
M  V30 13 1 14 13
M  V30 14 1 15 14
M  V30 15 1 16 15
M  V30 16 2 17 16
M  V30 17 1 18 17
M  V30 18 1 19 18
M  V30 19 1 20 19
M  V30 20 2 21 20
M  V30 21 1 22 21
M  V30 22 1 23 21
M  V30 23 2 24 23
M  V30 24 1 25 16
M  V30 25 1 25 19
M  V30 26 1 25 24
M  V30 27 1 26 15
M  V30 28 1 27 12
M  V30 29 1 27 26
M  V30 30 1 28 7
M  V30 31 2 29 28
M  V30 32 2 30 5
M  V30 33 1 30 29
M  V30 34 1 31 2
M  V30 35 1 31 30
M  V30 36 1 32 3
M  V30 37 1 33 3
M  V30 38 1 34 4
M  V30 39 1 35 4
M  V30 40 1 36 6
M  V30 41 1 37 9
M  V30 42 1 38 9
M  V30 43 1 39 10
M  V30 44 1 40 10
M  V30 45 1 41 11
M  V30 46 1 42 11
M  V30 47 1 43 13
M  V30 48 1 44 13
M  V30 49 1 45 14
M  V30 50 1 46 14
M  V30 51 1 15 47 CFG=3
M  V30 52 1 19 48 CFG=3
M  V30 53 1 49 20
M  V30 54 1 50 23
M  V30 55 1 51 24
M  V30 56 1 25 52 CFG=1
M  V30 57 1 53 26
M  V30 58 1 54 26
M  V30 59 1 55 27
M  V30 60 1 56 27
M  V30 61 1 57 28
M  V30 62 1 58 29
M  V30 63 1 59 31
M  V30 64 1 12 60 CFG=1
M  V30 END BOND
M  V30 END CTAB
M  END
>  <b_m_subgroup_collapsed>  (74) 
0

>  <r_i_docking_score>  (74) 
-9.3523389997814004

>  <s_m_subgroup_title>  (74) 
glide-dock_SP_D22_pv

>  <s_m_subgroupid>  (74) 
glide-dock_SP_D22_pv

>  <Molecule ChEMBL ID>  (74) 
CHEMBL5790341

>  <Standard Type>  (74) 
Ki

>  <Standard Value>  (74) 
5.6

>  <label>  (74) 
1

$$$$
CHEMBL103983
     RDKit          3D

  0  0  0  0  0  0  0  0  0  0999 V3000
M  V30 BEGIN CTAB
M  V30 COUNTS 70 74 0 0 1
M  V30 BEGIN ATOM
M  V30 1 O 11.510712 7.373033 -11.631789 0
M  V30 2 C 10.320326 7.306645 -11.324931 0
M  V30 3 N 9.773460 8.068913 -10.366541 0
M  V30 4 C 10.504056 9.109968 -9.656584 0
M  V30 5 C 11.162326 8.630092 -8.352880 0
M  V30 6 C 10.170053 8.487158 -7.191849 0
M  V30 7 C 10.869218 8.328051 -5.853179 0
M  V30 8 C 11.082770 7.039952 -5.323948 0
M  V30 9 C 11.687580 6.888105 -4.060317 0
M  V30 10 C 12.086359 8.021042 -3.326568 0
M  V30 11 C 11.888921 9.306638 -3.860515 0
M  V30 12 C 11.285867 9.462356 -5.122846 0
M  V30 13 C 9.445560 6.327403 -11.996277 0
M  V30 14 C 9.754073 5.273274 -12.819150 0
M  V30 15 C 8.522038 4.598665 -13.124624 0
M  V30 16 C 8.183604 3.435376 -13.852708 0
M  V30 17 C 6.832560 2.999734 -13.921881 0
M  V30 18 C 5.809260 3.759055 -13.324961 0
M  V30 19 C 6.126600 4.926794 -12.609629 0
M  V30 20 C 7.469264 5.324632 -12.502962 0
M  V30 21 N 8.067204 6.372086 -11.842533 0
M  V30 22 O 6.497310 1.820624 -14.547356 0
M  V30 23 C 7.592359 0.921942 -14.698215 0
M  V30 24 C 8.791914 1.662733 -15.319605 0 CFG=2
M  V30 25 C 10.011472 0.735404 -15.465262 0
M  V30 26 N 11.163802 1.401545 -16.116476 0 CHG=1
M  V30 27 C 11.146371 1.409488 -17.595072 0
M  V30 28 C 12.547408 1.721642 -18.146605 0
M  V30 29 C 12.684842 1.453396 -19.654516 0
M  V30 30 C 14.138451 1.312804 -20.070446 0
M  V30 31 C 14.808335 0.086072 -19.872257 0
M  V30 32 C 16.160864 -0.052520 -20.239744 0
M  V30 33 C 16.847979 1.032970 -20.817549 0
M  V30 34 C 16.179176 2.254767 -21.031170 0
M  V30 35 C 14.828745 2.396329 -20.652969 0
M  V30 36 O 9.196571 2.719646 -14.452482 0
M  V30 37 H 8.792926 7.948136 -10.144794 0
M  V30 38 H 9.794945 9.902909 -9.447308 0
M  V30 39 H 11.274893 9.540833 -10.297904 0
M  V30 40 H 11.909110 9.372425 -8.070435 0
M  V30 41 H 11.711249 7.700521 -8.510346 0
M  V30 42 H 9.496186 7.647689 -7.363709 0
M  V30 43 H 9.535108 9.371095 -7.138296 0
M  V30 44 H 10.765125 6.170445 -5.877988 0
M  V30 45 H 11.834387 5.899335 -3.650411 0
M  V30 46 H 12.543828 7.903431 -2.355557 0
M  V30 47 H 12.195577 10.171835 -3.289692 0
M  V30 48 H 11.127864 10.452261 -5.526474 0
M  V30 49 H 10.743829 4.975889 -13.137830 0
M  V30 50 H 4.783306 3.427116 -13.388535 0
M  V30 51 H 5.355381 5.500803 -12.116737 0
M  V30 52 H 7.554677 7.027973 -11.246306 0
M  V30 53 H 7.861213 0.507414 -13.723969 0
M  V30 54 H 7.282073 0.087021 -15.327176 0
M  V30 55 H 8.505765 2.071778 -16.292871 0
M  V30 56 H 10.328592 0.422462 -14.468525 0
M  V30 57 H 9.749436 -0.179823 -15.999100 0
M  V30 58 H 11.248107 2.345177 -15.760700 0
M  V30 59 H 10.839219 0.423226 -17.947144 0
M  V30 60 H 10.409081 2.126109 -17.961771 0
M  V30 61 H 12.842801 2.747736 -17.916666 0
M  V30 62 H 13.262317 1.080978 -17.631090 0
M  V30 63 H 12.175978 0.524124 -19.914799 0
M  V30 64 H 12.202717 2.240901 -20.236067 0
M  V30 65 H 14.289837 -0.753454 -19.433659 0
M  V30 66 H 16.666208 -0.994123 -20.078938 0
M  V30 67 H 17.887695 0.933318 -21.097021 0
M  V30 68 H 16.706882 3.087157 -21.475727 0
M  V30 69 H 14.327110 3.339590 -20.813248 0
M  V30 70 H 11.991745 0.889049 -15.839134 0
M  V30 END ATOM
M  V30 BEGIN BOND
M  V30 1 2 2 1
M  V30 2 1 3 2
M  V30 3 1 4 3
M  V30 4 1 5 4
M  V30 5 1 6 5
M  V30 6 1 7 6
M  V30 7 2 8 7
M  V30 8 1 9 8
M  V30 9 2 10 9
M  V30 10 1 11 10
M  V30 11 1 12 7
M  V30 12 2 12 11
M  V30 13 1 13 2
M  V30 14 2 14 13
M  V30 15 1 15 14
M  V30 16 1 16 15
M  V30 17 2 17 16
M  V30 18 1 18 17
M  V30 19 2 19 18
M  V30 20 2 20 15
M  V30 21 1 20 19
M  V30 22 1 21 13
M  V30 23 1 21 20
M  V30 24 1 22 17
M  V30 25 1 23 22
M  V30 26 1 24 23
M  V30 27 1 25 24
M  V30 28 1 26 25
M  V30 29 1 27 26
M  V30 30 1 28 27
M  V30 31 1 29 28
M  V30 32 1 30 29
M  V30 33 2 31 30
M  V30 34 1 32 31
M  V30 35 2 33 32
M  V30 36 1 34 33
M  V30 37 1 35 30
M  V30 38 2 35 34
M  V30 39 1 36 16
M  V30 40 1 36 24
M  V30 41 1 37 3
M  V30 42 1 38 4
M  V30 43 1 39 4
M  V30 44 1 40 5
M  V30 45 1 41 5
M  V30 46 1 42 6
M  V30 47 1 43 6
M  V30 48 1 44 8
M  V30 49 1 45 9
M  V30 50 1 46 10
M  V30 51 1 47 11
M  V30 52 1 48 12
M  V30 53 1 49 14
M  V30 54 1 50 18
M  V30 55 1 51 19
M  V30 56 1 52 21
M  V30 57 1 53 23
M  V30 58 1 54 23
M  V30 59 1 24 55 CFG=3
M  V30 60 1 56 25
M  V30 61 1 57 25
M  V30 62 1 58 26
M  V30 63 1 59 27
M  V30 64 1 60 27
M  V30 65 1 61 28
M  V30 66 1 62 28
M  V30 67 1 63 29
M  V30 68 1 64 29
M  V30 69 1 65 31
M  V30 70 1 66 32
M  V30 71 1 67 33
M  V30 72 1 68 34
M  V30 73 1 69 35
M  V30 74 1 70 26
M  V30 END BOND
M  V30 END CTAB
M  END
>  <b_m_subgroup_collapsed>  (75) 
0

>  <r_i_docking_score>  (75) 
-9.3513079663806593

>  <s_m_subgroup_title>  (75) 
glide-dock_SP_D22_pv

>  <s_m_subgroupid>  (75) 
glide-dock_SP_D22_pv

>  <Molecule ChEMBL ID>  (75) 
CHEMBL103983

>  <Standard Type>  (75) 
Ki

>  <Standard Value>  (75) 
41.0

>  <label>  (75) 
1

$$$$
CHEMBL2031885
     RDKit          3D

  0  0  0  0  0  0  0  0  0  0999 V3000
M  V30 BEGIN CTAB
M  V30 COUNTS 66 70 0 0 1
M  V30 BEGIN ATOM
M  V30 1 C 9.384929 1.591211 -18.151678 0
M  V30 2 C 10.437448 0.876022 -17.281010 0 CFG=2
M  V30 3 C 9.847308 -0.373386 -16.604897 0
M  V30 4 C 9.761687 -0.049303 -15.105911 0
M  V30 5 C 10.123755 1.414003 -14.981924 0
M  V30 6 N 10.961988 1.695600 -16.159136 0 CFG=2 CHG=1
M  V30 7 C 11.325397 3.116009 -16.416233 0
M  V30 8 C 10.191991 4.154160 -16.180159 0
M  V30 9 N 10.223856 4.753520 -14.836049 0
M  V30 10 C 9.158147 4.341996 -13.900805 0
M  V30 11 C 8.721538 5.437690 -12.926693 0
M  V30 12 C 9.910723 6.182775 -12.372439 0
M  V30 13 C 9.832195 6.791096 -11.103900 0
M  V30 14 C 10.905588 7.566045 -10.603428 0
M  V30 15 C 10.894448 8.122266 -9.236117 0
M  V30 16 C 12.117391 8.448374 -8.609063 0
M  V30 17 C 12.151818 8.972853 -7.314738 0
M  V30 18 C 10.967335 9.144163 -6.590337 0
M  V30 19 C 11.066033 9.713149 -5.219003 0
M  V30 20 O 10.886007 10.914730 -5.048450 0
M  V30 21 N 11.460979 8.878589 -4.237975 0
M  V30 22 C 11.513341 7.416658 -4.293639 0
M  V30 23 C 11.794575 6.944883 -2.863071 0
M  V30 24 C 12.341080 8.172069 -2.146315 0
M  V30 25 C 11.795794 9.369239 -2.912429 0
M  V30 26 C 9.732423 8.820368 -7.184168 0
M  V30 27 C 9.697987 8.323254 -8.502661 0
M  V30 28 C 12.022281 7.772143 -11.447081 0
M  V30 29 C 12.113829 7.143455 -12.699038 0
M  V30 30 C 11.081426 6.306961 -13.155214 0
M  V30 31 C 11.197273 5.631558 -14.496865 0
M  V30 32 O 12.140871 5.902307 -15.242702 0
M  V30 33 H 9.029408 0.928483 -18.940201 0
M  V30 34 H 8.513477 1.887700 -17.569521 0
M  V30 35 H 9.786589 2.476412 -18.644873 0
M  V30 36 H 11.274214 0.596353 -17.923607 0
M  V30 37 H 10.485382 -1.244231 -16.768448 0
M  V30 38 H 8.865430 -0.622535 -17.008539 0
M  V30 39 H 10.485472 -0.627659 -14.542489 0
M  V30 40 H 8.772174 -0.228066 -14.687405 0
M  V30 41 H 10.632228 1.642667 -14.045372 0
M  V30 42 H 9.190931 1.971120 -15.028758 0
M  V30 43 H 11.687544 3.200256 -17.440893 0
M  V30 44 H 12.192163 3.344964 -15.798239 0
M  V30 45 H 9.209696 3.750544 -16.420353 0
M  V30 46 H 10.317669 4.968491 -16.897354 0
M  V30 47 H 9.552260 3.518161 -13.308344 0
M  V30 48 H 8.278169 3.965126 -14.423815 0
M  V30 49 H 8.129879 5.010769 -12.114006 0
M  V30 50 H 8.084357 6.159991 -13.436843 0
M  V30 51 H 8.940350 6.642335 -10.513584 0
M  V30 52 H 13.068445 8.312572 -9.099026 0
M  V30 53 H 13.099951 9.255524 -6.879143 0
M  V30 54 H 10.577778 6.989466 -4.661473 0
M  V30 55 H 12.307264 7.092878 -4.960330 0
M  V30 56 H 10.879530 6.613298 -2.375126 0
M  V30 57 H 12.491915 6.106904 -2.831814 0
M  V30 58 H 12.098472 8.206648 -1.083227 0
M  V30 59 H 13.419853 8.179210 -2.245030 0
M  V30 60 H 12.528889 10.173092 -2.957131 0
M  V30 61 H 10.887780 9.767245 -2.472075 0
M  V30 62 H 8.805716 8.958306 -6.645122 0
M  V30 63 H 8.735455 8.101134 -8.940054 0
M  V30 64 H 12.843371 8.406562 -11.152840 0
M  V30 65 H 12.995876 7.306934 -13.303582 0
M  V30 66 H 11.846366 1.254742 -15.944423 0
M  V30 END ATOM
M  V30 BEGIN BOND
M  V30 1 1 2 1
M  V30 2 1 3 2
M  V30 3 1 4 3
M  V30 4 1 5 4
M  V30 5 1 6 2
M  V30 6 1 6 5
M  V30 7 1 7 6
M  V30 8 1 8 7
M  V30 9 1 9 8
M  V30 10 1 10 9
M  V30 11 1 11 10
M  V30 12 1 12 11
M  V30 13 1 13 12
M  V30 14 2 14 13
M  V30 15 1 15 14
M  V30 16 1 16 15
M  V30 17 2 17 16
M  V30 18 1 18 17
M  V30 19 1 19 18
M  V30 20 2 20 19
M  V30 21 1 21 19
M  V30 22 1 22 21
M  V30 23 1 23 22
M  V30 24 1 24 23
M  V30 25 1 25 21
M  V30 26 1 25 24
M  V30 27 2 26 18
M  V30 28 2 27 15
M  V30 29 1 27 26
M  V30 30 1 28 14
M  V30 31 2 29 28
M  V30 32 2 30 12
M  V30 33 1 30 29
M  V30 34 1 31 9
M  V30 35 1 31 30
M  V30 36 2 32 31
M  V30 37 1 33 1
M  V30 38 1 34 1
M  V30 39 1 35 1
M  V30 40 1 2 36 CFG=3
M  V30 41 1 37 3
M  V30 42 1 38 3
M  V30 43 1 39 4
M  V30 44 1 40 4
M  V30 45 1 41 5
M  V30 46 1 42 5
M  V30 47 1 43 7
M  V30 48 1 44 7
M  V30 49 1 45 8
M  V30 50 1 46 8
M  V30 51 1 47 10
M  V30 52 1 48 10
M  V30 53 1 49 11
M  V30 54 1 50 11
M  V30 55 1 51 13
M  V30 56 1 52 16
M  V30 57 1 53 17
M  V30 58 1 54 22
M  V30 59 1 55 22
M  V30 60 1 56 23
M  V30 61 1 57 23
M  V30 62 1 58 24
M  V30 63 1 59 24
M  V30 64 1 60 25
M  V30 65 1 61 25
M  V30 66 1 62 26
M  V30 67 1 63 27
M  V30 68 1 64 28
M  V30 69 1 65 29
M  V30 70 1 6 66 CFG=1
M  V30 END BOND
M  V30 END CTAB
M  END
>  <b_m_subgroup_collapsed>  (76) 
0

>  <r_i_docking_score>  (76) 
-9.3317569147196107

>  <s_m_subgroup_title>  (76) 
glide-dock_SP_D22_pv

>  <s_m_subgroupid>  (76) 
glide-dock_SP_D22_pv

>  <Molecule ChEMBL ID>  (76) 
CHEMBL2031885

>  <Standard Type>  (76) 
Ki

>  <Standard Value>  (76) 
10000.0

>  <label>  (76) 
0

$$$$
CHEMBL553311
     RDKit          3D

  0  0  0  0  0  0  0  0  0  0999 V3000
M  V30 BEGIN CTAB
M  V30 COUNTS 55 58 0 0 1
M  V30 BEGIN ATOM
M  V30 1 O 11.685968 6.613719 -7.047587 0
M  V30 2 C 10.906489 7.056163 -6.208178 0
M  V30 3 C 9.402175 6.926398 -6.410196 0
M  V30 4 C 8.770662 8.184714 -7.029634 0
M  V30 5 C 9.326818 8.665591 -8.402861 0
M  V30 6 N 8.891482 7.885053 -9.598886 0 CFG=1 CHG=1
M  V30 7 C 9.105103 8.642982 -10.853350 0
M  V30 8 C 8.581379 7.894494 -12.098342 0
M  V30 9 C 9.006930 6.397715 -12.213309 0 CFG=1
M  V30 10 C 8.065603 5.695869 -13.225544 0
M  V30 11 C 8.468098 4.254297 -13.534921 0
M  V30 12 C 9.887022 4.216327 -14.063469 0
M  V30 13 C 10.245848 3.221029 -14.996013 0
M  V30 14 C 11.535972 3.210060 -15.549827 0
M  V30 15 C 12.479875 4.173033 -15.157122 0
M  V30 16 C 12.139071 5.139599 -14.192893 0
M  V30 17 C 10.836866 5.180339 -13.644202 0
M  V30 18 C 10.485960 6.259086 -12.668419 0
M  V30 19 O 11.327052 7.055797 -12.247307 0
M  V30 20 C 8.818878 5.737820 -10.835423 0
M  V30 21 C 9.469544 6.523483 -9.700135 0
M  V30 22 C 11.330024 7.671639 -4.940401 0
M  V30 23 C 11.296808 9.070179 -4.750750 0
M  V30 24 C 11.682125 9.605622 -3.502819 0
M  V30 25 C 12.107999 8.760077 -2.464650 0
M  V30 26 F 12.485027 9.279750 -1.276403 0
M  V30 27 C 12.140611 7.370816 -2.654090 0
M  V30 28 C 11.756052 6.834029 -3.893110 0
M  V30 29 H 8.951878 6.771699 -5.443541 0
M  V30 30 H 9.159347 6.000611 -6.927376 0
M  V30 31 H 8.927582 8.970820 -6.297766 0
M  V30 32 H 7.688225 8.073765 -7.046481 0
M  V30 33 H 10.416224 8.748811 -8.393786 0
M  V30 34 H 8.941288 9.679849 -8.528509 0
M  V30 35 H 8.570830 9.594426 -10.783832 0
M  V30 36 H 10.160889 8.885546 -10.960535 0
M  V30 37 H 8.886647 8.474808 -12.967472 0
M  V30 38 H 7.495550 7.957846 -12.139768 0
M  V30 39 H 7.032740 5.721137 -12.877353 0
M  V30 40 H 8.086297 6.244365 -14.161433 0
M  V30 41 H 7.784428 3.834500 -14.275318 0
M  V30 42 H 8.388236 3.622603 -12.649513 0
M  V30 43 H 9.525879 2.484378 -15.316255 0
M  V30 44 H 11.802944 2.470081 -16.291309 0
M  V30 45 H 13.471462 4.166405 -15.590133 0
M  V30 46 H 12.879695 5.867494 -13.901833 0
M  V30 47 H 7.751282 5.637284 -10.625099 0
M  V30 48 H 9.223640 4.727266 -10.834665 0
M  V30 49 H 9.254652 5.935435 -8.824171 0
M  V30 50 H 10.556133 6.572769 -9.793751 0
M  V30 51 H 10.993484 9.731531 -5.550955 0
M  V30 52 H 11.655245 10.666141 -3.338384 0
M  V30 53 H 12.467225 6.723011 -1.853233 0
M  V30 54 H 11.772641 5.770237 -4.040022 0
M  V30 55 H 7.865772 7.772861 -9.570654 0
M  V30 END ATOM
M  V30 BEGIN BOND
M  V30 1 2 2 1
M  V30 2 1 3 2
M  V30 3 1 4 3
M  V30 4 1 5 4
M  V30 5 1 6 5
M  V30 6 1 7 6
M  V30 7 1 8 7
M  V30 8 1 9 8 CFG=1
M  V30 9 1 10 9
M  V30 10 1 11 10
M  V30 11 1 12 11
M  V30 12 2 13 12
M  V30 13 1 14 13
M  V30 14 2 15 14
M  V30 15 1 16 15
M  V30 16 1 17 12
M  V30 17 2 17 16
M  V30 18 1 18 9
M  V30 19 1 18 17
M  V30 20 2 19 18
M  V30 21 1 20 9
M  V30 22 1 21 6
M  V30 23 1 21 20
M  V30 24 1 22 2
M  V30 25 1 23 22
M  V30 26 2 24 23
M  V30 27 1 25 24
M  V30 28 1 26 25
M  V30 29 2 27 25
M  V30 30 2 28 22
M  V30 31 1 28 27
M  V30 32 1 29 3
M  V30 33 1 30 3
M  V30 34 1 31 4
M  V30 35 1 32 4
M  V30 36 1 33 5
M  V30 37 1 34 5
M  V30 38 1 35 7
M  V30 39 1 36 7
M  V30 40 1 37 8
M  V30 41 1 38 8
M  V30 42 1 39 10
M  V30 43 1 40 10
M  V30 44 1 41 11
M  V30 45 1 42 11
M  V30 46 1 43 13
M  V30 47 1 44 14
M  V30 48 1 45 15
M  V30 49 1 46 16
M  V30 50 1 47 20
M  V30 51 1 48 20
M  V30 52 1 49 21
M  V30 53 1 50 21
M  V30 54 1 51 23
M  V30 55 1 52 24
M  V30 56 1 53 27
M  V30 57 1 54 28
M  V30 58 1 6 55 CFG=1
M  V30 END BOND
M  V30 END CTAB
M  END
>  <b_m_subgroup_collapsed>  (77) 
0

>  <r_i_docking_score>  (77) 
-9.3197989043941796

>  <s_m_subgroup_title>  (77) 
glide-dock_SP_D22_pv

>  <s_m_subgroupid>  (77) 
glide-dock_SP_D22_pv

>  <Molecule ChEMBL ID>  (77) 
CHEMBL553311

>  <Standard Type>  (77) 
Ki

>  <Standard Value>  (77) 
25.0

>  <label>  (77) 
1

$$$$
CHEMBL3104522
     RDKit          3D

  0  0  0  0  0  0  0  0  0  0999 V3000
M  V30 BEGIN CTAB
M  V30 COUNTS 59 63 0 0 1
M  V30 BEGIN ATOM
M  V30 1 N 3.690829 -0.503990 -13.846847 0
M  V30 2 C 4.852396 0.265136 -13.947447 0
M  V30 3 C 5.920547 -0.167406 -14.759391 0
M  V30 4 C 7.055537 0.651698 -14.933378 0
M  V30 5 C 7.138699 1.909107 -14.297192 0
M  V30 6 C 6.086094 2.329471 -13.446837 0
M  V30 7 C 4.956145 1.498756 -13.274269 0
M  V30 8 C 6.153630 3.657798 -12.698378 0 CFG=2
M  V30 9 O 5.310233 4.608269 -13.310788 0
M  V30 10 C 7.591185 4.232805 -12.591508 0 CFG=2
M  V30 11 C 7.688640 5.586652 -11.842791 0
M  V30 12 C 9.139538 5.913681 -11.413362 0
M  V30 13 N 9.285862 6.903989 -10.306610 0 CFG=2 CHG=1
M  V30 14 C 10.686508 7.414003 -10.271566 0
M  V30 15 C 10.986487 8.336139 -9.083823 0
M  V30 16 C 10.604033 7.671683 -7.747042 0 CFG=1
M  V30 17 C 10.967505 8.532314 -6.558881 0
M  V30 18 N 10.886286 9.853230 -6.646451 0
M  V30 19 O 11.285714 10.408808 -5.404958 0
M  V30 20 C 11.615602 9.385275 -4.537655 0
M  V30 21 C 12.081237 9.410726 -3.218790 0
M  V30 22 C 12.333720 8.180318 -2.591696 0
M  V30 23 F 12.817430 8.172448 -1.330614 0
M  V30 24 C 12.091786 6.965455 -3.277859 0
M  V30 25 C 11.629659 6.966532 -4.616827 0
M  V30 26 C 11.393270 8.204991 -5.251697 0
M  V30 27 C 9.111549 7.326648 -7.816627 0
M  V30 28 C 8.838530 6.361709 -8.988323 0
M  V30 29 C 8.274544 4.202786 -13.963534 0
M  V30 30 C 8.383503 2.764892 -14.507116 0
M  V30 31 H 3.551974 -1.233452 -14.534563 0
M  V30 32 H 2.826172 -0.032531 -13.605856 0
M  V30 33 H 5.867390 -1.118080 -15.271669 0
M  V30 34 H 7.860235 0.307933 -15.566542 0
M  V30 35 H 4.147756 1.846518 -12.647591 0
M  V30 36 H 5.770205 3.489331 -11.689760 0
M  V30 37 H 5.313116 5.393145 -12.783331 0
M  V30 38 H 8.164748 3.545565 -11.977799 0
M  V30 39 H 7.285250 6.399631 -12.447615 0
M  V30 40 H 7.045918 5.525181 -10.967764 0
M  V30 41 H 9.664274 5.003698 -11.119451 0
M  V30 42 H 9.665095 6.285859 -12.292867 0
M  V30 43 H 11.373397 6.572166 -10.223633 0
M  V30 44 H 10.906403 7.940951 -11.201031 0
M  V30 45 H 12.046991 8.595498 -9.084766 0
M  V30 46 H 10.443096 9.272862 -9.215077 0
M  V30 47 H 11.161508 6.738147 -7.660153 0
M  V30 48 H 12.243402 10.344173 -2.699010 0
M  V30 49 H 12.278326 6.025270 -2.778955 0
M  V30 50 H 11.460228 6.036362 -5.139072 0
M  V30 51 H 8.787872 6.864333 -6.882934 0
M  V30 52 H 8.515710 8.234202 -7.927649 0
M  V30 53 H 7.769272 6.158770 -9.026791 0
M  V30 54 H 9.338441 5.411958 -8.795704 0
M  V30 55 H 9.270424 4.644899 -13.927008 0
M  V30 56 H 7.688838 4.821659 -14.639418 0
M  V30 57 H 9.209064 2.255726 -14.008863 0
M  V30 58 H 8.633448 2.791811 -15.568701 0
M  V30 59 H 8.665313 7.681528 -10.507897 0
M  V30 END ATOM
M  V30 BEGIN BOND
M  V30 1 1 2 1
M  V30 2 1 3 2
M  V30 3 2 4 3
M  V30 4 1 5 4
M  V30 5 2 6 5
M  V30 6 2 7 2
M  V30 7 1 7 6
M  V30 8 1 8 6
M  V30 9 1 9 8
M  V30 10 1 10 8
M  V30 11 1 11 10
M  V30 12 1 12 11
M  V30 13 1 13 12
M  V30 14 1 14 13
M  V30 15 1 15 14
M  V30 16 1 16 15
M  V30 17 1 17 16
M  V30 18 2 18 17
M  V30 19 1 19 18
M  V30 20 1 20 19
M  V30 21 1 21 20
M  V30 22 2 22 21
M  V30 23 1 23 22
M  V30 24 1 24 22
M  V30 25 2 25 24
M  V30 26 1 26 17
M  V30 27 2 26 20
M  V30 28 1 26 25
M  V30 29 1 27 16
M  V30 30 1 28 13
M  V30 31 1 28 27
M  V30 32 1 29 10
M  V30 33 1 30 5
M  V30 34 1 30 29
M  V30 35 1 31 1
M  V30 36 1 32 1
M  V30 37 1 33 3
M  V30 38 1 34 4
M  V30 39 1 35 7
M  V30 40 1 8 36 CFG=1
M  V30 41 1 37 9
M  V30 42 1 10 38 CFG=1
M  V30 43 1 39 11
M  V30 44 1 40 11
M  V30 45 1 41 12
M  V30 46 1 42 12
M  V30 47 1 43 14
M  V30 48 1 44 14
M  V30 49 1 45 15
M  V30 50 1 46 15
M  V30 51 1 16 47 CFG=1
M  V30 52 1 48 21
M  V30 53 1 49 24
M  V30 54 1 50 25
M  V30 55 1 51 27
M  V30 56 1 52 27
M  V30 57 1 53 28
M  V30 58 1 54 28
M  V30 59 1 55 29
M  V30 60 1 56 29
M  V30 61 1 57 30
M  V30 62 1 58 30
M  V30 63 1 13 59 CFG=3
M  V30 END BOND
M  V30 END CTAB
M  END
>  <b_m_subgroup_collapsed>  (78) 
0

>  <r_i_docking_score>  (78) 
-9.3159477105201098

>  <s_m_subgroup_title>  (78) 
glide-dock_SP_D22_pv

>  <s_m_subgroupid>  (78) 
glide-dock_SP_D22_pv

>  <Molecule ChEMBL ID>  (78) 
CHEMBL3104522

>  <Standard Type>  (78) 
Ki

>  <Standard Value>  (78) 
87.1

>  <label>  (78) 
1

$$$$
CHEMBL5958689
     RDKit          3D

  0  0  0  0  0  0  0  0  0  0999 V3000
M  V30 BEGIN CTAB
M  V30 COUNTS 54 58 0 0 1
M  V30 BEGIN ATOM
M  V30 1 C 9.126009 0.291872 -15.617543 0
M  V30 2 N 8.071997 1.024918 -14.946076 0
M  V30 3 C 6.832805 0.594889 -14.656196 0
M  V30 4 N 6.086308 1.465137 -13.979589 0
M  V30 5 C 6.918882 2.577066 -13.849946 0
M  V30 6 C 8.131283 2.312112 -14.430742 0
M  V30 7 C 9.297976 3.228080 -14.405140 0
M  V30 8 C 8.854481 4.646325 -13.973377 0
M  V30 9 N 7.732138 4.673022 -13.002005 0
M  V30 10 C 7.826397 5.727847 -11.982972 0
M  V30 11 C 8.401299 5.159349 -10.664050 0
M  V30 12 N 8.692850 6.206682 -9.648093 0 CFG=2 CHG=1
M  V30 13 C 9.978319 6.909050 -9.931309 0
M  V30 14 C 10.346032 7.954531 -8.862443 0
M  V30 15 C 10.349610 7.336943 -7.449443 0 CFG=1
M  V30 16 C 10.753233 8.307776 -6.365796 0
M  V30 17 N 10.520501 9.611051 -6.492424 0
M  V30 18 O 10.978065 10.252861 -5.309274 0
M  V30 19 C 11.470242 9.303498 -4.431908 0
M  V30 20 C 11.998046 9.412499 -3.137835 0
M  V30 21 C 12.362924 8.224328 -2.472136 0
M  V30 22 C 12.197511 6.972332 -3.110110 0
M  V30 23 C 11.683936 6.891205 -4.425954 0
M  V30 24 C 11.313733 8.081284 -5.089216 0
M  V30 25 C 8.967950 6.729881 -7.197540 0
M  V30 26 C 8.661279 5.664646 -8.262456 0
M  V30 27 C 6.674518 3.815096 -13.052908 0
M  V30 28 O 5.637115 3.979640 -12.410520 0
M  V30 29 H 9.578437 0.919189 -16.386293 0
M  V30 30 H 9.891157 0.002881 -14.894706 0
M  V30 31 H 8.720486 -0.606228 -16.086319 0
M  V30 32 H 6.478688 -0.389994 -14.924577 0
M  V30 33 H 10.030997 2.842316 -13.695226 0
M  V30 34 H 9.788649 3.261650 -15.378090 0
M  V30 35 H 8.505273 5.186622 -14.854501 0
M  V30 36 H 9.722605 5.199534 -13.611183 0
M  V30 37 H 6.844487 6.171312 -11.806437 0
M  V30 38 H 8.438842 6.546288 -12.360700 0
M  V30 39 H 9.305015 4.579003 -10.859131 0
M  V30 40 H 7.685969 4.446107 -10.254615 0
M  V30 41 H 9.933537 7.395907 -10.905136 0
M  V30 42 H 10.780035 6.172907 -9.985838 0
M  V30 43 H 9.630479 8.777799 -8.910275 0
M  V30 44 H 11.324907 8.380338 -9.088800 0
M  V30 45 H 11.080391 6.526637 -7.447372 0
M  V30 46 H 12.092680 10.375571 -2.658341 0
M  V30 47 H 12.758329 8.271852 -1.468209 0
M  V30 48 H 12.469134 6.065487 -2.587895 0
M  V30 49 H 11.557686 5.931101 -4.904707 0
M  V30 50 H 8.936289 6.268714 -6.210526 0
M  V30 51 H 8.201385 7.507326 -7.194610 0
M  V30 52 H 7.683056 5.255861 -8.051010 0
M  V30 53 H 9.367378 4.837108 -8.180886 0
M  V30 54 H 7.929450 6.884130 -9.712640 0
M  V30 END ATOM
M  V30 BEGIN BOND
M  V30 1 1 2 1
M  V30 2 1 3 2
M  V30 3 2 4 3
M  V30 4 1 5 4
M  V30 5 1 6 2
M  V30 6 2 6 5
M  V30 7 1 7 6
M  V30 8 1 8 7
M  V30 9 1 9 8
M  V30 10 1 10 9
M  V30 11 1 11 10
M  V30 12 1 12 11
M  V30 13 1 13 12
M  V30 14 1 14 13
M  V30 15 1 15 14
M  V30 16 1 16 15
M  V30 17 2 17 16
M  V30 18 1 18 17
M  V30 19 1 19 18
M  V30 20 2 20 19
M  V30 21 1 21 20
M  V30 22 2 22 21
M  V30 23 1 23 22
M  V30 24 1 24 16
M  V30 25 1 24 19
M  V30 26 2 24 23
M  V30 27 1 25 15
M  V30 28 1 26 12
M  V30 29 1 26 25
M  V30 30 1 27 5
M  V30 31 1 27 9
M  V30 32 2 28 27
M  V30 33 1 29 1
M  V30 34 1 30 1
M  V30 35 1 31 1
M  V30 36 1 32 3
M  V30 37 1 33 7
M  V30 38 1 34 7
M  V30 39 1 35 8
M  V30 40 1 36 8
M  V30 41 1 37 10
M  V30 42 1 38 10
M  V30 43 1 39 11
M  V30 44 1 40 11
M  V30 45 1 41 13
M  V30 46 1 42 13
M  V30 47 1 43 14
M  V30 48 1 44 14
M  V30 49 1 15 45 CFG=3
M  V30 50 1 46 20
M  V30 51 1 47 21
M  V30 52 1 48 22
M  V30 53 1 49 23
M  V30 54 1 50 25
M  V30 55 1 51 25
M  V30 56 1 52 26
M  V30 57 1 53 26
M  V30 58 1 12 54 CFG=1
M  V30 END BOND
M  V30 END CTAB
M  END
>  <b_m_subgroup_collapsed>  (79) 
0

>  <r_i_docking_score>  (79) 
-9.3096736185448705

>  <s_m_subgroup_title>  (79) 
glide-dock_SP_D22_pv

>  <s_m_subgroupid>  (79) 
glide-dock_SP_D22_pv

>  <Molecule ChEMBL ID>  (79) 
CHEMBL5958689

>  <Standard Type>  (79) 
Ki

>  <Standard Value>  (79) 
34023.0

>  <label>  (79) 
0

$$$$
CHEMBL4279397
     RDKit          3D

  0  0  0  0  0  0  0  0  0  0999 V3000
M  V30 BEGIN CTAB
M  V30 COUNTS 61 64 0 0 1
M  V30 BEGIN ATOM
M  V30 1 C 9.456329 4.767952 -17.312397 0
M  V30 2 C 10.237079 4.021146 -16.214912 0 CFG=1
M  V30 3 C 10.930738 2.792947 -16.838326 0
M  V30 4 C 10.208295 1.605150 -17.111719 0
M  V30 5 C 10.816625 0.524769 -17.779251 0
M  V30 6 C 12.151288 0.623534 -18.208973 0
M  V30 7 F 12.730354 -0.413033 -18.860647 0
M  V30 8 C 12.881046 1.800415 -17.959246 0
M  V30 9 C 12.276182 2.873270 -17.272638 0
M  V30 10 N 11.160715 4.925952 -15.547852 0
M  V30 11 C 10.939125 5.038320 -14.231501 0
M  V30 12 O 11.630035 5.691299 -13.451625 0
M  V30 13 N 9.842793 4.328132 -13.917298 0
M  V30 14 C 9.296767 4.173696 -12.554327 0
M  V30 15 C 8.887557 5.492392 -11.829188 0 CFG=1
M  V30 16 O 7.538921 5.772940 -12.150372 0
M  V30 17 C 8.994911 5.308965 -10.289545 0
M  V30 18 N 8.885983 6.541610 -9.451508 0 CHG=1
M  V30 19 C 8.961023 6.185882 -8.004884 0
M  V30 20 C 9.020306 7.399737 -7.054463 0
M  V30 21 N 10.027862 8.371320 -7.476414 0
M  V30 22 C 10.841544 9.078228 -6.650844 0
M  V30 23 O 11.290500 10.171639 -6.976912 0
M  V30 24 C 11.205821 8.578760 -5.277869 0
M  V30 25 C 11.431182 9.527199 -4.252583 0
M  V30 26 C 11.879657 9.127182 -2.981783 0
M  V30 27 C 12.087797 7.765898 -2.709946 0
M  V30 28 C 11.873974 6.813673 -3.721559 0
M  V30 29 C 11.454474 7.213891 -5.005407 0
M  V30 30 C 9.791806 8.805381 -8.861131 0
M  V30 31 C 9.853119 7.609852 -9.822618 0
M  V30 32 C 9.359274 3.696787 -14.998030 0
M  V30 33 O 8.363707 2.972875 -15.037384 0
M  V30 34 H 8.755987 4.107503 -17.823088 0
M  V30 35 H 8.886373 5.605014 -16.923143 0
M  V30 36 H 10.131824 5.163126 -18.070894 0
M  V30 37 H 9.168638 1.509284 -16.837582 0
M  V30 38 H 10.251883 -0.373872 -17.978123 0
M  V30 39 H 13.905816 1.878031 -18.291388 0
M  V30 40 H 12.858024 3.767852 -17.113583 0
M  V30 41 H 11.926646 5.377313 -16.022421 0
M  V30 42 H 10.084004 3.671626 -11.987588 0
M  V30 43 H 8.461738 3.473590 -12.546659 0
M  V30 44 H 9.514649 6.312760 -12.167478 0
M  V30 45 H 7.222134 6.511424 -11.641563 0
M  V30 46 H 8.246063 4.584899 -9.961481 0
M  V30 47 H 9.963238 4.858740 -10.062727 0
M  V30 48 H 8.103497 5.563693 -7.742309 0
M  V30 49 H 9.852795 5.578935 -7.837590 0
M  V30 50 H 8.082191 7.937996 -7.061582 0
M  V30 51 H 9.130291 7.059122 -6.028450 0
M  V30 52 H 11.280128 10.579993 -4.439363 0
M  V30 53 H 12.056113 9.866083 -2.215238 0
M  V30 54 H 12.428272 7.455651 -1.734172 0
M  V30 55 H 12.058066 5.772039 -3.517173 0
M  V30 56 H 11.343654 6.463161 -5.776223 0
M  V30 57 H 8.816196 9.291435 -8.924087 0
M  V30 58 H 10.521240 9.542798 -9.201044 0
M  V30 59 H 10.865459 7.198942 -9.837008 0
M  V30 60 H 9.641410 7.979977 -10.823771 0
M  V30 61 H 7.953844 6.936202 -9.602437 0
M  V30 END ATOM
M  V30 BEGIN BOND
M  V30 1 1 2 1 CFG=3
M  V30 2 1 3 2
M  V30 3 1 4 3
M  V30 4 2 5 4
M  V30 5 1 6 5
M  V30 6 1 7 6
M  V30 7 2 8 6
M  V30 8 2 9 3
M  V30 9 1 9 8
M  V30 10 1 10 2
M  V30 11 1 11 10
M  V30 12 2 12 11
M  V30 13 1 13 11
M  V30 14 1 14 13
M  V30 15 1 15 14
M  V30 16 1 16 15
M  V30 17 1 17 15
M  V30 18 1 18 17
M  V30 19 1 19 18
M  V30 20 1 20 19
M  V30 21 1 21 20
M  V30 22 1 22 21
M  V30 23 2 23 22
M  V30 24 1 24 22
M  V30 25 2 25 24
M  V30 26 1 26 25
M  V30 27 2 27 26
M  V30 28 1 28 27
M  V30 29 1 29 24
M  V30 30 2 29 28
M  V30 31 1 30 21
M  V30 32 1 31 18
M  V30 33 1 31 30
M  V30 34 1 32 2
M  V30 35 1 32 13
M  V30 36 2 33 32
M  V30 37 1 34 1
M  V30 38 1 35 1
M  V30 39 1 36 1
M  V30 40 1 37 4
M  V30 41 1 38 5
M  V30 42 1 39 8
M  V30 43 1 40 9
M  V30 44 1 41 10
M  V30 45 1 42 14
M  V30 46 1 43 14
M  V30 47 1 15 44 CFG=3
M  V30 48 1 45 16
M  V30 49 1 46 17
M  V30 50 1 47 17
M  V30 51 1 48 19
M  V30 52 1 49 19
M  V30 53 1 50 20
M  V30 54 1 51 20
M  V30 55 1 52 25
M  V30 56 1 53 26
M  V30 57 1 54 27
M  V30 58 1 55 28
M  V30 59 1 56 29
M  V30 60 1 57 30
M  V30 61 1 58 30
M  V30 62 1 59 31
M  V30 63 1 60 31
M  V30 64 1 61 18
M  V30 END BOND
M  V30 END CTAB
M  END
>  <b_m_subgroup_collapsed>  (80) 
0

>  <r_i_docking_score>  (80) 
-9.3093486577999993

>  <s_m_subgroup_title>  (80) 
glide-dock_SP_D22_pv

>  <s_m_subgroupid>  (80) 
glide-dock_SP_D22_pv

>  <Molecule ChEMBL ID>  (80) 
CHEMBL4279397

>  <Standard Type>  (80) 
Ki

>  <Standard Value>  (80) 
10080.0

>  <label>  (80) 
0

$$$$
CHEMBL3220212
     RDKit          3D

  0  0  0  0  0  0  0  0  0  0999 V3000
M  V30 BEGIN CTAB
M  V30 COUNTS 53 57 0 0 1
M  V30 BEGIN ATOM
M  V30 1 C 6.959486 0.741403 -14.893770 0
M  V30 2 C 7.642459 2.055686 -14.647885 0
M  V30 3 N 8.802614 2.331671 -15.233305 0
M  V30 4 O 9.198431 3.608721 -14.792449 0
M  V30 5 C 8.247810 4.060406 -13.939765 0
M  V30 6 C 7.246646 3.157793 -13.846919 0
M  V30 7 C 6.084306 3.376733 -12.970623 0
M  V30 8 O 5.232889 2.529599 -12.706289 0
M  V30 9 C 6.006159 4.797371 -12.380015 0
M  V30 10 C 7.394074 5.443846 -12.052819 0 CFG=1
M  V30 11 C 8.033789 4.818917 -10.783595 0
M  V30 12 N 8.486032 5.835969 -9.794611 0 CFG=2 CHG=1
M  V30 13 C 9.725927 6.515580 -10.244230 0
M  V30 14 C 10.236803 7.546872 -9.233327 0
M  V30 15 C 10.427828 6.959811 -7.815712 0 CFG=1
M  V30 16 C 10.895163 7.999846 -6.823332 0
M  V30 17 C 11.064604 9.324096 -7.115325 0
M  V30 18 N 11.442535 10.019832 -5.983525 0
M  V30 19 C 11.595586 9.156293 -4.924087 0
M  V30 20 C 11.972032 9.363513 -3.584847 0
M  V30 21 C 12.092932 8.258952 -2.727642 0
M  V30 22 F 12.486228 8.441341 -1.447209 0
M  V30 23 C 11.817705 6.965125 -3.206630 0
M  V30 24 C 11.407929 6.770098 -4.543305 0
M  V30 25 C 11.283809 7.856889 -5.439867 0
M  V30 26 C 9.089853 6.333999 -7.406478 0
M  V30 27 C 8.635217 5.271121 -8.425460 0
M  V30 28 C 8.377278 5.371300 -13.254318 0
M  V30 29 H 6.621647 0.293098 -13.959529 0
M  V30 30 H 6.086309 0.870337 -15.532853 0
M  V30 31 H 7.623590 0.024600 -15.380476 0
M  V30 32 H 5.376100 4.781216 -11.489227 0
M  V30 33 H 5.485919 5.421684 -13.106143 0
M  V30 34 H 7.205150 6.498648 -11.848068 0
M  V30 35 H 8.871891 4.172470 -11.046825 0
M  V30 36 H 7.321761 4.143455 -10.313437 0
M  V30 37 H 9.548631 7.022362 -11.192049 0
M  V30 38 H 10.487062 5.766784 -10.419730 0
M  V30 39 H 9.517983 8.368453 -9.202012 0
M  V30 40 H 11.176753 7.963216 -9.600289 0
M  V30 41 H 11.179145 6.171124 -7.864142 0
M  V30 42 H 10.928464 9.786427 -8.071486 0
M  V30 43 H 11.614148 11.014808 -5.970701 0
M  V30 44 H 12.175273 10.351377 -3.203621 0
M  V30 45 H 11.908898 6.117208 -2.542878 0
M  V30 46 H 11.186226 5.772444 -4.887605 0
M  V30 47 H 9.176618 5.886668 -6.419136 0
M  V30 48 H 8.326938 7.109425 -7.316009 0
M  V30 49 H 7.690047 4.854482 -8.092951 0
M  V30 50 H 9.349239 4.446390 -8.448477 0
M  V30 51 H 8.127642 6.160962 -13.959287 0
M  V30 52 H 9.409868 5.542539 -12.953966 0
M  V30 53 H 7.752122 6.540584 -9.743742 0
M  V30 END ATOM
M  V30 BEGIN BOND
M  V30 1 1 2 1
M  V30 2 2 3 2
M  V30 3 1 4 3
M  V30 4 1 5 4
M  V30 5 1 6 2
M  V30 6 2 6 5
M  V30 7 1 7 6
M  V30 8 2 8 7
M  V30 9 1 9 7
M  V30 10 1 10 9
M  V30 11 1 11 10
M  V30 12 1 12 11
M  V30 13 1 13 12
M  V30 14 1 14 13
M  V30 15 1 15 14
M  V30 16 1 16 15
M  V30 17 2 17 16
M  V30 18 1 18 17
M  V30 19 1 19 18
M  V30 20 1 20 19
M  V30 21 2 21 20
M  V30 22 1 22 21
M  V30 23 1 23 21
M  V30 24 2 24 23
M  V30 25 1 25 16
M  V30 26 2 25 19
M  V30 27 1 25 24
M  V30 28 1 26 15
M  V30 29 1 27 12
M  V30 30 1 27 26
M  V30 31 1 28 5
M  V30 32 1 28 10
M  V30 33 1 29 1
M  V30 34 1 30 1
M  V30 35 1 31 1
M  V30 36 1 32 9
M  V30 37 1 33 9
M  V30 38 1 10 34 CFG=1
M  V30 39 1 35 11
M  V30 40 1 36 11
M  V30 41 1 37 13
M  V30 42 1 38 13
M  V30 43 1 39 14
M  V30 44 1 40 14
M  V30 45 1 15 41 CFG=3
M  V30 46 1 42 17
M  V30 47 1 43 18
M  V30 48 1 44 20
M  V30 49 1 45 23
M  V30 50 1 46 24
M  V30 51 1 47 26
M  V30 52 1 48 26
M  V30 53 1 49 27
M  V30 54 1 50 27
M  V30 55 1 51 28
M  V30 56 1 52 28
M  V30 57 1 12 53 CFG=1
M  V30 END BOND
M  V30 END CTAB
M  END
>  <b_m_subgroup_collapsed>  (81) 
0

>  <r_i_docking_score>  (81) 
-9.3060150539475792

>  <s_m_subgroup_title>  (81) 
glide-dock_SP_D22_pv

>  <s_m_subgroupid>  (81) 
glide-dock_SP_D22_pv

>  <Molecule ChEMBL ID>  (81) 
CHEMBL3220212

>  <Standard Type>  (81) 
Ki

>  <Standard Value>  (81) 
63.1

>  <label>  (81) 
1

$$$$
CHEMBL3423340
     RDKit          3D

  0  0  0  0  0  0  0  0  0  0999 V3000
M  V30 BEGIN CTAB
M  V30 COUNTS 68 72 0 0 1
M  V30 BEGIN ATOM
M  V30 1 C 5.069958 0.440345 -13.593415 0
M  V30 2 C 6.336290 0.880965 -14.247985 0
M  V30 3 C 7.268370 0.167694 -14.972243 0
M  V30 4 N 8.261086 0.981052 -15.390130 0
M  V30 5 C 9.435845 1.100128 -16.109613 0
M  V30 6 C 10.155513 0.121387 -16.911255 0
M  V30 7 O 9.732618 -1.027226 -17.045889 0
M  V30 8 N 11.280374 0.621077 -17.507265 0
M  V30 9 C 12.044135 -0.273111 -18.398327 0
M  V30 10 C 11.726069 1.925881 -17.383579 0
M  V30 11 O 12.744449 2.308271 -17.967871 0
M  V30 12 N 11.004501 2.798952 -16.605080 0
M  V30 13 C 11.465632 4.181086 -16.440716 0
M  V30 14 C 9.800700 2.392885 -15.969878 0
M  V30 15 N 8.885575 3.144383 -15.226665 0
M  V30 16 C 7.988801 2.235004 -14.923253 0
M  V30 17 N 6.803567 2.211504 -14.256042 0
M  V30 18 C 6.206422 3.456655 -13.791003 0
M  V30 19 C 6.982064 4.091551 -12.628091 0
M  V30 20 C 6.607657 5.563008 -12.342693 0
M  V30 21 C 7.804268 6.533583 -12.421334 0
M  V30 22 C 8.970736 6.186493 -11.474200 0
M  V30 23 N 8.886119 6.867314 -10.155783 0 CHG=1
M  V30 24 C 9.812337 8.029198 -10.100487 0
M  V30 25 C 9.903073 8.674222 -8.711289 0
M  V30 26 N 10.179889 7.671398 -7.684696 0
M  V30 27 C 10.725904 8.086773 -6.445278 0
M  V30 28 C 10.817763 9.458758 -6.103827 0
M  V30 29 C 11.279622 9.872251 -4.843221 0
M  V30 30 C 11.687088 8.915005 -3.906740 0
M  V30 31 Cl 12.133830 9.372602 -2.312387 0
M  V30 32 C 11.680160 7.558547 -4.244534 0
M  V30 33 Cl 12.179542 6.433351 -3.047124 0
M  V30 34 C 11.200088 7.138852 -5.502025 0
M  V30 35 C 9.184947 6.599742 -7.656033 0
M  V30 36 C 9.087017 5.911340 -9.029757 0
M  V30 37 H 4.904780 -0.624996 -13.754032 0
M  V30 38 H 5.109673 0.623793 -12.519556 0
M  V30 39 H 4.208965 0.971892 -13.997640 0
M  V30 40 H 7.259172 -0.885565 -15.214520 0
M  V30 41 H 11.837127 -0.018184 -19.438322 0
M  V30 42 H 13.120461 -0.177001 -18.246382 0
M  V30 43 H 11.816601 -1.332622 -18.272930 0
M  V30 44 H 10.846440 4.751384 -15.746650 0
M  V30 45 H 12.486953 4.202924 -16.055828 0
M  V30 46 H 11.450498 4.704427 -17.397453 0
M  V30 47 H 5.176862 3.267628 -13.485236 0
M  V30 48 H 6.153279 4.134337 -14.644227 0
M  V30 49 H 8.043535 4.013937 -12.850586 0
M  V30 50 H 6.825148 3.502347 -11.723210 0
M  V30 51 H 6.144045 5.643247 -11.361600 0
M  V30 52 H 5.842456 5.897762 -13.045784 0
M  V30 53 H 7.468608 7.555064 -12.247397 0
M  V30 54 H 8.172295 6.535571 -13.446935 0
M  V30 55 H 9.904808 6.450684 -11.971125 0
M  V30 56 H 9.050812 5.110550 -11.326900 0
M  V30 57 H 9.505125 8.773227 -10.836594 0
M  V30 58 H 10.816688 7.704177 -10.381034 0
M  V30 59 H 8.973204 9.192474 -8.471223 0
M  V30 60 H 10.699365 9.417047 -8.748496 0
M  V30 61 H 10.487802 10.224665 -6.781179 0
M  V30 62 H 11.283813 10.921348 -4.589437 0
M  V30 63 H 11.186020 6.084202 -5.724205 0
M  V30 64 H 9.408979 5.843637 -6.904690 0
M  V30 65 H 8.219055 7.027991 -7.381917 0
M  V30 66 H 8.270163 5.186995 -9.024047 0
M  V30 67 H 10.006613 5.350344 -9.198999 0
M  V30 68 H 7.931204 7.237927 -10.073278 0
M  V30 END ATOM
M  V30 BEGIN BOND
M  V30 1 1 2 1
M  V30 2 2 3 2
M  V30 3 1 4 3
M  V30 4 1 5 4
M  V30 5 1 6 5
M  V30 6 2 7 6
M  V30 7 1 8 6
M  V30 8 1 9 8
M  V30 9 1 10 8
M  V30 10 2 11 10
M  V30 11 1 12 10
M  V30 12 1 13 12
M  V30 13 2 14 5
M  V30 14 1 14 12
M  V30 15 1 15 14
M  V30 16 1 16 4
M  V30 17 2 16 15
M  V30 18 1 17 2
M  V30 19 1 17 16
M  V30 20 1 18 17
M  V30 21 1 19 18
M  V30 22 1 20 19
M  V30 23 1 21 20
M  V30 24 1 22 21
M  V30 25 1 23 22
M  V30 26 1 24 23
M  V30 27 1 25 24
M  V30 28 1 26 25
M  V30 29 1 27 26
M  V30 30 1 28 27
M  V30 31 2 29 28
M  V30 32 1 30 29
M  V30 33 1 31 30
M  V30 34 2 32 30
M  V30 35 1 33 32
M  V30 36 2 34 27
M  V30 37 1 34 32
M  V30 38 1 35 26
M  V30 39 1 36 23
M  V30 40 1 36 35
M  V30 41 1 37 1
M  V30 42 1 38 1
M  V30 43 1 39 1
M  V30 44 1 40 3
M  V30 45 1 41 9
M  V30 46 1 42 9
M  V30 47 1 43 9
M  V30 48 1 44 13
M  V30 49 1 45 13
M  V30 50 1 46 13
M  V30 51 1 47 18
M  V30 52 1 48 18
M  V30 53 1 49 19
M  V30 54 1 50 19
M  V30 55 1 51 20
M  V30 56 1 52 20
M  V30 57 1 53 21
M  V30 58 1 54 21
M  V30 59 1 55 22
M  V30 60 1 56 22
M  V30 61 1 57 24
M  V30 62 1 58 24
M  V30 63 1 59 25
M  V30 64 1 60 25
M  V30 65 1 61 28
M  V30 66 1 62 29
M  V30 67 1 63 34
M  V30 68 1 64 35
M  V30 69 1 65 35
M  V30 70 1 66 36
M  V30 71 1 67 36
M  V30 72 1 68 23
M  V30 END BOND
M  V30 END CTAB
M  END
>  <b_m_subgroup_collapsed>  (82) 
0

>  <r_i_docking_score>  (82) 
-9.3017219153570796

>  <s_m_subgroup_title>  (82) 
glide-dock_SP_D22_pv

>  <s_m_subgroupid>  (82) 
glide-dock_SP_D22_pv

>  <Molecule ChEMBL ID>  (82) 
CHEMBL3423340

>  <Standard Type>  (82) 
Ki

>  <Standard Value>  (82) 
59.0

>  <label>  (82) 
1

$$$$
CHEMBL5796612
     RDKit          3D

  0  0  0  0  0  0  0  0  0  0999 V3000
M  V30 BEGIN CTAB
M  V30 COUNTS 53 57 0 0 1
M  V30 BEGIN ATOM
M  V30 1 O 11.286024 6.172325 -6.555857 0
M  V30 2 C 11.113930 7.284851 -6.079568 0
M  V30 3 C 11.619924 7.655746 -4.702729 0
M  V30 4 N 12.034252 6.656975 -3.892168 0
M  V30 5 C 12.444111 6.961075 -2.646864 0
M  V30 6 C 12.486021 8.274863 -2.147019 0
M  V30 7 C 12.081719 9.322680 -2.988286 0
M  V30 8 C 11.617433 9.006101 -4.277966 0
M  V30 9 C 11.037014 10.083892 -5.161669 0
M  V30 10 C 10.821178 9.604866 -6.600079 0
M  V30 11 N 10.399241 8.216759 -6.728137 0
M  V30 12 C 9.349471 7.864591 -7.710860 0
M  V30 13 C 9.883471 7.688521 -9.153257 0
M  V30 14 N 8.886024 7.088981 -10.093943 0 CFG=2 CHG=1
M  V30 15 C 8.914740 5.602132 -10.064015 0
M  V30 16 C 7.842700 5.005781 -10.989241 0
M  V30 17 C 7.962322 5.464375 -12.437572 0 CFG=2
M  V30 18 C 9.101334 4.794006 -13.172731 0
M  V30 19 N 10.361515 5.216990 -13.065797 0
M  V30 20 O 11.179573 4.319885 -13.808700 0
M  V30 21 C 10.397387 3.307431 -14.338361 0
M  V30 22 C 10.719977 2.172329 -15.096190 0
M  V30 23 C 9.670354 1.297110 -15.448469 0
M  V30 24 F 9.940524 0.179983 -16.165110 0
M  V30 25 C 8.339321 1.581087 -15.052958 0
M  V30 26 F 7.340151 0.734692 -15.396944 0
M  V30 27 C 8.040660 2.740204 -14.299265 0
M  V30 28 C 9.093903 3.609671 -13.940260 0
M  V30 29 C 7.962472 7.000691 -12.452519 0
M  V30 30 C 8.995191 7.629235 -11.478361 0
M  V30 31 H 12.753957 6.130675 -2.029477 0
M  V30 32 H 12.824525 8.476613 -1.141897 0
M  V30 33 H 12.085982 10.343858 -2.635347 0
M  V30 34 H 10.086022 10.391438 -4.726500 0
M  V30 35 H 11.676337 10.964108 -5.168663 0
M  V30 36 H 10.086021 10.223102 -7.046865 0
M  V30 37 H 11.742032 9.729737 -7.172187 0
M  V30 38 H 8.855598 6.948213 -7.381407 0
M  V30 39 H 8.564915 8.623070 -7.696561 0
M  V30 40 H 10.180233 8.674266 -9.514899 0
M  V30 41 H 10.794119 7.087152 -9.159348 0
M  V30 42 H 9.903683 5.237223 -10.343485 0
M  V30 43 H 8.733428 5.258792 -9.044852 0
M  V30 44 H 7.799560 3.920770 -10.929530 0
M  V30 45 H 6.886022 5.372331 -10.646865 0
M  V30 46 H 7.044375 5.158381 -12.940915 0
M  V30 47 H 11.738356 1.967348 -15.389050 0
M  V30 48 H 7.024726 2.944204 -13.994985 0
M  V30 49 H 8.086022 7.372324 -13.446865 0
M  V30 50 H 6.953707 7.351054 -12.246864 0
M  V30 51 H 8.833295 8.707568 -11.448892 0
M  V30 52 H 10.010979 7.484405 -11.845220 0
M  V30 53 H 7.935934 7.372324 -9.828127 0
M  V30 END ATOM
M  V30 BEGIN BOND
M  V30 1 2 2 1
M  V30 2 1 3 2
M  V30 3 2 4 3
M  V30 4 1 5 4
M  V30 5 2 6 5
M  V30 6 1 7 6
M  V30 7 1 8 3
M  V30 8 2 8 7
M  V30 9 1 9 8
M  V30 10 1 10 9
M  V30 11 1 11 2
M  V30 12 1 11 10
M  V30 13 1 12 11
M  V30 14 1 13 12
M  V30 15 1 14 13
M  V30 16 1 15 14
M  V30 17 1 16 15
M  V30 18 1 17 16
M  V30 19 1 18 17
M  V30 20 2 19 18
M  V30 21 1 20 19
M  V30 22 1 21 20
M  V30 23 1 22 21
M  V30 24 2 23 22
M  V30 25 1 24 23
M  V30 26 1 25 23
M  V30 27 1 26 25
M  V30 28 2 27 25
M  V30 29 1 28 18
M  V30 30 2 28 21
M  V30 31 1 28 27
M  V30 32 1 29 17
M  V30 33 1 30 14
M  V30 34 1 30 29
M  V30 35 1 31 5
M  V30 36 1 32 6
M  V30 37 1 33 7
M  V30 38 1 34 9
M  V30 39 1 35 9
M  V30 40 1 36 10
M  V30 41 1 37 10
M  V30 42 1 38 12
M  V30 43 1 39 12
M  V30 44 1 40 13
M  V30 45 1 41 13
M  V30 46 1 42 15
M  V30 47 1 43 15
M  V30 48 1 44 16
M  V30 49 1 45 16
M  V30 50 1 17 46 CFG=3
M  V30 51 1 47 22
M  V30 52 1 48 27
M  V30 53 1 49 29
M  V30 54 1 50 29
M  V30 55 1 51 30
M  V30 56 1 52 30
M  V30 57 1 14 53 CFG=1
M  V30 END BOND
M  V30 END CTAB
M  END
>  <b_m_subgroup_collapsed>  (83) 
0

>  <r_i_docking_score>  (83) 
-9.2997551946495491

>  <s_m_subgroup_title>  (83) 
glide-dock_SP_D22_pv

>  <s_m_subgroupid>  (83) 
glide-dock_SP_D22_pv

>  <Molecule ChEMBL ID>  (83) 
CHEMBL5796612

>  <Standard Type>  (83) 
Ki

>  <Standard Value>  (83) 
10000.0

>  <label>  (83) 
0

$$$$
CHEMBL4795213
     RDKit          3D

  0  0  0  0  0  0  0  0  0  0999 V3000
M  V30 BEGIN CTAB
M  V30 COUNTS 62 66 0 0 1
M  V30 BEGIN ATOM
M  V30 1 C 4.606538 -1.994748 -16.144838 0
M  V30 2 N 5.605942 -0.925050 -16.164532 0
M  V30 3 C 6.331936 -0.738344 -17.431032 0
M  V30 4 C 7.768147 -0.210411 -17.246712 0
M  V30 5 C 7.838746 0.873468 -16.189425 0
M  V30 6 C 8.883225 1.820808 -16.206964 0
M  V30 7 C 8.932735 2.834620 -15.229997 0
M  V30 8 C 7.925543 2.944079 -14.250711 0
M  V30 9 O 8.039889 3.971125 -13.336255 0
M  V30 10 C 6.857563 4.431921 -12.684312 0
M  V30 11 C 7.217828 5.487629 -11.625575 0 CFG=2
M  V30 12 O 7.671622 6.669159 -12.246928 0
M  V30 13 C 8.203236 4.960865 -10.565505 0
M  V30 14 N 8.616141 5.986764 -9.567233 0 CFG=2 CHG=1
M  V30 15 C 9.940659 6.577757 -9.900888 0
M  V30 16 C 10.374262 7.662576 -8.897982 0
M  V30 17 C 10.338539 7.133020 -7.446784 0 CFG=1
M  V30 18 C 10.739907 8.161113 -6.421334 0
M  V30 19 N 10.486135 9.447174 -6.617233 0
M  V30 20 O 10.947933 10.162542 -5.476128 0
M  V30 21 C 11.447826 9.268126 -4.545993 0
M  V30 22 C 11.985104 9.452179 -3.267303 0
M  V30 23 C 12.369175 8.305676 -2.545828 0
M  V30 24 F 12.885601 8.440156 -1.305050 0
M  V30 25 C 12.211950 7.017528 -3.109438 0
M  V30 26 C 11.685905 6.860358 -4.412417 0
M  V30 27 C 11.300480 8.010136 -5.133970 0
M  V30 28 C 8.944771 6.568346 -7.163044 0
M  V30 29 C 8.628304 5.459940 -8.178673 0
M  V30 30 C 6.882921 1.985850 -14.246587 0
M  V30 31 C 6.850844 0.930726 -15.183494 0
M  V30 32 C 5.794899 -0.143478 -15.076370 0
M  V30 33 O 5.137214 -0.262936 -14.038768 0
M  V30 34 H 3.630229 -1.619642 -15.829416 0
M  V30 35 H 4.466058 -2.457432 -17.122601 0
M  V30 36 H 4.907333 -2.779464 -15.447661 0
M  V30 37 H 6.361526 -1.663157 -18.008993 0
M  V30 38 H 5.759725 -0.021673 -18.021114 0
M  V30 39 H 8.141236 0.176179 -18.194828 0
M  V30 40 H 8.437110 -1.020564 -16.960381 0
M  V30 41 H 9.651369 1.769718 -16.963148 0
M  V30 42 H 9.739822 3.551096 -15.245817 0
M  V30 43 H 6.359949 3.617386 -12.161632 0
M  V30 44 H 6.154449 4.834916 -13.416030 0
M  V30 45 H 6.291248 5.764295 -11.123001 0
M  V30 46 H 7.312072 7.375539 -11.712383 0
M  V30 47 H 7.686443 4.149962 -10.055402 0
M  V30 48 H 9.079946 4.508495 -11.032721 0
M  V30 49 H 10.677379 5.774877 -9.885584 0
M  V30 50 H 9.933946 6.987550 -10.910393 0
M  V30 51 H 11.376915 8.012787 -9.143748 0
M  V30 52 H 9.708064 8.522475 -9.003120 0
M  V30 53 H 11.052108 6.309222 -7.379780 0
M  V30 54 H 12.088186 10.437829 -2.836200 0
M  V30 55 H 12.500108 6.144449 -2.539908 0
M  V30 56 H 11.570040 5.875412 -4.840330 0
M  V30 57 H 8.908906 6.172193 -6.148479 0
M  V30 58 H 8.191757 7.357777 -7.203556 0
M  V30 59 H 7.684407 5.004524 -7.919446 0
M  V30 60 H 9.365708 4.659104 -8.108109 0
M  V30 61 H 6.113151 2.016250 -13.494093 0
M  V30 62 H 7.909802 6.721656 -9.605648 0
M  V30 END ATOM
M  V30 BEGIN BOND
M  V30 1 1 2 1
M  V30 2 1 3 2
M  V30 3 1 4 3
M  V30 4 1 5 4
M  V30 5 1 6 5
M  V30 6 2 7 6
M  V30 7 1 8 7
M  V30 8 1 9 8
M  V30 9 1 10 9
M  V30 10 1 11 10
M  V30 11 1 12 11
M  V30 12 1 13 11
M  V30 13 1 14 13
M  V30 14 1 15 14
M  V30 15 1 16 15
M  V30 16 1 17 16
M  V30 17 1 18 17
M  V30 18 2 19 18
M  V30 19 1 20 19
M  V30 20 1 21 20
M  V30 21 1 22 21
M  V30 22 2 23 22
M  V30 23 1 24 23
M  V30 24 1 25 23
M  V30 25 2 26 25
M  V30 26 1 27 18
M  V30 27 2 27 21
M  V30 28 1 27 26
M  V30 29 1 28 17
M  V30 30 1 29 14
M  V30 31 1 29 28
M  V30 32 2 30 8
M  V30 33 2 31 5
M  V30 34 1 31 30
M  V30 35 1 32 2
M  V30 36 1 32 31
M  V30 37 2 33 32
M  V30 38 1 34 1
M  V30 39 1 35 1
M  V30 40 1 36 1
M  V30 41 1 37 3
M  V30 42 1 38 3
M  V30 43 1 39 4
M  V30 44 1 40 4
M  V30 45 1 41 6
M  V30 46 1 42 7
M  V30 47 1 43 10
M  V30 48 1 44 10
M  V30 49 1 11 45 CFG=1
M  V30 50 1 46 12
M  V30 51 1 47 13
M  V30 52 1 48 13
M  V30 53 1 49 15
M  V30 54 1 50 15
M  V30 55 1 51 16
M  V30 56 1 52 16
M  V30 57 1 17 53 CFG=3
M  V30 58 1 54 22
M  V30 59 1 55 25
M  V30 60 1 56 26
M  V30 61 1 57 28
M  V30 62 1 58 28
M  V30 63 1 59 29
M  V30 64 1 60 29
M  V30 65 1 61 30
M  V30 66 1 14 62 CFG=1
M  V30 END BOND
M  V30 END CTAB
M  END
>  <b_m_subgroup_collapsed>  (84) 
0

>  <r_i_docking_score>  (84) 
-9.2675873103324999

>  <s_m_subgroup_title>  (84) 
glide-dock_SP_D22_pv

>  <s_m_subgroupid>  (84) 
glide-dock_SP_D22_pv

>  <Molecule ChEMBL ID>  (84) 
CHEMBL4795213

>  <Standard Type>  (84) 
Ki

>  <Standard Value>  (84) 
15.1

>  <label>  (84) 
1

$$$$
CHEMBL516944
     RDKit          3D

  0  0  0  0  0  0  0  0  0  0999 V3000
M  V30 BEGIN CTAB
M  V30 COUNTS 48 51 0 0 1
M  V30 BEGIN ATOM
M  V30 1 O 10.759975 4.155180 -13.735607 0
M  V30 2 C 9.552302 4.313266 -13.573328 0
M  V30 3 C 8.983347 5.624977 -13.012900 0
M  V30 4 C 7.823023 5.442657 -11.989749 0 CFG=2
M  V30 5 C 8.362561 5.031841 -10.587382 0
M  V30 6 N 8.489536 6.169699 -9.628203 0 CHG=1
M  V30 7 C 8.820218 5.723189 -8.246173 0
M  V30 8 C 8.963201 6.893531 -7.236498 0
M  V30 9 N 9.850640 7.952563 -7.735016 0
M  V30 10 C 10.746301 8.687131 -7.020527 0
M  V30 11 O 11.286241 9.678231 -7.501519 0
M  V30 12 C 11.086904 8.396597 -5.582843 0
M  V30 13 C 11.270313 9.498312 -4.712204 0
M  V30 14 C 11.741538 9.316165 -3.401363 0
M  V30 15 C 12.036273 8.022641 -2.942085 0
M  V30 16 F 12.486646 7.844625 -1.682192 0
M  V30 17 C 11.853268 6.916377 -3.790706 0
M  V30 18 C 11.394496 7.099217 -5.111042 0
M  V30 19 C 9.470677 8.392237 -9.088785 0
M  V30 20 C 9.435070 7.219491 -10.076548 0
M  V30 21 C 6.717814 4.486583 -12.533580 0
M  V30 22 C 7.278581 3.447304 -13.447258 0
M  V30 23 O 6.472217 2.441482 -13.881467 0
M  V30 24 C 7.264812 1.631286 -14.643716 0
M  V30 25 C 8.547846 2.105167 -14.693559 0
M  V30 26 C 8.542247 3.308546 -13.936077 0
M  V30 27 H 9.798559 6.216362 -12.599669 0
M  V30 28 H 8.600135 6.172813 -13.870061 0
M  V30 29 H 7.323238 6.404647 -11.868009 0
M  V30 30 H 7.686360 4.303653 -10.139838 0
M  V30 31 H 9.319890 4.514956 -10.672700 0
M  V30 32 H 8.051699 5.034505 -7.894284 0
M  V30 33 H 9.754482 5.158962 -8.272298 0
M  V30 34 H 7.999257 7.354990 -7.046820 0
M  V30 35 H 9.248452 6.490762 -6.270585 0
M  V30 36 H 11.073173 10.504097 -5.057559 0
M  V30 37 H 11.886024 10.166481 -2.750084 0
M  V30 38 H 12.089901 5.924709 -3.434771 0
M  V30 39 H 11.333760 6.239575 -5.762496 0
M  V30 40 H 8.489710 8.867939 -9.035959 0
M  V30 41 H 10.137711 9.146688 -9.507955 0
M  V30 42 H 10.432310 6.796404 -10.199876 0
M  V30 43 H 9.127630 7.616065 -11.042798 0
M  V30 44 H 5.993144 5.073435 -13.099339 0
M  V30 45 H 6.148544 4.021711 -11.728607 0
M  V30 46 H 6.770491 0.765360 -15.061399 0
M  V30 47 H 9.378667 1.651811 -15.214578 0
M  V30 48 H 7.581120 6.640072 -9.597402 0
M  V30 END ATOM
M  V30 BEGIN BOND
M  V30 1 2 2 1
M  V30 2 1 3 2
M  V30 3 1 4 3
M  V30 4 1 5 4
M  V30 5 1 6 5
M  V30 6 1 7 6
M  V30 7 1 8 7
M  V30 8 1 9 8
M  V30 9 1 10 9
M  V30 10 2 11 10
M  V30 11 1 12 10
M  V30 12 1 13 12
M  V30 13 2 14 13
M  V30 14 1 15 14
M  V30 15 1 16 15
M  V30 16 2 17 15
M  V30 17 2 18 12
M  V30 18 1 18 17
M  V30 19 1 19 9
M  V30 20 1 20 6
M  V30 21 1 20 19
M  V30 22 1 21 4
M  V30 23 1 22 21
M  V30 24 1 23 22
M  V30 25 1 24 23
M  V30 26 2 25 24
M  V30 27 1 26 2
M  V30 28 2 26 22
M  V30 29 1 26 25
M  V30 30 1 27 3
M  V30 31 1 28 3
M  V30 32 1 4 29 CFG=1
M  V30 33 1 30 5
M  V30 34 1 31 5
M  V30 35 1 32 7
M  V30 36 1 33 7
M  V30 37 1 34 8
M  V30 38 1 35 8
M  V30 39 1 36 13
M  V30 40 1 37 14
M  V30 41 1 38 17
M  V30 42 1 39 18
M  V30 43 1 40 19
M  V30 44 1 41 19
M  V30 45 1 42 20
M  V30 46 1 43 20
M  V30 47 1 44 21
M  V30 48 1 45 21
M  V30 49 1 46 24
M  V30 50 1 47 25
M  V30 51 1 48 6
M  V30 END BOND
M  V30 END CTAB
M  END
>  <b_m_subgroup_collapsed>  (85) 
0

>  <r_i_docking_score>  (85) 
-9.2594814475490193

>  <s_m_subgroup_title>  (85) 
glide-dock_SP_D22_pv

>  <s_m_subgroupid>  (85) 
glide-dock_SP_D22_pv

>  <Molecule ChEMBL ID>  (85) 
CHEMBL516944

>  <Standard Type>  (85) 
Ki

>  <Standard Value>  (85) 
10000.0

>  <label>  (85) 
0

$$$$
CHEMBL3220220
     RDKit          3D

  0  0  0  0  0  0  0  0  0  0999 V3000
M  V30 BEGIN CTAB
M  V30 COUNTS 60 65 0 0 1
M  V30 BEGIN ATOM
M  V30 1 O 5.170953 3.073225 -12.745678 0
M  V30 2 C 6.143015 3.771903 -13.018444 0
M  V30 3 C 6.260699 5.210988 -12.498609 0
M  V30 4 C 7.730822 5.670106 -12.247266 0 CFG=1
M  V30 5 C 8.305506 5.044032 -10.949864 0
M  V30 6 N 8.679858 6.040965 -9.911306 0 CFG=2 CHG=1
M  V30 7 C 9.827621 6.891535 -10.330748 0
M  V30 8 C 10.518087 7.608802 -9.178844 0
M  V30 9 C 10.300740 7.373266 -7.869225 0
M  V30 10 C 10.921955 8.241702 -6.842298 0
M  V30 11 C 11.292669 9.538118 -7.073245 0
M  V30 12 N 11.718230 10.091100 -5.885780 0
M  V30 13 C 11.728429 9.141517 -4.884790 0
M  V30 14 C 12.101569 9.234529 -3.535929 0
M  V30 15 C 12.086205 8.083573 -2.738180 0
M  V30 16 F 12.484946 8.171960 -1.447371 0
M  V30 17 C 11.686163 6.851595 -3.292543 0
M  V30 18 C 11.287272 6.768056 -4.646497 0
M  V30 19 C 11.279301 7.918739 -5.478665 0
M  V30 20 C 9.231448 6.365956 -7.485207 0
M  V30 21 C 8.921613 5.371275 -8.611362 0
M  V30 22 C 8.670785 5.372352 -13.449163 0
M  V30 23 C 8.414135 4.017701 -14.031606 0
M  V30 24 N 9.332411 3.349984 -14.843309 0
M  V30 25 C 8.853752 2.171467 -15.267056 0
M  V30 26 N 9.518747 1.311590 -16.134020 0
M  V30 27 C 10.892893 1.441704 -16.612268 0
M  V30 28 C 11.095695 0.425716 -17.735777 0
M  V30 29 C 10.087049 -0.656908 -17.397419 0
M  V30 30 C 8.945256 0.141303 -16.784882 0
M  V30 31 S 7.239992 1.793006 -14.654371 0
M  V30 32 C 7.252974 3.325951 -13.838675 0
M  V30 33 H 5.673953 5.318151 -11.583362 0
M  V30 34 H 5.791767 5.864217 -13.235181 0
M  V30 35 H 7.692001 6.751940 -12.119723 0
M  V30 36 H 9.168892 4.410981 -11.163248 0
M  V30 37 H 7.571457 4.359895 -10.530095 0
M  V30 38 H 9.481282 7.642829 -11.038514 0
M  V30 39 H 10.575920 6.289559 -10.842272 0
M  V30 40 H 11.240610 8.355853 -9.480516 0
M  V30 41 H 11.274389 10.126363 -7.974590 0
M  V30 42 H 12.016175 11.053444 -5.802746 0
M  V30 43 H 12.424463 10.172308 -3.108048 0
M  V30 44 H 11.683997 5.965685 -2.672742 0
M  V30 45 H 10.998603 5.793317 -5.030838 0
M  V30 46 H 9.559614 5.779940 -6.633442 0
M  V30 47 H 8.333446 6.904548 -7.177905 0
M  V30 48 H 9.756117 4.675939 -8.718733 0
M  V30 49 H 8.056775 4.770704 -8.325333 0
M  V30 50 H 8.485862 6.114904 -14.222944 0
M  V30 51 H 9.718623 5.489759 -13.170494 0
M  V30 52 H 11.093683 2.458488 -16.957994 0
M  V30 53 H 11.574824 1.234250 -15.786348 0
M  V30 54 H 10.842001 0.878050 -18.697132 0
M  V30 55 H 12.121894 0.056386 -17.792511 0
M  V30 56 H 9.779036 -1.243272 -18.264471 0
M  V30 57 H 10.487491 -1.342491 -16.651354 0
M  V30 58 H 8.378302 -0.468198 -16.082010 0
M  V30 59 H 8.257168 0.482713 -17.558634 0
M  V30 60 H 7.878531 6.661039 -9.789993 0
M  V30 END ATOM
M  V30 BEGIN BOND
M  V30 1 2 2 1
M  V30 2 1 3 2
M  V30 3 1 4 3
M  V30 4 1 5 4
M  V30 5 1 6 5
M  V30 6 1 7 6
M  V30 7 1 8 7
M  V30 8 2 9 8
M  V30 9 1 10 9
M  V30 10 2 11 10
M  V30 11 1 12 11
M  V30 12 1 13 12
M  V30 13 1 14 13
M  V30 14 2 15 14
M  V30 15 1 16 15
M  V30 16 1 17 15
M  V30 17 2 18 17
M  V30 18 1 19 10
M  V30 19 2 19 13
M  V30 20 1 19 18
M  V30 21 1 20 9
M  V30 22 1 21 6
M  V30 23 1 21 20
M  V30 24 1 22 4
M  V30 25 1 23 22
M  V30 26 1 24 23
M  V30 27 2 25 24
M  V30 28 1 26 25
M  V30 29 1 27 26
M  V30 30 1 28 27
M  V30 31 1 29 28
M  V30 32 1 30 26
M  V30 33 1 30 29
M  V30 34 1 31 25
M  V30 35 1 32 2
M  V30 36 2 32 23
M  V30 37 1 32 31
M  V30 38 1 33 3
M  V30 39 1 34 3
M  V30 40 1 4 35 CFG=1
M  V30 41 1 36 5
M  V30 42 1 37 5
M  V30 43 1 38 7
M  V30 44 1 39 7
M  V30 45 1 40 8
M  V30 46 1 41 11
M  V30 47 1 42 12
M  V30 48 1 43 14
M  V30 49 1 44 17
M  V30 50 1 45 18
M  V30 51 1 46 20
M  V30 52 1 47 20
M  V30 53 1 48 21
M  V30 54 1 49 21
M  V30 55 1 50 22
M  V30 56 1 51 22
M  V30 57 1 52 27
M  V30 58 1 53 27
M  V30 59 1 54 28
M  V30 60 1 55 28
M  V30 61 1 56 29
M  V30 62 1 57 29
M  V30 63 1 58 30
M  V30 64 1 59 30
M  V30 65 1 6 60 CFG=1
M  V30 END BOND
M  V30 END CTAB
M  END
>  <b_m_subgroup_collapsed>  (86) 
0

>  <r_i_docking_score>  (86) 
-9.2584051165199792

>  <s_m_subgroup_title>  (86) 
glide-dock_SP_D22_pv

>  <s_m_subgroupid>  (86) 
glide-dock_SP_D22_pv

>  <Molecule ChEMBL ID>  (86) 
CHEMBL3220220

>  <Standard Type>  (86) 
Ki

>  <Standard Value>  (86) 
54.95

>  <label>  (86) 
1

$$$$
CHEMBL568103
     RDKit          3D

  0  0  0  0  0  0  0  0  0  0999 V3000
M  V30 BEGIN CTAB
M  V30 COUNTS 63 68 0 0 1
M  V30 BEGIN ATOM
M  V30 1 O 4.870309 0.172412 -13.560081 0
M  V30 2 C 5.978283 0.474500 -13.998607 0
M  V30 3 N 6.910841 -0.351659 -14.607238 0
M  V30 4 C 8.064837 0.366053 -14.878368 0
M  V30 5 C 9.286135 -0.026487 -15.446833 0
M  V30 6 C 10.300102 0.941761 -15.556442 0
M  V30 7 C 10.060576 2.265841 -15.131279 0
M  V30 8 C 8.802656 2.651706 -14.591384 0
M  V30 9 N 8.531235 3.982268 -14.244958 0
M  V30 10 C 7.995818 4.293746 -12.923326 0
M  V30 11 C 9.102972 4.866348 -12.020853 0
M  V30 12 N 9.771601 6.019183 -12.691833 0 CHG=1
M  V30 13 C 10.728886 6.763912 -11.839828 0
M  V30 14 C 10.222548 8.142495 -11.394794 0
M  V30 15 C 9.106246 8.064014 -10.350090 0
M  V30 16 C 9.456931 7.832678 -8.865379 0 CFG=1
M  V30 17 C 10.348765 6.601829 -8.581900 0
M  V30 18 C 10.539028 6.312857 -7.093012 0
M  V30 19 C 10.792929 7.571715 -6.342379 0
M  V30 20 C 10.540156 8.820038 -6.827023 0
M  V30 21 N 10.886022 9.761061 -5.868311 0
M  V30 22 C 11.315810 9.126211 -4.716619 0
M  V30 23 C 11.704774 9.590059 -3.446900 0
M  V30 24 C 12.104442 8.662608 -2.465727 0
M  V30 25 C 12.097710 7.286144 -2.762423 0
M  V30 26 F 12.486023 6.379082 -1.846864 0
M  V30 27 C 11.686033 6.831134 -4.020806 0
M  V30 28 C 11.286025 7.734259 -5.019930 0
M  V30 29 C 9.962136 9.110145 -8.168256 0
M  V30 30 C 10.370155 5.598460 -13.984629 0
M  V30 31 C 9.278366 5.033459 -14.909341 0
M  V30 32 C 7.816155 1.652459 -14.463730 0
M  V30 33 O 6.542747 1.722616 -13.960726 0
M  V30 34 H 6.766920 -1.338349 -14.780422 0
M  V30 35 H 9.461421 -1.027673 -15.785767 0
M  V30 36 H 11.260474 0.673554 -15.972627 0
M  V30 37 H 10.866277 2.975183 -15.238686 0
M  V30 38 H 7.195428 5.025965 -13.038831 0
M  V30 39 H 7.541477 3.425689 -12.451612 0
M  V30 40 H 8.667765 5.150136 -11.064359 0
M  V30 41 H 9.840722 4.091635 -11.803267 0
M  V30 42 H 10.886021 6.172324 -10.961067 0
M  V30 43 H 11.696959 6.874021 -12.331803 0
M  V30 44 H 11.046404 8.744964 -11.011699 0
M  V30 45 H 9.828732 8.659274 -12.268736 0
M  V30 46 H 8.486037 8.958913 -10.425174 0
M  V30 47 H 8.486011 7.239374 -10.655310 0
M  V30 48 H 8.506917 7.599896 -8.378895 0
M  V30 49 H 9.952420 5.705593 -9.058711 0
M  V30 50 H 11.336259 6.802136 -8.992478 0
M  V30 51 H 11.368756 5.619114 -6.962661 0
M  V30 52 H 9.645247 5.828251 -6.700595 0
M  V30 53 H 10.793079 10.756605 -6.004233 0
M  V30 54 H 11.686015 10.641685 -3.211319 0
M  V30 55 H 12.408410 9.006182 -1.487455 0
M  V30 56 H 11.667584 5.772341 -4.225121 0
M  V30 57 H 10.710297 9.610543 -8.783626 0
M  V30 58 H 9.108209 9.772320 -8.061070 0
M  V30 59 H 10.886023 6.427965 -14.470146 0
M  V30 60 H 11.133226 4.841725 -13.795080 0
M  V30 61 H 9.689754 4.718142 -15.868601 0
M  V30 62 H 8.526364 5.772325 -15.144820 0
M  V30 63 H 9.033135 6.671014 -12.916269 0
M  V30 END ATOM
M  V30 BEGIN BOND
M  V30 1 2 2 1
M  V30 2 1 3 2
M  V30 3 1 4 3
M  V30 4 2 5 4
M  V30 5 1 6 5
M  V30 6 2 7 6
M  V30 7 1 8 7
M  V30 8 1 9 8
M  V30 9 1 10 9
M  V30 10 1 11 10
M  V30 11 1 12 11
M  V30 12 1 13 12
M  V30 13 1 14 13
M  V30 14 1 15 14
M  V30 15 1 16 15
M  V30 16 1 17 16
M  V30 17 1 18 17
M  V30 18 1 19 18
M  V30 19 2 20 19
M  V30 20 1 21 20
M  V30 21 1 22 21
M  V30 22 1 23 22
M  V30 23 2 24 23
M  V30 24 1 25 24
M  V30 25 1 26 25
M  V30 26 2 27 25
M  V30 27 1 28 19
M  V30 28 2 28 22
M  V30 29 1 28 27
M  V30 30 1 29 16
M  V30 31 1 29 20
M  V30 32 1 30 12
M  V30 33 1 31 9
M  V30 34 1 31 30
M  V30 35 1 32 4
M  V30 36 2 32 8
M  V30 37 1 33 2
M  V30 38 1 33 32
M  V30 39 1 34 3
M  V30 40 1 35 5
M  V30 41 1 36 6
M  V30 42 1 37 7
M  V30 43 1 38 10
M  V30 44 1 39 10
M  V30 45 1 40 11
M  V30 46 1 41 11
M  V30 47 1 42 13
M  V30 48 1 43 13
M  V30 49 1 44 14
M  V30 50 1 45 14
M  V30 51 1 46 15
M  V30 52 1 47 15
M  V30 53 1 16 48 CFG=1
M  V30 54 1 49 17
M  V30 55 1 50 17
M  V30 56 1 51 18
M  V30 57 1 52 18
M  V30 58 1 53 21
M  V30 59 1 54 23
M  V30 60 1 55 24
M  V30 61 1 56 27
M  V30 62 1 57 29
M  V30 63 1 58 29
M  V30 64 1 59 30
M  V30 65 1 60 30
M  V30 66 1 61 31
M  V30 67 1 62 31
M  V30 68 1 63 12
M  V30 END BOND
M  V30 END CTAB
M  END
>  <b_m_subgroup_collapsed>  (87) 
0

>  <r_i_docking_score>  (87) 
-9.25640624633286

>  <s_m_subgroup_title>  (87) 
glide-dock_SP_D22_pv

>  <s_m_subgroupid>  (87) 
glide-dock_SP_D22_pv

>  <Molecule ChEMBL ID>  (87) 
CHEMBL568103

>  <Standard Type>  (87) 
Ki

>  <Standard Value>  (87) 
50.0

>  <label>  (87) 
1

$$$$
CHEMBL4091507
     RDKit          3D

  0  0  0  0  0  0  0  0  0  0999 V3000
M  V30 BEGIN CTAB
M  V30 COUNTS 63 67 0 0 1
M  V30 BEGIN ATOM
M  V30 1 O 5.363067 -1.028433 -14.277753 0
M  V30 2 C 6.150846 -0.093534 -14.382289 0
M  V30 3 C 5.923627 1.214540 -13.776474 0
M  V30 4 C 6.829097 2.206362 -13.863471 0
M  V30 5 C 8.109696 2.045960 -14.576594 0
M  V30 6 C 9.144245 3.028230 -14.608620 0
M  V30 7 N 9.080240 4.238229 -13.892213 0
M  V30 8 C 8.086168 5.242177 -14.225523 0
M  V30 9 C 7.785805 6.225493 -13.072701 0
M  V30 10 C 7.492911 5.536354 -11.742335 0
M  V30 11 N 8.741309 5.354374 -10.967138 0 CFG=1 CHG=1
M  V30 12 C 8.466797 5.179048 -9.520595 0
M  V30 13 C 9.694474 5.440766 -8.645602 0
M  V30 14 C 10.235888 6.881567 -8.734416 0
M  V30 15 C 9.395664 7.880885 -7.914495 0
M  V30 16 O 10.214597 8.829309 -7.238035 0
M  V30 17 C 10.792299 8.444026 -6.045462 0
M  V30 18 C 10.995974 7.084087 -5.661202 0
M  V30 19 C 11.560845 6.762372 -4.454703 0
M  V30 20 N 11.880958 7.749690 -3.595899 0
M  V30 21 N 12.390691 7.573354 -2.338823 0
M  V30 22 C 12.487376 8.795322 -1.875446 0
M  V30 23 C 12.086011 9.784938 -2.797264 0
M  V30 24 C 11.694446 9.105680 -3.905867 0
M  V30 25 C 11.171049 9.446308 -5.180325 0
M  V30 26 C 9.597503 4.275601 -11.520982 0
M  V30 27 C 10.130342 4.531523 -12.930295 0
M  V30 28 C 10.321532 2.754601 -15.337910 0
M  V30 29 C 10.488523 1.530987 -16.006744 0
M  V30 30 C 9.486589 0.549656 -15.938633 0
M  V30 31 O 9.685716 -0.628191 -16.591516 0
M  V30 32 C 8.304032 0.792448 -15.206440 0
M  V30 33 N 7.306587 -0.225090 -15.065802 0
M  V30 34 H 5.003563 1.382379 -13.236528 0
M  V30 35 H 6.608774 3.139913 -13.382747 0
M  V30 36 H 8.464539 5.772268 -15.094598 0
M  V30 37 H 7.163219 4.757286 -14.527309 0
M  V30 38 H 8.602789 6.935636 -12.950217 0
M  V30 39 H 6.929452 6.849463 -13.320168 0
M  V30 40 H 6.806306 6.172247 -11.199988 0
M  V30 41 H 6.960804 4.594552 -11.861169 0
M  V30 42 H 7.686267 5.870038 -9.202569 0
M  V30 43 H 8.086411 4.172928 -9.339045 0
M  V30 44 H 9.406294 5.218361 -7.619312 0
M  V30 45 H 10.486046 4.729492 -8.862768 0
M  V30 46 H 11.261374 6.879581 -8.365893 0
M  V30 47 H 10.319511 7.220219 -9.766905 0
M  V30 48 H 8.720864 8.419244 -8.580861 0
M  V30 49 H 8.745506 7.379953 -7.193970 0
M  V30 50 H 10.721001 6.257178 -6.296053 0
M  V30 51 H 11.736599 5.759217 -4.110014 0
M  V30 52 H 12.871416 8.960212 -0.882223 0
M  V30 53 H 12.085668 10.854023 -2.646304 0
M  V30 54 H 11.026471 10.488726 -5.440861 0
M  V30 55 H 10.429295 4.066097 -10.866769 0
M  V30 56 H 9.016723 3.372460 -11.556017 0
M  V30 57 H 10.986980 3.880308 -13.100087 0
M  V30 58 H 10.499341 5.550565 -13.045377 0
M  V30 59 H 11.113878 3.487572 -15.388053 0
M  V30 60 H 11.395476 1.340107 -16.561407 0
M  V30 61 H 8.956754 -1.220312 -16.500528 0
M  V30 62 H 7.494512 -1.147074 -15.445676 0
M  V30 63 H 9.242640 6.225480 -11.045092 0
M  V30 END ATOM
M  V30 BEGIN BOND
M  V30 1 2 2 1
M  V30 2 1 3 2
M  V30 3 2 4 3
M  V30 4 1 5 4
M  V30 5 2 6 5
M  V30 6 1 7 6
M  V30 7 1 8 7
M  V30 8 1 9 8
M  V30 9 1 10 9
M  V30 10 1 11 10
M  V30 11 1 12 11
M  V30 12 1 13 12
M  V30 13 1 14 13
M  V30 14 1 15 14
M  V30 15 1 16 15
M  V30 16 1 17 16
M  V30 17 1 18 17
M  V30 18 2 19 18
M  V30 19 1 20 19
M  V30 20 1 21 20
M  V30 21 2 22 21
M  V30 22 1 23 22
M  V30 23 1 24 20
M  V30 24 2 24 23
M  V30 25 2 25 17
M  V30 26 1 25 24
M  V30 27 1 26 11
M  V30 28 1 27 7
M  V30 29 1 27 26
M  V30 30 1 28 6
M  V30 31 2 29 28
M  V30 32 1 30 29
M  V30 33 1 31 30
M  V30 34 1 32 5
M  V30 35 2 32 30
M  V30 36 1 33 2
M  V30 37 1 33 32
M  V30 38 1 34 3
M  V30 39 1 35 4
M  V30 40 1 36 8
M  V30 41 1 37 8
M  V30 42 1 38 9
M  V30 43 1 39 9
M  V30 44 1 40 10
M  V30 45 1 41 10
M  V30 46 1 42 12
M  V30 47 1 43 12
M  V30 48 1 44 13
M  V30 49 1 45 13
M  V30 50 1 46 14
M  V30 51 1 47 14
M  V30 52 1 48 15
M  V30 53 1 49 15
M  V30 54 1 50 18
M  V30 55 1 51 19
M  V30 56 1 52 22
M  V30 57 1 53 23
M  V30 58 1 54 25
M  V30 59 1 55 26
M  V30 60 1 56 26
M  V30 61 1 57 27
M  V30 62 1 58 27
M  V30 63 1 59 28
M  V30 64 1 60 29
M  V30 65 1 61 31
M  V30 66 1 62 33
M  V30 67 1 11 63 CFG=1
M  V30 END BOND
M  V30 END CTAB
M  END
>  <b_m_subgroup_collapsed>  (88) 
0

>  <r_i_docking_score>  (88) 
-9.2557502249715906

>  <s_m_subgroup_title>  (88) 
glide-dock_SP_D22_pv

>  <s_m_subgroupid>  (88) 
glide-dock_SP_D22_pv

>  <Molecule ChEMBL ID>  (88) 
CHEMBL4091507

>  <Standard Type>  (88) 
Ki

>  <Standard Value>  (88) 
46.0

>  <label>  (88) 
1

$$$$
CHEMBL5905068
     RDKit          3D

  0  0  0  0  0  0  0  0  0  0999 V3000
M  V30 BEGIN CTAB
M  V30 COUNTS 57 61 0 0 1
M  V30 BEGIN ATOM
M  V30 1 C 11.856164 1.588028 -16.831659 0
M  V30 2 O 11.577406 2.499540 -15.779292 0
M  V30 3 C 10.278654 2.598654 -15.333430 0
M  V30 4 C 9.202079 1.809267 -15.836432 0
M  V30 5 C 7.888744 1.992038 -15.354046 0
M  V30 6 C 7.683797 2.971919 -14.373814 0
M  V30 7 O 6.538773 3.404862 -13.727440 0
M  V30 8 N 6.872556 4.432785 -12.802587 0
M  V30 9 C 8.192243 4.621438 -12.876563 0
M  V30 10 C 8.891075 5.574024 -11.937400 0 CFG=1
M  V30 11 C 8.385981 7.020798 -12.040300 0
M  V30 12 C 9.106005 7.941174 -11.027408 0
M  V30 13 N 8.886153 7.426060 -9.655398 0 CFG=2 CHG=1
M  V30 14 C 9.241177 8.331697 -8.530497 0
M  V30 15 C 10.763062 8.546936 -8.343206 0
M  V30 16 N 11.155801 8.285561 -6.950795 0
M  V30 17 C 11.470698 6.868434 -6.717845 0
M  V30 18 C 11.286714 6.410567 -5.276543 0
M  V30 19 C 11.687675 7.445236 -4.272108 0
M  V30 20 C 12.086581 7.043166 -2.984924 0
M  V30 21 C 12.413972 8.035419 -2.054491 0
M  V30 22 C 12.280082 9.372839 -2.448722 0
M  V30 23 N 11.912234 9.770775 -3.685328 0
M  V30 24 C 11.647062 8.817297 -4.606827 0
M  V30 25 C 11.264254 9.254374 -6.003854 0
M  V30 26 O 11.070884 10.446397 -6.246746 0
M  V30 27 C 9.359430 6.034332 -9.473888 0
M  V30 28 C 8.739976 5.085389 -10.491988 0
M  V30 29 C 8.716836 3.749561 -13.851286 0
M  V30 30 C 10.032475 3.558979 -14.322991 0
M  V30 31 H 12.904423 1.672505 -17.112736 0
M  V30 32 H 11.679662 0.558303 -16.519461 0
M  V30 33 H 11.261977 1.806559 -17.720327 0
M  V30 34 H 9.360156 1.060926 -16.597322 0
M  V30 35 H 7.066033 1.403048 -15.730690 0
M  V30 36 H 9.954844 5.579376 -12.177011 0
M  V30 37 H 8.486666 7.406746 -13.046824 0
M  V30 38 H 7.315236 7.014966 -11.847563 0
M  V30 39 H 8.697731 8.949904 -11.103227 0
M  V30 40 H 10.173565 8.006927 -11.243720 0
M  V30 41 H 8.786894 7.924050 -7.624218 0
M  V30 42 H 8.749764 9.293783 -8.681990 0
M  V30 43 H 11.023757 9.564967 -8.634042 0
M  V30 44 H 11.358294 7.921167 -9.008627 0
M  V30 45 H 12.486011 6.672963 -7.047013 0
M  V30 46 H 10.864859 6.213854 -7.332294 0
M  V30 47 H 11.888094 5.524004 -5.111524 0
M  V30 48 H 10.239276 6.172321 -5.091695 0
M  V30 49 H 12.135709 5.998237 -2.713101 0
M  V30 50 H 12.737403 7.790051 -1.054966 0
M  V30 51 H 12.483701 10.156337 -1.736706 0
M  V30 52 H 10.444263 5.983460 -9.564752 0
M  V30 53 H 9.084611 5.684456 -8.478295 0
M  V30 54 H 9.241523 4.131605 -10.390279 0
M  V30 55 H 7.686315 4.932741 -10.248865 0
M  V30 56 H 10.847241 4.150806 -13.931433 0
M  V30 57 H 7.861663 7.377391 -9.630163 0
M  V30 END ATOM
M  V30 BEGIN BOND
M  V30 1 1 2 1
M  V30 2 1 3 2
M  V30 3 1 4 3
M  V30 4 2 5 4
M  V30 5 1 6 5
M  V30 6 1 7 6
M  V30 7 1 8 7
M  V30 8 2 9 8
M  V30 9 1 10 9
M  V30 10 1 11 10
M  V30 11 1 12 11
M  V30 12 1 13 12
M  V30 13 1 14 13
M  V30 14 1 15 14
M  V30 15 1 16 15
M  V30 16 1 17 16
M  V30 17 1 18 17
M  V30 18 1 19 18
M  V30 19 2 20 19
M  V30 20 1 21 20
M  V30 21 2 22 21
M  V30 22 1 23 22
M  V30 23 1 24 19
M  V30 24 2 24 23
M  V30 25 1 25 16
M  V30 26 1 25 24
M  V30 27 2 26 25
M  V30 28 1 27 13
M  V30 29 1 28 10
M  V30 30 1 28 27
M  V30 31 2 29 6
M  V30 32 1 29 9
M  V30 33 2 30 3
M  V30 34 1 30 29
M  V30 35 1 31 1
M  V30 36 1 32 1
M  V30 37 1 33 1
M  V30 38 1 34 4
M  V30 39 1 35 5
M  V30 40 1 10 36 CFG=3
M  V30 41 1 37 11
M  V30 42 1 38 11
M  V30 43 1 39 12
M  V30 44 1 40 12
M  V30 45 1 41 14
M  V30 46 1 42 14
M  V30 47 1 43 15
M  V30 48 1 44 15
M  V30 49 1 45 17
M  V30 50 1 46 17
M  V30 51 1 47 18
M  V30 52 1 48 18
M  V30 53 1 49 20
M  V30 54 1 50 21
M  V30 55 1 51 22
M  V30 56 1 52 27
M  V30 57 1 53 27
M  V30 58 1 54 28
M  V30 59 1 55 28
M  V30 60 1 56 30
M  V30 61 1 13 57 CFG=3
M  V30 END BOND
M  V30 END CTAB
M  END
>  <b_m_subgroup_collapsed>  (89) 
0

>  <r_i_docking_score>  (89) 
-9.2525531805783903

>  <s_m_subgroup_title>  (89) 
glide-dock_SP_D22_pv

>  <s_m_subgroupid>  (89) 
glide-dock_SP_D22_pv

>  <Molecule ChEMBL ID>  (89) 
CHEMBL5905068

>  <Standard Type>  (89) 
Ki

>  <Standard Value>  (89) 
10000.0

>  <label>  (89) 
0

$$$$
CHEMBL109897
     RDKit          3D

  0  0  0  0  0  0  0  0  0  0999 V3000
M  V30 BEGIN CTAB
M  V30 COUNTS 91 98 0 0 1
M  V30 BEGIN ATOM
M  V30 1 C 9.102206 4.400398 -9.097642 0
M  V30 2 C 8.708914 5.451432 -8.065302 0
M  V30 3 C 8.885452 6.906061 -8.513106 0
M  V30 4 N 10.307474 7.342235 -8.623165 0 CFG=1 CHG=1
M  V30 5 C 10.625684 8.251282 -9.783371 0
M  V30 6 C 9.774403 8.168740 -11.083950 0
M  V30 7 C 9.897701 6.899372 -11.912822 0
M  V30 8 C 11.075655 6.635799 -12.645576 0
M  V30 9 C 11.168231 5.481991 -13.447006 0
M  V30 10 C 10.077670 4.589400 -13.548128 0
M  V30 11 N 10.152024 3.426889 -14.325295 0
M  V30 12 C 10.677529 3.177897 -15.585885 0
M  V30 13 S 10.453165 1.423331 -16.051395 0
M  V30 14 N 11.239738 4.051033 -16.366287 0
M  V30 15 C 11.875491 3.680387 -17.561384 0
M  V30 16 C 12.975749 2.784587 -17.550308 0
M  V30 17 C 13.693162 2.467161 -18.721258 0
M  V30 18 C 13.293539 3.077929 -19.916515 0
M  V30 19 C 12.217932 3.947973 -19.948359 0
M  V30 20 C 11.493980 4.281753 -18.786400 0
M  V30 21 C 12.035992 4.376755 -21.337841 0
M  V30 22 O 11.183142 5.148890 -21.769474 0
M  V30 23 O 12.998112 3.742723 -22.075214 0
M  V30 24 C 13.869525 2.903097 -21.297064 0 CFG=2
M  V30 25 C 13.763230 1.438251 -21.715294 0
M  V30 26 C 12.510062 0.869934 -22.040899 0
M  V30 27 C 12.408089 -0.496362 -22.361422 0
M  V30 28 C 13.558652 -1.306081 -22.355265 0
M  V30 29 O 13.464059 -2.629236 -22.664352 0 CHG=-1
M  V30 30 C 14.808916 -0.749917 -22.031876 0
M  V30 31 C 14.919370 0.618939 -21.714737 0
M  V30 32 O 16.161732 1.112968 -21.397821 0
M  V30 33 C 16.384918 2.464878 -21.441628 0
M  V30 34 C 17.718021 2.920143 -21.551903 0
M  V30 35 C 18.002317 4.301430 -21.566774 0
M  V30 36 O 19.285439 4.761031 -21.686947 0
M  V30 37 C 16.947966 5.226105 -21.452118 0
M  V30 38 C 15.614769 4.778108 -21.355627 0
M  V30 39 C 15.318825 3.396627 -21.367773 0
M  V30 40 C 8.893299 4.866956 -12.835584 0
M  V30 41 C 8.798240 6.023272 -12.038203 0
M  V30 42 C 10.888829 7.888576 -7.341420 0 CFG=1
M  V30 43 C 10.093564 9.064496 -6.736296 0
M  V30 44 C 10.908948 9.778795 -5.655111 0
M  V30 45 C 11.477353 8.812115 -4.624670 0
M  V30 46 C 11.859632 9.273759 -3.351516 0
M  V30 47 O 11.686098 10.572215 -3.046776 0
M  V30 48 C 12.376353 8.412507 -2.368941 0
M  V30 49 C 12.482542 7.045099 -2.648166 0
M  V30 50 C 12.085612 6.572425 -3.907613 0
M  V30 51 C 11.600198 7.436363 -4.906353 0
M  V30 52 C 11.112614 6.849650 -6.219385 0
M  V30 53 H 9.105319 3.408500 -8.646010 0
M  V30 54 H 8.385300 4.383543 -9.917528 0
M  V30 55 H 10.093666 4.579653 -9.510548 0
M  V30 56 H 9.249600 5.256698 -7.159196 0
M  V30 57 H 7.663430 5.299981 -7.803202 0
M  V30 58 H 8.324638 7.563516 -7.855494 0
M  V30 59 H 8.363939 6.955140 -9.453626 0
M  V30 60 H 11.676809 8.109345 -10.038074 0
M  V30 61 H 10.554829 9.284991 -9.450732 0
M  V30 62 H 10.085793 8.972221 -11.743677 0
M  V30 63 H 8.727752 8.410722 -10.900824 0
M  V30 64 H 11.918489 7.310418 -12.589351 0
M  V30 65 H 12.084604 5.286826 -13.986187 0
M  V30 66 H 9.610322 2.688778 -13.902826 0
M  V30 67 H 9.870857 1.000252 -14.927521 0
M  V30 68 H 13.285283 2.326688 -16.628151 0
M  V30 69 H 14.516761 1.771480 -18.697151 0
M  V30 70 H 10.674612 4.984928 -18.829699 0
M  V30 71 H 11.615646 1.474525 -22.034637 0
M  V30 72 H 11.446263 -0.922865 -22.604080 0
M  V30 73 H 15.686963 -1.379564 -22.025393 0
M  V30 74 H 18.521046 2.201602 -21.621761 0
M  V30 75 H 19.913475 4.170805 -22.085320 0
M  V30 76 H 17.156706 6.285402 -21.456720 0
M  V30 77 H 14.820791 5.505724 -21.285093 0
M  V30 78 H 8.045919 4.199296 -12.903165 0
M  V30 79 H 7.869194 6.233994 -11.525657 0
M  V30 80 H 11.881140 8.265760 -7.599119 0
M  V30 81 H 9.768913 9.768496 -7.494801 0
M  V30 82 H 9.184356 8.699161 -6.254045 0
M  V30 83 H 10.275572 10.516192 -5.161519 0
M  V30 84 H 11.737601 10.325482 -6.105816 0
M  V30 85 H 12.204271 10.853795 -2.303018 0
M  V30 86 H 12.659842 8.792245 -1.398205 0
M  V30 87 H 12.845884 6.354584 -1.899954 0
M  V30 88 H 12.142328 5.517922 -4.111316 0
M  V30 89 H 10.167052 6.432473 -5.890809 0
M  V30 90 H 11.758624 6.034091 -6.546738 0
M  V30 91 H 10.807754 6.491776 -8.837957 0
M  V30 END ATOM
M  V30 BEGIN BOND
M  V30 1 1 2 1
M  V30 2 1 3 2
M  V30 3 1 4 3
M  V30 4 1 5 4
M  V30 5 1 6 5
M  V30 6 1 7 6
M  V30 7 1 8 7
M  V30 8 2 9 8
M  V30 9 1 10 9
M  V30 10 1 11 10
M  V30 11 1 12 11
M  V30 12 1 13 12
M  V30 13 2 14 12
M  V30 14 1 15 14
M  V30 15 1 16 15
M  V30 16 2 17 16
M  V30 17 1 18 17
M  V30 18 2 19 18
M  V30 19 2 20 15
M  V30 20 1 20 19
M  V30 21 1 21 19
M  V30 22 2 22 21
M  V30 23 1 23 21
M  V30 24 1 24 18
M  V30 25 1 24 23 CFG=3
M  V30 26 1 25 24
M  V30 27 1 26 25
M  V30 28 2 27 26
M  V30 29 1 28 27
M  V30 30 1 29 28
M  V30 31 2 30 28
M  V30 32 2 31 25
M  V30 33 1 31 30
M  V30 34 1 32 31
M  V30 35 1 33 32
M  V30 36 1 34 33
M  V30 37 2 35 34
M  V30 38 1 36 35
M  V30 39 1 37 35
M  V30 40 2 38 37
M  V30 41 1 39 24
M  V30 42 2 39 33
M  V30 43 1 39 38
M  V30 44 2 40 10
M  V30 45 2 41 7
M  V30 46 1 41 40
M  V30 47 1 42 4
M  V30 48 1 43 42
M  V30 49 1 44 43
M  V30 50 1 45 44
M  V30 51 2 46 45
M  V30 52 1 47 46
M  V30 53 1 48 46
M  V30 54 2 49 48
M  V30 55 1 50 49
M  V30 56 1 51 45
M  V30 57 2 51 50
M  V30 58 1 52 42
M  V30 59 1 52 51
M  V30 60 1 53 1
M  V30 61 1 54 1
M  V30 62 1 55 1
M  V30 63 1 56 2
M  V30 64 1 57 2
M  V30 65 1 58 3
M  V30 66 1 59 3
M  V30 67 1 60 5
M  V30 68 1 61 5
M  V30 69 1 62 6
M  V30 70 1 63 6
M  V30 71 1 64 8
M  V30 72 1 65 9
M  V30 73 1 66 11
M  V30 74 1 67 13
M  V30 75 1 68 16
M  V30 76 1 69 17
M  V30 77 1 70 20
M  V30 78 1 71 26
M  V30 79 1 72 27
M  V30 80 1 73 30
M  V30 81 1 74 34
M  V30 82 1 75 36
M  V30 83 1 76 37
M  V30 84 1 77 38
M  V30 85 1 78 40
M  V30 86 1 79 41
M  V30 87 1 42 80 CFG=3
M  V30 88 1 81 43
M  V30 89 1 82 43
M  V30 90 1 83 44
M  V30 91 1 84 44
M  V30 92 1 85 47
M  V30 93 1 86 48
M  V30 94 1 87 49
M  V30 95 1 88 50
M  V30 96 1 89 52
M  V30 97 1 90 52
M  V30 98 1 4 91 CFG=3
M  V30 END BOND
M  V30 END CTAB
M  END
>  <b_m_subgroup_collapsed>  (90) 
0

>  <r_i_docking_score>  (90) 
-9.2501339607367701

>  <s_m_subgroup_title>  (90) 
glide-dock_SP_D22_pv

>  <s_m_subgroupid>  (90) 
glide-dock_SP_D22_pv

>  <Molecule ChEMBL ID>  (90) 
CHEMBL109897

>  <Standard Type>  (90) 
Ki

>  <Standard Value>  (90) 
4.8

>  <label>  (90) 
1

$$$$
CHEMBL3104518
     RDKit          3D

  0  0  0  0  0  0  0  0  0  0999 V3000
M  V30 BEGIN CTAB
M  V30 COUNTS 62 66 0 0 1
M  V30 BEGIN ATOM
M  V30 1 O 5.686148 4.014828 -12.647368 0
M  V30 2 C 6.857533 4.280506 -12.915850 0
M  V30 3 C 7.500710 5.528848 -12.306108 0
M  V30 4 C 9.018216 5.372697 -12.082123 0 CFG=2
M  V30 5 C 9.656399 6.664815 -11.516838 0
M  V30 6 N 9.230470 7.017078 -10.134609 0 CFG=2 CHG=1
M  V30 7 C 9.667482 8.393168 -9.776826 0
M  V30 8 C 9.180406 8.804518 -8.371087 0
M  V30 9 C 9.541925 7.804209 -7.264979 0 CFG=2
M  V30 10 C 11.012326 7.908577 -6.855676 0
M  V30 11 O 11.900937 7.822603 -7.702535 0
M  V30 12 C 11.286296 8.084641 -5.416189 0
M  V30 13 C 11.286892 9.372527 -4.834546 0
M  V30 14 C 11.686707 9.533744 -3.490871 0
M  V30 15 C 12.088554 8.417623 -2.731300 0
M  V30 16 F 12.485918 8.575159 -1.447174 0
M  V30 17 C 12.086028 7.134940 -3.308915 0
M  V30 18 C 11.683452 6.970782 -4.647488 0
M  V30 19 C 9.166283 6.384262 -7.714044 0
M  V30 20 C 9.667430 6.023253 -9.118360 0
M  V30 21 C 9.731262 4.949654 -13.374732 0
M  V30 22 C 9.060416 3.780333 -14.069789 0
M  V30 23 C 9.821120 2.998190 -14.963300 0
M  V30 24 C 9.254311 1.910794 -15.669213 0
M  V30 25 C 10.056490 1.114572 -16.632219 0
M  V30 26 C 9.723774 -0.231896 -16.912750 0
M  V30 27 C 10.465747 -1.003982 -17.830883 0
M  V30 28 C 11.574222 -0.437968 -18.482702 0
M  V30 29 C 11.926270 0.897488 -18.220251 0
M  V30 30 C 11.173536 1.662308 -17.308472 0
M  V30 31 C 7.890717 1.617499 -15.428158 0
M  V30 32 C 7.124933 2.379657 -14.526073 0
M  V30 33 C 7.696244 3.475972 -13.847246 0
M  V30 34 H 7.000833 5.749333 -11.361238 0
M  V30 35 H 7.304250 6.372495 -12.969396 0
M  V30 36 H 9.170822 4.546692 -11.388482 0
M  V30 37 H 10.743439 6.577713 -11.527869 0
M  V30 38 H 9.411492 7.492022 -12.185943 0
M  V30 39 H 10.750227 8.474430 -9.855214 0
M  V30 40 H 9.255450 9.093860 -10.501313 0
M  V30 41 H 9.591615 9.771749 -8.109774 0
M  V30 42 H 8.100132 8.946615 -8.381622 0
M  V30 43 H 8.952230 8.049760 -6.379735 0
M  V30 44 H 11.006596 10.237700 -5.419734 0
M  V30 45 H 11.698780 10.517249 -3.044585 0
M  V30 46 H 12.395517 6.276822 -2.727731 0
M  V30 47 H 11.702499 5.985969 -5.090676 0
M  V30 48 H 9.564145 5.650006 -7.022268 0
M  V30 49 H 8.085637 6.271194 -7.675877 0
M  V30 50 H 9.279145 5.034376 -9.345832 0
M  V30 51 H 10.753770 5.940235 -9.129341 0
M  V30 52 H 10.769458 4.693323 -13.157261 0
M  V30 53 H 9.755829 5.772024 -14.085711 0
M  V30 54 H 10.864083 3.245986 -15.105033 0
M  V30 55 H 8.887270 -0.699815 -16.417110 0
M  V30 56 H 10.186684 -2.026124 -18.026680 0
M  V30 57 H 12.152675 -1.024898 -19.182800 0
M  V30 58 H 12.776233 1.339499 -18.721962 0
M  V30 59 H 11.462256 2.690466 -17.147589 0
M  V30 60 H 7.403092 0.805820 -15.945190 0
M  V30 61 H 6.087872 2.120164 -14.369066 0
M  V30 62 H 8.213979 7.046910 -10.127031 0
M  V30 END ATOM
M  V30 BEGIN BOND
M  V30 1 2 2 1
M  V30 2 1 3 2
M  V30 3 1 4 3
M  V30 4 1 5 4
M  V30 5 1 6 5
M  V30 6 1 7 6
M  V30 7 1 8 7
M  V30 8 1 9 8
M  V30 9 1 10 9
M  V30 10 2 11 10
M  V30 11 1 12 10
M  V30 12 1 13 12
M  V30 13 2 14 13
M  V30 14 1 15 14
M  V30 15 1 16 15
M  V30 16 2 17 15
M  V30 17 2 18 12
M  V30 18 1 18 17
M  V30 19 1 19 9
M  V30 20 1 20 6
M  V30 21 1 20 19
M  V30 22 1 21 4
M  V30 23 1 22 21
M  V30 24 1 23 22
M  V30 25 2 24 23
M  V30 26 1 25 24
M  V30 27 2 26 25
M  V30 28 1 27 26
M  V30 29 2 28 27
M  V30 30 1 29 28
M  V30 31 1 30 25
M  V30 32 2 30 29
M  V30 33 1 31 24
M  V30 34 2 32 31
M  V30 35 1 33 2
M  V30 36 2 33 22
M  V30 37 1 33 32
M  V30 38 1 34 3
M  V30 39 1 35 3
M  V30 40 1 4 36 CFG=1
M  V30 41 1 37 5
M  V30 42 1 38 5
M  V30 43 1 39 7
M  V30 44 1 40 7
M  V30 45 1 41 8
M  V30 46 1 42 8
M  V30 47 1 9 43 CFG=1
M  V30 48 1 44 13
M  V30 49 1 45 14
M  V30 50 1 46 17
M  V30 51 1 47 18
M  V30 52 1 48 19
M  V30 53 1 49 19
M  V30 54 1 50 20
M  V30 55 1 51 20
M  V30 56 1 52 21
M  V30 57 1 53 21
M  V30 58 1 54 23
M  V30 59 1 55 26
M  V30 60 1 56 27
M  V30 61 1 57 28
M  V30 62 1 58 29
M  V30 63 1 59 30
M  V30 64 1 60 31
M  V30 65 1 61 32
M  V30 66 1 6 62 CFG=3
M  V30 END BOND
M  V30 END CTAB
M  END
>  <b_m_subgroup_collapsed>  (91) 
0

>  <r_i_docking_score>  (91) 
-9.2418481091005091

>  <s_m_subgroup_title>  (91) 
glide-dock_SP_D22_pv

>  <s_m_subgroupid>  (91) 
glide-dock_SP_D22_pv

>  <Molecule ChEMBL ID>  (91) 
CHEMBL3104518

>  <Standard Type>  (91) 
Ki

>  <Standard Value>  (91) 
10000.0

>  <label>  (91) 
0

$$$$
CHEMBL3409246
     RDKit          3D

  0  0  0  0  0  0  0  0  0  0999 V3000
M  V30 BEGIN CTAB
M  V30 COUNTS 69 73 0 0 1
M  V30 BEGIN ATOM
M  V30 1 N 12.086023 10.374637 -6.246859 0
M  V30 2 C 11.355869 10.174755 -5.160226 0
M  V30 3 O 10.486032 10.948211 -4.810987 0
M  V30 4 C 11.677984 8.977093 -4.355883 0
M  V30 5 C 12.086013 9.116972 -3.016463 0
M  V30 6 C 12.310416 7.971470 -2.237802 0
M  V30 7 C 12.101550 6.695961 -2.792125 0
M  V30 8 C 11.686019 6.572315 -4.131989 0
M  V30 9 C 11.470373 7.713758 -4.927123 0
M  V30 10 O 11.048270 7.691257 -6.236197 0
M  V30 11 C 10.427999 6.534374 -6.726131 0
M  V30 12 C 9.753968 6.903658 -8.048787 0
M  V30 13 C 9.294558 5.639420 -8.771971 0
M  V30 14 N 8.486193 5.873800 -9.992581 0 CFG=2 CHG=1
M  V30 15 C 8.085943 4.572222 -10.552941 0
M  V30 16 C 7.054357 4.745654 -11.659838 0
M  V30 17 C 7.662573 5.517622 -12.827836 0 CFG=2
M  V30 18 C 8.622314 4.694929 -13.664161 0
M  V30 19 C 9.912658 5.013604 -14.003551 0
M  V30 20 N 10.451786 4.052033 -14.842711 0
M  V30 21 S 12.052255 4.178578 -15.481507 0
M  V30 22 O 12.315059 2.944373 -16.235151 0
M  V30 23 O 12.885957 4.572300 -14.334774 0
M  V30 24 C 11.999663 5.516316 -16.664339 0
M  V30 25 C 11.176443 5.400578 -17.801622 0
M  V30 26 C 11.219194 6.400094 -18.793711 0
M  V30 27 C 12.085067 7.502989 -18.646988 0
M  V30 28 C 12.888078 7.625375 -17.494984 0
M  V30 29 C 12.847420 6.630635 -16.498314 0
M  V30 30 C 9.525836 3.030179 -15.028628 0
M  V30 31 C 9.561334 1.810983 -15.741436 0
M  V30 32 C 8.436658 0.968242 -15.753728 0
M  V30 33 C 7.269418 1.354587 -15.075579 0
M  V30 34 C 7.231008 2.572152 -14.370993 0
M  V30 35 C 8.358356 3.429897 -14.304622 0
M  V30 36 C 8.235257 6.846860 -12.282198 0
M  V30 37 C 9.142013 6.695632 -11.040384 0
M  V30 38 H 11.904934 11.190964 -6.808292 0
M  V30 39 H 12.828960 9.733729 -6.485110 0
M  V30 40 H 12.218041 10.099078 -2.583735 0
M  V30 41 H 12.627330 8.078173 -1.211215 0
M  V30 42 H 12.258775 5.810665 -2.192772 0
M  V30 43 H 11.529932 5.594745 -4.545028 0
M  V30 44 H 9.682145 6.172359 -6.018225 0
M  V30 45 H 11.190077 5.772100 -6.880300 0
M  V30 46 H 10.463382 7.453735 -8.667254 0
M  V30 47 H 8.909173 7.568761 -7.860429 0
M  V30 48 H 8.693528 5.050679 -8.076344 0
M  V30 49 H 10.163620 5.029149 -9.024347 0
M  V30 50 H 7.686045 3.934093 -9.767064 0
M  V30 51 H 8.975349 4.081973 -10.951553 0
M  V30 52 H 6.202345 5.315051 -11.287485 0
M  V30 53 H 6.658713 3.778546 -11.958900 0
M  V30 54 H 6.810457 5.772447 -13.446864 0
M  V30 55 H 10.504493 5.877887 -13.739879 0
M  V30 56 H 10.537048 4.538498 -17.924614 0
M  V30 57 H 10.598237 6.314963 -19.673458 0
M  V30 58 H 12.118262 8.270123 -19.407629 0
M  V30 59 H 13.538233 8.480920 -17.381746 0
M  V30 60 H 13.484591 6.711880 -15.629462 0
M  V30 61 H 10.442754 1.499471 -16.278084 0
M  V30 62 H 8.464869 0.029373 -16.288757 0
M  V30 63 H 6.398858 0.714538 -15.097747 0
M  V30 64 H 6.312886 2.849715 -13.877740 0
M  V30 65 H 8.753882 7.401894 -13.046859 0
M  V30 66 H 7.395221 7.487171 -12.032390 0
M  V30 67 H 9.363915 7.689319 -10.651616 0
M  V30 68 H 10.093617 6.241339 -11.318524 0
M  V30 69 H 7.640077 6.379716 -9.733974 0
M  V30 END ATOM
M  V30 BEGIN BOND
M  V30 1 1 2 1
M  V30 2 2 3 2
M  V30 3 1 4 2
M  V30 4 2 5 4
M  V30 5 1 6 5
M  V30 6 2 7 6
M  V30 7 1 8 7
M  V30 8 1 9 4
M  V30 9 2 9 8
M  V30 10 1 10 9
M  V30 11 1 11 10
M  V30 12 1 12 11
M  V30 13 1 13 12
M  V30 14 1 14 13
M  V30 15 1 15 14
M  V30 16 1 16 15
M  V30 17 1 17 16
M  V30 18 1 18 17
M  V30 19 2 19 18
M  V30 20 1 20 19
M  V30 21 1 21 20
M  V30 22 2 22 21
M  V30 23 2 23 21
M  V30 24 1 24 21
M  V30 25 2 25 24
M  V30 26 1 26 25
M  V30 27 2 27 26
M  V30 28 1 28 27
M  V30 29 1 29 24
M  V30 30 2 29 28
M  V30 31 1 30 20
M  V30 32 2 31 30
M  V30 33 1 32 31
M  V30 34 2 33 32
M  V30 35 1 34 33
M  V30 36 1 35 18
M  V30 37 1 35 30
M  V30 38 2 35 34
M  V30 39 1 36 17
M  V30 40 1 37 14
M  V30 41 1 37 36
M  V30 42 1 38 1
M  V30 43 1 39 1
M  V30 44 1 40 5
M  V30 45 1 41 6
M  V30 46 1 42 7
M  V30 47 1 43 8
M  V30 48 1 44 11
M  V30 49 1 45 11
M  V30 50 1 46 12
M  V30 51 1 47 12
M  V30 52 1 48 13
M  V30 53 1 49 13
M  V30 54 1 50 15
M  V30 55 1 51 15
M  V30 56 1 52 16
M  V30 57 1 53 16
M  V30 58 1 17 54 CFG=3
M  V30 59 1 55 19
M  V30 60 1 56 25
M  V30 61 1 57 26
M  V30 62 1 58 27
M  V30 63 1 59 28
M  V30 64 1 60 29
M  V30 65 1 61 31
M  V30 66 1 62 32
M  V30 67 1 63 33
M  V30 68 1 64 34
M  V30 69 1 65 36
M  V30 70 1 66 36
M  V30 71 1 67 37
M  V30 72 1 68 37
M  V30 73 1 14 69 CFG=1
M  V30 END BOND
M  V30 END CTAB
M  END
>  <b_m_subgroup_collapsed>  (92) 
0

>  <r_i_docking_score>  (92) 
-9.2378029245971707

>  <s_m_subgroup_title>  (92) 
glide-dock_SP_D22_pv

>  <s_m_subgroupid>  (92) 
glide-dock_SP_D22_pv

>  <Molecule ChEMBL ID>  (92) 
CHEMBL3409246

>  <Standard Type>  (92) 
Ki

>  <Standard Value>  (92) 
62.0

>  <label>  (92) 
1

$$$$
CHEMBL103983
     RDKit          3D

  0  0  0  0  0  0  0  0  0  0999 V3000
M  V30 BEGIN CTAB
M  V30 COUNTS 70 74 0 0 1
M  V30 BEGIN ATOM
M  V30 1 O 7.791961 1.783862 -16.377697 0
M  V30 2 C 7.946321 1.932748 -15.164443 0
M  V30 3 N 7.531853 1.044495 -14.249385 0
M  V30 4 C 7.030315 -0.281108 -14.590983 0
M  V30 5 C 5.512336 -0.314011 -14.818729 0
M  V30 6 C 5.052366 -1.573460 -15.576040 0
M  V30 7 C 4.998133 -1.353826 -17.080126 0
M  V30 8 C 3.761510 -1.064429 -17.688787 0
M  V30 9 C 3.688894 -0.813492 -19.071093 0
M  V30 10 C 4.852015 -0.864028 -19.861042 0
M  V30 11 C 6.089448 -1.168042 -19.263401 0
M  V30 12 C 6.162215 -1.413337 -17.878307 0
M  V30 13 C 8.758148 3.048528 -14.649580 0
M  V30 14 C 8.703125 3.827008 -13.519513 0
M  V30 15 C 9.821716 4.730495 -13.579537 0
M  V30 16 C 10.336656 5.734643 -12.723989 0
M  V30 17 C 11.526908 6.432007 -13.059966 0
M  V30 18 C 12.200847 6.145659 -14.262314 0
M  V30 19 C 11.694302 5.173561 -15.140217 0
M  V30 20 C 10.524593 4.477998 -14.793027 0
M  V30 21 N 9.818522 3.480037 -15.428187 0
M  V30 22 O 12.060362 7.372553 -12.217183 0
M  V30 23 C 11.128898 7.919652 -11.299329 0
M  V30 24 C 10.352595 6.802225 -10.595297 0 CFG=1
M  V30 25 C 9.287234 7.397429 -9.682471 0
M  V30 26 N 8.486109 6.341604 -9.035589 0 CHG=1
M  V30 27 C 9.070697 5.653930 -7.870118 0
M  V30 28 C 9.422523 6.603968 -6.711968 0
M  V30 29 C 10.931662 6.870389 -6.578148 0
M  V30 30 C 11.219317 7.874565 -5.482407 0
M  V30 31 C 10.912341 9.233097 -5.696804 0
M  V30 32 C 11.134830 10.172243 -4.676042 0
M  V30 33 C 11.686172 9.762383 -3.446768 0
M  V30 34 C 12.015186 8.409241 -3.235555 0
M  V30 35 C 11.767337 7.461755 -4.247691 0
M  V30 36 O 9.665319 5.999480 -11.552661 0
M  V30 37 H 7.758429 1.226084 -13.283612 0
M  V30 38 H 7.285616 -0.976919 -13.792696 0
M  V30 39 H 7.557987 -0.627565 -15.478075 0
M  V30 40 H 5.170557 0.572207 -15.348735 0
M  V30 41 H 5.027422 -0.285039 -13.842982 0
M  V30 42 H 4.051227 -1.844202 -15.237471 0
M  V30 43 H 5.685944 -2.430821 -15.344907 0
M  V30 44 H 2.863341 -1.025423 -17.092112 0
M  V30 45 H 2.738750 -0.580027 -19.524601 0
M  V30 46 H 4.790856 -0.674296 -20.922981 0
M  V30 47 H 6.984566 -1.211192 -19.865967 0
M  V30 48 H 7.122473 -1.639496 -17.444149 0
M  V30 49 H 7.983362 3.771727 -12.716312 0
M  V30 50 H 13.111733 6.674325 -14.505851 0
M  V30 51 H 12.208887 4.952178 -16.063528 0
M  V30 52 H 10.032052 3.061752 -16.323072 0
M  V30 53 H 11.664650 8.535815 -10.576679 0
M  V30 54 H 10.432098 8.571461 -11.827115 0
M  V30 55 H 11.020630 6.180825 -10.001916 0
M  V30 56 H 9.717811 8.080106 -8.950953 0
M  V30 57 H 8.610532 8.000840 -10.289207 0
M  V30 58 H 7.609065 6.779962 -8.743701 0
M  V30 59 H 8.291408 4.972579 -7.535195 0
M  V30 60 H 9.919920 5.038869 -8.170837 0
M  V30 61 H 8.864524 7.537438 -6.805234 0
M  V30 62 H 9.077411 6.172273 -5.775455 0
M  V30 63 H 11.463696 5.941224 -6.370609 0
M  V30 64 H 11.343294 7.251024 -7.512715 0
M  V30 65 H 10.490442 9.554843 -6.637341 0
M  V30 66 H 10.885839 11.209831 -4.841246 0
M  V30 67 H 11.865173 10.487228 -2.665380 0
M  V30 68 H 12.438140 8.096903 -2.292056 0
M  V30 69 H 11.998598 6.420288 -4.074303 0
M  V30 70 H 8.239468 5.664216 -9.744926 0
M  V30 END ATOM
M  V30 BEGIN BOND
M  V30 1 2 2 1
M  V30 2 1 3 2
M  V30 3 1 4 3
M  V30 4 1 5 4
M  V30 5 1 6 5
M  V30 6 1 7 6
M  V30 7 2 8 7
M  V30 8 1 9 8
M  V30 9 2 10 9
M  V30 10 1 11 10
M  V30 11 1 12 7
M  V30 12 2 12 11
M  V30 13 1 13 2
M  V30 14 2 14 13
M  V30 15 1 15 14
M  V30 16 1 16 15
M  V30 17 2 17 16
M  V30 18 1 18 17
M  V30 19 2 19 18
M  V30 20 2 20 15
M  V30 21 1 20 19
M  V30 22 1 21 13
M  V30 23 1 21 20
M  V30 24 1 22 17
M  V30 25 1 23 22
M  V30 26 1 24 23
M  V30 27 1 25 24
M  V30 28 1 26 25
M  V30 29 1 27 26
M  V30 30 1 28 27
M  V30 31 1 29 28
M  V30 32 1 30 29
M  V30 33 2 31 30
M  V30 34 1 32 31
M  V30 35 2 33 32
M  V30 36 1 34 33
M  V30 37 1 35 30
M  V30 38 2 35 34
M  V30 39 1 36 16
M  V30 40 1 36 24
M  V30 41 1 37 3
M  V30 42 1 38 4
M  V30 43 1 39 4
M  V30 44 1 40 5
M  V30 45 1 41 5
M  V30 46 1 42 6
M  V30 47 1 43 6
M  V30 48 1 44 8
M  V30 49 1 45 9
M  V30 50 1 46 10
M  V30 51 1 47 11
M  V30 52 1 48 12
M  V30 53 1 49 14
M  V30 54 1 50 18
M  V30 55 1 51 19
M  V30 56 1 52 21
M  V30 57 1 53 23
M  V30 58 1 54 23
M  V30 59 1 24 55 CFG=1
M  V30 60 1 56 25
M  V30 61 1 57 25
M  V30 62 1 58 26
M  V30 63 1 59 27
M  V30 64 1 60 27
M  V30 65 1 61 28
M  V30 66 1 62 28
M  V30 67 1 63 29
M  V30 68 1 64 29
M  V30 69 1 65 31
M  V30 70 1 66 32
M  V30 71 1 67 33
M  V30 72 1 68 34
M  V30 73 1 69 35
M  V30 74 1 70 26
M  V30 END BOND
M  V30 END CTAB
M  END
>  <b_m_subgroup_collapsed>  (93) 
0

>  <r_i_docking_score>  (93) 
-9.2317609794310105

>  <s_m_subgroup_title>  (93) 
glide-dock_SP_D22_pv

>  <s_m_subgroupid>  (93) 
glide-dock_SP_D22_pv

>  <Molecule ChEMBL ID>  (93) 
CHEMBL103983

>  <Standard Type>  (93) 
Ki

>  <Standard Value>  (93) 
41.0

>  <label>  (93) 
1

$$$$
CHEMBL5965086
     RDKit          3D

  0  0  0  0  0  0  0  0  0  0999 V3000
M  V30 BEGIN CTAB
M  V30 COUNTS 53 57 0 0 1
M  V30 BEGIN ATOM
M  V30 1 O 5.416979 4.072462 -12.100569 0
M  V30 2 C 6.400934 3.803771 -12.787874 0
M  V30 3 C 6.452503 2.514665 -13.570357 0
M  V30 4 N 5.395860 1.672134 -13.446952 0
M  V30 5 C 5.442812 0.476137 -14.067711 0
M  V30 6 C 6.537954 0.051044 -14.838535 0
M  V30 7 C 7.647108 0.907182 -14.955572 0
M  V30 8 C 7.611682 2.154293 -14.300257 0
M  V30 9 C 8.831959 3.051703 -14.300713 0
M  V30 10 C 8.510468 4.494745 -13.879979 0
M  V30 11 N 7.506844 4.588146 -12.814606 0
M  V30 12 C 7.719647 5.668764 -11.843307 0
M  V30 13 C 8.352926 5.113944 -10.548550 0
M  V30 14 N 8.647158 6.176716 -9.552789 0 CFG=2 CHG=1
M  V30 15 C 9.948930 6.844891 -9.836729 0
M  V30 16 C 10.321871 7.917201 -8.800982 0
M  V30 17 C 10.309322 7.337462 -7.376152 0 CFG=1
M  V30 18 C 10.732454 8.333221 -6.321667 0
M  V30 19 N 10.487113 9.632322 -6.468063 0
M  V30 20 O 10.949963 10.299190 -5.301919 0
M  V30 21 C 11.455198 9.370775 -4.411747 0
M  V30 22 C 11.992970 9.506824 -3.125615 0
M  V30 23 C 12.374144 8.332123 -2.448256 0
M  V30 24 F 12.885791 8.420468 -1.200833 0
M  V30 25 C 12.215071 7.066741 -3.059794 0
M  V30 26 C 11.685984 6.958233 -4.366131 0
M  V30 27 C 11.305214 8.135411 -5.047522 0
M  V30 28 C 8.914124 6.770613 -7.110200 0
M  V30 29 C 8.557143 5.692147 -8.147704 0
M  V30 30 H 4.577121 -0.159320 -13.949228 0
M  V30 31 H 6.532978 -0.917165 -15.320212 0
M  V30 32 H 8.518262 0.596281 -15.516994 0
M  V30 33 H 9.552161 2.624091 -13.599761 0
M  V30 34 H 9.306493 3.041614 -15.282529 0
M  V30 35 H 9.437037 5.005228 -13.616550 0
M  V30 36 H 8.093578 5.040780 -14.723794 0
M  V30 37 H 8.350862 6.442047 -12.280398 0
M  V30 38 H 6.776273 6.170759 -11.618783 0
M  V30 39 H 7.686049 4.372141 -10.113266 0
M  V30 40 H 9.266705 4.566858 -10.783517 0
M  V30 41 H 10.740898 6.099421 -9.850875 0
M  V30 42 H 9.925795 7.297632 -10.827317 0
M  V30 43 H 11.307467 8.320427 -9.033040 0
M  V30 44 H 9.619374 8.747710 -8.876451 0
M  V30 45 H 11.016818 6.508836 -7.346341 0
M  V30 46 H 12.091582 10.475115 -2.657589 0
M  V30 47 H 12.503631 6.174473 -2.523022 0
M  V30 48 H 11.564869 5.988813 -4.827068 0
M  V30 49 H 8.884281 6.331913 -6.113161 0
M  V30 50 H 8.167210 7.567104 -7.117266 0
M  V30 51 H 7.541825 5.370651 -7.940353 0
M  V30 52 H 9.202739 4.823382 -8.021823 0
M  V30 53 H 7.902076 6.867859 -9.656321 0
M  V30 END ATOM
M  V30 BEGIN BOND
M  V30 1 2 2 1
M  V30 2 1 3 2
M  V30 3 2 4 3
M  V30 4 1 5 4
M  V30 5 2 6 5
M  V30 6 1 7 6
M  V30 7 1 8 3
M  V30 8 2 8 7
M  V30 9 1 9 8
M  V30 10 1 10 9
M  V30 11 1 11 2
M  V30 12 1 11 10
M  V30 13 1 12 11
M  V30 14 1 13 12
M  V30 15 1 14 13
M  V30 16 1 15 14
M  V30 17 1 16 15
M  V30 18 1 17 16
M  V30 19 1 18 17
M  V30 20 2 19 18
M  V30 21 1 20 19
M  V30 22 1 21 20
M  V30 23 1 22 21
M  V30 24 2 23 22
M  V30 25 1 24 23
M  V30 26 1 25 23
M  V30 27 2 26 25
M  V30 28 1 27 18
M  V30 29 2 27 21
M  V30 30 1 27 26
M  V30 31 1 28 17
M  V30 32 1 29 14
M  V30 33 1 29 28
M  V30 34 1 30 5
M  V30 35 1 31 6
M  V30 36 1 32 7
M  V30 37 1 33 9
M  V30 38 1 34 9
M  V30 39 1 35 10
M  V30 40 1 36 10
M  V30 41 1 37 12
M  V30 42 1 38 12
M  V30 43 1 39 13
M  V30 44 1 40 13
M  V30 45 1 41 15
M  V30 46 1 42 15
M  V30 47 1 43 16
M  V30 48 1 44 16
M  V30 49 1 17 45 CFG=3
M  V30 50 1 46 22
M  V30 51 1 47 25
M  V30 52 1 48 26
M  V30 53 1 49 28
M  V30 54 1 50 28
M  V30 55 1 51 29
M  V30 56 1 52 29
M  V30 57 1 14 53 CFG=1
M  V30 END BOND
M  V30 END CTAB
M  END
>  <b_m_subgroup_collapsed>  (94) 
0

>  <r_i_docking_score>  (94) 
-9.2227439991748295

>  <s_m_subgroup_title>  (94) 
glide-dock_SP_D22_pv

>  <s_m_subgroupid>  (94) 
glide-dock_SP_D22_pv

>  <Molecule ChEMBL ID>  (94) 
CHEMBL5965086

>  <Standard Type>  (94) 
Ki

>  <Standard Value>  (94) 
87.0

>  <label>  (94) 
1

$$$$
CHEMBL2298819
     RDKit          3D

  0  0  0  0  0  0  0  0  0  0999 V3000
M  V30 BEGIN CTAB
M  V30 COUNTS 53 56 0 0 1
M  V30 BEGIN ATOM
M  V30 1 F 10.886126 6.572428 -2.247124 0
M  V30 2 C 11.993760 7.138038 -2.716264 0
M  V30 3 F 12.885964 6.172435 -2.841795 0
M  V30 4 F 12.443200 8.000827 -1.805952 0
M  V30 5 C 11.777391 7.840560 -4.057319 0
M  V30 6 C 12.283597 9.142072 -4.256909 0
M  V30 7 C 12.084949 9.793947 -5.484643 0
M  V30 8 C 11.360048 9.178974 -6.511324 0
M  V30 9 C 10.848647 7.872414 -6.349096 0
M  V30 10 N 10.134602 7.247732 -7.394555 0
M  V30 11 C 10.108932 7.860522 -8.721258 0
M  V30 12 C 9.727278 6.844174 -9.812407 0
M  V30 13 N 8.524146 6.032738 -9.478991 0 CHG=1
M  V30 14 C 8.282825 4.945361 -10.468432 0
M  V30 15 C 7.494829 5.391648 -11.713648 0
M  V30 16 C 8.346831 5.861414 -12.904538 0
M  V30 17 C 9.154270 4.759583 -13.562973 0
M  V30 18 C 10.575385 4.821917 -13.564938 0
M  V30 19 C 11.346725 3.850682 -14.246948 0
M  V30 20 C 10.644171 2.833682 -14.910471 0
M  V30 21 N 11.082727 1.774714 -15.709187 0
M  V30 22 C 10.030575 1.066660 -16.192972 0
M  V30 23 S 10.085549 -0.228454 -17.223015 0
M  V30 24 N 8.922165 1.656812 -15.677802 0
M  V30 25 C 9.269621 2.760234 -14.894662 0
M  V30 26 C 8.479325 3.705108 -14.226836 0
M  V30 27 C 8.602928 5.489922 -8.096130 0
M  V30 28 C 8.885922 6.584324 -7.056786 0
M  V30 29 C 11.086220 7.204547 -5.117375 0
M  V30 30 H 12.834101 9.648813 -3.477513 0
M  V30 31 H 12.481381 10.780024 -5.660538 0
M  V30 32 H 11.214952 9.743354 -7.419376 0
M  V30 33 H 9.395305 8.686311 -8.716233 0
M  V30 34 H 11.085361 8.273177 -8.976612 0
M  V30 35 H 9.566630 7.392589 -10.736027 0
M  V30 36 H 10.572121 6.174532 -9.975802 0
M  V30 37 H 9.214260 4.446397 -10.740302 0
M  V30 38 H 7.686238 4.172318 -9.986829 0
M  V30 39 H 6.873919 4.558438 -12.044672 0
M  V30 40 H 6.783779 6.170953 -11.447421 0
M  V30 41 H 7.686185 6.269262 -13.662516 0
M  V30 42 H 8.999211 6.687698 -12.638015 0
M  V30 43 H 11.080584 5.633803 -13.062242 0
M  V30 44 H 12.425282 3.903836 -14.273310 0
M  V30 45 H 12.050813 1.574407 -15.915954 0
M  V30 46 H 7.976772 1.353137 -15.859748 0
M  V30 47 H 7.401030 3.647167 -14.246835 0
M  V30 48 H 7.686059 4.973864 -7.838787 0
M  V30 49 H 9.393155 4.739750 -8.057944 0
M  V30 50 H 8.900100 6.171463 -6.051930 0
M  V30 51 H 8.086135 7.325362 -7.056195 0
M  V30 52 H 10.735116 6.194786 -4.963513 0
M  V30 53 H 7.721623 6.661641 -9.506195 0
M  V30 END ATOM
M  V30 BEGIN BOND
M  V30 1 1 2 1
M  V30 2 1 3 2
M  V30 3 1 4 2
M  V30 4 1 5 2
M  V30 5 2 6 5
M  V30 6 1 7 6
M  V30 7 2 8 7
M  V30 8 1 9 8
M  V30 9 1 10 9
M  V30 10 1 11 10
M  V30 11 1 12 11
M  V30 12 1 13 12
M  V30 13 1 14 13
M  V30 14 1 15 14
M  V30 15 1 16 15
M  V30 16 1 17 16
M  V30 17 1 18 17
M  V30 18 2 19 18
M  V30 19 1 20 19
M  V30 20 1 21 20
M  V30 21 1 22 21
M  V30 22 2 23 22
M  V30 23 1 24 22
M  V30 24 2 25 20
M  V30 25 1 25 24
M  V30 26 2 26 17
M  V30 27 1 26 25
M  V30 28 1 27 13
M  V30 29 1 28 10
M  V30 30 1 28 27
M  V30 31 1 29 5
M  V30 32 2 29 9
M  V30 33 1 30 6
M  V30 34 1 31 7
M  V30 35 1 32 8
M  V30 36 1 33 11
M  V30 37 1 34 11
M  V30 38 1 35 12
M  V30 39 1 36 12
M  V30 40 1 37 14
M  V30 41 1 38 14
M  V30 42 1 39 15
M  V30 43 1 40 15
M  V30 44 1 41 16
M  V30 45 1 42 16
M  V30 46 1 43 18
M  V30 47 1 44 19
M  V30 48 1 45 21
M  V30 49 1 46 24
M  V30 50 1 47 26
M  V30 51 1 48 27
M  V30 52 1 49 27
M  V30 53 1 50 28
M  V30 54 1 51 28
M  V30 55 1 52 29
M  V30 56 1 53 13
M  V30 END BOND
M  V30 END CTAB
M  END
>  <b_m_subgroup_collapsed>  (95) 
0

>  <r_i_docking_score>  (95) 
-9.2222226603911697

>  <s_m_subgroup_title>  (95) 
glide-dock_SP_D22_pv

>  <s_m_subgroupid>  (95) 
glide-dock_SP_D22_pv

>  <Molecule ChEMBL ID>  (95) 
CHEMBL2298819

>  <Standard Type>  (95) 
Ki

>  <Standard Value>  (95) 
5.8

>  <label>  (95) 
1

$$$$
CHEMBL3765426
     RDKit          3D

  0  0  0  0  0  0  0  0  0  0999 V3000
M  V30 BEGIN CTAB
M  V30 COUNTS 61 64 0 0 1
M  V30 BEGIN ATOM
M  V30 1 C 10.466370 1.624394 -14.251871 0
M  V30 2 N 9.645226 2.821306 -14.230492 0
M  V30 3 C 10.046745 4.106372 -14.107016 0
M  V30 4 S 11.740827 4.560040 -13.846554 0
M  V30 5 C 11.704406 6.386582 -13.918399 0
M  V30 6 C 10.885605 7.128863 -12.834538 0
M  V30 7 C 11.325745 7.011428 -11.372955 0
M  V30 8 N 10.879263 8.061453 -10.469787 0
M  V30 9 C 9.421869 8.156663 -10.432368 0
M  V30 10 C 9.007434 9.273643 -9.486120 0
M  V30 11 O 9.429589 8.964058 -8.165035 0
M  V30 12 C 10.840037 8.808964 -8.051930 0 CFG=1
M  V30 13 C 11.204998 8.426314 -6.621851 0
M  V30 14 C 10.938969 7.125188 -6.145586 0
M  V30 15 C 11.261292 6.772182 -4.824275 0
M  V30 16 C 11.803049 7.718923 -3.935543 0
M  V30 17 C 12.091573 7.302464 -2.500063 0
M  V30 18 F 10.973078 6.972004 -1.851481 0
M  V30 19 F 12.885875 6.234302 -2.519380 0
M  V30 20 F 12.694977 8.278960 -1.822887 0
M  V30 21 C 12.055517 9.029422 -4.401752 0
M  V30 22 C 11.762268 9.378531 -5.738711 0
M  V30 23 C 11.355809 7.793770 -9.107839 0
M  V30 24 N 9.039797 4.970904 -14.170499 0
M  V30 25 N 7.906000 4.214859 -14.235951 0
M  V30 26 C 8.298097 2.944279 -14.287642 0
M  V30 27 C 7.301601 1.877331 -14.377175 0
M  V30 28 C 7.446582 0.791862 -15.268339 0
M  V30 29 C 6.426832 -0.175589 -15.379540 0
M  V30 30 C 5.251257 -0.069278 -14.598722 0
M  V30 31 C 4.105011 -1.027222 -14.729827 0
M  V30 32 N 4.084072 -1.827356 -15.800536 0
M  V30 33 O 3.214975 -1.029693 -13.884477 0
M  V30 34 C 5.145093 0.978198 -13.662247 0
M  V30 35 C 6.141716 1.959106 -13.573962 0
M  V30 36 H 11.286226 1.728807 -13.545820 0
M  V30 37 H 9.880980 0.749837 -13.970800 0
M  V30 38 H 10.873094 1.473839 -15.251542 0
M  V30 39 H 12.737243 6.734279 -13.885245 0
M  V30 40 H 11.328523 6.659382 -14.905629 0
M  V30 41 H 10.886363 8.168242 -13.122526 0
M  V30 42 H 9.837671 6.856169 -12.869719 0
M  V30 43 H 10.885980 6.103282 -10.991295 0
M  V30 44 H 12.413679 6.951084 -11.329731 0
M  V30 45 H 9.023349 8.380431 -11.423406 0
M  V30 46 H 8.973889 7.212590 -10.115725 0
M  V30 47 H 9.489609 10.171420 -9.846774 0
M  V30 48 H 7.940807 9.455673 -9.505952 0
M  V30 49 H 11.290404 9.774707 -8.270285 0
M  V30 50 H 10.479086 6.386439 -6.785060 0
M  V30 51 H 11.050327 5.774135 -4.474636 0
M  V30 52 H 12.475100 9.772666 -3.739783 0
M  V30 53 H 11.960787 10.383399 -6.081367 0
M  V30 54 H 11.039686 6.791101 -8.825894 0
M  V30 55 H 12.446523 7.786104 -9.094872 0
M  V30 56 H 8.322181 0.712797 -15.894802 0
M  V30 57 H 6.556908 -0.984016 -16.082722 0
M  V30 58 H 4.821801 -1.779396 -16.482773 0
M  V30 59 H 3.364718 -2.543744 -15.889565 0
M  V30 60 H 4.264576 1.084067 -13.047711 0
M  V30 61 H 6.014935 2.781400 -12.884809 0
M  V30 END ATOM
M  V30 BEGIN BOND
M  V30 1 1 2 1
M  V30 2 1 3 2
M  V30 3 1 4 3
M  V30 4 1 5 4
M  V30 5 1 6 5
M  V30 6 1 7 6
M  V30 7 1 8 7
M  V30 8 1 9 8
M  V30 9 1 10 9
M  V30 10 1 11 10
M  V30 11 1 12 11
M  V30 12 1 13 12
M  V30 13 1 14 13
M  V30 14 2 15 14
M  V30 15 1 16 15
M  V30 16 1 17 16
M  V30 17 1 18 17
M  V30 18 1 19 17
M  V30 19 1 20 17
M  V30 20 2 21 16
M  V30 21 2 22 13
M  V30 22 1 22 21
M  V30 23 1 23 8
M  V30 24 1 23 12
M  V30 25 2 24 3
M  V30 26 1 25 24
M  V30 27 1 26 2
M  V30 28 2 26 25
M  V30 29 1 27 26
M  V30 30 1 28 27
M  V30 31 2 29 28
M  V30 32 1 30 29
M  V30 33 1 31 30
M  V30 34 1 32 31
M  V30 35 2 33 31
M  V30 36 2 34 30
M  V30 37 2 35 27
M  V30 38 1 35 34
M  V30 39 1 36 1
M  V30 40 1 37 1
M  V30 41 1 38 1
M  V30 42 1 39 5
M  V30 43 1 40 5
M  V30 44 1 41 6
M  V30 45 1 42 6
M  V30 46 1 43 7
M  V30 47 1 44 7
M  V30 48 1 45 9
M  V30 49 1 46 9
M  V30 50 1 47 10
M  V30 51 1 48 10
M  V30 52 1 12 49 CFG=3
M  V30 53 1 50 14
M  V30 54 1 51 15
M  V30 55 1 52 21
M  V30 56 1 53 22
M  V30 57 1 54 23
M  V30 58 1 55 23
M  V30 59 1 56 28
M  V30 60 1 57 29
M  V30 61 1 58 32
M  V30 62 1 59 32
M  V30 63 1 60 34
M  V30 64 1 61 35
M  V30 END BOND
M  V30 END CTAB
M  END
>  <b_m_subgroup_collapsed>  (96) 
0

>  <r_i_docking_score>  (96) 
-9.2209652937700692

>  <s_m_subgroup_title>  (96) 
glide-dock_SP_D22_pv

>  <s_m_subgroupid>  (96) 
glide-dock_SP_D22_pv

>  <Molecule ChEMBL ID>  (96) 
CHEMBL3765426

>  <Standard Type>  (96) 
Ki

>  <Standard Value>  (96) 
10000.0

>  <label>  (96) 
0

$$$$
CHEMBL62601
     RDKit          3D

  0  0  0  0  0  0  0  0  0  0999 V3000
M  V30 BEGIN CTAB
M  V30 COUNTS 63 67 0 0 1
M  V30 BEGIN ATOM
M  V30 1 C 7.794562 1.512089 -15.463556 0
M  V30 2 O 9.097050 1.318233 -14.927938 0
M  V30 3 C 10.111838 1.773386 -15.733782 0
M  V30 4 C 10.691851 3.046537 -15.508363 0
M  V30 5 C 10.222398 3.962578 -14.474995 0
M  V30 6 N 9.023458 4.082322 -13.895179 0
M  V30 7 C 9.085324 5.258326 -13.161907 0
M  V30 8 C 7.875456 5.850091 -12.472697 0
M  V30 9 N 8.086584 6.172314 -11.039845 0 CHG=1
M  V30 10 C 9.321440 6.945318 -10.761192 0
M  V30 11 C 9.355099 7.704043 -9.429194 0 CFG=2
M  V30 12 C 10.592755 8.618726 -9.349546 0
M  V30 13 C 11.297738 8.248524 -8.047171 0
M  V30 14 N 10.266249 7.579614 -7.229651 0 CFG=2 CHG=1
M  V30 15 C 10.781259 6.793797 -6.085504 0
M  V30 16 C 11.286004 7.644014 -4.928247 0
M  V30 17 C 11.893483 6.990862 -3.834351 0
M  V30 18 C 12.294930 7.719897 -2.698709 0
M  V30 19 C 12.089084 9.110335 -2.645964 0
M  V30 20 C 11.489912 9.770064 -3.732991 0
M  V30 21 C 11.100438 9.047804 -4.872788 0
M  V30 22 C 9.442822 6.812501 -8.181077 0
M  V30 23 C 10.350796 5.769948 -13.326030 0
M  V30 24 O 11.081517 4.950259 -14.116608 0
M  V30 25 C 11.761370 3.479677 -16.320263 0
M  V30 26 C 12.251181 2.687019 -17.365984 0
M  V30 27 Br 13.688895 3.372044 -18.418056 0
M  V30 28 C 11.669704 1.426829 -17.614119 0
M  V30 29 C 12.134488 0.622701 -18.676611 0
M  V30 30 C 11.546825 -0.627123 -18.925055 0
M  V30 31 C 10.506045 -1.094628 -18.103191 0
M  V30 32 C 10.051086 -0.310482 -17.029827 0
M  V30 33 C 10.609439 0.963710 -16.786514 0
M  V30 34 H 7.061322 1.049909 -14.803553 0
M  V30 35 H 7.550719 2.569578 -15.537070 0
M  V30 36 H 7.682822 1.065174 -16.451626 0
M  V30 37 H 7.578776 6.765193 -12.986965 0
M  V30 38 H 7.020212 5.175696 -12.545866 0
M  V30 39 H 7.303500 6.767734 -10.723005 0
M  V30 40 H 10.182590 6.277563 -10.794404 0
M  V30 41 H 9.429908 7.689469 -11.552316 0
M  V30 42 H 8.486091 8.352987 -9.345971 0
M  V30 43 H 11.269291 8.506393 -10.198641 0
M  V30 44 H 10.278048 9.663680 -9.333850 0
M  V30 45 H 12.106008 7.547827 -8.258806 0
M  V30 46 H 11.740881 9.118012 -7.562883 0
M  V30 47 H 9.971025 6.176099 -5.695067 0
M  V30 48 H 11.567102 6.113050 -6.417067 0
M  V30 49 H 12.028131 5.918909 -3.850048 0
M  V30 50 H 12.743205 7.208368 -1.861405 0
M  V30 51 H 12.379164 9.670833 -1.768500 0
M  V30 52 H 11.287838 10.829375 -3.682952 0
M  V30 53 H 10.608831 9.593664 -5.662658 0
M  V30 54 H 8.462169 6.577996 -7.765942 0
M  V30 55 H 9.944040 5.870412 -8.411884 0
M  V30 56 H 10.860010 6.668584 -13.013184 0
M  V30 57 H 12.217484 4.446437 -16.164915 0
M  V30 58 H 12.938595 0.946876 -19.318287 0
M  V30 59 H 11.909793 -1.227699 -19.743956 0
M  V30 60 H 10.060682 -2.062732 -18.285845 0
M  V30 61 H 9.258285 -0.693301 -16.404631 0
M  V30 62 H 8.071308 5.321659 -10.494989 0
M  V30 63 H 9.659088 8.296143 -6.856434 0
M  V30 END ATOM
M  V30 BEGIN BOND
M  V30 1 1 2 1
M  V30 2 1 3 2
M  V30 3 2 4 3
M  V30 4 1 5 4
M  V30 5 2 6 5
M  V30 6 1 7 6
M  V30 7 1 8 7
M  V30 8 1 9 8
M  V30 9 1 10 9
M  V30 10 1 11 10
M  V30 11 1 12 11
M  V30 12 1 13 12
M  V30 13 1 14 13
M  V30 14 1 15 14
M  V30 15 1 16 15
M  V30 16 2 17 16
M  V30 17 1 18 17
M  V30 18 2 19 18
M  V30 19 1 20 19
M  V30 20 1 21 16
M  V30 21 2 21 20
M  V30 22 1 22 11
M  V30 23 1 22 14
M  V30 24 2 23 7
M  V30 25 1 24 5
M  V30 26 1 24 23
M  V30 27 1 25 4
M  V30 28 2 26 25
M  V30 29 1 27 26
M  V30 30 1 28 26
M  V30 31 2 29 28
M  V30 32 1 30 29
M  V30 33 2 31 30
M  V30 34 1 32 31
M  V30 35 1 33 3
M  V30 36 1 33 28
M  V30 37 2 33 32
M  V30 38 1 34 1
M  V30 39 1 35 1
M  V30 40 1 36 1
M  V30 41 1 37 8
M  V30 42 1 38 8
M  V30 43 1 39 9
M  V30 44 1 40 10
M  V30 45 1 41 10
M  V30 46 1 11 42 CFG=1
M  V30 47 1 43 12
M  V30 48 1 44 12
M  V30 49 1 45 13
M  V30 50 1 46 13
M  V30 51 1 47 15
M  V30 52 1 48 15
M  V30 53 1 49 17
M  V30 54 1 50 18
M  V30 55 1 51 19
M  V30 56 1 52 20
M  V30 57 1 53 21
M  V30 58 1 54 22
M  V30 59 1 55 22
M  V30 60 1 56 23
M  V30 61 1 57 25
M  V30 62 1 58 29
M  V30 63 1 59 30
M  V30 64 1 60 31
M  V30 65 1 61 32
M  V30 66 1 62 9
M  V30 67 1 14 63 CFG=1
M  V30 END BOND
M  V30 END CTAB
M  END
>  <b_m_subgroup_collapsed>  (97) 
0

>  <r_i_docking_score>  (97) 
-9.2087252642437907

>  <s_m_subgroup_title>  (97) 
glide-dock_SP_D22_pv

>  <s_m_subgroupid>  (97) 
glide-dock_SP_D22_pv

>  <Molecule ChEMBL ID>  (97) 
CHEMBL62601

>  <Standard Type>  (97) 
Ki

>  <Standard Value>  (97) 
17500.0

>  <label>  (97) 
0

$$$$
CHEMBL1237149
     RDKit          3D

  0  0  0  0  0  0  0  0  0  0999 V3000
M  V30 BEGIN CTAB
M  V30 COUNTS 58 64 0 0 1
M  V30 BEGIN ATOM
M  V30 1 O 5.261859 0.339090 -13.905478 0
M  V30 2 C 6.363214 0.786098 -14.217360 0
M  V30 3 N 7.357684 0.171763 -14.964097 0
M  V30 4 C 8.482723 0.977037 -14.982976 0
M  V30 5 C 9.752485 0.746266 -15.527970 0
M  V30 6 C 10.723556 1.747825 -15.315836 0
M  V30 7 C 10.418120 2.906560 -14.557975 0
M  V30 8 C 9.122431 3.115787 -14.014193 0
M  V30 9 N 8.844453 4.250405 -13.229374 0
M  V30 10 C 9.838737 5.151651 -12.671591 0
M  V30 11 C 8.957331 6.258432 -12.049619 0 CFG=1
M  V30 12 C 7.811133 6.309771 -13.046916 0
M  V30 13 C 7.538049 4.823659 -12.946142 0 CFG=2
M  V30 14 C 7.280631 4.760603 -11.446692 0
M  V30 15 N 8.203326 5.772182 -10.867725 0 CFG=1 CHG=1
M  V30 16 C 8.948346 5.366421 -9.642940 0
M  V30 17 C 9.885784 6.460559 -9.052485 0 CFG=1
M  V30 18 C 9.286054 7.871835 -9.139527 0
M  V30 19 C 10.194262 8.967544 -8.613950 0
M  V30 20 C 10.779084 8.594812 -7.311886 0
M  V30 21 N 11.377754 9.465924 -6.424224 0
M  V30 22 C 11.699471 8.796407 -5.262851 0
M  V30 23 C 12.330162 9.205181 -4.079572 0
M  V30 24 C 12.485961 8.323430 -3.009638 0
M  V30 25 C 12.049337 7.006267 -3.151592 0
M  V30 26 F 12.208142 6.169670 -2.112450 0
M  V30 27 C 11.466871 6.572352 -4.361105 0
M  V30 28 C 11.282214 7.448505 -5.454243 0
M  V30 29 C 10.773947 7.336863 -6.796395 0
M  V30 30 C 10.263802 6.156106 -7.568971 0
M  V30 31 C 8.156458 2.117362 -14.276394 0
M  V30 32 O 6.860508 2.008210 -13.846913 0
M  V30 33 H 7.284738 -0.771290 -15.327797 0
M  V30 34 H 9.980206 -0.157495 -16.073788 0
M  V30 35 H 11.717794 1.618579 -15.717235 0
M  V30 36 H 11.202308 3.630818 -14.400318 0
M  V30 37 H 10.483360 4.651928 -11.949248 0
M  V30 38 H 10.460814 5.563355 -13.467270 0
M  V30 39 H 9.482781 7.202224 -11.921528 0
M  V30 40 H 6.976172 6.943927 -12.736491 0
M  V30 41 H 8.086055 6.572332 -14.060363 0
M  V30 42 H 6.721587 4.474285 -13.577805 0
M  V30 43 H 6.256263 5.077104 -11.260013 0
M  V30 44 H 7.415851 3.772016 -11.025518 0
M  V30 45 H 8.188831 5.105731 -8.903539 0
M  V30 46 H 9.516375 4.454451 -9.830173 0
M  V30 47 H 10.803670 6.480096 -9.641984 0
M  V30 48 H 8.934326 8.163272 -10.124216 0
M  V30 49 H 8.401971 7.866118 -8.506218 0
M  V30 50 H 9.503961 9.772317 -8.461771 0
M  V30 51 H 10.960713 9.258391 -9.333045 0
M  V30 52 H 11.522645 10.446834 -6.611264 0
M  V30 53 H 12.738708 10.172304 -3.975083 0
M  V30 54 H 12.957184 8.650167 -2.093690 0
M  V30 55 H 11.141537 5.555030 -4.457446 0
M  V30 56 H 9.388032 5.771821 -7.047183 0
M  V30 57 H 11.014627 5.372324 -7.546420 0
M  V30 58 H 7.596302 6.543483 -10.586428 0
M  V30 END ATOM
M  V30 BEGIN BOND
M  V30 1 2 2 1
M  V30 2 1 3 2
M  V30 3 1 4 3
M  V30 4 2 5 4
M  V30 5 1 6 5
M  V30 6 2 7 6
M  V30 7 1 8 7
M  V30 8 1 9 8
M  V30 9 1 10 9
M  V30 10 1 11 10
M  V30 11 1 12 11
M  V30 12 1 13 9
M  V30 13 1 13 12
M  V30 14 1 14 13
M  V30 15 1 15 11
M  V30 16 1 15 14
M  V30 17 1 16 15
M  V30 18 1 17 16
M  V30 19 1 18 17
M  V30 20 1 19 18
M  V30 21 1 20 19
M  V30 22 1 21 20
M  V30 23 1 22 21
M  V30 24 1 23 22
M  V30 25 2 24 23
M  V30 26 1 25 24
M  V30 27 1 26 25
M  V30 28 2 27 25
M  V30 29 2 28 22
M  V30 30 1 28 27
M  V30 31 2 29 20
M  V30 32 1 29 28
M  V30 33 1 30 17
M  V30 34 1 30 29
M  V30 35 1 31 4
M  V30 36 2 31 8
M  V30 37 1 32 2
M  V30 38 1 32 31
M  V30 39 1 33 3
M  V30 40 1 34 5
M  V30 41 1 35 6
M  V30 42 1 36 7
M  V30 43 1 37 10
M  V30 44 1 38 10
M  V30 45 1 11 39 CFG=1
M  V30 46 1 40 12
M  V30 47 1 41 12
M  V30 48 1 13 42 CFG=3
M  V30 49 1 43 14
M  V30 50 1 44 14
M  V30 51 1 45 16
M  V30 52 1 46 16
M  V30 53 1 17 47 CFG=3
M  V30 54 1 48 18
M  V30 55 1 49 18
M  V30 56 1 50 19
M  V30 57 1 51 19
M  V30 58 1 52 21
M  V30 59 1 53 23
M  V30 60 1 54 24
M  V30 61 1 55 27
M  V30 62 1 56 30
M  V30 63 1 57 30
M  V30 64 1 15 58 CFG=1
M  V30 END BOND
M  V30 END CTAB
M  END
>  <b_m_subgroup_collapsed>  (98) 
0

>  <r_i_docking_score>  (98) 
-9.2075448957861603

>  <s_m_subgroup_title>  (98) 
glide-dock_SP_D22_pv

>  <s_m_subgroupid>  (98) 
glide-dock_SP_D22_pv

>  <Molecule ChEMBL ID>  (98) 
CHEMBL1237149

>  <Standard Type>  (98) 
Ki

>  <Standard Value>  (98) 
12.0

>  <label>  (98) 
1

$$$$
CHEMBL575788
     RDKit          3D

  0  0  0  0  0  0  0  0  0  0999 V3000
M  V30 BEGIN CTAB
M  V30 COUNTS 60 65 0 0 1
M  V30 BEGIN ATOM
M  V30 1 O 12.706823 7.830752 -14.449641 0
M  V30 2 C 12.086067 6.887655 -13.962561 0
M  V30 3 C 11.575497 6.976548 -12.525397 0
M  V30 4 C 10.203403 6.308957 -12.246271 0 CFG=2
M  V30 5 C 9.861641 6.134155 -10.738018 0
M  V30 6 N 9.908682 7.340731 -9.864725 0 CFG=2 CHG=1
M  V30 7 C 11.280529 7.718784 -9.423514 0
M  V30 8 C 11.286339 8.972310 -8.545167 0
M  V30 9 C 10.361241 8.852949 -7.325448 0 CFG=2
M  V30 10 C 10.951657 8.031600 -6.205806 0
M  V30 11 N 11.144472 6.720269 -6.332591 0
M  V30 12 O 11.685899 6.244088 -5.111578 0
M  V30 13 C 11.849552 7.296558 -4.235618 0
M  V30 14 C 12.353883 7.344950 -2.930126 0
M  V30 15 C 12.436093 8.606868 -2.312881 0
M  V30 16 F 12.917901 8.705381 -1.053279 0
M  V30 17 C 12.014527 9.766536 -3.007276 0
M  V30 18 C 11.483375 9.689437 -4.314953 0
M  V30 19 C 11.407512 8.424595 -4.931076 0
M  V30 20 C 8.976684 8.361570 -7.766093 0
M  V30 21 C 9.070222 7.111341 -8.662063 0
M  V30 22 C 10.045444 4.926867 -12.939362 0
M  V30 23 C 10.886414 4.688068 -14.184072 0
M  V30 24 N 10.685360 3.510576 -14.809139 0
M  V30 25 C 11.394269 3.248605 -15.914946 0
M  V30 26 C 11.184468 1.935958 -16.577127 0
M  V30 27 C 10.288632 0.983968 -16.030785 0
M  V30 28 C 10.084806 -0.257470 -16.661457 0
M  V30 29 C 10.772083 -0.572618 -17.846945 0
M  V30 30 C 11.671468 0.357823 -18.397072 0
M  V30 31 C 11.876850 1.601946 -17.768047 0
M  V30 32 N 12.283659 4.088287 -16.457544 0
M  V30 33 C 12.503938 5.266586 -15.841909 0
M  V30 34 C 11.828959 5.616926 -14.658190 0
M  V30 35 H 12.361246 6.572446 -11.890949 0
M  V30 36 H 11.507144 8.030431 -12.268988 0
M  V30 37 H 9.448118 6.974226 -12.662846 0
M  V30 38 H 8.848815 5.725995 -10.710594 0
M  V30 39 H 10.484734 5.371542 -10.272985 0
M  V30 40 H 11.686059 6.884437 -8.864003 0
M  V30 41 H 11.964288 7.901622 -10.242040 0
M  V30 42 H 12.302680 9.203447 -8.224154 0
M  V30 43 H 10.958687 9.806484 -9.163449 0
M  V30 44 H 10.224109 9.858551 -6.932656 0
M  V30 45 H 12.678147 6.446654 -2.426613 0
M  V30 46 H 12.085312 10.727642 -2.523116 0
M  V30 47 H 11.156384 10.581248 -4.827904 0
M  V30 48 H 8.340055 8.167869 -6.900891 0
M  V30 49 H 8.483942 9.154004 -8.331876 0
M  V30 50 H 8.085818 6.827266 -8.991411 0
M  V30 51 H 9.427995 6.243108 -8.110793 0
M  V30 52 H 8.996274 4.752287 -13.181193 0
M  V30 53 H 10.323122 4.130475 -12.246521 0
M  V30 54 H 9.746468 1.194640 -15.120210 0
M  V30 55 H 9.398384 -0.970318 -16.230061 0
M  V30 56 H 10.612092 -1.526169 -18.328489 0
M  V30 57 H 12.205313 0.119100 -19.305622 0
M  V30 58 H 12.572472 2.296082 -18.214100 0
M  V30 59 H 13.242833 5.916502 -16.290569 0
M  V30 60 H 9.487119 8.108502 -10.369992 0
M  V30 END ATOM
M  V30 BEGIN BOND
M  V30 1 2 2 1
M  V30 2 1 3 2
M  V30 3 1 4 3
M  V30 4 1 5 4
M  V30 5 1 6 5
M  V30 6 1 7 6
M  V30 7 1 8 7
M  V30 8 1 9 8
M  V30 9 1 10 9
M  V30 10 2 11 10
M  V30 11 1 12 11
M  V30 12 1 13 12
M  V30 13 1 14 13
M  V30 14 2 15 14
M  V30 15 1 16 15
M  V30 16 1 17 15
M  V30 17 2 18 17
M  V30 18 1 19 10
M  V30 19 2 19 13
M  V30 20 1 19 18
M  V30 21 1 20 9
M  V30 22 1 21 6
M  V30 23 1 21 20
M  V30 24 1 22 4
M  V30 25 1 23 22
M  V30 26 1 24 23
M  V30 27 2 25 24
M  V30 28 1 26 25
M  V30 29 2 27 26
M  V30 30 1 28 27
M  V30 31 2 29 28
M  V30 32 1 30 29
M  V30 33 1 31 26
M  V30 34 2 31 30
M  V30 35 1 32 25
M  V30 36 2 33 32
M  V30 37 1 34 2
M  V30 38 2 34 23
M  V30 39 1 34 33
M  V30 40 1 35 3
M  V30 41 1 36 3
M  V30 42 1 4 37 CFG=3
M  V30 43 1 38 5
M  V30 44 1 39 5
M  V30 45 1 40 7
M  V30 46 1 41 7
M  V30 47 1 42 8
M  V30 48 1 43 8
M  V30 49 1 9 44 CFG=1
M  V30 50 1 45 14
M  V30 51 1 46 17
M  V30 52 1 47 18
M  V30 53 1 48 20
M  V30 54 1 49 20
M  V30 55 1 50 21
M  V30 56 1 51 21
M  V30 57 1 52 22
M  V30 58 1 53 22
M  V30 59 1 54 27
M  V30 60 1 55 28
M  V30 61 1 56 29
M  V30 62 1 57 30
M  V30 63 1 58 31
M  V30 64 1 59 33
M  V30 65 1 6 60 CFG=3
M  V30 END BOND
M  V30 END CTAB
M  END
>  <b_m_subgroup_collapsed>  (99) 
0

>  <r_i_docking_score>  (99) 
-9.1984354566346198

>  <s_m_subgroup_title>  (99) 
glide-dock_SP_D22_pv

>  <s_m_subgroupid>  (99) 
glide-dock_SP_D22_pv

>  <Molecule ChEMBL ID>  (99) 
CHEMBL575788

>  <Standard Type>  (99) 
Ki

>  <Standard Value>  (99) 
33.88

>  <label>  (99) 
1

$$$$
CHEMBL4635603
     RDKit          3D

  0  0  0  0  0  0  0  0  0  0999 V3000
M  V30 BEGIN CTAB
M  V30 COUNTS 60 64 0 0 1
M  V30 BEGIN ATOM
M  V30 1 C 10.682738 0.453584 -16.425690 0
M  V30 2 C 10.011184 0.408023 -17.668276 0
M  V30 3 C 8.608747 0.269918 -17.710011 0
M  V30 4 C 7.914908 0.177276 -16.493177 0
M  V30 5 O 6.554727 0.069486 -16.277018 0
M  V30 6 C 6.462811 0.036584 -14.912567 0
M  V30 7 S 4.834991 0.115493 -14.245821 0
M  V30 8 C 5.073994 1.419229 -12.988626 0
M  V30 9 C 5.834702 2.658970 -13.477424 0
M  V30 10 C 6.120659 3.645059 -12.359079 0
M  V30 11 C 7.193542 4.632899 -12.816275 0
M  V30 12 C 7.491198 5.686215 -11.764919 0
M  V30 13 C 8.242586 5.111848 -10.551022 0
M  V30 14 N 8.491310 6.174806 -9.561735 0 CHG=1
M  V30 15 C 8.614444 5.682815 -8.163918 0
M  V30 16 C 8.942982 6.821146 -7.173005 0
M  V30 17 N 10.089145 7.609967 -7.619980 0
M  V30 18 C 10.728994 8.471269 -6.695356 0
M  V30 19 N 10.915489 9.724763 -7.043560 0
M  V30 20 S 11.681787 10.571321 -5.846826 0
M  V30 21 C 11.748196 9.237311 -4.723856 0
M  V30 22 C 12.227687 9.207537 -3.403067 0
M  V30 23 C 12.238110 7.994052 -2.696984 0
M  V30 24 C 11.783993 6.823484 -3.327953 0
M  V30 25 C 11.286598 6.869889 -4.647359 0
M  V30 26 C 11.221916 8.081879 -5.379415 0
M  V30 27 C 9.921700 8.115875 -8.981461 0
M  V30 28 C 9.666963 6.983285 -9.962004 0
M  V30 29 N 7.619080 0.091393 -14.234550 0
M  V30 30 C 8.561279 0.201604 -15.236884 0
M  V30 31 C 9.965533 0.344607 -15.213201 0
M  V30 32 H 11.757010 0.571851 -16.401997 0
M  V30 33 H 10.574557 0.490511 -18.587358 0
M  V30 34 H 8.076698 0.241222 -18.649122 0
M  V30 35 H 4.097810 1.769866 -12.652620 0
M  V30 36 H 5.583051 0.973308 -12.133743 0
M  V30 37 H 6.786993 2.398422 -13.926371 0
M  V30 38 H 5.286074 3.184318 -14.246764 0
M  V30 39 H 5.204907 4.166001 -12.075027 0
M  V30 40 H 6.460235 3.109296 -11.474287 0
M  V30 41 H 8.113507 4.105302 -13.074112 0
M  V30 42 H 6.862700 5.120037 -13.731331 0
M  V30 43 H 8.076753 6.470141 -12.245139 0
M  V30 44 H 6.560756 6.159745 -11.449548 0
M  V30 45 H 7.685849 4.306448 -10.081505 0
M  V30 46 H 9.182764 4.654762 -10.862648 0
M  V30 47 H 7.688800 5.196039 -7.856896 0
M  V30 48 H 9.401578 4.930844 -8.123116 0
M  V30 49 H 8.086832 7.490463 -7.070797 0
M  V30 50 H 9.113545 6.399433 -6.185576 0
M  V30 51 H 12.590512 10.112182 -2.938010 0
M  V30 52 H 12.604398 7.960334 -1.681262 0
M  V30 53 H 11.803051 5.884180 -2.794001 0
M  V30 54 H 10.940177 5.953766 -5.098478 0
M  V30 55 H 9.094222 8.827527 -9.004701 0
M  V30 56 H 10.815269 8.651937 -9.306599 0
M  V30 57 H 10.550014 6.345211 -10.011521 0
M  V30 58 H 9.531820 7.413191 -10.952944 0
M  V30 59 H 10.480731 0.380524 -14.264462 0
M  V30 60 H 7.673069 6.789968 -9.590790 0
M  V30 END ATOM
M  V30 BEGIN BOND
M  V30 1 2 2 1
M  V30 2 1 3 2
M  V30 3 2 4 3
M  V30 4 1 5 4
M  V30 5 1 6 5
M  V30 6 1 7 6
M  V30 7 1 8 7
M  V30 8 1 9 8
M  V30 9 1 10 9
M  V30 10 1 11 10
M  V30 11 1 12 11
M  V30 12 1 13 12
M  V30 13 1 14 13
M  V30 14 1 15 14
M  V30 15 1 16 15
M  V30 16 1 17 16
M  V30 17 1 18 17
M  V30 18 2 19 18
M  V30 19 1 20 19
M  V30 20 1 21 20
M  V30 21 2 22 21
M  V30 22 1 23 22
M  V30 23 2 24 23
M  V30 24 1 25 24
M  V30 25 1 26 18
M  V30 26 1 26 21
M  V30 27 2 26 25
M  V30 28 1 27 17
M  V30 29 1 28 14
M  V30 30 1 28 27
M  V30 31 2 29 6
M  V30 32 1 30 4
M  V30 33 1 30 29
M  V30 34 1 31 1
M  V30 35 2 31 30
M  V30 36 1 32 1
M  V30 37 1 33 2
M  V30 38 1 34 3
M  V30 39 1 35 8
M  V30 40 1 36 8
M  V30 41 1 37 9
M  V30 42 1 38 9
M  V30 43 1 39 10
M  V30 44 1 40 10
M  V30 45 1 41 11
M  V30 46 1 42 11
M  V30 47 1 43 12
M  V30 48 1 44 12
M  V30 49 1 45 13
M  V30 50 1 46 13
M  V30 51 1 47 15
M  V30 52 1 48 15
M  V30 53 1 49 16
M  V30 54 1 50 16
M  V30 55 1 51 22
M  V30 56 1 52 23
M  V30 57 1 53 24
M  V30 58 1 54 25
M  V30 59 1 55 27
M  V30 60 1 56 27
M  V30 61 1 57 28
M  V30 62 1 58 28
M  V30 63 1 59 31
M  V30 64 1 60 14
M  V30 END BOND
M  V30 END CTAB
M  END
>  <b_m_subgroup_collapsed>  (100) 
0

>  <r_i_docking_score>  (100) 
-9.1983688216730108

>  <s_m_subgroup_title>  (100) 
glide-dock_SP_D22_pv

>  <s_m_subgroupid>  (100) 
glide-dock_SP_D22_pv

>  <Molecule ChEMBL ID>  (100) 
CHEMBL4635603

>  <Standard Type>  (100) 
Ki

>  <Standard Value>  (100) 
33.0

>  <label>  (100) 
1

$$$$
CHEMBL106660
     RDKit          3D

  0  0  0  0  0  0  0  0  0  0999 V3000
M  V30 BEGIN CTAB
M  V30 COUNTS 65 69 0 0 1
M  V30 BEGIN ATOM
M  V30 1 Cl 10.281413 5.670925 -18.388680 0
M  V30 2 C 10.855881 5.333248 -16.797274 0
M  V30 3 C 12.229157 5.428674 -16.502234 0
M  V30 4 C 12.686502 5.166612 -15.196231 0
M  V30 5 C 11.771895 4.813346 -14.185459 0
M  V30 6 C 10.392821 4.722499 -14.472766 0
M  V30 7 C 9.394244 4.362982 -13.378235 0 CFG=1
M  V30 8 O 8.718328 5.519962 -12.877000 0
M  V30 9 C 9.414949 6.273085 -11.888630 0 CFG=1
M  V30 10 C 8.792120 7.683571 -11.786738 0
M  V30 11 C 9.249367 8.439212 -10.508111 0 CFG=2
M  V30 12 C 10.787514 8.510699 -10.457243 0
M  V30 13 C 11.193144 7.216672 -9.744433 0
M  V30 14 C 9.849247 6.542039 -9.375065 0 CFG=2
M  V30 15 C 9.380741 5.584386 -10.499925 0
M  V30 16 N 8.890117 7.669351 -9.291654 0 CFG=1 CHG=1
M  V30 17 C 8.941298 8.516907 -8.052263 0
M  V30 18 C 9.328450 7.831940 -6.718206 0
M  V30 19 C 10.852040 7.755833 -6.469294 0
M  V30 20 C 11.286325 7.919809 -5.027908 0
M  V30 21 C 11.457971 9.212732 -4.488534 0
M  V30 22 C 11.944142 9.372714 -3.175745 0
M  V30 23 C 12.253330 8.244078 -2.393427 0
M  V30 24 C 12.086140 6.953317 -2.929401 0
M  V30 25 C 11.614974 6.790997 -4.246806 0
M  V30 26 C 8.409558 3.281906 -13.815613 0
M  V30 27 C 7.024183 3.425336 -13.573106 0
M  V30 28 C 6.141256 2.363471 -13.846973 0
M  V30 29 C 6.628429 1.159735 -14.390987 0
M  V30 30 C 8.004101 1.014109 -14.651863 0
M  V30 31 C 8.891059 2.070271 -14.362379 0
M  V30 32 C 9.944939 4.972369 -15.786863 0
M  V30 33 H 12.929422 5.707061 -17.276165 0
M  V30 34 H 13.739537 5.243663 -14.968977 0
M  V30 35 H 12.137057 4.622508 -13.187102 0
M  V30 36 H 9.952818 3.894551 -12.568242 0
M  V30 37 H 10.447638 6.389167 -12.218487 0
M  V30 38 H 7.706444 7.608535 -11.847032 0
M  V30 39 H 9.079952 8.280005 -12.646794 0
M  V30 40 H 8.789311 9.427923 -10.496867 0
M  V30 41 H 11.238864 8.571820 -11.442963 0
M  V30 42 H 11.129330 9.379232 -9.892854 0
M  V30 43 H 11.807696 6.591031 -10.379657 0
M  V30 44 H 11.813576 7.447924 -8.886104 0
M  V30 45 H 9.908752 5.964352 -8.455030 0
M  V30 46 H 10.010757 4.695100 -10.498226 0
M  V30 47 H 8.366587 5.240151 -10.286893 0
M  V30 48 H 7.964662 8.972557 -7.924448 0
M  V30 49 H 9.601306 9.372212 -8.193401 0
M  V30 50 H 8.839775 6.865860 -6.582979 0
M  V30 51 H 8.913277 8.467808 -5.942388 0
M  V30 52 H 11.363222 8.546453 -7.019729 0
M  V30 53 H 11.249148 6.809735 -6.835178 0
M  V30 54 H 11.232468 10.085842 -5.083449 0
M  V30 55 H 12.080926 10.363514 -2.765967 0
M  V30 56 H 12.617843 8.373642 -1.384992 0
M  V30 57 H 12.322831 6.084138 -2.332594 0
M  V30 58 H 11.502968 5.793036 -4.650100 0
M  V30 59 H 6.630871 4.332305 -13.136774 0
M  V30 60 H 5.089499 2.470644 -13.630469 0
M  V30 61 H 5.950301 0.345176 -14.603342 0
M  V30 62 H 8.380647 0.085511 -15.055785 0
M  V30 63 H 9.949677 1.932608 -14.530271 0
M  V30 64 H 8.891699 4.915788 -16.016190 0
M  V30 65 H 7.923032 7.360542 -9.407156 0
M  V30 END ATOM
M  V30 BEGIN BOND
M  V30 1 1 2 1
M  V30 2 1 3 2
M  V30 3 2 4 3
M  V30 4 1 5 4
M  V30 5 2 6 5
M  V30 6 1 7 6
M  V30 7 1 8 7
M  V30 8 1 9 8
M  V30 9 1 10 9
M  V30 10 1 11 10
M  V30 11 1 12 11
M  V30 12 1 13 12
M  V30 13 1 14 13
M  V30 14 1 15 9
M  V30 15 1 15 14
M  V30 16 1 16 11
M  V30 17 1 16 14
M  V30 18 1 17 16
M  V30 19 1 18 17
M  V30 20 1 19 18
M  V30 21 1 20 19
M  V30 22 2 21 20
M  V30 23 1 22 21
M  V30 24 2 23 22
M  V30 25 1 24 23
M  V30 26 1 25 20
M  V30 27 2 25 24
M  V30 28 1 26 7
M  V30 29 2 27 26
M  V30 30 1 28 27
M  V30 31 2 29 28
M  V30 32 1 30 29
M  V30 33 1 31 26
M  V30 34 2 31 30
M  V30 35 2 32 2
M  V30 36 1 32 6
M  V30 37 1 33 3
M  V30 38 1 34 4
M  V30 39 1 35 5
M  V30 40 1 7 36 CFG=1
M  V30 41 1 9 37 CFG=3
M  V30 42 1 38 10
M  V30 43 1 39 10
M  V30 44 1 11 40 CFG=1
M  V30 45 1 41 12
M  V30 46 1 42 12
M  V30 47 1 43 13
M  V30 48 1 44 13
M  V30 49 1 14 45 CFG=1
M  V30 50 1 46 15
M  V30 51 1 47 15
M  V30 52 1 48 17
M  V30 53 1 49 17
M  V30 54 1 50 18
M  V30 55 1 51 18
M  V30 56 1 52 19
M  V30 57 1 53 19
M  V30 58 1 54 21
M  V30 59 1 55 22
M  V30 60 1 56 23
M  V30 61 1 57 24
M  V30 62 1 58 25
M  V30 63 1 59 27
M  V30 64 1 60 28
M  V30 65 1 61 29
M  V30 66 1 62 30
M  V30 67 1 63 31
M  V30 68 1 64 32
M  V30 69 1 16 65 CFG=3
M  V30 END BOND
M  V30 END CTAB
M  END
>  <b_m_subgroup_collapsed>  (101) 
0

>  <r_i_docking_score>  (101) 
-9.1974857723727403

>  <s_m_subgroup_title>  (101) 
glide-dock_SP_D22_pv

>  <s_m_subgroupid>  (101) 
glide-dock_SP_D22_pv

>  <Molecule ChEMBL ID>  (101) 
CHEMBL106660

>  <Standard Type>  (101) 
Ki

>  <Standard Value>  (101) 
59.0

>  <label>  (101) 
1

$$$$
CHEMBL3104518
     RDKit          3D

  0  0  0  0  0  0  0  0  0  0999 V3000
M  V30 BEGIN CTAB
M  V30 COUNTS 62 66 0 0 1
M  V30 BEGIN ATOM
M  V30 1 O 11.575951 3.469308 -14.246914 0
M  V30 2 C 10.402852 3.697248 -13.956126 0
M  V30 3 C 10.057467 5.006956 -13.239058 0
M  V30 4 C 8.811062 4.895029 -12.339099 0 CFG=1
M  V30 5 C 8.422260 6.242515 -11.714058 0
M  V30 6 N 9.367481 6.700135 -10.664252 0 CFG=2 CHG=1
M  V30 7 C 9.068738 6.126051 -9.327675 0
M  V30 8 C 10.104059 6.542073 -8.267553 0
M  V30 9 C 10.296041 8.072736 -8.191184 0 CFG=1
M  V30 10 C 11.474689 8.492588 -7.285097 0
M  V30 11 O 12.485097 8.962410 -7.808634 0
M  V30 12 C 11.413506 8.363249 -5.808812 0
M  V30 13 C 11.342996 7.100345 -5.179463 0
M  V30 14 C 11.686043 6.970547 -3.820277 0
M  V30 15 C 12.073637 8.099618 -3.077492 0
M  V30 16 F 12.465821 7.961684 -1.794798 0
M  V30 17 C 12.060590 9.371423 -3.671030 0
M  V30 18 C 11.747580 9.500710 -5.038363 0
M  V30 19 C 10.528796 8.618301 -9.623245 0
M  V30 20 C 9.445058 8.178073 -10.605077 0
M  V30 21 C 7.615551 4.364252 -13.142160 0
M  V30 22 C 7.945260 3.110515 -13.919629 0
M  V30 23 C 6.890492 2.241891 -14.246613 0
M  V30 24 C 7.125171 1.020410 -14.906599 0
M  V30 25 C 5.989255 0.138606 -15.224581 0
M  V30 26 C 5.921183 -0.530935 -16.467306 0
M  V30 27 C 4.802277 -1.312461 -16.802872 0
M  V30 28 C 3.732497 -1.427778 -15.898299 0
M  V30 29 C 3.783911 -0.781154 -14.652075 0
M  V30 30 C 4.913589 -0.012693 -14.313509 0
M  V30 31 C 8.452661 0.691653 -15.256297 0
M  V30 32 C 9.516989 1.568553 -14.960660 0
M  V30 33 C 9.272682 2.786466 -14.287255 0
M  V30 34 H 9.901174 5.771097 -14.000106 0
M  V30 35 H 10.918299 5.318351 -12.651259 0
M  V30 36 H 9.020096 4.174190 -11.547587 0
M  V30 37 H 8.345347 6.984308 -12.510237 0
M  V30 38 H 7.422387 6.172353 -11.287080 0
M  V30 39 H 8.085554 6.460630 -9.005423 0
M  V30 40 H 9.022317 5.038052 -9.386971 0
M  V30 41 H 9.743907 6.165115 -7.311447 0
M  V30 42 H 11.060061 6.054680 -8.463227 0
M  V30 43 H 9.389381 8.523677 -7.789150 0
M  V30 44 H 11.163178 6.196083 -5.736685 0
M  V30 45 H 11.698770 5.996799 -3.355367 0
M  V30 46 H 12.351777 10.228514 -3.085487 0
M  V30 47 H 11.837597 10.468676 -5.508129 0
M  V30 48 H 10.578877 9.708466 -9.603551 0
M  V30 49 H 11.490335 8.275868 -10.011880 0
M  V30 50 H 9.678613 8.576517 -11.592883 0
M  V30 51 H 8.486187 8.605921 -10.315394 0
M  V30 52 H 7.271765 5.119478 -13.846553 0
M  V30 53 H 6.782698 4.161100 -12.467469 0
M  V30 54 H 5.880400 2.519544 -13.979945 0
M  V30 55 H 6.726742 -0.432960 -17.179028 0
M  V30 56 H 4.760406 -1.820874 -17.754187 0
M  V30 57 H 2.886060 -2.040669 -16.162254 0
M  V30 58 H 2.956587 -0.874648 -13.962473 0
M  V30 59 H 4.939919 0.483279 -13.354300 0
M  V30 60 H 8.663689 -0.242139 -15.757683 0
M  V30 61 H 10.522082 1.291409 -15.242312 0
M  V30 62 H 10.282772 6.377361 -10.939523 0
M  V30 END ATOM
M  V30 BEGIN BOND
M  V30 1 2 2 1
M  V30 2 1 3 2
M  V30 3 1 4 3
M  V30 4 1 5 4
M  V30 5 1 6 5
M  V30 6 1 7 6
M  V30 7 1 8 7
M  V30 8 1 9 8
M  V30 9 1 10 9
M  V30 10 2 11 10
M  V30 11 1 12 10
M  V30 12 1 13 12
M  V30 13 2 14 13
M  V30 14 1 15 14
M  V30 15 1 16 15
M  V30 16 2 17 15
M  V30 17 2 18 12
M  V30 18 1 18 17
M  V30 19 1 19 9
M  V30 20 1 20 6
M  V30 21 1 20 19
M  V30 22 1 21 4
M  V30 23 1 22 21
M  V30 24 1 23 22
M  V30 25 2 24 23
M  V30 26 1 25 24
M  V30 27 2 26 25
M  V30 28 1 27 26
M  V30 29 2 28 27
M  V30 30 1 29 28
M  V30 31 1 30 25
M  V30 32 2 30 29
M  V30 33 1 31 24
M  V30 34 2 32 31
M  V30 35 1 33 2
M  V30 36 2 33 22
M  V30 37 1 33 32
M  V30 38 1 34 3
M  V30 39 1 35 3
M  V30 40 1 4 36 CFG=1
M  V30 41 1 37 5
M  V30 42 1 38 5
M  V30 43 1 39 7
M  V30 44 1 40 7
M  V30 45 1 41 8
M  V30 46 1 42 8
M  V30 47 1 9 43 CFG=1
M  V30 48 1 44 13
M  V30 49 1 45 14
M  V30 50 1 46 17
M  V30 51 1 47 18
M  V30 52 1 48 19
M  V30 53 1 49 19
M  V30 54 1 50 20
M  V30 55 1 51 20
M  V30 56 1 52 21
M  V30 57 1 53 21
M  V30 58 1 54 23
M  V30 59 1 55 26
M  V30 60 1 56 27
M  V30 61 1 57 28
M  V30 62 1 58 29
M  V30 63 1 59 30
M  V30 64 1 60 31
M  V30 65 1 61 32
M  V30 66 1 6 62 CFG=3
M  V30 END BOND
M  V30 END CTAB
M  END
>  <b_m_subgroup_collapsed>  (102) 
0

>  <r_i_docking_score>  (102) 
-9.1905392866041904

>  <s_m_subgroup_title>  (102) 
glide-dock_SP_D22_pv

>  <s_m_subgroupid>  (102) 
glide-dock_SP_D22_pv

>  <Molecule ChEMBL ID>  (102) 
CHEMBL3104518

>  <Standard Type>  (102) 
Ki

>  <Standard Value>  (102) 
10000.0

>  <label>  (102) 
0

$$$$
CHEMBL497963
     RDKit          3D

  0  0  0  0  0  0  0  0  0  0999 V3000
M  V30 BEGIN CTAB
M  V30 COUNTS 64 67 0 0 1
M  V30 BEGIN ATOM
M  V30 1 C 12.865056 8.661318 -1.234805 0
M  V30 2 C 12.323198 8.274061 -2.593046 0
M  V30 3 C 11.947158 6.951067 -2.883921 0
M  V30 4 C 11.442111 6.668150 -4.168089 0
M  V30 5 C 11.338051 7.701800 -5.119095 0
M  V30 6 C 10.867963 7.446434 -6.434164 0
M  V30 7 O 10.463883 6.172726 -6.761930 0
M  V30 8 C 10.177806 5.848649 -8.120810 0
M  V30 9 C 8.738819 6.248920 -8.502541 0
M  V30 10 N 8.486282 6.280107 -9.965612 0 CFG=2 CHG=1
M  V30 11 C 8.634771 4.971029 -10.643686 0
M  V30 12 C 8.149708 5.066475 -12.097937 0
M  V30 13 C 8.891521 6.166710 -12.890622 0 CFG=2
M  V30 14 C 10.398060 5.919184 -13.158835 0
M  V30 15 C 10.696856 4.927682 -14.270247 0
M  V30 16 C 11.245379 5.385977 -15.488420 0
M  V30 17 C 11.490088 4.484636 -16.540188 0
M  V30 18 C 11.155190 3.126370 -16.392439 0
M  V30 19 C 10.598186 2.662344 -15.182638 0
M  V30 20 N 10.170999 1.341815 -15.044997 0
M  V30 21 S 9.280869 0.422757 -16.213739 0
M  V30 22 C 7.763797 -0.029015 -15.292068 0
M  V30 23 O 8.909571 1.344479 -17.298231 0
M  V30 24 O 10.086275 -0.775684 -16.479668 0
M  V30 25 C 10.424388 3.553233 -14.106433 0
M  V30 26 C 8.704906 7.498240 -12.142836 0
M  V30 27 C 9.173731 7.392043 -10.678092 0
M  V30 28 C 10.852796 8.504168 -7.366374 0
M  V30 29 C 11.285445 9.771622 -6.984081 0
M  V30 30 C 11.715261 10.022511 -5.683232 0
M  V30 31 C 11.761592 9.000245 -4.726767 0
M  V30 32 N 12.225128 9.273804 -3.489140 0
M  V30 33 H 13.244858 7.807658 -0.670177 0
M  V30 34 H 13.684480 9.370474 -1.338639 0
M  V30 35 H 12.079010 9.140945 -0.651110 0
M  V30 36 H 12.028290 6.166850 -2.144195 0
M  V30 37 H 11.130026 5.672259 -4.420318 0
M  V30 38 H 10.285520 4.773004 -8.246502 0
M  V30 39 H 10.929645 6.277707 -8.779613 0
M  V30 40 H 8.491382 7.230257 -8.097323 0
M  V30 41 H 8.035950 5.561054 -8.031692 0
M  V30 42 H 8.070539 4.211474 -10.104336 0
M  V30 43 H 9.675876 4.647904 -10.614259 0
M  V30 44 H 7.084249 5.301858 -12.087499 0
M  V30 45 H 8.212254 4.100448 -12.591280 0
M  V30 46 H 8.393664 6.245343 -13.854378 0
M  V30 47 H 10.894926 5.637166 -12.246987 0
M  V30 48 H 10.887452 6.855355 -13.434965 0
M  V30 49 H 11.473476 6.433630 -15.628555 0
M  V30 50 H 11.910207 4.838689 -17.470343 0
M  V30 51 H 11.313848 2.447791 -17.218069 0
M  V30 52 H 10.038223 1.045519 -14.087811 0
M  V30 53 H 7.122251 -0.625550 -15.941035 0
M  V30 54 H 8.022791 -0.621890 -14.420033 0
M  V30 55 H 7.235363 0.874347 -14.991664 0
M  V30 56 H 10.038816 3.179405 -13.170978 0
M  V30 57 H 9.236696 8.307727 -12.644193 0
M  V30 58 H 7.655764 7.783944 -12.180668 0
M  V30 59 H 8.946185 8.330931 -10.171607 0
M  V30 60 H 10.255464 7.267569 -10.643669 0
M  V30 61 H 10.521388 8.385213 -8.383099 0
M  V30 62 H 11.286012 10.571134 -7.690764 0
M  V30 63 H 12.044360 11.012443 -5.446846 0
M  V30 64 H 7.510119 6.580543 -10.045490 0
M  V30 END ATOM
M  V30 BEGIN BOND
M  V30 1 1 2 1
M  V30 2 1 3 2
M  V30 3 2 4 3
M  V30 4 1 5 4
M  V30 5 2 6 5
M  V30 6 1 7 6
M  V30 7 1 8 7
M  V30 8 1 9 8
M  V30 9 1 10 9
M  V30 10 1 11 10
M  V30 11 1 12 11
M  V30 12 1 13 12
M  V30 13 1 14 13
M  V30 14 1 15 14
M  V30 15 1 16 15
M  V30 16 2 17 16
M  V30 17 1 18 17
M  V30 18 2 19 18
M  V30 19 1 20 19
M  V30 20 1 21 20
M  V30 21 1 22 21
M  V30 22 2 23 21
M  V30 23 2 24 21
M  V30 24 2 25 15
M  V30 25 1 25 19
M  V30 26 1 26 13
M  V30 27 1 27 10
M  V30 28 1 27 26
M  V30 29 1 28 6
M  V30 30 2 29 28
M  V30 31 1 30 29
M  V30 32 1 31 5
M  V30 33 2 31 30
M  V30 34 2 32 2
M  V30 35 1 32 31
M  V30 36 1 33 1
M  V30 37 1 34 1
M  V30 38 1 35 1
M  V30 39 1 36 3
M  V30 40 1 37 4
M  V30 41 1 38 8
M  V30 42 1 39 8
M  V30 43 1 40 9
M  V30 44 1 41 9
M  V30 45 1 42 11
M  V30 46 1 43 11
M  V30 47 1 44 12
M  V30 48 1 45 12
M  V30 49 1 13 46 CFG=3
M  V30 50 1 47 14
M  V30 51 1 48 14
M  V30 52 1 49 16
M  V30 53 1 50 17
M  V30 54 1 51 18
M  V30 55 1 52 20
M  V30 56 1 53 22
M  V30 57 1 54 22
M  V30 58 1 55 22
M  V30 59 1 56 25
M  V30 60 1 57 26
M  V30 61 1 58 26
M  V30 62 1 59 27
M  V30 63 1 60 27
M  V30 64 1 61 28
M  V30 65 1 62 29
M  V30 66 1 63 30
M  V30 67 1 10 64 CFG=1
M  V30 END BOND
M  V30 END CTAB
M  END
>  <b_m_subgroup_collapsed>  (103) 
0

>  <r_i_docking_score>  (103) 
-9.1890108075864401

>  <s_m_subgroup_title>  (103) 
glide-dock_SP_D22_pv

>  <s_m_subgroupid>  (103) 
glide-dock_SP_D22_pv

>  <Molecule ChEMBL ID>  (103) 
CHEMBL497963

>  <Standard Type>  (103) 
Ki

>  <Standard Value>  (103) 
63.1

>  <label>  (103) 
1

$$$$
CHEMBL5845180
     RDKit          3D

  0  0  0  0  0  0  0  0  0  0999 V3000
M  V30 BEGIN CTAB
M  V30 COUNTS 66 70 0 0 1
M  V30 BEGIN ATOM
M  V30 1 C 6.753258 0.777806 -14.596489 0
M  V30 2 N 7.868298 1.619380 -15.015302 0
M  V30 3 C 8.201507 2.861794 -14.613875 0
M  V30 4 S 7.254523 3.772878 -13.446978 0
M  V30 5 C 8.600904 4.250901 -12.324901 0
M  V30 6 C 8.034586 4.855977 -11.035490 0
M  V30 7 C 9.072606 5.062810 -9.921807 0
M  V30 8 N 8.886560 6.345127 -9.197916 0 CFG=2 CHG=1
M  V30 9 C 9.289588 7.523761 -9.993377 0
M  V30 10 C 9.731683 8.593837 -8.990662 0 CFG=2
M  V30 11 C 11.148617 9.133311 -9.217385 0
M  V30 12 C 11.641182 9.371718 -7.801589 0
M  V30 13 N 11.053741 8.302615 -7.017642 0
M  V30 14 C 11.286755 8.273886 -5.631583 0
M  V30 15 C 11.657688 9.440370 -4.916852 0
M  V30 16 C 12.048388 9.368726 -3.568643 0
M  V30 17 C 12.086517 8.129575 -2.912476 0
M  V30 18 F 12.486473 8.066246 -1.622752 0
M  V30 19 C 11.694934 6.964581 -3.597855 0
M  V30 20 C 11.285993 7.037195 -4.946849 0
M  V30 21 C 9.778118 7.918316 -7.615737 0 CFG=2
M  V30 22 C 9.637845 6.421782 -7.924827 0
M  V30 23 N 9.291945 3.348691 -15.207855 0
M  V30 24 N 9.704966 2.362825 -16.075066 0
M  V30 25 C 8.842648 1.352704 -15.914282 0
M  V30 26 C 8.893353 0.068405 -16.704945 0
M  V30 27 C 8.383842 0.227512 -18.152357 0
M  V30 28 C 9.427761 0.852106 -19.095388 0
M  V30 29 C 10.747675 0.066568 -19.060610 0
M  V30 30 C 11.301908 -0.019647 -17.629963 0
M  V30 31 C 10.271941 -0.628197 -16.658566 0
M  V30 32 H 6.160106 0.495190 -15.466694 0
M  V30 33 H 7.134065 -0.122915 -14.113903 0
M  V30 34 H 6.106793 1.300628 -13.890544 0
M  V30 35 H 9.251853 4.965898 -12.830489 0
M  V30 36 H 9.209819 3.372288 -12.104251 0
M  V30 37 H 7.273421 4.178255 -10.650794 0
M  V30 38 H 7.511839 5.782969 -11.279580 0
M  V30 39 H 10.085353 5.016288 -10.323574 0
M  V30 40 H 8.994742 4.236881 -9.214204 0
M  V30 41 H 8.486533 7.879124 -10.636338 0
M  V30 42 H 10.115735 7.266647 -10.658214 0
M  V30 43 H 9.009264 9.408467 -8.956907 0
M  V30 44 H 11.183276 10.028947 -9.837864 0
M  V30 45 H 11.787490 8.380733 -9.682975 0
M  V30 46 H 11.286698 10.334710 -7.445703 0
M  V30 47 H 12.728226 9.347193 -7.738086 0
M  V30 48 H 11.674481 10.410017 -5.388350 0
M  V30 49 H 12.335882 10.261871 -3.034440 0
M  V30 50 H 11.716456 6.008983 -3.093114 0
M  V30 51 H 11.021362 6.130807 -5.467083 0
M  V30 52 H 8.942235 8.257349 -7.001720 0
M  V30 53 H 9.127425 5.880499 -7.127220 0
M  V30 54 H 10.624201 5.973696 -8.059179 0
M  V30 55 H 8.208267 -0.627591 -16.219641 0
M  V30 56 H 8.130388 -0.761447 -18.538065 0
M  V30 57 H 7.456004 0.801175 -18.165394 0
M  V30 58 H 9.038913 0.869297 -20.114014 0
M  V30 59 H 9.609383 1.891182 -18.818371 0
M  V30 60 H 10.587486 -0.938615 -19.455635 0
M  V30 61 H 11.479424 0.540355 -19.715004 0
M  V30 62 H 12.212154 -0.620538 -17.629551 0
M  V30 63 H 11.602484 0.970455 -17.291969 0
M  V30 64 H 10.656631 -0.627471 -15.637240 0
M  V30 65 H 10.137525 -1.676499 -16.934399 0
M  V30 66 H 7.903626 6.477317 -8.982875 0
M  V30 END ATOM
M  V30 BEGIN BOND
M  V30 1 1 2 1
M  V30 2 1 3 2
M  V30 3 1 4 3
M  V30 4 1 5 4
M  V30 5 1 6 5
M  V30 6 1 7 6
M  V30 7 1 8 7
M  V30 8 1 9 8
M  V30 9 1 10 9
M  V30 10 1 11 10
M  V30 11 1 12 11
M  V30 12 1 13 12
M  V30 13 1 14 13
M  V30 14 1 15 14
M  V30 15 2 16 15
M  V30 16 1 17 16
M  V30 17 1 18 17
M  V30 18 2 19 17
M  V30 19 2 20 14
M  V30 20 1 20 19
M  V30 21 1 21 10
M  V30 22 1 21 13
M  V30 23 1 22 8
M  V30 24 1 22 21
M  V30 25 2 23 3
M  V30 26 1 24 23
M  V30 27 1 25 2
M  V30 28 2 25 24
M  V30 29 1 26 25
M  V30 30 1 27 26
M  V30 31 1 28 27
M  V30 32 1 29 28
M  V30 33 1 30 29
M  V30 34 1 31 26
M  V30 35 1 31 30
M  V30 36 1 32 1
M  V30 37 1 33 1
M  V30 38 1 34 1
M  V30 39 1 35 5
M  V30 40 1 36 5
M  V30 41 1 37 6
M  V30 42 1 38 6
M  V30 43 1 39 7
M  V30 44 1 40 7
M  V30 45 1 41 9
M  V30 46 1 42 9
M  V30 47 1 10 43 CFG=1
M  V30 48 1 44 11
M  V30 49 1 45 11
M  V30 50 1 46 12
M  V30 51 1 47 12
M  V30 52 1 48 15
M  V30 53 1 49 16
M  V30 54 1 50 19
M  V30 55 1 51 20
M  V30 56 1 21 52 CFG=1
M  V30 57 1 53 22
M  V30 58 1 54 22
M  V30 59 1 55 26
M  V30 60 1 56 27
M  V30 61 1 57 27
M  V30 62 1 58 28
M  V30 63 1 59 28
M  V30 64 1 60 29
M  V30 65 1 61 29
M  V30 66 1 62 30
M  V30 67 1 63 30
M  V30 68 1 64 31
M  V30 69 1 65 31
M  V30 70 1 8 66 CFG=1
M  V30 END BOND
M  V30 END CTAB
M  END
>  <b_m_subgroup_collapsed>  (104) 
0

>  <r_i_docking_score>  (104) 
-9.1822584339770401

>  <s_m_subgroup_title>  (104) 
glide-dock_SP_D22_pv

>  <s_m_subgroupid>  (104) 
glide-dock_SP_D22_pv

>  <Molecule ChEMBL ID>  (104) 
CHEMBL5845180

>  <Standard Type>  (104) 
Ki

>  <Standard Value>  (104) 
43.7

>  <label>  (104) 
1

$$$$
CHEMBL309106
     RDKit          3D

  0  0  0  0  0  0  0  0  0  0999 V3000
M  V30 BEGIN CTAB
M  V30 COUNTS 83 87 0 0 1
M  V30 BEGIN ATOM
M  V30 1 C 8.623106 0.235911 -14.464253 0
M  V30 2 C 8.371877 1.502277 -15.300627 0
M  V30 3 C 6.886371 1.886564 -15.423029 0
M  V30 4 O 9.092984 1.515260 -16.537271 0
M  V30 5 C 9.007028 0.505713 -17.479599 0
M  V30 6 C 7.873431 -0.331714 -17.620716 0
M  V30 7 C 7.800178 -1.290699 -18.647167 0
M  V30 8 C 8.860957 -1.427723 -19.554466 0
M  V30 9 C 9.999975 -0.615576 -19.422152 0
M  V30 10 C 10.088120 0.349611 -18.393587 0
M  V30 11 N 11.261190 1.128847 -18.309067 0
M  V30 12 C 11.895885 1.431046 -17.036678 0
M  V30 13 C 12.022055 2.953136 -16.880449 0
M  V30 14 N 12.767680 3.531703 -18.036127 0 CHG=1
M  V30 15 C 13.035122 4.988060 -17.908279 0
M  V30 16 C 14.100857 5.297390 -16.826960 0 CFG=1
M  V30 17 O 15.365707 5.201970 -17.452665 0
M  V30 18 C 14.000584 6.678915 -16.147541 0
M  V30 19 N 13.285866 6.662251 -14.869751 0
M  V30 20 C 11.971529 6.460797 -14.713491 0
M  V30 21 O 11.247164 6.170068 -15.658709 0
M  V30 22 C 11.391430 6.543252 -13.322749 0
M  V30 23 C 10.174023 5.846243 -13.046757 0
M  V30 24 C 9.525614 5.941514 -11.792624 0
M  V30 25 C 10.151185 6.724664 -10.812396 0
M  V30 26 C 11.339289 7.372350 -11.052696 0
M  V30 27 C 11.984254 7.344198 -12.305358 0
M  V30 28 C 11.846642 7.834865 -9.739963 0
M  V30 29 O 13.006201 8.172390 -9.521893 0
M  V30 30 N 10.882581 7.560699 -8.824977 0
M  V30 31 C 11.048183 7.815684 -7.431781 0
M  V30 32 C 11.285369 9.118293 -6.940582 0
M  V30 33 C 11.535039 9.329259 -5.566459 0
M  V30 34 C 11.552181 8.246892 -4.649335 0
M  V30 35 N 11.808848 8.434452 -3.271854 0
M  V30 36 C 12.096878 7.287953 -2.416044 0
M  V30 37 C 11.964852 9.772018 -2.727227 0
M  V30 38 C 11.285376 6.953624 -5.154689 0
M  V30 39 C 11.034726 6.743398 -6.521779 0
M  V30 40 C 9.849486 6.856585 -9.363220 0
M  V30 41 O 8.885980 6.354663 -8.789302 0
M  V30 42 C 12.114071 3.199795 -19.332788 0
M  V30 43 C 11.883701 1.685605 -19.503498 0
M  V30 44 H 8.232303 0.350690 -13.452271 0
M  V30 45 H 8.131634 -0.627279 -14.902074 0
M  V30 46 H 9.689748 0.019960 -14.387128 0
M  V30 47 H 8.836005 2.319447 -14.746203 0
M  V30 48 H 6.544940 2.378875 -14.512515 0
M  V30 49 H 6.724538 2.572149 -16.253735 0
M  V30 50 H 6.233590 1.027601 -15.563361 0
M  V30 51 H 7.030578 -0.269770 -16.958466 0
M  V30 52 H 6.926753 -1.920331 -18.736540 0
M  V30 53 H 8.807779 -2.165981 -20.342306 0
M  V30 54 H 10.814208 -0.754737 -20.116383 0
M  V30 55 H 12.885786 0.979192 -17.046980 0
M  V30 56 H 11.374274 0.983718 -16.191664 0
M  V30 57 H 12.509004 3.157937 -15.930374 0
M  V30 58 H 11.032736 3.409218 -16.819963 0
M  V30 59 H 12.092388 5.497696 -17.736376 0
M  V30 60 H 13.378434 5.385708 -18.865507 0
M  V30 61 H 14.086118 4.560387 -16.032835 0
M  V30 62 H 15.482346 5.947649 -18.023758 0
M  V30 63 H 15.012384 6.972318 -15.877569 0
M  V30 64 H 13.606146 7.444245 -16.817467 0
M  V30 65 H 13.851866 6.776081 -14.036505 0
M  V30 66 H 9.713752 5.240988 -13.812810 0
M  V30 67 H 8.612555 5.402696 -11.580093 0
M  V30 68 H 12.925811 7.853152 -12.452178 0
M  V30 69 H 11.286954 9.958798 -7.617513 0
M  V30 70 H 11.722275 10.339199 -5.240042 0
M  V30 71 H 12.845727 6.639059 -2.871176 0
M  V30 72 H 12.488366 7.612587 -1.452164 0
M  V30 73 H 11.193984 6.704367 -2.233116 0
M  V30 74 H 11.165101 10.435591 -3.056811 0
M  V30 75 H 11.967861 9.764042 -1.636524 0
M  V30 76 H 12.916281 10.173491 -3.053470 0
M  V30 77 H 11.260715 6.091218 -4.507152 0
M  V30 78 H 10.847907 5.746342 -6.879634 0
M  V30 79 H 11.154129 3.716533 -19.384949 0
M  V30 80 H 12.716680 3.568837 -20.164726 0
M  V30 81 H 12.831983 1.174710 -19.670645 0
M  V30 82 H 11.270431 1.512096 -20.388741 0
M  V30 83 H 13.671961 3.083314 -18.046772 0
M  V30 END ATOM
M  V30 BEGIN BOND
M  V30 1 1 2 1
M  V30 2 1 3 2
M  V30 3 1 4 2
M  V30 4 1 5 4
M  V30 5 2 6 5
M  V30 6 1 7 6
M  V30 7 2 8 7
M  V30 8 1 9 8
M  V30 9 1 10 5
M  V30 10 2 10 9
M  V30 11 1 11 10
M  V30 12 1 12 11
M  V30 13 1 13 12
M  V30 14 1 14 13
M  V30 15 1 15 14
M  V30 16 1 16 15
M  V30 17 1 17 16
M  V30 18 1 18 16
M  V30 19 1 19 18
M  V30 20 1 20 19
M  V30 21 2 21 20
M  V30 22 1 22 20
M  V30 23 1 23 22
M  V30 24 2 24 23
M  V30 25 1 25 24
M  V30 26 2 26 25
M  V30 27 2 27 22
M  V30 28 1 27 26
M  V30 29 1 28 26
M  V30 30 2 29 28
M  V30 31 1 30 28
M  V30 32 1 31 30
M  V30 33 1 32 31
M  V30 34 2 33 32
M  V30 35 1 34 33
M  V30 36 1 35 34
M  V30 37 1 36 35
M  V30 38 1 37 35
M  V30 39 2 38 34
M  V30 40 2 39 31
M  V30 41 1 39 38
M  V30 42 1 40 25
M  V30 43 1 40 30
M  V30 44 2 41 40
M  V30 45 1 42 14
M  V30 46 1 43 11
M  V30 47 1 43 42
M  V30 48 1 44 1
M  V30 49 1 45 1
M  V30 50 1 46 1
M  V30 51 1 47 2
M  V30 52 1 48 3
M  V30 53 1 49 3
M  V30 54 1 50 3
M  V30 55 1 51 6
M  V30 56 1 52 7
M  V30 57 1 53 8
M  V30 58 1 54 9
M  V30 59 1 55 12
M  V30 60 1 56 12
M  V30 61 1 57 13
M  V30 62 1 58 13
M  V30 63 1 59 15
M  V30 64 1 60 15
M  V30 65 1 16 61 CFG=1
M  V30 66 1 62 17
M  V30 67 1 63 18
M  V30 68 1 64 18
M  V30 69 1 65 19
M  V30 70 1 66 23
M  V30 71 1 67 24
M  V30 72 1 68 27
M  V30 73 1 69 32
M  V30 74 1 70 33
M  V30 75 1 71 36
M  V30 76 1 72 36
M  V30 77 1 73 36
M  V30 78 1 74 37
M  V30 79 1 75 37
M  V30 80 1 76 37
M  V30 81 1 77 38
M  V30 82 1 78 39
M  V30 83 1 79 42
M  V30 84 1 80 42
M  V30 85 1 81 43
M  V30 86 1 82 43
M  V30 87 1 83 14
M  V30 END BOND
M  V30 END CTAB
M  END
>  <b_m_subgroup_collapsed>  (105) 
0

>  <r_i_docking_score>  (105) 
-9.1817184802722593

>  <s_m_subgroup_title>  (105) 
glide-dock_SP_D22_pv

>  <s_m_subgroupid>  (105) 
glide-dock_SP_D22_pv

>  <Molecule ChEMBL ID>  (105) 
CHEMBL309106

>  <Standard Type>  (105) 
Ki

>  <Standard Value>  (105) 
23.0

>  <label>  (105) 
1

$$$$
CHEMBL201748
     RDKit          3D

  0  0  0  0  0  0  0  0  0  0999 V3000
M  V30 BEGIN CTAB
M  V30 COUNTS 43 47 0 0 1
M  V30 BEGIN ATOM
M  V30 1 C 12.258117 8.167966 -3.094784 0
M  V30 2 C 12.004287 6.970860 -3.785824 0
M  V30 3 C 11.370410 6.998383 -5.043885 0
M  V30 4 C 10.976635 8.226474 -5.621774 0
M  V30 5 C 10.220007 8.267046 -6.946961 0 CFG=1
M  V30 6 C 11.036932 8.040975 -8.220653 0
M  V30 7 C 9.909989 7.838083 -9.243320 0 CFG=1
M  V30 8 C 10.280704 7.252836 -10.571754 0
M  V30 9 N 11.251073 7.734376 -11.431368 0
M  V30 10 C 11.284998 6.972283 -12.589437 0
M  V30 11 C 12.087557 7.035758 -13.742209 0
M  V30 12 C 11.907759 6.086053 -14.764752 0
M  V30 13 C 10.924030 5.086902 -14.630056 0
M  V30 14 C 10.118356 5.031785 -13.474557 0
M  V30 15 C 10.278949 5.970694 -12.428924 0
M  V30 16 C 9.686085 6.160995 -11.136128 0
M  V30 17 C 8.648158 5.379354 -10.404198 0
M  V30 18 C 8.861974 5.575223 -8.889774 0
M  V30 19 N 8.886092 7.023455 -8.527856 0 CFG=1 CHG=1
M  V30 20 C 9.060697 7.262723 -7.076030 0
M  V30 21 C 11.263073 9.427507 -4.934232 0
M  V30 22 C 11.891809 9.395285 -3.672651 0
M  V30 23 H 12.735179 8.146789 -2.125886 0
M  V30 24 H 12.287984 6.025659 -3.346809 0
M  V30 25 H 11.190275 6.064157 -5.552188 0
M  V30 26 H 9.779505 9.262934 -7.028596 0
M  V30 27 H 11.697697 8.874218 -8.465053 0
M  V30 28 H 11.640524 7.136180 -8.131449 0
M  V30 29 H 9.446614 8.809519 -9.427844 0
M  V30 30 H 11.841455 8.527316 -11.220790 0
M  V30 31 H 12.849212 7.795204 -13.838614 0
M  V30 32 H 12.526235 6.121922 -15.649962 0
M  V30 33 H 10.790483 4.357020 -15.415612 0
M  V30 34 H 9.376935 4.252753 -13.376573 0
M  V30 35 H 7.651579 5.721877 -10.687066 0
M  V30 36 H 8.703975 4.322144 -10.662774 0
M  V30 37 H 8.074636 5.068149 -8.332650 0
M  V30 38 H 9.804746 5.113883 -8.590405 0
M  V30 39 H 9.267610 6.320731 -6.569846 0
M  V30 40 H 8.139562 7.659237 -6.646208 0
M  V30 41 H 10.977147 10.380029 -5.356106 0
M  V30 42 H 12.084917 10.312516 -3.135100 0
M  V30 43 H 7.969083 7.373769 -8.797757 0
M  V30 END ATOM
M  V30 BEGIN BOND
M  V30 1 2 2 1
M  V30 2 1 3 2
M  V30 3 2 4 3
M  V30 4 1 5 4
M  V30 5 1 6 5
M  V30 6 1 7 6
M  V30 7 1 8 7
M  V30 8 1 9 8
M  V30 9 1 10 9
M  V30 10 2 11 10
M  V30 11 1 12 11
M  V30 12 2 13 12
M  V30 13 1 14 13
M  V30 14 1 15 10
M  V30 15 2 15 14
M  V30 16 2 16 8
M  V30 17 1 16 15
M  V30 18 1 17 16
M  V30 19 1 18 17
M  V30 20 1 19 7
M  V30 21 1 19 18
M  V30 22 1 20 5
M  V30 23 1 20 19
M  V30 24 1 21 4
M  V30 25 1 22 1
M  V30 26 2 22 21
M  V30 27 1 23 1
M  V30 28 1 24 2
M  V30 29 1 25 3
M  V30 30 1 5 26 CFG=3
M  V30 31 1 27 6
M  V30 32 1 28 6
M  V30 33 1 7 29 CFG=3
M  V30 34 1 30 9
M  V30 35 1 31 11
M  V30 36 1 32 12
M  V30 37 1 33 13
M  V30 38 1 34 14
M  V30 39 1 35 17
M  V30 40 1 36 17
M  V30 41 1 37 18
M  V30 42 1 38 18
M  V30 43 1 39 20
M  V30 44 1 40 20
M  V30 45 1 41 21
M  V30 46 1 42 22
M  V30 47 1 19 43 CFG=3
M  V30 END BOND
M  V30 END CTAB
M  END
>  <b_m_subgroup_collapsed>  (106) 
0

>  <r_i_docking_score>  (106) 
-9.1787317704462907

>  <s_m_subgroup_title>  (106) 
glide-dock_SP_D22_pv

>  <s_m_subgroupid>  (106) 
glide-dock_SP_D22_pv

>  <Molecule ChEMBL ID>  (106) 
CHEMBL201748

>  <Standard Type>  (106) 
Ki

>  <Standard Value>  (106) 
10000.0

>  <label>  (106) 
0

$$$$
CHEMBL1237149
     RDKit          3D

  0  0  0  0  0  0  0  0  0  0999 V3000
M  V30 BEGIN CTAB
M  V30 COUNTS 58 64 0 0 1
M  V30 BEGIN ATOM
M  V30 1 O 4.975797 0.172760 -13.889190 0
M  V30 2 C 6.086664 0.566503 -14.239770 0
M  V30 3 N 7.006343 -0.072440 -15.059173 0
M  V30 4 C 8.181622 0.661963 -15.092903 0
M  V30 5 C 9.418605 0.364819 -15.681413 0
M  V30 6 C 10.469295 1.275566 -15.442951 0
M  V30 7 C 10.269424 2.413972 -14.621562 0
M  V30 8 C 9.004890 2.697259 -14.033232 0
M  V30 9 N 8.828479 3.770813 -13.132129 0
M  V30 10 C 9.903646 4.659262 -12.712725 0
M  V30 11 C 9.144329 5.947515 -12.318192 0 CFG=1
M  V30 12 C 8.086087 5.932401 -13.406305 0
M  V30 13 C 7.602667 4.549224 -13.024961 0 CFG=2
M  V30 14 C 7.286072 4.778471 -11.536390 0
M  V30 15 N 8.308845 5.766513 -11.094658 0 CFG=1 CHG=1
M  V30 16 C 9.014190 5.459577 -9.818754 0
M  V30 17 C 9.399713 6.718285 -8.999504 0 CFG=2
M  V30 18 C 10.314206 7.719441 -9.755830 0
M  V30 19 C 10.659516 8.972248 -8.935564 0
M  V30 20 C 10.961117 8.634689 -7.521927 0
M  V30 21 N 11.575132 9.483005 -6.617849 0
M  V30 22 C 11.759728 8.837460 -5.412151 0
M  V30 23 C 12.399333 9.219477 -4.220191 0
M  V30 24 C 12.482882 8.321899 -3.146127 0
M  V30 25 C 11.930777 7.039918 -3.275869 0
M  V30 26 F 12.029082 6.172386 -2.246952 0
M  V30 27 C 11.289823 6.661460 -4.474264 0
M  V30 28 C 11.196668 7.537729 -5.577695 0
M  V30 29 C 10.677948 7.445583 -6.916169 0
M  V30 30 C 10.004694 6.306873 -7.628048 0
M  V30 31 C 7.958223 1.788250 -14.324736 0
M  V30 32 O 6.674537 1.739081 -13.846886 0
M  V30 33 H 6.867657 -1.001043 -15.438801 0
M  V30 34 H 9.565245 -0.530195 -16.269573 0
M  V30 35 H 11.447417 1.081546 -15.860553 0
M  V30 36 H 11.124767 3.043467 -14.434586 0
M  V30 37 H 10.485241 4.214812 -11.909131 0
M  V30 38 H 10.579914 4.880864 -13.538859 0
M  V30 39 H 9.772096 6.833230 -12.338140 0
M  V30 40 H 7.338037 6.717207 -13.281568 0
M  V30 41 H 8.487929 5.966868 -14.419020 0
M  V30 42 H 6.763845 4.193193 -13.622377 0
M  V30 43 H 6.297290 5.226495 -11.444303 0
M  V30 44 H 7.291489 3.846895 -10.969381 0
M  V30 45 H 8.337199 4.870835 -9.197259 0
M  V30 46 H 9.884778 4.827119 -9.981483 0
M  V30 47 H 8.486306 7.264947 -8.776135 0
M  V30 48 H 11.235975 7.209344 -10.039428 0
M  V30 49 H 9.840909 8.074681 -10.666174 0
M  V30 50 H 9.806433 9.650090 -8.961102 0
M  V30 51 H 11.496053 9.501973 -9.392849 0
M  V30 52 H 11.886561 10.415563 -6.845566 0
M  V30 53 H 12.873113 10.172317 -4.128657 0
M  V30 54 H 12.980407 8.610782 -2.232393 0
M  V30 55 H 10.885197 5.674360 -4.564417 0
M  V30 56 H 9.224465 5.875613 -6.999341 0
M  V30 57 H 10.739058 5.515580 -7.784162 0
M  V30 58 H 7.786631 6.625525 -10.926069 0
M  V30 END ATOM
M  V30 BEGIN BOND
M  V30 1 2 2 1
M  V30 2 1 3 2
M  V30 3 1 4 3
M  V30 4 2 5 4
M  V30 5 1 6 5
M  V30 6 2 7 6
M  V30 7 1 8 7
M  V30 8 1 9 8
M  V30 9 1 10 9
M  V30 10 1 11 10
M  V30 11 1 12 11
M  V30 12 1 13 9
M  V30 13 1 13 12
M  V30 14 1 14 13
M  V30 15 1 15 11
M  V30 16 1 15 14
M  V30 17 1 16 15
M  V30 18 1 17 16
M  V30 19 1 18 17
M  V30 20 1 19 18
M  V30 21 1 20 19
M  V30 22 1 21 20
M  V30 23 1 22 21
M  V30 24 1 23 22
M  V30 25 2 24 23
M  V30 26 1 25 24
M  V30 27 1 26 25
M  V30 28 2 27 25
M  V30 29 2 28 22
M  V30 30 1 28 27
M  V30 31 2 29 20
M  V30 32 1 29 28
M  V30 33 1 30 17
M  V30 34 1 30 29
M  V30 35 1 31 4
M  V30 36 2 31 8
M  V30 37 1 32 2
M  V30 38 1 32 31
M  V30 39 1 33 3
M  V30 40 1 34 5
M  V30 41 1 35 6
M  V30 42 1 36 7
M  V30 43 1 37 10
M  V30 44 1 38 10
M  V30 45 1 11 39 CFG=1
M  V30 46 1 40 12
M  V30 47 1 41 12
M  V30 48 1 13 42 CFG=3
M  V30 49 1 43 14
M  V30 50 1 44 14
M  V30 51 1 45 16
M  V30 52 1 46 16
M  V30 53 1 17 47 CFG=1
M  V30 54 1 48 18
M  V30 55 1 49 18
M  V30 56 1 50 19
M  V30 57 1 51 19
M  V30 58 1 52 21
M  V30 59 1 53 23
M  V30 60 1 54 24
M  V30 61 1 55 27
M  V30 62 1 56 30
M  V30 63 1 57 30
M  V30 64 1 15 58 CFG=1
M  V30 END BOND
M  V30 END CTAB
M  END
>  <b_m_subgroup_collapsed>  (107) 
0

>  <r_i_docking_score>  (107) 
-9.1735993944203909

>  <s_m_subgroup_title>  (107) 
glide-dock_SP_D22_pv

>  <s_m_subgroupid>  (107) 
glide-dock_SP_D22_pv

>  <Molecule ChEMBL ID>  (107) 
CHEMBL1237149

>  <Standard Type>  (107) 
Ki

>  <Standard Value>  (107) 
12.0

>  <label>  (107) 
1

$$$$
CHEMBL5796612
     RDKit          3D

  0  0  0  0  0  0  0  0  0  0999 V3000
M  V30 BEGIN CTAB
M  V30 COUNTS 53 57 0 0 1
M  V30 BEGIN ATOM
M  V30 1 O 5.370749 4.135478 -12.147073 0
M  V30 2 C 6.385780 3.873303 -12.791586 0
M  V30 3 C 6.483817 2.579426 -13.561664 0
M  V30 4 N 5.450266 1.710703 -13.446757 0
M  V30 5 C 5.532700 0.517157 -14.070359 0
M  V30 6 C 6.645328 0.123309 -14.833721 0
M  V30 7 C 7.732965 1.007415 -14.937472 0
M  V30 8 C 7.658581 2.252707 -14.281983 0
M  V30 9 C 8.857890 3.177543 -14.272482 0
M  V30 10 C 8.505844 4.605397 -13.826625 0
M  V30 11 N 7.488955 4.656929 -12.770415 0
M  V30 12 C 7.687129 5.704317 -11.764171 0
M  V30 13 C 8.346742 5.122210 -10.495946 0
M  V30 14 N 8.660069 6.174867 -9.496408 0 CFG=2 CHG=1
M  V30 15 C 9.972352 6.822451 -9.790009 0
M  V30 16 C 10.359009 7.897180 -8.762359 0
M  V30 17 C 10.335506 7.330914 -7.329436 0 CFG=1
M  V30 18 C 10.775855 8.329184 -6.284854 0
M  V30 19 N 10.582352 9.634977 -6.456084 0
M  V30 20 O 11.055390 10.302795 -5.294480 0
M  V30 21 C 11.522862 9.371014 -4.386161 0
M  V30 22 C 12.052858 9.508410 -3.095451 0
M  V30 23 C 12.400954 8.333523 -2.399504 0
M  V30 24 F 12.897301 8.419186 -1.143251 0
M  V30 25 C 12.220271 7.065621 -3.003602 0
M  V30 26 F 12.567587 5.948894 -2.322971 0
M  V30 27 C 11.685921 6.955258 -4.307946 0
M  V30 28 C 11.337455 8.132981 -5.005168 0
M  V30 29 C 8.930223 6.781110 -7.058974 0
M  V30 30 C 8.567040 5.694503 -8.090197 0
M  V30 31 H 4.683815 -0.140540 -13.961367 0
M  V30 32 H 6.669366 -0.843822 -15.314273 0
M  V30 33 H 8.617833 0.720225 -15.489554 0
M  V30 34 H 9.589289 2.752347 -13.583575 0
M  V30 35 H 9.329483 3.196307 -15.256707 0
M  V30 36 H 9.420643 5.126505 -13.540569 0
M  V30 37 H 8.088410 5.163351 -14.661237 0
M  V30 38 H 8.287869 6.512622 -12.182966 0
M  V30 39 H 6.733304 6.170613 -11.511289 0
M  V30 40 H 7.685986 4.374774 -10.060044 0
M  V30 41 H 9.256375 4.577713 -10.756887 0
M  V30 42 H 10.753786 6.063870 -9.808095 0
M  V30 43 H 9.948302 7.269251 -10.784550 0
M  V30 44 H 11.349521 8.286564 -8.999323 0
M  V30 45 H 9.666745 8.737579 -8.847432 0
M  V30 46 H 11.032934 6.492333 -7.293383 0
M  V30 47 H 12.162271 10.483603 -2.645372 0
M  V30 48 H 11.544267 5.983832 -4.758267 0
M  V30 49 H 8.886164 6.354003 -6.055264 0
M  V30 50 H 8.195864 7.588531 -7.079410 0
M  V30 51 H 7.551690 5.371372 -7.878000 0
M  V30 52 H 9.214719 4.826550 -7.962749 0
M  V30 53 H 7.924729 6.877180 -9.599311 0
M  V30 END ATOM
M  V30 BEGIN BOND
M  V30 1 2 2 1
M  V30 2 1 3 2
M  V30 3 2 4 3
M  V30 4 1 5 4
M  V30 5 2 6 5
M  V30 6 1 7 6
M  V30 7 1 8 3
M  V30 8 2 8 7
M  V30 9 1 9 8
M  V30 10 1 10 9
M  V30 11 1 11 2
M  V30 12 1 11 10
M  V30 13 1 12 11
M  V30 14 1 13 12
M  V30 15 1 14 13
M  V30 16 1 15 14
M  V30 17 1 16 15
M  V30 18 1 17 16
M  V30 19 1 18 17
M  V30 20 2 19 18
M  V30 21 1 20 19
M  V30 22 1 21 20
M  V30 23 1 22 21
M  V30 24 2 23 22
M  V30 25 1 24 23
M  V30 26 1 25 23
M  V30 27 1 26 25
M  V30 28 2 27 25
M  V30 29 1 28 18
M  V30 30 2 28 21
M  V30 31 1 28 27
M  V30 32 1 29 17
M  V30 33 1 30 14
M  V30 34 1 30 29
M  V30 35 1 31 5
M  V30 36 1 32 6
M  V30 37 1 33 7
M  V30 38 1 34 9
M  V30 39 1 35 9
M  V30 40 1 36 10
M  V30 41 1 37 10
M  V30 42 1 38 12
M  V30 43 1 39 12
M  V30 44 1 40 13
M  V30 45 1 41 13
M  V30 46 1 42 15
M  V30 47 1 43 15
M  V30 48 1 44 16
M  V30 49 1 45 16
M  V30 50 1 17 46 CFG=3
M  V30 51 1 47 22
M  V30 52 1 48 27
M  V30 53 1 49 29
M  V30 54 1 50 29
M  V30 55 1 51 30
M  V30 56 1 52 30
M  V30 57 1 14 53 CFG=1
M  V30 END BOND
M  V30 END CTAB
M  END
>  <b_m_subgroup_collapsed>  (108) 
0

>  <r_i_docking_score>  (108) 
-9.1722825817142493

>  <s_m_subgroup_title>  (108) 
glide-dock_SP_D22_pv

>  <s_m_subgroupid>  (108) 
glide-dock_SP_D22_pv

>  <Molecule ChEMBL ID>  (108) 
CHEMBL5796612

>  <Standard Type>  (108) 
Ki

>  <Standard Value>  (108) 
10000.0

>  <label>  (108) 
0

$$$$
CHEMBL5417857
     RDKit          3D

  0  0  0  0  0  0  0  0  0  0999 V3000
M  V30 BEGIN CTAB
M  V30 COUNTS 54 57 0 0 1
M  V30 BEGIN ATOM
M  V30 1 C 3.752699 -0.827234 -14.247013 0
M  V30 2 O 4.480258 0.194354 -13.572649 0
M  V30 3 C 5.683950 0.576118 -14.123528 0
M  V30 4 C 6.449980 -0.251814 -14.976912 0
M  V30 5 C 7.669972 0.208072 -15.511094 0
M  V30 6 C 8.145624 1.499522 -15.210863 0
M  V30 7 C 7.407880 2.357432 -14.367057 0
M  V30 8 C 7.554270 3.693666 -13.871879 0
M  V30 9 C 6.450624 3.938636 -13.089053 0
M  V30 10 C 5.988478 5.179888 -12.380569 0
M  V30 11 N 6.968082 5.772205 -11.447358 0 CHG=1
M  V30 12 C 8.275173 6.171410 -11.991886 0
M  V30 13 C 8.952719 7.138746 -11.021947 0
M  V30 14 C 10.450140 7.295144 -11.271201 0
M  V30 15 C 11.097875 8.105471 -10.142612 0
M  V30 16 O 11.012379 7.310307 -8.965490 0
M  V30 17 C 11.152615 7.896758 -7.728204 0
M  V30 18 C 11.286664 9.289181 -7.506767 0
M  V30 19 C 11.449708 9.803430 -6.204862 0
M  V30 20 C 11.518427 8.921828 -5.112507 0
M  V30 21 C 11.816250 9.361207 -3.747981 0
M  V30 22 C 12.088114 8.469629 -2.774126 0
M  V30 23 C 12.085846 7.028321 -3.033806 0
M  V30 24 O 12.486156 6.189184 -2.238910 0
M  V30 25 N 11.634187 6.652770 -4.247079 0
M  V30 26 C 11.402121 7.535045 -5.327768 0
M  V30 27 C 11.187635 7.026235 -6.621556 0
M  V30 28 O 5.615819 2.846167 -13.045943 0
M  V30 29 C 6.187668 1.863696 -13.837682 0
M  V30 30 H 2.778750 -0.949230 -13.771892 0
M  V30 31 H 3.577376 -0.562143 -15.291037 0
M  V30 32 H 4.260047 -1.792413 -14.208052 0
M  V30 33 H 6.132952 -1.252730 -15.231380 0
M  V30 34 H 8.244699 -0.442167 -16.154869 0
M  V30 35 H 9.082611 1.836183 -15.629580 0
M  V30 36 H 8.365104 4.361334 -14.119463 0
M  V30 37 H 5.680971 5.934913 -13.103288 0
M  V30 38 H 5.110507 4.941056 -11.782536 0
M  V30 39 H 6.575099 6.634290 -11.027417 0
M  V30 40 H 8.890099 5.280070 -12.111146 0
M  V30 41 H 8.160442 6.640992 -12.969646 0
M  V30 42 H 8.486200 8.121832 -11.072144 0
M  V30 43 H 8.799380 6.778133 -10.003050 0
M  V30 44 H 10.886127 6.301013 -11.332323 0
M  V30 45 H 10.620823 7.774048 -12.234857 0
M  V30 46 H 12.143179 8.325504 -10.364219 0
M  V30 47 H 10.560001 9.049373 -10.056646 0
M  V30 48 H 11.285738 9.984303 -8.328193 0
M  V30 49 H 11.567384 10.866944 -6.056205 0
M  V30 50 H 11.779396 10.416706 -3.525556 0
M  V30 51 H 12.293829 8.821908 -1.774088 0
M  V30 52 H 11.578036 5.661418 -4.434314 0
M  V30 53 H 11.116603 5.960065 -6.781488 0
M  V30 54 H 7.103789 5.127080 -10.680681 0
M  V30 END ATOM
M  V30 BEGIN BOND
M  V30 1 1 2 1
M  V30 2 1 3 2
M  V30 3 1 4 3
M  V30 4 2 5 4
M  V30 5 1 6 5
M  V30 6 2 7 6
M  V30 7 1 8 7
M  V30 8 2 9 8
M  V30 9 1 10 9
M  V30 10 1 11 10
M  V30 11 1 12 11
M  V30 12 1 13 12
M  V30 13 1 14 13
M  V30 14 1 15 14
M  V30 15 1 16 15
M  V30 16 1 17 16
M  V30 17 1 18 17
M  V30 18 2 19 18
M  V30 19 1 20 19
M  V30 20 1 21 20
M  V30 21 2 22 21
M  V30 22 1 23 22
M  V30 23 2 24 23
M  V30 24 1 25 23
M  V30 25 2 26 20
M  V30 26 1 26 25
M  V30 27 2 27 17
M  V30 28 1 27 26
M  V30 29 1 28 9
M  V30 30 2 29 3
M  V30 31 1 29 7
M  V30 32 1 29 28
M  V30 33 1 30 1
M  V30 34 1 31 1
M  V30 35 1 32 1
M  V30 36 1 33 4
M  V30 37 1 34 5
M  V30 38 1 35 6
M  V30 39 1 36 8
M  V30 40 1 37 10
M  V30 41 1 38 10
M  V30 42 1 39 11
M  V30 43 1 40 12
M  V30 44 1 41 12
M  V30 45 1 42 13
M  V30 46 1 43 13
M  V30 47 1 44 14
M  V30 48 1 45 14
M  V30 49 1 46 15
M  V30 50 1 47 15
M  V30 51 1 48 18
M  V30 52 1 49 19
M  V30 53 1 50 21
M  V30 54 1 51 22
M  V30 55 1 52 25
M  V30 56 1 53 27
M  V30 57 1 54 11
M  V30 END BOND
M  V30 END CTAB
M  END
>  <b_m_subgroup_collapsed>  (109) 
0

>  <r_i_docking_score>  (109) 
-9.1597226465894401

>  <s_m_subgroup_title>  (109) 
glide-dock_SP_D22_pv

>  <s_m_subgroupid>  (109) 
glide-dock_SP_D22_pv

>  <Molecule ChEMBL ID>  (109) 
CHEMBL5417857

>  <Standard Type>  (109) 
Ki

>  <Standard Value>  (109) 
4.01

>  <label>  (109) 
1

$$$$
CHEMBL5790341
     RDKit          3D

  0  0  0  0  0  0  0  0  0  0999 V3000
M  V30 BEGIN CTAB
M  V30 COUNTS 60 64 0 0 1
M  V30 BEGIN ATOM
M  V30 1 O 15.063160 6.582669 -17.416643 0
M  V30 2 C 14.038054 6.320772 -16.792700 0
M  V30 3 C 13.127455 7.444404 -16.274374 0
M  V30 4 C 12.476912 7.081963 -14.925582 0
M  V30 5 C 11.920264 5.668158 -14.929928 0
M  V30 6 C 10.830952 5.304536 -14.113537 0
M  V30 7 C 10.378630 3.960322 -14.074195 0
M  V30 8 O 9.353125 3.496956 -13.274505 0
M  V30 9 C 8.500422 4.427470 -12.620941 0
M  V30 10 C 9.104707 4.961909 -11.309292 0
M  V30 11 C 8.272173 6.124722 -10.753201 0
M  V30 12 N 8.896129 6.883674 -9.639543 0 CFG=2 CHG=1
M  V30 13 C 10.184896 7.525957 -9.996420 0
M  V30 14 C 10.604068 8.535709 -8.924450 0
M  V30 15 C 10.706713 7.881693 -7.525101 0 CFG=1
M  V30 16 C 11.071997 8.923412 -6.469599 0
M  V30 17 N 10.886100 10.172153 -6.542825 0
M  V30 18 O 11.285949 10.765340 -5.311186 0
M  V30 19 C 11.192830 9.721661 -4.365891 0 CFG=2
M  V30 20 C 11.926133 9.770406 -3.046840 0
M  V30 21 C 12.269144 8.591995 -2.476338 0
M  V30 22 F 12.885668 8.583425 -1.288889 0
M  V30 23 C 11.968532 7.316244 -3.135597 0
M  V30 24 C 11.685924 7.292136 -4.456102 0
M  V30 25 C 11.767048 8.608080 -5.202258 0 CFG=1
M  V30 26 C 9.370706 7.165903 -7.209467 0
M  V30 27 C 8.957511 6.185587 -8.331743 0
M  V30 28 C 11.017896 3.006141 -14.891655 0
M  V30 29 C 12.084897 3.371214 -15.736227 0
M  V30 30 C 12.543896 4.701019 -15.747147 0
M  V30 31 N 13.654441 5.055620 -16.553576 0
M  V30 32 H 12.352611 7.607933 -17.023083 0
M  V30 33 H 13.681278 8.379686 -16.195444 0
M  V30 34 H 11.685555 7.791624 -14.690121 0
M  V30 35 H 13.216689 7.160166 -14.127285 0
M  V30 36 H 10.371986 6.073039 -13.512640 0
M  V30 37 H 7.566417 3.911393 -12.397107 0
M  V30 38 H 8.233617 5.234611 -13.304115 0
M  V30 39 H 10.119429 5.286765 -11.498204 0
M  V30 40 H 9.180435 4.172298 -10.566430 0
M  V30 41 H 7.289242 5.770357 -10.443578 0
M  V30 42 H 8.086361 6.841259 -11.554625 0
M  V30 43 H 10.093938 8.033193 -10.957548 0
M  V30 44 H 10.967482 6.774788 -10.101216 0
M  V30 45 H 9.873694 9.347547 -8.910761 0
M  V30 46 H 11.558387 8.986345 -9.202198 0
M  V30 47 H 11.505790 7.138937 -7.550164 0
M  V30 48 H 10.136694 9.638437 -4.127879 0
M  V30 49 H 12.086370 10.725307 -2.572767 0
M  V30 50 H 11.945964 6.402433 -2.560032 0
M  V30 51 H 11.463008 6.377405 -4.985705 0
M  V30 52 H 12.819671 8.846656 -5.352438 0
M  V30 53 H 9.438806 6.625360 -6.265741 0
M  V30 54 H 8.575341 7.902438 -7.076398 0
M  V30 55 H 7.982124 5.757123 -8.099812 0
M  V30 56 H 9.662020 5.355449 -8.388697 0
M  V30 57 H 10.682319 1.980403 -14.869961 0
M  V30 58 H 12.560525 2.619393 -16.349287 0
M  V30 59 H 14.215569 4.308225 -16.935715 0
M  V30 60 H 8.215719 7.626248 -9.505615 0
M  V30 END ATOM
M  V30 BEGIN BOND
M  V30 1 2 2 1
M  V30 2 1 3 2
M  V30 3 1 4 3
M  V30 4 1 5 4
M  V30 5 1 6 5
M  V30 6 2 7 6
M  V30 7 1 8 7
M  V30 8 1 9 8
M  V30 9 1 10 9
M  V30 10 1 11 10
M  V30 11 1 12 11
M  V30 12 1 13 12
M  V30 13 1 14 13
M  V30 14 1 15 14
M  V30 15 1 16 15
M  V30 16 2 17 16
M  V30 17 1 18 17
M  V30 18 1 19 18
M  V30 19 1 20 19
M  V30 20 2 21 20
M  V30 21 1 22 21
M  V30 22 1 23 21
M  V30 23 2 24 23
M  V30 24 1 25 16
M  V30 25 1 25 19
M  V30 26 1 25 24
M  V30 27 1 26 15
M  V30 28 1 27 12
M  V30 29 1 27 26
M  V30 30 1 28 7
M  V30 31 2 29 28
M  V30 32 2 30 5
M  V30 33 1 30 29
M  V30 34 1 31 2
M  V30 35 1 31 30
M  V30 36 1 32 3
M  V30 37 1 33 3
M  V30 38 1 34 4
M  V30 39 1 35 4
M  V30 40 1 36 6
M  V30 41 1 37 9
M  V30 42 1 38 9
M  V30 43 1 39 10
M  V30 44 1 40 10
M  V30 45 1 41 11
M  V30 46 1 42 11
M  V30 47 1 43 13
M  V30 48 1 44 13
M  V30 49 1 45 14
M  V30 50 1 46 14
M  V30 51 1 15 47 CFG=3
M  V30 52 1 19 48 CFG=1
M  V30 53 1 49 20
M  V30 54 1 50 23
M  V30 55 1 51 24
M  V30 56 1 25 52 CFG=3
M  V30 57 1 53 26
M  V30 58 1 54 26
M  V30 59 1 55 27
M  V30 60 1 56 27
M  V30 61 1 57 28
M  V30 62 1 58 29
M  V30 63 1 59 31
M  V30 64 1 12 60 CFG=1
M  V30 END BOND
M  V30 END CTAB
M  END
>  <b_m_subgroup_collapsed>  (110) 
0

>  <r_i_docking_score>  (110) 
-9.1474091852058592

>  <s_m_subgroup_title>  (110) 
glide-dock_SP_D22_pv

>  <s_m_subgroupid>  (110) 
glide-dock_SP_D22_pv

>  <Molecule ChEMBL ID>  (110) 
CHEMBL5790341

>  <Standard Type>  (110) 
Ki

>  <Standard Value>  (110) 
5.6

>  <label>  (110) 
1

$$$$
CHEMBL569322
     RDKit          3D

  0  0  0  0  0  0  0  0  0  0999 V3000
M  V30 BEGIN CTAB
M  V30 COUNTS 71 75 0 0 1
M  V30 BEGIN ATOM
M  V30 1 C 11.550081 7.567217 -11.321005 0
M  V30 2 C 10.464261 8.572971 -10.924621 0
M  V30 3 C 9.160639 8.118231 -10.249122 0
M  V30 4 N 9.270486 7.174899 -9.097157 0 CFG=1 CHG=1
M  V30 5 C 9.370657 5.738560 -9.514853 0
M  V30 6 C 8.281670 5.265862 -10.533416 0
M  V30 7 N 8.557045 5.591810 -11.943781 0
M  V30 8 C 9.667703 4.907705 -12.599187 0
M  V30 9 C 9.348825 3.463587 -12.957173 0
M  V30 10 N 8.094496 3.374708 -13.696490 0
M  V30 11 C 7.968886 2.432231 -14.736705 0
M  V30 12 N 8.889063 2.541207 -15.725640 0 CHG=1
M  V30 13 C 8.917782 1.758157 -16.823631 0
M  V30 14 C 7.945970 0.757263 -16.988506 0
M  V30 15 C 6.965089 0.581051 -15.991925 0
M  V30 16 C 5.989377 -0.425143 -16.152622 0
M  V30 17 C 5.010057 -0.627638 -15.164770 0
M  V30 18 C 5.016092 0.172488 -14.008618 0
M  V30 19 C 5.992357 1.174903 -13.839917 0
M  V30 20 C 6.969780 1.415278 -14.837370 0
M  V30 21 C 6.963134 4.105743 -13.136354 0
M  V30 22 C 7.388225 5.552925 -12.820409 0
M  V30 23 C 10.220174 7.628670 -8.018747 0 CFG=1
M  V30 24 C 9.986378 9.093906 -7.595424 0
M  V30 25 C 11.130323 9.620582 -6.725403 0
M  V30 26 C 11.444943 8.699623 -5.571698 0
M  V30 27 C 12.212570 9.185780 -4.495899 0
M  V30 28 C 12.485986 8.389843 -3.373597 0
M  V30 29 C 12.015289 7.071708 -3.340729 0
M  V30 30 O 12.260633 6.295584 -2.246927 0
M  V30 31 C 11.285964 6.572299 -4.436785 0
M  V30 32 C 10.992930 7.362300 -5.564024 0
M  V30 33 C 10.190331 6.767505 -6.729083 0
M  V30 34 H 12.417987 8.098894 -11.712154 0
M  V30 35 H 11.906366 6.972386 -10.483644 0
M  V30 36 H 11.215493 6.914422 -12.118544 0
M  V30 37 H 10.086049 9.006829 -11.846734 0
M  V30 38 H 10.931877 9.372131 -10.350183 0
M  V30 39 H 8.486162 7.775529 -11.017342 0
M  V30 40 H 8.618715 9.000962 -9.911486 0
M  V30 41 H 10.375763 5.497787 -9.846934 0
M  V30 42 H 9.216770 5.136608 -8.620740 0
M  V30 43 H 8.129986 4.191734 -10.438142 0
M  V30 44 H 7.333809 5.727438 -10.249626 0
M  V30 45 H 9.973118 5.462167 -13.487624 0
M  V30 46 H 10.486300 4.898623 -11.904129 0
M  V30 47 H 10.177471 3.006245 -13.497911 0
M  V30 48 H 9.286023 2.970612 -11.999775 0
M  V30 49 H 9.707348 1.958403 -17.535851 0
M  V30 50 H 7.961320 0.128049 -17.867807 0
M  V30 51 H 5.989560 -1.058679 -17.028465 0
M  V30 52 H 4.261839 -1.397761 -15.293576 0
M  V30 53 H 4.259591 0.026900 -13.253423 0
M  V30 54 H 5.964065 1.742436 -12.926706 0
M  V30 55 H 6.128750 4.107101 -13.839173 0
M  V30 56 H 6.621316 3.624486 -12.220584 0
M  V30 57 H 6.564008 6.123302 -12.387008 0
M  V30 58 H 7.685962 6.057064 -13.740424 0
M  V30 59 H 11.229705 7.564498 -8.423979 0
M  V30 60 H 9.900054 9.772285 -8.434523 0
M  V30 61 H 9.042063 9.155334 -7.052846 0
M  V30 62 H 10.886838 10.612620 -6.341907 0
M  V30 63 H 12.035101 9.724657 -7.324934 0
M  V30 64 H 12.616928 10.172298 -4.532081 0
M  V30 65 H 13.057536 8.788767 -2.548233 0
M  V30 66 H 11.817719 5.457613 -2.263675 0
M  V30 67 H 10.905972 5.569915 -4.405208 0
M  V30 68 H 10.587196 5.773600 -6.936261 0
M  V30 69 H 9.161292 6.636749 -6.390254 0
M  V30 70 H 8.343700 7.231644 -8.687444 0
M  V30 71 H 9.599689 3.268726 -15.639294 0
M  V30 END ATOM
M  V30 BEGIN BOND
M  V30 1 1 2 1
M  V30 2 1 3 2
M  V30 3 1 4 3
M  V30 4 1 5 4
M  V30 5 1 6 5
M  V30 6 1 7 6
M  V30 7 1 8 7
M  V30 8 1 9 8
M  V30 9 1 10 9
M  V30 10 1 11 10
M  V30 11 2 12 11
M  V30 12 1 13 12
M  V30 13 2 14 13
M  V30 14 1 15 14
M  V30 15 2 16 15
M  V30 16 1 17 16
M  V30 17 2 18 17
M  V30 18 1 19 18
M  V30 19 1 20 11
M  V30 20 1 20 15
M  V30 21 2 20 19
M  V30 22 1 21 10
M  V30 23 1 22 7
M  V30 24 1 22 21
M  V30 25 1 23 4
M  V30 26 1 24 23
M  V30 27 1 25 24
M  V30 28 1 26 25
M  V30 29 1 27 26
M  V30 30 2 28 27
M  V30 31 1 29 28
M  V30 32 1 30 29
M  V30 33 2 31 29
M  V30 34 2 32 26
M  V30 35 1 32 31
M  V30 36 1 33 23
M  V30 37 1 33 32
M  V30 38 1 34 1
M  V30 39 1 35 1
M  V30 40 1 36 1
M  V30 41 1 37 2
M  V30 42 1 38 2
M  V30 43 1 39 3
M  V30 44 1 40 3
M  V30 45 1 41 5
M  V30 46 1 42 5
M  V30 47 1 43 6
M  V30 48 1 44 6
M  V30 49 1 45 8
M  V30 50 1 46 8
M  V30 51 1 47 9
M  V30 52 1 48 9
M  V30 53 1 49 13
M  V30 54 1 50 14
M  V30 55 1 51 16
M  V30 56 1 52 17
M  V30 57 1 53 18
M  V30 58 1 54 19
M  V30 59 1 55 21
M  V30 60 1 56 21
M  V30 61 1 57 22
M  V30 62 1 58 22
M  V30 63 1 23 59 CFG=3
M  V30 64 1 60 24
M  V30 65 1 61 24
M  V30 66 1 62 25
M  V30 67 1 63 25
M  V30 68 1 64 27
M  V30 69 1 65 28
M  V30 70 1 66 30
M  V30 71 1 67 31
M  V30 72 1 68 33
M  V30 73 1 69 33
M  V30 74 1 4 70 CFG=1
M  V30 75 1 71 12
M  V30 END BOND
M  V30 END CTAB
M  END
>  <b_m_subgroup_collapsed>  (111) 
0

>  <r_i_docking_score>  (111) 
-9.1439065580833905

>  <s_m_subgroup_title>  (111) 
glide-dock_SP_D22_pv

>  <s_m_subgroupid>  (111) 
glide-dock_SP_D22_pv

>  <Molecule ChEMBL ID>  (111) 
CHEMBL569322

>  <Standard Type>  (111) 
Ki

>  <Standard Value>  (111) 
21.7

>  <label>  (111) 
1

$$$$
CHEMBL457890
     RDKit          3D

  0  0  0  0  0  0  0  0  0  0999 V3000
M  V30 BEGIN CTAB
M  V30 COUNTS 73 76 0 0 1
M  V30 BEGIN ATOM
M  V30 1 C 12.432237 5.159981 -13.932046 0
M  V30 2 O 11.086428 4.723499 -14.067170 0
M  V30 3 C 10.823578 3.719168 -14.974093 0
M  V30 4 C 11.788348 3.147763 -15.840938 0
M  V30 5 C 11.437184 2.094929 -16.709856 0
M  V30 6 C 10.119854 1.605708 -16.730711 0
M  V30 7 C 9.144925 2.179615 -15.892469 0
M  V30 8 C 7.718875 1.670320 -15.914987 0
M  V30 9 C 7.551704 0.360582 -15.126102 0
M  V30 10 C 6.095849 -0.067403 -15.049909 0
M  V30 11 C 5.607551 -1.057256 -15.928172 0
M  V30 12 C 4.251356 -1.425292 -15.901633 0
M  V30 13 C 3.379895 -0.794160 -14.998720 0
M  V30 14 C 3.864110 0.171992 -14.103710 0
M  V30 15 C 5.224675 0.566050 -14.134542 0
M  V30 16 O 5.756046 1.582877 -13.369390 0
M  V30 17 C 4.908631 2.473442 -12.654036 0
M  V30 18 C 5.538343 3.874976 -12.687579 0
M  V30 19 C 6.887454 3.900645 -11.975848 0
M  V30 20 C 7.395913 5.282316 -11.568106 0
M  V30 21 C 8.635777 5.142952 -10.665531 0
M  V30 22 N 8.740669 6.205514 -9.629408 0 CHG=1
M  V30 23 C 8.655581 5.646843 -8.247272 0
M  V30 24 C 8.902163 6.684155 -7.135232 0
M  V30 25 N 10.127887 7.422921 -7.404893 0
M  V30 26 C 10.889203 7.920986 -6.323638 0
M  V30 27 C 11.514813 9.187410 -6.397883 0
M  V30 28 C 12.310120 9.653172 -5.341381 0
M  V30 29 C 12.458170 8.907027 -4.163938 0
M  V30 30 C 11.851855 7.647539 -4.071659 0
M  V30 31 Cl 12.085732 6.703835 -2.647421 0
M  V30 32 C 11.084300 7.153199 -5.145910 0
M  V30 33 C 10.167025 8.074591 -8.713465 0
M  V30 34 C 9.945199 7.049701 -9.835629 0
M  V30 35 C 9.501742 3.234155 -15.027202 0
M  V30 36 H 12.485571 5.923954 -13.155771 0
M  V30 37 H 13.088311 4.342458 -13.633533 0
M  V30 38 H 12.802649 5.605155 -14.857459 0
M  V30 39 H 12.812093 3.487768 -15.848438 0
M  V30 40 H 12.186671 1.656388 -17.352062 0
M  V30 41 H 9.857192 0.793268 -17.392624 0
M  V30 42 H 7.404536 1.522750 -16.950300 0
M  V30 43 H 7.062084 2.439968 -15.504476 0
M  V30 44 H 7.940014 0.479312 -14.112529 0
M  V30 45 H 8.146863 -0.430864 -15.584896 0
M  V30 46 H 6.272856 -1.534052 -16.632975 0
M  V30 47 H 3.873712 -2.179151 -16.579039 0
M  V30 48 H 2.327500 -1.027344 -14.994902 0
M  V30 49 H 3.146054 0.628706 -13.447107 0
M  V30 50 H 3.899530 2.552973 -13.043812 0
M  V30 51 H 4.822978 2.111655 -11.631877 0
M  V30 52 H 5.637701 4.231555 -13.712996 0
M  V30 53 H 4.886555 4.570127 -12.169926 0
M  V30 54 H 6.751717 3.357885 -11.046920 0
M  V30 55 H 7.631191 3.374820 -12.570383 0
M  V30 56 H 7.615319 5.899019 -12.438690 0
M  V30 57 H 6.582501 5.772310 -11.043461 0
M  V30 58 H 8.623436 4.173590 -10.168188 0
M  V30 59 H 9.525501 5.104111 -11.296712 0
M  V30 60 H 7.686190 5.179148 -8.096254 0
M  V30 61 H 9.399017 4.855993 -8.141474 0
M  V30 62 H 8.085566 7.400554 -7.048589 0
M  V30 63 H 8.923395 6.172601 -6.176463 0
M  V30 64 H 11.416962 9.820771 -7.265293 0
M  V30 65 H 12.836547 10.577280 -5.448819 0
M  V30 66 H 13.053027 9.289196 -3.348272 0
M  V30 67 H 10.658621 6.168802 -5.046369 0
M  V30 68 H 9.401844 8.852461 -8.752080 0
M  V30 69 H 11.128459 8.550966 -8.898355 0
M  V30 70 H 10.825108 6.406750 -9.885460 0
M  V30 71 H 9.869561 7.558763 -10.797169 0
M  V30 72 H 8.758012 3.682902 -14.390685 0
M  V30 73 H 7.927798 6.813014 -9.743546 0
M  V30 END ATOM
M  V30 BEGIN BOND
M  V30 1 1 2 1
M  V30 2 1 3 2
M  V30 3 2 4 3
M  V30 4 1 5 4
M  V30 5 2 6 5
M  V30 6 1 7 6
M  V30 7 1 8 7
M  V30 8 1 9 8
M  V30 9 1 10 9
M  V30 10 2 11 10
M  V30 11 1 12 11
M  V30 12 2 13 12
M  V30 13 1 14 13
M  V30 14 1 15 10
M  V30 15 2 15 14
M  V30 16 1 16 15
M  V30 17 1 17 16
M  V30 18 1 18 17
M  V30 19 1 19 18
M  V30 20 1 20 19
M  V30 21 1 21 20
M  V30 22 1 22 21
M  V30 23 1 23 22
M  V30 24 1 24 23
M  V30 25 1 25 24
M  V30 26 1 26 25
M  V30 27 2 27 26
M  V30 28 1 28 27
M  V30 29 2 29 28
M  V30 30 1 30 29
M  V30 31 1 31 30
M  V30 32 1 32 26
M  V30 33 2 32 30
M  V30 34 1 33 25
M  V30 35 1 34 22
M  V30 36 1 34 33
M  V30 37 1 35 3
M  V30 38 2 35 7
M  V30 39 1 36 1
M  V30 40 1 37 1
M  V30 41 1 38 1
M  V30 42 1 39 4
M  V30 43 1 40 5
M  V30 44 1 41 6
M  V30 45 1 42 8
M  V30 46 1 43 8
M  V30 47 1 44 9
M  V30 48 1 45 9
M  V30 49 1 46 11
M  V30 50 1 47 12
M  V30 51 1 48 13
M  V30 52 1 49 14
M  V30 53 1 50 17
M  V30 54 1 51 17
M  V30 55 1 52 18
M  V30 56 1 53 18
M  V30 57 1 54 19
M  V30 58 1 55 19
M  V30 59 1 56 20
M  V30 60 1 57 20
M  V30 61 1 58 21
M  V30 62 1 59 21
M  V30 63 1 60 23
M  V30 64 1 61 23
M  V30 65 1 62 24
M  V30 66 1 63 24
M  V30 67 1 64 27
M  V30 68 1 65 28
M  V30 69 1 66 29
M  V30 70 1 67 32
M  V30 71 1 68 33
M  V30 72 1 69 33
M  V30 73 1 70 34
M  V30 74 1 71 34
M  V30 75 1 72 35
M  V30 76 1 73 22
M  V30 END BOND
M  V30 END CTAB
M  END
>  <b_m_subgroup_collapsed>  (112) 
0

>  <r_i_docking_score>  (112) 
-9.1427932033560193

>  <s_m_subgroup_title>  (112) 
glide-dock_SP_D22_pv

>  <s_m_subgroupid>  (112) 
glide-dock_SP_D22_pv

>  <Molecule ChEMBL ID>  (112) 
CHEMBL457890

>  <Standard Type>  (112) 
Ki

>  <Standard Value>  (112) 
1000000.0

>  <label>  (112) 
0

$$$$
CHEMBL3102875
     RDKit          3D

  0  0  0  0  0  0  0  0  0  0999 V3000
M  V30 BEGIN CTAB
M  V30 COUNTS 57 60 0 0 1
M  V30 BEGIN ATOM
M  V30 1 C 5.569788 -0.142270 -14.383748 0
M  V30 2 C 5.663862 1.242708 -13.744919 0
M  V30 3 O 4.732522 1.635315 -13.047353 0
M  V30 4 C 6.880006 2.054770 -13.987644 0
M  V30 5 C 7.996626 1.493196 -14.647401 0
M  V30 6 C 9.208568 2.197067 -14.700536 0
M  V30 7 C 9.326404 3.458181 -14.083418 0
M  V30 8 C 8.194467 4.052037 -13.463319 0
M  V30 9 C 6.966407 3.362749 -13.449426 0
M  V30 10 C 8.289380 5.389320 -12.741442 0
M  V30 11 C 9.720791 5.674335 -12.262465 0 CFG=2
M  V30 12 C 9.868503 7.063416 -11.588309 0
M  V30 13 N 9.286758 7.223378 -10.215341 0 CFG=2 CHG=1
M  V30 14 C 9.644603 8.572510 -9.690693 0
M  V30 15 C 9.159876 8.826294 -8.250091 0
M  V30 16 C 9.539761 7.728185 -7.252598 0 CFG=2
M  V30 17 C 11.012583 7.830440 -6.848050 0
M  V30 18 O 11.897349 7.762671 -7.700061 0
M  V30 19 C 11.289033 8.024908 -5.411357 0
M  V30 20 C 11.289111 9.317971 -4.845625 0
M  V30 21 C 11.686442 9.498024 -3.503537 0
M  V30 22 C 12.086608 8.392474 -2.727330 0
M  V30 23 F 12.489611 8.573181 -1.448580 0
M  V30 24 C 12.082379 7.101664 -3.289301 0
M  V30 25 C 11.685177 6.919566 -4.628719 0
M  V30 26 C 9.167708 6.358377 -7.839522 0
M  V30 27 C 9.682910 6.137211 -9.271921 0
M  V30 28 C 10.712714 5.502786 -13.435741 0
M  V30 29 C 10.656592 4.111498 -14.053182 0
M  V30 30 O 11.686069 3.610715 -14.499867 0
M  V30 31 H 5.719161 -0.074569 -15.461040 0
M  V30 32 H 6.318228 -0.812128 -13.966142 0
M  V30 33 H 4.588202 -0.581028 -14.208408 0
M  V30 34 H 7.965409 0.500576 -15.073035 0
M  V30 35 H 10.061980 1.733133 -15.173945 0
M  V30 36 H 6.115893 3.799794 -12.941036 0
M  V30 37 H 7.601345 5.397080 -11.894162 0
M  V30 38 H 7.953968 6.171647 -13.424496 0
M  V30 39 H 10.006621 4.895019 -11.557224 0
M  V30 40 H 9.451570 7.829570 -12.243426 0
M  V30 41 H 10.935230 7.282711 -11.520502 0
M  V30 42 H 9.204657 9.329190 -10.340646 0
M  V30 43 H 10.723195 8.719989 -9.745439 0
M  V30 44 H 8.086728 8.956178 -8.247899 0
M  V30 45 H 9.553839 9.772153 -7.892882 0
M  V30 46 H 8.956052 7.875753 -6.343896 0
M  V30 47 H 11.014893 10.175859 -5.442090 0
M  V30 48 H 11.687592 10.484212 -3.060744 0
M  V30 49 H 12.390393 6.250831 -2.699397 0
M  V30 50 H 11.704005 5.927941 -5.059365 0
M  V30 51 H 9.545528 5.565697 -7.193638 0
M  V30 52 H 8.086024 6.249492 -7.828340 0
M  V30 53 H 9.269466 5.182957 -9.600951 0
M  V30 54 H 10.768861 6.030074 -9.272408 0
M  V30 55 H 10.494132 6.179530 -14.251364 0
M  V30 56 H 11.734248 5.703574 -13.107297 0
M  V30 57 H 8.269349 7.210293 -10.280220 0
M  V30 END ATOM
M  V30 BEGIN BOND
M  V30 1 1 2 1
M  V30 2 2 3 2
M  V30 3 1 4 2
M  V30 4 1 5 4
M  V30 5 2 6 5
M  V30 6 1 7 6
M  V30 7 2 8 7
M  V30 8 2 9 4
M  V30 9 1 9 8
M  V30 10 1 10 8
M  V30 11 1 11 10
M  V30 12 1 12 11
M  V30 13 1 13 12
M  V30 14 1 14 13
M  V30 15 1 15 14
M  V30 16 1 16 15
M  V30 17 1 17 16
M  V30 18 2 18 17
M  V30 19 1 19 17
M  V30 20 1 20 19
M  V30 21 2 21 20
M  V30 22 1 22 21
M  V30 23 1 23 22
M  V30 24 2 24 22
M  V30 25 2 25 19
M  V30 26 1 25 24
M  V30 27 1 26 16
M  V30 28 1 27 13
M  V30 29 1 27 26
M  V30 30 1 28 11
M  V30 31 1 29 7
M  V30 32 1 29 28
M  V30 33 2 30 29
M  V30 34 1 31 1
M  V30 35 1 32 1
M  V30 36 1 33 1
M  V30 37 1 34 5
M  V30 38 1 35 6
M  V30 39 1 36 9
M  V30 40 1 37 10
M  V30 41 1 38 10
M  V30 42 1 11 39 CFG=1
M  V30 43 1 40 12
M  V30 44 1 41 12
M  V30 45 1 42 14
M  V30 46 1 43 14
M  V30 47 1 44 15
M  V30 48 1 45 15
M  V30 49 1 16 46 CFG=1
M  V30 50 1 47 20
M  V30 51 1 48 21
M  V30 52 1 49 24
M  V30 53 1 50 25
M  V30 54 1 51 26
M  V30 55 1 52 26
M  V30 56 1 53 27
M  V30 57 1 54 27
M  V30 58 1 55 28
M  V30 59 1 56 28
M  V30 60 1 13 57 CFG=3
M  V30 END BOND
M  V30 END CTAB
M  END
>  <b_m_subgroup_collapsed>  (113) 
0

>  <r_i_docking_score>  (113) 
-9.1361286796400396

>  <s_m_subgroup_title>  (113) 
glide-dock_SP_D22_pv

>  <s_m_subgroupid>  (113) 
glide-dock_SP_D22_pv

>  <Molecule ChEMBL ID>  (113) 
CHEMBL3102875

>  <Standard Type>  (113) 
Ki

>  <Standard Value>  (113) 
32.36

>  <label>  (113) 
1

$$$$
CHEMBL221600
     RDKit          3D

  0  0  0  0  0  0  0  0  0  0999 V3000
M  V30 BEGIN CTAB
M  V30 COUNTS 48 51 0 0 1
M  V30 BEGIN ATOM
M  V30 1 C 11.686522 3.772611 -14.826469 0
M  V30 2 C 12.067619 4.924112 -14.116877 0
M  V30 3 C 11.098334 5.696860 -13.447047 0
M  V30 4 C 9.731523 5.326238 -13.478447 0
M  V30 5 C 8.631050 6.172367 -12.824152 0 CFG=1
M  V30 6 C 7.659034 5.354917 -11.961580 0
M  V30 7 C 8.348119 4.941645 -10.662950 0
M  V30 8 N 8.744607 6.128250 -9.867670 0 CFG=1 CHG=1
M  V30 9 C 9.214788 5.685433 -8.535282 0
M  V30 10 C 9.714617 6.774453 -7.633881 0
M  V30 11 C 9.276816 8.120529 -7.489690 0
M  V30 12 N 9.901957 8.751112 -6.515138 0
M  V30 13 N 10.710219 7.822346 -5.957492 0
M  V30 14 C 11.378000 8.078887 -4.738796 0
M  V30 15 C 11.539277 9.403247 -4.277746 0
M  V30 16 C 12.075845 9.642402 -3.002137 0
M  V30 17 C 12.485928 8.569505 -2.188814 0
M  V30 18 C 12.348969 7.248795 -2.651924 0
M  V30 19 C 11.791296 7.002561 -3.919275 0
M  V30 20 C 10.674176 6.647957 -6.674336 0
M  V30 21 C 9.700456 6.977691 -10.623632 0
M  V30 22 C 9.109556 7.385087 -11.986463 0
M  V30 23 C 9.364628 4.170474 -14.209557 0
M  V30 24 C 10.334121 3.393161 -14.869902 0
M  V30 25 H 12.430136 3.182204 -15.341487 0
M  V30 26 H 13.105917 5.219267 -14.091789 0
M  V30 27 H 11.432925 6.583060 -12.930642 0
M  V30 28 H 8.068110 6.570130 -13.665075 0
M  V30 29 H 6.780522 5.958378 -11.725912 0
M  V30 30 H 7.275615 4.478552 -12.482449 0
M  V30 31 H 9.226315 4.331030 -10.880946 0
M  V30 32 H 7.686211 4.304492 -10.081605 0
M  V30 33 H 9.999874 4.940986 -8.680059 0
M  V30 34 H 8.395522 5.156430 -8.046145 0
M  V30 35 H 8.512187 8.646416 -8.043806 0
M  V30 36 H 11.217644 10.241768 -4.878583 0
M  V30 37 H 12.153856 10.657707 -2.646107 0
M  V30 38 H 12.896113 8.762733 -1.208138 0
M  V30 39 H 12.649661 6.418272 -2.028260 0
M  V30 40 H 11.658072 5.977019 -4.231566 0
M  V30 41 H 11.268651 5.790851 -6.400065 0
M  V30 42 H 9.935409 7.885103 -10.069877 0
M  V30 43 H 10.640312 6.443086 -10.749029 0
M  V30 44 H 8.247540 8.029932 -11.802329 0
M  V30 45 H 9.808149 8.011322 -12.541275 0
M  V30 46 H 8.328739 3.873826 -14.286740 0
M  V30 47 H 10.041392 2.511643 -15.421701 0
M  V30 48 H 7.901068 6.686323 -9.737059 0
M  V30 END ATOM
M  V30 BEGIN BOND
M  V30 1 2 2 1
M  V30 2 1 3 2
M  V30 3 2 4 3
M  V30 4 1 5 4
M  V30 5 1 6 5
M  V30 6 1 7 6
M  V30 7 1 8 7
M  V30 8 1 9 8
M  V30 9 1 10 9
M  V30 10 1 11 10
M  V30 11 2 12 11
M  V30 12 1 13 12
M  V30 13 1 14 13
M  V30 14 2 15 14
M  V30 15 1 16 15
M  V30 16 2 17 16
M  V30 17 1 18 17
M  V30 18 1 19 14
M  V30 19 2 19 18
M  V30 20 2 20 10
M  V30 21 1 20 13
M  V30 22 1 21 8
M  V30 23 1 22 5
M  V30 24 1 22 21
M  V30 25 1 23 4
M  V30 26 1 24 1
M  V30 27 2 24 23
M  V30 28 1 25 1
M  V30 29 1 26 2
M  V30 30 1 27 3
M  V30 31 1 5 28 CFG=3
M  V30 32 1 29 6
M  V30 33 1 30 6
M  V30 34 1 31 7
M  V30 35 1 32 7
M  V30 36 1 33 9
M  V30 37 1 34 9
M  V30 38 1 35 11
M  V30 39 1 36 15
M  V30 40 1 37 16
M  V30 41 1 38 17
M  V30 42 1 39 18
M  V30 43 1 40 19
M  V30 44 1 41 20
M  V30 45 1 42 21
M  V30 46 1 43 21
M  V30 47 1 44 22
M  V30 48 1 45 22
M  V30 49 1 46 23
M  V30 50 1 47 24
M  V30 51 1 8 48 CFG=1
M  V30 END BOND
M  V30 END CTAB
M  END
>  <b_m_subgroup_collapsed>  (114) 
0

>  <r_i_docking_score>  (114) 
-9.1199210455597193

>  <s_m_subgroup_title>  (114) 
glide-dock_SP_D22_pv

>  <s_m_subgroupid>  (114) 
glide-dock_SP_D22_pv

>  <Molecule ChEMBL ID>  (114) 
CHEMBL221600

>  <Standard Type>  (114) 
Ki

>  <Standard Value>  (114) 
38.02

>  <label>  (114) 
1

$$$$
CHEMBL3588996
     RDKit          3D

  0  0  0  0  0  0  0  0  0  0999 V3000
M  V30 BEGIN CTAB
M  V30 COUNTS 66 70 0 0 1
M  V30 BEGIN ATOM
M  V30 1 O 12.454718 4.530599 -13.847017 0
M  V30 2 C 11.386887 4.176444 -14.698944 0 CFG=2
M  V30 3 C 10.371694 5.343735 -14.773685 0
M  V30 4 C 9.447396 5.573018 -13.541206 0
M  V30 5 N 10.053185 6.246489 -12.406766 0
M  V30 6 C 9.566624 6.324251 -11.118062 0
M  V30 7 C 10.486141 7.091628 -10.461133 0
M  V30 8 C 10.602935 7.450727 -9.049998 0
M  V30 9 C 9.888268 6.734082 -8.067270 0
M  V30 10 C 10.129580 6.973884 -6.700338 0
M  V30 11 C 11.075640 7.941400 -6.296421 0
M  V30 12 C 11.459525 8.098679 -4.885547 0
M  V30 13 C 11.686002 6.964498 -4.076071 0
M  V30 14 C 12.086359 7.097420 -2.733553 0
M  V30 15 C 12.283242 8.380698 -2.191286 0
M  V30 16 C 12.065951 9.517818 -2.988649 0
M  V30 17 C 11.657856 9.376326 -4.325950 0
M  V30 18 C 11.710187 8.720353 -7.284786 0
M  V30 19 C 11.486061 8.473288 -8.647976 0
M  V30 20 N 11.458296 7.475153 -11.388739 0
M  V30 21 N 11.181889 6.977305 -12.546561 0
M  V30 22 C 10.836163 2.800589 -14.240844 0
M  V30 23 N 9.939233 2.166549 -15.242772 0 CHG=1
M  V30 24 C 10.062037 0.678084 -15.291692 0
M  V30 25 C 9.161696 0.059228 -16.387251 0
M  V30 26 N 7.820143 0.615433 -16.295010 0
M  V30 27 C 6.656201 -0.158848 -16.379633 0
M  V30 28 C 6.356869 -0.852237 -17.572170 0
M  V30 29 C 5.115258 -1.503516 -17.720400 0
M  V30 30 C 4.161627 -1.442817 -16.686583 0
M  V30 31 C 4.466104 -0.773003 -15.489191 0
M  V30 32 Cl 3.285053 -0.631023 -14.246129 0
M  V30 33 C 5.722866 -0.168086 -15.312444 0
M  V30 34 Cl 6.085164 0.569870 -13.786718 0
M  V30 35 C 7.666683 2.054395 -16.226212 0
M  V30 36 C 8.524133 2.589307 -15.083212 0
M  V30 37 H 12.826442 5.356649 -14.123938 0
M  V30 38 H 11.833545 4.056162 -15.687217 0
M  V30 39 H 10.892199 6.261528 -15.031811 0
M  V30 40 H 9.742466 5.184239 -15.646407 0
M  V30 41 H 8.587204 6.169549 -13.843442 0
M  V30 42 H 9.028981 4.638838 -13.171432 0
M  V30 43 H 8.655394 5.847046 -10.784553 0
M  V30 44 H 9.190073 5.960264 -8.351591 0
M  V30 45 H 9.607214 6.383598 -5.962616 0
M  V30 46 H 11.553319 5.972523 -4.486211 0
M  V30 47 H 12.244221 6.217544 -2.127643 0
M  V30 48 H 12.587718 8.495045 -1.160983 0
M  V30 49 H 12.194503 10.506440 -2.574731 0
M  V30 50 H 11.493234 10.263557 -4.921541 0
M  V30 51 H 12.437403 9.468997 -7.004362 0
M  V30 52 H 12.037183 9.043619 -9.381603 0
M  V30 53 H 11.685917 2.140021 -14.096493 0
M  V30 54 H 10.358167 2.849582 -13.260947 0
M  V30 55 H 11.099672 0.388355 -15.472095 0
M  V30 56 H 9.784966 0.271407 -14.316425 0
M  V30 57 H 9.560812 0.282183 -17.377655 0
M  V30 58 H 9.145229 -1.027314 -16.294949 0
M  V30 59 H 7.064196 -0.861072 -18.388811 0
M  V30 60 H 4.882396 -2.028480 -18.635117 0
M  V30 61 H 3.200696 -1.922900 -16.808708 0
M  V30 62 H 7.980794 2.491210 -17.175291 0
M  V30 63 H 6.622463 2.337475 -16.081274 0
M  V30 64 H 8.161995 2.232166 -14.119817 0
M  V30 65 H 8.403422 3.661403 -15.062695 0
M  V30 66 H 10.243134 2.491030 -16.149616 0
M  V30 END ATOM
M  V30 BEGIN BOND
M  V30 1 1 2 1
M  V30 2 1 3 2
M  V30 3 1 4 3
M  V30 4 1 5 4
M  V30 5 1 6 5
M  V30 6 2 7 6
M  V30 7 1 8 7
M  V30 8 1 9 8
M  V30 9 2 10 9
M  V30 10 1 11 10
M  V30 11 1 12 11
M  V30 12 2 13 12
M  V30 13 1 14 13
M  V30 14 2 15 14
M  V30 15 1 16 15
M  V30 16 1 17 12
M  V30 17 2 17 16
M  V30 18 2 18 11
M  V30 19 2 19 8
M  V30 20 1 19 18
M  V30 21 1 20 7
M  V30 22 1 21 5
M  V30 23 2 21 20
M  V30 24 1 22 2
M  V30 25 1 23 22
M  V30 26 1 24 23
M  V30 27 1 25 24
M  V30 28 1 26 25
M  V30 29 1 27 26
M  V30 30 2 28 27
M  V30 31 1 29 28
M  V30 32 2 30 29
M  V30 33 1 31 30
M  V30 34 1 32 31
M  V30 35 1 33 27
M  V30 36 2 33 31
M  V30 37 1 34 33
M  V30 38 1 35 26
M  V30 39 1 36 23
M  V30 40 1 36 35
M  V30 41 1 37 1
M  V30 42 1 2 38 CFG=3
M  V30 43 1 39 3
M  V30 44 1 40 3
M  V30 45 1 41 4
M  V30 46 1 42 4
M  V30 47 1 43 6
M  V30 48 1 44 9
M  V30 49 1 45 10
M  V30 50 1 46 13
M  V30 51 1 47 14
M  V30 52 1 48 15
M  V30 53 1 49 16
M  V30 54 1 50 17
M  V30 55 1 51 18
M  V30 56 1 52 19
M  V30 57 1 53 22
M  V30 58 1 54 22
M  V30 59 1 55 24
M  V30 60 1 56 24
M  V30 61 1 57 25
M  V30 62 1 58 25
M  V30 63 1 59 28
M  V30 64 1 60 29
M  V30 65 1 61 30
M  V30 66 1 62 35
M  V30 67 1 63 35
M  V30 68 1 64 36
M  V30 69 1 65 36
M  V30 70 1 66 23
M  V30 END BOND
M  V30 END CTAB
M  END
>  <b_m_subgroup_collapsed>  (115) 
0

>  <r_i_docking_score>  (115) 
-9.1150942784097104

>  <s_m_subgroup_title>  (115) 
glide-dock_SP_D22_pv

>  <s_m_subgroupid>  (115) 
glide-dock_SP_D22_pv

>  <Molecule ChEMBL ID>  (115) 
CHEMBL3588996

>  <Standard Type>  (115) 
Ki

>  <Standard Value>  (115) 
15100.0

>  <label>  (115) 
0

$$$$
CHEMBL3819153
     RDKit          3D

  0  0  0  0  0  0  0  0  0  0999 V3000
M  V30 BEGIN CTAB
M  V30 COUNTS 56 60 0 0 1
M  V30 BEGIN ATOM
M  V30 1 O 11.480564 6.543824 -13.047291 0
M  V30 2 C 10.931625 5.518654 -13.446769 0
M  V30 3 N 11.591019 4.522641 -14.056156 0
M  V30 4 C 10.701188 3.532775 -14.442021 0
M  V30 5 C 10.929360 2.333206 -15.130615 0
M  V30 6 C 9.807695 1.526036 -15.413198 0
M  V30 7 Cl 10.032733 0.024011 -16.227757 0
M  V30 8 C 8.507625 1.951788 -15.042966 0
M  V30 9 C 8.308398 3.179760 -14.365386 0
M  V30 10 C 9.447074 3.948569 -14.043282 0
M  V30 11 N 9.609196 5.184850 -13.365502 0
M  V30 12 C 8.485274 5.950006 -12.756822 0 CFG=1
M  V30 13 C 7.622658 5.126111 -11.773187 0
M  V30 14 C 8.338829 4.886571 -10.444190 0
M  V30 15 N 8.678000 6.163188 -9.767245 0 CFG=1 CHG=1
M  V30 16 C 9.290441 5.906761 -8.434781 0
M  V30 17 C 8.733912 6.800680 -7.315087 0
M  V30 18 C 8.929037 8.315728 -7.535739 0
M  V30 19 C 10.398843 8.759835 -7.581340 0
M  V30 20 C 11.022460 8.713161 -6.238813 0
M  V30 21 N 11.227170 9.752131 -5.416444 0
M  V30 22 C 11.682892 9.137249 -4.267018 0
M  V30 23 C 12.084826 9.628922 -3.011105 0
M  V30 24 C 12.486103 8.734616 -1.998916 0
M  V30 25 C 12.485385 7.342940 -2.227195 0
M  V30 26 C 12.083098 6.832474 -3.468024 0
M  V30 27 C 11.695523 7.739487 -4.456343 0
M  V30 28 O 11.288359 7.472476 -5.738189 0
M  V30 29 C 9.516028 7.021264 -10.646292 0
M  V30 30 C 8.856138 7.262609 -12.020642 0
M  V30 31 H 12.579271 4.508892 -14.260538 0
M  V30 32 H 11.923376 2.038082 -15.432958 0
M  V30 33 H 7.656679 1.334575 -15.289531 0
M  V30 34 H 7.305780 3.502296 -14.133329 0
M  V30 35 H 7.851278 6.222727 -13.596345 0
M  V30 36 H 6.696123 5.667643 -11.575396 0
M  V30 37 H 7.304787 4.167583 -12.165871 0
M  V30 38 H 9.250040 4.304518 -10.611134 0
M  V30 39 H 7.692529 4.282303 -9.808404 0
M  V30 40 H 10.376467 5.973783 -8.489458 0
M  V30 41 H 9.096461 4.877334 -8.129152 0
M  V30 42 H 9.183247 6.498341 -6.373162 0
M  V30 43 H 7.686024 6.571386 -7.143006 0
M  V30 44 H 8.417414 8.862144 -6.745738 0
M  V30 45 H 8.442193 8.620203 -8.458389 0
M  V30 46 H 10.471444 9.772174 -7.957671 0
M  V30 47 H 10.992221 8.150845 -8.262245 0
M  V30 48 H 12.079143 10.688334 -2.806765 0
M  V30 49 H 12.803779 9.129005 -1.046422 0
M  V30 50 H 12.801318 6.665202 -1.447580 0
M  V30 51 H 12.074315 5.772391 -3.660425 0
M  V30 52 H 9.694624 7.988057 -10.183637 0
M  V30 53 H 10.493371 6.557611 -10.753376 0
M  V30 54 H 7.944967 7.836197 -11.851158 0
M  V30 55 H 9.468826 7.919041 -12.638603 0
M  V30 56 H 7.800684 6.664134 -9.628304 0
M  V30 END ATOM
M  V30 BEGIN BOND
M  V30 1 2 2 1
M  V30 2 1 3 2
M  V30 3 1 4 3
M  V30 4 1 5 4
M  V30 5 2 6 5
M  V30 6 1 7 6
M  V30 7 1 8 6
M  V30 8 2 9 8
M  V30 9 2 10 4
M  V30 10 1 10 9
M  V30 11 1 11 2
M  V30 12 1 11 10
M  V30 13 1 12 11
M  V30 14 1 13 12
M  V30 15 1 14 13
M  V30 16 1 15 14
M  V30 17 1 16 15
M  V30 18 1 17 16
M  V30 19 1 18 17
M  V30 20 1 19 18
M  V30 21 1 20 19
M  V30 22 2 21 20
M  V30 23 1 22 21
M  V30 24 2 23 22
M  V30 25 1 24 23
M  V30 26 2 25 24
M  V30 27 1 26 25
M  V30 28 1 27 22
M  V30 29 2 27 26
M  V30 30 1 28 20
M  V30 31 1 28 27
M  V30 32 1 29 15
M  V30 33 1 30 12
M  V30 34 1 30 29
M  V30 35 1 31 3
M  V30 36 1 32 5
M  V30 37 1 33 8
M  V30 38 1 34 9
M  V30 39 1 12 35 CFG=3
M  V30 40 1 36 13
M  V30 41 1 37 13
M  V30 42 1 38 14
M  V30 43 1 39 14
M  V30 44 1 40 16
M  V30 45 1 41 16
M  V30 46 1 42 17
M  V30 47 1 43 17
M  V30 48 1 44 18
M  V30 49 1 45 18
M  V30 50 1 46 19
M  V30 51 1 47 19
M  V30 52 1 48 23
M  V30 53 1 49 24
M  V30 54 1 50 25
M  V30 55 1 51 26
M  V30 56 1 52 29
M  V30 57 1 53 29
M  V30 58 1 54 30
M  V30 59 1 55 30
M  V30 60 1 15 56 CFG=1
M  V30 END BOND
M  V30 END CTAB
M  END
>  <b_m_subgroup_collapsed>  (116) 
0

>  <r_i_docking_score>  (116) 
-9.1133633411558694

>  <s_m_subgroup_title>  (116) 
glide-dock_SP_D22_pv

>  <s_m_subgroupid>  (116) 
glide-dock_SP_D22_pv

>  <Molecule ChEMBL ID>  (116) 
CHEMBL3819153

>  <Standard Type>  (116) 
Ki

>  <Standard Value>  (116) 
95.5

>  <label>  (116) 
1

$$$$
CHEMBL494701
     RDKit          3D

  0  0  0  0  0  0  0  0  0  0999 V3000
M  V30 BEGIN CTAB
M  V30 COUNTS 59 63 0 0 1
M  V30 BEGIN ATOM
M  V30 1 O 5.435311 3.844563 -12.854080 0
M  V30 2 C 6.615318 4.166067 -12.971700 0
M  V30 3 C 7.182577 5.402512 -12.238225 0
M  V30 4 C 8.701330 5.309026 -11.900785 0 CFG=2
M  V30 5 C 9.289866 6.621959 -11.334573 0
M  V30 6 N 8.887530 7.013723 -9.954477 0 CFG=2 CHG=1
M  V30 7 C 9.482604 8.342813 -9.649393 0
M  V30 8 C 9.132306 8.855450 -8.245911 0
M  V30 9 C 9.438828 7.863177 -7.123949 0 CFG=2
M  V30 10 C 10.929101 7.814932 -6.782297 0
M  V30 11 O 11.753849 7.535998 -7.647989 0
M  V30 12 C 11.285650 8.055938 -5.371641 0
M  V30 13 C 11.292775 9.363828 -4.843997 0
M  V30 14 C 11.686585 9.577010 -3.508224 0
M  V30 15 C 12.100519 8.493149 -2.710136 0
M  V30 16 F 12.500567 8.703149 -1.437300 0
M  V30 17 C 12.087257 7.188339 -3.234199 0
M  V30 18 C 11.685916 6.971862 -4.564904 0
M  V30 19 C 8.896671 6.472941 -7.479741 0
M  V30 20 C 9.236748 6.003952 -8.912799 0
M  V30 21 C 9.542115 4.894214 -13.129516 0
M  V30 22 C 8.855855 3.812996 -13.877622 0
M  V30 23 O 9.578414 3.044936 -14.732267 0
M  V30 24 C 8.710589 2.120562 -15.246484 0
M  V30 25 C 9.257311 1.171179 -16.214472 0
M  V30 26 C 8.408349 0.273255 -16.902199 0
M  V30 27 C 8.929335 -0.627560 -17.852551 0
M  V30 28 C 10.311072 -0.649924 -18.120037 0
M  V30 29 C 11.168900 0.235023 -17.440893 0
M  V30 30 C 10.644320 1.137101 -16.495016 0
M  V30 31 C 7.455611 2.312300 -14.722638 0
M  V30 32 C 7.553145 3.430026 -13.846478 0
M  V30 33 H 7.001194 6.271487 -12.871442 0
M  V30 34 H 6.605557 5.562658 -11.327370 0
M  V30 35 H 8.818317 4.503552 -11.174514 0
M  V30 36 H 10.378604 6.552022 -11.346829 0
M  V30 37 H 9.035416 7.432708 -12.021561 0
M  V30 38 H 10.563932 8.304650 -9.773654 0
M  V30 39 H 9.121665 9.068627 -10.381787 0
M  V30 40 H 9.677132 9.772165 -8.055614 0
M  V30 41 H 8.082930 9.127135 -8.208785 0
M  V30 42 H 8.922812 8.204606 -6.227299 0
M  V30 43 H 11.004207 10.206505 -5.457057 0
M  V30 44 H 11.687365 10.574373 -3.095836 0
M  V30 45 H 12.390708 6.352680 -2.618271 0
M  V30 46 H 11.688545 5.967369 -4.964239 0
M  V30 47 H 9.304185 5.771838 -6.759103 0
M  V30 48 H 7.824748 6.437212 -7.310197 0
M  V30 49 H 8.691984 5.078443 -9.094577 0
M  V30 50 H 10.300116 5.765897 -8.987453 0
M  V30 51 H 10.534862 4.567301 -12.821378 0
M  V30 52 H 9.677077 5.757231 -13.790019 0
M  V30 53 H 7.345495 0.265702 -16.706680 0
M  V30 54 H 8.266139 -1.306970 -18.368507 0
M  V30 55 H 10.711652 -1.343730 -18.842848 0
M  V30 56 H 12.231231 0.216188 -17.641439 0
M  V30 57 H 11.324659 1.805507 -15.986458 0
M  V30 58 H 6.575496 1.730812 -14.950563 0
M  V30 59 H 7.873220 7.163202 -9.949364 0
M  V30 END ATOM
M  V30 BEGIN BOND
M  V30 1 2 2 1
M  V30 2 1 3 2
M  V30 3 1 4 3
M  V30 4 1 5 4
M  V30 5 1 6 5
M  V30 6 1 7 6
M  V30 7 1 8 7
M  V30 8 1 9 8
M  V30 9 1 10 9
M  V30 10 2 11 10
M  V30 11 1 12 10
M  V30 12 1 13 12
M  V30 13 2 14 13
M  V30 14 1 15 14
M  V30 15 1 16 15
M  V30 16 2 17 15
M  V30 17 2 18 12
M  V30 18 1 18 17
M  V30 19 1 19 9
M  V30 20 1 20 6
M  V30 21 1 20 19
M  V30 22 1 21 4
M  V30 23 1 22 21
M  V30 24 1 23 22
M  V30 25 1 24 23
M  V30 26 1 25 24
M  V30 27 2 26 25
M  V30 28 1 27 26
M  V30 29 2 28 27
M  V30 30 1 29 28
M  V30 31 1 30 25
M  V30 32 2 30 29
M  V30 33 2 31 24
M  V30 34 1 32 2
M  V30 35 2 32 22
M  V30 36 1 32 31
M  V30 37 1 33 3
M  V30 38 1 34 3
M  V30 39 1 4 35 CFG=1
M  V30 40 1 36 5
M  V30 41 1 37 5
M  V30 42 1 38 7
M  V30 43 1 39 7
M  V30 44 1 40 8
M  V30 45 1 41 8
M  V30 46 1 9 42 CFG=1
M  V30 47 1 43 13
M  V30 48 1 44 14
M  V30 49 1 45 17
M  V30 50 1 46 18
M  V30 51 1 47 19
M  V30 52 1 48 19
M  V30 53 1 49 20
M  V30 54 1 50 20
M  V30 55 1 51 21
M  V30 56 1 52 21
M  V30 57 1 53 26
M  V30 58 1 54 27
M  V30 59 1 55 28
M  V30 60 1 56 29
M  V30 61 1 57 30
M  V30 62 1 58 31
M  V30 63 1 6 59 CFG=3
M  V30 END BOND
M  V30 END CTAB
M  END
>  <b_m_subgroup_collapsed>  (117) 
0

>  <r_i_docking_score>  (117) 
-9.1124548026908805

>  <s_m_subgroup_title>  (117) 
glide-dock_SP_D22_pv

>  <s_m_subgroupid>  (117) 
glide-dock_SP_D22_pv

>  <Molecule ChEMBL ID>  (117) 
CHEMBL494701

>  <Standard Type>  (117) 
Ki

>  <Standard Value>  (117) 
10000.0

>  <label>  (117) 
0

$$$$
CHEMBL1684128
     RDKit          3D

  0  0  0  0  0  0  0  0  0  0999 V3000
M  V30 BEGIN CTAB
M  V30 COUNTS 84 89 0 0 1
M  V30 BEGIN ATOM
M  V30 1 C 3.685748 -1.408692 -18.735973 0
M  V30 2 C 4.243354 -1.679751 -17.335308 0
M  V30 3 C 5.333652 -0.667008 -16.939013 0
M  V30 4 N 6.086086 -1.021796 -15.697598 0 CFG=2 CHG=1
M  V30 5 C 5.255251 -1.397838 -14.542465 0
M  V30 6 C 4.478014 -0.178894 -14.050788 0
M  V30 7 C 5.333456 1.048819 -13.767267 0
M  V30 8 C 4.886010 2.164286 -13.045318 0
M  V30 9 C 5.656283 3.329858 -12.977047 0
M  V30 10 C 6.905026 3.372593 -13.613997 0
M  V30 11 C 7.466404 2.261538 -14.296036 0
M  V30 12 C 6.602535 1.132998 -14.404571 0
M  V30 13 C 7.124686 -0.037135 -15.261645 0 CFG=2
M  V30 14 C 8.044225 0.426484 -16.415464 0
M  V30 15 C 9.105983 1.408242 -15.959863 0
M  V30 16 C 10.353974 1.425413 -16.613052 0
M  V30 17 C 11.349020 2.321478 -16.201181 0
M  V30 18 C 11.111902 3.180379 -15.113541 0
M  V30 19 C 9.866168 3.165528 -14.438817 0
M  V30 20 O 9.656695 3.938325 -13.314146 0
M  V30 21 C 10.343184 5.179256 -13.192272 0
M  V30 22 C 9.750648 5.944232 -11.991504 0
M  V30 23 C 10.447553 7.294173 -11.741370 0
M  V30 24 C 9.817719 8.179399 -10.645154 0
M  V30 25 N 9.805182 7.584005 -9.288193 0 CHG=1
M  V30 26 C 9.138582 8.468933 -8.298932 0
M  V30 27 C 8.993168 7.768745 -6.936107 0
M  V30 28 N 10.250130 7.147872 -6.517253 0
M  V30 29 C 10.921748 7.553098 -5.352608 0
M  V30 30 C 11.288574 6.572569 -4.414025 0
M  V30 31 C 11.920072 6.907041 -3.203603 0
M  V30 32 C 12.191265 8.251455 -2.916485 0
M  V30 33 C 11.863438 9.239911 -3.858373 0
M  V30 34 C 11.253921 8.901924 -5.097739 0
M  V30 35 O 10.973783 9.823433 -6.078700 0
M  V30 36 C 11.686390 11.033804 -6.012614 0
M  V30 37 C 10.999038 6.369597 -7.487262 0
M  V30 38 C 11.144696 7.172392 -8.788869 0
M  V30 39 C 8.829241 2.296110 -14.890684 0
M  V30 40 H 2.886190 -2.110340 -18.972696 0
M  V30 41 H 3.281747 -0.398115 -18.813644 0
M  V30 42 H 4.457740 -1.518755 -19.497942 0
M  V30 43 H 4.640117 -2.696038 -17.303221 0
M  V30 44 H 3.411880 -1.648053 -16.630039 0
M  V30 45 H 4.896742 0.327601 -16.844234 0
M  V30 46 H 6.038953 -0.619191 -17.767277 0
M  V30 47 H 4.592373 -2.222669 -14.795146 0
M  V30 48 H 5.906978 -1.773301 -13.753016 0
M  V30 49 H 3.924071 -0.430979 -13.147187 0
M  V30 50 H 3.719520 0.105180 -14.781275 0
M  V30 51 H 3.894943 2.170553 -12.621961 0
M  V30 52 H 5.284812 4.203004 -12.460367 0
M  V30 53 H 7.428731 4.311530 -13.559778 0
M  V30 54 H 7.770155 -0.592406 -14.579779 0
M  V30 55 H 7.472956 0.953068 -17.180408 0
M  V30 56 H 8.512470 -0.433959 -16.898361 0
M  V30 57 H 10.549969 0.749273 -17.434835 0
M  V30 58 H 12.309256 2.330930 -16.696770 0
M  V30 59 H 11.916194 3.822757 -14.795806 0
M  V30 60 H 10.226974 5.767766 -14.103555 0
M  V30 61 H 11.410354 5.015400 -13.040392 0
M  V30 62 H 9.826416 5.318609 -11.101502 0
M  V30 63 H 8.684686 6.108785 -12.163068 0
M  V30 64 H 10.398652 7.878401 -12.649936 0
M  V30 65 H 11.514874 7.146210 -11.577026 0
M  V30 66 H 8.795408 8.426395 -10.935142 0
M  V30 67 H 10.365232 9.119857 -10.601830 0
M  V30 68 H 8.163350 8.798887 -8.655159 0
M  V30 69 H 9.738404 9.372545 -8.191110 0
M  V30 70 H 8.233988 6.988853 -7.000768 0
M  V30 71 H 8.635257 8.487173 -6.201998 0
M  V30 72 H 11.046343 5.549088 -4.619060 0
M  V30 73 H 12.167540 6.134851 -2.491906 0
M  V30 74 H 12.651852 8.527538 -1.977987 0
M  V30 75 H 12.085915 10.258362 -3.593941 0
M  V30 76 H 11.614607 11.589380 -6.944608 0
M  V30 77 H 11.285993 11.642762 -5.200290 0
M  V30 78 H 12.747219 10.851623 -5.847683 0
M  V30 79 H 11.980153 6.103178 -7.084806 0
M  V30 80 H 10.466130 5.437205 -7.676112 0
M  V30 81 H 11.673047 6.572025 -9.523250 0
M  V30 82 H 11.759775 8.055698 -8.618128 0
M  V30 83 H 6.623048 -1.856572 -15.917879 0
M  V30 84 H 9.231003 6.754884 -9.347466 0
M  V30 END ATOM
M  V30 BEGIN BOND
M  V30 1 1 2 1
M  V30 2 1 3 2
M  V30 3 1 4 3
M  V30 4 1 5 4
M  V30 5 1 6 5
M  V30 6 1 7 6
M  V30 7 1 8 7
M  V30 8 2 9 8
M  V30 9 1 10 9
M  V30 10 2 11 10
M  V30 11 2 12 7
M  V30 12 1 12 11
M  V30 13 1 13 4
M  V30 14 1 13 12
M  V30 15 1 14 13
M  V30 16 1 15 14
M  V30 17 1 16 15
M  V30 18 2 17 16
M  V30 19 1 18 17
M  V30 20 2 19 18
M  V30 21 1 20 19
M  V30 22 1 21 20
M  V30 23 1 22 21
M  V30 24 1 23 22
M  V30 25 1 24 23
M  V30 26 1 25 24
M  V30 27 1 26 25
M  V30 28 1 27 26
M  V30 29 1 28 27
M  V30 30 1 29 28
M  V30 31 2 30 29
M  V30 32 1 31 30
M  V30 33 2 32 31
M  V30 34 1 33 32
M  V30 35 1 34 29
M  V30 36 2 34 33
M  V30 37 1 35 34
M  V30 38 1 36 35
M  V30 39 1 37 28
M  V30 40 1 38 25
M  V30 41 1 38 37
M  V30 42 1 39 11
M  V30 43 2 39 15
M  V30 44 1 39 19
M  V30 45 1 40 1
M  V30 46 1 41 1
M  V30 47 1 42 1
M  V30 48 1 43 2
M  V30 49 1 44 2
M  V30 50 1 45 3
M  V30 51 1 46 3
M  V30 52 1 47 5
M  V30 53 1 48 5
M  V30 54 1 49 6
M  V30 55 1 50 6
M  V30 56 1 51 8
M  V30 57 1 52 9
M  V30 58 1 53 10
M  V30 59 1 13 54 CFG=1
M  V30 60 1 55 14
M  V30 61 1 56 14
M  V30 62 1 57 16
M  V30 63 1 58 17
M  V30 64 1 59 18
M  V30 65 1 60 21
M  V30 66 1 61 21
M  V30 67 1 62 22
M  V30 68 1 63 22
M  V30 69 1 64 23
M  V30 70 1 65 23
M  V30 71 1 66 24
M  V30 72 1 67 24
M  V30 73 1 68 26
M  V30 74 1 69 26
M  V30 75 1 70 27
M  V30 76 1 71 27
M  V30 77 1 72 30
M  V30 78 1 73 31
M  V30 79 1 74 32
M  V30 80 1 75 33
M  V30 81 1 76 36
M  V30 82 1 77 36
M  V30 83 1 78 36
M  V30 84 1 79 37
M  V30 85 1 80 37
M  V30 86 1 81 38
M  V30 87 1 82 38
M  V30 88 1 4 83 CFG=3
M  V30 89 1 84 25
M  V30 END BOND
M  V30 END CTAB
M  END
>  <b_m_subgroup_collapsed>  (118) 
0

>  <r_i_docking_score>  (118) 
-9.1109545478263296

>  <s_m_subgroup_title>  (118) 
glide-dock_SP_D22_pv

>  <s_m_subgroupid>  (118) 
glide-dock_SP_D22_pv

>  <Molecule ChEMBL ID>  (118) 
CHEMBL1684128

>  <Standard Type>  (118) 
Ki

>  <Standard Value>  (118) 
88.0

>  <label>  (118) 
1

$$$$
CHEMBL351611
     RDKit          3D

  0  0  0  0  0  0  0  0  0  0999 V3000
M  V30 BEGIN CTAB
M  V30 COUNTS 51 54 0 0 1
M  V30 BEGIN ATOM
M  V30 1 C 12.442321 8.713786 -2.138891 0
M  V30 2 C 12.074017 9.771659 -2.990995 0
M  V30 3 C 11.580607 9.510740 -4.279880 0
M  V30 4 C 11.437634 8.187623 -4.733052 0
M  V30 5 O 10.936667 8.020081 -6.002627 0
M  V30 6 C 10.870507 6.693504 -6.485437 0
M  V30 7 C 10.485193 6.643375 -7.964571 0 CFG=2
M  V30 8 C 11.226282 7.694823 -8.807567 0
M  V30 9 C 10.875088 7.515381 -10.286955 0
M  V30 10 C 9.350186 7.526549 -10.525302 0 CFG=1
M  V30 11 C 8.984512 7.308269 -12.011329 0
M  V30 12 N 9.032077 5.896101 -12.398250 0
M  V30 13 C 10.059586 5.364711 -13.217072 0
M  V30 14 C 11.277327 6.058149 -13.446918 0
M  V30 15 C 12.279621 5.514658 -14.273732 0
M  V30 16 C 12.087383 4.264985 -14.888865 0
M  V30 17 C 10.888060 3.563512 -14.678983 0
M  V30 18 C 9.883610 4.111550 -13.857324 0
M  V30 19 C 8.242241 5.010300 -11.547510 0
M  V30 20 C 8.703705 5.144090 -10.091627 0
M  V30 21 N 8.639974 6.558444 -9.638619 0 CFG=1 CHG=1
M  V30 22 C 8.963692 6.745624 -8.201750 0
M  V30 23 C 11.791124 7.122292 -3.862088 0
M  V30 24 C 12.293458 7.385639 -2.575960 0
M  V30 25 H 12.815591 8.925670 -1.148021 0
M  V30 26 H 12.132735 10.792148 -2.646671 0
M  V30 27 H 11.294851 10.330455 -4.922395 0
M  V30 28 H 11.837171 6.200297 -6.372258 0
M  V30 29 H 10.136045 6.160444 -5.885705 0
M  V30 30 H 10.805685 5.657351 -8.301047 0
M  V30 31 H 10.946926 8.700052 -8.489794 0
M  V30 32 H 12.305035 7.615702 -8.665153 0
M  V30 33 H 11.355375 8.297542 -10.876283 0
M  V30 34 H 11.286518 6.572571 -10.633471 0
M  V30 35 H 8.993845 8.520758 -10.252497 0
M  V30 36 H 7.958713 7.642688 -12.171541 0
M  V30 37 H 9.593763 7.946648 -12.646793 0
M  V30 38 H 11.473213 7.016976 -12.995223 0
M  V30 39 H 13.201109 6.057725 -14.431718 0
M  V30 40 H 12.857866 3.848116 -15.523014 0
M  V30 41 H 10.731874 2.607290 -15.158346 0
M  V30 42 H 8.966446 3.552699 -13.750669 0
M  V30 43 H 7.190678 5.291689 -11.633259 0
M  V30 44 H 8.303076 3.963369 -11.839535 0
M  V30 45 H 8.085575 4.519764 -9.447871 0
M  V30 46 H 9.719694 4.760126 -10.010233 0
M  V30 47 H 8.422420 6.009696 -7.604690 0
M  V30 48 H 8.598284 7.722006 -7.879502 0
M  V30 49 H 11.683749 6.087402 -4.148494 0
M  V30 50 H 12.555584 6.565316 -1.923725 0
M  V30 51 H 7.657212 6.837029 -9.741868 0
M  V30 END ATOM
M  V30 BEGIN BOND
M  V30 1 2 2 1
M  V30 2 1 3 2
M  V30 3 2 4 3
M  V30 4 1 5 4
M  V30 5 1 6 5
M  V30 6 1 7 6
M  V30 7 1 8 7
M  V30 8 1 9 8
M  V30 9 1 10 9
M  V30 10 1 11 10
M  V30 11 1 12 11
M  V30 12 1 13 12
M  V30 13 2 14 13
M  V30 14 1 15 14
M  V30 15 2 16 15
M  V30 16 1 17 16
M  V30 17 1 18 13
M  V30 18 2 18 17
M  V30 19 1 19 12
M  V30 20 1 20 19
M  V30 21 1 21 10
M  V30 22 1 21 20
M  V30 23 1 22 7
M  V30 24 1 22 21
M  V30 25 1 23 4
M  V30 26 1 24 1
M  V30 27 2 24 23
M  V30 28 1 25 1
M  V30 29 1 26 2
M  V30 30 1 27 3
M  V30 31 1 28 6
M  V30 32 1 29 6
M  V30 33 1 7 30 CFG=3
M  V30 34 1 31 8
M  V30 35 1 32 8
M  V30 36 1 33 9
M  V30 37 1 34 9
M  V30 38 1 10 35 CFG=1
M  V30 39 1 36 11
M  V30 40 1 37 11
M  V30 41 1 38 14
M  V30 42 1 39 15
M  V30 43 1 40 16
M  V30 44 1 41 17
M  V30 45 1 42 18
M  V30 46 1 43 19
M  V30 47 1 44 19
M  V30 48 1 45 20
M  V30 49 1 46 20
M  V30 50 1 47 22
M  V30 51 1 48 22
M  V30 52 1 49 23
M  V30 53 1 50 24
M  V30 54 1 21 51 CFG=1
M  V30 END BOND
M  V30 END CTAB
M  END
>  <b_m_subgroup_collapsed>  (119) 
0

>  <r_i_docking_score>  (119) 
-9.1080156557090799

>  <s_m_subgroup_title>  (119) 
glide-dock_SP_D22_pv

>  <s_m_subgroupid>  (119) 
glide-dock_SP_D22_pv

>  <Molecule ChEMBL ID>  (119) 
CHEMBL351611

>  <Standard Type>  (119) 
Ki

>  <Standard Value>  (119) 
44.0

>  <label>  (119) 
1

$$$$
CHEMBL4446597
     RDKit          3D

  0  0  0  0  0  0  0  0  0  0999 V3000
M  V30 BEGIN CTAB
M  V30 COUNTS 50 52 0 0 1
M  V30 BEGIN ATOM
M  V30 1 O 11.286358 10.590975 -6.233137 0
M  V30 2 C 11.257307 9.373333 -6.082483 0
M  V30 3 C 10.903069 8.502274 -7.287691 0
M  V30 4 C 9.501058 7.866058 -7.177479 0
M  V30 5 C 9.407292 6.498742 -7.877381 0
M  V30 6 N 8.886003 6.554143 -9.265642 0 CFG=2 CHG=1
M  V30 7 C 8.646918 5.194826 -9.803871 0
M  V30 8 C 7.825965 5.291193 -11.086548 0
M  V30 9 C 8.522787 6.136460 -12.174420 0 CFG=2
M  V30 10 O 7.479629 6.471094 -13.046826 0
M  V30 11 C 9.609922 5.356443 -12.932413 0
M  V30 12 C 10.928871 5.846880 -13.093090 0
M  V30 13 C 11.879478 5.130481 -13.847320 0
M  V30 14 C 11.530046 3.907462 -14.445997 0
M  V30 15 C 10.225556 3.404861 -14.294441 0
M  V30 16 C 9.273154 4.129355 -13.552604 0
M  V30 17 C 8.968965 7.498049 -11.581871 0
M  V30 18 C 9.683987 7.368411 -10.220163 0
M  V30 19 C 11.571996 8.707381 -4.789584 0
M  V30 20 C 11.685606 7.302641 -4.672297 0
M  V30 21 C 12.085775 6.727777 -3.455594 0
M  V30 22 C 12.362649 7.537012 -2.347872 0
M  V30 23 C 12.203887 8.927940 -2.431107 0
M  V30 24 C 11.800439 9.504290 -3.646662 0
M  V30 25 H 11.673187 7.737990 -7.386025 0
M  V30 26 H 10.977348 9.115411 -8.184884 0
M  V30 27 H 8.731724 8.549468 -7.542393 0
M  V30 28 H 9.255672 7.705431 -6.126642 0
M  V30 29 H 8.710783 5.889144 -7.299016 0
M  V30 30 H 10.361244 5.970062 -7.848356 0
M  V30 31 H 8.091287 4.597523 -9.079506 0
M  V30 32 H 9.592489 4.679672 -9.983758 0
M  V30 33 H 6.884668 5.771241 -10.820429 0
M  V30 34 H 7.552794 4.297962 -11.441390 0
M  V30 35 H 6.823580 6.933852 -12.541594 0
M  V30 36 H 11.245389 6.780546 -12.658107 0
M  V30 37 H 12.881092 5.520290 -13.963735 0
M  V30 38 H 12.259547 3.360688 -15.025208 0
M  V30 39 H 9.950705 2.468391 -14.757320 0
M  V30 40 H 8.269186 3.738873 -13.477433 0
M  V30 41 H 9.567893 8.072381 -12.287114 0
M  V30 42 H 8.087906 8.126833 -11.446861 0
M  V30 43 H 9.825545 8.374405 -9.831481 0
M  V30 44 H 10.674552 6.927788 -10.338528 0
M  V30 45 H 11.509708 6.643556 -5.508858 0
M  V30 46 H 12.209673 5.662831 -3.374215 0
M  V30 47 H 12.710326 7.072793 -1.446612 0
M  V30 48 H 12.403934 9.553464 -1.572981 0
M  V30 49 H 11.685573 10.572506 -3.693948 0
M  V30 50 H 7.965321 6.989764 -9.216134 0
M  V30 END ATOM
M  V30 BEGIN BOND
M  V30 1 2 2 1
M  V30 2 1 3 2
M  V30 3 1 4 3
M  V30 4 1 5 4
M  V30 5 1 6 5
M  V30 6 1 7 6
M  V30 7 1 8 7
M  V30 8 1 9 8
M  V30 9 1 9 10 CFG=3
M  V30 10 1 11 9
M  V30 11 2 12 11
M  V30 12 1 13 12
M  V30 13 2 14 13
M  V30 14 1 15 14
M  V30 15 1 16 11
M  V30 16 2 16 15
M  V30 17 1 17 9
M  V30 18 1 18 6
M  V30 19 1 18 17
M  V30 20 1 19 2
M  V30 21 2 20 19
M  V30 22 1 21 20
M  V30 23 2 22 21
M  V30 24 1 23 22
M  V30 25 1 24 19
M  V30 26 2 24 23
M  V30 27 1 25 3
M  V30 28 1 26 3
M  V30 29 1 27 4
M  V30 30 1 28 4
M  V30 31 1 29 5
M  V30 32 1 30 5
M  V30 33 1 31 7
M  V30 34 1 32 7
M  V30 35 1 33 8
M  V30 36 1 34 8
M  V30 37 1 35 10
M  V30 38 1 36 12
M  V30 39 1 37 13
M  V30 40 1 38 14
M  V30 41 1 39 15
M  V30 42 1 40 16
M  V30 43 1 41 17
M  V30 44 1 42 17
M  V30 45 1 43 18
M  V30 46 1 44 18
M  V30 47 1 45 20
M  V30 48 1 46 21
M  V30 49 1 47 22
M  V30 50 1 48 23
M  V30 51 1 49 24
M  V30 52 1 6 50 CFG=1
M  V30 END BOND
M  V30 END CTAB
M  END
>  <b_m_subgroup_collapsed>  (120) 
0

>  <r_i_docking_score>  (120) 
-9.1062532435438701

>  <s_m_subgroup_title>  (120) 
glide-dock_SP_D22_pv

>  <s_m_subgroupid>  (120) 
glide-dock_SP_D22_pv

>  <Molecule ChEMBL ID>  (120) 
CHEMBL4446597

>  <Standard Type>  (120) 
Ki

>  <Standard Value>  (120) 
32.36

>  <label>  (120) 
1

$$$$
CHEMBL3104522
     RDKit          3D

  0  0  0  0  0  0  0  0  0  0999 V3000
M  V30 BEGIN CTAB
M  V30 COUNTS 59 63 0 0 1
M  V30 BEGIN ATOM
M  V30 1 N 4.085313 -0.227998 -13.846720 0
M  V30 2 C 5.218252 0.572758 -13.973264 0
M  V30 3 C 6.262301 0.174253 -14.831198 0
M  V30 4 C 7.378035 1.013443 -15.012175 0
M  V30 5 C 7.469791 2.246718 -14.331306 0
M  V30 6 C 6.432281 2.638361 -13.446786 0
M  V30 7 C 5.310920 1.795104 -13.276851 0
M  V30 8 C 6.539296 3.906915 -12.600163 0 CFG=2
M  V30 9 O 5.685831 4.927318 -13.066059 0
M  V30 10 C 7.985232 4.445940 -12.506933 0 CFG=2
M  V30 11 C 8.099422 5.766203 -11.718387 0
M  V30 12 C 9.488019 5.927116 -11.071734 0
M  V30 13 N 9.588610 7.106372 -10.178300 0 CFG=2 CHG=1
M  V30 14 C 11.005271 7.506032 -9.959118 0
M  V30 15 C 11.129755 8.780899 -9.099749 0
M  V30 16 C 10.308563 8.722260 -7.795240 0 CFG=2
M  V30 17 C 10.951297 7.937881 -6.678601 0
M  V30 18 N 11.229586 6.639978 -6.805219 0
M  V30 19 O 11.684689 6.172345 -5.545116 0
M  V30 20 C 11.697250 7.220602 -4.643189 0
M  V30 21 C 12.094467 7.281878 -3.302227 0
M  V30 22 C 12.093680 8.547251 -2.682590 0
M  V30 23 F 12.507081 8.661162 -1.402083 0
M  V30 24 C 11.685731 9.696865 -3.398131 0
M  V30 25 C 11.266749 9.607474 -4.744155 0
M  V30 26 C 11.286180 8.340175 -5.370011 0
M  V30 27 C 8.885588 8.225368 -8.080515 0
M  V30 28 C 8.885832 6.910707 -8.886024 0
M  V30 29 C 8.651486 4.488379 -13.890489 0
M  V30 30 C 8.726998 3.086926 -14.515912 0
M  V30 31 H 3.945074 -0.943171 -14.547337 0
M  V30 32 H 3.220847 0.226423 -13.582300 0
M  V30 33 H 6.209192 -0.765125 -15.364239 0
M  V30 34 H 8.175303 0.698669 -15.666701 0
M  V30 35 H 4.517075 2.097131 -12.610625 0
M  V30 36 H 6.202109 3.655362 -11.593391 0
M  V30 37 H 5.687224 5.628984 -12.430007 0
M  V30 38 H 8.542747 3.713176 -11.931212 0
M  V30 39 H 7.875938 6.618088 -12.363177 0
M  V30 40 H 7.330056 5.766565 -10.948763 0
M  V30 41 H 9.753302 5.033182 -10.502533 0
M  V30 42 H 10.227812 6.017520 -11.868029 0
M  V30 43 H 11.534925 6.683018 -9.481087 0
M  V30 44 H 11.495426 7.680758 -10.918615 0
M  V30 45 H 12.178792 8.987943 -8.880383 0
M  V30 46 H 10.773695 9.623705 -9.694746 0
M  V30 47 H 10.218078 9.750209 -7.441382 0
M  V30 48 H 12.414462 6.396803 -2.771770 0
M  V30 49 H 11.688260 10.654091 -2.899039 0
M  V30 50 H 10.957072 10.491295 -5.279952 0
M  V30 51 H 8.323910 8.106525 -7.151260 0
M  V30 52 H 8.357353 8.990455 -8.651450 0
M  V30 53 H 7.872073 6.561978 -9.046920 0
M  V30 54 H 9.348201 6.095349 -8.333927 0
M  V30 55 H 9.656845 4.908523 -13.839951 0
M  V30 56 H 8.085607 5.151420 -14.544477 0
M  V30 57 H 9.551277 2.539240 -14.056803 0
M  V30 58 H 8.962958 3.165473 -15.577330 0
M  V30 59 H 9.114991 7.868359 -10.647910 0
M  V30 END ATOM
M  V30 BEGIN BOND
M  V30 1 1 2 1
M  V30 2 1 3 2
M  V30 3 2 4 3
M  V30 4 1 5 4
M  V30 5 2 6 5
M  V30 6 2 7 2
M  V30 7 1 7 6
M  V30 8 1 8 6
M  V30 9 1 9 8
M  V30 10 1 10 8
M  V30 11 1 11 10
M  V30 12 1 12 11
M  V30 13 1 13 12
M  V30 14 1 14 13
M  V30 15 1 15 14
M  V30 16 1 16 15
M  V30 17 1 17 16
M  V30 18 2 18 17
M  V30 19 1 19 18
M  V30 20 1 20 19
M  V30 21 1 21 20
M  V30 22 2 22 21
M  V30 23 1 23 22
M  V30 24 1 24 22
M  V30 25 2 25 24
M  V30 26 1 26 17
M  V30 27 2 26 20
M  V30 28 1 26 25
M  V30 29 1 27 16
M  V30 30 1 28 13
M  V30 31 1 28 27
M  V30 32 1 29 10
M  V30 33 1 30 5
M  V30 34 1 30 29
M  V30 35 1 31 1
M  V30 36 1 32 1
M  V30 37 1 33 3
M  V30 38 1 34 4
M  V30 39 1 35 7
M  V30 40 1 8 36 CFG=1
M  V30 41 1 37 9
M  V30 42 1 10 38 CFG=1
M  V30 43 1 39 11
M  V30 44 1 40 11
M  V30 45 1 41 12
M  V30 46 1 42 12
M  V30 47 1 43 14
M  V30 48 1 44 14
M  V30 49 1 45 15
M  V30 50 1 46 15
M  V30 51 1 16 47 CFG=1
M  V30 52 1 48 21
M  V30 53 1 49 24
M  V30 54 1 50 25
M  V30 55 1 51 27
M  V30 56 1 52 27
M  V30 57 1 53 28
M  V30 58 1 54 28
M  V30 59 1 55 29
M  V30 60 1 56 29
M  V30 61 1 57 30
M  V30 62 1 58 30
M  V30 63 1 13 59 CFG=3
M  V30 END BOND
M  V30 END CTAB
M  END
>  <b_m_subgroup_collapsed>  (121) 
0

>  <r_i_docking_score>  (121) 
-9.1048509217966007

>  <s_m_subgroup_title>  (121) 
glide-dock_SP_D22_pv

>  <s_m_subgroupid>  (121) 
glide-dock_SP_D22_pv

>  <Molecule ChEMBL ID>  (121) 
CHEMBL3104522

>  <Standard Type>  (121) 
Ki

>  <Standard Value>  (121) 
87.1

>  <label>  (121) 
1

$$$$
CHEMBL5966386
     RDKit          3D

  0  0  0  0  0  0  0  0  0  0999 V3000
M  V30 BEGIN CTAB
M  V30 COUNTS 60 63 0 0 1
M  V30 BEGIN ATOM
M  V30 1 C 5.530936 3.194962 -12.515235 0
M  V30 2 C 6.077842 4.464733 -13.187815 0
M  V30 3 N 7.546681 4.571462 -13.080997 0
M  V30 4 C 8.007857 5.659154 -12.197593 0
M  V30 5 C 8.218613 5.135582 -10.758307 0
M  V30 6 N 8.584590 6.171908 -9.755106 0 CFG=1 CHG=1
M  V30 7 C 8.627073 5.596910 -8.381365 0
M  V30 8 C 8.945566 6.650439 -7.305426 0
M  V30 9 C 10.308918 7.285837 -7.589701 0 CFG=2
M  V30 10 C 10.721980 8.264979 -6.512455 0
M  V30 11 N 10.490718 9.566626 -6.646855 0
M  V30 12 O 10.955359 10.223143 -5.475405 0
M  V30 13 C 11.444980 9.283483 -4.590346 0
M  V30 14 C 11.981062 9.410975 -3.302832 0
M  V30 15 C 12.357133 8.232934 -2.629936 0
M  V30 16 F 12.885644 8.313260 -1.388236 0
M  V30 17 C 12.184628 6.972180 -3.250769 0
M  V30 18 C 11.662015 6.870844 -4.561432 0
M  V30 19 C 11.285995 8.053161 -5.235013 0
M  V30 20 C 10.257370 7.913402 -8.998046 0
M  V30 21 C 9.851905 6.890887 -10.078088 0
M  V30 22 C 8.330156 3.762809 -13.855476 0
M  V30 23 O 7.819009 2.928887 -14.607547 0
M  V30 24 C 9.881607 3.883417 -13.930043 0 CFG=1
M  V30 25 O 10.457014 4.172390 -12.680197 0
M  V30 26 C 10.560036 2.576310 -14.407240 0
M  V30 27 C 10.755322 2.773870 -15.905330 0
M  V30 28 N 11.064080 4.203406 -16.040190 0 CHG=1
M  V30 29 C 10.304636 4.923027 -14.997280 0
M  V30 30 H 4.452842 3.130936 -12.647290 0
M  V30 31 H 5.960487 2.285446 -12.931973 0
M  V30 32 H 5.738035 3.200370 -11.447466 0
M  V30 33 H 5.575987 5.329032 -12.747901 0
M  V30 34 H 5.777965 4.475367 -14.238098 0
M  V30 35 H 8.907533 6.117385 -12.606630 0
M  V30 36 H 7.284228 6.476681 -12.178169 0
M  V30 37 H 7.287388 4.667225 -10.458725 0
M  V30 38 H 8.961623 4.341823 -10.722707 0
M  V30 39 H 7.686070 5.117638 -8.141290 0
M  V30 40 H 9.378531 4.806551 -8.346257 0
M  V30 41 H 8.953498 6.173753 -6.322718 0
M  V30 42 H 8.167856 7.415582 -7.267209 0
M  V30 43 H 11.053535 6.488848 -7.610379 0
M  V30 44 H 12.085730 10.377822 -2.832464 0
M  V30 45 H 12.471823 6.077047 -2.718644 0
M  V30 46 H 11.540854 5.904654 -5.031069 0
M  V30 47 H 11.225644 8.349523 -9.250310 0
M  V30 48 H 9.538405 8.735605 -9.011930 0
M  V30 49 H 10.656262 6.170662 -10.208472 0
M  V30 50 H 9.749853 7.422461 -11.022811 0
M  V30 51 H 10.348909 3.410375 -12.126929 0
M  V30 52 H 11.542634 2.453013 -13.946409 0
M  V30 53 H 9.994163 1.670980 -14.178052 0
M  V30 54 H 11.545025 2.141474 -16.313711 0
M  V30 55 H 9.830657 2.555694 -16.440035 0
M  V30 56 H 12.049953 4.333253 -15.857621 0
M  V30 57 H 9.435589 5.372622 -15.478420 0
M  V30 58 H 10.903693 5.736540 -14.584999 0
M  V30 59 H 10.845949 4.543780 -16.966579 0
M  V30 60 H 7.827138 6.860112 -9.775363 0
M  V30 END ATOM
M  V30 BEGIN BOND
M  V30 1 1 2 1
M  V30 2 1 3 2
M  V30 3 1 4 3
M  V30 4 1 5 4
M  V30 5 1 6 5
M  V30 6 1 7 6
M  V30 7 1 8 7
M  V30 8 1 9 8
M  V30 9 1 10 9
M  V30 10 2 11 10
M  V30 11 1 12 11
M  V30 12 1 13 12
M  V30 13 1 14 13
M  V30 14 2 15 14
M  V30 15 1 16 15
M  V30 16 1 17 15
M  V30 17 2 18 17
M  V30 18 1 19 10
M  V30 19 2 19 13
M  V30 20 1 19 18
M  V30 21 1 20 9
M  V30 22 1 21 6
M  V30 23 1 21 20
M  V30 24 1 22 3
M  V30 25 2 23 22
M  V30 26 1 24 22
M  V30 27 1 24 25 CFG=1
M  V30 28 1 26 24
M  V30 29 1 27 26
M  V30 30 1 28 27
M  V30 31 1 29 24
M  V30 32 1 29 28
M  V30 33 1 30 1
M  V30 34 1 31 1
M  V30 35 1 32 1
M  V30 36 1 33 2
M  V30 37 1 34 2
M  V30 38 1 35 4
M  V30 39 1 36 4
M  V30 40 1 37 5
M  V30 41 1 38 5
M  V30 42 1 39 7
M  V30 43 1 40 7
M  V30 44 1 41 8
M  V30 45 1 42 8
M  V30 46 1 9 43 CFG=3
M  V30 47 1 44 14
M  V30 48 1 45 17
M  V30 49 1 46 18
M  V30 50 1 47 20
M  V30 51 1 48 20
M  V30 52 1 49 21
M  V30 53 1 50 21
M  V30 54 1 51 25
M  V30 55 1 52 26
M  V30 56 1 53 26
M  V30 57 1 54 27
M  V30 58 1 55 27
M  V30 59 1 56 28
M  V30 60 1 57 29
M  V30 61 1 58 29
M  V30 62 1 59 28
M  V30 63 1 6 60 CFG=1
M  V30 END BOND
M  V30 END CTAB
M  END
>  <b_m_subgroup_collapsed>  (122) 
0

>  <r_i_docking_score>  (122) 
-9.1044384732783499

>  <s_m_subgroup_title>  (122) 
glide-dock_SP_D22_pv

>  <s_m_subgroupid>  (122) 
glide-dock_SP_D22_pv

>  <Molecule ChEMBL ID>  (122) 
CHEMBL5966386

>  <Standard Type>  (122) 
Ki

>  <Standard Value>  (122) 
52.0

>  <label>  (122) 
1

$$$$
CHEMBL5779117
     RDKit          3D

  0  0  0  0  0  0  0  0  0  0999 V3000
M  V30 BEGIN CTAB
M  V30 COUNTS 56 60 0 0 1
M  V30 BEGIN ATOM
M  V30 1 C 5.269647 0.040698 -14.391859 0
M  V30 2 C 6.484396 0.904807 -14.679001 0
M  V30 3 C 7.427401 0.493889 -15.644260 0
M  V30 4 N 8.546861 1.187961 -15.931955 0
M  V30 5 C 8.782947 2.322566 -15.242548 0
M  V30 6 C 7.907050 2.835142 -14.261170 0
M  V30 7 C 6.718684 2.117849 -13.991149 0
M  V30 8 C 5.759425 2.641608 -12.935542 0
M  V30 9 C 5.903520 4.158279 -12.739359 0
M  V30 10 N 7.308064 4.589752 -12.681212 0
M  V30 11 C 7.614192 5.663527 -11.731485 0
M  V30 12 C 8.322428 5.110197 -10.477695 0
M  V30 13 N 8.634042 6.175788 -9.491654 0 CFG=1 CHG=1
M  V30 14 C 8.550950 5.691233 -8.086982 0
M  V30 15 C 8.913706 6.768991 -7.053363 0
M  V30 16 C 10.310657 7.324602 -7.331372 0 CFG=2
M  V30 17 C 10.752702 8.301186 -6.270207 0
M  V30 18 N 10.520244 9.605752 -6.389891 0
M  V30 19 O 11.020709 10.241907 -5.219923 0
M  V30 20 C 11.523859 9.287591 -4.353572 0
M  V30 21 C 12.084132 9.387580 -3.072316 0
M  V30 22 C 12.444190 8.194478 -2.413794 0
M  V30 23 C 12.237374 6.945774 -3.045971 0
M  V30 24 C 11.686240 6.872264 -4.346987 0
M  V30 25 C 11.333171 8.068683 -5.006152 0
M  V30 26 C 10.324993 7.907226 -8.757514 0
M  V30 27 C 9.935259 6.838613 -9.794247 0
M  V30 28 C 8.273464 4.061655 -13.469729 0
M  V30 29 O 9.416404 4.518238 -13.524504 0
M  V30 30 H 5.237454 -0.222170 -13.333735 0
M  V30 31 H 4.348024 0.565093 -14.647182 0
M  V30 32 H 5.300521 -0.885695 -14.967235 0
M  V30 33 H 7.284763 -0.421513 -16.199823 0
M  V30 34 H 9.707869 2.827248 -15.482821 0
M  V30 35 H 4.727193 2.401136 -13.187043 0
M  V30 36 H 5.983107 2.131733 -11.999193 0
M  V30 37 H 5.351950 4.455165 -11.845488 0
M  V30 38 H 5.437693 4.677474 -13.578553 0
M  V30 39 H 8.224711 6.425074 -12.219097 0
M  V30 40 H 6.694110 6.172224 -11.447404 0
M  V30 41 H 7.685961 4.355038 -10.021231 0
M  V30 42 H 9.236669 4.579201 -10.747841 0
M  V30 43 H 7.536672 5.369509 -7.872294 0
M  V30 44 H 9.199359 4.822322 -7.967720 0
M  V30 45 H 8.886147 6.329168 -6.056696 0
M  V30 46 H 8.172904 7.571074 -7.053716 0
M  V30 47 H 11.011854 6.488837 -7.311894 0
M  V30 48 H 12.206416 10.350001 -2.598996 0
M  V30 49 H 12.864302 8.237670 -1.419574 0
M  V30 50 H 12.504336 6.035295 -2.528677 0
M  V30 51 H 11.528529 5.914198 -4.820904 0
M  V30 52 H 11.314810 8.300881 -8.992237 0
M  V30 53 H 9.631951 8.747888 -8.829641 0
M  V30 54 H 10.724055 6.087464 -9.830456 0
M  V30 55 H 9.892073 7.293495 -10.784338 0
M  V30 56 H 7.892928 6.871710 -9.590664 0
M  V30 END ATOM
M  V30 BEGIN BOND
M  V30 1 1 2 1
M  V30 2 1 3 2
M  V30 3 2 4 3
M  V30 4 1 5 4
M  V30 5 2 6 5
M  V30 6 2 7 2
M  V30 7 1 7 6
M  V30 8 1 8 7
M  V30 9 1 9 8
M  V30 10 1 10 9
M  V30 11 1 11 10
M  V30 12 1 12 11
M  V30 13 1 13 12
M  V30 14 1 14 13
M  V30 15 1 15 14
M  V30 16 1 16 15
M  V30 17 1 17 16
M  V30 18 2 18 17
M  V30 19 1 19 18
M  V30 20 1 20 19
M  V30 21 2 21 20
M  V30 22 1 22 21
M  V30 23 2 23 22
M  V30 24 1 24 23
M  V30 25 1 25 17
M  V30 26 1 25 20
M  V30 27 2 25 24
M  V30 28 1 26 16
M  V30 29 1 27 13
M  V30 30 1 27 26
M  V30 31 1 28 6
M  V30 32 1 28 10
M  V30 33 2 29 28
M  V30 34 1 30 1
M  V30 35 1 31 1
M  V30 36 1 32 1
M  V30 37 1 33 3
M  V30 38 1 34 5
M  V30 39 1 35 8
M  V30 40 1 36 8
M  V30 41 1 37 9
M  V30 42 1 38 9
M  V30 43 1 39 11
M  V30 44 1 40 11
M  V30 45 1 41 12
M  V30 46 1 42 12
M  V30 47 1 43 14
M  V30 48 1 44 14
M  V30 49 1 45 15
M  V30 50 1 46 15
M  V30 51 1 16 47 CFG=3
M  V30 52 1 48 21
M  V30 53 1 49 22
M  V30 54 1 50 23
M  V30 55 1 51 24
M  V30 56 1 52 26
M  V30 57 1 53 26
M  V30 58 1 54 27
M  V30 59 1 55 27
M  V30 60 1 13 56 CFG=1
M  V30 END BOND
M  V30 END CTAB
M  END
>  <b_m_subgroup_collapsed>  (123) 
0

>  <r_i_docking_score>  (123) 
-9.1020784412981097

>  <s_m_subgroup_title>  (123) 
glide-dock_SP_D22_pv

>  <s_m_subgroupid>  (123) 
glide-dock_SP_D22_pv

>  <Molecule ChEMBL ID>  (123) 
CHEMBL5779117

>  <Standard Type>  (123) 
Ki

>  <Standard Value>  (123) 
76.0

>  <label>  (123) 
1

$$$$
CHEMBL1423
     RDKit          3D

  0  0  0  0  0  0  0  0  0  0999 V3000
M  V30 BEGIN CTAB
M  V30 COUNTS 64 68 0 0 1
M  V30 BEGIN ATOM
M  V30 1 O 11.285817 9.772239 -7.779988 0
M  V30 2 C 11.361474 9.333528 -6.649612 0
M  V30 3 N 11.976184 9.920694 -5.616972 0
M  V30 4 C 11.965771 9.054112 -4.535754 0
M  V30 5 C 12.481306 9.211728 -3.245808 0
M  V30 6 C 12.428753 8.082733 -2.399980 0
M  V30 7 C 11.857034 6.863054 -2.854887 0
M  V30 8 C 11.288003 6.758895 -4.150340 0
M  V30 9 C 11.324110 7.907205 -4.955793 0
M  V30 10 N 10.820042 8.171920 -6.240499 0
M  V30 11 C 9.675052 7.483793 -6.864802 0 CFG=1
M  V30 12 C 8.810431 8.369684 -7.803014 0
M  V30 13 C 9.176567 8.271493 -9.312095 0
M  V30 14 N 9.285091 6.874469 -9.795243 0 CFG=1 CHG=1
M  V30 15 C 9.575703 6.811437 -11.258255 0
M  V30 16 C 8.439818 6.234334 -12.125016 0
M  V30 17 C 8.377497 4.692619 -12.220052 0
M  V30 18 C 8.024749 4.200053 -13.658684 0
M  V30 19 C 7.020923 3.038751 -13.709118 0
M  V30 20 C 5.845066 3.142976 -12.938020 0
M  V30 21 C 4.954531 2.063505 -12.853884 0
M  V30 22 C 5.198026 0.868617 -13.552713 0
M  V30 23 F 4.336534 -0.171771 -13.448496 0
M  V30 24 C 6.325460 0.776465 -14.385180 0
M  V30 25 C 7.214521 1.864259 -14.484818 0
M  V30 26 C 9.303246 3.971953 -14.461641 0
M  V30 27 C 9.687646 4.883745 -15.463232 0
M  V30 28 C 10.809547 4.638398 -16.277027 0
M  V30 29 C 11.547645 3.455418 -16.102652 0
M  V30 30 F 12.591212 3.178186 -16.917934 0
M  V30 31 C 11.185882 2.556898 -15.083583 0
M  V30 32 C 10.106201 2.837941 -14.232096 0
M  V30 33 C 10.327822 6.165813 -9.011425 0
M  V30 34 C 10.044439 6.139063 -7.502976 0
M  V30 35 H 12.469132 10.801398 -5.640638 0
M  V30 36 H 12.887110 10.162484 -2.927655 0
M  V30 37 H 12.825408 8.150026 -1.397563 0
M  V30 38 H 11.828793 6.006505 -2.197282 0
M  V30 39 H 10.828243 5.842009 -4.490592 0
M  V30 40 H 9.031639 7.253588 -6.014524 0
M  V30 41 H 7.776201 8.164248 -7.599447 0
M  V30 42 H 8.841204 9.407396 -7.500898 0
M  V30 43 H 10.133348 8.743485 -9.517758 0
M  V30 44 H 8.485630 8.842884 -9.921647 0
M  V30 45 H 10.483754 6.241035 -11.457500 0
M  V30 46 H 9.802626 7.815039 -11.626842 0
M  V30 47 H 8.624662 6.609808 -13.128625 0
M  V30 48 H 7.468688 6.648835 -11.850041 0
M  V30 49 H 7.642968 4.366216 -11.485106 0
M  V30 50 H 9.308817 4.230486 -11.887528 0
M  V30 51 H 7.464849 4.985124 -14.162276 0
M  V30 52 H 5.631142 4.037595 -12.371904 0
M  V30 53 H 4.082276 2.172792 -12.242996 0
M  V30 54 H 6.504712 -0.124442 -14.954409 0
M  V30 55 H 8.051628 1.751025 -15.154009 0
M  V30 56 H 9.101971 5.768251 -15.617396 0
M  V30 57 H 11.084422 5.337578 -17.052748 0
M  V30 58 H 11.706721 1.626197 -14.963243 0
M  V30 59 H 9.845175 2.138737 -13.450997 0
M  V30 60 H 10.414888 5.139536 -9.371145 0
M  V30 61 H 11.286371 6.651429 -9.187124 0
M  V30 62 H 9.228430 5.434022 -7.339353 0
M  V30 63 H 10.921774 5.760548 -6.984169 0
M  V30 64 H 8.382093 6.441887 -9.642018 0
M  V30 END ATOM
M  V30 BEGIN BOND
M  V30 1 2 2 1
M  V30 2 1 3 2
M  V30 3 1 4 3
M  V30 4 2 5 4
M  V30 5 1 6 5
M  V30 6 2 7 6
M  V30 7 1 8 7
M  V30 8 1 9 4
M  V30 9 2 9 8
M  V30 10 1 10 2
M  V30 11 1 10 9
M  V30 12 1 11 10
M  V30 13 1 12 11
M  V30 14 1 13 12
M  V30 15 1 14 13
M  V30 16 1 15 14
M  V30 17 1 16 15
M  V30 18 1 17 16
M  V30 19 1 18 17
M  V30 20 1 19 18
M  V30 21 1 20 19
M  V30 22 2 21 20
M  V30 23 1 22 21
M  V30 24 1 23 22
M  V30 25 2 24 22
M  V30 26 2 25 19
M  V30 27 1 25 24
M  V30 28 1 26 18
M  V30 29 1 27 26
M  V30 30 2 28 27
M  V30 31 1 29 28
M  V30 32 1 30 29
M  V30 33 2 31 29
M  V30 34 2 32 26
M  V30 35 1 32 31
M  V30 36 1 33 14
M  V30 37 1 34 11
M  V30 38 1 34 33
M  V30 39 1 35 3
M  V30 40 1 36 5
M  V30 41 1 37 6
M  V30 42 1 38 7
M  V30 43 1 39 8
M  V30 44 1 11 40 CFG=1
M  V30 45 1 41 12
M  V30 46 1 42 12
M  V30 47 1 43 13
M  V30 48 1 44 13
M  V30 49 1 45 15
M  V30 50 1 46 15
M  V30 51 1 47 16
M  V30 52 1 48 16
M  V30 53 1 49 17
M  V30 54 1 50 17
M  V30 55 1 51 18
M  V30 56 1 52 20
M  V30 57 1 53 21
M  V30 58 1 54 24
M  V30 59 1 55 25
M  V30 60 1 56 27
M  V30 61 1 57 28
M  V30 62 1 58 31
M  V30 63 1 59 32
M  V30 64 1 60 33
M  V30 65 1 61 33
M  V30 66 1 62 34
M  V30 67 1 63 34
M  V30 68 1 14 64 CFG=3
M  V30 END BOND
M  V30 END CTAB
M  END
>  <b_m_subgroup_collapsed>  (124) 
0

>  <r_i_docking_score>  (124) 
-9.0959394941432894

>  <s_m_subgroup_title>  (124) 
glide-dock_SP_D22_pv

>  <s_m_subgroupid>  (124) 
glide-dock_SP_D22_pv

>  <Molecule ChEMBL ID>  (124) 
CHEMBL1423

>  <Standard Type>  (124) 
Ki

>  <Standard Value>  (124) 
1.4

>  <label>  (124) 
1

$$$$
CHEMBL5184538
     RDKit          3D

  0  0  0  0  0  0  0  0  0  0999 V3000
M  V30 BEGIN CTAB
M  V30 COUNTS 76 80 0 0 1
M  V30 BEGIN ATOM
M  V30 1 C 11.819953 11.315258 -6.342974 0
M  V30 2 O 11.138062 10.109300 -6.602051 0
M  V30 3 C 11.333248 9.066792 -5.723638 0
M  V30 4 C 12.008950 9.232330 -4.481510 0
M  V30 5 C 12.183902 8.168421 -3.585213 0
M  V30 6 C 11.686029 6.907172 -3.920788 0
M  V30 7 C 11.011431 6.737786 -5.140609 0
M  V30 8 C 10.820825 7.785663 -6.063023 0
M  V30 9 N 10.150495 7.491521 -7.277305 0
M  V30 10 C 10.383688 8.253667 -8.497283 0
M  V30 11 C 10.233853 7.360336 -9.740651 0
M  V30 12 N 8.969660 6.572298 -9.754081 0 CHG=1
M  V30 13 C 8.906103 5.709000 -10.965627 0
M  V30 14 C 7.485358 5.211191 -11.294207 0
M  V30 15 C 7.085135 5.345886 -12.777561 0
M  V30 16 C 7.205515 4.035696 -13.559901 0
M  V30 17 N 6.133541 3.113452 -13.219521 0
M  V30 18 C 5.991540 1.869625 -13.791491 0
M  V30 19 N 4.886135 1.218309 -13.440568 0
M  V30 20 C 4.762502 0.058330 -14.077534 0
M  V30 21 N 3.601901 -0.627661 -13.846894 0
M  V30 22 N 5.611724 -0.502911 -14.929975 0
M  V30 23 C 6.664002 0.274459 -15.176738 0
M  V30 24 N 7.558103 -0.227675 -16.095198 0
M  V30 25 C 8.665005 0.527699 -16.661612 0
M  V30 26 C 9.915051 0.506027 -15.770696 0
M  V30 27 C 10.894848 1.549231 -16.208456 0
M  V30 28 C 11.619447 1.558907 -17.373888 0
M  V30 29 N 12.366435 2.723295 -17.431784 0
M  V30 30 C 12.156822 3.493830 -16.305012 0
M  V30 31 C 12.672576 4.737099 -15.896266 0
M  V30 32 C 12.273733 5.278839 -14.660233 0
M  V30 33 C 11.367510 4.572426 -13.846783 0
M  V30 34 C 10.860609 3.324982 -14.264016 0
M  V30 35 C 11.235300 2.758147 -15.505058 0
M  V30 36 N 6.922699 1.476377 -14.657802 0
M  V30 37 C 8.755761 5.835821 -8.477750 0
M  V30 38 C 8.886795 6.758927 -7.246584 0
M  V30 39 H 11.686000 12.036407 -7.144601 0
M  V30 40 H 11.429109 11.772010 -5.446362 0
M  V30 41 H 12.886022 11.136272 -6.246859 0
M  V30 42 H 12.417167 10.172321 -4.167555 0
M  V30 43 H 12.700452 8.322256 -2.648174 0
M  V30 44 H 11.808261 6.073432 -3.244759 0
M  V30 45 H 10.631901 5.772334 -5.379747 0
M  V30 46 H 9.674377 9.081470 -8.539144 0
M  V30 47 H 11.387247 8.680020 -8.500378 0
M  V30 48 H 10.294490 7.982369 -10.634287 0
M  V30 49 H 11.076924 6.668934 -9.781959 0
M  V30 50 H 9.281933 6.292908 -11.806475 0
M  V30 51 H 9.589641 4.864374 -10.865885 0
M  V30 52 H 7.362000 4.183837 -10.949719 0
M  V30 53 H 6.763697 5.772319 -10.714660 0
M  V30 54 H 6.056727 5.704774 -12.844524 0
M  V30 55 H 7.682902 6.115547 -13.266706 0
M  V30 56 H 7.167717 4.226737 -14.634672 0
M  V30 57 H 8.166136 3.565823 -13.357462 0
M  V30 58 H 5.407071 3.409170 -12.585158 0
M  V30 59 H 3.379237 -1.365893 -14.500418 0
M  V30 60 H 2.812647 -0.099035 -13.498779 0
M  V30 61 H 7.510816 -1.231255 -16.247009 0
M  V30 62 H 8.899812 0.130705 -17.649521 0
M  V30 63 H 8.338313 1.556879 -16.817904 0
M  V30 64 H 9.634184 0.682951 -14.732056 0
M  V30 65 H 10.371052 -0.484436 -15.791514 0
M  V30 66 H 11.652787 0.835003 -18.175520 0
M  V30 67 H 12.974819 2.955056 -18.202965 0
M  V30 68 H 13.375440 5.267988 -16.520853 0
M  V30 69 H 12.669494 6.229418 -14.332561 0
M  V30 70 H 11.063649 4.987259 -12.899205 0
M  V30 71 H 10.181884 2.781209 -13.624033 0
M  V30 72 H 7.769670 5.373024 -8.476089 0
M  V30 73 H 9.483762 5.026726 -8.401817 0
M  V30 74 H 8.758681 6.177202 -6.334572 0
M  V30 75 H 8.086079 7.496974 -7.243020 0
M  V30 76 H 8.198349 7.232631 -9.834599 0
M  V30 END ATOM
M  V30 BEGIN BOND
M  V30 1 1 2 1
M  V30 2 1 3 2
M  V30 3 2 4 3
M  V30 4 1 5 4
M  V30 5 2 6 5
M  V30 6 1 7 6
M  V30 7 1 8 3
M  V30 8 2 8 7
M  V30 9 1 9 8
M  V30 10 1 10 9
M  V30 11 1 11 10
M  V30 12 1 12 11
M  V30 13 1 13 12
M  V30 14 1 14 13
M  V30 15 1 15 14
M  V30 16 1 16 15
M  V30 17 1 17 16
M  V30 18 1 18 17
M  V30 19 1 19 18
M  V30 20 2 20 19
M  V30 21 1 21 20
M  V30 22 1 22 20
M  V30 23 2 23 22
M  V30 24 1 24 23
M  V30 25 1 25 24
M  V30 26 1 26 25
M  V30 27 1 27 26
M  V30 28 2 28 27
M  V30 29 1 29 28
M  V30 30 1 30 29
M  V30 31 2 31 30
M  V30 32 1 32 31
M  V30 33 2 33 32
M  V30 34 1 34 33
M  V30 35 1 35 27
M  V30 36 1 35 30
M  V30 37 2 35 34
M  V30 38 2 36 18
M  V30 39 1 36 23
M  V30 40 1 37 12
M  V30 41 1 38 9
M  V30 42 1 38 37
M  V30 43 1 39 1
M  V30 44 1 40 1
M  V30 45 1 41 1
M  V30 46 1 42 4
M  V30 47 1 43 5
M  V30 48 1 44 6
M  V30 49 1 45 7
M  V30 50 1 46 10
M  V30 51 1 47 10
M  V30 52 1 48 11
M  V30 53 1 49 11
M  V30 54 1 50 13
M  V30 55 1 51 13
M  V30 56 1 52 14
M  V30 57 1 53 14
M  V30 58 1 54 15
M  V30 59 1 55 15
M  V30 60 1 56 16
M  V30 61 1 57 16
M  V30 62 1 58 17
M  V30 63 1 59 21
M  V30 64 1 60 21
M  V30 65 1 61 24
M  V30 66 1 62 25
M  V30 67 1 63 25
M  V30 68 1 64 26
M  V30 69 1 65 26
M  V30 70 1 66 28
M  V30 71 1 67 29
M  V30 72 1 68 31
M  V30 73 1 69 32
M  V30 74 1 70 33
M  V30 75 1 71 34
M  V30 76 1 72 37
M  V30 77 1 73 37
M  V30 78 1 74 38
M  V30 79 1 75 38
M  V30 80 1 76 12
M  V30 END BOND
M  V30 END CTAB
M  END
>  <b_m_subgroup_collapsed>  (125) 
0

>  <r_i_docking_score>  (125) 
-9.0855520402509207

>  <s_m_subgroup_title>  (125) 
glide-dock_SP_D22_pv

>  <s_m_subgroupid>  (125) 
glide-dock_SP_D22_pv

>  <Molecule ChEMBL ID>  (125) 
CHEMBL5184538

>  <Standard Type>  (125) 
Ki

>  <Standard Value>  (125) 
13.0

>  <label>  (125) 
1

$$$$
CHEMBL208274
     RDKit          3D

  0  0  0  0  0  0  0  0  0  0999 V3000
M  V30 BEGIN CTAB
M  V30 COUNTS 60 64 0 0 1
M  V30 BEGIN ATOM
M  V30 1 C 11.686190 11.199610 -6.008180 0
M  V30 2 O 10.901349 10.041609 -6.069434 0
M  V30 3 C 11.288458 9.066936 -5.187022 0
M  V30 4 C 11.689487 9.349360 -3.855597 0
M  V30 5 C 12.087197 8.310310 -2.994911 0
M  V30 6 C 12.081300 6.983006 -3.457501 0
M  V30 7 C 11.667507 6.708185 -4.775502 0
M  V30 8 C 11.269475 7.738926 -5.650966 0
M  V30 9 N 10.853856 7.470181 -6.969179 0
M  V30 10 C 11.610451 8.025432 -8.091829 0
M  V30 11 C 10.708584 8.214060 -9.327695 0
M  V30 12 N 9.881450 7.007575 -9.602300 0 CHG=1
M  V30 13 C 9.086288 7.118242 -10.847720 0
M  V30 14 C 9.724418 6.328308 -11.948440 0
M  V30 15 C 10.879882 6.560046 -12.646035 0
M  V30 16 N 10.970862 5.552781 -13.596033 0
M  V30 17 C 11.909348 5.323974 -14.553880 0
M  V30 18 C 11.745622 4.268005 -15.417782 0
M  V30 19 C 12.765092 4.016558 -16.509649 0
M  V30 20 C 10.612779 3.427500 -15.304637 0
M  V30 21 C 9.652955 3.629425 -14.331691 0
M  V30 22 C 8.474957 2.728302 -14.246533 0
M  V30 23 C 8.597606 1.346443 -14.533654 0
M  V30 24 C 7.492703 0.478049 -14.437324 0
M  V30 25 C 6.236326 0.975423 -14.049429 0
M  V30 26 C 6.087550 2.345473 -13.769583 0
M  V30 27 C 7.194669 3.210855 -13.872921 0
M  V30 28 C 9.829422 4.725626 -13.428297 0
M  V30 29 N 9.108624 5.173815 -12.400658 0
M  V30 30 C 9.071781 6.612340 -8.421916 0
M  V30 31 C 9.978267 6.335958 -7.213475 0
M  V30 32 H 11.644608 11.772393 -6.933863 0
M  V30 33 H 11.285995 11.767201 -5.171392 0
M  V30 34 H 12.738509 10.963587 -5.847413 0
M  V30 35 H 11.684163 10.358842 -3.471475 0
M  V30 36 H 12.389542 8.533248 -1.981820 0
M  V30 37 H 12.384235 6.175807 -2.805872 0
M  V30 38 H 11.677411 5.700241 -5.133901 0
M  V30 39 H 12.445482 7.373128 -8.328186 0
M  V30 40 H 12.072864 8.976411 -7.834513 0
M  V30 41 H 11.321353 8.456351 -10.197087 0
M  V30 42 H 10.044946 9.064798 -9.161803 0
M  V30 43 H 8.942392 8.160026 -11.138320 0
M  V30 44 H 8.086229 6.719444 -10.686546 0
M  V30 45 H 11.630082 7.335852 -12.602004 0
M  V30 46 H 12.750326 6.008980 -14.597212 0
M  V30 47 H 13.753663 4.355937 -16.206886 0
M  V30 48 H 12.833025 2.954804 -16.743412 0
M  V30 49 H 12.486544 4.554913 -17.414644 0
M  V30 50 H 10.494239 2.613270 -16.012157 0
M  V30 51 H 9.555161 0.929275 -14.807448 0
M  V30 52 H 7.612233 -0.574328 -14.653092 0
M  V30 53 H 5.389599 0.309243 -13.972709 0
M  V30 54 H 5.125723 2.734931 -13.470114 0
M  V30 55 H 7.044667 4.258905 -13.661699 0
M  V30 56 H 8.374399 7.414288 -8.180448 0
M  V30 57 H 8.477082 5.725047 -8.644569 0
M  V30 58 H 10.582556 5.446425 -7.393179 0
M  V30 59 H 9.360105 6.161379 -6.331898 0
M  V30 60 H 10.517736 6.240378 -9.762359 0
M  V30 END ATOM
M  V30 BEGIN BOND
M  V30 1 1 2 1
M  V30 2 1 3 2
M  V30 3 2 4 3
M  V30 4 1 5 4
M  V30 5 2 6 5
M  V30 6 1 7 6
M  V30 7 1 8 3
M  V30 8 2 8 7
M  V30 9 1 9 8
M  V30 10 1 10 9
M  V30 11 1 11 10
M  V30 12 1 12 11
M  V30 13 1 13 12
M  V30 14 1 14 13
M  V30 15 2 15 14
M  V30 16 1 16 15
M  V30 17 1 17 16
M  V30 18 2 18 17
M  V30 19 1 19 18
M  V30 20 1 20 18
M  V30 21 2 21 20
M  V30 22 1 22 21
M  V30 23 2 23 22
M  V30 24 1 24 23
M  V30 25 2 25 24
M  V30 26 1 26 25
M  V30 27 1 27 22
M  V30 28 2 27 26
M  V30 29 1 28 16
M  V30 30 1 28 21
M  V30 31 1 29 14
M  V30 32 2 29 28
M  V30 33 1 30 12
M  V30 34 1 31 9
M  V30 35 1 31 30
M  V30 36 1 32 1
M  V30 37 1 33 1
M  V30 38 1 34 1
M  V30 39 1 35 4
M  V30 40 1 36 5
M  V30 41 1 37 6
M  V30 42 1 38 7
M  V30 43 1 39 10
M  V30 44 1 40 10
M  V30 45 1 41 11
M  V30 46 1 42 11
M  V30 47 1 43 13
M  V30 48 1 44 13
M  V30 49 1 45 15
M  V30 50 1 46 17
M  V30 51 1 47 19
M  V30 52 1 48 19
M  V30 53 1 49 19
M  V30 54 1 50 20
M  V30 55 1 51 23
M  V30 56 1 52 24
M  V30 57 1 53 25
M  V30 58 1 54 26
M  V30 59 1 55 27
M  V30 60 1 56 30
M  V30 61 1 57 30
M  V30 62 1 58 31
M  V30 63 1 59 31
M  V30 64 1 60 12
M  V30 END BOND
M  V30 END CTAB
M  END
>  <b_m_subgroup_collapsed>  (126) 
0

>  <r_i_docking_score>  (126) 
-9.0769752464525606

>  <s_m_subgroup_title>  (126) 
glide-dock_SP_D22_pv

>  <s_m_subgroupid>  (126) 
glide-dock_SP_D22_pv

>  <Molecule ChEMBL ID>  (126) 
CHEMBL208274

>  <Standard Type>  (126) 
Ki

>  <Standard Value>  (126) 
28.0

>  <label>  (126) 
1

$$$$
CHEMBL599135
     RDKit          3D

  0  0  0  0  0  0  0  0  0  0999 V3000
M  V30 BEGIN CTAB
M  V30 COUNTS 60 64 0 0 1
M  V30 BEGIN ATOM
M  V30 1 C 12.305861 7.063986 -17.422012 0
M  V30 2 N 12.873818 5.900315 -16.689480 0 CFG=2 CHG=1
M  V30 3 C 13.050763 4.707201 -17.554296 0
M  V30 4 C 11.732736 4.074310 -18.032236 0
M  V30 5 C 11.144844 3.127247 -17.005709 0
M  V30 6 C 10.932160 1.788057 -17.393221 0
M  V30 7 C 10.424916 0.847207 -16.485123 0
M  V30 8 Cl 10.086615 -0.749758 -17.046822 0
M  V30 9 C 10.196712 1.222311 -15.146876 0
M  V30 10 O 9.718715 0.309073 -14.246922 0
M  V30 11 C 10.433823 2.553201 -14.748553 0
M  V30 12 C 10.835826 3.544236 -15.686293 0
M  V30 13 C 10.868618 5.040971 -15.309132 0 CFG=1
M  V30 14 C 10.046123 5.363558 -14.042517 0
M  V30 15 C 8.692808 4.959029 -14.014426 0
M  V30 16 C 7.885093 5.198014 -12.895391 0
M  V30 17 C 8.423929 5.857820 -11.784500 0
M  V30 18 C 9.764289 6.309374 -11.780220 0
M  V30 19 C 10.258641 6.972719 -10.545497 0
M  V30 20 N 9.836715 6.694932 -9.385249 0
M  V30 21 O 10.513863 7.433393 -8.410136 0
M  V30 22 C 10.071460 6.969934 -7.144083 0
M  V30 23 C 10.731298 7.733250 -6.013542 0
M  V30 24 C 11.314647 7.049325 -4.925472 0
M  V30 25 C 11.908134 7.771379 -3.870562 0
M  V30 26 C 11.897455 9.181041 -3.889412 0
M  V30 27 C 11.302124 9.864696 -4.967832 0
M  V30 28 C 10.730471 9.142504 -6.032197 0
M  V30 29 C 10.577732 6.079050 -12.933662 0
M  V30 30 C 12.019075 6.572773 -13.014670 0
M  V30 31 C 12.428548 6.897134 -14.441785 0
M  V30 32 C 12.304343 5.648086 -15.329811 0 CFG=2
M  V30 33 H 11.232216 6.972377 -17.580990 0
M  V30 34 H 12.773106 7.172986 -18.401724 0
M  V30 35 H 12.490836 8.001241 -16.897766 0
M  V30 36 H 13.628489 5.017451 -18.426580 0
M  V30 37 H 13.668920 3.964379 -17.046682 0
M  V30 38 H 10.990985 4.817929 -18.321051 0
M  V30 39 H 11.941715 3.514301 -18.944525 0
M  V30 40 H 11.137596 1.472884 -18.405945 0
M  V30 41 H 9.716406 0.577289 -13.327202 0
M  V30 42 H 10.236755 2.813490 -13.718287 0
M  V30 43 H 10.294324 5.547227 -16.085096 0
M  V30 44 H 8.274912 4.426667 -14.853025 0
M  V30 45 H 6.855831 4.869479 -12.880823 0
M  V30 46 H 7.782240 6.031589 -10.929403 0
M  V30 47 H 11.039865 7.725585 -10.662644 0
M  V30 48 H 8.988393 7.087564 -7.051408 0
M  V30 49 H 10.289739 5.904644 -7.044533 0
M  V30 50 H 11.312250 5.969590 -4.895964 0
M  V30 51 H 12.359473 7.244043 -3.043478 0
M  V30 52 H 12.342132 9.735576 -3.074917 0
M  V30 53 H 11.285897 10.944411 -4.985618 0
M  V30 54 H 10.277975 9.669824 -6.859545 0
M  V30 55 H 12.188408 7.461882 -12.411383 0
M  V30 56 H 12.684045 5.796273 -12.646896 0
M  V30 57 H 11.791615 7.704466 -14.804777 0
M  V30 58 H 13.453998 7.270256 -14.447622 0
M  V30 59 H 12.957669 4.907206 -14.866172 0
M  V30 60 H 13.822784 6.186686 -16.493444 0
M  V30 END ATOM
M  V30 BEGIN BOND
M  V30 1 1 2 1
M  V30 2 1 3 2
M  V30 3 1 4 3
M  V30 4 1 5 4
M  V30 5 1 6 5
M  V30 6 2 7 6
M  V30 7 1 8 7
M  V30 8 1 9 7
M  V30 9 1 10 9
M  V30 10 2 11 9
M  V30 11 2 12 5
M  V30 12 1 12 11
M  V30 13 1 13 12
M  V30 14 1 14 13
M  V30 15 2 15 14
M  V30 16 1 16 15
M  V30 17 2 17 16
M  V30 18 1 18 17
M  V30 19 1 19 18
M  V30 20 2 20 19
M  V30 21 1 21 20
M  V30 22 1 22 21
M  V30 23 1 23 22
M  V30 24 2 24 23
M  V30 25 1 25 24
M  V30 26 2 26 25
M  V30 27 1 27 26
M  V30 28 1 28 23
M  V30 29 2 28 27
M  V30 30 1 29 14
M  V30 31 2 29 18
M  V30 32 1 30 29
M  V30 33 1 31 30
M  V30 34 1 32 2
M  V30 35 1 32 13
M  V30 36 1 32 31
M  V30 37 1 33 1
M  V30 38 1 34 1
M  V30 39 1 35 1
M  V30 40 1 36 3
M  V30 41 1 37 3
M  V30 42 1 38 4
M  V30 43 1 39 4
M  V30 44 1 40 6
M  V30 45 1 41 10
M  V30 46 1 42 11
M  V30 47 1 13 43 CFG=3
M  V30 48 1 44 15
M  V30 49 1 45 16
M  V30 50 1 46 17
M  V30 51 1 47 19
M  V30 52 1 48 22
M  V30 53 1 49 22
M  V30 54 1 50 24
M  V30 55 1 51 25
M  V30 56 1 52 26
M  V30 57 1 53 27
M  V30 58 1 54 28
M  V30 59 1 55 30
M  V30 60 1 56 30
M  V30 61 1 57 31
M  V30 62 1 58 31
M  V30 63 1 32 59 CFG=1
M  V30 64 1 2 60 CFG=1
M  V30 END BOND
M  V30 END CTAB
M  END
>  <b_m_subgroup_collapsed>  (127) 
0

>  <r_i_docking_score>  (127) 
-9.0743616262436895

>  <s_m_subgroup_title>  (127) 
glide-dock_SP_D22_pv

>  <s_m_subgroupid>  (127) 
glide-dock_SP_D22_pv

>  <Molecule ChEMBL ID>  (127) 
CHEMBL599135

>  <Standard Type>  (127) 
Ki

>  <Standard Value>  (127) 
69.0

>  <label>  (127) 
1

$$$$
CHEMBL5949172
     RDKit          3D

  0  0  0  0  0  0  0  0  0  0999 V3000
M  V30 BEGIN CTAB
M  V30 COUNTS 51 55 0 0 1
M  V30 BEGIN ATOM
M  V30 1 C 10.136536 0.217234 -15.761415 0
M  V30 2 N 9.588736 1.382328 -15.100866 0
M  V30 3 C 10.269036 2.472778 -14.580780 0
M  V30 4 C 9.294208 3.256829 -14.046029 0
M  V30 5 C 8.072431 2.614051 -14.283665 0
M  V30 6 N 8.240407 1.472472 -14.930832 0
M  V30 7 C 6.761814 3.154301 -13.821246 0
M  V30 8 C 6.972469 4.172349 -12.667911 0
M  V30 9 N 8.273665 4.897179 -12.623138 0
M  V30 10 C 8.301897 5.970722 -11.623211 0
M  V30 11 C 9.158898 5.580258 -10.405237 0
M  V30 12 N 8.886025 6.446598 -9.236174 0 CFG=1 CHG=1
M  V30 13 C 8.623788 5.684658 -8.004307 0
M  V30 14 C 8.686567 6.701689 -6.875480 0
M  V30 15 C 9.501785 7.868698 -7.451910 0 CFG=1
M  V30 16 C 10.550065 8.514570 -6.563296 0
M  V30 17 N 10.886284 9.772124 -6.828632 0
M  V30 18 O 11.669897 10.264324 -5.754860 0
M  V30 19 C 11.851016 9.259306 -4.825973 0
M  V30 20 C 12.469584 9.268473 -3.568086 0
M  V30 21 C 12.484843 8.068638 -2.831736 0
M  V30 22 C 11.923431 6.895078 -3.382486 0
M  V30 23 C 11.290220 6.916124 -4.647117 0
M  V30 24 C 11.219369 8.132082 -5.366424 0
M  V30 25 C 9.949952 7.397568 -8.842439 0
M  V30 26 C 9.400306 4.536065 -13.292258 0
M  V30 27 O 10.464799 5.152567 -13.245854 0
M  V30 28 H 11.225574 0.271213 -15.775655 0
M  V30 29 H 9.832793 -0.684603 -15.229010 0
M  V30 30 H 9.768265 0.167769 -16.786797 0
M  V30 31 H 11.343848 2.575797 -14.615320 0
M  V30 32 H 6.261003 3.656512 -14.646363 0
M  V30 33 H 6.096067 2.351491 -13.502608 0
M  V30 34 H 6.886376 3.642288 -11.719262 0
M  V30 35 H 6.140955 4.878754 -12.678822 0
M  V30 36 H 7.285386 6.171758 -11.293287 0
M  V30 37 H 8.663901 6.897344 -12.070415 0
M  V30 38 H 10.216572 5.614286 -10.652530 0
M  V30 39 H 8.940034 4.543938 -10.147765 0
M  V30 40 H 9.417814 4.951469 -7.858082 0
M  V30 41 H 7.685997 5.143147 -8.038908 0
M  V30 42 H 9.071026 6.231265 -5.977534 0
M  V30 43 H 7.686162 7.058320 -6.646700 0
M  V30 44 H 8.756521 8.643378 -7.651076 0
M  V30 45 H 12.893740 10.172414 -3.162332 0
M  V30 46 H 12.925489 8.048978 -1.847170 0
M  V30 47 H 11.958982 5.972560 -2.819696 0
M  V30 48 H 10.876803 5.999048 -5.030017 0
M  V30 49 H 10.056008 8.218901 -9.552485 0
M  V30 50 H 10.906160 6.876217 -8.773990 0
M  V30 51 H 8.033356 6.972719 -9.432369 0
M  V30 END ATOM
M  V30 BEGIN BOND
M  V30 1 1 2 1
M  V30 2 1 3 2
M  V30 3 2 4 3
M  V30 4 1 5 4
M  V30 5 1 6 2
M  V30 6 2 6 5
M  V30 7 1 7 5
M  V30 8 1 8 7
M  V30 9 1 9 8
M  V30 10 1 10 9
M  V30 11 1 11 10
M  V30 12 1 12 11
M  V30 13 1 13 12
M  V30 14 1 14 13
M  V30 15 1 15 14
M  V30 16 1 16 15
M  V30 17 2 17 16
M  V30 18 1 18 17
M  V30 19 1 19 18
M  V30 20 2 20 19
M  V30 21 1 21 20
M  V30 22 2 22 21
M  V30 23 1 23 22
M  V30 24 1 24 16
M  V30 25 1 24 19
M  V30 26 2 24 23
M  V30 27 1 25 12
M  V30 28 1 25 15
M  V30 29 1 26 4
M  V30 30 1 26 9
M  V30 31 2 27 26
M  V30 32 1 28 1
M  V30 33 1 29 1
M  V30 34 1 30 1
M  V30 35 1 31 3
M  V30 36 1 32 7
M  V30 37 1 33 7
M  V30 38 1 34 8
M  V30 39 1 35 8
M  V30 40 1 36 10
M  V30 41 1 37 10
M  V30 42 1 38 11
M  V30 43 1 39 11
M  V30 44 1 40 13
M  V30 45 1 41 13
M  V30 46 1 42 14
M  V30 47 1 43 14
M  V30 48 1 15 44 CFG=3
M  V30 49 1 45 20
M  V30 50 1 46 21
M  V30 51 1 47 22
M  V30 52 1 48 23
M  V30 53 1 49 25
M  V30 54 1 50 25
M  V30 55 1 12 51 CFG=3
M  V30 END BOND
M  V30 END CTAB
M  END
>  <b_m_subgroup_collapsed>  (128) 
0

>  <r_i_docking_score>  (128) 
-9.0733103394910692

>  <s_m_subgroup_title>  (128) 
glide-dock_SP_D22_pv

>  <s_m_subgroupid>  (128) 
glide-dock_SP_D22_pv

>  <Molecule ChEMBL ID>  (128) 
CHEMBL5949172

>  <Standard Type>  (128) 
Ki

>  <Standard Value>  (128) 
10000.0

>  <label>  (128) 
0

$$$$
CHEMBL1765629
     RDKit          3D

  0  0  0  0  0  0  0  0  0  0999 V3000
M  V30 BEGIN CTAB
M  V30 COUNTS 67 70 0 0 1
M  V30 BEGIN ATOM
M  V30 1 C 10.882908 0.067347 -16.889555 0
M  V30 2 C 9.960781 1.151511 -16.334347 0
M  V30 3 C 9.764427 1.053471 -14.800337 0
M  V30 4 N 8.644787 1.882955 -14.259722 0 CFG=1 CHG=1
M  V30 5 C 8.581314 3.275598 -14.795727 0
M  V30 6 C 9.803973 4.133498 -14.412358 0
M  V30 7 C 9.928747 4.467066 -12.913791 0
M  V30 8 C 8.774446 5.329457 -12.366160 0
M  V30 9 N 9.093843 5.853660 -11.044240 0
M  V30 10 C 9.739879 7.009845 -10.820699 0
M  V30 11 O 10.106703 7.759180 -11.726788 0
M  V30 12 C 10.107215 7.294381 -9.391771 0
M  V30 13 C 9.338550 6.789915 -8.317804 0
M  V30 14 C 9.727545 7.038493 -6.988298 0
M  V30 15 C 10.872218 7.812133 -6.701791 0
M  V30 16 C 11.286468 8.048965 -5.312201 0
M  V30 17 C 11.684915 6.972345 -4.488767 0
M  V30 18 C 12.085931 7.189533 -3.156536 0
M  V30 19 C 12.086713 8.495628 -2.633750 0
M  V30 20 C 11.692473 9.575006 -3.445287 0
M  V30 21 C 11.300743 9.355177 -4.779401 0
M  V30 22 C 11.615592 8.348270 -7.774566 0
M  V30 23 C 11.237129 8.094277 -9.106595 0
M  V30 24 C 7.336664 1.148163 -14.152637 0 CFG=1
M  V30 25 C 6.175091 1.975542 -13.531042 0
M  V30 26 C 4.960764 1.093281 -13.182275 0
M  V30 27 N 4.706395 0.108530 -14.220437 0
M  V30 28 N 3.578495 -0.628756 -14.205231 0
M  V30 29 C 3.687913 -1.422340 -15.264868 0
M  V30 30 C 4.905597 -1.215489 -15.973720 0
M  V30 31 C 5.537227 -0.231626 -15.266366 0
M  V30 32 C 6.852175 0.459072 -15.453410 0
M  V30 33 H 10.962258 0.140247 -17.975275 0
M  V30 34 H 10.508118 -0.929366 -16.648832 0
M  V30 35 H 11.885648 0.173496 -16.484163 0
M  V30 36 H 10.378523 2.124435 -16.601427 0
M  V30 37 H 9.009569 1.081824 -16.860468 0
M  V30 38 H 9.617430 0.012822 -14.503274 0
M  V30 39 H 10.689737 1.356109 -14.306761 0
M  V30 40 H 8.485757 3.251994 -15.880895 0
M  V30 41 H 7.700725 3.803338 -14.438862 0
M  V30 42 H 10.724183 3.661029 -14.755033 0
M  V30 43 H 9.750511 5.073377 -14.962464 0
M  V30 44 H 10.022619 3.552408 -12.324721 0
M  V30 45 H 10.868861 5.003572 -12.777869 0
M  V30 46 H 8.548493 6.151366 -13.048453 0
M  V30 47 H 7.862540 4.738379 -12.282728 0
M  V30 48 H 8.807544 5.311159 -10.243233 0
M  V30 49 H 8.440597 6.214331 -8.496741 0
M  V30 50 H 9.131267 6.636873 -6.181665 0
M  V30 51 H 11.680624 5.965433 -4.882836 0
M  V30 52 H 12.380481 6.354599 -2.537663 0
M  V30 53 H 12.381061 8.672853 -1.609376 0
M  V30 54 H 11.687120 10.573588 -3.037358 0
M  V30 55 H 10.999480 10.192411 -5.392709 0
M  V30 56 H 12.491438 8.950112 -7.575320 0
M  V30 57 H 11.832178 8.507019 -9.909392 0
M  V30 58 H 7.538891 0.340761 -13.446756 0
M  V30 59 H 6.485995 2.540414 -12.650217 0
M  V30 60 H 5.832921 2.720486 -14.247779 0
M  V30 61 H 5.140619 0.559771 -12.248590 0
M  V30 62 H 4.073352 1.713403 -13.047261 0
M  V30 63 H 2.886476 -2.112445 -15.490357 0
M  V30 64 H 5.257297 -1.723331 -16.859941 0
M  V30 65 H 6.749382 1.195250 -16.250845 0
M  V30 66 H 7.576174 -0.280742 -15.791520 0
M  V30 67 H 8.905634 2.009673 -13.290481 0
M  V30 END ATOM
M  V30 BEGIN BOND
M  V30 1 1 2 1
M  V30 2 1 3 2
M  V30 3 1 4 3
M  V30 4 1 5 4
M  V30 5 1 6 5
M  V30 6 1 7 6
M  V30 7 1 8 7
M  V30 8 1 9 8
M  V30 9 1 10 9
M  V30 10 2 11 10
M  V30 11 1 12 10
M  V30 12 1 13 12
M  V30 13 2 14 13
M  V30 14 1 15 14
M  V30 15 1 16 15
M  V30 16 2 17 16
M  V30 17 1 18 17
M  V30 18 2 19 18
M  V30 19 1 20 19
M  V30 20 1 21 16
M  V30 21 2 21 20
M  V30 22 2 22 15
M  V30 23 2 23 12
M  V30 24 1 23 22
M  V30 25 1 24 4
M  V30 26 1 25 24
M  V30 27 1 26 25
M  V30 28 1 27 26
M  V30 29 1 28 27
M  V30 30 2 29 28
M  V30 31 1 30 29
M  V30 32 1 31 27
M  V30 33 2 31 30
M  V30 34 1 32 24
M  V30 35 1 32 31
M  V30 36 1 33 1
M  V30 37 1 34 1
M  V30 38 1 35 1
M  V30 39 1 36 2
M  V30 40 1 37 2
M  V30 41 1 38 3
M  V30 42 1 39 3
M  V30 43 1 40 5
M  V30 44 1 41 5
M  V30 45 1 42 6
M  V30 46 1 43 6
M  V30 47 1 44 7
M  V30 48 1 45 7
M  V30 49 1 46 8
M  V30 50 1 47 8
M  V30 51 1 48 9
M  V30 52 1 49 13
M  V30 53 1 50 14
M  V30 54 1 51 17
M  V30 55 1 52 18
M  V30 56 1 53 19
M  V30 57 1 54 20
M  V30 58 1 55 21
M  V30 59 1 56 22
M  V30 60 1 57 23
M  V30 61 1 24 58 CFG=1
M  V30 62 1 59 25
M  V30 63 1 60 25
M  V30 64 1 61 26
M  V30 65 1 62 26
M  V30 66 1 63 29
M  V30 67 1 64 30
M  V30 68 1 65 32
M  V30 69 1 66 32
M  V30 70 1 4 67 CFG=1
M  V30 END BOND
M  V30 END CTAB
M  END
>  <b_m_subgroup_collapsed>  (129) 
0

>  <r_i_docking_score>  (129) 
-9.0732240048809398

>  <s_m_subgroup_title>  (129) 
glide-dock_SP_D22_pv

>  <s_m_subgroupid>  (129) 
glide-dock_SP_D22_pv

>  <Molecule ChEMBL ID>  (129) 
CHEMBL1765629

>  <Standard Type>  (129) 
Ki

>  <Standard Value>  (129) 
77.0

>  <label>  (129) 
1

$$$$
CHEMBL4574793
     RDKit          3D

  0  0  0  0  0  0  0  0  0  0999 V3000
M  V30 BEGIN CTAB
M  V30 COUNTS 50 52 0 0 1
M  V30 BEGIN ATOM
M  V30 1 O 10.547412 8.681976 -6.947050 0
M  V30 2 C 10.860379 7.783837 -6.165662 0
M  V30 3 C 10.711209 6.312056 -6.571036 0
M  V30 4 C 10.309873 6.057275 -8.025934 0
M  V30 5 C 8.838247 6.400469 -8.349728 0
M  V30 6 N 8.486834 6.172485 -9.773928 0 CFG=2 CHG=1
M  V30 7 C 8.391191 4.737424 -10.137197 0
M  V30 8 C 7.535796 4.530707 -11.400527 0
M  V30 9 C 8.371573 4.535987 -12.689081 0
M  V30 10 N 9.242764 5.703419 -12.803879 0
M  V30 11 C 10.426126 5.622419 -13.576895 0
M  V30 12 C 10.579135 4.630412 -14.575751 0
M  V30 13 C 11.720675 4.653464 -15.397629 0
M  V30 14 C 12.678166 5.664547 -15.206525 0
M  V30 15 Cl 14.064858 5.773872 -16.228100 0
M  V30 16 C 12.466066 6.588770 -14.167300 0
M  V30 17 N 11.378384 6.566293 -13.366859 0
M  V30 18 C 8.871419 6.963419 -12.150428 0
M  V30 19 C 9.326176 6.990219 -10.691091 0
M  V30 20 C 11.394949 8.037963 -4.799824 0
M  V30 21 C 11.794843 6.974495 -3.953104 0
M  V30 22 C 12.346869 7.235635 -2.687277 0
M  V30 23 C 12.484800 8.560699 -2.245776 0
M  V30 24 F 13.048329 8.815185 -1.046897 0
M  V30 25 C 12.036735 9.622962 -3.049619 0
M  V30 26 C 11.509360 9.365845 -4.329612 0
M  V30 27 H 9.987133 5.852317 -5.903144 0
M  V30 28 H 11.668722 5.820948 -6.401109 0
M  V30 29 H 10.486514 5.006198 -8.251894 0
M  V30 30 H 11.002581 6.617717 -8.649282 0
M  V30 31 H 8.630219 7.446080 -8.116857 0
M  V30 32 H 8.165344 5.826714 -7.711711 0
M  V30 33 H 7.936360 4.189767 -9.312340 0
M  V30 34 H 9.387903 4.308612 -10.261898 0
M  V30 35 H 6.738737 5.276353 -11.448380 0
M  V30 36 H 7.008132 3.579324 -11.332027 0
M  V30 37 H 7.720664 4.482997 -13.562775 0
M  V30 38 H 8.983539 3.632977 -12.694165 0
M  V30 39 H 9.826433 3.877759 -14.754531 0
M  V30 40 H 11.846921 3.920859 -16.181526 0
M  V30 41 H 13.182225 7.373550 -13.975297 0
M  V30 42 H 9.330023 7.816193 -12.646840 0
M  V30 43 H 7.796113 7.132744 -12.230874 0
M  V30 44 H 9.289844 8.024595 -10.344123 0
M  V30 45 H 10.370687 6.683182 -10.658265 0
M  V30 46 H 11.703723 5.940899 -4.249383 0
M  V30 47 H 12.667307 6.416525 -2.059603 0
M  V30 48 H 12.088483 10.635785 -2.673996 0
M  V30 49 H 11.187726 10.198148 -4.938868 0
M  V30 50 H 7.552457 6.587136 -9.862084 0
M  V30 END ATOM
M  V30 BEGIN BOND
M  V30 1 2 2 1
M  V30 2 1 3 2
M  V30 3 1 4 3
M  V30 4 1 5 4
M  V30 5 1 6 5
M  V30 6 1 7 6
M  V30 7 1 8 7
M  V30 8 1 9 8
M  V30 9 1 10 9
M  V30 10 1 11 10
M  V30 11 1 12 11
M  V30 12 2 13 12
M  V30 13 1 14 13
M  V30 14 1 15 14
M  V30 15 2 16 14
M  V30 16 2 17 11
M  V30 17 1 17 16
M  V30 18 1 18 10
M  V30 19 1 19 6
M  V30 20 1 19 18
M  V30 21 1 20 2
M  V30 22 1 21 20
M  V30 23 2 22 21
M  V30 24 1 23 22
M  V30 25 1 24 23
M  V30 26 2 25 23
M  V30 27 2 26 20
M  V30 28 1 26 25
M  V30 29 1 27 3
M  V30 30 1 28 3
M  V30 31 1 29 4
M  V30 32 1 30 4
M  V30 33 1 31 5
M  V30 34 1 32 5
M  V30 35 1 33 7
M  V30 36 1 34 7
M  V30 37 1 35 8
M  V30 38 1 36 8
M  V30 39 1 37 9
M  V30 40 1 38 9
M  V30 41 1 39 12
M  V30 42 1 40 13
M  V30 43 1 41 16
M  V30 44 1 42 18
M  V30 45 1 43 18
M  V30 46 1 44 19
M  V30 47 1 45 19
M  V30 48 1 46 21
M  V30 49 1 47 22
M  V30 50 1 48 25
M  V30 51 1 49 26
M  V30 52 1 6 50 CFG=1
M  V30 END BOND
M  V30 END CTAB
M  END
>  <b_m_subgroup_collapsed>  (130) 
0

>  <r_i_docking_score>  (130) 
-9.0719761464560307

>  <s_m_subgroup_title>  (130) 
glide-dock_SP_D22_pv

>  <s_m_subgroupid>  (130) 
glide-dock_SP_D22_pv

>  <Molecule ChEMBL ID>  (130) 
CHEMBL4574793

>  <Standard Type>  (130) 
Ki

>  <Standard Value>  (130) 
41.0

>  <label>  (130) 
1

$$$$
CHEMBL493069
     RDKit          3D

  0  0  0  0  0  0  0  0  0  0999 V3000
M  V30 BEGIN CTAB
M  V30 COUNTS 55 58 0 0 1
M  V30 BEGIN ATOM
M  V30 1 C 5.283883 -1.655513 -15.851437 0
M  V30 2 O 6.139472 -0.534384 -15.689469 0
M  V30 3 C 6.003510 0.247276 -14.605080 0
M  V30 4 O 5.178478 0.054097 -13.711141 0
M  V30 5 C 6.927710 1.410434 -14.601368 0
M  V30 6 C 8.105556 1.444954 -15.305147 0
M  V30 7 O 8.776948 2.618400 -15.099773 0
M  V30 8 C 8.005668 3.342968 -14.246737 0
M  V30 9 C 6.860867 2.674928 -13.940566 0
M  V30 10 C 5.877818 3.324798 -13.058976 0
M  V30 11 O 4.885770 2.742347 -12.646758 0
M  V30 12 C 6.121106 4.807578 -12.730311 0
M  V30 13 C 7.619534 5.205104 -12.599457 0 CFG=1
M  V30 14 C 8.208610 4.708016 -11.248690 0
M  V30 15 N 8.502635 5.769706 -10.246636 0 CFG=1 CHG=1
M  V30 16 C 8.828289 5.166043 -8.923286 0
M  V30 17 C 9.009887 6.239747 -7.843401 0
M  V30 18 C 10.169971 7.183204 -8.191409 0 CFG=2
M  V30 19 C 10.251958 8.328829 -7.164970 0
M  V30 20 O 9.686017 9.372299 -7.448080 0
M  V30 21 C 10.966630 8.186059 -5.863110 0
M  V30 22 C 11.285929 6.932918 -5.299684 0
M  V30 23 C 11.825143 6.852720 -3.999350 0
M  V30 24 C 12.086001 8.021152 -3.262636 0
M  V30 25 F 12.568241 7.938097 -2.000906 0
M  V30 26 C 11.811612 9.276484 -3.828229 0
M  V30 27 C 11.253992 9.358828 -5.118171 0
M  V30 28 C 9.908742 7.746207 -9.618684 0
M  V30 29 C 9.607670 6.666479 -10.670927 0
M  V30 30 C 8.466597 4.691193 -13.801305 0
M  V30 31 H 5.535501 -2.182865 -16.771416 0
M  V30 32 H 5.396750 -2.353500 -15.020517 0
M  V30 33 H 4.239916 -1.347450 -15.907542 0
M  V30 34 H 8.600917 0.745064 -15.960680 0
M  V30 35 H 5.659181 5.376800 -13.533784 0
M  V30 36 H 5.581009 5.068134 -11.819886 0
M  V30 37 H 7.656074 6.293015 -12.620210 0
M  V30 38 H 7.502348 4.014065 -10.793939 0
M  V30 39 H 9.117443 4.126338 -11.409732 0
M  V30 40 H 8.047104 4.476871 -8.610460 0
M  V30 41 H 9.736089 4.565713 -9.005333 0
M  V30 42 H 9.173871 5.772282 -6.876149 0
M  V30 43 H 8.086672 6.806885 -7.732239 0
M  V30 44 H 11.109581 6.632288 -8.181026 0
M  V30 45 H 11.095227 6.016255 -5.834355 0
M  V30 46 H 12.035746 5.887099 -3.563565 0
M  V30 47 H 12.005908 10.172656 -3.257807 0
M  V30 48 H 11.020572 10.335337 -5.519244 0
M  V30 49 H 10.762460 8.342264 -9.943198 0
M  V30 50 H 9.049931 8.421900 -9.614205 0
M  V30 51 H 10.486999 6.061622 -10.857287 0
M  V30 52 H 9.369258 7.161039 -11.611484 0
M  V30 53 H 9.533599 4.681983 -13.574049 0
M  V30 54 H 8.350600 5.378239 -14.640980 0
M  V30 55 H 7.667984 6.345819 -10.135951 0
M  V30 END ATOM
M  V30 BEGIN BOND
M  V30 1 1 2 1
M  V30 2 1 3 2
M  V30 3 2 4 3
M  V30 4 1 5 3
M  V30 5 2 6 5
M  V30 6 1 7 6
M  V30 7 1 8 7
M  V30 8 1 9 5
M  V30 9 2 9 8
M  V30 10 1 10 9
M  V30 11 2 11 10
M  V30 12 1 12 10
M  V30 13 1 13 12
M  V30 14 1 14 13
M  V30 15 1 15 14
M  V30 16 1 16 15
M  V30 17 1 17 16
M  V30 18 1 18 17
M  V30 19 1 19 18
M  V30 20 2 20 19
M  V30 21 1 21 19
M  V30 22 1 22 21
M  V30 23 2 23 22
M  V30 24 1 24 23
M  V30 25 1 25 24
M  V30 26 2 26 24
M  V30 27 2 27 21
M  V30 28 1 27 26
M  V30 29 1 28 18
M  V30 30 1 29 15
M  V30 31 1 29 28
M  V30 32 1 30 8
M  V30 33 1 30 13
M  V30 34 1 31 1
M  V30 35 1 32 1
M  V30 36 1 33 1
M  V30 37 1 34 6
M  V30 38 1 35 12
M  V30 39 1 36 12
M  V30 40 1 13 37 CFG=1
M  V30 41 1 38 14
M  V30 42 1 39 14
M  V30 43 1 40 16
M  V30 44 1 41 16
M  V30 45 1 42 17
M  V30 46 1 43 17
M  V30 47 1 18 44 CFG=3
M  V30 48 1 45 22
M  V30 49 1 46 23
M  V30 50 1 47 26
M  V30 51 1 48 27
M  V30 52 1 49 28
M  V30 53 1 50 28
M  V30 54 1 51 29
M  V30 55 1 52 29
M  V30 56 1 53 30
M  V30 57 1 54 30
M  V30 58 1 15 55 CFG=1
M  V30 END BOND
M  V30 END CTAB
M  END
>  <b_m_subgroup_collapsed>  (131) 
0

>  <r_i_docking_score>  (131) 
-9.0695800771470196

>  <s_m_subgroup_title>  (131) 
glide-dock_SP_D22_pv

>  <s_m_subgroupid>  (131) 
glide-dock_SP_D22_pv

>  <Molecule ChEMBL ID>  (131) 
CHEMBL493069

>  <Standard Type>  (131) 
Ki

>  <Standard Value>  (131) 
10000.0

>  <label>  (131) 
0

$$$$
CHEMBL4528835
     RDKit          3D

  0  0  0  0  0  0  0  0  0  0999 V3000
M  V30 BEGIN CTAB
M  V30 COUNTS 50 53 0 0 1
M  V30 BEGIN ATOM
M  V30 1 O 10.365891 4.810056 -13.054660 0
M  V30 2 C 9.376881 4.163843 -13.411969 0
M  V30 3 C 7.979656 4.596854 -12.926860 0
M  V30 4 C 8.004340 5.660829 -11.807607 0
M  V30 5 C 8.469324 5.091583 -10.447815 0
M  V30 6 N 8.756129 6.141311 -9.432073 0 CFG=1 CHG=1
M  V30 7 C 8.642423 5.607072 -8.050487 0
M  V30 8 C 8.766816 6.686535 -6.955987 0
M  V30 9 C 9.908359 7.666313 -7.186617 0 CFG=2
M  V30 10 C 10.726921 7.900578 -5.931476 0
M  V30 11 C 10.886762 9.204413 -5.403492 0
M  V30 12 C 11.519202 9.411414 -4.165417 0
M  V30 13 C 12.001816 8.318400 -3.426761 0
M  V30 14 Cl 12.641767 8.572352 -1.847912 0
M  V30 15 C 11.903805 7.020754 -3.959620 0
M  V30 16 C 11.285823 6.815700 -5.209806 0
M  V30 17 C 9.633901 8.823213 -8.139679 0
M  V30 18 C 10.534959 7.710641 -8.566517 0 CFG=2
M  V30 19 C 10.091393 6.765339 -9.667074 0
M  V30 20 C 9.475820 2.969050 -14.303761 0
M  V30 21 C 8.357731 2.153597 -14.612226 0
M  V30 22 C 8.513782 0.996329 -15.404902 0
M  V30 23 C 9.778414 0.652176 -15.917537 0
M  V30 24 F 9.930713 -0.463316 -16.669424 0
M  V30 25 C 10.886222 1.476167 -15.647439 0
M  V30 26 C 10.738431 2.620055 -14.841163 0
M  V30 27 H 7.436042 4.986502 -13.786060 0
M  V30 28 H 7.429931 3.726885 -12.570643 0
M  V30 29 H 8.627415 6.499932 -12.118953 0
M  V30 30 H 7.000903 6.072889 -11.689667 0
M  V30 31 H 7.686585 4.422508 -10.089028 0
M  V30 32 H 9.351157 4.459411 -10.563129 0
M  V30 33 H 7.686088 5.102076 -7.922841 0
M  V30 34 H 9.416770 4.853625 -7.908298 0
M  V30 35 H 7.848815 7.257336 -6.842682 0
M  V30 36 H 8.885447 6.174490 -6.002106 0
M  V30 37 H 10.477000 10.066520 -5.904317 0
M  V30 38 H 11.589004 10.409744 -3.756050 0
M  V30 39 H 12.277987 6.173667 -3.401478 0
M  V30 40 H 11.195700 5.798387 -5.582320 0
M  V30 41 H 8.654368 8.884810 -8.612176 0
M  V30 42 H 10.132371 9.771235 -7.986949 0
M  V30 43 H 11.591187 7.967563 -8.614344 0
M  V30 44 H 10.847569 5.984604 -9.742929 0
M  V30 45 H 10.099894 7.307646 -10.614113 0
M  V30 46 H 7.371598 2.377017 -14.233077 0
M  V30 47 H 7.660790 0.365648 -15.615297 0
M  V30 48 H 11.853949 1.218061 -16.048992 0
M  V30 49 H 11.611577 3.225013 -14.630667 0
M  V30 50 H 8.026719 6.847863 -9.532197 0
M  V30 END ATOM
M  V30 BEGIN BOND
M  V30 1 2 2 1
M  V30 2 1 3 2
M  V30 3 1 4 3
M  V30 4 1 5 4
M  V30 5 1 6 5
M  V30 6 1 7 6
M  V30 7 1 8 7
M  V30 8 1 9 8
M  V30 9 1 9 10 CFG=1
M  V30 10 1 11 10
M  V30 11 2 12 11
M  V30 12 1 13 12
M  V30 13 1 14 13
M  V30 14 2 15 13
M  V30 15 2 16 10
M  V30 16 1 16 15
M  V30 17 1 17 9
M  V30 18 1 18 9
M  V30 19 1 18 17
M  V30 20 1 19 6
M  V30 21 1 19 18
M  V30 22 1 20 2
M  V30 23 1 21 20
M  V30 24 2 22 21
M  V30 25 1 23 22
M  V30 26 1 24 23
M  V30 27 2 25 23
M  V30 28 2 26 20
M  V30 29 1 26 25
M  V30 30 1 27 3
M  V30 31 1 28 3
M  V30 32 1 29 4
M  V30 33 1 30 4
M  V30 34 1 31 5
M  V30 35 1 32 5
M  V30 36 1 33 7
M  V30 37 1 34 7
M  V30 38 1 35 8
M  V30 39 1 36 8
M  V30 40 1 37 11
M  V30 41 1 38 12
M  V30 42 1 39 15
M  V30 43 1 40 16
M  V30 44 1 41 17
M  V30 45 1 42 17
M  V30 46 1 18 43 CFG=1
M  V30 47 1 44 19
M  V30 48 1 45 19
M  V30 49 1 46 21
M  V30 50 1 47 22
M  V30 51 1 48 25
M  V30 52 1 49 26
M  V30 53 1 6 50 CFG=1
M  V30 END BOND
M  V30 END CTAB
M  END
>  <b_m_subgroup_collapsed>  (132) 
0

>  <r_i_docking_score>  (132) 
-9.0652494220798996

>  <s_m_subgroup_title>  (132) 
glide-dock_SP_D22_pv

>  <s_m_subgroupid>  (132) 
glide-dock_SP_D22_pv

>  <Molecule ChEMBL ID>  (132) 
CHEMBL4528835

>  <Standard Type>  (132) 
Ki

>  <Standard Value>  (132) 
0.1585

>  <label>  (132) 
1

$$$$
CHEMBL5289958
     RDKit          3D

  0  0  0  0  0  0  0  0  0  0999 V3000
M  V30 BEGIN CTAB
M  V30 COUNTS 58 62 0 0 1
M  V30 BEGIN ATOM
M  V30 1 F 12.870913 7.568291 -2.180684 0
M  V30 2 C 12.204432 7.833060 -3.326797 0
M  V30 3 C 11.685967 6.781448 -4.097953 0
M  V30 4 C 10.951694 7.047706 -5.268499 0
M  V30 5 C 10.742867 8.382465 -5.674084 0
M  V30 6 C 9.862303 8.689437 -6.866999 0
M  V30 7 N 10.386210 8.162102 -8.142524 0 CFG=2 CHG=1
M  V30 8 C 11.734779 8.675631 -8.480627 0
M  V30 9 C 12.250629 8.031055 -9.769126 0
M  V30 10 C 11.258378 8.220940 -10.903011 0
M  V30 11 C 9.824811 7.757983 -10.577262 0 CFG=1
M  V30 12 C 8.886352 8.146693 -11.749207 0
M  V30 13 C 8.335572 6.825161 -12.305391 0
M  V30 14 N 9.344093 5.828979 -11.908579 0 CFG=2 CHG=1
M  V30 15 C 8.957204 4.413539 -12.082644 0
M  V30 16 C 9.316281 3.880189 -13.438109 0
M  V30 17 C 9.286241 4.478951 -14.672954 0
M  V30 18 C 9.683732 3.489937 -15.636875 0
M  V30 19 C 9.830887 3.471288 -17.044434 0
M  V30 20 C 10.211874 2.292858 -17.719450 0
M  V30 21 C 10.460437 1.106586 -17.001255 0
M  V30 22 Cl 10.886354 -0.336153 -17.846107 0
M  V30 23 C 10.341687 1.100567 -15.599868 0
M  V30 24 C 9.956229 2.279537 -14.937145 0
M  V30 25 N 9.741688 2.572325 -13.606831 0
M  V30 26 C 9.684941 6.227594 -10.533190 0
M  V30 27 C 9.408593 8.394506 -9.237782 0
M  V30 28 C 11.291347 9.438646 -4.916775 0
M  V30 29 C 12.008630 9.161863 -3.738984 0
M  V30 30 F 12.485844 10.172476 -2.988399 0
M  V30 31 H 11.832470 5.771618 -3.764262 0
M  V30 32 H 10.520982 6.225165 -5.823043 0
M  V30 33 H 8.869964 8.282125 -6.667550 0
M  V30 34 H 9.752889 9.766662 -6.978214 0
M  V30 35 H 11.685599 9.761712 -8.593837 0
M  V30 36 H 12.442525 8.470328 -7.678131 0
M  V30 37 H 13.216545 8.459559 -10.039027 0
M  V30 38 H 12.409752 6.972435 -9.643739 0
M  V30 39 H 11.228824 9.299247 -11.046704 0
M  V30 40 H 11.633364 7.772108 -11.825249 0
M  V30 41 H 8.085756 8.823160 -11.446938 0
M  V30 42 H 9.432225 8.666835 -12.536933 0
M  V30 43 H 7.379749 6.572916 -11.842377 0
M  V30 44 H 8.154814 6.859827 -13.377064 0
M  V30 45 H 9.489891 3.820767 -11.336745 0
M  V30 46 H 7.892661 4.273050 -11.880081 0
M  V30 47 H 9.002553 5.490836 -14.915399 0
M  V30 48 H 9.632009 4.369370 -17.612724 0
M  V30 49 H 10.304992 2.294204 -18.795753 0
M  V30 50 H 10.531528 0.194398 -15.043161 0
M  V30 51 H 9.857103 1.913122 -12.833095 0
M  V30 52 H 10.567384 5.750942 -10.135104 0
M  V30 53 H 8.856441 5.935793 -9.884797 0
M  V30 54 H 8.470631 7.965771 -8.918680 0
M  V30 55 H 9.248343 9.465701 -9.357143 0
M  V30 56 H 11.133424 10.467878 -5.209284 0
M  V30 57 H 10.468776 7.164075 -8.022158 0
M  V30 58 H 10.165364 5.981052 -12.476206 0
M  V30 END ATOM
M  V30 BEGIN BOND
M  V30 1 1 2 1
M  V30 2 1 3 2
M  V30 3 2 4 3
M  V30 4 1 5 4
M  V30 5 1 6 5
M  V30 6 1 7 6
M  V30 7 1 8 7
M  V30 8 1 9 8
M  V30 9 1 10 9
M  V30 10 1 11 10 CFG=3
M  V30 11 1 12 11
M  V30 12 1 13 12
M  V30 13 1 14 13
M  V30 14 1 15 14
M  V30 15 1 16 15
M  V30 16 2 17 16
M  V30 17 1 18 17
M  V30 18 1 19 18
M  V30 19 2 20 19
M  V30 20 1 21 20
M  V30 21 1 22 21
M  V30 22 2 23 21
M  V30 23 2 24 18
M  V30 24 1 24 23
M  V30 25 1 25 16
M  V30 26 1 25 24
M  V30 27 1 26 11
M  V30 28 1 26 14
M  V30 29 1 27 7
M  V30 30 1 27 11
M  V30 31 2 28 5
M  V30 32 2 29 2
M  V30 33 1 29 28
M  V30 34 1 30 29
M  V30 35 1 31 3
M  V30 36 1 32 4
M  V30 37 1 33 6
M  V30 38 1 34 6
M  V30 39 1 35 8
M  V30 40 1 36 8
M  V30 41 1 37 9
M  V30 42 1 38 9
M  V30 43 1 39 10
M  V30 44 1 40 10
M  V30 45 1 41 12
M  V30 46 1 42 12
M  V30 47 1 43 13
M  V30 48 1 44 13
M  V30 49 1 45 15
M  V30 50 1 46 15
M  V30 51 1 47 17
M  V30 52 1 48 19
M  V30 53 1 49 20
M  V30 54 1 50 23
M  V30 55 1 51 25
M  V30 56 1 52 26
M  V30 57 1 53 26
M  V30 58 1 54 27
M  V30 59 1 55 27
M  V30 60 1 56 28
M  V30 61 1 7 57 CFG=1
M  V30 62 1 14 58 CFG=3
M  V30 END BOND
M  V30 END CTAB
M  END
>  <b_m_subgroup_collapsed>  (133) 
0

>  <r_i_docking_score>  (133) 
-9.0651452542685096

>  <s_m_subgroup_title>  (133) 
glide-dock_SP_D22_pv

>  <s_m_subgroupid>  (133) 
glide-dock_SP_D22_pv

>  <Molecule ChEMBL ID>  (133) 
CHEMBL5289958

>  <Standard Type>  (133) 
Ki

>  <Standard Value>  (133) 
10000.0

>  <label>  (133) 
0

$$$$
CHEMBL566379
     RDKit          3D

  0  0  0  0  0  0  0  0  0  0999 V3000
M  V30 BEGIN CTAB
M  V30 COUNTS 62 67 0 0 1
M  V30 BEGIN ATOM
M  V30 1 O 10.088694 -1.352281 -17.447010 0
M  V30 2 C 10.011229 -0.280665 -16.851290 0
M  V30 3 C 8.834789 0.101733 -15.936909 0
M  V30 4 C 9.249741 1.508636 -15.588454 0
M  V30 5 C 10.467415 1.812802 -16.182894 0
M  V30 6 C 11.074189 3.071163 -16.046732 0
M  V30 7 C 10.393324 4.042179 -15.280560 0
M  V30 8 C 9.151515 3.741693 -14.668181 0
M  V30 9 C 8.555843 2.460314 -14.822510 0
M  V30 10 O 7.339904 2.154202 -14.253641 0
M  V30 11 C 6.606972 3.276675 -13.769444 0
M  V30 12 C 7.549124 4.241006 -13.021806 0 CFG=2
M  V30 13 C 6.822536 5.441738 -12.394843 0
M  V30 14 N 7.686079 6.172166 -11.446862 0 CHG=1
M  V30 15 C 8.769333 7.005364 -11.994479 0
M  V30 16 C 10.112794 6.675582 -11.331944 0
M  V30 17 C 10.538724 7.704790 -10.277085 0
M  V30 18 C 9.516622 7.941250 -9.141529 0 CFG=1
M  V30 19 C 9.268939 6.679249 -8.281440 0
M  V30 20 C 10.415280 6.377236 -7.307151 0
M  V30 21 C 10.759485 7.591794 -6.514749 0
M  V30 22 C 10.520450 8.847808 -6.979817 0
M  V30 23 N 10.886136 9.772215 -6.015793 0
M  V30 24 C 11.314746 9.123959 -4.873854 0
M  V30 25 C 11.704766 9.589083 -3.605568 0
M  V30 26 C 12.103849 8.665782 -2.622973 0
M  V30 27 C 12.099158 7.289143 -2.914152 0
M  V30 28 F 12.485761 6.397372 -1.976095 0
M  V30 29 C 11.686296 6.831449 -4.178402 0
M  V30 30 C 11.278643 7.731644 -5.185106 0
M  V30 31 C 9.920259 9.175002 -8.302188 0
M  V30 32 O 8.519188 4.718375 -13.942879 0
M  V30 33 N 10.906551 0.712815 -16.919231 0
M  V30 34 H 8.791920 -0.532029 -15.051045 0
M  V30 35 H 7.883704 0.075518 -16.468613 0
M  V30 36 H 12.019610 3.294177 -16.519783 0
M  V30 37 H 10.825196 5.024770 -15.160056 0
M  V30 38 H 5.825396 2.914118 -13.101462 0
M  V30 39 H 6.108744 3.777276 -14.600903 0
M  V30 40 H 8.067600 3.713809 -12.223176 0
M  V30 41 H 6.406806 6.126566 -13.126930 0
M  V30 42 H 5.973577 5.074698 -11.817279 0
M  V30 43 H 7.086638 6.825024 -10.906283 0
M  V30 44 H 8.860074 6.837571 -13.047687 0
M  V30 45 H 8.509227 8.060123 -11.897873 0
M  V30 46 H 10.097963 5.667129 -10.917452 0
M  V30 47 H 10.883732 6.656977 -12.103928 0
M  V30 48 H 11.500499 7.412941 -9.853265 0
M  V30 49 H 10.721337 8.645680 -10.797577 0
M  V30 50 H 8.565292 8.207170 -9.603402 0
M  V30 51 H 8.368870 6.849853 -7.688941 0
M  V30 52 H 9.049511 5.805034 -8.891335 0
M  V30 53 H 11.285934 6.005177 -7.843263 0
M  V30 54 H 10.084766 5.593424 -6.646821 0
M  V30 55 H 10.799133 10.769823 -6.138479 0
M  V30 56 H 11.685389 10.641832 -3.372440 0
M  V30 57 H 12.406299 9.011914 -1.645165 0
M  V30 58 H 11.663381 5.772389 -4.377756 0
M  V30 59 H 10.625522 9.772193 -8.871949 0
M  V30 60 H 9.025637 9.772291 -8.134234 0
M  V30 61 H 11.759664 0.705164 -17.458158 0
M  V30 62 H 8.069425 5.519956 -10.779694 0
M  V30 END ATOM
M  V30 BEGIN BOND
M  V30 1 2 2 1
M  V30 2 1 3 2
M  V30 3 1 4 3
M  V30 4 2 5 4
M  V30 5 1 6 5
M  V30 6 2 7 6
M  V30 7 1 8 7
M  V30 8 1 9 4
M  V30 9 2 9 8
M  V30 10 1 10 9
M  V30 11 1 11 10
M  V30 12 1 12 11
M  V30 13 1 13 12
M  V30 14 1 14 13
M  V30 15 1 15 14
M  V30 16 1 16 15
M  V30 17 1 17 16
M  V30 18 1 18 17
M  V30 19 1 19 18
M  V30 20 1 20 19
M  V30 21 1 21 20
M  V30 22 2 22 21
M  V30 23 1 23 22
M  V30 24 1 24 23
M  V30 25 1 25 24
M  V30 26 2 26 25
M  V30 27 1 27 26
M  V30 28 1 28 27
M  V30 29 2 29 27
M  V30 30 1 30 21
M  V30 31 2 30 24
M  V30 32 1 30 29
M  V30 33 1 31 18
M  V30 34 1 31 22
M  V30 35 1 32 8
M  V30 36 1 32 12
M  V30 37 1 33 2
M  V30 38 1 33 5
M  V30 39 1 34 3
M  V30 40 1 35 3
M  V30 41 1 36 6
M  V30 42 1 37 7
M  V30 43 1 38 11
M  V30 44 1 39 11
M  V30 45 1 12 40 CFG=1
M  V30 46 1 41 13
M  V30 47 1 42 13
M  V30 48 1 43 14
M  V30 49 1 44 15
M  V30 50 1 45 15
M  V30 51 1 46 16
M  V30 52 1 47 16
M  V30 53 1 48 17
M  V30 54 1 49 17
M  V30 55 1 18 50 CFG=3
M  V30 56 1 51 19
M  V30 57 1 52 19
M  V30 58 1 53 20
M  V30 59 1 54 20
M  V30 60 1 55 23
M  V30 61 1 56 25
M  V30 62 1 57 26
M  V30 63 1 58 29
M  V30 64 1 59 31
M  V30 65 1 60 31
M  V30 66 1 61 33
M  V30 67 1 62 14
M  V30 END BOND
M  V30 END CTAB
M  END
>  <b_m_subgroup_collapsed>  (134) 
0

>  <r_i_docking_score>  (134) 
-9.0633221476683499

>  <s_m_subgroup_title>  (134) 
glide-dock_SP_D22_pv

>  <s_m_subgroupid>  (134) 
glide-dock_SP_D22_pv

>  <Molecule ChEMBL ID>  (134) 
CHEMBL566379

>  <Standard Type>  (134) 
Ki

>  <Standard Value>  (134) 
50.0

>  <label>  (134) 
1

$$$$
CHEMBL554693
     RDKit          3D

  0  0  0  0  0  0  0  0  0  0999 V3000
M  V30 BEGIN CTAB
M  V30 COUNTS 58 60 0 0 1
M  V30 BEGIN ATOM
M  V30 1 C 6.882819 -0.505983 -16.635376 0
M  V30 2 O 6.233686 -0.449006 -15.373285 0
M  V30 3 C 6.276810 0.738004 -14.676112 0
M  V30 4 C 7.176953 1.784951 -14.984820 0
M  V30 5 C 7.158399 2.980509 -14.246390 0
M  V30 6 C 6.261335 3.151742 -13.171546 0
M  V30 7 C 6.280923 4.461634 -12.392984 0
M  V30 8 C 7.641512 4.728965 -11.692897 0
M  V30 9 N 7.925003 6.172215 -11.446814 0 CFG=2 CHG=1
M  V30 10 C 8.253839 6.890826 -12.688487 0
M  V30 11 C 8.938127 6.393733 -10.380154 0
M  V30 12 C 9.349163 7.879395 -10.216208 0
M  V30 13 N 10.299103 8.059058 -9.135260 0
M  V30 14 C 11.710231 8.209620 -9.430872 0
M  V30 15 C 12.322244 8.268744 -8.041914 0
M  V30 16 N 11.164619 8.295186 -7.168020 0
M  V30 17 C 11.285551 8.496952 -5.781672 0
M  V30 18 C 11.070699 9.781045 -5.250433 0
M  V30 19 C 11.286143 10.001638 -3.881631 0
M  V30 20 C 11.731360 8.970721 -3.046512 0
M  V30 21 C 11.932260 7.689715 -3.577325 0
M  V30 22 Cl 12.485903 6.445944 -2.541480 0
M  V30 23 C 11.685955 7.437613 -4.940076 0
M  V30 24 C 10.009331 8.184690 -7.832935 0
M  V30 25 O 8.886330 8.186847 -7.335095 0
M  V30 26 C 5.369636 2.105354 -12.850550 0
M  V30 27 C 5.368344 0.911474 -13.605906 0
M  V30 28 O 4.485169 -0.079247 -13.267802 0
M  V30 29 C 3.450494 -0.330482 -14.211931 0
M  V30 30 H 6.607427 -1.432958 -17.136038 0
M  V30 31 H 6.576767 0.316094 -17.283640 0
M  V30 32 H 7.967600 -0.496609 -16.525839 0
M  V30 33 H 7.890622 1.694757 -15.788784 0
M  V30 34 H 7.850252 3.767441 -14.507354 0
M  V30 35 H 5.482449 4.461885 -11.648936 0
M  V30 36 H 6.012946 5.244256 -13.099971 0
M  V30 37 H 8.468677 4.332503 -12.281374 0
M  V30 38 H 7.659773 4.174324 -10.752700 0
M  V30 39 H 9.232977 6.572303 -13.047060 0
M  V30 40 H 7.516457 6.686389 -13.446895 0
M  V30 41 H 8.238733 7.973500 -12.562304 0
M  V30 42 H 9.824323 5.794710 -10.596753 0
M  V30 43 H 8.526633 6.023471 -9.439672 0
M  V30 44 H 8.486269 8.521152 -10.039044 0
M  V30 45 H 9.832581 8.256242 -11.117193 0
M  V30 46 H 12.090009 7.369977 -10.014317 0
M  V30 47 H 11.886647 9.133076 -9.984351 0
M  V30 48 H 12.965991 9.136859 -7.897638 0
M  V30 49 H 12.896801 7.372209 -7.847020 0
M  V30 50 H 10.765553 10.598140 -5.888231 0
M  V30 51 H 11.142149 10.972320 -3.456063 0
M  V30 52 H 11.914007 9.163618 -1.998920 0
M  V30 53 H 11.848812 6.448854 -5.343658 0
M  V30 54 H 4.679160 2.207786 -12.028237 0
M  V30 55 H 2.745240 -1.041554 -13.783584 0
M  V30 56 H 2.889405 0.572850 -14.443742 0
M  V30 57 H 3.820045 -0.762409 -15.141147 0
M  V30 58 H 7.092206 6.634611 -11.065722 0
M  V30 END ATOM
M  V30 BEGIN BOND
M  V30 1 1 2 1
M  V30 2 1 3 2
M  V30 3 1 4 3
M  V30 4 2 5 4
M  V30 5 1 6 5
M  V30 6 1 7 6
M  V30 7 1 8 7
M  V30 8 1 9 8
M  V30 9 1 10 9
M  V30 10 1 11 9
M  V30 11 1 12 11
M  V30 12 1 13 12
M  V30 13 1 14 13
M  V30 14 1 15 14
M  V30 15 1 16 15
M  V30 16 1 17 16
M  V30 17 2 18 17
M  V30 18 1 19 18
M  V30 19 2 20 19
M  V30 20 1 21 20
M  V30 21 1 22 21
M  V30 22 1 23 17
M  V30 23 2 23 21
M  V30 24 1 24 13
M  V30 25 1 24 16
M  V30 26 2 25 24
M  V30 27 2 26 6
M  V30 28 2 27 3
M  V30 29 1 27 26
M  V30 30 1 28 27
M  V30 31 1 29 28
M  V30 32 1 30 1
M  V30 33 1 31 1
M  V30 34 1 32 1
M  V30 35 1 33 4
M  V30 36 1 34 5
M  V30 37 1 35 7
M  V30 38 1 36 7
M  V30 39 1 37 8
M  V30 40 1 38 8
M  V30 41 1 39 10
M  V30 42 1 40 10
M  V30 43 1 41 10
M  V30 44 1 42 11
M  V30 45 1 43 11
M  V30 46 1 44 12
M  V30 47 1 45 12
M  V30 48 1 46 14
M  V30 49 1 47 14
M  V30 50 1 48 15
M  V30 51 1 49 15
M  V30 52 1 50 18
M  V30 53 1 51 19
M  V30 54 1 52 20
M  V30 55 1 53 23
M  V30 56 1 54 26
M  V30 57 1 55 29
M  V30 58 1 56 29
M  V30 59 1 57 29
M  V30 60 1 9 58 CFG=1
M  V30 END BOND
M  V30 END CTAB
M  END
>  <b_m_subgroup_collapsed>  (135) 
0

>  <r_i_docking_score>  (135) 
-9.0601012307031397

>  <s_m_subgroup_title>  (135) 
glide-dock_SP_D22_pv

>  <s_m_subgroupid>  (135) 
glide-dock_SP_D22_pv

>  <Molecule ChEMBL ID>  (135) 
CHEMBL554693

>  <Standard Type>  (135) 
Ki

>  <Standard Value>  (135) 
100.0

>  <label>  (135) 
1

$$$$
CHEMBL3104522
     RDKit          3D

  0  0  0  0  0  0  0  0  0  0999 V3000
M  V30 BEGIN CTAB
M  V30 COUNTS 59 63 0 0 1
M  V30 BEGIN ATOM
M  V30 1 N 6.544229 -0.228134 -15.677899 0
M  V30 2 C 7.505111 0.716157 -15.329737 0
M  V30 3 C 8.860631 0.491258 -15.633332 0
M  V30 4 C 9.826017 1.452267 -15.284523 0
M  V30 5 C 9.442966 2.639564 -14.626450 0
M  V30 6 C 8.078897 2.865441 -14.308767 0
M  V30 7 C 7.120198 1.896474 -14.670949 0
M  V30 8 C 7.599389 4.119002 -13.578925 0 CFG=1
M  V30 9 O 6.821273 3.775045 -12.449939 0
M  V30 10 C 8.727592 5.134205 -13.231469 0 CFG=1
M  V30 11 C 8.391273 6.161214 -12.121869 0
M  V30 12 C 8.368806 5.588011 -10.682412 0
M  V30 13 N 8.886121 6.511913 -9.647716 0 CFG=2 CHG=1
M  V30 14 C 10.349557 6.769610 -9.770931 0
M  V30 15 C 10.838282 7.790617 -8.732964 0
M  V30 16 C 10.464889 7.351554 -7.305008 0 CFG=1
M  V30 17 C 10.898255 8.344543 -6.261834 0
M  V30 18 N 10.755337 9.654079 -6.457438 0
M  V30 19 O 11.198978 10.314706 -5.280778 0
M  V30 20 C 11.599254 9.373743 -4.349242 0
M  V30 21 C 12.086210 9.506478 -3.045790 0
M  V30 22 C 12.391547 8.328868 -2.336242 0
M  V30 23 F 12.885953 8.416256 -1.081810 0
M  V30 24 C 12.182507 7.060110 -2.929180 0
M  V30 25 C 11.686084 6.954345 -4.248446 0
M  V30 26 C 11.401627 8.137401 -4.963585 0
M  V30 27 C 8.960967 7.060343 -7.227195 0
M  V30 28 C 8.570926 6.019197 -8.282605 0
M  V30 29 C 10.108862 4.472307 -13.035909 0
M  V30 30 C 10.508565 3.651730 -14.260540 0
M  V30 31 H 6.851676 -1.181357 -15.847240 0
M  V30 32 H 5.622581 -0.159371 -15.272444 0
M  V30 33 H 9.163513 -0.416186 -16.135275 0
M  V30 34 H 10.864686 1.273520 -15.522493 0
M  V30 35 H 6.081856 2.063092 -14.428637 0
M  V30 36 H 6.896995 4.614267 -14.246785 0
M  V30 37 H 6.406784 4.555644 -12.113276 0
M  V30 38 H 8.843379 5.728628 -14.139863 0
M  V30 39 H 9.100870 6.979396 -12.213281 0
M  V30 40 H 7.427201 6.627592 -12.331680 0
M  V30 41 H 7.329628 5.371409 -10.443292 0
M  V30 42 H 8.897685 4.640506 -10.597755 0
M  V30 43 H 10.877682 5.826303 -9.627075 0
M  V30 44 H 10.621695 7.130836 -10.760010 0
M  V30 45 H 11.918852 7.918004 -8.814995 0
M  V30 46 H 10.394226 8.761494 -8.959430 0
M  V30 47 H 10.990808 6.415600 -7.108918 0
M  V30 48 H 12.215314 10.481485 -2.603837 0
M  V30 49 H 12.407546 6.163048 -2.369797 0
M  V30 50 H 11.525825 5.983607 -4.694591 0
M  V30 51 H 8.705633 6.676981 -6.242098 0
M  V30 52 H 8.384377 7.976851 -7.364625 0
M  V30 53 H 7.518944 5.772312 -8.186226 0
M  V30 54 H 9.104671 5.085216 -8.098536 0
M  V30 55 H 10.088647 3.799114 -12.178483 0
M  V30 56 H 10.883886 5.216381 -12.836009 0
M  V30 57 H 11.452415 3.139792 -14.068615 0
M  V30 58 H 10.672444 4.305766 -15.117705 0
M  V30 59 H 8.356726 7.371890 -9.772591 0
M  V30 END ATOM
M  V30 BEGIN BOND
M  V30 1 1 2 1
M  V30 2 1 3 2
M  V30 3 2 4 3
M  V30 4 1 5 4
M  V30 5 2 6 5
M  V30 6 2 7 2
M  V30 7 1 7 6
M  V30 8 1 8 6
M  V30 9 1 9 8
M  V30 10 1 10 8
M  V30 11 1 11 10
M  V30 12 1 12 11
M  V30 13 1 13 12
M  V30 14 1 14 13
M  V30 15 1 15 14
M  V30 16 1 16 15
M  V30 17 1 17 16
M  V30 18 2 18 17
M  V30 19 1 19 18
M  V30 20 1 20 19
M  V30 21 1 21 20
M  V30 22 2 22 21
M  V30 23 1 23 22
M  V30 24 1 24 22
M  V30 25 2 25 24
M  V30 26 1 26 17
M  V30 27 2 26 20
M  V30 28 1 26 25
M  V30 29 1 27 16
M  V30 30 1 28 13
M  V30 31 1 28 27
M  V30 32 1 29 10
M  V30 33 1 30 5
M  V30 34 1 30 29
M  V30 35 1 31 1
M  V30 36 1 32 1
M  V30 37 1 33 3
M  V30 38 1 34 4
M  V30 39 1 35 7
M  V30 40 1 8 36 CFG=3
M  V30 41 1 37 9
M  V30 42 1 10 38 CFG=3
M  V30 43 1 39 11
M  V30 44 1 40 11
M  V30 45 1 41 12
M  V30 46 1 42 12
M  V30 47 1 43 14
M  V30 48 1 44 14
M  V30 49 1 45 15
M  V30 50 1 46 15
M  V30 51 1 16 47 CFG=1
M  V30 52 1 48 21
M  V30 53 1 49 24
M  V30 54 1 50 25
M  V30 55 1 51 27
M  V30 56 1 52 27
M  V30 57 1 53 28
M  V30 58 1 54 28
M  V30 59 1 55 29
M  V30 60 1 56 29
M  V30 61 1 57 30
M  V30 62 1 58 30
M  V30 63 1 13 59 CFG=3
M  V30 END BOND
M  V30 END CTAB
M  END
>  <b_m_subgroup_collapsed>  (136) 
0

>  <r_i_docking_score>  (136) 
-9.0597210457586499

>  <s_m_subgroup_title>  (136) 
glide-dock_SP_D22_pv

>  <s_m_subgroupid>  (136) 
glide-dock_SP_D22_pv

>  <Molecule ChEMBL ID>  (136) 
CHEMBL3104522

>  <Standard Type>  (136) 
Ki

>  <Standard Value>  (136) 
87.1

>  <label>  (136) 
1

$$$$
CHEMBL5757240
     RDKit          3D

  0  0  0  0  0  0  0  0  0  0999 V3000
M  V30 BEGIN CTAB
M  V30 COUNTS 66 70 0 0 1
M  V30 BEGIN ATOM
M  V30 1 O 10.886205 5.367885 -13.046872 0
M  V30 2 C 9.893405 4.695756 -13.310938 0
M  V30 3 N 9.899813 3.739980 -14.251611 0
M  V30 4 C 11.081625 3.332804 -15.012233 0 CFG=2
M  V30 5 C 11.594047 4.463794 -15.908754 0
M  V30 6 C 10.771107 5.018911 -16.914129 0
M  V30 7 C 11.260604 6.048041 -17.741669 0
M  V30 8 C 12.570091 6.534921 -17.561712 0
M  V30 9 Cl 13.182785 7.772290 -18.591967 0
M  V30 10 C 13.385706 6.004035 -16.544447 0
M  V30 11 C 12.896758 4.972369 -15.720943 0
M  V30 12 C 10.853203 2.004548 -15.742712 0
M  V30 13 C 10.086238 0.978578 -15.144665 0
M  V30 14 C 9.893559 -0.222099 -15.852893 0
M  V30 15 C 10.474660 -0.362493 -17.126011 0
M  V30 16 C 11.238291 0.705220 -17.631882 0
M  V30 17 N 11.425859 1.858714 -16.960949 0
M  V30 18 C 8.576741 4.940054 -12.556438 0 CFG=1
M  V30 19 C 8.705601 4.683761 -11.045584 0
M  V30 20 C 9.412445 5.807445 -10.267303 0
M  V30 21 N 8.886124 7.164911 -10.569257 0 CFG=1 CHG=1
M  V30 22 C 9.637792 8.211340 -9.832545 0
M  V30 23 C 8.914168 8.616806 -8.545959 0
M  V30 24 O 9.793815 9.372316 -7.731918 0
M  V30 25 C 10.448690 8.744788 -6.703399 0
M  V30 26 C 10.682512 7.354928 -6.660516 0
M  V30 27 C 11.285975 6.787004 -5.532351 0
M  V30 28 C 11.656220 7.583946 -4.439693 0
M  V30 29 C 12.175159 6.989021 -3.275653 0
M  V30 30 C 12.485609 7.818219 -2.189449 0
M  V30 31 C 12.265646 9.199189 -2.312927 0
M  V30 32 N 11.772648 9.772371 -3.428640 0
M  V30 33 C 11.465554 8.988605 -4.480433 0
M  V30 34 C 10.886008 9.550897 -5.633542 0
M  V30 35 C 8.824647 7.447998 -12.023361 0
M  V30 36 C 8.040331 6.361357 -12.782763 0
M  V30 37 H 9.052216 3.221966 -14.428245 0
M  V30 38 H 11.860430 3.114944 -14.278705 0
M  V30 39 H 9.768852 4.643746 -17.062731 0
M  V30 40 H 10.633523 6.460072 -18.518757 0
M  V30 41 H 14.387448 6.381022 -16.397966 0
M  V30 42 H 13.530472 4.573239 -14.944140 0
M  V30 43 H 9.658833 1.096596 -14.158781 0
M  V30 44 H 9.311940 -1.022881 -15.423103 0
M  V30 45 H 10.348721 -1.270226 -17.697552 0
M  V30 46 H 11.705829 0.633195 -18.602615 0
M  V30 47 H 7.841041 4.237411 -12.953103 0
M  V30 48 H 7.715038 4.510656 -10.621953 0
M  V30 49 H 9.285904 3.774323 -10.900707 0
M  V30 50 H 9.313945 5.612659 -9.199018 0
M  V30 51 H 10.480687 5.782275 -10.485385 0
M  V30 52 H 10.650420 7.870374 -9.615031 0
M  V30 53 H 9.761319 9.104726 -10.445033 0
M  V30 54 H 8.086071 9.275660 -8.796786 0
M  V30 55 H 8.486168 7.764406 -8.017626 0
M  V30 56 H 10.396121 6.702665 -7.469345 0
M  V30 57 H 11.458074 5.731121 -5.497056 0
M  V30 58 H 12.318222 5.919411 -3.207206 0
M  V30 59 H 12.886014 7.409616 -1.275539 0
M  V30 60 H 12.486016 9.855728 -1.485298 0
M  V30 61 H 10.715971 10.615588 -5.667521 0
M  V30 62 H 8.331121 8.409946 -12.176632 0
M  V30 63 H 9.836130 7.555883 -12.416073 0
M  V30 64 H 8.085876 6.572398 -13.846773 0
M  V30 65 H 6.988040 6.407242 -12.497478 0
M  V30 66 H 7.909902 7.238779 -10.252621 0
M  V30 END ATOM
M  V30 BEGIN BOND
M  V30 1 2 2 1
M  V30 2 1 3 2
M  V30 3 1 4 3
M  V30 4 1 5 4
M  V30 5 1 6 5
M  V30 6 2 7 6
M  V30 7 1 8 7
M  V30 8 1 9 8
M  V30 9 2 10 8
M  V30 10 2 11 5
M  V30 11 1 11 10
M  V30 12 1 12 4
M  V30 13 2 13 12
M  V30 14 1 14 13
M  V30 15 2 15 14
M  V30 16 1 16 15
M  V30 17 1 17 12
M  V30 18 2 17 16
M  V30 19 1 18 2
M  V30 20 1 19 18
M  V30 21 1 20 19
M  V30 22 1 21 20
M  V30 23 1 22 21
M  V30 24 1 23 22
M  V30 25 1 24 23
M  V30 26 1 25 24
M  V30 27 1 26 25
M  V30 28 2 27 26
M  V30 29 1 28 27
M  V30 30 2 29 28
M  V30 31 1 30 29
M  V30 32 2 31 30
M  V30 33 1 32 31
M  V30 34 1 33 28
M  V30 35 2 33 32
M  V30 36 2 34 25
M  V30 37 1 34 33
M  V30 38 1 35 21
M  V30 39 1 36 18
M  V30 40 1 36 35
M  V30 41 1 37 3
M  V30 42 1 4 38 CFG=1
M  V30 43 1 39 6
M  V30 44 1 40 7
M  V30 45 1 41 10
M  V30 46 1 42 11
M  V30 47 1 43 13
M  V30 48 1 44 14
M  V30 49 1 45 15
M  V30 50 1 46 16
M  V30 51 1 18 47 CFG=3
M  V30 52 1 48 19
M  V30 53 1 49 19
M  V30 54 1 50 20
M  V30 55 1 51 20
M  V30 56 1 52 22
M  V30 57 1 53 22
M  V30 58 1 54 23
M  V30 59 1 55 23
M  V30 60 1 56 26
M  V30 61 1 57 27
M  V30 62 1 58 29
M  V30 63 1 59 30
M  V30 64 1 60 31
M  V30 65 1 61 34
M  V30 66 1 62 35
M  V30 67 1 63 35
M  V30 68 1 64 36
M  V30 69 1 65 36
M  V30 70 1 21 66 CFG=1
M  V30 END BOND
M  V30 END CTAB
M  END
>  <b_m_subgroup_collapsed>  (137) 
0

>  <r_i_docking_score>  (137) 
-9.0477961641710003

>  <s_m_subgroup_title>  (137) 
glide-dock_SP_D22_pv

>  <s_m_subgroupid>  (137) 
glide-dock_SP_D22_pv

>  <Molecule ChEMBL ID>  (137) 
CHEMBL5757240

>  <Standard Type>  (137) 
Ki

>  <Standard Value>  (137) 
20000.0

>  <label>  (137) 
0

$$$$
CHEMBL5779786
     RDKit          3D

  0  0  0  0  0  0  0  0  0  0999 V3000
M  V30 BEGIN CTAB
M  V30 COUNTS 62 65 0 0 1
M  V30 BEGIN ATOM
M  V30 1 O 10.703562 5.695422 -12.911374 0
M  V30 2 C 9.698555 5.052211 -13.202180 0
M  V30 3 N 9.716166 4.072923 -14.119244 0
M  V30 4 C 10.926179 3.574260 -14.781014 0 CFG=1
M  V30 5 C 10.692251 2.248735 -15.515429 0
M  V30 6 C 9.722635 1.328974 -15.047293 0
M  V30 7 C 9.516174 0.108952 -15.714931 0
M  V30 8 C 10.279277 -0.220914 -16.849783 0
M  V30 9 F 10.085996 -1.402268 -17.482075 0
M  V30 10 C 11.258801 0.673449 -17.313440 0
M  V30 11 C 11.469697 1.895272 -16.647173 0
M  V30 12 C 11.577035 4.643526 -15.656421 0
M  V30 13 C 12.884222 5.090098 -15.362052 0
M  V30 14 C 13.493055 6.078424 -16.158428 0
M  V30 15 C 12.801215 6.618740 -17.257273 0
M  V30 16 Cl 13.551269 7.825018 -18.232351 0
M  V30 17 C 11.497865 6.173909 -17.558353 0
M  V30 18 C 10.882800 5.195782 -16.754305 0
M  V30 19 C 8.355741 5.349499 -12.507443 0 CFG=1
M  V30 20 C 8.317812 4.821383 -11.063054 0
M  V30 21 C 9.184485 5.634720 -10.083849 0
M  V30 22 N 8.886117 7.090098 -10.120853 0 CFG=1 CHG=1
M  V30 23 C 9.743462 7.867486 -9.185065 0
M  V30 24 C 8.980671 8.348470 -7.944070 0
M  V30 25 O 9.847659 9.177236 -7.173812 0
M  V30 26 C 10.590687 8.644464 -6.142876 0
M  V30 27 C 11.284730 9.562119 -5.323451 0
M  V30 28 C 12.024911 9.121624 -4.208485 0
M  V30 29 C 12.086503 7.750993 -3.903758 0
M  V30 30 C 11.420488 6.825908 -4.729364 0
M  V30 31 C 10.683321 7.263257 -5.846720 0
M  V30 32 C 8.889507 7.660915 -11.493002 0
M  V30 33 C 8.006875 6.849422 -12.466075 0
M  V30 34 H 8.853848 3.595891 -14.331388 0
M  V30 35 H 11.631432 3.326910 -13.985339 0
M  V30 36 H 9.136939 1.542978 -14.164527 0
M  V30 37 H 8.774474 -0.587654 -15.351562 0
M  V30 38 H 11.858095 0.416930 -18.173605 0
M  V30 39 H 12.239671 2.554644 -17.018322 0
M  V30 40 H 13.421382 4.685064 -14.517588 0
M  V30 41 H 14.490381 6.418925 -15.923175 0
M  V30 42 H 10.966331 6.593022 -18.399981 0
M  V30 43 H 9.881004 4.864285 -16.986540 0
M  V30 44 H 7.575385 4.840239 -13.076895 0
M  V30 45 H 8.651322 3.785104 -11.055604 0
M  V30 46 H 7.286316 4.813433 -10.715421 0
M  V30 47 H 10.237975 5.478971 -10.308283 0
M  V30 48 H 9.028361 5.266562 -9.069454 0
M  V30 49 H 10.146529 8.747362 -9.690676 0
M  V30 50 H 10.613920 7.284523 -8.884670 0
M  V30 51 H 8.537825 7.532199 -7.370994 0
M  V30 52 H 8.145507 8.978729 -8.252905 0
M  V30 53 H 11.231602 10.619319 -5.542207 0
M  V30 54 H 12.539733 9.834233 -3.579591 0
M  V30 55 H 12.647483 7.407012 -3.047866 0
M  V30 56 H 11.472342 5.772851 -4.500702 0
M  V30 57 H 10.191325 6.516351 -6.450215 0
M  V30 58 H 8.506862 8.680234 -11.447248 0
M  V30 59 H 9.911390 7.741870 -11.861380 0
M  V30 60 H 8.083494 7.283144 -13.446880 0
M  V30 61 H 6.950360 6.966784 -12.228075 0
M  V30 62 H 7.907509 7.226426 -9.846732 0
M  V30 END ATOM
M  V30 BEGIN BOND
M  V30 1 2 2 1
M  V30 2 1 3 2
M  V30 3 1 4 3
M  V30 4 1 5 4
M  V30 5 1 6 5
M  V30 6 2 7 6
M  V30 7 1 8 7
M  V30 8 1 9 8
M  V30 9 2 10 8
M  V30 10 2 11 5
M  V30 11 1 11 10
M  V30 12 1 12 4
M  V30 13 1 13 12
M  V30 14 2 14 13
M  V30 15 1 15 14
M  V30 16 1 16 15
M  V30 17 2 17 15
M  V30 18 2 18 12
M  V30 19 1 18 17
M  V30 20 1 19 2
M  V30 21 1 20 19
M  V30 22 1 21 20
M  V30 23 1 22 21
M  V30 24 1 23 22
M  V30 25 1 24 23
M  V30 26 1 25 24
M  V30 27 1 26 25
M  V30 28 2 27 26
M  V30 29 1 28 27
M  V30 30 2 29 28
M  V30 31 1 30 29
M  V30 32 1 31 26
M  V30 33 2 31 30
M  V30 34 1 32 22
M  V30 35 1 33 19
M  V30 36 1 33 32
M  V30 37 1 34 3
M  V30 38 1 4 35 CFG=1
M  V30 39 1 36 6
M  V30 40 1 37 7
M  V30 41 1 38 10
M  V30 42 1 39 11
M  V30 43 1 40 13
M  V30 44 1 41 14
M  V30 45 1 42 17
M  V30 46 1 43 18
M  V30 47 1 19 44 CFG=3
M  V30 48 1 45 20
M  V30 49 1 46 20
M  V30 50 1 47 21
M  V30 51 1 48 21
M  V30 52 1 49 23
M  V30 53 1 50 23
M  V30 54 1 51 24
M  V30 55 1 52 24
M  V30 56 1 53 27
M  V30 57 1 54 28
M  V30 58 1 55 29
M  V30 59 1 56 30
M  V30 60 1 57 31
M  V30 61 1 58 32
M  V30 62 1 59 32
M  V30 63 1 60 33
M  V30 64 1 61 33
M  V30 65 1 22 62 CFG=1
M  V30 END BOND
M  V30 END CTAB
M  END
>  <b_m_subgroup_collapsed>  (138) 
0

>  <r_i_docking_score>  (138) 
-9.0467455948508206

>  <s_m_subgroup_title>  (138) 
glide-dock_SP_D22_pv

>  <s_m_subgroupid>  (138) 
glide-dock_SP_D22_pv

>  <Molecule ChEMBL ID>  (138) 
CHEMBL5779786

>  <Standard Type>  (138) 
Ki

>  <Standard Value>  (138) 
55.0

>  <label>  (138) 
1

$$$$
CHEMBL4795213
     RDKit          3D

  0  0  0  0  0  0  0  0  0  0999 V3000
M  V30 BEGIN CTAB
M  V30 COUNTS 62 66 0 0 1
M  V30 BEGIN ATOM
M  V30 1 C 4.117223 -1.827703 -15.859905 0
M  V30 2 N 5.170204 -0.812441 -15.832157 0
M  V30 3 C 5.880696 -0.616903 -17.103998 0
M  V30 4 C 7.334524 -0.139635 -16.928001 0
M  V30 5 C 7.440021 0.929533 -15.862191 0
M  V30 6 C 8.455301 1.902173 -15.927135 0
M  V30 7 C 8.497025 2.943310 -14.982229 0
M  V30 8 C 7.503003 3.037326 -13.974972 0
M  V30 9 O 7.439796 4.050324 -13.043507 0
M  V30 10 C 8.580888 4.881280 -12.899026 0
M  V30 11 C 8.377172 5.859487 -11.729350 0 CFG=2
M  V30 12 O 7.843568 7.061437 -12.246867 0
M  V30 13 C 9.724071 6.149530 -11.036402 0
M  V30 14 N 9.693046 7.256637 -10.046131 0 CFG=2 CHG=1
M  V30 15 C 11.064514 7.742511 -9.732470 0
M  V30 16 C 11.051857 8.972426 -8.810190 0
M  V30 17 C 10.208230 8.777437 -7.535382 0 CFG=2
M  V30 18 C 10.885582 7.996871 -6.435122 0
M  V30 19 N 11.166146 6.703609 -6.584013 0
M  V30 20 O 11.686001 6.236029 -5.350273 0
M  V30 21 C 11.758376 7.275818 -4.447864 0
M  V30 22 C 12.234213 7.325930 -3.133121 0
M  V30 23 C 12.246428 8.580035 -2.495523 0
M  V30 24 F 12.727995 8.685644 -1.237177 0
M  V30 25 C 11.771014 9.730581 -3.168269 0
M  V30 26 C 11.285819 9.651175 -4.495825 0
M  V30 27 C 11.286794 8.394799 -5.139904 0
M  V30 28 C 8.835798 8.187932 -7.899235 0
M  V30 29 C 8.941430 6.939251 -8.806417 0
M  V30 30 C 6.509450 2.041283 -13.902387 0
M  V30 31 C 6.485125 0.972332 -14.823304 0
M  V30 32 C 5.421385 -0.091368 -14.713698 0
M  V30 33 O 4.787977 -0.227780 -13.664547 0
M  V30 34 H 4.512764 -2.775713 -15.494680 0
M  V30 35 H 3.259436 -1.554609 -15.243680 0
M  V30 36 H 3.736457 -1.992830 -16.869446 0
M  V30 37 H 5.868534 -1.528040 -17.703732 0
M  V30 38 H 5.322700 0.131560 -17.667414 0
M  V30 39 H 7.718298 0.236400 -17.877342 0
M  V30 40 H 7.975286 -0.971196 -16.648285 0
M  V30 41 H 9.196048 1.862825 -16.711559 0
M  V30 42 H 9.284345 3.675335 -15.074718 0
M  V30 43 H 8.800141 5.428383 -13.818629 0
M  V30 44 H 9.436637 4.235513 -12.691229 0
M  V30 45 H 7.672810 5.432447 -11.013549 0
M  V30 46 H 7.199398 7.382131 -11.607173 0
M  V30 47 H 10.085685 5.241282 -10.551364 0
M  V30 48 H 10.451063 6.400031 -11.811304 0
M  V30 49 H 11.643401 6.945043 -9.271768 0
M  V30 50 H 11.583301 8.004200 -10.656238 0
M  V30 51 H 12.068719 9.273841 -8.555497 0
M  V30 52 H 10.627285 9.791345 -9.388540 0
M  V30 53 H 10.029856 9.772212 -7.133049 0
M  V30 54 H 12.600493 6.437767 -2.637996 0
M  V30 55 H 11.786148 10.676455 -2.647791 0
M  V30 56 H 10.929599 10.536730 -5.001384 0
M  V30 57 H 8.262614 7.959587 -6.998862 0
M  V30 58 H 8.266222 8.953992 -8.427424 0
M  V30 59 H 7.950312 6.572068 -9.046937 0
M  V30 60 H 9.415788 6.105452 -8.291553 0
M  V30 61 H 5.764768 2.104108 -13.121940 0
M  V30 62 H 9.187299 8.006920 -10.500003 0
M  V30 END ATOM
M  V30 BEGIN BOND
M  V30 1 1 2 1
M  V30 2 1 3 2
M  V30 3 1 4 3
M  V30 4 1 5 4
M  V30 5 1 6 5
M  V30 6 2 7 6
M  V30 7 1 8 7
M  V30 8 1 9 8
M  V30 9 1 10 9
M  V30 10 1 11 10
M  V30 11 1 12 11
M  V30 12 1 13 11
M  V30 13 1 14 13
M  V30 14 1 15 14
M  V30 15 1 16 15
M  V30 16 1 17 16
M  V30 17 1 18 17
M  V30 18 2 19 18
M  V30 19 1 20 19
M  V30 20 1 21 20
M  V30 21 1 22 21
M  V30 22 2 23 22
M  V30 23 1 24 23
M  V30 24 1 25 23
M  V30 25 2 26 25
M  V30 26 1 27 18
M  V30 27 2 27 21
M  V30 28 1 27 26
M  V30 29 1 28 17
M  V30 30 1 29 14
M  V30 31 1 29 28
M  V30 32 2 30 8
M  V30 33 2 31 5
M  V30 34 1 31 30
M  V30 35 1 32 2
M  V30 36 1 32 31
M  V30 37 2 33 32
M  V30 38 1 34 1
M  V30 39 1 35 1
M  V30 40 1 36 1
M  V30 41 1 37 3
M  V30 42 1 38 3
M  V30 43 1 39 4
M  V30 44 1 40 4
M  V30 45 1 41 6
M  V30 46 1 42 7
M  V30 47 1 43 10
M  V30 48 1 44 10
M  V30 49 1 11 45 CFG=1
M  V30 50 1 46 12
M  V30 51 1 47 13
M  V30 52 1 48 13
M  V30 53 1 49 15
M  V30 54 1 50 15
M  V30 55 1 51 16
M  V30 56 1 52 16
M  V30 57 1 17 53 CFG=1
M  V30 58 1 54 22
M  V30 59 1 55 25
M  V30 60 1 56 26
M  V30 61 1 57 28
M  V30 62 1 58 28
M  V30 63 1 59 29
M  V30 64 1 60 29
M  V30 65 1 61 30
M  V30 66 1 14 62 CFG=3
M  V30 END BOND
M  V30 END CTAB
M  END
>  <b_m_subgroup_collapsed>  (139) 
0

>  <r_i_docking_score>  (139) 
-9.0456164321639108

>  <s_m_subgroup_title>  (139) 
glide-dock_SP_D22_pv

>  <s_m_subgroupid>  (139) 
glide-dock_SP_D22_pv

>  <Molecule ChEMBL ID>  (139) 
CHEMBL4795213

>  <Standard Type>  (139) 
Ki

>  <Standard Value>  (139) 
15.1

>  <label>  (139) 
1

$$$$
CHEMBL5966386
     RDKit          3D

  0  0  0  0  0  0  0  0  0  0999 V3000
M  V30 BEGIN CTAB
M  V30 COUNTS 60 63 0 0 1
M  V30 BEGIN ATOM
M  V30 1 C 5.553820 3.251554 -12.513217 0
M  V30 2 C 6.112150 4.506945 -13.200338 0
M  V30 3 N 7.584227 4.602645 -13.120474 0
M  V30 4 C 8.056399 5.681597 -12.232084 0
M  V30 5 C 8.237037 5.151769 -10.789475 0
M  V30 6 N 8.614366 6.174370 -9.778262 0 CFG=1 CHG=1
M  V30 7 C 8.637371 5.595375 -8.406029 0
M  V30 8 C 8.956411 6.646662 -7.330562 0
M  V30 9 C 10.326608 7.277496 -7.597030 0 CFG=2
M  V30 10 C 10.729317 8.257692 -6.515098 0
M  V30 11 N 10.487165 9.557787 -6.647035 0
M  V30 12 O 10.937218 10.217512 -5.472549 0
M  V30 13 C 11.439938 9.281147 -4.589676 0
M  V30 14 C 11.978856 9.411319 -3.302555 0
M  V30 15 C 12.365186 8.234735 -2.634755 0
M  V30 16 F 12.885026 8.315388 -1.391413 0
M  V30 17 C 12.208980 6.972058 -3.256862 0
M  V30 18 C 11.684594 6.871092 -4.566661 0
M  V30 19 C 11.291666 8.049263 -5.235140 0
M  V30 20 C 10.294051 7.902403 -9.009434 0
M  V30 21 C 9.887579 6.888237 -10.095615 0
M  V30 22 C 8.354265 3.787466 -13.899854 0
M  V30 23 O 7.824281 2.966446 -14.648134 0
M  V30 24 C 9.913563 3.860308 -13.947470 0 CFG=2
M  V30 25 O 10.484352 4.176336 -12.700166 0
M  V30 26 C 10.378040 4.863135 -15.012810 0
M  V30 27 C 10.478966 4.027948 -16.287270 0
M  V30 28 N 10.959109 2.708864 -15.832054 0 CHG=1
M  V30 29 C 10.565520 2.530648 -14.417939 0
M  V30 30 H 4.474666 3.197987 -12.646724 0
M  V30 31 H 5.971642 2.332020 -12.916307 0
M  V30 32 H 5.749484 3.267183 -11.446362 0
M  V30 33 H 5.626440 5.382231 -12.769129 0
M  V30 34 H 5.803772 4.512133 -14.243453 0
M  V30 35 H 8.966185 6.126016 -12.632572 0
M  V30 36 H 7.349216 6.513122 -12.228617 0
M  V30 37 H 7.286130 4.719671 -10.501141 0
M  V30 38 H 8.953520 4.333777 -10.753327 0
M  V30 39 H 7.685915 5.131684 -8.174704 0
M  V30 40 H 9.378662 4.796806 -8.368278 0
M  V30 41 H 8.951034 6.173535 -6.348175 0
M  V30 42 H 8.181228 7.414517 -7.298306 0
M  V30 43 H 11.069662 6.475816 -7.608871 0
M  V30 44 H 12.075491 10.379399 -2.831742 0
M  V30 45 H 12.500657 6.078069 -2.726682 0
M  V30 46 H 11.571057 5.906252 -5.038586 0
M  V30 47 H 11.270963 8.324532 -9.250288 0
M  V30 48 H 9.585687 8.733912 -9.036949 0
M  V30 49 H 10.696440 6.172857 -10.241481 0
M  V30 50 H 9.784002 7.430439 -11.034231 0
M  V30 51 H 10.350214 3.441173 -12.116383 0
M  V30 52 H 9.704830 5.709249 -15.129304 0
M  V30 53 H 11.361773 5.262066 -14.761868 0
M  V30 54 H 9.494276 3.913126 -16.744659 0
M  V30 55 H 11.140586 4.468430 -17.031635 0
M  V30 56 H 10.606415 1.961079 -16.415413 0
M  V30 57 H 11.467395 2.295147 -13.852994 0
M  V30 58 H 9.910452 1.663573 -14.311084 0
M  V30 59 H 11.969930 2.711981 -15.868706 0
M  V30 60 H 7.862031 6.865084 -9.803053 0
M  V30 END ATOM
M  V30 BEGIN BOND
M  V30 1 1 2 1
M  V30 2 1 3 2
M  V30 3 1 4 3
M  V30 4 1 5 4
M  V30 5 1 6 5
M  V30 6 1 7 6
M  V30 7 1 8 7
M  V30 8 1 9 8
M  V30 9 1 10 9
M  V30 10 2 11 10
M  V30 11 1 12 11
M  V30 12 1 13 12
M  V30 13 1 14 13
M  V30 14 2 15 14
M  V30 15 1 16 15
M  V30 16 1 17 15
M  V30 17 2 18 17
M  V30 18 1 19 10
M  V30 19 2 19 13
M  V30 20 1 19 18
M  V30 21 1 20 9
M  V30 22 1 21 6
M  V30 23 1 21 20
M  V30 24 1 22 3
M  V30 25 2 23 22
M  V30 26 1 24 22
M  V30 27 1 24 25 CFG=1
M  V30 28 1 26 24
M  V30 29 1 27 26
M  V30 30 1 28 27
M  V30 31 1 29 24
M  V30 32 1 29 28
M  V30 33 1 30 1
M  V30 34 1 31 1
M  V30 35 1 32 1
M  V30 36 1 33 2
M  V30 37 1 34 2
M  V30 38 1 35 4
M  V30 39 1 36 4
M  V30 40 1 37 5
M  V30 41 1 38 5
M  V30 42 1 39 7
M  V30 43 1 40 7
M  V30 44 1 41 8
M  V30 45 1 42 8
M  V30 46 1 9 43 CFG=3
M  V30 47 1 44 14
M  V30 48 1 45 17
M  V30 49 1 46 18
M  V30 50 1 47 20
M  V30 51 1 48 20
M  V30 52 1 49 21
M  V30 53 1 50 21
M  V30 54 1 51 25
M  V30 55 1 52 26
M  V30 56 1 53 26
M  V30 57 1 54 27
M  V30 58 1 55 27
M  V30 59 1 56 28
M  V30 60 1 57 29
M  V30 61 1 58 29
M  V30 62 1 59 28
M  V30 63 1 6 60 CFG=1
M  V30 END BOND
M  V30 END CTAB
M  END
>  <b_m_subgroup_collapsed>  (140) 
0

>  <r_i_docking_score>  (140) 
-9.0406393076572105

>  <s_m_subgroup_title>  (140) 
glide-dock_SP_D22_pv

>  <s_m_subgroupid>  (140) 
glide-dock_SP_D22_pv

>  <Molecule ChEMBL ID>  (140) 
CHEMBL5966386

>  <Standard Type>  (140) 
Ki

>  <Standard Value>  (140) 
52.0

>  <label>  (140) 
1

$$$$
CHEMBL553311
     RDKit          3D

  0  0  0  0  0  0  0  0  0  0999 V3000
M  V30 BEGIN CTAB
M  V30 COUNTS 55 58 0 0 1
M  V30 BEGIN ATOM
M  V30 1 O 6.742894 4.066504 -13.045839 0
M  V30 2 C 7.906852 4.057916 -13.446823 0
M  V30 3 C 8.809001 5.270174 -13.169024 0
M  V30 4 C 8.329114 6.229673 -12.056173 0
M  V30 5 C 8.577903 5.693191 -10.622972 0
M  V30 6 N 8.886010 6.760819 -9.628451 0 CFG=1 CHG=1
M  V30 7 C 8.705882 6.293223 -8.224347 0
M  V30 8 C 9.061877 7.385549 -7.176885 0
M  V30 9 C 10.523924 7.875685 -7.328125 0 CFG=2
M  V30 10 C 11.509201 6.708608 -7.109993 0
M  V30 11 C 11.548740 6.209858 -5.657600 0
M  V30 12 C 11.686067 7.296590 -4.624270 0
M  V30 13 C 12.158511 6.972686 -3.335307 0
M  V30 14 C 12.365619 7.985458 -2.382559 0
M  V30 15 C 12.071240 9.319654 -2.707039 0
M  V30 16 C 11.542641 9.634048 -3.972632 0
M  V30 17 C 11.355970 8.626491 -4.945863 0
M  V30 18 C 10.899430 8.996845 -6.309826 0
M  V30 19 O 10.886031 10.172315 -6.646807 0
M  V30 20 C 10.616477 8.412951 -8.780523 0
M  V30 21 C 10.234818 7.365008 -9.845886 0
M  V30 22 C 8.491928 2.917113 -14.221218 0
M  V30 23 C 9.847580 2.896372 -14.635291 0
M  V30 24 C 10.379827 1.770670 -15.294919 0
M  V30 25 C 9.567122 0.653177 -15.556962 0
M  V30 26 F 10.086090 -0.433556 -16.176649 0
M  V30 27 C 8.213616 0.670262 -15.175448 0
M  V30 28 C 7.678753 1.796585 -14.518324 0
M  V30 29 H 8.888531 5.815364 -14.108676 0
M  V30 30 H 9.813289 4.934843 -12.915639 0
M  V30 31 H 7.272539 6.475443 -12.177346 0
M  V30 32 H 8.839952 7.175402 -12.219474 0
M  V30 33 H 9.393524 4.968397 -10.617707 0
M  V30 34 H 7.688406 5.144351 -10.309823 0
M  V30 35 H 7.686019 5.964291 -8.075706 0
M  V30 36 H 9.282610 5.384321 -8.063291 0
M  V30 37 H 8.885796 6.997928 -6.175481 0
M  V30 38 H 8.372968 8.225767 -7.284832 0
M  V30 39 H 11.287256 5.855251 -7.744296 0
M  V30 40 H 12.486132 7.039087 -7.447016 0
M  V30 41 H 12.332859 5.463081 -5.540091 0
M  V30 42 H 10.591431 5.772327 -5.409969 0
M  V30 43 H 12.393366 5.948467 -3.082763 0
M  V30 44 H 12.753123 7.742499 -1.405566 0
M  V30 45 H 12.220819 10.099975 -1.976074 0
M  V30 46 H 11.286422 10.659836 -4.192605 0
M  V30 47 H 9.957364 9.275030 -8.902326 0
M  V30 48 H 11.624198 8.780220 -8.983899 0
M  V30 49 H 10.286631 7.849921 -10.818725 0
M  V30 50 H 10.984899 6.574585 -9.870187 0
M  V30 51 H 10.512302 3.725076 -14.449606 0
M  V30 52 H 11.417771 1.760556 -15.593788 0
M  V30 53 H 7.588931 -0.187371 -15.379485 0
M  V30 54 H 6.640134 1.780024 -14.219189 0
M  V30 55 H 8.169179 7.468625 -9.777641 0
M  V30 END ATOM
M  V30 BEGIN BOND
M  V30 1 2 2 1
M  V30 2 1 3 2
M  V30 3 1 4 3
M  V30 4 1 5 4
M  V30 5 1 6 5
M  V30 6 1 7 6
M  V30 7 1 8 7
M  V30 8 1 9 8 CFG=1
M  V30 9 1 10 9
M  V30 10 1 11 10
M  V30 11 1 12 11
M  V30 12 2 13 12
M  V30 13 1 14 13
M  V30 14 2 15 14
M  V30 15 1 16 15
M  V30 16 1 17 12
M  V30 17 2 17 16
M  V30 18 1 18 9
M  V30 19 1 18 17
M  V30 20 2 19 18
M  V30 21 1 20 9
M  V30 22 1 21 6
M  V30 23 1 21 20
M  V30 24 1 22 2
M  V30 25 1 23 22
M  V30 26 2 24 23
M  V30 27 1 25 24
M  V30 28 1 26 25
M  V30 29 2 27 25
M  V30 30 2 28 22
M  V30 31 1 28 27
M  V30 32 1 29 3
M  V30 33 1 30 3
M  V30 34 1 31 4
M  V30 35 1 32 4
M  V30 36 1 33 5
M  V30 37 1 34 5
M  V30 38 1 35 7
M  V30 39 1 36 7
M  V30 40 1 37 8
M  V30 41 1 38 8
M  V30 42 1 39 10
M  V30 43 1 40 10
M  V30 44 1 41 11
M  V30 45 1 42 11
M  V30 46 1 43 13
M  V30 47 1 44 14
M  V30 48 1 45 15
M  V30 49 1 46 16
M  V30 50 1 47 20
M  V30 51 1 48 20
M  V30 52 1 49 21
M  V30 53 1 50 21
M  V30 54 1 51 23
M  V30 55 1 52 24
M  V30 56 1 53 27
M  V30 57 1 54 28
M  V30 58 1 6 55 CFG=3
M  V30 END BOND
M  V30 END CTAB
M  END
>  <b_m_subgroup_collapsed>  (141) 
0

>  <r_i_docking_score>  (141) 
-9.0388443954948805

>  <s_m_subgroup_title>  (141) 
glide-dock_SP_D22_pv

>  <s_m_subgroupid>  (141) 
glide-dock_SP_D22_pv

>  <Molecule ChEMBL ID>  (141) 
CHEMBL553311

>  <Standard Type>  (141) 
Ki

>  <Standard Value>  (141) 
25.0

>  <label>  (141) 
1

$$$$
CHEMBL1765629
     RDKit          3D

  0  0  0  0  0  0  0  0  0  0999 V3000
M  V30 BEGIN CTAB
M  V30 COUNTS 67 70 0 0 1
M  V30 BEGIN ATOM
M  V30 1 C 11.518139 4.386929 -14.160970 0
M  V30 2 C 10.897520 3.146999 -14.825885 0
M  V30 3 C 9.793475 2.452276 -14.002964 0
M  V30 4 N 8.413129 2.874414 -14.373854 0 CFG=2 CHG=1
M  V30 5 C 8.072160 4.268593 -13.959323 0
M  V30 6 C 8.242067 4.581420 -12.454458 0
M  V30 7 C 7.464822 5.846108 -12.061462 0
M  V30 8 C 8.287354 7.125638 -12.256741 0
M  V30 9 N 8.886168 7.504594 -10.987991 0
M  V30 10 C 10.185046 7.511511 -10.674401 0
M  V30 11 O 11.089547 7.372704 -11.498194 0
M  V30 12 C 10.476132 7.721413 -9.218624 0
M  V30 13 C 9.682827 7.098364 -8.227952 0
M  V30 14 C 10.005950 7.236735 -6.864827 0
M  V30 15 C 11.116420 8.010193 -6.462140 0
M  V30 16 C 11.490727 8.114596 -5.042439 0
M  V30 17 C 11.695580 9.373096 -4.440269 0
M  V30 18 C 12.080243 9.470469 -3.090369 0
M  V30 19 C 12.282883 8.308717 -2.324476 0
M  V30 20 C 12.085842 7.045955 -2.911752 0
M  V30 21 C 11.685829 6.954720 -4.259185 0
M  V30 22 C 11.883262 8.656960 -7.455149 0
M  V30 23 C 11.582582 8.498048 -8.822253 0
M  V30 24 C 7.373855 1.809453 -14.143910 0 CFG=1
M  V30 25 C 6.024975 2.289307 -13.525789 0
M  V30 26 C 5.071720 1.132221 -13.205548 0
M  V30 27 N 5.044474 0.172121 -14.285061 0
M  V30 28 N 4.056454 -0.738359 -14.352135 0
M  V30 29 C 4.332713 -1.427132 -15.449444 0
M  V30 30 C 5.519567 -0.976820 -16.098282 0
M  V30 31 C 5.951781 0.056189 -15.317911 0
M  V30 32 C 7.107550 1.006864 -15.439903 0
M  V30 33 H 12.400746 4.717621 -14.712538 0
M  V30 34 H 11.841948 4.173327 -13.140835 0
M  V30 35 H 10.829986 5.229522 -14.115164 0
M  V30 36 H 10.549567 3.388658 -15.830561 0
M  V30 37 H 11.703302 2.425564 -14.967227 0
M  V30 38 H 9.885162 1.384655 -14.203293 0
M  V30 39 H 9.970522 2.572640 -12.935246 0
M  V30 40 H 8.675926 4.962607 -14.540482 0
M  V30 41 H 7.053514 4.499770 -14.254519 0
M  V30 42 H 7.879851 3.772603 -11.830750 0
M  V30 43 H 9.296574 4.688215 -12.191211 0
M  V30 44 H 6.534365 5.917533 -12.624731 0
M  V30 45 H 7.144281 5.768504 -11.020864 0
M  V30 46 H 9.027099 6.973213 -13.042009 0
M  V30 47 H 7.636765 7.942712 -12.570392 0
M  V30 48 H 8.210105 7.702450 -10.249800 0
M  V30 49 H 8.827671 6.496293 -8.502977 0
M  V30 50 H 9.395782 6.739238 -6.124300 0
M  V30 51 H 11.547436 10.274348 -5.015719 0
M  V30 52 H 12.216732 10.444011 -2.645050 0
M  V30 53 H 12.579768 8.388324 -1.288972 0
M  V30 54 H 12.232112 6.145842 -2.331080 0
M  V30 55 H 11.536840 5.979808 -4.700746 0
M  V30 56 H 12.741004 9.250515 -7.172086 0
M  V30 57 H 12.209101 8.973655 -9.563394 0
M  V30 58 H 7.783598 1.076857 -13.447197 0
M  V30 59 H 6.149432 2.857400 -12.609131 0
M  V30 60 H 5.527731 2.950773 -14.235409 0
M  V30 61 H 5.384284 0.614653 -12.298051 0
M  V30 62 H 4.066497 1.518068 -13.047084 0
M  V30 63 H 3.669667 -2.227370 -15.743075 0
M  V30 64 H 5.972743 -1.357858 -17.003115 0
M  V30 65 H 6.895417 1.695845 -16.258783 0
M  V30 66 H 8.002888 0.454098 -15.726856 0
M  V30 67 H 8.441520 2.935869 -15.382202 0
M  V30 END ATOM
M  V30 BEGIN BOND
M  V30 1 1 2 1
M  V30 2 1 3 2
M  V30 3 1 4 3
M  V30 4 1 5 4
M  V30 5 1 6 5
M  V30 6 1 7 6
M  V30 7 1 8 7
M  V30 8 1 9 8
M  V30 9 1 10 9
M  V30 10 2 11 10
M  V30 11 1 12 10
M  V30 12 1 13 12
M  V30 13 2 14 13
M  V30 14 1 15 14
M  V30 15 1 16 15
M  V30 16 2 17 16
M  V30 17 1 18 17
M  V30 18 2 19 18
M  V30 19 1 20 19
M  V30 20 1 21 16
M  V30 21 2 21 20
M  V30 22 2 22 15
M  V30 23 2 23 12
M  V30 24 1 23 22
M  V30 25 1 24 4
M  V30 26 1 25 24
M  V30 27 1 26 25
M  V30 28 1 27 26
M  V30 29 1 28 27
M  V30 30 2 29 28
M  V30 31 1 30 29
M  V30 32 1 31 27
M  V30 33 2 31 30
M  V30 34 1 32 24
M  V30 35 1 32 31
M  V30 36 1 33 1
M  V30 37 1 34 1
M  V30 38 1 35 1
M  V30 39 1 36 2
M  V30 40 1 37 2
M  V30 41 1 38 3
M  V30 42 1 39 3
M  V30 43 1 40 5
M  V30 44 1 41 5
M  V30 45 1 42 6
M  V30 46 1 43 6
M  V30 47 1 44 7
M  V30 48 1 45 7
M  V30 49 1 46 8
M  V30 50 1 47 8
M  V30 51 1 48 9
M  V30 52 1 49 13
M  V30 53 1 50 14
M  V30 54 1 51 17
M  V30 55 1 52 18
M  V30 56 1 53 19
M  V30 57 1 54 20
M  V30 58 1 55 21
M  V30 59 1 56 22
M  V30 60 1 57 23
M  V30 61 1 24 58 CFG=1
M  V30 62 1 59 25
M  V30 63 1 60 25
M  V30 64 1 61 26
M  V30 65 1 62 26
M  V30 66 1 63 29
M  V30 67 1 64 30
M  V30 68 1 65 32
M  V30 69 1 66 32
M  V30 70 1 4 67 CFG=3
M  V30 END BOND
M  V30 END CTAB
M  END
>  <b_m_subgroup_collapsed>  (142) 
0

>  <r_i_docking_score>  (142) 
-9.0371611388491999

>  <s_m_subgroup_title>  (142) 
glide-dock_SP_D22_pv

>  <s_m_subgroupid>  (142) 
glide-dock_SP_D22_pv

>  <Molecule ChEMBL ID>  (142) 
CHEMBL1765629

>  <Standard Type>  (142) 
Ki

>  <Standard Value>  (142) 
77.0

>  <label>  (142) 
1

$$$$
CHEMBL196866
     RDKit          3D

  0  0  0  0  0  0  0  0  0  0999 V3000
M  V30 BEGIN CTAB
M  V30 COUNTS 49 52 0 0 1
M  V30 BEGIN ATOM
M  V30 1 O 10.973607 7.771772 -11.376073 0
M  V30 2 C 10.077829 7.527082 -10.567618 0
M  V30 3 N 8.886260 7.025018 -10.929573 0
M  V30 4 C 8.566516 6.483389 -12.247233 0 CFG=1
M  V30 5 C 9.581785 5.449214 -12.784273 0
M  V30 6 C 8.789015 4.155828 -12.909608 0
M  V30 7 N 7.397692 4.590928 -13.152267 0 CFG=1 CHG=1
M  V30 8 C 6.341771 3.548748 -13.025567 0
M  V30 9 C 6.537108 2.273366 -13.856528 0
M  V30 10 C 7.275860 2.257520 -15.063023 0
M  V30 11 C 7.392021 1.079736 -15.824383 0
M  V30 12 C 6.776937 -0.105120 -15.385934 0
M  V30 13 C 6.064616 -0.115543 -14.175716 0
M  V30 14 C 5.948303 1.064643 -13.417545 0
M  V30 15 F 5.284641 1.028052 -12.241202 0
M  V30 16 C 7.214999 5.750648 -12.248368 0
M  V30 17 C 10.300715 7.752063 -9.099019 0
M  V30 18 C 11.237793 8.717132 -8.671330 0
M  V30 19 C 11.574075 8.832623 -7.309103 0
M  V30 20 C 10.994152 7.974794 -6.349685 0
M  V30 21 C 11.421801 8.016369 -4.956472 0
M  V30 22 C 11.686027 6.971620 -4.107391 0
M  V30 23 C 12.086330 7.394372 -2.806035 0
M  V30 24 C 12.135695 8.758031 -2.685754 0
M  V30 25 S 11.685195 9.548877 -4.170385 0
M  V30 26 C 10.035820 7.030521 -6.773295 0
M  V30 27 C 9.686602 6.920520 -8.133323 0
M  V30 28 H 8.132379 7.047951 -10.247833 0
M  V30 29 H 8.491345 7.322870 -12.939171 0
M  V30 30 H 9.924322 5.766383 -13.770630 0
M  V30 31 H 10.475302 5.307993 -12.175220 0
M  V30 32 H 9.195038 3.511098 -13.687147 0
M  V30 33 H 8.847956 3.614465 -11.965492 0
M  V30 34 H 6.254896 3.274637 -11.972703 0
M  V30 35 H 5.383285 3.987244 -13.306706 0
M  V30 36 H 7.771836 3.139188 -15.428280 0
M  V30 37 H 7.956537 1.082381 -16.745106 0
M  V30 38 H 6.867842 -1.011700 -15.967919 0
M  V30 39 H 5.612712 -1.033572 -13.830860 0
M  V30 40 H 6.973907 5.393828 -11.245009 0
M  V30 41 H 6.395156 6.392678 -12.571800 0
M  V30 42 H 11.733560 9.352398 -9.393070 0
M  V30 43 H 12.320731 9.554992 -7.012695 0
M  V30 44 H 11.598092 5.927752 -4.371026 0
M  V30 45 H 12.323031 6.692741 -2.019573 0
M  V30 46 H 12.410513 9.349426 -1.823449 0
M  V30 47 H 9.575138 6.369216 -6.052965 0
M  V30 48 H 8.973941 6.163070 -8.425990 0
M  V30 49 H 7.366768 4.945041 -14.096584 0
M  V30 END ATOM
M  V30 BEGIN BOND
M  V30 1 2 2 1
M  V30 2 1 3 2
M  V30 3 1 4 3
M  V30 4 1 5 4
M  V30 5 1 6 5
M  V30 6 1 7 6
M  V30 7 1 8 7
M  V30 8 1 9 8
M  V30 9 2 10 9
M  V30 10 1 11 10
M  V30 11 2 12 11
M  V30 12 1 13 12
M  V30 13 1 14 9
M  V30 14 2 14 13
M  V30 15 1 15 14
M  V30 16 1 16 4
M  V30 17 1 16 7
M  V30 18 1 17 2
M  V30 19 1 18 17
M  V30 20 2 19 18
M  V30 21 1 20 19
M  V30 22 1 21 20
M  V30 23 2 22 21
M  V30 24 1 23 22
M  V30 25 2 24 23
M  V30 26 1 25 21
M  V30 27 1 25 24
M  V30 28 2 26 20
M  V30 29 2 27 17
M  V30 30 1 27 26
M  V30 31 1 28 3
M  V30 32 1 4 29 CFG=3
M  V30 33 1 30 5
M  V30 34 1 31 5
M  V30 35 1 32 6
M  V30 36 1 33 6
M  V30 37 1 34 8
M  V30 38 1 35 8
M  V30 39 1 36 10
M  V30 40 1 37 11
M  V30 41 1 38 12
M  V30 42 1 39 13
M  V30 43 1 40 16
M  V30 44 1 41 16
M  V30 45 1 42 18
M  V30 46 1 43 19
M  V30 47 1 44 22
M  V30 48 1 45 23
M  V30 49 1 46 24
M  V30 50 1 47 26
M  V30 51 1 48 27
M  V30 52 1 7 49 CFG=3
M  V30 END BOND
M  V30 END CTAB
M  END
>  <b_m_subgroup_collapsed>  (143) 
0

>  <r_i_docking_score>  (143) 
-9.0307576337793503

>  <s_m_subgroup_title>  (143) 
glide-dock_SP_D22_pv

>  <s_m_subgroupid>  (143) 
glide-dock_SP_D22_pv

>  <Molecule ChEMBL ID>  (143) 
CHEMBL196866

>  <Standard Type>  (143) 
Ki

>  <Standard Value>  (143) 
38000.0

>  <label>  (143) 
0

$$$$
CHEMBL5289845
     RDKit          3D

  0  0  0  0  0  0  0  0  0  0999 V3000
M  V30 BEGIN CTAB
M  V30 COUNTS 44 46 0 0 1
M  V30 BEGIN ATOM
M  V30 1 O 10.740648 4.083894 -14.077184 0
M  V30 2 C 9.793668 4.581655 -13.469640 0
M  V30 3 C 9.959527 5.807562 -12.662387 0
M  V30 4 C 8.919080 6.341726 -11.987906 0
M  V30 5 C 9.035566 7.601809 -11.158987 0
M  V30 6 N 8.886040 7.249819 -9.730311 0 CHG=1
M  V30 7 C 9.299579 8.283936 -8.758656 0
M  V30 8 C 10.749032 8.116860 -8.236362 0 CFG=1
M  V30 9 C 11.796207 8.393889 -9.340661 0
M  V30 10 O 13.110429 8.172432 -8.885633 0
M  V30 11 C 10.960804 9.049932 -7.004721 0
M  V30 12 C 11.293328 8.402308 -5.680031 0
M  V30 13 C 11.274451 7.007741 -5.344203 0
M  V30 14 C 11.685821 6.748861 -4.062640 0
M  V30 15 S 12.086074 8.206665 -3.206306 0
M  V30 16 C 11.687198 9.163523 -4.606513 0
M  V30 17 N 7.655067 5.772456 -12.013842 0
M  V30 18 C 7.385300 4.604668 -12.734994 0
M  V30 19 C 6.098969 4.032531 -12.709330 0
M  V30 20 C 5.842001 2.861009 -13.447392 0
M  V30 21 C 6.857236 2.274758 -14.231064 0
M  V30 22 F 6.599373 1.154688 -14.945615 0
M  V30 23 C 8.146708 2.837620 -14.247008 0
M  V30 24 C 8.421801 3.996716 -13.489554 0
M  V30 25 H 10.937297 6.265314 -12.636800 0
M  V30 26 H 8.248369 8.301903 -11.446893 0
M  V30 27 H 9.972560 8.107121 -11.380370 0
M  V30 28 H 9.311130 6.359067 -9.520595 0
M  V30 29 H 8.614350 8.183311 -7.914605 0
M  V30 30 H 9.130033 9.281970 -9.165811 0
M  V30 31 H 10.870307 7.075322 -7.950922 0
M  V30 32 H 11.706141 9.413128 -9.718697 0
M  V30 33 H 11.670706 7.715931 -10.181973 0
M  V30 34 H 13.679810 8.800179 -9.317516 0
M  V30 35 H 11.746077 9.770340 -7.236311 0
M  V30 36 H 10.085752 9.681825 -6.863407 0
M  V30 37 H 10.977465 6.229357 -6.029603 0
M  V30 38 H 11.765319 5.786763 -3.572231 0
M  V30 39 H 11.783342 10.236741 -4.558605 0
M  V30 40 H 6.892056 6.237039 -11.524744 0
M  V30 41 H 5.312559 4.481456 -12.119414 0
M  V30 42 H 4.861061 2.412349 -13.423459 0
M  V30 43 H 8.923119 2.365518 -14.831958 0
M  V30 44 H 7.870458 7.172180 -9.636909 0
M  V30 END ATOM
M  V30 BEGIN BOND
M  V30 1 2 2 1
M  V30 2 1 3 2
M  V30 3 2 4 3
M  V30 4 1 5 4
M  V30 5 1 6 5
M  V30 6 1 7 6
M  V30 7 1 8 7
M  V30 8 1 9 8
M  V30 9 1 10 9
M  V30 10 1 11 8
M  V30 11 1 12 11
M  V30 12 1 13 12
M  V30 13 2 14 13
M  V30 14 1 15 14
M  V30 15 2 16 12
M  V30 16 1 16 15
M  V30 17 1 17 4
M  V30 18 1 18 17
M  V30 19 2 19 18
M  V30 20 1 20 19
M  V30 21 2 21 20
M  V30 22 1 22 21
M  V30 23 1 23 21
M  V30 24 1 24 2
M  V30 25 1 24 18
M  V30 26 2 24 23
M  V30 27 1 25 3
M  V30 28 1 26 5
M  V30 29 1 27 5
M  V30 30 1 28 6
M  V30 31 1 29 7
M  V30 32 1 30 7
M  V30 33 1 8 31 CFG=1
M  V30 34 1 32 9
M  V30 35 1 33 9
M  V30 36 1 34 10
M  V30 37 1 35 11
M  V30 38 1 36 11
M  V30 39 1 37 13
M  V30 40 1 38 14
M  V30 41 1 39 16
M  V30 42 1 40 17
M  V30 43 1 41 19
M  V30 44 1 42 20
M  V30 45 1 43 23
M  V30 46 1 44 6
M  V30 END BOND
M  V30 END CTAB
M  END
>  <b_m_subgroup_collapsed>  (144) 
0

>  <r_i_docking_score>  (144) 
-9.0305215353841994

>  <s_m_subgroup_title>  (144) 
glide-dock_SP_D22_pv

>  <s_m_subgroupid>  (144) 
glide-dock_SP_D22_pv

>  <Molecule ChEMBL ID>  (144) 
CHEMBL5289845

>  <Standard Type>  (144) 
Ki

>  <Standard Value>  (144) 
10000.0

>  <label>  (144) 
0

$$$$
CHEMBL400827
     RDKit          3D

  0  0  0  0  0  0  0  0  0  0999 V3000
M  V30 BEGIN CTAB
M  V30 COUNTS 49 52 0 0 1
M  V30 BEGIN ATOM
M  V30 1 C 11.686700 11.057807 -6.003166 0
M  V30 2 N 11.336337 9.678747 -5.903436 0
M  V30 3 C 10.688366 8.932968 -6.873035 0
M  V30 4 C 10.726767 7.601459 -6.542459 0
M  V30 5 C 10.326938 6.380665 -7.352024 0
M  V30 6 N 9.612112 6.586677 -8.649772 0 CFG=2 CHG=1
M  V30 7 C 9.177645 5.290234 -9.244683 0
M  V30 8 C 8.294807 5.473085 -10.501059 0
M  V30 9 C 8.822397 6.504637 -11.547911 0 CFG=2
M  V30 10 O 7.686292 6.974416 -12.246873 0
M  V30 11 C 9.805848 5.886236 -12.560637 0
M  V30 12 C 11.067906 6.466772 -12.853075 0
M  V30 13 C 11.898602 5.924178 -13.851120 0
M  V30 14 C 11.481114 4.800642 -14.583878 0
M  V30 15 Cl 12.482731 4.171903 -15.838106 0
M  V30 16 C 10.236619 4.208351 -14.304898 0
M  V30 17 C 9.405344 4.752163 -13.306593 0
M  V30 18 C 9.382065 7.744809 -10.805541 0
M  V30 19 C 10.358820 7.342546 -9.689081 0
M  V30 20 C 11.271399 7.573562 -5.204711 0
M  V30 21 C 11.520059 6.571328 -4.251104 0
M  V30 22 C 12.084510 6.834322 -2.987797 0
M  V30 23 C 12.433686 8.147015 -2.640690 0
M  V30 24 C 12.215923 9.175501 -3.568660 0
M  V30 25 C 11.638565 8.887401 -4.822140 0
M  V30 26 H 12.773356 11.104093 -5.992158 0
M  V30 27 H 11.329634 11.482132 -6.935174 0
M  V30 28 H 11.285684 11.595778 -5.145814 0
M  V30 29 H 10.322483 9.433947 -7.754289 0
M  V30 30 H 9.675187 5.773304 -6.725057 0
M  V30 31 H 11.211403 5.768798 -7.536462 0
M  V30 32 H 8.618793 4.712759 -8.506642 0
M  V30 33 H 10.056631 4.695425 -9.499434 0
M  V30 34 H 7.311350 5.772929 -10.149913 0
M  V30 35 H 8.105685 4.502153 -10.956045 0
M  V30 36 H 7.093650 7.368790 -11.597803 0
M  V30 37 H 11.430846 7.342288 -12.341420 0
M  V30 38 H 12.854122 6.381567 -14.064647 0
M  V30 39 H 9.908083 3.349288 -14.871281 0
M  V30 40 H 8.436016 4.307051 -13.139937 0
M  V30 41 H 9.826099 8.461290 -11.496119 0
M  V30 42 H 8.570535 8.303432 -10.338437 0
M  V30 43 H 10.847287 8.234503 -9.320518 0
M  V30 44 H 11.170872 6.725789 -10.074142 0
M  V30 45 H 11.251292 5.562859 -4.501177 0
M  V30 46 H 12.241508 6.025319 -2.287706 0
M  V30 47 H 12.866209 8.365405 -1.674677 0
M  V30 48 H 12.494240 10.177728 -3.302282 0
M  V30 49 H 8.768456 7.106271 -8.436503 0
M  V30 END ATOM
M  V30 BEGIN BOND
M  V30 1 1 2 1
M  V30 2 1 3 2
M  V30 3 2 4 3
M  V30 4 1 5 4
M  V30 5 1 6 5
M  V30 6 1 7 6
M  V30 7 1 8 7
M  V30 8 1 9 8
M  V30 9 1 9 10 CFG=3
M  V30 10 1 11 9
M  V30 11 1 12 11
M  V30 12 2 13 12
M  V30 13 1 14 13
M  V30 14 1 15 14
M  V30 15 2 16 14
M  V30 16 2 17 11
M  V30 17 1 17 16
M  V30 18 1 18 9
M  V30 19 1 19 6
M  V30 20 1 19 18
M  V30 21 1 20 4
M  V30 22 2 21 20
M  V30 23 1 22 21
M  V30 24 2 23 22
M  V30 25 1 24 23
M  V30 26 1 25 2
M  V30 27 1 25 20
M  V30 28 2 25 24
M  V30 29 1 26 1
M  V30 30 1 27 1
M  V30 31 1 28 1
M  V30 32 1 29 3
M  V30 33 1 30 5
M  V30 34 1 31 5
M  V30 35 1 32 7
M  V30 36 1 33 7
M  V30 37 1 34 8
M  V30 38 1 35 8
M  V30 39 1 36 10
M  V30 40 1 37 12
M  V30 41 1 38 13
M  V30 42 1 39 16
M  V30 43 1 40 17
M  V30 44 1 41 18
M  V30 45 1 42 18
M  V30 46 1 43 19
M  V30 47 1 44 19
M  V30 48 1 45 21
M  V30 49 1 46 22
M  V30 50 1 47 23
M  V30 51 1 48 24
M  V30 52 1 6 49 CFG=1
M  V30 END BOND
M  V30 END CTAB
M  END
>  <b_m_subgroup_collapsed>  (145) 
0

>  <r_i_docking_score>  (145) 
-9.0219093085539992

>  <s_m_subgroup_title>  (145) 
glide-dock_SP_D22_pv

>  <s_m_subgroupid>  (145) 
glide-dock_SP_D22_pv

>  <Molecule ChEMBL ID>  (145) 
CHEMBL400827

>  <Standard Type>  (145) 
Ki

>  <Standard Value>  (145) 
29.6

>  <label>  (145) 
1

$$$$
CHEMBL196866
     RDKit          3D

  0  0  0  0  0  0  0  0  0  0999 V3000
M  V30 BEGIN CTAB
M  V30 COUNTS 49 52 0 0 1
M  V30 BEGIN ATOM
M  V30 1 O 11.061235 7.537794 -11.319403 0
M  V30 2 C 10.126030 7.424189 -10.527026 0
M  V30 3 N 8.902135 7.005412 -10.888386 0
M  V30 4 C 8.563119 6.272161 -12.102498 0 CFG=1
M  V30 5 C 9.622834 5.284258 -12.607952 0
M  V30 6 C 8.795532 4.304626 -13.423228 0
M  V30 7 N 7.523298 4.167848 -12.684536 0 CFG=2 CHG=1
M  V30 8 C 6.352988 3.773404 -13.497906 0
M  V30 9 C 6.485420 2.372674 -14.089022 0
M  V30 10 C 7.164208 2.157611 -15.308628 0
M  V30 11 C 7.171327 0.882115 -15.906565 0
M  V30 12 C 6.505793 -0.190796 -15.284563 0
M  V30 13 C 5.878340 0.000362 -14.042308 0
M  V30 14 C 5.871925 1.275213 -13.447023 0
M  V30 15 F 5.286089 1.443885 -12.241003 0
M  V30 16 C 7.343605 5.374616 -11.847517 0
M  V30 17 C 10.334525 7.705566 -9.066323 0
M  V30 18 C 11.359060 8.588005 -8.660892 0
M  V30 19 C 11.684883 8.726466 -7.297748 0
M  V30 20 C 11.007195 7.972069 -6.316842 0
M  V30 21 C 11.428360 8.015358 -4.923106 0
M  V30 22 C 11.686026 6.970562 -4.071806 0
M  V30 23 C 12.085426 7.395988 -2.770732 0
M  V30 24 C 12.132314 8.760277 -2.651565 0
M  V30 25 S 11.685993 9.549353 -4.139246 0
M  V30 26 C 9.958307 7.119848 -6.717434 0
M  V30 27 C 9.619260 6.989392 -8.078193 0
M  V30 28 H 8.132056 7.169415 -10.244376 0
M  V30 29 H 8.326459 6.985152 -12.892293 0
M  V30 30 H 10.408040 5.759142 -13.197541 0
M  V30 31 H 10.091138 4.758651 -11.773611 0
M  V30 32 H 8.610431 4.730985 -14.410542 0
M  V30 33 H 9.296054 3.344097 -13.553853 0
M  V30 34 H 5.459215 3.809878 -12.871928 0
M  V30 35 H 6.187516 4.500448 -14.291759 0
M  V30 36 H 7.673756 2.968490 -15.804167 0
M  V30 37 H 7.675253 0.727163 -16.849411 0
M  V30 38 H 6.486054 -1.165205 -15.750091 0
M  V30 39 H 5.398772 -0.832532 -13.552541 0
M  V30 40 H 7.302716 5.046588 -10.809557 0
M  V30 41 H 6.414264 5.904952 -12.057822 0
M  V30 42 H 11.933136 9.132840 -9.397851 0
M  V30 43 H 12.501975 9.373904 -7.013768 0
M  V30 44 H 11.598959 5.926353 -4.334549 0
M  V30 45 H 12.318819 6.694650 -1.982576 0
M  V30 46 H 12.400386 9.353631 -1.788298 0
M  V30 47 H 9.423272 6.539833 -5.979510 0
M  V30 48 H 8.835024 6.297979 -8.351210 0
M  V30 49 H 7.666418 3.418978 -12.021651 0
M  V30 END ATOM
M  V30 BEGIN BOND
M  V30 1 2 2 1
M  V30 2 1 3 2
M  V30 3 1 4 3
M  V30 4 1 5 4
M  V30 5 1 6 5
M  V30 6 1 7 6
M  V30 7 1 8 7
M  V30 8 1 9 8
M  V30 9 2 10 9
M  V30 10 1 11 10
M  V30 11 2 12 11
M  V30 12 1 13 12
M  V30 13 1 14 9
M  V30 14 2 14 13
M  V30 15 1 15 14
M  V30 16 1 16 4
M  V30 17 1 16 7
M  V30 18 1 17 2
M  V30 19 1 18 17
M  V30 20 2 19 18
M  V30 21 1 20 19
M  V30 22 1 21 20
M  V30 23 2 22 21
M  V30 24 1 23 22
M  V30 25 2 24 23
M  V30 26 1 25 21
M  V30 27 1 25 24
M  V30 28 2 26 20
M  V30 29 2 27 17
M  V30 30 1 27 26
M  V30 31 1 28 3
M  V30 32 1 4 29 CFG=3
M  V30 33 1 30 5
M  V30 34 1 31 5
M  V30 35 1 32 6
M  V30 36 1 33 6
M  V30 37 1 34 8
M  V30 38 1 35 8
M  V30 39 1 36 10
M  V30 40 1 37 11
M  V30 41 1 38 12
M  V30 42 1 39 13
M  V30 43 1 40 16
M  V30 44 1 41 16
M  V30 45 1 42 18
M  V30 46 1 43 19
M  V30 47 1 44 22
M  V30 48 1 45 23
M  V30 49 1 46 24
M  V30 50 1 47 26
M  V30 51 1 48 27
M  V30 52 1 7 49 CFG=1
M  V30 END BOND
M  V30 END CTAB
M  END
>  <b_m_subgroup_collapsed>  (146) 
0

>  <r_i_docking_score>  (146) 
-9.0202430582485906

>  <s_m_subgroup_title>  (146) 
glide-dock_SP_D22_pv

>  <s_m_subgroupid>  (146) 
glide-dock_SP_D22_pv

>  <Molecule ChEMBL ID>  (146) 
CHEMBL196866

>  <Standard Type>  (146) 
Ki

>  <Standard Value>  (146) 
38000.0

>  <label>  (146) 
0

$$$$
CHEMBL4293999
     RDKit          3D

  0  0  0  0  0  0  0  0  0  0999 V3000
M  V30 BEGIN CTAB
M  V30 COUNTS 66 71 0 0 1
M  V30 BEGIN ATOM
M  V30 1 O 10.256325 5.177683 -14.140559 0
M  V30 2 C 9.732970 4.075661 -14.308228 0
M  V30 3 C 8.515224 3.672145 -13.461708 0
M  V30 4 C 7.584777 4.808474 -12.984193 0
M  V30 5 C 8.134838 5.832095 -11.983094 0
M  V30 6 C 8.518710 5.233320 -10.620078 0
M  V30 7 N 8.842277 6.281405 -9.620045 0 CFG=1 CHG=1
M  V30 8 C 8.699252 5.775378 -8.228931 0
M  V30 9 C 9.013296 6.862270 -7.186132 0
M  V30 10 C 10.437883 7.387527 -7.396229 0 CFG=2
M  V30 11 C 10.851042 8.372087 -6.333724 0
M  V30 12 N 10.673285 9.681329 -6.493571 0
M  V30 13 O 11.127506 10.326975 -5.312651 0
M  V30 14 C 11.562652 9.375696 -4.408031 0
M  V30 15 C 12.070086 9.488786 -3.109054 0
M  V30 16 C 12.394755 8.301055 -2.424506 0
M  V30 17 F 12.886001 8.367656 -1.168220 0
M  V30 18 C 12.196732 7.042509 -3.042110 0
M  V30 19 C 11.685679 6.955295 -4.357974 0
M  V30 20 C 11.373157 8.148080 -5.045336 0
M  V30 21 C 10.546565 7.957505 -8.821056 0
M  V30 22 C 10.174000 6.897521 -9.866326 0
M  V30 23 C 10.244521 3.084966 -15.299359 0
M  V30 24 C 11.305514 3.473046 -16.166527 0
M  V30 25 C 11.815167 2.585079 -17.136700 0
M  V30 26 C 11.217666 1.315691 -17.206984 0
M  V30 27 C 10.200909 0.886616 -16.362965 0
M  V30 28 C 9.711236 1.766387 -15.383892 0
M  V30 29 C 9.861563 -0.539079 -16.732439 0
M  V30 30 C 10.724694 -0.864473 -17.966122 0
M  V30 31 N 11.558781 0.317349 -18.135710 0
M  V30 32 C 12.442154 0.498509 -19.133101 0
M  V30 33 O 12.816332 -0.410552 -19.874241 0
M  V30 34 C 12.934190 1.931058 -19.369627 0
M  V30 35 C 12.993435 2.781623 -18.082973 0
M  V30 36 H 7.883943 3.009067 -14.050446 0
M  V30 37 H 8.886019 3.086556 -12.627847 0
M  V30 38 H 7.239392 5.366725 -13.847286 0
M  V30 39 H 6.689534 4.355687 -12.556192 0
M  V30 40 H 8.967865 6.378291 -12.416681 0
M  V30 41 H 7.349899 6.573996 -11.840877 0
M  V30 42 H 7.685947 4.634396 -10.255721 0
M  V30 43 H 9.357885 4.545160 -10.723516 0
M  V30 44 H 7.686761 5.407910 -8.070810 0
M  V30 45 H 9.358974 4.920199 -8.084783 0
M  V30 46 H 8.910303 6.442189 -6.186070 0
M  V30 47 H 8.291611 7.678076 -7.251668 0
M  V30 48 H 11.117102 6.535808 -7.330750 0
M  V30 49 H 12.188650 10.455202 -2.645641 0
M  V30 50 H 12.439920 6.137541 -2.503544 0
M  V30 51 H 11.536318 5.994020 -4.824700 0
M  V30 52 H 11.560134 8.313416 -9.004862 0
M  V30 53 H 9.889678 8.820925 -8.936586 0
M  V30 54 H 10.907602 6.102077 -9.847421 0
M  V30 55 H 10.213502 7.346943 -10.857225 0
M  V30 56 H 11.744184 4.458112 -16.088659 0
M  V30 57 H 8.936609 1.405354 -14.726801 0
M  V30 58 H 10.102586 -1.184132 -15.888759 0
M  V30 59 H 8.795872 -0.632891 -16.941572 0
M  V30 60 H 10.096189 -0.987214 -18.847965 0
M  V30 61 H 11.308866 -1.772638 -17.846590 0
M  V30 62 H 12.229805 2.387938 -20.064133 0
M  V30 63 H 13.902616 1.920886 -19.871174 0
M  V30 64 H 13.044628 3.836409 -18.354353 0
M  V30 65 H 13.909317 2.572970 -17.531572 0
M  V30 66 H 8.130894 6.999378 -9.730659 0
M  V30 END ATOM
M  V30 BEGIN BOND
M  V30 1 2 2 1
M  V30 2 1 3 2
M  V30 3 1 4 3
M  V30 4 1 5 4
M  V30 5 1 6 5
M  V30 6 1 7 6
M  V30 7 1 8 7
M  V30 8 1 9 8
M  V30 9 1 10 9
M  V30 10 1 11 10
M  V30 11 2 12 11
M  V30 12 1 13 12
M  V30 13 1 14 13
M  V30 14 1 15 14
M  V30 15 2 16 15
M  V30 16 1 17 16
M  V30 17 1 18 16
M  V30 18 2 19 18
M  V30 19 1 20 11
M  V30 20 2 20 14
M  V30 21 1 20 19
M  V30 22 1 21 10
M  V30 23 1 22 7
M  V30 24 1 22 21
M  V30 25 1 23 2
M  V30 26 2 24 23
M  V30 27 1 25 24
M  V30 28 2 26 25
M  V30 29 1 27 26
M  V30 30 1 28 23
M  V30 31 2 28 27
M  V30 32 1 29 27
M  V30 33 1 30 29
M  V30 34 1 31 26
M  V30 35 1 31 30
M  V30 36 1 32 31
M  V30 37 2 33 32
M  V30 38 1 34 32
M  V30 39 1 35 25
M  V30 40 1 35 34
M  V30 41 1 36 3
M  V30 42 1 37 3
M  V30 43 1 38 4
M  V30 44 1 39 4
M  V30 45 1 40 5
M  V30 46 1 41 5
M  V30 47 1 42 6
M  V30 48 1 43 6
M  V30 49 1 44 8
M  V30 50 1 45 8
M  V30 51 1 46 9
M  V30 52 1 47 9
M  V30 53 1 10 48 CFG=3
M  V30 54 1 49 15
M  V30 55 1 50 18
M  V30 56 1 51 19
M  V30 57 1 52 21
M  V30 58 1 53 21
M  V30 59 1 54 22
M  V30 60 1 55 22
M  V30 61 1 56 24
M  V30 62 1 57 28
M  V30 63 1 58 29
M  V30 64 1 59 29
M  V30 65 1 60 30
M  V30 66 1 61 30
M  V30 67 1 62 34
M  V30 68 1 63 34
M  V30 69 1 64 35
M  V30 70 1 65 35
M  V30 71 1 7 66 CFG=1
M  V30 END BOND
M  V30 END CTAB
M  END
>  <b_m_subgroup_collapsed>  (147) 
0

>  <r_i_docking_score>  (147) 
-9.0161736548135298

>  <s_m_subgroup_title>  (147) 
glide-dock_SP_D22_pv

>  <s_m_subgroupid>  (147) 
glide-dock_SP_D22_pv

>  <Molecule ChEMBL ID>  (147) 
CHEMBL4293999

>  <Standard Type>  (147) 
Ki

>  <Standard Value>  (147) 
2.9

>  <label>  (147) 
1

$$$$
CHEMBL443006
     RDKit          3D

  0  0  0  0  0  0  0  0  0  0999 V3000
M  V30 BEGIN CTAB
M  V30 COUNTS 52 55 0 0 1
M  V30 BEGIN ATOM
M  V30 1 C 11.081962 1.629889 -16.862249 0
M  V30 2 S 9.935438 0.504690 -15.971552 0
M  V30 3 O 9.502880 -0.548721 -16.900198 0
M  V30 4 O 10.486036 0.172388 -14.650808 0
M  V30 5 N 8.536871 1.482339 -15.668393 0
M  V30 6 C 8.347475 2.420847 -14.646786 0
M  V30 7 C 9.444489 3.035931 -14.006960 0
M  V30 8 C 9.237555 3.981328 -12.989460 0
M  V30 9 C 7.929170 4.310093 -12.579309 0
M  V30 10 C 7.720536 5.345546 -11.493619 0
M  V30 11 C 8.485924 5.065503 -10.170714 0
M  V30 12 N 8.493172 6.271857 -9.310644 0 CFG=2 CHG=1
M  V30 13 C 9.184712 7.415102 -9.965735 0
M  V30 14 C 9.787338 8.191512 -8.824848 0 CFG=2
M  V30 15 C 10.952828 9.120198 -9.112310 0
M  V30 16 O 11.286014 9.772305 -7.895799 0
M  V30 17 C 11.331321 9.035621 -6.737591 0
M  V30 18 C 11.884773 9.678486 -5.621631 0
M  V30 19 C 12.068227 8.973070 -4.427450 0
M  V30 20 C 11.691430 7.620142 -4.358190 0
M  V30 21 C 12.085957 6.882977 -3.181127 0
M  V30 22 N 12.420692 6.300749 -2.246862 0
M  V30 23 C 11.053029 6.982347 -5.448452 0
M  V30 24 C 10.859901 7.697424 -6.649902 0
M  V30 25 C 10.270756 7.087882 -7.918465 0 CFG=1
M  V30 26 C 9.058398 6.139190 -7.929295 0
M  V30 27 C 6.826740 3.712015 -13.223777 0
M  V30 28 C 7.038152 2.765297 -14.246881 0
M  V30 29 H 11.992592 1.082201 -17.104893 0
M  V30 30 H 11.339596 2.486327 -16.243389 0
M  V30 31 H 10.608975 1.971853 -17.782131 0
M  V30 32 H 7.685114 1.094044 -16.045708 0
M  V30 33 H 10.458612 2.787989 -14.273849 0
M  V30 34 H 10.095078 4.444667 -12.525502 0
M  V30 35 H 8.020919 6.288478 -11.947024 0
M  V30 36 H 6.655571 5.452438 -11.284438 0
M  V30 37 H 8.031132 4.229047 -9.641071 0
M  V30 38 H 9.520539 4.778166 -10.359574 0
M  V30 39 H 9.977944 7.064168 -10.629025 0
M  V30 40 H 8.501993 8.029529 -10.555211 0
M  V30 41 H 8.989378 8.758123 -8.337172 0
M  V30 42 H 11.820138 8.586053 -9.503852 0
M  V30 43 H 10.674784 9.869267 -9.846815 0
M  V30 44 H 12.218678 10.700688 -5.709972 0
M  V30 45 H 12.552982 9.458361 -3.591348 0
M  V30 46 H 10.772762 5.942576 -5.380175 0
M  V30 47 H 11.097475 6.565264 -8.403753 0
M  V30 48 H 8.302094 6.475600 -7.217764 0
M  V30 49 H 9.327139 5.113551 -7.678508 0
M  V30 50 H 5.817951 3.966748 -12.932073 0
M  V30 51 H 6.184945 2.303509 -14.719313 0
M  V30 52 H 7.528605 6.585918 -9.204667 0
M  V30 END ATOM
M  V30 BEGIN BOND
M  V30 1 1 2 1
M  V30 2 2 3 2
M  V30 3 2 4 2
M  V30 4 1 5 2
M  V30 5 1 6 5
M  V30 6 1 7 6
M  V30 7 2 8 7
M  V30 8 1 9 8
M  V30 9 1 10 9
M  V30 10 1 11 10
M  V30 11 1 12 11
M  V30 12 1 13 12
M  V30 13 1 14 13
M  V30 14 1 15 14
M  V30 15 1 16 15
M  V30 16 1 17 16
M  V30 17 1 18 17
M  V30 18 2 19 18
M  V30 19 1 20 19
M  V30 20 1 21 20
M  V30 21 3 22 21
M  V30 22 2 23 20
M  V30 23 2 24 17
M  V30 24 1 24 23
M  V30 25 1 25 14
M  V30 26 1 25 24
M  V30 27 1 26 12
M  V30 28 1 26 25
M  V30 29 2 27 9
M  V30 30 2 28 6
M  V30 31 1 28 27
M  V30 32 1 29 1
M  V30 33 1 30 1
M  V30 34 1 31 1
M  V30 35 1 32 5
M  V30 36 1 33 7
M  V30 37 1 34 8
M  V30 38 1 35 10
M  V30 39 1 36 10
M  V30 40 1 37 11
M  V30 41 1 38 11
M  V30 42 1 39 13
M  V30 43 1 40 13
M  V30 44 1 14 41 CFG=1
M  V30 45 1 42 15
M  V30 46 1 43 15
M  V30 47 1 44 18
M  V30 48 1 45 19
M  V30 49 1 46 23
M  V30 50 1 25 47 CFG=3
M  V30 51 1 48 26
M  V30 52 1 49 26
M  V30 53 1 50 27
M  V30 54 1 51 28
M  V30 55 1 12 52 CFG=1
M  V30 END BOND
M  V30 END CTAB
M  END
>  <b_m_subgroup_collapsed>  (148) 
0

>  <r_i_docking_score>  (148) 
-9.0112504646100202

>  <s_m_subgroup_title>  (148) 
glide-dock_SP_D22_pv

>  <s_m_subgroupid>  (148) 
glide-dock_SP_D22_pv

>  <Molecule ChEMBL ID>  (148) 
CHEMBL443006

>  <Standard Type>  (148) 
Ki

>  <Standard Value>  (148) 
25.12

>  <label>  (148) 
1

$$$$
CHEMBL4091507
     RDKit          3D

  0  0  0  0  0  0  0  0  0  0999 V3000
M  V30 BEGIN CTAB
M  V30 COUNTS 63 67 0 0 1
M  V30 BEGIN ATOM
M  V30 1 O 4.502401 -1.427788 -15.019731 0
M  V30 2 C 5.187637 -0.482365 -14.649293 0
M  V30 3 C 4.693952 0.572327 -13.775589 0
M  V30 4 C 5.445522 1.643596 -13.447582 0
M  V30 5 C 6.785938 1.857536 -14.027489 0
M  V30 6 C 7.581139 3.027493 -13.846937 0
M  V30 7 N 7.217463 4.114550 -13.027172 0
M  V30 8 C 5.957884 4.821666 -13.212297 0
M  V30 9 C 6.030659 6.307019 -12.820498 0
M  V30 10 C 7.405585 6.991774 -12.985840 0
M  V30 11 N 8.299608 6.790874 -11.829605 0 CFG=2 CHG=1
M  V30 12 C 9.331628 7.857749 -11.685438 0
M  V30 13 C 9.195048 8.645018 -10.370400 0
M  V30 14 C 9.251952 7.809529 -9.080419 0
M  V30 15 C 10.651798 7.250862 -8.777745 0
M  V30 16 O 10.695872 6.676642 -7.479411 0
M  V30 17 C 10.986387 7.492096 -6.407530 0
M  V30 18 C 11.025249 8.919584 -6.466525 0
M  V30 19 C 11.374576 9.661489 -5.363341 0
M  V30 20 N 11.704546 9.013044 -4.215585 0
M  V30 21 N 12.085705 9.606244 -3.046214 0
M  V30 22 C 12.315570 8.598730 -2.234534 0
M  V30 23 C 12.081540 7.326334 -2.815036 0
M  V30 24 C 11.686100 7.610303 -4.094022 0
M  V30 25 C 11.286067 6.855695 -5.224770 0
M  V30 26 C 8.933733 5.447595 -11.776114 0
M  V30 27 C 7.974131 4.250832 -11.791046 0
M  V30 28 C 8.863003 3.074134 -14.441144 0
M  V30 29 C 9.369825 1.986790 -15.173824 0
M  V30 30 C 8.591790 0.831050 -15.343812 0
M  V30 31 O 9.120405 -0.227656 -16.024710 0
M  V30 32 C 7.290502 0.782119 -14.802603 0
M  V30 33 N 6.467288 -0.352416 -15.043428 0
M  V30 34 H 3.683720 0.481844 -13.418023 0
M  V30 35 H 5.036734 2.372244 -12.771461 0
M  V30 36 H 5.636087 4.713488 -14.246393 0
M  V30 37 H 5.183792 4.370876 -12.596236 0
M  V30 38 H 5.287866 6.835858 -13.422378 0
M  V30 39 H 5.676684 6.425116 -11.802888 0
M  V30 40 H 7.944824 6.629607 -13.849668 0
M  V30 41 H 7.218219 8.059505 -13.107004 0
M  V30 42 H 10.338882 7.441359 -11.748398 0
M  V30 43 H 9.276229 8.566670 -12.513062 0
M  V30 44 H 10.002138 9.372079 -10.317948 0
M  V30 45 H 8.274103 9.231621 -10.391074 0
M  V30 46 H 8.928919 8.448043 -8.258114 0
M  V30 47 H 8.522473 6.999063 -9.102878 0
M  V30 48 H 10.895927 6.461164 -9.485722 0
M  V30 49 H 11.433989 8.000679 -8.910066 0
M  V30 50 H 10.785178 9.456598 -7.377863 0
M  V30 51 H 11.419994 10.745235 -5.356391 0
M  V30 52 H 12.638286 8.802205 -1.223638 0
M  V30 53 H 12.183781 6.355522 -2.352770 0
M  V30 54 H 11.260712 5.773645 -5.154819 0
M  V30 55 H 9.650702 5.356115 -12.590287 0
M  V30 56 H 9.511858 5.376179 -10.856438 0
M  V30 57 H 7.296932 4.267450 -10.937107 0
M  V30 58 H 8.608597 3.372787 -11.694176 0
M  V30 59 H 9.488022 3.944564 -14.320597 0
M  V30 60 H 10.362589 2.035539 -15.594689 0
M  V30 61 H 8.685583 -1.055463 -15.847810 0
M  V30 62 H 6.839701 -1.105873 -15.605500 0
M  V30 63 H 7.674119 6.908712 -11.030785 0
M  V30 END ATOM
M  V30 BEGIN BOND
M  V30 1 2 2 1
M  V30 2 1 3 2
M  V30 3 2 4 3
M  V30 4 1 5 4
M  V30 5 2 6 5
M  V30 6 1 7 6
M  V30 7 1 8 7
M  V30 8 1 9 8
M  V30 9 1 10 9
M  V30 10 1 11 10
M  V30 11 1 12 11
M  V30 12 1 13 12
M  V30 13 1 14 13
M  V30 14 1 15 14
M  V30 15 1 16 15
M  V30 16 1 17 16
M  V30 17 1 18 17
M  V30 18 2 19 18
M  V30 19 1 20 19
M  V30 20 1 21 20
M  V30 21 2 22 21
M  V30 22 1 23 22
M  V30 23 1 24 20
M  V30 24 2 24 23
M  V30 25 2 25 17
M  V30 26 1 25 24
M  V30 27 1 26 11
M  V30 28 1 27 7
M  V30 29 1 27 26
M  V30 30 1 28 6
M  V30 31 2 29 28
M  V30 32 1 30 29
M  V30 33 1 31 30
M  V30 34 1 32 5
M  V30 35 2 32 30
M  V30 36 1 33 2
M  V30 37 1 33 32
M  V30 38 1 34 3
M  V30 39 1 35 4
M  V30 40 1 36 8
M  V30 41 1 37 8
M  V30 42 1 38 9
M  V30 43 1 39 9
M  V30 44 1 40 10
M  V30 45 1 41 10
M  V30 46 1 42 12
M  V30 47 1 43 12
M  V30 48 1 44 13
M  V30 49 1 45 13
M  V30 50 1 46 14
M  V30 51 1 47 14
M  V30 52 1 48 15
M  V30 53 1 49 15
M  V30 54 1 50 18
M  V30 55 1 51 19
M  V30 56 1 52 22
M  V30 57 1 53 23
M  V30 58 1 54 25
M  V30 59 1 55 26
M  V30 60 1 56 26
M  V30 61 1 57 27
M  V30 62 1 58 27
M  V30 63 1 59 28
M  V30 64 1 60 29
M  V30 65 1 61 31
M  V30 66 1 62 33
M  V30 67 1 11 63 CFG=1
M  V30 END BOND
M  V30 END CTAB
M  END
>  <b_m_subgroup_collapsed>  (149) 
0

>  <r_i_docking_score>  (149) 
-9.0096500150653895

>  <s_m_subgroup_title>  (149) 
glide-dock_SP_D22_pv

>  <s_m_subgroupid>  (149) 
glide-dock_SP_D22_pv

>  <Molecule ChEMBL ID>  (149) 
CHEMBL4091507

>  <Standard Type>  (149) 
Ki

>  <Standard Value>  (149) 
46.0

>  <label>  (149) 
1

$$$$
CHEMBL139089
     RDKit          3D

  0  0  0  0  0  0  0  0  0  0999 V3000
M  V30 BEGIN CTAB
M  V30 COUNTS 60 63 0 0 1
M  V30 BEGIN ATOM
M  V30 1 O 11.500539 4.074100 -13.991281 0
M  V30 2 C 10.495172 3.393150 -14.200922 0
M  V30 3 C 10.711940 1.983304 -14.774300 0
M  V30 4 C 9.500656 1.463295 -15.574274 0
M  V30 5 C 9.696651 -0.009973 -15.974876 0
M  V30 6 C 10.549888 0.013899 -17.246134 0
M  V30 7 C 10.300470 1.381728 -17.898077 0
M  V30 8 C 9.373723 2.152972 -16.948484 0
M  V30 9 C 8.251551 1.650166 -14.695639 0
M  V30 10 C 8.122743 3.074889 -14.130359 0
M  V30 11 O 6.987734 3.466633 -13.847306 0
M  V30 12 N 9.235213 3.830978 -13.913986 0
M  V30 13 C 9.077035 5.164195 -13.289572 0
M  V30 14 C 9.155877 5.072923 -11.753177 0
M  V30 15 C 9.078949 6.433021 -11.037045 0
M  V30 16 C 9.384936 6.274357 -9.539913 0
M  V30 17 N 9.286364 7.532882 -8.756630 0 CHG=1
M  V30 18 C 10.219191 7.593085 -7.591890 0 CFG=2
M  V30 19 C 10.043354 6.397005 -6.650558 0
M  V30 20 C 11.117681 6.374367 -5.558506 0
M  V30 21 C 11.375382 7.697654 -4.896688 0
M  V30 22 C 12.044009 7.693892 -3.650697 0
M  V30 23 F 12.485960 6.535328 -3.106719 0
M  V30 24 C 12.199567 8.884325 -2.933518 0
M  V30 25 C 11.685992 10.071717 -3.466650 0
M  V30 26 C 11.048678 10.091856 -4.727373 0
M  V30 27 C 10.885998 8.898105 -5.459648 0
M  V30 28 C 10.073329 8.889935 -6.763419 0
M  V30 29 H 11.613497 1.979792 -15.388356 0
M  V30 30 H 10.912052 1.322980 -13.930961 0
M  V30 31 H 10.136834 -0.620793 -15.185990 0
M  V30 32 H 8.728698 -0.453207 -16.213717 0
M  V30 33 H 11.606481 -0.078944 -16.992016 0
M  V30 34 H 10.298059 -0.812358 -17.913145 0
M  V30 35 H 11.247408 1.910896 -18.020760 0
M  V30 36 H 9.850953 1.283050 -18.886776 0
M  V30 37 H 8.349568 2.061869 -17.313158 0
M  V30 38 H 9.604965 3.218358 -16.925442 0
M  V30 39 H 7.346785 1.398942 -15.250382 0
M  V30 40 H 8.290207 0.962644 -13.849096 0
M  V30 41 H 8.137539 5.636435 -13.584984 0
M  V30 42 H 9.842477 5.851979 -13.651506 0
M  V30 43 H 10.085402 4.575703 -11.477006 0
M  V30 44 H 8.354765 4.430274 -11.384391 0
M  V30 45 H 8.089553 6.861253 -11.188462 0
M  V30 46 H 9.792575 7.124732 -11.485390 0
M  V30 47 H 10.395351 5.870312 -9.452114 0
M  V30 48 H 8.707341 5.540387 -9.097959 0
M  V30 49 H 8.323230 7.624948 -8.452811 0
M  V30 50 H 11.233420 7.562908 -7.991086 0
M  V30 51 H 9.055647 6.453204 -6.187562 0
M  V30 52 H 10.076003 5.448645 -7.181964 0
M  V30 53 H 12.055947 5.960011 -5.928870 0
M  V30 54 H 10.771351 5.762632 -4.736698 0
M  V30 55 H 12.681284 8.881707 -1.966039 0
M  V30 56 H 11.761081 10.972114 -2.880488 0
M  V30 57 H 10.648238 11.019511 -5.107922 0
M  V30 58 H 9.023316 8.975552 -6.480363 0
M  V30 59 H 10.328363 9.769541 -7.356708 0
M  V30 60 H 9.490349 8.305068 -9.373268 0
M  V30 END ATOM
M  V30 BEGIN BOND
M  V30 1 2 2 1
M  V30 2 1 3 2
M  V30 3 1 4 3
M  V30 4 1 5 4
M  V30 5 1 6 5
M  V30 6 1 7 6
M  V30 7 1 8 4
M  V30 8 1 8 7
M  V30 9 1 9 4
M  V30 10 1 10 9
M  V30 11 2 11 10
M  V30 12 1 12 2
M  V30 13 1 12 10
M  V30 14 1 13 12
M  V30 15 1 14 13
M  V30 16 1 15 14
M  V30 17 1 16 15
M  V30 18 1 17 16
M  V30 19 1 18 17
M  V30 20 1 19 18
M  V30 21 1 20 19
M  V30 22 1 21 20
M  V30 23 2 22 21
M  V30 24 1 23 22
M  V30 25 1 24 22
M  V30 26 2 25 24
M  V30 27 1 26 25
M  V30 28 1 27 21
M  V30 29 2 27 26
M  V30 30 1 28 18
M  V30 31 1 28 27
M  V30 32 1 29 3
M  V30 33 1 30 3
M  V30 34 1 31 5
M  V30 35 1 32 5
M  V30 36 1 33 6
M  V30 37 1 34 6
M  V30 38 1 35 7
M  V30 39 1 36 7
M  V30 40 1 37 8
M  V30 41 1 38 8
M  V30 42 1 39 9
M  V30 43 1 40 9
M  V30 44 1 41 13
M  V30 45 1 42 13
M  V30 46 1 43 14
M  V30 47 1 44 14
M  V30 48 1 45 15
M  V30 49 1 46 15
M  V30 50 1 47 16
M  V30 51 1 48 16
M  V30 52 1 49 17
M  V30 53 1 18 50 CFG=3
M  V30 54 1 51 19
M  V30 55 1 52 19
M  V30 56 1 53 20
M  V30 57 1 54 20
M  V30 58 1 55 24
M  V30 59 1 56 25
M  V30 60 1 57 26
M  V30 61 1 58 28
M  V30 62 1 59 28
M  V30 63 1 60 17
M  V30 END BOND
M  V30 END CTAB
M  END
>  <b_m_subgroup_collapsed>  (150) 
0

>  <r_i_docking_score>  (150) 
-9.0063285730052201

>  <s_m_subgroup_title>  (150) 
glide-dock_SP_D22_pv

>  <s_m_subgroupid>  (150) 
glide-dock_SP_D22_pv

>  <Molecule ChEMBL ID>  (150) 
CHEMBL139089

>  <Standard Type>  (150) 
Ki

>  <Standard Value>  (150) 
37.0

>  <label>  (150) 
1

$$$$
CHEMBL3918282
     RDKit          3D

  0  0  0  0  0  0  0  0  0  0999 V3000
M  V30 BEGIN CTAB
M  V30 COUNTS 68 71 0 0 1
M  V30 BEGIN ATOM
M  V30 1 O 8.723927 2.300438 -14.246959 0
M  V30 2 S 9.286095 3.601142 -14.823565 0
M  V30 3 C 9.940334 4.616868 -13.411763 0
M  V30 4 C 9.035235 4.400227 -12.189583 0
M  V30 5 N 9.401876 5.318051 -11.113705 0
M  V30 6 C 8.775293 6.623788 -11.328451 0
M  V30 7 C 9.285609 7.593879 -10.253036 0
M  V30 8 N 8.922951 7.111925 -8.894585 0 CHG=1
M  V30 9 C 9.237290 8.060703 -7.784688 0
M  V30 10 C 10.748695 8.298406 -7.485921 0 CFG=1
M  V30 11 O 11.335297 8.972034 -8.579232 0
M  V30 12 C 10.976721 9.224208 -6.261858 0
M  V30 13 C 11.420065 8.620124 -4.932720 0
M  V30 14 C 11.640533 9.521487 -3.871479 0
M  V30 15 C 12.086276 9.073605 -2.617147 0
M  V30 16 C 12.314376 7.706326 -2.405501 0
M  V30 17 C 12.085717 6.795969 -3.449003 0
M  V30 18 C 11.632833 7.239960 -4.706585 0
M  V30 19 C 9.409987 5.729452 -8.682091 0
M  V30 20 C 8.947165 4.802253 -9.820277 0
M  V30 21 C 10.918693 3.208115 -15.618958 0
M  V30 22 C 11.625229 4.493201 -16.059906 0
M  V30 23 C 12.886498 4.804718 -15.509254 0
M  V30 24 C 13.565371 5.980495 -15.879960 0
M  V30 25 C 12.987246 6.860530 -16.811668 0
M  V30 26 F 13.643083 7.986986 -17.176277 0
M  V30 27 C 11.724746 6.568332 -17.359015 0
M  V30 28 C 11.033371 5.405305 -16.964804 0
M  V30 29 C 10.722384 2.108701 -16.665415 0
M  V30 30 C 10.565115 2.369461 -18.049013 0
M  V30 31 C 10.367407 1.313950 -18.959190 0
M  V30 32 C 10.328266 -0.015041 -18.503979 0
M  V30 33 F 10.142557 -1.027575 -19.381836 0
M  V30 34 C 10.486185 -0.287605 -17.133196 0
M  V30 35 C 10.677452 0.766630 -16.222445 0
M  V30 36 H 9.987858 5.656594 -13.733819 0
M  V30 37 H 10.954708 4.304866 -13.161664 0
M  V30 38 H 9.185580 3.373552 -11.855044 0
M  V30 39 H 7.978913 4.500936 -12.444071 0
M  V30 40 H 7.688080 6.538576 -11.315325 0
M  V30 41 H 9.043034 7.018291 -12.308287 0
M  V30 42 H 8.867277 8.587982 -10.417352 0
M  V30 43 H 10.364219 7.670464 -10.372231 0
M  V30 44 H 8.753661 7.675821 -6.885271 0
M  V30 45 H 8.744349 9.012000 -7.994486 0
M  V30 46 H 11.298936 7.365964 -7.382442 0
M  V30 47 H 12.267126 9.049697 -8.432308 0
M  V30 48 H 11.751860 9.958030 -6.496122 0
M  V30 49 H 10.086259 9.817984 -6.073251 0
M  V30 50 H 11.461752 10.572557 -4.020379 0
M  V30 51 H 12.259219 9.776267 -1.816290 0
M  V30 52 H 12.661183 7.354833 -1.446764 0
M  V30 53 H 12.253338 5.747399 -3.277582 0
M  V30 54 H 11.464641 6.498280 -5.471312 0
M  V30 55 H 10.498677 5.710918 -8.637057 0
M  V30 56 H 9.040331 5.360258 -7.724753 0
M  V30 57 H 7.863536 4.679148 -9.819791 0
M  V30 58 H 9.392619 3.824447 -9.640617 0
M  V30 59 H 11.528610 2.757455 -14.834941 0
M  V30 60 H 13.339293 4.141592 -14.789726 0
M  V30 61 H 14.529130 6.204926 -15.448772 0
M  V30 62 H 11.284952 7.246085 -18.076220 0
M  V30 63 H 10.050759 5.217224 -17.373905 0
M  V30 64 H 10.591157 3.370294 -18.446438 0
M  V30 65 H 10.245761 1.524973 -20.011175 0
M  V30 66 H 10.484049 -1.308177 -16.783316 0
M  V30 67 H 10.791986 0.540860 -15.171043 0
M  V30 68 H 7.906875 7.058225 -8.915295 0
M  V30 END ATOM
M  V30 BEGIN BOND
M  V30 1 2 2 1
M  V30 2 1 2 3 CFG=1
M  V30 3 1 4 3
M  V30 4 1 5 4
M  V30 5 1 6 5
M  V30 6 1 7 6
M  V30 7 1 8 7
M  V30 8 1 9 8
M  V30 9 1 10 9
M  V30 10 1 11 10
M  V30 11 1 12 10
M  V30 12 1 13 12
M  V30 13 2 14 13
M  V30 14 1 15 14
M  V30 15 2 16 15
M  V30 16 1 17 16
M  V30 17 1 18 13
M  V30 18 2 18 17
M  V30 19 1 19 8
M  V30 20 1 20 5
M  V30 21 1 20 19
M  V30 22 1 21 2
M  V30 23 1 22 21
M  V30 24 2 23 22
M  V30 25 1 24 23
M  V30 26 2 25 24
M  V30 27 1 26 25
M  V30 28 1 27 25
M  V30 29 1 28 22
M  V30 30 2 28 27
M  V30 31 1 29 21
M  V30 32 2 30 29
M  V30 33 1 31 30
M  V30 34 2 32 31
M  V30 35 1 33 32
M  V30 36 1 34 32
M  V30 37 1 35 29
M  V30 38 2 35 34
M  V30 39 1 36 3
M  V30 40 1 37 3
M  V30 41 1 38 4
M  V30 42 1 39 4
M  V30 43 1 40 6
M  V30 44 1 41 6
M  V30 45 1 42 7
M  V30 46 1 43 7
M  V30 47 1 44 9
M  V30 48 1 45 9
M  V30 49 1 10 46 CFG=1
M  V30 50 1 47 11
M  V30 51 1 48 12
M  V30 52 1 49 12
M  V30 53 1 50 14
M  V30 54 1 51 15
M  V30 55 1 52 16
M  V30 56 1 53 17
M  V30 57 1 54 18
M  V30 58 1 55 19
M  V30 59 1 56 19
M  V30 60 1 57 20
M  V30 61 1 58 20
M  V30 62 1 59 21
M  V30 63 1 60 23
M  V30 64 1 61 24
M  V30 65 1 62 27
M  V30 66 1 63 28
M  V30 67 1 64 30
M  V30 68 1 65 31
M  V30 69 1 66 34
M  V30 70 1 67 35
M  V30 71 1 68 8
M  V30 END BOND
M  V30 END CTAB
M  END
>  <b_m_subgroup_collapsed>  (151) 
0

>  <r_i_docking_score>  (151) 
-8.9977175389353796

>  <s_m_subgroup_title>  (151) 
glide-dock_SP_D22_pv

>  <s_m_subgroupid>  (151) 
glide-dock_SP_D22_pv

>  <Molecule ChEMBL ID>  (151) 
CHEMBL3918282

>  <Standard Type>  (151) 
Ki

>  <Standard Value>  (151) 
78.6

>  <label>  (151) 
1

$$$$
CHEMBL4451231
     RDKit          3D

  0  0  0  0  0  0  0  0  0  0999 V3000
M  V30 BEGIN CTAB
M  V30 COUNTS 70 75 0 0 1
M  V30 BEGIN ATOM
M  V30 1 O 5.940244 2.882537 -13.610545 0
M  V30 2 C 7.084391 2.965459 -14.067084 0
M  V30 3 C 7.710834 1.899869 -14.857569 0
M  V30 4 C 6.875208 0.743188 -15.235801 0
M  V30 5 C 6.484390 0.568857 -16.582146 0
M  V30 6 C 5.625781 -0.490123 -16.933878 0
M  V30 7 C 5.161893 -1.379175 -15.945776 0
M  V30 8 C 5.562192 -1.207862 -14.606585 0
M  V30 9 C 6.416054 -0.150238 -14.247046 0
M  V30 10 C 8.995318 2.041702 -15.300904 0
M  V30 11 C 9.635468 0.972663 -16.078360 0
M  V30 12 C 10.886193 1.108263 -16.542034 0
M  V30 13 C 11.613372 2.324899 -16.264393 0
M  V30 14 C 11.047239 3.299780 -15.529975 0
M  V30 15 N 9.752462 3.189831 -15.031461 0
M  V30 16 C 9.201655 4.247977 -14.284524 0
M  V30 17 O 9.861947 5.263662 -14.052081 0
M  V30 18 N 7.876938 4.101869 -13.829177 0
M  V30 19 C 7.270457 5.166201 -13.044802 0
M  V30 20 C 7.338504 4.945225 -11.516033 0
M  V30 21 C 8.758006 5.125156 -10.950174 0
M  V30 22 C 8.800756 5.864591 -9.595587 0
M  V30 23 N 10.114374 6.474513 -9.246840 0 CFG=1 CHG=1
M  V30 24 C 10.670355 7.379877 -10.302150 0
M  V30 25 C 12.050919 7.923040 -9.923605 0
M  V30 26 C 11.991658 8.639469 -8.590412 0
M  V30 27 C 11.388689 7.740019 -7.490907 0 CFG=1
M  V30 28 C 11.312805 8.505510 -6.197489 0
M  V30 29 C 11.093716 9.853014 -6.094796 0
M  V30 30 N 11.285600 10.253286 -4.795590 0
M  V30 31 C 11.644227 9.190644 -4.011278 0
M  V30 32 C 12.022881 9.114664 -2.664802 0
M  V30 33 C 12.268846 7.858822 -2.099885 0
M  V30 34 C 12.104486 6.697267 -2.876868 0
M  V30 35 C 11.761915 6.789438 -4.241456 0
M  V30 36 C 11.556058 8.045255 -4.853296 0
M  V30 37 C 10.025105 7.174836 -7.933906 0
M  V30 38 H 6.823526 1.259072 -17.342161 0
M  V30 39 H 5.318399 -0.619849 -17.959814 0
M  V30 40 H 4.506981 -2.198610 -16.215044 0
M  V30 41 H 5.223502 -1.893947 -13.847767 0
M  V30 42 H 6.708486 -0.021370 -13.214956 0
M  V30 43 H 9.124885 0.041122 -16.278769 0
M  V30 44 H 11.350307 0.314196 -17.105740 0
M  V30 45 H 12.619532 2.447362 -16.638729 0
M  V30 46 H 11.630040 4.189531 -15.341084 0
M  V30 47 H 7.724550 6.112936 -13.339573 0
M  V30 48 H 6.234175 5.255590 -13.374347 0
M  V30 49 H 6.672586 5.674226 -11.061021 0
M  V30 50 H 6.937741 3.972986 -11.233269 0
M  V30 51 H 9.289781 4.172613 -10.902735 0
M  V30 52 H 9.271439 5.706073 -11.701196 0
M  V30 53 H 8.086145 6.675276 -9.601714 0
M  V30 54 H 8.481769 5.184801 -8.804192 0
M  V30 55 H 10.834249 6.876200 -11.249582 0
M  V30 56 H 9.974876 8.200132 -10.489478 0
M  V30 57 H 12.775197 7.118151 -9.876867 0
M  V30 58 H 12.406126 8.607054 -10.696522 0
M  V30 59 H 12.989556 8.970222 -8.304117 0
M  V30 60 H 11.388021 9.536188 -8.735873 0
M  V30 61 H 12.068577 6.898834 -7.356777 0
M  V30 62 H 10.886424 10.574908 -6.860740 0
M  V30 63 H 11.258335 11.218346 -4.497954 0
M  V30 64 H 12.095262 10.010610 -2.066872 0
M  V30 65 H 12.566451 7.792051 -1.064539 0
M  V30 66 H 12.271267 5.732111 -2.424138 0
M  V30 67 H 11.681536 5.887340 -4.830413 0
M  V30 68 H 9.295934 7.984672 -8.003569 0
M  V30 69 H 9.652749 6.485860 -7.174090 0
M  V30 70 H 10.766915 5.711336 -9.138395 0
M  V30 END ATOM
M  V30 BEGIN BOND
M  V30 1 2 2 1
M  V30 2 1 3 2
M  V30 3 1 4 3
M  V30 4 2 5 4
M  V30 5 1 6 5
M  V30 6 2 7 6
M  V30 7 1 8 7
M  V30 8 1 9 4
M  V30 9 2 9 8
M  V30 10 2 10 3
M  V30 11 1 11 10
M  V30 12 2 12 11
M  V30 13 1 13 12
M  V30 14 2 14 13
M  V30 15 1 15 10
M  V30 16 1 15 14
M  V30 17 1 16 15
M  V30 18 2 17 16
M  V30 19 1 18 2
M  V30 20 1 18 16
M  V30 21 1 19 18
M  V30 22 1 20 19
M  V30 23 1 21 20
M  V30 24 1 22 21
M  V30 25 1 23 22
M  V30 26 1 24 23
M  V30 27 1 25 24
M  V30 28 1 26 25
M  V30 29 1 27 26
M  V30 30 1 28 27
M  V30 31 2 29 28
M  V30 32 1 30 29
M  V30 33 1 31 30
M  V30 34 2 32 31
M  V30 35 1 33 32
M  V30 36 2 34 33
M  V30 37 1 35 34
M  V30 38 1 36 28
M  V30 39 1 36 31
M  V30 40 2 36 35
M  V30 41 1 37 23
M  V30 42 1 37 27
M  V30 43 1 38 5
M  V30 44 1 39 6
M  V30 45 1 40 7
M  V30 46 1 41 8
M  V30 47 1 42 9
M  V30 48 1 43 11
M  V30 49 1 44 12
M  V30 50 1 45 13
M  V30 51 1 46 14
M  V30 52 1 47 19
M  V30 53 1 48 19
M  V30 54 1 49 20
M  V30 55 1 50 20
M  V30 56 1 51 21
M  V30 57 1 52 21
M  V30 58 1 53 22
M  V30 59 1 54 22
M  V30 60 1 55 24
M  V30 61 1 56 24
M  V30 62 1 57 25
M  V30 63 1 58 25
M  V30 64 1 59 26
M  V30 65 1 60 26
M  V30 66 1 27 61 CFG=1
M  V30 67 1 62 29
M  V30 68 1 63 30
M  V30 69 1 64 32
M  V30 70 1 65 33
M  V30 71 1 66 34
M  V30 72 1 67 35
M  V30 73 1 68 37
M  V30 74 1 69 37
M  V30 75 1 23 70 CFG=1
M  V30 END BOND
M  V30 END CTAB
M  END
>  <b_m_subgroup_collapsed>  (152) 
0

>  <r_i_docking_score>  (152) 
-8.9955387669778109

>  <s_m_subgroup_title>  (152) 
glide-dock_SP_D22_pv

>  <s_m_subgroupid>  (152) 
glide-dock_SP_D22_pv

>  <Molecule ChEMBL ID>  (152) 
CHEMBL4451231

>  <Standard Type>  (152) 
Ki

>  <Standard Value>  (152) 
17670.0

>  <label>  (152) 
0

$$$$
CHEMBL196514
     RDKit          3D

  0  0  0  0  0  0  0  0  0  0999 V3000
M  V30 BEGIN CTAB
M  V30 COUNTS 59 63 0 0 1
M  V30 BEGIN ATOM
M  V30 1 C 7.674279 1.230134 -14.247128 0
M  V30 2 C 7.797904 2.389569 -15.244283 0 CFG=1
M  V30 3 O 8.086043 3.619131 -14.556709 0
M  V30 4 C 9.391515 4.041215 -14.412322 0
M  V30 5 C 10.386992 3.511873 -15.267315 0
M  V30 6 C 11.717061 3.959958 -15.193501 0
M  V30 7 C 12.055494 4.966722 -14.276192 0
M  V30 8 C 11.065881 5.523375 -13.446538 0
M  V30 9 C 9.721666 5.071856 -13.485116 0
M  V30 10 N 8.736439 5.663857 -12.651952 0
M  V30 11 C 7.842853 4.798846 -11.884717 0
M  V30 12 C 8.347232 4.669672 -10.444879 0
M  V30 13 N 8.486216 5.991248 -9.787860 0 CHG=1
M  V30 14 C 8.813236 5.797918 -8.346835 0
M  V30 15 C 9.188131 7.059540 -7.545560 0
M  V30 16 C 10.708483 7.221968 -7.352768 0
M  V30 17 C 11.034599 8.292562 -6.358912 0
M  V30 18 C 11.049922 9.636746 -6.611042 0
M  V30 19 N 11.314339 10.321581 -5.443753 0
M  V30 20 C 11.596057 9.441573 -4.421531 0
M  V30 21 C 11.983656 9.639288 -3.083791 0
M  V30 22 C 12.267445 8.525983 -2.279509 0
M  V30 23 C 12.130700 7.232603 -2.810749 0
M  V30 24 F 12.461159 6.172423 -2.047742 0
M  V30 25 C 11.686522 7.038455 -4.134083 0
M  V30 26 C 11.430483 8.140220 -4.982901 0
M  V30 27 C 9.411376 6.860477 -10.564510 0
M  V30 28 C 8.949586 6.977739 -12.037425 0
M  V30 29 N 10.032957 2.574748 -16.257063 0
M  V30 30 C 8.807174 2.052429 -16.357071 0
M  V30 31 O 8.483653 1.324076 -17.292673 0
M  V30 32 H 7.386273 0.305932 -14.749331 0
M  V30 33 H 8.621799 1.047007 -13.739849 0
M  V30 34 H 6.917489 1.441182 -13.488716 0
M  V30 35 H 6.829588 2.531034 -15.723671 0
M  V30 36 H 12.474452 3.552005 -15.847487 0
M  V30 37 H 13.072492 5.326762 -14.222223 0
M  V30 38 H 11.375274 6.298761 -12.763896 0
M  V30 39 H 6.838816 5.226856 -11.895860 0
M  V30 40 H 7.758338 3.798741 -12.300915 0
M  V30 41 H 7.686078 4.033665 -9.864092 0
M  V30 42 H 9.320070 4.174637 -10.451345 0
M  V30 43 H 7.927570 5.360822 -7.882973 0
M  V30 44 H 9.599680 5.048543 -8.244162 0
M  V30 45 H 8.727986 7.957996 -7.958317 0
M  V30 46 H 8.747030 6.949647 -6.553163 0
M  V30 47 H 11.137076 6.277631 -7.016025 0
M  V30 48 H 11.185727 7.442858 -8.307293 0
M  V30 49 H 10.886276 10.166665 -7.530334 0
M  V30 50 H 11.364048 11.328924 -5.393220 0
M  V30 51 H 12.085098 10.633285 -2.672676 0
M  V30 52 H 12.595470 8.663092 -1.259723 0
M  V30 53 H 11.582862 6.033938 -4.515409 0
M  V30 54 H 9.448703 7.859767 -10.131927 0
M  V30 55 H 10.420832 6.450684 -10.515613 0
M  V30 56 H 9.640365 7.588403 -12.617389 0
M  V30 57 H 7.999278 7.512265 -12.068833 0
M  V30 58 H 10.724067 2.320489 -16.946642 0
M  V30 59 H 7.582996 6.464717 -9.837858 0
M  V30 END ATOM
M  V30 BEGIN BOND
M  V30 1 1 2 1
M  V30 2 1 3 2
M  V30 3 1 4 3
M  V30 4 2 5 4
M  V30 5 1 6 5
M  V30 6 2 7 6
M  V30 7 1 8 7
M  V30 8 1 9 4
M  V30 9 2 9 8
M  V30 10 1 10 9
M  V30 11 1 11 10
M  V30 12 1 12 11
M  V30 13 1 13 12
M  V30 14 1 14 13
M  V30 15 1 15 14
M  V30 16 1 16 15
M  V30 17 1 17 16
M  V30 18 2 18 17
M  V30 19 1 19 18
M  V30 20 1 20 19
M  V30 21 1 21 20
M  V30 22 2 22 21
M  V30 23 1 23 22
M  V30 24 1 24 23
M  V30 25 2 25 23
M  V30 26 1 26 17
M  V30 27 2 26 20
M  V30 28 1 26 25
M  V30 29 1 27 13
M  V30 30 1 28 10
M  V30 31 1 28 27
M  V30 32 1 29 5
M  V30 33 1 30 2
M  V30 34 1 30 29
M  V30 35 2 31 30
M  V30 36 1 32 1
M  V30 37 1 33 1
M  V30 38 1 34 1
M  V30 39 1 2 35 CFG=3
M  V30 40 1 36 6
M  V30 41 1 37 7
M  V30 42 1 38 8
M  V30 43 1 39 11
M  V30 44 1 40 11
M  V30 45 1 41 12
M  V30 46 1 42 12
M  V30 47 1 43 14
M  V30 48 1 44 14
M  V30 49 1 45 15
M  V30 50 1 46 15
M  V30 51 1 47 16
M  V30 52 1 48 16
M  V30 53 1 49 18
M  V30 54 1 50 19
M  V30 55 1 51 21
M  V30 56 1 52 22
M  V30 57 1 53 25
M  V30 58 1 54 27
M  V30 59 1 55 27
M  V30 60 1 56 28
M  V30 61 1 57 28
M  V30 62 1 58 29
M  V30 63 1 59 13
M  V30 END BOND
M  V30 END CTAB
M  END
>  <b_m_subgroup_collapsed>  (153) 
0

>  <r_i_docking_score>  (153) 
-8.9947362293245394

>  <s_m_subgroup_title>  (153) 
glide-dock_SP_D22_pv

>  <s_m_subgroupid>  (153) 
glide-dock_SP_D22_pv

>  <Molecule ChEMBL ID>  (153) 
CHEMBL196514

>  <Standard Type>  (153) 
Ki

>  <Standard Value>  (153) 
0.7943

>  <label>  (153) 
1

$$$$
CHEMBL5753002
     RDKit          3D

  0  0  0  0  0  0  0  0  0  0999 V3000
M  V30 BEGIN CTAB
M  V30 COUNTS 53 57 0 0 1
M  V30 BEGIN ATOM
M  V30 1 O 11.285091 6.172425 -6.506942 0
M  V30 2 C 11.286016 7.344562 -6.131905 0
M  V30 3 C 11.595543 7.690968 -4.699751 0
M  V30 4 N 11.686436 6.669129 -3.819824 0
M  V30 5 C 12.025290 6.940349 -2.545486 0
M  V30 6 C 12.260754 8.242947 -2.073322 0
M  V30 7 C 12.141647 9.310814 -2.975834 0
M  V30 8 C 11.824548 9.029821 -4.316347 0
M  V30 9 C 11.792957 10.145542 -5.330171 0
M  V30 10 C 11.104064 9.781299 -6.646476 0
M  V30 11 N 11.043991 8.361845 -6.987650 0
M  V30 12 C 10.675900 8.071369 -8.376245 0
M  V30 13 C 9.216014 7.568405 -8.463673 0
M  V30 14 N 8.886069 6.921356 -9.752765 0 CFG=2 CHG=1
M  V30 15 C 9.544042 5.604668 -9.933316 0
M  V30 16 C 8.994146 4.852013 -11.154890 0
M  V30 17 C 9.010778 5.699583 -12.439814 0 CFG=2
M  V30 18 C 10.362614 5.773462 -13.113145 0
M  V30 19 N 11.323803 6.573277 -12.648508 0
M  V30 20 O 12.417766 6.499125 -13.553763 0
M  V30 21 C 12.122561 5.605153 -14.568997 0
M  V30 22 C 12.850199 5.190752 -15.694571 0
M  V30 23 F 14.081558 5.690291 -15.957712 0
M  V30 24 C 12.252865 4.242656 -16.551815 0
M  V30 25 C 10.954085 3.748975 -16.274883 0
M  V30 26 C 10.232534 4.197556 -15.143606 0
M  V30 27 C 10.836865 5.138844 -14.281709 0
M  V30 28 C 8.396699 7.091580 -12.175154 0
M  V30 29 C 9.004807 7.795848 -10.942741 0
M  V30 30 H 12.100973 6.093808 -1.879369 0
M  V30 31 H 12.522379 8.423378 -1.042313 0
M  V30 32 H 12.317534 10.325062 -2.650582 0
M  V30 33 H 11.286048 11.010324 -4.899142 0
M  V30 34 H 12.825827 10.431232 -5.532990 0
M  V30 35 H 10.086058 10.133878 -6.607223 0
M  V30 36 H 11.583636 10.331026 -7.446516 0
M  V30 37 H 10.794048 8.956065 -9.003119 0
M  V30 38 H 11.386109 7.347214 -8.774763 0
M  V30 39 H 8.986375 6.856015 -7.670034 0
M  V30 40 H 8.533383 8.404889 -8.304936 0
M  V30 41 H 10.608972 5.771749 -10.048532 0
M  V30 42 H 9.413150 4.992434 -9.039718 0
M  V30 43 H 9.539051 3.919555 -11.309704 0
M  V30 44 H 7.962553 4.569099 -10.937922 0
M  V30 45 H 8.342108 5.202443 -13.143437 0
M  V30 46 H 12.787983 3.897206 -17.423914 0
M  V30 47 H 10.506272 3.025530 -16.940731 0
M  V30 48 H 9.239249 3.822771 -14.945565 0
M  V30 49 H 8.476224 7.732911 -13.046810 0
M  V30 50 H 7.327424 6.957880 -12.010682 0
M  V30 51 H 8.486175 8.736778 -10.761484 0
M  V30 52 H 10.043756 8.073171 -11.106581 0
M  V30 53 H 7.881292 6.765022 -9.698579 0
M  V30 END ATOM
M  V30 BEGIN BOND
M  V30 1 2 2 1
M  V30 2 1 3 2
M  V30 3 2 4 3
M  V30 4 1 5 4
M  V30 5 2 6 5
M  V30 6 1 7 6
M  V30 7 1 8 3
M  V30 8 2 8 7
M  V30 9 1 9 8
M  V30 10 1 10 9
M  V30 11 1 11 2
M  V30 12 1 11 10
M  V30 13 1 12 11
M  V30 14 1 13 12
M  V30 15 1 14 13
M  V30 16 1 15 14
M  V30 17 1 16 15
M  V30 18 1 17 16
M  V30 19 1 18 17
M  V30 20 2 19 18
M  V30 21 1 20 19
M  V30 22 1 21 20
M  V30 23 2 22 21
M  V30 24 1 23 22
M  V30 25 1 24 22
M  V30 26 2 25 24
M  V30 27 1 26 25
M  V30 28 1 27 18
M  V30 29 1 27 21
M  V30 30 2 27 26
M  V30 31 1 28 17
M  V30 32 1 29 14
M  V30 33 1 29 28
M  V30 34 1 30 5
M  V30 35 1 31 6
M  V30 36 1 32 7
M  V30 37 1 33 9
M  V30 38 1 34 9
M  V30 39 1 35 10
M  V30 40 1 36 10
M  V30 41 1 37 12
M  V30 42 1 38 12
M  V30 43 1 39 13
M  V30 44 1 40 13
M  V30 45 1 41 15
M  V30 46 1 42 15
M  V30 47 1 43 16
M  V30 48 1 44 16
M  V30 49 1 17 45 CFG=3
M  V30 50 1 46 24
M  V30 51 1 47 25
M  V30 52 1 48 26
M  V30 53 1 49 28
M  V30 54 1 50 28
M  V30 55 1 51 29
M  V30 56 1 52 29
M  V30 57 1 14 53 CFG=1
M  V30 END BOND
M  V30 END CTAB
M  END
>  <b_m_subgroup_collapsed>  (154) 
0

>  <r_i_docking_score>  (154) 
-8.9918227388108996

>  <s_m_subgroup_title>  (154) 
glide-dock_SP_D22_pv

>  <s_m_subgroupid>  (154) 
glide-dock_SP_D22_pv

>  <Molecule ChEMBL ID>  (154) 
CHEMBL5753002

>  <Standard Type>  (154) 
Ki

>  <Standard Value>  (154) 
10000.0

>  <label>  (154) 
0

$$$$
CHEMBL569322
     RDKit          3D

  0  0  0  0  0  0  0  0  0  0999 V3000
M  V30 BEGIN CTAB
M  V30 COUNTS 71 75 0 0 1
M  V30 BEGIN ATOM
M  V30 1 C 11.176738 6.061511 -14.336629 0
M  V30 2 C 10.130801 5.223250 -13.595353 0
M  V30 3 C 8.764773 5.960562 -13.403224 0
M  V30 4 N 7.823515 5.378060 -12.403504 0 CFG=2 CHG=1
M  V30 5 C 8.453157 5.111866 -11.082191 0
M  V30 6 C 9.262696 6.334257 -10.603848 0
M  V30 7 N 9.704591 6.164139 -9.236418 0
M  V30 8 C 8.686672 6.725603 -8.350208 0
M  V30 9 C 9.097854 6.570318 -6.886751 0
M  V30 10 N 10.492553 6.907525 -6.644858 0
M  V30 11 C 10.829558 7.987274 -5.853410 0
M  V30 12 N 10.645974 9.220182 -6.359845 0 CHG=1
M  V30 13 C 10.885692 10.324142 -5.636332 0
M  V30 14 C 11.286033 10.173929 -4.303900 0
M  V30 15 C 11.643750 8.953992 -3.789210 0
M  V30 16 C 12.182706 8.896613 -2.499766 0
M  V30 17 C 12.485393 7.647366 -1.965197 0
M  V30 18 C 12.230620 6.483689 -2.705429 0
M  V30 19 C 11.686323 6.573374 -4.001826 0
M  V30 20 C 11.398755 7.818879 -4.569027 0
M  V30 21 C 11.477233 6.570206 -7.633321 0
M  V30 22 C 10.951449 6.896271 -9.035821 0
M  V30 23 C 6.904969 4.331747 -12.953249 0 CFG=2
M  V30 24 C 5.941130 3.729986 -11.912415 0
M  V30 25 C 4.973442 2.705047 -12.513641 0
M  V30 26 C 5.607781 1.736328 -13.491583 0
M  V30 27 C 4.909839 0.561064 -13.847214 0
M  V30 28 C 5.380126 -0.255641 -14.892793 0
M  V30 29 C 6.548083 0.107315 -15.591156 0
M  V30 30 O 6.987275 -0.627734 -16.646816 0
M  V30 31 C 7.278054 1.239716 -15.203201 0
M  V30 32 C 6.814440 2.055755 -14.155713 0
M  V30 33 C 7.643087 3.260537 -13.771912 0
M  V30 34 H 12.150731 5.568832 -14.330478 0
M  V30 35 H 10.894135 6.201614 -15.380109 0
M  V30 36 H 11.296900 7.038527 -13.868621 0
M  V30 37 H 10.573681 4.922559 -12.648358 0
M  V30 38 H 10.020262 4.299603 -14.156446 0
M  V30 39 H 8.257119 6.071929 -14.357750 0
M  V30 40 H 8.943544 6.974448 -13.046968 0
M  V30 41 H 7.685140 4.912760 -10.339690 0
M  V30 42 H 9.078242 4.217558 -11.122205 0
M  V30 43 H 10.140455 6.469292 -11.235318 0
M  V30 44 H 8.681663 7.252878 -10.708260 0
M  V30 45 H 8.488444 7.774078 -8.579955 0
M  V30 46 H 7.756200 6.172140 -8.499559 0
M  V30 47 H 8.434738 7.146376 -6.244119 0
M  V30 48 H 8.979343 5.527881 -6.646891 0
M  V30 49 H 10.672823 11.267205 -6.109756 0
M  V30 50 H 11.349297 10.972386 -3.612782 0
M  V30 51 H 12.362358 9.790611 -1.917821 0
M  V30 52 H 12.901199 7.593565 -0.982192 0
M  V30 53 H 12.446144 5.514626 -2.273376 0
M  V30 54 H 11.485441 5.676340 -4.560240 0
M  V30 55 H 12.410359 7.104085 -7.450211 0
M  V30 56 H 11.685856 5.509915 -7.482666 0
M  V30 57 H 11.686108 6.575147 -9.773208 0
M  V30 58 H 10.802876 7.969974 -9.168163 0
M  V30 59 H 6.262659 4.854249 -13.663509 0
M  V30 60 H 6.488942 3.233320 -11.115985 0
M  V30 61 H 5.362093 4.528172 -11.446441 0
M  V30 62 H 4.184244 3.236583 -13.046698 0
M  V30 63 H 4.486038 2.145276 -11.719566 0
M  V30 64 H 3.973111 0.317121 -13.372058 0
M  V30 65 H 4.817607 -1.129207 -15.188748 0
M  V30 66 H 7.139237 -1.537901 -16.401543 0
M  V30 67 H 8.190213 1.489512 -15.723767 0
M  V30 68 H 8.515780 2.907117 -13.224832 0
M  V30 69 H 8.005556 3.697912 -14.700862 0
M  V30 70 H 7.191686 6.140192 -12.183541 0
M  V30 71 H 10.279799 9.316216 -7.309190 0
M  V30 END ATOM
M  V30 BEGIN BOND
M  V30 1 1 2 1
M  V30 2 1 3 2
M  V30 3 1 4 3
M  V30 4 1 5 4
M  V30 5 1 6 5
M  V30 6 1 7 6
M  V30 7 1 8 7
M  V30 8 1 9 8
M  V30 9 1 10 9
M  V30 10 1 11 10
M  V30 11 2 12 11
M  V30 12 1 13 12
M  V30 13 2 14 13
M  V30 14 1 15 14
M  V30 15 2 16 15
M  V30 16 1 17 16
M  V30 17 2 18 17
M  V30 18 1 19 18
M  V30 19 1 20 11
M  V30 20 1 20 15
M  V30 21 2 20 19
M  V30 22 1 21 10
M  V30 23 1 22 7
M  V30 24 1 22 21
M  V30 25 1 23 4
M  V30 26 1 24 23
M  V30 27 1 25 24
M  V30 28 1 26 25
M  V30 29 1 27 26
M  V30 30 2 28 27
M  V30 31 1 29 28
M  V30 32 1 30 29
M  V30 33 2 31 29
M  V30 34 2 32 26
M  V30 35 1 32 31
M  V30 36 1 33 23
M  V30 37 1 33 32
M  V30 38 1 34 1
M  V30 39 1 35 1
M  V30 40 1 36 1
M  V30 41 1 37 2
M  V30 42 1 38 2
M  V30 43 1 39 3
M  V30 44 1 40 3
M  V30 45 1 41 5
M  V30 46 1 42 5
M  V30 47 1 43 6
M  V30 48 1 44 6
M  V30 49 1 45 8
M  V30 50 1 46 8
M  V30 51 1 47 9
M  V30 52 1 48 9
M  V30 53 1 49 13
M  V30 54 1 50 14
M  V30 55 1 51 16
M  V30 56 1 52 17
M  V30 57 1 53 18
M  V30 58 1 54 19
M  V30 59 1 55 21
M  V30 60 1 56 21
M  V30 61 1 57 22
M  V30 62 1 58 22
M  V30 63 1 23 59 CFG=3
M  V30 64 1 60 24
M  V30 65 1 61 24
M  V30 66 1 62 25
M  V30 67 1 63 25
M  V30 68 1 64 27
M  V30 69 1 65 28
M  V30 70 1 66 30
M  V30 71 1 67 31
M  V30 72 1 68 33
M  V30 73 1 69 33
M  V30 74 1 4 70 CFG=1
M  V30 75 1 71 12
M  V30 END BOND
M  V30 END CTAB
M  END
>  <b_m_subgroup_collapsed>  (155) 
0

>  <r_i_docking_score>  (155) 
-8.9887670534356197

>  <s_m_subgroup_title>  (155) 
glide-dock_SP_D22_pv

>  <s_m_subgroupid>  (155) 
glide-dock_SP_D22_pv

>  <Molecule ChEMBL ID>  (155) 
CHEMBL569322

>  <Standard Type>  (155) 
Ki

>  <Standard Value>  (155) 
21.7

>  <label>  (155) 
1

$$$$
CHEMBL2203406
     RDKit          3D

  0  0  0  0  0  0  0  0  0  0999 V3000
M  V30 BEGIN CTAB
M  V30 COUNTS 69 73 0 0 1
M  V30 BEGIN ATOM
M  V30 1 C 12.124905 3.295936 -16.119825 0
M  V30 2 C 10.635758 3.533980 -15.848491 0
M  V30 3 C 10.137545 2.823802 -14.577497 0
M  V30 4 N 8.720032 3.181400 -14.278230 0 CFG=2 CHG=1
M  V30 5 C 8.590784 4.056930 -13.070811 0
M  V30 6 C 9.388359 5.377395 -13.161839 0
M  V30 7 C 8.948338 6.436087 -12.136226 0 CFG=2
M  V30 8 O 7.727166 6.951198 -12.646994 0
M  V30 9 C 9.971838 7.510816 -11.697866 0
M  V30 10 C 9.318190 7.487238 -10.311481 0 CFG=2
M  V30 11 N 10.231164 7.668814 -9.176284 0
M  V30 12 C 10.087695 7.078459 -7.974502 0
M  V30 13 O 9.443531 6.045779 -7.796072 0
M  V30 14 C 10.754387 7.750026 -6.803820 0
M  V30 15 C 10.794177 9.157096 -6.687523 0
M  V30 16 C 11.263777 9.771860 -5.506450 0
M  V30 17 C 11.686722 8.981721 -4.416884 0
M  V30 18 C 12.079887 9.564400 -3.192676 0
M  V30 19 C 12.482641 8.758905 -2.112733 0
M  V30 20 C 12.485935 7.361183 -2.248614 0
M  V30 21 C 12.086091 6.773842 -3.457854 0
M  V30 22 C 11.685327 7.573858 -4.541708 0
M  V30 23 C 11.225136 6.969842 -5.727430 0
M  V30 24 C 8.892310 6.045616 -10.648098 0
M  V30 25 C 7.805207 1.986676 -14.327057 0 CFG=1
M  V30 26 C 6.406582 2.188630 -13.667150 0
M  V30 27 C 5.570476 0.886584 -13.624898 0
M  V30 28 C 5.621707 0.170454 -14.937606 0
M  V30 29 N 4.694993 -0.817490 -15.289749 0
M  V30 30 C 4.906071 -1.267446 -16.529770 0
M  V30 31 N 4.138009 -2.227673 -17.170729 0
M  V30 32 S 6.276540 -0.507435 -17.339481 0
M  V30 33 C 6.544793 0.452761 -15.909445 0
M  V30 34 C 7.624271 1.483145 -15.787774 0
M  V30 35 H 12.432889 3.770967 -17.052395 0
M  V30 36 H 12.737559 3.717072 -15.322181 0
M  V30 37 H 12.353597 2.232327 -16.200598 0
M  V30 38 H 10.057320 3.191582 -16.708359 0
M  V30 39 H 10.471087 4.608123 -15.781284 0
M  V30 40 H 10.785320 3.060081 -13.734163 0
M  V30 41 H 10.252557 1.747287 -14.707861 0
M  V30 42 H 8.885363 3.505379 -12.177433 0
M  V30 43 H 7.550845 4.351533 -12.946581 0
M  V30 44 H 9.280752 5.772463 -14.171257 0
M  V30 45 H 10.451418 5.172020 -13.037098 0
M  V30 46 H 7.276227 7.372300 -11.918411 0
M  V30 47 H 11.003934 7.151352 -11.700125 0
M  V30 48 H 9.876138 8.464209 -12.219866 0
M  V30 49 H 8.486570 8.189508 -10.282561 0
M  V30 50 H 10.840224 8.471394 -9.221886 0
M  V30 51 H 10.411855 9.772263 -7.485510 0
M  V30 52 H 11.257160 10.849561 -5.426848 0
M  V30 53 H 12.063960 10.631166 -3.047616 0
M  V30 54 H 12.795230 9.218909 -1.186121 0
M  V30 55 H 12.845640 6.734072 -1.447359 0
M  V30 56 H 12.087875 5.703081 -3.552560 0
M  V30 57 H 11.185863 5.892350 -5.790902 0
M  V30 58 H 7.902545 5.772241 -10.274094 0
M  V30 59 H 9.637241 5.294664 -10.379867 0
M  V30 60 H 8.287042 1.182845 -13.768383 0
M  V30 61 H 6.477623 2.558157 -12.647488 0
M  V30 62 H 5.857969 2.947331 -14.229293 0
M  V30 63 H 4.539822 1.115986 -13.350414 0
M  V30 64 H 5.958533 0.233246 -12.841460 0
M  V30 65 H 3.530682 -2.860504 -16.644211 0
M  V30 66 H 4.457864 -2.615374 -18.044762 0
M  V30 67 H 7.369297 2.322744 -16.435677 0
M  V30 68 H 8.557635 1.070391 -16.171200 0
M  V30 69 H 8.417880 3.766880 -15.041933 0
M  V30 END ATOM
M  V30 BEGIN BOND
M  V30 1 1 2 1
M  V30 2 1 3 2
M  V30 3 1 4 3
M  V30 4 1 5 4
M  V30 5 1 6 5
M  V30 6 1 7 6
M  V30 7 1 7 8 CFG=3
M  V30 8 1 9 7
M  V30 9 1 10 9
M  V30 10 1 11 10
M  V30 11 1 12 11
M  V30 12 2 13 12
M  V30 13 1 14 12
M  V30 14 1 15 14
M  V30 15 2 16 15
M  V30 16 1 17 16
M  V30 17 2 18 17
M  V30 18 1 19 18
M  V30 19 2 20 19
M  V30 20 1 21 20
M  V30 21 1 22 17
M  V30 22 2 22 21
M  V30 23 2 23 14
M  V30 24 1 23 22
M  V30 25 1 24 7
M  V30 26 1 24 10
M  V30 27 1 25 4
M  V30 28 1 26 25
M  V30 29 1 27 26
M  V30 30 1 28 27
M  V30 31 1 29 28
M  V30 32 2 30 29
M  V30 33 1 31 30
M  V30 34 1 32 30
M  V30 35 2 33 28
M  V30 36 1 33 32
M  V30 37 1 34 25
M  V30 38 1 34 33
M  V30 39 1 35 1
M  V30 40 1 36 1
M  V30 41 1 37 1
M  V30 42 1 38 2
M  V30 43 1 39 2
M  V30 44 1 40 3
M  V30 45 1 41 3
M  V30 46 1 42 5
M  V30 47 1 43 5
M  V30 48 1 44 6
M  V30 49 1 45 6
M  V30 50 1 46 8
M  V30 51 1 47 9
M  V30 52 1 48 9
M  V30 53 1 10 49 CFG=3
M  V30 54 1 50 11
M  V30 55 1 51 15
M  V30 56 1 52 16
M  V30 57 1 53 18
M  V30 58 1 54 19
M  V30 59 1 55 20
M  V30 60 1 56 21
M  V30 61 1 57 23
M  V30 62 1 58 24
M  V30 63 1 59 24
M  V30 64 1 25 60 CFG=1
M  V30 65 1 61 26
M  V30 66 1 62 26
M  V30 67 1 63 27
M  V30 68 1 64 27
M  V30 69 1 65 31
M  V30 70 1 66 31
M  V30 71 1 67 34
M  V30 72 1 68 34
M  V30 73 1 4 69 CFG=3
M  V30 END BOND
M  V30 END CTAB
M  END
>  <b_m_subgroup_collapsed>  (156) 
0

>  <r_i_docking_score>  (156) 
-8.9873189331024896

>  <s_m_subgroup_title>  (156) 
glide-dock_SP_D22_pv

>  <s_m_subgroupid>  (156) 
glide-dock_SP_D22_pv

>  <Molecule ChEMBL ID>  (156) 
CHEMBL2203406

>  <Standard Type>  (156) 
Ki

>  <Standard Value>  (156) 
21.0

>  <label>  (156) 
1

$$$$
CHEMBL2159486
     RDKit          3D

  0  0  0  0  0  0  0  0  0  0999 V3000
M  V30 BEGIN CTAB
M  V30 COUNTS 51 53 0 0 1
M  V30 BEGIN ATOM
M  V30 1 C 11.829836 10.736483 -6.564720 0
M  V30 2 S 10.886003 10.572323 -5.046897 0
M  V30 3 C 11.384445 9.063280 -4.337725 0
M  V30 4 C 11.876239 9.098480 -3.020145 0
M  V30 5 C 12.249907 7.910189 -2.374482 0
M  V30 6 C 12.144183 6.688662 -3.059232 0
M  V30 7 C 11.685958 6.666333 -4.391724 0
M  V30 8 C 11.286006 7.842672 -5.046382 0
M  V30 9 O 10.869234 7.743199 -6.356069 0
M  V30 10 C 9.496972 8.021294 -6.647929 0
M  V30 11 C 9.342912 8.067696 -8.184050 0
M  V30 12 N 8.929675 6.773925 -8.783074 0 CFG=2 CHG=1
M  V30 13 C 9.577706 5.577578 -8.221454 0
M  V30 14 C 9.270782 4.453543 -9.206073 0
M  V30 15 C 9.024402 5.157494 -10.551776 0 CFG=1
M  V30 16 N 7.685894 4.836798 -11.047002 0
M  V30 17 S 7.178102 5.218530 -12.646794 0
M  V30 18 O 5.778826 5.660794 -12.580037 0
M  V30 19 O 8.214023 6.067612 -13.251887 0
M  V30 20 C 7.190544 3.621974 -13.447345 0
M  V30 21 C 8.310248 3.224343 -14.206195 0
M  V30 22 C 8.333694 1.941862 -14.788461 0
M  V30 23 C 7.246482 1.063702 -14.604749 0
M  V30 24 C 6.127500 1.467895 -13.847070 0
M  V30 25 Cl 4.815331 0.374505 -13.617975 0
M  V30 26 C 6.085865 2.759065 -13.283051 0
M  V30 27 C 9.149715 6.660285 -10.238671 0
M  V30 28 H 11.686095 11.734054 -6.979220 0
M  V30 29 H 12.885830 10.594155 -6.345200 0
M  V30 30 H 11.524385 10.002542 -7.306774 0
M  V30 31 H 11.954391 10.039681 -2.494771 0
M  V30 32 H 12.618289 7.940727 -1.360218 0
M  V30 33 H 12.434779 5.772373 -2.568708 0
M  V30 34 H 11.633628 5.742637 -4.934341 0
M  V30 35 H 8.841321 7.281024 -6.193353 0
M  V30 36 H 9.171286 8.972340 -6.246580 0
M  V30 37 H 8.574821 8.796336 -8.447639 0
M  V30 38 H 10.268640 8.424422 -8.636930 0
M  V30 39 H 10.656270 5.734689 -8.165103 0
M  V30 40 H 9.212798 5.372311 -7.220103 0
M  V30 41 H 10.085857 3.731790 -9.260898 0
M  V30 42 H 8.383523 3.913703 -8.869292 0
M  V30 43 H 9.759013 4.852941 -11.298670 0
M  V30 44 H 6.926769 4.775865 -10.358491 0
M  V30 45 H 9.152211 3.890518 -14.328805 0
M  V30 46 H 9.191366 1.626089 -15.364748 0
M  V30 47 H 7.274075 0.074995 -15.041149 0
M  V30 48 H 5.232522 3.071129 -12.698653 0
M  V30 49 H 8.485981 7.297299 -10.820168 0
M  V30 50 H 10.167185 6.980577 -10.470338 0
M  V30 51 H 7.926419 6.690680 -8.636864 0
M  V30 END ATOM
M  V30 BEGIN BOND
M  V30 1 1 2 1
M  V30 2 1 3 2
M  V30 3 2 4 3
M  V30 4 1 5 4
M  V30 5 2 6 5
M  V30 6 1 7 6
M  V30 7 1 8 3
M  V30 8 2 8 7
M  V30 9 1 9 8
M  V30 10 1 10 9
M  V30 11 1 11 10
M  V30 12 1 12 11
M  V30 13 1 13 12
M  V30 14 1 14 13
M  V30 15 1 15 14
M  V30 16 1 16 15
M  V30 17 1 17 16
M  V30 18 2 18 17
M  V30 19 2 19 17
M  V30 20 1 20 17
M  V30 21 2 21 20
M  V30 22 1 22 21
M  V30 23 2 23 22
M  V30 24 1 24 23
M  V30 25 1 25 24
M  V30 26 1 26 20
M  V30 27 2 26 24
M  V30 28 1 27 12
M  V30 29 1 27 15
M  V30 30 1 28 1
M  V30 31 1 29 1
M  V30 32 1 30 1
M  V30 33 1 31 4
M  V30 34 1 32 5
M  V30 35 1 33 6
M  V30 36 1 34 7
M  V30 37 1 35 10
M  V30 38 1 36 10
M  V30 39 1 37 11
M  V30 40 1 38 11
M  V30 41 1 39 13
M  V30 42 1 40 13
M  V30 43 1 41 14
M  V30 44 1 42 14
M  V30 45 1 15 43 CFG=3
M  V30 46 1 44 16
M  V30 47 1 45 21
M  V30 48 1 46 22
M  V30 49 1 47 23
M  V30 50 1 48 26
M  V30 51 1 49 27
M  V30 52 1 50 27
M  V30 53 1 12 51 CFG=3
M  V30 END BOND
M  V30 END CTAB
M  END
>  <b_m_subgroup_collapsed>  (157) 
0

>  <r_i_docking_score>  (157) 
-8.9873178146434505

>  <s_m_subgroup_title>  (157) 
glide-dock_SP_D22_pv

>  <s_m_subgroupid>  (157) 
glide-dock_SP_D22_pv

>  <Molecule ChEMBL ID>  (157) 
CHEMBL2159486

>  <Standard Type>  (157) 
Ki

>  <Standard Value>  (157) 
36.0

>  <label>  (157) 
1

$$$$
CHEMBL4755336
     RDKit          3D

  0  0  0  0  0  0  0  0  0  0999 V3000
M  V30 BEGIN CTAB
M  V30 COUNTS 137 142 0 0 1
M  V30 BEGIN ATOM
M  V30 1 C 3.606236 -1.175336 -15.765969 0
M  V30 2 C 4.904684 -0.926750 -16.543028 0
M  V30 3 C 5.001872 -1.793721 -17.813505 0
M  V30 4 N 6.262197 -1.533098 -18.565022 0 CFG=2 CHG=1
M  V30 5 C 6.200234 -0.298993 -19.396696 0
M  V30 6 C 7.565358 0.404060 -19.497568 0
M  V30 7 C 7.528458 1.588245 -20.475351 0
M  V30 8 C 8.786254 2.474275 -20.418404 0
M  V30 9 C 8.556783 3.824358 -21.028961 0
M  V30 10 C 8.486211 5.042996 -20.417568 0
M  V30 11 N 8.153822 5.898185 -21.446030 0
M  V30 12 C 7.853352 7.317824 -21.378502 0
M  V30 13 C 9.107566 8.189079 -21.238609 0
M  V30 14 O 9.994472 7.933541 -22.313787 0
M  V30 15 C 11.067701 8.859319 -22.360809 0
M  V30 16 C 12.091395 8.438127 -23.418571 0
M  V30 17 O 12.875208 7.376300 -22.899477 0
M  V30 18 C 13.991042 7.059767 -23.715977 0
M  V30 19 C 14.780776 5.925395 -23.061153 0
M  V30 20 O 15.384472 6.412950 -21.874636 0
M  V30 21 C 16.200449 5.448284 -21.231594 0
M  V30 22 C 16.546978 5.948299 -19.826704 0
M  V30 23 O 15.409008 5.764013 -18.997934 0
M  V30 24 C 15.640661 6.082645 -17.637016 0
M  V30 25 C 14.310572 6.053372 -16.874561 0
M  V30 26 O 13.823533 4.718231 -16.813004 0
M  V30 27 C 12.980720 4.451131 -15.697785 0
M  V30 28 C 11.574245 5.054733 -15.858871 0
M  V30 29 N 10.892601 5.215196 -14.587984 0
M  V30 30 C 9.692456 4.679510 -14.167776 0
M  V30 31 C 9.454168 5.320234 -12.982526 0
M  V30 32 C 8.191901 5.360427 -12.165569 0
M  V30 33 C 8.334787 5.224701 -10.633288 0
M  V30 34 C 9.322380 6.216292 -9.998532 0
M  V30 35 C 9.101362 6.619445 -8.525377 0
M  V30 36 N 10.096747 7.648997 -8.088708 0 CFG=1 CHG=1
M  V30 37 C 9.948187 8.952384 -8.800057 0
M  V30 38 C 11.286045 9.385989 -9.441170 0
M  V30 39 C 11.713157 8.541467 -10.645837 0
M  V30 40 C 10.231638 7.772389 -6.598754 0
M  V30 41 C 10.816380 9.100427 -6.033000 0
M  V30 42 C 11.372589 8.692105 -4.704091 0
M  V30 43 C 11.687495 9.521310 -3.618714 0
M  V30 44 C 12.222952 8.929645 -2.455958 0
M  V30 45 C 12.426284 7.533422 -2.398162 0
M  V30 46 C 12.086004 6.711090 -3.495471 0
M  V30 47 C 11.551028 7.317932 -4.646843 0
M  V30 48 C 11.074142 6.659846 -5.920333 0
M  V30 49 N 10.527238 6.172301 -12.728326 0
M  V30 50 N 11.396765 6.082793 -13.679921 0
M  V30 51 N 8.088950 5.246074 -22.632721 0
M  V30 52 N 8.327748 3.993464 -22.394489 0
M  V30 53 C 6.757208 -2.702550 -19.343456 0
M  V30 54 C 7.400735 -3.850215 -18.533749 0
M  V30 55 C 7.266595 -4.997334 -19.498524 0
M  V30 56 C 7.943983 -6.227746 -19.447281 0
M  V30 57 C 7.668349 -7.180455 -20.453026 0
M  V30 58 C 6.733757 -6.898002 -21.477619 0
M  V30 59 C 6.069660 -5.650480 -21.523354 0
M  V30 60 C 6.355786 -4.715065 -20.515720 0
M  V30 61 C 5.774598 -3.336552 -20.365097 0
M  V30 62 H 3.553418 -0.547567 -14.876960 0
M  V30 63 H 2.729184 -0.961860 -16.379456 0
M  V30 64 H 3.533036 -2.215397 -15.446035 0
M  V30 65 H 5.753362 -1.138988 -15.890029 0
M  V30 66 H 4.960526 0.132856 -16.790983 0
M  V30 67 H 4.136618 -1.628490 -18.460539 0
M  V30 68 H 4.951084 -2.839895 -17.507669 0
M  V30 69 H 5.487546 0.410758 -18.972929 0
M  V30 70 H 5.816088 -0.541365 -20.389547 0
M  V30 71 H 8.351243 -0.284241 -19.816660 0
M  V30 72 H 7.854931 0.753701 -18.503525 0
M  V30 73 H 6.646410 2.180642 -20.245882 0
M  V30 74 H 7.376263 1.233039 -21.498291 0
M  V30 75 H 9.619173 1.970220 -20.914209 0
M  V30 76 H 9.092773 2.604983 -19.378853 0
M  V30 77 H 8.586123 5.354675 -19.385767 0
M  V30 78 H 7.180190 7.486677 -20.538820 0
M  V30 79 H 7.302534 7.604199 -22.274202 0
M  V30 80 H 9.608972 7.983914 -20.291035 0
M  V30 81 H 8.812574 9.241828 -21.227606 0
M  V30 82 H 11.549488 8.965935 -21.387856 0
M  V30 83 H 10.659287 9.831358 -22.630852 0
M  V30 84 H 12.736341 9.290470 -23.638119 0
M  V30 85 H 11.600883 8.150342 -24.348951 0
M  V30 86 H 14.630825 7.932775 -23.857510 0
M  V30 87 H 13.640420 6.746318 -24.699816 0
M  V30 88 H 15.551072 5.571281 -23.744637 0
M  V30 89 H 14.121912 5.083610 -22.839521 0
M  V30 90 H 17.112526 5.309182 -21.816965 0
M  V30 91 H 15.703611 4.480055 -21.167471 0
M  V30 92 H 16.848263 6.996266 -19.852173 0
M  V30 93 H 17.384096 5.374178 -19.433134 0
M  V30 94 H 16.070923 7.081381 -17.565903 0
M  V30 95 H 16.353025 5.384562 -17.193108 0
M  V30 96 H 13.580462 6.704183 -17.354584 0
M  V30 97 H 14.485578 6.449026 -15.873335 0
M  V30 98 H 13.471058 4.790312 -14.782435 0
M  V30 99 H 12.885951 3.371807 -15.600494 0
M  V30 100 H 10.969789 4.434476 -16.521826 0
M  V30 101 H 11.622219 6.038756 -16.319168 0
M  V30 102 H 9.098295 3.992649 -14.755871 0
M  V30 103 H 7.512320 4.582488 -12.511818 0
M  V30 104 H 7.675124 6.300356 -12.370602 0
M  V30 105 H 8.607793 4.211550 -10.356690 0
M  V30 106 H 7.336880 5.406943 -10.241768 0
M  V30 107 H 9.270451 7.101611 -10.623676 0
M  V30 108 H 10.327605 5.813227 -10.093998 0
M  V30 109 H 9.195435 5.729726 -7.900534 0
M  V30 110 H 8.086236 6.989052 -8.379813 0
M  V30 111 H 9.176048 8.930095 -9.572361 0
M  V30 112 H 9.564543 9.717468 -8.126986 0
M  V30 113 H 11.226059 10.420785 -9.774462 0
M  V30 114 H 12.091410 9.371837 -8.711951 0
M  V30 115 H 12.626106 8.936252 -11.091106 0
M  V30 116 H 11.912297 7.505666 -10.372390 0
M  V30 117 H 10.943479 8.546531 -11.415550 0
M  V30 118 H 9.222210 7.701090 -6.178820 0
M  V30 119 H 10.086146 9.892796 -5.909434 0
M  V30 120 H 11.652153 9.480150 -6.613887 0
M  V30 121 H 11.525146 10.583742 -3.666137 0
M  V30 122 H 12.481862 9.548474 -1.605951 0
M  V30 123 H 12.838952 7.086916 -1.508482 0
M  V30 124 H 12.241400 5.648577 -3.444737 0
M  V30 125 H 11.931846 6.366022 -6.522744 0
M  V30 126 H 10.485936 5.772922 -5.702275 0
M  V30 127 H 7.587164 -2.345131 -19.955036 0
M  V30 128 H 8.443566 -3.651213 -18.273634 0
M  V30 129 H 6.849998 -4.085198 -17.621962 0
M  V30 130 H 8.648939 -6.435542 -18.654739 0
M  V30 131 H 8.163494 -8.140757 -20.435974 0
M  V30 132 H 6.532535 -7.638187 -22.239594 0
M  V30 133 H 5.358243 -5.427794 -22.304949 0
M  V30 134 H 4.755954 -3.426426 -19.983799 0
M  V30 135 H 5.753422 -2.804403 -21.317837 0
M  V30 136 H 6.959734 -1.362788 -17.855328 0
M  V30 137 H 10.985650 7.293904 -8.403026 0
M  V30 END ATOM
M  V30 BEGIN BOND
M  V30 1 1 2 1
M  V30 2 1 3 2
M  V30 3 1 4 3
M  V30 4 1 5 4
M  V30 5 1 6 5
M  V30 6 1 7 6
M  V30 7 1 8 7
M  V30 8 1 9 8
M  V30 9 2 10 9
M  V30 10 1 11 10
M  V30 11 1 12 11
M  V30 12 1 13 12
M  V30 13 1 14 13
M  V30 14 1 15 14
M  V30 15 1 16 15
M  V30 16 1 17 16
M  V30 17 1 18 17
M  V30 18 1 19 18
M  V30 19 1 20 19
M  V30 20 1 21 20
M  V30 21 1 22 21
M  V30 22 1 23 22
M  V30 23 1 24 23
M  V30 24 1 25 24
M  V30 25 1 26 25
M  V30 26 1 27 26
M  V30 27 1 28 27
M  V30 28 1 29 28
M  V30 29 1 30 29
M  V30 30 2 31 30
M  V30 31 1 32 31
M  V30 32 1 33 32
M  V30 33 1 34 33
M  V30 34 1 35 34
M  V30 35 1 36 35
M  V30 36 1 37 36
M  V30 37 1 38 37
M  V30 38 1 39 38
M  V30 39 1 40 36
M  V30 40 1 41 40
M  V30 41 1 42 41
M  V30 42 2 43 42
M  V30 43 1 44 43
M  V30 44 2 45 44
M  V30 45 1 46 45
M  V30 46 1 47 42
M  V30 47 2 47 46
M  V30 48 1 48 40
M  V30 49 1 48 47
M  V30 50 1 49 31
M  V30 51 1 50 29
M  V30 52 2 50 49
M  V30 53 1 51 11
M  V30 54 1 52 9
M  V30 55 2 52 51
M  V30 56 1 53 4
M  V30 57 1 54 53
M  V30 58 1 55 54
M  V30 59 2 56 55
M  V30 60 1 57 56
M  V30 61 2 58 57
M  V30 62 1 59 58
M  V30 63 1 60 55
M  V30 64 2 60 59
M  V30 65 1 61 53
M  V30 66 1 61 60
M  V30 67 1 62 1
M  V30 68 1 63 1
M  V30 69 1 64 1
M  V30 70 1 65 2
M  V30 71 1 66 2
M  V30 72 1 67 3
M  V30 73 1 68 3
M  V30 74 1 69 5
M  V30 75 1 70 5
M  V30 76 1 71 6
M  V30 77 1 72 6
M  V30 78 1 73 7
M  V30 79 1 74 7
M  V30 80 1 75 8
M  V30 81 1 76 8
M  V30 82 1 77 10
M  V30 83 1 78 12
M  V30 84 1 79 12
M  V30 85 1 80 13
M  V30 86 1 81 13
M  V30 87 1 82 15
M  V30 88 1 83 15
M  V30 89 1 84 16
M  V30 90 1 85 16
M  V30 91 1 86 18
M  V30 92 1 87 18
M  V30 93 1 88 19
M  V30 94 1 89 19
M  V30 95 1 90 21
M  V30 96 1 91 21
M  V30 97 1 92 22
M  V30 98 1 93 22
M  V30 99 1 94 24
M  V30 100 1 95 24
M  V30 101 1 96 25
M  V30 102 1 97 25
M  V30 103 1 98 27
M  V30 104 1 99 27
M  V30 105 1 100 28
M  V30 106 1 101 28
M  V30 107 1 102 30
M  V30 108 1 103 32
M  V30 109 1 104 32
M  V30 110 1 105 33
M  V30 111 1 106 33
M  V30 112 1 107 34
M  V30 113 1 108 34
M  V30 114 1 109 35
M  V30 115 1 110 35
M  V30 116 1 111 37
M  V30 117 1 112 37
M  V30 118 1 113 38
M  V30 119 1 114 38
M  V30 120 1 115 39
M  V30 121 1 116 39
M  V30 122 1 117 39
M  V30 123 1 118 40
M  V30 124 1 119 41
M  V30 125 1 120 41
M  V30 126 1 121 43
M  V30 127 1 122 44
M  V30 128 1 123 45
M  V30 129 1 124 46
M  V30 130 1 125 48
M  V30 131 1 126 48
M  V30 132 1 127 53
M  V30 133 1 128 54
M  V30 134 1 129 54
M  V30 135 1 130 56
M  V30 136 1 131 57
M  V30 137 1 132 58
M  V30 138 1 133 59
M  V30 139 1 134 61
M  V30 140 1 135 61
M  V30 141 1 4 136 CFG=1
M  V30 142 1 36 137 CFG=3
M  V30 END BOND
M  V30 END CTAB
M  END
>  <b_m_subgroup_collapsed>  (158) 
0

>  <r_i_docking_score>  (158) 
-8.9868690767783797

>  <s_m_subgroup_title>  (158) 
glide-dock_SP_D22_pv

>  <s_m_subgroupid>  (158) 
glide-dock_SP_D22_pv

>  <Molecule ChEMBL ID>  (158) 
CHEMBL4755336

>  <Standard Type>  (158) 
Ki

>  <Standard Value>  (158) 
48.0

>  <label>  (158) 
1

$$$$
CHEMBL5965086
     RDKit          3D

  0  0  0  0  0  0  0  0  0  0999 V3000
M  V30 BEGIN CTAB
M  V30 COUNTS 53 57 0 0 1
M  V30 BEGIN ATOM
M  V30 1 O 11.279509 6.172486 -6.489292 0
M  V30 2 C 11.286036 7.348248 -6.123986 0
M  V30 3 C 11.599423 7.705319 -4.694332 0
M  V30 4 N 11.690982 6.689043 -3.807961 0
M  V30 5 C 12.022351 6.969214 -2.533894 0
M  V30 6 C 12.259354 8.274670 -2.070879 0
M  V30 7 C 12.142884 9.337770 -2.978502 0
M  V30 8 C 11.826392 9.047860 -4.317672 0
M  V30 9 C 11.794497 10.157036 -5.338175 0
M  V30 10 C 11.105364 9.782156 -6.650539 0
M  V30 11 N 11.053621 8.360652 -6.988624 0
M  V30 12 C 10.690588 8.062112 -8.377527 0
M  V30 13 C 9.225398 7.576473 -8.470981 0
M  V30 14 N 8.886027 6.945272 -9.766270 0 CFG=2 CHG=1
M  V30 15 C 9.519246 5.619894 -9.962513 0
M  V30 16 C 8.941312 4.887329 -11.183778 0
M  V30 17 C 8.979486 5.740093 -12.464848 0 CFG=2
M  V30 18 C 10.336211 5.772174 -13.132585 0
M  V30 19 N 11.307416 6.572392 -12.691347 0
M  V30 20 O 12.426447 6.411203 -13.553963 0
M  V30 21 C 12.129353 5.471015 -14.524636 0
M  V30 22 C 12.883575 4.963118 -15.590782 0
M  V30 23 C 12.281157 3.985819 -16.411093 0
M  V30 24 F 12.972136 3.458116 -17.448944 0
M  V30 25 C 10.957633 3.552706 -16.153332 0
M  V30 26 C 10.214572 4.089199 -15.075676 0
M  V30 27 C 10.821058 5.063640 -14.253029 0
M  V30 28 C 8.393616 7.143366 -12.189586 0
M  V30 29 C 9.007394 7.828735 -10.949260 0
M  V30 30 H 12.095612 6.127738 -1.861000 0
M  V30 31 H 12.517767 8.462133 -1.041772 0
M  V30 32 H 12.316682 10.353147 -2.651695 0
M  V30 33 H 11.285927 11.024617 -4.914543 0
M  V30 34 H 12.826900 10.441483 -5.544693 0
M  V30 35 H 10.086077 10.126222 -6.607257 0
M  V30 36 H 11.577214 10.342061 -7.446703 0
M  V30 37 H 10.823878 8.941832 -9.008916 0
M  V30 38 H 11.391813 7.323596 -8.766848 0
M  V30 39 H 8.988856 6.859423 -7.683822 0
M  V30 40 H 8.551729 8.418599 -8.304168 0
M  V30 41 H 10.584569 5.772298 -10.088306 0
M  V30 42 H 9.387324 5.003785 -9.072160 0
M  V30 43 H 9.458463 3.940142 -11.345613 0
M  V30 44 H 7.903132 4.631601 -10.963289 0
M  V30 45 H 8.301378 5.261676 -13.171862 0
M  V30 46 H 13.892524 5.302598 -15.771732 0
M  V30 47 H 10.511469 2.803221 -16.790543 0
M  V30 48 H 9.204892 3.755141 -14.888150 0
M  V30 49 H 8.483286 7.801809 -13.046878 0
M  V30 50 H 7.321617 7.021423 -12.033356 0
M  V30 51 H 8.486054 8.766706 -10.757627 0
M  V30 52 H 10.047721 8.100775 -11.115795 0
M  V30 53 H 7.878762 6.801628 -9.711920 0
M  V30 END ATOM
M  V30 BEGIN BOND
M  V30 1 2 2 1
M  V30 2 1 3 2
M  V30 3 2 4 3
M  V30 4 1 5 4
M  V30 5 2 6 5
M  V30 6 1 7 6
M  V30 7 1 8 3
M  V30 8 2 8 7
M  V30 9 1 9 8
M  V30 10 1 10 9
M  V30 11 1 11 2
M  V30 12 1 11 10
M  V30 13 1 12 11
M  V30 14 1 13 12
M  V30 15 1 14 13
M  V30 16 1 15 14
M  V30 17 1 16 15
M  V30 18 1 17 16
M  V30 19 1 18 17
M  V30 20 2 19 18
M  V30 21 1 20 19
M  V30 22 1 21 20
M  V30 23 1 22 21
M  V30 24 2 23 22
M  V30 25 1 24 23
M  V30 26 1 25 23
M  V30 27 2 26 25
M  V30 28 1 27 18
M  V30 29 2 27 21
M  V30 30 1 27 26
M  V30 31 1 28 17
M  V30 32 1 29 14
M  V30 33 1 29 28
M  V30 34 1 30 5
M  V30 35 1 31 6
M  V30 36 1 32 7
M  V30 37 1 33 9
M  V30 38 1 34 9
M  V30 39 1 35 10
M  V30 40 1 36 10
M  V30 41 1 37 12
M  V30 42 1 38 12
M  V30 43 1 39 13
M  V30 44 1 40 13
M  V30 45 1 41 15
M  V30 46 1 42 15
M  V30 47 1 43 16
M  V30 48 1 44 16
M  V30 49 1 17 45 CFG=3
M  V30 50 1 46 22
M  V30 51 1 47 25
M  V30 52 1 48 26
M  V30 53 1 49 28
M  V30 54 1 50 28
M  V30 55 1 51 29
M  V30 56 1 52 29
M  V30 57 1 14 53 CFG=1
M  V30 END BOND
M  V30 END CTAB
M  END
>  <b_m_subgroup_collapsed>  (159) 
0

>  <r_i_docking_score>  (159) 
-8.9832743777614805

>  <s_m_subgroup_title>  (159) 
glide-dock_SP_D22_pv

>  <s_m_subgroupid>  (159) 
glide-dock_SP_D22_pv

>  <Molecule ChEMBL ID>  (159) 
CHEMBL5965086

>  <Standard Type>  (159) 
Ki

>  <Standard Value>  (159) 
87.0

>  <label>  (159) 
1

$$$$
CHEMBL5821806
     RDKit          3D

  0  0  0  0  0  0  0  0  0  0999 V3000
M  V30 BEGIN CTAB
M  V30 COUNTS 62 64 0 0 1
M  V30 BEGIN ATOM
M  V30 1 C 4.085977 0.172045 -19.750536 0
M  V30 2 O 5.154681 -0.504794 -19.105486 0
M  V30 3 C 5.035779 -0.567694 -17.740145 0
M  V30 4 C 5.916165 0.194708 -16.948652 0
M  V30 5 C 5.829037 0.172279 -15.538934 0
M  V30 6 C 6.787098 1.013381 -14.715632 0
M  V30 7 C 6.140606 1.903752 -13.627696 0
M  V30 8 C 6.944707 3.208069 -13.493018 0
M  V30 9 C 6.647164 4.047719 -12.246778 0
M  V30 10 C 7.604911 5.249431 -12.165047 0
M  V30 11 N 7.686022 5.772324 -10.791019 0 CHG=1
M  V30 12 C 9.046029 5.860567 -10.235024 0
M  V30 13 C 9.035953 6.597509 -8.893633 0
M  V30 14 C 10.354042 6.419832 -8.135899 0
M  V30 15 C 10.454758 7.311669 -6.887238 0 CFG=2
M  V30 16 C 11.100967 8.683829 -7.222282 0
M  V30 17 C 11.239347 9.620024 -6.003505 0
M  V30 18 C 11.658647 8.864799 -4.783446 0
M  V30 19 N 12.086024 9.506926 -3.626431 0
M  V30 20 C 12.373746 8.629650 -2.669039 0
M  V30 21 N 12.886024 8.972324 -1.446862 0
M  V30 22 S 12.086022 6.958721 -3.089165 0
M  V30 23 C 11.626452 7.501481 -4.673122 0
M  V30 24 C 11.205405 6.578118 -5.754532 0
M  V30 25 C 4.861734 -0.641161 -14.918686 0
M  V30 26 C 3.999614 -1.428235 -15.704439 0
M  V30 27 C 4.089907 -1.407114 -17.110218 0
M  V30 28 O 3.286024 -2.227675 -17.846863 0
M  V30 29 H 4.213887 0.109122 -20.830866 0
M  V30 30 H 3.109631 -0.247199 -19.507080 0
M  V30 31 H 4.086022 1.227151 -19.478506 0
M  V30 32 H 6.655386 0.811388 -17.437450 0
M  V30 33 H 7.526254 0.353695 -14.259012 0
M  V30 34 H 7.347480 1.639804 -15.411214 0
M  V30 35 H 5.105634 2.157485 -13.847072 0
M  V30 36 H 6.086025 1.354822 -12.686881 0
M  V30 37 H 8.006701 2.957426 -13.485458 0
M  V30 38 H 6.786231 3.816575 -14.382936 0
M  V30 39 H 5.610036 4.386135 -12.244053 0
M  V30 40 H 6.765651 3.418621 -11.363849 0
M  V30 41 H 8.601162 4.951087 -12.496118 0
M  V30 42 H 7.283349 6.045863 -12.837081 0
M  V30 43 H 7.223216 6.693458 -10.705835 0
M  V30 44 H 9.436815 4.848721 -10.114561 0
M  V30 45 H 9.703058 6.382743 -10.932254 0
M  V30 46 H 8.836756 7.656622 -9.063525 0
M  V30 47 H 8.220542 6.226635 -8.269511 0
M  V30 48 H 10.429978 5.372321 -7.846877 0
M  V30 49 H 11.201943 6.605984 -8.796227 0
M  V30 50 H 9.448446 7.510052 -6.512136 0
M  V30 51 H 12.100495 8.500186 -7.619541 0
M  V30 52 H 10.550411 9.191132 -8.015113 0
M  V30 53 H 10.281953 10.098570 -5.806042 0
M  V30 54 H 11.943782 10.422388 -6.226371 0
M  V30 55 H 13.282640 9.905305 -1.348343 0
M  V30 56 H 13.272082 8.263152 -0.844341 0
M  V30 57 H 10.572877 5.801893 -5.330731 0
M  V30 58 H 12.086020 6.076290 -6.153886 0
M  V30 59 H 4.790777 -0.678424 -13.843421 0
M  V30 60 H 3.281503 -2.074703 -15.224642 0
M  V30 61 H 2.933900 -2.945110 -17.319975 0
M  V30 62 H 7.141903 5.156003 -10.197955 0
M  V30 END ATOM
M  V30 BEGIN BOND
M  V30 1 1 2 1
M  V30 2 1 3 2
M  V30 3 1 4 3
M  V30 4 2 5 4
M  V30 5 1 6 5
M  V30 6 1 7 6
M  V30 7 1 8 7
M  V30 8 1 9 8
M  V30 9 1 10 9
M  V30 10 1 11 10
M  V30 11 1 12 11
M  V30 12 1 13 12
M  V30 13 1 14 13
M  V30 14 1 15 14
M  V30 15 1 16 15
M  V30 16 1 17 16
M  V30 17 1 18 17
M  V30 18 1 19 18
M  V30 19 2 20 19
M  V30 20 1 21 20
M  V30 21 1 22 20
M  V30 22 2 23 18
M  V30 23 1 23 22
M  V30 24 1 24 15
M  V30 25 1 24 23
M  V30 26 1 25 5
M  V30 27 2 26 25
M  V30 28 2 27 3
M  V30 29 1 27 26
M  V30 30 1 28 27
M  V30 31 1 29 1
M  V30 32 1 30 1
M  V30 33 1 31 1
M  V30 34 1 32 4
M  V30 35 1 33 6
M  V30 36 1 34 6
M  V30 37 1 35 7
M  V30 38 1 36 7
M  V30 39 1 37 8
M  V30 40 1 38 8
M  V30 41 1 39 9
M  V30 42 1 40 9
M  V30 43 1 41 10
M  V30 44 1 42 10
M  V30 45 1 43 11
M  V30 46 1 44 12
M  V30 47 1 45 12
M  V30 48 1 46 13
M  V30 49 1 47 13
M  V30 50 1 48 14
M  V30 51 1 49 14
M  V30 52 1 15 50 CFG=1
M  V30 53 1 51 16
M  V30 54 1 52 16
M  V30 55 1 53 17
M  V30 56 1 54 17
M  V30 57 1 55 21
M  V30 58 1 56 21
M  V30 59 1 57 24
M  V30 60 1 58 24
M  V30 61 1 59 25
M  V30 62 1 60 26
M  V30 63 1 61 28
M  V30 64 1 62 11
M  V30 END BOND
M  V30 END CTAB
M  END
>  <b_m_subgroup_collapsed>  (160) 
0

>  <r_i_docking_score>  (160) 
-8.9812155825490905

>  <s_m_subgroup_title>  (160) 
glide-dock_SP_D22_pv

>  <s_m_subgroupid>  (160) 
glide-dock_SP_D22_pv

>  <Molecule ChEMBL ID>  (160) 
CHEMBL5821806

>  <Standard Type>  (160) 
Ki

>  <Standard Value>  (160) 
68.3

>  <label>  (160) 
1

$$$$
CHEMBL1172210
     RDKit          3D

  0  0  0  0  0  0  0  0  0  0999 V3000
M  V30 BEGIN CTAB
M  V30 COUNTS 45 48 0 0 1
M  V30 BEGIN ATOM
M  V30 1 O 7.533729 7.021688 -12.649255 0
M  V30 2 C 8.651365 6.455703 -11.995193 0 CFG=1
M  V30 3 C 9.585993 5.771776 -13.005424 0
M  V30 4 C 9.039268 4.848424 -13.927289 0
M  V30 5 C 9.845956 4.240644 -14.907154 0
M  V30 6 C 11.214952 4.552886 -14.982450 0
M  V30 7 Br 12.296171 3.771879 -16.338200 0
M  V30 8 C 11.777367 5.459414 -14.066146 0
M  V30 9 C 10.969043 6.066878 -13.085701 0
M  V30 10 C 9.285451 7.650783 -11.222691 0
M  V30 11 C 10.101077 7.241459 -9.985778 0
M  V30 12 N 9.296970 6.361981 -9.104658 0 CFG=2 CHG=1
M  V30 13 C 9.977679 5.988183 -7.847874 0
M  V30 14 C 10.445800 7.046967 -6.904530 0
M  V30 15 C 10.241276 8.400087 -6.744561 0
M  V30 16 C 10.885894 8.742021 -5.500796 0
M  V30 17 C 11.046362 9.886196 -4.689623 0
M  V30 18 C 11.685697 9.787428 -3.432853 0
M  V30 19 C 12.206023 8.567840 -2.963124 0
M  V30 20 C 12.086757 7.421488 -3.762189 0
M  V30 21 C 11.433772 7.538059 -4.998730 0
M  V30 22 O 11.206219 6.534667 -5.895426 0
M  V30 23 C 8.913301 5.118549 -9.825063 0
M  V30 24 C 8.036045 5.413714 -11.035615 0
M  V30 25 H 6.953330 7.371486 -11.976383 0
M  V30 26 H 7.984196 4.618387 -13.899708 0
M  V30 27 H 9.410770 3.547387 -15.611639 0
M  V30 28 H 12.828068 5.703940 -14.126530 0
M  V30 29 H 11.441020 6.776809 -12.427031 0
M  V30 30 H 9.860339 8.294783 -11.888067 0
M  V30 31 H 8.486087 8.294570 -10.850417 0
M  V30 32 H 11.019994 6.727992 -10.265236 0
M  V30 33 H 10.403834 8.144003 -9.456756 0
M  V30 34 H 9.277195 5.372389 -7.289499 0
M  V30 35 H 10.827363 5.351719 -8.093999 0
M  V30 36 H 9.665640 9.067576 -7.368918 0
M  V30 37 H 10.646038 10.833825 -5.017521 0
M  V30 38 H 11.777427 10.665449 -2.810385 0
M  V30 39 H 12.690845 8.518634 -1.998520 0
M  V30 40 H 12.470225 6.467740 -3.430773 0
M  V30 41 H 9.805183 4.574552 -10.140162 0
M  V30 42 H 8.363214 4.453272 -9.157095 0
M  V30 43 H 7.083683 5.772184 -10.647377 0
M  V30 44 H 7.782253 4.487261 -11.551198 0
M  V30 45 H 8.441103 6.852125 -8.862888 0
M  V30 END ATOM
M  V30 BEGIN BOND
M  V30 1 1 2 1 CFG=3
M  V30 2 1 3 2
M  V30 3 1 4 3
M  V30 4 2 5 4
M  V30 5 1 6 5
M  V30 6 1 7 6
M  V30 7 2 8 6
M  V30 8 2 9 3
M  V30 9 1 9 8
M  V30 10 1 10 2
M  V30 11 1 11 10
M  V30 12 1 12 11
M  V30 13 1 13 12
M  V30 14 1 14 13
M  V30 15 2 15 14
M  V30 16 1 16 15
M  V30 17 2 17 16
M  V30 18 1 18 17
M  V30 19 2 19 18
M  V30 20 1 20 19
M  V30 21 1 21 16
M  V30 22 2 21 20
M  V30 23 1 22 14
M  V30 24 1 22 21
M  V30 25 1 23 12
M  V30 26 1 24 2
M  V30 27 1 24 23
M  V30 28 1 25 1
M  V30 29 1 26 4
M  V30 30 1 27 5
M  V30 31 1 28 8
M  V30 32 1 29 9
M  V30 33 1 30 10
M  V30 34 1 31 10
M  V30 35 1 32 11
M  V30 36 1 33 11
M  V30 37 1 34 13
M  V30 38 1 35 13
M  V30 39 1 36 15
M  V30 40 1 37 17
M  V30 41 1 38 18
M  V30 42 1 39 19
M  V30 43 1 40 20
M  V30 44 1 41 23
M  V30 45 1 42 23
M  V30 46 1 43 24
M  V30 47 1 44 24
M  V30 48 1 12 45 CFG=1
M  V30 END BOND
M  V30 END CTAB
M  END
>  <b_m_subgroup_collapsed>  (161) 
0

>  <r_i_docking_score>  (161) 
-8.9766343642571798

>  <s_m_subgroup_title>  (161) 
glide-dock_SP_D22_pv

>  <s_m_subgroupid>  (161) 
glide-dock_SP_D22_pv

>  <Molecule ChEMBL ID>  (161) 
CHEMBL1172210

>  <Standard Type>  (161) 
Ki

>  <Standard Value>  (161) 
17.3

>  <label>  (161) 
1

$$$$
CHEMBL569746
     RDKit          3D

  0  0  0  0  0  0  0  0  0  0999 V3000
M  V30 BEGIN CTAB
M  V30 COUNTS 71 75 0 0 1
M  V30 BEGIN ATOM
M  V30 1 C 11.680682 3.946033 -14.017385 0
M  V30 2 C 10.173191 4.166450 -14.158194 0
M  V30 3 C 9.331220 3.377446 -13.135982 0
M  V30 4 N 7.877725 3.546032 -13.447009 0 CFG=2 CHG=1
M  V30 5 C 7.089869 4.198097 -12.355119 0
M  V30 6 C 7.469318 5.675387 -12.128510 0
M  V30 7 N 8.708049 5.862878 -11.373507 0
M  V30 8 C 9.184244 7.228289 -11.572086 0
M  V30 9 C 10.543136 7.351753 -10.887726 0
M  V30 10 N 10.367238 7.213099 -9.438672 0
M  V30 11 C 10.692588 8.229057 -8.599669 0
M  V30 12 O 10.885793 9.371948 -9.018689 0
M  V30 13 C 10.910527 7.983153 -7.148273 0
M  V30 14 C 11.155151 6.872498 -6.374434 0
M  V30 15 C 11.455902 7.332967 -5.046792 0
M  V30 16 C 11.828463 6.710684 -3.834637 0
M  V30 17 C 12.145617 7.455230 -2.683617 0
M  V30 18 C 12.085281 8.858425 -2.714401 0
M  V30 19 C 11.683455 9.503672 -3.896954 0
M  V30 20 C 11.386222 8.750998 -5.045871 0
M  V30 21 N 11.023151 9.099348 -6.329393 0
M  V30 22 C 9.761117 5.918494 -9.081311 0
M  V30 23 C 8.516595 5.598379 -9.939782 0
M  V30 24 C 7.202688 2.411667 -14.188643 0 CFG=1
M  V30 25 C 8.136381 1.299158 -14.727036 0
M  V30 26 C 7.440319 0.385741 -15.741504 0
M  V30 27 C 6.056103 -0.064062 -15.308654 0
M  V30 28 C 5.384781 -1.081682 -16.028112 0
M  V30 29 O 6.010707 -1.741626 -17.046473 0
M  V30 30 C 4.059251 -1.427677 -15.698284 0
M  V30 31 C 3.415257 -0.794910 -14.620097 0
M  V30 32 C 4.100786 0.172349 -13.874534 0
M  V30 33 C 5.393445 0.572496 -14.233782 0
M  V30 34 C 5.957984 1.781484 -13.502919 0
M  V30 35 H 12.227778 4.502738 -14.777893 0
M  V30 36 H 12.041931 4.278606 -13.046941 0
M  V30 37 H 11.930873 2.893306 -14.136177 0
M  V30 38 H 9.880298 3.892883 -15.171785 0
M  V30 39 H 9.960344 5.232274 -14.060640 0
M  V30 40 H 9.574944 3.707797 -12.130117 0
M  V30 41 H 9.649912 2.342501 -13.087381 0
M  V30 42 H 6.044827 4.247606 -12.655357 0
M  V30 43 H 7.107916 3.625173 -11.429608 0
M  V30 44 H 7.545398 6.166548 -13.098633 0
M  V30 45 H 6.652389 6.172410 -11.605703 0
M  V30 46 H 9.294865 7.430387 -12.637925 0
M  V30 47 H 8.486104 7.963194 -11.170602 0
M  V30 48 H 11.211846 6.572665 -11.252853 0
M  V30 49 H 11.007697 8.295485 -11.176650 0
M  V30 50 H 11.185110 5.840781 -6.690856 0
M  V30 51 H 11.909024 5.642098 -3.801805 0
M  V30 52 H 12.451743 6.943880 -1.783552 0
M  V30 53 H 12.328322 9.436801 -1.834262 0
M  V30 54 H 11.609807 10.572522 -3.923565 0
M  V30 55 H 10.923959 10.032677 -6.700789 0
M  V30 56 H 10.489981 5.120531 -9.196880 0
M  V30 57 H 9.427581 5.896724 -8.045337 0
M  V30 58 H 7.683993 6.172972 -9.555785 0
M  V30 59 H 8.245546 4.555133 -9.784380 0
M  V30 60 H 6.810698 2.905838 -15.077795 0
M  V30 61 H 8.471855 0.678681 -13.893715 0
M  V30 62 H 9.026117 1.705482 -15.207273 0
M  V30 63 H 8.068211 -0.483515 -15.932631 0
M  V30 64 H 7.337114 0.906890 -16.693960 0
M  V30 65 H 6.814164 -2.146945 -16.736187 0
M  V30 66 H 3.539501 -2.191830 -16.259729 0
M  V30 67 H 2.395837 -1.027364 -14.363920 0
M  V30 68 H 3.636203 0.676508 -13.051059 0
M  V30 69 H 5.151725 2.514702 -13.479523 0
M  V30 70 H 6.085947 1.492189 -12.461809 0
M  V30 71 H 7.901515 4.274745 -14.144496 0
M  V30 END ATOM
M  V30 BEGIN BOND
M  V30 1 1 2 1
M  V30 2 1 3 2
M  V30 3 1 4 3
M  V30 4 1 5 4
M  V30 5 1 6 5
M  V30 6 1 7 6
M  V30 7 1 8 7
M  V30 8 1 9 8
M  V30 9 1 10 9
M  V30 10 1 11 10
M  V30 11 2 12 11
M  V30 12 1 13 11
M  V30 13 2 14 13
M  V30 14 1 15 14
M  V30 15 2 16 15
M  V30 16 1 17 16
M  V30 17 2 18 17
M  V30 18 1 19 18
M  V30 19 1 20 15
M  V30 20 2 20 19
M  V30 21 1 21 13
M  V30 22 1 21 20
M  V30 23 1 22 10
M  V30 24 1 23 7
M  V30 25 1 23 22
M  V30 26 1 24 4
M  V30 27 1 25 24
M  V30 28 1 26 25
M  V30 29 1 27 26
M  V30 30 2 28 27
M  V30 31 1 29 28
M  V30 32 1 30 28
M  V30 33 2 31 30
M  V30 34 1 32 31
M  V30 35 1 33 27
M  V30 36 2 33 32
M  V30 37 1 34 24
M  V30 38 1 34 33
M  V30 39 1 35 1
M  V30 40 1 36 1
M  V30 41 1 37 1
M  V30 42 1 38 2
M  V30 43 1 39 2
M  V30 44 1 40 3
M  V30 45 1 41 3
M  V30 46 1 42 5
M  V30 47 1 43 5
M  V30 48 1 44 6
M  V30 49 1 45 6
M  V30 50 1 46 8
M  V30 51 1 47 8
M  V30 52 1 48 9
M  V30 53 1 49 9
M  V30 54 1 50 14
M  V30 55 1 51 16
M  V30 56 1 52 17
M  V30 57 1 53 18
M  V30 58 1 54 19
M  V30 59 1 55 21
M  V30 60 1 56 22
M  V30 61 1 57 22
M  V30 62 1 58 23
M  V30 63 1 59 23
M  V30 64 1 24 60 CFG=3
M  V30 65 1 61 25
M  V30 66 1 62 25
M  V30 67 1 63 26
M  V30 68 1 64 26
M  V30 69 1 65 29
M  V30 70 1 66 30
M  V30 71 1 67 31
M  V30 72 1 68 32
M  V30 73 1 69 34
M  V30 74 1 70 34
M  V30 75 1 4 71 CFG=3
M  V30 END BOND
M  V30 END CTAB
M  END
>  <b_m_subgroup_collapsed>  (162) 
0

>  <r_i_docking_score>  (162) 
-8.9761354201507793

>  <s_m_subgroup_title>  (162) 
glide-dock_SP_D22_pv

>  <s_m_subgroupid>  (162) 
glide-dock_SP_D22_pv

>  <Molecule ChEMBL ID>  (162) 
CHEMBL569746

>  <Standard Type>  (162) 
Ki

>  <Standard Value>  (162) 
47.5

>  <label>  (162) 
1

$$$$
CHEMBL5856810
     RDKit          3D

  0  0  0  0  0  0  0  0  0  0999 V3000
M  V30 BEGIN CTAB
M  V30 COUNTS 57 59 0 0 1
M  V30 BEGIN ATOM
M  V30 1 C 5.598130 3.397829 -12.486939 0
M  V30 2 C 6.407476 4.379260 -13.352435 0
M  V30 3 N 7.698649 4.737010 -12.732149 0
M  V30 4 C 7.602934 5.625050 -11.564126 0
M  V30 5 C 8.367063 5.051183 -10.364065 0
M  V30 6 N 8.762976 6.117584 -9.407055 0 CFG=2 CHG=1
M  V30 7 C 10.129168 6.644763 -9.680566 0
M  V30 8 C 10.550324 7.736510 -8.682272 0
M  V30 9 C 10.410669 7.243719 -7.228670 0 CFG=1
M  V30 10 C 10.818117 8.276258 -6.210925 0
M  V30 11 N 10.578369 9.568462 -6.418168 0
M  V30 12 O 11.021757 10.278336 -5.268355 0
M  V30 13 C 11.502690 9.381875 -4.331336 0
M  V30 14 C 12.011882 9.570351 -3.042154 0
M  V30 15 C 12.373979 8.427615 -2.299667 0
M  V30 16 F 12.872071 8.568733 -1.047831 0
M  V30 17 C 12.202861 7.135718 -2.859305 0
M  V30 18 C 11.692655 6.972460 -4.171434 0
M  V30 19 C 11.353396 8.123657 -4.915272 0
M  V30 20 C 8.976055 6.765934 -6.996958 0
M  V30 21 C 8.605124 5.668262 -8.001678 0
M  V30 22 S 9.187328 4.687104 -13.639663 0
M  V30 23 O 10.167391 5.515889 -12.920125 0
M  V30 24 O 8.886083 4.972347 -15.046627 0
M  V30 25 C 9.752231 2.938104 -13.538159 0 CFG=2
M  V30 26 C 11.219039 2.893600 -13.995721 0
M  V30 27 C 8.871861 2.017012 -14.399316 0
M  V30 28 O 9.293039 0.680607 -14.246925 0
M  V30 29 H 4.615291 3.227414 -12.924592 0
M  V30 30 H 6.085952 2.427269 -12.411751 0
M  V30 31 H 5.441319 3.768405 -11.472766 0
M  V30 32 H 5.826720 5.289820 -13.505089 0
M  V30 33 H 6.568666 3.951207 -14.338097 0
M  V30 34 H 7.985200 6.606789 -11.848661 0
M  V30 35 H 6.560980 5.772648 -11.280748 0
M  V30 36 H 7.719809 4.311206 -9.892911 0
M  V30 37 H 9.254288 4.497527 -10.675982 0
M  V30 38 H 10.846972 5.826894 -9.625011 0
M  V30 39 H 10.176546 7.038160 -10.696971 0
M  V30 40 H 11.578445 8.041396 -8.879319 0
M  V30 41 H 9.931818 8.621259 -8.841109 0
M  V30 42 H 11.070608 6.383953 -7.106690 0
M  V30 43 H 12.090590 10.563731 -2.626235 0
M  V30 44 H 12.465452 6.262947 -2.276864 0
M  V30 45 H 11.563043 5.983536 -4.588851 0
M  V30 46 H 8.885322 6.372607 -5.985425 0
M  V30 47 H 8.277394 7.603680 -7.065956 0
M  V30 48 H 7.573987 5.371235 -7.828814 0
M  V30 49 H 9.224142 4.783407 -7.846151 0
M  V30 50 H 9.686126 2.640281 -12.491650 0
M  V30 51 H 11.650265 1.905443 -13.846980 0
M  V30 52 H 11.307289 3.133507 -15.055827 0
M  V30 53 H 11.835617 3.609486 -13.453512 0
M  V30 54 H 8.906357 2.293185 -15.453388 0
M  V30 55 H 7.834523 2.068508 -14.081143 0
M  V30 56 H 9.520693 0.562074 -13.328600 0
M  V30 57 H 8.096961 6.875179 -9.534890 0
M  V30 END ATOM
M  V30 BEGIN BOND
M  V30 1 1 2 1
M  V30 2 1 3 2
M  V30 3 1 4 3
M  V30 4 1 5 4
M  V30 5 1 6 5
M  V30 6 1 7 6
M  V30 7 1 8 7
M  V30 8 1 9 8
M  V30 9 1 10 9
M  V30 10 2 11 10
M  V30 11 1 12 11
M  V30 12 1 13 12
M  V30 13 1 14 13
M  V30 14 2 15 14
M  V30 15 1 16 15
M  V30 16 1 17 15
M  V30 17 2 18 17
M  V30 18 1 19 10
M  V30 19 2 19 13
M  V30 20 1 19 18
M  V30 21 1 20 9
M  V30 22 1 21 6
M  V30 23 1 21 20
M  V30 24 1 22 3
M  V30 25 2 23 22
M  V30 26 2 24 22
M  V30 27 1 25 22
M  V30 28 1 26 25
M  V30 29 1 27 25
M  V30 30 1 28 27
M  V30 31 1 29 1
M  V30 32 1 30 1
M  V30 33 1 31 1
M  V30 34 1 32 2
M  V30 35 1 33 2
M  V30 36 1 34 4
M  V30 37 1 35 4
M  V30 38 1 36 5
M  V30 39 1 37 5
M  V30 40 1 38 7
M  V30 41 1 39 7
M  V30 42 1 40 8
M  V30 43 1 41 8
M  V30 44 1 9 42 CFG=3
M  V30 45 1 43 14
M  V30 46 1 44 17
M  V30 47 1 45 18
M  V30 48 1 46 20
M  V30 49 1 47 20
M  V30 50 1 48 21
M  V30 51 1 49 21
M  V30 52 1 25 50 CFG=1
M  V30 53 1 51 26
M  V30 54 1 52 26
M  V30 55 1 53 26
M  V30 56 1 54 27
M  V30 57 1 55 27
M  V30 58 1 56 28
M  V30 59 1 6 57 CFG=1
M  V30 END BOND
M  V30 END CTAB
M  END
>  <b_m_subgroup_collapsed>  (163) 
0

>  <r_i_docking_score>  (163) 
-8.9755708600111603

>  <s_m_subgroup_title>  (163) 
glide-dock_SP_D22_pv

>  <s_m_subgroupid>  (163) 
glide-dock_SP_D22_pv

>  <Molecule ChEMBL ID>  (163) 
CHEMBL5856810

>  <Standard Type>  (163) 
Ki

>  <Standard Value>  (163) 
10000.0

>  <label>  (163) 
0

$$$$
CHEMBL5987244
     RDKit          3D

  0  0  0  0  0  0  0  0  0  0999 V3000
M  V30 BEGIN CTAB
M  V30 COUNTS 56 60 0 0 1
M  V30 BEGIN ATOM
M  V30 1 C 14.273422 6.084974 -16.051174 0
M  V30 2 C 12.916310 5.470139 -15.768232 0
M  V30 3 C 12.332913 4.550205 -16.667440 0
M  V30 4 C 11.048731 4.012450 -16.408279 0
M  V30 5 C 10.324891 4.382694 -15.250270 0
M  V30 6 C 10.913170 5.291709 -14.343467 0
M  V30 7 C 10.426875 5.862193 -13.146628 0
M  V30 8 C 9.066262 5.753197 -12.488930 0 CFG=1
M  V30 9 C 9.039312 4.874181 -11.224934 0
M  V30 10 C 9.554180 5.602949 -9.972795 0
M  V30 11 N 8.886051 6.914050 -9.774066 0 CFG=1 CHG=1
M  V30 12 C 9.208913 7.543613 -8.473287 0
M  V30 13 C 10.659729 8.075327 -8.381158 0
M  V30 14 N 11.031405 8.361102 -6.991591 0
M  V30 15 C 11.101632 9.779360 -6.645786 0
M  V30 16 C 11.794023 10.137055 -5.328954 0
M  V30 17 C 11.828674 9.016437 -4.320267 0
M  V30 18 C 12.149560 9.289915 -2.978167 0
M  V30 19 C 12.261515 8.217785 -2.079612 0
M  V30 20 C 12.020530 6.918416 -2.556787 0
M  V30 21 N 11.686069 6.653195 -3.833533 0
M  V30 22 C 11.597601 7.679407 -4.709373 0
M  V30 23 C 11.286000 7.340976 -6.143255 0
M  V30 24 O 11.285313 6.172734 -6.525077 0
M  V30 25 C 9.012430 7.811628 -10.945612 0
M  V30 26 C 8.422801 7.128470 -12.196131 0
M  V30 27 N 11.374831 6.653708 -12.647207 0
M  V30 28 O 12.464778 6.651175 -13.558911 0
M  V30 29 C 12.185833 5.803449 -14.616006 0
M  V30 30 H 15.069849 5.372329 -15.845326 0
M  V30 31 H 14.345466 6.379705 -17.098360 0
M  V30 32 H 14.452358 6.972041 -15.442028 0
M  V30 33 H 12.862475 4.260953 -17.563332 0
M  V30 34 H 10.616256 3.314509 -17.110189 0
M  V30 35 H 9.342000 3.974508 -15.068167 0
M  V30 36 H 8.414176 5.263733 -13.212472 0
M  V30 37 H 8.007892 4.572934 -11.033959 0
M  V30 38 H 9.597092 3.951780 -11.393460 0
M  V30 39 H 10.621830 5.772103 -10.056793 0
M  V30 40 H 9.404320 4.969179 -9.097474 0
M  V30 41 H 8.995975 6.811577 -7.693743 0
M  V30 42 H 8.511435 8.363977 -8.294684 0
M  V30 43 H 10.760602 8.967808 -9.000315 0
M  V30 44 H 11.381326 7.367579 -8.789118 0
M  V30 45 H 10.086039 10.137906 -6.601224 0
M  V30 46 H 11.580520 10.329269 -7.446764 0
M  V30 47 H 11.286016 10.998545 -4.891953 0
M  V30 48 H 12.825975 10.426301 -5.532259 0
M  V30 49 H 12.332385 10.301290 -2.647510 0
M  V30 50 H 12.523967 8.392291 -1.047439 0
M  V30 51 H 12.094256 6.068150 -1.894439 0
M  V30 52 H 8.486082 8.745066 -10.751204 0
M  V30 53 H 10.050253 8.098324 -11.094856 0
M  V30 54 H 7.355447 6.971315 -12.038238 0
M  V30 55 H 8.485523 7.800002 -13.046821 0
M  V30 56 H 7.881825 6.752682 -9.730916 0
M  V30 END ATOM
M  V30 BEGIN BOND
M  V30 1 1 2 1
M  V30 2 1 3 2
M  V30 3 2 4 3
M  V30 4 1 5 4
M  V30 5 2 6 5
M  V30 6 1 7 6
M  V30 7 1 8 7
M  V30 8 1 9 8
M  V30 9 1 10 9
M  V30 10 1 11 10
M  V30 11 1 12 11
M  V30 12 1 13 12
M  V30 13 1 14 13
M  V30 14 1 15 14
M  V30 15 1 16 15
M  V30 16 1 17 16
M  V30 17 2 18 17
M  V30 18 1 19 18
M  V30 19 2 20 19
M  V30 20 1 21 20
M  V30 21 1 22 17
M  V30 22 2 22 21
M  V30 23 1 23 14
M  V30 24 1 23 22
M  V30 25 2 24 23
M  V30 26 1 25 11
M  V30 27 1 26 8
M  V30 28 1 26 25
M  V30 29 2 27 7
M  V30 30 1 28 27
M  V30 31 2 29 2
M  V30 32 1 29 6
M  V30 33 1 29 28
M  V30 34 1 30 1
M  V30 35 1 31 1
M  V30 36 1 32 1
M  V30 37 1 33 3
M  V30 38 1 34 4
M  V30 39 1 35 5
M  V30 40 1 8 36 CFG=3
M  V30 41 1 37 9
M  V30 42 1 38 9
M  V30 43 1 39 10
M  V30 44 1 40 10
M  V30 45 1 41 12
M  V30 46 1 42 12
M  V30 47 1 43 13
M  V30 48 1 44 13
M  V30 49 1 45 15
M  V30 50 1 46 15
M  V30 51 1 47 16
M  V30 52 1 48 16
M  V30 53 1 49 18
M  V30 54 1 50 19
M  V30 55 1 51 20
M  V30 56 1 52 25
M  V30 57 1 53 25
M  V30 58 1 54 26
M  V30 59 1 55 26
M  V30 60 1 11 56 CFG=1
M  V30 END BOND
M  V30 END CTAB
M  END
>  <b_m_subgroup_collapsed>  (164) 
0

>  <r_i_docking_score>  (164) 
-8.9749074572762897

>  <s_m_subgroup_title>  (164) 
glide-dock_SP_D22_pv

>  <s_m_subgroupid>  (164) 
glide-dock_SP_D22_pv

>  <Molecule ChEMBL ID>  (164) 
CHEMBL5987244

>  <Standard Type>  (164) 
Ki

>  <Standard Value>  (164) 
10000.0

>  <label>  (164) 
0

$$$$
CHEMBL5790341
     RDKit          3D

  0  0  0  0  0  0  0  0  0  0999 V3000
M  V30 BEGIN CTAB
M  V30 COUNTS 60 64 0 0 1
M  V30 BEGIN ATOM
M  V30 1 O 4.004529 -0.627261 -13.846871 0
M  V30 2 C 4.935615 0.173107 -13.878131 0
M  V30 3 C 6.218949 -0.150616 -14.656199 0
M  V30 4 C 6.894673 1.109022 -15.237149 0
M  V30 5 C 6.908496 2.254246 -14.238590 0
M  V30 6 C 7.921936 3.231303 -14.255060 0
M  V30 7 C 7.940097 4.279104 -13.315255 0
M  V30 8 O 8.948184 5.206208 -13.461020 0
M  V30 9 C 9.275627 6.064036 -12.380844 0
M  V30 10 C 8.336013 7.280753 -12.245869 0
M  V30 11 C 8.895041 8.424229 -11.378098 0
M  V30 12 N 9.724336 7.913787 -10.254781 0 CFG=2 CHG=1
M  V30 13 C 8.996453 7.578260 -9.004930 0
M  V30 14 C 9.904275 6.762812 -8.060893 0
M  V30 15 C 11.282600 7.420067 -7.799117 0 CFG=2
M  V30 16 C 11.261749 8.535127 -6.746418 0
M  V30 17 N 11.686104 9.706831 -6.921306 0
M  V30 18 O 11.640821 10.429820 -5.709672 0
M  V30 19 C 10.969288 9.651572 -4.726915 0 CFG=2
M  V30 20 C 11.738086 9.624994 -3.414750 0
M  V30 21 C 12.230537 8.503358 -2.865099 0
M  V30 22 F 12.881112 8.572151 -1.692748 0
M  V30 23 C 12.085885 7.219439 -3.511907 0
M  V30 24 C 11.424105 7.100245 -4.674446 0
M  V30 25 C 10.745428 8.272552 -5.377784 0 CFG=2
M  V30 26 C 11.908419 7.862559 -9.144727 0
M  V30 27 C 10.943428 8.709500 -9.985650 0
M  V30 28 C 6.935958 4.314976 -12.316077 0
M  V30 29 C 5.900035 3.366820 -12.312289 0
M  V30 30 C 5.890152 2.328798 -13.264544 0
M  V30 31 N 4.886319 1.336879 -13.212071 0
M  V30 32 H 6.011736 -0.875472 -15.444703 0
M  V30 33 H 6.900501 -0.638373 -13.958367 0
M  V30 34 H 6.380090 1.431771 -16.141724 0
M  V30 35 H 7.917572 0.870258 -15.530124 0
M  V30 36 H 8.694664 3.184761 -15.008492 0
M  V30 37 H 10.286944 6.418485 -12.582064 0
M  V30 38 H 9.330268 5.494912 -11.451243 0
M  V30 39 H 7.382622 6.973104 -11.846905 0
M  V30 40 H 8.084884 7.672491 -13.224721 0
M  V30 41 H 8.094794 9.082033 -11.031050 0
M  V30 42 H 9.515623 9.033300 -12.033434 0
M  V30 43 H 8.127999 6.962324 -9.234541 0
M  V30 44 H 8.633569 8.486283 -8.520511 0
M  V30 45 H 10.077457 5.789388 -8.522290 0
M  V30 46 H 9.379013 6.540209 -7.132696 0
M  V30 47 H 11.934128 6.647882 -7.390625 0
M  V30 48 H 10.031517 10.172470 -4.545053 0
M  V30 49 H 11.872842 10.570987 -2.911076 0
M  V30 50 H 12.522042 6.342957 -3.053631 0
M  V30 51 H 11.325706 6.126680 -5.131737 0
M  V30 52 H 9.685600 8.052883 -5.448448 0
M  V30 53 H 12.852472 8.389532 -8.990960 0
M  V30 54 H 12.148715 6.979013 -9.736782 0
M  V30 55 H 11.445560 8.969822 -10.917925 0
M  V30 56 H 10.683290 9.647617 -9.492812 0
M  V30 57 H 6.920727 5.043057 -11.524446 0
M  V30 58 H 5.153371 3.416032 -11.537587 0
M  V30 59 H 4.073288 1.523491 -12.645607 0
M  V30 60 H 10.071191 7.029639 -10.593251 0
M  V30 END ATOM
M  V30 BEGIN BOND
M  V30 1 2 2 1
M  V30 2 1 3 2
M  V30 3 1 4 3
M  V30 4 1 5 4
M  V30 5 1 6 5
M  V30 6 2 7 6
M  V30 7 1 8 7
M  V30 8 1 9 8
M  V30 9 1 10 9
M  V30 10 1 11 10
M  V30 11 1 12 11
M  V30 12 1 13 12
M  V30 13 1 14 13
M  V30 14 1 15 14
M  V30 15 1 16 15
M  V30 16 2 17 16
M  V30 17 1 18 17
M  V30 18 1 19 18
M  V30 19 1 20 19
M  V30 20 2 21 20
M  V30 21 1 22 21
M  V30 22 1 23 21
M  V30 23 2 24 23
M  V30 24 1 25 16
M  V30 25 1 25 19
M  V30 26 1 25 24
M  V30 27 1 26 15
M  V30 28 1 27 12
M  V30 29 1 27 26
M  V30 30 1 28 7
M  V30 31 2 29 28
M  V30 32 2 30 5
M  V30 33 1 30 29
M  V30 34 1 31 2
M  V30 35 1 31 30
M  V30 36 1 32 3
M  V30 37 1 33 3
M  V30 38 1 34 4
M  V30 39 1 35 4
M  V30 40 1 36 6
M  V30 41 1 37 9
M  V30 42 1 38 9
M  V30 43 1 39 10
M  V30 44 1 40 10
M  V30 45 1 41 11
M  V30 46 1 42 11
M  V30 47 1 43 13
M  V30 48 1 44 13
M  V30 49 1 45 14
M  V30 50 1 46 14
M  V30 51 1 15 47 CFG=1
M  V30 52 1 19 48 CFG=1
M  V30 53 1 49 20
M  V30 54 1 50 23
M  V30 55 1 51 24
M  V30 56 1 25 52 CFG=3
M  V30 57 1 53 26
M  V30 58 1 54 26
M  V30 59 1 55 27
M  V30 60 1 56 27
M  V30 61 1 57 28
M  V30 62 1 58 29
M  V30 63 1 59 31
M  V30 64 1 12 60 CFG=3
M  V30 END BOND
M  V30 END CTAB
M  END
>  <b_m_subgroup_collapsed>  (165) 
0

>  <r_i_docking_score>  (165) 
-8.9748190579995608

>  <s_m_subgroup_title>  (165) 
glide-dock_SP_D22_pv

>  <s_m_subgroupid>  (165) 
glide-dock_SP_D22_pv

>  <Molecule ChEMBL ID>  (165) 
CHEMBL5790341

>  <Standard Type>  (165) 
Ki

>  <Standard Value>  (165) 
5.6

>  <label>  (165) 
1

$$$$
CHEMBL3102875
     RDKit          3D

  0  0  0  0  0  0  0  0  0  0999 V3000
M  V30 BEGIN CTAB
M  V30 COUNTS 57 60 0 0 1
M  V30 BEGIN ATOM
M  V30 1 C 11.498334 1.400427 -16.881929 0
M  V30 2 C 10.295901 0.774083 -16.178970 0
M  V30 3 O 10.086059 -0.431156 -16.314075 0
M  V30 4 C 9.418727 1.683638 -15.394741 0
M  V30 5 C 8.071141 1.332038 -15.164926 0
M  V30 6 C 7.231014 2.177621 -14.412712 0
M  V30 7 C 7.730111 3.372674 -13.846811 0
M  V30 8 C 9.088888 3.714841 -14.052993 0
M  V30 9 C 9.918260 2.880780 -14.830958 0
M  V30 10 C 9.679746 4.967250 -13.430861 0
M  V30 11 C 8.965408 5.365553 -12.126843 0 CFG=1
M  V30 12 C 9.580453 6.667775 -11.554137 0
M  V30 13 N 9.181223 7.009678 -10.158246 0 CFG=1 CHG=1
M  V30 14 C 9.637730 6.012636 -9.154018 0
M  V30 15 C 9.164267 6.366189 -7.734756 0
M  V30 16 C 9.541465 7.788711 -7.283998 0 CFG=1
M  V30 17 C 11.012528 7.891175 -6.873492 0
M  V30 18 O 11.899043 7.798267 -7.722055 0
M  V30 19 C 11.287670 8.076500 -5.433132 0
M  V30 20 C 11.287310 9.370097 -4.865808 0
M  V30 21 C 11.685929 9.551207 -3.524498 0
M  V30 22 C 12.087595 8.445725 -2.748635 0
M  V30 23 F 12.486380 8.622663 -1.467434 0
M  V30 24 C 12.084122 7.155524 -3.309889 0
M  V30 25 C 11.684877 6.972130 -4.647951 0
M  V30 26 C 9.166018 8.797668 -8.380987 0
M  V30 27 C 9.624759 8.383841 -9.796929 0
M  V30 28 C 7.444630 5.475600 -12.361078 0
M  V30 29 C 6.833429 4.223913 -13.011276 0
M  V30 30 O 5.641550 3.983256 -12.832165 0
M  V30 31 H 11.195938 2.287977 -17.436846 0
M  V30 32 H 12.262347 1.681196 -16.159063 0
M  V30 33 H 11.940696 0.693082 -17.581890 0
M  V30 34 H 7.671421 0.411933 -15.569298 0
M  V30 35 H 6.201203 1.887738 -14.256208 0
M  V30 36 H 10.952361 3.158906 -14.972929 0
M  V30 37 H 9.609987 5.767762 -14.168384 0
M  V30 38 H 10.742230 4.805829 -13.237835 0
M  V30 39 H 9.141611 4.541619 -11.435568 0
M  V30 40 H 9.312352 7.493420 -12.214644 0
M  V30 41 H 10.668550 6.603050 -11.583696 0
M  V30 42 H 9.247127 5.023165 -9.386610 0
M  V30 43 H 10.723985 5.935886 -9.181815 0
M  V30 44 H 9.576582 5.634226 -7.044558 0
M  V30 45 H 8.085526 6.250033 -7.675495 0
M  V30 46 H 8.957651 8.027071 -6.392495 0
M  V30 47 H 11.009055 10.230768 -5.458009 0
M  V30 48 H 11.689137 10.540008 -3.087317 0
M  V30 49 H 12.391162 6.307590 -2.715195 0
M  V30 50 H 11.710259 5.980422 -5.075776 0
M  V30 51 H 8.089162 8.939493 -8.370225 0
M  V30 52 H 9.578629 9.772092 -8.135251 0
M  V30 53 H 9.206861 9.089245 -10.515613 0
M  V30 54 H 10.709536 8.456423 -9.890300 0
M  V30 55 H 6.930415 5.658263 -11.417136 0
M  V30 56 H 7.226837 6.327437 -13.004075 0
M  V30 57 H 8.164545 7.042393 -10.134904 0
M  V30 END ATOM
M  V30 BEGIN BOND
M  V30 1 1 2 1
M  V30 2 2 3 2
M  V30 3 1 4 2
M  V30 4 1 5 4
M  V30 5 2 6 5
M  V30 6 1 7 6
M  V30 7 2 8 7
M  V30 8 2 9 4
M  V30 9 1 9 8
M  V30 10 1 10 8
M  V30 11 1 11 10
M  V30 12 1 12 11
M  V30 13 1 13 12
M  V30 14 1 14 13
M  V30 15 1 15 14
M  V30 16 1 16 15
M  V30 17 1 17 16
M  V30 18 2 18 17
M  V30 19 1 19 17
M  V30 20 1 20 19
M  V30 21 2 21 20
M  V30 22 1 22 21
M  V30 23 1 23 22
M  V30 24 2 24 22
M  V30 25 2 25 19
M  V30 26 1 25 24
M  V30 27 1 26 16
M  V30 28 1 27 13
M  V30 29 1 27 26
M  V30 30 1 28 11
M  V30 31 1 29 7
M  V30 32 1 29 28
M  V30 33 2 30 29
M  V30 34 1 31 1
M  V30 35 1 32 1
M  V30 36 1 33 1
M  V30 37 1 34 5
M  V30 38 1 35 6
M  V30 39 1 36 9
M  V30 40 1 37 10
M  V30 41 1 38 10
M  V30 42 1 11 39 CFG=1
M  V30 43 1 40 12
M  V30 44 1 41 12
M  V30 45 1 42 14
M  V30 46 1 43 14
M  V30 47 1 44 15
M  V30 48 1 45 15
M  V30 49 1 16 46 CFG=1
M  V30 50 1 47 20
M  V30 51 1 48 21
M  V30 52 1 49 24
M  V30 53 1 50 25
M  V30 54 1 51 26
M  V30 55 1 52 26
M  V30 56 1 53 27
M  V30 57 1 54 27
M  V30 58 1 55 28
M  V30 59 1 56 28
M  V30 60 1 13 57 CFG=3
M  V30 END BOND
M  V30 END CTAB
M  END
>  <b_m_subgroup_collapsed>  (166) 
0

>  <r_i_docking_score>  (166) 
-8.9740983916654695

>  <s_m_subgroup_title>  (166) 
glide-dock_SP_D22_pv

>  <s_m_subgroupid>  (166) 
glide-dock_SP_D22_pv

>  <Molecule ChEMBL ID>  (166) 
CHEMBL3102875

>  <Standard Type>  (166) 
Ki

>  <Standard Value>  (166) 
32.36

>  <label>  (166) 
1

$$$$
CHEMBL4288077
     RDKit          3D

  0  0  0  0  0  0  0  0  0  0999 V3000
M  V30 BEGIN CTAB
M  V30 COUNTS 62 65 0 0 1
M  V30 BEGIN ATOM
M  V30 1 C 12.305967 3.503614 -15.776814 0
M  V30 2 C 11.377876 4.714524 -15.646106 0 CFG=2
M  V30 3 C 11.313948 5.506420 -16.964159 0
M  V30 4 C 12.122672 6.654425 -17.148260 0
M  V30 5 C 12.099072 7.370924 -18.361479 0
M  V30 6 C 11.263023 6.949476 -19.412054 0
M  V30 7 F 11.225075 7.646561 -20.571484 0
M  V30 8 C 10.472968 5.797188 -19.256302 0
M  V30 9 C 10.508990 5.074524 -18.047319 0
M  V30 10 N 11.777140 5.530814 -14.516717 0
M  V30 11 C 10.802060 5.707605 -13.621319 0
M  V30 12 O 10.898470 6.445937 -12.646510 0
M  V30 13 N 9.735838 4.961926 -13.981018 0
M  V30 14 C 8.427763 4.793193 -13.300206 0
M  V30 15 C 8.108283 5.703849 -12.085446 0 CFG=1
M  V30 16 O 6.703969 5.772266 -11.930300 0
M  V30 17 C 8.702768 5.162437 -10.761633 0
M  V30 18 N 8.754603 6.177092 -9.678357 0 CHG=1
M  V30 19 C 8.966304 5.578413 -8.336001 0
M  V30 20 C 9.033096 6.664719 -7.239642 0
M  V30 21 N 10.102095 7.631898 -7.527855 0
M  V30 22 C 10.139481 8.691790 -6.518728 0
M  V30 23 C 10.922973 8.426515 -5.240180 0
M  V30 24 C 11.286119 9.541727 -4.452818 0
M  V30 25 C 11.994606 9.371730 -3.247903 0
M  V30 26 C 12.339814 8.080263 -2.813198 0
M  V30 27 C 11.991650 6.964305 -3.594161 0
M  V30 28 C 11.288136 7.131683 -4.804952 0
M  V30 29 C 9.749017 8.271586 -8.795033 0
M  V30 30 C 9.766912 7.234103 -9.918900 0
M  V30 31 C 10.002888 4.302688 -15.119892 0
M  V30 32 O 9.284525 3.465120 -15.665092 0
M  V30 33 H 11.964640 2.813145 -16.548542 0
M  V30 34 H 13.318415 3.812675 -16.032660 0
M  V30 35 H 12.348576 2.962053 -14.834688 0
M  V30 36 H 12.778207 7.001968 -16.363634 0
M  V30 37 H 12.709299 8.254550 -18.481836 0
M  V30 38 H 9.840803 5.464743 -20.067486 0
M  V30 39 H 9.906449 4.182055 -17.967342 0
M  V30 40 H 12.681485 5.976625 -14.456067 0
M  V30 41 H 8.306335 3.747119 -13.014052 0
M  V30 42 H 7.666875 4.972847 -14.062063 0
M  V30 43 H 8.421427 6.719308 -12.318245 0
M  V30 44 H 6.485935 6.475458 -11.315409 0
M  V30 45 H 8.105494 4.309999 -10.432809 0
M  V30 46 H 9.708234 4.771276 -10.921109 0
M  V30 47 H 8.146091 4.892569 -8.116248 0
M  V30 48 H 9.884742 4.990466 -8.335318 0
M  V30 49 H 8.085155 7.191586 -7.168741 0
M  V30 50 H 9.176971 6.180869 -6.275809 0
M  V30 51 H 10.598658 9.580997 -6.954796 0
M  V30 52 H 9.122157 8.973823 -6.246961 0
M  V30 53 H 11.015702 10.538438 -4.769856 0
M  V30 54 H 12.260513 10.229949 -2.648787 0
M  V30 55 H 12.880792 7.949636 -1.886253 0
M  V30 56 H 12.263443 5.972126 -3.263251 0
M  V30 57 H 11.054302 6.254272 -5.385561 0
M  V30 58 H 8.773463 8.759549 -8.735423 0
M  V30 59 H 10.478943 9.047349 -9.033694 0
M  V30 60 H 10.762008 6.793597 -10.003934 0
M  V30 61 H 9.565020 7.759082 -10.849771 0
M  V30 62 H 7.850121 6.645773 -9.659017 0
M  V30 END ATOM
M  V30 BEGIN BOND
M  V30 1 1 2 1 CFG=3
M  V30 2 1 3 2
M  V30 3 1 4 3
M  V30 4 2 5 4
M  V30 5 1 6 5
M  V30 6 1 7 6
M  V30 7 2 8 6
M  V30 8 2 9 3
M  V30 9 1 9 8
M  V30 10 1 10 2
M  V30 11 1 11 10
M  V30 12 2 12 11
M  V30 13 1 13 11
M  V30 14 1 14 13
M  V30 15 1 15 14
M  V30 16 1 16 15
M  V30 17 1 17 15
M  V30 18 1 18 17
M  V30 19 1 19 18
M  V30 20 1 20 19
M  V30 21 1 21 20
M  V30 22 1 22 21
M  V30 23 1 23 22
M  V30 24 2 24 23
M  V30 25 1 25 24
M  V30 26 2 26 25
M  V30 27 1 27 26
M  V30 28 1 28 23
M  V30 29 2 28 27
M  V30 30 1 29 21
M  V30 31 1 30 18
M  V30 32 1 30 29
M  V30 33 1 31 2
M  V30 34 1 31 13
M  V30 35 2 32 31
M  V30 36 1 33 1
M  V30 37 1 34 1
M  V30 38 1 35 1
M  V30 39 1 36 4
M  V30 40 1 37 5
M  V30 41 1 38 8
M  V30 42 1 39 9
M  V30 43 1 40 10
M  V30 44 1 41 14
M  V30 45 1 42 14
M  V30 46 1 15 43 CFG=3
M  V30 47 1 44 16
M  V30 48 1 45 17
M  V30 49 1 46 17
M  V30 50 1 47 19
M  V30 51 1 48 19
M  V30 52 1 49 20
M  V30 53 1 50 20
M  V30 54 1 51 22
M  V30 55 1 52 22
M  V30 56 1 53 24
M  V30 57 1 54 25
M  V30 58 1 55 26
M  V30 59 1 56 27
M  V30 60 1 57 28
M  V30 61 1 58 29
M  V30 62 1 59 29
M  V30 63 1 60 30
M  V30 64 1 61 30
M  V30 65 1 62 18
M  V30 END BOND
M  V30 END CTAB
M  END
>  <b_m_subgroup_collapsed>  (167) 
0

>  <r_i_docking_score>  (167) 
-8.9690992737096202

>  <s_m_subgroup_title>  (167) 
glide-dock_SP_D22_pv

>  <s_m_subgroupid>  (167) 
glide-dock_SP_D22_pv

>  <Molecule ChEMBL ID>  (167) 
CHEMBL4288077

>  <Standard Type>  (167) 
Ki

>  <Standard Value>  (167) 
20030.0

>  <label>  (167) 
0

$$$$
CHEMBL5949172
     RDKit          3D

  0  0  0  0  0  0  0  0  0  0999 V3000
M  V30 BEGIN CTAB
M  V30 COUNTS 51 55 0 0 1
M  V30 BEGIN ATOM
M  V30 1 C 12.472177 9.104983 -1.058840 0
M  V30 2 N 12.168633 8.858765 -2.434602 0
M  V30 3 C 11.795143 9.766066 -3.410804 0
M  V30 4 C 11.607760 8.997515 -4.513794 0
M  V30 5 C 11.818820 7.669992 -4.119663 0
M  V30 6 N 12.182631 7.573478 -2.860118 0
M  V30 7 C 11.560839 6.510506 -4.996829 0
M  V30 8 C 10.628568 6.938379 -6.142987 0
M  V30 9 N 10.848521 8.309837 -6.671727 0
M  V30 10 C 10.628382 8.401325 -8.113455 0
M  V30 11 C 9.135649 8.188427 -8.451260 0
M  V30 12 N 8.886140 7.890158 -9.876896 0 CFG=1 CHG=1
M  V30 13 C 9.170018 8.950038 -10.851437 0
M  V30 14 C 9.161618 8.224309 -12.194228 0
M  V30 15 C 9.833943 6.893512 -11.832952 0 CFG=2
M  V30 16 C 9.595856 5.731211 -12.760919 0
M  V30 17 N 10.609388 5.204467 -13.446347 0
M  V30 18 O 10.102839 4.075450 -14.148406 0
M  V30 19 C 8.750861 3.927078 -13.884491 0
M  V30 20 C 7.815096 2.971563 -14.306616 0
M  V30 21 C 6.487016 3.104071 -13.846938 0
M  V30 22 C 6.131883 4.171417 -12.986760 0
M  V30 23 C 7.096277 5.118053 -12.570051 0
M  V30 24 C 8.427042 4.981806 -13.028625 0
M  V30 25 C 9.382826 6.600751 -10.395995 0
M  V30 26 C 11.218660 9.368739 -5.901296 0
M  V30 27 O 11.286447 10.537784 -6.276546 0
M  V30 28 H 12.486184 10.172812 -0.870853 0
M  V30 29 H 11.686172 8.644428 -0.462842 0
M  V30 30 H 13.444025 8.678006 -0.809316 0
M  V30 31 H 11.686012 10.821946 -3.220843 0
M  V30 32 H 12.485338 6.099582 -5.393418 0
M  V30 33 H 11.074539 5.741899 -4.410162 0
M  V30 34 H 9.607039 6.923622 -5.759536 0
M  V30 35 H 10.661547 6.181723 -6.928485 0
M  V30 36 H 11.265594 7.659780 -8.593843 0
M  V30 37 H 10.966834 9.362697 -8.502151 0
M  V30 38 H 8.559505 9.070099 -8.164498 0
M  V30 39 H 8.704861 7.359813 -7.887975 0
M  V30 40 H 10.159449 9.361561 -10.648202 0
M  V30 41 H 8.432869 9.752113 -10.797833 0
M  V30 42 H 9.673668 8.802256 -12.962027 0
M  V30 43 H 8.131782 8.060855 -12.516913 0
M  V30 44 H 10.907068 7.093308 -11.791287 0
M  V30 45 H 8.104155 2.162235 -14.960376 0
M  V30 46 H 5.739832 2.385165 -14.148449 0
M  V30 47 H 5.113843 4.259304 -12.636139 0
M  V30 48 H 6.811550 5.924483 -11.908585 0
M  V30 49 H 8.550268 5.899224 -10.349216 0
M  V30 50 H 10.192233 6.163708 -9.811755 0
M  V30 51 H 7.857636 7.772529 -9.960106 0
M  V30 END ATOM
M  V30 BEGIN BOND
M  V30 1 1 2 1
M  V30 2 1 3 2
M  V30 3 2 4 3
M  V30 4 1 5 4
M  V30 5 1 6 2
M  V30 6 2 6 5
M  V30 7 1 7 5
M  V30 8 1 8 7
M  V30 9 1 9 8
M  V30 10 1 10 9
M  V30 11 1 11 10
M  V30 12 1 12 11
M  V30 13 1 13 12
M  V30 14 1 14 13
M  V30 15 1 15 14
M  V30 16 1 16 15
M  V30 17 2 17 16
M  V30 18 1 18 17
M  V30 19 1 19 18
M  V30 20 2 20 19
M  V30 21 1 21 20
M  V30 22 2 22 21
M  V30 23 1 23 22
M  V30 24 1 24 16
M  V30 25 1 24 19
M  V30 26 2 24 23
M  V30 27 1 25 12
M  V30 28 1 25 15
M  V30 29 1 26 4
M  V30 30 1 26 9
M  V30 31 2 27 26
M  V30 32 1 28 1
M  V30 33 1 29 1
M  V30 34 1 30 1
M  V30 35 1 31 3
M  V30 36 1 32 7
M  V30 37 1 33 7
M  V30 38 1 34 8
M  V30 39 1 35 8
M  V30 40 1 36 10
M  V30 41 1 37 10
M  V30 42 1 38 11
M  V30 43 1 39 11
M  V30 44 1 40 13
M  V30 45 1 41 13
M  V30 46 1 42 14
M  V30 47 1 43 14
M  V30 48 1 15 44 CFG=1
M  V30 49 1 45 20
M  V30 50 1 46 21
M  V30 51 1 47 22
M  V30 52 1 48 23
M  V30 53 1 49 25
M  V30 54 1 50 25
M  V30 55 1 12 51 CFG=1
M  V30 END BOND
M  V30 END CTAB
M  END
>  <b_m_subgroup_collapsed>  (168) 
0

>  <r_i_docking_score>  (168) 
-8.9673454639819106

>  <s_m_subgroup_title>  (168) 
glide-dock_SP_D22_pv

>  <s_m_subgroupid>  (168) 
glide-dock_SP_D22_pv

>  <Molecule ChEMBL ID>  (168) 
CHEMBL5949172

>  <Standard Type>  (168) 
Ki

>  <Standard Value>  (168) 
10000.0

>  <label>  (168) 
0

$$$$
CHEMBL3676919
     RDKit          3D

  0  0  0  0  0  0  0  0  0  0999 V3000
M  V30 BEGIN CTAB
M  V30 COUNTS 73 78 0 0 1
M  V30 BEGIN ATOM
M  V30 1 O 8.485886 2.850126 -17.847443 0
M  V30 2 C 8.990973 2.049807 -17.060650 0
M  V30 3 C 8.725788 0.554845 -17.205189 0
M  V30 4 C 7.510921 0.172356 -16.373482 0
M  V30 5 C 7.576880 0.172269 -14.951537 0
M  V30 6 C 6.459418 -0.204927 -14.172534 0
M  V30 7 C 5.289009 -0.580743 -14.849936 0
M  V30 8 C 5.222188 -0.584832 -16.228212 0
M  V30 9 C 6.313983 -0.210223 -17.024599 0
M  V30 10 O 3.988388 -0.979639 -16.624502 0
M  V30 11 C 3.265293 -1.204011 -15.446861 0
M  V30 12 O 4.095827 -0.973964 -14.336829 0
M  V30 13 N 9.733661 2.404500 -16.004519 0
M  V30 14 C 9.775989 3.732628 -15.415484 0 CFG=1
M  V30 15 C 8.748761 3.780305 -14.264637 0
M  V30 16 C 8.820806 5.095814 -13.483574 0
M  V30 17 C 10.247128 5.333970 -12.950864 0 CFG=2
M  V30 18 C 10.361184 6.605715 -12.091664 0
M  V30 19 C 9.713783 6.416676 -10.706578 0
M  V30 20 N 9.898542 7.558624 -9.774361 0 CFG=2 CHG=1
M  V30 21 C 11.315358 7.821700 -9.409771 0
M  V30 22 C 11.475795 9.005460 -8.445136 0
M  V30 23 C 10.550090 8.932754 -7.213364 0 CFG=2
M  V30 24 C 11.071926 8.028258 -6.127375 0
M  V30 25 C 11.254985 6.662540 -6.147832 0
M  V30 26 O 11.686091 6.172350 -4.953350 0
M  V30 27 C 11.858139 7.248779 -4.124051 0
M  V30 28 C 12.328701 7.229542 -2.802459 0
M  V30 29 C 12.453048 8.453344 -2.124238 0
M  V30 30 C 12.081337 9.644652 -2.776606 0
M  V30 31 C 11.596406 9.640195 -4.098592 0
M  V30 32 C 11.490465 8.430707 -4.813884 0
M  V30 33 C 9.116020 8.576793 -7.640116 0
M  V30 34 C 9.088945 7.346038 -8.554772 0
M  V30 35 C 11.256920 5.335410 -14.115797 0
M  V30 36 C 11.198191 4.017574 -14.902588 0
M  V30 37 H 9.590927 -0.022320 -16.877497 0
M  V30 38 H 8.563154 0.312563 -18.255842 0
M  V30 39 H 8.491635 0.450668 -14.450048 0
M  V30 40 H 6.505724 -0.209914 -13.093472 0
M  V30 41 H 6.235154 -0.224083 -18.101469 0
M  V30 42 H 2.896061 -2.227648 -15.446932 0
M  V30 43 H 2.419924 -0.518653 -15.406947 0
M  V30 44 H 10.133334 1.662136 -15.450289 0
M  V30 45 H 9.517611 4.490569 -16.158382 0
M  V30 46 H 7.737909 3.636057 -14.646688 0
M  V30 47 H 8.928394 2.953622 -13.574746 0
M  V30 48 H 8.505870 5.917719 -14.126072 0
M  V30 49 H 8.101048 5.054468 -12.666118 0
M  V30 50 H 10.496392 4.483563 -12.314691 0
M  V30 51 H 11.419768 6.834125 -11.985822 0
M  V30 52 H 9.918053 7.457567 -12.608018 0
M  V30 53 H 8.642703 6.266328 -10.846464 0
M  V30 54 H 10.086003 5.508174 -10.231796 0
M  V30 55 H 11.694722 6.931997 -8.931168 0
M  V30 56 H 11.930549 8.010833 -10.286431 0
M  V30 57 H 12.515445 9.082290 -8.124320 0
M  V30 58 H 11.275063 9.916639 -9.007260 0
M  V30 59 H 10.509626 9.938559 -6.794651 0
M  V30 60 H 11.111857 5.894328 -6.890801 0
M  V30 61 H 12.587933 6.294916 -2.325870 0
M  V30 62 H 12.807276 8.482838 -1.103892 0
M  V30 63 H 12.121475 10.578519 -2.246560 0
M  V30 64 H 11.300361 10.568094 -4.565052 0
M  V30 65 H 8.483494 8.417963 -6.765478 0
M  V30 66 H 8.675093 9.414407 -8.182398 0
M  V30 67 H 8.086023 7.113323 -8.855370 0
M  V30 68 H 9.410399 6.450099 -8.033068 0
M  V30 69 H 11.054280 6.172006 -14.784380 0
M  V30 70 H 12.270321 5.479373 -13.739793 0
M  V30 71 H 11.530907 3.202403 -14.256718 0
M  V30 72 H 11.897112 4.052189 -15.739228 0
M  V30 73 H 9.523769 8.378916 -10.230955 0
M  V30 END ATOM
M  V30 BEGIN BOND
M  V30 1 2 2 1
M  V30 2 1 3 2
M  V30 3 1 4 3
M  V30 4 1 5 4
M  V30 5 2 6 5
M  V30 6 1 7 6
M  V30 7 2 8 7
M  V30 8 2 9 4
M  V30 9 1 9 8
M  V30 10 1 10 8
M  V30 11 1 11 10
M  V30 12 1 12 7
M  V30 13 1 12 11
M  V30 14 1 13 2
M  V30 15 1 14 13
M  V30 16 1 15 14
M  V30 17 1 16 15
M  V30 18 1 17 16
M  V30 19 1 18 17
M  V30 20 1 19 18
M  V30 21 1 20 19
M  V30 22 1 21 20
M  V30 23 1 22 21
M  V30 24 1 23 22
M  V30 25 1 24 23
M  V30 26 2 25 24
M  V30 27 1 26 25
M  V30 28 1 27 26
M  V30 29 2 28 27
M  V30 30 1 29 28
M  V30 31 2 30 29
M  V30 32 1 31 30
M  V30 33 1 32 24
M  V30 34 1 32 27
M  V30 35 2 32 31
M  V30 36 1 33 23
M  V30 37 1 34 20
M  V30 38 1 34 33
M  V30 39 1 35 17
M  V30 40 1 36 14
M  V30 41 1 36 35
M  V30 42 1 37 3
M  V30 43 1 38 3
M  V30 44 1 39 5
M  V30 45 1 40 6
M  V30 46 1 41 9
M  V30 47 1 42 11
M  V30 48 1 43 11
M  V30 49 1 44 13
M  V30 50 1 14 45 CFG=3
M  V30 51 1 46 15
M  V30 52 1 47 15
M  V30 53 1 48 16
M  V30 54 1 49 16
M  V30 55 1 17 50 CFG=1
M  V30 56 1 51 18
M  V30 57 1 52 18
M  V30 58 1 53 19
M  V30 59 1 54 19
M  V30 60 1 55 21
M  V30 61 1 56 21
M  V30 62 1 57 22
M  V30 63 1 58 22
M  V30 64 1 23 59 CFG=1
M  V30 65 1 60 25
M  V30 66 1 61 28
M  V30 67 1 62 29
M  V30 68 1 63 30
M  V30 69 1 64 31
M  V30 70 1 65 33
M  V30 71 1 66 33
M  V30 72 1 67 34
M  V30 73 1 68 34
M  V30 74 1 69 35
M  V30 75 1 70 35
M  V30 76 1 71 36
M  V30 77 1 72 36
M  V30 78 1 20 73 CFG=3
M  V30 END BOND
M  V30 END CTAB
M  END
>  <b_m_subgroup_collapsed>  (169) 
0

>  <r_i_docking_score>  (169) 
-8.9580817863631506

>  <s_m_subgroup_title>  (169) 
glide-dock_SP_D22_pv

>  <s_m_subgroupid>  (169) 
glide-dock_SP_D22_pv

>  <Molecule ChEMBL ID>  (169) 
CHEMBL3676919

>  <Standard Type>  (169) 
Ki

>  <Standard Value>  (169) 
92.47

>  <label>  (169) 
1

$$$$
CHEMBL5208845
     RDKit          3D

  0  0  0  0  0  0  0  0  0  0999 V3000
M  V30 BEGIN CTAB
M  V30 COUNTS 46 47 0 0 1
M  V30 BEGIN ATOM
M  V30 1 C 12.124000 8.981403 -7.495484 0
M  V30 2 C 10.888199 8.848652 -6.586856 0 CFG=1
M  V30 3 N 9.803099 8.089820 -7.223643 0
M  V30 4 C 9.928246 6.933965 -7.895531 0
M  V30 5 O 10.886021 6.172221 -7.797930 0
M  V30 6 N 8.886036 6.704697 -8.855984 0 CHG=1
M  V30 7 C 8.844554 5.694651 -9.755589 0
M  V30 8 N 9.685950 4.647055 -9.746718 0
M  V30 9 N 7.910274 5.769313 -10.711618 0
M  V30 10 C 7.617735 4.807442 -11.777600 0
M  V30 11 C 6.207637 5.059545 -12.323548 0
M  V30 12 C 5.871676 4.269608 -13.594597 0
M  V30 13 C 5.909104 2.782619 -13.446768 0
M  V30 14 N 5.107028 2.133364 -12.599966 0
M  V30 15 N 5.286232 0.759509 -12.647565 0
M  V30 16 C 6.170352 0.402936 -13.578903 0
M  V30 17 N 6.486137 -0.914961 -13.847306 0
M  V30 18 S 6.943892 1.737828 -14.422510 0
M  V30 19 C 11.281161 8.442787 -5.167296 0
M  V30 20 C 11.685182 9.461698 -4.278017 0
M  V30 21 C 12.086305 9.158527 -2.964787 0
M  V30 22 C 12.091302 7.823951 -2.524020 0
M  V30 23 C 11.690075 6.797432 -3.399624 0
M  V30 24 C 11.286497 7.101355 -4.716249 0
M  V30 25 H 12.855835 9.655115 -7.046910 0
M  V30 26 H 12.623106 8.030404 -7.661994 0
M  V30 27 H 11.849783 9.372519 -8.475989 0
M  V30 28 H 10.479188 9.855753 -6.500051 0
M  V30 29 H 8.928487 8.587147 -7.320189 0
M  V30 30 H 10.419351 4.600085 -9.051306 0
M  V30 31 H 9.611439 3.919517 -10.441788 0
M  V30 32 H 7.254212 6.556909 -10.646988 0
M  V30 33 H 8.364247 4.914875 -12.564655 0
M  V30 34 H 7.687278 3.791543 -11.392052 0
M  V30 35 H 5.473078 4.822776 -11.552456 0
M  V30 36 H 6.085386 6.124380 -12.535563 0
M  V30 37 H 4.888281 4.558505 -13.963613 0
M  V30 38 H 6.589573 4.555846 -14.358565 0
M  V30 39 H 6.082513 -1.665403 -13.304289 0
M  V30 40 H 7.093781 -1.190742 -14.609379 0
M  V30 41 H 11.685295 10.490084 -4.605509 0
M  V30 42 H 12.392014 9.950381 -2.295957 0
M  V30 43 H 12.405919 7.590685 -1.518272 0
M  V30 44 H 11.690160 5.772801 -3.057915 0
M  V30 45 H 10.984226 6.289350 -5.357457 0
M  V30 46 H 8.100342 7.339954 -8.951515 0
M  V30 END ATOM
M  V30 BEGIN BOND
M  V30 1 1 2 1
M  V30 2 1 3 2
M  V30 3 1 4 3
M  V30 4 2 5 4
M  V30 5 1 6 4
M  V30 6 2 7 6
M  V30 7 1 8 7
M  V30 8 1 9 7
M  V30 9 1 10 9
M  V30 10 1 11 10
M  V30 11 1 12 11
M  V30 12 1 13 12
M  V30 13 2 14 13
M  V30 14 1 15 14
M  V30 15 2 16 15
M  V30 16 1 17 16
M  V30 17 1 18 13
M  V30 18 1 18 16
M  V30 19 1 19 2
M  V30 20 2 20 19
M  V30 21 1 21 20
M  V30 22 2 22 21
M  V30 23 1 23 22
M  V30 24 1 24 19
M  V30 25 2 24 23
M  V30 26 1 25 1
M  V30 27 1 26 1
M  V30 28 1 27 1
M  V30 29 1 2 28 CFG=1
M  V30 30 1 29 3
M  V30 31 1 30 8
M  V30 32 1 31 8
M  V30 33 1 32 9
M  V30 34 1 33 10
M  V30 35 1 34 10
M  V30 36 1 35 11
M  V30 37 1 36 11
M  V30 38 1 37 12
M  V30 39 1 38 12
M  V30 40 1 39 17
M  V30 41 1 40 17
M  V30 42 1 41 20
M  V30 43 1 42 21
M  V30 44 1 43 22
M  V30 45 1 44 23
M  V30 46 1 45 24
M  V30 47 1 46 6
M  V30 END BOND
M  V30 END CTAB
M  END
>  <b_m_subgroup_collapsed>  (170) 
0

>  <r_i_docking_score>  (170) 
-8.9559998788853292

>  <s_m_subgroup_title>  (170) 
glide-dock_SP_D22_pv

>  <s_m_subgroupid>  (170) 
glide-dock_SP_D22_pv

>  <Molecule ChEMBL ID>  (170) 
CHEMBL5208845

>  <Standard Type>  (170) 
Ki

>  <Standard Value>  (170) 
10000.0

>  <label>  (170) 
0

$$$$
CHEMBL246232
     RDKit          3D

  0  0  0  0  0  0  0  0  0  0999 V3000
M  V30 BEGIN CTAB
M  V30 COUNTS 51 54 0 0 1
M  V30 BEGIN ATOM
M  V30 1 N 6.761395 7.653141 -12.646865 0 CHG=1
M  V30 2 C 7.710015 6.526976 -12.749270 0
M  V30 3 C 8.914542 6.487257 -11.742663 0 CFG=1
M  V30 4 C 10.005435 5.729019 -12.530645 0
M  V30 5 C 9.759960 4.393549 -12.940102 0
M  V30 6 C 10.561916 3.776320 -13.917557 0
M  V30 7 C 11.630374 4.482276 -14.496133 0
M  V30 8 Cl 12.486021 3.809858 -15.832589 0
M  V30 9 C 11.956090 5.765319 -14.023768 0
M  V30 10 C 11.152820 6.384049 -13.046865 0
M  V30 11 C 9.344725 7.903436 -11.247829 0
M  V30 12 C 10.415921 7.881279 -10.128010 0
M  V30 13 N 10.011399 7.064169 -8.945752 0 CFG=2 CHG=1
M  V30 14 C 11.078380 6.992948 -7.901514 0
M  V30 15 C 11.121875 8.092896 -6.877772 0
M  V30 16 C 11.243956 9.437357 -7.109270 0
M  V30 17 N 11.399786 10.107447 -5.909237 0
M  V30 18 C 11.486198 9.212089 -4.866584 0
M  V30 19 C 11.755374 9.378756 -3.495440 0
M  V30 20 C 11.876639 8.246724 -2.671529 0
M  V30 21 C 11.686028 6.965331 -3.219715 0
M  V30 22 C 11.378674 6.810622 -4.588142 0
M  V30 23 C 11.286022 7.926631 -5.453270 0
M  V30 24 C 9.611761 5.695443 -9.372078 0
M  V30 25 C 8.523748 5.708872 -10.456851 0
M  V30 26 H 5.932487 7.478329 -13.194755 0
M  V30 27 H 6.486023 7.771399 -11.652015 0
M  V30 28 H 8.086020 6.572314 -13.772131 0
M  V30 29 H 7.142822 5.596859 -12.691092 0
M  V30 30 H 8.897545 3.851140 -12.583018 0
M  V30 31 H 10.318316 2.782889 -14.265841 0
M  V30 32 H 12.788698 6.302254 -14.455370 0
M  V30 33 H 11.397602 7.400760 -12.787946 0
M  V30 34 H 8.486024 8.426483 -10.830079 0
M  V30 35 H 9.669182 8.529552 -12.079095 0
M  V30 36 H 10.611034 8.905828 -9.818487 0
M  V30 37 H 11.358774 7.498735 -10.518896 0
M  V30 38 H 12.047170 6.972326 -8.393971 0
M  V30 39 H 11.002977 6.040906 -7.374191 0
M  V30 40 H 11.285763 9.982716 -8.037921 0
M  V30 41 H 11.531520 11.106840 -5.842892 0
M  V30 42 H 11.901614 10.363540 -3.075051 0
M  V30 43 H 12.099835 8.363321 -1.620615 0
M  V30 44 H 11.766875 6.092593 -2.586790 0
M  V30 45 H 11.250805 5.813704 -4.982150 0
M  V30 46 H 10.485862 5.153453 -9.729174 0
M  V30 47 H 9.234896 5.145076 -8.508136 0
M  V30 48 H 7.659359 6.172325 -10.001439 0
M  V30 49 H 8.212218 4.688023 -10.675546 0
M  V30 50 H 7.203838 8.508266 -12.945616 0
M  V30 51 H 9.192260 7.486057 -8.526206 0
M  V30 END ATOM
M  V30 BEGIN BOND
M  V30 1 1 2 1
M  V30 2 1 3 2 CFG=3
M  V30 3 1 4 3
M  V30 4 1 5 4
M  V30 5 2 6 5
M  V30 6 1 7 6
M  V30 7 1 8 7
M  V30 8 2 9 7
M  V30 9 2 10 4
M  V30 10 1 10 9
M  V30 11 1 11 3
M  V30 12 1 12 11
M  V30 13 1 13 12
M  V30 14 1 14 13
M  V30 15 1 15 14
M  V30 16 2 16 15
M  V30 17 1 17 16
M  V30 18 1 18 17
M  V30 19 2 19 18
M  V30 20 1 20 19
M  V30 21 2 21 20
M  V30 22 1 22 21
M  V30 23 1 23 15
M  V30 24 1 23 18
M  V30 25 2 23 22
M  V30 26 1 24 13
M  V30 27 1 25 3
M  V30 28 1 25 24
M  V30 29 1 26 1
M  V30 30 1 27 1
M  V30 31 1 28 2
M  V30 32 1 29 2
M  V30 33 1 30 5
M  V30 34 1 31 6
M  V30 35 1 32 9
M  V30 36 1 33 10
M  V30 37 1 34 11
M  V30 38 1 35 11
M  V30 39 1 36 12
M  V30 40 1 37 12
M  V30 41 1 38 14
M  V30 42 1 39 14
M  V30 43 1 40 16
M  V30 44 1 41 17
M  V30 45 1 42 19
M  V30 46 1 43 20
M  V30 47 1 44 21
M  V30 48 1 45 22
M  V30 49 1 46 24
M  V30 50 1 47 24
M  V30 51 1 48 25
M  V30 52 1 49 25
M  V30 53 1 50 1
M  V30 54 1 13 51 CFG=1
M  V30 END BOND
M  V30 END CTAB
M  END
>  <b_m_subgroup_collapsed>  (171) 
0

>  <r_i_docking_score>  (171) 
-8.9502236273327807

>  <s_m_subgroup_title>  (171) 
glide-dock_SP_D22_pv

>  <s_m_subgroupid>  (171) 
glide-dock_SP_D22_pv

>  <Molecule ChEMBL ID>  (171) 
CHEMBL246232

>  <Standard Type>  (171) 
Ki

>  <Standard Value>  (171) 
10000.0

>  <label>  (171) 
0

$$$$
CHEMBL4590085
     RDKit          3D

  0  0  0  0  0  0  0  0  0  0999 V3000
M  V30 BEGIN CTAB
M  V30 COUNTS 50 52 0 0 1
M  V30 BEGIN ATOM
M  V30 1 O 11.603821 8.378920 -7.621702 0
M  V30 2 C 10.837170 8.249002 -6.669872 0
M  V30 3 C 9.334612 8.089912 -6.901146 0
M  V30 4 C 8.901457 6.614928 -6.930829 0
M  V30 5 C 9.522899 5.761598 -8.053206 0
M  V30 6 N 8.972877 6.102995 -9.386468 0 CFG=2 CHG=1
M  V30 7 C 8.618026 4.901456 -10.174810 0
M  V30 8 C 7.752140 5.317214 -11.360956 0
M  V30 9 C 8.493963 6.308280 -12.284935 0 CFG=2
M  V30 10 O 7.471316 6.952558 -13.006091 0
M  V30 11 C 9.441219 5.556158 -13.235805 0
M  V30 12 C 8.888713 4.642160 -14.163682 0
M  V30 13 C 9.705004 3.957641 -15.083307 0
M  V30 14 C 11.092184 4.182966 -15.095156 0
M  V30 15 Cl 12.085429 3.367483 -16.245720 0
M  V30 16 C 11.661189 5.086262 -14.178752 0
M  V30 17 C 10.842345 5.769700 -13.257418 0
M  V30 18 C 9.152796 7.459911 -11.472437 0
M  V30 19 C 9.850730 6.998389 -10.182755 0
M  V30 20 C 11.286102 8.213792 -5.268412 0
M  V30 21 C 11.613880 6.988200 -4.646537 0
M  V30 22 C 12.086104 6.973537 -3.319064 0
M  V30 23 C 12.244980 8.183659 -2.618099 0
M  V30 24 C 11.933596 9.402712 -3.247761 0
M  V30 25 F 12.086050 10.568375 -2.583811 0
M  V30 26 C 11.454426 9.423235 -4.568458 0
M  V30 27 F 11.149672 10.607537 -5.153909 0
M  V30 28 H 9.046520 8.597215 -7.821009 0
M  V30 29 H 8.807317 8.603975 -6.098386 0
M  V30 30 H 7.815690 6.555368 -6.984520 0
M  V30 31 H 9.154207 6.172369 -5.968342 0
M  V30 32 H 9.280392 4.721637 -7.839493 0
M  V30 33 H 10.613268 5.800499 -8.052048 0
M  V30 34 H 8.070460 4.187947 -9.561655 0
M  V30 35 H 9.520679 4.387836 -10.511430 0
M  V30 36 H 6.843580 5.772483 -10.968180 0
M  V30 37 H 7.408563 4.437039 -11.904293 0
M  V30 38 H 6.892152 7.367184 -12.376936 0
M  V30 39 H 7.821817 4.474667 -14.187723 0
M  V30 40 H 9.263110 3.269112 -15.788062 0
M  V30 41 H 12.726580 5.266834 -14.189872 0
M  V30 42 H 11.319318 6.469768 -12.591415 0
M  V30 43 H 9.823311 8.051271 -12.096066 0
M  V30 44 H 8.397494 8.179405 -11.161922 0
M  V30 45 H 10.112182 7.883204 -9.609488 0
M  V30 46 H 10.788797 6.492244 -10.403807 0
M  V30 47 H 11.507830 6.056434 -5.182968 0
M  V30 48 H 12.325956 6.034858 -2.840590 0
M  V30 49 H 12.606047 8.180867 -1.600075 0
M  V30 50 H 8.101530 6.600152 -9.225853 0
M  V30 END ATOM
M  V30 BEGIN BOND
M  V30 1 2 2 1
M  V30 2 1 3 2
M  V30 3 1 4 3
M  V30 4 1 5 4
M  V30 5 1 6 5
M  V30 6 1 7 6
M  V30 7 1 8 7
M  V30 8 1 9 8
M  V30 9 1 9 10 CFG=3
M  V30 10 1 11 9
M  V30 11 1 12 11
M  V30 12 2 13 12
M  V30 13 1 14 13
M  V30 14 1 15 14
M  V30 15 2 16 14
M  V30 16 2 17 11
M  V30 17 1 17 16
M  V30 18 1 18 9
M  V30 19 1 19 6
M  V30 20 1 19 18
M  V30 21 1 20 2
M  V30 22 2 21 20
M  V30 23 1 22 21
M  V30 24 2 23 22
M  V30 25 1 24 23
M  V30 26 1 25 24
M  V30 27 1 26 20
M  V30 28 2 26 24
M  V30 29 1 27 26
M  V30 30 1 28 3
M  V30 31 1 29 3
M  V30 32 1 30 4
M  V30 33 1 31 4
M  V30 34 1 32 5
M  V30 35 1 33 5
M  V30 36 1 34 7
M  V30 37 1 35 7
M  V30 38 1 36 8
M  V30 39 1 37 8
M  V30 40 1 38 10
M  V30 41 1 39 12
M  V30 42 1 40 13
M  V30 43 1 41 16
M  V30 44 1 42 17
M  V30 45 1 43 18
M  V30 46 1 44 18
M  V30 47 1 45 19
M  V30 48 1 46 19
M  V30 49 1 47 21
M  V30 50 1 48 22
M  V30 51 1 49 23
M  V30 52 1 6 50 CFG=1
M  V30 END BOND
M  V30 END CTAB
M  END
>  <b_m_subgroup_collapsed>  (172) 
0

>  <r_i_docking_score>  (172) 
-8.9428493622709908

>  <s_m_subgroup_title>  (172) 
glide-dock_SP_D22_pv

>  <s_m_subgroupid>  (172) 
glide-dock_SP_D22_pv

>  <Molecule ChEMBL ID>  (172) 
CHEMBL4590085

>  <Standard Type>  (172) 
Ki

>  <Standard Value>  (172) 
46.77

>  <label>  (172) 
1

$$$$
CHEMBL461627
     RDKit          3D

  0  0  0  0  0  0  0  0  0  0999 V3000
M  V30 BEGIN CTAB
M  V30 COUNTS 55 59 0 0 1
M  V30 BEGIN ATOM
M  V30 1 C 5.829529 -0.847050 -16.075708 0
M  V30 2 O 6.686023 0.235652 -15.749640 0
M  V30 3 C 6.485156 0.900510 -14.601043 0
M  V30 4 O 5.651826 0.584031 -13.749418 0
M  V30 5 C 7.336394 2.102706 -14.469302 0
M  V30 6 C 8.551940 2.228408 -15.091734 0
M  V30 7 O 9.152219 3.410064 -14.772202 0
M  V30 8 C 8.293845 4.042167 -13.930647 0
M  V30 9 C 7.156658 3.319382 -13.743921 0
M  V30 10 C 6.086629 3.882906 -12.894838 0
M  V30 11 O 5.050886 3.274537 -12.647201 0
M  V30 12 C 6.298895 5.317578 -12.372987 0
M  V30 13 C 7.787293 5.731722 -12.164653 0 CFG=1
M  V30 14 C 8.369622 5.135447 -10.855138 0
M  V30 15 N 8.670114 6.172009 -9.831069 0 CFG=2 CHG=1
M  V30 16 C 9.937241 6.894110 -10.140663 0
M  V30 17 C 10.313434 7.932436 -9.070098 0
M  V30 18 C 10.353579 7.303730 -7.660284 0 CFG=1
M  V30 19 C 10.738725 8.281446 -6.576276 0
M  V30 20 N 10.486451 9.579300 -6.701359 0
M  V30 21 O 10.908796 10.233436 -5.512530 0
M  V30 22 C 11.412794 9.292335 -4.634991 0
M  V30 23 C 11.931670 9.411656 -3.339949 0
M  V30 24 C 12.312665 8.227866 -2.679363 0
M  V30 25 F 12.840858 8.299970 -1.440238 0
M  V30 26 C 12.148481 6.970837 -3.307392 0
M  V30 27 C 11.649769 6.879737 -4.626945 0
M  V30 28 C 11.285820 8.067081 -5.295557 0
M  V30 29 C 8.992117 6.658738 -7.387225 0
M  V30 30 C 8.668513 5.603303 -8.456985 0
M  V30 31 C 8.666870 5.372208 -13.387442 0
M  V30 32 H 6.142711 -1.300445 -17.017227 0
M  V30 33 H 5.868383 -1.615910 -15.301420 0
M  V30 34 H 4.797527 -0.508928 -16.182211 0
M  V30 35 H 9.124393 1.590721 -15.750442 0
M  V30 36 H 5.833782 5.994069 -13.088452 0
M  V30 37 H 5.739168 5.448643 -11.446927 0
M  V30 38 H 7.798613 6.819174 -12.076896 0
M  V30 39 H 7.668713 4.412796 -10.441123 0
M  V30 40 H 9.269043 4.548615 -11.047987 0
M  V30 41 H 10.747693 6.173083 -10.236691 0
M  V30 42 H 9.853749 7.391235 -11.107276 0
M  V30 43 H 11.279618 8.376130 -9.314686 0
M  V30 44 H 9.585605 8.746395 -9.096318 0
M  V30 45 H 11.101949 6.511311 -7.667522 0
M  V30 46 H 12.027604 10.373201 -2.858516 0
M  V30 47 H 12.431300 6.071728 -2.780075 0
M  V30 48 H 11.538465 5.917661 -5.102543 0
M  V30 49 H 8.995927 6.187751 -6.403039 0
M  V30 50 H 8.213943 7.422374 -7.354903 0
M  V30 51 H 7.685639 5.184320 -8.241332 0
M  V30 52 H 9.387244 4.784803 -8.399287 0
M  V30 53 H 9.731261 5.420201 -13.153099 0
M  V30 54 H 8.486608 6.109640 -14.166407 0
M  V30 55 H 7.899471 6.844749 -9.860220 0
M  V30 END ATOM
M  V30 BEGIN BOND
M  V30 1 1 2 1
M  V30 2 1 3 2
M  V30 3 2 4 3
M  V30 4 1 5 3
M  V30 5 2 6 5
M  V30 6 1 7 6
M  V30 7 1 8 7
M  V30 8 1 9 5
M  V30 9 2 9 8
M  V30 10 1 10 9
M  V30 11 2 11 10
M  V30 12 1 12 10
M  V30 13 1 13 12
M  V30 14 1 14 13
M  V30 15 1 15 14
M  V30 16 1 16 15
M  V30 17 1 17 16
M  V30 18 1 18 17
M  V30 19 1 19 18
M  V30 20 2 20 19
M  V30 21 1 21 20
M  V30 22 1 22 21
M  V30 23 1 23 22
M  V30 24 2 24 23
M  V30 25 1 25 24
M  V30 26 1 26 24
M  V30 27 2 27 26
M  V30 28 1 28 19
M  V30 29 2 28 22
M  V30 30 1 28 27
M  V30 31 1 29 18
M  V30 32 1 30 15
M  V30 33 1 30 29
M  V30 34 1 31 8
M  V30 35 1 31 13
M  V30 36 1 32 1
M  V30 37 1 33 1
M  V30 38 1 34 1
M  V30 39 1 35 6
M  V30 40 1 36 12
M  V30 41 1 37 12
M  V30 42 1 13 38 CFG=1
M  V30 43 1 39 14
M  V30 44 1 40 14
M  V30 45 1 41 16
M  V30 46 1 42 16
M  V30 47 1 43 17
M  V30 48 1 44 17
M  V30 49 1 18 45 CFG=3
M  V30 50 1 46 23
M  V30 51 1 47 26
M  V30 52 1 48 27
M  V30 53 1 49 29
M  V30 54 1 50 29
M  V30 55 1 51 30
M  V30 56 1 52 30
M  V30 57 1 53 31
M  V30 58 1 54 31
M  V30 59 1 15 55 CFG=1
M  V30 END BOND
M  V30 END CTAB
M  END
>  <b_m_subgroup_collapsed>  (173) 
0

>  <r_i_docking_score>  (173) 
-8.9416537447224105

>  <s_m_subgroup_title>  (173) 
glide-dock_SP_D22_pv

>  <s_m_subgroupid>  (173) 
glide-dock_SP_D22_pv

>  <Molecule ChEMBL ID>  (173) 
CHEMBL461627

>  <Standard Type>  (173) 
Ki

>  <Standard Value>  (173) 
85.11

>  <label>  (173) 
1

$$$$
CHEMBL1259187
     RDKit          3D

  0  0  0  0  0  0  0  0  0  0999 V3000
M  V30 BEGIN CTAB
M  V30 COUNTS 68 72 0 0 1
M  V30 BEGIN ATOM
M  V30 1 C 13.396376 8.172956 -18.851776 0
M  V30 2 C 13.788836 7.327959 -17.645586 0
M  V30 3 O 14.595251 6.408167 -17.772228 0
M  V30 4 N 13.207644 7.650905 -16.482563 0
M  V30 5 C 13.405860 6.952737 -15.215572 0
M  V30 6 C 12.159028 6.219648 -14.757214 0
M  V30 7 C 11.546227 5.269624 -15.595186 0
M  V30 8 C 10.376192 4.617708 -15.173677 0
M  V30 9 C 9.814717 4.922634 -13.915856 0
M  V30 10 C 10.402264 5.896864 -13.046799 0
M  V30 11 C 11.602936 6.505970 -13.494308 0
M  V30 12 C 9.550364 6.031993 -11.882626 0
M  V30 13 C 9.622464 6.946274 -10.676545 0 CFG=1
M  V30 14 C 9.288540 6.192059 -9.367899 0
M  V30 15 C 9.377477 7.099752 -8.132173 0
M  V30 16 N 10.727750 7.710304 -8.042977 0 CFG=2 CHG=1
M  V30 17 C 10.966402 8.465122 -6.791254 0
M  V30 18 C 11.168478 7.554234 -5.557767 0
M  V30 19 N 11.659041 8.257262 -4.363792 0
M  V30 20 C 12.285098 7.487063 -3.296709 0
M  V30 21 C 12.503696 8.520954 -2.195281 0
M  V30 22 N 12.085859 9.743734 -2.839866 0
M  V30 23 C 11.486178 9.545037 -4.011849 0
M  V30 24 O 10.886043 10.409750 -4.646849 0
M  V30 25 C 11.015476 8.534267 -9.243658 0
M  V30 26 C 10.963598 7.684926 -10.519853 0
M  V30 27 C 8.537928 5.130182 -12.067071 0
M  V30 28 N 8.695401 4.432637 -13.254172 0
M  V30 29 C 7.845676 3.372297 -13.648319 0
M  V30 30 C 6.481196 3.395225 -13.280643 0
M  V30 31 C 5.682604 2.248915 -13.446964 0
M  V30 32 C 6.218922 1.089549 -14.036614 0
M  V30 33 F 5.442325 -0.009458 -14.190107 0
M  V30 34 C 7.561431 1.074869 -14.456962 0
M  V30 35 C 8.377547 2.205621 -14.246881 0
M  V30 36 H 12.316066 8.154073 -18.997374 0
M  V30 37 H 13.706224 9.209384 -18.708447 0
M  V30 38 H 13.869880 7.796723 -19.758560 0
M  V30 39 H 12.556729 8.420623 -16.483898 0
M  V30 40 H 13.685184 7.690425 -14.464633 0
M  V30 41 H 14.230862 6.239944 -15.268906 0
M  V30 42 H 11.968998 5.043912 -16.563490 0
M  V30 43 H 9.909145 3.898965 -15.827447 0
M  V30 44 H 12.102441 7.236626 -12.881717 0
M  V30 45 H 8.857306 7.714016 -10.802450 0
M  V30 46 H 8.275875 5.789373 -9.409378 0
M  V30 47 H 9.959004 5.338518 -9.249637 0
M  V30 48 H 9.162436 6.508095 -7.242295 0
M  V30 49 H 8.614142 7.881054 -8.180662 0
M  V30 50 H 11.864666 9.071856 -6.914495 0
M  V30 51 H 10.133928 9.154107 -6.648222 0
M  V30 52 H 10.231520 7.064110 -5.293076 0
M  V30 53 H 11.867743 6.752463 -5.797334 0
M  V30 54 H 11.645852 6.662965 -2.970500 0
M  V30 55 H 13.240029 7.078356 -3.630531 0
M  V30 56 H 13.538946 8.579988 -1.864072 0
M  V30 57 H 11.869953 8.325407 -1.329759 0
M  V30 58 H 12.141134 10.642715 -2.378995 0
M  V30 59 H 12.007401 8.980244 -9.165045 0
M  V30 60 H 10.304297 9.359834 -9.304746 0
M  V30 61 H 11.788501 6.973387 -10.514853 0
M  V30 62 H 11.112016 8.352034 -11.366542 0
M  V30 63 H 7.706500 4.915777 -11.409783 0
M  V30 64 H 6.050996 4.270763 -12.815683 0
M  V30 65 H 4.652348 2.258496 -13.123124 0
M  V30 66 H 7.975288 0.181390 -14.901195 0
M  V30 67 H 9.426812 2.138920 -14.493629 0
M  V30 68 H 11.392682 6.951348 -8.052573 0
M  V30 END ATOM
M  V30 BEGIN BOND
M  V30 1 1 2 1
M  V30 2 2 3 2
M  V30 3 1 4 2
M  V30 4 1 5 4
M  V30 5 1 6 5
M  V30 6 1 7 6
M  V30 7 2 8 7
M  V30 8 1 9 8
M  V30 9 2 10 9
M  V30 10 2 11 6
M  V30 11 1 11 10
M  V30 12 1 12 10
M  V30 13 1 13 12
M  V30 14 1 14 13
M  V30 15 1 15 14
M  V30 16 1 16 15
M  V30 17 1 17 16
M  V30 18 1 18 17
M  V30 19 1 19 18
M  V30 20 1 20 19
M  V30 21 1 21 20
M  V30 22 1 22 21
M  V30 23 1 23 19
M  V30 24 1 23 22
M  V30 25 2 24 23
M  V30 26 1 25 16
M  V30 27 1 26 13
M  V30 28 1 26 25
M  V30 29 2 27 12
M  V30 30 1 28 9
M  V30 31 1 28 27
M  V30 32 1 29 28
M  V30 33 1 30 29
M  V30 34 2 31 30
M  V30 35 1 32 31
M  V30 36 1 33 32
M  V30 37 2 34 32
M  V30 38 2 35 29
M  V30 39 1 35 34
M  V30 40 1 36 1
M  V30 41 1 37 1
M  V30 42 1 38 1
M  V30 43 1 39 4
M  V30 44 1 40 5
M  V30 45 1 41 5
M  V30 46 1 42 7
M  V30 47 1 43 8
M  V30 48 1 44 11
M  V30 49 1 13 45 CFG=3
M  V30 50 1 46 14
M  V30 51 1 47 14
M  V30 52 1 48 15
M  V30 53 1 49 15
M  V30 54 1 50 17
M  V30 55 1 51 17
M  V30 56 1 52 18
M  V30 57 1 53 18
M  V30 58 1 54 20
M  V30 59 1 55 20
M  V30 60 1 56 21
M  V30 61 1 57 21
M  V30 62 1 58 22
M  V30 63 1 59 25
M  V30 64 1 60 25
M  V30 65 1 61 26
M  V30 66 1 62 26
M  V30 67 1 63 27
M  V30 68 1 64 30
M  V30 69 1 65 31
M  V30 70 1 66 34
M  V30 71 1 67 35
M  V30 72 1 16 68 CFG=1
M  V30 END BOND
M  V30 END CTAB
M  END
>  <b_m_subgroup_collapsed>  (174) 
0

>  <r_i_docking_score>  (174) 
-8.9408342297477095

>  <s_m_subgroup_title>  (174) 
glide-dock_SP_D22_pv

>  <s_m_subgroupid>  (174) 
glide-dock_SP_D22_pv

>  <Molecule ChEMBL ID>  (174) 
CHEMBL1259187

>  <Standard Type>  (174) 
Ki

>  <Standard Value>  (174) 
3.1

>  <label>  (174) 
1

$$$$
CHEMBL62601
     RDKit          3D

  0  0  0  0  0  0  0  0  0  0999 V3000
M  V30 BEGIN CTAB
M  V30 COUNTS 63 67 0 0 1
M  V30 BEGIN ATOM
M  V30 1 C 7.781098 1.711039 -15.236603 0
M  V30 2 O 9.081283 1.497622 -14.703279 0
M  V30 3 C 10.100891 1.912526 -15.525231 0
M  V30 4 C 10.710522 3.177031 -15.323900 0
M  V30 5 C 10.278901 4.112686 -14.286417 0
M  V30 6 N 9.084690 4.268785 -13.707108 0
M  V30 7 C 9.201224 5.406440 -12.923887 0
M  V30 8 C 8.039515 6.000248 -12.174753 0
M  V30 9 N 8.085936 5.772232 -10.710261 0 CHG=1
M  V30 10 C 9.364068 6.060586 -10.018273 0
M  V30 11 C 9.730961 7.568985 -10.016433 0 CFG=2
M  V30 12 C 11.246221 7.842902 -9.910192 0
M  V30 13 C 11.503589 8.315561 -8.473398 0
M  V30 14 N 10.221012 8.136875 -7.768260 0 CFG=1 CHG=1
M  V30 15 C 10.015169 8.973416 -6.574118 0
M  V30 16 C 10.887889 8.539846 -5.418660 0
M  V30 17 C 10.965206 7.179297 -5.046945 0
M  V30 18 C 11.686478 6.807954 -3.896952 0
M  V30 19 C 12.342900 7.783132 -3.124059 0
M  V30 20 C 12.282584 9.135995 -3.504410 0
M  V30 21 C 11.560990 9.513660 -4.651886 0
M  V30 22 C 9.164557 8.267352 -8.779596 0
M  V30 23 C 10.485606 5.869923 -13.047170 0
M  V30 24 O 11.179561 5.052574 -13.886268 0
M  V30 25 C 11.778741 3.572990 -16.155832 0
M  V30 26 C 12.241254 2.746674 -17.190741 0
M  V30 27 Br 13.684420 3.375659 -18.269114 0
M  V30 28 C 11.638865 1.487737 -17.404284 0
M  V30 29 C 12.088184 0.642960 -18.443647 0
M  V30 30 C 11.488196 -0.608954 -18.653172 0
M  V30 31 C 10.437361 -1.029927 -17.822672 0
M  V30 32 C 9.994392 -0.207289 -16.771727 0
M  V30 33 C 10.573591 1.065250 -16.561626 0
M  V30 34 H 7.034417 1.389786 -14.510793 0
M  V30 35 H 7.608171 2.766011 -15.446295 0
M  V30 36 H 7.615446 1.149913 -16.155674 0
M  V30 37 H 7.977545 7.070851 -12.369178 0
M  V30 38 H 7.099100 5.588190 -12.542803 0
M  V30 39 H 7.363427 6.378864 -10.313699 0
M  V30 40 H 9.276769 5.695153 -8.994256 0
M  V30 41 H 10.147719 5.449039 -10.455814 0
M  V30 42 H 9.355652 8.052625 -10.917644 0
M  V30 43 H 11.849939 6.972161 -10.158288 0
M  V30 44 H 11.539834 8.628612 -10.608500 0
M  V30 45 H 12.304731 7.758099 -7.986236 0
M  V30 46 H 11.784954 9.370218 -8.478804 0
M  V30 47 H 10.207435 10.016761 -6.820932 0
M  V30 48 H 8.975753 8.901053 -6.247596 0
M  V30 49 H 10.439395 6.416039 -5.601434 0
M  V30 50 H 11.727812 5.772657 -3.595792 0
M  V30 51 H 12.885979 7.492886 -2.237296 0
M  V30 52 H 12.782714 9.884212 -2.907884 0
M  V30 53 H 11.499104 10.558648 -4.919550 0
M  V30 54 H 8.975671 9.321878 -8.991164 0
M  V30 55 H 8.242272 7.822821 -8.414516 0
M  V30 56 H 11.023711 6.720628 -12.656328 0
M  V30 57 H 12.254397 4.532847 -16.016672 0
M  V30 58 H 12.896524 0.937588 -19.095123 0
M  V30 59 H 11.842589 -1.247071 -19.447330 0
M  V30 60 H 9.980823 -1.995808 -17.980944 0
M  V30 61 H 9.199167 -0.565288 -16.134317 0
M  V30 62 H 7.823649 4.812150 -10.534577 0
M  V30 63 H 10.191464 7.177432 -7.454520 0
M  V30 END ATOM
M  V30 BEGIN BOND
M  V30 1 1 2 1
M  V30 2 1 3 2
M  V30 3 2 4 3
M  V30 4 1 5 4
M  V30 5 2 6 5
M  V30 6 1 7 6
M  V30 7 1 8 7
M  V30 8 1 9 8
M  V30 9 1 10 9
M  V30 10 1 11 10
M  V30 11 1 12 11
M  V30 12 1 13 12
M  V30 13 1 14 13
M  V30 14 1 15 14
M  V30 15 1 16 15
M  V30 16 2 17 16
M  V30 17 1 18 17
M  V30 18 2 19 18
M  V30 19 1 20 19
M  V30 20 1 21 16
M  V30 21 2 21 20
M  V30 22 1 22 11
M  V30 23 1 22 14
M  V30 24 2 23 7
M  V30 25 1 24 5
M  V30 26 1 24 23
M  V30 27 1 25 4
M  V30 28 2 26 25
M  V30 29 1 27 26
M  V30 30 1 28 26
M  V30 31 2 29 28
M  V30 32 1 30 29
M  V30 33 2 31 30
M  V30 34 1 32 31
M  V30 35 1 33 3
M  V30 36 1 33 28
M  V30 37 2 33 32
M  V30 38 1 34 1
M  V30 39 1 35 1
M  V30 40 1 36 1
M  V30 41 1 37 8
M  V30 42 1 38 8
M  V30 43 1 39 9
M  V30 44 1 40 10
M  V30 45 1 41 10
M  V30 46 1 11 42 CFG=3
M  V30 47 1 43 12
M  V30 48 1 44 12
M  V30 49 1 45 13
M  V30 50 1 46 13
M  V30 51 1 47 15
M  V30 52 1 48 15
M  V30 53 1 49 17
M  V30 54 1 50 18
M  V30 55 1 51 19
M  V30 56 1 52 20
M  V30 57 1 53 21
M  V30 58 1 54 22
M  V30 59 1 55 22
M  V30 60 1 56 23
M  V30 61 1 57 25
M  V30 62 1 58 29
M  V30 63 1 59 30
M  V30 64 1 60 31
M  V30 65 1 61 32
M  V30 66 1 62 9
M  V30 67 1 14 63 CFG=1
M  V30 END BOND
M  V30 END CTAB
M  END
>  <b_m_subgroup_collapsed>  (175) 
0

>  <r_i_docking_score>  (175) 
-8.9406950167991806

>  <s_m_subgroup_title>  (175) 
glide-dock_SP_D22_pv

>  <s_m_subgroupid>  (175) 
glide-dock_SP_D22_pv

>  <Molecule ChEMBL ID>  (175) 
CHEMBL62601

>  <Standard Type>  (175) 
Ki

>  <Standard Value>  (175) 
17500.0

>  <label>  (175) 
0

$$$$
CHEMBL5958700
     RDKit          3D

  0  0  0  0  0  0  0  0  0  0999 V3000
M  V30 BEGIN CTAB
M  V30 COUNTS 61 64 0 0 1
M  V30 BEGIN ATOM
M  V30 1 C 5.185162 -2.180817 -18.900356 0
M  V30 2 N 5.178877 -1.511835 -17.596043 0
M  V30 3 C 4.129230 -1.827578 -16.711477 0
M  V30 4 N 3.997965 -1.320956 -15.521995 0
M  V30 5 C 4.931733 -0.365665 -15.101169 0
M  V30 6 C 4.760690 0.251613 -13.847609 0
M  V30 7 C 5.617337 1.295148 -13.446444 0
M  V30 8 C 6.668931 1.721362 -14.294419 0
M  V30 9 O 7.494319 2.785520 -14.023634 0
M  V30 10 C 7.026610 3.772280 -13.117478 0
M  V30 11 C 8.086936 4.870581 -13.077818 0
M  V30 12 C 7.901100 5.842608 -11.907394 0
M  V30 13 C 8.366161 5.243858 -10.557608 0
M  V30 14 N 8.486874 6.255284 -9.477680 0 CHG=1
M  V30 15 C 9.632662 7.172299 -9.751883 0
M  V30 16 C 9.974176 8.128570 -8.604335 0
M  V30 17 N 10.086061 7.426850 -7.327625 0
M  V30 18 C 10.863053 7.982453 -6.279231 0
M  V30 19 C 11.502809 9.235412 -6.446010 0
M  V30 20 C 12.325698 9.769313 -5.446233 0
M  V30 21 C 12.485244 9.097411 -4.224007 0
M  V30 22 C 11.838472 7.862862 -4.006979 0
M  V30 23 C 12.005084 7.145387 -2.668813 0
M  V30 24 F 12.886029 6.172392 -2.776045 0
M  V30 25 F 12.428746 7.998032 -1.736611 0
M  V30 26 F 10.886092 6.572413 -2.246674 0
M  V30 27 C 11.061609 7.298414 -5.047234 0
M  V30 28 C 8.884062 6.665654 -7.016245 0
M  V30 29 C 8.595591 5.634663 -8.127859 0
M  V30 30 C 6.885983 1.051425 -15.513094 0
M  V30 31 C 6.009019 0.029449 -15.929601 0
M  V30 32 C 6.144878 -0.616495 -17.278341 0
M  V30 33 O 7.067754 -0.308160 -18.035282 0
M  V30 34 H 4.937644 -1.466726 -19.688616 0
M  V30 35 H 6.173053 -2.591136 -19.119791 0
M  V30 36 H 4.476157 -3.009305 -18.969048 0
M  V30 37 H 3.413484 -2.547422 -17.108984 0
M  V30 38 H 3.935582 -0.039304 -13.217233 0
M  V30 39 H 5.429264 1.771724 -12.496481 0
M  V30 40 H 6.885647 3.372192 -12.116536 0
M  V30 41 H 6.069324 4.178494 -13.447873 0
M  V30 42 H 8.069246 5.415133 -14.022754 0
M  V30 43 H 9.079645 4.422648 -13.017772 0
M  V30 44 H 6.863313 6.172118 -11.846151 0
M  V30 45 H 8.475502 6.729785 -12.164237 0
M  V30 46 H 9.330477 4.748105 -10.682113 0
M  V30 47 H 7.685687 4.455614 -10.247278 0
M  V30 48 H 9.445865 7.784139 -10.632043 0
M  V30 49 H 10.519758 6.575046 -9.966787 0
M  V30 50 H 9.217383 8.909722 -8.521853 0
M  V30 51 H 10.911505 8.605885 -8.884039 0
M  V30 52 H 11.404973 9.820238 -7.345344 0
M  V30 53 H 12.854897 10.683867 -5.649184 0
M  V30 54 H 13.110069 9.536916 -3.460625 0
M  V30 55 H 10.623450 6.327322 -4.872433 0
M  V30 56 H 8.938759 6.172447 -6.051051 0
M  V30 57 H 8.062771 7.375602 -6.936578 0
M  V30 58 H 7.686309 5.090506 -7.891850 0
M  V30 59 H 9.399633 4.898517 -8.143201 0
M  V30 60 H 7.694695 1.371786 -16.155403 0
M  V30 61 H 7.633962 6.821125 -9.496428 0
M  V30 END ATOM
M  V30 BEGIN BOND
M  V30 1 1 2 1
M  V30 2 1 3 2
M  V30 3 2 4 3
M  V30 4 1 5 4
M  V30 5 1 6 5
M  V30 6 2 7 6
M  V30 7 1 8 7
M  V30 8 1 9 8
M  V30 9 1 10 9
M  V30 10 1 11 10
M  V30 11 1 12 11
M  V30 12 1 13 12
M  V30 13 1 14 13
M  V30 14 1 15 14
M  V30 15 1 16 15
M  V30 16 1 17 16
M  V30 17 1 18 17
M  V30 18 1 19 18
M  V30 19 2 20 19
M  V30 20 1 21 20
M  V30 21 2 22 21
M  V30 22 1 23 22
M  V30 23 1 24 23
M  V30 24 1 25 23
M  V30 25 1 26 23
M  V30 26 2 27 18
M  V30 27 1 27 22
M  V30 28 1 28 17
M  V30 29 1 29 14
M  V30 30 1 29 28
M  V30 31 2 30 8
M  V30 32 2 31 5
M  V30 33 1 31 30
M  V30 34 1 32 2
M  V30 35 1 32 31
M  V30 36 2 33 32
M  V30 37 1 34 1
M  V30 38 1 35 1
M  V30 39 1 36 1
M  V30 40 1 37 3
M  V30 41 1 38 6
M  V30 42 1 39 7
M  V30 43 1 40 10
M  V30 44 1 41 10
M  V30 45 1 42 11
M  V30 46 1 43 11
M  V30 47 1 44 12
M  V30 48 1 45 12
M  V30 49 1 46 13
M  V30 50 1 47 13
M  V30 51 1 48 15
M  V30 52 1 49 15
M  V30 53 1 50 16
M  V30 54 1 51 16
M  V30 55 1 52 19
M  V30 56 1 53 20
M  V30 57 1 54 21
M  V30 58 1 55 27
M  V30 59 1 56 28
M  V30 60 1 57 28
M  V30 61 1 58 29
M  V30 62 1 59 29
M  V30 63 1 60 30
M  V30 64 1 61 14
M  V30 END BOND
M  V30 END CTAB
M  END
>  <b_m_subgroup_collapsed>  (176) 
0

>  <r_i_docking_score>  (176) 
-8.9394886308574009

>  <s_m_subgroup_title>  (176) 
glide-dock_SP_D22_pv

>  <s_m_subgroupid>  (176) 
glide-dock_SP_D22_pv

>  <Molecule ChEMBL ID>  (176) 
CHEMBL5958700

>  <Standard Type>  (176) 
Ki

>  <Standard Value>  (176) 
24.8

>  <label>  (176) 
1

$$$$
CHEMBL5757240
     RDKit          3D

  0  0  0  0  0  0  0  0  0  0999 V3000
M  V30 BEGIN CTAB
M  V30 COUNTS 66 70 0 0 1
M  V30 BEGIN ATOM
M  V30 1 O 7.833027 4.335927 -14.246850 0
M  V30 2 C 8.713837 3.872749 -13.533668 0
M  V30 3 N 9.189629 2.624635 -13.682584 0
M  V30 4 C 8.816291 1.643971 -14.714211 0 CFG=1
M  V30 5 C 7.390315 1.045187 -14.643779 0
M  V30 6 C 7.093384 -0.143392 -15.350099 0
M  V30 7 C 5.824070 -0.751709 -15.256599 0
M  V30 8 C 4.835940 -0.198158 -14.425333 0
M  V30 9 Cl 3.287678 -0.936893 -14.280678 0
M  V30 10 C 5.116006 0.972059 -13.707160 0
M  V30 11 C 6.364696 1.600384 -13.844525 0
M  V30 12 C 9.317409 2.069161 -16.097126 0
M  V30 13 C 10.691766 2.355910 -16.275333 0
M  V30 14 C 11.143603 2.765939 -17.541769 0
M  V30 15 C 10.208693 2.871803 -18.588930 0
M  V30 16 C 8.861984 2.561177 -18.317110 0
M  V30 17 N 8.416956 2.172946 -17.104237 0
M  V30 18 C 9.283251 4.750768 -12.416780 0 CFG=1
M  V30 19 C 9.660720 6.121685 -12.996700 0
M  V30 20 C 10.204614 7.074405 -11.927463 0
M  V30 21 N 9.286368 7.234787 -10.766106 0 CFG=2 CHG=1
M  V30 22 C 9.924832 8.124708 -9.763766 0
M  V30 23 C 8.989664 8.592060 -8.636353 0
M  V30 24 O 9.731319 9.371951 -7.710839 0
M  V30 25 C 10.412224 8.741448 -6.694597 0
M  V30 26 C 10.638300 7.347438 -6.641619 0
M  V30 27 C 11.283969 6.787580 -5.532941 0
M  V30 28 C 11.661501 7.587544 -4.445970 0
M  V30 29 C 12.181909 6.991148 -3.283445 0
M  V30 30 C 12.485784 7.818554 -2.194056 0
M  V30 31 C 12.266520 9.199144 -2.320186 0
M  V30 32 N 11.774508 9.772081 -3.435996 0
M  V30 33 C 11.467493 8.989776 -4.487557 0
M  V30 34 C 10.878991 9.550097 -5.638261 0
M  V30 35 C 8.849139 5.922605 -10.210377 0
M  V30 36 C 8.252619 5.018137 -11.303059 0
M  V30 37 H 9.851150 2.292981 -12.991723 0
M  V30 38 H 9.444818 0.787696 -14.467259 0
M  V30 39 H 7.847698 -0.622475 -15.961711 0
M  V30 40 H 5.625832 -1.663995 -15.803438 0
M  V30 41 H 4.360798 1.409313 -13.073442 0
M  V30 42 H 6.510524 2.496267 -13.267343 0
M  V30 43 H 11.387176 2.269510 -15.453277 0
M  V30 44 H 12.185639 2.997247 -17.708746 0
M  V30 45 H 10.513636 3.186893 -19.575615 0
M  V30 46 H 8.117687 2.631810 -19.099098 0
M  V30 47 H 10.166406 4.267461 -11.994760 0
M  V30 48 H 10.401886 6.006342 -13.791474 0
M  V30 49 H 8.774213 6.572305 -13.446513 0
M  V30 50 H 11.172112 6.711808 -11.579054 0
M  V30 51 H 10.383673 8.048858 -12.380394 0
M  V30 52 H 10.807284 7.625765 -9.364845 0
M  V30 53 H 10.299085 9.018009 -10.266210 0
M  V30 54 H 8.212636 9.235488 -9.048882 0
M  V30 55 H 8.485556 7.775373 -8.125037 0
M  V30 56 H 10.316266 6.676234 -7.421728 0
M  V30 57 H 11.452696 5.731084 -5.495670 0
M  V30 58 H 12.326448 5.922987 -3.215962 0
M  V30 59 H 12.885889 7.410397 -1.279692 0
M  V30 60 H 12.485848 9.856992 -1.493461 0
M  V30 61 H 10.710174 10.616187 -5.672203 0
M  V30 62 H 9.692243 5.422854 -9.730497 0
M  V30 63 H 8.087105 6.073143 -9.446207 0
M  V30 64 H 7.362656 5.497617 -11.717388 0
M  V30 65 H 7.902022 4.090785 -10.858552 0
M  V30 66 H 8.429864 7.687550 -11.076101 0
M  V30 END ATOM
M  V30 BEGIN BOND
M  V30 1 2 2 1
M  V30 2 1 3 2
M  V30 3 1 4 3
M  V30 4 1 5 4
M  V30 5 1 6 5
M  V30 6 2 7 6
M  V30 7 1 8 7
M  V30 8 1 9 8
M  V30 9 2 10 8
M  V30 10 2 11 5
M  V30 11 1 11 10
M  V30 12 1 12 4
M  V30 13 2 13 12
M  V30 14 1 14 13
M  V30 15 2 15 14
M  V30 16 1 16 15
M  V30 17 1 17 12
M  V30 18 2 17 16
M  V30 19 1 18 2
M  V30 20 1 19 18
M  V30 21 1 20 19
M  V30 22 1 21 20
M  V30 23 1 22 21
M  V30 24 1 23 22
M  V30 25 1 24 23
M  V30 26 1 25 24
M  V30 27 1 26 25
M  V30 28 2 27 26
M  V30 29 1 28 27
M  V30 30 2 29 28
M  V30 31 1 30 29
M  V30 32 2 31 30
M  V30 33 1 32 31
M  V30 34 1 33 28
M  V30 35 2 33 32
M  V30 36 2 34 25
M  V30 37 1 34 33
M  V30 38 1 35 21
M  V30 39 1 36 18
M  V30 40 1 36 35
M  V30 41 1 37 3
M  V30 42 1 4 38 CFG=1
M  V30 43 1 39 6
M  V30 44 1 40 7
M  V30 45 1 41 10
M  V30 46 1 42 11
M  V30 47 1 43 13
M  V30 48 1 44 14
M  V30 49 1 45 15
M  V30 50 1 46 16
M  V30 51 1 18 47 CFG=1
M  V30 52 1 48 19
M  V30 53 1 49 19
M  V30 54 1 50 20
M  V30 55 1 51 20
M  V30 56 1 52 22
M  V30 57 1 53 22
M  V30 58 1 54 23
M  V30 59 1 55 23
M  V30 60 1 56 26
M  V30 61 1 57 27
M  V30 62 1 58 29
M  V30 63 1 59 30
M  V30 64 1 60 31
M  V30 65 1 61 34
M  V30 66 1 62 35
M  V30 67 1 63 35
M  V30 68 1 64 36
M  V30 69 1 65 36
M  V30 70 1 21 66 CFG=3
M  V30 END BOND
M  V30 END CTAB
M  END
>  <b_m_subgroup_collapsed>  (177) 
0

>  <r_i_docking_score>  (177) 
-8.9327355167849092

>  <s_m_subgroup_title>  (177) 
glide-dock_SP_D22_pv

>  <s_m_subgroupid>  (177) 
glide-dock_SP_D22_pv

>  <Molecule ChEMBL ID>  (177) 
CHEMBL5757240

>  <Standard Type>  (177) 
Ki

>  <Standard Value>  (177) 
20000.0

>  <label>  (177) 
0

$$$$
CHEMBL418854
     RDKit          3D

  0  0  0  0  0  0  0  0  0  0999 V3000
M  V30 BEGIN CTAB
M  V30 COUNTS 56 59 0 0 1
M  V30 BEGIN ATOM
M  V30 1 C 9.880014 4.045917 -18.870378 0
M  V30 2 O 9.553416 3.947114 -17.492596 0
M  V30 3 C 9.769799 2.747170 -16.842081 0
M  V30 4 C 10.307858 1.604429 -17.489561 0
M  V30 5 C 10.466347 0.390690 -16.795742 0
M  V30 6 C 10.084745 0.299993 -15.447538 0
M  V30 7 C 9.557732 1.425139 -14.792191 0
M  V30 8 C 9.404647 2.653304 -15.471445 0
M  V30 9 N 8.887794 3.763624 -14.778062 0
M  V30 10 C 7.745103 3.630335 -13.883686 0
M  V30 11 C 8.134892 4.055351 -12.463269 0
M  V30 12 C 8.756595 5.458453 -12.425340 0
M  V30 13 C 9.194310 5.821369 -11.001252 0
M  V30 14 N 8.086065 5.772392 -10.015460 0 CHG=1
M  V30 15 C 8.536290 5.559085 -8.616495 0
M  V30 16 C 8.947657 6.827037 -7.827023 0 CFG=2
M  V30 17 C 9.579897 7.986329 -8.622146 0
M  V30 18 O 9.861583 9.068932 -7.744825 0
M  V30 19 C 10.486322 8.716597 -6.572534 0
M  V30 20 C 11.060099 9.718453 -5.764479 0
M  V30 21 C 11.687251 9.372808 -4.551720 0
M  V30 22 C 11.763933 8.024075 -4.157537 0
M  V30 23 Cl 12.485950 7.608229 -2.649482 0
M  V30 24 C 11.215834 7.017404 -4.974339 0
M  V30 25 C 10.537964 7.363755 -6.158443 0
M  V30 26 O 9.919292 6.378388 -6.887740 0
M  V30 27 C 9.978593 5.465957 -13.372930 0
M  V30 28 C 9.596643 5.036514 -14.797879 0
M  V30 29 H 9.636608 5.047528 -19.225052 0
M  V30 30 H 10.945955 3.886378 -19.039509 0
M  V30 31 H 9.306077 3.337030 -19.468996 0
M  V30 32 H 10.602090 1.629136 -18.527309 0
M  V30 33 H 10.874199 -0.472393 -17.300932 0
M  V30 34 H 10.200291 -0.627687 -14.910392 0
M  V30 35 H 9.284954 1.343573 -13.751678 0
M  V30 36 H 6.939781 4.268956 -14.246928 0
M  V30 37 H 7.352452 2.613325 -13.885373 0
M  V30 38 H 7.259992 3.984737 -11.816361 0
M  V30 39 H 8.886357 3.372339 -12.074615 0
M  V30 40 H 8.023807 6.187479 -12.774946 0
M  V30 41 H 9.986360 5.135178 -10.698295 0
M  V30 42 H 9.632126 6.817183 -11.016540 0
M  V30 43 H 7.506439 6.621274 -10.080615 0
M  V30 44 H 7.717866 5.087863 -8.071817 0
M  V30 45 H 9.342443 4.823707 -8.607934 0
M  V30 46 H 8.086108 7.206398 -7.277390 0
M  V30 47 H 10.503790 7.673884 -9.110526 0
M  V30 48 H 8.896355 8.351680 -9.388467 0
M  V30 49 H 11.007919 10.753497 -6.068442 0
M  V30 50 H 12.101428 10.143004 -3.918219 0
M  V30 51 H 11.258245 5.985345 -4.659424 0
M  V30 52 H 10.452092 6.447948 -13.391080 0
M  V30 53 H 10.738130 4.778160 -12.998224 0
M  V30 54 H 10.493661 4.985023 -15.416385 0
M  V30 55 H 8.935506 5.772282 -15.245144 0
M  V30 56 H 7.486288 4.992064 -10.246799 0
M  V30 END ATOM
M  V30 BEGIN BOND
M  V30 1 1 2 1
M  V30 2 1 3 2
M  V30 3 2 4 3
M  V30 4 1 5 4
M  V30 5 2 6 5
M  V30 6 1 7 6
M  V30 7 1 8 3
M  V30 8 2 8 7
M  V30 9 1 9 8
M  V30 10 1 10 9
M  V30 11 1 11 10
M  V30 12 1 12 11
M  V30 13 1 13 12
M  V30 14 1 14 13
M  V30 15 1 15 14
M  V30 16 1 16 15
M  V30 17 1 17 16
M  V30 18 1 18 17
M  V30 19 1 19 18
M  V30 20 1 20 19
M  V30 21 2 21 20
M  V30 22 1 22 21
M  V30 23 1 23 22
M  V30 24 2 24 22
M  V30 25 2 25 19
M  V30 26 1 25 24
M  V30 27 1 26 16
M  V30 28 1 26 25
M  V30 29 1 27 12
M  V30 30 1 28 9
M  V30 31 1 28 27
M  V30 32 1 29 1
M  V30 33 1 30 1
M  V30 34 1 31 1
M  V30 35 1 32 4
M  V30 36 1 33 5
M  V30 37 1 34 6
M  V30 38 1 35 7
M  V30 39 1 36 10
M  V30 40 1 37 10
M  V30 41 1 38 11
M  V30 42 1 39 11
M  V30 43 1 40 12
M  V30 44 1 41 13
M  V30 45 1 42 13
M  V30 46 1 43 14
M  V30 47 1 44 15
M  V30 48 1 45 15
M  V30 49 1 16 46 CFG=1
M  V30 50 1 47 17
M  V30 51 1 48 17
M  V30 52 1 49 20
M  V30 53 1 50 21
M  V30 54 1 51 24
M  V30 55 1 52 27
M  V30 56 1 53 27
M  V30 57 1 54 28
M  V30 58 1 55 28
M  V30 59 1 56 14
M  V30 END BOND
M  V30 END CTAB
M  END
>  <b_m_subgroup_collapsed>  (178) 
0

>  <r_i_docking_score>  (178) 
-8.9302391018251708

>  <s_m_subgroup_title>  (178) 
glide-dock_SP_D22_pv

>  <s_m_subgroupid>  (178) 
glide-dock_SP_D22_pv

>  <Molecule ChEMBL ID>  (178) 
CHEMBL418854

>  <Standard Type>  (178) 
Ki

>  <Standard Value>  (178) 
13.2

>  <label>  (178) 
1

$$$$
CHEMBL252343
     RDKit          3D

  0  0  0  0  0  0  0  0  0  0999 V3000
M  V30 BEGIN CTAB
M  V30 COUNTS 69 73 0 0 1
M  V30 BEGIN ATOM
M  V30 1 C 5.891852 7.261086 -13.042871 0
M  V30 2 C 6.218911 5.751324 -12.976673 0
M  V30 3 C 7.016656 5.399971 -11.722940 0
M  V30 4 N 8.331145 6.084162 -11.631177 0 CFG=1 CHG=1
M  V30 5 C 8.908108 5.987319 -10.267602 0
M  V30 6 C 9.316872 7.380636 -9.747591 0
M  V30 7 N 9.627812 7.341560 -8.329906 0
M  V30 8 C 9.763370 8.714208 -7.837720 0
M  V30 9 C 10.002181 8.683258 -6.320698 0
M  V30 10 N 11.190868 7.898583 -5.993659 0
M  V30 11 C 11.606260 7.986877 -4.651488 0
M  V30 12 C 11.883255 9.254676 -4.098412 0
M  V30 13 C 12.290827 9.372335 -2.760413 0
M  V30 14 C 12.456349 8.231710 -1.961008 0
M  V30 15 C 12.167250 6.964536 -2.492896 0
M  V30 16 C 11.743155 6.843472 -3.826236 0
M  V30 17 C 11.148098 6.567278 -6.585557 0
M  V30 18 C 10.894518 6.650500 -8.092913 0
M  V30 19 C 9.292150 5.845496 -12.760603 0 CFG=1
M  V30 20 C 10.566137 6.716539 -12.647000 0
M  V30 21 C 11.605823 6.520020 -13.765853 0
M  V30 22 C 11.557137 5.183467 -14.486546 0
M  V30 23 C 12.465095 4.984537 -15.557854 0
M  V30 24 C 12.447989 3.797233 -16.318121 0
M  V30 25 C 11.499466 2.825287 -15.973533 0
M  V30 26 C 10.609296 2.995859 -14.920028 0
M  V30 27 C 10.616807 4.173225 -14.140698 0
M  V30 28 C 9.644505 4.360101 -12.983569 0
M  V30 29 C 9.720410 1.777984 -14.805262 0
M  V30 30 C 10.316795 0.917179 -15.929752 0
M  V30 31 O 9.957343 -0.230536 -16.174988 0
M  V30 32 N 11.290778 1.578790 -16.564178 0
M  V30 33 H 5.285923 7.544968 -13.887802 0
M  V30 34 H 5.288978 7.558624 -12.185664 0
M  V30 35 H 6.790056 7.878472 -13.052414 0
M  V30 36 H 6.748513 5.372107 -13.846831 0
M  V30 37 H 5.287106 5.190655 -12.956063 0
M  V30 38 H 7.120882 4.321919 -11.596954 0
M  V30 39 H 6.417133 5.771984 -10.898381 0
M  V30 40 H 9.733926 5.277798 -10.256600 0
M  V30 41 H 8.169153 5.581514 -9.573644 0
M  V30 42 H 8.486079 8.068378 -9.894231 0
M  V30 43 H 10.156907 7.809410 -10.290543 0
M  V30 44 H 8.847801 9.272251 -8.043892 0
M  V30 45 H 10.579554 9.231227 -8.344735 0
M  V30 46 H 9.135173 8.226463 -5.846919 0
M  V30 47 H 10.085664 9.703011 -5.949446 0
M  V30 48 H 11.795590 10.147624 -4.698211 0
M  V30 49 H 12.485237 10.347266 -2.349216 0
M  V30 50 H 12.788475 8.332359 -0.940838 0
M  V30 51 H 12.272049 6.081063 -1.880280 0
M  V30 52 H 11.525513 5.851066 -4.189522 0
M  V30 53 H 12.084520 6.039186 -6.404888 0
M  V30 54 H 10.347390 5.994637 -6.118564 0
M  V30 55 H 10.866630 5.635821 -8.484651 0
M  V30 56 H 11.710900 7.173063 -8.592576 0
M  V30 57 H 8.791346 6.172273 -13.670028 0
M  V30 58 H 10.303264 7.773814 -12.590042 0
M  V30 59 H 11.073758 6.500652 -11.714923 0
M  V30 60 H 12.609515 6.667285 -13.363768 0
M  V30 61 H 11.481767 7.294715 -14.521529 0
M  V30 62 H 13.178442 5.757793 -15.806148 0
M  V30 63 H 13.140922 3.646166 -17.132683 0
M  V30 64 H 10.091978 3.921872 -12.091128 0
M  V30 65 H 8.740587 3.788291 -13.189967 0
M  V30 66 H 9.824544 1.280418 -13.846958 0
M  V30 67 H 8.673989 2.016317 -14.997913 0
M  V30 68 H 11.847832 1.220919 -17.325645 0
M  V30 69 H 8.053158 7.055669 -11.688548 0
M  V30 END ATOM
M  V30 BEGIN BOND
M  V30 1 1 2 1
M  V30 2 1 3 2
M  V30 3 1 4 3
M  V30 4 1 5 4
M  V30 5 1 6 5
M  V30 6 1 7 6
M  V30 7 1 8 7
M  V30 8 1 9 8
M  V30 9 1 10 9
M  V30 10 1 11 10
M  V30 11 2 12 11
M  V30 12 1 13 12
M  V30 13 2 14 13
M  V30 14 1 15 14
M  V30 15 1 16 11
M  V30 16 2 16 15
M  V30 17 1 17 10
M  V30 18 1 18 7
M  V30 19 1 18 17
M  V30 20 1 19 4
M  V30 21 1 20 19
M  V30 22 1 21 20
M  V30 23 1 22 21
M  V30 24 1 23 22
M  V30 25 2 24 23
M  V30 26 1 25 24
M  V30 27 2 26 25
M  V30 28 2 27 22
M  V30 29 1 27 26
M  V30 30 1 28 19
M  V30 31 1 28 27
M  V30 32 1 29 26
M  V30 33 1 30 29
M  V30 34 2 31 30
M  V30 35 1 32 25
M  V30 36 1 32 30
M  V30 37 1 33 1
M  V30 38 1 34 1
M  V30 39 1 35 1
M  V30 40 1 36 2
M  V30 41 1 37 2
M  V30 42 1 38 3
M  V30 43 1 39 3
M  V30 44 1 40 5
M  V30 45 1 41 5
M  V30 46 1 42 6
M  V30 47 1 43 6
M  V30 48 1 44 8
M  V30 49 1 45 8
M  V30 50 1 46 9
M  V30 51 1 47 9
M  V30 52 1 48 12
M  V30 53 1 49 13
M  V30 54 1 50 14
M  V30 55 1 51 15
M  V30 56 1 52 16
M  V30 57 1 53 17
M  V30 58 1 54 17
M  V30 59 1 55 18
M  V30 60 1 56 18
M  V30 61 1 19 57 CFG=3
M  V30 62 1 58 20
M  V30 63 1 59 20
M  V30 64 1 60 21
M  V30 65 1 61 21
M  V30 66 1 62 23
M  V30 67 1 63 24
M  V30 68 1 64 28
M  V30 69 1 65 28
M  V30 70 1 66 29
M  V30 71 1 67 29
M  V30 72 1 68 32
M  V30 73 1 4 69 CFG=3
M  V30 END BOND
M  V30 END CTAB
M  END
>  <b_m_subgroup_collapsed>  (179) 
0

>  <r_i_docking_score>  (179) 
-8.9231418964943998

>  <s_m_subgroup_title>  (179) 
glide-dock_SP_D22_pv

>  <s_m_subgroupid>  (179) 
glide-dock_SP_D22_pv

>  <Molecule ChEMBL ID>  (179) 
CHEMBL252343

>  <Standard Type>  (179) 
Ki

>  <Standard Value>  (179) 
90.6

>  <label>  (179) 
1

$$$$
CHEMBL5402212
     RDKit          3D

  0  0  0  0  0  0  0  0  0  0999 V3000
M  V30 BEGIN CTAB
M  V30 COUNTS 63 65 0 0 1
M  V30 BEGIN ATOM
M  V30 1 C 5.392132 -0.813390 -17.030411 0
M  V30 2 N 4.624080 -0.768576 -15.778733 0
M  V30 3 C 3.312977 -1.412553 -15.823572 0
M  V30 4 C 5.044257 -0.144257 -14.654304 0
M  V30 5 O 4.465816 -0.228258 -13.567920 0
M  V30 6 N 6.087591 0.681205 -14.851254 0
M  V30 7 C 6.617978 1.618237 -13.868917 0 CFG=1
M  V30 8 C 7.866579 2.346375 -14.419400 0
M  V30 9 C 8.417022 3.439645 -13.470145 0
M  V30 10 C 7.311432 4.389331 -12.949057 0 CFG=2
M  V30 11 C 7.797702 5.499088 -11.996870 0
M  V30 12 C 8.341317 5.019613 -10.634121 0
M  V30 13 N 8.488683 6.127693 -9.651522 0 CHG=1
M  V30 14 C 9.619019 7.018302 -10.017178 0
M  V30 15 C 9.894677 8.094987 -8.963750 0
M  V30 16 N 10.067007 7.505428 -7.638175 0
M  V30 17 C 10.791774 8.214999 -6.651462 0
M  V30 18 C 11.334146 9.494458 -6.916279 0
M  V30 19 C 12.057301 10.165347 -5.921708 0
M  V30 20 C 12.238748 9.535535 -4.685503 0
M  V30 21 C 11.688474 8.259949 -4.492439 0
M  V30 22 C 11.970875 7.553566 -3.177872 0
M  V30 23 F 13.261288 7.265439 -3.114679 0
M  V30 24 F 11.685966 8.363115 -2.163187 0
M  V30 25 F 11.286042 6.428524 -3.034146 0
M  V30 26 N 10.978663 7.612537 -5.449761 0
M  V30 27 C 8.943245 6.676868 -7.210996 0
M  V30 28 C 8.610571 5.599082 -8.262402 0
M  V30 29 C 6.124112 3.608969 -12.359789 0
M  V30 30 C 5.568808 2.656007 -13.408266 0
M  V30 31 H 5.449097 0.177790 -17.481390 0
M  V30 32 H 6.406397 -1.174680 -16.850956 0
M  V30 33 H 4.945221 -1.477409 -17.770451 0
M  V30 34 H 3.030988 -1.827732 -14.857655 0
M  V30 35 H 2.552105 -0.685267 -16.105606 0
M  V30 36 H 3.285913 -2.226609 -16.546112 0
M  V30 37 H 6.496294 0.693904 -15.772776 0
M  V30 38 H 6.886328 0.971900 -13.046859 0
M  V30 39 H 7.610933 2.813234 -15.370490 0
M  V30 40 H 8.654104 1.624512 -14.637811 0
M  V30 41 H 9.171474 4.020647 -14.002601 0
M  V30 42 H 8.952023 2.974208 -12.646871 0
M  V30 43 H 6.930580 4.911205 -13.828351 0
M  V30 44 H 6.957092 6.170916 -11.822137 0
M  V30 45 H 8.551615 6.093443 -12.512547 0
M  V30 46 H 9.298469 4.513798 -10.768951 0
M  V30 47 H 7.686603 4.264630 -10.206975 0
M  V30 48 H 9.418353 7.506490 -10.970136 0
M  V30 49 H 10.519814 6.418951 -10.150752 0
M  V30 50 H 9.076187 8.817531 -8.932772 0
M  V30 51 H 10.791711 8.619252 -9.290113 0
M  V30 52 H 11.235661 9.991259 -7.864302 0
M  V30 53 H 12.482277 11.137056 -6.123138 0
M  V30 54 H 12.813625 10.003020 -3.900820 0
M  V30 55 H 9.140023 6.181325 -6.258844 0
M  V30 56 H 8.087165 7.329645 -7.046552 0
M  V30 57 H 7.686721 5.094889 -7.976465 0
M  V30 58 H 9.399529 4.844634 -8.247587 0
M  V30 59 H 6.401292 3.042719 -11.473208 0
M  V30 60 H 5.340626 4.301791 -12.047928 0
M  V30 61 H 5.285732 3.273860 -14.250469 0
M  V30 62 H 4.662982 2.191764 -13.021231 0
M  V30 63 H 7.638924 6.698312 -9.691232 0
M  V30 END ATOM
M  V30 BEGIN BOND
M  V30 1 1 2 1
M  V30 2 1 3 2
M  V30 3 1 4 2
M  V30 4 2 5 4
M  V30 5 1 6 4
M  V30 6 1 7 6
M  V30 7 1 8 7
M  V30 8 1 9 8
M  V30 9 1 10 9
M  V30 10 1 11 10
M  V30 11 1 12 11
M  V30 12 1 13 12
M  V30 13 1 14 13
M  V30 14 1 15 14
M  V30 15 1 16 15
M  V30 16 1 17 16
M  V30 17 1 18 17
M  V30 18 2 19 18
M  V30 19 1 20 19
M  V30 20 2 21 20
M  V30 21 1 22 21
M  V30 22 1 23 22
M  V30 23 1 24 22
M  V30 24 1 25 22
M  V30 25 2 26 17
M  V30 26 1 26 21
M  V30 27 1 27 16
M  V30 28 1 28 13
M  V30 29 1 28 27
M  V30 30 1 29 10
M  V30 31 1 30 7
M  V30 32 1 30 29
M  V30 33 1 31 1
M  V30 34 1 32 1
M  V30 35 1 33 1
M  V30 36 1 34 3
M  V30 37 1 35 3
M  V30 38 1 36 3
M  V30 39 1 37 6
M  V30 40 1 7 38 CFG=1
M  V30 41 1 39 8
M  V30 42 1 40 8
M  V30 43 1 41 9
M  V30 44 1 42 9
M  V30 45 1 10 43 CFG=3
M  V30 46 1 44 11
M  V30 47 1 45 11
M  V30 48 1 46 12
M  V30 49 1 47 12
M  V30 50 1 48 14
M  V30 51 1 49 14
M  V30 52 1 50 15
M  V30 53 1 51 15
M  V30 54 1 52 18
M  V30 55 1 53 19
M  V30 56 1 54 20
M  V30 57 1 55 27
M  V30 58 1 56 27
M  V30 59 1 57 28
M  V30 60 1 58 28
M  V30 61 1 59 29
M  V30 62 1 60 29
M  V30 63 1 61 30
M  V30 64 1 62 30
M  V30 65 1 63 13
M  V30 END BOND
M  V30 END CTAB
M  END
>  <b_m_subgroup_collapsed>  (180) 
0

>  <r_i_docking_score>  (180) 
-8.9211635302671706

>  <s_m_subgroup_title>  (180) 
glide-dock_SP_D22_pv

>  <s_m_subgroupid>  (180) 
glide-dock_SP_D22_pv

>  <Molecule ChEMBL ID>  (180) 
CHEMBL5402212

>  <Standard Type>  (180) 
Ki

>  <Standard Value>  (180) 
26.7

>  <label>  (180) 
1

$$$$
CHEMBL1765629
     RDKit          3D

  0  0  0  0  0  0  0  0  0  0999 V3000
M  V30 BEGIN CTAB
M  V30 COUNTS 67 70 0 0 1
M  V30 BEGIN ATOM
M  V30 1 C 10.246505 0.349792 -15.165109 0
M  V30 2 C 10.129957 1.843730 -15.489167 0
M  V30 3 C 10.707896 2.742034 -14.371025 0
M  V30 4 N 10.635504 4.211087 -14.660738 0 CFG=2 CHG=1
M  V30 5 C 9.236437 4.693687 -14.841594 0
M  V30 6 C 8.253856 4.334696 -13.702443 0
M  V30 7 C 8.635193 4.922256 -12.333283 0
M  V30 8 C 8.427444 6.445832 -12.241292 0
M  V30 9 N 8.886059 6.945457 -10.954600 0
M  V30 10 C 10.139807 7.292849 -10.642732 0
M  V30 11 O 11.046500 7.371955 -11.476199 0
M  V30 12 C 10.388059 7.583426 -9.190818 0
M  V30 13 C 9.688166 6.883303 -8.181526 0
M  V30 14 C 10.007822 7.079659 -6.823478 0
M  V30 15 C 11.026740 7.977186 -6.443643 0
M  V30 16 C 11.428524 8.116726 -5.034171 0
M  V30 17 C 11.684306 6.971577 -4.246588 0
M  V30 18 C 12.086041 7.086958 -2.902760 0
M  V30 19 C 12.246518 8.359495 -2.326092 0
M  V30 20 C 11.995322 9.508197 -3.096563 0
M  V30 21 C 11.594921 9.386232 -4.442124 0
M  V30 22 C 11.690117 8.704292 -7.454039 0
M  V30 23 C 11.384892 8.506921 -8.813616 0
M  V30 24 C 11.537789 4.715767 -15.757749 0 CFG=2
M  V30 25 C 12.893106 3.981287 -15.882147 0
M  V30 26 C 13.716120 4.460377 -17.092905 0
M  V30 27 N 13.726066 5.901167 -17.173609 0
M  V30 28 N 14.606069 6.536132 -17.971746 0
M  V30 29 C 14.294841 7.814646 -17.839981 0
M  V30 30 C 13.211372 8.028131 -16.940533 0
M  V30 31 C 12.859523 6.766177 -16.548830 0
M  V30 32 C 11.795947 6.248025 -15.629291 0
M  V30 33 H 9.815404 -0.254351 -15.961850 0
M  V30 34 H 9.720011 0.104698 -14.243550 0
M  V30 35 H 11.285408 0.047870 -15.048558 0
M  V30 36 H 10.630018 2.040906 -16.438183 0
M  V30 37 H 9.074197 2.064719 -15.647891 0
M  V30 38 H 10.184272 2.533964 -13.441275 0
M  V30 39 H 11.726667 2.451625 -14.138467 0
M  V30 40 H 9.223579 5.771569 -14.957034 0
M  V30 41 H 8.885745 4.302444 -15.790254 0
M  V30 42 H 7.261808 4.698527 -13.969701 0
M  V30 43 H 8.130514 3.255151 -13.619086 0
M  V30 44 H 8.020249 4.446607 -11.565865 0
M  V30 45 H 9.665603 4.661118 -12.087193 0
M  V30 46 H 8.930139 6.971123 -13.046625 0
M  V30 47 H 7.365626 6.680222 -12.334778 0
M  V30 48 H 8.162987 7.061549 -10.246957 0
M  V30 49 H 8.920396 6.164551 -8.434232 0
M  V30 50 H 9.472838 6.519930 -6.068503 0
M  V30 51 H 11.570138 5.986231 -4.676713 0
M  V30 52 H 12.267610 6.197407 -2.315640 0
M  V30 53 H 12.548612 8.458855 -1.293260 0
M  V30 54 H 12.096992 10.487630 -2.648605 0
M  V30 55 H 11.400934 10.276447 -5.020850 0
M  V30 56 H 12.486468 9.382818 -7.185981 0
M  V30 57 H 11.944983 9.045538 -9.566438 0
M  V30 58 H 11.020136 4.542352 -16.704819 0
M  V30 59 H 13.460417 4.164717 -14.970236 0
M  V30 60 H 12.775659 2.906392 -15.990767 0
M  V30 61 H 14.741857 4.097497 -17.046755 0
M  V30 62 H 13.280366 4.077531 -18.015850 0
M  V30 63 H 14.865872 8.546214 -18.390486 0
M  V30 64 H 12.757250 8.962391 -16.647379 0
M  V30 65 H 10.886424 6.799603 -15.846905 0
M  V30 66 H 12.071506 6.496665 -14.602601 0
M  V30 67 H 10.975530 4.651393 -13.815129 0
M  V30 END ATOM
M  V30 BEGIN BOND
M  V30 1 1 2 1
M  V30 2 1 3 2
M  V30 3 1 4 3
M  V30 4 1 5 4
M  V30 5 1 6 5
M  V30 6 1 7 6
M  V30 7 1 8 7
M  V30 8 1 9 8
M  V30 9 1 10 9
M  V30 10 2 11 10
M  V30 11 1 12 10
M  V30 12 1 13 12
M  V30 13 2 14 13
M  V30 14 1 15 14
M  V30 15 1 16 15
M  V30 16 2 17 16
M  V30 17 1 18 17
M  V30 18 2 19 18
M  V30 19 1 20 19
M  V30 20 1 21 16
M  V30 21 2 21 20
M  V30 22 2 22 15
M  V30 23 2 23 12
M  V30 24 1 23 22
M  V30 25 1 24 4
M  V30 26 1 25 24
M  V30 27 1 26 25
M  V30 28 1 27 26
M  V30 29 1 28 27
M  V30 30 2 29 28
M  V30 31 1 30 29
M  V30 32 1 31 27
M  V30 33 2 31 30
M  V30 34 1 32 24
M  V30 35 1 32 31
M  V30 36 1 33 1
M  V30 37 1 34 1
M  V30 38 1 35 1
M  V30 39 1 36 2
M  V30 40 1 37 2
M  V30 41 1 38 3
M  V30 42 1 39 3
M  V30 43 1 40 5
M  V30 44 1 41 5
M  V30 45 1 42 6
M  V30 46 1 43 6
M  V30 47 1 44 7
M  V30 48 1 45 7
M  V30 49 1 46 8
M  V30 50 1 47 8
M  V30 51 1 48 9
M  V30 52 1 49 13
M  V30 53 1 50 14
M  V30 54 1 51 17
M  V30 55 1 52 18
M  V30 56 1 53 19
M  V30 57 1 54 20
M  V30 58 1 55 21
M  V30 59 1 56 22
M  V30 60 1 57 23
M  V30 61 1 24 58 CFG=3
M  V30 62 1 59 25
M  V30 63 1 60 25
M  V30 64 1 61 26
M  V30 65 1 62 26
M  V30 66 1 63 29
M  V30 67 1 64 30
M  V30 68 1 65 32
M  V30 69 1 66 32
M  V30 70 1 4 67 CFG=1
M  V30 END BOND
M  V30 END CTAB
M  END
>  <b_m_subgroup_collapsed>  (181) 
0

>  <r_i_docking_score>  (181) 
-8.9209948521555802

>  <s_m_subgroup_title>  (181) 
glide-dock_SP_D22_pv

>  <s_m_subgroupid>  (181) 
glide-dock_SP_D22_pv

>  <Molecule ChEMBL ID>  (181) 
CHEMBL1765629

>  <Standard Type>  (181) 
Ki

>  <Standard Value>  (181) 
77.0

>  <label>  (181) 
1

$$$$
CHEMBL244989
     RDKit          3D

  0  0  0  0  0  0  0  0  0  0999 V3000
M  V30 BEGIN CTAB
M  V30 COUNTS 66 70 0 0 1
M  V30 BEGIN ATOM
M  V30 1 C 11.877102 10.669016 -6.247519 0
M  V30 2 O 10.929012 10.324575 -5.255055 0
M  V30 3 C 11.287659 9.192707 -4.571919 0
M  V30 4 C 11.821868 9.351725 -3.278466 0
M  V30 5 C 12.226278 8.232071 -2.534621 0
M  V30 6 C 12.101520 6.945891 -3.087811 0
M  V30 7 C 11.575430 6.779092 -4.382424 0
M  V30 8 C 11.145152 7.894794 -5.137749 0
M  V30 9 N 10.555801 7.717473 -6.408025 0
M  V30 10 C 10.899463 6.589887 -7.255701 0
M  V30 11 C 10.769924 6.995612 -8.737337 0
M  V30 12 N 9.473920 7.666064 -9.070610 0 CHG=1
M  V30 13 C 9.464191 8.226963 -10.446864 0
M  V30 14 C 9.766962 7.190815 -11.512759 0
M  V30 15 C 10.927749 7.138068 -12.197639 0
M  V30 16 C 11.297071 6.145550 -13.287458 0
M  V30 17 N 10.289492 5.108209 -13.437825 0
M  V30 18 C 10.012536 4.442105 -14.564513 0
M  V30 19 O 10.659256 4.551234 -15.605938 0
M  V30 20 C 8.852590 3.498544 -14.456885 0
M  V30 21 C 7.717719 3.840761 -13.671759 0
M  V30 22 C 6.610080 2.971135 -13.575624 0
M  V30 23 C 6.668702 1.745703 -14.261294 0
M  V30 24 C 7.762810 1.422535 -15.068745 0
M  V30 25 C 8.867651 2.282659 -15.178834 0
M  V30 26 C 7.548545 0.110394 -15.802729 0
M  V30 27 C 6.152040 -0.245381 -15.322373 0
M  V30 28 C 5.343498 -1.314296 -15.752281 0
M  V30 29 C 4.043131 -1.426479 -15.217793 0
M  V30 30 C 3.577358 -0.497264 -14.259746 0
M  V30 31 C 4.401248 0.571415 -13.845276 0
M  V30 32 C 5.685682 0.683060 -14.392186 0
M  V30 33 C 9.099782 8.718943 -8.090377 0
M  V30 34 C 9.217426 8.236691 -6.644803 0
M  V30 35 H 11.686350 11.667402 -6.635700 0
M  V30 36 H 12.886662 10.651370 -5.846195 0
M  V30 37 H 11.832238 9.974390 -7.082842 0
M  V30 38 H 11.920919 10.339595 -2.851789 0
M  V30 39 H 12.625344 8.361678 -1.539444 0
M  V30 40 H 12.405238 6.080178 -2.516256 0
M  V30 41 H 11.473176 5.775935 -4.769181 0
M  V30 42 H 10.216886 5.771614 -7.035408 0
M  V30 43 H 11.912834 6.239573 -7.046573 0
M  V30 44 H 10.887136 6.111002 -9.359220 0
M  V30 45 H 11.591765 7.670099 -8.986812 0
M  V30 46 H 10.204568 9.023942 -10.513916 0
M  V30 47 H 8.490329 8.670547 -10.664922 0
M  V30 48 H 8.976958 6.478070 -11.701122 0
M  V30 49 H 11.696318 7.862150 -11.973674 0
M  V30 50 H 11.435872 6.691317 -14.222068 0
M  V30 51 H 12.253937 5.679215 -13.046973 0
M  V30 52 H 9.724792 4.891221 -12.631415 0
M  V30 53 H 7.674020 4.783264 -13.144858 0
M  V30 54 H 5.744361 3.240342 -12.988532 0
M  V30 55 H 9.704155 2.018440 -15.808419 0
M  V30 56 H 7.576544 0.243684 -16.883438 0
M  V30 57 H 8.290104 -0.624943 -15.493475 0
M  V30 58 H 5.701219 -2.027859 -16.481112 0
M  V30 59 H 3.395088 -2.227657 -15.543949 0
M  V30 60 H 2.574649 -0.594771 -13.866891 0
M  V30 61 H 4.061018 1.319084 -13.146638 0
M  V30 62 H 9.758804 9.574685 -8.222748 0
M  V30 63 H 8.085993 9.069485 -8.281734 0
M  V30 64 H 8.486297 7.449916 -6.452208 0
M  V30 65 H 8.984007 9.050537 -5.966066 0
M  V30 66 H 8.740719 6.970246 -9.020315 0
M  V30 END ATOM
M  V30 BEGIN BOND
M  V30 1 1 2 1
M  V30 2 1 3 2
M  V30 3 2 4 3
M  V30 4 1 5 4
M  V30 5 2 6 5
M  V30 6 1 7 6
M  V30 7 1 8 3
M  V30 8 2 8 7
M  V30 9 1 9 8
M  V30 10 1 10 9
M  V30 11 1 11 10
M  V30 12 1 12 11
M  V30 13 1 13 12
M  V30 14 1 14 13
M  V30 15 2 15 14
M  V30 16 1 16 15
M  V30 17 1 17 16
M  V30 18 1 18 17
M  V30 19 2 19 18
M  V30 20 1 20 18
M  V30 21 2 21 20
M  V30 22 1 22 21
M  V30 23 2 23 22
M  V30 24 1 24 23
M  V30 25 1 25 20
M  V30 26 2 25 24
M  V30 27 1 26 24
M  V30 28 1 27 26
M  V30 29 2 28 27
M  V30 30 1 29 28
M  V30 31 2 30 29
M  V30 32 1 31 30
M  V30 33 1 32 23
M  V30 34 1 32 27
M  V30 35 2 32 31
M  V30 36 1 33 12
M  V30 37 1 34 9
M  V30 38 1 34 33
M  V30 39 1 35 1
M  V30 40 1 36 1
M  V30 41 1 37 1
M  V30 42 1 38 4
M  V30 43 1 39 5
M  V30 44 1 40 6
M  V30 45 1 41 7
M  V30 46 1 42 10
M  V30 47 1 43 10
M  V30 48 1 44 11
M  V30 49 1 45 11
M  V30 50 1 46 13
M  V30 51 1 47 13
M  V30 52 1 48 14
M  V30 53 1 49 15
M  V30 54 1 50 16
M  V30 55 1 51 16
M  V30 56 1 52 17
M  V30 57 1 53 21
M  V30 58 1 54 22
M  V30 59 1 55 25
M  V30 60 1 56 26
M  V30 61 1 57 26
M  V30 62 1 58 28
M  V30 63 1 59 29
M  V30 64 1 60 30
M  V30 65 1 61 31
M  V30 66 1 62 33
M  V30 67 1 63 33
M  V30 68 1 64 34
M  V30 69 1 65 34
M  V30 70 1 66 12
M  V30 END BOND
M  V30 END CTAB
M  END
>  <b_m_subgroup_collapsed>  (182) 
0

>  <r_i_docking_score>  (182) 
-8.9188817321277707

>  <s_m_subgroup_title>  (182) 
glide-dock_SP_D22_pv

>  <s_m_subgroupid>  (182) 
glide-dock_SP_D22_pv

>  <Molecule ChEMBL ID>  (182) 
CHEMBL244989

>  <Standard Type>  (182) 
Ki

>  <Standard Value>  (182) 
48.4

>  <label>  (182) 
1

$$$$
CHEMBL4777080
     RDKit          3D

  0  0  0  0  0  0  0  0  0  0999 V3000
M  V30 BEGIN CTAB
M  V30 COUNTS 63 66 0 0 1
M  V30 BEGIN ATOM
M  V30 1 O 10.971085 9.773185 -7.081715 0
M  V30 2 C 10.930309 8.619442 -6.665148 0
M  V30 3 C 11.272428 8.403102 -5.205588 0
M  V30 4 C 11.681500 7.159416 -4.662060 0
M  V30 5 C 12.141700 7.069462 -3.334764 0
M  V30 6 C 12.238621 8.226504 -2.543743 0
M  V30 7 F 12.764587 8.171223 -1.301535 0
M  V30 8 C 11.816605 9.458908 -3.056116 0
M  V30 9 C 11.318480 9.544043 -4.366012 0
M  V30 10 N 10.690971 7.591424 -7.515771 0
M  V30 11 C 10.076573 6.295805 -7.182930 0
M  V30 12 C 8.856634 6.003621 -8.078354 0
M  V30 13 C 9.218502 6.121613 -9.565438 0
M  V30 14 N 8.084472 5.771415 -10.461120 0 CHG=1
M  V30 15 C 8.470860 5.513470 -11.873587 0
M  V30 16 C 9.267561 4.199789 -12.050974 0
M  V30 17 S 10.508263 4.338739 -13.430856 0
M  V30 18 O 11.041635 5.773933 -13.436637 0
M  V30 19 C 9.458121 4.114343 -14.951954 0
M  V30 20 C 8.611013 2.849760 -14.818871 0
M  V30 21 C 7.260860 2.959351 -14.418252 0
M  V30 22 C 6.482769 1.800954 -14.222225 0
M  V30 23 C 7.035636 0.524502 -14.440531 0
M  V30 24 F 6.289243 -0.588120 -14.229079 0
M  V30 25 C 8.372643 0.404290 -14.862689 0
M  V30 26 C 9.160219 1.562188 -15.040506 0
M  V30 27 C 10.338204 4.148960 -16.202744 0
M  V30 28 C 9.882720 4.817038 -17.361357 0
M  V30 29 C 10.682586 4.867858 -18.519024 0
M  V30 30 C 11.946428 4.247485 -18.534672 0
M  V30 31 F 12.713603 4.297270 -19.647724 0
M  V30 32 C 12.413918 3.581180 -17.386515 0
M  V30 33 C 11.613908 3.532811 -16.229290 0
M  V30 34 C 9.773104 7.531581 -9.825879 0
M  V30 35 C 11.008995 7.742359 -8.946742 0
M  V30 36 H 11.724498 6.261492 -5.255692 0
M  V30 37 H 12.471546 6.121117 -2.939255 0
M  V30 38 H 11.895804 10.340358 -2.445651 0
M  V30 39 H 11.022252 10.513508 -4.734971 0
M  V30 40 H 10.830279 5.516486 -7.307147 0
M  V30 41 H 9.719733 6.266177 -6.154920 0
M  V30 42 H 8.454249 5.014277 -7.852806 0
M  V30 43 H 8.087816 6.730006 -7.829216 0
M  V30 44 H 10.026392 5.411862 -9.727180 0
M  V30 45 H 7.591030 4.966049 -10.096228 0
M  V30 46 H 7.562329 5.461918 -12.473402 0
M  V30 47 H 9.015892 6.373213 -12.258670 0
M  V30 48 H 9.842653 3.924680 -11.166714 0
M  V30 49 H 8.594049 3.372311 -12.215418 0
M  V30 50 H 8.797626 4.979462 -14.996266 0
M  V30 51 H 6.817489 3.927209 -14.229602 0
M  V30 52 H 5.457740 1.884236 -13.885980 0
M  V30 53 H 8.790664 -0.583111 -15.027337 0
M  V30 54 H 10.191626 1.445006 -15.335641 0
M  V30 55 H 8.913292 5.296080 -17.374636 0
M  V30 56 H 10.320840 5.379711 -19.399624 0
M  V30 57 H 13.384703 3.107507 -17.393213 0
M  V30 58 H 11.995598 3.014997 -15.361321 0
M  V30 59 H 10.070248 7.665236 -10.865842 0
M  V30 60 H 9.016410 8.291858 -9.613736 0
M  V30 61 H 11.473471 8.700325 -9.192493 0
M  V30 62 H 11.750004 6.994204 -9.214538 0
M  V30 63 H 7.430748 6.556659 -10.426303 0
M  V30 END ATOM
M  V30 BEGIN BOND
M  V30 1 2 2 1
M  V30 2 1 3 2
M  V30 3 2 4 3
M  V30 4 1 5 4
M  V30 5 2 6 5
M  V30 6 1 7 6
M  V30 7 1 8 6
M  V30 8 1 9 3
M  V30 9 2 9 8
M  V30 10 1 10 2
M  V30 11 1 11 10
M  V30 12 1 12 11
M  V30 13 1 13 12
M  V30 14 1 14 13
M  V30 15 1 15 14
M  V30 16 1 16 15
M  V30 17 1 17 16 CFG=1
M  V30 18 2 18 17
M  V30 19 1 19 17
M  V30 20 1 20 19
M  V30 21 2 21 20
M  V30 22 1 22 21
M  V30 23 2 23 22
M  V30 24 1 24 23
M  V30 25 1 25 23
M  V30 26 1 26 20
M  V30 27 2 26 25
M  V30 28 1 27 19
M  V30 29 2 28 27
M  V30 30 1 29 28
M  V30 31 2 30 29
M  V30 32 1 31 30
M  V30 33 1 32 30
M  V30 34 1 33 27
M  V30 35 2 33 32
M  V30 36 1 34 13
M  V30 37 1 35 10
M  V30 38 1 35 34
M  V30 39 1 36 4
M  V30 40 1 37 5
M  V30 41 1 38 8
M  V30 42 1 39 9
M  V30 43 1 40 11
M  V30 44 1 41 11
M  V30 45 1 42 12
M  V30 46 1 43 12
M  V30 47 1 44 13
M  V30 48 1 45 14
M  V30 49 1 46 15
M  V30 50 1 47 15
M  V30 51 1 48 16
M  V30 52 1 49 16
M  V30 53 1 50 19
M  V30 54 1 51 21
M  V30 55 1 52 22
M  V30 56 1 53 25
M  V30 57 1 54 26
M  V30 58 1 55 28
M  V30 59 1 56 29
M  V30 60 1 57 32
M  V30 61 1 58 33
M  V30 62 1 59 34
M  V30 63 1 60 34
M  V30 64 1 61 35
M  V30 65 1 62 35
M  V30 66 1 63 14
M  V30 END BOND
M  V30 END CTAB
M  END
>  <b_m_subgroup_collapsed>  (183) 
0

>  <r_i_docking_score>  (183) 
-8.9143415175295502

>  <s_m_subgroup_title>  (183) 
glide-dock_SP_D22_pv

>  <s_m_subgroupid>  (183) 
glide-dock_SP_D22_pv

>  <Molecule ChEMBL ID>  (183) 
CHEMBL4777080

>  <Standard Type>  (183) 
Ki

>  <Standard Value>  (183) 
156000.0

>  <label>  (183) 
0

$$$$
CHEMBL5760252
     RDKit          3D

  0  0  0  0  0  0  0  0  0  0999 V3000
M  V30 BEGIN CTAB
M  V30 COUNTS 60 64 0 0 1
M  V30 BEGIN ATOM
M  V30 1 C 11.215634 10.551143 -5.938387 0
M  V30 2 N 11.313097 9.198896 -5.456686 0
M  V30 3 C 11.046141 8.034728 -6.101879 0
M  V30 4 S 10.415554 7.960618 -7.751214 0
M  V30 5 C 9.623288 6.324305 -7.630344 0
M  V30 6 C 8.733812 5.978715 -8.823954 0
M  V30 7 C 9.490376 5.573737 -10.096632 0
M  V30 8 N 8.591909 4.924448 -11.079503 0 CFG=1 CHG=1
M  V30 9 C 7.447358 5.729821 -11.532359 0
M  V30 10 C 6.943605 5.026872 -12.780787 0 CFG=2
M  V30 11 C 5.983981 3.859591 -12.530145 0
M  V30 12 C 6.343856 2.881864 -13.642869 0
M  V30 13 N 7.773914 3.059028 -13.846869 0
M  V30 14 C 8.486941 2.297054 -14.797905 0
M  V30 15 C 7.898679 1.154395 -15.391826 0
M  V30 16 C 8.597464 0.393926 -16.347380 0
M  V30 17 C 9.904325 0.751390 -16.731289 0
M  V30 18 C 10.624372 -0.067312 -17.793612 0
M  V30 19 F 10.085082 0.191504 -18.983980 0
M  V30 20 F 11.925682 0.217128 -17.846735 0
M  V30 21 F 10.486001 -1.368055 -17.537867 0
M  V30 22 C 10.506850 1.880000 -16.135954 0
M  V30 23 C 9.805602 2.643439 -15.179953 0
M  V30 24 C 8.186429 4.387063 -13.406465 0 CFG=2
M  V30 25 C 9.247579 4.367891 -12.284325 0
M  V30 26 N 11.286014 6.931981 -5.396673 0
M  V30 27 C 11.691719 7.427456 -4.183786 0
M  V30 28 C 12.086044 6.757839 -3.015648 0
M  V30 29 C 12.486022 7.491747 -1.890657 0
M  V30 30 C 12.486024 8.895233 -1.892653 0
M  V30 31 C 12.085979 9.579505 -3.046871 0
M  V30 32 C 11.711091 8.845288 -4.182894 0
M  V30 33 H 10.885873 11.212538 -5.136680 0
M  V30 34 H 10.486019 10.572330 -6.726925 0
M  V30 35 H 12.183577 10.883763 -6.313057 0
M  V30 36 H 10.383183 5.555321 -7.492507 0
M  V30 37 H 9.001209 6.322982 -6.733678 0
M  V30 38 H 8.086022 5.155345 -8.521922 0
M  V30 39 H 8.086022 6.824988 -9.033131 0
M  V30 40 H 9.989461 6.436717 -10.539925 0
M  V30 41 H 10.259928 4.853334 -9.827325 0
M  V30 42 H 6.676311 5.772322 -10.770813 0
M  V30 43 H 7.770970 6.742429 -11.779291 0
M  V30 44 H 6.459789 5.735065 -13.446864 0
M  V30 45 H 6.176936 3.398022 -11.560339 0
M  V30 46 H 4.935846 4.158977 -12.553338 0
M  V30 47 H 6.085983 1.860594 -13.360966 0
M  V30 48 H 5.818150 3.138175 -14.562650 0
M  V30 49 H 6.900445 0.837145 -15.132507 0
M  V30 50 H 8.123195 -0.470203 -16.790367 0
M  V30 51 H 11.508852 2.171971 -16.414579 0
M  V30 52 H 10.301291 3.500451 -14.751189 0
M  V30 53 H 8.531339 4.983435 -14.252695 0
M  V30 54 H 10.085958 5.003092 -12.574082 0
M  V30 55 H 9.646479 3.372335 -12.083692 0
M  V30 56 H 12.107197 5.682982 -2.994256 0
M  V30 57 H 12.886023 6.957509 -1.046863 0
M  V30 58 H 12.818251 9.449432 -1.028274 0
M  V30 59 H 12.079660 10.654655 -3.046848 0
M  V30 60 H 8.172188 4.133484 -10.611830 0
M  V30 END ATOM
M  V30 BEGIN BOND
M  V30 1 1 2 1
M  V30 2 1 3 2
M  V30 3 1 4 3
M  V30 4 1 5 4
M  V30 5 1 6 5
M  V30 6 1 7 6
M  V30 7 1 8 7
M  V30 8 1 9 8
M  V30 9 1 10 9
M  V30 10 1 11 10
M  V30 11 1 12 11
M  V30 12 1 13 12
M  V30 13 1 14 13
M  V30 14 1 15 14
M  V30 15 2 16 15
M  V30 16 1 17 16
M  V30 17 1 18 17
M  V30 18 1 19 18
M  V30 19 1 20 18
M  V30 20 1 21 18
M  V30 21 2 22 17
M  V30 22 2 23 14
M  V30 23 1 23 22
M  V30 24 1 24 10
M  V30 25 1 24 13
M  V30 26 1 25 8
M  V30 27 1 25 24
M  V30 28 2 26 3
M  V30 29 1 27 26
M  V30 30 2 28 27
M  V30 31 1 29 28
M  V30 32 2 30 29
M  V30 33 1 31 30
M  V30 34 1 32 2
M  V30 35 1 32 27
M  V30 36 2 32 31
M  V30 37 1 33 1
M  V30 38 1 34 1
M  V30 39 1 35 1
M  V30 40 1 36 5
M  V30 41 1 37 5
M  V30 42 1 38 6
M  V30 43 1 39 6
M  V30 44 1 40 7
M  V30 45 1 41 7
M  V30 46 1 42 9
M  V30 47 1 43 9
M  V30 48 1 10 44 CFG=3
M  V30 49 1 45 11
M  V30 50 1 46 11
M  V30 51 1 47 12
M  V30 52 1 48 12
M  V30 53 1 49 15
M  V30 54 1 50 16
M  V30 55 1 51 22
M  V30 56 1 52 23
M  V30 57 1 24 53 CFG=3
M  V30 58 1 54 25
M  V30 59 1 55 25
M  V30 60 1 56 28
M  V30 61 1 57 29
M  V30 62 1 58 30
M  V30 63 1 59 31
M  V30 64 1 8 60 CFG=1
M  V30 END BOND
M  V30 END CTAB
M  END
>  <b_m_subgroup_collapsed>  (184) 
0

>  <r_i_docking_score>  (184) 
-8.9092611526974306

>  <s_m_subgroup_title>  (184) 
glide-dock_SP_D22_pv

>  <s_m_subgroupid>  (184) 
glide-dock_SP_D22_pv

>  <Molecule ChEMBL ID>  (184) 
CHEMBL5760252

>  <Standard Type>  (184) 
Ki

>  <Standard Value>  (184) 
57.5

>  <label>  (184) 
1

$$$$
CHEMBL442093
     RDKit          3D

  0  0  0  0  0  0  0  0  0  0999 V3000
M  V30 BEGIN CTAB
M  V30 COUNTS 43 46 0 0 1
M  V30 BEGIN ATOM
M  V30 1 O 12.206658 7.589402 -14.859598 0
M  V30 2 C 12.356769 6.557629 -13.914066 0 CFG=2
M  V30 3 C 12.492807 5.186980 -14.628233 0
M  V30 4 C 11.163412 4.421649 -14.418130 0
M  V30 5 C 10.460345 5.206725 -13.343916 0
M  V30 6 C 9.258794 4.871033 -12.692231 0
M  V30 7 C 8.744008 5.771384 -11.731801 0
M  V30 8 C 9.445395 6.964126 -11.433340 0
M  V30 9 N 8.886038 7.874153 -10.481488 0
M  V30 10 C 9.725760 8.524801 -9.647443 0
M  V30 11 N 9.740099 8.411421 -8.300920 0 CHG=1
M  V30 12 C 8.905149 7.453577 -7.565102 0
M  V30 13 C 9.747172 6.612732 -6.598787 0
M  V30 14 C 10.769784 7.408131 -5.803875 0
M  V30 15 C 11.286012 6.888090 -4.599819 0
M  V30 16 C 12.124370 7.672680 -3.785657 0
M  V30 17 C 12.485815 8.970859 -4.193024 0
M  V30 18 C 12.023803 9.470738 -5.423741 0
M  V30 19 C 11.165296 8.692635 -6.226793 0
M  V30 20 C 10.633434 9.281432 -7.509760 0
M  V30 21 C 10.666465 7.273271 -12.068979 0
M  V30 22 C 11.139989 6.383550 -13.046680 0
M  V30 23 H 12.987458 7.627337 -15.390498 0
M  V30 24 H 13.217662 6.808413 -13.303030 0
M  V30 25 H 12.783673 5.260683 -15.676823 0
M  V30 26 H 13.280706 4.623956 -14.127542 0
M  V30 27 H 11.326423 3.386592 -14.115153 0
M  V30 28 H 10.557459 4.432673 -15.324117 0
M  V30 29 H 8.732059 3.958622 -12.931197 0
M  V30 30 H 7.812798 5.549577 -11.229695 0
M  V30 31 H 10.443429 9.202244 -10.093667 0
M  V30 32 H 8.161592 8.024354 -7.005620 0
M  V30 33 H 8.353747 6.797507 -8.237573 0
M  V30 34 H 10.243814 5.797623 -7.126482 0
M  V30 35 H 9.060492 6.172061 -5.879011 0
M  V30 36 H 10.996701 5.900643 -4.269536 0
M  V30 37 H 12.486286 7.279956 -2.846954 0
M  V30 38 H 13.124126 9.580860 -3.570163 0
M  V30 39 H 12.316486 10.460836 -5.741581 0
M  V30 40 H 11.471838 9.603272 -8.125970 0
M  V30 41 H 10.086348 10.164831 -7.193840 0
M  V30 42 H 11.214252 8.171530 -11.842685 0
M  V30 43 H 7.871121 7.772431 -10.241441 0
M  V30 END ATOM
M  V30 BEGIN BOND
M  V30 1 1 2 1
M  V30 2 1 3 2
M  V30 3 1 4 3
M  V30 4 1 5 4
M  V30 5 1 6 5
M  V30 6 2 7 6
M  V30 7 1 8 7
M  V30 8 1 9 8
M  V30 9 1 10 9
M  V30 10 2 11 10 CFG=2
M  V30 11 1 12 11
M  V30 12 1 13 12
M  V30 13 1 14 13
M  V30 14 2 15 14
M  V30 15 1 16 15
M  V30 16 2 17 16
M  V30 17 1 18 17
M  V30 18 1 19 14
M  V30 19 2 19 18
M  V30 20 1 20 11
M  V30 21 1 20 19
M  V30 22 2 21 8
M  V30 23 1 22 2
M  V30 24 2 22 5
M  V30 25 1 22 21
M  V30 26 1 23 1
M  V30 27 1 2 24 CFG=1
M  V30 28 1 25 3
M  V30 29 1 26 3
M  V30 30 1 27 4
M  V30 31 1 28 4
M  V30 32 1 29 6
M  V30 33 1 30 7
M  V30 34 1 31 10
M  V30 35 1 32 12
M  V30 36 1 33 12
M  V30 37 1 34 13
M  V30 38 1 35 13
M  V30 39 1 36 15
M  V30 40 1 37 16
M  V30 41 1 38 17
M  V30 42 1 39 18
M  V30 43 1 40 20
M  V30 44 1 41 20
M  V30 45 1 42 21
M  V30 46 1 43 9
M  V30 END BOND
M  V30 END CTAB
M  END
>  <b_m_subgroup_collapsed>  (185) 
0

>  <r_i_docking_score>  (185) 
-8.9091336301928994

>  <s_m_subgroup_title>  (185) 
glide-dock_SP_D22_pv

>  <s_m_subgroupid>  (185) 
glide-dock_SP_D22_pv

>  <Molecule ChEMBL ID>  (185) 
CHEMBL442093

>  <Standard Type>  (185) 
Ki

>  <Standard Value>  (185) 
300000.0

>  <label>  (185) 
0

$$$$
CHEMBL4098399
     RDKit          3D

  0  0  0  0  0  0  0  0  0  0999 V3000
M  V30 BEGIN CTAB
M  V30 COUNTS 57 61 0 0 1
M  V30 BEGIN ATOM
M  V30 1 C 12.261249 9.960599 -6.645637 0
M  V30 2 N 11.401370 8.797451 -6.661056 0
M  V30 3 C 10.734127 8.265667 -7.701840 0
M  V30 4 S 10.798770 8.970161 -9.318387 0
M  V30 5 C 10.865995 7.453383 -10.313858 0
M  V30 6 C 9.526264 6.695302 -10.348181 0
M  V30 7 C 8.951234 6.538329 -11.758500 0
M  V30 8 N 7.688872 5.771318 -11.732023 0 CFG=2 CHG=1
M  V30 9 C 7.810051 4.314990 -11.635737 0
M  V30 10 C 6.749276 4.189289 -12.734481 0 CFG=2
M  V30 11 C 5.373854 3.631895 -12.363841 0
M  V30 12 C 5.702661 2.387791 -13.182196 0
M  V30 13 N 6.728980 3.204073 -13.818205 0
M  V30 14 C 7.911461 2.565921 -14.300642 0
M  V30 15 C 9.118743 3.269042 -14.539841 0
M  V30 16 C 10.254907 2.647424 -15.094619 0
M  V30 17 C 10.213461 1.287265 -15.437446 0
M  V30 18 F 11.281818 0.692226 -16.014746 0
M  V30 19 C 9.042611 0.552598 -15.199508 0
M  V30 20 C 7.915988 1.190080 -14.648685 0
M  V30 21 C 6.999409 5.669162 -13.008619 0
M  V30 22 N 10.043504 7.172519 -7.382275 0
M  V30 23 N 10.281065 6.966380 -6.050744 0
M  V30 24 C 11.100022 7.944193 -5.666139 0
M  V30 25 C 11.604610 8.033419 -4.310064 0
M  V30 26 C 11.599540 9.263659 -3.622919 0
M  V30 27 C 12.086368 9.334988 -2.314912 0
M  V30 28 C 12.511650 8.171541 -1.661800 0
M  V30 29 C 12.483770 6.931983 -2.326040 0
M  V30 30 C 12.046879 6.867521 -3.656452 0
M  V30 31 H 11.701345 10.808840 -7.044959 0
M  V30 32 H 12.629425 10.218127 -5.661344 0
M  V30 33 H 13.155616 9.739915 -7.224018 0
M  V30 34 H 11.183269 7.726636 -11.320360 0
M  V30 35 H 11.650854 6.816166 -9.907858 0
M  V30 36 H 9.661363 5.713729 -9.892356 0
M  V30 37 H 8.785910 7.207273 -9.733499 0
M  V30 38 H 8.747723 7.528440 -12.171724 0
M  V30 39 H 9.675169 6.058090 -12.419787 0
M  V30 40 H 8.792429 3.929689 -11.908721 0
M  V30 41 H 7.495168 3.954203 -10.656106 0
M  V30 42 H 5.280976 3.440186 -11.297540 0
M  V30 43 H 4.525792 4.174570 -12.776465 0
M  V30 44 H 4.901240 2.066684 -13.846869 0
M  V30 45 H 6.080484 1.569373 -12.570562 0
M  V30 46 H 9.184292 4.321971 -14.319919 0
M  V30 47 H 11.151114 3.220551 -15.276534 0
M  V30 48 H 8.999049 -0.495600 -15.457048 0
M  V30 49 H 7.027057 0.592934 -14.514412 0
M  V30 50 H 6.106187 6.293514 -13.045130 0
M  V30 51 H 7.685401 5.841838 -13.842287 0
M  V30 52 H 11.204474 10.159484 -4.079733 0
M  V30 53 H 12.093630 10.282779 -1.811014 0
M  V30 54 H 12.878551 8.224793 -0.646485 0
M  V30 55 H 12.811376 6.032622 -1.825834 0
M  V30 56 H 12.032875 5.916307 -4.169638 0
M  V30 57 H 7.051499 6.147433 -11.034394 0
M  V30 END ATOM
M  V30 BEGIN BOND
M  V30 1 1 2 1
M  V30 2 1 3 2
M  V30 3 1 4 3
M  V30 4 1 5 4
M  V30 5 1 6 5
M  V30 6 1 7 6
M  V30 7 1 8 7
M  V30 8 1 9 8
M  V30 9 1 10 9
M  V30 10 1 11 10
M  V30 11 1 12 11
M  V30 12 1 10 13 CFG=1
M  V30 13 1 13 12
M  V30 14 1 14 13
M  V30 15 1 15 14
M  V30 16 2 16 15
M  V30 17 1 17 16
M  V30 18 1 18 17
M  V30 19 2 19 17
M  V30 20 2 20 14
M  V30 21 1 20 19
M  V30 22 1 21 8
M  V30 23 1 21 10
M  V30 24 2 22 3
M  V30 25 1 23 22
M  V30 26 1 24 2
M  V30 27 2 24 23
M  V30 28 1 25 24
M  V30 29 2 26 25
M  V30 30 1 27 26
M  V30 31 2 28 27
M  V30 32 1 29 28
M  V30 33 1 30 25
M  V30 34 2 30 29
M  V30 35 1 31 1
M  V30 36 1 32 1
M  V30 37 1 33 1
M  V30 38 1 34 5
M  V30 39 1 35 5
M  V30 40 1 36 6
M  V30 41 1 37 6
M  V30 42 1 38 7
M  V30 43 1 39 7
M  V30 44 1 40 9
M  V30 45 1 41 9
M  V30 46 1 42 11
M  V30 47 1 43 11
M  V30 48 1 44 12
M  V30 49 1 45 12
M  V30 50 1 46 15
M  V30 51 1 47 16
M  V30 52 1 48 19
M  V30 53 1 49 20
M  V30 54 1 50 21
M  V30 55 1 51 21
M  V30 56 1 52 26
M  V30 57 1 53 27
M  V30 58 1 54 28
M  V30 59 1 55 29
M  V30 60 1 56 30
M  V30 61 1 8 57 CFG=1
M  V30 END BOND
M  V30 END CTAB
M  END
>  <b_m_subgroup_collapsed>  (186) 
0

>  <r_i_docking_score>  (186) 
-8.9042921209213794

>  <s_m_subgroup_title>  (186) 
glide-dock_SP_D22_pv

>  <s_m_subgroupid>  (186) 
glide-dock_SP_D22_pv

>  <Molecule ChEMBL ID>  (186) 
CHEMBL4098399

>  <Standard Type>  (186) 
Ki

>  <Standard Value>  (186) 
109574.0

>  <label>  (186) 
0

$$$$
CHEMBL123937
     RDKit          3D

  0  0  0  0  0  0  0  0  0  0999 V3000
M  V30 BEGIN CTAB
M  V30 COUNTS 53 57 0 0 1
M  V30 BEGIN ATOM
M  V30 1 O 11.686258 6.084903 -6.089710 0
M  V30 2 C 11.289036 7.200517 -5.809326 0
M  V30 3 C 11.614980 7.825668 -4.510490 0
M  V30 4 C 12.086541 7.006708 -3.462538 0
M  V30 5 C 12.481315 7.578869 -2.245495 0
M  V30 6 C 12.359810 8.963984 -2.046146 0
M  V30 7 C 11.845215 9.773859 -3.074081 0
M  V30 8 C 11.502630 9.218695 -4.319168 0
M  V30 9 C 11.016144 10.106521 -5.443668 0
M  V30 10 C 10.088804 9.327006 -6.386729 0
M  V30 11 C 10.646072 8.010287 -6.926316 0 CFG=1
M  V30 12 C 11.710941 8.276950 -8.030311 0
M  V30 13 C 11.105230 8.758128 -9.358769 0
M  V30 14 N 10.043001 7.827890 -9.803333 0 CFG=2 CHG=1
M  V30 15 C 9.509237 8.124442 -11.143381 0
M  V30 16 C 9.588924 6.861936 -11.963608 0
M  V30 17 C 8.492852 5.975370 -12.020366 0
M  V30 18 C 8.579857 4.796427 -12.784122 0
M  V30 19 C 9.755422 4.509219 -13.506882 0
M  V30 20 C 9.835856 3.343887 -14.296082 0
M  V30 21 C 10.999321 3.078462 -15.043252 0
M  V30 22 C 12.086013 3.973300 -14.998034 0
M  V30 23 C 12.022170 5.125496 -14.192204 0
M  V30 24 C 10.857596 5.399334 -13.446832 0
M  V30 25 C 10.779094 6.564106 -12.655458 0
M  V30 26 C 8.970491 7.673292 -8.803235 0
M  V30 27 C 9.513283 7.125358 -7.499685 0
M  V30 28 H 12.175373 5.937123 -3.591208 0
M  V30 29 H 12.879913 6.951195 -1.460871 0
M  V30 30 H 12.642894 9.403167 -1.100486 0
M  V30 31 H 11.708172 10.828153 -2.898572 0
M  V30 32 H 10.486233 10.968233 -5.035008 0
M  V30 33 H 11.880983 10.496741 -5.980911 0
M  V30 34 H 9.799953 9.942397 -7.227012 0
M  V30 35 H 9.171438 9.109598 -5.848328 0
M  V30 36 H 12.451990 8.998549 -7.685947 0
M  V30 37 H 12.281260 7.373134 -8.238479 0
M  V30 38 H 10.705242 9.768715 -9.272580 0
M  V30 39 H 11.893275 8.803988 -10.112967 0
M  V30 40 H 8.485673 8.496382 -11.102848 0
M  V30 41 H 10.085541 8.909444 -11.625546 0
M  V30 42 H 7.582762 6.192945 -11.477712 0
M  V30 43 H 7.736158 4.122590 -12.820877 0
M  V30 44 H 9.004816 2.654552 -14.339786 0
M  V30 45 H 11.057956 2.189181 -15.653157 0
M  V30 46 H 12.975981 3.770455 -15.576029 0
M  V30 47 H 12.866596 5.799722 -14.158506 0
M  V30 48 H 11.620543 7.241012 -12.610843 0
M  V30 49 H 8.479905 8.633018 -8.644917 0
M  V30 50 H 8.222633 6.971315 -9.171663 0
M  V30 51 H 9.850439 6.106435 -7.699977 0
M  V30 52 H 8.696234 7.027452 -6.782073 0
M  V30 53 H 10.474959 6.919010 -9.889498 0
M  V30 END ATOM
M  V30 BEGIN BOND
M  V30 1 2 2 1
M  V30 2 1 3 2
M  V30 3 2 4 3
M  V30 4 1 5 4
M  V30 5 2 6 5
M  V30 6 1 7 6
M  V30 7 1 8 3
M  V30 8 2 8 7
M  V30 9 1 9 8
M  V30 10 1 10 9
M  V30 11 1 11 2
M  V30 12 1 11 10 CFG=1
M  V30 13 1 12 11
M  V30 14 1 13 12
M  V30 15 1 14 13
M  V30 16 1 15 14
M  V30 17 1 16 15
M  V30 18 1 17 16
M  V30 19 2 18 17
M  V30 20 1 19 18
M  V30 21 2 20 19
M  V30 22 1 21 20
M  V30 23 2 22 21
M  V30 24 1 23 22
M  V30 25 1 24 19
M  V30 26 2 24 23
M  V30 27 2 25 16
M  V30 28 1 25 24
M  V30 29 1 26 14
M  V30 30 1 27 11
M  V30 31 1 27 26
M  V30 32 1 28 4
M  V30 33 1 29 5
M  V30 34 1 30 6
M  V30 35 1 31 7
M  V30 36 1 32 9
M  V30 37 1 33 9
M  V30 38 1 34 10
M  V30 39 1 35 10
M  V30 40 1 36 12
M  V30 41 1 37 12
M  V30 42 1 38 13
M  V30 43 1 39 13
M  V30 44 1 40 15
M  V30 45 1 41 15
M  V30 46 1 42 17
M  V30 47 1 43 18
M  V30 48 1 44 20
M  V30 49 1 45 21
M  V30 50 1 46 22
M  V30 51 1 47 23
M  V30 52 1 48 25
M  V30 53 1 49 26
M  V30 54 1 50 26
M  V30 55 1 51 27
M  V30 56 1 52 27
M  V30 57 1 14 53 CFG=3
M  V30 END BOND
M  V30 END CTAB
M  END
>  <b_m_subgroup_collapsed>  (187) 
0

>  <r_i_docking_score>  (187) 
-8.9008926594530902

>  <s_m_subgroup_title>  (187) 
glide-dock_SP_D22_pv

>  <s_m_subgroupid>  (187) 
glide-dock_SP_D22_pv

>  <Molecule ChEMBL ID>  (187) 
CHEMBL123937

>  <Standard Type>  (187) 
Ki

>  <Standard Value>  (187) 
10000.0

>  <label>  (187) 
0

$$$$
CHEMBL1223858
     RDKit          3D

  0  0  0  0  0  0  0  0  0  0999 V3000
M  V30 BEGIN CTAB
M  V30 COUNTS 60 63 0 0 1
M  V30 BEGIN ATOM
M  V30 1 F 12.886066 6.172303 -2.823823 0
M  V30 2 C 12.012078 7.141601 -2.682257 0
M  V30 3 F 12.475492 7.979303 -1.753705 0
M  V30 4 F 10.893165 6.573473 -2.245545 0
M  V30 5 C 11.833396 7.865036 -4.013535 0
M  V30 6 C 12.482975 9.096107 -4.232012 0
M  V30 7 C 12.305706 9.771815 -5.447761 0
M  V30 8 C 11.454040 9.262222 -6.432186 0
M  V30 9 C 10.810262 8.016750 -6.259422 0
M  V30 10 N 9.984782 7.491692 -7.280615 0
M  V30 11 C 8.813255 6.697662 -6.944230 0
M  V30 12 C 8.587225 5.631487 -8.026713 0
M  V30 13 N 8.528050 6.171813 -9.413996 0 CHG=1
M  V30 14 C 8.523141 5.038604 -10.379104 0
M  V30 15 C 8.476630 5.433325 -11.867311 0
M  V30 16 C 8.814659 4.237801 -12.767802 0
M  V30 17 C 9.035096 4.658955 -14.222377 0
M  V30 18 N 9.615764 3.588357 -15.013611 0
M  V30 19 C 9.156504 2.339233 -15.391199 0
M  V30 20 N 9.773643 1.401867 -16.100426 0
M  V30 21 C 8.825822 0.391537 -16.203001 0
M  V30 22 C 7.690171 0.792662 -15.543055 0
M  V30 23 C 6.388521 0.167657 -15.365577 0
M  V30 24 C 5.905548 -0.746651 -16.328114 0
M  V30 25 C 4.645614 -1.351714 -16.172173 0
M  V30 26 C 3.848940 -1.027498 -15.061529 0
M  V30 27 C 4.315020 -0.110804 -14.102735 0
M  V30 28 C 5.585796 0.477767 -14.246097 0
M  V30 29 O 7.892731 2.035829 -15.004696 0
M  V30 30 C 9.619913 7.145532 -9.697582 0
M  V30 31 C 9.866014 8.157697 -8.574179 0
M  V30 32 C 11.038475 7.312484 -5.046836 0
M  V30 33 H 13.115259 9.534537 -3.474119 0
M  V30 34 H 12.821827 10.693744 -5.649544 0
M  V30 35 H 11.327255 9.865088 -7.314999 0
M  V30 36 H 7.956032 7.366276 -6.872575 0
M  V30 37 H 8.886451 6.205515 -5.975725 0
M  V30 38 H 7.686007 5.065808 -7.811198 0
M  V30 39 H 9.409500 4.918326 -7.963633 0
M  V30 40 H 7.686451 4.372380 -10.166286 0
M  V30 41 H 9.425303 4.448841 -10.204834 0
M  V30 42 H 9.208163 6.205976 -12.094790 0
M  V30 43 H 7.499198 5.843559 -12.121667 0
M  V30 44 H 8.021051 3.494200 -12.715027 0
M  V30 45 H 9.720112 3.750510 -12.401997 0
M  V30 46 H 9.710910 5.512173 -14.276366 0
M  V30 47 H 8.086218 4.975414 -14.649055 0
M  V30 48 H 10.548486 3.781919 -15.348539 0
M  V30 49 H 9.025097 -0.524005 -16.740471 0
M  V30 50 H 6.507483 -0.999665 -17.188156 0
M  V30 51 H 4.286569 -2.064779 -16.901930 0
M  V30 52 H 2.885781 -1.492607 -14.946736 0
M  V30 53 H 3.689878 0.145502 -13.264095 0
M  V30 54 H 5.936609 1.178557 -13.502102 0
M  V30 55 H 10.546774 6.597390 -9.876566 0
M  V30 56 H 9.392705 7.710856 -10.600805 0
M  V30 57 H 9.054708 8.885596 -8.529037 0
M  V30 58 H 10.769388 8.695635 -8.849614 0
M  V30 59 H 10.600487 6.341686 -4.872696 0
M  V30 60 H 7.649836 6.687096 -9.512802 0
M  V30 END ATOM
M  V30 BEGIN BOND
M  V30 1 1 2 1
M  V30 2 1 3 2
M  V30 3 1 4 2
M  V30 4 1 5 2
M  V30 5 2 6 5
M  V30 6 1 7 6
M  V30 7 2 8 7
M  V30 8 1 9 8
M  V30 9 1 10 9
M  V30 10 1 11 10
M  V30 11 1 12 11
M  V30 12 1 13 12
M  V30 13 1 14 13
M  V30 14 1 15 14
M  V30 15 1 16 15
M  V30 16 1 17 16
M  V30 17 1 18 17
M  V30 18 1 19 18
M  V30 19 2 20 19
M  V30 20 1 21 20
M  V30 21 2 22 21
M  V30 22 1 23 22
M  V30 23 2 24 23
M  V30 24 1 25 24
M  V30 25 2 26 25
M  V30 26 1 27 26
M  V30 27 1 28 23
M  V30 28 2 28 27
M  V30 29 1 29 19
M  V30 30 1 29 22
M  V30 31 1 30 13
M  V30 32 1 31 10
M  V30 33 1 31 30
M  V30 34 1 32 5
M  V30 35 2 32 9
M  V30 36 1 33 6
M  V30 37 1 34 7
M  V30 38 1 35 8
M  V30 39 1 36 11
M  V30 40 1 37 11
M  V30 41 1 38 12
M  V30 42 1 39 12
M  V30 43 1 40 14
M  V30 44 1 41 14
M  V30 45 1 42 15
M  V30 46 1 43 15
M  V30 47 1 44 16
M  V30 48 1 45 16
M  V30 49 1 46 17
M  V30 50 1 47 17
M  V30 51 1 48 18
M  V30 52 1 49 21
M  V30 53 1 50 24
M  V30 54 1 51 25
M  V30 55 1 52 26
M  V30 56 1 53 27
M  V30 57 1 54 28
M  V30 58 1 55 30
M  V30 59 1 56 30
M  V30 60 1 57 31
M  V30 61 1 58 31
M  V30 62 1 59 32
M  V30 63 1 60 13
M  V30 END BOND
M  V30 END CTAB
M  END
>  <b_m_subgroup_collapsed>  (188) 
0

>  <r_i_docking_score>  (188) 
-8.8965998106332993

>  <s_m_subgroup_title>  (188) 
glide-dock_SP_D22_pv

>  <s_m_subgroupid>  (188) 
glide-dock_SP_D22_pv

>  <Molecule ChEMBL ID>  (188) 
CHEMBL1223858

>  <Standard Type>  (188) 
Ki

>  <Standard Value>  (188) 
9.6

>  <label>  (188) 
1

$$$$
CHEMBL3220212
     RDKit          3D

  0  0  0  0  0  0  0  0  0  0999 V3000
M  V30 BEGIN CTAB
M  V30 COUNTS 53 57 0 0 1
M  V30 BEGIN ATOM
M  V30 1 C 9.150525 1.399264 -15.356599 0
M  V30 2 C 8.194476 2.298836 -14.628046 0
M  V30 3 N 6.887171 2.053842 -14.643895 0
M  V30 4 O 6.272401 3.039670 -13.846391 0
M  V30 5 C 7.247424 3.854114 -13.371367 0
M  V30 6 C 8.448032 3.454562 -13.846115 0
M  V30 7 C 9.693487 4.148969 -13.495492 0
M  V30 8 O 10.818229 3.771482 -13.816090 0
M  V30 9 C 9.498346 5.467253 -12.723116 0
M  V30 10 C 8.229314 5.568350 -11.816799 0 CFG=2
M  V30 11 C 8.520329 4.996511 -10.406440 0
M  V30 12 N 8.790392 6.062916 -9.402308 0 CFG=2 CHG=1
M  V30 13 C 10.093605 6.739336 -9.645548 0
M  V30 14 C 10.408016 7.809433 -8.598008 0
M  V30 15 C 10.373410 7.226688 -7.174203 0 CFG=1
M  V30 16 C 10.726129 8.253028 -6.136373 0
M  V30 17 C 10.543515 9.602812 -6.257455 0
M  V30 18 N 11.020566 10.250996 -5.144616 0
M  V30 19 C 11.508005 9.340483 -4.245189 0
M  V30 20 C 12.085649 9.509936 -2.984647 0
M  V30 21 C 12.485866 8.386775 -2.253446 0
M  V30 22 F 13.066857 8.565152 -1.046968 0
M  V30 23 C 12.273111 7.096531 -2.780818 0
M  V30 24 C 11.688375 6.936224 -4.057298 0
M  V30 25 C 11.306280 8.056195 -4.832641 0
M  V30 26 C 8.980807 6.625116 -6.955480 0
M  V30 27 C 8.684712 5.545362 -8.012746 0
M  V30 28 C 6.934584 4.982521 -12.457993 0
M  V30 29 H 9.854106 0.939027 -14.662028 0
M  V30 30 H 8.629734 0.596134 -15.879336 0
M  V30 31 H 9.727420 1.957646 -16.093168 0
M  V30 32 H 9.449654 6.268401 -13.447071 0
M  V30 33 H 10.403824 5.654442 -12.148567 0
M  V30 34 H 8.010187 6.628804 -11.684044 0
M  V30 35 H 9.359550 4.298932 -10.436065 0
M  V30 36 H 7.686018 4.393373 -10.062816 0
M  V30 37 H 10.096570 7.215926 -10.624889 0
M  V30 38 H 10.886153 5.993486 -9.645683 0
M  V30 39 H 9.682277 8.618816 -8.700213 0
M  V30 40 H 11.389332 8.240380 -8.804399 0
M  V30 41 H 11.107337 6.420365 -7.118022 0
M  V30 42 H 10.102351 10.171841 -7.049847 0
M  V30 43 H 11.015042 11.254851 -5.037998 0
M  V30 44 H 12.218836 10.500293 -2.578005 0
M  V30 45 H 12.565981 6.226657 -2.210405 0
M  V30 46 H 11.537899 5.942122 -4.452111 0
M  V30 47 H 8.919569 6.193255 -5.957500 0
M  V30 48 H 8.218929 7.405777 -6.997383 0
M  V30 49 H 7.686590 5.151269 -7.847407 0
M  V30 50 H 9.367981 4.705997 -7.893489 0
M  V30 51 H 6.204265 4.682407 -11.706921 0
M  V30 52 H 6.445924 5.762334 -13.044107 0
M  V30 53 H 8.046501 6.751905 -9.503172 0
M  V30 END ATOM
M  V30 BEGIN BOND
M  V30 1 1 2 1
M  V30 2 2 3 2
M  V30 3 1 4 3
M  V30 4 1 5 4
M  V30 5 1 6 2
M  V30 6 2 6 5
M  V30 7 1 7 6
M  V30 8 2 8 7
M  V30 9 1 9 7
M  V30 10 1 10 9
M  V30 11 1 11 10
M  V30 12 1 12 11
M  V30 13 1 13 12
M  V30 14 1 14 13
M  V30 15 1 15 14
M  V30 16 1 16 15
M  V30 17 2 17 16
M  V30 18 1 18 17
M  V30 19 1 19 18
M  V30 20 1 20 19
M  V30 21 2 21 20
M  V30 22 1 22 21
M  V30 23 1 23 21
M  V30 24 2 24 23
M  V30 25 1 25 16
M  V30 26 2 25 19
M  V30 27 1 25 24
M  V30 28 1 26 15
M  V30 29 1 27 12
M  V30 30 1 27 26
M  V30 31 1 28 5
M  V30 32 1 28 10
M  V30 33 1 29 1
M  V30 34 1 30 1
M  V30 35 1 31 1
M  V30 36 1 32 9
M  V30 37 1 33 9
M  V30 38 1 10 34 CFG=1
M  V30 39 1 35 11
M  V30 40 1 36 11
M  V30 41 1 37 13
M  V30 42 1 38 13
M  V30 43 1 39 14
M  V30 44 1 40 14
M  V30 45 1 15 41 CFG=3
M  V30 46 1 42 17
M  V30 47 1 43 18
M  V30 48 1 44 20
M  V30 49 1 45 23
M  V30 50 1 46 24
M  V30 51 1 47 26
M  V30 52 1 48 26
M  V30 53 1 49 27
M  V30 54 1 50 27
M  V30 55 1 51 28
M  V30 56 1 52 28
M  V30 57 1 12 53 CFG=1
M  V30 END BOND
M  V30 END CTAB
M  END
>  <b_m_subgroup_collapsed>  (189) 
0

>  <r_i_docking_score>  (189) 
-8.8940019789067204

>  <s_m_subgroup_title>  (189) 
glide-dock_SP_D22_pv

>  <s_m_subgroupid>  (189) 
glide-dock_SP_D22_pv

>  <Molecule ChEMBL ID>  (189) 
CHEMBL3220212

>  <Standard Type>  (189) 
Ki

>  <Standard Value>  (189) 
63.1

>  <label>  (189) 
1

$$$$
CHEMBL494702
     RDKit          3D

  0  0  0  0  0  0  0  0  0  0999 V3000
M  V30 BEGIN CTAB
M  V30 COUNTS 61 64 0 0 1
M  V30 BEGIN ATOM
M  V30 1 C 7.914514 -1.196262 -18.251703 0
M  V30 2 C 9.152576 -0.639720 -17.544521 0
M  V30 3 O 8.745976 0.340979 -16.607061 0
M  V30 4 C 9.669779 1.041702 -15.931283 0
M  V30 5 O 10.884441 0.893473 -16.058622 0
M  V30 6 C 9.086357 2.043720 -15.038868 0
M  V30 7 O 9.925855 2.994002 -14.528873 0
M  V30 8 C 9.170583 3.790305 -13.737408 0
M  V30 9 C 7.865119 3.405350 -13.759661 0
M  V30 10 C 7.801103 2.233364 -14.576391 0
M  V30 11 C 6.590047 1.366528 -14.834835 0
M  V30 12 C 6.888602 4.172544 -12.946840 0
M  V30 13 O 5.699817 3.867212 -12.862662 0
M  V30 14 C 7.426629 5.419538 -12.219144 0
M  V30 15 C 8.922327 5.322352 -11.799972 0 CFG=2
M  V30 16 C 9.425973 6.643111 -11.179147 0
M  V30 17 N 8.886227 6.988337 -9.830077 0 CFG=2 CHG=1
M  V30 18 C 9.288017 8.384150 -9.497721 0
M  V30 19 C 8.919693 8.816306 -8.065769 0
M  V30 20 C 9.373787 7.842261 -6.985164 0 CFG=2
M  V30 21 C 10.885591 7.895044 -6.728109 0
M  V30 22 O 11.687643 7.815674 -7.657277 0
M  V30 23 C 11.298867 8.021070 -5.320661 0
M  V30 24 C 11.551813 9.293818 -4.768065 0
M  V30 25 C 12.028886 9.399143 -3.447659 0
M  V30 26 C 12.266239 8.240996 -2.686886 0
M  V30 27 F 12.735239 8.350315 -1.426312 0
M  V30 28 C 12.028280 6.971269 -3.240225 0
M  V30 29 C 11.544150 6.860900 -4.558054 0
M  V30 30 C 8.890532 6.440925 -7.350429 0
M  V30 31 C 9.274448 6.002418 -8.779070 0
M  V30 32 C 9.827825 4.894879 -12.986792 0
M  V30 33 H 8.189737 -1.977797 -18.960209 0
M  V30 34 H 7.210942 -1.623697 -17.536257 0
M  V30 35 H 7.393837 -0.412205 -18.802111 0
M  V30 36 H 9.832914 -0.200971 -18.276096 0
M  V30 37 H 9.690061 -1.440265 -17.034012 0
M  V30 38 H 5.727040 1.693084 -14.255362 0
M  V30 39 H 6.334318 1.377842 -15.894327 0
M  V30 40 H 6.804893 0.335699 -14.551828 0
M  V30 41 H 6.801394 5.604457 -11.345810 0
M  V30 42 H 7.284591 6.273149 -12.881836 0
M  V30 43 H 9.002333 4.517647 -11.069566 0
M  V30 44 H 9.198522 7.454226 -11.873377 0
M  V30 45 H 10.514401 6.609928 -11.106154 0
M  V30 46 H 8.805874 9.064810 -10.201231 0
M  V30 47 H 10.359058 8.503856 -9.658667 0
M  V30 48 H 7.853141 8.974984 -7.958017 0
M  V30 49 H 9.377456 9.772180 -7.861097 0
M  V30 50 H 8.892584 8.131232 -6.051746 0
M  V30 51 H 11.394648 10.188247 -5.353908 0
M  V30 52 H 12.226836 10.368381 -3.014768 0
M  V30 53 H 12.215239 6.082405 -2.655166 0
M  V30 54 H 11.375862 5.881206 -4.981667 0
M  V30 55 H 9.336800 5.772078 -6.629808 0
M  V30 56 H 7.815412 6.355433 -7.195950 0
M  V30 57 H 8.791753 5.045653 -8.973512 0
M  V30 58 H 10.349127 5.823757 -8.832308 0
M  V30 59 H 9.966274 5.737029 -13.665945 0
M  V30 60 H 10.834004 4.603068 -12.659292 0
M  V30 61 H 7.864559 7.033152 -9.882383 0
M  V30 END ATOM
M  V30 BEGIN BOND
M  V30 1 1 2 1
M  V30 2 1 3 2
M  V30 3 1 4 3
M  V30 4 2 5 4
M  V30 5 1 6 4
M  V30 6 1 7 6
M  V30 7 1 8 7
M  V30 8 2 9 8
M  V30 9 2 10 6
M  V30 10 1 10 9
M  V30 11 1 11 10
M  V30 12 1 12 9
M  V30 13 2 13 12
M  V30 14 1 14 12
M  V30 15 1 15 14
M  V30 16 1 16 15
M  V30 17 1 17 16
M  V30 18 1 18 17
M  V30 19 1 19 18
M  V30 20 1 20 19
M  V30 21 1 21 20
M  V30 22 2 22 21
M  V30 23 1 23 21
M  V30 24 1 24 23
M  V30 25 2 25 24
M  V30 26 1 26 25
M  V30 27 1 27 26
M  V30 28 2 28 26
M  V30 29 2 29 23
M  V30 30 1 29 28
M  V30 31 1 30 20
M  V30 32 1 31 17
M  V30 33 1 31 30
M  V30 34 1 32 8
M  V30 35 1 32 15
M  V30 36 1 33 1
M  V30 37 1 34 1
M  V30 38 1 35 1
M  V30 39 1 36 2
M  V30 40 1 37 2
M  V30 41 1 38 11
M  V30 42 1 39 11
M  V30 43 1 40 11
M  V30 44 1 41 14
M  V30 45 1 42 14
M  V30 46 1 15 43 CFG=1
M  V30 47 1 44 16
M  V30 48 1 45 16
M  V30 49 1 46 18
M  V30 50 1 47 18
M  V30 51 1 48 19
M  V30 52 1 49 19
M  V30 53 1 20 50 CFG=1
M  V30 54 1 51 24
M  V30 55 1 52 25
M  V30 56 1 53 28
M  V30 57 1 54 29
M  V30 58 1 55 30
M  V30 59 1 56 30
M  V30 60 1 57 31
M  V30 61 1 58 31
M  V30 62 1 59 32
M  V30 63 1 60 32
M  V30 64 1 17 61 CFG=3
M  V30 END BOND
M  V30 END CTAB
M  END
>  <b_m_subgroup_collapsed>  (190) 
0

>  <r_i_docking_score>  (190) 
-8.8935144888136808

>  <s_m_subgroup_title>  (190) 
glide-dock_SP_D22_pv

>  <s_m_subgroupid>  (190) 
glide-dock_SP_D22_pv

>  <Molecule ChEMBL ID>  (190) 
CHEMBL494702

>  <Standard Type>  (190) 
Ki

>  <Standard Value>  (190) 
10000.0

>  <label>  (190) 
0

$$$$
CHEMBL4795213
     RDKit          3D

  0  0  0  0  0  0  0  0  0  0999 V3000
M  V30 BEGIN CTAB
M  V30 COUNTS 62 66 0 0 1
M  V30 BEGIN ATOM
M  V30 1 C 10.117951 -1.033019 -17.535501 0
M  V30 2 N 10.635090 0.287142 -17.166561 0
M  V30 3 C 11.303060 1.045004 -18.236450 0
M  V30 4 C 12.348947 2.046882 -17.714659 0
M  V30 5 C 11.844662 2.795907 -16.499758 0
M  V30 6 C 12.334103 4.083165 -16.198122 0
M  V30 7 C 11.850795 4.777008 -15.072406 0
M  V30 8 C 10.859355 4.205212 -14.250010 0
M  V30 9 O 10.389902 4.952192 -13.191421 0
M  V30 10 C 9.061592 4.680506 -12.762360 0
M  V30 11 C 8.619020 5.761123 -11.766862 0 CFG=1
M  V30 12 O 7.205956 5.772238 -11.769336 0
M  V30 13 C 9.128153 5.470349 -10.341065 0
M  V30 14 N 9.272281 6.711515 -9.533535 0 CFG=2 CHG=1
M  V30 15 C 10.669909 7.214528 -9.473178 0
M  V30 16 C 10.787573 8.554272 -8.712802 0
M  V30 17 C 10.102798 8.546611 -7.326973 0 CFG=2
M  V30 18 C 10.883955 7.873940 -6.223443 0
M  V30 19 N 11.139804 6.572661 -6.300643 0
M  V30 20 O 11.686570 6.172379 -5.059679 0
M  V30 21 C 11.865731 7.266015 -4.246838 0
M  V30 22 C 12.416464 7.372503 -2.965262 0
M  V30 23 C 12.485646 8.656156 -2.397264 0
M  V30 24 F 13.032060 8.819557 -1.172105 0
M  V30 25 C 11.987845 9.772254 -3.107876 0
M  V30 26 C 11.411161 9.634874 -4.396492 0
M  V30 27 C 11.370276 8.349453 -4.978728 0
M  V30 28 C 8.694673 7.938705 -7.447851 0
M  V30 29 C 8.691468 6.572820 -8.180113 0
M  V30 30 C 10.395146 2.900752 -14.544189 0
M  V30 31 C 10.883783 2.190898 -15.661054 0
M  V30 32 C 10.407178 0.788751 -15.928868 0
M  V30 33 O 9.817565 0.163636 -15.047462 0
M  V30 34 H 9.027789 -1.036870 -17.487091 0
M  V30 35 H 10.398686 -1.325863 -18.547958 0
M  V30 36 H 10.485910 -1.805281 -16.858847 0
M  V30 37 H 11.773086 0.381669 -18.962626 0
M  V30 38 H 10.524917 1.588798 -18.772648 0
M  V30 39 H 12.620484 2.749824 -18.504065 0
M  V30 40 H 13.261985 1.520723 -17.437967 0
M  V30 41 H 13.084842 4.539497 -16.827662 0
M  V30 42 H 12.226657 5.764863 -14.851973 0
M  V30 43 H 8.980490 3.697489 -12.298416 0
M  V30 44 H 8.407274 4.693218 -13.636484 0
M  V30 45 H 8.970016 6.733318 -12.122956 0
M  V30 46 H 6.885888 6.481156 -11.209472 0
M  V30 47 H 8.454306 4.756997 -9.861219 0
M  V30 48 H 10.086075 4.954765 -10.381680 0
M  V30 49 H 11.285745 6.461405 -8.987473 0
M  V30 50 H 11.058874 7.331469 -10.486219 0
M  V30 51 H 11.831612 8.856150 -8.623169 0
M  V30 52 H 10.309211 9.323322 -9.321507 0
M  V30 53 H 9.983405 9.589496 -7.035519 0
M  V30 54 H 12.784644 6.501737 -2.444321 0
M  V30 55 H 12.068819 10.747139 -2.646841 0
M  V30 56 H 11.035720 10.497840 -4.926529 0
M  V30 57 H 8.220649 7.850949 -6.470371 0
M  V30 58 H 8.086102 8.641654 -8.013874 0
M  V30 59 H 7.686100 6.172269 -8.272291 0
M  V30 60 H 9.219061 5.801394 -7.624170 0
M  V30 61 H 9.661881 2.421785 -13.911917 0
M  V30 62 H 8.690832 7.408570 -9.984243 0
M  V30 END ATOM
M  V30 BEGIN BOND
M  V30 1 1 2 1
M  V30 2 1 3 2
M  V30 3 1 4 3
M  V30 4 1 5 4
M  V30 5 1 6 5
M  V30 6 2 7 6
M  V30 7 1 8 7
M  V30 8 1 9 8
M  V30 9 1 10 9
M  V30 10 1 11 10
M  V30 11 1 12 11
M  V30 12 1 13 11
M  V30 13 1 14 13
M  V30 14 1 15 14
M  V30 15 1 16 15
M  V30 16 1 17 16
M  V30 17 1 18 17
M  V30 18 2 19 18
M  V30 19 1 20 19
M  V30 20 1 21 20
M  V30 21 1 22 21
M  V30 22 2 23 22
M  V30 23 1 24 23
M  V30 24 1 25 23
M  V30 25 2 26 25
M  V30 26 1 27 18
M  V30 27 2 27 21
M  V30 28 1 27 26
M  V30 29 1 28 17
M  V30 30 1 29 14
M  V30 31 1 29 28
M  V30 32 2 30 8
M  V30 33 2 31 5
M  V30 34 1 31 30
M  V30 35 1 32 2
M  V30 36 1 32 31
M  V30 37 2 33 32
M  V30 38 1 34 1
M  V30 39 1 35 1
M  V30 40 1 36 1
M  V30 41 1 37 3
M  V30 42 1 38 3
M  V30 43 1 39 4
M  V30 44 1 40 4
M  V30 45 1 41 6
M  V30 46 1 42 7
M  V30 47 1 43 10
M  V30 48 1 44 10
M  V30 49 1 11 45 CFG=3
M  V30 50 1 46 12
M  V30 51 1 47 13
M  V30 52 1 48 13
M  V30 53 1 49 15
M  V30 54 1 50 15
M  V30 55 1 51 16
M  V30 56 1 52 16
M  V30 57 1 17 53 CFG=1
M  V30 58 1 54 22
M  V30 59 1 55 25
M  V30 60 1 56 26
M  V30 61 1 57 28
M  V30 62 1 58 28
M  V30 63 1 59 29
M  V30 64 1 60 29
M  V30 65 1 61 30
M  V30 66 1 14 62 CFG=3
M  V30 END BOND
M  V30 END CTAB
M  END
>  <b_m_subgroup_collapsed>  (191) 
0

>  <r_i_docking_score>  (191) 
-8.8926346064055899

>  <s_m_subgroup_title>  (191) 
glide-dock_SP_D22_pv

>  <s_m_subgroupid>  (191) 
glide-dock_SP_D22_pv

>  <Molecule ChEMBL ID>  (191) 
CHEMBL4795213

>  <Standard Type>  (191) 
Ki

>  <Standard Value>  (191) 
15.1

>  <label>  (191) 
1

$$$$
CHEMBL476839
     RDKit          3D

  0  0  0  0  0  0  0  0  0  0999 V3000
M  V30 BEGIN CTAB
M  V30 COUNTS 62 64 0 0 1
M  V30 BEGIN ATOM
M  V30 1 C 7.881431 1.865983 -14.975976 0
M  V30 2 O 8.559346 2.534357 -13.920349 0
M  V30 3 C 9.645316 3.321948 -14.239934 0
M  V30 4 C 10.647389 2.899856 -15.161798 0
M  V30 5 O 10.549524 1.643964 -15.724545 0
M  V30 6 C 11.374075 1.323380 -16.836372 0
M  V30 7 C 10.892553 -0.008971 -17.413979 0
M  V30 8 F 11.700010 -0.416796 -18.392138 0
M  V30 9 C 11.725767 3.768917 -15.451795 0
M  V30 10 C 11.804917 5.034752 -14.855251 0
M  V30 11 C 10.818282 5.440092 -13.945704 0
M  V30 12 C 9.746503 4.586825 -13.602215 0
M  V30 13 C 8.685154 5.057639 -12.593489 0 CFG=2
M  V30 14 O 7.952913 6.175892 -13.047043 0
M  V30 15 C 9.218738 5.334636 -11.161124 0 CFG=1
M  V30 16 C 9.756624 6.765133 -10.941409 0
M  V30 17 C 10.247500 6.980051 -9.513791 0
M  V30 18 N 9.197121 6.709775 -8.495636 0 CFG=2 CHG=1
M  V30 19 C 9.702439 6.873125 -7.103293 0
M  V30 20 C 10.464186 8.196972 -6.833096 0
M  V30 21 C 11.035766 8.335023 -5.430697 0
M  V30 22 C 11.118479 9.614549 -4.834933 0
M  V30 23 C 11.663317 9.767309 -3.544587 0
M  V30 24 C 12.143090 8.642308 -2.846844 0
M  V30 25 C 12.728512 8.798446 -1.466802 0
M  V30 26 C 12.086000 7.369061 -3.441944 0
M  V30 27 C 11.536902 7.215397 -4.725062 0
M  V30 28 C 8.579508 5.366592 -8.676880 0
M  V30 29 C 8.109967 5.112634 -10.121641 0
M  V30 30 H 6.827266 1.767321 -14.716846 0
M  V30 31 H 7.939756 2.414860 -15.918142 0
M  V30 32 H 8.275965 0.860186 -15.119308 0
M  V30 33 H 11.310152 2.096367 -17.602922 0
M  V30 34 H 12.415893 1.240709 -16.524633 0
M  V30 35 H 10.883447 -0.784886 -16.651419 0
M  V30 36 H 9.885413 0.075312 -17.823832 0
M  V30 37 H 12.513345 3.489893 -16.133902 0
M  V30 38 H 12.621966 5.698647 -15.098884 0
M  V30 39 H 10.887781 6.433074 -13.542348 0
M  V30 40 H 7.941425 4.267178 -12.503337 0
M  V30 41 H 7.327148 6.419421 -12.379292 0
M  V30 42 H 10.010110 4.611841 -10.950246 0
M  V30 43 H 10.588420 6.987298 -11.601394 0
M  V30 44 H 8.987146 7.507742 -11.157312 0
M  V30 45 H 10.575071 8.017445 -9.458591 0
M  V30 46 H 11.118878 6.353752 -9.322382 0
M  V30 47 H 8.866348 6.784418 -6.407662 0
M  V30 48 H 10.362891 6.029036 -6.911978 0
M  V30 49 H 11.330518 8.299000 -7.484821 0
M  V30 50 H 9.807070 9.043296 -7.040647 0
M  V30 51 H 10.756417 10.487238 -5.360969 0
M  V30 52 H 11.685949 10.738846 -3.071525 0
M  V30 53 H 12.886399 7.823076 -1.012816 0
M  V30 54 H 13.685842 9.308618 -1.524359 0
M  V30 55 H 12.069894 9.381806 -0.826643 0
M  V30 56 H 12.459829 6.500051 -2.916295 0
M  V30 57 H 11.520218 6.223675 -5.146102 0
M  V30 58 H 7.724495 5.279261 -7.999817 0
M  V30 59 H 9.291810 4.589723 -8.393753 0
M  V30 60 H 7.285697 5.772484 -10.351694 0
M  V30 61 H 7.687496 4.110029 -10.200559 0
M  V30 62 H 8.442004 7.371763 -8.640000 0
M  V30 END ATOM
M  V30 BEGIN BOND
M  V30 1 1 2 1
M  V30 2 1 3 2
M  V30 3 2 4 3
M  V30 4 1 5 4
M  V30 5 1 6 5
M  V30 6 1 7 6
M  V30 7 1 8 7
M  V30 8 1 9 4
M  V30 9 2 10 9
M  V30 10 1 11 10
M  V30 11 1 12 3
M  V30 12 2 12 11
M  V30 13 1 13 12
M  V30 14 1 14 13
M  V30 15 1 15 13
M  V30 16 1 16 15
M  V30 17 1 17 16
M  V30 18 1 18 17
M  V30 19 1 19 18
M  V30 20 1 20 19
M  V30 21 1 21 20
M  V30 22 1 22 21
M  V30 23 2 23 22
M  V30 24 1 24 23
M  V30 25 1 25 24
M  V30 26 2 26 24
M  V30 27 2 27 21
M  V30 28 1 27 26
M  V30 29 1 28 18
M  V30 30 1 29 15
M  V30 31 1 29 28
M  V30 32 1 30 1
M  V30 33 1 31 1
M  V30 34 1 32 1
M  V30 35 1 33 6
M  V30 36 1 34 6
M  V30 37 1 35 7
M  V30 38 1 36 7
M  V30 39 1 37 9
M  V30 40 1 38 10
M  V30 41 1 39 11
M  V30 42 1 13 40 CFG=1
M  V30 43 1 41 14
M  V30 44 1 15 42 CFG=1
M  V30 45 1 43 16
M  V30 46 1 44 16
M  V30 47 1 45 17
M  V30 48 1 46 17
M  V30 49 1 47 19
M  V30 50 1 48 19
M  V30 51 1 49 20
M  V30 52 1 50 20
M  V30 53 1 51 22
M  V30 54 1 52 23
M  V30 55 1 53 25
M  V30 56 1 54 25
M  V30 57 1 55 25
M  V30 58 1 56 26
M  V30 59 1 57 27
M  V30 60 1 58 28
M  V30 61 1 59 28
M  V30 62 1 60 29
M  V30 63 1 61 29
M  V30 64 1 18 62 CFG=3
M  V30 END BOND
M  V30 END CTAB
M  END
>  <b_m_subgroup_collapsed>  (192) 
0

>  <r_i_docking_score>  (192) 
-8.8921389290879098

>  <s_m_subgroup_title>  (192) 
glide-dock_SP_D22_pv

>  <s_m_subgroupid>  (192) 
glide-dock_SP_D22_pv

>  <Molecule ChEMBL ID>  (192) 
CHEMBL476839

>  <Standard Type>  (192) 
Ki

>  <Standard Value>  (192) 
10000.0

>  <label>  (192) 
0

$$$$
CHEMBL1684128
     RDKit          3D

  0  0  0  0  0  0  0  0  0  0999 V3000
M  V30 BEGIN CTAB
M  V30 COUNTS 84 89 0 0 1
M  V30 BEGIN ATOM
M  V30 1 C 3.369710 -2.177255 -18.356464 0
M  V30 2 C 4.778774 -2.173839 -17.751123 0
M  V30 3 C 5.366419 -0.757272 -17.731806 0
M  V30 4 N 6.794769 -0.742525 -17.306875 0 CFG=1 CHG=1
M  V30 5 C 7.677608 -0.820752 -18.488279 0
M  V30 6 C 9.126303 -0.955044 -18.051289 0
M  V30 7 C 9.601700 0.174360 -17.160942 0
M  V30 8 C 10.933400 0.602749 -17.067617 0
M  V30 9 C 11.280459 1.586990 -16.135107 0
M  V30 10 C 10.309346 2.118850 -15.265797 0
M  V30 11 C 8.932078 1.770705 -15.340622 0
M  V30 12 C 8.630925 0.783838 -16.320202 0
M  V30 13 C 7.133424 0.415885 -16.431332 0 CFG=2
M  V30 14 C 6.531618 0.264390 -15.015910 0
M  V30 15 C 6.710753 1.556293 -14.241138 0
M  V30 16 C 5.682386 1.995285 -13.385336 0
M  V30 17 C 5.754552 3.262989 -12.792605 0
M  V30 18 C 6.872528 4.075134 -13.027574 0
M  V30 19 C 7.954042 3.615092 -13.826842 0
M  V30 20 O 9.091891 4.372322 -14.030186 0
M  V30 21 C 9.220741 5.665544 -13.455223 0
M  V30 22 C 9.529779 5.661752 -11.948933 0
M  V30 23 C 9.576060 7.097495 -11.386173 0
M  V30 24 C 8.926555 7.260530 -10.001108 0
M  V30 25 N 9.810740 7.023936 -8.837349 0 CHG=1
M  V30 26 C 8.998532 6.817411 -7.602431 0
M  V30 27 C 9.889297 6.635021 -6.364909 0
M  V30 28 N 10.776429 7.777130 -6.234985 0
M  V30 29 C 11.364180 7.988708 -4.974281 0
M  V30 30 C 11.883622 6.902835 -4.228362 0
M  V30 31 C 12.473253 7.105803 -2.962902 0
M  V30 32 C 12.486917 8.393305 -2.398547 0
M  V30 33 C 11.972010 9.481321 -3.126503 0
M  V30 34 C 11.428579 9.292497 -4.412989 0
M  V30 35 O 10.934423 10.386537 -5.073208 0
M  V30 36 C 11.830460 10.894525 -6.052180 0
M  V30 37 C 11.667627 7.902667 -7.385676 0
M  V30 38 C 10.843122 8.091998 -8.671430 0
M  V30 39 C 7.877810 2.336312 -14.451575 0
M  V30 40 H 2.890178 -3.152141 -18.242270 0
M  V30 41 H 2.746243 -1.429030 -17.864090 0
M  V30 42 H 3.393742 -1.942168 -19.422596 0
M  V30 43 H 5.413830 -2.856210 -18.311083 0
M  V30 44 H 4.724178 -2.556249 -16.732340 0
M  V30 45 H 4.750255 -0.141884 -17.077724 0
M  V30 46 H 5.259247 -0.301901 -18.715244 0
M  V30 47 H 7.409575 -1.679407 -19.106756 0
M  V30 48 H 7.560685 0.075264 -19.104395 0
M  V30 49 H 9.767223 -0.994406 -18.932034 0
M  V30 50 H 9.285291 -1.889757 -17.516132 0
M  V30 51 H 11.699340 0.174016 -17.699383 0
M  V30 52 H 12.307396 1.910892 -16.057337 0
M  V30 53 H 10.664356 2.811659 -14.520726 0
M  V30 54 H 6.674160 1.289038 -16.901352 0
M  V30 55 H 7.036158 -0.540726 -14.480479 0
M  V30 56 H 5.472312 0.003374 -15.045196 0
M  V30 57 H 4.804149 1.386809 -13.228027 0
M  V30 58 H 4.951318 3.624958 -12.169307 0
M  V30 59 H 6.871153 5.047436 -12.563257 0
M  V30 60 H 8.328856 6.251081 -13.681374 0
M  V30 61 H 10.065645 6.139319 -13.953713 0
M  V30 62 H 10.486061 5.166475 -11.788738 0
M  V30 63 H 8.795062 5.063420 -11.414748 0
M  V30 64 H 8.997705 7.737654 -12.051857 0
M  V30 65 H 10.585196 7.503768 -11.436762 0
M  V30 66 H 8.087914 6.571094 -9.935450 0
M  V30 67 H 8.508585 8.265401 -9.904309 0
M  V30 68 H 8.348554 5.950738 -7.723231 0
M  V30 69 H 8.346981 7.679140 -7.444530 0
M  V30 70 H 10.521835 5.762901 -6.495900 0
M  V30 71 H 9.284886 6.501601 -5.466434 0
M  V30 72 H 11.843660 5.902802 -4.630783 0
M  V30 73 H 12.873528 6.267855 -2.411474 0
M  V30 74 H 12.903561 8.556981 -1.415620 0
M  V30 75 H 11.979136 10.470455 -2.691792 0
M  V30 76 H 11.359594 10.814395 -7.027088 0
M  V30 77 H 12.073762 11.935595 -5.882025 0
M  V30 78 H 12.787144 10.371667 -6.073641 0
M  V30 79 H 12.359034 8.730611 -7.276793 0
M  V30 80 H 12.296444 7.017392 -7.445935 0
M  V30 81 H 11.513105 8.118013 -9.530860 0
M  V30 82 H 10.347608 9.064054 -8.630033 0
M  V30 83 H 6.963525 -1.576903 -16.751184 0
M  V30 84 H 10.298333 6.151774 -8.992612 0
M  V30 END ATOM
M  V30 BEGIN BOND
M  V30 1 1 2 1
M  V30 2 1 3 2
M  V30 3 1 4 3
M  V30 4 1 5 4
M  V30 5 1 6 5
M  V30 6 1 7 6
M  V30 7 1 8 7
M  V30 8 2 9 8
M  V30 9 1 10 9
M  V30 10 2 11 10
M  V30 11 2 12 7
M  V30 12 1 12 11
M  V30 13 1 13 4
M  V30 14 1 13 12
M  V30 15 1 14 13
M  V30 16 1 15 14
M  V30 17 1 16 15
M  V30 18 2 17 16
M  V30 19 1 18 17
M  V30 20 2 19 18
M  V30 21 1 20 19
M  V30 22 1 21 20
M  V30 23 1 22 21
M  V30 24 1 23 22
M  V30 25 1 24 23
M  V30 26 1 25 24
M  V30 27 1 26 25
M  V30 28 1 27 26
M  V30 29 1 28 27
M  V30 30 1 29 28
M  V30 31 2 30 29
M  V30 32 1 31 30
M  V30 33 2 32 31
M  V30 34 1 33 32
M  V30 35 1 34 29
M  V30 36 2 34 33
M  V30 37 1 35 34
M  V30 38 1 36 35
M  V30 39 1 37 28
M  V30 40 1 38 25
M  V30 41 1 38 37
M  V30 42 1 39 11
M  V30 43 2 39 15
M  V30 44 1 39 19
M  V30 45 1 40 1
M  V30 46 1 41 1
M  V30 47 1 42 1
M  V30 48 1 43 2
M  V30 49 1 44 2
M  V30 50 1 45 3
M  V30 51 1 46 3
M  V30 52 1 47 5
M  V30 53 1 48 5
M  V30 54 1 49 6
M  V30 55 1 50 6
M  V30 56 1 51 8
M  V30 57 1 52 9
M  V30 58 1 53 10
M  V30 59 1 13 54 CFG=3
M  V30 60 1 55 14
M  V30 61 1 56 14
M  V30 62 1 57 16
M  V30 63 1 58 17
M  V30 64 1 59 18
M  V30 65 1 60 21
M  V30 66 1 61 21
M  V30 67 1 62 22
M  V30 68 1 63 22
M  V30 69 1 64 23
M  V30 70 1 65 23
M  V30 71 1 66 24
M  V30 72 1 67 24
M  V30 73 1 68 26
M  V30 74 1 69 26
M  V30 75 1 70 27
M  V30 76 1 71 27
M  V30 77 1 72 30
M  V30 78 1 73 31
M  V30 79 1 74 32
M  V30 80 1 75 33
M  V30 81 1 76 36
M  V30 82 1 77 36
M  V30 83 1 78 36
M  V30 84 1 79 37
M  V30 85 1 80 37
M  V30 86 1 81 38
M  V30 87 1 82 38
M  V30 88 1 4 83 CFG=1
M  V30 89 1 84 25
M  V30 END BOND
M  V30 END CTAB
M  END
>  <b_m_subgroup_collapsed>  (193) 
0

>  <r_i_docking_score>  (193) 
-8.8919300373769801

>  <s_m_subgroup_title>  (193) 
glide-dock_SP_D22_pv

>  <s_m_subgroupid>  (193) 
glide-dock_SP_D22_pv

>  <Molecule ChEMBL ID>  (193) 
CHEMBL1684128

>  <Standard Type>  (193) 
Ki

>  <Standard Value>  (193) 
88.0

>  <label>  (193) 
1

$$$$
CHEMBL4646868
     RDKit          3D

  0  0  0  0  0  0  0  0  0  0999 V3000
M  V30 BEGIN CTAB
M  V30 COUNTS 67 72 0 0 1
M  V30 BEGIN ATOM
M  V30 1 O 9.095008 1.705787 -17.824738 0
M  V30 2 C 8.225748 1.157349 -17.143106 0
M  V30 3 C 6.954701 0.711438 -17.817364 0
M  V30 4 C 6.725626 0.959349 -19.190067 0
M  V30 5 C 5.539935 0.558783 -19.825068 0
M  V30 6 C 4.560550 -0.126356 -19.093748 0
M  V30 7 C 4.757475 -0.417301 -17.733961 0
M  V30 8 C 3.808019 -1.113361 -16.965973 0
M  V30 9 C 4.042243 -1.406869 -15.615910 0
M  V30 10 C 5.224338 -0.962626 -15.007480 0
M  V30 11 C 6.194351 -0.227388 -15.726665 0
M  V30 12 C 5.952645 0.016155 -17.101629 0
M  V30 13 C 7.420142 0.324399 -15.042003 0
M  V30 14 O 7.526613 0.188276 -13.821351 0
M  V30 15 N 8.359209 0.958527 -15.800987 0
M  V30 16 C 9.603145 1.448521 -15.156998 0
M  V30 17 C 9.612036 2.971655 -14.892774 0
M  V30 18 C 8.767568 3.428702 -13.689103 0
M  V30 19 C 8.764905 4.960907 -13.526507 0
M  V30 20 C 8.013482 5.485706 -12.280342 0
M  V30 21 C 8.667843 5.052547 -10.946364 0
M  V30 22 N 8.681122 6.098038 -9.881557 0 CHG=1
M  V30 23 C 9.624645 7.206766 -10.189627 0
M  V30 24 C 9.707243 8.222837 -9.043285 0
M  V30 25 N 10.070487 7.590786 -7.765226 0
M  V30 26 C 10.700644 8.400831 -6.768769 0
M  V30 27 N 10.887426 9.669271 -7.054389 0
M  V30 28 S 11.649338 10.490816 -5.849459 0
M  V30 29 C 11.686774 9.135796 -4.758676 0
M  V30 30 C 12.143623 9.102380 -3.428341 0
M  V30 31 C 12.178146 7.882451 -2.741667 0
M  V30 32 C 11.763202 6.715242 -3.401513 0
M  V30 33 C 11.286927 6.761802 -4.729602 0
M  V30 34 C 11.187783 7.982379 -5.449449 0
M  V30 35 C 9.116171 6.535192 -7.414573 0
M  V30 36 C 8.976694 5.491654 -8.549585 0
M  V30 37 H 7.471612 1.475421 -19.777712 0
M  V30 38 H 5.384531 0.766837 -20.872175 0
M  V30 39 H 3.652568 -0.440688 -19.584415 0
M  V30 40 H 2.895774 -1.456385 -17.430260 0
M  V30 41 H 3.301963 -1.970688 -15.056394 0
M  V30 42 H 5.385924 -1.191165 -13.964696 0
M  V30 43 H 10.451574 1.199723 -15.795795 0
M  V30 44 H 9.829923 0.909384 -14.239777 0
M  V30 45 H 9.295054 3.512159 -15.782721 0
M  V30 46 H 10.642815 3.276679 -14.718972 0
M  V30 47 H 9.173087 2.971662 -12.790428 0
M  V30 48 H 7.742144 3.073441 -13.794364 0
M  V30 49 H 8.327941 5.395849 -14.426549 0
M  V30 50 H 9.794683 5.325104 -13.501361 0
M  V30 51 H 6.974430 5.150327 -12.299336 0
M  V30 52 H 7.953548 6.572060 -12.354037 0
M  V30 53 H 9.694818 4.731907 -11.124064 0
M  V30 54 H 8.135995 4.176492 -10.577884 0
M  V30 55 H 9.315057 7.730501 -11.093144 0
M  V30 56 H 10.625236 6.804602 -10.379748 0
M  V30 57 H 8.738855 8.718077 -8.911312 0
M  V30 58 H 10.415849 9.003975 -9.340272 0
M  V30 59 H 12.490217 10.005383 -2.942539 0
M  V30 60 H 12.550399 7.837744 -1.727683 0
M  V30 61 H 11.810331 5.773786 -2.878859 0
M  V30 62 H 11.013048 5.833137 -5.196479 0
M  V30 63 H 9.409515 6.013185 -6.507154 0
M  V30 64 H 8.143011 6.991625 -7.201163 0
M  V30 65 H 8.195238 4.766789 -8.289852 0
M  V30 66 H 9.912983 4.927915 -8.623548 0
M  V30 67 H 7.748576 6.512336 -9.837769 0
M  V30 END ATOM
M  V30 BEGIN BOND
M  V30 1 2 2 1
M  V30 2 1 3 2
M  V30 3 1 4 3
M  V30 4 2 5 4
M  V30 5 1 6 5
M  V30 6 2 7 6
M  V30 7 1 8 7
M  V30 8 2 9 8
M  V30 9 1 10 9
M  V30 10 2 11 10
M  V30 11 2 12 3
M  V30 12 1 12 7
M  V30 13 1 12 11
M  V30 14 1 13 11
M  V30 15 2 14 13
M  V30 16 1 15 2
M  V30 17 1 15 13
M  V30 18 1 16 15
M  V30 19 1 17 16
M  V30 20 1 18 17
M  V30 21 1 19 18
M  V30 22 1 20 19
M  V30 23 1 21 20
M  V30 24 1 22 21
M  V30 25 1 23 22
M  V30 26 1 24 23
M  V30 27 1 25 24
M  V30 28 1 26 25
M  V30 29 2 27 26
M  V30 30 1 28 27
M  V30 31 1 29 28
M  V30 32 2 30 29
M  V30 33 1 31 30
M  V30 34 2 32 31
M  V30 35 1 33 32
M  V30 36 1 34 26
M  V30 37 1 34 29
M  V30 38 2 34 33
M  V30 39 1 35 25
M  V30 40 1 36 22
M  V30 41 1 36 35
M  V30 42 1 37 4
M  V30 43 1 38 5
M  V30 44 1 39 6
M  V30 45 1 40 8
M  V30 46 1 41 9
M  V30 47 1 42 10
M  V30 48 1 43 16
M  V30 49 1 44 16
M  V30 50 1 45 17
M  V30 51 1 46 17
M  V30 52 1 47 18
M  V30 53 1 48 18
M  V30 54 1 49 19
M  V30 55 1 50 19
M  V30 56 1 51 20
M  V30 57 1 52 20
M  V30 58 1 53 21
M  V30 59 1 54 21
M  V30 60 1 55 23
M  V30 61 1 56 23
M  V30 62 1 57 24
M  V30 63 1 58 24
M  V30 64 1 59 30
M  V30 65 1 60 31
M  V30 66 1 61 32
M  V30 67 1 62 33
M  V30 68 1 63 35
M  V30 69 1 64 35
M  V30 70 1 65 36
M  V30 71 1 66 36
M  V30 72 1 67 22
M  V30 END BOND
M  V30 END CTAB
M  END
>  <b_m_subgroup_collapsed>  (194) 
0

>  <r_i_docking_score>  (194) 
-8.8907109262843402

>  <s_m_subgroup_title>  (194) 
glide-dock_SP_D22_pv

>  <s_m_subgroupid>  (194) 
glide-dock_SP_D22_pv

>  <Molecule ChEMBL ID>  (194) 
CHEMBL4646868

>  <Standard Type>  (194) 
Ki

>  <Standard Value>  (194) 
59.0

>  <label>  (194) 
1

$$$$
CHEMBL198580
     RDKit          3D

  0  0  0  0  0  0  0  0  0  0999 V3000
M  V30 BEGIN CTAB
M  V30 COUNTS 49 52 0 0 1
M  V30 BEGIN ATOM
M  V30 1 O 10.085926 8.572132 -10.991621 0
M  V30 2 C 9.821896 7.719460 -10.149137 0
M  V30 3 N 9.287863 6.530504 -10.442600 0
M  V30 4 C 8.877330 6.058376 -11.751989 0 CFG=1
M  V30 5 C 9.768289 4.947743 -12.292446 0
M  V30 6 C 8.829862 4.180325 -13.209656 0
M  V30 7 N 7.522593 4.223013 -12.523379 0 CFG=2 CHG=1
M  V30 8 C 6.340488 4.059875 -13.381716 0
M  V30 9 C 6.180709 2.610062 -13.774237 0
M  V30 10 C 6.919265 2.036939 -14.833842 0
M  V30 11 C 6.743832 0.676945 -15.162924 0
M  V30 12 C 5.805642 -0.100998 -14.457674 0
M  V30 13 F 5.612916 -1.400427 -14.784719 0
M  V30 14 C 5.064672 0.482624 -13.413269 0
M  V30 15 F 4.132328 -0.227847 -12.746893 0
M  V30 16 C 5.275270 1.818947 -13.048968 0
M  V30 17 C 7.496282 5.412745 -11.655398 0
M  V30 18 C 10.193820 7.882288 -8.706079 0
M  V30 19 C 11.268958 8.719186 -8.338942 0
M  V30 20 C 11.686302 8.789160 -6.996042 0
M  V30 21 C 11.053221 8.004962 -6.007970 0
M  V30 22 C 11.562427 7.935198 -4.647168 0
M  V30 23 C 11.685994 6.827206 -3.852389 0
M  V30 24 C 12.210525 7.123003 -2.564243 0
M  V30 25 C 12.473387 8.456512 -2.389120 0
M  V30 26 S 12.085946 9.372635 -3.817841 0
M  V30 27 C 9.940173 7.221922 -6.368619 0
M  V30 28 C 9.494956 7.178325 -7.698914 0
M  V30 29 H 9.123925 5.912582 -9.662511 0
M  V30 30 H 8.834965 6.873981 -12.476435 0
M  V30 31 H 10.656497 5.322250 -12.802442 0
M  V30 32 H 10.086101 4.290958 -11.481317 0
M  V30 33 H 8.766974 4.687530 -14.174004 0
M  V30 34 H 9.168299 3.158421 -13.382539 0
M  V30 35 H 5.447099 4.372859 -12.837883 0
M  V30 36 H 6.407032 4.704929 -14.247101 0
M  V30 37 H 7.624772 2.629856 -15.397022 0
M  V30 38 H 7.312770 0.232509 -15.966473 0
M  V30 39 H 4.699579 2.240397 -12.238164 0
M  V30 40 H 7.286271 5.067154 -10.647468 0
M  V30 41 H 6.715636 6.126420 -11.924890 0
M  V30 42 H 11.805890 9.281028 -9.090698 0
M  V30 43 H 12.540762 9.398248 -6.740555 0
M  V30 44 H 11.422015 5.822597 -4.150153 0
M  V30 45 H 12.372772 6.349994 -1.829153 0
M  V30 46 H 12.867608 8.961527 -1.518286 0
M  V30 47 H 9.426545 6.633320 -5.622904 0
M  V30 48 H 8.632831 6.569022 -7.932092 0
M  V30 49 H 7.515168 3.441288 -11.883151 0
M  V30 END ATOM
M  V30 BEGIN BOND
M  V30 1 2 2 1
M  V30 2 1 3 2
M  V30 3 1 4 3
M  V30 4 1 5 4
M  V30 5 1 6 5
M  V30 6 1 7 6
M  V30 7 1 8 7
M  V30 8 1 9 8
M  V30 9 1 10 9
M  V30 10 2 11 10
M  V30 11 1 12 11
M  V30 12 1 13 12
M  V30 13 2 14 12
M  V30 14 1 15 14
M  V30 15 2 16 9
M  V30 16 1 16 14
M  V30 17 1 17 4
M  V30 18 1 17 7
M  V30 19 1 18 2
M  V30 20 1 19 18
M  V30 21 2 20 19
M  V30 22 1 21 20
M  V30 23 1 22 21
M  V30 24 2 23 22
M  V30 25 1 24 23
M  V30 26 2 25 24
M  V30 27 1 26 22
M  V30 28 1 26 25
M  V30 29 2 27 21
M  V30 30 2 28 18
M  V30 31 1 28 27
M  V30 32 1 29 3
M  V30 33 1 4 30 CFG=3
M  V30 34 1 31 5
M  V30 35 1 32 5
M  V30 36 1 33 6
M  V30 37 1 34 6
M  V30 38 1 35 8
M  V30 39 1 36 8
M  V30 40 1 37 10
M  V30 41 1 38 11
M  V30 42 1 39 16
M  V30 43 1 40 17
M  V30 44 1 41 17
M  V30 45 1 42 19
M  V30 46 1 43 20
M  V30 47 1 44 23
M  V30 48 1 45 24
M  V30 49 1 46 25
M  V30 50 1 47 27
M  V30 51 1 48 28
M  V30 52 1 7 49 CFG=1
M  V30 END BOND
M  V30 END CTAB
M  END
>  <b_m_subgroup_collapsed>  (195) 
0

>  <r_i_docking_score>  (195) 
-8.8892101183819108

>  <s_m_subgroup_title>  (195) 
glide-dock_SP_D22_pv

>  <s_m_subgroupid>  (195) 
glide-dock_SP_D22_pv

>  <Molecule ChEMBL ID>  (195) 
CHEMBL198580

>  <Standard Type>  (195) 
Ki

>  <Standard Value>  (195) 
18000.0

>  <label>  (195) 
0

$$$$
CHEMBL5750360
     RDKit          3D

  0  0  0  0  0  0  0  0  0  0999 V3000
M  V30 BEGIN CTAB
M  V30 COUNTS 60 63 0 0 1
M  V30 BEGIN ATOM
M  V30 1 O 7.853997 6.372509 -12.752201 0
M  V30 2 C 8.844193 5.781095 -12.325025 0
M  V30 3 N 9.472619 4.817672 -13.011364 0
M  V30 4 C 9.114848 4.376718 -14.356248 0 CFG=2
M  V30 5 C 8.290991 3.091231 -14.304199 0
M  V30 6 C 8.835364 1.836086 -14.667673 0
M  V30 7 C 8.030224 0.680174 -14.646696 0
M  V30 8 C 6.682368 0.766198 -14.246965 0
M  V30 9 Cl 5.684484 -0.638721 -14.246857 0
M  V30 10 C 6.144904 2.004033 -13.846697 0
M  V30 11 C 6.944365 3.160275 -13.876526 0
M  V30 12 C 10.299129 4.365922 -15.323268 0
M  V30 13 C 11.635103 4.525168 -14.882795 0
M  V30 14 C 12.661061 4.567736 -15.843759 0
M  V30 15 C 12.326232 4.430732 -17.203960 0
M  V30 16 C 10.970272 4.271681 -17.545507 0
M  V30 17 N 9.976623 4.245232 -16.633080 0
M  V30 18 C 9.428298 6.140195 -10.955692 0 CFG=1
M  V30 19 C 9.464807 7.666923 -10.734976 0
M  V30 20 C 9.941755 8.016530 -9.317429 0
M  V30 21 N 9.143913 7.315384 -8.272897 0 CFG=2 CHG=1
M  V30 22 C 9.481694 7.724555 -6.883138 0
M  V30 23 C 10.988083 7.599177 -6.552638 0
M  V30 24 N 11.285941 7.857058 -5.152383 0
M  V30 25 C 11.603320 6.814462 -4.282171 0
M  V30 26 C 12.086019 6.983216 -3.035381 0
M  V30 27 C 12.325643 8.352486 -2.540618 0
M  V30 28 O 12.835813 8.572480 -1.447377 0
M  V30 29 C 11.935561 9.447265 -3.444689 0
M  V30 30 C 11.462880 9.155062 -4.674087 0
M  V30 31 C 9.125192 5.842398 -8.455515 0
M  V30 32 C 8.601529 5.470635 -9.847621 0
M  V30 33 H 10.257373 4.352679 -12.581481 0
M  V30 34 H 8.456728 5.129172 -14.793525 0
M  V30 35 H 9.864670 1.750110 -14.980262 0
M  V30 36 H 8.443719 -0.272663 -14.947126 0
M  V30 37 H 5.115183 2.068487 -13.527652 0
M  V30 38 H 6.517888 4.108440 -13.580767 0
M  V30 39 H 11.889497 4.631088 -13.837510 0
M  V30 40 H 13.689181 4.699500 -15.540879 0
M  V30 41 H 13.089251 4.454926 -17.967779 0
M  V30 42 H 10.673863 4.168025 -18.580141 0
M  V30 43 H 10.451890 5.774313 -10.899877 0
M  V30 44 H 10.128850 8.134078 -11.464792 0
M  V30 45 H 8.486083 8.107654 -10.904340 0
M  V30 46 H 10.993906 7.743477 -9.235775 0
M  V30 47 H 9.877469 9.095439 -9.165496 0
M  V30 48 H 9.163430 8.758257 -6.742375 0
M  V30 49 H 8.886644 7.130941 -6.186606 0
M  V30 50 H 11.353390 6.604751 -6.808447 0
M  V30 51 H 11.571787 8.300618 -7.148740 0
M  V30 52 H 11.406960 5.826927 -4.674109 0
M  V30 53 H 12.303093 6.142808 -2.390509 0
M  V30 54 H 12.040370 10.464378 -3.094687 0
M  V30 55 H 11.165557 9.930784 -5.365888 0
M  V30 56 H 10.124157 5.426326 -8.313938 0
M  V30 57 H 8.477141 5.387393 -7.703926 0
M  V30 58 H 7.560040 5.772073 -9.940635 0
M  V30 59 H 8.616186 4.385839 -9.966552 0
M  V30 60 H 8.177702 7.592214 -8.418824 0
M  V30 END ATOM
M  V30 BEGIN BOND
M  V30 1 2 2 1
M  V30 2 1 3 2
M  V30 3 1 4 3
M  V30 4 1 5 4
M  V30 5 1 6 5
M  V30 6 2 7 6
M  V30 7 1 8 7
M  V30 8 1 9 8
M  V30 9 2 10 8
M  V30 10 2 11 5
M  V30 11 1 11 10
M  V30 12 1 12 4
M  V30 13 2 13 12
M  V30 14 1 14 13
M  V30 15 2 15 14
M  V30 16 1 16 15
M  V30 17 1 17 12
M  V30 18 2 17 16
M  V30 19 1 18 2
M  V30 20 1 19 18
M  V30 21 1 20 19
M  V30 22 1 21 20
M  V30 23 1 22 21
M  V30 24 1 23 22
M  V30 25 1 24 23
M  V30 26 1 25 24
M  V30 27 2 26 25
M  V30 28 1 27 26
M  V30 29 2 28 27
M  V30 30 1 29 27
M  V30 31 1 30 24
M  V30 32 2 30 29
M  V30 33 1 31 21
M  V30 34 1 32 18
M  V30 35 1 32 31
M  V30 36 1 33 3
M  V30 37 1 4 34 CFG=3
M  V30 38 1 35 6
M  V30 39 1 36 7
M  V30 40 1 37 10
M  V30 41 1 38 11
M  V30 42 1 39 13
M  V30 43 1 40 14
M  V30 44 1 41 15
M  V30 45 1 42 16
M  V30 46 1 18 43 CFG=3
M  V30 47 1 44 19
M  V30 48 1 45 19
M  V30 49 1 46 20
M  V30 50 1 47 20
M  V30 51 1 48 22
M  V30 52 1 49 22
M  V30 53 1 50 23
M  V30 54 1 51 23
M  V30 55 1 52 25
M  V30 56 1 53 26
M  V30 57 1 54 29
M  V30 58 1 55 30
M  V30 59 1 56 31
M  V30 60 1 57 31
M  V30 61 1 58 32
M  V30 62 1 59 32
M  V30 63 1 21 60 CFG=3
M  V30 END BOND
M  V30 END CTAB
M  END
>  <b_m_subgroup_collapsed>  (196) 
0

>  <r_i_docking_score>  (196) 
-8.8891005017479898

>  <s_m_subgroup_title>  (196) 
glide-dock_SP_D22_pv

>  <s_m_subgroupid>  (196) 
glide-dock_SP_D22_pv

>  <Molecule ChEMBL ID>  (196) 
CHEMBL5750360

>  <Standard Type>  (196) 
Ki

>  <Standard Value>  (196) 
20000.0

>  <label>  (196) 
0

$$$$
CHEMBL4590192
     RDKit          3D

  0  0  0  0  0  0  0  0  0  0999 V3000
M  V30 BEGIN CTAB
M  V30 COUNTS 63 66 0 0 1
M  V30 BEGIN ATOM
M  V30 1 O 5.286913 0.603166 -12.214211 0
M  V30 2 C 5.632326 1.064691 -13.299009 0
M  V30 3 N 6.038867 2.332989 -13.476848 0
M  V30 4 C 6.102584 3.383269 -12.464819 0
M  V30 5 C 7.256289 4.348938 -12.790203 0
M  V30 6 C 7.467348 5.454288 -11.739655 0
M  V30 7 C 8.245689 4.972529 -10.500341 0
M  V30 8 N 8.492680 6.046367 -9.500504 0 CHG=1
M  V30 9 C 8.592038 5.493474 -8.122190 0
M  V30 10 C 8.884262 6.584100 -7.082139 0
M  V30 11 N 10.128741 7.250469 -7.427194 0
M  V30 12 C 10.841966 7.866229 -6.373682 0
M  V30 13 C 11.362405 9.168253 -6.536337 0
M  V30 14 C 12.086202 9.781197 -5.508134 0
M  V30 15 C 12.278246 9.132670 -4.278297 0
M  V30 16 C 11.766368 7.834265 -4.075533 0
M  V30 17 C 11.989239 7.135025 -2.732186 0
M  V30 18 F 12.444107 8.001370 -1.828156 0
M  V30 19 F 10.886137 6.572322 -2.247458 0
M  V30 20 F 12.885916 6.172400 -2.859574 0
M  V30 21 C 11.070808 7.200619 -5.135698 0
M  V30 22 C 10.081946 7.873447 -8.752454 0
M  V30 23 C 9.688627 6.861964 -9.848392 0
M  V30 24 C 5.518223 0.249637 -14.554420 0
M  V30 25 C 4.425891 -0.629122 -14.726630 0
M  V30 26 C 4.247261 -1.314606 -15.944086 0
M  V30 27 C 5.153645 -1.125511 -17.009659 0
M  V30 28 C 4.917280 -1.778190 -18.300596 0
M  V30 29 C 5.196322 -1.110523 -19.536192 0
M  V30 30 C 4.884075 -1.857084 -20.641487 0
M  V30 31 S 4.231425 -3.408409 -20.202610 0
M  V30 32 C 4.395743 -3.030244 -18.511253 0
M  V30 33 C 6.274269 -0.287548 -16.817938 0
M  V30 34 C 6.465534 0.385081 -15.595460 0
M  V30 35 H 6.258945 2.606350 -14.422986 0
M  V30 36 H 5.154583 3.922475 -12.464391 0
M  V30 37 H 6.217735 2.972013 -11.463391 0
M  V30 38 H 8.185688 3.792991 -12.926444 0
M  V30 39 H 7.047252 4.818927 -13.751833 0
M  V30 40 H 8.008615 6.277191 -12.206186 0
M  V30 41 H 6.497004 5.855152 -11.446724 0
M  V30 42 H 7.686064 4.172011 -10.027896 0
M  V30 43 H 9.191958 4.518724 -10.799145 0
M  V30 44 H 7.681224 4.974333 -7.847910 0
M  V30 45 H 9.385460 4.745687 -8.099660 0
M  V30 46 H 8.086016 7.326338 -7.076644 0
M  V30 47 H 8.899399 6.170774 -6.077886 0
M  V30 48 H 11.224624 9.730989 -7.446312 0
M  V30 49 H 12.489112 10.765263 -5.684018 0
M  V30 50 H 12.831834 9.639307 -3.500674 0
M  V30 51 H 10.715203 6.192819 -4.980065 0
M  V30 52 H 9.366611 8.697928 -8.732534 0
M  V30 53 H 11.053294 8.291765 -9.017212 0
M  V30 54 H 10.534182 6.192647 -10.008691 0
M  V30 55 H 9.519484 7.387402 -10.788342 0
M  V30 56 H 3.693022 -0.751826 -13.942352 0
M  V30 57 H 3.389701 -1.961896 -16.068930 0
M  V30 58 H 5.595938 -0.108190 -19.576031 0
M  V30 59 H 4.971905 -1.583729 -21.683632 0
M  V30 60 H 4.085778 -3.755319 -17.770309 0
M  V30 61 H 6.993759 -0.152865 -17.611908 0
M  V30 62 H 7.325259 1.029244 -15.479149 0
M  V30 63 H 7.682555 6.669055 -9.516067 0
M  V30 END ATOM
M  V30 BEGIN BOND
M  V30 1 2 2 1
M  V30 2 1 3 2
M  V30 3 1 4 3
M  V30 4 1 5 4
M  V30 5 1 6 5
M  V30 6 1 7 6
M  V30 7 1 8 7
M  V30 8 1 9 8
M  V30 9 1 10 9
M  V30 10 1 11 10
M  V30 11 1 12 11
M  V30 12 1 13 12
M  V30 13 2 14 13
M  V30 14 1 15 14
M  V30 15 2 16 15
M  V30 16 1 17 16
M  V30 17 1 18 17
M  V30 18 1 19 17
M  V30 19 1 20 17
M  V30 20 2 21 12
M  V30 21 1 21 16
M  V30 22 1 22 11
M  V30 23 1 23 8
M  V30 24 1 23 22
M  V30 25 1 24 2
M  V30 26 1 25 24
M  V30 27 2 26 25
M  V30 28 1 27 26
M  V30 29 1 28 27
M  V30 30 1 29 28
M  V30 31 2 30 29
M  V30 32 1 31 30
M  V30 33 2 32 28
M  V30 34 1 32 31
M  V30 35 2 33 27
M  V30 36 2 34 24
M  V30 37 1 34 33
M  V30 38 1 35 3
M  V30 39 1 36 4
M  V30 40 1 37 4
M  V30 41 1 38 5
M  V30 42 1 39 5
M  V30 43 1 40 6
M  V30 44 1 41 6
M  V30 45 1 42 7
M  V30 46 1 43 7
M  V30 47 1 44 9
M  V30 48 1 45 9
M  V30 49 1 46 10
M  V30 50 1 47 10
M  V30 51 1 48 13
M  V30 52 1 49 14
M  V30 53 1 50 15
M  V30 54 1 51 21
M  V30 55 1 52 22
M  V30 56 1 53 22
M  V30 57 1 54 23
M  V30 58 1 55 23
M  V30 59 1 56 25
M  V30 60 1 57 26
M  V30 61 1 58 29
M  V30 62 1 59 30
M  V30 63 1 60 32
M  V30 64 1 61 33
M  V30 65 1 62 34
M  V30 66 1 63 8
M  V30 END BOND
M  V30 END CTAB
M  END
>  <b_m_subgroup_collapsed>  (197) 
0

>  <r_i_docking_score>  (197) 
-8.8879046963111694

>  <s_m_subgroup_title>  (197) 
glide-dock_SP_D22_pv

>  <s_m_subgroupid>  (197) 
glide-dock_SP_D22_pv

>  <Molecule ChEMBL ID>  (197) 
CHEMBL4590192

>  <Standard Type>  (197) 
Ki

>  <Standard Value>  (197) 
99.7

>  <label>  (197) 
1

$$$$
CHEMBL3676919
     RDKit          3D

  0  0  0  0  0  0  0  0  0  0999 V3000
M  V30 BEGIN CTAB
M  V30 COUNTS 73 78 0 0 1
M  V30 BEGIN ATOM
M  V30 1 O 10.178348 0.137555 -15.137861 0
M  V30 2 C 9.354206 0.552564 -15.950478 0
M  V30 3 C 9.364652 0.036972 -17.391899 0
M  V30 4 C 10.721172 0.286175 -18.040537 0
M  V30 5 C 11.219118 1.609645 -18.189657 0
M  V30 6 C 12.494126 1.847197 -18.752304 0
M  V30 7 C 13.244670 0.735608 -19.167387 0
M  V30 8 C 12.758574 -0.549124 -19.047186 0
M  V30 9 C 11.494468 -0.810729 -18.489088 0
M  V30 10 O 13.681350 -1.427515 -19.513897 0
M  V30 11 C 14.770196 -0.653653 -19.943722 0
M  V30 12 O 14.488782 0.703015 -19.712374 0
M  V30 13 N 8.454474 1.507217 -15.660767 0
M  V30 14 C 8.480334 2.319906 -14.451427 0 CFG=1
M  V30 15 C 9.510806 3.451180 -14.628779 0
M  V30 16 C 9.551046 4.345618 -13.391920 0
M  V30 17 C 8.169594 4.974216 -13.116276 0 CFG=2
M  V30 18 C 8.201726 5.943189 -11.919933 0
M  V30 19 C 8.533634 5.280214 -10.561601 0
M  V30 20 N 8.882240 6.259246 -9.504006 0 CFG=2 CHG=1
M  V30 21 C 10.260699 6.767601 -9.687325 0
M  V30 22 C 10.671771 7.777888 -8.613599 0
M  V30 23 C 10.529429 7.180419 -7.203861 0 CFG=1
M  V30 24 C 10.921142 8.162848 -6.138436 0
M  V30 25 C 10.883503 9.534906 -6.242582 0
M  V30 26 O 11.286389 10.171678 -5.108175 0
M  V30 27 C 11.623870 9.181536 -4.216578 0
M  V30 28 C 12.085978 9.348757 -2.904941 0
M  V30 29 C 12.350287 8.204465 -2.132549 0
M  V30 30 C 12.144878 6.923817 -2.683151 0
M  V30 31 C 11.686459 6.778261 -4.012379 0
M  V30 32 C 11.406369 7.909100 -4.809825 0
M  V30 33 C 9.084198 6.691502 -7.033246 0
M  V30 34 C 8.697923 5.690951 -8.140526 0
M  V30 35 C 7.064780 3.903215 -12.994119 0
M  V30 36 C 7.075746 2.888942 -14.157283 0
M  V30 37 H 8.592926 0.527591 -17.987047 0
M  V30 38 H 9.129950 -1.027859 -17.388546 0
M  V30 39 H 10.629182 2.449415 -17.853874 0
M  V30 40 H 12.883899 2.850339 -18.853643 0
M  V30 41 H 11.138455 -1.827545 -18.390516 0
M  V30 42 H 14.933150 -0.816038 -21.009790 0
M  V30 43 H 15.668392 -0.947368 -19.398676 0
M  V30 44 H 7.789558 1.763032 -16.372902 0
M  V30 45 H 8.790040 1.698292 -13.609258 0
M  V30 46 H 10.504291 3.033284 -14.799805 0
M  V30 47 H 9.272511 4.049516 -15.510032 0
M  V30 48 H 9.886356 3.737892 -12.552602 0
M  V30 49 H 10.299430 5.128309 -13.529323 0
M  V30 50 H 7.932042 5.577084 -13.991142 0
M  V30 51 H 8.917554 6.727316 -12.154765 0
M  V30 52 H 7.238456 6.449835 -11.847178 0
M  V30 53 H 7.685975 4.683399 -10.243912 0
M  V30 54 H 9.356298 4.572326 -10.647343 0
M  V30 55 H 10.905825 5.899734 -9.630246 0
M  V30 56 H 10.403279 7.217064 -10.670830 0
M  V30 57 H 11.702073 8.088314 -8.784039 0
M  V30 58 H 10.052072 8.667987 -8.721952 0
M  V30 59 H 11.188092 6.312859 -7.133276 0
M  V30 60 H 10.578648 10.172398 -7.047939 0
M  V30 61 H 12.219921 10.337910 -2.495275 0
M  V30 62 H 12.697472 8.311924 -1.114576 0
M  V30 63 H 12.335196 6.042915 -2.084889 0
M  V30 64 H 11.526495 5.789086 -4.417017 0
M  V30 65 H 8.962740 6.219384 -6.058240 0
M  V30 66 H 8.393851 7.537022 -7.049331 0
M  V30 67 H 7.662388 5.388561 -7.999498 0
M  V30 68 H 9.294986 4.783017 -8.044796 0
M  V30 69 H 7.165980 3.373803 -12.052025 0
M  V30 70 H 6.087482 4.386054 -12.947972 0
M  V30 71 H 6.675350 3.369987 -15.045800 0
M  V30 72 H 6.387626 2.073793 -13.933054 0
M  V30 73 H 8.216075 7.024540 -9.590343 0
M  V30 END ATOM
M  V30 BEGIN BOND
M  V30 1 2 2 1
M  V30 2 1 3 2
M  V30 3 1 4 3
M  V30 4 1 5 4
M  V30 5 2 6 5
M  V30 6 1 7 6
M  V30 7 2 8 7
M  V30 8 2 9 4
M  V30 9 1 9 8
M  V30 10 1 10 8
M  V30 11 1 11 10
M  V30 12 1 12 7
M  V30 13 1 12 11
M  V30 14 1 13 2
M  V30 15 1 14 13
M  V30 16 1 15 14
M  V30 17 1 16 15
M  V30 18 1 17 16
M  V30 19 1 18 17
M  V30 20 1 19 18
M  V30 21 1 20 19
M  V30 22 1 21 20
M  V30 23 1 22 21
M  V30 24 1 23 22
M  V30 25 1 24 23
M  V30 26 2 25 24
M  V30 27 1 26 25
M  V30 28 1 27 26
M  V30 29 2 28 27
M  V30 30 1 29 28
M  V30 31 2 30 29
M  V30 32 1 31 30
M  V30 33 1 32 24
M  V30 34 1 32 27
M  V30 35 2 32 31
M  V30 36 1 33 23
M  V30 37 1 34 20
M  V30 38 1 34 33
M  V30 39 1 35 17
M  V30 40 1 36 14
M  V30 41 1 36 35
M  V30 42 1 37 3
M  V30 43 1 38 3
M  V30 44 1 39 5
M  V30 45 1 40 6
M  V30 46 1 41 9
M  V30 47 1 42 11
M  V30 48 1 43 11
M  V30 49 1 44 13
M  V30 50 1 14 45 CFG=1
M  V30 51 1 46 15
M  V30 52 1 47 15
M  V30 53 1 48 16
M  V30 54 1 49 16
M  V30 55 1 17 50 CFG=3
M  V30 56 1 51 18
M  V30 57 1 52 18
M  V30 58 1 53 19
M  V30 59 1 54 19
M  V30 60 1 55 21
M  V30 61 1 56 21
M  V30 62 1 57 22
M  V30 63 1 58 22
M  V30 64 1 23 59 CFG=3
M  V30 65 1 60 25
M  V30 66 1 61 28
M  V30 67 1 62 29
M  V30 68 1 63 30
M  V30 69 1 64 31
M  V30 70 1 65 33
M  V30 71 1 66 33
M  V30 72 1 67 34
M  V30 73 1 68 34
M  V30 74 1 69 35
M  V30 75 1 70 35
M  V30 76 1 71 36
M  V30 77 1 72 36
M  V30 78 1 20 73 CFG=1
M  V30 END BOND
M  V30 END CTAB
M  END
>  <b_m_subgroup_collapsed>  (198) 
0

>  <r_i_docking_score>  (198) 
-8.8738577727969101

>  <s_m_subgroup_title>  (198) 
glide-dock_SP_D22_pv

>  <s_m_subgroupid>  (198) 
glide-dock_SP_D22_pv

>  <Molecule ChEMBL ID>  (198) 
CHEMBL3676919

>  <Standard Type>  (198) 
Ki

>  <Standard Value>  (198) 
92.47

>  <label>  (198) 
1

$$$$
CHEMBL1779059
     RDKit          3D

  0  0  0  0  0  0  0  0  0  0999 V3000
M  V30 BEGIN CTAB
M  V30 COUNTS 64 71 0 0 1
M  V30 BEGIN ATOM
M  V30 1 C 5.912518 0.185958 -14.880091 0
M  V30 2 O 6.880363 1.197203 -15.117889 0
M  V30 3 C 6.928588 2.270477 -14.249179 0
M  V30 4 C 5.921653 2.552325 -13.294905 0
M  V30 5 C 6.063665 3.638784 -12.414109 0
M  V30 6 C 7.204910 4.458969 -12.481849 0
M  V30 7 C 7.375987 5.598720 -11.500826 0
M  V30 8 C 8.427828 5.303741 -10.411906 0
M  V30 9 N 8.486838 6.368450 -9.369334 0 CFG=1 CHG=1
M  V30 10 C 8.951612 5.930113 -8.040581 0 CFG=2
M  V30 11 C 8.886216 7.222574 -7.178186 0 CFG=1
M  V30 12 C 10.125418 7.234542 -6.244718 0 CFG=2
M  V30 13 C 10.513505 8.713729 -6.238408 0
M  V30 14 C 10.635592 8.818466 -7.754694 0 CFG=1
M  V30 15 C 11.522540 7.648626 -8.146280 0 CFG=1
M  V30 16 C 11.172164 6.566908 -7.126844 0 CFG=2
M  V30 17 C 10.462831 5.773047 -8.215115 0 CFG=2
M  V30 18 C 10.819551 6.854384 -9.235226 0 CFG=1
M  V30 19 C 9.466398 7.470505 -9.502010 0 CFG=1
M  V30 20 O 9.238543 8.070507 -10.758005 0
M  V30 21 C 9.242390 8.332784 -8.236990 0 CFG=1
M  V30 22 C 8.186178 4.214236 -13.459212 0
M  V30 23 C 8.059875 3.114392 -14.345761 0
M  V30 24 O 8.952320 2.808776 -15.352127 0
M  V30 25 C 10.256725 3.378444 -15.392178 0
M  V30 26 C 11.294834 2.250487 -15.389859 0
M  V30 27 C 11.133477 1.258254 -16.528618 0
M  V30 28 C 11.957534 1.352777 -17.671080 0
M  V30 29 C 11.835455 0.412774 -18.711826 0
M  V30 30 C 10.882657 -0.620519 -18.622293 0
M  V30 31 C 10.057364 -0.714494 -17.486647 0
M  V30 32 C 10.184791 0.217234 -16.439108 0
M  V30 33 H 6.044156 -0.618388 -15.602780 0
M  V30 34 H 4.898631 0.572296 -14.996289 0
M  V30 35 H 6.022341 -0.241837 -13.882827 0
M  V30 36 H 5.036818 1.940727 -13.206842 0
M  V30 37 H 5.297672 3.825376 -11.674057 0
M  V30 38 H 7.623194 6.500677 -12.061314 0
M  V30 39 H 6.402476 5.772067 -11.047130 0
M  V30 40 H 8.140795 4.371417 -9.924112 0
M  V30 41 H 9.410749 5.130437 -10.854504 0
M  V30 42 H 8.433587 5.069478 -7.619813 0
M  V30 43 H 7.943758 7.399903 -6.655732 0
M  V30 44 H 9.975767 6.760838 -5.274791 0
M  V30 45 H 9.736769 9.369176 -5.843855 0
M  V30 46 H 11.455894 8.903944 -5.723369 0
M  V30 47 H 10.959592 9.772026 -8.158316 0
M  V30 48 H 12.589755 7.829230 -8.274195 0
M  V30 49 H 12.027413 6.090843 -6.646438 0
M  V30 50 H 10.852774 4.784332 -8.448639 0
M  V30 51 H 11.427005 6.572174 -10.088579 0
M  V30 52 H 8.299912 8.220547 -10.836711 0
M  V30 53 H 8.479112 9.107861 -8.317259 0
M  V30 54 H 9.014565 4.902555 -13.504493 0
M  V30 55 H 10.341191 3.967263 -16.306072 0
M  V30 56 H 10.505093 4.044060 -14.570980 0
M  V30 57 H 12.291383 2.690972 -15.447287 0
M  V30 58 H 11.248621 1.708366 -14.444600 0
M  V30 59 H 12.694845 2.138401 -17.744907 0
M  V30 60 H 12.473073 0.482968 -19.580597 0
M  V30 61 H 10.780571 -1.336657 -19.422924 0
M  V30 62 H 9.321111 -1.501793 -17.423834 0
M  V30 63 H 9.546183 0.134872 -15.569070 0
M  V30 64 H 7.551985 6.774214 -9.284730 0
M  V30 END ATOM
M  V30 BEGIN BOND
M  V30 1 1 2 1
M  V30 2 1 3 2
M  V30 3 1 4 3
M  V30 4 2 5 4
M  V30 5 1 6 5
M  V30 6 1 7 6
M  V30 7 1 8 7
M  V30 8 1 9 8
M  V30 9 1 10 9
M  V30 10 1 11 10
M  V30 11 1 12 11
M  V30 12 1 13 12
M  V30 13 1 14 13
M  V30 14 1 15 14
M  V30 15 1 16 12
M  V30 16 1 16 15
M  V30 17 1 17 10
M  V30 18 1 17 16
M  V30 19 1 18 15
M  V30 20 1 18 17
M  V30 21 1 19 9
M  V30 22 1 19 18
M  V30 23 1 19 20 CFG=3
M  V30 24 1 21 11
M  V30 25 1 21 14
M  V30 26 1 21 19
M  V30 27 2 22 6
M  V30 28 2 23 3
M  V30 29 1 23 22
M  V30 30 1 24 23
M  V30 31 1 25 24
M  V30 32 1 26 25
M  V30 33 1 27 26
M  V30 34 2 28 27
M  V30 35 1 29 28
M  V30 36 2 30 29
M  V30 37 1 31 30
M  V30 38 1 32 27
M  V30 39 2 32 31
M  V30 40 1 33 1
M  V30 41 1 34 1
M  V30 42 1 35 1
M  V30 43 1 36 4
M  V30 44 1 37 5
M  V30 45 1 38 7
M  V30 46 1 39 7
M  V30 47 1 40 8
M  V30 48 1 41 8
M  V30 49 1 10 42 CFG=1
M  V30 50 1 11 43 CFG=1
M  V30 51 1 12 44 CFG=1
M  V30 52 1 45 13
M  V30 53 1 46 13
M  V30 54 1 14 47 CFG=1
M  V30 55 1 15 48 CFG=3
M  V30 56 1 16 49 CFG=1
M  V30 57 1 17 50 CFG=3
M  V30 58 1 18 51 CFG=3
M  V30 59 1 52 20
M  V30 60 1 21 53 CFG=3
M  V30 61 1 54 22
M  V30 62 1 55 25
M  V30 63 1 56 25
M  V30 64 1 57 26
M  V30 65 1 58 26
M  V30 66 1 59 28
M  V30 67 1 60 29
M  V30 68 1 61 30
M  V30 69 1 62 31
M  V30 70 1 63 32
M  V30 71 1 9 64 CFG=1
M  V30 END BOND
M  V30 END CTAB
M  END
>  <b_m_subgroup_collapsed>  (199) 
0

>  <r_i_docking_score>  (199) 
-8.8725182817930204

>  <s_m_subgroup_title>  (199) 
glide-dock_SP_D22_pv

>  <s_m_subgroupid>  (199) 
glide-dock_SP_D22_pv

>  <Molecule ChEMBL ID>  (199) 
CHEMBL1779059

>  <Standard Type>  (199) 
Ki

>  <Standard Value>  (199) 
10000.0

>  <label>  (199) 
0

$$$$
CHEMBL252343
     RDKit          3D

  0  0  0  0  0  0  0  0  0  0999 V3000
M  V30 BEGIN CTAB
M  V30 COUNTS 69 73 0 0 1
M  V30 BEGIN ATOM
M  V30 1 C 5.751700 3.773906 -12.568292 0
M  V30 2 C 6.444247 5.086266 -12.939584 0
M  V30 3 C 7.286774 5.665927 -11.793652 0
M  V30 4 N 8.435392 4.810958 -11.369430 0 CFG=2 CHG=1
M  V30 5 C 8.844153 5.064541 -9.959938 0
M  V30 6 C 9.285768 6.520242 -9.679230 0
M  V30 7 N 9.556858 6.711701 -8.258702 0
M  V30 8 C 9.540992 8.137015 -7.920704 0
M  V30 9 C 9.805767 8.318041 -6.409937 0
M  V30 10 N 11.090719 7.735538 -6.022132 0
M  V30 11 C 11.551124 8.026483 -4.718563 0
M  V30 12 C 11.934784 7.005823 -3.810432 0
M  V30 13 C 12.394548 7.317511 -2.521152 0
M  V30 14 C 12.475760 8.655935 -2.105832 0
M  V30 15 C 12.078554 9.678161 -2.984622 0
M  V30 16 C 11.635338 9.371173 -4.285117 0
M  V30 17 C 11.176021 6.343628 -6.446694 0
M  V30 18 C 10.885890 6.196827 -7.942608 0
M  V30 19 C 9.598186 4.697403 -12.309769 0 CFG=2
M  V30 20 C 9.929626 5.977825 -13.083224 0
M  V30 21 C 11.255220 5.830070 -13.841841 0
M  V30 22 C 11.300262 4.576313 -14.697556 0
M  V30 23 C 12.182980 4.538710 -15.807998 0
M  V30 24 C 12.246129 3.405229 -16.647284 0
M  V30 25 C 11.411009 2.321965 -16.337498 0
M  V30 26 C 10.552931 2.338134 -15.247239 0
M  V30 27 C 10.471880 3.460644 -14.399042 0
M  V30 28 C 9.491428 3.467446 -13.236704 0
M  V30 29 C 9.795095 1.031991 -15.167231 0
M  V30 30 C 10.393383 0.318326 -16.392653 0
M  V30 31 O 10.086174 -0.819093 -16.738771 0
M  V30 32 N 11.287322 1.102926 -17.005941 0
M  V30 33 H 5.029247 3.479938 -13.330446 0
M  V30 34 H 6.471707 2.971688 -12.466860 0
M  V30 35 H 5.224704 3.867362 -11.619652 0
M  V30 36 H 5.672791 5.815812 -13.179840 0
M  V30 37 H 7.030485 4.970010 -13.847178 0
M  V30 38 H 6.612044 5.772319 -10.949876 0
M  V30 39 H 7.609838 6.680417 -12.025122 0
M  V30 40 H 9.621857 4.352866 -9.687235 0
M  V30 41 H 8.008964 4.822771 -9.306721 0
M  V30 42 H 8.486509 7.199317 -9.967891 0
M  V30 43 H 10.159344 6.801805 -10.267675 0
M  V30 44 H 8.564572 8.559430 -8.170567 0
M  V30 45 H 10.283328 8.678817 -8.508626 0
M  V30 46 H 9.012216 7.825923 -5.846637 0
M  V30 47 H 9.759221 9.374299 -6.162426 0
M  V30 48 H 11.877904 5.959543 -4.068309 0
M  V30 49 H 12.672810 6.519940 -1.846950 0
M  V30 50 H 12.815056 8.902181 -1.110644 0
M  V30 51 H 12.098702 10.704801 -2.647963 0
M  V30 52 H 11.357440 10.180082 -4.944792 0
M  V30 53 H 12.162517 5.929954 -6.241123 0
M  V30 54 H 10.448194 5.772559 -5.877024 0
M  V30 55 H 10.930508 5.142122 -8.204369 0
M  V30 56 H 11.641895 6.728697 -8.519529 0
M  V30 57 H 10.484482 4.491099 -11.715599 0
M  V30 58 H 9.130007 6.172126 -13.797640 0
M  V30 59 H 9.987564 6.848343 -12.433256 0
M  V30 60 H 12.085588 5.791193 -13.133871 0
M  V30 61 H 11.423977 6.706734 -14.468388 0
M  V30 62 H 12.815798 5.387919 -16.020727 0
M  V30 63 H 12.914227 3.374281 -17.495291 0
M  V30 64 H 9.669121 2.572685 -12.646851 0
M  V30 65 H 8.496659 3.366410 -13.665963 0
M  V30 66 H 10.016949 0.491825 -14.247705 0
M  V30 67 H 8.719861 1.173752 -15.275265 0
M  V30 68 H 11.823965 0.859272 -17.825298 0
M  V30 69 H 8.049307 3.879052 -11.323822 0
M  V30 END ATOM
M  V30 BEGIN BOND
M  V30 1 1 2 1
M  V30 2 1 3 2
M  V30 3 1 4 3
M  V30 4 1 5 4
M  V30 5 1 6 5
M  V30 6 1 7 6
M  V30 7 1 8 7
M  V30 8 1 9 8
M  V30 9 1 10 9
M  V30 10 1 11 10
M  V30 11 2 12 11
M  V30 12 1 13 12
M  V30 13 2 14 13
M  V30 14 1 15 14
M  V30 15 1 16 11
M  V30 16 2 16 15
M  V30 17 1 17 10
M  V30 18 1 18 7
M  V30 19 1 18 17
M  V30 20 1 19 4
M  V30 21 1 20 19
M  V30 22 1 21 20
M  V30 23 1 22 21
M  V30 24 1 23 22
M  V30 25 2 24 23
M  V30 26 1 25 24
M  V30 27 2 26 25
M  V30 28 2 27 22
M  V30 29 1 27 26
M  V30 30 1 28 19
M  V30 31 1 28 27
M  V30 32 1 29 26
M  V30 33 1 30 29
M  V30 34 2 31 30
M  V30 35 1 32 25
M  V30 36 1 32 30
M  V30 37 1 33 1
M  V30 38 1 34 1
M  V30 39 1 35 1
M  V30 40 1 36 2
M  V30 41 1 37 2
M  V30 42 1 38 3
M  V30 43 1 39 3
M  V30 44 1 40 5
M  V30 45 1 41 5
M  V30 46 1 42 6
M  V30 47 1 43 6
M  V30 48 1 44 8
M  V30 49 1 45 8
M  V30 50 1 46 9
M  V30 51 1 47 9
M  V30 52 1 48 12
M  V30 53 1 49 13
M  V30 54 1 50 14
M  V30 55 1 51 15
M  V30 56 1 52 16
M  V30 57 1 53 17
M  V30 58 1 54 17
M  V30 59 1 55 18
M  V30 60 1 56 18
M  V30 61 1 19 57 CFG=1
M  V30 62 1 58 20
M  V30 63 1 59 20
M  V30 64 1 60 21
M  V30 65 1 61 21
M  V30 66 1 62 23
M  V30 67 1 63 24
M  V30 68 1 64 28
M  V30 69 1 65 28
M  V30 70 1 66 29
M  V30 71 1 67 29
M  V30 72 1 68 32
M  V30 73 1 4 69 CFG=1
M  V30 END BOND
M  V30 END CTAB
M  END
>  <b_m_subgroup_collapsed>  (200) 
0

>  <r_i_docking_score>  (200) 
-8.8723955207894694

>  <s_m_subgroup_title>  (200) 
glide-dock_SP_D22_pv

>  <s_m_subgroupid>  (200) 
glide-dock_SP_D22_pv

>  <Molecule ChEMBL ID>  (200) 
CHEMBL252343

>  <Standard Type>  (200) 
Ki

>  <Standard Value>  (200) 
90.6

>  <label>  (200) 
1

$$$$
CHEMBL402143
     RDKit          3D

  0  0  0  0  0  0  0  0  0  0999 V3000
M  V30 BEGIN CTAB
M  V30 COUNTS 59 61 0 0 1
M  V30 BEGIN ATOM
M  V30 1 C 10.909903 3.562922 -14.143164 0
M  V30 2 O 9.762816 4.401253 -14.182805 0
M  V30 3 C 8.520022 3.833702 -13.977621 0
M  V30 4 C 8.152364 2.541080 -14.453680 0
M  V30 5 O 9.067837 1.804923 -15.176572 0
M  V30 6 C 8.851767 0.408838 -15.340510 0
M  V30 7 C 10.161635 -0.227723 -15.813545 0
M  V30 8 F 10.467444 0.176037 -17.045830 0
M  V30 9 C 6.844451 2.060304 -14.195621 0
M  V30 10 C 5.931845 2.824519 -13.447204 0
M  V30 11 C 6.290395 4.103142 -12.995708 0
M  V30 12 C 7.573076 4.621545 -13.273245 0
M  V30 13 C 7.947071 6.028803 -12.802747 0 CFG=1
M  V30 14 O 6.826910 6.887472 -12.646863 0
M  V30 15 C 8.869271 6.023951 -11.552646 0 CFG=1
M  V30 16 C 9.338405 7.434493 -11.137165 0
M  V30 17 C 10.173402 7.417388 -9.842419 0
M  V30 18 N 9.450771 6.739990 -8.729259 0 CFG=2 CHG=1
M  V30 19 C 10.171250 6.778401 -7.426272 0
M  V30 20 C 10.326622 8.191567 -6.821660 0
M  V30 21 C 10.993392 8.251766 -5.447507 0
M  V30 22 C 11.459132 7.097950 -4.768437 0
M  V30 23 C 12.045145 7.206493 -3.490573 0
M  V30 24 C 12.151392 8.463922 -2.869546 0
M  V30 25 F 12.697165 8.570646 -1.635209 0
M  V30 26 C 11.689360 9.612870 -3.534901 0
M  V30 27 C 11.132015 9.511614 -4.824439 0
M  V30 28 C 9.106322 5.343431 -9.099308 0
M  V30 29 C 8.232686 5.300950 -10.356496 0
M  V30 30 H 11.768508 4.147457 -13.812958 0
M  V30 31 H 10.792696 2.731226 -13.446901 0
M  V30 32 H 11.144514 3.172706 -15.133768 0
M  V30 33 H 8.565464 -0.044736 -14.390252 0
M  V30 34 H 8.054932 0.221507 -16.061571 0
M  V30 35 H 10.990241 0.037201 -15.157322 0
M  V30 36 H 10.086020 -1.313716 -15.848032 0
M  V30 37 H 6.516862 1.095816 -14.552137 0
M  V30 38 H 4.944624 2.437961 -13.240452 0
M  V30 39 H 5.572472 4.685238 -12.436262 0
M  V30 40 H 8.486129 6.480125 -13.627162 0
M  V30 41 H 6.720323 7.130458 -11.722639 0
M  V30 42 H 9.767315 5.462344 -11.812976 0
M  V30 43 H 9.922911 7.878270 -11.943894 0
M  V30 44 H 8.486114 8.096459 -10.994055 0
M  V30 45 H 10.403963 8.448503 -9.578826 0
M  V30 46 H 11.126925 6.917058 -10.018028 0
M  V30 47 H 9.607824 6.172502 -6.714985 0
M  V30 48 H 11.147958 6.305935 -7.544056 0
M  V30 49 H 10.918058 8.826294 -7.480684 0
M  V30 50 H 9.343419 8.657944 -6.738213 0
M  V30 51 H 11.377603 6.114477 -5.204093 0
M  V30 52 H 12.395818 6.321316 -2.979941 0
M  V30 53 H 11.767846 10.572362 -3.047130 0
M  V30 54 H 10.782912 10.404774 -5.322585 0
M  V30 55 H 8.563768 4.865605 -8.281774 0
M  V30 56 H 10.017941 4.763659 -9.255020 0
M  V30 57 H 7.286019 5.772312 -10.134687 0
M  V30 58 H 8.007966 4.263713 -10.604941 0
M  V30 59 H 8.567237 7.221684 -8.605052 0
M  V30 END ATOM
M  V30 BEGIN BOND
M  V30 1 1 2 1
M  V30 2 1 3 2
M  V30 3 2 4 3
M  V30 4 1 5 4
M  V30 5 1 6 5
M  V30 6 1 7 6
M  V30 7 1 8 7
M  V30 8 1 9 4
M  V30 9 2 10 9
M  V30 10 1 11 10
M  V30 11 1 12 3
M  V30 12 2 12 11
M  V30 13 1 13 12
M  V30 14 1 14 13
M  V30 15 1 15 13
M  V30 16 1 16 15
M  V30 17 1 17 16
M  V30 18 1 18 17
M  V30 19 1 19 18
M  V30 20 1 20 19
M  V30 21 1 21 20
M  V30 22 1 22 21
M  V30 23 2 23 22
M  V30 24 1 24 23
M  V30 25 1 25 24
M  V30 26 2 26 24
M  V30 27 2 27 21
M  V30 28 1 27 26
M  V30 29 1 28 18
M  V30 30 1 29 15
M  V30 31 1 29 28
M  V30 32 1 30 1
M  V30 33 1 31 1
M  V30 34 1 32 1
M  V30 35 1 33 6
M  V30 36 1 34 6
M  V30 37 1 35 7
M  V30 38 1 36 7
M  V30 39 1 37 9
M  V30 40 1 38 10
M  V30 41 1 39 11
M  V30 42 1 13 40 CFG=3
M  V30 43 1 41 14
M  V30 44 1 15 42 CFG=3
M  V30 45 1 43 16
M  V30 46 1 44 16
M  V30 47 1 45 17
M  V30 48 1 46 17
M  V30 49 1 47 19
M  V30 50 1 48 19
M  V30 51 1 49 20
M  V30 52 1 50 20
M  V30 53 1 51 22
M  V30 54 1 52 23
M  V30 55 1 53 26
M  V30 56 1 54 27
M  V30 57 1 55 28
M  V30 58 1 56 28
M  V30 59 1 57 29
M  V30 60 1 58 29
M  V30 61 1 18 59 CFG=1
M  V30 END BOND
M  V30 END CTAB
M  END
>  <b_m_subgroup_collapsed>  (201) 
0

>  <r_i_docking_score>  (201) 
-8.8712785488890002

>  <s_m_subgroup_title>  (201) 
glide-dock_SP_D22_pv

>  <s_m_subgroupid>  (201) 
glide-dock_SP_D22_pv

>  <Molecule ChEMBL ID>  (201) 
CHEMBL402143

>  <Standard Type>  (201) 
Ki

>  <Standard Value>  (201) 
10000.0

>  <label>  (201) 
0

$$$$
CHEMBL1080155
     RDKit          3D

  0  0  0  0  0  0  0  0  0  0999 V3000
M  V30 BEGIN CTAB
M  V30 COUNTS 61 65 0 0 1
M  V30 BEGIN ATOM
M  V30 1 C 8.886045 8.965137 -10.802383 0
M  V30 2 C 9.413037 7.802185 -9.937990 0 CFG=1
M  V30 3 C 10.087526 6.707437 -10.774549 0
M  V30 4 N 11.231685 7.270730 -11.511386 0
M  V30 5 C 11.621352 6.960443 -12.779547 0
M  V30 6 O 12.486003 7.613549 -13.364161 0
M  V30 7 C 11.133554 5.690773 -13.446669 0
M  V30 8 C 12.085547 4.789276 -13.972029 0
M  V30 9 C 11.684030 3.618995 -14.646065 0
M  V30 10 C 10.316406 3.300321 -14.813331 0
M  V30 11 C 9.866394 2.079405 -15.518979 0
M  V30 12 C 10.625687 1.512964 -16.569263 0
M  V30 13 C 10.151299 0.395884 -17.280643 0
M  V30 14 C 8.900596 -0.162646 -16.963367 0
M  V30 15 C 8.128285 0.361891 -15.908699 0
M  V30 16 O 6.900867 -0.227554 -15.673665 0
M  V30 17 C 6.270932 -0.096415 -14.473607 0
M  V30 18 F 5.850880 1.171188 -14.247231 0
M  V30 19 F 5.170249 -0.883169 -14.448361 0
M  V30 20 F 7.057859 -0.488774 -13.444991 0
M  V30 21 C 8.634116 1.467633 -15.182419 0
M  V30 22 C 9.368883 4.220613 -14.316829 0
M  V30 23 C 9.768971 5.395226 -13.661115 0
M  V30 24 C 12.072974 8.172286 -10.689454 0
M  V30 25 C 11.762417 8.135007 -9.171220 0
M  V30 26 N 10.331154 8.240075 -8.875312 0
M  V30 27 C 9.855597 8.574537 -7.656305 0
M  V30 28 O 8.712947 8.972300 -7.485509 0
M  V30 29 C 10.699305 8.312689 -6.440626 0
M  V30 30 C 11.073865 6.987660 -6.133758 0
M  V30 31 C 11.685926 6.686200 -4.903305 0
M  V30 32 C 11.941864 7.683542 -3.943419 0
M  V30 33 C 12.486007 7.674283 -2.617735 0
M  V30 34 C 12.485936 8.972169 -2.186524 0
M  V30 35 N 11.937483 9.772251 -3.177634 0
M  V30 36 C 11.586480 9.020090 -4.281675 0
M  V30 37 C 10.971779 9.340874 -5.510081 0
M  V30 38 H 8.085977 8.612863 -11.450035 0
M  V30 39 H 8.477296 9.769700 -10.194324 0
M  V30 40 H 9.637802 9.367506 -11.472436 0
M  V30 41 H 8.545940 7.334205 -9.463091 0
M  V30 42 H 9.313264 6.273408 -11.388480 0
M  V30 43 H 10.433225 5.894165 -10.134587 0
M  V30 44 H 13.139356 4.998839 -13.865663 0
M  V30 45 H 12.447011 2.967257 -15.043571 0
M  V30 46 H 11.570176 1.948463 -16.859972 0
M  V30 47 H 10.737879 -0.017019 -18.088358 0
M  V30 48 H 8.528922 -1.006323 -17.527239 0
M  V30 49 H 8.067894 1.879173 -14.362500 0
M  V30 50 H 8.312934 4.055745 -14.469314 0
M  V30 51 H 8.999968 6.099630 -13.380652 0
M  V30 52 H 13.129609 7.952572 -10.835053 0
M  V30 53 H 11.942137 9.192510 -11.042706 0
M  V30 54 H 12.086417 7.186028 -8.754058 0
M  V30 55 H 12.323572 8.921503 -8.663884 0
M  V30 56 H 10.843211 6.185031 -6.819794 0
M  V30 57 H 11.941504 5.669266 -4.669278 0
M  V30 58 H 12.831181 6.801637 -2.084271 0
M  V30 59 H 12.818297 9.396797 -1.250706 0
M  V30 60 H 11.813238 10.768961 -3.065327 0
M  V30 61 H 10.664606 10.356131 -5.713719 0
M  V30 END ATOM
M  V30 BEGIN BOND
M  V30 1 1 2 1
M  V30 2 1 3 2
M  V30 3 1 4 3
M  V30 4 1 5 4
M  V30 5 2 6 5
M  V30 6 1 7 5
M  V30 7 1 8 7
M  V30 8 2 9 8
M  V30 9 1 10 9
M  V30 10 1 11 10
M  V30 11 2 12 11
M  V30 12 1 13 12
M  V30 13 2 14 13
M  V30 14 1 15 14
M  V30 15 1 16 15
M  V30 16 1 17 16
M  V30 17 1 18 17
M  V30 18 1 19 17
M  V30 19 1 20 17
M  V30 20 1 21 11
M  V30 21 2 21 15
M  V30 22 2 22 10
M  V30 23 2 23 7
M  V30 24 1 23 22
M  V30 25 1 24 4
M  V30 26 1 25 24
M  V30 27 1 26 2
M  V30 28 1 26 25
M  V30 29 1 27 26
M  V30 30 2 28 27
M  V30 31 1 29 27
M  V30 32 2 30 29
M  V30 33 1 31 30
M  V30 34 2 32 31
M  V30 35 1 33 32
M  V30 36 2 34 33
M  V30 37 1 35 34
M  V30 38 1 36 32
M  V30 39 1 36 35
M  V30 40 1 37 29
M  V30 41 2 37 36
M  V30 42 1 38 1
M  V30 43 1 39 1
M  V30 44 1 40 1
M  V30 45 1 2 41 CFG=1
M  V30 46 1 42 3
M  V30 47 1 43 3
M  V30 48 1 44 8
M  V30 49 1 45 9
M  V30 50 1 46 12
M  V30 51 1 47 13
M  V30 52 1 48 14
M  V30 53 1 49 21
M  V30 54 1 50 22
M  V30 55 1 51 23
M  V30 56 1 52 24
M  V30 57 1 53 24
M  V30 58 1 54 25
M  V30 59 1 55 25
M  V30 60 1 56 30
M  V30 61 1 57 31
M  V30 62 1 58 33
M  V30 63 1 59 34
M  V30 64 1 60 35
M  V30 65 1 61 37
M  V30 END BOND
M  V30 END CTAB
M  END
>  <b_m_subgroup_collapsed>  (202) 
0

>  <r_i_docking_score>  (202) 
-8.8707732315142298

>  <s_m_subgroup_title>  (202) 
glide-dock_SP_D22_pv

>  <s_m_subgroupid>  (202) 
glide-dock_SP_D22_pv

>  <Molecule ChEMBL ID>  (202) 
CHEMBL1080155

>  <Standard Type>  (202) 
Ki

>  <Standard Value>  (202) 
10000.0

>  <label>  (202) 
0

$$$$
CHEMBL4790288
     RDKit          3D

  0  0  0  0  0  0  0  0  0  0999 V3000
M  V30 BEGIN CTAB
M  V30 COUNTS 57 60 0 0 1
M  V30 BEGIN ATOM
M  V30 1 C 3.697673 -1.297878 -15.148178 0
M  V30 2 C 4.719390 -0.342917 -14.541030 0
M  V30 3 O 4.485750 0.172234 -13.448036 0
M  V30 4 N 5.848430 -0.164564 -15.249184 0
M  V30 5 C 6.879732 0.801353 -15.071736 0
M  V30 6 C 8.059778 0.619529 -15.818535 0
M  V30 7 C 9.091288 1.574253 -15.760927 0
M  V30 8 C 8.950388 2.724318 -14.961351 0
M  V30 9 C 7.774905 2.924074 -14.195257 0
M  V30 10 O 7.560433 4.002378 -13.359611 0
M  V30 11 C 8.524530 5.045746 -13.336537 0
M  V30 12 C 8.241193 6.007345 -12.172207 0
M  V30 13 C 8.548963 5.378115 -10.792825 0
M  V30 14 N 8.851662 6.380085 -9.734308 0 CFG=2 CHG=1
M  V30 15 C 10.198038 6.984570 -9.904065 0
M  V30 16 C 10.539988 8.008686 -8.815015 0
M  V30 17 C 10.387280 7.398956 -7.410326 0 CFG=1
M  V30 18 C 10.751092 8.369464 -6.316965 0
M  V30 19 N 10.502794 9.670376 -6.442944 0
M  V30 20 O 10.949513 10.316766 -5.259389 0
M  V30 21 C 11.452033 9.371367 -4.385265 0
M  V30 22 C 11.988993 9.485917 -3.097070 0
M  V30 23 C 12.372293 8.300879 -2.440289 0
M  V30 24 F 12.885324 8.370953 -1.193478 0
M  V30 25 C 12.213123 7.045251 -3.073699 0
M  V30 26 C 11.685987 6.960318 -4.382952 0
M  V30 27 C 11.306523 8.147928 -5.042106 0
M  V30 28 C 8.965157 6.846065 -7.266404 0
M  V30 29 C 8.688646 5.807486 -8.368108 0
M  V30 30 C 6.750076 1.955635 -14.257708 0
M  V30 31 H 4.163063 -2.237874 -15.446733 0
M  V30 32 H 2.909649 -1.515205 -14.427378 0
M  V30 33 H 3.234078 -0.851923 -16.027004 0
M  V30 34 H 5.966629 -0.779963 -16.041245 0
M  V30 35 H 8.175714 -0.251162 -16.449795 0
M  V30 36 H 9.991224 1.428120 -16.340664 0
M  V30 37 H 9.762673 3.433618 -14.957751 0
M  V30 38 H 9.536688 4.658157 -13.217313 0
M  V30 39 H 8.484970 5.585521 -14.284303 0
M  V30 40 H 8.845057 6.896967 -12.339878 0
M  V30 41 H 7.206184 6.351109 -12.202120 0
M  V30 42 H 7.687262 4.776247 -10.500691 0
M  V30 43 H 9.384589 4.679718 -10.863893 0
M  V30 44 H 10.905544 6.168374 -9.854631 0
M  V30 45 H 10.312637 7.452615 -10.880275 0
M  V30 46 H 11.558666 8.371472 -8.957322 0
M  V30 47 H 9.886956 8.875099 -8.926742 0
M  V30 48 H 11.079151 6.558284 -7.341219 0
M  V30 49 H 12.085361 10.450009 -2.617764 0
M  V30 50 H 12.499747 6.142974 -2.552581 0
M  V30 51 H 11.571681 5.999012 -4.861787 0
M  V30 52 H 8.845373 6.380523 -6.287516 0
M  V30 53 H 8.236621 7.657533 -7.309846 0
M  V30 54 H 7.685833 5.412302 -8.244639 0
M  V30 55 H 9.364066 4.959791 -8.249301 0
M  V30 56 H 5.852826 2.139371 -13.687933 0
M  V30 57 H 8.144765 7.107934 -9.827263 0
M  V30 END ATOM
M  V30 BEGIN BOND
M  V30 1 1 2 1
M  V30 2 2 3 2
M  V30 3 1 4 2
M  V30 4 1 5 4
M  V30 5 1 6 5
M  V30 6 2 7 6
M  V30 7 1 8 7
M  V30 8 2 9 8
M  V30 9 1 10 9
M  V30 10 1 11 10
M  V30 11 1 12 11
M  V30 12 1 13 12
M  V30 13 1 14 13
M  V30 14 1 15 14
M  V30 15 1 16 15
M  V30 16 1 17 16
M  V30 17 1 18 17
M  V30 18 2 19 18
M  V30 19 1 20 19
M  V30 20 1 21 20
M  V30 21 1 22 21
M  V30 22 2 23 22
M  V30 23 1 24 23
M  V30 24 1 25 23
M  V30 25 2 26 25
M  V30 26 1 27 18
M  V30 27 2 27 21
M  V30 28 1 27 26
M  V30 29 1 28 17
M  V30 30 1 29 14
M  V30 31 1 29 28
M  V30 32 2 30 5
M  V30 33 1 30 9
M  V30 34 1 31 1
M  V30 35 1 32 1
M  V30 36 1 33 1
M  V30 37 1 34 4
M  V30 38 1 35 6
M  V30 39 1 36 7
M  V30 40 1 37 8
M  V30 41 1 38 11
M  V30 42 1 39 11
M  V30 43 1 40 12
M  V30 44 1 41 12
M  V30 45 1 42 13
M  V30 46 1 43 13
M  V30 47 1 44 15
M  V30 48 1 45 15
M  V30 49 1 46 16
M  V30 50 1 47 16
M  V30 51 1 17 48 CFG=3
M  V30 52 1 49 22
M  V30 53 1 50 25
M  V30 54 1 51 26
M  V30 55 1 52 28
M  V30 56 1 53 28
M  V30 57 1 54 29
M  V30 58 1 55 29
M  V30 59 1 56 30
M  V30 60 1 14 57 CFG=1
M  V30 END BOND
M  V30 END CTAB
M  END
>  <b_m_subgroup_collapsed>  (203) 
0

>  <r_i_docking_score>  (203) 
-8.8677440660658196

>  <s_m_subgroup_title>  (203) 
glide-dock_SP_D22_pv

>  <s_m_subgroupid>  (203) 
glide-dock_SP_D22_pv

>  <Molecule ChEMBL ID>  (203) 
CHEMBL4790288

>  <Standard Type>  (203) 
Ki

>  <Standard Value>  (203) 
10000.0

>  <label>  (203) 
0

$$$$
CHEMBL391984
     RDKit          3D

  0  0  0  0  0  0  0  0  0  0999 V3000
M  V30 BEGIN CTAB
M  V30 COUNTS 51 54 0 0 1
M  V30 BEGIN ATOM
M  V30 1 C 9.193024 1.328440 -15.347796 0
M  V30 2 C 8.154393 2.152570 -14.643876 0
M  V30 3 N 6.886793 1.758106 -14.613153 0
M  V30 4 O 6.175353 2.704179 -13.846585 0
M  V30 5 C 7.056079 3.651474 -13.438613 0
M  V30 6 C 8.284070 3.372217 -13.931229 0
M  V30 7 C 9.435481 4.233115 -13.644338 0
M  V30 8 O 10.612201 3.945369 -13.846917 0
M  V30 9 C 9.027462 5.605392 -13.083912 0
M  V30 10 C 7.886171 5.559980 -12.014288 0 CFG=2
M  V30 11 C 8.407978 5.060853 -10.635169 0
M  V30 12 N 8.693426 6.171565 -9.680617 0 CFG=2 CHG=1
M  V30 13 C 9.952148 6.881195 -10.029102 0
M  V30 14 C 10.296919 7.992749 -9.043001 0
M  V30 15 C 10.396496 7.470571 -7.592837 0 CFG=1
M  V30 16 C 10.772670 8.622967 -6.636901 0
M  V30 17 O 10.673157 9.772215 -7.045996 0
M  V30 18 C 11.285382 8.363635 -5.265897 0
M  V30 19 C 11.539725 7.069944 -4.753040 0
M  V30 20 C 12.078018 6.925755 -3.455775 0
M  V30 21 C 12.354003 8.062171 -2.674073 0
M  V30 22 F 12.886002 7.937914 -1.445240 0
M  V30 23 C 12.085332 9.343566 -3.167955 0
M  V30 24 C 11.553537 9.492896 -4.455543 0
M  V30 25 C 9.041829 6.822289 -7.251300 0
M  V30 26 C 8.679642 5.709916 -8.261127 0
M  V30 27 C 6.646696 4.758499 -12.526325 0
M  V30 28 H 10.012493 1.077744 -14.673378 0
M  V30 29 H 8.778552 0.392412 -15.726303 0
M  V30 30 H 9.614835 1.872337 -16.194292 0
M  V30 31 H 8.665318 6.172242 -13.940090 0
M  V30 32 H 9.918115 6.118652 -12.723511 0
M  V30 33 H 7.524469 6.576887 -11.852795 0
M  V30 34 H 9.297853 4.440691 -10.752235 0
M  V30 35 H 7.685640 4.389244 -10.181018 0
M  V30 36 H 9.856996 7.336174 -11.012432 0
M  V30 37 H 10.779140 6.172883 -10.075528 0
M  V30 38 H 9.532109 8.768915 -9.118314 0
M  V30 39 H 11.237700 8.456594 -9.346018 0
M  V30 40 H 11.184510 6.718575 -7.543385 0
M  V30 41 H 11.347228 6.182199 -5.338054 0
M  V30 42 H 12.284575 5.940904 -3.061419 0
M  V30 43 H 12.287273 10.209561 -2.557806 0
M  V30 44 H 11.362033 10.496363 -4.811754 0
M  V30 45 H 9.062923 6.402019 -6.245681 0
M  V30 46 H 8.256051 7.581479 -7.242983 0
M  V30 47 H 7.686372 5.328654 -8.017662 0
M  V30 48 H 9.375710 4.878492 -8.154552 0
M  V30 49 H 6.040033 4.377065 -11.705301 0
M  V30 50 H 5.994959 5.433510 -13.083573 0
M  V30 51 H 7.920615 6.834942 -9.770340 0
M  V30 END ATOM
M  V30 BEGIN BOND
M  V30 1 1 2 1
M  V30 2 2 3 2
M  V30 3 1 4 3
M  V30 4 1 5 4
M  V30 5 1 6 2
M  V30 6 2 6 5
M  V30 7 1 7 6
M  V30 8 2 8 7
M  V30 9 1 9 7
M  V30 10 1 10 9
M  V30 11 1 11 10
M  V30 12 1 12 11
M  V30 13 1 13 12
M  V30 14 1 14 13
M  V30 15 1 15 14
M  V30 16 1 16 15
M  V30 17 2 17 16
M  V30 18 1 18 16
M  V30 19 1 19 18
M  V30 20 2 20 19
M  V30 21 1 21 20
M  V30 22 1 22 21
M  V30 23 2 23 21
M  V30 24 2 24 18
M  V30 25 1 24 23
M  V30 26 1 25 15
M  V30 27 1 26 12
M  V30 28 1 26 25
M  V30 29 1 27 5
M  V30 30 1 27 10
M  V30 31 1 28 1
M  V30 32 1 29 1
M  V30 33 1 30 1
M  V30 34 1 31 9
M  V30 35 1 32 9
M  V30 36 1 10 33 CFG=1
M  V30 37 1 34 11
M  V30 38 1 35 11
M  V30 39 1 36 13
M  V30 40 1 37 13
M  V30 41 1 38 14
M  V30 42 1 39 14
M  V30 43 1 15 40 CFG=3
M  V30 44 1 41 19
M  V30 45 1 42 20
M  V30 46 1 43 23
M  V30 47 1 44 24
M  V30 48 1 45 25
M  V30 49 1 46 25
M  V30 50 1 47 26
M  V30 51 1 48 26
M  V30 52 1 49 27
M  V30 53 1 50 27
M  V30 54 1 12 51 CFG=1
M  V30 END BOND
M  V30 END CTAB
M  END
>  <b_m_subgroup_collapsed>  (204) 
0

>  <r_i_docking_score>  (204) 
-8.8660899044442498

>  <s_m_subgroup_title>  (204) 
glide-dock_SP_D22_pv

>  <s_m_subgroupid>  (204) 
glide-dock_SP_D22_pv

>  <Molecule ChEMBL ID>  (204) 
CHEMBL391984

>  <Standard Type>  (204) 
Ki

>  <Standard Value>  (204) 
10000.0

>  <label>  (204) 
0

$$$$
CHEMBL3588995
     RDKit          3D

  0  0  0  0  0  0  0  0  0  0999 V3000
M  V30 BEGIN CTAB
M  V30 COUNTS 62 66 0 0 1
M  V30 BEGIN ATOM
M  V30 1 O 7.248359 6.821148 -12.646839 0
M  V30 2 C 8.181461 5.768836 -12.485260 0 CFG=1
M  V30 3 C 7.884890 5.115311 -11.119533 0
M  V30 4 C 9.116108 4.783017 -10.267228 0
M  V30 5 N 9.670830 5.923172 -9.564462 0
M  V30 6 C 9.755547 6.078712 -8.202890 0
M  V30 7 C 10.433543 7.248309 -8.041416 0
M  V30 8 C 10.877548 7.877213 -6.805799 0
M  V30 9 C 10.893363 9.275998 -6.665420 0
M  V30 10 C 11.287474 9.877296 -5.454965 0
M  V30 11 C 11.686096 9.066167 -4.374618 0
M  V30 12 C 12.079376 9.635269 -3.148080 0
M  V30 13 C 12.485973 8.813245 -2.082581 0
M  V30 14 C 12.485945 7.417346 -2.244324 0
M  V30 15 C 12.085073 6.842084 -3.453595 0
M  V30 16 C 11.685040 7.659230 -4.519872 0
M  V30 17 C 11.271906 7.069146 -5.724908 0
M  V30 18 N 10.701838 7.772048 -9.308537 0
M  V30 19 N 10.241303 6.966183 -10.214142 0
M  V30 20 C 8.001570 4.815595 -13.696452 0
M  V30 21 N 8.973248 3.694290 -13.824041 0 CHG=1
M  V30 22 C 8.554313 2.796114 -14.939140 0
M  V30 23 C 9.538022 1.652630 -15.208548 0
M  V30 24 N 10.886338 2.173579 -15.407862 0
M  V30 25 C 11.383458 2.408014 -16.715359 0
M  V30 26 C 11.895844 3.685056 -17.060690 0
M  V30 27 C 12.420444 3.944730 -18.338182 0
M  V30 28 C 12.453714 2.926740 -19.302679 0
M  V30 29 C 11.963241 1.648738 -18.987957 0
M  V30 30 Cl 12.045153 0.408848 -20.191540 0
M  V30 31 C 11.427423 1.382454 -17.706146 0
M  V30 32 Cl 10.882669 -0.227698 -17.381870 0
M  V30 33 C 11.349821 2.995341 -14.296690 0
M  V30 34 C 10.380867 4.155691 -13.979769 0
M  V30 35 H 7.057766 7.208775 -11.787333 0
M  V30 36 H 9.166207 6.232626 -12.499244 0
M  V30 37 H 7.265188 5.772250 -10.511702 0
M  V30 38 H 7.284851 4.215617 -11.261844 0
M  V30 39 H 8.803034 4.093990 -9.485382 0
M  V30 40 H 9.896873 4.287436 -10.842859 0
M  V30 41 H 9.360265 5.372927 -7.489856 0
M  V30 42 H 10.583829 9.874689 -7.498274 0
M  V30 43 H 11.283558 10.953762 -5.364342 0
M  V30 44 H 12.064930 10.702972 -3.012679 0
M  V30 45 H 12.794244 9.256949 -1.146803 0
M  V30 46 H 12.810460 6.770994 -1.446882 0
M  V30 47 H 12.086314 5.772128 -3.559777 0
M  V30 48 H 11.267764 5.994007 -5.824172 0
M  V30 49 H 6.987713 4.411649 -13.674815 0
M  V30 50 H 8.084867 5.375131 -14.626086 0
M  V30 51 H 7.562362 2.388081 -14.739387 0
M  V30 52 H 8.485698 3.372535 -15.860535 0
M  V30 53 H 9.550166 0.955289 -14.369395 0
M  V30 54 H 9.175719 1.098529 -16.071257 0
M  V30 55 H 11.902873 4.500595 -16.355721 0
M  V30 56 H 12.802748 4.926727 -18.575703 0
M  V30 57 H 12.862334 3.124560 -20.282871 0
M  V30 58 H 11.413465 2.321898 -13.446869 0
M  V30 59 H 12.359311 3.372103 -14.465113 0
M  V30 60 H 10.420513 4.902917 -14.772681 0
M  V30 61 H 10.715368 4.653918 -13.070415 0
M  V30 62 H 8.935114 3.143852 -12.977615 0
M  V30 END ATOM
M  V30 BEGIN BOND
M  V30 1 1 2 1
M  V30 2 1 3 2
M  V30 3 1 4 3
M  V30 4 1 5 4
M  V30 5 1 6 5
M  V30 6 2 7 6
M  V30 7 1 8 7
M  V30 8 1 9 8
M  V30 9 2 10 9
M  V30 10 1 11 10
M  V30 11 2 12 11
M  V30 12 1 13 12
M  V30 13 2 14 13
M  V30 14 1 15 14
M  V30 15 1 16 11
M  V30 16 2 16 15
M  V30 17 2 17 8
M  V30 18 1 17 16
M  V30 19 1 18 7
M  V30 20 1 19 5
M  V30 21 2 19 18
M  V30 22 1 20 2
M  V30 23 1 21 20
M  V30 24 1 22 21
M  V30 25 1 23 22
M  V30 26 1 24 23
M  V30 27 1 25 24
M  V30 28 2 26 25
M  V30 29 1 27 26
M  V30 30 2 28 27
M  V30 31 1 29 28
M  V30 32 1 30 29
M  V30 33 1 31 25
M  V30 34 2 31 29
M  V30 35 1 32 31
M  V30 36 1 33 24
M  V30 37 1 34 21
M  V30 38 1 34 33
M  V30 39 1 35 1
M  V30 40 1 2 36 CFG=1
M  V30 41 1 37 3
M  V30 42 1 38 3
M  V30 43 1 39 4
M  V30 44 1 40 4
M  V30 45 1 41 6
M  V30 46 1 42 9
M  V30 47 1 43 10
M  V30 48 1 44 12
M  V30 49 1 45 13
M  V30 50 1 46 14
M  V30 51 1 47 15
M  V30 52 1 48 17
M  V30 53 1 49 20
M  V30 54 1 50 20
M  V30 55 1 51 22
M  V30 56 1 52 22
M  V30 57 1 53 23
M  V30 58 1 54 23
M  V30 59 1 55 26
M  V30 60 1 56 27
M  V30 61 1 57 28
M  V30 62 1 58 33
M  V30 63 1 59 33
M  V30 64 1 60 34
M  V30 65 1 61 34
M  V30 66 1 62 21
M  V30 END BOND
M  V30 END CTAB
M  END
>  <b_m_subgroup_collapsed>  (205) 
0

>  <r_i_docking_score>  (205) 
-8.8616936319608293

>  <s_m_subgroup_title>  (205) 
glide-dock_SP_D22_pv

>  <s_m_subgroupid>  (205) 
glide-dock_SP_D22_pv

>  <Molecule ChEMBL ID>  (205) 
CHEMBL3588995

>  <Standard Type>  (205) 
Ki

>  <Standard Value>  (205) 
18800.0

>  <label>  (205) 
0

$$$$
CHEMBL5779786
     RDKit          3D

  0  0  0  0  0  0  0  0  0  0999 V3000
M  V30 BEGIN CTAB
M  V30 COUNTS 62 65 0 0 1
M  V30 BEGIN ATOM
M  V30 1 O 8.165170 5.373246 -13.846657 0
M  V30 2 C 8.950683 4.844432 -13.069245 0
M  V30 3 N 9.468112 3.623060 -13.299033 0
M  V30 4 C 9.170688 2.708922 -14.420944 0 CFG=1
M  V30 5 C 7.848243 1.944042 -14.247054 0
M  V30 6 C 6.653944 2.589611 -13.846462 0
M  V30 7 C 5.515298 1.845300 -13.494300 0
M  V30 8 C 5.501948 0.454963 -13.681561 0
M  V30 9 F 4.363160 -0.234011 -13.446663 0
M  V30 10 C 6.660016 -0.202584 -14.133758 0
M  V30 11 C 7.832273 0.537211 -14.395090 0
M  V30 12 C 9.410792 3.254666 -15.840314 0
M  V30 13 C 10.199832 4.409684 -16.068537 0
M  V30 14 C 10.399869 4.902248 -17.372707 0
M  V30 15 C 9.841311 4.229967 -18.473722 0
M  V30 16 Cl 10.071445 4.839911 -20.071297 0
M  V30 17 C 9.095186 3.054990 -18.268946 0
M  V30 18 C 8.884352 2.570930 -16.963482 0
M  V30 19 C 9.407313 5.609815 -11.813177 0 CFG=1
M  V30 20 C 8.839849 7.044128 -11.779056 0
M  V30 21 C 9.286004 7.791588 -10.517156 0
M  V30 22 N 8.887339 7.066357 -9.282667 0 CFG=2 CHG=1
M  V30 23 C 9.133535 7.840186 -8.031065 0
M  V30 24 C 10.581792 8.352841 -7.860954 0
M  V30 25 O 10.676995 9.218101 -6.738224 0
M  V30 26 C 11.123383 8.731720 -5.528746 0
M  V30 27 C 11.425133 9.694491 -4.545013 0
M  V30 28 C 11.917640 9.310071 -3.283206 0
M  V30 29 C 12.086327 7.945968 -2.982902 0
M  V30 30 C 11.754946 6.972693 -3.943530 0
M  V30 31 C 11.285845 7.358561 -5.214396 0
M  V30 32 C 9.419710 5.680672 -9.248088 0
M  V30 33 C 9.033158 4.879437 -10.508412 0
M  V30 34 H 10.085629 3.245531 -12.594271 0
M  V30 35 H 9.951858 1.953884 -14.316493 0
M  V30 36 H 6.592873 3.656111 -13.730446 0
M  V30 37 H 4.627930 2.350044 -13.140280 0
M  V30 38 H 6.654100 -1.274491 -14.266918 0
M  V30 39 H 8.722670 0.010938 -14.706427 0
M  V30 40 H 10.657969 4.940085 -15.248250 0
M  V30 41 H 10.984989 5.797754 -17.527180 0
M  V30 42 H 8.680134 2.526920 -19.114489 0
M  V30 43 H 8.304844 1.669466 -16.839781 0
M  V30 44 H 10.487279 5.690538 -11.872836 0
M  V30 45 H 7.750929 7.024498 -11.846365 0
M  V30 46 H 9.181828 7.605661 -12.646867 0
M  V30 47 H 8.847850 8.789708 -10.511913 0
M  V30 48 H 10.368334 7.912638 -10.558955 0
M  V30 49 H 8.834536 7.245375 -7.167982 0
M  V30 50 H 8.466420 8.702371 -8.041195 0
M  V30 51 H 10.857987 8.980183 -8.706483 0
M  V30 52 H 11.316165 7.547671 -7.847039 0
M  V30 53 H 11.286449 10.741549 -4.768287 0
M  V30 54 H 12.154317 10.061546 -2.544508 0
M  V30 55 H 12.450606 7.646100 -2.010072 0
M  V30 56 H 11.864264 5.924454 -3.706462 0
M  V30 57 H 11.035067 6.580933 -5.919811 0
M  V30 58 H 10.503959 5.712049 -9.155778 0
M  V30 59 H 9.044284 5.166395 -8.363046 0
M  V30 60 H 7.964004 4.662948 -10.492357 0
M  V30 61 H 9.557283 3.924247 -10.476327 0
M  V30 62 H 7.871975 6.996435 -9.354507 0
M  V30 END ATOM
M  V30 BEGIN BOND
M  V30 1 2 2 1
M  V30 2 1 3 2
M  V30 3 1 4 3
M  V30 4 1 5 4
M  V30 5 1 6 5
M  V30 6 2 7 6
M  V30 7 1 8 7
M  V30 8 1 9 8
M  V30 9 2 10 8
M  V30 10 2 11 5
M  V30 11 1 11 10
M  V30 12 1 12 4
M  V30 13 1 13 12
M  V30 14 2 14 13
M  V30 15 1 15 14
M  V30 16 1 16 15
M  V30 17 2 17 15
M  V30 18 2 18 12
M  V30 19 1 18 17
M  V30 20 1 19 2
M  V30 21 1 20 19
M  V30 22 1 21 20
M  V30 23 1 22 21
M  V30 24 1 23 22
M  V30 25 1 24 23
M  V30 26 1 25 24
M  V30 27 1 26 25
M  V30 28 2 27 26
M  V30 29 1 28 27
M  V30 30 2 29 28
M  V30 31 1 30 29
M  V30 32 1 31 26
M  V30 33 2 31 30
M  V30 34 1 32 22
M  V30 35 1 33 19
M  V30 36 1 33 32
M  V30 37 1 34 3
M  V30 38 1 4 35 CFG=1
M  V30 39 1 36 6
M  V30 40 1 37 7
M  V30 41 1 38 10
M  V30 42 1 39 11
M  V30 43 1 40 13
M  V30 44 1 41 14
M  V30 45 1 42 17
M  V30 46 1 43 18
M  V30 47 1 19 44 CFG=3
M  V30 48 1 45 20
M  V30 49 1 46 20
M  V30 50 1 47 21
M  V30 51 1 48 21
M  V30 52 1 49 23
M  V30 53 1 50 23
M  V30 54 1 51 24
M  V30 55 1 52 24
M  V30 56 1 53 27
M  V30 57 1 54 28
M  V30 58 1 55 29
M  V30 59 1 56 30
M  V30 60 1 57 31
M  V30 61 1 58 32
M  V30 62 1 59 32
M  V30 63 1 60 33
M  V30 64 1 61 33
M  V30 65 1 22 62 CFG=3
M  V30 END BOND
M  V30 END CTAB
M  END
>  <b_m_subgroup_collapsed>  (206) 
0

>  <r_i_docking_score>  (206) 
-8.8601959881941692

>  <s_m_subgroup_title>  (206) 
glide-dock_SP_D22_pv

>  <s_m_subgroupid>  (206) 
glide-dock_SP_D22_pv

>  <Molecule ChEMBL ID>  (206) 
CHEMBL5779786

>  <Standard Type>  (206) 
Ki

>  <Standard Value>  (206) 
55.0

>  <label>  (206) 
1

$$$$
CHEMBL5757240
     RDKit          3D

  0  0  0  0  0  0  0  0  0  0999 V3000
M  V30 BEGIN CTAB
M  V30 COUNTS 66 70 0 0 1
M  V30 BEGIN ATOM
M  V30 1 O 10.085818 4.184735 -12.647815 0
M  V30 2 C 9.271964 4.764894 -13.363846 0
M  V30 3 N 9.494021 4.972295 -14.671694 0
M  V30 4 C 10.686148 4.508164 -15.387538 0 CFG=1
M  V30 5 C 10.546961 3.102132 -15.971198 0
M  V30 6 C 9.316437 2.401772 -15.977175 0
M  V30 7 C 9.230130 1.119173 -16.549206 0
M  V30 8 C 10.370171 0.526906 -17.124727 0
M  V30 9 Cl 10.257205 -1.027822 -17.850883 0
M  V30 10 C 11.598678 1.210477 -17.116495 0
M  V30 11 C 11.685911 2.489958 -16.538952 0
M  V30 12 C 11.128923 5.505673 -16.454771 0
M  V30 13 C 10.402028 5.662140 -17.655554 0
M  V30 14 C 10.896497 6.547504 -18.633081 0
M  V30 15 C 12.088706 7.248552 -18.369514 0
M  V30 16 C 12.729682 7.041157 -17.133459 0
M  V30 17 N 12.264992 6.191287 -16.194237 0
M  V30 18 C 7.924553 5.249064 -12.784353 0 CFG=1
M  V30 19 C 7.571245 4.615541 -11.422935 0
M  V30 20 C 8.472370 5.092495 -10.250064 0
M  V30 21 N 8.486059 6.572315 -10.189333 0 CFG=1 CHG=1
M  V30 22 C 9.123740 7.192769 -8.996535 0
M  V30 23 C 10.542114 7.779329 -9.210429 0
M  V30 24 O 10.842190 8.726388 -8.192234 0
M  V30 25 C 11.111320 8.268092 -6.926452 0
M  V30 26 C 11.285896 6.903064 -6.613049 0
M  V30 27 C 11.587098 6.522851 -5.302059 0
M  V30 28 C 11.728493 7.472593 -4.291639 0
M  V30 29 C 12.091179 7.057868 -2.997595 0
M  V30 30 C 12.317730 8.047158 -2.032263 0
M  V30 31 C 12.086059 9.382439 -2.383755 0
M  V30 32 N 11.690806 9.772610 -3.612195 0
M  V30 33 C 11.552268 8.847116 -4.576513 0
M  V30 34 C 11.237831 9.224285 -5.898562 0
M  V30 35 C 8.835669 7.215954 -11.475984 0
M  V30 36 C 7.863890 6.767210 -12.561087 0
M  V30 37 H 8.806935 5.475545 -15.210443 0
M  V30 38 H 11.509455 4.441826 -14.672623 0
M  V30 39 H 8.424020 2.832749 -15.549198 0
M  V30 40 H 8.287801 0.590931 -16.552820 0
M  V30 41 H 12.476168 0.754100 -17.552858 0
M  V30 42 H 12.636011 3.005799 -16.536514 0
M  V30 43 H 9.496458 5.100871 -17.834623 0
M  V30 44 H 10.372696 6.686372 -19.567343 0
M  V30 45 H 12.495314 7.944356 -19.089020 0
M  V30 46 H 13.637855 7.572803 -16.890457 0
M  V30 47 H 7.150564 4.968575 -13.500534 0
M  V30 48 H 6.538208 4.879227 -11.200252 0
M  V30 49 H 7.560915 3.537638 -11.502236 0
M  V30 50 H 8.086083 4.694553 -9.310979 0
M  V30 51 H 9.492605 4.721360 -10.331220 0
M  V30 52 H 8.486020 8.029936 -8.717875 0
M  V30 53 H 9.079462 6.508201 -8.150105 0
M  V30 54 H 11.296348 7.000755 -9.313220 0
M  V30 55 H 10.612251 8.372662 -10.119555 0
M  V30 56 H 11.218410 6.116843 -7.348820 0
M  V30 57 H 11.758248 5.486750 -5.081448 0
M  V30 58 H 12.243381 6.014277 -2.762845 0
M  V30 59 H 12.661766 7.794377 -1.046894 0
M  V30 60 H 12.224540 10.169452 -1.659139 0
M  V30 61 H 11.108796 10.271014 -6.129745 0
M  V30 62 H 8.748335 8.298983 -11.375808 0
M  V30 63 H 9.863828 6.991231 -11.762143 0
M  V30 64 H 8.068280 7.335203 -13.446901 0
M  V30 65 H 6.847121 7.049540 -12.279976 0
M  V30 66 H 7.503643 6.869781 -10.092110 0
M  V30 END ATOM
M  V30 BEGIN BOND
M  V30 1 2 2 1
M  V30 2 1 3 2
M  V30 3 1 4 3
M  V30 4 1 5 4
M  V30 5 1 6 5
M  V30 6 2 7 6
M  V30 7 1 8 7
M  V30 8 1 9 8
M  V30 9 2 10 8
M  V30 10 2 11 5
M  V30 11 1 11 10
M  V30 12 1 12 4
M  V30 13 2 13 12
M  V30 14 1 14 13
M  V30 15 2 15 14
M  V30 16 1 16 15
M  V30 17 1 17 12
M  V30 18 2 17 16
M  V30 19 1 18 2
M  V30 20 1 19 18
M  V30 21 1 20 19
M  V30 22 1 21 20
M  V30 23 1 22 21
M  V30 24 1 23 22
M  V30 25 1 24 23
M  V30 26 1 25 24
M  V30 27 1 26 25
M  V30 28 2 27 26
M  V30 29 1 28 27
M  V30 30 2 29 28
M  V30 31 1 30 29
M  V30 32 2 31 30
M  V30 33 1 32 31
M  V30 34 1 33 28
M  V30 35 2 33 32
M  V30 36 2 34 25
M  V30 37 1 34 33
M  V30 38 1 35 21
M  V30 39 1 36 18
M  V30 40 1 36 35
M  V30 41 1 37 3
M  V30 42 1 4 38 CFG=1
M  V30 43 1 39 6
M  V30 44 1 40 7
M  V30 45 1 41 10
M  V30 46 1 42 11
M  V30 47 1 43 13
M  V30 48 1 44 14
M  V30 49 1 45 15
M  V30 50 1 46 16
M  V30 51 1 18 47 CFG=3
M  V30 52 1 48 19
M  V30 53 1 49 19
M  V30 54 1 50 20
M  V30 55 1 51 20
M  V30 56 1 52 22
M  V30 57 1 53 22
M  V30 58 1 54 23
M  V30 59 1 55 23
M  V30 60 1 56 26
M  V30 61 1 57 27
M  V30 62 1 58 29
M  V30 63 1 59 30
M  V30 64 1 60 31
M  V30 65 1 61 34
M  V30 66 1 62 35
M  V30 67 1 63 35
M  V30 68 1 64 36
M  V30 69 1 65 36
M  V30 70 1 21 66 CFG=1
M  V30 END BOND
M  V30 END CTAB
M  END
>  <b_m_subgroup_collapsed>  (207) 
0

>  <r_i_docking_score>  (207) 
-8.8563325579276508

>  <s_m_subgroup_title>  (207) 
glide-dock_SP_D22_pv

>  <s_m_subgroupid>  (207) 
glide-dock_SP_D22_pv

>  <Molecule ChEMBL ID>  (207) 
CHEMBL5757240

>  <Standard Type>  (207) 
Ki

>  <Standard Value>  (207) 
20000.0

>  <label>  (207) 
0

$$$$
CHEMBL391984
     RDKit          3D

  0  0  0  0  0  0  0  0  0  0999 V3000
M  V30 BEGIN CTAB
M  V30 COUNTS 51 54 0 0 1
M  V30 BEGIN ATOM
M  V30 1 C 6.826214 1.290116 -14.515457 0
M  V30 2 C 6.464119 2.502293 -13.707074 0
M  V30 3 N 5.306498 2.555408 -13.048409 0
M  V30 4 O 5.280412 3.795290 -12.384950 0
M  V30 5 C 6.434354 4.442742 -12.653616 0
M  V30 6 C 7.210805 3.682243 -13.451928 0
M  V30 7 C 8.560016 4.112312 -13.845984 0
M  V30 8 O 9.378567 3.411363 -14.435040 0
M  V30 9 C 8.873851 5.578786 -13.492623 0
M  V30 10 C 8.236903 6.104045 -12.165244 0 CFG=2
M  V30 11 C 9.019991 5.584445 -10.930636 0
M  V30 12 N 8.827444 6.401521 -9.698716 0 CFG=2 CHG=1
M  V30 13 C 9.635202 7.648154 -9.680834 0
M  V30 14 C 9.329222 8.508896 -8.435585 0
M  V30 15 C 9.467839 7.749108 -7.098654 0 CFG=2
M  V30 16 C 10.918235 7.532244 -6.675833 0
M  V30 17 O 11.686727 6.972912 -7.446169 0
M  V30 18 C 11.285076 7.890699 -5.292119 0
M  V30 19 C 11.685884 6.872752 -4.402342 0
M  V30 20 C 12.085786 7.187047 -3.090364 0
M  V30 21 C 12.092711 8.528839 -2.669956 0
M  V30 22 F 12.493266 8.839730 -1.418377 0
M  V30 23 C 11.686147 9.547961 -3.551360 0
M  V30 24 C 11.286752 9.236049 -4.865967 0
M  V30 25 C 8.744176 6.394899 -7.173869 0
M  V30 26 C 9.021608 5.593497 -8.464970 0
M  V30 27 C 6.722077 5.769344 -12.066356 0
M  V30 28 H 7.709376 0.801511 -14.104506 0
M  V30 29 H 6.018667 0.557542 -14.530875 0
M  V30 30 H 7.047727 1.561997 -15.546896 0
M  V30 31 H 8.485662 6.172276 -14.316142 0
M  V30 32 H 9.954510 5.727504 -13.488350 0
M  V30 33 H 8.324314 7.189099 -12.183402 0
M  V30 34 H 10.086143 5.541425 -11.149886 0
M  V30 35 H 8.720952 4.551940 -10.745122 0
M  V30 36 H 9.422602 8.241576 -10.570720 0
M  V30 37 H 10.695352 7.397762 -9.732740 0
M  V30 38 H 8.320080 8.914970 -8.508336 0
M  V30 39 H 9.990677 9.372571 -8.433067 0
M  V30 40 H 8.999931 8.344529 -6.314242 0
M  V30 41 H 11.693130 5.840964 -4.724901 0
M  V30 42 H 12.391823 6.403115 -2.413662 0
M  V30 43 H 11.687613 10.571830 -3.211206 0
M  V30 44 H 10.992688 10.028164 -5.537627 0
M  V30 45 H 9.019365 5.782414 -6.317547 0
M  V30 46 H 7.686029 6.563215 -7.046478 0
M  V30 47 H 8.356338 4.728962 -8.488540 0
M  V30 48 H 10.037055 5.196309 -8.453918 0
M  V30 49 H 6.367670 5.772362 -11.046159 0
M  V30 50 H 6.141938 6.526232 -12.597028 0
M  V30 51 H 7.857238 6.714469 -9.702872 0
M  V30 END ATOM
M  V30 BEGIN BOND
M  V30 1 1 2 1
M  V30 2 2 3 2
M  V30 3 1 4 3
M  V30 4 1 5 4
M  V30 5 1 6 2
M  V30 6 2 6 5
M  V30 7 1 7 6
M  V30 8 2 8 7
M  V30 9 1 9 7
M  V30 10 1 10 9
M  V30 11 1 11 10
M  V30 12 1 12 11
M  V30 13 1 13 12
M  V30 14 1 14 13
M  V30 15 1 15 14
M  V30 16 1 16 15
M  V30 17 2 17 16
M  V30 18 1 18 16
M  V30 19 1 19 18
M  V30 20 2 20 19
M  V30 21 1 21 20
M  V30 22 1 22 21
M  V30 23 2 23 21
M  V30 24 2 24 18
M  V30 25 1 24 23
M  V30 26 1 25 15
M  V30 27 1 26 12
M  V30 28 1 26 25
M  V30 29 1 27 5
M  V30 30 1 27 10
M  V30 31 1 28 1
M  V30 32 1 29 1
M  V30 33 1 30 1
M  V30 34 1 31 9
M  V30 35 1 32 9
M  V30 36 1 10 33 CFG=3
M  V30 37 1 34 11
M  V30 38 1 35 11
M  V30 39 1 36 13
M  V30 40 1 37 13
M  V30 41 1 38 14
M  V30 42 1 39 14
M  V30 43 1 15 40 CFG=1
M  V30 44 1 41 19
M  V30 45 1 42 20
M  V30 46 1 43 23
M  V30 47 1 44 24
M  V30 48 1 45 25
M  V30 49 1 46 25
M  V30 50 1 47 26
M  V30 51 1 48 26
M  V30 52 1 49 27
M  V30 53 1 50 27
M  V30 54 1 12 51 CFG=1
M  V30 END BOND
M  V30 END CTAB
M  END
>  <b_m_subgroup_collapsed>  (208) 
0

>  <r_i_docking_score>  (208) 
-8.8538643261454908

>  <s_m_subgroup_title>  (208) 
glide-dock_SP_D22_pv

>  <s_m_subgroupid>  (208) 
glide-dock_SP_D22_pv

>  <Molecule ChEMBL ID>  (208) 
CHEMBL391984

>  <Standard Type>  (208) 
Ki

>  <Standard Value>  (208) 
10000.0

>  <label>  (208) 
0

$$$$
CHEMBL4590085
     RDKit          3D

  0  0  0  0  0  0  0  0  0  0999 V3000
M  V30 BEGIN CTAB
M  V30 COUNTS 50 52 0 0 1
M  V30 BEGIN ATOM
M  V30 1 O 5.373837 3.884087 -13.046787 0
M  V30 2 C 6.561158 4.101431 -13.288803 0
M  V30 3 C 7.104175 5.499617 -12.979106 0
M  V30 4 C 7.699437 5.592264 -11.569365 0
M  V30 5 C 8.632730 6.792459 -11.386474 0
M  V30 6 N 8.961617 6.993372 -9.950044 0 CFG=2 CHG=1
M  V30 7 C 9.308059 8.402256 -9.640643 0
M  V30 8 C 9.585309 8.606786 -8.135000 0
M  V30 9 C 10.725111 7.698408 -7.618963 0 CFG=1
M  V30 10 O 11.892743 7.992815 -8.364071 0
M  V30 11 C 11.035267 7.910748 -6.126580 0
M  V30 12 C 11.285918 6.818469 -5.257657 0
M  V30 13 C 11.714523 7.020531 -3.934231 0
M  V30 14 C 11.895142 8.326571 -3.447246 0
M  V30 15 Cl 12.485994 8.572972 -1.847174 0
M  V30 16 C 11.595634 9.422979 -4.274253 0
M  V30 17 C 11.187863 9.219035 -5.606823 0
M  V30 18 C 10.323144 6.243706 -7.967743 0
M  V30 19 C 9.986753 6.041759 -9.457050 0
M  V30 20 C 7.469392 3.069734 -13.890491 0
M  V30 21 C 6.884822 1.857134 -14.331145 0
M  V30 22 C 7.665717 0.827999 -14.890408 0
M  V30 23 C 9.055324 0.995551 -15.017847 0
M  V30 24 C 9.657835 2.187645 -14.580568 0
M  V30 25 F 10.999625 2.342690 -14.692659 0
M  V30 26 C 8.879608 3.219157 -14.013143 0
M  V30 27 F 9.524822 4.328907 -13.580439 0
M  V30 28 H 6.283367 6.215609 -13.046582 0
M  V30 29 H 7.825639 5.789426 -13.740890 0
M  V30 30 H 8.204795 4.665510 -11.301830 0
M  V30 31 H 6.876436 5.721413 -10.869722 0
M  V30 32 H 8.120689 7.673702 -11.776385 0
M  V30 33 H 9.541479 6.680711 -11.977933 0
M  V30 34 H 8.486511 9.054032 -9.941347 0
M  V30 35 H 10.171967 8.703662 -10.233126 0
M  V30 36 H 8.672297 8.408046 -7.570391 0
M  V30 37 H 9.808772 9.657039 -7.971320 0
M  V30 38 H 12.191269 8.861768 -8.135641 0
M  V30 39 H 11.198266 5.795904 -5.585823 0
M  V30 40 H 11.923268 6.173535 -3.299065 0
M  V30 41 H 11.685443 10.425761 -3.888333 0
M  V30 42 H 11.021606 10.086414 -6.225585 0
M  V30 43 H 11.127055 5.551308 -7.719424 0
M  V30 44 H 9.459937 5.947956 -7.368468 0
M  V30 45 H 9.659608 5.013652 -9.611104 0
M  V30 46 H 10.886337 6.176225 -10.053391 0
M  V30 47 H 5.819757 1.700325 -14.240679 0
M  V30 48 H 7.199970 -0.089890 -15.220125 0
M  V30 49 H 9.657446 0.205941 -15.443604 0
M  V30 50 H 8.089558 6.831021 -9.459360 0
M  V30 END ATOM
M  V30 BEGIN BOND
M  V30 1 2 2 1
M  V30 2 1 3 2
M  V30 3 1 4 3
M  V30 4 1 5 4
M  V30 5 1 6 5
M  V30 6 1 7 6
M  V30 7 1 8 7
M  V30 8 1 9 8
M  V30 9 1 9 10 CFG=3
M  V30 10 1 11 9
M  V30 11 1 12 11
M  V30 12 2 13 12
M  V30 13 1 14 13
M  V30 14 1 15 14
M  V30 15 2 16 14
M  V30 16 2 17 11
M  V30 17 1 17 16
M  V30 18 1 18 9
M  V30 19 1 19 6
M  V30 20 1 19 18
M  V30 21 1 20 2
M  V30 22 2 21 20
M  V30 23 1 22 21
M  V30 24 2 23 22
M  V30 25 1 24 23
M  V30 26 1 25 24
M  V30 27 1 26 20
M  V30 28 2 26 24
M  V30 29 1 27 26
M  V30 30 1 28 3
M  V30 31 1 29 3
M  V30 32 1 30 4
M  V30 33 1 31 4
M  V30 34 1 32 5
M  V30 35 1 33 5
M  V30 36 1 34 7
M  V30 37 1 35 7
M  V30 38 1 36 8
M  V30 39 1 37 8
M  V30 40 1 38 10
M  V30 41 1 39 12
M  V30 42 1 40 13
M  V30 43 1 41 16
M  V30 44 1 42 17
M  V30 45 1 43 18
M  V30 46 1 44 18
M  V30 47 1 45 19
M  V30 48 1 46 19
M  V30 49 1 47 21
M  V30 50 1 48 22
M  V30 51 1 49 23
M  V30 52 1 6 50 CFG=1
M  V30 END BOND
M  V30 END CTAB
M  END
>  <b_m_subgroup_collapsed>  (209) 
0

>  <r_i_docking_score>  (209) 
-8.8515617053772697

>  <s_m_subgroup_title>  (209) 
glide-dock_SP_D22_pv

>  <s_m_subgroupid>  (209) 
glide-dock_SP_D22_pv

>  <Molecule ChEMBL ID>  (209) 
CHEMBL4590085

>  <Standard Type>  (209) 
Ki

>  <Standard Value>  (209) 
46.77

>  <label>  (209) 
1

$$$$
CHEMBL5779786
     RDKit          3D

  0  0  0  0  0  0  0  0  0  0999 V3000
M  V30 BEGIN CTAB
M  V30 COUNTS 62 65 0 0 1
M  V30 BEGIN ATOM
M  V30 1 O 7.724586 4.963201 -13.346115 0
M  V30 2 C 8.886479 4.975910 -12.944715 0
M  V30 3 N 9.936932 4.637164 -13.705570 0
M  V30 4 C 9.926262 4.409356 -15.150293 0 CFG=2
M  V30 5 C 9.923715 2.935793 -15.547616 0
M  V30 6 C 9.555403 2.580168 -16.864553 0
M  V30 7 C 9.602583 1.236797 -17.283098 0
M  V30 8 C 10.012279 0.234978 -16.384645 0
M  V30 9 F 10.086136 -1.051587 -16.795921 0
M  V30 10 C 10.356146 0.575421 -15.063766 0
M  V30 11 C 10.319076 1.920243 -14.647521 0
M  V30 12 C 11.086587 5.139254 -15.821120 0
M  V30 13 C 10.889098 5.772313 -17.067844 0
M  V30 14 C 11.944913 6.461941 -17.694672 0
M  V30 15 C 13.211342 6.516990 -17.084318 0
M  V30 16 Cl 14.501170 7.369863 -17.846827 0
M  V30 17 C 13.423698 5.872045 -15.851832 0
M  V30 18 C 12.367994 5.183281 -15.222895 0
M  V30 19 C 9.232530 5.446400 -11.525914 0 CFG=1
M  V30 20 C 9.606695 6.941447 -11.558213 0
M  V30 21 C 9.981438 7.454080 -10.161688 0
M  V30 22 N 8.886033 7.191504 -9.195843 0 CFG=2 CHG=1
M  V30 23 C 9.038829 7.902977 -7.899043 0
M  V30 24 C 10.161158 7.374508 -6.981996 0
M  V30 25 O 10.642690 8.495131 -6.249691 0
M  V30 26 C 11.283465 8.304351 -5.045802 0
M  V30 27 C 11.516132 9.461740 -4.278032 0
M  V30 28 C 12.086087 9.372467 -2.995940 0
M  V30 29 C 12.440112 8.120094 -2.467133 0
M  V30 30 C 12.231723 6.958463 -3.231955 0
M  V30 31 C 11.670582 7.045315 -4.522088 0
M  V30 32 C 8.521726 5.756356 -9.105483 0
M  V30 33 C 8.103881 5.231722 -10.497438 0
M  V30 34 H 10.846561 4.668004 -13.274335 0
M  V30 35 H 9.008345 4.843792 -15.550999 0
M  V30 36 H 9.251818 3.341930 -17.567570 0
M  V30 37 H 9.335660 0.974005 -18.295732 0
M  V30 38 H 10.661741 -0.195134 -14.372396 0
M  V30 39 H 10.606326 2.160558 -13.634771 0
M  V30 40 H 9.920203 5.745781 -17.545166 0
M  V30 41 H 11.781591 6.955418 -18.641762 0
M  V30 42 H 14.398363 5.906694 -15.387638 0
M  V30 43 H 12.556703 4.689468 -14.281510 0
M  V30 44 H 10.086008 4.861820 -11.187870 0
M  V30 45 H 8.766665 7.524231 -11.942837 0
M  V30 46 H 10.437950 7.114528 -12.243738 0
M  V30 47 H 10.181077 8.525392 -10.215466 0
M  V30 48 H 10.902034 6.975405 -9.827010 0
M  V30 49 H 8.091011 7.885039 -7.356547 0
M  V30 50 H 9.214421 8.955581 -8.126053 0
M  V30 51 H 10.992810 6.949275 -7.543518 0
M  V30 52 H 9.752155 6.594152 -6.339039 0
M  V30 53 H 11.226280 10.427620 -4.664956 0
M  V30 54 H 12.235420 10.265753 -2.409310 0
M  V30 55 H 12.866982 8.052480 -1.477304 0
M  V30 56 H 12.501948 5.992970 -2.828340 0
M  V30 57 H 11.523272 6.131694 -5.077295 0
M  V30 58 H 9.357834 5.176573 -8.711915 0
M  V30 59 H 7.691904 5.640340 -8.406529 0
M  V30 60 H 7.207789 5.764493 -10.821991 0
M  V30 61 H 7.834594 4.175507 -10.436628 0
M  V30 62 H 8.035950 7.595139 -9.604706 0
M  V30 END ATOM
M  V30 BEGIN BOND
M  V30 1 2 2 1
M  V30 2 1 3 2
M  V30 3 1 4 3
M  V30 4 1 5 4
M  V30 5 1 6 5
M  V30 6 2 7 6
M  V30 7 1 8 7
M  V30 8 1 9 8
M  V30 9 2 10 8
M  V30 10 2 11 5
M  V30 11 1 11 10
M  V30 12 1 12 4
M  V30 13 1 13 12
M  V30 14 2 14 13
M  V30 15 1 15 14
M  V30 16 1 16 15
M  V30 17 2 17 15
M  V30 18 2 18 12
M  V30 19 1 18 17
M  V30 20 1 19 2
M  V30 21 1 20 19
M  V30 22 1 21 20
M  V30 23 1 22 21
M  V30 24 1 23 22
M  V30 25 1 24 23
M  V30 26 1 25 24
M  V30 27 1 26 25
M  V30 28 2 27 26
M  V30 29 1 28 27
M  V30 30 2 29 28
M  V30 31 1 30 29
M  V30 32 1 31 26
M  V30 33 2 31 30
M  V30 34 1 32 22
M  V30 35 1 33 19
M  V30 36 1 33 32
M  V30 37 1 34 3
M  V30 38 1 4 35 CFG=3
M  V30 39 1 36 6
M  V30 40 1 37 7
M  V30 41 1 38 10
M  V30 42 1 39 11
M  V30 43 1 40 13
M  V30 44 1 41 14
M  V30 45 1 42 17
M  V30 46 1 43 18
M  V30 47 1 19 44 CFG=1
M  V30 48 1 45 20
M  V30 49 1 46 20
M  V30 50 1 47 21
M  V30 51 1 48 21
M  V30 52 1 49 23
M  V30 53 1 50 23
M  V30 54 1 51 24
M  V30 55 1 52 24
M  V30 56 1 53 27
M  V30 57 1 54 28
M  V30 58 1 55 29
M  V30 59 1 56 30
M  V30 60 1 57 31
M  V30 61 1 58 32
M  V30 62 1 59 32
M  V30 63 1 60 33
M  V30 64 1 61 33
M  V30 65 1 22 62 CFG=3
M  V30 END BOND
M  V30 END CTAB
M  END
>  <b_m_subgroup_collapsed>  (210) 
0

>  <r_i_docking_score>  (210) 
-8.8438323978180406

>  <s_m_subgroup_title>  (210) 
glide-dock_SP_D22_pv

>  <s_m_subgroupid>  (210) 
glide-dock_SP_D22_pv

>  <Molecule ChEMBL ID>  (210) 
CHEMBL5779786

>  <Standard Type>  (210) 
Ki

>  <Standard Value>  (210) 
55.0

>  <label>  (210) 
1

$$$$
CHEMBL3817911
     RDKit          3D

  0  0  0  0  0  0  0  0  0  0999 V3000
M  V30 BEGIN CTAB
M  V30 COUNTS 54 57 0 0 1
M  V30 BEGIN ATOM
M  V30 1 O 11.314365 6.226273 -6.604597 0
M  V30 2 C 11.286031 7.329745 -6.066007 0
M  V30 3 C 11.617055 7.582551 -4.646599 0
M  V30 4 C 11.938909 6.683348 -3.623513 0
M  V30 5 C 12.242985 7.221542 -2.355942 0
M  V30 6 C 12.235080 8.623687 -2.148184 0
M  V30 7 C 11.926907 9.507812 -3.207396 0
M  V30 8 C 11.625015 8.936721 -4.454217 0
M  V30 9 C 11.307638 9.564777 -5.758104 0
M  V30 10 O 11.285850 10.773839 -5.967708 0
M  V30 11 N 11.103521 8.546509 -6.636804 0
M  V30 12 C 10.860579 8.738078 -8.071444 0
M  V30 13 C 9.414038 8.399460 -8.483699 0
M  V30 14 C 9.129023 6.897722 -8.692060 0
M  V30 15 C 9.813423 6.221827 -9.882393 0
M  V30 16 N 9.216122 6.680341 -11.166178 0 CFG=1 CHG=1
M  V30 17 C 10.062280 7.654655 -11.904440 0
M  V30 18 C 11.270630 6.979965 -12.592710 0
M  V30 19 C 10.861651 5.772069 -13.456352 0 CFG=1
M  V30 20 C 12.076014 5.006798 -14.016242 0
M  V30 21 C 11.619720 3.866117 -14.941111 0
M  V30 22 C 10.641423 2.916764 -14.229014 0
M  V30 23 C 9.453574 3.679670 -13.615359 0
M  V30 24 C 9.927352 4.812060 -12.684464 0 CFG=2
M  V30 25 C 8.747828 5.579745 -12.048796 0
M  V30 26 H 11.964813 5.626086 -3.807201 0
M  V30 27 H 12.497139 6.551528 -1.548579 0
M  V30 28 H 12.471158 9.024037 -1.172873 0
M  V30 29 H 11.925187 10.573380 -3.049468 0
M  V30 30 H 11.065663 9.772321 -8.344107 0
M  V30 31 H 11.581296 8.155869 -8.645721 0
M  V30 32 H 8.725495 8.791250 -7.732997 0
M  V30 33 H 9.160094 8.940331 -9.394522 0
M  V30 34 H 9.286883 6.330317 -7.782377 0
M  V30 35 H 8.081429 6.767702 -8.857097 0
M  V30 36 H 10.890481 6.369214 -9.849987 0
M  V30 37 H 9.665627 5.146239 -9.772552 0
M  V30 38 H 9.437585 8.151692 -12.646708 0
M  V30 39 H 10.411139 8.440207 -11.234362 0
M  V30 40 H 11.786370 7.710778 -13.216918 0
M  V30 41 H 12.001787 6.677583 -11.847986 0
M  V30 42 H 10.314107 6.158603 -14.313387 0
M  V30 43 H 12.727584 5.685233 -14.568233 0
M  V30 44 H 12.677167 4.601632 -13.200736 0
M  V30 45 H 11.137170 4.286951 -15.824244 0
M  V30 46 H 12.485493 3.311023 -15.303307 0
M  V30 47 H 10.277429 2.165836 -14.930789 0
M  V30 48 H 11.165108 2.366897 -13.447191 0
M  V30 49 H 8.831985 4.088044 -14.413173 0
M  V30 50 H 8.827108 2.983047 -13.059172 0
M  V30 51 H 10.486013 4.340869 -11.877658 0
M  V30 52 H 8.104630 4.903580 -11.482630 0
M  V30 53 H 8.119790 6.008096 -12.831561 0
M  V30 54 H 8.367040 7.170762 -10.893328 0
M  V30 END ATOM
M  V30 BEGIN BOND
M  V30 1 2 2 1
M  V30 2 1 3 2
M  V30 3 2 4 3
M  V30 4 1 5 4
M  V30 5 2 6 5
M  V30 6 1 7 6
M  V30 7 1 8 3
M  V30 8 2 8 7
M  V30 9 1 9 8
M  V30 10 2 10 9
M  V30 11 1 11 2
M  V30 12 1 11 9
M  V30 13 1 12 11
M  V30 14 1 13 12
M  V30 15 1 14 13
M  V30 16 1 15 14
M  V30 17 1 16 15
M  V30 18 1 17 16
M  V30 19 1 18 17
M  V30 20 1 19 18
M  V30 21 1 20 19
M  V30 22 1 21 20
M  V30 23 1 22 21
M  V30 24 1 23 22
M  V30 25 1 24 19
M  V30 26 1 24 23
M  V30 27 1 25 16
M  V30 28 1 25 24
M  V30 29 1 26 4
M  V30 30 1 27 5
M  V30 31 1 28 6
M  V30 32 1 29 7
M  V30 33 1 30 12
M  V30 34 1 31 12
M  V30 35 1 32 13
M  V30 36 1 33 13
M  V30 37 1 34 14
M  V30 38 1 35 14
M  V30 39 1 36 15
M  V30 40 1 37 15
M  V30 41 1 38 17
M  V30 42 1 39 17
M  V30 43 1 40 18
M  V30 44 1 41 18
M  V30 45 1 19 42 CFG=3
M  V30 46 1 43 20
M  V30 47 1 44 20
M  V30 48 1 45 21
M  V30 49 1 46 21
M  V30 50 1 47 22
M  V30 51 1 48 22
M  V30 52 1 49 23
M  V30 53 1 50 23
M  V30 54 1 24 51 CFG=1
M  V30 55 1 52 25
M  V30 56 1 53 25
M  V30 57 1 16 54 CFG=1
M  V30 END BOND
M  V30 END CTAB
M  END
>  <b_m_subgroup_collapsed>  (211) 
0

>  <r_i_docking_score>  (211) 
-8.8321604468678903

>  <s_m_subgroup_title>  (211) 
glide-dock_SP_D22_pv

>  <s_m_subgroupid>  (211) 
glide-dock_SP_D22_pv

>  <Molecule ChEMBL ID>  (211) 
CHEMBL3817911

>  <Standard Type>  (211) 
Ki

>  <Standard Value>  (211) 
10000.0

>  <label>  (211) 
0

$$$$
CHEMBL4476163
     RDKit          3D

  0  0  0  0  0  0  0  0  0  0999 V3000
M  V30 BEGIN CTAB
M  V30 COUNTS 70 74 0 0 1
M  V30 BEGIN ATOM
M  V30 1 C 11.925080 10.715702 -6.184469 0
M  V30 2 O 11.082200 10.521426 -5.058583 0
M  V30 3 C 11.456280 9.473194 -4.253052 0
M  V30 4 C 11.993381 9.771092 -2.984409 0
M  V30 5 C 12.404752 8.746742 -2.114075 0
M  V30 6 C 12.245024 7.405305 -2.495110 0
M  V30 7 C 11.694363 7.094956 -3.747316 0
M  V30 8 C 11.304341 8.117286 -4.648329 0
M  V30 9 N 10.785777 7.779763 -5.910540 0
M  V30 10 C 11.128808 6.492674 -6.476612 0
M  V30 11 C 11.174398 6.603621 -7.991050 0
M  V30 12 C 9.882221 7.146303 -8.598651 0
M  V30 13 C 8.793915 6.057454 -8.511667 0
M  V30 14 C 8.358154 5.771459 -9.941794 0
M  V30 15 N 8.886089 6.868445 -10.768638 0 CFG=2 CHG=1
M  V30 16 C 9.008774 6.619959 -12.226886 0
M  V30 17 C 9.606000 5.243690 -12.578597 0
M  V30 18 C 9.953912 5.056400 -14.063095 0
M  V30 19 S 10.280009 3.306213 -14.461952 0
M  V30 20 C 8.626628 2.668068 -14.442159 0
M  V30 21 N 7.556313 3.388193 -14.107531 0
M  V30 22 N 6.485903 2.557070 -14.246723 0
M  V30 23 C 6.972660 1.394996 -14.688879 0
M  V30 24 C 6.061035 0.317597 -15.057920 0
M  V30 25 C 4.953361 0.027295 -14.229273 0
M  V30 26 C 3.970695 -0.888951 -14.650373 0
M  V30 27 C 4.099949 -1.531290 -15.894971 0
M  V30 28 C 5.213636 -1.266876 -16.714283 0
M  V30 29 C 6.188724 -0.339059 -16.300619 0
M  V30 30 N 8.323547 1.400838 -14.789824 0
M  V30 31 C 9.228382 0.338324 -15.188665 0
M  V30 32 C 10.090025 7.383348 -10.106996 0
M  V30 33 C 9.474304 8.457694 -7.882209 0
M  V30 34 C 9.501792 8.319536 -6.350438 0
M  V30 35 H 11.582140 11.555258 -6.780520 0
M  V30 36 H 12.919161 10.967896 -5.847499 0
M  V30 37 H 12.003107 9.847747 -6.836840 0
M  V30 38 H 12.085935 10.796135 -2.654383 0
M  V30 39 H 12.818552 8.995369 -1.147507 0
M  V30 40 H 12.536151 6.606513 -1.830078 0
M  V30 41 H 11.568414 6.051545 -3.992851 0
M  V30 42 H 10.374456 5.772706 -6.168356 0
M  V30 43 H 12.091208 6.130479 -6.120636 0
M  V30 44 H 11.285947 5.601443 -8.383318 0
M  V30 45 H 12.028287 7.215304 -8.288787 0
M  V30 46 H 7.971372 6.370946 -7.884407 0
M  V30 47 H 9.143171 5.131378 -8.054205 0
M  V30 48 H 7.285925 5.770702 -10.059213 0
M  V30 49 H 8.740443 4.788783 -10.208832 0
M  V30 50 H 9.613150 7.422490 -12.646853 0
M  V30 51 H 8.017367 6.705206 -12.673596 0
M  V30 52 H 8.896144 4.474507 -12.288422 0
M  V30 53 H 10.486032 5.051928 -11.977376 0
M  V30 54 H 10.839338 5.641420 -14.311980 0
M  V30 55 H 9.152653 5.422848 -14.705606 0
M  V30 56 H 4.831717 0.544097 -13.287996 0
M  V30 57 H 3.107834 -1.088785 -14.031302 0
M  V30 58 H 3.341042 -2.227526 -16.222521 0
M  V30 59 H 5.309936 -1.763587 -17.668736 0
M  V30 60 H 7.016840 -0.113254 -16.955183 0
M  V30 61 H 10.125294 0.357210 -14.569432 0
M  V30 62 H 8.747804 -0.627912 -15.060237 0
M  V30 63 H 9.508878 0.465590 -16.233690 0
M  V30 64 H 10.955910 6.827696 -10.470031 0
M  V30 65 H 10.255195 8.432406 -10.358233 0
M  V30 66 H 10.158113 9.256934 -8.167536 0
M  V30 67 H 8.484455 8.780150 -8.207231 0
M  V30 68 H 8.712507 7.640960 -6.031412 0
M  V30 69 H 9.286014 9.281073 -5.894473 0
M  V30 70 H 8.172083 7.585656 -10.648952 0
M  V30 END ATOM
M  V30 BEGIN BOND
M  V30 1 1 2 1
M  V30 2 1 3 2
M  V30 3 2 4 3
M  V30 4 1 5 4
M  V30 5 2 6 5
M  V30 6 1 7 6
M  V30 7 1 8 3
M  V30 8 2 8 7
M  V30 9 1 9 8
M  V30 10 1 10 9
M  V30 11 1 11 10
M  V30 12 1 12 11
M  V30 13 1 13 12
M  V30 14 1 14 13
M  V30 15 1 15 14
M  V30 16 1 16 15
M  V30 17 1 17 16
M  V30 18 1 18 17
M  V30 19 1 19 18
M  V30 20 1 20 19
M  V30 21 2 21 20
M  V30 22 1 22 21
M  V30 23 2 23 22
M  V30 24 1 24 23
M  V30 25 2 25 24
M  V30 26 1 26 25
M  V30 27 2 27 26
M  V30 28 1 28 27
M  V30 29 1 29 24
M  V30 30 2 29 28
M  V30 31 1 30 20
M  V30 32 1 30 23
M  V30 33 1 31 30
M  V30 34 1 32 12
M  V30 35 1 32 15
M  V30 36 1 33 12
M  V30 37 1 34 9
M  V30 38 1 34 33
M  V30 39 1 35 1
M  V30 40 1 36 1
M  V30 41 1 37 1
M  V30 42 1 38 4
M  V30 43 1 39 5
M  V30 44 1 40 6
M  V30 45 1 41 7
M  V30 46 1 42 10
M  V30 47 1 43 10
M  V30 48 1 44 11
M  V30 49 1 45 11
M  V30 50 1 46 13
M  V30 51 1 47 13
M  V30 52 1 48 14
M  V30 53 1 49 14
M  V30 54 1 50 16
M  V30 55 1 51 16
M  V30 56 1 52 17
M  V30 57 1 53 17
M  V30 58 1 54 18
M  V30 59 1 55 18
M  V30 60 1 56 25
M  V30 61 1 57 26
M  V30 62 1 58 27
M  V30 63 1 59 28
M  V30 64 1 60 29
M  V30 65 1 61 31
M  V30 66 1 62 31
M  V30 67 1 63 31
M  V30 68 1 64 32
M  V30 69 1 65 32
M  V30 70 1 66 33
M  V30 71 1 67 33
M  V30 72 1 68 34
M  V30 73 1 69 34
M  V30 74 1 15 70 CFG=3
M  V30 END BOND
M  V30 END CTAB
M  END
>  <b_m_subgroup_collapsed>  (212) 
0

>  <r_i_docking_score>  (212) 
-8.8309199820067992

>  <s_m_subgroup_title>  (212) 
glide-dock_SP_D22_pv

>  <s_m_subgroupid>  (212) 
glide-dock_SP_D22_pv

>  <Molecule ChEMBL ID>  (212) 
CHEMBL4476163

>  <Standard Type>  (212) 
Ki

>  <Standard Value>  (212) 
21098.0

>  <label>  (212) 
0

$$$$
CHEMBL4751063
     RDKit          3D

  0  0  0  0  0  0  0  0  0  0999 V3000
M  V30 BEGIN CTAB
M  V30 COUNTS 54 58 0 0 1
M  V30 BEGIN ATOM
M  V30 1 O 9.048222 5.360579 -14.728190 0
M  V30 2 S 9.530647 4.126171 -14.098236 0
M  V30 3 O 10.770754 3.469897 -14.540018 0
M  V30 4 N 9.683565 4.431851 -12.414020 0
M  V30 5 C 8.742488 5.329645 -11.739082 0 CFG=2
M  V30 6 C 9.281074 6.766181 -11.689055 0
M  V30 7 C 9.490952 7.047193 -10.207044 0
M  V30 8 N 8.529291 6.172967 -9.508712 0 CFG=2 CHG=1
M  V30 9 C 8.719559 5.977466 -8.046391 0
M  V30 10 C 9.089065 7.251706 -7.262805 0
M  V30 11 C 10.605885 7.526017 -7.207508 0
M  V30 12 C 10.978541 8.452663 -6.094995 0
M  V30 13 N 10.885716 9.771356 -6.243432 0
M  V30 14 O 11.284947 10.354310 -5.011055 0
M  V30 15 C 11.642324 9.358996 -4.112691 0
M  V30 16 C 12.086050 9.401224 -2.787224 0
M  V30 17 C 12.342523 8.178329 -2.134596 0
M  V30 18 C 12.137712 6.953358 -2.811355 0
M  V30 19 C 11.686199 6.934977 -4.150724 0
M  V30 20 C 11.440404 8.164195 -4.798454 0
M  V30 21 C 8.550491 4.916436 -10.277807 0
M  V30 22 C 8.217118 2.930889 -14.237168 0
M  V30 23 C 6.993601 2.973164 -13.605367 0
M  V30 24 C 6.230766 1.773195 -13.847619 0
M  V30 25 C 4.976753 1.351036 -13.348734 0
M  V30 26 C 4.326538 0.204364 -13.855016 0
M  V30 27 C 4.939285 -0.549776 -14.870869 0
M  V30 28 Cl 4.091932 -1.827461 -15.641952 0
M  V30 29 C 6.234097 -0.228457 -15.303298 0
M  V30 30 C 6.872151 0.915035 -14.797261 0
M  V30 31 S 8.460702 1.521777 -15.223701 0
M  V30 32 H 9.953559 3.601569 -11.883554 0
M  V30 33 H 7.786266 5.356055 -12.257574 0
M  V30 34 H 8.533795 7.454216 -12.089748 0
M  V30 35 H 10.198276 6.915525 -12.263244 0
M  V30 36 H 9.346859 8.099684 -9.963053 0
M  V30 37 H 10.506823 6.756948 -9.940137 0
M  V30 38 H 9.461440 5.203308 -7.850646 0
M  V30 39 H 7.776782 5.586880 -7.658364 0
M  V30 40 H 8.744974 7.088204 -6.242917 0
M  V30 41 H 8.532943 8.123497 -7.613762 0
M  V30 42 H 10.965333 7.948258 -8.143700 0
M  V30 43 H 11.147245 6.588002 -7.073423 0
M  V30 44 H 12.205095 10.347054 -2.278065 0
M  V30 45 H 12.680885 8.182418 -1.108925 0
M  V30 46 H 12.324127 6.019087 -2.298189 0
M  V30 47 H 11.523795 5.997001 -4.659262 0
M  V30 48 H 9.413094 4.332612 -9.949362 0
M  V30 49 H 7.684222 4.285719 -10.123598 0
M  V30 50 H 6.641792 3.754076 -12.956182 0
M  V30 51 H 4.476192 1.965157 -12.613593 0
M  V30 52 H 3.331223 -0.050936 -13.520190 0
M  V30 53 H 6.722850 -0.837625 -16.052267 0
M  V30 54 H 7.624438 6.628751 -9.646735 0
M  V30 END ATOM
M  V30 BEGIN BOND
M  V30 1 2 2 1
M  V30 2 2 3 2
M  V30 3 1 4 2
M  V30 4 1 5 4
M  V30 5 1 6 5
M  V30 6 1 7 6
M  V30 7 1 8 7
M  V30 8 1 9 8
M  V30 9 1 10 9
M  V30 10 1 11 10
M  V30 11 1 12 11
M  V30 12 2 13 12
M  V30 13 1 14 13
M  V30 14 1 15 14
M  V30 15 2 16 15
M  V30 16 1 17 16
M  V30 17 2 18 17
M  V30 18 1 19 18
M  V30 19 1 20 12
M  V30 20 1 20 15
M  V30 21 2 20 19
M  V30 22 1 21 5
M  V30 23 1 21 8
M  V30 24 1 22 2
M  V30 25 2 23 22
M  V30 26 1 24 23
M  V30 27 1 25 24
M  V30 28 2 26 25
M  V30 29 1 27 26
M  V30 30 1 28 27
M  V30 31 2 29 27
M  V30 32 2 30 24
M  V30 33 1 30 29
M  V30 34 1 31 22
M  V30 35 1 31 30
M  V30 36 1 32 4
M  V30 37 1 5 33 CFG=3
M  V30 38 1 34 6
M  V30 39 1 35 6
M  V30 40 1 36 7
M  V30 41 1 37 7
M  V30 42 1 38 9
M  V30 43 1 39 9
M  V30 44 1 40 10
M  V30 45 1 41 10
M  V30 46 1 42 11
M  V30 47 1 43 11
M  V30 48 1 44 16
M  V30 49 1 45 17
M  V30 50 1 46 18
M  V30 51 1 47 19
M  V30 52 1 48 21
M  V30 53 1 49 21
M  V30 54 1 50 23
M  V30 55 1 51 25
M  V30 56 1 52 26
M  V30 57 1 53 29
M  V30 58 1 8 54 CFG=1
M  V30 END BOND
M  V30 END CTAB
M  END
>  <b_m_subgroup_collapsed>  (213) 
0

>  <r_i_docking_score>  (213) 
-8.8191619207875505

>  <s_m_subgroup_title>  (213) 
glide-dock_SP_D22_pv

>  <s_m_subgroupid>  (213) 
glide-dock_SP_D22_pv

>  <Molecule ChEMBL ID>  (213) 
CHEMBL4751063

>  <Standard Type>  (213) 
Ki

>  <Standard Value>  (213) 
8.318

>  <label>  (213) 
1

$$$$
CHEMBL4472206
     RDKit          3D

  0  0  0  0  0  0  0  0  0  0999 V3000
M  V30 BEGIN CTAB
M  V30 COUNTS 60 63 0 0 1
M  V30 BEGIN ATOM
M  V30 1 O 10.792897 9.565057 -7.046286 0
M  V30 2 C 11.124655 8.515732 -6.504914 0
M  V30 3 C 11.234999 7.259140 -7.363347 0
M  V30 4 C 9.984525 6.378325 -7.276618 0
M  V30 5 C 8.885652 6.700927 -8.287294 0
M  V30 6 N 9.278813 6.220160 -9.633981 0 CFG=1 CHG=1
M  V30 7 C 8.396334 5.144198 -10.138594 0
M  V30 8 C 8.929895 4.547871 -11.451840 0
M  V30 9 C 9.109565 5.595989 -12.570193 0 CFG=2
M  V30 10 O 7.869120 6.224290 -12.839194 0
M  V30 11 C 9.702225 4.973144 -13.877678 0
M  V30 12 C 10.892842 5.557034 -14.402411 0
M  V30 13 C 11.452439 5.167237 -15.627016 0
M  V30 14 C 10.825075 4.180758 -16.388422 0
M  V30 15 C 9.673142 3.560268 -15.888040 0
M  V30 16 C 9.112627 3.880113 -14.623632 0
M  V30 17 C 7.957897 3.013079 -14.227005 0
M  V30 18 C 6.712773 3.572467 -13.846993 0
M  V30 19 C 5.634237 2.774280 -13.425136 0
M  V30 20 C 5.734156 1.375258 -13.447393 0
M  V30 21 C 6.932277 0.784157 -13.875782 0
M  V30 22 C 8.038112 1.583180 -14.247021 0
M  V30 23 Cl 9.498753 0.741206 -14.650249 0
M  V30 24 C 9.958622 6.756866 -11.961488 0
M  V30 25 C 9.433099 7.308854 -10.625136 0
M  V30 26 C 11.482969 8.411138 -5.064027 0
M  V30 27 C 11.687209 7.165232 -4.417789 0
M  V30 28 C 12.134809 7.122119 -3.082840 0
M  V30 29 C 12.368724 8.318445 -2.380563 0
M  V30 30 F 12.883255 8.284806 -1.130299 0
M  V30 31 C 12.086128 9.551994 -2.991055 0
M  V30 32 C 11.643144 9.600574 -4.322690 0
M  V30 33 H 12.099818 6.688675 -7.034341 0
M  V30 34 H 11.449154 7.538727 -8.394222 0
M  V30 35 H 9.565445 6.400405 -6.269287 0
M  V30 36 H 10.303169 5.360987 -7.446505 0
M  V30 37 H 8.634443 7.763804 -8.282310 0
M  V30 38 H 7.987966 6.173491 -7.962873 0
M  V30 39 H 8.312515 4.352845 -9.391602 0
M  V30 40 H 7.395043 5.548451 -10.288341 0
M  V30 41 H 8.239220 3.772451 -11.754894 0
M  V30 42 H 9.882641 4.048385 -11.265212 0
M  V30 43 H 7.512134 6.606125 -12.048909 0
M  V30 44 H 11.411656 6.358923 -13.906486 0
M  V30 45 H 12.347603 5.650772 -15.992599 0
M  V30 46 H 11.231727 3.888060 -17.345671 0
M  V30 47 H 9.219776 2.790651 -16.494566 0
M  V30 48 H 6.544569 4.631022 -13.902412 0
M  V30 49 H 4.709434 3.243916 -13.121420 0
M  V30 50 H 4.895671 0.762328 -13.150073 0
M  V30 51 H 7.019668 -0.293594 -13.896697 0
M  V30 52 H 10.977624 6.422152 -11.791046 0
M  V30 53 H 10.029480 7.600187 -12.646937 0
M  V30 54 H 10.129256 8.055525 -10.243412 0
M  V30 55 H 8.486177 7.828074 -10.776113 0
M  V30 56 H 11.547676 6.228843 -4.936646 0
M  V30 57 H 12.325136 6.169391 -2.609011 0
M  V30 58 H 12.218385 10.467626 -2.439744 0
M  V30 59 H 11.458251 10.563665 -4.779006 0
M  V30 60 H 10.190612 5.802573 -9.522801 0
M  V30 END ATOM
M  V30 BEGIN BOND
M  V30 1 2 2 1
M  V30 2 1 3 2
M  V30 3 1 4 3
M  V30 4 1 5 4
M  V30 5 1 6 5
M  V30 6 1 7 6
M  V30 7 1 8 7
M  V30 8 1 9 8
M  V30 9 1 9 10 CFG=3
M  V30 10 1 11 9
M  V30 11 2 12 11
M  V30 12 1 13 12
M  V30 13 2 14 13
M  V30 14 1 15 14
M  V30 15 1 16 11
M  V30 16 2 16 15
M  V30 17 1 17 16
M  V30 18 2 18 17
M  V30 19 1 19 18
M  V30 20 2 20 19
M  V30 21 1 21 20
M  V30 22 1 22 17
M  V30 23 2 22 21
M  V30 24 1 23 22
M  V30 25 1 24 9
M  V30 26 1 25 6
M  V30 27 1 25 24
M  V30 28 1 26 2
M  V30 29 1 27 26
M  V30 30 2 28 27
M  V30 31 1 29 28
M  V30 32 1 30 29
M  V30 33 2 31 29
M  V30 34 2 32 26
M  V30 35 1 32 31
M  V30 36 1 33 3
M  V30 37 1 34 3
M  V30 38 1 35 4
M  V30 39 1 36 4
M  V30 40 1 37 5
M  V30 41 1 38 5
M  V30 42 1 39 7
M  V30 43 1 40 7
M  V30 44 1 41 8
M  V30 45 1 42 8
M  V30 46 1 43 10
M  V30 47 1 44 12
M  V30 48 1 45 13
M  V30 49 1 46 14
M  V30 50 1 47 15
M  V30 51 1 48 18
M  V30 52 1 49 19
M  V30 53 1 50 20
M  V30 54 1 51 21
M  V30 55 1 52 24
M  V30 56 1 53 24
M  V30 57 1 54 25
M  V30 58 1 55 25
M  V30 59 1 56 27
M  V30 60 1 57 28
M  V30 61 1 58 31
M  V30 62 1 59 32
M  V30 63 1 6 60 CFG=1
M  V30 END BOND
M  V30 END CTAB
M  END
>  <b_m_subgroup_collapsed>  (214) 
0

>  <r_i_docking_score>  (214) 
-8.8106358522920001

>  <s_m_subgroup_title>  (214) 
glide-dock_SP_D22_pv

>  <s_m_subgroupid>  (214) 
glide-dock_SP_D22_pv

>  <Molecule ChEMBL ID>  (214) 
CHEMBL4472206

>  <Standard Type>  (214) 
Ki

>  <Standard Value>  (214) 
2.455

>  <label>  (214) 
1

$$$$
CHEMBL3321791
     RDKit          3D

  0  0  0  0  0  0  0  0  0  0999 V3000
M  V30 BEGIN CTAB
M  V30 COUNTS 53 56 0 0 1
M  V30 BEGIN ATOM
M  V30 1 O 12.746755 7.856012 -8.546679 0
M  V30 2 C 11.480829 7.721373 -7.932825 0 CFG=1
M  V30 3 C 11.640218 7.892168 -6.398876 0
M  V30 4 C 11.457286 6.818314 -5.484021 0
M  V30 5 C 11.686152 6.972204 -4.103219 0
M  V30 6 C 12.131872 8.200420 -3.600295 0
M  V30 7 Cl 12.486105 8.397321 -1.924070 0
M  V30 8 C 12.334155 9.266817 -4.483541 0
M  V30 9 C 12.083964 9.129697 -5.862923 0
M  V30 10 C 10.649767 8.859591 -8.573666 0
M  V30 11 C 9.144414 8.557459 -8.595654 0 CFG=2
M  V30 12 C 8.662855 8.165396 -7.192021 0
M  V30 13 C 8.684981 6.622297 -7.187042 0
M  V30 14 C 9.359452 6.270351 -8.514103 0 CFG=2
M  V30 15 C 10.895275 6.343968 -8.407996 0
M  V30 16 N 8.886030 7.347848 -9.397732 0 CFG=2 CHG=1
M  V30 17 C 9.285969 7.376376 -10.831012 0
M  V30 18 C 8.545556 6.339967 -11.704044 0
M  V30 19 C 9.085367 4.903295 -11.605318 0
M  V30 20 S 9.113885 4.044870 -13.206355 0
M  V30 21 C 10.552560 4.546322 -14.108748 0
M  V30 22 C 11.042320 3.707719 -15.130065 0
M  V30 23 C 12.165590 4.095037 -15.887580 0
M  V30 24 C 12.795774 5.329418 -15.633966 0
M  V30 25 C 12.306195 6.170113 -14.616623 0
M  V30 26 F 12.888538 7.369883 -14.383215 0
M  V30 27 C 11.200334 5.770953 -13.843973 0
M  V30 28 H 13.079967 8.727907 -8.390728 0
M  V30 29 H 11.182654 5.830330 -5.807132 0
M  V30 30 H 11.547505 6.134475 -3.435441 0
M  V30 31 H 12.733417 10.172274 -4.079130 0
M  V30 32 H 12.303904 9.970291 -6.503214 0
M  V30 33 H 10.821867 9.772367 -8.034994 0
M  V30 34 H 10.977904 9.065247 -9.594267 0
M  V30 35 H 8.577836 9.399992 -8.990086 0
M  V30 36 H 9.233152 8.617447 -6.384643 0
M  V30 37 H 7.679339 8.550238 -7.046854 0
M  V30 38 H 9.147213 6.186134 -6.309568 0
M  V30 39 H 7.686055 6.206869 -7.185531 0
M  V30 40 H 9.038692 5.288767 -8.860786 0
M  V30 41 H 11.275990 6.172058 -9.411872 0
M  V30 42 H 11.282436 5.500570 -7.843419 0
M  V30 43 H 9.000417 8.359843 -11.206883 0
M  V30 44 H 10.362946 7.315968 -10.975983 0
M  V30 45 H 7.478050 6.335333 -11.487445 0
M  V30 46 H 8.614914 6.676375 -12.738406 0
M  V30 47 H 10.086714 4.879322 -11.187427 0
M  V30 48 H 8.455623 4.327913 -10.926770 0
M  V30 49 H 10.554751 2.765857 -15.336484 0
M  V30 50 H 12.540724 3.447880 -16.667086 0
M  V30 51 H 13.650786 5.633434 -16.219711 0
M  V30 52 H 10.851051 6.434207 -13.072515 0
M  V30 53 H 7.865547 7.302586 -9.441169 0
M  V30 END ATOM
M  V30 BEGIN BOND
M  V30 1 1 2 1 CFG=3
M  V30 2 1 3 2
M  V30 3 1 4 3
M  V30 4 2 5 4
M  V30 5 1 6 5
M  V30 6 1 7 6
M  V30 7 2 8 6
M  V30 8 2 9 3
M  V30 9 1 9 8
M  V30 10 1 10 2
M  V30 11 1 11 10
M  V30 12 1 12 11
M  V30 13 1 13 12
M  V30 14 1 14 13
M  V30 15 1 15 2
M  V30 16 1 15 14
M  V30 17 1 16 11
M  V30 18 1 16 14
M  V30 19 1 17 16
M  V30 20 1 18 17
M  V30 21 1 19 18
M  V30 22 1 20 19
M  V30 23 1 21 20
M  V30 24 2 22 21
M  V30 25 1 23 22
M  V30 26 2 24 23
M  V30 27 1 25 24
M  V30 28 1 26 25
M  V30 29 1 27 21
M  V30 30 2 27 25
M  V30 31 1 28 1
M  V30 32 1 29 4
M  V30 33 1 30 5
M  V30 34 1 31 8
M  V30 35 1 32 9
M  V30 36 1 33 10
M  V30 37 1 34 10
M  V30 38 1 11 35 CFG=3
M  V30 39 1 36 12
M  V30 40 1 37 12
M  V30 41 1 38 13
M  V30 42 1 39 13
M  V30 43 1 14 40 CFG=3
M  V30 44 1 41 15
M  V30 45 1 42 15
M  V30 46 1 43 17
M  V30 47 1 44 17
M  V30 48 1 45 18
M  V30 49 1 46 18
M  V30 50 1 47 19
M  V30 51 1 48 19
M  V30 52 1 49 22
M  V30 53 1 50 23
M  V30 54 1 51 24
M  V30 55 1 52 27
M  V30 56 1 16 53 CFG=3
M  V30 END BOND
M  V30 END CTAB
M  END
>  <b_m_subgroup_collapsed>  (215) 
0

>  <r_i_docking_score>  (215) 
-8.8089729803422294

>  <s_m_subgroup_title>  (215) 
glide-dock_SP_D22_pv

>  <s_m_subgroupid>  (215) 
glide-dock_SP_D22_pv

>  <Molecule ChEMBL ID>  (215) 
CHEMBL3321791

>  <Standard Type>  (215) 
Ki

>  <Standard Value>  (215) 
27.0

>  <label>  (215) 
1

$$$$
CHEMBL143761
     RDKit          3D

  0  0  0  0  0  0  0  0  0  0999 V3000
M  V30 BEGIN CTAB
M  V30 COUNTS 45 48 0 0 1
M  V30 BEGIN ATOM
M  V30 1 N 8.327142 0.668423 -15.708019 0
M  V30 2 C 8.149110 1.609851 -15.060439 0
M  V30 3 C 7.928112 2.794467 -14.248127 0
M  V30 4 C 6.621931 3.140801 -13.842420 0
M  V30 5 C 6.418481 4.268162 -13.024305 0
M  V30 6 C 7.523645 5.045411 -12.632929 0
M  V30 7 N 7.643646 6.172324 -11.847187 0
M  V30 8 C 8.959233 6.584842 -11.765224 0
M  V30 9 C 9.329586 7.784875 -10.958239 0
M  V30 10 N 9.301177 7.511816 -9.499144 0 CHG=1
M  V30 11 C 9.285993 8.767646 -8.707830 0
M  V30 12 C 9.279894 8.467226 -7.204536 0
M  V30 13 N 10.454688 7.689042 -6.861589 0
M  V30 14 C 11.006465 7.871138 -5.574843 0
M  V30 15 C 11.285488 9.174900 -5.096531 0
M  V30 16 C 11.808024 9.372359 -3.802670 0
M  V30 17 C 12.085820 8.272001 -2.974649 0
M  V30 18 F 12.590096 8.465755 -1.733813 0
M  V30 19 C 11.832418 6.971839 -3.440953 0
M  V30 20 C 11.289683 6.776695 -4.727127 0
M  V30 21 C 10.486513 6.399718 -7.536799 0
M  V30 22 C 10.386586 6.579431 -9.069508 0
M  V30 23 C 9.735607 5.724466 -12.498099 0
M  V30 24 C 8.852190 4.733493 -13.047207 0
M  V30 25 C 9.027874 3.588393 -13.857579 0
M  V30 26 H 5.777993 2.533721 -14.138769 0
M  V30 27 H 5.424769 4.531455 -12.692991 0
M  V30 28 H 6.900747 6.674703 -11.344449 0
M  V30 29 H 8.623523 8.584592 -11.188005 0
M  V30 30 H 10.313412 8.152713 -11.254218 0
M  V30 31 H 8.408484 9.362247 -8.966312 0
M  V30 32 H 10.160488 9.371017 -8.959599 0
M  V30 33 H 8.383591 7.902468 -6.940731 0
M  V30 34 H 9.237627 9.371933 -6.619968 0
M  V30 35 H 11.100842 10.039874 -5.717104 0
M  V30 36 H 11.993025 10.367679 -3.431769 0
M  V30 37 H 12.036994 6.121988 -2.806255 0
M  V30 38 H 11.081944 5.772375 -5.046606 0
M  V30 39 H 11.404384 5.861885 -7.297415 0
M  V30 40 H 9.654421 5.792484 -7.175655 0
M  V30 41 H 10.250784 5.604389 -9.538279 0
M  V30 42 H 11.337741 6.971536 -9.431972 0
M  V30 43 H 10.805921 5.764620 -12.640305 0
M  V30 44 H 10.024602 3.316578 -14.173644 0
M  V30 45 H 8.407653 7.066532 -9.317222 0
M  V30 END ATOM
M  V30 BEGIN BOND
M  V30 1 3 2 1
M  V30 2 1 3 2
M  V30 3 1 4 3
M  V30 4 2 5 4
M  V30 5 1 6 5
M  V30 6 1 7 6
M  V30 7 1 8 7
M  V30 8 1 9 8
M  V30 9 1 10 9
M  V30 10 1 11 10
M  V30 11 1 12 11
M  V30 12 1 13 12
M  V30 13 1 14 13
M  V30 14 1 15 14
M  V30 15 2 16 15
M  V30 16 1 17 16
M  V30 17 1 18 17
M  V30 18 2 19 17
M  V30 19 2 20 14
M  V30 20 1 20 19
M  V30 21 1 21 13
M  V30 22 1 22 10
M  V30 23 1 22 21
M  V30 24 2 23 8
M  V30 25 2 24 6
M  V30 26 1 24 23
M  V30 27 2 25 3
M  V30 28 1 25 24
M  V30 29 1 26 4
M  V30 30 1 27 5
M  V30 31 1 28 7
M  V30 32 1 29 9
M  V30 33 1 30 9
M  V30 34 1 31 11
M  V30 35 1 32 11
M  V30 36 1 33 12
M  V30 37 1 34 12
M  V30 38 1 35 15
M  V30 39 1 36 16
M  V30 40 1 37 19
M  V30 41 1 38 20
M  V30 42 1 39 21
M  V30 43 1 40 21
M  V30 44 1 41 22
M  V30 45 1 42 22
M  V30 46 1 43 23
M  V30 47 1 44 25
M  V30 48 1 45 10
M  V30 END BOND
M  V30 END CTAB
M  END
>  <b_m_subgroup_collapsed>  (216) 
0

>  <r_i_docking_score>  (216) 
-8.8079190661569005

>  <s_m_subgroup_title>  (216) 
glide-dock_SP_D22_pv

>  <s_m_subgroupid>  (216) 
glide-dock_SP_D22_pv

>  <Molecule ChEMBL ID>  (216) 
CHEMBL143761

>  <Standard Type>  (216) 
Ki

>  <Standard Value>  (216) 
19000.0

>  <label>  (216) 
0

$$$$
CHEMBL6011755
     RDKit          3D

  0  0  0  0  0  0  0  0  0  0999 V3000
M  V30 BEGIN CTAB
M  V30 COUNTS 51 53 0 0 1
M  V30 BEGIN ATOM
M  V30 1 C 11.658839 7.372472 -8.163662 0
M  V30 2 C 10.222050 7.767092 -7.762532 0 CFG=1
M  V30 3 O 10.260376 8.800687 -6.763515 0
M  V30 4 C 10.888268 8.653517 -5.537724 0
M  V30 5 C 11.074215 9.801837 -4.743469 0
M  V30 6 C 11.688018 9.669404 -3.480593 0
M  V30 7 C 12.088253 8.391342 -3.053907 0
M  V30 8 C 11.866887 7.301623 -3.915609 0
M  V30 9 N 11.285563 7.424282 -5.125119 0
M  V30 10 C 9.529512 8.433558 -8.965030 0
M  V30 11 C 9.273346 7.454074 -10.129053 0
M  V30 12 N 8.486336 6.256492 -9.709774 0 CFG=1 CHG=1
M  V30 13 C 8.247939 5.303210 -10.824029 0
M  V30 14 C 7.293990 5.841271 -11.911842 0
M  V30 15 O 7.523849 5.139692 -13.123897 0
M  V30 16 C 6.988832 3.885986 -13.294667 0
M  V30 17 C 7.614779 3.058716 -14.247457 0
M  V30 18 C 7.120089 1.771679 -14.521665 0
M  V30 19 C 5.982238 1.292762 -13.846618 0
M  V30 20 C 5.434092 -0.083078 -14.189708 0
M  V30 21 F 5.341278 -0.224221 -15.510861 0
M  V30 22 F 6.264773 -1.007987 -13.714008 0
M  V30 23 F 4.223063 -0.261942 -13.659426 0
M  V30 24 C 5.355831 2.113669 -12.884500 0
M  V30 25 C 5.852208 3.401982 -12.606824 0
M  V30 26 C 9.059325 5.591670 -8.511929 0
M  V30 27 C 9.319288 6.575756 -7.352515 0
M  V30 28 H 11.676001 6.848640 -9.114744 0
M  V30 29 H 12.292227 8.253957 -8.276664 0
M  V30 30 H 12.126201 6.709169 -7.439944 0
M  V30 31 H 10.749454 10.768659 -5.093637 0
M  V30 32 H 11.843781 10.534228 -2.851919 0
M  V30 33 H 12.556407 8.252301 -2.091516 0
M  V30 34 H 12.160818 6.304897 -3.624795 0
M  V30 35 H 8.573403 8.856044 -8.647457 0
M  V30 36 H 10.122046 9.277044 -9.322932 0
M  V30 37 H 8.736624 8.012602 -10.895082 0
M  V30 38 H 10.201022 7.140595 -10.605409 0
M  V30 39 H 9.208222 5.032906 -11.263115 0
M  V30 40 H 7.821732 4.376818 -10.431041 0
M  V30 41 H 6.254730 5.842413 -11.584340 0
M  V30 42 H 7.510100 6.875416 -12.165616 0
M  V30 43 H 8.482719 3.419381 -14.777803 0
M  V30 44 H 7.608799 1.154464 -15.261092 0
M  V30 45 H 4.488495 1.770569 -12.350539 0
M  V30 46 H 5.327485 3.990337 -11.868939 0
M  V30 47 H 8.370606 4.815597 -8.172426 0
M  V30 48 H 9.987610 5.086621 -8.783984 0
M  V30 49 H 9.754020 6.020305 -6.527806 0
M  V30 50 H 8.364594 6.954751 -6.985024 0
M  V30 51 H 7.574525 6.638884 -9.457728 0
M  V30 END ATOM
M  V30 BEGIN BOND
M  V30 1 1 2 1
M  V30 2 1 2 3 CFG=1
M  V30 3 1 4 3
M  V30 4 2 5 4
M  V30 5 1 6 5
M  V30 6 2 7 6
M  V30 7 1 8 7
M  V30 8 1 9 4
M  V30 9 2 9 8
M  V30 10 1 10 2
M  V30 11 1 11 10
M  V30 12 1 12 11
M  V30 13 1 13 12
M  V30 14 1 14 13
M  V30 15 1 15 14
M  V30 16 1 16 15
M  V30 17 1 17 16
M  V30 18 2 18 17
M  V30 19 1 19 18
M  V30 20 1 20 19
M  V30 21 1 21 20
M  V30 22 1 22 20
M  V30 23 1 23 20
M  V30 24 2 24 19
M  V30 25 2 25 16
M  V30 26 1 25 24
M  V30 27 1 26 12
M  V30 28 1 27 2
M  V30 29 1 27 26
M  V30 30 1 28 1
M  V30 31 1 29 1
M  V30 32 1 30 1
M  V30 33 1 31 5
M  V30 34 1 32 6
M  V30 35 1 33 7
M  V30 36 1 34 8
M  V30 37 1 35 10
M  V30 38 1 36 10
M  V30 39 1 37 11
M  V30 40 1 38 11
M  V30 41 1 39 13
M  V30 42 1 40 13
M  V30 43 1 41 14
M  V30 44 1 42 14
M  V30 45 1 43 17
M  V30 46 1 44 18
M  V30 47 1 45 24
M  V30 48 1 46 25
M  V30 49 1 47 26
M  V30 50 1 48 26
M  V30 51 1 49 27
M  V30 52 1 50 27
M  V30 53 1 12 51 CFG=1
M  V30 END BOND
M  V30 END CTAB
M  END
>  <b_m_subgroup_collapsed>  (217) 
0

>  <r_i_docking_score>  (217) 
-8.7974417072860298

>  <s_m_subgroup_title>  (217) 
glide-dock_SP_D22_pv

>  <s_m_subgroupid>  (217) 
glide-dock_SP_D22_pv

>  <Molecule ChEMBL ID>  (217) 
CHEMBL6011755

>  <Standard Type>  (217) 
Ki

>  <Standard Value>  (217) 
20000.0

>  <label>  (217) 
0

$$$$
CHEMBL1684128
     RDKit          3D

  0  0  0  0  0  0  0  0  0  0999 V3000
M  V30 BEGIN CTAB
M  V30 COUNTS 84 89 0 0 1
M  V30 BEGIN ATOM
M  V30 1 C 7.383862 -4.163985 -18.791233 0
M  V30 2 C 5.870359 -4.137243 -18.543594 0
M  V30 3 C 5.399924 -3.150721 -17.456526 0
M  V30 4 N 5.088575 -1.785224 -17.980177 0 CFG=1 CHG=1
M  V30 5 C 3.683701 -1.396987 -17.749874 0
M  V30 6 C 3.421007 -1.256097 -16.245579 0
M  V30 7 C 4.475402 -0.518533 -15.434249 0
M  V30 8 C 4.282736 -0.110622 -14.106688 0
M  V30 9 C 5.313469 0.551397 -13.428557 0
M  V30 10 C 6.518685 0.841498 -14.092237 0
M  V30 11 C 6.760282 0.524964 -15.453149 0
M  V30 12 C 5.717066 -0.226389 -16.064383 0
M  V30 13 C 5.966407 -0.671260 -17.516508 0 CFG=1
M  V30 14 C 7.452545 -0.895921 -17.861113 0
M  V30 15 C 8.375839 0.175846 -17.318325 0
M  V30 16 C 9.590104 0.417983 -17.988396 0
M  V30 17 C 10.446896 1.434558 -17.545630 0
M  V30 18 C 10.069012 2.233123 -16.455320 0
M  V30 19 C 8.856469 1.995215 -15.763523 0
M  V30 20 O 8.429524 2.872337 -14.789245 0
M  V30 21 C 9.360001 3.344264 -13.814394 0
M  V30 22 C 8.780096 4.636164 -13.213646 0
M  V30 23 C 9.383524 5.021579 -11.849318 0
M  V30 24 C 8.724887 6.302918 -11.270867 0
M  V30 25 N 8.886250 6.571491 -9.806553 0 CHG=1
M  V30 26 C 9.182805 8.001898 -9.511907 0
M  V30 27 C 9.114097 8.289532 -7.998738 0
M  V30 28 N 9.977672 7.356801 -7.282215 0
M  V30 29 C 10.794977 7.758375 -6.204007 0
M  V30 30 C 10.887830 6.973742 -5.035088 0
M  V30 31 C 11.686013 7.381001 -3.944960 0
M  V30 32 C 12.373715 8.604690 -3.996858 0
M  V30 33 C 12.331993 9.371699 -5.173978 0
M  V30 34 C 11.579752 8.932400 -6.279598 0
M  V30 35 O 11.685107 9.626513 -7.446714 0
M  V30 36 C 12.468790 8.956632 -8.429409 0
M  V30 37 C 9.753286 5.948390 -7.537854 0
M  V30 38 C 9.776541 5.653341 -9.043995 0
M  V30 39 C 8.012454 0.912729 -16.164810 0
M  V30 40 H 7.655024 -5.007689 -19.427187 0
M  V30 41 H 7.728169 -3.265630 -19.299742 0
M  V30 42 H 7.935658 -4.268924 -17.856073 0
M  V30 43 H 5.581875 -5.138475 -18.221794 0
M  V30 44 H 5.331919 -3.970083 -19.476948 0
M  V30 45 H 6.085639 -3.116143 -16.614845 0
M  V30 46 H 4.491643 -3.591092 -17.048929 0
M  V30 47 H 3.482456 -0.450800 -18.254301 0
M  V30 48 H 3.002118 -2.124148 -18.192591 0
M  V30 49 H 3.281528 -2.227678 -15.779648 0
M  V30 50 H 2.486016 -0.727226 -16.097963 0
M  V30 51 H 3.345133 -0.314803 -13.608938 0
M  V30 52 H 5.185397 0.841252 -12.396088 0
M  V30 53 H 7.277382 1.333207 -13.509988 0
M  V30 54 H 5.674587 0.202982 -18.100855 0
M  V30 55 H 7.571487 -0.968184 -18.942575 0
M  V30 56 H 7.810858 -1.827631 -17.447027 0
M  V30 57 H 9.863068 -0.168339 -18.854637 0
M  V30 58 H 11.373678 1.628977 -18.066767 0
M  V30 59 H 10.715751 3.056778 -16.194607 0
M  V30 60 H 10.361408 3.543873 -14.191228 0
M  V30 61 H 9.459845 2.575449 -13.047655 0
M  V30 62 H 7.703967 4.502369 -13.086044 0
M  V30 63 H 8.899713 5.451969 -13.926772 0
M  V30 64 H 10.469610 5.145863 -11.934843 0
M  V30 65 H 9.206412 4.169010 -11.198165 0
M  V30 66 H 7.648695 6.254644 -11.446401 0
M  V30 67 H 9.074443 7.158982 -11.851738 0
M  V30 68 H 8.486075 8.654444 -10.038578 0
M  V30 69 H 10.174877 8.243289 -9.894377 0
M  V30 70 H 8.093717 8.154661 -7.637951 0
M  V30 71 H 9.360731 9.329494 -7.797900 0
M  V30 72 H 10.317286 6.066103 -4.934859 0
M  V30 73 H 11.731320 6.767898 -3.055477 0
M  V30 74 H 12.956301 8.935408 -3.151114 0
M  V30 75 H 12.928364 10.264371 -5.260504 0
M  V30 76 H 12.242005 9.371840 -9.410392 0
M  V30 77 H 13.532517 9.087672 -8.229598 0
M  V30 78 H 12.281306 7.884222 -8.484853 0
M  V30 79 H 10.539104 5.372530 -7.057441 0
M  V30 80 H 8.795891 5.666222 -7.100067 0
M  V30 81 H 9.485631 4.611842 -9.167661 0
M  V30 82 H 10.792248 5.770918 -9.419410 0
M  V30 83 H 5.203256 -1.843184 -18.981609 0
M  V30 84 H 7.952079 6.452782 -9.430509 0
M  V30 END ATOM
M  V30 BEGIN BOND
M  V30 1 1 2 1
M  V30 2 1 3 2
M  V30 3 1 4 3
M  V30 4 1 5 4
M  V30 5 1 6 5
M  V30 6 1 7 6
M  V30 7 1 8 7
M  V30 8 2 9 8
M  V30 9 1 10 9
M  V30 10 2 11 10
M  V30 11 2 12 7
M  V30 12 1 12 11
M  V30 13 1 13 4
M  V30 14 1 13 12
M  V30 15 1 14 13
M  V30 16 1 15 14
M  V30 17 1 16 15
M  V30 18 2 17 16
M  V30 19 1 18 17
M  V30 20 2 19 18
M  V30 21 1 20 19
M  V30 22 1 21 20
M  V30 23 1 22 21
M  V30 24 1 23 22
M  V30 25 1 24 23
M  V30 26 1 25 24
M  V30 27 1 26 25
M  V30 28 1 27 26
M  V30 29 1 28 27
M  V30 30 1 29 28
M  V30 31 2 30 29
M  V30 32 1 31 30
M  V30 33 2 32 31
M  V30 34 1 33 32
M  V30 35 1 34 29
M  V30 36 2 34 33
M  V30 37 1 35 34
M  V30 38 1 36 35
M  V30 39 1 37 28
M  V30 40 1 38 25
M  V30 41 1 38 37
M  V30 42 1 39 11
M  V30 43 2 39 15
M  V30 44 1 39 19
M  V30 45 1 40 1
M  V30 46 1 41 1
M  V30 47 1 42 1
M  V30 48 1 43 2
M  V30 49 1 44 2
M  V30 50 1 45 3
M  V30 51 1 46 3
M  V30 52 1 47 5
M  V30 53 1 48 5
M  V30 54 1 49 6
M  V30 55 1 50 6
M  V30 56 1 51 8
M  V30 57 1 52 9
M  V30 58 1 53 10
M  V30 59 1 13 54 CFG=3
M  V30 60 1 55 14
M  V30 61 1 56 14
M  V30 62 1 57 16
M  V30 63 1 58 17
M  V30 64 1 59 18
M  V30 65 1 60 21
M  V30 66 1 61 21
M  V30 67 1 62 22
M  V30 68 1 63 22
M  V30 69 1 64 23
M  V30 70 1 65 23
M  V30 71 1 66 24
M  V30 72 1 67 24
M  V30 73 1 68 26
M  V30 74 1 69 26
M  V30 75 1 70 27
M  V30 76 1 71 27
M  V30 77 1 72 30
M  V30 78 1 73 31
M  V30 79 1 74 32
M  V30 80 1 75 33
M  V30 81 1 76 36
M  V30 82 1 77 36
M  V30 83 1 78 36
M  V30 84 1 79 37
M  V30 85 1 80 37
M  V30 86 1 81 38
M  V30 87 1 82 38
M  V30 88 1 4 83 CFG=3
M  V30 89 1 84 25
M  V30 END BOND
M  V30 END CTAB
M  END
>  <b_m_subgroup_collapsed>  (218) 
0

>  <r_i_docking_score>  (218) 
-8.7967180847247306

>  <s_m_subgroup_title>  (218) 
glide-dock_SP_D22_pv

>  <s_m_subgroupid>  (218) 
glide-dock_SP_D22_pv

>  <Molecule ChEMBL ID>  (218) 
CHEMBL1684128

>  <Standard Type>  (218) 
Ki

>  <Standard Value>  (218) 
88.0

>  <label>  (218) 
1

$$$$
CHEMBL92649
     RDKit          3D

  0  0  0  0  0  0  0  0  0  0999 V3000
M  V30 BEGIN CTAB
M  V30 COUNTS 87 93 0 0 1
M  V30 BEGIN ATOM
M  V30 1 O 8.003194 5.473825 -24.700432 0
M  V30 2 C 8.046791 5.525186 -23.469992 0
M  V30 3 C 8.641664 4.327231 -22.716831 0
M  V30 4 C 10.182461 4.307502 -22.770586 0
M  V30 5 C 10.897289 5.444623 -22.003063 0
M  V30 6 N 10.697865 5.432322 -20.526247 0 CFG=2 CHG=1
M  V30 7 C 11.322719 6.632363 -19.907057 0
M  V30 8 C 11.148995 6.685163 -18.377613 0
M  V30 9 C 11.636092 5.414053 -17.644388 0 CFG=2
M  V30 10 C 11.002954 4.182775 -18.356205 0
M  V30 11 C 11.162943 4.170287 -19.890036 0
M  V30 12 C 11.156840 5.444471 -16.196707 0
M  V30 13 O 9.973808 5.365607 -15.873065 0
M  V30 14 N 12.189374 5.559406 -15.357981 0
M  V30 15 C 12.079556 5.689909 -13.902224 0
M  V30 16 C 12.035551 7.171934 -13.459268 0
M  V30 17 C 11.431460 7.372044 -12.075321 0
M  V30 18 C 10.082440 7.031888 -11.847028 0
M  V30 19 C 9.520827 7.177152 -10.565237 0
M  V30 20 C 10.289232 7.656133 -9.487690 0
M  V30 21 N 9.677485 7.736300 -8.227430 0
M  V30 22 C 10.323887 7.715939 -6.982519 0
M  V30 23 C 10.189963 6.601060 -6.155399 0
M  V30 24 C 10.824269 6.572322 -4.902021 0
M  V30 25 C 11.625301 7.606801 -4.427697 0
M  V30 26 N 12.251630 7.525091 -3.094506 0 CHG=1
M  V30 27 O 12.485111 8.561612 -2.482464 0
M  V30 28 O 12.485950 6.410882 -2.645399 0 CHG=-1
M  V30 29 C 11.756347 8.704381 -5.249525 0
M  V30 30 N 12.502667 9.773407 -5.081809 0
M  V30 31 O 12.179021 10.582080 -6.172495 0
M  V30 32 N 11.286466 9.969752 -7.046808 0
M  V30 33 C 11.072250 8.782959 -6.506423 0
M  V30 34 C 11.637827 8.014457 -9.721853 0
M  V30 35 C 12.198051 7.884182 -11.008753 0
M  V30 36 C 13.464468 5.462680 -16.054266 0
M  V30 37 N 13.098583 5.415085 -17.472315 0
M  V30 38 C 13.932169 4.696889 -18.343706 0
M  V30 39 C 14.610147 5.381562 -19.373854 0
M  V30 40 C 15.326313 4.664114 -20.352049 0
M  V30 41 C 15.374866 3.257935 -20.298170 0
M  V30 42 C 14.749746 2.573110 -19.239452 0
M  V30 43 C 14.048692 3.292559 -18.252607 0
M  V30 44 C 7.635492 6.729852 -22.696020 0
M  V30 45 C 7.547101 7.971943 -23.368559 0
M  V30 46 C 7.149967 9.135023 -22.680178 0
M  V30 47 C 6.821188 9.063934 -21.314939 0
M  V30 48 F 6.431009 10.171888 -20.647173 0
M  V30 49 C 6.889826 7.834194 -20.641214 0
M  V30 50 C 7.290233 6.671162 -21.324293 0
M  V30 51 H 8.264652 3.428854 -23.206806 0
M  V30 52 H 8.295134 4.261164 -21.690676 0
M  V30 53 H 10.487817 4.368292 -23.817007 0
M  V30 54 H 10.541548 3.330251 -22.447985 0
M  V30 55 H 10.576738 6.409027 -22.402122 0
M  V30 56 H 11.967615 5.379691 -22.208479 0
M  V30 57 H 10.878627 7.531368 -20.338207 0
M  V30 58 H 12.378997 6.668535 -20.165056 0
M  V30 59 H 10.091879 6.858317 -18.165245 0
M  V30 60 H 11.685777 7.554239 -17.993326 0
M  V30 61 H 11.367479 3.249470 -17.927525 0
M  V30 62 H 9.928527 4.172307 -18.158728 0
M  V30 63 H 10.580271 3.329855 -20.265009 0
M  V30 64 H 12.191248 3.977761 -20.188007 0
M  V30 65 H 11.167360 5.181527 -13.584789 0
M  V30 66 H 12.887015 5.158170 -13.405085 0
M  V30 67 H 13.042759 7.591099 -13.490995 0
M  V30 68 H 11.454044 7.761817 -14.164251 0
M  V30 69 H 9.470000 6.647525 -12.647816 0
M  V30 70 H 8.486318 6.906581 -10.410534 0
M  V30 71 H 8.729754 7.372254 -8.223694 0
M  V30 72 H 9.580648 5.772445 -6.482520 0
M  V30 73 H 10.666142 5.741104 -4.247696 0
M  V30 74 H 12.263638 8.389182 -8.927158 0
M  V30 75 H 13.227579 8.172611 -11.167170 0
M  V30 76 H 14.005997 4.572617 -15.739784 0
M  V30 77 H 14.079798 6.339006 -15.846593 0
M  V30 78 H 14.559175 6.459129 -19.436380 0
M  V30 79 H 15.827812 5.191023 -21.150082 0
M  V30 80 H 15.917213 2.707379 -21.052999 0
M  V30 81 H 14.807051 1.495501 -19.181593 0
M  V30 82 H 13.561957 2.755818 -17.451126 0
M  V30 83 H 7.791511 8.046159 -24.419668 0
M  V30 84 H 7.095307 10.079669 -23.199774 0
M  V30 85 H 6.625185 7.779819 -19.594603 0
M  V30 86 H 7.292068 5.747324 -20.767799 0
M  V30 87 H 9.704750 5.505300 -20.354282 0
M  V30 END ATOM
M  V30 BEGIN BOND
M  V30 1 2 2 1
M  V30 2 1 3 2
M  V30 3 1 4 3
M  V30 4 1 5 4
M  V30 5 1 6 5
M  V30 6 1 7 6
M  V30 7 1 8 7
M  V30 8 1 9 8
M  V30 9 1 10 9
M  V30 10 1 11 6
M  V30 11 1 11 10
M  V30 12 1 12 9
M  V30 13 2 13 12
M  V30 14 1 14 12
M  V30 15 1 15 14
M  V30 16 1 16 15
M  V30 17 1 17 16
M  V30 18 1 18 17
M  V30 19 2 19 18
M  V30 20 1 20 19
M  V30 21 1 21 20
M  V30 22 1 22 21
M  V30 23 2 23 22
M  V30 24 1 24 23
M  V30 25 2 25 24
M  V30 26 1 26 25
M  V30 27 2 27 26
M  V30 28 1 28 26
M  V30 29 1 29 25
M  V30 30 2 30 29
M  V30 31 1 31 30
M  V30 32 1 32 31
M  V30 33 1 33 22
M  V30 34 1 33 29
M  V30 35 2 33 32
M  V30 36 2 34 20
M  V30 37 2 35 17
M  V30 38 1 35 34
M  V30 39 1 36 14
M  V30 40 1 9 37 CFG=1
M  V30 41 1 37 36
M  V30 42 1 38 37
M  V30 43 2 39 38
M  V30 44 1 40 39
M  V30 45 2 41 40
M  V30 46 1 42 41
M  V30 47 1 43 38
M  V30 48 2 43 42
M  V30 49 1 44 2
M  V30 50 1 45 44
M  V30 51 2 46 45
M  V30 52 1 47 46
M  V30 53 1 48 47
M  V30 54 2 49 47
M  V30 55 2 50 44
M  V30 56 1 50 49
M  V30 57 1 51 3
M  V30 58 1 52 3
M  V30 59 1 53 4
M  V30 60 1 54 4
M  V30 61 1 55 5
M  V30 62 1 56 5
M  V30 63 1 57 7
M  V30 64 1 58 7
M  V30 65 1 59 8
M  V30 66 1 60 8
M  V30 67 1 61 10
M  V30 68 1 62 10
M  V30 69 1 63 11
M  V30 70 1 64 11
M  V30 71 1 65 15
M  V30 72 1 66 15
M  V30 73 1 67 16
M  V30 74 1 68 16
M  V30 75 1 69 18
M  V30 76 1 70 19
M  V30 77 1 71 21
M  V30 78 1 72 23
M  V30 79 1 73 24
M  V30 80 1 74 34
M  V30 81 1 75 35
M  V30 82 1 76 36
M  V30 83 1 77 36
M  V30 84 1 78 39
M  V30 85 1 79 40
M  V30 86 1 80 41
M  V30 87 1 81 42
M  V30 88 1 82 43
M  V30 89 1 83 45
M  V30 90 1 84 46
M  V30 91 1 85 49
M  V30 92 1 86 50
M  V30 93 1 6 87 CFG=3
M  V30 END BOND
M  V30 END CTAB
M  END
>  <b_m_subgroup_collapsed>  (219) 
0

>  <r_i_docking_score>  (219) 
-8.7918068482726994

>  <s_m_subgroup_title>  (219) 
glide-dock_SP_D22_pv

>  <s_m_subgroupid>  (219) 
glide-dock_SP_D22_pv

>  <Molecule ChEMBL ID>  (219) 
CHEMBL92649

>  <Standard Type>  (219) 
Ki

>  <Standard Value>  (219) 
0.66

>  <label>  (219) 
1

$$$$
CHEMBL3695445
     RDKit          3D

  0  0  0  0  0  0  0  0  0  0999 V3000
M  V30 BEGIN CTAB
M  V30 COUNTS 78 83 0 0 1
M  V30 BEGIN ATOM
M  V30 1 O 9.285604 8.583022 -11.061739 0
M  V30 2 C 10.110835 7.853136 -10.520707 0
M  V30 3 N 10.885872 6.972327 -11.158592 0
M  V30 4 C 10.848482 6.681091 -12.582792 0 CFG=1
M  V30 5 C 12.264808 6.610473 -13.180748 0
M  V30 6 C 12.240967 6.197011 -14.661177 0
M  V30 7 C 11.536026 4.838254 -14.854604 0 CFG=2
M  V30 8 C 11.612371 4.377369 -16.331499 0
M  V30 9 C 11.544757 2.848070 -16.553217 0
M  V30 10 N 10.256022 2.250811 -16.130112 0 CFG=2 CHG=1
M  V30 11 C 10.333055 0.791826 -15.877557 0
M  V30 12 C 9.050624 0.300184 -15.186922 0
M  V30 13 C 7.778557 0.655779 -15.991343 0 CFG=1
M  V30 14 C 6.485494 0.315056 -15.253127 0
M  V30 15 C 6.252205 0.810516 -13.948387 0
M  V30 16 C 5.028695 0.573888 -13.286593 0
M  V30 17 C 3.999488 -0.156218 -13.920391 0
M  V30 18 C 4.234938 -0.649900 -15.209602 0
M  V30 19 C 5.443561 -0.426212 -15.854881 0
M  V30 20 C 5.386902 -1.052054 -17.207123 0
M  V30 21 C 3.935973 -1.591422 -17.247480 0
M  V30 22 O 3.340491 -1.353290 -15.962974 0
M  V30 23 C 7.792274 2.152023 -16.363249 0
M  V30 24 C 9.114661 2.575842 -17.022375 0
M  V30 25 C 10.090551 4.956249 -14.319118 0
M  V30 26 C 10.061119 5.381677 -12.841648 0
M  V30 27 C 10.390816 7.924746 -9.060723 0
M  V30 28 C 9.925193 6.923078 -8.184367 0
M  V30 29 C 10.256086 6.974992 -6.816026 0
M  V30 30 C 11.058206 8.024716 -6.307604 0
M  V30 31 C 11.438835 8.102051 -4.887971 0
M  V30 32 C 11.597548 9.348200 -4.241841 0
M  V30 33 C 11.996894 9.384409 -2.897514 0
M  V30 34 C 12.233843 8.171729 -2.235489 0
M  V30 35 N 12.085248 6.970816 -2.824023 0
M  V30 36 C 11.686153 6.945240 -4.114336 0
M  V30 37 C 11.522647 9.012256 -7.205444 0
M  V30 38 C 11.185615 8.970779 -8.568068 0
M  V30 39 H 11.547093 6.464148 -10.592314 0
M  V30 40 H 10.352616 7.523511 -13.042792 0
M  V30 41 H 12.764388 7.574131 -13.073843 0
M  V30 42 H 12.873957 5.884183 -12.647211 0
M  V30 43 H 11.742694 6.966300 -15.253329 0
M  V30 44 H 13.267325 6.142892 -15.026800 0
M  V30 45 H 12.070863 4.105105 -14.248246 0
M  V30 46 H 10.871905 4.906451 -16.933777 0
M  V30 47 H 12.574180 4.695801 -16.737585 0
M  V30 48 H 11.724057 2.608968 -17.603041 0
M  V30 49 H 12.361442 2.388242 -15.993393 0
M  V30 50 H 10.493230 0.260450 -16.817709 0
M  V30 51 H 11.189243 0.567067 -15.237776 0
M  V30 52 H 9.113284 -0.775536 -15.046878 0
M  V30 53 H 9.010309 0.732792 -14.186610 0
M  V30 54 H 7.809331 0.078878 -16.916876 0
M  V30 55 H 7.000389 1.405733 -13.448550 0
M  V30 56 H 4.888571 0.975278 -12.294251 0
M  V30 57 H 3.047257 -0.324335 -13.440358 0
M  V30 58 H 5.572838 -0.319225 -17.993214 0
M  V30 59 H 6.119430 -1.858263 -17.278727 0
M  V30 60 H 3.349719 -1.071962 -18.006449 0
M  V30 61 H 3.912812 -2.655407 -17.483513 0
M  V30 62 H 6.956203 2.375244 -17.028135 0
M  V30 63 H 7.640579 2.750902 -15.464145 0
M  V30 64 H 9.072502 3.645856 -17.222967 0
M  V30 65 H 9.241011 2.078470 -17.984777 0
M  V30 66 H 9.530747 5.677729 -14.914501 0
M  V30 67 H 9.549425 4.018510 -14.401258 0
M  V30 68 H 10.480334 4.575951 -12.241404 0
M  V30 69 H 9.028724 5.504107 -12.513781 0
M  V30 70 H 9.313813 6.113828 -8.556332 0
M  V30 71 H 9.887712 6.193276 -6.162279 0
M  V30 72 H 11.394579 10.273153 -4.761810 0
M  V30 73 H 12.088244 10.326280 -2.379164 0
M  V30 74 H 12.542775 8.170148 -1.199104 0
M  V30 75 H 11.594113 5.963930 -4.552896 0
M  V30 76 H 12.161603 9.810648 -6.862204 0
M  V30 77 H 11.558457 9.730810 -9.240838 0
M  V30 78 H 10.051042 2.669421 -15.233092 0
M  V30 END ATOM
M  V30 BEGIN BOND
M  V30 1 2 2 1
M  V30 2 1 3 2
M  V30 3 1 4 3
M  V30 4 1 5 4
M  V30 5 1 6 5
M  V30 6 1 7 6
M  V30 7 1 8 7
M  V30 8 1 9 8
M  V30 9 1 10 9
M  V30 10 1 11 10
M  V30 11 1 12 11
M  V30 12 1 13 12
M  V30 13 1 14 13
M  V30 14 2 15 14
M  V30 15 1 16 15
M  V30 16 2 17 16
M  V30 17 1 18 17
M  V30 18 1 19 14
M  V30 19 2 19 18
M  V30 20 1 20 19
M  V30 21 1 21 20
M  V30 22 1 22 18
M  V30 23 1 22 21
M  V30 24 1 23 13
M  V30 25 1 24 10
M  V30 26 1 24 23
M  V30 27 1 25 7
M  V30 28 1 26 4
M  V30 29 1 26 25
M  V30 30 1 27 2
M  V30 31 1 28 27
M  V30 32 2 29 28
M  V30 33 1 30 29
M  V30 34 1 31 30
M  V30 35 2 32 31
M  V30 36 1 33 32
M  V30 37 2 34 33
M  V30 38 1 35 34
M  V30 39 1 36 31
M  V30 40 2 36 35
M  V30 41 2 37 30
M  V30 42 2 38 27
M  V30 43 1 38 37
M  V30 44 1 39 3
M  V30 45 1 4 40 CFG=3
M  V30 46 1 41 5
M  V30 47 1 42 5
M  V30 48 1 43 6
M  V30 49 1 44 6
M  V30 50 1 7 45 CFG=1
M  V30 51 1 46 8
M  V30 52 1 47 8
M  V30 53 1 48 9
M  V30 54 1 49 9
M  V30 55 1 50 11
M  V30 56 1 51 11
M  V30 57 1 52 12
M  V30 58 1 53 12
M  V30 59 1 13 54 CFG=3
M  V30 60 1 55 15
M  V30 61 1 56 16
M  V30 62 1 57 17
M  V30 63 1 58 20
M  V30 64 1 59 20
M  V30 65 1 60 21
M  V30 66 1 61 21
M  V30 67 1 62 23
M  V30 68 1 63 23
M  V30 69 1 64 24
M  V30 70 1 65 24
M  V30 71 1 66 25
M  V30 72 1 67 25
M  V30 73 1 68 26
M  V30 74 1 69 26
M  V30 75 1 70 28
M  V30 76 1 71 29
M  V30 77 1 72 32
M  V30 78 1 73 33
M  V30 79 1 74 34
M  V30 80 1 75 36
M  V30 81 1 76 37
M  V30 82 1 77 38
M  V30 83 1 10 78 CFG=1
M  V30 END BOND
M  V30 END CTAB
M  END
>  <b_m_subgroup_collapsed>  (220) 
0

>  <r_i_docking_score>  (220) 
-8.7883661750408901

>  <s_m_subgroup_title>  (220) 
glide-dock_SP_D22_pv

>  <s_m_subgroupid>  (220) 
glide-dock_SP_D22_pv

>  <Molecule ChEMBL ID>  (220) 
CHEMBL3695445

>  <Standard Type>  (220) 
Ki

>  <Standard Value>  (220) 
99.8

>  <label>  (220) 
1

$$$$
CHEMBL5394387
     RDKit          3D

  0  0  0  0  0  0  0  0  0  0999 V3000
M  V30 BEGIN CTAB
M  V30 COUNTS 51 54 0 0 1
M  V30 BEGIN ATOM
M  V30 1 C 9.292477 2.532397 -14.364202 0
M  V30 2 C 10.288364 3.674676 -14.259929 0
M  V30 3 C 11.409057 3.675812 -15.116742 0
M  V30 4 C 12.327878 4.735741 -15.046851 0
M  V30 5 C 12.086023 5.763443 -14.121541 0
M  V30 6 N 11.023549 5.772323 -13.292674 0
M  V30 7 C 10.139638 4.749708 -13.342219 0
M  V30 8 C 8.957058 4.853322 -12.366548 0 CFG=1
M  V30 9 C 9.348723 4.857006 -10.875110 0
M  V30 10 C 9.839869 6.227995 -10.363886 0
M  V30 11 N 8.886023 7.320585 -10.691815 0 CFG=1 CHG=1
M  V30 12 C 9.286010 8.660454 -10.198679 0
M  V30 13 C 9.453336 8.739380 -8.673278 0
M  V30 14 C 10.935954 8.815995 -8.295678 0
M  V30 15 C 11.169233 8.747353 -6.832002 0
M  V30 16 N 11.190598 7.579338 -6.186568 0
M  V30 17 C 11.518418 7.789234 -4.854354 0
M  V30 18 C 11.690632 6.796228 -3.873941 0
M  V30 19 C 12.086022 7.116101 -2.564596 0
M  V30 20 C 12.286375 8.460176 -2.200504 0
M  V30 21 C 12.084249 9.479179 -3.147966 0
M  V30 22 C 11.712911 9.143751 -4.463651 0
M  V30 23 S 11.418962 10.189016 -5.846863 0
M  V30 24 C 8.565076 7.379541 -12.134723 0
M  V30 25 C 8.027316 6.039558 -12.667571 0
M  V30 26 H 9.547063 1.857666 -15.182145 0
M  V30 27 H 9.286019 1.946985 -13.446864 0
M  V30 28 H 8.286824 2.909871 -14.550845 0
M  V30 29 H 11.566529 2.874653 -15.824265 0
M  V30 30 H 13.194892 4.762775 -15.690305 0
M  V30 31 H 12.765954 6.598614 -14.039606 0
M  V30 32 H 8.350786 3.960167 -12.498722 0
M  V30 33 H 8.467501 4.585154 -10.291190 0
M  V30 34 H 10.086020 4.079199 -10.675756 0
M  V30 35 H 10.814710 6.483845 -10.777860 0
M  V30 36 H 9.977264 6.155917 -9.285308 0
M  V30 37 H 10.196968 8.972324 -10.711277 0
M  V30 38 H 8.510017 9.372316 -10.486794 0
M  V30 39 H 8.943804 9.624210 -8.290629 0
M  V30 40 H 8.963072 7.897079 -8.182108 0
M  V30 41 H 11.497015 8.007360 -8.765114 0
M  V30 42 H 11.360604 9.744613 -8.676365 0
M  V30 43 H 11.530746 5.772320 -4.154728 0
M  V30 44 H 12.228152 6.322391 -1.846858 0
M  V30 45 H 12.578125 8.714569 -1.191613 0
M  V30 46 H 12.213337 10.513044 -2.862449 0
M  V30 47 H 9.467866 7.696077 -12.646864 0
M  V30 48 H 7.816459 8.153205 -12.313203 0
M  V30 49 H 7.847226 6.098166 -13.739205 0
M  V30 50 H 7.057722 5.856614 -12.200956 0
M  V30 51 H 7.979461 7.149570 -10.246865 0
M  V30 END ATOM
M  V30 BEGIN BOND
M  V30 1 1 2 1
M  V30 2 2 3 2
M  V30 3 1 4 3
M  V30 4 2 5 4
M  V30 5 1 6 5
M  V30 6 1 7 2
M  V30 7 2 7 6
M  V30 8 1 8 7
M  V30 9 1 9 8
M  V30 10 1 10 9
M  V30 11 1 11 10
M  V30 12 1 12 11
M  V30 13 1 13 12
M  V30 14 1 14 13
M  V30 15 1 15 14
M  V30 16 2 16 15
M  V30 17 1 17 16
M  V30 18 2 18 17
M  V30 19 1 19 18
M  V30 20 2 20 19
M  V30 21 1 21 20
M  V30 22 1 22 17
M  V30 23 2 22 21
M  V30 24 1 23 15
M  V30 25 1 23 22
M  V30 26 1 24 11
M  V30 27 1 25 8
M  V30 28 1 25 24
M  V30 29 1 26 1
M  V30 30 1 27 1
M  V30 31 1 28 1
M  V30 32 1 29 3
M  V30 33 1 30 4
M  V30 34 1 31 5
M  V30 35 1 8 32 CFG=1
M  V30 36 1 33 9
M  V30 37 1 34 9
M  V30 38 1 35 10
M  V30 39 1 36 10
M  V30 40 1 37 12
M  V30 41 1 38 12
M  V30 42 1 39 13
M  V30 43 1 40 13
M  V30 44 1 41 14
M  V30 45 1 42 14
M  V30 46 1 43 18
M  V30 47 1 44 19
M  V30 48 1 45 20
M  V30 49 1 46 21
M  V30 50 1 47 24
M  V30 51 1 48 24
M  V30 52 1 49 25
M  V30 53 1 50 25
M  V30 54 1 11 51 CFG=1
M  V30 END BOND
M  V30 END CTAB
M  END
>  <b_m_subgroup_collapsed>  (221) 
0

>  <r_i_docking_score>  (221) 
-8.78695366076815

>  <s_m_subgroup_title>  (221) 
glide-dock_SP_D22_pv

>  <s_m_subgroupid>  (221) 
glide-dock_SP_D22_pv

>  <Molecule ChEMBL ID>  (221) 
CHEMBL5394387

>  <Standard Type>  (221) 
Ki

>  <Standard Value>  (221) 
13300.0

>  <label>  (221) 
0

$$$$
CHEMBL490632
     RDKit          3D

  0  0  0  0  0  0  0  0  0  0999 V3000
M  V30 BEGIN CTAB
M  V30 COUNTS 60 62 0 0 1
M  V30 BEGIN ATOM
M  V30 1 C 7.517940 1.603787 -14.504025 0
M  V30 2 O 7.780613 3.001117 -14.530580 0
M  V30 3 C 9.100516 3.388690 -14.637048 0
M  V30 4 C 9.957829 2.845889 -15.632525 0
M  V30 5 O 9.397001 1.994982 -16.566191 0
M  V30 6 C 10.211349 1.377932 -17.558115 0
M  V30 7 C 10.956030 0.172253 -16.970259 0
M  V30 8 F 10.086041 -0.793622 -16.660589 0
M  V30 9 C 11.320040 3.235491 -15.652294 0
M  V30 10 C 11.814231 4.170341 -14.727300 0
M  V30 11 C 10.953614 4.744393 -13.781212 0
M  V30 12 C 9.591958 4.369854 -13.732871 0
M  V30 13 C 8.670193 5.058354 -12.786105 0
M  V30 14 O 7.514745 5.373345 -13.080592 0
M  V30 15 C 9.184838 5.366023 -11.371874 0 CFG=1
M  V30 16 C 9.620707 6.830103 -11.206781 0
M  V30 17 C 10.122099 7.082741 -9.774627 0
M  V30 18 N 9.112037 6.741466 -8.728312 0 CFG=2 CHG=1
M  V30 19 C 9.631292 6.890785 -7.338251 0
M  V30 20 C 10.377274 8.214762 -7.047975 0
M  V30 21 C 10.943435 8.339098 -5.636901 0
M  V30 22 C 11.412110 7.213379 -4.918584 0
M  V30 23 C 11.972407 7.367087 -3.632611 0
M  V30 24 C 12.052536 8.643291 -3.045738 0
M  V30 25 C 12.623238 8.822453 -1.655338 0
M  V30 26 C 11.587831 9.765445 -3.757360 0
M  V30 27 C 11.041249 9.618787 -5.047426 0
M  V30 28 C 8.547143 5.375815 -8.903748 0
M  V30 29 C 8.079309 5.116297 -10.339548 0
M  V30 30 H 6.658533 1.417152 -13.861477 0
M  V30 31 H 7.267060 1.235963 -15.498807 0
M  V30 32 H 8.356586 1.024884 -14.109655 0
M  V30 33 H 9.554761 1.036678 -18.358862 0
M  V30 34 H 10.891294 2.090211 -18.026735 0
M  V30 35 H 11.656700 -0.248337 -17.691959 0
M  V30 36 H 11.507146 0.427824 -16.066137 0
M  V30 37 H 12.017197 2.843914 -16.377710 0
M  V30 38 H 12.853139 4.463859 -14.758307 0
M  V30 39 H 11.353605 5.479835 -13.103574 0
M  V30 40 H 10.026811 4.704943 -11.161799 0
M  V30 41 H 10.409039 7.086384 -11.915810 0
M  V30 42 H 8.783729 7.494997 -11.425207 0
M  V30 43 H 10.392679 8.136028 -9.704385 0
M  V30 44 H 11.029785 6.505322 -9.595816 0
M  V30 45 H 8.798968 6.781416 -6.638925 0
M  V30 46 H 10.308502 6.054433 -7.160608 0
M  V30 47 H 11.236433 8.327197 -7.709176 0
M  V30 48 H 9.712667 9.055282 -7.245927 0
M  V30 49 H 11.373730 6.217387 -5.332168 0
M  V30 50 H 12.327537 6.498229 -3.096530 0
M  V30 51 H 12.141688 9.654854 -1.141059 0
M  V30 52 H 12.487641 7.930477 -1.050637 0
M  V30 53 H 13.685884 9.027952 -1.718282 0
M  V30 54 H 11.643712 10.738758 -3.297385 0
M  V30 55 H 10.698004 10.494363 -5.579232 0
M  V30 56 H 7.698267 5.255602 -8.223475 0
M  V30 57 H 9.289743 4.625737 -8.633546 0
M  V30 58 H 7.239360 5.772250 -10.552761 0
M  V30 59 H 7.686670 4.105058 -10.427293 0
M  V30 60 H 8.326990 7.372641 -8.847228 0
M  V30 END ATOM
M  V30 BEGIN BOND
M  V30 1 1 2 1
M  V30 2 1 3 2
M  V30 3 2 4 3
M  V30 4 1 5 4
M  V30 5 1 6 5
M  V30 6 1 7 6
M  V30 7 1 8 7
M  V30 8 1 9 4
M  V30 9 2 10 9
M  V30 10 1 11 10
M  V30 11 1 12 3
M  V30 12 2 12 11
M  V30 13 1 13 12
M  V30 14 2 14 13
M  V30 15 1 15 13
M  V30 16 1 16 15
M  V30 17 1 17 16
M  V30 18 1 18 17
M  V30 19 1 19 18
M  V30 20 1 20 19
M  V30 21 1 21 20
M  V30 22 1 22 21
M  V30 23 2 23 22
M  V30 24 1 24 23
M  V30 25 1 25 24
M  V30 26 2 26 24
M  V30 27 2 27 21
M  V30 28 1 27 26
M  V30 29 1 28 18
M  V30 30 1 29 15
M  V30 31 1 29 28
M  V30 32 1 30 1
M  V30 33 1 31 1
M  V30 34 1 32 1
M  V30 35 1 33 6
M  V30 36 1 34 6
M  V30 37 1 35 7
M  V30 38 1 36 7
M  V30 39 1 37 9
M  V30 40 1 38 10
M  V30 41 1 39 11
M  V30 42 1 15 40 CFG=1
M  V30 43 1 41 16
M  V30 44 1 42 16
M  V30 45 1 43 17
M  V30 46 1 44 17
M  V30 47 1 45 19
M  V30 48 1 46 19
M  V30 49 1 47 20
M  V30 50 1 48 20
M  V30 51 1 49 22
M  V30 52 1 50 23
M  V30 53 1 51 25
M  V30 54 1 52 25
M  V30 55 1 53 25
M  V30 56 1 54 26
M  V30 57 1 55 27
M  V30 58 1 56 28
M  V30 59 1 57 28
M  V30 60 1 58 29
M  V30 61 1 59 29
M  V30 62 1 18 60 CFG=1
M  V30 END BOND
M  V30 END CTAB
M  END
>  <b_m_subgroup_collapsed>  (222) 
0

>  <r_i_docking_score>  (222) 
-8.7849887634290091

>  <s_m_subgroup_title>  (222) 
glide-dock_SP_D22_pv

>  <s_m_subgroupid>  (222) 
glide-dock_SP_D22_pv

>  <Molecule ChEMBL ID>  (222) 
CHEMBL490632

>  <Standard Type>  (222) 
Ki

>  <Standard Value>  (222) 
10000.0

>  <label>  (222) 
0

$$$$
CHEMBL267930
     RDKit          3D

  0  0  0  0  0  0  0  0  0  0999 V3000
M  V30 BEGIN CTAB
M  V30 COUNTS 56 59 0 0 1
M  V30 BEGIN ATOM
M  V30 1 O 10.888268 9.372326 -7.011124 0
M  V30 2 C 10.814213 8.375640 -6.291739 0
M  V30 3 C 10.075947 7.122475 -6.775201 0
M  V30 4 C 8.886181 7.448662 -7.688140 0
M  V30 5 C 9.285966 7.951696 -9.090296 0
M  V30 6 N 8.886106 7.003039 -10.148622 0 CFG=1 CHG=1
M  V30 7 C 8.792629 7.657238 -11.476960 0
M  V30 8 C 8.256778 6.657425 -12.511886 0
M  V30 9 C 9.154249 5.396255 -12.660992 0 CFG=2
M  V30 10 C 9.256215 4.752715 -11.254117 0
M  V30 11 C 9.687228 5.750391 -10.149542 0
M  V30 12 C 10.555658 5.772275 -13.177009 0
M  V30 13 O 11.323434 6.572697 -12.646870 0
M  V30 14 N 10.825844 5.120420 -14.295177 0
M  V30 15 C 9.792150 4.187332 -14.662363 0
M  V30 16 N 8.709424 4.448796 -13.708745 0
M  V30 17 C 7.627404 3.526579 -13.641635 0
M  V30 18 C 6.459347 3.772283 -12.876816 0
M  V30 19 C 5.423039 2.822349 -12.798971 0
M  V30 20 C 5.535150 1.584161 -13.446817 0
M  V30 21 C 6.659479 1.329938 -14.246732 0
M  V30 22 C 7.678842 2.295094 -14.354726 0
M  V30 23 C 11.362350 8.340979 -4.920158 0
M  V30 24 C 11.686068 7.127450 -4.267302 0
M  V30 25 C 12.197665 7.146288 -2.956961 0
M  V30 26 C 12.397677 8.374994 -2.302663 0
M  V30 27 F 12.886282 8.400668 -1.046977 0
M  V30 28 C 12.086409 9.580797 -2.951361 0
M  V30 29 C 11.578380 9.566358 -4.258251 0
M  V30 30 H 9.691956 6.584782 -5.908093 0
M  V30 31 H 10.779229 6.456782 -7.275784 0
M  V30 32 H 8.264180 8.203743 -7.202420 0
M  V30 33 H 8.239955 6.571896 -7.756115 0
M  V30 34 H 10.353838 8.155380 -9.176910 0
M  V30 35 H 8.781349 8.904629 -9.258768 0
M  V30 36 H 8.093309 8.494315 -11.442017 0
M  V30 37 H 9.740521 8.109997 -11.758122 0
M  V30 38 H 8.085985 7.164818 -13.447002 0
M  V30 39 H 7.258060 6.406433 -12.177068 0
M  V30 40 H 8.291442 4.336129 -10.967014 0
M  V30 41 H 9.945595 3.906827 -11.273721 0
M  V30 42 H 9.602253 5.253584 -9.183017 0
M  V30 43 H 10.731736 6.036767 -10.246736 0
M  V30 44 H 11.687877 5.219855 -14.810616 0
M  V30 45 H 10.214322 3.187338 -14.558081 0
M  V30 46 H 9.469110 4.348187 -15.691587 0
M  V30 47 H 6.310793 4.676600 -12.321849 0
M  V30 48 H 4.528606 3.042976 -12.246880 0
M  V30 49 H 4.741585 0.855075 -13.374084 0
M  V30 50 H 6.742707 0.393892 -14.779977 0
M  V30 51 H 8.510551 2.028757 -14.985734 0
M  V30 52 H 11.548448 6.173010 -4.754813 0
M  V30 53 H 12.435728 6.219410 -2.454843 0
M  V30 54 H 12.214679 10.524535 -2.443752 0
M  V30 55 H 11.334342 10.504349 -4.737355 0
M  V30 56 H 7.913039 6.787024 -9.939496 0
M  V30 END ATOM
M  V30 BEGIN BOND
M  V30 1 2 2 1
M  V30 2 1 3 2
M  V30 3 1 4 3
M  V30 4 1 5 4
M  V30 5 1 6 5
M  V30 6 1 7 6
M  V30 7 1 8 7
M  V30 8 1 9 8
M  V30 9 1 10 9
M  V30 10 1 11 6
M  V30 11 1 11 10
M  V30 12 1 12 9
M  V30 13 2 13 12
M  V30 14 1 14 12
M  V30 15 1 15 14
M  V30 16 1 9 16 CFG=3
M  V30 17 1 16 15
M  V30 18 1 17 16
M  V30 19 2 18 17
M  V30 20 1 19 18
M  V30 21 2 20 19
M  V30 22 1 21 20
M  V30 23 1 22 17
M  V30 24 2 22 21
M  V30 25 1 23 2
M  V30 26 1 24 23
M  V30 27 2 25 24
M  V30 28 1 26 25
M  V30 29 1 27 26
M  V30 30 2 28 26
M  V30 31 2 29 23
M  V30 32 1 29 28
M  V30 33 1 30 3
M  V30 34 1 31 3
M  V30 35 1 32 4
M  V30 36 1 33 4
M  V30 37 1 34 5
M  V30 38 1 35 5
M  V30 39 1 36 7
M  V30 40 1 37 7
M  V30 41 1 38 8
M  V30 42 1 39 8
M  V30 43 1 40 10
M  V30 44 1 41 10
M  V30 45 1 42 11
M  V30 46 1 43 11
M  V30 47 1 44 14
M  V30 48 1 45 15
M  V30 49 1 46 15
M  V30 50 1 47 18
M  V30 51 1 48 19
M  V30 52 1 49 20
M  V30 53 1 50 21
M  V30 54 1 51 22
M  V30 55 1 52 24
M  V30 56 1 53 25
M  V30 57 1 54 28
M  V30 58 1 55 29
M  V30 59 1 6 56 CFG=1
M  V30 END BOND
M  V30 END CTAB
M  END
>  <b_m_subgroup_collapsed>  (223) 
0

>  <r_i_docking_score>  (223) 
-8.7847259730164193

>  <s_m_subgroup_title>  (223) 
glide-dock_SP_D22_pv

>  <s_m_subgroupid>  (223) 
glide-dock_SP_D22_pv

>  <Molecule ChEMBL ID>  (223) 
CHEMBL267930

>  <Standard Type>  (223) 
Ki

>  <Standard Value>  (223) 
0.06

>  <label>  (223) 
1

$$$$
CHEMBL566379
     RDKit          3D

  0  0  0  0  0  0  0  0  0  0999 V3000
M  V30 BEGIN CTAB
M  V30 COUNTS 62 67 0 0 1
M  V30 BEGIN ATOM
M  V30 1 O 10.165232 -1.302788 -17.444252 0
M  V30 2 C 10.035998 -0.237768 -16.844648 0
M  V30 3 C 8.830638 0.094767 -15.947129 0
M  V30 4 C 9.164271 1.528184 -15.617582 0
M  V30 5 C 10.375710 1.883985 -16.197487 0
M  V30 6 C 10.913419 3.174712 -16.078592 0
M  V30 7 C 10.166287 4.125577 -15.350142 0
M  V30 8 C 8.930842 3.772999 -14.752938 0
M  V30 9 C 8.406982 2.457660 -14.882928 0
M  V30 10 O 7.199365 2.098804 -14.323272 0
M  V30 11 C 6.407880 3.180332 -13.830044 0
M  V30 12 C 7.298656 4.220932 -13.130800 0 CFG=2
M  V30 13 C 6.532001 5.412231 -12.527456 0
M  V30 14 N 7.413390 6.572317 -12.246865 0 CHG=1
M  V30 15 C 8.624271 6.282963 -11.447076 0
M  V30 16 C 9.645883 7.429568 -11.517099 0
M  V30 17 C 9.572517 8.425094 -10.353081 0
M  V30 18 C 10.425251 8.055423 -9.124446 0 CFG=2
M  V30 19 C 9.888518 6.800371 -8.392585 0
M  V30 20 C 10.652966 6.452554 -7.110648 0
M  V30 21 C 10.967880 7.668371 -6.315485 0
M  V30 22 C 10.921350 8.935915 -6.801581 0
M  V30 23 N 11.259846 9.829886 -5.793831 0
M  V30 24 C 11.575177 9.139721 -4.635060 0
M  V30 25 C 11.988223 9.532341 -3.346209 0
M  V30 26 C 12.293513 8.548171 -2.386264 0
M  V30 27 C 12.153016 7.187621 -2.718523 0
M  V30 28 F 12.486025 6.218164 -1.846864 0
M  V30 29 C 11.686049 6.811475 -3.981296 0
M  V30 30 C 11.402318 7.766081 -4.966826 0
M  V30 31 C 10.548904 9.287015 -8.193612 0
M  V30 32 O 8.230640 4.735334 -14.073546 0
M  V30 33 N 10.886022 0.795338 -16.904352 0
M  V30 34 H 8.812360 -0.527236 -15.051728 0
M  V30 35 H 7.887743 0.009027 -16.487379 0
M  V30 36 H 11.854041 3.437353 -16.540560 0
M  V30 37 H 10.542073 5.133113 -15.248048 0
M  V30 38 H 5.671419 2.781543 -13.131945 0
M  V30 39 H 5.854425 3.640389 -14.647173 0
M  V30 40 H 7.851771 3.731695 -12.330552 0
M  V30 41 H 5.745317 5.746202 -13.204439 0
M  V30 42 H 6.035831 5.106421 -11.605333 0
M  V30 43 H 7.688087 7.000371 -13.117931 0
M  V30 44 H 8.296508 6.065548 -10.432432 0
M  V30 45 H 9.143379 5.396333 -11.803134 0
M  V30 46 H 10.654078 7.015155 -11.560459 0
M  V30 47 H 9.524074 7.968711 -12.456805 0
M  V30 48 H 9.950447 9.372014 -10.720407 0
M  V30 49 H 8.536907 8.617036 -10.069386 0
M  V30 50 H 11.436466 7.814561 -9.456390 0
M  V30 51 H 8.839835 6.969850 -8.139362 0
M  V30 52 H 9.923841 5.923838 -9.036583 0
M  V30 53 H 11.575300 5.926933 -7.356273 0
M  V30 54 H 10.049193 5.772327 -6.517641 0
M  V30 55 H 11.290937 10.830377 -5.921985 0
M  V30 56 H 12.086030 10.572318 -3.078471 0
M  V30 57 H 12.638959 8.836401 -1.404227 0
M  V30 58 H 11.570508 5.772306 -4.221611 0
M  V30 59 H 11.285094 9.979068 -8.608566 0
M  V30 60 H 9.574734 9.772320 -8.153050 0
M  V30 61 H 11.743962 0.825461 -17.435249 0
M  V30 62 H 6.886022 7.241204 -11.673691 0
M  V30 END ATOM
M  V30 BEGIN BOND
M  V30 1 2 2 1
M  V30 2 1 3 2
M  V30 3 1 4 3
M  V30 4 2 5 4
M  V30 5 1 6 5
M  V30 6 2 7 6
M  V30 7 1 8 7
M  V30 8 1 9 4
M  V30 9 2 9 8
M  V30 10 1 10 9
M  V30 11 1 11 10
M  V30 12 1 12 11
M  V30 13 1 13 12
M  V30 14 1 14 13
M  V30 15 1 15 14
M  V30 16 1 16 15
M  V30 17 1 17 16
M  V30 18 1 18 17
M  V30 19 1 19 18
M  V30 20 1 20 19
M  V30 21 1 21 20
M  V30 22 2 22 21
M  V30 23 1 23 22
M  V30 24 1 24 23
M  V30 25 1 25 24
M  V30 26 2 26 25
M  V30 27 1 27 26
M  V30 28 1 28 27
M  V30 29 2 29 27
M  V30 30 1 30 21
M  V30 31 2 30 24
M  V30 32 1 30 29
M  V30 33 1 31 18
M  V30 34 1 31 22
M  V30 35 1 32 8
M  V30 36 1 32 12
M  V30 37 1 33 2
M  V30 38 1 33 5
M  V30 39 1 34 3
M  V30 40 1 35 3
M  V30 41 1 36 6
M  V30 42 1 37 7
M  V30 43 1 38 11
M  V30 44 1 39 11
M  V30 45 1 12 40 CFG=1
M  V30 46 1 41 13
M  V30 47 1 42 13
M  V30 48 1 43 14
M  V30 49 1 44 15
M  V30 50 1 45 15
M  V30 51 1 46 16
M  V30 52 1 47 16
M  V30 53 1 48 17
M  V30 54 1 49 17
M  V30 55 1 18 50 CFG=3
M  V30 56 1 51 19
M  V30 57 1 52 19
M  V30 58 1 53 20
M  V30 59 1 54 20
M  V30 60 1 55 23
M  V30 61 1 56 25
M  V30 62 1 57 26
M  V30 63 1 58 29
M  V30 64 1 59 31
M  V30 65 1 60 31
M  V30 66 1 61 33
M  V30 67 1 62 14
M  V30 END BOND
M  V30 END CTAB
M  END
>  <b_m_subgroup_collapsed>  (224) 
0

>  <r_i_docking_score>  (224) 
-8.7786592372745407

>  <s_m_subgroup_title>  (224) 
glide-dock_SP_D22_pv

>  <s_m_subgroupid>  (224) 
glide-dock_SP_D22_pv

>  <Molecule ChEMBL ID>  (224) 
CHEMBL566379

>  <Standard Type>  (224) 
Ki

>  <Standard Value>  (224) 
50.0

>  <label>  (224) 
1

$$$$
CHEMBL5289958
     RDKit          3D

  0  0  0  0  0  0  0  0  0  0999 V3000
M  V30 BEGIN CTAB
M  V30 COUNTS 58 62 0 0 1
M  V30 BEGIN ATOM
M  V30 1 F 13.127633 8.875566 -1.551681 0
M  V30 2 C 12.484953 8.528426 -2.691904 0
M  V30 3 C 11.917438 9.521399 -3.511342 0
M  V30 4 C 11.225235 9.167971 -4.687603 0
M  V30 5 C 11.077466 7.806306 -5.039679 0
M  V30 6 C 10.164525 7.370063 -6.172189 0
M  V30 7 N 10.612226 7.743065 -7.531477 0 CFG=1 CHG=1
M  V30 8 C 12.076843 7.855601 -7.700325 0
M  V30 9 C 12.478942 8.327491 -9.097554 0
M  V30 10 C 11.794815 7.538278 -10.207400 0
M  V30 11 C 10.288044 7.361844 -9.950174 0 CFG=1
M  V30 12 C 9.552569 8.704951 -10.120692 0
M  V30 13 C 8.885443 8.572606 -11.467986 0
M  V30 14 N 8.486073 7.161814 -11.459492 0 CFG=1 CHG=1
M  V30 15 C 7.723505 6.742728 -12.646751 0
M  V30 16 C 7.774933 5.305738 -13.051288 0
M  V30 17 C 8.799148 4.587250 -13.616234 0
M  V30 18 C 8.271482 3.293791 -13.948640 0
M  V30 19 C 8.803754 2.120544 -14.537275 0
M  V30 20 C 8.005617 0.970750 -14.721250 0
M  V30 21 C 6.650675 0.977139 -14.335861 0
M  V30 22 Cl 5.682025 -0.436537 -14.530862 0
M  V30 23 C 6.087135 2.139261 -13.780084 0
M  V30 24 C 6.894830 3.272719 -13.576915 0
M  V30 25 N 6.641214 4.510046 -13.021672 0
M  V30 26 C 9.657208 6.415368 -10.999338 0
M  V30 27 C 10.036744 6.823423 -8.535849 0
M  V30 28 C 11.675293 6.819655 -4.226390 0
M  V30 29 C 12.366329 7.174336 -3.053547 0
M  V30 30 F 12.885662 6.207106 -2.261486 0
M  V30 31 H 11.981931 10.555313 -3.206570 0
M  V30 32 H 10.754402 9.939955 -5.279270 0
M  V30 33 H 10.053050 6.285579 -6.111092 0
M  V30 34 H 9.165511 7.776014 -6.008415 0
M  V30 35 H 12.487526 8.581852 -7.003662 0
M  V30 36 H 12.494547 6.883435 -7.447027 0
M  V30 37 H 12.215135 9.372646 -9.199920 0
M  V30 38 H 13.562241 8.282542 -9.215100 0
M  V30 39 H 11.979430 8.012210 -11.172474 0
M  V30 40 H 12.272342 6.572556 -10.246745 0
M  V30 41 H 8.770230 8.829081 -9.369788 0
M  V30 42 H 10.196217 9.575914 -10.031988 0
M  V30 43 H 8.030743 9.243134 -11.570481 0
M  V30 44 H 9.587246 8.771582 -12.279577 0
M  V30 45 H 6.686627 7.051112 -12.503894 0
M  V30 46 H 8.081098 7.355115 -13.451373 0
M  V30 47 H 9.808020 4.922009 -13.807291 0
M  V30 48 H 9.842507 2.100539 -14.834011 0
M  V30 49 H 8.433208 0.077199 -15.154140 0
M  V30 50 H 5.050992 2.147283 -13.475645 0
M  V30 51 H 5.752680 4.821190 -12.653697 0
M  V30 52 H 10.334956 6.250115 -11.838873 0
M  V30 53 H 9.375836 5.440736 -10.598622 0
M  V30 54 H 10.476958 5.829539 -8.424763 0
M  V30 55 H 8.963164 6.709299 -8.361359 0
M  V30 56 H 11.558519 5.772928 -4.463920 0
M  V30 57 H 10.232832 8.662065 -7.711987 0
M  V30 58 H 7.781826 7.139393 -10.717011 0
M  V30 END ATOM
M  V30 BEGIN BOND
M  V30 1 1 2 1
M  V30 2 1 3 2
M  V30 3 2 4 3
M  V30 4 1 5 4
M  V30 5 1 6 5
M  V30 6 1 7 6
M  V30 7 1 8 7
M  V30 8 1 9 8
M  V30 9 1 10 9
M  V30 10 1 11 10 CFG=3
M  V30 11 1 12 11
M  V30 12 1 13 12
M  V30 13 1 14 13
M  V30 14 1 15 14
M  V30 15 1 16 15
M  V30 16 2 17 16
M  V30 17 1 18 17
M  V30 18 1 19 18
M  V30 19 2 20 19
M  V30 20 1 21 20
M  V30 21 1 22 21
M  V30 22 2 23 21
M  V30 23 2 24 18
M  V30 24 1 24 23
M  V30 25 1 25 16
M  V30 26 1 25 24
M  V30 27 1 26 11
M  V30 28 1 26 14
M  V30 29 1 27 7
M  V30 30 1 27 11
M  V30 31 2 28 5
M  V30 32 2 29 2
M  V30 33 1 29 28
M  V30 34 1 30 29
M  V30 35 1 31 3
M  V30 36 1 32 4
M  V30 37 1 33 6
M  V30 38 1 34 6
M  V30 39 1 35 8
M  V30 40 1 36 8
M  V30 41 1 37 9
M  V30 42 1 38 9
M  V30 43 1 39 10
M  V30 44 1 40 10
M  V30 45 1 41 12
M  V30 46 1 42 12
M  V30 47 1 43 13
M  V30 48 1 44 13
M  V30 49 1 45 15
M  V30 50 1 46 15
M  V30 51 1 47 17
M  V30 52 1 48 19
M  V30 53 1 49 20
M  V30 54 1 50 23
M  V30 55 1 51 25
M  V30 56 1 52 26
M  V30 57 1 53 26
M  V30 58 1 54 27
M  V30 59 1 55 27
M  V30 60 1 56 28
M  V30 61 1 7 57 CFG=3
M  V30 62 1 14 58 CFG=1
M  V30 END BOND
M  V30 END CTAB
M  END
>  <b_m_subgroup_collapsed>  (225) 
0

>  <r_i_docking_score>  (225) 
-8.7777929063339002

>  <s_m_subgroup_title>  (225) 
glide-dock_SP_D22_pv

>  <s_m_subgroupid>  (225) 
glide-dock_SP_D22_pv

>  <Molecule ChEMBL ID>  (225) 
CHEMBL5289958

>  <Standard Type>  (225) 
Ki

>  <Standard Value>  (225) 
10000.0

>  <label>  (225) 
0

$$$$
CHEMBL5830831
     RDKit          3D

  0  0  0  0  0  0  0  0  0  0999 V3000
M  V30 BEGIN CTAB
M  V30 COUNTS 65 68 0 0 1
M  V30 BEGIN ATOM
M  V30 1 C 7.066502 3.305373 -13.861097 0
M  V30 2 N 8.156285 4.194095 -14.246690 0
M  V30 3 C 8.107341 5.455663 -13.498166 0
M  V30 4 C 8.746635 5.511502 -12.086296 0 CFG=1
M  V30 5 C 9.185728 6.956491 -11.770558 0
M  V30 6 C 9.797691 7.091731 -10.364346 0
M  V30 7 N 8.885794 6.572364 -9.313183 0 CFG=2 CHG=1
M  V30 8 C 9.454063 6.700451 -7.948581 0
M  V30 9 C 9.093713 8.031713 -7.259530 0
M  V30 10 O 10.243656 8.795444 -6.902161 0
M  V30 11 C 10.885823 8.497253 -5.717907 0
M  V30 12 C 11.020177 7.186367 -5.196094 0
M  V30 13 C 11.686162 6.964516 -3.975033 0
M  V30 14 C 12.209832 8.047946 -3.250877 0
M  V30 15 C 12.087690 9.351306 -3.761257 0
M  V30 16 C 11.443732 9.572263 -4.994747 0
M  V30 17 C 8.433109 5.188260 -9.592613 0
M  V30 18 C 7.779140 5.079925 -10.978164 0
M  V30 19 C 9.482972 3.567249 -14.399855 0 CFG=1
M  V30 20 C 9.471002 2.328593 -15.303381 0
M  V30 21 C 8.923219 2.379864 -16.607153 0
M  V30 22 C 8.981823 1.260515 -17.457411 0
M  V30 23 C 9.572485 0.068304 -17.003130 0
M  V30 24 Cl 9.686316 -1.291565 -18.057749 0
M  V30 25 C 10.080117 -0.006462 -15.693787 0
M  V30 26 C 10.037597 1.119492 -14.847868 0
M  V30 27 C 10.540391 4.558702 -14.907847 0
M  V30 28 C 11.582265 5.005369 -14.064485 0
M  V30 29 C 12.486459 5.961960 -14.564494 0
M  V30 30 C 12.342907 6.417572 -15.887181 0
M  V30 31 C 11.286064 5.901478 -16.656260 0
M  V30 32 N 10.396745 5.008313 -16.179697 0
M  V30 33 H 6.110794 3.823673 -13.955606 0
M  V30 34 H 7.011184 2.426578 -14.502731 0
M  V30 35 H 7.157442 2.972523 -12.838467 0
M  V30 36 H 8.617750 6.171580 -14.133195 0
M  V30 37 H 7.076846 5.806000 -13.443970 0
M  V30 38 H 9.630776 4.882052 -12.032711 0
M  V30 39 H 9.914279 7.294206 -12.508492 0
M  V30 40 H 8.328468 7.628440 -11.858304 0
M  V30 41 H 10.019212 8.141768 -10.164131 0
M  V30 42 H 10.747724 6.556790 -10.326847 0
M  V30 43 H 9.062115 5.899318 -7.318710 0
M  V30 44 H 10.534461 6.546370 -7.981933 0
M  V30 45 H 8.488622 8.652724 -7.921310 0
M  V30 46 H 8.472118 7.855324 -6.379447 0
M  V30 47 H 10.625761 6.324334 -5.703383 0
M  V30 48 H 11.779742 5.960180 -3.587308 0
M  V30 49 H 12.706200 7.880257 -2.307027 0
M  V30 50 H 12.497061 10.172264 -3.194734 0
M  V30 51 H 11.356767 10.579272 -5.376960 0
M  V30 52 H 7.693999 4.897655 -8.840088 0
M  V30 53 H 9.272408 4.494657 -9.512510 0
M  V30 54 H 6.882713 5.701626 -11.022058 0
M  V30 55 H 7.443491 4.056539 -11.111747 0
M  V30 56 H 9.797867 3.221643 -13.414596 0
M  V30 57 H 8.485935 3.296633 -16.972424 0
M  V30 58 H 8.586488 1.320763 -18.459797 0
M  V30 59 H 10.498352 -0.935049 -15.339962 0
M  V30 60 H 10.447125 1.055182 -13.849846 0
M  V30 61 H 11.679938 4.641378 -13.051591 0
M  V30 62 H 13.279753 6.351942 -13.944855 0
M  V30 63 H 13.024896 7.145691 -16.300816 0
M  V30 64 H 11.139077 6.231569 -17.675083 0
M  V30 65 H 8.025543 7.120812 -9.358281 0
M  V30 END ATOM
M  V30 BEGIN BOND
M  V30 1 1 2 1
M  V30 2 1 3 2
M  V30 3 1 4 3
M  V30 4 1 5 4
M  V30 5 1 6 5
M  V30 6 1 7 6
M  V30 7 1 8 7
M  V30 8 1 9 8
M  V30 9 1 10 9
M  V30 10 1 11 10
M  V30 11 2 12 11
M  V30 12 1 13 12
M  V30 13 2 14 13
M  V30 14 1 15 14
M  V30 15 1 16 11
M  V30 16 2 16 15
M  V30 17 1 17 7
M  V30 18 1 18 4
M  V30 19 1 18 17
M  V30 20 1 19 2
M  V30 21 1 20 19
M  V30 22 1 21 20
M  V30 23 2 22 21
M  V30 24 1 23 22
M  V30 25 1 24 23
M  V30 26 2 25 23
M  V30 27 2 26 20
M  V30 28 1 26 25
M  V30 29 1 27 19
M  V30 30 2 28 27
M  V30 31 1 29 28
M  V30 32 2 30 29
M  V30 33 1 31 30
M  V30 34 1 32 27
M  V30 35 2 32 31
M  V30 36 1 33 1
M  V30 37 1 34 1
M  V30 38 1 35 1
M  V30 39 1 36 3
M  V30 40 1 37 3
M  V30 41 1 4 38 CFG=3
M  V30 42 1 39 5
M  V30 43 1 40 5
M  V30 44 1 41 6
M  V30 45 1 42 6
M  V30 46 1 43 8
M  V30 47 1 44 8
M  V30 48 1 45 9
M  V30 49 1 46 9
M  V30 50 1 47 12
M  V30 51 1 48 13
M  V30 52 1 49 14
M  V30 53 1 50 15
M  V30 54 1 51 16
M  V30 55 1 52 17
M  V30 56 1 53 17
M  V30 57 1 54 18
M  V30 58 1 55 18
M  V30 59 1 19 56 CFG=1
M  V30 60 1 57 21
M  V30 61 1 58 22
M  V30 62 1 59 25
M  V30 63 1 60 26
M  V30 64 1 61 28
M  V30 65 1 62 29
M  V30 66 1 63 30
M  V30 67 1 64 31
M  V30 68 1 7 65 CFG=1
M  V30 END BOND
M  V30 END CTAB
M  END
>  <b_m_subgroup_collapsed>  (226) 
0

>  <r_i_docking_score>  (226) 
-8.7709331693515296

>  <s_m_subgroup_title>  (226) 
glide-dock_SP_D22_pv

>  <s_m_subgroupid>  (226) 
glide-dock_SP_D22_pv

>  <Molecule ChEMBL ID>  (226) 
CHEMBL5830831

>  <Standard Type>  (226) 
Ki

>  <Standard Value>  (226) 
55.0

>  <label>  (226) 
1

$$$$
CHEMBL3818478
     RDKit          3D

  0  0  0  0  0  0  0  0  0  0999 V3000
M  V30 BEGIN CTAB
M  V30 COUNTS 61 65 0 0 1
M  V30 BEGIN ATOM
M  V30 1 O 11.332144 6.571572 -12.756748 0
M  V30 2 C 10.563911 5.772338 -13.291541 0
M  V30 3 N 10.824129 5.126863 -14.416372 0
M  V30 4 C 9.761689 4.234805 -14.805941 0
M  V30 5 N 8.682688 4.510898 -13.851664 0
M  V30 6 C 7.608002 3.583664 -13.765341 0
M  V30 7 C 7.567472 2.436149 -14.607018 0
M  V30 8 C 6.590784 1.434859 -14.444442 0
M  V30 9 C 5.613018 1.564365 -13.446722 0
M  V30 10 C 5.599441 2.717320 -12.646725 0
M  V30 11 C 6.559685 3.726642 -12.822468 0
M  V30 12 C 9.164285 5.402243 -12.773241 0 CFG=1
M  V30 13 C 9.315267 4.691753 -11.406282 0
M  V30 14 C 9.691530 5.634299 -10.242356 0
M  V30 15 N 8.886028 6.880795 -10.174051 0 CFG=1 CHG=1
M  V30 16 C 9.252573 7.787777 -9.062031 0
M  V30 17 C 8.936956 7.202755 -7.669510 0
M  V30 18 C 10.006956 6.339683 -6.997255 0
M  V30 19 C 11.400443 6.932989 -6.978331 0
M  V30 20 C 11.407724 8.130554 -6.108309 0
M  V30 21 C 11.188602 9.432835 -6.465014 0
M  V30 22 N 11.338661 10.221528 -5.341746 0
M  V30 23 C 11.702702 9.451812 -4.254461 0
M  V30 24 C 12.063732 9.772317 -2.941134 0
M  V30 25 C 12.404013 8.746964 -2.042144 0
M  V30 26 C 12.340117 7.403248 -2.453260 0
M  V30 27 C 11.984945 7.090082 -3.776382 0
M  V30 28 C 11.686085 8.110097 -4.708639 0
M  V30 29 C 8.810089 7.598990 -11.468172 0
M  V30 30 C 8.266828 6.655841 -12.548955 0
M  V30 31 H 11.682071 5.226068 -14.939018 0
M  V30 32 H 10.139248 3.214135 -14.726460 0
M  V30 33 H 9.447509 4.433473 -15.831204 0
M  V30 34 H 8.300523 2.266953 -15.379526 0
M  V30 35 H 6.602130 0.559176 -15.077444 0
M  V30 36 H 4.875385 0.788776 -13.301879 0
M  V30 37 H 4.885970 2.818255 -11.850386 0
M  V30 38 H 6.491876 4.554995 -12.144538 0
M  V30 39 H 8.392842 4.196692 -11.116575 0
M  V30 40 H 10.053388 3.889211 -11.473845 0
M  V30 41 H 9.523795 5.040890 -9.353502 0
M  V30 42 H 10.739123 5.922153 -10.246812 0
M  V30 43 H 10.277932 8.135445 -9.167059 0
M  V30 44 H 8.639729 8.684661 -9.164203 0
M  V30 45 H 8.673125 8.021127 -6.997793 0
M  V30 46 H 8.064064 6.570820 -7.730024 0
M  V30 47 H 9.689512 6.172332 -5.967440 0
M  V30 48 H 10.062332 5.361149 -7.445731 0
M  V30 49 H 12.085955 6.182902 -6.582310 0
M  V30 50 H 11.773173 7.159056 -7.975158 0
M  V30 51 H 10.954051 9.854478 -7.430269 0
M  V30 52 H 11.267667 11.228665 -5.358273 0
M  V30 53 H 12.085640 10.806053 -2.632904 0
M  V30 54 H 12.699057 8.999686 -1.037920 0
M  V30 55 H 12.582972 6.607381 -1.765470 0
M  V30 56 H 11.965936 6.057269 -4.091729 0
M  V30 57 H 8.126843 8.447357 -11.401768 0
M  V30 58 H 9.768883 8.044086 -11.722851 0
M  V30 59 H 8.086045 7.221367 -13.447063 0
M  V30 60 H 7.264658 6.386865 -12.236481 0
M  V30 61 H 7.914604 6.642497 -9.991054 0
M  V30 END ATOM
M  V30 BEGIN BOND
M  V30 1 2 2 1
M  V30 2 1 3 2
M  V30 3 1 4 3
M  V30 4 1 5 4
M  V30 5 1 6 5
M  V30 6 2 7 6
M  V30 7 1 8 7
M  V30 8 2 9 8
M  V30 9 1 10 9
M  V30 10 1 11 6
M  V30 11 2 11 10
M  V30 12 1 12 2
M  V30 13 1 12 5 CFG=3
M  V30 14 1 13 12
M  V30 15 1 14 13
M  V30 16 1 15 14
M  V30 17 1 16 15
M  V30 18 1 17 16
M  V30 19 1 18 17
M  V30 20 1 19 18
M  V30 21 1 20 19
M  V30 22 2 21 20
M  V30 23 1 22 21
M  V30 24 1 23 22
M  V30 25 2 24 23
M  V30 26 1 25 24
M  V30 27 2 26 25
M  V30 28 1 27 26
M  V30 29 1 28 20
M  V30 30 1 28 23
M  V30 31 2 28 27
M  V30 32 1 29 15
M  V30 33 1 30 12
M  V30 34 1 30 29
M  V30 35 1 31 3
M  V30 36 1 32 4
M  V30 37 1 33 4
M  V30 38 1 34 7
M  V30 39 1 35 8
M  V30 40 1 36 9
M  V30 41 1 37 10
M  V30 42 1 38 11
M  V30 43 1 39 13
M  V30 44 1 40 13
M  V30 45 1 41 14
M  V30 46 1 42 14
M  V30 47 1 43 16
M  V30 48 1 44 16
M  V30 49 1 45 17
M  V30 50 1 46 17
M  V30 51 1 47 18
M  V30 52 1 48 18
M  V30 53 1 49 19
M  V30 54 1 50 19
M  V30 55 1 51 21
M  V30 56 1 52 22
M  V30 57 1 53 24
M  V30 58 1 54 25
M  V30 59 1 55 26
M  V30 60 1 56 27
M  V30 61 1 57 29
M  V30 62 1 58 29
M  V30 63 1 59 30
M  V30 64 1 60 30
M  V30 65 1 15 61 CFG=1
M  V30 END BOND
M  V30 END CTAB
M  END
>  <b_m_subgroup_collapsed>  (227) 
0

>  <r_i_docking_score>  (227) 
-8.7698252330939308

>  <s_m_subgroup_title>  (227) 
glide-dock_SP_D22_pv

>  <s_m_subgroupid>  (227) 
glide-dock_SP_D22_pv

>  <Molecule ChEMBL ID>  (227) 
CHEMBL3818478

>  <Standard Type>  (227) 
Ki

>  <Standard Value>  (227) 
22.39

>  <label>  (227) 
1

$$$$
CHEMBL5273758
     RDKit          3D

  0  0  0  0  0  0  0  0  0  0999 V3000
M  V30 BEGIN CTAB
M  V30 COUNTS 43 46 0 0 1
M  V30 BEGIN ATOM
M  V30 1 C 8.251951 4.456508 -8.554276 0
M  V30 2 N 8.485936 5.731510 -9.255819 0 CFG=2 CHG=1
M  V30 3 C 9.041855 5.488738 -10.616793 0
M  V30 4 C 9.300672 6.794487 -11.395897 0
M  V30 5 C 10.096746 7.855666 -10.607244 0 CFG=2
M  V30 6 C 11.607708 7.772585 -10.690899 0
M  V30 7 C 12.403391 8.172144 -9.681346 0
M  V30 8 O 13.725410 8.167169 -9.846729 0
M  V30 9 C 11.869864 8.606230 -8.401368 0
M  V30 10 O 12.725852 8.971279 -7.446617 0
M  V30 11 C 10.556487 8.473235 -8.141888 0
M  V30 12 C 9.869081 8.298436 -6.794227 0 CFG=2
M  V30 13 C 10.735804 8.289407 -5.532304 0
M  V30 14 C 11.315208 7.102112 -5.029407 0
M  V30 15 C 12.057837 7.123127 -3.831605 0
M  V30 16 C 12.237278 8.330644 -3.132287 0
M  V30 17 C 11.686259 9.521032 -3.639308 0
M  V30 18 C 10.945289 9.503196 -4.837721 0
M  V30 19 C 9.025397 7.007680 -7.041998 0
M  V30 20 C 9.400841 6.590228 -8.486084 0 CFG=2
M  V30 21 C 9.600698 7.928267 -9.156576 0 CFG=2
M  V30 22 H 9.187385 3.962703 -8.289837 0
M  V30 23 H 7.685704 3.772088 -9.181602 0
M  V30 24 H 7.685833 4.640922 -7.644324 0
M  V30 25 H 9.971524 4.923386 -10.533829 0
M  V30 26 H 8.349318 4.865491 -11.184459 0
M  V30 27 H 9.787195 6.579091 -12.347820 0
M  V30 28 H 8.330962 7.223721 -11.653306 0
M  V30 29 H 9.875230 8.815875 -11.075268 0
M  V30 30 H 12.035963 7.464504 -11.634347 0
M  V30 31 H 13.996509 9.091685 -9.846783 0
M  V30 32 H 13.599072 8.887676 -7.798488 0
M  V30 33 H 9.165039 9.122157 -6.701863 0
M  V30 34 H 11.203958 6.165020 -5.551144 0
M  V30 35 H 12.484640 6.208453 -3.446740 0
M  V30 36 H 12.800649 8.346932 -2.210932 0
M  V30 37 H 11.821527 10.446447 -3.097754 0
M  V30 38 H 10.518872 10.422897 -5.211117 0
M  V30 39 H 9.198285 6.200968 -6.332616 0
M  V30 40 H 7.972501 7.257376 -6.960555 0
M  V30 41 H 10.356867 6.058590 -8.439817 0
M  V30 42 H 8.672188 8.503696 -9.132239 0
M  V30 43 H 7.608677 6.235661 -9.360182 0
M  V30 END ATOM
M  V30 BEGIN BOND
M  V30 1 1 2 1
M  V30 2 1 3 2
M  V30 3 1 4 3
M  V30 4 1 5 4
M  V30 5 1 6 5
M  V30 6 2 7 6
M  V30 7 1 8 7
M  V30 8 1 9 7
M  V30 9 1 10 9
M  V30 10 2 11 9
M  V30 11 1 12 11
M  V30 12 1 13 12
M  V30 13 2 14 13
M  V30 14 1 15 14
M  V30 15 2 16 15
M  V30 16 1 17 16
M  V30 17 1 18 13
M  V30 18 2 18 17
M  V30 19 1 19 12
M  V30 20 1 20 2
M  V30 21 1 20 19
M  V30 22 1 21 5
M  V30 23 1 21 11
M  V30 24 1 21 20
M  V30 25 1 22 1
M  V30 26 1 23 1
M  V30 27 1 24 1
M  V30 28 1 25 3
M  V30 29 1 26 3
M  V30 30 1 27 4
M  V30 31 1 28 4
M  V30 32 1 5 29 CFG=3
M  V30 33 1 30 6
M  V30 34 1 31 8
M  V30 35 1 32 10
M  V30 36 1 12 33 CFG=1
M  V30 37 1 34 14
M  V30 38 1 35 15
M  V30 39 1 36 16
M  V30 40 1 37 17
M  V30 41 1 38 18
M  V30 42 1 39 19
M  V30 43 1 40 19
M  V30 44 1 20 41 CFG=1
M  V30 45 1 21 42 CFG=3
M  V30 46 1 2 43 CFG=3
M  V30 END BOND
M  V30 END CTAB
M  END
>  <b_m_subgroup_collapsed>  (228) 
0

>  <r_i_docking_score>  (228) 
-8.7686674838218099

>  <s_m_subgroup_title>  (228) 
glide-dock_SP_D22_pv

>  <s_m_subgroupid>  (228) 
glide-dock_SP_D22_pv

>  <Molecule ChEMBL ID>  (228) 
CHEMBL5273758

>  <Standard Type>  (228) 
Ki

>  <Standard Value>  (228) 
12.88

>  <label>  (228) 
1

$$$$
CHEMBL2386617
     RDKit          3D

  0  0  0  0  0  0  0  0  0  0999 V3000
M  V30 BEGIN CTAB
M  V30 COUNTS 70 74 0 0 1
M  V30 BEGIN ATOM
M  V30 1 C 11.904244 10.965797 -6.194281 0
M  V30 2 O 11.059171 10.603686 -5.109370 0
M  V30 3 C 11.355206 9.387378 -4.550314 0
M  V30 4 C 11.751493 9.372921 -3.199466 0
M  V30 5 C 12.110290 8.168957 -2.569285 0
M  V30 6 C 12.085934 6.968082 -3.298177 0
M  V30 7 C 11.681472 6.971894 -4.647215 0
M  V30 8 C 11.289670 8.172257 -5.279024 0
M  V30 9 N 10.868954 8.152809 -6.617324 0
M  V30 10 C 11.905601 7.981610 -7.622336 0
M  V30 11 C 11.409294 8.303867 -9.031873 0
M  V30 12 C 10.677104 7.116082 -9.664832 0
M  V30 13 N 9.281739 6.887494 -9.190578 0 CFG=1 CHG=1
M  V30 14 C 8.670496 5.719661 -9.878645 0
M  V30 15 C 8.496003 5.865696 -11.403835 0
M  V30 16 C 7.922506 4.572852 -11.991491 0
M  V30 17 C 7.728433 4.581282 -13.514915 0
M  V30 18 N 8.967918 4.811641 -14.251864 0
M  V30 19 C 9.960817 3.918764 -14.385861 0
M  V30 20 O 9.958702 2.816384 -13.846831 0
M  V30 21 C 11.106513 4.357229 -15.247527 0
M  V30 22 C 11.709313 5.615986 -14.995538 0
M  V30 23 C 12.831121 6.054311 -15.732070 0
M  V30 24 C 13.382123 5.237907 -16.737789 0
M  V30 25 C 12.780161 3.992921 -16.986938 0
M  V30 26 C 11.655826 3.540221 -16.274408 0
M  V30 27 C 11.298676 2.215452 -16.824677 0
M  V30 28 C 10.249212 1.313576 -16.541018 0
M  V30 29 C 10.179759 0.089937 -17.243904 0
M  V30 30 C 11.135403 -0.228184 -18.235418 0
M  V30 31 C 12.171206 0.678844 -18.539972 0
M  V30 32 C 12.226945 1.888956 -17.824732 0
M  V30 33 C 13.202928 2.980555 -17.971533 0
M  V30 34 O 14.169312 3.028510 -18.732580 0
M  V30 35 C 9.138081 6.719839 -7.712752 0
M  V30 36 C 9.446579 7.988446 -6.899551 0
M  V30 37 H 12.085977 12.037974 -6.246818 0
M  V30 38 H 12.885636 10.492255 -6.131249 0
M  V30 39 H 11.422770 10.662761 -7.114888 0
M  V30 40 H 11.793279 10.300539 -2.647987 0
M  V30 41 H 12.412872 8.171988 -1.532342 0
M  V30 42 H 12.366230 6.040093 -2.820961 0
M  V30 43 H 11.652471 6.041015 -5.194222 0
M  V30 44 H 12.738176 8.646144 -7.395669 0
M  V30 45 H 12.305861 6.972225 -7.566596 0
M  V30 46 H 10.810123 9.215174 -9.060266 0
M  V30 47 H 12.287049 8.514590 -9.644902 0
M  V30 48 H 10.665931 7.314812 -10.734200 0
M  V30 49 H 11.261146 6.206223 -9.522397 0
M  V30 50 H 9.259529 4.828244 -9.654358 0
M  V30 51 H 7.685987 5.545754 -9.453472 0
M  V30 52 H 7.839357 6.703159 -11.637450 0
M  V30 53 H 9.445659 6.058853 -11.897547 0
M  V30 54 H 8.601743 3.768718 -11.727660 0
M  V30 55 H 6.969788 4.343085 -11.512110 0
M  V30 56 H 7.287410 3.636624 -13.837859 0
M  V30 57 H 7.015318 5.357517 -13.777479 0
M  V30 58 H 9.060970 5.690478 -14.739396 0
M  V30 59 H 11.325523 6.254184 -14.212648 0
M  V30 60 H 13.277725 7.013579 -15.514329 0
M  V30 61 H 14.247944 5.558279 -17.299170 0
M  V30 62 H 9.491104 1.530069 -15.807472 0
M  V30 63 H 9.383679 -0.607173 -17.024427 0
M  V30 64 H 11.067664 -1.166338 -18.766325 0
M  V30 65 H 12.903944 0.450264 -19.300541 0
M  V30 66 H 8.093602 6.471690 -7.501169 0
M  V30 67 H 9.728052 5.872881 -7.358334 0
M  V30 68 H 8.916473 7.919660 -5.949181 0
M  V30 69 H 9.054671 8.877434 -7.395490 0
M  V30 70 H 8.710914 7.684843 -9.446498 0
M  V30 END ATOM
M  V30 BEGIN BOND
M  V30 1 1 2 1
M  V30 2 1 3 2
M  V30 3 2 4 3
M  V30 4 1 5 4
M  V30 5 2 6 5
M  V30 6 1 7 6
M  V30 7 1 8 3
M  V30 8 2 8 7
M  V30 9 1 9 8
M  V30 10 1 10 9
M  V30 11 1 11 10
M  V30 12 1 12 11
M  V30 13 1 13 12
M  V30 14 1 14 13
M  V30 15 1 15 14
M  V30 16 1 16 15
M  V30 17 1 17 16
M  V30 18 1 18 17
M  V30 19 1 19 18
M  V30 20 2 20 19
M  V30 21 1 21 19
M  V30 22 1 22 21
M  V30 23 2 23 22
M  V30 24 1 24 23
M  V30 25 2 25 24
M  V30 26 2 26 21
M  V30 27 1 26 25
M  V30 28 1 27 26
M  V30 29 2 28 27
M  V30 30 1 29 28
M  V30 31 2 30 29
M  V30 32 1 31 30
M  V30 33 1 32 27
M  V30 34 2 32 31
M  V30 35 1 33 25
M  V30 36 1 33 32
M  V30 37 2 34 33
M  V30 38 1 35 13
M  V30 39 1 36 9
M  V30 40 1 36 35
M  V30 41 1 37 1
M  V30 42 1 38 1
M  V30 43 1 39 1
M  V30 44 1 40 4
M  V30 45 1 41 5
M  V30 46 1 42 6
M  V30 47 1 43 7
M  V30 48 1 44 10
M  V30 49 1 45 10
M  V30 50 1 46 11
M  V30 51 1 47 11
M  V30 52 1 48 12
M  V30 53 1 49 12
M  V30 54 1 50 14
M  V30 55 1 51 14
M  V30 56 1 52 15
M  V30 57 1 53 15
M  V30 58 1 54 16
M  V30 59 1 55 16
M  V30 60 1 56 17
M  V30 61 1 57 17
M  V30 62 1 58 18
M  V30 63 1 59 22
M  V30 64 1 60 23
M  V30 65 1 61 24
M  V30 66 1 62 28
M  V30 67 1 63 29
M  V30 68 1 64 30
M  V30 69 1 65 31
M  V30 70 1 66 35
M  V30 71 1 67 35
M  V30 72 1 68 36
M  V30 73 1 69 36
M  V30 74 1 13 70 CFG=3
M  V30 END BOND
M  V30 END CTAB
M  END
>  <b_m_subgroup_collapsed>  (229) 
0

>  <r_i_docking_score>  (229) 
-8.7682935085092506

>  <s_m_subgroup_title>  (229) 
glide-dock_SP_D22_pv

>  <s_m_subgroupid>  (229) 
glide-dock_SP_D22_pv

>  <Molecule ChEMBL ID>  (229) 
CHEMBL2386617

>  <Standard Type>  (229) 
Ki

>  <Standard Value>  (229) 
100.0

>  <label>  (229) 
1

$$$$
CHEMBL246856
     RDKit          3D

  0  0  0  0  0  0  0  0  0  0999 V3000
M  V30 BEGIN CTAB
M  V30 COUNTS 46 49 0 0 1
M  V30 BEGIN ATOM
M  V30 1 O 9.360337 8.972296 -7.492266 0
M  V30 2 C 10.427293 8.052134 -7.337966 0 CFG=1
M  V30 3 C 10.960401 8.131633 -5.907497 0
M  V30 4 C 11.286228 6.983452 -5.147518 0
M  V30 5 C 11.775394 7.115187 -3.832613 0
M  V30 6 C 11.930625 8.393861 -3.264692 0
M  V30 7 Cl 12.486490 8.572306 -1.649452 0
M  V30 8 C 11.601077 9.538847 -4.006027 0
M  V30 9 C 11.134476 9.409008 -5.324475 0
M  V30 10 C 9.894855 6.670251 -7.763697 0
M  V30 11 C 9.349563 6.702426 -9.203416 0
M  V30 12 N 10.318215 7.217395 -10.212759 0 CFG=1 CHG=1
M  V30 13 C 9.688639 7.429779 -11.543999 0
M  V30 14 C 9.020036 6.225896 -12.126422 0
M  V30 15 C 9.510333 5.305841 -13.017508 0
M  V30 16 C 8.434900 4.403179 -13.320926 0
M  V30 17 C 8.285207 3.284191 -14.174564 0
M  V30 18 C 7.065630 2.578878 -14.246144 0
M  V30 19 C 5.973409 2.973068 -13.446570 0
M  V30 20 C 6.087023 4.092144 -12.602297 0
M  V30 21 C 7.301014 4.795856 -12.549918 0
M  V30 22 N 7.697173 5.916114 -11.847484 0
M  V30 23 C 11.015944 8.464121 -9.786306 0
M  V30 24 C 11.538390 8.411346 -8.339992 0
M  V30 25 H 8.623492 8.673757 -6.976356 0
M  V30 26 H 11.173138 5.990202 -5.551281 0
M  V30 27 H 12.018370 6.233225 -3.257497 0
M  V30 28 H 11.686292 10.516840 -3.555073 0
M  V30 29 H 10.890368 10.301296 -5.883324 0
M  V30 30 H 10.683068 5.918522 -7.709117 0
M  V30 31 H 9.104372 6.342739 -7.086061 0
M  V30 32 H 9.009901 5.702507 -9.475048 0
M  V30 33 H 8.485602 7.352995 -9.232621 0
M  V30 34 H 8.960402 8.240594 -11.474376 0
M  V30 35 H 10.453322 7.772771 -12.242051 0
M  V30 36 H 10.502221 5.271487 -13.444263 0
M  V30 37 H 9.121804 2.961960 -14.776634 0
M  V30 38 H 6.973974 1.722167 -14.898133 0
M  V30 39 H 5.046312 2.420069 -13.483575 0
M  V30 40 H 5.257063 4.406348 -11.987641 0
M  V30 41 H 7.108232 6.480416 -11.229568 0
M  V30 42 H 11.847119 8.662754 -10.464563 0
M  V30 43 H 10.337030 9.313894 -9.883993 0
M  V30 44 H 11.978140 9.372555 -8.084355 0
M  V30 45 H 12.352598 7.689520 -8.266082 0
M  V30 46 H 11.020596 6.501740 -10.324590 0
M  V30 END ATOM
M  V30 BEGIN BOND
M  V30 1 1 2 1 CFG=1
M  V30 2 1 3 2
M  V30 3 1 4 3
M  V30 4 2 5 4
M  V30 5 1 6 5
M  V30 6 1 7 6
M  V30 7 2 8 6
M  V30 8 2 9 3
M  V30 9 1 9 8
M  V30 10 1 10 2
M  V30 11 1 11 10
M  V30 12 1 12 11
M  V30 13 1 13 12
M  V30 14 1 14 13
M  V30 15 2 15 14
M  V30 16 1 16 15
M  V30 17 2 17 16
M  V30 18 1 18 17
M  V30 19 2 19 18
M  V30 20 1 20 19
M  V30 21 1 21 16
M  V30 22 2 21 20
M  V30 23 1 22 14
M  V30 24 1 22 21
M  V30 25 1 23 12
M  V30 26 1 24 2
M  V30 27 1 24 23
M  V30 28 1 25 1
M  V30 29 1 26 4
M  V30 30 1 27 5
M  V30 31 1 28 8
M  V30 32 1 29 9
M  V30 33 1 30 10
M  V30 34 1 31 10
M  V30 35 1 32 11
M  V30 36 1 33 11
M  V30 37 1 34 13
M  V30 38 1 35 13
M  V30 39 1 36 15
M  V30 40 1 37 17
M  V30 41 1 38 18
M  V30 42 1 39 19
M  V30 43 1 40 20
M  V30 44 1 41 22
M  V30 45 1 42 23
M  V30 46 1 43 23
M  V30 47 1 44 24
M  V30 48 1 45 24
M  V30 49 1 12 46 CFG=3
M  V30 END BOND
M  V30 END CTAB
M  END
>  <b_m_subgroup_collapsed>  (230) 
0

>  <r_i_docking_score>  (230) 
-8.7654402651574497

>  <s_m_subgroup_title>  (230) 
glide-dock_SP_D22_pv

>  <s_m_subgroupid>  (230) 
glide-dock_SP_D22_pv

>  <Molecule ChEMBL ID>  (230) 
CHEMBL246856

>  <Standard Type>  (230) 
Ki

>  <Standard Value>  (230) 
10000.0

>  <label>  (230) 
0

$$$$
CHEMBL2094011
     RDKit          3D

  0  0  0  0  0  0  0  0  0  0999 V3000
M  V30 BEGIN CTAB
M  V30 COUNTS 62 67 0 0 1
M  V30 BEGIN ATOM
M  V30 1 O 3.868627 -0.781695 -13.855932 0
M  V30 2 C 4.847218 -0.291819 -14.416569 0
M  V30 3 C 5.572530 0.942683 -13.884712 0
M  V30 4 C 6.616686 1.146711 -14.964487 0
M  V30 5 C 6.475462 0.133452 -15.909794 0
M  V30 6 C 7.292373 0.049251 -17.044992 0
M  V30 7 C 8.282312 1.038031 -17.211178 0
M  V30 8 C 8.435502 2.074337 -16.261246 0
M  V30 9 C 7.601778 2.163505 -15.113847 0
M  V30 10 N 7.803772 3.240665 -14.218622 0
M  V30 11 C 9.135913 3.256423 -13.605280 0
M  V30 12 C 9.374623 4.483254 -12.695299 0
M  V30 13 N 8.223598 4.722894 -11.786432 0 CHG=1
M  V30 14 C 8.396145 5.830988 -10.817224 0
M  V30 15 C 9.523353 5.631302 -9.790419 0
M  V30 16 C 9.630274 6.819279 -8.812140 0 CFG=2
M  V30 17 C 10.252641 8.065069 -9.495607 0
M  V30 18 C 10.310999 9.294148 -8.575912 0
M  V30 19 C 10.700256 8.916549 -7.187179 0
M  V30 20 N 11.014087 9.804663 -6.173555 0
M  V30 21 C 11.349887 9.115655 -5.021704 0
M  V30 22 C 11.718224 9.531300 -3.727724 0
M  V30 23 C 12.097420 8.575158 -2.769025 0
M  V30 24 C 12.085588 7.209488 -3.106004 0
M  V30 25 F 12.485186 6.283750 -2.206064 0
M  V30 26 C 11.653243 6.805295 -4.380648 0
M  V30 27 C 11.264687 7.735044 -5.365844 0
M  V30 28 C 10.773047 7.639171 -6.710261 0
M  V30 29 C 10.396281 6.434182 -7.518529 0
M  V30 30 C 6.984440 4.908028 -12.569462 0
M  V30 31 C 6.685506 3.642006 -13.365397 0
M  V30 32 N 5.419946 -0.711833 -15.549526 0
M  V30 33 H 6.016034 0.738734 -12.911557 0
M  V30 34 H 4.867466 1.767184 -13.836197 0
M  V30 35 H 7.167849 -0.744971 -17.769688 0
M  V30 36 H 8.932041 1.004239 -18.075270 0
M  V30 37 H 9.193772 2.822512 -16.436804 0
M  V30 38 H 9.285525 2.333713 -13.047068 0
M  V30 39 H 9.904284 3.258305 -14.380013 0
M  V30 40 H 10.288883 4.312894 -12.132425 0
M  V30 41 H 9.540394 5.373587 -13.302713 0
M  V30 42 H 8.498354 6.768326 -11.359811 0
M  V30 43 H 7.472204 5.881877 -10.246010 0
M  V30 44 H 9.335479 4.712616 -9.231810 0
M  V30 45 H 10.485481 5.507033 -10.279109 0
M  V30 46 H 8.621654 7.097567 -8.499041 0
M  V30 47 H 11.271125 7.813903 -9.797953 0
M  V30 48 H 9.723110 8.337716 -10.406979 0
M  V30 49 H 9.331322 9.772294 -8.551361 0
M  V30 50 H 11.021866 10.004508 -9.000222 0
M  V30 51 H 11.007334 10.808254 -6.288211 0
M  V30 52 H 11.723233 10.573839 -3.463068 0
M  V30 53 H 12.402247 8.888617 -1.781142 0
M  V30 54 H 11.625451 5.761639 -4.623935 0
M  V30 55 H 9.771388 5.772216 -6.919322 0
M  V30 56 H 11.286388 5.863841 -7.772386 0
M  V30 57 H 6.140347 5.123834 -11.911956 0
M  V30 58 H 7.091911 5.763220 -13.234921 0
M  V30 59 H 5.791467 3.791730 -13.970461 0
M  V30 60 H 6.485119 2.861154 -12.638781 0
M  V30 61 H 5.135279 -1.516067 -16.091000 0
M  V30 62 H 8.095484 3.884815 -11.241192 0
M  V30 END ATOM
M  V30 BEGIN BOND
M  V30 1 2 2 1
M  V30 2 1 3 2
M  V30 3 1 4 3
M  V30 4 2 5 4
M  V30 5 1 6 5
M  V30 6 2 7 6
M  V30 7 1 8 7
M  V30 8 1 9 4
M  V30 9 2 9 8
M  V30 10 1 10 9
M  V30 11 1 11 10
M  V30 12 1 12 11
M  V30 13 1 13 12
M  V30 14 1 14 13
M  V30 15 1 15 14
M  V30 16 1 16 15
M  V30 17 1 17 16
M  V30 18 1 18 17
M  V30 19 1 19 18
M  V30 20 1 20 19
M  V30 21 1 21 20
M  V30 22 1 22 21
M  V30 23 2 23 22
M  V30 24 1 24 23
M  V30 25 1 25 24
M  V30 26 2 26 24
M  V30 27 2 27 21
M  V30 28 1 27 26
M  V30 29 2 28 19
M  V30 30 1 28 27
M  V30 31 1 29 16
M  V30 32 1 29 28
M  V30 33 1 30 13
M  V30 34 1 31 10
M  V30 35 1 31 30
M  V30 36 1 32 2
M  V30 37 1 32 5
M  V30 38 1 33 3
M  V30 39 1 34 3
M  V30 40 1 35 6
M  V30 41 1 36 7
M  V30 42 1 37 8
M  V30 43 1 38 11
M  V30 44 1 39 11
M  V30 45 1 40 12
M  V30 46 1 41 12
M  V30 47 1 42 14
M  V30 48 1 43 14
M  V30 49 1 44 15
M  V30 50 1 45 15
M  V30 51 1 16 46 CFG=1
M  V30 52 1 47 17
M  V30 53 1 48 17
M  V30 54 1 49 18
M  V30 55 1 50 18
M  V30 56 1 51 20
M  V30 57 1 52 22
M  V30 58 1 53 23
M  V30 59 1 54 26
M  V30 60 1 55 29
M  V30 61 1 56 29
M  V30 62 1 57 30
M  V30 63 1 58 30
M  V30 64 1 59 31
M  V30 65 1 60 31
M  V30 66 1 61 32
M  V30 67 1 62 13
M  V30 END BOND
M  V30 END CTAB
M  END
>  <b_m_subgroup_collapsed>  (231) 
0

>  <r_i_docking_score>  (231) 
-8.7619978224385502

>  <s_m_subgroup_title>  (231) 
glide-dock_SP_D22_pv

>  <s_m_subgroupid>  (231) 
glide-dock_SP_D22_pv

>  <Molecule ChEMBL ID>  (231) 
CHEMBL2094011

>  <Standard Type>  (231) 
Ki

>  <Standard Value>  (231) 
15.0

>  <label>  (231) 
1

$$$$
CHEMBL2112210
     RDKit          3D

  0  0  0  0  0  0  0  0  0  0999 V3000
M  V30 BEGIN CTAB
M  V30 COUNTS 66 70 0 0 1
M  V30 BEGIN ATOM
M  V30 1 N 3.285999 -1.027505 -13.847153 0
M  V30 2 C 4.001699 -0.789503 -14.723302 0
M  V30 3 C 4.908568 -0.467422 -15.808480 0
M  V30 4 C 4.524369 -0.630819 -17.155754 0
M  V30 5 C 5.356617 -0.139939 -18.186110 0
M  V30 6 C 6.574488 0.505560 -17.881880 0
M  V30 7 C 6.985018 0.581209 -16.525938 0
M  V30 8 C 6.154838 0.104224 -15.495716 0
M  V30 9 C 8.271968 1.292470 -16.210743 0 CFG=1
M  V30 10 C 9.208415 0.774314 -15.122578 0
M  V30 11 N 10.460675 1.539022 -15.382659 0 CFG=2 CHG=1
M  V30 12 C 10.792426 2.565665 -14.360125 0
M  V30 13 C 9.664802 3.591056 -14.072764 0
M  V30 14 C 9.946946 4.433160 -12.823003 0
M  V30 15 C 8.753715 5.310616 -12.405181 0
M  V30 16 N 9.012884 5.926507 -11.111834 0
M  V30 17 C 9.691193 7.067312 -10.922514 0
M  V30 18 O 10.086390 7.772506 -11.849697 0
M  V30 19 C 10.071795 7.367505 -9.499879 0
M  V30 20 C 11.232205 8.124633 -9.225390 0
M  V30 21 C 11.622325 8.377641 -7.896499 0
M  V30 22 C 10.863050 7.876033 -6.818035 0
M  V30 23 C 11.284925 8.106951 -5.432732 0
M  V30 24 C 11.299822 9.412559 -4.898839 0
M  V30 25 C 11.687921 9.631125 -3.565238 0
M  V30 26 C 12.087821 8.550932 -2.759612 0
M  V30 27 N 12.486801 8.786266 -1.449286 0
M  V30 28 C 12.085298 7.243876 -3.282191 0
M  V30 29 C 11.676532 7.026036 -4.611980 0
M  V30 30 C 9.685644 7.150488 -7.091275 0
M  V30 31 C 9.286528 6.905998 -8.418307 0
M  V30 32 C 10.403945 2.033280 -16.790333 0
M  V30 33 C 9.196792 1.310485 -17.398643 0 CFG=2
M  V30 34 C 8.439775 1.891940 -18.595512 0
M  V30 35 O 7.325032 1.043756 -18.918222 0
M  V30 36 H 3.571018 -1.079485 -17.401711 0
M  V30 37 H 5.035673 -0.227579 -19.213881 0
M  V30 38 H 6.449464 0.227164 -14.463304 0
M  V30 39 H 7.975843 2.315983 -15.971807 0
M  V30 40 H 8.816158 0.886976 -14.111398 0
M  V30 41 H 9.408003 -0.288242 -15.269010 0
M  V30 42 H 11.031849 2.024659 -13.446881 0
M  V30 43 H 11.707946 3.083606 -14.652095 0
M  V30 44 H 9.515326 4.249284 -14.930249 0
M  V30 45 H 8.713587 3.086709 -13.903467 0
M  V30 46 H 10.184931 3.766737 -11.993812 0
M  V30 47 H 10.829576 5.052723 -12.991504 0
M  V30 48 H 8.542636 6.067451 -13.162983 0
M  V30 49 H 7.851668 4.705339 -12.306702 0
M  V30 50 H 8.697013 5.431066 -10.290125 0
M  V30 51 H 11.842155 8.504759 -10.033803 0
M  V30 52 H 12.521301 8.946109 -7.704859 0
M  V30 53 H 10.999731 10.250961 -5.512038 0
M  V30 54 H 11.683954 10.629287 -3.155610 0
M  V30 55 H 12.957268 8.050591 -0.946620 0
M  V30 56 H 12.788702 9.719959 -1.200123 0
M  V30 57 H 12.381401 6.404537 -2.669284 0
M  V30 58 H 11.667016 6.019892 -5.007261 0
M  V30 59 H 9.076827 6.781220 -6.277977 0
M  V30 60 H 8.366897 6.363046 -8.589098 0
M  V30 61 H 10.255207 3.113675 -16.822569 0
M  V30 62 H 11.328878 1.812814 -17.324097 0
M  V30 63 H 9.491928 0.287550 -17.650721 0
M  V30 64 H 8.087883 2.901879 -18.381046 0
M  V30 65 H 9.093767 1.956779 -19.463844 0
M  V30 66 H 11.213620 0.866371 -15.347651 0
M  V30 END ATOM
M  V30 BEGIN BOND
M  V30 1 3 2 1
M  V30 2 1 3 2
M  V30 3 1 4 3
M  V30 4 2 5 4
M  V30 5 1 6 5
M  V30 6 2 7 6
M  V30 7 2 8 3
M  V30 8 1 8 7
M  V30 9 1 9 7
M  V30 10 1 10 9
M  V30 11 1 11 10
M  V30 12 1 12 11
M  V30 13 1 13 12
M  V30 14 1 14 13
M  V30 15 1 15 14
M  V30 16 1 16 15
M  V30 17 1 17 16
M  V30 18 2 18 17
M  V30 19 1 19 17
M  V30 20 1 20 19
M  V30 21 2 21 20
M  V30 22 1 22 21
M  V30 23 1 23 22
M  V30 24 1 24 23
M  V30 25 2 25 24
M  V30 26 1 26 25
M  V30 27 1 27 26
M  V30 28 2 28 26
M  V30 29 2 29 23
M  V30 30 1 29 28
M  V30 31 2 30 22
M  V30 32 2 31 19
M  V30 33 1 31 30
M  V30 34 1 32 11
M  V30 35 1 33 9
M  V30 36 1 33 32
M  V30 37 1 34 33
M  V30 38 1 35 6
M  V30 39 1 35 34
M  V30 40 1 36 4
M  V30 41 1 37 5
M  V30 42 1 38 8
M  V30 43 1 9 39 CFG=1
M  V30 44 1 40 10
M  V30 45 1 41 10
M  V30 46 1 42 12
M  V30 47 1 43 12
M  V30 48 1 44 13
M  V30 49 1 45 13
M  V30 50 1 46 14
M  V30 51 1 47 14
M  V30 52 1 48 15
M  V30 53 1 49 15
M  V30 54 1 50 16
M  V30 55 1 51 20
M  V30 56 1 52 21
M  V30 57 1 53 24
M  V30 58 1 54 25
M  V30 59 1 55 27
M  V30 60 1 56 27
M  V30 61 1 57 28
M  V30 62 1 58 29
M  V30 63 1 59 30
M  V30 64 1 60 31
M  V30 65 1 61 32
M  V30 66 1 62 32
M  V30 67 1 33 63 CFG=3
M  V30 68 1 64 34
M  V30 69 1 65 34
M  V30 70 1 11 66 CFG=3
M  V30 END BOND
M  V30 END CTAB
M  END
>  <b_m_subgroup_collapsed>  (232) 
0

>  <r_i_docking_score>  (232) 
-8.75969625543466

>  <s_m_subgroup_title>  (232) 
glide-dock_SP_D22_pv

>  <s_m_subgroupid>  (232) 
glide-dock_SP_D22_pv

>  <Molecule ChEMBL ID>  (232) 
CHEMBL2112210

>  <Standard Type>  (232) 
Ki

>  <Standard Value>  (232) 
19.95

>  <label>  (232) 
1

$$$$
CHEMBL5417227
     RDKit          3D

  0  0  0  0  0  0  0  0  0  0999 V3000
M  V30 BEGIN CTAB
M  V30 COUNTS 53 56 0 0 1
M  V30 BEGIN ATOM
M  V30 1 C 3.264670 -0.628070 -15.448625 0
M  V30 2 C 3.819948 -0.817590 -14.033731 0
M  V30 3 O 4.485520 0.351522 -13.560648 0
M  V30 4 C 5.722211 0.671996 -14.084311 0
M  V30 5 C 6.502849 -0.201885 -14.880733 0
M  V30 6 C 7.748938 0.216261 -15.387663 0
M  V30 7 C 8.241770 1.506298 -15.112756 0
M  V30 8 C 7.498718 2.402231 -14.314995 0
M  V30 9 C 7.676296 3.735895 -13.824158 0
M  V30 10 C 6.572355 4.011421 -13.048537 0
M  V30 11 C 6.184208 5.222669 -12.249595 0
M  V30 12 N 7.300037 5.772301 -11.447444 0 CHG=1
M  V30 13 C 8.204962 6.701361 -12.161127 0
M  V30 14 C 9.510635 6.977842 -11.389690 0
M  V30 15 C 9.349889 7.824095 -10.110583 0
M  V30 16 C 10.697870 8.368474 -9.601710 0
M  V30 17 O 10.535752 9.148274 -8.418797 0
M  V30 18 C 10.833402 8.592251 -7.192880 0
M  V30 19 C 10.912984 7.200845 -6.961220 0
M  V30 20 C 11.286003 6.719668 -5.695641 0
M  V30 21 C 11.567053 7.606613 -4.649195 0
M  V30 22 S 12.086173 7.241693 -3.003920 0
M  V30 23 C 12.086017 8.974936 -2.695541 0
M  V30 24 N 11.716722 9.772460 -3.702078 0
M  V30 25 C 11.447634 9.011688 -4.833500 0
M  V30 26 C 11.076777 9.476510 -6.118001 0
M  V30 27 O 5.687742 2.958483 -13.046976 0
M  V30 28 C 6.248253 1.953981 -13.818651 0
M  V30 29 H 2.827329 -1.553953 -15.821982 0
M  V30 30 H 2.487109 0.133569 -15.445775 0
M  V30 31 H 4.034007 -0.324857 -16.158371 0
M  V30 32 H 4.462929 -1.693634 -13.974482 0
M  V30 33 H 2.985717 -1.020540 -13.361470 0
M  V30 34 H 6.178356 -1.201799 -15.125536 0
M  V30 35 H 8.329457 -0.464654 -15.993740 0
M  V30 36 H 9.201850 1.807903 -15.504741 0
M  V30 37 H 8.534321 4.355284 -14.031920 0
M  V30 38 H 5.386993 4.953449 -11.555020 0
M  V30 39 H 5.769969 5.994387 -12.899610 0
M  V30 40 H 7.808564 5.018575 -11.010574 0
M  V30 41 H 7.675510 7.636618 -12.349128 0
M  V30 42 H 8.461089 6.300876 -13.138475 0
M  V30 43 H 10.179177 7.511801 -12.066013 0
M  V30 44 H 10.015638 6.039538 -11.154428 0
M  V30 45 H 8.862329 7.235657 -9.332652 0
M  V30 46 H 8.693419 8.672166 -10.310045 0
M  V30 47 H 11.112657 9.036242 -10.357866 0
M  V30 48 H 11.440640 7.577172 -9.490702 0
M  V30 49 H 10.701762 6.484181 -7.740382 0
M  V30 50 H 11.388021 5.669678 -5.519521 0
M  V30 51 H 12.347065 9.416162 -1.744010 0
M  V30 52 H 11.001107 10.540486 -6.282905 0
M  V30 53 H 6.885773 6.368458 -10.721565 0
M  V30 END ATOM
M  V30 BEGIN BOND
M  V30 1 1 2 1
M  V30 2 1 3 2
M  V30 3 1 4 3
M  V30 4 1 5 4
M  V30 5 2 6 5
M  V30 6 1 7 6
M  V30 7 2 8 7
M  V30 8 1 9 8
M  V30 9 2 10 9
M  V30 10 1 11 10
M  V30 11 1 12 11
M  V30 12 1 13 12
M  V30 13 1 14 13
M  V30 14 1 15 14
M  V30 15 1 16 15
M  V30 16 1 17 16
M  V30 17 1 18 17
M  V30 18 2 19 18
M  V30 19 1 20 19
M  V30 20 2 21 20
M  V30 21 1 22 21
M  V30 22 1 23 22
M  V30 23 2 24 23
M  V30 24 1 25 21
M  V30 25 1 25 24
M  V30 26 1 26 18
M  V30 27 2 26 25
M  V30 28 1 27 10
M  V30 29 2 28 4
M  V30 30 1 28 8
M  V30 31 1 28 27
M  V30 32 1 29 1
M  V30 33 1 30 1
M  V30 34 1 31 1
M  V30 35 1 32 2
M  V30 36 1 33 2
M  V30 37 1 34 5
M  V30 38 1 35 6
M  V30 39 1 36 7
M  V30 40 1 37 9
M  V30 41 1 38 11
M  V30 42 1 39 11
M  V30 43 1 40 12
M  V30 44 1 41 13
M  V30 45 1 42 13
M  V30 46 1 43 14
M  V30 47 1 44 14
M  V30 48 1 45 15
M  V30 49 1 46 15
M  V30 50 1 47 16
M  V30 51 1 48 16
M  V30 52 1 49 19
M  V30 53 1 50 20
M  V30 54 1 51 23
M  V30 55 1 52 26
M  V30 56 1 53 12
M  V30 END BOND
M  V30 END CTAB
M  END
>  <b_m_subgroup_collapsed>  (233) 
0

>  <r_i_docking_score>  (233) 
-8.7584683284850993

>  <s_m_subgroup_title>  (233) 
glide-dock_SP_D22_pv

>  <s_m_subgroupid>  (233) 
glide-dock_SP_D22_pv

>  <Molecule ChEMBL ID>  (233) 
CHEMBL5417227

>  <Standard Type>  (233) 
Ki

>  <Standard Value>  (233) 
30.2

>  <label>  (233) 
1

$$$$
CHEMBL3485708
     RDKit          3D

  0  0  0  0  0  0  0  0  0  0999 V3000
M  V30 BEGIN CTAB
M  V30 COUNTS 47 49 0 0 1
M  V30 BEGIN ATOM
M  V30 1 C 6.859394 1.720422 -14.893573 0
M  V30 2 C 7.171027 2.972878 -14.101118 0
M  V30 3 C 6.150949 3.647143 -13.396430 0
M  V30 4 C 6.452371 4.800742 -12.645877 0
M  V30 5 C 7.773058 5.288031 -12.601281 0
M  V30 6 N 8.085969 6.424944 -11.846957 0
M  V30 7 C 9.384194 6.907701 -11.741420 0
M  V30 8 C 9.588817 8.069323 -10.779478 0
M  V30 9 N 8.886044 7.863827 -9.493022 0 CHG=1
M  V30 10 C 9.291718 6.673395 -8.709160 0
M  V30 11 C 10.393135 7.008054 -7.692822 0
M  V30 12 C 9.821932 7.542911 -6.369895 0
M  V30 13 N 10.886171 7.941488 -5.455614 0
M  V30 14 C 11.469256 6.976827 -4.537426 0
M  V30 15 C 12.311762 7.818261 -3.567844 0
M  V30 16 C 12.425565 9.209047 -4.205619 0
M  V30 17 C 11.384809 9.175053 -5.309826 0
M  V30 18 O 11.059351 10.171329 -5.953191 0
M  V30 19 C 10.408509 6.329505 -12.401311 0
M  V30 20 C 10.196749 5.139022 -13.251529 0
M  V30 21 O 11.132649 4.609424 -13.850408 0
M  V30 22 C 8.799662 4.621672 -13.314634 0
M  V30 23 C 8.491888 3.464134 -14.062455 0
M  V30 24 H 7.702538 1.028751 -14.873902 0
M  V30 25 H 5.995357 1.201440 -14.478258 0
M  V30 26 H 6.644695 1.975224 -15.931839 0
M  V30 27 H 5.136481 3.277865 -13.423864 0
M  V30 28 H 5.670276 5.303461 -12.096324 0
M  V30 29 H 10.651842 8.224351 -10.588695 0
M  V30 30 H 9.209749 8.974385 -11.251485 0
M  V30 31 H 8.983419 8.684215 -8.914324 0
M  V30 32 H 8.414313 6.285732 -8.188990 0
M  V30 33 H 9.621948 5.867060 -9.364341 0
M  V30 34 H 10.956272 6.097963 -7.476607 0
M  V30 35 H 11.111538 7.708787 -8.120812 0
M  V30 36 H 9.153748 8.386837 -6.553317 0
M  V30 37 H 9.213777 6.773626 -5.893049 0
M  V30 38 H 10.712352 6.390657 -4.016589 0
M  V30 39 H 12.086028 6.278431 -5.102565 0
M  V30 40 H 13.287390 7.369154 -3.389160 0
M  V30 41 H 11.806591 7.895597 -2.604057 0
M  V30 42 H 13.406647 9.374753 -4.649691 0
M  V30 43 H 12.220539 10.005941 -3.489485 0
M  V30 44 H 11.416941 6.703052 -12.301276 0
M  V30 45 H 9.271323 2.942868 -14.599268 0
M  V30 46 H 7.329935 6.876617 -11.323462 0
M  V30 47 H 7.885762 7.772587 -9.725794 0
M  V30 END ATOM
M  V30 BEGIN BOND
M  V30 1 1 2 1
M  V30 2 2 3 2
M  V30 3 1 4 3
M  V30 4 2 5 4
M  V30 5 1 6 5
M  V30 6 1 7 6
M  V30 7 1 8 7
M  V30 8 1 9 8
M  V30 9 1 10 9
M  V30 10 1 11 10
M  V30 11 1 12 11
M  V30 12 1 13 12
M  V30 13 1 14 13
M  V30 14 1 15 14
M  V30 15 1 16 15
M  V30 16 1 17 13
M  V30 17 1 17 16
M  V30 18 2 18 17
M  V30 19 2 19 7
M  V30 20 1 20 19
M  V30 21 2 21 20
M  V30 22 1 22 5
M  V30 23 1 22 20
M  V30 24 1 23 2
M  V30 25 2 23 22
M  V30 26 1 24 1
M  V30 27 1 25 1
M  V30 28 1 26 1
M  V30 29 1 27 3
M  V30 30 1 28 4
M  V30 31 1 29 8
M  V30 32 1 30 8
M  V30 33 1 31 9
M  V30 34 1 32 10
M  V30 35 1 33 10
M  V30 36 1 34 11
M  V30 37 1 35 11
M  V30 38 1 36 12
M  V30 39 1 37 12
M  V30 40 1 38 14
M  V30 41 1 39 14
M  V30 42 1 40 15
M  V30 43 1 41 15
M  V30 44 1 42 16
M  V30 45 1 43 16
M  V30 46 1 44 19
M  V30 47 1 45 23
M  V30 48 1 46 6
M  V30 49 1 47 9
M  V30 END BOND
M  V30 END CTAB
M  END
>  <b_m_subgroup_collapsed>  (234) 
0

>  <r_i_docking_score>  (234) 
-8.7520580448893401

>  <s_m_subgroup_title>  (234) 
glide-dock_SP_D22_pv

>  <s_m_subgroupid>  (234) 
glide-dock_SP_D22_pv

>  <Molecule ChEMBL ID>  (234) 
CHEMBL3485708

>  <Standard Type>  (234) 
Ki

>  <Standard Value>  (234) 
10000.0

>  <label>  (234) 
0

$$$$
CHEMBL370128
     RDKit          3D

  0  0  0  0  0  0  0  0  0  0999 V3000
M  V30 BEGIN CTAB
M  V30 COUNTS 62 65 0 0 1
M  V30 BEGIN ATOM
M  V30 1 C 7.583448 2.233163 -15.038127 0
M  V30 2 O 8.666813 3.153754 -15.046568 0
M  V30 3 C 8.796898 4.027699 -13.983905 0
M  V30 4 C 7.799011 4.172462 -12.985539 0
M  V30 5 C 7.955373 5.091500 -11.933312 0
M  V30 6 C 9.112683 5.883722 -11.846733 0
M  V30 7 N 9.200800 6.789781 -10.753175 0
M  V30 8 C 10.296490 7.344215 -10.202550 0
M  V30 9 O 11.393569 7.395992 -10.763806 0
M  V30 10 N 10.063303 7.959329 -9.023287 0
M  V30 11 C 11.015237 8.944724 -8.503231 0
M  V30 12 C 11.913237 8.267465 -7.460756 0
M  V30 13 N 11.066480 7.719333 -6.406522 0
M  V30 14 C 11.441517 7.885792 -5.060820 0
M  V30 15 C 11.683888 6.763678 -4.243644 0
M  V30 16 C 12.086303 6.922407 -2.903507 0
M  V30 17 C 12.267033 8.210406 -2.370018 0
M  V30 18 C 12.027063 9.338293 -3.175258 0
M  V30 19 C 11.607478 9.177287 -4.509971 0
M  V30 20 Cl 11.235125 10.572343 -5.447047 0
M  V30 21 C 9.989791 6.818698 -6.805468 0
M  V30 22 C 9.170737 7.439571 -7.966024 0
M  V30 23 C 10.101964 5.757645 -12.850158 0
M  V30 24 C 9.963345 4.838189 -13.916919 0
M  V30 25 N 10.971315 4.733766 -14.904880 0
M  V30 26 C 11.642713 3.441296 -15.014160 0
M  V30 27 C 12.320371 3.308645 -16.389961 0
M  V30 28 N 13.236778 4.450791 -16.646784 0 CHG=1
M  V30 29 C 13.967348 4.314971 -17.924828 0
M  V30 30 C 12.547361 5.758489 -16.513081 0
M  V30 31 C 11.848516 5.880026 -15.147484 0
M  V30 32 H 7.659915 1.583183 -15.909847 0
M  V30 33 H 7.603132 1.598738 -14.150658 0
M  V30 34 H 6.623046 2.745462 -15.093170 0
M  V30 35 H 6.889807 3.590529 -13.000562 0
M  V30 36 H 7.181507 5.183154 -11.182560 0
M  V30 37 H 8.333186 6.946520 -10.250801 0
M  V30 38 H 10.459832 9.759336 -8.044032 0
M  V30 39 H 11.619879 9.395953 -9.291965 0
M  V30 40 H 12.645813 8.974655 -7.073508 0
M  V30 41 H 12.479112 7.456192 -7.918245 0
M  V30 42 H 11.560269 5.774563 -4.650685 0
M  V30 43 H 12.264610 6.051503 -2.289145 0
M  V30 44 H 12.575858 8.338622 -1.343229 0
M  V30 45 H 12.141966 10.327382 -2.757979 0
M  V30 46 H 10.428675 5.872444 -7.123145 0
M  V30 47 H 9.335930 6.601742 -5.959592 0
M  V30 48 H 8.564937 8.263711 -7.588847 0
M  V30 49 H 8.464270 6.695541 -8.335094 0
M  V30 50 H 10.981454 6.374170 -12.812440 0
M  V30 51 H 12.388985 3.379171 -14.223015 0
M  V30 52 H 10.962433 2.605990 -14.855477 0
M  V30 53 H 12.869263 2.367454 -16.438467 0
M  V30 54 H 11.557896 3.268039 -17.169514 0
M  V30 55 H 13.284204 4.347802 -18.775753 0
M  V30 56 H 14.695805 5.119264 -18.036707 0
M  V30 57 H 14.511395 3.370059 -17.958437 0
M  V30 58 H 13.266718 6.570112 -16.631716 0
M  V30 59 H 11.812081 5.865763 -17.314125 0
M  V30 60 H 11.286207 6.812271 -15.116175 0
M  V30 61 H 12.598197 5.930618 -14.354603 0
M  V30 62 H 13.933232 4.415370 -15.915378 0
M  V30 END ATOM
M  V30 BEGIN BOND
M  V30 1 1 2 1
M  V30 2 1 3 2
M  V30 3 1 4 3
M  V30 4 2 5 4
M  V30 5 1 6 5
M  V30 6 1 7 6
M  V30 7 1 8 7
M  V30 8 2 9 8
M  V30 9 1 10 8
M  V30 10 1 11 10
M  V30 11 1 12 11
M  V30 12 1 13 12
M  V30 13 1 14 13
M  V30 14 2 15 14
M  V30 15 1 16 15
M  V30 16 2 17 16
M  V30 17 1 18 17
M  V30 18 1 19 14
M  V30 19 2 19 18
M  V30 20 1 20 19
M  V30 21 1 21 13
M  V30 22 1 22 10
M  V30 23 1 22 21
M  V30 24 2 23 6
M  V30 25 2 24 3
M  V30 26 1 24 23
M  V30 27 1 25 24
M  V30 28 1 26 25
M  V30 29 1 27 26
M  V30 30 1 28 27
M  V30 31 1 29 28
M  V30 32 1 30 28
M  V30 33 1 31 25
M  V30 34 1 31 30
M  V30 35 1 32 1
M  V30 36 1 33 1
M  V30 37 1 34 1
M  V30 38 1 35 4
M  V30 39 1 36 5
M  V30 40 1 37 7
M  V30 41 1 38 11
M  V30 42 1 39 11
M  V30 43 1 40 12
M  V30 44 1 41 12
M  V30 45 1 42 15
M  V30 46 1 43 16
M  V30 47 1 44 17
M  V30 48 1 45 18
M  V30 49 1 46 21
M  V30 50 1 47 21
M  V30 51 1 48 22
M  V30 52 1 49 22
M  V30 53 1 50 23
M  V30 54 1 51 26
M  V30 55 1 52 26
M  V30 56 1 53 27
M  V30 57 1 54 27
M  V30 58 1 55 29
M  V30 59 1 56 29
M  V30 60 1 57 29
M  V30 61 1 58 30
M  V30 62 1 59 30
M  V30 63 1 60 31
M  V30 64 1 61 31
M  V30 65 1 62 28
M  V30 END BOND
M  V30 END CTAB
M  END
>  <b_m_subgroup_collapsed>  (235) 
0

>  <r_i_docking_score>  (235) 
-8.7510853582038308

>  <s_m_subgroup_title>  (235) 
glide-dock_SP_D22_pv

>  <s_m_subgroupid>  (235) 
glide-dock_SP_D22_pv

>  <Molecule ChEMBL ID>  (235) 
CHEMBL370128

>  <Standard Type>  (235) 
Ki

>  <Standard Value>  (235) 
10000.0

>  <label>  (235) 
0

$$$$
CHEMBL5422870
     RDKit          3D

  0  0  0  0  0  0  0  0  0  0999 V3000
M  V30 BEGIN CTAB
M  V30 COUNTS 84 87 0 0 1
M  V30 BEGIN ATOM
M  V30 1 C 17.607380 1.159614 -20.779903 0
M  V30 2 O 16.439743 1.261755 -19.979031 0
M  V30 3 C 15.900088 0.011440 -19.581669 0
M  V30 4 C 14.941314 -0.554592 -20.646461 0
M  V30 5 O 13.683748 0.108783 -20.626375 0
M  V30 6 C 12.781391 -0.319080 -19.611032 0
M  V30 7 C 12.459553 0.836892 -18.655657 0
M  V30 8 O 11.243780 0.546416 -17.973854 0
M  V30 9 C 10.833769 1.400947 -16.970160 0
M  V30 10 C 11.576674 2.517067 -16.521406 0
M  V30 11 C 11.103705 3.301355 -15.456050 0
M  V30 12 C 9.876126 2.994811 -14.823970 0
M  V30 13 N 9.391190 3.726867 -13.707523 0
M  V30 14 C 9.632106 4.995684 -13.362679 0
M  V30 15 O 10.712587 5.571417 -13.481525 0
M  V30 16 N 8.551470 5.555991 -12.801681 0
M  V30 17 C 8.546226 6.858070 -12.153788 0
M  V30 18 C 8.954124 6.685983 -10.690292 0
M  V30 19 C 9.343636 8.005139 -10.011712 0
M  V30 20 N 10.106746 7.708048 -8.784612 0 CHG=1
M  V30 21 C 11.122369 8.727649 -8.430497 0
M  V30 22 C 12.057450 8.165971 -7.350037 0
M  V30 23 N 11.284768 7.603952 -6.235317 0
M  V30 24 C 11.659453 7.798291 -4.890281 0
M  V30 25 C 11.686066 6.712215 -3.994052 0
M  V30 26 C 12.054147 6.886338 -2.646269 0
M  V30 27 C 12.361498 8.170213 -2.164391 0
M  V30 28 C 12.297523 9.268953 -3.036579 0
M  V30 29 C 11.960567 9.083111 -4.389150 0
M  V30 30 O 11.871861 10.172256 -5.196817 0
M  V30 31 C 10.537630 10.584041 -5.397542 0
M  V30 32 C 10.158704 6.724772 -6.527773 0
M  V30 33 C 9.265896 7.324272 -7.623993 0
M  V30 34 C 9.096925 1.896808 -15.279103 0
M  V30 35 C 7.822915 1.501240 -14.623844 0
M  V30 36 C 7.601705 0.145298 -14.310846 0
M  V30 37 C 6.456151 -0.275564 -13.611157 0
M  V30 38 C 5.502440 0.669674 -13.194229 0
M  V30 39 C 5.688118 2.026692 -13.508358 0
M  V30 40 C 6.820981 2.429988 -14.245312 0
M  V30 41 C 9.599360 1.119396 -16.350214 0
M  V30 42 H 17.960985 2.159448 -21.033096 0
M  V30 43 H 18.411282 0.647788 -20.245514 0
M  V30 44 H 17.414059 0.630169 -21.712568 0
M  V30 45 H 15.371719 0.171664 -18.646948 0
M  V30 46 H 16.698887 -0.700844 -19.365847 0
M  V30 47 H 14.797708 -1.625808 -20.508558 0
M  V30 48 H 15.375716 -0.444021 -21.638365 0
M  V30 49 H 13.137166 -1.186675 -19.053785 0
M  V30 50 H 11.868787 -0.630460 -20.118557 0
M  V30 51 H 12.334909 1.762626 -19.221210 0
M  V30 52 H 13.286804 0.972019 -17.959585 0
M  V30 53 H 12.525902 2.784121 -16.960190 0
M  V30 54 H 11.718521 4.124905 -15.127166 0
M  V30 55 H 8.541243 3.339501 -13.329426 0
M  V30 56 H 7.699428 5.020471 -12.735048 0
M  V30 57 H 9.238031 7.539165 -12.646838 0
M  V30 58 H 7.553916 7.300966 -12.246428 0
M  V30 59 H 8.156178 6.177947 -10.143690 0
M  V30 60 H 9.816076 6.017967 -10.648182 0
M  V30 61 H 9.978649 8.570087 -10.694383 0
M  V30 62 H 8.486064 8.640071 -9.796023 0
M  V30 63 H 11.715293 9.005345 -9.303216 0
M  V30 64 H 10.628757 9.632216 -8.079130 0
M  V30 65 H 12.652237 7.372054 -7.797705 0
M  V30 66 H 12.759941 8.936515 -7.033144 0
M  V30 67 H 11.433670 5.731016 -4.348561 0
M  V30 68 H 12.082050 6.034251 -1.982124 0
M  V30 69 H 12.623391 8.318364 -1.127865 0
M  V30 70 H 12.486275 10.261320 -2.660124 0
M  V30 71 H 10.548820 11.369773 -6.147166 0
M  V30 72 H 9.911680 9.772113 -5.762151 0
M  V30 73 H 10.089762 10.970960 -4.481937 0
M  V30 74 H 10.560452 5.771871 -6.860146 0
M  V30 75 H 9.561584 6.539540 -5.634857 0
M  V30 76 H 8.726125 8.196451 -7.251023 0
M  V30 77 H 8.509271 6.592343 -7.910810 0
M  V30 78 H 8.323651 -0.597548 -14.620297 0
M  V30 79 H 6.319904 -1.323827 -13.391495 0
M  V30 80 H 4.628949 0.354175 -12.647134 0
M  V30 81 H 4.950916 2.754545 -13.205865 0
M  V30 82 H 6.922585 3.473791 -14.502463 0
M  V30 83 H 9.033496 0.268220 -16.699772 0
M  V30 84 H 10.642420 6.882487 -9.007729 0
M  V30 END ATOM
M  V30 BEGIN BOND
M  V30 1 1 2 1
M  V30 2 1 3 2
M  V30 3 1 4 3
M  V30 4 1 5 4
M  V30 5 1 6 5
M  V30 6 1 7 6
M  V30 7 1 8 7
M  V30 8 1 9 8
M  V30 9 1 10 9
M  V30 10 2 11 10
M  V30 11 1 12 11
M  V30 12 1 13 12
M  V30 13 1 14 13
M  V30 14 2 15 14
M  V30 15 1 16 14
M  V30 16 1 17 16
M  V30 17 1 18 17
M  V30 18 1 19 18
M  V30 19 1 20 19
M  V30 20 1 21 20
M  V30 21 1 22 21
M  V30 22 1 23 22
M  V30 23 1 24 23
M  V30 24 2 25 24
M  V30 25 1 26 25
M  V30 26 2 27 26
M  V30 27 1 28 27
M  V30 28 1 29 24
M  V30 29 2 29 28
M  V30 30 1 30 29
M  V30 31 1 31 30
M  V30 32 1 32 23
M  V30 33 1 33 20
M  V30 34 1 33 32
M  V30 35 2 34 12
M  V30 36 1 35 34
M  V30 37 2 36 35
M  V30 38 1 37 36
M  V30 39 2 38 37
M  V30 40 1 39 38
M  V30 41 1 40 35
M  V30 42 2 40 39
M  V30 43 2 41 9
M  V30 44 1 41 34
M  V30 45 1 42 1
M  V30 46 1 43 1
M  V30 47 1 44 1
M  V30 48 1 45 3
M  V30 49 1 46 3
M  V30 50 1 47 4
M  V30 51 1 48 4
M  V30 52 1 49 6
M  V30 53 1 50 6
M  V30 54 1 51 7
M  V30 55 1 52 7
M  V30 56 1 53 10
M  V30 57 1 54 11
M  V30 58 1 55 13
M  V30 59 1 56 16
M  V30 60 1 57 17
M  V30 61 1 58 17
M  V30 62 1 59 18
M  V30 63 1 60 18
M  V30 64 1 61 19
M  V30 65 1 62 19
M  V30 66 1 63 21
M  V30 67 1 64 21
M  V30 68 1 65 22
M  V30 69 1 66 22
M  V30 70 1 67 25
M  V30 71 1 68 26
M  V30 72 1 69 27
M  V30 73 1 70 28
M  V30 74 1 71 31
M  V30 75 1 72 31
M  V30 76 1 73 31
M  V30 77 1 74 32
M  V30 78 1 75 32
M  V30 79 1 76 33
M  V30 80 1 77 33
M  V30 81 1 78 36
M  V30 82 1 79 37
M  V30 83 1 80 38
M  V30 84 1 81 39
M  V30 85 1 82 40
M  V30 86 1 83 41
M  V30 87 1 84 20
M  V30 END BOND
M  V30 END CTAB
M  END
>  <b_m_subgroup_collapsed>  (236) 
0

>  <r_i_docking_score>  (236) 
-8.7491258776201093

>  <s_m_subgroup_title>  (236) 
glide-dock_SP_D22_pv

>  <s_m_subgroupid>  (236) 
glide-dock_SP_D22_pv

>  <Molecule ChEMBL ID>  (236) 
CHEMBL5422870

>  <Standard Type>  (236) 
Ki

>  <Standard Value>  (236) 
74.0

>  <label>  (236) 
1

$$$$
CHEMBL493069
     RDKit          3D

  0  0  0  0  0  0  0  0  0  0999 V3000
M  V30 BEGIN CTAB
M  V30 COUNTS 55 58 0 0 1
M  V30 BEGIN ATOM
M  V30 1 C 3.895628 -1.428295 -15.622083 0
M  V30 2 O 5.092051 -0.680718 -15.480255 0
M  V30 3 C 5.254689 0.118036 -14.411080 0
M  V30 4 O 4.485940 0.170960 -13.452312 0
M  V30 5 C 6.444779 0.988667 -14.523435 0
M  V30 6 C 7.534828 0.658363 -15.287853 0
M  V30 7 O 8.498246 1.618829 -15.214502 0
M  V30 8 C 8.002014 2.572298 -14.382983 0
M  V30 9 C 6.746057 2.265399 -13.957143 0
M  V30 10 C 6.041485 3.224190 -13.071810 0
M  V30 11 O 4.908265 3.022800 -12.646870 0
M  V30 12 C 6.778853 4.534648 -12.730958 0
M  V30 13 C 8.328249 4.416533 -12.757708 0 CFG=2
M  V30 14 C 9.039515 5.765394 -12.554206 0
M  V30 15 N 8.978053 6.388686 -11.200142 0 CFG=1 CHG=1
M  V30 16 C 9.150134 5.451763 -10.054016 0
M  V30 17 C 9.104548 6.178592 -8.697624 0
M  V30 18 C 10.089734 7.363339 -8.607471 0 CFG=2
M  V30 19 C 9.794954 8.210075 -7.363705 0
M  V30 20 O 8.843122 8.972287 -7.406563 0
M  V30 21 C 10.665678 8.132003 -6.170016 0
M  V30 22 C 11.018950 6.888760 -5.612218 0
M  V30 23 C 11.686059 6.832859 -4.373321 0
M  V30 24 C 12.045588 8.018616 -3.704368 0
M  V30 25 F 12.687808 7.960329 -2.515769 0
M  V30 26 C 11.707064 9.264776 -4.262094 0
M  V30 27 C 11.005963 9.321109 -5.482992 0
M  V30 28 C 9.916353 8.265964 -9.851378 0
M  V30 29 C 9.986623 7.479928 -11.152016 0
M  V30 30 C 8.847210 3.744384 -14.050580 0
M  V30 31 H 4.054356 -2.262667 -16.305515 0
M  V30 32 H 3.552266 -1.826957 -14.667748 0
M  V30 33 H 3.103846 -0.799879 -16.030451 0
M  V30 34 H 7.782819 -0.194067 -15.904861 0
M  V30 35 H 6.452666 5.288475 -13.447487 0
M  V30 36 H 6.444466 4.876449 -11.749559 0
M  V30 37 H 8.619961 3.737160 -11.960917 0
M  V30 38 H 10.091483 5.617609 -12.807389 0
M  V30 39 H 8.649133 6.482442 -13.275936 0
M  V30 40 H 8.346273 4.715000 -10.048843 0
M  V30 41 H 10.086459 4.903882 -10.157252 0
M  V30 42 H 9.299183 5.463866 -7.898073 0
M  V30 43 H 8.086803 6.535463 -8.536376 0
M  V30 44 H 11.113116 6.991267 -8.561666 0
M  V30 45 H 10.738930 5.969802 -6.103390 0
M  V30 46 H 11.931037 5.876403 -3.936732 0
M  V30 47 H 11.960382 10.171887 -3.735070 0
M  V30 48 H 10.714153 10.283153 -5.880544 0
M  V30 49 H 10.678510 9.046464 -9.854388 0
M  V30 50 H 8.952443 8.779232 -9.841832 0
M  V30 51 H 10.991283 7.067467 -11.268943 0
M  V30 52 H 9.826418 8.164100 -11.987357 0
M  V30 53 H 9.886480 3.434885 -13.933283 0
M  V30 54 H 8.820502 4.448479 -14.882869 0
M  V30 55 H 8.059209 6.811095 -11.078325 0
M  V30 END ATOM
M  V30 BEGIN BOND
M  V30 1 1 2 1
M  V30 2 1 3 2
M  V30 3 2 4 3
M  V30 4 1 5 3
M  V30 5 2 6 5
M  V30 6 1 7 6
M  V30 7 1 8 7
M  V30 8 1 9 5
M  V30 9 2 9 8
M  V30 10 1 10 9
M  V30 11 2 11 10
M  V30 12 1 12 10
M  V30 13 1 13 12
M  V30 14 1 14 13
M  V30 15 1 15 14
M  V30 16 1 16 15
M  V30 17 1 17 16
M  V30 18 1 18 17
M  V30 19 1 19 18
M  V30 20 2 20 19
M  V30 21 1 21 19
M  V30 22 1 22 21
M  V30 23 2 23 22
M  V30 24 1 24 23
M  V30 25 1 25 24
M  V30 26 2 26 24
M  V30 27 2 27 21
M  V30 28 1 27 26
M  V30 29 1 28 18
M  V30 30 1 29 15
M  V30 31 1 29 28
M  V30 32 1 30 8
M  V30 33 1 30 13
M  V30 34 1 31 1
M  V30 35 1 32 1
M  V30 36 1 33 1
M  V30 37 1 34 6
M  V30 38 1 35 12
M  V30 39 1 36 12
M  V30 40 1 13 37 CFG=1
M  V30 41 1 38 14
M  V30 42 1 39 14
M  V30 43 1 40 16
M  V30 44 1 41 16
M  V30 45 1 42 17
M  V30 46 1 43 17
M  V30 47 1 18 44 CFG=1
M  V30 48 1 45 22
M  V30 49 1 46 23
M  V30 50 1 47 26
M  V30 51 1 48 27
M  V30 52 1 49 28
M  V30 53 1 50 28
M  V30 54 1 51 29
M  V30 55 1 52 29
M  V30 56 1 53 30
M  V30 57 1 54 30
M  V30 58 1 15 55 CFG=1
M  V30 END BOND
M  V30 END CTAB
M  END
>  <b_m_subgroup_collapsed>  (237) 
0

>  <r_i_docking_score>  (237) 
-8.7380732554423197

>  <s_m_subgroup_title>  (237) 
glide-dock_SP_D22_pv

>  <s_m_subgroupid>  (237) 
glide-dock_SP_D22_pv

>  <Molecule ChEMBL ID>  (237) 
CHEMBL493069

>  <Standard Type>  (237) 
Ki

>  <Standard Value>  (237) 
10000.0

>  <label>  (237) 
0

$$$$
CHEMBL5750360
     RDKit          3D

  0  0  0  0  0  0  0  0  0  0999 V3000
M  V30 BEGIN CTAB
M  V30 COUNTS 60 63 0 0 1
M  V30 BEGIN ATOM
M  V30 1 O 7.935141 6.388095 -12.929948 0
M  V30 2 C 8.878325 5.770256 -12.444131 0
M  V30 3 N 9.521143 4.787952 -13.091096 0
M  V30 4 C 9.319359 4.419755 -14.490075 0 CFG=1
M  V30 5 C 10.541684 4.754128 -15.350718 0
M  V30 6 C 11.824160 4.945531 -14.779589 0
M  V30 7 C 12.929935 5.256174 -15.593851 0
M  V30 8 C 12.769740 5.369634 -16.986137 0
M  V30 9 Cl 14.131370 5.741577 -17.977390 0
M  V30 10 C 11.500240 5.178598 -17.563978 0
M  V30 11 C 10.391729 4.871917 -16.749882 0
M  V30 12 C 8.892563 2.959621 -14.596062 0
M  V30 13 C 9.837091 1.909779 -14.647119 0
M  V30 14 C 9.366204 0.583839 -14.701773 0
M  V30 15 C 7.978074 0.361822 -14.698755 0
M  V30 16 C 7.115468 1.470268 -14.647899 0
M  V30 17 N 7.557820 2.742462 -14.595767 0
M  V30 18 C 9.419487 6.133512 -11.055428 0 CFG=1
M  V30 19 C 9.460051 7.660884 -10.839499 0
M  V30 20 C 9.923663 8.016704 -9.419961 0
M  V30 21 N 9.119164 7.323414 -8.375683 0 CFG=2 CHG=1
M  V30 22 C 9.450908 7.734425 -6.982051 0
M  V30 23 C 10.967379 7.708010 -6.669968 0
M  V30 24 N 11.263767 7.961247 -5.267384 0
M  V30 25 C 11.673289 6.930872 -4.421196 0
M  V30 26 C 12.086350 7.104488 -3.151155 0
M  V30 27 C 12.129046 8.468987 -2.592428 0
M  V30 28 O 12.511078 8.686101 -1.446800 0
M  V30 29 C 11.689386 9.554851 -3.492411 0
M  V30 30 C 11.298770 9.254500 -4.748921 0
M  V30 31 C 9.096473 5.849752 -8.555702 0
M  V30 32 C 8.579751 5.472165 -9.953722 0
M  V30 33 H 10.238289 4.281178 -12.596889 0
M  V30 34 H 8.495767 5.009742 -14.900897 0
M  V30 35 H 11.984189 4.854147 -13.716456 0
M  V30 36 H 13.902631 5.405716 -15.147419 0
M  V30 37 H 11.374241 5.270684 -18.633648 0
M  V30 38 H 9.421050 4.729801 -17.204496 0
M  V30 39 H 10.899291 2.110158 -14.634747 0
M  V30 40 H 10.058446 -0.244301 -14.737751 0
M  V30 41 H 7.574535 -0.637693 -14.739082 0
M  V30 42 H 6.045976 1.331430 -14.645694 0
M  V30 43 H 10.442729 5.772098 -10.975863 0
M  V30 44 H 10.133746 8.121989 -11.564722 0
M  V30 45 H 8.486045 8.106838 -11.024098 0
M  V30 46 H 10.974752 7.740962 -9.326988 0
M  V30 47 H 9.865176 9.096111 -9.273197 0
M  V30 48 H 9.066493 8.743555 -6.826092 0
M  V30 49 H 8.907652 7.100094 -6.278414 0
M  V30 50 H 11.392004 6.745029 -6.955097 0
M  V30 51 H 11.489756 8.460059 -7.262175 0
M  V30 52 H 11.619948 5.943647 -4.857993 0
M  V30 53 H 12.380647 6.271270 -2.529047 0
M  V30 54 H 11.689440 10.570795 -3.122934 0
M  V30 55 H 10.969920 10.020709 -5.437390 0
M  V30 56 H 10.094089 5.437861 -8.400026 0
M  V30 57 H 8.446288 5.397963 -7.805085 0
M  V30 58 H 7.538328 5.772437 -10.057417 0
M  V30 59 H 8.596456 4.387690 -10.065474 0
M  V30 60 H 8.155101 7.601462 -8.525731 0
M  V30 END ATOM
M  V30 BEGIN BOND
M  V30 1 2 2 1
M  V30 2 1 3 2
M  V30 3 1 4 3
M  V30 4 1 5 4
M  V30 5 1 6 5
M  V30 6 2 7 6
M  V30 7 1 8 7
M  V30 8 1 9 8
M  V30 9 2 10 8
M  V30 10 2 11 5
M  V30 11 1 11 10
M  V30 12 1 12 4
M  V30 13 2 13 12
M  V30 14 1 14 13
M  V30 15 2 15 14
M  V30 16 1 16 15
M  V30 17 1 17 12
M  V30 18 2 17 16
M  V30 19 1 18 2
M  V30 20 1 19 18
M  V30 21 1 20 19
M  V30 22 1 21 20
M  V30 23 1 22 21
M  V30 24 1 23 22
M  V30 25 1 24 23
M  V30 26 1 25 24
M  V30 27 2 26 25
M  V30 28 1 27 26
M  V30 29 2 28 27
M  V30 30 1 29 27
M  V30 31 1 30 24
M  V30 32 2 30 29
M  V30 33 1 31 21
M  V30 34 1 32 18
M  V30 35 1 32 31
M  V30 36 1 33 3
M  V30 37 1 4 34 CFG=3
M  V30 38 1 35 6
M  V30 39 1 36 7
M  V30 40 1 37 10
M  V30 41 1 38 11
M  V30 42 1 39 13
M  V30 43 1 40 14
M  V30 44 1 41 15
M  V30 45 1 42 16
M  V30 46 1 18 43 CFG=3
M  V30 47 1 44 19
M  V30 48 1 45 19
M  V30 49 1 46 20
M  V30 50 1 47 20
M  V30 51 1 48 22
M  V30 52 1 49 22
M  V30 53 1 50 23
M  V30 54 1 51 23
M  V30 55 1 52 25
M  V30 56 1 53 26
M  V30 57 1 54 29
M  V30 58 1 55 30
M  V30 59 1 56 31
M  V30 60 1 57 31
M  V30 61 1 58 32
M  V30 62 1 59 32
M  V30 63 1 21 60 CFG=3
M  V30 END BOND
M  V30 END CTAB
M  END
>  <b_m_subgroup_collapsed>  (238) 
0

>  <r_i_docking_score>  (238) 
-8.7367483360063307

>  <s_m_subgroup_title>  (238) 
glide-dock_SP_D22_pv

>  <s_m_subgroupid>  (238) 
glide-dock_SP_D22_pv

>  <Molecule ChEMBL ID>  (238) 
CHEMBL5750360

>  <Standard Type>  (238) 
Ki

>  <Standard Value>  (238) 
20000.0

>  <label>  (238) 
0

$$$$
CHEMBL2059311
     RDKit          3D

  0  0  0  0  0  0  0  0  0  0999 V3000
M  V30 BEGIN CTAB
M  V30 COUNTS 57 61 0 0 1
M  V30 BEGIN ATOM
M  V30 1 O 11.285795 9.372256 -8.234236 0
M  V30 2 C 11.278433 9.209002 -7.017484 0
M  V30 3 C 11.443386 10.430959 -6.113125 0
M  V30 4 O 12.326474 10.146296 -5.054602 0
M  V30 5 C 12.068190 9.000533 -4.361828 0
M  V30 6 C 12.446768 8.953942 -3.012094 0
M  V30 7 C 12.249189 7.788583 -2.267779 0
M  V30 8 C 11.687443 6.663337 -2.888642 0
M  V30 9 C 11.307080 6.701995 -4.247880 0
M  V30 10 C 11.479554 7.885096 -5.011426 0
M  V30 11 N 11.143213 8.002847 -6.411179 0
M  V30 12 C 10.795324 6.828434 -7.241221 0
M  V30 13 C 9.422446 6.938885 -7.958910 0
M  V30 14 C 9.505545 7.464536 -9.418512 0
M  V30 15 N 8.861269 6.571860 -10.402053 0 CFG=2 CHG=1
M  V30 16 C 9.574354 5.290971 -10.565623 0
M  V30 17 C 8.799629 4.325047 -11.446892 0
M  V30 18 C 8.545078 4.935997 -12.826495 0 CFG=1
M  V30 19 N 7.886447 3.923255 -13.661609 0
M  V30 20 C 6.583990 3.531724 -13.618447 0
M  V30 21 O 5.654809 4.096796 -13.046947 0
M  V30 22 N 6.485828 2.347155 -14.246962 0
M  V30 23 C 7.738160 1.920292 -14.669294 0
M  V30 24 C 8.138363 0.727168 -15.291151 0
M  V30 25 C 9.518126 0.577361 -15.561366 0
M  V30 26 C 10.439946 1.597493 -15.210214 0
M  V30 27 C 10.003864 2.783479 -14.572458 0
M  V30 28 C 8.625582 2.912891 -14.316357 0
M  V30 29 C 7.816453 6.287724 -12.648458 0
M  V30 30 C 8.624602 7.219098 -11.721519 0
M  V30 31 H 10.485470 10.723924 -5.695583 0
M  V30 32 H 11.830784 11.292255 -6.652300 0
M  V30 33 H 12.885988 9.816227 -2.542507 0
M  V30 34 H 12.540112 7.772487 -1.229689 0
M  V30 35 H 11.535364 5.772262 -2.304170 0
M  V30 36 H 10.870574 5.804467 -4.651799 0
M  V30 37 H 11.593212 6.670599 -7.966230 0
M  V30 38 H 10.792501 5.907046 -6.671513 0
M  V30 39 H 8.942074 5.960850 -7.935968 0
M  V30 40 H 8.743967 7.568254 -7.380139 0
M  V30 41 H 9.029331 8.445723 -9.459806 0
M  V30 42 H 10.536315 7.602901 -9.744979 0
M  V30 43 H 10.486004 5.538582 -11.081791 0
M  V30 44 H 9.828483 4.818391 -9.617043 0
M  V30 45 H 9.384004 3.410537 -11.558848 0
M  V30 46 H 7.853033 4.070301 -10.967080 0
M  V30 47 H 9.505168 5.163211 -13.289924 0
M  V30 48 H 5.645143 1.798099 -14.341950 0
M  V30 49 H 7.429780 -0.048863 -15.543612 0
M  V30 50 H 9.873450 -0.325669 -16.036346 0
M  V30 51 H 11.489525 1.463217 -15.427330 0
M  V30 52 H 10.711882 3.548942 -14.293041 0
M  V30 53 H 7.686095 6.778321 -13.607478 0
M  V30 54 H 6.822034 6.154913 -12.221254 0
M  V30 55 H 8.086631 8.158939 -11.593722 0
M  V30 56 H 9.579794 7.474439 -12.183327 0
M  V30 57 H 7.928054 6.398432 -10.040670 0
M  V30 END ATOM
M  V30 BEGIN BOND
M  V30 1 2 2 1
M  V30 2 1 3 2
M  V30 3 1 4 3
M  V30 4 1 5 4
M  V30 5 2 6 5
M  V30 6 1 7 6
M  V30 7 2 8 7
M  V30 8 1 9 8
M  V30 9 1 10 5
M  V30 10 2 10 9
M  V30 11 1 11 2
M  V30 12 1 11 10
M  V30 13 1 12 11
M  V30 14 1 13 12
M  V30 15 1 14 13
M  V30 16 1 15 14
M  V30 17 1 16 15
M  V30 18 1 17 16
M  V30 19 1 18 17
M  V30 20 1 19 18
M  V30 21 1 20 19
M  V30 22 2 21 20
M  V30 23 1 22 20
M  V30 24 1 23 22
M  V30 25 2 24 23
M  V30 26 1 25 24
M  V30 27 2 26 25
M  V30 28 1 27 26
M  V30 29 1 28 19
M  V30 30 1 28 23
M  V30 31 2 28 27
M  V30 32 1 29 18
M  V30 33 1 30 15
M  V30 34 1 30 29
M  V30 35 1 31 3
M  V30 36 1 32 3
M  V30 37 1 33 6
M  V30 38 1 34 7
M  V30 39 1 35 8
M  V30 40 1 36 9
M  V30 41 1 37 12
M  V30 42 1 38 12
M  V30 43 1 39 13
M  V30 44 1 40 13
M  V30 45 1 41 14
M  V30 46 1 42 14
M  V30 47 1 43 16
M  V30 48 1 44 16
M  V30 49 1 45 17
M  V30 50 1 46 17
M  V30 51 1 18 47 CFG=3
M  V30 52 1 48 22
M  V30 53 1 49 24
M  V30 54 1 50 25
M  V30 55 1 51 26
M  V30 56 1 52 27
M  V30 57 1 53 29
M  V30 58 1 54 29
M  V30 59 1 55 30
M  V30 60 1 56 30
M  V30 61 1 15 57 CFG=1
M  V30 END BOND
M  V30 END CTAB
M  END
>  <b_m_subgroup_collapsed>  (239) 
0

>  <r_i_docking_score>  (239) 
-8.7366673156553993

>  <s_m_subgroup_title>  (239) 
glide-dock_SP_D22_pv

>  <s_m_subgroupid>  (239) 
glide-dock_SP_D22_pv

>  <Molecule ChEMBL ID>  (239) 
CHEMBL2059311

>  <Standard Type>  (239) 
Ki

>  <Standard Value>  (239) 
16.0

>  <label>  (239) 
1

$$$$
CHEMBL78058
     RDKit          3D

  0  0  0  0  0  0  0  0  0  0999 V3000
M  V30 BEGIN CTAB
M  V30 COUNTS 49 52 0 0 1
M  V30 BEGIN ATOM
M  V30 1 O 10.904202 8.972284 -8.491155 0
M  V30 2 C 10.548460 8.104152 -7.694584 0
M  V30 3 N 9.694375 7.117053 -8.004831 0
M  V30 4 C 9.011124 6.951609 -9.284389 0
M  V30 5 C 9.864782 6.196781 -10.326110 0
M  V30 6 N 9.057290 5.842002 -11.495035 0
M  V30 7 C 8.332509 4.590122 -11.253571 0
M  V30 8 C 7.374189 4.283964 -12.422502 0
M  V30 9 N 8.110791 4.197394 -13.685729 0
M  V30 10 C 8.491107 2.935481 -14.194971 0
M  V30 11 C 9.809706 2.666273 -14.659481 0
M  V30 12 C 10.187063 1.379600 -15.120643 0
M  V30 13 C 9.263132 0.314516 -15.121963 0
M  V30 14 C 7.968336 0.602212 -14.666193 0
M  V30 15 N 6.876155 -0.228024 -14.475745 0
M  V30 16 C 5.843284 0.494662 -13.892221 0
M  V30 17 O 4.769224 0.079392 -13.460941 0
M  V30 18 O 6.269739 1.791929 -13.842442 0
M  V30 19 C 7.577732 1.855957 -14.246881 0
M  V30 20 C 8.946939 5.372059 -13.904234 0
M  V30 21 C 9.874574 5.641366 -12.694519 0
M  V30 22 C 11.004335 8.136105 -6.261887 0
M  V30 23 C 11.242771 6.937015 -5.551908 0
M  V30 24 C 11.691744 6.969903 -4.217905 0
M  V30 25 C 11.922777 8.199080 -3.578411 0
M  V30 26 F 12.359343 8.228711 -2.296719 0
M  V30 27 C 11.682937 9.397971 -4.272622 0
M  V30 28 C 11.241107 9.370335 -5.612340 0
M  V30 29 H 9.421384 6.486207 -7.266610 0
M  V30 30 H 8.086502 6.415540 -9.075853 0
M  V30 31 H 8.722703 7.926317 -9.679373 0
M  V30 32 H 10.686194 6.847941 -10.627601 0
M  V30 33 H 10.312063 5.305785 -9.887944 0
M  V30 34 H 9.052887 3.780708 -11.137248 0
M  V30 35 H 7.757056 4.647123 -10.329872 0
M  V30 36 H 6.827219 3.372761 -12.189648 0
M  V30 37 H 6.627012 5.074890 -12.503725 0
M  V30 38 H 10.570415 3.431047 -14.641875 0
M  V30 39 H 11.201353 1.206028 -15.451240 0
M  V30 40 H 9.544499 -0.678034 -15.437706 0
M  V30 41 H 9.509301 5.305512 -14.835356 0
M  V30 42 H 8.260154 6.202306 -14.029491 0
M  V30 43 H 10.466643 6.537709 -12.882244 0
M  V30 44 H 10.571423 4.814427 -12.553846 0
M  V30 45 H 11.094744 5.978675 -6.027800 0
M  V30 46 H 11.868164 6.046100 -3.686414 0
M  V30 47 H 11.826701 10.336837 -3.763519 0
M  V30 48 H 11.071106 10.299334 -6.137418 0
M  V30 49 H 6.846254 -1.226295 -14.638252 0
M  V30 END ATOM
M  V30 BEGIN BOND
M  V30 1 2 2 1
M  V30 2 1 3 2
M  V30 3 1 4 3
M  V30 4 1 5 4
M  V30 5 1 6 5
M  V30 6 1 7 6
M  V30 7 1 8 7
M  V30 8 1 9 8
M  V30 9 1 10 9
M  V30 10 1 11 10
M  V30 11 2 12 11
M  V30 12 1 13 12
M  V30 13 2 14 13
M  V30 14 1 15 14
M  V30 15 1 16 15
M  V30 16 2 17 16
M  V30 17 1 18 16
M  V30 18 2 19 10
M  V30 19 1 19 14
M  V30 20 1 19 18
M  V30 21 1 20 9
M  V30 22 1 21 6
M  V30 23 1 21 20
M  V30 24 1 22 2
M  V30 25 1 23 22
M  V30 26 2 24 23
M  V30 27 1 25 24
M  V30 28 1 26 25
M  V30 29 2 27 25
M  V30 30 2 28 22
M  V30 31 1 28 27
M  V30 32 1 29 3
M  V30 33 1 30 4
M  V30 34 1 31 4
M  V30 35 1 32 5
M  V30 36 1 33 5
M  V30 37 1 34 7
M  V30 38 1 35 7
M  V30 39 1 36 8
M  V30 40 1 37 8
M  V30 41 1 38 11
M  V30 42 1 39 12
M  V30 43 1 40 13
M  V30 44 1 41 20
M  V30 45 1 42 20
M  V30 46 1 43 21
M  V30 47 1 44 21
M  V30 48 1 45 23
M  V30 49 1 46 24
M  V30 50 1 47 27
M  V30 51 1 48 28
M  V30 52 1 49 15
M  V30 END BOND
M  V30 END CTAB
M  END
>  <b_m_subgroup_collapsed>  (240) 
0

>  <r_i_docking_score>  (240) 
-8.7329861573628005

>  <s_m_subgroup_title>  (240) 
glide-dock_SP_D22_pv

>  <s_m_subgroupid>  (240) 
glide-dock_SP_D22_pv

>  <Molecule ChEMBL ID>  (240) 
CHEMBL78058

>  <Standard Type>  (240) 
Ki

>  <Standard Value>  (240) 
4.6

>  <label>  (240) 
1

$$$$
CHEMBL1237021
     RDKit          3D

  0  0  0  0  0  0  0  0  0  0999 V3000
M  V30 BEGIN CTAB
M  V30 COUNTS 72 78 0 0 1
M  V30 BEGIN ATOM
M  V30 1 O 10.064951 3.927684 -16.563219 0
M  V30 2 C 10.652368 4.817129 -15.946618 0
M  V30 3 C 11.349520 5.970751 -16.658611 0 CFG=2
M  V30 4 C 12.554582 5.551830 -17.532999 0 CFG=1
M  V30 5 C 13.109639 6.811680 -18.226213 0
M  V30 6 C 13.781629 7.566893 -17.060684 0
M  V30 7 C 13.519418 6.639906 -15.859529 0 CFG=2
M  V30 8 C 13.656497 5.265046 -16.509468 0
M  V30 9 C 12.014816 6.734348 -15.505493 0 CFG=2
M  V30 10 C 11.573604 5.946816 -14.272079 0
M  V30 11 O 11.886124 6.278609 -13.129921 0
M  V30 12 N 10.797726 4.905206 -14.613174 0
M  V30 13 C 10.357962 3.865099 -13.671682 0
M  V30 14 C 8.899737 3.935382 -13.134511 0 CFG=2
M  V30 15 C 7.853967 3.968725 -14.248046 0
M  V30 16 C 6.427782 3.714074 -13.750090 0
M  V30 17 C 6.041638 4.795025 -12.744662 0
M  V30 18 C 7.077586 4.890363 -11.621744 0
M  V30 19 C 8.546149 5.041370 -12.094700 0 CFG=1
M  V30 20 C 9.475718 4.985771 -10.869820 0
M  V30 21 N 9.133747 5.977802 -9.815310 0 CHG=1
M  V30 22 C 9.789600 7.282805 -10.077506 0
M  V30 23 C 9.549037 8.286970 -8.949485 0
M  V30 24 N 9.956737 7.715467 -7.659348 0
M  V30 25 C 10.692813 8.493192 -6.716410 0
M  V30 26 N 10.905499 9.747169 -7.042819 0
M  V30 27 S 11.685985 10.567871 -5.846745 0
M  V30 28 C 11.826378 9.205407 -4.776453 0
M  V30 29 C 12.385743 9.160400 -3.485500 0
M  V30 30 C 12.402236 7.949805 -2.779336 0
M  V30 31 C 11.884604 6.796474 -3.386246 0
M  V30 32 C 11.326264 6.856850 -4.680511 0
M  V30 33 C 11.252972 8.065496 -5.423643 0
M  V30 34 C 9.182809 6.519681 -7.350378 0
M  V30 35 C 9.398570 5.454245 -8.442959 0
M  V30 36 H 10.611162 6.555811 -17.209101 0
M  V30 37 H 12.344619 4.728232 -18.218584 0
M  V30 38 H 12.330579 7.403210 -18.708948 0
M  V30 39 H 13.845345 6.547384 -18.986502 0
M  V30 40 H 13.368017 8.565796 -16.915100 0
M  V30 41 H 14.851562 7.672255 -17.244041 0
M  V30 42 H 14.194924 6.819836 -15.026038 0
M  V30 43 H 14.635037 5.096548 -16.966127 0
M  V30 44 H 13.439380 4.432508 -15.840837 0
M  V30 45 H 11.686275 7.766879 -15.419891 0
M  V30 46 H 11.050133 3.801366 -12.841409 0
M  V30 47 H 10.483359 2.898636 -14.166168 0
M  V30 48 H 8.811139 2.973216 -12.646517 0
M  V30 49 H 8.088015 3.253099 -15.037465 0
M  V30 50 H 7.900899 4.974013 -14.654422 0
M  V30 51 H 6.363870 2.725373 -13.291543 0
M  V30 52 H 5.711870 3.721334 -14.576030 0
M  V30 53 H 5.064595 4.559803 -12.319251 0
M  V30 54 H 5.945102 5.758008 -13.248652 0
M  V30 55 H 6.991003 3.993747 -11.009117 0
M  V30 56 H 6.794642 5.739790 -10.999584 0
M  V30 57 H 8.648551 6.013389 -12.579273 0
M  V30 58 H 10.485645 5.181937 -11.206032 0
M  V30 59 H 9.488892 3.971750 -10.462275 0
M  V30 60 H 9.428043 7.694284 -11.020864 0
M  V30 61 H 10.866332 7.139979 -10.185678 0
M  V30 62 H 8.489865 8.547119 -8.899964 0
M  V30 63 H 10.078042 9.204624 -9.206732 0
M  V30 64 H 12.793839 10.052350 -3.035451 0
M  V30 65 H 12.811794 7.911238 -1.782125 0
M  V30 66 H 11.902109 5.856595 -2.853202 0
M  V30 67 H 10.944791 5.944974 -5.090497 0
M  V30 68 H 9.418877 6.118839 -6.373640 0
M  V30 69 H 8.125320 6.789029 -7.309562 0
M  V30 70 H 8.752712 4.594312 -8.251124 0
M  V30 71 H 10.426632 5.093886 -8.394922 0
M  V30 72 H 8.136289 6.150561 -9.862454 0
M  V30 END ATOM
M  V30 BEGIN BOND
M  V30 1 2 2 1
M  V30 2 1 3 2
M  V30 3 1 4 3
M  V30 4 1 5 4
M  V30 5 1 6 5
M  V30 6 1 7 6
M  V30 7 1 8 4
M  V30 8 1 8 7
M  V30 9 1 9 3
M  V30 10 1 9 7
M  V30 11 1 10 9
M  V30 12 2 11 10
M  V30 13 1 12 2
M  V30 14 1 12 10
M  V30 15 1 13 12
M  V30 16 1 14 13
M  V30 17 1 15 14
M  V30 18 1 16 15
M  V30 19 1 17 16
M  V30 20 1 18 17
M  V30 21 1 19 14
M  V30 22 1 19 18
M  V30 23 1 20 19
M  V30 24 1 21 20
M  V30 25 1 22 21
M  V30 26 1 23 22
M  V30 27 1 24 23
M  V30 28 1 25 24
M  V30 29 2 26 25
M  V30 30 1 27 26
M  V30 31 1 28 27
M  V30 32 2 29 28
M  V30 33 1 30 29
M  V30 34 2 31 30
M  V30 35 1 32 31
M  V30 36 1 33 25
M  V30 37 1 33 28
M  V30 38 2 33 32
M  V30 39 1 34 24
M  V30 40 1 35 21
M  V30 41 1 35 34
M  V30 42 1 3 36 CFG=3
M  V30 43 1 4 37 CFG=3
M  V30 44 1 38 5
M  V30 45 1 39 5
M  V30 46 1 40 6
M  V30 47 1 41 6
M  V30 48 1 7 42 CFG=1
M  V30 49 1 43 8
M  V30 50 1 44 8
M  V30 51 1 9 45 CFG=1
M  V30 52 1 46 13
M  V30 53 1 47 13
M  V30 54 1 14 48 CFG=1
M  V30 55 1 49 15
M  V30 56 1 50 15
M  V30 57 1 51 16
M  V30 58 1 52 16
M  V30 59 1 53 17
M  V30 60 1 54 17
M  V30 61 1 55 18
M  V30 62 1 56 18
M  V30 63 1 19 57 CFG=3
M  V30 64 1 58 20
M  V30 65 1 59 20
M  V30 66 1 60 22
M  V30 67 1 61 22
M  V30 68 1 62 23
M  V30 69 1 63 23
M  V30 70 1 64 29
M  V30 71 1 65 30
M  V30 72 1 66 31
M  V30 73 1 67 32
M  V30 74 1 68 34
M  V30 75 1 69 34
M  V30 76 1 70 35
M  V30 77 1 71 35
M  V30 78 1 72 21
M  V30 END BOND
M  V30 END CTAB
M  END
>  <b_m_subgroup_collapsed>  (241) 
0

>  <r_i_docking_score>  (241) 
-8.7310536808296995

>  <s_m_subgroup_title>  (241) 
glide-dock_SP_D22_pv

>  <s_m_subgroupid>  (241) 
glide-dock_SP_D22_pv

>  <Molecule ChEMBL ID>  (241) 
CHEMBL1237021

>  <Standard Type>  (241) 
Ki

>  <Standard Value>  (241) 
1.7

>  <label>  (241) 
1

$$$$
CHEMBL254203
     RDKit          3D

  0  0  0  0  0  0  0  0  0  0999 V3000
M  V30 BEGIN CTAB
M  V30 COUNTS 72 75 0 0 1
M  V30 BEGIN ATOM
M  V30 1 C 10.575633 5.760306 -17.419544 0
M  V30 2 C 10.636637 5.450480 -15.918228 0
M  V30 3 C 9.286005 4.979698 -15.343342 0
M  V30 4 N 9.395724 4.364239 -14.001626 0 CFG=1 CHG=1
M  V30 5 C 9.963833 5.224205 -12.910482 0
M  V30 6 C 9.001071 6.264735 -12.288280 0
M  V30 7 C 9.601102 7.108581 -11.151861 0
M  V30 8 C 9.672512 6.303960 -9.844487 0
M  V30 9 N 9.782679 7.134699 -8.649461 0
M  V30 10 C 9.563788 6.240582 -7.505754 0
M  V30 11 C 9.701173 6.989960 -6.177176 0
M  V30 12 N 11.005901 7.630763 -6.103085 0
M  V30 13 C 11.462660 7.945748 -4.813277 0
M  V30 14 C 11.686197 6.888980 -3.904364 0
M  V30 15 C 12.085409 7.146400 -2.581801 0
M  V30 16 C 12.273190 8.473541 -2.155509 0
M  V30 17 C 12.078894 9.533946 -3.058182 0
M  V30 18 C 11.682381 9.275256 -4.386583 0
M  V30 19 C 11.255258 8.532239 -7.222110 0
M  V30 20 C 11.111425 7.750062 -8.544203 0
M  V30 21 C 8.212813 3.544558 -13.615226 0 CFG=1
M  V30 22 C 6.818709 4.212925 -13.641527 0
M  V30 23 C 5.813975 3.338528 -12.895830 0
M  V30 24 C 5.768825 1.938457 -13.484267 0
M  V30 25 C 4.562386 1.217972 -13.446646 0
M  V30 26 C 4.472913 -0.070191 -13.998583 0
M  V30 27 O 3.286457 -0.746230 -13.939810 0
M  V30 28 C 5.612103 -0.646433 -14.599713 0
M  V30 29 O 5.548633 -1.891749 -15.146286 0
M  V30 30 C 6.818818 0.074872 -14.662452 0
M  V30 31 C 6.900653 1.373310 -14.124479 0
M  V30 32 C 8.205075 2.149336 -14.282973 0
M  V30 33 H 11.551885 6.083592 -17.784672 0
M  V30 34 H 10.284345 4.880762 -17.993761 0
M  V30 35 H 9.864148 6.554166 -17.645281 0
M  V30 36 H 10.992405 6.338228 -15.393678 0
M  V30 37 H 11.389768 4.674515 -15.760788 0
M  V30 38 H 8.886940 4.239590 -16.033428 0
M  V30 39 H 8.547229 5.772123 -15.289135 0
M  V30 40 H 10.300350 4.553737 -12.121002 0
M  V30 41 H 10.867500 5.722854 -13.253996 0
M  V30 42 H 8.603612 6.934875 -13.046269 0
M  V30 43 H 8.145345 5.763948 -11.847214 0
M  V30 44 H 10.576877 7.505265 -11.433719 0
M  V30 45 H 8.946770 7.968364 -10.990710 0
M  V30 46 H 8.744670 5.734583 -9.756452 0
M  V30 47 H 10.485627 5.576819 -9.877213 0
M  V30 48 H 8.564572 5.804998 -7.563139 0
M  V30 49 H 10.276725 5.414759 -7.535525 0
M  V30 50 H 8.919447 7.745015 -6.073584 0
M  V30 51 H 9.558693 6.288559 -5.356444 0
M  V30 52 H 11.539300 5.866547 -4.219912 0
M  V30 53 H 12.236736 6.325348 -1.896437 0
M  V30 54 H 12.565180 8.680493 -1.136892 0
M  V30 55 H 12.192762 10.555618 -2.727554 0
M  V30 56 H 11.511742 10.106121 -5.055693 0
M  V30 57 H 10.548478 9.363959 -7.192344 0
M  V30 58 H 12.260543 8.949568 -7.148359 0
M  V30 59 H 11.869901 6.973467 -8.587374 0
M  V30 60 H 11.281944 8.417295 -9.387421 0
M  V30 61 H 8.402659 3.372803 -12.582596 0
M  V30 62 H 6.782028 5.223613 -13.251879 0
M  V30 63 H 6.453835 4.293537 -14.646536 0
M  V30 64 H 4.822937 3.794276 -12.940836 0
M  V30 65 H 6.086001 3.270411 -11.841693 0
M  V30 66 H 3.681596 1.692980 -13.046828 0
M  V30 67 H 2.535020 -0.213239 -13.722007 0
M  V30 68 H 6.388988 -2.227100 -15.446877 0
M  V30 69 H 7.682581 -0.363607 -15.143705 0
M  V30 70 H 9.022278 1.546426 -13.886256 0
M  V30 71 H 8.378982 2.231096 -15.354538 0
M  V30 72 H 10.118462 3.668718 -14.125189 0
M  V30 END ATOM
M  V30 BEGIN BOND
M  V30 1 1 2 1
M  V30 2 1 3 2
M  V30 3 1 4 3
M  V30 4 1 5 4
M  V30 5 1 6 5
M  V30 6 1 7 6
M  V30 7 1 8 7
M  V30 8 1 9 8
M  V30 9 1 10 9
M  V30 10 1 11 10
M  V30 11 1 12 11
M  V30 12 1 13 12
M  V30 13 2 14 13
M  V30 14 1 15 14
M  V30 15 2 16 15
M  V30 16 1 17 16
M  V30 17 1 18 13
M  V30 18 2 18 17
M  V30 19 1 19 12
M  V30 20 1 20 9
M  V30 21 1 20 19
M  V30 22 1 21 4
M  V30 23 1 22 21
M  V30 24 1 23 22
M  V30 25 1 24 23
M  V30 26 1 25 24
M  V30 27 2 26 25
M  V30 28 1 27 26
M  V30 29 1 28 26
M  V30 30 1 29 28
M  V30 31 2 30 28
M  V30 32 2 31 24
M  V30 33 1 31 30
M  V30 34 1 32 21
M  V30 35 1 32 31
M  V30 36 1 33 1
M  V30 37 1 34 1
M  V30 38 1 35 1
M  V30 39 1 36 2
M  V30 40 1 37 2
M  V30 41 1 38 3
M  V30 42 1 39 3
M  V30 43 1 40 5
M  V30 44 1 41 5
M  V30 45 1 42 6
M  V30 46 1 43 6
M  V30 47 1 44 7
M  V30 48 1 45 7
M  V30 49 1 46 8
M  V30 50 1 47 8
M  V30 51 1 48 10
M  V30 52 1 49 10
M  V30 53 1 50 11
M  V30 54 1 51 11
M  V30 55 1 52 14
M  V30 56 1 53 15
M  V30 57 1 54 16
M  V30 58 1 55 17
M  V30 59 1 56 18
M  V30 60 1 57 19
M  V30 61 1 58 19
M  V30 62 1 59 20
M  V30 63 1 60 20
M  V30 64 1 21 61 CFG=1
M  V30 65 1 62 22
M  V30 66 1 63 22
M  V30 67 1 64 23
M  V30 68 1 65 23
M  V30 69 1 66 25
M  V30 70 1 67 27
M  V30 71 1 68 29
M  V30 72 1 69 30
M  V30 73 1 70 32
M  V30 74 1 71 32
M  V30 75 1 4 72 CFG=3
M  V30 END BOND
M  V30 END CTAB
M  END
>  <b_m_subgroup_collapsed>  (242) 
0

>  <r_i_docking_score>  (242) 
-8.7299658293483002

>  <s_m_subgroup_title>  (242) 
glide-dock_SP_D22_pv

>  <s_m_subgroupid>  (242) 
glide-dock_SP_D22_pv

>  <Molecule ChEMBL ID>  (242) 
CHEMBL254203

>  <Standard Type>  (242) 
Ki

>  <Standard Value>  (242) 
21.7

>  <label>  (242) 
1

$$$$
CHEMBL252343
     RDKit          3D

  0  0  0  0  0  0  0  0  0  0999 V3000
M  V30 BEGIN CTAB
M  V30 COUNTS 69 73 0 0 1
M  V30 BEGIN ATOM
M  V30 1 C 5.058269 3.785299 -12.923995 0
M  V30 2 C 5.918536 4.863594 -12.249342 0
M  V30 3 C 7.150843 4.235852 -11.586105 0
M  V30 4 N 8.250106 5.224174 -11.382355 0 CFG=1 CHG=1
M  V30 5 C 8.486827 5.520082 -9.940865 0
M  V30 6 C 9.374934 6.745899 -9.676982 0
M  V30 7 N 9.596139 6.873942 -8.246407 0
M  V30 8 C 10.884621 6.268201 -7.915511 0
M  V30 9 C 11.144753 6.346297 -6.409311 0
M  V30 10 N 11.088461 7.727417 -5.950688 0
M  V30 11 C 11.555844 8.014211 -4.653492 0
M  V30 12 C 11.664910 9.359857 -4.238708 0
M  V30 13 C 12.086039 9.672383 -2.936681 0
M  V30 14 C 12.457004 8.651275 -2.043965 0
M  V30 15 C 12.367292 7.308762 -2.448359 0
M  V30 16 C 11.915369 6.992636 -3.739885 0
M  V30 17 C 9.827850 8.362225 -6.335936 0
M  V30 18 C 9.628518 8.283195 -7.856270 0
M  V30 19 C 9.511492 5.006559 -12.169548 0 CFG=2
M  V30 20 C 9.934982 6.334724 -12.792516 0
M  V30 21 C 11.286951 6.267558 -13.524670 0
M  V30 22 C 11.416781 5.077593 -14.452498 0
M  V30 23 C 12.401231 5.100912 -15.472128 0
M  V30 24 C 12.541190 4.019028 -16.369272 0
M  V30 25 C 11.691808 2.915728 -16.194916 0
M  V30 26 C 10.737472 2.872218 -15.190220 0
M  V30 27 C 10.565696 3.953877 -14.304648 0
M  V30 28 C 9.438477 3.932496 -13.290524 0
M  V30 29 C 9.988036 1.559409 -15.243609 0
M  V30 30 C 10.715601 0.906443 -16.431208 0
M  V30 31 O 10.467348 -0.225431 -16.839642 0
M  V30 32 N 11.651705 1.727215 -16.925348 0
M  V30 33 H 4.092497 4.172306 -13.248358 0
M  V30 34 H 5.560207 3.384817 -13.806361 0
M  V30 35 H 4.884907 2.950053 -12.247583 0
M  V30 36 H 5.338876 5.411335 -11.504169 0
M  V30 37 H 6.217002 5.590567 -13.006241 0
M  V30 38 H 7.410352 3.372337 -12.180671 0
M  V30 39 H 6.885879 3.771950 -10.646895 0
M  V30 40 H 8.875785 4.631861 -9.442389 0
M  V30 41 H 7.537694 5.772074 -9.478585 0
M  V30 42 H 8.879185 7.632295 -10.074065 0
M  V30 43 H 10.343239 6.668351 -10.169897 0
M  V30 44 H 11.685541 6.789671 -8.440511 0
M  V30 45 H 10.886009 5.227424 -8.240021 0
M  V30 46 H 12.116617 5.902899 -6.197098 0
M  V30 47 H 10.389889 5.772601 -5.875515 0
M  V30 48 H 11.416228 10.168961 -4.908425 0
M  V30 49 H 12.117166 10.705975 -2.629044 0
M  V30 50 H 12.790764 8.903061 -1.048204 0
M  V30 51 H 12.637002 6.512272 -1.770166 0
M  V30 52 H 11.842271 5.948606 -3.999694 0
M  V30 53 H 9.002973 7.844473 -5.846928 0
M  V30 54 H 9.775186 9.399728 -6.022265 0
M  V30 55 H 10.421227 8.817947 -8.381751 0
M  V30 56 H 8.681893 8.756207 -8.121612 0
M  V30 57 H 10.284311 4.669538 -11.482489 0
M  V30 58 H 9.105680 6.569837 -13.446779 0
M  V30 59 H 9.967788 7.176896 -12.110362 0
M  V30 60 H 12.093694 6.202422 -12.793594 0
M  V30 61 H 11.458059 7.187088 -14.084864 0
M  V30 62 H 13.049184 5.959883 -15.574597 0
M  V30 63 H 13.289072 4.035197 -17.147758 0
M  V30 64 H 9.417293 2.938334 -12.847219 0
M  V30 65 H 8.534055 4.064342 -13.888765 0
M  V30 66 H 10.120025 0.980408 -14.330692 0
M  V30 67 H 8.927601 1.701621 -15.451138 0
M  V30 68 H 12.277406 1.519408 -17.689632 0
M  V30 69 H 7.856509 6.086865 -11.736304 0
M  V30 END ATOM
M  V30 BEGIN BOND
M  V30 1 1 2 1
M  V30 2 1 3 2
M  V30 3 1 4 3
M  V30 4 1 5 4
M  V30 5 1 6 5
M  V30 6 1 7 6
M  V30 7 1 8 7
M  V30 8 1 9 8
M  V30 9 1 10 9
M  V30 10 1 11 10
M  V30 11 2 12 11
M  V30 12 1 13 12
M  V30 13 2 14 13
M  V30 14 1 15 14
M  V30 15 1 16 11
M  V30 16 2 16 15
M  V30 17 1 17 10
M  V30 18 1 18 7
M  V30 19 1 18 17
M  V30 20 1 19 4
M  V30 21 1 20 19
M  V30 22 1 21 20
M  V30 23 1 22 21
M  V30 24 1 23 22
M  V30 25 2 24 23
M  V30 26 1 25 24
M  V30 27 2 26 25
M  V30 28 2 27 22
M  V30 29 1 27 26
M  V30 30 1 28 19
M  V30 31 1 28 27
M  V30 32 1 29 26
M  V30 33 1 30 29
M  V30 34 2 31 30
M  V30 35 1 32 25
M  V30 36 1 32 30
M  V30 37 1 33 1
M  V30 38 1 34 1
M  V30 39 1 35 1
M  V30 40 1 36 2
M  V30 41 1 37 2
M  V30 42 1 38 3
M  V30 43 1 39 3
M  V30 44 1 40 5
M  V30 45 1 41 5
M  V30 46 1 42 6
M  V30 47 1 43 6
M  V30 48 1 44 8
M  V30 49 1 45 8
M  V30 50 1 46 9
M  V30 51 1 47 9
M  V30 52 1 48 12
M  V30 53 1 49 13
M  V30 54 1 50 14
M  V30 55 1 51 15
M  V30 56 1 52 16
M  V30 57 1 53 17
M  V30 58 1 54 17
M  V30 59 1 55 18
M  V30 60 1 56 18
M  V30 61 1 19 57 CFG=1
M  V30 62 1 58 20
M  V30 63 1 59 20
M  V30 64 1 60 21
M  V30 65 1 61 21
M  V30 66 1 62 23
M  V30 67 1 63 24
M  V30 68 1 64 28
M  V30 69 1 65 28
M  V30 70 1 66 29
M  V30 71 1 67 29
M  V30 72 1 68 32
M  V30 73 1 4 69 CFG=3
M  V30 END BOND
M  V30 END CTAB
M  END
>  <b_m_subgroup_collapsed>  (243) 
0

>  <r_i_docking_score>  (243) 
-8.7185774816865607

>  <s_m_subgroup_title>  (243) 
glide-dock_SP_D22_pv

>  <s_m_subgroupid>  (243) 
glide-dock_SP_D22_pv

>  <Molecule ChEMBL ID>  (243) 
CHEMBL252343

>  <Standard Type>  (243) 
Ki

>  <Standard Value>  (243) 
90.6

>  <label>  (243) 
1

$$$$
CHEMBL196169
     RDKit          3D

  0  0  0  0  0  0  0  0  0  0999 V3000
M  V30 BEGIN CTAB
M  V30 COUNTS 62 65 0 0 1
M  V30 BEGIN ATOM
M  V30 1 C 7.495464 2.291320 -15.001434 0
M  V30 2 O 8.608997 3.173261 -15.026657 0
M  V30 3 C 8.767683 4.062867 -13.980121 0
M  V30 4 C 7.784301 4.250115 -12.974735 0
M  V30 5 C 7.978172 5.172299 -11.932123 0
M  V30 6 C 9.160072 5.932093 -11.863704 0
M  V30 7 N 9.285796 6.836411 -10.769032 0
M  V30 8 C 10.408285 7.372791 -10.250686 0
M  V30 9 O 11.491404 7.373812 -10.839334 0
M  V30 10 N 10.236904 8.015621 -9.071956 0
M  V30 11 C 11.282938 8.955685 -8.625694 0
M  V30 12 C 11.155922 9.370954 -7.153785 0
M  V30 13 N 10.881444 8.216500 -6.308497 0
M  V30 14 C 11.349470 8.194723 -4.979989 0
M  V30 15 C 11.685978 6.965117 -4.370647 0
M  V30 16 C 12.198474 6.925366 -3.058625 0
M  V30 17 C 12.401867 8.117342 -2.341804 0
M  V30 18 C 12.056474 9.343960 -2.930256 0
M  V30 19 C 11.508088 9.382781 -4.226002 0
M  V30 20 F 11.087581 10.572519 -4.714397 0
M  V30 21 C 9.840562 7.276119 -6.722657 0
M  V30 22 C 9.202852 7.681835 -8.069975 0
M  V30 23 C 10.131252 5.772217 -12.881707 0
M  V30 24 C 9.955637 4.840137 -13.933421 0
M  V30 25 N 10.949018 4.684825 -14.926164 0
M  V30 26 C 11.607877 3.383360 -14.953647 0
M  V30 27 C 12.279257 3.156134 -16.319038 0
M  V30 28 N 13.209585 4.267174 -16.646912 0 CHG=1
M  V30 29 C 13.926254 4.050147 -17.921434 0
M  V30 30 C 12.541995 5.593567 -16.581959 0
M  V30 31 C 11.840582 5.804485 -15.227207 0
M  V30 32 H 7.539499 1.630297 -15.867466 0
M  V30 33 H 7.506166 1.665272 -14.107893 0
M  V30 34 H 6.550567 2.835667 -15.051120 0
M  V30 35 H 6.862534 3.691272 -12.974900 0
M  V30 36 H 7.212972 5.289960 -11.177726 0
M  V30 37 H 8.430387 7.001574 -10.247281 0
M  V30 38 H 11.285796 9.834263 -9.271867 0
M  V30 39 H 12.262405 8.487491 -8.739994 0
M  V30 40 H 10.344248 10.087358 -7.036621 0
M  V30 41 H 12.076781 9.867945 -6.843975 0
M  V30 42 H 11.564969 6.039981 -4.912088 0
M  V30 43 H 12.447377 5.974357 -2.608082 0
M  V30 44 H 12.802115 8.093424 -1.339559 0
M  V30 45 H 12.167653 10.259235 -2.368166 0
M  V30 46 H 10.285790 6.284907 -6.820417 0
M  V30 47 H 9.073030 7.207372 -5.950105 0
M  V30 48 H 8.571017 8.560515 -7.928515 0
M  V30 49 H 8.522655 6.888056 -8.385722 0
M  V30 50 H 11.029330 6.364180 -12.868731 0
M  V30 51 H 12.356182 3.371703 -14.160789 0
M  V30 52 H 10.917606 2.566212 -14.740253 0
M  V30 53 H 12.819240 2.209233 -16.311525 0
M  V30 54 H 11.516566 3.077579 -17.095848 0
M  V30 55 H 13.234456 4.027917 -18.765266 0
M  V30 56 H 14.652614 4.845008 -18.095497 0
M  V30 57 H 14.468778 3.104258 -17.900116 0
M  V30 58 H 13.273623 6.386889 -16.745552 0
M  V30 59 H 11.809371 5.668462 -17.387560 0
M  V30 60 H 11.286013 6.742489 -15.249591 0
M  V30 61 H 12.588820 5.894253 -14.436298 0
M  V30 62 H 13.914212 4.263271 -15.922768 0
M  V30 END ATOM
M  V30 BEGIN BOND
M  V30 1 1 2 1
M  V30 2 1 3 2
M  V30 3 1 4 3
M  V30 4 2 5 4
M  V30 5 1 6 5
M  V30 6 1 7 6
M  V30 7 1 8 7
M  V30 8 2 9 8
M  V30 9 1 10 8
M  V30 10 1 11 10
M  V30 11 1 12 11
M  V30 12 1 13 12
M  V30 13 1 14 13
M  V30 14 2 15 14
M  V30 15 1 16 15
M  V30 16 2 17 16
M  V30 17 1 18 17
M  V30 18 1 19 14
M  V30 19 2 19 18
M  V30 20 1 20 19
M  V30 21 1 21 13
M  V30 22 1 22 10
M  V30 23 1 22 21
M  V30 24 2 23 6
M  V30 25 2 24 3
M  V30 26 1 24 23
M  V30 27 1 25 24
M  V30 28 1 26 25
M  V30 29 1 27 26
M  V30 30 1 28 27
M  V30 31 1 29 28
M  V30 32 1 30 28
M  V30 33 1 31 25
M  V30 34 1 31 30
M  V30 35 1 32 1
M  V30 36 1 33 1
M  V30 37 1 34 1
M  V30 38 1 35 4
M  V30 39 1 36 5
M  V30 40 1 37 7
M  V30 41 1 38 11
M  V30 42 1 39 11
M  V30 43 1 40 12
M  V30 44 1 41 12
M  V30 45 1 42 15
M  V30 46 1 43 16
M  V30 47 1 44 17
M  V30 48 1 45 18
M  V30 49 1 46 21
M  V30 50 1 47 21
M  V30 51 1 48 22
M  V30 52 1 49 22
M  V30 53 1 50 23
M  V30 54 1 51 26
M  V30 55 1 52 26
M  V30 56 1 53 27
M  V30 57 1 54 27
M  V30 58 1 55 29
M  V30 59 1 56 29
M  V30 60 1 57 29
M  V30 61 1 58 30
M  V30 62 1 59 30
M  V30 63 1 60 31
M  V30 64 1 61 31
M  V30 65 1 62 28
M  V30 END BOND
M  V30 END CTAB
M  END
>  <b_m_subgroup_collapsed>  (244) 
0

>  <r_i_docking_score>  (244) 
-8.7137416455915808

>  <s_m_subgroup_title>  (244) 
glide-dock_SP_D22_pv

>  <s_m_subgroupid>  (244) 
glide-dock_SP_D22_pv

>  <Molecule ChEMBL ID>  (244) 
CHEMBL196169

>  <Standard Type>  (244) 
Ki

>  <Standard Value>  (244) 
10000.0

>  <label>  (244) 
0

$$$$
CHEMBL4846472
     RDKit          3D

  0  0  0  0  0  0  0  0  0  0999 V3000
M  V30 BEGIN CTAB
M  V30 COUNTS 55 58 0 0 1
M  V30 BEGIN ATOM
M  V30 1 C 12.329498 2.861695 -16.783758 0
M  V30 2 O 11.365952 3.334668 -15.854776 0
M  V30 3 C 10.357966 2.476407 -15.467762 0
M  V30 4 C 10.336294 1.096801 -15.797106 0
M  V30 5 C 9.270813 0.277920 -15.380642 0
M  V30 6 C 8.204639 0.827360 -14.646840 0
M  V30 7 Cl 6.886052 -0.162699 -14.133885 0
M  V30 8 C 8.219746 2.193541 -14.317281 0
M  V30 9 C 9.297382 3.017241 -14.701778 0
M  V30 10 C 9.281404 4.460819 -14.301620 0 CFG=2
M  V30 11 C 10.427457 5.124769 -13.576502 0
M  V30 12 C 9.133434 4.843924 -12.843677 0 CFG=1
M  V30 13 C 8.150105 5.934439 -12.462459 0
M  V30 14 N 8.486022 6.572323 -11.174099 0 CHG=1
M  V30 15 C 9.662037 7.463583 -11.221929 0
M  V30 16 C 9.737018 8.364799 -9.985019 0
M  V30 17 C 11.175190 8.857194 -9.724310 0
M  V30 18 O 11.286020 9.530704 -8.476566 0
M  V30 19 C 11.338825 8.801423 -7.311504 0
M  V30 20 C 11.206415 7.394247 -7.287414 0
M  V30 21 C 11.286021 6.700437 -6.079914 0
M  V30 22 C 11.542319 7.385599 -4.888542 0
M  V30 23 C 11.758642 6.677644 -3.641291 0
M  V30 24 C 12.086021 7.320880 -2.513767 0
M  V30 25 C 12.201372 8.771946 -2.473536 0
M  V30 26 O 12.486021 9.372325 -1.446864 0
M  V30 27 N 11.976767 9.418506 -3.643199 0
M  V30 28 C 11.679976 8.783164 -4.882384 0
M  V30 29 C 11.559405 9.496946 -6.095979 0
M  V30 30 H 13.045914 3.654620 -16.997982 0
M  V30 31 H 12.886023 2.014745 -16.386446 0
M  V30 32 H 11.861465 2.571048 -17.725134 0
M  V30 33 H 11.129747 0.637175 -16.365934 0
M  V30 34 H 9.275869 -0.771500 -15.630222 0
M  V30 35 H 7.399491 2.609560 -13.751214 0
M  V30 36 H 8.759643 5.057705 -15.046860 0
M  V30 37 H 11.289961 4.511282 -13.322732 0
M  V30 38 H 10.650739 6.159772 -13.826008 0
M  V30 39 H 9.181550 4.028262 -12.123268 0
M  V30 40 H 8.085951 6.683643 -13.252209 0
M  V30 41 H 7.159835 5.486300 -12.372631 0
M  V30 42 H 7.662630 7.120544 -10.879107 0
M  V30 43 H 10.551976 6.837101 -11.288999 0
M  V30 44 H 9.638865 8.084023 -12.119211 0
M  V30 45 H 9.063991 9.215721 -10.100150 0
M  V30 46 H 9.355893 7.820059 -9.122680 0
M  V30 47 H 11.904622 8.048213 -9.785690 0
M  V30 48 H 11.468575 9.556822 -10.505132 0
M  V30 49 H 11.063647 6.805640 -8.178987 0
M  V30 50 H 11.239991 5.633559 -6.091887 0
M  V30 51 H 11.686061 5.611312 -3.652733 0
M  V30 52 H 12.276408 6.748263 -1.620917 0
M  V30 53 H 12.051877 10.424302 -3.633914 0
M  V30 54 H 11.672649 10.571150 -6.108929 0
M  V30 55 H 8.621579 5.861893 -10.469997 0
M  V30 END ATOM
M  V30 BEGIN BOND
M  V30 1 1 2 1
M  V30 2 1 3 2
M  V30 3 1 4 3
M  V30 4 2 5 4
M  V30 5 1 6 5
M  V30 6 1 7 6
M  V30 7 2 8 6
M  V30 8 2 9 3
M  V30 9 1 9 8
M  V30 10 1 10 9
M  V30 11 1 11 10
M  V30 12 1 12 10
M  V30 13 1 12 11
M  V30 14 1 13 12
M  V30 15 1 14 13
M  V30 16 1 15 14
M  V30 17 1 16 15
M  V30 18 1 17 16
M  V30 19 1 18 17
M  V30 20 1 19 18
M  V30 21 1 20 19
M  V30 22 2 21 20
M  V30 23 1 22 21
M  V30 24 1 23 22
M  V30 25 2 24 23
M  V30 26 1 25 24
M  V30 27 2 26 25
M  V30 28 1 27 25
M  V30 29 2 28 22
M  V30 30 1 28 27
M  V30 31 2 29 19
M  V30 32 1 29 28
M  V30 33 1 30 1
M  V30 34 1 31 1
M  V30 35 1 32 1
M  V30 36 1 33 4
M  V30 37 1 34 5
M  V30 38 1 35 8
M  V30 39 1 10 36 CFG=3
M  V30 40 1 37 11
M  V30 41 1 38 11
M  V30 42 1 12 39 CFG=1
M  V30 43 1 40 13
M  V30 44 1 41 13
M  V30 45 1 42 14
M  V30 46 1 43 15
M  V30 47 1 44 15
M  V30 48 1 45 16
M  V30 49 1 46 16
M  V30 50 1 47 17
M  V30 51 1 48 17
M  V30 52 1 49 20
M  V30 53 1 50 21
M  V30 54 1 51 23
M  V30 55 1 52 24
M  V30 56 1 53 27
M  V30 57 1 54 29
M  V30 58 1 55 14
M  V30 END BOND
M  V30 END CTAB
M  END
>  <b_m_subgroup_collapsed>  (245) 
0

>  <r_i_docking_score>  (245) 
-8.7127465959664505

>  <s_m_subgroup_title>  (245) 
glide-dock_SP_D22_pv

>  <s_m_subgroupid>  (245) 
glide-dock_SP_D22_pv

>  <Molecule ChEMBL ID>  (245) 
CHEMBL4846472

>  <Standard Type>  (245) 
Ki

>  <Standard Value>  (245) 
32.9

>  <label>  (245) 
1

$$$$
CHEMBL5434856
     RDKit          3D

  0  0  0  0  0  0  0  0  0  0999 V3000
M  V30 BEGIN CTAB
M  V30 COUNTS 52 55 0 0 1
M  V30 BEGIN ATOM
M  V30 1 C 13.863069 5.154534 -16.646967 0
M  V30 2 O 12.886027 4.172320 -16.328613 0
M  V30 3 C 12.010128 4.447929 -15.301857 0
M  V30 4 C 12.103772 5.571214 -14.448421 0
M  V30 5 C 11.134793 5.755510 -13.446873 0
M  V30 6 C 10.086982 4.816220 -13.325095 0
M  V30 7 C 8.935836 4.982543 -12.329082 0 CFG=1
M  V30 8 C 9.330310 4.978557 -10.841187 0
M  V30 9 C 9.816620 6.344676 -10.320457 0
M  V30 10 N 8.886024 7.453553 -10.673862 0 CFG=1 CHG=1
M  V30 11 C 9.285057 8.787227 -10.165683 0
M  V30 12 C 9.443496 8.848789 -8.639143 0
M  V30 13 C 10.926542 8.860737 -8.256667 0
M  V30 14 C 11.153824 8.773945 -6.795259 0
M  V30 15 N 11.174264 7.599159 -6.163571 0
M  V30 16 C 11.509335 7.795197 -4.831500 0
M  V30 17 C 11.686040 6.791723 -3.863843 0
M  V30 18 C 12.086020 7.096435 -2.552817 0
M  V30 19 C 12.291398 8.436007 -2.174737 0
M  V30 20 C 12.085933 9.465905 -3.109788 0
M  V30 21 C 11.705367 9.145233 -4.426647 0
M  V30 22 S 11.398791 10.204579 -5.795943 0
M  V30 23 C 8.571987 7.514399 -12.119064 0
M  V30 24 C 8.025804 6.177615 -12.646894 0
M  V30 25 N 9.999714 3.735244 -14.129500 0
M  V30 26 C 10.941087 3.556860 -15.080193 0
M  V30 27 H 14.477030 4.795443 -17.472771 0
M  V30 28 H 13.394167 6.087193 -16.963551 0
M  V30 29 H 14.529799 5.359922 -15.808461 0
M  V30 30 H 12.896111 6.298275 -14.542643 0
M  V30 31 H 11.216058 6.618400 -12.811036 0
M  V30 32 H 8.313525 4.095119 -12.463021 0
M  V30 33 H 8.446506 4.706385 -10.261049 0
M  V30 34 H 10.065028 4.197814 -10.641181 0
M  V30 35 H 10.813596 6.572345 -10.693076 0
M  V30 36 H 9.913442 6.267500 -9.237810 0
M  V30 37 H 10.203273 9.100180 -10.663335 0
M  V30 38 H 8.510720 9.500984 -10.453206 0
M  V30 39 H 8.970191 9.752090 -8.252977 0
M  V30 40 H 8.914609 8.025073 -8.156490 0
M  V30 41 H 11.458775 8.035133 -8.729281 0
M  V30 42 H 11.391484 9.772292 -8.628194 0
M  V30 43 H 11.523664 5.772223 -4.156626 0
M  V30 44 H 12.230963 6.293211 -1.846771 0
M  V30 45 H 12.588875 8.678583 -1.164637 0
M  V30 46 H 12.218119 10.496538 -2.813777 0
M  V30 47 H 9.463408 7.836498 -12.646861 0
M  V30 48 H 7.820114 8.286252 -12.292230 0
M  V30 49 H 7.851688 6.229036 -13.719496 0
M  V30 50 H 7.051265 6.008799 -12.184999 0
M  V30 51 H 10.826888 2.679929 -15.700303 0
M  V30 52 H 7.965746 7.294874 -10.246871 0
M  V30 END ATOM
M  V30 BEGIN BOND
M  V30 1 1 2 1
M  V30 2 1 3 2
M  V30 3 1 4 3
M  V30 4 2 5 4
M  V30 5 1 6 5
M  V30 6 1 7 6
M  V30 7 1 8 7
M  V30 8 1 9 8
M  V30 9 1 10 9
M  V30 10 1 11 10
M  V30 11 1 12 11
M  V30 12 1 13 12
M  V30 13 1 14 13
M  V30 14 2 15 14
M  V30 15 1 16 15
M  V30 16 2 17 16
M  V30 17 1 18 17
M  V30 18 2 19 18
M  V30 19 1 20 19
M  V30 20 1 21 16
M  V30 21 2 21 20
M  V30 22 1 22 14
M  V30 23 1 22 21
M  V30 24 1 23 10
M  V30 25 1 24 7
M  V30 26 1 24 23
M  V30 27 2 25 6
M  V30 28 2 26 3
M  V30 29 1 26 25
M  V30 30 1 27 1
M  V30 31 1 28 1
M  V30 32 1 29 1
M  V30 33 1 30 4
M  V30 34 1 31 5
M  V30 35 1 7 32 CFG=1
M  V30 36 1 33 8
M  V30 37 1 34 8
M  V30 38 1 35 9
M  V30 39 1 36 9
M  V30 40 1 37 11
M  V30 41 1 38 11
M  V30 42 1 39 12
M  V30 43 1 40 12
M  V30 44 1 41 13
M  V30 45 1 42 13
M  V30 46 1 43 17
M  V30 47 1 44 18
M  V30 48 1 45 19
M  V30 49 1 46 20
M  V30 50 1 47 23
M  V30 51 1 48 23
M  V30 52 1 49 24
M  V30 53 1 50 24
M  V30 54 1 51 26
M  V30 55 1 10 52 CFG=1
M  V30 END BOND
M  V30 END CTAB
M  END
>  <b_m_subgroup_collapsed>  (246) 
0

>  <r_i_docking_score>  (246) 
-8.7064076723462005

>  <s_m_subgroup_title>  (246) 
glide-dock_SP_D22_pv

>  <s_m_subgroupid>  (246) 
glide-dock_SP_D22_pv

>  <Molecule ChEMBL ID>  (246) 
CHEMBL5434856

>  <Standard Type>  (246) 
Ki

>  <Standard Value>  (246) 
17400.0

>  <label>  (246) 
0

$$$$
CHEMBL2387229
     RDKit          3D

  0  0  0  0  0  0  0  0  0  0999 V3000
M  V30 BEGIN CTAB
M  V30 COUNTS 61 65 0 0 1
M  V30 BEGIN ATOM
M  V30 1 C 10.392205 -1.230162 -17.969135 0
M  V30 2 C 11.174876 0.064267 -17.846792 0
M  V30 3 C 12.146277 0.389752 -18.722553 0
M  V30 4 C 12.883266 1.671943 -18.645544 0
M  V30 5 O 13.795247 1.950738 -19.420849 0
M  V30 6 O 12.493115 2.527197 -17.647234 0
M  V30 7 C 11.502677 2.229884 -16.732635 0
M  V30 8 C 11.158796 3.193071 -15.759343 0
M  V30 9 Cl 11.976778 4.716799 -15.722318 0
M  V30 10 C 10.125788 2.939240 -14.830340 0
M  V30 11 O 9.757995 3.956929 -13.977701 0
M  V30 12 C 8.423734 3.935052 -13.481828 0
M  V30 13 C 7.934506 5.371741 -13.286636 0
M  V30 14 C 8.654546 6.142628 -12.174795 0
M  V30 15 C 8.420585 5.559551 -10.766827 0
M  V30 16 N 8.886213 6.458221 -9.677705 0 CFG=2 CHG=1
M  V30 17 C 10.343690 6.744258 -9.753696 0
M  V30 18 C 10.792249 7.736623 -8.677730 0
M  V30 19 C 10.394799 7.267121 -7.266692 0 CFG=1
M  V30 20 C 10.781307 8.282490 -6.224753 0
M  V30 21 N 10.556529 9.574299 -6.431722 0
M  V30 22 O 11.002746 10.282376 -5.283498 0
M  V30 23 C 11.482232 9.382249 -4.348893 0
M  V30 24 C 12.000175 9.567844 -3.064327 0
M  V30 25 C 12.379874 8.422132 -2.339125 0
M  V30 26 F 12.885376 8.568832 -1.095084 0
M  V30 27 C 12.213746 7.132671 -2.899845 0
M  V30 28 C 11.686723 6.974118 -4.204489 0
M  V30 29 C 11.330185 8.126614 -4.937272 0
M  V30 30 C 8.894564 6.949944 -7.228975 0
M  V30 31 C 8.525105 5.945547 -8.331402 0
M  V30 32 C 9.503737 1.668911 -14.828568 0
M  V30 33 C 9.844217 0.704886 -15.791760 0
M  V30 34 C 10.821618 0.993952 -16.768278 0
M  V30 35 H 10.486003 -1.826336 -17.062824 0
M  V30 36 H 9.334507 -1.028625 -18.140923 0
M  V30 37 H 10.756528 -1.820515 -18.809160 0
M  V30 38 H 12.409495 -0.284442 -19.524981 0
M  V30 39 H 7.733603 3.449836 -14.174343 0
M  V30 40 H 8.393468 3.376819 -12.548231 0
M  V30 41 H 8.086828 5.900337 -14.227010 0
M  V30 42 H 6.859402 5.373512 -13.092804 0
M  V30 43 H 9.716174 6.168955 -12.418289 0
M  V30 44 H 8.306253 7.173978 -12.199798 0
M  V30 45 H 7.352818 5.381547 -10.644518 0
M  V30 46 H 8.913809 4.594954 -10.665032 0
M  V30 47 H 10.885826 5.809646 -9.631527 0
M  V30 48 H 10.618978 7.163061 -10.718717 0
M  V30 49 H 11.873100 7.878847 -8.735521 0
M  V30 50 H 10.345739 8.706522 -8.899902 0
M  V30 51 H 10.936110 6.343843 -7.060605 0
M  V30 52 H 12.088513 10.556145 -2.644387 0
M  V30 53 H 12.492512 6.259099 -2.328573 0
M  V30 54 H 11.562482 5.988666 -4.628590 0
M  V30 55 H 8.627215 6.540184 -6.255137 0
M  V30 56 H 8.314038 7.864329 -7.345026 0
M  V30 57 H 7.461111 5.746078 -8.279473 0
M  V30 58 H 9.022487 4.992761 -8.157788 0
M  V30 59 H 8.746319 1.418478 -14.100337 0
M  V30 60 H 9.326305 -0.242670 -15.780355 0
M  V30 61 H 8.347675 7.310541 -9.804116 0
M  V30 END ATOM
M  V30 BEGIN BOND
M  V30 1 1 2 1
M  V30 2 2 3 2
M  V30 3 1 4 3
M  V30 4 2 5 4
M  V30 5 1 6 4
M  V30 6 1 7 6
M  V30 7 1 8 7
M  V30 8 1 9 8
M  V30 9 2 10 8
M  V30 10 1 11 10
M  V30 11 1 12 11
M  V30 12 1 13 12
M  V30 13 1 14 13
M  V30 14 1 15 14
M  V30 15 1 16 15
M  V30 16 1 17 16
M  V30 17 1 18 17
M  V30 18 1 19 18
M  V30 19 1 20 19
M  V30 20 2 21 20
M  V30 21 1 22 21
M  V30 22 1 23 22
M  V30 23 1 24 23
M  V30 24 2 25 24
M  V30 25 1 26 25
M  V30 26 1 27 25
M  V30 27 2 28 27
M  V30 28 1 29 20
M  V30 29 2 29 23
M  V30 30 1 29 28
M  V30 31 1 30 19
M  V30 32 1 31 16
M  V30 33 1 31 30
M  V30 34 1 32 10
M  V30 35 2 33 32
M  V30 36 1 34 2
M  V30 37 2 34 7
M  V30 38 1 34 33
M  V30 39 1 35 1
M  V30 40 1 36 1
M  V30 41 1 37 1
M  V30 42 1 38 3
M  V30 43 1 39 12
M  V30 44 1 40 12
M  V30 45 1 41 13
M  V30 46 1 42 13
M  V30 47 1 43 14
M  V30 48 1 44 14
M  V30 49 1 45 15
M  V30 50 1 46 15
M  V30 51 1 47 17
M  V30 52 1 48 17
M  V30 53 1 49 18
M  V30 54 1 50 18
M  V30 55 1 19 51 CFG=1
M  V30 56 1 52 24
M  V30 57 1 53 27
M  V30 58 1 54 28
M  V30 59 1 55 30
M  V30 60 1 56 30
M  V30 61 1 57 31
M  V30 62 1 58 31
M  V30 63 1 59 32
M  V30 64 1 60 33
M  V30 65 1 16 61 CFG=3
M  V30 END BOND
M  V30 END CTAB
M  END
>  <b_m_subgroup_collapsed>  (247) 
0

>  <r_i_docking_score>  (247) 
-8.7051691037756296

>  <s_m_subgroup_title>  (247) 
glide-dock_SP_D22_pv

>  <s_m_subgroupid>  (247) 
glide-dock_SP_D22_pv

>  <Molecule ChEMBL ID>  (247) 
CHEMBL2387229

>  <Standard Type>  (247) 
Ki

>  <Standard Value>  (247) 
2.6

>  <label>  (247) 
1

$$$$
CHEMBL4071189
     RDKit          3D

  0  0  0  0  0  0  0  0  0  0999 V3000
M  V30 BEGIN CTAB
M  V30 COUNTS 67 71 0 0 1
M  V30 BEGIN ATOM
M  V30 1 C 11.825615 10.723752 -6.221296 0
M  V30 2 O 11.162296 10.467459 -4.989399 0
M  V30 3 C 11.522449 9.294418 -4.367160 0
M  V30 4 C 12.085474 9.383101 -3.080482 0
M  V30 5 C 12.458101 8.227451 -2.378603 0
M  V30 6 C 12.258577 6.971130 -2.972265 0
M  V30 7 C 11.686323 6.883234 -4.255036 0
M  V30 8 C 11.286107 8.034248 -4.975054 0
M  V30 9 N 10.626466 8.008417 -6.222178 0
M  V30 10 C 9.322310 7.382463 -6.278060 0
M  V30 11 C 9.639485 7.198720 -7.766577 0
M  V30 12 C 9.091178 5.941813 -8.431621 0
M  V30 13 C 9.657974 5.784550 -9.839752 0
M  V30 14 N 9.276782 6.920340 -10.713753 0 CHG=1
M  V30 15 C 9.765922 6.786024 -12.114324 0
M  V30 16 C 9.273321 5.531055 -12.869997 0
M  V30 17 C 10.191716 4.287762 -12.775136 0
M  V30 18 S 10.217772 3.235950 -14.263928 0
M  V30 19 C 8.580196 2.578853 -14.250673 0
M  V30 20 N 7.512750 3.263240 -13.846865 0
M  V30 21 N 6.447857 2.435267 -14.056952 0
M  V30 22 C 6.938509 1.318231 -14.603498 0
M  V30 23 C 6.032244 0.268605 -15.061671 0
M  V30 24 C 6.137532 -0.250651 -16.370041 0
M  V30 25 C 5.173597 -1.157811 -16.853634 0
M  V30 26 C 4.091456 -1.536923 -16.036690 0
M  V30 27 C 3.980663 -1.023963 -14.730859 0
M  V30 28 C 4.951172 -0.128258 -14.243419 0
M  V30 29 N 8.289241 1.342149 -14.705215 0
M  V30 30 C 9.214187 0.328524 -15.184971 0
M  V30 31 C 9.707232 8.213538 -10.125797 0
M  V30 32 C 9.225907 8.374573 -8.675684 0
M  V30 33 C 11.105133 7.153088 -7.287268 0
M  V30 34 H 11.734777 11.773418 -6.456518 0
M  V30 35 H 12.885625 10.473257 -6.170526 0
M  V30 36 H 11.381303 10.205351 -7.066619 0
M  V30 37 H 12.229449 10.356136 -2.630967 0
M  V30 38 H 12.886492 8.303825 -1.390963 0
M  V30 39 H 12.531313 6.070659 -2.441447 0
M  V30 40 H 11.513953 5.903862 -4.675228 0
M  V30 41 H 8.486838 8.055530 -6.088840 0
M  V30 42 H 9.269365 6.450372 -5.712203 0
M  V30 43 H 8.002502 5.968432 -8.471941 0
M  V30 44 H 9.346031 5.057718 -7.845544 0
M  V30 45 H 9.294518 4.842725 -10.239036 0
M  V30 46 H 10.743645 5.756146 -9.787876 0
M  V30 47 H 10.854304 6.854021 -12.151252 0
M  V30 48 H 9.395909 7.663167 -12.646744 0
M  V30 49 H 9.192788 5.775548 -13.929381 0
M  V30 50 H 8.258018 5.301305 -12.548053 0
M  V30 51 H 9.950381 3.660737 -11.918987 0
M  V30 52 H 11.223805 4.612092 -12.650961 0
M  V30 53 H 6.938865 0.062143 -17.021938 0
M  V30 54 H 5.254699 -1.550569 -17.856869 0
M  V30 55 H 3.348194 -2.226479 -16.411741 0
M  V30 56 H 3.144076 -1.311967 -14.113110 0
M  V30 57 H 4.844350 0.289055 -13.251633 0
M  V30 58 H 9.693342 0.665110 -16.107489 0
M  V30 59 H 9.982152 0.150209 -14.427364 0
M  V30 60 H 8.699059 -0.613837 -15.370544 0
M  V30 61 H 10.796413 8.291297 -10.160753 0
M  V30 62 H 9.310881 9.031404 -10.727979 0
M  V30 63 H 8.145919 8.501417 -8.647731 0
M  V30 64 H 9.607664 9.318343 -8.290165 0
M  V30 65 H 11.433220 6.168038 -6.951195 0
M  V30 66 H 11.824798 7.629859 -7.953934 0
M  V30 67 H 8.260580 6.958241 -10.729428 0
M  V30 END ATOM
M  V30 BEGIN BOND
M  V30 1 1 2 1
M  V30 2 1 3 2
M  V30 3 2 4 3
M  V30 4 1 5 4
M  V30 5 2 6 5
M  V30 6 1 7 6
M  V30 7 1 8 3
M  V30 8 2 8 7
M  V30 9 1 9 8
M  V30 10 1 10 9
M  V30 11 1 11 10
M  V30 12 1 12 11
M  V30 13 1 13 12
M  V30 14 1 14 13
M  V30 15 1 15 14
M  V30 16 1 16 15
M  V30 17 1 17 16
M  V30 18 1 18 17
M  V30 19 1 19 18
M  V30 20 2 20 19
M  V30 21 1 21 20
M  V30 22 2 22 21
M  V30 23 1 23 22
M  V30 24 2 24 23
M  V30 25 1 25 24
M  V30 26 2 26 25
M  V30 27 1 27 26
M  V30 28 1 28 23
M  V30 29 2 28 27
M  V30 30 1 29 19
M  V30 31 1 29 22
M  V30 32 1 30 29
M  V30 33 1 31 14
M  V30 34 1 32 11
M  V30 35 1 32 31
M  V30 36 1 33 9
M  V30 37 1 33 11
M  V30 38 1 34 1
M  V30 39 1 35 1
M  V30 40 1 36 1
M  V30 41 1 37 4
M  V30 42 1 38 5
M  V30 43 1 39 6
M  V30 44 1 40 7
M  V30 45 1 41 10
M  V30 46 1 42 10
M  V30 47 1 43 12
M  V30 48 1 44 12
M  V30 49 1 45 13
M  V30 50 1 46 13
M  V30 51 1 47 15
M  V30 52 1 48 15
M  V30 53 1 49 16
M  V30 54 1 50 16
M  V30 55 1 51 17
M  V30 56 1 52 17
M  V30 57 1 53 24
M  V30 58 1 54 25
M  V30 59 1 55 26
M  V30 60 1 56 27
M  V30 61 1 57 28
M  V30 62 1 58 30
M  V30 63 1 59 30
M  V30 64 1 60 30
M  V30 65 1 61 31
M  V30 66 1 62 31
M  V30 67 1 63 32
M  V30 68 1 64 32
M  V30 69 1 65 33
M  V30 70 1 66 33
M  V30 71 1 67 14
M  V30 END BOND
M  V30 END CTAB
M  END
>  <b_m_subgroup_collapsed>  (248) 
0

>  <r_i_docking_score>  (248) 
-8.6988418529891298

>  <s_m_subgroup_title>  (248) 
glide-dock_SP_D22_pv

>  <s_m_subgroupid>  (248) 
glide-dock_SP_D22_pv

>  <Molecule ChEMBL ID>  (248) 
CHEMBL4071189

>  <Standard Type>  (248) 
Ki

>  <Standard Value>  (248) 
37579.0

>  <label>  (248) 
0

$$$$
CHEMBL77744
     RDKit          3D

  0  0  0  0  0  0  0  0  0  0999 V3000
M  V30 BEGIN CTAB
M  V30 COUNTS 57 60 0 0 1
M  V30 BEGIN ATOM
M  V30 1 C 11.909853 8.422451 -3.009187 0
M  V30 2 C 11.686900 9.677261 -3.606781 0
M  V30 3 C 11.286071 9.764923 -4.954939 0
M  V30 4 C 11.088161 8.585695 -5.701170 0
M  V30 5 C 10.715393 8.633506 -7.169243 0
M  V30 6 C 9.209101 8.385077 -7.426613 0
M  V30 7 N 8.937648 7.684666 -8.705377 0 CFG=2 CHG=1
M  V30 8 C 9.301417 6.246157 -8.631262 0
M  V30 9 C 8.885962 5.517133 -9.902514 0
M  V30 10 C 9.516859 6.161682 -11.145502 0 CFG=1
M  V30 11 C 9.167635 5.355662 -12.351068 0
M  V30 12 C 9.926558 4.519601 -13.118073 0
M  V30 13 C 8.986425 3.872700 -13.977809 0
M  V30 14 C 9.228035 2.764660 -14.979053 0
M  V30 15 C 10.735347 2.518090 -15.214025 0
M  V30 16 C 10.983573 1.373138 -16.207205 0
M  V30 17 C 10.319408 0.079860 -15.714366 0
M  V30 18 C 8.814451 0.287314 -15.492432 0
M  V30 19 C 8.542418 1.455626 -14.526587 0
M  V30 20 N 7.756577 4.338324 -13.805172 0
M  V30 21 N 7.877780 5.235356 -12.811756 0
M  V30 22 C 9.142885 7.647432 -11.225707 0
M  V30 23 C 9.487878 8.374602 -9.908860 0
M  V30 24 C 11.286398 7.328739 -5.091432 0
M  V30 25 C 11.699434 7.245277 -3.749264 0
M  V30 26 H 12.226640 8.365851 -1.977359 0
M  V30 27 H 11.841455 10.572958 -3.025979 0
M  V30 28 H 11.136499 10.733819 -5.409648 0
M  V30 29 H 11.007215 9.599555 -7.583919 0
M  V30 30 H 11.345214 7.901434 -7.672690 0
M  V30 31 H 8.770251 7.799108 -6.617732 0
M  V30 32 H 8.674213 9.333858 -7.440646 0
M  V30 33 H 10.372137 6.116307 -8.473672 0
M  V30 34 H 8.798397 5.785410 -7.779181 0
M  V30 35 H 9.184318 4.470353 -9.828922 0
M  V30 36 H 7.796350 5.521816 -9.987376 0
M  V30 37 H 10.597991 6.171987 -11.027474 0
M  V30 38 H 10.986257 4.340765 -13.035603 0
M  V30 39 H 8.788972 3.059243 -15.933438 0
M  V30 40 H 11.212998 3.426697 -15.579803 0
M  V30 41 H 11.222803 2.272084 -14.269770 0
M  V30 42 H 10.592167 1.642416 -17.190239 0
M  V30 43 H 12.055524 1.216057 -16.332203 0
M  V30 44 H 10.484568 -0.724585 -16.433510 0
M  V30 45 H 10.787487 -0.230584 -14.778785 0
M  V30 46 H 8.326618 0.482121 -16.448324 0
M  V30 47 H 8.367644 -0.627098 -15.098086 0
M  V30 48 H 8.884895 1.182938 -13.529428 0
M  V30 49 H 7.465123 1.606817 -14.441856 0
M  V30 50 H 7.077774 5.715740 -12.418905 0
M  V30 51 H 9.671663 8.121865 -12.053864 0
M  V30 52 H 8.086773 7.752530 -11.451551 0
M  V30 53 H 9.091097 9.389570 -9.945280 0
M  V30 54 H 10.571953 8.461767 -9.832925 0
M  V30 55 H 11.137918 6.418642 -5.656401 0
M  V30 56 H 11.859480 6.277989 -3.292502 0
M  V30 57 H 7.926440 7.687881 -8.828403 0
M  V30 END ATOM
M  V30 BEGIN BOND
M  V30 1 2 2 1
M  V30 2 1 3 2
M  V30 3 2 4 3
M  V30 4 1 5 4
M  V30 5 1 6 5
M  V30 6 1 7 6
M  V30 7 1 8 7
M  V30 8 1 9 8
M  V30 9 1 10 9
M  V30 10 1 11 10
M  V30 11 2 12 11
M  V30 12 1 13 12
M  V30 13 1 14 13
M  V30 14 1 15 14
M  V30 15 1 16 15
M  V30 16 1 17 16
M  V30 17 1 18 17
M  V30 18 1 19 14
M  V30 19 1 19 18
M  V30 20 2 20 13
M  V30 21 1 21 11
M  V30 22 1 21 20
M  V30 23 1 22 10
M  V30 24 1 23 7
M  V30 25 1 23 22
M  V30 26 1 24 4
M  V30 27 1 25 1
M  V30 28 2 25 24
M  V30 29 1 26 1
M  V30 30 1 27 2
M  V30 31 1 28 3
M  V30 32 1 29 5
M  V30 33 1 30 5
M  V30 34 1 31 6
M  V30 35 1 32 6
M  V30 36 1 33 8
M  V30 37 1 34 8
M  V30 38 1 35 9
M  V30 39 1 36 9
M  V30 40 1 10 37 CFG=1
M  V30 41 1 38 12
M  V30 42 1 39 14
M  V30 43 1 40 15
M  V30 44 1 41 15
M  V30 45 1 42 16
M  V30 46 1 43 16
M  V30 47 1 44 17
M  V30 48 1 45 17
M  V30 49 1 46 18
M  V30 50 1 47 18
M  V30 51 1 48 19
M  V30 52 1 49 19
M  V30 53 1 50 21
M  V30 54 1 51 22
M  V30 55 1 52 22
M  V30 56 1 53 23
M  V30 57 1 54 23
M  V30 58 1 55 24
M  V30 59 1 56 25
M  V30 60 1 7 57 CFG=3
M  V30 END BOND
M  V30 END CTAB
M  END
>  <b_m_subgroup_collapsed>  (249) 
0

>  <r_i_docking_score>  (249) 
-8.6966664504863207

>  <s_m_subgroup_title>  (249) 
glide-dock_SP_D22_pv

>  <s_m_subgroupid>  (249) 
glide-dock_SP_D22_pv

>  <Molecule ChEMBL ID>  (249) 
CHEMBL77744

>  <Standard Type>  (249) 
Ki

>  <Standard Value>  (249) 
61.0

>  <label>  (249) 
1

$$$$
CHEMBL4440708
     RDKit          3D

  0  0  0  0  0  0  0  0  0  0999 V3000
M  V30 BEGIN CTAB
M  V30 COUNTS 49 51 0 0 1
M  V30 BEGIN ATOM
M  V30 1 O 7.685807 6.964410 -13.044324 0
M  V30 2 C 8.682959 6.408927 -12.205191 0 CFG=1
M  V30 3 C 9.761226 5.745767 -13.071036 0
M  V30 4 C 11.119569 6.155784 -13.061509 0
M  V30 5 C 12.025592 5.644688 -14.012044 0
M  V30 6 C 11.596070 4.712908 -14.972982 0
M  V30 7 Cl 12.678677 4.172726 -16.199760 0
M  V30 8 C 10.267205 4.255301 -14.957439 0
M  V30 9 C 9.359252 4.771955 -14.015781 0
M  V30 10 C 9.220879 7.589394 -11.350659 0
M  V30 11 C 9.926805 7.121128 -10.066997 0
M  V30 12 N 9.022511 6.255774 -9.265537 0 CFG=2 CHG=1
M  V30 13 C 9.529029 5.970259 -7.896870 0
M  V30 14 C 8.998044 6.954481 -6.837758 0
M  V30 15 C 9.431355 8.387105 -7.086266 0
M  V30 16 C 10.298685 9.139151 -6.383474 0
M  V30 17 C 11.062025 8.813771 -5.169422 0
M  V30 18 C 11.490153 7.515678 -4.800072 0
M  V30 19 C 12.096072 7.293559 -3.545760 0
M  V30 20 C 12.311904 8.371445 -2.667326 0
M  V30 21 F 12.885469 8.172579 -1.458947 0
M  V30 22 C 11.923183 9.665432 -3.045645 0
M  V30 23 C 11.286646 9.878941 -4.278713 0
M  V30 24 C 8.702099 5.025601 -10.029273 0
M  V30 25 C 7.938499 5.377083 -11.314302 0
M  V30 26 H 7.035558 7.369891 -12.483363 0
M  V30 27 H 11.495778 6.906218 -12.385800 0
M  V30 28 H 13.044039 6.001307 -14.030927 0
M  V30 29 H 9.934234 3.540246 -15.694541 0
M  V30 30 H 8.327296 4.456630 -14.062049 0
M  V30 31 H 9.856614 8.248903 -11.940277 0
M  V30 32 H 8.413134 8.246561 -11.046628 0
M  V30 33 H 10.838899 6.570393 -10.293749 0
M  V30 34 H 10.250536 7.997211 -9.512084 0
M  V30 35 H 9.212935 4.973127 -7.595806 0
M  V30 36 H 10.619788 5.944005 -7.889628 0
M  V30 37 H 7.910835 6.927810 -6.819541 0
M  V30 38 H 9.283867 6.620909 -5.844442 0
M  V30 39 H 8.963841 8.853220 -7.941935 0
M  V30 40 H 10.475134 10.137956 -6.754969 0
M  V30 41 H 11.365301 6.676375 -5.466320 0
M  V30 42 H 12.400743 6.296856 -3.259842 0
M  V30 43 H 12.085255 10.493648 -2.372887 0
M  V30 44 H 10.954368 10.875428 -4.534229 0
M  V30 45 H 9.618113 4.480261 -10.262669 0
M  V30 46 H 8.086523 4.360595 -9.423704 0
M  V30 47 H 6.966021 5.771786 -11.018843 0
M  V30 48 H 7.705288 4.467050 -11.866479 0
M  V30 49 H 8.142531 6.750608 -9.153172 0
M  V30 END ATOM
M  V30 BEGIN BOND
M  V30 1 1 2 1 CFG=3
M  V30 2 1 3 2
M  V30 3 1 4 3
M  V30 4 2 5 4
M  V30 5 1 6 5
M  V30 6 1 7 6
M  V30 7 2 8 6
M  V30 8 2 9 3
M  V30 9 1 9 8
M  V30 10 1 10 2
M  V30 11 1 11 10
M  V30 12 1 12 11
M  V30 13 1 13 12
M  V30 14 1 14 13
M  V30 15 1 15 14
M  V30 16 2 16 15
M  V30 17 1 17 16
M  V30 18 1 18 17
M  V30 19 2 19 18
M  V30 20 1 20 19
M  V30 21 1 21 20
M  V30 22 2 22 20
M  V30 23 2 23 17
M  V30 24 1 23 22
M  V30 25 1 24 12
M  V30 26 1 25 2
M  V30 27 1 25 24
M  V30 28 1 26 1
M  V30 29 1 27 4
M  V30 30 1 28 5
M  V30 31 1 29 8
M  V30 32 1 30 9
M  V30 33 1 31 10
M  V30 34 1 32 10
M  V30 35 1 33 11
M  V30 36 1 34 11
M  V30 37 1 35 13
M  V30 38 1 36 13
M  V30 39 1 37 14
M  V30 40 1 38 14
M  V30 41 1 39 15
M  V30 42 1 40 16
M  V30 43 1 41 18
M  V30 44 1 42 19
M  V30 45 1 43 22
M  V30 46 1 44 23
M  V30 47 1 45 24
M  V30 48 1 46 24
M  V30 49 1 47 25
M  V30 50 1 48 25
M  V30 51 1 12 49 CFG=1
M  V30 END BOND
M  V30 END CTAB
M  END
>  <b_m_subgroup_collapsed>  (250) 
0

>  <r_i_docking_score>  (250) 
-8.6950876223691207

>  <s_m_subgroup_title>  (250) 
glide-dock_SP_D22_pv

>  <s_m_subgroupid>  (250) 
glide-dock_SP_D22_pv

>  <Molecule ChEMBL ID>  (250) 
CHEMBL4440708

>  <Standard Type>  (250) 
Ki

>  <Standard Value>  (250) 
29.51

>  <label>  (250) 
1

$$$$
CHEMBL3409243
     RDKit          3D

  0  0  0  0  0  0  0  0  0  0999 V3000
M  V30 BEGIN CTAB
M  V30 COUNTS 67 71 0 0 1
M  V30 BEGIN ATOM
M  V30 1 N 12.187629 10.183426 -6.255614 0
M  V30 2 C 11.395904 10.116298 -5.202332 0
M  V30 3 O 10.486304 10.902101 -5.017002 0
M  V30 4 C 11.723062 9.040561 -4.232758 0
M  V30 5 C 12.070499 9.372086 -2.910534 0
M  V30 6 C 12.403896 8.360157 -1.995219 0
M  V30 7 C 12.370567 7.014948 -2.398909 0
M  V30 8 C 12.021959 6.688289 -3.719735 0
M  V30 9 C 11.686172 7.693795 -4.646999 0
M  V30 10 O 11.414461 7.414519 -5.968319 0
M  V30 11 C 10.425467 6.442558 -6.235096 0
M  V30 12 C 9.127576 7.148535 -6.646878 0
M  V30 13 C 9.222053 7.969761 -7.944751 0
M  V30 14 N 9.600453 7.175555 -9.143798 0 CFG=1 CHG=1
M  V30 15 C 8.772978 5.957337 -9.355027 0
M  V30 16 C 9.051385 5.300105 -10.691296 0
M  V30 17 C 9.772086 5.846364 -11.691133 0
M  V30 18 C 9.973269 5.101979 -12.952552 0
M  V30 19 C 9.225622 4.020164 -13.319713 0
M  V30 20 N 9.608588 3.588026 -14.581392 0
M  V30 21 C 8.990300 2.507843 -15.353511 0
M  V30 22 C 7.832057 1.804389 -14.649228 0
M  V30 23 C 6.691635 2.531428 -14.243103 0
M  V30 24 C 5.683774 1.905227 -13.484198 0
M  V30 25 C 5.747075 0.525422 -13.234608 0
M  V30 26 C 6.841628 -0.225249 -13.705722 0
M  V30 27 C 7.891142 0.417367 -14.394349 0
M  V30 28 C 10.696840 4.351254 -14.999276 0
M  V30 29 C 11.474344 4.289823 -16.171598 0
M  V30 30 C 12.547691 5.180353 -16.349140 0
M  V30 31 C 12.836165 6.130374 -15.353635 0
M  V30 32 C 12.054080 6.197423 -14.183453 0
M  V30 33 C 10.961127 5.315622 -13.974142 0
M  V30 34 C 10.345772 7.243958 -11.513265 0
M  V30 35 C 9.682471 8.016518 -10.360162 0
M  V30 36 H 12.030525 10.903687 -6.940279 0
M  V30 37 H 12.978894 9.558644 -6.334976 0
M  V30 38 H 12.086464 10.406706 -2.599861 0
M  V30 39 H 12.681803 8.625614 -0.988904 0
M  V30 40 H 12.630068 6.227846 -1.705312 0
M  V30 41 H 12.050838 5.661212 -4.033638 0
M  V30 42 H 10.239938 5.817802 -5.363838 0
M  V30 43 H 10.782529 5.780832 -7.025459 0
M  V30 44 H 8.852435 7.831091 -5.848071 0
M  V30 45 H 8.311189 6.426733 -6.710070 0
M  V30 46 H 9.958221 8.762944 -7.809200 0
M  V30 47 H 8.271262 8.471436 -8.121620 0
M  V30 48 H 7.707385 6.172227 -9.298965 0
M  V30 49 H 8.988226 5.225463 -8.576342 0
M  V30 50 H 8.613584 4.318919 -10.792213 0
M  V30 51 H 8.423762 3.547289 -12.780383 0
M  V30 52 H 8.629330 2.927186 -16.293383 0
M  V30 53 H 9.767618 1.785710 -15.604651 0
M  V30 54 H 6.620488 3.590391 -14.445026 0
M  V30 55 H 4.844981 2.482570 -13.124030 0
M  V30 56 H 4.952938 0.046628 -12.685410 0
M  V30 57 H 6.885795 -1.288199 -13.520316 0
M  V30 58 H 8.741083 -0.161511 -14.722974 0
M  V30 59 H 11.253089 3.554609 -16.930773 0
M  V30 60 H 13.149826 5.131597 -17.244175 0
M  V30 61 H 13.665363 6.809687 -15.486652 0
M  V30 62 H 12.309576 6.934299 -13.439544 0
M  V30 63 H 11.420157 7.162912 -11.355730 0
M  V30 64 H 10.197411 7.808909 -12.433624 0
M  V30 65 H 10.257547 8.921422 -10.158593 0
M  V30 66 H 8.682187 8.340515 -10.651367 0
M  V30 67 H 10.539858 6.843492 -8.974898 0
M  V30 END ATOM
M  V30 BEGIN BOND
M  V30 1 1 2 1
M  V30 2 2 3 2
M  V30 3 1 4 2
M  V30 4 2 5 4
M  V30 5 1 6 5
M  V30 6 2 7 6
M  V30 7 1 8 7
M  V30 8 1 9 4
M  V30 9 2 9 8
M  V30 10 1 10 9
M  V30 11 1 11 10
M  V30 12 1 12 11
M  V30 13 1 13 12
M  V30 14 1 14 13
M  V30 15 1 15 14
M  V30 16 1 16 15
M  V30 17 2 17 16
M  V30 18 1 18 17
M  V30 19 2 19 18
M  V30 20 1 20 19
M  V30 21 1 21 20
M  V30 22 1 22 21
M  V30 23 2 23 22
M  V30 24 1 24 23
M  V30 25 2 25 24
M  V30 26 1 26 25
M  V30 27 1 27 22
M  V30 28 2 27 26
M  V30 29 1 28 20
M  V30 30 2 29 28
M  V30 31 1 30 29
M  V30 32 2 31 30
M  V30 33 1 32 31
M  V30 34 1 33 18
M  V30 35 1 33 28
M  V30 36 2 33 32
M  V30 37 1 34 17
M  V30 38 1 35 14
M  V30 39 1 35 34
M  V30 40 1 36 1
M  V30 41 1 37 1
M  V30 42 1 38 5
M  V30 43 1 39 6
M  V30 44 1 40 7
M  V30 45 1 41 8
M  V30 46 1 42 11
M  V30 47 1 43 11
M  V30 48 1 44 12
M  V30 49 1 45 12
M  V30 50 1 46 13
M  V30 51 1 47 13
M  V30 52 1 48 15
M  V30 53 1 49 15
M  V30 54 1 50 16
M  V30 55 1 51 19
M  V30 56 1 52 21
M  V30 57 1 53 21
M  V30 58 1 54 23
M  V30 59 1 55 24
M  V30 60 1 56 25
M  V30 61 1 57 26
M  V30 62 1 58 27
M  V30 63 1 59 29
M  V30 64 1 60 30
M  V30 65 1 61 31
M  V30 66 1 62 32
M  V30 67 1 63 34
M  V30 68 1 64 34
M  V30 69 1 65 35
M  V30 70 1 66 35
M  V30 71 1 14 67 CFG=1
M  V30 END BOND
M  V30 END CTAB
M  END
>  <b_m_subgroup_collapsed>  (251) 
0

>  <r_i_docking_score>  (251) 
-8.69391134938307

>  <s_m_subgroup_title>  (251) 
glide-dock_SP_D22_pv

>  <s_m_subgroupid>  (251) 
glide-dock_SP_D22_pv

>  <Molecule ChEMBL ID>  (251) 
CHEMBL3409243

>  <Standard Type>  (251) 
Ki

>  <Standard Value>  (251) 
31.0

>  <label>  (251) 
1

$$$$
CHEMBL94811
     RDKit          3D

  0  0  0  0  0  0  0  0  0  0999 V3000
M  V30 BEGIN CTAB
M  V30 COUNTS 48 50 0 0 1
M  V30 BEGIN ATOM
M  V30 1 N 10.610452 1.710530 -15.435075 0
M  V30 2 C 9.741263 2.240632 -14.884888 0
M  V30 3 C 8.648749 2.904749 -14.193474 0
M  V30 4 C 7.321493 2.476128 -14.397813 0
M  V30 5 C 6.266884 3.104289 -13.707873 0
M  V30 6 C 6.532477 4.165500 -12.823544 0
M  V30 7 C 7.857427 4.599503 -12.608350 0
M  V30 8 C 8.115623 5.736675 -11.625805 0 CFG=2
M  V30 9 C 9.011582 6.839463 -12.213998 0
M  V30 10 C 9.351204 7.924580 -11.184679 0
M  V30 11 C 9.839577 7.343224 -9.850684 0
M  V30 12 N 8.886111 6.338115 -9.318218 0 CFG=2 CHG=1
M  V30 13 C 9.225719 5.795053 -7.975039 0
M  V30 14 C 9.462245 6.827766 -6.848284 0
M  V30 15 C 10.932635 7.281529 -6.696867 0
M  V30 16 C 11.286586 7.755519 -5.296992 0
M  V30 17 C 11.286085 9.126506 -4.967596 0
M  V30 18 C 11.685705 9.533978 -3.678160 0
M  V30 19 C 12.085508 8.589473 -2.714507 0
M  V30 20 C 12.086156 7.223210 -3.040261 0
M  V30 21 C 11.685038 6.815873 -4.326076 0
M  V30 22 C 8.674339 5.227864 -10.287221 0
M  V30 23 C 8.915425 3.960556 -13.294790 0
M  V30 24 H 7.107589 1.658684 -15.072783 0
M  V30 25 H 5.253515 2.765412 -13.846863 0
M  V30 26 H 5.710934 4.634253 -12.301272 0
M  V30 27 H 7.139251 6.172833 -11.426895 0
M  V30 28 H 8.485125 7.296438 -13.046854 0
M  V30 29 H 9.943988 6.425956 -12.598413 0
M  V30 30 H 8.484118 8.556090 -11.005514 0
M  V30 31 H 10.112636 8.583138 -11.597288 0
M  V30 32 H 9.928110 8.177932 -9.157565 0
M  V30 33 H 10.829865 6.896102 -9.963781 0
M  V30 34 H 10.076303 5.115640 -8.055108 0
M  V30 35 H 8.374512 5.179367 -7.676569 0
M  V30 36 H 9.196358 6.311229 -5.923263 0
M  V30 37 H 8.776687 7.674037 -6.916383 0
M  V30 38 H 11.183637 8.071781 -7.402862 0
M  V30 39 H 11.602760 6.454521 -6.934141 0
M  V30 40 H 10.987862 9.865626 -5.696917 0
M  V30 41 H 11.683629 10.575983 -3.413553 0
M  V30 42 H 12.384887 8.914682 -1.729612 0
M  V30 43 H 12.385883 6.485456 -2.308498 0
M  V30 44 H 11.694254 5.772273 -4.577449 0
M  V30 45 H 9.615821 4.698282 -10.448126 0
M  V30 46 H 7.976750 4.502934 -9.866094 0
M  V30 47 H 9.938869 4.265326 -13.127615 0
M  V30 48 H 7.988523 6.811626 -9.233939 0
M  V30 END ATOM
M  V30 BEGIN BOND
M  V30 1 3 2 1
M  V30 2 1 3 2
M  V30 3 1 4 3
M  V30 4 2 5 4
M  V30 5 1 6 5
M  V30 6 2 7 6
M  V30 7 1 8 7
M  V30 8 1 9 8
M  V30 9 1 10 9
M  V30 10 1 11 10
M  V30 11 1 12 11
M  V30 12 1 13 12
M  V30 13 1 14 13
M  V30 14 1 15 14
M  V30 15 1 16 15
M  V30 16 2 17 16
M  V30 17 1 18 17
M  V30 18 2 19 18
M  V30 19 1 20 19
M  V30 20 1 21 16
M  V30 21 2 21 20
M  V30 22 1 22 8
M  V30 23 1 22 12
M  V30 24 2 23 3
M  V30 25 1 23 7
M  V30 26 1 24 4
M  V30 27 1 25 5
M  V30 28 1 26 6
M  V30 29 1 8 27 CFG=1
M  V30 30 1 28 9
M  V30 31 1 29 9
M  V30 32 1 30 10
M  V30 33 1 31 10
M  V30 34 1 32 11
M  V30 35 1 33 11
M  V30 36 1 34 13
M  V30 37 1 35 13
M  V30 38 1 36 14
M  V30 39 1 37 14
M  V30 40 1 38 15
M  V30 41 1 39 15
M  V30 42 1 40 17
M  V30 43 1 41 18
M  V30 44 1 42 19
M  V30 45 1 43 20
M  V30 46 1 44 21
M  V30 47 1 45 22
M  V30 48 1 46 22
M  V30 49 1 47 23
M  V30 50 1 12 48 CFG=1
M  V30 END BOND
M  V30 END CTAB
M  END
>  <b_m_subgroup_collapsed>  (252) 
0

>  <r_i_docking_score>  (252) 
-8.6926782086296797

>  <s_m_subgroup_title>  (252) 
glide-dock_SP_D22_pv

>  <s_m_subgroupid>  (252) 
glide-dock_SP_D22_pv

>  <Molecule ChEMBL ID>  (252) 
CHEMBL94811

>  <Standard Type>  (252) 
Ki

>  <Standard Value>  (252) 
29.0

>  <label>  (252) 
1

$$$$
CHEMBL349426
     RDKit          3D

  0  0  0  0  0  0  0  0  0  0999 V3000
M  V30 BEGIN CTAB
M  V30 COUNTS 65 69 0 0 1
M  V30 BEGIN ATOM
M  V30 1 C 12.288630 8.361406 -2.250429 0
M  V30 2 C 12.033812 9.485674 -3.054180 0
M  V30 3 C 11.594264 9.324771 -4.381404 0
M  V30 4 C 11.409229 8.034359 -4.928878 0
M  V30 5 N 10.932980 7.892994 -6.246498 0
M  V30 6 C 11.586594 8.659356 -7.301517 0
M  V30 7 C 10.610283 8.897275 -8.460972 0
M  V30 8 N 10.026136 7.618623 -8.938891 0 CHG=1
M  V30 9 C 9.151922 7.801630 -10.120385 0
M  V30 10 C 9.940470 7.882515 -11.437229 0
M  V30 11 C 10.233189 6.498416 -12.049048 0 CFG=1
M  V30 12 C 8.989799 5.883329 -12.724595 0
M  V30 13 C 9.315850 4.541878 -13.392392 0
M  V30 14 C 10.469646 4.643034 -14.405947 0 CFG=2
M  V30 15 N 10.726971 3.311066 -14.941482 0
M  V30 16 C 11.406586 3.091478 -16.150461 0
M  V30 17 N 12.172932 4.082189 -16.650768 0
M  V30 18 C 12.844612 3.831304 -17.771669 0
M  V30 19 N 12.831079 2.699210 -18.469515 0
M  V30 20 C 12.054111 1.696502 -18.010818 0
M  V30 21 C 11.964153 0.484113 -18.721815 0
M  V30 22 C 11.129170 -0.555921 -18.273668 0
M  V30 23 C 10.383532 -0.400588 -17.091429 0
M  V30 24 C 10.474413 0.792710 -16.354223 0
M  V30 25 C 11.298287 1.847271 -16.817192 0
M  V30 26 C 11.724811 5.241367 -13.736000 0
M  V30 27 C 11.438172 6.570127 -13.018137 0
M  V30 28 C 9.349974 6.881407 -7.839451 0
M  V30 29 C 10.309998 6.636856 -6.660670 0
M  V30 30 C 11.685799 6.910096 -4.113738 0
M  V30 31 C 12.102418 7.070416 -2.778158 0
M  V30 32 H 12.613837 8.491377 -1.228112 0
M  V30 33 H 12.142365 10.478828 -2.642595 0
M  V30 34 H 11.372293 10.208603 -4.958742 0
M  V30 35 H 12.455476 8.102883 -7.652284 0
M  V30 36 H 11.960739 9.619043 -6.942835 0
M  V30 37 H 11.123033 9.421682 -9.267770 0
M  V30 38 H 9.796878 9.537468 -8.122941 0
M  V30 39 H 8.515805 8.679783 -9.986078 0
M  V30 40 H 8.485819 6.948520 -10.177634 0
M  V30 41 H 10.869498 8.430601 -11.286106 0
M  V30 42 H 9.374989 8.471260 -12.161191 0
M  V30 43 H 10.485952 5.828675 -11.229100 0
M  V30 44 H 8.204607 5.711392 -11.988402 0
M  V30 45 H 8.557792 6.572347 -13.446743 0
M  V30 46 H 8.419749 4.158733 -13.883439 0
M  V30 47 H 9.574546 3.815835 -12.618295 0
M  V30 48 H 10.160678 5.293742 -15.224178 0
M  V30 49 H 10.174325 2.556211 -14.567994 0
M  V30 50 H 13.465485 4.629856 -18.151497 0
M  V30 51 H 12.532646 0.364932 -19.632545 0
M  V30 52 H 11.059001 -1.469019 -18.842234 0
M  V30 53 H 9.744355 -1.198260 -16.747623 0
M  V30 54 H 9.894557 0.885843 -15.449026 0
M  V30 55 H 12.146255 4.515139 -13.046545 0
M  V30 56 H 12.508505 5.416860 -14.471568 0
M  V30 57 H 12.332221 6.871142 -12.469649 0
M  V30 58 H 11.286580 7.345824 -13.767697 0
M  V30 59 H 8.484097 7.453659 -7.500345 0
M  V30 60 H 8.971140 5.924632 -8.200677 0
M  V30 61 H 11.090507 5.933469 -6.954762 0
M  V30 62 H 9.756888 6.177480 -5.839436 0
M  V30 63 H 11.565612 5.905000 -4.490829 0
M  V30 64 H 12.292924 6.199689 -2.165939 0
M  V30 65 H 10.791609 7.030156 -9.233068 0
M  V30 END ATOM
M  V30 BEGIN BOND
M  V30 1 2 2 1
M  V30 2 1 3 2
M  V30 3 2 4 3
M  V30 4 1 5 4
M  V30 5 1 6 5
M  V30 6 1 7 6
M  V30 7 1 8 7
M  V30 8 1 9 8
M  V30 9 1 10 9
M  V30 10 1 11 10
M  V30 11 1 12 11
M  V30 12 1 13 12
M  V30 13 1 14 13
M  V30 14 1 15 14
M  V30 15 1 16 15
M  V30 16 2 17 16
M  V30 17 1 18 17
M  V30 18 2 19 18
M  V30 19 1 20 19
M  V30 20 2 21 20
M  V30 21 1 22 21
M  V30 22 2 23 22
M  V30 23 1 24 23
M  V30 24 1 25 16
M  V30 25 1 25 20
M  V30 26 2 25 24
M  V30 27 1 26 14
M  V30 28 1 27 11
M  V30 29 1 27 26
M  V30 30 1 28 8
M  V30 31 1 29 5
M  V30 32 1 29 28
M  V30 33 1 30 4
M  V30 34 1 31 1
M  V30 35 2 31 30
M  V30 36 1 32 1
M  V30 37 1 33 2
M  V30 38 1 34 3
M  V30 39 1 35 6
M  V30 40 1 36 6
M  V30 41 1 37 7
M  V30 42 1 38 7
M  V30 43 1 39 9
M  V30 44 1 40 9
M  V30 45 1 41 10
M  V30 46 1 42 10
M  V30 47 1 11 43 CFG=1
M  V30 48 1 44 12
M  V30 49 1 45 12
M  V30 50 1 46 13
M  V30 51 1 47 13
M  V30 52 1 14 48 CFG=3
M  V30 53 1 49 15
M  V30 54 1 50 18
M  V30 55 1 51 21
M  V30 56 1 52 22
M  V30 57 1 53 23
M  V30 58 1 54 24
M  V30 59 1 55 26
M  V30 60 1 56 26
M  V30 61 1 57 27
M  V30 62 1 58 27
M  V30 63 1 59 28
M  V30 64 1 60 28
M  V30 65 1 61 29
M  V30 66 1 62 29
M  V30 67 1 63 30
M  V30 68 1 64 31
M  V30 69 1 65 8
M  V30 END BOND
M  V30 END CTAB
M  END
>  <b_m_subgroup_collapsed>  (253) 
0

>  <r_i_docking_score>  (253) 
-8.6922635644845307

>  <s_m_subgroup_title>  (253) 
glide-dock_SP_D22_pv

>  <s_m_subgroupid>  (253) 
glide-dock_SP_D22_pv

>  <Molecule ChEMBL ID>  (253) 
CHEMBL349426

>  <Standard Type>  (253) 
Ki

>  <Standard Value>  (253) 
3.2

>  <label>  (253) 
1

$$$$
CHEMBL335844
     RDKit          3D

  0  0  0  0  0  0  0  0  0  0999 V3000
M  V30 BEGIN CTAB
M  V30 COUNTS 59 63 0 0 1
M  V30 BEGIN ATOM
M  V30 1 O 8.001107 1.333040 -16.825336 0
M  V30 2 C 7.196079 1.026242 -15.946677 0
M  V30 3 C 6.085690 0.063522 -16.114407 0
M  V30 4 C 5.675482 -0.650117 -17.252359 0
M  V30 5 C 4.491813 -1.416336 -17.133371 0
M  V30 6 C 3.761745 -1.431283 -15.917565 0
M  V30 7 C 4.202528 -0.700558 -14.791766 0
M  V30 8 F 3.487157 -0.686910 -13.640514 0
M  V30 9 C 5.392185 0.024747 -14.930929 0
M  V30 10 C 6.062135 0.945689 -13.987175 0
M  V30 11 O 5.685537 1.146880 -12.831245 0
M  V30 12 N 7.090374 1.513853 -14.680535 0
M  V30 13 C 7.986053 2.568761 -14.188113 0
M  V30 14 C 7.260231 3.718686 -13.460447 0
M  V30 15 C 8.171191 4.939881 -13.283455 0
M  V30 16 C 7.853559 5.775604 -12.035690 0
M  V30 17 C 8.408033 5.144266 -10.738691 0
M  V30 18 N 8.776179 6.168636 -9.732903 0 CFG=1 CHG=1
M  V30 19 C 8.726304 5.646739 -8.338033 0
M  V30 20 C 9.461533 6.536587 -7.338175 0
M  V30 21 C 10.246962 7.573845 -7.677580 0
M  V30 22 C 10.921753 8.418914 -6.686385 0
M  V30 23 C 11.305128 9.686269 -6.998783 0
M  V30 24 N 11.736355 10.303346 -5.846795 0
M  V30 25 C 11.738422 9.413183 -4.789577 0
M  V30 26 C 12.091776 9.578251 -3.440910 0
M  V30 27 C 12.086942 8.468956 -2.589522 0
M  V30 28 C 11.698503 7.218440 -3.087436 0
M  V30 29 F 11.698485 6.172298 -2.246745 0
M  V30 30 C 11.286321 7.059577 -4.428622 0
M  V30 31 C 11.285548 8.161962 -5.316369 0
M  V30 32 C 10.424949 7.926662 -9.142780 0
M  V30 33 C 10.099456 6.755103 -10.054651 0
M  V30 34 H 6.228817 -0.604865 -18.179890 0
M  V30 35 H 4.130702 -1.987245 -17.975782 0
M  V30 36 H 2.870576 -2.030227 -15.849735 0
M  V30 37 H 8.543330 3.001467 -15.022297 0
M  V30 38 H 8.740553 2.121929 -13.537079 0
M  V30 39 H 6.913674 3.375844 -12.484942 0
M  V30 40 H 6.366049 4.019803 -14.011066 0
M  V30 41 H 8.089693 5.565259 -14.172838 0
M  V30 42 H 9.218365 4.633462 -13.248186 0
M  V30 43 H 6.780245 5.944761 -11.939030 0
M  V30 44 H 8.280005 6.765119 -12.190583 0
M  V30 45 H 9.287373 4.530822 -10.949053 0
M  V30 46 H 7.684980 4.447330 -10.327002 0
M  V30 47 H 9.172710 4.653059 -8.289134 0
M  V30 48 H 7.686080 5.549779 -8.028383 0
M  V30 49 H 9.307478 6.287703 -6.299180 0
M  V30 50 H 11.280499 10.172430 -7.956112 0
M  V30 51 H 12.045501 11.265045 -5.817933 0
M  V30 52 H 12.397285 10.536247 -3.046803 0
M  V30 53 H 12.377883 8.576775 -1.556155 0
M  V30 54 H 10.974074 6.084003 -4.768361 0
M  V30 55 H 9.806558 8.793022 -9.380098 0
M  V30 56 H 11.464076 8.206047 -9.328464 0
M  V30 57 H 10.161564 7.078666 -11.093773 0
M  V30 58 H 10.864498 5.993061 -9.908298 0
M  V30 59 H 8.059216 6.891827 -9.794844 0
M  V30 END ATOM
M  V30 BEGIN BOND
M  V30 1 2 2 1
M  V30 2 1 3 2
M  V30 3 2 4 3
M  V30 4 1 5 4
M  V30 5 2 6 5
M  V30 6 1 7 6
M  V30 7 1 8 7
M  V30 8 1 9 3
M  V30 9 2 9 7
M  V30 10 1 10 9
M  V30 11 2 11 10
M  V30 12 1 12 2
M  V30 13 1 12 10
M  V30 14 1 13 12
M  V30 15 1 14 13
M  V30 16 1 15 14
M  V30 17 1 16 15
M  V30 18 1 17 16
M  V30 19 1 18 17
M  V30 20 1 19 18
M  V30 21 1 20 19
M  V30 22 2 21 20
M  V30 23 1 22 21
M  V30 24 2 23 22
M  V30 25 1 24 23
M  V30 26 1 25 24
M  V30 27 1 26 25
M  V30 28 2 27 26
M  V30 29 1 28 27
M  V30 30 1 29 28
M  V30 31 2 30 28
M  V30 32 1 31 22
M  V30 33 2 31 25
M  V30 34 1 31 30
M  V30 35 1 32 21
M  V30 36 1 33 18
M  V30 37 1 33 32
M  V30 38 1 34 4
M  V30 39 1 35 5
M  V30 40 1 36 6
M  V30 41 1 37 13
M  V30 42 1 38 13
M  V30 43 1 39 14
M  V30 44 1 40 14
M  V30 45 1 41 15
M  V30 46 1 42 15
M  V30 47 1 43 16
M  V30 48 1 44 16
M  V30 49 1 45 17
M  V30 50 1 46 17
M  V30 51 1 47 19
M  V30 52 1 48 19
M  V30 53 1 49 20
M  V30 54 1 50 23
M  V30 55 1 51 24
M  V30 56 1 52 26
M  V30 57 1 53 27
M  V30 58 1 54 30
M  V30 59 1 55 32
M  V30 60 1 56 32
M  V30 61 1 57 33
M  V30 62 1 58 33
M  V30 63 1 18 59 CFG=1
M  V30 END BOND
M  V30 END CTAB
M  END
>  <b_m_subgroup_collapsed>  (254) 
0

>  <r_i_docking_score>  (254) 
-8.6894894319751899

>  <s_m_subgroup_title>  (254) 
glide-dock_SP_D22_pv

>  <s_m_subgroupid>  (254) 
glide-dock_SP_D22_pv

>  <Molecule ChEMBL ID>  (254) 
CHEMBL335844

>  <Standard Type>  (254) 
Ki

>  <Standard Value>  (254) 
12.0

>  <label>  (254) 
1

$$$$
CHEMBL559780
     RDKit          3D

  0  0  0  0  0  0  0  0  0  0999 V3000
M  V30 BEGIN CTAB
M  V30 COUNTS 50 54 0 0 1
M  V30 BEGIN ATOM
M  V30 1 C 12.805648 0.661264 -19.475544 0
M  V30 2 C 12.087685 1.102207 -18.246298 0
M  V30 3 N 12.311820 2.297203 -17.687841 0
M  V30 4 C 11.533880 2.439929 -16.541819 0
M  V30 5 C 11.497433 3.558422 -15.676960 0
M  V30 6 C 10.658921 3.604308 -14.533625 0
M  V30 7 N 10.661860 4.770279 -13.692262 0
M  V30 8 C 11.746776 5.747762 -13.748192 0
M  V30 9 C 11.346790 6.814333 -12.739667 0
M  V30 10 N 10.080292 6.317819 -12.244646 0
M  V30 11 C 9.326204 7.072088 -11.240661 0
M  V30 12 C 9.586629 6.515426 -9.824602 0
M  V30 13 N 8.893688 7.258798 -8.735970 0 CHG=1
M  V30 14 C 9.411586 8.650605 -8.521990 0
M  V30 15 C 10.196351 8.555787 -7.238527 0
M  V30 16 C 11.082680 9.493564 -6.673073 0
M  V30 17 C 11.722663 9.163893 -5.460196 0
M  V30 18 C 11.501422 7.908113 -4.851726 0
M  V30 19 C 10.625929 6.973474 -5.446932 0
M  V30 20 C 9.966082 7.335041 -6.633193 0
M  V30 21 C 8.977358 6.530790 -7.432384 0
M  V30 22 C 9.701359 5.165529 -12.822582 0
M  V30 23 O 8.644835 4.588428 -12.569309 0
M  V30 24 C 9.862260 2.468473 -14.246957 0
M  V30 25 C 9.875392 1.340734 -15.086708 0
M  V30 26 C 10.695103 1.334196 -16.227320 0
M  V30 27 S 10.885185 0.080195 -17.446758 0
M  V30 28 H 13.882367 0.697739 -19.310692 0
M  V30 29 H 12.525361 -0.360200 -19.733677 0
M  V30 30 H 12.555826 1.315935 -20.310331 0
M  V30 31 H 12.140265 4.385964 -15.933135 0
M  V30 32 H 12.698234 5.282592 -13.488403 0
M  V30 33 H 11.831114 6.190849 -14.740998 0
M  V30 34 H 11.221540 7.772064 -13.233418 0
M  V30 35 H 12.076899 6.932851 -11.937886 0
M  V30 36 H 8.259747 7.021289 -11.470040 0
M  V30 37 H 9.602103 8.122758 -11.317578 0
M  V30 38 H 10.657647 6.495787 -9.617710 0
M  V30 39 H 9.247381 5.478438 -9.804482 0
M  V30 40 H 8.578576 9.339890 -8.382217 0
M  V30 41 H 10.037263 9.020624 -9.331738 0
M  V30 42 H 11.285597 10.442245 -7.143909 0
M  V30 43 H 12.402929 9.867590 -5.003544 0
M  V30 44 H 12.006196 7.659670 -3.929652 0
M  V30 45 H 10.459929 6.016414 -4.978256 0
M  V30 46 H 9.290956 5.490716 -7.529181 0
M  V30 47 H 8.012575 6.552384 -6.927493 0
M  V30 48 H 9.242661 2.423380 -13.366720 0
M  V30 49 H 9.259855 0.483383 -14.853993 0
M  V30 50 H 7.909935 7.333109 -8.995299 0
M  V30 END ATOM
M  V30 BEGIN BOND
M  V30 1 1 2 1
M  V30 2 2 3 2
M  V30 3 1 4 3
M  V30 4 1 5 4
M  V30 5 2 6 5
M  V30 6 1 7 6
M  V30 7 1 8 7
M  V30 8 1 9 8
M  V30 9 1 10 9
M  V30 10 1 11 10
M  V30 11 1 12 11
M  V30 12 1 13 12
M  V30 13 1 14 13
M  V30 14 1 15 14
M  V30 15 2 16 15
M  V30 16 1 17 16
M  V30 17 2 18 17
M  V30 18 1 19 18
M  V30 19 1 20 15
M  V30 20 2 20 19
M  V30 21 1 21 13
M  V30 22 1 21 20
M  V30 23 1 22 7
M  V30 24 1 22 10
M  V30 25 2 23 22
M  V30 26 1 24 6
M  V30 27 2 25 24
M  V30 28 2 26 4
M  V30 29 1 26 25
M  V30 30 1 27 2
M  V30 31 1 27 26
M  V30 32 1 28 1
M  V30 33 1 29 1
M  V30 34 1 30 1
M  V30 35 1 31 5
M  V30 36 1 32 8
M  V30 37 1 33 8
M  V30 38 1 34 9
M  V30 39 1 35 9
M  V30 40 1 36 11
M  V30 41 1 37 11
M  V30 42 1 38 12
M  V30 43 1 39 12
M  V30 44 1 40 14
M  V30 45 1 41 14
M  V30 46 1 42 16
M  V30 47 1 43 17
M  V30 48 1 44 18
M  V30 49 1 45 19
M  V30 50 1 46 21
M  V30 51 1 47 21
M  V30 52 1 48 24
M  V30 53 1 49 25
M  V30 54 1 50 13
M  V30 END BOND
M  V30 END CTAB
M  END
>  <b_m_subgroup_collapsed>  (255) 
0

>  <r_i_docking_score>  (255) 
-8.6884407126218797

>  <s_m_subgroup_title>  (255) 
glide-dock_SP_D22_pv

>  <s_m_subgroupid>  (255) 
glide-dock_SP_D22_pv

>  <Molecule ChEMBL ID>  (255) 
CHEMBL559780

>  <Standard Type>  (255) 
Ki

>  <Standard Value>  (255) 
10000.0

>  <label>  (255) 
0

$$$$
CHEMBL1263
     RDKit          3D

  0  0  0  0  0  0  0  0  0  0999 V3000
M  V30 BEGIN CTAB
M  V30 COUNTS 68 69 0 0 1
M  V30 BEGIN ATOM
M  V30 1 O 3.842636 -1.828290 -16.483175 0
M  V30 2 C 5.073249 -1.911093 -15.754473 0
M  V30 3 C 5.415976 -0.658064 -14.979171 0
M  V30 4 C 6.700413 -0.086919 -15.111704 0
M  V30 5 C 7.051915 1.091846 -14.431853 0
M  V30 6 C 8.442476 1.688311 -14.556775 0 CFG=1
M  V30 7 O 9.475147 0.766831 -14.246056 0
M  V30 8 C 8.744541 2.237054 -15.966986 0
M  V30 9 N 10.068092 2.879916 -15.970639 0 CHG=1
M  V30 10 C 10.385781 3.723763 -17.134558 0
M  V30 11 C 11.636833 4.575173 -16.847109 0
M  V30 12 C 11.413313 5.548979 -15.671077 0
M  V30 13 C 12.664468 6.349378 -15.271497 0
M  V30 14 C 12.427529 7.368608 -14.138631 0
M  V30 15 C 12.050367 6.742204 -12.785180 0
M  V30 16 O 11.820928 7.773165 -11.845959 0
M  V30 17 C 11.718232 7.360964 -10.496428 0
M  V30 18 C 11.322273 8.477095 -9.524837 0
M  V30 19 C 11.464264 7.966524 -8.073373 0
M  V30 20 C 10.860676 8.894290 -7.006624 0
M  V30 21 C 11.287740 8.562498 -5.584871 0
M  V30 22 C 11.669602 9.616342 -4.724803 0
M  V30 23 C 12.066092 9.348194 -3.401333 0
M  V30 24 C 12.090665 8.019508 -2.929652 0
M  V30 25 C 11.705966 6.974021 -3.771308 0
M  V30 26 C 11.297230 7.234987 -5.098553 0
M  V30 27 C 6.081024 1.729680 -13.615044 0
M  V30 28 C 4.816150 1.152636 -13.440848 0
M  V30 29 C 4.485272 -0.049679 -14.092916 0
M  V30 30 O 3.265762 -0.617921 -13.842173 0
M  V30 31 H 3.485343 -2.708175 -16.535707 0
M  V30 32 H 5.864532 -2.163720 -16.466812 0
M  V30 33 H 5.028485 -2.754032 -15.048807 0
M  V30 34 H 7.426071 -0.593787 -15.741429 0
M  V30 35 H 8.527197 2.517046 -13.844037 0
M  V30 36 H 9.686607 0.811303 -13.308237 0
M  V30 37 H 8.698208 1.453547 -16.716133 0
M  V30 38 H 7.978498 2.968044 -16.219580 0
M  V30 39 H 10.111878 3.473214 -15.157323 0
M  V30 40 H 10.536445 3.101464 -18.017801 0
M  V30 41 H 9.548246 4.390478 -17.353807 0
M  V30 42 H 12.488892 3.926844 -16.633871 0
M  V30 43 H 11.903934 5.142551 -17.741323 0
M  V30 44 H 10.599390 6.227339 -15.936199 0
M  V30 45 H 11.069207 4.992873 -14.797212 0
M  V30 46 H 13.456251 5.663226 -14.978980 0
M  V30 47 H 13.037059 6.888185 -16.139494 0
M  V30 48 H 13.341776 7.942483 -13.996430 0
M  V30 49 H 11.680524 8.097557 -14.435464 0
M  V30 50 H 11.157984 6.118719 -12.855653 0
M  V30 51 H 12.884011 6.113292 -12.462567 0
M  V30 52 H 10.974317 6.564796 -10.412546 0
M  V30 53 H 12.682067 6.980147 -10.184748 0
M  V30 54 H 11.953511 9.357456 -9.669991 0
M  V30 55 H 10.293713 8.787697 -9.719764 0
M  V30 56 H 11.007747 6.979050 -7.987824 0
M  V30 57 H 12.529358 7.829952 -7.872413 0
M  V30 58 H 11.156155 9.920267 -7.227544 0
M  V30 59 H 9.770325 8.864793 -7.068553 0
M  V30 60 H 11.658173 10.627765 -5.080743 0
M  V30 61 H 12.364783 10.159505 -2.750116 0
M  V30 62 H 12.413248 7.816558 -1.913600 0
M  V30 63 H 11.712195 5.952440 -3.406932 0
M  V30 64 H 10.986136 6.416128 -5.725188 0
M  V30 65 H 6.314590 2.638145 -13.093097 0
M  V30 66 H 4.114298 1.654613 -12.801802 0
M  V30 67 H 2.616245 -0.017132 -13.495521 0
M  V30 68 H 10.764015 2.156392 -15.857131 0
M  V30 END ATOM
M  V30 BEGIN BOND
M  V30 1 1 2 1
M  V30 2 1 3 2
M  V30 3 1 4 3
M  V30 4 2 5 4
M  V30 5 1 6 5
M  V30 6 1 7 6
M  V30 7 1 8 6
M  V30 8 1 9 8
M  V30 9 1 10 9
M  V30 10 1 11 10
M  V30 11 1 12 11
M  V30 12 1 13 12
M  V30 13 1 14 13
M  V30 14 1 15 14
M  V30 15 1 16 15
M  V30 16 1 17 16
M  V30 17 1 18 17
M  V30 18 1 19 18
M  V30 19 1 20 19
M  V30 20 1 21 20
M  V30 21 2 22 21
M  V30 22 1 23 22
M  V30 23 2 24 23
M  V30 24 1 25 24
M  V30 25 1 26 21
M  V30 26 2 26 25
M  V30 27 1 27 5
M  V30 28 2 28 27
M  V30 29 2 29 3
M  V30 30 1 29 28
M  V30 31 1 30 29
M  V30 32 1 31 1
M  V30 33 1 32 2
M  V30 34 1 33 2
M  V30 35 1 34 4
M  V30 36 1 6 35 CFG=1
M  V30 37 1 36 7
M  V30 38 1 37 8
M  V30 39 1 38 8
M  V30 40 1 39 9
M  V30 41 1 40 10
M  V30 42 1 41 10
M  V30 43 1 42 11
M  V30 44 1 43 11
M  V30 45 1 44 12
M  V30 46 1 45 12
M  V30 47 1 46 13
M  V30 48 1 47 13
M  V30 49 1 48 14
M  V30 50 1 49 14
M  V30 51 1 50 15
M  V30 52 1 51 15
M  V30 53 1 52 17
M  V30 54 1 53 17
M  V30 55 1 54 18
M  V30 56 1 55 18
M  V30 57 1 56 19
M  V30 58 1 57 19
M  V30 59 1 58 20
M  V30 60 1 59 20
M  V30 61 1 60 22
M  V30 62 1 61 23
M  V30 63 1 62 24
M  V30 64 1 63 25
M  V30 65 1 64 26
M  V30 66 1 65 27
M  V30 67 1 66 28
M  V30 68 1 67 30
M  V30 69 1 68 9
M  V30 END BOND
M  V30 END CTAB
M  END
>  <b_m_subgroup_collapsed>  (256) 
0

>  <r_i_docking_score>  (256) 
-8.6880120782809893

>  <s_m_subgroup_title>  (256) 
glide-dock_SP_D22_pv

>  <s_m_subgroupid>  (256) 
glide-dock_SP_D22_pv

>  <Molecule ChEMBL ID>  (256) 
CHEMBL1263

>  <Standard Type>  (256) 
Ki

>  <Standard Value>  (256) 
32000.0

>  <label>  (256) 
0

$$$$
CHEMBL2094011
     RDKit          3D

  0  0  0  0  0  0  0  0  0  0999 V3000
M  V30 BEGIN CTAB
M  V30 COUNTS 62 67 0 0 1
M  V30 BEGIN ATOM
M  V30 1 O 3.747924 -0.677969 -13.846626 0
M  V30 2 C 4.743683 -0.228100 -14.405809 0
M  V30 3 C 5.567578 0.938888 -13.848832 0
M  V30 4 C 6.549025 1.141110 -14.988891 0
M  V30 5 C 6.311036 0.171947 -15.962775 0
M  V30 6 C 7.058870 0.088177 -17.145811 0
M  V30 7 C 8.087230 1.033793 -17.332043 0
M  V30 8 C 8.334518 2.027014 -16.355387 0
M  V30 9 C 7.569622 2.115711 -15.164540 0
M  V30 10 N 7.876996 3.141345 -14.245958 0
M  V30 11 C 9.217064 3.040657 -13.669827 0
M  V30 12 C 9.602189 4.284964 -12.852597 0
M  V30 13 N 8.521842 4.728553 -11.939575 0 CHG=1
M  V30 14 C 8.936321 5.887249 -11.114037 0
M  V30 15 C 9.425381 5.488622 -9.700955 0
M  V30 16 C 10.140362 6.645052 -8.954638 0 CFG=1
M  V30 17 C 9.285136 7.926071 -9.029219 0
M  V30 18 C 9.866959 9.139443 -8.322474 0
M  V30 19 C 10.510113 8.778382 -7.043998 0
M  V30 20 N 10.882146 9.692083 -6.075339 0
M  V30 21 C 11.316450 9.029973 -4.948776 0
M  V30 22 C 11.704077 9.488131 -3.676898 0
M  V30 23 C 12.096067 8.558182 -2.698267 0
M  V30 24 C 12.094720 7.185709 -3.006134 0
M  V30 25 F 12.485566 6.284529 -2.079118 0
M  V30 26 C 11.686036 6.740292 -4.277319 0
M  V30 27 C 11.283074 7.641325 -5.283154 0
M  V30 28 C 10.783822 7.509200 -6.629105 0
M  V30 29 C 10.490212 6.292032 -7.474494 0
M  V30 30 C 7.263015 4.970201 -12.685607 0
M  V30 31 C 6.817256 3.689732 -13.402124 0
M  V30 32 N 5.238921 -0.635077 -15.578345 0
M  V30 33 H 6.075076 0.656135 -12.924358 0
M  V30 34 H 4.916444 1.797932 -13.688961 0
M  V30 35 H 6.858579 -0.674541 -17.885345 0
M  V30 36 H 8.687771 1.001211 -18.228891 0
M  V30 37 H 9.121798 2.741590 -16.543209 0
M  V30 38 H 9.282866 2.153974 -13.046745 0
M  V30 39 H 9.963566 2.900863 -14.452258 0
M  V30 40 H 10.487480 4.068808 -12.262046 0
M  V30 41 H 9.855145 5.098136 -13.535846 0
M  V30 42 H 9.702969 6.461040 -11.635176 0
M  V30 43 H 8.086082 6.560282 -11.012758 0
M  V30 44 H 8.564850 5.158331 -9.118443 0
M  V30 45 H 10.086233 4.626074 -9.761016 0
M  V30 46 H 11.075560 6.864776 -9.472027 0
M  V30 47 H 9.052646 8.234752 -10.046545 0
M  V30 48 H 8.342463 7.687618 -8.542967 0
M  V30 49 H 9.013123 9.772310 -8.121314 0
M  V30 50 H 10.565795 9.670686 -8.969273 0
M  V30 51 H 10.777913 10.690616 -6.180508 0
M  V30 52 H 11.684216 10.542064 -3.441263 0
M  V30 53 H 12.394369 8.896004 -1.715932 0
M  V30 54 H 11.671475 5.688709 -4.491255 0
M  V30 55 H 9.641267 5.771674 -7.032951 0
M  V30 56 H 11.326645 5.595075 -7.442898 0
M  V30 57 H 6.477207 5.287921 -11.997897 0
M  V30 58 H 7.410311 5.777475 -13.403209 0
M  V30 59 H 5.933677 3.896039 -14.007732 0
M  V30 60 H 6.534995 2.971907 -12.638636 0
M  V30 61 H 4.869680 -1.385918 -16.145954 0
M  V30 62 H 8.323585 3.967973 -11.304785 0
M  V30 END ATOM
M  V30 BEGIN BOND
M  V30 1 2 2 1
M  V30 2 1 3 2
M  V30 3 1 4 3
M  V30 4 2 5 4
M  V30 5 1 6 5
M  V30 6 2 7 6
M  V30 7 1 8 7
M  V30 8 1 9 4
M  V30 9 2 9 8
M  V30 10 1 10 9
M  V30 11 1 11 10
M  V30 12 1 12 11
M  V30 13 1 13 12
M  V30 14 1 14 13
M  V30 15 1 15 14
M  V30 16 1 16 15
M  V30 17 1 17 16
M  V30 18 1 18 17
M  V30 19 1 19 18
M  V30 20 1 20 19
M  V30 21 1 21 20
M  V30 22 1 22 21
M  V30 23 2 23 22
M  V30 24 1 24 23
M  V30 25 1 25 24
M  V30 26 2 26 24
M  V30 27 2 27 21
M  V30 28 1 27 26
M  V30 29 2 28 19
M  V30 30 1 28 27
M  V30 31 1 29 16
M  V30 32 1 29 28
M  V30 33 1 30 13
M  V30 34 1 31 10
M  V30 35 1 31 30
M  V30 36 1 32 2
M  V30 37 1 32 5
M  V30 38 1 33 3
M  V30 39 1 34 3
M  V30 40 1 35 6
M  V30 41 1 36 7
M  V30 42 1 37 8
M  V30 43 1 38 11
M  V30 44 1 39 11
M  V30 45 1 40 12
M  V30 46 1 41 12
M  V30 47 1 42 14
M  V30 48 1 43 14
M  V30 49 1 44 15
M  V30 50 1 45 15
M  V30 51 1 16 46 CFG=3
M  V30 52 1 47 17
M  V30 53 1 48 17
M  V30 54 1 49 18
M  V30 55 1 50 18
M  V30 56 1 51 20
M  V30 57 1 52 22
M  V30 58 1 53 23
M  V30 59 1 54 26
M  V30 60 1 55 29
M  V30 61 1 56 29
M  V30 62 1 57 30
M  V30 63 1 58 30
M  V30 64 1 59 31
M  V30 65 1 60 31
M  V30 66 1 61 32
M  V30 67 1 62 13
M  V30 END BOND
M  V30 END CTAB
M  END
>  <b_m_subgroup_collapsed>  (257) 
0

>  <r_i_docking_score>  (257) 
-8.6827630271677005

>  <s_m_subgroup_title>  (257) 
glide-dock_SP_D22_pv

>  <s_m_subgroupid>  (257) 
glide-dock_SP_D22_pv

>  <Molecule ChEMBL ID>  (257) 
CHEMBL2094011

>  <Standard Type>  (257) 
Ki

>  <Standard Value>  (257) 
15.0

>  <label>  (257) 
1

$$$$
CHEMBL517028
     RDKit          3D

  0  0  0  0  0  0  0  0  0  0999 V3000
M  V30 BEGIN CTAB
M  V30 COUNTS 49 53 0 0 1
M  V30 BEGIN ATOM
M  V30 1 C 13.533801 5.977039 -16.878874 0
M  V30 2 N 12.526105 4.963940 -16.473831 0 CFG=2 CHG=1
M  V30 3 C 11.776783 4.464476 -17.637991 0
M  V30 4 C 11.019858 3.212771 -17.225811 0
M  V30 5 C 10.114046 3.390346 -16.018389 0
M  V30 6 C 9.037677 2.542862 -15.719707 0
M  V30 7 C 8.293473 2.699657 -14.535467 0
M  V30 8 C 7.142186 1.808216 -14.246960 0
M  V30 9 C 7.084044 0.480766 -14.741252 0
M  V30 10 C 5.942884 -0.325633 -14.549967 0
M  V30 11 C 4.832797 0.175778 -13.846938 0
M  V30 12 O 3.687928 -0.566570 -13.739180 0
M  V30 13 C 4.909237 1.461544 -13.279255 0
M  V30 14 C 6.042379 2.270221 -13.486710 0
M  V30 15 C 8.667489 3.744121 -13.654750 0
M  V30 16 C 9.708989 4.676445 -13.907559 0
M  V30 17 C 10.427769 4.439057 -15.112795 0
M  V30 18 C 11.588335 5.417716 -15.407903 0 CFG=1
M  V30 19 C 12.338062 5.786511 -14.113842 0
M  V30 20 C 11.393333 6.291534 -13.047127 0
M  V30 21 C 11.855536 7.288767 -12.166245 0
M  V30 22 C 11.013303 7.772342 -11.160141 0
M  V30 23 C 9.681688 7.339912 -11.099281 0
M  V30 24 O 8.886029 7.904951 -10.148582 0
M  V30 25 C 9.194683 6.366385 -12.004239 0
M  V30 26 O 7.862493 6.050920 -11.949327 0
M  V30 27 C 10.075641 5.772386 -12.962873 0
M  V30 28 H 13.056698 6.913471 -17.172318 0
M  V30 29 H 14.123194 5.621785 -17.724888 0
M  V30 30 H 14.245606 6.184789 -16.080662 0
M  V30 31 H 11.092563 5.231586 -18.005709 0
M  V30 32 H 12.452605 4.217276 -18.458042 0
M  V30 33 H 10.417421 2.863291 -18.065289 0
M  V30 34 H 11.723261 2.410195 -17.000261 0
M  V30 35 H 8.791593 1.757210 -16.418386 0
M  V30 36 H 7.910143 0.064585 -15.298153 0
M  V30 37 H 5.913815 -1.321199 -14.970047 0
M  V30 38 H 2.911861 -0.057871 -13.549691 0
M  V30 39 H 4.085855 1.872482 -12.719395 0
M  V30 40 H 6.034677 3.272071 -13.083401 0
M  V30 41 H 8.131023 3.816946 -12.723738 0
M  V30 42 H 11.108664 6.325771 -15.779063 0
M  V30 43 H 12.867159 4.918810 -13.717192 0
M  V30 44 H 13.082380 6.561349 -14.292392 0
M  V30 45 H 12.866609 7.663446 -12.240335 0
M  V30 46 H 11.373522 8.520161 -10.468526 0
M  V30 47 H 7.920269 7.772379 -10.236458 0
M  V30 48 H 7.346476 6.586055 -11.353646 0
M  V30 49 H 13.035810 4.173420 -16.104298 0
M  V30 END ATOM
M  V30 BEGIN BOND
M  V30 1 1 2 1
M  V30 2 1 3 2
M  V30 3 1 4 3
M  V30 4 1 5 4
M  V30 5 1 6 5
M  V30 6 2 7 6
M  V30 7 1 8 7
M  V30 8 1 9 8
M  V30 9 2 10 9
M  V30 10 1 11 10
M  V30 11 1 12 11
M  V30 12 2 13 11
M  V30 13 2 14 8
M  V30 14 1 14 13
M  V30 15 1 15 7
M  V30 16 2 16 15
M  V30 17 2 17 5
M  V30 18 1 17 16
M  V30 19 1 18 2
M  V30 20 1 18 17
M  V30 21 1 19 18
M  V30 22 1 20 19
M  V30 23 1 21 20
M  V30 24 2 22 21
M  V30 25 1 23 22
M  V30 26 1 24 23
M  V30 27 2 25 23
M  V30 28 1 26 25
M  V30 29 1 27 16
M  V30 30 2 27 20
M  V30 31 1 27 25
M  V30 32 1 28 1
M  V30 33 1 29 1
M  V30 34 1 30 1
M  V30 35 1 31 3
M  V30 36 1 32 3
M  V30 37 1 33 4
M  V30 38 1 34 4
M  V30 39 1 35 6
M  V30 40 1 36 9
M  V30 41 1 37 10
M  V30 42 1 38 12
M  V30 43 1 39 13
M  V30 44 1 40 14
M  V30 45 1 41 15
M  V30 46 1 18 42 CFG=3
M  V30 47 1 43 19
M  V30 48 1 44 19
M  V30 49 1 45 21
M  V30 50 1 46 22
M  V30 51 1 47 24
M  V30 52 1 48 26
M  V30 53 1 2 49 CFG=1
M  V30 END BOND
M  V30 END CTAB
M  END
>  <b_m_subgroup_collapsed>  (258) 
0

>  <r_i_docking_score>  (258) 
-8.6788993524219293

>  <s_m_subgroup_title>  (258) 
glide-dock_SP_D22_pv

>  <s_m_subgroupid>  (258) 
glide-dock_SP_D22_pv

>  <Molecule ChEMBL ID>  (258) 
CHEMBL517028

>  <Standard Type>  (258) 
Ki

>  <Standard Value>  (258) 
3.8

>  <label>  (258) 
1

$$$$
CHEMBL485727
     RDKit          3D

  0  0  0  0  0  0  0  0  0  0999 V3000
M  V30 BEGIN CTAB
M  V30 COUNTS 73 76 0 0 1
M  V30 BEGIN ATOM
M  V30 1 C 3.285826 -2.183354 -18.509138 0
M  V30 2 O 4.545092 -1.610106 -18.208754 0
M  V30 3 C 4.754209 -1.122427 -16.937620 0
M  V30 4 C 3.783273 -1.087745 -15.905900 0
M  V30 5 C 4.106012 -0.556995 -14.640114 0
M  V30 6 C 5.397709 -0.049977 -14.389994 0
M  V30 7 C 6.365625 -0.072856 -15.415202 0
M  V30 8 C 7.757205 0.491148 -15.213117 0
M  V30 9 C 7.947121 1.782128 -16.024752 0
M  V30 10 C 9.401073 2.202078 -16.143339 0
M  V30 11 C 10.169944 1.668425 -17.200191 0
M  V30 12 C 11.511181 2.052298 -17.370293 0
M  V30 13 C 12.085858 2.975992 -16.481209 0
M  V30 14 C 11.331594 3.497001 -15.414099 0
M  V30 15 C 9.977433 3.115660 -15.229928 0
M  V30 16 O 9.183955 3.594962 -14.208097 0
M  V30 17 C 9.814435 4.339448 -13.178113 0
M  V30 18 C 8.787615 4.658970 -12.090595 0
M  V30 19 C 9.451994 5.220665 -10.827981 0
M  V30 20 C 8.416005 5.672721 -9.788487 0
M  V30 21 N 8.886099 6.668185 -8.788106 0 CFG=2 CHG=1
M  V30 22 C 9.511690 7.867480 -9.392064 0
M  V30 23 C 9.682734 8.972270 -8.353300 0
M  V30 24 C 10.399214 8.482334 -7.111243 0
M  V30 25 C 11.093606 9.390384 -6.283660 0
M  V30 26 C 11.732438 8.926579 -5.115672 0
M  V30 27 O 12.399220 9.772339 -4.293386 0
M  V30 28 C 11.596751 10.171763 -3.199252 0
M  V30 29 C 11.678548 7.578547 -4.750316 0
M  V30 30 O 12.334942 7.167858 -3.615809 0
M  V30 31 C 11.523898 6.571058 -2.617370 0
M  V30 32 C 10.985535 6.687850 -5.581971 0
M  V30 33 C 10.357447 7.111800 -6.771247 0
M  V30 34 C 9.698322 6.082278 -7.690921 0
M  V30 35 C 6.037738 -0.617143 -16.672716 0
M  V30 36 H 3.301799 -2.558491 -19.532089 0
M  V30 37 H 3.068586 -3.025371 -17.854073 0
M  V30 38 H 2.487296 -1.445000 -18.435110 0
M  V30 39 H 2.787423 -1.469334 -16.062775 0
M  V30 40 H 3.356690 -0.533329 -13.862247 0
M  V30 41 H 5.637611 0.364680 -13.421700 0
M  V30 42 H 8.473805 -0.263633 -15.537788 0
M  V30 43 H 7.954315 0.670610 -14.155830 0
M  V30 44 H 7.344033 2.575665 -15.587264 0
M  V30 45 H 7.565937 1.651569 -17.038563 0
M  V30 46 H 9.727795 0.964623 -17.890591 0
M  V30 47 H 12.097520 1.643759 -18.180424 0
M  V30 48 H 13.116302 3.273369 -16.609711 0
M  V30 49 H 11.820971 4.195277 -14.754057 0
M  V30 50 H 10.635821 3.766873 -12.750214 0
M  V30 51 H 10.224041 5.270077 -13.575405 0
M  V30 52 H 8.069480 5.374176 -12.492850 0
M  V30 53 H 8.213999 3.772376 -11.833237 0
M  V30 54 H 10.085953 4.458832 -10.380393 0
M  V30 55 H 10.095002 6.035406 -11.148177 0
M  V30 56 H 7.589008 6.116320 -10.330607 0
M  V30 57 H 8.018999 4.798689 -9.273681 0
M  V30 58 H 10.497784 7.618530 -9.783774 0
M  V30 59 H 8.910221 8.232269 -10.226788 0
M  V30 60 H 8.711504 9.377599 -8.067154 0
M  V30 61 H 10.259817 9.772158 -8.811748 0
M  V30 62 H 11.134272 10.440238 -6.534564 0
M  V30 63 H 12.086493 10.964595 -2.646080 0
M  V30 64 H 10.639804 10.569500 -3.542745 0
M  V30 65 H 11.412347 9.360148 -2.504717 0
M  V30 66 H 12.081388 5.771988 -2.136288 0
M  V30 67 H 11.275258 7.292181 -1.843660 0
M  V30 68 H 10.584144 6.172067 -2.993070 0
M  V30 69 H 10.972485 5.667291 -5.281171 0
M  V30 70 H 9.056466 5.431423 -7.101853 0
M  V30 71 H 10.487577 5.460348 -8.115355 0
M  V30 72 H 6.782071 -0.644246 -17.455982 0
M  V30 73 H 8.022383 6.996049 -8.360377 0
M  V30 END ATOM
M  V30 BEGIN BOND
M  V30 1 1 2 1
M  V30 2 1 3 2
M  V30 3 2 4 3
M  V30 4 1 5 4
M  V30 5 2 6 5
M  V30 6 1 7 6
M  V30 7 1 8 7
M  V30 8 1 9 8
M  V30 9 1 10 9
M  V30 10 2 11 10
M  V30 11 1 12 11
M  V30 12 2 13 12
M  V30 13 1 14 13
M  V30 14 1 15 10
M  V30 15 2 15 14
M  V30 16 1 16 15
M  V30 17 1 17 16
M  V30 18 1 18 17
M  V30 19 1 19 18
M  V30 20 1 20 19
M  V30 21 1 21 20
M  V30 22 1 22 21
M  V30 23 1 23 22
M  V30 24 1 24 23
M  V30 25 2 25 24
M  V30 26 1 26 25
M  V30 27 1 27 26
M  V30 28 1 28 27
M  V30 29 2 29 26
M  V30 30 1 30 29
M  V30 31 1 31 30
M  V30 32 1 32 29
M  V30 33 1 33 24
M  V30 34 2 33 32
M  V30 35 1 34 21
M  V30 36 1 34 33
M  V30 37 1 35 3
M  V30 38 2 35 7
M  V30 39 1 36 1
M  V30 40 1 37 1
M  V30 41 1 38 1
M  V30 42 1 39 4
M  V30 43 1 40 5
M  V30 44 1 41 6
M  V30 45 1 42 8
M  V30 46 1 43 8
M  V30 47 1 44 9
M  V30 48 1 45 9
M  V30 49 1 46 11
M  V30 50 1 47 12
M  V30 51 1 48 13
M  V30 52 1 49 14
M  V30 53 1 50 17
M  V30 54 1 51 17
M  V30 55 1 52 18
M  V30 56 1 53 18
M  V30 57 1 54 19
M  V30 58 1 55 19
M  V30 59 1 56 20
M  V30 60 1 57 20
M  V30 61 1 58 22
M  V30 62 1 59 22
M  V30 63 1 60 23
M  V30 64 1 61 23
M  V30 65 1 62 25
M  V30 66 1 63 28
M  V30 67 1 64 28
M  V30 68 1 65 28
M  V30 69 1 66 31
M  V30 70 1 67 31
M  V30 71 1 68 31
M  V30 72 1 69 32
M  V30 73 1 70 34
M  V30 74 1 71 34
M  V30 75 1 72 35
M  V30 76 1 21 73 CFG=1
M  V30 END BOND
M  V30 END CTAB
M  END
>  <b_m_subgroup_collapsed>  (259) 
0

>  <r_i_docking_score>  (259) 
-8.6782093976926298

>  <s_m_subgroup_title>  (259) 
glide-dock_SP_D22_pv

>  <s_m_subgroupid>  (259) 
glide-dock_SP_D22_pv

>  <Molecule ChEMBL ID>  (259) 
CHEMBL485727

>  <Standard Type>  (259) 
Ki

>  <Standard Value>  (259) 
1000000.0

>  <label>  (259) 
0

$$$$
CHEMBL1081868
     RDKit          3D

  0  0  0  0  0  0  0  0  0  0999 V3000
M  V30 BEGIN CTAB
M  V30 COUNTS 57 61 0 0 1
M  V30 BEGIN ATOM
M  V30 1 C 10.069524 -0.627394 -16.180710 0
M  V30 2 C 10.845798 0.492972 -16.795416 0
M  V30 3 N 11.686680 0.275537 -17.877897 0
M  V30 4 C 12.224426 1.467201 -18.126411 0
M  V30 5 O 11.792262 2.451545 -17.295279 0
M  V30 6 C 10.913642 1.821714 -16.452709 0
M  V30 7 C 10.253614 2.628972 -15.434346 0
M  V30 8 N 10.935625 3.482661 -14.664997 0
M  V30 9 N 10.006237 4.080496 -13.847856 0
M  V30 10 C 8.829974 3.552684 -14.196619 0
M  V30 11 S 7.275936 3.956896 -13.446862 0
M  V30 12 C 7.865536 4.803276 -11.950400 0
M  V30 13 C 8.134422 6.299623 -12.195875 0
M  V30 14 C 9.166224 6.963761 -11.257276 0
M  V30 15 N 8.896550 6.761951 -9.808198 0 CFG=1 CHG=1
M  V30 16 C 9.440825 5.492248 -9.249773 0
M  V30 17 C 9.777514 5.784188 -7.812783 0 CFG=2
M  V30 18 C 8.672414 6.286074 -6.925510 0
M  V30 19 C 9.649649 7.243086 -7.567396 0 CFG=1
M  V30 20 C 10.560776 8.003399 -6.616680 0
M  V30 21 C 10.974850 9.319672 -6.897181 0
M  V30 22 C 11.718442 10.059425 -5.962737 0
M  V30 23 F 12.085867 11.325906 -6.246895 0
M  V30 24 C 12.070896 9.492730 -4.728786 0
M  V30 25 C 11.686430 8.178395 -4.421348 0
M  V30 26 C 12.037696 7.609840 -3.053476 0
M  V30 27 F 11.916770 8.549785 -2.120428 0
M  V30 28 F 11.284067 6.572351 -2.717708 0
M  V30 29 F 13.285995 7.195836 -3.047856 0
M  V30 30 C 10.971275 7.429797 -5.382608 0
M  V30 31 C 9.394480 7.860491 -8.937335 0
M  V30 32 N 8.923791 2.654413 -15.197216 0
M  V30 33 C 7.859564 1.910463 -15.851317 0
M  V30 34 H 10.072331 -0.565168 -15.092578 0
M  V30 35 H 9.033201 -0.619353 -16.514078 0
M  V30 36 H 10.484632 -1.595372 -16.460356 0
M  V30 37 H 12.942052 1.665298 -18.909681 0
M  V30 38 H 7.111190 4.690387 -11.170854 0
M  V30 39 H 8.754878 4.285650 -11.592908 0
M  V30 40 H 8.492954 6.433389 -13.216667 0
M  V30 41 H 7.186306 6.838069 -12.162027 0
M  V30 42 H 10.174823 6.631756 -11.505223 0
M  V30 43 H 9.147573 8.034713 -11.470112 0
M  V30 44 H 8.718135 4.678863 -9.303165 0
M  V30 45 H 10.350779 5.188218 -9.764782 0
M  V30 46 H 10.699273 5.372254 -7.420935 0
M  V30 47 H 7.686016 6.171887 -7.341215 0
M  V30 48 H 8.724026 6.171815 -5.848304 0
M  V30 49 H 10.711208 9.772416 -7.835607 0
M  V30 50 H 12.630195 10.068975 -4.008446 0
M  V30 51 H 10.704626 6.415401 -5.126049 0
M  V30 52 H 10.334862 8.225999 -9.350349 0
M  V30 53 H 8.684711 8.687265 -8.878169 0
M  V30 54 H 6.931606 2.484117 -15.845295 0
M  V30 55 H 8.126013 1.704988 -16.888792 0
M  V30 56 H 7.694968 0.967403 -15.325806 0
M  V30 57 H 7.883314 6.791804 -9.693998 0
M  V30 END ATOM
M  V30 BEGIN BOND
M  V30 1 1 2 1
M  V30 2 1 3 2
M  V30 3 2 4 3
M  V30 4 1 5 4
M  V30 5 2 6 2
M  V30 6 1 6 5
M  V30 7 1 7 6
M  V30 8 2 8 7
M  V30 9 1 9 8
M  V30 10 2 10 9
M  V30 11 1 11 10
M  V30 12 1 12 11
M  V30 13 1 13 12
M  V30 14 1 14 13
M  V30 15 1 15 14
M  V30 16 1 16 15
M  V30 17 1 17 16
M  V30 18 1 18 17
M  V30 19 1 19 17
M  V30 20 1 19 18
M  V30 21 1 19 20 CFG=1
M  V30 22 2 21 20
M  V30 23 1 22 21
M  V30 24 1 23 22
M  V30 25 2 24 22
M  V30 26 1 25 24
M  V30 27 1 26 25
M  V30 28 1 27 26
M  V30 29 1 28 26
M  V30 30 1 29 26
M  V30 31 1 30 20
M  V30 32 2 30 25
M  V30 33 1 31 15
M  V30 34 1 31 19
M  V30 35 1 32 7
M  V30 36 1 32 10
M  V30 37 1 33 32
M  V30 38 1 34 1
M  V30 39 1 35 1
M  V30 40 1 36 1
M  V30 41 1 37 4
M  V30 42 1 38 12
M  V30 43 1 39 12
M  V30 44 1 40 13
M  V30 45 1 41 13
M  V30 46 1 42 14
M  V30 47 1 43 14
M  V30 48 1 44 16
M  V30 49 1 45 16
M  V30 50 1 17 46 CFG=1
M  V30 51 1 47 18
M  V30 52 1 48 18
M  V30 53 1 49 21
M  V30 54 1 50 24
M  V30 55 1 51 30
M  V30 56 1 52 31
M  V30 57 1 53 31
M  V30 58 1 54 33
M  V30 59 1 55 33
M  V30 60 1 56 33
M  V30 61 1 15 57 CFG=3
M  V30 END BOND
M  V30 END CTAB
M  END
>  <b_m_subgroup_collapsed>  (260) 
0

>  <r_i_docking_score>  (260) 
-8.6755308588405704

>  <s_m_subgroup_title>  (260) 
glide-dock_SP_D22_pv

>  <s_m_subgroupid>  (260) 
glide-dock_SP_D22_pv

>  <Molecule ChEMBL ID>  (260) 
CHEMBL1081868

>  <Standard Type>  (260) 
Ki

>  <Standard Value>  (260) 
31.62

>  <label>  (260) 
1

$$$$
CHEMBL92649
     RDKit          3D

  0  0  0  0  0  0  0  0  0  0999 V3000
M  V30 BEGIN CTAB
M  V30 COUNTS 87 93 0 0 1
M  V30 BEGIN ATOM
M  V30 1 O 13.118267 0.214605 -21.782454 0
M  V30 2 C 13.974773 -0.048958 -20.939028 0
M  V30 3 C 13.594447 -0.962258 -19.766617 0
M  V30 4 C 12.207025 -0.657769 -19.173527 0
M  V30 5 C 12.101749 0.726475 -18.504019 0
M  V30 6 N 10.792024 0.921256 -17.833681 0 CFG=2 CHG=1
M  V30 7 C 10.432251 2.353408 -17.705370 0
M  V30 8 C 9.004203 2.514515 -17.152313 0
M  V30 9 C 8.781141 1.792917 -15.800569 0 CFG=1
M  V30 10 C 9.296455 0.330470 -15.915702 0
M  V30 11 C 10.699409 0.212955 -16.529192 0
M  V30 12 C 9.483310 2.557808 -14.671560 0
M  V30 13 O 10.705498 2.651026 -14.554621 0
M  V30 14 N 8.575088 3.093522 -13.852015 0
M  V30 15 C 8.853957 3.839472 -12.629356 0
M  V30 16 C 9.180341 5.314880 -12.919929 0
M  V30 17 C 9.639477 6.095147 -11.697838 0
M  V30 18 C 10.638947 7.079309 -11.846695 0
M  V30 19 C 11.070944 7.828734 -10.736647 0
M  V30 20 C 10.518588 7.594278 -9.462753 0
M  V30 21 N 10.942498 8.394295 -8.398256 0
M  V30 22 C 11.119633 8.044021 -7.052292 0
M  V30 23 C 11.353212 6.720953 -6.637528 0
M  V30 24 C 11.667703 6.457690 -5.294837 0
M  V30 25 C 11.683672 7.465239 -4.319619 0
M  V30 26 N 11.928841 7.118828 -2.909328 0 CHG=1
M  V30 27 O 11.291134 7.721042 -2.061439 0
M  V30 28 O 12.726912 6.225584 -2.647243 0 CHG=-1
M  V30 29 C 11.386077 8.766096 -4.715775 0
M  V30 30 N 11.285958 9.890789 -4.006738 0
M  V30 31 O 10.886153 10.846283 -4.945205 0
M  V30 32 N 10.889464 10.351040 -6.246670 0
M  V30 33 C 11.118690 9.051048 -6.094451 0
M  V30 34 C 9.515841 6.614527 -9.308391 0
M  V30 35 C 9.073896 5.874427 -10.421317 0
M  V30 36 C 7.211874 2.785055 -14.255713 0
M  V30 37 N 7.374648 1.877506 -15.390858 0
M  V30 38 C 6.487892 0.794589 -15.573786 0
M  V30 39 C 6.083941 0.437056 -16.879852 0
M  V30 40 C 5.186131 -0.628518 -17.086790 0
M  V30 41 C 4.694574 -1.361898 -15.991671 0
M  V30 42 C 5.111470 -1.029147 -14.688851 0
M  V30 43 C 6.003379 0.038933 -14.479407 0
M  V30 44 C 15.349587 0.525534 -20.969620 0
M  V30 45 C 15.612783 1.629569 -21.815580 0
M  V30 46 C 16.897758 2.205687 -21.866003 0
M  V30 47 C 17.934006 1.680687 -21.075041 0
M  V30 48 F 19.167053 2.237166 -21.110071 0
M  V30 49 C 17.685894 0.572580 -20.246241 0
M  V30 50 C 16.407230 -0.013038 -20.199081 0
M  V30 51 H 14.323496 -0.881916 -18.967487 0
M  V30 52 H 13.632030 -1.993819 -20.117506 0
M  V30 53 H 11.994749 -1.427681 -18.440821 0
M  V30 54 H 11.440758 -0.756810 -19.942213 0
M  V30 55 H 12.233756 1.492655 -19.268620 0
M  V30 56 H 12.906726 0.875265 -17.781614 0
M  V30 57 H 10.479560 2.829830 -18.684593 0
M  V30 58 H 11.163149 2.865195 -17.078478 0
M  V30 59 H 8.304034 2.141167 -17.897026 0
M  V30 60 H 8.790269 3.579027 -17.056074 0
M  V30 61 H 9.284314 -0.156588 -14.939677 0
M  V30 62 H 8.639379 -0.265064 -16.547352 0
M  V30 63 H 10.885818 -0.847675 -16.672190 0
M  V30 64 H 11.466928 0.580603 -15.847747 0
M  V30 65 H 7.986017 3.772508 -11.972793 0
M  V30 66 H 9.686001 3.367353 -12.105479 0
M  V30 67 H 9.961329 5.369858 -13.680569 0
M  V30 68 H 8.304938 5.812793 -13.338281 0
M  V30 69 H 11.074493 7.269475 -12.815899 0
M  V30 70 H 11.832566 8.585265 -10.865479 0
M  V30 71 H 11.151524 9.354904 -8.629984 0
M  V30 72 H 11.362948 5.910227 -7.351870 0
M  V30 73 H 11.903422 5.451726 -4.994669 0
M  V30 74 H 9.048514 6.456969 -8.347404 0
M  V30 75 H 8.280548 5.158833 -10.277831 0
M  V30 76 H 6.704542 3.696002 -14.576801 0
M  V30 77 H 6.642577 2.370650 -13.428571 0
M  V30 78 H 6.431069 0.992343 -17.735550 0
M  V30 79 H 4.870104 -0.884043 -18.088335 0
M  V30 80 H 4.009671 -2.183497 -16.152191 0
M  V30 81 H 4.753738 -1.601417 -13.847043 0
M  V30 82 H 6.319527 0.251207 -13.469764 0
M  V30 83 H 14.828569 2.049429 -22.429380 0
M  V30 84 H 17.088274 3.051220 -22.512026 0
M  V30 85 H 18.490831 0.171545 -19.644844 0
M  V30 86 H 16.272938 -0.879348 -19.569223 0
M  V30 87 H 10.095977 0.514481 -18.443378 0
M  V30 END ATOM
M  V30 BEGIN BOND
M  V30 1 2 2 1
M  V30 2 1 3 2
M  V30 3 1 4 3
M  V30 4 1 5 4
M  V30 5 1 6 5
M  V30 6 1 7 6
M  V30 7 1 8 7
M  V30 8 1 9 8
M  V30 9 1 10 9
M  V30 10 1 11 6
M  V30 11 1 11 10
M  V30 12 1 12 9
M  V30 13 2 13 12
M  V30 14 1 14 12
M  V30 15 1 15 14
M  V30 16 1 16 15
M  V30 17 1 17 16
M  V30 18 1 18 17
M  V30 19 2 19 18
M  V30 20 1 20 19
M  V30 21 1 21 20
M  V30 22 1 22 21
M  V30 23 2 23 22
M  V30 24 1 24 23
M  V30 25 2 25 24
M  V30 26 1 26 25
M  V30 27 2 27 26
M  V30 28 1 28 26
M  V30 29 1 29 25
M  V30 30 2 30 29
M  V30 31 1 31 30
M  V30 32 1 32 31
M  V30 33 1 33 22
M  V30 34 1 33 29
M  V30 35 2 33 32
M  V30 36 2 34 20
M  V30 37 2 35 17
M  V30 38 1 35 34
M  V30 39 1 36 14
M  V30 40 1 9 37 CFG=1
M  V30 41 1 37 36
M  V30 42 1 38 37
M  V30 43 2 39 38
M  V30 44 1 40 39
M  V30 45 2 41 40
M  V30 46 1 42 41
M  V30 47 1 43 38
M  V30 48 2 43 42
M  V30 49 1 44 2
M  V30 50 1 45 44
M  V30 51 2 46 45
M  V30 52 1 47 46
M  V30 53 1 48 47
M  V30 54 2 49 47
M  V30 55 2 50 44
M  V30 56 1 50 49
M  V30 57 1 51 3
M  V30 58 1 52 3
M  V30 59 1 53 4
M  V30 60 1 54 4
M  V30 61 1 55 5
M  V30 62 1 56 5
M  V30 63 1 57 7
M  V30 64 1 58 7
M  V30 65 1 59 8
M  V30 66 1 60 8
M  V30 67 1 61 10
M  V30 68 1 62 10
M  V30 69 1 63 11
M  V30 70 1 64 11
M  V30 71 1 65 15
M  V30 72 1 66 15
M  V30 73 1 67 16
M  V30 74 1 68 16
M  V30 75 1 69 18
M  V30 76 1 70 19
M  V30 77 1 71 21
M  V30 78 1 72 23
M  V30 79 1 73 24
M  V30 80 1 74 34
M  V30 81 1 75 35
M  V30 82 1 76 36
M  V30 83 1 77 36
M  V30 84 1 78 39
M  V30 85 1 79 40
M  V30 86 1 80 41
M  V30 87 1 81 42
M  V30 88 1 82 43
M  V30 89 1 83 45
M  V30 90 1 84 46
M  V30 91 1 85 49
M  V30 92 1 86 50
M  V30 93 1 6 87 CFG=3
M  V30 END BOND
M  V30 END CTAB
M  END
>  <b_m_subgroup_collapsed>  (261) 
0

>  <r_i_docking_score>  (261) 
-8.67384794349746

>  <s_m_subgroup_title>  (261) 
glide-dock_SP_D22_pv

>  <s_m_subgroupid>  (261) 
glide-dock_SP_D22_pv

>  <Molecule ChEMBL ID>  (261) 
CHEMBL92649

>  <Standard Type>  (261) 
Ki

>  <Standard Value>  (261) 
0.66

>  <label>  (261) 
1

$$$$
CHEMBL4470437
     RDKit          3D

  0  0  0  0  0  0  0  0  0  0999 V3000
M  V30 BEGIN CTAB
M  V30 COUNTS 74 79 0 0 1
M  V30 BEGIN ATOM
M  V30 1 O 6.712466 2.714516 -13.854394 0
M  V30 2 C 7.771996 2.613263 -14.477436 0
M  V30 3 C 8.007199 1.569938 -15.479502 0
M  V30 4 C 6.896961 0.636304 -15.777318 0
M  V30 5 C 6.426794 -0.230973 -14.767529 0
M  V30 6 C 5.348014 -1.098849 -15.025329 0
M  V30 7 C 4.734694 -1.107140 -16.293360 0
M  V30 8 C 5.194843 -0.235799 -17.300230 0
M  V30 9 C 6.269070 0.638807 -17.045218 0
M  V30 10 F 6.674489 1.495239 -18.014475 0
M  V30 11 C 9.194089 1.527033 -16.153036 0
M  V30 12 N 10.221330 2.453499 -15.922292 0
M  V30 13 C 10.072210 3.450052 -14.932761 0
M  V30 14 O 10.983194 4.242613 -14.668426 0
M  V30 15 N 8.843712 3.505845 -14.250825 0
M  V30 16 C 8.706005 4.508143 -13.204568 0
M  V30 17 C 9.487936 4.153901 -11.918734 0
M  V30 18 C 8.773162 4.574136 -10.623788 0
M  V30 19 C 8.486370 6.079591 -10.436921 0
M  V30 20 N 9.616412 6.860364 -9.881459 0 CFG=1 CHG=1
M  V30 21 C 10.507197 7.431383 -10.920909 0
M  V30 22 C 11.767300 8.017857 -10.272463 0
M  V30 23 C 11.417194 9.080885 -9.224506 0
M  V30 24 C 10.332022 8.628636 -8.225772 0 CFG=2
M  V30 25 C 10.898359 7.839768 -7.071290 0
M  V30 26 C 11.232177 6.509957 -7.045724 0
M  V30 27 N 11.685973 6.172719 -5.784233 0
M  V30 28 C 11.685511 7.267737 -4.953871 0
M  V30 29 C 12.073873 7.434120 -3.613854 0
M  V30 30 C 11.954332 8.701372 -3.021151 0
M  V30 31 C 11.435792 9.772265 -3.771246 0
M  V30 32 C 11.075354 9.604217 -5.121722 0
M  V30 33 C 11.187171 8.343045 -5.749656 0
M  V30 34 C 9.158914 7.927434 -8.947049 0
M  V30 35 C 11.500985 2.467089 -16.609106 0
M  V30 36 C 11.618210 1.511274 -17.795462 0
M  V30 37 C 10.969454 0.183337 -17.443624 0
M  V30 38 C 9.485708 0.420543 -17.178350 0
M  V30 39 H 6.891304 -0.233819 -13.791982 0
M  V30 40 H 5.001403 -1.771207 -14.255344 0
M  V30 41 H 3.912227 -1.781621 -16.489748 0
M  V30 42 H 4.714995 -0.232809 -18.268431 0
M  V30 43 H 9.044613 5.453828 -13.634060 0
M  V30 44 H 7.647614 4.663344 -12.998433 0
M  V30 45 H 9.670341 3.079029 -11.870905 0
M  V30 46 H 10.485209 4.574925 -11.974564 0
M  V30 47 H 7.797075 4.085534 -10.616960 0
M  V30 48 H 9.313237 4.181047 -9.758852 0
M  V30 49 H 8.084651 6.542994 -11.335576 0
M  V30 50 H 7.685640 6.118004 -9.702798 0
M  V30 51 H 10.801627 6.673075 -11.643264 0
M  V30 52 H 9.972898 8.202141 -11.481592 0
M  V30 53 H 12.348294 7.221279 -9.817436 0
M  V30 54 H 12.411340 8.457479 -11.033648 0
M  V30 55 H 12.320258 9.372275 -8.688316 0
M  V30 56 H 11.066864 9.966742 -9.756896 0
M  V30 57 H 9.905613 9.532214 -7.791712 0
M  V30 58 H 11.175568 5.751848 -7.811393 0
M  V30 59 H 11.933768 5.228040 -5.520249 0
M  V30 60 H 12.449771 6.597396 -3.046003 0
M  V30 61 H 12.231071 8.852572 -1.988806 0
M  V30 62 H 11.295999 10.730004 -3.298653 0
M  V30 63 H 10.692387 10.448144 -5.677640 0
M  V30 64 H 8.575669 8.659999 -9.510077 0
M  V30 65 H 8.486302 7.513498 -8.195570 0
M  V30 66 H 11.685848 3.489522 -16.944622 0
M  V30 67 H 12.233722 2.203619 -15.845468 0
M  V30 68 H 11.128841 1.939997 -18.671165 0
M  V30 69 H 12.667964 1.368179 -18.056353 0
M  V30 70 H 11.104565 -0.544277 -18.246576 0
M  V30 71 H 11.441253 -0.226636 -16.553383 0
M  V30 72 H 9.051442 -0.520450 -16.837263 0
M  V30 73 H 8.991045 0.670691 -18.115635 0
M  V30 74 H 10.158119 6.214832 -9.330985 0
M  V30 END ATOM
M  V30 BEGIN BOND
M  V30 1 2 2 1
M  V30 2 1 3 2
M  V30 3 1 4 3
M  V30 4 2 5 4
M  V30 5 1 6 5
M  V30 6 2 7 6
M  V30 7 1 8 7
M  V30 8 1 9 4
M  V30 9 2 9 8
M  V30 10 1 10 9
M  V30 11 2 11 3
M  V30 12 1 12 11
M  V30 13 1 13 12
M  V30 14 2 14 13
M  V30 15 1 15 2
M  V30 16 1 15 13
M  V30 17 1 16 15
M  V30 18 1 17 16
M  V30 19 1 18 17
M  V30 20 1 19 18
M  V30 21 1 20 19
M  V30 22 1 21 20
M  V30 23 1 22 21
M  V30 24 1 23 22
M  V30 25 1 24 23
M  V30 26 1 25 24
M  V30 27 2 26 25
M  V30 28 1 27 26
M  V30 29 1 28 27
M  V30 30 2 29 28
M  V30 31 1 30 29
M  V30 32 2 31 30
M  V30 33 1 32 31
M  V30 34 1 33 25
M  V30 35 1 33 28
M  V30 36 2 33 32
M  V30 37 1 34 20
M  V30 38 1 34 24
M  V30 39 1 35 12
M  V30 40 1 36 35
M  V30 41 1 37 36
M  V30 42 1 38 11
M  V30 43 1 38 37
M  V30 44 1 39 5
M  V30 45 1 40 6
M  V30 46 1 41 7
M  V30 47 1 42 8
M  V30 48 1 43 16
M  V30 49 1 44 16
M  V30 50 1 45 17
M  V30 51 1 46 17
M  V30 52 1 47 18
M  V30 53 1 48 18
M  V30 54 1 49 19
M  V30 55 1 50 19
M  V30 56 1 51 21
M  V30 57 1 52 21
M  V30 58 1 53 22
M  V30 59 1 54 22
M  V30 60 1 55 23
M  V30 61 1 56 23
M  V30 62 1 24 57 CFG=1
M  V30 63 1 58 26
M  V30 64 1 59 27
M  V30 65 1 60 29
M  V30 66 1 61 30
M  V30 67 1 62 31
M  V30 68 1 63 32
M  V30 69 1 64 34
M  V30 70 1 65 34
M  V30 71 1 66 35
M  V30 72 1 67 35
M  V30 73 1 68 36
M  V30 74 1 69 36
M  V30 75 1 70 37
M  V30 76 1 71 37
M  V30 77 1 72 38
M  V30 78 1 73 38
M  V30 79 1 20 74 CFG=1
M  V30 END BOND
M  V30 END CTAB
M  END
>  <b_m_subgroup_collapsed>  (262) 
0

>  <r_i_docking_score>  (262) 
-8.6738285992473205

>  <s_m_subgroup_title>  (262) 
glide-dock_SP_D22_pv

>  <s_m_subgroupid>  (262) 
glide-dock_SP_D22_pv

>  <Molecule ChEMBL ID>  (262) 
CHEMBL4470437

>  <Standard Type>  (262) 
Ki

>  <Standard Value>  (262) 
10000.0

>  <label>  (262) 
0

$$$$
CHEMBL4092243
     RDKit          3D

  0  0  0  0  0  0  0  0  0  0999 V3000
M  V30 BEGIN CTAB
M  V30 COUNTS 60 64 0 0 1
M  V30 BEGIN ATOM
M  V30 1 O 9.493034 3.635896 -16.136087 0
M  V30 2 S 9.698816 2.450403 -15.289892 0
M  V30 3 O 10.885978 1.601656 -15.463710 0
M  V30 4 N 9.693077 2.972425 -13.640741 0
M  V30 5 C 8.674256 3.899971 -13.146595 0
M  V30 6 C 9.150843 4.542511 -11.835535 0
M  V30 7 C 8.030442 5.319740 -11.103971 0
M  V30 8 N 8.486222 6.172229 -9.970885 0 CFG=1 CHG=1
M  V30 9 C 8.944571 5.421530 -8.765041 0
M  V30 10 C 9.706867 6.278937 -7.751506 0
M  V30 11 C 10.090471 7.555342 -7.944375 0
M  V30 12 C 10.852635 8.346404 -6.935106 0
M  V30 13 C 11.321685 9.595043 -7.232313 0
M  V30 14 N 11.972469 10.114717 -6.139484 0
M  V30 15 C 11.956438 9.218301 -5.100250 0
M  V30 16 C 12.486095 9.321026 -3.805471 0
M  V30 17 C 12.337935 8.273545 -2.903671 0
M  V30 18 C 11.688355 7.114248 -3.322539 0
M  V30 19 F 11.479215 6.172314 -2.393165 0
M  V30 20 C 11.207380 6.972224 -4.646855 0
M  V30 21 C 11.280430 8.045315 -5.575339 0
M  V30 22 C 9.695486 8.225895 -9.259193 0
M  V30 23 C 9.434163 7.228040 -10.388836 0
M  V30 24 C 8.261626 1.390493 -15.429852 0
M  V30 25 C 7.879104 0.584388 -14.342841 0
M  V30 26 C 6.734447 -0.228110 -14.437450 0
M  V30 27 C 6.000646 -0.274543 -15.640935 0
M  V30 28 C 4.880539 -1.124900 -15.754910 0
M  V30 29 C 4.166209 -1.196190 -16.966009 0
M  V30 30 C 4.567986 -0.414937 -18.067398 0
M  V30 31 C 5.680531 0.444214 -17.957893 0
M  V30 32 C 6.403455 0.517857 -16.747496 0
M  V30 33 C 7.525337 1.367262 -16.631372 0
M  V30 34 H 9.910797 2.215009 -12.985790 0
M  V30 35 H 7.731487 3.372130 -13.010961 0
M  V30 36 H 8.493961 4.674629 -13.893024 0
M  V30 37 H 9.984994 5.194560 -12.089538 0
M  V30 38 H 9.559496 3.774156 -11.178332 0
M  V30 39 H 7.286048 4.613964 -10.740412 0
M  V30 40 H 7.510818 5.964451 -11.814033 0
M  V30 41 H 9.610889 4.609977 -9.054734 0
M  V30 42 H 8.085484 4.966901 -8.273110 0
M  V30 43 H 9.964587 5.772438 -6.839398 0
M  V30 44 H 11.285713 10.171558 -8.141113 0
M  V30 45 H 12.415795 11.021217 -6.134449 0
M  V30 46 H 13.041322 10.172345 -3.478871 0
M  V30 47 H 12.712689 8.358835 -1.893602 0
M  V30 48 H 10.703444 6.056400 -4.903167 0
M  V30 49 H 8.834109 8.873494 -9.085876 0
M  V30 50 H 10.504970 8.856258 -9.622905 0
M  V30 51 H 9.044498 7.756912 -11.259996 0
M  V30 52 H 10.386789 6.782876 -10.678039 0
M  V30 53 H 8.473528 0.579239 -13.446738 0
M  V30 54 H 6.449741 -0.848552 -13.599362 0
M  V30 55 H 4.572886 -1.739468 -14.922165 0
M  V30 56 H 3.313462 -1.856641 -17.050177 0
M  V30 57 H 4.016847 -0.470321 -18.994734 0
M  V30 58 H 5.978586 1.034360 -18.810562 0
M  V30 59 H 7.837379 1.981755 -17.462507 0
M  V30 60 H 7.647705 6.697167 -9.706481 0
M  V30 END ATOM
M  V30 BEGIN BOND
M  V30 1 2 2 1
M  V30 2 2 3 2
M  V30 3 1 4 2
M  V30 4 1 5 4
M  V30 5 1 6 5
M  V30 6 1 7 6
M  V30 7 1 8 7
M  V30 8 1 9 8
M  V30 9 1 10 9
M  V30 10 2 11 10
M  V30 11 1 12 11
M  V30 12 2 13 12
M  V30 13 1 14 13
M  V30 14 1 15 14
M  V30 15 1 16 15
M  V30 16 2 17 16
M  V30 17 1 18 17
M  V30 18 1 19 18
M  V30 19 2 20 18
M  V30 20 1 21 12
M  V30 21 2 21 15
M  V30 22 1 21 20
M  V30 23 1 22 11
M  V30 24 1 23 8
M  V30 25 1 23 22
M  V30 26 1 24 2
M  V30 27 1 25 24
M  V30 28 2 26 25
M  V30 29 1 27 26
M  V30 30 2 28 27
M  V30 31 1 29 28
M  V30 32 2 30 29
M  V30 33 1 31 30
M  V30 34 1 32 27
M  V30 35 2 32 31
M  V30 36 2 33 24
M  V30 37 1 33 32
M  V30 38 1 34 4
M  V30 39 1 35 5
M  V30 40 1 36 5
M  V30 41 1 37 6
M  V30 42 1 38 6
M  V30 43 1 39 7
M  V30 44 1 40 7
M  V30 45 1 41 9
M  V30 46 1 42 9
M  V30 47 1 43 10
M  V30 48 1 44 13
M  V30 49 1 45 14
M  V30 50 1 46 16
M  V30 51 1 47 17
M  V30 52 1 48 20
M  V30 53 1 49 22
M  V30 54 1 50 22
M  V30 55 1 51 23
M  V30 56 1 52 23
M  V30 57 1 53 25
M  V30 58 1 54 26
M  V30 59 1 55 28
M  V30 60 1 56 29
M  V30 61 1 57 30
M  V30 62 1 58 31
M  V30 63 1 59 33
M  V30 64 1 8 60 CFG=1
M  V30 END BOND
M  V30 END CTAB
M  END
>  <b_m_subgroup_collapsed>  (263) 
0

>  <r_i_docking_score>  (263) 
-8.6704621154065098

>  <s_m_subgroup_title>  (263) 
glide-dock_SP_D22_pv

>  <s_m_subgroupid>  (263) 
glide-dock_SP_D22_pv

>  <Molecule ChEMBL ID>  (263) 
CHEMBL4092243

>  <Standard Type>  (263) 
Ki

>  <Standard Value>  (263) 
0.7

>  <label>  (263) 
1

$$$$
CHEMBL3932186
     RDKit          3D

  0  0  0  0  0  0  0  0  0  0999 V3000
M  V30 BEGIN CTAB
M  V30 COUNTS 62 66 0 0 1
M  V30 BEGIN ATOM
M  V30 1 O 7.735097 2.172291 -17.921188 0
M  V30 2 C 7.260133 1.279579 -17.221584 0
M  V30 3 N 7.738969 0.959193 -16.010796 0
M  V30 4 C 8.902060 1.555780 -15.355258 0
M  V30 5 C 8.652233 2.962378 -14.751683 0 CFG=1
M  V30 6 C 7.287771 3.065138 -14.032229 0
M  V30 7 C 7.124874 4.337813 -13.172095 0
M  V30 8 C 8.317687 4.611470 -12.230742 0 CFG=2
M  V30 9 C 8.091771 5.874275 -11.366614 0
M  V30 10 N 9.199184 6.100161 -10.393626 0 CHG=1
M  V30 11 C 9.862563 7.415197 -10.565167 0
M  V30 12 C 11.104743 7.515169 -9.664205 0
M  V30 13 N 10.779126 7.244812 -8.259335 0
M  V30 14 C 11.078429 8.190935 -7.236589 0
M  V30 15 N 11.275386 9.443389 -7.582035 0
M  V30 16 S 11.564234 10.420280 -6.249677 0
M  V30 17 C 11.607303 9.117312 -5.145858 0
M  V30 18 C 11.938928 9.196467 -3.800711 0
M  V30 19 C 12.005930 8.023972 -3.065074 0
M  V30 20 Cl 12.486063 8.172482 -1.446889 0
M  V30 21 C 11.686084 6.787323 -3.652024 0
M  V30 22 C 11.311610 6.733609 -5.012567 0
M  V30 23 C 11.286024 7.897479 -5.821274 0
M  V30 24 C 10.028039 6.013713 -8.021668 0
M  V30 25 C 8.819012 5.883001 -8.973559 0
M  V30 26 C 9.598612 4.677907 -13.084263 0
M  V30 27 C 9.823202 3.348705 -13.819330 0
M  V30 28 C 6.087733 0.507494 -17.681273 0
M  V30 29 C 5.500250 -0.630131 -17.191307 0
M  V30 30 C 4.418326 -0.939000 -18.062397 0
M  V30 31 C 4.427838 0.024246 -19.030531 0
M  V30 32 O 5.436230 0.912507 -18.811806 0
M  V30 33 H 7.277617 0.208518 -15.518103 0
M  V30 34 H 9.194885 0.866855 -14.561616 0
M  V30 35 H 9.742068 1.587832 -16.051235 0
M  V30 36 H 8.644321 3.683150 -15.568274 0
M  V30 37 H 6.485804 3.050288 -14.771205 0
M  V30 38 H 7.126976 2.166674 -13.446855 0
M  V30 39 H 6.200026 4.270897 -12.597123 0
M  V30 40 H 7.006105 5.186223 -13.843330 0
M  V30 41 H 8.404082 3.772344 -11.543987 0
M  V30 42 H 7.963029 6.743589 -12.013986 0
M  V30 43 H 7.147940 5.772247 -10.829880 0
M  V30 44 H 10.158888 7.548601 -11.606495 0
M  V30 45 H 9.156690 8.214189 -10.327919 0
M  V30 46 H 11.846905 6.789679 -9.988870 0
M  V30 47 H 11.574073 8.488562 -9.806854 0
M  V30 48 H 12.180366 10.145847 -3.344857 0
M  V30 49 H 11.734694 5.881228 -3.065683 0
M  V30 50 H 11.109690 5.772405 -5.451055 0
M  V30 51 H 10.701210 5.166269 -8.150722 0
M  V30 52 H 9.652598 5.980960 -7.000798 0
M  V30 53 H 8.086016 6.632352 -8.690075 0
M  V30 54 H 8.348265 4.906332 -8.852606 0
M  V30 55 H 10.469609 4.882236 -12.462291 0
M  V30 56 H 9.533267 5.495676 -13.803562 0
M  V30 57 H 9.973447 2.572437 -13.069322 0
M  V30 58 H 10.749159 3.399922 -14.393650 0
M  V30 59 H 5.811150 -1.183560 -16.316803 0
M  V30 60 H 3.724676 -1.765321 -17.991802 0
M  V30 61 H 3.816545 0.219145 -19.900126 0
M  V30 62 H 9.897191 5.402786 -10.603288 0
M  V30 END ATOM
M  V30 BEGIN BOND
M  V30 1 2 2 1
M  V30 2 1 3 2
M  V30 3 1 4 3
M  V30 4 1 5 4
M  V30 5 1 6 5
M  V30 6 1 7 6
M  V30 7 1 8 7
M  V30 8 1 9 8
M  V30 9 1 10 9
M  V30 10 1 11 10
M  V30 11 1 12 11
M  V30 12 1 13 12
M  V30 13 1 14 13
M  V30 14 2 15 14
M  V30 15 1 16 15
M  V30 16 1 17 16
M  V30 17 1 18 17
M  V30 18 2 19 18
M  V30 19 1 20 19
M  V30 20 1 21 19
M  V30 21 2 22 21
M  V30 22 1 23 14
M  V30 23 2 23 17
M  V30 24 1 23 22
M  V30 25 1 24 13
M  V30 26 1 25 10
M  V30 27 1 25 24
M  V30 28 1 26 8
M  V30 29 1 27 5
M  V30 30 1 27 26
M  V30 31 1 28 2
M  V30 32 2 29 28
M  V30 33 1 30 29
M  V30 34 2 31 30
M  V30 35 1 32 28
M  V30 36 1 32 31
M  V30 37 1 33 3
M  V30 38 1 34 4
M  V30 39 1 35 4
M  V30 40 1 5 36 CFG=3
M  V30 41 1 37 6
M  V30 42 1 38 6
M  V30 43 1 39 7
M  V30 44 1 40 7
M  V30 45 1 8 41 CFG=1
M  V30 46 1 42 9
M  V30 47 1 43 9
M  V30 48 1 44 11
M  V30 49 1 45 11
M  V30 50 1 46 12
M  V30 51 1 47 12
M  V30 52 1 48 18
M  V30 53 1 49 21
M  V30 54 1 50 22
M  V30 55 1 51 24
M  V30 56 1 52 24
M  V30 57 1 53 25
M  V30 58 1 54 25
M  V30 59 1 55 26
M  V30 60 1 56 26
M  V30 61 1 57 27
M  V30 62 1 58 27
M  V30 63 1 59 29
M  V30 64 1 60 30
M  V30 65 1 61 31
M  V30 66 1 62 10
M  V30 END BOND
M  V30 END CTAB
M  END
>  <b_m_subgroup_collapsed>  (264) 
0

>  <r_i_docking_score>  (264) 
-8.6675332035731607

>  <s_m_subgroup_title>  (264) 
glide-dock_SP_D22_pv

>  <s_m_subgroupid>  (264) 
glide-dock_SP_D22_pv

>  <Molecule ChEMBL ID>  (264) 
CHEMBL3932186

>  <Standard Type>  (264) 
Ki

>  <Standard Value>  (264) 
2.1

>  <label>  (264) 
1

$$$$
CHEMBL1204203
     RDKit          3D

  0  0  0  0  0  0  0  0  0  0999 V3000
M  V30 BEGIN CTAB
M  V30 COUNTS 66 69 0 0 1
M  V30 BEGIN ATOM
M  V30 1 C 11.276631 -0.546721 -18.167072 0
M  V30 2 C 10.097221 -0.831794 -17.230438 0
M  V30 3 S 9.712326 0.654676 -16.228260 0
M  V30 4 O 9.257895 1.737266 -17.117069 0
M  V30 5 O 10.792399 0.881124 -15.255355 0
M  V30 6 N 8.332479 0.175032 -15.304379 0
M  V30 7 C 7.472074 1.002986 -14.575521 0
M  V30 8 C 6.233639 0.488302 -14.157801 0
M  V30 9 C 5.341470 1.305369 -13.446378 0
M  V30 10 C 5.685346 2.637630 -13.145542 0
M  V30 11 C 6.936747 3.183422 -13.519650 0
M  V30 12 N 7.287621 4.508310 -13.151219 0
M  V30 13 C 6.747226 5.099508 -11.921468 0
M  V30 14 C 7.860917 5.299834 -10.883457 0
M  V30 15 N 8.962118 6.119318 -11.447423 0 CHG=1
M  V30 16 C 10.003482 6.505719 -10.457541 0
M  V30 17 C 9.498660 7.504266 -9.396846 0
M  V30 18 C 10.580668 7.858190 -8.367689 0
M  V30 19 C 10.005306 8.609736 -7.149250 0
M  V30 20 N 10.945696 8.658733 -6.023186 0
M  V30 21 C 11.460994 9.771810 -5.488618 0
M  V30 22 O 11.285853 10.930738 -5.850929 0
M  V30 23 C 12.343858 9.372414 -4.323310 0 CFG=1
M  V30 24 C 11.971758 9.817793 -2.917561 0
M  V30 25 C 12.436868 8.628569 -2.061197 0
M  V30 26 C 12.115996 7.404559 -2.932209 0
M  V30 27 N 12.046962 7.972855 -4.271328 0
M  V30 28 C 11.285981 7.578142 -5.298047 0
M  V30 29 O 10.885417 6.440901 -5.482225 0
M  V30 30 C 9.529330 5.464406 -12.658883 0
M  V30 31 C 8.439222 5.211344 -13.719819 0
M  V30 32 C 7.821635 2.339335 -14.246882 0
M  V30 33 H 11.536263 -1.427424 -18.752245 0
M  V30 34 H 11.036775 0.257081 -18.863333 0
M  V30 35 H 12.160290 -0.243140 -17.605907 0
M  V30 36 H 10.332088 -1.648081 -16.549324 0
M  V30 37 H 9.205916 -1.100598 -17.798748 0
M  V30 38 H 8.035728 -0.786868 -15.421833 0
M  V30 39 H 5.953201 -0.528460 -14.394850 0
M  V30 40 H 4.377909 0.919602 -13.146869 0
M  V30 41 H 4.943148 3.233102 -12.636687 0
M  V30 42 H 6.290611 6.059669 -12.164956 0
M  V30 43 H 5.967177 4.505595 -11.451797 0
M  V30 44 H 7.429698 5.772117 -10.008415 0
M  V30 45 H 8.247142 4.335199 -10.552893 0
M  V30 46 H 10.407829 5.612313 -9.976567 0
M  V30 47 H 10.835101 6.971775 -10.986541 0
M  V30 48 H 9.122231 8.409643 -9.872191 0
M  V30 49 H 8.655340 7.077868 -8.853394 0
M  V30 50 H 11.051351 6.930851 -8.042537 0
M  V30 51 H 11.369020 8.449327 -8.832331 0
M  V30 52 H 9.691797 9.609355 -7.447948 0
M  V30 53 H 9.095656 8.116031 -6.799838 0
M  V30 54 H 13.395791 9.540072 -4.556012 0
M  V30 55 H 10.894290 9.952477 -2.840617 0
M  V30 56 H 12.441653 10.753698 -2.646481 0
M  V30 57 H 11.945418 8.582103 -1.088887 0
M  V30 58 H 13.509025 8.703461 -1.880942 0
M  V30 59 H 11.163873 6.955420 -2.649535 0
M  V30 60 H 12.886362 6.635677 -2.864275 0
M  V30 61 H 10.309399 6.091375 -13.089727 0
M  V30 62 H 9.999844 4.520698 -12.376234 0
M  V30 63 H 8.855145 4.718125 -14.595870 0
M  V30 64 H 8.087193 6.172968 -14.084422 0
M  V30 65 H 8.797904 2.687473 -14.538436 0
M  V30 66 H 8.524808 6.978947 -11.749381 0
M  V30 END ATOM
M  V30 BEGIN BOND
M  V30 1 1 2 1
M  V30 2 1 3 2
M  V30 3 2 4 3
M  V30 4 2 5 3
M  V30 5 1 6 3
M  V30 6 1 7 6
M  V30 7 1 8 7
M  V30 8 2 9 8
M  V30 9 1 10 9
M  V30 10 2 11 10
M  V30 11 1 12 11
M  V30 12 1 13 12
M  V30 13 1 14 13
M  V30 14 1 15 14
M  V30 15 1 16 15
M  V30 16 1 17 16
M  V30 17 1 18 17
M  V30 18 1 19 18
M  V30 19 1 20 19
M  V30 20 1 21 20
M  V30 21 2 22 21
M  V30 22 1 23 21
M  V30 23 1 24 23
M  V30 24 1 25 24
M  V30 25 1 26 25
M  V30 26 1 27 23
M  V30 27 1 27 26
M  V30 28 1 28 20
M  V30 29 1 28 27
M  V30 30 2 29 28
M  V30 31 1 30 15
M  V30 32 1 31 12
M  V30 33 1 31 30
M  V30 34 2 32 7
M  V30 35 1 32 11
M  V30 36 1 33 1
M  V30 37 1 34 1
M  V30 38 1 35 1
M  V30 39 1 36 2
M  V30 40 1 37 2
M  V30 41 1 38 6
M  V30 42 1 39 8
M  V30 43 1 40 9
M  V30 44 1 41 10
M  V30 45 1 42 13
M  V30 46 1 43 13
M  V30 47 1 44 14
M  V30 48 1 45 14
M  V30 49 1 46 16
M  V30 50 1 47 16
M  V30 51 1 48 17
M  V30 52 1 49 17
M  V30 53 1 50 18
M  V30 54 1 51 18
M  V30 55 1 52 19
M  V30 56 1 53 19
M  V30 57 1 23 54 CFG=3
M  V30 58 1 55 24
M  V30 59 1 56 24
M  V30 60 1 57 25
M  V30 61 1 58 25
M  V30 62 1 59 26
M  V30 63 1 60 26
M  V30 64 1 61 30
M  V30 65 1 62 30
M  V30 66 1 63 31
M  V30 67 1 64 31
M  V30 68 1 65 32
M  V30 69 1 66 15
M  V30 END BOND
M  V30 END CTAB
M  END
>  <b_m_subgroup_collapsed>  (265) 
0

>  <r_i_docking_score>  (265) 
-8.6669623953038109

>  <s_m_subgroup_title>  (265) 
glide-dock_SP_D22_pv

>  <s_m_subgroupid>  (265) 
glide-dock_SP_D22_pv

>  <Molecule ChEMBL ID>  (265) 
CHEMBL1204203

>  <Standard Type>  (265) 
Ki

>  <Standard Value>  (265) 
22.0

>  <label>  (265) 
1

$$$$
CHEMBL461627
     RDKit          3D

  0  0  0  0  0  0  0  0  0  0999 V3000
M  V30 BEGIN CTAB
M  V30 COUNTS 55 59 0 0 1
M  V30 BEGIN ATOM
M  V30 1 C 9.804188 -0.471444 -16.875282 0
M  V30 2 O 8.963108 0.359463 -16.095221 0
M  V30 3 C 9.503203 1.345608 -15.358761 0
M  V30 4 O 10.709034 1.576188 -15.287881 0
M  V30 5 C 8.491238 2.161191 -14.646650 0
M  V30 6 C 7.157933 1.838128 -14.611983 0
M  V30 7 O 6.440626 2.742049 -13.882694 0
M  V30 8 C 7.338866 3.663045 -13.451742 0
M  V30 9 C 8.594913 3.372198 -13.899218 0
M  V30 10 C 9.688210 4.288524 -13.527021 0
M  V30 11 O 10.882839 4.026503 -13.637429 0
M  V30 12 C 9.227632 5.662664 -13.029615 0
M  V30 13 C 8.046629 5.616326 -12.019425 0 CFG=2
M  V30 14 C 8.488840 5.096076 -10.624171 0
M  V30 15 N 8.784073 6.172662 -9.635528 0 CFG=2 CHG=1
M  V30 16 C 10.092301 6.846423 -9.873665 0
M  V30 17 C 10.425268 7.914517 -8.821224 0
M  V30 18 C 10.365053 7.331833 -7.396435 0 CFG=1
M  V30 19 C 10.741608 8.329423 -6.327176 0
M  V30 20 N 10.486059 9.625877 -6.475503 0
M  V30 21 O 10.934048 10.297233 -5.304263 0
M  V30 22 C 11.442620 9.371255 -4.411402 0
M  V30 23 C 11.981475 9.511912 -3.124704 0
M  V30 24 C 12.368877 8.340409 -2.446165 0
M  V30 25 F 12.885643 8.434689 -1.201423 0
M  V30 26 C 12.214899 7.072727 -3.057040 0
M  V30 27 C 11.686019 6.960487 -4.363606 0
M  V30 28 C 11.301983 8.134142 -5.047119 0
M  V30 29 C 8.968156 6.744765 -7.187910 0
M  V30 30 C 8.683946 5.661202 -8.243961 0
M  V30 31 C 6.859015 4.792706 -12.602415 0
M  V30 32 H 9.203001 -1.180984 -17.445070 0
M  V30 33 H 10.391895 0.117233 -17.581369 0
M  V30 34 H 10.485616 -1.033819 -16.233719 0
M  V30 35 H 6.575927 1.027424 -15.026298 0
M  V30 36 H 10.081097 6.217365 -12.648725 0
M  V30 37 H 8.882755 6.172216 -13.924319 0
M  V30 38 H 7.672274 6.630747 -11.877546 0
M  V30 39 H 7.685835 4.483853 -10.214139 0
M  V30 40 H 9.338602 4.418698 -10.701923 0
M  V30 41 H 10.886029 6.100553 -9.857528 0
M  V30 42 H 10.094556 7.316692 -10.855432 0
M  V30 43 H 11.416085 8.325391 -9.020050 0
M  V30 44 H 9.724016 8.745484 -8.920655 0
M  V30 45 H 11.085796 6.512712 -7.343254 0
M  V30 46 H 12.080237 10.484088 -2.660043 0
M  V30 47 H 12.506642 6.182748 -2.519751 0
M  V30 48 H 11.571654 5.991855 -4.826397 0
M  V30 49 H 8.890927 6.304338 -6.194481 0
M  V30 50 H 8.214286 7.531660 -7.231816 0
M  V30 51 H 7.685900 5.264734 -8.068330 0
M  V30 52 H 9.378139 4.829721 -8.118553 0
M  V30 53 H 6.250596 5.444281 -13.228140 0
M  V30 54 H 6.185936 4.434668 -11.823953 0
M  V30 55 H 8.042868 6.866800 -9.740134 0
M  V30 END ATOM
M  V30 BEGIN BOND
M  V30 1 1 2 1
M  V30 2 1 3 2
M  V30 3 2 4 3
M  V30 4 1 5 3
M  V30 5 2 6 5
M  V30 6 1 7 6
M  V30 7 1 8 7
M  V30 8 1 9 5
M  V30 9 2 9 8
M  V30 10 1 10 9
M  V30 11 2 11 10
M  V30 12 1 12 10
M  V30 13 1 13 12
M  V30 14 1 14 13
M  V30 15 1 15 14
M  V30 16 1 16 15
M  V30 17 1 17 16
M  V30 18 1 18 17
M  V30 19 1 19 18
M  V30 20 2 20 19
M  V30 21 1 21 20
M  V30 22 1 22 21
M  V30 23 1 23 22
M  V30 24 2 24 23
M  V30 25 1 25 24
M  V30 26 1 26 24
M  V30 27 2 27 26
M  V30 28 1 28 19
M  V30 29 2 28 22
M  V30 30 1 28 27
M  V30 31 1 29 18
M  V30 32 1 30 15
M  V30 33 1 30 29
M  V30 34 1 31 8
M  V30 35 1 31 13
M  V30 36 1 32 1
M  V30 37 1 33 1
M  V30 38 1 34 1
M  V30 39 1 35 6
M  V30 40 1 36 12
M  V30 41 1 37 12
M  V30 42 1 13 38 CFG=1
M  V30 43 1 39 14
M  V30 44 1 40 14
M  V30 45 1 41 16
M  V30 46 1 42 16
M  V30 47 1 43 17
M  V30 48 1 44 17
M  V30 49 1 18 45 CFG=3
M  V30 50 1 46 23
M  V30 51 1 47 26
M  V30 52 1 48 27
M  V30 53 1 49 29
M  V30 54 1 50 29
M  V30 55 1 51 30
M  V30 56 1 52 30
M  V30 57 1 53 31
M  V30 58 1 54 31
M  V30 59 1 15 55 CFG=1
M  V30 END BOND
M  V30 END CTAB
M  END
>  <b_m_subgroup_collapsed>  (266) 
0

>  <r_i_docking_score>  (266) 
-8.6659726024545201

>  <s_m_subgroup_title>  (266) 
glide-dock_SP_D22_pv

>  <s_m_subgroupid>  (266) 
glide-dock_SP_D22_pv

>  <Molecule ChEMBL ID>  (266) 
CHEMBL461627

>  <Standard Type>  (266) 
Ki

>  <Standard Value>  (266) 
85.11

>  <label>  (266) 
1

$$$$
CHEMBL5854151
     RDKit          3D

  0  0  0  0  0  0  0  0  0  0999 V3000
M  V30 BEGIN CTAB
M  V30 COUNTS 71 76 0 0 1
M  V30 BEGIN ATOM
M  V30 1 O 2.873680 -3.426922 -19.057129 0
M  V30 2 N 3.816767 -2.746409 -19.437597 0 CHG=1
M  V30 3 O 4.184662 -2.687035 -20.606958 0 CHG=-1
M  V30 4 C 4.562254 -1.963549 -18.436880 0
M  V30 5 C 4.027229 -1.749130 -17.149221 0
M  V30 6 C 4.763704 -1.055615 -16.177471 0
M  V30 7 C 6.055422 -0.598662 -16.484289 0
M  V30 8 S 7.195419 0.172537 -15.399324 0
M  V30 9 C 8.419185 0.187442 -16.646322 0
M  V30 10 S 10.122046 0.591599 -16.289938 0
M  V30 11 O 10.929547 -0.129044 -17.286699 0
M  V30 12 O 10.322972 0.356425 -14.852792 0
M  V30 13 N 10.302615 2.284105 -16.620323 0
M  V30 14 C 9.924554 3.355989 -15.681880 0 CFG=1
M  V30 15 C 8.519933 3.147607 -15.109819 0
M  V30 16 C 8.100122 4.319769 -14.222592 0
M  V30 17 C 9.065533 4.408139 -13.037994 0 CFG=2
M  V30 18 C 8.603332 5.470845 -12.027879 0
M  V30 19 C 9.113071 5.128731 -10.623360 0
M  V30 20 N 8.806818 6.129000 -9.580719 0 CHG=1
M  V30 21 C 9.398138 7.460861 -9.858158 0
M  V30 22 C 9.155749 8.426234 -8.701319 0
M  V30 23 N 9.670851 7.840104 -7.463728 0
M  V30 24 C 10.571773 8.549210 -6.629278 0
M  V30 25 N 10.886216 9.760401 -7.022101 0
M  V30 26 S 11.686931 10.572549 -5.847881 0
M  V30 27 C 11.811437 9.221084 -4.759066 0
M  V30 28 C 12.402198 9.170153 -3.484589 0
M  V30 29 C 12.432619 7.957193 -2.783514 0
M  V30 30 C 11.893864 6.806806 -3.379456 0
M  V30 31 C 11.286186 6.876980 -4.651010 0
M  V30 32 C 11.186893 8.094260 -5.377359 0
M  V30 33 C 8.969599 6.617407 -7.112269 0
M  V30 34 C 9.149222 5.585872 -8.235600 0
M  V30 35 C 10.509565 4.631075 -13.558254 0
M  V30 36 C 10.946905 3.523232 -14.538828 0
M  V30 37 C 7.978407 -0.262080 -17.864508 0
M  V30 38 C 6.631115 -0.779382 -17.783001 0
M  V30 39 C 5.842464 -1.447364 -18.743397 0
M  V30 40 H 3.057655 -2.148745 -16.889482 0
M  V30 41 H 4.356841 -0.922415 -15.185128 0
M  V30 42 H 11.194152 2.472538 -17.074196 0
M  V30 43 H 9.914763 4.281325 -16.259129 0
M  V30 44 H 8.526205 2.265329 -14.474948 0
M  V30 45 H 7.799813 2.971610 -15.907711 0
M  V30 46 H 7.076450 4.159229 -13.874926 0
M  V30 47 H 8.108122 5.260816 -14.775214 0
M  V30 48 H 9.047625 3.440689 -12.533274 0
M  V30 49 H 7.513092 5.520353 -11.992560 0
M  V30 50 H 8.944531 6.446708 -12.369149 0
M  V30 51 H 10.184604 4.978546 -10.652635 0
M  V30 52 H 8.679048 4.177050 -10.321398 0
M  V30 53 H 8.957500 7.897898 -10.753605 0
M  V30 54 H 10.470495 7.361078 -10.038269 0
M  V30 55 H 8.088943 8.629313 -8.573671 0
M  V30 56 H 9.608253 9.376463 -8.975121 0
M  V30 57 H 12.833950 10.057899 -3.049466 0
M  V30 58 H 12.876265 7.907103 -1.799787 0
M  V30 59 H 11.932960 5.862825 -2.855096 0
M  V30 60 H 10.900093 5.957496 -5.055645 0
M  V30 61 H 9.270103 6.207455 -6.157942 0
M  V30 62 H 7.913928 6.852815 -6.989976 0
M  V30 63 H 8.533631 4.707595 -8.033003 0
M  V30 64 H 10.188680 5.252434 -8.242168 0
M  V30 65 H 10.574478 5.601081 -14.056010 0
M  V30 66 H 11.219310 4.667702 -12.732908 0
M  V30 67 H 11.053870 2.593083 -13.982961 0
M  V30 68 H 11.931632 3.752248 -14.944418 0
M  V30 69 H 8.599630 -0.330465 -18.743736 0
M  V30 70 H 6.259269 -1.612918 -19.724806 0
M  V30 71 H 7.804348 6.297536 -9.584477 0
M  V30 END ATOM
M  V30 BEGIN BOND
M  V30 1 2 2 1
M  V30 2 1 3 2
M  V30 3 1 4 2
M  V30 4 1 5 4
M  V30 5 2 6 5
M  V30 6 1 7 6
M  V30 7 1 8 7
M  V30 8 1 9 8
M  V30 9 1 10 9
M  V30 10 2 11 10
M  V30 11 2 12 10
M  V30 12 1 13 10
M  V30 13 1 14 13
M  V30 14 1 15 14
M  V30 15 1 16 15
M  V30 16 1 17 16
M  V30 17 1 18 17
M  V30 18 1 19 18
M  V30 19 1 20 19
M  V30 20 1 21 20
M  V30 21 1 22 21
M  V30 22 1 23 22
M  V30 23 1 24 23
M  V30 24 2 25 24
M  V30 25 1 26 25
M  V30 26 1 27 26
M  V30 27 2 28 27
M  V30 28 1 29 28
M  V30 29 2 30 29
M  V30 30 1 31 30
M  V30 31 1 32 24
M  V30 32 1 32 27
M  V30 33 2 32 31
M  V30 34 1 33 23
M  V30 35 1 34 20
M  V30 36 1 34 33
M  V30 37 1 35 17
M  V30 38 1 36 14
M  V30 39 1 36 35
M  V30 40 2 37 9
M  V30 41 2 38 7
M  V30 42 1 38 37
M  V30 43 2 39 4
M  V30 44 1 39 38
M  V30 45 1 40 5
M  V30 46 1 41 6
M  V30 47 1 42 13
M  V30 48 1 14 43 CFG=3
M  V30 49 1 44 15
M  V30 50 1 45 15
M  V30 51 1 46 16
M  V30 52 1 47 16
M  V30 53 1 17 48 CFG=1
M  V30 54 1 49 18
M  V30 55 1 50 18
M  V30 56 1 51 19
M  V30 57 1 52 19
M  V30 58 1 53 21
M  V30 59 1 54 21
M  V30 60 1 55 22
M  V30 61 1 56 22
M  V30 62 1 57 28
M  V30 63 1 58 29
M  V30 64 1 59 30
M  V30 65 1 60 31
M  V30 66 1 61 33
M  V30 67 1 62 33
M  V30 68 1 63 34
M  V30 69 1 64 34
M  V30 70 1 65 35
M  V30 71 1 66 35
M  V30 72 1 67 36
M  V30 73 1 68 36
M  V30 74 1 69 37
M  V30 75 1 70 39
M  V30 76 1 71 20
M  V30 END BOND
M  V30 END CTAB
M  END
>  <b_m_subgroup_collapsed>  (267) 
0

>  <r_i_docking_score>  (267) 
-8.6624443071423691

>  <s_m_subgroup_title>  (267) 
glide-dock_SP_D22_pv

>  <s_m_subgroupid>  (267) 
glide-dock_SP_D22_pv

>  <Molecule ChEMBL ID>  (267) 
CHEMBL5854151

>  <Standard Type>  (267) 
Ki

>  <Standard Value>  (267) 
6.49

>  <label>  (267) 
1

$$$$
CHEMBL4577206
     RDKit          3D

  0  0  0  0  0  0  0  0  0  0999 V3000
M  V30 BEGIN CTAB
M  V30 COUNTS 64 67 0 0 1
M  V30 BEGIN ATOM
M  V30 1 C 12.995514 -0.463684 -21.379410 0
M  V30 2 O 11.691279 -0.627608 -20.839750 0
M  V30 3 C 11.459909 -0.180777 -19.557671 0
M  V30 4 C 12.402556 0.533921 -18.783005 0
M  V30 5 C 12.082947 0.951364 -17.476122 0
M  V30 6 C 10.823937 0.657069 -16.900579 0
M  V30 7 N 10.531075 1.044167 -15.572914 0
M  V30 8 C 9.491216 0.397623 -14.782722 0
M  V30 9 C 8.363546 1.399978 -14.488592 0
M  V30 10 N 8.887600 2.638521 -13.847875 0 CHG=1
M  V30 11 C 7.781343 3.571349 -13.495467 0
M  V30 12 C 8.148288 4.677477 -12.480876 0
M  V30 13 C 8.661351 5.986755 -13.116184 0
M  V30 14 C 8.333894 7.252652 -12.307409 0
M  V30 15 N 8.887546 7.251706 -10.965319 0
M  V30 16 C 10.182535 7.374165 -10.644918 0
M  V30 17 O 11.090084 7.378535 -11.477191 0
M  V30 18 C 10.472821 7.594240 -9.189816 0
M  V30 19 C 11.507013 8.476598 -8.810896 0
M  V30 20 C 11.819479 8.667067 -7.451950 0
M  V30 21 C 11.122204 7.955383 -6.453562 0
M  V30 22 C 11.498681 8.098860 -5.048396 0
M  V30 23 C 11.741902 9.381482 -4.466160 0
M  V30 24 C 12.081615 9.320612 -3.140338 0
M  V30 25 S 12.087353 7.680432 -2.560851 0
M  V30 26 C 11.685680 7.083648 -4.144119 0
M  V30 27 C 10.083208 7.077828 -6.828336 0
M  V30 28 C 9.755137 6.900212 -8.187193 0
M  V30 29 C 9.968179 3.265568 -14.657668 0
M  V30 30 C 11.085798 2.268212 -15.002872 0
M  V30 31 C 9.881203 -0.047007 -17.688465 0
M  V30 32 C 10.198204 -0.457572 -18.996984 0
M  V30 33 H 13.034308 -0.910995 -22.372169 0
M  V30 34 H 13.255234 0.590923 -21.483086 0
M  V30 35 H 13.746311 -0.962691 -20.763248 0
M  V30 36 H 13.384222 0.771622 -19.163734 0
M  V30 37 H 12.848425 1.461518 -16.912914 0
M  V30 38 H 9.940141 0.065585 -13.847525 0
M  V30 39 H 9.102893 -0.506680 -15.248754 0
M  V30 40 H 7.623372 0.922100 -13.847499 0
M  V30 41 H 7.852331 1.659614 -15.416312 0
M  V30 42 H 6.980814 2.981422 -13.047731 0
M  V30 43 H 7.341247 3.996834 -14.396144 0
M  V30 44 H 8.843662 4.313571 -11.723949 0
M  V30 45 H 7.233607 4.917377 -11.935305 0
M  V30 46 H 8.215529 6.119132 -14.100564 0
M  V30 47 H 9.735973 5.938599 -13.280985 0
M  V30 48 H 7.251184 7.358397 -12.246437 0
M  V30 49 H 8.676246 8.156147 -12.806631 0
M  V30 50 H 8.187409 7.366713 -10.236386 0
M  V30 51 H 12.072924 9.009744 -9.563067 0
M  V30 52 H 12.623970 9.336875 -7.183567 0
M  V30 53 H 11.655593 10.296902 -5.032700 0
M  V30 54 H 12.312881 10.136438 -2.468993 0
M  V30 55 H 11.577666 6.020732 -4.307876 0
M  V30 56 H 9.533254 6.535439 -6.072962 0
M  V30 57 H 8.960411 6.216156 -8.449354 0
M  V30 58 H 9.541669 3.677990 -15.572766 0
M  V30 59 H 10.420650 4.087337 -14.110655 0
M  V30 60 H 11.638744 2.007061 -14.099759 0
M  V30 61 H 11.793067 2.762998 -15.666792 0
M  V30 62 H 8.895402 -0.275282 -17.314774 0
M  V30 63 H 9.462762 -0.993839 -19.576458 0
M  V30 64 H 9.316332 2.331218 -12.982561 0
M  V30 END ATOM
M  V30 BEGIN BOND
M  V30 1 1 2 1
M  V30 2 1 3 2
M  V30 3 1 4 3
M  V30 4 2 5 4
M  V30 5 1 6 5
M  V30 6 1 7 6
M  V30 7 1 8 7
M  V30 8 1 9 8
M  V30 9 1 10 9
M  V30 10 1 11 10
M  V30 11 1 12 11
M  V30 12 1 13 12
M  V30 13 1 14 13
M  V30 14 1 15 14
M  V30 15 1 16 15
M  V30 16 2 17 16
M  V30 17 1 18 16
M  V30 18 1 19 18
M  V30 19 2 20 19
M  V30 20 1 21 20
M  V30 21 1 22 21
M  V30 22 1 23 22
M  V30 23 2 24 23
M  V30 24 1 25 24
M  V30 25 2 26 22
M  V30 26 1 26 25
M  V30 27 2 27 21
M  V30 28 2 28 18
M  V30 29 1 28 27
M  V30 30 1 29 10
M  V30 31 1 30 7
M  V30 32 1 30 29
M  V30 33 2 31 6
M  V30 34 2 32 3
M  V30 35 1 32 31
M  V30 36 1 33 1
M  V30 37 1 34 1
M  V30 38 1 35 1
M  V30 39 1 36 4
M  V30 40 1 37 5
M  V30 41 1 38 8
M  V30 42 1 39 8
M  V30 43 1 40 9
M  V30 44 1 41 9
M  V30 45 1 42 11
M  V30 46 1 43 11
M  V30 47 1 44 12
M  V30 48 1 45 12
M  V30 49 1 46 13
M  V30 50 1 47 13
M  V30 51 1 48 14
M  V30 52 1 49 14
M  V30 53 1 50 15
M  V30 54 1 51 19
M  V30 55 1 52 20
M  V30 56 1 53 23
M  V30 57 1 54 24
M  V30 58 1 55 26
M  V30 59 1 56 27
M  V30 60 1 57 28
M  V30 61 1 58 29
M  V30 62 1 59 29
M  V30 63 1 60 30
M  V30 64 1 61 30
M  V30 65 1 62 31
M  V30 66 1 63 32
M  V30 67 1 64 10
M  V30 END BOND
M  V30 END CTAB
M  END
>  <b_m_subgroup_collapsed>  (268) 
0

>  <r_i_docking_score>  (268) 
-8.6592912946109806

>  <s_m_subgroup_title>  (268) 
glide-dock_SP_D22_pv

>  <s_m_subgroupid>  (268) 
glide-dock_SP_D22_pv

>  <Molecule ChEMBL ID>  (268) 
CHEMBL4577206

>  <Standard Type>  (268) 
Ki

>  <Standard Value>  (268) 
17000.0

>  <label>  (268) 
0

$$$$
CHEMBL246637
     RDKit          3D

  0  0  0  0  0  0  0  0  0  0999 V3000
M  V30 BEGIN CTAB
M  V30 COUNTS 46 49 0 0 1
M  V30 BEGIN ATOM
M  V30 1 O 7.796461 6.943309 -12.246855 0
M  V30 2 C 8.970129 6.701000 -11.482931 0 CFG=1
M  V30 3 C 10.017860 6.065742 -12.410952 0
M  V30 4 C 11.204008 6.735308 -12.807899 0
M  V30 5 C 12.035415 6.191643 -13.805676 0
M  V30 6 C 11.707030 4.966758 -14.412090 0
M  V30 7 Cl 12.688985 4.377842 -15.703507 0
M  V30 8 C 10.563931 4.257942 -13.986712 0
M  V30 9 Cl 10.153010 2.730704 -14.683302 0
M  V30 10 C 9.726571 4.813365 -13.000818 0
M  V30 11 C 9.365325 8.073339 -10.884958 0
M  V30 12 C 10.438968 7.965894 -9.783369 0
M  V30 13 N 10.012378 7.094722 -8.650441 0 CFG=2 CHG=1
M  V30 14 C 11.060694 6.993183 -7.585158 0
M  V30 15 C 11.103916 8.082781 -6.539819 0
M  V30 16 C 11.031363 9.438522 -6.732662 0
M  V30 17 N 11.252850 10.099335 -5.539702 0
M  V30 18 C 11.515206 9.199515 -4.533490 0
M  V30 19 C 11.847713 9.372779 -3.179250 0
M  V30 20 C 12.092010 8.246251 -2.377691 0
M  V30 21 C 12.017241 6.961246 -2.942457 0
M  V30 22 C 11.685223 6.799137 -4.303065 0
M  V30 23 C 11.413388 7.911029 -5.137449 0
M  V30 24 C 9.618261 5.741908 -9.150111 0
M  V30 25 C 8.582087 5.784821 -10.288648 0
M  V30 26 H 7.146665 7.311328 -11.643022 0
M  V30 27 H 11.472631 7.700912 -12.413302 0
M  V30 28 H 12.915082 6.731114 -14.127383 0
M  V30 29 H 8.822715 4.284785 -12.735389 0
M  V30 30 H 9.676847 8.763628 -11.668132 0
M  V30 31 H 8.486250 8.542857 -10.438633 0
M  V30 32 H 11.370676 7.575672 -10.194623 0
M  V30 33 H 10.665644 8.968509 -9.434023 0
M  V30 34 H 10.957357 6.033973 -7.076476 0
M  V30 35 H 12.039222 6.972433 -8.062013 0
M  V30 36 H 10.886161 10.009739 -7.629175 0
M  V30 37 H 11.272110 11.106300 -5.454453 0
M  V30 38 H 11.921154 10.363594 -2.753136 0
M  V30 39 H 12.342588 8.370789 -1.334952 0
M  V30 40 H 12.207655 6.089816 -2.330266 0
M  V30 41 H 11.636923 5.802050 -4.712675 0
M  V30 42 H 10.486319 5.192343 -9.494150 0
M  V30 43 H 9.200685 5.167288 -8.321929 0
M  V30 44 H 7.684375 6.171978 -9.822729 0
M  V30 45 H 8.324541 4.775743 -10.611834 0
M  V30 46 H 9.183727 7.498630 -8.231431 0
M  V30 END ATOM
M  V30 BEGIN BOND
M  V30 1 1 2 1 CFG=3
M  V30 2 1 3 2
M  V30 3 1 4 3
M  V30 4 2 5 4
M  V30 5 1 6 5
M  V30 6 1 7 6
M  V30 7 2 8 6
M  V30 8 1 9 8
M  V30 9 2 10 3
M  V30 10 1 10 8
M  V30 11 1 11 2
M  V30 12 1 12 11
M  V30 13 1 13 12
M  V30 14 1 14 13
M  V30 15 1 15 14
M  V30 16 2 16 15
M  V30 17 1 17 16
M  V30 18 1 18 17
M  V30 19 2 19 18
M  V30 20 1 20 19
M  V30 21 2 21 20
M  V30 22 1 22 21
M  V30 23 1 23 15
M  V30 24 1 23 18
M  V30 25 2 23 22
M  V30 26 1 24 13
M  V30 27 1 25 2
M  V30 28 1 25 24
M  V30 29 1 26 1
M  V30 30 1 27 4
M  V30 31 1 28 5
M  V30 32 1 29 10
M  V30 33 1 30 11
M  V30 34 1 31 11
M  V30 35 1 32 12
M  V30 36 1 33 12
M  V30 37 1 34 14
M  V30 38 1 35 14
M  V30 39 1 36 16
M  V30 40 1 37 17
M  V30 41 1 38 19
M  V30 42 1 39 20
M  V30 43 1 40 21
M  V30 44 1 41 22
M  V30 45 1 42 24
M  V30 46 1 43 24
M  V30 47 1 44 25
M  V30 48 1 45 25
M  V30 49 1 13 46 CFG=1
M  V30 END BOND
M  V30 END CTAB
M  END
>  <b_m_subgroup_collapsed>  (269) 
0

>  <r_i_docking_score>  (269) 
-8.6589541426663299

>  <s_m_subgroup_title>  (269) 
glide-dock_SP_D22_pv

>  <s_m_subgroupid>  (269) 
glide-dock_SP_D22_pv

>  <Molecule ChEMBL ID>  (269) 
CHEMBL246637

>  <Standard Type>  (269) 
Ki

>  <Standard Value>  (269) 
6.9

>  <label>  (269) 
1

$$$$
CHEMBL3358105
     RDKit          3D

  0  0  0  0  0  0  0  0  0  0999 V3000
M  V30 BEGIN CTAB
M  V30 COUNTS 56 59 0 0 1
M  V30 BEGIN ATOM
M  V30 1 O 8.263190 3.944673 -14.061019 0
M  V30 2 C 7.216918 3.727946 -13.447558 0
M  V30 3 N 6.678025 4.603010 -12.589764 0
M  V30 4 C 7.199030 5.943222 -12.369180 0
M  V30 5 C 8.353426 5.950939 -11.357189 0
M  V30 6 C 9.131359 7.275549 -11.401182 0
M  V30 7 C 10.367954 7.301247 -10.498929 0
M  V30 8 N 10.065399 7.740741 -9.110808 0 CHG=1
M  V30 9 C 11.024257 8.790089 -8.664443 0
M  V30 10 C 10.745080 9.262153 -7.235993 0
M  V30 11 N 10.681764 8.117804 -6.338574 0
M  V30 12 C 11.249656 8.170477 -5.045492 0
M  V30 13 C 11.685863 6.971719 -4.430914 0
M  V30 14 C 12.251398 6.972418 -3.141396 0
M  V30 15 C 12.417148 8.185883 -2.451529 0
M  V30 16 C 11.985668 9.385277 -3.045059 0
M  V30 17 C 11.386031 9.385546 -4.318016 0
M  V30 18 F 10.898247 10.559710 -4.795628 0
M  V30 19 C 9.709915 7.088626 -6.703092 0
M  V30 20 C 9.961824 6.607468 -8.144199 0
M  V30 21 C 6.465366 2.473036 -13.652975 0
M  V30 22 C 5.272261 2.025292 -13.119863 0
M  V30 23 C 4.933070 0.828627 -13.839412 0
M  V30 24 C 3.813198 -0.029192 -13.963638 0
M  V30 25 C 3.826288 -1.111402 -14.868492 0
M  V30 26 C 4.965999 -1.385101 -15.645473 0
M  V30 27 C 6.086880 -0.540855 -15.555965 0
M  V30 28 C 6.044518 0.552153 -14.674603 0
M  V30 29 O 6.980929 1.548939 -14.531368 0
M  V30 30 H 5.836118 4.345183 -12.096520 0
M  V30 31 H 6.382341 6.572413 -12.024857 0
M  V30 32 H 7.532453 6.366335 -13.316866 0
M  V30 33 H 9.042092 5.132598 -11.571648 0
M  V30 34 H 7.950182 5.770327 -10.361642 0
M  V30 35 H 8.485969 8.125652 -11.183250 0
M  V30 36 H 9.472002 7.422673 -12.425961 0
M  V30 37 H 11.073722 7.998138 -10.957232 0
M  V30 38 H 10.875360 6.339305 -10.501598 0
M  V30 39 H 10.981963 9.647012 -9.340156 0
M  V30 40 H 12.041783 8.395069 -8.717604 0
M  V30 41 H 9.784373 9.772578 -7.200644 0
M  V30 42 H 11.523204 9.968806 -6.945368 0
M  V30 43 H 11.600627 6.029662 -4.950524 0
M  V30 44 H 12.572725 6.045059 -2.690617 0
M  V30 45 H 12.857556 8.200346 -1.465042 0
M  V30 46 H 12.085811 10.313157 -2.503181 0
M  V30 47 H 9.718760 6.244499 -6.014451 0
M  V30 48 H 8.710867 7.522878 -6.633917 0
M  V30 49 H 9.162806 5.932152 -8.444625 0
M  V30 50 H 10.887113 6.031291 -8.166120 0
M  V30 51 H 4.640815 2.531663 -12.407950 0
M  V30 52 H 2.897481 0.174948 -13.434996 0
M  V30 53 H 2.954610 -1.738715 -14.974913 0
M  V30 54 H 4.969800 -2.228766 -16.322197 0
M  V30 55 H 6.958880 -0.718466 -16.165676 0
M  V30 56 H 9.151330 8.175007 -9.132041 0
M  V30 END ATOM
M  V30 BEGIN BOND
M  V30 1 2 2 1
M  V30 2 1 3 2
M  V30 3 1 4 3
M  V30 4 1 5 4
M  V30 5 1 6 5
M  V30 6 1 7 6
M  V30 7 1 8 7
M  V30 8 1 9 8
M  V30 9 1 10 9
M  V30 10 1 11 10
M  V30 11 1 12 11
M  V30 12 2 13 12
M  V30 13 1 14 13
M  V30 14 2 15 14
M  V30 15 1 16 15
M  V30 16 1 17 12
M  V30 17 2 17 16
M  V30 18 1 18 17
M  V30 19 1 19 11
M  V30 20 1 20 8
M  V30 21 1 20 19
M  V30 22 1 21 2
M  V30 23 2 22 21
M  V30 24 1 23 22
M  V30 25 2 24 23
M  V30 26 1 25 24
M  V30 27 2 26 25
M  V30 28 1 27 26
M  V30 29 1 28 23
M  V30 30 2 28 27
M  V30 31 1 29 21
M  V30 32 1 29 28
M  V30 33 1 30 3
M  V30 34 1 31 4
M  V30 35 1 32 4
M  V30 36 1 33 5
M  V30 37 1 34 5
M  V30 38 1 35 6
M  V30 39 1 36 6
M  V30 40 1 37 7
M  V30 41 1 38 7
M  V30 42 1 39 9
M  V30 43 1 40 9
M  V30 44 1 41 10
M  V30 45 1 42 10
M  V30 46 1 43 13
M  V30 47 1 44 14
M  V30 48 1 45 15
M  V30 49 1 46 16
M  V30 50 1 47 19
M  V30 51 1 48 19
M  V30 52 1 49 20
M  V30 53 1 50 20
M  V30 54 1 51 22
M  V30 55 1 52 24
M  V30 56 1 53 25
M  V30 57 1 54 26
M  V30 58 1 55 27
M  V30 59 1 56 8
M  V30 END BOND
M  V30 END CTAB
M  END
>  <b_m_subgroup_collapsed>  (270) 
0

>  <r_i_docking_score>  (270) 
-8.6577455030884796

>  <s_m_subgroup_title>  (270) 
glide-dock_SP_D22_pv

>  <s_m_subgroupid>  (270) 
glide-dock_SP_D22_pv

>  <Molecule ChEMBL ID>  (270) 
CHEMBL3358105

>  <Standard Type>  (270) 
Ki

>  <Standard Value>  (270) 
76.0

>  <label>  (270) 
1

$$$$
CHEMBL156198
     RDKit          3D

  0  0  0  0  0  0  0  0  0  0999 V3000
M  V30 BEGIN CTAB
M  V30 COUNTS 53 57 0 0 1
M  V30 BEGIN ATOM
M  V30 1 F 11.266725 0.038609 -17.401199 0
M  V30 2 C 10.617340 0.907106 -16.589437 0
M  V30 3 C 9.887552 0.433871 -15.484187 0
M  V30 4 C 9.210094 1.342580 -14.647047 0
M  V30 5 C 9.252419 2.732909 -14.895900 0
M  V30 6 C 8.524941 3.673584 -14.016530 0
M  V30 7 C 7.179821 3.507332 -13.753366 0
M  V30 8 C 6.482111 4.405319 -12.908058 0
M  V30 9 C 7.130593 5.473243 -12.334249 0
M  V30 10 C 8.510674 5.666159 -12.596476 0
M  V30 11 C 9.449115 6.592845 -12.218808 0
M  V30 12 C 9.302603 7.809832 -11.356400 0
M  V30 13 N 9.286231 7.514711 -9.899525 0 CHG=1
M  V30 14 C 10.349646 6.572547 -9.444443 0
M  V30 15 C 10.391768 6.381957 -7.910029 0
M  V30 16 N 10.349342 7.670346 -7.231140 0
M  V30 17 C 10.903023 7.873355 -5.950216 0
M  V30 18 C 11.090734 9.187143 -5.452584 0
M  V30 19 C 11.591065 9.401150 -4.154389 0
M  V30 20 C 11.935651 8.307613 -3.344900 0
M  V30 21 Cl 12.486974 8.572995 -1.741350 0
M  V30 22 C 11.793629 6.998315 -3.833754 0
M  V30 23 C 11.283078 6.787355 -5.128061 0
M  V30 24 C 9.198421 8.464604 -7.616952 0
M  V30 25 C 9.284559 8.770552 -9.112230 0
M  V30 26 C 10.632786 6.166651 -12.870317 0
M  V30 27 N 10.497067 5.065913 -13.570794 0
M  V30 28 N 9.167040 4.738158 -13.436968 0
M  V30 29 C 9.987617 3.191327 -16.012573 0
M  V30 30 C 10.669383 2.287227 -16.850811 0
M  V30 31 H 9.846216 -0.625167 -15.277008 0
M  V30 32 H 8.656599 0.962987 -13.800549 0
M  V30 33 H 6.647672 2.673911 -14.201909 0
M  V30 34 H 5.425755 4.255398 -12.709846 0
M  V30 35 H 6.600080 6.168190 -11.686675 0
M  V30 36 H 10.119659 8.503623 -11.562551 0
M  V30 37 H 8.386947 8.342438 -11.618622 0
M  V30 38 H 10.209191 5.596044 -9.908299 0
M  V30 39 H 11.314906 6.953247 -9.783435 0
M  V30 40 H 9.538372 5.785131 -7.583102 0
M  V30 41 H 11.286727 5.824203 -7.643288 0
M  V30 42 H 10.850418 10.048097 -6.057851 0
M  V30 43 H 11.686310 10.406198 -3.769611 0
M  V30 44 H 12.053373 6.155586 -3.209922 0
M  V30 45 H 11.163362 5.772336 -5.464611 0
M  V30 46 H 8.289062 7.900547 -7.401500 0
M  V30 47 H 9.110547 9.372396 -7.043118 0
M  V30 48 H 10.180691 9.354986 -9.329720 0
M  V30 49 H 8.426980 9.375249 -9.406951 0
M  V30 50 H 11.603129 6.642975 -12.830282 0
M  V30 51 H 10.033732 4.248276 -16.230110 0
M  V30 52 H 11.230382 2.651814 -17.697493 0
M  V30 53 H 8.383728 7.083561 -9.718221 0
M  V30 END ATOM
M  V30 BEGIN BOND
M  V30 1 1 2 1
M  V30 2 1 3 2
M  V30 3 2 4 3
M  V30 4 1 5 4
M  V30 5 1 6 5
M  V30 6 2 7 6
M  V30 7 1 8 7
M  V30 8 2 9 8
M  V30 9 1 10 9
M  V30 10 2 11 10
M  V30 11 1 12 11
M  V30 12 1 13 12
M  V30 13 1 14 13
M  V30 14 1 15 14
M  V30 15 1 16 15
M  V30 16 1 17 16
M  V30 17 1 18 17
M  V30 18 2 19 18
M  V30 19 1 20 19
M  V30 20 1 21 20
M  V30 21 2 22 20
M  V30 22 2 23 17
M  V30 23 1 23 22
M  V30 24 1 24 16
M  V30 25 1 25 13
M  V30 26 1 25 24
M  V30 27 1 26 11
M  V30 28 2 27 26
M  V30 29 1 28 6
M  V30 30 1 28 10
M  V30 31 1 28 27
M  V30 32 2 29 5
M  V30 33 2 30 2
M  V30 34 1 30 29
M  V30 35 1 31 3
M  V30 36 1 32 4
M  V30 37 1 33 7
M  V30 38 1 34 8
M  V30 39 1 35 9
M  V30 40 1 36 12
M  V30 41 1 37 12
M  V30 42 1 38 14
M  V30 43 1 39 14
M  V30 44 1 40 15
M  V30 45 1 41 15
M  V30 46 1 42 18
M  V30 47 1 43 19
M  V30 48 1 44 22
M  V30 49 1 45 23
M  V30 50 1 46 24
M  V30 51 1 47 24
M  V30 52 1 48 25
M  V30 53 1 49 25
M  V30 54 1 50 26
M  V30 55 1 51 29
M  V30 56 1 52 30
M  V30 57 1 53 13
M  V30 END BOND
M  V30 END CTAB
M  END
>  <b_m_subgroup_collapsed>  (271) 
0

>  <r_i_docking_score>  (271) 
-8.6575720468554902

>  <s_m_subgroup_title>  (271) 
glide-dock_SP_D22_pv

>  <s_m_subgroupid>  (271) 
glide-dock_SP_D22_pv

>  <Molecule ChEMBL ID>  (271) 
CHEMBL156198

>  <Standard Type>  (271) 
Ki

>  <Standard Value>  (271) 
15000.0

>  <label>  (271) 
0

$$$$
CHEMBL543344
     RDKit          3D

  0  0  0  0  0  0  0  0  0  0999 V3000
M  V30 BEGIN CTAB
M  V30 COUNTS 48 51 0 0 1
M  V30 BEGIN ATOM
M  V30 1 O 8.882748 8.572171 -6.728831 0
M  V30 2 C 9.893770 8.397632 -7.396133 0
M  V30 3 C 11.284594 8.702220 -6.939667 0 CFG=1
M  V30 4 C 11.499963 8.471872 -5.453895 0
M  V30 5 C 11.787510 9.582651 -4.642205 0
M  V30 6 C 12.086243 9.405475 -3.281872 0
M  V30 7 C 12.100397 8.115551 -2.730325 0
M  V30 8 F 12.481903 7.957407 -1.447026 0
M  V30 9 C 11.748777 7.001962 -3.515595 0
M  V30 10 C 11.439527 7.179868 -4.877609 0
M  V30 11 C 12.083966 7.788835 -7.869281 0
M  V30 12 O 11.337039 7.704224 -9.080190 0
M  V30 13 C 9.945619 7.801598 -8.786889 0 CFG=1
M  V30 14 C 9.280777 6.410446 -8.805180 0
M  V30 15 C 9.234180 5.822168 -10.220301 0
M  V30 16 N 8.603128 6.769079 -11.173805 0 CFG=2 CHG=1
M  V30 17 C 8.288383 6.189935 -12.506243 0
M  V30 18 C 9.361163 5.274986 -13.093028 0
M  V30 19 C 9.073463 3.907124 -13.287813 0
M  V30 20 C 10.030703 3.050015 -13.862535 0
M  V30 21 C 11.285115 3.554724 -14.248695 0
M  V30 22 C 11.586641 4.913978 -14.049207 0
M  V30 23 C 10.628674 5.771702 -13.475313 0
M  V30 24 C 9.294784 8.086091 -11.219339 0
M  V30 25 C 9.317890 8.745203 -9.825569 0
M  V30 26 H 11.489376 9.744106 -7.187570 0
M  V30 27 H 11.806101 10.570601 -5.074236 0
M  V30 28 H 12.339295 10.255759 -2.664614 0
M  V30 29 H 11.741329 6.014323 -3.079157 0
M  V30 30 H 11.188230 6.315315 -5.475202 0
M  V30 31 H 12.181061 6.787132 -7.447177 0
M  V30 32 H 13.085710 8.173130 -8.060716 0
M  V30 33 H 8.260274 6.483924 -8.424262 0
M  V30 34 H 9.805195 5.726405 -8.135491 0
M  V30 35 H 8.679762 4.882395 -10.209014 0
M  V30 36 H 10.248671 5.597596 -10.545557 0
M  V30 37 H 8.046223 6.973141 -13.222988 0
M  V30 38 H 7.369158 5.615035 -12.388260 0
M  V30 39 H 8.111161 3.503896 -13.008920 0
M  V30 40 H 9.802838 2.003760 -14.004311 0
M  V30 41 H 12.018249 2.899257 -14.693653 0
M  V30 42 H 12.553264 5.300906 -14.341749 0
M  V30 43 H 10.885461 6.811779 -13.352146 0
M  V30 44 H 10.315911 7.964143 -11.578873 0
M  V30 45 H 8.783543 8.749897 -11.918052 0
M  V30 46 H 8.303563 8.993904 -9.521992 0
M  V30 47 H 9.846931 9.704127 -9.848111 0
M  V30 48 H 7.696061 7.018221 -10.767753 0
M  V30 END ATOM
M  V30 BEGIN BOND
M  V30 1 2 2 1
M  V30 2 1 3 2
M  V30 3 1 4 3
M  V30 4 1 5 4
M  V30 5 2 6 5
M  V30 6 1 7 6
M  V30 7 1 8 7
M  V30 8 2 9 7
M  V30 9 2 10 4
M  V30 10 1 10 9
M  V30 11 1 11 3
M  V30 12 1 12 11
M  V30 13 1 13 2
M  V30 14 1 13 12 CFG=3
M  V30 15 1 14 13
M  V30 16 1 15 14
M  V30 17 1 16 15
M  V30 18 1 17 16
M  V30 19 1 18 17
M  V30 20 2 19 18
M  V30 21 1 20 19
M  V30 22 2 21 20
M  V30 23 1 22 21
M  V30 24 1 23 18
M  V30 25 2 23 22
M  V30 26 1 24 16
M  V30 27 1 25 13
M  V30 28 1 25 24
M  V30 29 1 3 26 CFG=3
M  V30 30 1 27 5
M  V30 31 1 28 6
M  V30 32 1 29 9
M  V30 33 1 30 10
M  V30 34 1 31 11
M  V30 35 1 32 11
M  V30 36 1 33 14
M  V30 37 1 34 14
M  V30 38 1 35 15
M  V30 39 1 36 15
M  V30 40 1 37 17
M  V30 41 1 38 17
M  V30 42 1 39 19
M  V30 43 1 40 20
M  V30 44 1 41 21
M  V30 45 1 42 22
M  V30 46 1 43 23
M  V30 47 1 44 24
M  V30 48 1 45 24
M  V30 49 1 46 25
M  V30 50 1 47 25
M  V30 51 1 16 48 CFG=1
M  V30 END BOND
M  V30 END CTAB
M  END
>  <b_m_subgroup_collapsed>  (272) 
0

>  <r_i_docking_score>  (272) 
-8.6528666737798599

>  <s_m_subgroup_title>  (272) 
glide-dock_SP_D22_pv

>  <s_m_subgroupid>  (272) 
glide-dock_SP_D22_pv

>  <Molecule ChEMBL ID>  (272) 
CHEMBL543344

>  <Standard Type>  (272) 
Ki

>  <Standard Value>  (272) 
47.0

>  <label>  (272) 
1

$$$$
CHEMBL3104522
     RDKit          3D

  0  0  0  0  0  0  0  0  0  0999 V3000
M  V30 BEGIN CTAB
M  V30 COUNTS 59 63 0 0 1
M  V30 BEGIN ATOM
M  V30 1 N 10.485984 0.035290 -16.169868 0
M  V30 2 C 9.455827 0.781663 -15.603217 0
M  V30 3 C 8.115101 0.416537 -15.821825 0
M  V30 4 C 7.077749 1.177453 -15.252968 0
M  V30 5 C 7.369226 2.312275 -14.467356 0
M  V30 6 C 8.721109 2.686144 -14.250840 0
M  V30 7 C 9.754970 1.906675 -14.815786 0
M  V30 8 C 9.093738 3.881736 -13.380239 0 CFG=1
M  V30 9 O 10.117547 4.671040 -13.954928 0
M  V30 10 C 7.899524 4.809543 -13.048897 0 CFG=2
M  V30 11 C 8.219005 5.874787 -11.979305 0
M  V30 12 C 8.548329 5.304331 -10.587114 0
M  V30 13 N 8.864325 6.354350 -9.591582 0 CFG=2 CHG=1
M  V30 14 C 10.198667 6.967567 -9.819190 0
M  V30 15 C 10.558459 8.014854 -8.757372 0
M  V30 16 C 10.419499 7.432685 -7.341344 0 CFG=1
M  V30 17 C 10.797215 8.408772 -6.267166 0
M  V30 18 N 10.549361 9.709107 -6.396719 0
M  V30 19 O 10.993899 10.350920 -5.210061 0
M  V30 20 C 11.483289 9.399587 -4.333200 0
M  V30 21 C 12.008276 9.510324 -3.043592 0
M  V30 22 C 12.377553 8.322419 -2.382193 0
M  V30 23 F 12.886207 8.388694 -1.132237 0
M  V30 24 C 12.208123 7.065821 -3.013159 0
M  V30 25 C 11.687007 6.983109 -4.325792 0
M  V30 26 C 11.334962 8.178698 -4.989453 0
M  V30 27 C 8.995790 6.906366 -7.154000 0
M  V30 28 C 8.700818 5.832949 -8.207564 0
M  V30 29 C 6.635336 4.000738 -12.707143 0
M  V30 30 C 6.215652 3.105397 -13.871569 0
M  V30 31 H 10.271281 -0.626123 -16.901419 0
M  V30 32 H 11.427250 0.402555 -16.181486 0
M  V30 33 H 7.872729 -0.450451 -16.417326 0
M  V30 34 H 6.053740 0.881316 -15.423374 0
M  V30 35 H 10.788174 2.167416 -14.638408 0
M  V30 36 H 9.492929 3.443807 -12.466443 0
M  V30 37 H 10.858523 4.114871 -14.139953 0
M  V30 38 H 7.679249 5.364170 -13.961452 0
M  V30 39 H 9.040401 6.486556 -12.348557 0
M  V30 40 H 7.367770 6.552727 -11.891814 0
M  V30 41 H 7.687373 4.738078 -10.236134 0
M  V30 42 H 9.378481 4.600847 -10.626599 0
M  V30 43 H 10.933377 6.172058 -9.811656 0
M  V30 44 H 10.245711 7.436996 -10.799860 0
M  V30 45 H 11.575981 8.372448 -8.920753 0
M  V30 46 H 9.904511 8.880384 -8.875218 0
M  V30 47 H 11.102748 6.585356 -7.268482 0
M  V30 48 H 12.094464 10.473560 -2.564374 0
M  V30 49 H 12.483509 6.161376 -2.489047 0
M  V30 50 H 11.561100 6.023343 -4.805395 0
M  V30 51 H 8.886227 6.473070 -6.160174 0
M  V30 52 H 8.274908 7.721667 -7.218699 0
M  V30 53 H 7.686078 5.468429 -8.063275 0
M  V30 54 H 9.362547 4.979197 -8.059789 0
M  V30 55 H 5.810961 4.663927 -12.441862 0
M  V30 56 H 6.815255 3.372874 -11.835047 0
M  V30 57 H 5.784169 3.726332 -14.654653 0
M  V30 58 H 5.429265 2.423163 -13.546202 0
M  V30 59 H 8.152599 7.070538 -9.709883 0
M  V30 END ATOM
M  V30 BEGIN BOND
M  V30 1 1 2 1
M  V30 2 1 3 2
M  V30 3 2 4 3
M  V30 4 1 5 4
M  V30 5 2 6 5
M  V30 6 2 7 2
M  V30 7 1 7 6
M  V30 8 1 8 6
M  V30 9 1 9 8
M  V30 10 1 10 8
M  V30 11 1 11 10
M  V30 12 1 12 11
M  V30 13 1 13 12
M  V30 14 1 14 13
M  V30 15 1 15 14
M  V30 16 1 16 15
M  V30 17 1 17 16
M  V30 18 2 18 17
M  V30 19 1 19 18
M  V30 20 1 20 19
M  V30 21 1 21 20
M  V30 22 2 22 21
M  V30 23 1 23 22
M  V30 24 1 24 22
M  V30 25 2 25 24
M  V30 26 1 26 17
M  V30 27 2 26 20
M  V30 28 1 26 25
M  V30 29 1 27 16
M  V30 30 1 28 13
M  V30 31 1 28 27
M  V30 32 1 29 10
M  V30 33 1 30 5
M  V30 34 1 30 29
M  V30 35 1 31 1
M  V30 36 1 32 1
M  V30 37 1 33 3
M  V30 38 1 34 4
M  V30 39 1 35 7
M  V30 40 1 8 36 CFG=1
M  V30 41 1 37 9
M  V30 42 1 10 38 CFG=3
M  V30 43 1 39 11
M  V30 44 1 40 11
M  V30 45 1 41 12
M  V30 46 1 42 12
M  V30 47 1 43 14
M  V30 48 1 44 14
M  V30 49 1 45 15
M  V30 50 1 46 15
M  V30 51 1 16 47 CFG=3
M  V30 52 1 48 21
M  V30 53 1 49 24
M  V30 54 1 50 25
M  V30 55 1 51 27
M  V30 56 1 52 27
M  V30 57 1 53 28
M  V30 58 1 54 28
M  V30 59 1 55 29
M  V30 60 1 56 29
M  V30 61 1 57 30
M  V30 62 1 58 30
M  V30 63 1 13 59 CFG=3
M  V30 END BOND
M  V30 END CTAB
M  END
>  <b_m_subgroup_collapsed>  (273) 
0

>  <r_i_docking_score>  (273) 
-8.6513409406611093

>  <s_m_subgroup_title>  (273) 
glide-dock_SP_D22_pv

>  <s_m_subgroupid>  (273) 
glide-dock_SP_D22_pv

>  <Molecule ChEMBL ID>  (273) 
CHEMBL3104522

>  <Standard Type>  (273) 
Ki

>  <Standard Value>  (273) 
87.1

>  <label>  (273) 
1

$$$$
CHEMBL553288
     RDKit          3D

  0  0  0  0  0  0  0  0  0  0999 V3000
M  V30 BEGIN CTAB
M  V30 COUNTS 33 35 0 0 1
M  V30 BEGIN ATOM
M  V30 1 O 11.286081 10.023263 -6.997558 0
M  V30 2 C 11.125995 8.811384 -7.102501 0
M  V30 3 C 11.285935 7.809241 -6.067222 0
M  V30 4 C 11.673936 7.976691 -4.647078 0
M  V30 5 C 12.035168 6.847517 -3.877437 0
M  V30 6 C 12.439621 6.988413 -2.539889 0
M  V30 7 C 12.482755 8.263630 -1.951982 0
M  V30 8 C 12.086015 9.385396 -2.696969 0
M  V30 9 C 11.685963 9.249991 -4.036139 0
M  V30 10 C 11.163736 6.653334 -6.727565 0
M  V30 11 O 10.882043 6.728969 -8.061740 0
M  V30 12 C 10.744090 8.103477 -8.401633 0 CFG=2
M  V30 13 C 11.659271 8.453019 -9.591810 0
M  V30 14 C 11.196546 7.699728 -10.853092 0
M  V30 15 C 9.707868 7.935528 -11.157926 0
M  V30 16 N 8.886031 7.590544 -9.981201 0 CHG=1
M  V30 17 C 9.270257 8.342379 -8.761839 0
M  V30 18 H 12.022012 5.855152 -4.300515 0
M  V30 19 H 12.721392 6.116798 -1.966707 0
M  V30 20 H 12.801560 8.380930 -0.928970 0
M  V30 21 H 12.086049 10.366096 -2.246565 0
M  V30 22 H 11.390993 10.138872 -4.571744 0
M  V30 23 H 11.290782 5.655530 -6.357953 0
M  V30 24 H 11.632748 9.527542 -9.782011 0
M  V30 25 H 12.697000 8.205821 -9.363043 0
M  V30 26 H 11.814106 7.977423 -11.707340 0
M  V30 27 H 11.336280 6.631824 -10.700693 0
M  V30 28 H 9.527547 8.972321 -11.434761 0
M  V30 29 H 9.390862 7.324356 -12.003786 0
M  V30 30 H 7.884403 7.771973 -10.181231 0
M  V30 31 H 8.614287 8.035066 -7.944681 0
M  V30 32 H 9.081614 9.401499 -8.931746 0
M  V30 33 H 8.977029 6.602959 -9.791170 0
M  V30 END ATOM
M  V30 BEGIN BOND
M  V30 1 2 2 1
M  V30 2 1 3 2
M  V30 3 1 4 3
M  V30 4 2 5 4
M  V30 5 1 6 5
M  V30 6 2 7 6
M  V30 7 1 8 7
M  V30 8 1 9 4
M  V30 9 2 9 8
M  V30 10 2 10 3
M  V30 11 1 11 10
M  V30 12 1 12 2
M  V30 13 1 12 11 CFG=1
M  V30 14 1 13 12
M  V30 15 1 14 13
M  V30 16 1 15 14
M  V30 17 1 16 15
M  V30 18 1 17 12
M  V30 19 1 17 16
M  V30 20 1 18 5
M  V30 21 1 19 6
M  V30 22 1 20 7
M  V30 23 1 21 8
M  V30 24 1 22 9
M  V30 25 1 23 10
M  V30 26 1 24 13
M  V30 27 1 25 13
M  V30 28 1 26 14
M  V30 29 1 27 14
M  V30 30 1 28 15
M  V30 31 1 29 15
M  V30 32 1 30 16
M  V30 33 1 31 17
M  V30 34 1 32 17
M  V30 35 1 33 16
M  V30 END BOND
M  V30 END CTAB
M  END
>  <b_m_subgroup_collapsed>  (274) 
0

>  <r_i_docking_score>  (274) 
-8.6472801308732592

>  <s_m_subgroup_title>  (274) 
glide-dock_SP_D22_pv

>  <s_m_subgroupid>  (274) 
glide-dock_SP_D22_pv

>  <Molecule ChEMBL ID>  (274) 
CHEMBL553288

>  <Standard Type>  (274) 
Ki

>  <Standard Value>  (274) 
10000.0

>  <label>  (274) 
0

$$$$
CHEMBL477820
     RDKit          3D

  0  0  0  0  0  0  0  0  0  0999 V3000
M  V30 BEGIN CTAB
M  V30 COUNTS 59 62 0 0 1
M  V30 BEGIN ATOM
M  V30 1 C 8.415589 1.316616 -15.922515 0
M  V30 2 C 8.533464 2.365790 -14.836608 0
M  V30 3 C 9.800317 2.801688 -14.406219 0
M  V30 4 C 9.900942 3.765544 -13.386910 0
M  V30 5 C 8.746331 4.312230 -12.787784 0
M  V30 6 N 8.960371 5.230331 -11.746476 0
M  V30 7 C 8.328157 6.534565 -11.830512 0
M  V30 8 C 8.992910 7.497448 -10.840940 0
M  V30 9 N 8.977568 6.971588 -9.441603 0 CHG=1
M  V30 10 C 9.598045 7.958140 -8.499358 0 CFG=1
M  V30 11 C 8.593487 9.003265 -8.050874 0
M  V30 12 C 10.279966 7.385295 -7.252921 0 CFG=1
M  V30 13 C 11.676068 6.859595 -7.357685 0
M  V30 14 C 11.436683 8.126169 -6.567318 0 CFG=1
M  V30 15 C 12.062631 9.371964 -7.181916 0
M  V30 16 C 11.577532 8.140852 -5.047713 0
M  V30 17 C 11.689402 9.360159 -4.332856 0
M  V30 18 C 11.972625 9.375432 -2.955842 0
M  V30 19 C 12.101735 8.171906 -2.246758 0
M  V30 20 C 11.947658 6.951295 -2.921741 0
M  V30 21 C 11.685730 6.939465 -4.305020 0
M  V30 22 C 9.560296 5.602297 -9.368366 0
M  V30 23 C 9.010895 4.630168 -10.422255 0
M  V30 24 C 7.461994 3.878811 -13.227813 0
M  V30 25 C 6.161588 4.374131 -12.613518 0
M  V30 26 C 7.374114 2.908490 -14.248833 0
M  V30 27 H 7.571539 0.653210 -15.730455 0
M  V30 28 H 8.266477 1.791429 -16.892378 0
M  V30 29 H 9.316032 0.704588 -15.974068 0
M  V30 30 H 10.697558 2.391353 -14.845222 0
M  V30 31 H 10.878038 4.080152 -13.048833 0
M  V30 32 H 7.274153 6.453046 -11.589208 0
M  V30 33 H 8.397448 6.922591 -12.847107 0
M  V30 34 H 8.487189 8.462110 -10.891493 0
M  V30 35 H 10.023727 7.668139 -11.157609 0
M  V30 36 H 10.363652 8.478008 -9.072320 0
M  V30 37 H 9.130296 9.771581 -7.505198 0
M  V30 38 H 8.087414 9.483438 -8.885562 0
M  V30 39 H 7.850645 8.572419 -7.380976 0
M  V30 40 H 9.609014 6.842510 -6.588577 0
M  V30 41 H 12.086966 6.972619 -8.352092 0
M  V30 42 H 11.896537 5.916648 -6.865842 0
M  V30 43 H 12.181862 9.283955 -8.260401 0
M  V30 44 H 11.451115 10.252732 -6.990989 0
M  V30 45 H 13.058305 9.527186 -6.769993 0
M  V30 46 H 11.598667 10.312604 -4.829861 0
M  V30 47 H 12.085925 10.317940 -2.440360 0
M  V30 48 H 12.309619 8.189244 -1.187614 0
M  V30 49 H 12.033648 6.019149 -2.381802 0
M  V30 50 H 11.585246 5.977651 -4.780610 0
M  V30 51 H 10.631932 5.682793 -9.527081 0
M  V30 52 H 9.409058 5.169863 -8.378964 0
M  V30 53 H 8.020805 4.276336 -10.134856 0
M  V30 54 H 9.684282 3.772377 -10.456405 0
M  V30 55 H 5.333981 3.705796 -12.854009 0
M  V30 56 H 6.226072 4.421871 -11.526796 0
M  V30 57 H 5.908339 5.362116 -12.998599 0
M  V30 58 H 6.404765 2.566642 -14.581723 0
M  V30 59 H 7.991210 6.903412 -9.201991 0
M  V30 END ATOM
M  V30 BEGIN BOND
M  V30 1 1 2 1
M  V30 2 1 3 2
M  V30 3 2 4 3
M  V30 4 1 5 4
M  V30 5 1 6 5
M  V30 6 1 7 6
M  V30 7 1 8 7
M  V30 8 1 9 8
M  V30 9 1 10 9
M  V30 10 1 11 10
M  V30 11 1 12 10
M  V30 12 1 13 12
M  V30 13 1 14 12
M  V30 14 1 14 13
M  V30 15 1 14 15 CFG=3
M  V30 16 1 16 14
M  V30 17 2 17 16
M  V30 18 1 18 17
M  V30 19 2 19 18
M  V30 20 1 20 19
M  V30 21 1 21 16
M  V30 22 2 21 20
M  V30 23 1 22 9
M  V30 24 1 23 6
M  V30 25 1 23 22
M  V30 26 2 24 5
M  V30 27 1 25 24
M  V30 28 2 26 2
M  V30 29 1 26 24
M  V30 30 1 27 1
M  V30 31 1 28 1
M  V30 32 1 29 1
M  V30 33 1 30 3
M  V30 34 1 31 4
M  V30 35 1 32 7
M  V30 36 1 33 7
M  V30 37 1 34 8
M  V30 38 1 35 8
M  V30 39 1 10 36 CFG=3
M  V30 40 1 37 11
M  V30 41 1 38 11
M  V30 42 1 39 11
M  V30 43 1 12 40 CFG=1
M  V30 44 1 41 13
M  V30 45 1 42 13
M  V30 46 1 43 15
M  V30 47 1 44 15
M  V30 48 1 45 15
M  V30 49 1 46 17
M  V30 50 1 47 18
M  V30 51 1 48 19
M  V30 52 1 49 20
M  V30 53 1 50 21
M  V30 54 1 51 22
M  V30 55 1 52 22
M  V30 56 1 53 23
M  V30 57 1 54 23
M  V30 58 1 55 25
M  V30 59 1 56 25
M  V30 60 1 57 25
M  V30 61 1 58 26
M  V30 62 1 59 9
M  V30 END BOND
M  V30 END CTAB
M  END
>  <b_m_subgroup_collapsed>  (275) 
0

>  <r_i_docking_score>  (275) 
-8.6471542118566092

>  <s_m_subgroup_title>  (275) 
glide-dock_SP_D22_pv

>  <s_m_subgroupid>  (275) 
glide-dock_SP_D22_pv

>  <Molecule ChEMBL ID>  (275) 
CHEMBL477820

>  <Standard Type>  (275) 
Ki

>  <Standard Value>  (275) 
10000.0

>  <label>  (275) 
0

$$$$
CHEMBL5773648
     RDKit          3D

  0  0  0  0  0  0  0  0  0  0999 V3000
M  V30 BEGIN CTAB
M  V30 COUNTS 60 63 0 0 1
M  V30 BEGIN ATOM
M  V30 1 C 10.697313 1.626234 -14.509829 0
M  V30 2 N 9.792943 2.750272 -14.368285 0
M  V30 3 C 10.104077 4.040027 -14.118621 0
M  V30 4 S 11.775682 4.568748 -13.847124 0
M  V30 5 C 11.692736 6.382694 -13.990463 0
M  V30 6 C 10.885803 7.139295 -12.912386 0
M  V30 7 C 11.329363 7.028221 -11.449306 0
M  V30 8 N 10.885985 8.069407 -10.530318 0
M  V30 9 C 9.429684 8.158446 -10.487100 0
M  V30 10 C 9.005138 9.247207 -9.512698 0
M  V30 11 O 9.440769 8.926342 -8.200021 0
M  V30 12 C 10.853026 8.796790 -8.097838 0 CFG=1
M  V30 13 C 11.223416 8.417345 -6.665157 0
M  V30 14 C 11.784229 9.367390 -5.779689 0
M  V30 15 C 12.074286 9.017033 -4.439779 0
M  V30 16 C 11.815367 7.707979 -3.970620 0
M  V30 17 C 12.123565 7.278431 -2.539021 0
M  V30 18 F 12.885365 6.186798 -2.578422 0
M  V30 19 F 12.774402 8.236304 -1.877023 0
M  V30 20 F 11.019255 6.972058 -1.852591 0
M  V30 21 C 11.264385 6.768085 -4.859269 0
M  V30 22 C 10.950314 7.118499 -6.185339 0
M  V30 23 C 11.370710 7.793177 -9.169279 0
M  V30 24 N 9.036776 4.831170 -14.071457 0
M  V30 25 N 7.956548 4.008137 -14.234655 0
M  V30 26 C 8.440864 2.777358 -14.416406 0
M  V30 27 C 7.546899 1.645275 -14.671412 0
M  V30 28 C 7.744436 0.791594 -15.777553 0
M  V30 29 C 6.782296 -0.203042 -16.045074 0
M  V30 30 C 5.665049 -0.329054 -15.190331 0
M  V30 31 C 4.551795 -1.296876 -15.464357 0
M  V30 32 N 4.886108 -2.462785 -16.022738 0
M  V30 33 O 3.396626 -1.028915 -15.144355 0
M  V30 34 C 5.575157 0.559193 -14.098562 0
M  V30 35 N 6.481715 1.522948 -13.847548 0
M  V30 36 H 11.548969 1.769867 -13.846850 0
M  V30 37 H 10.199149 0.692959 -14.246502 0
M  V30 38 H 11.052983 1.567533 -15.538963 0
M  V30 39 H 12.718188 6.754260 -13.992591 0
M  V30 40 H 11.288169 6.612365 -14.975983 0
M  V30 41 H 10.886967 8.172190 -13.213241 0
M  V30 42 H 9.838986 6.859382 -12.951806 0
M  V30 43 H 10.886021 6.112223 -11.087693 0
M  V30 44 H 12.417740 6.972368 -11.409412 0
M  V30 45 H 9.031706 8.404423 -11.471861 0
M  V30 46 H 8.983861 7.206602 -10.192850 0
M  V30 47 H 9.456310 10.172245 -9.846774 0
M  V30 48 H 7.933400 9.396123 -9.517771 0
M  V30 49 H 11.286502 9.772416 -8.312649 0
M  V30 50 H 11.987842 10.371061 -6.121058 0
M  V30 51 H 12.497596 9.757445 -3.776150 0
M  V30 52 H 11.046958 5.772501 -4.508740 0
M  V30 53 H 10.485741 6.381836 -6.824012 0
M  V30 54 H 11.060032 6.784678 -8.891223 0
M  V30 55 H 12.461032 7.789882 -9.160441 0
M  V30 56 H 8.592469 0.919935 -16.434336 0
M  V30 57 H 6.897996 -0.840091 -16.909813 0
M  V30 58 H 5.855017 -2.677429 -16.215191 0
M  V30 59 H 4.156185 -3.152249 -16.210321 0
M  V30 60 H 4.734324 0.523377 -13.421774 0
M  V30 END ATOM
M  V30 BEGIN BOND
M  V30 1 1 2 1
M  V30 2 1 3 2
M  V30 3 1 4 3
M  V30 4 1 5 4
M  V30 5 1 6 5
M  V30 6 1 7 6
M  V30 7 1 8 7
M  V30 8 1 9 8
M  V30 9 1 10 9
M  V30 10 1 11 10
M  V30 11 1 12 11
M  V30 12 1 13 12
M  V30 13 1 14 13
M  V30 14 2 15 14
M  V30 15 1 16 15
M  V30 16 1 17 16
M  V30 17 1 18 17
M  V30 18 1 19 17
M  V30 19 1 20 17
M  V30 20 2 21 16
M  V30 21 2 22 13
M  V30 22 1 22 21
M  V30 23 1 23 8
M  V30 24 1 23 12
M  V30 25 2 24 3
M  V30 26 1 25 24
M  V30 27 1 26 2
M  V30 28 2 26 25
M  V30 29 1 27 26
M  V30 30 1 28 27
M  V30 31 2 29 28
M  V30 32 1 30 29
M  V30 33 1 31 30
M  V30 34 1 32 31
M  V30 35 2 33 31
M  V30 36 2 34 30
M  V30 37 2 35 27
M  V30 38 1 35 34
M  V30 39 1 36 1
M  V30 40 1 37 1
M  V30 41 1 38 1
M  V30 42 1 39 5
M  V30 43 1 40 5
M  V30 44 1 41 6
M  V30 45 1 42 6
M  V30 46 1 43 7
M  V30 47 1 44 7
M  V30 48 1 45 9
M  V30 49 1 46 9
M  V30 50 1 47 10
M  V30 51 1 48 10
M  V30 52 1 12 49 CFG=3
M  V30 53 1 50 14
M  V30 54 1 51 15
M  V30 55 1 52 21
M  V30 56 1 53 22
M  V30 57 1 54 23
M  V30 58 1 55 23
M  V30 59 1 56 28
M  V30 60 1 57 29
M  V30 61 1 58 32
M  V30 62 1 59 32
M  V30 63 1 60 34
M  V30 END BOND
M  V30 END CTAB
M  END
>  <b_m_subgroup_collapsed>  (276) 
0

>  <r_i_docking_score>  (276) 
-8.6412347908122094

>  <s_m_subgroup_title>  (276) 
glide-dock_SP_D22_pv

>  <s_m_subgroupid>  (276) 
glide-dock_SP_D22_pv

>  <Molecule ChEMBL ID>  (276) 
CHEMBL5773648

>  <Standard Type>  (276) 
Ki

>  <Standard Value>  (276) 
16218.0

>  <label>  (276) 
0

$$$$
CHEMBL708
     RDKit          3D

  0  0  0  0  0  0  0  0  0  0999 V3000
M  V30 BEGIN CTAB
M  V30 COUNTS 49 53 0 0 1
M  V30 BEGIN ATOM
M  V30 1 O 4.487977 0.025364 -13.447019 0
M  V30 2 C 5.283016 0.955494 -13.566517 0
M  V30 3 C 5.143133 2.284760 -12.809035 0
M  V30 4 C 6.390037 2.972831 -13.303192 0
M  V30 5 C 6.939862 4.177760 -12.840166 0
M  V30 6 C 8.259017 4.524558 -13.237442 0
M  V30 7 C 8.938917 5.782002 -12.683317 0
M  V30 8 C 8.489872 6.264662 -11.282121 0
M  V30 9 N 9.583078 6.307769 -10.304341 0
M  V30 10 C 9.038054 6.133278 -8.950510 0
M  V30 11 C 10.172131 6.120604 -7.901927 0
M  V30 12 N 10.965513 7.340024 -7.982083 0
M  V30 13 C 11.055422 8.267041 -6.915801 0
M  V30 14 N 11.023870 9.547597 -7.203580 0
M  V30 15 S 11.286018 10.476016 -5.846619 0
M  V30 16 C 11.505528 9.126458 -4.770104 0
M  V30 17 C 11.860752 9.132684 -3.409643 0
M  V30 18 C 12.024822 7.913408 -2.735587 0
M  V30 19 C 11.802197 6.709754 -3.425634 0
M  V30 20 C 11.440289 6.716898 -4.789904 0
M  V30 21 C 11.289594 7.924520 -5.515521 0
M  V30 22 C 11.392767 7.675527 -9.344817 0
M  V30 23 C 10.217241 7.630414 -10.336580 0
M  V30 24 C 8.949049 3.686251 -14.165860 0
M  V30 25 Cl 10.539895 4.075757 -14.720622 0
M  V30 26 C 8.359440 2.495603 -14.651365 0
M  V30 27 C 7.081014 2.155311 -14.183974 0
M  V30 28 N 6.375240 0.961062 -14.345062 0
M  V30 29 H 5.191004 2.116029 -11.736174 0
M  V30 30 H 4.232458 2.828128 -13.046717 0
M  V30 31 H 6.368361 4.773959 -12.145419 0
M  V30 32 H 10.021358 5.665028 -12.688946 0
M  V30 33 H 8.714223 6.571691 -13.399225 0
M  V30 34 H 8.086006 7.267743 -11.411823 0
M  V30 35 H 7.685540 5.654044 -10.880065 0
M  V30 36 H 8.324059 6.926614 -8.724617 0
M  V30 37 H 8.492566 5.190417 -8.892886 0
M  V30 38 H 9.733203 6.016780 -6.910101 0
M  V30 39 H 10.825609 5.263869 -8.062171 0
M  V30 40 H 12.018957 10.067406 -2.891578 0
M  V30 41 H 12.306581 7.902709 -1.692716 0
M  V30 42 H 11.919718 5.773023 -2.905433 0
M  V30 43 H 11.313688 5.773811 -5.297395 0
M  V30 44 H 11.869745 8.655474 -9.385870 0
M  V30 45 H 12.149856 6.972339 -9.672896 0
M  V30 46 H 10.581267 7.839891 -11.343499 0
M  V30 47 H 9.491684 8.409184 -10.092730 0
M  V30 48 H 8.901270 1.839097 -15.315049 0
M  V30 49 H 6.693433 0.192242 -14.917058 0
M  V30 END ATOM
M  V30 BEGIN BOND
M  V30 1 2 2 1
M  V30 2 1 3 2
M  V30 3 1 4 3
M  V30 4 1 5 4
M  V30 5 2 6 5
M  V30 6 1 7 6
M  V30 7 1 8 7
M  V30 8 1 9 8
M  V30 9 1 10 9
M  V30 10 1 11 10
M  V30 11 1 12 11
M  V30 12 1 13 12
M  V30 13 2 14 13
M  V30 14 1 15 14
M  V30 15 1 16 15
M  V30 16 2 17 16
M  V30 17 1 18 17
M  V30 18 2 19 18
M  V30 19 1 20 19
M  V30 20 1 21 13
M  V30 21 1 21 16
M  V30 22 2 21 20
M  V30 23 1 22 12
M  V30 24 1 23 9
M  V30 25 1 23 22
M  V30 26 1 24 6
M  V30 27 1 25 24
M  V30 28 2 26 24
M  V30 29 2 27 4
M  V30 30 1 27 26
M  V30 31 1 28 2
M  V30 32 1 28 27
M  V30 33 1 29 3
M  V30 34 1 30 3
M  V30 35 1 31 5
M  V30 36 1 32 7
M  V30 37 1 33 7
M  V30 38 1 34 8
M  V30 39 1 35 8
M  V30 40 1 36 10
M  V30 41 1 37 10
M  V30 42 1 38 11
M  V30 43 1 39 11
M  V30 44 1 40 17
M  V30 45 1 41 18
M  V30 46 1 42 19
M  V30 47 1 43 20
M  V30 48 1 44 22
M  V30 49 1 45 22
M  V30 50 1 46 23
M  V30 51 1 47 23
M  V30 52 1 48 26
M  V30 53 1 49 28
M  V30 END BOND
M  V30 END CTAB
M  END
>  <b_m_subgroup_collapsed>  (277) 
0

>  <r_i_docking_score>  (277) 
-8.6388065898649202

>  <s_m_subgroup_title>  (277) 
glide-dock_SP_D22_pv

>  <s_m_subgroupid>  (277) 
glide-dock_SP_D22_pv

>  <Molecule ChEMBL ID>  (277) 
CHEMBL708

>  <Standard Type>  (277) 
Ki

>  <Standard Value>  (277) 
0.8

>  <label>  (277) 
1

$$$$
CHEMBL4760590
     RDKit          3D

  0  0  0  0  0  0  0  0  0  0999 V3000
M  V30 BEGIN CTAB
M  V30 COUNTS 64 68 0 0 1
M  V30 BEGIN ATOM
M  V30 1 O 3.285301 -1.028102 -15.971482 0
M  V30 2 C 4.393119 -1.433065 -16.321236 0
M  V30 3 N 5.550539 -1.048362 -15.761574 0
M  V30 4 C 5.728056 0.078819 -14.927423 0
M  V30 5 C 4.898031 0.342364 -13.814984 0
M  V30 6 C 5.099635 1.510037 -13.052479 0
M  V30 7 C 6.090998 2.438242 -13.407749 0
M  V30 8 O 6.221413 3.543478 -12.595748 0
M  V30 9 C 7.227202 4.491115 -12.920262 0
M  V30 10 C 7.330426 5.526224 -11.797576 0
M  V30 11 C 8.191571 5.031397 -10.623359 0
M  V30 12 N 8.486398 6.102576 -9.632961 0 CFG=2 CHG=1
M  V30 13 C 9.688080 6.892684 -10.029968 0
M  V30 14 C 10.108998 7.934837 -8.975190 0
M  V30 15 C 10.266438 7.303545 -7.575288 0 CFG=1
M  V30 16 C 10.706566 8.282217 -6.511431 0
M  V30 17 N 10.486171 9.584824 -6.646647 0
M  V30 18 O 10.952430 10.238169 -5.473774 0
M  V30 19 C 11.445631 9.294800 -4.592990 0
M  V30 20 C 11.982779 9.415909 -3.305950 0
M  V30 21 C 12.362951 8.234078 -2.641691 0
M  V30 22 F 12.884557 8.307500 -1.397653 0
M  V30 23 C 12.201344 6.975591 -3.269281 0
M  V30 24 C 11.675903 6.883219 -4.579121 0
M  V30 25 C 11.285834 8.067110 -5.241956 0
M  V30 26 C 8.941037 6.628814 -7.214265 0
M  V30 27 C 8.606936 5.549636 -8.255754 0
M  V30 28 C 6.935128 2.155429 -14.510866 0
M  V30 29 C 6.769404 0.969896 -15.247647 0
M  V30 30 C 4.548799 -2.356373 -17.493521 0
M  V30 31 C 5.482426 -3.417715 -17.461849 0
M  V30 32 C 5.626266 -4.276437 -18.568052 0
M  V30 33 C 4.835828 -4.082786 -19.716261 0
M  V30 34 C 3.894845 -3.036872 -19.750669 0
M  V30 35 C 3.742214 -2.182517 -18.640755 0
M  V30 36 H 6.390066 -1.441385 -16.168634 0
M  V30 37 H 4.100504 -0.335197 -13.552610 0
M  V30 38 H 4.486591 1.729983 -12.196829 0
M  V30 39 H 8.201214 4.020501 -13.064976 0
M  V30 40 H 6.948615 4.975786 -13.851847 0
M  V30 41 H 7.751307 6.444606 -12.207458 0
M  V30 42 H 6.327187 5.769067 -11.447032 0
M  V30 43 H 7.686063 4.191536 -10.147682 0
M  V30 44 H 9.130691 4.608843 -10.989712 0
M  V30 45 H 10.519825 6.213069 -10.215806 0
M  V30 46 H 9.492783 7.399111 -10.975957 0
M  V30 47 H 11.042821 8.409639 -9.280991 0
M  V30 48 H 9.358596 8.726896 -8.942435 0
M  V30 49 H 11.032040 6.528718 -7.641288 0
M  V30 50 H 12.084916 10.379779 -2.829351 0
M  V30 51 H 12.491044 6.075944 -2.747175 0
M  V30 52 H 11.555740 5.920594 -5.052680 0
M  V30 53 H 9.015584 6.172769 -6.227566 0
M  V30 54 H 8.137209 7.364420 -7.145651 0
M  V30 55 H 7.683969 5.053543 -7.966934 0
M  V30 56 H 9.380176 4.779585 -8.248831 0
M  V30 57 H 7.725619 2.824125 -14.813093 0
M  V30 58 H 7.415045 0.771004 -16.090326 0
M  V30 59 H 6.084943 -3.593807 -16.583439 0
M  V30 60 H 6.339996 -5.085649 -18.529579 0
M  V30 61 H 4.942475 -4.740149 -20.566587 0
M  V30 62 H 3.287047 -2.892311 -20.630978 0
M  V30 63 H 3.006488 -1.390471 -18.675900 0
M  V30 64 H 7.688526 6.742772 -9.637149 0
M  V30 END ATOM
M  V30 BEGIN BOND
M  V30 1 2 2 1
M  V30 2 1 3 2
M  V30 3 1 4 3
M  V30 4 1 5 4
M  V30 5 2 6 5
M  V30 6 1 7 6
M  V30 7 1 8 7
M  V30 8 1 9 8
M  V30 9 1 10 9
M  V30 10 1 11 10
M  V30 11 1 12 11
M  V30 12 1 13 12
M  V30 13 1 14 13
M  V30 14 1 15 14
M  V30 15 1 16 15
M  V30 16 2 17 16
M  V30 17 1 18 17
M  V30 18 1 19 18
M  V30 19 1 20 19
M  V30 20 2 21 20
M  V30 21 1 22 21
M  V30 22 1 23 21
M  V30 23 2 24 23
M  V30 24 1 25 16
M  V30 25 2 25 19
M  V30 26 1 25 24
M  V30 27 1 26 15
M  V30 28 1 27 12
M  V30 29 1 27 26
M  V30 30 2 28 7
M  V30 31 2 29 4
M  V30 32 1 29 28
M  V30 33 1 30 2
M  V30 34 2 31 30
M  V30 35 1 32 31
M  V30 36 2 33 32
M  V30 37 1 34 33
M  V30 38 1 35 30
M  V30 39 2 35 34
M  V30 40 1 36 3
M  V30 41 1 37 5
M  V30 42 1 38 6
M  V30 43 1 39 9
M  V30 44 1 40 9
M  V30 45 1 41 10
M  V30 46 1 42 10
M  V30 47 1 43 11
M  V30 48 1 44 11
M  V30 49 1 45 13
M  V30 50 1 46 13
M  V30 51 1 47 14
M  V30 52 1 48 14
M  V30 53 1 15 49 CFG=3
M  V30 54 1 50 20
M  V30 55 1 51 23
M  V30 56 1 52 24
M  V30 57 1 53 26
M  V30 58 1 54 26
M  V30 59 1 55 27
M  V30 60 1 56 27
M  V30 61 1 57 28
M  V30 62 1 58 29
M  V30 63 1 59 31
M  V30 64 1 60 32
M  V30 65 1 61 33
M  V30 66 1 62 34
M  V30 67 1 63 35
M  V30 68 1 12 64 CFG=1
M  V30 END BOND
M  V30 END CTAB
M  END
>  <b_m_subgroup_collapsed>  (278) 
0

>  <r_i_docking_score>  (278) 
-8.6379754322753097

>  <s_m_subgroup_title>  (278) 
glide-dock_SP_D22_pv

>  <s_m_subgroupid>  (278) 
glide-dock_SP_D22_pv

>  <Molecule ChEMBL ID>  (278) 
CHEMBL4760590

>  <Standard Type>  (278) 
Ki

>  <Standard Value>  (278) 
10000.0

>  <label>  (278) 
0

$$$$
CHEMBL492034
     RDKit          3D

  0  0  0  0  0  0  0  0  0  0999 V3000
M  V30 BEGIN CTAB
M  V30 COUNTS 56 59 0 0 1
M  V30 BEGIN ATOM
M  V30 1 C 12.608732 8.166065 -1.820746 0
M  V30 2 C 12.085364 8.076490 -3.236513 0
M  V30 3 C 11.686123 6.849425 -3.786871 0
M  V30 4 C 11.111015 6.811260 -5.071199 0
M  V30 5 C 10.921421 7.980673 -5.843961 0
M  V30 6 N 10.235619 7.848887 -7.078674 0
M  V30 7 C 8.984676 7.092875 -7.154914 0
M  V30 8 C 8.981919 6.140816 -8.373176 0
M  V30 9 N 9.333303 6.838370 -9.642162 0 CHG=1
M  V30 10 C 9.461669 5.919826 -10.808791 0
M  V30 11 C 8.143867 5.474930 -11.431608 0 CFG=1
M  V30 12 C 7.397980 6.316443 -12.438513 0
M  V30 13 C 8.061666 5.033396 -12.903697 0 CFG=1
M  V30 14 C 9.267403 5.187245 -13.829440 0
M  V30 15 C 7.229864 3.797180 -13.255239 0
M  V30 16 C 7.633821 2.852953 -14.240891 0
M  V30 17 C 6.894742 1.677038 -14.478134 0
M  V30 18 C 5.726223 1.416922 -13.743760 0
M  V30 19 C 5.285490 2.356369 -12.797007 0
M  V30 20 C 6.022375 3.533093 -12.562803 0
M  V30 21 C 10.581428 7.648472 -9.507145 0
M  V30 22 C 10.592443 8.578373 -8.284232 0
M  V30 23 C 11.415715 9.209314 -5.303946 0
M  V30 24 C 11.355672 10.536832 -6.025554 0
M  V30 25 C 11.975524 9.240219 -4.009525 0
M  V30 26 H 13.479994 8.819788 -1.770401 0
M  V30 27 H 11.841454 8.575193 -1.164438 0
M  V30 28 H 12.885841 7.181634 -1.446592 0
M  V30 29 H 11.780313 5.937769 -3.214946 0
M  V30 30 H 10.794948 5.855289 -5.457021 0
M  V30 31 H 8.162386 7.805003 -7.240171 0
M  V30 32 H 8.792471 6.528235 -6.243962 0
M  V30 33 H 8.002831 5.672585 -8.470271 0
M  V30 34 H 9.699006 5.338262 -8.195510 0
M  V30 35 H 10.036295 5.036232 -10.528893 0
M  V30 36 H 10.047953 6.429084 -11.569062 0
M  V30 37 H 7.522204 4.924170 -10.729770 0
M  V30 38 H 7.856632 7.266499 -12.704912 0
M  V30 39 H 6.313475 6.346696 -12.357427 0
M  V30 40 H 9.818846 6.102969 -13.634913 0
M  V30 41 H 9.959538 4.354126 -13.700365 0
M  V30 42 H 8.945809 5.233277 -14.870324 0
M  V30 43 H 8.536107 2.983793 -14.816461 0
M  V30 44 H 7.234700 0.965901 -15.216754 0
M  V30 45 H 5.162097 0.512993 -13.921466 0
M  V30 46 H 4.378184 2.172568 -12.245510 0
M  V30 47 H 5.657307 4.218050 -11.811702 0
M  V30 48 H 11.433727 6.971266 -9.435511 0
M  V30 49 H 10.733789 8.247827 -10.406029 0
M  V30 50 H 9.864343 9.373599 -8.435888 0
M  V30 51 H 11.577639 9.035376 -8.190015 0
M  V30 52 H 11.286307 11.371799 -5.328794 0
M  V30 53 H 12.240648 10.672876 -6.645684 0
M  V30 54 H 10.481242 10.580153 -6.646764 0
M  V30 55 H 12.309775 10.171880 -3.582131 0
M  V30 56 H 8.566075 7.472278 -9.841169 0
M  V30 END ATOM
M  V30 BEGIN BOND
M  V30 1 1 2 1
M  V30 2 1 3 2
M  V30 3 2 4 3
M  V30 4 1 5 4
M  V30 5 1 6 5
M  V30 6 1 7 6
M  V30 7 1 8 7
M  V30 8 1 9 8
M  V30 9 1 10 9
M  V30 10 1 11 10
M  V30 11 1 12 11
M  V30 12 1 13 11
M  V30 13 1 13 12
M  V30 14 1 13 14 CFG=3
M  V30 15 1 15 13
M  V30 16 2 16 15
M  V30 17 1 17 16
M  V30 18 2 18 17
M  V30 19 1 19 18
M  V30 20 1 20 15
M  V30 21 2 20 19
M  V30 22 1 21 9
M  V30 23 1 22 6
M  V30 24 1 22 21
M  V30 25 2 23 5
M  V30 26 1 24 23
M  V30 27 2 25 2
M  V30 28 1 25 23
M  V30 29 1 26 1
M  V30 30 1 27 1
M  V30 31 1 28 1
M  V30 32 1 29 3
M  V30 33 1 30 4
M  V30 34 1 31 7
M  V30 35 1 32 7
M  V30 36 1 33 8
M  V30 37 1 34 8
M  V30 38 1 35 10
M  V30 39 1 36 10
M  V30 40 1 11 37 CFG=1
M  V30 41 1 38 12
M  V30 42 1 39 12
M  V30 43 1 40 14
M  V30 44 1 41 14
M  V30 45 1 42 14
M  V30 46 1 43 16
M  V30 47 1 44 17
M  V30 48 1 45 18
M  V30 49 1 46 19
M  V30 50 1 47 20
M  V30 51 1 48 21
M  V30 52 1 49 21
M  V30 53 1 50 22
M  V30 54 1 51 22
M  V30 55 1 52 24
M  V30 56 1 53 24
M  V30 57 1 54 24
M  V30 58 1 55 25
M  V30 59 1 56 9
M  V30 END BOND
M  V30 END CTAB
M  END
>  <b_m_subgroup_collapsed>  (279) 
0

>  <r_i_docking_score>  (279) 
-8.6318032150047408

>  <s_m_subgroup_title>  (279) 
glide-dock_SP_D22_pv

>  <s_m_subgroupid>  (279) 
glide-dock_SP_D22_pv

>  <Molecule ChEMBL ID>  (279) 
CHEMBL492034

>  <Standard Type>  (279) 
Ki

>  <Standard Value>  (279) 
10000.0

>  <label>  (279) 
0

$$$$
CHEMBL4795213
     RDKit          3D

  0  0  0  0  0  0  0  0  0  0999 V3000
M  V30 BEGIN CTAB
M  V30 COUNTS 62 66 0 0 1
M  V30 BEGIN ATOM
M  V30 1 C 4.599905 -1.851106 -16.001728 0
M  V30 2 N 5.621268 -0.801310 -16.022732 0
M  V30 3 C 6.337484 -0.634078 -17.296343 0
M  V30 4 C 7.777630 -0.112313 -17.128677 0
M  V30 5 C 7.848197 1.000256 -16.103930 0
M  V30 6 C 8.853501 1.984558 -16.183201 0
M  V30 7 C 8.886291 3.042412 -15.254678 0
M  V30 8 C 7.894149 3.140037 -14.246762 0
M  V30 9 O 7.820657 4.161889 -13.323523 0
M  V30 10 C 8.654625 5.300570 -13.505746 0
M  V30 11 C 8.417384 6.320641 -12.377399 0 CFG=1
M  V30 12 O 7.214283 7.018960 -12.646796 0
M  V30 13 C 8.432178 5.668309 -10.965148 0
M  V30 14 N 8.886086 6.568762 -9.864689 0 CFG=2 CHG=1
M  V30 15 C 10.332291 6.912148 -9.947208 0
M  V30 16 C 10.774146 7.885106 -8.842555 0
M  V30 17 C 10.426764 7.352793 -7.438213 0 CFG=1
M  V30 18 C 10.832691 8.313146 -6.344403 0
M  V30 19 N 10.652020 9.624200 -6.492250 0
M  V30 20 O 11.109139 10.263589 -5.308696 0
M  V30 21 C 11.549622 9.308861 -4.410948 0
M  V30 22 C 12.067401 9.418633 -3.114481 0
M  V30 23 C 12.389411 8.228349 -2.434755 0
M  V30 24 F 12.883129 8.292873 -1.179289 0
M  V30 25 C 12.192791 6.972534 -3.057241 0
M  V30 26 C 11.685813 6.890079 -4.375199 0
M  V30 27 C 11.359863 8.083356 -5.054578 0
M  V30 28 C 8.932298 7.004992 -7.394275 0
M  V30 29 C 8.572817 6.014105 -8.519562 0
M  V30 30 C 6.905876 2.136831 -14.169352 0
M  V30 31 C 6.885070 1.053142 -15.072902 0
M  V30 32 C 5.852288 -0.037701 -14.928473 0
M  V30 33 O 5.236033 -0.173168 -13.867669 0
M  V30 34 H 3.676070 -1.507871 -15.527971 0
M  V30 35 H 4.335183 -2.186384 -17.006401 0
M  V30 36 H 4.964259 -2.717337 -15.446820 0
M  V30 37 H 6.356593 -1.566875 -17.861767 0
M  V30 38 H 5.766415 0.079066 -17.892841 0
M  V30 39 H 8.159154 0.237287 -18.088493 0
M  V30 40 H 8.440490 -0.915010 -16.807928 0
M  V30 41 H 9.600419 1.935920 -16.962439 0
M  V30 42 H 9.668959 3.778680 -15.351206 0
M  V30 43 H 8.486176 5.763860 -14.480042 0
M  V30 44 H 9.699097 4.986890 -13.465631 0
M  V30 45 H 9.206091 7.063884 -12.469035 0
M  V30 46 H 6.884909 7.372699 -11.813512 0
M  V30 47 H 7.433727 5.284902 -10.747144 0
M  V30 48 H 9.088250 4.795604 -10.969135 0
M  V30 49 H 10.885959 5.983397 -9.847494 0
M  V30 50 H 10.598360 7.342359 -10.909720 0
M  V30 51 H 11.847727 8.064879 -8.914970 0
M  V30 52 H 10.290224 8.848496 -9.014096 0
M  V30 53 H 10.984606 6.426304 -7.290780 0
M  V30 54 H 12.194276 10.383365 -2.646342 0
M  V30 55 H 12.434860 6.065042 -2.522532 0
M  V30 56 H 11.539081 5.928622 -4.845282 0
M  V30 57 H 8.681176 6.565695 -6.428494 0
M  V30 58 H 8.334470 7.913241 -7.481943 0
M  V30 59 H 7.520130 5.770976 -8.451912 0
M  V30 60 H 9.109339 5.074708 -8.375716 0
M  V30 61 H 6.160826 2.201677 -13.389004 0
M  V30 62 H 8.314072 7.404469 -9.948227 0
M  V30 END ATOM
M  V30 BEGIN BOND
M  V30 1 1 2 1
M  V30 2 1 3 2
M  V30 3 1 4 3
M  V30 4 1 5 4
M  V30 5 1 6 5
M  V30 6 2 7 6
M  V30 7 1 8 7
M  V30 8 1 9 8
M  V30 9 1 10 9
M  V30 10 1 11 10
M  V30 11 1 12 11
M  V30 12 1 13 11
M  V30 13 1 14 13
M  V30 14 1 15 14
M  V30 15 1 16 15
M  V30 16 1 17 16
M  V30 17 1 18 17
M  V30 18 2 19 18
M  V30 19 1 20 19
M  V30 20 1 21 20
M  V30 21 1 22 21
M  V30 22 2 23 22
M  V30 23 1 24 23
M  V30 24 1 25 23
M  V30 25 2 26 25
M  V30 26 1 27 18
M  V30 27 2 27 21
M  V30 28 1 27 26
M  V30 29 1 28 17
M  V30 30 1 29 14
M  V30 31 1 29 28
M  V30 32 2 30 8
M  V30 33 2 31 5
M  V30 34 1 31 30
M  V30 35 1 32 2
M  V30 36 1 32 31
M  V30 37 2 33 32
M  V30 38 1 34 1
M  V30 39 1 35 1
M  V30 40 1 36 1
M  V30 41 1 37 3
M  V30 42 1 38 3
M  V30 43 1 39 4
M  V30 44 1 40 4
M  V30 45 1 41 6
M  V30 46 1 42 7
M  V30 47 1 43 10
M  V30 48 1 44 10
M  V30 49 1 11 45 CFG=1
M  V30 50 1 46 12
M  V30 51 1 47 13
M  V30 52 1 48 13
M  V30 53 1 49 15
M  V30 54 1 50 15
M  V30 55 1 51 16
M  V30 56 1 52 16
M  V30 57 1 17 53 CFG=1
M  V30 58 1 54 22
M  V30 59 1 55 25
M  V30 60 1 56 26
M  V30 61 1 57 28
M  V30 62 1 58 28
M  V30 63 1 59 29
M  V30 64 1 60 29
M  V30 65 1 61 30
M  V30 66 1 14 62 CFG=3
M  V30 END BOND
M  V30 END CTAB
M  END
>  <b_m_subgroup_collapsed>  (280) 
0

>  <r_i_docking_score>  (280) 
-8.6298166325609493

>  <s_m_subgroup_title>  (280) 
glide-dock_SP_D22_pv

>  <s_m_subgroupid>  (280) 
glide-dock_SP_D22_pv

>  <Molecule ChEMBL ID>  (280) 
CHEMBL4795213

>  <Standard Type>  (280) 
Ki

>  <Standard Value>  (280) 
15.1

>  <label>  (280) 
1

$$$$
CHEMBL3819434
     RDKit          3D

  0  0  0  0  0  0  0  0  0  0999 V3000
M  V30 BEGIN CTAB
M  V30 COUNTS 57 61 0 0 1
M  V30 BEGIN ATOM
M  V30 1 O 12.592053 8.053935 -8.246860 0
M  V30 2 C 11.380783 7.785697 -7.569064 0 CFG=1
M  V30 3 C 11.588137 7.947884 -6.043385 0
M  V30 4 C 12.085931 9.171556 -5.539624 0
M  V30 5 C 12.385982 9.299497 -4.172545 0
M  V30 6 C 12.154738 8.259115 -3.271826 0
M  V30 7 Cl 12.486021 8.521233 -1.605715 0
M  V30 8 C 11.686028 7.028406 -3.746503 0
M  V30 9 C 11.425793 6.875905 -5.120432 0
M  V30 10 C 10.421811 8.863256 -8.162395 0
M  V30 11 C 8.962615 8.387566 -8.261065 0 CFG=2
M  V30 12 C 8.485908 7.985644 -6.853982 0
M  V30 13 C 8.662691 6.474355 -6.806834 0
M  V30 14 C 9.423223 6.134077 -8.090476 0 CFG=2
M  V30 15 C 10.945968 6.346493 -8.002241 0
M  V30 16 N 8.886018 7.126578 -9.033754 0 CFG=2 CHG=1
M  V30 17 C 9.348314 7.113072 -10.451979 0
M  V30 18 C 9.206823 5.717671 -11.104943 0
M  V30 19 C 9.748626 5.647105 -12.544923 0
M  V30 20 C 8.664654 5.568603 -13.631017 0
M  V30 21 C 8.009968 4.232744 -13.748615 0
M  V30 22 N 6.822203 3.960342 -13.194459 0
M  V30 23 C 6.452053 2.650654 -13.487489 0
M  V30 24 C 5.281590 1.982910 -13.062686 0
M  V30 25 C 5.022380 0.651174 -13.446780 0
M  V30 26 C 5.950705 -0.056434 -14.232452 0
M  V30 27 C 7.137514 0.572756 -14.647315 0
M  V30 28 C 7.379717 1.910108 -14.280396 0
M  V30 29 S 8.775459 2.914891 -14.646857 0
M  V30 30 H 13.274756 7.521289 -7.868299 0
M  V30 31 H 12.301031 9.993686 -6.207218 0
M  V30 32 H 12.843331 10.172326 -3.772185 0
M  V30 33 H 11.538460 6.199865 -3.068225 0
M  V30 34 H 11.127167 5.889309 -5.426219 0
M  V30 35 H 10.467836 9.772321 -7.570909 0
M  V30 36 H 10.737867 9.169131 -9.161139 0
M  V30 37 H 8.335482 9.166412 -8.695876 0
M  V30 38 H 9.036518 8.502400 -6.073038 0
M  V30 39 H 7.441191 8.172317 -6.646856 0
M  V30 40 H 9.112745 6.172305 -5.873340 0
M  V30 41 H 7.686039 5.993450 -6.839961 0
M  V30 42 H 9.191960 5.113083 -8.394565 0
M  V30 43 H 11.286031 6.172331 -9.017164 0
M  V30 44 H 11.440550 5.558467 -7.440348 0
M  V30 45 H 8.750550 7.834356 -11.011230 0
M  V30 46 H 10.379942 7.451377 -10.537235 0
M  V30 47 H 9.765279 4.981961 -10.527803 0
M  V30 48 H 8.165717 5.392653 -11.066126 0
M  V30 49 H 10.374865 6.519423 -12.735478 0
M  V30 50 H 10.414686 4.788948 -12.647824 0
M  V30 51 H 7.907668 6.335260 -13.459485 0
M  V30 52 H 9.116274 5.772320 -14.601053 0
M  V30 53 H 4.564934 2.516925 -12.458377 0
M  V30 54 H 4.105265 0.172387 -13.139921 0
M  V30 55 H 5.755948 -1.081319 -14.518506 0
M  V30 56 H 7.857214 0.029723 -15.243398 0
M  V30 57 H 7.883820 6.960175 -9.104784 0
M  V30 END ATOM
M  V30 BEGIN BOND
M  V30 1 1 2 1 CFG=3
M  V30 2 1 3 2
M  V30 3 1 4 3
M  V30 4 2 5 4
M  V30 5 1 6 5
M  V30 6 1 7 6
M  V30 7 2 8 6
M  V30 8 2 9 3
M  V30 9 1 9 8
M  V30 10 1 10 2
M  V30 11 1 11 10
M  V30 12 1 12 11
M  V30 13 1 13 12
M  V30 14 1 14 13
M  V30 15 1 15 2
M  V30 16 1 15 14
M  V30 17 1 16 11
M  V30 18 1 16 14
M  V30 19 1 17 16
M  V30 20 1 18 17
M  V30 21 1 19 18
M  V30 22 1 20 19
M  V30 23 1 21 20
M  V30 24 2 22 21
M  V30 25 1 23 22
M  V30 26 2 24 23
M  V30 27 1 25 24
M  V30 28 2 26 25
M  V30 29 1 27 26
M  V30 30 1 28 23
M  V30 31 2 28 27
M  V30 32 1 29 21
M  V30 33 1 29 28
M  V30 34 1 30 1
M  V30 35 1 31 4
M  V30 36 1 32 5
M  V30 37 1 33 8
M  V30 38 1 34 9
M  V30 39 1 35 10
M  V30 40 1 36 10
M  V30 41 1 11 37 CFG=3
M  V30 42 1 38 12
M  V30 43 1 39 12
M  V30 44 1 40 13
M  V30 45 1 41 13
M  V30 46 1 14 42 CFG=3
M  V30 47 1 43 15
M  V30 48 1 44 15
M  V30 49 1 45 17
M  V30 50 1 46 17
M  V30 51 1 47 18
M  V30 52 1 48 18
M  V30 53 1 49 19
M  V30 54 1 50 19
M  V30 55 1 51 20
M  V30 56 1 52 20
M  V30 57 1 53 24
M  V30 58 1 54 25
M  V30 59 1 55 26
M  V30 60 1 56 27
M  V30 61 1 16 57 CFG=3
M  V30 END BOND
M  V30 END CTAB
M  END
>  <b_m_subgroup_collapsed>  (281) 
0

>  <r_i_docking_score>  (281) 
-8.6259744407497294

>  <s_m_subgroup_title>  (281) 
glide-dock_SP_D22_pv

>  <s_m_subgroupid>  (281) 
glide-dock_SP_D22_pv

>  <Molecule ChEMBL ID>  (281) 
CHEMBL3819434

>  <Standard Type>  (281) 
Ki

>  <Standard Value>  (281) 
44.67

>  <label>  (281) 
1

$$$$
CHEMBL486336
     RDKit          3D

  0  0  0  0  0  0  0  0  0  0999 V3000
M  V30 BEGIN CTAB
M  V30 COUNTS 67 70 0 0 1
M  V30 BEGIN ATOM
M  V30 1 C 3.680831 -2.122798 -18.403574 0
M  V30 2 O 4.869915 -1.519032 -17.915751 0
M  V30 3 C 4.871634 -1.025376 -16.629244 0
M  V30 4 C 3.776834 -1.112490 -15.733723 0
M  V30 5 C 3.865273 -0.555470 -14.441982 0
M  V30 6 C 5.053984 0.072069 -14.020515 0
M  V30 7 C 6.153499 0.150853 -14.898278 0
M  V30 8 C 7.439741 0.836432 -14.474013 0
M  V30 9 C 7.346207 2.361409 -14.646300 0
M  V30 10 C 8.665762 3.092385 -14.427138 0
M  V30 11 C 9.742670 2.795725 -15.289845 0
M  V30 12 C 10.965488 3.479604 -15.180296 0
M  V30 13 C 11.112013 4.488392 -14.218142 0
M  V30 14 C 10.042069 4.799315 -13.358078 0
M  V30 15 C 8.810548 4.097229 -13.431643 0
M  V30 16 O 7.744458 4.338441 -12.582027 0
M  V30 17 C 7.777615 5.465204 -11.704497 0
M  V30 18 C 8.623984 5.200104 -10.432972 0
M  V30 19 N 8.884982 6.423768 -9.627250 0 CFG=2 CHG=1
M  V30 20 C 9.840054 7.357026 -10.276984 0
M  V30 21 C 9.902716 8.667770 -9.498344 0
M  V30 22 C 10.313330 8.408467 -8.071513 0
M  V30 23 C 11.049321 9.372222 -7.369061 0
M  V30 24 C 11.510170 9.150336 -6.063726 0
M  V30 25 O 12.250306 10.159196 -5.495251 0
M  V30 26 C 13.336356 9.782147 -4.656739 0
M  V30 27 C 11.185811 7.934917 -5.418423 0
M  V30 28 O 11.608036 7.766027 -4.115459 0
M  V30 29 C 11.524127 6.485829 -3.533285 0
M  V30 30 C 10.420990 6.971540 -6.122337 0
M  V30 31 C 9.991316 7.190019 -7.449943 0
M  V30 32 C 9.237484 6.096111 -8.210376 0
M  V30 33 C 6.051145 -0.392108 -16.196428 0
M  V30 34 H 3.824205 -2.411103 -19.445448 0
M  V30 35 H 3.431253 -3.026645 -17.847410 0
M  V30 36 H 2.842675 -1.429161 -18.367908 0
M  V30 37 H 2.860059 -1.602052 -16.017563 0
M  V30 38 H 3.014786 -0.613506 -13.778197 0
M  V30 39 H 5.120228 0.497946 -13.030392 0
M  V30 40 H 8.252213 0.432030 -15.079001 0
M  V30 41 H 7.676607 0.571887 -13.447012 0
M  V30 42 H 6.563617 2.758150 -14.000426 0
M  V30 43 H 7.026197 2.572099 -15.669693 0
M  V30 44 H 9.632989 2.041557 -16.055046 0
M  V30 45 H 11.783564 3.238490 -15.843977 0
M  V30 46 H 12.044320 5.027837 -14.138215 0
M  V30 47 H 10.208777 5.587018 -12.642851 0
M  V30 48 H 8.095566 6.340967 -12.265266 0
M  V30 49 H 6.750660 5.682695 -11.407630 0
M  V30 50 H 8.085179 4.475613 -9.819074 0
M  V30 51 H 9.575671 4.724411 -10.666351 0
M  V30 52 H 10.826558 6.895803 -10.326147 0
M  V30 53 H 9.547427 7.585009 -11.299781 0
M  V30 54 H 8.930910 9.166650 -9.505304 0
M  V30 55 H 10.613411 9.346948 -9.972403 0
M  V30 56 H 11.286237 10.287896 -7.860857 0
M  V30 57 H 14.085497 10.571694 -4.642489 0
M  V30 58 H 13.036678 9.602908 -3.621843 0
M  V30 59 H 13.907073 8.970966 -5.048314 0
M  V30 60 H 11.987632 6.500261 -2.545792 0
M  V30 61 H 10.490315 6.171903 -3.404251 0
M  V30 62 H 12.067229 5.771967 -4.143294 0
M  V30 63 H 10.152409 6.041706 -5.653657 0
M  V30 64 H 8.325105 5.843619 -7.668536 0
M  V30 65 H 9.871602 5.208102 -8.197268 0
M  V30 66 H 6.890366 -0.328748 -16.875628 0
M  V30 67 H 7.994462 6.925597 -9.585124 0
M  V30 END ATOM
M  V30 BEGIN BOND
M  V30 1 1 2 1
M  V30 2 1 3 2
M  V30 3 2 4 3
M  V30 4 1 5 4
M  V30 5 2 6 5
M  V30 6 1 7 6
M  V30 7 1 8 7
M  V30 8 1 9 8
M  V30 9 1 10 9
M  V30 10 2 11 10
M  V30 11 1 12 11
M  V30 12 2 13 12
M  V30 13 1 14 13
M  V30 14 1 15 10
M  V30 15 2 15 14
M  V30 16 1 16 15
M  V30 17 1 17 16
M  V30 18 1 18 17
M  V30 19 1 19 18
M  V30 20 1 20 19
M  V30 21 1 21 20
M  V30 22 1 22 21
M  V30 23 2 23 22
M  V30 24 1 24 23
M  V30 25 1 25 24
M  V30 26 1 26 25
M  V30 27 2 27 24
M  V30 28 1 28 27
M  V30 29 1 29 28
M  V30 30 1 30 27
M  V30 31 1 31 22
M  V30 32 2 31 30
M  V30 33 1 32 19
M  V30 34 1 32 31
M  V30 35 1 33 3
M  V30 36 2 33 7
M  V30 37 1 34 1
M  V30 38 1 35 1
M  V30 39 1 36 1
M  V30 40 1 37 4
M  V30 41 1 38 5
M  V30 42 1 39 6
M  V30 43 1 40 8
M  V30 44 1 41 8
M  V30 45 1 42 9
M  V30 46 1 43 9
M  V30 47 1 44 11
M  V30 48 1 45 12
M  V30 49 1 46 13
M  V30 50 1 47 14
M  V30 51 1 48 17
M  V30 52 1 49 17
M  V30 53 1 50 18
M  V30 54 1 51 18
M  V30 55 1 52 20
M  V30 56 1 53 20
M  V30 57 1 54 21
M  V30 58 1 55 21
M  V30 59 1 56 23
M  V30 60 1 57 26
M  V30 61 1 58 26
M  V30 62 1 59 26
M  V30 63 1 60 29
M  V30 64 1 61 29
M  V30 65 1 62 29
M  V30 66 1 63 30
M  V30 67 1 64 32
M  V30 68 1 65 32
M  V30 69 1 66 33
M  V30 70 1 19 67 CFG=1
M  V30 END BOND
M  V30 END CTAB
M  END
>  <b_m_subgroup_collapsed>  (282) 
0

>  <r_i_docking_score>  (282) 
-8.6254552310044197

>  <s_m_subgroup_title>  (282) 
glide-dock_SP_D22_pv

>  <s_m_subgroupid>  (282) 
glide-dock_SP_D22_pv

>  <Molecule ChEMBL ID>  (282) 
CHEMBL486336

>  <Standard Type>  (282) 
Ki

>  <Standard Value>  (282) 
1000000.0

>  <label>  (282) 
0

$$$$
CHEMBL182721
     RDKit          3D

  0  0  0  0  0  0  0  0  0  0999 V3000
M  V30 BEGIN CTAB
M  V30 COUNTS 53 57 0 0 1
M  V30 BEGIN ATOM
M  V30 1 C 9.277282 2.331442 -15.856975 0
M  V30 2 C 8.397793 2.545181 -14.780914 0
M  V30 3 C 8.668646 3.555258 -13.839580 0
M  V30 4 C 9.826577 4.363561 -13.951067 0
M  V30 5 C 10.130086 5.382862 -13.005946 0
M  V30 6 N 9.334007 5.610765 -11.866305 0
M  V30 7 C 9.189488 4.594316 -10.829286 0
M  V30 8 C 9.657937 5.123978 -9.455223 0
M  V30 9 N 8.982541 6.381651 -9.139612 0
M  V30 10 C 9.243607 6.866419 -7.781234 0
M  V30 11 C 10.743512 7.055257 -7.472000 0
M  V30 12 C 11.002063 7.803021 -6.183636 0
M  V30 13 C 10.965330 9.219590 -6.186239 0
M  V30 14 C 11.305079 9.947155 -5.027917 0
M  V30 15 C 11.687650 9.226851 -3.883087 0
M  V30 16 C 11.702877 7.844439 -3.872470 0
M  V30 17 C 11.350164 7.096870 -5.008770 0
M  V30 18 N 12.086834 7.368805 -2.631564 0
M  V30 19 C 12.491690 8.556862 -1.874741 0
M  V30 20 N 12.084746 9.728066 -2.653625 0
M  V30 21 C 9.322090 7.386571 -10.157149 0
M  V30 22 C 8.829152 6.938905 -11.545586 0
M  V30 23 C 11.266066 6.198347 -13.211021 0
M  V30 24 C 12.103629 6.001223 -14.320463 0
M  V30 25 C 11.825827 4.972379 -15.236895 0
M  V30 26 C 10.692380 4.156621 -15.058167 0
M  V30 27 C 10.420905 3.138252 -15.997083 0
M  V30 28 H 9.069709 1.552403 -16.577614 0
M  V30 29 H 7.511473 1.935155 -14.676677 0
M  V30 30 H 7.967453 3.703740 -13.033256 0
M  V30 31 H 9.763515 3.708464 -11.097154 0
M  V30 32 H 8.140260 4.301656 -10.770649 0
M  V30 33 H 10.731005 5.301981 -9.454001 0
M  V30 34 H 9.448765 4.383484 -8.681028 0
M  V30 35 H 8.802185 6.172488 -7.064206 0
M  V30 36 H 8.706828 7.808048 -7.652575 0
M  V30 37 H 11.251919 7.614656 -8.253078 0
M  V30 38 H 11.242935 6.087222 -7.419452 0
M  V30 39 H 10.698451 9.750805 -7.088107 0
M  V30 40 H 11.285266 11.025823 -5.030081 0
M  V30 41 H 11.371857 6.017583 -4.991184 0
M  V30 42 H 12.560836 6.485279 -2.524360 0
M  V30 43 H 13.570651 8.581326 -1.713752 0
M  V30 44 H 12.000275 8.574196 -0.901962 0
M  V30 45 H 12.640398 10.574177 -2.570146 0
M  V30 46 H 8.871469 8.345731 -9.896268 0
M  V30 47 H 10.398909 7.542831 -10.208367 0
M  V30 48 H 9.125810 7.668511 -12.297850 0
M  V30 49 H 7.741763 6.895679 -11.563117 0
M  V30 50 H 11.505534 6.979578 -12.505392 0
M  V30 51 H 12.969379 6.627823 -14.460757 0
M  V30 52 H 12.480426 4.823164 -16.084055 0
M  V30 53 H 11.084476 2.974813 -16.832865 0
M  V30 END ATOM
M  V30 BEGIN BOND
M  V30 1 2 2 1
M  V30 2 1 3 2
M  V30 3 2 4 3
M  V30 4 1 5 4
M  V30 5 1 6 5
M  V30 6 1 7 6
M  V30 7 1 8 7
M  V30 8 1 9 8
M  V30 9 1 10 9
M  V30 10 1 11 10
M  V30 11 1 12 11
M  V30 12 1 13 12
M  V30 13 2 14 13
M  V30 14 1 15 14
M  V30 15 2 16 15
M  V30 16 2 17 12
M  V30 17 1 17 16
M  V30 18 1 18 16
M  V30 19 1 19 18
M  V30 20 1 20 15
M  V30 21 1 20 19
M  V30 22 1 21 9
M  V30 23 1 22 6
M  V30 24 1 22 21
M  V30 25 2 23 5
M  V30 26 1 24 23
M  V30 27 2 25 24
M  V30 28 1 26 4
M  V30 29 1 26 25
M  V30 30 1 27 1
M  V30 31 2 27 26
M  V30 32 1 28 1
M  V30 33 1 29 2
M  V30 34 1 30 3
M  V30 35 1 31 7
M  V30 36 1 32 7
M  V30 37 1 33 8
M  V30 38 1 34 8
M  V30 39 1 35 10
M  V30 40 1 36 10
M  V30 41 1 37 11
M  V30 42 1 38 11
M  V30 43 1 39 13
M  V30 44 1 40 14
M  V30 45 1 41 17
M  V30 46 1 42 18
M  V30 47 1 43 19
M  V30 48 1 44 19
M  V30 49 1 45 20
M  V30 50 1 46 21
M  V30 51 1 47 21
M  V30 52 1 48 22
M  V30 53 1 49 22
M  V30 54 1 50 23
M  V30 55 1 51 24
M  V30 56 1 52 25
M  V30 57 1 53 27
M  V30 END BOND
M  V30 END CTAB
M  END
>  <b_m_subgroup_collapsed>  (283) 
0

>  <r_i_docking_score>  (283) 
-8.6230612283503607

>  <s_m_subgroup_title>  (283) 
glide-dock_SP_D22_pv

>  <s_m_subgroupid>  (283) 
glide-dock_SP_D22_pv

>  <Molecule ChEMBL ID>  (283) 
CHEMBL182721

>  <Standard Type>  (283) 
Ki

>  <Standard Value>  (283) 
1.66

>  <label>  (283) 
1

$$$$
CHEMBL5289958
     RDKit          3D

  0  0  0  0  0  0  0  0  0  0999 V3000
M  V30 BEGIN CTAB
M  V30 COUNTS 58 62 0 0 1
M  V30 BEGIN ATOM
M  V30 1 F 5.754118 -1.374712 -13.845680 0
M  V30 2 C 5.965999 -0.038422 -13.803463 0
M  V30 3 C 6.662932 0.590220 -14.851322 0
M  V30 4 C 6.886049 1.980119 -14.807975 0
M  V30 5 C 6.403250 2.739586 -13.717736 0
M  V30 6 C 6.614066 4.224772 -13.631519 0
M  V30 7 N 7.887545 4.612166 -12.977770 0 CFG=1 CHG=1
M  V30 8 C 9.083926 4.281023 -13.798232 0
M  V30 9 C 10.378891 4.596042 -13.046832 0
M  V30 10 C 10.395797 6.053413 -12.569431 0
M  V30 11 C 9.142562 6.427547 -11.746727 0 CFG=2
M  V30 12 C 9.185876 7.936631 -11.416191 0
M  V30 13 C 9.426744 8.063373 -9.904188 0
M  V30 14 N 9.749365 6.709744 -9.406234 0 CFG=1 CHG=1
M  V30 15 C 9.376096 6.434539 -7.995853 0
M  V30 16 C 10.134771 7.229056 -6.977067 0
M  V30 17 C 10.163769 8.585152 -6.783101 0
M  V30 18 C 10.848269 8.814502 -5.545786 0
M  V30 19 C 11.085418 9.960187 -4.759933 0
M  V30 20 C 11.685969 9.845613 -3.494007 0
M  V30 21 C 12.131517 8.610662 -3.008772 0
M  V30 22 Cl 12.876611 8.572317 -1.452850 0
M  V30 23 C 11.948787 7.450616 -3.789270 0
M  V30 24 C 11.285929 7.559784 -5.031714 0
M  V30 25 N 10.870172 6.627194 -5.962658 0
M  V30 26 C 9.120678 5.766661 -10.349684 0
M  V30 27 C 7.880959 6.043195 -12.560035 0
M  V30 28 C 5.685998 2.117542 -12.689765 0
M  V30 29 C 5.496923 0.733579 -12.719546 0
M  V30 30 F 4.886014 0.172316 -11.663729 0
M  V30 31 H 7.026433 0.002800 -15.682564 0
M  V30 32 H 7.421895 2.455429 -15.616762 0
M  V30 33 H 6.581030 4.577869 -14.646841 0
M  V30 34 H 5.763799 4.672743 -13.113498 0
M  V30 35 H 9.097384 3.222112 -14.051503 0
M  V30 36 H 9.050296 4.834569 -14.738558 0
M  V30 37 H 10.484209 3.913434 -12.204742 0
M  V30 38 H 11.237524 4.408193 -13.693090 0
M  V30 39 H 11.286045 6.277715 -11.995329 0
M  V30 40 H 10.486539 6.682060 -13.446837 0
M  V30 41 H 9.970407 8.453465 -11.968596 0
M  V30 42 H 8.252102 8.435775 -11.681805 0
M  V30 43 H 10.230962 8.765699 -9.680756 0
M  V30 44 H 8.518631 8.434322 -9.423307 0
M  V30 45 H 8.306386 6.603327 -7.860596 0
M  V30 46 H 9.532848 5.372309 -7.805218 0
M  V30 47 H 9.676737 9.345125 -7.375995 0
M  V30 48 H 10.751225 10.926303 -5.108001 0
M  V30 49 H 11.817126 10.723962 -2.879700 0
M  V30 50 H 12.265133 6.487099 -3.417233 0
M  V30 51 H 10.955730 5.624171 -5.855033 0
M  V30 52 H 8.086177 5.611607 -10.033848 0
M  V30 53 H 9.611496 4.793957 -10.313668 0
M  V30 54 H 7.808372 6.673076 -13.446878 0
M  V30 55 H 6.986242 6.249322 -11.969358 0
M  V30 56 H 5.313484 2.687703 -11.850065 0
M  V30 57 H 7.942011 4.061674 -12.132708 0
M  V30 58 H 10.748911 6.595939 -9.489039 0
M  V30 END ATOM
M  V30 BEGIN BOND
M  V30 1 1 2 1
M  V30 2 1 3 2
M  V30 3 2 4 3
M  V30 4 1 5 4
M  V30 5 1 6 5
M  V30 6 1 7 6
M  V30 7 1 8 7
M  V30 8 1 9 8
M  V30 9 1 10 9
M  V30 10 1 11 10 CFG=3
M  V30 11 1 12 11
M  V30 12 1 13 12
M  V30 13 1 14 13
M  V30 14 1 15 14
M  V30 15 1 16 15
M  V30 16 2 17 16
M  V30 17 1 18 17
M  V30 18 1 19 18
M  V30 19 2 20 19
M  V30 20 1 21 20
M  V30 21 1 22 21
M  V30 22 2 23 21
M  V30 23 2 24 18
M  V30 24 1 24 23
M  V30 25 1 25 16
M  V30 26 1 25 24
M  V30 27 1 26 11
M  V30 28 1 26 14
M  V30 29 1 27 7
M  V30 30 1 27 11
M  V30 31 2 28 5
M  V30 32 2 29 2
M  V30 33 1 29 28
M  V30 34 1 30 29
M  V30 35 1 31 3
M  V30 36 1 32 4
M  V30 37 1 33 6
M  V30 38 1 34 6
M  V30 39 1 35 8
M  V30 40 1 36 8
M  V30 41 1 37 9
M  V30 42 1 38 9
M  V30 43 1 39 10
M  V30 44 1 40 10
M  V30 45 1 41 12
M  V30 46 1 42 12
M  V30 47 1 43 13
M  V30 48 1 44 13
M  V30 49 1 45 15
M  V30 50 1 46 15
M  V30 51 1 47 17
M  V30 52 1 48 19
M  V30 53 1 49 20
M  V30 54 1 50 23
M  V30 55 1 51 25
M  V30 56 1 52 26
M  V30 57 1 53 26
M  V30 58 1 54 27
M  V30 59 1 55 27
M  V30 60 1 56 28
M  V30 61 1 7 57 CFG=1
M  V30 62 1 14 58 CFG=1
M  V30 END BOND
M  V30 END CTAB
M  END
>  <b_m_subgroup_collapsed>  (284) 
0

>  <r_i_docking_score>  (284) 
-8.6218064886232995

>  <s_m_subgroup_title>  (284) 
glide-dock_SP_D22_pv

>  <s_m_subgroupid>  (284) 
glide-dock_SP_D22_pv

>  <Molecule ChEMBL ID>  (284) 
CHEMBL5289958

>  <Standard Type>  (284) 
Ki

>  <Standard Value>  (284) 
10000.0

>  <label>  (284) 
0

$$$$
CHEMBL4098399
     RDKit          3D

  0  0  0  0  0  0  0  0  0  0999 V3000
M  V30 BEGIN CTAB
M  V30 COUNTS 57 61 0 0 1
M  V30 BEGIN ATOM
M  V30 1 C 12.825603 8.623257 -7.847156 0
M  V30 2 N 11.414451 8.402330 -7.620040 0
M  V30 3 C 10.448020 8.338342 -8.546792 0
M  V30 4 S 10.840566 8.564125 -10.247406 0
M  V30 5 C 9.193411 8.571853 -11.011186 0
M  V30 6 C 8.698684 7.159245 -11.353009 0
M  V30 7 C 9.696350 6.389077 -12.220016 0
M  V30 8 N 9.045062 5.287570 -12.966121 0 CFG=2 CHG=1
M  V30 9 C 9.552319 3.947821 -12.682629 0
M  V30 10 C 9.731244 3.704664 -14.182559 0 CFG=1
M  V30 11 C 11.047877 3.129450 -14.716847 0
M  V30 12 C 10.293591 1.845146 -15.038116 0
M  V30 13 N 9.079406 2.648440 -14.960796 0
M  V30 14 C 7.902331 1.971141 -14.516476 0
M  V30 15 C 7.721281 0.584288 -14.763569 0
M  V30 16 C 6.556106 -0.107963 -14.387443 0
M  V30 17 C 5.519258 0.575461 -13.739011 0
M  V30 18 F 4.371023 -0.073134 -13.437264 0
M  V30 19 C 5.669468 1.942012 -13.447322 0
M  V30 20 C 6.826126 2.628778 -13.867673 0
M  V30 21 C 9.409968 5.179692 -14.380516 0
M  V30 22 N 9.241120 8.106784 -8.039688 0
M  V30 23 N 9.424789 8.019114 -6.679778 0
M  V30 24 C 10.729804 8.206533 -6.474336 0
M  V30 25 C 11.304882 8.195265 -5.139419 0
M  V30 26 C 11.568144 9.408803 -4.473747 0
M  V30 27 C 12.086137 9.395577 -3.163486 0
M  V30 28 C 12.342953 8.174212 -2.514178 0
M  V30 29 C 12.086082 6.961163 -3.180263 0
M  V30 30 C 11.571783 6.972069 -4.492660 0
M  V30 31 H 12.965635 9.371682 -8.619645 0
M  V30 32 H 13.302368 8.985973 -6.942938 0
M  V30 33 H 13.285607 7.699826 -8.192711 0
M  V30 34 H 8.486142 9.101321 -10.374409 0
M  V30 35 H 9.257526 9.151418 -11.932429 0
M  V30 36 H 8.488551 6.598500 -10.440034 0
M  V30 37 H 7.742503 7.255217 -11.866488 0
M  V30 38 H 10.192892 7.070707 -12.906753 0
M  V30 39 H 10.485518 6.009955 -11.575222 0
M  V30 40 H 10.486215 3.919377 -12.128457 0
M  V30 41 H 8.789227 3.372313 -12.179484 0
M  V30 42 H 11.420755 3.640965 -15.606949 0
M  V30 43 H 11.828041 3.007510 -13.965787 0
M  V30 44 H 10.378376 1.096301 -14.247140 0
M  V30 45 H 10.494185 1.435636 -16.028902 0
M  V30 46 H 8.482596 0.018242 -15.280013 0
M  V30 47 H 6.454999 -1.159012 -14.619921 0
M  V30 48 H 4.870458 2.478082 -12.956102 0
M  V30 49 H 6.874888 3.689517 -13.684393 0
M  V30 50 H 8.567681 5.370106 -15.046114 0
M  V30 51 H 10.287406 5.760004 -14.672082 0
M  V30 52 H 11.356682 10.349981 -4.960223 0
M  V30 53 H 12.271039 10.326182 -2.646953 0
M  V30 54 H 12.728189 8.170168 -1.505460 0
M  V30 55 H 12.273093 6.020313 -2.682410 0
M  V30 56 H 11.363124 6.038282 -4.994443 0
M  V30 57 H 8.040552 5.314247 -12.859614 0
M  V30 END ATOM
M  V30 BEGIN BOND
M  V30 1 1 2 1
M  V30 2 1 3 2
M  V30 3 1 4 3
M  V30 4 1 5 4
M  V30 5 1 6 5
M  V30 6 1 7 6
M  V30 7 1 8 7
M  V30 8 1 9 8
M  V30 9 1 10 9
M  V30 10 1 11 10
M  V30 11 1 12 11
M  V30 12 1 10 13 CFG=1
M  V30 13 1 13 12
M  V30 14 1 14 13
M  V30 15 1 15 14
M  V30 16 2 16 15
M  V30 17 1 17 16
M  V30 18 1 18 17
M  V30 19 2 19 17
M  V30 20 2 20 14
M  V30 21 1 20 19
M  V30 22 1 21 8
M  V30 23 1 21 10
M  V30 24 2 22 3
M  V30 25 1 23 22
M  V30 26 1 24 2
M  V30 27 2 24 23
M  V30 28 1 25 24
M  V30 29 2 26 25
M  V30 30 1 27 26
M  V30 31 2 28 27
M  V30 32 1 29 28
M  V30 33 1 30 25
M  V30 34 2 30 29
M  V30 35 1 31 1
M  V30 36 1 32 1
M  V30 37 1 33 1
M  V30 38 1 34 5
M  V30 39 1 35 5
M  V30 40 1 36 6
M  V30 41 1 37 6
M  V30 42 1 38 7
M  V30 43 1 39 7
M  V30 44 1 40 9
M  V30 45 1 41 9
M  V30 46 1 42 11
M  V30 47 1 43 11
M  V30 48 1 44 12
M  V30 49 1 45 12
M  V30 50 1 46 15
M  V30 51 1 47 16
M  V30 52 1 48 19
M  V30 53 1 49 20
M  V30 54 1 50 21
M  V30 55 1 51 21
M  V30 56 1 52 26
M  V30 57 1 53 27
M  V30 58 1 54 28
M  V30 59 1 55 29
M  V30 60 1 56 30
M  V30 61 1 8 57 CFG=3
M  V30 END BOND
M  V30 END CTAB
M  END
>  <b_m_subgroup_collapsed>  (285) 
0

>  <r_i_docking_score>  (285) 
-8.6211280299643196

>  <s_m_subgroup_title>  (285) 
glide-dock_SP_D22_pv

>  <s_m_subgroupid>  (285) 
glide-dock_SP_D22_pv

>  <Molecule ChEMBL ID>  (285) 
CHEMBL4098399

>  <Standard Type>  (285) 
Ki

>  <Standard Value>  (285) 
109574.0

>  <label>  (285) 
0

$$$$
CHEMBL476839
     RDKit          3D

  0  0  0  0  0  0  0  0  0  0999 V3000
M  V30 BEGIN CTAB
M  V30 COUNTS 62 64 0 0 1
M  V30 BEGIN ATOM
M  V30 1 C 9.499484 3.323493 -16.499342 0
M  V30 2 O 9.286160 4.388568 -15.580570 0
M  V30 3 C 10.381248 5.151991 -15.252842 0
M  V30 4 C 11.168389 5.772505 -16.264866 0
M  V30 5 O 10.794181 5.605072 -17.582497 0
M  V30 6 C 11.203989 6.550107 -18.567223 0
M  V30 7 C 9.972703 6.917911 -19.401039 0
M  V30 8 F 10.296183 7.810887 -20.332474 0
M  V30 9 C 12.286084 6.550947 -15.883510 0
M  V30 10 C 12.565880 6.771072 -14.527348 0
M  V30 11 C 11.760798 6.192785 -13.535415 0
M  V30 12 C 10.667655 5.371487 -13.878749 0
M  V30 13 C 9.843390 4.730673 -12.752905 0 CFG=2
M  V30 14 O 9.479006 3.392788 -13.047235 0
M  V30 15 C 8.609422 5.570697 -12.306410 0 CFG=1
M  V30 16 C 7.826686 4.954048 -11.127984 0
M  V30 17 C 8.587461 5.081609 -9.788417 0
M  V30 18 N 8.888979 6.496128 -9.442413 0 CFG=1 CHG=1
M  V30 19 C 9.570485 6.582810 -8.112778 0
M  V30 20 C 10.005562 8.006831 -7.682934 0
M  V30 21 C 10.671073 8.126188 -6.309294 0
M  V30 22 C 10.852182 9.413280 -5.763698 0
M  V30 23 C 11.390898 9.582320 -4.474843 0
M  V30 24 C 11.795812 8.460442 -3.724455 0
M  V30 25 C 12.297758 8.641067 -2.305654 0
M  V30 26 C 11.685810 7.172071 -4.287256 0
M  V30 27 C 11.114896 7.006376 -5.566843 0
M  V30 28 C 9.634654 7.162471 -10.543596 0
M  V30 29 C 8.920268 7.030978 -11.901837 0
M  V30 30 H 8.831616 2.498734 -16.248386 0
M  V30 31 H 9.264733 3.632442 -17.519447 0
M  V30 32 H 10.520082 2.945993 -16.465305 0
M  V30 33 H 11.624045 7.470654 -18.167816 0
M  V30 34 H 11.967937 6.095420 -19.197710 0
M  V30 35 H 9.557930 6.044647 -19.905651 0
M  V30 36 H 9.193029 7.358942 -18.777311 0
M  V30 37 H 12.944031 6.997541 -16.613289 0
M  V30 38 H 13.412522 7.376847 -14.242962 0
M  V30 39 H 12.000738 6.385845 -12.505837 0
M  V30 40 H 10.486020 4.636574 -11.887255 0
M  V30 41 H 9.300863 2.920724 -12.246680 0
M  V30 42 H 7.938814 5.609819 -13.166214 0
M  V30 43 H 6.870912 5.471153 -11.046521 0
M  V30 44 H 7.572142 3.913115 -11.327190 0
M  V30 45 H 9.516646 4.512240 -9.834757 0
M  V30 46 H 8.013615 4.629634 -8.981453 0
M  V30 47 H 8.892756 6.178127 -7.359651 0
M  V30 48 H 10.446046 5.932070 -8.138767 0
M  V30 49 H 10.725185 8.416595 -8.390637 0
M  V30 50 H 9.137736 8.667413 -7.695868 0
M  V30 51 H 10.538465 10.285123 -6.319214 0
M  V30 52 H 11.469463 10.571254 -4.049891 0
M  V30 53 H 12.258508 7.704913 -1.747291 0
M  V30 54 H 13.321517 9.007175 -2.296351 0
M  V30 55 H 11.686144 9.371694 -1.777727 0
M  V30 56 H 11.997609 6.302040 -3.725447 0
M  V30 57 H 11.016610 6.004901 -5.953004 0
M  V30 58 H 10.644842 6.753688 -10.601482 0
M  V30 59 H 9.733172 8.226988 -10.334295 0
M  V30 60 H 9.515714 7.544695 -12.646679 0
M  V30 61 H 7.983612 7.586477 -11.857074 0
M  V30 62 H 7.989017 6.970911 -9.377695 0
M  V30 END ATOM
M  V30 BEGIN BOND
M  V30 1 1 2 1
M  V30 2 1 3 2
M  V30 3 2 4 3
M  V30 4 1 5 4
M  V30 5 1 6 5
M  V30 6 1 7 6
M  V30 7 1 8 7
M  V30 8 1 9 4
M  V30 9 2 10 9
M  V30 10 1 11 10
M  V30 11 1 12 3
M  V30 12 2 12 11
M  V30 13 1 13 12
M  V30 14 1 14 13
M  V30 15 1 15 13
M  V30 16 1 16 15
M  V30 17 1 17 16
M  V30 18 1 18 17
M  V30 19 1 19 18
M  V30 20 1 20 19
M  V30 21 1 21 20
M  V30 22 1 22 21
M  V30 23 2 23 22
M  V30 24 1 24 23
M  V30 25 1 25 24
M  V30 26 2 26 24
M  V30 27 2 27 21
M  V30 28 1 27 26
M  V30 29 1 28 18
M  V30 30 1 29 15
M  V30 31 1 29 28
M  V30 32 1 30 1
M  V30 33 1 31 1
M  V30 34 1 32 1
M  V30 35 1 33 6
M  V30 36 1 34 6
M  V30 37 1 35 7
M  V30 38 1 36 7
M  V30 39 1 37 9
M  V30 40 1 38 10
M  V30 41 1 39 11
M  V30 42 1 13 40 CFG=1
M  V30 43 1 41 14
M  V30 44 1 15 42 CFG=3
M  V30 45 1 43 16
M  V30 46 1 44 16
M  V30 47 1 45 17
M  V30 48 1 46 17
M  V30 49 1 47 19
M  V30 50 1 48 19
M  V30 51 1 49 20
M  V30 52 1 50 20
M  V30 53 1 51 22
M  V30 54 1 52 23
M  V30 55 1 53 25
M  V30 56 1 54 25
M  V30 57 1 55 25
M  V30 58 1 56 26
M  V30 59 1 57 27
M  V30 60 1 58 28
M  V30 61 1 59 28
M  V30 62 1 60 29
M  V30 63 1 61 29
M  V30 64 1 18 62 CFG=1
M  V30 END BOND
M  V30 END CTAB
M  END
>  <b_m_subgroup_collapsed>  (286) 
0

>  <r_i_docking_score>  (286) 
-8.6208873787885096

>  <s_m_subgroup_title>  (286) 
glide-dock_SP_D22_pv

>  <s_m_subgroupid>  (286) 
glide-dock_SP_D22_pv

>  <Molecule ChEMBL ID>  (286) 
CHEMBL476839

>  <Standard Type>  (286) 
Ki

>  <Standard Value>  (286) 
10000.0

>  <label>  (286) 
0

$$$$
CHEMBL4783987
     RDKit          3D

  0  0  0  0  0  0  0  0  0  0999 V3000
M  V30 BEGIN CTAB
M  V30 COUNTS 58 61 0 0 1
M  V30 BEGIN ATOM
M  V30 1 F 12.731483 8.572382 -1.046889 0
M  V30 2 C 12.301402 8.420894 -2.314791 0
M  V30 3 C 12.085889 9.560123 -3.107344 0
M  V30 4 C 11.721992 9.416807 -4.456415 0
M  V30 5 C 11.542771 8.132027 -5.002341 0
M  V30 6 C 11.242201 7.972811 -6.474629 0
M  V30 7 C 9.936133 8.664617 -6.897529 0
M  V30 8 C 9.558578 8.394109 -8.356752 0
M  V30 9 C 9.289149 6.898505 -8.614440 0
M  V30 10 N 8.885872 6.579602 -9.999375 0 CHG=1
M  V30 11 C 8.471288 5.156835 -10.097596 0
M  V30 12 C 7.966036 4.821733 -11.501373 0
M  V30 13 N 9.022524 5.142537 -12.446402 0
M  V30 14 C 9.429878 4.214156 -13.418779 0
M  V30 15 C 10.768364 4.166743 -13.856743 0
M  V30 16 C 11.133117 3.207785 -14.818359 0
M  V30 17 C 10.163961 2.317174 -15.331214 0
M  V30 18 C 10.499837 1.304907 -16.353745 0
M  V30 19 C 11.527191 1.539927 -17.297981 0
M  V30 20 C 11.846408 0.581791 -18.278912 0
M  V30 21 C 11.133615 -0.627848 -18.339735 0
M  V30 22 C 10.102534 -0.876096 -17.416359 0
M  V30 23 C 9.797685 0.079861 -16.426474 0
M  V30 24 C 8.855468 2.455546 -14.820358 0
M  V30 25 N 8.492421 3.370691 -13.895344 0
M  V30 26 C 9.511669 6.513028 -12.439121 0
M  V30 27 C 9.899731 6.961942 -11.020482 0
M  V30 28 C 11.689260 6.989032 -4.185942 0
M  V30 29 C 12.086329 7.134787 -2.842958 0
M  V30 30 H 12.225870 10.540545 -2.681926 0
M  V30 31 H 11.601045 10.296944 -5.072255 0
M  V30 32 H 11.214291 6.903089 -6.673589 0
M  V30 33 H 12.082583 8.368466 -7.047234 0
M  V30 34 H 10.060951 9.737142 -6.759774 0
M  V30 35 H 9.117451 8.353767 -6.247972 0
M  V30 36 H 10.361502 8.766481 -8.992465 0
M  V30 37 H 8.666594 8.968134 -8.609503 0
M  V30 38 H 8.503759 6.565207 -7.929867 0
M  V30 39 H 10.169415 6.293539 -8.403227 0
M  V30 40 H 7.690983 4.950485 -9.368895 0
M  V30 41 H 9.315090 4.514671 -9.842262 0
M  V30 42 H 7.075816 5.404675 -11.738369 0
M  V30 43 H 7.684520 3.772506 -11.546137 0
M  V30 44 H 11.521515 4.831816 -13.454692 0
M  V30 45 H 12.160601 3.159283 -15.147917 0
M  V30 46 H 12.080631 2.466651 -17.288013 0
M  V30 47 H 12.636968 0.780443 -18.988869 0
M  V30 48 H 11.374856 -1.365134 -19.090307 0
M  V30 49 H 9.555347 -1.805593 -17.459621 0
M  V30 50 H 9.011202 -0.148765 -15.720037 0
M  V30 51 H 8.053955 1.820720 -15.170444 0
M  V30 52 H 10.359674 6.645718 -13.108280 0
M  V30 53 H 8.701252 7.142538 -12.803255 0
M  V30 54 H 10.031404 8.045026 -11.036938 0
M  V30 55 H 10.865516 6.537025 -10.748205 0
M  V30 56 H 11.545015 5.998540 -4.590767 0
M  V30 57 H 12.235412 6.263727 -2.224383 0
M  V30 58 H 8.031600 7.115023 -10.184968 0
M  V30 END ATOM
M  V30 BEGIN BOND
M  V30 1 1 2 1
M  V30 2 1 3 2
M  V30 3 2 4 3
M  V30 4 1 5 4
M  V30 5 1 6 5
M  V30 6 1 7 6
M  V30 7 1 8 7
M  V30 8 1 9 8
M  V30 9 1 10 9
M  V30 10 1 11 10
M  V30 11 1 12 11
M  V30 12 1 13 12
M  V30 13 1 14 13
M  V30 14 1 15 14
M  V30 15 2 16 15
M  V30 16 1 17 16
M  V30 17 1 18 17
M  V30 18 2 19 18
M  V30 19 1 20 19
M  V30 20 2 21 20
M  V30 21 1 22 21
M  V30 22 1 23 18
M  V30 23 2 23 22
M  V30 24 2 24 17
M  V30 25 2 25 14
M  V30 26 1 25 24
M  V30 27 1 26 13
M  V30 28 1 27 10
M  V30 29 1 27 26
M  V30 30 2 28 5
M  V30 31 2 29 2
M  V30 32 1 29 28
M  V30 33 1 30 3
M  V30 34 1 31 4
M  V30 35 1 32 6
M  V30 36 1 33 6
M  V30 37 1 34 7
M  V30 38 1 35 7
M  V30 39 1 36 8
M  V30 40 1 37 8
M  V30 41 1 38 9
M  V30 42 1 39 9
M  V30 43 1 40 11
M  V30 44 1 41 11
M  V30 45 1 42 12
M  V30 46 1 43 12
M  V30 47 1 44 15
M  V30 48 1 45 16
M  V30 49 1 46 19
M  V30 50 1 47 20
M  V30 51 1 48 21
M  V30 52 1 49 22
M  V30 53 1 50 23
M  V30 54 1 51 24
M  V30 55 1 52 26
M  V30 56 1 53 26
M  V30 57 1 54 27
M  V30 58 1 55 27
M  V30 59 1 56 28
M  V30 60 1 57 29
M  V30 61 1 58 10
M  V30 END BOND
M  V30 END CTAB
M  END
>  <b_m_subgroup_collapsed>  (287) 
0

>  <r_i_docking_score>  (287) 
-8.6128256622980306

>  <s_m_subgroup_title>  (287) 
glide-dock_SP_D22_pv

>  <s_m_subgroupid>  (287) 
glide-dock_SP_D22_pv

>  <Molecule ChEMBL ID>  (287) 
CHEMBL4783987

>  <Standard Type>  (287) 
Ki

>  <Standard Value>  (287) 
10000.0

>  <label>  (287) 
0

$$$$
CHEMBL5790487
     RDKit          3D

  0  0  0  0  0  0  0  0  0  0999 V3000
M  V30 BEGIN CTAB
M  V30 COUNTS 57 61 0 0 1
M  V30 BEGIN ATOM
M  V30 1 C 10.119151 -0.680992 -16.789503 0
M  V30 2 O 8.909069 0.040138 -16.632965 0
M  V30 3 C 8.919495 1.143374 -15.809213 0
M  V30 4 C 7.658707 1.696778 -15.476604 0
M  V30 5 C 7.546764 2.832784 -14.645130 0
M  V30 6 C 8.724367 3.436296 -14.158640 0
M  V30 7 C 8.916515 4.556465 -13.322450 0
M  V30 8 C 7.879948 5.431661 -12.652468 0 CFG=1
M  V30 9 C 7.284277 4.771840 -11.414790 0
M  V30 10 C 8.271206 4.783393 -10.242315 0
M  V30 11 N 8.632562 6.172216 -9.858822 0 CFG=1 CHG=1
M  V30 12 C 9.502139 6.155872 -8.658102 0
M  V30 13 C 9.892808 7.549416 -8.117826 0
M  V30 14 N 10.698084 7.544973 -6.878619 0
M  V30 15 C 11.530081 6.381126 -6.559257 0
M  V30 16 C 11.685901 6.171535 -5.047607 0
M  V30 17 C 11.885874 7.422728 -4.261370 0
M  V30 18 C 12.396900 7.373026 -2.951880 0
M  V30 19 C 12.486063 8.572575 -2.230750 0
M  V30 20 C 12.065738 9.753939 -2.864191 0
M  V30 21 N 11.564684 9.791566 -4.114293 0
M  V30 22 C 11.479098 8.646389 -4.817600 0
M  V30 23 C 10.863827 8.702290 -6.195595 0
M  V30 24 O 10.486037 9.773095 -6.646863 0
M  V30 25 C 9.225539 6.912019 -10.999539 0
M  V30 26 C 8.343316 6.848504 -12.256824 0
M  V30 27 N 10.222723 4.689408 -13.091904 0
M  V30 28 O 10.891113 3.675542 -13.836338 0
M  V30 29 C 9.960852 2.879401 -14.482788 0
M  V30 30 C 10.100682 1.744064 -15.295457 0
M  V30 31 H 9.939723 -1.559616 -17.409088 0
M  V30 32 H 10.888049 -0.082440 -17.279364 0
M  V30 33 H 10.486009 -1.027651 -15.823239 0
M  V30 34 H 6.761744 1.234945 -15.863267 0
M  V30 35 H 6.575287 3.234799 -14.395912 0
M  V30 36 H 7.069023 5.554851 -13.369802 0
M  V30 37 H 6.397398 5.337605 -11.129807 0
M  V30 38 H 6.946248 3.760675 -11.635675 0
M  V30 39 H 9.173820 4.227807 -10.503478 0
M  V30 40 H 7.837773 4.262403 -9.389440 0
M  V30 41 H 10.397155 5.596090 -8.933722 0
M  V30 42 H 8.992253 5.599998 -7.869096 0
M  V30 43 H 8.973944 8.117056 -7.949192 0
M  V30 44 H 10.470797 8.097836 -8.861829 0
M  V30 45 H 12.485992 6.553032 -7.046848 0
M  V30 46 H 11.184848 5.445621 -6.983233 0
M  V30 47 H 12.485583 5.462715 -4.847067 0
M  V30 48 H 10.758744 5.772120 -4.647637 0
M  V30 49 H 12.693115 6.434888 -2.504225 0
M  V30 50 H 12.858286 8.593965 -1.217651 0
M  V30 51 H 12.086048 10.694598 -2.339108 0
M  V30 52 H 9.346760 7.962837 -10.739197 0
M  V30 53 H 10.222453 6.524733 -11.209657 0
M  V30 54 H 7.462111 7.470653 -12.117793 0
M  V30 55 H 8.886083 7.323635 -13.046824 0
M  V30 56 H 11.088845 1.366422 -15.509348 0
M  V30 57 H 7.768996 6.666982 -9.634902 0
M  V30 END ATOM
M  V30 BEGIN BOND
M  V30 1 1 2 1
M  V30 2 1 3 2
M  V30 3 1 4 3
M  V30 4 2 5 4
M  V30 5 1 6 5
M  V30 6 1 7 6
M  V30 7 1 8 7
M  V30 8 1 9 8
M  V30 9 1 10 9
M  V30 10 1 11 10
M  V30 11 1 12 11
M  V30 12 1 13 12
M  V30 13 1 14 13
M  V30 14 1 15 14
M  V30 15 1 16 15
M  V30 16 1 17 16
M  V30 17 2 18 17
M  V30 18 1 19 18
M  V30 19 2 20 19
M  V30 20 1 21 20
M  V30 21 1 22 17
M  V30 22 2 22 21
M  V30 23 1 23 14
M  V30 24 1 23 22
M  V30 25 2 24 23
M  V30 26 1 25 11
M  V30 27 1 26 8
M  V30 28 1 26 25
M  V30 29 2 27 7
M  V30 30 1 28 27
M  V30 31 2 29 6
M  V30 32 1 29 28
M  V30 33 2 30 3
M  V30 34 1 30 29
M  V30 35 1 31 1
M  V30 36 1 32 1
M  V30 37 1 33 1
M  V30 38 1 34 4
M  V30 39 1 35 5
M  V30 40 1 8 36 CFG=3
M  V30 41 1 37 9
M  V30 42 1 38 9
M  V30 43 1 39 10
M  V30 44 1 40 10
M  V30 45 1 41 12
M  V30 46 1 42 12
M  V30 47 1 43 13
M  V30 48 1 44 13
M  V30 49 1 45 15
M  V30 50 1 46 15
M  V30 51 1 47 16
M  V30 52 1 48 16
M  V30 53 1 49 18
M  V30 54 1 50 19
M  V30 55 1 51 20
M  V30 56 1 52 25
M  V30 57 1 53 25
M  V30 58 1 54 26
M  V30 59 1 55 26
M  V30 60 1 56 30
M  V30 61 1 11 57 CFG=1
M  V30 END BOND
M  V30 END CTAB
M  END
>  <b_m_subgroup_collapsed>  (288) 
0

>  <r_i_docking_score>  (288) 
-8.6100972596565999

>  <s_m_subgroup_title>  (288) 
glide-dock_SP_D22_pv

>  <s_m_subgroupid>  (288) 
glide-dock_SP_D22_pv

>  <Molecule ChEMBL ID>  (288) 
CHEMBL5790487

>  <Standard Type>  (288) 
Ki

>  <Standard Value>  (288) 
10000.0

>  <label>  (288) 
0

$$$$
CHEMBL197408
     RDKit          3D

  0  0  0  0  0  0  0  0  0  0999 V3000
M  V30 BEGIN CTAB
M  V30 COUNTS 72 76 0 0 1
M  V30 BEGIN ATOM
M  V30 1 C 10.431049 -0.911970 -18.170630 0
M  V30 2 O 9.446786 -0.598413 -17.197590 0
M  V30 3 C 9.647886 0.494637 -16.375109 0
M  V30 4 C 10.885633 1.174526 -16.286037 0
M  V30 5 C 11.039989 2.273735 -15.424729 0
M  V30 6 C 9.962860 2.714512 -14.625656 0
M  V30 7 N 10.057606 3.808414 -13.724548 0
M  V30 8 C 10.805065 4.923702 -13.848315 0
M  V30 9 O 11.628662 5.084513 -14.749669 0
M  V30 10 N 10.595731 5.844678 -12.874296 0
M  V30 11 C 9.490727 5.766324 -11.893643 0
M  V30 12 C 9.248659 7.091952 -11.151729 0
M  V30 13 N 10.485078 7.611536 -10.584373 0
M  V30 14 C 10.650941 7.756629 -9.194118 0
M  V30 15 C 9.966936 6.946108 -8.257872 0
M  V30 16 C 10.217728 7.076850 -6.878714 0
M  V30 17 C 11.147760 8.024071 -6.397646 0
M  V30 18 C 11.493233 8.115332 -4.968513 0
M  V30 19 C 11.686565 6.946711 -4.197228 0
M  V30 20 C 12.081749 7.021544 -2.847942 0
M  V30 21 C 12.286390 8.276421 -2.247135 0
M  V30 22 C 12.085182 9.446676 -2.999907 0
M  V30 23 C 11.688440 9.368882 -4.346404 0
M  V30 24 C 11.795387 8.858065 -7.331855 0
M  V30 25 C 11.557335 8.721929 -8.708607 0
M  V30 26 C 11.691263 7.585951 -11.399711 0
M  V30 27 C 11.438517 7.055173 -12.823333 0
M  V30 28 C 8.735705 2.025254 -14.689746 0
M  V30 29 C 8.564344 0.935486 -15.572989 0
M  V30 30 N 7.314202 0.303736 -15.693343 0
M  V30 31 C 6.625471 0.490562 -16.964931 0
M  V30 32 C 5.614124 -0.643809 -17.185276 0
M  V30 33 N 4.701083 -0.774439 -16.023376 0 CHG=1
M  V30 34 C 3.685896 -1.821188 -16.244450 0
M  V30 35 C 5.432667 -0.954898 -14.740170 0
M  V30 36 C 6.462885 0.168615 -14.518874 0
M  V30 37 H 10.079503 -1.747071 -18.776550 0
M  V30 38 H 10.613544 -0.066287 -18.837694 0
M  V30 39 H 11.369244 -1.218697 -17.714512 0
M  V30 40 H 11.744118 0.867838 -16.863432 0
M  V30 41 H 12.005383 2.756423 -15.377490 0
M  V30 42 H 9.388621 3.819909 -12.971771 0
M  V30 43 H 9.720251 4.985693 -11.164666 0
M  V30 44 H 8.559215 5.482047 -12.384945 0
M  V30 45 H 8.486226 6.970908 -10.388886 0
M  V30 46 H 8.852616 7.837872 -11.842133 0
M  V30 47 H 9.269851 6.186724 -8.580412 0
M  V30 48 H 9.699731 6.428740 -6.186802 0
M  V30 49 H 11.547357 5.973083 -4.646171 0
M  V30 50 H 12.227653 6.115443 -2.275564 0
M  V30 51 H 12.588821 8.345636 -1.213063 0
M  V30 52 H 12.217164 10.414592 -2.541456 0
M  V30 53 H 11.542823 10.280013 -4.907824 0
M  V30 54 H 12.523476 9.584652 -6.999617 0
M  V30 55 H 12.087481 9.371946 -9.391612 0
M  V30 56 H 12.125374 8.581846 -11.447023 0
M  V30 57 H 12.436058 6.972649 -10.896888 0
M  V30 58 H 12.406976 6.908734 -13.304224 0
M  V30 59 H 10.923711 7.817864 -13.397582 0
M  V30 60 H 7.912031 2.368313 -14.083338 0
M  V30 61 H 6.114542 1.451821 -16.953588 0
M  V30 62 H 7.326444 0.524302 -17.799158 0
M  V30 63 H 5.042185 -0.452591 -18.093956 0
M  V30 64 H 6.149611 -1.583292 -17.334272 0
M  V30 65 H 4.169513 -2.794680 -16.300831 0
M  V30 66 H 2.957325 -1.833354 -15.434525 0
M  V30 67 H 3.146472 -1.649527 -17.176170 0
M  V30 68 H 4.726003 -0.977736 -13.908906 0
M  V30 69 H 5.943531 -1.919079 -14.746932 0
M  V30 70 H 7.068309 -0.050006 -13.636465 0
M  V30 71 H 5.950847 1.112823 -14.332361 0
M  V30 72 H 4.207863 0.103180 -15.951394 0
M  V30 END ATOM
M  V30 BEGIN BOND
M  V30 1 1 2 1
M  V30 2 1 3 2
M  V30 3 1 4 3
M  V30 4 2 5 4
M  V30 5 1 6 5
M  V30 6 1 7 6
M  V30 7 1 8 7
M  V30 8 2 9 8
M  V30 9 1 10 8
M  V30 10 1 11 10
M  V30 11 1 12 11
M  V30 12 1 13 12
M  V30 13 1 14 13
M  V30 14 1 15 14
M  V30 15 2 16 15
M  V30 16 1 17 16
M  V30 17 1 18 17
M  V30 18 2 19 18
M  V30 19 1 20 19
M  V30 20 2 21 20
M  V30 21 1 22 21
M  V30 22 1 23 18
M  V30 23 2 23 22
M  V30 24 2 24 17
M  V30 25 2 25 14
M  V30 26 1 25 24
M  V30 27 1 26 13
M  V30 28 1 27 10
M  V30 29 1 27 26
M  V30 30 2 28 6
M  V30 31 2 29 3
M  V30 32 1 29 28
M  V30 33 1 30 29
M  V30 34 1 31 30
M  V30 35 1 32 31
M  V30 36 1 33 32
M  V30 37 1 34 33
M  V30 38 1 35 33
M  V30 39 1 36 30
M  V30 40 1 36 35
M  V30 41 1 37 1
M  V30 42 1 38 1
M  V30 43 1 39 1
M  V30 44 1 40 4
M  V30 45 1 41 5
M  V30 46 1 42 7
M  V30 47 1 43 11
M  V30 48 1 44 11
M  V30 49 1 45 12
M  V30 50 1 46 12
M  V30 51 1 47 15
M  V30 52 1 48 16
M  V30 53 1 49 19
M  V30 54 1 50 20
M  V30 55 1 51 21
M  V30 56 1 52 22
M  V30 57 1 53 23
M  V30 58 1 54 24
M  V30 59 1 55 25
M  V30 60 1 56 26
M  V30 61 1 57 26
M  V30 62 1 58 27
M  V30 63 1 59 27
M  V30 64 1 60 28
M  V30 65 1 61 31
M  V30 66 1 62 31
M  V30 67 1 63 32
M  V30 68 1 64 32
M  V30 69 1 65 34
M  V30 70 1 66 34
M  V30 71 1 67 34
M  V30 72 1 68 35
M  V30 73 1 69 35
M  V30 74 1 70 36
M  V30 75 1 71 36
M  V30 76 1 72 33
M  V30 END BOND
M  V30 END CTAB
M  END
>  <b_m_subgroup_collapsed>  (289) 
0

>  <r_i_docking_score>  (289) 
-8.6069860885841099

>  <s_m_subgroup_title>  (289) 
glide-dock_SP_D22_pv

>  <s_m_subgroupid>  (289) 
glide-dock_SP_D22_pv

>  <Molecule ChEMBL ID>  (289) 
CHEMBL197408

>  <Standard Type>  (289) 
Ki

>  <Standard Value>  (289) 
10000.0

>  <label>  (289) 
0

$$$$
CHEMBL4755062
     RDKit          3D

  0  0  0  0  0  0  0  0  0  0999 V3000
M  V30 BEGIN CTAB
M  V30 COUNTS 60 63 0 0 1
M  V30 BEGIN ATOM
M  V30 1 C 3.731481 -1.716212 -16.407991 0
M  V30 2 C 5.063591 -1.824483 -15.656061 0
M  V30 3 C 5.313118 -0.610337 -14.765452 0
M  V30 4 O 4.486664 -0.289358 -13.910202 0
M  V30 5 N 6.484844 0.010116 -14.979079 0
M  V30 6 C 6.944911 1.267743 -14.509973 0
M  V30 7 C 8.289989 1.590452 -14.783048 0
M  V30 8 C 8.818739 2.833603 -14.395608 0
M  V30 9 C 8.006750 3.781319 -13.730290 0
M  V30 10 O 8.449713 5.013372 -13.317059 0
M  V30 11 C 9.851113 5.214887 -13.217525 0
M  V30 12 C 10.086720 6.390142 -12.266555 0
M  V30 13 C 9.573497 6.073770 -10.849829 0
M  V30 14 N 9.653927 7.225169 -9.920213 0 CFG=2 CHG=1
M  V30 15 C 11.038659 7.693562 -9.634200 0
M  V30 16 C 11.053679 8.934548 -8.722303 0
M  V30 17 C 10.203812 8.768697 -7.446104 0 CFG=2
M  V30 18 C 10.872659 7.987978 -6.342782 0
M  V30 19 N 11.147223 6.693169 -6.478174 0
M  V30 20 O 11.685648 6.237961 -5.247338 0
M  V30 21 C 11.786365 7.295026 -4.362926 0
M  V30 22 C 12.302728 7.368006 -3.063586 0
M  V30 23 C 12.331565 8.638052 -2.452897 0
M  V30 24 F 12.860400 8.770659 -1.218560 0
M  V30 25 C 11.823801 9.771011 -3.131718 0
M  V30 26 C 11.286555 9.665676 -4.433876 0
M  V30 27 C 11.288836 8.399520 -5.057759 0
M  V30 28 C 8.815018 8.206608 -7.795523 0
M  V30 29 C 8.905493 6.942879 -8.674717 0
M  V30 30 C 6.658689 3.463686 -13.467331 0
M  V30 31 C 6.129096 2.215293 -13.846683 0
M  V30 32 H 3.644638 -2.515810 -17.143625 0
M  V30 33 H 2.886030 -1.797303 -15.728121 0
M  V30 34 H 3.645074 -0.768460 -16.942112 0
M  V30 35 H 5.870948 -1.928218 -16.382704 0
M  V30 36 H 5.088481 -2.725549 -15.047881 0
M  V30 37 H 7.110717 -0.472939 -15.610847 0
M  V30 38 H 8.925397 0.882253 -15.298988 0
M  V30 39 H 9.853600 3.042504 -14.629361 0
M  V30 40 H 10.358778 4.336399 -12.818075 0
M  V30 41 H 10.262195 5.427824 -14.202367 0
M  V30 42 H 11.154917 6.608085 -12.251442 0
M  V30 43 H 9.586418 7.279717 -12.646116 0
M  V30 44 H 8.524258 5.786238 -10.931136 0
M  V30 45 H 10.086077 5.209151 -10.427670 0
M  V30 46 H 11.615051 6.895299 -9.173028 0
M  V30 47 H 11.551739 7.954064 -10.558827 0
M  V30 48 H 12.076923 9.203576 -8.460258 0
M  V30 49 H 10.659871 9.771740 -9.298582 0
M  V30 50 H 10.049331 9.772247 -7.055802 0
M  V30 51 H 12.688227 6.493538 -2.565265 0
M  V30 52 H 11.859487 10.736976 -2.648181 0
M  V30 53 H 10.903126 10.540545 -4.939997 0
M  V30 54 H 8.237732 8.005793 -6.891829 0
M  V30 55 H 8.259576 8.971468 -8.338619 0
M  V30 56 H 7.919115 6.572341 -8.946204 0
M  V30 57 H 9.362852 6.110049 -8.142203 0
M  V30 58 H 6.029033 4.179509 -12.963964 0
M  V30 59 H 5.091043 2.019314 -13.634442 0
M  V30 60 H 9.151629 7.979758 -10.368999 0
M  V30 END ATOM
M  V30 BEGIN BOND
M  V30 1 1 2 1
M  V30 2 1 3 2
M  V30 3 2 4 3
M  V30 4 1 5 3
M  V30 5 1 6 5
M  V30 6 1 7 6
M  V30 7 2 8 7
M  V30 8 1 9 8
M  V30 9 1 10 9
M  V30 10 1 11 10
M  V30 11 1 12 11
M  V30 12 1 13 12
M  V30 13 1 14 13
M  V30 14 1 15 14
M  V30 15 1 16 15
M  V30 16 1 17 16
M  V30 17 1 18 17
M  V30 18 2 19 18
M  V30 19 1 20 19
M  V30 20 1 21 20
M  V30 21 1 22 21
M  V30 22 2 23 22
M  V30 23 1 24 23
M  V30 24 1 25 23
M  V30 25 2 26 25
M  V30 26 1 27 18
M  V30 27 2 27 21
M  V30 28 1 27 26
M  V30 29 1 28 17
M  V30 30 1 29 14
M  V30 31 1 29 28
M  V30 32 2 30 9
M  V30 33 2 31 6
M  V30 34 1 31 30
M  V30 35 1 32 1
M  V30 36 1 33 1
M  V30 37 1 34 1
M  V30 38 1 35 2
M  V30 39 1 36 2
M  V30 40 1 37 5
M  V30 41 1 38 7
M  V30 42 1 39 8
M  V30 43 1 40 11
M  V30 44 1 41 11
M  V30 45 1 42 12
M  V30 46 1 43 12
M  V30 47 1 44 13
M  V30 48 1 45 13
M  V30 49 1 46 15
M  V30 50 1 47 15
M  V30 51 1 48 16
M  V30 52 1 49 16
M  V30 53 1 17 50 CFG=1
M  V30 54 1 51 22
M  V30 55 1 52 25
M  V30 56 1 53 26
M  V30 57 1 54 28
M  V30 58 1 55 28
M  V30 59 1 56 29
M  V30 60 1 57 29
M  V30 61 1 58 30
M  V30 62 1 59 31
M  V30 63 1 14 60 CFG=3
M  V30 END BOND
M  V30 END CTAB
M  END
>  <b_m_subgroup_collapsed>  (290) 
0

>  <r_i_docking_score>  (290) 
-8.6041904315398092

>  <s_m_subgroup_title>  (290) 
glide-dock_SP_D22_pv

>  <s_m_subgroupid>  (290) 
glide-dock_SP_D22_pv

>  <Molecule ChEMBL ID>  (290) 
CHEMBL4755062

>  <Standard Type>  (290) 
Ki

>  <Standard Value>  (290) 
10000.0

>  <label>  (290) 
0

$$$$
CHEMBL6026858
     RDKit          3D

  0  0  0  0  0  0  0  0  0  0999 V3000
M  V30 BEGIN CTAB
M  V30 COUNTS 56 58 0 0 1
M  V30 BEGIN ATOM
M  V30 1 C 5.627474 2.572714 -12.347295 0
M  V30 2 C 5.969543 4.064938 -12.521433 0
M  V30 3 C 5.194881 4.654871 -13.701689 0
M  V30 4 N 7.424593 4.360418 -12.622549 0
M  V30 5 C 7.851720 5.469806 -11.743937 0
M  V30 6 C 8.403766 4.974308 -10.390918 0
M  V30 7 N 8.707001 6.094144 -9.459421 0 CFG=2 CHG=1
M  V30 8 C 10.043379 6.689346 -9.743995 0
M  V30 9 C 10.426207 7.800568 -8.755854 0
M  V30 10 C 10.337313 7.291799 -7.307464 0 CFG=1
M  V30 11 C 10.752234 8.313738 -6.286344 0
M  V30 12 N 10.492187 9.605407 -6.458702 0
M  V30 13 O 10.949922 10.293573 -5.300753 0
M  V30 14 C 11.458051 9.380739 -4.393238 0
M  V30 15 C 11.991363 9.539854 -3.108493 0
M  V30 16 C 12.374054 8.378309 -2.410735 0
M  V30 17 F 12.886024 8.487834 -1.165073 0
M  V30 18 C 12.216654 7.101832 -3.002165 0
M  V30 19 C 11.686269 6.971625 -4.306709 0
M  V30 20 C 11.315800 8.137277 -5.007885 0
M  V30 21 C 8.920249 6.786039 -7.047218 0
M  V30 22 C 8.561419 5.673861 -8.038214 0
M  V30 23 C 8.240993 3.773043 -13.545433 0
M  V30 24 O 7.815423 2.974339 -14.382307 0
M  V30 25 C 9.758004 4.077270 -13.553432 0 CFG=1
M  V30 26 C 10.589777 2.987886 -14.255295 0
M  V30 27 O 10.007016 5.286843 -14.239230 0
M  V30 28 H 4.551763 2.432799 -12.245498 0
M  V30 29 H 5.934464 1.954253 -13.188457 0
M  V30 30 H 6.083692 2.179221 -11.447405 0
M  V30 31 H 5.572744 4.539645 -11.622415 0
M  V30 32 H 4.133773 4.429319 -13.621653 0
M  V30 33 H 5.285389 5.738645 -13.730176 0
M  V30 34 H 5.543736 4.245060 -14.646813 0
M  V30 35 H 8.581169 6.101955 -12.243768 0
M  V30 36 H 7.012958 6.141449 -11.563949 0
M  V30 37 H 7.686069 4.297482 -9.938605 0
M  V30 38 H 9.295673 4.362628 -10.526058 0
M  V30 39 H 10.797988 5.904205 -9.690689 0
M  V30 40 H 10.068035 7.084888 -10.759687 0
M  V30 41 H 11.438054 8.147677 -8.968204 0
M  V30 42 H 9.764528 8.656866 -8.899000 0
M  V30 43 H 11.017040 6.442653 -7.212740 0
M  V30 44 H 12.086537 10.518076 -2.659283 0
M  V30 45 H 12.502721 6.217486 -2.450431 0
M  V30 46 H 11.568646 5.993805 -4.751732 0
M  V30 47 H 8.863617 6.393330 -6.032996 0
M  V30 48 H 8.199242 7.603281 -7.107186 0
M  V30 49 H 7.535194 5.371511 -7.846767 0
M  V30 50 H 9.191616 4.803896 -7.847867 0
M  V30 51 H 10.122540 4.170060 -12.532100 0
M  V30 52 H 10.396082 1.997831 -13.842626 0
M  V30 53 H 10.366364 2.941657 -15.321877 0
M  V30 54 H 11.657306 3.186776 -14.152353 0
M  V30 55 H 9.508654 5.981044 -13.836652 0
M  V30 56 H 7.991181 6.805093 -9.612345 0
M  V30 END ATOM
M  V30 BEGIN BOND
M  V30 1 1 2 1
M  V30 2 1 3 2
M  V30 3 1 4 2
M  V30 4 1 5 4
M  V30 5 1 6 5
M  V30 6 1 7 6
M  V30 7 1 8 7
M  V30 8 1 9 8
M  V30 9 1 10 9
M  V30 10 1 11 10
M  V30 11 2 12 11
M  V30 12 1 13 12
M  V30 13 1 14 13
M  V30 14 1 15 14
M  V30 15 2 16 15
M  V30 16 1 17 16
M  V30 17 1 18 16
M  V30 18 2 19 18
M  V30 19 1 20 11
M  V30 20 2 20 14
M  V30 21 1 20 19
M  V30 22 1 21 10
M  V30 23 1 22 7
M  V30 24 1 22 21
M  V30 25 1 23 4
M  V30 26 2 24 23
M  V30 27 1 25 23
M  V30 28 1 26 25
M  V30 29 1 27 25
M  V30 30 1 28 1
M  V30 31 1 29 1
M  V30 32 1 30 1
M  V30 33 1 31 2
M  V30 34 1 32 3
M  V30 35 1 33 3
M  V30 36 1 34 3
M  V30 37 1 35 5
M  V30 38 1 36 5
M  V30 39 1 37 6
M  V30 40 1 38 6
M  V30 41 1 39 8
M  V30 42 1 40 8
M  V30 43 1 41 9
M  V30 44 1 42 9
M  V30 45 1 10 43 CFG=3
M  V30 46 1 44 15
M  V30 47 1 45 18
M  V30 48 1 46 19
M  V30 49 1 47 21
M  V30 50 1 48 21
M  V30 51 1 49 22
M  V30 52 1 50 22
M  V30 53 1 25 51 CFG=1
M  V30 54 1 52 26
M  V30 55 1 53 26
M  V30 56 1 54 26
M  V30 57 1 55 27
M  V30 58 1 7 56 CFG=3
M  V30 END BOND
M  V30 END CTAB
M  END
>  <b_m_subgroup_collapsed>  (291) 
0

>  <r_i_docking_score>  (291) 
-8.6028349153515702

>  <s_m_subgroup_title>  (291) 
glide-dock_SP_D22_pv

>  <s_m_subgroupid>  (291) 
glide-dock_SP_D22_pv

>  <Molecule ChEMBL ID>  (291) 
CHEMBL6026858

>  <Standard Type>  (291) 
Ki

>  <Standard Value>  (291) 
74.0

>  <label>  (291) 
1

$$$$
CHEMBL5830481
     RDKit          3D

  0  0  0  0  0  0  0  0  0  0999 V3000
M  V30 BEGIN CTAB
M  V30 COUNTS 59 63 0 0 1
M  V30 BEGIN ATOM
M  V30 1 C 12.159089 4.212467 -16.482462 0
M  V30 2 N 12.147570 5.272906 -15.485632 0
M  V30 3 C 11.472716 5.318381 -14.322513 0
M  V30 4 S 10.420118 4.005386 -13.797841 0
M  V30 5 C 8.808598 4.861167 -13.814761 0
M  V30 6 C 8.606104 5.850262 -12.650484 0
M  V30 7 C 8.741488 5.194422 -11.267603 0
M  V30 8 N 8.669639 6.172324 -10.159019 0 CFG=1 CHG=1
M  V30 9 C 8.621620 5.526306 -8.840832 0
M  V30 10 C 8.943045 6.634152 -7.863855 0
M  V30 11 C 9.811250 7.614186 -8.629145 0 CFG=1
M  V30 12 C 9.647314 9.094070 -8.364356 0
M  V30 13 C 10.933234 8.422083 -7.982921 0 CFG=1
M  V30 14 C 11.286022 8.219285 -6.540518 0
M  V30 15 C 11.476533 6.908929 -6.064305 0
M  V30 16 C 11.686022 6.669561 -4.704307 0
M  V30 17 C 11.810765 7.733472 -3.803298 0
M  V30 18 C 12.035988 7.392207 -2.348467 0
M  V30 19 F 12.486036 8.432843 -1.647508 0
M  V30 20 F 10.886023 6.972324 -1.846865 0
M  V30 21 F 12.886022 6.376037 -2.246866 0
M  V30 22 C 11.686021 9.059535 -4.271041 0
M  V30 23 C 11.413165 9.299405 -5.635592 0
M  V30 24 F 11.270296 10.572323 -6.072937 0
M  V30 25 C 9.798358 7.127927 -10.069696 0
M  V30 26 N 11.686022 6.431848 -13.621605 0
M  V30 27 N 12.506970 7.203813 -14.406807 0
M  V30 28 C 12.776608 6.470194 -15.495145 0
M  V30 29 C 13.668268 6.934704 -16.554653 0
M  V30 30 C 14.709283 6.120529 -17.046860 0
M  V30 31 C 15.493423 6.665484 -18.077652 0
M  V30 32 N 15.264173 7.898334 -18.567749 0
M  V30 33 C 14.255538 8.583028 -18.029118 0
M  V30 34 N 13.455117 8.172326 -17.046867 0
M  V30 35 H 11.184799 3.726189 -16.531746 0
M  V30 36 H 12.380059 4.617274 -17.470057 0
M  V30 37 H 12.913509 3.470249 -16.220537 0
M  V30 38 H 8.695165 5.372326 -14.770792 0
M  V30 39 H 8.029204 4.099432 -13.779395 0
M  V30 40 H 9.303377 6.678120 -12.739383 0
M  V30 41 H 7.615258 6.298851 -12.735348 0
M  V30 42 H 7.942171 4.461823 -11.143293 0
M  V30 43 H 9.680624 4.646374 -11.183971 0
M  V30 44 H 7.686023 5.037542 -8.615355 0
M  V30 45 H 9.400949 4.763565 -8.783694 0
M  V30 46 H 8.086021 7.181440 -7.516808 0
M  V30 47 H 9.363950 6.203011 -6.967936 0
M  V30 48 H 9.659470 9.756583 -9.227535 0
M  V30 49 H 8.957671 9.372324 -7.570857 0
M  V30 50 H 11.817063 8.642259 -8.579236 0
M  V30 51 H 11.455026 6.067615 -6.741364 0
M  V30 52 H 11.792638 5.662173 -4.347217 0
M  V30 53 H 11.772603 9.890786 -3.586472 0
M  V30 54 H 10.745381 6.629872 -10.283505 0
M  V30 55 H 9.675665 7.954628 -10.770348 0
M  V30 56 H 14.900514 5.132929 -16.652237 0
M  V30 57 H 16.311872 6.108792 -18.509569 0
M  V30 58 H 14.086020 9.576635 -18.415766 0
M  V30 59 H 7.814499 6.726849 -10.246865 0
M  V30 END ATOM
M  V30 BEGIN BOND
M  V30 1 1 2 1
M  V30 2 1 3 2
M  V30 3 1 4 3
M  V30 4 1 5 4
M  V30 5 1 6 5
M  V30 6 1 7 6
M  V30 7 1 8 7
M  V30 8 1 9 8
M  V30 9 1 10 9
M  V30 10 1 11 10 CFG=1
M  V30 11 1 12 11
M  V30 12 1 13 11
M  V30 13 1 13 12
M  V30 14 1 14 13
M  V30 15 1 15 14
M  V30 16 2 16 15
M  V30 17 1 17 16
M  V30 18 1 18 17
M  V30 19 1 19 18
M  V30 20 1 20 18
M  V30 21 1 21 18
M  V30 22 2 22 17
M  V30 23 2 23 14
M  V30 24 1 23 22
M  V30 25 1 24 23
M  V30 26 1 25 8
M  V30 27 1 25 11
M  V30 28 2 26 3
M  V30 29 1 27 26
M  V30 30 1 28 2
M  V30 31 2 28 27
M  V30 32 1 29 28
M  V30 33 1 30 29
M  V30 34 2 31 30
M  V30 35 1 32 31
M  V30 36 2 33 32
M  V30 37 2 34 29
M  V30 38 1 34 33
M  V30 39 1 35 1
M  V30 40 1 36 1
M  V30 41 1 37 1
M  V30 42 1 38 5
M  V30 43 1 39 5
M  V30 44 1 40 6
M  V30 45 1 41 6
M  V30 46 1 42 7
M  V30 47 1 43 7
M  V30 48 1 44 9
M  V30 49 1 45 9
M  V30 50 1 46 10
M  V30 51 1 47 10
M  V30 52 1 48 12
M  V30 53 1 49 12
M  V30 54 1 13 50 CFG=3
M  V30 55 1 51 15
M  V30 56 1 52 16
M  V30 57 1 53 22
M  V30 58 1 54 25
M  V30 59 1 55 25
M  V30 60 1 56 30
M  V30 61 1 57 31
M  V30 62 1 58 33
M  V30 63 1 8 59 CFG=3
M  V30 END BOND
M  V30 END CTAB
M  END
>  <b_m_subgroup_collapsed>  (292) 
0

>  <r_i_docking_score>  (292) 
-8.60281319872308

>  <s_m_subgroup_title>  (292) 
glide-dock_SP_D22_pv

>  <s_m_subgroupid>  (292) 
glide-dock_SP_D22_pv

>  <Molecule ChEMBL ID>  (292) 
CHEMBL5830481

>  <Standard Type>  (292) 
Ki

>  <Standard Value>  (292) 
81.3

>  <label>  (292) 
1

$$$$
CHEMBL402143
     RDKit          3D

  0  0  0  0  0  0  0  0  0  0999 V3000
M  V30 BEGIN CTAB
M  V30 COUNTS 59 61 0 0 1
M  V30 BEGIN ATOM
M  V30 1 C 5.252529 4.163780 -13.390242 0
M  V30 2 O 6.324088 3.402790 -12.863824 0
M  V30 3 C 7.500657 3.608185 -13.534646 0
M  V30 4 C 7.890366 2.677099 -14.531416 0
M  V30 5 O 7.119893 1.585222 -14.858634 0
M  V30 6 C 7.004751 0.591349 -13.847844 0
M  V30 7 C 6.226285 -0.611733 -14.387897 0
M  V30 8 F 4.928849 -0.320036 -14.472571 0
M  V30 9 C 9.069546 2.899794 -15.267576 0
M  V30 10 C 9.871397 4.024185 -15.005381 0
M  V30 11 C 9.496258 4.935507 -14.002734 0
M  V30 12 C 8.315989 4.737590 -13.254304 0
M  V30 13 C 7.951739 5.729295 -12.148529 0 CFG=2
M  V30 14 O 7.604888 7.004103 -12.647440 0
M  V30 15 C 9.039681 5.814351 -11.039468 0 CFG=1
M  V30 16 C 9.562586 7.239227 -10.712883 0
M  V30 17 C 10.510798 7.254970 -9.496205 0
M  V30 18 N 9.871257 6.603302 -8.322267 0 CFG=2 CHG=1
M  V30 19 C 10.639433 6.691548 -7.058430 0
M  V30 20 C 10.645360 8.099833 -6.438506 0
M  V30 21 C 11.285973 8.187447 -5.057241 0
M  V30 22 C 11.444799 9.461341 -4.473981 0
M  V30 23 C 11.985765 9.589495 -3.180481 0
M  V30 24 C 12.376771 8.446926 -2.461626 0
M  V30 25 F 12.888729 8.573128 -1.218970 0
M  V30 26 C 12.229115 7.172522 -3.034545 0
M  V30 27 C 11.689207 7.041626 -4.326698 0
M  V30 28 C 9.506392 5.203372 -8.635042 0
M  V30 29 C 8.485897 5.188916 -9.758094 0
M  V30 30 H 4.310276 3.740752 -13.048460 0
M  V30 31 H 5.286902 5.199039 -13.053297 0
M  V30 32 H 5.278445 4.171169 -14.480251 0
M  V30 33 H 8.001786 0.272601 -13.538742 0
M  V30 34 H 6.487079 0.967348 -12.969048 0
M  V30 35 H 6.573380 -0.917045 -15.375639 0
M  V30 36 H 6.313045 -1.467633 -13.718127 0
M  V30 37 H 9.357395 2.203993 -16.041252 0
M  V30 38 H 10.776266 4.189412 -15.572083 0
M  V30 39 H 10.125457 5.789482 -13.802402 0
M  V30 40 H 7.029465 5.392107 -11.679437 0
M  V30 41 H 7.168927 7.470994 -11.937918 0
M  V30 42 H 9.904268 5.219068 -11.339372 0
M  V30 43 H 10.073248 7.657169 -11.581673 0
M  V30 44 H 8.729104 7.907723 -10.498669 0
M  V30 45 H 10.769216 8.288038 -9.265628 0
M  V30 46 H 11.441028 6.743636 -9.740959 0
M  V30 47 H 10.147203 6.032944 -6.346169 0
M  V30 48 H 11.651765 6.314989 -7.203768 0
M  V30 49 H 11.167481 8.799174 -7.089197 0
M  V30 50 H 9.619070 8.458937 -6.348882 0
M  V30 51 H 11.138244 10.348544 -5.008965 0
M  V30 52 H 12.086306 10.563547 -2.725427 0
M  V30 53 H 12.527390 6.293996 -2.481439 0
M  V30 54 H 11.588276 6.044181 -4.723563 0
M  V30 55 H 9.042658 4.726155 -7.776866 0
M  V30 56 H 10.389150 4.616496 -8.895341 0
M  V30 57 H 7.630208 5.772423 -9.431808 0
M  V30 58 H 8.132897 4.173115 -9.937722 0
M  V30 59 H 8.992376 7.082098 -8.165254 0
M  V30 END ATOM
M  V30 BEGIN BOND
M  V30 1 1 2 1
M  V30 2 1 3 2
M  V30 3 2 4 3
M  V30 4 1 5 4
M  V30 5 1 6 5
M  V30 6 1 7 6
M  V30 7 1 8 7
M  V30 8 1 9 4
M  V30 9 2 10 9
M  V30 10 1 11 10
M  V30 11 1 12 3
M  V30 12 2 12 11
M  V30 13 1 13 12
M  V30 14 1 14 13
M  V30 15 1 15 13
M  V30 16 1 16 15
M  V30 17 1 17 16
M  V30 18 1 18 17
M  V30 19 1 19 18
M  V30 20 1 20 19
M  V30 21 1 21 20
M  V30 22 1 22 21
M  V30 23 2 23 22
M  V30 24 1 24 23
M  V30 25 1 25 24
M  V30 26 2 26 24
M  V30 27 2 27 21
M  V30 28 1 27 26
M  V30 29 1 28 18
M  V30 30 1 29 15
M  V30 31 1 29 28
M  V30 32 1 30 1
M  V30 33 1 31 1
M  V30 34 1 32 1
M  V30 35 1 33 6
M  V30 36 1 34 6
M  V30 37 1 35 7
M  V30 38 1 36 7
M  V30 39 1 37 9
M  V30 40 1 38 10
M  V30 41 1 39 11
M  V30 42 1 13 40 CFG=1
M  V30 43 1 41 14
M  V30 44 1 15 42 CFG=3
M  V30 45 1 43 16
M  V30 46 1 44 16
M  V30 47 1 45 17
M  V30 48 1 46 17
M  V30 49 1 47 19
M  V30 50 1 48 19
M  V30 51 1 49 20
M  V30 52 1 50 20
M  V30 53 1 51 22
M  V30 54 1 52 23
M  V30 55 1 53 26
M  V30 56 1 54 27
M  V30 57 1 55 28
M  V30 58 1 56 28
M  V30 59 1 57 29
M  V30 60 1 58 29
M  V30 61 1 18 59 CFG=1
M  V30 END BOND
M  V30 END CTAB
M  END
>  <b_m_subgroup_collapsed>  (293) 
0

>  <r_i_docking_score>  (293) 
-8.6023932418312903

>  <s_m_subgroup_title>  (293) 
glide-dock_SP_D22_pv

>  <s_m_subgroupid>  (293) 
glide-dock_SP_D22_pv

>  <Molecule ChEMBL ID>  (293) 
CHEMBL402143

>  <Standard Type>  (293) 
Ki

>  <Standard Value>  (293) 
10000.0

>  <label>  (293) 
0

$$$$
CHEMBL5790341
     RDKit          3D

  0  0  0  0  0  0  0  0  0  0999 V3000
M  V30 BEGIN CTAB
M  V30 COUNTS 60 64 0 0 1
M  V30 BEGIN ATOM
M  V30 1 O 10.486369 -0.699893 -17.403851 0
M  V30 2 C 9.840007 0.132297 -16.773092 0
M  V30 3 C 10.091777 1.633000 -16.976803 0
M  V30 4 C 9.744997 2.468657 -15.727406 0
M  V30 5 C 8.437315 2.023296 -15.094772 0
M  V30 6 C 7.615580 2.924970 -14.396697 0
M  V30 7 C 6.420145 2.475652 -13.778860 0
M  V30 8 O 5.557810 3.284886 -13.070677 0
M  V30 9 C 5.587833 4.684984 -13.316382 0
M  V30 10 C 6.190149 5.484887 -12.152273 0
M  V30 11 C 7.502471 4.902962 -11.595188 0
M  V30 12 N 8.087880 5.772306 -10.549091 0 CFG=2 CHG=1
M  V30 13 C 9.132330 6.693102 -11.066336 0
M  V30 14 C 9.599890 7.673585 -9.974292 0
M  V30 15 C 10.060127 6.947540 -8.688148 0 CFG=1
M  V30 16 C 10.424682 7.933282 -7.582620 0
M  V30 17 N 9.784464 8.972379 -7.295708 0
M  V30 18 O 10.486026 9.695341 -6.295066 0
M  V30 19 C 11.763707 9.104375 -6.094244 0 CFG=1
M  V30 20 C 12.085683 9.076646 -4.606239 0
M  V30 21 C 12.050935 7.954302 -3.872479 0
M  V30 22 F 12.349597 8.007540 -2.563835 0
M  V30 23 C 11.685929 6.689227 -4.468058 0
M  V30 24 C 11.502259 6.574694 -5.796273 0
M  V30 25 C 11.651632 7.730761 -6.773098 0 CFG=1
M  V30 26 C 8.968325 5.964807 -8.234466 0
M  V30 27 C 8.583593 5.011757 -9.371917 0
M  V30 28 C 6.086547 1.107494 -13.847036 0
M  V30 29 C 6.899315 0.203802 -14.554632 0
M  V30 30 C 8.064649 0.669233 -15.190872 0
M  V30 31 N 8.862842 -0.227675 -15.927589 0
M  V30 32 H 9.466105 1.951959 -17.810843 0
M  V30 33 H 11.126524 1.803573 -17.274782 0
M  V30 34 H 9.691912 3.525293 -15.991549 0
M  V30 35 H 10.535271 2.367786 -14.983331 0
M  V30 36 H 7.932708 3.952999 -14.352618 0
M  V30 37 H 4.550799 4.972318 -13.462910 0
M  V30 38 H 6.067833 4.958864 -14.246827 0
M  V30 39 H 5.448079 5.539763 -11.358643 0
M  V30 40 H 6.343806 6.515410 -12.475660 0
M  V30 41 H 8.238496 4.750457 -12.381238 0
M  V30 42 H 7.286061 3.915654 -11.184997 0
M  V30 43 H 8.733590 7.256802 -11.910501 0
M  V30 44 H 9.982142 6.118231 -11.438898 0
M  V30 45 H 8.782754 8.359032 -9.746460 0
M  V30 46 H 10.409531 8.293051 -10.362309 0
M  V30 47 H 10.952401 6.369042 -8.929990 0
M  V30 48 H 12.512761 9.707665 -6.610372 0
M  V30 49 H 12.339874 10.016005 -4.139661 0
M  V30 50 H 11.578115 5.820307 -3.837396 0
M  V30 51 H 11.282653 5.624928 -6.238086 0
M  V30 52 H 12.486072 7.546059 -7.446958 0
M  V30 53 H 9.311754 5.378949 -7.385264 0
M  V30 54 H 8.086096 6.508959 -7.894865 0
M  V30 55 H 7.836447 4.307775 -9.010671 0
M  V30 56 H 9.446612 4.411354 -9.665449 0
M  V30 57 H 5.186392 0.754050 -13.366354 0
M  V30 58 H 6.620643 -0.838425 -14.618494 0
M  V30 59 H 8.627495 -1.213005 -15.847081 0
M  V30 60 H 7.330177 6.387363 -10.243455 0
M  V30 END ATOM
M  V30 BEGIN BOND
M  V30 1 2 2 1
M  V30 2 1 3 2
M  V30 3 1 4 3
M  V30 4 1 5 4
M  V30 5 1 6 5
M  V30 6 2 7 6
M  V30 7 1 8 7
M  V30 8 1 9 8
M  V30 9 1 10 9
M  V30 10 1 11 10
M  V30 11 1 12 11
M  V30 12 1 13 12
M  V30 13 1 14 13
M  V30 14 1 15 14
M  V30 15 1 16 15
M  V30 16 2 17 16
M  V30 17 1 18 17
M  V30 18 1 19 18
M  V30 19 1 20 19
M  V30 20 2 21 20
M  V30 21 1 22 21
M  V30 22 1 23 21
M  V30 23 2 24 23
M  V30 24 1 25 16
M  V30 25 1 25 19
M  V30 26 1 25 24
M  V30 27 1 26 15
M  V30 28 1 27 12
M  V30 29 1 27 26
M  V30 30 1 28 7
M  V30 31 2 29 28
M  V30 32 2 30 5
M  V30 33 1 30 29
M  V30 34 1 31 2
M  V30 35 1 31 30
M  V30 36 1 32 3
M  V30 37 1 33 3
M  V30 38 1 34 4
M  V30 39 1 35 4
M  V30 40 1 36 6
M  V30 41 1 37 9
M  V30 42 1 38 9
M  V30 43 1 39 10
M  V30 44 1 40 10
M  V30 45 1 41 11
M  V30 46 1 42 11
M  V30 47 1 43 13
M  V30 48 1 44 13
M  V30 49 1 45 14
M  V30 50 1 46 14
M  V30 51 1 15 47 CFG=3
M  V30 52 1 19 48 CFG=3
M  V30 53 1 49 20
M  V30 54 1 50 23
M  V30 55 1 51 24
M  V30 56 1 25 52 CFG=3
M  V30 57 1 53 26
M  V30 58 1 54 26
M  V30 59 1 55 27
M  V30 60 1 56 27
M  V30 61 1 57 28
M  V30 62 1 58 29
M  V30 63 1 59 31
M  V30 64 1 12 60 CFG=1
M  V30 END BOND
M  V30 END CTAB
M  END
>  <b_m_subgroup_collapsed>  (294) 
0

>  <r_i_docking_score>  (294) 
-8.6015644087172198

>  <s_m_subgroup_title>  (294) 
glide-dock_SP_D22_pv

>  <s_m_subgroupid>  (294) 
glide-dock_SP_D22_pv

>  <Molecule ChEMBL ID>  (294) 
CHEMBL5790341

>  <Standard Type>  (294) 
Ki

>  <Standard Value>  (294) 
5.6

>  <label>  (294) 
1

$$$$
CHEMBL5790341
     RDKit          3D

  0  0  0  0  0  0  0  0  0  0999 V3000
M  V30 BEGIN CTAB
M  V30 COUNTS 60 64 0 0 1
M  V30 BEGIN ATOM
M  V30 1 O 12.846295 8.958258 -1.443694 0
M  V30 2 C 12.485470 8.517670 -2.524804 0
M  V30 3 C 12.439706 7.003450 -2.765054 0
M  V30 4 C 11.473774 6.556292 -3.874690 0
M  V30 5 C 11.300739 7.568842 -4.986506 0
M  V30 6 C 10.735108 7.175295 -6.210384 0
M  V30 7 C 10.652658 8.087121 -7.275233 0
M  V30 8 O 10.016341 7.647741 -8.408132 0
M  V30 9 C 9.522052 8.606653 -9.331572 0
M  V30 10 C 10.350584 8.497733 -10.620625 0
M  V30 11 C 9.511762 8.311507 -11.906143 0
M  V30 12 N 8.485982 7.240807 -11.806418 0 CFG=2 CHG=1
M  V30 13 C 8.985250 5.924096 -11.363752 0
M  V30 14 C 7.780750 5.085560 -10.944231 0
M  V30 15 C 6.733623 4.862406 -12.055453 0 CFG=2
M  V30 16 C 7.152205 3.894005 -13.166759 0
M  V30 17 N 8.324666 3.741860 -13.601697 0
M  V30 18 O 8.330896 2.795669 -14.655892 0
M  V30 19 C 7.002705 2.323303 -14.882181 0 CFG=1
M  V30 20 C 6.948455 0.803690 -14.784184 0
M  V30 21 C 6.159831 0.149439 -13.920949 0
M  V30 22 F 6.152765 -1.192307 -13.907080 0
M  V30 23 C 5.310710 0.857801 -12.997820 0
M  V30 24 C 5.288805 2.198710 -12.954041 0
M  V30 25 C 6.118098 3.086043 -13.878213 0 CFG=1
M  V30 26 C 6.330706 6.237202 -12.605019 0
M  V30 27 C 7.564077 7.101660 -12.968009 0
M  V30 28 C 11.224290 9.372448 -7.128320 0
M  V30 29 C 11.715529 9.797420 -5.882734 0
M  V30 30 C 11.731165 8.898955 -4.800653 0
M  V30 31 N 12.182116 9.334009 -3.537567 0
M  V30 32 H 12.221136 6.465713 -1.846138 0
M  V30 33 H 13.449550 6.719279 -3.047046 0
M  V30 34 H 10.520681 6.205270 -3.477516 0
M  V30 35 H 11.924635 5.693111 -4.350103 0
M  V30 36 H 10.354360 6.173072 -6.332901 0
M  V30 37 H 9.460192 9.627939 -8.964470 0
M  V30 38 H 8.486028 8.335144 -9.506401 0
M  V30 39 H 11.053332 7.666625 -10.535414 0
M  V30 40 H 10.995722 9.369758 -10.695887 0
M  V30 41 H 10.199199 8.078894 -12.710969 0
M  V30 42 H 9.016822 9.249725 -12.158875 0
M  V30 43 H 9.628833 6.007451 -10.489450 0
M  V30 44 H 9.585666 5.456033 -12.141428 0
M  V30 45 H 7.287294 5.648506 -10.151512 0
M  V30 46 H 8.114240 4.168068 -10.484304 0
M  V30 47 H 5.855680 4.436407 -11.572617 0
M  V30 48 H 6.714513 2.572172 -15.902766 0
M  V30 49 H 7.581792 0.245179 -15.458140 0
M  V30 50 H 4.706977 0.284444 -12.314555 0
M  V30 51 H 4.636557 2.688964 -12.247181 0
M  V30 52 H 5.451929 3.771041 -14.400702 0
M  V30 53 H 5.650371 6.117947 -13.445993 0
M  V30 54 H 5.722912 6.743199 -11.855146 0
M  V30 55 H 7.224936 8.086635 -13.285913 0
M  V30 56 H 8.086926 6.626608 -13.799297 0
M  V30 57 H 11.284277 10.060964 -7.955775 0
M  V30 58 H 12.094826 10.803166 -5.777029 0
M  V30 59 H 12.293816 10.325699 -3.383832 0
M  V30 60 H 7.854308 7.539948 -11.058653 0
M  V30 END ATOM
M  V30 BEGIN BOND
M  V30 1 2 2 1
M  V30 2 1 3 2
M  V30 3 1 4 3
M  V30 4 1 5 4
M  V30 5 1 6 5
M  V30 6 2 7 6
M  V30 7 1 8 7
M  V30 8 1 9 8
M  V30 9 1 10 9
M  V30 10 1 11 10
M  V30 11 1 12 11
M  V30 12 1 13 12
M  V30 13 1 14 13
M  V30 14 1 15 14
M  V30 15 1 16 15
M  V30 16 2 17 16
M  V30 17 1 18 17
M  V30 18 1 19 18
M  V30 19 1 20 19
M  V30 20 2 21 20
M  V30 21 1 22 21
M  V30 22 1 23 21
M  V30 23 2 24 23
M  V30 24 1 25 16
M  V30 25 1 25 19
M  V30 26 1 25 24
M  V30 27 1 26 15
M  V30 28 1 27 12
M  V30 29 1 27 26
M  V30 30 1 28 7
M  V30 31 2 29 28
M  V30 32 2 30 5
M  V30 33 1 30 29
M  V30 34 1 31 2
M  V30 35 1 31 30
M  V30 36 1 32 3
M  V30 37 1 33 3
M  V30 38 1 34 4
M  V30 39 1 35 4
M  V30 40 1 36 6
M  V30 41 1 37 9
M  V30 42 1 38 9
M  V30 43 1 39 10
M  V30 44 1 40 10
M  V30 45 1 41 11
M  V30 46 1 42 11
M  V30 47 1 43 13
M  V30 48 1 44 13
M  V30 49 1 45 14
M  V30 50 1 46 14
M  V30 51 1 15 47 CFG=1
M  V30 52 1 19 48 CFG=3
M  V30 53 1 49 20
M  V30 54 1 50 23
M  V30 55 1 51 24
M  V30 56 1 25 52 CFG=3
M  V30 57 1 53 26
M  V30 58 1 54 26
M  V30 59 1 55 27
M  V30 60 1 56 27
M  V30 61 1 57 28
M  V30 62 1 58 29
M  V30 63 1 59 31
M  V30 64 1 12 60 CFG=1
M  V30 END BOND
M  V30 END CTAB
M  END
>  <b_m_subgroup_collapsed>  (295) 
0

>  <r_i_docking_score>  (295) 
-8.60041574314792

>  <s_m_subgroup_title>  (295) 
glide-dock_SP_D22_pv

>  <s_m_subgroupid>  (295) 
glide-dock_SP_D22_pv

>  <Molecule ChEMBL ID>  (295) 
CHEMBL5790341

>  <Standard Type>  (295) 
Ki

>  <Standard Value>  (295) 
5.6

>  <label>  (295) 
1

$$$$
CHEMBL2111528
     RDKit          3D

  0  0  0  0  0  0  0  0  0  0999 V3000
M  V30 BEGIN CTAB
M  V30 COUNTS 57 60 0 0 1
M  V30 BEGIN ATOM
M  V30 1 C 5.235287 0.198030 -13.784121 0
M  V30 2 O 6.072116 1.341101 -13.675004 0
M  V30 3 C 7.231895 1.393319 -14.419941 0
M  V30 4 C 7.669118 0.289862 -15.198513 0
M  V30 5 C 8.871528 0.340706 -15.922727 0
M  V30 6 C 9.658734 1.499312 -15.886383 0
M  V30 7 Br 11.285972 1.574370 -16.867483 0
M  V30 8 C 9.238847 2.604387 -15.128342 0
M  V30 9 C 8.030652 2.574306 -14.389458 0
M  V30 10 C 7.683000 3.783511 -13.618620 0
M  V30 11 N 8.557622 4.750206 -13.307899 0
M  V30 12 C 7.987330 5.827133 -12.628171 0
M  V30 13 C 8.842783 6.992122 -12.237502 0
M  V30 14 N 8.886027 7.108837 -10.771512 0 CHG=1
M  V30 15 C 9.819133 8.121600 -10.240558 0
M  V30 16 C 11.012649 7.454433 -9.531543 0 CFG=1
M  V30 17 C 12.085882 8.461654 -9.105053 0
M  V30 18 C 11.797730 8.726687 -7.632496 0
M  V30 19 N 11.285961 7.444022 -7.108473 0 CFG=1 CHG=1
M  V30 20 C 10.464060 7.557776 -5.885643 0
M  V30 21 C 11.286036 7.931533 -4.667588 0
M  V30 22 C 11.827971 6.911899 -3.860086 0
M  V30 23 C 12.462034 7.230623 -2.647045 0
M  V30 24 C 12.545499 8.572141 -2.231391 0
M  V30 25 C 12.029301 9.594192 -3.046709 0
M  V30 26 C 11.405088 9.280022 -4.268431 0
M  V30 27 C 10.598857 6.751388 -8.221086 0
M  V30 28 C 6.645809 5.667971 -12.395625 0
M  V30 29 S 6.050718 4.168476 -13.048514 0
M  V30 30 H 4.359263 0.336491 -13.152241 0
M  V30 31 H 4.882897 0.056611 -14.806828 0
M  V30 32 H 5.743551 -0.706186 -13.446382 0
M  V30 33 H 7.104279 -0.627693 -15.254763 0
M  V30 34 H 9.188210 -0.513333 -16.503025 0
M  V30 35 H 9.864078 3.485090 -15.123465 0
M  V30 36 H 9.856360 6.874631 -12.624943 0
M  V30 37 H 8.441132 7.919347 -12.646738 0
M  V30 38 H 7.929858 7.372190 -10.492489 0
M  V30 39 H 10.164231 8.772669 -11.045654 0
M  V30 40 H 9.273781 8.761308 -9.544159 0
M  V30 41 H 11.460579 6.738887 -10.220713 0
M  V30 42 H 13.074877 8.011767 -9.204827 0
M  V30 43 H 12.085888 9.372317 -9.704804 0
M  V30 44 H 12.679733 9.070054 -7.089852 0
M  V30 45 H 11.030342 9.497622 -7.545991 0
M  V30 46 H 9.658331 8.278805 -6.034509 0
M  V30 47 H 9.980123 6.599154 -5.686511 0
M  V30 48 H 11.729158 5.875012 -4.148232 0
M  V30 49 H 12.869211 6.443699 -2.027545 0
M  V30 50 H 13.016004 8.822639 -1.291661 0
M  V30 51 H 12.085998 10.619178 -2.711961 0
M  V30 52 H 10.976850 10.071669 -4.866172 0
M  V30 53 H 9.515908 6.782465 -8.082864 0
M  V30 54 H 10.885775 5.699234 -8.222821 0
M  V30 55 H 5.970426 6.339009 -11.880266 0
M  V30 56 H 12.089334 6.877323 -6.876015 0
M  V30 57 H 9.079517 6.200624 -10.377433 0
M  V30 END ATOM
M  V30 BEGIN BOND
M  V30 1 1 2 1
M  V30 2 1 3 2
M  V30 3 1 4 3
M  V30 4 2 5 4
M  V30 5 1 6 5
M  V30 6 1 7 6
M  V30 7 2 8 6
M  V30 8 2 9 3
M  V30 9 1 9 8
M  V30 10 1 10 9
M  V30 11 2 11 10
M  V30 12 1 12 11
M  V30 13 1 13 12
M  V30 14 1 14 13
M  V30 15 1 15 14
M  V30 16 1 16 15
M  V30 17 1 17 16
M  V30 18 1 18 17
M  V30 19 1 19 18
M  V30 20 1 20 19
M  V30 21 1 21 20
M  V30 22 2 22 21
M  V30 23 1 23 22
M  V30 24 2 24 23
M  V30 25 1 25 24
M  V30 26 1 26 21
M  V30 27 2 26 25
M  V30 28 1 27 16
M  V30 29 1 27 19
M  V30 30 2 28 12
M  V30 31 1 29 10
M  V30 32 1 29 28
M  V30 33 1 30 1
M  V30 34 1 31 1
M  V30 35 1 32 1
M  V30 36 1 33 4
M  V30 37 1 34 5
M  V30 38 1 35 8
M  V30 39 1 36 13
M  V30 40 1 37 13
M  V30 41 1 38 14
M  V30 42 1 39 15
M  V30 43 1 40 15
M  V30 44 1 16 41 CFG=3
M  V30 45 1 42 17
M  V30 46 1 43 17
M  V30 47 1 44 18
M  V30 48 1 45 18
M  V30 49 1 46 20
M  V30 50 1 47 20
M  V30 51 1 48 22
M  V30 52 1 49 23
M  V30 53 1 50 24
M  V30 54 1 51 25
M  V30 55 1 52 26
M  V30 56 1 53 27
M  V30 57 1 54 27
M  V30 58 1 55 28
M  V30 59 1 19 56 CFG=1
M  V30 60 1 57 14
M  V30 END BOND
M  V30 END CTAB
M  END
>  <b_m_subgroup_collapsed>  (296) 
0

>  <r_i_docking_score>  (296) 
-8.6002558402896803

>  <s_m_subgroup_title>  (296) 
glide-dock_SP_D22_pv

>  <s_m_subgroupid>  (296) 
glide-dock_SP_D22_pv

>  <Molecule ChEMBL ID>  (296) 
CHEMBL2111528

>  <Standard Type>  (296) 
Ki

>  <Standard Value>  (296) 
92.0

>  <label>  (296) 
1

$$$$
CHEMBL127807
     RDKit          3D

  0  0  0  0  0  0  0  0  0  0999 V3000
M  V30 BEGIN CTAB
M  V30 COUNTS 67 71 0 0 1
M  V30 BEGIN ATOM
M  V30 1 C 5.172740 0.902116 -19.709606 0
M  V30 2 O 5.999795 0.957505 -18.556070 0
M  V30 3 C 5.644725 0.195993 -17.457735 0
M  V30 4 C 4.489007 -0.628201 -17.422642 0
M  V30 5 C 4.163939 -1.357272 -16.263487 0
M  V30 6 C 4.986675 -1.270140 -15.126866 0
M  V30 7 C 6.141857 -0.472153 -15.154741 0
M  V30 8 C 6.487546 0.249063 -16.317141 0
M  V30 9 N 7.645649 1.041115 -16.340658 0
M  V30 10 C 7.498823 2.465256 -16.110462 0
M  V30 11 C 8.104237 2.889500 -14.757937 0
M  V30 12 N 9.500901 2.402846 -14.655375 0 CHG=1
M  V30 13 C 10.217649 2.866387 -13.448160 0
M  V30 14 C 10.498665 4.354213 -13.354959 0
M  V30 15 C 11.672101 4.868417 -13.941578 0
M  V30 16 C 12.086082 6.178692 -13.647988 0
M  V30 17 C 11.334760 6.972381 -12.763537 0
M  V30 18 C 10.110476 6.505475 -12.245517 0
M  V30 19 C 9.268944 7.415214 -11.359792 0
M  V30 20 N 9.685633 7.417235 -9.960142 0
M  V30 21 C 10.564713 8.261821 -9.393723 0
M  V30 22 O 11.148438 9.155584 -10.000152 0
M  V30 23 C 10.797653 8.062428 -7.926493 0
M  V30 24 C 10.957430 6.757774 -7.424970 0
M  V30 25 C 11.285690 6.566440 -6.076381 0
M  V30 26 C 11.397602 7.637480 -5.191143 0
M  V30 27 C 11.742119 7.388582 -3.847959 0
M  V30 28 C 11.903708 8.467209 -2.964588 0
M  V30 29 C 11.685980 9.773874 -3.429024 0
M  V30 30 C 11.327679 10.022764 -4.772126 0
M  V30 31 C 11.214108 8.949952 -5.674950 0
M  V30 32 C 10.948122 9.162307 -7.047352 0
M  V30 33 C 9.694860 5.187358 -12.539975 0
M  V30 34 C 9.563528 0.919401 -14.782049 0
M  V30 35 C 8.951571 0.443162 -16.110378 0
M  V30 36 H 5.576765 1.563998 -20.475592 0
M  V30 37 H 5.137470 -0.106161 -20.126589 0
M  V30 38 H 4.156215 1.231787 -19.490820 0
M  V30 39 H 3.825172 -0.711265 -18.270777 0
M  V30 40 H 3.283146 -1.983845 -16.245186 0
M  V30 41 H 4.734507 -1.827472 -14.238863 0
M  V30 42 H 6.771606 -0.424567 -14.279050 0
M  V30 43 H 8.001810 2.972075 -16.933138 0
M  V30 44 H 6.445210 2.732190 -16.151833 0
M  V30 45 H 8.074889 3.974238 -14.650427 0
M  V30 46 H 7.511586 2.479285 -13.938103 0
M  V30 47 H 9.685693 2.572859 -12.548978 0
M  V30 48 H 11.182742 2.357767 -13.446756 0
M  V30 49 H 12.298569 4.244636 -14.563111 0
M  V30 50 H 13.010875 6.557459 -14.057274 0
M  V30 51 H 11.710830 7.941053 -12.480474 0
M  V30 52 H 9.281043 8.430334 -11.760724 0
M  V30 53 H 8.229305 7.090058 -11.418463 0
M  V30 54 H 9.202666 6.771699 -9.352000 0
M  V30 55 H 10.886937 5.896948 -8.074705 0
M  V30 56 H 11.492345 5.578196 -5.713866 0
M  V30 57 H 11.897861 6.378400 -3.495580 0
M  V30 58 H 12.173335 8.292967 -1.932666 0
M  V30 59 H 11.798766 10.599127 -2.742349 0
M  V30 60 H 11.177792 11.038052 -5.111454 0
M  V30 61 H 10.884068 10.171979 -7.422920 0
M  V30 62 H 8.794098 4.798790 -12.085099 0
M  V30 63 H 10.597727 0.572066 -14.722670 0
M  V30 64 H 9.032193 0.462094 -13.945875 0
M  V30 65 H 8.876778 -0.639293 -16.125757 0
M  V30 66 H 9.602468 0.717022 -16.940094 0
M  V30 67 H 9.996863 2.779537 -15.449624 0
M  V30 END ATOM
M  V30 BEGIN BOND
M  V30 1 1 2 1
M  V30 2 1 3 2
M  V30 3 2 4 3
M  V30 4 1 5 4
M  V30 5 2 6 5
M  V30 6 1 7 6
M  V30 7 1 8 3
M  V30 8 2 8 7
M  V30 9 1 9 8
M  V30 10 1 10 9
M  V30 11 1 11 10
M  V30 12 1 12 11
M  V30 13 1 13 12
M  V30 14 1 14 13
M  V30 15 2 15 14
M  V30 16 1 16 15
M  V30 17 2 17 16
M  V30 18 1 18 17
M  V30 19 1 19 18
M  V30 20 1 20 19
M  V30 21 1 21 20
M  V30 22 2 22 21
M  V30 23 1 23 21
M  V30 24 1 24 23
M  V30 25 2 25 24
M  V30 26 1 26 25
M  V30 27 2 27 26
M  V30 28 1 28 27
M  V30 29 2 29 28
M  V30 30 1 30 29
M  V30 31 1 31 26
M  V30 32 2 31 30
M  V30 33 2 32 23
M  V30 34 1 32 31
M  V30 35 1 33 14
M  V30 36 2 33 18
M  V30 37 1 34 12
M  V30 38 1 35 9
M  V30 39 1 35 34
M  V30 40 1 36 1
M  V30 41 1 37 1
M  V30 42 1 38 1
M  V30 43 1 39 4
M  V30 44 1 40 5
M  V30 45 1 41 6
M  V30 46 1 42 7
M  V30 47 1 43 10
M  V30 48 1 44 10
M  V30 49 1 45 11
M  V30 50 1 46 11
M  V30 51 1 47 13
M  V30 52 1 48 13
M  V30 53 1 49 15
M  V30 54 1 50 16
M  V30 55 1 51 17
M  V30 56 1 52 19
M  V30 57 1 53 19
M  V30 58 1 54 20
M  V30 59 1 55 24
M  V30 60 1 56 25
M  V30 61 1 57 27
M  V30 62 1 58 28
M  V30 63 1 59 29
M  V30 64 1 60 30
M  V30 65 1 61 32
M  V30 66 1 62 33
M  V30 67 1 63 34
M  V30 68 1 64 34
M  V30 69 1 65 35
M  V30 70 1 66 35
M  V30 71 1 67 12
M  V30 END BOND
M  V30 END CTAB
M  END
>  <b_m_subgroup_collapsed>  (297) 
0

>  <r_i_docking_score>  (297) 
-8.5950217838264305

>  <s_m_subgroup_title>  (297) 
glide-dock_SP_D22_pv

>  <s_m_subgroupid>  (297) 
glide-dock_SP_D22_pv

>  <Molecule ChEMBL ID>  (297) 
CHEMBL127807

>  <Standard Type>  (297) 
Ki

>  <Standard Value>  (297) 
45.0

>  <label>  (297) 
1

$$$$
CHEMBL4521525
     RDKit          3D

  0  0  0  0  0  0  0  0  0  0999 V3000
M  V30 BEGIN CTAB
M  V30 COUNTS 63 66 0 0 1
M  V30 BEGIN ATOM
M  V30 1 O 11.004317 7.372643 -11.460866 0
M  V30 2 C 10.108098 7.228278 -10.627570 0
M  V30 3 N 8.886300 6.768323 -10.941667 0
M  V30 4 C 8.516706 6.197340 -12.230843 0
M  V30 5 C 9.078475 4.770648 -12.390426 0
M  V30 6 C 8.965161 4.206403 -13.816511 0
M  V30 7 C 9.724188 2.869110 -13.956452 0
M  V30 8 N 9.656248 2.244011 -15.305534 0 CHG=1
M  V30 9 C 10.250363 3.075136 -16.392437 0
M  V30 10 C 10.089921 2.389487 -17.761030 0
M  V30 11 N 10.636631 1.036798 -17.728210 0
M  V30 12 C 11.838380 0.708633 -18.398977 0
M  V30 13 C 12.793029 1.700392 -18.734072 0
M  V30 14 C 13.961469 1.370006 -19.449245 0
M  V30 15 C 14.211380 0.038416 -19.840212 0
M  V30 16 C 15.478338 -0.317952 -20.608349 0
M  V30 17 F 16.447672 -0.624638 -19.746298 0
M  V30 18 F 15.271243 -1.358854 -21.417912 0
M  V30 19 F 15.885036 0.710661 -21.352566 0
M  V30 20 C 13.281188 -0.960401 -19.486872 0
M  V30 21 C 12.105103 -0.628004 -18.780985 0
M  V30 22 C 10.113783 0.177121 -16.669834 0
M  V30 23 C 10.232110 0.868419 -15.296672 0
M  V30 24 C 10.356064 7.548675 -9.180112 0
M  V30 25 C 11.353838 8.484395 -8.828412 0
M  V30 26 C 11.694242 8.689468 -7.477150 0
M  V30 27 C 11.050410 7.958324 -6.456697 0
M  V30 28 C 11.465123 8.104063 -5.060582 0
M  V30 29 C 11.717520 9.386819 -4.483184 0
M  V30 30 C 12.084886 9.327229 -3.164662 0
M  V30 31 S 12.096682 7.688524 -2.583128 0
M  V30 32 C 11.681516 7.089039 -4.161335 0
M  V30 33 C 10.033243 7.046515 -6.803174 0
M  V30 34 C 9.685874 6.843412 -8.152833 0
M  V30 35 H 8.147910 6.849336 -10.247463 0
M  V30 36 H 7.428051 6.186944 -12.308299 0
M  V30 37 H 8.878186 6.844031 -13.028703 0
M  V30 38 H 10.131417 4.770334 -12.111191 0
M  V30 39 H 8.580911 4.106157 -11.683283 0
M  V30 40 H 7.916272 4.078478 -14.084363 0
M  V30 41 H 9.374875 4.950043 -14.499917 0
M  V30 42 H 10.771363 2.997593 -13.674797 0
M  V30 43 H 9.286774 2.172195 -13.241538 0
M  V30 44 H 9.767021 4.049498 -16.445450 0
M  V30 45 H 11.307781 3.251509 -16.177937 0
M  V30 46 H 9.030377 2.313253 -18.006638 0
M  V30 47 H 10.527201 2.992874 -18.556482 0
M  V30 48 H 12.652738 2.730270 -18.444742 0
M  V30 49 H 14.670445 2.148043 -19.692312 0
M  V30 50 H 13.464442 -1.986704 -19.770706 0
M  V30 51 H 11.394350 -1.411689 -18.565720 0
M  V30 52 H 9.065783 -0.038929 -16.887054 0
M  V30 53 H 10.619629 -0.785982 -16.630941 0
M  V30 54 H 11.284678 0.927542 -15.012471 0
M  V30 55 H 9.733843 0.260152 -14.539657 0
M  V30 56 H 11.894049 9.025189 -9.594145 0
M  V30 57 H 12.493464 9.373912 -7.229095 0
M  V30 58 H 11.619283 10.302137 -5.049583 0
M  V30 59 H 12.329526 10.141476 -2.495266 0
M  V30 60 H 11.575592 6.025812 -4.321240 0
M  V30 61 H 9.523438 6.483279 -6.033401 0
M  V30 62 H 8.923851 6.112692 -8.387595 0
M  V30 63 H 8.676386 2.138416 -15.528697 0
M  V30 END ATOM
M  V30 BEGIN BOND
M  V30 1 2 2 1
M  V30 2 1 3 2
M  V30 3 1 4 3
M  V30 4 1 5 4
M  V30 5 1 6 5
M  V30 6 1 7 6
M  V30 7 1 8 7
M  V30 8 1 9 8
M  V30 9 1 10 9
M  V30 10 1 11 10
M  V30 11 1 12 11
M  V30 12 1 13 12
M  V30 13 2 14 13
M  V30 14 1 15 14
M  V30 15 1 16 15
M  V30 16 1 17 16
M  V30 17 1 18 16
M  V30 18 1 19 16
M  V30 19 2 20 15
M  V30 20 2 21 12
M  V30 21 1 21 20
M  V30 22 1 22 11
M  V30 23 1 23 8
M  V30 24 1 23 22
M  V30 25 1 24 2
M  V30 26 1 25 24
M  V30 27 2 26 25
M  V30 28 1 27 26
M  V30 29 1 28 27
M  V30 30 1 29 28
M  V30 31 2 30 29
M  V30 32 1 31 30
M  V30 33 2 32 28
M  V30 34 1 32 31
M  V30 35 2 33 27
M  V30 36 2 34 24
M  V30 37 1 34 33
M  V30 38 1 35 3
M  V30 39 1 36 4
M  V30 40 1 37 4
M  V30 41 1 38 5
M  V30 42 1 39 5
M  V30 43 1 40 6
M  V30 44 1 41 6
M  V30 45 1 42 7
M  V30 46 1 43 7
M  V30 47 1 44 9
M  V30 48 1 45 9
M  V30 49 1 46 10
M  V30 50 1 47 10
M  V30 51 1 48 13
M  V30 52 1 49 14
M  V30 53 1 50 20
M  V30 54 1 51 21
M  V30 55 1 52 22
M  V30 56 1 53 22
M  V30 57 1 54 23
M  V30 58 1 55 23
M  V30 59 1 56 25
M  V30 60 1 57 26
M  V30 61 1 58 29
M  V30 62 1 59 30
M  V30 63 1 60 32
M  V30 64 1 61 33
M  V30 65 1 62 34
M  V30 66 1 63 8
M  V30 END BOND
M  V30 END CTAB
M  END
>  <b_m_subgroup_collapsed>  (298) 
0

>  <r_i_docking_score>  (298) 
-8.5923181550622605

>  <s_m_subgroup_title>  (298) 
glide-dock_SP_D22_pv

>  <s_m_subgroupid>  (298) 
glide-dock_SP_D22_pv

>  <Molecule ChEMBL ID>  (298) 
CHEMBL4521525

>  <Standard Type>  (298) 
Ki

>  <Standard Value>  (298) 
30000.0

>  <label>  (298) 
0

$$$$
CHEMBL2207634
     RDKit          3D

  0  0  0  0  0  0  0  0  0  0999 V3000
M  V30 BEGIN CTAB
M  V30 COUNTS 61 64 0 0 1
M  V30 BEGIN ATOM
M  V30 1 C 6.982919 -0.246601 -13.551105 0
M  V30 2 C 5.661397 0.385147 -14.010913 0
M  V30 3 C 5.155230 1.519856 -13.103500 0
M  V30 4 C 6.038172 2.697512 -13.047725 0
M  V30 5 C 6.840993 3.611138 -12.934699 0
M  V30 6 C 7.892211 4.591170 -12.713450 0
M  V30 7 C 7.764737 5.655566 -11.777721 0
M  V30 8 C 9.009500 6.382048 -11.791546 0
M  V30 9 C 9.275010 7.605219 -10.917423 0
M  V30 10 N 9.286021 7.280362 -9.468544 0 CHG=1
M  V30 11 C 10.441961 6.432663 -9.059997 0
M  V30 12 C 10.409312 6.079276 -7.556217 0
M  V30 13 N 10.177219 7.271422 -6.756177 0
M  V30 14 C 10.960715 7.580264 -5.622495 0
M  V30 15 C 11.269312 6.587399 -4.667528 0
M  V30 16 C 11.972398 6.883099 -3.487861 0
M  V30 17 C 12.398378 8.194390 -3.250244 0
M  V30 18 C 12.145356 9.186539 -4.209607 0
M  V30 19 C 11.443813 8.893751 -5.413204 0
M  V30 20 O 11.235801 9.816944 -6.416841 0
M  V30 21 C 11.813964 11.084752 -6.225788 0
M  V30 22 C 9.034539 8.094816 -7.129785 0
M  V30 23 C 9.153071 8.490195 -8.612776 0
M  V30 24 C 9.875662 5.771457 -12.740877 0
M  V30 25 C 11.160637 6.233373 -13.047179 0
M  V30 26 C 12.085787 5.679997 -13.992734 0
M  V30 27 C 11.954728 4.522641 -14.830616 0
M  V30 28 C 10.848119 3.618870 -14.954059 0
M  V30 29 C 9.583404 3.656625 -14.281192 0
M  V30 30 C 9.153710 4.590378 -13.330682 0
M  V30 31 H 7.287071 -1.026100 -14.246274 0
M  V30 32 H 7.795239 0.478769 -13.514657 0
M  V30 33 H 6.884995 -0.698609 -12.563615 0
M  V30 34 H 4.898443 -0.393122 -14.060315 0
M  V30 35 H 5.781277 0.754509 -15.029570 0
M  V30 36 H 5.035471 1.156761 -12.081769 0
M  V30 37 H 4.173037 1.845484 -13.438644 0
M  V30 38 H 6.896466 5.856029 -11.161103 0
M  V30 39 H 10.200790 8.110951 -11.188383 0
M  V30 40 H 8.485994 8.326350 -11.123981 0
M  V30 41 H 10.457426 5.512530 -9.645492 0
M  V30 42 H 11.364168 6.970842 -9.288392 0
M  V30 43 H 9.601663 5.372043 -7.365365 0
M  V30 44 H 11.340615 5.593017 -7.265501 0
M  V30 45 H 10.896205 5.594581 -4.799765 0
M  V30 46 H 12.155402 6.108687 -2.756018 0
M  V30 47 H 12.923647 8.443146 -2.339370 0
M  V30 48 H 12.516256 10.172145 -3.988113 0
M  V30 49 H 11.685865 11.766625 -7.054336 0
M  V30 50 H 11.326753 11.539247 -5.364304 0
M  V30 51 H 12.882565 10.972461 -6.062256 0
M  V30 52 H 8.124266 7.513659 -6.971480 0
M  V30 53 H 8.940222 8.972321 -6.492157 0
M  V30 54 H 10.022932 9.132473 -8.758106 0
M  V30 55 H 8.280090 9.074542 -8.904406 0
M  V30 56 H 11.518298 7.112766 -12.531897 0
M  V30 57 H 13.028616 6.207091 -14.082083 0
M  V30 58 H 12.808789 4.299452 -15.457414 0
M  V30 59 H 10.981773 2.805812 -15.657182 0
M  V30 60 H 8.890772 2.867114 -14.546333 0
M  V30 61 H 8.434882 6.758725 -9.301378 0
M  V30 END ATOM
M  V30 BEGIN BOND
M  V30 1 1 2 1
M  V30 2 1 3 2
M  V30 3 1 4 3
M  V30 4 3 5 4
M  V30 5 1 6 5
M  V30 6 2 7 6
M  V30 7 1 8 7
M  V30 8 1 9 8
M  V30 9 1 10 9
M  V30 10 1 11 10
M  V30 11 1 12 11
M  V30 12 1 13 12
M  V30 13 1 14 13
M  V30 14 2 15 14
M  V30 15 1 16 15
M  V30 16 2 17 16
M  V30 17 1 18 17
M  V30 18 1 19 14
M  V30 19 2 19 18
M  V30 20 1 20 19
M  V30 21 1 21 20
M  V30 22 1 22 13
M  V30 23 1 23 10
M  V30 24 1 23 22
M  V30 25 2 24 8
M  V30 26 1 25 24
M  V30 27 2 26 25
M  V30 28 1 27 26
M  V30 29 2 28 27
M  V30 30 1 29 28
M  V30 31 1 30 6
M  V30 32 1 30 24
M  V30 33 2 30 29
M  V30 34 1 31 1
M  V30 35 1 32 1
M  V30 36 1 33 1
M  V30 37 1 34 2
M  V30 38 1 35 2
M  V30 39 1 36 3
M  V30 40 1 37 3
M  V30 41 1 38 7
M  V30 42 1 39 9
M  V30 43 1 40 9
M  V30 44 1 41 11
M  V30 45 1 42 11
M  V30 46 1 43 12
M  V30 47 1 44 12
M  V30 48 1 45 15
M  V30 49 1 46 16
M  V30 50 1 47 17
M  V30 51 1 48 18
M  V30 52 1 49 21
M  V30 53 1 50 21
M  V30 54 1 51 21
M  V30 55 1 52 22
M  V30 56 1 53 22
M  V30 57 1 54 23
M  V30 58 1 55 23
M  V30 59 1 56 25
M  V30 60 1 57 26
M  V30 61 1 58 27
M  V30 62 1 59 28
M  V30 63 1 60 29
M  V30 64 1 61 10
M  V30 END BOND
M  V30 END CTAB
M  END
>  <b_m_subgroup_collapsed>  (299) 
0

>  <r_i_docking_score>  (299) 
-8.5870018485585007

>  <s_m_subgroup_title>  (299) 
glide-dock_SP_D22_pv

>  <s_m_subgroupid>  (299) 
glide-dock_SP_D22_pv

>  <Molecule ChEMBL ID>  (299) 
CHEMBL2207634

>  <Standard Type>  (299) 
Ki

>  <Standard Value>  (299) 
60.0

>  <label>  (299) 
1

$$$$
CHEMBL455318
     RDKit          3D

  0  0  0  0  0  0  0  0  0  0999 V3000
M  V30 BEGIN CTAB
M  V30 COUNTS 94 101 0 0 1
M  V30 BEGIN ATOM
M  V30 1 C 9.988188 7.126164 -7.377304 0
M  V30 2 C 9.787860 7.693778 -8.789204 0
M  V30 3 C 9.317700 6.620399 -9.789787 0
M  V30 4 N 8.886057 7.162214 -11.117306 0 CFG=1 CHG=1
M  V30 5 C 9.857238 8.056627 -11.780256 0
M  V30 6 C 11.090411 7.247738 -12.210274 0
M  V30 7 C 10.798446 6.006439 -13.042574 0
M  V30 8 C 11.750192 5.361379 -13.847161 0
M  V30 9 C 11.410044 4.180123 -14.517163 0
M  V30 10 C 10.120849 3.637195 -14.380092 0
M  V30 11 C 9.105094 4.240937 -13.590736 0
M  V30 12 C 9.500754 5.433152 -12.922443 0
M  V30 13 C 8.402557 6.152451 -12.102065 0 CFG=1
M  V30 14 C 7.344316 5.209968 -11.503818 0
M  V30 15 C 6.886556 4.138823 -12.455039 0
M  V30 16 C 5.629708 3.558092 -12.246745 0
M  V30 17 C 5.242204 2.415595 -12.960093 0
M  V30 18 C 6.103218 1.848446 -13.927212 0
M  V30 19 O 5.822752 0.707421 -14.668903 0
M  V30 20 C 4.756117 -0.130567 -14.468678 0
M  V30 21 O 4.086399 -0.227583 -13.446925 0
M  V30 22 C 4.351683 -0.925604 -15.712794 0
M  V30 23 C 5.511919 -1.691119 -16.378071 0
M  V30 24 C 5.649166 -1.418577 -17.876427 0
M  V30 25 O 5.881269 -2.325667 -18.675274 0
M  V30 26 O 5.607018 -0.098873 -18.165281 0
M  V30 27 C 6.081250 0.356093 -19.369112 0
M  V30 28 C 5.147142 0.498941 -20.417027 0
M  V30 29 C 5.550828 0.971847 -21.675135 0
M  V30 30 C 6.891412 1.322460 -21.884674 0
M  V30 31 C 7.828092 1.195830 -20.839569 0
M  V30 32 C 7.450212 0.726715 -19.557388 0
M  V30 33 C 8.515750 0.598497 -18.518095 0
M  V30 34 C 8.247254 0.546165 -17.126192 0
M  V30 35 C 9.227900 0.298631 -16.152739 0
M  V30 36 C 10.565561 0.171403 -16.528067 0
M  V30 37 C 10.927338 0.274712 -17.879051 0
M  V30 38 C 9.899136 0.507778 -18.839550 0
M  V30 39 C 10.245664 0.640091 -20.335501 0 CFG=1
M  V30 40 C 9.271917 1.560451 -21.102787 0
M  V30 41 N 11.677766 0.950888 -20.615839 0 CFG=1 CHG=1
M  V30 42 C 12.071262 2.381382 -20.436481 0
M  V30 43 C 13.552461 2.679021 -20.743389 0
M  V30 44 C 13.950425 2.374234 -22.195011 0
M  V30 45 C 12.519130 -0.020405 -19.885036 0
M  V30 46 C 12.363975 0.185606 -18.379263 0
M  V30 47 C 7.314851 2.526548 -14.204496 0
M  V30 48 C 7.755716 3.644372 -13.446949 0
M  V30 49 H 10.329771 7.901918 -6.690444 0
M  V30 50 H 10.731965 6.327049 -7.373281 0
M  V30 51 H 9.056952 6.721290 -6.978530 0
M  V30 52 H 9.053221 8.500630 -8.743017 0
M  V30 53 H 10.727669 8.137463 -9.116995 0
M  V30 54 H 10.084277 5.855117 -9.919098 0
M  V30 55 H 8.463058 6.135834 -9.318687 0
M  V30 56 H 9.381520 8.514188 -12.646370 0
M  V30 57 H 10.136641 8.891763 -11.137356 0
M  V30 58 H 11.774553 7.844357 -12.804869 0
M  V30 59 H 11.663034 6.972317 -11.326912 0
M  V30 60 H 12.746962 5.768733 -13.939027 0
M  V30 61 H 12.145379 3.677439 -15.127614 0
M  V30 62 H 9.933702 2.716795 -14.903652 0
M  V30 63 H 7.866134 6.731058 -12.855779 0
M  V30 64 H 7.749172 4.649389 -10.661649 0
M  V30 65 H 6.486953 5.772171 -11.133365 0
M  V30 66 H 4.984188 3.963536 -11.482658 0
M  V30 67 H 4.270706 2.008270 -12.735703 0
M  V30 68 H 3.573725 -1.638112 -15.432992 0
M  V30 69 H 3.880311 -0.230927 -16.406767 0
M  V30 70 H 6.462107 -1.427794 -15.911407 0
M  V30 71 H 5.382472 -2.762400 -16.225552 0
M  V30 72 H 4.114240 0.222396 -20.260323 0
M  V30 73 H 4.837369 1.051639 -22.481339 0
M  V30 74 H 7.200404 1.678297 -22.856409 0
M  V30 75 H 7.250699 0.691759 -16.755859 0
M  V30 76 H 8.950783 0.218999 -15.111707 0
M  V30 77 H 11.304073 0.004422 -15.763855 0
M  V30 78 H 10.078478 -0.361165 -20.737518 0
M  V30 79 H 9.480920 1.526315 -22.173409 0
M  V30 80 H 9.374881 2.597206 -20.784889 0
M  V30 81 H 11.482541 3.010037 -21.103729 0
M  V30 82 H 11.831738 2.709935 -19.424580 0
M  V30 83 H 13.733099 3.738562 -20.557049 0
M  V30 84 H 14.213726 2.156180 -20.053061 0
M  V30 85 H 14.989140 2.652740 -22.375181 0
M  V30 86 H 13.333581 2.932182 -22.898964 0
M  V30 87 H 13.853159 1.313882 -22.427492 0
M  V30 88 H 12.200995 -1.027791 -20.151821 0
M  V30 89 H 13.564319 0.037774 -20.184885 0
M  V30 90 H 12.888538 1.087443 -18.061049 0
M  V30 91 H 12.851497 -0.638716 -17.859100 0
M  V30 92 H 7.935624 2.138486 -14.983483 0
M  V30 93 H 8.043941 7.698858 -10.887675 0
M  V30 94 H 11.817437 0.757690 -21.598436 0
M  V30 END ATOM
M  V30 BEGIN BOND
M  V30 1 1 2 1
M  V30 2 1 3 2
M  V30 3 1 4 3
M  V30 4 1 5 4
M  V30 5 1 6 5
M  V30 6 1 7 6
M  V30 7 1 8 7
M  V30 8 2 9 8
M  V30 9 1 10 9
M  V30 10 2 11 10
M  V30 11 2 12 7
M  V30 12 1 12 11
M  V30 13 1 13 4
M  V30 14 1 13 12
M  V30 15 1 14 13
M  V30 16 1 15 14
M  V30 17 2 16 15
M  V30 18 1 17 16
M  V30 19 2 18 17
M  V30 20 1 19 18
M  V30 21 1 20 19
M  V30 22 2 21 20
M  V30 23 1 22 20
M  V30 24 1 23 22
M  V30 25 1 24 23
M  V30 26 2 25 24
M  V30 27 1 26 24
M  V30 28 1 27 26
M  V30 29 2 28 27
M  V30 30 1 29 28
M  V30 31 2 30 29
M  V30 32 1 31 30
M  V30 33 1 32 27
M  V30 34 2 32 31
M  V30 35 1 33 32
M  V30 36 2 34 33
M  V30 37 1 35 34
M  V30 38 2 36 35
M  V30 39 1 37 36
M  V30 40 1 38 33
M  V30 41 2 38 37
M  V30 42 1 39 38
M  V30 43 1 40 31
M  V30 44 1 40 39
M  V30 45 1 41 39
M  V30 46 1 42 41
M  V30 47 1 43 42
M  V30 48 1 44 43
M  V30 49 1 45 41
M  V30 50 1 46 37
M  V30 51 1 46 45
M  V30 52 1 47 18
M  V30 53 1 48 11
M  V30 54 1 48 15
M  V30 55 2 48 47
M  V30 56 1 49 1
M  V30 57 1 50 1
M  V30 58 1 51 1
M  V30 59 1 52 2
M  V30 60 1 53 2
M  V30 61 1 54 3
M  V30 62 1 55 3
M  V30 63 1 56 5
M  V30 64 1 57 5
M  V30 65 1 58 6
M  V30 66 1 59 6
M  V30 67 1 60 8
M  V30 68 1 61 9
M  V30 69 1 62 10
M  V30 70 1 13 63 CFG=3
M  V30 71 1 64 14
M  V30 72 1 65 14
M  V30 73 1 66 16
M  V30 74 1 67 17
M  V30 75 1 68 22
M  V30 76 1 69 22
M  V30 77 1 70 23
M  V30 78 1 71 23
M  V30 79 1 72 28
M  V30 80 1 73 29
M  V30 81 1 74 30
M  V30 82 1 75 34
M  V30 83 1 76 35
M  V30 84 1 77 36
M  V30 85 1 39 78 CFG=3
M  V30 86 1 79 40
M  V30 87 1 80 40
M  V30 88 1 81 42
M  V30 89 1 82 42
M  V30 90 1 83 43
M  V30 91 1 84 43
M  V30 92 1 85 44
M  V30 93 1 86 44
M  V30 94 1 87 44
M  V30 95 1 88 45
M  V30 96 1 89 45
M  V30 97 1 90 46
M  V30 98 1 91 46
M  V30 99 1 92 47
M  V30 100 1 4 93 CFG=1
M  V30 101 1 41 94 CFG=3
M  V30 END BOND
M  V30 END CTAB
M  END
>  <b_m_subgroup_collapsed>  (300) 
0

>  <r_i_docking_score>  (300) 
-8.5727883914152994

>  <s_m_subgroup_title>  (300) 
glide-dock_SP_D22_pv

>  <s_m_subgroupid>  (300) 
glide-dock_SP_D22_pv

>  <Molecule ChEMBL ID>  (300) 
CHEMBL455318

>  <Standard Type>  (300) 
Ki

>  <Standard Value>  (300) 
10000.0

>  <label>  (300) 
0

$$$$
CHEMBL7806
     RDKit          3D

  0  0  0  0  0  0  0  0  0  0999 V3000
M  V30 BEGIN CTAB
M  V30 COUNTS 48 50 0 0 1
M  V30 BEGIN ATOM
M  V30 1 C 8.497824 3.421808 -8.246861 0
M  V30 2 C 9.258345 4.466381 -9.088598 0
M  V30 3 C 8.326713 5.668816 -9.326202 0
M  V30 4 N 8.969550 6.988222 -9.535837 0 CFG=2 CHG=1
M  V30 5 C 9.371871 7.225531 -10.960742 0
M  V30 6 C 10.891673 7.206394 -11.259454 0
M  V30 7 C 11.260501 6.772747 -12.653272 0
M  V30 8 C 12.298153 7.372249 -13.432336 0
M  V30 9 C 12.485992 6.771214 -14.648182 0
M  V30 10 S 11.428007 5.409032 -14.861313 0
M  V30 11 C 10.711356 5.689084 -13.298893 0
M  V30 12 C 9.908442 7.435486 -8.454197 0 CFG=1
M  V30 13 C 10.064197 8.964513 -8.438134 0
M  V30 14 C 11.249119 9.359331 -7.549465 0
M  V30 15 C 11.308561 8.612963 -6.223472 0
M  V30 16 C 12.166795 9.065932 -5.211846 0
M  V30 17 O 12.886021 10.172314 -5.446852 0
M  V30 18 C 12.347785 8.368671 -4.005774 0
M  V30 19 C 11.715910 7.131489 -3.841260 0
M  V30 20 C 10.863944 6.667724 -4.854620 0
M  V30 21 C 10.590743 7.426000 -6.011984 0
M  V30 22 C 9.539163 6.984623 -7.015175 0
M  V30 23 H 9.128950 2.622410 -7.856141 0
M  V30 24 H 7.955763 3.902273 -7.446949 0
M  V30 25 H 7.686021 2.972378 -8.796163 0
M  V30 26 H 9.599015 4.057579 -10.039730 0
M  V30 27 H 10.171184 4.745373 -8.568273 0
M  V30 28 H 7.685972 5.795967 -8.459377 0
M  V30 29 H 7.653524 5.444101 -10.151543 0
M  V30 30 H 8.846044 6.517607 -11.599331 0
M  V30 31 H 8.976189 8.195633 -11.263342 0
M  V30 32 H 11.299735 8.198955 -11.070221 0
M  V30 33 H 11.413838 6.572313 -10.560880 0
M  V30 34 H 12.884409 8.207071 -13.076529 0
M  V30 35 H 13.202711 7.025433 -15.415530 0
M  V30 36 H 9.941830 5.015295 -12.951686 0
M  V30 37 H 10.883097 6.987904 -8.629364 0
M  V30 38 H 9.144889 9.408496 -8.053174 0
M  V30 39 H 10.209912 9.381985 -9.433304 0
M  V30 40 H 11.286009 10.431795 -7.371459 0
M  V30 41 H 12.171370 9.118699 -8.080153 0
M  V30 42 H 13.747027 10.055273 -5.846667 0
M  V30 43 H 12.995670 8.755628 -3.234149 0
M  V30 44 H 11.855244 6.556063 -2.937379 0
M  V30 45 H 10.314767 5.772318 -4.673018 0
M  V30 46 H 9.435264 5.909062 -6.910712 0
M  V30 47 H 8.579214 7.411352 -6.718183 0
M  V30 48 H 8.152261 7.587523 -9.450330 0
M  V30 END ATOM
M  V30 BEGIN BOND
M  V30 1 1 2 1
M  V30 2 1 3 2
M  V30 3 1 4 3
M  V30 4 1 5 4
M  V30 5 1 6 5
M  V30 6 1 7 6
M  V30 7 1 8 7
M  V30 8 2 9 8
M  V30 9 1 10 9
M  V30 10 2 11 7
M  V30 11 1 11 10
M  V30 12 1 12 4
M  V30 13 1 13 12
M  V30 14 1 14 13
M  V30 15 1 15 14
M  V30 16 2 16 15
M  V30 17 1 17 16
M  V30 18 1 18 16
M  V30 19 2 19 18
M  V30 20 1 20 19
M  V30 21 1 21 15
M  V30 22 2 21 20
M  V30 23 1 22 12
M  V30 24 1 22 21
M  V30 25 1 23 1
M  V30 26 1 24 1
M  V30 27 1 25 1
M  V30 28 1 26 2
M  V30 29 1 27 2
M  V30 30 1 28 3
M  V30 31 1 29 3
M  V30 32 1 30 5
M  V30 33 1 31 5
M  V30 34 1 32 6
M  V30 35 1 33 6
M  V30 36 1 34 8
M  V30 37 1 35 9
M  V30 38 1 36 11
M  V30 39 1 12 37 CFG=3
M  V30 40 1 38 13
M  V30 41 1 39 13
M  V30 42 1 40 14
M  V30 43 1 41 14
M  V30 44 1 42 17
M  V30 45 1 43 18
M  V30 46 1 44 19
M  V30 47 1 45 20
M  V30 48 1 46 22
M  V30 49 1 47 22
M  V30 50 1 4 48 CFG=1
M  V30 END BOND
M  V30 END CTAB
M  END
>  <b_m_subgroup_collapsed>  (301) 
0

>  <r_i_docking_score>  (301) 
-8.5711671882738507

>  <s_m_subgroup_title>  (301) 
glide-dock_SP_D22_pv

>  <s_m_subgroupid>  (301) 
glide-dock_SP_D22_pv

>  <Molecule ChEMBL ID>  (301) 
CHEMBL7806

>  <Standard Type>  (301) 
Ki

>  <Standard Value>  (301) 
0.14

>  <label>  (301) 
1

$$$$
CHEMBL2111528
     RDKit          3D

  0  0  0  0  0  0  0  0  0  0999 V3000
M  V30 BEGIN CTAB
M  V30 COUNTS 57 60 0 0 1
M  V30 BEGIN ATOM
M  V30 1 C 5.540159 -0.279818 -14.576560 0
M  V30 2 O 6.247210 0.938469 -14.386326 0
M  V30 3 C 7.435687 1.135785 -15.061423 0
M  V30 4 C 7.918162 0.214445 -16.022932 0
M  V30 5 C 9.168159 0.383900 -16.644444 0
M  V30 6 C 9.955851 1.497717 -16.328079 0
M  V30 7 Br 11.656640 1.734995 -17.150215 0
M  V30 8 C 9.472303 2.450995 -15.417541 0
M  V30 9 C 8.213058 2.296171 -14.788706 0
M  V30 10 C 7.769698 3.376689 -13.896881 0
M  V30 11 N 8.584471 4.316347 -13.410672 0
M  V30 12 C 7.918941 5.309398 -12.700485 0
M  V30 13 C 8.703037 6.452931 -12.166232 0
M  V30 14 N 8.486192 6.572288 -10.719769 0 CHG=1
M  V30 15 C 9.222458 7.697544 -10.102414 0
M  V30 16 C 10.528418 7.256477 -9.427220 0 CFG=1
M  V30 17 C 11.467058 8.434611 -9.117545 0
M  V30 18 C 12.047328 8.106391 -7.746387 0
M  V30 19 N 10.936322 7.430035 -7.049944 0 CFG=2 CHG=1
M  V30 20 C 11.272594 6.712292 -5.797815 0
M  V30 21 C 11.627072 7.595181 -4.612504 0
M  V30 22 C 12.154860 6.973490 -3.460935 0
M  V30 23 C 12.472927 7.730873 -2.321511 0
M  V30 24 C 12.242187 9.114874 -2.314677 0
M  V30 25 C 11.686007 9.738258 -3.444978 0
M  V30 26 C 11.376809 8.986583 -4.591496 0
M  V30 27 C 10.285170 6.576823 -8.064495 0
M  V30 28 C 6.565848 5.110481 -12.610639 0
M  V30 29 S 6.084209 3.663048 -13.444145 0
M  V30 30 H 4.670013 -0.298231 -13.917644 0
M  V30 31 H 5.173113 -0.372657 -15.600267 0
M  V30 32 H 6.156357 -1.147211 -14.332132 0
M  V30 33 H 7.336516 -0.642923 -16.306511 0
M  V30 34 H 9.522358 -0.341381 -17.359930 0
M  V30 35 H 10.085836 3.316349 -15.219122 0
M  V30 36 H 9.770077 6.325048 -12.367655 0
M  V30 37 H 8.390453 7.377824 -12.651289 0
M  V30 38 H 7.502318 6.851040 -10.594522 0
M  V30 39 H 9.414660 8.471461 -10.847646 0
M  V30 40 H 8.558007 8.159391 -9.366095 0
M  V30 41 H 11.065893 6.573164 -10.084414 0
M  V30 42 H 12.241958 8.571684 -9.873904 0
M  V30 43 H 10.904333 9.367824 -9.056068 0
M  V30 44 H 12.885276 7.417136 -7.851262 0
M  V30 45 H 12.409946 8.995053 -7.229641 0
M  V30 46 H 10.382468 6.167291 -5.488995 0
M  V30 47 H 12.069934 5.985241 -5.975460 0
M  V30 48 H 12.318556 5.905074 -3.445316 0
M  V30 49 H 12.882778 7.246759 -1.449067 0
M  V30 50 H 12.476471 9.700046 -1.436453 0
M  V30 51 H 11.475814 10.796040 -3.419833 0
M  V30 52 H 10.923834 9.499173 -5.425934 0
M  V30 53 H 9.227215 6.437187 -7.828332 0
M  V30 54 H 10.752430 5.590435 -8.067762 0
M  V30 55 H 5.824326 5.721780 -12.111992 0
M  V30 56 H 10.263186 8.143332 -6.806986 0
M  V30 57 H 8.644060 5.695347 -10.245643 0
M  V30 END ATOM
M  V30 BEGIN BOND
M  V30 1 1 2 1
M  V30 2 1 3 2
M  V30 3 1 4 3
M  V30 4 2 5 4
M  V30 5 1 6 5
M  V30 6 1 7 6
M  V30 7 2 8 6
M  V30 8 2 9 3
M  V30 9 1 9 8
M  V30 10 1 10 9
M  V30 11 2 11 10
M  V30 12 1 12 11
M  V30 13 1 13 12
M  V30 14 1 14 13
M  V30 15 1 15 14
M  V30 16 1 16 15
M  V30 17 1 17 16
M  V30 18 1 18 17
M  V30 19 1 19 18
M  V30 20 1 20 19
M  V30 21 1 21 20
M  V30 22 2 22 21
M  V30 23 1 23 22
M  V30 24 2 24 23
M  V30 25 1 25 24
M  V30 26 1 26 21
M  V30 27 2 26 25
M  V30 28 1 27 16
M  V30 29 1 27 19
M  V30 30 2 28 12
M  V30 31 1 29 10
M  V30 32 1 29 28
M  V30 33 1 30 1
M  V30 34 1 31 1
M  V30 35 1 32 1
M  V30 36 1 33 4
M  V30 37 1 34 5
M  V30 38 1 35 8
M  V30 39 1 36 13
M  V30 40 1 37 13
M  V30 41 1 38 14
M  V30 42 1 39 15
M  V30 43 1 40 15
M  V30 44 1 16 41 CFG=3
M  V30 45 1 42 17
M  V30 46 1 43 17
M  V30 47 1 44 18
M  V30 48 1 45 18
M  V30 49 1 46 20
M  V30 50 1 47 20
M  V30 51 1 48 22
M  V30 52 1 49 23
M  V30 53 1 50 24
M  V30 54 1 51 25
M  V30 55 1 52 26
M  V30 56 1 53 27
M  V30 57 1 54 27
M  V30 58 1 55 28
M  V30 59 1 19 56 CFG=1
M  V30 60 1 57 14
M  V30 END BOND
M  V30 END CTAB
M  END
>  <b_m_subgroup_collapsed>  (302) 
0

>  <r_i_docking_score>  (302) 
-8.5697583613021404

>  <s_m_subgroup_title>  (302) 
glide-dock_SP_D22_pv

>  <s_m_subgroupid>  (302) 
glide-dock_SP_D22_pv

>  <Molecule ChEMBL ID>  (302) 
CHEMBL2111528

>  <Standard Type>  (302) 
Ki

>  <Standard Value>  (302) 
92.0

>  <label>  (302) 
1

$$$$
CHEMBL4742856
     RDKit          3D

  0  0  0  0  0  0  0  0  0  0999 V3000
M  V30 BEGIN CTAB
M  V30 COUNTS 58 62 0 0 1
M  V30 BEGIN ATOM
M  V30 1 C 4.708915 -0.656227 -14.421458 0
M  V30 2 N 5.891412 0.181309 -14.465734 0
M  V30 3 C 7.032018 -0.111528 -15.190193 0
M  V30 4 C 7.949925 0.894197 -15.061903 0
M  V30 5 C 7.326077 1.919646 -14.274117 0
M  V30 6 C 7.673450 3.228420 -13.847025 0
M  V30 7 S 9.332773 3.878751 -14.122426 0
M  V30 8 O 9.263588 4.972312 -15.099498 0
M  V30 9 O 10.257154 2.754354 -14.330042 0
M  V30 10 N 9.762919 4.574939 -12.595224 0
M  V30 11 C 9.170590 5.836040 -12.117475 0 CFG=2
M  V30 12 C 10.252892 6.859471 -11.787386 0
M  V30 13 C 10.233504 6.982235 -10.268136 0
M  V30 14 N 8.886773 6.575479 -9.817636 0 CFG=2 CHG=1
M  V30 15 C 8.796138 6.085070 -8.418604 0
M  V30 16 C 9.157263 7.155050 -7.370914 0
M  V30 17 C 10.664313 7.235164 -7.062216 0
M  V30 18 C 10.978531 8.228362 -5.990153 0
M  V30 19 N 10.886484 9.537786 -6.215787 0
M  V30 20 O 11.281454 10.194277 -5.016870 0
M  V30 21 C 11.637257 9.252738 -4.064449 0
M  V30 22 C 12.086354 9.371907 -2.744466 0
M  V30 23 C 12.365390 8.184565 -2.036458 0
M  V30 24 C 12.160404 6.921717 -2.643295 0
M  V30 25 C 11.686936 6.829964 -3.968723 0
M  V30 26 C 11.434504 8.019199 -4.680407 0
M  V30 27 C 8.372756 5.617107 -10.812071 0
M  V30 28 C 6.737962 4.019794 -13.150246 0
M  V30 29 C 5.525037 3.485307 -12.707758 0
M  V30 30 C 5.183249 2.170343 -13.046817 0
M  V30 31 C 6.049017 1.420320 -13.866168 0
M  V30 32 H 4.973095 -1.696063 -14.633308 0
M  V30 33 H 4.243006 -0.604578 -13.440880 0
M  V30 34 H 3.990794 -0.311368 -15.168602 0
M  V30 35 H 7.089547 -1.027299 -15.756136 0
M  V30 36 H 8.928095 0.937787 -15.519401 0
M  V30 37 H 9.907902 3.869555 -11.872730 0
M  V30 38 H 8.558162 6.279219 -12.902756 0
M  V30 39 H 9.992802 7.820942 -12.232755 0
M  V30 40 H 11.236225 6.581485 -12.172480 0
M  V30 41 H 10.477139 7.995554 -9.948188 0
M  V30 42 H 10.967727 6.295618 -9.847344 0
M  V30 43 H 9.406345 5.191773 -8.281025 0
M  V30 44 H 7.763713 5.772047 -8.248722 0
M  V30 45 H 8.640008 6.902459 -6.444962 0
M  V30 46 H 8.763176 8.129309 -7.668972 0
M  V30 47 H 11.246763 7.500468 -7.939300 0
M  V30 48 H 11.022738 6.247720 -6.764763 0
M  V30 49 H 12.203502 10.337691 -2.279164 0
M  V30 50 H 12.725101 8.242531 -1.021438 0
M  V30 51 H 12.364100 6.017131 -2.087914 0
M  V30 52 H 11.530562 5.863526 -4.424707 0
M  V30 53 H 8.502741 4.596177 -10.447731 0
M  V30 54 H 7.300913 5.771564 -10.934811 0
M  V30 55 H 6.921144 5.049911 -12.929738 0
M  V30 56 H 4.870886 4.108841 -12.122319 0
M  V30 57 H 4.225429 1.773035 -12.754942 0
M  V30 58 H 8.255466 7.372146 -9.894165 0
M  V30 END ATOM
M  V30 BEGIN BOND
M  V30 1 1 2 1
M  V30 2 1 3 2
M  V30 3 2 4 3
M  V30 4 1 5 4
M  V30 5 2 6 5
M  V30 6 1 7 6
M  V30 7 2 8 7
M  V30 8 2 9 7
M  V30 9 1 10 7
M  V30 10 1 11 10
M  V30 11 1 12 11
M  V30 12 1 13 12
M  V30 13 1 14 13
M  V30 14 1 15 14
M  V30 15 1 16 15
M  V30 16 1 17 16
M  V30 17 1 18 17
M  V30 18 2 19 18
M  V30 19 1 20 19
M  V30 20 1 21 20
M  V30 21 2 22 21
M  V30 22 1 23 22
M  V30 23 2 24 23
M  V30 24 1 25 24
M  V30 25 1 26 18
M  V30 26 1 26 21
M  V30 27 2 26 25
M  V30 28 1 27 11
M  V30 29 1 27 14
M  V30 30 1 28 6
M  V30 31 2 29 28
M  V30 32 1 30 29
M  V30 33 1 31 2
M  V30 34 1 31 5
M  V30 35 2 31 30
M  V30 36 1 32 1
M  V30 37 1 33 1
M  V30 38 1 34 1
M  V30 39 1 35 3
M  V30 40 1 36 4
M  V30 41 1 37 10
M  V30 42 1 11 38 CFG=3
M  V30 43 1 39 12
M  V30 44 1 40 12
M  V30 45 1 41 13
M  V30 46 1 42 13
M  V30 47 1 43 15
M  V30 48 1 44 15
M  V30 49 1 45 16
M  V30 50 1 46 16
M  V30 51 1 47 17
M  V30 52 1 48 17
M  V30 53 1 49 22
M  V30 54 1 50 23
M  V30 55 1 51 24
M  V30 56 1 52 25
M  V30 57 1 53 27
M  V30 58 1 54 27
M  V30 59 1 55 28
M  V30 60 1 56 29
M  V30 61 1 57 30
M  V30 62 1 14 58 CFG=1
M  V30 END BOND
M  V30 END CTAB
M  END
>  <b_m_subgroup_collapsed>  (303) 
0

>  <r_i_docking_score>  (303) 
-8.5656478008256904

>  <s_m_subgroup_title>  (303) 
glide-dock_SP_D22_pv

>  <s_m_subgroupid>  (303) 
glide-dock_SP_D22_pv

>  <Molecule ChEMBL ID>  (303) 
CHEMBL4742856

>  <Standard Type>  (303) 
Ki

>  <Standard Value>  (303) 
9.12

>  <label>  (303) 
1

$$$$
CHEMBL495075
     RDKit          3D

  0  0  0  0  0  0  0  0  0  0999 V3000
M  V30 BEGIN CTAB
M  V30 COUNTS 59 62 0 0 1
M  V30 BEGIN ATOM
M  V30 1 O 11.123469 8.804436 -8.730040 0
M  V30 2 C 10.729674 8.076003 -7.820835 0
M  V30 3 N 10.054289 6.938503 -7.998499 0
M  V30 4 C 9.858112 6.234084 -9.248017 0 CFG=1
M  V30 5 C 8.886516 5.078697 -9.089218 0
M  V30 6 C 8.488074 4.834667 -10.532969 0
M  V30 7 N 8.404885 6.170447 -11.162854 0 CFG=2 CHG=1
M  V30 8 C 8.523668 6.209835 -12.646482 0
M  V30 9 C 8.347021 4.864955 -13.349710 0
M  V30 10 C 7.082505 4.245506 -13.446843 0
M  V30 11 C 6.948472 2.997077 -14.090992 0
M  V30 12 C 8.077164 2.351667 -14.661392 0
M  V30 13 O 8.037921 1.148950 -15.342816 0
M  V30 14 C 6.787620 0.581735 -15.717772 0
M  V30 15 C 6.990768 -0.227856 -17.011322 0
M  V30 16 C 5.723683 -1.019500 -17.393740 0
M  V30 17 N 5.286716 -1.885873 -16.275826 0 CHG=1
M  V30 18 C 5.000267 -1.114791 -15.046662 0
M  V30 19 C 6.242975 -0.323881 -14.591993 0
M  V30 20 C 9.338207 2.977316 -14.548923 0
M  V30 21 Br 10.885159 2.167118 -15.305958 0
M  V30 22 C 9.471957 4.218108 -13.900091 0
M  V30 23 C 9.286615 7.082901 -10.395174 0
M  V30 24 C 10.977823 8.404800 -6.386814 0
M  V30 25 C 10.976304 9.746827 -5.958484 0
M  V30 26 C 11.286220 10.052821 -4.622949 0
M  V30 27 C 11.677997 9.033635 -3.738497 0
M  V30 28 Cl 12.090652 9.372487 -2.109447 0
M  V30 29 C 11.686164 7.702288 -4.162190 0
M  V30 30 Cl 12.127116 6.486526 -3.037636 0
M  V30 31 C 11.289045 7.375224 -5.468180 0
M  V30 32 H 9.714845 6.480781 -7.165965 0
M  V30 33 H 10.822964 5.834560 -9.559385 0
M  V30 34 H 9.334618 4.199578 -8.623277 0
M  V30 35 H 8.019087 5.380349 -8.499218 0
M  V30 36 H 9.277688 4.243726 -11.000980 0
M  V30 37 H 7.554976 4.279550 -10.626773 0
M  V30 38 H 7.801151 6.928257 -13.035920 0
M  V30 39 H 9.508954 6.586208 -12.920335 0
M  V30 40 H 6.210280 4.721643 -13.022326 0
M  V30 41 H 5.963765 2.559019 -14.135646 0
M  V30 42 H 6.086134 1.371782 -15.963839 0
M  V30 43 H 7.270784 0.443049 -17.824989 0
M  V30 44 H 7.826137 -0.916726 -16.893118 0
M  V30 45 H 4.914675 -0.338422 -17.662186 0
M  V30 46 H 5.918443 -1.637251 -18.269447 0
M  V30 47 H 4.461421 -2.409144 -16.545694 0
M  V30 48 H 4.160558 -0.441521 -15.226961 0
M  V30 49 H 4.691348 -1.809928 -14.265024 0
M  V30 50 H 7.019958 -1.026493 -14.286131 0
M  V30 51 H 6.006242 0.266558 -13.706635 0
M  V30 52 H 10.449540 4.673706 -13.833461 0
M  V30 53 H 8.690951 7.915776 -10.019932 0
M  V30 54 H 10.092154 7.508238 -10.994474 0
M  V30 55 H 10.738090 10.545460 -6.646751 0
M  V30 56 H 11.268941 11.072989 -4.288429 0
M  V30 57 H 11.307420 6.337700 -5.770446 0
M  V30 58 H 6.031316 -2.542398 -16.071861 0
M  V30 59 H 7.473625 6.518027 -10.937134 0
M  V30 END ATOM
M  V30 BEGIN BOND
M  V30 1 2 2 1
M  V30 2 1 3 2
M  V30 3 1 4 3
M  V30 4 1 5 4
M  V30 5 1 6 5
M  V30 6 1 7 6
M  V30 7 1 8 7
M  V30 8 1 9 8
M  V30 9 1 10 9
M  V30 10 2 11 10
M  V30 11 1 12 11
M  V30 12 1 13 12
M  V30 13 1 14 13
M  V30 14 1 15 14
M  V30 15 1 16 15
M  V30 16 1 17 16
M  V30 17 1 18 17
M  V30 18 1 19 14
M  V30 19 1 19 18
M  V30 20 2 20 12
M  V30 21 1 21 20
M  V30 22 2 22 9
M  V30 23 1 22 20
M  V30 24 1 23 4
M  V30 25 1 23 7
M  V30 26 1 24 2
M  V30 27 1 25 24
M  V30 28 2 26 25
M  V30 29 1 27 26
M  V30 30 1 28 27
M  V30 31 2 29 27
M  V30 32 1 30 29
M  V30 33 2 31 24
M  V30 34 1 31 29
M  V30 35 1 32 3
M  V30 36 1 4 33 CFG=3
M  V30 37 1 34 5
M  V30 38 1 35 5
M  V30 39 1 36 6
M  V30 40 1 37 6
M  V30 41 1 38 8
M  V30 42 1 39 8
M  V30 43 1 40 10
M  V30 44 1 41 11
M  V30 45 1 42 14
M  V30 46 1 43 15
M  V30 47 1 44 15
M  V30 48 1 45 16
M  V30 49 1 46 16
M  V30 50 1 47 17
M  V30 51 1 48 18
M  V30 52 1 49 18
M  V30 53 1 50 19
M  V30 54 1 51 19
M  V30 55 1 52 22
M  V30 56 1 53 23
M  V30 57 1 54 23
M  V30 58 1 55 25
M  V30 59 1 56 26
M  V30 60 1 57 31
M  V30 61 1 58 17
M  V30 62 1 7 59 CFG=3
M  V30 END BOND
M  V30 END CTAB
M  END
>  <b_m_subgroup_collapsed>  (304) 
0

>  <r_i_docking_score>  (304) 
-8.5622336095574294

>  <s_m_subgroup_title>  (304) 
glide-dock_SP_D22_pv

>  <s_m_subgroupid>  (304) 
glide-dock_SP_D22_pv

>  <Molecule ChEMBL ID>  (304) 
CHEMBL495075

>  <Standard Type>  (304) 
Ki

>  <Standard Value>  (304) 
100.0

>  <label>  (304) 
1

$$$$
CHEMBL2031885
     RDKit          3D

  0  0  0  0  0  0  0  0  0  0999 V3000
M  V30 BEGIN CTAB
M  V30 COUNTS 66 70 0 0 1
M  V30 BEGIN ATOM
M  V30 1 C 13.406586 1.015202 -18.846069 0
M  V30 2 C 12.171046 0.569744 -18.050266 0 CFG=2
M  V30 3 C 11.436780 -0.619241 -18.698669 0
M  V30 4 C 10.062302 -0.083251 -19.096550 0
M  V30 5 C 9.843205 1.077832 -18.134209 0
M  V30 6 N 11.184192 1.670417 -17.950542 0 CFG=1 CHG=1
M  V30 7 C 11.323709 2.519306 -16.742901 0
M  V30 8 C 10.623478 3.880632 -16.923077 0
M  V30 9 N 10.710935 4.692610 -15.705449 0
M  V30 10 C 11.711213 5.772020 -15.732519 0
M  V30 11 C 12.253494 6.130443 -14.340352 0
M  V30 12 C 11.157341 6.170676 -13.296793 0
M  V30 13 C 11.297631 6.977341 -12.147818 0
M  V30 14 C 10.336732 6.959337 -11.104334 0
M  V30 15 C 10.563474 7.654337 -9.807479 0
M  V30 16 C 9.498561 7.911024 -8.910875 0
M  V30 17 C 9.711185 8.460277 -7.632758 0
M  V30 18 C 11.016767 8.778299 -7.216611 0
M  V30 19 C 11.258601 9.373694 -5.864915 0
M  V30 20 O 11.285841 10.595237 -5.746868 0
M  V30 21 N 11.446801 8.530873 -4.827311 0
M  V30 22 C 11.769565 9.006212 -3.485116 0
M  V30 23 C 12.199437 7.780745 -2.683675 0
M  V30 24 C 11.677267 6.572486 -3.452199 0
M  V30 25 C 11.368654 7.069414 -4.869291 0
M  V30 26 C 12.089255 8.572418 -8.104874 0
M  V30 27 C 11.863240 8.022185 -9.381414 0
M  V30 28 C 9.184119 6.161357 -11.306530 0
M  V30 29 C 9.017132 5.383643 -12.466254 0
M  V30 30 C 10.010050 5.368195 -13.465322 0
M  V30 31 C 9.862711 4.477798 -14.669847 0
M  V30 32 O 8.992984 3.605243 -14.692744 0
M  V30 33 H 14.120117 0.199614 -18.955843 0
M  V30 34 H 13.138810 1.351816 -19.848579 0
M  V30 35 H 13.921233 1.836151 -18.343775 0
M  V30 36 H 12.479154 0.267430 -17.047382 0
M  V30 37 H 11.320015 -1.427266 -17.971792 0
M  V30 38 H 11.976631 -1.028846 -19.559082 0
M  V30 39 H 9.277112 -0.838880 -19.038513 0
M  V30 40 H 10.095695 0.284185 -20.124609 0
M  V30 41 H 9.471419 0.696806 -17.179962 0
M  V30 42 H 9.120921 1.799298 -18.515406 0
M  V30 43 H 12.383242 2.698153 -16.550058 0
M  V30 44 H 10.943660 1.985382 -15.869931 0
M  V30 45 H 9.574235 3.741107 -17.191631 0
M  V30 46 H 11.065531 4.419950 -17.761593 0
M  V30 47 H 11.241187 6.651053 -16.173429 0
M  V30 48 H 12.549193 5.511683 -16.381874 0
M  V30 49 H 12.792081 7.078165 -14.371754 0
M  V30 50 H 12.969077 5.367923 -14.031518 0
M  V30 51 H 12.193440 7.572968 -12.055352 0
M  V30 52 H 8.486525 7.672492 -9.183108 0
M  V30 53 H 8.867962 8.630562 -6.977614 0
M  V30 54 H 12.559511 9.759484 -3.501629 0
M  V30 55 H 10.884143 9.464780 -3.045820 0
M  V30 56 H 13.285819 7.738463 -2.642754 0
M  V30 57 H 11.833213 7.812705 -1.658096 0
M  V30 58 H 12.415494 5.772723 -3.450575 0
M  V30 59 H 10.776527 6.174202 -2.983311 0
M  V30 60 H 10.375977 6.743213 -5.185546 0
M  V30 61 H 12.084617 6.660324 -5.582231 0
M  V30 62 H 13.095777 8.836594 -7.811196 0
M  V30 63 H 12.723074 7.858006 -10.011574 0
M  V30 64 H 8.410631 6.096771 -10.556330 0
M  V30 65 H 8.128246 4.777173 -12.562459 0
M  V30 66 H 11.349781 2.256062 -18.756351 0
M  V30 END ATOM
M  V30 BEGIN BOND
M  V30 1 1 2 1
M  V30 2 1 3 2
M  V30 3 1 4 3
M  V30 4 1 5 4
M  V30 5 1 6 2
M  V30 6 1 6 5
M  V30 7 1 7 6
M  V30 8 1 8 7
M  V30 9 1 9 8
M  V30 10 1 10 9
M  V30 11 1 11 10
M  V30 12 1 12 11
M  V30 13 1 13 12
M  V30 14 2 14 13
M  V30 15 1 15 14
M  V30 16 1 16 15
M  V30 17 2 17 16
M  V30 18 1 18 17
M  V30 19 1 19 18
M  V30 20 2 20 19
M  V30 21 1 21 19
M  V30 22 1 22 21
M  V30 23 1 23 22
M  V30 24 1 24 23
M  V30 25 1 25 21
M  V30 26 1 25 24
M  V30 27 2 26 18
M  V30 28 2 27 15
M  V30 29 1 27 26
M  V30 30 1 28 14
M  V30 31 2 29 28
M  V30 32 2 30 12
M  V30 33 1 30 29
M  V30 34 1 31 9
M  V30 35 1 31 30
M  V30 36 2 32 31
M  V30 37 1 33 1
M  V30 38 1 34 1
M  V30 39 1 35 1
M  V30 40 1 2 36 CFG=1
M  V30 41 1 37 3
M  V30 42 1 38 3
M  V30 43 1 39 4
M  V30 44 1 40 4
M  V30 45 1 41 5
M  V30 46 1 42 5
M  V30 47 1 43 7
M  V30 48 1 44 7
M  V30 49 1 45 8
M  V30 50 1 46 8
M  V30 51 1 47 10
M  V30 52 1 48 10
M  V30 53 1 49 11
M  V30 54 1 50 11
M  V30 55 1 51 13
M  V30 56 1 52 16
M  V30 57 1 53 17
M  V30 58 1 54 22
M  V30 59 1 55 22
M  V30 60 1 56 23
M  V30 61 1 57 23
M  V30 62 1 58 24
M  V30 63 1 59 24
M  V30 64 1 60 25
M  V30 65 1 61 25
M  V30 66 1 62 26
M  V30 67 1 63 27
M  V30 68 1 64 28
M  V30 69 1 65 29
M  V30 70 1 6 66 CFG=3
M  V30 END BOND
M  V30 END CTAB
M  END
>  <b_m_subgroup_collapsed>  (305) 
0

>  <r_i_docking_score>  (305) 
-8.5607401517101405

>  <s_m_subgroup_title>  (305) 
glide-dock_SP_D22_pv

>  <s_m_subgroupid>  (305) 
glide-dock_SP_D22_pv

>  <Molecule ChEMBL ID>  (305) 
CHEMBL2031885

>  <Standard Type>  (305) 
Ki

>  <Standard Value>  (305) 
10000.0

>  <label>  (305) 
0

$$$$
CHEMBL5779786
     RDKit          3D

  0  0  0  0  0  0  0  0  0  0999 V3000
M  V30 BEGIN CTAB
M  V30 COUNTS 62 65 0 0 1
M  V30 BEGIN ATOM
M  V30 1 O 11.280967 6.285064 -12.661734 0
M  V30 2 C 10.208482 5.802035 -13.022953 0
M  V30 3 N 10.123985 4.865632 -13.976120 0
M  V30 4 C 11.274938 4.319783 -14.691018 0 CFG=2
M  V30 5 C 11.820496 5.328796 -15.703137 0
M  V30 6 C 11.064115 5.697631 -16.838558 0
M  V30 7 C 11.608378 6.572373 -17.800089 0
M  V30 8 C 12.899248 7.104837 -17.617365 0
M  V30 9 F 13.424752 7.941832 -18.541338 0
M  V30 10 C 13.647561 6.759681 -16.475784 0
M  V30 11 C 13.108169 5.874969 -15.522170 0
M  V30 12 C 10.978982 2.956894 -15.318399 0
M  V30 13 C 10.003354 2.090055 -14.767038 0
M  V30 14 C 9.730145 0.847979 -15.372588 0
M  V30 15 C 10.433892 0.462748 -16.528423 0
M  V30 16 Cl 10.085762 -1.027324 -17.305748 0
M  V30 17 C 11.428191 1.295974 -17.063200 0
M  V30 18 C 11.704782 2.529752 -16.454271 0
M  V30 19 C 8.885787 6.370341 -12.473630 0 CFG=1
M  V30 20 C 8.141822 5.384200 -11.554648 0
M  V30 21 C 8.803554 5.259652 -10.173121 0
M  V30 22 N 8.885999 6.583960 -9.506103 0 CFG=1 CHG=1
M  V30 23 C 9.328350 6.476288 -8.091509 0
M  V30 24 C 8.914839 7.684309 -7.222212 0
M  V30 25 O 10.010465 8.563067 -6.977157 0
M  V30 26 C 10.768869 8.338414 -5.846323 0
M  V30 27 C 10.944837 7.060678 -5.254050 0
M  V30 28 C 11.686591 6.922535 -4.064535 0
M  V30 29 C 12.263602 8.048137 -3.453171 0
M  V30 30 C 12.114109 9.313871 -4.045512 0
M  V30 31 C 11.383604 9.456113 -5.242248 0
M  V30 32 C 9.656409 7.565943 -10.309434 0
M  V30 33 C 9.062098 7.719138 -11.729709 0
M  V30 34 H 9.211483 4.542317 -14.261782 0
M  V30 35 H 12.057725 4.121685 -13.955688 0
M  V30 36 H 10.074819 5.288788 -16.987040 0
M  V30 37 H 11.035175 6.841867 -18.674734 0
M  V30 38 H 14.638747 7.165528 -16.335812 0
M  V30 39 H 13.687076 5.610155 -14.652414 0
M  V30 40 H 9.456678 2.358746 -13.874384 0
M  V30 41 H 8.975784 0.195266 -14.954253 0
M  V30 42 H 11.981235 0.990094 -17.939785 0
M  V30 43 H 12.483873 3.144128 -16.883593 0
M  V30 44 H 8.254956 6.559735 -13.343548 0
M  V30 45 H 8.065907 4.400649 -12.020802 0
M  V30 46 H 7.116629 5.739111 -11.427172 0
M  V30 47 H 9.799190 4.820669 -10.254787 0
M  V30 48 H 8.206959 4.578478 -9.564812 0
M  V30 49 H 10.402445 6.291976 -8.044333 0
M  V30 50 H 8.851309 5.598962 -7.653614 0
M  V30 51 H 8.495521 7.343365 -6.272690 0
M  V30 52 H 8.117517 8.255568 -7.695898 0
M  V30 53 H 10.509188 6.169548 -5.680888 0
M  V30 54 H 11.802749 5.946700 -3.615142 0
M  V30 55 H 12.823989 7.941097 -2.536814 0
M  V30 56 H 12.565340 10.170810 -3.571519 0
M  V30 57 H 11.270228 10.434760 -5.685690 0
M  V30 58 H 9.641026 8.538073 -9.815931 0
M  V30 59 H 10.701079 7.258541 -10.352974 0
M  V30 60 H 9.685311 8.400064 -12.310245 0
M  V30 61 H 8.091908 8.212400 -11.666609 0
M  V30 62 H 7.927965 6.938094 -9.494248 0
M  V30 END ATOM
M  V30 BEGIN BOND
M  V30 1 2 2 1
M  V30 2 1 3 2
M  V30 3 1 4 3
M  V30 4 1 5 4
M  V30 5 1 6 5
M  V30 6 2 7 6
M  V30 7 1 8 7
M  V30 8 1 9 8
M  V30 9 2 10 8
M  V30 10 2 11 5
M  V30 11 1 11 10
M  V30 12 1 12 4
M  V30 13 1 13 12
M  V30 14 2 14 13
M  V30 15 1 15 14
M  V30 16 1 16 15
M  V30 17 2 17 15
M  V30 18 2 18 12
M  V30 19 1 18 17
M  V30 20 1 19 2
M  V30 21 1 20 19
M  V30 22 1 21 20
M  V30 23 1 22 21
M  V30 24 1 23 22
M  V30 25 1 24 23
M  V30 26 1 25 24
M  V30 27 1 26 25
M  V30 28 2 27 26
M  V30 29 1 28 27
M  V30 30 2 29 28
M  V30 31 1 30 29
M  V30 32 1 31 26
M  V30 33 2 31 30
M  V30 34 1 32 22
M  V30 35 1 33 19
M  V30 36 1 33 32
M  V30 37 1 34 3
M  V30 38 1 4 35 CFG=1
M  V30 39 1 36 6
M  V30 40 1 37 7
M  V30 41 1 38 10
M  V30 42 1 39 11
M  V30 43 1 40 13
M  V30 44 1 41 14
M  V30 45 1 42 17
M  V30 46 1 43 18
M  V30 47 1 19 44 CFG=3
M  V30 48 1 45 20
M  V30 49 1 46 20
M  V30 50 1 47 21
M  V30 51 1 48 21
M  V30 52 1 49 23
M  V30 53 1 50 23
M  V30 54 1 51 24
M  V30 55 1 52 24
M  V30 56 1 53 27
M  V30 57 1 54 28
M  V30 58 1 55 29
M  V30 59 1 56 30
M  V30 60 1 57 31
M  V30 61 1 58 32
M  V30 62 1 59 32
M  V30 63 1 60 33
M  V30 64 1 61 33
M  V30 65 1 22 62 CFG=1
M  V30 END BOND
M  V30 END CTAB
M  END
>  <b_m_subgroup_collapsed>  (306) 
0

>  <r_i_docking_score>  (306) 
-8.5578944332327502

>  <s_m_subgroup_title>  (306) 
glide-dock_SP_D22_pv

>  <s_m_subgroupid>  (306) 
glide-dock_SP_D22_pv

>  <Molecule ChEMBL ID>  (306) 
CHEMBL5779786

>  <Standard Type>  (306) 
Ki

>  <Standard Value>  (306) 
55.0

>  <label>  (306) 
1

$$$$
CHEMBL4470437
     RDKit          3D

  0  0  0  0  0  0  0  0  0  0999 V3000
M  V30 BEGIN CTAB
M  V30 COUNTS 74 79 0 0 1
M  V30 BEGIN ATOM
M  V30 1 O 11.229068 3.841087 -13.974688 0
M  V30 2 C 11.124185 4.335063 -15.099976 0
M  V30 3 C 10.232774 3.796201 -16.122452 0
M  V30 4 C 9.464127 2.587779 -15.786810 0
M  V30 5 C 8.299555 2.687065 -14.993908 0
M  V30 6 C 7.579665 1.526400 -14.653873 0
M  V30 7 C 8.036501 0.266620 -15.084714 0
M  V30 8 C 9.218100 0.168666 -15.847221 0
M  V30 9 C 9.937337 1.324860 -16.196320 0
M  V30 10 F 11.076760 1.215921 -16.921007 0
M  V30 11 C 10.171181 4.373132 -17.357500 0
M  V30 12 N 10.927625 5.501798 -17.693727 0
M  V30 13 C 11.792036 6.086786 -16.741167 0
M  V30 14 O 12.452425 7.098988 -16.999367 0
M  V30 15 N 11.861534 5.474751 -15.475589 0
M  V30 16 C 12.737041 6.077872 -14.490619 0
M  V30 17 C 12.087768 7.215150 -13.675416 0
M  V30 18 C 11.012167 6.762774 -12.659579 0
M  V30 19 C 10.821166 7.772335 -11.514598 0
M  V30 20 N 10.564960 7.134192 -10.195840 0 CFG=2 CHG=1
M  V30 21 C 9.199056 6.572958 -10.065522 0
M  V30 22 C 9.007108 5.870829 -8.709168 0
M  V30 23 C 9.326272 6.812761 -7.539957 0
M  V30 24 C 10.750855 7.372600 -7.687536 0 CFG=2
M  V30 25 C 11.116800 8.299843 -6.557265 0
M  V30 26 C 11.318995 9.650735 -6.654618 0
M  V30 27 N 11.645248 10.172400 -5.425887 0
M  V30 28 C 11.729996 9.169172 -4.489314 0
M  V30 29 C 12.080422 9.185344 -3.131456 0
M  V30 30 C 12.098924 7.978195 -2.414038 0
M  V30 31 C 11.774626 6.770912 -3.062047 0
M  V30 32 C 11.420653 6.768040 -4.427320 0
M  V30 33 C 11.389163 7.965162 -5.179378 0
M  V30 34 C 10.893258 8.050039 -9.071851 0
M  V30 35 C 10.862256 6.196983 -18.966976 0
M  V30 36 C 10.153668 5.432299 -20.085934 0
M  V30 37 C 8.886156 4.790026 -19.551313 0
M  V30 38 C 9.257801 3.799389 -18.448324 0
M  V30 39 H 7.953393 3.648303 -14.642972 0
M  V30 40 H 6.680962 1.600588 -14.058810 0
M  V30 41 H 7.485016 -0.625141 -14.826991 0
M  V30 42 H 9.572055 -0.799916 -16.167744 0
M  V30 43 H 13.116767 5.281096 -13.850770 0
M  V30 44 H 13.625389 6.430955 -15.017093 0
M  V30 45 H 12.908456 7.695045 -13.141844 0
M  V30 46 H 11.686156 7.983128 -14.336465 0
M  V30 47 H 10.059986 6.571821 -13.152245 0
M  V30 48 H 11.286005 5.796450 -12.265242 0
M  V30 49 H 11.733933 8.362679 -11.435041 0
M  V30 50 H 10.025110 8.482350 -11.754948 0
M  V30 51 H 8.487542 7.390612 -10.167250 0
M  V30 52 H 8.997824 5.872632 -10.876621 0
M  V30 53 H 7.980249 5.515193 -8.619043 0
M  V30 54 H 9.644280 4.985667 -8.655187 0
M  V30 55 H 8.600193 7.627967 -7.517150 0
M  V30 56 H 9.217484 6.275109 -6.597579 0
M  V30 57 H 11.441499 6.529214 -7.663339 0
M  V30 58 H 11.286346 10.292890 -7.514258 0
M  V30 59 H 11.840125 11.150632 -5.275519 0
M  V30 60 H 12.340260 10.112752 -2.641330 0
M  V30 61 H 12.375852 7.978204 -1.370591 0
M  V30 62 H 11.785407 5.842931 -2.507422 0
M  V30 63 H 11.172808 5.829831 -4.902098 0
M  V30 64 H 11.917395 8.409081 -9.189582 0
M  V30 65 H 10.238650 8.922468 -9.139539 0
M  V30 66 H 10.344981 7.134870 -18.753658 0
M  V30 67 H 11.885924 6.415196 -19.279270 0
M  V30 68 H 9.923505 6.109282 -20.910194 0
M  V30 69 H 10.814857 4.662506 -20.488283 0
M  V30 70 H 8.215585 5.557395 -19.159460 0
M  V30 71 H 8.348750 4.279839 -20.351706 0
M  V30 72 H 9.759871 2.932375 -18.881401 0
M  V30 73 H 8.335076 3.431755 -18.000593 0
M  V30 74 H 11.201675 6.354993 -10.114789 0
M  V30 END ATOM
M  V30 BEGIN BOND
M  V30 1 2 2 1
M  V30 2 1 3 2
M  V30 3 1 4 3
M  V30 4 2 5 4
M  V30 5 1 6 5
M  V30 6 2 7 6
M  V30 7 1 8 7
M  V30 8 1 9 4
M  V30 9 2 9 8
M  V30 10 1 10 9
M  V30 11 2 11 3
M  V30 12 1 12 11
M  V30 13 1 13 12
M  V30 14 2 14 13
M  V30 15 1 15 2
M  V30 16 1 15 13
M  V30 17 1 16 15
M  V30 18 1 17 16
M  V30 19 1 18 17
M  V30 20 1 19 18
M  V30 21 1 20 19
M  V30 22 1 21 20
M  V30 23 1 22 21
M  V30 24 1 23 22
M  V30 25 1 24 23
M  V30 26 1 25 24
M  V30 27 2 26 25
M  V30 28 1 27 26
M  V30 29 1 28 27
M  V30 30 2 29 28
M  V30 31 1 30 29
M  V30 32 2 31 30
M  V30 33 1 32 31
M  V30 34 1 33 25
M  V30 35 1 33 28
M  V30 36 2 33 32
M  V30 37 1 34 20
M  V30 38 1 34 24
M  V30 39 1 35 12
M  V30 40 1 36 35
M  V30 41 1 37 36
M  V30 42 1 38 11
M  V30 43 1 38 37
M  V30 44 1 39 5
M  V30 45 1 40 6
M  V30 46 1 41 7
M  V30 47 1 42 8
M  V30 48 1 43 16
M  V30 49 1 44 16
M  V30 50 1 45 17
M  V30 51 1 46 17
M  V30 52 1 47 18
M  V30 53 1 48 18
M  V30 54 1 49 19
M  V30 55 1 50 19
M  V30 56 1 51 21
M  V30 57 1 52 21
M  V30 58 1 53 22
M  V30 59 1 54 22
M  V30 60 1 55 23
M  V30 61 1 56 23
M  V30 62 1 24 57 CFG=3
M  V30 63 1 58 26
M  V30 64 1 59 27
M  V30 65 1 60 29
M  V30 66 1 61 30
M  V30 67 1 62 31
M  V30 68 1 63 32
M  V30 69 1 64 34
M  V30 70 1 65 34
M  V30 71 1 66 35
M  V30 72 1 67 35
M  V30 73 1 68 36
M  V30 74 1 69 36
M  V30 75 1 70 37
M  V30 76 1 71 37
M  V30 77 1 72 38
M  V30 78 1 73 38
M  V30 79 1 20 74 CFG=1
M  V30 END BOND
M  V30 END CTAB
M  END
>  <b_m_subgroup_collapsed>  (307) 
0

>  <r_i_docking_score>  (307) 
-8.5572983806021305

>  <s_m_subgroup_title>  (307) 
glide-dock_SP_D22_pv

>  <s_m_subgroupid>  (307) 
glide-dock_SP_D22_pv

>  <Molecule ChEMBL ID>  (307) 
CHEMBL4470437

>  <Standard Type>  (307) 
Ki

>  <Standard Value>  (307) 
10000.0

>  <label>  (307) 
0

$$$$
CHEMBL2159479
     RDKit          3D

  0  0  0  0  0  0  0  0  0  0999 V3000
M  V30 BEGIN CTAB
M  V30 COUNTS 47 49 0 0 1
M  V30 BEGIN ATOM
M  V30 1 O 8.087036 5.963304 -13.446326 0
M  V30 2 S 8.755774 4.657279 -13.383671 0
M  V30 3 O 9.901134 4.349649 -14.252484 0
M  V30 4 N 9.280149 4.454865 -11.756312 0
M  V30 5 C 8.576400 5.161847 -10.682271 0 CFG=1
M  V30 6 C 8.834316 4.548033 -9.308070 0
M  V30 7 C 8.726970 5.714316 -8.333371 0
M  V30 8 N 8.886030 6.950665 -9.129279 0 CFG=1 CHG=1
M  V30 9 C 9.846803 7.925683 -8.572278 0
M  V30 10 C 9.279478 8.606835 -7.321663 0
M  V30 11 O 10.295830 9.372381 -6.689099 0
M  V30 12 C 10.917265 8.839916 -5.584221 0
M  V30 13 C 11.403846 9.749967 -4.625432 0
M  V30 14 C 12.015035 9.289744 -3.443456 0
M  V30 15 C 12.149811 7.907551 -3.214765 0
M  V30 16 C 11.686031 6.989291 -4.175554 0
M  V30 17 C 11.079216 7.450826 -5.359412 0
M  V30 18 C 9.125939 6.579680 -10.533986 0
M  V30 19 C 7.522792 3.372798 -13.578337 0
M  V30 20 C 6.244659 3.532561 -13.005035 0
M  V30 21 C 5.328921 2.462247 -13.046690 0
M  V30 22 C 5.685699 1.246672 -13.665293 0
M  V30 23 F 4.810462 0.213227 -13.674042 0
M  V30 24 C 6.943731 1.111535 -14.285029 0
M  V30 25 C 7.864526 2.178291 -14.247844 0
M  V30 26 H 9.625097 3.518134 -11.541960 0
M  V30 27 H 7.503356 5.192951 -10.875417 0
M  V30 28 H 9.837193 4.121132 -9.257098 0
M  V30 29 H 8.117128 3.772200 -9.047079 0
M  V30 30 H 9.470293 5.615204 -7.543534 0
M  V30 31 H 7.745402 5.733876 -7.857099 0
M  V30 32 H 10.063992 8.692145 -9.317891 0
M  V30 33 H 10.791949 7.425167 -8.357010 0
M  V30 34 H 8.810711 7.902841 -6.632432 0
M  V30 35 H 8.485954 9.288331 -7.625418 0
M  V30 36 H 11.285408 10.810698 -4.790103 0
M  V30 37 H 12.371481 9.997043 -2.708147 0
M  V30 38 H 12.612319 7.552535 -2.305650 0
M  V30 39 H 11.793810 5.928095 -4.004140 0
M  V30 40 H 10.739201 6.720695 -6.074735 0
M  V30 41 H 8.643749 7.287055 -11.210651 0
M  V30 42 H 10.198766 6.593181 -10.737307 0
M  V30 43 H 5.979622 4.454192 -12.507392 0
M  V30 44 H 4.350716 2.570137 -12.605688 0
M  V30 45 H 7.209222 0.182597 -14.768930 0
M  V30 46 H 8.842390 2.058465 -14.690691 0
M  V30 47 H 7.957319 7.372545 -9.161561 0
M  V30 END ATOM
M  V30 BEGIN BOND
M  V30 1 2 2 1
M  V30 2 2 3 2
M  V30 3 1 4 2
M  V30 4 1 5 4
M  V30 5 1 6 5
M  V30 6 1 7 6
M  V30 7 1 8 7
M  V30 8 1 9 8
M  V30 9 1 10 9
M  V30 10 1 11 10
M  V30 11 1 12 11
M  V30 12 2 13 12
M  V30 13 1 14 13
M  V30 14 2 15 14
M  V30 15 1 16 15
M  V30 16 1 17 12
M  V30 17 2 17 16
M  V30 18 1 18 5
M  V30 19 1 18 8
M  V30 20 1 19 2
M  V30 21 1 20 19
M  V30 22 2 21 20
M  V30 23 1 22 21
M  V30 24 1 23 22
M  V30 25 2 24 22
M  V30 26 2 25 19
M  V30 27 1 25 24
M  V30 28 1 26 4
M  V30 29 1 5 27 CFG=3
M  V30 30 1 28 6
M  V30 31 1 29 6
M  V30 32 1 30 7
M  V30 33 1 31 7
M  V30 34 1 32 9
M  V30 35 1 33 9
M  V30 36 1 34 10
M  V30 37 1 35 10
M  V30 38 1 36 13
M  V30 39 1 37 14
M  V30 40 1 38 15
M  V30 41 1 39 16
M  V30 42 1 40 17
M  V30 43 1 41 18
M  V30 44 1 42 18
M  V30 45 1 43 20
M  V30 46 1 44 21
M  V30 47 1 45 24
M  V30 48 1 46 25
M  V30 49 1 8 47 CFG=3
M  V30 END BOND
M  V30 END CTAB
M  END
>  <b_m_subgroup_collapsed>  (308) 
0

>  <r_i_docking_score>  (308) 
-8.5561949121106906

>  <s_m_subgroup_title>  (308) 
glide-dock_SP_D22_pv

>  <s_m_subgroupid>  (308) 
glide-dock_SP_D22_pv

>  <Molecule ChEMBL ID>  (308) 
CHEMBL2159479

>  <Standard Type>  (308) 
Ki

>  <Standard Value>  (308) 
11.0

>  <label>  (308) 
1

$$$$
CHEMBL490632
     RDKit          3D

  0  0  0  0  0  0  0  0  0  0999 V3000
M  V30 BEGIN CTAB
M  V30 COUNTS 60 62 0 0 1
M  V30 BEGIN ATOM
M  V30 1 C 12.176054 3.939909 -15.440778 0
M  V30 2 O 11.543539 3.495948 -14.247928 0
M  V30 3 C 10.215148 3.170285 -14.382978 0
M  V30 4 C 9.865181 1.998851 -15.106215 0
M  V30 5 O 10.885845 1.247820 -15.654244 0
M  V30 6 C 10.614727 0.396116 -16.766146 0
M  V30 7 C 10.350808 1.189668 -18.057018 0
M  V30 8 F 9.118850 1.697722 -18.092030 0
M  V30 9 C 8.504500 1.634009 -15.216396 0
M  V30 10 C 7.508114 2.439412 -14.647064 0
M  V30 11 C 7.854749 3.609268 -13.953317 0
M  V30 12 C 9.209492 3.989313 -13.789380 0
M  V30 13 C 9.559849 5.253167 -13.047276 0
M  V30 14 O 10.699614 5.713265 -12.995138 0
M  V30 15 C 8.426656 6.052807 -12.360082 0 CFG=1
M  V30 16 C 7.767142 5.319935 -11.170516 0
M  V30 17 C 8.609738 5.379263 -9.886847 0
M  V30 18 N 8.886463 6.779429 -9.478150 0 CFG=1 CHG=1
M  V30 19 C 9.594450 6.809859 -8.162956 0
M  V30 20 C 9.902622 8.220858 -7.601622 0
M  V30 21 C 10.627116 8.261058 -6.252906 0
M  V30 22 C 11.048757 7.093336 -5.571924 0
M  V30 23 C 11.685866 7.182385 -4.316206 0
M  V30 24 C 11.885600 8.439496 -3.712057 0
M  V30 25 C 12.475864 8.537025 -2.320207 0
M  V30 26 C 11.490556 9.606154 -4.393225 0
M  V30 27 C 10.885406 9.517554 -5.662004 0
M  V30 28 C 9.603539 7.505580 -10.561451 0
M  V30 29 C 8.839507 7.473930 -11.901389 0
M  V30 30 H 13.084631 4.483232 -15.180341 0
M  V30 31 H 12.465486 3.107268 -16.083708 0
M  V30 32 H 11.535628 4.617101 -16.006351 0
M  V30 33 H 11.523525 -0.182682 -16.929125 0
M  V30 34 H 9.838801 -0.341775 -16.563726 0
M  V30 35 H 11.059854 2.009191 -18.173531 0
M  V30 36 H 10.439727 0.540614 -18.927200 0
M  V30 37 H 8.195775 0.743935 -15.743059 0
M  V30 38 H 6.471594 2.161165 -14.754878 0
M  V30 39 H 7.042643 4.200427 -13.562314 0
M  V30 40 H 7.673948 6.195516 -13.134099 0
M  V30 41 H 6.790393 5.771486 -10.997732 0
M  V30 42 H 7.566091 4.274629 -11.393845 0
M  V30 43 H 9.550344 4.845841 -10.032343 0
M  V30 44 H 8.086364 4.859315 -9.083859 0
M  V30 45 H 8.981335 6.272696 -7.436682 0
M  V30 46 H 10.525990 6.250590 -8.265092 0
M  V30 47 H 10.534313 8.778634 -8.292497 0
M  V30 48 H 8.971532 8.784742 -7.506837 0
M  V30 49 H 10.885066 6.111704 -5.986897 0
M  V30 50 H 11.982018 6.277215 -3.803799 0
M  V30 51 H 11.695637 8.821152 -1.614011 0
M  V30 52 H 12.885502 7.576201 -1.998459 0
M  V30 53 H 13.274817 9.281574 -2.279418 0
M  V30 54 H 11.630782 10.571882 -3.931333 0
M  V30 55 H 10.580431 10.423933 -6.164737 0
M  V30 56 H 10.601114 7.082491 -10.684926 0
M  V30 57 H 9.737200 8.551924 -10.293334 0
M  V30 58 H 9.457224 7.967803 -12.646689 0
M  V30 59 H 7.945355 8.092779 -11.846246 0
M  V30 60 H 7.972740 7.226204 -9.380322 0
M  V30 END ATOM
M  V30 BEGIN BOND
M  V30 1 1 2 1
M  V30 2 1 3 2
M  V30 3 2 4 3
M  V30 4 1 5 4
M  V30 5 1 6 5
M  V30 6 1 7 6
M  V30 7 1 8 7
M  V30 8 1 9 4
M  V30 9 2 10 9
M  V30 10 1 11 10
M  V30 11 1 12 3
M  V30 12 2 12 11
M  V30 13 1 13 12
M  V30 14 2 14 13
M  V30 15 1 15 13
M  V30 16 1 16 15
M  V30 17 1 17 16
M  V30 18 1 18 17
M  V30 19 1 19 18
M  V30 20 1 20 19
M  V30 21 1 21 20
M  V30 22 1 22 21
M  V30 23 2 23 22
M  V30 24 1 24 23
M  V30 25 1 25 24
M  V30 26 2 26 24
M  V30 27 2 27 21
M  V30 28 1 27 26
M  V30 29 1 28 18
M  V30 30 1 29 15
M  V30 31 1 29 28
M  V30 32 1 30 1
M  V30 33 1 31 1
M  V30 34 1 32 1
M  V30 35 1 33 6
M  V30 36 1 34 6
M  V30 37 1 35 7
M  V30 38 1 36 7
M  V30 39 1 37 9
M  V30 40 1 38 10
M  V30 41 1 39 11
M  V30 42 1 15 40 CFG=3
M  V30 43 1 41 16
M  V30 44 1 42 16
M  V30 45 1 43 17
M  V30 46 1 44 17
M  V30 47 1 45 19
M  V30 48 1 46 19
M  V30 49 1 47 20
M  V30 50 1 48 20
M  V30 51 1 49 22
M  V30 52 1 50 23
M  V30 53 1 51 25
M  V30 54 1 52 25
M  V30 55 1 53 25
M  V30 56 1 54 26
M  V30 57 1 55 27
M  V30 58 1 56 28
M  V30 59 1 57 28
M  V30 60 1 58 29
M  V30 61 1 59 29
M  V30 62 1 18 60 CFG=1
M  V30 END BOND
M  V30 END CTAB
M  END
>  <b_m_subgroup_collapsed>  (309) 
0

>  <r_i_docking_score>  (309) 
-8.55316680682186

>  <s_m_subgroup_title>  (309) 
glide-dock_SP_D22_pv

>  <s_m_subgroupid>  (309) 
glide-dock_SP_D22_pv

>  <Molecule ChEMBL ID>  (309) 
CHEMBL490632

>  <Standard Type>  (309) 
Ki

>  <Standard Value>  (309) 
10000.0

>  <label>  (309) 
0

$$$$
CHEMBL2303762
     RDKit          3D

  0  0  0  0  0  0  0  0  0  0999 V3000
M  V30 BEGIN CTAB
M  V30 COUNTS 59 62 0 0 1
M  V30 BEGIN ATOM
M  V30 1 O 4.364598 -0.519552 -19.584095 0
M  V30 2 C 5.184757 0.084272 -18.609854 0
M  V30 3 C 5.851193 -0.986922 -17.709379 0 CFG=1
M  V30 4 O 6.947788 -0.411021 -16.988340 0
M  V30 5 C 6.649467 0.508885 -15.971025 0 CFG=2
M  V30 6 O 7.834530 1.006384 -15.399237 0
M  V30 7 C 7.805211 2.152745 -14.624555 0
M  V30 8 C 9.023325 2.647897 -14.118191 0
M  V30 9 C 9.046436 3.772242 -13.264072 0
M  V30 10 C 7.844048 4.435703 -12.912564 0
M  V30 11 C 7.763194 5.602175 -11.938549 0
M  V30 12 C 8.779518 5.547051 -10.782649 0 CFG=2
M  V30 13 N 8.086022 5.772327 -9.504148 0 CHG=1
M  V30 14 C 8.981136 5.883972 -8.340418 0
M  V30 15 C 9.868393 7.121545 -8.496468 0
M  V30 16 C 10.533399 7.176828 -9.861853 0
M  V30 17 C 11.725664 7.910497 -10.024904 0
M  V30 18 C 12.356722 7.944717 -11.281627 0
M  V30 19 O 13.549659 8.572325 -11.446863 0
M  V30 20 C 11.764155 7.328921 -12.393724 0
M  V30 21 O 12.387850 7.372319 -13.604533 0
M  V30 22 C 10.554554 6.638714 -12.246862 0
M  V30 23 C 9.961563 6.500574 -10.971418 0
M  V30 24 C 6.635721 3.969782 -13.446863 0
M  V30 25 C 6.628147 2.848319 -14.281329 0
M  V30 26 C 5.760599 -0.192484 -14.900064 0 CFG=2
M  V30 27 O 6.486020 -1.173917 -14.199653 0
M  V30 28 C 4.510059 -0.777180 -15.591190 0 CFG=2
M  V30 29 O 3.686027 -1.427355 -14.646908 0
M  V30 30 C 4.910174 -1.731926 -16.725548 0 CFG=1
M  V30 31 O 3.761632 -2.227632 -17.402266 0
M  V30 32 H 3.812931 -1.149963 -19.132875 0
M  V30 33 H 4.586863 0.793203 -18.040277 0
M  V30 34 H 5.948617 0.660556 -19.132175 0
M  V30 35 H 6.298316 -1.730935 -18.370291 0
M  V30 36 H 6.131617 1.341280 -16.446581 0
M  V30 37 H 9.945506 2.135654 -14.351118 0
M  V30 38 H 9.999427 4.069530 -12.857042 0
M  V30 39 H 6.754041 5.590163 -11.521341 0
M  V30 40 H 7.817842 6.547987 -12.479471 0
M  V30 41 H 9.190311 4.540506 -10.696788 0
M  V30 42 H 7.546001 6.638492 -9.593816 0
M  V30 43 H 8.386778 5.955603 -7.428611 0
M  V30 44 H 9.587365 4.980164 -8.262278 0
M  V30 45 H 10.624969 7.137616 -7.710875 0
M  V30 46 H 9.267322 8.024360 -8.375469 0
M  V30 47 H 12.175169 8.413574 -9.180728 0
M  V30 48 H 13.704515 9.250489 -10.790114 0
M  V30 49 H 13.267402 7.708870 -13.498950 0
M  V30 50 H 10.133245 6.172758 -13.122030 0
M  V30 51 H 5.700836 4.455221 -13.205272 0
M  V30 52 H 5.686022 2.531425 -14.646810 0
M  V30 53 H 5.428355 0.518618 -14.148995 0
M  V30 54 H 6.990255 -1.686745 -14.827562 0
M  V30 55 H 3.921161 0.043519 -15.992964 0
M  V30 56 H 3.029914 -1.916998 -15.123286 0
M  V30 57 H 5.444991 -2.588817 -16.312029 0
M  V30 58 H 3.410618 -2.986121 -16.930861 0
M  V30 59 H 7.420682 5.021084 -9.363355 0
M  V30 END ATOM
M  V30 BEGIN BOND
M  V30 1 1 2 1
M  V30 2 1 3 2
M  V30 3 1 4 3
M  V30 4 1 5 4
M  V30 5 1 6 5
M  V30 6 1 7 6
M  V30 7 1 8 7
M  V30 8 2 9 8
M  V30 9 1 10 9
M  V30 10 1 11 10
M  V30 11 1 12 11
M  V30 12 1 13 12
M  V30 13 1 14 13
M  V30 14 1 15 14
M  V30 15 1 16 15
M  V30 16 1 17 16
M  V30 17 2 18 17
M  V30 18 1 19 18
M  V30 19 1 20 18
M  V30 20 1 21 20
M  V30 21 2 22 20
M  V30 22 1 23 12
M  V30 23 2 23 16
M  V30 24 1 23 22
M  V30 25 2 24 10
M  V30 26 2 25 7
M  V30 27 1 25 24
M  V30 28 1 26 5
M  V30 29 1 27 26
M  V30 30 1 28 26
M  V30 31 1 29 28
M  V30 32 1 30 3
M  V30 33 1 30 28
M  V30 34 1 31 30
M  V30 35 1 32 1
M  V30 36 1 33 2
M  V30 37 1 34 2
M  V30 38 1 3 35 CFG=3
M  V30 39 1 5 36 CFG=3
M  V30 40 1 37 8
M  V30 41 1 38 9
M  V30 42 1 39 11
M  V30 43 1 40 11
M  V30 44 1 12 41 CFG=1
M  V30 45 1 42 13
M  V30 46 1 43 14
M  V30 47 1 44 14
M  V30 48 1 45 15
M  V30 49 1 46 15
M  V30 50 1 47 17
M  V30 51 1 48 19
M  V30 52 1 49 21
M  V30 53 1 50 22
M  V30 54 1 51 24
M  V30 55 1 52 25
M  V30 56 1 26 53 CFG=1
M  V30 57 1 54 27
M  V30 58 1 28 55 CFG=3
M  V30 59 1 56 29
M  V30 60 1 30 57 CFG=1
M  V30 61 1 58 31
M  V30 62 1 59 13
M  V30 END BOND
M  V30 END CTAB
M  END
>  <b_m_subgroup_collapsed>  (310) 
0

>  <r_i_docking_score>  (310) 
-8.5419149641895107

>  <s_m_subgroup_title>  (310) 
glide-dock_SP_D22_pv

>  <s_m_subgroupid>  (310) 
glide-dock_SP_D22_pv

>  <Molecule ChEMBL ID>  (310) 
CHEMBL2303762

>  <Standard Type>  (310) 
Ki

>  <Standard Value>  (310) 
11400.0

>  <label>  (310) 
0

$$$$
CHEMBL3104522
     RDKit          3D

  0  0  0  0  0  0  0  0  0  0999 V3000
M  V30 BEGIN CTAB
M  V30 COUNTS 59 63 0 0 1
M  V30 BEGIN ATOM
M  V30 1 N 4.839922 0.884136 -13.446434 0
M  V30 2 C 5.933379 1.706114 -13.708110 0
M  V30 3 C 6.889329 1.295050 -14.651846 0
M  V30 4 C 7.984430 2.124960 -14.942360 0
M  V30 5 C 8.145458 3.354994 -14.273047 0
M  V30 6 C 7.198531 3.770973 -13.301152 0
M  V30 7 C 6.079386 2.944375 -13.046990 0
M  V30 8 C 7.407429 5.029568 -12.457534 0 CFG=2
M  V30 9 O 6.215645 5.772658 -12.271161 0
M  V30 10 C 8.519786 5.959104 -13.005668 0 CFG=1
M  V30 11 C 8.961204 7.051910 -12.019815 0
M  V30 12 C 9.820913 6.535424 -10.864717 0
M  V30 13 N 9.950967 7.581470 -9.834518 0 CFG=2 CHG=1
M  V30 14 C 11.356877 7.852646 -9.452574 0
M  V30 15 C 11.463283 9.037546 -8.489118 0
M  V30 16 C 10.492305 8.919459 -7.296807 0 CFG=2
M  V30 17 C 11.024525 8.018436 -6.212543 0
M  V30 18 N 11.186995 6.704587 -6.376375 0
M  V30 19 O 11.685452 6.173781 -5.153739 0
M  V30 20 C 11.849037 7.206097 -4.246464 0
M  V30 21 C 12.329428 7.227720 -2.932854 0
M  V30 22 C 12.416688 8.484957 -2.302159 0
M  V30 23 F 12.890470 8.570653 -1.046948 0
M  V30 24 C 12.018198 9.661636 -2.972542 0
M  V30 25 C 11.519145 9.612926 -4.287065 0
M  V30 26 C 11.446297 8.358777 -4.922444 0
M  V30 27 C 9.066323 8.533415 -7.733782 0
M  V30 28 C 9.086538 7.312749 -8.663922 0
M  V30 29 C 9.731920 5.166855 -13.528863 0
M  V30 30 C 9.332789 4.217812 -14.648293 0
M  V30 31 H 4.622318 0.170874 -14.129903 0
M  V30 32 H 4.023667 1.319451 -13.042549 0
M  V30 33 H 6.784669 0.349503 -15.164797 0
M  V30 34 H 8.704620 1.810937 -15.683861 0
M  V30 35 H 5.353009 3.245764 -12.306548 0
M  V30 36 H 7.696384 4.659699 -11.473750 0
M  V30 37 H 6.348369 6.420673 -11.584188 0
M  V30 38 H 8.085729 6.475316 -13.857759 0
M  V30 39 H 9.525710 7.815876 -12.556509 0
M  V30 40 H 8.086039 7.569604 -11.636561 0
M  V30 41 H 9.407996 5.625269 -10.427671 0
M  V30 42 H 10.796827 6.255687 -11.259401 0
M  V30 43 H 11.768900 6.972221 -8.976981 0
M  V30 44 H 11.960161 8.052191 -10.339900 0
M  V30 45 H 12.488808 9.131506 -8.128636 0
M  V30 46 H 11.267734 9.947285 -9.054107 0
M  V30 47 H 10.420471 9.917124 -6.867750 0
M  V30 48 H 12.634631 6.321082 -2.431807 0
M  V30 49 H 12.085938 10.612014 -2.463969 0
M  V30 50 H 11.213135 10.519150 -4.790019 0
M  V30 51 H 8.430480 8.344330 -6.865711 0
M  V30 52 H 8.609966 9.369848 -8.264866 0
M  V30 53 H 8.087001 7.065531 -9.005970 0
M  V30 54 H 9.422738 6.414362 -8.147697 0
M  V30 55 H 10.167043 4.573917 -12.722770 0
M  V30 56 H 10.516991 5.836720 -13.881596 0
M  V30 57 H 10.181723 3.585898 -14.911767 0
M  V30 58 H 9.076245 4.787694 -15.542109 0
M  V30 59 H 9.594683 8.427525 -10.255081 0
M  V30 END ATOM
M  V30 BEGIN BOND
M  V30 1 1 2 1
M  V30 2 1 3 2
M  V30 3 2 4 3
M  V30 4 1 5 4
M  V30 5 2 6 5
M  V30 6 2 7 2
M  V30 7 1 7 6
M  V30 8 1 8 6
M  V30 9 1 9 8
M  V30 10 1 10 8
M  V30 11 1 11 10
M  V30 12 1 12 11
M  V30 13 1 13 12
M  V30 14 1 14 13
M  V30 15 1 15 14
M  V30 16 1 16 15
M  V30 17 1 17 16
M  V30 18 2 18 17
M  V30 19 1 19 18
M  V30 20 1 20 19
M  V30 21 1 21 20
M  V30 22 2 22 21
M  V30 23 1 23 22
M  V30 24 1 24 22
M  V30 25 2 25 24
M  V30 26 1 26 17
M  V30 27 2 26 20
M  V30 28 1 26 25
M  V30 29 1 27 16
M  V30 30 1 28 13
M  V30 31 1 28 27
M  V30 32 1 29 10
M  V30 33 1 30 5
M  V30 34 1 30 29
M  V30 35 1 31 1
M  V30 36 1 32 1
M  V30 37 1 33 3
M  V30 38 1 34 4
M  V30 39 1 35 7
M  V30 40 1 8 36 CFG=1
M  V30 41 1 37 9
M  V30 42 1 10 38 CFG=3
M  V30 43 1 39 11
M  V30 44 1 40 11
M  V30 45 1 41 12
M  V30 46 1 42 12
M  V30 47 1 43 14
M  V30 48 1 44 14
M  V30 49 1 45 15
M  V30 50 1 46 15
M  V30 51 1 16 47 CFG=1
M  V30 52 1 48 21
M  V30 53 1 49 24
M  V30 54 1 50 25
M  V30 55 1 51 27
M  V30 56 1 52 27
M  V30 57 1 53 28
M  V30 58 1 54 28
M  V30 59 1 55 29
M  V30 60 1 56 29
M  V30 61 1 57 30
M  V30 62 1 58 30
M  V30 63 1 13 59 CFG=3
M  V30 END BOND
M  V30 END CTAB
M  END
>  <b_m_subgroup_collapsed>  (311) 
0

>  <r_i_docking_score>  (311) 
-8.54178382805196

>  <s_m_subgroup_title>  (311) 
glide-dock_SP_D22_pv

>  <s_m_subgroupid>  (311) 
glide-dock_SP_D22_pv

>  <Molecule ChEMBL ID>  (311) 
CHEMBL3104522

>  <Standard Type>  (311) 
Ki

>  <Standard Value>  (311) 
87.1

>  <label>  (311) 
1

$$$$
CHEMBL1423
     RDKit          3D

  0  0  0  0  0  0  0  0  0  0999 V3000
M  V30 BEGIN CTAB
M  V30 COUNTS 64 68 0 0 1
M  V30 BEGIN ATOM
M  V30 1 O 10.486015 9.772325 -7.119870 0
M  V30 2 C 10.942060 9.245572 -6.138199 0
M  V30 3 N 11.403042 9.895714 -5.063434 0
M  V30 4 C 11.757185 8.971231 -4.103730 0
M  V30 5 C 12.249652 9.158747 -2.807606 0
M  V30 6 C 12.485210 7.995293 -2.047573 0
M  V30 7 C 12.192894 6.712889 -2.580242 0
M  V30 8 C 11.686171 6.572309 -3.892112 0
M  V30 9 C 11.501022 7.728208 -4.646864 0
M  V30 10 N 11.025247 7.916923 -5.954910 0
M  V30 11 C 10.598140 6.870048 -6.913971 0 CFG=1
M  V30 12 C 9.086294 6.602772 -6.811880 0
M  V30 13 C 8.582686 5.570835 -7.846964 0
M  V30 14 N 8.939423 5.914012 -9.245802 0 CFG=2 CHG=1
M  V30 15 C 8.485917 4.861832 -10.200076 0
M  V30 16 C 7.871661 5.390727 -11.509131 0
M  V30 17 C 8.846704 5.921839 -12.583213 0
M  V30 18 C 9.907909 4.929532 -13.139989 0
M  V30 19 C 10.916382 5.662215 -14.029856 0
M  V30 20 C 11.008038 5.417097 -15.423047 0
M  V30 21 C 11.925157 6.132054 -16.217026 0
M  V30 22 C 12.749265 7.111017 -15.634694 0
M  V30 23 F 13.622862 7.802998 -16.402182 0
M  V30 24 C 12.657868 7.371891 -14.255584 0
M  V30 25 C 11.760475 6.639259 -13.455589 0
M  V30 26 C 9.358438 3.657288 -13.797188 0
M  V30 27 C 10.236857 2.572370 -14.014985 0
M  V30 28 C 9.789323 1.396608 -14.646945 0
M  V30 29 C 8.451983 1.293296 -15.067681 0
M  V30 30 F 8.017518 0.172149 -15.684061 0
M  V30 31 C 7.568208 2.366298 -14.863601 0
M  V30 32 C 8.022435 3.547204 -14.246842 0
M  V30 33 C 10.407380 6.117217 -9.338947 0
M  V30 34 C 10.911325 7.208805 -8.397527 0
M  V30 35 H 11.441912 10.895320 -4.936871 0
M  V30 36 H 12.441576 10.144331 -2.409528 0
M  V30 37 H 12.877871 8.088387 -1.046921 0
M  V30 38 H 12.357835 5.831289 -1.977442 0
M  V30 39 H 11.452546 5.611341 -4.308915 0
M  V30 40 H 11.136142 5.955626 -6.661341 0
M  V30 41 H 8.878725 6.231431 -5.812408 0
M  V30 42 H 8.524563 7.531817 -6.927660 0
M  V30 43 H 7.505704 5.458854 -7.753011 0
M  V30 44 H 9.021556 4.595809 -7.650233 0
M  V30 45 H 7.719392 4.247623 -9.727530 0
M  V30 46 H 9.299430 4.172312 -10.413050 0
M  V30 47 H 7.150454 6.172319 -11.285284 0
M  V30 48 H 7.271367 4.585989 -11.928275 0
M  V30 49 H 9.344029 6.796042 -12.165164 0
M  V30 50 H 8.262228 6.314467 -13.415822 0
M  V30 51 H 10.486026 4.575684 -12.287918 0
M  V30 52 H 10.372823 4.691714 -15.908463 0
M  V30 53 H 11.988348 5.938306 -17.277559 0
M  V30 54 H 13.286180 8.126143 -13.807190 0
M  V30 55 H 11.713824 6.851619 -12.398942 0
M  V30 56 H 11.269193 2.642137 -13.707309 0
M  V30 57 H 10.471134 0.574782 -14.808159 0
M  V30 58 H 6.544284 2.290135 -15.198707 0
M  V30 59 H 7.326821 4.365032 -14.140712 0
M  V30 60 H 10.886020 5.184077 -9.050712 0
M  V30 61 H 10.693346 6.351891 -10.361602 0
M  V30 62 H 11.981462 7.372322 -8.530533 0
M  V30 63 H 10.418383 8.115479 -8.739241 0
M  V30 64 H 8.442161 6.769471 -9.473549 0
M  V30 END ATOM
M  V30 BEGIN BOND
M  V30 1 2 2 1
M  V30 2 1 3 2
M  V30 3 1 4 3
M  V30 4 2 5 4
M  V30 5 1 6 5
M  V30 6 2 7 6
M  V30 7 1 8 7
M  V30 8 1 9 4
M  V30 9 2 9 8
M  V30 10 1 10 2
M  V30 11 1 10 9
M  V30 12 1 11 10
M  V30 13 1 12 11
M  V30 14 1 13 12
M  V30 15 1 14 13
M  V30 16 1 15 14
M  V30 17 1 16 15
M  V30 18 1 17 16
M  V30 19 1 18 17
M  V30 20 1 19 18
M  V30 21 1 20 19
M  V30 22 2 21 20
M  V30 23 1 22 21
M  V30 24 1 23 22
M  V30 25 2 24 22
M  V30 26 2 25 19
M  V30 27 1 25 24
M  V30 28 1 26 18
M  V30 29 1 27 26
M  V30 30 2 28 27
M  V30 31 1 29 28
M  V30 32 1 30 29
M  V30 33 2 31 29
M  V30 34 2 32 26
M  V30 35 1 32 31
M  V30 36 1 33 14
M  V30 37 1 34 11
M  V30 38 1 34 33
M  V30 39 1 35 3
M  V30 40 1 36 5
M  V30 41 1 37 6
M  V30 42 1 38 7
M  V30 43 1 39 8
M  V30 44 1 11 40 CFG=1
M  V30 45 1 41 12
M  V30 46 1 42 12
M  V30 47 1 43 13
M  V30 48 1 44 13
M  V30 49 1 45 15
M  V30 50 1 46 15
M  V30 51 1 47 16
M  V30 52 1 48 16
M  V30 53 1 49 17
M  V30 54 1 50 17
M  V30 55 1 51 18
M  V30 56 1 52 20
M  V30 57 1 53 21
M  V30 58 1 54 24
M  V30 59 1 55 25
M  V30 60 1 56 27
M  V30 61 1 57 28
M  V30 62 1 58 31
M  V30 63 1 59 32
M  V30 64 1 60 33
M  V30 65 1 61 33
M  V30 66 1 62 34
M  V30 67 1 63 34
M  V30 68 1 14 64 CFG=3
M  V30 END BOND
M  V30 END CTAB
M  END
>  <b_m_subgroup_collapsed>  (312) 
0

>  <r_i_docking_score>  (312) 
-8.5391649475545695

>  <s_m_subgroup_title>  (312) 
glide-dock_SP_D22_pv

>  <s_m_subgroupid>  (312) 
glide-dock_SP_D22_pv

>  <Molecule ChEMBL ID>  (312) 
CHEMBL1423

>  <Standard Type>  (312) 
Ki

>  <Standard Value>  (312) 
1.4

>  <label>  (312) 
1

$$$$
CHEMBL3588995
     RDKit          3D

  0  0  0  0  0  0  0  0  0  0999 V3000
M  V30 BEGIN CTAB
M  V30 COUNTS 62 66 0 0 1
M  V30 BEGIN ATOM
M  V30 1 O 6.363980 6.164082 -12.246907 0
M  V30 2 C 7.708954 5.735169 -12.192616 0 CFG=2
M  V30 3 C 8.539974 7.030677 -12.098072 0
M  V30 4 C 9.993718 6.853171 -11.634456 0
M  V30 5 N 10.097382 6.829222 -10.187129 0
M  V30 6 C 10.600796 7.807596 -9.359773 0
M  V30 7 C 10.497868 7.267036 -8.108656 0
M  V30 8 C 10.883674 7.828108 -6.815222 0
M  V30 9 C 10.897513 9.225237 -6.634834 0
M  V30 10 C 11.287595 9.795682 -5.408453 0
M  V30 11 C 11.687595 8.961274 -4.347991 0
M  V30 12 C 12.085872 9.506239 -3.111068 0
M  V30 13 C 12.486036 8.662930 -2.060073 0
M  V30 14 C 12.485717 7.269787 -2.246816 0
M  V30 15 C 12.081637 6.721238 -3.470212 0
M  V30 16 C 11.685532 7.557315 -4.525282 0
M  V30 17 C 11.274957 6.994406 -5.748898 0
M  V30 18 N 9.936044 5.993993 -8.236637 0
M  V30 19 N 9.686156 5.749540 -9.483152 0
M  V30 20 C 8.085174 4.918981 -13.460992 0
M  V30 21 N 7.691926 3.487095 -13.446871 0 CHG=1
M  V30 22 C 6.223682 3.272811 -13.591796 0
M  V30 23 C 5.852254 1.777702 -13.583437 0
M  V30 24 N 6.668382 1.064108 -14.552134 0
M  V30 25 C 6.075563 0.159646 -15.453380 0
M  V30 26 C 5.152827 -0.789363 -14.957219 0
M  V30 27 C 4.486402 -1.670035 -15.828361 0
M  V30 28 C 4.737085 -1.619403 -17.208557 0
M  V30 29 C 5.647139 -0.678802 -17.722704 0
M  V30 30 Cl 5.904227 -0.614661 -19.430525 0
M  V30 31 C 6.317471 0.214105 -16.853855 0
M  V30 32 Cl 7.364245 1.413472 -17.537876 0
M  V30 33 C 8.110613 1.194066 -14.428113 0
M  V30 34 C 8.499885 2.685552 -14.413100 0
M  V30 35 H 6.229917 6.776823 -11.518268 0
M  V30 36 H 7.836152 5.134982 -11.292447 0
M  V30 37 H 8.486679 7.539317 -13.046876 0
M  V30 38 H 8.086030 7.764314 -11.446315 0
M  V30 39 H 10.452621 5.952855 -12.040364 0
M  V30 40 H 10.590409 7.691318 -11.996509 0
M  V30 41 H 10.980814 8.753434 -9.714009 0
M  V30 42 H 10.596472 9.859541 -7.446826 0
M  V30 43 H 11.283930 10.869144 -5.290593 0
M  V30 44 H 12.085195 10.572350 -2.954061 0
M  V30 45 H 12.795373 9.088521 -1.116352 0
M  V30 46 H 12.800689 6.614946 -1.447544 0
M  V30 47 H 12.086075 5.655450 -3.601914 0
M  V30 48 H 11.278415 5.922367 -5.876338 0
M  V30 49 H 7.696574 5.372347 -14.365715 0
M  V30 50 H 9.169238 4.949325 -13.567999 0
M  V30 51 H 5.685110 3.766745 -12.784749 0
M  V30 52 H 5.884450 3.729822 -14.522100 0
M  V30 53 H 6.022144 1.346224 -12.597211 0
M  V30 54 H 4.789819 1.657816 -13.800268 0
M  V30 55 H 4.949569 -0.846450 -13.898618 0
M  V30 56 H 3.777977 -2.389832 -15.446828 0
M  V30 57 H 4.219096 -2.299051 -17.870823 0
M  V30 58 H 8.424381 0.711112 -13.501735 0
M  V30 59 H 8.629580 0.668709 -15.230068 0
M  V30 60 H 8.374586 3.103805 -15.411753 0
M  V30 61 H 9.560014 2.771314 -14.172236 0
M  V30 62 H 7.934316 3.136189 -12.532615 0
M  V30 END ATOM
M  V30 BEGIN BOND
M  V30 1 1 2 1
M  V30 2 1 3 2
M  V30 3 1 4 3
M  V30 4 1 5 4
M  V30 5 1 6 5
M  V30 6 2 7 6
M  V30 7 1 8 7
M  V30 8 1 9 8
M  V30 9 2 10 9
M  V30 10 1 11 10
M  V30 11 2 12 11
M  V30 12 1 13 12
M  V30 13 2 14 13
M  V30 14 1 15 14
M  V30 15 1 16 11
M  V30 16 2 16 15
M  V30 17 2 17 8
M  V30 18 1 17 16
M  V30 19 1 18 7
M  V30 20 1 19 5
M  V30 21 2 19 18
M  V30 22 1 20 2
M  V30 23 1 21 20
M  V30 24 1 22 21
M  V30 25 1 23 22
M  V30 26 1 24 23
M  V30 27 1 25 24
M  V30 28 2 26 25
M  V30 29 1 27 26
M  V30 30 2 28 27
M  V30 31 1 29 28
M  V30 32 1 30 29
M  V30 33 1 31 25
M  V30 34 2 31 29
M  V30 35 1 32 31
M  V30 36 1 33 24
M  V30 37 1 34 21
M  V30 38 1 34 33
M  V30 39 1 35 1
M  V30 40 1 2 36 CFG=1
M  V30 41 1 37 3
M  V30 42 1 38 3
M  V30 43 1 39 4
M  V30 44 1 40 4
M  V30 45 1 41 6
M  V30 46 1 42 9
M  V30 47 1 43 10
M  V30 48 1 44 12
M  V30 49 1 45 13
M  V30 50 1 46 14
M  V30 51 1 47 15
M  V30 52 1 48 17
M  V30 53 1 49 20
M  V30 54 1 50 20
M  V30 55 1 51 22
M  V30 56 1 52 22
M  V30 57 1 53 23
M  V30 58 1 54 23
M  V30 59 1 55 26
M  V30 60 1 56 27
M  V30 61 1 57 28
M  V30 62 1 58 33
M  V30 63 1 59 33
M  V30 64 1 60 34
M  V30 65 1 61 34
M  V30 66 1 62 21
M  V30 END BOND
M  V30 END CTAB
M  END
>  <b_m_subgroup_collapsed>  (313) 
0

>  <r_i_docking_score>  (313) 
-8.5376967114620808

>  <s_m_subgroup_title>  (313) 
glide-dock_SP_D22_pv

>  <s_m_subgroupid>  (313) 
glide-dock_SP_D22_pv

>  <Molecule ChEMBL ID>  (313) 
CHEMBL3588995

>  <Standard Type>  (313) 
Ki

>  <Standard Value>  (313) 
18800.0

>  <label>  (313) 
0

$$$$
CHEMBL4472382
     RDKit          3D

  0  0  0  0  0  0  0  0  0  0999 V3000
M  V30 BEGIN CTAB
M  V30 COUNTS 52 55 0 0 1
M  V30 BEGIN ATOM
M  V30 1 O 8.657028 8.318023 -7.087842 0
M  V30 2 C 9.920514 7.698537 -7.228836 0 CFG=1
M  V30 3 C 10.723100 7.895716 -5.929208 0
M  V30 4 C 11.206985 6.809922 -5.158662 0
M  V30 5 C 11.828499 7.018281 -3.913709 0
M  V30 6 C 11.993792 8.325212 -3.423232 0
M  V30 7 Cl 12.648218 8.573409 -1.848771 0
M  V30 8 C 11.567991 9.420042 -4.197950 0
M  V30 9 C 10.936750 9.206881 -5.440857 0
M  V30 10 C 9.660157 6.212520 -7.575856 0
M  V30 11 C 9.061793 5.987378 -8.975892 0
M  V30 12 N 9.913641 6.622822 -10.005216 0 CFG=1 CHG=1
M  V30 13 C 9.557445 6.212809 -11.384392 0
M  V30 14 C 10.608633 6.660149 -12.416713 0
M  V30 15 C 10.543536 5.873955 -13.713430 0 CFG=1
M  V30 16 C 11.607169 6.064973 -14.770538 0
M  V30 17 C 11.521859 4.760529 -14.014069 0 CFG=2
M  V30 18 C 11.067437 3.492740 -14.663973 0
M  V30 19 C 11.672212 3.045857 -15.858725 0
M  V30 20 C 11.287788 1.821279 -16.440062 0
M  V30 21 C 10.296740 1.030778 -15.828944 0
M  V30 22 F 9.956245 -0.165388 -16.366903 0
M  V30 23 C 9.672750 1.479462 -14.651158 0
M  V30 24 C 10.055658 2.706177 -14.073895 0
M  V30 25 C 9.988389 8.088506 -9.783291 0
M  V30 26 C 10.642603 8.378100 -8.418341 0
M  V30 27 H 7.960024 7.778874 -7.450233 0
M  V30 28 H 11.073418 5.787181 -5.468491 0
M  V30 29 H 12.150087 6.172749 -3.323397 0
M  V30 30 H 11.684587 10.421310 -3.813539 0
M  V30 31 H 10.569759 10.057175 -5.994409 0
M  V30 32 H 10.601165 5.660127 -7.555252 0
M  V30 33 H 9.010120 5.774498 -6.818871 0
M  V30 34 H 8.054782 6.393782 -9.037914 0
M  V30 35 H 8.977963 4.915632 -9.161684 0
M  V30 36 H 9.489893 5.124938 -11.408783 0
M  V30 37 H 8.567768 6.593136 -11.648917 0
M  V30 38 H 10.472167 7.716269 -12.645210 0
M  V30 39 H 11.616677 6.573114 -12.012402 0
M  V30 40 H 9.533190 5.769799 -14.109468 0
M  V30 41 H 11.275164 6.084069 -15.807149 0
M  V30 42 H 12.430172 6.734990 -14.532732 0
M  V30 43 H 12.312861 4.560179 -13.294145 0
M  V30 44 H 12.453771 3.630948 -16.321243 0
M  V30 45 H 11.774379 1.474244 -17.339323 0
M  V30 46 H 8.915375 0.872508 -14.176619 0
M  V30 47 H 9.588370 3.026392 -13.154714 0
M  V30 48 H 8.991399 8.528465 -9.841134 0
M  V30 49 H 10.586231 8.570559 -10.554345 0
M  V30 50 H 10.696585 9.454488 -8.268800 0
M  V30 51 H 11.676684 8.029889 -8.450796 0
M  V30 52 H 10.845531 6.263508 -9.852502 0
M  V30 END ATOM
M  V30 BEGIN BOND
M  V30 1 1 2 1 CFG=1
M  V30 2 1 3 2
M  V30 3 1 4 3
M  V30 4 2 5 4
M  V30 5 1 6 5
M  V30 6 1 7 6
M  V30 7 2 8 6
M  V30 8 2 9 3
M  V30 9 1 9 8
M  V30 10 1 10 2
M  V30 11 1 11 10
M  V30 12 1 12 11
M  V30 13 1 13 12
M  V30 14 1 14 13
M  V30 15 1 15 14
M  V30 16 1 16 15
M  V30 17 1 17 15
M  V30 18 1 17 16
M  V30 19 1 18 17
M  V30 20 1 19 18
M  V30 21 2 20 19
M  V30 22 1 21 20
M  V30 23 1 22 21
M  V30 24 2 23 21
M  V30 25 2 24 18
M  V30 26 1 24 23
M  V30 27 1 25 12
M  V30 28 1 26 2
M  V30 29 1 26 25
M  V30 30 1 27 1
M  V30 31 1 28 4
M  V30 32 1 29 5
M  V30 33 1 30 8
M  V30 34 1 31 9
M  V30 35 1 32 10
M  V30 36 1 33 10
M  V30 37 1 34 11
M  V30 38 1 35 11
M  V30 39 1 36 13
M  V30 40 1 37 13
M  V30 41 1 38 14
M  V30 42 1 39 14
M  V30 43 1 15 40 CFG=3
M  V30 44 1 41 16
M  V30 45 1 42 16
M  V30 46 1 17 43 CFG=1
M  V30 47 1 44 19
M  V30 48 1 45 20
M  V30 49 1 46 23
M  V30 50 1 47 24
M  V30 51 1 48 25
M  V30 52 1 49 25
M  V30 53 1 50 26
M  V30 54 1 51 26
M  V30 55 1 12 52 CFG=1
M  V30 END BOND
M  V30 END CTAB
M  END
>  <b_m_subgroup_collapsed>  (314) 
0

>  <r_i_docking_score>  (314) 
-8.5372264067671608

>  <s_m_subgroup_title>  (314) 
glide-dock_SP_D22_pv

>  <s_m_subgroupid>  (314) 
glide-dock_SP_D22_pv

>  <Molecule ChEMBL ID>  (314) 
CHEMBL4472382

>  <Standard Type>  (314) 
Ki

>  <Standard Value>  (314) 
1.514

>  <label>  (314) 
1

$$$$
CHEMBL574595
     RDKit          3D

  0  0  0  0  0  0  0  0  0  0999 V3000
M  V30 BEGIN CTAB
M  V30 COUNTS 92 97 0 0 1
M  V30 BEGIN ATOM
M  V30 1 C 11.723519 11.037109 -6.089966 0
M  V30 2 O 11.004275 9.827221 -6.155090 0
M  V30 3 C 11.263611 8.900562 -5.172918 0
M  V30 4 C 11.869140 9.240554 -3.933771 0
M  V30 5 C 12.200747 8.255254 -2.990169 0
M  V30 6 C 11.927916 6.910978 -3.271080 0
M  V30 7 C 11.286007 6.572378 -4.474737 0
M  V30 8 C 10.917722 7.550272 -5.423328 0
M  V30 9 N 10.210481 7.142600 -6.569630 0
M  V30 10 C 9.041064 7.863468 -7.072889 0
M  V30 11 C 9.344792 8.582134 -8.412517 0
M  V30 12 N 9.954629 7.666742 -9.383278 0
M  V30 13 C 10.222520 8.365250 -10.638389 0
M  V30 14 C 10.426266 7.396308 -11.826496 0
M  V30 15 C 11.886333 7.224833 -12.301547 0
M  V30 16 N 11.993249 6.575586 -13.597991 0
M  V30 17 C 12.086097 5.230720 -13.897885 0
M  V30 18 C 12.306359 5.223613 -15.247239 0
M  V30 19 C 12.638817 4.084412 -16.166494 0
M  V30 20 C 11.424953 3.354799 -16.764723 0
M  V30 21 C 10.590546 2.577426 -15.729404 0
M  V30 22 N 9.643767 1.637973 -16.388647 0 CFG=1 CHG=1
M  V30 23 C 10.266657 0.355135 -16.799667 0
M  V30 24 C 9.771733 -0.092985 -18.189600 0
M  V30 25 C 8.325399 0.228897 -18.594557 0
M  V30 26 C 8.067882 0.276915 -19.982553 0
M  V30 27 C 6.783412 0.558856 -20.474237 0
M  V30 28 O 6.535696 0.557397 -21.814346 0
M  V30 29 C 5.737721 0.835847 -19.581299 0
M  V30 30 O 4.485136 1.074226 -20.071268 0
M  V30 31 C 5.985873 0.839639 -18.196148 0
M  V30 32 C 7.259700 0.482675 -17.681170 0
M  V30 33 C 7.466213 0.318610 -16.167614 0 CFG=2
M  V30 34 C 6.180279 0.084266 -15.341259 0
M  V30 35 C 5.907592 0.900349 -14.214587 0
M  V30 36 C 4.723475 0.751264 -13.472009 0
M  V30 37 C 3.777061 -0.214613 -13.847320 0
M  V30 38 C 4.043035 -1.061901 -14.931058 0
M  V30 39 C 5.242914 -0.946792 -15.662537 0
M  V30 40 C 5.440842 -1.951996 -16.789076 0
M  V30 41 C 8.393957 1.436433 -15.608560 0
M  V30 42 N 12.252054 6.534514 -15.713914 0
M  V30 43 N 12.086711 7.337596 -14.712664 0
M  V30 44 C 11.198640 7.171012 -8.803168 0
M  V30 45 C 10.895371 6.323007 -7.553069 0
M  V30 46 H 11.685409 11.577212 -7.035799 0
M  V30 47 H 11.286038 11.654971 -5.308215 0
M  V30 48 H 12.778927 10.861320 -5.878378 0
M  V30 49 H 12.086820 10.259381 -3.669662 0
M  V30 50 H 12.662473 8.533884 -2.054080 0
M  V30 51 H 12.171606 6.141034 -2.552897 0
M  V30 52 H 11.024689 5.547389 -4.646957 0
M  V30 53 H 8.675939 8.575871 -6.333642 0
M  V30 54 H 8.236382 7.142573 -7.219917 0
M  V30 55 H 10.005981 9.434129 -8.260473 0
M  V30 56 H 8.418155 8.983978 -8.821288 0
M  V30 57 H 11.054360 9.064499 -10.536928 0
M  V30 58 H 9.345686 8.971662 -10.869506 0
M  V30 59 H 9.850677 7.816662 -12.646705 0
M  V30 60 H 9.967875 6.427541 -11.624034 0
M  V30 61 H 12.477544 6.657005 -11.596390 0
M  V30 62 H 12.407356 8.172417 -12.361104 0
M  V30 63 H 12.060393 4.448050 -13.155769 0
M  V30 64 H 13.284752 3.372331 -15.658032 0
M  V30 65 H 13.245416 4.463476 -16.991199 0
M  V30 66 H 11.799783 2.663936 -17.519682 0
M  V30 67 H 10.790519 4.064666 -17.296089 0
M  V30 68 H 10.038927 3.298639 -15.123089 0
M  V30 69 H 11.233020 2.025522 -15.039101 0
M  V30 70 H 11.352748 0.447736 -16.851847 0
M  V30 71 H 10.107766 -0.413090 -16.041945 0
M  V30 72 H 9.931574 -1.166713 -18.300760 0
M  V30 73 H 10.419959 0.375792 -18.933460 0
M  V30 74 H 8.861269 0.072970 -20.688446 0
M  V30 75 H 5.607285 0.679367 -21.968647 0
M  V30 76 H 3.823010 1.114676 -19.397541 0
M  V30 77 H 5.163393 1.050807 -17.528696 0
M  V30 78 H 7.983496 -0.627787 -16.041279 0
M  V30 79 H 6.576274 1.681910 -13.892894 0
M  V30 80 H 4.527506 1.413083 -12.643517 0
M  V30 81 H 2.846800 -0.314698 -13.307656 0
M  V30 82 H 3.317319 -1.819417 -15.200261 0
M  V30 83 H 5.039624 -2.926143 -16.504877 0
M  V30 84 H 4.908144 -1.629116 -17.685631 0
M  V30 85 H 6.485498 -2.100591 -17.046732 0
M  V30 86 H 7.861073 2.388385 -15.599473 0
M  V30 87 H 8.668560 1.198496 -14.579792 0
M  V30 88 H 11.685999 6.572005 -9.558277 0
M  V30 89 H 11.873086 7.993655 -8.557604 0
M  V30 90 H 11.816905 5.918807 -7.132025 0
M  V30 91 H 10.265217 5.472538 -7.814540 0
M  V30 92 H 9.355474 2.088125 -17.245510 0
M  V30 END ATOM
M  V30 BEGIN BOND
M  V30 1 1 2 1
M  V30 2 1 3 2
M  V30 3 2 4 3
M  V30 4 1 5 4
M  V30 5 2 6 5
M  V30 6 1 7 6
M  V30 7 1 8 3
M  V30 8 2 8 7
M  V30 9 1 9 8
M  V30 10 1 10 9
M  V30 11 1 11 10
M  V30 12 1 12 11
M  V30 13 1 13 12
M  V30 14 1 14 13
M  V30 15 1 15 14
M  V30 16 1 16 15
M  V30 17 1 17 16
M  V30 18 2 18 17
M  V30 19 1 19 18
M  V30 20 1 20 19
M  V30 21 1 21 20
M  V30 22 1 22 21
M  V30 23 1 23 22
M  V30 24 1 24 23
M  V30 25 1 25 24
M  V30 26 1 26 25
M  V30 27 2 27 26
M  V30 28 1 28 27
M  V30 29 1 29 27
M  V30 30 1 30 29
M  V30 31 2 31 29
M  V30 32 2 32 25
M  V30 33 1 32 31
M  V30 34 1 33 32
M  V30 35 1 34 33
M  V30 36 2 35 34
M  V30 37 1 36 35
M  V30 38 2 37 36
M  V30 39 1 38 37
M  V30 40 1 39 34
M  V30 41 2 39 38
M  V30 42 1 40 39
M  V30 43 1 41 22
M  V30 44 1 41 33
M  V30 45 1 42 18
M  V30 46 1 43 16
M  V30 47 2 43 42
M  V30 48 1 44 12
M  V30 49 1 45 9
M  V30 50 1 45 44
M  V30 51 1 46 1
M  V30 52 1 47 1
M  V30 53 1 48 1
M  V30 54 1 49 4
M  V30 55 1 50 5
M  V30 56 1 51 6
M  V30 57 1 52 7
M  V30 58 1 53 10
M  V30 59 1 54 10
M  V30 60 1 55 11
M  V30 61 1 56 11
M  V30 62 1 57 13
M  V30 63 1 58 13
M  V30 64 1 59 14
M  V30 65 1 60 14
M  V30 66 1 61 15
M  V30 67 1 62 15
M  V30 68 1 63 17
M  V30 69 1 64 19
M  V30 70 1 65 19
M  V30 71 1 66 20
M  V30 72 1 67 20
M  V30 73 1 68 21
M  V30 74 1 69 21
M  V30 75 1 70 23
M  V30 76 1 71 23
M  V30 77 1 72 24
M  V30 78 1 73 24
M  V30 79 1 74 26
M  V30 80 1 75 28
M  V30 81 1 76 30
M  V30 82 1 77 31
M  V30 83 1 33 78 CFG=3
M  V30 84 1 79 35
M  V30 85 1 80 36
M  V30 86 1 81 37
M  V30 87 1 82 38
M  V30 88 1 83 40
M  V30 89 1 84 40
M  V30 90 1 85 40
M  V30 91 1 86 41
M  V30 92 1 87 41
M  V30 93 1 88 44
M  V30 94 1 89 44
M  V30 95 1 90 45
M  V30 96 1 91 45
M  V30 97 1 22 92 CFG=3
M  V30 END BOND
M  V30 END CTAB
M  END
>  <b_m_subgroup_collapsed>  (315) 
0

>  <r_i_docking_score>  (315) 
-8.5344488641693008

>  <s_m_subgroup_title>  (315) 
glide-dock_SP_D22_pv

>  <s_m_subgroupid>  (315) 
glide-dock_SP_D22_pv

>  <Molecule ChEMBL ID>  (315) 
CHEMBL574595

>  <Standard Type>  (315) 
Ki

>  <Standard Value>  (315) 
39.1

>  <label>  (315) 
1

$$$$
CHEMBL3818994
     RDKit          3D

  0  0  0  0  0  0  0  0  0  0999 V3000
M  V30 BEGIN CTAB
M  V30 COUNTS 43 45 0 0 1
M  V30 BEGIN ATOM
M  V30 1 O 10.725818 8.821188 -7.172297 0
M  V30 2 C 10.849990 7.883356 -6.384333 0
M  V30 3 C 10.447968 6.462767 -6.808911 0
M  V30 4 C 10.270285 6.227385 -8.315460 0
M  V30 5 C 8.990412 6.832391 -8.935890 0
M  V30 6 N 8.876897 6.573764 -10.392786 0 CFG=2 CHG=1
M  V30 7 C 8.603258 5.151418 -10.734918 0
M  V30 8 C 8.454485 4.952179 -12.244442 0
M  V30 9 C 9.722943 5.392011 -12.935184 0
M  V30 10 C 10.222760 4.683461 -14.045734 0
M  V30 11 C 11.419775 5.097713 -14.659090 0
M  V30 12 C 12.114996 6.215100 -14.160383 0
M  V30 13 C 11.622590 6.918404 -13.044667 0
M  V30 14 C 10.418085 6.513628 -12.429425 0
M  V30 15 C 9.862941 7.303255 -11.246738 0
M  V30 16 C 11.374580 8.049745 -4.997150 0
M  V30 17 C 11.686004 6.937133 -4.174927 0
M  V30 18 C 12.186059 7.117594 -2.874001 0
M  V30 19 C 12.392452 8.413973 -2.377946 0
M  V30 20 F 12.886155 8.586352 -1.133555 0
M  V30 21 C 12.085539 9.527703 -3.177329 0
M  V30 22 C 11.588710 9.350291 -4.483871 0
M  V30 23 H 9.547741 6.171958 -6.267467 0
M  V30 24 H 11.243541 5.789335 -6.499513 0
M  V30 25 H 10.270312 5.148297 -8.463590 0
M  V30 26 H 11.161182 6.590020 -8.827434 0
M  V30 27 H 8.954732 7.910969 -8.783533 0
M  V30 28 H 8.092136 6.437808 -8.447541 0
M  V30 29 H 7.686733 4.828222 -10.238473 0
M  V30 30 H 9.408654 4.510094 -10.376970 0
M  V30 31 H 7.613869 5.530482 -12.630705 0
M  V30 32 H 8.252161 3.902841 -12.464334 0
M  V30 33 H 9.695133 3.822273 -14.429066 0
M  V30 34 H 11.806581 4.557167 -15.510316 0
M  V30 35 H 13.036916 6.528366 -14.628991 0
M  V30 36 H 12.168965 7.772658 -12.672031 0
M  V30 37 H 10.697317 7.681047 -10.658042 0
M  V30 38 H 9.360613 8.187152 -11.640304 0
M  V30 39 H 11.540429 5.920573 -4.503341 0
M  V30 40 H 12.413081 6.259195 -2.258376 0
M  V30 41 H 12.226719 10.521946 -2.780097 0
M  V30 42 H 11.364174 10.221539 -5.083330 0
M  V30 43 H 7.985266 7.029562 -10.602169 0
M  V30 END ATOM
M  V30 BEGIN BOND
M  V30 1 2 2 1
M  V30 2 1 3 2
M  V30 3 1 4 3
M  V30 4 1 5 4
M  V30 5 1 6 5
M  V30 6 1 7 6
M  V30 7 1 8 7
M  V30 8 1 9 8
M  V30 9 2 10 9
M  V30 10 1 11 10
M  V30 11 2 12 11
M  V30 12 1 13 12
M  V30 13 1 14 9
M  V30 14 2 14 13
M  V30 15 1 15 6
M  V30 16 1 15 14
M  V30 17 1 16 2
M  V30 18 1 17 16
M  V30 19 2 18 17
M  V30 20 1 19 18
M  V30 21 1 20 19
M  V30 22 2 21 19
M  V30 23 2 22 16
M  V30 24 1 22 21
M  V30 25 1 23 3
M  V30 26 1 24 3
M  V30 27 1 25 4
M  V30 28 1 26 4
M  V30 29 1 27 5
M  V30 30 1 28 5
M  V30 31 1 29 7
M  V30 32 1 30 7
M  V30 33 1 31 8
M  V30 34 1 32 8
M  V30 35 1 33 10
M  V30 36 1 34 11
M  V30 37 1 35 12
M  V30 38 1 36 13
M  V30 39 1 37 15
M  V30 40 1 38 15
M  V30 41 1 39 17
M  V30 42 1 40 18
M  V30 43 1 41 21
M  V30 44 1 42 22
M  V30 45 1 6 43 CFG=3
M  V30 END BOND
M  V30 END CTAB
M  END
>  <b_m_subgroup_collapsed>  (316) 
0

>  <r_i_docking_score>  (316) 
-8.5325177437414208

>  <s_m_subgroup_title>  (316) 
glide-dock_SP_D22_pv

>  <s_m_subgroupid>  (316) 
glide-dock_SP_D22_pv

>  <Molecule ChEMBL ID>  (316) 
CHEMBL3818994

>  <Standard Type>  (316) 
Ki

>  <Standard Value>  (316) 
49.0

>  <label>  (316) 
1

$$$$
CHEMBL351550
     RDKit          3D

  0  0  0  0  0  0  0  0  0  0999 V3000
M  V30 BEGIN CTAB
M  V30 COUNTS 56 60 0 0 1
M  V30 BEGIN ATOM
M  V30 1 C 12.075638 6.871285 -12.901492 0
M  V30 2 C 10.744395 6.170468 -12.915243 0
M  V30 3 N 10.586105 5.060530 -13.600966 0
M  V30 4 N 9.258325 4.732274 -13.453539 0
M  V30 5 C 8.606861 3.663886 -14.017995 0
M  V30 6 C 9.322485 2.698258 -14.882406 0
M  V30 7 C 9.201703 1.309754 -14.647491 0
M  V30 8 C 9.866098 0.375159 -15.464383 0
M  V30 9 C 10.662896 0.816682 -16.535227 0
M  V30 10 C 10.792336 2.195749 -16.785532 0
M  V30 11 C 10.122305 3.126674 -15.967148 0
M  V30 12 C 7.260266 3.508676 -13.746077 0
M  V30 13 C 6.577181 4.410905 -12.894192 0
M  V30 14 C 7.236725 5.474525 -12.329330 0
M  V30 15 C 8.615920 5.661671 -12.609851 0
M  V30 16 C 9.556733 6.589578 -12.246990 0
M  V30 17 C 9.375181 7.807792 -11.388508 0
M  V30 18 N 9.286346 7.500298 -9.939125 0 CHG=1
M  V30 19 C 10.386127 6.616634 -9.452787 0
M  V30 20 C 10.351984 6.384584 -7.934645 0
M  V30 21 N 10.197124 7.653351 -7.237952 0
M  V30 22 C 10.793473 7.870351 -5.981370 0
M  V30 23 C 11.009140 9.187001 -5.509144 0
M  V30 24 C 11.555852 9.409444 -4.230369 0
M  V30 25 C 11.901680 8.318627 -3.415629 0
M  V30 26 Cl 12.487082 8.575031 -1.821678 0
M  V30 27 C 11.728598 7.005726 -3.884554 0
M  V30 28 C 11.184627 6.788549 -5.161559 0
M  V30 29 C 9.045243 8.446847 -7.645993 0
M  V30 30 C 9.161301 8.749820 -9.141941 0
M  V30 31 H 12.050390 7.771194 -13.518499 0
M  V30 32 H 12.355452 7.176408 -11.893960 0
M  V30 33 H 12.885144 6.242501 -13.283152 0
M  V30 34 H 8.595134 0.950493 -13.830384 0
M  V30 35 H 9.758774 -0.681773 -15.269739 0
M  V30 36 H 11.174147 0.102844 -17.164553 0
M  V30 37 H 11.402345 2.543463 -17.606823 0
M  V30 38 H 10.229548 4.181276 -16.175070 0
M  V30 39 H 6.720472 2.676294 -14.184950 0
M  V30 40 H 5.522279 4.263594 -12.683600 0
M  V30 41 H 6.718837 6.172234 -11.676121 0
M  V30 42 H 10.196143 8.507222 -11.547072 0
M  V30 43 H 8.468681 8.336938 -11.688693 0
M  V30 44 H 10.350393 5.645420 -9.946340 0
M  V30 45 H 11.341377 7.076250 -9.715005 0
M  V30 46 H 9.522210 5.727334 -7.670177 0
M  V30 47 H 11.269546 5.878165 -7.636555 0
M  V30 48 H 10.752358 10.043105 -6.116903 0
M  V30 49 H 11.679618 10.416904 -3.867790 0
M  V30 50 H 11.990225 6.165900 -3.256396 0
M  V30 51 H 11.036685 5.772598 -5.478377 0
M  V30 52 H 8.123725 7.893366 -7.442029 0
M  V30 53 H 8.963828 9.372070 -7.085167 0
M  V30 54 H 10.039452 9.373656 -9.314328 0
M  V30 55 H 8.298505 9.328860 -9.473519 0
M  V30 56 H 8.407964 7.011131 -9.801737 0
M  V30 END ATOM
M  V30 BEGIN BOND
M  V30 1 1 2 1
M  V30 2 2 3 2
M  V30 3 1 4 3
M  V30 4 1 5 4
M  V30 5 1 6 5
M  V30 6 2 7 6
M  V30 7 1 8 7
M  V30 8 2 9 8
M  V30 9 1 10 9
M  V30 10 1 11 6
M  V30 11 2 11 10
M  V30 12 2 12 5
M  V30 13 1 13 12
M  V30 14 2 14 13
M  V30 15 1 15 4
M  V30 16 1 15 14
M  V30 17 1 16 2
M  V30 18 2 16 15
M  V30 19 1 17 16
M  V30 20 1 18 17
M  V30 21 1 19 18
M  V30 22 1 20 19
M  V30 23 1 21 20
M  V30 24 1 22 21
M  V30 25 1 23 22
M  V30 26 2 24 23
M  V30 27 1 25 24
M  V30 28 1 26 25
M  V30 29 2 27 25
M  V30 30 2 28 22
M  V30 31 1 28 27
M  V30 32 1 29 21
M  V30 33 1 30 18
M  V30 34 1 30 29
M  V30 35 1 31 1
M  V30 36 1 32 1
M  V30 37 1 33 1
M  V30 38 1 34 7
M  V30 39 1 35 8
M  V30 40 1 36 9
M  V30 41 1 37 10
M  V30 42 1 38 11
M  V30 43 1 39 12
M  V30 44 1 40 13
M  V30 45 1 41 14
M  V30 46 1 42 17
M  V30 47 1 43 17
M  V30 48 1 44 19
M  V30 49 1 45 19
M  V30 50 1 46 20
M  V30 51 1 47 20
M  V30 52 1 48 23
M  V30 53 1 49 24
M  V30 54 1 50 27
M  V30 55 1 51 28
M  V30 56 1 52 29
M  V30 57 1 53 29
M  V30 58 1 54 30
M  V30 59 1 55 30
M  V30 60 1 56 18
M  V30 END BOND
M  V30 END CTAB
M  END
>  <b_m_subgroup_collapsed>  (317) 
0

>  <r_i_docking_score>  (317) 
-8.5323296107934308

>  <s_m_subgroup_title>  (317) 
glide-dock_SP_D22_pv

>  <s_m_subgroupid>  (317) 
glide-dock_SP_D22_pv

>  <Molecule ChEMBL ID>  (317) 
CHEMBL351550

>  <Standard Type>  (317) 
Ki

>  <Standard Value>  (317) 
24000.0

>  <label>  (317) 
0

$$$$
CHEMBL1834258
     RDKit          3D

  0  0  0  0  0  0  0  0  0  0999 V3000
M  V30 BEGIN CTAB
M  V30 COUNTS 55 58 0 0 1
M  V30 BEGIN ATOM
M  V30 1 C 12.485629 7.223624 -2.307434 0
M  V30 2 C 12.486816 8.590376 -1.981573 0
M  V30 3 C 12.059279 9.540937 -2.924994 0
M  V30 4 C 11.619977 9.135577 -4.200657 0
M  V30 5 C 11.061024 10.166463 -5.171445 0
M  V30 6 C 11.589040 10.004205 -6.603938 0
M  V30 7 C 10.681453 9.136429 -7.500974 0
M  V30 8 C 11.494325 8.316246 -8.524127 0
M  V30 9 N 10.703348 7.509545 -9.455882 0
M  V30 10 C 9.966227 8.325582 -10.420484 0
M  V30 11 C 9.379121 7.413460 -11.512223 0
M  V30 12 N 8.486062 6.396486 -10.906366 0 CHG=1
M  V30 13 C 7.754102 5.559683 -11.886794 0
M  V30 14 C 8.640429 4.852693 -12.867127 0
M  V30 15 C 9.478713 3.772229 -12.729537 0
M  V30 16 C 10.018753 3.516135 -14.030626 0
M  V30 17 C 10.887142 2.568971 -14.616412 0
M  V30 18 C 11.213162 2.634732 -15.988164 0
M  V30 19 C 10.665946 3.646294 -16.805027 0
M  V30 20 C 9.785668 4.595151 -16.250164 0
M  V30 21 C 9.483084 4.513108 -14.880747 0
M  V30 22 O 8.641797 5.329836 -14.152076 0
M  V30 23 C 9.187534 5.628317 -9.848202 0
M  V30 24 C 9.780302 6.582625 -8.796258 0
M  V30 25 C 11.667401 7.764270 -4.535659 0
M  V30 26 C 12.085915 6.816089 -3.588771 0
M  V30 27 H 12.807916 6.486390 -1.586250 0
M  V30 28 H 12.815194 8.918957 -1.010009 0
M  V30 29 H 12.042848 10.584352 -2.645652 0
M  V30 30 H 9.975659 10.132362 -5.147090 0
M  V30 31 H 11.285830 11.167245 -4.813537 0
M  V30 32 H 11.671909 10.995328 -7.046821 0
M  V30 33 H 12.611117 9.621445 -6.575736 0
M  V30 34 H 10.089111 8.464813 -6.882810 0
M  V30 35 H 9.949800 9.772109 -7.995460 0
M  V30 36 H 12.143911 8.977201 -9.099504 0
M  V30 37 H 12.160079 7.643711 -7.981863 0
M  V30 38 H 9.174112 8.896579 -9.932312 0
M  V30 39 H 10.651763 9.036154 -10.880489 0
M  V30 40 H 8.814514 8.013707 -12.227010 0
M  V30 41 H 10.187572 6.931935 -12.065254 0
M  V30 42 H 7.135260 4.834923 -11.356206 0
M  V30 43 H 7.055913 6.205044 -12.422019 0
M  V30 44 H 9.685567 3.187662 -11.845779 0
M  V30 45 H 11.297172 1.781837 -14.001616 0
M  V30 46 H 11.885378 1.903569 -16.414312 0
M  V30 47 H 10.918548 3.689865 -17.854456 0
M  V30 48 H 9.352901 5.371142 -16.863308 0
M  V30 49 H 8.487803 4.942709 -9.368047 0
M  V30 50 H 9.985214 5.024778 -10.282200 0
M  V30 51 H 10.315055 6.007101 -8.039257 0
M  V30 52 H 8.977077 7.121057 -8.289484 0
M  V30 53 H 11.350731 7.409803 -5.502372 0
M  V30 54 H 12.085647 5.771797 -3.849479 0
M  V30 55 H 7.750495 6.934789 -10.439728 0
M  V30 END ATOM
M  V30 BEGIN BOND
M  V30 1 2 2 1
M  V30 2 1 3 2
M  V30 3 2 4 3
M  V30 4 1 5 4
M  V30 5 1 6 5
M  V30 6 1 7 6
M  V30 7 1 8 7
M  V30 8 1 9 8
M  V30 9 1 10 9
M  V30 10 1 11 10
M  V30 11 1 12 11
M  V30 12 1 13 12
M  V30 13 1 14 13
M  V30 14 2 15 14
M  V30 15 1 16 15
M  V30 16 2 17 16
M  V30 17 1 18 17
M  V30 18 2 19 18
M  V30 19 1 20 19
M  V30 20 1 21 16
M  V30 21 2 21 20
M  V30 22 1 22 14
M  V30 23 1 22 21
M  V30 24 1 23 12
M  V30 25 1 24 9
M  V30 26 1 24 23
M  V30 27 1 25 4
M  V30 28 1 26 1
M  V30 29 2 26 25
M  V30 30 1 27 1
M  V30 31 1 28 2
M  V30 32 1 29 3
M  V30 33 1 30 5
M  V30 34 1 31 5
M  V30 35 1 32 6
M  V30 36 1 33 6
M  V30 37 1 34 7
M  V30 38 1 35 7
M  V30 39 1 36 8
M  V30 40 1 37 8
M  V30 41 1 38 10
M  V30 42 1 39 10
M  V30 43 1 40 11
M  V30 44 1 41 11
M  V30 45 1 42 13
M  V30 46 1 43 13
M  V30 47 1 44 15
M  V30 48 1 45 17
M  V30 49 1 46 18
M  V30 50 1 47 19
M  V30 51 1 48 20
M  V30 52 1 49 23
M  V30 53 1 50 23
M  V30 54 1 51 24
M  V30 55 1 52 24
M  V30 56 1 53 25
M  V30 57 1 54 26
M  V30 58 1 55 12
M  V30 END BOND
M  V30 END CTAB
M  END
>  <b_m_subgroup_collapsed>  (318) 
0

>  <r_i_docking_score>  (318) 
-8.5303820431911106

>  <s_m_subgroup_title>  (318) 
glide-dock_SP_D22_pv

>  <s_m_subgroupid>  (318) 
glide-dock_SP_D22_pv

>  <Molecule ChEMBL ID>  (318) 
CHEMBL1834258

>  <Standard Type>  (318) 
Ki

>  <Standard Value>  (318) 
89.0

>  <label>  (318) 
1

$$$$
CHEMBL4870307
     RDKit          3D

  0  0  0  0  0  0  0  0  0  0999 V3000
M  V30 BEGIN CTAB
M  V30 COUNTS 73 77 0 0 1
M  V30 BEGIN ATOM
M  V30 1 C 10.656678 0.283494 -15.873004 0
M  V30 2 O 10.144444 1.398341 -15.155184 0
M  V30 3 C 8.808346 1.395845 -14.811409 0
M  V30 4 C 7.957058 0.282421 -15.015940 0
M  V30 5 C 6.585237 0.344924 -14.704520 0
M  V30 6 C 5.648470 -0.814753 -15.039390 0
M  V30 7 N 5.193282 -0.779732 -16.457003 0 CHG=1
M  V30 8 C 6.230662 -1.217347 -17.435358 0
M  V30 9 C 5.761024 -1.035532 -18.886913 0
M  V30 10 C 4.442701 -1.775185 -19.133196 0
M  V30 11 C 3.406693 -1.323667 -18.101437 0
M  V30 12 C 3.921597 -1.522730 -16.664459 0
M  V30 13 C 6.085951 1.506919 -14.088470 0
M  V30 14 C 6.920580 2.616735 -13.856464 0
M  V30 15 C 8.286317 2.578352 -14.241531 0
M  V30 16 O 9.172895 3.624912 -14.072064 0
M  V30 17 C 8.717796 4.878768 -13.582851 0
M  V30 18 C 8.899914 5.005658 -12.058210 0
M  V30 19 C 8.285238 6.323763 -11.554031 0
M  V30 20 N 8.886111 6.910125 -10.325207 0 CFG=2 CHG=1
M  V30 21 C 10.274040 7.411937 -10.504622 0
M  V30 22 C 10.720321 8.270064 -9.309302 0
M  V30 23 C 10.549585 7.547416 -7.948595 0 CFG=1
M  V30 24 C 10.929792 8.442988 -6.775975 0
M  V30 25 N 10.885754 9.770776 -6.889898 0
M  V30 26 O 11.266265 10.346654 -5.650610 0
M  V30 27 C 11.534260 9.338221 -4.750401 0
M  V30 28 C 11.940108 9.384279 -3.411098 0
M  V30 29 C 12.130686 8.163903 -2.740291 0
M  V30 30 F 12.525619 8.171769 -1.447619 0
M  V30 31 C 11.909421 6.938516 -3.415732 0
M  V30 32 C 11.490243 6.918278 -4.768332 0
M  V30 33 C 11.311634 8.144105 -5.444982 0
M  V30 34 C 9.109809 7.002347 -7.845721 0
M  V30 35 C 8.726322 6.132648 -9.070442 0
M  V30 36 H 11.684997 0.486984 -16.166929 0
M  V30 37 H 10.653996 -0.619242 -15.259709 0
M  V30 38 H 10.092635 0.100931 -16.788019 0
M  V30 39 H 8.342457 -0.627466 -15.443871 0
M  V30 40 H 6.098256 -1.779538 -14.807304 0
M  V30 41 H 4.783703 -0.736668 -14.379116 0
M  V30 42 H 7.144673 -0.640883 -17.314390 0
M  V30 43 H 6.484809 -2.262571 -17.259750 0
M  V30 44 H 5.634241 0.025792 -19.108356 0
M  V30 45 H 6.524234 -1.405951 -19.572218 0
M  V30 46 H 4.080525 -1.584252 -20.143122 0
M  V30 47 H 4.593718 -2.853564 -19.055382 0
M  V30 48 H 3.169894 -0.272258 -18.265421 0
M  V30 49 H 2.486100 -1.881049 -18.248861 0
M  V30 50 H 4.086230 -2.583874 -16.464796 0
M  V30 51 H 3.160341 -1.182235 -15.961637 0
M  V30 52 H 5.041151 1.572442 -13.818971 0
M  V30 53 H 6.483241 3.480399 -13.379280 0
M  V30 54 H 9.337073 5.636897 -14.061646 0
M  V30 55 H 7.702195 5.116550 -13.899806 0
M  V30 56 H 8.428341 4.168946 -11.543046 0
M  V30 57 H 9.962456 4.949826 -11.829501 0
M  V30 58 H 8.358178 7.086173 -12.330300 0
M  V30 59 H 7.217766 6.172491 -11.406149 0
M  V30 60 H 10.958150 6.573739 -10.620123 0
M  V30 61 H 10.339842 8.004102 -11.417762 0
M  V30 62 H 11.758085 8.575201 -9.442294 0
M  V30 63 H 10.129010 9.187602 -9.320641 0
M  V30 64 H 11.224686 6.692139 -7.945549 0
M  V30 65 H 12.090369 10.327270 -2.906232 0
M  V30 66 H 12.053145 6.006927 -2.886034 0
M  V30 67 H 11.321605 5.978264 -5.275139 0
M  V30 68 H 8.999259 6.416708 -6.931713 0
M  V30 69 H 8.416193 7.837281 -7.754855 0
M  V30 70 H 7.690978 5.800698 -8.975018 0
M  V30 71 H 9.345984 5.235512 -9.110275 0
M  V30 72 H 4.986296 0.186537 -16.660818 0
M  V30 73 H 8.280110 7.715164 -10.181037 0
M  V30 END ATOM
M  V30 BEGIN BOND
M  V30 1 1 2 1
M  V30 2 1 3 2
M  V30 3 1 4 3
M  V30 4 2 5 4
M  V30 5 1 6 5
M  V30 6 1 7 6
M  V30 7 1 8 7
M  V30 8 1 9 8
M  V30 9 1 10 9
M  V30 10 1 11 10
M  V30 11 1 12 7
M  V30 12 1 12 11
M  V30 13 1 13 5
M  V30 14 2 14 13
M  V30 15 2 15 3
M  V30 16 1 15 14
M  V30 17 1 16 15
M  V30 18 1 17 16
M  V30 19 1 18 17
M  V30 20 1 19 18
M  V30 21 1 20 19
M  V30 22 1 21 20
M  V30 23 1 22 21
M  V30 24 1 23 22
M  V30 25 1 24 23
M  V30 26 2 25 24
M  V30 27 1 26 25
M  V30 28 1 27 26
M  V30 29 1 28 27
M  V30 30 2 29 28
M  V30 31 1 30 29
M  V30 32 1 31 29
M  V30 33 2 32 31
M  V30 34 1 33 24
M  V30 35 2 33 27
M  V30 36 1 33 32
M  V30 37 1 34 23
M  V30 38 1 35 20
M  V30 39 1 35 34
M  V30 40 1 36 1
M  V30 41 1 37 1
M  V30 42 1 38 1
M  V30 43 1 39 4
M  V30 44 1 40 6
M  V30 45 1 41 6
M  V30 46 1 42 8
M  V30 47 1 43 8
M  V30 48 1 44 9
M  V30 49 1 45 9
M  V30 50 1 46 10
M  V30 51 1 47 10
M  V30 52 1 48 11
M  V30 53 1 49 11
M  V30 54 1 50 12
M  V30 55 1 51 12
M  V30 56 1 52 13
M  V30 57 1 53 14
M  V30 58 1 54 17
M  V30 59 1 55 17
M  V30 60 1 56 18
M  V30 61 1 57 18
M  V30 62 1 58 19
M  V30 63 1 59 19
M  V30 64 1 60 21
M  V30 65 1 61 21
M  V30 66 1 62 22
M  V30 67 1 63 22
M  V30 68 1 23 64 CFG=3
M  V30 69 1 65 28
M  V30 70 1 66 31
M  V30 71 1 67 32
M  V30 72 1 68 34
M  V30 73 1 69 34
M  V30 74 1 70 35
M  V30 75 1 71 35
M  V30 76 1 72 7
M  V30 77 1 20 73 CFG=1
M  V30 END BOND
M  V30 END CTAB
M  END
>  <b_m_subgroup_collapsed>  (319) 
0

>  <r_i_docking_score>  (319) 
-8.5216114167849

>  <s_m_subgroup_title>  (319) 
glide-dock_SP_D22_pv

>  <s_m_subgroupid>  (319) 
glide-dock_SP_D22_pv

>  <Molecule ChEMBL ID>  (319) 
CHEMBL4870307

>  <Standard Type>  (319) 
Ki

>  <Standard Value>  (319) 
9.5

>  <label>  (319) 
1

$$$$
CHEMBL4779051
     RDKit          3D

  0  0  0  0  0  0  0  0  0  0999 V3000
M  V30 BEGIN CTAB
M  V30 COUNTS 54 57 0 0 1
M  V30 BEGIN ATOM
M  V30 1 C 4.885152 -1.455920 -15.239604 0
M  V30 2 C 5.206461 -0.226020 -14.402666 0
M  V30 3 O 4.485917 0.057087 -13.447150 0
M  V30 4 N 6.299038 0.462951 -14.773340 0
M  V30 5 C 6.815648 1.688808 -14.263680 0
M  V30 6 C 8.127366 2.033712 -14.647222 0
M  V30 7 C 8.712760 3.232475 -14.199404 0
M  V30 8 C 8.007436 4.109887 -13.352560 0
M  V30 9 O 8.666262 5.252610 -12.957511 0
M  V30 10 C 8.349243 5.862415 -11.708287 0
M  V30 11 C 9.703299 6.124971 -11.017438 0
M  V30 12 N 9.681614 7.237206 -10.033654 0 CFG=1 CHG=1
M  V30 13 C 8.921901 6.926930 -8.796989 0
M  V30 14 C 8.824317 8.175532 -7.890633 0
M  V30 15 C 10.201477 8.752130 -7.520112 0 CFG=1
M  V30 16 C 10.874159 7.956707 -6.427881 0
M  V30 17 N 11.149282 6.663429 -6.589660 0
M  V30 18 O 11.685244 6.181892 -5.369441 0
M  V30 19 C 11.774199 7.216362 -4.457932 0
M  V30 20 C 12.285154 7.257685 -3.156254 0
M  V30 21 C 12.327454 8.510401 -2.517055 0
M  V30 22 F 12.871559 8.610313 -1.284425 0
M  V30 23 C 11.820380 9.660961 -3.166577 0
M  V30 24 C 11.286169 9.588663 -4.473675 0
M  V30 25 C 11.287715 8.338388 -5.131732 0
M  V30 26 C 11.049861 8.942976 -8.792367 0
M  V30 27 C 11.057061 7.713652 -9.714809 0
M  V30 28 C 6.677783 3.783945 -12.989865 0
M  V30 29 C 6.085596 2.587138 -13.446501 0
M  V30 30 H 5.602200 -2.252795 -15.044671 0
M  V30 31 H 3.884892 -1.827850 -15.010168 0
M  V30 32 H 4.912668 -1.217465 -16.304016 0
M  V30 33 H 6.839783 0.039461 -15.512506 0
M  V30 34 H 8.698547 1.373863 -15.284963 0
M  V30 35 H 9.722881 3.473640 -14.495262 0
M  V30 36 H 7.823094 6.796466 -11.909397 0
M  V30 37 H 7.717423 5.251966 -11.063800 0
M  V30 38 H 10.074939 5.211050 -10.549227 0
M  V30 39 H 10.427840 6.384155 -11.792122 0
M  V30 40 H 7.929077 6.570039 -9.050867 0
M  V30 41 H 9.385872 6.088506 -8.279313 0
M  V30 42 H 8.242081 7.955485 -6.994047 0
M  V30 43 H 8.263211 8.946901 -8.422589 0
M  V30 44 H 10.029062 9.748034 -7.112746 0
M  V30 45 H 12.669029 6.368737 -2.678957 0
M  V30 46 H 11.858668 10.609185 -2.652139 0
M  V30 47 H 10.913305 10.475473 -4.965508 0
M  V30 48 H 12.066997 9.231278 -8.529429 0
M  V30 49 H 10.638620 9.773299 -9.365322 0
M  V30 50 H 11.625074 6.908831 -9.253098 0
M  V30 51 H 11.581101 7.970232 -10.634458 0
M  V30 52 H 6.091908 4.448442 -12.370410 0
M  V30 53 H 5.067881 2.384130 -13.156850 0
M  V30 54 H 9.187805 8.002225 -10.473715 0
M  V30 END ATOM
M  V30 BEGIN BOND
M  V30 1 1 2 1
M  V30 2 2 3 2
M  V30 3 1 4 2
M  V30 4 1 5 4
M  V30 5 1 6 5
M  V30 6 2 7 6
M  V30 7 1 8 7
M  V30 8 1 9 8
M  V30 9 1 10 9
M  V30 10 1 11 10
M  V30 11 1 12 11
M  V30 12 1 13 12
M  V30 13 1 14 13
M  V30 14 1 15 14
M  V30 15 1 16 15
M  V30 16 2 17 16
M  V30 17 1 18 17
M  V30 18 1 19 18
M  V30 19 1 20 19
M  V30 20 2 21 20
M  V30 21 1 22 21
M  V30 22 1 23 21
M  V30 23 2 24 23
M  V30 24 1 25 16
M  V30 25 2 25 19
M  V30 26 1 25 24
M  V30 27 1 26 15
M  V30 28 1 27 12
M  V30 29 1 27 26
M  V30 30 2 28 8
M  V30 31 2 29 5
M  V30 32 1 29 28
M  V30 33 1 30 1
M  V30 34 1 31 1
M  V30 35 1 32 1
M  V30 36 1 33 4
M  V30 37 1 34 6
M  V30 38 1 35 7
M  V30 39 1 36 10
M  V30 40 1 37 10
M  V30 41 1 38 11
M  V30 42 1 39 11
M  V30 43 1 40 13
M  V30 44 1 41 13
M  V30 45 1 42 14
M  V30 46 1 43 14
M  V30 47 1 15 44 CFG=1
M  V30 48 1 45 20
M  V30 49 1 46 23
M  V30 50 1 47 24
M  V30 51 1 48 26
M  V30 52 1 49 26
M  V30 53 1 50 27
M  V30 54 1 51 27
M  V30 55 1 52 28
M  V30 56 1 53 29
M  V30 57 1 12 54 CFG=3
M  V30 END BOND
M  V30 END CTAB
M  END
>  <b_m_subgroup_collapsed>  (320) 
0

>  <r_i_docking_score>  (320) 
-8.5204113631069607

>  <s_m_subgroup_title>  (320) 
glide-dock_SP_D22_pv

>  <s_m_subgroupid>  (320) 
glide-dock_SP_D22_pv

>  <Molecule ChEMBL ID>  (320) 
CHEMBL4779051

>  <Standard Type>  (320) 
Ki

>  <Standard Value>  (320) 
10000.0

>  <label>  (320) 
0

$$$$
CHEMBL3104648
     RDKit          3D

  0  0  0  0  0  0  0  0  0  0999 V3000
M  V30 BEGIN CTAB
M  V30 COUNTS 57 60 0 0 1
M  V30 BEGIN ATOM
M  V30 1 C 10.388080 2.402790 -14.780478 0
M  V30 2 O 9.923368 3.503485 -14.013814 0
M  V30 3 C 8.583033 3.563531 -13.686426 0
M  V30 4 C 7.615361 2.690832 -14.249815 0
M  V30 5 C 6.269772 2.741848 -13.842428 0
M  V30 6 C 5.856534 3.684624 -12.887366 0
M  V30 7 C 6.801627 4.556310 -12.320498 0
M  V30 8 C 8.160078 4.501865 -12.705352 0
M  V30 9 N 9.042718 5.364956 -12.037880 0
M  V30 10 C 10.175759 5.998841 -12.688056 0
M  V30 11 C 10.480595 7.333253 -11.975319 0
M  V30 12 N 10.729761 7.152893 -10.536907 0
M  V30 13 C 10.877286 8.477131 -9.921957 0
M  V30 14 C 11.409334 8.440505 -8.469275 0
M  V30 15 C 10.406459 8.988083 -7.410063 0 CFG=1
M  V30 16 C 9.402812 7.938062 -6.907574 0
M  V30 17 C 10.120728 6.824236 -6.131072 0
M  V30 18 C 11.024463 7.402855 -5.054433 0
M  V30 19 C 11.441420 6.571840 -4.009137 0
M  V30 20 C 12.088573 7.076612 -2.874016 0
M  V30 21 C 12.310594 8.456928 -2.775861 0
M  V30 22 N 12.885734 8.971938 -1.618711 0
M  V30 23 C 11.951669 9.300062 -3.846979 0
M  V30 24 C 11.368834 8.771333 -5.022242 0
M  V30 25 C 11.111857 9.639090 -6.200330 0
M  V30 26 O 11.452431 10.819000 -6.247180 0
M  V30 27 C 9.591861 6.447853 -9.929024 0
M  V30 28 C 9.264479 5.119728 -10.624837 0
M  V30 29 H 11.471028 2.466118 -14.877394 0
M  V30 30 H 10.161463 1.457391 -14.288450 0
M  V30 31 H 9.968039 2.401708 -15.786312 0
M  V30 32 H 7.887466 1.947310 -14.982668 0
M  V30 33 H 5.564235 2.034153 -14.245695 0
M  V30 34 H 4.824105 3.727762 -12.574970 0
M  V30 35 H 6.483315 5.269193 -11.570567 0
M  V30 36 H 11.041639 5.338675 -12.647062 0
M  V30 37 H 9.956577 6.171363 -13.740960 0
M  V30 38 H 11.365132 7.772179 -12.434590 0
M  V30 39 H 9.649648 8.024427 -12.128100 0
M  V30 40 H 11.594452 9.046443 -10.516207 0
M  V30 41 H 9.938974 9.031256 -9.983226 0
M  V30 42 H 11.763390 7.443374 -8.215524 0
M  V30 43 H 12.319923 9.038823 -8.448136 0
M  V30 44 H 9.820531 9.771540 -7.879930 0
M  V30 45 H 8.690772 8.431698 -6.246745 0
M  V30 46 H 8.771890 7.551903 -7.702659 0
M  V30 47 H 10.710153 6.181806 -6.783542 0
M  V30 48 H 9.377646 6.174183 -5.667812 0
M  V30 49 H 11.215426 5.528170 -4.073496 0
M  V30 50 H 12.367496 6.407714 -2.072355 0
M  V30 51 H 13.235294 8.360509 -0.897547 0
M  V30 52 H 13.226037 9.931943 -1.589612 0
M  V30 53 H 12.090892 10.359786 -3.748757 0
M  V30 54 H 9.838117 6.207387 -8.899267 0
M  V30 55 H 8.705512 7.084332 -9.933302 0
M  V30 56 H 8.387766 4.666749 -10.159175 0
M  V30 57 H 10.083611 4.409306 -10.507128 0
M  V30 END ATOM
M  V30 BEGIN BOND
M  V30 1 1 2 1
M  V30 2 1 3 2
M  V30 3 2 4 3
M  V30 4 1 5 4
M  V30 5 2 6 5
M  V30 6 1 7 6
M  V30 7 1 8 3
M  V30 8 2 8 7
M  V30 9 1 9 8
M  V30 10 1 10 9
M  V30 11 1 11 10
M  V30 12 1 12 11
M  V30 13 1 13 12
M  V30 14 1 14 13
M  V30 15 1 15 14
M  V30 16 1 16 15
M  V30 17 1 17 16
M  V30 18 1 18 17
M  V30 19 1 19 18
M  V30 20 2 20 19
M  V30 21 1 21 20
M  V30 22 1 22 21
M  V30 23 2 23 21
M  V30 24 2 24 18
M  V30 25 1 24 23
M  V30 26 1 25 15
M  V30 27 1 25 24
M  V30 28 2 26 25
M  V30 29 1 27 12
M  V30 30 1 28 9
M  V30 31 1 28 27
M  V30 32 1 29 1
M  V30 33 1 30 1
M  V30 34 1 31 1
M  V30 35 1 32 4
M  V30 36 1 33 5
M  V30 37 1 34 6
M  V30 38 1 35 7
M  V30 39 1 36 10
M  V30 40 1 37 10
M  V30 41 1 38 11
M  V30 42 1 39 11
M  V30 43 1 40 13
M  V30 44 1 41 13
M  V30 45 1 42 14
M  V30 46 1 43 14
M  V30 47 1 15 44 CFG=3
M  V30 48 1 45 16
M  V30 49 1 46 16
M  V30 50 1 47 17
M  V30 51 1 48 17
M  V30 52 1 49 19
M  V30 53 1 50 20
M  V30 54 1 51 22
M  V30 55 1 52 22
M  V30 56 1 53 23
M  V30 57 1 54 27
M  V30 58 1 55 27
M  V30 59 1 56 28
M  V30 60 1 57 28
M  V30 END BOND
M  V30 END CTAB
M  END
>  <b_m_subgroup_collapsed>  (321) 
0

>  <r_i_docking_score>  (321) 
-8.5146390989216307

>  <s_m_subgroup_title>  (321) 
glide-dock_SP_D22_pv

>  <s_m_subgroupid>  (321) 
glide-dock_SP_D22_pv

>  <Molecule ChEMBL ID>  (321) 
CHEMBL3104648

>  <Standard Type>  (321) 
Ki

>  <Standard Value>  (321) 
50.12

>  <label>  (321) 
1

$$$$
CHEMBL4092243
     RDKit          3D

  0  0  0  0  0  0  0  0  0  0999 V3000
M  V30 BEGIN CTAB
M  V30 COUNTS 60 64 0 0 1
M  V30 BEGIN ATOM
M  V30 1 O 9.506271 3.759459 -15.993941 0
M  V30 2 S 9.723893 2.533109 -15.211145 0
M  V30 3 O 10.912293 1.701236 -15.441063 0
M  V30 4 N 9.737406 2.972313 -13.538651 0
M  V30 5 C 8.745779 3.902026 -12.991492 0
M  V30 6 C 9.285313 4.534578 -11.697360 0
M  V30 7 C 8.182988 5.192140 -10.837677 0
M  V30 8 N 8.684370 5.999136 -9.690102 0 CFG=2 CHG=1
M  V30 9 C 9.295910 7.277943 -10.121405 0
M  V30 10 C 9.936596 8.030073 -8.973662 0
M  V30 11 C 10.226001 7.520595 -7.753340 0
M  V30 12 C 10.912838 8.360717 -6.735527 0
M  V30 13 C 11.336077 9.626829 -7.017402 0
M  V30 14 N 11.914845 10.172807 -5.896187 0
M  V30 15 C 11.929455 9.262310 -4.867782 0
M  V30 16 C 12.430938 9.373063 -3.561205 0
M  V30 17 C 12.342624 8.295912 -2.687043 0
M  V30 18 C 11.774590 7.105745 -3.139436 0
M  V30 19 F 11.685854 6.109649 -2.248925 0
M  V30 20 C 11.286040 6.972040 -4.463011 0
M  V30 21 C 11.317183 8.065701 -5.369822 0
M  V30 22 C 9.852214 6.082548 -7.461998 0
M  V30 23 C 9.528139 5.251297 -8.723196 0
M  V30 24 C 8.297498 1.466369 -15.399755 0
M  V30 25 C 7.909072 0.605189 -14.356167 0
M  V30 26 C 6.784343 -0.227594 -14.513944 0
M  V30 27 C 6.069926 -0.226422 -15.730514 0
M  V30 28 C 4.958250 -1.077568 -15.903975 0
M  V30 29 C 4.255921 -1.083968 -17.124891 0
M  V30 30 C 4.660846 -0.238455 -18.176643 0
M  V30 31 C 5.765944 0.618344 -18.007730 0
M  V30 32 C 6.476458 0.627597 -16.788260 0
M  V30 33 C 7.583680 1.484467 -16.614248 0
M  V30 34 H 9.974994 2.190081 -12.919497 0
M  V30 35 H 7.810615 3.372408 -12.816753 0
M  V30 36 H 8.529943 4.684690 -13.720523 0
M  V30 37 H 10.059940 5.248638 -11.972376 0
M  V30 38 H 9.783875 3.772301 -11.100164 0
M  V30 39 H 7.540902 4.399802 -10.457670 0
M  V30 40 H 7.546026 5.825880 -11.456768 0
M  V30 41 H 8.531989 7.907690 -10.579846 0
M  V30 42 H 10.070477 7.121689 -10.870465 0
M  V30 43 H 10.184962 9.043301 -9.239891 0
M  V30 44 H 11.285978 10.172315 -7.938164 0
M  V30 45 H 12.307757 11.102571 -5.870145 0
M  V30 46 H 12.883739 10.273394 -3.194030 0
M  V30 47 H 12.705786 8.380559 -1.672921 0
M  V30 48 H 10.846924 6.033283 -4.760039 0
M  V30 49 H 10.716226 5.627992 -6.986118 0
M  V30 50 H 9.025807 6.076334 -6.750065 0
M  V30 51 H 10.464726 4.973336 -9.206241 0
M  V30 52 H 9.034122 4.321859 -8.435697 0
M  V30 53 H 8.482652 0.570327 -13.446011 0
M  V30 54 H 6.491578 -0.889983 -13.711764 0
M  V30 55 H 4.643211 -1.738421 -15.108920 0
M  V30 56 H 3.408136 -1.743027 -17.253290 0
M  V30 57 H 4.117172 -0.244653 -19.110659 0
M  V30 58 H 6.061012 1.265711 -18.820124 0
M  V30 59 H 7.901620 2.141711 -17.410563 0
M  V30 60 H 7.850666 6.291095 -9.188788 0
M  V30 END ATOM
M  V30 BEGIN BOND
M  V30 1 2 2 1
M  V30 2 2 3 2
M  V30 3 1 4 2
M  V30 4 1 5 4
M  V30 5 1 6 5
M  V30 6 1 7 6
M  V30 7 1 8 7
M  V30 8 1 9 8
M  V30 9 1 10 9
M  V30 10 2 11 10
M  V30 11 1 12 11
M  V30 12 2 13 12
M  V30 13 1 14 13
M  V30 14 1 15 14
M  V30 15 1 16 15
M  V30 16 2 17 16
M  V30 17 1 18 17
M  V30 18 1 19 18
M  V30 19 2 20 18
M  V30 20 1 21 12
M  V30 21 2 21 15
M  V30 22 1 21 20
M  V30 23 1 22 11
M  V30 24 1 23 8
M  V30 25 1 23 22
M  V30 26 1 24 2
M  V30 27 1 25 24
M  V30 28 2 26 25
M  V30 29 1 27 26
M  V30 30 2 28 27
M  V30 31 1 29 28
M  V30 32 2 30 29
M  V30 33 1 31 30
M  V30 34 1 32 27
M  V30 35 2 32 31
M  V30 36 2 33 24
M  V30 37 1 33 32
M  V30 38 1 34 4
M  V30 39 1 35 5
M  V30 40 1 36 5
M  V30 41 1 37 6
M  V30 42 1 38 6
M  V30 43 1 39 7
M  V30 44 1 40 7
M  V30 45 1 41 9
M  V30 46 1 42 9
M  V30 47 1 43 10
M  V30 48 1 44 13
M  V30 49 1 45 14
M  V30 50 1 46 16
M  V30 51 1 47 17
M  V30 52 1 48 20
M  V30 53 1 49 22
M  V30 54 1 50 22
M  V30 55 1 51 23
M  V30 56 1 52 23
M  V30 57 1 53 25
M  V30 58 1 54 26
M  V30 59 1 55 28
M  V30 60 1 56 29
M  V30 61 1 57 30
M  V30 62 1 58 31
M  V30 63 1 59 33
M  V30 64 1 8 60 CFG=1
M  V30 END BOND
M  V30 END CTAB
M  END
>  <b_m_subgroup_collapsed>  (322) 
0

>  <r_i_docking_score>  (322) 
-8.5144251055357305

>  <s_m_subgroup_title>  (322) 
glide-dock_SP_D22_pv

>  <s_m_subgroupid>  (322) 
glide-dock_SP_D22_pv

>  <Molecule ChEMBL ID>  (322) 
CHEMBL4092243

>  <Standard Type>  (322) 
Ki

>  <Standard Value>  (322) 
0.7

>  <label>  (322) 
1

$$$$
CHEMBL199186
     RDKit          3D

  0  0  0  0  0  0  0  0  0  0999 V3000
M  V30 BEGIN CTAB
M  V30 COUNTS 49 52 0 0 1
M  V30 BEGIN ATOM
M  V30 1 O 11.617119 7.702439 -11.070688 0
M  V30 2 C 10.694954 7.391444 -10.315731 0
M  V30 3 N 9.565341 6.808088 -10.725643 0
M  V30 4 C 9.338126 6.274336 -12.058161 0 CFG=1
M  V30 5 C 9.957519 4.891979 -12.285144 0
M  V30 6 C 8.915069 4.153168 -13.105455 0
M  V30 7 N 7.641528 4.640887 -12.550530 0 CFG=2 CHG=1
M  V30 8 C 6.413749 4.343441 -13.309234 0
M  V30 9 C 6.234205 2.870527 -13.593452 0
M  V30 10 C 5.382437 2.103969 -12.777715 0
M  V30 11 C 5.152776 0.755985 -13.093384 0
M  V30 12 C 5.740642 0.176811 -14.230534 0
M  V30 13 Cl 5.297865 -1.428104 -14.658360 0
M  V30 14 C 6.634096 0.926142 -15.022263 0
M  V30 15 Cl 7.386745 0.248988 -16.420244 0
M  V30 16 C 6.885295 2.269760 -14.694465 0
M  V30 17 C 7.839568 6.076141 -12.290050 0
M  V30 18 C 10.777390 7.642349 -8.842332 0
M  V30 19 C 11.550838 8.714173 -8.358783 0
M  V30 20 C 11.733524 8.897349 -6.976099 0
M  V30 21 C 11.182957 7.977164 -6.058580 0
M  V30 22 C 11.522372 8.026688 -4.645203 0
M  V30 23 C 11.766206 6.976323 -3.798866 0
M  V30 24 C 12.141503 7.394243 -2.491756 0
M  V30 25 C 12.148519 8.756722 -2.350967 0
M  V30 26 S 11.686423 9.555250 -3.827896 0
M  V30 27 C 10.378647 6.925680 -6.542410 0
M  V30 28 C 10.171690 6.757763 -7.922017 0
M  V30 29 H 8.818054 6.710207 -10.049256 0
M  V30 30 H 9.734087 6.972703 -12.794073 0
M  V30 31 H 10.923321 4.937908 -12.785445 0
M  V30 32 H 10.085749 4.370687 -11.334567 0
M  V30 33 H 8.994691 4.441077 -14.155434 0
M  V30 34 H 9.028341 3.069664 -13.038394 0
M  V30 35 H 5.552961 4.716762 -12.751171 0
M  V30 36 H 6.421680 4.882059 -14.246712 0
M  V30 37 H 4.889071 2.546682 -11.924381 0
M  V30 38 H 4.486855 0.171655 -12.486308 0
M  V30 39 H 7.546858 2.843344 -15.324963 0
M  V30 40 H 7.239627 6.370226 -11.447415 0
M  V30 41 H 7.522191 6.681353 -13.140108 0
M  V30 42 H 12.047496 9.371466 -9.056696 0
M  V30 43 H 12.372426 9.699062 -6.632739 0
M  V30 44 H 11.720840 5.933767 -4.075164 0
M  V30 45 H 12.399027 6.684254 -1.721614 0
M  V30 46 H 12.392057 9.342970 -1.476633 0
M  V30 47 H 9.949679 6.207639 -5.857123 0
M  V30 48 H 9.585629 5.915088 -8.259482 0
M  V30 49 H 7.538789 4.203933 -11.644352 0
M  V30 END ATOM
M  V30 BEGIN BOND
M  V30 1 2 2 1
M  V30 2 1 3 2
M  V30 3 1 4 3
M  V30 4 1 5 4
M  V30 5 1 6 5
M  V30 6 1 7 6
M  V30 7 1 8 7
M  V30 8 1 9 8
M  V30 9 1 10 9
M  V30 10 2 11 10
M  V30 11 1 12 11
M  V30 12 1 13 12
M  V30 13 2 14 12
M  V30 14 1 15 14
M  V30 15 2 16 9
M  V30 16 1 16 14
M  V30 17 1 17 4
M  V30 18 1 17 7
M  V30 19 1 18 2
M  V30 20 1 19 18
M  V30 21 2 20 19
M  V30 22 1 21 20
M  V30 23 1 22 21
M  V30 24 2 23 22
M  V30 25 1 24 23
M  V30 26 2 25 24
M  V30 27 1 26 22
M  V30 28 1 26 25
M  V30 29 2 27 21
M  V30 30 2 28 18
M  V30 31 1 28 27
M  V30 32 1 29 3
M  V30 33 1 4 30 CFG=3
M  V30 34 1 31 5
M  V30 35 1 32 5
M  V30 36 1 33 6
M  V30 37 1 34 6
M  V30 38 1 35 8
M  V30 39 1 36 8
M  V30 40 1 37 10
M  V30 41 1 38 11
M  V30 42 1 39 16
M  V30 43 1 40 17
M  V30 44 1 41 17
M  V30 45 1 42 19
M  V30 46 1 43 20
M  V30 47 1 44 23
M  V30 48 1 45 24
M  V30 49 1 46 25
M  V30 50 1 47 27
M  V30 51 1 48 28
M  V30 52 1 7 49 CFG=1
M  V30 END BOND
M  V30 END CTAB
M  END
>  <b_m_subgroup_collapsed>  (323) 
0

>  <r_i_docking_score>  (323) 
-8.5141678129878997

>  <s_m_subgroup_title>  (323) 
glide-dock_SP_D22_pv

>  <s_m_subgroupid>  (323) 
glide-dock_SP_D22_pv

>  <Molecule ChEMBL ID>  (323) 
CHEMBL199186

>  <Standard Type>  (323) 
Ki

>  <Standard Value>  (323) 
29000.0

>  <label>  (323) 
0

$$$$
CHEMBL4279397
     RDKit          3D

  0  0  0  0  0  0  0  0  0  0999 V3000
M  V30 BEGIN CTAB
M  V30 COUNTS 61 64 0 0 1
M  V30 BEGIN ATOM
M  V30 1 C 11.312889 2.290030 -16.379122 0
M  V30 2 C 10.639151 3.576161 -15.847694 0 CFG=2
M  V30 3 C 9.304980 3.345249 -15.103106 0
M  V30 4 C 8.569527 2.151064 -15.301499 0
M  V30 5 C 7.320042 1.958772 -14.683318 0
M  V30 6 C 6.785099 2.956072 -13.851337 0
M  V30 7 F 5.582971 2.768030 -13.257972 0
M  V30 8 C 7.510287 4.137453 -13.611290 0
M  V30 9 C 8.750197 4.337327 -14.249959 0
M  V30 10 N 10.483802 4.538413 -16.920647 0
M  V30 11 C 11.216598 5.645620 -16.750513 0
M  V30 12 O 11.277453 6.572829 -17.551596 0
M  V30 13 N 11.863680 5.554644 -15.576080 0
M  V30 14 C 12.780359 6.573951 -15.036343 0
M  V30 15 C 12.208312 7.451663 -13.885513 0 CFG=2
M  V30 16 O 13.285506 8.232814 -13.444614 0
M  V30 17 C 11.748465 6.671649 -12.646020 0
M  V30 18 N 11.088893 7.471673 -11.575686 0 CHG=1
M  V30 19 C 9.884812 6.778069 -11.042364 0
M  V30 20 C 9.234892 7.555499 -9.896806 0
M  V30 21 N 10.203831 7.840808 -8.840646 0
M  V30 22 C 10.090487 7.273448 -7.612832 0
M  V30 23 O 9.420891 6.259789 -7.418762 0
M  V30 24 C 10.761271 7.927341 -6.435211 0
M  V30 25 C 11.282642 7.130230 -5.391846 0
M  V30 26 C 11.838144 7.727161 -4.242484 0
M  V30 27 C 11.856319 9.128927 -4.114260 0
M  V30 28 C 11.310772 9.929976 -5.134411 0
M  V30 29 C 10.766022 9.332192 -6.285981 0
M  V30 30 C 11.333918 8.633554 -9.337804 0
M  V30 31 C 12.029334 7.879847 -10.491753 0
M  V30 32 C 11.636566 4.363231 -15.006758 0
M  V30 33 O 12.118293 3.955276 -13.953147 0
M  V30 34 H 11.430915 1.547542 -15.588291 0
M  V30 35 H 10.735658 1.835546 -17.184139 0
M  V30 36 H 12.308338 2.490211 -16.780931 0
M  V30 37 H 8.936235 1.367540 -15.945037 0
M  V30 38 H 6.768401 1.045279 -14.852214 0
M  V30 39 H 7.098856 4.898752 -12.963969 0
M  V30 40 H 9.251477 5.278841 -14.096305 0
M  V30 41 H 9.905508 4.369552 -17.730406 0
M  V30 42 H 13.123424 7.225227 -15.842259 0
M  V30 43 H 13.677329 6.057586 -14.691535 0
M  V30 44 H 11.425433 8.115320 -14.244353 0
M  V30 45 H 14.034550 7.660570 -13.324116 0
M  V30 46 H 11.037298 5.911911 -12.947367 0
M  V30 47 H 12.625224 6.172135 -12.248120 0
M  V30 48 H 9.152227 6.643304 -11.840213 0
M  V30 49 H 10.150868 5.779929 -10.690032 0
M  V30 50 H 8.819148 8.496088 -10.260735 0
M  V30 51 H 8.397119 6.970058 -9.520025 0
M  V30 52 H 11.256264 6.052945 -5.464851 0
M  V30 53 H 12.239107 7.106725 -3.454453 0
M  V30 54 H 12.271773 9.588377 -3.228184 0
M  V30 55 H 11.284725 11.004760 -5.029750 0
M  V30 56 H 10.327660 9.960559 -7.044937 0
M  V30 57 H 10.973200 9.605396 -9.677531 0
M  V30 58 H 12.076972 8.833294 -8.565721 0
M  V30 59 H 12.487356 6.977283 -10.090055 0
M  V30 60 H 12.832733 8.497040 -10.894712 0
M  V30 61 H 10.752917 8.320798 -12.005699 0
M  V30 END ATOM
M  V30 BEGIN BOND
M  V30 1 1 2 1 CFG=3
M  V30 2 1 3 2
M  V30 3 1 4 3
M  V30 4 2 5 4
M  V30 5 1 6 5
M  V30 6 1 7 6
M  V30 7 2 8 6
M  V30 8 2 9 3
M  V30 9 1 9 8
M  V30 10 1 10 2
M  V30 11 1 11 10
M  V30 12 2 12 11
M  V30 13 1 13 11
M  V30 14 1 14 13
M  V30 15 1 15 14
M  V30 16 1 16 15
M  V30 17 1 17 15
M  V30 18 1 18 17
M  V30 19 1 19 18
M  V30 20 1 20 19
M  V30 21 1 21 20
M  V30 22 1 22 21
M  V30 23 2 23 22
M  V30 24 1 24 22
M  V30 25 2 25 24
M  V30 26 1 26 25
M  V30 27 2 27 26
M  V30 28 1 28 27
M  V30 29 1 29 24
M  V30 30 2 29 28
M  V30 31 1 30 21
M  V30 32 1 31 18
M  V30 33 1 31 30
M  V30 34 1 32 2
M  V30 35 1 32 13
M  V30 36 2 33 32
M  V30 37 1 34 1
M  V30 38 1 35 1
M  V30 39 1 36 1
M  V30 40 1 37 4
M  V30 41 1 38 5
M  V30 42 1 39 8
M  V30 43 1 40 9
M  V30 44 1 41 10
M  V30 45 1 42 14
M  V30 46 1 43 14
M  V30 47 1 15 44 CFG=3
M  V30 48 1 45 16
M  V30 49 1 46 17
M  V30 50 1 47 17
M  V30 51 1 48 19
M  V30 52 1 49 19
M  V30 53 1 50 20
M  V30 54 1 51 20
M  V30 55 1 52 25
M  V30 56 1 53 26
M  V30 57 1 54 27
M  V30 58 1 55 28
M  V30 59 1 56 29
M  V30 60 1 57 30
M  V30 61 1 58 30
M  V30 62 1 59 31
M  V30 63 1 60 31
M  V30 64 1 61 18
M  V30 END BOND
M  V30 END CTAB
M  END
>  <b_m_subgroup_collapsed>  (324) 
0

>  <r_i_docking_score>  (324) 
-8.5123994293258605

>  <s_m_subgroup_title>  (324) 
glide-dock_SP_D22_pv

>  <s_m_subgroupid>  (324) 
glide-dock_SP_D22_pv

>  <Molecule ChEMBL ID>  (324) 
CHEMBL4279397

>  <Standard Type>  (324) 
Ki

>  <Standard Value>  (324) 
10080.0

>  <label>  (324) 
0

$$$$
CHEMBL3883955
     RDKit          3D

  0  0  0  0  0  0  0  0  0  0999 V3000
M  V30 BEGIN CTAB
M  V30 COUNTS 59 63 0 0 1
M  V30 BEGIN ATOM
M  V30 1 O 9.534962 -0.227331 -16.477268 0
M  V30 2 C 9.436872 0.794371 -15.796796 0
M  V30 3 C 10.595345 1.612428 -15.456477 0
M  V30 4 C 10.491060 2.718214 -14.690892 0
M  V30 5 C 9.177964 3.099359 -14.184982 0
M  V30 6 O 8.955703 4.209449 -13.386035 0
M  V30 7 C 10.079553 5.054948 -13.157061 0
M  V30 8 C 9.700453 6.274455 -12.305142 0
M  V30 9 C 9.431132 5.929438 -10.830326 0
M  V30 10 N 9.550204 7.107855 -9.933284 0 CFG=2 CHG=1
M  V30 11 C 10.959415 7.519497 -9.675802 0
M  V30 12 C 11.044727 8.800386 -8.819783 0
M  V30 13 C 10.218257 8.724895 -7.518664 0 CFG=2
M  V30 14 C 10.879651 7.943339 -6.407040 0
M  V30 15 N 11.143999 6.647339 -6.552379 0
M  V30 16 O 11.684721 6.180822 -5.326380 0
M  V30 17 C 11.776322 7.227077 -4.428816 0
M  V30 18 C 12.291859 7.283673 -3.128219 0
M  V30 19 C 12.331969 8.541566 -2.498312 0
M  V30 20 F 12.878896 8.658103 -1.268224 0
M  V30 21 C 11.822058 9.686097 -3.159218 0
M  V30 22 C 11.286571 9.598290 -4.467353 0
M  V30 23 C 11.286430 8.340157 -5.113146 0
M  V30 24 C 8.806981 8.196879 -7.821567 0
M  V30 25 C 8.834168 6.895761 -8.657451 0
M  V30 26 N 8.139697 2.389058 -14.489683 0
M  V30 27 N 8.248274 1.260431 -15.295628 0
M  V30 28 C 7.061362 0.535268 -15.599435 0
M  V30 29 C 6.418806 -0.223665 -14.594046 0
M  V30 30 F 6.902397 -0.235417 -13.329196 0
M  V30 31 C 5.275184 -0.983995 -14.905112 0
M  V30 32 C 4.754757 -0.981171 -16.213148 0
M  V30 33 C 5.369555 -0.199733 -17.210257 0
M  V30 34 C 6.513296 0.565823 -16.904316 0
M  V30 35 F 7.080844 1.332168 -17.869535 0
M  V30 36 H 11.566260 1.322298 -15.833802 0
M  V30 37 H 11.380386 3.286664 -14.470897 0
M  V30 38 H 10.885675 4.512944 -12.652768 0
M  V30 39 H 10.469935 5.414219 -14.114075 0
M  V30 40 H 10.519423 6.986978 -12.395051 0
M  V30 41 H 8.827866 6.773632 -12.733208 0
M  V30 42 H 8.421735 5.518554 -10.771448 0
M  V30 43 H 10.087784 5.137805 -10.475246 0
M  V30 44 H 11.474269 6.704517 -9.178809 0
M  V30 45 H 11.491822 7.696938 -10.610293 0
M  V30 46 H 12.088315 9.030368 -8.595476 0
M  V30 47 H 10.679811 9.633747 -9.420332 0
M  V30 48 H 10.101007 9.748215 -7.157773 0
M  V30 49 H 12.676411 6.398168 -2.641469 0
M  V30 50 H 11.857774 10.638839 -2.647918 0
M  V30 51 H 10.915158 10.482355 -4.964742 0
M  V30 52 H 8.244114 8.044224 -6.900031 0
M  V30 53 H 8.265062 8.961626 -8.378921 0
M  V30 54 H 7.827300 6.562431 -8.885052 0
M  V30 55 H 9.281190 6.069946 -8.104058 0
M  V30 56 H 4.801675 -1.579887 -14.142412 0
M  V30 57 H 3.883737 -1.577079 -16.449207 0
M  V30 58 H 4.964646 -0.187179 -18.210941 0
M  V30 59 H 9.059295 7.865134 -10.389260 0
M  V30 END ATOM
M  V30 BEGIN BOND
M  V30 1 2 2 1
M  V30 2 1 3 2
M  V30 3 2 4 3
M  V30 4 1 5 4
M  V30 5 1 6 5
M  V30 6 1 7 6
M  V30 7 1 8 7
M  V30 8 1 9 8
M  V30 9 1 10 9
M  V30 10 1 11 10
M  V30 11 1 12 11
M  V30 12 1 13 12
M  V30 13 1 14 13
M  V30 14 2 15 14
M  V30 15 1 16 15
M  V30 16 1 17 16
M  V30 17 1 18 17
M  V30 18 2 19 18
M  V30 19 1 20 19
M  V30 20 1 21 19
M  V30 21 2 22 21
M  V30 22 1 23 14
M  V30 23 2 23 17
M  V30 24 1 23 22
M  V30 25 1 24 13
M  V30 26 1 25 10
M  V30 27 1 25 24
M  V30 28 2 26 5
M  V30 29 1 27 2
M  V30 30 1 27 26
M  V30 31 1 28 27
M  V30 32 2 29 28
M  V30 33 1 30 29
M  V30 34 1 31 29
M  V30 35 2 32 31
M  V30 36 1 33 32
M  V30 37 1 34 28
M  V30 38 2 34 33
M  V30 39 1 35 34
M  V30 40 1 36 3
M  V30 41 1 37 4
M  V30 42 1 38 7
M  V30 43 1 39 7
M  V30 44 1 40 8
M  V30 45 1 41 8
M  V30 46 1 42 9
M  V30 47 1 43 9
M  V30 48 1 44 11
M  V30 49 1 45 11
M  V30 50 1 46 12
M  V30 51 1 47 12
M  V30 52 1 13 48 CFG=1
M  V30 53 1 49 18
M  V30 54 1 50 21
M  V30 55 1 51 22
M  V30 56 1 52 24
M  V30 57 1 53 24
M  V30 58 1 54 25
M  V30 59 1 55 25
M  V30 60 1 56 31
M  V30 61 1 57 32
M  V30 62 1 58 33
M  V30 63 1 10 59 CFG=3
M  V30 END BOND
M  V30 END CTAB
M  END
>  <b_m_subgroup_collapsed>  (325) 
0

>  <r_i_docking_score>  (325) 
-8.5085562527915606

>  <s_m_subgroup_title>  (325) 
glide-dock_SP_D22_pv

>  <s_m_subgroupid>  (325) 
glide-dock_SP_D22_pv

>  <Molecule ChEMBL ID>  (325) 
CHEMBL3883955

>  <Standard Type>  (325) 
Ki

>  <Standard Value>  (325) 
5.0

>  <label>  (325) 
1

$$$$
CHEMBL198580
     RDKit          3D

  0  0  0  0  0  0  0  0  0  0999 V3000
M  V30 BEGIN CTAB
M  V30 COUNTS 49 52 0 0 1
M  V30 BEGIN ATOM
M  V30 1 O 10.993413 7.594961 -11.411862 0
M  V30 2 C 10.094286 7.394753 -10.595800 0
M  V30 3 N 8.886106 6.923728 -10.942860 0
M  V30 4 C 8.537547 6.360810 -12.246233 0 CFG=1
M  V30 5 C 9.509392 5.285604 -12.765663 0
M  V30 6 C 8.647595 4.062527 -13.072304 0
M  V30 7 N 7.256461 4.556702 -13.183061 0 CFG=1 CHG=1
M  V30 8 C 6.167903 3.553649 -13.004090 0
M  V30 9 C 6.218187 2.274517 -13.846844 0
M  V30 10 C 5.464972 1.161511 -13.408751 0
M  V30 11 C 5.420587 -0.023665 -14.170755 0
M  V30 12 C 6.131372 -0.112143 -15.380093 0
M  V30 13 F 6.066662 -1.239675 -16.125494 0
M  V30 14 C 6.898071 0.981636 -15.819242 0
M  V30 15 F 7.585523 0.906464 -16.982992 0
M  V30 16 C 6.939880 2.165697 -15.058084 0
M  V30 17 C 7.176581 5.659389 -12.201001 0
M  V30 18 C 10.323971 7.647691 -9.131737 0
M  V30 19 C 9.681417 6.861101 -8.146838 0
M  V30 20 C 10.022849 6.999960 -6.787641 0
M  V30 21 C 11.006691 7.926016 -6.383641 0
M  V30 22 C 11.426722 7.995376 -4.989034 0
M  V30 23 C 11.686076 6.968605 -4.116404 0
M  V30 24 C 12.089076 7.418395 -2.825173 0
M  V30 25 C 12.130114 8.784980 -2.728577 0
M  V30 26 S 11.685319 9.543832 -4.232935 0
M  V30 27 C 11.619634 8.738147 -7.362613 0
M  V30 28 C 11.288449 8.595869 -8.724167 0
M  V30 29 H 8.144286 6.974922 -10.248344 0
M  V30 30 H 8.485028 7.174343 -12.969692 0
M  V30 31 H 10.011676 5.645615 -13.665199 0
M  V30 32 H 10.286609 5.017851 -12.049964 0
M  V30 33 H 9.002015 3.543304 -13.960337 0
M  V30 34 H 8.729911 3.373157 -12.235624 0
M  V30 35 H 6.133865 3.254768 -11.954735 0
M  V30 36 H 5.216747 4.044926 -13.208021 0
M  V30 37 H 4.891549 1.218379 -12.494462 0
M  V30 38 H 4.830777 -0.865904 -13.843360 0
M  V30 39 H 7.529344 2.973542 -15.445625 0
M  V30 40 H 7.002216 5.249218 -11.203601 0
M  V30 41 H 6.353157 6.340868 -12.418704 0
M  V30 42 H 8.946458 6.118079 -8.422419 0
M  V30 43 H 9.538243 6.373383 -6.052140 0
M  V30 44 H 11.600898 5.918435 -4.358133 0
M  V30 45 H 12.327220 6.732080 -2.023735 0
M  V30 46 H 12.401011 9.393736 -1.876030 0
M  V30 47 H 12.387345 9.443713 -7.074872 0
M  V30 48 H 11.809925 9.195021 -9.458478 0
M  V30 49 H 7.161054 4.966267 -14.101960 0
M  V30 END ATOM
M  V30 BEGIN BOND
M  V30 1 2 2 1
M  V30 2 1 3 2
M  V30 3 1 4 3
M  V30 4 1 5 4
M  V30 5 1 6 5
M  V30 6 1 7 6
M  V30 7 1 8 7
M  V30 8 1 9 8
M  V30 9 1 10 9
M  V30 10 2 11 10
M  V30 11 1 12 11
M  V30 12 1 13 12
M  V30 13 2 14 12
M  V30 14 1 15 14
M  V30 15 2 16 9
M  V30 16 1 16 14
M  V30 17 1 17 4
M  V30 18 1 17 7
M  V30 19 1 18 2
M  V30 20 1 19 18
M  V30 21 2 20 19
M  V30 22 1 21 20
M  V30 23 1 22 21
M  V30 24 2 23 22
M  V30 25 1 24 23
M  V30 26 2 25 24
M  V30 27 1 26 22
M  V30 28 1 26 25
M  V30 29 2 27 21
M  V30 30 2 28 18
M  V30 31 1 28 27
M  V30 32 1 29 3
M  V30 33 1 4 30 CFG=3
M  V30 34 1 31 5
M  V30 35 1 32 5
M  V30 36 1 33 6
M  V30 37 1 34 6
M  V30 38 1 35 8
M  V30 39 1 36 8
M  V30 40 1 37 10
M  V30 41 1 38 11
M  V30 42 1 39 16
M  V30 43 1 40 17
M  V30 44 1 41 17
M  V30 45 1 42 19
M  V30 46 1 43 20
M  V30 47 1 44 23
M  V30 48 1 45 24
M  V30 49 1 46 25
M  V30 50 1 47 27
M  V30 51 1 48 28
M  V30 52 1 7 49 CFG=3
M  V30 END BOND
M  V30 END CTAB
M  END
>  <b_m_subgroup_collapsed>  (326) 
0

>  <r_i_docking_score>  (326) 
-8.5081334155587598

>  <s_m_subgroup_title>  (326) 
glide-dock_SP_D22_pv

>  <s_m_subgroupid>  (326) 
glide-dock_SP_D22_pv

>  <Molecule ChEMBL ID>  (326) 
CHEMBL198580

>  <Standard Type>  (326) 
Ki

>  <Standard Value>  (326) 
18000.0

>  <label>  (326) 
0

$$$$
CHEMBL199824
     RDKit          3D

  0  0  0  0  0  0  0  0  0  0999 V3000
M  V30 BEGIN CTAB
M  V30 COUNTS 61 64 0 0 1
M  V30 BEGIN ATOM
M  V30 1 C 12.486206 6.125597 -2.246112 0
M  V30 2 N 12.287787 7.382133 -2.958721 0
M  V30 3 C 12.478579 8.544172 -2.282121 0
M  V30 4 O 12.899832 8.611131 -1.131787 0
M  V30 5 C 12.085886 9.772345 -2.994805 0
M  V30 6 N 11.704182 9.731149 -4.222069 0
M  V30 7 N 11.666487 8.523229 -4.868073 0
M  V30 8 C 11.222611 8.597686 -6.252924 0
M  V30 9 C 9.697181 8.470002 -6.292927 0
M  V30 10 C 9.153558 8.260188 -7.700192 0
M  V30 11 C 9.376801 6.805302 -8.156515 0
M  V30 12 N 8.885109 6.549086 -9.523904 0 CHG=1
M  V30 13 C 8.729346 5.100190 -9.804830 0
M  V30 14 C 8.102514 4.855949 -11.187901 0
M  V30 15 N 8.763887 5.626812 -12.246417 0
M  V30 16 C 9.557815 4.950822 -13.208345 0
M  V30 17 C 10.886358 5.383085 -13.445180 0
M  V30 18 C 11.748666 4.681845 -14.304782 0
M  V30 19 C 11.301790 3.519636 -14.949224 0
M  V30 20 C 9.978755 3.079784 -14.761500 0
M  V30 21 C 9.555555 1.900815 -15.406886 0
M  V30 22 C 8.248587 1.421279 -15.219400 0
M  V30 23 C 7.333587 2.137264 -14.427762 0
M  V30 24 O 6.088256 1.578028 -14.241693 0
M  V30 25 C 5.255309 2.117220 -13.222486 0 MASS=11
M  V30 26 C 7.743758 3.360363 -13.846600 0
M  V30 27 C 9.086333 3.808732 -13.929038 0
M  V30 28 C 8.984271 7.040112 -11.930255 0
M  V30 29 C 9.672483 7.218665 -10.578688 0
M  V30 30 C 11.867579 7.321120 -4.255309 0
M  V30 31 O 11.685724 6.261802 -4.853532 0
M  V30 32 H 11.528769 5.772381 -1.867796 0
M  V30 33 H 12.902138 5.372331 -2.908414 0
M  V30 34 H 13.172060 6.172187 -1.404322 0
M  V30 35 H 12.086165 10.723544 -2.464188 0
M  V30 36 H 11.702605 7.818942 -6.844405 0
M  V30 37 H 11.536358 9.541969 -6.703037 0
M  V30 38 H 9.285833 9.372250 -5.850480 0
M  V30 39 H 9.362627 7.640458 -5.670391 0
M  V30 40 H 9.618337 8.985781 -8.365760 0
M  V30 41 H 8.086045 8.478112 -7.699511 0
M  V30 42 H 8.842748 6.151170 -7.464665 0
M  V30 43 H 10.426822 6.518620 -8.101093 0
M  V30 44 H 8.096041 4.635962 -9.047106 0
M  V30 45 H 9.703196 4.610758 -9.747681 0
M  V30 46 H 7.051270 5.143981 -11.167288 0
M  V30 47 H 8.136769 3.783757 -11.386549 0
M  V30 48 H 11.292406 6.240501 -12.932885 0
M  V30 49 H 12.764165 5.024117 -14.450085 0
M  V30 50 H 11.978020 2.970969 -15.588757 0
M  V30 51 H 10.241543 1.341243 -16.026350 0
M  V30 52 H 7.947803 0.490679 -15.679899 0
M  V30 53 H 4.351420 1.513440 -13.146409 0
M  V30 54 H 5.742812 2.099817 -12.247404 0
M  V30 55 H 4.944846 3.138468 -13.447083 0
M  V30 56 H 7.028038 3.940026 -13.287615 0
M  V30 57 H 9.594441 7.560886 -12.651319 0
M  V30 58 H 8.018416 7.547015 -11.924403 0
M  V30 59 H 9.766156 8.285872 -10.387262 0
M  V30 60 H 10.684111 6.811614 -10.602614 0
M  V30 61 H 7.946288 6.946750 -9.583756 0
M  V30 END ATOM
M  V30 BEGIN BOND
M  V30 1 1 2 1
M  V30 2 1 3 2
M  V30 3 2 4 3
M  V30 4 1 5 3
M  V30 5 2 6 5
M  V30 6 1 7 6
M  V30 7 1 8 7
M  V30 8 1 9 8
M  V30 9 1 10 9
M  V30 10 1 11 10
M  V30 11 1 12 11
M  V30 12 1 13 12
M  V30 13 1 14 13
M  V30 14 1 15 14
M  V30 15 1 16 15
M  V30 16 1 17 16
M  V30 17 2 18 17
M  V30 18 1 19 18
M  V30 19 2 20 19
M  V30 20 1 21 20
M  V30 21 2 22 21
M  V30 22 1 23 22
M  V30 23 1 24 23
M  V30 24 1 25 24
M  V30 25 2 26 23
M  V30 26 2 27 16
M  V30 27 1 27 20
M  V30 28 1 27 26
M  V30 29 1 28 15
M  V30 30 1 29 12
M  V30 31 1 29 28
M  V30 32 1 30 2
M  V30 33 1 30 7
M  V30 34 2 31 30
M  V30 35 1 32 1
M  V30 36 1 33 1
M  V30 37 1 34 1
M  V30 38 1 35 5
M  V30 39 1 36 8
M  V30 40 1 37 8
M  V30 41 1 38 9
M  V30 42 1 39 9
M  V30 43 1 40 10
M  V30 44 1 41 10
M  V30 45 1 42 11
M  V30 46 1 43 11
M  V30 47 1 44 13
M  V30 48 1 45 13
M  V30 49 1 46 14
M  V30 50 1 47 14
M  V30 51 1 48 17
M  V30 52 1 49 18
M  V30 53 1 50 19
M  V30 54 1 51 21
M  V30 55 1 52 22
M  V30 56 1 53 25
M  V30 57 1 54 25
M  V30 58 1 55 25
M  V30 59 1 56 26
M  V30 60 1 57 28
M  V30 61 1 58 28
M  V30 62 1 59 29
M  V30 63 1 60 29
M  V30 64 1 61 12
M  V30 END BOND
M  V30 END CTAB
M  END
>  <b_m_subgroup_collapsed>  (327) 
0

>  <r_i_docking_score>  (327) 
-8.5070424199635504

>  <s_m_subgroup_title>  (327) 
glide-dock_SP_D22_pv

>  <s_m_subgroupid>  (327) 
glide-dock_SP_D22_pv

>  <Molecule ChEMBL ID>  (327) 
CHEMBL199824

>  <Standard Type>  (327) 
Ki

>  <Standard Value>  (327) 
22.01

>  <label>  (327) 
1

$$$$
CHEMBL202713
     RDKit          3D

  0  0  0  0  0  0  0  0  0  0999 V3000
M  V30 BEGIN CTAB
M  V30 COUNTS 63 67 0 0 1
M  V30 BEGIN ATOM
M  V30 1 C 14.116865 0.202728 -19.639727 0
M  V30 2 O 13.257314 0.817076 -18.690821 0
M  V30 3 C 11.966996 0.344898 -18.585548 0
M  V30 4 C 11.389746 -0.607285 -19.458523 0
M  V30 5 C 10.056322 -1.027321 -19.269205 0
M  V30 6 C 9.284497 -0.521595 -18.205013 0
M  V30 7 C 9.823028 0.442785 -17.327093 0
M  V30 8 C 9.362213 1.186007 -16.194763 0
M  V30 9 C 10.398954 2.016119 -15.827556 0
M  V30 10 C 10.486083 3.029235 -14.764813 0
M  V30 11 O 11.567809 3.426238 -14.333213 0
M  V30 12 N 9.305708 3.506731 -14.350388 0
M  V30 13 C 9.156765 4.529698 -13.332554 0
M  V30 14 C 7.724297 4.544467 -12.774515 0
M  V30 15 C 7.566406 5.524965 -11.606130 0
M  V30 16 C 8.275786 5.060497 -10.313354 0
M  V30 17 N 8.488627 6.174156 -9.359056 0 CHG=1
M  V30 18 C 8.615485 5.711541 -7.952466 0
M  V30 19 C 8.944948 6.855926 -6.970737 0
M  V30 20 N 10.085402 7.647711 -7.421916 0
M  V30 21 C 10.726313 8.470789 -6.465328 0
M  V30 22 N 10.886067 9.761874 -6.636655 0
M  V30 23 N 11.433386 10.216307 -5.488267 0
M  V30 24 C 11.683805 9.231050 -4.555938 0
M  V30 25 C 12.206331 9.242192 -3.252403 0
M  V30 26 C 12.357359 8.024689 -2.566933 0
M  V30 27 C 11.981538 6.819424 -3.191425 0
M  V30 28 C 11.435858 6.824417 -4.494233 0
M  V30 29 C 11.262388 8.036052 -5.202304 0
M  V30 30 C 9.889389 8.173233 -8.767575 0
M  V30 31 C 9.633532 7.036451 -9.765187 0
M  V30 32 O 11.505140 1.799618 -16.610659 0
M  V30 33 C 11.160644 0.851634 -17.550222 0
M  V30 34 H 15.115701 0.629454 -19.547558 0
M  V30 35 H 14.201974 -0.871278 -19.466700 0
M  V30 36 H 13.774207 0.380244 -20.660089 0
M  V30 37 H 11.945931 -1.022327 -20.285109 0
M  V30 38 H 9.622404 -1.750561 -19.944916 0
M  V30 39 H 8.267426 -0.860537 -18.068014 0
M  V30 40 H 8.383216 1.111460 -15.745982 0
M  V30 41 H 8.472129 3.140190 -14.781918 0
M  V30 42 H 9.883207 4.339885 -12.543550 0
M  V30 43 H 9.406010 5.500995 -13.763064 0
M  V30 44 H 7.036703 4.831397 -13.571305 0
M  V30 45 H 7.419574 3.546961 -12.460951 0
M  V30 46 H 7.921738 6.500677 -11.934259 0
M  V30 47 H 6.504989 5.666878 -11.396766 0
M  V30 48 H 7.686097 4.268408 -9.854987 0
M  V30 49 H 9.241323 4.599720 -10.515065 0
M  V30 50 H 7.686351 5.229083 -7.647277 0
M  V30 51 H 9.404648 4.961680 -7.899327 0
M  V30 52 H 8.085021 7.519714 -6.869626 0
M  V30 53 H 9.130231 6.443258 -5.979860 0
M  V30 54 H 11.635678 11.199401 -5.380693 0
M  V30 55 H 12.487570 10.171506 -2.780173 0
M  V30 56 H 12.760519 8.015251 -1.564810 0
M  V30 57 H 12.094269 5.884738 -2.660931 0
M  V30 58 H 11.137957 5.892247 -4.950006 0
M  V30 59 H 9.048203 8.869324 -8.764140 0
M  V30 60 H 10.769170 8.737475 -9.081217 0
M  V30 61 H 10.535116 6.426245 -9.846082 0
M  V30 62 H 9.460415 7.471010 -10.748659 0
M  V30 63 H 7.651465 6.759876 -9.398911 0
M  V30 END ATOM
M  V30 BEGIN BOND
M  V30 1 1 2 1
M  V30 2 1 3 2
M  V30 3 1 4 3
M  V30 4 2 5 4
M  V30 5 1 6 5
M  V30 6 2 7 6
M  V30 7 1 8 7
M  V30 8 2 9 8
M  V30 9 1 10 9
M  V30 10 2 11 10
M  V30 11 1 12 10
M  V30 12 1 13 12
M  V30 13 1 14 13
M  V30 14 1 15 14
M  V30 15 1 16 15
M  V30 16 1 17 16
M  V30 17 1 18 17
M  V30 18 1 19 18
M  V30 19 1 20 19
M  V30 20 1 21 20
M  V30 21 2 22 21
M  V30 22 1 23 22
M  V30 23 1 24 23
M  V30 24 1 25 24
M  V30 25 2 26 25
M  V30 26 1 27 26
M  V30 27 2 28 27
M  V30 28 1 29 21
M  V30 29 2 29 24
M  V30 30 1 29 28
M  V30 31 1 30 20
M  V30 32 1 31 17
M  V30 33 1 31 30
M  V30 34 1 32 9
M  V30 35 2 33 3
M  V30 36 1 33 7
M  V30 37 1 33 32
M  V30 38 1 34 1
M  V30 39 1 35 1
M  V30 40 1 36 1
M  V30 41 1 37 4
M  V30 42 1 38 5
M  V30 43 1 39 6
M  V30 44 1 40 8
M  V30 45 1 41 12
M  V30 46 1 42 13
M  V30 47 1 43 13
M  V30 48 1 44 14
M  V30 49 1 45 14
M  V30 50 1 46 15
M  V30 51 1 47 15
M  V30 52 1 48 16
M  V30 53 1 49 16
M  V30 54 1 50 18
M  V30 55 1 51 18
M  V30 56 1 52 19
M  V30 57 1 53 19
M  V30 58 1 54 23
M  V30 59 1 55 25
M  V30 60 1 56 26
M  V30 61 1 57 27
M  V30 62 1 58 28
M  V30 63 1 59 30
M  V30 64 1 60 30
M  V30 65 1 61 31
M  V30 66 1 62 31
M  V30 67 1 63 17
M  V30 END BOND
M  V30 END CTAB
M  END
>  <b_m_subgroup_collapsed>  (328) 
0

>  <r_i_docking_score>  (328) 
-8.5025506121882497

>  <s_m_subgroup_title>  (328) 
glide-dock_SP_D22_pv

>  <s_m_subgroupid>  (328) 
glide-dock_SP_D22_pv

>  <Molecule ChEMBL ID>  (328) 
CHEMBL202713

>  <Standard Type>  (328) 
Ki

>  <Standard Value>  (328) 
56.6

>  <label>  (328) 
1

$$$$
CHEMBL2397392
     RDKit          3D

  0  0  0  0  0  0  0  0  0  0999 V3000
M  V30 BEGIN CTAB
M  V30 COUNTS 59 61 0 0 1
M  V30 BEGIN ATOM
M  V30 1 C 3.992994 -0.306566 -14.072085 0
M  V30 2 C 4.827658 0.565598 -13.877768 0
M  V30 3 C 5.755817 1.634537 -13.688291 0
M  V30 4 C 6.977500 1.586806 -14.246696 0
M  V30 5 C 8.049342 2.643030 -14.044900 0
M  V30 6 C 7.530746 3.964426 -13.419315 0 CFG=2
M  V30 7 N 8.617314 4.866904 -12.900737 0 CFG=2 CHG=1
M  V30 8 C 9.661345 5.216048 -13.911010 0
M  V30 9 C 10.878117 4.264123 -14.012405 0
M  V30 10 C 11.922563 4.767248 -15.015054 0
M  V30 11 C 9.190594 4.608613 -11.539856 0
M  V30 12 C 8.294214 5.050488 -10.354897 0
M  V30 13 C 9.017612 5.619665 -9.132907 0
M  V30 14 C 9.611050 7.016450 -9.369917 0
M  V30 15 N 9.942938 7.714621 -8.135098 0
M  V30 16 C 10.775938 7.289454 -7.176147 0
M  V30 17 O 11.285575 6.173661 -7.151613 0
M  V30 18 C 11.019302 8.291605 -6.118215 0
M  V30 19 C 10.992163 9.699312 -6.181473 0
M  V30 20 N 11.285570 10.284278 -5.046668 0
M  V30 21 N 11.608402 9.245757 -4.213295 0
M  V30 22 C 12.040170 9.372734 -2.930654 0
M  V30 23 C 12.283684 8.236264 -2.194518 0
M  V30 24 C 12.089409 6.956131 -2.766869 0
M  V30 25 C 11.685994 6.829864 -4.076322 0
M  V30 26 C 11.426456 7.996649 -4.843865 0
M  V30 27 C 6.385920 3.767859 -12.406611 0
M  V30 28 C 5.284956 2.793926 -12.829556 0
M  V30 29 H 3.261552 -1.059071 -14.269955 0
M  V30 30 H 7.265342 0.731963 -14.843541 0
M  V30 31 H 8.837958 2.192132 -13.446938 0
M  V30 32 H 8.480835 2.847917 -15.025228 0
M  V30 33 H 7.072510 4.514786 -14.243156 0
M  V30 34 H 9.206214 5.372765 -14.889272 0
M  V30 35 H 10.064130 6.172682 -13.603146 0
M  V30 36 H 11.371846 4.171077 -13.046700 0
M  V30 37 H 10.588468 3.258809 -14.302837 0
M  V30 38 H 12.770574 4.082429 -15.069389 0
M  V30 39 H 11.501366 4.848409 -16.016867 0
M  V30 40 H 12.313287 5.748069 -14.733393 0
M  V30 41 H 9.524110 3.574534 -11.449316 0
M  V30 42 H 10.089994 5.212572 -11.459496 0
M  V30 43 H 7.544449 5.770892 -10.681140 0
M  V30 44 H 7.756233 4.192462 -9.962216 0
M  V30 45 H 8.293249 5.686641 -8.317671 0
M  V30 46 H 9.782301 4.918895 -8.798223 0
M  V30 47 H 10.499372 6.961968 -9.997926 0
M  V30 48 H 8.887286 7.639352 -9.898617 0
M  V30 49 H 9.515085 8.618458 -8.010825 0
M  V30 50 H 10.766297 10.295540 -7.045231 0
M  V30 51 H 12.147329 10.379808 -2.541654 0
M  V30 52 H 12.607401 8.330417 -1.162857 0
M  V30 53 H 12.271686 6.061369 -2.177205 0
M  V30 54 H 11.549640 5.849504 -4.526862 0
M  V30 55 H 6.774550 3.359703 -11.491973 0
M  V30 56 H 5.939298 4.726497 -12.137399 0
M  V30 57 H 4.487588 3.327642 -13.345931 0
M  V30 58 H 4.874446 2.375858 -11.911316 0
M  V30 59 H 8.127094 5.741029 -12.764678 0
M  V30 END ATOM
M  V30 BEGIN BOND
M  V30 1 3 2 1
M  V30 2 1 3 2
M  V30 3 2 4 3
M  V30 4 1 5 4
M  V30 5 1 6 5
M  V30 6 1 7 6
M  V30 7 1 8 7
M  V30 8 1 9 8
M  V30 9 1 10 9
M  V30 10 1 11 7
M  V30 11 1 12 11
M  V30 12 1 13 12
M  V30 13 1 14 13
M  V30 14 1 15 14
M  V30 15 1 16 15
M  V30 16 2 17 16
M  V30 17 1 18 16
M  V30 18 1 19 18
M  V30 19 2 20 19
M  V30 20 1 21 20
M  V30 21 1 22 21
M  V30 22 2 23 22
M  V30 23 1 24 23
M  V30 24 2 25 24
M  V30 25 2 26 18
M  V30 26 1 26 21
M  V30 27 1 26 25
M  V30 28 1 27 6
M  V30 29 1 28 3
M  V30 30 1 28 27
M  V30 31 1 29 1
M  V30 32 1 30 4
M  V30 33 1 31 5
M  V30 34 1 32 5
M  V30 35 1 6 33 CFG=3
M  V30 36 1 34 8
M  V30 37 1 35 8
M  V30 38 1 36 9
M  V30 39 1 37 9
M  V30 40 1 38 10
M  V30 41 1 39 10
M  V30 42 1 40 10
M  V30 43 1 41 11
M  V30 44 1 42 11
M  V30 45 1 43 12
M  V30 46 1 44 12
M  V30 47 1 45 13
M  V30 48 1 46 13
M  V30 49 1 47 14
M  V30 50 1 48 14
M  V30 51 1 49 15
M  V30 52 1 50 19
M  V30 53 1 51 22
M  V30 54 1 52 23
M  V30 55 1 53 24
M  V30 56 1 54 25
M  V30 57 1 55 27
M  V30 58 1 56 27
M  V30 59 1 57 28
M  V30 60 1 58 28
M  V30 61 1 7 59 CFG=1
M  V30 END BOND
M  V30 END CTAB
M  END
>  <b_m_subgroup_collapsed>  (329) 
0

>  <r_i_docking_score>  (329) 
-8.5010940695166397

>  <s_m_subgroup_title>  (329) 
glide-dock_SP_D22_pv

>  <s_m_subgroupid>  (329) 
glide-dock_SP_D22_pv

>  <Molecule ChEMBL ID>  (329) 
CHEMBL2397392

>  <Standard Type>  (329) 
Ki

>  <Standard Value>  (329) 
0.55

>  <label>  (329) 
1

$$$$
CHEMBL545457
     RDKit          3D

  0  0  0  0  0  0  0  0  0  0999 V3000
M  V30 BEGIN CTAB
M  V30 COUNTS 33 35 0 0 1
M  V30 BEGIN ATOM
M  V30 1 O 10.086149 5.737365 -8.562243 0
M  V30 2 C 10.489005 6.670009 -7.866033 0
M  V30 3 C 10.838578 6.634997 -6.487796 0
M  V30 4 C 11.175435 7.860386 -6.104926 0
M  V30 5 C 11.658320 8.167913 -4.749226 0
M  V30 6 C 11.673277 9.496593 -4.299117 0
M  V30 7 C 12.081601 9.772370 -2.983313 0
M  V30 8 C 12.483423 8.745687 -2.111373 0
M  V30 9 C 12.463376 7.415451 -2.557795 0
M  V30 10 C 12.056402 7.128822 -3.870391 0
M  V30 11 O 11.079742 8.788259 -7.119164 0
M  V30 12 C 10.641809 8.120470 -8.318710 0 CFG=1
M  V30 13 C 11.688213 8.315981 -9.441477 0
M  V30 14 C 11.231014 7.721012 -10.793382 0
M  V30 15 C 9.786438 8.109031 -11.172750 0
M  V30 16 N 8.886060 7.898758 -10.026315 0 CHG=1
M  V30 17 C 9.285259 8.648042 -8.812192 0
M  V30 18 H 10.816837 5.772195 -5.868160 0
M  V30 19 H 11.361322 10.301983 -4.947999 0
M  V30 20 H 12.083862 10.795024 -2.637350 0
M  V30 21 H 12.794217 8.983180 -1.104292 0
M  V30 22 H 12.758457 6.613534 -1.896821 0
M  V30 23 H 12.060640 6.095579 -4.180722 0
M  V30 24 H 11.870881 9.382220 -9.571847 0
M  V30 25 H 12.646523 7.884103 -9.149775 0
M  V30 26 H 11.923307 8.013850 -11.583080 0
M  V30 27 H 11.285166 6.635689 -10.738930 0
M  V30 28 H 9.714987 9.142717 -11.494956 0
M  V30 29 H 9.441992 7.501839 -12.010378 0
M  V30 30 H 7.890129 8.075418 -10.246858 0
M  V30 31 H 8.517300 8.517232 -8.047323 0
M  V30 32 H 9.332617 9.713515 -9.033289 0
M  V30 33 H 8.926497 6.914875 -9.788999 0
M  V30 END ATOM
M  V30 BEGIN BOND
M  V30 1 2 2 1
M  V30 2 1 3 2
M  V30 3 2 4 3
M  V30 4 1 5 4
M  V30 5 2 6 5
M  V30 6 1 7 6
M  V30 7 2 8 7
M  V30 8 1 9 8
M  V30 9 1 10 5
M  V30 10 2 10 9
M  V30 11 1 11 4
M  V30 12 1 12 2
M  V30 13 1 12 11 CFG=1
M  V30 14 1 13 12
M  V30 15 1 14 13
M  V30 16 1 15 14
M  V30 17 1 16 15
M  V30 18 1 17 12
M  V30 19 1 17 16
M  V30 20 1 18 3
M  V30 21 1 19 6
M  V30 22 1 20 7
M  V30 23 1 21 8
M  V30 24 1 22 9
M  V30 25 1 23 10
M  V30 26 1 24 13
M  V30 27 1 25 13
M  V30 28 1 26 14
M  V30 29 1 27 14
M  V30 30 1 28 15
M  V30 31 1 29 15
M  V30 32 1 30 16
M  V30 33 1 31 17
M  V30 34 1 32 17
M  V30 35 1 33 16
M  V30 END BOND
M  V30 END CTAB
M  END
>  <b_m_subgroup_collapsed>  (330) 
0

>  <r_i_docking_score>  (330) 
-8.5003092832864091

>  <s_m_subgroup_title>  (330) 
glide-dock_SP_D22_pv

>  <s_m_subgroupid>  (330) 
glide-dock_SP_D22_pv

>  <Molecule ChEMBL ID>  (330) 
CHEMBL545457

>  <Standard Type>  (330) 
Ki

>  <Standard Value>  (330) 
10000.0

>  <label>  (330) 
0

$$$$
CHEMBL4082195
     RDKit          3D

  0  0  0  0  0  0  0  0  0  0999 V3000
M  V30 BEGIN CTAB
M  V30 COUNTS 58 61 0 0 1
M  V30 BEGIN ATOM
M  V30 1 O 11.686751 10.569881 -6.246394 0
M  V30 2 C 11.681104 9.394311 -5.550886 0
M  V30 3 C 12.415593 9.284583 -4.352273 0
M  V30 4 C 12.411590 8.078754 -3.627689 0
M  V30 5 C 11.685488 6.975419 -4.107079 0
M  V30 6 C 10.933413 7.089099 -5.293684 0
M  V30 7 C 10.926134 8.300220 -6.032079 0
M  V30 8 O 10.239376 8.474191 -7.216085 0
M  V30 9 C 9.017892 7.770746 -7.397582 0
M  V30 10 C 9.225468 6.359715 -7.977919 0
M  V30 11 N 8.885868 6.264207 -9.413646 0 CHG=1
M  V30 12 C 8.850234 4.859842 -9.884786 0
M  V30 13 C 8.515843 4.707887 -11.378658 0 CFG=1
M  V30 14 C 7.366407 5.598493 -11.862103 0
M  V30 15 O 7.120644 5.248248 -13.205459 0
M  V30 16 C 8.274544 5.522824 -13.985139 0
M  V30 17 C 9.511111 4.688488 -13.599303 0
M  V30 18 C 10.681504 5.334570 -14.363310 0
M  V30 19 C 10.797287 5.170937 -15.767107 0
M  V30 20 C 11.808885 5.830215 -16.490538 0
M  V30 21 C 12.707049 6.679856 -15.821668 0
M  V30 22 C 12.594445 6.859958 -14.431913 0
M  V30 23 C 11.600569 6.182556 -13.702994 0
M  V30 24 C 9.359047 3.198671 -14.007078 0
M  V30 25 C 8.092797 2.603470 -14.247543 0
M  V30 26 C 7.986090 1.281002 -14.718129 0
M  V30 27 C 9.141391 0.528334 -14.980970 0
M  V30 28 C 10.402218 1.097314 -14.745549 0
M  V30 29 C 10.511623 2.409955 -14.247075 0
M  V30 30 O 9.686707 4.874909 -12.180011 0
M  V30 31 H 12.268222 11.217086 -5.879036 0
M  V30 32 H 12.991937 10.118073 -3.976221 0
M  V30 33 H 12.973476 7.998031 -2.709186 0
M  V30 34 H 11.685917 6.045530 -3.556973 0
M  V30 35 H 10.376341 6.222999 -5.616136 0
M  V30 36 H 8.470505 7.726845 -6.454352 0
M  V30 37 H 8.409200 8.373443 -8.067026 0
M  V30 38 H 10.249930 6.012308 -7.830113 0
M  V30 39 H 8.573611 5.672749 -7.435055 0
M  V30 40 H 7.966570 6.686725 -9.556633 0
M  V30 41 H 9.794152 4.362552 -9.664863 0
M  V30 42 H 8.086812 4.336681 -9.305563 0
M  V30 43 H 8.182076 3.696825 -11.532776 0
M  V30 44 H 6.461444 5.419170 -11.284254 0
M  V30 45 H 7.614892 6.655970 -11.786874 0
M  V30 46 H 8.485681 6.572223 -13.844283 0
M  V30 47 H 8.086145 5.386606 -15.045813 0
M  V30 48 H 10.099516 4.541557 -16.300720 0
M  V30 49 H 11.886869 5.694523 -17.560083 0
M  V30 50 H 13.478057 7.195491 -16.372522 0
M  V30 51 H 13.284664 7.512555 -13.920182 0
M  V30 52 H 11.534200 6.356390 -12.640074 0
M  V30 53 H 7.170545 3.136705 -14.100483 0
M  V30 54 H 7.012890 0.850766 -14.894144 0
M  V30 55 H 9.060723 -0.481774 -15.356088 0
M  V30 56 H 11.285840 0.517188 -14.952109 0
M  V30 57 H 11.496219 2.818870 -14.079884 0
M  V30 58 H 9.557452 6.789254 -9.954907 0
M  V30 END ATOM
M  V30 BEGIN BOND
M  V30 1 1 2 1
M  V30 2 2 3 2
M  V30 3 1 4 3
M  V30 4 2 5 4
M  V30 5 1 6 5
M  V30 6 1 7 2
M  V30 7 2 7 6
M  V30 8 1 8 7
M  V30 9 1 9 8
M  V30 10 1 10 9
M  V30 11 1 11 10
M  V30 12 1 12 11
M  V30 13 1 13 12
M  V30 14 1 14 13
M  V30 15 1 15 14
M  V30 16 1 16 15
M  V30 17 1 17 16
M  V30 18 1 18 17
M  V30 19 2 19 18
M  V30 20 1 20 19
M  V30 21 2 21 20
M  V30 22 1 22 21
M  V30 23 1 23 18
M  V30 24 2 23 22
M  V30 25 1 24 17
M  V30 26 2 25 24
M  V30 27 1 26 25
M  V30 28 2 27 26
M  V30 29 1 28 27
M  V30 30 1 29 24
M  V30 31 2 29 28
M  V30 32 1 30 13
M  V30 33 1 30 17
M  V30 34 1 31 1
M  V30 35 1 32 3
M  V30 36 1 33 4
M  V30 37 1 34 5
M  V30 38 1 35 6
M  V30 39 1 36 9
M  V30 40 1 37 9
M  V30 41 1 38 10
M  V30 42 1 39 10
M  V30 43 1 40 11
M  V30 44 1 41 12
M  V30 45 1 42 12
M  V30 46 1 13 43 CFG=1
M  V30 47 1 44 14
M  V30 48 1 45 14
M  V30 49 1 46 16
M  V30 50 1 47 16
M  V30 51 1 48 19
M  V30 52 1 49 20
M  V30 53 1 50 21
M  V30 54 1 51 22
M  V30 55 1 52 23
M  V30 56 1 53 25
M  V30 57 1 54 26
M  V30 58 1 55 27
M  V30 59 1 56 28
M  V30 60 1 57 29
M  V30 61 1 58 11
M  V30 END BOND
M  V30 END CTAB
M  END
>  <b_m_subgroup_collapsed>  (331) 
0

>  <r_i_docking_score>  (331) 
-8.4993559393863105

>  <s_m_subgroup_title>  (331) 
glide-dock_SP_D22_pv

>  <s_m_subgroupid>  (331) 
glide-dock_SP_D22_pv

>  <Molecule ChEMBL ID>  (331) 
CHEMBL4082195

>  <Standard Type>  (331) 
Ki

>  <Standard Value>  (331) 
15.49

>  <label>  (331) 
1

$$$$
CHEMBL3817911
     RDKit          3D

  0  0  0  0  0  0  0  0  0  0999 V3000
M  V30 BEGIN CTAB
M  V30 COUNTS 54 57 0 0 1
M  V30 BEGIN ATOM
M  V30 1 O 6.241519 4.558629 -13.199735 0
M  V30 2 C 6.932835 3.649117 -13.652278 0
M  V30 3 C 6.483922 2.248775 -13.835450 0
M  V30 4 C 5.286028 1.630312 -13.442924 0
M  V30 5 C 5.159663 0.248942 -13.717417 0
M  V30 6 C 6.222857 -0.473441 -14.320164 0
M  V30 7 C 7.435416 0.173026 -14.664391 0
M  V30 8 C 7.521059 1.551631 -14.400026 0
M  V30 9 C 8.652985 2.494819 -14.560873 0
M  V30 10 O 9.753877 2.209744 -15.028792 0
M  V30 11 N 8.221455 3.693635 -14.081544 0
M  V30 12 C 9.061930 4.894234 -14.025128 0
M  V30 13 C 9.703654 5.106967 -12.636409 0
M  V30 14 C 8.894611 6.039402 -11.713776 0
M  V30 15 C 9.536348 6.214654 -10.327066 0
M  V30 16 N 8.888733 7.300987 -9.548881 0 CFG=2 CHG=1
M  V30 17 C 9.377453 8.668051 -9.877019 0
M  V30 18 C 10.724133 8.994734 -9.200043 0
M  V30 19 C 10.635219 8.794979 -7.675944 0 CFG=2
M  V30 20 C 11.953938 9.113850 -6.943330 0
M  V30 21 C 11.878390 8.820888 -5.435019 0
M  V30 22 C 11.375048 7.401140 -5.147439 0
M  V30 23 C 10.049746 7.151107 -5.865797 0
M  V30 24 C 10.180431 7.348676 -7.382683 0 CFG=1
M  V30 25 C 8.840755 7.062087 -8.082941 0
M  V30 26 H 4.489865 2.189815 -12.973442 0
M  V30 27 H 4.241322 -0.257791 -13.466408 0
M  V30 28 H 6.109249 -1.530289 -14.511453 0
M  V30 29 H 8.260813 -0.371579 -15.101506 0
M  V30 30 H 9.853396 4.809389 -14.772755 0
M  V30 31 H 8.484661 5.771394 -14.320010 0
M  V30 32 H 9.886995 4.147171 -12.149917 0
M  V30 33 H 10.689479 5.552130 -12.781907 0
M  V30 34 H 8.788556 7.004764 -12.207859 0
M  V30 35 H 7.883157 5.658061 -11.580173 0
M  V30 36 H 9.448815 5.265973 -9.794942 0
M  V30 37 H 10.603742 6.414441 -10.416633 0
M  V30 38 H 9.450513 8.802202 -10.956395 0
M  V30 39 H 8.618851 9.374361 -9.537553 0
M  V30 40 H 11.517539 8.370516 -9.609244 0
M  V30 41 H 11.003871 10.021615 -9.440782 0
M  V30 42 H 9.873242 9.471857 -7.289527 0
M  V30 43 H 12.771537 8.572613 -7.415945 0
M  V30 44 H 12.185947 10.172312 -7.043478 0
M  V30 45 H 12.855387 8.974449 -4.973404 0
M  V30 46 H 11.208819 9.539080 -4.961989 0
M  V30 47 H 12.087068 6.650430 -5.483884 0
M  V30 48 H 11.268544 7.251440 -4.071527 0
M  V30 49 H 9.685719 6.160999 -5.638983 0
M  V30 50 H 9.287862 7.813070 -5.482345 0
M  V30 51 H 10.929680 6.652732 -7.760589 0
M  V30 52 H 8.090861 7.727846 -7.654866 0
M  V30 53 H 8.491786 6.049979 -7.873808 0
M  V30 54 H 7.903493 7.321335 -9.844584 0
M  V30 END ATOM
M  V30 BEGIN BOND
M  V30 1 2 2 1
M  V30 2 1 3 2
M  V30 3 2 4 3
M  V30 4 1 5 4
M  V30 5 2 6 5
M  V30 6 1 7 6
M  V30 7 1 8 3
M  V30 8 2 8 7
M  V30 9 1 9 8
M  V30 10 2 10 9
M  V30 11 1 11 2
M  V30 12 1 11 9
M  V30 13 1 12 11
M  V30 14 1 13 12
M  V30 15 1 14 13
M  V30 16 1 15 14
M  V30 17 1 16 15
M  V30 18 1 17 16
M  V30 19 1 18 17
M  V30 20 1 19 18
M  V30 21 1 20 19
M  V30 22 1 21 20
M  V30 23 1 22 21
M  V30 24 1 23 22
M  V30 25 1 24 19
M  V30 26 1 24 23
M  V30 27 1 25 16
M  V30 28 1 25 24
M  V30 29 1 26 4
M  V30 30 1 27 5
M  V30 31 1 28 6
M  V30 32 1 29 7
M  V30 33 1 30 12
M  V30 34 1 31 12
M  V30 35 1 32 13
M  V30 36 1 33 13
M  V30 37 1 34 14
M  V30 38 1 35 14
M  V30 39 1 36 15
M  V30 40 1 37 15
M  V30 41 1 38 17
M  V30 42 1 39 17
M  V30 43 1 40 18
M  V30 44 1 41 18
M  V30 45 1 19 42 CFG=1
M  V30 46 1 43 20
M  V30 47 1 44 20
M  V30 48 1 45 21
M  V30 49 1 46 21
M  V30 50 1 47 22
M  V30 51 1 48 22
M  V30 52 1 49 23
M  V30 53 1 50 23
M  V30 54 1 24 51 CFG=3
M  V30 55 1 52 25
M  V30 56 1 53 25
M  V30 57 1 16 54 CFG=3
M  V30 END BOND
M  V30 END CTAB
M  END
>  <b_m_subgroup_collapsed>  (332) 
0

>  <r_i_docking_score>  (332) 
-8.4960033748849906

>  <s_m_subgroup_title>  (332) 
glide-dock_SP_D22_pv

>  <s_m_subgroupid>  (332) 
glide-dock_SP_D22_pv

>  <Molecule ChEMBL ID>  (332) 
CHEMBL3817911

>  <Standard Type>  (332) 
Ki

>  <Standard Value>  (332) 
10000.0

>  <label>  (332) 
0

$$$$
CHEMBL5407341
     RDKit          3D

  0  0  0  0  0  0  0  0  0  0999 V3000
M  V30 BEGIN CTAB
M  V30 COUNTS 70 73 0 0 1
M  V30 BEGIN ATOM
M  V30 1 C 4.505760 -1.201927 -14.869397 0
M  V30 2 O 5.830125 -0.687358 -14.861069 0
M  V30 3 C 6.026791 0.579046 -14.353989 0
M  V30 4 C 5.125588 1.183256 -13.446751 0
M  V30 5 C 5.353230 2.483600 -12.963419 0
M  V30 6 C 6.486003 3.212681 -13.368346 0
M  V30 7 N 6.651421 4.512729 -12.809412 0
M  V30 8 C 7.680727 5.372086 -12.915938 0
M  V30 9 O 8.720622 5.178875 -13.542290 0
M  V30 10 N 7.439511 6.505087 -12.246872 0
M  V30 11 C 8.332843 7.649302 -12.117805 0
M  V30 12 C 9.466166 7.403888 -11.125153 0
M  V30 13 C 8.912952 7.354533 -9.705670 0
M  V30 14 N 9.938248 7.079663 -8.696945 0 CHG=1
M  V30 15 C 9.314037 6.568235 -7.452857 0
M  V30 16 C 10.403774 6.172317 -6.468415 0
M  V30 17 N 11.286031 7.280598 -6.246757 0
M  V30 18 C 11.521297 7.725680 -4.939507 0
M  V30 19 C 11.896235 6.825097 -3.921339 0
M  V30 20 C 12.178508 7.290556 -2.625823 0
M  V30 21 C 12.087245 8.664501 -2.341725 0
M  V30 22 C 11.686173 9.563638 -3.346886 0
M  V30 23 C 11.382113 9.090711 -4.642372 0
M  V30 24 O 10.882698 9.892548 -5.630901 0
M  V30 25 C 11.598526 11.071218 -5.846953 0
M  V30 26 C 11.900212 7.908450 -7.412164 0
M  V30 27 C 10.825203 8.250779 -8.445972 0
M  V30 28 C 7.392468 2.604296 -14.267601 0
M  V30 29 C 7.179760 1.296374 -14.759485 0
M  V30 30 C 8.163318 0.718336 -15.693004 0
M  V30 31 C 9.535525 0.710631 -15.359827 0
M  V30 32 C 10.486103 0.172303 -16.245764 0
M  V30 33 C 10.078131 -0.378501 -17.473951 0
M  V30 34 F 10.993737 -0.916500 -18.314255 0
M  V30 35 C 8.715944 -0.369473 -17.824348 0
M  V30 36 C 7.767083 0.179165 -16.938957 0
M  V30 37 H 4.481183 -2.127642 -15.445196 0
M  V30 38 H 4.157372 -1.427915 -13.862091 0
M  V30 39 H 3.810963 -0.503857 -15.339172 0
M  V30 40 H 4.242995 0.666068 -13.109291 0
M  V30 41 H 4.652225 2.916438 -12.268629 0
M  V30 42 H 5.895511 4.817526 -12.214998 0
M  V30 43 H 6.587397 6.605667 -11.704812 0
M  V30 44 H 7.742669 8.524492 -11.846907 0
M  V30 45 H 8.764461 7.927833 -13.046862 0
M  V30 46 H 10.188955 8.212313 -11.228883 0
M  V30 47 H 9.994261 6.480881 -11.369338 0
M  V30 48 H 8.142160 6.577934 -9.649037 0
M  V30 49 H 8.486037 8.322646 -9.456354 0
M  V30 50 H 8.688782 5.699548 -7.663827 0
M  V30 51 H 8.662327 7.330008 -7.019128 0
M  V30 52 H 11.007346 5.372377 -6.894864 0
M  V30 53 H 9.974852 5.847458 -5.525924 0
M  V30 54 H 11.991966 5.772418 -4.137235 0
M  V30 55 H 12.474281 6.593605 -1.854942 0
M  V30 56 H 12.302845 9.030262 -1.348182 0
M  V30 57 H 11.578383 10.605921 -3.095391 0
M  V30 58 H 11.340504 11.464879 -6.822772 0
M  V30 59 H 11.286027 11.772343 -5.072969 0
M  V30 60 H 12.676963 10.910178 -5.846905 0
M  V30 61 H 12.482326 8.791050 -7.148404 0
M  V30 62 H 12.608159 7.206614 -7.846846 0
M  V30 63 H 11.312366 8.582218 -9.362054 0
M  V30 64 H 10.225762 9.088832 -8.086281 0
M  V30 65 H 8.272758 3.125270 -14.607374 0
M  V30 66 H 9.864343 1.117992 -14.413934 0
M  V30 67 H 11.532041 0.176407 -15.979353 0
M  V30 68 H 8.397336 -0.789022 -18.767199 0
M  V30 69 H 6.722877 0.177892 -17.216263 0
M  V30 70 H 10.513981 6.330341 -9.051376 0
M  V30 END ATOM
M  V30 BEGIN BOND
M  V30 1 1 2 1
M  V30 2 1 3 2
M  V30 3 1 4 3
M  V30 4 2 5 4
M  V30 5 1 6 5
M  V30 6 1 7 6
M  V30 7 1 8 7
M  V30 8 2 9 8
M  V30 9 1 10 8
M  V30 10 1 11 10
M  V30 11 1 12 11
M  V30 12 1 13 12
M  V30 13 1 14 13
M  V30 14 1 15 14
M  V30 15 1 16 15
M  V30 16 1 17 16
M  V30 17 1 18 17
M  V30 18 2 19 18
M  V30 19 1 20 19
M  V30 20 2 21 20
M  V30 21 1 22 21
M  V30 22 1 23 18
M  V30 23 2 23 22
M  V30 24 1 24 23
M  V30 25 1 25 24
M  V30 26 1 26 17
M  V30 27 1 27 14
M  V30 28 1 27 26
M  V30 29 2 28 6
M  V30 30 2 29 3
M  V30 31 1 29 28
M  V30 32 1 30 29
M  V30 33 1 31 30
M  V30 34 2 32 31
M  V30 35 1 33 32
M  V30 36 1 34 33
M  V30 37 2 35 33
M  V30 38 2 36 30
M  V30 39 1 36 35
M  V30 40 1 37 1
M  V30 41 1 38 1
M  V30 42 1 39 1
M  V30 43 1 40 4
M  V30 44 1 41 5
M  V30 45 1 42 7
M  V30 46 1 43 10
M  V30 47 1 44 11
M  V30 48 1 45 11
M  V30 49 1 46 12
M  V30 50 1 47 12
M  V30 51 1 48 13
M  V30 52 1 49 13
M  V30 53 1 50 15
M  V30 54 1 51 15
M  V30 55 1 52 16
M  V30 56 1 53 16
M  V30 57 1 54 19
M  V30 58 1 55 20
M  V30 59 1 56 21
M  V30 60 1 57 22
M  V30 61 1 58 25
M  V30 62 1 59 25
M  V30 63 1 60 25
M  V30 64 1 61 26
M  V30 65 1 62 26
M  V30 66 1 63 27
M  V30 67 1 64 27
M  V30 68 1 65 28
M  V30 69 1 66 31
M  V30 70 1 67 32
M  V30 71 1 68 35
M  V30 72 1 69 36
M  V30 73 1 70 14
M  V30 END BOND
M  V30 END CTAB
M  END
>  <b_m_subgroup_collapsed>  (333) 
0

>  <r_i_docking_score>  (333) 
-8.4927538714931607

>  <s_m_subgroup_title>  (333) 
glide-dock_SP_D22_pv

>  <s_m_subgroupid>  (333) 
glide-dock_SP_D22_pv

>  <Molecule ChEMBL ID>  (333) 
CHEMBL5407341

>  <Standard Type>  (333) 
Ki

>  <Standard Value>  (333) 
53.0

>  <label>  (333) 
1

$$$$
CHEMBL5830831
     RDKit          3D

  0  0  0  0  0  0  0  0  0  0999 V3000
M  V30 BEGIN CTAB
M  V30 COUNTS 65 68 0 0 1
M  V30 BEGIN ATOM
M  V30 1 C 8.316779 3.524266 -13.921012 0
M  V30 2 N 9.318974 4.510647 -14.318264 0
M  V30 3 C 9.682127 5.352961 -13.160108 0
M  V30 4 C 8.501270 6.108579 -12.484359 0 CFG=1
M  V30 5 C 7.810800 5.319758 -11.335990 0
M  V30 6 C 8.636279 5.297499 -10.042965 0
M  V30 7 N 8.886085 6.678542 -9.579141 0 CFG=1 CHG=1
M  V30 8 C 9.482986 6.732350 -8.219079 0
M  V30 9 C 9.082446 8.003017 -7.441296 0
M  V30 10 O 10.202686 8.802525 -7.069220 0
M  V30 11 C 10.861721 8.500504 -5.895818 0
M  V30 12 C 11.433826 9.572960 -5.179452 0
M  V30 13 C 12.097726 9.350120 -3.956273 0
M  V30 14 C 12.223871 8.045744 -3.448224 0
M  V30 15 C 11.685858 6.965677 -4.169522 0
M  V30 16 C 10.997015 7.188782 -5.377967 0
M  V30 17 C 9.655046 7.446138 -10.588246 0
M  V30 18 C 8.916429 7.498482 -11.939375 0
M  V30 19 C 10.544179 3.867978 -14.849545 0 CFG=2
M  V30 20 C 11.470176 4.866398 -15.550720 0
M  V30 21 C 10.985826 5.680296 -16.599800 0
M  V30 22 C 11.845411 6.567770 -17.276222 0
M  V30 23 C 13.195858 6.662518 -16.898991 0
M  V30 24 Cl 14.245266 7.744560 -17.736290 0
M  V30 25 C 13.685800 5.864674 -15.846976 0
M  V30 26 C 12.827736 4.970634 -15.175347 0
M  V30 27 C 10.300730 2.632568 -15.730750 0
M  V30 28 C 10.486184 1.342710 -15.181261 0
M  V30 29 C 10.192309 0.215868 -15.972630 0
M  V30 30 C 9.739224 0.416287 -17.288643 0
M  V30 31 C 9.583609 1.737754 -17.748932 0
M  V30 32 N 9.842915 2.822723 -16.991665 0
M  V30 33 H 7.369742 4.009564 -13.689068 0
M  V30 34 H 8.069415 2.820343 -14.714907 0
M  V30 35 H 8.661171 2.967095 -13.051200 0
M  V30 36 H 10.211394 4.758449 -12.415103 0
M  V30 37 H 10.400764 6.093610 -13.511216 0
M  V30 38 H 7.758885 6.298976 -13.261491 0
M  V30 39 H 6.841244 5.772428 -11.123182 0
M  V30 40 H 7.577565 4.294292 -11.599943 0
M  V30 41 H 9.580326 4.770609 -10.184979 0
M  V30 42 H 8.086293 4.745297 -9.280491 0
M  V30 43 H 9.130996 5.876390 -7.642264 0
M  V30 44 H 10.565763 6.624967 -8.284333 0
M  V30 45 H 8.440506 8.635043 -8.055062 0
M  V30 46 H 8.482734 7.748083 -6.566361 0
M  V30 47 H 11.344457 10.579380 -5.559202 0
M  V30 48 H 12.515665 10.171782 -3.397004 0
M  V30 49 H 12.736693 7.873684 -2.513939 0
M  V30 50 H 11.783034 5.961981 -3.783595 0
M  V30 51 H 10.589859 6.331116 -5.887871 0
M  V30 52 H 10.639834 6.995418 -10.716097 0
M  V30 53 H 9.818851 8.462636 -10.229590 0
M  V30 54 H 9.544461 8.030894 -12.646646 0
M  V30 55 H 8.023337 8.116106 -11.843066 0
M  V30 56 H 11.092151 3.488031 -13.986957 0
M  V30 57 H 9.951066 5.607920 -16.902006 0
M  V30 58 H 11.467203 7.174415 -18.086275 0
M  V30 59 H 14.722657 5.938520 -15.551570 0
M  V30 60 H 13.220312 4.361396 -14.374851 0
M  V30 61 H 10.824368 1.218244 -14.163148 0
M  V30 62 H 10.311129 -0.781218 -15.573176 0
M  V30 63 H 9.509521 -0.423368 -17.926947 0
M  V30 64 H 9.232570 1.926881 -18.754347 0
M  V30 65 H 7.959048 7.106838 -9.534642 0
M  V30 END ATOM
M  V30 BEGIN BOND
M  V30 1 1 2 1
M  V30 2 1 3 2
M  V30 3 1 4 3
M  V30 4 1 5 4
M  V30 5 1 6 5
M  V30 6 1 7 6
M  V30 7 1 8 7
M  V30 8 1 9 8
M  V30 9 1 10 9
M  V30 10 1 11 10
M  V30 11 2 12 11
M  V30 12 1 13 12
M  V30 13 2 14 13
M  V30 14 1 15 14
M  V30 15 1 16 11
M  V30 16 2 16 15
M  V30 17 1 17 7
M  V30 18 1 18 4
M  V30 19 1 18 17
M  V30 20 1 19 2
M  V30 21 1 20 19
M  V30 22 1 21 20
M  V30 23 2 22 21
M  V30 24 1 23 22
M  V30 25 1 24 23
M  V30 26 2 25 23
M  V30 27 2 26 20
M  V30 28 1 26 25
M  V30 29 1 27 19
M  V30 30 2 28 27
M  V30 31 1 29 28
M  V30 32 2 30 29
M  V30 33 1 31 30
M  V30 34 1 32 27
M  V30 35 2 32 31
M  V30 36 1 33 1
M  V30 37 1 34 1
M  V30 38 1 35 1
M  V30 39 1 36 3
M  V30 40 1 37 3
M  V30 41 1 4 38 CFG=3
M  V30 42 1 39 5
M  V30 43 1 40 5
M  V30 44 1 41 6
M  V30 45 1 42 6
M  V30 46 1 43 8
M  V30 47 1 44 8
M  V30 48 1 45 9
M  V30 49 1 46 9
M  V30 50 1 47 12
M  V30 51 1 48 13
M  V30 52 1 49 14
M  V30 53 1 50 15
M  V30 54 1 51 16
M  V30 55 1 52 17
M  V30 56 1 53 17
M  V30 57 1 54 18
M  V30 58 1 55 18
M  V30 59 1 19 56 CFG=1
M  V30 60 1 57 21
M  V30 61 1 58 22
M  V30 62 1 59 25
M  V30 63 1 60 26
M  V30 64 1 61 28
M  V30 65 1 62 29
M  V30 66 1 63 30
M  V30 67 1 64 31
M  V30 68 1 7 65 CFG=1
M  V30 END BOND
M  V30 END CTAB
M  END
>  <b_m_subgroup_collapsed>  (334) 
0

>  <r_i_docking_score>  (334) 
-8.4904661123191794

>  <s_m_subgroup_title>  (334) 
glide-dock_SP_D22_pv

>  <s_m_subgroupid>  (334) 
glide-dock_SP_D22_pv

>  <Molecule ChEMBL ID>  (334) 
CHEMBL5830831

>  <Standard Type>  (334) 
Ki

>  <Standard Value>  (334) 
55.0

>  <label>  (334) 
1

$$$$
CHEMBL5777100
     RDKit          3D

  0  0  0  0  0  0  0  0  0  0999 V3000
M  V30 BEGIN CTAB
M  V30 COUNTS 64 68 0 0 1
M  V30 BEGIN ATOM
M  V30 1 O 8.086699 5.774055 -13.453131 0
M  V30 2 C 9.029320 5.135369 -13.001893 0
M  V30 3 N 9.847801 4.384549 -13.751164 0
M  V30 4 C 9.815142 4.279899 -15.210699 0 CFG=1
M  V30 5 C 10.983965 5.001377 -15.879438 0
M  V30 6 C 12.230472 5.172689 -15.212338 0
M  V30 7 C 13.301938 5.849158 -15.840361 0
M  V30 8 C 13.097142 6.343312 -17.136791 0
M  V30 9 C 11.898744 6.173218 -17.792786 0
M  V30 10 C 10.819251 5.502667 -17.195601 0
M  V30 11 O 11.976310 6.738496 -19.024332 0
M  V30 12 C 13.289680 7.227080 -19.153099 0
M  V30 13 F 13.919295 6.577787 -20.130592 0
M  V30 14 F 13.286084 8.520257 -19.468599 0
M  V30 15 O 13.960941 7.015904 -17.936090 0
M  V30 16 C 9.726784 2.826802 -15.660986 0
M  V30 17 C 10.482522 1.815731 -15.025718 0
M  V30 18 C 10.332283 0.490185 -15.466696 0
M  V30 19 C 9.447452 0.217892 -16.524860 0
M  V30 20 C 8.745384 1.294935 -17.098791 0
M  V30 21 N 8.877505 2.571458 -16.682688 0
M  V30 22 C 9.331132 5.210548 -11.510536 0 CFG=1
M  V30 23 C 9.845499 6.622424 -11.142221 0
M  V30 24 C 10.070701 6.786423 -9.628745 0
M  V30 25 N 8.861391 6.380144 -8.868095 0 CFG=2 CHG=1
M  V30 26 C 8.946490 6.578780 -7.403858 0
M  V30 27 C 9.186518 8.039957 -6.993010 0
M  V30 28 O 10.579185 8.326676 -6.899386 0
M  V30 29 C 11.094321 8.241982 -5.629390 0
M  V30 30 C 11.286066 6.999036 -4.988507 0
M  V30 31 C 11.752296 6.947914 -3.661155 0
M  V30 32 C 12.080708 8.133759 -2.979866 0
M  V30 33 C 11.920428 9.373268 -3.625120 0
M  V30 34 C 11.428768 9.428371 -4.945590 0
M  V30 35 F 11.259460 10.623019 -5.558978 0
M  V30 36 C 8.486294 4.984819 -9.187818 0
M  V30 37 C 8.090931 4.889022 -10.664326 0
M  V30 38 H 10.563716 3.853324 -13.281494 0
M  V30 39 H 8.911320 4.776330 -15.569825 0
M  V30 40 H 12.380404 4.786793 -14.216482 0
M  V30 41 H 14.247683 5.984204 -15.336798 0
M  V30 42 H 9.886792 5.378840 -17.727686 0
M  V30 43 H 11.158016 2.041076 -14.215213 0
M  V30 44 H 10.886358 -0.307386 -14.998602 0
M  V30 45 H 9.304275 -0.790349 -16.884420 0
M  V30 46 H 8.054149 1.126696 -17.911554 0
M  V30 47 H 10.086184 4.466048 -11.273654 0
M  V30 48 H 10.774462 6.837420 -11.673837 0
M  V30 49 H 9.125190 7.373404 -11.472497 0
M  V30 50 H 10.915836 6.180346 -9.304714 0
M  V30 51 H 10.324097 7.827353 -9.426568 0
M  V30 52 H 7.990328 6.273722 -6.973202 0
M  V30 53 H 9.687078 5.900724 -6.994071 0
M  V30 54 H 8.718215 8.723052 -7.703237 0
M  V30 55 H 8.692757 8.227206 -6.042137 0
M  V30 56 H 11.086459 6.070856 -5.493099 0
M  V30 57 H 11.886290 5.993649 -3.172737 0
M  V30 58 H 12.448005 8.095352 -1.964984 0
M  V30 59 H 12.160750 10.282757 -3.096702 0
M  V30 60 H 9.321430 4.312982 -8.971240 0
M  V30 61 H 7.686029 4.661054 -8.535297 0
M  V30 62 H 7.286736 5.593460 -10.878564 0
M  V30 63 H 7.694108 3.902302 -10.902021 0
M  V30 64 H 8.083208 6.955534 -9.189031 0
M  V30 END ATOM
M  V30 BEGIN BOND
M  V30 1 2 2 1
M  V30 2 1 3 2
M  V30 3 1 4 3
M  V30 4 1 5 4
M  V30 5 1 6 5
M  V30 6 2 7 6
M  V30 7 1 8 7
M  V30 8 2 9 8
M  V30 9 2 10 5
M  V30 10 1 10 9
M  V30 11 1 11 9
M  V30 12 1 12 11
M  V30 13 1 13 12
M  V30 14 1 14 12
M  V30 15 1 15 8
M  V30 16 1 15 12
M  V30 17 1 16 4
M  V30 18 2 17 16
M  V30 19 1 18 17
M  V30 20 2 19 18
M  V30 21 1 20 19
M  V30 22 1 21 16
M  V30 23 2 21 20
M  V30 24 1 22 2
M  V30 25 1 23 22
M  V30 26 1 24 23
M  V30 27 1 25 24
M  V30 28 1 26 25
M  V30 29 1 27 26
M  V30 30 1 28 27
M  V30 31 1 29 28
M  V30 32 2 30 29
M  V30 33 1 31 30
M  V30 34 2 32 31
M  V30 35 1 33 32
M  V30 36 1 34 29
M  V30 37 2 34 33
M  V30 38 1 35 34
M  V30 39 1 36 25
M  V30 40 1 37 22
M  V30 41 1 37 36
M  V30 42 1 38 3
M  V30 43 1 4 39 CFG=3
M  V30 44 1 40 6
M  V30 45 1 41 7
M  V30 46 1 42 10
M  V30 47 1 43 17
M  V30 48 1 44 18
M  V30 49 1 45 19
M  V30 50 1 46 20
M  V30 51 1 22 47 CFG=3
M  V30 52 1 48 23
M  V30 53 1 49 23
M  V30 54 1 50 24
M  V30 55 1 51 24
M  V30 56 1 52 26
M  V30 57 1 53 26
M  V30 58 1 54 27
M  V30 59 1 55 27
M  V30 60 1 56 30
M  V30 61 1 57 31
M  V30 62 1 58 32
M  V30 63 1 59 33
M  V30 64 1 60 36
M  V30 65 1 61 36
M  V30 66 1 62 37
M  V30 67 1 63 37
M  V30 68 1 25 64 CFG=3
M  V30 END BOND
M  V30 END CTAB
M  END
>  <b_m_subgroup_collapsed>  (335) 
0

>  <r_i_docking_score>  (335) 
-8.4886953613146492

>  <s_m_subgroup_title>  (335) 
glide-dock_SP_D22_pv

>  <s_m_subgroupid>  (335) 
glide-dock_SP_D22_pv

>  <Molecule ChEMBL ID>  (335) 
CHEMBL5777100

>  <Standard Type>  (335) 
Ki

>  <Standard Value>  (335) 
55.0

>  <label>  (335) 
1

$$$$
CHEMBL2207492
     RDKit          3D

  0  0  0  0  0  0  0  0  0  0999 V3000
M  V30 BEGIN CTAB
M  V30 COUNTS 40 42 0 0 1
M  V30 BEGIN ATOM
M  V30 1 C 7.544159 4.397682 -12.731454 0
M  V30 2 C 7.592127 5.509207 -11.676672 0
M  V30 3 C 8.300552 5.073490 -10.382783 0
M  V30 4 N 8.486293 6.172052 -9.390590 0 CFG=2 CHG=1
M  V30 5 C 9.612370 7.082697 -9.764069 0
M  V30 6 C 9.990631 8.092245 -8.661651 0
M  V30 7 C 10.276465 7.379537 -7.322781 0 CFG=1
M  V30 8 N 10.759483 8.263932 -6.258692 0
M  V30 9 C 10.813081 9.607614 -6.264556 0
M  V30 10 N 11.275541 10.228260 -5.189146 0
M  V30 11 C 11.592093 9.162649 -4.379051 0
M  V30 12 C 12.128795 9.149169 -3.074777 0
M  V30 13 C 12.365583 7.928071 -2.415984 0
M  V30 14 C 12.071775 6.707062 -3.054815 0
M  V30 15 C 11.536282 6.700376 -4.359910 0
M  V30 16 C 11.287993 7.918960 -5.014039 0
M  V30 17 C 8.977621 6.660073 -6.943432 0
M  V30 18 C 8.619932 5.612260 -8.015115 0
M  V30 19 H 7.068594 4.752749 -13.646953 0
M  V30 20 H 8.542674 4.043073 -12.985664 0
M  V30 21 H 6.962365 3.547478 -12.374283 0
M  V30 22 H 6.564688 5.787704 -11.449210 0
M  V30 23 H 8.077506 6.383853 -12.108206 0
M  V30 24 H 9.267483 4.626066 -10.613070 0
M  V30 25 H 7.704102 4.272971 -9.942192 0
M  V30 26 H 9.346849 7.629496 -10.669739 0
M  V30 27 H 10.503162 6.505698 -10.006241 0
M  V30 28 H 9.179223 8.812592 -8.541771 0
M  V30 29 H 10.866012 8.658270 -8.984840 0
M  V30 30 H 11.061306 6.637516 -7.479943 0
M  V30 31 H 10.468516 10.170498 -7.107512 0
M  V30 32 H 12.356398 10.083828 -2.582299 0
M  V30 33 H 12.773086 7.931616 -1.415633 0
M  V30 34 H 12.249157 5.772020 -2.541503 0
M  V30 35 H 11.298785 5.772422 -4.851410 0
M  V30 36 H 9.084081 6.172310 -5.975406 0
M  V30 37 H 8.162390 7.377645 -6.830290 0
M  V30 38 H 7.686050 5.123664 -7.740045 0
M  V30 39 H 9.388295 4.837885 -8.024156 0
M  V30 40 H 7.628536 6.732734 -9.404792 0
M  V30 END ATOM
M  V30 BEGIN BOND
M  V30 1 1 2 1
M  V30 2 1 3 2
M  V30 3 1 4 3
M  V30 4 1 5 4
M  V30 5 1 6 5
M  V30 6 1 7 6
M  V30 7 1 8 7
M  V30 8 1 9 8
M  V30 9 2 10 9
M  V30 10 1 11 10
M  V30 11 2 12 11
M  V30 12 1 13 12
M  V30 13 2 14 13
M  V30 14 1 15 14
M  V30 15 1 16 8
M  V30 16 1 16 11
M  V30 17 2 16 15
M  V30 18 1 17 7
M  V30 19 1 18 4
M  V30 20 1 18 17
M  V30 21 1 19 1
M  V30 22 1 20 1
M  V30 23 1 21 1
M  V30 24 1 22 2
M  V30 25 1 23 2
M  V30 26 1 24 3
M  V30 27 1 25 3
M  V30 28 1 26 5
M  V30 29 1 27 5
M  V30 30 1 28 6
M  V30 31 1 29 6
M  V30 32 1 7 30 CFG=3
M  V30 33 1 31 9
M  V30 34 1 32 12
M  V30 35 1 33 13
M  V30 36 1 34 14
M  V30 37 1 35 15
M  V30 38 1 36 17
M  V30 39 1 37 17
M  V30 40 1 38 18
M  V30 41 1 39 18
M  V30 42 1 4 40 CFG=1
M  V30 END BOND
M  V30 END CTAB
M  END
>  <b_m_subgroup_collapsed>  (336) 
0

>  <r_i_docking_score>  (336) 
-8.4885461943079292

>  <s_m_subgroup_title>  (336) 
glide-dock_SP_D22_pv

>  <s_m_subgroupid>  (336) 
glide-dock_SP_D22_pv

>  <Molecule ChEMBL ID>  (336) 
CHEMBL2207492

>  <Standard Type>  (336) 
Ki

>  <Standard Value>  (336) 
10820.0

>  <label>  (336) 
0

$$$$
CHEMBL5646837
     RDKit          3D

  0  0  0  0  0  0  0  0  0  0999 V3000
M  V30 BEGIN CTAB
M  V30 COUNTS 78 81 0 0 1
M  V30 BEGIN ATOM
M  V30 1 C 5.010425 1.445997 -13.197763 0
M  V30 2 C 5.208099 2.581674 -12.511384 0
M  V30 3 C 5.788302 3.850501 -13.101317 0
M  V30 4 N 7.212385 3.922249 -12.712535 0 CFG=2 CHG=1
M  V30 5 C 7.582373 5.002398 -11.779889 0
M  V30 6 C 9.106074 5.147133 -11.893384 0 CFG=2
M  V30 7 O 9.444868 6.518073 -12.071877 0
M  V30 8 C 9.701166 7.388617 -11.054699 0
M  V30 9 O 9.912909 8.572299 -11.276697 0
M  V30 10 N 9.684831 6.775934 -9.807648 0
M  V30 11 C 10.141135 7.279746 -8.568661 0
M  V30 12 C 10.888168 8.473238 -8.406002 0
M  V30 13 C 11.360703 8.838561 -7.129706 0
M  V30 14 C 11.109400 8.010465 -6.012320 0
M  V30 15 C 11.612733 8.336440 -4.681752 0
M  V30 16 C 11.612837 9.675659 -4.193969 0
M  V30 17 C 12.047103 9.772161 -2.900780 0
M  V30 18 S 12.485832 8.226480 -2.245812 0
M  V30 19 C 12.081828 7.448220 -3.744446 0
M  V30 20 C 10.354979 6.835927 -6.183253 0
M  V30 21 C 9.867605 6.477499 -7.447752 0
M  V30 22 C 9.513567 4.328949 -13.123755 0
M  V30 23 C 8.200974 3.934344 -13.809219 0 CFG=1
M  V30 24 C 8.258895 2.580568 -14.548114 0
M  V30 25 N 9.368102 2.515182 -15.487870 0
M  V30 26 C 9.272811 2.243357 -16.794483 0
M  V30 27 O 8.209101 2.170328 -17.410849 0
M  V30 28 C 10.594168 1.986022 -17.452538 0
M  V30 29 C 11.596327 2.973557 -17.378290 0
M  V30 30 C 12.849142 2.760545 -17.974348 0
M  V30 31 C 13.925013 3.822490 -17.860825 0
M  V30 32 C 13.828532 4.871454 -18.976231 0
M  V30 33 C 14.850179 6.003611 -18.810368 0
M  V30 34 F 16.092316 5.526258 -18.888739 0
M  V30 35 C 13.103697 1.550469 -18.646904 0
M  V30 36 C 12.122495 0.528848 -18.709085 0
M  V30 37 O 12.369267 -0.704296 -19.277643 0
M  V30 38 C 13.657728 -0.967857 -19.818443 0
M  V30 39 C 10.845483 0.763711 -18.125307 0
M  V30 40 O 9.847233 -0.188235 -18.111492 0
M  V30 41 C 9.571107 -0.868470 -19.326674 0
M  V30 42 H 5.263704 1.364601 -14.245060 0
M  V30 43 H 4.596085 0.569628 -12.723149 0
M  V30 44 H 4.953601 2.609907 -11.459779 0
M  V30 45 H 5.677630 3.840421 -14.185931 0
M  V30 46 H 5.232153 4.711686 -12.735236 0
M  V30 47 H 7.083399 5.931096 -12.068203 0
M  V30 48 H 7.285908 4.766710 -10.757836 0
M  V30 49 H 9.606327 4.704278 -11.032516 0
M  V30 50 H 9.331690 5.833994 -9.792544 0
M  V30 51 H 11.128611 9.109195 -9.243733 0
M  V30 52 H 11.947055 9.739923 -7.020944 0
M  V30 53 H 11.265541 10.511300 -4.783923 0
M  V30 54 H 12.086072 10.650589 -2.274901 0
M  V30 55 H 12.176069 6.377085 -3.834332 0
M  V30 56 H 10.143005 6.188212 -5.344910 0
M  V30 57 H 9.298110 5.565735 -7.555926 0
M  V30 58 H 10.187360 4.867546 -13.792091 0
M  V30 59 H 10.041534 3.436715 -12.785951 0
M  V30 60 H 7.934443 4.729792 -14.506701 0
M  V30 61 H 8.396194 1.759208 -13.846295 0
M  V30 62 H 7.310316 2.389850 -15.054440 0
M  V30 63 H 10.299438 2.541023 -15.100550 0
M  V30 64 H 11.406171 3.905001 -16.863953 0
M  V30 65 H 13.842636 4.303916 -16.886610 0
M  V30 66 H 14.902530 3.343293 -17.874443 0
M  V30 67 H 13.964962 4.390589 -19.946157 0
M  V30 68 H 12.825588 5.301838 -18.981548 0
M  V30 69 H 14.741455 6.752492 -19.595833 0
M  V30 70 H 14.747948 6.504529 -17.846045 0
M  V30 71 H 14.083254 1.416126 -19.080652 0
M  V30 72 H 13.686569 -1.987956 -20.199848 0
M  V30 73 H 13.885836 -0.297615 -20.648354 0
M  V30 74 H 14.437929 -0.883330 -19.061651 0
M  V30 75 H 8.502430 -1.068790 -19.389750 0
M  V30 76 H 9.847653 -0.288503 -20.208242 0
M  V30 77 H 10.084332 -1.827645 -19.354143 0
M  V30 78 H 7.393895 3.067676 -12.206373 0
M  V30 END ATOM
M  V30 BEGIN BOND
M  V30 1 2 2 1
M  V30 2 1 3 2
M  V30 3 1 4 3
M  V30 4 1 5 4
M  V30 5 1 6 5
M  V30 6 1 7 6
M  V30 7 1 8 7
M  V30 8 2 9 8
M  V30 9 1 10 8
M  V30 10 1 11 10
M  V30 11 1 12 11
M  V30 12 2 13 12
M  V30 13 1 14 13
M  V30 14 1 15 14
M  V30 15 1 16 15
M  V30 16 2 17 16
M  V30 17 1 18 17
M  V30 18 2 19 15
M  V30 19 1 19 18
M  V30 20 2 20 14
M  V30 21 2 21 11
M  V30 22 1 21 20
M  V30 23 1 22 6
M  V30 24 1 23 4
M  V30 25 1 23 22
M  V30 26 1 24 23
M  V30 27 1 25 24
M  V30 28 1 26 25
M  V30 29 2 27 26
M  V30 30 1 28 26
M  V30 31 2 29 28
M  V30 32 1 30 29
M  V30 33 1 31 30
M  V30 34 1 32 31
M  V30 35 1 33 32
M  V30 36 1 34 33
M  V30 37 2 35 30
M  V30 38 1 36 35
M  V30 39 1 37 36
M  V30 40 1 38 37
M  V30 41 1 39 28
M  V30 42 2 39 36
M  V30 43 1 40 39
M  V30 44 1 41 40
M  V30 45 1 42 1
M  V30 46 1 43 1
M  V30 47 1 44 2
M  V30 48 1 45 3
M  V30 49 1 46 3
M  V30 50 1 47 5
M  V30 51 1 48 5
M  V30 52 1 6 49 CFG=1
M  V30 53 1 50 10
M  V30 54 1 51 12
M  V30 55 1 52 13
M  V30 56 1 53 16
M  V30 57 1 54 17
M  V30 58 1 55 19
M  V30 59 1 56 20
M  V30 60 1 57 21
M  V30 61 1 58 22
M  V30 62 1 59 22
M  V30 63 1 23 60 CFG=3
M  V30 64 1 61 24
M  V30 65 1 62 24
M  V30 66 1 63 25
M  V30 67 1 64 29
M  V30 68 1 65 31
M  V30 69 1 66 31
M  V30 70 1 67 32
M  V30 71 1 68 32
M  V30 72 1 69 33
M  V30 73 1 70 33
M  V30 74 1 71 35
M  V30 75 1 72 38
M  V30 76 1 73 38
M  V30 77 1 74 38
M  V30 78 1 75 41
M  V30 79 1 76 41
M  V30 80 1 77 41
M  V30 81 1 4 78 CFG=1
M  V30 END BOND
M  V30 END CTAB
M  END
>  <b_m_subgroup_collapsed>  (337) 
0

>  <r_i_docking_score>  (337) 
-8.4884385743386197

>  <s_m_subgroup_title>  (337) 
glide-dock_SP_D22_pv

>  <s_m_subgroupid>  (337) 
glide-dock_SP_D22_pv

>  <Molecule ChEMBL ID>  (337) 
CHEMBL5646837

>  <Standard Type>  (337) 
Ki

>  <Standard Value>  (337) 
28.8

>  <label>  (337) 
1

$$$$
CHEMBL514098
     RDKit          3D

  0  0  0  0  0  0  0  0  0  0999 V3000
M  V30 BEGIN CTAB
M  V30 COUNTS 73 76 0 0 1
M  V30 BEGIN ATOM
M  V30 1 C 13.040237 2.614723 -18.185694 0
M  V30 2 O 13.245667 3.775106 -17.393167 0
M  V30 3 C 12.486077 3.921943 -16.252035 0
M  V30 4 C 12.773902 5.030886 -15.429497 0
M  V30 5 C 12.060488 5.245954 -14.235253 0
M  V30 6 C 11.039851 4.354407 -13.854689 0
M  V30 7 C 10.730946 3.244704 -14.666593 0
M  V30 8 C 9.622137 2.290947 -14.263961 0
M  V30 9 C 8.425815 2.341651 -15.226376 0
M  V30 10 C 7.260556 1.494369 -14.746872 0
M  V30 11 C 7.127630 0.168645 -15.202359 0
M  V30 12 C 6.045017 -0.622614 -14.783638 0
M  V30 13 C 5.087613 -0.088797 -13.900063 0
M  V30 14 C 5.229017 1.224352 -13.422029 0
M  V30 15 C 6.308013 2.031170 -13.851727 0
M  V30 16 O 6.486272 3.337229 -13.462086 0
M  V30 17 C 5.587210 3.910472 -12.527976 0
M  V30 18 C 6.090358 5.335952 -12.302722 0
M  V30 19 C 7.461792 5.364121 -11.617069 0
M  V30 20 C 8.286187 6.608775 -11.957201 0
M  V30 21 C 9.560916 6.724395 -11.114202 0
M  V30 22 N 9.285987 7.245645 -9.747020 0 CHG=1
M  V30 23 C 9.398946 6.200930 -8.687158 0
M  V30 24 C 9.130741 6.775709 -7.284801 0
M  V30 25 N 10.007604 7.917934 -7.055448 0
M  V30 26 C 10.709556 8.087262 -5.845918 0
M  V30 27 C 11.249660 6.974070 -5.157104 0
M  V30 28 C 11.922174 7.130091 -3.928403 0
M  V30 29 C 12.085903 8.410801 -3.375012 0
M  V30 30 F 12.728230 8.565564 -2.196892 0
M  V30 31 C 11.569692 9.531687 -4.049354 0
M  V30 32 C 10.887892 9.372946 -5.273874 0
M  V30 33 C 9.899167 8.991103 -8.027933 0
M  V30 34 C 10.106141 8.452274 -9.450342 0
M  V30 35 C 11.455967 3.029181 -15.858537 0
M  V30 36 H 13.753717 2.608434 -19.009132 0
M  V30 37 H 13.197921 1.701355 -17.608313 0
M  V30 38 H 12.037298 2.601705 -18.616497 0
M  V30 39 H 13.559673 5.716269 -15.713359 0
M  V30 40 H 12.301972 6.097045 -13.612930 0
M  V30 41 H 10.496808 4.520038 -12.937971 0
M  V30 42 H 9.287501 2.539115 -13.254941 0
M  V30 43 H 10.027473 1.280553 -14.222572 0
M  V30 44 H 8.726980 2.012186 -16.223715 0
M  V30 45 H 8.086377 3.371882 -15.338268 0
M  V30 46 H 7.856830 -0.248547 -15.884211 0
M  V30 47 H 5.947792 -1.637978 -15.140966 0
M  V30 48 H 4.243008 -0.687865 -13.604486 0
M  V30 49 H 4.482271 1.606842 -12.744962 0
M  V30 50 H 4.576903 3.932937 -12.939481 0
M  V30 51 H 5.574332 3.356090 -11.588315 0
M  V30 52 H 6.143663 5.833617 -13.268448 0
M  V30 53 H 5.377248 5.905302 -11.704158 0
M  V30 54 H 7.289412 5.311635 -10.549184 0
M  V30 55 H 8.045415 4.479049 -11.874241 0
M  V30 56 H 8.558607 6.557175 -13.011582 0
M  V30 57 H 7.686774 7.510701 -11.847859 0
M  V30 58 H 10.085550 5.770777 -11.068765 0
M  V30 59 H 10.237100 7.400033 -11.642277 0
M  V30 60 H 8.708380 5.377749 -8.877878 0
M  V30 61 H 10.404418 5.775403 -8.712365 0
M  V30 62 H 8.088867 7.104225 -7.206372 0
M  V30 63 H 9.253428 6.001335 -6.535512 0
M  V30 64 H 11.166372 5.980312 -5.565272 0
M  V30 65 H 12.314315 6.263899 -3.413260 0
M  V30 66 H 11.685489 10.512552 -3.613325 0
M  V30 67 H 10.485722 10.254091 -5.748909 0
M  V30 68 H 8.915507 9.448602 -7.929101 0
M  V30 69 H 10.646116 9.762838 -7.844855 0
M  V30 70 H 11.159096 8.194842 -9.576231 0
M  V30 71 H 9.881190 9.237576 -10.173392 0
M  V30 72 H 11.208061 2.167136 -16.457146 0
M  V30 73 H 8.310567 7.538810 -9.750740 0
M  V30 END ATOM
M  V30 BEGIN BOND
M  V30 1 1 2 1
M  V30 2 1 3 2
M  V30 3 2 4 3
M  V30 4 1 5 4
M  V30 5 2 6 5
M  V30 6 1 7 6
M  V30 7 1 8 7
M  V30 8 1 9 8
M  V30 9 1 10 9
M  V30 10 2 11 10
M  V30 11 1 12 11
M  V30 12 2 13 12
M  V30 13 1 14 13
M  V30 14 1 15 10
M  V30 15 2 15 14
M  V30 16 1 16 15
M  V30 17 1 17 16
M  V30 18 1 18 17
M  V30 19 1 19 18
M  V30 20 1 20 19
M  V30 21 1 21 20
M  V30 22 1 22 21
M  V30 23 1 23 22
M  V30 24 1 24 23
M  V30 25 1 25 24
M  V30 26 1 26 25
M  V30 27 1 27 26
M  V30 28 2 28 27
M  V30 29 1 29 28
M  V30 30 1 30 29
M  V30 31 2 31 29
M  V30 32 2 32 26
M  V30 33 1 32 31
M  V30 34 1 33 25
M  V30 35 1 34 22
M  V30 36 1 34 33
M  V30 37 1 35 3
M  V30 38 2 35 7
M  V30 39 1 36 1
M  V30 40 1 37 1
M  V30 41 1 38 1
M  V30 42 1 39 4
M  V30 43 1 40 5
M  V30 44 1 41 6
M  V30 45 1 42 8
M  V30 46 1 43 8
M  V30 47 1 44 9
M  V30 48 1 45 9
M  V30 49 1 46 11
M  V30 50 1 47 12
M  V30 51 1 48 13
M  V30 52 1 49 14
M  V30 53 1 50 17
M  V30 54 1 51 17
M  V30 55 1 52 18
M  V30 56 1 53 18
M  V30 57 1 54 19
M  V30 58 1 55 19
M  V30 59 1 56 20
M  V30 60 1 57 20
M  V30 61 1 58 21
M  V30 62 1 59 21
M  V30 63 1 60 23
M  V30 64 1 61 23
M  V30 65 1 62 24
M  V30 66 1 63 24
M  V30 67 1 64 27
M  V30 68 1 65 28
M  V30 69 1 66 31
M  V30 70 1 67 32
M  V30 71 1 68 33
M  V30 72 1 69 33
M  V30 73 1 70 34
M  V30 74 1 71 34
M  V30 75 1 72 35
M  V30 76 1 73 22
M  V30 END BOND
M  V30 END CTAB
M  END
>  <b_m_subgroup_collapsed>  (338) 
0

>  <r_i_docking_score>  (338) 
-8.4884307041013294

>  <s_m_subgroup_title>  (338) 
glide-dock_SP_D22_pv

>  <s_m_subgroupid>  (338) 
glide-dock_SP_D22_pv

>  <Molecule ChEMBL ID>  (338) 
CHEMBL514098

>  <Standard Type>  (338) 
Ki

>  <Standard Value>  (338) 
847000.0

>  <label>  (338) 
0

$$$$
CHEMBL4086894
     RDKit          3D

  0  0  0  0  0  0  0  0  0  0999 V3000
M  V30 BEGIN CTAB
M  V30 COUNTS 66 68 0 0 1
M  V30 BEGIN ATOM
M  V30 1 O 6.307617 4.982314 -12.892256 0
M  V30 2 C 7.172715 4.259727 -13.384081 0
M  V30 3 C 8.608786 4.796731 -13.493900 0
M  V30 4 C 9.253323 5.070052 -12.124454 0
M  V30 5 C 8.875586 6.438198 -11.533384 0
M  V30 6 N 9.526364 6.667159 -10.218076 0 CFG=2 CHG=1
M  V30 7 C 8.817711 5.993164 -9.098404 0
M  V30 8 C 9.529128 6.209573 -7.751329 0
M  V30 9 C 9.829118 7.692970 -7.418111 0 CFG=1
M  V30 10 O 8.594054 8.356798 -7.262322 0
M  V30 11 C 10.648020 7.891225 -6.134648 0
M  V30 12 C 10.886597 9.204462 -5.659001 0
M  V30 13 C 11.488765 9.419385 -4.403502 0
M  V30 14 C 11.867387 8.324613 -3.606467 0
M  V30 15 Cl 12.486051 8.572330 -2.018183 0
M  V30 16 C 11.687107 7.017187 -4.087089 0
M  V30 17 C 11.094460 6.804855 -5.344232 0
M  V30 18 C 10.539915 8.316295 -8.640121 0
M  V30 19 C 9.754014 8.109453 -9.946404 0
M  V30 20 C 6.886130 2.873227 -13.846878 0
M  V30 21 C 7.727787 2.184835 -14.752365 0
M  V30 22 C 7.414461 0.876942 -15.159552 0
M  V30 23 C 6.254297 0.236514 -14.699541 0
M  V30 24 O 6.033832 -1.027866 -15.186102 0
M  V30 25 C 4.762147 -1.637515 -15.036678 0
M  V30 26 C 3.705322 -1.021607 -15.963371 0
M  V30 27 S 3.943209 -1.501881 -17.699755 0
M  V30 28 S 5.656161 -0.591000 -18.327457 0
M  V30 29 C 5.100866 0.985887 -19.025045 0
M  V30 30 C 4.189755 0.799414 -20.246891 0
M  V30 31 O 4.886065 0.174096 -21.304510 0
M  V30 32 C 5.401512 0.921256 -13.797595 0
M  V30 33 C 5.712110 2.230326 -13.386865 0
M  V30 34 H 9.253021 4.096702 -14.012654 0
M  V30 35 H 8.602700 5.704103 -14.098715 0
M  V30 36 H 8.994761 4.263544 -11.438041 0
M  V30 37 H 10.334922 5.020759 -12.244347 0
M  V30 38 H 9.198234 7.205515 -12.239754 0
M  V30 39 H 7.793951 6.551154 -11.445728 0
M  V30 40 H 7.785866 6.336954 -9.047167 0
M  V30 41 H 8.752987 4.923977 -9.291941 0
M  V30 42 H 8.927947 5.772231 -6.954196 0
M  V30 43 H 10.466728 5.649999 -7.788834 0
M  V30 44 H 7.871338 7.824690 -7.586854 0
M  V30 45 H 10.551578 10.057452 -6.232032 0
M  V30 46 H 11.619545 10.423537 -4.027799 0
M  V30 47 H 11.971606 6.171906 -3.477272 0
M  V30 48 H 10.941230 5.782826 -5.647943 0
M  V30 49 H 10.699829 9.380415 -8.485579 0
M  V30 50 H 11.534645 7.877236 -8.744465 0
M  V30 51 H 10.314775 8.551678 -10.769848 0
M  V30 52 H 8.796194 8.635036 -9.908875 0
M  V30 53 H 8.614917 2.627056 -15.173452 0
M  V30 54 H 8.064863 0.360893 -15.852182 0
M  V30 55 H 4.438944 -1.614887 -13.998170 0
M  V30 56 H 4.886213 -2.689634 -15.289876 0
M  V30 57 H 3.685865 0.060469 -15.847749 0
M  V30 58 H 2.720441 -1.382478 -15.669991 0
M  V30 59 H 5.979557 1.566030 -19.302528 0
M  V30 60 H 4.580280 1.542268 -18.246496 0
M  V30 61 H 3.836498 1.765619 -20.601810 0
M  V30 62 H 3.309055 0.210535 -19.987219 0
M  V30 63 H 4.252757 -0.225016 -21.891642 0
M  V30 64 H 4.495687 0.474380 -13.425038 0
M  V30 65 H 5.044050 2.736142 -12.703850 0
M  V30 66 H 10.441636 6.248776 -10.277974 0
M  V30 END ATOM
M  V30 BEGIN BOND
M  V30 1 2 2 1
M  V30 2 1 3 2
M  V30 3 1 4 3
M  V30 4 1 5 4
M  V30 5 1 6 5
M  V30 6 1 7 6
M  V30 7 1 8 7
M  V30 8 1 9 8
M  V30 9 1 9 10 CFG=1
M  V30 10 1 11 9
M  V30 11 1 12 11
M  V30 12 2 13 12
M  V30 13 1 14 13
M  V30 14 1 15 14
M  V30 15 2 16 14
M  V30 16 2 17 11
M  V30 17 1 17 16
M  V30 18 1 18 9
M  V30 19 1 19 6
M  V30 20 1 19 18
M  V30 21 1 20 2
M  V30 22 1 21 20
M  V30 23 2 22 21
M  V30 24 1 23 22
M  V30 25 1 24 23
M  V30 26 1 25 24
M  V30 27 1 26 25
M  V30 28 1 27 26
M  V30 29 1 28 27
M  V30 30 1 29 28
M  V30 31 1 30 29
M  V30 32 1 31 30
M  V30 33 2 32 23
M  V30 34 2 33 20
M  V30 35 1 33 32
M  V30 36 1 34 3
M  V30 37 1 35 3
M  V30 38 1 36 4
M  V30 39 1 37 4
M  V30 40 1 38 5
M  V30 41 1 39 5
M  V30 42 1 40 7
M  V30 43 1 41 7
M  V30 44 1 42 8
M  V30 45 1 43 8
M  V30 46 1 44 10
M  V30 47 1 45 12
M  V30 48 1 46 13
M  V30 49 1 47 16
M  V30 50 1 48 17
M  V30 51 1 49 18
M  V30 52 1 50 18
M  V30 53 1 51 19
M  V30 54 1 52 19
M  V30 55 1 53 21
M  V30 56 1 54 22
M  V30 57 1 55 25
M  V30 58 1 56 25
M  V30 59 1 57 26
M  V30 60 1 58 26
M  V30 61 1 59 29
M  V30 62 1 60 29
M  V30 63 1 61 30
M  V30 64 1 62 30
M  V30 65 1 63 31
M  V30 66 1 64 32
M  V30 67 1 65 33
M  V30 68 1 6 66 CFG=3
M  V30 END BOND
M  V30 END CTAB
M  END
>  <b_m_subgroup_collapsed>  (339) 
0

>  <r_i_docking_score>  (339) 
-8.4881506342491306

>  <s_m_subgroup_title>  (339) 
glide-dock_SP_D22_pv

>  <s_m_subgroupid>  (339) 
glide-dock_SP_D22_pv

>  <Molecule ChEMBL ID>  (339) 
CHEMBL4086894

>  <Standard Type>  (339) 
Ki

>  <Standard Value>  (339) 
73.0

>  <label>  (339) 
1

$$$$
CHEMBL5830831
     RDKit          3D

  0  0  0  0  0  0  0  0  0  0999 V3000
M  V30 BEGIN CTAB
M  V30 COUNTS 65 68 0 0 1
M  V30 BEGIN ATOM
M  V30 1 C 6.721373 3.360655 -13.560262 0
M  V30 2 N 7.824102 4.172696 -14.067011 0
M  V30 3 C 7.865455 5.490044 -13.413359 0
M  V30 4 C 8.636981 5.629560 -12.078962 0 CFG=1
M  V30 5 C 9.022820 7.101389 -11.847908 0
M  V30 6 C 9.814145 7.288923 -10.555157 0
M  V30 7 N 9.093178 6.757507 -9.374060 0 CFG=2 CHG=1
M  V30 8 C 9.933842 6.925932 -8.165293 0
M  V30 9 C 9.143633 6.921523 -6.850986 0
M  V30 10 O 10.052402 6.572273 -5.817986 0
M  V30 11 C 10.885518 7.515383 -5.268917 0
M  V30 12 C 11.686108 7.084776 -4.193964 0
M  V30 13 C 12.474150 8.000575 -3.479160 0
M  V30 14 C 12.478001 9.355117 -3.852280 0
M  V30 15 C 11.696170 9.790676 -4.939996 0
M  V30 16 C 10.902150 8.878106 -5.649795 0
M  V30 17 C 8.665405 5.345860 -9.571828 0
M  V30 18 C 7.835104 5.183595 -10.852954 0
M  V30 19 C 9.106018 3.454623 -14.211203 0 CFG=2
M  V30 20 C 10.212132 4.339428 -14.789821 0
M  V30 21 C 11.381520 4.589780 -14.041055 0
M  V30 22 C 12.400477 5.403321 -14.571397 0
M  V30 23 C 12.269316 5.963208 -15.854705 0
M  V30 24 Cl 13.519278 6.964622 -16.492249 0
M  V30 25 C 11.112438 5.709061 -16.612921 0
M  V30 26 C 10.085962 4.904712 -16.079538 0
M  V30 27 C 9.039912 2.175505 -15.055279 0
M  V30 28 C 9.871886 1.084564 -14.731212 0
M  V30 29 C 9.868229 -0.039412 -15.576908 0
M  V30 30 C 9.043804 -0.034338 -16.714182 0
M  V30 31 C 8.235851 1.090642 -16.948986 0
M  V30 32 N 8.234973 2.172605 -16.146667 0
M  V30 33 H 5.788156 3.927679 -13.580342 0
M  V30 34 H 6.561003 2.475657 -14.175980 0
M  V30 35 H 6.884962 3.022053 -12.543414 0
M  V30 36 H 8.322867 6.170927 -14.130624 0
M  V30 37 H 6.848757 5.861845 -13.281235 0
M  V30 38 H 9.560546 5.056905 -12.109407 0
M  V30 39 H 9.655993 7.465803 -12.647033 0
M  V30 40 H 8.129908 7.729066 -11.843924 0
M  V30 41 H 10.017929 8.351771 -10.413968 0
M  V30 42 H 10.781715 6.791740 -10.648252 0
M  V30 43 H 10.681602 6.131149 -8.151612 0
M  V30 44 H 10.497854 7.856481 -8.228055 0
M  V30 45 H 8.617072 7.858258 -6.667076 0
M  V30 46 H 8.372250 6.152889 -6.856189 0
M  V30 47 H 11.662012 6.048630 -3.892368 0
M  V30 48 H 13.066842 7.667374 -2.643044 0
M  V30 49 H 13.075789 10.065469 -3.303114 0
M  V30 50 H 11.685649 10.830663 -5.230253 0
M  V30 51 H 10.294412 9.257951 -6.457281 0
M  V30 52 H 8.085806 5.003511 -8.717471 0
M  V30 53 H 9.540836 4.695834 -9.624546 0
M  V30 54 H 6.915614 5.771795 -10.786615 0
M  V30 55 H 7.536445 4.143974 -10.937498 0
M  V30 56 H 9.405938 3.143430 -13.209274 0
M  V30 57 H 11.498383 4.171723 -13.051881 0
M  V30 58 H 13.285829 5.597713 -13.989596 0
M  V30 59 H 11.007213 6.139130 -17.598026 0
M  V30 60 H 9.200025 4.721626 -16.668373 0
M  V30 61 H 10.508931 1.118094 -13.857958 0
M  V30 62 H 10.486116 -0.896797 -15.362385 0
M  V30 63 H 9.012453 -0.883581 -17.380224 0
M  V30 64 H 7.580476 1.127077 -17.806528 0
M  V30 65 H 8.242649 7.308500 -9.282598 0
M  V30 END ATOM
M  V30 BEGIN BOND
M  V30 1 1 2 1
M  V30 2 1 3 2
M  V30 3 1 4 3
M  V30 4 1 5 4
M  V30 5 1 6 5
M  V30 6 1 7 6
M  V30 7 1 8 7
M  V30 8 1 9 8
M  V30 9 1 10 9
M  V30 10 1 11 10
M  V30 11 2 12 11
M  V30 12 1 13 12
M  V30 13 2 14 13
M  V30 14 1 15 14
M  V30 15 1 16 11
M  V30 16 2 16 15
M  V30 17 1 17 7
M  V30 18 1 18 4
M  V30 19 1 18 17
M  V30 20 1 19 2
M  V30 21 1 20 19
M  V30 22 1 21 20
M  V30 23 2 22 21
M  V30 24 1 23 22
M  V30 25 1 24 23
M  V30 26 2 25 23
M  V30 27 2 26 20
M  V30 28 1 26 25
M  V30 29 1 27 19
M  V30 30 2 28 27
M  V30 31 1 29 28
M  V30 32 2 30 29
M  V30 33 1 31 30
M  V30 34 1 32 27
M  V30 35 2 32 31
M  V30 36 1 33 1
M  V30 37 1 34 1
M  V30 38 1 35 1
M  V30 39 1 36 3
M  V30 40 1 37 3
M  V30 41 1 4 38 CFG=3
M  V30 42 1 39 5
M  V30 43 1 40 5
M  V30 44 1 41 6
M  V30 45 1 42 6
M  V30 46 1 43 8
M  V30 47 1 44 8
M  V30 48 1 45 9
M  V30 49 1 46 9
M  V30 50 1 47 12
M  V30 51 1 48 13
M  V30 52 1 49 14
M  V30 53 1 50 15
M  V30 54 1 51 16
M  V30 55 1 52 17
M  V30 56 1 53 17
M  V30 57 1 54 18
M  V30 58 1 55 18
M  V30 59 1 19 56 CFG=1
M  V30 60 1 57 21
M  V30 61 1 58 22
M  V30 62 1 59 25
M  V30 63 1 60 26
M  V30 64 1 61 28
M  V30 65 1 62 29
M  V30 66 1 63 30
M  V30 67 1 64 31
M  V30 68 1 7 65 CFG=1
M  V30 END BOND
M  V30 END CTAB
M  END
>  <b_m_subgroup_collapsed>  (340) 
0

>  <r_i_docking_score>  (340) 
-8.4867382917778595

>  <s_m_subgroup_title>  (340) 
glide-dock_SP_D22_pv

>  <s_m_subgroupid>  (340) 
glide-dock_SP_D22_pv

>  <Molecule ChEMBL ID>  (340) 
CHEMBL5830831

>  <Standard Type>  (340) 
Ki

>  <Standard Value>  (340) 
55.0

>  <label>  (340) 
1

$$$$
CHEMBL5760252
     RDKit          3D

  0  0  0  0  0  0  0  0  0  0999 V3000
M  V30 BEGIN CTAB
M  V30 COUNTS 60 64 0 0 1
M  V30 BEGIN ATOM
M  V30 1 C 11.280850 6.229442 -6.879303 0
M  V30 2 N 11.285607 7.547040 -6.272367 0
M  V30 3 C 11.082999 8.762154 -6.844951 0
M  V30 4 S 10.861603 8.968472 -8.588046 0
M  V30 5 C 9.340589 8.007745 -8.863256 0
M  V30 6 C 9.329911 7.363314 -10.262821 0
M  V30 7 C 8.512933 6.059992 -10.310294 0
M  V30 8 N 8.003829 5.772726 -11.674889 0 CFG=2 CHG=1
M  V30 9 C 6.775120 4.957111 -11.726090 0
M  V30 10 C 6.664173 4.475150 -13.174505 0 CFG=2
M  V30 11 C 6.185678 3.037652 -13.386746 0
M  V30 12 C 7.240043 2.416183 -14.309813 0
M  V30 13 N 8.459559 3.199703 -14.141459 0
M  V30 14 C 9.504688 2.979020 -15.068083 0
M  V30 15 C 9.762341 1.672834 -15.551826 0
M  V30 16 C 10.760943 1.440949 -16.517282 0
M  V30 17 C 11.531060 2.509108 -17.019482 0
M  V30 18 C 12.567651 2.289764 -18.116320 0
M  V30 19 F 12.071048 2.719749 -19.275532 0
M  V30 20 F 13.679358 2.974806 -17.848127 0
M  V30 21 F 12.884809 1.001266 -18.247137 0
M  V30 22 C 11.308573 3.805223 -16.517006 0
M  V30 23 C 10.312952 4.037536 -15.548060 0
M  V30 24 C 8.086991 4.547058 -13.726686 0 CFG=2
M  V30 25 C 8.955947 5.108721 -12.585871 0
M  V30 26 N 11.151130 9.804805 -6.011982 0
M  V30 27 C 11.463813 9.212435 -4.801904 0
M  V30 28 C 11.703061 9.768719 -3.522891 0
M  V30 29 C 12.085948 8.948785 -2.440553 0
M  V30 30 C 12.162063 7.551429 -2.600979 0
M  V30 31 C 11.881071 6.972101 -3.848583 0
M  V30 32 C 11.554448 7.800659 -4.936514 0
M  V30 33 H 12.085396 5.619528 -6.467468 0
M  V30 34 H 11.402532 6.295796 -7.956321 0
M  V30 35 H 10.319881 5.772212 -6.662250 0
M  V30 36 H 9.218879 7.246959 -8.096943 0
M  V30 37 H 8.485928 8.672310 -8.743402 0
M  V30 38 H 8.930493 8.095153 -10.965958 0
M  V30 39 H 10.346865 7.148783 -10.592981 0
M  V30 40 H 9.092159 5.219563 -9.924770 0
M  V30 41 H 7.678567 6.166396 -9.624064 0
M  V30 42 H 6.885095 4.112180 -11.046268 0
M  V30 43 H 5.894193 5.534774 -11.444865 0
M  V30 44 H 6.019764 5.153020 -13.733823 0
M  V30 45 H 6.096344 2.494175 -12.446244 0
M  V30 46 H 5.199718 3.008840 -13.845460 0
M  V30 47 H 7.391693 1.365995 -14.057433 0
M  V30 48 H 6.914907 2.473004 -15.348930 0
M  V30 49 H 9.191343 0.827781 -15.198027 0
M  V30 50 H 10.920401 0.435915 -16.879942 0
M  V30 51 H 11.892949 4.631925 -16.890860 0
M  V30 52 H 10.178280 5.052499 -15.210492 0
M  V30 53 H 8.085640 5.228329 -14.578780 0
M  V30 54 H 9.721585 5.798979 -12.940507 0
M  V30 55 H 9.452373 4.293798 -12.055621 0
M  V30 56 H 11.622249 10.831419 -3.369623 0
M  V30 57 H 12.290483 9.392932 -1.475271 0
M  V30 58 H 12.436588 6.917033 -1.769677 0
M  V30 59 H 11.938167 5.901254 -3.975125 0
M  V30 60 H 7.739658 6.664968 -12.068412 0
M  V30 END ATOM
M  V30 BEGIN BOND
M  V30 1 1 2 1
M  V30 2 1 3 2
M  V30 3 1 4 3
M  V30 4 1 5 4
M  V30 5 1 6 5
M  V30 6 1 7 6
M  V30 7 1 8 7
M  V30 8 1 9 8
M  V30 9 1 10 9
M  V30 10 1 11 10
M  V30 11 1 12 11
M  V30 12 1 13 12
M  V30 13 1 14 13
M  V30 14 1 15 14
M  V30 15 2 16 15
M  V30 16 1 17 16
M  V30 17 1 18 17
M  V30 18 1 19 18
M  V30 19 1 20 18
M  V30 20 1 21 18
M  V30 21 2 22 17
M  V30 22 2 23 14
M  V30 23 1 23 22
M  V30 24 1 24 10
M  V30 25 1 24 13
M  V30 26 1 25 8
M  V30 27 1 25 24
M  V30 28 2 26 3
M  V30 29 1 27 26
M  V30 30 2 28 27
M  V30 31 1 29 28
M  V30 32 2 30 29
M  V30 33 1 31 30
M  V30 34 1 32 2
M  V30 35 1 32 27
M  V30 36 2 32 31
M  V30 37 1 33 1
M  V30 38 1 34 1
M  V30 39 1 35 1
M  V30 40 1 36 5
M  V30 41 1 37 5
M  V30 42 1 38 6
M  V30 43 1 39 6
M  V30 44 1 40 7
M  V30 45 1 41 7
M  V30 46 1 42 9
M  V30 47 1 43 9
M  V30 48 1 10 44 CFG=3
M  V30 49 1 45 11
M  V30 50 1 46 11
M  V30 51 1 47 12
M  V30 52 1 48 12
M  V30 53 1 49 15
M  V30 54 1 50 16
M  V30 55 1 51 22
M  V30 56 1 52 23
M  V30 57 1 24 53 CFG=3
M  V30 58 1 54 25
M  V30 59 1 55 25
M  V30 60 1 56 28
M  V30 61 1 57 29
M  V30 62 1 58 30
M  V30 63 1 59 31
M  V30 64 1 8 60 CFG=3
M  V30 END BOND
M  V30 END CTAB
M  END
>  <b_m_subgroup_collapsed>  (341) 
0

>  <r_i_docking_score>  (341) 
-8.4866875721287993

>  <s_m_subgroup_title>  (341) 
glide-dock_SP_D22_pv

>  <s_m_subgroupid>  (341) 
glide-dock_SP_D22_pv

>  <Molecule ChEMBL ID>  (341) 
CHEMBL5760252

>  <Standard Type>  (341) 
Ki

>  <Standard Value>  (341) 
57.5

>  <label>  (341) 
1

$$$$
CHEMBL5903085
     RDKit          3D

  0  0  0  0  0  0  0  0  0  0999 V3000
M  V30 BEGIN CTAB
M  V30 COUNTS 51 53 0 0 1
M  V30 BEGIN ATOM
M  V30 1 C 10.466290 4.751967 -14.800985 0
M  V30 2 C 9.924051 3.861358 -13.675129 0 CFG=2
M  V30 3 O 10.485722 2.570951 -13.846903 0
M  V30 4 C 8.385860 3.773975 -13.730844 0
M  V30 5 O 7.880117 2.994021 -14.538072 0
M  V30 6 N 7.618828 4.518663 -12.892329 0
M  V30 7 C 6.152553 4.393315 -12.919024 0
M  V30 8 C 5.666641 3.008900 -12.763588 0
M  V30 9 N 5.285937 1.924031 -12.643192 0
M  V30 10 C 8.118466 5.583701 -12.009574 0
M  V30 11 C 8.492785 5.042334 -10.617590 0
M  V30 12 N 8.825336 6.119890 -9.647123 0 CFG=1 CHG=1
M  V30 13 C 8.602549 5.670813 -8.246441 0
M  V30 14 C 8.920094 6.771213 -7.227742 0
M  V30 15 C 10.372313 7.224189 -7.377488 0 CFG=2
M  V30 16 C 10.754801 8.246511 -6.340068 0
M  V30 17 N 10.491326 9.534859 -6.521274 0
M  V30 18 O 10.944351 10.235363 -5.368709 0
M  V30 19 C 11.449291 9.331676 -4.450469 0
M  V30 20 C 11.985279 9.501094 -3.166703 0
M  V30 21 C 12.371522 8.344998 -2.463084 0
M  V30 22 F 12.886009 8.465847 -1.219262 0
M  V30 23 C 12.217322 7.064356 -3.044882 0
M  V30 24 C 11.688851 6.921779 -4.345761 0
M  V30 25 C 11.306943 8.081726 -5.054111 0
M  V30 26 C 10.595527 7.710886 -8.823503 0
M  V30 27 C 10.207294 6.627503 -9.841345 0
M  V30 28 H 10.094165 5.772258 -14.717166 0
M  V30 29 H 11.555490 4.796895 -14.774294 0
M  V30 30 H 10.177470 4.373947 -15.784061 0
M  V30 31 H 10.275843 4.230767 -12.714623 0
M  V30 32 H 10.155638 1.995001 -13.166234 0
M  V30 33 H 5.684564 4.965769 -12.116285 0
M  V30 34 H 5.759656 4.783561 -13.856789 0
M  V30 35 H 8.960911 6.097225 -12.470794 0
M  V30 36 H 7.355392 6.357607 -11.901208 0
M  V30 37 H 7.661753 4.451349 -10.246805 0
M  V30 38 H 9.322038 4.340457 -10.674532 0
M  V30 39 H 7.570377 5.371095 -8.107129 0
M  V30 40 H 9.209977 4.786788 -8.046309 0
M  V30 41 H 8.753496 6.387813 -6.223462 0
M  V30 42 H 8.242373 7.618438 -7.345058 0
M  V30 43 H 11.009282 6.351625 -7.226129 0
M  V30 44 H 12.084375 10.480526 -2.722805 0
M  V30 45 H 12.503337 6.184490 -2.486868 0
M  V30 46 H 11.572899 5.942048 -4.787628 0
M  V30 47 H 11.639618 7.993735 -8.967999 0
M  V30 48 H 10.003161 8.605346 -9.015119 0
M  V30 49 H 10.879968 5.782391 -9.733876 0
M  V30 50 H 10.328755 7.013274 -10.852712 0
M  V30 51 H 8.169171 6.881330 -9.807038 0
M  V30 END ATOM
M  V30 BEGIN BOND
M  V30 1 1 2 1
M  V30 2 1 3 2
M  V30 3 1 4 2
M  V30 4 2 5 4
M  V30 5 1 6 4
M  V30 6 1 7 6
M  V30 7 1 8 7
M  V30 8 3 9 8
M  V30 9 1 10 6
M  V30 10 1 11 10
M  V30 11 1 12 11
M  V30 12 1 13 12
M  V30 13 1 14 13
M  V30 14 1 15 14
M  V30 15 1 16 15
M  V30 16 2 17 16
M  V30 17 1 18 17
M  V30 18 1 19 18
M  V30 19 1 20 19
M  V30 20 2 21 20
M  V30 21 1 22 21
M  V30 22 1 23 21
M  V30 23 2 24 23
M  V30 24 1 25 16
M  V30 25 2 25 19
M  V30 26 1 25 24
M  V30 27 1 26 15
M  V30 28 1 27 12
M  V30 29 1 27 26
M  V30 30 1 28 1
M  V30 31 1 29 1
M  V30 32 1 30 1
M  V30 33 1 2 31 CFG=1
M  V30 34 1 32 3
M  V30 35 1 33 7
M  V30 36 1 34 7
M  V30 37 1 35 10
M  V30 38 1 36 10
M  V30 39 1 37 11
M  V30 40 1 38 11
M  V30 41 1 39 13
M  V30 42 1 40 13
M  V30 43 1 41 14
M  V30 44 1 42 14
M  V30 45 1 15 43 CFG=1
M  V30 46 1 44 20
M  V30 47 1 45 23
M  V30 48 1 46 24
M  V30 49 1 47 26
M  V30 50 1 48 26
M  V30 51 1 49 27
M  V30 52 1 50 27
M  V30 53 1 12 51 CFG=3
M  V30 END BOND
M  V30 END CTAB
M  END
>  <b_m_subgroup_collapsed>  (342) 
0

>  <r_i_docking_score>  (342) 
-8.4855917454096197

>  <s_m_subgroup_title>  (342) 
glide-dock_SP_D22_pv

>  <s_m_subgroupid>  (342) 
glide-dock_SP_D22_pv

>  <Molecule ChEMBL ID>  (342) 
CHEMBL5903085

>  <Standard Type>  (342) 
Ki

>  <Standard Value>  (342) 
10000.0

>  <label>  (342) 
0

$$$$
CHEMBL4554053
     RDKit          3D

  0  0  0  0  0  0  0  0  0  0999 V3000
M  V30 BEGIN CTAB
M  V30 COUNTS 62 65 0 0 1
M  V30 BEGIN ATOM
M  V30 1 N 4.885840 -2.573735 -15.953172 0
M  V30 2 C 4.406208 -1.419942 -15.484172 0
M  V30 3 O 3.204015 -1.187716 -15.447198 0
M  V30 4 C 5.359964 -0.438071 -14.949990 0
M  V30 5 C 5.192576 0.509125 -13.907159 0
M  V30 6 C 6.328148 1.261276 -13.847016 0
M  V30 7 N 7.224259 0.804894 -14.809264 0
M  V30 8 C 8.528116 1.314161 -15.080183 0
M  V30 9 C 9.384783 0.672578 -16.008566 0
M  V30 10 C 10.647523 1.214158 -16.308126 0
M  V30 11 C 11.073153 2.402462 -15.687152 0
M  V30 12 C 10.254813 3.048829 -14.741269 0
M  V30 13 O 10.754558 4.186594 -14.141928 0
M  V30 14 C 9.973786 5.188095 -13.679926 0
M  V30 15 O 8.771030 5.335613 -13.895786 0
M  V30 16 N 10.751939 5.992513 -12.869138 0
M  V30 17 C 10.197166 6.930005 -11.900005 0
M  V30 18 C 9.423413 6.178323 -10.797114 0
M  V30 19 C 8.954370 7.085888 -9.649875 0
M  V30 20 N 10.032671 7.524076 -8.761508 0
M  V30 21 C 10.520937 6.408590 -7.938969 0
M  V30 22 C 11.663369 6.903926 -7.032613 0
M  V30 23 N 11.146062 7.956151 -6.165153 0
M  V30 24 C 11.530365 8.054530 -4.817358 0
M  V30 25 C 11.686110 6.887634 -4.031697 0
M  V30 26 C 12.076968 6.971743 -2.681796 0
M  V30 27 C 12.276036 8.228473 -2.088341 0
M  V30 28 C 12.086412 9.394837 -2.847071 0
M  V30 29 C 11.736341 9.312468 -4.205607 0
M  V30 30 C 10.546739 9.070305 -6.888364 0
M  V30 31 C 9.471529 8.541220 -7.861205 0
M  V30 32 C 8.990517 2.484310 -14.433956 0
M  V30 33 C 6.597398 -0.227710 -15.492451 0
M  V30 34 H 4.214114 -3.283837 -16.250036 0
M  V30 35 H 5.878393 -2.762760 -15.934713 0
M  V30 36 H 4.317607 0.649920 -13.294418 0
M  V30 37 H 6.540172 2.097968 -13.197450 0
M  V30 38 H 9.095654 -0.240441 -16.505030 0
M  V30 39 H 11.293276 0.717813 -17.016254 0
M  V30 40 H 12.048077 2.808211 -15.921928 0
M  V30 41 H 11.735577 5.767739 -12.832118 0
M  V30 42 H 9.552406 7.656756 -12.395347 0
M  V30 43 H 11.024656 7.488404 -11.461004 0
M  V30 44 H 9.998492 5.328946 -10.431249 0
M  V30 45 H 8.523827 5.747273 -11.242084 0
M  V30 46 H 8.180944 6.574956 -9.070781 0
M  V30 47 H 8.488290 7.969096 -10.090239 0
M  V30 48 H 10.885536 5.597411 -8.562638 0
M  V30 49 H 9.711124 5.994291 -7.335758 0
M  V30 50 H 12.485729 7.318514 -7.629282 0
M  V30 51 H 12.088620 6.067621 -6.477950 0
M  V30 52 H 11.501375 5.909654 -4.450500 0
M  V30 53 H 12.195885 6.071116 -2.097601 0
M  V30 54 H 12.557571 8.305284 -1.047802 0
M  V30 55 H 12.218513 10.360933 -2.389501 0
M  V30 56 H 11.636056 10.228137 -4.764712 0
M  V30 57 H 10.086069 9.772195 -6.199180 0
M  V30 58 H 11.325103 9.605298 -7.431663 0
M  V30 59 H 9.073967 9.371952 -8.446918 0
M  V30 60 H 8.629626 8.126037 -7.301679 0
M  V30 61 H 8.370151 2.960343 -13.693815 0
M  V30 62 H 7.067345 -0.730185 -16.323013 0
M  V30 END ATOM
M  V30 BEGIN BOND
M  V30 1 1 2 1
M  V30 2 2 3 2
M  V30 3 1 4 2
M  V30 4 1 5 4
M  V30 5 2 6 5
M  V30 6 1 7 6
M  V30 7 1 8 7
M  V30 8 2 9 8
M  V30 9 1 10 9
M  V30 10 2 11 10
M  V30 11 1 12 11
M  V30 12 1 13 12
M  V30 13 1 14 13
M  V30 14 2 15 14
M  V30 15 1 16 14
M  V30 16 1 17 16
M  V30 17 1 18 17
M  V30 18 1 19 18
M  V30 19 1 20 19
M  V30 20 1 21 20
M  V30 21 1 22 21
M  V30 22 1 23 22
M  V30 23 1 24 23
M  V30 24 2 25 24
M  V30 25 1 26 25
M  V30 26 2 27 26
M  V30 27 1 28 27
M  V30 28 1 29 24
M  V30 29 2 29 28
M  V30 30 1 30 23
M  V30 31 1 31 20
M  V30 32 1 31 30
M  V30 33 1 32 8
M  V30 34 2 32 12
M  V30 35 2 33 4
M  V30 36 1 33 7
M  V30 37 1 34 1
M  V30 38 1 35 1
M  V30 39 1 36 5
M  V30 40 1 37 6
M  V30 41 1 38 9
M  V30 42 1 39 10
M  V30 43 1 40 11
M  V30 44 1 41 16
M  V30 45 1 42 17
M  V30 46 1 43 17
M  V30 47 1 44 18
M  V30 48 1 45 18
M  V30 49 1 46 19
M  V30 50 1 47 19
M  V30 51 1 48 21
M  V30 52 1 49 21
M  V30 53 1 50 22
M  V30 54 1 51 22
M  V30 55 1 52 25
M  V30 56 1 53 26
M  V30 57 1 54 27
M  V30 58 1 55 28
M  V30 59 1 56 29
M  V30 60 1 57 30
M  V30 61 1 58 30
M  V30 62 1 59 31
M  V30 63 1 60 31
M  V30 64 1 61 32
M  V30 65 1 62 33
M  V30 END BOND
M  V30 END CTAB
M  END
>  <b_m_subgroup_collapsed>  (343) 
0

>  <r_i_docking_score>  (343) 
-8.4850157287691097

>  <s_m_subgroup_title>  (343) 
glide-dock_SP_D22_pv

>  <s_m_subgroupid>  (343) 
glide-dock_SP_D22_pv

>  <Molecule ChEMBL ID>  (343) 
CHEMBL4554053

>  <Standard Type>  (343) 
Ki

>  <Standard Value>  (343) 
66.0

>  <label>  (343) 
1

$$$$
CHEMBL569322
     RDKit          3D

  0  0  0  0  0  0  0  0  0  0999 V3000
M  V30 BEGIN CTAB
M  V30 COUNTS 71 75 0 0 1
M  V30 BEGIN ATOM
M  V30 1 C 5.528272 4.333922 -12.461828 0
M  V30 2 C 6.781362 5.166454 -12.741124 0
M  V30 3 C 7.929473 4.840267 -11.763679 0
M  V30 4 N 9.267497 5.390749 -12.162891 0 CFG=2 CHG=1
M  V30 5 C 9.334733 6.879745 -12.053309 0
M  V30 6 C 9.021096 7.401580 -10.642327 0
M  V30 7 N 10.074570 7.078264 -9.682521 0
M  V30 8 C 9.440896 6.718485 -8.407532 0
M  V30 9 C 10.516813 6.290731 -7.396776 0
M  V30 10 N 11.489743 7.354636 -7.204299 0
M  V30 11 C 11.305872 8.197515 -6.092995 0
M  V30 12 N 10.897169 9.452151 -6.358545 0 CHG=1
M  V30 13 C 10.885981 10.427715 -5.445643 0
M  V30 14 C 11.283615 10.172318 -4.132419 0
M  V30 15 C 11.684494 8.894273 -3.775510 0
M  V30 16 C 12.086889 8.672762 -2.452488 0
M  V30 17 C 12.486067 7.391973 -2.077806 0
M  V30 18 C 12.485282 6.352163 -3.014606 0
M  V30 19 C 12.056540 6.579365 -4.339226 0
M  V30 20 C 11.669199 7.867295 -4.751087 0
M  V30 21 C 12.014009 7.977563 -8.431616 0
M  V30 22 C 10.897954 8.270649 -9.454029 0
M  V30 23 C 9.785766 4.833698 -13.466636 0 CFG=1
M  V30 24 C 11.267408 5.164630 -13.769794 0
M  V30 25 C 11.671094 4.712387 -15.184738 0
M  V30 26 C 11.234842 3.296671 -15.525756 0
M  V30 27 C 11.797668 2.643544 -16.643017 0
M  V30 28 C 11.409625 1.329787 -16.971804 0
M  V30 29 C 10.457235 0.657172 -16.182449 0
M  V30 30 O 10.086079 -0.619452 -16.494280 0
M  V30 31 C 9.886370 1.307810 -15.072662 0
M  V30 32 C 10.263363 2.627961 -14.747461 0
M  V30 33 C 9.614322 3.293927 -13.548619 0
M  V30 34 H 4.771090 4.525842 -13.222405 0
M  V30 35 H 5.746461 3.265893 -12.481361 0
M  V30 36 H 5.104603 4.572129 -11.486027 0
M  V30 37 H 6.528173 6.226333 -12.682755 0
M  V30 38 H 7.074398 4.971186 -13.770969 0
M  V30 39 H 8.011935 3.772233 -11.648514 0
M  V30 40 H 7.642965 5.118578 -10.753814 0
M  V30 41 H 10.306542 7.272101 -12.340151 0
M  V30 42 H 8.611581 7.313398 -12.742419 0
M  V30 43 H 8.836612 8.476741 -10.673071 0
M  V30 44 H 8.086088 6.972265 -10.315290 0
M  V30 45 H 8.849657 7.550709 -8.018462 0
M  V30 46 H 8.750418 5.886070 -8.554934 0
M  V30 47 H 10.042654 6.039724 -6.447997 0
M  V30 48 H 11.029168 5.394245 -7.747485 0
M  V30 49 H 10.545698 11.372296 -5.800900 0
M  V30 50 H 11.286250 10.965533 -3.401003 0
M  V30 51 H 12.114266 9.477828 -1.731566 0
M  V30 52 H 12.885561 7.224412 -1.088634 0
M  V30 53 H 12.828744 5.373073 -2.716508 0
M  V30 54 H 12.072483 5.772093 -5.052392 0
M  V30 55 H 12.537848 8.904911 -8.195595 0
M  V30 56 H 12.784944 7.372337 -8.889998 0
M  V30 57 H 11.344294 8.600566 -10.393107 0
M  V30 58 H 10.274086 9.092000 -9.098853 0
M  V30 59 H 9.200657 5.283909 -14.269710 0
M  V30 60 H 11.495107 6.225445 -13.694581 0
M  V30 61 H 11.908152 4.657962 -13.049376 0
M  V30 62 H 12.752792 4.793757 -15.301631 0
M  V30 63 H 11.227458 5.382808 -15.921728 0
M  V30 64 H 12.538478 3.146150 -17.248308 0
M  V30 65 H 11.851206 0.834562 -17.823479 0
M  V30 66 H 9.373181 -0.945616 -15.963886 0
M  V30 67 H 9.156026 0.793684 -14.464242 0
M  V30 68 H 8.560147 3.021511 -13.594287 0
M  V30 69 H 10.031328 2.832937 -12.653165 0
M  V30 70 H 9.903005 5.059279 -11.450013 0
M  V30 71 H 10.626015 9.681874 -7.314531 0
M  V30 END ATOM
M  V30 BEGIN BOND
M  V30 1 1 2 1
M  V30 2 1 3 2
M  V30 3 1 4 3
M  V30 4 1 5 4
M  V30 5 1 6 5
M  V30 6 1 7 6
M  V30 7 1 8 7
M  V30 8 1 9 8
M  V30 9 1 10 9
M  V30 10 1 11 10
M  V30 11 2 12 11
M  V30 12 1 13 12
M  V30 13 2 14 13
M  V30 14 1 15 14
M  V30 15 2 16 15
M  V30 16 1 17 16
M  V30 17 2 18 17
M  V30 18 1 19 18
M  V30 19 1 20 11
M  V30 20 1 20 15
M  V30 21 2 20 19
M  V30 22 1 21 10
M  V30 23 1 22 7
M  V30 24 1 22 21
M  V30 25 1 23 4
M  V30 26 1 24 23
M  V30 27 1 25 24
M  V30 28 1 26 25
M  V30 29 1 27 26
M  V30 30 2 28 27
M  V30 31 1 29 28
M  V30 32 1 30 29
M  V30 33 2 31 29
M  V30 34 2 32 26
M  V30 35 1 32 31
M  V30 36 1 33 23
M  V30 37 1 33 32
M  V30 38 1 34 1
M  V30 39 1 35 1
M  V30 40 1 36 1
M  V30 41 1 37 2
M  V30 42 1 38 2
M  V30 43 1 39 3
M  V30 44 1 40 3
M  V30 45 1 41 5
M  V30 46 1 42 5
M  V30 47 1 43 6
M  V30 48 1 44 6
M  V30 49 1 45 8
M  V30 50 1 46 8
M  V30 51 1 47 9
M  V30 52 1 48 9
M  V30 53 1 49 13
M  V30 54 1 50 14
M  V30 55 1 51 16
M  V30 56 1 52 17
M  V30 57 1 53 18
M  V30 58 1 54 19
M  V30 59 1 55 21
M  V30 60 1 56 21
M  V30 61 1 57 22
M  V30 62 1 58 22
M  V30 63 1 23 59 CFG=3
M  V30 64 1 60 24
M  V30 65 1 61 24
M  V30 66 1 62 25
M  V30 67 1 63 25
M  V30 68 1 64 27
M  V30 69 1 65 28
M  V30 70 1 66 30
M  V30 71 1 67 31
M  V30 72 1 68 33
M  V30 73 1 69 33
M  V30 74 1 4 70 CFG=1
M  V30 75 1 71 12
M  V30 END BOND
M  V30 END CTAB
M  END
>  <b_m_subgroup_collapsed>  (344) 
0

>  <r_i_docking_score>  (344) 
-8.4850029651472401

>  <s_m_subgroup_title>  (344) 
glide-dock_SP_D22_pv

>  <s_m_subgroupid>  (344) 
glide-dock_SP_D22_pv

>  <Molecule ChEMBL ID>  (344) 
CHEMBL569322

>  <Standard Type>  (344) 
Ki

>  <Standard Value>  (344) 
21.7

>  <label>  (344) 
1

$$$$
CHEMBL4438630
     RDKit          3D

  0  0  0  0  0  0  0  0  0  0999 V3000
M  V30 BEGIN CTAB
M  V30 COUNTS 63 66 0 0 1
M  V30 BEGIN ATOM
M  V30 1 C 11.837185 6.760495 -2.892434 0
M  V30 2 C 11.704560 7.582699 -4.159688 0
M  V30 3 C 12.252943 8.874248 -4.223750 0
M  V30 4 C 12.122008 9.623389 -5.403813 0
M  V30 5 C 11.412074 9.119871 -6.508327 0
M  V30 6 C 10.843986 7.826900 -6.459931 0
M  V30 7 N 10.115200 7.297146 -7.546232 0
M  V30 8 C 8.872749 6.613555 -7.229931 0
M  V30 9 C 8.591502 5.561608 -8.300163 0
M  V30 10 N 8.486216 6.161731 -9.656631 0 CHG=1
M  V30 11 C 8.250496 5.104271 -10.677164 0
M  V30 12 C 7.481626 5.603080 -11.913572 0
M  V30 13 C 7.243352 4.492668 -12.956937 0
M  V30 14 C 6.168720 3.457916 -12.567538 0
M  V30 15 N 6.085958 2.402780 -13.575241 0
M  V30 16 C 5.652900 1.146998 -13.360504 0
M  V30 17 O 5.286478 0.727645 -12.263736 0
M  V30 18 C 5.522173 0.304227 -14.594292 0
M  V30 19 C 4.393819 -0.529797 -14.764344 0
M  V30 20 C 4.188614 -1.210149 -15.981466 0
M  V30 21 C 5.106995 -1.066187 -17.044243 0
M  V30 22 C 4.846986 -1.702567 -18.342005 0
M  V30 23 C 5.287477 -1.105307 -19.567766 0
M  V30 24 C 4.944441 -1.826104 -20.680145 0
M  V30 25 S 4.085491 -3.278781 -20.261871 0
M  V30 26 C 4.159034 -2.869157 -18.572805 0
M  V30 27 C 6.269345 -0.287157 -16.844069 0
M  V30 28 C 6.483412 0.383711 -15.626327 0
M  V30 29 C 9.668546 7.013390 -9.977245 0
M  V30 30 C 10.066386 7.983223 -8.837301 0
M  V30 31 C 11.027706 7.061037 -5.280331 0
M  V30 32 H 10.932952 6.177665 -2.717531 0
M  V30 33 H 12.681060 6.075204 -2.960796 0
M  V30 34 H 11.988991 7.403188 -2.025238 0
M  V30 35 H 12.790238 9.285800 -3.381731 0
M  V30 36 H 12.589250 10.584833 -5.464933 0
M  V30 37 H 11.319341 9.747801 -7.381255 0
M  V30 38 H 8.085893 7.364173 -7.203902 0
M  V30 39 H 8.863202 6.151228 -6.247736 0
M  V30 40 H 7.685484 5.025836 -8.042108 0
M  V30 41 H 9.393465 4.821106 -8.294755 0
M  V30 42 H 7.685026 4.291406 -10.227536 0
M  V30 43 H 9.200636 4.658040 -10.974624 0
M  V30 44 H 8.047126 6.405356 -12.388196 0
M  V30 45 H 6.528362 6.046772 -11.622881 0
M  V30 46 H 8.186973 3.987184 -13.168080 0
M  V30 47 H 6.940053 4.966027 -13.889750 0
M  V30 48 H 5.195242 3.943072 -12.485888 0
M  V30 49 H 6.381335 3.029390 -11.588730 0
M  V30 50 H 6.317864 2.655115 -14.523334 0
M  V30 51 H 3.648404 -0.608368 -13.985772 0
M  V30 52 H 3.300276 -1.813396 -16.108057 0
M  V30 53 H 5.825751 -0.168456 -19.599113 0
M  V30 54 H 5.126464 -1.586755 -21.716085 0
M  V30 55 H 3.687965 -3.520725 -17.847197 0
M  V30 56 H 7.005706 -0.192428 -17.627489 0
M  V30 57 H 7.369661 0.990261 -15.508880 0
M  V30 58 H 10.522101 6.364438 -10.178304 0
M  V30 59 H 9.480541 7.578320 -10.891064 0
M  V30 60 H 9.346720 8.801302 -8.774665 0
M  V30 61 H 11.035996 8.421731 -9.077975 0
M  V30 62 H 10.642603 6.058268 -5.209407 0
M  V30 63 H 7.659638 6.767966 -9.659410 0
M  V30 END ATOM
M  V30 BEGIN BOND
M  V30 1 1 2 1
M  V30 2 1 3 2
M  V30 3 2 4 3
M  V30 4 1 5 4
M  V30 5 2 6 5
M  V30 6 1 7 6
M  V30 7 1 8 7
M  V30 8 1 9 8
M  V30 9 1 10 9
M  V30 10 1 11 10
M  V30 11 1 12 11
M  V30 12 1 13 12
M  V30 13 1 14 13
M  V30 14 1 15 14
M  V30 15 1 16 15
M  V30 16 2 17 16
M  V30 17 1 18 16
M  V30 18 1 19 18
M  V30 19 2 20 19
M  V30 20 1 21 20
M  V30 21 1 22 21
M  V30 22 1 23 22
M  V30 23 2 24 23
M  V30 24 1 25 24
M  V30 25 2 26 22
M  V30 26 1 26 25
M  V30 27 2 27 21
M  V30 28 2 28 18
M  V30 29 1 28 27
M  V30 30 1 29 10
M  V30 31 1 30 7
M  V30 32 1 30 29
M  V30 33 2 31 2
M  V30 34 1 31 6
M  V30 35 1 32 1
M  V30 36 1 33 1
M  V30 37 1 34 1
M  V30 38 1 35 3
M  V30 39 1 36 4
M  V30 40 1 37 5
M  V30 41 1 38 8
M  V30 42 1 39 8
M  V30 43 1 40 9
M  V30 44 1 41 9
M  V30 45 1 42 11
M  V30 46 1 43 11
M  V30 47 1 44 12
M  V30 48 1 45 12
M  V30 49 1 46 13
M  V30 50 1 47 13
M  V30 51 1 48 14
M  V30 52 1 49 14
M  V30 53 1 50 15
M  V30 54 1 51 19
M  V30 55 1 52 20
M  V30 56 1 53 23
M  V30 57 1 54 24
M  V30 58 1 55 26
M  V30 59 1 56 27
M  V30 60 1 57 28
M  V30 61 1 58 29
M  V30 62 1 59 29
M  V30 63 1 60 30
M  V30 64 1 61 30
M  V30 65 1 62 31
M  V30 66 1 63 10
M  V30 END BOND
M  V30 END CTAB
M  END
>  <b_m_subgroup_collapsed>  (345) 
0

>  <r_i_docking_score>  (345) 
-8.4819386565692998

>  <s_m_subgroup_title>  (345) 
glide-dock_SP_D22_pv

>  <s_m_subgroupid>  (345) 
glide-dock_SP_D22_pv

>  <Molecule ChEMBL ID>  (345) 
CHEMBL4438630

>  <Standard Type>  (345) 
Ki

>  <Standard Value>  (345) 
16318.0

>  <label>  (345) 
0

$$$$
CHEMBL62919
     RDKit          3D

  0  0  0  0  0  0  0  0  0  0999 V3000
M  V30 BEGIN CTAB
M  V30 COUNTS 51 54 0 0 1
M  V30 BEGIN ATOM
M  V30 1 O 11.807142 7.772361 -7.691847 0
M  V30 2 C 10.962331 8.029577 -6.837418 0
M  V30 3 C 11.286115 8.176871 -5.405801 0
M  V30 4 C 11.685964 7.047961 -4.657919 0
M  V30 5 C 12.085991 7.193360 -3.316797 0
M  V30 6 C 12.091548 8.468994 -2.724536 0
M  V30 7 F 12.501366 8.613094 -1.446288 0
M  V30 8 C 11.686106 9.596129 -3.463576 0
M  V30 9 C 11.286037 9.453904 -4.806275 0
M  V30 10 C 9.478346 8.131624 -7.206693 0 CFG=1
M  V30 11 C 9.233294 8.796274 -8.577531 0
M  V30 12 C 9.561760 7.891567 -9.781966 0
M  V30 13 N 8.886019 6.571928 -9.690961 0 CFG=1 CHG=1
M  V30 14 C 9.227006 5.660372 -10.814011 0
M  V30 15 C 8.807816 6.139477 -12.222304 0
M  V30 16 N 9.253578 5.147720 -13.245692 0
M  V30 17 C 10.606414 5.106030 -13.754188 0
M  V30 18 S 11.686028 6.570353 -13.446856 0 CHG=-1
M  V30 19 N 11.072103 4.092811 -14.421530 0
M  V30 20 C 10.248725 3.001964 -14.711314 0
M  V30 21 C 10.787966 1.895767 -15.399934 0
M  V30 22 C 9.982683 0.779406 -15.697415 0
M  V30 23 C 8.626109 0.771180 -15.321747 0
M  V30 24 C 8.077534 1.879115 -14.646844 0
M  V30 25 C 8.890983 2.992333 -14.333356 0
M  V30 26 C 8.357500 4.167911 -13.568305 0
M  V30 27 O 7.172164 4.173355 -13.225951 0
M  V30 28 C 9.141700 5.884058 -8.392462 0
M  V30 29 C 8.811585 6.745590 -7.159345 0
M  V30 30 H 11.702137 6.068801 -5.115159 0
M  V30 31 H 12.396975 6.329360 -2.747419 0
M  V30 32 H 11.694362 10.572259 -3.000896 0
M  V30 33 H 10.999201 10.327775 -5.374426 0
M  V30 34 H 9.013274 8.756295 -6.443517 0
M  V30 35 H 8.191483 9.111734 -8.632547 0
M  V30 36 H 9.818098 9.710327 -8.662896 0
M  V30 37 H 10.636683 7.748675 -9.892481 0
M  V30 38 H 9.232725 8.412253 -10.680223 0
M  V30 39 H 10.298912 5.484469 -10.785595 0
M  V30 40 H 8.755500 4.692729 -10.632552 0
M  V30 41 H 7.724768 6.274574 -12.227845 0
M  V30 42 H 9.150074 7.145689 -12.446321 0
M  V30 43 H 11.827391 1.899003 -15.694909 0
M  V30 44 H 10.405185 -0.068842 -16.215199 0
M  V30 45 H 8.008101 -0.086074 -15.548357 0
M  V30 46 H 7.037014 1.860106 -14.356348 0
M  V30 47 H 10.188434 5.576882 -8.352487 0
M  V30 48 H 8.550965 4.967821 -8.345582 0
M  V30 49 H 9.120275 6.210724 -6.260008 0
M  V30 50 H 7.736429 6.850083 -7.046721 0
M  V30 51 H 7.888088 6.778802 -9.750234 0
M  V30 END ATOM
M  V30 BEGIN BOND
M  V30 1 2 2 1
M  V30 2 1 3 2
M  V30 3 1 4 3
M  V30 4 2 5 4
M  V30 5 1 6 5
M  V30 6 1 7 6
M  V30 7 2 8 6
M  V30 8 2 9 3
M  V30 9 1 9 8
M  V30 10 1 10 2
M  V30 11 1 11 10
M  V30 12 1 12 11
M  V30 13 1 13 12
M  V30 14 1 14 13
M  V30 15 1 15 14
M  V30 16 1 16 15
M  V30 17 1 17 16
M  V30 18 1 18 17
M  V30 19 2 19 17
M  V30 20 1 20 19
M  V30 21 2 21 20
M  V30 22 1 22 21
M  V30 23 2 23 22
M  V30 24 1 24 23
M  V30 25 1 25 20
M  V30 26 2 25 24
M  V30 27 1 26 16
M  V30 28 1 26 25
M  V30 29 2 27 26
M  V30 30 1 28 13
M  V30 31 1 29 10
M  V30 32 1 29 28
M  V30 33 1 30 4
M  V30 34 1 31 5
M  V30 35 1 32 8
M  V30 36 1 33 9
M  V30 37 1 10 34 CFG=1
M  V30 38 1 35 11
M  V30 39 1 36 11
M  V30 40 1 37 12
M  V30 41 1 38 12
M  V30 42 1 39 14
M  V30 43 1 40 14
M  V30 44 1 41 15
M  V30 45 1 42 15
M  V30 46 1 43 21
M  V30 47 1 44 22
M  V30 48 1 45 23
M  V30 49 1 46 24
M  V30 50 1 47 28
M  V30 51 1 48 28
M  V30 52 1 49 29
M  V30 53 1 50 29
M  V30 54 1 13 51 CFG=3
M  V30 END BOND
M  V30 END CTAB
M  END
>  <b_m_subgroup_collapsed>  (346) 
0

>  <r_i_docking_score>  (346) 
-8.4810121246204009

>  <s_m_subgroup_title>  (346) 
glide-dock_SP_D22_pv

>  <s_m_subgroupid>  (346) 
glide-dock_SP_D22_pv

>  <Molecule ChEMBL ID>  (346) 
CHEMBL62919

>  <Standard Type>  (346) 
Ki

>  <Standard Value>  (346) 
62.0

>  <label>  (346) 
1

$$$$
CHEMBL568801
     RDKit          3D

  0  0  0  0  0  0  0  0  0  0999 V3000
M  V30 BEGIN CTAB
M  V30 COUNTS 74 78 0 0 1
M  V30 BEGIN ATOM
M  V30 1 C 11.179810 5.997883 -14.312715 0
M  V30 2 C 10.175307 5.113996 -13.565050 0
M  V30 3 C 8.770587 5.772286 -13.399653 0
M  V30 4 N 7.846440 5.135291 -12.411399 0 CFG=2 CHG=1
M  V30 5 C 8.453453 4.947649 -11.056682 0
M  V30 6 C 9.178499 6.229618 -10.578034 0
M  V30 7 N 9.689315 6.138328 -9.215122 0
M  V30 8 C 8.697475 6.735613 -8.311493 0
M  V30 9 C 9.181090 6.774605 -6.850073 0
M  V30 10 N 10.516245 7.341866 -6.779241 0
M  V30 11 C 10.861128 8.281572 -5.813018 0
M  V30 12 C 10.584710 9.633949 -6.069799 0
M  V30 13 C 10.806109 10.572319 -5.046856 0
M  V30 14 N 11.286886 10.177243 -3.867945 0 CHG=1
M  V30 15 C 11.655730 8.937883 -3.602739 0
M  V30 16 C 12.189019 8.693021 -2.338610 0
M  V30 17 C 12.486021 7.378974 -2.012874 0
M  V30 18 C 12.270312 6.355483 -2.936163 0
M  V30 19 C 11.721257 6.599916 -4.206775 0
M  V30 20 C 11.426484 7.924527 -4.565154 0
M  V30 21 C 11.498136 6.853583 -7.713002 0
M  V30 22 C 10.915611 6.941547 -9.129967 0
M  V30 23 C 6.998063 4.027841 -12.979371 0 CFG=2
M  V30 24 C 6.012545 3.384341 -11.975847 0
M  V30 25 C 5.165703 2.232759 -12.550438 0
M  V30 26 C 5.809111 1.380943 -13.638272 0
M  V30 27 C 7.019808 1.776535 -14.255412 0
M  V30 28 C 7.548793 1.018118 -15.317906 0
M  V30 29 C 6.876579 -0.124245 -15.775879 0
M  V30 30 C 5.686072 -0.535831 -15.156306 0
M  V30 31 C 5.142360 0.209748 -14.083775 0
M  V30 32 O 3.978527 -0.158673 -13.447777 0
M  V30 33 C 3.005336 -0.852342 -14.216122 0
M  V30 34 C 7.794289 3.000756 -13.813646 0
M  V30 35 H 12.161447 5.523345 -14.349880 0
M  V30 36 H 10.863568 6.172354 -15.341317 0
M  V30 37 H 11.300369 6.964041 -13.822125 0
M  V30 38 H 10.620435 4.858800 -12.607184 0
M  V30 39 H 10.119167 4.175250 -14.108320 0
M  V30 40 H 8.281279 5.843993 -14.369781 0
M  V30 41 H 8.889528 6.797848 -13.046883 0
M  V30 42 H 7.685991 4.703786 -10.327237 0
M  V30 43 H 9.148543 4.109720 -11.068145 0
M  V30 44 H 10.025647 6.418604 -11.233790 0
M  V30 45 H 8.527465 7.098998 -10.689630 0
M  V30 46 H 8.485987 7.757999 -8.628117 0
M  V30 47 H 7.766948 6.172242 -8.377317 0
M  V30 48 H 8.485877 7.358479 -6.246844 0
M  V30 49 H 9.203270 5.772336 -6.437980 0
M  V30 50 H 10.154405 9.922150 -7.017423 0
M  V30 51 H 10.570446 11.619095 -5.046891 0
M  V30 52 H 12.350000 9.482591 -1.616958 0
M  V30 53 H 12.886024 7.149101 -1.046883 0
M  V30 54 H 12.545134 5.372326 -2.636225 0
M  V30 55 H 11.548099 5.781163 -4.890988 0
M  V30 56 H 12.423562 7.426505 -7.646554 0
M  V30 57 H 11.715275 5.818995 -7.446836 0
M  V30 58 H 11.653891 6.572860 -9.842834 0
M  V30 59 H 10.713428 7.981493 -9.394492 0
M  V30 60 H 6.349537 4.524778 -13.703328 0
M  V30 61 H 6.523944 2.982809 -11.109356 0
M  V30 62 H 5.347251 4.144956 -11.564721 0
M  V30 63 H 4.241127 2.635807 -12.963416 0
M  V30 64 H 4.886014 1.574450 -11.729877 0
M  V30 65 H 8.474867 1.312113 -15.790372 0
M  V30 66 H 7.285711 -0.702154 -16.591639 0
M  V30 67 H 5.217370 -1.437485 -15.519037 0
M  V30 68 H 2.129840 -1.027681 -13.594576 0
M  V30 69 H 2.692305 -0.264984 -15.080688 0
M  V30 70 H 3.347611 -1.827639 -14.554644 0
M  V30 71 H 8.686802 2.662573 -13.287501 0
M  V30 72 H 8.139106 3.479486 -14.729204 0
M  V30 73 H 11.418427 10.884108 -3.140997 0
M  V30 74 H 7.163295 5.858740 -12.223694 0
M  V30 END ATOM
M  V30 BEGIN BOND
M  V30 1 1 2 1
M  V30 2 1 3 2
M  V30 3 1 4 3
M  V30 4 1 5 4
M  V30 5 1 6 5
M  V30 6 1 7 6
M  V30 7 1 8 7
M  V30 8 1 9 8
M  V30 9 1 10 9
M  V30 10 1 11 10
M  V30 11 2 12 11
M  V30 12 1 13 12
M  V30 13 2 14 13
M  V30 14 1 15 14
M  V30 15 2 16 15
M  V30 16 1 17 16
M  V30 17 2 18 17
M  V30 18 1 19 18
M  V30 19 1 20 11
M  V30 20 1 20 15
M  V30 21 2 20 19
M  V30 22 1 21 10
M  V30 23 1 22 7
M  V30 24 1 22 21
M  V30 25 1 23 4
M  V30 26 1 24 23
M  V30 27 1 25 24
M  V30 28 1 26 25
M  V30 29 2 27 26
M  V30 30 1 28 27
M  V30 31 2 29 28
M  V30 32 1 30 29
M  V30 33 1 31 26
M  V30 34 2 31 30
M  V30 35 1 32 31
M  V30 36 1 33 32
M  V30 37 1 34 23
M  V30 38 1 34 27
M  V30 39 1 35 1
M  V30 40 1 36 1
M  V30 41 1 37 1
M  V30 42 1 38 2
M  V30 43 1 39 2
M  V30 44 1 40 3
M  V30 45 1 41 3
M  V30 46 1 42 5
M  V30 47 1 43 5
M  V30 48 1 44 6
M  V30 49 1 45 6
M  V30 50 1 46 8
M  V30 51 1 47 8
M  V30 52 1 48 9
M  V30 53 1 49 9
M  V30 54 1 50 12
M  V30 55 1 51 13
M  V30 56 1 52 16
M  V30 57 1 53 17
M  V30 58 1 54 18
M  V30 59 1 55 19
M  V30 60 1 56 21
M  V30 61 1 57 21
M  V30 62 1 58 22
M  V30 63 1 59 22
M  V30 64 1 23 60 CFG=3
M  V30 65 1 61 24
M  V30 66 1 62 24
M  V30 67 1 63 25
M  V30 68 1 64 25
M  V30 69 1 65 28
M  V30 70 1 66 29
M  V30 71 1 67 30
M  V30 72 1 68 33
M  V30 73 1 69 33
M  V30 74 1 70 33
M  V30 75 1 71 34
M  V30 76 1 72 34
M  V30 77 1 73 14
M  V30 78 1 4 74 CFG=1
M  V30 END BOND
M  V30 END CTAB
M  END
>  <b_m_subgroup_collapsed>  (347) 
0

>  <r_i_docking_score>  (347) 
-8.4809969853458593

>  <s_m_subgroup_title>  (347) 
glide-dock_SP_D22_pv

>  <s_m_subgroupid>  (347) 
glide-dock_SP_D22_pv

>  <Molecule ChEMBL ID>  (347) 
CHEMBL568801

>  <Standard Type>  (347) 
Ki

>  <Standard Value>  (347) 
4.89

>  <label>  (347) 
1

$$$$
CHEMBL556272
     RDKit          3D

  0  0  0  0  0  0  0  0  0  0999 V3000
M  V30 BEGIN CTAB
M  V30 COUNTS 45 48 0 0 1
M  V30 BEGIN ATOM
M  V30 1 O 8.693276 5.172272 -12.516866 0
M  V30 2 C 9.840407 5.592503 -12.654726 0
M  V30 3 N 10.328391 6.661046 -12.004816 0
M  V30 4 C 9.621140 7.437034 -10.980640 0
M  V30 5 C 9.772022 6.758904 -9.601070 0
M  V30 6 N 8.997759 7.378479 -8.488501 0 CHG=1
M  V30 7 C 9.380425 8.790916 -8.163606 0
M  V30 8 C 10.210426 8.663480 -6.910844 0
M  V30 9 C 11.006975 9.639305 -6.281517 0
M  V30 10 C 11.738088 9.265565 -5.131913 0
M  V30 11 C 11.686002 7.937276 -4.647432 0
M  V30 12 C 10.885262 6.972166 -5.298795 0
M  V30 13 C 10.125019 7.376805 -6.413421 0
M  V30 14 C 9.152460 6.572183 -7.238249 0
M  V30 15 C 11.693797 6.972366 -12.379897 0
M  V30 16 C 12.025506 5.879614 -13.387129 0
M  V30 17 N 10.808394 5.074256 -13.447189 0
M  V30 18 C 10.707650 3.925495 -14.302643 0
M  V30 19 C 11.604443 3.773557 -15.390657 0
M  V30 20 C 11.527080 2.655325 -16.244450 0
M  V30 21 F 12.389563 2.536521 -17.281300 0
M  V30 22 C 10.558453 1.661532 -16.020588 0
M  V30 23 C 9.670906 1.786767 -14.938436 0
M  V30 24 Cl 8.484842 0.572227 -14.647166 0
M  V30 25 C 9.747783 2.904567 -14.086159 0
M  V30 26 H 8.565022 7.521101 -11.246274 0
M  V30 27 H 10.020246 8.450861 -10.977432 0
M  V30 28 H 10.826772 6.723906 -9.325035 0
M  V30 29 H 9.443905 5.721880 -9.694465 0
M  V30 30 H 8.484770 9.372524 -7.940939 0
M  V30 31 H 9.936906 9.295855 -8.951069 0
M  V30 32 H 11.063568 10.650953 -6.653201 0
M  V30 33 H 12.355250 9.993051 -4.626320 0
M  V30 34 H 12.261174 7.660064 -3.775486 0
M  V30 35 H 10.837757 5.960475 -4.924980 0
M  V30 36 H 9.508958 5.556029 -7.415900 0
M  V30 37 H 8.195585 6.517475 -6.715540 0
M  V30 38 H 11.772106 7.935670 -12.865262 0
M  V30 39 H 12.358138 6.972823 -11.515328 0
M  V30 40 H 12.883557 5.282735 -13.066343 0
M  V30 41 H 12.254603 6.322557 -14.357058 0
M  V30 42 H 12.363535 4.510495 -15.601285 0
M  V30 43 H 10.501155 0.804465 -16.675072 0
M  V30 44 H 9.062556 2.941514 -13.254367 0
M  V30 45 H 8.015552 7.372591 -8.759286 0
M  V30 END ATOM
M  V30 BEGIN BOND
M  V30 1 2 2 1
M  V30 2 1 3 2
M  V30 3 1 4 3
M  V30 4 1 5 4
M  V30 5 1 6 5
M  V30 6 1 7 6
M  V30 7 1 8 7
M  V30 8 2 9 8
M  V30 9 1 10 9
M  V30 10 2 11 10
M  V30 11 1 12 11
M  V30 12 1 13 8
M  V30 13 2 13 12
M  V30 14 1 14 6
M  V30 15 1 14 13
M  V30 16 1 15 3
M  V30 17 1 16 15
M  V30 18 1 17 2
M  V30 19 1 17 16
M  V30 20 1 18 17
M  V30 21 2 19 18
M  V30 22 1 20 19
M  V30 23 1 21 20
M  V30 24 2 22 20
M  V30 25 1 23 22
M  V30 26 1 24 23
M  V30 27 1 25 18
M  V30 28 2 25 23
M  V30 29 1 26 4
M  V30 30 1 27 4
M  V30 31 1 28 5
M  V30 32 1 29 5
M  V30 33 1 30 7
M  V30 34 1 31 7
M  V30 35 1 32 9
M  V30 36 1 33 10
M  V30 37 1 34 11
M  V30 38 1 35 12
M  V30 39 1 36 14
M  V30 40 1 37 14
M  V30 41 1 38 15
M  V30 42 1 39 15
M  V30 43 1 40 16
M  V30 44 1 41 16
M  V30 45 1 42 19
M  V30 46 1 43 22
M  V30 47 1 44 25
M  V30 48 1 45 6
M  V30 END BOND
M  V30 END CTAB
M  END
>  <b_m_subgroup_collapsed>  (348) 
0

>  <r_i_docking_score>  (348) 
-8.4771953488244005

>  <s_m_subgroup_title>  (348) 
glide-dock_SP_D22_pv

>  <s_m_subgroupid>  (348) 
glide-dock_SP_D22_pv

>  <Molecule ChEMBL ID>  (348) 
CHEMBL556272

>  <Standard Type>  (348) 
Ki

>  <Standard Value>  (348) 
31.62

>  <label>  (348) 
1

$$$$
CHEMBL493069
     RDKit          3D

  0  0  0  0  0  0  0  0  0  0999 V3000
M  V30 BEGIN CTAB
M  V30 COUNTS 55 58 0 0 1
M  V30 BEGIN ATOM
M  V30 1 C 10.046377 -0.078329 -16.265913 0
M  V30 2 O 9.550494 1.007833 -15.507398 0
M  V30 3 C 8.229429 1.172041 -15.359400 0
M  V30 4 O 7.371357 0.434964 -15.850932 0
M  V30 5 C 7.883019 2.346069 -14.524818 0
M  V30 6 C 6.593136 2.550113 -14.109503 0
M  V30 7 O 6.482586 3.666720 -13.339371 0
M  V30 8 C 7.737678 4.172366 -13.247317 0
M  V30 9 C 8.632176 3.430383 -13.968436 0
M  V30 10 C 10.051351 3.863193 -13.980073 0
M  V30 11 O 10.968719 3.204223 -14.461465 0
M  V30 12 C 10.334630 5.240650 -13.364897 0
M  V30 13 C 9.467625 5.531165 -12.112461 0 CFG=1
M  V30 14 C 9.821773 6.901614 -11.496926 0
M  V30 15 N 9.285954 7.141542 -10.125875 0 CFG=1 CHG=1
M  V30 16 C 9.699662 6.099509 -9.140431 0
M  V30 17 C 9.188178 6.382964 -7.721385 0
M  V30 18 C 9.572864 7.774867 -7.208627 0 CFG=1
M  V30 19 C 11.054542 7.909428 -6.841438 0
M  V30 20 O 11.922228 7.944233 -7.713267 0
M  V30 21 C 11.355972 8.029745 -5.405890 0
M  V30 22 C 11.422370 6.867198 -4.612330 0
M  V30 23 C 11.820533 6.957991 -3.264948 0
M  V30 24 C 12.144472 8.210070 -2.713321 0
M  V30 25 F 12.541137 8.297816 -1.427062 0
M  V30 26 C 12.071429 9.372516 -3.499176 0
M  V30 27 C 11.686190 9.285676 -4.851166 0
M  V30 28 C 9.163400 8.818658 -8.247720 0
M  V30 29 C 9.635089 8.517212 -9.681014 0
M  V30 30 C 7.956906 5.372189 -12.397427 0
M  V30 31 H 11.134680 -0.028939 -16.316956 0
M  V30 32 H 9.769635 -1.027804 -15.803562 0
M  V30 33 H 9.657143 -0.057786 -17.286005 0
M  V30 34 H 5.672764 2.005302 -14.247139 0
M  V30 35 H 11.392735 5.290445 -13.107582 0
M  V30 36 H 10.162876 5.993659 -14.130295 0
M  V30 37 H 9.752348 4.736334 -11.425085 0
M  V30 38 H 10.909368 7.000461 -11.459181 0
M  V30 39 H 9.470309 7.692724 -12.162433 0
M  V30 40 H 9.295982 5.128009 -9.416965 0
M  V30 41 H 10.787257 6.003118 -9.142363 0
M  V30 42 H 9.568720 5.618253 -7.046491 0
M  V30 43 H 8.100915 6.282342 -7.703958 0
M  V30 44 H 9.007887 7.966850 -6.296131 0
M  V30 45 H 11.195889 5.898961 -5.033844 0
M  V30 46 H 11.883453 6.066912 -2.657666 0
M  V30 47 H 12.319819 10.323070 -3.048406 0
M  V30 48 H 11.661930 10.178782 -5.458980 0
M  V30 49 H 9.556413 9.772324 -7.932191 0
M  V30 50 H 8.086046 8.934465 -8.233776 0
M  V30 51 H 10.708964 8.676617 -9.774384 0
M  V30 52 H 9.166809 9.232346 -10.359136 0
M  V30 53 H 7.574817 6.251069 -12.916948 0
M  V30 54 H 7.392603 5.288943 -11.466656 0
M  V30 55 H 8.267271 7.125850 -10.179818 0
M  V30 END ATOM
M  V30 BEGIN BOND
M  V30 1 1 2 1
M  V30 2 1 3 2
M  V30 3 2 4 3
M  V30 4 1 5 3
M  V30 5 2 6 5
M  V30 6 1 7 6
M  V30 7 1 8 7
M  V30 8 1 9 5
M  V30 9 2 9 8
M  V30 10 1 10 9
M  V30 11 2 11 10
M  V30 12 1 12 10
M  V30 13 1 13 12
M  V30 14 1 14 13
M  V30 15 1 15 14
M  V30 16 1 16 15
M  V30 17 1 17 16
M  V30 18 1 18 17
M  V30 19 1 19 18
M  V30 20 2 20 19
M  V30 21 1 21 19
M  V30 22 1 22 21
M  V30 23 2 23 22
M  V30 24 1 24 23
M  V30 25 1 25 24
M  V30 26 2 26 24
M  V30 27 2 27 21
M  V30 28 1 27 26
M  V30 29 1 28 18
M  V30 30 1 29 15
M  V30 31 1 29 28
M  V30 32 1 30 8
M  V30 33 1 30 13
M  V30 34 1 31 1
M  V30 35 1 32 1
M  V30 36 1 33 1
M  V30 37 1 34 6
M  V30 38 1 35 12
M  V30 39 1 36 12
M  V30 40 1 13 37 CFG=1
M  V30 41 1 38 14
M  V30 42 1 39 14
M  V30 43 1 40 16
M  V30 44 1 41 16
M  V30 45 1 42 17
M  V30 46 1 43 17
M  V30 47 1 18 44 CFG=1
M  V30 48 1 45 22
M  V30 49 1 46 23
M  V30 50 1 47 26
M  V30 51 1 48 27
M  V30 52 1 49 28
M  V30 53 1 50 28
M  V30 54 1 51 29
M  V30 55 1 52 29
M  V30 56 1 53 30
M  V30 57 1 54 30
M  V30 58 1 15 55 CFG=3
M  V30 END BOND
M  V30 END CTAB
M  END
>  <b_m_subgroup_collapsed>  (349) 
0

>  <r_i_docking_score>  (349) 
-8.4714260382061699

>  <s_m_subgroup_title>  (349) 
glide-dock_SP_D22_pv

>  <s_m_subgroupid>  (349) 
glide-dock_SP_D22_pv

>  <Molecule ChEMBL ID>  (349) 
CHEMBL493069

>  <Standard Type>  (349) 
Ki

>  <Standard Value>  (349) 
10000.0

>  <label>  (349) 
0

$$$$
CHEMBL4163265
     RDKit          3D

  0  0  0  0  0  0  0  0  0  0999 V3000
M  V30 BEGIN CTAB
M  V30 COUNTS 46 48 0 0 1
M  V30 BEGIN ATOM
M  V30 1 F 10.757092 10.280459 -6.246213 0
M  V30 2 C 11.084546 9.180233 -5.534057 0
M  V30 3 C 11.688113 9.370724 -4.275291 0
M  V30 4 C 12.084838 8.273945 -3.492195 0
M  V30 5 C 11.852332 6.973232 -3.966943 0
M  V30 6 C 11.228477 6.782579 -5.215641 0
M  V30 7 C 10.811078 7.871273 -6.017557 0
M  V30 8 N 10.142414 7.609057 -7.238249 0
M  V30 9 C 9.025006 6.667673 -7.235354 0
M  V30 10 C 8.954847 5.917156 -8.578842 0
M  V30 11 N 8.886030 6.851844 -9.736069 0 CHG=1
M  V30 12 C 8.870918 6.172299 -11.059800 0
M  V30 13 C 7.650637 5.259593 -11.295016 0
M  V30 14 C 7.507946 4.821747 -12.758225 0
M  V30 15 N 6.255970 4.101841 -12.968879 0
M  V30 16 C 6.286281 2.785259 -13.446608 0
M  V30 17 C 5.286463 1.869008 -13.046556 0
M  V30 18 N 5.301148 0.573285 -13.433840 0
M  V30 19 C 6.324802 0.196201 -14.234839 0
M  V30 20 C 7.323352 1.106955 -14.648287 0
M  V30 21 Cl 8.616583 0.571338 -15.655827 0
M  V30 22 N 7.298898 2.401878 -14.259328 0
M  V30 23 C 9.949509 7.897296 -9.684693 0
M  V30 24 C 10.072595 8.592069 -8.312099 0
M  V30 25 H 11.831760 10.369697 -3.901351 0
M  V30 26 H 12.550503 8.432031 -2.530338 0
M  V30 27 H 12.144313 6.120369 -3.370328 0
M  V30 28 H 11.074337 5.772540 -5.558323 0
M  V30 29 H 8.095974 7.216981 -7.067153 0
M  V30 30 H 9.095198 5.954116 -6.419967 0
M  V30 31 H 8.084444 5.261869 -8.570403 0
M  V30 32 H 9.831154 5.275568 -8.683461 0
M  V30 33 H 9.792394 5.604357 -11.197282 0
M  V30 34 H 8.863981 6.945558 -11.827919 0
M  V30 35 H 6.734650 5.772449 -11.013661 0
M  V30 36 H 7.711526 4.373908 -10.661688 0
M  V30 37 H 8.382413 4.234662 -13.037776 0
M  V30 38 H 7.502028 5.696593 -13.407959 0
M  V30 39 H 5.513346 4.330679 -12.322694 0
M  V30 40 H 4.484613 2.170715 -12.391075 0
M  V30 41 H 6.349828 -0.838244 -14.544386 0
M  V30 42 H 10.908031 7.432327 -9.926039 0
M  V30 43 H 9.766074 8.646447 -10.456164 0
M  V30 44 H 9.215226 9.245486 -8.142667 0
M  V30 45 H 10.966781 9.215971 -8.318595 0
M  V30 46 H 7.980123 7.327379 -9.681408 0
M  V30 END ATOM
M  V30 BEGIN BOND
M  V30 1 1 2 1
M  V30 2 2 3 2
M  V30 3 1 4 3
M  V30 4 2 5 4
M  V30 5 1 6 5
M  V30 6 1 7 2
M  V30 7 2 7 6
M  V30 8 1 8 7
M  V30 9 1 9 8
M  V30 10 1 10 9
M  V30 11 1 11 10
M  V30 12 1 12 11
M  V30 13 1 13 12
M  V30 14 1 14 13
M  V30 15 1 15 14
M  V30 16 1 16 15
M  V30 17 2 17 16
M  V30 18 1 18 17
M  V30 19 2 19 18
M  V30 20 1 20 19
M  V30 21 1 21 20
M  V30 22 1 22 16
M  V30 23 2 22 20
M  V30 24 1 23 11
M  V30 25 1 24 8
M  V30 26 1 24 23
M  V30 27 1 25 3
M  V30 28 1 26 4
M  V30 29 1 27 5
M  V30 30 1 28 6
M  V30 31 1 29 9
M  V30 32 1 30 9
M  V30 33 1 31 10
M  V30 34 1 32 10
M  V30 35 1 33 12
M  V30 36 1 34 12
M  V30 37 1 35 13
M  V30 38 1 36 13
M  V30 39 1 37 14
M  V30 40 1 38 14
M  V30 41 1 39 15
M  V30 42 1 40 17
M  V30 43 1 41 19
M  V30 44 1 42 23
M  V30 45 1 43 23
M  V30 46 1 44 24
M  V30 47 1 45 24
M  V30 48 1 46 11
M  V30 END BOND
M  V30 END CTAB
M  END
>  <b_m_subgroup_collapsed>  (350) 
0

>  <r_i_docking_score>  (350) 
-8.4689228171395801

>  <s_m_subgroup_title>  (350) 
glide-dock_SP_D22_pv

>  <s_m_subgroupid>  (350) 
glide-dock_SP_D22_pv

>  <Molecule ChEMBL ID>  (350) 
CHEMBL4163265

>  <Standard Type>  (350) 
Ki

>  <Standard Value>  (350) 
37.0

>  <label>  (350) 
1

$$$$
CHEMBL169631
     RDKit          3D

  0  0  0  0  0  0  0  0  0  0999 V3000
M  V30 BEGIN CTAB
M  V30 COUNTS 59 61 0 0 1
M  V30 BEGIN ATOM
M  V30 1 C 11.672562 3.048483 -15.267101 0
M  V30 2 O 11.091569 3.791340 -14.205222 0
M  V30 3 C 9.740667 3.653244 -13.966361 0
M  V30 4 C 9.004910 2.560796 -14.490582 0
M  V30 5 C 7.624089 2.412998 -14.247007 0
M  V30 6 N 6.948983 1.285038 -14.805575 0
M  V30 7 C 6.326906 0.318297 -13.892379 0
M  V30 8 C 6.889193 1.113457 -16.151823 0
M  V30 9 C 6.162360 -0.110714 -16.711517 0
M  V30 10 O 7.360784 1.921180 -16.957529 0
M  V30 11 C 6.960803 3.372663 -13.447712 0
M  V30 12 Cl 5.286203 3.248080 -13.046783 0
M  V30 13 C 7.678300 4.468009 -12.934641 0
M  V30 14 C 9.065525 4.621681 -13.170808 0
M  V30 15 C 9.787915 5.831751 -12.625895 0
M  V30 16 O 10.887044 6.184875 -13.053329 0
M  V30 17 N 9.179040 6.502825 -11.631981 0
M  V30 18 C 9.653844 7.769776 -11.081325 0
M  V30 19 C 10.688124 7.574095 -9.960106 0 CFG=1
M  V30 20 C 11.290812 8.893383 -9.456200 0
M  V30 21 C 11.178484 8.853365 -7.931267 0
M  V30 22 N 10.882807 7.453803 -7.568716 0 CFG=1 CHG=1
M  V30 23 C 10.201830 7.291770 -6.264143 0
M  V30 24 C 11.039957 7.766062 -5.084377 0
M  V30 25 C 11.086078 9.136629 -4.737624 0
M  V30 26 C 11.717141 9.540843 -3.548101 0
M  V30 27 C 12.358223 8.596420 -2.725930 0
M  V30 28 C 12.348160 7.237223 -3.087045 0
M  V30 29 C 11.686323 6.824323 -4.258982 0
M  V30 30 C 10.124423 6.893165 -8.704486 0
M  V30 31 H 12.702723 3.373030 -15.416249 0
M  V30 32 H 11.686872 1.982976 -15.040317 0
M  V30 33 H 11.141145 3.210460 -16.205435 0
M  V30 34 H 9.488152 1.801643 -15.085678 0
M  V30 35 H 6.748267 -0.678934 -14.034863 0
M  V30 36 H 6.486133 0.577744 -12.846267 0
M  V30 37 H 5.249608 0.270793 -14.051604 0
M  V30 38 H 6.651249 -1.028237 -16.387051 0
M  V30 39 H 5.120529 -0.129590 -16.389309 0
M  V30 40 H 6.169379 -0.096742 -17.801888 0
M  V30 41 H 7.127707 5.191077 -12.348853 0
M  V30 42 H 8.274546 6.185824 -11.314839 0
M  V30 43 H 8.794280 8.324450 -10.705635 0
M  V30 44 H 10.081619 8.378207 -11.876862 0
M  V30 45 H 11.515740 6.972253 -10.336948 0
M  V30 46 H 10.773085 9.772703 -9.846019 0
M  V30 47 H 12.333188 8.971502 -9.765987 0
M  V30 48 H 10.338583 9.482332 -7.627296 0
M  V30 49 H 12.077323 9.226942 -7.435464 0
M  V30 50 H 9.953368 6.236180 -6.125447 0
M  V30 51 H 9.253017 7.833196 -6.268962 0
M  V30 52 H 10.575834 9.876269 -5.338783 0
M  V30 53 H 11.690991 10.578258 -3.252400 0
M  V30 54 H 12.840819 8.916471 -1.813791 0
M  V30 55 H 12.834361 6.504712 -2.458125 0
M  V30 56 H 11.649024 5.772463 -4.502085 0
M  V30 57 H 10.205312 5.805265 -8.750451 0
M  V30 58 H 9.066229 7.141908 -8.588678 0
M  V30 59 H 11.762124 6.960353 -7.530620 0
M  V30 END ATOM
M  V30 BEGIN BOND
M  V30 1 1 2 1
M  V30 2 1 3 2
M  V30 3 1 4 3
M  V30 4 2 5 4
M  V30 5 1 6 5
M  V30 6 1 7 6
M  V30 7 1 8 6
M  V30 8 1 9 8
M  V30 9 2 10 8
M  V30 10 1 11 5
M  V30 11 1 12 11
M  V30 12 2 13 11
M  V30 13 2 14 3
M  V30 14 1 14 13
M  V30 15 1 15 14
M  V30 16 2 16 15
M  V30 17 1 17 15
M  V30 18 1 18 17
M  V30 19 1 19 18
M  V30 20 1 20 19
M  V30 21 1 21 20
M  V30 22 1 22 21
M  V30 23 1 23 22
M  V30 24 1 24 23
M  V30 25 2 25 24
M  V30 26 1 26 25
M  V30 27 2 27 26
M  V30 28 1 28 27
M  V30 29 1 29 24
M  V30 30 2 29 28
M  V30 31 1 30 19
M  V30 32 1 30 22
M  V30 33 1 31 1
M  V30 34 1 32 1
M  V30 35 1 33 1
M  V30 36 1 34 4
M  V30 37 1 35 7
M  V30 38 1 36 7
M  V30 39 1 37 7
M  V30 40 1 38 9
M  V30 41 1 39 9
M  V30 42 1 40 9
M  V30 43 1 41 13
M  V30 44 1 42 17
M  V30 45 1 43 18
M  V30 46 1 44 18
M  V30 47 1 19 45 CFG=3
M  V30 48 1 46 20
M  V30 49 1 47 20
M  V30 50 1 48 21
M  V30 51 1 49 21
M  V30 52 1 50 23
M  V30 53 1 51 23
M  V30 54 1 52 25
M  V30 55 1 53 26
M  V30 56 1 54 27
M  V30 57 1 55 28
M  V30 58 1 56 29
M  V30 59 1 57 30
M  V30 60 1 58 30
M  V30 61 1 22 59 CFG=1
M  V30 END BOND
M  V30 END CTAB
M  END
>  <b_m_subgroup_collapsed>  (351) 
0

>  <r_i_docking_score>  (351) 
-8.4686516824297602

>  <s_m_subgroup_title>  (351) 
glide-dock_SP_D22_pv

>  <s_m_subgroupid>  (351) 
glide-dock_SP_D22_pv

>  <Molecule ChEMBL ID>  (351) 
CHEMBL169631

>  <Standard Type>  (351) 
Ki

>  <Standard Value>  (351) 
28000.0

>  <label>  (351) 
0

$$$$
CHEMBL3115578
     RDKit          3D

  0  0  0  0  0  0  0  0  0  0999 V3000
M  V30 BEGIN CTAB
M  V30 COUNTS 57 60 0 0 1
M  V30 BEGIN ATOM
M  V30 1 O 7.912064 -0.227649 -15.965468 0
M  V30 2 C 7.306285 0.641678 -15.104409 0
M  V30 3 C 6.167236 0.255185 -14.370716 0
M  V30 4 C 5.537660 1.179657 -13.512635 0
M  V30 5 C 6.052508 2.486782 -13.376070 0
M  V30 6 C 7.229472 2.855800 -14.067787 0
M  V30 7 C 7.833032 1.938493 -14.949965 0
M  V30 8 O 7.813916 4.088163 -13.899210 0
M  V30 9 C 7.499581 4.786448 -12.697383 0 CFG=1
M  V30 10 C 8.211494 6.140555 -12.828474 0
M  V30 11 N 8.486028 6.810125 -11.543934 0 CHG=1
M  V30 12 C 9.597035 7.779293 -11.655895 0
M  V30 13 C 9.622048 8.735143 -10.468596 0
M  V30 14 N 9.595079 7.993983 -9.221285 0
M  V30 15 C 10.902551 7.443746 -8.848063 0
M  V30 16 C 10.736109 6.573390 -7.587603 0
M  V30 17 N 10.106800 7.350463 -6.529110 0
M  V30 18 C 10.880729 7.783884 -5.446869 0
M  V30 19 C 11.495156 6.804261 -4.648225 0
M  V30 20 C 12.153461 7.149267 -3.462473 0
M  V30 21 C 12.222653 8.496775 -3.086944 0
M  V30 22 I 13.184697 8.972324 -1.315285 0
M  V30 23 C 11.646193 9.498495 -3.888919 0
M  V30 24 C 10.975767 9.144778 -5.075631 0
M  V30 25 C 8.881681 8.042041 -6.903150 0
M  V30 26 C 9.118979 8.878885 -8.159177 0
M  V30 27 C 5.974050 4.891368 -12.560158 0
M  V30 28 C 5.353411 3.489750 -12.474554 0
M  V30 29 H 7.686248 -1.149071 -15.846835 0
M  V30 30 H 5.761201 -0.740635 -14.479624 0
M  V30 31 H 4.647560 0.889858 -12.975986 0
M  V30 32 H 8.721269 2.224410 -15.493785 0
M  V30 33 H 7.921629 4.230227 -11.857953 0
M  V30 34 H 9.165720 5.968738 -13.329948 0
M  V30 35 H 7.646791 6.831431 -13.446899 0
M  V30 36 H 7.643187 7.280153 -11.188867 0
M  V30 37 H 10.541538 7.243865 -11.755301 0
M  V30 38 H 9.475953 8.373360 -12.562616 0
M  V30 39 H 10.505144 9.372295 -10.500586 0
M  V30 40 H 8.742489 9.377191 -10.539821 0
M  V30 41 H 11.300971 6.831061 -9.655741 0
M  V30 42 H 11.618649 8.247579 -8.667819 0
M  V30 43 H 10.107873 5.709193 -7.806529 0
M  V30 44 H 11.702903 6.185210 -7.268207 0
M  V30 45 H 11.411996 5.772029 -4.924666 0
M  V30 46 H 12.592902 6.381907 -2.841834 0
M  V30 47 H 11.686073 10.530865 -3.575342 0
M  V30 48 H 10.505956 9.914813 -5.668929 0
M  V30 49 H 8.098820 7.302845 -7.080564 0
M  V30 50 H 8.515656 8.681419 -6.107067 0
M  V30 51 H 9.843979 9.668298 -7.964891 0
M  V30 52 H 8.181611 9.358544 -8.444853 0
M  V30 53 H 5.687024 5.490586 -11.694504 0
M  V30 54 H 5.576896 5.401622 -13.438338 0
M  V30 55 H 4.301073 3.535367 -12.752425 0
M  V30 56 H 5.409286 3.126641 -11.447512 0
M  V30 57 H 8.747119 6.136658 -10.838020 0
M  V30 END ATOM
M  V30 BEGIN BOND
M  V30 1 1 2 1
M  V30 2 1 3 2
M  V30 3 2 4 3
M  V30 4 1 5 4
M  V30 5 2 6 5
M  V30 6 2 7 2
M  V30 7 1 7 6
M  V30 8 1 8 6
M  V30 9 1 9 8
M  V30 10 1 10 9
M  V30 11 1 11 10
M  V30 12 1 12 11
M  V30 13 1 13 12
M  V30 14 1 14 13
M  V30 15 1 15 14
M  V30 16 1 16 15
M  V30 17 1 17 16
M  V30 18 1 18 17
M  V30 19 1 19 18
M  V30 20 2 20 19
M  V30 21 1 21 20
M  V30 22 1 22 21
M  V30 23 2 23 21
M  V30 24 2 24 18
M  V30 25 1 24 23
M  V30 26 1 25 17
M  V30 27 1 26 14
M  V30 28 1 26 25
M  V30 29 1 27 9
M  V30 30 1 28 5
M  V30 31 1 28 27
M  V30 32 1 29 1
M  V30 33 1 30 3
M  V30 34 1 31 4
M  V30 35 1 32 7
M  V30 36 1 9 33 CFG=1
M  V30 37 1 34 10
M  V30 38 1 35 10
M  V30 39 1 36 11
M  V30 40 1 37 12
M  V30 41 1 38 12
M  V30 42 1 39 13
M  V30 43 1 40 13
M  V30 44 1 41 15
M  V30 45 1 42 15
M  V30 46 1 43 16
M  V30 47 1 44 16
M  V30 48 1 45 19
M  V30 49 1 46 20
M  V30 50 1 47 23
M  V30 51 1 48 24
M  V30 52 1 49 25
M  V30 53 1 50 25
M  V30 54 1 51 26
M  V30 55 1 52 26
M  V30 56 1 53 27
M  V30 57 1 54 27
M  V30 58 1 55 28
M  V30 59 1 56 28
M  V30 60 1 57 11
M  V30 END BOND
M  V30 END CTAB
M  END
>  <b_m_subgroup_collapsed>  (352) 
0

>  <r_i_docking_score>  (352) 
-8.4654893872864907

>  <s_m_subgroup_title>  (352) 
glide-dock_SP_D22_pv

>  <s_m_subgroupid>  (352) 
glide-dock_SP_D22_pv

>  <Molecule ChEMBL ID>  (352) 
CHEMBL3115578

>  <Standard Type>  (352) 
Ki

>  <Standard Value>  (352) 
66.07

>  <label>  (352) 
1

$$$$
CHEMBL549759
     RDKit          3D

  0  0  0  0  0  0  0  0  0  0999 V3000
M  V30 BEGIN CTAB
M  V30 COUNTS 54 58 0 0 1
M  V30 BEGIN ATOM
M  V30 1 C 4.991328 -1.483610 -15.386497 0
M  V30 2 C 5.044448 -0.228201 -14.515170 0
M  V30 3 O 4.091585 0.074554 -13.798259 0
M  V30 4 N 6.203328 0.637540 -14.519514 0
M  V30 5 C 7.344842 0.295594 -15.246204 0
M  V30 6 C 8.304927 1.262761 -15.112540 0
M  V30 7 C 7.760243 2.262891 -14.247125 0
M  V30 8 C 8.258980 3.473224 -13.703948 0
M  V30 9 C 7.484063 4.250388 -12.812449 0
M  V30 10 N 8.017079 5.435059 -12.244162 0
M  V30 11 C 7.754062 6.737172 -12.815804 0
M  V30 12 C 8.648253 7.682153 -12.017864 0
M  V30 13 N 9.239417 6.788043 -11.044387 0
M  V30 14 C 10.091613 7.302103 -9.982390 0
M  V30 15 C 9.406100 7.202735 -8.607967 0
M  V30 16 N 10.375178 7.589331 -7.556381 0 CHG=1
M  V30 17 C 10.548302 6.590972 -6.464625 0
M  V30 18 C 11.082282 7.434091 -5.345696 0
M  V30 19 C 11.686032 7.009039 -4.150558 0
M  V30 20 C 12.086836 7.999088 -3.225115 0
M  V30 21 C 11.891730 9.372543 -3.509824 0
M  V30 22 C 11.286249 9.777283 -4.720223 0
M  V30 23 C 10.886036 8.778635 -5.623833 0
M  V30 24 C 10.202765 8.941888 -6.953899 0
M  V30 25 C 8.881865 5.507646 -11.218630 0
M  V30 26 O 9.285872 4.572456 -10.531757 0
M  V30 27 C 6.166609 3.858055 -12.502000 0
M  V30 28 C 5.643506 2.664781 -13.035164 0
M  V30 29 C 6.438444 1.860461 -13.883807 0
M  V30 30 H 5.686419 -2.237533 -15.018912 0
M  V30 31 H 3.987934 -1.912923 -15.373928 0
M  V30 32 H 5.233341 -1.247094 -16.422882 0
M  V30 33 H 7.408998 -0.624228 -15.812292 0
M  V30 34 H 9.291121 1.270944 -15.551757 0
M  V30 35 H 9.263435 3.783902 -13.947301 0
M  V30 36 H 8.066401 6.695741 -13.847885 0
M  V30 37 H 6.699559 7.001609 -12.744669 0
M  V30 38 H 8.086400 8.480964 -11.533832 0
M  V30 39 H 9.421430 8.131749 -12.641057 0
M  V30 40 H 10.357895 8.337245 -10.199072 0
M  V30 41 H 11.021546 6.731255 -9.986342 0
M  V30 42 H 9.084862 6.174520 -8.433469 0
M  V30 43 H 8.488958 7.803421 -8.569492 0
M  V30 44 H 11.230602 5.789554 -6.751053 0
M  V30 45 H 9.588100 6.172491 -6.160628 0
M  V30 46 H 11.829997 5.958556 -3.937089 0
M  V30 47 H 12.544716 7.706948 -2.291054 0
M  V30 48 H 12.202580 10.118219 -2.791790 0
M  V30 49 H 11.127106 10.821971 -4.940566 0
M  V30 50 H 9.146254 9.144394 -6.787464 0
M  V30 51 H 10.640116 9.752750 -7.549071 0
M  V30 52 H 5.567606 4.460497 -11.831329 0
M  V30 53 H 4.640764 2.359032 -12.777336 0
M  V30 54 H 11.280508 7.618991 -8.002653 0
M  V30 END ATOM
M  V30 BEGIN BOND
M  V30 1 1 2 1
M  V30 2 2 3 2
M  V30 3 1 4 2
M  V30 4 1 5 4
M  V30 5 2 6 5
M  V30 6 1 7 6
M  V30 7 1 8 7
M  V30 8 2 9 8
M  V30 9 1 10 9
M  V30 10 1 11 10
M  V30 11 1 12 11
M  V30 12 1 13 12
M  V30 13 1 14 13
M  V30 14 1 15 14
M  V30 15 1 16 15
M  V30 16 1 17 16
M  V30 17 1 18 17
M  V30 18 2 19 18
M  V30 19 1 20 19
M  V30 20 2 21 20
M  V30 21 1 22 21
M  V30 22 1 23 18
M  V30 23 2 23 22
M  V30 24 1 24 16
M  V30 25 1 24 23
M  V30 26 1 25 10
M  V30 27 1 25 13
M  V30 28 2 26 25
M  V30 29 1 27 9
M  V30 30 2 28 27
M  V30 31 1 29 4
M  V30 32 2 29 7
M  V30 33 1 29 28
M  V30 34 1 30 1
M  V30 35 1 31 1
M  V30 36 1 32 1
M  V30 37 1 33 5
M  V30 38 1 34 6
M  V30 39 1 35 8
M  V30 40 1 36 11
M  V30 41 1 37 11
M  V30 42 1 38 12
M  V30 43 1 39 12
M  V30 44 1 40 14
M  V30 45 1 41 14
M  V30 46 1 42 15
M  V30 47 1 43 15
M  V30 48 1 44 17
M  V30 49 1 45 17
M  V30 50 1 46 19
M  V30 51 1 47 20
M  V30 52 1 48 21
M  V30 53 1 49 22
M  V30 54 1 50 24
M  V30 55 1 51 24
M  V30 56 1 52 27
M  V30 57 1 53 28
M  V30 58 1 54 16
M  V30 END BOND
M  V30 END CTAB
M  END
>  <b_m_subgroup_collapsed>  (353) 
0

>  <r_i_docking_score>  (353) 
-8.4641855841263904

>  <s_m_subgroup_title>  (353) 
glide-dock_SP_D22_pv

>  <s_m_subgroupid>  (353) 
glide-dock_SP_D22_pv

>  <Molecule ChEMBL ID>  (353) 
CHEMBL549759

>  <Standard Type>  (353) 
Ki

>  <Standard Value>  (353) 
10000.0

>  <label>  (353) 
0

$$$$
CHEMBL3104522
     RDKit          3D

  0  0  0  0  0  0  0  0  0  0999 V3000
M  V30 BEGIN CTAB
M  V30 COUNTS 59 63 0 0 1
M  V30 BEGIN ATOM
M  V30 1 N 6.439246 0.208450 -16.040909 0
M  V30 2 C 7.585728 0.929244 -15.715309 0
M  V30 3 C 8.846068 0.400276 -16.046352 0
M  V30 4 C 10.013638 1.095555 -15.693996 0
M  V30 5 C 9.930425 2.320591 -15.000162 0
M  V30 6 C 8.663977 2.858665 -14.654063 0
M  V30 7 C 7.493803 2.168105 -15.041920 0
M  V30 8 C 8.547201 4.165247 -13.866934 0 CFG=1
M  V30 9 O 7.431155 4.172975 -12.995386 0
M  V30 10 C 9.833644 4.477989 -13.066489 0 CFG=2
M  V30 11 C 9.791832 5.831244 -12.321278 0
M  V30 12 C 9.387482 5.679888 -10.839512 0
M  V30 13 N 9.495556 6.936127 -10.053929 0 CFG=2 CHG=1
M  V30 14 C 10.905805 7.367936 -9.834047 0
M  V30 15 C 11.012239 8.679707 -9.032435 0
M  V30 16 C 10.224380 8.644489 -7.711756 0 CFG=2
M  V30 17 C 10.896173 7.892818 -6.585997 0
M  V30 18 N 11.164292 6.591610 -6.676822 0
M  V30 19 O 11.684592 6.172922 -5.422579 0
M  V30 20 C 11.732530 7.250229 -4.557526 0
M  V30 21 C 12.159611 7.355819 -3.228579 0
M  V30 22 C 12.141565 8.636087 -2.641314 0
M  V30 23 F 12.560343 8.792626 -1.368018 0
M  V30 24 C 11.698942 9.757274 -3.380207 0
M  V30 25 C 11.277383 9.625352 -4.721600 0
M  V30 26 C 11.286929 8.341339 -5.306601 0
M  V30 27 C 8.798845 8.139979 -7.973768 0
M  V30 28 C 8.761195 6.815229 -8.770674 0
M  V30 29 C 11.045191 4.403015 -14.011982 0
M  V30 30 C 11.226207 2.996396 -14.593108 0
M  V30 31 H 6.548122 -0.780121 -16.228024 0
M  V30 32 H 5.564678 0.451941 -15.596468 0
M  V30 33 H 8.920183 -0.547304 -16.560535 0
M  V30 34 H 10.979481 0.676115 -15.940965 0
M  V30 35 H 6.521285 2.565454 -14.791814 0
M  V30 36 H 8.385852 4.954314 -14.601622 0
M  V30 37 H 7.307512 5.044086 -12.651979 0
M  V30 38 H 9.970753 3.683674 -12.327776 0
M  V30 39 H 10.777988 6.282828 -12.386027 0
M  V30 40 H 9.122270 6.528971 -12.826886 0
M  V30 41 H 8.357604 5.322644 -10.797314 0
M  V30 42 H 9.989171 4.909252 -10.355369 0
M  V30 43 H 11.436740 6.574337 -9.317061 0
M  V30 44 H 11.421654 7.518919 -10.780596 0
M  V30 45 H 12.056461 8.935753 -8.848584 0
M  V30 46 H 10.617265 9.484471 -9.650476 0
M  V30 47 H 10.134510 9.678349 -7.382200 0
M  V30 48 H 12.506051 6.488277 -2.682503 0
M  V30 49 H 11.689115 10.727094 -2.905858 0
M  V30 50 H 10.938057 10.490566 -5.275420 0
M  V30 51 H 8.246533 8.039022 -7.037530 0
M  V30 52 H 8.273704 8.906980 -8.546794 0
M  V30 53 H 7.727211 6.528077 -8.987906 0
M  V30 54 H 9.166782 5.994039 -8.183068 0
M  V30 55 H 11.966500 4.692924 -13.502856 0
M  V30 56 H 10.902507 5.115067 -14.826921 0
M  V30 57 H 11.685164 2.349831 -13.846754 0
M  V30 58 H 11.910427 3.027556 -15.442252 0
M  V30 59 H 9.008978 7.655393 -10.572228 0
M  V30 END ATOM
M  V30 BEGIN BOND
M  V30 1 1 2 1
M  V30 2 1 3 2
M  V30 3 2 4 3
M  V30 4 1 5 4
M  V30 5 2 6 5
M  V30 6 2 7 2
M  V30 7 1 7 6
M  V30 8 1 8 6
M  V30 9 1 9 8
M  V30 10 1 10 8
M  V30 11 1 11 10
M  V30 12 1 12 11
M  V30 13 1 13 12
M  V30 14 1 14 13
M  V30 15 1 15 14
M  V30 16 1 16 15
M  V30 17 1 17 16
M  V30 18 2 18 17
M  V30 19 1 19 18
M  V30 20 1 20 19
M  V30 21 1 21 20
M  V30 22 2 22 21
M  V30 23 1 23 22
M  V30 24 1 24 22
M  V30 25 2 25 24
M  V30 26 1 26 17
M  V30 27 2 26 20
M  V30 28 1 26 25
M  V30 29 1 27 16
M  V30 30 1 28 13
M  V30 31 1 28 27
M  V30 32 1 29 10
M  V30 33 1 30 5
M  V30 34 1 30 29
M  V30 35 1 31 1
M  V30 36 1 32 1
M  V30 37 1 33 3
M  V30 38 1 34 4
M  V30 39 1 35 7
M  V30 40 1 8 36 CFG=3
M  V30 41 1 37 9
M  V30 42 1 10 38 CFG=1
M  V30 43 1 39 11
M  V30 44 1 40 11
M  V30 45 1 41 12
M  V30 46 1 42 12
M  V30 47 1 43 14
M  V30 48 1 44 14
M  V30 49 1 45 15
M  V30 50 1 46 15
M  V30 51 1 16 47 CFG=1
M  V30 52 1 48 21
M  V30 53 1 49 24
M  V30 54 1 50 25
M  V30 55 1 51 27
M  V30 56 1 52 27
M  V30 57 1 53 28
M  V30 58 1 54 28
M  V30 59 1 55 29
M  V30 60 1 56 29
M  V30 61 1 57 30
M  V30 62 1 58 30
M  V30 63 1 13 59 CFG=3
M  V30 END BOND
M  V30 END CTAB
M  END
>  <b_m_subgroup_collapsed>  (354) 
0

>  <r_i_docking_score>  (354) 
-8.4627772831592303

>  <s_m_subgroup_title>  (354) 
glide-dock_SP_D22_pv

>  <s_m_subgroupid>  (354) 
glide-dock_SP_D22_pv

>  <Molecule ChEMBL ID>  (354) 
CHEMBL3104522

>  <Standard Type>  (354) 
Ki

>  <Standard Value>  (354) 
87.1

>  <label>  (354) 
1

$$$$
CHEMBL302186
     RDKit          3D

  0  0  0  0  0  0  0  0  0  0999 V3000
M  V30 BEGIN CTAB
M  V30 COUNTS 52 55 0 0 1
M  V30 BEGIN ATOM
M  V30 1 C 11.964408 8.342522 -2.434146 0
M  V30 2 C 11.953388 7.212882 -3.267700 0
M  V30 3 C 11.717661 7.373004 -4.645864 0
M  V30 4 C 11.507896 8.658368 -5.202160 0
M  V30 5 C 11.531162 8.904222 -6.703330 0
M  V30 6 N 10.441839 8.358107 -7.508700 0
M  V30 7 C 10.777321 8.701420 -8.895128 0
M  V30 8 C 9.686996 8.216092 -9.850406 0
M  V30 9 C 9.571051 6.690870 -9.749707 0
M  V30 10 N 8.486019 6.173337 -10.582726 0 CHG=1
M  V30 11 C 8.601063 6.395811 -12.030235 0
M  V30 12 C 7.855309 5.297582 -12.699940 0
M  V30 13 C 6.508139 5.045560 -12.645590 0
M  V30 14 S 6.105737 3.554426 -13.447552 0
M  V30 15 C 7.808919 3.357356 -13.881935 0
M  V30 16 C 8.309958 2.220600 -14.655952 0
M  V30 17 C 9.703675 2.064386 -14.845796 0
M  V30 18 C 10.210687 0.991071 -15.602643 0
M  V30 19 C 9.325496 0.064340 -16.181614 0
M  V30 20 C 7.937537 0.202534 -15.990880 0
M  V30 21 C 7.430446 1.274980 -15.231969 0
M  V30 22 N 8.574725 4.342705 -13.411074 0
M  V30 23 C 9.285168 6.313312 -8.299733 0
M  V30 24 C 10.338976 6.901823 -7.365930 0
M  V30 25 C 11.444592 9.771996 -4.348999 0
M  V30 26 C 11.686772 9.612017 -2.975624 0
M  V30 27 H 12.164021 8.236610 -1.377371 0
M  V30 28 H 12.154972 6.232177 -2.858258 0
M  V30 29 H 11.820539 6.499465 -5.270830 0
M  V30 30 H 12.486855 8.551327 -7.081804 0
M  V30 31 H 11.548207 9.984376 -6.859413 0
M  V30 32 H 11.736981 8.262167 -9.174078 0
M  V30 33 H 10.887636 9.778696 -9.000852 0
M  V30 34 H 9.937114 8.522717 -10.866609 0
M  V30 35 H 8.739130 8.696952 -9.601138 0
M  V30 36 H 10.505011 6.224791 -10.063193 0
M  V30 37 H 7.625616 6.649127 -10.289306 0
M  V30 38 H 9.648812 6.391993 -12.331252 0
M  V30 39 H 8.193597 7.374074 -12.289624 0
M  V30 40 H 5.741458 5.616556 -12.140259 0
M  V30 41 H 10.400900 2.766571 -14.409689 0
M  V30 42 H 11.276227 0.883024 -15.741616 0
M  V30 43 H 9.708367 -0.762141 -16.762257 0
M  V30 44 H 7.261310 -0.522247 -16.421377 0
M  V30 45 H 6.362117 1.357989 -15.105980 0
M  V30 46 H 8.303120 6.680881 -8.000232 0
M  V30 47 H 9.254430 5.229507 -8.183626 0
M  V30 48 H 11.303004 6.426830 -7.543166 0
M  V30 49 H 10.013756 6.653875 -6.358127 0
M  V30 50 H 11.286070 10.761626 -4.749015 0
M  V30 51 H 11.706586 10.478131 -2.337124 0
M  V30 52 H 8.379746 5.183038 -10.420827 0
M  V30 END ATOM
M  V30 BEGIN BOND
M  V30 1 2 2 1
M  V30 2 1 3 2
M  V30 3 2 4 3
M  V30 4 1 5 4
M  V30 5 1 6 5
M  V30 6 1 7 6
M  V30 7 1 8 7
M  V30 8 1 9 8
M  V30 9 1 10 9
M  V30 10 1 11 10
M  V30 11 1 12 11
M  V30 12 2 13 12
M  V30 13 1 14 13
M  V30 14 1 15 14
M  V30 15 1 16 15
M  V30 16 2 17 16
M  V30 17 1 18 17
M  V30 18 2 19 18
M  V30 19 1 20 19
M  V30 20 1 21 16
M  V30 21 2 21 20
M  V30 22 1 22 12
M  V30 23 2 22 15
M  V30 24 1 23 9
M  V30 25 1 24 6
M  V30 26 1 24 23
M  V30 27 1 25 4
M  V30 28 1 26 1
M  V30 29 2 26 25
M  V30 30 1 27 1
M  V30 31 1 28 2
M  V30 32 1 29 3
M  V30 33 1 30 5
M  V30 34 1 31 5
M  V30 35 1 32 7
M  V30 36 1 33 7
M  V30 37 1 34 8
M  V30 38 1 35 8
M  V30 39 1 36 9
M  V30 40 1 37 10
M  V30 41 1 38 11
M  V30 42 1 39 11
M  V30 43 1 40 13
M  V30 44 1 41 17
M  V30 45 1 42 18
M  V30 46 1 43 19
M  V30 47 1 44 20
M  V30 48 1 45 21
M  V30 49 1 46 23
M  V30 50 1 47 23
M  V30 51 1 48 24
M  V30 52 1 49 24
M  V30 53 1 50 25
M  V30 54 1 51 26
M  V30 55 1 52 10
M  V30 END BOND
M  V30 END CTAB
M  END
>  <b_m_subgroup_collapsed>  (355) 
0

>  <r_i_docking_score>  (355) 
-8.4616389178693403

>  <s_m_subgroup_title>  (355) 
glide-dock_SP_D22_pv

>  <s_m_subgroupid>  (355) 
glide-dock_SP_D22_pv

>  <Molecule ChEMBL ID>  (355) 
CHEMBL302186

>  <Standard Type>  (355) 
Ki

>  <Standard Value>  (355) 
13500.0

>  <label>  (355) 
0

$$$$
CHEMBL4846472
     RDKit          3D

  0  0  0  0  0  0  0  0  0  0999 V3000
M  V30 BEGIN CTAB
M  V30 COUNTS 55 58 0 0 1
M  V30 BEGIN ATOM
M  V30 1 C 5.140166 2.889947 -12.981770 0
M  V30 2 O 6.107584 3.448779 -13.860816 0
M  V30 3 C 7.129586 2.630422 -14.281803 0
M  V30 4 C 6.945161 1.236472 -14.459259 0
M  V30 5 C 7.988352 0.435455 -14.951801 0
M  V30 6 C 9.224483 1.017886 -15.271809 0
M  V30 7 Cl 10.486123 0.058330 -15.937284 0
M  V30 8 C 9.425893 2.393325 -15.076965 0
M  V30 9 C 8.390935 3.212881 -14.582703 0
M  V30 10 C 8.684546 4.684589 -14.427945 0 CFG=2
M  V30 11 C 9.841097 5.110806 -13.556250 0
M  V30 12 C 8.431691 5.502172 -13.171940 0 CFG=2
M  V30 13 C 7.738555 4.905564 -11.964010 0
M  V30 14 N 8.086224 5.561191 -10.698191 0 CHG=1
M  V30 15 C 9.457227 5.313154 -10.206534 0
M  V30 16 C 9.454452 5.018426 -8.703409 0
M  V30 17 C 8.695049 6.080205 -7.908289 0
M  V30 18 O 9.352402 7.331583 -8.065662 0
M  V30 19 C 10.142340 7.765082 -7.030543 0
M  V30 20 C 10.397336 9.143801 -6.942128 0
M  V30 21 C 11.047021 9.697437 -5.818800 0
M  V30 22 C 11.451595 8.844886 -4.774272 0
M  V30 23 C 11.994073 9.319546 -3.499408 0
M  V30 24 C 12.320837 8.454326 -2.518363 0
M  V30 25 C 12.180237 7.006714 -2.690135 0
M  V30 26 O 12.492444 6.181497 -1.847077 0
M  V30 27 N 11.685386 6.594171 -3.868126 0
M  V30 28 C 11.286844 7.453234 -4.912211 0
M  V30 29 C 10.666031 6.911144 -6.040594 0
M  V30 30 H 4.487724 3.693894 -12.647222 0
M  V30 31 H 4.509379 2.134912 -13.447093 0
M  V30 32 H 5.613452 2.456215 -12.099511 0
M  V30 33 H 5.998656 0.762213 -14.254136 0
M  V30 34 H 7.829994 -0.622662 -15.103797 0
M  V30 35 H 10.383463 2.826411 -15.328409 0
M  V30 36 H 8.610606 5.192344 -15.387195 0
M  V30 37 H 10.337219 4.337791 -12.973584 0
M  V30 38 H 10.491531 5.899322 -13.928068 0
M  V30 39 H 8.176740 6.546833 -13.343095 0
M  V30 40 H 6.664375 5.038760 -12.084848 0
M  V30 41 H 7.938690 3.837244 -11.888389 0
M  V30 42 H 7.869919 6.554732 -10.726024 0
M  V30 43 H 9.901676 4.457398 -10.713858 0
M  V30 44 H 10.076784 6.180077 -10.437187 0
M  V30 45 H 8.999464 4.043541 -8.524417 0
M  V30 46 H 10.482847 4.958919 -8.347507 0
M  V30 47 H 7.687263 6.172109 -8.295877 0
M  V30 48 H 8.541982 5.775467 -6.874104 0
M  V30 49 H 10.012507 9.772254 -7.725600 0
M  V30 50 H 11.178795 10.766358 -5.738459 0
M  V30 51 H 12.086982 10.381226 -3.335561 0
M  V30 52 H 12.695877 8.837096 -1.580348 0
M  V30 53 H 11.557675 5.600514 -3.999866 0
M  V30 54 H 10.546979 5.842046 -6.098937 0
M  V30 55 H 7.448938 5.168396 -10.016690 0
M  V30 END ATOM
M  V30 BEGIN BOND
M  V30 1 1 2 1
M  V30 2 1 3 2
M  V30 3 1 4 3
M  V30 4 2 5 4
M  V30 5 1 6 5
M  V30 6 1 7 6
M  V30 7 2 8 6
M  V30 8 2 9 3
M  V30 9 1 9 8
M  V30 10 1 10 9
M  V30 11 1 11 10
M  V30 12 1 12 10
M  V30 13 1 12 11
M  V30 14 1 13 12
M  V30 15 1 14 13
M  V30 16 1 15 14
M  V30 17 1 16 15
M  V30 18 1 17 16
M  V30 19 1 18 17
M  V30 20 1 19 18
M  V30 21 1 20 19
M  V30 22 2 21 20
M  V30 23 1 22 21
M  V30 24 1 23 22
M  V30 25 2 24 23
M  V30 26 1 25 24
M  V30 27 2 26 25
M  V30 28 1 27 25
M  V30 29 2 28 22
M  V30 30 1 28 27
M  V30 31 2 29 19
M  V30 32 1 29 28
M  V30 33 1 30 1
M  V30 34 1 31 1
M  V30 35 1 32 1
M  V30 36 1 33 4
M  V30 37 1 34 5
M  V30 38 1 35 8
M  V30 39 1 10 36 CFG=3
M  V30 40 1 37 11
M  V30 41 1 38 11
M  V30 42 1 12 39 CFG=3
M  V30 43 1 40 13
M  V30 44 1 41 13
M  V30 45 1 42 14
M  V30 46 1 43 15
M  V30 47 1 44 15
M  V30 48 1 45 16
M  V30 49 1 46 16
M  V30 50 1 47 17
M  V30 51 1 48 17
M  V30 52 1 49 20
M  V30 53 1 50 21
M  V30 54 1 51 23
M  V30 55 1 52 24
M  V30 56 1 53 27
M  V30 57 1 54 29
M  V30 58 1 55 14
M  V30 END BOND
M  V30 END CTAB
M  END
>  <b_m_subgroup_collapsed>  (356) 
0

>  <r_i_docking_score>  (356) 
-8.4612807235565501

>  <s_m_subgroup_title>  (356) 
glide-dock_SP_D22_pv

>  <s_m_subgroupid>  (356) 
glide-dock_SP_D22_pv

>  <Molecule ChEMBL ID>  (356) 
CHEMBL4846472

>  <Standard Type>  (356) 
Ki

>  <Standard Value>  (356) 
32.9

>  <label>  (356) 
1

$$$$
CHEMBL124234
     RDKit          3D

  0  0  0  0  0  0  0  0  0  0999 V3000
M  V30 BEGIN CTAB
M  V30 COUNTS 53 56 0 0 1
M  V30 BEGIN ATOM
M  V30 1 C 5.731862 1.931685 -13.625258 0
M  V30 2 C 6.486018 3.219609 -13.365880 0
M  V30 3 C 5.900824 4.237196 -12.586877 0
M  V30 4 C 6.642211 5.384552 -12.246867 0
M  V30 5 C 7.984783 5.511687 -12.660626 0
M  V30 6 C 8.797976 6.745623 -12.301994 0
M  V30 7 N 8.886022 7.074896 -10.856260 0 CFG=2 CHG=1
M  V30 8 C 9.626585 8.340652 -10.660861 0
M  V30 9 C 9.642678 8.777984 -9.193507 0
M  V30 10 C 10.240041 7.689484 -8.271398 0 CFG=1
M  V30 11 C 10.346857 8.120013 -6.764836 0 CFG=2
M  V30 12 C 10.848810 9.560712 -6.617090 0
M  V30 13 C 11.042539 10.093757 -5.197429 0
M  V30 14 C 11.605865 9.073707 -4.237858 0
M  V30 15 C 12.048610 9.504128 -2.971854 0
M  V30 16 C 12.486026 8.572309 -2.016731 0
M  V30 17 C 12.486021 7.202487 -2.329937 0
M  V30 18 C 12.086015 6.776553 -3.606143 0
M  V30 19 C 11.642323 7.700458 -4.571476 0
M  V30 20 C 11.263675 7.219393 -5.927550 0
M  V30 21 O 11.686021 6.172326 -6.401019 0
M  V30 22 C 9.407198 6.403943 -8.499455 0
M  V30 23 C 9.396262 5.984609 -9.984986 0
M  V30 24 C 8.558109 4.505913 -13.468642 0
M  V30 25 C 7.807039 3.372319 -13.835305 0
M  V30 26 H 5.891301 1.584604 -14.646186 0
M  V30 27 H 6.086025 1.152735 -12.950296 0
M  V30 28 H 4.663375 2.056294 -13.446908 0
M  V30 29 H 4.889738 4.132907 -12.222496 0
M  V30 30 H 6.178208 6.155007 -11.647248 0
M  V30 31 H 8.338405 7.588270 -12.819340 0
M  V30 32 H 9.809481 6.638668 -12.696475 0
M  V30 33 H 9.157025 9.121745 -11.259546 0
M  V30 34 H 10.649197 8.229315 -11.025652 0
M  V30 35 H 8.633724 9.037510 -8.866995 0
M  V30 36 H 10.234612 9.691094 -9.159802 0
M  V30 37 H 11.253793 7.498502 -8.629614 0
M  V30 38 H 9.352943 8.062840 -6.318949 0
M  V30 39 H 11.768143 9.693656 -7.189468 0
M  V30 40 H 10.086021 10.172335 -7.046868 0
M  V30 41 H 10.086041 10.425089 -4.793117 0
M  V30 42 H 11.683543 10.972297 -5.236717 0
M  V30 43 H 12.027950 10.553390 -2.712943 0
M  V30 44 H 12.813087 8.912832 -1.046858 0
M  V30 45 H 12.817428 6.474392 -1.603866 0
M  V30 46 H 12.108295 5.727949 -3.842742 0
M  V30 47 H 9.788261 5.571881 -7.909182 0
M  V30 48 H 8.383919 6.565313 -8.157432 0
M  V30 49 H 8.778226 5.093295 -10.100135 0
M  V30 50 H 10.404986 5.718224 -10.297887 0
M  V30 51 H 9.577958 4.595541 -13.813548 0
M  V30 52 H 8.264656 2.596296 -14.431756 0
M  V30 53 H 7.923237 7.273484 -10.559506 0
M  V30 END ATOM
M  V30 BEGIN BOND
M  V30 1 1 2 1
M  V30 2 1 3 2
M  V30 3 2 4 3
M  V30 4 1 5 4
M  V30 5 1 6 5
M  V30 6 1 7 6
M  V30 7 1 8 7
M  V30 8 1 9 8
M  V30 9 1 10 9
M  V30 10 1 11 10
M  V30 11 1 12 11
M  V30 12 1 13 12
M  V30 13 1 14 13
M  V30 14 2 15 14
M  V30 15 1 16 15
M  V30 16 2 17 16
M  V30 17 1 18 17
M  V30 18 1 19 14
M  V30 19 2 19 18
M  V30 20 1 20 11
M  V30 21 1 20 19
M  V30 22 2 21 20
M  V30 23 1 22 10
M  V30 24 1 23 7
M  V30 25 1 23 22
M  V30 26 2 24 5
M  V30 27 2 25 2
M  V30 28 1 25 24
M  V30 29 1 26 1
M  V30 30 1 27 1
M  V30 31 1 28 1
M  V30 32 1 29 3
M  V30 33 1 30 4
M  V30 34 1 31 6
M  V30 35 1 32 6
M  V30 36 1 33 8
M  V30 37 1 34 8
M  V30 38 1 35 9
M  V30 39 1 36 9
M  V30 40 1 10 37 CFG=3
M  V30 41 1 11 38 CFG=1
M  V30 42 1 39 12
M  V30 43 1 40 12
M  V30 44 1 41 13
M  V30 45 1 42 13
M  V30 46 1 43 15
M  V30 47 1 44 16
M  V30 48 1 45 17
M  V30 49 1 46 18
M  V30 50 1 47 22
M  V30 51 1 48 22
M  V30 52 1 49 23
M  V30 53 1 50 23
M  V30 54 1 51 24
M  V30 55 1 52 25
M  V30 56 1 7 53 CFG=1
M  V30 END BOND
M  V30 END CTAB
M  END
>  <b_m_subgroup_collapsed>  (357) 
0

>  <r_i_docking_score>  (357) 
-8.4606479658655296

>  <s_m_subgroup_title>  (357) 
glide-dock_SP_D22_pv

>  <s_m_subgroupid>  (357) 
glide-dock_SP_D22_pv

>  <Molecule ChEMBL ID>  (357) 
CHEMBL124234

>  <Standard Type>  (357) 
Ki

>  <Standard Value>  (357) 
37.0

>  <label>  (357) 
1

$$$$
CHEMBL5931021
     RDKit          3D

  0  0  0  0  0  0  0  0  0  0999 V3000
M  V30 BEGIN CTAB
M  V30 COUNTS 61 64 0 0 1
M  V30 BEGIN ATOM
M  V30 1 C 4.647544 -1.875464 -15.790895 0
M  V30 2 N 5.576894 -0.749061 -15.709874 0
M  V30 3 C 6.477927 -0.574470 -16.860664 0
M  V30 4 C 7.824667 0.078373 -16.491329 0
M  V30 5 C 7.636911 1.227962 -15.532350 0
M  V30 6 C 8.573347 2.277370 -15.503347 0
M  V30 7 C 8.374740 3.372747 -14.646163 0
M  V30 8 C 7.219043 3.440508 -13.824721 0
M  V30 9 O 6.915104 4.484435 -12.972399 0
M  V30 10 C 7.879878 5.510062 -12.756617 0
M  V30 11 C 9.031739 4.992165 -11.876294 0
M  V30 12 C 8.699949 4.928957 -10.366240 0
M  V30 13 N 8.884529 6.193599 -9.586432 0 CFG=2 CHG=1
M  V30 14 C 10.210126 6.805886 -9.855404 0
M  V30 15 C 10.594112 7.930136 -8.903357 0
M  V30 16 C 10.506495 7.493458 -7.427585 0 CFG=1
M  V30 17 C 10.926895 8.650830 -6.513829 0
M  V30 18 O 10.886235 9.777203 -6.983799 0
M  V30 19 C 11.382868 8.431438 -5.115582 0
M  V30 20 C 11.684320 7.160986 -4.565709 0
M  V30 21 C 12.171383 7.063875 -3.242671 0
M  V30 22 C 12.385556 8.230501 -2.479657 0
M  V30 23 F 12.885825 8.172693 -1.226147 0
M  V30 24 C 12.082193 9.484987 -3.019565 0
M  V30 25 C 11.575346 9.584939 -4.321454 0
M  V30 26 C 9.048239 7.084313 -7.193146 0
M  V30 27 C 8.642911 5.936641 -8.134711 0
M  V30 28 C 6.308380 2.366274 -13.846978 0
M  V30 29 C 6.516627 1.244212 -14.674973 0
M  V30 30 C 5.560784 0.079805 -14.640451 0
M  V30 31 O 4.789235 -0.062951 -13.687964 0
M  V30 32 H 3.618777 -1.558181 -15.603272 0
M  V30 33 H 4.657909 -2.359025 -16.769051 0
M  V30 34 H 4.913965 -2.627940 -15.048615 0
M  V30 35 H 6.661695 -1.521868 -17.367683 0
M  V30 36 H 5.958145 0.064489 -17.576151 0
M  V30 37 H 8.340288 0.413915 -17.391882 0
M  V30 38 H 8.489662 -0.627486 -16.000074 0
M  V30 39 H 9.443253 2.250179 -16.143538 0
M  V30 40 H 9.113574 4.160062 -14.654638 0
M  V30 41 H 7.387203 6.347558 -12.264086 0
M  V30 42 H 8.241638 5.902771 -13.706414 0
M  V30 43 H 9.940817 5.546072 -12.093315 0
M  V30 44 H 9.283850 3.977789 -12.186007 0
M  V30 45 H 9.353671 4.172695 -9.928200 0
M  V30 46 H 7.686104 4.553771 -10.242090 0
M  V30 47 H 10.241753 7.214358 -10.865723 0
M  V30 48 H 10.949048 6.021161 -9.783733 0
M  V30 49 H 9.937329 8.780255 -9.096422 0
M  V30 50 H 11.604335 8.267893 -9.140428 0
M  V30 51 H 11.170392 6.647236 -7.259997 0
M  V30 52 H 11.550186 6.256109 -5.141392 0
M  V30 53 H 12.399709 6.096127 -2.821202 0
M  V30 54 H 12.220969 10.376438 -2.426442 0
M  V30 55 H 11.347664 10.570054 -4.704851 0
M  V30 56 H 8.890585 6.771070 -6.161356 0
M  V30 57 H 8.386790 7.938740 -7.351511 0
M  V30 58 H 7.581214 5.765537 -7.991704 0
M  V30 59 H 9.164622 5.027065 -7.835557 0
M  V30 60 H 5.443163 2.405143 -13.200320 0
M  V30 61 H 8.165908 6.855616 -9.873418 0
M  V30 END ATOM
M  V30 BEGIN BOND
M  V30 1 1 2 1
M  V30 2 1 3 2
M  V30 3 1 4 3
M  V30 4 1 5 4
M  V30 5 1 6 5
M  V30 6 2 7 6
M  V30 7 1 8 7
M  V30 8 1 9 8
M  V30 9 1 10 9
M  V30 10 1 11 10
M  V30 11 1 12 11
M  V30 12 1 13 12
M  V30 13 1 14 13
M  V30 14 1 15 14
M  V30 15 1 16 15
M  V30 16 1 17 16
M  V30 17 2 18 17
M  V30 18 1 19 17
M  V30 19 1 20 19
M  V30 20 2 21 20
M  V30 21 1 22 21
M  V30 22 1 23 22
M  V30 23 2 24 22
M  V30 24 2 25 19
M  V30 25 1 25 24
M  V30 26 1 26 16
M  V30 27 1 27 13
M  V30 28 1 27 26
M  V30 29 2 28 8
M  V30 30 2 29 5
M  V30 31 1 29 28
M  V30 32 1 30 2
M  V30 33 1 30 29
M  V30 34 2 31 30
M  V30 35 1 32 1
M  V30 36 1 33 1
M  V30 37 1 34 1
M  V30 38 1 35 3
M  V30 39 1 36 3
M  V30 40 1 37 4
M  V30 41 1 38 4
M  V30 42 1 39 6
M  V30 43 1 40 7
M  V30 44 1 41 10
M  V30 45 1 42 10
M  V30 46 1 43 11
M  V30 47 1 44 11
M  V30 48 1 45 12
M  V30 49 1 46 12
M  V30 50 1 47 14
M  V30 51 1 48 14
M  V30 52 1 49 15
M  V30 53 1 50 15
M  V30 54 1 16 51 CFG=3
M  V30 55 1 52 20
M  V30 56 1 53 21
M  V30 57 1 54 24
M  V30 58 1 55 25
M  V30 59 1 56 26
M  V30 60 1 57 26
M  V30 61 1 58 27
M  V30 62 1 59 27
M  V30 63 1 60 28
M  V30 64 1 13 61 CFG=3
M  V30 END BOND
M  V30 END CTAB
M  END
>  <b_m_subgroup_collapsed>  (358) 
0

>  <r_i_docking_score>  (358) 
-8.4576617034771804

>  <s_m_subgroup_title>  (358) 
glide-dock_SP_D22_pv

>  <s_m_subgroupid>  (358) 
glide-dock_SP_D22_pv

>  <Molecule ChEMBL ID>  (358) 
CHEMBL5931021

>  <Standard Type>  (358) 
Ki

>  <Standard Value>  (358) 
32.8

>  <label>  (358) 
1

$$$$
CHEMBL93958
     RDKit          3D

  0  0  0  0  0  0  0  0  0  0999 V3000
M  V30 BEGIN CTAB
M  V30 COUNTS 49 52 0 0 1
M  V30 BEGIN ATOM
M  V30 1 O 12.483670 8.173086 -9.974860 0
M  V30 2 C 11.794310 8.092697 -8.961821 0
M  V30 3 N 12.086816 8.577863 -7.750201 0
M  V30 4 C 11.154033 8.147491 -6.825825 0
M  V30 5 C 11.385714 8.173828 -5.379410 0
M  V30 6 C 11.779604 9.367826 -4.741936 0
M  V30 7 C 12.116023 9.349305 -3.373679 0
M  V30 8 C 12.086878 8.142621 -2.650699 0
M  V30 9 C 11.686561 6.953574 -3.287623 0
M  V30 10 C 11.302171 6.972433 -4.644693 0
M  V30 11 C 10.258682 7.432902 -7.506639 0
M  V30 12 N 10.625143 7.439908 -8.845354 0
M  V30 13 C 9.993352 6.668240 -9.918933 0 CFG=1
M  V30 14 C 9.044179 5.559709 -9.413539 0
M  V30 15 C 8.393111 4.813361 -10.584618 0
M  V30 16 N 7.686356 5.780694 -11.447074 0 CFG=2 CHG=1
M  V30 17 C 6.634564 5.252009 -12.353831 0
M  V30 18 C 6.972129 3.986816 -13.130376 0
M  V30 19 C 6.064241 2.906239 -13.107879 0
M  V30 20 C 6.325486 1.734035 -13.847755 0
M  V30 21 C 7.500860 1.634442 -14.615131 0
M  V30 22 C 8.411500 2.708200 -14.640840 0
M  V30 23 C 8.143330 3.883189 -13.911917 0
M  V30 24 C 8.619362 6.766703 -12.048715 0
M  V30 25 C 9.284758 7.591207 -10.931720 0
M  V30 26 H 12.937867 9.057553 -7.494056 0
M  V30 27 H 11.846862 10.288141 -5.303218 0
M  V30 28 H 12.429968 10.248742 -2.872112 0
M  V30 29 H 12.362004 8.134356 -1.606417 0
M  V30 30 H 11.659078 6.028168 -2.729265 0
M  V30 31 H 11.005269 6.052530 -5.126741 0
M  V30 32 H 9.442906 6.823777 -7.148012 0
M  V30 33 H 10.801077 6.172492 -10.453734 0
M  V30 34 H 9.581692 4.855276 -8.778425 0
M  V30 35 H 8.246781 5.992133 -8.806061 0
M  V30 36 H 7.685439 4.090454 -10.189245 0
M  V30 37 H 9.136044 4.257680 -11.159470 0
M  V30 38 H 5.764351 5.047813 -11.729168 0
M  V30 39 H 6.308027 6.026873 -13.046923 0
M  V30 40 H 5.154241 2.969481 -12.528117 0
M  V30 41 H 5.623577 0.912516 -13.826908 0
M  V30 42 H 7.705090 0.733904 -15.176266 0
M  V30 43 H 9.312249 2.631846 -15.233030 0
M  V30 44 H 8.843571 4.699419 -13.975147 0
M  V30 45 H 8.076313 7.439660 -12.713052 0
M  V30 46 H 9.385846 6.271721 -12.642008 0
M  V30 47 H 8.502522 8.176473 -10.436194 0
M  V30 48 H 9.986223 8.306908 -11.361872 0
M  V30 49 H 7.150254 6.372278 -10.808689 0
M  V30 END ATOM
M  V30 BEGIN BOND
M  V30 1 2 2 1
M  V30 2 1 3 2
M  V30 3 1 4 3
M  V30 4 1 5 4
M  V30 5 2 6 5
M  V30 6 1 7 6
M  V30 7 2 8 7
M  V30 8 1 9 8
M  V30 9 1 10 5
M  V30 10 2 10 9
M  V30 11 2 11 4
M  V30 12 1 12 2
M  V30 13 1 12 11
M  V30 14 1 13 12
M  V30 15 1 14 13
M  V30 16 1 15 14
M  V30 17 1 16 15
M  V30 18 1 17 16
M  V30 19 1 18 17
M  V30 20 2 19 18
M  V30 21 1 20 19
M  V30 22 2 21 20
M  V30 23 1 22 21
M  V30 24 1 23 18
M  V30 25 2 23 22
M  V30 26 1 24 16
M  V30 27 1 25 13
M  V30 28 1 25 24
M  V30 29 1 26 3
M  V30 30 1 27 6
M  V30 31 1 28 7
M  V30 32 1 29 8
M  V30 33 1 30 9
M  V30 34 1 31 10
M  V30 35 1 32 11
M  V30 36 1 13 33 CFG=3
M  V30 37 1 34 14
M  V30 38 1 35 14
M  V30 39 1 36 15
M  V30 40 1 37 15
M  V30 41 1 38 17
M  V30 42 1 39 17
M  V30 43 1 40 19
M  V30 44 1 41 20
M  V30 45 1 42 21
M  V30 46 1 43 22
M  V30 47 1 44 23
M  V30 48 1 45 24
M  V30 49 1 46 24
M  V30 50 1 47 25
M  V30 51 1 48 25
M  V30 52 1 16 49 CFG=1
M  V30 END BOND
M  V30 END CTAB
M  END
>  <b_m_subgroup_collapsed>  (359) 
0

>  <r_i_docking_score>  (359) 
-8.4538425998584508

>  <s_m_subgroup_title>  (359) 
glide-dock_SP_D22_pv

>  <s_m_subgroupid>  (359) 
glide-dock_SP_D22_pv

>  <Molecule ChEMBL ID>  (359) 
CHEMBL93958

>  <Standard Type>  (359) 
Ki

>  <Standard Value>  (359) 
82.0

>  <label>  (359) 
1

$$$$
CHEMBL5289958
     RDKit          3D

  0  0  0  0  0  0  0  0  0  0999 V3000
M  V30 BEGIN CTAB
M  V30 COUNTS 58 62 0 0 1
M  V30 BEGIN ATOM
M  V30 1 F 10.714321 -0.201108 -17.411501 0
M  V30 2 C 10.850272 0.907914 -16.646198 0
M  V30 3 C 10.485888 0.873247 -15.287620 0
M  V30 4 C 10.652261 2.020505 -14.486929 0
M  V30 5 C 11.156215 3.216776 -15.039001 0
M  V30 6 C 11.319448 4.465961 -14.177955 0
M  V30 7 N 10.134417 4.813997 -13.339891 0 CFG=2 CHG=1
M  V30 8 C 8.838803 4.735329 -14.067902 0
M  V30 9 C 7.669652 4.979239 -13.114524 0
M  V30 10 C 7.786511 6.376729 -12.512080 0
M  V30 11 C 9.122822 6.567957 -11.756898 0 CFG=1
M  V30 12 C 9.290564 8.049670 -11.352612 0
M  V30 13 C 9.432742 8.091056 -9.833529 0
M  V30 14 N 9.751522 6.713814 -9.405366 0 CFG=1 CHG=1
M  V30 15 C 9.388320 6.385934 -8.003269 0
M  V30 16 C 10.142949 7.173674 -6.971189 0
M  V30 17 C 10.171106 8.530407 -6.774431 0
M  V30 18 C 10.867081 8.763051 -5.548153 0
M  V30 19 C 11.105213 9.918073 -4.779780 0
M  V30 20 C 11.688557 9.814386 -3.507578 0
M  V30 21 C 12.126107 8.583873 -3.006597 0
M  V30 22 Cl 12.866173 8.572309 -1.451059 0
M  V30 23 C 11.943223 7.412951 -3.772622 0
M  V30 24 C 11.286535 7.509368 -5.019033 0
M  V30 25 N 10.866300 6.572477 -5.946110 0
M  V30 26 C 9.117061 5.822135 -10.399708 0
M  V30 27 C 10.316343 6.135197 -12.661530 0
M  V30 28 C 11.508877 3.246989 -16.405029 0
M  V30 29 C 11.361787 2.095762 -17.205162 0
M  V30 30 F 11.715185 2.133312 -18.511148 0
M  V30 31 H 10.093298 -0.036728 -14.856059 0
M  V30 32 H 10.372906 1.980421 -13.446876 0
M  V30 33 H 12.185745 4.327711 -13.529269 0
M  V30 34 H 11.553353 5.309668 -14.829021 0
M  V30 35 H 8.827359 5.458145 -14.884442 0
M  V30 36 H 8.684548 3.759418 -14.523104 0
M  V30 37 H 6.724847 4.888558 -13.651197 0
M  V30 38 H 7.650523 4.222487 -12.329551 0
M  V30 39 H 7.699708 7.112392 -13.310211 0
M  V30 40 H 6.943291 6.566134 -11.849533 0
M  V30 41 H 10.169339 8.496766 -11.815070 0
M  V30 42 H 8.443242 8.664573 -11.660089 0
M  V30 43 H 10.208960 8.795666 -9.535069 0
M  V30 44 H 8.487000 8.413509 -9.389827 0
M  V30 45 H 8.317307 6.536974 -7.859580 0
M  V30 46 H 9.563457 5.320696 -7.846093 0
M  V30 47 H 9.686596 9.295535 -7.360536 0
M  V30 48 H 10.777615 10.881056 -5.143651 0
M  V30 49 H 11.821775 10.699838 -2.903638 0
M  V30 50 H 12.252980 6.453151 -3.386533 0
M  V30 51 H 10.944549 5.568696 -5.835892 0
M  V30 52 H 8.087454 5.637639 -10.082257 0
M  V30 53 H 9.616241 4.853629 -10.436416 0
M  V30 54 H 11.244782 6.172446 -12.098389 0
M  V30 55 H 10.486468 6.877991 -13.434805 0
M  V30 56 H 11.900708 4.149123 -16.851114 0
M  V30 57 H 10.084927 4.105718 -12.620969 0
M  V30 58 H 10.750582 6.605192 -9.490704 0
M  V30 END ATOM
M  V30 BEGIN BOND
M  V30 1 1 2 1
M  V30 2 1 3 2
M  V30 3 2 4 3
M  V30 4 1 5 4
M  V30 5 1 6 5
M  V30 6 1 7 6
M  V30 7 1 8 7
M  V30 8 1 9 8
M  V30 9 1 10 9
M  V30 10 1 11 10 CFG=3
M  V30 11 1 12 11
M  V30 12 1 13 12
M  V30 13 1 14 13
M  V30 14 1 15 14
M  V30 15 1 16 15
M  V30 16 2 17 16
M  V30 17 1 18 17
M  V30 18 1 19 18
M  V30 19 2 20 19
M  V30 20 1 21 20
M  V30 21 1 22 21
M  V30 22 2 23 21
M  V30 23 2 24 18
M  V30 24 1 24 23
M  V30 25 1 25 16
M  V30 26 1 25 24
M  V30 27 1 26 11
M  V30 28 1 26 14
M  V30 29 1 27 7
M  V30 30 1 27 11
M  V30 31 2 28 5
M  V30 32 2 29 2
M  V30 33 1 29 28
M  V30 34 1 30 29
M  V30 35 1 31 3
M  V30 36 1 32 4
M  V30 37 1 33 6
M  V30 38 1 34 6
M  V30 39 1 35 8
M  V30 40 1 36 8
M  V30 41 1 37 9
M  V30 42 1 38 9
M  V30 43 1 39 10
M  V30 44 1 40 10
M  V30 45 1 41 12
M  V30 46 1 42 12
M  V30 47 1 43 13
M  V30 48 1 44 13
M  V30 49 1 45 15
M  V30 50 1 46 15
M  V30 51 1 47 17
M  V30 52 1 48 19
M  V30 53 1 49 20
M  V30 54 1 50 23
M  V30 55 1 51 25
M  V30 56 1 52 26
M  V30 57 1 53 26
M  V30 58 1 54 27
M  V30 59 1 55 27
M  V30 60 1 56 28
M  V30 61 1 7 57 CFG=1
M  V30 62 1 14 58 CFG=1
M  V30 END BOND
M  V30 END CTAB
M  END
>  <b_m_subgroup_collapsed>  (360) 
0

>  <r_i_docking_score>  (360) 
-8.4517841618812906

>  <s_m_subgroup_title>  (360) 
glide-dock_SP_D22_pv

>  <s_m_subgroupid>  (360) 
glide-dock_SP_D22_pv

>  <Molecule ChEMBL ID>  (360) 
CHEMBL5289958

>  <Standard Type>  (360) 
Ki

>  <Standard Value>  (360) 
10000.0

>  <label>  (360) 
0

$$$$
CHEMBL493909
     RDKit          3D

  0  0  0  0  0  0  0  0  0  0999 V3000
M  V30 BEGIN CTAB
M  V30 COUNTS 64 66 0 0 1
M  V30 BEGIN ATOM
M  V30 1 C 12.159421 10.840113 -6.257032 0
M  V30 2 S 10.886008 10.572285 -5.046653 0
M  V30 3 C 11.373389 9.077242 -4.293997 0
M  V30 4 C 11.883901 9.166247 -2.984856 0
M  V30 5 C 12.273700 8.010721 -2.292926 0
M  V30 6 C 12.158265 6.762115 -2.921874 0
M  V30 7 C 11.686239 6.683788 -4.245748 0
M  V30 8 C 11.286015 7.829494 -4.967998 0
M  V30 9 N 10.833821 7.678634 -6.302265 0
M  V30 10 C 11.525216 6.764313 -7.203568 0
M  V30 11 C 10.486152 5.844137 -7.841111 0
M  V30 12 N 9.502494 6.622192 -8.597586 0 CHG=1
M  V30 13 C 8.646336 5.729779 -9.401647 0
M  V30 14 C 9.148462 5.556635 -10.836672 0
M  V30 15 C 8.035714 4.969912 -11.715974 0
M  V30 16 C 8.462199 4.713084 -13.163853 0
M  V30 17 C 9.529136 3.605853 -13.291964 0
M  V30 18 C 9.259003 2.676212 -14.472259 0
M  V30 19 O 8.897648 3.132455 -15.556209 0
M  V30 20 N 9.431341 1.368224 -14.246964 0
M  V30 21 C 9.146646 0.323853 -15.228220 0
M  V30 22 C 10.062801 0.239446 -16.450191 0
M  V30 23 C 9.688615 -0.619695 -17.505142 0
M  V30 24 C 10.510001 -0.762536 -18.639645 0
M  V30 25 C 11.718305 -0.043917 -18.732639 0
M  V30 26 C 12.587572 -0.225001 -19.882431 0
M  V30 27 N 13.280089 -0.371144 -20.797911 0
M  V30 28 C 12.085223 0.841116 -17.700651 0
M  V30 29 C 11.266624 0.975697 -16.561739 0
M  V30 30 C 8.749396 7.513019 -7.679036 0
M  V30 31 C 9.681754 8.404922 -6.847122 0
M  V30 32 H 12.090726 11.854730 -6.646859 0
M  V30 33 H 13.141541 10.657916 -5.842970 0
M  V30 34 H 12.029801 10.117537 -7.052061 0
M  V30 35 H 11.964148 10.128012 -2.498597 0
M  V30 36 H 12.652743 8.085371 -1.284222 0
M  V30 37 H 12.442976 5.862792 -2.394385 0
M  V30 38 H 11.602776 5.717573 -4.703005 0
M  V30 39 H 12.045508 7.347167 -7.964663 0
M  V30 40 H 12.283352 6.167560 -6.698371 0
M  V30 41 H 10.886176 5.055111 -8.468464 0
M  V30 42 H 9.926648 5.372207 -7.046996 0
M  V30 43 H 8.489506 4.763741 -8.916699 0
M  V30 44 H 7.678487 6.172826 -9.453064 0
M  V30 45 H 9.451739 6.519650 -11.250089 0
M  V30 46 H 10.028494 4.913576 -10.842338 0
M  V30 47 H 7.657490 4.046376 -11.275983 0
M  V30 48 H 7.190206 5.661084 -11.723173 0
M  V30 49 H 7.561627 4.448510 -13.720787 0
M  V30 50 H 8.827751 5.635726 -13.617244 0
M  V30 51 H 10.520523 4.045921 -13.402267 0
M  V30 52 H 9.568851 2.995261 -12.387038 0
M  V30 53 H 9.686814 1.081598 -13.302281 0
M  V30 54 H 9.199301 -0.627835 -14.707923 0
M  V30 55 H 8.115278 0.426533 -15.567875 0
M  V30 56 H 8.766247 -1.179552 -17.446873 0
M  V30 57 H 10.210588 -1.430318 -19.434801 0
M  V30 58 H 13.008168 1.400464 -17.761032 0
M  V30 59 H 11.583267 1.640187 -15.771788 0
M  V30 60 H 8.086962 8.162057 -8.245847 0
M  V30 61 H 8.122282 6.912622 -7.017573 0
M  V30 62 H 9.088836 8.856948 -6.056243 0
M  V30 63 H 10.042713 9.214019 -7.480543 0
M  V30 64 H 9.995222 7.224486 -9.240088 0
M  V30 END ATOM
M  V30 BEGIN BOND
M  V30 1 1 2 1
M  V30 2 1 3 2
M  V30 3 2 4 3
M  V30 4 1 5 4
M  V30 5 2 6 5
M  V30 6 1 7 6
M  V30 7 1 8 3
M  V30 8 2 8 7
M  V30 9 1 9 8
M  V30 10 1 10 9
M  V30 11 1 11 10
M  V30 12 1 12 11
M  V30 13 1 13 12
M  V30 14 1 14 13
M  V30 15 1 15 14
M  V30 16 1 16 15
M  V30 17 1 17 16
M  V30 18 1 18 17
M  V30 19 2 19 18
M  V30 20 1 20 18
M  V30 21 1 21 20
M  V30 22 1 22 21
M  V30 23 1 23 22
M  V30 24 2 24 23
M  V30 25 1 25 24
M  V30 26 1 26 25
M  V30 27 3 27 26
M  V30 28 2 28 25
M  V30 29 2 29 22
M  V30 30 1 29 28
M  V30 31 1 30 12
M  V30 32 1 31 9
M  V30 33 1 31 30
M  V30 34 1 32 1
M  V30 35 1 33 1
M  V30 36 1 34 1
M  V30 37 1 35 4
M  V30 38 1 36 5
M  V30 39 1 37 6
M  V30 40 1 38 7
M  V30 41 1 39 10
M  V30 42 1 40 10
M  V30 43 1 41 11
M  V30 44 1 42 11
M  V30 45 1 43 13
M  V30 46 1 44 13
M  V30 47 1 45 14
M  V30 48 1 46 14
M  V30 49 1 47 15
M  V30 50 1 48 15
M  V30 51 1 49 16
M  V30 52 1 50 16
M  V30 53 1 51 17
M  V30 54 1 52 17
M  V30 55 1 53 20
M  V30 56 1 54 21
M  V30 57 1 55 21
M  V30 58 1 56 23
M  V30 59 1 57 24
M  V30 60 1 58 28
M  V30 61 1 59 29
M  V30 62 1 60 30
M  V30 63 1 61 30
M  V30 64 1 62 31
M  V30 65 1 63 31
M  V30 66 1 64 12
M  V30 END BOND
M  V30 END CTAB
M  END
>  <b_m_subgroup_collapsed>  (361) 
0

>  <r_i_docking_score>  (361) 
-8.4474102065726395

>  <s_m_subgroup_title>  (361) 
glide-dock_SP_D22_pv

>  <s_m_subgroupid>  (361) 
glide-dock_SP_D22_pv

>  <Molecule ChEMBL ID>  (361) 
CHEMBL493909

>  <Standard Type>  (361) 
Ki

>  <Standard Value>  (361) 
5.3

>  <label>  (361) 
1

$$$$
CHEMBL1256786
     RDKit          3D

  0  0  0  0  0  0  0  0  0  0999 V3000
M  V30 BEGIN CTAB
M  V30 COUNTS 50 51 0 0 1
M  V30 BEGIN ATOM
M  V30 1 C 12.635833 8.760530 -2.626645 0
M  V30 2 O 12.678840 9.372327 -3.908291 0
M  V30 3 C 11.890941 8.837268 -4.900765 0
M  V30 4 C 11.286022 7.560904 -4.818145 0
M  V30 5 C 10.418908 7.119922 -5.833877 0
M  V30 6 C 10.167900 7.922072 -6.963624 0
M  V30 7 C 9.124890 7.495924 -7.986723 0
M  V30 8 C 9.607648 6.486570 -9.051175 0 CFG=1
M  V30 9 C 10.116202 5.185128 -8.424973 0
M  V30 10 N 8.486021 6.172324 -9.955050 0 CHG=1
M  V30 11 C 8.815883 5.531459 -11.239971 0
M  V30 12 C 7.584705 5.461417 -12.169012 0 CFG=1
M  V30 13 O 7.286025 6.760867 -12.646864 0
M  V30 14 C 7.844031 4.483188 -13.306326 0
M  V30 15 C 8.976454 4.631887 -14.134547 0
M  V30 16 C 9.286022 3.651077 -15.093017 0
M  V30 17 C 8.471430 2.511821 -15.231389 0
M  V30 18 O 8.832777 1.553951 -16.136833 0
M  V30 19 C 7.312011 2.362718 -14.433955 0
M  V30 20 N 6.502197 1.208744 -14.646858 0
M  V30 21 C 5.683112 0.578356 -13.788140 0
M  V30 22 O 5.456557 0.913899 -12.627845 0
M  V30 23 C 6.991123 3.372324 -13.489674 0
M  V30 24 C 10.840243 9.153625 -7.090569 0
M  V30 25 C 11.688002 9.610000 -6.062085 0
M  V30 26 H 13.205167 9.363096 -1.919721 0
M  V30 27 H 11.614799 8.689232 -2.249384 0
M  V30 28 H 13.082969 7.766644 -2.646855 0
M  V30 29 H 11.432274 6.917377 -3.963882 0
M  V30 30 H 9.914247 6.172330 -5.717368 0
M  V30 31 H 8.735343 8.390225 -8.476107 0
M  V30 32 H 8.282569 7.074014 -7.435713 0
M  V30 33 H 10.408590 6.951745 -9.627921 0
M  V30 34 H 10.965187 5.372324 -7.770296 0
M  V30 35 H 9.325809 4.705081 -7.846865 0
M  V30 36 H 10.456175 4.467434 -9.168900 0
M  V30 37 H 7.952583 7.022139 -10.149383 0
M  V30 38 H 9.168204 4.520102 -11.034754 0
M  V30 39 H 9.635258 6.063645 -11.725187 0
M  V30 40 H 6.720645 5.109153 -11.602272 0
M  V30 41 H 6.886019 7.267188 -11.943663 0
M  V30 42 H 9.628269 5.485558 -14.022248 0
M  V30 43 H 10.166607 3.762040 -15.708954 0
M  V30 44 H 8.498821 0.694365 -15.933156 0
M  V30 45 H 6.590084 0.775419 -15.553380 0
M  V30 46 H 5.230803 -0.301011 -14.272190 0
M  V30 47 H 6.111511 3.281452 -12.870365 0
M  V30 48 H 10.678809 9.772326 -7.959584 0
M  V30 49 H 12.170993 10.572181 -6.153627 0
M  V30 50 H 7.840841 5.572609 -9.459184 0
M  V30 END ATOM
M  V30 BEGIN BOND
M  V30 1 1 2 1
M  V30 2 1 3 2
M  V30 3 1 4 3
M  V30 4 2 5 4
M  V30 5 1 6 5
M  V30 6 1 7 6
M  V30 7 1 8 7
M  V30 8 1 9 8
M  V30 9 1 10 8
M  V30 10 1 11 10
M  V30 11 1 12 11
M  V30 12 1 13 12
M  V30 13 1 14 12
M  V30 14 1 15 14
M  V30 15 2 16 15
M  V30 16 1 17 16
M  V30 17 1 18 17
M  V30 18 2 19 17
M  V30 19 1 20 19
M  V30 20 1 21 20
M  V30 21 2 22 21
M  V30 22 2 23 14
M  V30 23 1 23 19
M  V30 24 2 24 6
M  V30 25 2 25 3
M  V30 26 1 25 24
M  V30 27 1 26 1
M  V30 28 1 27 1
M  V30 29 1 28 1
M  V30 30 1 29 4
M  V30 31 1 30 5
M  V30 32 1 31 7
M  V30 33 1 32 7
M  V30 34 1 8 33 CFG=3
M  V30 35 1 34 9
M  V30 36 1 35 9
M  V30 37 1 36 9
M  V30 38 1 37 10
M  V30 39 1 38 11
M  V30 40 1 39 11
M  V30 41 1 12 40 CFG=1
M  V30 42 1 41 13
M  V30 43 1 42 15
M  V30 44 1 43 16
M  V30 45 1 44 18
M  V30 46 1 45 20
M  V30 47 1 46 21
M  V30 48 1 47 23
M  V30 49 1 48 24
M  V30 50 1 49 25
M  V30 51 1 50 10
M  V30 END BOND
M  V30 END CTAB
M  END
>  <b_m_subgroup_collapsed>  (362) 
0

>  <r_i_docking_score>  (362) 
-8.4465565581363506

>  <s_m_subgroup_title>  (362) 
glide-dock_SP_D22_pv

>  <s_m_subgroupid>  (362) 
glide-dock_SP_D22_pv

>  <Molecule ChEMBL ID>  (362) 
CHEMBL1256786

>  <Standard Type>  (362) 
Ki

>  <Standard Value>  (362) 
13000.0

>  <label>  (362) 
0

$$$$
CHEMBL442093
     RDKit          3D

  0  0  0  0  0  0  0  0  0  0999 V3000
M  V30 BEGIN CTAB
M  V30 COUNTS 43 46 0 0 1
M  V30 BEGIN ATOM
M  V30 1 O 7.090520 6.172655 -12.247019 0
M  V30 2 C 8.215886 5.370870 -11.943984 0 CFG=1
M  V30 3 C 8.641133 4.569403 -13.201363 0
M  V30 4 C 9.924230 5.226079 -13.769599 0
M  V30 5 C 10.359477 6.172882 -12.682225 0
M  V30 6 C 11.532287 6.958370 -12.646457 0
M  V30 7 C 11.794577 7.718482 -11.484529 0
M  V30 8 C 10.880696 7.670791 -10.411169 0
M  V30 9 N 11.203426 8.303849 -9.183407 0
M  V30 10 C 11.152710 7.501600 -8.107749 0
M  V30 11 N 10.998407 7.936247 -6.849261 0 CHG=1
M  V30 12 C 10.487966 9.272602 -6.529047 0
M  V30 13 C 11.284682 9.946339 -5.405175 0
M  V30 14 C 11.685865 8.993554 -4.292656 0
M  V30 15 C 12.086194 9.511571 -3.046691 0
M  V30 16 C 12.485869 8.650887 -2.010518 0
M  V30 17 C 12.485980 7.263232 -2.226030 0
M  V30 18 C 12.082525 6.739224 -3.456625 0
M  V30 19 C 11.657216 7.592827 -4.484508 0
M  V30 20 C 11.111687 6.976729 -5.753704 0
M  V30 21 C 9.676199 6.942497 -10.481395 0
M  V30 22 C 9.431753 6.204976 -11.647304 0
M  V30 23 H 6.886782 6.733140 -11.496805 0
M  V30 24 H 7.981311 4.710964 -11.106585 0
M  V30 25 H 8.895654 3.556436 -12.886202 0
M  V30 26 H 7.849669 4.473616 -13.945234 0
M  V30 27 H 9.711608 5.772206 -14.686812 0
M  V30 28 H 10.698484 4.488242 -13.981372 0
M  V30 29 H 12.236888 6.941975 -13.465806 0
M  V30 30 H 12.709216 8.289353 -11.409136 0
M  V30 31 H 11.223701 6.430012 -8.263330 0
M  V30 32 H 10.461433 9.896612 -7.414116 0
M  V30 33 H 9.453311 9.135329 -6.214713 0
M  V30 34 H 10.693738 10.758505 -4.979765 0
M  V30 35 H 12.188203 10.400019 -5.815792 0
M  V30 36 H 12.087378 10.573985 -2.872818 0
M  V30 37 H 12.797440 9.058956 -1.059818 0
M  V30 38 H 12.811963 6.588665 -1.450648 0
M  V30 39 H 12.083011 5.675372 -3.604343 0
M  V30 40 H 10.121586 6.571214 -5.547152 0
M  V30 41 H 11.752116 6.148276 -6.056472 0
M  V30 42 H 8.965729 6.936106 -9.666468 0
M  V30 43 H 11.786250 9.128878 -9.145306 0
M  V30 END ATOM
M  V30 BEGIN BOND
M  V30 1 1 2 1
M  V30 2 1 3 2
M  V30 3 1 4 3
M  V30 4 1 5 4
M  V30 5 1 6 5
M  V30 6 2 7 6
M  V30 7 1 8 7
M  V30 8 1 9 8
M  V30 9 1 10 9
M  V30 10 2 11 10 CFG=2
M  V30 11 1 12 11
M  V30 12 1 13 12
M  V30 13 1 14 13
M  V30 14 2 15 14
M  V30 15 1 16 15
M  V30 16 2 17 16
M  V30 17 1 18 17
M  V30 18 1 19 14
M  V30 19 2 19 18
M  V30 20 1 20 11
M  V30 21 1 20 19
M  V30 22 2 21 8
M  V30 23 1 22 2
M  V30 24 2 22 5
M  V30 25 1 22 21
M  V30 26 1 23 1
M  V30 27 1 2 24 CFG=1
M  V30 28 1 25 3
M  V30 29 1 26 3
M  V30 30 1 27 4
M  V30 31 1 28 4
M  V30 32 1 29 6
M  V30 33 1 30 7
M  V30 34 1 31 10
M  V30 35 1 32 12
M  V30 36 1 33 12
M  V30 37 1 34 13
M  V30 38 1 35 13
M  V30 39 1 36 15
M  V30 40 1 37 16
M  V30 41 1 38 17
M  V30 42 1 39 18
M  V30 43 1 40 20
M  V30 44 1 41 20
M  V30 45 1 42 21
M  V30 46 1 43 9
M  V30 END BOND
M  V30 END CTAB
M  END
>  <b_m_subgroup_collapsed>  (363) 
0

>  <r_i_docking_score>  (363) 
-8.4452564847511091

>  <s_m_subgroup_title>  (363) 
glide-dock_SP_D22_pv

>  <s_m_subgroupid>  (363) 
glide-dock_SP_D22_pv

>  <Molecule ChEMBL ID>  (363) 
CHEMBL442093

>  <Standard Type>  (363) 
Ki

>  <Standard Value>  (363) 
300000.0

>  <label>  (363) 
0

$$$$
CHEMBL2159469
     RDKit          3D

  0  0  0  0  0  0  0  0  0  0999 V3000
M  V30 BEGIN CTAB
M  V30 COUNTS 61 65 0 0 1
M  V30 BEGIN ATOM
M  V30 1 O 9.117119 6.172207 -7.378889 0
M  V30 2 C 9.888608 7.080264 -7.677935 0
M  V30 3 N 10.095110 7.517005 -8.929823 0
M  V30 4 C 9.237911 7.260292 -10.084254 0 CFG=1
M  V30 5 C 9.953979 7.346692 -11.436115 0
M  V30 6 C 9.285472 6.253472 -12.286581 0
M  V30 7 N 8.111106 5.770681 -11.527787 0 CFG=1 CHG=1
M  V30 8 C 7.650195 4.418275 -11.922842 0
M  V30 9 C 7.026533 4.386745 -13.339714 0
M  V30 10 O 6.878052 3.060044 -13.845296 0
M  V30 11 C 7.982570 2.387294 -14.342363 0
M  V30 12 C 9.286414 2.954208 -14.374245 0
M  V30 13 C 10.384378 2.234790 -14.876178 0
M  V30 14 C 10.196696 0.933002 -15.363365 0
M  V30 15 C 8.911667 0.369800 -15.354357 0
M  V30 16 C 7.792260 1.073933 -14.853867 0
M  V30 17 C 6.465353 0.421880 -14.913166 0
M  V30 18 C 6.049535 -0.226127 -16.100405 0
M  V30 19 C 4.794615 -0.861013 -16.187452 0
M  V30 20 C 3.925113 -0.852715 -15.082947 0
M  V30 21 C 4.320673 -0.216129 -13.893936 0
M  V30 22 C 5.582095 0.409935 -13.806725 0
M  V30 23 C 8.532235 5.893146 -10.126031 0
M  V30 24 C 10.660257 7.790872 -6.613916 0
M  V30 25 C 10.711198 9.200234 -6.592770 0
M  V30 26 C 11.232351 9.840215 -5.453058 0
M  V30 27 C 11.669763 9.043338 -4.377821 0
M  V30 28 C 12.078583 9.628515 -3.163332 0
M  V30 29 C 12.486020 8.817022 -2.093099 0
M  V30 30 C 12.485815 7.421681 -2.246075 0
M  V30 31 C 12.078183 6.841888 -3.449577 0
M  V30 32 C 11.646578 7.630965 -4.522847 0
M  V30 33 N 11.164113 7.029669 -5.624141 0
M  V30 34 H 10.793814 8.236939 -9.041187 0
M  V30 35 H 8.486337 8.047544 -10.068666 0
M  V30 36 H 11.023465 7.152668 -11.343925 0
M  V30 37 H 9.830494 8.334334 -11.878662 0
M  V30 38 H 10.002054 5.441464 -12.411496 0
M  V30 39 H 8.987288 6.572086 -13.279298 0
M  V30 40 H 6.921557 4.050865 -11.197938 0
M  V30 41 H 8.512643 3.762069 -11.856649 0
M  V30 42 H 7.584463 4.985011 -14.058483 0
M  V30 43 H 6.036327 4.842150 -13.300615 0
M  V30 44 H 9.486924 3.948882 -14.016461 0
M  V30 45 H 11.369172 2.679978 -14.887304 0
M  V30 46 H 11.036250 0.371676 -15.749000 0
M  V30 47 H 8.780056 -0.627536 -15.741768 0
M  V30 48 H 6.700708 -0.242033 -16.962698 0
M  V30 49 H 4.499723 -1.353628 -17.102617 0
M  V30 50 H 2.962080 -1.337341 -15.152689 0
M  V30 51 H 3.647322 -0.217035 -13.050591 0
M  V30 52 H 5.870699 0.885104 -12.881633 0
M  V30 53 H 7.685949 5.834312 -9.445891 0
M  V30 54 H 9.225588 5.085585 -9.875851 0
M  V30 55 H 10.279797 9.772789 -7.399515 0
M  V30 56 H 11.233057 10.919888 -5.385101 0
M  V30 57 H 12.059492 10.696121 -3.029125 0
M  V30 58 H 12.799582 9.269148 -1.163219 0
M  V30 59 H 12.816403 6.779834 -1.446637 0
M  V30 60 H 12.066236 5.772397 -3.549737 0
M  V30 61 H 7.349616 6.436638 -11.625146 0
M  V30 END ATOM
M  V30 BEGIN BOND
M  V30 1 2 2 1
M  V30 2 1 3 2
M  V30 3 1 4 3
M  V30 4 1 5 4
M  V30 5 1 6 5
M  V30 6 1 7 6
M  V30 7 1 8 7
M  V30 8 1 9 8
M  V30 9 1 10 9
M  V30 10 1 11 10
M  V30 11 2 12 11
M  V30 12 1 13 12
M  V30 13 2 14 13
M  V30 14 1 15 14
M  V30 15 1 16 11
M  V30 16 2 16 15
M  V30 17 1 17 16
M  V30 18 2 18 17
M  V30 19 1 19 18
M  V30 20 2 20 19
M  V30 21 1 21 20
M  V30 22 1 22 17
M  V30 23 2 22 21
M  V30 24 1 23 4
M  V30 25 1 23 7
M  V30 26 1 24 2
M  V30 27 1 25 24
M  V30 28 2 26 25
M  V30 29 1 27 26
M  V30 30 2 28 27
M  V30 31 1 29 28
M  V30 32 2 30 29
M  V30 33 1 31 30
M  V30 34 1 32 27
M  V30 35 2 32 31
M  V30 36 2 33 24
M  V30 37 1 33 32
M  V30 38 1 34 3
M  V30 39 1 4 35 CFG=3
M  V30 40 1 36 5
M  V30 41 1 37 5
M  V30 42 1 38 6
M  V30 43 1 39 6
M  V30 44 1 40 8
M  V30 45 1 41 8
M  V30 46 1 42 9
M  V30 47 1 43 9
M  V30 48 1 44 12
M  V30 49 1 45 13
M  V30 50 1 46 14
M  V30 51 1 47 15
M  V30 52 1 48 18
M  V30 53 1 49 19
M  V30 54 1 50 20
M  V30 55 1 51 21
M  V30 56 1 52 22
M  V30 57 1 53 23
M  V30 58 1 54 23
M  V30 59 1 55 25
M  V30 60 1 56 26
M  V30 61 1 57 28
M  V30 62 1 58 29
M  V30 63 1 59 30
M  V30 64 1 60 31
M  V30 65 1 7 61 CFG=1
M  V30 END BOND
M  V30 END CTAB
M  END
>  <b_m_subgroup_collapsed>  (364) 
0

>  <r_i_docking_score>  (364) 
-8.4443667437704004

>  <s_m_subgroup_title>  (364) 
glide-dock_SP_D22_pv

>  <s_m_subgroupid>  (364) 
glide-dock_SP_D22_pv

>  <Molecule ChEMBL ID>  (364) 
CHEMBL2159469

>  <Standard Type>  (364) 
Ki

>  <Standard Value>  (364) 
24.0

>  <label>  (364) 
1

$$$$
CHEMBL2159469
     RDKit          3D

  0  0  0  0  0  0  0  0  0  0999 V3000
M  V30 BEGIN CTAB
M  V30 COUNTS 61 65 0 0 1
M  V30 BEGIN ATOM
M  V30 1 O 11.280827 9.372211 -9.748883 0
M  V30 2 C 10.656574 8.462713 -9.209370 0
M  V30 3 N 9.851081 7.625094 -9.872541 0
M  V30 4 C 9.783383 7.488767 -11.323834 0 CFG=2
M  V30 5 C 8.570955 8.235004 -11.911539 0
M  V30 6 C 7.626603 7.126637 -12.410594 0
M  V30 7 N 8.080370 5.899772 -11.721215 0 CFG=1 CHG=1
M  V30 8 C 7.540107 4.579972 -12.152721 0
M  V30 9 C 7.205862 4.453669 -13.652355 0
M  V30 10 O 7.042237 3.089371 -14.028978 0
M  V30 11 C 8.151223 2.360236 -14.420609 0
M  V30 12 C 9.479969 2.845978 -14.290228 0
M  V30 13 C 10.576356 2.093664 -14.742862 0
M  V30 14 C 10.364142 0.838451 -15.330331 0
M  V30 15 C 9.056261 0.340249 -15.447474 0
M  V30 16 C 7.939026 1.075288 -14.991088 0
M  V30 17 C 6.594914 0.474266 -15.138803 0
M  V30 18 C 6.201493 -0.093838 -16.373648 0
M  V30 19 C 4.940912 -0.702432 -16.526928 0
M  V30 20 C 4.046775 -0.752548 -15.443873 0
M  V30 21 C 4.418621 -0.188209 -14.211451 0
M  V30 22 C 5.685320 0.414395 -14.057741 0
M  V30 23 C 9.548643 6.014198 -11.665041 0
M  V30 24 C 10.802242 8.166464 -7.746609 0
M  V30 25 C 10.970320 6.827780 -7.335497 0
M  V30 26 C 11.289342 6.573119 -5.995645 0
M  V30 27 C 11.408776 7.641921 -5.101199 0
M  V30 28 C 11.802204 7.393491 -3.770380 0
M  V30 29 C 11.959650 8.469328 -2.883703 0
M  V30 30 C 11.686859 9.771803 -3.331058 0
M  V30 31 C 11.289207 10.011552 -4.661824 0
M  V30 32 C 11.175834 8.955713 -5.582820 0
M  V30 33 N 10.883377 9.203238 -6.880058 0
M  V30 34 H 9.330634 6.966413 -9.309657 0
M  V30 35 H 10.715526 7.828795 -11.779189 0
M  V30 36 H 8.867105 8.896269 -12.725555 0
M  V30 37 H 8.091568 8.876044 -11.169131 0
M  V30 38 H 7.760345 7.025468 -13.479861 0
M  V30 39 H 6.572180 7.346098 -12.247484 0
M  V30 40 H 6.629484 4.390462 -11.583969 0
M  V30 41 H 8.237219 3.797545 -11.850715 0
M  V30 42 H 7.937657 4.950257 -14.288507 0
M  V30 43 H 6.260704 4.960744 -13.846555 0
M  V30 44 H 9.700149 3.799922 -13.841622 0
M  V30 45 H 11.580112 2.479343 -14.638799 0
M  V30 46 H 11.202070 0.254720 -15.683759 0
M  V30 47 H 8.909248 -0.628436 -15.896773 0
M  V30 48 H 6.875595 -0.070182 -17.217514 0
M  V30 49 H 4.660584 -1.138615 -17.474958 0
M  V30 50 H 3.079201 -1.221514 -15.561038 0
M  V30 51 H 3.724256 -0.220824 -13.387630 0
M  V30 52 H 5.960195 0.831131 -13.100797 0
M  V30 53 H 10.026759 5.330071 -10.958802 0
M  V30 54 H 9.959927 5.798407 -12.652328 0
M  V30 55 H 10.931262 6.007559 -8.037365 0
M  V30 56 H 11.520324 5.579835 -5.662887 0
M  V30 57 H 11.989359 6.384961 -3.429715 0
M  V30 58 H 12.265765 8.299072 -1.861298 0
M  V30 59 H 11.796508 10.600945 -2.648620 0
M  V30 60 H 11.105442 11.020571 -4.997510 0
M  V30 61 H 7.754689 6.033516 -10.770000 0
M  V30 END ATOM
M  V30 BEGIN BOND
M  V30 1 2 2 1
M  V30 2 1 3 2
M  V30 3 1 4 3
M  V30 4 1 5 4
M  V30 5 1 6 5
M  V30 6 1 7 6
M  V30 7 1 8 7
M  V30 8 1 9 8
M  V30 9 1 10 9
M  V30 10 1 11 10
M  V30 11 2 12 11
M  V30 12 1 13 12
M  V30 13 2 14 13
M  V30 14 1 15 14
M  V30 15 1 16 11
M  V30 16 2 16 15
M  V30 17 1 17 16
M  V30 18 2 18 17
M  V30 19 1 19 18
M  V30 20 2 20 19
M  V30 21 1 21 20
M  V30 22 1 22 17
M  V30 23 2 22 21
M  V30 24 1 23 4
M  V30 25 1 23 7
M  V30 26 1 24 2
M  V30 27 1 25 24
M  V30 28 2 26 25
M  V30 29 1 27 26
M  V30 30 2 28 27
M  V30 31 1 29 28
M  V30 32 2 30 29
M  V30 33 1 31 30
M  V30 34 1 32 27
M  V30 35 2 32 31
M  V30 36 2 33 24
M  V30 37 1 33 32
M  V30 38 1 34 3
M  V30 39 1 4 35 CFG=3
M  V30 40 1 36 5
M  V30 41 1 37 5
M  V30 42 1 38 6
M  V30 43 1 39 6
M  V30 44 1 40 8
M  V30 45 1 41 8
M  V30 46 1 42 9
M  V30 47 1 43 9
M  V30 48 1 44 12
M  V30 49 1 45 13
M  V30 50 1 46 14
M  V30 51 1 47 15
M  V30 52 1 48 18
M  V30 53 1 49 19
M  V30 54 1 50 20
M  V30 55 1 51 21
M  V30 56 1 52 22
M  V30 57 1 53 23
M  V30 58 1 54 23
M  V30 59 1 55 25
M  V30 60 1 56 26
M  V30 61 1 57 28
M  V30 62 1 58 29
M  V30 63 1 59 30
M  V30 64 1 60 31
M  V30 65 1 7 61 CFG=1
M  V30 END BOND
M  V30 END CTAB
M  END
>  <b_m_subgroup_collapsed>  (365) 
0

>  <r_i_docking_score>  (365) 
-8.4422002832626806

>  <s_m_subgroup_title>  (365) 
glide-dock_SP_D22_pv

>  <s_m_subgroupid>  (365) 
glide-dock_SP_D22_pv

>  <Molecule ChEMBL ID>  (365) 
CHEMBL2159469

>  <Standard Type>  (365) 
Ki

>  <Standard Value>  (365) 
24.0

>  <label>  (365) 
1

$$$$
CHEMBL5723030
     RDKit          3D

  0  0  0  0  0  0  0  0  0  0999 V3000
M  V30 BEGIN CTAB
M  V30 COUNTS 44 47 0 0 1
M  V30 BEGIN ATOM
M  V30 1 O 10.640308 4.202796 -14.097098 0
M  V30 2 C 9.857271 4.854870 -13.406728 0
M  V30 3 C 10.305161 6.037787 -12.646839 0
M  V30 4 C 9.437162 6.759262 -11.909293 0
M  V30 5 C 9.892081 7.934913 -11.064173 0
M  V30 6 N 9.285979 7.979793 -9.742089 0
M  V30 7 C 9.388996 6.725677 -9.002039 0
M  V30 8 C 9.565144 7.050038 -7.517713 0
M  V30 9 C 11.020651 7.436407 -7.226264 0
M  V30 10 C 11.156448 8.426622 -6.123972 0
M  V30 11 N 11.004580 9.744584 -6.257658 0
M  V30 12 N 11.286020 10.340490 -5.046866 0
M  V30 13 C 11.636093 9.375832 -4.195349 0
M  V30 14 C 12.083423 9.369593 -2.849502 0
M  V30 15 C 12.303230 8.172186 -2.212239 0
M  V30 16 C 12.086006 6.948370 -2.889100 0
M  V30 17 C 11.688592 6.944000 -4.206085 0
M  V30 18 N 11.491775 8.135760 -4.837543 0
M  V30 19 N 8.086057 6.443061 -11.847008 0
M  V30 20 C 7.562189 5.312843 -12.479380 0
M  V30 21 C 6.205406 4.970257 -12.320114 0
M  V30 22 C 5.698815 3.805125 -12.929457 0
M  V30 23 C 6.548650 2.988912 -13.701191 0
M  V30 24 F 6.086000 1.839908 -14.243423 0
M  V30 25 C 7.898063 3.343215 -13.881749 0
M  V30 26 C 8.415728 4.500958 -13.267126 0
M  V30 27 H 11.353924 6.294093 -12.679773 0
M  V30 28 H 10.974943 7.890824 -10.939222 0
M  V30 29 H 9.672411 8.862743 -11.592838 0
M  V30 30 H 8.289291 8.172454 -9.847117 0
M  V30 31 H 8.476621 6.148250 -9.158818 0
M  V30 32 H 10.224970 6.116147 -9.349342 0
M  V30 33 H 8.880392 7.855853 -7.244063 0
M  V30 34 H 9.282731 6.197443 -6.899115 0
M  V30 35 H 11.619811 6.549632 -7.020218 0
M  V30 36 H 11.472140 7.893688 -8.107490 0
M  V30 37 H 12.212737 10.311986 -2.330382 0
M  V30 38 H 12.624686 8.172427 -1.175671 0
M  V30 39 H 12.241034 6.004748 -2.373578 0
M  V30 40 H 11.520947 6.034656 -4.774118 0
M  V30 41 H 7.465132 6.988176 -11.237789 0
M  V30 42 H 5.561144 5.587011 -11.709118 0
M  V30 43 H 4.665121 3.527362 -12.789749 0
M  V30 44 H 8.538215 2.701000 -14.469274 0
M  V30 END ATOM
M  V30 BEGIN BOND
M  V30 1 2 2 1
M  V30 2 1 3 2
M  V30 3 2 4 3
M  V30 4 1 5 4
M  V30 5 1 6 5
M  V30 6 1 7 6
M  V30 7 1 8 7
M  V30 8 1 9 8
M  V30 9 1 10 9
M  V30 10 2 11 10
M  V30 11 1 12 11
M  V30 12 2 13 12
M  V30 13 1 14 13
M  V30 14 2 15 14
M  V30 15 1 16 15
M  V30 16 2 17 16
M  V30 17 1 18 10
M  V30 18 1 18 13
M  V30 19 1 18 17
M  V30 20 1 19 4
M  V30 21 1 20 19
M  V30 22 2 21 20
M  V30 23 1 22 21
M  V30 24 2 23 22
M  V30 25 1 24 23
M  V30 26 1 25 23
M  V30 27 1 26 2
M  V30 28 1 26 20
M  V30 29 2 26 25
M  V30 30 1 27 3
M  V30 31 1 28 5
M  V30 32 1 29 5
M  V30 33 1 30 6
M  V30 34 1 31 7
M  V30 35 1 32 7
M  V30 36 1 33 8
M  V30 37 1 34 8
M  V30 38 1 35 9
M  V30 39 1 36 9
M  V30 40 1 37 14
M  V30 41 1 38 15
M  V30 42 1 39 16
M  V30 43 1 40 17
M  V30 44 1 41 19
M  V30 45 1 42 21
M  V30 46 1 43 22
M  V30 47 1 44 25
M  V30 END BOND
M  V30 END CTAB
M  END
>  <b_m_subgroup_collapsed>  (366) 
0

>  <r_i_docking_score>  (366) 
-8.4421210328712792

>  <s_m_subgroup_title>  (366) 
glide-dock_SP_D22_pv

>  <s_m_subgroupid>  (366) 
glide-dock_SP_D22_pv

>  <Molecule ChEMBL ID>  (366) 
CHEMBL5723030

>  <Standard Type>  (366) 
Ki

>  <Standard Value>  (366) 
10000.0

>  <label>  (366) 
0

$$$$
CHEMBL254203
     RDKit          3D

  0  0  0  0  0  0  0  0  0  0999 V3000
M  V30 BEGIN CTAB
M  V30 COUNTS 72 75 0 0 1
M  V30 BEGIN ATOM
M  V30 1 C 13.188911 6.238614 -16.484840 0
M  V30 2 C 12.663930 5.341656 -15.355882 0
M  V30 3 C 11.237052 5.722348 -14.913234 0
M  V30 4 N 10.787801 5.024082 -13.667649 0 CFG=1 CHG=1
M  V30 5 C 10.112382 5.969771 -12.737742 0
M  V30 6 C 9.685764 5.364586 -11.390133 0
M  V30 7 C 9.266015 6.448522 -10.405865 0
M  V30 8 C 10.501123 7.149435 -9.814979 0
M  V30 9 N 10.220889 7.858212 -8.578491 0
M  V30 10 C 11.419757 8.632783 -8.218280 0
M  V30 11 C 11.211069 9.398350 -6.896018 0
M  V30 12 N 10.761771 8.469779 -5.874368 0
M  V30 13 C 11.400809 8.342440 -4.640602 0
M  V30 14 C 11.686172 7.067589 -4.100540 0
M  V30 15 C 12.220201 6.949669 -2.804039 0
M  V30 16 C 12.485996 8.105764 -2.049807 0
M  V30 17 C 12.219652 9.371720 -2.592763 0
M  V30 18 C 11.686914 9.494976 -3.884598 0
M  V30 19 C 9.639713 7.618611 -6.220931 0
M  V30 20 C 9.958234 6.880302 -7.512300 0
M  V30 21 C 10.059300 3.721889 -13.840999 0 CFG=2
M  V30 22 C 10.707980 2.801059 -14.890468 0
M  V30 23 C 10.056529 1.421498 -14.976310 0
M  V30 24 C 8.565517 1.403362 -14.693958 0
M  V30 25 C 7.911237 0.171883 -14.800840 0
M  V30 26 C 6.581036 0.015358 -14.386813 0
M  V30 27 O 5.998977 -1.215486 -14.479856 0
M  V30 28 C 5.874083 1.125245 -13.882642 0
M  V30 29 O 4.587397 0.976208 -13.447628 0
M  V30 30 C 6.497602 2.393704 -13.850116 0
M  V30 31 C 7.847180 2.536900 -14.249151 0
M  V30 32 C 8.548845 3.877345 -14.133700 0
M  V30 33 H 14.198481 5.945128 -16.777193 0
M  V30 34 H 12.557693 6.168375 -17.372488 0
M  V30 35 H 13.225911 7.287708 -16.182207 0
M  V30 36 H 13.339681 5.420040 -14.504095 0
M  V30 37 H 12.723552 4.314208 -15.706574 0
M  V30 38 H 10.515685 5.597281 -15.719253 0
M  V30 39 H 11.286039 6.795119 -14.726455 0
M  V30 40 H 10.797062 6.797021 -12.553968 0
M  V30 41 H 9.231225 6.400487 -13.208323 0
M  V30 42 H 8.843518 4.686835 -11.497266 0
M  V30 43 H 10.468622 4.748188 -10.958956 0
M  V30 44 H 8.605282 7.174207 -10.880917 0
M  V30 45 H 8.647910 5.966534 -9.657849 0
M  V30 46 H 11.290701 6.423540 -9.627067 0
M  V30 47 H 10.891418 7.852581 -10.552250 0
M  V30 48 H 12.280459 7.968163 -8.123261 0
M  V30 49 H 11.652426 9.343090 -9.011039 0
M  V30 50 H 12.137543 9.888537 -6.597709 0
M  V30 51 H 10.455635 10.171824 -7.018009 0
M  V30 52 H 11.471940 6.172435 -4.663892 0
M  V30 53 H 12.416962 5.973306 -2.389835 0
M  V30 54 H 12.884789 8.022985 -1.047668 0
M  V30 55 H 12.411526 10.243337 -1.995179 0
M  V30 56 H 11.446463 10.473941 -4.273322 0
M  V30 57 H 9.418724 6.892812 -5.438826 0
M  V30 58 H 8.741918 8.228137 -6.342528 0
M  V30 59 H 9.099514 6.249341 -7.727696 0
M  V30 60 H 10.814909 6.217714 -7.370858 0
M  V30 61 H 10.147574 3.198668 -12.887815 0
M  V30 62 H 10.620234 3.258140 -15.876687 0
M  V30 63 H 11.769618 2.657279 -14.688537 0
M  V30 64 H 10.531169 0.761941 -14.246143 0
M  V30 65 H 10.255003 0.972850 -15.951062 0
M  V30 66 H 8.478907 -0.658743 -15.173442 0
M  V30 67 H 6.569492 -1.852366 -14.896606 0
M  V30 68 H 4.181486 1.785948 -13.185806 0
M  V30 69 H 5.951839 3.247822 -13.484879 0
M  V30 70 H 8.431944 4.438773 -15.049634 0
M  V30 71 H 8.014178 4.454952 -13.383617 0
M  V30 72 H 11.650421 4.780343 -13.199805 0
M  V30 END ATOM
M  V30 BEGIN BOND
M  V30 1 1 2 1
M  V30 2 1 3 2
M  V30 3 1 4 3
M  V30 4 1 5 4
M  V30 5 1 6 5
M  V30 6 1 7 6
M  V30 7 1 8 7
M  V30 8 1 9 8
M  V30 9 1 10 9
M  V30 10 1 11 10
M  V30 11 1 12 11
M  V30 12 1 13 12
M  V30 13 2 14 13
M  V30 14 1 15 14
M  V30 15 2 16 15
M  V30 16 1 17 16
M  V30 17 1 18 13
M  V30 18 2 18 17
M  V30 19 1 19 12
M  V30 20 1 20 9
M  V30 21 1 20 19
M  V30 22 1 21 4
M  V30 23 1 22 21
M  V30 24 1 23 22
M  V30 25 1 24 23
M  V30 26 1 25 24
M  V30 27 2 26 25
M  V30 28 1 27 26
M  V30 29 1 28 26
M  V30 30 1 29 28
M  V30 31 2 30 28
M  V30 32 2 31 24
M  V30 33 1 31 30
M  V30 34 1 32 21
M  V30 35 1 32 31
M  V30 36 1 33 1
M  V30 37 1 34 1
M  V30 38 1 35 1
M  V30 39 1 36 2
M  V30 40 1 37 2
M  V30 41 1 38 3
M  V30 42 1 39 3
M  V30 43 1 40 5
M  V30 44 1 41 5
M  V30 45 1 42 6
M  V30 46 1 43 6
M  V30 47 1 44 7
M  V30 48 1 45 7
M  V30 49 1 46 8
M  V30 50 1 47 8
M  V30 51 1 48 10
M  V30 52 1 49 10
M  V30 53 1 50 11
M  V30 54 1 51 11
M  V30 55 1 52 14
M  V30 56 1 53 15
M  V30 57 1 54 16
M  V30 58 1 55 17
M  V30 59 1 56 18
M  V30 60 1 57 19
M  V30 61 1 58 19
M  V30 62 1 59 20
M  V30 63 1 60 20
M  V30 64 1 21 61 CFG=1
M  V30 65 1 62 22
M  V30 66 1 63 22
M  V30 67 1 64 23
M  V30 68 1 65 23
M  V30 69 1 66 25
M  V30 70 1 67 27
M  V30 71 1 68 29
M  V30 72 1 69 30
M  V30 73 1 70 32
M  V30 74 1 71 32
M  V30 75 1 4 72 CFG=1
M  V30 END BOND
M  V30 END CTAB
M  END
>  <b_m_subgroup_collapsed>  (367) 
0

>  <r_i_docking_score>  (367) 
-8.4413387261646395

>  <s_m_subgroup_title>  (367) 
glide-dock_SP_D22_pv

>  <s_m_subgroupid>  (367) 
glide-dock_SP_D22_pv

>  <Molecule ChEMBL ID>  (367) 
CHEMBL254203

>  <Standard Type>  (367) 
Ki

>  <Standard Value>  (367) 
21.7

>  <label>  (367) 
1

$$$$
CHEMBL521025
     RDKit          3D

  0  0  0  0  0  0  0  0  0  0999 V3000
M  V30 BEGIN CTAB
M  V30 COUNTS 59 62 0 0 1
M  V30 BEGIN ATOM
M  V30 1 C 3.715683 -2.139623 -18.406937 0
M  V30 2 O 4.851731 -1.531246 -17.808786 0
M  V30 3 C 4.716913 -1.031835 -16.531763 0
M  V30 4 C 3.539876 -1.135976 -15.749248 0
M  V30 5 C 3.478341 -0.574516 -14.460247 0
M  V30 6 C 4.594354 0.102806 -13.935080 0
M  V30 7 C 5.775569 0.196637 -14.698034 0
M  V30 8 C 6.980700 0.928675 -14.150559 0
M  V30 9 C 7.094104 2.368281 -14.683197 0
M  V30 10 C 8.439447 3.023167 -14.385507 0
M  V30 11 C 9.563073 2.574980 -15.113123 0
M  V30 12 C 10.821919 3.173998 -14.934994 0
M  V30 13 C 10.960401 4.243835 -14.035398 0
M  V30 14 C 9.847737 4.697282 -13.303577 0
M  V30 15 C 8.575142 4.081460 -13.447074 0
M  V30 16 O 7.458282 4.462358 -12.724764 0
M  V30 17 C 7.567689 5.481490 -11.727609 0
M  V30 18 C 8.286266 4.969821 -10.461220 0
M  V30 19 N 8.518167 6.041439 -9.454908 0 CFG=1 CHG=1
M  V30 20 C 8.571987 5.494480 -8.075224 0
M  V30 21 C 8.694322 6.607037 -7.027256 0
M  V30 22 C 9.881999 7.486991 -7.313376 0
M  V30 23 C 10.508224 8.170833 -6.255278 0
M  V30 24 C 11.685965 8.896113 -6.495467 0
M  V30 25 C 12.243098 8.904171 -7.785726 0
M  V30 26 C 11.582527 8.283206 -8.858831 0
M  V30 27 C 10.385901 7.575843 -8.629622 0
M  V30 28 C 9.711421 6.866743 -9.799321 0
M  V30 29 C 5.830315 -0.368432 -15.987973 0
M  V30 30 H 3.961781 -2.456520 -19.420080 0
M  V30 31 H 3.399924 -3.027081 -17.855661 0
M  V30 32 H 2.882342 -1.438290 -18.476351 0
M  V30 33 H 2.668226 -1.647869 -16.118904 0
M  V30 34 H 2.568083 -0.651529 -13.884395 0
M  V30 35 H 4.540919 0.550105 -12.953445 0
M  V30 36 H 7.874337 0.352044 -14.390562 0
M  V30 37 H 6.886086 0.935529 -13.072212 0
M  V30 38 H 6.270563 2.976289 -14.305534 0
M  V30 39 H 6.978174 2.360117 -15.767406 0
M  V30 40 H 9.459915 1.767854 -15.824580 0
M  V30 41 H 11.673504 2.823331 -15.498273 0
M  V30 42 H 11.923384 4.716724 -13.909058 0
M  V30 43 H 10.006365 5.520592 -12.628506 0
M  V30 44 H 8.032983 6.378872 -12.138461 0
M  V30 45 H 6.553899 5.772769 -11.458321 0
M  V30 46 H 7.686315 4.172894 -10.027266 0
M  V30 47 H 9.230160 4.479708 -10.698151 0
M  V30 48 H 7.686136 4.906280 -7.852753 0
M  V30 49 H 9.423833 4.817186 -8.002543 0
M  V30 50 H 8.818488 6.172420 -6.037316 0
M  V30 51 H 7.806185 7.228012 -6.967842 0
M  V30 52 H 10.110603 8.103973 -5.256564 0
M  V30 53 H 12.194981 9.393657 -5.681620 0
M  V30 54 H 13.201719 9.372164 -7.954748 0
M  V30 55 H 12.015338 8.325662 -9.847409 0
M  V30 56 H 10.482367 6.235022 -10.247344 0
M  V30 57 H 9.434463 7.604835 -10.554501 0
M  V30 58 H 6.736454 -0.288492 -16.570194 0
M  V30 59 H 7.713596 6.668989 -9.476143 0
M  V30 END ATOM
M  V30 BEGIN BOND
M  V30 1 1 2 1
M  V30 2 1 3 2
M  V30 3 2 4 3
M  V30 4 1 5 4
M  V30 5 2 6 5
M  V30 6 1 7 6
M  V30 7 1 8 7
M  V30 8 1 9 8
M  V30 9 1 10 9
M  V30 10 2 11 10
M  V30 11 1 12 11
M  V30 12 2 13 12
M  V30 13 1 14 13
M  V30 14 1 15 10
M  V30 15 2 15 14
M  V30 16 1 16 15
M  V30 17 1 17 16
M  V30 18 1 18 17
M  V30 19 1 19 18
M  V30 20 1 20 19
M  V30 21 1 21 20
M  V30 22 1 22 21
M  V30 23 2 23 22
M  V30 24 1 24 23
M  V30 25 2 25 24
M  V30 26 1 26 25
M  V30 27 1 27 22
M  V30 28 2 27 26
M  V30 29 1 28 19
M  V30 30 1 28 27
M  V30 31 1 29 3
M  V30 32 2 29 7
M  V30 33 1 30 1
M  V30 34 1 31 1
M  V30 35 1 32 1
M  V30 36 1 33 4
M  V30 37 1 34 5
M  V30 38 1 35 6
M  V30 39 1 36 8
M  V30 40 1 37 8
M  V30 41 1 38 9
M  V30 42 1 39 9
M  V30 43 1 40 11
M  V30 44 1 41 12
M  V30 45 1 42 13
M  V30 46 1 43 14
M  V30 47 1 44 17
M  V30 48 1 45 17
M  V30 49 1 46 18
M  V30 50 1 47 18
M  V30 51 1 48 20
M  V30 52 1 49 20
M  V30 53 1 50 21
M  V30 54 1 51 21
M  V30 55 1 52 23
M  V30 56 1 53 24
M  V30 57 1 54 25
M  V30 58 1 55 26
M  V30 59 1 56 28
M  V30 60 1 57 28
M  V30 61 1 58 29
M  V30 62 1 19 59 CFG=1
M  V30 END BOND
M  V30 END CTAB
M  END
>  <b_m_subgroup_collapsed>  (368) 
0

>  <r_i_docking_score>  (368) 
-8.4410772680007398

>  <s_m_subgroup_title>  (368) 
glide-dock_SP_D22_pv

>  <s_m_subgroupid>  (368) 
glide-dock_SP_D22_pv

>  <Molecule ChEMBL ID>  (368) 
CHEMBL521025

>  <Standard Type>  (368) 
Ki

>  <Standard Value>  (368) 
1000000.0

>  <label>  (368) 
0

$$$$
CHEMBL383102
     RDKit          3D

  0  0  0  0  0  0  0  0  0  0999 V3000
M  V30 BEGIN CTAB
M  V30 COUNTS 43 47 0 0 1
M  V30 BEGIN ATOM
M  V30 1 C 7.367148 3.450905 -13.627860 0
M  V30 2 C 6.488242 4.382936 -13.046865 0
M  V30 3 C 7.002982 5.499627 -12.362666 0
M  V30 4 C 8.397531 5.694324 -12.244343 0
M  V30 5 C 8.900006 6.972343 -11.571131 0 CFG=2
M  V30 6 C 10.265409 7.534476 -12.007217 0
M  V30 7 C 10.934952 8.034982 -10.730361 0
M  V30 8 C 9.785656 8.137967 -9.734014 0 CFG=2
M  V30 9 C 10.245382 8.098923 -8.322029 0
M  V30 10 N 10.983050 9.087186 -7.701577 0
M  V30 11 C 11.286022 8.716448 -6.408718 0
M  V30 12 C 11.987246 9.372325 -5.381173 0
M  V30 13 C 12.177382 8.720152 -4.149720 0
M  V30 14 C 11.686024 7.412763 -3.971648 0
M  V30 15 C 10.976490 6.770112 -5.007315 0
M  V30 16 C 10.738336 7.407564 -6.244574 0
M  V30 17 C 10.044508 7.067770 -7.459429 0
M  V30 18 C 9.228889 5.881864 -7.867678 0
M  V30 19 C 9.198178 5.723235 -9.402152 0
M  V30 20 N 8.886023 7.008471 -10.091745 0 CFG=2 CHG=1
M  V30 21 C 9.273171 4.723054 -12.783304 0
M  V30 22 C 8.758401 3.615554 -13.484050 0
M  V30 23 H 6.975443 2.597549 -14.161941 0
M  V30 24 H 5.420048 4.250617 -13.138646 0
M  V30 25 H 6.315781 6.216765 -11.935341 0
M  V30 26 H 8.172522 7.737392 -11.852406 0
M  V30 27 H 10.917907 6.837007 -12.527509 0
M  V30 28 H 10.085980 8.373138 -12.672624 0
M  V30 29 H 11.655304 7.288305 -10.391981 0
M  V30 30 H 11.476196 8.972324 -10.855915 0
M  V30 31 H 9.234583 9.063663 -9.911435 0
M  V30 32 H 11.264258 9.943089 -8.155807 0
M  V30 33 H 12.388026 10.361535 -5.542544 0
M  V30 34 H 12.715414 9.212280 -3.351686 0
M  V30 35 H 11.843508 6.900342 -3.033160 0
M  V30 36 H 10.598619 5.773125 -4.842234 0
M  V30 37 H 9.638504 4.972325 -7.446864 0
M  V30 38 H 8.212138 5.982417 -7.484092 0
M  V30 39 H 10.166642 5.363515 -9.749916 0
M  V30 40 H 8.464669 4.960560 -9.667027 0
M  V30 41 H 10.343657 4.810314 -12.685986 0
M  V30 42 H 9.432587 2.883502 -13.904751 0
M  V30 43 H 7.924945 7.270687 -9.846866 0
M  V30 END ATOM
M  V30 BEGIN BOND
M  V30 1 2 2 1
M  V30 2 1 3 2
M  V30 3 2 4 3
M  V30 4 1 5 4
M  V30 5 1 6 5
M  V30 6 1 7 6
M  V30 7 1 8 7
M  V30 8 1 9 8
M  V30 9 1 10 9
M  V30 10 1 11 10
M  V30 11 2 12 11
M  V30 12 1 13 12
M  V30 13 2 14 13
M  V30 14 1 15 14
M  V30 15 1 16 11
M  V30 16 2 16 15
M  V30 17 2 17 9
M  V30 18 1 17 16
M  V30 19 1 18 17
M  V30 20 1 19 18
M  V30 21 1 20 5
M  V30 22 1 20 8
M  V30 23 1 20 19
M  V30 24 1 21 4
M  V30 25 1 22 1
M  V30 26 2 22 21
M  V30 27 1 23 1
M  V30 28 1 24 2
M  V30 29 1 25 3
M  V30 30 1 5 26 CFG=3
M  V30 31 1 27 6
M  V30 32 1 28 6
M  V30 33 1 29 7
M  V30 34 1 30 7
M  V30 35 1 8 31 CFG=3
M  V30 36 1 32 10
M  V30 37 1 33 12
M  V30 38 1 34 13
M  V30 39 1 35 14
M  V30 40 1 36 15
M  V30 41 1 37 18
M  V30 42 1 38 18
M  V30 43 1 39 19
M  V30 44 1 40 19
M  V30 45 1 41 21
M  V30 46 1 42 22
M  V30 47 1 20 43 CFG=3
M  V30 END BOND
M  V30 END CTAB
M  END
>  <b_m_subgroup_collapsed>  (369) 
0

>  <r_i_docking_score>  (369) 
-8.4405000713856104

>  <s_m_subgroup_title>  (369) 
glide-dock_SP_D22_pv

>  <s_m_subgroupid>  (369) 
glide-dock_SP_D22_pv

>  <Molecule ChEMBL ID>  (369) 
CHEMBL383102

>  <Standard Type>  (369) 
Ki

>  <Standard Value>  (369) 
10000.0

>  <label>  (369) 
0

$$$$
CHEMBL2111528
     RDKit          3D

  0  0  0  0  0  0  0  0  0  0999 V3000
M  V30 BEGIN CTAB
M  V30 COUNTS 57 60 0 0 1
M  V30 BEGIN ATOM
M  V30 1 C 10.336091 2.629317 -16.272118 0
M  V30 2 O 9.209760 2.961939 -15.472390 0
M  V30 3 C 8.191041 2.038705 -15.337276 0
M  V30 4 C 8.124982 0.872113 -16.144434 0
M  V30 5 C 7.064322 -0.040665 -16.010611 0
M  V30 6 C 6.078458 0.172743 -15.037503 0
M  V30 7 Br 4.612719 -1.023293 -14.865369 0
M  V30 8 C 6.141294 1.310756 -14.221386 0
M  V30 9 C 7.162034 2.277396 -14.381779 0
M  V30 10 C 7.096133 3.517155 -13.583547 0
M  V30 11 N 8.051126 4.443560 -13.445869 0
M  V30 12 C 7.645560 5.551112 -12.698149 0
M  V30 13 C 8.578270 6.697823 -12.511518 0
M  V30 14 N 8.866787 6.924818 -11.084634 0 CHG=1
M  V30 15 C 10.049906 7.771411 -10.857961 0
M  V30 16 C 10.060519 8.401814 -9.459217 0 CFG=2
M  V30 17 C 11.397102 9.087519 -9.130570 0
M  V30 18 C 11.793298 8.582176 -7.739017 0
M  V30 19 N 10.561310 8.002752 -7.164514 0 CFG=2 CHG=1
M  V30 20 C 10.757170 7.063469 -6.038213 0
M  V30 21 C 11.358165 7.689914 -4.784578 0
M  V30 22 C 11.947622 6.832417 -3.836656 0
M  V30 23 C 12.455574 7.337338 -2.626047 0
M  V30 24 C 12.379056 8.714173 -2.352840 0
M  V30 25 C 11.789947 9.579598 -3.292975 0
M  V30 26 C 11.286228 9.074219 -4.507978 0
M  V30 27 C 9.837651 7.418358 -8.303033 0
M  V30 28 C 6.357568 5.456631 -12.244198 0
M  V30 29 S 5.625401 3.952606 -12.706819 0
M  V30 30 H 11.092395 3.406014 -16.167986 0
M  V30 31 H 10.788400 1.690070 -15.957534 0
M  V30 32 H 10.070038 2.568379 -17.325722 0
M  V30 33 H 8.866819 0.662036 -16.899439 0
M  V30 34 H 7.012760 -0.912080 -16.646994 0
M  V30 35 H 5.347162 1.438392 -13.501733 0
M  V30 36 H 9.514059 6.504368 -13.038587 0
M  V30 37 H 8.147134 7.605624 -12.936015 0
M  V30 38 H 8.022462 7.338069 -10.665795 0
M  V30 39 H 10.942738 7.166985 -11.020039 0
M  V30 40 H 10.077665 8.572587 -11.597036 0
M  V30 41 H 9.272885 9.153591 -9.406750 0
M  V30 42 H 12.179799 8.858609 -9.853352 0
M  V30 43 H 11.272260 10.169157 -9.137787 0
M  V30 44 H 12.547477 7.802140 -7.847219 0
M  V30 45 H 12.219964 9.371143 -7.119625 0
M  V30 46 H 9.793563 6.631884 -5.763479 0
M  V30 47 H 11.384611 6.230881 -6.360915 0
M  V30 48 H 11.999713 5.772817 -4.025684 0
M  V30 49 H 12.881221 6.660402 -1.901349 0
M  V30 50 H 12.753917 9.110602 -1.418408 0
M  V30 51 H 11.702360 10.629086 -3.059333 0
M  V30 52 H 10.815229 9.765065 -5.193951 0
M  V30 53 H 8.777567 7.273521 -8.077920 0
M  V30 54 H 10.264887 6.441799 -8.539631 0
M  V30 55 H 5.802491 6.172212 -11.646419 0
M  V30 56 H 9.993196 8.767779 -6.826345 0
M  V30 57 H 9.007978 6.025021 -10.651205 0
M  V30 END ATOM
M  V30 BEGIN BOND
M  V30 1 1 2 1
M  V30 2 1 3 2
M  V30 3 1 4 3
M  V30 4 2 5 4
M  V30 5 1 6 5
M  V30 6 1 7 6
M  V30 7 2 8 6
M  V30 8 2 9 3
M  V30 9 1 9 8
M  V30 10 1 10 9
M  V30 11 2 11 10
M  V30 12 1 12 11
M  V30 13 1 13 12
M  V30 14 1 14 13
M  V30 15 1 15 14
M  V30 16 1 16 15
M  V30 17 1 17 16
M  V30 18 1 18 17
M  V30 19 1 19 18
M  V30 20 1 20 19
M  V30 21 1 21 20
M  V30 22 2 22 21
M  V30 23 1 23 22
M  V30 24 2 24 23
M  V30 25 1 25 24
M  V30 26 1 26 21
M  V30 27 2 26 25
M  V30 28 1 27 16
M  V30 29 1 27 19
M  V30 30 2 28 12
M  V30 31 1 29 10
M  V30 32 1 29 28
M  V30 33 1 30 1
M  V30 34 1 31 1
M  V30 35 1 32 1
M  V30 36 1 33 4
M  V30 37 1 34 5
M  V30 38 1 35 8
M  V30 39 1 36 13
M  V30 40 1 37 13
M  V30 41 1 38 14
M  V30 42 1 39 15
M  V30 43 1 40 15
M  V30 44 1 16 41 CFG=3
M  V30 45 1 42 17
M  V30 46 1 43 17
M  V30 47 1 44 18
M  V30 48 1 45 18
M  V30 49 1 46 20
M  V30 50 1 47 20
M  V30 51 1 48 22
M  V30 52 1 49 23
M  V30 53 1 50 24
M  V30 54 1 51 25
M  V30 55 1 52 26
M  V30 56 1 53 27
M  V30 57 1 54 27
M  V30 58 1 55 28
M  V30 59 1 19 56 CFG=1
M  V30 60 1 57 14
M  V30 END BOND
M  V30 END CTAB
M  END
>  <b_m_subgroup_collapsed>  (370) 
0

>  <r_i_docking_score>  (370) 
-8.4333582483534997

>  <s_m_subgroup_title>  (370) 
glide-dock_SP_D22_pv

>  <s_m_subgroupid>  (370) 
glide-dock_SP_D22_pv

>  <Molecule ChEMBL ID>  (370) 
CHEMBL2111528

>  <Standard Type>  (370) 
Ki

>  <Standard Value>  (370) 
92.0

>  <label>  (370) 
1

$$$$
CHEMBL4846472
     RDKit          3D

  0  0  0  0  0  0  0  0  0  0999 V3000
M  V30 BEGIN CTAB
M  V30 COUNTS 55 58 0 0 1
M  V30 BEGIN ATOM
M  V30 1 C 10.329885 2.463837 -14.880486 0
M  V30 2 O 9.070843 2.985032 -14.478452 0
M  V30 3 C 7.998490 2.118860 -14.419590 0
M  V30 4 C 8.037706 0.784644 -14.900331 0
M  V30 5 C 6.893101 -0.032580 -14.831562 0
M  V30 6 C 5.713484 0.449216 -14.246867 0
M  V30 7 Cl 4.285058 -0.519686 -14.246864 0
M  V30 8 C 5.686022 1.750846 -13.722521 0
M  V30 9 C 6.798990 2.604562 -13.846865 0
M  V30 10 C 6.677444 4.025630 -13.393414 0 CFG=1
M  V30 11 C 6.014159 4.423148 -12.098182 0
M  V30 12 C 7.510235 4.574936 -12.259381 0 CFG=2
M  V30 13 C 8.181194 5.917362 -12.451202 0
M  V30 14 N 8.486022 6.572324 -11.165565 0 CHG=1
M  V30 15 C 9.554373 7.586207 -11.263567 0
M  V30 16 C 9.688911 8.397586 -9.968347 0
M  V30 17 C 11.139172 8.867065 -9.729278 0
M  V30 18 O 11.286018 9.533697 -8.480899 0
M  V30 19 C 11.339378 8.803819 -7.316371 0
M  V30 20 C 11.204668 7.397191 -7.292738 0
M  V30 21 C 11.286021 6.703260 -6.085115 0
M  V30 22 C 11.544227 7.387697 -4.893432 0
M  V30 23 C 11.759116 6.679379 -3.646008 0
M  V30 24 C 12.086022 7.321863 -2.517788 0
M  V30 25 C 12.202964 8.772847 -2.476294 0
M  V30 26 O 12.486021 9.372324 -1.448032 0
M  V30 27 N 11.981311 9.419678 -3.646738 0
M  V30 28 C 11.684049 8.784996 -4.886780 0
M  V30 29 C 11.563976 9.498627 -6.100779 0
M  V30 30 H 11.086880 3.242891 -14.791655 0
M  V30 31 H 10.639980 1.631327 -14.246882 0
M  V30 32 H 10.312535 2.139153 -15.921515 0
M  V30 33 H 8.925106 0.371233 -15.354431 0
M  V30 34 H 6.907245 -1.027676 -15.245311 0
M  V30 35 H 4.769187 2.123098 -13.289628 0
M  V30 36 H 6.480144 4.662752 -14.246864 0
M  V30 37 H 5.431458 5.341534 -12.073923 0
M  V30 38 H 5.659788 3.628014 -11.446865 0
M  V30 39 H 8.118836 3.852469 -11.719165 0
M  V30 40 H 9.100115 5.749977 -13.015335 0
M  V30 41 H 7.549152 6.577129 -13.046863 0
M  V30 42 H 7.627050 7.026608 -10.817577 0
M  V30 43 H 10.485628 7.063138 -11.486122 0
M  V30 44 H 9.361695 8.260801 -12.099504 0
M  V30 45 H 9.016520 9.256258 -9.998047 0
M  V30 46 H 9.339951 7.798179 -9.129055 0
M  V30 47 H 11.854183 8.047301 -9.812145 0
M  V30 48 H 11.428144 9.569011 -10.509358 0
M  V30 49 H 11.059481 6.809766 -8.184651 0
M  V30 50 H 11.236707 5.636580 -6.096825 0
M  V30 51 H 11.686021 5.613081 -3.657847 0
M  V30 52 H 12.274923 6.748456 -1.625145 0
M  V30 53 H 12.057604 10.425375 -3.637166 0
M  V30 54 H 11.678994 10.572634 -6.113826 0
M  V30 55 H 8.754831 5.872617 -10.490015 0
M  V30 END ATOM
M  V30 BEGIN BOND
M  V30 1 1 2 1
M  V30 2 1 3 2
M  V30 3 1 4 3
M  V30 4 2 5 4
M  V30 5 1 6 5
M  V30 6 1 7 6
M  V30 7 2 8 6
M  V30 8 2 9 3
M  V30 9 1 9 8
M  V30 10 1 10 9
M  V30 11 1 11 10
M  V30 12 1 12 10
M  V30 13 1 12 11
M  V30 14 1 13 12
M  V30 15 1 14 13
M  V30 16 1 15 14
M  V30 17 1 16 15
M  V30 18 1 17 16
M  V30 19 1 18 17
M  V30 20 1 19 18
M  V30 21 1 20 19
M  V30 22 2 21 20
M  V30 23 1 22 21
M  V30 24 1 23 22
M  V30 25 2 24 23
M  V30 26 1 25 24
M  V30 27 2 26 25
M  V30 28 1 27 25
M  V30 29 2 28 22
M  V30 30 1 28 27
M  V30 31 2 29 19
M  V30 32 1 29 28
M  V30 33 1 30 1
M  V30 34 1 31 1
M  V30 35 1 32 1
M  V30 36 1 33 4
M  V30 37 1 34 5
M  V30 38 1 35 8
M  V30 39 1 10 36 CFG=3
M  V30 40 1 37 11
M  V30 41 1 38 11
M  V30 42 1 12 39 CFG=1
M  V30 43 1 40 13
M  V30 44 1 41 13
M  V30 45 1 42 14
M  V30 46 1 43 15
M  V30 47 1 44 15
M  V30 48 1 45 16
M  V30 49 1 46 16
M  V30 50 1 47 17
M  V30 51 1 48 17
M  V30 52 1 49 20
M  V30 53 1 50 21
M  V30 54 1 51 23
M  V30 55 1 52 24
M  V30 56 1 53 27
M  V30 57 1 54 29
M  V30 58 1 55 14
M  V30 END BOND
M  V30 END CTAB
M  END
>  <b_m_subgroup_collapsed>  (371) 
0

>  <r_i_docking_score>  (371) 
-8.4328903423663508

>  <s_m_subgroup_title>  (371) 
glide-dock_SP_D22_pv

>  <s_m_subgroupid>  (371) 
glide-dock_SP_D22_pv

>  <Molecule ChEMBL ID>  (371) 
CHEMBL4846472

>  <Standard Type>  (371) 
Ki

>  <Standard Value>  (371) 
32.9

>  <label>  (371) 
1

$$$$
CHEMBL160396
     RDKit          3D

  0  0  0  0  0  0  0  0  0  0999 V3000
M  V30 BEGIN CTAB
M  V30 COUNTS 47 50 0 0 1
M  V30 BEGIN ATOM
M  V30 1 O 12.885832 4.572577 -13.846712 0
M  V30 2 C 11.701395 5.317151 -14.066503 0
M  V30 3 C 10.442004 4.459080 -14.040529 0
M  V30 4 C 10.411860 3.373165 -14.893811 0
M  V30 5 C 9.269637 2.548605 -14.992670 0
M  V30 6 C 8.154037 2.828762 -14.247069 0
M  V30 7 N 8.175044 3.890155 -13.397587 0
M  V30 8 N 7.118917 4.258394 -12.616564 0
M  V30 9 C 7.562443 5.298794 -11.955928 0
M  V30 10 C 8.907406 5.660281 -12.253388 0
M  V30 11 C 9.658922 6.819450 -11.651949 0
M  V30 12 N 9.275843 7.199547 -10.263939 0 CHG=1
M  V30 13 C 9.531598 6.119846 -9.268505 0
M  V30 14 C 9.290704 6.590969 -7.824089 0
M  V30 15 N 10.071548 7.795643 -7.550824 0
M  V30 16 C 10.661131 8.006124 -6.281513 0
M  V30 17 C 10.820026 9.303701 -5.730406 0
M  V30 18 C 11.381192 9.487629 -4.451679 0
M  V30 19 C 11.814481 8.379145 -3.703523 0
M  V30 20 Cl 12.485791 8.589356 -2.131291 0
M  V30 21 C 11.686466 7.087938 -4.240945 0
M  V30 22 C 11.132266 6.910631 -5.518871 0
M  V30 23 C 9.752048 8.905164 -8.438560 0
M  V30 24 C 9.929135 8.490874 -9.906668 0
M  V30 25 C 9.293491 4.742572 -13.220265 0
M  V30 26 H 13.597391 5.179892 -13.674304 0
M  V30 27 H 11.668494 6.135884 -13.360086 0
M  V30 28 H 11.776102 5.783781 -15.049273 0
M  V30 29 H 11.280822 3.151638 -15.507121 0
M  V30 30 H 9.267442 1.699359 -15.668460 0
M  V30 31 H 7.240441 2.244331 -14.287434 0
M  V30 32 H 6.897019 5.773547 -11.248602 0
M  V30 33 H 10.721158 6.596431 -11.605402 0
M  V30 34 H 9.546634 7.687536 -12.303581 0
M  V30 35 H 8.892582 5.261955 -9.479208 0
M  V30 36 H 10.561050 5.776085 -9.363985 0
M  V30 37 H 8.236126 6.827362 -7.682719 0
M  V30 38 H 9.492546 5.772014 -7.140199 0
M  V30 39 H 10.485805 10.184302 -6.251661 0
M  V30 40 H 11.464858 10.481107 -4.037325 0
M  V30 41 H 12.023765 6.230155 -3.676141 0
M  V30 42 H 11.093795 5.903261 -5.900595 0
M  V30 43 H 8.723800 9.222056 -8.256356 0
M  V30 44 H 10.396575 9.767907 -8.269228 0
M  V30 45 H 10.998146 8.415685 -10.116385 0
M  V30 46 H 9.533202 9.278127 -10.547792 0
M  V30 47 H 8.272519 7.373149 -10.246223 0
M  V30 END ATOM
M  V30 BEGIN BOND
M  V30 1 1 2 1
M  V30 2 1 3 2
M  V30 3 2 4 3
M  V30 4 1 5 4
M  V30 5 2 6 5
M  V30 6 1 7 6
M  V30 7 1 8 7
M  V30 8 2 9 8
M  V30 9 1 10 9
M  V30 10 1 11 10
M  V30 11 1 12 11
M  V30 12 1 13 12
M  V30 13 1 14 13
M  V30 14 1 15 14
M  V30 15 1 16 15
M  V30 16 1 17 16
M  V30 17 2 18 17
M  V30 18 1 19 18
M  V30 19 1 20 19
M  V30 20 2 21 19
M  V30 21 2 22 16
M  V30 22 1 22 21
M  V30 23 1 23 15
M  V30 24 1 24 12
M  V30 25 1 24 23
M  V30 26 1 25 3
M  V30 27 1 25 7
M  V30 28 2 25 10
M  V30 29 1 26 1
M  V30 30 1 27 2
M  V30 31 1 28 2
M  V30 32 1 29 4
M  V30 33 1 30 5
M  V30 34 1 31 6
M  V30 35 1 32 9
M  V30 36 1 33 11
M  V30 37 1 34 11
M  V30 38 1 35 13
M  V30 39 1 36 13
M  V30 40 1 37 14
M  V30 41 1 38 14
M  V30 42 1 39 17
M  V30 43 1 40 18
M  V30 44 1 41 21
M  V30 45 1 42 22
M  V30 46 1 43 23
M  V30 47 1 44 23
M  V30 48 1 45 24
M  V30 49 1 46 24
M  V30 50 1 47 12
M  V30 END BOND
M  V30 END CTAB
M  END
>  <b_m_subgroup_collapsed>  (372) 
0

>  <r_i_docking_score>  (372) 
-8.4327729635436306

>  <s_m_subgroup_title>  (372) 
glide-dock_SP_D22_pv

>  <s_m_subgroupid>  (372) 
glide-dock_SP_D22_pv

>  <Molecule ChEMBL ID>  (372) 
CHEMBL160396

>  <Standard Type>  (372) 
Ki

>  <Standard Value>  (372) 
56000.0

>  <label>  (372) 
0

$$$$
CHEMBL556496
     RDKit          3D

  0  0  0  0  0  0  0  0  0  0999 V3000
M  V30 BEGIN CTAB
M  V30 COUNTS 58 61 0 0 1
M  V30 BEGIN ATOM
M  V30 1 C 12.441157 7.629925 -2.134794 0
M  V30 2 O 12.041625 7.027797 -3.353637 0
M  V30 3 C 11.686024 7.856160 -4.393136 0
M  V30 4 C 12.079294 9.211081 -4.501430 0
M  V30 5 C 11.686410 9.963765 -5.620553 0
M  V30 6 C 10.881996 9.387173 -6.613972 0
M  V30 7 C 10.457060 8.048992 -6.522851 0
M  V30 8 C 9.532254 7.468653 -7.601958 0 CFG=2
M  V30 9 C 9.342365 5.952300 -7.446774 0
M  V30 10 C 8.480186 5.358739 -8.547640 0
M  V30 11 C 9.043879 5.691782 -9.922778 0
M  V30 12 N 9.176180 7.161640 -10.090323 0 CFG=2 CHG=1
M  V30 13 C 9.559002 7.519503 -11.479672 0
M  V30 14 C 11.057502 7.257301 -11.758294 0
M  V30 15 N 11.332978 6.703946 -13.080768 0
M  V30 16 C 12.348027 7.290735 -13.924849 0
M  V30 17 C 12.457577 6.279519 -15.057704 0
M  V30 18 N 11.579548 5.183774 -14.652220 0
M  V30 19 C 11.475271 3.972052 -15.422002 0
M  V30 20 C 11.999726 3.939556 -16.738844 0
M  V30 21 C 11.925428 2.773154 -17.523951 0
M  V30 22 C 11.324648 1.611722 -17.008549 0
M  V30 23 C 10.806355 1.618678 -15.702301 0
M  V30 24 Cl 10.085246 0.190310 -15.057195 0
M  V30 25 C 10.885649 2.783376 -14.914183 0
M  V30 26 C 10.923689 5.498400 -13.513489 0
M  V30 27 O 10.090213 4.811560 -12.922865 0
M  V30 28 C 10.013338 7.800698 -9.034356 0
M  V30 29 C 10.892186 7.288961 -5.409698 0
M  V30 30 H 12.745716 6.842818 -1.447112 0
M  V30 31 H 13.286122 8.302505 -2.246858 0
M  V30 32 H 11.616051 8.178770 -1.682651 0
M  V30 33 H 12.696010 9.690516 -3.757429 0
M  V30 34 H 12.000684 10.989151 -5.727424 0
M  V30 35 H 10.588649 9.994256 -7.446771 0
M  V30 36 H 8.556581 7.938373 -7.458484 0
M  V30 37 H 8.847063 5.772368 -6.495986 0
M  V30 38 H 10.308099 5.445343 -7.447257 0
M  V30 39 H 7.482490 5.772324 -8.456245 0
M  V30 40 H 8.389150 4.279357 -8.423108 0
M  V30 41 H 8.372761 5.292819 -10.684929 0
M  V30 42 H 10.004945 5.194312 -10.054602 0
M  V30 43 H 9.345649 8.577151 -11.639307 0
M  V30 44 H 8.904773 6.991621 -12.174434 0
M  V30 45 H 11.462965 6.572376 -11.026882 0
M  V30 46 H 11.628172 8.172389 -11.609939 0
M  V30 47 H 12.048798 8.274705 -14.283134 0
M  V30 48 H 13.286066 7.387206 -13.378754 0
M  V30 49 H 13.486021 5.936690 -15.185241 0
M  V30 50 H 12.114357 6.720443 -15.995166 0
M  V30 51 H 12.465942 4.808720 -17.176849 0
M  V30 52 H 12.329859 2.771021 -18.525530 0
M  V30 53 H 11.269279 0.716279 -17.610006 0
M  V30 54 H 10.494708 2.718826 -13.911737 0
M  V30 55 H 11.053102 7.486202 -9.116756 0
M  V30 56 H 9.993209 8.876221 -9.208755 0
M  V30 57 H 10.611401 6.255155 -5.281693 0
M  V30 58 H 8.224995 7.512149 -9.974109 0
M  V30 END ATOM
M  V30 BEGIN BOND
M  V30 1 1 2 1
M  V30 2 1 3 2
M  V30 3 1 4 3
M  V30 4 2 5 4
M  V30 5 1 6 5
M  V30 6 2 7 6
M  V30 7 1 8 7
M  V30 8 1 9 8
M  V30 9 1 10 9
M  V30 10 1 11 10
M  V30 11 1 12 11
M  V30 12 1 13 12
M  V30 13 1 14 13
M  V30 14 1 15 14
M  V30 15 1 16 15
M  V30 16 1 17 16
M  V30 17 1 18 17
M  V30 18 1 19 18
M  V30 19 2 20 19
M  V30 20 1 21 20
M  V30 21 2 22 21
M  V30 22 1 23 22
M  V30 23 1 24 23
M  V30 24 1 25 19
M  V30 25 2 25 23
M  V30 26 1 26 15
M  V30 27 1 26 18
M  V30 28 2 27 26
M  V30 29 1 28 8
M  V30 30 1 28 12
M  V30 31 2 29 3
M  V30 32 1 29 7
M  V30 33 1 30 1
M  V30 34 1 31 1
M  V30 35 1 32 1
M  V30 36 1 33 4
M  V30 37 1 34 5
M  V30 38 1 35 6
M  V30 39 1 8 36 CFG=1
M  V30 40 1 37 9
M  V30 41 1 38 9
M  V30 42 1 39 10
M  V30 43 1 40 10
M  V30 44 1 41 11
M  V30 45 1 42 11
M  V30 46 1 43 13
M  V30 47 1 44 13
M  V30 48 1 45 14
M  V30 49 1 46 14
M  V30 50 1 47 16
M  V30 51 1 48 16
M  V30 52 1 49 17
M  V30 53 1 50 17
M  V30 54 1 51 20
M  V30 55 1 52 21
M  V30 56 1 53 22
M  V30 57 1 54 25
M  V30 58 1 55 28
M  V30 59 1 56 28
M  V30 60 1 57 29
M  V30 61 1 12 58 CFG=1
M  V30 END BOND
M  V30 END CTAB
M  END
>  <b_m_subgroup_collapsed>  (373) 
0

>  <r_i_docking_score>  (373) 
-8.4304454223947598

>  <s_m_subgroup_title>  (373) 
glide-dock_SP_D22_pv

>  <s_m_subgroupid>  (373) 
glide-dock_SP_D22_pv

>  <Molecule ChEMBL ID>  (373) 
CHEMBL556496

>  <Standard Type>  (373) 
Ki

>  <Standard Value>  (373) 
25.12

>  <label>  (373) 
1

$$$$
CHEMBL4472382
     RDKit          3D

  0  0  0  0  0  0  0  0  0  0999 V3000
M  V30 BEGIN CTAB
M  V30 COUNTS 52 55 0 0 1
M  V30 BEGIN ATOM
M  V30 1 O 5.821823 4.794262 -13.443955 0
M  V30 2 C 7.147873 4.735194 -12.944558 0 CFG=1
M  V30 3 C 7.933798 3.604797 -13.635558 0
M  V30 4 C 7.233615 2.532906 -14.248382 0
M  V30 5 C 7.921674 1.475652 -14.871174 0
M  V30 6 C 9.328016 1.466519 -14.889908 0
M  V30 7 Cl 10.170994 0.172519 -15.652233 0
M  V30 8 C 10.041272 2.511716 -14.275506 0
M  V30 9 C 9.349565 3.570449 -13.658766 0
M  V30 10 C 7.734579 6.153477 -13.153300 0
M  V30 11 C 8.846381 6.606272 -12.182733 0
M  V30 12 N 8.591061 6.227044 -10.769248 0 CFG=2 CHG=1
M  V30 13 C 9.730419 6.612760 -9.900779 0
M  V30 14 C 9.331287 6.876274 -8.443199 0
M  V30 15 C 10.526156 7.340870 -7.631464 0 CFG=1
M  V30 16 C 11.079535 8.736882 -7.813233 0
M  V30 17 C 10.361460 8.371850 -6.537248 0 CFG=2
M  V30 18 C 11.093632 8.292772 -5.232866 0
M  V30 19 C 11.431966 7.052060 -4.646067 0
M  V30 20 C 12.048208 7.007055 -3.376104 0
M  V30 21 C 12.325083 8.202248 -2.684814 0
M  V30 22 F 12.882276 8.172218 -1.449526 0
M  V30 23 C 12.009760 9.438271 -3.274346 0
M  V30 24 C 11.401865 9.483376 -4.544407 0
M  V30 25 C 8.240460 4.793352 -10.639935 0
M  V30 26 C 6.972450 4.492517 -11.446870 0
M  V30 27 H 5.345939 5.457409 -12.965387 0
M  V30 28 H 6.154278 2.501862 -14.242192 0
M  V30 29 H 7.372130 0.667470 -15.332829 0
M  V30 30 H 11.122027 2.498985 -14.275240 0
M  V30 31 H 9.945923 4.332312 -13.193243 0
M  V30 32 H 8.086060 6.236640 -14.180497 0
M  V30 33 H 6.931555 6.887015 -13.041096 0
M  V30 34 H 8.928118 7.692682 -12.240960 0
M  V30 35 H 9.820331 6.237015 -12.495233 0
M  V30 36 H 10.496198 5.840480 -9.946280 0
M  V30 37 H 10.187178 7.524078 -10.288651 0
M  V30 38 H 8.546926 7.633228 -8.401586 0
M  V30 39 H 8.924390 5.979659 -7.976638 0
M  V30 40 H 11.280284 6.569660 -7.487350 0
M  V30 41 H 12.161135 8.855294 -7.774835 0
M  V30 42 H 10.562943 9.374946 -8.526893 0
M  V30 43 H 9.366328 8.784037 -6.383487 0
M  V30 44 H 11.191850 6.125894 -5.145842 0
M  V30 45 H 12.284038 6.055934 -2.921389 0
M  V30 46 H 12.213964 10.353907 -2.740394 0
M  V30 47 H 11.140774 10.439651 -4.975515 0
M  V30 48 H 8.084176 4.550133 -9.590501 0
M  V30 49 H 9.073133 4.172138 -10.970546 0
M  V30 50 H 6.212151 5.187730 -11.088828 0
M  V30 51 H 6.602011 3.485330 -11.249831 0
M  V30 52 H 7.786399 6.780184 -10.466621 0
M  V30 END ATOM
M  V30 BEGIN BOND
M  V30 1 1 2 1 CFG=3
M  V30 2 1 3 2
M  V30 3 1 4 3
M  V30 4 2 5 4
M  V30 5 1 6 5
M  V30 6 1 7 6
M  V30 7 2 8 6
M  V30 8 2 9 3
M  V30 9 1 9 8
M  V30 10 1 10 2
M  V30 11 1 11 10
M  V30 12 1 12 11
M  V30 13 1 13 12
M  V30 14 1 14 13
M  V30 15 1 15 14
M  V30 16 1 16 15
M  V30 17 1 17 15
M  V30 18 1 17 16
M  V30 19 1 18 17
M  V30 20 1 19 18
M  V30 21 2 20 19
M  V30 22 1 21 20
M  V30 23 1 22 21
M  V30 24 2 23 21
M  V30 25 2 24 18
M  V30 26 1 24 23
M  V30 27 1 25 12
M  V30 28 1 26 2
M  V30 29 1 26 25
M  V30 30 1 27 1
M  V30 31 1 28 4
M  V30 32 1 29 5
M  V30 33 1 30 8
M  V30 34 1 31 9
M  V30 35 1 32 10
M  V30 36 1 33 10
M  V30 37 1 34 11
M  V30 38 1 35 11
M  V30 39 1 36 13
M  V30 40 1 37 13
M  V30 41 1 38 14
M  V30 42 1 39 14
M  V30 43 1 15 40 CFG=1
M  V30 44 1 41 16
M  V30 45 1 42 16
M  V30 46 1 17 43 CFG=1
M  V30 47 1 44 19
M  V30 48 1 45 20
M  V30 49 1 46 23
M  V30 50 1 47 24
M  V30 51 1 48 25
M  V30 52 1 49 25
M  V30 53 1 50 26
M  V30 54 1 51 26
M  V30 55 1 12 52 CFG=1
M  V30 END BOND
M  V30 END CTAB
M  END
>  <b_m_subgroup_collapsed>  (374) 
0

>  <r_i_docking_score>  (374) 
-8.4303129708612001

>  <s_m_subgroup_title>  (374) 
glide-dock_SP_D22_pv

>  <s_m_subgroupid>  (374) 
glide-dock_SP_D22_pv

>  <Molecule ChEMBL ID>  (374) 
CHEMBL4472382

>  <Standard Type>  (374) 
Ki

>  <Standard Value>  (374) 
1.514

>  <label>  (374) 
1

$$$$
CHEMBL26120
     RDKit          3D

  0  0  0  0  0  0  0  0  0  0999 V3000
M  V30 BEGIN CTAB
M  V30 COUNTS 52 55 0 0 1
M  V30 BEGIN ATOM
M  V30 1 C 11.685239 10.970425 -6.247754 0
M  V30 2 C 11.234382 9.598464 -6.646687 0
M  V30 3 N 10.908404 9.363620 -7.901456 0
M  V30 4 N 10.528435 8.064174 -7.956655 0
M  V30 5 C 10.221079 7.475164 -9.256534 0 CFG=1
M  V30 6 C 9.408193 6.168678 -9.177126 0
M  V30 7 C 9.146185 5.592371 -10.584564 0
M  V30 8 N 8.486108 6.581965 -11.480169 0 CFG=2 CHG=1
M  V30 9 C 8.250302 6.098928 -12.868011 0
M  V30 10 C 7.517612 4.776141 -13.021013 0
M  V30 11 C 6.377845 4.482952 -12.247379 0
M  V30 12 C 5.693968 3.270826 -12.446434 0
M  V30 13 C 6.090619 2.373047 -13.453381 0
M  V30 14 C 7.230793 2.660798 -14.231182 0
M  V30 15 C 7.674763 1.726955 -15.252595 0
M  V30 16 N 8.029181 0.985743 -16.066561 0
M  V30 17 C 7.954071 3.849331 -13.994831 0
M  V30 18 C 9.213820 7.873388 -11.537984 0
M  V30 19 C 9.454590 8.461514 -10.151352 0
M  V30 20 C 10.664248 7.457610 -6.724466 0
M  V30 21 C 11.114456 8.419321 -5.865204 0
M  V30 22 C 11.505040 8.242922 -4.459161 0
M  V30 23 C 11.685309 9.339123 -3.582917 0
M  V30 24 C 12.185967 9.163236 -2.292452 0
M  V30 25 C 12.486043 7.878700 -1.846279 0
M  V30 26 C 12.231624 6.762232 -2.653579 0
M  V30 27 C 11.736052 6.945259 -3.954968 0
M  V30 28 H 12.696075 10.940301 -5.848341 0
M  V30 29 H 11.685541 11.689255 -7.056648 0
M  V30 30 H 11.005170 11.372260 -5.504539 0
M  V30 31 H 11.181773 7.254088 -9.725308 0
M  V30 32 H 9.938093 5.421600 -8.586097 0
M  V30 33 H 8.458286 6.351729 -8.671498 0
M  V30 34 H 8.528030 4.699900 -10.487774 0
M  V30 35 H 10.084621 5.271437 -11.035430 0
M  V30 36 H 7.685900 6.852744 -13.417672 0
M  V30 37 H 9.215168 6.013413 -13.370383 0
M  V30 38 H 6.038098 5.167273 -11.481753 0
M  V30 39 H 4.885773 3.010200 -11.796524 0
M  V30 40 H 5.544817 1.451837 -13.598536 0
M  V30 41 H 8.827404 4.068326 -14.593758 0
M  V30 42 H 8.642562 8.589236 -12.131044 0
M  V30 43 H 10.170750 7.736000 -12.044563 0
M  V30 44 H 8.510392 8.746912 -9.684848 0
M  V30 45 H 10.030937 9.372502 -10.274086 0
M  V30 46 H 10.462206 6.408806 -6.569324 0
M  V30 47 H 11.455895 10.348652 -3.849417 0
M  V30 48 H 12.350448 10.013050 -1.647503 0
M  V30 49 H 12.904702 7.771520 -0.860464 0
M  V30 50 H 12.443040 5.771920 -2.283440 0
M  V30 51 H 11.585598 6.074486 -4.575399 0
M  V30 52 H 7.582996 6.812646 -11.059288 0
M  V30 END ATOM
M  V30 BEGIN BOND
M  V30 1 1 2 1
M  V30 2 2 3 2
M  V30 3 1 4 3
M  V30 4 1 5 4
M  V30 5 1 6 5
M  V30 6 1 7 6
M  V30 7 1 8 7
M  V30 8 1 9 8
M  V30 9 1 10 9
M  V30 10 2 11 10
M  V30 11 1 12 11
M  V30 12 2 13 12
M  V30 13 1 14 13
M  V30 14 1 15 14
M  V30 15 3 16 15
M  V30 16 1 17 10
M  V30 17 2 17 14
M  V30 18 1 18 8
M  V30 19 1 19 5
M  V30 20 1 19 18
M  V30 21 1 20 4
M  V30 22 1 21 2
M  V30 23 2 21 20
M  V30 24 1 22 21
M  V30 25 2 23 22
M  V30 26 1 24 23
M  V30 27 2 25 24
M  V30 28 1 26 25
M  V30 29 1 27 22
M  V30 30 2 27 26
M  V30 31 1 28 1
M  V30 32 1 29 1
M  V30 33 1 30 1
M  V30 34 1 5 31 CFG=3
M  V30 35 1 32 6
M  V30 36 1 33 6
M  V30 37 1 34 7
M  V30 38 1 35 7
M  V30 39 1 36 9
M  V30 40 1 37 9
M  V30 41 1 38 11
M  V30 42 1 39 12
M  V30 43 1 40 13
M  V30 44 1 41 17
M  V30 45 1 42 18
M  V30 46 1 43 18
M  V30 47 1 44 19
M  V30 48 1 45 19
M  V30 49 1 46 20
M  V30 50 1 47 23
M  V30 51 1 48 24
M  V30 52 1 49 25
M  V30 53 1 50 26
M  V30 54 1 51 27
M  V30 55 1 8 52 CFG=1
M  V30 END BOND
M  V30 END CTAB
M  END
>  <b_m_subgroup_collapsed>  (375) 
0

>  <r_i_docking_score>  (375) 
-8.4297738052103792

>  <s_m_subgroup_title>  (375) 
glide-dock_SP_D22_pv

>  <s_m_subgroupid>  (375) 
glide-dock_SP_D22_pv

>  <Molecule ChEMBL ID>  (375) 
CHEMBL26120

>  <Standard Type>  (375) 
Ki

>  <Standard Value>  (375) 
15.0

>  <label>  (375) 
1

$$$$
CHEMBL4438602
     RDKit          3D

  0  0  0  0  0  0  0  0  0  0999 V3000
M  V30 BEGIN CTAB
M  V30 COUNTS 61 64 0 0 1
M  V30 BEGIN ATOM
M  V30 1 N 16.085945 -0.618852 -21.255154 0
M  V30 2 C 15.164756 -0.324444 -20.621994 0
M  V30 3 C 14.002967 0.037068 -19.829819 0
M  V30 4 C 13.095050 -0.962493 -19.444666 0
M  V30 5 C 11.943565 -0.627197 -18.704527 0
M  V30 6 C 11.679638 0.711349 -18.331612 0
M  V30 7 N 10.488513 1.029526 -17.642332 0
M  V30 8 C 9.934489 2.378772 -17.687410 0
M  V30 9 C 10.141979 3.097342 -16.342270 0
M  V30 10 N 9.610395 2.281685 -15.214994 0 CHG=1
M  V30 11 C 9.705697 2.938516 -13.885852 0
M  V30 12 C 8.937114 4.271629 -13.767002 0
M  V30 13 C 9.047102 4.847655 -12.348008 0
M  V30 14 C 8.506819 6.284171 -12.213638 0
M  V30 15 N 8.886045 6.861047 -10.930923 0
M  V30 16 C 10.120996 7.277024 -10.610711 0
M  V30 17 O 11.033484 7.372867 -11.433927 0
M  V30 18 C 10.359590 7.605978 -9.164469 0
M  V30 19 C 11.352142 8.546618 -8.809059 0
M  V30 20 C 11.687423 8.750233 -7.456050 0
M  V30 21 C 11.042839 8.014588 -6.440627 0
M  V30 22 C 11.459359 8.152528 -5.046769 0
M  V30 23 C 11.699074 9.432913 -4.458399 0
M  V30 24 C 12.080168 9.363561 -3.143487 0
M  V30 25 S 12.104778 7.718756 -2.576009 0
M  V30 26 C 11.686005 7.131427 -4.157991 0
M  V30 27 C 10.027025 7.101726 -6.789277 0
M  V30 28 C 9.685769 6.899573 -8.140459 0
M  V30 29 C 10.218353 0.921421 -15.195367 0
M  V30 30 C 10.024028 0.192713 -16.539217 0
M  V30 31 C 12.619246 1.705278 -18.700895 0
M  V30 32 C 13.769769 1.372535 -19.446758 0
M  V30 33 H 13.286065 -1.988776 -19.726227 0
M  V30 34 H 11.247470 -1.413040 -18.454741 0
M  V30 35 H 8.867368 2.293662 -17.891499 0
M  V30 36 H 10.338539 2.965323 -18.511696 0
M  V30 37 H 9.640379 4.061630 -16.396931 0
M  V30 38 H 11.203061 3.295861 -16.179783 0
M  V30 39 H 10.756013 3.086566 -13.630476 0
M  V30 40 H 9.293963 2.254543 -13.143100 0
M  V30 41 H 7.886999 4.134908 -14.029519 0
M  V30 42 H 9.345678 5.007838 -14.457996 0
M  V30 43 H 10.097301 4.832756 -12.060463 0
M  V30 44 H 8.536720 4.194921 -11.636576 0
M  V30 45 H 7.418439 6.288047 -12.288694 0
M  V30 46 H 8.874448 6.923118 -13.015673 0
M  V30 47 H 8.140633 6.972139 -10.247880 0
M  V30 48 H 11.892362 9.085870 -9.575844 0
M  V30 49 H 12.481175 9.437254 -7.203814 0
M  V30 50 H 11.583687 10.351737 -5.014256 0
M  V30 51 H 12.320141 10.172701 -2.468349 0
M  V30 52 H 11.590265 6.069236 -4.330831 0
M  V30 53 H 9.519032 6.535534 -6.022210 0
M  V30 54 H 8.924814 6.169321 -8.376301 0
M  V30 55 H 11.285940 1.009206 -14.981588 0
M  V30 56 H 9.781722 0.325760 -14.393074 0
M  V30 57 H 8.965254 -0.021926 -16.693298 0
M  V30 58 H 10.526134 -0.772697 -16.505278 0
M  V30 59 H 12.478113 2.737345 -18.420492 0
M  V30 60 H 14.465502 2.149898 -19.728853 0
M  V30 61 H 8.626716 2.143736 -15.400044 0
M  V30 END ATOM
M  V30 BEGIN BOND
M  V30 1 3 2 1
M  V30 2 1 3 2
M  V30 3 1 4 3
M  V30 4 2 5 4
M  V30 5 1 6 5
M  V30 6 1 7 6
M  V30 7 1 8 7
M  V30 8 1 9 8
M  V30 9 1 10 9
M  V30 10 1 11 10
M  V30 11 1 12 11
M  V30 12 1 13 12
M  V30 13 1 14 13
M  V30 14 1 15 14
M  V30 15 1 16 15
M  V30 16 2 17 16
M  V30 17 1 18 16
M  V30 18 1 19 18
M  V30 19 2 20 19
M  V30 20 1 21 20
M  V30 21 1 22 21
M  V30 22 1 23 22
M  V30 23 2 24 23
M  V30 24 1 25 24
M  V30 25 2 26 22
M  V30 26 1 26 25
M  V30 27 2 27 21
M  V30 28 2 28 18
M  V30 29 1 28 27
M  V30 30 1 29 10
M  V30 31 1 30 7
M  V30 32 1 30 29
M  V30 33 2 31 6
M  V30 34 2 32 3
M  V30 35 1 32 31
M  V30 36 1 33 4
M  V30 37 1 34 5
M  V30 38 1 35 8
M  V30 39 1 36 8
M  V30 40 1 37 9
M  V30 41 1 38 9
M  V30 42 1 39 11
M  V30 43 1 40 11
M  V30 44 1 41 12
M  V30 45 1 42 12
M  V30 46 1 43 13
M  V30 47 1 44 13
M  V30 48 1 45 14
M  V30 49 1 46 14
M  V30 50 1 47 15
M  V30 51 1 48 19
M  V30 52 1 49 20
M  V30 53 1 50 23
M  V30 54 1 51 24
M  V30 55 1 52 26
M  V30 56 1 53 27
M  V30 57 1 54 28
M  V30 58 1 55 29
M  V30 59 1 56 29
M  V30 60 1 57 30
M  V30 61 1 58 30
M  V30 62 1 59 31
M  V30 63 1 60 32
M  V30 64 1 61 10
M  V30 END BOND
M  V30 END CTAB
M  END
>  <b_m_subgroup_collapsed>  (376) 
0

>  <r_i_docking_score>  (376) 
-8.4289275485049799

>  <s_m_subgroup_title>  (376) 
glide-dock_SP_D22_pv

>  <s_m_subgroupid>  (376) 
glide-dock_SP_D22_pv

>  <Molecule ChEMBL ID>  (376) 
CHEMBL4438602

>  <Standard Type>  (376) 
Ki

>  <Standard Value>  (376) 
20000.0

>  <label>  (376) 
0

$$$$
CHEMBL2159479
     RDKit          3D

  0  0  0  0  0  0  0  0  0  0999 V3000
M  V30 BEGIN CTAB
M  V30 COUNTS 47 49 0 0 1
M  V30 BEGIN ATOM
M  V30 1 O 5.965078 4.739035 -13.028711 0
M  V30 2 S 7.400027 4.942848 -12.775428 0
M  V30 3 O 8.032373 6.239061 -13.049196 0
M  V30 4 N 7.685822 4.576918 -11.113019 0
M  V30 5 C 8.956388 4.914362 -10.459586 0 CFG=2
M  V30 6 C 8.992951 4.319970 -9.048795 0
M  V30 7 C 9.127484 5.490615 -8.083307 0
M  V30 8 N 8.886208 6.729592 -8.848309 0 CFG=1 CHG=1
M  V30 9 C 9.657291 7.895241 -8.356543 0
M  V30 10 C 9.132755 8.416317 -7.015634 0
M  V30 11 O 10.104869 9.290874 -6.449499 0
M  V30 12 C 10.885857 8.818887 -5.417246 0
M  V30 13 C 11.366547 9.772051 -4.498205 0
M  V30 14 C 12.086121 9.372046 -3.356772 0
M  V30 15 C 12.338757 8.007603 -3.125413 0
M  V30 16 C 11.887585 7.046910 -4.049172 0
M  V30 17 C 11.180505 7.449272 -5.199176 0
M  V30 18 C 9.145088 6.429423 -10.264859 0
M  V30 19 C 8.324790 3.688183 -13.664402 0
M  V30 20 C 7.646451 2.597046 -14.247068 0
M  V30 21 C 8.377145 1.597309 -14.920223 0
M  V30 22 C 9.779328 1.692781 -15.017959 0
M  V30 23 F 10.481208 0.723723 -15.651143 0
M  V30 24 C 10.451463 2.798796 -14.458796 0
M  V30 25 C 9.724683 3.801272 -13.783943 0
M  V30 26 H 6.859100 4.768146 -10.531494 0
M  V30 27 H 9.774589 4.508934 -11.052629 0
M  V30 28 H 9.825708 3.624825 -8.936951 0
M  V30 29 H 8.085659 3.768121 -8.813788 0
M  V30 30 H 10.136584 5.484292 -7.670640 0
M  V30 31 H 8.417880 5.414849 -7.259919 0
M  V30 32 H 9.599951 8.705971 -9.084327 0
M  V30 33 H 10.712790 7.630003 -8.277449 0
M  V30 34 H 8.849259 7.617210 -6.331792 0
M  V30 35 H 8.214336 8.971859 -7.193588 0
M  V30 36 H 11.154430 10.819172 -4.654068 0
M  V30 37 H 12.438688 10.113247 -2.653322 0
M  V30 38 H 12.881405 7.696730 -2.245178 0
M  V30 39 H 12.084423 5.998784 -3.876418 0
M  V30 40 H 10.848001 6.686938 -5.884786 0
M  V30 41 H 8.487506 7.052322 -10.866629 0
M  V30 42 H 10.172383 6.695679 -10.521176 0
M  V30 43 H 6.572042 2.514450 -14.166833 0
M  V30 44 H 7.863038 0.750606 -15.352686 0
M  V30 45 H 11.526211 2.871893 -14.542773 0
M  V30 46 H 10.242444 4.648101 -13.358847 0
M  V30 47 H 7.892406 6.950862 -8.796189 0
M  V30 END ATOM
M  V30 BEGIN BOND
M  V30 1 2 2 1
M  V30 2 2 3 2
M  V30 3 1 4 2
M  V30 4 1 5 4
M  V30 5 1 6 5
M  V30 6 1 7 6
M  V30 7 1 8 7
M  V30 8 1 9 8
M  V30 9 1 10 9
M  V30 10 1 11 10
M  V30 11 1 12 11
M  V30 12 2 13 12
M  V30 13 1 14 13
M  V30 14 2 15 14
M  V30 15 1 16 15
M  V30 16 1 17 12
M  V30 17 2 17 16
M  V30 18 1 18 5
M  V30 19 1 18 8
M  V30 20 1 19 2
M  V30 21 1 20 19
M  V30 22 2 21 20
M  V30 23 1 22 21
M  V30 24 1 23 22
M  V30 25 2 24 22
M  V30 26 2 25 19
M  V30 27 1 25 24
M  V30 28 1 26 4
M  V30 29 1 5 27 CFG=3
M  V30 30 1 28 6
M  V30 31 1 29 6
M  V30 32 1 30 7
M  V30 33 1 31 7
M  V30 34 1 32 9
M  V30 35 1 33 9
M  V30 36 1 34 10
M  V30 37 1 35 10
M  V30 38 1 36 13
M  V30 39 1 37 14
M  V30 40 1 38 15
M  V30 41 1 39 16
M  V30 42 1 40 17
M  V30 43 1 41 18
M  V30 44 1 42 18
M  V30 45 1 43 20
M  V30 46 1 44 21
M  V30 47 1 45 24
M  V30 48 1 46 25
M  V30 49 1 8 47 CFG=3
M  V30 END BOND
M  V30 END CTAB
M  END
>  <b_m_subgroup_collapsed>  (377) 
0

>  <r_i_docking_score>  (377) 
-8.4230276563646793

>  <s_m_subgroup_title>  (377) 
glide-dock_SP_D22_pv

>  <s_m_subgroupid>  (377) 
glide-dock_SP_D22_pv

>  <Molecule ChEMBL ID>  (377) 
CHEMBL2159479

>  <Standard Type>  (377) 
Ki

>  <Standard Value>  (377) 
11.0

>  <label>  (377) 
1

$$$$
CHEMBL5289958
     RDKit          3D

  0  0  0  0  0  0  0  0  0  0999 V3000
M  V30 BEGIN CTAB
M  V30 COUNTS 58 62 0 0 1
M  V30 BEGIN ATOM
M  V30 1 F 5.695768 -1.298182 -14.877063 0
M  V30 2 C 5.899621 -0.002026 -14.545962 0
M  V30 3 C 6.715197 0.814663 -15.348068 0
M  V30 4 C 6.894269 2.171635 -15.012895 0
M  V30 5 C 6.304454 2.712111 -13.843316 0
M  V30 6 C 6.474203 4.174647 -13.440676 0
M  V30 7 N 7.807230 4.532100 -12.889413 0 CFG=1 CHG=1
M  V30 8 C 8.959778 4.197589 -13.775366 0
M  V30 9 C 10.306208 4.484398 -13.106796 0
M  V30 10 C 10.335479 5.914060 -12.576523 0
M  V30 11 C 9.171322 6.178230 -11.597329 0 CFG=1
M  V30 12 C 9.142406 5.253049 -10.350672 0
M  V30 13 C 8.906983 6.180927 -9.177039 0
M  V30 14 N 9.684960 7.376334 -9.552444 0 CFG=2 CHG=1
M  V30 15 C 9.578483 8.552928 -8.649105 0
M  V30 16 C 10.297087 8.328094 -7.343539 0
M  V30 17 C 10.848885 7.169118 -6.864869 0
M  V30 18 C 11.225613 7.411733 -5.519052 0
M  V30 19 C 11.695928 6.572174 -4.499787 0
M  V30 20 C 12.085938 7.071553 -3.255914 0
M  V30 21 C 12.000582 8.444964 -3.007151 0
M  V30 22 Cl 12.486103 8.973310 -1.453214 0
M  V30 23 C 11.495317 9.326782 -3.992878 0
M  V30 24 C 11.091266 8.796089 -5.239432 0
M  V30 25 N 10.502380 9.321080 -6.383300 0
M  V30 26 C 9.357218 7.597219 -10.980792 0
M  V30 27 C 7.865040 5.946455 -12.396488 0
M  V30 28 C 5.492229 1.881625 -13.045610 0
M  V30 29 C 5.281761 0.540092 -13.405366 0
M  V30 30 F 4.473171 -0.227499 -12.646864 0
M  V30 31 H 7.182773 0.402122 -16.230955 0
M  V30 32 H 7.498455 2.785349 -15.660873 0
M  V30 33 H 6.228901 4.817103 -14.272148 0
M  V30 34 H 5.725883 4.408567 -12.681864 0
M  V30 35 H 8.978883 3.136852 -14.008907 0
M  V30 36 H 8.876019 4.746816 -14.715097 0
M  V30 37 H 10.484669 3.775064 -12.299286 0
M  V30 38 H 11.115259 4.333105 -13.822267 0
M  V30 39 H 11.286324 6.172325 -12.124990 0
M  V30 40 H 10.275423 6.571955 -13.436980 0
M  V30 41 H 8.373196 4.480962 -10.369194 0
M  V30 42 H 10.090169 4.740387 -10.210413 0
M  V30 43 H 7.851535 6.421930 -9.098954 0
M  V30 44 H 9.171771 5.702524 -8.240360 0
M  V30 45 H 10.016586 9.414769 -9.151893 0
M  V30 46 H 8.528499 8.791947 -8.470123 0
M  V30 47 H 10.933373 6.202394 -7.332634 0
M  V30 48 H 11.799858 5.522509 -4.697439 0
M  V30 49 H 12.454165 6.398013 -2.495209 0
M  V30 50 H 11.394008 10.381026 -3.778543 0
M  V30 51 H 10.226843 10.284034 -6.512966 0
M  V30 52 H 10.150562 8.171318 -11.460761 0
M  V30 53 H 8.456790 8.196671 -11.070662 0
M  V30 54 H 7.804886 6.634486 -13.241075 0
M  V30 55 H 7.001026 6.165387 -11.765201 0
M  V30 56 H 5.010696 2.271406 -12.160121 0
M  V30 57 H 7.917122 3.952244 -12.070485 0
M  V30 58 H 10.655026 7.099679 -9.526231 0
M  V30 END ATOM
M  V30 BEGIN BOND
M  V30 1 1 2 1
M  V30 2 1 3 2
M  V30 3 2 4 3
M  V30 4 1 5 4
M  V30 5 1 6 5
M  V30 6 1 7 6
M  V30 7 1 8 7
M  V30 8 1 9 8
M  V30 9 1 10 9
M  V30 10 1 11 10 CFG=3
M  V30 11 1 12 11
M  V30 12 1 13 12
M  V30 13 1 14 13
M  V30 14 1 15 14
M  V30 15 1 16 15
M  V30 16 2 17 16
M  V30 17 1 18 17
M  V30 18 1 19 18
M  V30 19 2 20 19
M  V30 20 1 21 20
M  V30 21 1 22 21
M  V30 22 2 23 21
M  V30 23 2 24 18
M  V30 24 1 24 23
M  V30 25 1 25 16
M  V30 26 1 25 24
M  V30 27 1 26 11
M  V30 28 1 26 14
M  V30 29 1 27 7
M  V30 30 1 27 11
M  V30 31 2 28 5
M  V30 32 2 29 2
M  V30 33 1 29 28
M  V30 34 1 30 29
M  V30 35 1 31 3
M  V30 36 1 32 4
M  V30 37 1 33 6
M  V30 38 1 34 6
M  V30 39 1 35 8
M  V30 40 1 36 8
M  V30 41 1 37 9
M  V30 42 1 38 9
M  V30 43 1 39 10
M  V30 44 1 40 10
M  V30 45 1 41 12
M  V30 46 1 42 12
M  V30 47 1 43 13
M  V30 48 1 44 13
M  V30 49 1 45 15
M  V30 50 1 46 15
M  V30 51 1 47 17
M  V30 52 1 48 19
M  V30 53 1 49 20
M  V30 54 1 50 23
M  V30 55 1 51 25
M  V30 56 1 52 26
M  V30 57 1 53 26
M  V30 58 1 54 27
M  V30 59 1 55 27
M  V30 60 1 56 28
M  V30 61 1 7 57 CFG=1
M  V30 62 1 14 58 CFG=3
M  V30 END BOND
M  V30 END CTAB
M  END
>  <b_m_subgroup_collapsed>  (378) 
0

>  <r_i_docking_score>  (378) 
-8.4207218858449693

>  <s_m_subgroup_title>  (378) 
glide-dock_SP_D22_pv

>  <s_m_subgroupid>  (378) 
glide-dock_SP_D22_pv

>  <Molecule ChEMBL ID>  (378) 
CHEMBL5289958

>  <Standard Type>  (378) 
Ki

>  <Standard Value>  (378) 
10000.0

>  <label>  (378) 
0

$$$$
CHEMBL3409263
     RDKit          3D

  0  0  0  0  0  0  0  0  0  0999 V3000
M  V30 BEGIN CTAB
M  V30 COUNTS 67 71 0 0 1
M  V30 BEGIN ATOM
M  V30 1 O 4.017500 -0.627859 -13.778897 0
M  V30 2 S 5.348759 -0.417675 -14.370655 0
M  V30 3 O 6.486057 -1.234242 -13.935994 0
M  V30 4 C 5.140969 -0.496673 -16.155113 0
M  V30 5 C 5.925493 0.266452 -17.045509 0
M  V30 6 C 5.683230 0.189378 -18.432243 0
M  V30 7 C 4.665863 -0.649623 -18.929302 0
M  V30 8 C 3.893750 -1.422991 -18.040771 0
M  V30 9 C 4.130842 -1.347049 -16.655283 0
M  V30 10 N 5.768121 1.191844 -13.917382 0
M  V30 11 C 4.885731 1.984778 -13.215256 0
M  V30 12 C 5.429379 3.195080 -12.931355 0
M  V30 13 C 6.756659 3.149956 -13.446829 0
M  V30 14 C 7.827067 4.066525 -13.375774 0
M  V30 15 N 7.648051 5.239275 -12.624567 0
M  V30 16 C 7.322399 5.146076 -11.212022 0
M  V30 17 C 8.490496 5.656451 -10.351847 0
M  V30 18 N 8.886065 7.021541 -10.782128 0 CHG=1
M  V30 19 C 9.943083 7.632617 -9.943931 0
M  V30 20 C 9.422701 8.148852 -8.590655 0
M  V30 21 C 10.467459 9.010005 -7.861143 0
M  V30 22 C 11.675855 8.229699 -7.332078 0
M  V30 23 O 11.286060 7.388554 -6.254525 0
M  V30 24 C 11.557468 7.805600 -4.970512 0
M  V30 25 C 11.686464 6.796941 -3.998593 0
M  V30 26 C 12.062145 7.100798 -2.678098 0
M  V30 27 C 12.269687 8.440153 -2.309166 0
M  V30 28 F 12.643627 8.742980 -1.047544 0
M  V30 29 C 12.085200 9.464995 -3.253387 0
M  V30 30 C 11.735435 9.155780 -4.582347 0
M  V30 31 C 9.227243 7.075184 -12.229544 0
M  V30 32 C 8.087518 6.525927 -13.102044 0
M  V30 33 C 9.056305 3.764239 -14.002597 0
M  V30 34 C 9.242143 2.523299 -14.646979 0
M  V30 35 C 8.201640 1.573920 -14.675428 0
M  V30 36 C 6.960601 1.889545 -14.089917 0
M  V30 37 H 6.696347 0.924395 -16.685165 0
M  V30 38 H 6.276352 0.776012 -19.117712 0
M  V30 39 H 4.479218 -0.704682 -19.992212 0
M  V30 40 H 3.115592 -2.072449 -18.416679 0
M  V30 41 H 3.531013 -1.943927 -15.982368 0
M  V30 42 H 3.877411 1.646418 -13.046725 0
M  V30 43 H 4.969759 4.021205 -12.408978 0
M  V30 44 H 6.441260 5.770427 -11.046429 0
M  V30 45 H 7.072953 4.121952 -10.934997 0
M  V30 46 H 8.183198 5.666151 -9.305861 0
M  V30 47 H 9.342495 4.979082 -10.433649 0
M  V30 48 H 10.757856 6.919351 -9.813045 0
M  V30 49 H 10.364671 8.482974 -10.481979 0
M  V30 50 H 8.534875 8.760330 -8.760469 0
M  V30 51 H 9.103557 7.326143 -7.949807 0
M  V30 52 H 10.832572 9.771953 -8.547381 0
M  V30 53 H 9.992288 9.539354 -7.036680 0
M  V30 54 H 12.096184 7.599902 -8.114350 0
M  V30 55 H 12.485030 8.909652 -7.062390 0
M  V30 56 H 11.531245 5.772287 -4.287041 0
M  V30 57 H 12.186157 6.308029 -1.954647 0
M  V30 58 H 12.219113 10.493020 -2.952898 0
M  V30 59 H 11.616028 9.964066 -5.287687 0
M  V30 60 H 9.438687 8.103770 -12.523626 0
M  V30 61 H 10.137547 6.499650 -12.403991 0
M  V30 62 H 8.385286 6.405039 -14.138555 0
M  V30 63 H 7.239206 7.211498 -13.078206 0
M  V30 64 H 9.879895 4.460589 -13.954087 0
M  V30 65 H 10.196893 2.287288 -15.094640 0
M  V30 66 H 8.362439 0.605796 -15.127623 0
M  V30 67 H 8.019669 7.556803 -10.650081 0
M  V30 END ATOM
M  V30 BEGIN BOND
M  V30 1 2 2 1
M  V30 2 2 3 2
M  V30 3 1 4 2
M  V30 4 2 5 4
M  V30 5 1 6 5
M  V30 6 2 7 6
M  V30 7 1 8 7
M  V30 8 1 9 4
M  V30 9 2 9 8
M  V30 10 1 10 2
M  V30 11 1 11 10
M  V30 12 2 12 11
M  V30 13 1 13 12
M  V30 14 2 14 13
M  V30 15 1 15 14
M  V30 16 1 16 15
M  V30 17 1 17 16
M  V30 18 1 18 17
M  V30 19 1 19 18
M  V30 20 1 20 19
M  V30 21 1 21 20
M  V30 22 1 22 21
M  V30 23 1 23 22
M  V30 24 1 24 23
M  V30 25 1 25 24
M  V30 26 2 26 25
M  V30 27 1 27 26
M  V30 28 1 28 27
M  V30 29 2 29 27
M  V30 30 2 30 24
M  V30 31 1 30 29
M  V30 32 1 31 18
M  V30 33 1 32 15
M  V30 34 1 32 31
M  V30 35 1 33 14
M  V30 36 2 34 33
M  V30 37 1 35 34
M  V30 38 1 36 10
M  V30 39 1 36 13
M  V30 40 2 36 35
M  V30 41 1 37 5
M  V30 42 1 38 6
M  V30 43 1 39 7
M  V30 44 1 40 8
M  V30 45 1 41 9
M  V30 46 1 42 11
M  V30 47 1 43 12
M  V30 48 1 44 16
M  V30 49 1 45 16
M  V30 50 1 46 17
M  V30 51 1 47 17
M  V30 52 1 48 19
M  V30 53 1 49 19
M  V30 54 1 50 20
M  V30 55 1 51 20
M  V30 56 1 52 21
M  V30 57 1 53 21
M  V30 58 1 54 22
M  V30 59 1 55 22
M  V30 60 1 56 25
M  V30 61 1 57 26
M  V30 62 1 58 29
M  V30 63 1 59 30
M  V30 64 1 60 31
M  V30 65 1 61 31
M  V30 66 1 62 32
M  V30 67 1 63 32
M  V30 68 1 64 33
M  V30 69 1 65 34
M  V30 70 1 66 35
M  V30 71 1 67 18
M  V30 END BOND
M  V30 END CTAB
M  END
>  <b_m_subgroup_collapsed>  (379) 
0

>  <r_i_docking_score>  (379) 
-8.4199333072284492

>  <s_m_subgroup_title>  (379) 
glide-dock_SP_D22_pv

>  <s_m_subgroupid>  (379) 
glide-dock_SP_D22_pv

>  <Molecule ChEMBL ID>  (379) 
CHEMBL3409263

>  <Standard Type>  (379) 
Ki

>  <Standard Value>  (379) 
47.0

>  <label>  (379) 
1

$$$$
CHEMBL3797758
     RDKit          3D

  0  0  0  0  0  0  0  0  0  0999 V3000
M  V30 BEGIN CTAB
M  V30 COUNTS 44 45 0 0 1
M  V30 BEGIN ATOM
M  V30 1 C 11.305079 3.341647 -14.316205 0
M  V30 2 O 10.568232 3.963631 -13.275921 0
M  V30 3 C 9.193968 3.866402 -13.295771 0
M  V30 4 C 8.480783 3.109979 -14.260589 0
M  V30 5 C 7.075989 3.079168 -14.245635 0
M  V30 6 C 6.370742 3.822910 -13.284812 0
M  V30 7 C 7.069400 4.571368 -12.318301 0
M  V30 8 C 8.490480 4.574132 -12.293749 0
M  V30 9 O 9.258618 5.205492 -11.331277 0
M  V30 10 C 8.640532 6.092878 -10.411236 0
M  V30 11 C 9.525677 6.274932 -9.170752 0
M  V30 12 N 8.886033 7.232132 -8.242765 0 CHG=1
M  V30 13 C 9.420933 7.293892 -6.865574 0
M  V30 14 C 10.839635 7.884489 -6.803510 0
M  V30 15 C 11.285983 8.154698 -5.377697 0
M  V30 16 C 11.282266 9.475790 -4.882479 0
M  V30 17 C 11.697130 9.735858 -3.563851 0
M  V30 18 C 12.137809 8.687316 -2.736942 0
M  V30 19 O 12.615426 8.972307 -1.490937 0
M  V30 20 C 12.103748 7.359310 -3.213121 0
M  V30 21 O 12.485909 6.330345 -2.400349 0
M  V30 22 C 11.683956 7.094717 -4.532925 0
M  V30 23 H 12.361567 3.581187 -14.196939 0
M  V30 24 H 11.202517 2.254437 -14.281960 0
M  V30 25 H 10.998262 3.705973 -15.297178 0
M  V30 26 H 8.989839 2.540802 -15.022367 0
M  V30 27 H 6.538459 2.500304 -14.981380 0
M  V30 28 H 5.290895 3.813806 -13.283878 0
M  V30 29 H 6.474900 5.111070 -11.599589 0
M  V30 30 H 7.685495 5.724622 -10.047743 0
M  V30 31 H 8.485420 7.050670 -10.908113 0
M  V30 32 H 10.515097 6.636723 -9.453265 0
M  V30 33 H 9.655317 5.311049 -8.676763 0
M  V30 34 H 7.899370 6.982915 -8.172789 0
M  V30 35 H 9.390145 6.306346 -6.406046 0
M  V30 36 H 8.743147 7.926953 -6.291363 0
M  V30 37 H 10.885883 8.813125 -7.372427 0
M  V30 38 H 11.554390 7.205147 -7.267378 0
M  V30 39 H 10.960725 10.294857 -5.508192 0
M  V30 40 H 11.685885 10.744010 -3.179728 0
M  V30 41 H 12.879827 9.878651 -1.398979 0
M  V30 42 H 12.196095 5.478780 -2.696215 0
M  V30 43 H 11.675119 6.079161 -4.903229 0
M  V30 44 H 8.914665 8.153996 -8.654283 0
M  V30 END ATOM
M  V30 BEGIN BOND
M  V30 1 1 2 1
M  V30 2 1 3 2
M  V30 3 2 4 3
M  V30 4 1 5 4
M  V30 5 2 6 5
M  V30 6 1 7 6
M  V30 7 1 8 3
M  V30 8 2 8 7
M  V30 9 1 9 8
M  V30 10 1 10 9
M  V30 11 1 11 10
M  V30 12 1 12 11
M  V30 13 1 13 12
M  V30 14 1 14 13
M  V30 15 1 15 14
M  V30 16 1 16 15
M  V30 17 2 17 16
M  V30 18 1 18 17
M  V30 19 1 19 18
M  V30 20 2 20 18
M  V30 21 1 21 20
M  V30 22 2 22 15
M  V30 23 1 22 20
M  V30 24 1 23 1
M  V30 25 1 24 1
M  V30 26 1 25 1
M  V30 27 1 26 4
M  V30 28 1 27 5
M  V30 29 1 28 6
M  V30 30 1 29 7
M  V30 31 1 30 10
M  V30 32 1 31 10
M  V30 33 1 32 11
M  V30 34 1 33 11
M  V30 35 1 34 12
M  V30 36 1 35 13
M  V30 37 1 36 13
M  V30 38 1 37 14
M  V30 39 1 38 14
M  V30 40 1 39 16
M  V30 41 1 40 17
M  V30 42 1 41 19
M  V30 43 1 42 21
M  V30 44 1 43 22
M  V30 45 1 44 12
M  V30 END BOND
M  V30 END CTAB
M  END
>  <b_m_subgroup_collapsed>  (380) 
0

>  <r_i_docking_score>  (380) 
-8.4183420742578594

>  <s_m_subgroup_title>  (380) 
glide-dock_SP_D22_pv

>  <s_m_subgroupid>  (380) 
glide-dock_SP_D22_pv

>  <Molecule ChEMBL ID>  (380) 
CHEMBL3797758

>  <Standard Type>  (380) 
Ki

>  <Standard Value>  (380) 
48.0

>  <label>  (380) 
1

$$$$
CHEMBL77563
     RDKit          3D

  0  0  0  0  0  0  0  0  0  0999 V3000
M  V30 BEGIN CTAB
M  V30 COUNTS 42 45 0 0 1
M  V30 BEGIN ATOM
M  V30 1 Cl 11.285639 10.573604 -5.813949 0
M  V30 2 C 11.575957 9.166044 -4.877636 0
M  V30 3 C 11.976280 9.303409 -3.532888 0
M  V30 4 C 12.224173 8.163531 -2.750241 0
M  V30 5 C 12.074154 6.887990 -3.318929 0
M  V30 6 C 11.666854 6.756279 -4.660754 0
M  V30 7 C 11.401609 7.890636 -5.460105 0
M  V30 8 N 11.018452 7.780338 -6.814919 0
M  V30 9 C 12.007766 8.175493 -7.817235 0
M  V30 10 C 11.308657 8.481901 -9.149377 0
M  V30 11 N 10.600785 7.288721 -9.620824 0
M  V30 12 C 9.988824 7.610453 -10.908646 0
M  V30 13 C 9.397316 6.442882 -11.633644 0
M  V30 14 N 10.083953 5.642072 -12.450565 0
M  V30 15 C 9.096876 4.796685 -12.938116 0
M  V30 16 C 9.171267 3.736275 -13.869397 0
M  V30 17 C 8.006445 3.032769 -14.247345 0
M  V30 18 C 6.751698 3.375077 -13.697874 0
M  V30 19 C 6.656259 4.415892 -12.752172 0
M  V30 20 C 7.822432 5.113568 -12.386075 0
M  V30 21 N 8.084728 6.172976 -11.537745 0
M  V30 22 C 9.580427 6.927532 -8.623169 0
M  V30 23 C 10.234345 6.631805 -7.253877 0
M  V30 24 H 12.085840 10.283073 -3.093945 0
M  V30 25 H 12.530397 8.270389 -1.720137 0
M  V30 26 H 12.262272 6.004650 -2.726637 0
M  V30 27 H 11.558831 5.772243 -5.079215 0
M  V30 28 H 12.585991 9.040080 -7.495649 0
M  V30 29 H 12.729972 7.372252 -7.951993 0
M  V30 30 H 10.616448 9.317807 -9.031363 0
M  V30 31 H 12.055818 8.782825 -9.884087 0
M  V30 32 H 9.223257 8.377893 -10.781526 0
M  V30 33 H 10.747334 8.036906 -11.564443 0
M  V30 34 H 10.127665 3.471699 -14.295020 0
M  V30 35 H 8.071181 2.224799 -14.961674 0
M  V30 36 H 5.867584 2.829452 -13.991521 0
M  V30 37 H 5.704861 4.680982 -12.311653 0
M  V30 38 H 7.419132 6.732732 -10.984850 0
M  V30 39 H 8.849788 7.733445 -8.520774 0
M  V30 40 H 9.030842 6.045983 -8.953812 0
M  V30 41 H 10.880290 5.758406 -7.333073 0
M  V30 42 H 9.462840 6.402013 -6.517860 0
M  V30 END ATOM
M  V30 BEGIN BOND
M  V30 1 1 2 1
M  V30 2 2 3 2
M  V30 3 1 4 3
M  V30 4 2 5 4
M  V30 5 1 6 5
M  V30 6 1 7 2
M  V30 7 2 7 6
M  V30 8 1 8 7
M  V30 9 1 9 8
M  V30 10 1 10 9
M  V30 11 1 11 10
M  V30 12 1 12 11
M  V30 13 1 13 12
M  V30 14 2 14 13
M  V30 15 1 15 14
M  V30 16 2 16 15
M  V30 17 1 17 16
M  V30 18 2 18 17
M  V30 19 1 19 18
M  V30 20 1 20 15
M  V30 21 2 20 19
M  V30 22 1 21 13
M  V30 23 1 21 20
M  V30 24 1 22 11
M  V30 25 1 23 8
M  V30 26 1 23 22
M  V30 27 1 24 3
M  V30 28 1 25 4
M  V30 29 1 26 5
M  V30 30 1 27 6
M  V30 31 1 28 9
M  V30 32 1 29 9
M  V30 33 1 30 10
M  V30 34 1 31 10
M  V30 35 1 32 12
M  V30 36 1 33 12
M  V30 37 1 34 16
M  V30 38 1 35 17
M  V30 39 1 36 18
M  V30 40 1 37 19
M  V30 41 1 38 21
M  V30 42 1 39 22
M  V30 43 1 40 22
M  V30 44 1 41 23
M  V30 45 1 42 23
M  V30 END BOND
M  V30 END CTAB
M  END
>  <b_m_subgroup_collapsed>  (381) 
0

>  <r_i_docking_score>  (381) 
-8.4180217527273502

>  <s_m_subgroup_title>  (381) 
glide-dock_SP_D22_pv

>  <s_m_subgroupid>  (381) 
glide-dock_SP_D22_pv

>  <Molecule ChEMBL ID>  (381) 
CHEMBL77563

>  <Standard Type>  (381) 
Ki

>  <Standard Value>  (381) 
10000.0

>  <label>  (381) 
0

$$$$
CHEMBL4528835
     RDKit          3D

  0  0  0  0  0  0  0  0  0  0999 V3000
M  V30 BEGIN CTAB
M  V30 COUNTS 50 53 0 0 1
M  V30 BEGIN ATOM
M  V30 1 O 11.106204 6.882143 -7.464454 0
M  V30 2 C 10.884900 7.918564 -6.838999 0
M  V30 3 C 10.149339 9.073266 -7.534569 0
M  V30 4 C 9.038490 8.615074 -8.498326 0
M  V30 5 C 9.509238 8.392994 -9.949964 0
M  V30 6 N 8.886024 7.187055 -10.549795 0 CFG=2 CHG=1
M  V30 7 C 9.615512 5.912483 -10.198608 0
M  V30 8 C 9.287071 4.654539 -11.074654 0
M  V30 9 C 9.078479 5.045944 -12.525376 0 CFG=1
M  V30 10 C 10.386540 5.230721 -13.282149 0
M  V30 11 C 10.653199 4.323890 -14.334598 0
M  V30 12 C 11.753879 4.502115 -15.194289 0
M  V30 13 C 12.613719 5.597303 -15.012358 0
M  V30 14 Cl 13.924199 5.859885 -16.104269 0
M  V30 15 C 12.401916 6.474596 -13.934376 0
M  V30 16 C 11.317711 6.276089 -13.056413 0
M  V30 17 C 7.909730 5.062478 -13.487033 0
M  V30 18 C 7.899034 6.030744 -12.369367 0 CFG=2
M  V30 19 C 8.482626 7.356035 -11.978019 0
M  V30 20 C 11.285967 8.111639 -5.415993 0
M  V30 21 C 11.355130 9.395228 -4.822247 0
M  V30 22 C 11.761438 9.541348 -3.482267 0
M  V30 23 C 12.129988 8.415531 -2.726596 0
M  V30 24 F 12.539227 8.568881 -1.446765 0
M  V30 25 C 12.086086 7.135982 -3.309458 0
M  V30 26 C 11.665101 6.985837 -4.645447 0
M  V30 27 H 9.686246 9.681454 -6.766046 0
M  V30 28 H 10.872724 9.709222 -8.044466 0
M  V30 29 H 8.556101 7.721292 -8.099405 0
M  V30 30 H 8.250813 9.370281 -8.506470 0
M  V30 31 H 9.229532 9.275588 -10.527282 0
M  V30 32 H 10.596695 8.329212 -10.015828 0
M  V30 33 H 10.683696 6.113195 -10.249976 0
M  V30 34 H 9.421115 5.674026 -9.152987 0
M  V30 35 H 10.077636 3.905749 -10.998223 0
M  V30 36 H 8.380271 4.173881 -10.702872 0
M  V30 37 H 9.978851 3.500540 -14.518517 0
M  V30 38 H 11.919709 3.812812 -16.009735 0
M  V30 39 H 13.078473 7.301285 -13.778335 0
M  V30 40 H 11.204612 6.972141 -12.244328 0
M  V30 41 H 8.085703 5.453094 -14.486131 0
M  V30 42 H 7.218552 4.223495 -13.438524 0
M  V30 43 H 7.072331 5.782045 -11.702127 0
M  V30 44 H 7.700880 8.112600 -12.049362 0
M  V30 45 H 9.270919 7.691290 -12.640134 0
M  V30 46 H 11.112742 10.289557 -5.376722 0
M  V30 47 H 11.803456 10.522480 -3.032161 0
M  V30 48 H 12.370435 6.269017 -2.732022 0
M  V30 49 H 11.634697 5.995060 -5.074900 0
M  V30 50 H 7.955803 7.147106 -10.124595 0
M  V30 END ATOM
M  V30 BEGIN BOND
M  V30 1 2 2 1
M  V30 2 1 3 2
M  V30 3 1 4 3
M  V30 4 1 5 4
M  V30 5 1 6 5
M  V30 6 1 7 6
M  V30 7 1 8 7
M  V30 8 1 9 8
M  V30 9 1 9 10 CFG=3
M  V30 10 1 11 10
M  V30 11 2 12 11
M  V30 12 1 13 12
M  V30 13 1 14 13
M  V30 14 2 15 13
M  V30 15 2 16 10
M  V30 16 1 16 15
M  V30 17 1 17 9
M  V30 18 1 18 9
M  V30 19 1 18 17
M  V30 20 1 19 6
M  V30 21 1 19 18
M  V30 22 1 20 2
M  V30 23 1 21 20
M  V30 24 2 22 21
M  V30 25 1 23 22
M  V30 26 1 24 23
M  V30 27 2 25 23
M  V30 28 2 26 20
M  V30 29 1 26 25
M  V30 30 1 27 3
M  V30 31 1 28 3
M  V30 32 1 29 4
M  V30 33 1 30 4
M  V30 34 1 31 5
M  V30 35 1 32 5
M  V30 36 1 33 7
M  V30 37 1 34 7
M  V30 38 1 35 8
M  V30 39 1 36 8
M  V30 40 1 37 11
M  V30 41 1 38 12
M  V30 42 1 39 15
M  V30 43 1 40 16
M  V30 44 1 41 17
M  V30 45 1 42 17
M  V30 46 1 18 43 CFG=1
M  V30 47 1 44 19
M  V30 48 1 45 19
M  V30 49 1 46 21
M  V30 50 1 47 22
M  V30 51 1 48 25
M  V30 52 1 49 26
M  V30 53 1 6 50 CFG=1
M  V30 END BOND
M  V30 END CTAB
M  END
>  <b_m_subgroup_collapsed>  (382) 
0

>  <r_i_docking_score>  (382) 
-8.4176677133946498

>  <s_m_subgroup_title>  (382) 
glide-dock_SP_D22_pv

>  <s_m_subgroupid>  (382) 
glide-dock_SP_D22_pv

>  <Molecule ChEMBL ID>  (382) 
CHEMBL4528835

>  <Standard Type>  (382) 
Ki

>  <Standard Value>  (382) 
0.1585

>  <label>  (382) 
1

$$$$
CHEMBL2203406
     RDKit          3D

  0  0  0  0  0  0  0  0  0  0999 V3000
M  V30 BEGIN CTAB
M  V30 COUNTS 69 73 0 0 1
M  V30 BEGIN ATOM
M  V30 1 C 13.125750 8.308086 -16.331047 0
M  V30 2 C 12.263695 7.068251 -16.078419 0
M  V30 3 C 12.919943 6.117578 -15.062870 0
M  V30 4 N 12.031624 5.005525 -14.608965 0 CFG=1 CHG=1
M  V30 5 C 10.869307 5.423044 -13.756557 0
M  V30 6 C 11.075220 6.659624 -12.846085 0
M  V30 7 C 9.915823 6.947761 -11.877715 0 CFG=2
M  V30 8 O 8.687507 6.788346 -12.565574 0
M  V30 9 C 10.034968 8.287335 -11.133148 0
M  V30 10 C 9.545003 7.592534 -9.876294 0 CFG=2
M  V30 11 N 10.301993 7.934934 -8.695286 0
M  V30 12 C 10.168031 7.266770 -7.547272 0
M  V30 13 O 9.610050 6.174144 -7.446814 0
M  V30 14 C 10.773785 7.935400 -6.361038 0
M  V30 15 C 10.797559 9.345141 -6.254833 0
M  V30 16 C 11.261453 9.963399 -5.084131 0
M  V30 17 C 11.686211 9.170930 -4.004844 0
M  V30 18 C 12.086013 9.772281 -2.800060 0
M  V30 19 C 12.486059 8.972298 -1.721779 0
M  V30 20 C 12.486024 7.577373 -1.846889 0
M  V30 21 C 12.086524 6.960958 -3.038336 0
M  V30 22 C 11.686026 7.759078 -4.119080 0
M  V30 23 C 11.242375 7.145241 -5.297612 0
M  V30 24 C 9.919955 6.256919 -10.505248 0
M  V30 25 C 11.618260 4.038995 -15.685210 0 CFG=1
M  V30 26 C 12.722822 3.731511 -16.750082 0
M  V30 27 C 12.312845 2.709110 -17.834532 0
M  V30 28 C 11.436838 1.624209 -17.297249 0
M  V30 29 N 11.092622 0.508604 -18.062630 0
M  V30 30 C 10.236499 -0.282671 -17.416840 0
M  V30 31 N 9.685802 -1.427560 -17.957514 0
M  V30 32 S 9.835788 0.263126 -15.792461 0
M  V30 33 C 10.855317 1.651151 -16.059809 0
M  V30 34 C 11.039058 2.737206 -15.059970 0
M  V30 35 H 12.647189 8.972284 -17.046925 0
M  V30 36 H 13.285660 8.875469 -15.413842 0
M  V30 37 H 14.100771 8.035615 -16.734583 0
M  V30 38 H 12.076610 6.569602 -17.027855 0
M  V30 39 H 11.286042 7.372335 -15.718210 0
M  V30 40 H 13.267254 6.687607 -14.203262 0
M  V30 41 H 13.844547 5.713801 -15.475285 0
M  V30 42 H 10.586822 4.584146 -13.119999 0
M  V30 43 H 10.017254 5.614757 -14.409818 0
M  V30 44 H 11.249760 7.547941 -13.449962 0
M  V30 45 H 11.994894 6.560859 -12.269863 0
M  V30 46 H 7.992867 6.994017 -11.948966 0
M  V30 47 H 11.061359 8.649306 -11.046915 0
M  V30 48 H 9.358394 9.059318 -11.500005 0
M  V30 49 H 8.486030 7.695961 -9.738217 0
M  V30 50 H 10.814472 8.803253 -8.694893 0
M  V30 51 H 10.421183 9.970159 -7.046974 0
M  V30 52 H 11.252327 11.040309 -5.009597 0
M  V30 53 H 12.085907 10.844857 -2.672670 0
M  V30 54 H 12.819637 9.440034 -0.808952 0
M  V30 55 H 12.886028 6.976640 -1.046935 0
M  V30 56 H 12.099648 5.883467 -3.119762 0
M  V30 57 H 11.213986 6.067164 -5.366106 0
M  V30 58 H 9.163909 5.481488 -10.372400 0
M  V30 59 H 10.886006 5.925795 -10.150390 0
M  V30 60 H 10.809372 4.508278 -16.248413 0
M  V30 61 H 13.051384 4.624424 -17.277002 0
M  V30 62 H 13.612406 3.372277 -16.246538 0
M  V30 63 H 13.204263 2.288897 -18.301537 0
M  V30 64 H 11.776009 3.231927 -18.626787 0
M  V30 65 H 9.786008 -1.550769 -18.954208 0
M  V30 66 H 8.791742 -1.721431 -17.588512 0
M  V30 67 H 11.686091 2.371141 -14.264476 0
M  V30 68 H 10.074862 2.937355 -14.592260 0
M  V30 69 H 12.627246 4.476480 -13.988244 0
M  V30 END ATOM
M  V30 BEGIN BOND
M  V30 1 1 2 1
M  V30 2 1 3 2
M  V30 3 1 4 3
M  V30 4 1 5 4
M  V30 5 1 6 5
M  V30 6 1 7 6
M  V30 7 1 7 8 CFG=3
M  V30 8 1 9 7
M  V30 9 1 10 9
M  V30 10 1 11 10
M  V30 11 1 12 11
M  V30 12 2 13 12
M  V30 13 1 14 12
M  V30 14 1 15 14
M  V30 15 2 16 15
M  V30 16 1 17 16
M  V30 17 2 18 17
M  V30 18 1 19 18
M  V30 19 2 20 19
M  V30 20 1 21 20
M  V30 21 1 22 17
M  V30 22 2 22 21
M  V30 23 2 23 14
M  V30 24 1 23 22
M  V30 25 1 24 7
M  V30 26 1 24 10
M  V30 27 1 25 4
M  V30 28 1 26 25
M  V30 29 1 27 26
M  V30 30 1 28 27
M  V30 31 1 29 28
M  V30 32 2 30 29
M  V30 33 1 31 30
M  V30 34 1 32 30
M  V30 35 2 33 28
M  V30 36 1 33 32
M  V30 37 1 34 25
M  V30 38 1 34 33
M  V30 39 1 35 1
M  V30 40 1 36 1
M  V30 41 1 37 1
M  V30 42 1 38 2
M  V30 43 1 39 2
M  V30 44 1 40 3
M  V30 45 1 41 3
M  V30 46 1 42 5
M  V30 47 1 43 5
M  V30 48 1 44 6
M  V30 49 1 45 6
M  V30 50 1 46 8
M  V30 51 1 47 9
M  V30 52 1 48 9
M  V30 53 1 10 49 CFG=1
M  V30 54 1 50 11
M  V30 55 1 51 15
M  V30 56 1 52 16
M  V30 57 1 53 18
M  V30 58 1 54 19
M  V30 59 1 55 20
M  V30 60 1 56 21
M  V30 61 1 57 23
M  V30 62 1 58 24
M  V30 63 1 59 24
M  V30 64 1 25 60 CFG=3
M  V30 65 1 61 26
M  V30 66 1 62 26
M  V30 67 1 63 27
M  V30 68 1 64 27
M  V30 69 1 65 31
M  V30 70 1 66 31
M  V30 71 1 67 34
M  V30 72 1 68 34
M  V30 73 1 4 69 CFG=1
M  V30 END BOND
M  V30 END CTAB
M  END
>  <b_m_subgroup_collapsed>  (383) 
0

>  <r_i_docking_score>  (383) 
-8.4158335725670703

>  <s_m_subgroup_title>  (383) 
glide-dock_SP_D22_pv

>  <s_m_subgroupid>  (383) 
glide-dock_SP_D22_pv

>  <Molecule ChEMBL ID>  (383) 
CHEMBL2203406

>  <Standard Type>  (383) 
Ki

>  <Standard Value>  (383) 
21.0

>  <label>  (383) 
1

$$$$
CHEMBL3797205
     RDKit          3D

  0  0  0  0  0  0  0  0  0  0999 V3000
M  V30 BEGIN CTAB
M  V30 COUNTS 69 72 0 0 1
M  V30 BEGIN ATOM
M  V30 1 C 12.697433 7.525105 -14.361104 0
M  V30 2 O 12.476523 7.645262 -12.963219 0
M  V30 3 C 11.389551 6.983004 -12.432424 0
M  V30 4 C 10.817822 5.843608 -13.046896 0
M  V30 5 C 9.722658 5.186378 -12.445910 0
M  V30 6 C 9.178883 3.884397 -12.987106 0
M  V30 7 C 9.320087 3.684444 -14.499738 0
M  V30 8 N 8.746767 2.377886 -14.826401 0 CHG=1
M  V30 9 C 8.828754 1.933896 -16.225405 0
M  V30 10 C 8.501441 0.434035 -16.281918 0 CFG=1
M  V30 11 O 9.470264 -0.226987 -15.494946 0
M  V30 12 C 7.084659 0.101106 -15.815040 0
M  V30 13 C 6.761576 0.127529 -14.439019 0
M  V30 14 C 5.476073 -0.223163 -13.998457 0
M  V30 15 C 4.514222 -0.684005 -14.912470 0
M  V30 16 O 3.283959 -1.027786 -14.438982 0
M  V30 17 C 4.846444 -0.785488 -16.282026 0
M  V30 18 C 6.108325 -0.329448 -16.741535 0
M  V30 19 O 6.420822 -0.391463 -18.083738 0
M  V30 20 C 5.322391 -0.446571 -18.998838 0
M  V30 21 C 4.236972 -1.420536 -18.522863 0
M  V30 22 O 3.678907 -2.165669 -19.321360 0
M  V30 23 N 3.983150 -1.427324 -17.206594 0
M  V30 24 C 9.168174 5.695757 -11.257627 0
M  V30 25 C 9.727078 6.825969 -10.643546 0
M  V30 26 C 10.859968 7.462109 -11.209435 0
M  V30 27 O 11.492651 8.545488 -10.635395 0
M  V30 28 C 10.917738 9.155433 -9.484449 0
M  V30 29 C 11.347822 8.455311 -8.181897 0
M  V30 30 C 10.608159 9.036253 -6.965388 0
M  V30 31 C 11.157601 8.584974 -5.622505 0
M  V30 32 C 11.578399 9.546227 -4.679202 0
M  V30 33 C 12.055869 9.147833 -3.415382 0
M  V30 34 C 12.103333 7.781793 -3.084902 0
M  V30 35 C 11.686572 6.819004 -4.023321 0
M  V30 36 C 11.223118 7.215689 -5.292057 0
M  V30 37 H 13.285557 8.374126 -14.703213 0
M  V30 38 H 13.248120 6.612238 -14.597686 0
M  V30 39 H 11.768411 7.542787 -14.932838 0
M  V30 40 H 11.260390 5.446721 -13.945916 0
M  V30 41 H 8.126024 3.813882 -12.707243 0
M  V30 42 H 9.688979 3.078523 -12.458486 0
M  V30 43 H 10.365570 3.684311 -14.804976 0
M  V30 44 H 8.807860 4.475973 -15.048635 0
M  V30 45 H 7.779248 2.350652 -14.542129 0
M  V30 46 H 9.835897 2.104751 -16.608820 0
M  V30 47 H 8.139521 2.510092 -16.845938 0
M  V30 48 H 8.645654 0.083689 -17.303627 0
M  V30 49 H 9.218431 -1.141833 -15.449660 0
M  V30 50 H 7.500041 0.397059 -13.698779 0
M  V30 51 H 5.244163 -0.165486 -12.945845 0
M  V30 52 H 2.662493 -1.246518 -15.114546 0
M  V30 53 H 5.691086 -0.754275 -19.976715 0
M  V30 54 H 4.887738 0.547694 -19.109287 0
M  V30 55 H 3.284159 -2.069921 -16.858772 0
M  V30 56 H 8.324604 5.211159 -10.787838 0
M  V30 57 H 9.273418 7.164993 -9.724569 0
M  V30 58 H 11.285926 10.177567 -9.458849 0
M  V30 59 H 9.834229 9.244202 -9.570123 0
M  V30 60 H 11.169402 7.381591 -8.242264 0
M  V30 61 H 12.424664 8.584725 -8.060828 0
M  V30 62 H 10.658874 10.122104 -7.004203 0
M  V30 63 H 9.548322 8.779602 -7.013102 0
M  V30 64 H 11.528122 10.594764 -4.924034 0
M  V30 65 H 12.379735 9.889315 -2.696916 0
M  V30 66 H 12.457161 7.469588 -2.113355 0
M  V30 67 H 11.723908 5.772470 -3.766834 0
M  V30 68 H 10.894071 6.466121 -5.996275 0
M  V30 69 H 9.251850 1.678636 -14.295330 0
M  V30 END ATOM
M  V30 BEGIN BOND
M  V30 1 1 2 1
M  V30 2 1 3 2
M  V30 3 1 4 3
M  V30 4 2 5 4
M  V30 5 1 6 5
M  V30 6 1 7 6
M  V30 7 1 8 7
M  V30 8 1 9 8
M  V30 9 1 10 9
M  V30 10 1 11 10
M  V30 11 1 12 10
M  V30 12 1 13 12
M  V30 13 2 14 13
M  V30 14 1 15 14
M  V30 15 1 16 15
M  V30 16 2 17 15
M  V30 17 2 18 12
M  V30 18 1 18 17
M  V30 19 1 19 18
M  V30 20 1 20 19
M  V30 21 1 21 20
M  V30 22 2 22 21
M  V30 23 1 23 17
M  V30 24 1 23 21
M  V30 25 1 24 5
M  V30 26 2 25 24
M  V30 27 2 26 3
M  V30 28 1 26 25
M  V30 29 1 27 26
M  V30 30 1 28 27
M  V30 31 1 29 28
M  V30 32 1 30 29
M  V30 33 1 31 30
M  V30 34 2 32 31
M  V30 35 1 33 32
M  V30 36 2 34 33
M  V30 37 1 35 34
M  V30 38 1 36 31
M  V30 39 2 36 35
M  V30 40 1 37 1
M  V30 41 1 38 1
M  V30 42 1 39 1
M  V30 43 1 40 4
M  V30 44 1 41 6
M  V30 45 1 42 6
M  V30 46 1 43 7
M  V30 47 1 44 7
M  V30 48 1 45 8
M  V30 49 1 46 9
M  V30 50 1 47 9
M  V30 51 1 10 48 CFG=3
M  V30 52 1 49 11
M  V30 53 1 50 13
M  V30 54 1 51 14
M  V30 55 1 52 16
M  V30 56 1 53 20
M  V30 57 1 54 20
M  V30 58 1 55 23
M  V30 59 1 56 24
M  V30 60 1 57 25
M  V30 61 1 58 28
M  V30 62 1 59 28
M  V30 63 1 60 29
M  V30 64 1 61 29
M  V30 65 1 62 30
M  V30 66 1 63 30
M  V30 67 1 64 32
M  V30 68 1 65 33
M  V30 69 1 66 34
M  V30 70 1 67 35
M  V30 71 1 68 36
M  V30 72 1 69 8
M  V30 END BOND
M  V30 END CTAB
M  END
>  <b_m_subgroup_collapsed>  (384) 
0

>  <r_i_docking_score>  (384) 
-8.4144212105597997

>  <s_m_subgroup_title>  (384) 
glide-dock_SP_D22_pv

>  <s_m_subgroupid>  (384) 
glide-dock_SP_D22_pv

>  <Molecule ChEMBL ID>  (384) 
CHEMBL3797205

>  <Standard Type>  (384) 
Ki

>  <Standard Value>  (384) 
96.0

>  <label>  (384) 
1

$$$$
CHEMBL568801
     RDKit          3D

  0  0  0  0  0  0  0  0  0  0999 V3000
M  V30 BEGIN CTAB
M  V30 COUNTS 74 78 0 0 1
M  V30 BEGIN ATOM
M  V30 1 C 11.943769 8.069400 -11.035018 0
M  V30 2 C 10.777110 7.381829 -11.764787 0
M  V30 3 C 9.350206 7.661938 -11.226350 0
M  V30 4 N 8.886141 6.797483 -10.090672 0 CFG=1 CHG=1
M  V30 5 C 8.730593 5.346629 -10.436766 0
M  V30 6 C 8.083995 5.026892 -11.809756 0
M  V30 7 N 9.101348 4.842959 -12.848837 0
M  V30 8 C 9.660657 3.483586 -12.808894 0
M  V30 9 C 10.798707 3.341853 -13.834990 0
M  V30 10 N 10.293101 3.636363 -15.166804 0
M  V30 11 C 11.158356 3.256402 -16.205078 0
M  V30 12 C 12.152334 4.142020 -16.680075 0
M  V30 13 C 13.013027 3.728478 -17.713907 0
M  V30 14 N 12.879726 2.495164 -18.246063 0 CHG=1
M  V30 15 C 11.952169 1.605533 -17.830849 0
M  V30 16 C 11.871919 0.336889 -18.441837 0
M  V30 17 C 10.895889 -0.585583 -18.014441 0
M  V30 18 C 10.013968 -0.245547 -16.972107 0
M  V30 19 C 10.094266 1.020118 -16.358976 0
M  V30 20 C 11.061821 1.962163 -16.784389 0
M  V30 21 C 9.673452 4.955469 -15.238844 0
M  V30 22 C 8.545123 5.058783 -14.187395 0
M  V30 23 C 9.625976 7.016145 -8.798601 0 CFG=2
M  V30 24 C 9.045478 6.247653 -7.591176 0
M  V30 25 C 9.876266 6.415424 -6.306021 0
M  V30 26 C 10.565571 7.729455 -6.100284 0
M  V30 27 C 10.511337 8.698932 -7.111769 0
M  V30 28 C 11.286699 9.845799 -6.967418 0
M  V30 29 C 12.082054 10.065969 -5.842386 0
M  V30 30 C 12.102489 9.117685 -4.806791 0
M  V30 31 C 11.363088 7.917557 -4.942719 0
M  V30 32 O 11.413195 6.888186 -4.024893 0
M  V30 33 C 12.166523 7.074901 -2.836893 0
M  V30 34 C 9.702674 8.501212 -8.381133 0
M  V30 35 H 12.856627 7.992777 -11.625867 0
M  V30 36 H 11.754996 9.130141 -10.875186 0
M  V30 37 H 12.162577 7.622237 -10.068145 0
M  V30 38 H 10.960146 6.315238 -11.846381 0
M  V30 39 H 10.806289 7.740916 -12.792933 0
M  V30 40 H 8.652103 7.538829 -12.052243 0
M  V30 41 H 9.228577 8.717968 -10.993393 0
M  V30 42 H 9.686758 4.836543 -10.322910 0
M  V30 43 H 8.071670 4.900760 -9.696288 0
M  V30 44 H 7.488262 4.115975 -11.735209 0
M  V30 45 H 7.370684 5.808930 -12.073635 0
M  V30 46 H 10.033848 3.244474 -11.814166 0
M  V30 47 H 8.884493 2.756323 -13.048158 0
M  V30 48 H 11.619701 4.018167 -13.590187 0
M  V30 49 H 11.197658 2.326395 -13.806734 0
M  V30 50 H 12.270818 5.126254 -16.251301 0
M  V30 51 H 13.799808 4.344153 -18.125139 0
M  V30 52 H 12.545358 0.060887 -19.240192 0
M  V30 53 H 10.824503 -1.556885 -18.483892 0
M  V30 54 H 9.265320 -0.952479 -16.643698 0
M  V30 55 H 9.400666 1.261980 -15.566981 0
M  V30 56 H 10.417804 5.733405 -15.057974 0
M  V30 57 H 9.274872 5.118682 -16.240562 0
M  V30 58 H 7.757964 4.330420 -14.388566 0
M  V30 59 H 8.089455 6.046895 -14.240650 0
M  V30 60 H 10.634659 6.634284 -8.944509 0
M  V30 61 H 8.047832 6.619437 -7.386632 0
M  V30 62 H 8.946050 5.180540 -7.778303 0
M  V30 63 H 10.735966 5.764828 -6.354163 0
M  V30 64 H 9.286722 6.176393 -5.422954 0
M  V30 65 H 11.286899 10.571638 -7.747513 0
M  V30 66 H 12.685363 10.958304 -5.815798 0
M  V30 67 H 12.731483 9.308929 -3.951082 0
M  V30 68 H 12.071774 6.186579 -2.212811 0
M  V30 69 H 13.225900 7.214275 -3.056088 0
M  V30 70 H 11.798348 7.923968 -2.259738 0
M  V30 71 H 8.700941 8.904003 -8.219523 0
M  V30 72 H 10.168618 9.117313 -9.145369 0
M  V30 73 H 13.509640 2.221401 -18.998970 0
M  V30 74 H 7.928789 7.130825 -9.933097 0
M  V30 END ATOM
M  V30 BEGIN BOND
M  V30 1 1 2 1
M  V30 2 1 3 2
M  V30 3 1 4 3
M  V30 4 1 5 4
M  V30 5 1 6 5
M  V30 6 1 7 6
M  V30 7 1 8 7
M  V30 8 1 9 8
M  V30 9 1 10 9
M  V30 10 1 11 10
M  V30 11 2 12 11
M  V30 12 1 13 12
M  V30 13 2 14 13
M  V30 14 1 15 14
M  V30 15 2 16 15
M  V30 16 1 17 16
M  V30 17 2 18 17
M  V30 18 1 19 18
M  V30 19 1 20 11
M  V30 20 1 20 15
M  V30 21 2 20 19
M  V30 22 1 21 10
M  V30 23 1 22 7
M  V30 24 1 22 21
M  V30 25 1 23 4
M  V30 26 1 24 23
M  V30 27 1 25 24
M  V30 28 1 26 25
M  V30 29 2 27 26
M  V30 30 1 28 27
M  V30 31 2 29 28
M  V30 32 1 30 29
M  V30 33 1 31 26
M  V30 34 2 31 30
M  V30 35 1 32 31
M  V30 36 1 33 32
M  V30 37 1 34 23
M  V30 38 1 34 27
M  V30 39 1 35 1
M  V30 40 1 36 1
M  V30 41 1 37 1
M  V30 42 1 38 2
M  V30 43 1 39 2
M  V30 44 1 40 3
M  V30 45 1 41 3
M  V30 46 1 42 5
M  V30 47 1 43 5
M  V30 48 1 44 6
M  V30 49 1 45 6
M  V30 50 1 46 8
M  V30 51 1 47 8
M  V30 52 1 48 9
M  V30 53 1 49 9
M  V30 54 1 50 12
M  V30 55 1 51 13
M  V30 56 1 52 16
M  V30 57 1 53 17
M  V30 58 1 54 18
M  V30 59 1 55 19
M  V30 60 1 56 21
M  V30 61 1 57 21
M  V30 62 1 58 22
M  V30 63 1 59 22
M  V30 64 1 23 60 CFG=3
M  V30 65 1 61 24
M  V30 66 1 62 24
M  V30 67 1 63 25
M  V30 68 1 64 25
M  V30 69 1 65 28
M  V30 70 1 66 29
M  V30 71 1 67 30
M  V30 72 1 68 33
M  V30 73 1 69 33
M  V30 74 1 70 33
M  V30 75 1 71 34
M  V30 76 1 72 34
M  V30 77 1 73 14
M  V30 78 1 4 74 CFG=1
M  V30 END BOND
M  V30 END CTAB
M  END
>  <b_m_subgroup_collapsed>  (385) 
0

>  <r_i_docking_score>  (385) 
-8.4135379940923105

>  <s_m_subgroup_title>  (385) 
glide-dock_SP_D22_pv

>  <s_m_subgroupid>  (385) 
glide-dock_SP_D22_pv

>  <Molecule ChEMBL ID>  (385) 
CHEMBL568801

>  <Standard Type>  (385) 
Ki

>  <Standard Value>  (385) 
4.89

>  <label>  (385) 
1

$$$$
CHEMBL476839
     RDKit          3D

  0  0  0  0  0  0  0  0  0  0999 V3000
M  V30 BEGIN CTAB
M  V30 COUNTS 62 64 0 0 1
M  V30 BEGIN ATOM
M  V30 1 C 12.546733 4.284114 -15.474617 0
M  V30 2 O 11.887554 3.769975 -14.321996 0
M  V30 3 C 10.586452 3.356701 -14.515250 0
M  V30 4 C 10.296769 2.264930 -15.377760 0
M  V30 5 O 11.356708 1.649399 -16.009377 0
M  V30 6 C 11.140046 0.632396 -16.981585 0
M  V30 7 C 10.822927 1.219269 -18.369236 0
M  V30 8 F 9.574450 1.684242 -18.444731 0
M  V30 9 C 8.957106 1.834642 -15.521379 0
M  V30 10 C 7.924293 2.484976 -14.831894 0
M  V30 11 C 8.214643 3.564567 -13.984884 0
M  V30 12 C 9.546006 4.010408 -13.797903 0
M  V30 13 C 9.879362 5.150496 -12.815030 0 CFG=1
M  V30 14 O 10.867011 6.018231 -13.339873 0
M  V30 15 C 8.656417 5.991750 -12.316023 0 CFG=1
M  V30 16 C 7.890636 5.312829 -11.154140 0
M  V30 17 C 8.642959 5.420681 -9.816518 0
M  V30 18 N 8.916230 6.830519 -9.440896 0 CFG=1 CHG=1
M  V30 19 C 9.591611 6.874290 -8.110391 0
M  V30 20 C 9.969109 8.279686 -7.585845 0
M  V30 21 C 10.660063 8.303344 -6.220032 0
M  V30 22 C 11.080125 7.127753 -5.550777 0
M  V30 23 C 11.685257 7.198620 -4.279967 0
M  V30 24 C 11.859372 8.445556 -3.649228 0
M  V30 25 C 12.434092 8.534278 -2.250849 0
M  V30 26 C 11.461380 9.618850 -4.316282 0
M  V30 27 C 10.885948 9.551332 -5.599181 0
M  V30 28 C 9.669423 7.532757 -10.517801 0
M  V30 29 C 8.960383 7.445403 -11.881578 0
M  V30 30 H 13.430397 4.840123 -15.154468 0
M  V30 31 H 12.888611 3.501531 -16.155327 0
M  V30 32 H 11.902575 4.974149 -16.025028 0
M  V30 33 H 12.087084 0.098803 -17.060097 0
M  V30 34 H 10.418553 -0.122128 -16.666786 0
M  V30 35 H 11.500347 2.038216 -18.620550 0
M  V30 36 H 10.912390 0.452830 -19.140060 0
M  V30 37 H 8.682875 1.005633 -16.152901 0
M  V30 38 H 6.903273 2.152447 -14.953615 0
M  V30 39 H 7.378714 4.029592 -13.487394 0
M  V30 40 H 10.351011 4.665774 -11.963262 0
M  V30 41 H 11.569804 5.471250 -13.668786 0
M  V30 42 H 7.981973 6.111176 -13.164481 0
M  V30 43 H 6.907146 5.772155 -11.050221 0
M  V30 44 H 7.701088 4.259503 -11.356934 0
M  V30 45 H 9.583331 4.869426 -9.869625 0
M  V30 46 H 8.070988 4.938408 -9.024844 0
M  V30 47 H 8.936050 6.391714 -7.383038 0
M  V30 48 H 10.496382 6.267981 -8.176432 0
M  V30 49 H 10.649366 8.781116 -8.273656 0
M  V30 50 H 9.070318 8.895920 -7.528578 0
M  V30 51 H 10.939707 6.152212 -5.985579 0
M  V30 52 H 11.981631 6.286591 -3.782165 0
M  V30 53 H 11.702061 8.980828 -1.576236 0
M  V30 54 H 12.698242 7.550816 -1.858635 0
M  V30 55 H 13.324046 9.162608 -2.245249 0
M  V30 56 H 11.578808 10.571828 -3.826839 0
M  V30 57 H 10.579725 10.460819 -6.092311 0
M  V30 58 H 10.674556 7.115471 -10.592822 0
M  V30 59 H 9.777558 8.588861 -10.272099 0
M  V30 60 H 9.542764 7.977108 -12.635440 0
M  V30 61 H 8.022621 7.998326 -11.846811 0
M  V30 62 H 8.001107 7.281243 -9.375789 0
M  V30 END ATOM
M  V30 BEGIN BOND
M  V30 1 1 2 1
M  V30 2 1 3 2
M  V30 3 2 4 3
M  V30 4 1 5 4
M  V30 5 1 6 5
M  V30 6 1 7 6
M  V30 7 1 8 7
M  V30 8 1 9 4
M  V30 9 2 10 9
M  V30 10 1 11 10
M  V30 11 1 12 3
M  V30 12 2 12 11
M  V30 13 1 13 12
M  V30 14 1 14 13
M  V30 15 1 15 13
M  V30 16 1 16 15
M  V30 17 1 17 16
M  V30 18 1 18 17
M  V30 19 1 19 18
M  V30 20 1 20 19
M  V30 21 1 21 20
M  V30 22 1 22 21
M  V30 23 2 23 22
M  V30 24 1 24 23
M  V30 25 1 25 24
M  V30 26 2 26 24
M  V30 27 2 27 21
M  V30 28 1 27 26
M  V30 29 1 28 18
M  V30 30 1 29 15
M  V30 31 1 29 28
M  V30 32 1 30 1
M  V30 33 1 31 1
M  V30 34 1 32 1
M  V30 35 1 33 6
M  V30 36 1 34 6
M  V30 37 1 35 7
M  V30 38 1 36 7
M  V30 39 1 37 9
M  V30 40 1 38 10
M  V30 41 1 39 11
M  V30 42 1 13 40 CFG=1
M  V30 43 1 41 14
M  V30 44 1 15 42 CFG=3
M  V30 45 1 43 16
M  V30 46 1 44 16
M  V30 47 1 45 17
M  V30 48 1 46 17
M  V30 49 1 47 19
M  V30 50 1 48 19
M  V30 51 1 49 20
M  V30 52 1 50 20
M  V30 53 1 51 22
M  V30 54 1 52 23
M  V30 55 1 53 25
M  V30 56 1 54 25
M  V30 57 1 55 25
M  V30 58 1 56 26
M  V30 59 1 57 27
M  V30 60 1 58 28
M  V30 61 1 59 28
M  V30 62 1 60 29
M  V30 63 1 61 29
M  V30 64 1 18 62 CFG=1
M  V30 END BOND
M  V30 END CTAB
M  END
>  <b_m_subgroup_collapsed>  (386) 
0

>  <r_i_docking_score>  (386) 
-8.4126568639285502

>  <s_m_subgroup_title>  (386) 
glide-dock_SP_D22_pv

>  <s_m_subgroupid>  (386) 
glide-dock_SP_D22_pv

>  <Molecule ChEMBL ID>  (386) 
CHEMBL476839

>  <Standard Type>  (386) 
Ki

>  <Standard Value>  (386) 
10000.0

>  <label>  (386) 
0

$$$$
CHEMBL5757240
     RDKit          3D

  0  0  0  0  0  0  0  0  0  0999 V3000
M  V30 BEGIN CTAB
M  V30 COUNTS 66 70 0 0 1
M  V30 BEGIN ATOM
M  V30 1 O 7.032718 3.903495 -13.847333 0
M  V30 2 C 8.219307 3.726738 -13.571900 0
M  V30 3 N 9.004710 2.847068 -14.224773 0
M  V30 4 C 8.694352 2.210107 -15.510620 0 CFG=2
M  V30 5 C 7.548989 1.198141 -15.490950 0
M  V30 6 C 6.789792 1.019111 -16.666935 0
M  V30 7 C 5.669691 0.171774 -16.665386 0
M  V30 8 C 5.296950 -0.498550 -15.484700 0
M  V30 9 Cl 3.848964 -1.427363 -15.447349 0
M  V30 10 C 6.088953 -0.377852 -14.326066 0
M  V30 11 C 7.220861 0.461232 -14.333522 0
M  V30 12 C 9.947912 1.751681 -16.256056 0
M  V30 13 C 11.020567 2.652706 -16.443008 0
M  V30 14 C 12.105566 2.249966 -17.243462 0
M  V30 15 C 12.086612 0.966895 -17.821909 0
M  V30 16 C 10.987301 0.130387 -17.553711 0
M  V30 17 N 9.945975 0.505680 -16.785097 0
M  V30 18 C 8.887883 4.567019 -12.475771 0 CFG=1
M  V30 19 C 9.250256 5.927915 -13.074204 0
M  V30 20 C 9.936754 6.849414 -12.057044 0
M  V30 21 N 9.146957 7.024628 -10.810262 0 CFG=2 CHG=1
M  V30 22 C 9.879526 7.909707 -9.864852 0
M  V30 23 C 9.008453 8.464358 -8.717446 0
M  V30 24 O 9.793328 9.266331 -7.842180 0
M  V30 25 C 10.438251 8.663490 -6.785594 0
M  V30 26 C 10.657305 7.269601 -6.688703 0
M  V30 27 C 11.287122 6.739315 -5.555459 0
M  V30 28 C 11.655482 7.563693 -4.486734 0
M  V30 29 C 12.176915 6.997794 -3.308752 0
M  V30 30 C 12.484628 7.855085 -2.242110 0
M  V30 31 C 12.258397 9.231070 -2.401701 0
M  V30 32 N 11.753006 9.772388 -3.526978 0
M  V30 33 C 11.452924 8.964894 -4.563575 0
M  V30 34 C 10.883544 9.497288 -5.737680 0
M  V30 35 C 8.734545 5.719113 -10.220603 0
M  V30 36 C 7.994762 4.837569 -11.250346 0
M  V30 37 H 9.948944 2.722143 -13.891325 0
M  V30 38 H 8.323841 3.009156 -16.149265 0
M  V30 39 H 7.046857 1.554113 -17.568836 0
M  V30 40 H 5.071074 0.065077 -17.558788 0
M  V30 41 H 5.821468 -0.915914 -13.428785 0
M  V30 42 H 7.820379 0.559049 -13.446427 0
M  V30 43 H 10.998551 3.644840 -16.016239 0
M  V30 44 H 12.938394 2.917885 -17.413794 0
M  V30 45 H 12.901809 0.631378 -18.443468 0
M  V30 46 H 10.947016 -0.866885 -17.969177 0
M  V30 47 H 9.795733 4.056921 -12.148667 0
M  V30 48 H 9.905563 5.773661 -13.934644 0
M  V30 49 H 8.350192 6.419445 -13.446480 0
M  V30 50 H 10.916946 6.444000 -11.813157 0
M  V30 51 H 10.108359 7.823740 -12.517816 0
M  V30 52 H 10.752922 7.380850 -9.484364 0
M  V30 53 H 10.271596 8.770200 -10.410855 0
M  V30 54 H 8.244536 9.119058 -9.133264 0
M  V30 55 H 8.485204 7.685034 -8.162005 0
M  V30 56 H 10.350111 6.581430 -7.460620 0
M  V30 57 H 11.461932 5.684694 -5.490914 0
M  V30 58 H 12.321228 5.931001 -3.213863 0
M  V30 59 H 12.886020 7.470407 -1.317171 0
M  V30 60 H 12.484898 9.910585 -1.593505 0
M  V30 61 H 10.723122 10.561860 -5.804541 0
M  V30 62 H 9.611136 5.188562 -9.840972 0
M  V30 63 H 8.074034 5.880752 -9.370100 0
M  V30 64 H 7.071555 5.339526 -11.549913 0
M  V30 65 H 7.684990 3.901838 -10.790103 0
M  V30 66 H 8.276536 7.490675 -11.042808 0
M  V30 END ATOM
M  V30 BEGIN BOND
M  V30 1 2 2 1
M  V30 2 1 3 2
M  V30 3 1 4 3
M  V30 4 1 5 4
M  V30 5 1 6 5
M  V30 6 2 7 6
M  V30 7 1 8 7
M  V30 8 1 9 8
M  V30 9 2 10 8
M  V30 10 2 11 5
M  V30 11 1 11 10
M  V30 12 1 12 4
M  V30 13 2 13 12
M  V30 14 1 14 13
M  V30 15 2 15 14
M  V30 16 1 16 15
M  V30 17 1 17 12
M  V30 18 2 17 16
M  V30 19 1 18 2
M  V30 20 1 19 18
M  V30 21 1 20 19
M  V30 22 1 21 20
M  V30 23 1 22 21
M  V30 24 1 23 22
M  V30 25 1 24 23
M  V30 26 1 25 24
M  V30 27 1 26 25
M  V30 28 2 27 26
M  V30 29 1 28 27
M  V30 30 2 29 28
M  V30 31 1 30 29
M  V30 32 2 31 30
M  V30 33 1 32 31
M  V30 34 1 33 28
M  V30 35 2 33 32
M  V30 36 2 34 25
M  V30 37 1 34 33
M  V30 38 1 35 21
M  V30 39 1 36 18
M  V30 40 1 36 35
M  V30 41 1 37 3
M  V30 42 1 4 38 CFG=3
M  V30 43 1 39 6
M  V30 44 1 40 7
M  V30 45 1 41 10
M  V30 46 1 42 11
M  V30 47 1 43 13
M  V30 48 1 44 14
M  V30 49 1 45 15
M  V30 50 1 46 16
M  V30 51 1 18 47 CFG=1
M  V30 52 1 48 19
M  V30 53 1 49 19
M  V30 54 1 50 20
M  V30 55 1 51 20
M  V30 56 1 52 22
M  V30 57 1 53 22
M  V30 58 1 54 23
M  V30 59 1 55 23
M  V30 60 1 56 26
M  V30 61 1 57 27
M  V30 62 1 58 29
M  V30 63 1 59 30
M  V30 64 1 60 31
M  V30 65 1 61 34
M  V30 66 1 62 35
M  V30 67 1 63 35
M  V30 68 1 64 36
M  V30 69 1 65 36
M  V30 70 1 21 66 CFG=3
M  V30 END BOND
M  V30 END CTAB
M  END
>  <b_m_subgroup_collapsed>  (387) 
0

>  <r_i_docking_score>  (387) 
-8.4089144202984691

>  <s_m_subgroup_title>  (387) 
glide-dock_SP_D22_pv

>  <s_m_subgroupid>  (387) 
glide-dock_SP_D22_pv

>  <Molecule ChEMBL ID>  (387) 
CHEMBL5757240

>  <Standard Type>  (387) 
Ki

>  <Standard Value>  (387) 
20000.0

>  <label>  (387) 
0

$$$$
CHEMBL4755062
     RDKit          3D

  0  0  0  0  0  0  0  0  0  0999 V3000
M  V30 BEGIN CTAB
M  V30 COUNTS 60 63 0 0 1
M  V30 BEGIN ATOM
M  V30 1 C 5.384246 -0.386735 -18.944151 0
M  V30 2 C 6.797061 -0.553784 -18.364050 0
M  V30 3 C 7.423788 0.780540 -17.950808 0
M  V30 4 O 7.285711 1.772264 -18.669073 0
M  V30 5 N 8.099643 0.782454 -16.787958 0
M  V30 6 C 8.677140 1.905295 -16.140194 0
M  V30 7 C 8.647608 1.936700 -14.733355 0
M  V30 8 C 9.156620 3.047946 -14.036368 0
M  V30 9 C 9.718255 4.145935 -14.735258 0
M  V30 10 O 10.203359 5.290569 -14.136897 0
M  V30 11 C 10.152702 5.408266 -12.721081 0
M  V30 12 C 8.760895 5.865207 -12.224431 0
M  V30 13 C 8.475540 5.532682 -10.741920 0
M  V30 14 N 8.886115 6.559479 -9.740702 0 CFG=2 CHG=1
M  V30 15 C 10.275575 7.064338 -9.914470 0
M  V30 16 C 10.693226 8.074660 -8.834532 0
M  V30 17 C 10.463812 7.510810 -7.422774 0 CFG=1
M  V30 18 C 10.884657 8.456510 -6.332678 0
M  V30 19 N 10.725362 9.771326 -6.454498 0
M  V30 20 O 11.170559 10.373182 -5.247061 0
M  V30 21 C 11.585870 9.387815 -4.369528 0
M  V30 22 C 12.088153 9.452177 -3.066122 0
M  V30 23 C 12.392306 8.237614 -2.423362 0
M  V30 24 F 12.885895 8.257467 -1.169511 0
M  V30 25 C 12.183263 7.001918 -3.079509 0
M  V30 26 C 11.685487 6.966631 -4.401103 0
M  V30 27 C 11.389610 8.185267 -5.047935 0
M  V30 28 C 8.997365 7.098208 -7.290388 0
M  V30 29 C 8.657448 6.052894 -8.360049 0
M  V30 30 C 9.793517 4.082570 -16.140297 0
M  V30 31 C 9.286223 2.972348 -16.841440 0
M  V30 32 H 4.953291 -1.356365 -19.194115 0
M  V30 33 H 4.714896 0.096488 -18.231367 0
M  V30 34 H 5.392427 0.213804 -19.854044 0
M  V30 35 H 7.446297 -1.026076 -19.100447 0
M  V30 36 H 6.756669 -1.226897 -17.506170 0
M  V30 37 H 8.065953 -0.072562 -16.251503 0
M  V30 38 H 8.207173 1.120432 -14.177661 0
M  V30 39 H 9.089113 3.031829 -12.961063 0
M  V30 40 H 10.481455 4.486438 -12.242897 0
M  V30 41 H 10.905462 6.147406 -12.457116 0
M  V30 42 H 8.592651 6.921989 -12.435403 0
M  V30 43 H 8.008703 5.338519 -12.812167 0
M  V30 44 H 7.396546 5.406406 -10.641707 0
M  V30 45 H 8.913754 4.565207 -10.491327 0
M  V30 46 H 10.950422 6.210796 -9.892588 0
M  V30 47 H 10.377302 7.557812 -10.879484 0
M  V30 48 H 11.742586 8.342106 -8.965779 0
M  V30 49 H 10.122578 8.994651 -8.969948 0
M  V30 50 H 11.074172 6.611226 -7.328507 0
M  V30 51 H 12.216451 10.401095 -2.570256 0
M  V30 52 H 12.412103 6.078138 -2.567921 0
M  V30 53 H 11.527298 6.022079 -4.900188 0
M  V30 54 H 8.818862 6.672853 -6.302836 0
M  V30 55 H 8.342803 7.967244 -7.376891 0
M  V30 56 H 7.623423 5.750371 -8.243567 0
M  V30 57 H 9.257481 5.155157 -8.196877 0
M  V30 58 H 10.231996 4.903094 -16.688883 0
M  V30 59 H 9.357117 2.960745 -17.918697 0
M  V30 60 H 8.236841 7.335235 -9.865580 0
M  V30 END ATOM
M  V30 BEGIN BOND
M  V30 1 1 2 1
M  V30 2 1 3 2
M  V30 3 2 4 3
M  V30 4 1 5 3
M  V30 5 1 6 5
M  V30 6 1 7 6
M  V30 7 2 8 7
M  V30 8 1 9 8
M  V30 9 1 10 9
M  V30 10 1 11 10
M  V30 11 1 12 11
M  V30 12 1 13 12
M  V30 13 1 14 13
M  V30 14 1 15 14
M  V30 15 1 16 15
M  V30 16 1 17 16
M  V30 17 1 18 17
M  V30 18 2 19 18
M  V30 19 1 20 19
M  V30 20 1 21 20
M  V30 21 1 22 21
M  V30 22 2 23 22
M  V30 23 1 24 23
M  V30 24 1 25 23
M  V30 25 2 26 25
M  V30 26 1 27 18
M  V30 27 2 27 21
M  V30 28 1 27 26
M  V30 29 1 28 17
M  V30 30 1 29 14
M  V30 31 1 29 28
M  V30 32 2 30 9
M  V30 33 2 31 6
M  V30 34 1 31 30
M  V30 35 1 32 1
M  V30 36 1 33 1
M  V30 37 1 34 1
M  V30 38 1 35 2
M  V30 39 1 36 2
M  V30 40 1 37 5
M  V30 41 1 38 7
M  V30 42 1 39 8
M  V30 43 1 40 11
M  V30 44 1 41 11
M  V30 45 1 42 12
M  V30 46 1 43 12
M  V30 47 1 44 13
M  V30 48 1 45 13
M  V30 49 1 46 15
M  V30 50 1 47 15
M  V30 51 1 48 16
M  V30 52 1 49 16
M  V30 53 1 17 50 CFG=3
M  V30 54 1 51 22
M  V30 55 1 52 25
M  V30 56 1 53 26
M  V30 57 1 54 28
M  V30 58 1 55 28
M  V30 59 1 56 29
M  V30 60 1 57 29
M  V30 61 1 58 30
M  V30 62 1 59 31
M  V30 63 1 14 60 CFG=3
M  V30 END BOND
M  V30 END CTAB
M  END
>  <b_m_subgroup_collapsed>  (388) 
0

>  <r_i_docking_score>  (388) 
-8.4085335188116801

>  <s_m_subgroup_title>  (388) 
glide-dock_SP_D22_pv

>  <s_m_subgroupid>  (388) 
glide-dock_SP_D22_pv

>  <Molecule ChEMBL ID>  (388) 
CHEMBL4755062

>  <Standard Type>  (388) 
Ki

>  <Standard Value>  (388) 
10000.0

>  <label>  (388) 
0

$$$$
CHEMBL1173436
     RDKit          3D

  0  0  0  0  0  0  0  0  0  0999 V3000
M  V30 BEGIN CTAB
M  V30 COUNTS 53 57 0 0 1
M  V30 BEGIN ATOM
M  V30 1 C 6.653698 3.748792 -13.228464 0
M  V30 2 O 7.815940 4.352512 -12.679900 0
M  V30 3 C 8.975725 4.326659 -13.423982 0
M  V30 4 C 9.193646 3.410315 -14.484321 0
M  V30 5 C 10.387114 3.440721 -15.231380 0
M  V30 6 C 11.371302 4.400284 -14.942369 0
M  V30 7 C 11.155005 5.309304 -13.894087 0
M  V30 8 N 11.912615 6.354998 -13.410048 0
M  V30 9 C 11.273789 6.971742 -12.348010 0
M  V30 10 C 10.096990 6.306706 -12.084979 0
M  V30 11 C 9.112366 6.610056 -10.993164 0
M  V30 12 N 9.775349 7.150798 -9.778736 0 CFG=2 CHG=1
M  V30 13 C 10.335141 6.139154 -8.849165 0
M  V30 14 C 11.201353 6.825344 -7.755059 0
M  V30 15 C 10.331986 7.800919 -6.935088 0 CFG=1
M  V30 16 N 11.047215 8.528941 -5.859996 0
M  V30 17 C 11.250113 9.868449 -5.754992 0
M  V30 18 O 11.287744 10.694689 -6.647193 0
M  V30 19 N 11.489608 10.172297 -4.482540 0
M  V30 20 C 11.766309 9.023085 -3.793068 0
M  V30 21 C 12.269303 8.882723 -2.499327 0
M  V30 22 C 12.483291 7.567807 -2.064019 0
M  V30 23 C 12.175558 6.470176 -2.901966 0
M  V30 24 C 11.669734 6.645857 -4.212752 0
M  V30 25 C 11.485201 7.968757 -4.641726 0
M  V30 26 C 9.622963 8.755704 -7.922105 0
M  V30 27 C 8.884668 8.046258 -9.035452 0
M  V30 28 C 9.974738 5.279935 -13.091936 0
M  V30 29 H 5.800597 3.973536 -12.589359 0
M  V30 30 H 6.432664 4.141136 -14.221047 0
M  V30 31 H 6.742038 2.665578 -13.285631 0
M  V30 32 H 8.456792 2.665014 -14.740888 0
M  V30 33 H 10.541158 2.732543 -16.033081 0
M  V30 34 H 12.281548 4.439226 -15.523017 0
M  V30 35 H 12.823690 6.632160 -13.752004 0
M  V30 36 H 11.736688 7.811243 -11.851098 0
M  V30 37 H 8.399930 7.333506 -11.391860 0
M  V30 38 H 8.526326 5.732483 -10.716847 0
M  V30 39 H 9.522279 5.579475 -8.381341 0
M  V30 40 H 10.885701 5.404225 -9.417407 0
M  V30 41 H 11.644291 6.069286 -7.106946 0
M  V30 42 H 12.028665 7.371837 -8.212200 0
M  V30 43 H 9.557270 7.216262 -6.434192 0
M  V30 44 H 11.680973 11.096814 -4.123138 0
M  V30 45 H 12.492990 9.732754 -1.873635 0
M  V30 46 H 12.888052 7.397882 -1.077860 0
M  V30 47 H 12.346522 5.472177 -2.531108 0
M  V30 48 H 11.445180 5.791109 -4.836958 0
M  V30 49 H 8.902539 9.368772 -7.388269 0
M  V30 50 H 10.342331 9.406410 -8.415285 0
M  V30 51 H 8.484771 8.803987 -9.707075 0
M  V30 52 H 8.085983 7.447581 -8.610894 0
M  V30 53 H 10.539206 7.720277 -10.108733 0
M  V30 END ATOM
M  V30 BEGIN BOND
M  V30 1 1 2 1
M  V30 2 1 3 2
M  V30 3 1 4 3
M  V30 4 2 5 4
M  V30 5 1 6 5
M  V30 6 2 7 6
M  V30 7 1 8 7
M  V30 8 1 9 8
M  V30 9 2 10 9
M  V30 10 1 11 10
M  V30 11 1 12 11
M  V30 12 1 13 12
M  V30 13 1 14 13
M  V30 14 1 15 14
M  V30 15 1 16 15
M  V30 16 1 17 16
M  V30 17 2 18 17
M  V30 18 1 19 17
M  V30 19 1 20 19
M  V30 20 2 21 20
M  V30 21 1 22 21
M  V30 22 2 23 22
M  V30 23 1 24 23
M  V30 24 1 25 16
M  V30 25 1 25 20
M  V30 26 2 25 24
M  V30 27 1 26 15
M  V30 28 1 27 12
M  V30 29 1 27 26
M  V30 30 2 28 3
M  V30 31 1 28 7
M  V30 32 1 28 10
M  V30 33 1 29 1
M  V30 34 1 30 1
M  V30 35 1 31 1
M  V30 36 1 32 4
M  V30 37 1 33 5
M  V30 38 1 34 6
M  V30 39 1 35 8
M  V30 40 1 36 9
M  V30 41 1 37 11
M  V30 42 1 38 11
M  V30 43 1 39 13
M  V30 44 1 40 13
M  V30 45 1 41 14
M  V30 46 1 42 14
M  V30 47 1 15 43 CFG=1
M  V30 48 1 44 19
M  V30 49 1 45 21
M  V30 50 1 46 22
M  V30 51 1 47 23
M  V30 52 1 48 24
M  V30 53 1 49 26
M  V30 54 1 50 26
M  V30 55 1 51 27
M  V30 56 1 52 27
M  V30 57 1 12 53 CFG=3
M  V30 END BOND
M  V30 END CTAB
M  END
>  <b_m_subgroup_collapsed>  (389) 
0

>  <r_i_docking_score>  (389) 
-8.4076436180487093

>  <s_m_subgroup_title>  (389) 
glide-dock_SP_D22_pv

>  <s_m_subgroupid>  (389) 
glide-dock_SP_D22_pv

>  <Molecule ChEMBL ID>  (389) 
CHEMBL1173436

>  <Standard Type>  (389) 
Ki

>  <Standard Value>  (389) 
23.3

>  <label>  (389) 
1

$$$$
CHEMBL3409235
     RDKit          3D

  0  0  0  0  0  0  0  0  0  0999 V3000
M  V30 BEGIN CTAB
M  V30 COUNTS 69 73 0 0 1
M  V30 BEGIN ATOM
M  V30 1 O 13.098398 8.972276 -1.446909 0
M  V30 2 C 12.485994 8.523203 -2.405745 0
M  V30 3 C 11.708765 7.225786 -2.215626 0
M  V30 4 C 11.547746 6.417628 -3.492740 0
M  V30 5 C 11.323944 7.272927 -4.712750 0
M  V30 6 C 10.639404 6.743463 -5.810230 0
M  V30 7 C 10.564011 7.450158 -7.007655 0
M  V30 8 C 11.201008 8.704720 -7.128070 0
M  V30 9 O 11.279122 9.372214 -8.325799 0
M  V30 10 C 10.468801 8.922095 -9.404762 0
M  V30 11 C 11.130895 7.792853 -10.218573 0
M  V30 12 C 10.222260 7.249650 -11.335287 0
M  V30 13 C 9.058651 6.375234 -10.827450 0
M  V30 14 N 8.171298 6.003228 -11.947678 0 CHG=1
M  V30 15 C 7.017297 5.153781 -11.605078 0
M  V30 16 C 6.312575 4.586016 -12.855839 0
M  V30 17 C 7.091253 3.548451 -13.618166 0
M  V30 18 C 6.618128 2.285798 -13.846984 0
M  V30 19 N 7.585091 1.500268 -14.458491 0
M  V30 20 C 7.462214 0.075118 -14.722226 0
M  V30 21 C 6.074186 -0.308922 -15.193012 0
M  V30 22 C 5.776567 -0.360006 -16.570040 0
M  V30 23 C 4.486390 -0.727563 -16.994827 0
M  V30 24 C 3.493145 -1.027709 -16.043064 0
M  V30 25 C 3.782777 -0.972248 -14.668844 0
M  V30 26 C 5.078149 -0.625152 -14.246888 0
M  V30 27 C 8.705830 2.279780 -14.699828 0
M  V30 28 C 9.957061 1.968933 -15.269183 0
M  V30 29 C 10.916050 2.981135 -15.443402 0
M  V30 30 C 10.608403 4.301666 -15.072478 0
M  V30 31 C 9.360839 4.605140 -14.492394 0
M  V30 32 C 8.390315 3.599224 -14.246903 0
M  V30 33 C 11.808514 9.286661 -5.987974 0
M  V30 34 C 11.855781 8.575345 -4.766598 0
M  V30 35 N 12.478656 9.119223 -3.613073 0
M  V30 36 H 12.195676 6.618980 -1.450560 0
M  V30 37 H 10.723224 7.486513 -1.845915 0
M  V30 38 H 10.686256 5.772455 -3.375905 0
M  V30 39 H 12.417402 5.780928 -3.649940 0
M  V30 40 H 10.192513 5.772390 -5.754561 0
M  V30 41 H 10.051082 6.970927 -7.825694 0
M  V30 42 H 10.335502 9.772128 -10.055463 0
M  V30 43 H 9.461854 8.675103 -9.067751 0
M  V30 44 H 11.451924 6.973363 -9.577822 0
M  V30 45 H 12.044548 8.189389 -10.663253 0
M  V30 46 H 10.828577 6.661049 -12.025349 0
M  V30 47 H 9.833677 8.088099 -11.915370 0
M  V30 48 H 8.486092 6.906251 -10.070057 0
M  V30 49 H 9.448277 5.472449 -10.354856 0
M  V30 50 H 8.723009 5.503591 -12.628988 0
M  V30 51 H 6.314449 5.772010 -11.047086 0
M  V30 52 H 7.326403 4.335425 -10.953494 0
M  V30 53 H 5.998363 5.373447 -13.527229 0
M  V30 54 H 5.376256 4.141573 -12.515007 0
M  V30 55 H 5.669214 1.865523 -13.549155 0
M  V30 56 H 7.685782 -0.461734 -13.800784 0
M  V30 57 H 8.198681 -0.229539 -15.465822 0
M  V30 58 H 6.536636 -0.124665 -17.300632 0
M  V30 59 H 4.252833 -0.773338 -18.048471 0
M  V30 60 H 2.501519 -1.298771 -16.365118 0
M  V30 61 H 3.012649 -1.202946 -13.947360 0
M  V30 62 H 5.313581 -0.585628 -13.195046 0
M  V30 63 H 10.182484 0.960427 -15.580921 0
M  V30 64 H 11.877272 2.749708 -15.880494 0
M  V30 65 H 11.332868 5.085867 -15.240051 0
M  V30 66 H 9.153074 5.637000 -14.267145 0
M  V30 67 H 12.271449 10.259401 -6.068429 0
M  V30 68 H 12.962110 9.999388 -3.703897 0
M  V30 69 H 7.807450 6.855392 -12.352301 0
M  V30 END ATOM
M  V30 BEGIN BOND
M  V30 1 2 2 1
M  V30 2 1 3 2
M  V30 3 1 4 3
M  V30 4 1 5 4
M  V30 5 1 6 5
M  V30 6 2 7 6
M  V30 7 1 8 7
M  V30 8 1 9 8
M  V30 9 1 10 9
M  V30 10 1 11 10
M  V30 11 1 12 11
M  V30 12 1 13 12
M  V30 13 1 14 13
M  V30 14 1 15 14
M  V30 15 1 16 15
M  V30 16 1 17 16
M  V30 17 2 18 17
M  V30 18 1 19 18
M  V30 19 1 20 19
M  V30 20 1 21 20
M  V30 21 2 22 21
M  V30 22 1 23 22
M  V30 23 2 24 23
M  V30 24 1 25 24
M  V30 25 1 26 21
M  V30 26 2 26 25
M  V30 27 1 27 19
M  V30 28 2 28 27
M  V30 29 1 29 28
M  V30 30 2 30 29
M  V30 31 1 31 30
M  V30 32 1 32 17
M  V30 33 1 32 27
M  V30 34 2 32 31
M  V30 35 2 33 8
M  V30 36 2 34 5
M  V30 37 1 34 33
M  V30 38 1 35 2
M  V30 39 1 35 34
M  V30 40 1 36 3
M  V30 41 1 37 3
M  V30 42 1 38 4
M  V30 43 1 39 4
M  V30 44 1 40 6
M  V30 45 1 41 7
M  V30 46 1 42 10
M  V30 47 1 43 10
M  V30 48 1 44 11
M  V30 49 1 45 11
M  V30 50 1 46 12
M  V30 51 1 47 12
M  V30 52 1 48 13
M  V30 53 1 49 13
M  V30 54 1 50 14
M  V30 55 1 51 15
M  V30 56 1 52 15
M  V30 57 1 53 16
M  V30 58 1 54 16
M  V30 59 1 55 18
M  V30 60 1 56 20
M  V30 61 1 57 20
M  V30 62 1 58 22
M  V30 63 1 59 23
M  V30 64 1 60 24
M  V30 65 1 61 25
M  V30 66 1 62 26
M  V30 67 1 63 28
M  V30 68 1 64 29
M  V30 69 1 65 30
M  V30 70 1 66 31
M  V30 71 1 67 33
M  V30 72 1 68 35
M  V30 73 1 69 14
M  V30 END BOND
M  V30 END CTAB
M  END
>  <b_m_subgroup_collapsed>  (390) 
0

>  <r_i_docking_score>  (390) 
-8.4075469080357799

>  <s_m_subgroup_title>  (390) 
glide-dock_SP_D22_pv

>  <s_m_subgroupid>  (390) 
glide-dock_SP_D22_pv

>  <Molecule ChEMBL ID>  (390) 
CHEMBL3409235

>  <Standard Type>  (390) 
Ki

>  <Standard Value>  (390) 
70.0

>  <label>  (390) 
1

$$$$
CHEMBL517028
     RDKit          3D

  0  0  0  0  0  0  0  0  0  0999 V3000
M  V30 BEGIN CTAB
M  V30 COUNTS 49 53 0 0 1
M  V30 BEGIN ATOM
M  V30 1 C 13.705708 4.972361 -16.001242 0
M  V30 2 N 12.646944 5.978201 -16.241941 0 CFG=1 CHG=1
M  V30 3 C 11.869834 5.722458 -17.467354 0
M  V30 4 C 11.084927 4.419232 -17.320778 0
M  V30 5 C 10.277293 4.291398 -16.034014 0
M  V30 6 C 9.286043 3.321176 -15.825813 0
M  V30 7 C 8.593223 3.242831 -14.602782 0
M  V30 8 C 7.534334 2.232942 -14.392899 0
M  V30 9 C 6.362344 2.550066 -13.665303 0
M  V30 10 C 5.359261 1.584342 -13.446884 0
M  V30 11 C 5.489744 0.295878 -13.995624 0
M  V30 12 O 4.486635 -0.617273 -13.847547 0
M  V30 13 C 6.648041 -0.035640 -14.721371 0
M  V30 14 C 7.662955 0.922834 -14.909930 0
M  V30 15 C 8.923930 4.165323 -13.585229 0
M  V30 16 C 9.893270 5.191425 -13.724442 0
M  V30 17 C 10.583825 5.180425 -14.968134 0
M  V30 18 C 11.728428 6.209395 -15.098771 0 CFG=1
M  V30 19 C 12.461663 6.394633 -13.759433 0
M  V30 20 C 11.503441 6.751493 -12.647440 0
M  V30 21 C 11.924561 7.631793 -11.632087 0
M  V30 22 C 11.036668 7.991479 -10.611181 0
M  V30 23 C 9.724516 7.493975 -10.621623 0
M  V30 24 O 8.886015 7.907232 -9.629636 0
M  V30 25 C 9.300367 6.595862 -11.632010 0
M  V30 26 O 7.998789 6.172340 -11.624514 0
M  V30 27 C 10.210830 6.172414 -12.646132 0
M  V30 28 H 13.287388 4.048519 -15.597383 0
M  V30 29 H 14.440645 5.364473 -15.297556 0
M  V30 30 H 14.241640 4.735097 -16.921083 0
M  V30 31 H 11.183911 6.554857 -17.636452 0
M  V30 32 H 12.526142 5.681201 -18.338009 0
M  V30 33 H 10.400826 4.319862 -18.164209 0
M  V30 34 H 11.755794 3.561576 -17.383219 0
M  V30 35 H 9.048226 2.634056 -16.624664 0
M  V30 36 H 6.226718 3.541769 -13.258531 0
M  V30 37 H 4.474062 1.848715 -12.888244 0
M  V30 38 H 4.614910 -1.385264 -14.386283 0
M  V30 39 H 6.765721 -1.025668 -15.137822 0
M  V30 40 H 8.549026 0.641140 -15.459352 0
M  V30 41 H 8.410715 4.058531 -12.643400 0
M  V30 42 H 11.286016 7.175055 -15.327507 0
M  V30 43 H 12.892186 5.442722 -13.455800 0
M  V30 44 H 13.257697 7.136479 -13.841673 0
M  V30 45 H 12.921672 8.047359 -11.638910 0
M  V30 46 H 11.354437 8.673949 -9.836282 0
M  V30 47 H 7.938914 7.772551 -9.794935 0
M  V30 48 H 7.406699 6.709618 -11.098378 0
M  V30 49 H 13.131813 6.851399 -16.394753 0
M  V30 END ATOM
M  V30 BEGIN BOND
M  V30 1 1 2 1
M  V30 2 1 3 2
M  V30 3 1 4 3
M  V30 4 1 5 4
M  V30 5 1 6 5
M  V30 6 2 7 6
M  V30 7 1 8 7
M  V30 8 1 9 8
M  V30 9 2 10 9
M  V30 10 1 11 10
M  V30 11 1 12 11
M  V30 12 2 13 11
M  V30 13 2 14 8
M  V30 14 1 14 13
M  V30 15 1 15 7
M  V30 16 2 16 15
M  V30 17 2 17 5
M  V30 18 1 17 16
M  V30 19 1 18 2
M  V30 20 1 18 17
M  V30 21 1 19 18
M  V30 22 1 20 19
M  V30 23 1 21 20
M  V30 24 2 22 21
M  V30 25 1 23 22
M  V30 26 1 24 23
M  V30 27 2 25 23
M  V30 28 1 26 25
M  V30 29 1 27 16
M  V30 30 2 27 20
M  V30 31 1 27 25
M  V30 32 1 28 1
M  V30 33 1 29 1
M  V30 34 1 30 1
M  V30 35 1 31 3
M  V30 36 1 32 3
M  V30 37 1 33 4
M  V30 38 1 34 4
M  V30 39 1 35 6
M  V30 40 1 36 9
M  V30 41 1 37 10
M  V30 42 1 38 12
M  V30 43 1 39 13
M  V30 44 1 40 14
M  V30 45 1 41 15
M  V30 46 1 18 42 CFG=3
M  V30 47 1 43 19
M  V30 48 1 44 19
M  V30 49 1 45 21
M  V30 50 1 46 22
M  V30 51 1 47 24
M  V30 52 1 48 26
M  V30 53 1 2 49 CFG=3
M  V30 END BOND
M  V30 END CTAB
M  END
>  <b_m_subgroup_collapsed>  (391) 
0

>  <r_i_docking_score>  (391) 
-8.4065662277221307

>  <s_m_subgroup_title>  (391) 
glide-dock_SP_D22_pv

>  <s_m_subgroupid>  (391) 
glide-dock_SP_D22_pv

>  <Molecule ChEMBL ID>  (391) 
CHEMBL517028

>  <Standard Type>  (391) 
Ki

>  <Standard Value>  (391) 
3.8

>  <label>  (391) 
1

$$$$
CHEMBL423706
     RDKit          3D

  0  0  0  0  0  0  0  0  0  0999 V3000
M  V30 BEGIN CTAB
M  V30 COUNTS 59 62 0 0 1
M  V30 BEGIN ATOM
M  V30 1 O 8.207819 3.419090 -14.032640 0
M  V30 2 C 7.016302 3.178407 -13.847326 0
M  V30 3 C 6.069577 4.311531 -13.403844 0
M  V30 4 C 6.587039 5.130236 -12.208138 0
M  V30 5 C 7.749690 6.106004 -12.526879 0
M  V30 6 N 8.485838 6.536469 -11.314390 0 CFG=2 CHG=1
M  V30 7 C 9.284184 7.769290 -11.522738 0
M  V30 8 C 9.873692 8.260653 -10.190031 0
M  V30 9 C 10.723477 7.164888 -9.518384 0 CFG=1
M  V30 10 C 11.336965 7.625634 -8.185384 0
M  V30 11 C 10.343144 7.680112 -7.019602 0
M  V30 12 C 10.865925 8.505177 -5.901518 0
M  V30 13 C 10.885674 9.870724 -5.889769 0
M  V30 14 N 11.285910 10.292714 -4.645554 0
M  V30 15 C 11.685584 9.231252 -3.871404 0
M  V30 16 C 12.218343 9.162132 -2.578544 0
M  V30 17 C 12.486014 7.907454 -2.017290 0
M  V30 18 C 12.212524 6.736060 -2.747376 0
M  V30 19 C 11.686024 6.817847 -4.051910 0
M  V30 20 C 11.412758 8.069990 -4.647470 0
M  V30 21 C 9.887362 5.881145 -9.372612 0
M  V30 22 C 9.300755 5.447041 -10.715376 0
M  V30 23 C 6.430609 1.840845 -14.129983 0
M  V30 24 C 7.036424 1.015114 -15.106303 0
M  V30 25 C 6.460632 -0.223350 -15.452048 0
M  V30 26 C 5.282744 -0.651973 -14.817893 0
M  V30 27 F 4.714993 -1.827146 -15.170014 0
M  V30 28 C 4.696431 0.141903 -13.817056 0
M  V30 29 C 5.284480 1.366270 -13.446679 0
M  V30 30 H 5.896756 4.972027 -14.246902 0
M  V30 31 H 5.089138 3.915896 -13.153363 0
M  V30 32 H 5.761906 5.709287 -11.790694 0
M  V30 33 H 6.843716 4.416927 -11.429424 0
M  V30 34 H 8.473042 5.696875 -13.228311 0
M  V30 35 H 7.324633 6.980575 -13.020644 0
M  V30 36 H 10.078094 7.579494 -12.247230 0
M  V30 37 H 8.648865 8.552073 -11.940175 0
M  V30 38 H 10.485487 9.146252 -10.359520 0
M  V30 39 H 9.058743 8.570739 -9.534636 0
M  V30 40 H 11.556481 6.960955 -10.191833 0
M  V30 41 H 12.154755 6.973339 -7.885018 0
M  V30 42 H 11.786844 8.607178 -8.340672 0
M  V30 43 H 9.391913 8.099006 -7.345207 0
M  V30 44 H 10.118289 6.671707 -6.668753 0
M  V30 45 H 10.569082 10.571926 -6.646261 0
M  V30 46 H 11.322391 11.264833 -4.373878 0
M  V30 47 H 12.411113 10.064001 -2.016937 0
M  V30 48 H 12.886909 7.843370 -1.019991 0
M  V30 49 H 12.403530 5.772277 -2.299717 0
M  V30 50 H 11.471704 5.911474 -4.598695 0
M  V30 51 H 10.485499 5.074676 -8.949768 0
M  V30 52 H 9.057945 6.040100 -8.681824 0
M  V30 53 H 8.713643 4.550539 -10.536996 0
M  V30 54 H 10.085986 5.159331 -11.411759 0
M  V30 55 H 7.929753 1.341571 -15.620157 0
M  V30 56 H 6.907574 -0.840378 -16.216623 0
M  V30 57 H 3.788693 -0.192475 -13.338309 0
M  V30 58 H 4.815611 1.942009 -12.663602 0
M  V30 59 H 7.762274 6.817521 -10.647789 0
M  V30 END ATOM
M  V30 BEGIN BOND
M  V30 1 2 2 1
M  V30 2 1 3 2
M  V30 3 1 4 3
M  V30 4 1 5 4
M  V30 5 1 6 5
M  V30 6 1 7 6
M  V30 7 1 8 7
M  V30 8 1 9 8
M  V30 9 1 10 9
M  V30 10 1 11 10
M  V30 11 1 12 11
M  V30 12 2 13 12
M  V30 13 1 14 13
M  V30 14 1 15 14
M  V30 15 2 16 15
M  V30 16 1 17 16
M  V30 17 2 18 17
M  V30 18 1 19 18
M  V30 19 1 20 12
M  V30 20 1 20 15
M  V30 21 2 20 19
M  V30 22 1 21 9
M  V30 23 1 22 6
M  V30 24 1 22 21
M  V30 25 1 23 2
M  V30 26 1 24 23
M  V30 27 2 25 24
M  V30 28 1 26 25
M  V30 29 1 27 26
M  V30 30 2 28 26
M  V30 31 2 29 23
M  V30 32 1 29 28
M  V30 33 1 30 3
M  V30 34 1 31 3
M  V30 35 1 32 4
M  V30 36 1 33 4
M  V30 37 1 34 5
M  V30 38 1 35 5
M  V30 39 1 36 7
M  V30 40 1 37 7
M  V30 41 1 38 8
M  V30 42 1 39 8
M  V30 43 1 9 40 CFG=3
M  V30 44 1 41 10
M  V30 45 1 42 10
M  V30 46 1 43 11
M  V30 47 1 44 11
M  V30 48 1 45 13
M  V30 49 1 46 14
M  V30 50 1 47 16
M  V30 51 1 48 17
M  V30 52 1 49 18
M  V30 53 1 50 19
M  V30 54 1 51 21
M  V30 55 1 52 21
M  V30 56 1 53 22
M  V30 57 1 54 22
M  V30 58 1 55 24
M  V30 59 1 56 25
M  V30 60 1 57 28
M  V30 61 1 58 29
M  V30 62 1 6 59 CFG=1
M  V30 END BOND
M  V30 END CTAB
M  END
>  <b_m_subgroup_collapsed>  (392) 
0

>  <r_i_docking_score>  (392) 
-8.4046557413545493

>  <s_m_subgroup_title>  (392) 
glide-dock_SP_D22_pv

>  <s_m_subgroupid>  (392) 
glide-dock_SP_D22_pv

>  <Molecule ChEMBL ID>  (392) 
CHEMBL423706

>  <Standard Type>  (392) 
Ki

>  <Standard Value>  (392) 
40.0

>  <label>  (392) 
1

$$$$
CHEMBL303979
     RDKit          3D

  0  0  0  0  0  0  0  0  0  0999 V3000
M  V30 BEGIN CTAB
M  V30 COUNTS 40 43 0 0 1
M  V30 BEGIN ATOM
M  V30 1 F 11.869504 6.878256 -2.919935 0
M  V30 2 C 11.686163 7.581908 -4.062345 0
M  V30 3 C 12.120469 8.918758 -4.140953 0
M  V30 4 C 11.963192 9.638117 -5.340763 0
M  V30 5 C 11.365310 9.035896 -6.457747 0
M  V30 6 C 10.875271 7.712243 -6.362432 0
M  V30 7 C 11.050847 6.979191 -5.169059 0
M  V30 8 C 10.291481 7.095687 -7.613921 0 CFG=1
M  V30 9 C 8.981416 6.322133 -7.597527 0
M  V30 10 N 8.643100 6.204048 -9.046194 0 CFG=2 CHG=1
M  V30 11 C 8.794315 4.829313 -9.567558 0
M  V30 12 C 8.579068 4.732707 -11.069377 0
M  V30 13 C 9.583447 4.173877 -11.882312 0
M  V30 14 C 9.406959 4.054559 -13.268724 0
M  V30 15 C 8.205001 4.486547 -13.846611 0
M  V30 16 C 7.183520 5.032867 -13.045653 0
M  V30 17 C 7.375593 5.163332 -11.658914 0
M  V30 18 C 9.447955 7.229527 -9.771750 0
M  V30 19 C 9.947890 8.129929 -8.655725 0 CFG=2
M  V30 20 C 11.139438 9.046846 -8.849405 0
M  V30 21 O 11.286160 9.768758 -7.622598 0
M  V30 22 H 12.599844 9.381307 -3.290362 0
M  V30 23 H 12.336169 10.641787 -5.446923 0
M  V30 24 H 10.718851 5.955007 -5.098752 0
M  V30 25 H 11.078032 6.436973 -7.993305 0
M  V30 26 H 9.085122 5.372533 -7.089250 0
M  V30 27 H 8.198659 6.888055 -7.086909 0
M  V30 28 H 9.789786 4.457040 -9.318404 0
M  V30 29 H 8.086099 4.173232 -9.061165 0
M  V30 30 H 10.485808 3.799406 -11.440432 0
M  V30 31 H 10.183025 3.618473 -13.881316 0
M  V30 32 H 8.086563 4.380920 -14.910103 0
M  V30 33 H 6.249320 5.363322 -13.472759 0
M  V30 34 H 6.594754 5.593230 -11.048214 0
M  V30 35 H 10.295363 6.775052 -10.288026 0
M  V30 36 H 8.857430 7.768092 -10.514043 0
M  V30 37 H 9.111631 8.748195 -8.314257 0
M  V30 38 H 12.051655 8.497337 -9.085346 0
M  V30 39 H 10.959830 9.751409 -9.662177 0
M  V30 40 H 7.669430 6.482378 -9.152959 0
M  V30 END ATOM
M  V30 BEGIN BOND
M  V30 1 1 2 1
M  V30 2 1 3 2
M  V30 3 2 4 3
M  V30 4 1 5 4
M  V30 5 2 6 5
M  V30 6 2 7 2
M  V30 7 1 7 6
M  V30 8 1 8 6
M  V30 9 1 9 8
M  V30 10 1 10 9
M  V30 11 1 11 10
M  V30 12 1 12 11
M  V30 13 2 13 12
M  V30 14 1 14 13
M  V30 15 2 15 14
M  V30 16 1 16 15
M  V30 17 1 17 12
M  V30 18 2 17 16
M  V30 19 1 18 10
M  V30 20 1 19 8
M  V30 21 1 19 18
M  V30 22 1 20 19
M  V30 23 1 21 5
M  V30 24 1 21 20
M  V30 25 1 22 3
M  V30 26 1 23 4
M  V30 27 1 24 7
M  V30 28 1 8 25 CFG=3
M  V30 29 1 26 9
M  V30 30 1 27 9
M  V30 31 1 28 11
M  V30 32 1 29 11
M  V30 33 1 30 13
M  V30 34 1 31 14
M  V30 35 1 32 15
M  V30 36 1 33 16
M  V30 37 1 34 17
M  V30 38 1 35 18
M  V30 39 1 36 18
M  V30 40 1 19 37 CFG=1
M  V30 41 1 38 20
M  V30 42 1 39 20
M  V30 43 1 10 40 CFG=1
M  V30 END BOND
M  V30 END CTAB
M  END
>  <b_m_subgroup_collapsed>  (393) 
0

>  <r_i_docking_score>  (393) 
-8.4037390146181306

>  <s_m_subgroup_title>  (393) 
glide-dock_SP_D22_pv

>  <s_m_subgroupid>  (393) 
glide-dock_SP_D22_pv

>  <Molecule ChEMBL ID>  (393) 
CHEMBL303979

>  <Standard Type>  (393) 
Ki

>  <Standard Value>  (393) 
25.12

>  <label>  (393) 
1

$$$$
CHEMBL438980
     RDKit          3D

  0  0  0  0  0  0  0  0  0  0999 V3000
M  V30 BEGIN CTAB
M  V30 COUNTS 62 67 0 0 1
M  V30 BEGIN ATOM
M  V30 1 O 5.285789 2.384298 -13.150617 0
M  V30 2 C 6.370880 2.752323 -13.591330 0
M  V30 3 C 7.022433 2.024653 -14.771394 0
M  V30 4 C 8.559482 1.931598 -14.637619 0 CFG=1
M  V30 5 C 9.166830 1.382018 -15.924574 0
M  V30 6 C 9.630199 0.049269 -15.971938 0
M  V30 7 C 10.150024 -0.480957 -17.167742 0
M  V30 8 C 10.228107 0.323183 -18.320381 0
M  V30 9 C 9.773486 1.655460 -18.279045 0
M  V30 10 C 9.237756 2.181213 -17.087120 0
M  V30 11 C 9.177941 3.244203 -14.147024 0
M  V30 12 C 10.536217 3.561450 -14.384093 0
M  V30 13 C 11.092307 4.737930 -13.848009 0
M  V30 14 C 10.308241 5.587618 -13.047017 0
M  V30 15 C 8.959694 5.272110 -12.778584 0
M  V30 16 C 8.149140 6.166171 -11.851378 0
M  V30 17 C 8.244538 5.731502 -10.371080 0
M  V30 18 N 9.488186 6.064722 -9.667803 0
M  V30 19 C 9.785385 7.502074 -9.727596 0
M  V30 20 C 11.082185 7.787239 -8.952136 0
M  V30 21 N 10.931020 7.415668 -7.545176 0
M  V30 22 C 11.050472 8.353757 -6.493678 0
M  V30 23 N 10.887413 9.626073 -6.779397 0
M  V30 24 S 11.177526 10.571255 -5.447210 0
M  V30 25 C 11.568253 9.255878 -4.384425 0
M  V30 26 C 11.977487 9.307121 -3.042565 0
M  V30 27 C 12.237303 8.113076 -2.354519 0
M  V30 28 C 12.087276 6.884983 -3.025070 0
M  V30 29 C 11.685870 6.852235 -4.377080 0
M  V30 30 C 11.414032 8.035617 -5.110954 0
M  V30 31 C 10.465080 6.050846 -7.365497 0
M  V30 32 C 9.245396 5.743110 -8.255033 0
M  V30 33 C 8.391454 4.107759 -13.345039 0
M  V30 34 N 7.043964 3.772816 -13.047851 0
M  V30 35 H 6.753416 2.572035 -15.673410 0
M  V30 36 H 6.590861 1.029195 -14.879054 0
M  V30 37 H 8.774462 1.210254 -13.847201 0
M  V30 38 H 9.570265 -0.580791 -15.096076 0
M  V30 39 H 10.487001 -1.506190 -17.201155 0
M  V30 40 H 10.630668 -0.082671 -19.236172 0
M  V30 41 H 9.833011 2.273317 -19.161703 0
M  V30 42 H 8.883619 3.201037 -17.065132 0
M  V30 43 H 11.162015 2.899595 -14.964325 0
M  V30 44 H 12.130257 4.977411 -14.029654 0
M  V30 45 H 10.751781 6.473583 -12.616903 0
M  V30 46 H 8.424476 7.209614 -11.998476 0
M  V30 47 H 7.098979 6.142612 -12.146415 0
M  V30 48 H 7.418364 6.167895 -9.821986 0
M  V30 49 H 8.082749 4.654825 -10.305829 0
M  V30 50 H 9.941960 7.821855 -10.754701 0
M  V30 51 H 8.955155 8.091023 -9.328544 0
M  V30 52 H 11.900792 7.214937 -9.385730 0
M  V30 53 H 11.359777 8.834163 -9.071584 0
M  V30 54 H 12.085481 10.259712 -2.540709 0
M  V30 55 H 12.550988 8.141876 -1.321414 0
M  V30 56 H 12.286186 5.958583 -2.504899 0
M  V30 57 H 11.624999 5.889993 -4.858222 0
M  V30 58 H 11.286157 5.371004 -7.579706 0
M  V30 59 H 10.158432 5.889812 -6.335925 0
M  V30 60 H 8.388856 6.311172 -7.881180 0
M  V30 61 H 8.987956 4.687995 -8.159984 0
M  V30 62 H 6.587962 4.296220 -12.314216 0
M  V30 END ATOM
M  V30 BEGIN BOND
M  V30 1 2 2 1
M  V30 2 1 3 2
M  V30 3 1 4 3
M  V30 4 1 5 4
M  V30 5 2 6 5
M  V30 6 1 7 6
M  V30 7 2 8 7
M  V30 8 1 9 8
M  V30 9 1 10 5
M  V30 10 2 10 9
M  V30 11 1 11 4
M  V30 12 2 12 11
M  V30 13 1 13 12
M  V30 14 2 14 13
M  V30 15 1 15 14
M  V30 16 1 16 15
M  V30 17 1 17 16
M  V30 18 1 18 17
M  V30 19 1 19 18
M  V30 20 1 20 19
M  V30 21 1 21 20
M  V30 22 1 22 21
M  V30 23 2 23 22
M  V30 24 1 24 23
M  V30 25 1 25 24
M  V30 26 2 26 25
M  V30 27 1 27 26
M  V30 28 2 28 27
M  V30 29 1 29 28
M  V30 30 1 30 22
M  V30 31 1 30 25
M  V30 32 2 30 29
M  V30 33 1 31 21
M  V30 34 1 32 18
M  V30 35 1 32 31
M  V30 36 1 33 11
M  V30 37 2 33 15
M  V30 38 1 34 2
M  V30 39 1 34 33
M  V30 40 1 35 3
M  V30 41 1 36 3
M  V30 42 1 4 37 CFG=1
M  V30 43 1 38 6
M  V30 44 1 39 7
M  V30 45 1 40 8
M  V30 46 1 41 9
M  V30 47 1 42 10
M  V30 48 1 43 12
M  V30 49 1 44 13
M  V30 50 1 45 14
M  V30 51 1 46 16
M  V30 52 1 47 16
M  V30 53 1 48 17
M  V30 54 1 49 17
M  V30 55 1 50 19
M  V30 56 1 51 19
M  V30 57 1 52 20
M  V30 58 1 53 20
M  V30 59 1 54 26
M  V30 60 1 55 27
M  V30 61 1 56 28
M  V30 62 1 57 29
M  V30 63 1 58 31
M  V30 64 1 59 31
M  V30 65 1 60 32
M  V30 66 1 61 32
M  V30 67 1 62 34
M  V30 END BOND
M  V30 END CTAB
M  END
>  <b_m_subgroup_collapsed>  (394) 
0

>  <r_i_docking_score>  (394) 
-8.4026364199732999

>  <s_m_subgroup_title>  (394) 
glide-dock_SP_D22_pv

>  <s_m_subgroupid>  (394) 
glide-dock_SP_D22_pv

>  <Molecule ChEMBL ID>  (394) 
CHEMBL438980

>  <Standard Type>  (394) 
Ki

>  <Standard Value>  (394) 
15.0

>  <label>  (394) 
1

$$$$
CHEMBL1258833
     RDKit          3D

  0  0  0  0  0  0  0  0  0  0999 V3000
M  V30 BEGIN CTAB
M  V30 COUNTS 57 61 0 0 1
M  V30 BEGIN ATOM
M  V30 1 C 12.167529 6.023826 -2.553712 0
M  V30 2 C 12.213326 7.481992 -2.598545 0
M  V30 3 N 12.486974 8.172289 -1.447518 0
M  V30 4 C 12.365273 9.414928 -1.822122 0
M  V30 5 O 12.044448 9.618973 -3.125405 0
M  V30 6 C 11.929168 8.353769 -3.614445 0
M  V30 7 C 11.510893 8.130352 -4.991281 0
M  V30 8 N 11.180992 6.906744 -5.409324 0
M  V30 9 N 10.887943 7.018101 -6.737320 0
M  V30 10 C 11.075291 8.303030 -7.029577 0
M  V30 11 S 10.882372 8.972301 -8.640540 0
M  V30 12 C 11.378488 7.552395 -9.648919 0
M  V30 13 C 10.899541 7.707830 -11.101856 0
M  V30 14 C 9.388134 7.998525 -11.322773 0
M  V30 15 N 8.486016 6.822306 -11.421877 0 CFG=2 CHG=1
M  V30 16 C 8.625922 5.743506 -10.419550 0
M  V30 17 C 8.112445 4.472365 -11.087839 0
M  V30 18 C 7.579152 4.897659 -12.454483 0 CFG=2
M  V30 19 C 6.036669 5.084916 -12.402289 0
M  V30 20 C 5.416621 3.739737 -12.840697 0
M  V30 21 C 6.535533 3.078875 -13.598831 0
M  V30 22 C 6.486020 1.861523 -14.299187 0
M  V30 23 C 7.672298 1.373321 -14.888804 0
M  V30 24 C 8.885786 2.086562 -14.752463 0
M  V30 25 Br 10.485826 1.380577 -15.502149 0
M  V30 26 C 8.925938 3.296615 -14.025748 0
M  V30 27 C 7.732049 3.772115 -13.447360 0
M  V30 28 C 8.354538 6.188289 -12.744209 0
M  V30 29 N 11.431191 9.055852 -5.970047 0
M  V30 30 C 11.703581 10.480915 -5.910782 0
M  V30 31 H 11.131286 5.772306 -2.356330 0
M  V30 32 H 12.485981 5.580624 -3.493066 0
M  V30 33 H 12.792873 5.626813 -1.754063 0
M  V30 34 H 12.486022 10.224710 -1.126366 0
M  V30 35 H 12.467137 7.498125 -9.630682 0
M  V30 36 H 11.038099 6.628649 -9.199909 0
M  V30 37 H 11.457185 8.571979 -11.446868 0
M  V30 38 H 11.231085 6.872640 -11.718348 0
M  V30 39 H 8.989568 8.645757 -10.542845 0
M  V30 40 H 9.272285 8.574346 -12.242165 0
M  V30 41 H 9.656485 5.534364 -10.169462 0
M  V30 42 H 8.088285 5.991941 -9.503592 0
M  V30 43 H 8.960368 3.795720 -11.226037 0
M  V30 44 H 7.368052 3.936562 -10.498211 0
M  V30 45 H 5.659633 5.450419 -11.446986 0
M  V30 46 H 5.745829 5.828160 -13.144422 0
M  V30 47 H 4.519938 3.872452 -13.445394 0
M  V30 48 H 5.172369 3.123650 -11.975073 0
M  V30 49 H 5.567003 1.299393 -14.368550 0
M  V30 50 H 7.658422 0.436089 -15.426542 0
M  V30 51 H 9.865497 3.806001 -13.873535 0
M  V30 52 H 7.844337 6.843252 -13.447205 0
M  V30 53 H 9.351385 5.971578 -13.129276 0
M  V30 54 H 11.327832 10.987037 -6.794979 0
M  V30 55 H 11.209620 10.925823 -5.047807 0
M  V30 56 H 12.780187 10.634651 -5.846612 0
M  V30 57 H 7.561872 7.205866 -11.192638 0
M  V30 END ATOM
M  V30 BEGIN BOND
M  V30 1 1 2 1
M  V30 2 1 3 2
M  V30 3 2 4 3
M  V30 4 1 5 4
M  V30 5 2 6 2
M  V30 6 1 6 5
M  V30 7 1 7 6
M  V30 8 2 8 7
M  V30 9 1 9 8
M  V30 10 2 10 9
M  V30 11 1 11 10
M  V30 12 1 12 11
M  V30 13 1 13 12
M  V30 14 1 14 13
M  V30 15 1 15 14
M  V30 16 1 16 15
M  V30 17 1 17 16
M  V30 18 1 18 17 CFG=1
M  V30 19 1 19 18
M  V30 20 1 20 19
M  V30 21 1 21 20
M  V30 22 1 22 21
M  V30 23 2 23 22
M  V30 24 1 24 23
M  V30 25 1 25 24
M  V30 26 2 26 24
M  V30 27 1 27 18
M  V30 28 2 27 21
M  V30 29 1 27 26
M  V30 30 1 28 15
M  V30 31 1 28 18
M  V30 32 1 29 7
M  V30 33 1 29 10
M  V30 34 1 30 29
M  V30 35 1 31 1
M  V30 36 1 32 1
M  V30 37 1 33 1
M  V30 38 1 34 4
M  V30 39 1 35 12
M  V30 40 1 36 12
M  V30 41 1 37 13
M  V30 42 1 38 13
M  V30 43 1 39 14
M  V30 44 1 40 14
M  V30 45 1 41 16
M  V30 46 1 42 16
M  V30 47 1 43 17
M  V30 48 1 44 17
M  V30 49 1 45 19
M  V30 50 1 46 19
M  V30 51 1 47 20
M  V30 52 1 48 20
M  V30 53 1 49 22
M  V30 54 1 50 23
M  V30 55 1 51 26
M  V30 56 1 52 28
M  V30 57 1 53 28
M  V30 58 1 54 30
M  V30 59 1 55 30
M  V30 60 1 56 30
M  V30 61 1 15 57 CFG=1
M  V30 END BOND
M  V30 END CTAB
M  END
>  <b_m_subgroup_collapsed>  (395) 
0

>  <r_i_docking_score>  (395) 
-8.4007223271375295

>  <s_m_subgroup_title>  (395) 
glide-dock_SP_D22_pv

>  <s_m_subgroupid>  (395) 
glide-dock_SP_D22_pv

>  <Molecule ChEMBL ID>  (395) 
CHEMBL1258833

>  <Standard Type>  (395) 
Ki

>  <Standard Value>  (395) 
39.81

>  <label>  (395) 
1

$$$$
CHEMBL5723006
     RDKit          3D

  0  0  0  0  0  0  0  0  0  0999 V3000
M  V30 BEGIN CTAB
M  V30 COUNTS 43 44 0 0 1
M  V30 BEGIN ATOM
M  V30 1 C 9.207391 4.323272 -11.553850 0
M  V30 2 C 8.868144 5.747394 -11.100412 0
M  V30 3 C 8.174390 6.502998 -12.241732 0
M  V30 4 C 10.151828 6.445653 -10.600030 0
M  V30 5 C 9.984121 7.857100 -10.006753 0 CFG=2
M  V30 6 C 11.335765 8.467628 -9.564110 0
M  V30 7 O 12.235766 8.572069 -10.646697 0
M  V30 8 N 8.960934 7.882710 -8.929810 0 CHG=1
M  V30 9 C 9.199892 7.078687 -7.702228 0
M  V30 10 C 10.081209 7.779810 -6.674491 0
M  V30 11 C 10.192610 9.119472 -6.581683 0
M  V30 12 C 10.962262 9.758525 -5.497603 0
M  V30 13 O 11.115667 10.972139 -5.450198 0
M  V30 14 C 11.495081 8.851056 -4.456836 0
M  V30 15 C 12.038292 9.360775 -3.257687 0
M  V30 16 C 12.486350 8.475621 -2.263599 0
M  V30 17 F 13.005474 8.959706 -1.114536 0
M  V30 18 C 12.427739 7.086899 -2.475504 0
M  V30 19 C 11.885432 6.580703 -3.666973 0
M  V30 20 C 11.390340 7.453294 -4.647621 0
M  V30 21 N 10.744510 6.950757 -5.784100 0
M  V30 22 H 9.888467 4.325133 -12.405416 0
M  V30 23 H 9.690540 3.772275 -10.749557 0
M  V30 24 H 8.311562 3.775054 -11.847022 0
M  V30 25 H 8.160595 5.665440 -10.273734 0
M  V30 26 H 8.831890 6.572403 -13.104172 0
M  V30 27 H 7.267959 5.985542 -12.556912 0
M  V30 28 H 7.879757 7.510841 -11.952507 0
M  V30 29 H 10.853632 6.512211 -11.433524 0
M  V30 30 H 10.630636 5.815448 -9.850097 0
M  V30 31 H 9.592019 8.505194 -10.790902 0
M  V30 32 H 11.811993 7.871017 -8.785591 0
M  V30 33 H 11.187007 9.472663 -9.168713 0
M  V30 34 H 12.935800 9.172646 -10.406976 0
M  V30 35 H 8.780643 8.837219 -8.661171 0
M  V30 36 H 8.228436 6.931396 -7.227558 0
M  V30 37 H 9.572747 6.080287 -7.929137 0
M  V30 38 H 9.686016 9.771911 -7.272641 0
M  V30 39 H 12.089639 10.423879 -3.070391 0
M  V30 40 H 12.794053 6.405118 -1.721766 0
M  V30 41 H 11.841242 5.521113 -3.820598 0
M  V30 42 H 10.617366 5.947949 -5.842453 0
M  V30 43 H 8.096045 7.546983 -9.350432 0
M  V30 END ATOM
M  V30 BEGIN BOND
M  V30 1 1 2 1
M  V30 2 1 3 2
M  V30 3 1 4 2
M  V30 4 1 5 4
M  V30 5 1 6 5
M  V30 6 1 7 6
M  V30 7 1 8 5
M  V30 8 1 9 8
M  V30 9 1 10 9
M  V30 10 2 11 10
M  V30 11 1 12 11
M  V30 12 2 13 12
M  V30 13 1 14 12
M  V30 14 2 15 14
M  V30 15 1 16 15
M  V30 16 1 17 16
M  V30 17 2 18 16
M  V30 18 1 19 18
M  V30 19 1 20 14
M  V30 20 2 20 19
M  V30 21 1 21 10
M  V30 22 1 21 20
M  V30 23 1 22 1
M  V30 24 1 23 1
M  V30 25 1 24 1
M  V30 26 1 25 2
M  V30 27 1 26 3
M  V30 28 1 27 3
M  V30 29 1 28 3
M  V30 30 1 29 4
M  V30 31 1 30 4
M  V30 32 1 5 31 CFG=3
M  V30 33 1 32 6
M  V30 34 1 33 6
M  V30 35 1 34 7
M  V30 36 1 35 8
M  V30 37 1 36 9
M  V30 38 1 37 9
M  V30 39 1 38 11
M  V30 40 1 39 15
M  V30 41 1 40 18
M  V30 42 1 41 19
M  V30 43 1 42 21
M  V30 44 1 43 8
M  V30 END BOND
M  V30 END CTAB
M  END
>  <b_m_subgroup_collapsed>  (396) 
0

>  <r_i_docking_score>  (396) 
-8.3993188172233406

>  <s_m_subgroup_title>  (396) 
glide-dock_SP_D22_pv

>  <s_m_subgroupid>  (396) 
glide-dock_SP_D22_pv

>  <Molecule ChEMBL ID>  (396) 
CHEMBL5723006

>  <Standard Type>  (396) 
Ki

>  <Standard Value>  (396) 
10000.0

>  <label>  (396) 
0

$$$$
CHEMBL246637
     RDKit          3D

  0  0  0  0  0  0  0  0  0  0999 V3000
M  V30 BEGIN CTAB
M  V30 COUNTS 46 49 0 0 1
M  V30 BEGIN ATOM
M  V30 1 O 8.085767 6.572035 -11.847838 0
M  V30 2 C 9.324378 5.997510 -11.484158 0 CFG=1
M  V30 3 C 9.921262 5.299038 -12.722919 0
M  V30 4 C 11.080246 5.772257 -13.389689 0
M  V30 5 C 11.615979 5.075771 -14.489835 0
M  V30 6 C 10.995899 3.903738 -14.959591 0
M  V30 7 Cl 11.686162 3.059430 -16.299698 0
M  V30 8 C 9.820752 3.439499 -14.333202 0
M  V30 9 Cl 9.020034 2.012849 -14.889445 0
M  V30 10 C 9.288445 4.141140 -13.234431 0
M  V30 11 C 10.232870 7.119685 -10.924675 0
M  V30 12 C 9.816072 7.655539 -9.543697 0
M  V30 13 N 9.679813 6.573156 -8.528893 0 CFG=1 CHG=1
M  V30 14 C 9.309438 7.040376 -7.161477 0
M  V30 15 C 10.284712 7.975970 -6.495787 0
M  V30 16 C 10.486107 9.274699 -6.860128 0
M  V30 17 N 11.297899 9.910416 -5.939680 0
M  V30 18 C 11.632504 9.040740 -4.925172 0
M  V30 19 C 12.337626 9.213828 -3.720951 0
M  V30 20 C 12.486030 8.129080 -2.841867 0
M  V30 21 C 11.984057 6.867861 -3.201807 0
M  V30 22 C 11.286029 6.705929 -4.415073 0
M  V30 23 C 11.056649 7.787701 -5.292830 0
M  V30 24 C 8.703583 5.560927 -8.998986 0
M  V30 25 C 9.089360 4.961878 -10.358330 0
M  V30 26 H 7.615483 6.959194 -11.107241 0
M  V30 27 H 11.591758 6.665844 -13.067415 0
M  V30 28 H 12.510390 5.441977 -14.972693 0
M  V30 29 H 8.381756 3.771928 -12.780093 0
M  V30 30 H 11.249381 6.744000 -10.814369 0
M  V30 31 H 10.289878 7.948213 -11.632598 0
M  V30 32 H 10.596978 8.351450 -9.249825 0
M  V30 33 H 8.886392 8.220895 -9.617249 0
M  V30 34 H 8.330668 7.521261 -7.209855 0
M  V30 35 H 9.167416 6.172209 -6.518757 0
M  V30 36 H 10.048739 9.772322 -7.703431 0
M  V30 37 H 11.556667 10.885092 -5.996805 0
M  V30 38 H 12.744682 10.172249 -3.446433 0
M  V30 39 H 13.001234 8.263454 -1.902159 0
M  V30 40 H 12.107224 6.025008 -2.536087 0
M  V30 41 H 10.864572 5.748842 -4.651923 0
M  V30 42 H 8.622157 4.754848 -8.268040 0
M  V30 43 H 7.714005 6.015293 -9.066877 0
M  V30 44 H 8.311250 4.254086 -10.644150 0
M  V30 45 H 9.994865 4.370309 -10.221626 0
M  V30 46 H 10.576099 6.115310 -8.447712 0
M  V30 END ATOM
M  V30 BEGIN BOND
M  V30 1 1 2 1 CFG=3
M  V30 2 1 3 2
M  V30 3 1 4 3
M  V30 4 2 5 4
M  V30 5 1 6 5
M  V30 6 1 7 6
M  V30 7 2 8 6
M  V30 8 1 9 8
M  V30 9 2 10 3
M  V30 10 1 10 8
M  V30 11 1 11 2
M  V30 12 1 12 11
M  V30 13 1 13 12
M  V30 14 1 14 13
M  V30 15 1 15 14
M  V30 16 2 16 15
M  V30 17 1 17 16
M  V30 18 1 18 17
M  V30 19 2 19 18
M  V30 20 1 20 19
M  V30 21 2 21 20
M  V30 22 1 22 21
M  V30 23 1 23 15
M  V30 24 1 23 18
M  V30 25 2 23 22
M  V30 26 1 24 13
M  V30 27 1 25 2
M  V30 28 1 25 24
M  V30 29 1 26 1
M  V30 30 1 27 4
M  V30 31 1 28 5
M  V30 32 1 29 10
M  V30 33 1 30 11
M  V30 34 1 31 11
M  V30 35 1 32 12
M  V30 36 1 33 12
M  V30 37 1 34 14
M  V30 38 1 35 14
M  V30 39 1 36 16
M  V30 40 1 37 17
M  V30 41 1 38 19
M  V30 42 1 39 20
M  V30 43 1 40 21
M  V30 44 1 41 22
M  V30 45 1 42 24
M  V30 46 1 43 24
M  V30 47 1 44 25
M  V30 48 1 45 25
M  V30 49 1 13 46 CFG=1
M  V30 END BOND
M  V30 END CTAB
M  END
>  <b_m_subgroup_collapsed>  (397) 
0

>  <r_i_docking_score>  (397) 
-8.3908968277320604

>  <s_m_subgroup_title>  (397) 
glide-dock_SP_D22_pv

>  <s_m_subgroupid>  (397) 
glide-dock_SP_D22_pv

>  <Molecule ChEMBL ID>  (397) 
CHEMBL246637

>  <Standard Type>  (397) 
Ki

>  <Standard Value>  (397) 
6.9

>  <label>  (397) 
1

$$$$
CHEMBL5273758
     RDKit          3D

  0  0  0  0  0  0  0  0  0  0999 V3000
M  V30 BEGIN CTAB
M  V30 COUNTS 43 46 0 0 1
M  V30 BEGIN ATOM
M  V30 1 C 8.486081 4.421380 -8.897167 0
M  V30 2 N 8.261273 5.772318 -9.435766 0 CFG=2 CHG=1
M  V30 3 C 8.459529 5.844515 -10.924017 0
M  V30 4 C 9.912530 6.179101 -11.374583 0
M  V30 5 C 10.544816 7.315083 -10.538303 0 CFG=2
M  V30 6 C 12.029485 7.597851 -10.721235 0
M  V30 7 C 12.794019 8.026243 -9.687303 0
M  V30 8 O 14.106354 8.172325 -9.846663 0
M  V30 9 C 12.213421 8.299968 -8.380377 0
M  V30 10 O 12.885728 8.972490 -7.449223 0
M  V30 11 C 11.000873 7.813473 -8.109964 0
M  V30 12 C 10.095839 8.008631 -6.913703 0 CFG=2
M  V30 13 C 10.801841 8.041754 -5.558289 0
M  V30 14 C 11.286025 6.873523 -4.933923 0
M  V30 15 C 11.942825 6.953231 -3.688635 0
M  V30 16 C 12.138350 8.199333 -3.065899 0
M  V30 17 C 11.686381 9.371850 -3.695973 0
M  V30 18 C 11.023823 9.293763 -4.936683 0
M  V30 19 C 8.983641 6.943719 -7.149151 0
M  V30 20 C 8.915016 6.890639 -8.703459 0 CFG=1
M  V30 21 C 10.348186 6.910196 -9.087317 0 CFG=1
M  V30 22 H 9.503498 4.060379 -9.049776 0
M  V30 23 H 7.786981 3.771953 -9.412855 0
M  V30 24 H 8.230440 4.361744 -7.846906 0
M  V30 25 H 8.142766 4.908194 -11.385365 0
M  V30 26 H 7.776898 6.577790 -11.340208 0
M  V30 27 H 10.485733 5.263344 -11.290008 0
M  V30 28 H 9.923241 6.440742 -12.433244 0
M  V30 29 H 10.017358 8.246455 -10.753057 0
M  V30 30 H 12.463024 7.403789 -11.692369 0
M  V30 31 H 14.264745 9.116206 -9.847882 0
M  V30 32 H 13.743608 9.172065 -7.792017 0
M  V30 33 H 9.626526 8.982248 -7.062769 0
M  V30 34 H 11.157428 5.909823 -5.401159 0
M  V30 35 H 12.295955 6.051302 -3.210277 0
M  V30 36 H 12.638699 8.257894 -2.110504 0
M  V30 37 H 11.837008 10.329064 -3.218255 0
M  V30 38 H 10.683292 10.203589 -5.409029 0
M  V30 39 H 9.299222 5.984708 -6.744360 0
M  V30 40 H 8.042568 7.216088 -6.671905 0
M  V30 41 H 8.485843 7.830402 -9.046844 0
M  V30 42 H 10.801309 5.933296 -8.908830 0
M  V30 43 H 7.276901 5.964630 -9.310064 0
M  V30 END ATOM
M  V30 BEGIN BOND
M  V30 1 1 2 1
M  V30 2 1 3 2
M  V30 3 1 4 3
M  V30 4 1 5 4
M  V30 5 1 6 5
M  V30 6 2 7 6
M  V30 7 1 8 7
M  V30 8 1 9 7
M  V30 9 1 10 9
M  V30 10 2 11 9
M  V30 11 1 12 11
M  V30 12 1 13 12
M  V30 13 2 14 13
M  V30 14 1 15 14
M  V30 15 2 16 15
M  V30 16 1 17 16
M  V30 17 1 18 13
M  V30 18 2 18 17
M  V30 19 1 19 12
M  V30 20 1 20 2
M  V30 21 1 20 19
M  V30 22 1 21 5
M  V30 23 1 21 11
M  V30 24 1 21 20
M  V30 25 1 22 1
M  V30 26 1 23 1
M  V30 27 1 24 1
M  V30 28 1 25 3
M  V30 29 1 26 3
M  V30 30 1 27 4
M  V30 31 1 28 4
M  V30 32 1 5 29 CFG=1
M  V30 33 1 30 6
M  V30 34 1 31 8
M  V30 35 1 32 10
M  V30 36 1 12 33 CFG=3
M  V30 37 1 34 14
M  V30 38 1 35 15
M  V30 39 1 36 16
M  V30 40 1 37 17
M  V30 41 1 38 18
M  V30 42 1 39 19
M  V30 43 1 40 19
M  V30 44 1 20 41 CFG=3
M  V30 45 1 21 42 CFG=3
M  V30 46 1 2 43 CFG=3
M  V30 END BOND
M  V30 END CTAB
M  END
>  <b_m_subgroup_collapsed>  (398) 
0

>  <r_i_docking_score>  (398) 
-8.3899423950457095

>  <s_m_subgroup_title>  (398) 
glide-dock_SP_D22_pv

>  <s_m_subgroupid>  (398) 
glide-dock_SP_D22_pv

>  <Molecule ChEMBL ID>  (398) 
CHEMBL5273758

>  <Standard Type>  (398) 
Ki

>  <Standard Value>  (398) 
12.88

>  <label>  (398) 
1

$$$$
CHEMBL69259
     RDKit          3D

  0  0  0  0  0  0  0  0  0  0999 V3000
M  V30 BEGIN CTAB
M  V30 COUNTS 41 43 0 0 1
M  V30 BEGIN ATOM
M  V30 1 C 8.300097 5.170228 -10.749752 0
M  V30 2 N 8.486018 6.172304 -9.679523 0 CFG=2 CHG=1
M  V30 3 C 9.070543 7.450202 -10.172724 0
M  V30 4 C 9.159934 8.522940 -9.045242 0
M  V30 5 C 9.926226 8.010510 -7.805992 0 CFG=2
M  V30 6 C 9.264021 6.680946 -7.364310 0
M  V30 7 C 9.188829 5.633265 -8.491827 0
M  V30 8 O 9.886403 8.972562 -6.732474 0
M  V30 9 C 11.198444 9.337255 -6.237033 0 CFG=1
M  V30 10 C 11.358679 10.864119 -6.114514 0
M  V30 11 C 11.529479 8.641406 -4.895332 0
M  V30 12 C 11.686019 7.239579 -4.818563 0
M  V30 13 C 12.042595 6.613871 -3.609794 0
M  V30 14 C 12.242797 7.368952 -2.446600 0
M  V30 15 C 12.086030 8.760994 -2.492894 0
M  V30 16 C 11.717385 9.384605 -3.698277 0
M  V30 17 C 12.125490 8.972018 -7.392246 0
M  V30 18 C 11.397005 7.935916 -8.161985 0
M  V30 19 O 11.862504 7.372341 -9.142641 0
M  V30 20 H 9.258854 4.831483 -11.144168 0
M  V30 21 H 7.755085 4.303130 -10.374883 0
M  V30 22 H 7.718080 5.592624 -11.569687 0
M  V30 23 H 8.486030 7.847516 -10.999272 0
M  V30 24 H 10.034292 7.245445 -10.631958 0
M  V30 25 H 8.166994 8.846720 -8.736424 0
M  V30 26 H 9.635573 9.419661 -9.444553 0
M  V30 27 H 9.753435 6.239813 -6.502642 0
M  V30 28 H 8.250094 6.899382 -7.024321 0
M  V30 29 H 8.652682 4.754364 -8.131699 0
M  V30 30 H 10.187074 5.295165 -8.773052 0
M  V30 31 H 12.387638 11.084373 -5.846863 0
M  V30 32 H 11.286028 11.398894 -7.046838 0
M  V30 33 H 10.669093 11.311517 -5.399683 0
M  V30 34 H 11.615354 6.624489 -5.698033 0
M  V30 35 H 12.198193 5.550321 -3.581516 0
M  V30 36 H 12.533150 6.879138 -1.530054 0
M  V30 37 H 12.238392 9.354344 -1.602441 0
M  V30 38 H 11.602839 10.455287 -3.659505 0
M  V30 39 H 12.088314 9.771936 -8.118463 0
M  V30 40 H 13.166462 8.788604 -7.151314 0
M  V30 41 H 7.549952 6.446394 -9.387503 0
M  V30 END ATOM
M  V30 BEGIN BOND
M  V30 1 1 2 1
M  V30 2 1 3 2
M  V30 3 1 4 3
M  V30 4 1 5 4
M  V30 5 1 6 5
M  V30 6 1 7 2
M  V30 7 1 7 6
M  V30 8 1 5 8 CFG=1
M  V30 9 1 9 8
M  V30 10 1 9 10 CFG=1
M  V30 11 1 11 9
M  V30 12 2 12 11
M  V30 13 1 13 12
M  V30 14 2 14 13
M  V30 15 1 15 14
M  V30 16 1 16 11
M  V30 17 2 16 15
M  V30 18 1 17 9
M  V30 19 1 18 5
M  V30 20 1 18 17
M  V30 21 2 19 18
M  V30 22 1 20 1
M  V30 23 1 21 1
M  V30 24 1 22 1
M  V30 25 1 23 3
M  V30 26 1 24 3
M  V30 27 1 25 4
M  V30 28 1 26 4
M  V30 29 1 27 6
M  V30 30 1 28 6
M  V30 31 1 29 7
M  V30 32 1 30 7
M  V30 33 1 31 10
M  V30 34 1 32 10
M  V30 35 1 33 10
M  V30 36 1 34 12
M  V30 37 1 35 13
M  V30 38 1 36 14
M  V30 39 1 37 15
M  V30 40 1 38 16
M  V30 41 1 39 17
M  V30 42 1 40 17
M  V30 43 1 2 41 CFG=1
M  V30 END BOND
M  V30 END CTAB
M  END
>  <b_m_subgroup_collapsed>  (399) 
0

>  <r_i_docking_score>  (399) 
-8.38983070518014

>  <s_m_subgroup_title>  (399) 
glide-dock_SP_D22_pv

>  <s_m_subgroupid>  (399) 
glide-dock_SP_D22_pv

>  <Molecule ChEMBL ID>  (399) 
CHEMBL69259

>  <Standard Type>  (399) 
Ki

>  <Standard Value>  (399) 
10000.0

>  <label>  (399) 
0

$$$$
CHEMBL3115579
     RDKit          3D

  0  0  0  0  0  0  0  0  0  0999 V3000
M  V30 BEGIN CTAB
M  V30 COUNTS 53 55 0 0 1
M  V30 BEGIN ATOM
M  V30 1 O 7.919362 -0.227651 -15.983060 0
M  V30 2 C 7.320283 0.655183 -15.131249 0
M  V30 3 C 6.186756 0.271721 -14.387228 0
M  V30 4 C 5.568581 1.198906 -13.527707 0
M  V30 5 C 6.085684 2.504971 -13.399482 0
M  V30 6 C 7.254782 2.877812 -14.105881 0
M  V30 7 C 7.845907 1.956905 -14.993730 0
M  V30 8 O 7.841676 4.112266 -13.935160 0
M  V30 9 C 7.542071 4.794932 -12.717419 0 CFG=1
M  V30 10 C 8.243788 6.161365 -12.781837 0
M  V30 11 N 8.486038 6.754418 -11.446868 0 CHG=1
M  V30 12 C 9.284904 7.993804 -11.493526 0
M  V30 13 C 10.014995 8.225706 -10.186513 0
M  V30 14 C 11.422077 8.172134 -10.127716 0
M  V30 15 C 12.085441 8.465631 -8.920809 0
M  V30 16 C 11.357623 8.806827 -7.762829 0
M  V30 17 O 12.070707 9.171836 -6.647223 0
M  V30 18 C 11.477917 10.112352 -5.759239 0
M  V30 19 C 11.330091 9.494613 -4.365409 0
M  V30 20 C 12.672894 9.242453 -3.663883 0
M  V30 21 C 12.491796 8.718859 -2.234778 0
M  V30 22 F 11.998925 7.480634 -2.247276 0
M  V30 23 C 9.945696 8.773382 -7.806951 0
M  V30 24 C 9.286027 8.519845 -9.018554 0
M  V30 25 C 6.019531 4.895060 -12.557845 0
M  V30 26 C 5.412474 3.492040 -12.460495 0
M  V30 27 H 7.686671 -1.145430 -15.847174 0
M  V30 28 H 5.778917 -0.724333 -14.486023 0
M  V30 29 H 4.690114 0.906335 -12.974590 0
M  V30 30 H 8.725603 2.239975 -15.552457 0
M  V30 31 H 7.968274 4.214500 -11.897182 0
M  V30 32 H 9.213997 6.017962 -13.256945 0
M  V30 33 H 7.687942 6.857216 -13.412024 0
M  V30 34 H 7.599942 7.002898 -10.989324 0
M  V30 35 H 10.017837 7.940266 -12.298941 0
M  V30 36 H 8.630547 8.838778 -11.712671 0
M  V30 37 H 12.003924 7.948891 -11.010208 0
M  V30 38 H 13.167068 8.475299 -8.896479 0
M  V30 39 H 12.135538 10.973345 -5.733774 0
M  V30 40 H 10.519002 10.518620 -6.087066 0
M  V30 41 H 10.722660 10.160542 -3.752606 0
M  V30 42 H 10.783012 8.558369 -4.451257 0
M  V30 43 H 13.285838 8.549585 -4.246478 0
M  V30 44 H 13.239568 10.171010 -3.616451 0
M  V30 45 H 13.440176 8.687622 -1.698058 0
M  V30 46 H 11.808110 9.344576 -1.659367 0
M  V30 47 H 9.343522 8.973057 -6.934782 0
M  V30 48 H 8.210852 8.568902 -9.037181 0
M  V30 49 H 5.746044 5.491380 -11.686076 0
M  V30 50 H 5.606099 5.404152 -13.428345 0
M  V30 51 H 4.343408 3.526857 -12.662224 0
M  V30 52 H 5.535099 3.114334 -11.447200 0
M  V30 53 H 8.969217 6.084825 -10.866068 0
M  V30 END ATOM
M  V30 BEGIN BOND
M  V30 1 1 2 1
M  V30 2 1 3 2
M  V30 3 2 4 3
M  V30 4 1 5 4
M  V30 5 2 6 5
M  V30 6 2 7 2
M  V30 7 1 7 6
M  V30 8 1 8 6
M  V30 9 1 9 8
M  V30 10 1 10 9
M  V30 11 1 11 10
M  V30 12 1 12 11
M  V30 13 1 13 12
M  V30 14 1 14 13
M  V30 15 2 15 14
M  V30 16 1 16 15
M  V30 17 1 17 16
M  V30 18 1 18 17
M  V30 19 1 19 18
M  V30 20 1 20 19
M  V30 21 1 21 20
M  V30 22 1 22 21
M  V30 23 2 23 16
M  V30 24 2 24 13
M  V30 25 1 24 23
M  V30 26 1 25 9
M  V30 27 1 26 5
M  V30 28 1 26 25
M  V30 29 1 27 1
M  V30 30 1 28 3
M  V30 31 1 29 4
M  V30 32 1 30 7
M  V30 33 1 9 31 CFG=1
M  V30 34 1 32 10
M  V30 35 1 33 10
M  V30 36 1 34 11
M  V30 37 1 35 12
M  V30 38 1 36 12
M  V30 39 1 37 14
M  V30 40 1 38 15
M  V30 41 1 39 18
M  V30 42 1 40 18
M  V30 43 1 41 19
M  V30 44 1 42 19
M  V30 45 1 43 20
M  V30 46 1 44 20
M  V30 47 1 45 21
M  V30 48 1 46 21
M  V30 49 1 47 23
M  V30 50 1 48 24
M  V30 51 1 49 25
M  V30 52 1 50 25
M  V30 53 1 51 26
M  V30 54 1 52 26
M  V30 55 1 53 11
M  V30 END BOND
M  V30 END CTAB
M  END
>  <b_m_subgroup_collapsed>  (400) 
0

>  <r_i_docking_score>  (400) 
-8.3893865747023

>  <s_m_subgroup_title>  (400) 
glide-dock_SP_D22_pv

>  <s_m_subgroupid>  (400) 
glide-dock_SP_D22_pv

>  <Molecule ChEMBL ID>  (400) 
CHEMBL3115579

>  <Standard Type>  (400) 
Ki

>  <Standard Value>  (400) 
5.6

>  <label>  (400) 
1

$$$$
CHEMBL391984
     RDKit          3D

  0  0  0  0  0  0  0  0  0  0999 V3000
M  V30 BEGIN CTAB
M  V30 COUNTS 51 54 0 0 1
M  V30 BEGIN ATOM
M  V30 1 C 6.540187 0.514699 -14.767031 0
M  V30 2 C 7.311483 1.798044 -14.636849 0
M  V30 3 N 8.464734 1.952411 -15.280581 0
M  V30 4 O 8.967547 3.221586 -14.934911 0
M  V30 5 C 8.086214 3.792159 -14.077795 0
M  V30 6 C 7.027061 2.971996 -13.890125 0
M  V30 7 C 5.912155 3.338486 -13.000628 0
M  V30 8 O 5.016804 2.574487 -12.646966 0
M  V30 9 C 5.948306 4.804015 -12.526088 0
M  V30 10 C 7.386813 5.363036 -12.275302 0 CFG=1
M  V30 11 C 8.011361 4.751850 -10.994342 0
M  V30 12 N 8.455848 5.772314 -10.010469 0 CFG=2 CHG=1
M  V30 13 C 9.694025 6.458750 -10.438262 0
M  V30 14 C 10.077908 7.572902 -9.464257 0
M  V30 15 C 10.201677 7.089530 -7.992585 0 CFG=1
M  V30 16 C 10.365757 8.299595 -7.056133 0
M  V30 17 O 9.933688 9.372316 -7.446838 0
M  V30 18 C 11.002836 8.174947 -5.715847 0
M  V30 19 C 11.286005 6.928399 -5.117286 0
M  V30 20 C 11.821566 6.869895 -3.814763 0
M  V30 21 C 12.085950 8.052690 -3.101765 0
M  V30 22 F 12.565854 7.993802 -1.840424 0
M  V30 23 C 11.825632 9.299458 -3.693021 0
M  V30 24 C 11.286054 9.359819 -4.991411 0
M  V30 25 C 8.931422 6.305251 -7.619088 0
M  V30 26 C 8.605479 5.209661 -8.643600 0
M  V30 27 C 8.330715 5.135687 -13.489209 0
M  V30 28 H 6.004164 0.281004 -13.846773 0
M  V30 29 H 5.809740 0.572435 -15.574159 0
M  V30 30 H 7.202013 -0.326331 -14.980195 0
M  V30 31 H 5.343625 4.902274 -11.623717 0
M  V30 32 H 5.455255 5.405074 -13.290276 0
M  V30 33 H 7.286285 6.439644 -12.127355 0
M  V30 34 H 8.857298 4.109823 -11.240363 0
M  V30 35 H 7.286021 4.086913 -10.529279 0
M  V30 36 H 9.567642 6.886590 -11.432897 0
M  V30 37 H 10.486012 5.722546 -10.504377 0
M  V30 38 H 9.310770 8.344307 -9.559464 0
M  V30 39 H 11.014062 8.032269 -9.785403 0
M  V30 40 H 11.074798 6.443246 -7.901413 0
M  V30 41 H 11.087505 6.003160 -5.634256 0
M  V30 42 H 12.020641 5.912642 -3.355482 0
M  V30 43 H 12.024006 10.204934 -3.138880 0
M  V30 44 H 11.077558 10.330832 -5.418602 0
M  V30 45 H 9.040493 5.851359 -6.638163 0
M  V30 46 H 8.086077 6.987844 -7.532888 0
M  V30 47 H 7.686378 4.716807 -8.332305 0
M  V30 48 H 9.386048 4.446780 -8.645847 0
M  V30 49 H 8.124235 5.887473 -14.246893 0
M  V30 50 H 9.380684 5.254708 -13.221096 0
M  V30 51 H 7.717351 6.473905 -9.958238 0
M  V30 END ATOM
M  V30 BEGIN BOND
M  V30 1 1 2 1
M  V30 2 2 3 2
M  V30 3 1 4 3
M  V30 4 1 5 4
M  V30 5 1 6 2
M  V30 6 2 6 5
M  V30 7 1 7 6
M  V30 8 2 8 7
M  V30 9 1 9 7
M  V30 10 1 10 9
M  V30 11 1 11 10
M  V30 12 1 12 11
M  V30 13 1 13 12
M  V30 14 1 14 13
M  V30 15 1 15 14
M  V30 16 1 16 15
M  V30 17 2 17 16
M  V30 18 1 18 16
M  V30 19 1 19 18
M  V30 20 2 20 19
M  V30 21 1 21 20
M  V30 22 1 22 21
M  V30 23 2 23 21
M  V30 24 2 24 18
M  V30 25 1 24 23
M  V30 26 1 25 15
M  V30 27 1 26 12
M  V30 28 1 26 25
M  V30 29 1 27 5
M  V30 30 1 27 10
M  V30 31 1 28 1
M  V30 32 1 29 1
M  V30 33 1 30 1
M  V30 34 1 31 9
M  V30 35 1 32 9
M  V30 36 1 10 33 CFG=1
M  V30 37 1 34 11
M  V30 38 1 35 11
M  V30 39 1 36 13
M  V30 40 1 37 13
M  V30 41 1 38 14
M  V30 42 1 39 14
M  V30 43 1 15 40 CFG=3
M  V30 44 1 41 19
M  V30 45 1 42 20
M  V30 46 1 43 23
M  V30 47 1 44 24
M  V30 48 1 45 25
M  V30 49 1 46 25
M  V30 50 1 47 26
M  V30 51 1 48 26
M  V30 52 1 49 27
M  V30 53 1 50 27
M  V30 54 1 12 51 CFG=1
M  V30 END BOND
M  V30 END CTAB
M  END
>  <b_m_subgroup_collapsed>  (401) 
0

>  <r_i_docking_score>  (401) 
-8.3885686093743193

>  <s_m_subgroup_title>  (401) 
glide-dock_SP_D22_pv

>  <s_m_subgroupid>  (401) 
glide-dock_SP_D22_pv

>  <Molecule ChEMBL ID>  (401) 
CHEMBL391984

>  <Standard Type>  (401) 
Ki

>  <Standard Value>  (401) 
10000.0

>  <label>  (401) 
0

$$$$
CHEMBL247058
     RDKit          3D

  0  0  0  0  0  0  0  0  0  0999 V3000
M  V30 BEGIN CTAB
M  V30 COUNTS 54 57 0 0 1
M  V30 BEGIN ATOM
M  V30 1 C 12.475411 6.285656 -1.830737 0
M  V30 2 O 12.485962 6.172315 -3.211884 0
M  V30 3 C 11.971702 7.199685 -3.930715 0
M  V30 4 C 12.086681 8.566684 -3.593249 0
M  V30 5 C 11.596667 9.524929 -4.491607 0
M  V30 6 C 11.003698 9.100976 -5.689617 0
M  V30 7 N 10.486121 9.772314 -6.753845 0
M  V30 8 C 9.893837 8.911318 -7.661736 0
M  V30 9 C 10.140162 7.620454 -7.266945 0
M  V30 10 C 9.778358 6.308665 -7.911578 0
M  V30 11 N 9.157182 6.421173 -9.250118 0 CFG=2 CHG=1
M  V30 12 C 8.652238 5.119946 -9.746774 0
M  V30 13 C 7.752151 5.326597 -10.972810 0
M  V30 14 C 8.360763 6.231233 -12.071986 0 CFG=2
M  V30 15 O 7.241096 6.863939 -12.649592 0
M  V30 16 C 9.118762 5.369248 -13.095497 0
M  V30 17 C 8.400685 4.400496 -13.835120 0
M  V30 18 C 9.057734 3.536795 -14.730448 0
M  V30 19 C 10.447142 3.647262 -14.918727 0
M  V30 20 S 11.285088 2.571892 -16.036278 0
M  V30 21 C 10.676594 0.904114 -15.662012 0
M  V30 22 C 11.173822 4.626317 -14.217067 0
M  V30 23 C 10.515093 5.477773 -13.308555 0
M  V30 24 C 9.167311 7.423077 -11.483191 0
M  V30 25 C 10.029293 7.030091 -10.283420 0
M  V30 26 C 10.831751 7.736413 -6.020939 0
M  V30 27 C 11.340918 6.808495 -5.114459 0
M  V30 28 H 13.082161 5.475618 -1.427914 0
M  V30 29 H 12.885595 7.218064 -1.449986 0
M  V30 30 H 11.458308 6.167426 -1.451675 0
M  V30 31 H 12.574627 8.902229 -2.691151 0
M  V30 32 H 11.680502 10.572369 -4.266940 0
M  V30 33 H 10.464405 10.776732 -6.853008 0
M  V30 34 H 9.372898 9.300493 -8.525985 0
M  V30 35 H 9.085841 5.782179 -7.253119 0
M  V30 36 H 10.663640 5.675375 -7.987042 0
M  V30 37 H 8.087356 4.610798 -8.965569 0
M  V30 38 H 9.489193 4.465735 -9.998029 0
M  V30 39 H 6.822969 5.772258 -10.644200 0
M  V30 40 H 7.440328 4.358377 -11.363832 0
M  V30 41 H 6.792152 7.341661 -11.954937 0
M  V30 42 H 7.332211 4.305846 -13.704738 0
M  V30 43 H 8.488657 2.799398 -15.275576 0
M  V30 44 H 11.234438 0.168787 -16.240189 0
M  V30 45 H 10.805681 0.682230 -14.601892 0
M  V30 46 H 9.620238 0.807937 -15.912711 0
M  V30 47 H 12.240337 4.719873 -14.366991 0
M  V30 48 H 11.111553 6.208275 -12.787192 0
M  V30 49 H 9.750946 7.931226 -12.250843 0
M  V30 50 H 8.488442 8.189401 -11.103582 0
M  V30 51 H 10.550147 7.915807 -9.928610 0
M  V30 52 H 10.813529 6.330721 -10.561117 0
M  V30 53 H 11.260420 5.768965 -5.346470 0
M  V30 54 H 8.339378 7.012834 -9.139562 0
M  V30 END ATOM
M  V30 BEGIN BOND
M  V30 1 1 2 1
M  V30 2 1 3 2
M  V30 3 1 4 3
M  V30 4 2 5 4
M  V30 5 1 6 5
M  V30 6 1 7 6
M  V30 7 1 8 7
M  V30 8 2 9 8
M  V30 9 1 10 9
M  V30 10 1 11 10
M  V30 11 1 12 11
M  V30 12 1 13 12
M  V30 13 1 14 13
M  V30 14 1 14 15 CFG=3
M  V30 15 1 16 14
M  V30 16 1 17 16
M  V30 17 2 18 17
M  V30 18 1 19 18
M  V30 19 1 20 19
M  V30 20 1 21 20
M  V30 21 2 22 19
M  V30 22 2 23 16
M  V30 23 1 23 22
M  V30 24 1 24 14
M  V30 25 1 25 11
M  V30 26 1 25 24
M  V30 27 2 26 6
M  V30 28 1 26 9
M  V30 29 2 27 3
M  V30 30 1 27 26
M  V30 31 1 28 1
M  V30 32 1 29 1
M  V30 33 1 30 1
M  V30 34 1 31 4
M  V30 35 1 32 5
M  V30 36 1 33 7
M  V30 37 1 34 8
M  V30 38 1 35 10
M  V30 39 1 36 10
M  V30 40 1 37 12
M  V30 41 1 38 12
M  V30 42 1 39 13
M  V30 43 1 40 13
M  V30 44 1 41 15
M  V30 45 1 42 17
M  V30 46 1 43 18
M  V30 47 1 44 21
M  V30 48 1 45 21
M  V30 49 1 46 21
M  V30 50 1 47 22
M  V30 51 1 48 23
M  V30 52 1 49 24
M  V30 53 1 50 24
M  V30 54 1 51 25
M  V30 55 1 52 25
M  V30 56 1 53 27
M  V30 57 1 11 54 CFG=1
M  V30 END BOND
M  V30 END CTAB
M  END
>  <b_m_subgroup_collapsed>  (402) 
0

>  <r_i_docking_score>  (402) 
-8.3876841893119796

>  <s_m_subgroup_title>  (402) 
glide-dock_SP_D22_pv

>  <s_m_subgroupid>  (402) 
glide-dock_SP_D22_pv

>  <Molecule ChEMBL ID>  (402) 
CHEMBL247058

>  <Standard Type>  (402) 
Ki

>  <Standard Value>  (402) 
5.5

>  <label>  (402) 
1

$$$$
CHEMBL1258495
     RDKit          3D

  0  0  0  0  0  0  0  0  0  0999 V3000
M  V30 BEGIN CTAB
M  V30 COUNTS 65 67 0 0 1
M  V30 BEGIN ATOM
M  V30 1 C 8.070770 -0.227239 -17.352688 0
M  V30 2 C 6.843476 -0.227577 -16.464903 0
M  V30 3 C 5.728189 -1.021258 -16.796391 0
M  V30 4 C 4.596519 -1.028220 -15.963243 0
M  V30 5 C 4.556685 -0.227678 -14.802257 0
M  V30 6 C 3.259303 -0.187237 -14.012583 0
M  V30 7 C 5.683661 0.572253 -14.455848 0
M  V30 8 C 5.684175 1.460445 -13.241163 0
M  V30 9 O 5.286033 1.047259 -12.154220 0
M  V30 10 N 6.124588 2.714312 -13.447155 0
M  V30 11 C 6.313531 3.744431 -12.425664 0
M  V30 12 C 7.648612 4.484565 -12.648313 0
M  V30 13 C 7.955659 5.581263 -11.608130 0
M  V30 14 C 8.465919 5.043008 -10.257486 0
M  V30 15 N 8.816179 6.121379 -9.285891 0 CHG=1
M  V30 16 C 8.619426 5.675745 -7.884147 0
M  V30 17 C 8.977912 6.760911 -6.852663 0
M  V30 18 N 10.329951 7.256298 -7.072108 0
M  V30 19 C 11.073623 7.682653 -5.939425 0
M  V30 20 C 11.243934 6.765756 -4.868136 0
M  V30 21 C 11.913932 7.122925 -3.677801 0
M  V30 22 C 12.064449 6.172338 -2.523290 0
M  V30 23 C 12.486027 8.385118 -3.555839 0
M  V30 24 C 12.413296 9.264796 -4.629875 0
M  V30 25 C 11.668139 8.971848 -5.786100 0
M  V30 26 C 11.495150 10.119820 -6.751963 0
M  V30 27 C 10.609518 7.694673 -8.437083 0
M  V30 28 C 10.195233 6.640646 -9.486368 0
M  V30 29 C 6.823314 0.552811 -15.292655 0
M  V30 30 H 8.979145 -0.196352 -16.750235 0
M  V30 31 H 8.108359 -1.126690 -17.967304 0
M  V30 32 H 8.062180 0.641575 -18.011095 0
M  V30 33 H 5.737819 -1.633189 -17.686625 0
M  V30 34 H 3.747137 -1.639171 -16.237036 0
M  V30 35 H 3.363311 -0.674273 -13.046941 0
M  V30 36 H 2.939480 0.841837 -13.846764 0
M  V30 37 H 2.456248 -0.686689 -14.553457 0
M  V30 38 H 6.388278 2.954626 -14.391159 0
M  V30 39 H 5.480072 4.445906 -12.479865 0
M  V30 40 H 6.287985 3.311224 -11.426085 0
M  V30 41 H 8.474247 3.772804 -12.678295 0
M  V30 42 H 7.619183 4.948639 -13.635283 0
M  V30 43 H 8.698746 6.257661 -12.030456 0
M  V30 44 H 7.055530 6.172374 -11.450262 0
M  V30 45 H 7.685986 4.405919 -9.842605 0
M  V30 46 H 9.325671 4.388223 -10.409322 0
M  V30 47 H 7.587337 5.372538 -7.733433 0
M  V30 48 H 9.245957 4.798079 -7.729435 0
M  V30 49 H 8.277508 7.595115 -6.924192 0
M  V30 50 H 8.876088 6.352797 -5.848936 0
M  V30 51 H 10.834826 5.772370 -4.942959 0
M  V30 52 H 12.487042 6.671007 -1.652549 0
M  V30 53 H 11.095123 5.772351 -2.239293 0
M  V30 54 H 12.745549 5.372366 -2.800907 0
M  V30 55 H 13.030045 8.668002 -2.665736 0
M  V30 56 H 12.958671 10.172313 -4.536865 0
M  V30 57 H 12.171411 10.942192 -6.517009 0
M  V30 58 H 11.686041 9.838175 -7.779283 0
M  V30 59 H 10.486068 10.503331 -6.646852 0
M  V30 60 H 10.067392 8.621505 -8.629541 0
M  V30 61 H 11.676590 7.886679 -8.553794 0
M  V30 62 H 10.885998 5.801556 -9.420348 0
M  V30 63 H 10.299000 7.057862 -10.488325 0
M  V30 64 H 7.691774 1.145543 -15.042026 0
M  V30 65 H 8.155850 6.879865 -9.435586 0
M  V30 END ATOM
M  V30 BEGIN BOND
M  V30 1 1 2 1
M  V30 2 1 3 2
M  V30 3 2 4 3
M  V30 4 1 5 4
M  V30 5 1 6 5
M  V30 6 2 7 5
M  V30 7 1 8 7
M  V30 8 2 9 8
M  V30 9 1 10 8
M  V30 10 1 11 10
M  V30 11 1 12 11
M  V30 12 1 13 12
M  V30 13 1 14 13
M  V30 14 1 15 14
M  V30 15 1 16 15
M  V30 16 1 17 16
M  V30 17 1 18 17
M  V30 18 1 19 18
M  V30 19 1 20 19
M  V30 20 2 21 20
M  V30 21 1 22 21
M  V30 22 1 23 21
M  V30 23 2 24 23
M  V30 24 2 25 19
M  V30 25 1 25 24
M  V30 26 1 26 25
M  V30 27 1 27 18
M  V30 28 1 28 15
M  V30 29 1 28 27
M  V30 30 2 29 2
M  V30 31 1 29 7
M  V30 32 1 30 1
M  V30 33 1 31 1
M  V30 34 1 32 1
M  V30 35 1 33 3
M  V30 36 1 34 4
M  V30 37 1 35 6
M  V30 38 1 36 6
M  V30 39 1 37 6
M  V30 40 1 38 10
M  V30 41 1 39 11
M  V30 42 1 40 11
M  V30 43 1 41 12
M  V30 44 1 42 12
M  V30 45 1 43 13
M  V30 46 1 44 13
M  V30 47 1 45 14
M  V30 48 1 46 14
M  V30 49 1 47 16
M  V30 50 1 48 16
M  V30 51 1 49 17
M  V30 52 1 50 17
M  V30 53 1 51 20
M  V30 54 1 52 22
M  V30 55 1 53 22
M  V30 56 1 54 22
M  V30 57 1 55 23
M  V30 58 1 56 24
M  V30 59 1 57 26
M  V30 60 1 58 26
M  V30 61 1 59 26
M  V30 62 1 60 27
M  V30 63 1 61 27
M  V30 64 1 62 28
M  V30 65 1 63 28
M  V30 66 1 64 29
M  V30 67 1 65 15
M  V30 END BOND
M  V30 END CTAB
M  END
>  <b_m_subgroup_collapsed>  (403) 
0

>  <r_i_docking_score>  (403) 
-8.3874129235608699

>  <s_m_subgroup_title>  (403) 
glide-dock_SP_D22_pv

>  <s_m_subgroupid>  (403) 
glide-dock_SP_D22_pv

>  <Molecule ChEMBL ID>  (403) 
CHEMBL1258495

>  <Standard Type>  (403) 
Ki

>  <Standard Value>  (403) 
86.0

>  <label>  (403) 
1

$$$$
CHEMBL2159466
     RDKit          3D

  0  0  0  0  0  0  0  0  0  0999 V3000
M  V30 BEGIN CTAB
M  V30 COUNTS 60 63 0 0 1
M  V30 BEGIN ATOM
M  V30 1 O 12.328734 9.373273 -7.028257 0
M  V30 2 S 11.266988 9.613044 -6.040318 0
M  V30 3 O 10.889664 10.963323 -5.597952 0
M  V30 4 N 9.847001 8.840908 -6.647196 0
M  V30 5 C 9.896594 7.765569 -7.643494 0 CFG=1
M  V30 6 C 8.933447 6.632644 -7.259328 0
M  V30 7 C 8.831556 5.567134 -8.374057 0
M  V30 8 N 8.486080 6.172740 -9.689310 0 CFG=2 CHG=1
M  V30 9 C 8.267047 5.168903 -10.762746 0
M  V30 10 C 7.387889 5.708392 -11.914360 0
M  V30 11 O 7.762371 5.091482 -13.140359 0
M  V30 12 C 7.326178 3.817373 -13.436893 0
M  V30 13 C 6.082335 3.302791 -12.992717 0
M  V30 14 C 5.676831 2.008508 -13.366141 0
M  V30 15 C 6.490124 1.224024 -14.201777 0
M  V30 16 C 7.721791 1.731777 -14.649489 0
M  V30 17 C 8.154602 3.021976 -14.269744 0
M  V30 18 C 9.464217 3.510098 -14.741412 0
M  V30 19 C 9.741564 3.624486 -16.121796 0
M  V30 20 C 10.994590 4.092091 -16.568735 0
M  V30 21 C 11.988076 4.451692 -15.639546 0
M  V30 22 C 11.727230 4.337494 -14.261180 0
M  V30 23 C 10.477259 3.860904 -13.822711 0
M  V30 24 C 9.477200 7.216644 -10.073295 0
M  V30 25 C 9.543728 8.334094 -9.022314 0
M  V30 26 C 11.683868 8.681652 -4.593464 0
M  V30 27 C 11.686009 7.288165 -4.718029 0
M  V30 28 C 12.085518 6.516688 -3.633332 0
M  V30 29 C 12.458981 7.112157 -2.430009 0
M  V30 30 F 12.886010 6.303907 -1.446764 0
M  V30 31 C 12.406569 8.511503 -2.269810 0
M  V30 32 F 12.729341 9.073546 -1.075268 0
M  V30 33 C 12.014136 9.308434 -3.368832 0
M  V30 34 H 9.003287 8.917739 -6.079464 0
M  V30 35 H 10.907064 7.361087 -7.695362 0
M  V30 36 H 9.255838 6.171890 -6.326501 0
M  V30 37 H 7.950991 7.046809 -7.045115 0
M  V30 38 H 8.083982 4.825624 -8.096035 0
M  V30 39 H 9.779387 5.031847 -8.463375 0
M  V30 40 H 7.791668 4.271150 -10.360322 0
M  V30 41 H 9.242760 4.857161 -11.138556 0
M  V30 42 H 7.567933 6.768241 -12.077031 0
M  V30 43 H 6.325986 5.641709 -11.680997 0
M  V30 44 H 5.413414 3.883550 -12.377791 0
M  V30 45 H 4.725862 1.626971 -13.029258 0
M  V30 46 H 6.170823 0.235711 -14.500478 0
M  V30 47 H 8.346741 1.118880 -15.281507 0
M  V30 48 H 8.987626 3.353252 -16.844891 0
M  V30 49 H 11.192094 4.177001 -17.628231 0
M  V30 50 H 12.949471 4.809331 -15.979791 0
M  V30 51 H 12.489346 4.603793 -13.542439 0
M  V30 52 H 10.296840 3.757507 -12.764272 0
M  V30 53 H 10.461295 6.759388 -10.198073 0
M  V30 54 H 9.221933 7.667946 -11.032280 0
M  V30 55 H 10.287006 9.075174 -9.317904 0
M  V30 56 H 8.588594 8.857256 -8.984539 0
M  V30 57 H 11.448731 6.800686 -5.647569 0
M  V30 58 H 12.140419 5.448107 -3.735075 0
M  V30 59 H 11.980399 10.381937 -3.265339 0
M  V30 60 H 7.597341 6.671555 -9.583533 0
M  V30 END ATOM
M  V30 BEGIN BOND
M  V30 1 2 2 1
M  V30 2 2 3 2
M  V30 3 1 4 2
M  V30 4 1 5 4
M  V30 5 1 6 5
M  V30 6 1 7 6
M  V30 7 1 8 7
M  V30 8 1 9 8
M  V30 9 1 10 9
M  V30 10 1 11 10
M  V30 11 1 12 11
M  V30 12 2 13 12
M  V30 13 1 14 13
M  V30 14 2 15 14
M  V30 15 1 16 15
M  V30 16 1 17 12
M  V30 17 2 17 16
M  V30 18 1 18 17
M  V30 19 2 19 18
M  V30 20 1 20 19
M  V30 21 2 21 20
M  V30 22 1 22 21
M  V30 23 1 23 18
M  V30 24 2 23 22
M  V30 25 1 24 8
M  V30 26 1 25 5
M  V30 27 1 25 24
M  V30 28 1 26 2
M  V30 29 1 27 26
M  V30 30 2 28 27
M  V30 31 1 29 28
M  V30 32 1 30 29
M  V30 33 2 31 29
M  V30 34 1 32 31
M  V30 35 2 33 26
M  V30 36 1 33 31
M  V30 37 1 34 4
M  V30 38 1 5 35 CFG=3
M  V30 39 1 36 6
M  V30 40 1 37 6
M  V30 41 1 38 7
M  V30 42 1 39 7
M  V30 43 1 40 9
M  V30 44 1 41 9
M  V30 45 1 42 10
M  V30 46 1 43 10
M  V30 47 1 44 13
M  V30 48 1 45 14
M  V30 49 1 46 15
M  V30 50 1 47 16
M  V30 51 1 48 19
M  V30 52 1 49 20
M  V30 53 1 50 21
M  V30 54 1 51 22
M  V30 55 1 52 23
M  V30 56 1 53 24
M  V30 57 1 54 24
M  V30 58 1 55 25
M  V30 59 1 56 25
M  V30 60 1 57 27
M  V30 61 1 58 28
M  V30 62 1 59 33
M  V30 63 1 8 60 CFG=1
M  V30 END BOND
M  V30 END CTAB
M  END
>  <b_m_subgroup_collapsed>  (404) 
0

>  <r_i_docking_score>  (404) 
-8.3833812397210199

>  <s_m_subgroup_title>  (404) 
glide-dock_SP_D22_pv

>  <s_m_subgroupid>  (404) 
glide-dock_SP_D22_pv

>  <Molecule ChEMBL ID>  (404) 
CHEMBL2159466

>  <Standard Type>  (404) 
Ki

>  <Standard Value>  (404) 
63.0

>  <label>  (404) 
1

$$$$
CHEMBL4241050
     RDKit          3D

  0  0  0  0  0  0  0  0  0  0999 V3000
M  V30 BEGIN CTAB
M  V30 COUNTS 66 71 0 0 1
M  V30 BEGIN ATOM
M  V30 1 O 12.117024 3.772392 -14.249827 0
M  V30 2 S 11.035495 4.668997 -14.670931 0
M  V30 3 O 11.286325 6.117240 -14.686871 0
M  V30 4 C 10.418301 4.156964 -16.305080 0
M  V30 5 C 10.009249 5.203293 -17.154943 0
M  V30 6 C 9.452173 4.937678 -18.413300 0
M  V30 7 C 9.287092 3.610402 -18.831097 0
M  V30 8 C 9.699758 2.534279 -18.021742 0
M  V30 9 N 9.498814 1.279113 -18.482300 0
M  V30 10 C 9.898753 0.234674 -17.736311 0
M  V30 11 C 10.554996 0.391495 -16.507891 0
M  V30 12 C 10.788818 1.690979 -16.030304 0
M  V30 13 C 10.311256 2.806994 -16.758364 0
M  V30 14 N 9.699746 4.394262 -13.585168 0
M  V30 15 C 9.286514 3.034579 -13.282141 0
M  V30 16 C 7.887344 2.932542 -13.888978 0
M  V30 17 C 7.292377 4.291533 -13.556232 0
M  V30 18 C 8.499265 5.251056 -13.594517 0 CFG=1
M  V30 19 C 8.537987 6.272943 -12.426664 0
M  V30 20 C 8.561253 5.650838 -10.997903 0
M  V30 21 N 8.886043 6.608034 -9.904951 0 CFG=2 CHG=1
M  V30 22 C 10.303307 7.061335 -9.964985 0
M  V30 23 C 10.674929 8.042265 -8.843162 0
M  V30 24 C 10.367122 7.451123 -7.455740 0 CFG=1
M  V30 25 C 10.756250 8.386561 -6.335380 0
M  V30 26 N 10.525970 9.692949 -6.435468 0
M  V30 27 O 10.976168 10.310785 -5.237385 0
M  V30 28 C 11.468225 9.343754 -4.382213 0
M  V30 29 C 11.999846 9.430668 -3.089741 0
M  V30 30 C 12.372798 8.230019 -2.455138 0
M  V30 31 F 12.885977 8.269005 -1.207731 0
M  V30 32 C 12.206553 6.987127 -3.113465 0
M  V30 33 C 11.685868 6.931479 -4.426997 0
M  V30 34 C 11.313930 8.135022 -5.063187 0
M  V30 35 C 8.887152 7.045317 -7.420314 0
M  V30 36 C 8.578677 6.049645 -8.558467 0
M  V30 37 H 10.111536 6.225783 -16.842438 0
M  V30 38 H 9.135226 5.751190 -19.048866 0
M  V30 39 H 8.843908 3.410564 -19.794821 0
M  V30 40 H 9.708293 -0.751358 -18.135098 0
M  V30 41 H 10.884781 -0.467228 -15.944151 0
M  V30 42 H 11.339008 1.779126 -15.112145 0
M  V30 43 H 9.974448 2.276749 -13.625454 0
M  V30 44 H 9.286399 2.971697 -12.199159 0
M  V30 45 H 7.959835 2.807984 -14.970448 0
M  V30 46 H 7.288861 2.104131 -13.509542 0
M  V30 47 H 6.499688 4.571999 -14.246929 0
M  V30 48 H 6.837816 4.244219 -12.569210 0
M  V30 49 H 8.485423 5.772943 -14.549455 0
M  V30 50 H 9.409673 6.898114 -12.595859 0
M  V30 51 H 7.682370 6.944558 -12.505075 0
M  V30 52 H 7.584079 5.220558 -10.782541 0
M  V30 53 H 9.274549 4.831041 -10.944836 0
M  V30 54 H 10.918932 6.172016 -9.871670 0
M  V30 55 H 10.542013 7.526875 -10.919341 0
M  V30 56 H 11.734722 8.295099 -8.914597 0
M  V30 57 H 10.123816 8.972826 -8.993083 0
M  V30 58 H 10.964090 6.544487 -7.346737 0
M  V30 59 H 12.092568 10.384688 -2.592372 0
M  V30 60 H 12.486423 6.072631 -2.608061 0
M  V30 61 H 11.567102 5.980503 -4.927530 0
M  V30 62 H 8.654511 6.580927 -6.461641 0
M  V30 63 H 8.253069 7.929066 -7.493944 0
M  V30 64 H 7.533693 5.772239 -8.505962 0
M  V30 65 H 9.145910 5.129565 -8.407868 0
M  V30 66 H 8.251040 7.394204 -10.027828 0
M  V30 END ATOM
M  V30 BEGIN BOND
M  V30 1 2 2 1
M  V30 2 2 3 2
M  V30 3 1 4 2
M  V30 4 1 5 4
M  V30 5 2 6 5
M  V30 6 1 7 6
M  V30 7 2 8 7
M  V30 8 1 9 8
M  V30 9 2 10 9
M  V30 10 1 11 10
M  V30 11 2 12 11
M  V30 12 2 13 4
M  V30 13 1 13 8
M  V30 14 1 13 12
M  V30 15 1 14 2
M  V30 16 1 15 14
M  V30 17 1 16 15
M  V30 18 1 17 16
M  V30 19 1 18 14
M  V30 20 1 18 17
M  V30 21 1 19 18
M  V30 22 1 20 19
M  V30 23 1 21 20
M  V30 24 1 22 21
M  V30 25 1 23 22
M  V30 26 1 24 23
M  V30 27 1 25 24
M  V30 28 2 26 25
M  V30 29 1 27 26
M  V30 30 1 28 27
M  V30 31 1 29 28
M  V30 32 2 30 29
M  V30 33 1 31 30
M  V30 34 1 32 30
M  V30 35 2 33 32
M  V30 36 1 34 25
M  V30 37 2 34 28
M  V30 38 1 34 33
M  V30 39 1 35 24
M  V30 40 1 36 21
M  V30 41 1 36 35
M  V30 42 1 37 5
M  V30 43 1 38 6
M  V30 44 1 39 7
M  V30 45 1 40 10
M  V30 46 1 41 11
M  V30 47 1 42 12
M  V30 48 1 43 15
M  V30 49 1 44 15
M  V30 50 1 45 16
M  V30 51 1 46 16
M  V30 52 1 47 17
M  V30 53 1 48 17
M  V30 54 1 18 49 CFG=3
M  V30 55 1 50 19
M  V30 56 1 51 19
M  V30 57 1 52 20
M  V30 58 1 53 20
M  V30 59 1 54 22
M  V30 60 1 55 22
M  V30 61 1 56 23
M  V30 62 1 57 23
M  V30 63 1 24 58 CFG=1
M  V30 64 1 59 29
M  V30 65 1 60 32
M  V30 66 1 61 33
M  V30 67 1 62 35
M  V30 68 1 63 35
M  V30 69 1 64 36
M  V30 70 1 65 36
M  V30 71 1 21 66 CFG=3
M  V30 END BOND
M  V30 END CTAB
M  END
>  <b_m_subgroup_collapsed>  (405) 
0

>  <r_i_docking_score>  (405) 
-8.3833177039189195

>  <s_m_subgroup_title>  (405) 
glide-dock_SP_D22_pv

>  <s_m_subgroupid>  (405) 
glide-dock_SP_D22_pv

>  <Molecule ChEMBL ID>  (405) 
CHEMBL4241050

>  <Standard Type>  (405) 
Ki

>  <Standard Value>  (405) 
1.7

>  <label>  (405) 
1

$$$$
CHEMBL553327
     RDKit          3D

  0  0  0  0  0  0  0  0  0  0999 V3000
M  V30 BEGIN CTAB
M  V30 COUNTS 54 57 0 0 1
M  V30 BEGIN ATOM
M  V30 1 O 10.011487 4.715463 -13.284297 0
M  V30 2 C 8.812976 4.828187 -13.028095 0
M  V30 3 C 8.327351 6.103765 -12.327648 0
M  V30 4 C 9.334711 6.731053 -11.348440 0
M  V30 5 C 9.473620 5.976391 -9.997373 0
M  V30 6 N 10.027627 6.736456 -8.821793 0 CFG=1 CHG=1
M  V30 7 C 11.201413 7.615889 -9.001800 0 CFG=1
M  V30 8 C 10.610358 8.947695 -9.509625 0
M  V30 9 C 9.176227 8.956273 -8.931135 0
M  V30 10 C 9.076650 7.636159 -8.153942 0 CFG=2
M  V30 11 C 9.504732 7.823674 -6.672398 0
M  V30 12 C 10.947536 8.390571 -6.489815 0 CFG=1
M  V30 13 O 10.891246 9.774556 -6.731631 0
M  V30 14 C 11.456326 8.202794 -5.047567 0
M  V30 15 C 11.676512 6.914605 -4.510130 0
M  V30 16 C 12.085873 6.755171 -3.170803 0
M  V30 17 C 12.311201 7.877099 -2.354808 0
M  V30 18 C 12.108473 9.163333 -2.872183 0
M  V30 19 C 11.683819 9.322697 -4.200463 0
M  V30 20 C 11.878122 7.782668 -7.598161 0
M  V30 21 C 7.805895 3.787095 -13.389854 0
M  V30 22 C 8.198526 2.728853 -14.246367 0
M  V30 23 C 7.339908 1.636825 -14.477688 0
M  V30 24 C 6.083744 1.588606 -13.848510 0
M  V30 25 F 5.272654 0.518536 -14.028967 0
M  V30 26 C 5.655609 2.665592 -13.050021 0
M  V30 27 C 6.501581 3.768924 -12.828716 0
M  V30 28 H 7.403869 5.954363 -11.778963 0
M  V30 29 H 8.092308 6.823878 -13.108903 0
M  V30 30 H 8.926726 7.722662 -11.210460 0
M  V30 31 H 10.311736 6.865336 -11.817123 0
M  V30 32 H 10.086756 5.093048 -10.155927 0
M  V30 33 H 8.498362 5.586109 -9.706281 0
M  V30 34 H 11.911726 7.195983 -9.715862 0
M  V30 35 H 11.207314 9.812214 -9.218790 0
M  V30 36 H 10.595685 8.972019 -10.596380 0
M  V30 37 H 8.959186 9.772388 -8.256212 0
M  V30 38 H 8.433866 9.043436 -9.717973 0
M  V30 39 H 8.086430 7.205109 -8.171657 0
M  V30 40 H 9.423593 6.853059 -6.179994 0
M  V30 41 H 8.776855 8.466700 -6.178586 0
M  V30 42 H 11.759688 10.131824 -6.620750 0
M  V30 43 H 11.506289 6.037563 -5.116108 0
M  V30 44 H 12.237391 5.770710 -2.761373 0
M  V30 45 H 12.639817 7.757217 -1.333801 0
M  V30 46 H 12.272667 10.030401 -2.250243 0
M  V30 47 H 11.522811 10.337499 -4.532194 0
M  V30 48 H 12.790445 8.374277 -7.695431 0
M  V30 49 H 12.189944 6.787391 -7.283935 0
M  V30 50 H 9.182033 2.722500 -14.695992 0
M  V30 51 H 7.658466 0.819810 -15.107975 0
M  V30 52 H 4.679170 2.634928 -12.590992 0
M  V30 53 H 6.130249 4.539167 -12.172563 0
M  V30 54 H 10.270370 6.020582 -8.150993 0
M  V30 END ATOM
M  V30 BEGIN BOND
M  V30 1 2 2 1
M  V30 2 1 3 2
M  V30 3 1 4 3
M  V30 4 1 5 4
M  V30 5 1 6 5
M  V30 6 1 7 6
M  V30 7 1 8 7
M  V30 8 1 9 8
M  V30 9 1 10 6
M  V30 10 1 10 9
M  V30 11 1 11 10
M  V30 12 1 12 11
M  V30 13 1 12 13 CFG=3
M  V30 14 1 14 12
M  V30 15 2 15 14
M  V30 16 1 16 15
M  V30 17 2 17 16
M  V30 18 1 18 17
M  V30 19 1 19 14
M  V30 20 2 19 18
M  V30 21 1 20 7
M  V30 22 1 20 12
M  V30 23 1 21 2
M  V30 24 1 22 21
M  V30 25 2 23 22
M  V30 26 1 24 23
M  V30 27 1 25 24
M  V30 28 2 26 24
M  V30 29 2 27 21
M  V30 30 1 27 26
M  V30 31 1 28 3
M  V30 32 1 29 3
M  V30 33 1 30 4
M  V30 34 1 31 4
M  V30 35 1 32 5
M  V30 36 1 33 5
M  V30 37 1 7 34 CFG=3
M  V30 38 1 35 8
M  V30 39 1 36 8
M  V30 40 1 37 9
M  V30 41 1 38 9
M  V30 42 1 10 39 CFG=1
M  V30 43 1 40 11
M  V30 44 1 41 11
M  V30 45 1 42 13
M  V30 46 1 43 15
M  V30 47 1 44 16
M  V30 48 1 45 17
M  V30 49 1 46 18
M  V30 50 1 47 19
M  V30 51 1 48 20
M  V30 52 1 49 20
M  V30 53 1 50 22
M  V30 54 1 51 23
M  V30 55 1 52 26
M  V30 56 1 53 27
M  V30 57 1 6 54 CFG=1
M  V30 END BOND
M  V30 END CTAB
M  END
>  <b_m_subgroup_collapsed>  (406) 
0

>  <r_i_docking_score>  (406) 
-8.3769011195685792

>  <s_m_subgroup_title>  (406) 
glide-dock_SP_D22_pv

>  <s_m_subgroupid>  (406) 
glide-dock_SP_D22_pv

>  <Molecule ChEMBL ID>  (406) 
CHEMBL553327

>  <Standard Type>  (406) 
Ki

>  <Standard Value>  (406) 
2.3

>  <label>  (406) 
1

$$$$
CHEMBL1242950
     RDKit          3D

  0  0  0  0  0  0  0  0  0  0999 V3000
M  V30 BEGIN CTAB
M  V30 COUNTS 54 55 0 0 1
M  V30 BEGIN ATOM
M  V30 1 C 11.104968 2.381693 -15.508913 0
M  V30 2 C 11.188303 3.663675 -14.673484 0
M  V30 3 C 9.819337 4.104098 -14.133539 0
M  V30 4 C 9.911436 5.334640 -13.214367 0
M  V30 5 C 8.544128 5.896543 -12.770397 0 CFG=1
M  V30 6 C 7.756391 4.948631 -11.836082 0
M  V30 7 C 8.373890 4.868801 -10.427086 0
M  V30 8 N 8.486147 6.223921 -9.834291 0 CFG=1 CHG=1
M  V30 9 C 8.873993 6.265170 -8.404954 0
M  V30 10 C 10.345307 5.871103 -8.154268 0
M  V30 11 C 10.819406 6.172962 -6.726082 0
M  V30 12 C 11.102416 7.648784 -6.420826 0
M  V30 13 O 11.081838 8.456636 -7.350015 0
M  V30 14 C 11.439229 7.988140 -4.994301 0
M  V30 15 C 11.687045 6.931090 -4.077512 0
M  V30 16 C 12.084819 7.177991 -2.751677 0
M  V30 17 C 12.236187 8.497581 -2.304310 0
M  V30 18 C 11.975148 9.560278 -3.183625 0
M  V30 19 C 11.570999 9.326798 -4.517508 0
M  V30 20 C 11.286753 10.553219 -5.370424 0
M  V30 21 C 9.268756 7.159848 -10.679664 0
M  V30 22 C 8.668570 7.271702 -12.082472 0
M  V30 23 H 12.087981 2.105176 -15.891074 0
M  V30 24 H 10.732929 1.546582 -14.916691 0
M  V30 25 H 10.440035 2.508469 -16.363491 0
M  V30 26 H 11.617205 4.462636 -15.280525 0
M  V30 27 H 11.878768 3.500082 -13.847439 0
M  V30 28 H 9.374036 3.270535 -13.589069 0
M  V30 29 H 9.155740 4.320682 -14.971720 0
M  V30 30 H 10.470330 6.117201 -13.730563 0
M  V30 31 H 10.498108 5.074173 -12.337342 0
M  V30 32 H 7.957607 6.042483 -13.677083 0
M  V30 33 H 6.732410 5.315873 -11.745538 0
M  V30 34 H 7.670855 3.952198 -12.266381 0
M  V30 35 H 9.354060 4.394338 -10.462678 0
M  V30 36 H 7.750042 4.235779 -9.796901 0
M  V30 37 H 8.205919 5.622512 -7.829949 0
M  V30 38 H 8.685711 7.277323 -8.043750 0
M  V30 39 H 11.025249 6.375741 -8.835862 0
M  V30 40 H 10.470237 4.810091 -8.361184 0
M  V30 41 H 11.743239 5.622834 -6.547523 0
M  V30 42 H 10.077780 5.817492 -6.014730 0
M  V30 43 H 11.606300 5.894754 -4.364505 0
M  V30 44 H 12.274937 6.350795 -2.082941 0
M  V30 45 H 12.542059 8.698777 -1.288230 0
M  V30 46 H 12.084006 10.571546 -2.816970 0
M  V30 47 H 10.485989 10.400746 -6.084946 0
M  V30 48 H 10.953607 11.372387 -4.738145 0
M  V30 49 H 12.181176 10.859208 -5.914331 0
M  V30 50 H 9.283172 8.147555 -10.214972 0
M  V30 51 H 10.302255 6.833459 -10.771966 0
M  V30 52 H 7.685810 7.737435 -12.028620 0
M  V30 53 H 9.290274 7.959749 -12.646905 0
M  V30 54 H 7.548312 6.639709 -9.855497 0
M  V30 END ATOM
M  V30 BEGIN BOND
M  V30 1 1 2 1
M  V30 2 1 3 2
M  V30 3 1 4 3
M  V30 4 1 5 4
M  V30 5 1 6 5
M  V30 6 1 7 6
M  V30 7 1 8 7
M  V30 8 1 9 8
M  V30 9 1 10 9
M  V30 10 1 11 10
M  V30 11 1 12 11
M  V30 12 2 13 12
M  V30 13 1 14 12
M  V30 14 2 15 14
M  V30 15 1 16 15
M  V30 16 2 17 16
M  V30 17 1 18 17
M  V30 18 1 19 14
M  V30 19 2 19 18
M  V30 20 1 20 19
M  V30 21 1 21 8
M  V30 22 1 22 5
M  V30 23 1 22 21
M  V30 24 1 23 1
M  V30 25 1 24 1
M  V30 26 1 25 1
M  V30 27 1 26 2
M  V30 28 1 27 2
M  V30 29 1 28 3
M  V30 30 1 29 3
M  V30 31 1 30 4
M  V30 32 1 31 4
M  V30 33 1 5 32 CFG=3
M  V30 34 1 33 6
M  V30 35 1 34 6
M  V30 36 1 35 7
M  V30 37 1 36 7
M  V30 38 1 37 9
M  V30 39 1 38 9
M  V30 40 1 39 10
M  V30 41 1 40 10
M  V30 42 1 41 11
M  V30 43 1 42 11
M  V30 44 1 43 15
M  V30 45 1 44 16
M  V30 46 1 45 17
M  V30 47 1 46 18
M  V30 48 1 47 20
M  V30 49 1 48 20
M  V30 50 1 49 20
M  V30 51 1 50 21
M  V30 52 1 51 21
M  V30 53 1 52 22
M  V30 54 1 53 22
M  V30 55 1 8 54 CFG=1
M  V30 END BOND
M  V30 END CTAB
M  END
>  <b_m_subgroup_collapsed>  (407) 
0

>  <r_i_docking_score>  (407) 
-8.3767394297696196

>  <s_m_subgroup_title>  (407) 
glide-dock_SP_D22_pv

>  <s_m_subgroupid>  (407) 
glide-dock_SP_D22_pv

>  <Molecule ChEMBL ID>  (407) 
CHEMBL1242950

>  <Standard Type>  (407) 
Ki

>  <Standard Value>  (407) 
77.0

>  <label>  (407) 
1

$$$$
CHEMBL4470321
     RDKit          3D

  0  0  0  0  0  0  0  0  0  0999 V3000
M  V30 BEGIN CTAB
M  V30 COUNTS 50 52 0 0 1
M  V30 BEGIN ATOM
M  V30 1 O 6.472444 3.771976 -11.571428 0
M  V30 2 C 7.550501 4.555236 -12.008562 0 CFG=1
M  V30 3 C 8.315365 3.811136 -13.120859 0
M  V30 4 C 7.588504 3.294020 -14.218472 0
M  V30 5 C 8.227766 2.555881 -15.233526 0
M  V30 6 C 9.613792 2.328496 -15.173220 0
M  V30 7 Cl 10.402717 1.410541 -16.402735 0
M  V30 8 C 10.352294 2.839004 -14.092008 0
M  V30 9 C 9.708097 3.556395 -13.067447 0
M  V30 10 C 6.905309 5.851019 -12.528727 0
M  V30 11 C 7.961410 6.943564 -12.721753 0
M  V30 12 N 8.649323 7.247378 -11.446303 0 CFG=2 CHG=1
M  V30 13 C 9.550869 8.420878 -11.510217 0
M  V30 14 C 10.260910 8.734719 -10.164405 0
M  V30 15 C 9.305991 8.854882 -8.955271 0
M  V30 16 C 9.999710 8.809051 -7.659623 0
M  V30 17 C 10.556827 8.712941 -6.578241 0
M  V30 18 C 11.171838 8.602738 -5.267389 0
M  V30 19 C 11.524481 7.342557 -4.736284 0
M  V30 20 C 12.085287 7.252816 -3.445655 0
M  V30 21 C 12.292732 8.419484 -2.684809 0
M  V30 22 F 12.830941 8.341432 -1.447327 0
M  V30 23 C 11.936896 9.673209 -3.215207 0
M  V30 24 C 11.375379 9.766735 -4.502081 0
M  V30 25 C 9.335477 6.056061 -10.909328 0
M  V30 26 C 8.366127 4.900645 -10.737976 0
M  V30 27 H 6.085989 4.171942 -10.796034 0
M  V30 28 H 6.519657 3.444506 -14.274434 0
M  V30 29 H 7.652582 2.157175 -16.056267 0
M  V30 30 H 11.414031 2.646682 -14.030527 0
M  V30 31 H 10.309610 3.860260 -12.229891 0
M  V30 32 H 6.354374 5.659500 -13.446795 0
M  V30 33 H 6.151211 6.213253 -11.831833 0
M  V30 34 H 8.686142 6.572283 -13.446603 0
M  V30 35 H 7.487353 7.844724 -13.110254 0
M  V30 36 H 10.303794 8.175809 -12.261928 0
M  V30 37 H 8.988269 9.290578 -11.855901 0
M  V30 38 H 11.010750 7.967959 -9.967994 0
M  V30 39 H 10.855345 9.645773 -10.246908 0
M  V30 40 H 8.717707 9.767925 -9.008509 0
M  V30 41 H 8.587645 8.036388 -8.924435 0
M  V30 42 H 11.360172 6.442138 -5.311542 0
M  V30 43 H 12.351161 6.287290 -3.037959 0
M  V30 44 H 12.086316 10.568942 -2.632849 0
M  V30 45 H 11.098188 10.732997 -4.894766 0
M  V30 46 H 10.171896 5.816679 -11.559738 0
M  V30 47 H 9.754996 6.234437 -9.919405 0
M  V30 48 H 7.686544 5.178483 -9.932546 0
M  V30 49 H 8.955492 4.079714 -10.363232 0
M  V30 50 H 7.887733 7.488043 -10.799213 0
M  V30 END ATOM
M  V30 BEGIN BOND
M  V30 1 1 2 1 CFG=1
M  V30 2 1 3 2
M  V30 3 1 4 3
M  V30 4 2 5 4
M  V30 5 1 6 5
M  V30 6 1 7 6
M  V30 7 2 8 6
M  V30 8 2 9 3
M  V30 9 1 9 8
M  V30 10 1 10 2
M  V30 11 1 11 10
M  V30 12 1 12 11
M  V30 13 1 13 12
M  V30 14 1 14 13
M  V30 15 1 15 14
M  V30 16 1 16 15
M  V30 17 3 17 16
M  V30 18 1 18 17
M  V30 19 1 19 18
M  V30 20 2 20 19
M  V30 21 1 21 20
M  V30 22 1 22 21
M  V30 23 2 23 21
M  V30 24 2 24 18
M  V30 25 1 24 23
M  V30 26 1 25 12
M  V30 27 1 26 2
M  V30 28 1 26 25
M  V30 29 1 27 1
M  V30 30 1 28 4
M  V30 31 1 29 5
M  V30 32 1 30 8
M  V30 33 1 31 9
M  V30 34 1 32 10
M  V30 35 1 33 10
M  V30 36 1 34 11
M  V30 37 1 35 11
M  V30 38 1 36 13
M  V30 39 1 37 13
M  V30 40 1 38 14
M  V30 41 1 39 14
M  V30 42 1 40 15
M  V30 43 1 41 15
M  V30 44 1 42 19
M  V30 45 1 43 20
M  V30 46 1 44 23
M  V30 47 1 45 24
M  V30 48 1 46 25
M  V30 49 1 47 25
M  V30 50 1 48 26
M  V30 51 1 49 26
M  V30 52 1 12 50 CFG=1
M  V30 END BOND
M  V30 END CTAB
M  END
>  <b_m_subgroup_collapsed>  (408) 
0

>  <r_i_docking_score>  (408) 
-8.3760544763100899

>  <s_m_subgroup_title>  (408) 
glide-dock_SP_D22_pv

>  <s_m_subgroupid>  (408) 
glide-dock_SP_D22_pv

>  <Molecule ChEMBL ID>  (408) 
CHEMBL4470321

>  <Standard Type>  (408) 
Ki

>  <Standard Value>  (408) 
19.05

>  <label>  (408) 
1

$$$$
CHEMBL140006
     RDKit          3D

  0  0  0  0  0  0  0  0  0  0999 V3000
M  V30 BEGIN CTAB
M  V30 COUNTS 45 48 0 0 1
M  V30 BEGIN ATOM
M  V30 1 N 3.825427 -0.627762 -13.870774 0
M  V30 2 C 4.657714 0.173556 -13.862186 0
M  V30 3 C 5.686086 1.199853 -13.846791 0
M  V30 4 C 6.837061 1.090550 -14.656780 0
M  V30 5 C 7.790061 2.129822 -14.664543 0
M  V30 6 C 7.588741 3.258327 -13.846860 0
M  V30 7 N 8.345550 4.389447 -13.599871 0
M  V30 8 C 7.733481 5.194780 -12.647604 0
M  V30 9 C 8.305100 6.496713 -12.189646 0
M  V30 10 N 9.341449 6.401637 -11.130649 0 CHG=1
M  V30 11 C 8.831681 5.885537 -9.829639 0
M  V30 12 C 9.934184 5.793287 -8.764206 0
M  V30 13 N 10.677209 7.049546 -8.686041 0
M  V30 14 C 10.902954 7.688583 -7.450627 0
M  V30 15 C 10.941092 9.097851 -7.355591 0
M  V30 16 C 11.182571 9.736368 -6.123459 0
M  V30 17 C 11.391115 8.972261 -4.962989 0
M  V30 18 Cl 11.685798 9.765937 -3.458572 0
M  V30 19 C 11.360974 7.565783 -5.043021 0
M  V30 20 Cl 11.686176 6.607441 -3.643623 0
M  V30 21 C 11.111176 6.933434 -6.275810 0
M  V30 22 C 11.175664 7.617011 -9.934627 0
M  V30 23 C 10.042770 7.705222 -10.966467 0
M  V30 24 C 6.547286 4.616245 -12.282992 0
M  V30 25 C 6.437849 3.387935 -13.015517 0
M  V30 26 C 5.489774 2.343572 -13.046075 0
M  V30 27 H 6.985878 0.217949 -15.279217 0
M  V30 28 H 8.675495 2.047945 -15.278355 0
M  V30 29 H 9.225537 4.609650 -14.044044 0
M  V30 30 H 7.504506 7.146059 -11.847143 0
M  V30 31 H 8.737238 6.995733 -13.046679 0
M  V30 32 H 8.350551 4.914849 -9.955199 0
M  V30 33 H 8.078438 6.571253 -9.451959 0
M  V30 34 H 10.615420 4.983628 -9.017595 0
M  V30 35 H 9.475967 5.539497 -7.806960 0
M  V30 36 H 10.772972 9.713103 -8.222775 0
M  V30 37 H 11.206002 10.815681 -6.071678 0
M  V30 38 H 11.119890 5.855154 -6.313622 0
M  V30 39 H 11.642444 8.591650 -9.798637 0
M  V30 40 H 11.968323 6.971773 -10.312020 0
M  V30 41 H 10.452974 8.033084 -11.921967 0
M  V30 42 H 9.323175 8.466518 -10.655826 0
M  V30 43 H 5.832018 4.998249 -11.566167 0
M  V30 44 H 4.606262 2.423407 -12.430724 0
M  V30 45 H 10.025589 5.735462 -11.454286 0
M  V30 END ATOM
M  V30 BEGIN BOND
M  V30 1 3 2 1
M  V30 2 1 3 2
M  V30 3 1 4 3
M  V30 4 2 5 4
M  V30 5 1 6 5
M  V30 6 1 7 6
M  V30 7 1 8 7
M  V30 8 1 9 8
M  V30 9 1 10 9
M  V30 10 1 11 10
M  V30 11 1 12 11
M  V30 12 1 13 12
M  V30 13 1 14 13
M  V30 14 1 15 14
M  V30 15 2 16 15
M  V30 16 1 17 16
M  V30 17 1 18 17
M  V30 18 2 19 17
M  V30 19 1 20 19
M  V30 20 2 21 14
M  V30 21 1 21 19
M  V30 22 1 22 13
M  V30 23 1 23 10
M  V30 24 1 23 22
M  V30 25 2 24 8
M  V30 26 2 25 6
M  V30 27 1 25 24
M  V30 28 2 26 3
M  V30 29 1 26 25
M  V30 30 1 27 4
M  V30 31 1 28 5
M  V30 32 1 29 7
M  V30 33 1 30 9
M  V30 34 1 31 9
M  V30 35 1 32 11
M  V30 36 1 33 11
M  V30 37 1 34 12
M  V30 38 1 35 12
M  V30 39 1 36 15
M  V30 40 1 37 16
M  V30 41 1 38 21
M  V30 42 1 39 22
M  V30 43 1 40 22
M  V30 44 1 41 23
M  V30 45 1 42 23
M  V30 46 1 43 24
M  V30 47 1 44 26
M  V30 48 1 45 10
M  V30 END BOND
M  V30 END CTAB
M  END
>  <b_m_subgroup_collapsed>  (409) 
0

>  <r_i_docking_score>  (409) 
-8.3717670215433007

>  <s_m_subgroup_title>  (409) 
glide-dock_SP_D22_pv

>  <s_m_subgroupid>  (409) 
glide-dock_SP_D22_pv

>  <Molecule ChEMBL ID>  (409) 
CHEMBL140006

>  <Standard Type>  (409) 
Ki

>  <Standard Value>  (409) 
36000.0

>  <label>  (409) 
0

$$$$
CHEMBL3817911
     RDKit          3D

  0  0  0  0  0  0  0  0  0  0999 V3000
M  V30 BEGIN CTAB
M  V30 COUNTS 54 57 0 0 1
M  V30 BEGIN ATOM
M  V30 1 O 9.400596 2.439929 -14.681224 0
M  V30 2 C 8.246665 2.574805 -14.274039 0
M  V30 3 C 7.210253 1.510534 -14.247144 0
M  V30 4 C 7.264946 0.164696 -14.644298 0
M  V30 5 C 6.096296 -0.613759 -14.453900 0
M  V30 6 C 4.933522 -0.046010 -13.867884 0
M  V30 7 C 4.923620 1.303261 -13.447433 0
M  V30 8 C 6.085846 2.051835 -13.683917 0
M  V30 9 C 6.363186 3.477348 -13.404167 0
M  V30 10 O 5.554242 4.279641 -12.938924 0
M  V30 11 N 7.661886 3.680475 -13.738853 0
M  V30 12 C 8.382657 4.924931 -13.456553 0
M  V30 13 C 9.095627 4.879742 -12.094149 0
M  V30 14 C 8.114147 4.932661 -10.905088 0
M  V30 15 C 8.801236 5.127676 -9.543624 0
M  V30 16 N 8.703960 6.524806 -9.043912 0 CFG=2 CHG=1
M  V30 17 C 9.333869 7.558660 -9.902705 0
M  V30 18 C 10.867343 7.518472 -9.799038 0
M  V30 19 C 11.340267 7.659446 -8.341788 0 CFG=1
M  V30 20 C 11.163960 9.097966 -7.830991 0
M  V30 21 C 11.678027 9.255949 -6.398061 0
M  V30 22 C 10.944399 8.277555 -5.471624 0
M  V30 23 C 11.055121 6.821333 -5.952216 0
M  V30 24 C 10.624290 6.636186 -7.423826 0 CFG=1
M  V30 25 C 9.085949 6.676678 -7.616424 0
M  V30 26 H 8.158220 -0.259960 -15.078846 0
M  V30 27 H 6.087314 -1.649674 -14.762624 0
M  V30 28 H 4.043011 -0.647784 -13.757192 0
M  V30 29 H 4.045361 1.765478 -13.021816 0
M  V30 30 H 9.106721 5.117157 -14.251157 0
M  V30 31 H 7.696275 5.773713 -13.456622 0
M  V30 32 H 9.720111 3.986789 -12.019690 0
M  V30 33 H 9.782759 5.724291 -12.047085 0
M  V30 34 H 7.355155 5.703725 -11.055971 0
M  V30 35 H 7.556409 3.998067 -10.874175 0
M  V30 36 H 8.292116 4.484210 -8.823557 0
M  V30 37 H 9.835412 4.780511 -9.574293 0
M  V30 38 H 9.003658 7.470926 -10.936378 0
M  V30 39 H 8.963404 8.531437 -9.582736 0
M  V30 40 H 11.239932 6.582899 -10.210700 0
M  V30 41 H 11.305126 8.305120 -10.414739 0
M  V30 42 H 12.409086 7.443815 -8.317349 0
M  V30 43 H 11.685815 9.772242 -8.502144 0
M  V30 44 H 10.114992 9.387981 -7.860409 0
M  V30 45 H 12.752248 9.086928 -6.367267 0
M  V30 46 H 11.520933 10.280138 -6.058210 0
M  V30 47 H 11.320490 8.370605 -4.451977 0
M  V30 48 H 9.895000 8.558106 -5.448391 0
M  V30 49 H 12.085889 6.484977 -5.837994 0
M  V30 50 H 10.463161 6.179896 -5.300727 0
M  V30 51 H 10.955210 5.641227 -7.719596 0
M  V30 52 H 8.676962 7.621989 -7.258250 0
M  V30 53 H 8.600880 5.902513 -7.022623 0
M  V30 54 H 7.713214 6.754919 -9.084539 0
M  V30 END ATOM
M  V30 BEGIN BOND
M  V30 1 2 2 1
M  V30 2 1 3 2
M  V30 3 2 4 3
M  V30 4 1 5 4
M  V30 5 2 6 5
M  V30 6 1 7 6
M  V30 7 1 8 3
M  V30 8 2 8 7
M  V30 9 1 9 8
M  V30 10 2 10 9
M  V30 11 1 11 2
M  V30 12 1 11 9
M  V30 13 1 12 11
M  V30 14 1 13 12
M  V30 15 1 14 13
M  V30 16 1 15 14
M  V30 17 1 16 15
M  V30 18 1 17 16
M  V30 19 1 18 17
M  V30 20 1 19 18
M  V30 21 1 20 19
M  V30 22 1 21 20
M  V30 23 1 22 21
M  V30 24 1 23 22
M  V30 25 1 24 19
M  V30 26 1 24 23
M  V30 27 1 25 16
M  V30 28 1 25 24
M  V30 29 1 26 4
M  V30 30 1 27 5
M  V30 31 1 28 6
M  V30 32 1 29 7
M  V30 33 1 30 12
M  V30 34 1 31 12
M  V30 35 1 32 13
M  V30 36 1 33 13
M  V30 37 1 34 14
M  V30 38 1 35 14
M  V30 39 1 36 15
M  V30 40 1 37 15
M  V30 41 1 38 17
M  V30 42 1 39 17
M  V30 43 1 40 18
M  V30 44 1 41 18
M  V30 45 1 19 42 CFG=3
M  V30 46 1 43 20
M  V30 47 1 44 20
M  V30 48 1 45 21
M  V30 49 1 46 21
M  V30 50 1 47 22
M  V30 51 1 48 22
M  V30 52 1 49 23
M  V30 53 1 50 23
M  V30 54 1 24 51 CFG=3
M  V30 55 1 52 25
M  V30 56 1 53 25
M  V30 57 1 16 54 CFG=1
M  V30 END BOND
M  V30 END CTAB
M  END
>  <b_m_subgroup_collapsed>  (410) 
0

>  <r_i_docking_score>  (410) 
-8.3651853679742292

>  <s_m_subgroup_title>  (410) 
glide-dock_SP_D22_pv

>  <s_m_subgroupid>  (410) 
glide-dock_SP_D22_pv

>  <Molecule ChEMBL ID>  (410) 
CHEMBL3817911

>  <Standard Type>  (410) 
Ki

>  <Standard Value>  (410) 
10000.0

>  <label>  (410) 
0

$$$$
CHEMBL1087452
     RDKit          3D

  0  0  0  0  0  0  0  0  0  0999 V3000
M  V30 BEGIN CTAB
M  V30 COUNTS 54 58 0 0 1
M  V30 BEGIN ATOM
M  V30 1 O 12.485859 6.673011 -2.246193 0
M  V30 2 C 12.085752 7.352751 -3.181208 0
M  V30 3 C 12.034785 8.881891 -3.073840 0
M  V30 4 C 12.182913 9.605235 -4.428523 0
M  V30 5 C 11.535386 8.871857 -5.583992 0
M  V30 6 C 11.228671 9.535677 -6.786689 0
M  V30 7 C 10.622404 8.836410 -7.853546 0
M  V30 8 C 10.307076 7.463546 -7.713077 0
M  V30 9 O 9.686500 6.687747 -8.662782 0
M  V30 10 C 9.624616 7.164074 -9.993991 0
M  V30 11 C 8.893334 6.098286 -10.821259 0
M  V30 12 N 9.073708 6.357210 -12.247188 0
M  V30 13 C 10.293718 5.773264 -12.818997 0
M  V30 14 C 10.204381 4.236624 -12.942598 0
M  V30 15 N 9.039828 3.870887 -13.747325 0
M  V30 16 C 9.073633 2.652612 -14.460045 0
M  V30 17 C 10.229417 2.320447 -15.221332 0
M  V30 18 C 10.338280 1.095594 -15.922236 0
M  V30 19 C 9.288204 0.157483 -15.883521 0
M  V30 20 C 8.150760 0.502510 -15.140937 0
M  V30 21 N 7.000561 -0.227076 -14.880661 0
M  V30 22 C 6.167413 0.509678 -14.051742 0
M  V30 23 O 5.088615 0.174176 -13.566249 0
M  V30 24 O 6.797768 1.711128 -13.846906 0
M  V30 25 C 8.017885 1.703765 -14.472898 0
M  V30 26 C 7.796298 4.416452 -13.213573 0
M  V30 27 C 7.924629 5.947160 -13.054321 0
M  V30 28 C 10.637324 6.814221 -6.514450 0
M  V30 29 C 11.265609 7.496577 -5.463228 0
M  V30 30 N 11.646490 6.783966 -4.307978 0
M  V30 31 H 11.062684 9.124736 -2.647971 0
M  V30 32 H 12.779330 9.242962 -2.362792 0
M  V30 33 H 13.235692 9.771340 -4.661824 0
M  V30 34 H 11.686065 10.572175 -4.356454 0
M  V30 35 H 11.452037 10.586137 -6.889225 0
M  V30 36 H 10.389566 9.372025 -8.760338 0
M  V30 37 H 9.076449 8.105221 -10.053803 0
M  V30 38 H 10.637206 7.331205 -10.362653 0
M  V30 39 H 9.231027 5.098060 -10.555779 0
M  V30 40 H 7.835436 6.141233 -10.561127 0
M  V30 41 H 10.444530 6.172755 -13.821021 0
M  V30 42 H 11.163730 6.088489 -12.246668 0
M  V30 43 H 11.134820 3.867605 -13.368817 0
M  V30 44 H 10.114924 3.763842 -11.964654 0
M  V30 45 H 11.056604 3.011271 -15.287969 0
M  V30 46 H 11.235476 0.875894 -16.483055 0
M  V30 47 H 9.362590 -0.789864 -16.397177 0
M  V30 48 H 6.818122 -1.180846 -15.166854 0
M  V30 49 H 6.969295 4.209163 -13.892919 0
M  V30 50 H 7.562143 3.944099 -12.258770 0
M  V30 51 H 7.006828 6.381469 -12.655766 0
M  V30 52 H 8.086043 6.379164 -14.039841 0
M  V30 53 H 10.402896 5.772412 -6.411838 0
M  V30 54 H 11.589276 5.775877 -4.337234 0
M  V30 END ATOM
M  V30 BEGIN BOND
M  V30 1 2 2 1
M  V30 2 1 3 2
M  V30 3 1 4 3
M  V30 4 1 5 4
M  V30 5 1 6 5
M  V30 6 2 7 6
M  V30 7 1 8 7
M  V30 8 1 9 8
M  V30 9 1 10 9
M  V30 10 1 11 10
M  V30 11 1 12 11
M  V30 12 1 13 12
M  V30 13 1 14 13
M  V30 14 1 15 14
M  V30 15 1 16 15
M  V30 16 1 17 16
M  V30 17 2 18 17
M  V30 18 1 19 18
M  V30 19 2 20 19
M  V30 20 1 21 20
M  V30 21 1 22 21
M  V30 22 2 23 22
M  V30 23 1 24 22
M  V30 24 2 25 16
M  V30 25 1 25 20
M  V30 26 1 25 24
M  V30 27 1 26 15
M  V30 28 1 27 12
M  V30 29 1 27 26
M  V30 30 2 28 8
M  V30 31 2 29 5
M  V30 32 1 29 28
M  V30 33 1 30 2
M  V30 34 1 30 29
M  V30 35 1 31 3
M  V30 36 1 32 3
M  V30 37 1 33 4
M  V30 38 1 34 4
M  V30 39 1 35 6
M  V30 40 1 36 7
M  V30 41 1 37 10
M  V30 42 1 38 10
M  V30 43 1 39 11
M  V30 44 1 40 11
M  V30 45 1 41 13
M  V30 46 1 42 13
M  V30 47 1 43 14
M  V30 48 1 44 14
M  V30 49 1 45 17
M  V30 50 1 46 18
M  V30 51 1 47 19
M  V30 52 1 48 21
M  V30 53 1 49 26
M  V30 54 1 50 26
M  V30 55 1 51 27
M  V30 56 1 52 27
M  V30 57 1 53 28
M  V30 58 1 54 30
M  V30 END BOND
M  V30 END CTAB
M  END
>  <b_m_subgroup_collapsed>  (411) 
0

>  <r_i_docking_score>  (411) 
-8.3627955311236306

>  <s_m_subgroup_title>  (411) 
glide-dock_SP_D22_pv

>  <s_m_subgroupid>  (411) 
glide-dock_SP_D22_pv

>  <Molecule ChEMBL ID>  (411) 
CHEMBL1087452

>  <Standard Type>  (411) 
Ki

>  <Standard Value>  (411) 
8.6

>  <label>  (411) 
1

$$$$
CHEMBL5274285
     RDKit          3D

  0  0  0  0  0  0  0  0  0  0999 V3000
M  V30 BEGIN CTAB
M  V30 COUNTS 54 58 0 0 1
M  V30 BEGIN ATOM
M  V30 1 F 13.388228 7.314960 -16.477901 0
M  V30 2 C 12.434289 6.566169 -15.875106 0
M  V30 3 C 12.449524 6.402121 -14.477616 0
M  V30 4 C 11.462262 5.619193 -13.846864 0
M  V30 5 C 10.435075 5.019975 -14.604686 0
M  V30 6 C 9.373930 4.154989 -13.945257 0
M  V30 7 N 8.086026 4.810734 -13.648849 0
M  V30 8 C 7.009541 3.816861 -13.687898 0
M  V30 9 C 5.777820 4.531783 -13.135506 0
M  V30 10 C 6.340031 5.765682 -12.445032 0
M  V30 11 C 7.857316 5.520563 -12.367658 0 CFG=1
M  V30 12 C 8.185328 4.650480 -11.138982 0
M  V30 13 C 8.989870 5.515329 -10.187876 0
M  V30 14 N 8.886023 6.907795 -10.660447 0 CFG=1 CHG=1
M  V30 15 C 9.997553 7.811533 -10.251322 0
M  V30 16 C 10.330835 7.805788 -8.777540 0
M  V30 17 C 10.650782 6.751735 -7.957428 0
M  V30 18 C 10.955056 7.281385 -6.669532 0
M  V30 19 C 11.337901 6.699390 -5.445579 0
M  V30 20 C 11.686023 7.480002 -4.338061 0
M  V30 21 C 11.631514 8.875751 -4.430755 0
M  V30 22 Cl 12.086013 9.772325 -3.046863 0
M  V30 23 C 11.206123 9.501954 -5.622900 0
M  V30 24 C 10.872688 8.698428 -6.733926 0
M  V30 25 N 10.455943 8.972324 -8.028471 0
M  V30 26 C 8.630056 6.839051 -12.120555 0
M  V30 27 C 10.430571 5.180724 -16.006979 0
M  V30 28 C 11.425839 5.949979 -16.641453 0
M  V30 29 F 11.405874 6.101863 -17.986881 0
M  V30 30 H 13.225262 6.874060 -13.892431 0
M  V30 31 H 11.482714 5.493143 -12.777027 0
M  V30 32 H 9.182974 3.352143 -14.659532 0
M  V30 33 H 9.813929 3.652502 -13.087747 0
M  V30 34 H 6.839556 3.419695 -14.687222 0
M  V30 35 H 7.256960 2.972324 -13.046885 0
M  V30 36 H 5.085836 4.813880 -13.929616 0
M  V30 37 H 5.241601 3.889167 -12.436390 0
M  V30 38 H 6.121048 6.648405 -13.046860 0
M  V30 39 H 5.881023 5.930870 -11.468980 0
M  V30 40 H 7.286022 4.280185 -10.647100 0
M  V30 41 H 8.768903 3.772325 -11.378116 0
M  V30 42 H 8.623692 5.413604 -9.165501 0
M  V30 43 H 10.030100 5.189904 -10.229992 0
M  V30 44 H 10.895377 7.537539 -10.807384 0
M  V30 45 H 9.742578 8.823647 -10.568266 0
M  V30 46 H 10.696774 5.701188 -8.195331 0
M  V30 47 H 11.425445 5.636381 -5.364760 0
M  V30 48 H 12.004203 7.006271 -3.420338 0
M  V30 49 H 11.156604 10.578560 -5.686522 0
M  V30 50 H 10.293640 9.891474 -8.411706 0
M  V30 51 H 9.576842 6.842225 -12.646865 0
M  V30 52 H 8.083929 7.721437 -12.456344 0
M  V30 53 H 9.658376 4.716429 -16.602665 0
M  V30 54 H 8.006891 7.272763 -10.270984 0
M  V30 END ATOM
M  V30 BEGIN BOND
M  V30 1 1 2 1
M  V30 2 1 3 2
M  V30 3 2 4 3
M  V30 4 1 5 4
M  V30 5 1 6 5
M  V30 6 1 7 6
M  V30 7 1 8 7
M  V30 8 1 9 8
M  V30 9 1 10 9
M  V30 10 1 11 7 CFG=3
M  V30 11 1 11 10
M  V30 12 1 12 11
M  V30 13 1 13 12
M  V30 14 1 14 13
M  V30 15 1 15 14
M  V30 16 1 16 15
M  V30 17 2 17 16
M  V30 18 1 18 17
M  V30 19 1 19 18
M  V30 20 2 20 19
M  V30 21 1 21 20
M  V30 22 1 22 21
M  V30 23 2 23 21
M  V30 24 2 24 18
M  V30 25 1 24 23
M  V30 26 1 25 16
M  V30 27 1 25 24
M  V30 28 1 26 11
M  V30 29 1 26 14
M  V30 30 2 27 5
M  V30 31 2 28 2
M  V30 32 1 28 27
M  V30 33 1 29 28
M  V30 34 1 30 3
M  V30 35 1 31 4
M  V30 36 1 32 6
M  V30 37 1 33 6
M  V30 38 1 34 8
M  V30 39 1 35 8
M  V30 40 1 36 9
M  V30 41 1 37 9
M  V30 42 1 38 10
M  V30 43 1 39 10
M  V30 44 1 40 12
M  V30 45 1 41 12
M  V30 46 1 42 13
M  V30 47 1 43 13
M  V30 48 1 44 15
M  V30 49 1 45 15
M  V30 50 1 46 17
M  V30 51 1 47 19
M  V30 52 1 48 20
M  V30 53 1 49 23
M  V30 54 1 50 25
M  V30 55 1 51 26
M  V30 56 1 52 26
M  V30 57 1 53 27
M  V30 58 1 14 54 CFG=1
M  V30 END BOND
M  V30 END CTAB
M  END
>  <b_m_subgroup_collapsed>  (412) 
0

>  <r_i_docking_score>  (412) 
-8.3609098756201004

>  <s_m_subgroup_title>  (412) 
glide-dock_SP_D22_pv

>  <s_m_subgroupid>  (412) 
glide-dock_SP_D22_pv

>  <Molecule ChEMBL ID>  (412) 
CHEMBL5274285

>  <Standard Type>  (412) 
Ki

>  <Standard Value>  (412) 
10000.0

>  <label>  (412) 
0

$$$$
CHEMBL5277325
     RDKit          3D

  0  0  0  0  0  0  0  0  0  0999 V3000
M  V30 BEGIN CTAB
M  V30 COUNTS 59 61 0 0 1
M  V30 BEGIN ATOM
M  V30 1 C 7.676609 7.638303 -12.652239 0
M  V30 2 N 7.686018 6.405599 -11.846895 0 CHG=1
M  V30 3 C 6.507251 5.546102 -12.121038 0
M  V30 4 C 8.997615 5.715288 -11.789487 0 CFG=1
M  V30 5 C 9.123626 4.964742 -10.437074 0
M  V30 6 N 8.885847 5.803507 -9.263322 0
M  V30 7 C 9.624777 6.855865 -8.882330 0
M  V30 8 O 10.604276 7.264291 -9.503778 0
M  V30 9 N 9.137643 7.431605 -7.776720 0
M  V30 10 C 9.465580 8.766272 -7.285054 0
M  V30 11 C 10.911236 8.957459 -6.803420 0 CFG=1
M  V30 12 C 11.317482 10.285497 -5.984709 0
M  V30 13 C 11.628182 9.379413 -4.825421 0
M  V30 14 C 12.042862 9.372223 -3.491058 0
M  V30 15 C 12.086154 8.077072 -2.904775 0
M  V30 16 C 11.720122 6.896271 -3.627704 0
M  V30 17 C 11.286155 6.930503 -4.982691 0
M  V30 18 C 11.261237 8.204679 -5.543636 0
M  V30 19 C 9.239714 4.830873 -13.046451 0
M  V30 20 C 10.666281 4.259657 -13.201023 0
M  V30 21 C 10.749400 3.145090 -14.267207 0
M  V30 22 C 10.727170 3.699130 -15.700250 0
M  V30 23 C 11.857064 4.717038 -15.914845 0
M  V30 24 C 11.777803 5.855736 -14.887480 0
M  V30 25 C 11.773542 5.315039 -13.447225 0
M  V30 26 H 7.686212 7.371624 -13.700260 0
M  V30 27 H 6.766685 8.212879 -12.470383 0
M  V30 28 H 8.528097 8.282868 -12.428409 0
M  V30 29 H 6.495333 5.189580 -13.150597 0
M  V30 30 H 6.472300 4.683826 -11.456198 0
M  V30 31 H 5.593899 6.116334 -11.953387 0
M  V30 32 H 9.758719 6.492833 -11.791827 0
M  V30 33 H 10.085999 4.478851 -10.324872 0
M  V30 34 H 8.384837 4.172365 -10.398215 0
M  V30 35 H 8.081201 5.568301 -8.700098 0
M  V30 36 H 8.303462 7.025672 -7.372481 0
M  V30 37 H 8.766848 8.972039 -6.474843 0
M  V30 38 H 9.235581 9.477856 -8.078202 0
M  V30 39 H 11.658507 8.737883 -7.565821 0
M  V30 40 H 10.490619 10.962007 -5.764542 0
M  V30 41 H 12.202660 10.800736 -6.356184 0
M  V30 42 H 12.295599 10.267871 -2.945463 0
M  V30 43 H 12.395087 7.984387 -1.873539 0
M  V30 44 H 11.768219 5.943182 -3.122536 0
M  V30 45 H 10.994347 6.047753 -5.530865 0
M  V30 46 H 8.542574 3.992656 -13.019853 0
M  V30 47 H 8.990091 5.394210 -13.945539 0
M  V30 48 H 10.877411 3.773714 -12.258347 0
M  V30 49 H 11.677058 2.588222 -14.124163 0
M  V30 50 H 9.944218 2.423671 -14.127798 0
M  V30 51 H 10.830253 2.880203 -16.413269 0
M  V30 52 H 9.763637 4.166149 -15.906269 0
M  V30 53 H 12.822092 4.216602 -15.832545 0
M  V30 54 H 11.805661 5.124932 -16.924845 0
M  V30 55 H 12.623350 6.531260 -15.022442 0
M  V30 56 H 10.886107 6.450885 -15.071406 0
M  V30 57 H 11.709228 6.143491 -12.743476 0
M  V30 58 H 12.742079 4.850060 -13.258286 0
M  V30 59 H 7.493675 6.780625 -10.915300 0
M  V30 END ATOM
M  V30 BEGIN BOND
M  V30 1 1 2 1
M  V30 2 1 3 2
M  V30 3 1 4 2
M  V30 4 1 5 4
M  V30 5 1 6 5
M  V30 6 1 7 6
M  V30 7 2 8 7
M  V30 8 1 9 7
M  V30 9 1 10 9
M  V30 10 1 11 10
M  V30 11 1 12 11
M  V30 12 1 13 12
M  V30 13 2 14 13
M  V30 14 1 15 14
M  V30 15 2 16 15
M  V30 16 1 17 16
M  V30 17 1 18 11
M  V30 18 1 18 13
M  V30 19 2 18 17
M  V30 20 1 19 4
M  V30 21 1 20 19
M  V30 22 1 21 20
M  V30 23 1 22 21
M  V30 24 1 23 22
M  V30 25 1 24 23
M  V30 26 1 25 20
M  V30 27 1 25 24
M  V30 28 1 26 1
M  V30 29 1 27 1
M  V30 30 1 28 1
M  V30 31 1 29 3
M  V30 32 1 30 3
M  V30 33 1 31 3
M  V30 34 1 4 32 CFG=1
M  V30 35 1 33 5
M  V30 36 1 34 5
M  V30 37 1 35 6
M  V30 38 1 36 9
M  V30 39 1 37 10
M  V30 40 1 38 10
M  V30 41 1 11 39 CFG=3
M  V30 42 1 40 12
M  V30 43 1 41 12
M  V30 44 1 42 14
M  V30 45 1 43 15
M  V30 46 1 44 16
M  V30 47 1 45 17
M  V30 48 1 46 19
M  V30 49 1 47 19
M  V30 50 1 48 20
M  V30 51 1 49 21
M  V30 52 1 50 21
M  V30 53 1 51 22
M  V30 54 1 52 22
M  V30 55 1 53 23
M  V30 56 1 54 23
M  V30 57 1 55 24
M  V30 58 1 56 24
M  V30 59 1 57 25
M  V30 60 1 58 25
M  V30 61 1 59 2
M  V30 END BOND
M  V30 END CTAB
M  END
>  <b_m_subgroup_collapsed>  (413) 
0

>  <r_i_docking_score>  (413) 
-8.3597486397587506

>  <s_m_subgroup_title>  (413) 
glide-dock_SP_D22_pv

>  <s_m_subgroupid>  (413) 
glide-dock_SP_D22_pv

>  <Molecule ChEMBL ID>  (413) 
CHEMBL5277325

>  <Standard Type>  (413) 
Ki

>  <Standard Value>  (413) 
10000.0

>  <label>  (413) 
0

$$$$
CHEMBL4790288
     RDKit          3D

  0  0  0  0  0  0  0  0  0  0999 V3000
M  V30 BEGIN CTAB
M  V30 COUNTS 57 60 0 0 1
M  V30 BEGIN ATOM
M  V30 1 C 5.437970 -1.429967 -14.504448 0
M  V30 2 C 6.295926 -0.178348 -14.359025 0
M  V30 3 O 5.866361 0.771048 -13.707006 0
M  V30 4 N 7.488577 -0.227379 -14.980394 0
M  V30 5 C 8.535463 0.734006 -15.061001 0
M  V30 6 C 9.666500 0.381065 -15.825824 0
M  V30 7 C 10.741329 1.278435 -15.969001 0
M  V30 8 C 10.706547 2.529388 -15.325404 0
M  V30 9 C 9.603434 2.888060 -14.527534 0
M  V30 10 O 9.636069 4.101085 -13.879950 0
M  V30 11 C 9.215818 4.072947 -12.522102 0
M  V30 12 C 9.453849 5.439137 -11.865416 0
M  V30 13 C 9.152366 5.375478 -10.357880 0
M  V30 14 N 9.285860 6.673778 -9.644052 0 CFG=2 CHG=1
M  V30 15 C 10.685185 7.175496 -9.567288 0
M  V30 16 C 10.800599 8.525275 -8.819826 0
M  V30 17 C 10.101385 8.540196 -7.442478 0 CFG=2
M  V30 18 C 10.864997 7.866509 -6.326072 0
M  V30 19 N 11.158173 6.574184 -6.405333 0
M  V30 20 O 11.686242 6.172481 -5.155136 0
M  V30 21 C 11.792859 7.264071 -4.321693 0
M  V30 22 C 12.292057 7.381439 -3.021191 0
M  V30 23 C 12.294824 8.663683 -2.445099 0
M  V30 24 F 12.790226 8.836609 -1.200644 0
M  V30 25 C 11.788896 9.770913 -3.165187 0
M  V30 26 C 11.285522 9.625496 -4.480170 0
M  V30 27 C 11.296251 8.339940 -5.063553 0
M  V30 28 C 8.687504 7.953199 -7.583327 0
M  V30 29 C 8.687949 6.577289 -8.292092 0
M  V30 30 C 8.508100 1.997504 -14.423767 0
M  V30 31 H 5.804293 -2.223011 -13.849034 0
M  V30 32 H 4.398679 -1.221670 -14.247568 0
M  V30 33 H 5.459010 -1.798548 -15.530998 0
M  V30 34 H 7.683636 -1.119274 -15.434938 0
M  V30 35 H 9.712347 -0.579225 -16.318392 0
M  V30 36 H 11.601498 1.001186 -16.560898 0
M  V30 37 H 11.540792 3.207658 -15.425791 0
M  V30 38 H 8.162742 3.804511 -12.431686 0
M  V30 39 H 9.791558 3.311947 -11.991685 0
M  V30 40 H 10.485743 5.736433 -12.044772 0
M  V30 41 H 8.821539 6.189930 -12.343105 0
M  V30 42 H 8.126722 5.018493 -10.242476 0
M  V30 43 H 9.788117 4.630081 -9.876043 0
M  V30 44 H 11.285838 6.420149 -9.067781 0
M  V30 45 H 11.099970 7.295283 -10.567640 0
M  V30 46 H 11.846224 8.820033 -8.718325 0
M  V30 47 H 10.337710 9.289409 -9.445708 0
M  V30 48 H 9.991701 9.586124 -7.156785 0
M  V30 49 H 12.671649 6.521543 -2.489258 0
M  V30 50 H 11.795208 10.741225 -2.690341 0
M  V30 51 H 10.901956 10.479967 -5.019354 0
M  V30 52 H 8.198179 7.880865 -6.611432 0
M  V30 53 H 8.086561 8.652921 -8.163080 0
M  V30 54 H 7.686216 6.172301 -8.381462 0
M  V30 55 H 9.208611 5.820319 -7.710904 0
M  V30 56 H 7.650361 2.298273 -13.849213 0
M  V30 57 H 8.713756 7.347713 -10.142178 0
M  V30 END ATOM
M  V30 BEGIN BOND
M  V30 1 1 2 1
M  V30 2 2 3 2
M  V30 3 1 4 2
M  V30 4 1 5 4
M  V30 5 1 6 5
M  V30 6 2 7 6
M  V30 7 1 8 7
M  V30 8 2 9 8
M  V30 9 1 10 9
M  V30 10 1 11 10
M  V30 11 1 12 11
M  V30 12 1 13 12
M  V30 13 1 14 13
M  V30 14 1 15 14
M  V30 15 1 16 15
M  V30 16 1 17 16
M  V30 17 1 18 17
M  V30 18 2 19 18
M  V30 19 1 20 19
M  V30 20 1 21 20
M  V30 21 1 22 21
M  V30 22 2 23 22
M  V30 23 1 24 23
M  V30 24 1 25 23
M  V30 25 2 26 25
M  V30 26 1 27 18
M  V30 27 2 27 21
M  V30 28 1 27 26
M  V30 29 1 28 17
M  V30 30 1 29 14
M  V30 31 1 29 28
M  V30 32 2 30 5
M  V30 33 1 30 9
M  V30 34 1 31 1
M  V30 35 1 32 1
M  V30 36 1 33 1
M  V30 37 1 34 4
M  V30 38 1 35 6
M  V30 39 1 36 7
M  V30 40 1 37 8
M  V30 41 1 38 11
M  V30 42 1 39 11
M  V30 43 1 40 12
M  V30 44 1 41 12
M  V30 45 1 42 13
M  V30 46 1 43 13
M  V30 47 1 44 15
M  V30 48 1 45 15
M  V30 49 1 46 16
M  V30 50 1 47 16
M  V30 51 1 17 48 CFG=1
M  V30 52 1 49 22
M  V30 53 1 50 25
M  V30 54 1 51 26
M  V30 55 1 52 28
M  V30 56 1 53 28
M  V30 57 1 54 29
M  V30 58 1 55 29
M  V30 59 1 56 30
M  V30 60 1 14 57 CFG=3
M  V30 END BOND
M  V30 END CTAB
M  END
>  <b_m_subgroup_collapsed>  (414) 
0

>  <r_i_docking_score>  (414) 
-8.3575378779844804

>  <s_m_subgroup_title>  (414) 
glide-dock_SP_D22_pv

>  <s_m_subgroupid>  (414) 
glide-dock_SP_D22_pv

>  <Molecule ChEMBL ID>  (414) 
CHEMBL4790288

>  <Standard Type>  (414) 
Ki

>  <Standard Value>  (414) 
10000.0

>  <label>  (414) 
0

$$$$
CHEMBL5090346
     RDKit          3D

  0  0  0  0  0  0  0  0  0  0999 V3000
M  V30 BEGIN CTAB
M  V30 COUNTS 51 53 0 0 1
M  V30 BEGIN ATOM
M  V30 1 N 7.242681 7.456879 -13.034948 0
M  V30 2 C 7.916417 6.536324 -12.855876 0
M  V30 3 C 8.784116 5.365350 -12.632566 0
M  V30 4 C 8.804703 5.060961 -11.097457 0
M  V30 5 C 9.138791 6.218033 -10.131997 0
M  V30 6 N 8.486074 6.098488 -8.808869 0 CHG=1
M  V30 7 C 9.008162 7.014477 -7.769857 0
M  V30 8 C 10.459219 6.693860 -7.361249 0
M  V30 9 C 10.988634 7.599814 -6.272484 0
M  V30 10 C 11.243802 8.955748 -6.561908 0
M  V30 11 C 11.783007 9.796321 -5.574803 0
M  V30 12 C 12.074204 9.289368 -4.291632 0
M  V30 13 C 11.826504 7.935087 -4.001016 0
M  V30 14 C 11.285892 7.089580 -4.990848 0
M  V30 15 C 8.128839 4.120929 -13.275340 0
M  V30 16 C 6.715919 4.021514 -13.344248 0
M  V30 17 C 6.098454 2.861079 -13.842851 0
M  V30 18 C 6.878047 1.790890 -14.322272 0
M  V30 19 C 8.280091 1.866739 -14.255090 0
M  V30 20 C 8.896873 3.005663 -13.702538 0
M  V30 21 C 10.141183 5.770905 -13.271509 0
M  V30 22 C 11.010977 6.704172 -12.646919 0
M  V30 23 C 12.175467 7.160958 -13.290826 0
M  V30 24 C 12.504084 6.710211 -14.581441 0
M  V30 25 C 11.651268 5.812138 -15.236394 0
M  V30 26 C 10.477135 5.371874 -14.598285 0
M  V30 27 H 9.454812 4.205914 -10.895969 0
M  V30 28 H 7.802445 4.721539 -10.830029 0
M  V30 29 H 8.869155 7.189607 -10.543074 0
M  V30 30 H 10.214902 6.203530 -9.989997 0
M  V30 31 H 8.532662 5.146337 -8.477180 0
M  V30 32 H 8.359876 6.934746 -6.897598 0
M  V30 33 H 8.920398 8.043436 -8.122444 0
M  V30 34 H 11.145878 6.809762 -8.198197 0
M  V30 35 H 10.542123 5.656291 -7.047319 0
M  V30 36 H 11.036846 9.353166 -7.544387 0
M  V30 37 H 11.984818 10.829385 -5.821067 0
M  V30 38 H 12.492080 9.933124 -3.531913 0
M  V30 39 H 12.051455 7.541762 -3.021502 0
M  V30 40 H 11.102312 6.048459 -4.759140 0
M  V30 41 H 6.083694 4.819567 -12.981423 0
M  V30 42 H 5.020125 2.791432 -13.846608 0
M  V30 43 H 6.401444 0.904675 -14.717624 0
M  V30 44 H 8.883209 1.033028 -14.584382 0
M  V30 45 H 9.972318 3.001431 -13.593669 0
M  V30 46 H 10.793798 7.166472 -11.706602 0
M  V30 47 H 12.819502 7.876767 -12.798354 0
M  V30 48 H 13.401226 7.066787 -15.068108 0
M  V30 49 H 11.877410 5.490171 -16.243303 0
M  V30 50 H 9.817906 4.756162 -15.194318 0
M  V30 51 H 7.509921 6.368478 -8.927791 0
M  V30 END ATOM
M  V30 BEGIN BOND
M  V30 1 3 2 1
M  V30 2 1 3 2
M  V30 3 1 4 3
M  V30 4 1 5 4
M  V30 5 1 6 5
M  V30 6 1 7 6
M  V30 7 1 8 7
M  V30 8 1 9 8
M  V30 9 2 10 9
M  V30 10 1 11 10
M  V30 11 2 12 11
M  V30 12 1 13 12
M  V30 13 1 14 9
M  V30 14 2 14 13
M  V30 15 1 15 3
M  V30 16 2 16 15
M  V30 17 1 17 16
M  V30 18 2 18 17
M  V30 19 1 19 18
M  V30 20 1 20 15
M  V30 21 2 20 19
M  V30 22 1 21 3
M  V30 23 2 22 21
M  V30 24 1 23 22
M  V30 25 2 24 23
M  V30 26 1 25 24
M  V30 27 1 26 21
M  V30 28 2 26 25
M  V30 29 1 27 4
M  V30 30 1 28 4
M  V30 31 1 29 5
M  V30 32 1 30 5
M  V30 33 1 31 6
M  V30 34 1 32 7
M  V30 35 1 33 7
M  V30 36 1 34 8
M  V30 37 1 35 8
M  V30 38 1 36 10
M  V30 39 1 37 11
M  V30 40 1 38 12
M  V30 41 1 39 13
M  V30 42 1 40 14
M  V30 43 1 41 16
M  V30 44 1 42 17
M  V30 45 1 43 18
M  V30 46 1 44 19
M  V30 47 1 45 20
M  V30 48 1 46 22
M  V30 49 1 47 23
M  V30 50 1 48 24
M  V30 51 1 49 25
M  V30 52 1 50 26
M  V30 53 1 51 6
M  V30 END BOND
M  V30 END CTAB
M  END
>  <b_m_subgroup_collapsed>  (415) 
0

>  <r_i_docking_score>  (415) 
-8.3567975664032907

>  <s_m_subgroup_title>  (415) 
glide-dock_SP_D22_pv

>  <s_m_subgroupid>  (415) 
glide-dock_SP_D22_pv

>  <Molecule ChEMBL ID>  (415) 
CHEMBL5090346

>  <Standard Type>  (415) 
Ki

>  <Standard Value>  (415) 
17600.0

>  <label>  (415) 
0

$$$$
CHEMBL168372
     RDKit          3D

  0  0  0  0  0  0  0  0  0  0999 V3000
M  V30 BEGIN CTAB
M  V30 COUNTS 59 61 0 0 1
M  V30 BEGIN ATOM
M  V30 1 C 5.603302 4.479296 -12.599229 0
M  V30 2 O 6.885812 4.784196 -13.127371 0
M  V30 3 C 7.616464 3.768577 -13.713758 0
M  V30 4 C 6.967232 2.630482 -14.246894 0
M  V30 5 C 7.687767 1.553515 -14.801406 0
M  V30 6 N 6.959572 0.441094 -15.319081 0
M  V30 7 C 7.064442 0.165763 -16.753668 0
M  V30 8 C 6.136653 -0.284378 -14.519704 0
M  V30 9 C 5.224870 -1.343459 -15.146546 0
M  V30 10 O 6.082124 -0.126493 -13.298058 0
M  V30 11 C 9.099978 1.620209 -14.840981 0
M  V30 12 Cl 10.061924 0.313227 -15.446596 0
M  V30 13 C 9.754875 2.768262 -14.356240 0
M  V30 14 C 9.040372 3.855029 -13.796343 0
M  V30 15 C 9.830069 5.047150 -13.291585 0
M  V30 16 O 11.049209 5.121668 -13.447060 0
M  V30 17 N 9.128736 5.989357 -12.650702 0
M  V30 18 C 9.606493 7.167840 -11.945838 0
M  V30 19 C 9.976888 6.839622 -10.484591 0 CFG=2
M  V30 20 C 9.156091 5.690153 -9.856483 0
M  V30 21 C 9.027695 6.079999 -8.398284 0
M  V30 22 N 8.886067 7.541713 -8.473352 0 CFG=1 CHG=1
M  V30 23 C 8.836471 8.299574 -7.204466 0
M  V30 24 C 10.068794 8.206696 -6.311481 0
M  V30 25 C 10.321386 7.029966 -5.576026 0
M  V30 26 C 11.331147 6.992906 -4.601770 0
M  V30 27 C 12.089166 8.146698 -4.343514 0
M  V30 28 C 11.892760 9.307205 -5.115266 0
M  V30 29 C 10.885159 9.338142 -6.099106 0
M  V30 30 C 9.806286 8.027940 -9.517784 0
M  V30 31 H 5.286101 5.292284 -11.946910 0
M  V30 32 H 4.863264 4.381523 -13.393447 0
M  V30 33 H 5.617270 3.566999 -12.000176 0
M  V30 34 H 5.890969 2.560718 -14.237704 0
M  V30 35 H 7.427946 -0.847101 -16.933245 0
M  V30 36 H 6.097818 0.279756 -17.245684 0
M  V30 37 H 7.755416 0.852685 -17.244091 0
M  V30 38 H 5.796695 -2.119399 -15.653836 0
M  V30 39 H 4.623292 -1.824737 -14.376897 0
M  V30 40 H 4.539622 -0.891385 -15.863471 0
M  V30 41 H 10.834933 2.798851 -14.405005 0
M  V30 42 H 8.129723 5.818123 -12.612045 0
M  V30 43 H 8.787115 7.887632 -11.975079 0
M  V30 44 H 10.445348 7.628020 -12.470160 0
M  V30 45 H 11.031642 6.571295 -10.458853 0
M  V30 46 H 9.617750 4.710708 -9.995610 0
M  V30 47 H 8.150220 5.649548 -10.279231 0
M  V30 48 H 9.941851 5.792678 -7.880119 0
M  V30 49 H 8.173114 5.608707 -7.909561 0
M  V30 50 H 7.971097 7.948254 -6.644881 0
M  V30 51 H 8.632203 9.342257 -7.447346 0
M  V30 52 H 9.679277 6.172572 -5.691412 0
M  V30 53 H 11.490808 6.097140 -4.020784 0
M  V30 54 H 12.855709 8.127952 -3.582778 0
M  V30 55 H 12.510822 10.172564 -4.940572 0
M  V30 56 H 10.715076 10.251762 -6.647696 0
M  V30 57 H 9.396270 8.918619 -9.997087 0
M  V30 58 H 10.770126 8.297822 -9.080961 0
M  V30 59 H 7.957205 7.658348 -8.874596 0
M  V30 END ATOM
M  V30 BEGIN BOND
M  V30 1 1 2 1
M  V30 2 1 3 2
M  V30 3 1 4 3
M  V30 4 2 5 4
M  V30 5 1 6 5
M  V30 6 1 7 6
M  V30 7 1 8 6
M  V30 8 1 9 8
M  V30 9 2 10 8
M  V30 10 1 11 5
M  V30 11 1 12 11
M  V30 12 2 13 11
M  V30 13 2 14 3
M  V30 14 1 14 13
M  V30 15 1 15 14
M  V30 16 2 16 15
M  V30 17 1 17 15
M  V30 18 1 18 17
M  V30 19 1 19 18
M  V30 20 1 20 19
M  V30 21 1 21 20
M  V30 22 1 22 21
M  V30 23 1 23 22
M  V30 24 1 24 23
M  V30 25 2 25 24
M  V30 26 1 26 25
M  V30 27 2 27 26
M  V30 28 1 28 27
M  V30 29 1 29 24
M  V30 30 2 29 28
M  V30 31 1 30 19
M  V30 32 1 30 22
M  V30 33 1 31 1
M  V30 34 1 32 1
M  V30 35 1 33 1
M  V30 36 1 34 4
M  V30 37 1 35 7
M  V30 38 1 36 7
M  V30 39 1 37 7
M  V30 40 1 38 9
M  V30 41 1 39 9
M  V30 42 1 40 9
M  V30 43 1 41 13
M  V30 44 1 42 17
M  V30 45 1 43 18
M  V30 46 1 44 18
M  V30 47 1 19 45 CFG=3
M  V30 48 1 46 20
M  V30 49 1 47 20
M  V30 50 1 48 21
M  V30 51 1 49 21
M  V30 52 1 50 23
M  V30 53 1 51 23
M  V30 54 1 52 25
M  V30 55 1 53 26
M  V30 56 1 54 27
M  V30 57 1 55 28
M  V30 58 1 56 29
M  V30 59 1 57 30
M  V30 60 1 58 30
M  V30 61 1 22 59 CFG=3
M  V30 END BOND
M  V30 END CTAB
M  END
>  <b_m_subgroup_collapsed>  (416) 
0

>  <r_i_docking_score>  (416) 
-8.3562050292550705

>  <s_m_subgroup_title>  (416) 
glide-dock_SP_D22_pv

>  <s_m_subgroupid>  (416) 
glide-dock_SP_D22_pv

>  <Molecule ChEMBL ID>  (416) 
CHEMBL168372

>  <Standard Type>  (416) 
Ki

>  <Standard Value>  (416) 
19000.0

>  <label>  (416) 
0

$$$$
CHEMBL419275
     RDKit          3D

  0  0  0  0  0  0  0  0  0  0999 V3000
M  V30 BEGIN CTAB
M  V30 COUNTS 52 56 0 0 1
M  V30 BEGIN ATOM
M  V30 1 O 4.246778 -0.227588 -13.446636 0
M  V30 2 C 5.237227 0.173668 -14.048630 0
M  V30 3 N 5.821149 -0.380361 -15.175522 0
M  V30 4 C 6.904746 0.390398 -15.555208 0
M  V30 5 C 7.793579 0.221866 -16.624327 0
M  V30 6 C 8.819321 1.180439 -16.753557 0
M  V30 7 C 8.925934 2.248945 -15.829563 0
M  V30 8 C 8.019305 2.398916 -14.743458 0
M  V30 9 N 8.189020 3.475822 -13.846522 0
M  V30 10 C 7.079287 3.991023 -13.046682 0
M  V30 11 C 7.348262 5.437577 -12.588286 0
M  V30 12 N 8.706895 5.639143 -12.012671 0 CHG=1
M  V30 13 C 8.919134 7.071003 -11.692032 0
M  V30 14 C 10.196907 7.381892 -10.929281 0
M  V30 15 C 11.354178 7.727873 -11.651259 0
M  V30 16 C 12.486655 8.158843 -10.949763 0
M  V30 17 C 12.434918 8.177183 -9.550659 0
M  V30 18 C 11.236914 7.825284 -8.902484 0
M  V30 19 C 11.172601 7.958322 -7.440717 0
M  V30 20 C 11.133368 6.828213 -6.598389 0
M  V30 21 C 11.285685 6.972179 -5.204555 0
M  V30 22 C 11.471892 8.249582 -4.642589 0
M  V30 23 F 11.685479 8.381742 -3.311654 0
M  V30 24 C 11.435501 9.388727 -5.463970 0
M  V30 25 C 11.283485 9.239515 -6.855192 0
M  V30 26 N 10.135564 7.412151 -9.576284 0
M  V30 27 C 9.772453 5.083377 -12.889113 0
M  V30 28 C 9.510148 3.617704 -13.244136 0
M  V30 29 C 6.990009 1.429666 -14.647555 0
M  V30 30 O 5.979519 1.288803 -13.732517 0
M  V30 31 H 7.699588 -0.604503 -17.313229 0
M  V30 32 H 9.529429 1.102927 -17.563818 0
M  V30 33 H 9.718053 2.968103 -15.974746 0
M  V30 34 H 6.931323 3.372159 -12.164581 0
M  V30 35 H 6.151821 3.955513 -13.619530 0
M  V30 36 H 6.587398 5.748528 -11.868919 0
M  V30 37 H 7.257056 6.099148 -13.445950 0
M  V30 38 H 8.090019 7.422040 -11.096185 0
M  V30 39 H 8.895752 7.654443 -12.617485 0
M  V30 40 H 11.363770 7.710925 -12.731633 0
M  V30 41 H 13.381567 8.459995 -11.474632 0
M  V30 42 H 13.290576 8.512720 -8.983099 0
M  V30 43 H 11.044479 5.842129 -7.028471 0
M  V30 44 H 11.294128 6.098196 -4.570241 0
M  V30 45 H 11.551999 10.372614 -5.034002 0
M  V30 46 H 11.293353 10.118032 -7.481969 0
M  V30 47 H 9.832484 5.673297 -13.805609 0
M  V30 48 H 10.743398 5.158403 -12.405578 0
M  V30 49 H 9.557861 3.000887 -12.345639 0
M  V30 50 H 10.304104 3.253908 -13.894979 0
M  V30 51 H 5.494961 -1.228372 -15.615856 0
M  V30 52 H 8.733951 5.136398 -11.136048 0
M  V30 END ATOM
M  V30 BEGIN BOND
M  V30 1 2 2 1
M  V30 2 1 3 2
M  V30 3 1 4 3
M  V30 4 2 5 4
M  V30 5 1 6 5
M  V30 6 2 7 6
M  V30 7 1 8 7
M  V30 8 1 9 8
M  V30 9 1 10 9
M  V30 10 1 11 10
M  V30 11 1 12 11
M  V30 12 1 13 12
M  V30 13 1 14 13
M  V30 14 1 15 14
M  V30 15 2 16 15
M  V30 16 1 17 16
M  V30 17 2 18 17
M  V30 18 1 19 18
M  V30 19 1 20 19
M  V30 20 2 21 20
M  V30 21 1 22 21
M  V30 22 1 23 22
M  V30 23 2 24 22
M  V30 24 2 25 19
M  V30 25 1 25 24
M  V30 26 2 26 14
M  V30 27 1 26 18
M  V30 28 1 27 12
M  V30 29 1 28 9
M  V30 30 1 28 27
M  V30 31 1 29 4
M  V30 32 2 29 8
M  V30 33 1 30 2
M  V30 34 1 30 29
M  V30 35 1 31 5
M  V30 36 1 32 6
M  V30 37 1 33 7
M  V30 38 1 34 10
M  V30 39 1 35 10
M  V30 40 1 36 11
M  V30 41 1 37 11
M  V30 42 1 38 13
M  V30 43 1 39 13
M  V30 44 1 40 15
M  V30 45 1 41 16
M  V30 46 1 42 17
M  V30 47 1 43 20
M  V30 48 1 44 21
M  V30 49 1 45 24
M  V30 50 1 46 25
M  V30 51 1 47 27
M  V30 52 1 48 27
M  V30 53 1 49 28
M  V30 54 1 50 28
M  V30 55 1 51 3
M  V30 56 1 52 12
M  V30 END BOND
M  V30 END CTAB
M  END
>  <b_m_subgroup_collapsed>  (417) 
0

>  <r_i_docking_score>  (417) 
-8.34922720983635

>  <s_m_subgroup_title>  (417) 
glide-dock_SP_D22_pv

>  <s_m_subgroupid>  (417) 
glide-dock_SP_D22_pv

>  <Molecule ChEMBL ID>  (417) 
CHEMBL419275

>  <Standard Type>  (417) 
Ki

>  <Standard Value>  (417) 
3.0

>  <label>  (417) 
1

$$$$
CHEMBL4440708
     RDKit          3D

  0  0  0  0  0  0  0  0  0  0999 V3000
M  V30 BEGIN CTAB
M  V30 COUNTS 49 51 0 0 1
M  V30 BEGIN ATOM
M  V30 1 O 8.489170 8.302269 -7.263166 0
M  V30 2 C 9.733771 7.664950 -7.470017 0 CFG=1
M  V30 3 C 10.596416 7.874856 -6.211762 0
M  V30 4 C 10.884404 9.189130 -5.766455 0
M  V30 5 C 11.513728 9.410209 -4.523981 0
M  V30 6 C 11.879084 8.320835 -3.714159 0
M  V30 7 Cl 12.486639 8.576359 -2.119737 0
M  V30 8 C 11.686001 7.011767 -4.182058 0
M  V30 9 C 11.051901 6.793930 -5.417964 0
M  V30 10 C 9.437302 6.176694 -7.789717 0
M  V30 11 C 8.734749 5.923633 -9.140803 0
M  V30 12 N 9.438601 6.609472 -10.258204 0 CFG=1 CHG=1
M  V30 13 C 8.852720 6.352627 -11.599728 0
M  V30 14 C 9.131016 4.918974 -12.093360 0
M  V30 15 C 9.248145 4.836075 -13.608257 0
M  V30 16 C 8.614042 4.003555 -14.455517 0
M  V30 17 C 7.564830 3.024060 -14.142734 0
M  V30 18 C 6.444540 3.372322 -13.355727 0
M  V30 19 C 5.466066 2.409876 -13.044433 0
M  V30 20 C 5.599603 1.090985 -13.513415 0
M  V30 21 F 4.655300 0.171278 -13.212790 0
M  V30 22 C 6.706161 0.736227 -14.309218 0
M  V30 23 C 7.678677 1.704510 -14.631695 0
M  V30 24 C 9.614158 8.061124 -9.998118 0
M  V30 25 C 10.403049 8.303555 -8.702739 0
M  V30 26 H 7.772123 7.772037 -7.598823 0
M  V30 27 H 10.546658 10.038912 -6.338667 0
M  V30 28 H 11.666510 10.415571 -4.161526 0
M  V30 29 H 11.968198 6.166365 -3.567197 0
M  V30 30 H 10.878318 5.772957 -5.702462 0
M  V30 31 H 10.374758 5.620773 -7.818574 0
M  V30 32 H 8.835321 5.771103 -6.981394 0
M  V30 33 H 8.720589 4.850274 -9.326917 0
M  V30 34 H 7.687490 6.215528 -9.095444 0
M  V30 35 H 7.782946 6.570719 -11.604553 0
M  V30 36 H 9.303947 7.055304 -12.304529 0
M  V30 37 H 10.085940 4.570550 -11.697635 0
M  V30 38 H 8.381653 4.230538 -11.704299 0
M  V30 39 H 9.969329 5.514514 -14.042009 0
M  V30 40 H 8.885160 4.068623 -15.501021 0
M  V30 41 H 6.330235 4.381938 -12.987267 0
M  V30 42 H 4.610994 2.679434 -12.446790 0
M  V30 43 H 6.807239 -0.278859 -14.673069 0
M  V30 44 H 8.526747 1.421011 -15.235886 0
M  V30 45 H 10.160853 8.521271 -10.821778 0
M  V30 46 H 8.641809 8.559196 -9.956039 0
M  V30 47 H 10.526277 9.375912 -8.558450 0
M  V30 48 H 11.412530 7.903064 -8.814029 0
M  V30 49 H 10.371720 6.222885 -10.282621 0
M  V30 END ATOM
M  V30 BEGIN BOND
M  V30 1 1 2 1 CFG=1
M  V30 2 1 3 2
M  V30 3 1 4 3
M  V30 4 2 5 4
M  V30 5 1 6 5
M  V30 6 1 7 6
M  V30 7 2 8 6
M  V30 8 2 9 3
M  V30 9 1 9 8
M  V30 10 1 10 2
M  V30 11 1 11 10
M  V30 12 1 12 11
M  V30 13 1 13 12
M  V30 14 1 14 13
M  V30 15 1 15 14
M  V30 16 2 16 15
M  V30 17 1 17 16
M  V30 18 1 18 17
M  V30 19 2 19 18
M  V30 20 1 20 19
M  V30 21 1 21 20
M  V30 22 2 22 20
M  V30 23 2 23 17
M  V30 24 1 23 22
M  V30 25 1 24 12
M  V30 26 1 25 2
M  V30 27 1 25 24
M  V30 28 1 26 1
M  V30 29 1 27 4
M  V30 30 1 28 5
M  V30 31 1 29 8
M  V30 32 1 30 9
M  V30 33 1 31 10
M  V30 34 1 32 10
M  V30 35 1 33 11
M  V30 36 1 34 11
M  V30 37 1 35 13
M  V30 38 1 36 13
M  V30 39 1 37 14
M  V30 40 1 38 14
M  V30 41 1 39 15
M  V30 42 1 40 16
M  V30 43 1 41 18
M  V30 44 1 42 19
M  V30 45 1 43 22
M  V30 46 1 44 23
M  V30 47 1 45 24
M  V30 48 1 46 24
M  V30 49 1 47 25
M  V30 50 1 48 25
M  V30 51 1 12 49 CFG=3
M  V30 END BOND
M  V30 END CTAB
M  END
>  <b_m_subgroup_collapsed>  (418) 
0

>  <r_i_docking_score>  (418) 
-8.3487214704987593

>  <s_m_subgroup_title>  (418) 
glide-dock_SP_D22_pv

>  <s_m_subgroupid>  (418) 
glide-dock_SP_D22_pv

>  <Molecule ChEMBL ID>  (418) 
CHEMBL4440708

>  <Standard Type>  (418) 
Ki

>  <Standard Value>  (418) 
29.51

>  <label>  (418) 
1

$$$$
CHEMBL380054
     RDKit          3D

  0  0  0  0  0  0  0  0  0  0999 V3000
M  V30 BEGIN CTAB
M  V30 COUNTS 43 46 0 0 1
M  V30 BEGIN ATOM
M  V30 1 F 12.502200 8.381395 -1.465564 0
M  V30 2 C 12.108113 8.246140 -2.756154 0
M  V30 3 C 12.084561 6.978034 -3.363220 0
M  V30 4 C 11.638717 6.839753 -4.694803 0
M  V30 5 C 11.221879 7.959929 -5.456445 0
M  V30 6 N 10.782899 7.796532 -6.796517 0
M  V30 7 C 10.593931 8.971940 -7.632939 0
M  V30 8 C 10.748191 8.617915 -9.116282 0
M  V30 9 N 9.877522 7.492241 -9.552008 0 CHG=1
M  V30 10 C 10.170893 7.182187 -10.980597 0
M  V30 11 C 9.348651 6.087101 -11.597666 0
M  V30 12 C 8.041186 5.772137 -11.377002 0
M  V30 13 N 7.699469 4.790967 -12.281597 0
M  V30 14 C 6.510451 4.168121 -12.505095 0
M  V30 15 C 6.430109 3.210154 -13.486791 0
M  V30 16 C 7.575429 2.872155 -14.247067 0
M  V30 17 C 8.776751 3.507874 -14.025275 0
M  V30 18 C 8.872077 4.507679 -13.020846 0
M  V30 19 N 9.872499 5.287937 -12.608397 0
M  V30 20 C 9.955023 6.319555 -8.631920 0
M  V30 21 C 9.864964 6.707317 -7.134660 0
M  V30 22 C 11.286118 9.234974 -4.832893 0
M  V30 23 C 11.715762 9.374237 -3.497333 0
M  V30 24 H 12.390569 6.106589 -2.802956 0
M  V30 25 H 11.640548 5.851594 -5.128462 0
M  V30 26 H 9.602364 9.386930 -7.447288 0
M  V30 27 H 11.326879 9.744274 -7.399222 0
M  V30 28 H 10.539712 9.499814 -9.722767 0
M  V30 29 H 11.792439 8.356606 -9.298899 0
M  V30 30 H 10.016048 8.091738 -11.562451 0
M  V30 31 H 11.231931 6.950809 -11.081746 0
M  V30 32 H 7.286091 6.162488 -10.710952 0
M  V30 33 H 5.675452 4.462776 -11.877494 0
M  V30 34 H 5.486256 2.705895 -13.670219 0
M  V30 35 H 7.508437 2.107520 -15.015030 0
M  V30 36 H 9.657502 3.258832 -14.607622 0
M  V30 37 H 9.156303 5.613841 -8.859849 0
M  V30 38 H 10.885385 5.787097 -8.808307 0
M  V30 39 H 10.046563 5.820343 -6.532904 0
M  V30 40 H 8.848734 7.030193 -6.900519 0
M  V30 41 H 10.977064 10.131360 -5.347265 0
M  V30 42 H 11.735530 10.350667 -3.034843 0
M  V30 43 H 8.916119 7.809133 -9.513805 0
M  V30 END ATOM
M  V30 BEGIN BOND
M  V30 1 1 2 1
M  V30 2 1 3 2
M  V30 3 2 4 3
M  V30 4 1 5 4
M  V30 5 1 6 5
M  V30 6 1 7 6
M  V30 7 1 8 7
M  V30 8 1 9 8
M  V30 9 1 10 9
M  V30 10 1 11 10
M  V30 11 2 12 11
M  V30 12 1 13 12
M  V30 13 1 14 13
M  V30 14 2 15 14
M  V30 15 1 16 15
M  V30 16 2 17 16
M  V30 17 1 18 13
M  V30 18 1 18 17
M  V30 19 1 19 11
M  V30 20 2 19 18
M  V30 21 1 20 9
M  V30 22 1 21 6
M  V30 23 1 21 20
M  V30 24 2 22 5
M  V30 25 2 23 2
M  V30 26 1 23 22
M  V30 27 1 24 3
M  V30 28 1 25 4
M  V30 29 1 26 7
M  V30 30 1 27 7
M  V30 31 1 28 8
M  V30 32 1 29 8
M  V30 33 1 30 10
M  V30 34 1 31 10
M  V30 35 1 32 12
M  V30 36 1 33 14
M  V30 37 1 34 15
M  V30 38 1 35 16
M  V30 39 1 36 17
M  V30 40 1 37 20
M  V30 41 1 38 20
M  V30 42 1 39 21
M  V30 43 1 40 21
M  V30 44 1 41 22
M  V30 45 1 42 23
M  V30 46 1 43 9
M  V30 END BOND
M  V30 END CTAB
M  END
>  <b_m_subgroup_collapsed>  (419) 
0

>  <r_i_docking_score>  (419) 
-8.3484567639802894

>  <s_m_subgroup_title>  (419) 
glide-dock_SP_D22_pv

>  <s_m_subgroupid>  (419) 
glide-dock_SP_D22_pv

>  <Molecule ChEMBL ID>  (419) 
CHEMBL380054

>  <Standard Type>  (419) 
Ki

>  <Standard Value>  (419) 
19000.0

>  <label>  (419) 
0

$$$$
CHEMBL194206
     RDKit          3D

  0  0  0  0  0  0  0  0  0  0999 V3000
M  V30 BEGIN CTAB
M  V30 COUNTS 62 65 0 0 1
M  V30 BEGIN ATOM
M  V30 1 C 7.984300 2.407612 -15.137946 0
M  V30 2 O 8.909942 3.483238 -15.047759 0
M  V30 3 C 8.938684 4.221015 -13.881953 0
M  V30 4 C 7.882641 4.188686 -12.935668 0
M  V30 5 C 7.926781 4.975372 -11.770784 0
M  V30 6 C 9.028264 5.811007 -11.519837 0
M  V30 7 N 9.028507 6.570393 -10.316445 0
M  V30 8 C 9.835194 7.585223 -9.949846 0
M  V30 9 O 10.616423 8.144607 -10.722796 0
M  V30 10 N 9.682295 7.993257 -8.667624 0
M  V30 11 C 9.073433 7.216918 -7.570848 0
M  V30 12 C 10.186363 6.611889 -6.682865 0
M  V30 13 N 11.182095 7.624542 -6.327452 0
M  V30 14 C 11.503480 7.873569 -4.982149 0
M  V30 15 C 11.686008 6.794483 -4.088409 0
M  V30 16 C 12.086173 7.023750 -2.757561 0
M  V30 17 C 12.300232 8.339690 -2.309304 0
M  V30 18 F 12.721953 8.572327 -1.046954 0
M  V30 19 C 12.084706 9.420494 -3.177490 0
M  V30 20 C 11.689024 9.191862 -4.507558 0
M  V30 21 C 11.676122 8.502913 -7.384760 0
M  V30 22 C 10.480492 9.100686 -8.133529 0
M  V30 23 C 10.086043 5.834301 -12.453129 0
M  V30 24 C 10.053835 5.069522 -13.641388 0
M  V30 25 N 11.113936 5.175004 -14.571657 0
M  V30 26 C 11.872392 3.961353 -14.855282 0
M  V30 27 C 12.659713 4.117443 -16.169800 0
M  V30 28 N 13.493159 5.346722 -16.156542 0 CHG=1
M  V30 29 C 14.338246 5.478528 -17.361696 0
M  V30 30 C 12.687449 6.559337 -15.883593 0
M  V30 31 C 11.917849 6.399325 -14.565480 0
M  V30 32 H 8.175907 1.849301 -16.054358 0
M  V30 33 H 8.094444 1.714883 -14.301632 0
M  V30 34 H 6.953249 2.761257 -15.179316 0
M  V30 35 H 7.008236 3.572816 -13.081786 0
M  V30 36 H 7.105253 4.938074 -11.069916 0
M  V30 37 H 8.280833 6.364301 -9.668258 0
M  V30 38 H 8.399611 6.429502 -7.907291 0
M  V30 39 H 8.451615 7.886860 -6.975359 0
M  V30 40 H 10.690618 5.804760 -7.216664 0
M  V30 41 H 9.733056 6.173218 -5.793907 0
M  V30 42 H 11.556808 5.776402 -4.425678 0
M  V30 43 H 12.243964 6.189128 -2.090631 0
M  V30 44 H 12.227702 10.428064 -2.818765 0
M  V30 45 H 11.531610 10.042465 -5.153578 0
M  V30 46 H 12.331052 9.289099 -7.010436 0
M  V30 47 H 12.286189 7.912060 -8.069270 0
M  V30 48 H 10.835148 9.771750 -8.915485 0
M  V30 49 H 9.874669 9.703449 -7.454217 0
M  V30 50 H 10.954642 6.435021 -12.251449 0
M  V30 51 H 12.557907 3.785046 -14.026772 0
M  V30 52 H 11.234406 3.080928 -14.914173 0
M  V30 53 H 13.286366 3.240824 -16.326069 0
M  V30 54 H 11.964327 4.159109 -17.010744 0
M  V30 55 H 13.726307 5.583686 -18.258512 0
M  V30 56 H 14.986890 6.351833 -17.286055 0
M  V30 57 H 14.974211 4.600626 -17.480194 0
M  V30 58 H 13.334531 7.435549 -15.824967 0
M  V30 59 H 11.988286 6.733435 -16.703846 0
M  V30 60 H 11.293499 7.276488 -14.406484 0
M  V30 61 H 12.626039 6.360796 -13.736804 0
M  V30 62 H 14.119691 5.255258 -15.371482 0
M  V30 END ATOM
M  V30 BEGIN BOND
M  V30 1 1 2 1
M  V30 2 1 3 2
M  V30 3 1 4 3
M  V30 4 2 5 4
M  V30 5 1 6 5
M  V30 6 1 7 6
M  V30 7 1 8 7
M  V30 8 2 9 8
M  V30 9 1 10 8
M  V30 10 1 11 10
M  V30 11 1 12 11
M  V30 12 1 13 12
M  V30 13 1 14 13
M  V30 14 1 15 14
M  V30 15 2 16 15
M  V30 16 1 17 16
M  V30 17 1 18 17
M  V30 18 2 19 17
M  V30 19 2 20 14
M  V30 20 1 20 19
M  V30 21 1 21 13
M  V30 22 1 22 10
M  V30 23 1 22 21
M  V30 24 2 23 6
M  V30 25 2 24 3
M  V30 26 1 24 23
M  V30 27 1 25 24
M  V30 28 1 26 25
M  V30 29 1 27 26
M  V30 30 1 28 27
M  V30 31 1 29 28
M  V30 32 1 30 28
M  V30 33 1 31 25
M  V30 34 1 31 30
M  V30 35 1 32 1
M  V30 36 1 33 1
M  V30 37 1 34 1
M  V30 38 1 35 4
M  V30 39 1 36 5
M  V30 40 1 37 7
M  V30 41 1 38 11
M  V30 42 1 39 11
M  V30 43 1 40 12
M  V30 44 1 41 12
M  V30 45 1 42 15
M  V30 46 1 43 16
M  V30 47 1 44 19
M  V30 48 1 45 20
M  V30 49 1 46 21
M  V30 50 1 47 21
M  V30 51 1 48 22
M  V30 52 1 49 22
M  V30 53 1 50 23
M  V30 54 1 51 26
M  V30 55 1 52 26
M  V30 56 1 53 27
M  V30 57 1 54 27
M  V30 58 1 55 29
M  V30 59 1 56 29
M  V30 60 1 57 29
M  V30 61 1 58 30
M  V30 62 1 59 30
M  V30 63 1 60 31
M  V30 64 1 61 31
M  V30 65 1 62 28
M  V30 END BOND
M  V30 END CTAB
M  END
>  <b_m_subgroup_collapsed>  (420) 
0

>  <r_i_docking_score>  (420) 
-8.3442693112720896

>  <s_m_subgroup_title>  (420) 
glide-dock_SP_D22_pv

>  <s_m_subgroupid>  (420) 
glide-dock_SP_D22_pv

>  <Molecule ChEMBL ID>  (420) 
CHEMBL194206

>  <Standard Type>  (420) 
Ki

>  <Standard Value>  (420) 
10000.0

>  <label>  (420) 
0

$$$$
CHEMBL199186
     RDKit          3D

  0  0  0  0  0  0  0  0  0  0999 V3000
M  V30 BEGIN CTAB
M  V30 COUNTS 49 52 0 0 1
M  V30 BEGIN ATOM
M  V30 1 O 11.429990 7.772891 -10.946054 0
M  V30 2 C 10.474789 7.601106 -10.187373 0
M  V30 3 N 9.286048 7.141336 -10.595308 0
M  V30 4 C 9.092724 6.489386 -11.881639 0 CFG=1
M  V30 5 C 9.685973 5.080125 -11.915322 0
M  V30 6 C 8.542547 4.172359 -12.330544 0
M  V30 7 N 7.553632 5.035924 -12.998433 0 CFG=1 CHG=1
M  V30 8 C 6.180835 4.472793 -13.078809 0
M  V30 9 C 6.128723 3.006446 -13.478104 0
M  V30 10 C 5.285795 2.131242 -12.767417 0
M  V30 11 C 5.170107 0.788420 -13.161240 0
M  V30 12 C 5.910922 0.294321 -14.245723 0
M  V30 13 Cl 5.682047 -1.345891 -14.718589 0
M  V30 14 C 6.799488 1.148255 -14.932728 0
M  V30 15 Cl 7.750451 0.575416 -16.254438 0
M  V30 16 C 6.892681 2.503069 -14.553953 0
M  V30 17 C 7.619072 6.298950 -12.247066 0
M  V30 18 C 10.614973 7.856452 -8.722403 0
M  V30 19 C 10.192730 6.900459 -7.773066 0
M  V30 20 C 10.487629 7.080733 -6.407010 0
M  V30 21 C 11.203655 8.216515 -5.971972 0
M  V30 22 C 11.578909 8.395041 -4.576948 0
M  V30 23 C 11.625378 9.558470 -3.856158 0
M  V30 24 C 12.086154 9.362108 -2.525046 0
M  V30 25 C 12.396939 8.059664 -2.248758 0
M  V30 26 S 12.085975 7.027266 -3.612031 0
M  V30 27 C 11.573476 9.192691 -6.919626 0
M  V30 28 C 11.287976 9.009808 -8.284490 0
M  V30 29 H 8.510393 7.145428 -9.944160 0
M  V30 30 H 9.568385 7.099941 -12.647772 0
M  V30 31 H 10.497531 5.034748 -12.642285 0
M  V30 32 H 10.085991 4.761274 -10.952328 0
M  V30 33 H 8.889145 3.343757 -12.948520 0
M  V30 34 H 8.074345 3.772438 -11.434377 0
M  V30 35 H 5.691887 4.575904 -12.107755 0
M  V30 36 H 5.586155 5.052438 -13.784753 0
M  V30 37 H 4.708424 2.485106 -11.930905 0
M  V30 38 H 4.486184 0.139390 -12.642953 0
M  V30 39 H 7.570185 3.148036 -15.089940 0
M  V30 40 H 7.030734 6.171901 -11.341107 0
M  V30 41 H 7.207007 7.139847 -12.805123 0
M  V30 42 H 9.679776 6.003238 -8.087590 0
M  V30 43 H 10.183094 6.326929 -5.695613 0
M  V30 44 H 11.344696 10.533384 -4.229868 0
M  V30 45 H 12.182074 10.171982 -1.823392 0
M  V30 46 H 12.781609 7.647303 -1.331174 0
M  V30 47 H 12.118722 10.073141 -6.607859 0
M  V30 48 H 11.616802 9.755657 -8.998181 0
M  V30 49 H 7.892126 5.206031 -13.934192 0
M  V30 END ATOM
M  V30 BEGIN BOND
M  V30 1 2 2 1
M  V30 2 1 3 2
M  V30 3 1 4 3
M  V30 4 1 5 4
M  V30 5 1 6 5
M  V30 6 1 7 6
M  V30 7 1 8 7
M  V30 8 1 9 8
M  V30 9 1 10 9
M  V30 10 2 11 10
M  V30 11 1 12 11
M  V30 12 1 13 12
M  V30 13 2 14 12
M  V30 14 1 15 14
M  V30 15 2 16 9
M  V30 16 1 16 14
M  V30 17 1 17 4
M  V30 18 1 17 7
M  V30 19 1 18 2
M  V30 20 1 19 18
M  V30 21 2 20 19
M  V30 22 1 21 20
M  V30 23 1 22 21
M  V30 24 2 23 22
M  V30 25 1 24 23
M  V30 26 2 25 24
M  V30 27 1 26 22
M  V30 28 1 26 25
M  V30 29 2 27 21
M  V30 30 2 28 18
M  V30 31 1 28 27
M  V30 32 1 29 3
M  V30 33 1 4 30 CFG=3
M  V30 34 1 31 5
M  V30 35 1 32 5
M  V30 36 1 33 6
M  V30 37 1 34 6
M  V30 38 1 35 8
M  V30 39 1 36 8
M  V30 40 1 37 10
M  V30 41 1 38 11
M  V30 42 1 39 16
M  V30 43 1 40 17
M  V30 44 1 41 17
M  V30 45 1 42 19
M  V30 46 1 43 20
M  V30 47 1 44 23
M  V30 48 1 45 24
M  V30 49 1 46 25
M  V30 50 1 47 27
M  V30 51 1 48 28
M  V30 52 1 7 49 CFG=3
M  V30 END BOND
M  V30 END CTAB
M  END
>  <b_m_subgroup_collapsed>  (421) 
0

>  <r_i_docking_score>  (421) 
-8.3427105620191604

>  <s_m_subgroup_title>  (421) 
glide-dock_SP_D22_pv

>  <s_m_subgroupid>  (421) 
glide-dock_SP_D22_pv

>  <Molecule ChEMBL ID>  (421) 
CHEMBL199186

>  <Standard Type>  (421) 
Ki

>  <Standard Value>  (421) 
29000.0

>  <label>  (421) 
0

$$$$
CHEMBL1171249
     RDKit          3D

  0  0  0  0  0  0  0  0  0  0999 V3000
M  V30 BEGIN CTAB
M  V30 COUNTS 45 48 0 0 1
M  V30 BEGIN ATOM
M  V30 1 O 7.859227 7.028357 -12.246899 0
M  V30 2 C 9.030938 6.699806 -11.522664 0 CFG=1
M  V30 3 C 10.082827 6.155612 -12.504803 0
M  V30 4 C 11.283894 6.850896 -12.799573 0
M  V30 5 C 12.142612 6.396770 -13.816068 0
M  V30 6 C 11.840937 5.227669 -14.533735 0
M  V30 7 I 13.114186 4.596291 -16.066278 0
M  V30 8 C 10.672556 4.506411 -14.231339 0
M  V30 9 C 9.797051 4.974399 -13.231767 0
M  V30 10 C 9.443776 8.006343 -10.796315 0
M  V30 11 C 10.459091 7.749200 -9.668190 0
M  V30 12 N 9.863300 6.855998 -8.639057 0 CFG=2 CHG=1
M  V30 13 C 10.690792 6.692720 -7.411949 0
M  V30 14 C 10.819129 7.883642 -6.493343 0
M  V30 15 C 10.553656 9.218943 -6.707309 0
M  V30 16 O 10.882762 10.005219 -5.637159 0
M  V30 17 C 11.323559 9.153599 -4.652783 0
M  V30 18 C 11.737021 9.491773 -3.355514 0
M  V30 19 C 12.124824 8.460223 -2.480296 0
M  V30 20 C 12.094411 7.120245 -2.919099 0
M  V30 21 C 11.685959 6.806858 -4.233257 0
M  V30 22 C 11.286171 7.820938 -5.133965 0
M  V30 23 C 9.559553 5.533906 -9.252714 0
M  V30 24 C 8.604574 5.656348 -10.451207 0
M  V30 25 H 7.217039 7.364824 -11.615910 0
M  V30 26 H 11.552764 7.768066 -12.301154 0
M  V30 27 H 13.038804 6.952691 -14.050739 0
M  V30 28 H 10.431633 3.611878 -14.787020 0
M  V30 29 H 8.878001 4.436626 -13.054658 0
M  V30 30 H 9.802554 8.760017 -11.497783 0
M  V30 31 H 8.566128 8.466230 -10.339247 0
M  V30 32 H 11.371391 7.294194 -10.054755 0
M  V30 33 H 10.767505 8.704875 -9.257719 0
M  V30 34 H 10.263253 5.875476 -6.830508 0
M  V30 35 H 11.682749 6.351617 -7.699989 0
M  V30 36 H 10.154421 9.772047 -7.540550 0
M  V30 37 H 11.742969 10.522495 -3.032080 0
M  V30 38 H 12.434170 8.696473 -1.471771 0
M  V30 39 H 12.382268 6.325209 -2.245072 0
M  V30 40 H 11.666042 5.773714 -4.548411 0
M  V30 41 H 10.485401 5.050907 -9.560908 0
M  V30 42 H 9.100862 4.877892 -8.510755 0
M  V30 43 H 7.657187 5.958879 -10.020451 0
M  V30 44 H 8.409741 4.676388 -10.886164 0
M  V30 45 H 8.978111 7.255065 -8.351123 0
M  V30 END ATOM
M  V30 BEGIN BOND
M  V30 1 1 2 1 CFG=3
M  V30 2 1 3 2
M  V30 3 1 4 3
M  V30 4 2 5 4
M  V30 5 1 6 5
M  V30 6 1 7 6
M  V30 7 2 8 6
M  V30 8 2 9 3
M  V30 9 1 9 8
M  V30 10 1 10 2
M  V30 11 1 11 10
M  V30 12 1 12 11
M  V30 13 1 13 12
M  V30 14 1 14 13
M  V30 15 2 15 14
M  V30 16 1 16 15
M  V30 17 1 17 16
M  V30 18 2 18 17
M  V30 19 1 19 18
M  V30 20 2 20 19
M  V30 21 1 21 20
M  V30 22 1 22 14
M  V30 23 1 22 17
M  V30 24 2 22 21
M  V30 25 1 23 12
M  V30 26 1 24 2
M  V30 27 1 24 23
M  V30 28 1 25 1
M  V30 29 1 26 4
M  V30 30 1 27 5
M  V30 31 1 28 8
M  V30 32 1 29 9
M  V30 33 1 30 10
M  V30 34 1 31 10
M  V30 35 1 32 11
M  V30 36 1 33 11
M  V30 37 1 34 13
M  V30 38 1 35 13
M  V30 39 1 36 15
M  V30 40 1 37 18
M  V30 41 1 38 19
M  V30 42 1 39 20
M  V30 43 1 40 21
M  V30 44 1 41 23
M  V30 45 1 42 23
M  V30 46 1 43 24
M  V30 47 1 44 24
M  V30 48 1 12 45 CFG=1
M  V30 END BOND
M  V30 END CTAB
M  END
>  <b_m_subgroup_collapsed>  (422) 
0

>  <r_i_docking_score>  (422) 
-8.3426640370352292

>  <s_m_subgroup_title>  (422) 
glide-dock_SP_D22_pv

>  <s_m_subgroupid>  (422) 
glide-dock_SP_D22_pv

>  <Molecule ChEMBL ID>  (422) 
CHEMBL1171249

>  <Standard Type>  (422) 
Ki

>  <Standard Value>  (422) 
2.4

>  <label>  (422) 
1

$$$$
CHEMBL4446350
     RDKit          3D

  0  0  0  0  0  0  0  0  0  0999 V3000
M  V30 BEGIN CTAB
M  V30 COUNTS 60 63 0 0 1
M  V30 BEGIN ATOM
M  V30 1 O 11.325264 7.638381 -11.167716 0
M  V30 2 C 10.454240 7.339489 -10.350694 0
M  V30 3 N 9.276350 6.799259 -10.684881 0
M  V30 4 C 8.833805 6.562246 -12.046082 0
M  V30 5 C 9.342530 5.219559 -12.611763 0
M  V30 6 C 9.069723 5.106304 -14.123170 0
M  V30 7 C 9.250900 3.706603 -14.740882 0
M  V30 8 N 8.342199 2.660780 -14.202324 0 CHG=1
M  V30 9 C 6.885080 2.954270 -14.322897 0
M  V30 10 C 6.023350 1.882201 -13.628181 0
M  V30 11 N 6.411213 0.547963 -14.077304 0
M  V30 12 C 5.536326 -0.127952 -14.944579 0
M  V30 13 C 4.189001 -0.286771 -14.560686 0
M  V30 14 C 3.281305 -0.933048 -15.412699 0
M  V30 15 C 3.694864 -1.424729 -16.662182 0
M  V30 16 C 5.037105 -1.274982 -17.054193 0
M  V30 17 Cl 5.558945 -1.865719 -18.586393 0
M  V30 18 C 5.952243 -0.628028 -16.201071 0
M  V30 19 C 7.831920 0.222574 -14.084947 0
M  V30 20 C 8.671303 1.321719 -14.751827 0
M  V30 21 C 10.644063 7.606777 -8.890420 0
M  V30 22 C 10.085007 6.747823 -7.918286 0
M  V30 23 C 10.344754 6.963703 -6.555060 0
M  V30 24 C 11.167706 8.030361 -6.143407 0
M  V30 25 C 11.520608 8.167401 -4.733674 0
M  V30 26 C 11.742251 9.443815 -4.133444 0
M  V30 27 C 12.086054 9.367548 -2.812262 0
M  V30 28 S 12.105476 7.726181 -2.252064 0
M  V30 29 C 11.686337 7.144062 -3.833962 0
M  V30 30 C 11.687378 8.915330 -7.110290 0
M  V30 31 C 11.440050 8.694534 -8.476544 0
M  V30 32 H 8.582501 6.686215 -9.957699 0
M  V30 33 H 7.743467 6.584104 -12.057377 0
M  V30 34 H 9.161574 7.408350 -12.646595 0
M  V30 35 H 10.415174 5.113167 -12.433805 0
M  V30 36 H 8.857447 4.407324 -12.068308 0
M  V30 37 H 8.085787 5.500679 -14.355621 0
M  V30 38 H 9.762998 5.772281 -14.634433 0
M  V30 39 H 9.114918 3.772504 -15.821810 0
M  V30 40 H 10.284004 3.391455 -14.581046 0
M  V30 41 H 6.633096 3.925439 -13.899955 0
M  V30 42 H 6.617491 2.972198 -15.379115 0
M  V30 43 H 6.086335 1.943277 -12.542137 0
M  V30 44 H 4.975645 2.084474 -13.846832 0
M  V30 45 H 3.840270 0.085623 -13.609016 0
M  V30 46 H 2.250159 -1.027460 -15.109571 0
M  V30 47 H 2.982450 -1.915752 -17.310225 0
M  V30 48 H 6.972949 -0.513503 -16.533400 0
M  V30 49 H 8.145318 0.092856 -13.052612 0
M  V30 50 H 8.014014 -0.727714 -14.579309 0
M  V30 51 H 8.500300 1.323236 -15.828816 0
M  V30 52 H 9.729876 1.103757 -14.599627 0
M  V30 53 H 9.475374 5.902495 -8.203940 0
M  V30 54 H 9.925553 6.283163 -5.827992 0
M  V30 55 H 11.646865 10.366773 -4.684236 0
M  V30 56 H 12.318493 10.171811 -2.129367 0
M  V30 57 H 11.581649 6.082491 -4.002132 0
M  V30 58 H 12.328011 9.734983 -6.818834 0
M  V30 59 H 11.880665 9.358041 -9.208266 0
M  V30 60 H 8.538092 2.605798 -13.212465 0
M  V30 END ATOM
M  V30 BEGIN BOND
M  V30 1 2 2 1
M  V30 2 1 3 2
M  V30 3 1 4 3
M  V30 4 1 5 4
M  V30 5 1 6 5
M  V30 6 1 7 6
M  V30 7 1 8 7
M  V30 8 1 9 8
M  V30 9 1 10 9
M  V30 10 1 11 10
M  V30 11 1 12 11
M  V30 12 2 13 12
M  V30 13 1 14 13
M  V30 14 2 15 14
M  V30 15 1 16 15
M  V30 16 1 17 16
M  V30 17 1 18 12
M  V30 18 2 18 16
M  V30 19 1 19 11
M  V30 20 1 20 8
M  V30 21 1 20 19
M  V30 22 1 21 2
M  V30 23 1 22 21
M  V30 24 2 23 22
M  V30 25 1 24 23
M  V30 26 1 25 24
M  V30 27 1 26 25
M  V30 28 2 27 26
M  V30 29 1 28 27
M  V30 30 2 29 25
M  V30 31 1 29 28
M  V30 32 2 30 24
M  V30 33 2 31 21
M  V30 34 1 31 30
M  V30 35 1 32 3
M  V30 36 1 33 4
M  V30 37 1 34 4
M  V30 38 1 35 5
M  V30 39 1 36 5
M  V30 40 1 37 6
M  V30 41 1 38 6
M  V30 42 1 39 7
M  V30 43 1 40 7
M  V30 44 1 41 9
M  V30 45 1 42 9
M  V30 46 1 43 10
M  V30 47 1 44 10
M  V30 48 1 45 13
M  V30 49 1 46 14
M  V30 50 1 47 15
M  V30 51 1 48 18
M  V30 52 1 49 19
M  V30 53 1 50 19
M  V30 54 1 51 20
M  V30 55 1 52 20
M  V30 56 1 53 22
M  V30 57 1 54 23
M  V30 58 1 55 26
M  V30 59 1 56 27
M  V30 60 1 57 29
M  V30 61 1 58 30
M  V30 62 1 59 31
M  V30 63 1 60 8
M  V30 END BOND
M  V30 END CTAB
M  END
>  <b_m_subgroup_collapsed>  (423) 
0

>  <r_i_docking_score>  (423) 
-8.3409156965118196

>  <s_m_subgroup_title>  (423) 
glide-dock_SP_D22_pv

>  <s_m_subgroupid>  (423) 
glide-dock_SP_D22_pv

>  <Molecule ChEMBL ID>  (423) 
CHEMBL4446350

>  <Standard Type>  (423) 
Ki

>  <Standard Value>  (423) 
12046.0

>  <label>  (423) 
0

$$$$
CHEMBL3289643
     RDKit          3D

  0  0  0  0  0  0  0  0  0  0999 V3000
M  V30 BEGIN CTAB
M  V30 COUNTS 48 51 0 0 1
M  V30 BEGIN ATOM
M  V30 1 O 10.899858 10.351187 -6.186063 0
M  V30 2 C 11.071583 9.192103 -5.818202 0
M  V30 3 C 11.596115 8.739719 -4.529585 0
M  V30 4 C 12.009259 9.498119 -3.420325 0
M  V30 5 C 12.479250 8.820759 -2.275908 0
M  V30 6 C 12.486014 7.409937 -2.246968 0
M  V30 7 C 12.059636 6.664994 -3.358054 0
M  V30 8 C 11.608994 7.353421 -4.492778 0
M  V30 9 C 11.048487 6.742458 -5.746061 0
M  V30 10 C 10.691139 7.951200 -6.647102 0 CFG=2
M  V30 11 C 11.386312 7.853501 -8.016573 0
M  V30 12 C 10.977517 8.945910 -9.032080 0
M  V30 13 N 10.905933 8.487613 -10.419931 0
M  V30 14 C 9.736073 7.628644 -10.630779 0
M  V30 15 C 9.592860 7.350446 -12.129810 0
M  V30 16 N 10.786119 6.657447 -12.608447 0
M  V30 17 C 10.717184 5.424942 -13.288954 0
M  V30 18 C 9.678910 4.504979 -13.007787 0
M  V30 19 C 9.609165 3.271147 -13.678851 0
M  V30 20 C 10.579537 2.930924 -14.636250 0
M  V30 21 Cl 10.486176 1.412894 -15.450170 0
M  V30 22 C 11.623598 3.830338 -14.920189 0
M  V30 23 C 11.692447 5.069101 -14.251875 0
M  V30 24 C 12.049479 7.347820 -12.356462 0
M  V30 25 C 12.137878 7.830811 -10.884390 0
M  V30 26 H 11.952771 10.572215 -3.431087 0
M  V30 27 H 12.819317 9.379986 -1.417662 0
M  V30 28 H 12.885436 6.890520 -1.391778 0
M  V30 29 H 12.086796 5.591383 -3.332344 0
M  V30 30 H 11.779671 6.072923 -6.199412 0
M  V30 31 H 10.151814 6.172347 -5.504916 0
M  V30 32 H 9.610359 7.973650 -6.795977 0
M  V30 33 H 12.470644 7.866763 -7.890399 0
M  V30 34 H 11.150752 6.863389 -8.405338 0
M  V30 35 H 10.007606 9.368695 -8.763398 0
M  V30 36 H 11.685632 9.771560 -8.980322 0
M  V30 37 H 9.811916 6.691528 -10.081292 0
M  V30 38 H 8.843489 8.140269 -10.273873 0
M  V30 39 H 8.669153 6.809227 -12.334678 0
M  V30 40 H 9.504602 8.306488 -12.646386 0
M  V30 41 H 8.934278 4.718067 -12.255956 0
M  V30 42 H 8.815734 2.578467 -13.448196 0
M  V30 43 H 12.375572 3.571543 -15.651378 0
M  V30 44 H 12.495096 5.747416 -14.498755 0
M  V30 45 H 12.886018 6.679154 -12.545815 0
M  V30 46 H 12.163151 8.170031 -13.059720 0
M  V30 47 H 12.978658 8.518084 -10.775794 0
M  V30 48 H 12.355670 6.972091 -10.254662 0
M  V30 END ATOM
M  V30 BEGIN BOND
M  V30 1 2 2 1
M  V30 2 1 3 2
M  V30 3 2 4 3
M  V30 4 1 5 4
M  V30 5 2 6 5
M  V30 6 1 7 6
M  V30 7 1 8 3
M  V30 8 2 8 7
M  V30 9 1 9 8
M  V30 10 1 10 2
M  V30 11 1 10 9
M  V30 12 1 11 10
M  V30 13 1 12 11
M  V30 14 1 13 12
M  V30 15 1 14 13
M  V30 16 1 15 14
M  V30 17 1 16 15
M  V30 18 1 17 16
M  V30 19 1 18 17
M  V30 20 2 19 18
M  V30 21 1 20 19
M  V30 22 1 21 20
M  V30 23 2 22 20
M  V30 24 2 23 17
M  V30 25 1 23 22
M  V30 26 1 24 16
M  V30 27 1 25 13
M  V30 28 1 25 24
M  V30 29 1 26 4
M  V30 30 1 27 5
M  V30 31 1 28 6
M  V30 32 1 29 7
M  V30 33 1 30 9
M  V30 34 1 31 9
M  V30 35 1 10 32 CFG=3
M  V30 36 1 33 11
M  V30 37 1 34 11
M  V30 38 1 35 12
M  V30 39 1 36 12
M  V30 40 1 37 14
M  V30 41 1 38 14
M  V30 42 1 39 15
M  V30 43 1 40 15
M  V30 44 1 41 18
M  V30 45 1 42 19
M  V30 46 1 43 22
M  V30 47 1 44 23
M  V30 48 1 45 24
M  V30 49 1 46 24
M  V30 50 1 47 25
M  V30 51 1 48 25
M  V30 END BOND
M  V30 END CTAB
M  END
>  <b_m_subgroup_collapsed>  (424) 
0

>  <r_i_docking_score>  (424) 
-8.3403246034815304

>  <s_m_subgroup_title>  (424) 
glide-dock_SP_D22_pv

>  <s_m_subgroupid>  (424) 
glide-dock_SP_D22_pv

>  <Molecule ChEMBL ID>  (424) 
CHEMBL3289643

>  <Standard Type>  (424) 
Ki

>  <Standard Value>  (424) 
10000.0

>  <label>  (424) 
0

$$$$
CHEMBL3918282
     RDKit          3D

  0  0  0  0  0  0  0  0  0  0999 V3000
M  V30 BEGIN CTAB
M  V30 COUNTS 68 71 0 0 1
M  V30 BEGIN ATOM
M  V30 1 O 8.011288 2.245270 -15.234256 0
M  V30 2 S 9.427505 2.823761 -15.197194 0
M  V30 3 C 9.304354 4.445528 -14.307193 0
M  V30 4 C 8.978172 4.132715 -12.840476 0
M  V30 5 N 9.320779 5.255226 -11.971347 0
M  V30 6 C 8.394490 6.377008 -12.133612 0
M  V30 7 C 8.897676 7.553793 -11.279389 0
M  V30 8 N 8.929873 7.178232 -9.841575 0 CHG=1
M  V30 9 C 9.293119 8.341337 -8.981554 0
M  V30 10 C 9.429845 8.060281 -7.459177 0 CFG=1
M  V30 11 O 8.486238 7.094481 -7.046890 0
M  V30 12 C 10.868431 7.655859 -7.040851 0
M  V30 13 C 11.222747 7.882555 -5.575198 0
M  V30 14 C 11.500742 6.779910 -4.737326 0
M  V30 15 C 11.939891 6.975789 -3.412948 0
M  V30 16 C 12.085618 8.281646 -2.908436 0
M  V30 17 C 11.772336 9.383841 -3.726181 0
M  V30 18 C 11.351631 9.190465 -5.058330 0
M  V30 19 C 9.745059 5.950156 -9.658827 0
M  V30 20 C 9.247867 4.821821 -10.577676 0
M  V30 21 C 9.795857 3.444351 -16.915426 0
M  V30 22 C 10.002806 2.257895 -17.849611 0
M  V30 23 C 9.270227 2.180695 -19.054193 0
M  V30 24 C 9.426516 1.075095 -19.913034 0
M  V30 25 C 10.318437 0.040062 -19.575651 0
M  V30 26 F 10.455633 -1.026849 -20.396679 0
M  V30 27 C 11.064573 0.115880 -18.384161 0
M  V30 28 C 10.908431 1.220841 -17.524784 0
M  V30 29 C 10.956818 4.435767 -16.942762 0
M  V30 30 C 10.827538 5.628903 -17.688980 0
M  V30 31 C 11.875510 6.569867 -17.720402 0
M  V30 32 C 13.059619 6.332234 -16.999107 0
M  V30 33 F 14.061021 7.244222 -17.018440 0
M  V30 34 C 13.197847 5.145170 -16.257824 0
M  V30 35 C 12.158360 4.192520 -16.238155 0
M  V30 36 H 8.534129 5.064128 -14.765408 0
M  V30 37 H 10.252934 4.974818 -14.376508 0
M  V30 38 H 9.581430 3.275264 -12.534014 0
M  V30 39 H 7.934046 3.837940 -12.720585 0
M  V30 40 H 7.377623 6.095979 -11.847261 0
M  V30 41 H 8.355408 6.685627 -13.177705 0
M  V30 42 H 8.248648 8.415403 -11.445197 0
M  V30 43 H 9.894812 7.852416 -11.608981 0
M  V30 44 H 8.500511 9.081426 -9.115111 0
M  V30 45 H 10.201189 8.812670 -9.357476 0
M  V30 46 H 9.187289 8.988744 -6.944097 0
M  V30 47 H 7.592129 7.371706 -7.268749 0
M  V30 48 H 11.079959 6.619875 -7.299012 0
M  V30 49 H 11.586004 8.246581 -7.610247 0
M  V30 50 H 11.407312 5.772737 -5.114447 0
M  V30 51 H 12.160153 6.124734 -2.784257 0
M  V30 52 H 12.414833 8.440164 -1.891110 0
M  V30 53 H 11.864876 10.382259 -3.327588 0
M  V30 54 H 11.145743 10.047094 -5.683444 0
M  V30 55 H 10.795247 6.172445 -9.856179 0
M  V30 56 H 9.676846 5.580637 -8.637658 0
M  V30 57 H 8.226284 4.536413 -10.316200 0
M  V30 58 H 9.878068 3.943483 -10.430674 0
M  V30 59 H 8.895765 3.973692 -17.232359 0
M  V30 60 H 8.580378 2.966538 -19.323616 0
M  V30 61 H 8.857896 1.017258 -20.828634 0
M  V30 62 H 11.750647 -0.675966 -18.127655 0
M  V30 63 H 11.482104 1.259036 -16.611069 0
M  V30 64 H 9.921703 5.832379 -18.241070 0
M  V30 65 H 11.768614 7.481056 -18.290937 0
M  V30 66 H 14.103432 4.969938 -15.699258 0
M  V30 67 H 12.290547 3.284913 -15.667843 0
M  V30 68 H 7.959463 6.964179 -9.618606 0
M  V30 END ATOM
M  V30 BEGIN BOND
M  V30 1 2 2 1
M  V30 2 1 2 3 CFG=1
M  V30 3 1 4 3
M  V30 4 1 5 4
M  V30 5 1 6 5
M  V30 6 1 7 6
M  V30 7 1 8 7
M  V30 8 1 9 8
M  V30 9 1 10 9
M  V30 10 1 11 10
M  V30 11 1 12 10
M  V30 12 1 13 12
M  V30 13 2 14 13
M  V30 14 1 15 14
M  V30 15 2 16 15
M  V30 16 1 17 16
M  V30 17 1 18 13
M  V30 18 2 18 17
M  V30 19 1 19 8
M  V30 20 1 20 5
M  V30 21 1 20 19
M  V30 22 1 21 2
M  V30 23 1 22 21
M  V30 24 2 23 22
M  V30 25 1 24 23
M  V30 26 2 25 24
M  V30 27 1 26 25
M  V30 28 1 27 25
M  V30 29 1 28 22
M  V30 30 2 28 27
M  V30 31 1 29 21
M  V30 32 2 30 29
M  V30 33 1 31 30
M  V30 34 2 32 31
M  V30 35 1 33 32
M  V30 36 1 34 32
M  V30 37 1 35 29
M  V30 38 2 35 34
M  V30 39 1 36 3
M  V30 40 1 37 3
M  V30 41 1 38 4
M  V30 42 1 39 4
M  V30 43 1 40 6
M  V30 44 1 41 6
M  V30 45 1 42 7
M  V30 46 1 43 7
M  V30 47 1 44 9
M  V30 48 1 45 9
M  V30 49 1 10 46 CFG=1
M  V30 50 1 47 11
M  V30 51 1 48 12
M  V30 52 1 49 12
M  V30 53 1 50 14
M  V30 54 1 51 15
M  V30 55 1 52 16
M  V30 56 1 53 17
M  V30 57 1 54 18
M  V30 58 1 55 19
M  V30 59 1 56 19
M  V30 60 1 57 20
M  V30 61 1 58 20
M  V30 62 1 59 21
M  V30 63 1 60 23
M  V30 64 1 61 24
M  V30 65 1 62 27
M  V30 66 1 63 28
M  V30 67 1 64 30
M  V30 68 1 65 31
M  V30 69 1 66 34
M  V30 70 1 67 35
M  V30 71 1 68 8
M  V30 END BOND
M  V30 END CTAB
M  END
>  <b_m_subgroup_collapsed>  (425) 
0

>  <r_i_docking_score>  (425) 
-8.3388912976568808

>  <s_m_subgroup_title>  (425) 
glide-dock_SP_D22_pv

>  <s_m_subgroupid>  (425) 
glide-dock_SP_D22_pv

>  <Molecule ChEMBL ID>  (425) 
CHEMBL3918282

>  <Standard Type>  (425) 
Ki

>  <Standard Value>  (425) 
78.6

>  <label>  (425) 
1

$$$$
CHEMBL493069
     RDKit          3D

  0  0  0  0  0  0  0  0  0  0999 V3000
M  V30 BEGIN CTAB
M  V30 COUNTS 55 58 0 0 1
M  V30 BEGIN ATOM
M  V30 1 C 6.034382 -0.625355 -16.068842 0
M  V30 2 O 7.002037 0.378916 -15.816887 0
M  V30 3 C 6.884630 1.146354 -14.720709 0
M  V30 4 O 5.992524 1.034113 -13.882203 0
M  V30 5 C 7.953685 2.162184 -14.606418 0
M  V30 6 C 9.165703 2.032617 -15.233370 0
M  V30 7 O 10.014734 3.036838 -14.882507 0
M  V30 8 C 9.318351 3.817768 -14.019812 0
M  V30 9 C 8.038531 3.378671 -13.858073 0
M  V30 10 C 7.114751 4.165426 -13.002493 0
M  V30 11 O 5.942420 3.852101 -12.817020 0
M  V30 12 C 7.686917 5.449598 -12.367460 0
M  V30 13 C 9.221210 5.402201 -12.124076 0 CFG=2
M  V30 14 C 9.768064 6.723325 -11.536110 0
M  V30 15 N 9.284101 7.046456 -10.162690 0 CFG=1 CHG=1
M  V30 16 C 9.690723 6.039757 -9.142617 0
M  V30 17 C 9.169293 6.379459 -7.740082 0
M  V30 18 C 9.541298 7.791932 -7.265690 0 CFG=1
M  V30 19 C 11.012729 7.900087 -6.850968 0
M  V30 20 O 11.902316 7.817304 -7.697276 0
M  V30 21 C 11.287610 8.080620 -5.410741 0
M  V30 22 C 11.685862 6.972261 -4.633877 0
M  V30 23 C 12.084596 7.147201 -3.294070 0
M  V30 24 C 12.086291 8.434404 -2.727318 0
M  V30 25 F 12.488732 8.606881 -1.446905 0
M  V30 26 C 11.686394 9.544469 -3.496010 0
M  V30 27 C 11.285364 9.369555 -4.837583 0
M  V30 28 C 9.172536 8.804075 -8.357122 0
M  V30 29 C 9.671169 8.427530 -9.769312 0
M  V30 30 C 10.004034 4.971236 -13.386621 0
M  V30 31 H 6.263152 -1.133202 -17.006130 0
M  V30 32 H 6.033307 -1.369567 -15.271791 0
M  V30 33 H 5.035430 -0.194742 -16.150267 0
M  V30 34 H 9.586075 1.290960 -15.896428 0
M  V30 35 H 7.441906 6.284203 -13.025058 0
M  V30 36 H 7.164725 5.628170 -11.426807 0
M  V30 37 H 9.398847 4.592494 -11.417909 0
M  V30 38 H 10.858561 6.692216 -11.514042 0
M  V30 39 H 9.502089 7.540147 -12.210793 0
M  V30 40 H 9.299230 5.054002 -9.391909 0
M  V30 41 H 10.776093 5.950179 -9.134913 0
M  V30 42 H 9.554517 5.639682 -7.042632 0
M  V30 43 H 8.085506 6.268373 -7.719128 0
M  V30 44 H 8.949376 8.020986 -6.379615 0
M  V30 45 H 11.707808 5.984072 -5.072146 0
M  V30 46 H 12.394671 6.294260 -2.706943 0
M  V30 47 H 11.687403 10.532505 -3.054232 0
M  V30 48 H 11.008034 10.229530 -5.426582 0
M  V30 49 H 9.577956 9.770704 -8.079809 0
M  V30 50 H 8.091504 8.941147 -8.370449 0
M  V30 51 H 10.753944 8.538154 -9.839687 0
M  V30 52 H 9.240414 9.127933 -10.487786 0
M  V30 53 H 11.029466 4.702695 -13.132750 0
M  V30 54 H 10.062293 5.780131 -14.111692 0
M  V30 55 H 8.265666 7.057305 -10.193453 0
M  V30 END ATOM
M  V30 BEGIN BOND
M  V30 1 1 2 1
M  V30 2 1 3 2
M  V30 3 2 4 3
M  V30 4 1 5 3
M  V30 5 2 6 5
M  V30 6 1 7 6
M  V30 7 1 8 7
M  V30 8 1 9 5
M  V30 9 2 9 8
M  V30 10 1 10 9
M  V30 11 2 11 10
M  V30 12 1 12 10
M  V30 13 1 13 12
M  V30 14 1 14 13
M  V30 15 1 15 14
M  V30 16 1 16 15
M  V30 17 1 17 16
M  V30 18 1 18 17
M  V30 19 1 19 18
M  V30 20 2 20 19
M  V30 21 1 21 19
M  V30 22 1 22 21
M  V30 23 2 23 22
M  V30 24 1 24 23
M  V30 25 1 25 24
M  V30 26 2 26 24
M  V30 27 2 27 21
M  V30 28 1 27 26
M  V30 29 1 28 18
M  V30 30 1 29 15
M  V30 31 1 29 28
M  V30 32 1 30 8
M  V30 33 1 30 13
M  V30 34 1 31 1
M  V30 35 1 32 1
M  V30 36 1 33 1
M  V30 37 1 34 6
M  V30 38 1 35 12
M  V30 39 1 36 12
M  V30 40 1 13 37 CFG=1
M  V30 41 1 38 14
M  V30 42 1 39 14
M  V30 43 1 40 16
M  V30 44 1 41 16
M  V30 45 1 42 17
M  V30 46 1 43 17
M  V30 47 1 18 44 CFG=1
M  V30 48 1 45 22
M  V30 49 1 46 23
M  V30 50 1 47 26
M  V30 51 1 48 27
M  V30 52 1 49 28
M  V30 53 1 50 28
M  V30 54 1 51 29
M  V30 55 1 52 29
M  V30 56 1 53 30
M  V30 57 1 54 30
M  V30 58 1 15 55 CFG=3
M  V30 END BOND
M  V30 END CTAB
M  END
>  <b_m_subgroup_collapsed>  (426) 
0

>  <r_i_docking_score>  (426) 
-8.3383678172783107

>  <s_m_subgroup_title>  (426) 
glide-dock_SP_D22_pv

>  <s_m_subgroupid>  (426) 
glide-dock_SP_D22_pv

>  <Molecule ChEMBL ID>  (426) 
CHEMBL493069

>  <Standard Type>  (426) 
Ki

>  <Standard Value>  (426) 
10000.0

>  <label>  (426) 
0

$$$$
CHEMBL2112210
     RDKit          3D

  0  0  0  0  0  0  0  0  0  0999 V3000
M  V30 BEGIN CTAB
M  V30 COUNTS 66 70 0 0 1
M  V30 BEGIN ATOM
M  V30 1 N 6.562831 1.494452 -21.842583 0
M  V30 2 C 6.166005 0.972115 -20.888149 0
M  V30 3 C 5.667307 0.321100 -19.689461 0
M  V30 4 C 4.561099 -0.547297 -19.776934 0
M  V30 5 C 4.076304 -1.197183 -18.625946 0
M  V30 6 C 4.692538 -0.988286 -17.378925 0
M  V30 7 C 5.793799 -0.091771 -17.288261 0
M  V30 8 C 6.288156 0.547868 -18.442932 0
M  V30 9 C 6.416672 0.110561 -15.923519 0 CFG=1
M  V30 10 C 7.005902 1.461763 -15.504367 0
M  V30 11 N 6.895420 1.472906 -14.013326 0 CFG=1 CHG=1
M  V30 12 C 6.272902 2.701507 -13.446674 0
M  V30 13 C 7.106300 3.979656 -13.657490 0
M  V30 14 C 7.735577 4.522403 -12.364164 0
M  V30 15 C 8.427999 5.884349 -12.568784 0
M  V30 16 N 8.859035 6.432866 -11.288796 0
M  V30 17 C 10.056328 6.971287 -11.015100 0
M  V30 18 O 10.918879 7.181589 -11.865314 0
M  V30 19 C 10.295765 7.316471 -9.570736 0
M  V30 20 C 11.229483 8.319398 -9.227743 0
M  V30 21 C 11.530733 8.581414 -7.877208 0
M  V30 22 C 10.914971 7.844184 -6.843450 0
M  V30 23 C 11.286241 8.070234 -5.435978 0
M  V30 24 C 11.667281 6.985631 -4.613080 0
M  V30 25 C 12.078544 7.195290 -3.282334 0
M  V30 26 C 12.090731 8.497902 -2.753091 0
M  V30 27 N 12.510522 8.730098 -1.447246 0
M  V30 28 C 11.688922 9.580782 -3.554502 0
M  V30 29 C 11.299802 9.372137 -4.890500 0
M  V30 30 C 9.967809 6.858443 -7.188090 0
M  V30 31 C 9.661138 6.591918 -8.535649 0
M  V30 32 C 6.176360 0.233629 -13.605517 0
M  V30 33 C 5.395933 -0.157130 -14.848422 0 CFG=2
M  V30 34 C 4.869896 -1.575064 -15.037552 0
M  V30 35 O 4.166919 -1.649872 -16.281864 0
M  V30 36 H 4.084677 -0.726766 -20.730324 0
M  V30 37 H 3.229989 -1.865918 -18.700438 0
M  V30 38 H 7.144986 1.202669 -18.374363 0
M  V30 39 H 7.215631 -0.627930 -15.847729 0
M  V30 40 H 8.047174 1.546092 -15.814041 0
M  V30 41 H 6.484619 2.305498 -15.953652 0
M  V30 42 H 5.286220 2.831886 -13.885769 0
M  V30 43 H 6.085289 2.563165 -12.380929 0
M  V30 44 H 7.874032 3.840903 -14.418300 0
M  V30 45 H 6.434867 4.746681 -14.039335 0
M  V30 46 H 6.956308 4.636332 -11.607244 0
M  V30 47 H 8.444825 3.787067 -11.968342 0
M  V30 48 H 9.263799 5.772719 -13.261786 0
M  V30 49 H 7.732688 6.594086 -13.017386 0
M  V30 50 H 8.163094 6.456799 -10.551730 0
M  V30 51 H 11.738549 8.878839 -10.000284 0
M  V30 52 H 12.261894 9.339793 -7.638726 0
M  V30 53 H 11.663307 5.980866 -5.011373 0
M  V30 54 H 12.376869 6.351953 -2.676420 0
M  V30 55 H 12.804007 9.666127 -1.187406 0
M  V30 56 H 12.916507 7.985685 -0.899651 0
M  V30 57 H 11.684531 10.574517 -3.142304 0
M  V30 58 H 11.007545 10.218169 -5.496483 0
M  V30 59 H 9.476375 6.288796 -6.411500 0
M  V30 60 H 8.949313 5.810833 -8.755767 0
M  V30 61 H 6.908297 -0.538425 -13.359919 0
M  V30 62 H 5.533521 0.366047 -12.734599 0
M  V30 63 H 4.554331 0.529434 -14.947425 0
M  V30 64 H 5.679327 -2.309702 -15.016784 0
M  V30 65 H 4.176068 -1.825640 -14.239616 0
M  V30 66 H 7.830204 1.409858 -13.630096 0
M  V30 END ATOM
M  V30 BEGIN BOND
M  V30 1 3 2 1
M  V30 2 1 3 2
M  V30 3 1 4 3
M  V30 4 2 5 4
M  V30 5 1 6 5
M  V30 6 2 7 6
M  V30 7 2 8 3
M  V30 8 1 8 7
M  V30 9 1 9 7
M  V30 10 1 10 9
M  V30 11 1 11 10
M  V30 12 1 12 11
M  V30 13 1 13 12
M  V30 14 1 14 13
M  V30 15 1 15 14
M  V30 16 1 16 15
M  V30 17 1 17 16
M  V30 18 2 18 17
M  V30 19 1 19 17
M  V30 20 1 20 19
M  V30 21 2 21 20
M  V30 22 1 22 21
M  V30 23 1 23 22
M  V30 24 1 24 23
M  V30 25 2 25 24
M  V30 26 1 26 25
M  V30 27 1 27 26
M  V30 28 2 28 26
M  V30 29 2 29 23
M  V30 30 1 29 28
M  V30 31 2 30 22
M  V30 32 2 31 19
M  V30 33 1 31 30
M  V30 34 1 32 11
M  V30 35 1 33 9
M  V30 36 1 33 32
M  V30 37 1 34 33
M  V30 38 1 35 6
M  V30 39 1 35 34
M  V30 40 1 36 4
M  V30 41 1 37 5
M  V30 42 1 38 8
M  V30 43 1 9 39 CFG=1
M  V30 44 1 40 10
M  V30 45 1 41 10
M  V30 46 1 42 12
M  V30 47 1 43 12
M  V30 48 1 44 13
M  V30 49 1 45 13
M  V30 50 1 46 14
M  V30 51 1 47 14
M  V30 52 1 48 15
M  V30 53 1 49 15
M  V30 54 1 50 16
M  V30 55 1 51 20
M  V30 56 1 52 21
M  V30 57 1 53 24
M  V30 58 1 54 25
M  V30 59 1 55 27
M  V30 60 1 56 27
M  V30 61 1 57 28
M  V30 62 1 58 29
M  V30 63 1 59 30
M  V30 64 1 60 31
M  V30 65 1 61 32
M  V30 66 1 62 32
M  V30 67 1 33 63 CFG=3
M  V30 68 1 64 34
M  V30 69 1 65 34
M  V30 70 1 11 66 CFG=1
M  V30 END BOND
M  V30 END CTAB
M  END
>  <b_m_subgroup_collapsed>  (427) 
0

>  <r_i_docking_score>  (427) 
-8.3377161961994002

>  <s_m_subgroup_title>  (427) 
glide-dock_SP_D22_pv

>  <s_m_subgroupid>  (427) 
glide-dock_SP_D22_pv

>  <Molecule ChEMBL ID>  (427) 
CHEMBL2112210

>  <Standard Type>  (427) 
Ki

>  <Standard Value>  (427) 
19.95

>  <label>  (427) 
1

$$$$
CHEMBL4642981
     RDKit          3D

  0  0  0  0  0  0  0  0  0  0999 V3000
M  V30 BEGIN CTAB
M  V30 COUNTS 68 73 0 0 1
M  V30 BEGIN ATOM
M  V30 1 O 7.685998 2.171202 -18.514198 0
M  V30 2 C 7.084483 1.346549 -17.825953 0
M  V30 3 N 7.308180 1.075927 -16.519190 0
M  V30 4 C 8.313267 1.683907 -15.652551 0
M  V30 5 C 7.671779 2.585742 -14.586749 0
M  V30 6 C 8.718664 3.344734 -13.766016 0
M  V30 7 C 8.066363 4.250082 -12.714128 0
M  V30 8 C 9.081665 4.794210 -11.703712 0
M  V30 9 C 8.384494 5.396910 -10.478558 0
M  V30 10 N 9.362495 5.923893 -9.500458 0 CHG=1
M  V30 11 C 8.910810 5.822126 -8.094345 0
M  V30 12 C 10.066214 6.155920 -7.141212 0
M  V30 13 N 10.688751 7.427469 -7.470609 0
M  V30 14 C 10.992551 8.366956 -6.461272 0
M  V30 15 N 10.896602 9.640384 -6.761701 0
M  V30 16 S 11.285933 10.572135 -5.447172 0
M  V30 17 C 11.649191 9.244800 -4.384279 0
M  V30 18 C 12.082205 9.268787 -3.046384 0
M  V30 19 C 12.292374 8.060858 -2.365851 0
M  V30 20 C 12.087152 6.844000 -3.039518 0
M  V30 21 C 11.684466 6.836982 -4.390898 0
M  V30 22 C 11.427407 8.034861 -5.105308 0
M  V30 23 C 10.995770 7.685049 -8.881159 0
M  V30 24 C 9.823361 7.300470 -9.802327 0
M  V30 25 C 6.338716 0.160660 -16.096041 0
M  V30 26 C 6.035281 -0.449235 -14.863335 0
M  V30 27 C 4.910930 -1.312402 -14.796976 0
M  V30 28 C 4.105477 -1.579795 -15.937593 0
M  V30 29 C 4.429400 -1.004581 -17.183380 0
M  V30 30 C 5.534315 -0.147662 -17.167049 0
M  V30 31 N 6.036649 0.594397 -18.235851 0
M  V30 32 C 5.421828 0.544256 -19.556913 0
M  V30 33 C 4.656133 -0.783699 -19.733288 0
M  V30 34 C 3.734381 -1.111405 -18.536367 0
M  V30 35 H 9.019907 2.259919 -16.252186 0
M  V30 36 H 8.894604 0.894594 -15.174417 0
M  V30 37 H 7.061677 1.987257 -13.911592 0
M  V30 38 H 6.990148 3.297332 -15.046519 0
M  V30 39 H 9.354074 3.941171 -14.423112 0
M  V30 40 H 9.370662 2.618659 -13.280455 0
M  V30 41 H 7.290880 3.695401 -12.183950 0
M  V30 42 H 7.551306 5.078568 -13.206905 0
M  V30 43 H 9.717703 5.529088 -12.198561 0
M  V30 44 H 9.737024 3.983853 -11.375237 0
M  V30 45 H 7.790823 4.609687 -10.016328 0
M  V30 46 H 7.685648 6.172299 -10.780313 0
M  V30 47 H 8.542173 4.817987 -7.879604 0
M  V30 48 H 8.086205 6.510570 -7.929171 0
M  V30 49 H 10.836395 5.385771 -7.198714 0
M  V30 50 H 9.678719 6.172459 -6.122475 0
M  V30 51 H 12.231812 10.210974 -2.539911 0
M  V30 52 H 12.612264 8.070932 -1.333992 0
M  V30 53 H 12.250173 5.909090 -2.522757 0
M  V30 54 H 11.558511 5.883743 -4.879267 0
M  V30 55 H 11.263119 8.727812 -9.055742 0
M  V30 56 H 11.874054 7.102757 -9.151120 0
M  V30 57 H 10.139557 7.382691 -10.843410 0
M  V30 58 H 8.993202 7.998586 -9.672700 0
M  V30 59 H 6.635406 -0.268941 -13.983169 0
M  V30 60 H 4.663630 -1.785244 -13.860147 0
M  V30 61 H 3.246774 -2.227820 -15.855138 0
M  V30 62 H 4.735386 1.386148 -19.651140 0
M  V30 63 H 6.178332 0.653566 -20.336582 0
M  V30 64 H 5.383074 -1.587870 -19.840128 0
M  V30 65 H 4.086448 -0.765640 -20.659054 0
M  V30 66 H 3.322726 -2.115994 -18.642832 0
M  V30 67 H 2.886696 -0.428165 -18.533707 0
M  V30 68 H 10.169748 5.323014 -9.565589 0
M  V30 END ATOM
M  V30 BEGIN BOND
M  V30 1 2 2 1
M  V30 2 1 3 2
M  V30 3 1 4 3
M  V30 4 1 5 4
M  V30 5 1 6 5
M  V30 6 1 7 6
M  V30 7 1 8 7
M  V30 8 1 9 8
M  V30 9 1 10 9
M  V30 10 1 11 10
M  V30 11 1 12 11
M  V30 12 1 13 12
M  V30 13 1 14 13
M  V30 14 2 15 14
M  V30 15 1 16 15
M  V30 16 1 17 16
M  V30 17 2 18 17
M  V30 18 1 19 18
M  V30 19 2 20 19
M  V30 20 1 21 20
M  V30 21 1 22 14
M  V30 22 1 22 17
M  V30 23 2 22 21
M  V30 24 1 23 13
M  V30 25 1 24 10
M  V30 26 1 24 23
M  V30 27 1 25 3
M  V30 28 2 26 25
M  V30 29 1 27 26
M  V30 30 2 28 27
M  V30 31 1 29 28
M  V30 32 1 30 25
M  V30 33 2 30 29
M  V30 34 1 31 2
M  V30 35 1 31 30
M  V30 36 1 32 31
M  V30 37 1 33 32
M  V30 38 1 34 29
M  V30 39 1 34 33
M  V30 40 1 35 4
M  V30 41 1 36 4
M  V30 42 1 37 5
M  V30 43 1 38 5
M  V30 44 1 39 6
M  V30 45 1 40 6
M  V30 46 1 41 7
M  V30 47 1 42 7
M  V30 48 1 43 8
M  V30 49 1 44 8
M  V30 50 1 45 9
M  V30 51 1 46 9
M  V30 52 1 47 11
M  V30 53 1 48 11
M  V30 54 1 49 12
M  V30 55 1 50 12
M  V30 56 1 51 18
M  V30 57 1 52 19
M  V30 58 1 53 20
M  V30 59 1 54 21
M  V30 60 1 55 23
M  V30 61 1 56 23
M  V30 62 1 57 24
M  V30 63 1 58 24
M  V30 64 1 59 26
M  V30 65 1 60 27
M  V30 66 1 61 28
M  V30 67 1 62 32
M  V30 68 1 63 32
M  V30 69 1 64 33
M  V30 70 1 65 33
M  V30 71 1 66 34
M  V30 72 1 67 34
M  V30 73 1 68 10
M  V30 END BOND
M  V30 END CTAB
M  END
>  <b_m_subgroup_collapsed>  (428) 
0

>  <r_i_docking_score>  (428) 
-8.3349071957097003

>  <s_m_subgroup_title>  (428) 
glide-dock_SP_D22_pv

>  <s_m_subgroupid>  (428) 
glide-dock_SP_D22_pv

>  <Molecule ChEMBL ID>  (428) 
CHEMBL4642981

>  <Standard Type>  (428) 
Ki

>  <Standard Value>  (428) 
1.0

>  <label>  (428) 
1

$$$$
CHEMBL240774
     RDKit          3D

  0  0  0  0  0  0  0  0  0  0999 V3000
M  V30 BEGIN CTAB
M  V30 COUNTS 54 57 0 0 1
M  V30 BEGIN ATOM
M  V30 1 O 9.458107 3.820778 -16.242907 0
M  V30 2 C 10.213546 4.466345 -15.517063 0
M  V30 3 C 11.226277 5.442803 -15.982594 0
M  V30 4 C 11.495522 5.861723 -17.296103 0
M  V30 5 C 12.490392 6.849370 -17.473696 0
M  V30 6 C 13.178463 7.391355 -16.359098 0
M  V30 7 C 12.886084 6.953493 -15.046754 0
M  V30 8 C 11.901920 5.962205 -14.894957 0
M  V30 9 C 11.367828 5.311484 -13.644180 0
M  V30 10 N 10.284134 4.457321 -14.167372 0
M  V30 11 C 9.423450 3.668868 -13.286668 0
M  V30 12 C 8.065533 4.359087 -13.015040 0
M  V30 13 C 8.112857 5.536956 -12.020312 0
M  V30 14 C 8.441421 5.080348 -10.586288 0
M  V30 15 N 8.486052 6.172267 -9.577503 0 CHG=1
M  V30 16 C 9.587891 7.142817 -9.818092 0
M  V30 17 C 9.709690 8.195785 -8.701819 0
M  V30 18 N 9.734217 7.555107 -7.390262 0
M  V30 19 C 10.608002 7.967289 -6.362805 0
M  V30 20 C 11.241732 9.228691 -6.403893 0
M  V30 21 C 12.096549 9.633320 -5.367542 0
M  V30 22 C 12.304611 8.815146 -4.245174 0
M  V30 23 C 11.705309 7.546410 -4.198032 0
M  V30 24 C 10.886003 7.124331 -5.258988 0
M  V30 25 C 8.618326 6.660081 -7.110593 0
M  V30 26 C 8.541524 5.593631 -8.206949 0
M  V30 27 H 10.954218 5.451727 -18.136503 0
M  V30 28 H 12.722639 7.201419 -18.467741 0
M  V30 29 H 13.928684 8.151572 -16.516291 0
M  V30 30 H 13.402944 7.368827 -14.193783 0
M  V30 31 H 11.003332 6.059959 -12.941532 0
M  V30 32 H 12.145021 4.712857 -13.168177 0
M  V30 33 H 9.951600 3.432264 -12.363994 0
M  V30 34 H 9.239632 2.702748 -13.760736 0
M  V30 35 H 7.357409 3.618500 -12.642935 0
M  V30 36 H 7.642167 4.703655 -13.958747 0
M  V30 37 H 7.141399 6.032533 -12.012308 0
M  V30 38 H 8.820948 6.279547 -12.381323 0
M  V30 39 H 9.397476 4.557971 -10.555639 0
M  V30 40 H 7.686131 4.354950 -10.281793 0
M  V30 41 H 9.436478 7.658253 -10.765779 0
M  V30 42 H 10.529579 6.596070 -9.898613 0
M  V30 43 H 8.865129 8.884558 -8.740798 0
M  V30 44 H 10.609475 8.776985 -8.893594 0
M  V30 45 H 11.084350 9.914828 -7.220577 0
M  V30 46 H 12.609229 10.572410 -5.448342 0
M  V30 47 H 12.936604 9.150425 -3.435853 0
M  V30 48 H 11.879056 6.892868 -3.354278 0
M  V30 49 H 10.469099 6.137602 -5.187033 0
M  V30 50 H 8.690681 6.172277 -6.145771 0
M  V30 51 H 7.696455 7.239183 -7.046859 0
M  V30 52 H 7.685930 4.951201 -8.023129 0
M  V30 53 H 9.421154 4.953712 -8.131991 0
M  V30 54 H 7.613955 6.704745 -9.652968 0
M  V30 END ATOM
M  V30 BEGIN BOND
M  V30 1 2 2 1
M  V30 2 1 3 2
M  V30 3 2 4 3
M  V30 4 1 5 4
M  V30 5 2 6 5
M  V30 6 1 7 6
M  V30 7 1 8 3
M  V30 8 2 8 7
M  V30 9 1 9 8
M  V30 10 1 10 2
M  V30 11 1 10 9
M  V30 12 1 11 10
M  V30 13 1 12 11
M  V30 14 1 13 12
M  V30 15 1 14 13
M  V30 16 1 15 14
M  V30 17 1 16 15
M  V30 18 1 17 16
M  V30 19 1 18 17
M  V30 20 1 19 18
M  V30 21 2 20 19
M  V30 22 1 21 20
M  V30 23 2 22 21
M  V30 24 1 23 22
M  V30 25 1 24 19
M  V30 26 2 24 23
M  V30 27 1 25 18
M  V30 28 1 26 15
M  V30 29 1 26 25
M  V30 30 1 27 4
M  V30 31 1 28 5
M  V30 32 1 29 6
M  V30 33 1 30 7
M  V30 34 1 31 9
M  V30 35 1 32 9
M  V30 36 1 33 11
M  V30 37 1 34 11
M  V30 38 1 35 12
M  V30 39 1 36 12
M  V30 40 1 37 13
M  V30 41 1 38 13
M  V30 42 1 39 14
M  V30 43 1 40 14
M  V30 44 1 41 16
M  V30 45 1 42 16
M  V30 46 1 43 17
M  V30 47 1 44 17
M  V30 48 1 45 20
M  V30 49 1 46 21
M  V30 50 1 47 22
M  V30 51 1 48 23
M  V30 52 1 49 24
M  V30 53 1 50 25
M  V30 54 1 51 25
M  V30 55 1 52 26
M  V30 56 1 53 26
M  V30 57 1 54 15
M  V30 END BOND
M  V30 END CTAB
M  END
>  <b_m_subgroup_collapsed>  (429) 
0

>  <r_i_docking_score>  (429) 
-8.3336457379481494

>  <s_m_subgroup_title>  (429) 
glide-dock_SP_D22_pv

>  <s_m_subgroupid>  (429) 
glide-dock_SP_D22_pv

>  <Molecule ChEMBL ID>  (429) 
CHEMBL240774

>  <Standard Type>  (429) 
Ki

>  <Standard Value>  (429) 
60.0

>  <label>  (429) 
1

$$$$
CHEMBL5394387
     RDKit          3D

  0  0  0  0  0  0  0  0  0  0999 V3000
M  V30 BEGIN CTAB
M  V30 COUNTS 51 54 0 0 1
M  V30 BEGIN ATOM
M  V30 1 C 5.703944 4.450351 -12.415363 0
M  V30 2 C 6.808081 3.773963 -13.205503 0
M  V30 3 C 6.486051 2.590969 -13.902266 0
M  V30 4 C 7.478277 1.931471 -14.646814 0
M  V30 5 C 8.772433 2.476282 -14.652535 0
M  V30 6 N 9.098778 3.603066 -13.989314 0
M  V30 7 C 8.147659 4.250928 -13.277776 0
M  V30 8 C 8.684101 5.492116 -12.554316 0 CFG=1
M  V30 9 C 7.871451 6.784839 -12.733165 0
M  V30 10 C 8.629979 7.970280 -12.130450 0
M  V30 11 N 8.886024 7.736731 -10.690138 0 CFG=2 CHG=1
M  V30 12 C 9.390153 8.962966 -10.029500 0
M  V30 13 C 9.508976 8.851147 -8.501955 0
M  V30 14 C 10.979527 8.761087 -8.086539 0
M  V30 15 C 11.177840 8.708667 -6.618109 0
M  V30 16 N 11.286016 7.546746 -5.968896 0
M  V30 17 C 11.636550 7.785213 -4.646894 0
M  V30 18 C 11.925091 6.814634 -3.667574 0
M  V30 19 C 12.316228 7.181722 -2.369584 0
M  V30 20 C 12.413380 8.541527 -2.022807 0
M  V30 21 C 12.086017 9.530372 -2.965126 0
M  V30 22 C 11.711709 9.155504 -4.265737 0
M  V30 23 S 11.286032 10.172327 -5.635984 0
M  V30 24 C 9.675871 6.497157 -10.446648 0
M  V30 25 C 8.994160 5.259927 -11.065816 0
M  V30 26 H 4.886025 3.755510 -12.229566 0
M  V30 27 H 6.052528 4.799666 -11.446868 0
M  V30 28 H 5.296870 5.291297 -12.976842 0
M  V30 29 H 5.485445 2.186132 -13.860525 0
M  V30 30 H 7.257367 1.022785 -15.187023 0
M  V30 31 H 9.567103 1.995966 -15.204017 0
M  V30 32 H 9.647778 5.701193 -13.024753 0
M  V30 33 H 7.686358 6.972246 -13.785591 0
M  V30 34 H 6.899685 6.729407 -12.249177 0
M  V30 35 H 8.030860 8.873156 -12.259793 0
M  V30 36 H 9.575595 8.138275 -12.646852 0
M  V30 37 H 10.343490 9.249339 -10.475451 0
M  V30 38 H 8.689469 9.771238 -10.246878 0
M  V30 39 H 9.071172 9.739238 -8.045869 0
M  V30 40 H 8.929216 8.014370 -8.108726 0
M  V30 41 H 11.449668 7.883341 -8.531263 0
M  V30 42 H 11.526043 9.622605 -8.467874 0
M  V30 43 H 11.856777 5.772340 -3.932927 0
M  V30 44 H 12.550007 6.412364 -1.648351 0
M  V30 45 H 12.719759 8.833694 -1.031595 0
M  V30 46 H 12.128207 10.572459 -2.686323 0
M  V30 47 H 9.800812 6.319557 -9.379014 0
M  V30 48 H 10.675926 6.623510 -10.863292 0
M  V30 49 H 8.082009 5.030676 -10.515375 0
M  V30 50 H 9.645704 4.391937 -10.953698 0
M  V30 51 H 7.939164 7.607800 -10.301801 0
M  V30 END ATOM
M  V30 BEGIN BOND
M  V30 1 1 2 1
M  V30 2 2 3 2
M  V30 3 1 4 3
M  V30 4 2 5 4
M  V30 5 1 6 5
M  V30 6 1 7 2
M  V30 7 2 7 6
M  V30 8 1 8 7
M  V30 9 1 9 8
M  V30 10 1 10 9
M  V30 11 1 11 10
M  V30 12 1 12 11
M  V30 13 1 13 12
M  V30 14 1 14 13
M  V30 15 1 15 14
M  V30 16 2 16 15
M  V30 17 1 17 16
M  V30 18 2 18 17
M  V30 19 1 19 18
M  V30 20 2 20 19
M  V30 21 1 21 20
M  V30 22 1 22 17
M  V30 23 2 22 21
M  V30 24 1 23 15
M  V30 25 1 23 22
M  V30 26 1 24 11
M  V30 27 1 25 8
M  V30 28 1 25 24
M  V30 29 1 26 1
M  V30 30 1 27 1
M  V30 31 1 28 1
M  V30 32 1 29 3
M  V30 33 1 30 4
M  V30 34 1 31 5
M  V30 35 1 8 32 CFG=3
M  V30 36 1 33 9
M  V30 37 1 34 9
M  V30 38 1 35 10
M  V30 39 1 36 10
M  V30 40 1 37 12
M  V30 41 1 38 12
M  V30 42 1 39 13
M  V30 43 1 40 13
M  V30 44 1 41 14
M  V30 45 1 42 14
M  V30 46 1 43 18
M  V30 47 1 44 19
M  V30 48 1 45 20
M  V30 49 1 46 21
M  V30 50 1 47 24
M  V30 51 1 48 24
M  V30 52 1 49 25
M  V30 53 1 50 25
M  V30 54 1 11 51 CFG=1
M  V30 END BOND
M  V30 END CTAB
M  END
>  <b_m_subgroup_collapsed>  (430) 
0

>  <r_i_docking_score>  (430) 
-8.33316253481388

>  <s_m_subgroup_title>  (430) 
glide-dock_SP_D22_pv

>  <s_m_subgroupid>  (430) 
glide-dock_SP_D22_pv

>  <Molecule ChEMBL ID>  (430) 
CHEMBL5394387

>  <Standard Type>  (430) 
Ki

>  <Standard Value>  (430) 
13300.0

>  <label>  (430) 
0

$$$$
CHEMBL160932
     RDKit          3D

  0  0  0  0  0  0  0  0  0  0999 V3000
M  V30 BEGIN CTAB
M  V30 COUNTS 47 50 0 0 1
M  V30 BEGIN ATOM
M  V30 1 C 6.789366 5.521262 -11.753509 0
M  V30 2 C 8.138530 5.337698 -12.360714 0
M  V30 3 N 8.407263 4.253449 -13.052728 0
M  V30 4 N 9.693871 4.430100 -13.491644 0
M  V30 5 C 10.419717 3.568928 -14.270612 0
M  V30 6 C 9.874336 2.286408 -14.701090 0
M  V30 7 N 9.448256 1.266857 -15.046598 0
M  V30 8 C 11.691283 3.932148 -14.653439 0
M  V30 9 C 12.241827 5.169175 -14.244146 0
M  V30 10 C 11.520933 6.027549 -13.446909 0
M  V30 11 C 10.206557 5.667367 -13.041386 0
M  V30 12 C 9.225554 6.252347 -12.275714 0
M  V30 13 C 9.240060 7.587829 -11.564460 0
M  V30 14 N 9.285989 7.490901 -10.076481 0 CHG=1
M  V30 15 C 9.294177 8.830759 -9.428688 0
M  V30 16 C 9.313741 8.747551 -7.885471 0
M  V30 17 N 10.412031 7.894020 -7.433289 0
M  V30 18 C 10.887751 8.055115 -6.108726 0
M  V30 19 C 11.091579 9.346607 -5.559515 0
M  V30 20 C 11.566115 9.511113 -4.242109 0
M  V30 21 C 11.883163 8.388142 -3.457285 0
M  V30 22 Cl 12.486085 8.578751 -1.852399 0
M  V30 23 C 11.686570 7.100505 -3.980987 0
M  V30 24 C 11.194091 6.940704 -5.288889 0
M  V30 25 C 10.401155 6.557869 -8.027149 0
M  V30 26 C 10.368303 6.613621 -9.562743 0
M  V30 27 H 6.243710 6.332812 -12.237912 0
M  V30 28 H 6.177857 4.620216 -11.827548 0
M  V30 29 H 6.884476 5.772305 -10.698429 0
M  V30 30 H 12.280849 3.264862 -15.276289 0
M  V30 31 H 13.246559 5.442862 -14.554181 0
M  V30 32 H 11.946716 6.972620 -13.129534 0
M  V30 33 H 8.357628 8.163585 -11.852933 0
M  V30 34 H 10.095264 8.172971 -11.899924 0
M  V30 35 H 8.418900 9.393429 -9.752468 0
M  V30 36 H 10.171699 9.382419 -9.768182 0
M  V30 37 H 8.378213 8.317895 -7.527631 0
M  V30 38 H 9.361817 9.756195 -7.464475 0
M  V30 39 H 10.896352 10.233498 -6.141629 0
M  V30 40 H 11.686069 10.502654 -3.833296 0
M  V30 41 H 11.908710 6.232163 -3.378053 0
M  V30 42 H 11.048701 5.930604 -5.632606 0
M  V30 43 H 11.286122 5.997889 -7.734879 0
M  V30 44 H 9.535679 6.009596 -7.653283 0
M  V30 45 H 10.242956 5.599658 -9.941936 0
M  V30 46 H 11.326817 6.977451 -9.933666 0
M  V30 47 H 8.396151 7.082119 -9.808915 0
M  V30 END ATOM
M  V30 BEGIN BOND
M  V30 1 1 2 1
M  V30 2 2 3 2
M  V30 3 1 4 3
M  V30 4 1 5 4
M  V30 5 1 6 5
M  V30 6 3 7 6
M  V30 7 2 8 5
M  V30 8 1 9 8
M  V30 9 2 10 9
M  V30 10 1 11 4
M  V30 11 1 11 10
M  V30 12 1 12 2
M  V30 13 2 12 11
M  V30 14 1 13 12
M  V30 15 1 14 13
M  V30 16 1 15 14
M  V30 17 1 16 15
M  V30 18 1 17 16
M  V30 19 1 18 17
M  V30 20 1 19 18
M  V30 21 2 20 19
M  V30 22 1 21 20
M  V30 23 1 22 21
M  V30 24 2 23 21
M  V30 25 2 24 18
M  V30 26 1 24 23
M  V30 27 1 25 17
M  V30 28 1 26 14
M  V30 29 1 26 25
M  V30 30 1 27 1
M  V30 31 1 28 1
M  V30 32 1 29 1
M  V30 33 1 30 8
M  V30 34 1 31 9
M  V30 35 1 32 10
M  V30 36 1 33 13
M  V30 37 1 34 13
M  V30 38 1 35 15
M  V30 39 1 36 15
M  V30 40 1 37 16
M  V30 41 1 38 16
M  V30 42 1 39 19
M  V30 43 1 40 20
M  V30 44 1 41 23
M  V30 45 1 42 24
M  V30 46 1 43 25
M  V30 47 1 44 25
M  V30 48 1 45 26
M  V30 49 1 46 26
M  V30 50 1 47 14
M  V30 END BOND
M  V30 END CTAB
M  END
>  <b_m_subgroup_collapsed>  (431) 
0

>  <r_i_docking_score>  (431) 
-8.3314981238488599

>  <s_m_subgroup_title>  (431) 
glide-dock_SP_D22_pv

>  <s_m_subgroupid>  (431) 
glide-dock_SP_D22_pv

>  <Molecule ChEMBL ID>  (431) 
CHEMBL160932

>  <Standard Type>  (431) 
Ki

>  <Standard Value>  (431) 
58000.0

>  <label>  (431) 
0

$$$$
CHEMBL485918
     RDKit          3D

  0  0  0  0  0  0  0  0  0  0999 V3000
M  V30 BEGIN CTAB
M  V30 COUNTS 65 68 0 0 1
M  V30 BEGIN ATOM
M  V30 1 C 5.545974 -1.356063 -14.502352 0
M  V30 2 O 6.525370 -0.438773 -14.951429 0
M  V30 3 C 6.555950 0.815227 -14.387092 0
M  V30 4 C 5.607398 1.297142 -13.450933 0
M  V30 5 C 5.685303 2.626533 -12.988107 0
M  V30 6 C 6.725492 3.467056 -13.424270 0
M  V30 7 C 7.704515 2.978184 -14.312880 0
M  V30 8 C 8.840141 3.875017 -14.764829 0
M  V30 9 C 10.190270 3.516023 -14.126001 0
M  V30 10 C 11.270725 4.492243 -14.563136 0
M  V30 11 C 12.138428 4.143868 -15.619307 0
M  V30 12 C 13.114099 5.054696 -16.063900 0
M  V30 13 C 13.220217 6.320333 -15.459596 0
M  V30 14 C 12.357946 6.672518 -14.403221 0
M  V30 15 C 11.383247 5.755457 -13.938682 0
M  V30 16 O 10.504967 6.032227 -12.913382 0
M  V30 17 C 10.814540 7.084473 -12.014380 0
M  V30 18 C 10.086333 6.762234 -10.707139 0
M  V30 19 C 10.536970 7.627128 -9.524506 0
M  V30 20 C 10.084646 7.017564 -8.188208 0
M  V30 21 N 10.680075 7.734412 -7.037517 0 CFG=1 CHG=1
M  V30 22 C 9.939379 8.962739 -6.666601 0
M  V30 23 C 10.776563 9.805625 -5.691222 0
M  V30 24 C 11.337526 8.989432 -4.542262 0
M  V30 25 C 11.776942 9.633221 -3.368130 0
M  V30 26 C 12.338376 8.889004 -2.313627 0
M  V30 27 C 12.456367 7.493326 -2.428959 0
M  V30 28 C 12.005983 6.846608 -3.592186 0
M  V30 29 C 11.441222 7.584677 -4.650964 0
M  V30 30 C 10.902419 6.844964 -5.869047 0
M  V30 31 C 7.603647 1.660479 -14.800507 0
M  V30 32 H 5.652564 -2.288970 -15.055343 0
M  V30 33 H 5.688921 -1.575033 -13.447027 0
M  V30 34 H 4.534439 -0.985228 -14.668882 0
M  V30 35 H 4.796430 0.681394 -13.096572 0
M  V30 36 H 4.949848 3.000917 -12.294024 0
M  V30 37 H 6.779315 4.483422 -13.060722 0
M  V30 38 H 8.588615 4.912568 -14.537879 0
M  V30 39 H 8.916055 3.813357 -15.851145 0
M  V30 40 H 10.478919 2.499876 -14.399395 0
M  V30 41 H 10.108413 3.522349 -13.037614 0
M  V30 42 H 12.056577 3.176935 -16.094889 0
M  V30 43 H 13.779195 4.780802 -16.870205 0
M  V30 44 H 13.966481 7.020663 -15.805612 0
M  V30 45 H 12.457947 7.655051 -13.969416 0
M  V30 46 H 11.888087 7.143676 -11.825479 0
M  V30 47 H 10.481575 8.039161 -12.418540 0
M  V30 48 H 9.006436 6.844657 -10.843679 0
M  V30 49 H 10.278630 5.716725 -10.469767 0
M  V30 50 H 11.625569 7.703856 -9.530242 0
M  V30 51 H 10.153069 8.640253 -9.642638 0
M  V30 52 H 8.995272 6.996808 -8.115149 0
M  V30 53 H 10.412754 5.977033 -8.163178 0
M  V30 54 H 9.710376 9.554860 -7.551726 0
M  V30 55 H 8.975321 8.681214 -6.240061 0
M  V30 56 H 10.190542 10.631195 -5.288461 0
M  V30 57 H 11.620210 10.249883 -6.223316 0
M  V30 58 H 11.684434 10.700855 -3.256463 0
M  V30 59 H 12.674196 9.390694 -1.416628 0
M  V30 60 H 12.885682 6.913994 -1.624556 0
M  V30 61 H 12.083704 5.771698 -3.665423 0
M  V30 62 H 9.967359 6.359655 -5.586289 0
M  V30 63 H 11.606469 6.057202 -6.143067 0
M  V30 64 H 8.333236 1.288928 -15.505848 0
M  V30 65 H 11.599552 8.032516 -7.332541 0
M  V30 END ATOM
M  V30 BEGIN BOND
M  V30 1 1 2 1
M  V30 2 1 3 2
M  V30 3 2 4 3
M  V30 4 1 5 4
M  V30 5 2 6 5
M  V30 6 1 7 6
M  V30 7 1 8 7
M  V30 8 1 9 8
M  V30 9 1 10 9
M  V30 10 2 11 10
M  V30 11 1 12 11
M  V30 12 2 13 12
M  V30 13 1 14 13
M  V30 14 1 15 10
M  V30 15 2 15 14
M  V30 16 1 16 15
M  V30 17 1 17 16
M  V30 18 1 18 17
M  V30 19 1 19 18
M  V30 20 1 20 19
M  V30 21 1 21 20
M  V30 22 1 22 21
M  V30 23 1 23 22
M  V30 24 1 24 23
M  V30 25 2 25 24
M  V30 26 1 26 25
M  V30 27 2 27 26
M  V30 28 1 28 27
M  V30 29 1 29 24
M  V30 30 2 29 28
M  V30 31 1 30 21
M  V30 32 1 30 29
M  V30 33 1 31 3
M  V30 34 2 31 7
M  V30 35 1 32 1
M  V30 36 1 33 1
M  V30 37 1 34 1
M  V30 38 1 35 4
M  V30 39 1 36 5
M  V30 40 1 37 6
M  V30 41 1 38 8
M  V30 42 1 39 8
M  V30 43 1 40 9
M  V30 44 1 41 9
M  V30 45 1 42 11
M  V30 46 1 43 12
M  V30 47 1 44 13
M  V30 48 1 45 14
M  V30 49 1 46 17
M  V30 50 1 47 17
M  V30 51 1 48 18
M  V30 52 1 49 18
M  V30 53 1 50 19
M  V30 54 1 51 19
M  V30 55 1 52 20
M  V30 56 1 53 20
M  V30 57 1 54 22
M  V30 58 1 55 22
M  V30 59 1 56 23
M  V30 60 1 57 23
M  V30 61 1 58 25
M  V30 62 1 59 26
M  V30 63 1 60 27
M  V30 64 1 61 28
M  V30 65 1 62 30
M  V30 66 1 63 30
M  V30 67 1 64 31
M  V30 68 1 21 65 CFG=3
M  V30 END BOND
M  V30 END CTAB
M  END
>  <b_m_subgroup_collapsed>  (432) 
0

>  <r_i_docking_score>  (432) 
-8.3313682244346108

>  <s_m_subgroup_title>  (432) 
glide-dock_SP_D22_pv

>  <s_m_subgroupid>  (432) 
glide-dock_SP_D22_pv

>  <Molecule ChEMBL ID>  (432) 
CHEMBL485918

>  <Standard Type>  (432) 
Ki

>  <Standard Value>  (432) 
1000000.0

>  <label>  (432) 
0

$$$$
CHEMBL542148
     RDKit          3D

  0  0  0  0  0  0  0  0  0  0999 V3000
M  V30 BEGIN CTAB
M  V30 COUNTS 35 36 0 0 1
M  V30 BEGIN ATOM
M  V30 1 C 9.226923 5.090460 -8.980101 0
M  V30 2 N 8.716640 6.389269 -8.486646 0 CHG=1
M  V30 3 C 8.356452 6.413262 -7.047441 0
M  V30 4 C 9.412035 7.596095 -9.017742 0
M  V30 5 C 10.815974 8.006028 -8.459950 0 CFG=1
M  V30 6 C 11.915147 7.957593 -9.536824 0
M  V30 7 O 10.683067 9.372264 -8.086282 0
M  V30 8 C 10.886946 9.485274 -6.740108 0
M  V30 9 C 11.213484 8.361620 -6.098642 0
M  V30 10 C 11.575651 8.231952 -4.675614 0
M  V30 11 C 11.817352 9.393280 -3.914485 0
M  V30 12 C 12.261074 9.287890 -2.587486 0
M  V30 13 C 12.442220 8.027506 -2.001235 0
M  V30 14 C 12.121006 6.864710 -2.722859 0
M  V30 15 C 11.686172 6.966396 -4.056928 0
M  V30 16 C 11.285997 7.368173 -7.151292 0
M  V30 17 O 11.674932 6.207299 -7.046804 0
M  V30 18 H 10.238106 4.883679 -8.635942 0
M  V30 19 H 8.581059 4.276335 -8.647499 0
M  V30 20 H 9.234897 5.075997 -10.070493 0
M  V30 21 H 9.145354 6.053400 -6.394587 0
M  V30 22 H 8.085155 7.420152 -6.728429 0
M  V30 23 H 7.495775 5.771799 -6.879707 0
M  V30 24 H 8.720869 8.427279 -8.865347 0
M  V30 25 H 9.463315 7.496172 -10.102947 0
M  V30 26 H 11.981611 6.972372 -9.995161 0
M  V30 27 H 11.709415 8.674877 -10.332258 0
M  V30 28 H 12.896056 8.206147 -9.127214 0
M  V30 29 H 10.775126 10.487000 -6.352305 0
M  V30 30 H 11.687011 10.374878 -4.341639 0
M  V30 31 H 12.484728 10.172548 -2.015451 0
M  V30 32 H 12.821892 7.959161 -0.995317 0
M  V30 33 H 12.229334 5.892802 -2.262453 0
M  V30 34 H 11.465058 6.056727 -4.593964 0
M  V30 35 H 7.803346 6.484671 -8.923614 0
M  V30 END ATOM
M  V30 BEGIN BOND
M  V30 1 1 2 1
M  V30 2 1 3 2
M  V30 3 1 4 2
M  V30 4 1 5 4 CFG=3
M  V30 5 1 6 5
M  V30 6 1 7 5
M  V30 7 1 8 7
M  V30 8 2 9 8
M  V30 9 1 10 9
M  V30 10 2 11 10
M  V30 11 1 12 11
M  V30 12 2 13 12
M  V30 13 1 14 13
M  V30 14 1 15 10
M  V30 15 2 15 14
M  V30 16 1 16 5
M  V30 17 1 16 9
M  V30 18 2 17 16
M  V30 19 1 18 1
M  V30 20 1 19 1
M  V30 21 1 20 1
M  V30 22 1 21 3
M  V30 23 1 22 3
M  V30 24 1 23 3
M  V30 25 1 24 4
M  V30 26 1 25 4
M  V30 27 1 26 6
M  V30 28 1 27 6
M  V30 29 1 28 6
M  V30 30 1 29 8
M  V30 31 1 30 11
M  V30 32 1 31 12
M  V30 33 1 32 13
M  V30 34 1 33 14
M  V30 35 1 34 15
M  V30 36 1 35 2
M  V30 END BOND
M  V30 END CTAB
M  END
>  <b_m_subgroup_collapsed>  (433) 
0

>  <r_i_docking_score>  (433) 
-8.3310849717772193

>  <s_m_subgroup_title>  (433) 
glide-dock_SP_D22_pv

>  <s_m_subgroupid>  (433) 
glide-dock_SP_D22_pv

>  <Molecule ChEMBL ID>  (433) 
CHEMBL542148

>  <Standard Type>  (433) 
Ki

>  <Standard Value>  (433) 
10000.0

>  <label>  (433) 
0

$$$$
CHEMBL457889
     RDKit          3D

  0  0  0  0  0  0  0  0  0  0999 V3000
M  V30 BEGIN CTAB
M  V30 COUNTS 70 73 0 0 1
M  V30 BEGIN ATOM
M  V30 1 C 13.340982 -0.853945 -19.738434 0
M  V30 2 O 12.109113 -0.996038 -19.046679 0
M  V30 3 C 11.715833 0.026563 -18.211235 0
M  V30 4 C 12.356403 1.288893 -18.139158 0
M  V30 5 C 11.912031 2.259423 -17.218222 0
M  V30 6 C 10.831023 1.981442 -16.361679 0
M  V30 7 C 10.180534 0.734041 -16.430502 0
M  V30 8 C 9.011351 0.429130 -15.514503 0
M  V30 9 C 7.674570 0.778459 -16.181843 0
M  V30 10 C 6.468635 0.448381 -15.317631 0
M  V30 11 C 5.686034 -0.680130 -15.637329 0
M  V30 12 C 4.516516 -0.966928 -14.910609 0
M  V30 13 C 4.137136 -0.133869 -13.846847 0
M  V30 14 C 4.932528 0.977008 -13.495276 0
M  V30 15 C 6.094701 1.294696 -14.246489 0
M  V30 16 O 6.877307 2.411104 -14.029251 0
M  V30 17 C 6.492412 3.370741 -13.053666 0
M  V30 18 C 7.700675 4.293159 -12.855392 0
M  V30 19 C 7.644132 5.078506 -11.539778 0
M  V30 20 C 8.908293 5.922332 -11.311337 0
M  V30 21 N 8.885880 6.598520 -9.992845 0 CHG=1
M  V30 22 C 9.254851 5.708086 -8.856360 0
M  V30 23 C 9.146125 6.432548 -7.502366 0
M  V30 24 N 9.865265 7.702835 -7.539510 0
M  V30 25 C 10.730300 8.125621 -6.499247 0
M  V30 26 C 11.499955 9.303197 -6.646048 0
M  V30 27 C 12.323938 9.771918 -5.615458 0
M  V30 28 C 12.426813 9.073197 -4.403054 0
M  V30 29 C 11.723154 7.870258 -4.248294 0
M  V30 30 Cl 11.900631 6.972318 -2.784405 0
M  V30 31 C 10.886140 7.401652 -5.283276 0
M  V30 32 C 9.442331 8.586459 -8.627888 0
M  V30 33 C 9.623820 7.882788 -9.978073 0
M  V30 34 C 10.616562 -0.227853 -17.364403 0
M  V30 35 H 13.563438 -1.778711 -20.271339 0
M  V30 36 H 13.291157 -0.050416 -20.474976 0
M  V30 37 H 14.166276 -0.666563 -19.050343 0
M  V30 38 H 13.197388 1.532139 -18.770346 0
M  V30 39 H 12.409801 3.217014 -17.164476 0
M  V30 40 H 10.499402 2.728121 -15.655560 0
M  V30 41 H 9.128739 0.981666 -14.581394 0
M  V30 42 H 9.035063 -0.627646 -15.247386 0
M  V30 43 H 7.590735 0.242780 -17.129051 0
M  V30 44 H 7.649325 1.839036 -16.434973 0
M  V30 45 H 5.971441 -1.328406 -16.454414 0
M  V30 46 H 3.910330 -1.820863 -15.179299 0
M  V30 47 H 3.220584 -0.340098 -13.313641 0
M  V30 48 H 4.600241 1.602672 -12.683055 0
M  V30 49 H 5.619129 3.932600 -13.390800 0
M  V30 50 H 6.237761 2.898354 -12.107422 0
M  V30 51 H 8.605183 3.686283 -12.851223 0
M  V30 52 H 7.791446 4.970236 -13.706212 0
M  V30 53 H 6.761802 5.722795 -11.524666 0
M  V30 54 H 7.520929 4.368203 -10.723277 0
M  V30 55 H 9.810385 5.313501 -11.399138 0
M  V30 56 H 8.964018 6.667253 -12.106435 0
M  V30 57 H 8.617884 4.825254 -8.838228 0
M  V30 58 H 10.278628 5.357899 -8.996622 0
M  V30 59 H 8.099662 6.630550 -7.263625 0
M  V30 60 H 9.521966 5.772289 -6.734487 0
M  V30 61 H 11.501073 9.880187 -7.551569 0
M  V30 62 H 12.886086 10.674699 -5.788507 0
M  V30 63 H 13.059681 9.447019 -3.610348 0
M  V30 64 H 10.343072 6.492556 -5.082788 0
M  V30 65 H 8.389673 8.823325 -8.474695 0
M  V30 66 H 9.936815 9.548552 -8.667363 0
M  V30 67 H 10.683269 7.707240 -10.176073 0
M  V30 68 H 9.247361 8.532266 -10.771712 0
M  V30 69 H 10.122584 -1.188777 -17.417433 0
M  V30 70 H 7.917229 6.886278 -9.848145 0
M  V30 END ATOM
M  V30 BEGIN BOND
M  V30 1 1 2 1
M  V30 2 1 3 2
M  V30 3 2 4 3
M  V30 4 1 5 4
M  V30 5 2 6 5
M  V30 6 1 7 6
M  V30 7 1 8 7
M  V30 8 1 9 8
M  V30 9 1 10 9
M  V30 10 2 11 10
M  V30 11 1 12 11
M  V30 12 2 13 12
M  V30 13 1 14 13
M  V30 14 1 15 10
M  V30 15 2 15 14
M  V30 16 1 16 15
M  V30 17 1 17 16
M  V30 18 1 18 17
M  V30 19 1 19 18
M  V30 20 1 20 19
M  V30 21 1 21 20
M  V30 22 1 22 21
M  V30 23 1 23 22
M  V30 24 1 24 23
M  V30 25 1 25 24
M  V30 26 2 26 25
M  V30 27 1 27 26
M  V30 28 2 28 27
M  V30 29 1 29 28
M  V30 30 1 30 29
M  V30 31 1 31 25
M  V30 32 2 31 29
M  V30 33 1 32 24
M  V30 34 1 33 21
M  V30 35 1 33 32
M  V30 36 1 34 3
M  V30 37 2 34 7
M  V30 38 1 35 1
M  V30 39 1 36 1
M  V30 40 1 37 1
M  V30 41 1 38 4
M  V30 42 1 39 5
M  V30 43 1 40 6
M  V30 44 1 41 8
M  V30 45 1 42 8
M  V30 46 1 43 9
M  V30 47 1 44 9
M  V30 48 1 45 11
M  V30 49 1 46 12
M  V30 50 1 47 13
M  V30 51 1 48 14
M  V30 52 1 49 17
M  V30 53 1 50 17
M  V30 54 1 51 18
M  V30 55 1 52 18
M  V30 56 1 53 19
M  V30 57 1 54 19
M  V30 58 1 55 20
M  V30 59 1 56 20
M  V30 60 1 57 22
M  V30 61 1 58 22
M  V30 62 1 59 23
M  V30 63 1 60 23
M  V30 64 1 61 26
M  V30 65 1 62 27
M  V30 66 1 63 28
M  V30 67 1 64 31
M  V30 68 1 65 32
M  V30 69 1 66 32
M  V30 70 1 67 33
M  V30 71 1 68 33
M  V30 72 1 69 34
M  V30 73 1 70 21
M  V30 END BOND
M  V30 END CTAB
M  END
>  <b_m_subgroup_collapsed>  (434) 
0

>  <r_i_docking_score>  (434) 
-8.3305086147546898

>  <s_m_subgroup_title>  (434) 
glide-dock_SP_D22_pv

>  <s_m_subgroupid>  (434) 
glide-dock_SP_D22_pv

>  <Molecule ChEMBL ID>  (434) 
CHEMBL457889

>  <Standard Type>  (434) 
Ki

>  <Standard Value>  (434) 
1000000.0

>  <label>  (434) 
0

$$$$
CHEMBL4476394
     RDKit          3D

  0  0  0  0  0  0  0  0  0  0999 V3000
M  V30 BEGIN CTAB
M  V30 COUNTS 68 71 0 0 1
M  V30 BEGIN ATOM
M  V30 1 C 10.094566 -0.768457 -16.896475 0
M  V30 2 C 8.688172 -0.290941 -17.285492 0
M  V30 3 C 8.021986 0.536436 -16.200914 0
M  V30 4 C 6.881906 0.055969 -15.536286 0
M  V30 5 C 6.269982 0.822447 -14.529611 0
M  V30 6 Cl 4.875297 0.178451 -13.741020 0
M  V30 7 C 6.770938 2.100486 -14.182458 0
M  V30 8 O 6.104851 2.771064 -13.171194 0
M  V30 9 C 5.643394 4.098927 -13.400878 0
M  V30 10 C 7.955508 2.572359 -14.827021 0
M  V30 11 N 8.591930 3.779762 -14.482341 0
M  V30 12 C 9.174058 4.648649 -15.502205 0
M  V30 13 C 10.659415 4.916936 -15.240362 0
M  V30 14 N 10.845524 5.342136 -13.831851 0 CHG=1
M  V30 15 C 12.189445 5.901689 -13.547937 0
M  V30 16 C 12.080043 7.372896 -13.086762 0 CFG=2
M  V30 17 O 13.286016 8.035129 -13.410936 0
M  V30 18 C 11.822904 7.593309 -11.579701 0
M  V30 19 C 10.370152 7.416718 -11.098954 0
M  V30 20 N 10.365802 7.280523 -9.647223 0
M  V30 21 C 10.124527 8.292377 -8.808589 0
M  V30 22 O 9.685354 9.371975 -9.192326 0
M  V30 23 C 10.547395 8.097271 -7.410483 0
M  V30 24 C 10.867435 6.992829 -6.660058 0
M  V30 25 C 11.256471 7.471729 -5.360506 0
M  V30 26 C 11.704852 6.863204 -4.165254 0
M  V30 27 C 12.068205 7.632397 -3.040776 0
M  V30 28 C 11.931657 9.034577 -3.066539 0
M  V30 29 C 11.435216 9.664859 -4.223417 0
M  V30 30 C 11.132429 8.891887 -5.356729 0
M  V30 31 N 10.679374 9.222807 -6.615213 0
M  V30 32 C 10.355072 4.301618 -12.888510 0
M  V30 33 C 8.853953 4.114782 -13.091733 0
M  V30 34 C 8.551319 1.785686 -15.839751 0
M  V30 35 H 10.517576 -1.396385 -17.681322 0
M  V30 36 H 10.774752 0.069760 -16.744699 0
M  V30 37 H 10.084785 -1.351914 -15.976173 0
M  V30 38 H 8.061440 -1.151101 -17.522543 0
M  V30 39 H 8.739283 0.305754 -18.196276 0
M  V30 40 H 6.476062 -0.914071 -15.788598 0
M  V30 41 H 5.370042 4.539540 -12.440965 0
M  V30 42 H 6.363550 4.767710 -13.857081 0
M  V30 43 H 4.752272 4.119987 -14.018556 0
M  V30 44 H 8.620650 5.583724 -15.446155 0
M  V30 45 H 9.027400 4.267358 -16.512968 0
M  V30 46 H 11.008358 5.693652 -15.922815 0
M  V30 47 H 11.253009 4.022418 -15.437518 0
M  V30 48 H 12.771179 5.880352 -14.471101 0
M  V30 49 H 12.766673 5.283686 -12.861400 0
M  V30 50 H 11.303187 7.867748 -13.667784 0
M  V30 51 H 14.017581 7.538659 -13.058516 0
M  V30 52 H 12.486012 6.972179 -10.989655 0
M  V30 53 H 12.119304 8.608727 -11.313462 0
M  V30 54 H 9.762404 8.260520 -11.434614 0
M  V30 55 H 9.884852 6.543330 -11.509443 0
M  V30 56 H 10.703274 6.416437 -9.250224 0
M  V30 57 H 10.856173 5.961491 -6.975937 0
M  V30 58 H 11.796075 5.787856 -4.126225 0
M  V30 59 H 12.430505 7.141640 -2.148349 0
M  V30 60 H 12.187691 9.621420 -2.195701 0
M  V30 61 H 11.285844 10.733581 -4.244787 0
M  V30 62 H 10.475716 10.147937 -6.966327 0
M  V30 63 H 10.885856 3.364418 -13.059858 0
M  V30 64 H 10.486372 4.562221 -11.846328 0
M  V30 65 H 8.336460 5.043365 -12.847289 0
M  V30 66 H 8.472081 3.372328 -12.403366 0
M  V30 67 H 9.451287 2.120855 -16.332537 0
M  V30 68 H 10.209289 6.118661 -13.715686 0
M  V30 END ATOM
M  V30 BEGIN BOND
M  V30 1 1 2 1
M  V30 2 1 3 2
M  V30 3 2 4 3
M  V30 4 1 5 4
M  V30 5 1 6 5
M  V30 6 2 7 5
M  V30 7 1 8 7
M  V30 8 1 9 8
M  V30 9 1 10 7
M  V30 10 1 11 10
M  V30 11 1 12 11
M  V30 12 1 13 12
M  V30 13 1 14 13
M  V30 14 1 15 14
M  V30 15 1 16 15
M  V30 16 1 17 16
M  V30 17 1 18 16
M  V30 18 1 19 18
M  V30 19 1 20 19
M  V30 20 1 21 20
M  V30 21 2 22 21
M  V30 22 1 23 21
M  V30 23 2 24 23
M  V30 24 1 25 24
M  V30 25 2 26 25
M  V30 26 1 27 26
M  V30 27 2 28 27
M  V30 28 1 29 28
M  V30 29 1 30 25
M  V30 30 2 30 29
M  V30 31 1 31 23
M  V30 32 1 31 30
M  V30 33 1 32 14
M  V30 34 1 33 11
M  V30 35 1 33 32
M  V30 36 1 34 3
M  V30 37 2 34 10
M  V30 38 1 35 1
M  V30 39 1 36 1
M  V30 40 1 37 1
M  V30 41 1 38 2
M  V30 42 1 39 2
M  V30 43 1 40 4
M  V30 44 1 41 9
M  V30 45 1 42 9
M  V30 46 1 43 9
M  V30 47 1 44 12
M  V30 48 1 45 12
M  V30 49 1 46 13
M  V30 50 1 47 13
M  V30 51 1 48 15
M  V30 52 1 49 15
M  V30 53 1 16 50 CFG=3
M  V30 54 1 51 17
M  V30 55 1 52 18
M  V30 56 1 53 18
M  V30 57 1 54 19
M  V30 58 1 55 19
M  V30 59 1 56 20
M  V30 60 1 57 24
M  V30 61 1 58 26
M  V30 62 1 59 27
M  V30 63 1 60 28
M  V30 64 1 61 29
M  V30 65 1 62 31
M  V30 66 1 63 32
M  V30 67 1 64 32
M  V30 68 1 65 33
M  V30 69 1 66 33
M  V30 70 1 67 34
M  V30 71 1 68 14
M  V30 END BOND
M  V30 END CTAB
M  END
>  <b_m_subgroup_collapsed>  (435) 
0

>  <r_i_docking_score>  (435) 
-8.3281703005426095

>  <s_m_subgroup_title>  (435) 
glide-dock_SP_D22_pv

>  <s_m_subgroupid>  (435) 
glide-dock_SP_D22_pv

>  <Molecule ChEMBL ID>  (435) 
CHEMBL4476394

>  <Standard Type>  (435) 
Ki

>  <Standard Value>  (435) 
11400.0

>  <label>  (435) 
0

$$$$
CHEMBL4555827
     RDKit          3D

  0  0  0  0  0  0  0  0  0  0999 V3000
M  V30 BEGIN CTAB
M  V30 COUNTS 68 71 0 0 1
M  V30 BEGIN ATOM
M  V30 1 C 10.094566 -0.768457 -16.896475 0
M  V30 2 C 8.688172 -0.290941 -17.285492 0
M  V30 3 C 8.021986 0.536436 -16.200914 0
M  V30 4 C 6.881906 0.055969 -15.536286 0
M  V30 5 C 6.269982 0.822447 -14.529611 0
M  V30 6 Cl 4.875297 0.178451 -13.741020 0
M  V30 7 C 6.770938 2.100486 -14.182458 0
M  V30 8 O 6.104851 2.771064 -13.171194 0
M  V30 9 C 5.643394 4.098927 -13.400878 0
M  V30 10 C 7.955508 2.572359 -14.827021 0
M  V30 11 N 8.591930 3.779762 -14.482341 0
M  V30 12 C 9.174058 4.648649 -15.502205 0
M  V30 13 C 10.659415 4.916936 -15.240362 0
M  V30 14 N 10.845524 5.342136 -13.831851 0 CHG=1
M  V30 15 C 12.189445 5.901689 -13.547937 0
M  V30 16 C 12.080043 7.372896 -13.086762 0 CFG=2
M  V30 17 O 13.286016 8.035129 -13.410936 0
M  V30 18 C 11.822904 7.593309 -11.579701 0
M  V30 19 C 10.370152 7.416718 -11.098954 0
M  V30 20 N 10.365802 7.280523 -9.647223 0
M  V30 21 C 10.124527 8.292377 -8.808589 0
M  V30 22 O 9.685354 9.371975 -9.192326 0
M  V30 23 C 10.547395 8.097271 -7.410483 0
M  V30 24 C 10.867435 6.992829 -6.660058 0
M  V30 25 C 11.256471 7.471729 -5.360506 0
M  V30 26 C 11.704852 6.863204 -4.165254 0
M  V30 27 C 12.068205 7.632397 -3.040776 0
M  V30 28 C 11.931657 9.034577 -3.066539 0
M  V30 29 C 11.435216 9.664859 -4.223417 0
M  V30 30 C 11.132429 8.891887 -5.356729 0
M  V30 31 N 10.679374 9.222807 -6.615213 0
M  V30 32 C 10.355072 4.301618 -12.888510 0
M  V30 33 C 8.853953 4.114782 -13.091733 0
M  V30 34 C 8.551319 1.785686 -15.839751 0
M  V30 35 H 10.517576 -1.396385 -17.681322 0
M  V30 36 H 10.774752 0.069760 -16.744699 0
M  V30 37 H 10.084785 -1.351914 -15.976173 0
M  V30 38 H 8.061440 -1.151101 -17.522543 0
M  V30 39 H 8.739283 0.305754 -18.196276 0
M  V30 40 H 6.476062 -0.914071 -15.788598 0
M  V30 41 H 5.370042 4.539540 -12.440965 0
M  V30 42 H 6.363550 4.767710 -13.857081 0
M  V30 43 H 4.752272 4.119987 -14.018556 0
M  V30 44 H 8.620650 5.583724 -15.446155 0
M  V30 45 H 9.027400 4.267358 -16.512968 0
M  V30 46 H 11.008358 5.693652 -15.922815 0
M  V30 47 H 11.253009 4.022418 -15.437518 0
M  V30 48 H 12.771179 5.880352 -14.471101 0
M  V30 49 H 12.766673 5.283686 -12.861400 0
M  V30 50 H 11.303187 7.867748 -13.667784 0
M  V30 51 H 14.017581 7.538659 -13.058516 0
M  V30 52 H 12.486012 6.972179 -10.989655 0
M  V30 53 H 12.119304 8.608727 -11.313462 0
M  V30 54 H 9.762404 8.260520 -11.434614 0
M  V30 55 H 9.884852 6.543330 -11.509443 0
M  V30 56 H 10.703274 6.416437 -9.250224 0
M  V30 57 H 10.856173 5.961491 -6.975937 0
M  V30 58 H 11.796075 5.787856 -4.126225 0
M  V30 59 H 12.430505 7.141640 -2.148349 0
M  V30 60 H 12.187691 9.621420 -2.195701 0
M  V30 61 H 11.285844 10.733581 -4.244787 0
M  V30 62 H 10.475716 10.147937 -6.966327 0
M  V30 63 H 10.885856 3.364418 -13.059858 0
M  V30 64 H 10.486372 4.562221 -11.846328 0
M  V30 65 H 8.336460 5.043365 -12.847289 0
M  V30 66 H 8.472081 3.372328 -12.403366 0
M  V30 67 H 9.451287 2.120855 -16.332537 0
M  V30 68 H 10.209289 6.118661 -13.715686 0
M  V30 END ATOM
M  V30 BEGIN BOND
M  V30 1 1 2 1
M  V30 2 1 3 2
M  V30 3 2 4 3
M  V30 4 1 5 4
M  V30 5 1 6 5
M  V30 6 2 7 5
M  V30 7 1 8 7
M  V30 8 1 9 8
M  V30 9 1 10 7
M  V30 10 1 11 10
M  V30 11 1 12 11
M  V30 12 1 13 12
M  V30 13 1 14 13
M  V30 14 1 15 14
M  V30 15 1 16 15
M  V30 16 1 17 16
M  V30 17 1 18 16
M  V30 18 1 19 18
M  V30 19 1 20 19
M  V30 20 1 21 20
M  V30 21 2 22 21
M  V30 22 1 23 21
M  V30 23 2 24 23
M  V30 24 1 25 24
M  V30 25 2 26 25
M  V30 26 1 27 26
M  V30 27 2 28 27
M  V30 28 1 29 28
M  V30 29 1 30 25
M  V30 30 2 30 29
M  V30 31 1 31 23
M  V30 32 1 31 30
M  V30 33 1 32 14
M  V30 34 1 33 11
M  V30 35 1 33 32
M  V30 36 1 34 3
M  V30 37 2 34 10
M  V30 38 1 35 1
M  V30 39 1 36 1
M  V30 40 1 37 1
M  V30 41 1 38 2
M  V30 42 1 39 2
M  V30 43 1 40 4
M  V30 44 1 41 9
M  V30 45 1 42 9
M  V30 46 1 43 9
M  V30 47 1 44 12
M  V30 48 1 45 12
M  V30 49 1 46 13
M  V30 50 1 47 13
M  V30 51 1 48 15
M  V30 52 1 49 15
M  V30 53 1 16 50 CFG=3
M  V30 54 1 51 17
M  V30 55 1 52 18
M  V30 56 1 53 18
M  V30 57 1 54 19
M  V30 58 1 55 19
M  V30 59 1 56 20
M  V30 60 1 57 24
M  V30 61 1 58 26
M  V30 62 1 59 27
M  V30 63 1 60 28
M  V30 64 1 61 29
M  V30 65 1 62 31
M  V30 66 1 63 32
M  V30 67 1 64 32
M  V30 68 1 65 33
M  V30 69 1 66 33
M  V30 70 1 67 34
M  V30 71 1 68 14
M  V30 END BOND
M  V30 END CTAB
M  END
>  <b_m_subgroup_collapsed>  (436) 
0

>  <r_i_docking_score>  (436) 
-8.3281703005426095

>  <s_m_subgroup_title>  (436) 
glide-dock_SP_D22_pv

>  <s_m_subgroupid>  (436) 
glide-dock_SP_D22_pv

>  <Molecule ChEMBL ID>  (436) 
CHEMBL4555827

>  <Standard Type>  (436) 
Ki

>  <Standard Value>  (436) 
10800.0

>  <label>  (436) 
0

$$$$
CHEMBL4517296
     RDKit          3D

  0  0  0  0  0  0  0  0  0  0999 V3000
M  V30 BEGIN CTAB
M  V30 COUNTS 62 65 0 0 1
M  V30 BEGIN ATOM
M  V30 1 C 7.007754 0.694912 -16.888483 0
M  V30 2 N 8.303978 0.771125 -16.227121 0
M  V30 3 C 9.496600 0.189368 -16.674576 0
M  V30 4 C 9.597008 -0.642350 -17.898260 0
M  V30 5 N 10.774394 -0.607295 -18.519083 0
M  V30 6 O 8.655923 -1.288947 -18.346903 0
M  V30 7 C 10.486239 0.504829 -15.786612 0
M  V30 8 C 9.918306 1.317010 -14.776201 0
M  V30 9 C 8.588031 1.466088 -15.049062 0
M  V30 10 C 7.613517 2.244673 -14.285808 0
M  V30 11 C 6.364825 1.730748 -13.872189 0
M  V30 12 C 5.523769 2.504539 -13.046890 0
M  V30 13 C 5.939091 3.774371 -12.598001 0
M  V30 14 C 7.187887 4.301469 -12.984752 0
M  V30 15 O 7.564526 5.526267 -12.460430 0
M  V30 16 C 8.858668 5.872974 -12.212477 0
M  V30 17 O 9.859013 5.208558 -12.489420 0
M  V30 18 N 8.885798 7.102223 -11.578684 0
M  V30 19 C 10.130179 7.751278 -11.183784 0
M  V30 20 C 10.811010 6.990595 -10.029181 0
M  V30 21 N 10.404757 7.561519 -8.754733 0
M  V30 22 C 11.361067 8.587940 -8.319598 0
M  V30 23 C 10.860936 9.245960 -7.020289 0
M  V30 24 N 10.606684 8.223935 -6.013668 0
M  V30 25 C 11.287390 8.198163 -4.787181 0
M  V30 26 C 11.685801 6.978526 -4.195102 0
M  V30 27 C 12.275609 6.962235 -2.917075 0
M  V30 28 C 12.472996 8.165650 -2.216920 0
M  V30 29 C 12.091581 9.379952 -2.804775 0
M  V30 30 C 11.516523 9.401105 -4.086970 0
M  V30 31 C 9.744436 7.130359 -6.444334 0
M  V30 32 C 10.306186 6.514165 -7.732775 0
M  V30 33 C 7.993071 3.532279 -13.859015 0
M  V30 34 H 6.540386 -0.267988 -16.668663 0
M  V30 35 H 6.349355 1.496888 -16.560425 0
M  V30 36 H 7.128617 0.796910 -17.966612 0
M  V30 37 H 11.517011 -0.037941 -18.145752 0
M  V30 38 H 10.898215 -1.121465 -19.377954 0
M  V30 39 H 11.515883 0.190686 -15.852880 0
M  V30 40 H 10.424124 1.746924 -13.923195 0
M  V30 41 H 6.060087 0.739729 -14.169184 0
M  V30 42 H 4.567696 2.111793 -12.732125 0
M  V30 43 H 5.302511 4.341880 -11.932417 0
M  V30 44 H 7.990749 7.481163 -11.273851 0
M  V30 45 H 9.932903 8.793164 -10.924902 0
M  V30 46 H 10.796800 7.771585 -12.046768 0
M  V30 47 H 11.897174 7.022648 -10.132566 0
M  V30 48 H 10.535480 5.935541 -10.069463 0
M  V30 49 H 11.468267 9.347005 -9.094192 0
M  V30 50 H 12.345348 8.145816 -8.161498 0
M  V30 51 H 9.927647 9.772732 -7.211817 0
M  V30 52 H 11.589403 9.980874 -6.676519 0
M  V30 53 H 11.538968 6.039039 -4.706429 0
M  V30 54 H 12.565030 6.022290 -2.469379 0
M  V30 55 H 12.902002 8.157951 -1.226004 0
M  V30 56 H 12.217173 10.302512 -2.259193 0
M  V30 57 H 11.198384 10.346787 -4.496989 0
M  V30 58 H 9.620115 6.372688 -5.673419 0
M  V30 59 H 8.746928 7.531186 -6.636612 0
M  V30 60 H 9.633700 5.725786 -8.073822 0
M  V30 61 H 11.280339 6.056189 -7.553295 0
M  V30 62 H 8.942897 3.906969 -14.209975 0
M  V30 END ATOM
M  V30 BEGIN BOND
M  V30 1 1 2 1
M  V30 2 1 3 2
M  V30 3 1 4 3
M  V30 4 1 5 4
M  V30 5 2 6 4
M  V30 6 2 7 3
M  V30 7 1 8 7
M  V30 8 1 9 2
M  V30 9 2 9 8
M  V30 10 1 10 9
M  V30 11 2 11 10
M  V30 12 1 12 11
M  V30 13 2 13 12
M  V30 14 1 14 13
M  V30 15 1 15 14
M  V30 16 1 16 15
M  V30 17 2 17 16
M  V30 18 1 18 16
M  V30 19 1 19 18
M  V30 20 1 20 19
M  V30 21 1 21 20
M  V30 22 1 22 21
M  V30 23 1 23 22
M  V30 24 1 24 23
M  V30 25 1 25 24
M  V30 26 2 26 25
M  V30 27 1 27 26
M  V30 28 2 28 27
M  V30 29 1 29 28
M  V30 30 1 30 25
M  V30 31 2 30 29
M  V30 32 1 31 24
M  V30 33 1 32 21
M  V30 34 1 32 31
M  V30 35 1 33 10
M  V30 36 2 33 14
M  V30 37 1 34 1
M  V30 38 1 35 1
M  V30 39 1 36 1
M  V30 40 1 37 5
M  V30 41 1 38 5
M  V30 42 1 39 7
M  V30 43 1 40 8
M  V30 44 1 41 11
M  V30 45 1 42 12
M  V30 46 1 43 13
M  V30 47 1 44 18
M  V30 48 1 45 19
M  V30 49 1 46 19
M  V30 50 1 47 20
M  V30 51 1 48 20
M  V30 52 1 49 22
M  V30 53 1 50 22
M  V30 54 1 51 23
M  V30 55 1 52 23
M  V30 56 1 53 26
M  V30 57 1 54 27
M  V30 58 1 55 28
M  V30 59 1 56 29
M  V30 60 1 57 30
M  V30 61 1 58 31
M  V30 62 1 59 31
M  V30 63 1 60 32
M  V30 64 1 61 32
M  V30 65 1 62 33
M  V30 END BOND
M  V30 END CTAB
M  END
>  <b_m_subgroup_collapsed>  (437) 
0

>  <r_i_docking_score>  (437) 
-8.3228063889307595

>  <s_m_subgroup_title>  (437) 
glide-dock_SP_D22_pv

>  <s_m_subgroupid>  (437) 
glide-dock_SP_D22_pv

>  <Molecule ChEMBL ID>  (437) 
CHEMBL4517296

>  <Standard Type>  (437) 
Ki

>  <Standard Value>  (437) 
56.23

>  <label>  (437) 
1

$$$$
CHEMBL521025
     RDKit          3D

  0  0  0  0  0  0  0  0  0  0999 V3000
M  V30 BEGIN CTAB
M  V30 COUNTS 59 62 0 0 1
M  V30 BEGIN ATOM
M  V30 1 C 3.597083 -2.126764 -18.416248 0
M  V30 2 O 4.785417 -1.520789 -17.931778 0
M  V30 3 C 4.788886 -1.022943 -16.646210 0
M  V30 4 C 3.686442 -1.073352 -15.759963 0
M  V30 5 C 3.777230 -0.511964 -14.470489 0
M  V30 6 C 4.975631 0.092781 -14.045501 0
M  V30 7 C 6.085266 0.134431 -14.914990 0
M  V30 8 C 7.379159 0.800985 -14.491254 0
M  V30 9 C 7.321723 2.321139 -14.717987 0
M  V30 10 C 8.644950 3.034239 -14.475742 0
M  V30 11 C 9.738176 2.723475 -15.313023 0
M  V30 12 C 10.962026 3.399776 -15.177925 0
M  V30 13 C 11.093849 4.408406 -14.209631 0
M  V30 14 C 10.009823 4.726845 -13.373493 0
M  V30 15 C 8.773376 4.033966 -13.478285 0
M  V30 16 O 7.681718 4.285717 -12.665694 0
M  V30 17 C 7.701215 5.399029 -11.774230 0
M  V30 18 C 8.516000 5.108560 -10.492058 0
M  V30 19 N 8.825981 6.337615 -9.711872 0 CFG=2 CHG=1
M  V30 20 C 9.865907 7.182202 -10.348433 0
M  V30 21 C 9.970373 8.524765 -9.631134 0
M  V30 22 C 10.263632 8.316183 -8.163908 0
M  V30 23 C 10.984858 9.289568 -7.452671 0
M  V30 24 C 11.304353 9.109281 -6.096900 0
M  V30 25 C 10.887010 7.938173 -5.447009 0
M  V30 26 C 10.142445 6.972430 -6.149120 0
M  V30 27 C 9.836244 7.140621 -7.515016 0
M  V30 28 C 9.106118 6.036227 -8.278356 0
M  V30 29 C 5.981711 -0.419048 -16.207113 0
M  V30 30 H 3.747677 -2.429484 -19.453522 0
M  V30 31 H 3.343266 -3.021334 -17.847399 0
M  V30 32 H 2.760261 -1.429485 -18.397123 0
M  V30 33 H 2.755176 -1.531978 -16.051134 0
M  V30 34 H 2.920151 -0.542422 -13.813263 0
M  V30 35 H 5.040081 0.530584 -13.060525 0
M  V30 36 H 8.198366 0.357046 -15.056555 0
M  V30 37 H 7.580258 0.572348 -13.447046 0
M  V30 38 H 6.524001 2.749039 -14.110980 0
M  V30 39 H 7.037832 2.513668 -15.752944 0
M  V30 40 H 9.636457 1.968693 -16.079964 0
M  V30 41 H 11.794024 3.154434 -15.822005 0
M  V30 42 H 12.031091 4.938711 -14.106953 0
M  V30 43 H 10.164625 5.509991 -12.652302 0
M  V30 44 H 8.036780 6.283444 -12.312902 0
M  V30 45 H 6.671880 5.620926 -11.488589 0
M  V30 46 H 7.937151 4.421764 -9.874567 0
M  V30 47 H 9.445827 4.582749 -10.705756 0
M  V30 48 H 10.824911 6.660652 -10.324458 0
M  V30 49 H 9.640634 7.379782 -11.392941 0
M  V30 50 H 9.040177 9.087998 -9.727965 0
M  V30 51 H 10.760539 9.125669 -10.084538 0
M  V30 52 H 11.287815 10.171934 -7.971514 0
M  V30 53 H 11.871643 9.858957 -5.564434 0
M  V30 54 H 11.131794 7.781639 -4.405636 0
M  V30 55 H 9.810781 6.100952 -5.619192 0
M  V30 56 H 8.167223 5.805245 -7.772286 0
M  V30 57 H 9.728610 5.141745 -8.218187 0
M  V30 58 H 6.828558 -0.384174 -16.876373 0
M  V30 59 H 7.967804 6.896471 -9.712962 0
M  V30 END ATOM
M  V30 BEGIN BOND
M  V30 1 1 2 1
M  V30 2 1 3 2
M  V30 3 2 4 3
M  V30 4 1 5 4
M  V30 5 2 6 5
M  V30 6 1 7 6
M  V30 7 1 8 7
M  V30 8 1 9 8
M  V30 9 1 10 9
M  V30 10 2 11 10
M  V30 11 1 12 11
M  V30 12 2 13 12
M  V30 13 1 14 13
M  V30 14 1 15 10
M  V30 15 2 15 14
M  V30 16 1 16 15
M  V30 17 1 17 16
M  V30 18 1 18 17
M  V30 19 1 19 18
M  V30 20 1 20 19
M  V30 21 1 21 20
M  V30 22 1 22 21
M  V30 23 2 23 22
M  V30 24 1 24 23
M  V30 25 2 25 24
M  V30 26 1 26 25
M  V30 27 1 27 22
M  V30 28 2 27 26
M  V30 29 1 28 19
M  V30 30 1 28 27
M  V30 31 1 29 3
M  V30 32 2 29 7
M  V30 33 1 30 1
M  V30 34 1 31 1
M  V30 35 1 32 1
M  V30 36 1 33 4
M  V30 37 1 34 5
M  V30 38 1 35 6
M  V30 39 1 36 8
M  V30 40 1 37 8
M  V30 41 1 38 9
M  V30 42 1 39 9
M  V30 43 1 40 11
M  V30 44 1 41 12
M  V30 45 1 42 13
M  V30 46 1 43 14
M  V30 47 1 44 17
M  V30 48 1 45 17
M  V30 49 1 46 18
M  V30 50 1 47 18
M  V30 51 1 48 20
M  V30 52 1 49 20
M  V30 53 1 50 21
M  V30 54 1 51 21
M  V30 55 1 52 23
M  V30 56 1 53 24
M  V30 57 1 54 25
M  V30 58 1 55 26
M  V30 59 1 56 28
M  V30 60 1 57 28
M  V30 61 1 58 29
M  V30 62 1 19 59 CFG=1
M  V30 END BOND
M  V30 END CTAB
M  END
>  <b_m_subgroup_collapsed>  (438) 
0

>  <r_i_docking_score>  (438) 
-8.3226163748863193

>  <s_m_subgroup_title>  (438) 
glide-dock_SP_D22_pv

>  <s_m_subgroupid>  (438) 
glide-dock_SP_D22_pv

>  <Molecule ChEMBL ID>  (438) 
CHEMBL521025

>  <Standard Type>  (438) 
Ki

>  <Standard Value>  (438) 
1000000.0

>  <label>  (438) 
0

$$$$
CHEMBL443006
     RDKit          3D

  0  0  0  0  0  0  0  0  0  0999 V3000
M  V30 BEGIN CTAB
M  V30 COUNTS 52 55 0 0 1
M  V30 BEGIN ATOM
M  V30 1 C 12.431096 8.841299 -2.244023 0
M  V30 2 S 12.063369 9.340595 -3.967818 0
M  V30 3 O 10.856881 10.172417 -3.996576 0
M  V30 4 O 13.286046 9.772310 -4.646775 0
M  V30 5 N 11.620651 7.868430 -4.720205 0
M  V30 6 C 11.074910 7.756448 -5.996599 0
M  V30 7 C 11.631948 8.431982 -7.102773 0
M  V30 8 C 11.055660 8.285576 -8.377658 0
M  V30 9 C 9.905357 7.482650 -8.545950 0
M  V30 10 C 9.278082 7.341123 -9.916866 0
M  V30 11 C 8.681886 5.939683 -10.207276 0
M  V30 12 N 8.013095 5.877755 -11.525497 0 CFG=1 CHG=1
M  V30 13 C 8.937412 6.048538 -12.675178 0
M  V30 14 C 8.953965 4.685256 -13.341101 0 CFG=2
M  V30 15 C 9.449414 4.522355 -14.772948 0
M  V30 16 O 9.352296 3.142116 -15.131219 0
M  V30 17 C 8.218471 2.440438 -14.756128 0
M  V30 18 C 8.049546 1.153155 -15.299036 0
M  V30 19 C 6.903920 0.396099 -15.001259 0
M  V30 20 C 5.909032 0.922740 -14.154613 0
M  V30 21 C 4.674225 0.172313 -13.973212 0
M  V30 22 N 3.689245 -0.420102 -13.843269 0
M  V30 23 C 6.086137 2.196663 -13.562243 0
M  V30 24 C 7.248071 2.950643 -13.847613 0
M  V30 25 C 7.493989 4.319613 -13.251164 0 CFG=1
M  V30 26 C 7.230185 4.626066 -11.771836 0
M  V30 27 C 9.327744 6.851348 -7.425745 0
M  V30 28 C 9.927311 6.971681 -6.166684 0
M  V30 29 H 12.656818 9.732306 -1.659461 0
M  V30 30 H 13.285852 8.170290 -2.239401 0
M  V30 31 H 11.565753 8.344460 -1.810393 0
M  V30 32 H 11.279106 7.167337 -4.082577 0
M  V30 33 H 12.509580 9.051501 -6.985862 0
M  V30 34 H 11.499537 8.792727 -9.222475 0
M  V30 35 H 8.496314 8.097160 -9.992489 0
M  V30 36 H 10.033032 7.606294 -10.655682 0
M  V30 37 H 9.449366 5.168873 -10.136262 0
M  V30 38 H 7.915963 5.702646 -9.471122 0
M  V30 39 H 8.485910 6.783127 -13.337602 0
M  V30 40 H 9.943250 6.380445 -12.422331 0
M  V30 41 H 9.542316 4.006883 -12.716341 0
M  V30 42 H 8.885393 5.139157 -15.470663 0
M  V30 43 H 10.493347 4.827741 -14.849365 0
M  V30 44 H 8.796928 0.749159 -15.966361 0
M  V30 45 H 6.781189 -0.578292 -15.456213 0
M  V30 46 H 5.322788 2.599131 -12.909942 0
M  V30 47 H 6.891358 5.001648 -13.848660 0
M  V30 48 H 7.601387 3.815374 -11.143310 0
M  V30 49 H 6.169639 4.761744 -11.552729 0
M  V30 50 H 8.422154 6.269456 -7.501711 0
M  V30 51 H 9.478721 6.471200 -5.321921 0
M  V30 52 H 7.356096 6.653997 -11.513951 0
M  V30 END ATOM
M  V30 BEGIN BOND
M  V30 1 1 2 1
M  V30 2 2 3 2
M  V30 3 2 4 2
M  V30 4 1 5 2
M  V30 5 1 6 5
M  V30 6 1 7 6
M  V30 7 2 8 7
M  V30 8 1 9 8
M  V30 9 1 10 9
M  V30 10 1 11 10
M  V30 11 1 12 11
M  V30 12 1 13 12
M  V30 13 1 14 13
M  V30 14 1 15 14
M  V30 15 1 16 15
M  V30 16 1 17 16
M  V30 17 1 18 17
M  V30 18 2 19 18
M  V30 19 1 20 19
M  V30 20 1 21 20
M  V30 21 3 22 21
M  V30 22 2 23 20
M  V30 23 2 24 17
M  V30 24 1 24 23
M  V30 25 1 25 14
M  V30 26 1 25 24
M  V30 27 1 26 12
M  V30 28 1 26 25
M  V30 29 2 27 9
M  V30 30 2 28 6
M  V30 31 1 28 27
M  V30 32 1 29 1
M  V30 33 1 30 1
M  V30 34 1 31 1
M  V30 35 1 32 5
M  V30 36 1 33 7
M  V30 37 1 34 8
M  V30 38 1 35 10
M  V30 39 1 36 10
M  V30 40 1 37 11
M  V30 41 1 38 11
M  V30 42 1 39 13
M  V30 43 1 40 13
M  V30 44 1 14 41 CFG=1
M  V30 45 1 42 15
M  V30 46 1 43 15
M  V30 47 1 44 18
M  V30 48 1 45 19
M  V30 49 1 46 23
M  V30 50 1 25 47 CFG=3
M  V30 51 1 48 26
M  V30 52 1 49 26
M  V30 53 1 50 27
M  V30 54 1 51 28
M  V30 55 1 12 52 CFG=1
M  V30 END BOND
M  V30 END CTAB
M  END
>  <b_m_subgroup_collapsed>  (439) 
0

>  <r_i_docking_score>  (439) 
-8.3204449036280295

>  <s_m_subgroup_title>  (439) 
glide-dock_SP_D22_pv

>  <s_m_subgroupid>  (439) 
glide-dock_SP_D22_pv

>  <Molecule ChEMBL ID>  (439) 
CHEMBL443006

>  <Standard Type>  (439) 
Ki

>  <Standard Value>  (439) 
25.12

>  <label>  (439) 
1

$$$$
CHEMBL221600
     RDKit          3D

  0  0  0  0  0  0  0  0  0  0999 V3000
M  V30 BEGIN CTAB
M  V30 COUNTS 48 51 0 0 1
M  V30 BEGIN ATOM
M  V30 1 C 12.339386 8.139156 -2.660549 0
M  V30 2 C 12.084456 6.943788 -3.354633 0
M  V30 3 C 11.560851 6.977036 -4.663008 0
M  V30 4 C 11.286084 8.214654 -5.291335 0
M  V30 5 C 10.722991 8.310328 -6.708959 0 CFG=1
M  V30 6 C 11.823495 8.533616 -7.755741 0
M  V30 7 C 11.210235 8.815754 -9.135897 0
M  V30 8 N 10.293470 7.729538 -9.582021 0 CFG=2 CHG=1
M  V30 9 C 9.706863 8.033367 -10.914237 0
M  V30 10 C 9.481842 6.801833 -11.749084 0
M  V30 11 C 10.391168 6.173969 -12.646161 0
M  V30 12 N 9.868622 5.121967 -13.249766 0
M  V30 13 N 8.598150 5.038113 -12.788449 0
M  V30 14 C 7.731025 3.990346 -13.203091 0
M  V30 15 C 8.148317 3.041867 -14.170185 0
M  V30 16 C 7.328956 1.940693 -14.488596 0
M  V30 17 C 6.086097 1.777509 -13.847744 0
M  V30 18 C 5.638437 2.741336 -12.927992 0
M  V30 19 C 6.453622 3.843103 -12.608352 0
M  V30 20 C 8.345529 6.055027 -11.886185 0
M  V30 21 C 9.257813 7.406314 -8.560952 0
M  V30 22 C 9.860705 7.120826 -7.170586 0
M  V30 23 C 11.554049 9.410070 -4.587458 0
M  V30 24 C 12.077385 9.372476 -3.280258 0
M  V30 25 H 12.733104 8.112562 -1.655115 0
M  V30 26 H 12.283545 5.995883 -2.878585 0
M  V30 27 H 11.374499 6.043149 -5.170335 0
M  V30 28 H 10.077043 9.191054 -6.707935 0
M  V30 29 H 12.454856 9.372350 -7.459422 0
M  V30 30 H 12.478930 7.662839 -7.811888 0
M  V30 31 H 12.015862 8.942660 -9.861843 0
M  V30 32 H 10.662514 9.759042 -9.111888 0
M  V30 33 H 10.389405 8.692409 -11.446966 0
M  V30 34 H 8.788975 8.612203 -10.796780 0
M  V30 35 H 11.410234 6.449351 -12.876387 0
M  V30 36 H 9.112859 3.127722 -14.649810 0
M  V30 37 H 7.664732 1.209296 -15.209327 0
M  V30 38 H 5.464855 0.925399 -14.083679 0
M  V30 39 H 4.676010 2.623631 -12.453575 0
M  V30 40 H 6.090326 4.541345 -11.869409 0
M  V30 41 H 7.380597 6.170974 -11.417619 0
M  V30 42 H 8.559735 8.241596 -8.479901 0
M  V30 43 H 8.666643 6.550472 -8.890783 0
M  V30 44 H 9.054730 6.944254 -6.456845 0
M  V30 45 H 10.448604 6.203834 -7.212561 0
M  V30 46 H 11.353668 10.366911 -5.047940 0
M  V30 47 H 12.267111 10.290931 -2.744963 0
M  V30 48 H 10.858761 6.901360 -9.696684 0
M  V30 END ATOM
M  V30 BEGIN BOND
M  V30 1 2 2 1
M  V30 2 1 3 2
M  V30 3 2 4 3
M  V30 4 1 5 4
M  V30 5 1 6 5
M  V30 6 1 7 6
M  V30 7 1 8 7
M  V30 8 1 9 8
M  V30 9 1 10 9
M  V30 10 1 11 10
M  V30 11 2 12 11
M  V30 12 1 13 12
M  V30 13 1 14 13
M  V30 14 2 15 14
M  V30 15 1 16 15
M  V30 16 2 17 16
M  V30 17 1 18 17
M  V30 18 1 19 14
M  V30 19 2 19 18
M  V30 20 2 20 10
M  V30 21 1 20 13
M  V30 22 1 21 8
M  V30 23 1 22 5
M  V30 24 1 22 21
M  V30 25 1 23 4
M  V30 26 1 24 1
M  V30 27 2 24 23
M  V30 28 1 25 1
M  V30 29 1 26 2
M  V30 30 1 27 3
M  V30 31 1 5 28 CFG=1
M  V30 32 1 29 6
M  V30 33 1 30 6
M  V30 34 1 31 7
M  V30 35 1 32 7
M  V30 36 1 33 9
M  V30 37 1 34 9
M  V30 38 1 35 11
M  V30 39 1 36 15
M  V30 40 1 37 16
M  V30 41 1 38 17
M  V30 42 1 39 18
M  V30 43 1 40 19
M  V30 44 1 41 20
M  V30 45 1 42 21
M  V30 46 1 43 21
M  V30 47 1 44 22
M  V30 48 1 45 22
M  V30 49 1 46 23
M  V30 50 1 47 24
M  V30 51 1 8 48 CFG=3
M  V30 END BOND
M  V30 END CTAB
M  END
>  <b_m_subgroup_collapsed>  (440) 
0

>  <r_i_docking_score>  (440) 
-8.3193788024775692

>  <s_m_subgroup_title>  (440) 
glide-dock_SP_D22_pv

>  <s_m_subgroupid>  (440) 
glide-dock_SP_D22_pv

>  <Molecule ChEMBL ID>  (440) 
CHEMBL221600

>  <Standard Type>  (440) 
Ki

>  <Standard Value>  (440) 
38.02

>  <label>  (440) 
1

$$$$
CHEMBL485720
     RDKit          3D

  0  0  0  0  0  0  0  0  0  0999 V3000
M  V30 BEGIN CTAB
M  V30 COUNTS 62 65 0 0 1
M  V30 BEGIN ATOM
M  V30 1 C 6.419046 -0.627646 -14.857903 0
M  V30 2 O 5.576049 0.229226 -14.108829 0
M  V30 3 C 6.034659 1.492506 -13.809202 0
M  V30 4 C 5.206138 2.272908 -12.981592 0
M  V30 5 C 5.568735 3.579842 -12.611004 0
M  V30 6 C 6.769919 4.130828 -13.081688 0
M  V30 7 C 7.602988 3.373249 -13.927858 0
M  V30 8 C 8.853768 4.018113 -14.477986 0
M  V30 9 C 10.077800 3.852557 -13.567525 0
M  V30 10 C 11.124841 4.885292 -13.943545 0
M  V30 11 C 11.900891 4.683938 -15.102906 0
M  V30 12 C 12.777281 5.686316 -15.553026 0
M  V30 13 C 12.886032 6.890109 -14.837507 0
M  V30 14 C 12.150298 7.079631 -13.653604 0
M  V30 15 C 11.247839 6.085582 -13.197739 0
M  V30 16 O 10.475628 6.221494 -12.063983 0
M  V30 17 C 10.340943 7.504683 -11.469110 0
M  V30 18 C 9.121189 7.490009 -10.537336 0
M  V30 19 C 9.279271 6.788532 -9.163988 0
M  V30 20 N 10.123480 7.499741 -8.155861 0 CFG=1 CHG=1
M  V30 21 C 9.681669 8.876471 -7.807171 0
M  V30 22 C 10.792973 9.590837 -7.016376 0
M  V30 23 C 11.236733 8.792374 -5.821964 0
M  V30 24 C 11.866971 9.448302 -4.748816 0
M  V30 25 C 12.288216 8.727882 -3.618882 0
M  V30 26 C 12.085508 7.336960 -3.569479 0
M  V30 27 C 11.450312 6.684910 -4.644764 0
M  V30 28 C 11.021842 7.398984 -5.782705 0
M  V30 29 C 10.306735 6.675215 -6.925796 0
M  V30 30 C 7.245413 2.054331 -14.285964 0
M  V30 31 H 5.916670 -1.581535 -15.011106 0
M  V30 32 H 6.655565 -0.215131 -15.839250 0
M  V30 33 H 7.337677 -0.826175 -14.309708 0
M  V30 34 H 4.267263 1.865773 -12.646911 0
M  V30 35 H 4.926251 4.165525 -11.971050 0
M  V30 36 H 7.038970 5.139143 -12.799063 0
M  V30 37 H 8.637905 5.080409 -14.612869 0
M  V30 38 H 9.069336 3.630491 -15.474365 0
M  V30 39 H 10.485133 2.845165 -13.655717 0
M  V30 40 H 9.788991 3.967231 -12.521645 0
M  V30 41 H 11.800925 3.767950 -15.668191 0
M  V30 42 H 13.360296 5.531587 -16.449238 0
M  V30 43 H 13.563305 7.655581 -15.179973 0
M  V30 44 H 12.304749 7.992262 -13.105235 0
M  V30 45 H 11.249420 7.805831 -10.945115 0
M  V30 46 H 10.134268 8.236308 -12.251073 0
M  V30 47 H 8.741742 8.503747 -10.421475 0
M  V30 48 H 8.329502 6.972346 -11.075525 0
M  V30 49 H 8.287746 6.635354 -8.736173 0
M  V30 50 H 9.689251 5.792262 -9.332626 0
M  V30 51 H 9.470133 9.465111 -8.695861 0
M  V30 52 H 8.756481 8.830274 -7.231943 0
M  V30 53 H 10.485708 10.570883 -6.646811 0
M  V30 54 H 11.661499 9.753884 -7.653110 0
M  V30 55 H 12.024663 10.513273 -4.805486 0
M  V30 56 H 12.770788 9.238037 -2.798252 0
M  V30 57 H 12.403039 6.772439 -2.706532 0
M  V30 58 H 11.279772 5.625328 -4.587110 0
M  V30 59 H 9.333303 6.350077 -6.553493 0
M  V30 60 H 10.868729 5.775375 -7.181718 0
M  V30 61 H 7.904134 1.498418 -14.935442 0
M  V30 62 H 11.039588 7.597033 -8.570927 0
M  V30 END ATOM
M  V30 BEGIN BOND
M  V30 1 1 2 1
M  V30 2 1 3 2
M  V30 3 2 4 3
M  V30 4 1 5 4
M  V30 5 2 6 5
M  V30 6 1 7 6
M  V30 7 1 8 7
M  V30 8 1 9 8
M  V30 9 1 10 9
M  V30 10 2 11 10
M  V30 11 1 12 11
M  V30 12 2 13 12
M  V30 13 1 14 13
M  V30 14 1 15 10
M  V30 15 2 15 14
M  V30 16 1 16 15
M  V30 17 1 17 16
M  V30 18 1 18 17
M  V30 19 1 19 18
M  V30 20 1 20 19
M  V30 21 1 21 20
M  V30 22 1 22 21
M  V30 23 1 23 22
M  V30 24 2 24 23
M  V30 25 1 25 24
M  V30 26 2 26 25
M  V30 27 1 27 26
M  V30 28 1 28 23
M  V30 29 2 28 27
M  V30 30 1 29 20
M  V30 31 1 29 28
M  V30 32 1 30 3
M  V30 33 2 30 7
M  V30 34 1 31 1
M  V30 35 1 32 1
M  V30 36 1 33 1
M  V30 37 1 34 4
M  V30 38 1 35 5
M  V30 39 1 36 6
M  V30 40 1 37 8
M  V30 41 1 38 8
M  V30 42 1 39 9
M  V30 43 1 40 9
M  V30 44 1 41 11
M  V30 45 1 42 12
M  V30 46 1 43 13
M  V30 47 1 44 14
M  V30 48 1 45 17
M  V30 49 1 46 17
M  V30 50 1 47 18
M  V30 51 1 48 18
M  V30 52 1 49 19
M  V30 53 1 50 19
M  V30 54 1 51 21
M  V30 55 1 52 21
M  V30 56 1 53 22
M  V30 57 1 54 22
M  V30 58 1 55 24
M  V30 59 1 56 25
M  V30 60 1 57 26
M  V30 61 1 58 27
M  V30 62 1 59 29
M  V30 63 1 60 29
M  V30 64 1 61 30
M  V30 65 1 20 62 CFG=3
M  V30 END BOND
M  V30 END CTAB
M  END
>  <b_m_subgroup_collapsed>  (441) 
0

>  <r_i_docking_score>  (441) 
-8.3164231212487607

>  <s_m_subgroup_title>  (441) 
glide-dock_SP_D22_pv

>  <s_m_subgroupid>  (441) 
glide-dock_SP_D22_pv

>  <Molecule ChEMBL ID>  (441) 
CHEMBL485720

>  <Standard Type>  (441) 
Ki

>  <Standard Value>  (441) 
114000.0

>  <label>  (441) 
0

$$$$
CHEMBL3104520
     RDKit          3D

  0  0  0  0  0  0  0  0  0  0999 V3000
M  V30 BEGIN CTAB
M  V30 COUNTS 60 63 0 0 1
M  V30 BEGIN ATOM
M  V30 1 C 11.815745 11.307875 -6.246887 0
M  V30 2 O 11.202237 10.077363 -6.519345 0
M  V30 3 C 11.402226 9.059620 -5.614628 0
M  V30 4 C 12.085356 9.234362 -4.379062 0
M  V30 5 C 12.233793 8.179867 -3.464925 0
M  V30 6 C 11.712790 6.920770 -3.781251 0
M  V30 7 C 11.052275 6.737631 -5.006079 0
M  V30 8 C 10.875032 7.785127 -5.929862 0
M  V30 9 N 10.169888 7.513869 -7.121258 0
M  V30 10 C 8.861170 6.887208 -7.019266 0
M  V30 11 C 8.679784 5.908656 -8.179229 0
M  V30 12 N 8.886032 6.565249 -9.497939 0 CHG=1
M  V30 13 C 8.692124 5.584546 -10.592047 0
M  V30 14 C 8.433436 6.227582 -11.970704 0
M  V30 15 C 8.309161 5.220325 -13.138268 0 CFG=1
M  V30 16 C 9.651566 4.531619 -13.438774 0
M  V30 17 C 9.561769 3.688781 -14.711160 0
M  V30 18 C 8.404016 2.709918 -14.666673 0
M  V30 19 C 8.489047 1.522106 -15.420192 0
M  V30 20 C 7.455895 0.569620 -15.369722 0
M  V30 21 C 6.313753 0.793763 -14.571254 0
M  V30 22 N 5.243501 -0.220930 -14.488529 0 CHG=1
M  V30 23 O 4.366745 -0.071836 -13.642585 0
M  V30 24 O 5.282107 -1.171691 -15.260509 0 CHG=-1
M  V30 25 C 6.218605 2.005174 -13.846823 0
M  V30 26 C 7.256566 2.964609 -13.874300 0
M  V30 27 C 7.160963 4.190298 -12.963912 0 CFG=2
M  V30 28 O 5.912626 4.847677 -13.047115 0
M  V30 29 C 10.194011 7.275401 -9.576838 0
M  V30 30 C 10.438958 8.205835 -8.376144 0
M  V30 31 H 11.686051 12.016788 -7.056928 0
M  V30 32 H 11.354102 11.726349 -5.353905 0
M  V30 33 H 12.885975 11.156807 -6.145349 0
M  V30 34 H 12.513996 10.172318 -4.085720 0
M  V30 35 H 12.748487 8.338448 -2.528268 0
M  V30 36 H 11.818405 6.096477 -3.090904 0
M  V30 37 H 10.656314 5.772339 -5.234049 0
M  V30 38 H 8.088159 7.658064 -7.045688 0
M  V30 39 H 8.731117 6.356483 -6.078470 0
M  V30 40 H 7.686004 5.471500 -8.122333 0
M  V30 41 H 9.387486 5.084819 -8.072390 0
M  V30 42 H 7.828176 4.976910 -10.328063 0
M  V30 43 H 9.547696 4.909224 -10.621549 0
M  V30 44 H 9.229459 6.928225 -12.218895 0
M  V30 45 H 7.526461 6.829035 -11.918638 0
M  V30 46 H 8.086043 5.803396 -14.032322 0
M  V30 47 H 9.936518 3.883046 -12.609633 0
M  V30 48 H 10.447592 5.269209 -13.547962 0
M  V30 49 H 10.497359 3.147508 -14.859714 0
M  V30 50 H 9.430838 4.334620 -15.580038 0
M  V30 51 H 9.361292 1.325711 -16.026552 0
M  V30 52 H 7.554691 -0.345350 -15.936500 0
M  V30 53 H 5.354000 2.192693 -13.226437 0
M  V30 54 H 7.209260 3.772071 -11.962380 0
M  V30 55 H 5.871565 5.508269 -12.369925 0
M  V30 56 H 10.994789 6.536483 -9.615758 0
M  V30 57 H 10.259867 7.859041 -10.494257 0
M  V30 58 H 9.789393 9.079940 -8.442924 0
M  V30 59 H 11.470024 8.560001 -8.407351 0
M  V30 60 H 8.140248 7.251879 -9.589715 0
M  V30 END ATOM
M  V30 BEGIN BOND
M  V30 1 1 2 1
M  V30 2 1 3 2
M  V30 3 2 4 3
M  V30 4 1 5 4
M  V30 5 2 6 5
M  V30 6 1 7 6
M  V30 7 1 8 3
M  V30 8 2 8 7
M  V30 9 1 9 8
M  V30 10 1 10 9
M  V30 11 1 11 10
M  V30 12 1 12 11
M  V30 13 1 13 12
M  V30 14 1 14 13
M  V30 15 1 15 14
M  V30 16 1 16 15
M  V30 17 1 17 16
M  V30 18 1 18 17
M  V30 19 1 19 18
M  V30 20 2 20 19
M  V30 21 1 21 20
M  V30 22 1 22 21
M  V30 23 2 23 22
M  V30 24 1 24 22
M  V30 25 2 25 21
M  V30 26 2 26 18
M  V30 27 1 26 25
M  V30 28 1 27 15
M  V30 29 1 27 26
M  V30 30 1 28 27
M  V30 31 1 29 12
M  V30 32 1 30 9
M  V30 33 1 30 29
M  V30 34 1 31 1
M  V30 35 1 32 1
M  V30 36 1 33 1
M  V30 37 1 34 4
M  V30 38 1 35 5
M  V30 39 1 36 6
M  V30 40 1 37 7
M  V30 41 1 38 10
M  V30 42 1 39 10
M  V30 43 1 40 11
M  V30 44 1 41 11
M  V30 45 1 42 13
M  V30 46 1 43 13
M  V30 47 1 44 14
M  V30 48 1 45 14
M  V30 49 1 15 46 CFG=3
M  V30 50 1 47 16
M  V30 51 1 48 16
M  V30 52 1 49 17
M  V30 53 1 50 17
M  V30 54 1 51 19
M  V30 55 1 52 20
M  V30 56 1 53 25
M  V30 57 1 27 54 CFG=1
M  V30 58 1 55 28
M  V30 59 1 56 29
M  V30 60 1 57 29
M  V30 61 1 58 30
M  V30 62 1 59 30
M  V30 63 1 60 12
M  V30 END BOND
M  V30 END CTAB
M  END
>  <b_m_subgroup_collapsed>  (442) 
0

>  <r_i_docking_score>  (442) 
-8.3154511721720308

>  <s_m_subgroup_title>  (442) 
glide-dock_SP_D22_pv

>  <s_m_subgroupid>  (442) 
glide-dock_SP_D22_pv

>  <Molecule ChEMBL ID>  (442) 
CHEMBL3104520

>  <Standard Type>  (442) 
Ki

>  <Standard Value>  (442) 
19.05

>  <label>  (442) 
1

$$$$
CHEMBL3765285
     RDKit          3D

  0  0  0  0  0  0  0  0  0  0999 V3000
M  V30 BEGIN CTAB
M  V30 COUNTS 62 66 0 0 1
M  V30 BEGIN ATOM
M  V30 1 C 9.103726 5.101368 -9.606407 0
M  V30 2 N 9.285471 6.426453 -10.180887 0
M  V30 3 C 8.962149 6.827924 -11.426298 0
M  V30 4 S 8.206059 5.757774 -12.596809 0
M  V30 5 C 9.723119 5.012425 -13.237989 0
M  V30 6 C 9.405320 3.808400 -14.123516 0
M  V30 7 C 10.652322 3.255677 -14.823421 0
M  V30 8 N 10.366193 2.253709 -15.843995 0
M  V30 9 C 9.915536 0.984381 -15.281962 0
M  V30 10 C 9.603950 -0.029612 -16.392635 0
M  V30 11 O 10.761847 -0.218533 -17.197943 0
M  V30 12 C 11.247748 0.981631 -17.804045 0 CFG=2
M  V30 13 C 12.472923 0.711958 -18.668394 0
M  V30 14 C 12.796047 -0.608128 -19.045864 0
M  V30 15 C 13.937647 -0.874268 -19.823561 0
M  V30 16 C 14.771364 0.184548 -20.239334 0
M  V30 17 C 16.034172 -0.078886 -21.030289 0
M  V30 18 F 17.085360 0.167251 -20.247532 0
M  V30 19 F 16.085884 -1.344065 -21.447495 0
M  V30 20 F 16.091999 0.723117 -22.093506 0
M  V30 21 C 14.437672 1.508627 -19.890984 0
M  V30 22 C 13.293599 1.772691 -19.115082 0
M  V30 23 C 11.529021 2.012774 -16.687708 0
M  V30 24 N 9.287931 8.091446 -11.687638 0
M  V30 25 N 9.815814 8.571110 -10.516314 0
M  V30 26 C 9.774406 7.567521 -9.632512 0
M  V30 27 C 10.242492 7.754732 -8.254471 0
M  V30 28 C 9.742416 6.973928 -7.192362 0
M  V30 29 C 10.252080 7.127626 -5.890414 0
M  V30 30 C 11.226346 8.101883 -5.617256 0
M  V30 31 C 11.731301 8.241803 -4.261908 0
M  V30 32 N 12.083706 7.273026 -3.410398 0
M  V30 33 N 12.453756 7.905282 -2.246797 0
M  V30 34 C 12.287997 9.206677 -2.483663 0
M  V30 35 O 11.843473 9.487502 -3.734111 0
M  V30 36 C 11.684952 8.936666 -6.656756 0
M  V30 37 C 11.212469 8.744171 -7.969558 0
M  V30 38 H 9.246231 4.335791 -10.368664 0
M  V30 39 H 9.835604 4.917790 -8.822070 0
M  V30 40 H 8.093383 5.011432 -9.207427 0
M  V30 41 H 10.270019 5.772748 -13.797818 0
M  V30 42 H 10.362640 4.706084 -12.410083 0
M  V30 43 H 8.933748 3.035405 -13.514876 0
M  V30 44 H 8.671891 4.102453 -14.875818 0
M  V30 45 H 11.162260 4.097584 -15.294786 0
M  V30 46 H 11.349812 2.855566 -14.086728 0
M  V30 47 H 10.679491 0.575217 -14.619929 0
M  V30 48 H 9.023323 1.127867 -14.672660 0
M  V30 49 H 9.301367 -0.982336 -15.962036 0
M  V30 50 H 8.773885 0.315244 -17.009314 0
M  V30 51 H 10.471156 1.366897 -18.466705 0
M  V30 52 H 12.170996 -1.427369 -18.727676 0
M  V30 53 H 14.172615 -1.894640 -20.082041 0
M  V30 54 H 15.066310 2.322768 -20.213095 0
M  V30 55 H 13.064059 2.797498 -18.863487 0
M  V30 56 H 11.834907 2.960426 -17.132290 0
M  V30 57 H 12.365419 1.670869 -16.078554 0
M  V30 58 H 8.964061 6.245143 -7.356143 0
M  V30 59 H 9.874332 6.497451 -5.099791 0
M  V30 60 H 12.483463 9.983816 -1.759806 0
M  V30 61 H 12.428374 9.695333 -6.460835 0
M  V30 62 H 11.605353 9.366283 -8.762344 0
M  V30 END ATOM
M  V30 BEGIN BOND
M  V30 1 1 2 1
M  V30 2 1 3 2
M  V30 3 1 4 3
M  V30 4 1 5 4
M  V30 5 1 6 5
M  V30 6 1 7 6
M  V30 7 1 8 7
M  V30 8 1 9 8
M  V30 9 1 10 9
M  V30 10 1 11 10
M  V30 11 1 12 11
M  V30 12 1 13 12
M  V30 13 1 14 13
M  V30 14 2 15 14
M  V30 15 1 16 15
M  V30 16 1 17 16
M  V30 17 1 18 17
M  V30 18 1 19 17
M  V30 19 1 20 17
M  V30 20 2 21 16
M  V30 21 2 22 13
M  V30 22 1 22 21
M  V30 23 1 23 8
M  V30 24 1 23 12
M  V30 25 2 24 3
M  V30 26 1 25 24
M  V30 27 1 26 2
M  V30 28 2 26 25
M  V30 29 1 27 26
M  V30 30 1 28 27
M  V30 31 2 29 28
M  V30 32 1 30 29
M  V30 33 1 31 30
M  V30 34 2 32 31
M  V30 35 1 33 32
M  V30 36 2 34 33
M  V30 37 1 35 31
M  V30 38 1 35 34
M  V30 39 2 36 30
M  V30 40 2 37 27
M  V30 41 1 37 36
M  V30 42 1 38 1
M  V30 43 1 39 1
M  V30 44 1 40 1
M  V30 45 1 41 5
M  V30 46 1 42 5
M  V30 47 1 43 6
M  V30 48 1 44 6
M  V30 49 1 45 7
M  V30 50 1 46 7
M  V30 51 1 47 9
M  V30 52 1 48 9
M  V30 53 1 49 10
M  V30 54 1 50 10
M  V30 55 1 12 51 CFG=3
M  V30 56 1 52 14
M  V30 57 1 53 15
M  V30 58 1 54 21
M  V30 59 1 55 22
M  V30 60 1 56 23
M  V30 61 1 57 23
M  V30 62 1 58 28
M  V30 63 1 59 29
M  V30 64 1 60 34
M  V30 65 1 61 36
M  V30 66 1 62 37
M  V30 END BOND
M  V30 END CTAB
M  END
>  <b_m_subgroup_collapsed>  (443) 
0

>  <r_i_docking_score>  (443) 
-8.3131289411424891

>  <s_m_subgroup_title>  (443) 
glide-dock_SP_D22_pv

>  <s_m_subgroupid>  (443) 
glide-dock_SP_D22_pv

>  <Molecule ChEMBL ID>  (443) 
CHEMBL3765285

>  <Standard Type>  (443) 
Ki

>  <Standard Value>  (443) 
12303.0

>  <label>  (443) 
0

$$$$
CHEMBL5903693
     RDKit          3D

  0  0  0  0  0  0  0  0  0  0999 V3000
M  V30 BEGIN CTAB
M  V30 COUNTS 79 83 0 0 1
M  V30 BEGIN ATOM
M  V30 1 C 12.577653 1.582216 -19.196802 0
M  V30 2 C 11.196438 0.929833 -19.072309 0
M  V30 3 C 11.243229 -0.384033 -18.279547 0
M  V30 4 C 9.872368 -1.080874 -18.110632 0
M  V30 5 N 8.834411 -0.267874 -17.449409 0
M  V30 6 C 9.030766 0.178748 -16.177010 0
M  V30 7 O 9.950372 -0.207065 -15.450846 0
M  V30 8 N 8.151261 1.117885 -15.783731 0
M  V30 9 C 8.152369 1.840568 -14.519014 0 CFG=1
M  V30 10 C 9.251400 2.920251 -14.544725 0
M  V30 11 C 9.185925 3.807504 -13.300928 0
M  V30 12 C 7.816083 4.504318 -13.172547 0 CFG=2
M  V30 13 C 7.761960 5.536877 -12.018729 0
M  V30 14 C 8.323151 5.068296 -10.652794 0
M  V30 15 N 8.486087 6.171356 -9.665032 0 CHG=1
M  V30 16 C 8.612270 5.638175 -8.276905 0
M  V30 17 C 8.956834 6.709775 -7.219911 0
M  V30 18 N 10.090923 7.529912 -7.639389 0
M  V30 19 C 10.828263 8.301684 -6.694615 0
M  V30 20 N 11.161304 9.524984 -7.046089 0
M  V30 21 S 12.004256 10.288306 -5.846868 0
M  V30 22 C 11.921413 8.981206 -4.720589 0
M  V30 23 C 12.398797 8.950145 -3.400083 0
M  V30 24 C 12.272283 7.775067 -2.653882 0
M  V30 25 C 11.711968 6.645508 -3.265265 0
M  V30 26 C 11.260551 6.678382 -4.603874 0
M  V30 27 C 11.285987 7.873137 -5.366943 0
M  V30 28 C 9.875630 8.114956 -8.966141 0
M  V30 29 C 9.628149 7.045546 -10.020791 0
M  V30 30 C 6.654406 3.487241 -13.160808 0
M  V30 31 C 6.754826 2.469321 -14.318243 0
M  V30 32 C 7.582470 -0.133227 -18.134047 0
M  V30 33 C 7.534376 0.465006 -19.413168 0
M  V30 34 C 6.304730 0.612400 -20.085125 0
M  V30 35 C 5.111477 0.159915 -19.487844 0
M  V30 36 C 5.152899 -0.455553 -18.224072 0
M  V30 37 C 6.382163 -0.606814 -17.552320 0
M  V30 38 H 12.517894 2.513632 -19.757998 0
M  V30 39 H 13.000532 1.810862 -18.217676 0
M  V30 40 H 13.277948 0.926467 -19.714869 0
M  V30 41 H 10.794281 0.742859 -20.067980 0
M  V30 42 H 10.521768 1.634718 -18.586367 0
M  V30 43 H 11.698749 -0.202878 -17.306154 0
M  V30 44 H 11.918436 -1.076054 -18.783497 0
M  V30 45 H 10.010731 -1.992236 -17.529474 0
M  V30 46 H 9.521565 -1.417510 -19.088493 0
M  V30 47 H 7.425846 1.355301 -16.443520 0
M  V30 48 H 8.356768 1.136765 -13.710971 0
M  V30 49 H 10.235189 2.450701 -14.602445 0
M  V30 50 H 9.148700 3.536656 -15.440172 0
M  V30 51 H 9.385489 3.179828 -12.433273 0
M  V30 52 H 9.983549 4.551296 -13.340308 0
M  V30 53 H 7.686366 5.085042 -14.087032 0
M  V30 54 H 8.314144 6.407507 -12.365946 0
M  V30 55 H 6.738998 5.889561 -11.885400 0
M  V30 56 H 7.683686 4.286313 -10.250012 0
M  V30 57 H 9.298929 4.598604 -10.768956 0
M  V30 58 H 7.686525 5.143167 -7.991211 0
M  V30 59 H 9.389625 4.875023 -8.263678 0
M  V30 60 H 8.089502 7.354089 -7.046744 0
M  V30 61 H 9.156680 6.200301 -6.279108 0
M  V30 62 H 12.864508 9.821431 -2.962731 0
M  V30 63 H 12.615031 7.735039 -1.630465 0
M  V30 64 H 11.630784 5.754613 -2.672240 0
M  V30 65 H 10.849617 5.772889 -5.024282 0
M  V30 66 H 9.031868 8.806131 -8.921089 0
M  V30 67 H 10.739643 8.693220 -9.295725 0
M  V30 68 H 10.534463 6.447810 -10.134652 0
M  V30 69 H 9.454903 7.544110 -10.974180 0
M  V30 70 H 6.577676 2.972897 -12.205397 0
M  V30 71 H 5.711465 4.025526 -13.253275 0
M  V30 72 H 6.482498 2.972897 -15.243168 0
M  V30 73 H 6.012994 1.682415 -14.177956 0
M  V30 74 H 8.439369 0.819061 -19.882866 0
M  V30 75 H 6.272374 1.072601 -21.062321 0
M  V30 76 H 4.169980 0.273208 -20.003309 0
M  V30 77 H 4.240716 -0.818248 -17.770178 0
M  V30 78 H 6.401163 -1.092374 -16.586973 0
M  V30 79 H 7.641718 6.751037 -9.700542 0
M  V30 END ATOM
M  V30 BEGIN BOND
M  V30 1 1 2 1
M  V30 2 1 3 2
M  V30 3 1 4 3
M  V30 4 1 5 4
M  V30 5 1 6 5
M  V30 6 2 7 6
M  V30 7 1 8 6
M  V30 8 1 9 8
M  V30 9 1 10 9
M  V30 10 1 11 10
M  V30 11 1 12 11
M  V30 12 1 13 12
M  V30 13 1 14 13
M  V30 14 1 15 14
M  V30 15 1 16 15
M  V30 16 1 17 16
M  V30 17 1 18 17
M  V30 18 1 19 18
M  V30 19 2 20 19
M  V30 20 1 21 20
M  V30 21 1 22 21
M  V30 22 2 23 22
M  V30 23 1 24 23
M  V30 24 2 25 24
M  V30 25 1 26 25
M  V30 26 1 27 19
M  V30 27 1 27 22
M  V30 28 2 27 26
M  V30 29 1 28 18
M  V30 30 1 29 15
M  V30 31 1 29 28
M  V30 32 1 30 12
M  V30 33 1 31 9
M  V30 34 1 31 30
M  V30 35 1 32 5
M  V30 36 2 33 32
M  V30 37 1 34 33
M  V30 38 2 35 34
M  V30 39 1 36 35
M  V30 40 1 37 32
M  V30 41 2 37 36
M  V30 42 1 38 1
M  V30 43 1 39 1
M  V30 44 1 40 1
M  V30 45 1 41 2
M  V30 46 1 42 2
M  V30 47 1 43 3
M  V30 48 1 44 3
M  V30 49 1 45 4
M  V30 50 1 46 4
M  V30 51 1 47 8
M  V30 52 1 9 48 CFG=1
M  V30 53 1 49 10
M  V30 54 1 50 10
M  V30 55 1 51 11
M  V30 56 1 52 11
M  V30 57 1 12 53 CFG=3
M  V30 58 1 54 13
M  V30 59 1 55 13
M  V30 60 1 56 14
M  V30 61 1 57 14
M  V30 62 1 58 16
M  V30 63 1 59 16
M  V30 64 1 60 17
M  V30 65 1 61 17
M  V30 66 1 62 23
M  V30 67 1 63 24
M  V30 68 1 64 25
M  V30 69 1 65 26
M  V30 70 1 66 28
M  V30 71 1 67 28
M  V30 72 1 68 29
M  V30 73 1 69 29
M  V30 74 1 70 30
M  V30 75 1 71 30
M  V30 76 1 72 31
M  V30 77 1 73 31
M  V30 78 1 74 33
M  V30 79 1 75 34
M  V30 80 1 76 35
M  V30 81 1 77 36
M  V30 82 1 78 37
M  V30 83 1 79 15
M  V30 END BOND
M  V30 END CTAB
M  END
>  <b_m_subgroup_collapsed>  (444) 
0

>  <r_i_docking_score>  (444) 
-8.3131081707074603

>  <s_m_subgroup_title>  (444) 
glide-dock_SP_D22_pv

>  <s_m_subgroupid>  (444) 
glide-dock_SP_D22_pv

>  <Molecule ChEMBL ID>  (444) 
CHEMBL5903693

>  <Standard Type>  (444) 
Ki

>  <Standard Value>  (444) 
14.8

>  <label>  (444) 
1

$$$$
CHEMBL2029925
     RDKit          3D

  0  0  0  0  0  0  0  0  0  0999 V3000
M  V30 BEGIN CTAB
M  V30 COUNTS 58 61 0 0 1
M  V30 BEGIN ATOM
M  V30 1 O 8.349985 2.365690 -15.950721 0
M  V30 2 C 8.558331 1.714572 -14.927935 0
M  V30 3 C 8.107601 0.250441 -14.847222 0
M  V30 4 C 6.591100 0.089348 -14.819552 0
M  V30 5 C 5.903243 -0.420218 -15.939949 0
M  V30 6 C 4.514321 -0.627764 -15.852438 0
M  V30 7 C 3.862484 -0.314623 -14.645538 0
M  V30 8 N 4.506008 0.172435 -13.563414 0
M  V30 9 C 5.839698 0.370463 -13.657982 0
M  V30 10 N 9.190811 2.202136 -13.846911 0
M  V30 11 C 9.654063 3.524194 -13.660100 0
M  V30 12 C 10.599252 4.097909 -14.535192 0
M  V30 13 C 11.125602 5.371850 -14.249931 0
M  V30 14 C 10.704971 6.077420 -13.104891 0
M  V30 15 C 9.738203 5.522596 -12.235904 0
M  V30 16 C 9.266042 6.267101 -10.989841 0
M  V30 17 C 10.365305 7.135585 -10.336882 0
M  V30 18 N 10.044663 7.663917 -9.010459 0
M  V30 19 C 9.977596 6.568916 -8.027031 0
M  V30 20 C 9.783830 7.106210 -6.598509 0
M  V30 21 N 10.865464 8.029718 -6.279804 0
M  V30 22 C 11.358162 8.124903 -4.969575 0
M  V30 23 C 11.683240 6.952528 -4.246562 0
M  V30 24 C 12.201340 7.027997 -2.938535 0
M  V30 25 C 12.412840 8.282130 -2.338977 0
M  V30 26 C 12.085997 9.452990 -3.047036 0
M  V30 27 C 11.566494 9.378245 -4.352480 0
M  V30 28 C 10.977601 9.135165 -7.220199 0
M  V30 29 C 11.140493 8.573860 -8.645044 0
M  V30 30 C 9.233679 4.232635 -12.514434 0
M  V30 31 H 8.528841 -0.227486 -13.963667 0
M  V30 32 H 8.516369 -0.277767 -15.707386 0
M  V30 33 H 6.434386 -0.671086 -16.846184 0
M  V30 34 H 3.957320 -1.023984 -16.689371 0
M  V30 35 H 2.796473 -0.460701 -14.544924 0
M  V30 36 H 6.325635 0.738350 -12.765963 0
M  V30 37 H 9.275285 1.597426 -13.035909 0
M  V30 38 H 10.938920 3.559136 -15.407806 0
M  V30 39 H 11.857274 5.811267 -14.910761 0
M  V30 40 H 11.124417 7.054276 -12.919067 0
M  V30 41 H 8.419811 6.898913 -11.261523 0
M  V30 42 H 8.874618 5.527008 -10.292599 0
M  V30 43 H 11.289518 6.572180 -10.263639 0
M  V30 44 H 10.570133 7.979168 -10.998338 0
M  V30 45 H 9.138782 5.910357 -8.248723 0
M  V30 46 H 10.883421 5.961193 -8.069297 0
M  V30 47 H 8.830721 7.632804 -6.522707 0
M  V30 48 H 9.732760 6.277874 -5.892985 0
M  V30 49 H 11.552365 5.980179 -4.695773 0
M  V30 50 H 12.450010 6.122563 -2.403538 0
M  V30 51 H 12.826652 8.351933 -1.343221 0
M  V30 52 H 12.227567 10.419351 -2.589371 0
M  V30 53 H 11.317403 10.296485 -4.862254 0
M  V30 54 H 10.095387 9.771170 -7.153078 0
M  V30 55 H 11.844394 9.752749 -6.985846 0
M  V30 56 H 12.098763 8.056314 -8.716271 0
M  V30 57 H 11.180989 9.402598 -9.353794 0
M  V30 58 H 8.521179 3.775400 -11.844198 0
M  V30 END ATOM
M  V30 BEGIN BOND
M  V30 1 2 2 1
M  V30 2 1 3 2
M  V30 3 1 4 3
M  V30 4 2 5 4
M  V30 5 1 6 5
M  V30 6 2 7 6
M  V30 7 1 8 7
M  V30 8 1 9 4
M  V30 9 2 9 8
M  V30 10 1 10 2
M  V30 11 1 11 10
M  V30 12 2 12 11
M  V30 13 1 13 12
M  V30 14 2 14 13
M  V30 15 1 15 14
M  V30 16 1 16 15
M  V30 17 1 17 16
M  V30 18 1 18 17
M  V30 19 1 19 18
M  V30 20 1 20 19
M  V30 21 1 21 20
M  V30 22 1 22 21
M  V30 23 2 23 22
M  V30 24 1 24 23
M  V30 25 2 25 24
M  V30 26 1 26 25
M  V30 27 1 27 22
M  V30 28 2 27 26
M  V30 29 1 28 21
M  V30 30 1 29 18
M  V30 31 1 29 28
M  V30 32 1 30 11
M  V30 33 2 30 15
M  V30 34 1 31 3
M  V30 35 1 32 3
M  V30 36 1 33 5
M  V30 37 1 34 6
M  V30 38 1 35 7
M  V30 39 1 36 9
M  V30 40 1 37 10
M  V30 41 1 38 12
M  V30 42 1 39 13
M  V30 43 1 40 14
M  V30 44 1 41 16
M  V30 45 1 42 16
M  V30 46 1 43 17
M  V30 47 1 44 17
M  V30 48 1 45 19
M  V30 49 1 46 19
M  V30 50 1 47 20
M  V30 51 1 48 20
M  V30 52 1 49 23
M  V30 53 1 50 24
M  V30 54 1 51 25
M  V30 55 1 52 26
M  V30 56 1 53 27
M  V30 57 1 54 28
M  V30 58 1 55 28
M  V30 59 1 56 29
M  V30 60 1 57 29
M  V30 61 1 58 30
M  V30 END BOND
M  V30 END CTAB
M  END
>  <b_m_subgroup_collapsed>  (445) 
0

>  <r_i_docking_score>  (445) 
-8.3124194500913404

>  <s_m_subgroup_title>  (445) 
glide-dock_SP_D22_pv

>  <s_m_subgroupid>  (445) 
glide-dock_SP_D22_pv

>  <Molecule ChEMBL ID>  (445) 
CHEMBL2029925

>  <Standard Type>  (445) 
Ki

>  <Standard Value>  (445) 
82.4

>  <label>  (445) 
1

$$$$
CHEMBL80469
     RDKit          3D

  0  0  0  0  0  0  0  0  0  0999 V3000
M  V30 BEGIN CTAB
M  V30 COUNTS 41 44 0 0 1
M  V30 BEGIN ATOM
M  V30 1 Cl 11.286166 10.579700 -5.846558 0
M  V30 2 C 11.522314 9.151909 -4.927743 0
M  V30 3 C 11.919767 9.260933 -3.579718 0
M  V30 4 C 12.085950 8.104489 -2.798693 0
M  V30 5 C 11.841587 6.843764 -3.369579 0
M  V30 6 C 11.439330 6.743684 -4.717219 0
M  V30 7 C 11.286106 7.892395 -5.522153 0
M  V30 8 N 10.934355 7.808284 -6.886095 0
M  V30 9 C 10.135626 6.681626 -7.352711 0
M  V30 10 C 9.553183 6.988807 -8.747056 0
M  V30 11 N 10.629893 7.289509 -9.704239 0
M  V30 12 C 10.096255 7.603663 -11.028943 0
M  V30 13 C 9.413424 6.465006 -11.714889 0
M  V30 14 N 8.085053 6.172184 -11.558794 0
M  V30 15 C 7.772382 5.119009 -12.361901 0
M  V30 16 C 6.599624 4.405096 -12.647028 0
M  V30 17 C 6.695189 3.373220 -13.600592 0
M  V30 18 C 7.953384 3.117980 -14.195713 0
M  V30 19 N 9.090479 3.802196 -13.916967 0
M  V30 20 C 8.984317 4.782409 -13.011712 0
M  V30 21 N 9.997344 5.632360 -12.592745 0
M  V30 22 C 11.353295 8.469052 -9.221312 0
M  V30 23 C 11.974638 8.178484 -7.846889 0
M  V30 24 H 12.088655 10.231670 -3.136802 0
M  V30 25 H 12.388132 8.187641 -1.764896 0
M  V30 26 H 11.959489 5.949378 -2.774885 0
M  V30 27 H 11.268460 5.772408 -5.139447 0
M  V30 28 H 9.323957 6.486513 -6.650657 0
M  V30 29 H 10.751117 5.782173 -7.396995 0
M  V30 30 H 8.853059 7.824156 -8.686091 0
M  V30 31 H 8.981962 6.121570 -9.076641 0
M  V30 32 H 10.913417 7.927557 -11.673024 0
M  V30 33 H 9.398076 8.439200 -10.965372 0
M  V30 34 H 5.668153 4.644970 -12.154762 0
M  V30 35 H 5.828497 2.786183 -13.867233 0
M  V30 36 H 8.051356 2.328840 -14.926894 0
M  V30 37 H 7.431808 6.704619 -10.967161 0
M  V30 38 H 12.146349 8.730565 -9.923604 0
M  V30 39 H 10.684992 9.330003 -9.156613 0
M  V30 40 H 12.545338 9.043972 -7.515553 0
M  V30 41 H 12.698017 7.372374 -7.930909 0
M  V30 END ATOM
M  V30 BEGIN BOND
M  V30 1 1 2 1
M  V30 2 2 3 2
M  V30 3 1 4 3
M  V30 4 2 5 4
M  V30 5 1 6 5
M  V30 6 1 7 2
M  V30 7 2 7 6
M  V30 8 1 8 7
M  V30 9 1 9 8
M  V30 10 1 10 9
M  V30 11 1 11 10
M  V30 12 1 12 11
M  V30 13 1 13 12
M  V30 14 1 14 13
M  V30 15 1 15 14
M  V30 16 1 16 15
M  V30 17 2 17 16
M  V30 18 1 18 17
M  V30 19 2 19 18
M  V30 20 2 20 15
M  V30 21 1 20 19
M  V30 22 2 21 13
M  V30 23 1 21 20
M  V30 24 1 22 11
M  V30 25 1 23 8
M  V30 26 1 23 22
M  V30 27 1 24 3
M  V30 28 1 25 4
M  V30 29 1 26 5
M  V30 30 1 27 6
M  V30 31 1 28 9
M  V30 32 1 29 9
M  V30 33 1 30 10
M  V30 34 1 31 10
M  V30 35 1 32 12
M  V30 36 1 33 12
M  V30 37 1 34 16
M  V30 38 1 35 17
M  V30 39 1 36 18
M  V30 40 1 37 14
M  V30 41 1 38 22
M  V30 42 1 39 22
M  V30 43 1 40 23
M  V30 44 1 41 23
M  V30 END BOND
M  V30 END CTAB
M  END
>  <b_m_subgroup_collapsed>  (446) 
0

>  <r_i_docking_score>  (446) 
-8.3123087060494107

>  <s_m_subgroup_title>  (446) 
glide-dock_SP_D22_pv

>  <s_m_subgroupid>  (446) 
glide-dock_SP_D22_pv

>  <Molecule ChEMBL ID>  (446) 
CHEMBL80469

>  <Standard Type>  (446) 
Ki

>  <Standard Value>  (446) 
10000.0

>  <label>  (446) 
0

$$$$
CHEMBL568103
     RDKit          3D

  0  0  0  0  0  0  0  0  0  0999 V3000
M  V30 BEGIN CTAB
M  V30 COUNTS 63 68 0 0 1
M  V30 BEGIN ATOM
M  V30 1 O 3.685707 -0.627661 -13.712658 0
M  V30 2 C 4.666905 -0.328534 -14.386189 0
M  V30 3 N 5.042155 -0.823337 -15.626487 0
M  V30 4 C 6.163477 -0.140070 -16.069304 0
M  V30 5 C 6.865594 -0.226838 -17.278593 0
M  V30 6 C 7.944563 0.667563 -17.452713 0
M  V30 7 C 8.269181 1.618013 -16.450180 0
M  V30 8 C 7.531479 1.700258 -15.235424 0
M  V30 9 N 7.801866 2.674875 -14.247023 0
M  V30 10 C 6.672337 3.514954 -13.840137 0
M  V30 11 C 6.972469 4.299438 -12.549866 0
M  V30 12 N 8.277333 5.009079 -12.619104 0 CHG=1
M  V30 13 C 8.551042 5.771292 -11.378863 0
M  V30 14 C 9.576261 6.917492 -11.588438 0
M  V30 15 C 9.575362 8.044284 -10.525182 0
M  V30 16 C 10.356616 7.784294 -9.214097 0 CFG=2
M  V30 17 C 9.759972 6.615953 -8.393867 0
M  V30 18 C 10.488354 6.329097 -7.079797 0
M  V30 19 C 10.884310 7.568559 -6.376773 0
M  V30 20 C 10.855423 8.807796 -6.937045 0
M  V30 21 N 11.230741 9.737794 -5.972686 0
M  V30 22 C 11.552157 9.093785 -4.782918 0
M  V30 23 C 11.981226 9.531267 -3.513111 0
M  V30 24 C 12.295382 8.594181 -2.511405 0
M  V30 25 C 12.158571 7.221952 -2.777567 0
M  V30 26 F 12.486221 6.302250 -1.847030 0
M  V30 27 C 11.685883 6.795557 -4.026158 0
M  V30 28 C 11.369476 7.709825 -5.047405 0
M  V30 29 C 10.461032 9.081472 -8.355048 0
M  V30 30 C 9.388885 4.095470 -12.988455 0
M  V30 31 C 9.093694 3.353799 -14.300644 0
M  V30 32 C 6.485970 0.762136 -15.075724 0
M  V30 33 O 5.603371 0.605350 -14.042634 0
M  V30 34 H 4.525222 -1.535507 -16.124762 0
M  V30 35 H 6.590199 -0.940728 -18.041246 0
M  V30 36 H 8.518934 0.634756 -18.366661 0
M  V30 37 H 9.085226 2.295152 -16.653131 0
M  V30 38 H 6.438767 4.205748 -14.646765 0
M  V30 39 H 5.764989 2.939353 -13.676534 0
M  V30 40 H 6.171247 5.019606 -12.376760 0
M  V30 41 H 6.963095 3.625918 -11.692159 0
M  V30 42 H 7.612522 6.172900 -11.004704 0
M  V30 43 H 8.876834 5.047771 -10.636237 0
M  V30 44 H 10.585606 6.521181 -11.701371 0
M  V30 45 H 9.337976 7.395204 -12.539933 0
M  V30 46 H 10.025131 8.921067 -10.993048 0
M  V30 47 H 8.550685 8.342682 -10.300720 0
M  V30 48 H 11.374772 7.492456 -9.475574 0
M  V30 49 H 8.710486 6.833741 -8.186839 0
M  V30 50 H 9.790625 5.684792 -8.943109 0
M  V30 51 H 11.366909 5.710629 -7.260625 0
M  V30 52 H 9.816980 5.772348 -6.435179 0
M  V30 53 H 11.281130 10.729469 -6.147430 0
M  V30 54 H 12.084081 10.572434 -3.286780 0
M  V30 55 H 12.644785 8.931087 -1.545861 0
M  V30 56 H 11.565261 5.747691 -4.220964 0
M  V30 57 H 11.169850 9.771722 -8.815742 0
M  V30 58 H 9.486555 9.572576 -8.344934 0
M  V30 59 H 10.318689 4.653968 -13.094481 0
M  V30 60 H 9.551250 3.372431 -12.187993 0
M  V30 61 H 9.887862 2.628441 -14.482557 0
M  V30 62 H 9.099669 4.058788 -15.134090 0
M  V30 63 H 8.184782 5.685468 -13.362138 0
M  V30 END ATOM
M  V30 BEGIN BOND
M  V30 1 2 2 1
M  V30 2 1 3 2
M  V30 3 1 4 3
M  V30 4 2 5 4
M  V30 5 1 6 5
M  V30 6 2 7 6
M  V30 7 1 8 7
M  V30 8 1 9 8
M  V30 9 1 10 9
M  V30 10 1 11 10
M  V30 11 1 12 11
M  V30 12 1 13 12
M  V30 13 1 14 13
M  V30 14 1 15 14
M  V30 15 1 16 15
M  V30 16 1 17 16
M  V30 17 1 18 17
M  V30 18 1 19 18
M  V30 19 2 20 19
M  V30 20 1 21 20
M  V30 21 1 22 21
M  V30 22 1 23 22
M  V30 23 2 24 23
M  V30 24 1 25 24
M  V30 25 1 26 25
M  V30 26 2 27 25
M  V30 27 1 28 19
M  V30 28 2 28 22
M  V30 29 1 28 27
M  V30 30 1 29 16
M  V30 31 1 29 20
M  V30 32 1 30 12
M  V30 33 1 31 9
M  V30 34 1 31 30
M  V30 35 1 32 4
M  V30 36 2 32 8
M  V30 37 1 33 2
M  V30 38 1 33 32
M  V30 39 1 34 3
M  V30 40 1 35 5
M  V30 41 1 36 6
M  V30 42 1 37 7
M  V30 43 1 38 10
M  V30 44 1 39 10
M  V30 45 1 40 11
M  V30 46 1 41 11
M  V30 47 1 42 13
M  V30 48 1 43 13
M  V30 49 1 44 14
M  V30 50 1 45 14
M  V30 51 1 46 15
M  V30 52 1 47 15
M  V30 53 1 16 48 CFG=3
M  V30 54 1 49 17
M  V30 55 1 50 17
M  V30 56 1 51 18
M  V30 57 1 52 18
M  V30 58 1 53 21
M  V30 59 1 54 23
M  V30 60 1 55 24
M  V30 61 1 56 27
M  V30 62 1 57 29
M  V30 63 1 58 29
M  V30 64 1 59 30
M  V30 65 1 60 30
M  V30 66 1 61 31
M  V30 67 1 62 31
M  V30 68 1 63 12
M  V30 END BOND
M  V30 END CTAB
M  END
>  <b_m_subgroup_collapsed>  (447) 
0

>  <r_i_docking_score>  (447) 
-8.3092038224377394

>  <s_m_subgroup_title>  (447) 
glide-dock_SP_D22_pv

>  <s_m_subgroupid>  (447) 
glide-dock_SP_D22_pv

>  <Molecule ChEMBL ID>  (447) 
CHEMBL568103

>  <Standard Type>  (447) 
Ki

>  <Standard Value>  (447) 
50.0

>  <label>  (447) 
1

$$$$
CHEMBL4583596
     RDKit          3D

  0  0  0  0  0  0  0  0  0  0999 V3000
M  V30 BEGIN CTAB
M  V30 COUNTS 72 75 0 0 1
M  V30 BEGIN ATOM
M  V30 1 C 11.778963 11.077948 -6.134361 0
M  V30 2 O 11.173491 9.816648 -6.255212 0
M  V30 3 C 11.426006 8.900633 -5.256610 0
M  V30 4 C 12.181907 9.188531 -4.089925 0
M  V30 5 C 12.484063 8.190357 -3.149051 0
M  V30 6 C 12.049855 6.876688 -3.373359 0
M  V30 7 C 11.283747 6.588147 -4.516148 0
M  V30 8 C 10.927640 7.590984 -5.441723 0
M  V30 9 N 10.076344 7.278862 -6.514919 0
M  V30 10 C 8.943081 8.117344 -6.886295 0
M  V30 11 C 9.086535 8.581195 -8.343120 0
M  V30 12 N 9.286750 7.420892 -9.247882 0 CHG=1
M  V30 13 C 9.365800 7.833174 -10.672235 0
M  V30 14 C 9.549696 6.652390 -11.642007 0
M  V30 15 C 8.492051 5.527767 -11.551018 0
M  V30 16 N 8.994839 4.297337 -12.157936 0
M  V30 17 C 9.227081 4.140624 -13.465093 0
M  V30 18 O 8.913994 4.978532 -14.307939 0
M  V30 19 N 9.865985 2.989185 -13.744226 0
M  V30 20 N 10.374475 2.705483 -15.023817 0
M  V30 21 C 11.517095 3.552504 -15.409882 0
M  V30 22 C 11.289766 4.522685 -16.570471 0
M  V30 23 C 12.338675 5.391304 -16.941261 0
M  V30 24 C 12.156538 6.334112 -17.975002 0
M  V30 25 C 10.921670 6.411895 -18.649321 0
M  V30 26 C 10.721061 7.393022 -19.704144 0
M  V30 27 N 10.559505 8.172679 -20.543760 0
M  V30 28 C 9.872802 5.544208 -18.289978 0
M  V30 29 C 10.055359 4.605909 -17.257317 0
M  V30 30 C 9.939163 1.625448 -15.827820 0
M  V30 31 C 10.883584 0.946573 -16.637552 0
M  V30 32 C 10.498169 -0.096310 -17.501060 0
M  V30 33 C 9.153244 -0.479126 -17.578451 0
M  V30 34 Cl 8.672326 -1.744206 -18.647255 0
M  V30 35 C 8.199652 0.172107 -16.779301 0
M  V30 36 C 8.575086 1.209567 -15.905945 0
M  V30 37 Cl 7.293990 1.940960 -15.004531 0
M  V30 38 C 10.439916 6.570396 -8.825445 0
M  V30 39 C 10.355115 6.141135 -7.358389 0
M  V30 40 H 11.685863 11.663039 -7.046058 0
M  V30 41 H 11.286794 11.609192 -5.317710 0
M  V30 42 H 12.847069 10.971489 -5.947741 0
M  V30 43 H 12.566352 10.169651 -3.885823 0
M  V30 44 H 13.055080 8.433084 -2.264162 0
M  V30 45 H 12.276859 6.097777 -2.661042 0
M  V30 46 H 10.906071 5.593072 -4.646084 0
M  V30 47 H 8.033384 7.531191 -6.766284 0
M  V30 48 H 8.838499 8.972999 -6.228625 0
M  V30 49 H 8.204840 9.152676 -8.636991 0
M  V30 50 H 9.938483 9.255283 -8.436727 0
M  V30 51 H 8.485899 8.402780 -10.948863 0
M  V30 52 H 10.207418 8.517184 -10.793273 0
M  V30 53 H 9.538670 7.059130 -12.646793 0
M  V30 54 H 10.549629 6.236825 -11.529474 0
M  V30 55 H 8.243819 5.296174 -10.514452 0
M  V30 56 H 7.558769 5.837224 -12.025564 0
M  V30 57 H 9.247075 3.544671 -11.535294 0
M  V30 58 H 10.086048 2.297772 -13.035440 0
M  V30 59 H 11.822961 4.159045 -14.555675 0
M  V30 60 H 12.392372 2.945527 -15.629866 0
M  V30 61 H 13.286717 5.345177 -16.425060 0
M  V30 62 H 12.964733 7.001214 -18.239256 0
M  V30 63 H 8.918342 5.602158 -18.796362 0
M  V30 64 H 9.226689 3.970157 -16.989199 0
M  V30 65 H 11.930169 1.204501 -16.614599 0
M  V30 66 H 11.239134 -0.595403 -18.106199 0
M  V30 67 H 7.165623 -0.133902 -16.839083 0
M  V30 68 H 10.486334 5.658836 -9.417587 0
M  V30 69 H 11.369057 7.119071 -8.994391 0
M  V30 70 H 11.286136 5.653509 -7.061759 0
M  V30 71 H 9.552796 5.412781 -7.237968 0
M  V30 72 H 8.437086 6.875524 -9.158451 0
M  V30 END ATOM
M  V30 BEGIN BOND
M  V30 1 1 2 1
M  V30 2 1 3 2
M  V30 3 2 4 3
M  V30 4 1 5 4
M  V30 5 2 6 5
M  V30 6 1 7 6
M  V30 7 1 8 3
M  V30 8 2 8 7
M  V30 9 1 9 8
M  V30 10 1 10 9
M  V30 11 1 11 10
M  V30 12 1 12 11
M  V30 13 1 13 12
M  V30 14 1 14 13
M  V30 15 1 15 14
M  V30 16 1 16 15
M  V30 17 1 17 16
M  V30 18 2 18 17
M  V30 19 1 19 17
M  V30 20 1 20 19
M  V30 21 1 21 20
M  V30 22 1 22 21
M  V30 23 1 23 22
M  V30 24 2 24 23
M  V30 25 1 25 24
M  V30 26 1 26 25
M  V30 27 3 27 26
M  V30 28 2 28 25
M  V30 29 2 29 22
M  V30 30 1 29 28
M  V30 31 1 30 20
M  V30 32 1 31 30
M  V30 33 2 32 31
M  V30 34 1 33 32
M  V30 35 1 34 33
M  V30 36 2 35 33
M  V30 37 2 36 30
M  V30 38 1 36 35
M  V30 39 1 37 36
M  V30 40 1 38 12
M  V30 41 1 39 9
M  V30 42 1 39 38
M  V30 43 1 40 1
M  V30 44 1 41 1
M  V30 45 1 42 1
M  V30 46 1 43 4
M  V30 47 1 44 5
M  V30 48 1 45 6
M  V30 49 1 46 7
M  V30 50 1 47 10
M  V30 51 1 48 10
M  V30 52 1 49 11
M  V30 53 1 50 11
M  V30 54 1 51 13
M  V30 55 1 52 13
M  V30 56 1 53 14
M  V30 57 1 54 14
M  V30 58 1 55 15
M  V30 59 1 56 15
M  V30 60 1 57 16
M  V30 61 1 58 19
M  V30 62 1 59 21
M  V30 63 1 60 21
M  V30 64 1 61 23
M  V30 65 1 62 24
M  V30 66 1 63 28
M  V30 67 1 64 29
M  V30 68 1 65 31
M  V30 69 1 66 32
M  V30 70 1 67 35
M  V30 71 1 68 38
M  V30 72 1 69 38
M  V30 73 1 70 39
M  V30 74 1 71 39
M  V30 75 1 72 12
M  V30 END BOND
M  V30 END CTAB
M  END
>  <b_m_subgroup_collapsed>  (448) 
0

>  <r_i_docking_score>  (448) 
-8.3086603368062892

>  <s_m_subgroup_title>  (448) 
glide-dock_SP_D22_pv

>  <s_m_subgroupid>  (448) 
glide-dock_SP_D22_pv

>  <Molecule ChEMBL ID>  (448) 
CHEMBL4583596

>  <Standard Type>  (448) 
Ki

>  <Standard Value>  (448) 
94.0

>  <label>  (448) 
1

$$$$
CHEMBL5750360
     RDKit          3D

  0  0  0  0  0  0  0  0  0  0999 V3000
M  V30 BEGIN CTAB
M  V30 COUNTS 60 63 0 0 1
M  V30 BEGIN ATOM
M  V30 1 O 10.946820 5.932617 -13.040523 0
M  V30 2 C 9.877668 5.372128 -13.266570 0
M  V30 3 N 9.783976 4.330674 -14.108173 0
M  V30 4 C 10.926245 3.722124 -14.798507 0 CFG=2
M  V30 5 C 11.558207 4.707008 -15.784315 0
M  V30 6 C 10.809394 5.229731 -16.863552 0
M  V30 7 C 11.387071 6.172473 -17.735674 0
M  V30 8 C 12.711767 6.604162 -17.530867 0
M  V30 9 Cl 13.414538 7.770895 -18.587511 0
M  V30 10 C 13.462484 6.088475 -16.456186 0
M  V30 11 C 12.887300 5.140739 -15.589229 0
M  V30 12 C 10.587654 2.353559 -15.403720 0
M  V30 13 C 9.616472 1.514932 -14.810334 0
M  V30 14 C 9.360985 0.258233 -15.390684 0
M  V30 15 C 10.086419 -0.122630 -16.532574 0
M  V30 16 C 11.038931 0.773471 -17.049738 0
M  V30 17 N 11.286008 1.980389 -16.501154 0
M  V30 18 C 8.571821 5.889719 -12.631614 0 CFG=1
M  V30 19 C 8.005753 4.931549 -11.562334 0
M  V30 20 C 8.802070 4.970635 -10.243801 0
M  V30 21 N 8.886080 6.347256 -9.690482 0 CFG=1 CHG=1
M  V30 22 C 9.607510 6.394235 -8.396420 0
M  V30 23 C 9.148814 7.568009 -7.514486 0
M  V30 24 N 10.197181 7.978741 -6.590446 0
M  V30 25 C 10.619764 7.161445 -5.546570 0
M  V30 26 C 11.478212 7.548922 -4.581738 0
M  V30 27 C 11.999769 8.929477 -4.595985 0
M  V30 28 O 12.671526 9.372645 -3.669216 0
M  V30 29 C 11.650189 9.742728 -5.776717 0
M  V30 30 C 10.800152 9.230221 -6.691265 0
M  V30 31 C 9.458966 7.307132 -10.665319 0
M  V30 32 C 8.691032 7.297162 -11.995873 0
M  V30 33 H 8.879315 3.919521 -14.280924 0
M  V30 34 H 11.671514 3.499170 -14.032228 0
M  V30 35 H 9.789064 4.912216 -17.018879 0
M  V30 36 H 10.810942 6.572176 -18.556829 0
M  V30 37 H 14.474942 6.426425 -16.290888 0
M  V30 38 H 13.466960 4.766994 -14.756838 0
M  V30 39 H 9.088222 1.805570 -13.914967 0
M  V30 40 H 8.625559 -0.404248 -14.961038 0
M  V30 41 H 9.914669 -1.079491 -17.002493 0
M  V30 42 H 11.623322 0.510657 -17.918783 0
M  V30 43 H 7.852183 5.956902 -13.446642 0
M  V30 44 H 6.969499 5.203498 -11.357277 0
M  V30 45 H 7.969981 3.909735 -11.941024 0
M  V30 46 H 8.310787 4.321652 -9.514993 0
M  V30 47 H 9.805478 4.569842 -10.393772 0
M  V30 48 H 9.447351 5.470129 -7.837766 0
M  V30 49 H 10.681633 6.445625 -8.587458 0
M  V30 50 H 8.859209 8.426010 -8.122423 0
M  V30 51 H 8.253807 7.293063 -6.955269 0
M  V30 52 H 10.194400 6.172312 -5.557924 0
M  V30 53 H 11.775821 6.879876 -3.786353 0
M  V30 54 H 12.096904 10.717797 -5.896220 0
M  V30 55 H 10.536273 9.772189 -7.585109 0
M  V30 56 H 9.423034 8.317635 -10.257706 0
M  V30 57 H 10.512161 7.081912 -10.827308 0
M  V30 58 H 9.185351 8.008500 -12.646793 0
M  V30 59 H 7.686530 7.693978 -11.847705 0
M  V30 60 H 7.927759 6.653421 -9.530227 0
M  V30 END ATOM
M  V30 BEGIN BOND
M  V30 1 2 2 1
M  V30 2 1 3 2
M  V30 3 1 4 3
M  V30 4 1 5 4
M  V30 5 1 6 5
M  V30 6 2 7 6
M  V30 7 1 8 7
M  V30 8 1 9 8
M  V30 9 2 10 8
M  V30 10 2 11 5
M  V30 11 1 11 10
M  V30 12 1 12 4
M  V30 13 2 13 12
M  V30 14 1 14 13
M  V30 15 2 15 14
M  V30 16 1 16 15
M  V30 17 1 17 12
M  V30 18 2 17 16
M  V30 19 1 18 2
M  V30 20 1 19 18
M  V30 21 1 20 19
M  V30 22 1 21 20
M  V30 23 1 22 21
M  V30 24 1 23 22
M  V30 25 1 24 23
M  V30 26 1 25 24
M  V30 27 2 26 25
M  V30 28 1 27 26
M  V30 29 2 28 27
M  V30 30 1 29 27
M  V30 31 1 30 24
M  V30 32 2 30 29
M  V30 33 1 31 21
M  V30 34 1 32 18
M  V30 35 1 32 31
M  V30 36 1 33 3
M  V30 37 1 4 34 CFG=1
M  V30 38 1 35 6
M  V30 39 1 36 7
M  V30 40 1 37 10
M  V30 41 1 38 11
M  V30 42 1 39 13
M  V30 43 1 40 14
M  V30 44 1 41 15
M  V30 45 1 42 16
M  V30 46 1 18 43 CFG=3
M  V30 47 1 44 19
M  V30 48 1 45 19
M  V30 49 1 46 20
M  V30 50 1 47 20
M  V30 51 1 48 22
M  V30 52 1 49 22
M  V30 53 1 50 23
M  V30 54 1 51 23
M  V30 55 1 52 25
M  V30 56 1 53 26
M  V30 57 1 54 29
M  V30 58 1 55 30
M  V30 59 1 56 31
M  V30 60 1 57 31
M  V30 61 1 58 32
M  V30 62 1 59 32
M  V30 63 1 21 60 CFG=1
M  V30 END BOND
M  V30 END CTAB
M  END
>  <b_m_subgroup_collapsed>  (449) 
0

>  <r_i_docking_score>  (449) 
-8.3077086689267698

>  <s_m_subgroup_title>  (449) 
glide-dock_SP_D22_pv

>  <s_m_subgroupid>  (449) 
glide-dock_SP_D22_pv

>  <Molecule ChEMBL ID>  (449) 
CHEMBL5750360

>  <Standard Type>  (449) 
Ki

>  <Standard Value>  (449) 
20000.0

>  <label>  (449) 
0

$$$$
CHEMBL239700
     RDKit          3D

  0  0  0  0  0  0  0  0  0  0999 V3000
M  V30 BEGIN CTAB
M  V30 COUNTS 58 61 0 0 1
M  V30 BEGIN ATOM
M  V30 1 C 5.407876 1.045527 -13.695030 0
M  V30 2 O 6.236793 2.186043 -13.867189 0
M  V30 3 C 7.549541 1.986192 -14.246884 0
M  V30 4 C 7.994430 0.753962 -14.793454 0
M  V30 5 C 9.336528 0.571318 -15.166492 0
M  V30 6 C 10.255207 1.617516 -14.999577 0
M  V30 7 C 9.831573 2.841763 -14.453766 0
M  V30 8 C 8.482070 3.050309 -14.070772 0
M  V30 9 N 8.085901 4.297240 -13.525866 0
M  V30 10 C 7.307208 4.368730 -12.287802 0
M  V30 11 C 8.162554 4.901578 -11.121856 0
M  V30 12 N 8.854647 6.165923 -11.463627 0 CHG=1
M  V30 13 C 9.607615 6.691767 -10.300819 0
M  V30 14 C 10.007008 8.175288 -10.438509 0
M  V30 15 C 10.800124 8.666076 -9.218190 0
M  V30 16 C 9.920894 8.854165 -7.968390 0
M  V30 17 N 10.706037 8.812336 -6.730644 0
M  V30 18 C 11.243865 10.016983 -6.249972 0
M  V30 19 N 11.686025 10.172254 -5.045999 0
M  V30 20 C 11.797992 9.051581 -4.222497 0
M  V30 21 C 12.265531 9.210736 -2.905656 0
M  V30 22 C 12.456200 8.091115 -2.079080 0
M  V30 23 C 12.169844 6.802532 -2.567859 0
M  V30 24 C 11.685963 6.641586 -3.877860 0
M  V30 25 C 11.483711 7.762636 -4.701278 0
M  V30 26 C 10.894630 7.642468 -6.077271 0
M  V30 27 O 10.584585 6.550774 -6.546744 0
M  V30 28 C 9.686335 5.988898 -12.683097 0
M  V30 29 C 8.819654 5.512041 -13.862291 0
M  V30 30 H 4.469836 1.356930 -13.239347 0
M  V30 31 H 5.170740 0.571363 -14.648231 0
M  V30 32 H 5.867089 0.312630 -13.030006 0
M  V30 33 H 7.321105 -0.075954 -14.945039 0
M  V30 34 H 9.657662 -0.374275 -15.578959 0
M  V30 35 H 11.288109 1.478112 -15.281292 0
M  V30 36 H 10.575552 3.611273 -14.320988 0
M  V30 37 H 6.457813 5.031949 -12.456006 0
M  V30 38 H 6.888308 3.406878 -11.998122 0
M  V30 39 H 7.540868 5.062798 -10.247376 0
M  V30 40 H 8.919930 4.172303 -10.840847 0
M  V30 41 H 8.978086 6.578288 -9.418983 0
M  V30 42 H 10.485423 6.071028 -10.123076 0
M  V30 43 H 10.632700 8.315850 -11.318110 0
M  V30 44 H 9.120830 8.795313 -10.584971 0
M  V30 45 H 11.606976 7.960050 -9.014817 0
M  V30 46 H 11.286396 9.613783 -9.454206 0
M  V30 47 H 9.343657 9.772297 -8.041312 0
M  V30 48 H 9.143226 8.092542 -7.912146 0
M  V30 49 H 11.275826 10.829676 -6.974204 0
M  V30 50 H 12.485893 10.194547 -2.526203 0
M  V30 51 H 12.819551 8.222880 -1.070520 0
M  V30 52 H 12.308755 5.937377 -1.935256 0
M  V30 53 H 11.437099 5.664807 -4.248238 0
M  V30 54 H 10.186773 6.917118 -12.950885 0
M  V30 55 H 10.474586 5.260918 -12.484735 0
M  V30 56 H 9.413171 5.393637 -14.768861 0
M  V30 57 H 8.085961 6.280524 -14.090955 0
M  V30 58 H 8.121382 6.837174 -11.658445 0
M  V30 END ATOM
M  V30 BEGIN BOND
M  V30 1 1 2 1
M  V30 2 1 3 2
M  V30 3 2 4 3
M  V30 4 1 5 4
M  V30 5 2 6 5
M  V30 6 1 7 6
M  V30 7 1 8 3
M  V30 8 2 8 7
M  V30 9 1 9 8
M  V30 10 1 10 9
M  V30 11 1 11 10
M  V30 12 1 12 11
M  V30 13 1 13 12
M  V30 14 1 14 13
M  V30 15 1 15 14
M  V30 16 1 16 15
M  V30 17 1 17 16
M  V30 18 1 18 17
M  V30 19 2 19 18
M  V30 20 1 20 19
M  V30 21 2 21 20
M  V30 22 1 22 21
M  V30 23 2 23 22
M  V30 24 1 24 23
M  V30 25 1 25 20
M  V30 26 2 25 24
M  V30 27 1 26 17
M  V30 28 1 26 25
M  V30 29 2 27 26
M  V30 30 1 28 12
M  V30 31 1 29 9
M  V30 32 1 29 28
M  V30 33 1 30 1
M  V30 34 1 31 1
M  V30 35 1 32 1
M  V30 36 1 33 4
M  V30 37 1 34 5
M  V30 38 1 35 6
M  V30 39 1 36 7
M  V30 40 1 37 10
M  V30 41 1 38 10
M  V30 42 1 39 11
M  V30 43 1 40 11
M  V30 44 1 41 13
M  V30 45 1 42 13
M  V30 46 1 43 14
M  V30 47 1 44 14
M  V30 48 1 45 15
M  V30 49 1 46 15
M  V30 50 1 47 16
M  V30 51 1 48 16
M  V30 52 1 49 18
M  V30 53 1 50 21
M  V30 54 1 51 22
M  V30 55 1 52 23
M  V30 56 1 53 24
M  V30 57 1 54 28
M  V30 58 1 55 28
M  V30 59 1 56 29
M  V30 60 1 57 29
M  V30 61 1 58 12
M  V30 END BOND
M  V30 END CTAB
M  END
>  <b_m_subgroup_collapsed>  (450) 
0

>  <r_i_docking_score>  (450) 
-8.3057382298218698

>  <s_m_subgroup_title>  (450) 
glide-dock_SP_D22_pv

>  <s_m_subgroupid>  (450) 
glide-dock_SP_D22_pv

>  <Molecule ChEMBL ID>  (450) 
CHEMBL239700

>  <Standard Type>  (450) 
Ki

>  <Standard Value>  (450) 
1.2

>  <label>  (450) 
1

$$$$
CHEMBL199045
     RDKit          3D

  0  0  0  0  0  0  0  0  0  0999 V3000
M  V30 BEGIN CTAB
M  V30 COUNTS 62 66 0 0 1
M  V30 BEGIN ATOM
M  V30 1 C 11.786268 6.129322 -15.380552 0
M  V30 2 C 11.201240 4.736252 -15.080919 0
M  V30 3 C 12.069983 3.997418 -14.054591 0
M  V30 4 O 9.909354 4.973468 -14.491776 0
M  V30 5 C 8.946033 3.987624 -14.547038 0
M  V30 6 C 9.049795 2.973497 -15.529754 0
M  V30 7 C 8.085876 1.956149 -15.625108 0
M  V30 8 C 6.989671 1.955829 -14.746311 0
M  V30 9 C 6.857071 2.980982 -13.790122 0
M  V30 10 C 7.826474 4.005096 -13.665538 0
M  V30 11 N 7.633662 5.002548 -12.682579 0
M  V30 12 C 7.285152 4.642218 -11.322032 0
M  V30 13 C 8.439641 4.995507 -10.365666 0
M  V30 14 N 8.820468 6.435199 -10.483287 0 CHG=1
M  V30 15 C 9.889153 6.837807 -9.529298 0
M  V30 16 C 9.394841 6.990130 -8.073689 0
M  V30 17 C 10.519553 6.787054 -7.033934 0
M  V30 18 C 10.890797 7.985631 -6.211277 0
M  V30 19 C 10.864341 9.311587 -6.566016 0
M  V30 20 N 11.285967 10.079765 -5.491087 0
M  V30 21 C 11.623136 9.275140 -4.419654 0
M  V30 22 C 12.085693 9.555327 -3.123977 0
M  V30 23 C 12.360970 8.498935 -2.237371 0
M  V30 24 C 12.160621 7.170011 -2.652790 0
M  V30 25 C 11.686820 6.899022 -3.953056 0
M  V30 26 C 11.398464 7.940989 -4.866470 0
M  V30 27 C 9.147558 6.793131 -11.892773 0
M  V30 28 C 8.010321 6.396178 -12.855373 0
M  V30 29 N 10.097250 3.028850 -16.471176 0
M  V30 30 C 11.123528 3.876619 -16.362991 0
M  V30 31 O 11.998136 3.941547 -17.225286 0
M  V30 32 H 12.806545 6.064830 -15.760261 0
M  V30 33 H 11.190254 6.657949 -16.124928 0
M  V30 34 H 11.811681 6.745803 -14.481128 0
M  V30 35 H 13.077184 3.839072 -14.439525 0
M  V30 36 H 12.147395 4.557691 -13.122772 0
M  V30 37 H 11.651740 3.015318 -13.832553 0
M  V30 38 H 8.167807 1.183412 -16.378275 0
M  V30 39 H 6.238047 1.185492 -14.817842 0
M  V30 40 H 5.990956 2.975661 -13.145409 0
M  V30 41 H 6.405846 5.225270 -11.049621 0
M  V30 42 H 7.010718 3.594876 -11.221017 0
M  V30 43 H 8.134663 4.753636 -9.349209 0
M  V30 44 H 9.309358 4.373296 -10.590197 0
M  V30 45 H 10.696715 6.109105 -9.598476 0
M  V30 46 H 10.320084 7.790502 -9.838529 0
M  V30 47 H 8.883394 7.943123 -7.939307 0
M  V30 48 H 8.630134 6.247467 -7.858093 0
M  V30 49 H 10.186592 6.008419 -6.347848 0
M  V30 50 H 11.416992 6.372618 -7.493544 0
M  V30 51 H 10.567781 9.770938 -7.496901 0
M  V30 52 H 11.339133 11.088055 -5.516282 0
M  V30 53 H 12.225437 10.572930 -2.795170 0
M  V30 54 H 12.716104 8.709823 -1.240705 0
M  V30 55 H 12.360778 6.351880 -1.974250 0
M  V30 56 H 11.530873 5.872900 -4.255193 0
M  V30 57 H 9.327456 7.865523 -11.968158 0
M  V30 58 H 10.074278 6.293866 -12.182325 0
M  V30 59 H 8.268868 6.572032 -13.887832 0
M  V30 60 H 7.133864 7.011673 -12.650284 0
M  V30 61 H 10.065579 2.405816 -17.264812 0
M  V30 62 H 7.974860 6.967739 -10.251907 0
M  V30 END ATOM
M  V30 BEGIN BOND
M  V30 1 1 2 1
M  V30 2 1 3 2
M  V30 3 1 4 2
M  V30 4 1 5 4
M  V30 5 2 6 5
M  V30 6 1 7 6
M  V30 7 2 8 7
M  V30 8 1 9 8
M  V30 9 1 10 5
M  V30 10 2 10 9
M  V30 11 1 11 10
M  V30 12 1 12 11
M  V30 13 1 13 12
M  V30 14 1 14 13
M  V30 15 1 15 14
M  V30 16 1 16 15
M  V30 17 1 17 16
M  V30 18 1 18 17
M  V30 19 2 19 18
M  V30 20 1 20 19
M  V30 21 1 21 20
M  V30 22 2 22 21
M  V30 23 1 23 22
M  V30 24 2 24 23
M  V30 25 1 25 24
M  V30 26 1 26 18
M  V30 27 1 26 21
M  V30 28 2 26 25
M  V30 29 1 27 14
M  V30 30 1 28 11
M  V30 31 1 28 27
M  V30 32 1 29 6
M  V30 33 1 30 2
M  V30 34 1 30 29
M  V30 35 2 31 30
M  V30 36 1 32 1
M  V30 37 1 33 1
M  V30 38 1 34 1
M  V30 39 1 35 3
M  V30 40 1 36 3
M  V30 41 1 37 3
M  V30 42 1 38 7
M  V30 43 1 39 8
M  V30 44 1 40 9
M  V30 45 1 41 12
M  V30 46 1 42 12
M  V30 47 1 43 13
M  V30 48 1 44 13
M  V30 49 1 45 15
M  V30 50 1 46 15
M  V30 51 1 47 16
M  V30 52 1 48 16
M  V30 53 1 49 17
M  V30 54 1 50 17
M  V30 55 1 51 19
M  V30 56 1 52 20
M  V30 57 1 53 22
M  V30 58 1 54 23
M  V30 59 1 55 24
M  V30 60 1 56 25
M  V30 61 1 57 27
M  V30 62 1 58 27
M  V30 63 1 59 28
M  V30 64 1 60 28
M  V30 65 1 61 29
M  V30 66 1 62 14
M  V30 END BOND
M  V30 END CTAB
M  END
>  <b_m_subgroup_collapsed>  (451) 
0

>  <r_i_docking_score>  (451) 
-8.3038412606154495

>  <s_m_subgroup_title>  (451) 
glide-dock_SP_D22_pv

>  <s_m_subgroupid>  (451) 
glide-dock_SP_D22_pv

>  <Molecule ChEMBL ID>  (451) 
CHEMBL199045

>  <Standard Type>  (451) 
Ki

>  <Standard Value>  (451) 
7.4

>  <label>  (451) 
1

$$$$
CHEMBL457921
     RDKit          3D

  0  0  0  0  0  0  0  0  0  0999 V3000
M  V30 BEGIN CTAB
M  V30 COUNTS 66 69 0 0 1
M  V30 BEGIN ATOM
M  V30 1 C 6.094978 -0.798149 -14.386666 0
M  V30 2 O 5.426404 0.153480 -13.567015 0
M  V30 3 C 5.931510 1.436101 -13.526269 0
M  V30 4 C 5.303135 2.340568 -12.647010 0
M  V30 5 C 5.763058 3.663494 -12.511131 0
M  V30 6 C 6.869088 4.097953 -13.258990 0
M  V30 7 C 7.511107 3.210906 -14.148952 0
M  V30 8 C 8.711961 3.692188 -14.939874 0
M  V30 9 C 10.047321 3.267212 -14.321189 0
M  V30 10 C 11.202450 3.986554 -14.995301 0
M  V30 11 C 11.834978 3.402274 -16.112253 0
M  V30 12 C 12.885424 4.074726 -16.762802 0
M  V30 13 C 13.308498 5.332948 -16.296061 0
M  V30 14 C 12.683817 5.917907 -15.180275 0
M  V30 15 C 11.619675 5.254055 -14.521505 0
M  V30 16 O 10.943896 5.789685 -13.446424 0
M  V30 17 C 11.545857 6.870385 -12.750736 0
M  V30 18 C 10.753515 7.127627 -11.463155 0
M  V30 19 C 11.545244 8.003396 -10.475878 0
M  V30 20 N 10.829923 8.173587 -9.215032 0
M  V30 21 C 11.016907 7.014845 -8.338701 0
M  V30 22 C 10.164649 7.185091 -7.070497 0
M  V30 23 N 10.630143 8.366983 -6.353152 0
M  V30 24 C 11.273666 8.318697 -5.094104 0
M  V30 25 C 11.439672 9.497445 -4.330503 0
M  V30 26 C 11.993962 9.450290 -3.039508 0
M  V30 27 C 12.378506 8.222134 -2.481575 0
M  V30 28 F 12.884184 8.177483 -1.229797 0
M  V30 29 C 12.225657 7.039958 -3.222738 0
M  V30 30 C 11.685572 7.090369 -4.521980 0
M  V30 31 C 10.602481 9.562972 -7.189533 0
M  V30 32 C 11.376730 9.328947 -8.503091 0
M  V30 33 C 7.037601 1.888948 -14.288411 0
M  V30 34 H 5.613853 -1.770792 -14.283401 0
M  V30 35 H 6.048061 -0.514519 -15.438653 0
M  V30 36 H 7.137814 -0.916935 -14.088250 0
M  V30 37 H 4.485509 2.007185 -12.035494 0
M  V30 38 H 5.286095 4.336385 -11.813498 0
M  V30 39 H 7.230145 5.108993 -13.135010 0
M  V30 40 H 8.668793 4.780864 -14.996944 0
M  V30 41 H 8.644073 3.327890 -15.965501 0
M  V30 42 H 10.180334 2.187727 -14.404551 0
M  V30 43 H 10.054779 3.487138 -13.253550 0
M  V30 44 H 11.513852 2.438895 -16.475801 0
M  V30 45 H 13.368177 3.625214 -17.618034 0
M  V30 46 H 14.116641 5.848279 -16.792387 0
M  V30 47 H 13.035086 6.885876 -14.854952 0
M  V30 48 H 12.573128 6.606091 -12.497039 0
M  V30 49 H 11.570508 7.771681 -13.363596 0
M  V30 50 H 9.803950 7.605150 -11.709629 0
M  V30 51 H 10.486370 6.173534 -11.009033 0
M  V30 52 H 12.536568 7.587080 -10.292316 0
M  V30 53 H 11.706285 8.973104 -10.945031 0
M  V30 54 H 10.749307 6.087307 -8.841648 0
M  V30 55 H 12.070020 6.972059 -8.055233 0
M  V30 56 H 9.120506 7.334554 -7.349523 0
M  V30 57 H 10.174592 6.278863 -6.472597 0
M  V30 58 H 11.109364 10.461550 -4.685110 0
M  V30 59 H 12.086349 10.359947 -2.465332 0
M  V30 60 H 12.518980 6.092954 -2.796128 0
M  V30 61 H 11.599656 6.156562 -5.054828 0
M  V30 62 H 9.561552 9.772305 -7.444069 0
M  V30 63 H 10.995567 10.448066 -6.696772 0
M  V30 64 H 12.439733 9.192347 -8.296872 0
M  V30 65 H 11.286022 10.199364 -9.147699 0
M  V30 66 H 7.548785 1.229137 -14.975487 0
M  V30 END ATOM
M  V30 BEGIN BOND
M  V30 1 1 2 1
M  V30 2 1 3 2
M  V30 3 2 4 3
M  V30 4 1 5 4
M  V30 5 2 6 5
M  V30 6 1 7 6
M  V30 7 1 8 7
M  V30 8 1 9 8
M  V30 9 1 10 9
M  V30 10 2 11 10
M  V30 11 1 12 11
M  V30 12 2 13 12
M  V30 13 1 14 13
M  V30 14 1 15 10
M  V30 15 2 15 14
M  V30 16 1 16 15
M  V30 17 1 17 16
M  V30 18 1 18 17
M  V30 19 1 19 18
M  V30 20 1 20 19
M  V30 21 1 21 20
M  V30 22 1 22 21
M  V30 23 1 23 22
M  V30 24 1 24 23
M  V30 25 1 25 24
M  V30 26 2 26 25
M  V30 27 1 27 26
M  V30 28 1 28 27
M  V30 29 2 29 27
M  V30 30 2 30 24
M  V30 31 1 30 29
M  V30 32 1 31 23
M  V30 33 1 32 20
M  V30 34 1 32 31
M  V30 35 1 33 3
M  V30 36 2 33 7
M  V30 37 1 34 1
M  V30 38 1 35 1
M  V30 39 1 36 1
M  V30 40 1 37 4
M  V30 41 1 38 5
M  V30 42 1 39 6
M  V30 43 1 40 8
M  V30 44 1 41 8
M  V30 45 1 42 9
M  V30 46 1 43 9
M  V30 47 1 44 11
M  V30 48 1 45 12
M  V30 49 1 46 13
M  V30 50 1 47 14
M  V30 51 1 48 17
M  V30 52 1 49 17
M  V30 53 1 50 18
M  V30 54 1 51 18
M  V30 55 1 52 19
M  V30 56 1 53 19
M  V30 57 1 54 21
M  V30 58 1 55 21
M  V30 59 1 56 22
M  V30 60 1 57 22
M  V30 61 1 58 25
M  V30 62 1 59 26
M  V30 63 1 60 29
M  V30 64 1 61 30
M  V30 65 1 62 31
M  V30 66 1 63 31
M  V30 67 1 64 32
M  V30 68 1 65 32
M  V30 69 1 66 33
M  V30 END BOND
M  V30 END CTAB
M  END
>  <b_m_subgroup_collapsed>  (452) 
0

>  <r_i_docking_score>  (452) 
-8.2963157174250508

>  <s_m_subgroup_title>  (452) 
glide-dock_SP_D22_pv

>  <s_m_subgroupid>  (452) 
glide-dock_SP_D22_pv

>  <Molecule ChEMBL ID>  (452) 
CHEMBL457921

>  <Standard Type>  (452) 
Ki

>  <Standard Value>  (452) 
655000.0

>  <label>  (452) 
0

$$$$
CHEMBL5272829
     RDKit          3D

  0  0  0  0  0  0  0  0  0  0999 V3000
M  V30 BEGIN CTAB
M  V30 COUNTS 51 52 0 0 1
M  V30 BEGIN ATOM
M  V30 1 C 12.062917 4.662699 -14.439885 0
M  V30 2 C 11.003139 3.886890 -15.232075 0
M  V30 3 S 9.729946 3.122818 -14.179872 0
M  V30 4 C 8.866291 4.563842 -13.487714 0 CFG=1
M  V30 5 C 7.377003 4.288153 -13.199349 0
M  V30 6 C 7.054045 4.948625 -11.846654 0
M  V30 7 C 8.292838 5.792042 -11.510614 0 CFG=1
M  V30 8 N 8.486025 6.172339 -10.078072 0 CFG=1 CHG=1
M  V30 9 C 8.630102 5.032216 -9.130844 0
M  V30 10 C 9.602254 7.152101 -9.942178 0
M  V30 11 C 9.645093 7.902778 -8.607069 0
M  V30 12 O 8.891562 8.856497 -8.417193 0
M  V30 13 N 10.550202 7.461904 -7.713653 0
M  V30 14 C 10.879669 8.044108 -6.465296 0
M  V30 15 C 10.888687 9.441385 -6.259758 0
M  V30 16 C 11.286174 9.972200 -5.020622 0
M  V30 17 C 11.688557 9.118442 -3.975397 0
M  V30 18 C 12.122991 9.703391 -2.646924 0
M  V30 19 C 11.686189 7.720190 -4.177079 0
M  V30 20 C 12.094851 6.781574 -3.062662 0
M  V30 21 C 11.285286 7.190614 -5.421256 0
M  V30 22 C 9.449013 5.013721 -12.145119 0
M  V30 23 H 12.904573 4.928638 -15.081467 0
M  V30 24 H 11.662240 5.595477 -14.046636 0
M  V30 25 H 12.454930 4.077049 -13.608664 0
M  V30 26 H 11.491757 3.086677 -15.789954 0
M  V30 27 H 10.527150 4.535094 -15.967479 0
M  V30 28 H 8.924421 5.384198 -14.204741 0
M  V30 29 H 7.171896 3.217781 -13.146340 0
M  V30 30 H 6.747286 4.685182 -13.995224 0
M  V30 31 H 6.883954 4.155339 -11.122975 0
M  V30 32 H 6.145903 5.552259 -11.884535 0
M  V30 33 H 8.175177 6.722064 -12.071141 0
M  V30 34 H 9.618682 4.577199 -9.211092 0
M  V30 35 H 8.500385 5.374932 -8.102904 0
M  V30 36 H 7.904693 4.238281 -9.280982 0
M  V30 37 H 9.507718 7.915889 -10.714711 0
M  V30 38 H 10.559461 6.659043 -10.119483 0
M  V30 39 H 11.022360 6.597372 -7.928728 0
M  V30 40 H 10.611108 10.123902 -7.046651 0
M  V30 41 H 11.284383 11.041594 -4.881329 0
M  V30 42 H 12.085455 10.791315 -2.645652 0
M  V30 43 H 11.483464 9.344180 -1.846908 0
M  V30 44 H 13.143714 9.396866 -2.419379 0
M  V30 45 H 12.199358 5.772318 -3.440736 0
M  V30 46 H 13.057382 7.071612 -2.646408 0
M  V30 47 H 11.349804 6.769234 -2.265622 0
M  V30 48 H 11.292583 6.120774 -5.573039 0
M  V30 49 H 10.345547 5.620449 -12.258557 0
M  V30 50 H 9.708501 4.139694 -11.545901 0
M  V30 51 H 7.631587 6.693182 -9.846443 0
M  V30 END ATOM
M  V30 BEGIN BOND
M  V30 1 1 2 1
M  V30 2 1 3 2
M  V30 3 1 4 3
M  V30 4 1 5 4
M  V30 5 1 6 5
M  V30 6 1 7 6
M  V30 7 1 8 7
M  V30 8 1 9 8
M  V30 9 1 10 8
M  V30 10 1 11 10
M  V30 11 2 12 11
M  V30 12 1 13 11
M  V30 13 1 14 13
M  V30 14 1 15 14
M  V30 15 2 16 15
M  V30 16 1 17 16
M  V30 17 1 18 17
M  V30 18 2 19 17
M  V30 19 1 20 19
M  V30 20 2 21 14
M  V30 21 1 21 19
M  V30 22 1 22 4
M  V30 23 1 22 7
M  V30 24 1 23 1
M  V30 25 1 24 1
M  V30 26 1 25 1
M  V30 27 1 26 2
M  V30 28 1 27 2
M  V30 29 1 4 28 CFG=3
M  V30 30 1 29 5
M  V30 31 1 30 5
M  V30 32 1 31 6
M  V30 33 1 32 6
M  V30 34 1 7 33 CFG=3
M  V30 35 1 34 9
M  V30 36 1 35 9
M  V30 37 1 36 9
M  V30 38 1 37 10
M  V30 39 1 38 10
M  V30 40 1 39 13
M  V30 41 1 40 15
M  V30 42 1 41 16
M  V30 43 1 42 18
M  V30 44 1 43 18
M  V30 45 1 44 18
M  V30 46 1 45 20
M  V30 47 1 46 20
M  V30 48 1 47 20
M  V30 49 1 48 21
M  V30 50 1 49 22
M  V30 51 1 50 22
M  V30 52 1 8 51 CFG=1
M  V30 END BOND
M  V30 END CTAB
M  END
>  <b_m_subgroup_collapsed>  (453) 
0

>  <r_i_docking_score>  (453) 
-8.2961971429016703

>  <s_m_subgroup_title>  (453) 
glide-dock_SP_D22_pv

>  <s_m_subgroupid>  (453) 
glide-dock_SP_D22_pv

>  <Molecule ChEMBL ID>  (453) 
CHEMBL5272829

>  <Standard Type>  (453) 
Ki

>  <Standard Value>  (453) 
10000.0

>  <label>  (453) 
0

$$$$
CHEMBL77151
     RDKit          3D

  0  0  0  0  0  0  0  0  0  0999 V3000
M  V30 BEGIN CTAB
M  V30 COUNTS 42 45 0 0 1
M  V30 BEGIN ATOM
M  V30 1 Cl 12.086167 6.983485 -2.634625 0
M  V30 2 C 11.686115 7.970148 -3.990668 0
M  V30 3 C 11.594045 9.371121 -3.854252 0
M  V30 4 C 11.285809 10.165105 -4.977749 0
M  V30 5 C 11.145168 9.559615 -6.239318 0
M  V30 6 C 11.250415 8.160561 -6.383282 0
M  V30 7 N 11.221969 7.573720 -7.654705 0
M  V30 8 C 11.939545 8.172474 -8.772518 0
M  V30 9 C 10.955499 8.543300 -9.890473 0
M  V30 10 N 10.232933 7.338605 -10.310491 0
M  V30 11 C 9.404543 7.664558 -11.469569 0
M  V30 12 C 8.762150 6.474508 -12.110549 0
M  V30 13 N 9.376986 5.652815 -12.963821 0
M  V30 14 C 8.385974 4.727681 -13.254526 0
M  V30 15 C 8.400057 3.604458 -14.111279 0
M  V30 16 C 7.252763 2.792832 -14.244587 0
M  V30 17 C 6.086112 3.079803 -13.503653 0
M  V30 18 C 6.045251 4.199531 -12.649478 0
M  V30 19 C 7.183545 5.016521 -12.544421 0
M  V30 20 N 7.481246 6.172297 -11.846977 0
M  V30 21 C 9.414711 6.877213 -9.175240 0
M  V30 22 C 10.306224 6.487432 -7.974791 0
M  V30 23 C 11.458850 7.362693 -5.239460 0
M  V30 24 H 11.748690 9.833556 -2.890387 0
M  V30 25 H 11.193377 11.235124 -4.887762 0
M  V30 26 H 10.959350 10.172393 -7.104383 0
M  V30 27 H 12.513645 9.042841 -8.459007 0
M  V30 28 H 12.664900 7.453887 -9.150473 0
M  V30 29 H 10.259911 9.314828 -9.556574 0
M  V30 30 H 11.515919 8.956655 -10.729837 0
M  V30 31 H 8.633598 8.385056 -11.191054 0
M  V30 32 H 10.021034 8.144007 -12.230257 0
M  V30 33 H 9.297881 3.369748 -14.662107 0
M  V30 34 H 7.274519 1.932824 -14.897799 0
M  V30 35 H 5.221287 2.438469 -13.592006 0
M  V30 36 H 5.160673 4.429774 -12.075130 0
M  V30 37 H 6.899033 6.736935 -11.202651 0
M  V30 38 H 8.711001 7.658441 -8.880861 0
M  V30 39 H 8.816623 6.012167 -9.461278 0
M  V30 40 H 10.885791 5.596377 -8.214118 0
M  V30 41 H 9.682058 6.241009 -7.115077 0
M  V30 42 H 11.544706 6.288300 -5.335202 0
M  V30 END ATOM
M  V30 BEGIN BOND
M  V30 1 1 2 1
M  V30 2 1 3 2
M  V30 3 2 4 3
M  V30 4 1 5 4
M  V30 5 2 6 5
M  V30 6 1 7 6
M  V30 7 1 8 7
M  V30 8 1 9 8
M  V30 9 1 10 9
M  V30 10 1 11 10
M  V30 11 1 12 11
M  V30 12 2 13 12
M  V30 13 1 14 13
M  V30 14 2 15 14
M  V30 15 1 16 15
M  V30 16 2 17 16
M  V30 17 1 18 17
M  V30 18 1 19 14
M  V30 19 2 19 18
M  V30 20 1 20 12
M  V30 21 1 20 19
M  V30 22 1 21 10
M  V30 23 1 22 7
M  V30 24 1 22 21
M  V30 25 2 23 2
M  V30 26 1 23 6
M  V30 27 1 24 3
M  V30 28 1 25 4
M  V30 29 1 26 5
M  V30 30 1 27 8
M  V30 31 1 28 8
M  V30 32 1 29 9
M  V30 33 1 30 9
M  V30 34 1 31 11
M  V30 35 1 32 11
M  V30 36 1 33 15
M  V30 37 1 34 16
M  V30 38 1 35 17
M  V30 39 1 36 18
M  V30 40 1 37 20
M  V30 41 1 38 21
M  V30 42 1 39 21
M  V30 43 1 40 22
M  V30 44 1 41 22
M  V30 45 1 42 23
M  V30 END BOND
M  V30 END CTAB
M  END
>  <b_m_subgroup_collapsed>  (454) 
0

>  <r_i_docking_score>  (454) 
-8.2950055364130293

>  <s_m_subgroup_title>  (454) 
glide-dock_SP_D22_pv

>  <s_m_subgroupid>  (454) 
glide-dock_SP_D22_pv

>  <Molecule ChEMBL ID>  (454) 
CHEMBL77151

>  <Standard Type>  (454) 
Ki

>  <Standard Value>  (454) 
10000.0

>  <label>  (454) 
0

$$$$
CHEMBL1088000
     RDKit          3D

  0  0  0  0  0  0  0  0  0  0999 V3000
M  V30 BEGIN CTAB
M  V30 COUNTS 67 73 0 0 1
M  V30 BEGIN ATOM
M  V30 1 O 3.320958 -1.028211 -14.489444 0
M  V30 2 C 4.334652 -0.730697 -15.118034 0
M  V30 3 C 4.397763 -0.936040 -16.643641 0
M  V30 4 C 5.807348 -0.739950 -17.256847 0
M  V30 5 C 6.607366 0.353903 -16.568892 0
M  V30 6 C 7.574636 1.130376 -17.243788 0
M  V30 7 C 8.315489 2.108897 -16.540833 0
M  V30 8 C 8.115557 2.305430 -15.154307 0
M  V30 9 C 8.952262 3.324100 -14.372073 0
M  V30 10 C 8.203297 4.567521 -13.806078 0 CFG=1
M  V30 11 C 6.995115 4.200847 -12.907877 0
M  V30 12 C 6.539911 5.277013 -11.911848 0 CFG=2
M  V30 13 C 6.056869 6.547622 -12.580183 0
M  V30 14 C 7.362779 7.327710 -12.808131 0
M  V30 15 C 8.458259 6.517524 -12.108562 0 CFG=2
M  V30 16 C 9.179180 5.548895 -13.095347 0
M  V30 17 N 7.687528 5.750468 -11.114235 0 CFG=2 CHG=1
M  V30 18 C 8.421432 4.721529 -10.320987 0
M  V30 19 C 9.308279 5.304321 -9.216378 0 CFG=2
M  V30 20 C 8.480399 6.063116 -8.182821 0
M  V30 21 O 9.292698 6.497715 -7.127552 0
M  V30 22 C 10.364155 7.202950 -7.591280 0
M  V30 23 C 10.873090 7.047009 -8.909091 0
M  V30 24 C 12.017122 7.772058 -9.317323 0
M  V30 25 C 12.696774 8.576654 -8.388340 0
M  V30 26 C 12.086001 8.827016 -7.149191 0
M  V30 27 C 10.972976 8.127825 -6.753152 0
M  V30 28 C 10.579115 8.503292 -5.368318 0
M  V30 29 C 11.745104 9.412219 -5.008546 0
M  V30 30 O 11.984395 9.772334 -3.860017 0
M  V30 31 N 12.486196 9.652305 -6.095918 0
M  V30 32 O 10.282917 6.172348 -9.788668 0
M  V30 33 C 7.161873 1.502412 -14.495821 0
M  V30 34 C 6.391899 0.563509 -15.195388 0
M  V30 35 N 5.364371 -0.122739 -14.511125 0
M  V30 36 H 4.012908 -1.925941 -16.894125 0
M  V30 37 H 3.706676 -0.227708 -17.095230 0
M  V30 38 H 5.721380 -0.520018 -18.321058 0
M  V30 39 H 6.372633 -1.668759 -17.174557 0
M  V30 40 H 7.755342 0.973674 -18.297232 0
M  V30 41 H 9.053955 2.694730 -17.068865 0
M  V30 42 H 9.770664 3.662922 -15.008884 0
M  V30 43 H 9.427898 2.787071 -13.549892 0
M  V30 44 H 7.792503 5.113104 -14.646769 0
M  V30 45 H 7.271798 3.372298 -12.281683 0
M  V30 46 H 6.149599 3.877463 -13.516809 0
M  V30 47 H 5.727981 4.860407 -11.331573 0
M  V30 48 H 5.449506 6.341326 -13.446867 0
M  V30 49 H 5.389918 7.082559 -11.903034 0
M  V30 50 H 7.621755 7.372280 -13.846834 0
M  V30 51 H 7.288101 8.343275 -12.416419 0
M  V30 52 H 9.171459 7.196817 -11.644891 0
M  V30 53 H 9.727242 6.114974 -13.845683 0
M  V30 54 H 9.966584 5.002745 -12.578465 0
M  V30 55 H 9.024461 4.077309 -10.953210 0
M  V30 56 H 7.685973 4.073653 -9.849367 0
M  V30 57 H 9.829265 4.483026 -8.720798 0
M  V30 58 H 8.086023 6.957241 -8.653111 0
M  V30 59 H 7.673831 5.452760 -7.785651 0
M  V30 60 H 12.423527 7.631625 -10.308224 0
M  V30 61 H 13.629422 9.049512 -8.646885 0
M  V30 62 H 9.686017 9.106561 -5.447105 0
M  V30 63 H 10.485985 7.640462 -4.709815 0
M  V30 64 H 13.362910 10.166015 -6.112151 0
M  V30 65 H 6.981960 1.610305 -13.446807 0
M  V30 66 H 5.301773 0.015954 -13.515267 0
M  V30 67 H 7.280491 6.445387 -10.483552 0
M  V30 END ATOM
M  V30 BEGIN BOND
M  V30 1 2 2 1
M  V30 2 1 3 2
M  V30 3 1 4 3
M  V30 4 1 5 4
M  V30 5 1 6 5
M  V30 6 2 7 6
M  V30 7 1 8 7
M  V30 8 1 9 8
M  V30 9 1 10 9
M  V30 10 1 11 10
M  V30 11 1 12 11
M  V30 12 1 13 12
M  V30 13 1 14 13
M  V30 14 1 15 14
M  V30 15 1 16 10
M  V30 16 1 16 15
M  V30 17 1 17 12
M  V30 18 1 17 15
M  V30 19 1 18 17
M  V30 20 1 19 18
M  V30 21 1 20 19
M  V30 22 1 21 20
M  V30 23 1 22 21
M  V30 24 2 23 22
M  V30 25 1 24 23
M  V30 26 2 25 24
M  V30 27 1 26 25
M  V30 28 1 27 22
M  V30 29 2 27 26
M  V30 30 1 28 27
M  V30 31 1 29 28
M  V30 32 2 30 29
M  V30 33 1 31 26
M  V30 34 1 31 29
M  V30 35 1 32 19
M  V30 36 1 32 23
M  V30 37 2 33 8
M  V30 38 2 34 5
M  V30 39 1 34 33
M  V30 40 1 35 2
M  V30 41 1 35 34
M  V30 42 1 36 3
M  V30 43 1 37 3
M  V30 44 1 38 4
M  V30 45 1 39 4
M  V30 46 1 40 6
M  V30 47 1 41 7
M  V30 48 1 42 9
M  V30 49 1 43 9
M  V30 50 1 10 44 CFG=3
M  V30 51 1 45 11
M  V30 52 1 46 11
M  V30 53 1 12 47 CFG=1
M  V30 54 1 48 13
M  V30 55 1 49 13
M  V30 56 1 50 14
M  V30 57 1 51 14
M  V30 58 1 15 52 CFG=1
M  V30 59 1 53 16
M  V30 60 1 54 16
M  V30 61 1 55 18
M  V30 62 1 56 18
M  V30 63 1 19 57 CFG=1
M  V30 64 1 58 20
M  V30 65 1 59 20
M  V30 66 1 60 24
M  V30 67 1 61 25
M  V30 68 1 62 28
M  V30 69 1 63 28
M  V30 70 1 64 31
M  V30 71 1 65 33
M  V30 72 1 66 35
M  V30 73 1 17 67 CFG=1
M  V30 END BOND
M  V30 END CTAB
M  END
>  <b_m_subgroup_collapsed>  (455) 
0

>  <r_i_docking_score>  (455) 
-8.2946149190410097

>  <s_m_subgroup_title>  (455) 
glide-dock_SP_D22_pv

>  <s_m_subgroupid>  (455) 
glide-dock_SP_D22_pv

>  <Molecule ChEMBL ID>  (455) 
CHEMBL1088000

>  <Standard Type>  (455) 
Ki

>  <Standard Value>  (455) 
16.0

>  <label>  (455) 
1

$$$$
CHEMBL402143
     RDKit          3D

  0  0  0  0  0  0  0  0  0  0999 V3000
M  V30 BEGIN CTAB
M  V30 COUNTS 59 61 0 0 1
M  V30 BEGIN ATOM
M  V30 1 C 9.674851 3.977589 -16.903091 0
M  V30 2 O 9.721244 4.516651 -15.592172 0
M  V30 3 C 10.734107 5.371943 -15.195292 0
M  V30 4 C 11.661810 6.009163 -16.082430 0
M  V30 5 O 11.651827 5.721446 -17.433010 0
M  V30 6 C 12.853989 5.849642 -18.193222 0
M  V30 7 C 13.938781 4.857276 -17.732065 0
M  V30 8 F 15.003560 4.936177 -18.528965 0
M  V30 9 C 12.567434 6.969090 -15.568177 0
M  V30 10 C 12.603765 7.260483 -14.201408 0
M  V30 11 C 11.761685 6.570684 -13.321574 0
M  V30 12 C 10.811783 5.640179 -13.794625 0
M  V30 13 C 9.905124 4.951463 -12.757066 0 CFG=2
M  V30 14 O 9.614840 3.601541 -13.064385 0
M  V30 15 C 8.621141 5.724139 -12.340940 0 CFG=1
M  V30 16 C 7.859847 5.052659 -11.175305 0
M  V30 17 C 8.625388 5.159369 -9.838458 0
M  V30 18 N 8.886013 6.571918 -9.455407 0 CFG=1 CHG=1
M  V30 19 C 9.597607 6.634739 -8.146894 0
M  V30 20 C 9.777402 8.053980 -7.561311 0
M  V30 21 C 10.554598 8.124578 -6.246792 0
M  V30 22 C 10.846570 9.395334 -5.704474 0
M  V30 23 C 11.516064 9.513136 -4.471443 0
M  V30 24 C 11.942713 8.359970 -3.786714 0
M  V30 25 F 12.579153 8.477100 -2.597177 0
M  V30 26 C 11.686083 7.089515 -4.330240 0
M  V30 27 C 10.990135 6.972348 -5.551037 0
M  V30 28 C 9.573642 7.319714 -10.539863 0
M  V30 29 C 8.864666 7.188114 -11.903880 0
M  V30 30 H 8.888080 3.222302 -16.947933 0
M  V30 31 H 9.418570 4.743493 -17.638458 0
M  V30 32 H 10.613008 3.488938 -17.176559 0
M  V30 33 H 12.592420 5.619948 -19.228411 0
M  V30 34 H 13.224254 6.875610 -18.217747 0
M  V30 35 H 14.282845 5.053801 -16.718431 0
M  V30 36 H 13.578784 3.827484 -17.773544 0
M  V30 37 H 13.246617 7.508985 -16.208673 0
M  V30 38 H 13.307967 7.984759 -13.821987 0
M  V30 39 H 11.858548 6.778586 -12.271452 0
M  V30 40 H 10.485543 4.867330 -11.849630 0
M  V30 41 H 9.290021 3.158972 -12.295737 0
M  V30 42 H 7.966675 5.743600 -13.213870 0
M  V30 43 H 6.887083 5.532339 -11.062943 0
M  V30 44 H 7.636637 4.008996 -11.398122 0
M  V30 45 H 9.569677 4.615530 -9.889688 0
M  V30 46 H 8.064771 4.673504 -9.041339 0
M  V30 47 H 9.034881 6.036524 -7.428707 0
M  V30 48 H 10.573723 6.161255 -8.266067 0
M  V30 49 H 10.311735 8.694549 -8.265814 0
M  V30 50 H 8.798026 8.510661 -7.405488 0
M  V30 51 H 10.522632 10.289416 -6.216008 0
M  V30 52 H 11.685329 10.486827 -4.040239 0
M  V30 53 H 12.008963 6.201363 -3.804716 0
M  V30 54 H 10.799781 5.982098 -5.930462 0
M  V30 55 H 10.603292 6.974379 -10.594303 0
M  V30 56 H 9.612293 8.380001 -10.297492 0
M  V30 57 H 9.424311 7.741994 -12.646937 0
M  V30 58 H 7.898808 7.692185 -11.847206 0
M  V30 59 H 7.969509 7.005864 -9.351082 0
M  V30 END ATOM
M  V30 BEGIN BOND
M  V30 1 1 2 1
M  V30 2 1 3 2
M  V30 3 2 4 3
M  V30 4 1 5 4
M  V30 5 1 6 5
M  V30 6 1 7 6
M  V30 7 1 8 7
M  V30 8 1 9 4
M  V30 9 2 10 9
M  V30 10 1 11 10
M  V30 11 1 12 3
M  V30 12 2 12 11
M  V30 13 1 13 12
M  V30 14 1 14 13
M  V30 15 1 15 13
M  V30 16 1 16 15
M  V30 17 1 17 16
M  V30 18 1 18 17
M  V30 19 1 19 18
M  V30 20 1 20 19
M  V30 21 1 21 20
M  V30 22 1 22 21
M  V30 23 2 23 22
M  V30 24 1 24 23
M  V30 25 1 25 24
M  V30 26 2 26 24
M  V30 27 2 27 21
M  V30 28 1 27 26
M  V30 29 1 28 18
M  V30 30 1 29 15
M  V30 31 1 29 28
M  V30 32 1 30 1
M  V30 33 1 31 1
M  V30 34 1 32 1
M  V30 35 1 33 6
M  V30 36 1 34 6
M  V30 37 1 35 7
M  V30 38 1 36 7
M  V30 39 1 37 9
M  V30 40 1 38 10
M  V30 41 1 39 11
M  V30 42 1 13 40 CFG=1
M  V30 43 1 41 14
M  V30 44 1 15 42 CFG=3
M  V30 45 1 43 16
M  V30 46 1 44 16
M  V30 47 1 45 17
M  V30 48 1 46 17
M  V30 49 1 47 19
M  V30 50 1 48 19
M  V30 51 1 49 20
M  V30 52 1 50 20
M  V30 53 1 51 22
M  V30 54 1 52 23
M  V30 55 1 53 26
M  V30 56 1 54 27
M  V30 57 1 55 28
M  V30 58 1 56 28
M  V30 59 1 57 29
M  V30 60 1 58 29
M  V30 61 1 18 59 CFG=1
M  V30 END BOND
M  V30 END CTAB
M  END
>  <b_m_subgroup_collapsed>  (456) 
0

>  <r_i_docking_score>  (456) 
-8.2929763781901595

>  <s_m_subgroup_title>  (456) 
glide-dock_SP_D22_pv

>  <s_m_subgroupid>  (456) 
glide-dock_SP_D22_pv

>  <Molecule ChEMBL ID>  (456) 
CHEMBL402143

>  <Standard Type>  (456) 
Ki

>  <Standard Value>  (456) 
10000.0

>  <label>  (456) 
0

$$$$
CHEMBL519228
     RDKit          3D

  0  0  0  0  0  0  0  0  0  0999 V3000
M  V30 BEGIN CTAB
M  V30 COUNTS 68 71 0 0 1
M  V30 BEGIN ATOM
M  V30 1 C 13.292304 -0.616518 -19.716429 0
M  V30 2 O 12.246121 -0.579770 -18.754501 0
M  V30 3 C 12.061029 0.591176 -18.050951 0
M  V30 4 C 12.786627 1.787333 -18.277697 0
M  V30 5 C 12.546999 2.931265 -17.491524 0
M  V30 6 C 11.586248 2.893201 -16.463787 0
M  V30 7 C 10.857375 1.711606 -16.229193 0
M  V30 8 C 9.809465 1.675306 -15.132071 0
M  V30 9 C 8.499488 2.320267 -15.603561 0
M  V30 10 C 7.385507 2.202742 -14.580361 0
M  V30 11 C 6.708856 0.967275 -14.470791 0
M  V30 12 C 5.666153 0.806039 -13.545380 0
M  V30 13 C 5.285616 1.887788 -12.733853 0
M  V30 14 C 5.944223 3.126336 -12.842920 0
M  V30 15 C 7.025856 3.294506 -13.748586 0
M  V30 16 O 7.767188 4.457675 -13.832590 0
M  V30 17 C 7.413107 5.568679 -13.011600 0
M  V30 18 C 7.879486 5.416461 -11.553492 0
M  V30 19 C 9.383175 5.650815 -11.352510 0
M  V30 20 C 9.805991 5.799590 -9.875357 0
M  V30 21 C 9.098642 6.962519 -9.154124 0
M  V30 22 N 9.940289 7.554259 -8.084464 0 CFG=1 CHG=1
M  V30 23 C 9.583473 8.958477 -7.776757 0
M  V30 24 C 10.740043 9.610184 -7.011215 0
M  V30 25 C 11.165805 8.789509 -5.820446 0
M  V30 26 C 11.879285 9.412333 -4.781123 0
M  V30 27 C 12.310379 8.674178 -3.666226 0
M  V30 28 C 12.022923 7.298665 -3.596328 0
M  V30 29 C 11.290292 6.681956 -4.629663 0
M  V30 30 C 10.856415 7.413619 -5.753052 0
M  V30 31 C 10.032475 6.734453 -6.846500 0
M  V30 32 C 11.087927 0.572897 -17.031170 0
M  V30 33 H 13.342741 -1.610557 -20.155834 0
M  V30 34 H 13.116397 0.094565 -20.525753 0
M  V30 35 H 14.261579 -0.410233 -19.258688 0
M  V30 36 H 13.537428 1.854105 -19.046638 0
M  V30 37 H 13.102794 3.837139 -17.669136 0
M  V30 38 H 11.404753 3.770389 -15.860920 0
M  V30 39 H 10.186656 2.191445 -14.248585 0
M  V30 40 H 9.640057 0.638366 -14.835549 0
M  V30 41 H 8.163946 1.834241 -16.521116 0
M  V30 42 H 8.672009 3.363623 -15.862344 0
M  V30 43 H 6.992905 0.133189 -15.094834 0
M  V30 44 H 5.153377 -0.139170 -13.461858 0
M  V30 45 H 4.486279 1.776319 -12.023681 0
M  V30 46 H 5.620041 3.914522 -12.183057 0
M  V30 47 H 7.863730 6.461587 -13.444387 0
M  V30 48 H 6.338827 5.757129 -13.048044 0
M  V30 49 H 7.325833 6.165390 -10.992523 0
M  V30 50 H 7.593492 4.456582 -11.130824 0
M  V30 51 H 9.934381 4.830026 -11.811065 0
M  V30 52 H 9.678249 6.550518 -11.891636 0
M  V30 53 H 9.632364 4.868714 -9.335382 0
M  V30 54 H 10.885447 5.970954 -9.847776 0
M  V30 55 H 8.885893 7.735452 -9.892014 0
M  V30 56 H 8.132713 6.644032 -8.756560 0
M  V30 57 H 9.392628 9.516012 -8.694169 0
M  V30 58 H 8.657337 8.973420 -7.199524 0
M  V30 59 H 10.486174 10.603870 -6.646089 0
M  V30 60 H 11.602297 9.724730 -7.668854 0
M  V30 61 H 12.086030 10.466809 -4.854644 0
M  V30 62 H 12.859788 9.158801 -2.871167 0
M  V30 63 H 12.343684 6.721270 -2.741355 0
M  V30 64 H 11.043547 5.642575 -4.546273 0
M  V30 65 H 9.032656 6.539982 -6.457270 0
M  V30 66 H 10.484228 5.772117 -7.085159 0
M  V30 67 H 10.520700 -0.329275 -16.854410 0
M  V30 68 H 10.873325 7.602731 -8.467043 0
M  V30 END ATOM
M  V30 BEGIN BOND
M  V30 1 1 2 1
M  V30 2 1 3 2
M  V30 3 2 4 3
M  V30 4 1 5 4
M  V30 5 2 6 5
M  V30 6 1 7 6
M  V30 7 1 8 7
M  V30 8 1 9 8
M  V30 9 1 10 9
M  V30 10 2 11 10
M  V30 11 1 12 11
M  V30 12 2 13 12
M  V30 13 1 14 13
M  V30 14 1 15 10
M  V30 15 2 15 14
M  V30 16 1 16 15
M  V30 17 1 17 16
M  V30 18 1 18 17
M  V30 19 1 19 18
M  V30 20 1 20 19
M  V30 21 1 21 20
M  V30 22 1 22 21
M  V30 23 1 23 22
M  V30 24 1 24 23
M  V30 25 1 25 24
M  V30 26 2 26 25
M  V30 27 1 27 26
M  V30 28 2 28 27
M  V30 29 1 29 28
M  V30 30 1 30 25
M  V30 31 2 30 29
M  V30 32 1 31 22
M  V30 33 1 31 30
M  V30 34 1 32 3
M  V30 35 2 32 7
M  V30 36 1 33 1
M  V30 37 1 34 1
M  V30 38 1 35 1
M  V30 39 1 36 4
M  V30 40 1 37 5
M  V30 41 1 38 6
M  V30 42 1 39 8
M  V30 43 1 40 8
M  V30 44 1 41 9
M  V30 45 1 42 9
M  V30 46 1 43 11
M  V30 47 1 44 12
M  V30 48 1 45 13
M  V30 49 1 46 14
M  V30 50 1 47 17
M  V30 51 1 48 17
M  V30 52 1 49 18
M  V30 53 1 50 18
M  V30 54 1 51 19
M  V30 55 1 52 19
M  V30 56 1 53 20
M  V30 57 1 54 20
M  V30 58 1 55 21
M  V30 59 1 56 21
M  V30 60 1 57 23
M  V30 61 1 58 23
M  V30 62 1 59 24
M  V30 63 1 60 24
M  V30 64 1 61 26
M  V30 65 1 62 27
M  V30 66 1 63 28
M  V30 67 1 64 29
M  V30 68 1 65 31
M  V30 69 1 66 31
M  V30 70 1 67 32
M  V30 71 1 22 68 CFG=3
M  V30 END BOND
M  V30 END CTAB
M  END
>  <b_m_subgroup_collapsed>  (457) 
0

>  <r_i_docking_score>  (457) 
-8.2921633433968793

>  <s_m_subgroup_title>  (457) 
glide-dock_SP_D22_pv

>  <s_m_subgroupid>  (457) 
glide-dock_SP_D22_pv

>  <Molecule ChEMBL ID>  (457) 
CHEMBL519228

>  <Standard Type>  (457) 
Ki

>  <Standard Value>  (457) 
1000000.0

>  <label>  (457) 
0

$$$$
CHEMBL292187
     RDKit          3D

  0  0  0  0  0  0  0  0  0  0999 V3000
M  V30 BEGIN CTAB
M  V30 COUNTS 51 55 0 0 1
M  V30 BEGIN ATOM
M  V30 1 F 9.586962 -0.318734 -16.420208 0
M  V30 2 C 9.691986 0.841759 -15.730223 0
M  V30 3 C 8.609820 1.315650 -14.965660 0
M  V30 4 C 8.730238 2.522982 -14.247170 0
M  V30 5 C 9.935948 3.261558 -14.271882 0
M  V30 6 C 10.098576 4.501193 -13.515220 0
M  V30 7 C 10.972054 5.544285 -13.654490 0
M  V30 8 C 10.677090 6.507575 -12.646720 0
M  V30 9 C 9.650494 6.024801 -11.877768 0
M  V30 10 C 8.941643 6.584170 -10.684264 0
M  V30 11 N 9.871238 6.738038 -9.537739 0 CHG=1
M  V30 12 C 9.287854 6.396250 -8.216277 0
M  V30 13 C 10.402781 6.323794 -7.152613 0
M  V30 14 N 11.248243 7.509957 -7.168100 0
M  V30 15 C 11.271041 8.332757 -6.026372 0
M  V30 16 C 10.888989 9.684343 -6.119985 0
M  V30 17 C 10.889233 10.501356 -4.980340 0
M  V30 18 C 11.298277 9.998552 -3.735221 0
M  V30 19 C 11.686143 8.659105 -3.588735 0
M  V30 20 C 12.102477 7.829132 -2.502810 0
M  V30 21 C 12.257646 6.581779 -3.044874 0
M  V30 22 O 11.992216 6.563995 -4.389481 0
M  V30 23 C 11.638755 7.845114 -4.747910 0
M  V30 24 C 11.699342 8.026800 -8.458477 0
M  V30 25 C 10.555934 8.057362 -9.487915 0
M  V30 26 N 9.305428 4.801579 -12.423496 0
M  V30 27 C 11.006698 2.775769 -15.055085 0
M  V30 28 C 10.886819 1.577774 -15.781682 0
M  V30 29 H 7.688630 0.751656 -14.932354 0
M  V30 30 H 7.886120 2.871741 -13.671761 0
M  V30 31 H 11.734156 5.623360 -14.417178 0
M  V30 32 H 11.178680 7.451798 -12.508929 0
M  V30 33 H 8.116077 5.924451 -10.414286 0
M  V30 34 H 8.486549 7.541906 -10.936332 0
M  V30 35 H 8.774672 5.434664 -8.264426 0
M  V30 36 H 8.538328 7.139287 -7.939360 0
M  V30 37 H 11.039614 5.461930 -7.349659 0
M  V30 38 H 9.961665 6.172598 -6.166503 0
M  V30 39 H 10.563678 10.107056 -7.052246 0
M  V30 40 H 10.576741 11.524971 -5.046825 0
M  V30 41 H 11.297240 10.633288 -2.866196 0
M  V30 42 H 12.229897 8.131386 -1.474180 0
M  V30 43 H 12.547572 5.635794 -2.615438 0
M  V30 44 H 12.153506 9.013271 -8.359471 0
M  V30 45 H 12.493129 7.373206 -8.819366 0
M  V30 46 H 10.960154 8.322909 -10.462665 0
M  V30 47 H 9.833551 8.831478 -9.224686 0
M  V30 48 H 8.571280 4.202344 -12.076159 0
M  V30 49 H 11.941008 3.317396 -15.094872 0
M  V30 50 H 11.717993 1.214992 -16.369749 0
M  V30 51 H 10.589800 6.046274 -9.692036 0
M  V30 END ATOM
M  V30 BEGIN BOND
M  V30 1 1 2 1
M  V30 2 1 3 2
M  V30 3 2 4 3
M  V30 4 1 5 4
M  V30 5 1 6 5
M  V30 6 2 7 6
M  V30 7 1 8 7
M  V30 8 2 9 8
M  V30 9 1 10 9
M  V30 10 1 11 10
M  V30 11 1 12 11
M  V30 12 1 13 12
M  V30 13 1 14 13
M  V30 14 1 15 14
M  V30 15 1 16 15
M  V30 16 2 17 16
M  V30 17 1 18 17
M  V30 18 2 19 18
M  V30 19 1 20 19
M  V30 20 2 21 20
M  V30 21 1 22 21
M  V30 22 2 23 15
M  V30 23 1 23 19
M  V30 24 1 23 22
M  V30 25 1 24 14
M  V30 26 1 25 11
M  V30 27 1 25 24
M  V30 28 1 26 6
M  V30 29 1 26 9
M  V30 30 2 27 5
M  V30 31 2 28 2
M  V30 32 1 28 27
M  V30 33 1 29 3
M  V30 34 1 30 4
M  V30 35 1 31 7
M  V30 36 1 32 8
M  V30 37 1 33 10
M  V30 38 1 34 10
M  V30 39 1 35 12
M  V30 40 1 36 12
M  V30 41 1 37 13
M  V30 42 1 38 13
M  V30 43 1 39 16
M  V30 44 1 40 17
M  V30 45 1 41 18
M  V30 46 1 42 20
M  V30 47 1 43 21
M  V30 48 1 44 24
M  V30 49 1 45 24
M  V30 50 1 46 25
M  V30 51 1 47 25
M  V30 52 1 48 26
M  V30 53 1 49 27
M  V30 54 1 50 28
M  V30 55 1 51 11
M  V30 END BOND
M  V30 END CTAB
M  END
>  <b_m_subgroup_collapsed>  (458) 
0

>  <r_i_docking_score>  (458) 
-8.2893280164651593

>  <s_m_subgroup_title>  (458) 
glide-dock_SP_D22_pv

>  <s_m_subgroupid>  (458) 
glide-dock_SP_D22_pv

>  <Molecule ChEMBL ID>  (458) 
CHEMBL292187

>  <Standard Type>  (458) 
Ki

>  <Standard Value>  (458) 
0.42

>  <label>  (458) 
1

$$$$
CHEMBL254203
     RDKit          3D

  0  0  0  0  0  0  0  0  0  0999 V3000
M  V30 BEGIN CTAB
M  V30 COUNTS 72 75 0 0 1
M  V30 BEGIN ATOM
M  V30 1 C 14.638320 7.143495 -17.446854 0
M  V30 2 C 13.468983 7.280323 -16.464325 0
M  V30 3 C 13.234833 5.997113 -15.650863 0
M  V30 4 N 12.014602 6.105145 -14.799991 0 CFG=2 CHG=1
M  V30 5 C 12.309907 6.632452 -13.429276 0
M  V30 6 C 11.103260 7.347242 -12.796990 0
M  V30 7 C 11.294402 8.005784 -11.430250 0
M  V30 8 C 11.248954 7.011043 -10.278615 0
M  V30 9 N 10.885586 7.639925 -9.012223 0
M  V30 10 C 12.014218 8.412796 -8.479607 0
M  V30 11 C 11.628581 9.074331 -7.144878 0
M  V30 12 N 11.192199 8.048422 -6.212187 0
M  V30 13 C 11.521237 8.103292 -4.850238 0
M  V30 14 C 11.686236 6.907518 -4.117021 0
M  V30 15 C 12.070597 6.941840 -2.762985 0
M  V30 16 C 12.273726 8.177526 -2.125185 0
M  V30 17 C 12.085969 9.372496 -2.840056 0
M  V30 18 C 11.718625 9.339708 -4.197564 0
M  V30 19 C 10.100168 7.212426 -6.692551 0
M  V30 20 C 10.484645 6.600287 -8.052024 0
M  V30 21 C 11.135525 4.891552 -14.824718 0 CFG=2
M  V30 22 C 11.827142 3.606975 -14.351526 0
M  V30 23 C 10.788486 2.499669 -14.122847 0
M  V30 24 C 9.867510 2.307043 -15.319057 0
M  V30 25 C 9.134033 1.105146 -15.440435 0
M  V30 26 C 8.260876 0.912964 -16.531322 0
M  V30 27 O 7.515446 -0.226440 -16.653776 0
M  V30 28 C 8.143549 1.911483 -17.516058 0
M  V30 29 O 7.286600 1.723298 -18.558786 0
M  V30 30 C 8.887118 3.100090 -17.412169 0
M  V30 31 C 9.724305 3.322833 -16.299696 0
M  V30 32 C 10.461360 4.654604 -16.197283 0
M  V30 33 H 14.816122 8.084176 -17.971567 0
M  V30 34 H 15.560102 6.866820 -16.932924 0
M  V30 35 H 14.434066 6.378473 -18.197565 0
M  V30 36 H 12.568565 7.531515 -17.027096 0
M  V30 37 H 13.660726 8.122287 -15.800217 0
M  V30 38 H 14.110486 5.764064 -15.046831 0
M  V30 39 H 13.159246 5.168104 -16.352041 0
M  V30 40 H 12.681600 5.845255 -12.778515 0
M  V30 41 H 13.113628 7.367784 -13.500505 0
M  V30 42 H 10.886059 8.172268 -13.446992 0
M  V30 43 H 10.214304 6.719324 -12.761969 0
M  V30 44 H 12.225441 8.571773 -11.404682 0
M  V30 45 H 10.482293 8.720987 -11.288514 0
M  V30 46 H 10.520296 6.230112 -10.505605 0
M  V30 47 H 12.236334 6.572325 -10.231441 0
M  V30 48 H 12.884162 7.771469 -8.335360 0
M  V30 49 H 12.301459 9.184559 -9.191282 0
M  V30 50 H 12.481668 9.629002 -6.750902 0
M  V30 51 H 10.809344 9.775139 -7.296223 0
M  V30 52 H 11.545360 5.951206 -4.596735 0
M  V30 53 H 12.202225 6.018095 -2.218039 0
M  V30 54 H 12.560777 8.212372 -1.084159 0
M  V30 55 H 12.216618 10.320908 -2.342983 0
M  V30 56 H 11.581345 10.269772 -4.727019 0
M  V30 57 H 9.847774 6.424515 -5.983907 0
M  V30 58 H 9.206483 7.828723 -6.799757 0
M  V30 59 H 9.629551 6.050236 -8.447835 0
M  V30 60 H 11.285869 5.875825 -7.909389 0
M  V30 61 H 10.316770 5.070888 -14.130192 0
M  V30 62 H 12.532452 3.277925 -15.113257 0
M  V30 63 H 12.403707 3.771911 -13.446824 0
M  V30 64 H 10.164936 2.746910 -13.262477 0
M  V30 65 H 11.286227 1.562107 -13.873974 0
M  V30 66 H 9.233938 0.338875 -14.685939 0
M  V30 67 H 7.687045 -0.901310 -16.007933 0
M  V30 68 H 6.878531 0.872023 -18.468105 0
M  V30 69 H 8.780859 3.861637 -18.171173 0
M  V30 70 H 11.183303 4.667153 -17.012360 0
M  V30 71 H 9.756473 5.458255 -16.406511 0
M  V30 72 H 11.462407 6.827348 -15.240660 0
M  V30 END ATOM
M  V30 BEGIN BOND
M  V30 1 1 2 1
M  V30 2 1 3 2
M  V30 3 1 4 3
M  V30 4 1 5 4
M  V30 5 1 6 5
M  V30 6 1 7 6
M  V30 7 1 8 7
M  V30 8 1 9 8
M  V30 9 1 10 9
M  V30 10 1 11 10
M  V30 11 1 12 11
M  V30 12 1 13 12
M  V30 13 2 14 13
M  V30 14 1 15 14
M  V30 15 2 16 15
M  V30 16 1 17 16
M  V30 17 1 18 13
M  V30 18 2 18 17
M  V30 19 1 19 12
M  V30 20 1 20 9
M  V30 21 1 20 19
M  V30 22 1 21 4
M  V30 23 1 22 21
M  V30 24 1 23 22
M  V30 25 1 24 23
M  V30 26 1 25 24
M  V30 27 2 26 25
M  V30 28 1 27 26
M  V30 29 1 28 26
M  V30 30 1 29 28
M  V30 31 2 30 28
M  V30 32 2 31 24
M  V30 33 1 31 30
M  V30 34 1 32 21
M  V30 35 1 32 31
M  V30 36 1 33 1
M  V30 37 1 34 1
M  V30 38 1 35 1
M  V30 39 1 36 2
M  V30 40 1 37 2
M  V30 41 1 38 3
M  V30 42 1 39 3
M  V30 43 1 40 5
M  V30 44 1 41 5
M  V30 45 1 42 6
M  V30 46 1 43 6
M  V30 47 1 44 7
M  V30 48 1 45 7
M  V30 49 1 46 8
M  V30 50 1 47 8
M  V30 51 1 48 10
M  V30 52 1 49 10
M  V30 53 1 50 11
M  V30 54 1 51 11
M  V30 55 1 52 14
M  V30 56 1 53 15
M  V30 57 1 54 16
M  V30 58 1 55 17
M  V30 59 1 56 18
M  V30 60 1 57 19
M  V30 61 1 58 19
M  V30 62 1 59 20
M  V30 63 1 60 20
M  V30 64 1 21 61 CFG=1
M  V30 65 1 62 22
M  V30 66 1 63 22
M  V30 67 1 64 23
M  V30 68 1 65 23
M  V30 69 1 66 25
M  V30 70 1 67 27
M  V30 71 1 68 29
M  V30 72 1 69 30
M  V30 73 1 70 32
M  V30 74 1 71 32
M  V30 75 1 4 72 CFG=3
M  V30 END BOND
M  V30 END CTAB
M  END
>  <b_m_subgroup_collapsed>  (459) 
0

>  <r_i_docking_score>  (459) 
-8.2890004840280191

>  <s_m_subgroup_title>  (459) 
glide-dock_SP_D22_pv

>  <s_m_subgroupid>  (459) 
glide-dock_SP_D22_pv

>  <Molecule ChEMBL ID>  (459) 
CHEMBL254203

>  <Standard Type>  (459) 
Ki

>  <Standard Value>  (459) 
21.7

>  <label>  (459) 
1

$$$$
CHEMBL5089348
     RDKit          3D

  0  0  0  0  0  0  0  0  0  0999 V3000
M  V30 BEGIN CTAB
M  V30 COUNTS 55 58 0 0 1
M  V30 BEGIN ATOM
M  V30 1 O 5.185493 4.572227 -13.846816 0
M  V30 2 S 6.329430 4.197861 -13.009620 0
M  V30 3 O 6.085941 3.386773 -11.812494 0
M  V30 4 C 7.175546 5.771313 -12.534919 0
M  V30 5 C 8.431855 5.602111 -11.667966 0 CFG=2
M  V30 6 C 8.151900 5.230592 -10.221859 0
M  V30 7 C 9.352178 5.763184 -9.474944 0
M  V30 8 N 9.642338 7.051887 -10.141146 0 CFG=1 CHG=1
M  V30 9 C 11.018820 7.564890 -9.936919 0
M  V30 10 C 11.135192 8.506820 -8.730453 0
M  V30 11 C 10.600972 7.932918 -7.405648 0
M  V30 12 C 10.996136 8.754655 -6.218971 0
M  V30 13 N 10.886091 10.079349 -6.252758 0
M  V30 14 O 11.272040 10.572136 -4.983629 0
M  V30 15 C 11.631111 9.514082 -4.171006 0
M  V30 16 C 12.086014 9.478645 -2.853508 0
M  V30 17 C 12.382831 8.224161 -2.297041 0
M  V30 18 F 12.885996 8.172285 -1.046898 0
M  V30 19 C 12.166721 7.037583 -3.040620 0
M  V30 20 C 11.686091 7.098584 -4.370408 0
M  V30 21 C 11.442981 8.368027 -4.941793 0
M  V30 22 C 9.238598 6.906845 -11.558639 0
M  V30 23 C 7.469339 3.249530 -14.018880 0
M  V30 24 C 8.643339 3.814655 -14.560793 0
M  V30 25 C 9.517261 3.014006 -15.320976 0
M  V30 26 C 9.220065 1.651990 -15.549177 0
M  V30 27 C 10.163454 0.766174 -16.343792 0
M  V30 28 F 11.284020 1.403361 -16.685646 0
M  V30 29 F 10.486076 -0.284645 -15.596020 0
M  V30 30 F 9.556970 0.339720 -17.451130 0
M  V30 31 C 8.031140 1.101238 -15.024703 0
M  V30 32 C 7.154699 1.898769 -14.264836 0
M  V30 33 H 7.419311 6.306326 -13.446890 0
M  V30 34 H 6.437756 6.381730 -12.009930 0
M  V30 35 H 9.085011 4.835997 -12.084803 0
M  V30 36 H 7.286043 5.772361 -9.867599 0
M  V30 37 H 7.979064 4.172348 -10.061866 0
M  V30 38 H 9.135969 5.865440 -8.412770 0
M  V30 39 H 10.183930 5.067391 -9.584799 0
M  V30 40 H 11.712859 6.733298 -9.846791 0
M  V30 41 H 11.338277 8.128083 -10.815405 0
M  V30 42 H 12.188426 8.766690 -8.610633 0
M  V30 43 H 10.620441 9.442026 -8.952101 0
M  V30 44 H 9.513072 7.867979 -7.436877 0
M  V30 45 H 10.975682 6.917406 -7.274171 0
M  V30 46 H 12.207989 10.386803 -2.286232 0
M  V30 47 H 12.380320 6.078163 -2.591792 0
M  V30 48 H 11.527938 6.191948 -4.936826 0
M  V30 49 H 10.095006 6.868675 -12.233304 0
M  V30 50 H 8.642828 7.779292 -11.831866 0
M  V30 51 H 8.887731 4.853537 -14.407467 0
M  V30 52 H 10.418736 3.451896 -15.724031 0
M  V30 53 H 7.797385 0.060211 -15.199442 0
M  V30 54 H 6.250447 1.471973 -13.855344 0
M  V30 55 H 8.985739 7.722671 -9.760728 0
M  V30 END ATOM
M  V30 BEGIN BOND
M  V30 1 2 2 1
M  V30 2 2 3 2
M  V30 3 1 4 2
M  V30 4 1 5 4
M  V30 5 1 6 5
M  V30 6 1 7 6
M  V30 7 1 8 7
M  V30 8 1 9 8
M  V30 9 1 10 9
M  V30 10 1 11 10
M  V30 11 1 12 11
M  V30 12 2 13 12
M  V30 13 1 14 13
M  V30 14 1 15 14
M  V30 15 1 16 15
M  V30 16 2 17 16
M  V30 17 1 18 17
M  V30 18 1 19 17
M  V30 19 2 20 19
M  V30 20 1 21 12
M  V30 21 2 21 15
M  V30 22 1 21 20
M  V30 23 1 22 5
M  V30 24 1 22 8
M  V30 25 1 23 2
M  V30 26 1 24 23
M  V30 27 2 25 24
M  V30 28 1 26 25
M  V30 29 1 27 26
M  V30 30 1 28 27
M  V30 31 1 29 27
M  V30 32 1 30 27
M  V30 33 2 31 26
M  V30 34 2 32 23
M  V30 35 1 32 31
M  V30 36 1 33 4
M  V30 37 1 34 4
M  V30 38 1 5 35 CFG=3
M  V30 39 1 36 6
M  V30 40 1 37 6
M  V30 41 1 38 7
M  V30 42 1 39 7
M  V30 43 1 40 9
M  V30 44 1 41 9
M  V30 45 1 42 10
M  V30 46 1 43 10
M  V30 47 1 44 11
M  V30 48 1 45 11
M  V30 49 1 46 16
M  V30 50 1 47 19
M  V30 51 1 48 20
M  V30 52 1 49 22
M  V30 53 1 50 22
M  V30 54 1 51 24
M  V30 55 1 52 25
M  V30 56 1 53 31
M  V30 57 1 54 32
M  V30 58 1 8 55 CFG=1
M  V30 END BOND
M  V30 END CTAB
M  END
>  <b_m_subgroup_collapsed>  (460) 
0

>  <r_i_docking_score>  (460) 
-8.2878109780957807

>  <s_m_subgroup_title>  (460) 
glide-dock_SP_D22_pv

>  <s_m_subgroupid>  (460) 
glide-dock_SP_D22_pv

>  <Molecule ChEMBL ID>  (460) 
CHEMBL5089348

>  <Standard Type>  (460) 
Ki

>  <Standard Value>  (460) 
95.5

>  <label>  (460) 
1

$$$$
CHEMBL4528835
     RDKit          3D

  0  0  0  0  0  0  0  0  0  0999 V3000
M  V30 BEGIN CTAB
M  V30 COUNTS 50 53 0 0 1
M  V30 BEGIN ATOM
M  V30 1 O 11.080514 4.689101 -13.745043 0
M  V30 2 C 10.115978 3.923355 -13.775267 0
M  V30 3 C 8.910527 4.239267 -12.870702 0
M  V30 4 C 9.290476 4.673689 -11.439845 0
M  V30 5 C 9.683444 6.161463 -11.308007 0
M  V30 6 N 10.095308 6.548132 -9.931324 0 CFG=1 CHG=1
M  V30 7 C 10.613228 7.943116 -9.899376 0
M  V30 8 C 11.219020 8.305820 -8.529575 0
M  V30 9 C 10.253823 8.054752 -7.382560 0 CFG=1
M  V30 10 C 10.908363 8.188872 -6.039666 0
M  V30 11 C 11.083583 9.464576 -5.457776 0
M  V30 12 C 11.593055 9.587146 -4.150434 0
M  V30 13 C 11.942755 8.432085 -3.425324 0
M  V30 14 Cl 12.486714 8.571053 -1.802494 0
M  V30 15 C 11.801786 7.160731 -4.006433 0
M  V30 16 C 11.286055 7.040632 -5.311379 0
M  V30 17 C 8.800978 8.437485 -7.474214 0
M  V30 18 C 9.207045 6.985957 -7.594779 0 CFG=1
M  V30 19 C 9.033957 6.279944 -8.925958 0
M  V30 20 C 10.081723 2.724733 -14.672366 0
M  V30 21 C 9.039457 1.765716 -14.646510 0
M  V30 22 C 9.089367 0.626760 -15.474660 0
M  V30 23 C 10.168278 0.436870 -16.354292 0
M  V30 24 F 10.217308 -0.663811 -17.142418 0
M  V30 25 C 11.198895 1.391406 -16.408665 0
M  V30 26 C 11.158119 2.522804 -15.570160 0
M  V30 27 H 8.303329 5.007754 -13.343653 0
M  V30 28 H 8.269146 3.372713 -12.772090 0
M  V30 29 H 8.418497 4.475113 -10.815526 0
M  V30 30 H 10.086128 4.035511 -11.054662 0
M  V30 31 H 10.505083 6.384202 -11.985261 0
M  V30 32 H 8.848212 6.789766 -11.623076 0
M  V30 33 H 11.386904 8.061812 -10.661088 0
M  V30 34 H 9.815927 8.637667 -10.168879 0
M  V30 35 H 12.122539 7.716157 -8.362618 0
M  V30 36 H 11.522469 9.353716 -8.522182 0
M  V30 37 H 10.792310 10.351144 -6.000098 0
M  V30 38 H 11.684910 10.560582 -3.691007 0
M  V30 39 H 12.061539 6.274771 -3.445587 0
M  V30 40 H 11.157972 6.055752 -5.738256 0
M  V30 41 H 8.278464 8.695041 -6.558357 0
M  V30 42 H 8.454490 8.954030 -8.364738 0
M  V30 43 H 8.925754 6.372661 -6.739413 0
M  V30 44 H 8.084721 6.572905 -9.345530 0
M  V30 45 H 8.979150 5.207687 -8.735836 0
M  V30 46 H 8.193692 1.853792 -13.989120 0
M  V30 47 H 8.300748 -0.109661 -15.429580 0
M  V30 48 H 12.032401 1.243013 -17.079288 0
M  V30 49 H 11.977658 3.225106 -15.618906 0
M  V30 50 H 10.873289 5.957327 -9.685128 0
M  V30 END ATOM
M  V30 BEGIN BOND
M  V30 1 2 2 1
M  V30 2 1 3 2
M  V30 3 1 4 3
M  V30 4 1 5 4
M  V30 5 1 6 5
M  V30 6 1 7 6
M  V30 7 1 8 7
M  V30 8 1 9 8
M  V30 9 1 9 10 CFG=1
M  V30 10 1 11 10
M  V30 11 2 12 11
M  V30 12 1 13 12
M  V30 13 1 14 13
M  V30 14 2 15 13
M  V30 15 2 16 10
M  V30 16 1 16 15
M  V30 17 1 17 9
M  V30 18 1 18 9
M  V30 19 1 18 17
M  V30 20 1 19 6
M  V30 21 1 19 18
M  V30 22 1 20 2
M  V30 23 1 21 20
M  V30 24 2 22 21
M  V30 25 1 23 22
M  V30 26 1 24 23
M  V30 27 2 25 23
M  V30 28 2 26 20
M  V30 29 1 26 25
M  V30 30 1 27 3
M  V30 31 1 28 3
M  V30 32 1 29 4
M  V30 33 1 30 4
M  V30 34 1 31 5
M  V30 35 1 32 5
M  V30 36 1 33 7
M  V30 37 1 34 7
M  V30 38 1 35 8
M  V30 39 1 36 8
M  V30 40 1 37 11
M  V30 41 1 38 12
M  V30 42 1 39 15
M  V30 43 1 40 16
M  V30 44 1 41 17
M  V30 45 1 42 17
M  V30 46 1 18 43 CFG=1
M  V30 47 1 44 19
M  V30 48 1 45 19
M  V30 49 1 46 21
M  V30 50 1 47 22
M  V30 51 1 48 25
M  V30 52 1 49 26
M  V30 53 1 6 50 CFG=1
M  V30 END BOND
M  V30 END CTAB
M  END
>  <b_m_subgroup_collapsed>  (461) 
0

>  <r_i_docking_score>  (461) 
-8.2861189217278994

>  <s_m_subgroup_title>  (461) 
glide-dock_SP_D22_pv

>  <s_m_subgroupid>  (461) 
glide-dock_SP_D22_pv

>  <Molecule ChEMBL ID>  (461) 
CHEMBL4528835

>  <Standard Type>  (461) 
Ki

>  <Standard Value>  (461) 
0.1585

>  <label>  (461) 
1

$$$$
CHEMBL198040
     RDKit          3D

  0  0  0  0  0  0  0  0  0  0999 V3000
M  V30 BEGIN CTAB
M  V30 COUNTS 59 63 0 0 1
M  V30 BEGIN ATOM
M  V30 1 C 5.928473 2.823160 -13.398671 0
M  V30 2 C 6.704975 2.021463 -14.252733 0
M  V30 3 C 8.066150 2.314412 -14.465485 0
M  V30 4 C 8.664803 3.414482 -13.795012 0
M  V30 5 C 7.881673 4.216454 -12.923141 0
M  V30 6 N 8.468048 5.289192 -12.231478 0
M  V30 7 C 8.790805 4.977945 -10.842807 0
M  V30 8 C 9.548882 6.138249 -10.164372 0
M  V30 9 N 8.886248 7.445510 -10.412529 0 CHG=1
M  V30 10 C 9.516378 8.614159 -9.760427 0
M  V30 11 C 9.520250 8.549127 -8.223516 0
M  V30 12 C 10.903111 8.215146 -7.628933 0
M  V30 13 C 11.113282 8.835184 -6.283192 0
M  V30 14 C 11.057228 10.173718 -6.006153 0
M  V30 15 N 11.285727 10.376940 -4.667151 0
M  V30 16 C 11.638753 9.206329 -4.057424 0
M  V30 17 C 12.085719 8.930629 -2.759333 0
M  V30 18 C 12.327909 7.598954 -2.408542 0
M  V30 19 C 12.088449 6.572186 -3.330019 0
M  V30 20 C 11.685802 6.861542 -4.644867 0
M  V30 21 C 11.461720 8.193795 -5.046599 0
M  V30 22 C 8.648506 7.689250 -11.849753 0
M  V30 23 C 7.784781 6.562184 -12.404146 0
M  V30 24 C 6.512669 3.914856 -12.735141 0
M  V30 25 C 10.146171 3.721646 -14.006966 0
M  V30 26 C 10.908167 2.547019 -14.631792 0
M  V30 27 C 10.105012 1.929240 -15.778903 0
M  V30 28 N 8.797131 1.481829 -15.326118 0
M  V30 29 H 4.885805 2.590305 -13.241044 0
M  V30 30 H 6.245904 1.179056 -14.749560 0
M  V30 31 H 7.869431 4.766753 -10.296999 0
M  V30 32 H 9.403172 4.078320 -10.802941 0
M  V30 33 H 9.620094 5.940350 -9.094774 0
M  V30 34 H 10.566695 6.185732 -10.548152 0
M  V30 35 H 10.513313 8.785753 -10.167768 0
M  V30 36 H 8.926640 9.487440 -10.040909 0
M  V30 37 H 9.220840 9.538260 -7.880785 0
M  V30 38 H 8.746774 7.884081 -7.831787 0
M  V30 39 H 11.032772 7.133838 -7.579241 0
M  V30 40 H 11.695280 8.574433 -8.287830 0
M  V30 41 H 10.869332 11.014751 -6.646477 0
M  V30 42 H 11.287286 11.286687 -4.227256 0
M  V30 43 H 12.245725 9.727673 -2.046520 0
M  V30 44 H 12.714850 7.350921 -1.442884 0
M  V30 45 H 12.281395 5.554859 -3.034048 0
M  V30 46 H 11.555902 6.057354 -5.353090 0
M  V30 47 H 8.128860 8.637613 -11.993543 0
M  V30 48 H 9.599264 7.752604 -12.379246 0
M  V30 49 H 7.583529 6.749580 -13.446891 0
M  V30 50 H 6.820436 6.555713 -11.894238 0
M  V30 51 H 5.907243 4.503491 -12.060963 0
M  V30 52 H 10.212817 4.593366 -14.658736 0
M  V30 53 H 10.621631 3.993611 -13.064260 0
M  V30 54 H 11.889624 2.871413 -14.976629 0
M  V30 55 H 11.080630 1.783546 -13.871915 0
M  V30 56 H 9.975352 2.653190 -16.584650 0
M  V30 57 H 10.644641 1.078252 -16.197046 0
M  V30 58 H 8.338416 0.727212 -15.816946 0
M  V30 59 H 7.925808 7.381475 -10.054440 0
M  V30 END ATOM
M  V30 BEGIN BOND
M  V30 1 2 2 1
M  V30 2 1 3 2
M  V30 3 2 4 3
M  V30 4 1 5 4
M  V30 5 1 6 5
M  V30 6 1 7 6
M  V30 7 1 8 7
M  V30 8 1 9 8
M  V30 9 1 10 9
M  V30 10 1 11 10
M  V30 11 1 12 11
M  V30 12 1 13 12
M  V30 13 2 14 13
M  V30 14 1 15 14
M  V30 15 1 16 15
M  V30 16 2 17 16
M  V30 17 1 18 17
M  V30 18 2 19 18
M  V30 19 1 20 19
M  V30 20 1 21 13
M  V30 21 1 21 16
M  V30 22 2 21 20
M  V30 23 1 22 9
M  V30 24 1 23 6
M  V30 25 1 23 22
M  V30 26 1 24 1
M  V30 27 2 24 5
M  V30 28 1 25 4
M  V30 29 1 26 25
M  V30 30 1 27 26
M  V30 31 1 28 3
M  V30 32 1 28 27
M  V30 33 1 29 1
M  V30 34 1 30 2
M  V30 35 1 31 7
M  V30 36 1 32 7
M  V30 37 1 33 8
M  V30 38 1 34 8
M  V30 39 1 35 10
M  V30 40 1 36 10
M  V30 41 1 37 11
M  V30 42 1 38 11
M  V30 43 1 39 12
M  V30 44 1 40 12
M  V30 45 1 41 14
M  V30 46 1 42 15
M  V30 47 1 43 17
M  V30 48 1 44 18
M  V30 49 1 45 19
M  V30 50 1 46 20
M  V30 51 1 47 22
M  V30 52 1 48 22
M  V30 53 1 49 23
M  V30 54 1 50 23
M  V30 55 1 51 24
M  V30 56 1 52 25
M  V30 57 1 53 25
M  V30 58 1 54 26
M  V30 59 1 55 26
M  V30 60 1 56 27
M  V30 61 1 57 27
M  V30 62 1 58 28
M  V30 63 1 59 9
M  V30 END BOND
M  V30 END CTAB
M  END
>  <b_m_subgroup_collapsed>  (462) 
0

>  <r_i_docking_score>  (462) 
-8.2836870273123608

>  <s_m_subgroup_title>  (462) 
glide-dock_SP_D22_pv

>  <s_m_subgroupid>  (462) 
glide-dock_SP_D22_pv

>  <Molecule ChEMBL ID>  (462) 
CHEMBL198040

>  <Standard Type>  (462) 
Ki

>  <Standard Value>  (462) 
11.3

>  <label>  (462) 
1

$$$$
CHEMBL3918282
     RDKit          3D

  0  0  0  0  0  0  0  0  0  0999 V3000
M  V30 BEGIN CTAB
M  V30 COUNTS 68 71 0 0 1
M  V30 BEGIN ATOM
M  V30 1 O 7.848336 2.510548 -15.085167 0
M  V30 2 S 9.287433 3.025501 -15.018451 0
M  V30 3 C 9.215264 4.664018 -14.150166 0
M  V30 4 C 8.843416 4.372265 -12.690852 0
M  V30 5 N 9.315416 5.435240 -11.810730 0
M  V30 6 C 8.463146 6.622333 -11.867955 0
M  V30 7 C 9.110034 7.740643 -11.024727 0
M  V30 8 N 9.285653 7.328393 -9.605598 0 CHG=1
M  V30 9 C 9.992237 8.376390 -8.822332 0
M  V30 10 C 10.072215 8.108200 -7.298203 0 CFG=2
M  V30 11 O 8.885868 8.572223 -6.702096 0
M  V30 12 C 11.260576 8.860286 -6.667412 0
M  V30 13 C 11.519968 8.546932 -5.198378 0
M  V30 14 C 11.685006 7.220850 -4.736962 0
M  V30 15 C 11.980046 6.972348 -3.381973 0
M  V30 16 C 12.117181 8.045965 -2.483806 0
M  V30 17 C 11.968622 9.367792 -2.939523 0
M  V30 18 C 11.649945 9.612292 -4.287129 0
M  V30 19 C 9.969488 6.012205 -9.539754 0
M  V30 20 C 9.290802 4.964053 -10.430263 0
M  V30 21 C 9.746001 3.582367 -16.736330 0
M  V30 22 C 9.925677 2.360815 -17.628244 0
M  V30 23 C 9.173715 2.248265 -18.817877 0
M  V30 24 C 9.300995 1.105197 -19.632126 0
M  V30 25 C 10.184678 0.072665 -19.265709 0
M  V30 26 F 10.297078 -1.027271 -20.044668 0
M  V30 27 C 10.949282 0.185214 -18.089922 0
M  V30 28 C 10.822627 1.325203 -17.274256 0
M  V30 29 C 10.951707 4.520081 -16.753345 0
M  V30 30 C 10.906264 5.680225 -17.556932 0
M  V30 31 C 11.995751 6.571972 -17.587954 0
M  V30 32 C 13.137078 6.316366 -16.808697 0
M  V30 33 F 14.180381 7.179260 -16.831572 0
M  V30 34 C 13.193149 5.160648 -16.007368 0
M  V30 35 C 12.109567 4.259180 -15.985720 0
M  V30 36 H 8.487359 5.318750 -14.627747 0
M  V30 37 H 10.189136 5.147951 -14.203863 0
M  V30 38 H 9.343390 3.448248 -12.395467 0
M  V30 39 H 7.771831 4.196070 -12.580197 0
M  V30 40 H 7.459074 6.384630 -11.510447 0
M  V30 41 H 8.362498 6.963861 -12.898048 0
M  V30 42 H 8.487040 8.634329 -11.066265 0
M  V30 43 H 10.076653 8.008965 -11.455185 0
M  V30 44 H 9.524164 9.346992 -8.997667 0
M  V30 45 H 11.001415 8.459975 -9.231283 0
M  V30 46 H 10.183166 7.054090 -7.063911 0
M  V30 47 H 8.153459 8.014345 -6.933441 0
M  V30 48 H 12.176438 8.609110 -7.202860 0
M  V30 49 H 11.124863 9.934361 -6.798977 0
M  V30 50 H 11.601526 6.385396 -5.415873 0
M  V30 51 H 12.102848 5.957050 -3.032947 0
M  V30 52 H 12.349695 7.858215 -1.447202 0
M  V30 53 H 12.084346 10.192577 -2.250532 0
M  V30 54 H 11.513772 10.623553 -4.628751 0
M  V30 55 H 11.004142 6.171077 -9.846293 0
M  V30 56 H 9.986809 5.608277 -8.530421 0
M  V30 57 H 8.269770 4.760342 -10.098801 0
M  V30 58 H 9.845802 4.027193 -10.350657 0
M  V30 59 H 8.887484 4.145679 -17.100271 0
M  V30 60 H 8.490469 3.032386 -19.109056 0
M  V30 61 H 8.719571 1.018122 -20.538033 0
M  V30 62 H 11.629756 -0.605719 -17.813538 0
M  V30 63 H 11.411773 1.390481 -16.370173 0
M  V30 64 H 10.032749 5.893171 -18.156052 0
M  V30 65 H 11.953645 7.457691 -18.204338 0
M  V30 66 H 14.073230 4.971765 -15.411004 0
M  V30 67 H 12.173579 3.375236 -15.368996 0
M  V30 68 H 8.342457 7.226278 -9.243622 0
M  V30 END ATOM
M  V30 BEGIN BOND
M  V30 1 2 2 1
M  V30 2 1 2 3 CFG=1
M  V30 3 1 4 3
M  V30 4 1 5 4
M  V30 5 1 6 5
M  V30 6 1 7 6
M  V30 7 1 8 7
M  V30 8 1 9 8
M  V30 9 1 10 9
M  V30 10 1 11 10
M  V30 11 1 12 10
M  V30 12 1 13 12
M  V30 13 2 14 13
M  V30 14 1 15 14
M  V30 15 2 16 15
M  V30 16 1 17 16
M  V30 17 1 18 13
M  V30 18 2 18 17
M  V30 19 1 19 8
M  V30 20 1 20 5
M  V30 21 1 20 19
M  V30 22 1 21 2
M  V30 23 1 22 21
M  V30 24 2 23 22
M  V30 25 1 24 23
M  V30 26 2 25 24
M  V30 27 1 26 25
M  V30 28 1 27 25
M  V30 29 1 28 22
M  V30 30 2 28 27
M  V30 31 1 29 21
M  V30 32 2 30 29
M  V30 33 1 31 30
M  V30 34 2 32 31
M  V30 35 1 33 32
M  V30 36 1 34 32
M  V30 37 1 35 29
M  V30 38 2 35 34
M  V30 39 1 36 3
M  V30 40 1 37 3
M  V30 41 1 38 4
M  V30 42 1 39 4
M  V30 43 1 40 6
M  V30 44 1 41 6
M  V30 45 1 42 7
M  V30 46 1 43 7
M  V30 47 1 44 9
M  V30 48 1 45 9
M  V30 49 1 10 46 CFG=3
M  V30 50 1 47 11
M  V30 51 1 48 12
M  V30 52 1 49 12
M  V30 53 1 50 14
M  V30 54 1 51 15
M  V30 55 1 52 16
M  V30 56 1 53 17
M  V30 57 1 54 18
M  V30 58 1 55 19
M  V30 59 1 56 19
M  V30 60 1 57 20
M  V30 61 1 58 20
M  V30 62 1 59 21
M  V30 63 1 60 23
M  V30 64 1 61 24
M  V30 65 1 62 27
M  V30 66 1 63 28
M  V30 67 1 64 30
M  V30 68 1 65 31
M  V30 69 1 66 34
M  V30 70 1 67 35
M  V30 71 1 68 8
M  V30 END BOND
M  V30 END CTAB
M  END
>  <b_m_subgroup_collapsed>  (463) 
0

>  <r_i_docking_score>  (463) 
-8.2826463886932409

>  <s_m_subgroup_title>  (463) 
glide-dock_SP_D22_pv

>  <s_m_subgroupid>  (463) 
glide-dock_SP_D22_pv

>  <Molecule ChEMBL ID>  (463) 
CHEMBL3918282

>  <Standard Type>  (463) 
Ki

>  <Standard Value>  (463) 
78.6

>  <label>  (463) 
1

$$$$
CHEMBL303556
     RDKit          3D

  0  0  0  0  0  0  0  0  0  0999 V3000
M  V30 BEGIN CTAB
M  V30 COUNTS 44 47 0 0 1
M  V30 BEGIN ATOM
M  V30 1 O 10.401006 -0.084518 -16.120846 0
M  V30 2 C 9.407121 0.420115 -15.605272 0
M  V30 3 C 9.318291 1.902267 -15.195535 0
M  V30 4 C 7.942026 1.902928 -14.576348 0
M  V30 5 C 7.380342 0.634757 -14.663221 0
M  V30 6 C 6.124797 0.333197 -14.118262 0
M  V30 7 C 5.445388 1.370057 -13.444950 0
M  V30 8 C 6.020024 2.661311 -13.319958 0
M  V30 9 C 7.286026 2.946152 -13.895329 0
M  V30 10 O 7.891201 4.174688 -13.771422 0
M  V30 11 C 7.518765 4.933196 -12.624288 0 CFG=1
M  V30 12 C 8.267363 6.279388 -12.736574 0
M  V30 13 N 8.486050 6.972052 -11.446580 0 CHG=1
M  V30 14 C 9.295991 6.225843 -10.458068 0
M  V30 15 C 9.935536 7.154747 -9.443801 0
M  V30 16 C 11.199031 7.726908 -9.703639 0
M  V30 17 C 11.809294 8.557537 -8.744104 0
M  V30 18 C 11.153900 8.837987 -7.529179 0
M  V30 19 C 9.888450 8.276161 -7.269659 0
M  V30 20 C 9.285852 7.430113 -8.221070 0
M  V30 21 C 5.989706 5.087716 -12.562370 0
M  V30 22 C 5.302022 3.718116 -12.502758 0
M  V30 23 N 8.272697 -0.227630 -15.299045 0
M  V30 24 H 9.369397 2.563889 -16.060419 0
M  V30 25 H 10.087982 2.164318 -14.469460 0
M  V30 26 H 5.705557 -0.660073 -14.193856 0
M  V30 27 H 4.485698 1.166817 -12.997892 0
M  V30 28 H 7.863511 4.376368 -11.751302 0
M  V30 29 H 7.735503 6.949087 -13.411428 0
M  V30 30 H 9.247952 6.116139 -13.185352 0
M  V30 31 H 7.591279 7.237069 -11.001509 0
M  V30 32 H 10.085987 5.666712 -10.961848 0
M  V30 33 H 8.665479 5.502937 -9.939441 0
M  V30 34 H 11.715541 7.516267 -10.629466 0
M  V30 35 H 12.787173 8.972270 -8.941667 0
M  V30 36 H 11.622258 9.478189 -6.797201 0
M  V30 37 H 9.379892 8.485214 -6.339903 0
M  V30 38 H 8.320640 6.992431 -8.006888 0
M  V30 39 H 5.686879 5.697578 -11.710639 0
M  V30 40 H 5.647340 5.614548 -13.449469 0
M  V30 41 H 4.267042 3.786763 -12.837575 0
M  V30 42 H 5.288330 3.373067 -11.468143 0
M  V30 43 H 8.086792 -1.221170 -15.446802 0
M  V30 44 H 8.976342 7.832118 -11.639124 0
M  V30 END ATOM
M  V30 BEGIN BOND
M  V30 1 2 2 1
M  V30 2 1 3 2
M  V30 3 1 4 3
M  V30 4 2 5 4
M  V30 5 1 6 5
M  V30 6 2 7 6
M  V30 7 1 8 7
M  V30 8 1 9 4
M  V30 9 2 9 8
M  V30 10 1 10 9
M  V30 11 1 11 10
M  V30 12 1 12 11
M  V30 13 1 13 12
M  V30 14 1 14 13
M  V30 15 1 15 14
M  V30 16 2 16 15
M  V30 17 1 17 16
M  V30 18 2 18 17
M  V30 19 1 19 18
M  V30 20 1 20 15
M  V30 21 2 20 19
M  V30 22 1 21 11
M  V30 23 1 22 8
M  V30 24 1 22 21
M  V30 25 1 23 2
M  V30 26 1 23 5
M  V30 27 1 24 3
M  V30 28 1 25 3
M  V30 29 1 26 6
M  V30 30 1 27 7
M  V30 31 1 11 28 CFG=1
M  V30 32 1 29 12
M  V30 33 1 30 12
M  V30 34 1 31 13
M  V30 35 1 32 14
M  V30 36 1 33 14
M  V30 37 1 34 16
M  V30 38 1 35 17
M  V30 39 1 36 18
M  V30 40 1 37 19
M  V30 41 1 38 20
M  V30 42 1 39 21
M  V30 43 1 40 21
M  V30 44 1 41 22
M  V30 45 1 42 22
M  V30 46 1 43 23
M  V30 47 1 44 13
M  V30 END BOND
M  V30 END CTAB
M  END
>  <b_m_subgroup_collapsed>  (464) 
0

>  <r_i_docking_score>  (464) 
-8.2813050601582905

>  <s_m_subgroup_title>  (464) 
glide-dock_SP_D22_pv

>  <s_m_subgroupid>  (464) 
glide-dock_SP_D22_pv

>  <Molecule ChEMBL ID>  (464) 
CHEMBL303556

>  <Standard Type>  (464) 
Ki

>  <Standard Value>  (464) 
9.3

>  <label>  (464) 
1

$$$$
CHEMBL3104648
     RDKit          3D

  0  0  0  0  0  0  0  0  0  0999 V3000
M  V30 BEGIN CTAB
M  V30 COUNTS 57 60 0 0 1
M  V30 BEGIN ATOM
M  V30 1 C 10.705124 2.938295 -14.088970 0
M  V30 2 O 11.010996 4.225030 -13.570545 0
M  V30 3 C 11.787376 5.078396 -14.326340 0
M  V30 4 C 12.484645 4.638976 -15.482955 0
M  V30 5 C 13.272655 5.526746 -16.235960 0
M  V30 6 C 13.382716 6.869953 -15.848129 0
M  V30 7 C 12.714067 7.318241 -14.695449 0
M  V30 8 C 11.919366 6.439291 -13.925731 0
M  V30 9 N 11.283800 6.985684 -12.792308 0
M  V30 10 C 12.148326 7.441962 -11.716325 0
M  V30 11 C 11.433772 8.357943 -10.705669 0
M  V30 12 N 10.087904 7.895575 -10.320458 0
M  V30 13 C 9.418824 8.908693 -9.493874 0
M  V30 14 C 9.546180 8.633567 -7.982642 0
M  V30 15 C 11.011283 8.679341 -7.505696 0 CFG=2
M  V30 16 C 11.638638 7.275616 -7.507859 0
M  V30 17 C 11.333321 6.480121 -6.238815 0
M  V30 18 C 11.555556 7.270893 -4.968681 0
M  V30 19 C 11.865635 6.578286 -3.783079 0
M  V30 20 C 12.145228 7.274580 -2.599553 0
M  V30 21 C 12.115606 8.678073 -2.593226 0
M  V30 22 N 12.486417 9.370725 -1.446877 0
M  V30 23 C 11.752668 9.375527 -3.757363 0
M  V30 24 C 11.497677 8.683097 -4.960975 0
M  V30 25 C 11.246548 9.453246 -6.203233 0
M  V30 26 O 11.286016 10.679563 -6.244347 0
M  V30 27 C 9.297160 7.620911 -11.522767 0
M  V30 28 C 9.982794 6.511430 -12.339746 0
M  V30 29 H 9.967172 2.458043 -13.447358 0
M  V30 30 H 10.274243 2.997986 -15.089752 0
M  V30 31 H 11.587031 2.298537 -14.114111 0
M  V30 32 H 12.436137 3.614630 -15.816251 0
M  V30 33 H 13.798430 5.172921 -17.111103 0
M  V30 34 H 13.985388 7.557750 -16.423105 0
M  V30 35 H 12.808983 8.353822 -14.405018 0
M  V30 36 H 12.485908 6.572411 -11.180145 0
M  V30 37 H 13.036896 7.940732 -12.103537 0
M  V30 38 H 12.092514 8.390800 -9.846618 0
M  V30 39 H 11.391797 9.383318 -11.044719 0
M  V30 40 H 9.802517 9.898377 -9.722328 0
M  V30 41 H 8.358454 8.968216 -9.733040 0
M  V30 42 H 8.950611 9.372274 -7.449234 0
M  V30 43 H 9.082234 7.676542 -7.740765 0
M  V30 44 H 11.548681 9.299103 -8.219028 0
M  V30 45 H 11.286237 6.688867 -8.353834 0
M  V30 46 H 12.706122 7.380476 -7.682800 0
M  V30 47 H 11.947798 5.579370 -6.233430 0
M  V30 48 H 10.289216 6.170714 -6.250844 0
M  V30 49 H 11.949482 5.508863 -3.792410 0
M  V30 50 H 12.435704 6.721588 -1.720700 0
M  V30 51 H 12.785713 8.849962 -0.632568 0
M  V30 52 H 12.884001 10.304835 -1.524557 0
M  V30 53 H 11.689429 10.453668 -3.724857 0
M  V30 54 H 8.304134 7.275084 -11.236207 0
M  V30 55 H 9.167796 8.526302 -12.120049 0
M  V30 56 H 9.360249 6.220217 -13.186398 0
M  V30 57 H 10.103660 5.622133 -11.718586 0
M  V30 END ATOM
M  V30 BEGIN BOND
M  V30 1 1 2 1
M  V30 2 1 3 2
M  V30 3 2 4 3
M  V30 4 1 5 4
M  V30 5 2 6 5
M  V30 6 1 7 6
M  V30 7 1 8 3
M  V30 8 2 8 7
M  V30 9 1 9 8
M  V30 10 1 10 9
M  V30 11 1 11 10
M  V30 12 1 12 11
M  V30 13 1 13 12
M  V30 14 1 14 13
M  V30 15 1 15 14
M  V30 16 1 16 15
M  V30 17 1 17 16
M  V30 18 1 18 17
M  V30 19 1 19 18
M  V30 20 2 20 19
M  V30 21 1 21 20
M  V30 22 1 22 21
M  V30 23 2 23 21
M  V30 24 2 24 18
M  V30 25 1 24 23
M  V30 26 1 25 15
M  V30 27 1 25 24
M  V30 28 2 26 25
M  V30 29 1 27 12
M  V30 30 1 28 9
M  V30 31 1 28 27
M  V30 32 1 29 1
M  V30 33 1 30 1
M  V30 34 1 31 1
M  V30 35 1 32 4
M  V30 36 1 33 5
M  V30 37 1 34 6
M  V30 38 1 35 7
M  V30 39 1 36 10
M  V30 40 1 37 10
M  V30 41 1 38 11
M  V30 42 1 39 11
M  V30 43 1 40 13
M  V30 44 1 41 13
M  V30 45 1 42 14
M  V30 46 1 43 14
M  V30 47 1 15 44 CFG=3
M  V30 48 1 45 16
M  V30 49 1 46 16
M  V30 50 1 47 17
M  V30 51 1 48 17
M  V30 52 1 49 19
M  V30 53 1 50 20
M  V30 54 1 51 22
M  V30 55 1 52 22
M  V30 56 1 53 23
M  V30 57 1 54 27
M  V30 58 1 55 27
M  V30 59 1 56 28
M  V30 60 1 57 28
M  V30 END BOND
M  V30 END CTAB
M  END
>  <b_m_subgroup_collapsed>  (465) 
0

>  <r_i_docking_score>  (465) 
-8.2804024217352108

>  <s_m_subgroup_title>  (465) 
glide-dock_SP_D22_pv

>  <s_m_subgroupid>  (465) 
glide-dock_SP_D22_pv

>  <Molecule ChEMBL ID>  (465) 
CHEMBL3104648

>  <Standard Type>  (465) 
Ki

>  <Standard Value>  (465) 
50.12

>  <label>  (465) 
1

$$$$
CHEMBL3818935
     RDKit          3D

  0  0  0  0  0  0  0  0  0  0999 V3000
M  V30 BEGIN CTAB
M  V30 COUNTS 59 63 0 0 1
M  V30 BEGIN ATOM
M  V30 1 O 11.110933 5.642107 -13.571989 0
M  V30 2 C 10.377428 4.753071 -13.998755 0
M  V30 3 N 10.685633 3.933740 -14.990854 0
M  V30 4 C 9.655261 2.956732 -15.249633 0
M  V30 5 N 8.524335 3.386568 -14.421858 0
M  V30 6 C 7.432609 2.485838 -14.247678 0
M  V30 7 C 6.304916 2.796894 -13.443563 0
M  V30 8 C 5.287851 1.853742 -13.199742 0
M  V30 9 C 5.341787 0.582039 -13.794144 0
M  V30 10 C 6.417322 0.263117 -14.638151 0
M  V30 11 C 7.441386 1.203621 -14.865582 0
M  V30 12 C 8.967052 4.438258 -13.476864 0 CFG=1
M  V30 13 C 9.027480 3.937373 -12.022544 0
M  V30 14 C 9.466531 4.991317 -11.009168 0
M  V30 15 N 8.595505 6.187406 -11.042503 0 CFG=1 CHG=1
M  V30 16 C 9.070011 7.219192 -10.088895 0
M  V30 17 C 8.980659 6.764811 -8.622544 0
M  V30 18 C 9.002855 7.954686 -7.655632 0
M  V30 19 C 10.364359 8.668660 -7.636287 0
M  V30 20 C 10.944068 8.683518 -6.275468 0
M  V30 21 N 11.074273 9.749218 -5.473908 0
M  V30 22 C 11.568330 9.189617 -4.314507 0
M  V30 23 C 11.914830 9.738825 -3.066437 0
M  V30 24 C 12.401394 8.905748 -2.037107 0
M  V30 25 C 12.485936 7.509929 -2.231933 0
M  V30 26 C 12.106258 6.935879 -3.454263 0
M  V30 27 C 11.685408 7.792460 -4.474977 0
M  V30 28 O 11.287033 7.470163 -5.749971 0
M  V30 29 C 8.468909 6.761539 -12.407492 0
M  V30 30 C 8.093109 5.717007 -13.491244 0
M  V30 31 H 11.559551 3.959487 -15.495148 0
M  V30 32 H 10.036464 1.980000 -14.948506 0
M  V30 33 H 9.394029 2.940264 -16.307297 0
M  V30 34 H 6.197668 3.738343 -12.940079 0
M  V30 35 H 4.459534 2.118903 -12.560184 0
M  V30 36 H 4.555763 -0.137356 -13.621232 0
M  V30 37 H 6.459237 -0.708419 -15.110349 0
M  V30 38 H 8.240561 0.888739 -15.517865 0
M  V30 39 H 8.023831 3.679822 -11.703289 0
M  V30 40 H 9.670662 3.055814 -11.944647 0
M  V30 41 H 9.456994 4.539279 -10.017764 0
M  V30 42 H 10.480820 5.314914 -11.198296 0
M  V30 43 H 10.096012 7.499863 -10.330999 0
M  V30 44 H 8.486488 8.128464 -10.222922 0
M  V30 45 H 8.076800 6.178247 -8.462803 0
M  V30 46 H 9.803942 6.091718 -8.379301 0
M  V30 47 H 8.215425 8.667474 -7.902589 0
M  V30 48 H 8.744122 7.589716 -6.659600 0
M  V30 49 H 11.084530 8.188665 -8.298379 0
M  V30 50 H 10.259738 9.692319 -7.987257 0
M  V30 51 H 11.793711 10.798659 -2.907825 0
M  V30 52 H 12.692185 9.342049 -1.091377 0
M  V30 53 H 12.879804 6.878830 -1.446467 0
M  V30 54 H 12.156501 5.868914 -3.613574 0
M  V30 55 H 7.713916 7.549716 -12.392561 0
M  V30 56 H 9.409603 7.255640 -12.643625 0
M  V30 57 H 8.185984 6.170694 -14.471588 0
M  V30 58 H 7.036672 5.497642 -13.400765 0
M  V30 59 H 7.661083 5.935960 -10.742313 0
M  V30 END ATOM
M  V30 BEGIN BOND
M  V30 1 2 2 1
M  V30 2 1 3 2
M  V30 3 1 4 3
M  V30 4 1 5 4
M  V30 5 1 6 5
M  V30 6 2 7 6
M  V30 7 1 8 7
M  V30 8 2 9 8
M  V30 9 1 10 9
M  V30 10 1 11 6
M  V30 11 2 11 10
M  V30 12 1 12 2
M  V30 13 1 12 5 CFG=3
M  V30 14 1 13 12
M  V30 15 1 14 13
M  V30 16 1 15 14
M  V30 17 1 16 15
M  V30 18 1 17 16
M  V30 19 1 18 17
M  V30 20 1 19 18
M  V30 21 1 20 19
M  V30 22 2 21 20
M  V30 23 1 22 21
M  V30 24 2 23 22
M  V30 25 1 24 23
M  V30 26 2 25 24
M  V30 27 1 26 25
M  V30 28 1 27 22
M  V30 29 2 27 26
M  V30 30 1 28 20
M  V30 31 1 28 27
M  V30 32 1 29 15
M  V30 33 1 30 12
M  V30 34 1 30 29
M  V30 35 1 31 3
M  V30 36 1 32 4
M  V30 37 1 33 4
M  V30 38 1 34 7
M  V30 39 1 35 8
M  V30 40 1 36 9
M  V30 41 1 37 10
M  V30 42 1 38 11
M  V30 43 1 39 13
M  V30 44 1 40 13
M  V30 45 1 41 14
M  V30 46 1 42 14
M  V30 47 1 43 16
M  V30 48 1 44 16
M  V30 49 1 45 17
M  V30 50 1 46 17
M  V30 51 1 47 18
M  V30 52 1 48 18
M  V30 53 1 49 19
M  V30 54 1 50 19
M  V30 55 1 51 23
M  V30 56 1 52 24
M  V30 57 1 53 25
M  V30 58 1 54 26
M  V30 59 1 55 29
M  V30 60 1 56 29
M  V30 61 1 57 30
M  V30 62 1 58 30
M  V30 63 1 15 59 CFG=1
M  V30 END BOND
M  V30 END CTAB
M  END
>  <b_m_subgroup_collapsed>  (466) 
0

>  <r_i_docking_score>  (466) 
-8.2779189925717205

>  <s_m_subgroup_title>  (466) 
glide-dock_SP_D22_pv

>  <s_m_subgroupid>  (466) 
glide-dock_SP_D22_pv

>  <Molecule ChEMBL ID>  (466) 
CHEMBL3818935

>  <Standard Type>  (466) 
Ki

>  <Standard Value>  (466) 
10.23

>  <label>  (466) 
1

$$$$
CHEMBL210404
     RDKit          3D

  0  0  0  0  0  0  0  0  0  0999 V3000
M  V30 BEGIN CTAB
M  V30 COUNTS 50 53 0 0 1
M  V30 BEGIN ATOM
M  V30 1 C 12.921604 7.399859 -15.234485 0
M  V30 2 O 11.922729 6.972010 -14.321089 0
M  V30 3 C 11.534974 5.645883 -14.323901 0
M  V30 4 C 12.134005 4.682751 -15.175489 0
M  V30 5 C 11.685868 3.351224 -15.185105 0
M  V30 6 C 10.655715 2.948940 -14.323019 0
M  V30 7 C 10.055042 3.888801 -13.470872 0
M  V30 8 C 10.470367 5.242890 -13.466820 0
M  V30 9 N 9.793283 6.172124 -12.646673 0
M  V30 10 C 10.513261 7.121734 -11.809341 0
M  V30 11 C 10.299067 6.827949 -10.314613 0
M  V30 12 N 8.885995 6.528452 -9.948138 0 CHG=1
M  V30 13 C 8.743124 6.094974 -8.535172 0
M  V30 14 C 9.408811 7.041625 -7.570183 0
M  V30 15 C 9.286316 8.455666 -7.490890 0
M  V30 16 N 10.043860 8.972636 -6.542034 0
M  V30 17 N 10.599056 7.918979 -5.905494 0
M  V30 18 C 11.315487 8.104458 -4.692773 0
M  V30 19 C 11.692535 6.971781 -3.933558 0
M  V30 20 C 12.284653 7.153054 -2.671365 0
M  V30 21 C 12.485784 8.461154 -2.201977 0
M  V30 22 C 12.086168 9.529360 -3.021804 0
M  V30 23 N 11.524354 9.362413 -4.233754 0
M  V30 24 C 10.279522 6.745605 -6.560875 0
M  V30 25 C 8.228283 5.568462 -10.873305 0
M  V30 26 C 8.382236 6.003027 -12.333333 0
M  V30 27 H 13.084325 8.470576 -15.110195 0
M  V30 28 H 13.872853 6.898822 -15.049518 0
M  V30 29 H 12.615767 7.233307 -16.268417 0
M  V30 30 H 12.938839 4.940962 -15.846476 0
M  V30 31 H 12.151090 2.630692 -15.842182 0
M  V30 32 H 10.324778 1.920567 -14.312992 0
M  V30 33 H 9.267284 3.543947 -12.818598 0
M  V30 34 H 10.151785 8.122907 -12.047050 0
M  V30 35 H 11.583990 7.116315 -12.008477 0
M  V30 36 H 10.682934 7.676086 -9.748703 0
M  V30 37 H 10.885960 5.968663 -10.008700 0
M  V30 38 H 9.176006 5.098075 -8.436721 0
M  V30 39 H 7.689437 5.967656 -8.298272 0
M  V30 40 H 8.694899 9.118810 -8.105998 0
M  V30 41 H 11.508807 5.965889 -4.276450 0
M  V30 42 H 12.566729 6.300585 -2.069735 0
M  V30 43 H 12.926241 8.649315 -1.234112 0
M  V30 44 H 12.202457 10.548188 -2.684866 0
M  V30 45 H 10.649876 5.786187 -6.237965 0
M  V30 46 H 8.649898 4.572557 -10.731831 0
M  V30 47 H 7.166656 5.503951 -10.646491 0
M  V30 48 H 7.877110 6.958429 -12.485398 0
M  V30 49 H 7.895478 5.298136 -13.007433 0
M  V30 50 H 8.329934 7.373844 -10.045947 0
M  V30 END ATOM
M  V30 BEGIN BOND
M  V30 1 1 2 1
M  V30 2 1 3 2
M  V30 3 2 4 3
M  V30 4 1 5 4
M  V30 5 2 6 5
M  V30 6 1 7 6
M  V30 7 1 8 3
M  V30 8 2 8 7
M  V30 9 1 9 8
M  V30 10 1 10 9
M  V30 11 1 11 10
M  V30 12 1 12 11
M  V30 13 1 13 12
M  V30 14 1 14 13
M  V30 15 1 15 14
M  V30 16 2 16 15
M  V30 17 1 17 16
M  V30 18 1 18 17
M  V30 19 2 19 18
M  V30 20 1 20 19
M  V30 21 2 21 20
M  V30 22 1 22 21
M  V30 23 1 23 18
M  V30 24 2 23 22
M  V30 25 2 24 14
M  V30 26 1 24 17
M  V30 27 1 25 12
M  V30 28 1 26 9
M  V30 29 1 26 25
M  V30 30 1 27 1
M  V30 31 1 28 1
M  V30 32 1 29 1
M  V30 33 1 30 4
M  V30 34 1 31 5
M  V30 35 1 32 6
M  V30 36 1 33 7
M  V30 37 1 34 10
M  V30 38 1 35 10
M  V30 39 1 36 11
M  V30 40 1 37 11
M  V30 41 1 38 13
M  V30 42 1 39 13
M  V30 43 1 40 15
M  V30 44 1 41 19
M  V30 45 1 42 20
M  V30 46 1 43 21
M  V30 47 1 44 22
M  V30 48 1 45 24
M  V30 49 1 46 25
M  V30 50 1 47 25
M  V30 51 1 48 26
M  V30 52 1 49 26
M  V30 53 1 50 12
M  V30 END BOND
M  V30 END CTAB
M  END
>  <b_m_subgroup_collapsed>  (467) 
0

>  <r_i_docking_score>  (467) 
-8.2763489110435806

>  <s_m_subgroup_title>  (467) 
glide-dock_SP_D22_pv

>  <s_m_subgroupid>  (467) 
glide-dock_SP_D22_pv

>  <Molecule ChEMBL ID>  (467) 
CHEMBL210404

>  <Standard Type>  (467) 
Ki

>  <Standard Value>  (467) 
31.0

>  <label>  (467) 
1

$$$$
CHEMBL2397477
     RDKit          3D

  0  0  0  0  0  0  0  0  0  0999 V3000
M  V30 BEGIN CTAB
M  V30 COUNTS 88 90 0 0 1
M  V30 BEGIN ATOM
M  V30 1 C 11.771978 8.808993 -3.517327 0
M  V30 2 C 11.287493 8.493667 -4.595118 0
M  V30 3 C 10.688004 8.186054 -5.853266 0
M  V30 4 C 10.586856 9.136656 -6.793488 0
M  V30 5 C 9.935848 8.915513 -8.143727 0
M  V30 6 C 9.708420 7.419047 -8.497942 0 CFG=2
M  V30 7 N 8.886360 7.244621 -9.747153 0 CFG=1 CHG=1
M  V30 8 C 9.294217 8.132153 -10.884658 0
M  V30 9 C 10.572450 7.700682 -11.648645 0
M  V30 10 C 11.908097 8.163995 -11.044644 0
M  V30 11 C 8.662117 5.824858 -10.150540 0
M  V30 12 C 7.895785 5.657616 -11.482247 0
M  V30 13 C 7.667036 4.190624 -11.832837 0
M  V30 14 C 7.258977 3.963894 -13.297887 0
M  V30 15 N 8.426972 4.089218 -14.163230 0
M  V30 16 C 9.234001 3.074170 -14.500878 0
M  V30 17 O 8.989686 1.895231 -14.246927 0
M  V30 18 C 10.456198 3.457119 -15.274901 0
M  V30 19 C 11.127294 4.676908 -15.028923 0
M  V30 20 C 12.257690 5.029242 -15.789511 0
M  V30 21 C 12.736873 4.163394 -16.803434 0
M  V30 22 O 13.804440 4.483244 -17.612175 0
M  V30 23 C 13.910439 5.824807 -18.085505 0
M  V30 24 C 12.883224 6.132331 -19.195152 0
M  V30 25 C 11.475993 6.508382 -18.691101 0
M  V30 26 C 10.528951 6.800446 -19.816307 0
M  V30 27 C 9.623622 5.897787 -20.434799 0
M  V30 28 N 8.972698 6.501881 -21.394688 0
M  V30 29 N 9.489054 7.760004 -21.349707 0
M  V30 30 C 9.056198 8.799471 -22.266365 0
M  V30 31 C 7.844016 9.600897 -21.755125 0
M  V30 32 C 6.604861 8.744787 -21.451693 0
M  V30 33 C 5.387514 9.597696 -21.093752 0
M  V30 34 N 10.436234 7.971533 -20.395298 0
M  V30 35 C 12.116373 2.908304 -17.004782 0
M  V30 36 O 12.653996 2.089582 -17.977573 0
M  V30 37 C 12.090530 0.798000 -18.152283 0
M  V30 38 C 10.974998 2.571027 -16.239408 0
M  V30 39 C 9.147464 6.698734 -7.250463 0
M  V30 40 C 10.144355 6.785662 -6.070377 0
M  V30 41 H 12.190059 9.092931 -2.577173 0
M  V30 42 H 10.958157 10.133670 -6.603031 0
M  V30 43 H 8.985898 9.456015 -8.152856 0
M  V30 44 H 10.599506 9.388582 -8.866036 0
M  V30 45 H 10.679881 6.965301 -8.693793 0
M  V30 46 H 8.466055 8.163044 -11.592830 0
M  V30 47 H 9.348565 9.176538 -10.594656 0
M  V30 48 H 10.611290 6.625206 -11.818780 0
M  V30 49 H 10.487338 8.129219 -12.646467 0
M  V30 50 H 12.721975 7.987062 -11.747761 0
M  V30 51 H 11.905540 9.227537 -10.811982 0
M  V30 52 H 12.157300 7.621896 -10.136592 0
M  V30 53 H 9.620352 5.307717 -10.205368 0
M  V30 54 H 8.086748 5.319716 -9.378592 0
M  V30 55 H 6.937029 6.171788 -11.446583 0
M  V30 56 H 8.448311 6.094674 -12.311348 0
M  V30 57 H 8.609513 3.678282 -11.649840 0
M  V30 58 H 6.919999 3.769596 -11.159190 0
M  V30 59 H 6.802360 2.978287 -13.409905 0
M  V30 60 H 6.497452 4.685822 -13.601932 0
M  V30 61 H 8.681501 5.016504 -14.470166 0
M  V30 62 H 10.780503 5.355828 -14.263122 0
M  V30 63 H 12.742662 5.970998 -15.584721 0
M  V30 64 H 13.887123 6.574283 -17.291178 0
M  V30 65 H 14.908887 5.903547 -18.520144 0
M  V30 66 H 13.263335 6.964043 -19.791492 0
M  V30 67 H 12.821785 5.278119 -19.870020 0
M  V30 68 H 11.059870 5.697831 -18.094788 0
M  V30 69 H 11.554170 7.371356 -18.029530 0
M  V30 70 H 9.451582 4.853516 -20.216822 0
M  V30 71 H 9.894934 9.466870 -22.455830 0
M  V30 72 H 8.813709 8.336187 -23.221386 0
M  V30 73 H 8.123773 10.150032 -20.856020 0
M  V30 74 H 7.586549 10.351999 -22.501060 0
M  V30 75 H 6.362546 8.117121 -22.309820 0
M  V30 76 H 6.813062 8.064402 -20.623991 0
M  V30 77 H 4.532373 8.974615 -20.827955 0
M  V30 78 H 5.614166 10.240786 -20.246889 0
M  V30 79 H 5.092335 10.233766 -21.928375 0
M  V30 80 H 12.682816 0.243851 -18.880993 0
M  V30 81 H 12.093987 0.222495 -17.224836 0
M  V30 82 H 11.070138 0.855558 -18.532804 0
M  V30 83 H 10.463573 1.631949 -16.391973 0
M  V30 84 H 8.191528 7.139982 -6.963636 0
M  V30 85 H 8.958798 5.644766 -7.444331 0
M  V30 86 H 11.006167 6.145853 -6.270808 0
M  V30 87 H 9.685705 6.415964 -5.151385 0
M  V30 88 H 7.936404 7.567376 -9.548624 0
M  V30 END ATOM
M  V30 BEGIN BOND
M  V30 1 3 2 1
M  V30 2 1 3 2
M  V30 3 2 4 3
M  V30 4 1 5 4
M  V30 5 1 6 5
M  V30 6 1 7 6
M  V30 7 1 8 7
M  V30 8 1 9 8
M  V30 9 1 10 9
M  V30 10 1 11 7
M  V30 11 1 12 11
M  V30 12 1 13 12
M  V30 13 1 14 13
M  V30 14 1 15 14
M  V30 15 1 16 15
M  V30 16 2 17 16
M  V30 17 1 18 16
M  V30 18 1 19 18
M  V30 19 2 20 19
M  V30 20 1 21 20
M  V30 21 1 22 21
M  V30 22 1 23 22
M  V30 23 1 24 23
M  V30 24 1 25 24
M  V30 25 1 26 25
M  V30 26 1 27 26
M  V30 27 2 28 27
M  V30 28 1 29 28
M  V30 29 1 30 29
M  V30 30 1 31 30
M  V30 31 1 32 31
M  V30 32 1 33 32
M  V30 33 2 34 26
M  V30 34 1 34 29
M  V30 35 2 35 21
M  V30 36 1 36 35
M  V30 37 1 37 36
M  V30 38 2 38 18
M  V30 39 1 38 35
M  V30 40 1 39 6
M  V30 41 1 40 3
M  V30 42 1 40 39
M  V30 43 1 41 1
M  V30 44 1 42 4
M  V30 45 1 43 5
M  V30 46 1 44 5
M  V30 47 1 6 45 CFG=3
M  V30 48 1 46 8
M  V30 49 1 47 8
M  V30 50 1 48 9
M  V30 51 1 49 9
M  V30 52 1 50 10
M  V30 53 1 51 10
M  V30 54 1 52 10
M  V30 55 1 53 11
M  V30 56 1 54 11
M  V30 57 1 55 12
M  V30 58 1 56 12
M  V30 59 1 57 13
M  V30 60 1 58 13
M  V30 61 1 59 14
M  V30 62 1 60 14
M  V30 63 1 61 15
M  V30 64 1 62 19
M  V30 65 1 63 20
M  V30 66 1 64 23
M  V30 67 1 65 23
M  V30 68 1 66 24
M  V30 69 1 67 24
M  V30 70 1 68 25
M  V30 71 1 69 25
M  V30 72 1 70 27
M  V30 73 1 71 30
M  V30 74 1 72 30
M  V30 75 1 73 31
M  V30 76 1 74 31
M  V30 77 1 75 32
M  V30 78 1 76 32
M  V30 79 1 77 33
M  V30 80 1 78 33
M  V30 81 1 79 33
M  V30 82 1 80 37
M  V30 83 1 81 37
M  V30 84 1 82 37
M  V30 85 1 83 38
M  V30 86 1 84 39
M  V30 87 1 85 39
M  V30 88 1 86 40
M  V30 89 1 87 40
M  V30 90 1 7 88 CFG=1
M  V30 END BOND
M  V30 END CTAB
M  END
>  <b_m_subgroup_collapsed>  (468) 
0

>  <r_i_docking_score>  (468) 
-8.27126249200745

>  <s_m_subgroup_title>  (468) 
glide-dock_SP_D22_pv

>  <s_m_subgroupid>  (468) 
glide-dock_SP_D22_pv

>  <Molecule ChEMBL ID>  (468) 
CHEMBL2397477

>  <Standard Type>  (468) 
Ki

>  <Standard Value>  (468) 
4.2

>  <label>  (468) 
1

$$$$
CHEMBL196370
     RDKit          3D

  0  0  0  0  0  0  0  0  0  0999 V3000
M  V30 BEGIN CTAB
M  V30 COUNTS 66 69 0 0 1
M  V30 BEGIN ATOM
M  V30 1 C 7.023529 2.247056 -14.915980 0
M  V30 2 O 8.263126 2.938859 -14.903328 0
M  V30 3 C 8.483137 3.873033 -13.909718 0
M  V30 4 C 7.518110 4.183824 -12.917747 0
M  V30 5 C 7.778054 5.156713 -11.937664 0
M  V30 6 C 9.010423 5.832405 -11.912306 0
M  V30 7 N 9.196848 6.789929 -10.876175 0
M  V30 8 C 10.337811 7.348150 -10.426820 0
M  V30 9 O 11.387733 7.373104 -11.071185 0
M  V30 10 N 10.210320 7.984275 -9.240805 0
M  V30 11 C 11.251513 8.896433 -8.757677 0
M  V30 12 C 12.085784 8.203514 -7.669475 0
M  V30 13 N 11.209747 7.691606 -6.610570 0
M  V30 14 C 11.550687 7.797803 -5.242477 0
M  V30 15 C 11.383019 6.688932 -4.385468 0
M  V30 16 C 11.748096 6.751123 -3.026383 0
M  V30 17 C 12.269029 7.940658 -2.493047 0
M  V30 18 C 12.435298 9.057275 -3.328009 0
M  V30 19 C 12.083451 8.991974 -4.689993 0
M  V30 20 O 12.260405 10.115379 -5.445209 0
M  V30 21 C 11.050041 10.753575 -5.778852 0
M  V30 22 C 10.057958 6.890673 -7.023108 0
M  V30 23 C 9.285695 7.594924 -8.159895 0
M  V30 24 C 9.969110 5.538351 -12.909479 0
M  V30 25 C 9.718743 4.571980 -13.911305 0
M  V30 26 N 10.677870 4.323906 -14.917450 0
M  V30 27 C 11.287927 2.998348 -14.912544 0
M  V30 28 C 11.934201 2.702553 -16.278856 0
M  V30 29 N 12.875090 3.783218 -16.673407 0 CHG=1
M  V30 30 C 13.568128 3.497127 -17.947630 0
M  V30 31 C 12.226731 5.118711 -16.668148 0
M  V30 32 C 11.571504 5.412153 -15.309204 0
M  V30 33 H 6.995171 1.568730 -15.768503 0
M  V30 34 H 6.891612 1.650458 -14.012689 0
M  V30 35 H 6.189528 2.942264 -15.018237 0
M  V30 36 H 6.558801 3.691662 -12.881884 0
M  V30 37 H 7.021522 5.379956 -11.197420 0
M  V30 38 H 8.367515 6.981455 -10.322367 0
M  V30 39 H 10.762428 9.772183 -8.349421 0
M  V30 40 H 11.897923 9.264035 -9.556532 0
M  V30 41 H 12.851115 8.885290 -7.303504 0
M  V30 42 H 12.629033 7.372369 -8.111119 0
M  V30 43 H 10.977186 5.772417 -4.773156 0
M  V30 44 H 11.619148 5.885375 -2.392697 0
M  V30 45 H 12.536363 8.000370 -1.448093 0
M  V30 46 H 12.826658 9.977105 -2.922348 0
M  V30 47 H 11.249657 11.372586 -6.646621 0
M  V30 48 H 10.246473 10.063402 -6.032495 0
M  V30 49 H 10.709642 11.372428 -4.953121 0
M  V30 50 H 10.409521 5.913309 -7.355955 0
M  V30 51 H 9.380358 6.720615 -6.185148 0
M  V30 52 H 8.793668 8.490558 -7.776803 0
M  V30 53 H 8.483501 6.938550 -8.493463 0
M  V30 54 H 10.910753 6.057263 -12.923418 0
M  V30 55 H 12.044723 2.973354 -14.128231 0
M  V30 56 H 10.565114 2.219910 -14.667328 0
M  V30 57 H 12.461192 1.748535 -16.247852 0
M  V30 58 H 11.154826 2.605607 -17.037264 0
M  V30 59 H 12.863308 3.465562 -18.780014 0
M  V30 60 H 14.316101 4.262203 -18.160742 0
M  V30 61 H 14.081182 2.537011 -17.899151 0
M  V30 62 H 12.962404 5.891647 -16.895435 0
M  V30 63 H 11.471417 5.157320 -17.454948 0
M  V30 64 H 11.018884 6.350933 -15.367531 0
M  V30 65 H 12.344790 5.539323 -14.549156 0
M  V30 66 H 13.589709 3.807096 -15.958775 0
M  V30 END ATOM
M  V30 BEGIN BOND
M  V30 1 1 2 1
M  V30 2 1 3 2
M  V30 3 1 4 3
M  V30 4 2 5 4
M  V30 5 1 6 5
M  V30 6 1 7 6
M  V30 7 1 8 7
M  V30 8 2 9 8
M  V30 9 1 10 8
M  V30 10 1 11 10
M  V30 11 1 12 11
M  V30 12 1 13 12
M  V30 13 1 14 13
M  V30 14 2 15 14
M  V30 15 1 16 15
M  V30 16 2 17 16
M  V30 17 1 18 17
M  V30 18 1 19 14
M  V30 19 2 19 18
M  V30 20 1 20 19
M  V30 21 1 21 20
M  V30 22 1 22 13
M  V30 23 1 23 10
M  V30 24 1 23 22
M  V30 25 2 24 6
M  V30 26 2 25 3
M  V30 27 1 25 24
M  V30 28 1 26 25
M  V30 29 1 27 26
M  V30 30 1 28 27
M  V30 31 1 29 28
M  V30 32 1 30 29
M  V30 33 1 31 29
M  V30 34 1 32 26
M  V30 35 1 32 31
M  V30 36 1 33 1
M  V30 37 1 34 1
M  V30 38 1 35 1
M  V30 39 1 36 4
M  V30 40 1 37 5
M  V30 41 1 38 7
M  V30 42 1 39 11
M  V30 43 1 40 11
M  V30 44 1 41 12
M  V30 45 1 42 12
M  V30 46 1 43 15
M  V30 47 1 44 16
M  V30 48 1 45 17
M  V30 49 1 46 18
M  V30 50 1 47 21
M  V30 51 1 48 21
M  V30 52 1 49 21
M  V30 53 1 50 22
M  V30 54 1 51 22
M  V30 55 1 52 23
M  V30 56 1 53 23
M  V30 57 1 54 24
M  V30 58 1 55 27
M  V30 59 1 56 27
M  V30 60 1 57 28
M  V30 61 1 58 28
M  V30 62 1 59 30
M  V30 63 1 60 30
M  V30 64 1 61 30
M  V30 65 1 62 31
M  V30 66 1 63 31
M  V30 67 1 64 32
M  V30 68 1 65 32
M  V30 69 1 66 29
M  V30 END BOND
M  V30 END CTAB
M  END
>  <b_m_subgroup_collapsed>  (469) 
0

>  <r_i_docking_score>  (469) 
-8.2711375946255998

>  <s_m_subgroup_title>  (469) 
glide-dock_SP_D22_pv

>  <s_m_subgroupid>  (469) 
glide-dock_SP_D22_pv

>  <Molecule ChEMBL ID>  (469) 
CHEMBL196370

>  <Standard Type>  (469) 
Ki

>  <Standard Value>  (469) 
10000.0

>  <label>  (469) 
0

$$$$
CHEMBL3220212
     RDKit          3D

  0  0  0  0  0  0  0  0  0  0999 V3000
M  V30 BEGIN CTAB
M  V30 COUNTS 53 57 0 0 1
M  V30 BEGIN ATOM
M  V30 1 C 12.424882 8.984157 -2.312725 0
M  V30 2 C 12.005616 8.054539 -3.409971 0
M  V30 3 N 12.134177 6.744132 -3.275664 0
M  V30 4 O 11.685514 6.172332 -4.482853 0
M  V30 5 C 11.284582 7.159153 -5.309071 0
M  V30 6 C 11.453839 8.337674 -4.682652 0
M  V30 7 C 11.025838 9.575667 -5.302710 0
M  V30 8 O 10.885870 10.631240 -4.705463 0
M  V30 9 C 10.737899 9.462756 -6.799267 0
M  V30 10 C 10.069577 8.143901 -7.292953 0 CFG=1
M  V30 11 C 10.052731 8.249441 -8.845932 0
M  V30 12 N 9.287724 7.237161 -9.634795 0 CFG=2 CHG=1
M  V30 13 C 10.013613 5.942385 -9.708552 0
M  V30 14 C 9.337383 4.885036 -10.596384 0
M  V30 15 C 8.999771 5.386825 -12.008238 0 CFG=2
M  V30 16 C 10.166040 5.325408 -12.967690 0
M  V30 17 C 11.242553 6.175329 -13.072286 0
M  V30 18 N 12.087043 5.728724 -14.069921 0
M  V30 19 C 11.592184 4.583954 -14.652260 0
M  V30 20 C 12.074374 3.767974 -15.691220 0
M  V30 21 C 11.343938 2.625589 -16.062698 0
M  V30 22 F 11.797834 1.823324 -17.053907 0
M  V30 23 C 10.146896 2.310493 -15.393945 0
M  V30 24 C 9.670827 3.138801 -14.358250 0
M  V30 25 C 10.377018 4.300690 -13.962142 0
M  V30 26 C 8.302696 6.749927 -11.906932 0
M  V30 27 C 9.036969 7.763573 -11.007642 0
M  V30 28 C 10.748006 6.881361 -6.673156 0
M  V30 29 H 13.286460 9.564723 -2.631644 0
M  V30 30 H 11.633625 9.689585 -2.068653 0
M  V30 31 H 12.692742 8.449882 -1.401269 0
M  V30 32 H 11.679757 9.627995 -7.323056 0
M  V30 33 H 10.086588 10.284009 -7.046692 0
M  V30 34 H 9.038594 8.166026 -6.933173 0
M  V30 35 H 11.075321 8.304466 -9.223232 0
M  V30 36 H 9.612156 9.221013 -9.078729 0
M  V30 37 H 10.129908 5.495040 -8.728420 0
M  V30 38 H 11.009537 6.172744 -10.076609 0
M  V30 39 H 8.413350 4.571489 -10.106238 0
M  V30 40 H 9.974401 3.998846 -10.655398 0
M  V30 41 H 8.245215 4.701997 -12.394402 0
M  V30 42 H 11.510531 7.056857 -12.513350 0
M  V30 43 H 12.967491 6.173630 -14.292552 0
M  V30 44 H 12.999271 4.005558 -16.194454 0
M  V30 45 H 9.594728 1.425849 -15.673841 0
M  V30 46 H 8.754278 2.873716 -13.853440 0
M  V30 47 H 8.111413 7.164739 -12.897349 0
M  V30 48 H 7.325155 6.570954 -11.462592 0
M  V30 49 H 8.462938 8.687000 -10.950530 0
M  V30 50 H 9.977398 8.062181 -11.464036 0
M  V30 51 H 10.033637 6.061039 -6.618815 0
M  V30 52 H 11.580024 6.555935 -7.298368 0
M  V30 53 H 8.371167 7.101225 -9.219430 0
M  V30 END ATOM
M  V30 BEGIN BOND
M  V30 1 1 2 1
M  V30 2 2 3 2
M  V30 3 1 4 3
M  V30 4 1 5 4
M  V30 5 1 6 2
M  V30 6 2 6 5
M  V30 7 1 7 6
M  V30 8 2 8 7
M  V30 9 1 9 7
M  V30 10 1 10 9
M  V30 11 1 11 10
M  V30 12 1 12 11
M  V30 13 1 13 12
M  V30 14 1 14 13
M  V30 15 1 15 14
M  V30 16 1 16 15
M  V30 17 2 17 16
M  V30 18 1 18 17
M  V30 19 1 19 18
M  V30 20 1 20 19
M  V30 21 2 21 20
M  V30 22 1 22 21
M  V30 23 1 23 21
M  V30 24 2 24 23
M  V30 25 1 25 16
M  V30 26 2 25 19
M  V30 27 1 25 24
M  V30 28 1 26 15
M  V30 29 1 27 12
M  V30 30 1 27 26
M  V30 31 1 28 5
M  V30 32 1 28 10
M  V30 33 1 29 1
M  V30 34 1 30 1
M  V30 35 1 31 1
M  V30 36 1 32 9
M  V30 37 1 33 9
M  V30 38 1 10 34 CFG=1
M  V30 39 1 35 11
M  V30 40 1 36 11
M  V30 41 1 37 13
M  V30 42 1 38 13
M  V30 43 1 39 14
M  V30 44 1 40 14
M  V30 45 1 15 41 CFG=3
M  V30 46 1 42 17
M  V30 47 1 43 18
M  V30 48 1 44 20
M  V30 49 1 45 23
M  V30 50 1 46 24
M  V30 51 1 47 26
M  V30 52 1 48 26
M  V30 53 1 49 27
M  V30 54 1 50 27
M  V30 55 1 51 28
M  V30 56 1 52 28
M  V30 57 1 12 53 CFG=1
M  V30 END BOND
M  V30 END CTAB
M  END
>  <b_m_subgroup_collapsed>  (470) 
0

>  <r_i_docking_score>  (470) 
-8.2680526888584396

>  <s_m_subgroup_title>  (470) 
glide-dock_SP_D22_pv

>  <s_m_subgroupid>  (470) 
glide-dock_SP_D22_pv

>  <Molecule ChEMBL ID>  (470) 
CHEMBL3220212

>  <Standard Type>  (470) 
Ki

>  <Standard Value>  (470) 
63.1

>  <label>  (470) 
1

$$$$
CHEMBL314663
     RDKit          3D

  0  0  0  0  0  0  0  0  0  0999 V3000
M  V30 BEGIN CTAB
M  V30 COUNTS 104 111 0 0 1
M  V30 BEGIN ATOM
M  V30 1 C 9.635907 3.500628 -15.811532 0
M  V30 2 C 8.675337 2.567152 -15.850735 0
M  V30 3 C 8.445036 1.555518 -14.756858 0
M  V30 4 N 7.101175 1.600240 -14.205529 0
M  V30 5 C 6.484746 2.556293 -13.446549 0
M  V30 6 C 7.046385 3.860261 -13.057744 0
M  V30 7 C 6.186729 4.969593 -12.985914 0
M  V30 8 C 6.690184 6.238404 -12.646819 0
M  V30 9 C 8.061459 6.438722 -12.395022 0
M  V30 10 O 8.485607 7.732593 -12.190008 0
M  V30 11 C 9.661494 7.950088 -11.426863 0
M  V30 12 C 9.378906 7.798219 -9.923187 0
M  V30 13 C 10.615623 8.142944 -9.080073 0
M  V30 14 N 10.317858 8.156954 -7.628207 0 CHG=1
M  V30 15 C 10.055131 6.827691 -7.021144 0
M  V30 16 C 10.842566 6.779912 -5.699333 0
M  V30 17 C 11.257672 8.221191 -5.430982 0
M  V30 18 C 11.369819 8.815038 -6.827929 0
M  V30 19 C 8.923733 5.323030 -12.415632 0
M  V30 20 C 8.411265 4.055140 -12.742970 0
M  V30 21 N 5.235376 2.232006 -13.075833 0
M  V30 22 C 4.999231 1.022651 -13.700911 0
M  V30 23 C 3.822944 0.248215 -13.846890 0
M  V30 24 C 3.841595 -0.970983 -14.544736 0
M  V30 25 C 5.042724 -1.433367 -15.106475 0
M  V30 26 C 6.196297 -0.628489 -15.049669 0
M  V30 27 C 6.167370 0.589619 -14.372486 0
M  V30 28 C 9.937048 4.449113 -16.944843 0
M  V30 29 N 11.293432 4.230232 -17.420969 0
M  V30 30 C 11.790211 3.112047 -18.013790 0
M  V30 31 C 11.009309 1.910887 -18.309628 0
M  V30 32 C 11.330642 0.689187 -17.681368 0
M  V30 33 C 10.576359 -0.471348 -17.956419 0
M  V30 34 C 9.500196 -0.439621 -18.867668 0
M  V30 35 O 8.860010 -1.641586 -19.107292 0
M  V30 36 C 7.506814 -1.668064 -19.553501 0
M  V30 37 C 6.604890 -2.026727 -18.353895 0
M  V30 38 C 5.102859 -2.120747 -18.699806 0
M  V30 39 N 4.726633 -3.412145 -19.324730 0 CHG=1
M  V30 40 C 4.803831 -4.602375 -18.449087 0
M  V30 41 C 3.819200 -5.632106 -19.025879 0
M  V30 42 C 3.059720 -4.901893 -20.138248 0
M  V30 43 C 3.361087 -3.428056 -19.881479 0
M  V30 44 C 9.188972 0.787712 -19.506670 0
M  V30 45 C 9.936275 1.954116 -19.224508 0
M  V30 46 N 13.094130 3.169835 -18.294079 0
M  V30 47 C 13.460781 4.431954 -17.868681 0
M  V30 48 C 14.713314 5.085862 -17.909788 0
M  V30 49 C 14.844207 6.401052 -17.410786 0
M  V30 50 C 13.727770 7.075836 -16.874926 0
M  V30 51 C 12.469118 6.445539 -16.826977 0
M  V30 52 C 12.348905 5.131103 -17.324560 0
M  V30 53 H 10.267682 3.586164 -14.940725 0
M  V30 54 H 8.034089 2.492745 -16.715279 0
M  V30 55 H 8.621966 0.577149 -15.199819 0
M  V30 56 H 9.180900 1.626916 -13.959022 0
M  V30 57 H 5.133992 4.856424 -13.199965 0
M  V30 58 H 6.011843 7.081236 -12.602166 0
M  V30 59 H 10.511404 7.354690 -11.749239 0
M  V30 60 H 9.960811 8.973089 -11.624912 0
M  V30 61 H 8.555699 8.466761 -9.649493 0
M  V30 62 H 9.039629 6.781535 -9.712453 0
M  V30 63 H 11.427987 7.447528 -9.282640 0
M  V30 64 H 10.965207 9.133417 -9.368114 0
M  V30 65 H 8.980275 6.726952 -6.843987 0
M  V30 66 H 10.357600 5.997145 -7.671043 0
M  V30 67 H 10.257895 6.350273 -4.880100 0
M  V30 68 H 11.741608 6.167161 -5.825714 0
M  V30 69 H 10.484531 8.743661 -4.869326 0
M  V30 70 H 12.183199 8.298418 -4.859804 0
M  V30 71 H 12.349439 8.578889 -7.247542 0
M  V30 72 H 11.256199 9.899915 -6.834726 0
M  V30 73 H 9.976351 5.402646 -12.214837 0
M  V30 74 H 9.101240 3.231454 -12.708909 0
M  V30 75 H 2.885267 0.608369 -13.447210 0
M  V30 76 H 2.934118 -1.551458 -14.638418 0
M  V30 77 H 5.078231 -2.390103 -15.605241 0
M  V30 78 H 7.116227 -0.967440 -15.505431 0
M  V30 79 H 9.235969 4.316483 -17.768015 0
M  V30 80 H 9.829146 5.470837 -16.589869 0
M  V30 81 H 12.151558 0.647914 -16.984415 0
M  V30 82 H 10.828094 -1.398150 -17.459883 0
M  V30 83 H 7.153655 -0.737847 -20.001497 0
M  V30 84 H 7.416704 -2.436556 -20.326548 0
M  V30 85 H 6.954703 -2.949862 -17.866495 0
M  V30 86 H 6.740637 -1.232051 -17.609966 0
M  V30 87 H 4.499186 -1.971424 -17.806063 0
M  V30 88 H 4.835190 -1.306160 -19.372011 0
M  V30 89 H 5.824424 -4.991169 -18.392782 0
M  V30 90 H 4.489304 -4.336186 -17.440491 0
M  V30 91 H 4.331677 -6.515219 -19.411982 0
M  V30 92 H 3.129979 -5.964368 -18.246098 0
M  V30 93 H 3.448832 -5.194080 -21.114363 0
M  V30 94 H 1.991184 -5.114226 -20.120632 0
M  V30 95 H 2.665090 -3.049204 -19.128084 0
M  V30 96 H 3.288004 -2.811855 -20.779757 0
M  V30 97 H 8.407884 0.860429 -20.246361 0
M  V30 98 H 9.691041 2.881839 -19.719673 0
M  V30 99 H 15.565681 4.573788 -18.330360 0
M  V30 100 H 15.804462 6.898428 -17.445539 0
M  V30 101 H 13.833253 8.086525 -16.505217 0
M  V30 102 H 11.614925 6.965370 -16.414963 0
M  V30 103 H 9.470295 8.692321 -7.496059 0
M  V30 104 H 5.344483 -3.572327 -20.107746 0
M  V30 END ATOM
M  V30 BEGIN BOND
M  V30 1 2 2 1
M  V30 2 1 3 2
M  V30 3 1 4 3
M  V30 4 1 5 4
M  V30 5 1 6 5
M  V30 6 1 7 6
M  V30 7 2 8 7
M  V30 8 1 9 8
M  V30 9 1 10 9
M  V30 10 1 11 10
M  V30 11 1 12 11
M  V30 12 1 13 12
M  V30 13 1 14 13
M  V30 14 1 15 14
M  V30 15 1 16 15
M  V30 16 1 17 16
M  V30 17 1 18 14
M  V30 18 1 18 17
M  V30 19 2 19 9
M  V30 20 2 20 6
M  V30 21 1 20 19
M  V30 22 2 21 5
M  V30 23 1 22 21
M  V30 24 2 23 22
M  V30 25 1 24 23
M  V30 26 2 25 24
M  V30 27 1 26 25
M  V30 28 1 27 4
M  V30 29 1 27 22
M  V30 30 2 27 26
M  V30 31 1 28 1
M  V30 32 1 29 28
M  V30 33 1 30 29
M  V30 34 1 31 30
M  V30 35 1 32 31
M  V30 36 2 33 32
M  V30 37 1 34 33
M  V30 38 1 35 34
M  V30 39 1 36 35
M  V30 40 1 37 36
M  V30 41 1 38 37
M  V30 42 1 39 38
M  V30 43 1 40 39
M  V30 44 1 41 40
M  V30 45 1 42 41
M  V30 46 1 43 39
M  V30 47 1 43 42
M  V30 48 2 44 34
M  V30 49 2 45 31
M  V30 50 1 45 44
M  V30 51 2 46 30
M  V30 52 1 47 46
M  V30 53 2 48 47
M  V30 54 1 49 48
M  V30 55 2 50 49
M  V30 56 1 51 50
M  V30 57 1 52 29
M  V30 58 1 52 47
M  V30 59 2 52 51
M  V30 60 1 53 1
M  V30 61 1 54 2
M  V30 62 1 55 3
M  V30 63 1 56 3
M  V30 64 1 57 7
M  V30 65 1 58 8
M  V30 66 1 59 11
M  V30 67 1 60 11
M  V30 68 1 61 12
M  V30 69 1 62 12
M  V30 70 1 63 13
M  V30 71 1 64 13
M  V30 72 1 65 15
M  V30 73 1 66 15
M  V30 74 1 67 16
M  V30 75 1 68 16
M  V30 76 1 69 17
M  V30 77 1 70 17
M  V30 78 1 71 18
M  V30 79 1 72 18
M  V30 80 1 73 19
M  V30 81 1 74 20
M  V30 82 1 75 23
M  V30 83 1 76 24
M  V30 84 1 77 25
M  V30 85 1 78 26
M  V30 86 1 79 28
M  V30 87 1 80 28
M  V30 88 1 81 32
M  V30 89 1 82 33
M  V30 90 1 83 36
M  V30 91 1 84 36
M  V30 92 1 85 37
M  V30 93 1 86 37
M  V30 94 1 87 38
M  V30 95 1 88 38
M  V30 96 1 89 40
M  V30 97 1 90 40
M  V30 98 1 91 41
M  V30 99 1 92 41
M  V30 100 1 93 42
M  V30 101 1 94 42
M  V30 102 1 95 43
M  V30 103 1 96 43
M  V30 104 1 97 44
M  V30 105 1 98 45
M  V30 106 1 99 48
M  V30 107 1 100 49
M  V30 108 1 101 50
M  V30 109 1 102 51
M  V30 110 1 103 14
M  V30 111 1 104 39
M  V30 END BOND
M  V30 END CTAB
M  END
>  <b_m_subgroup_collapsed>  (471) 
0

>  <r_i_docking_score>  (471) 
-8.2668972342632099

>  <s_m_subgroup_title>  (471) 
glide-dock_SP_D22_pv

>  <s_m_subgroupid>  (471) 
glide-dock_SP_D22_pv

>  <Molecule ChEMBL ID>  (471) 
CHEMBL314663

>  <Standard Type>  (471) 
Ki

>  <Standard Value>  (471) 
56.0

>  <label>  (471) 
1

$$$$
CHEMBL485918
     RDKit          3D

  0  0  0  0  0  0  0  0  0  0999 V3000
M  V30 BEGIN CTAB
M  V30 COUNTS 65 68 0 0 1
M  V30 BEGIN ATOM
M  V30 1 C 6.103964 -0.973800 -14.473583 0
M  V30 2 O 5.419600 -0.006718 -13.691917 0
M  V30 3 C 5.945272 1.265515 -13.638837 0
M  V30 4 C 5.316466 2.171104 -12.759791 0
M  V30 5 C 5.783844 3.490879 -12.623707 0
M  V30 6 C 6.903526 3.912644 -13.362754 0
M  V30 7 C 7.549371 3.021374 -14.240092 0
M  V30 8 C 8.764123 3.495659 -15.011847 0
M  V30 9 C 10.094873 3.065648 -14.378442 0
M  V30 10 C 11.248472 3.848724 -14.988340 0
M  V30 11 C 11.866452 3.377368 -16.165752 0
M  V30 12 C 12.885931 4.130381 -16.776478 0
M  V30 13 C 13.295942 5.351827 -16.211391 0
M  V30 14 C 12.686346 5.822250 -15.033923 0
M  V30 15 C 11.655114 5.077101 -14.414024 0
M  V30 16 O 10.992007 5.485930 -13.277991 0
M  V30 17 C 11.304897 6.732688 -12.678273 0
M  V30 18 C 10.294090 6.881964 -11.531135 0
M  V30 19 C 10.254495 8.268931 -10.874848 0
M  V30 20 C 9.287945 8.304048 -9.676815 0
M  V30 21 N 9.948847 7.938152 -8.401182 0 CFG=2 CHG=1
M  V30 22 C 9.066089 7.191722 -7.474469 0
M  V30 23 C 9.921853 6.573884 -6.362830 0
M  V30 24 C 10.885675 7.544647 -5.724789 0
M  V30 25 C 11.475170 7.228848 -4.484518 0
M  V30 26 C 12.330601 8.153365 -3.856096 0
M  V30 27 C 12.623017 9.371902 -4.497055 0
M  V30 28 C 12.069470 9.674563 -5.758268 0
M  V30 29 C 11.194029 8.759007 -6.375329 0
M  V30 30 C 10.540745 9.105436 -7.704335 0
M  V30 31 C 7.063939 1.705228 -14.391074 0
M  V30 32 H 5.661559 -1.955934 -14.307492 0
M  V30 33 H 6.026727 -0.748985 -15.537607 0
M  V30 34 H 7.154751 -1.031134 -14.193124 0
M  V30 35 H 4.485183 1.842095 -12.163236 0
M  V30 36 H 5.301074 4.167709 -11.934587 0
M  V30 37 H 7.268294 4.920534 -13.238116 0
M  V30 38 H 8.729589 4.585976 -15.049124 0
M  V30 39 H 8.708210 3.145378 -16.045200 0
M  V30 40 H 10.251193 1.994917 -14.509081 0
M  V30 41 H 10.069721 3.227396 -13.301187 0
M  V30 42 H 11.551417 2.444213 -16.608608 0
M  V30 43 H 13.358420 3.768342 -17.678738 0
M  V30 44 H 14.084120 5.926210 -16.676748 0
M  V30 45 H 13.029712 6.757532 -14.619487 0
M  V30 46 H 12.328393 6.738644 -12.299788 0
M  V30 47 H 11.205045 7.545530 -13.396754 0
M  V30 48 H 9.297421 6.664124 -11.920948 0
M  V30 49 H 10.485347 6.118954 -10.774646 0
M  V30 50 H 11.253733 8.610198 -10.594684 0
M  V30 51 H 9.888854 8.966872 -11.627199 0
M  V30 52 H 8.811322 9.281910 -9.589245 0
M  V30 53 H 8.490557 7.595611 -9.882593 0
M  V30 54 H 8.312731 7.863874 -7.054789 0
M  V30 55 H 8.527241 6.398445 -7.994924 0
M  V30 56 H 10.523592 5.772251 -6.776119 0
M  V30 57 H 9.278354 6.172354 -5.584085 0
M  V30 58 H 11.246498 6.293690 -3.993925 0
M  V30 59 H 12.770799 7.928421 -2.896024 0
M  V30 60 H 13.290219 10.073622 -4.021766 0
M  V30 61 H 12.314620 10.610522 -6.240995 0
M  V30 62 H 11.245645 9.629617 -8.352625 0
M  V30 63 H 9.716971 9.772738 -7.457240 0
M  V30 64 H 7.573113 1.044098 -15.075563 0
M  V30 65 H 10.698610 7.304833 -8.637996 0
M  V30 END ATOM
M  V30 BEGIN BOND
M  V30 1 1 2 1
M  V30 2 1 3 2
M  V30 3 2 4 3
M  V30 4 1 5 4
M  V30 5 2 6 5
M  V30 6 1 7 6
M  V30 7 1 8 7
M  V30 8 1 9 8
M  V30 9 1 10 9
M  V30 10 2 11 10
M  V30 11 1 12 11
M  V30 12 2 13 12
M  V30 13 1 14 13
M  V30 14 1 15 10
M  V30 15 2 15 14
M  V30 16 1 16 15
M  V30 17 1 17 16
M  V30 18 1 18 17
M  V30 19 1 19 18
M  V30 20 1 20 19
M  V30 21 1 21 20
M  V30 22 1 22 21
M  V30 23 1 23 22
M  V30 24 1 24 23
M  V30 25 2 25 24
M  V30 26 1 26 25
M  V30 27 2 27 26
M  V30 28 1 28 27
M  V30 29 1 29 24
M  V30 30 2 29 28
M  V30 31 1 30 21
M  V30 32 1 30 29
M  V30 33 1 31 3
M  V30 34 2 31 7
M  V30 35 1 32 1
M  V30 36 1 33 1
M  V30 37 1 34 1
M  V30 38 1 35 4
M  V30 39 1 36 5
M  V30 40 1 37 6
M  V30 41 1 38 8
M  V30 42 1 39 8
M  V30 43 1 40 9
M  V30 44 1 41 9
M  V30 45 1 42 11
M  V30 46 1 43 12
M  V30 47 1 44 13
M  V30 48 1 45 14
M  V30 49 1 46 17
M  V30 50 1 47 17
M  V30 51 1 48 18
M  V30 52 1 49 18
M  V30 53 1 50 19
M  V30 54 1 51 19
M  V30 55 1 52 20
M  V30 56 1 53 20
M  V30 57 1 54 22
M  V30 58 1 55 22
M  V30 59 1 56 23
M  V30 60 1 57 23
M  V30 61 1 58 25
M  V30 62 1 59 26
M  V30 63 1 60 27
M  V30 64 1 61 28
M  V30 65 1 62 30
M  V30 66 1 63 30
M  V30 67 1 64 31
M  V30 68 1 21 65 CFG=3
M  V30 END BOND
M  V30 END CTAB
M  END
>  <b_m_subgroup_collapsed>  (472) 
0

>  <r_i_docking_score>  (472) 
-8.2663592024764796

>  <s_m_subgroup_title>  (472) 
glide-dock_SP_D22_pv

>  <s_m_subgroupid>  (472) 
glide-dock_SP_D22_pv

>  <Molecule ChEMBL ID>  (472) 
CHEMBL485918

>  <Standard Type>  (472) 
Ki

>  <Standard Value>  (472) 
1000000.0

>  <label>  (472) 
0

$$$$
CHEMBL432713
     RDKit          3D

  0  0  0  0  0  0  0  0  0  0999 V3000
M  V30 BEGIN CTAB
M  V30 COUNTS 66 69 0 0 1
M  V30 BEGIN ATOM
M  V30 1 O 9.500690 5.474677 -9.995623 0
M  V30 2 C 10.052114 6.572348 -10.086514 0
M  V30 3 C 10.404251 7.435261 -8.976709 0
M  V30 4 C 10.515888 6.917321 -7.738793 0
M  V30 5 C 10.886064 7.654047 -6.523282 0
M  V30 6 C 10.908285 9.066170 -6.464798 0
M  V30 7 C 11.297153 9.722071 -5.281711 0
M  V30 8 C 11.682418 8.970533 -4.155407 0
M  V30 9 Cl 12.086019 9.772295 -2.691966 0
M  V30 10 C 11.686018 7.564410 -4.209751 0
M  V30 11 Cl 12.110535 6.628966 -2.821473 0
M  V30 12 C 11.286009 6.915663 -5.390330 0
M  V30 13 N 10.486491 7.078963 -11.249512 0
M  V30 14 C 10.499653 6.349558 -12.511287 0
M  V30 15 C 11.764474 6.687872 -13.332815 0
M  V30 16 C 11.777898 6.221939 -14.808382 0
M  V30 17 C 11.953029 4.716337 -15.091100 0
M  V30 18 C 10.846935 3.835797 -14.492163 0
M  V30 19 N 10.502167 2.662549 -15.335237 0 CFG=2 CHG=1
M  V30 20 C 9.323832 2.954046 -16.202291 0
M  V30 21 C 8.863779 1.737395 -17.022289 0
M  V30 22 C 8.597134 0.503014 -16.145027 0 CFG=2
M  V30 23 C 7.315300 0.586516 -15.338134 0
M  V30 24 C 7.026237 1.398113 -14.265636 0
M  V30 25 N 5.758584 1.120275 -13.793788 0
M  V30 26 C 5.149240 0.172317 -14.582070 0
M  V30 27 C 3.853692 -0.369111 -14.563505 0
M  V30 28 C 3.492956 -1.291792 -15.556210 0
M  V30 29 C 4.426138 -1.683929 -16.529297 0
M  V30 30 O 4.086009 -2.627675 -17.446877 0
M  V30 31 C 5.712144 -1.118521 -16.549488 0
M  V30 32 C 6.110838 -0.171525 -15.578625 0
M  V30 33 C 9.858102 0.220681 -15.308455 0
M  V30 34 C 10.333313 1.443159 -14.504098 0
M  V30 35 H 10.587062 8.484038 -9.155440 0
M  V30 36 H 10.320731 5.862442 -7.596294 0
M  V30 37 H 10.610871 9.661590 -7.314131 0
M  V30 38 H 11.286139 10.801216 -5.235968 0
M  V30 39 H 11.285686 5.836104 -5.418641 0
M  V30 40 H 10.920217 7.989577 -11.235142 0
M  V30 41 H 9.579380 6.572493 -13.046857 0
M  V30 42 H 10.480247 5.282368 -12.299993 0
M  V30 43 H 12.646323 6.302919 -12.821332 0
M  V30 44 H 11.882626 7.772151 -13.341187 0
M  V30 45 H 12.601781 6.738188 -15.303159 0
M  V30 46 H 10.886024 6.572302 -15.320838 0
M  V30 47 H 12.926902 4.377603 -14.734583 0
M  V30 48 H 11.975221 4.590678 -16.174448 0
M  V30 49 H 9.942168 4.419790 -14.323026 0
M  V30 50 H 11.179856 3.512670 -13.504622 0
M  V30 51 H 9.573056 3.774028 -16.877459 0
M  V30 52 H 8.491739 3.306636 -15.593475 0
M  V30 53 H 9.640656 1.495187 -17.749025 0
M  V30 54 H 7.974804 1.984751 -17.603596 0
M  V30 55 H 8.491318 -0.342744 -16.825388 0
M  V30 56 H 7.607238 2.165785 -13.783292 0
M  V30 57 H 5.339230 1.603910 -13.012449 0
M  V30 58 H 3.127387 -0.055908 -13.828012 0
M  V30 59 H 2.494662 -1.690966 -15.588454 0
M  V30 60 H 3.475458 -3.276756 -17.077812 0
M  V30 61 H 6.412618 -1.430668 -17.308704 0
M  V30 62 H 9.689124 -0.627680 -14.646937 0
M  V30 63 H 10.664325 -0.082503 -15.977988 0
M  V30 64 H 11.285923 1.215018 -14.026758 0
M  V30 65 H 9.641963 1.658958 -13.695527 0
M  V30 66 H 11.288830 2.480090 -15.942483 0
M  V30 END ATOM
M  V30 BEGIN BOND
M  V30 1 2 2 1
M  V30 2 1 3 2
M  V30 3 2 4 3
M  V30 4 1 5 4
M  V30 5 1 6 5
M  V30 6 2 7 6
M  V30 7 1 8 7
M  V30 8 1 9 8
M  V30 9 2 10 8
M  V30 10 1 11 10
M  V30 11 2 12 5
M  V30 12 1 12 10
M  V30 13 1 13 2
M  V30 14 1 14 13
M  V30 15 1 15 14
M  V30 16 1 16 15
M  V30 17 1 17 16
M  V30 18 1 18 17
M  V30 19 1 19 18
M  V30 20 1 20 19
M  V30 21 1 21 20
M  V30 22 1 22 21
M  V30 23 1 23 22
M  V30 24 2 24 23
M  V30 25 1 25 24
M  V30 26 1 26 25
M  V30 27 1 27 26
M  V30 28 2 28 27
M  V30 29 1 29 28
M  V30 30 1 30 29
M  V30 31 2 31 29
M  V30 32 1 32 23
M  V30 33 2 32 26
M  V30 34 1 32 31
M  V30 35 1 33 22
M  V30 36 1 34 19
M  V30 37 1 34 33
M  V30 38 1 35 3
M  V30 39 1 36 4
M  V30 40 1 37 6
M  V30 41 1 38 7
M  V30 42 1 39 12
M  V30 43 1 40 13
M  V30 44 1 41 14
M  V30 45 1 42 14
M  V30 46 1 43 15
M  V30 47 1 44 15
M  V30 48 1 45 16
M  V30 49 1 46 16
M  V30 50 1 47 17
M  V30 51 1 48 17
M  V30 52 1 49 18
M  V30 53 1 50 18
M  V30 54 1 51 20
M  V30 55 1 52 20
M  V30 56 1 53 21
M  V30 57 1 54 21
M  V30 58 1 22 55 CFG=3
M  V30 59 1 56 24
M  V30 60 1 57 25
M  V30 61 1 58 27
M  V30 62 1 59 28
M  V30 63 1 60 30
M  V30 64 1 61 31
M  V30 65 1 62 33
M  V30 66 1 63 33
M  V30 67 1 64 34
M  V30 68 1 65 34
M  V30 69 1 19 66 CFG=3
M  V30 END BOND
M  V30 END CTAB
M  END
>  <b_m_subgroup_collapsed>  (473) 
0

>  <r_i_docking_score>  (473) 
-8.2654794472285893

>  <s_m_subgroup_title>  (473) 
glide-dock_SP_D22_pv

>  <s_m_subgroupid>  (473) 
glide-dock_SP_D22_pv

>  <Molecule ChEMBL ID>  (473) 
CHEMBL432713

>  <Standard Type>  (473) 
Ki

>  <Standard Value>  (473) 
15.85

>  <label>  (473) 
1

$$$$
CHEMBL4279397
     RDKit          3D

  0  0  0  0  0  0  0  0  0  0999 V3000
M  V30 BEGIN CTAB
M  V30 COUNTS 61 64 0 0 1
M  V30 BEGIN ATOM
M  V30 1 C 10.897401 5.947568 -7.331110 0
M  V30 2 C 11.051541 7.469996 -7.181865 0 CFG=1
M  V30 3 C 11.291035 7.957057 -5.740296 0
M  V30 4 C 11.182170 9.329806 -5.412697 0
M  V30 5 C 11.426055 9.772615 -4.099937 0
M  V30 6 C 11.851578 8.868748 -3.109937 0
M  V30 7 F 12.114340 9.304824 -1.856113 0
M  V30 8 C 11.985648 7.506057 -3.422035 0
M  V30 9 C 11.685689 7.052399 -4.719476 0
M  V30 10 N 12.018271 7.950103 -8.149263 0
M  V30 11 C 11.426416 8.363912 -9.274739 0
M  V30 12 O 12.004635 8.572330 -10.336914 0
M  V30 13 N 10.105953 8.473125 -9.041328 0
M  V30 14 C 9.104979 8.896261 -10.021984 0
M  V30 15 C 9.066396 8.010781 -11.301780 0 CFG=2
M  V30 16 O 8.085999 8.516230 -12.197985 0
M  V30 17 C 8.769751 6.530142 -10.969431 0
M  V30 18 N 8.171426 5.832178 -12.130717 0 CHG=1
M  V30 19 C 9.145400 5.092217 -12.968946 0
M  V30 20 C 8.452721 4.535192 -14.226265 0
M  V30 21 N 7.309459 3.687021 -13.846156 0
M  V30 22 C 7.083725 2.407441 -14.247061 0
M  V30 23 O 6.085246 1.773981 -13.908983 0
M  V30 24 C 8.087315 1.713945 -15.118454 0
M  V30 25 C 9.390252 1.444597 -14.646225 0
M  V30 26 C 10.294136 0.715911 -15.442619 0
M  V30 27 C 9.903275 0.248910 -16.711666 0
M  V30 28 C 8.601690 0.506867 -17.183725 0
M  V30 29 C 7.692992 1.229398 -16.384569 0
M  V30 30 C 6.321551 4.412875 -13.030911 0
M  V30 31 C 6.978518 5.023214 -11.781157 0
M  V30 32 C 9.808758 8.085215 -7.796808 0
M  V30 33 O 8.734107 8.177640 -7.213376 0
M  V30 34 H 10.026745 5.631634 -6.761436 0
M  V30 35 H 10.727556 5.645185 -8.366010 0
M  V30 36 H 11.772578 5.387023 -6.999976 0
M  V30 37 H 10.891080 10.053263 -6.160441 0
M  V30 38 H 11.284959 10.812917 -3.851704 0
M  V30 39 H 12.300897 6.805268 -2.663181 0
M  V30 40 H 11.790136 5.996725 -4.912997 0
M  V30 41 H 13.011950 7.797894 -8.059958 0
M  V30 42 H 9.285905 9.924287 -10.246782 0
M  V30 43 H 8.126675 8.971871 -9.552855 0
M  V30 44 H 10.011921 8.069499 -11.840270 0
M  V30 45 H 7.276623 8.555728 -11.687812 0
M  V30 46 H 9.673326 6.019597 -10.632619 0
M  V30 47 H 8.087828 6.484005 -10.119781 0
M  V30 48 H 9.958061 5.759426 -13.257378 0
M  V30 49 H 9.587025 4.278275 -12.391129 0
M  V30 50 H 8.087005 5.373262 -14.818814 0
M  V30 51 H 9.185556 4.035549 -14.857042 0
M  V30 52 H 9.695538 1.781416 -13.667023 0
M  V30 53 H 11.284432 0.504988 -15.072816 0
M  V30 54 H 10.598474 -0.313690 -17.317852 0
M  V30 55 H 8.294859 0.137019 -18.151035 0
M  V30 56 H 6.687413 1.398621 -16.741959 0
M  V30 57 H 5.869712 5.197901 -13.636324 0
M  V30 58 H 5.488996 3.787331 -12.707150 0
M  V30 59 H 7.265604 4.235384 -11.081469 0
M  V30 60 H 6.252214 5.661582 -11.276502 0
M  V30 61 H 7.823624 6.601150 -12.691508 0
M  V30 END ATOM
M  V30 BEGIN BOND
M  V30 1 1 2 1 CFG=1
M  V30 2 1 3 2
M  V30 3 1 4 3
M  V30 4 2 5 4
M  V30 5 1 6 5
M  V30 6 1 7 6
M  V30 7 2 8 6
M  V30 8 2 9 3
M  V30 9 1 9 8
M  V30 10 1 10 2
M  V30 11 1 11 10
M  V30 12 2 12 11
M  V30 13 1 13 11
M  V30 14 1 14 13
M  V30 15 1 15 14
M  V30 16 1 16 15
M  V30 17 1 17 15
M  V30 18 1 18 17
M  V30 19 1 19 18
M  V30 20 1 20 19
M  V30 21 1 21 20
M  V30 22 1 22 21
M  V30 23 2 23 22
M  V30 24 1 24 22
M  V30 25 2 25 24
M  V30 26 1 26 25
M  V30 27 2 27 26
M  V30 28 1 28 27
M  V30 29 1 29 24
M  V30 30 2 29 28
M  V30 31 1 30 21
M  V30 32 1 31 18
M  V30 33 1 31 30
M  V30 34 1 32 2
M  V30 35 1 32 13
M  V30 36 2 33 32
M  V30 37 1 34 1
M  V30 38 1 35 1
M  V30 39 1 36 1
M  V30 40 1 37 4
M  V30 41 1 38 5
M  V30 42 1 39 8
M  V30 43 1 40 9
M  V30 44 1 41 10
M  V30 45 1 42 14
M  V30 46 1 43 14
M  V30 47 1 15 44 CFG=3
M  V30 48 1 45 16
M  V30 49 1 46 17
M  V30 50 1 47 17
M  V30 51 1 48 19
M  V30 52 1 49 19
M  V30 53 1 50 20
M  V30 54 1 51 20
M  V30 55 1 52 25
M  V30 56 1 53 26
M  V30 57 1 54 27
M  V30 58 1 55 28
M  V30 59 1 56 29
M  V30 60 1 57 30
M  V30 61 1 58 30
M  V30 62 1 59 31
M  V30 63 1 60 31
M  V30 64 1 61 18
M  V30 END BOND
M  V30 END CTAB
M  END
>  <b_m_subgroup_collapsed>  (474) 
0

>  <r_i_docking_score>  (474) 
-8.2649403427731496

>  <s_m_subgroup_title>  (474) 
glide-dock_SP_D22_pv

>  <s_m_subgroupid>  (474) 
glide-dock_SP_D22_pv

>  <Molecule ChEMBL ID>  (474) 
CHEMBL4279397

>  <Standard Type>  (474) 
Ki

>  <Standard Value>  (474) 
10080.0

>  <label>  (474) 
0

$$$$
CHEMBL2112912
     RDKit          3D

  0  0  0  0  0  0  0  0  0  0999 V3000
M  V30 BEGIN CTAB
M  V30 COUNTS 45 48 0 0 1
M  V30 BEGIN ATOM
M  V30 1 C 9.299932 7.088944 -11.356879 0
M  V30 2 C 9.068513 5.768574 -11.464069 0
M  V30 3 C 9.128848 5.078049 -12.754951 0
M  V30 4 C 8.110115 4.160629 -13.074408 0
M  V30 5 C 8.199214 3.393402 -14.248297 0
M  V30 6 C 9.287086 3.573429 -15.125617 0
M  V30 7 C 10.288387 4.517498 -14.824577 0
M  V30 8 C 10.214131 5.268756 -13.636074 0
M  V30 9 C 8.874545 4.924476 -10.220333 0
M  V30 10 C 9.356203 5.612413 -8.945309 0
M  V30 11 N 8.886040 7.015515 -8.880744 0 CFG=1 CHG=1
M  V30 12 C 9.145619 7.667657 -7.572257 0
M  V30 13 C 10.618878 7.540895 -7.118967 0
M  V30 14 C 10.947008 8.383090 -5.934656 0
M  V30 15 C 10.886018 9.751660 -5.887697 0
M  V30 16 N 11.286119 10.172646 -4.637547 0
M  V30 17 C 11.684775 9.110558 -3.867297 0
M  V30 18 N 12.172607 9.169763 -2.601780 0
M  V30 19 C 12.428675 7.967796 -2.050829 0
M  V30 20 C 12.193228 6.731795 -2.688386 0
M  V30 21 C 11.689680 6.724411 -4.004771 0
M  V30 22 C 11.427056 7.952521 -4.647914 0
M  V30 23 C 9.330860 7.845060 -10.038081 0
M  V30 24 H 9.488517 7.676653 -12.244152 0
M  V30 25 H 7.274650 4.011744 -12.405681 0
M  V30 26 H 7.431146 2.670365 -14.480567 0
M  V30 27 H 9.353201 2.989943 -16.031683 0
M  V30 28 H 11.122253 4.653978 -15.496950 0
M  V30 29 H 11.003333 5.966184 -13.395366 0
M  V30 30 H 7.832608 4.612865 -10.148593 0
M  V30 31 H 9.483121 4.030738 -10.347938 0
M  V30 32 H 9.010092 5.056269 -8.073014 0
M  V30 33 H 10.446935 5.586661 -8.934247 0
M  V30 34 H 8.849204 8.715460 -7.644068 0
M  V30 35 H 8.491153 7.222845 -6.819787 0
M  V30 36 H 10.844650 6.501160 -6.882034 0
M  V30 37 H 11.294559 7.811271 -7.929894 0
M  V30 38 H 10.585103 10.462329 -6.642535 0
M  V30 39 H 11.315891 11.139286 -4.350071 0
M  V30 40 H 12.830567 7.992262 -1.047907 0
M  V30 41 H 12.401114 5.801197 -2.179500 0
M  V30 42 H 11.507381 5.790554 -4.515698 0
M  V30 43 H 10.348427 8.206401 -9.897396 0
M  V30 44 H 8.689949 8.723792 -10.116975 0
M  V30 45 H 7.871645 6.975082 -8.971557 0
M  V30 END ATOM
M  V30 BEGIN BOND
M  V30 1 2 2 1
M  V30 2 1 3 2
M  V30 3 2 4 3
M  V30 4 1 5 4
M  V30 5 2 6 5
M  V30 6 1 7 6
M  V30 7 1 8 3
M  V30 8 2 8 7
M  V30 9 1 9 2
M  V30 10 1 10 9
M  V30 11 1 11 10
M  V30 12 1 12 11
M  V30 13 1 13 12
M  V30 14 1 14 13
M  V30 15 2 15 14
M  V30 16 1 16 15
M  V30 17 1 17 16
M  V30 18 2 18 17
M  V30 19 1 19 18
M  V30 20 2 20 19
M  V30 21 1 21 20
M  V30 22 1 22 14
M  V30 23 1 22 17
M  V30 24 2 22 21
M  V30 25 1 23 1
M  V30 26 1 23 11
M  V30 27 1 24 1
M  V30 28 1 25 4
M  V30 29 1 26 5
M  V30 30 1 27 6
M  V30 31 1 28 7
M  V30 32 1 29 8
M  V30 33 1 30 9
M  V30 34 1 31 9
M  V30 35 1 32 10
M  V30 36 1 33 10
M  V30 37 1 34 12
M  V30 38 1 35 12
M  V30 39 1 36 13
M  V30 40 1 37 13
M  V30 41 1 38 15
M  V30 42 1 39 16
M  V30 43 1 40 19
M  V30 44 1 41 20
M  V30 45 1 42 21
M  V30 46 1 43 23
M  V30 47 1 44 23
M  V30 48 1 11 45 CFG=3
M  V30 END BOND
M  V30 END CTAB
M  END
>  <b_m_subgroup_collapsed>  (475) 
0

>  <r_i_docking_score>  (475) 
-8.2636234578797794

>  <s_m_subgroup_title>  (475) 
glide-dock_SP_D22_pv

>  <s_m_subgroupid>  (475) 
glide-dock_SP_D22_pv

>  <Molecule ChEMBL ID>  (475) 
CHEMBL2112912

>  <Standard Type>  (475) 
Ki

>  <Standard Value>  (475) 
21.0

>  <label>  (475) 
1

$$$$
CHEMBL345357
     RDKit          3D

  0  0  0  0  0  0  0  0  0  0999 V3000
M  V30 BEGIN CTAB
M  V30 COUNTS 47 50 0 0 1
M  V30 BEGIN ATOM
M  V30 1 O 7.150599 -0.227764 -14.691328 0
M  V30 2 C 7.942744 0.714321 -15.380513 0
M  V30 3 C 8.027267 2.038972 -14.646512 0
M  V30 4 C 9.285123 2.669858 -14.461210 0
M  V30 5 C 9.388029 3.845485 -13.751262 0
M  V30 6 C 8.218348 4.420351 -13.186519 0
M  V30 7 C 7.940361 5.540210 -12.445956 0
M  V30 8 C 8.881149 6.636835 -12.036730 0
M  V30 9 N 8.886078 6.998734 -10.594699 0 CHG=1
M  V30 10 C 9.210093 5.882226 -9.667576 0
M  V30 11 C 9.273471 6.350660 -8.194113 0
M  V30 12 N 10.136471 7.526289 -8.031276 0
M  V30 13 C 10.661588 7.824726 -6.748305 0
M  V30 14 C 10.740556 9.150962 -6.246909 0
M  V30 15 C 11.285393 9.423723 -4.975841 0
M  V30 16 C 11.753695 8.372470 -4.169263 0
M  V30 17 Cl 12.407266 8.695059 -2.605638 0
M  V30 18 C 11.686008 7.052325 -4.644626 0
M  V30 19 C 11.161493 6.789793 -5.925041 0
M  V30 20 C 9.801414 8.631688 -8.920763 0
M  V30 21 C 9.768000 8.171864 -10.381408 0
M  V30 22 C 6.533918 5.466918 -12.246771 0
M  V30 23 N 5.956837 4.427860 -12.808540 0
M  V30 24 N 6.991332 3.763430 -13.407232 0
M  V30 25 C 6.886304 2.612698 -14.125981 0
M  V30 26 H 7.285186 -1.086368 -15.080462 0
M  V30 27 H 8.940539 0.294392 -15.512641 0
M  V30 28 H 7.526127 0.875542 -16.375275 0
M  V30 29 H 10.185009 2.218430 -14.867882 0
M  V30 30 H 10.350637 4.323190 -13.607553 0
M  V30 31 H 9.899747 6.378359 -12.330254 0
M  V30 32 H 8.625381 7.529278 -12.610069 0
M  V30 33 H 8.463587 5.093291 -9.766111 0
M  V30 34 H 10.167815 5.447255 -9.952258 0
M  V30 35 H 8.271444 6.613069 -7.852258 0
M  V30 36 H 9.588426 5.511205 -7.578366 0
M  V30 37 H 10.381543 9.991486 -6.816355 0
M  V30 38 H 11.326735 10.440787 -4.614794 0
M  V30 39 H 12.051017 6.238015 -4.035278 0
M  V30 40 H 11.172439 5.772466 -6.272238 0
M  V30 41 H 8.837450 9.052468 -8.628740 0
M  V30 42 H 10.546652 9.422820 -8.849112 0
M  V30 43 H 10.781837 7.924094 -10.700992 0
M  V30 44 H 9.429228 8.992626 -11.012181 0
M  V30 45 H 5.917803 6.172199 -11.707355 0
M  V30 46 H 5.897298 2.178545 -14.225790 0
M  V30 47 H 7.933163 7.309697 -10.362276 0
M  V30 END ATOM
M  V30 BEGIN BOND
M  V30 1 1 2 1
M  V30 2 1 3 2
M  V30 3 1 4 3
M  V30 4 2 5 4
M  V30 5 1 6 5
M  V30 6 2 7 6
M  V30 7 1 8 7
M  V30 8 1 9 8
M  V30 9 1 10 9
M  V30 10 1 11 10
M  V30 11 1 12 11
M  V30 12 1 13 12
M  V30 13 1 14 13
M  V30 14 2 15 14
M  V30 15 1 16 15
M  V30 16 1 17 16
M  V30 17 2 18 16
M  V30 18 2 19 13
M  V30 19 1 19 18
M  V30 20 1 20 12
M  V30 21 1 21 9
M  V30 22 1 21 20
M  V30 23 1 22 7
M  V30 24 2 23 22
M  V30 25 1 24 6
M  V30 26 1 24 23
M  V30 27 2 25 3
M  V30 28 1 25 24
M  V30 29 1 26 1
M  V30 30 1 27 2
M  V30 31 1 28 2
M  V30 32 1 29 4
M  V30 33 1 30 5
M  V30 34 1 31 8
M  V30 35 1 32 8
M  V30 36 1 33 10
M  V30 37 1 34 10
M  V30 38 1 35 11
M  V30 39 1 36 11
M  V30 40 1 37 14
M  V30 41 1 38 15
M  V30 42 1 39 18
M  V30 43 1 40 19
M  V30 44 1 41 20
M  V30 45 1 42 20
M  V30 46 1 43 21
M  V30 47 1 44 21
M  V30 48 1 45 22
M  V30 49 1 46 25
M  V30 50 1 47 9
M  V30 END BOND
M  V30 END CTAB
M  END
>  <b_m_subgroup_collapsed>  (476) 
0

>  <r_i_docking_score>  (476) 
-8.2622380331816903

>  <s_m_subgroup_title>  (476) 
glide-dock_SP_D22_pv

>  <s_m_subgroupid>  (476) 
glide-dock_SP_D22_pv

>  <Molecule ChEMBL ID>  (476) 
CHEMBL345357

>  <Standard Type>  (476) 
Ki

>  <Standard Value>  (476) 
22000.0

>  <label>  (476) 
0

$$$$
CHEMBL4476163
     RDKit          3D

  0  0  0  0  0  0  0  0  0  0999 V3000
M  V30 BEGIN CTAB
M  V30 COUNTS 70 74 0 0 1
M  V30 BEGIN ATOM
M  V30 1 C 11.610389 10.972329 -5.881217 0
M  V30 2 O 10.885979 9.776879 -5.784795 0
M  V30 3 C 11.318641 8.896824 -4.828799 0
M  V30 4 C 11.860915 9.307323 -3.585104 0
M  V30 5 C 12.307614 8.352517 -2.653290 0
M  V30 6 C 12.225201 6.983546 -2.962873 0
M  V30 7 C 11.686022 6.579237 -4.197559 0
M  V30 8 C 11.207971 7.523418 -5.123844 0
M  V30 9 N 10.612350 7.088489 -6.318588 0
M  V30 10 C 9.235005 7.469100 -6.626791 0
M  V30 11 C 9.131939 8.214992 -7.970984 0
M  V30 12 C 9.878287 7.484080 -9.110256 0
M  V30 13 C 9.747813 8.243073 -10.452763 0
M  V30 14 C 9.219363 7.220005 -11.463851 0
M  V30 15 N 8.486021 6.247924 -10.640068 0 CFG=1 CHG=1
M  V30 16 C 8.082973 4.981927 -11.291828 0
M  V30 17 C 6.859662 5.173106 -12.207006 0
M  V30 18 C 6.297322 3.845906 -12.739605 0
M  V30 19 S 7.441551 3.058004 -13.910298 0
M  V30 20 C 6.545554 1.575871 -14.271633 0
M  V30 21 N 5.686006 0.972266 -13.446868 0
M  V30 22 N 5.149524 -0.068209 -14.176668 0
M  V30 23 C 5.717070 0.000461 -15.387769 0
M  V30 24 C 5.296783 -0.831372 -16.509882 0
M  V30 25 C 5.286016 -2.235249 -16.396950 0
M  V30 26 C 4.886022 -3.027672 -17.490078 0
M  V30 27 C 4.468416 -2.422432 -18.690855 0
M  V30 28 C 4.466933 -1.019864 -18.806168 0
M  V30 29 C 4.886483 -0.227683 -17.720366 0
M  V30 30 N 6.651025 0.972500 -15.470660 0
M  V30 31 C 7.504568 1.336223 -16.589865 0
M  V30 32 C 9.268677 6.091678 -9.411087 0
M  V30 33 C 11.344915 7.372470 -8.652973 0
M  V30 34 C 11.450626 6.527781 -7.366688 0
M  V30 35 H 11.402927 11.432026 -6.840588 0
M  V30 36 H 11.286021 11.651093 -5.091133 0
M  V30 37 H 12.686827 10.801373 -5.846864 0
M  V30 38 H 11.924021 10.350394 -3.317548 0
M  V30 39 H 12.711681 8.673694 -1.704081 0
M  V30 40 H 12.564915 6.241921 -2.254347 0
M  V30 41 H 11.605810 5.534613 -4.429236 0
M  V30 42 H 8.829509 8.107491 -5.846864 0
M  V30 43 H 8.615944 6.572484 -6.628242 0
M  V30 44 H 9.542084 9.218691 -7.859644 0
M  V30 45 H 8.086023 8.363948 -8.218233 0
M  V30 46 H 10.684489 8.692497 -10.784864 0
M  V30 47 H 9.023345 9.054093 -10.359780 0
M  V30 48 H 10.049698 6.724998 -11.970060 0
M  V30 49 H 8.579262 7.677928 -12.218870 0
M  V30 50 H 7.812716 4.268066 -10.512137 0
M  V30 51 H 8.926837 4.550080 -11.831574 0
M  V30 52 H 7.107203 5.830167 -13.041162 0
M  V30 53 H 6.073070 5.679322 -11.644422 0
M  V30 54 H 5.351368 4.023421 -13.252670 0
M  V30 55 H 6.086020 3.171117 -11.909113 0
M  V30 56 H 5.591628 -2.709013 -15.475074 0
M  V30 57 H 4.870545 -4.103895 -17.394382 0
M  V30 58 H 4.142178 -3.034846 -19.518579 0
M  V30 59 H 4.141790 -0.553812 -19.725025 0
M  V30 60 H 4.883869 0.848203 -17.816847 0
M  V30 61 H 8.491696 1.626020 -16.228901 0
M  V30 62 H 7.626867 0.490706 -17.267170 0
M  V30 63 H 7.061386 2.172240 -17.130655 0
M  V30 64 H 8.641075 5.695981 -8.613295 0
M  V30 65 H 10.055427 5.359054 -9.600459 0
M  V30 66 H 11.958381 6.972326 -9.457175 0
M  V30 67 H 11.747596 8.368170 -8.457602 0
M  V30 68 H 12.486021 6.476282 -7.046864 0
M  V30 69 H 11.140522 5.498703 -7.544053 0
M  V30 70 H 7.625176 6.737072 -10.362916 0
M  V30 END ATOM
M  V30 BEGIN BOND
M  V30 1 1 2 1
M  V30 2 1 3 2
M  V30 3 2 4 3
M  V30 4 1 5 4
M  V30 5 2 6 5
M  V30 6 1 7 6
M  V30 7 1 8 3
M  V30 8 2 8 7
M  V30 9 1 9 8
M  V30 10 1 10 9
M  V30 11 1 11 10
M  V30 12 1 12 11
M  V30 13 1 13 12
M  V30 14 1 14 13
M  V30 15 1 15 14
M  V30 16 1 16 15
M  V30 17 1 17 16
M  V30 18 1 18 17
M  V30 19 1 19 18
M  V30 20 1 20 19
M  V30 21 2 21 20
M  V30 22 1 22 21
M  V30 23 2 23 22
M  V30 24 1 24 23
M  V30 25 2 25 24
M  V30 26 1 26 25
M  V30 27 2 27 26
M  V30 28 1 28 27
M  V30 29 1 29 24
M  V30 30 2 29 28
M  V30 31 1 30 20
M  V30 32 1 30 23
M  V30 33 1 31 30
M  V30 34 1 32 12
M  V30 35 1 32 15
M  V30 36 1 33 12
M  V30 37 1 34 9
M  V30 38 1 34 33
M  V30 39 1 35 1
M  V30 40 1 36 1
M  V30 41 1 37 1
M  V30 42 1 38 4
M  V30 43 1 39 5
M  V30 44 1 40 6
M  V30 45 1 41 7
M  V30 46 1 42 10
M  V30 47 1 43 10
M  V30 48 1 44 11
M  V30 49 1 45 11
M  V30 50 1 46 13
M  V30 51 1 47 13
M  V30 52 1 48 14
M  V30 53 1 49 14
M  V30 54 1 50 16
M  V30 55 1 51 16
M  V30 56 1 52 17
M  V30 57 1 53 17
M  V30 58 1 54 18
M  V30 59 1 55 18
M  V30 60 1 56 25
M  V30 61 1 57 26
M  V30 62 1 58 27
M  V30 63 1 59 28
M  V30 64 1 60 29
M  V30 65 1 61 31
M  V30 66 1 62 31
M  V30 67 1 63 31
M  V30 68 1 64 32
M  V30 69 1 65 32
M  V30 70 1 66 33
M  V30 71 1 67 33
M  V30 72 1 68 34
M  V30 73 1 69 34
M  V30 74 1 15 70 CFG=1
M  V30 END BOND
M  V30 END CTAB
M  END
>  <b_m_subgroup_collapsed>  (477) 
0

>  <r_i_docking_score>  (477) 
-8.2602342998519998

>  <s_m_subgroup_title>  (477) 
glide-dock_SP_D22_pv

>  <s_m_subgroupid>  (477) 
glide-dock_SP_D22_pv

>  <Molecule ChEMBL ID>  (477) 
CHEMBL4476163

>  <Standard Type>  (477) 
Ki

>  <Standard Value>  (477) 
21098.0

>  <label>  (477) 
0

$$$$
CHEMBL104273
     RDKit          3D

  0  0  0  0  0  0  0  0  0  0999 V3000
M  V30 BEGIN CTAB
M  V30 COUNTS 58 61 0 0 1
M  V30 BEGIN ATOM
M  V30 1 C 12.178234 9.567633 -2.859698 0
M  V30 2 C 11.685702 8.896129 -4.122499 0
M  V30 3 C 11.051801 9.633717 -5.146892 0
M  V30 4 C 10.502357 8.967465 -6.264369 0
M  V30 5 C 10.603225 7.561826 -6.375580 0
M  V30 6 C 9.912564 6.786184 -7.493071 0
M  V30 7 N 9.943527 7.430414 -8.831519 0 CFG=2 CHG=1
M  V30 8 C 9.042254 6.749377 -9.786455 0
M  V30 9 C 8.886097 7.607022 -11.051168 0
M  V30 10 C 10.219844 7.803762 -11.778209 0 CFG=2
M  V30 11 C 10.606262 6.528651 -12.562878 0
M  V30 12 C 11.686251 6.684631 -13.652778 0
M  V30 13 O 12.410075 7.680732 -13.615061 0
M  V30 14 N 11.756554 5.794782 -14.681228 0
M  V30 15 C 11.101992 4.535004 -14.814059 0
M  V30 16 C 10.486063 3.708474 -13.845924 0
M  V30 17 C 9.905516 2.489032 -14.254560 0
M  V30 18 C 9.963041 2.079747 -15.604666 0
M  V30 19 C 10.608787 2.889155 -16.561802 0
M  V30 20 C 11.169319 4.106733 -16.137085 0
M  V30 21 C 11.924352 5.078473 -16.989080 0
M  V30 22 C 12.337919 6.183128 -15.988974 0 CFG=2
M  V30 23 C 13.861243 6.386544 -15.952563 0
M  V30 24 C 11.263069 8.339281 -10.757788 0
M  V30 25 C 11.296853 7.564954 -9.425032 0
M  V30 26 C 11.285485 6.844995 -5.371378 0
M  V30 27 C 11.810658 7.500859 -4.245261 0
M  V30 28 F 12.413121 6.783782 -3.266395 0
M  V30 29 H 11.962070 10.632724 -2.860756 0
M  V30 30 H 11.686964 9.132963 -1.988431 0
M  V30 31 H 13.250804 9.415295 -2.744814 0
M  V30 32 H 10.945209 10.705331 -5.059669 0
M  V30 33 H 9.979719 9.539917 -7.015593 0
M  V30 34 H 8.874380 6.654670 -7.181947 0
M  V30 35 H 10.340586 5.785172 -7.569305 0
M  V30 36 H 8.081258 6.573332 -9.317974 0
M  V30 37 H 9.428423 5.758975 -10.030879 0
M  V30 38 H 8.485898 8.583658 -10.775713 0
M  V30 39 H 8.143575 7.162508 -11.716159 0
M  V30 40 H 10.041382 8.572213 -12.526600 0
M  V30 41 H 9.705474 6.170992 -13.062029 0
M  V30 42 H 10.885584 5.772560 -11.850039 0
M  V30 43 H 10.446083 3.955506 -12.800286 0
M  V30 44 H 9.422974 1.857067 -13.522406 0
M  V30 45 H 9.521626 1.139451 -15.901603 0
M  V30 46 H 10.675975 2.577632 -17.593832 0
M  V30 47 H 12.780970 4.583552 -17.447805 0
M  V30 48 H 11.282129 5.467284 -17.780109 0
M  V30 49 H 11.871264 7.117192 -16.308121 0
M  V30 50 H 14.268424 6.479282 -16.959944 0
M  V30 51 H 14.105647 7.309250 -15.430742 0
M  V30 52 H 14.369107 5.558392 -15.457631 0
M  V30 53 H 12.263947 8.370791 -11.187143 0
M  V30 54 H 11.017115 9.372540 -10.526321 0
M  V30 55 H 11.977326 8.057945 -8.729731 0
M  V30 56 H 11.686074 6.572216 -9.609803 0
M  V30 57 H 11.370210 5.772714 -5.430059 0
M  V30 58 H 9.564447 8.357939 -8.709111 0
M  V30 END ATOM
M  V30 BEGIN BOND
M  V30 1 1 2 1
M  V30 2 1 3 2
M  V30 3 2 4 3
M  V30 4 1 5 4
M  V30 5 1 6 5
M  V30 6 1 7 6
M  V30 7 1 8 7
M  V30 8 1 9 8
M  V30 9 1 10 9
M  V30 10 1 11 10
M  V30 11 1 12 11
M  V30 12 2 13 12
M  V30 13 1 14 12
M  V30 14 1 15 14
M  V30 15 2 16 15
M  V30 16 1 17 16
M  V30 17 2 18 17
M  V30 18 1 19 18
M  V30 19 1 20 15
M  V30 20 2 20 19
M  V30 21 1 21 20
M  V30 22 1 22 14
M  V30 23 1 22 21
M  V30 24 1 23 22
M  V30 25 1 24 10
M  V30 26 1 25 7
M  V30 27 1 25 24
M  V30 28 2 26 5
M  V30 29 2 27 2
M  V30 30 1 27 26
M  V30 31 1 28 27
M  V30 32 1 29 1
M  V30 33 1 30 1
M  V30 34 1 31 1
M  V30 35 1 32 3
M  V30 36 1 33 4
M  V30 37 1 34 6
M  V30 38 1 35 6
M  V30 39 1 36 8
M  V30 40 1 37 8
M  V30 41 1 38 9
M  V30 42 1 39 9
M  V30 43 1 10 40 CFG=3
M  V30 44 1 41 11
M  V30 45 1 42 11
M  V30 46 1 43 16
M  V30 47 1 44 17
M  V30 48 1 45 18
M  V30 49 1 46 19
M  V30 50 1 47 21
M  V30 51 1 48 21
M  V30 52 1 22 49 CFG=3
M  V30 53 1 50 23
M  V30 54 1 51 23
M  V30 55 1 52 23
M  V30 56 1 53 24
M  V30 57 1 54 24
M  V30 58 1 55 25
M  V30 59 1 56 25
M  V30 60 1 57 26
M  V30 61 1 7 58 CFG=1
M  V30 END BOND
M  V30 END CTAB
M  END
>  <b_m_subgroup_collapsed>  (478) 
0

>  <r_i_docking_score>  (478) 
-8.2587209525516396

>  <s_m_subgroup_title>  (478) 
glide-dock_SP_D22_pv

>  <s_m_subgroupid>  (478) 
glide-dock_SP_D22_pv

>  <Molecule ChEMBL ID>  (478) 
CHEMBL104273

>  <Standard Type>  (478) 
Ki

>  <Standard Value>  (478) 
23.0

>  <label>  (478) 
1

$$$$
CHEMBL425208
     RDKit          3D

  0  0  0  0  0  0  0  0  0  0999 V3000
M  V30 BEGIN CTAB
M  V30 COUNTS 56 60 0 0 1
M  V30 BEGIN ATOM
M  V30 1 C 9.401466 0.751581 -15.902235 0
M  V30 2 C 8.708360 1.443410 -14.714773 0 CFG=2
M  V30 3 C 7.190918 1.564598 -14.971087 0
M  V30 4 C 6.486113 2.373349 -13.879520 0
M  V30 5 O 5.389621 2.026741 -13.445265 0
M  V30 6 N 7.129154 3.452376 -13.416213 0
M  V30 7 C 8.500095 3.741863 -13.653434 0
M  V30 8 C 9.057796 4.949506 -13.164669 0
M  V30 9 C 8.214774 5.942520 -12.378232 0
M  V30 10 C 8.113080 5.610107 -10.870483 0
M  V30 11 N 9.300187 5.874025 -10.048309 0
M  V30 12 C 9.708591 7.281242 -10.102095 0
M  V30 13 C 10.986102 7.445239 -9.265760 0
M  V30 14 N 10.748229 7.137362 -7.854760 0
M  V30 15 C 10.849910 8.118674 -6.867884 0
M  V30 16 N 10.661308 9.373787 -7.088792 0
M  V30 17 S 11.047906 10.377536 -5.847238 0
M  V30 18 O 12.394303 10.973449 -6.246654 0
M  V30 19 C 11.430565 9.028187 -4.774432 0
M  V30 20 C 11.832372 9.120184 -3.433685 0
M  V30 21 C 12.091823 7.914585 -2.755334 0
M  V30 22 C 11.965756 6.683050 -3.436869 0
M  V30 23 C 11.573956 6.637413 -4.797087 0
M  V30 24 C 11.285998 7.838117 -5.465335 0
M  V30 25 C 10.124215 5.833590 -7.688352 0
M  V30 26 C 8.930237 5.619927 -8.648359 0
M  V30 27 C 10.419715 5.228149 -13.396455 0
M  V30 28 C 11.227473 4.303717 -14.082274 0
M  V30 29 F 12.539188 4.571979 -14.282180 0
M  V30 30 C 10.682992 3.088658 -14.536795 0
M  V30 31 C 9.317448 2.794592 -14.323913 0
M  V30 32 H 10.433361 0.487583 -15.674021 0
M  V30 33 H 8.892579 -0.178018 -16.159128 0
M  V30 34 H 9.398251 1.385267 -16.788748 0
M  V30 35 H 8.841658 0.794603 -13.847718 0
M  V30 36 H 6.735499 0.576724 -15.053568 0
M  V30 37 H 7.011589 2.074111 -15.918627 0
M  V30 38 H 6.640143 4.038741 -12.756090 0
M  V30 39 H 7.207898 5.957600 -12.795342 0
M  V30 40 H 8.574100 6.954126 -12.554400 0
M  V30 41 H 7.830711 4.563035 -10.756046 0
M  V30 42 H 7.286173 6.172218 -10.461200 0
M  V30 43 H 8.912223 7.940464 -9.749986 0
M  V30 44 H 9.946446 7.575810 -11.121298 0
M  V30 45 H 11.380784 8.454437 -9.390344 0
M  V30 46 H 11.743837 6.776059 -9.660348 0
M  V30 47 H 11.932173 10.076702 -2.940436 0
M  V30 48 H 12.397046 7.933601 -1.719311 0
M  V30 49 H 12.183669 5.771569 -2.905548 0
M  V30 50 H 11.513082 5.705822 -5.321013 0
M  V30 51 H 10.876925 5.063648 -7.847529 0
M  V30 52 H 9.755055 5.765773 -6.666461 0
M  V30 53 H 8.108582 6.274752 -8.352529 0
M  V30 54 H 8.564665 4.597745 -8.544490 0
M  V30 55 H 10.855975 6.146072 -13.031156 0
M  V30 56 H 11.338495 2.385804 -15.027425 0
M  V30 END ATOM
M  V30 BEGIN BOND
M  V30 1 1 2 1
M  V30 2 1 3 2
M  V30 3 1 4 3
M  V30 4 2 5 4
M  V30 5 1 6 4
M  V30 6 1 7 6
M  V30 7 2 8 7
M  V30 8 1 9 8
M  V30 9 1 10 9
M  V30 10 1 11 10
M  V30 11 1 12 11
M  V30 12 1 13 12
M  V30 13 1 14 13
M  V30 14 1 15 14
M  V30 15 2 16 15
M  V30 16 1 17 16 CFG=3
M  V30 17 2 18 17
M  V30 18 1 19 17
M  V30 19 2 20 19
M  V30 20 1 21 20
M  V30 21 2 22 21
M  V30 22 1 23 22
M  V30 23 1 24 15
M  V30 24 1 24 19
M  V30 25 2 24 23
M  V30 26 1 25 14
M  V30 27 1 26 11
M  V30 28 1 26 25
M  V30 29 1 27 8
M  V30 30 2 28 27
M  V30 31 1 29 28
M  V30 32 1 30 28
M  V30 33 1 31 2
M  V30 34 1 31 7
M  V30 35 2 31 30
M  V30 36 1 32 1
M  V30 37 1 33 1
M  V30 38 1 34 1
M  V30 39 1 2 35 CFG=1
M  V30 40 1 36 3
M  V30 41 1 37 3
M  V30 42 1 38 6
M  V30 43 1 39 9
M  V30 44 1 40 9
M  V30 45 1 41 10
M  V30 46 1 42 10
M  V30 47 1 43 12
M  V30 48 1 44 12
M  V30 49 1 45 13
M  V30 50 1 46 13
M  V30 51 1 47 20
M  V30 52 1 48 21
M  V30 53 1 49 22
M  V30 54 1 50 23
M  V30 55 1 51 25
M  V30 56 1 52 25
M  V30 57 1 53 26
M  V30 58 1 54 26
M  V30 59 1 55 27
M  V30 60 1 56 30
M  V30 END BOND
M  V30 END CTAB
M  END
>  <b_m_subgroup_collapsed>  (479) 
0

>  <r_i_docking_score>  (479) 
-8.2581883897284705

>  <s_m_subgroup_title>  (479) 
glide-dock_SP_D22_pv

>  <s_m_subgroupid>  (479) 
glide-dock_SP_D22_pv

>  <Molecule ChEMBL ID>  (479) 
CHEMBL425208

>  <Standard Type>  (479) 
Ki

>  <Standard Value>  (479) 
92.0

>  <label>  (479) 
1

$$$$
CHEMBL3918282
     RDKit          3D

  0  0  0  0  0  0  0  0  0  0999 V3000
M  V30 BEGIN CTAB
M  V30 COUNTS 68 71 0 0 1
M  V30 BEGIN ATOM
M  V30 1 O 9.286109 4.280994 -16.049576 0
M  V30 2 S 9.973532 3.573180 -14.882342 0
M  V30 3 C 8.792179 3.509950 -13.449671 0
M  V30 4 C 8.195991 4.900485 -13.167328 0
M  V30 5 N 9.031447 5.817198 -12.389753 0
M  V30 6 C 8.263327 7.062455 -12.275722 0
M  V30 7 C 9.006985 8.117843 -11.436193 0
M  V30 8 N 9.286028 7.586784 -10.079743 0 CHG=1
M  V30 9 C 9.930519 8.584870 -9.192019 0
M  V30 10 C 9.907855 8.201130 -7.691133 0 CFG=2
M  V30 11 O 8.658406 8.553359 -7.138196 0
M  V30 12 C 11.000827 8.980700 -6.927576 0
M  V30 13 C 11.286869 8.548635 -5.494630 0
M  V30 14 C 11.667736 9.534539 -4.560185 0
M  V30 15 C 12.068632 9.181135 -3.258016 0
M  V30 16 C 12.085797 7.827574 -2.873407 0
M  V30 17 C 11.686117 6.838712 -3.791819 0
M  V30 18 C 11.286065 7.191814 -5.096001 0
M  V30 19 C 10.053218 6.329640 -10.214941 0
M  V30 20 C 9.251870 5.305402 -11.034550 0
M  V30 21 C 10.072443 1.750010 -15.293840 0
M  V30 22 C 10.939543 1.459646 -16.528543 0
M  V30 23 C 10.886319 0.172294 -17.115381 0
M  V30 24 C 11.663286 -0.142597 -18.246778 0
M  V30 25 C 12.513468 0.826099 -18.806503 0
M  V30 26 F 13.267803 0.521679 -19.890213 0
M  V30 27 C 12.586517 2.107169 -18.232204 0
M  V30 28 C 11.811600 2.420877 -17.097109 0
M  V30 29 C 8.666005 1.158543 -15.420668 0
M  V30 30 C 7.870284 1.411354 -16.560522 0
M  V30 31 C 6.588449 0.837018 -16.673304 0
M  V30 32 C 6.085887 0.018074 -15.641760 0
M  V30 33 F 4.848772 -0.521721 -15.744912 0
M  V30 34 C 6.866450 -0.226723 -14.497195 0
M  V30 35 C 8.150178 0.342035 -14.390574 0
M  V30 36 H 9.284257 3.042470 -12.600199 0
M  V30 37 H 7.941623 2.886138 -13.707279 0
M  V30 38 H 7.250643 4.759569 -12.640545 0
M  V30 39 H 7.941622 5.369562 -14.117683 0
M  V30 40 H 7.283107 6.855294 -11.846866 0
M  V30 41 H 8.069535 7.460721 -13.269297 0
M  V30 42 H 8.392641 9.014678 -11.360893 0
M  V30 43 H 9.936565 8.406996 -11.926964 0
M  V30 44 H 9.455433 9.558517 -9.321420 0
M  V30 45 H 10.960061 8.711498 -9.534271 0
M  V30 46 H 10.064746 7.135198 -7.560213 0
M  V30 47 H 7.966672 7.968938 -7.433488 0
M  V30 48 H 11.951287 8.881705 -7.456578 0
M  V30 49 H 10.768371 10.045472 -6.944823 0
M  V30 50 H 11.679650 10.571929 -4.853687 0
M  V30 51 H 12.369508 9.948488 -2.559562 0
M  V30 52 H 12.394152 7.552974 -1.876062 0
M  V30 53 H 11.696003 5.799923 -3.496336 0
M  V30 54 H 11.021489 6.403407 -5.783094 0
M  V30 55 H 11.002390 6.572175 -10.696032 0
M  V30 56 H 10.286512 5.885369 -9.248796 0
M  V30 57 H 8.300072 5.086522 -10.545090 0
M  V30 58 H 9.818763 4.376073 -11.064666 0
M  V30 59 H 10.568007 1.270684 -14.448818 0
M  V30 60 H 10.244102 -0.590819 -16.699213 0
M  V30 61 H 11.610009 -1.129319 -18.682016 0
M  V30 62 H 13.246108 2.848994 -18.657629 0
M  V30 63 H 11.909633 3.412500 -16.684088 0
M  V30 64 H 8.247044 2.042729 -17.351854 0
M  V30 65 H 5.982712 1.027765 -17.545933 0
M  V30 66 H 6.481882 -0.851630 -13.704583 0
M  V30 67 H 8.739038 0.164122 -13.503547 0
M  V30 68 H 8.364307 7.373063 -9.704705 0
M  V30 END ATOM
M  V30 BEGIN BOND
M  V30 1 2 2 1
M  V30 2 1 2 3 CFG=1
M  V30 3 1 4 3
M  V30 4 1 5 4
M  V30 5 1 6 5
M  V30 6 1 7 6
M  V30 7 1 8 7
M  V30 8 1 9 8
M  V30 9 1 10 9
M  V30 10 1 11 10
M  V30 11 1 12 10
M  V30 12 1 13 12
M  V30 13 2 14 13
M  V30 14 1 15 14
M  V30 15 2 16 15
M  V30 16 1 17 16
M  V30 17 1 18 13
M  V30 18 2 18 17
M  V30 19 1 19 8
M  V30 20 1 20 5
M  V30 21 1 20 19
M  V30 22 1 21 2
M  V30 23 1 22 21
M  V30 24 2 23 22
M  V30 25 1 24 23
M  V30 26 2 25 24
M  V30 27 1 26 25
M  V30 28 1 27 25
M  V30 29 1 28 22
M  V30 30 2 28 27
M  V30 31 1 29 21
M  V30 32 2 30 29
M  V30 33 1 31 30
M  V30 34 2 32 31
M  V30 35 1 33 32
M  V30 36 1 34 32
M  V30 37 1 35 29
M  V30 38 2 35 34
M  V30 39 1 36 3
M  V30 40 1 37 3
M  V30 41 1 38 4
M  V30 42 1 39 4
M  V30 43 1 40 6
M  V30 44 1 41 6
M  V30 45 1 42 7
M  V30 46 1 43 7
M  V30 47 1 44 9
M  V30 48 1 45 9
M  V30 49 1 10 46 CFG=3
M  V30 50 1 47 11
M  V30 51 1 48 12
M  V30 52 1 49 12
M  V30 53 1 50 14
M  V30 54 1 51 15
M  V30 55 1 52 16
M  V30 56 1 53 17
M  V30 57 1 54 18
M  V30 58 1 55 19
M  V30 59 1 56 19
M  V30 60 1 57 20
M  V30 61 1 58 20
M  V30 62 1 59 21
M  V30 63 1 60 23
M  V30 64 1 61 24
M  V30 65 1 62 27
M  V30 66 1 63 28
M  V30 67 1 64 30
M  V30 68 1 65 31
M  V30 69 1 66 34
M  V30 70 1 67 35
M  V30 71 1 68 8
M  V30 END BOND
M  V30 END CTAB
M  END
>  <b_m_subgroup_collapsed>  (480) 
0

>  <r_i_docking_score>  (480) 
-8.2558565270941795

>  <s_m_subgroup_title>  (480) 
glide-dock_SP_D22_pv

>  <s_m_subgroupid>  (480) 
glide-dock_SP_D22_pv

>  <Molecule ChEMBL ID>  (480) 
CHEMBL3918282

>  <Standard Type>  (480) 
Ki

>  <Standard Value>  (480) 
78.6

>  <label>  (480) 
1

$$$$
CHEMBL334472
     RDKit          3D

  0  0  0  0  0  0  0  0  0  0999 V3000
M  V30 BEGIN CTAB
M  V30 COUNTS 35 36 0 0 1
M  V30 BEGIN ATOM
M  V30 1 C 7.866361 5.654264 -12.309893 0
M  V30 2 C 8.355248 4.653272 -11.253835 0
M  V30 3 C 9.261044 5.292265 -10.190583 0
M  V30 4 N 8.486546 6.172608 -9.288593 0 CHG=1
M  V30 5 C 9.245919 7.060579 -8.369380 0 CFG=2
M  V30 6 C 10.249947 7.981240 -9.077849 0
M  V30 7 C 10.806536 9.028792 -8.106019 0
M  V30 8 C 11.188155 8.494587 -6.729878 0
M  V30 9 C 11.962193 9.293144 -5.848447 0
M  V30 10 O 12.472644 10.492205 -6.246840 0
M  V30 11 C 12.254536 8.841601 -4.548338 0
M  V30 12 C 11.826063 7.568277 -4.136209 0
M  V30 13 C 11.098616 6.753426 -5.022494 0
M  V30 14 C 10.754133 7.211064 -6.311110 0
M  V30 15 C 9.940957 6.302145 -7.229543 0
M  V30 16 H 7.239432 5.156135 -13.049486 0
M  V30 17 H 7.273136 6.451670 -11.861783 0
M  V30 18 H 8.700963 6.115685 -12.838393 0
M  V30 19 H 8.907108 3.859206 -11.759840 0
M  V30 20 H 7.498810 4.173293 -10.778258 0
M  V30 21 H 10.057512 5.838330 -10.693915 0
M  V30 22 H 9.734047 4.510863 -9.595762 0
M  V30 23 H 7.856586 5.607874 -8.737043 0
M  V30 24 H 8.486394 7.698737 -7.913962 0
M  V30 25 H 9.793818 8.475781 -9.935874 0
M  V30 26 H 11.085949 7.394163 -9.458472 0
M  V30 27 H 10.033187 9.772298 -7.933424 0
M  V30 28 H 11.656729 9.532468 -8.564843 0
M  V30 29 H 13.427192 10.522001 -6.246475 0
M  V30 30 H 12.831354 9.458206 -3.874084 0
M  V30 31 H 12.066903 7.207018 -3.146520 0
M  V30 32 H 10.791487 5.772657 -4.693833 0
M  V30 33 H 10.624111 5.553514 -7.631015 0
M  V30 34 H 9.190998 5.772572 -6.646951 0
M  V30 35 H 7.886370 6.780844 -9.846318 0
M  V30 END ATOM
M  V30 BEGIN BOND
M  V30 1 1 2 1
M  V30 2 1 3 2
M  V30 3 1 4 3
M  V30 4 1 5 4
M  V30 5 1 6 5
M  V30 6 1 7 6
M  V30 7 1 8 7
M  V30 8 2 9 8
M  V30 9 1 10 9
M  V30 10 1 11 9
M  V30 11 2 12 11
M  V30 12 1 13 12
M  V30 13 1 14 8
M  V30 14 2 14 13
M  V30 15 1 15 5
M  V30 16 1 15 14
M  V30 17 1 16 1
M  V30 18 1 17 1
M  V30 19 1 18 1
M  V30 20 1 19 2
M  V30 21 1 20 2
M  V30 22 1 21 3
M  V30 23 1 22 3
M  V30 24 1 23 4
M  V30 25 1 5 24 CFG=1
M  V30 26 1 25 6
M  V30 27 1 26 6
M  V30 28 1 27 7
M  V30 29 1 28 7
M  V30 30 1 29 10
M  V30 31 1 30 11
M  V30 32 1 31 12
M  V30 33 1 32 13
M  V30 34 1 33 15
M  V30 35 1 34 15
M  V30 36 1 35 4
M  V30 END BOND
M  V30 END CTAB
M  END
>  <b_m_subgroup_collapsed>  (481) 
0

>  <r_i_docking_score>  (481) 
-8.2535326062857397

>  <s_m_subgroup_title>  (481) 
glide-dock_SP_D22_pv

>  <s_m_subgroupid>  (481) 
glide-dock_SP_D22_pv

>  <Molecule ChEMBL ID>  (481) 
CHEMBL334472

>  <Standard Type>  (481) 
Ki

>  <Standard Value>  (481) 
0.5

>  <label>  (481) 
1

$$$$
CHEMBL3759441
     RDKit          3D

  0  0  0  0  0  0  0  0  0  0999 V3000
M  V30 BEGIN CTAB
M  V30 COUNTS 64 68 0 0 1
M  V30 BEGIN ATOM
M  V30 1 O 3.285701 -1.027745 -13.846586 0
M  V30 2 C 4.200730 -0.726638 -14.604282 0
M  V30 3 C 5.274279 0.300200 -14.233942 0
M  V30 4 C 6.089947 0.282110 -15.506202 0
M  V30 5 C 5.546218 -0.643500 -16.394737 0
M  V30 6 C 6.109718 -0.896530 -17.654835 0
M  V30 7 C 7.272267 -0.176117 -18.003103 0
M  V30 8 C 7.831652 0.767055 -17.107473 0
M  V30 9 C 7.244214 1.028087 -15.843891 0
M  V30 10 N 7.830687 2.001745 -15.012936 0
M  V30 11 C 9.094314 1.623799 -14.400138 0
M  V30 12 C 9.900369 2.881965 -14.035858 0
M  V30 13 N 9.113015 3.835617 -13.205510 0 CHG=1
M  V30 14 C 9.902760 5.055851 -12.887689 0
M  V30 15 C 9.226178 5.947680 -11.830974 0
M  V30 16 C 10.135242 7.045807 -11.255380 0
M  V30 17 C 9.361923 7.934413 -10.261773 0
M  V30 18 N 10.138627 8.307937 -9.086323 0
M  V30 19 C 10.340156 7.460489 -8.064347 0
M  V30 20 O 10.108171 6.252473 -8.149952 0
M  V30 21 C 10.865720 8.040437 -6.779032 0
M  V30 22 C 10.885812 9.435228 -6.525331 0
M  V30 23 C 11.290514 9.933411 -5.273523 0
M  V30 24 C 11.689255 9.045870 -4.258659 0
M  V30 25 C 12.085779 9.524220 -2.996170 0
M  V30 26 C 12.486101 8.624192 -1.992960 0
M  V30 27 C 12.485453 7.241303 -2.246910 0
M  V30 28 C 12.082911 6.761755 -3.500053 0
M  V30 29 C 11.685997 7.655354 -4.507841 0
M  V30 30 C 11.281587 7.161098 -5.758496 0
M  V30 31 C 7.780740 4.149549 -13.794928 0
M  V30 32 C 6.997171 2.890252 -14.214243 0
M  V30 33 N 4.414361 -1.231830 -15.823783 0
M  V30 34 H 5.859808 -0.030892 -13.376811 0
M  V30 35 H 4.813641 1.265351 -14.029152 0
M  V30 36 H 5.677944 -1.622033 -18.329601 0
M  V30 37 H 7.740789 -0.348708 -18.960564 0
M  V30 38 H 8.715805 1.308946 -17.407713 0
M  V30 39 H 8.886261 1.034727 -13.505463 0
M  V30 40 H 9.678263 0.988793 -15.067742 0
M  V30 41 H 10.804132 2.586978 -13.502140 0
M  V30 42 H 10.221729 3.384002 -14.950602 0
M  V30 43 H 10.883170 4.742798 -12.533497 0
M  V30 44 H 10.081567 5.631047 -13.797383 0
M  V30 45 H 8.338201 6.421713 -12.250384 0
M  V30 46 H 8.877396 5.321779 -11.006494 0
M  V30 47 H 10.982633 6.574119 -10.761016 0
M  V30 48 H 10.550640 7.661398 -12.052724 0
M  V30 49 H 8.979708 8.827928 -10.755922 0
M  V30 50 H 8.486076 7.396585 -9.903296 0
M  V30 51 H 10.380711 9.279821 -8.970793 0
M  V30 52 H 10.578556 10.160348 -7.260695 0
M  V30 53 H 11.285598 10.998898 -5.098145 0
M  V30 54 H 12.081667 10.579303 -2.778871 0
M  V30 55 H 12.802487 9.005161 -1.035671 0
M  V30 56 H 12.798820 6.544971 -1.484200 0
M  V30 57 H 12.086052 5.703462 -3.689662 0
M  V30 58 H 11.267898 6.093270 -5.921426 0
M  V30 59 H 7.170222 4.703926 -13.082891 0
M  V30 60 H 7.932086 4.806234 -14.646942 0
M  V30 61 H 6.100604 3.175117 -14.768413 0
M  V30 62 H 6.666263 2.365847 -13.320166 0
M  V30 63 H 3.864042 -1.954554 -16.270887 0
M  V30 64 H 8.936869 3.359847 -12.331078 0
M  V30 END ATOM
M  V30 BEGIN BOND
M  V30 1 2 2 1
M  V30 2 1 3 2
M  V30 3 1 4 3
M  V30 4 2 5 4
M  V30 5 1 6 5
M  V30 6 2 7 6
M  V30 7 1 8 7
M  V30 8 1 9 4
M  V30 9 2 9 8
M  V30 10 1 10 9
M  V30 11 1 11 10
M  V30 12 1 12 11
M  V30 13 1 13 12
M  V30 14 1 14 13
M  V30 15 1 15 14
M  V30 16 1 16 15
M  V30 17 1 17 16
M  V30 18 1 18 17
M  V30 19 1 19 18
M  V30 20 2 20 19
M  V30 21 1 21 19
M  V30 22 1 22 21
M  V30 23 2 23 22
M  V30 24 1 24 23
M  V30 25 2 25 24
M  V30 26 1 26 25
M  V30 27 2 27 26
M  V30 28 1 28 27
M  V30 29 1 29 24
M  V30 30 2 29 28
M  V30 31 2 30 21
M  V30 32 1 30 29
M  V30 33 1 31 13
M  V30 34 1 32 10
M  V30 35 1 32 31
M  V30 36 1 33 2
M  V30 37 1 33 5
M  V30 38 1 34 3
M  V30 39 1 35 3
M  V30 40 1 36 6
M  V30 41 1 37 7
M  V30 42 1 38 8
M  V30 43 1 39 11
M  V30 44 1 40 11
M  V30 45 1 41 12
M  V30 46 1 42 12
M  V30 47 1 43 14
M  V30 48 1 44 14
M  V30 49 1 45 15
M  V30 50 1 46 15
M  V30 51 1 47 16
M  V30 52 1 48 16
M  V30 53 1 49 17
M  V30 54 1 50 17
M  V30 55 1 51 18
M  V30 56 1 52 22
M  V30 57 1 53 23
M  V30 58 1 54 25
M  V30 59 1 55 26
M  V30 60 1 56 27
M  V30 61 1 57 28
M  V30 62 1 58 30
M  V30 63 1 59 31
M  V30 64 1 60 31
M  V30 65 1 61 32
M  V30 66 1 62 32
M  V30 67 1 63 33
M  V30 68 1 64 13
M  V30 END BOND
M  V30 END CTAB
M  END
>  <b_m_subgroup_collapsed>  (482) 
0

>  <r_i_docking_score>  (482) 
-8.2496210979177995

>  <s_m_subgroup_title>  (482) 
glide-dock_SP_D22_pv

>  <s_m_subgroupid>  (482) 
glide-dock_SP_D22_pv

>  <Molecule ChEMBL ID>  (482) 
CHEMBL3759441

>  <Standard Type>  (482) 
Ki

>  <Standard Value>  (482) 
52.0

>  <label>  (482) 
1

$$$$
CHEMBL1108
     RDKit          3D

  0  0  0  0  0  0  0  0  0  0999 V3000
M  V30 BEGIN CTAB
M  V30 COUNTS 50 53 0 0 1
M  V30 BEGIN ATOM
M  V30 1 O 10.766661 9.372204 -7.103468 0
M  V30 2 C 10.645694 8.383138 -6.382279 0
M  V30 3 C 9.745437 7.226027 -6.832760 0
M  V30 4 C 10.182479 6.651606 -8.186026 0
M  V30 5 C 9.606485 7.429673 -9.382154 0
M  V30 6 N 10.271334 6.958842 -10.588902 0
M  V30 7 C 11.444510 7.771299 -10.933305 0
M  V30 8 C 12.054880 7.372285 -12.268984 0
M  V30 9 C 11.462653 6.495581 -13.109637 0
M  V30 10 N 11.984627 6.154903 -14.376504 0
M  V30 11 C 12.627981 7.009747 -15.216307 0
M  V30 12 O 12.885850 8.194768 -15.019996 0
M  V30 13 N 12.905403 6.353559 -16.354557 0
M  V30 14 C 12.412631 5.054972 -16.286003 0
M  V30 15 C 12.458485 4.020533 -17.233803 0
M  V30 16 C 11.875736 2.786398 -16.867973 0
M  V30 17 C 11.285272 2.618364 -15.590262 0
M  V30 18 C 11.265123 3.677951 -14.653436 0
M  V30 19 C 11.828743 4.911483 -15.041778 0
M  V30 20 C 10.091939 5.926051 -12.756712 0
M  V30 21 C 9.366540 6.806098 -11.723557 0
M  V30 22 C 11.285978 8.286609 -5.045579 0
M  V30 23 C 11.646119 7.048149 -4.460781 0
M  V30 24 C 12.179000 7.007681 -3.157597 0
M  V30 25 C 12.391092 8.204528 -2.449823 0
M  V30 26 F 12.886120 8.174797 -1.193998 0
M  V30 27 C 12.085808 9.437753 -3.047099 0
M  V30 28 C 11.541266 9.481458 -4.340783 0
M  V30 29 H 8.716308 7.582571 -6.893972 0
M  V30 30 H 9.735332 6.436060 -6.085338 0
M  V30 31 H 9.857563 5.613526 -8.254661 0
M  V30 32 H 11.272068 6.620656 -8.234362 0
M  V30 33 H 9.719564 8.508984 -9.275826 0
M  V30 34 H 8.533172 7.236403 -9.428212 0
M  V30 35 H 12.198596 7.681062 -10.150656 0
M  V30 36 H 11.165305 8.823736 -10.995323 0
M  V30 37 H 13.003332 7.829085 -12.512568 0
M  V30 38 H 13.360877 6.744115 -17.165644 0
M  V30 39 H 12.920254 4.159158 -18.200312 0
M  V30 40 H 11.889846 1.960272 -17.563784 0
M  V30 41 H 10.857271 1.663082 -15.321645 0
M  V30 42 H 10.835323 3.510437 -13.681002 0
M  V30 43 H 9.477584 5.778861 -13.645557 0
M  V30 44 H 10.232310 4.951588 -12.291936 0
M  V30 45 H 9.094358 7.779502 -12.134961 0
M  V30 46 H 8.443924 6.313284 -11.413735 0
M  V30 47 H 11.498920 6.116543 -4.986888 0
M  V30 48 H 12.422517 6.058636 -2.702269 0
M  V30 49 H 12.245249 10.355023 -2.503046 0
M  V30 50 H 11.287025 10.439398 -4.772580 0
M  V30 END ATOM
M  V30 BEGIN BOND
M  V30 1 2 2 1
M  V30 2 1 3 2
M  V30 3 1 4 3
M  V30 4 1 5 4
M  V30 5 1 6 5
M  V30 6 1 7 6
M  V30 7 1 8 7
M  V30 8 2 9 8
M  V30 9 1 10 9
M  V30 10 1 11 10
M  V30 11 2 12 11
M  V30 12 1 13 11
M  V30 13 1 14 13
M  V30 14 2 15 14
M  V30 15 1 16 15
M  V30 16 2 17 16
M  V30 17 1 18 17
M  V30 18 1 19 10
M  V30 19 1 19 14
M  V30 20 2 19 18
M  V30 21 1 20 9
M  V30 22 1 21 6
M  V30 23 1 21 20
M  V30 24 1 22 2
M  V30 25 1 23 22
M  V30 26 2 24 23
M  V30 27 1 25 24
M  V30 28 1 26 25
M  V30 29 2 27 25
M  V30 30 2 28 22
M  V30 31 1 28 27
M  V30 32 1 29 3
M  V30 33 1 30 3
M  V30 34 1 31 4
M  V30 35 1 32 4
M  V30 36 1 33 5
M  V30 37 1 34 5
M  V30 38 1 35 7
M  V30 39 1 36 7
M  V30 40 1 37 8
M  V30 41 1 38 13
M  V30 42 1 39 15
M  V30 43 1 40 16
M  V30 44 1 41 17
M  V30 45 1 42 18
M  V30 46 1 43 20
M  V30 47 1 44 20
M  V30 48 1 45 21
M  V30 49 1 46 21
M  V30 50 1 47 23
M  V30 51 1 48 24
M  V30 52 1 49 27
M  V30 53 1 50 28
M  V30 END BOND
M  V30 END CTAB
M  END
>  <b_m_subgroup_collapsed>  (483) 
0

>  <r_i_docking_score>  (483) 
-8.2481732558729597

>  <s_m_subgroup_title>  (483) 
glide-dock_SP_D22_pv

>  <s_m_subgroupid>  (483) 
glide-dock_SP_D22_pv

>  <Molecule ChEMBL ID>  (483) 
CHEMBL1108

>  <Standard Type>  (483) 
Ki

>  <Standard Value>  (483) 
0.802

>  <label>  (483) 
1

$$$$
CHEMBL5398100
     RDKit          3D

  0  0  0  0  0  0  0  0  0  0999 V3000
M  V30 BEGIN CTAB
M  V30 COUNTS 71 75 0 0 1
M  V30 BEGIN ATOM
M  V30 1 O 10.886017 5.772379 -7.969133 0
M  V30 2 C 10.048977 6.631036 -7.758767 0
M  V30 3 N 9.078382 6.902228 -8.636925 0
M  V30 4 C 9.054465 6.439376 -10.021338 0 CFG=1
M  V30 5 C 10.084255 7.185626 -10.882032 0
M  V30 6 C 9.859114 6.843159 -12.356833 0
M  V30 7 C 9.929449 5.322858 -12.582991 0 CFG=2
M  V30 8 C 10.035398 4.878426 -14.046257 0
M  V30 9 C 8.701186 4.643314 -14.727755 0
M  V30 10 N 8.062988 3.386491 -14.254661 0 CHG=1
M  V30 11 C 6.580083 3.477926 -14.104136 0
M  V30 12 C 5.962399 2.174894 -13.576694 0
M  V30 13 N 6.504972 1.019977 -14.289574 0
M  V30 14 C 5.609315 0.172309 -14.968079 0
M  V30 15 C 4.467406 -0.237555 -14.246177 0
M  V30 16 C 3.479363 -1.027157 -14.843888 0
M  V30 17 C 3.629446 -1.428465 -16.178497 0
M  V30 18 C 4.748880 -1.034778 -16.923548 0
M  V30 19 Cl 4.856078 -1.525155 -18.577257 0
M  V30 20 C 5.744338 -0.227037 -16.332609 0
M  V30 21 Cl 7.036378 0.320239 -17.348953 0
M  V30 22 C 7.948012 0.899811 -14.427950 0
M  V30 23 C 8.525223 2.196376 -15.013490 0
M  V30 24 C 8.941122 4.557930 -11.682167 0
M  V30 25 C 9.131362 4.910367 -10.204582 0
M  V30 26 N 9.974825 7.270744 -6.582343 0
M  V30 27 C 9.647669 8.697985 -6.472778 0
M  V30 28 C 10.809826 9.512284 -5.868347 0
M  V30 29 C 11.390580 8.866098 -4.626067 0
M  V30 30 N 11.955878 9.681243 -3.712951 0
M  V30 31 C 12.465870 9.116393 -2.596470 0
M  V30 32 C 12.461109 7.736310 -2.345765 0
M  V30 33 C 11.860034 6.896507 -3.290921 0
M  V30 34 C 11.294755 7.474193 -4.442331 0
M  V30 35 C 10.517301 6.601189 -5.390259 0
M  V30 36 H 8.306758 7.489826 -8.347756 0
M  V30 37 H 8.086031 6.708088 -10.410322 0
M  V30 38 H 9.980456 8.262734 -10.741776 0
M  V30 39 H 11.100550 6.928830 -10.581245 0
M  V30 40 H 8.880638 7.223215 -12.648048 0
M  V30 41 H 10.613161 7.354216 -12.957127 0
M  V30 42 H 10.886113 5.017023 -12.246866 0
M  V30 43 H 10.595505 5.629327 -14.606005 0
M  V30 44 H 10.641560 3.973970 -14.109810 0
M  V30 45 H 8.086002 5.517179 -14.537725 0
M  V30 46 H 8.885978 4.603749 -15.803118 0
M  V30 47 H 6.315537 4.296772 -13.435422 0
M  V30 48 H 6.095217 3.711055 -15.046884 0
M  V30 49 H 6.086607 2.059529 -12.501023 0
M  V30 50 H 4.886646 2.246717 -13.719642 0
M  V30 51 H 4.334903 0.065811 -13.218943 0
M  V30 52 H 2.610065 -1.310639 -14.272985 0
M  V30 53 H 2.886170 -2.057263 -16.639835 0
M  V30 54 H 8.379863 0.714338 -13.446825 0
M  V30 55 H 8.226403 0.034331 -15.028727 0
M  V30 56 H 8.229877 2.319374 -16.054132 0
M  V30 57 H 9.613905 2.136358 -15.005346 0
M  V30 58 H 7.915095 4.800465 -11.951810 0
M  V30 59 H 9.088132 3.487916 -11.819676 0
M  V30 60 H 10.085928 4.504712 -9.875564 0
M  V30 61 H 8.361588 4.423738 -9.603454 0
M  V30 62 H 9.370565 9.142783 -7.430268 0
M  V30 63 H 8.760501 8.767117 -5.852628 0
M  V30 64 H 10.486056 10.528180 -5.638652 0
M  V30 65 H 11.613416 9.601832 -6.600296 0
M  V30 66 H 12.885618 9.772222 -1.857126 0
M  V30 67 H 12.885635 7.333796 -1.441058 0
M  V30 68 H 11.800847 5.832150 -3.116104 0
M  V30 69 H 11.184705 5.772423 -5.624412 0
M  V30 70 H 9.684286 6.172441 -4.838050 0
M  V30 71 H 8.401764 3.252549 -13.312676 0
M  V30 END ATOM
M  V30 BEGIN BOND
M  V30 1 2 2 1
M  V30 2 1 3 2
M  V30 3 1 4 3
M  V30 4 1 5 4
M  V30 5 1 6 5
M  V30 6 1 7 6
M  V30 7 1 8 7
M  V30 8 1 9 8
M  V30 9 1 10 9
M  V30 10 1 11 10
M  V30 11 1 12 11
M  V30 12 1 13 12
M  V30 13 1 14 13
M  V30 14 2 15 14
M  V30 15 1 16 15
M  V30 16 2 17 16
M  V30 17 1 18 17
M  V30 18 1 19 18
M  V30 19 1 20 14
M  V30 20 2 20 18
M  V30 21 1 21 20
M  V30 22 1 22 13
M  V30 23 1 23 10
M  V30 24 1 23 22
M  V30 25 1 24 7
M  V30 26 1 25 4
M  V30 27 1 25 24
M  V30 28 1 26 2
M  V30 29 1 27 26
M  V30 30 1 28 27
M  V30 31 1 29 28
M  V30 32 2 30 29
M  V30 33 1 31 30
M  V30 34 2 32 31
M  V30 35 1 33 32
M  V30 36 1 34 29
M  V30 37 2 34 33
M  V30 38 1 35 26
M  V30 39 1 35 34
M  V30 40 1 36 3
M  V30 41 1 4 37 CFG=3
M  V30 42 1 38 5
M  V30 43 1 39 5
M  V30 44 1 40 6
M  V30 45 1 41 6
M  V30 46 1 7 42 CFG=1
M  V30 47 1 43 8
M  V30 48 1 44 8
M  V30 49 1 45 9
M  V30 50 1 46 9
M  V30 51 1 47 11
M  V30 52 1 48 11
M  V30 53 1 49 12
M  V30 54 1 50 12
M  V30 55 1 51 15
M  V30 56 1 52 16
M  V30 57 1 53 17
M  V30 58 1 54 22
M  V30 59 1 55 22
M  V30 60 1 56 23
M  V30 61 1 57 23
M  V30 62 1 58 24
M  V30 63 1 59 24
M  V30 64 1 60 25
M  V30 65 1 61 25
M  V30 66 1 62 27
M  V30 67 1 63 27
M  V30 68 1 64 28
M  V30 69 1 65 28
M  V30 70 1 66 31
M  V30 71 1 67 32
M  V30 72 1 68 33
M  V30 73 1 69 35
M  V30 74 1 70 35
M  V30 75 1 71 10
M  V30 END BOND
M  V30 END CTAB
M  END
>  <b_m_subgroup_collapsed>  (484) 
0

>  <r_i_docking_score>  (484) 
-8.2474864433699597

>  <s_m_subgroup_title>  (484) 
glide-dock_SP_D22_pv

>  <s_m_subgroupid>  (484) 
glide-dock_SP_D22_pv

>  <Molecule ChEMBL ID>  (484) 
CHEMBL5398100

>  <Standard Type>  (484) 
Ki

>  <Standard Value>  (484) 
1.86

>  <label>  (484) 
1

$$$$
CHEMBL4071185
     RDKit          3D

  0  0  0  0  0  0  0  0  0  0999 V3000
M  V30 BEGIN CTAB
M  V30 COUNTS 63 66 0 0 1
M  V30 BEGIN ATOM
M  V30 1 C 9.419879 4.718595 -9.456009 0
M  V30 2 C 8.664961 6.039805 -9.580692 0
M  V30 3 C 8.997474 7.075942 -8.510248 0
M  V30 4 N 10.445946 7.401385 -8.490506 0 CFG=1 CHG=1
M  V30 5 C 10.895177 8.261002 -9.620295 0
M  V30 6 C 12.379806 8.009663 -9.943527 0
M  V30 7 C 12.811557 8.382657 -11.349344 0
M  V30 8 C 12.377722 7.372734 -12.454166 0
M  V30 9 O 10.968884 7.146512 -12.514062 0
M  V30 10 C 10.476589 5.964178 -13.047030 0
M  V30 11 C 9.067837 5.772898 -12.994363 0
M  V30 12 C 8.461550 4.626972 -13.446810 0
M  V30 13 C 9.257754 3.612923 -14.030903 0
M  V30 14 C 9.054997 2.372046 -14.577626 0
M  V30 15 C 7.779888 1.683916 -14.663430 0
M  V30 16 O 6.700791 2.102046 -14.246949 0
M  V30 17 C 10.335052 1.943696 -14.995424 0
M  V30 18 N 11.286031 2.815596 -14.746065 0
M  V30 19 N 10.643702 3.856782 -14.127692 0
M  V30 20 C 11.246277 4.988140 -13.657751 0
M  V30 21 C 10.915006 7.917827 -7.187368 0 CFG=1
M  V30 22 C 10.041852 9.058599 -6.656465 0
M  V30 23 C 10.771025 9.758525 -5.520105 0
M  V30 24 C 11.374924 8.777885 -4.522255 0
M  V30 25 C 11.823563 9.259138 -3.286802 0
M  V30 26 O 11.686039 10.572307 -3.046840 0
M  V30 27 C 12.386883 8.415838 -2.314357 0
M  V30 28 C 12.485761 7.043901 -2.583983 0
M  V30 29 C 12.041923 6.553762 -3.820219 0
M  V30 30 C 11.501354 7.400380 -4.799084 0
M  V30 31 C 11.066944 6.817243 -6.128969 0
M  V30 32 H 9.301059 4.172218 -10.388405 0
M  V30 33 H 10.486095 4.862068 -9.303688 0
M  V30 34 H 9.034559 4.109277 -8.637717 0
M  V30 35 H 7.602967 5.821035 -9.571717 0
M  V30 36 H 8.855574 6.482296 -10.546049 0
M  V30 37 H 8.654145 6.688387 -7.551250 0
M  V30 38 H 8.453409 8.000692 -8.686889 0
M  V30 39 H 10.280257 8.071051 -10.491903 0
M  V30 40 H 10.735349 9.318000 -9.407217 0
M  V30 41 H 13.013394 8.537118 -9.229648 0
M  V30 42 H 12.603448 6.972378 -9.846948 0
M  V30 43 H 12.486052 9.404214 -11.446836 0
M  V30 44 H 13.899138 8.452926 -11.377087 0
M  V30 45 H 12.724538 7.713623 -13.430331 0
M  V30 46 H 12.885973 6.437765 -12.246746 0
M  V30 47 H 8.435446 6.558347 -12.592846 0
M  V30 48 H 7.387345 4.495590 -13.369914 0
M  V30 49 H 7.852960 0.710545 -15.148378 0
M  V30 50 H 10.588214 1.006975 -15.471411 0
M  V30 51 H 12.319829 5.044218 -13.799767 0
M  V30 52 H 11.917994 8.319481 -7.333785 0
M  V30 53 H 9.094643 8.666126 -6.282137 0
M  V30 54 H 9.791423 9.772283 -7.437769 0
M  V30 55 H 10.086082 10.439816 -5.015351 0
M  V30 56 H 11.580099 10.371611 -5.920248 0
M  V30 57 H 12.220618 10.879082 -2.325344 0
M  V30 58 H 12.718625 8.810946 -1.365095 0
M  V30 59 H 12.886055 6.364225 -1.846323 0
M  V30 60 H 12.122290 5.501429 -4.026493 0
M  V30 61 H 11.797743 6.076128 -6.456501 0
M  V30 62 H 10.130420 6.285539 -5.960659 0
M  V30 63 H 10.907649 6.513629 -8.624266 0
M  V30 END ATOM
M  V30 BEGIN BOND
M  V30 1 1 2 1
M  V30 2 1 3 2
M  V30 3 1 4 3
M  V30 4 1 5 4
M  V30 5 1 6 5
M  V30 6 1 7 6
M  V30 7 1 8 7
M  V30 8 1 9 8
M  V30 9 1 10 9
M  V30 10 1 11 10
M  V30 11 2 12 11
M  V30 12 1 13 12
M  V30 13 2 14 13
M  V30 14 1 15 14
M  V30 15 2 16 15
M  V30 16 1 17 14
M  V30 17 2 18 17
M  V30 18 1 19 13
M  V30 19 1 19 18
M  V30 20 2 20 10
M  V30 21 1 20 19
M  V30 22 1 21 4
M  V30 23 1 22 21
M  V30 24 1 23 22
M  V30 25 1 24 23
M  V30 26 2 25 24
M  V30 27 1 26 25
M  V30 28 1 27 25
M  V30 29 2 28 27
M  V30 30 1 29 28
M  V30 31 1 30 24
M  V30 32 2 30 29
M  V30 33 1 31 21
M  V30 34 1 31 30
M  V30 35 1 32 1
M  V30 36 1 33 1
M  V30 37 1 34 1
M  V30 38 1 35 2
M  V30 39 1 36 2
M  V30 40 1 37 3
M  V30 41 1 38 3
M  V30 42 1 39 5
M  V30 43 1 40 5
M  V30 44 1 41 6
M  V30 45 1 42 6
M  V30 46 1 43 7
M  V30 47 1 44 7
M  V30 48 1 45 8
M  V30 49 1 46 8
M  V30 50 1 47 11
M  V30 51 1 48 12
M  V30 52 1 49 15
M  V30 53 1 50 17
M  V30 54 1 51 20
M  V30 55 1 21 52 CFG=3
M  V30 56 1 53 22
M  V30 57 1 54 22
M  V30 58 1 55 23
M  V30 59 1 56 23
M  V30 60 1 57 26
M  V30 61 1 58 27
M  V30 62 1 59 28
M  V30 63 1 60 29
M  V30 64 1 61 31
M  V30 65 1 62 31
M  V30 66 1 4 63 CFG=3
M  V30 END BOND
M  V30 END CTAB
M  END
>  <b_m_subgroup_collapsed>  (485) 
0

>  <r_i_docking_score>  (485) 
-8.2467289910350505

>  <s_m_subgroup_title>  (485) 
glide-dock_SP_D22_pv

>  <s_m_subgroupid>  (485) 
glide-dock_SP_D22_pv

>  <Molecule ChEMBL ID>  (485) 
CHEMBL4071185

>  <Standard Type>  (485) 
Ki

>  <Standard Value>  (485) 
0.94

>  <label>  (485) 
1

$$$$
CHEMBL418854
     RDKit          3D

  0  0  0  0  0  0  0  0  0  0999 V3000
M  V30 BEGIN CTAB
M  V30 COUNTS 56 59 0 0 1
M  V30 BEGIN ATOM
M  V30 1 C 12.492867 3.593582 -17.139688 0
M  V30 2 O 11.379759 3.685432 -16.263821 0
M  V30 3 C 10.682745 2.532859 -15.955128 0
M  V30 4 C 10.858572 1.326636 -16.682570 0
M  V30 5 C 10.091187 0.186741 -16.388630 0
M  V30 6 C 9.130706 0.239328 -15.368112 0
M  V30 7 C 8.952926 1.422649 -14.632727 0
M  V30 8 C 9.730638 2.576776 -14.895137 0
M  V30 9 N 9.566129 3.747083 -14.115600 0
M  V30 10 C 8.339933 3.935000 -13.337517 0
M  V30 11 C 8.115692 5.410037 -12.959875 0
M  V30 12 C 9.363326 6.066619 -12.334319 0
M  V30 13 C 9.613935 5.652048 -10.870554 0
M  V30 14 N 8.485907 5.960901 -9.967281 0 CHG=1
M  V30 15 C 8.785219 5.800199 -8.525910 0
M  V30 16 C 9.698500 6.905721 -7.957146 0 CFG=1
M  V30 17 C 9.040509 8.294952 -7.877215 0
M  V30 18 O 10.004409 9.224334 -7.392153 0
M  V30 19 C 10.654156 8.818429 -6.250839 0
M  V30 20 C 11.287307 9.776078 -5.435494 0
M  V30 21 C 11.878258 9.382738 -4.219105 0
M  V30 22 C 11.860855 8.032698 -3.829539 0
M  V30 23 Cl 12.483291 7.580519 -2.292455 0
M  V30 24 C 11.286593 7.062065 -4.669328 0
M  V30 25 C 10.673649 7.452199 -5.874669 0
M  V30 26 O 10.060381 6.497273 -6.646914 0
M  V30 27 C 10.597341 5.759396 -13.218372 0
M  V30 28 C 10.761411 4.261942 -13.452688 0
M  V30 29 H 13.003042 4.555690 -17.171040 0
M  V30 30 H 13.212583 2.852453 -16.792042 0
M  V30 31 H 12.184042 3.350691 -18.156570 0
M  V30 32 H 11.569582 1.253282 -17.491304 0
M  V30 33 H 10.229562 -0.722494 -16.955967 0
M  V30 34 H 8.527345 -0.627023 -15.143596 0
M  V30 35 H 8.215969 1.413118 -13.847035 0
M  V30 36 H 7.471717 3.561175 -13.882246 0
M  V30 37 H 8.427771 3.372336 -12.413715 0
M  V30 38 H 7.849935 5.970082 -13.847729 0
M  V30 39 H 7.249638 5.499382 -12.303833 0
M  V30 40 H 9.207331 7.146636 -12.338424 0
M  V30 41 H 9.819700 4.585259 -10.787106 0
M  V30 42 H 10.504903 6.171579 -10.528838 0
M  V30 43 H 8.074649 6.878263 -10.137510 0
M  V30 44 H 7.845419 5.772292 -7.973130 0
M  V30 45 H 9.247340 4.823586 -8.374757 0
M  V30 46 H 10.620743 6.974427 -8.533251 0
M  V30 47 H 8.704656 8.625026 -8.860035 0
M  V30 48 H 8.168076 8.283696 -7.220983 0
M  V30 49 H 11.281732 10.817553 -5.722249 0
M  V30 50 H 12.319978 10.122409 -3.567075 0
M  V30 51 H 11.272882 6.024959 -4.367303 0
M  V30 52 H 10.486317 6.172342 -14.215811 0
M  V30 53 H 11.504247 6.188887 -12.791903 0
M  V30 54 H 10.879387 3.771099 -12.495371 0
M  V30 55 H 11.679353 4.067103 -14.002793 0
M  V30 56 H 7.747416 5.304731 -10.184535 0
M  V30 END ATOM
M  V30 BEGIN BOND
M  V30 1 1 2 1
M  V30 2 1 3 2
M  V30 3 2 4 3
M  V30 4 1 5 4
M  V30 5 2 6 5
M  V30 6 1 7 6
M  V30 7 1 8 3
M  V30 8 2 8 7
M  V30 9 1 9 8
M  V30 10 1 10 9
M  V30 11 1 11 10
M  V30 12 1 12 11
M  V30 13 1 13 12
M  V30 14 1 14 13
M  V30 15 1 15 14
M  V30 16 1 16 15
M  V30 17 1 17 16
M  V30 18 1 18 17
M  V30 19 1 19 18
M  V30 20 1 20 19
M  V30 21 2 21 20
M  V30 22 1 22 21
M  V30 23 1 23 22
M  V30 24 2 24 22
M  V30 25 2 25 19
M  V30 26 1 25 24
M  V30 27 1 26 16
M  V30 28 1 26 25
M  V30 29 1 27 12
M  V30 30 1 28 9
M  V30 31 1 28 27
M  V30 32 1 29 1
M  V30 33 1 30 1
M  V30 34 1 31 1
M  V30 35 1 32 4
M  V30 36 1 33 5
M  V30 37 1 34 6
M  V30 38 1 35 7
M  V30 39 1 36 10
M  V30 40 1 37 10
M  V30 41 1 38 11
M  V30 42 1 39 11
M  V30 43 1 40 12
M  V30 44 1 41 13
M  V30 45 1 42 13
M  V30 46 1 43 14
M  V30 47 1 44 15
M  V30 48 1 45 15
M  V30 49 1 16 46 CFG=3
M  V30 50 1 47 17
M  V30 51 1 48 17
M  V30 52 1 49 20
M  V30 53 1 50 21
M  V30 54 1 51 24
M  V30 55 1 52 27
M  V30 56 1 53 27
M  V30 57 1 54 28
M  V30 58 1 55 28
M  V30 59 1 56 14
M  V30 END BOND
M  V30 END CTAB
M  END
>  <b_m_subgroup_collapsed>  (486) 
0

>  <r_i_docking_score>  (486) 
-8.2465541703627991

>  <s_m_subgroup_title>  (486) 
glide-dock_SP_D22_pv

>  <s_m_subgroupid>  (486) 
glide-dock_SP_D22_pv

>  <Molecule ChEMBL ID>  (486) 
CHEMBL418854

>  <Standard Type>  (486) 
Ki

>  <Standard Value>  (486) 
13.2

>  <label>  (486) 
1

$$$$
CHEMBL281195
     RDKit          3D

  0  0  0  0  0  0  0  0  0  0999 V3000
M  V30 BEGIN CTAB
M  V30 COUNTS 51 54 0 0 1
M  V30 BEGIN ATOM
M  V30 1 C 9.209491 6.789120 -6.432785 0
M  V30 2 C 10.346840 7.574364 -7.017213 0
M  V30 3 C 10.743831 7.751459 -8.383045 0
M  V30 4 C 10.213528 7.141572 -9.659486 0 CFG=1
M  V30 5 C 9.199450 5.998268 -9.444679 0
M  V30 6 C 8.661469 5.447794 -10.766507 0
M  V30 7 N 8.086137 6.549757 -11.572690 0 CFG=2 CHG=1
M  V30 8 C 7.283519 6.130490 -12.742764 0
M  V30 9 C 7.776244 4.883435 -13.468919 0
M  V30 10 C 9.008637 4.888244 -14.159803 0
M  V30 11 C 9.434103 3.744796 -14.864914 0
M  V30 12 C 8.618038 2.598116 -14.909737 0
M  V30 13 C 7.376442 2.596591 -14.246747 0
M  V30 14 C 6.963482 3.729646 -13.515388 0
M  V30 15 C 9.072380 7.617746 -11.864942 0
M  V30 16 C 9.599618 8.222508 -10.560665 0
M  V30 17 N 11.783317 8.569950 -8.496690 0
M  V30 18 N 12.085909 8.914456 -7.236632 0
M  V30 19 C 11.285868 8.278230 -6.321444 0
M  V30 20 C 11.566280 8.343906 -4.899450 0
M  V30 21 C 11.686242 9.582577 -4.246878 0
M  V30 22 C 12.017394 9.627367 -2.881465 0
M  V30 23 C 12.225447 8.439051 -2.157558 0
M  V30 24 C 12.085996 7.194606 -2.798719 0
M  V30 25 C 11.752838 7.151590 -4.165310 0
M  V30 26 H 9.177892 5.772347 -6.802751 0
M  V30 27 H 9.285861 6.700714 -5.353946 0
M  V30 28 H 8.246066 7.252235 -6.647480 0
M  V30 29 H 11.061152 6.711495 -10.195381 0
M  V30 30 H 9.660917 5.184396 -8.884620 0
M  V30 31 H 8.343945 6.355786 -8.872018 0
M  V30 32 H 7.894470 4.699211 -10.562337 0
M  V30 33 H 9.462940 4.949939 -11.314321 0
M  V30 34 H 6.264850 5.961894 -12.390777 0
M  V30 35 H 7.232938 6.958226 -13.446830 0
M  V30 36 H 9.633018 5.769117 -14.164095 0
M  V30 37 H 10.381000 3.753148 -15.385157 0
M  V30 38 H 8.942013 1.723472 -15.456467 0
M  V30 39 H 6.744115 1.721427 -14.284928 0
M  V30 40 H 6.010461 3.711114 -13.006094 0
M  V30 41 H 8.611307 8.412569 -12.453012 0
M  V30 42 H 9.898668 7.218312 -12.452589 0
M  V30 43 H 8.797660 8.741222 -10.032252 0
M  V30 44 H 10.351085 8.972796 -10.799304 0
M  V30 45 H 12.893916 9.483846 -7.018470 0
M  V30 46 H 11.527438 10.500901 -4.793393 0
M  V30 47 H 12.085592 10.579530 -2.379375 0
M  V30 48 H 12.467678 8.487596 -1.105199 0
M  V30 49 H 12.229748 6.275044 -2.249667 0
M  V30 50 H 11.660344 6.193228 -4.656341 0
M  V30 51 H 7.401999 7.017523 -10.958822 0
M  V30 END ATOM
M  V30 BEGIN BOND
M  V30 1 1 2 1
M  V30 2 1 3 2
M  V30 3 1 4 3
M  V30 4 1 5 4
M  V30 5 1 6 5
M  V30 6 1 7 6
M  V30 7 1 8 7
M  V30 8 1 9 8
M  V30 9 2 10 9
M  V30 10 1 11 10
M  V30 11 2 12 11
M  V30 12 1 13 12
M  V30 13 1 14 9
M  V30 14 2 14 13
M  V30 15 1 15 7
M  V30 16 1 16 4
M  V30 17 1 16 15
M  V30 18 2 17 3
M  V30 19 1 18 17
M  V30 20 2 19 2
M  V30 21 1 19 18
M  V30 22 1 20 19
M  V30 23 2 21 20
M  V30 24 1 22 21
M  V30 25 2 23 22
M  V30 26 1 24 23
M  V30 27 1 25 20
M  V30 28 2 25 24
M  V30 29 1 26 1
M  V30 30 1 27 1
M  V30 31 1 28 1
M  V30 32 1 4 29 CFG=3
M  V30 33 1 30 5
M  V30 34 1 31 5
M  V30 35 1 32 6
M  V30 36 1 33 6
M  V30 37 1 34 8
M  V30 38 1 35 8
M  V30 39 1 36 10
M  V30 40 1 37 11
M  V30 41 1 38 12
M  V30 42 1 39 13
M  V30 43 1 40 14
M  V30 44 1 41 15
M  V30 45 1 42 15
M  V30 46 1 43 16
M  V30 47 1 44 16
M  V30 48 1 45 18
M  V30 49 1 46 21
M  V30 50 1 47 22
M  V30 51 1 48 23
M  V30 52 1 49 24
M  V30 53 1 50 25
M  V30 54 1 7 51 CFG=1
M  V30 END BOND
M  V30 END CTAB
M  END
>  <b_m_subgroup_collapsed>  (487) 
0

>  <r_i_docking_score>  (487) 
-8.2426383977279496

>  <s_m_subgroup_title>  (487) 
glide-dock_SP_D22_pv

>  <s_m_subgroupid>  (487) 
glide-dock_SP_D22_pv

>  <Molecule ChEMBL ID>  (487) 
CHEMBL281195

>  <Standard Type>  (487) 
Ki

>  <Standard Value>  (487) 
90.0

>  <label>  (487) 
1

$$$$
CHEMBL4071185
     RDKit          3D

  0  0  0  0  0  0  0  0  0  0999 V3000
M  V30 BEGIN CTAB
M  V30 COUNTS 63 66 0 0 1
M  V30 BEGIN ATOM
M  V30 1 C 13.370399 8.171624 -9.328221 0
M  V30 2 C 12.184631 7.982355 -10.289729 0
M  V30 3 C 10.800570 8.314767 -9.699060 0
M  V30 4 N 10.380571 7.372737 -8.616926 0 CFG=2 CHG=1
M  V30 5 C 8.947120 6.973730 -8.680749 0
M  V30 6 C 8.592489 6.128602 -9.920624 0
M  V30 7 C 9.461393 4.878999 -10.099550 0
M  V30 8 C 9.499348 4.390753 -11.555335 0
M  V30 9 O 10.086081 5.438994 -12.320181 0
M  V30 10 C 10.807739 5.127916 -13.449427 0
M  V30 11 C 10.701893 3.888729 -14.147321 0
M  V30 12 C 11.455086 3.646039 -15.274995 0
M  V30 13 C 12.340750 4.649732 -15.756255 0
M  V30 14 C 13.227487 4.793194 -16.790752 0
M  V30 15 C 13.516094 3.776678 -17.785290 0
M  V30 16 O 14.387171 3.856061 -18.649143 0
M  V30 17 C 13.769773 6.091560 -16.639317 0
M  V30 18 N 13.285241 6.746315 -15.607150 0
M  V30 19 N 12.401911 5.861528 -15.037866 0
M  V30 20 C 11.665724 6.096973 -13.919572 0
M  V30 21 C 10.799700 7.847300 -7.268549 0 CFG=1
M  V30 22 C 9.934541 8.974807 -6.696472 0
M  V30 23 C 10.706601 9.655353 -5.563660 0
M  V30 24 C 11.302466 8.660774 -4.576325 0
M  V30 25 C 11.769327 9.117129 -3.330976 0
M  V30 26 O 11.686033 10.429522 -3.046783 0
M  V30 27 C 12.315856 8.246219 -2.374100 0
M  V30 28 C 12.407099 6.881371 -2.671158 0
M  V30 29 C 11.970636 6.423075 -3.924025 0
M  V30 30 C 11.416576 7.286475 -4.884127 0
M  V30 31 C 10.978431 6.727232 -6.230981 0
M  V30 32 H 14.324572 8.174144 -9.856079 0
M  V30 33 H 13.290544 9.091146 -8.758453 0
M  V30 34 H 13.429374 7.386657 -8.584743 0
M  V30 35 H 12.185179 6.972620 -10.696897 0
M  V30 36 H 12.348917 8.642012 -11.141903 0
M  V30 37 H 10.090713 8.294823 -10.523990 0
M  V30 38 H 10.785759 9.348989 -9.353404 0
M  V30 39 H 8.662826 6.408238 -7.793771 0
M  V30 40 H 8.366182 7.890737 -8.661817 0
M  V30 41 H 7.563632 5.785021 -9.848334 0
M  V30 42 H 8.613716 6.751637 -10.813719 0
M  V30 43 H 10.480861 5.076241 -9.781796 0
M  V30 44 H 9.095714 4.101317 -9.432759 0
M  V30 45 H 10.085979 3.471830 -11.593152 0
M  V30 46 H 8.495865 4.172608 -11.924196 0
M  V30 47 H 10.024588 3.112459 -13.804273 0
M  V30 48 H 11.378853 2.697967 -15.798218 0
M  V30 49 H 12.883883 2.891678 -17.706015 0
M  V30 50 H 14.508826 6.563529 -17.270077 0
M  V30 51 H 11.795769 7.062508 -13.443978 0
M  V30 52 H 11.788581 8.277882 -7.374312 0
M  V30 53 H 8.990230 8.576674 -6.322083 0
M  V30 54 H 9.685061 9.719257 -7.450268 0
M  V30 55 H 10.067936 10.365396 -5.042987 0
M  V30 56 H 11.528451 10.242645 -5.976869 0
M  V30 57 H 12.221560 10.694826 -2.309988 0
M  V30 58 H 12.658050 8.619597 -1.419587 0
M  V30 59 H 12.823107 6.188133 -1.953561 0
M  V30 60 H 12.085099 5.381172 -4.164135 0
M  V30 61 H 11.720941 6.008307 -6.580318 0
M  V30 62 H 10.051124 6.175426 -6.071474 0
M  V30 63 H 10.894946 6.521914 -8.787899 0
M  V30 END ATOM
M  V30 BEGIN BOND
M  V30 1 1 2 1
M  V30 2 1 3 2
M  V30 3 1 4 3
M  V30 4 1 5 4
M  V30 5 1 6 5
M  V30 6 1 7 6
M  V30 7 1 8 7
M  V30 8 1 9 8
M  V30 9 1 10 9
M  V30 10 1 11 10
M  V30 11 2 12 11
M  V30 12 1 13 12
M  V30 13 2 14 13
M  V30 14 1 15 14
M  V30 15 2 16 15
M  V30 16 1 17 14
M  V30 17 2 18 17
M  V30 18 1 19 13
M  V30 19 1 19 18
M  V30 20 2 20 10
M  V30 21 1 20 19
M  V30 22 1 21 4
M  V30 23 1 22 21
M  V30 24 1 23 22
M  V30 25 1 24 23
M  V30 26 2 25 24
M  V30 27 1 26 25
M  V30 28 1 27 25
M  V30 29 2 28 27
M  V30 30 1 29 28
M  V30 31 1 30 24
M  V30 32 2 30 29
M  V30 33 1 31 21
M  V30 34 1 31 30
M  V30 35 1 32 1
M  V30 36 1 33 1
M  V30 37 1 34 1
M  V30 38 1 35 2
M  V30 39 1 36 2
M  V30 40 1 37 3
M  V30 41 1 38 3
M  V30 42 1 39 5
M  V30 43 1 40 5
M  V30 44 1 41 6
M  V30 45 1 42 6
M  V30 46 1 43 7
M  V30 47 1 44 7
M  V30 48 1 45 8
M  V30 49 1 46 8
M  V30 50 1 47 11
M  V30 51 1 48 12
M  V30 52 1 49 15
M  V30 53 1 50 17
M  V30 54 1 51 20
M  V30 55 1 21 52 CFG=3
M  V30 56 1 53 22
M  V30 57 1 54 22
M  V30 58 1 55 23
M  V30 59 1 56 23
M  V30 60 1 57 26
M  V30 61 1 58 27
M  V30 62 1 59 28
M  V30 63 1 60 29
M  V30 64 1 61 31
M  V30 65 1 62 31
M  V30 66 1 4 63 CFG=3
M  V30 END BOND
M  V30 END CTAB
M  END
>  <b_m_subgroup_collapsed>  (488) 
0

>  <r_i_docking_score>  (488) 
-8.2385534070563207

>  <s_m_subgroup_title>  (488) 
glide-dock_SP_D22_pv

>  <s_m_subgroupid>  (488) 
glide-dock_SP_D22_pv

>  <Molecule ChEMBL ID>  (488) 
CHEMBL4071185

>  <Standard Type>  (488) 
Ki

>  <Standard Value>  (488) 
0.94

>  <label>  (488) 
1

$$$$
CHEMBL127234
     RDKit          3D

  0  0  0  0  0  0  0  0  0  0999 V3000
M  V30 BEGIN CTAB
M  V30 COUNTS 65 68 0 0 1
M  V30 BEGIN ATOM
M  V30 1 C 11.763899 11.058069 -6.144098 0
M  V30 2 O 11.149376 9.795977 -6.272034 0
M  V30 3 C 11.395066 8.881243 -5.271190 0
M  V30 4 C 12.123946 9.185156 -4.089449 0
M  V30 5 C 12.425329 8.198567 -3.137307 0
M  V30 6 C 12.018369 6.878037 -3.363208 0
M  V30 7 C 11.284442 6.572340 -4.520489 0
M  V30 8 C 10.929921 7.560736 -5.461859 0
M  V30 9 N 10.135580 7.208430 -6.569793 0
M  V30 10 C 10.653343 6.245047 -7.524235 0
M  V30 11 C 10.789015 6.910030 -8.901801 0
M  V30 12 N 9.495598 7.501428 -9.338230 0 CHG=1
M  V30 13 C 9.496937 8.013210 -10.734170 0
M  V30 14 C 10.134261 7.093904 -11.776749 0
M  V30 15 C 11.465646 7.372276 -12.161556 0
M  V30 16 C 12.086197 6.665622 -13.203791 0
M  V30 17 C 11.395126 5.629803 -13.845743 0
M  V30 18 C 10.086180 5.310202 -13.444728 0
M  V30 19 C 9.435458 6.026109 -12.404258 0
M  V30 20 C 8.001205 5.659367 -12.001513 0
M  V30 21 N 7.597714 4.363983 -12.539407 0
M  V30 22 C 6.356766 3.886544 -12.678535 0
M  V30 23 O 5.357366 4.450774 -12.247648 0
M  V30 24 C 6.369794 2.662955 -13.456507 0
M  V30 25 C 5.341258 1.790056 -13.420921 0
M  V30 26 C 5.228548 0.571384 -14.244810 0
M  V30 27 C 4.013141 -0.149281 -14.235719 0
M  V30 28 C 3.814137 -1.227833 -15.116302 0
M  V30 29 C 4.819055 -1.599393 -16.023548 0
M  V30 30 C 6.029950 -0.888041 -16.043276 0
M  V30 31 C 6.243787 0.173810 -15.147021 0
M  V30 32 C 9.042787 8.533131 -8.368389 0
M  V30 33 C 8.938891 7.962623 -6.940470 0
M  V30 34 H 11.669762 11.656881 -7.045798 0
M  V30 35 H 11.286351 11.585904 -5.317698 0
M  V30 36 H 12.834002 10.959473 -5.966987 0
M  V30 37 H 12.486238 10.172245 -3.879323 0
M  V30 38 H 12.978467 8.456607 -2.247046 0
M  V30 39 H 12.243274 6.104722 -2.642773 0
M  V30 40 H 10.927336 5.568605 -4.647326 0
M  V30 41 H 9.959226 5.408298 -7.577517 0
M  V30 42 H 11.615163 5.847754 -7.195876 0
M  V30 43 H 11.131796 6.171443 -9.614742 0
M  V30 44 H 11.553947 7.687399 -8.871206 0
M  V30 45 H 10.032997 8.961153 -10.748464 0
M  V30 46 H 8.485833 8.255395 -11.046595 0
M  V30 47 H 12.013929 8.172250 -11.685137 0
M  V30 48 H 13.086944 6.928154 -13.515523 0
M  V30 49 H 11.866032 5.082287 -14.650281 0
M  V30 50 H 9.593513 4.512398 -13.980056 0
M  V30 51 H 7.321996 6.437383 -12.358387 0
M  V30 52 H 7.910821 5.629275 -10.912786 0
M  V30 53 H 8.345239 3.792560 -12.904563 0
M  V30 54 H 7.220442 2.475786 -14.095279 0
M  V30 55 H 4.510775 1.989974 -12.754408 0
M  V30 56 H 3.206635 0.145252 -13.580261 0
M  V30 57 H 2.887316 -1.775221 -15.113871 0
M  V30 58 H 4.657167 -2.427068 -16.700302 0
M  V30 59 H 6.806572 -1.167657 -16.739719 0
M  V30 60 H 7.185847 0.695056 -15.200723 0
M  V30 61 H 9.754946 9.358073 -8.379222 0
M  V30 62 H 8.086367 8.965261 -8.665668 0
M  V30 63 H 8.086246 7.286106 -6.874788 0
M  V30 64 H 8.739980 8.776540 -6.246845 0
M  V30 65 H 8.799076 6.768607 -9.306233 0
M  V30 END ATOM
M  V30 BEGIN BOND
M  V30 1 1 2 1
M  V30 2 1 3 2
M  V30 3 2 4 3
M  V30 4 1 5 4
M  V30 5 2 6 5
M  V30 6 1 7 6
M  V30 7 1 8 3
M  V30 8 2 8 7
M  V30 9 1 9 8
M  V30 10 1 10 9
M  V30 11 1 11 10
M  V30 12 1 12 11
M  V30 13 1 13 12
M  V30 14 1 14 13
M  V30 15 2 15 14
M  V30 16 1 16 15
M  V30 17 2 17 16
M  V30 18 1 18 17
M  V30 19 1 19 14
M  V30 20 2 19 18
M  V30 21 1 20 19
M  V30 22 1 21 20
M  V30 23 1 22 21
M  V30 24 2 23 22
M  V30 25 1 24 22
M  V30 26 2 25 24
M  V30 27 1 26 25
M  V30 28 2 27 26
M  V30 29 1 28 27
M  V30 30 2 29 28
M  V30 31 1 30 29
M  V30 32 1 31 26
M  V30 33 2 31 30
M  V30 34 1 32 12
M  V30 35 1 33 9
M  V30 36 1 33 32
M  V30 37 1 34 1
M  V30 38 1 35 1
M  V30 39 1 36 1
M  V30 40 1 37 4
M  V30 41 1 38 5
M  V30 42 1 39 6
M  V30 43 1 40 7
M  V30 44 1 41 10
M  V30 45 1 42 10
M  V30 46 1 43 11
M  V30 47 1 44 11
M  V30 48 1 45 13
M  V30 49 1 46 13
M  V30 50 1 47 15
M  V30 51 1 48 16
M  V30 52 1 49 17
M  V30 53 1 50 18
M  V30 54 1 51 20
M  V30 55 1 52 20
M  V30 56 1 53 21
M  V30 57 1 54 24
M  V30 58 1 55 25
M  V30 59 1 56 27
M  V30 60 1 57 28
M  V30 61 1 58 29
M  V30 62 1 59 30
M  V30 63 1 60 31
M  V30 64 1 61 32
M  V30 65 1 62 32
M  V30 66 1 63 33
M  V30 67 1 64 33
M  V30 68 1 65 12
M  V30 END BOND
M  V30 END CTAB
M  END
>  <b_m_subgroup_collapsed>  (489) 
0

>  <r_i_docking_score>  (489) 
-8.2374722837627505

>  <s_m_subgroup_title>  (489) 
glide-dock_SP_D22_pv

>  <s_m_subgroupid>  (489) 
glide-dock_SP_D22_pv

>  <Molecule ChEMBL ID>  (489) 
CHEMBL127234

>  <Standard Type>  (489) 
Ki

>  <Standard Value>  (489) 
18.0

>  <label>  (489) 
1

$$$$
CHEMBL5434856
     RDKit          3D

  0  0  0  0  0  0  0  0  0  0999 V3000
M  V30 BEGIN CTAB
M  V30 COUNTS 52 55 0 0 1
M  V30 BEGIN ATOM
M  V30 1 C 5.525320 -0.915630 -14.671132 0
M  V30 2 O 5.086959 -0.047271 -13.636726 0
M  V30 3 C 5.686546 1.189041 -13.543769 0
M  V30 4 C 5.234415 2.061921 -12.540473 0
M  V30 5 C 5.785293 3.337392 -12.403809 0
M  V30 6 C 6.824453 3.699949 -13.272938 0
M  V30 7 C 7.598096 4.975888 -13.041245 0 CFG=1
M  V30 8 C 6.712876 6.167160 -12.646867 0
M  V30 9 C 7.594519 7.411071 -12.505960 0
M  V30 10 N 8.625150 7.218079 -11.458370 0 CFG=2 CHG=1
M  V30 11 C 9.409329 8.459182 -11.237556 0
M  V30 12 C 10.207752 8.473033 -9.921166 0
M  V30 13 C 9.310375 8.442476 -8.678869 0
M  V30 14 C 10.088098 8.313675 -7.415256 0
M  V30 15 N 10.482896 9.372511 -6.700636 0
M  V30 16 C 11.030809 8.951117 -5.495936 0
M  V30 17 C 11.424128 9.772106 -4.415504 0
M  V30 18 C 11.963031 9.214925 -3.237946 0
M  V30 19 C 12.091540 7.817442 -3.114211 0
M  V30 20 C 11.686247 6.975275 -4.166926 0
M  V30 21 C 11.166007 7.541022 -5.345297 0
M  V30 22 S 10.568213 6.735970 -6.790514 0
M  V30 23 C 9.477344 6.021036 -11.697365 0
M  V30 24 C 8.648304 4.756092 -11.942883 0
M  V30 25 N 7.287658 2.886145 -14.246660 0
M  V30 26 C 6.726014 1.663461 -14.381628 0
M  V30 27 H 4.933454 -1.829159 -14.646146 0
M  V30 28 H 5.387755 -0.469712 -15.657004 0
M  V30 29 H 6.571886 -1.192230 -14.541242 0
M  V30 30 H 4.486036 1.772554 -11.832984 0
M  V30 31 H 5.453950 3.972867 -11.595546 0
M  V30 32 H 8.107310 5.220067 -13.975228 0
M  V30 33 H 5.912625 6.322119 -13.374404 0
M  V30 34 H 6.212158 5.986794 -11.696027 0
M  V30 35 H 6.973976 8.271667 -12.248084 0
M  V30 36 H 8.078175 7.624284 -13.446715 0
M  V30 37 H 10.086001 8.572233 -12.081817 0
M  V30 38 H 8.739105 9.320950 -11.247584 0
M  V30 39 H 10.917079 7.646767 -9.893906 0
M  V30 40 H 10.820982 9.374518 -9.884476 0
M  V30 41 H 8.697054 9.344698 -8.629710 0
M  V30 42 H 8.615965 7.602947 -8.724154 0
M  V30 43 H 11.286095 10.838990 -4.498116 0
M  V30 44 H 12.257930 9.858781 -2.421785 0
M  V30 45 H 12.490530 7.393459 -2.204664 0
M  V30 46 H 11.763641 5.901562 -4.071367 0
M  V30 47 H 10.117846 5.839574 -10.836474 0
M  V30 48 H 10.131454 6.201925 -12.552258 0
M  V30 49 H 8.154547 4.463691 -11.014799 0
M  V30 50 H 9.309168 3.929336 -12.209158 0
M  V30 51 H 7.133240 1.060938 -15.178273 0
M  V30 52 H 8.039789 7.082932 -10.634740 0
M  V30 END ATOM
M  V30 BEGIN BOND
M  V30 1 1 2 1
M  V30 2 1 3 2
M  V30 3 1 4 3
M  V30 4 2 5 4
M  V30 5 1 6 5
M  V30 6 1 7 6
M  V30 7 1 8 7
M  V30 8 1 9 8
M  V30 9 1 10 9
M  V30 10 1 11 10
M  V30 11 1 12 11
M  V30 12 1 13 12
M  V30 13 1 14 13
M  V30 14 2 15 14
M  V30 15 1 16 15
M  V30 16 2 17 16
M  V30 17 1 18 17
M  V30 18 2 19 18
M  V30 19 1 20 19
M  V30 20 1 21 16
M  V30 21 2 21 20
M  V30 22 1 22 14
M  V30 23 1 22 21
M  V30 24 1 23 10
M  V30 25 1 24 7
M  V30 26 1 24 23
M  V30 27 2 25 6
M  V30 28 2 26 3
M  V30 29 1 26 25
M  V30 30 1 27 1
M  V30 31 1 28 1
M  V30 32 1 29 1
M  V30 33 1 30 4
M  V30 34 1 31 5
M  V30 35 1 7 32 CFG=3
M  V30 36 1 33 8
M  V30 37 1 34 8
M  V30 38 1 35 9
M  V30 39 1 36 9
M  V30 40 1 37 11
M  V30 41 1 38 11
M  V30 42 1 39 12
M  V30 43 1 40 12
M  V30 44 1 41 13
M  V30 45 1 42 13
M  V30 46 1 43 17
M  V30 47 1 44 18
M  V30 48 1 45 19
M  V30 49 1 46 20
M  V30 50 1 47 23
M  V30 51 1 48 23
M  V30 52 1 49 24
M  V30 53 1 50 24
M  V30 54 1 51 26
M  V30 55 1 10 52 CFG=1
M  V30 END BOND
M  V30 END CTAB
M  END
>  <b_m_subgroup_collapsed>  (490) 
0

>  <r_i_docking_score>  (490) 
-8.2360013642952197

>  <s_m_subgroup_title>  (490) 
glide-dock_SP_D22_pv

>  <s_m_subgroupid>  (490) 
glide-dock_SP_D22_pv

>  <Molecule ChEMBL ID>  (490) 
CHEMBL5434856

>  <Standard Type>  (490) 
Ki

>  <Standard Value>  (490) 
17400.0

>  <label>  (490) 
0

$$$$
CHEMBL3676910
     RDKit          3D

  0  0  0  0  0  0  0  0  0  0999 V3000
M  V30 BEGIN CTAB
M  V30 COUNTS 79 84 0 0 1
M  V30 BEGIN ATOM
M  V30 1 O 9.397305 8.704214 -11.080478 0
M  V30 2 C 9.798832 7.737215 -10.439897 0
M  V30 3 N 10.085980 6.552595 -10.995846 0
M  V30 4 C 10.199333 6.328516 -12.434663 0 CFG=1
M  V30 5 C 11.621784 6.702515 -12.923800 0
M  V30 6 C 11.877073 6.324430 -14.388693 0
M  V30 7 C 11.571612 4.840564 -14.672779 0 CFG=2
M  V30 8 C 11.861951 4.531603 -16.159670 0
M  V30 9 C 11.975181 3.038430 -16.544333 0
M  V30 10 N 10.692561 2.290004 -16.492393 0 CFG=2 CHG=1
M  V30 11 C 10.888573 0.817423 -16.536209 0
M  V30 12 C 9.561187 0.081705 -16.263786 0
M  V30 13 C 8.490070 0.505608 -17.287878 0 CFG=1
M  V30 14 C 7.160416 -0.169436 -17.083778 0
M  V30 15 C 6.532629 -0.983129 -18.000439 0
M  V30 16 O 5.312084 -1.420538 -17.566669 0
M  V30 17 C 5.124045 -0.881468 -16.315084 0
M  V30 18 C 3.994884 -1.027717 -15.490983 0
M  V30 19 C 3.978609 -0.371016 -14.247017 0
M  V30 20 C 5.098299 0.392804 -13.845249 0
M  V30 21 C 6.225474 0.523182 -14.688883 0
M  V30 22 C 6.257607 -0.102125 -15.960086 0
M  V30 23 C 8.347158 2.036017 -17.281483 0
M  V30 24 C 9.698344 2.730017 -17.503036 0
M  V30 25 C 10.120653 4.525777 -14.239597 0
M  V30 26 C 9.876605 4.861523 -12.759972 0
M  V30 27 C 10.149884 7.866535 -8.990199 0
M  V30 28 C 10.896299 8.971939 -8.544313 0
M  V30 29 C 11.277305 9.041217 -7.191902 0
M  V30 30 C 10.885809 8.002955 -6.308880 0
M  V30 31 N 11.285868 7.982411 -4.952969 0
M  V30 32 C 12.124330 9.071061 -4.458378 0
M  V30 33 C 12.239907 9.018554 -2.927880 0
M  V30 34 O 12.729536 7.748820 -2.535822 0
M  V30 35 C 11.824178 6.710624 -2.874526 0
M  V30 36 C 11.600960 6.661543 -4.397591 0
M  V30 37 N 10.122272 6.971187 -6.738141 0
M  V30 38 C 9.758953 6.906267 -8.037237 0
M  V30 39 H 10.395465 5.809228 -10.386191 0
M  V30 40 H 9.471672 6.965498 -12.937688 0
M  V30 41 H 11.797063 7.769689 -12.787855 0
M  V30 42 H 12.380929 6.205577 -12.324964 0
M  V30 43 H 11.289981 6.962553 -15.045021 0
M  V30 44 H 12.920298 6.537352 -14.624345 0
M  V30 45 H 12.247699 4.238228 -14.064445 0
M  V30 46 H 11.162149 5.067198 -16.800066 0
M  V30 47 H 12.832570 4.971531 -16.398876 0
M  V30 48 H 12.390680 2.948663 -17.548344 0
M  V30 49 H 12.694469 2.569803 -15.876183 0
M  V30 50 H 11.281557 0.534210 -17.513615 0
M  V30 51 H 11.647705 0.520247 -15.808052 0
M  V30 52 H 9.721419 -0.996019 -16.317593 0
M  V30 53 H 9.223507 0.290059 -15.248521 0
M  V30 54 H 8.861924 0.222499 -18.273741 0
M  V30 55 H 6.808433 -1.328001 -18.985828 0
M  V30 56 H 3.159922 -1.633996 -15.817486 0
M  V30 57 H 3.109780 -0.450214 -13.609781 0
M  V30 58 H 5.085332 0.897731 -12.890879 0
M  V30 59 H 7.060906 1.122620 -14.364697 0
M  V30 60 H 7.657759 2.343235 -18.065138 0
M  V30 61 H 7.914073 2.372754 -16.336939 0
M  V30 62 H 9.537215 3.806677 -17.454704 0
M  V30 63 H 10.075910 2.511236 -18.503870 0
M  V30 64 H 9.415252 5.081958 -14.861115 0
M  V30 65 H 9.887370 3.471098 -14.368043 0
M  V30 66 H 10.485320 4.194940 -12.148604 0
M  V30 67 H 8.837361 4.649081 -12.500985 0
M  V30 68 H 11.210678 9.743053 -9.235415 0
M  V30 69 H 11.884116 9.875428 -6.876895 0
M  V30 70 H 13.114655 9.011701 -4.912442 0
M  V30 71 H 11.692368 10.034294 -4.730215 0
M  V30 72 H 12.940829 9.772302 -2.582881 0
M  V30 73 H 11.286176 9.225512 -2.445197 0
M  V30 74 H 12.245805 5.771838 -2.524428 0
M  V30 75 H 10.887281 6.846025 -2.338292 0
M  V30 76 H 10.798306 5.953389 -4.596373 0
M  V30 77 H 12.485774 6.278126 -4.901372 0
M  V30 78 H 9.168071 6.048799 -8.322626 0
M  V30 79 H 10.298361 2.491650 -15.584354 0
M  V30 END ATOM
M  V30 BEGIN BOND
M  V30 1 2 2 1
M  V30 2 1 3 2
M  V30 3 1 4 3
M  V30 4 1 5 4
M  V30 5 1 6 5
M  V30 6 1 7 6
M  V30 7 1 8 7
M  V30 8 1 9 8
M  V30 9 1 10 9
M  V30 10 1 11 10
M  V30 11 1 12 11
M  V30 12 1 13 12
M  V30 13 1 14 13
M  V30 14 2 15 14
M  V30 15 1 16 15
M  V30 16 1 17 16
M  V30 17 2 18 17
M  V30 18 1 19 18
M  V30 19 2 20 19
M  V30 20 1 21 20
M  V30 21 1 22 14
M  V30 22 1 22 17
M  V30 23 2 22 21
M  V30 24 1 23 13
M  V30 25 1 24 10
M  V30 26 1 24 23
M  V30 27 1 25 7
M  V30 28 1 26 4
M  V30 29 1 26 25
M  V30 30 1 27 2
M  V30 31 1 28 27
M  V30 32 2 29 28
M  V30 33 1 30 29
M  V30 34 1 31 30
M  V30 35 1 32 31
M  V30 36 1 33 32
M  V30 37 1 34 33
M  V30 38 1 35 34
M  V30 39 1 36 31
M  V30 40 1 36 35
M  V30 41 2 37 30
M  V30 42 2 38 27
M  V30 43 1 38 37
M  V30 44 1 39 3
M  V30 45 1 4 40 CFG=3
M  V30 46 1 41 5
M  V30 47 1 42 5
M  V30 48 1 43 6
M  V30 49 1 44 6
M  V30 50 1 7 45 CFG=1
M  V30 51 1 46 8
M  V30 52 1 47 8
M  V30 53 1 48 9
M  V30 54 1 49 9
M  V30 55 1 50 11
M  V30 56 1 51 11
M  V30 57 1 52 12
M  V30 58 1 53 12
M  V30 59 1 13 54 CFG=3
M  V30 60 1 55 15
M  V30 61 1 56 18
M  V30 62 1 57 19
M  V30 63 1 58 20
M  V30 64 1 59 21
M  V30 65 1 60 23
M  V30 66 1 61 23
M  V30 67 1 62 24
M  V30 68 1 63 24
M  V30 69 1 64 25
M  V30 70 1 65 25
M  V30 71 1 66 26
M  V30 72 1 67 26
M  V30 73 1 68 28
M  V30 74 1 69 29
M  V30 75 1 70 32
M  V30 76 1 71 32
M  V30 77 1 72 33
M  V30 78 1 73 33
M  V30 79 1 74 35
M  V30 80 1 75 35
M  V30 81 1 76 36
M  V30 82 1 77 36
M  V30 83 1 78 38
M  V30 84 1 10 79 CFG=1
M  V30 END BOND
M  V30 END CTAB
M  END
>  <b_m_subgroup_collapsed>  (491) 
0

>  <r_i_docking_score>  (491) 
-8.2359862597631608

>  <s_m_subgroup_title>  (491) 
glide-dock_SP_D22_pv

>  <s_m_subgroupid>  (491) 
glide-dock_SP_D22_pv

>  <Molecule ChEMBL ID>  (491) 
CHEMBL3676910

>  <Standard Type>  (491) 
Ki

>  <Standard Value>  (491) 
51.8

>  <label>  (491) 
1

$$$$
CHEMBL357807
     RDKit          3D

  0  0  0  0  0  0  0  0  0  0999 V3000
M  V30 BEGIN CTAB
M  V30 COUNTS 58 61 0 0 1
M  V30 BEGIN ATOM
M  V30 1 C 10.197069 -0.561504 -16.525652 0
M  V30 2 O 8.852113 -0.201157 -16.259563 0
M  V30 3 C 8.626464 0.968386 -15.567308 0
M  V30 4 C 7.285681 1.331166 -15.329935 0
M  V30 5 C 6.973059 2.521834 -14.645051 0
M  V30 6 C 7.992935 3.369651 -14.175714 0
M  V30 7 C 9.339488 3.005557 -14.405283 0
M  V30 8 C 9.654041 1.817703 -15.092055 0
M  V30 9 C 10.456918 3.891623 -13.917379 0
M  V30 10 C 9.941117 5.282367 -13.562421 0
M  V30 11 C 8.611116 5.238300 -12.768565 0 CFG=2
M  V30 12 C 8.047203 6.653240 -12.522707 0
M  V30 13 C 8.886230 7.450990 -11.508636 0
M  V30 14 N 8.886027 6.746900 -10.206929 0 CFG=2 CHG=1
M  V30 15 C 9.515749 7.517848 -9.115359 0
M  V30 16 C 8.945484 7.116104 -7.738794 0
M  V30 17 C 10.009615 6.951723 -6.642504 0
M  V30 18 C 10.714185 8.253304 -6.246838 0
M  V30 19 O 10.716126 9.220719 -7.008270 0
M  V30 20 C 11.325204 8.290429 -4.899002 0
M  V30 21 C 11.550312 9.544917 -4.299057 0
M  V30 22 C 12.085864 9.619376 -3.004495 0
M  V30 23 C 12.420846 8.454309 -2.299828 0
M  V30 24 F 12.921635 8.558647 -1.046924 0
M  V30 25 C 12.226575 7.195799 -2.899059 0
M  V30 26 C 11.686030 7.112648 -4.198781 0
M  V30 27 C 9.433205 5.372846 -10.323821 0
M  V30 28 C 8.711360 4.540051 -11.393912 0
M  V30 29 O 7.629916 4.542813 -13.543409 0
M  V30 30 H 10.221865 -1.536850 -17.010098 0
M  V30 31 H 10.670660 0.155898 -17.197479 0
M  V30 32 H 10.777317 -0.627505 -15.604359 0
M  V30 33 H 6.490136 0.691354 -15.683754 0
M  V30 34 H 5.943764 2.792218 -14.470569 0
M  V30 35 H 10.696909 1.584520 -15.246971 0
M  V30 36 H 10.886094 3.410616 -13.046842 0
M  V30 37 H 11.244609 3.958028 -14.669124 0
M  V30 38 H 9.751051 5.772408 -14.513717 0
M  V30 39 H 10.718566 5.851588 -13.054299 0
M  V30 40 H 7.024924 6.571818 -12.146891 0
M  V30 41 H 7.961768 7.210066 -13.446795 0
M  V30 42 H 8.454061 8.444705 -11.391560 0
M  V30 43 H 9.906404 7.601395 -11.861730 0
M  V30 44 H 9.334454 8.584717 -9.260924 0
M  V30 45 H 10.598554 7.386137 -9.156805 0
M  V30 46 H 8.389801 6.180274 -7.802299 0
M  V30 47 H 8.208014 7.855719 -7.423193 0
M  V30 48 H 10.756998 6.220334 -6.949493 0
M  V30 49 H 9.522026 6.548628 -5.754752 0
M  V30 50 H 11.286345 10.459471 -4.811329 0
M  V30 51 H 12.216624 10.577600 -2.536177 0
M  V30 52 H 12.482733 6.294081 -2.360784 0
M  V30 53 H 11.540669 6.135723 -4.636178 0
M  V30 54 H 10.485842 5.457024 -10.570086 0
M  V30 55 H 9.379910 4.852613 -9.367748 0
M  V30 56 H 7.706360 4.310021 -11.035339 0
M  V30 57 H 9.227530 3.588850 -11.496986 0
M  V30 58 H 7.895307 6.707584 -9.969053 0
M  V30 END ATOM
M  V30 BEGIN BOND
M  V30 1 1 2 1
M  V30 2 1 3 2
M  V30 3 1 4 3
M  V30 4 2 5 4
M  V30 5 1 6 5
M  V30 6 2 7 6
M  V30 7 2 8 3
M  V30 8 1 8 7
M  V30 9 1 9 7
M  V30 10 1 10 9
M  V30 11 1 11 10
M  V30 12 1 12 11
M  V30 13 1 13 12
M  V30 14 1 14 13
M  V30 15 1 15 14
M  V30 16 1 16 15
M  V30 17 1 17 16
M  V30 18 1 18 17
M  V30 19 2 19 18
M  V30 20 1 20 18
M  V30 21 1 21 20
M  V30 22 2 22 21
M  V30 23 1 23 22
M  V30 24 1 24 23
M  V30 25 2 25 23
M  V30 26 2 26 20
M  V30 27 1 26 25
M  V30 28 1 27 14
M  V30 29 1 28 11
M  V30 30 1 28 27
M  V30 31 1 29 6
M  V30 32 1 11 29 CFG=3
M  V30 33 1 30 1
M  V30 34 1 31 1
M  V30 35 1 32 1
M  V30 36 1 33 4
M  V30 37 1 34 5
M  V30 38 1 35 8
M  V30 39 1 36 9
M  V30 40 1 37 9
M  V30 41 1 38 10
M  V30 42 1 39 10
M  V30 43 1 40 12
M  V30 44 1 41 12
M  V30 45 1 42 13
M  V30 46 1 43 13
M  V30 47 1 44 15
M  V30 48 1 45 15
M  V30 49 1 46 16
M  V30 50 1 47 16
M  V30 51 1 48 17
M  V30 52 1 49 17
M  V30 53 1 50 21
M  V30 54 1 51 22
M  V30 55 1 52 25
M  V30 56 1 53 26
M  V30 57 1 54 27
M  V30 58 1 55 27
M  V30 59 1 56 28
M  V30 60 1 57 28
M  V30 61 1 14 58 CFG=1
M  V30 END BOND
M  V30 END CTAB
M  END
>  <b_m_subgroup_collapsed>  (492) 
0

>  <r_i_docking_score>  (492) 
-8.2321755738028592

>  <s_m_subgroup_title>  (492) 
glide-dock_SP_D22_pv

>  <s_m_subgroupid>  (492) 
glide-dock_SP_D22_pv

>  <Molecule ChEMBL ID>  (492) 
CHEMBL357807

>  <Standard Type>  (492) 
Ki

>  <Standard Value>  (492) 
2.0

>  <label>  (492) 
1

$$$$
CHEMBL2112912
     RDKit          3D

  0  0  0  0  0  0  0  0  0  0999 V3000
M  V30 BEGIN CTAB
M  V30 COUNTS 45 48 0 0 1
M  V30 BEGIN ATOM
M  V30 1 C 10.756221 7.597480 -8.344623 0
M  V30 2 C 10.220023 7.447084 -7.120674 0
M  V30 3 C 10.812453 8.103564 -5.957217 0
M  V30 4 C 11.289079 7.328151 -4.881605 0
M  V30 5 C 11.797501 7.965511 -3.732742 0
M  V30 6 C 11.785297 9.371555 -3.645728 0
M  V30 7 C 11.290618 10.137766 -4.721128 0
M  V30 8 C 10.842522 9.507009 -5.892374 0
M  V30 9 C 8.913667 6.704637 -6.959714 0
M  V30 10 C 8.692851 5.691267 -8.082375 0
M  V30 11 N 8.873015 6.298121 -9.425789 0 CFG=2 CHG=1
M  V30 12 C 8.587581 5.307135 -10.492367 0
M  V30 13 C 8.375453 5.931787 -11.882079 0
M  V30 14 C 8.260624 4.858699 -12.916775 0
M  V30 15 C 7.126556 4.167691 -13.269303 0
M  V30 16 N 7.457258 3.204273 -14.210126 0
M  V30 17 C 8.803089 3.257834 -14.504786 0
M  V30 18 N 9.481354 2.467303 -15.382889 0
M  V30 19 C 10.801944 2.740694 -15.477489 0
M  V30 20 C 11.458944 3.756020 -14.748867 0
M  V30 21 C 10.714890 4.545410 -13.851068 0
M  V30 22 C 9.331250 4.307774 -13.705559 0
M  V30 23 C 10.184460 6.981029 -9.610784 0
M  V30 24 H 11.671159 8.159967 -8.464434 0
M  V30 25 H 11.259804 6.249675 -4.929287 0
M  V30 26 H 12.172569 7.378571 -2.907443 0
M  V30 27 H 12.151634 9.861704 -2.754943 0
M  V30 28 H 11.285164 11.214494 -4.661884 0
M  V30 29 H 10.482997 10.102830 -6.717086 0
M  V30 30 H 8.910422 6.173458 -6.007481 0
M  V30 31 H 8.108814 7.435741 -6.909506 0
M  V30 32 H 9.382965 4.856739 -7.956015 0
M  V30 33 H 7.686958 5.285305 -7.985450 0
M  V30 34 H 9.398405 4.575190 -10.523133 0
M  V30 35 H 7.686614 4.747611 -10.234294 0
M  V30 36 H 7.479252 6.553712 -11.872760 0
M  V30 37 H 9.198344 6.595715 -12.142938 0
M  V30 38 H 6.113751 4.272196 -12.906392 0
M  V30 39 H 6.798990 2.549900 -14.604389 0
M  V30 40 H 11.359879 2.125433 -16.167286 0
M  V30 41 H 12.518178 3.922296 -14.878222 0
M  V30 42 H 11.194446 5.322421 -13.276711 0
M  V30 43 H 10.087889 7.763545 -10.365486 0
M  V30 44 H 10.909258 6.258560 -9.974659 0
M  V30 45 H 8.145045 7.005916 -9.498337 0
M  V30 END ATOM
M  V30 BEGIN BOND
M  V30 1 2 2 1
M  V30 2 1 3 2
M  V30 3 2 4 3
M  V30 4 1 5 4
M  V30 5 2 6 5
M  V30 6 1 7 6
M  V30 7 1 8 3
M  V30 8 2 8 7
M  V30 9 1 9 2
M  V30 10 1 10 9
M  V30 11 1 11 10
M  V30 12 1 12 11
M  V30 13 1 13 12
M  V30 14 1 14 13
M  V30 15 2 15 14
M  V30 16 1 16 15
M  V30 17 1 17 16
M  V30 18 2 18 17
M  V30 19 1 19 18
M  V30 20 2 20 19
M  V30 21 1 21 20
M  V30 22 1 22 14
M  V30 23 1 22 17
M  V30 24 2 22 21
M  V30 25 1 23 1
M  V30 26 1 23 11
M  V30 27 1 24 1
M  V30 28 1 25 4
M  V30 29 1 26 5
M  V30 30 1 27 6
M  V30 31 1 28 7
M  V30 32 1 29 8
M  V30 33 1 30 9
M  V30 34 1 31 9
M  V30 35 1 32 10
M  V30 36 1 33 10
M  V30 37 1 34 12
M  V30 38 1 35 12
M  V30 39 1 36 13
M  V30 40 1 37 13
M  V30 41 1 38 15
M  V30 42 1 39 16
M  V30 43 1 40 19
M  V30 44 1 41 20
M  V30 45 1 42 21
M  V30 46 1 43 23
M  V30 47 1 44 23
M  V30 48 1 11 45 CFG=3
M  V30 END BOND
M  V30 END CTAB
M  END
>  <b_m_subgroup_collapsed>  (493) 
0

>  <r_i_docking_score>  (493) 
-8.2294819189822004

>  <s_m_subgroup_title>  (493) 
glide-dock_SP_D22_pv

>  <s_m_subgroupid>  (493) 
glide-dock_SP_D22_pv

>  <Molecule ChEMBL ID>  (493) 
CHEMBL2112912

>  <Standard Type>  (493) 
Ki

>  <Standard Value>  (493) 
21.0

>  <label>  (493) 
1

$$$$
CHEMBL246856
     RDKit          3D

  0  0  0  0  0  0  0  0  0  0999 V3000
M  V30 BEGIN CTAB
M  V30 COUNTS 46 49 0 0 1
M  V30 BEGIN ATOM
M  V30 1 O 7.714384 7.061002 -12.646876 0
M  V30 2 C 8.834728 6.570446 -11.938302 0 CFG=1
M  V30 3 C 9.890073 5.999165 -12.908094 0
M  V30 4 C 11.196332 6.543121 -13.037284 0
M  V30 5 C 12.085981 6.062300 -14.017371 0
M  V30 6 C 11.691203 5.027337 -14.884191 0
M  V30 7 Cl 12.765393 4.475901 -16.114244 0
M  V30 8 C 10.409269 4.464849 -14.758793 0
M  V30 9 C 9.515932 4.953212 -13.786657 0
M  V30 10 C 9.331524 7.777641 -11.095495 0
M  V30 11 C 10.218766 7.358866 -9.913486 0
M  V30 12 N 9.500971 6.382866 -9.056134 0 CFG=2 CHG=1
M  V30 13 C 10.251602 5.983149 -7.847390 0
M  V30 14 C 10.568582 7.000829 -6.800970 0
M  V30 15 C 10.319098 8.345272 -6.671597 0
M  V30 16 C 10.903711 8.752478 -5.420634 0
M  V30 17 C 11.009924 9.969792 -4.712345 0
M  V30 18 C 11.631384 10.020144 -3.446549 0
M  V30 19 C 12.164701 8.864914 -2.851206 0
M  V30 20 C 12.085916 7.641733 -3.534882 0
M  V30 21 C 11.467678 7.602410 -4.797240 0
M  V30 22 N 11.249818 6.572521 -5.674607 0
M  V30 23 C 9.157146 5.159348 -9.830487 0
M  V30 24 C 8.250100 5.471134 -11.017595 0
M  V30 25 H 7.083235 7.371223 -12.002077 0
M  V30 26 H 11.538216 7.360842 -12.424965 0
M  V30 27 H 13.066070 6.504359 -14.120317 0
M  V30 28 H 10.099989 3.672272 -15.424268 0
M  V30 29 H 8.520973 4.536695 -13.740302 0
M  V30 30 H 9.823268 8.524192 -11.719201 0
M  V30 31 H 8.486207 8.312934 -10.667951 0
M  V30 32 H 11.159038 6.925076 -10.252505 0
M  V30 33 H 10.489063 8.248489 -9.350268 0
M  V30 34 H 9.662492 5.208827 -7.369295 0
M  V30 35 H 11.175686 5.500829 -8.152020 0
M  V30 36 H 9.792708 8.993352 -7.356407 0
M  V30 37 H 10.598010 10.871253 -5.140522 0
M  V30 38 H 11.686420 10.965096 -2.920621 0
M  V30 39 H 12.631866 8.922720 -1.878229 0
M  V30 40 H 12.491381 6.742301 -3.095500 0
M  V30 41 H 11.502222 5.605526 -5.511771 0
M  V30 42 H 10.071128 4.671950 -10.178260 0
M  V30 43 H 8.642494 4.440773 -9.190869 0
M  V30 44 H 7.286704 5.772225 -10.610654 0
M  V30 45 H 8.025928 4.558610 -11.567627 0
M  V30 46 H 8.632915 6.809583 -8.752166 0
M  V30 END ATOM
M  V30 BEGIN BOND
M  V30 1 1 2 1 CFG=3
M  V30 2 1 3 2
M  V30 3 1 4 3
M  V30 4 2 5 4
M  V30 5 1 6 5
M  V30 6 1 7 6
M  V30 7 2 8 6
M  V30 8 2 9 3
M  V30 9 1 9 8
M  V30 10 1 10 2
M  V30 11 1 11 10
M  V30 12 1 12 11
M  V30 13 1 13 12
M  V30 14 1 14 13
M  V30 15 2 15 14
M  V30 16 1 16 15
M  V30 17 2 17 16
M  V30 18 1 18 17
M  V30 19 2 19 18
M  V30 20 1 20 19
M  V30 21 1 21 16
M  V30 22 2 21 20
M  V30 23 1 22 14
M  V30 24 1 22 21
M  V30 25 1 23 12
M  V30 26 1 24 2
M  V30 27 1 24 23
M  V30 28 1 25 1
M  V30 29 1 26 4
M  V30 30 1 27 5
M  V30 31 1 28 8
M  V30 32 1 29 9
M  V30 33 1 30 10
M  V30 34 1 31 10
M  V30 35 1 32 11
M  V30 36 1 33 11
M  V30 37 1 34 13
M  V30 38 1 35 13
M  V30 39 1 36 15
M  V30 40 1 37 17
M  V30 41 1 38 18
M  V30 42 1 39 19
M  V30 43 1 40 20
M  V30 44 1 41 22
M  V30 45 1 42 23
M  V30 46 1 43 23
M  V30 47 1 44 24
M  V30 48 1 45 24
M  V30 49 1 12 46 CFG=1
M  V30 END BOND
M  V30 END CTAB
M  END
>  <b_m_subgroup_collapsed>  (494) 
0

>  <r_i_docking_score>  (494) 
-8.2282357557362005

>  <s_m_subgroup_title>  (494) 
glide-dock_SP_D22_pv

>  <s_m_subgroupid>  (494) 
glide-dock_SP_D22_pv

>  <Molecule ChEMBL ID>  (494) 
CHEMBL246856

>  <Standard Type>  (494) 
Ki

>  <Standard Value>  (494) 
10000.0

>  <label>  (494) 
0

$$$$
CHEMBL357807
     RDKit          3D

  0  0  0  0  0  0  0  0  0  0999 V3000
M  V30 BEGIN CTAB
M  V30 COUNTS 58 61 0 0 1
M  V30 BEGIN ATOM
M  V30 1 C 10.741727 0.014906 -16.914785 0
M  V30 2 O 9.641998 0.169205 -16.032080 0
M  V30 3 C 9.431847 1.415200 -15.483590 0
M  V30 4 C 10.359418 2.483792 -15.557761 0
M  V30 5 C 10.056643 3.730868 -14.979195 0
M  V30 6 C 8.833343 3.934891 -14.314595 0
M  V30 7 C 7.896783 2.873203 -14.246885 0
M  V30 8 C 8.208179 1.622824 -14.817608 0
M  V30 9 C 6.550671 3.071528 -13.573406 0
M  V30 10 C 6.296997 4.536536 -13.232303 0
M  V30 11 C 7.579214 5.282371 -12.774600 0 CFG=2
M  V30 12 C 8.119873 4.720451 -11.439034 0
M  V30 13 C 9.267398 5.538395 -10.832457 0
M  V30 14 N 8.886034 6.957810 -10.675067 0 CFG=1 CHG=1
M  V30 15 C 9.854411 7.759665 -9.890240 0
M  V30 16 C 9.188971 8.257462 -8.594876 0
M  V30 17 C 10.155922 8.782816 -7.518316 0
M  V30 18 C 10.863045 7.677711 -6.717618 0
M  V30 19 O 11.040331 6.572410 -7.230231 0
M  V30 20 C 11.285519 7.995608 -5.324270 0
M  V30 21 C 11.685993 6.937639 -4.476057 0
M  V30 22 C 12.086082 7.187607 -3.150896 0
M  V30 23 C 12.089782 8.504036 -2.660663 0
M  V30 24 F 12.486747 8.750349 -1.393704 0
M  V30 25 C 11.688857 9.565889 -3.490122 0
M  V30 26 C 11.300140 9.319409 -4.821166 0
M  V30 27 C 8.485992 7.554272 -11.963956 0
M  V30 28 C 7.289800 6.778503 -12.558226 0
M  V30 29 O 8.586982 5.181836 -13.780480 0
M  V30 30 H 10.744870 -0.998117 -17.317272 0
M  V30 31 H 10.675980 0.705871 -17.756233 0
M  V30 32 H 11.686098 0.172284 -16.396311 0
M  V30 33 H 11.312230 2.373306 -16.052498 0
M  V30 34 H 10.770986 4.538311 -15.044485 0
M  V30 35 H 7.494583 0.813421 -14.761176 0
M  V30 36 H 5.761388 2.703220 -14.229211 0
M  V30 37 H 6.486015 2.478102 -12.665162 0
M  V30 38 H 5.501063 4.618895 -12.490729 0
M  V30 39 H 5.902802 4.972331 -14.143527 0
M  V30 40 H 8.500226 3.723885 -11.599014 0
M  V30 41 H 7.309512 4.642128 -10.714280 0
M  V30 42 H 10.142067 5.471190 -11.477782 0
M  V30 43 H 9.542670 5.116227 -9.864481 0
M  V30 44 H 10.216048 8.611561 -10.468601 0
M  V30 45 H 10.738929 7.160821 -9.673436 0
M  V30 46 H 8.579099 7.461980 -8.160097 0
M  V30 47 H 8.486098 9.051011 -8.849280 0
M  V30 48 H 9.566451 9.372280 -6.818892 0
M  V30 49 H 10.899515 9.448647 -7.956418 0
M  V30 50 H 11.683230 5.917506 -4.833371 0
M  V30 51 H 12.387734 6.369509 -2.512780 0
M  V30 52 H 11.687988 10.572498 -3.099160 0
M  V30 53 H 11.017481 10.161493 -5.434938 0
M  V30 54 H 8.195039 8.594479 -11.810220 0
M  V30 55 H 9.336296 7.553508 -12.644899 0
M  V30 56 H 6.973620 7.299325 -13.446856 0
M  V30 57 H 6.418738 6.822405 -11.909080 0
M  V30 58 H 8.006716 6.990794 -10.156564 0
M  V30 END ATOM
M  V30 BEGIN BOND
M  V30 1 1 2 1
M  V30 2 1 3 2
M  V30 3 1 4 3
M  V30 4 2 5 4
M  V30 5 1 6 5
M  V30 6 2 7 6
M  V30 7 2 8 3
M  V30 8 1 8 7
M  V30 9 1 9 7
M  V30 10 1 10 9
M  V30 11 1 11 10
M  V30 12 1 12 11
M  V30 13 1 13 12
M  V30 14 1 14 13
M  V30 15 1 15 14
M  V30 16 1 16 15
M  V30 17 1 17 16
M  V30 18 1 18 17
M  V30 19 2 19 18
M  V30 20 1 20 18
M  V30 21 1 21 20
M  V30 22 2 22 21
M  V30 23 1 23 22
M  V30 24 1 24 23
M  V30 25 2 25 23
M  V30 26 2 26 20
M  V30 27 1 26 25
M  V30 28 1 27 14
M  V30 29 1 28 11
M  V30 30 1 28 27
M  V30 31 1 29 6
M  V30 32 1 11 29 CFG=3
M  V30 33 1 30 1
M  V30 34 1 31 1
M  V30 35 1 32 1
M  V30 36 1 33 4
M  V30 37 1 34 5
M  V30 38 1 35 8
M  V30 39 1 36 9
M  V30 40 1 37 9
M  V30 41 1 38 10
M  V30 42 1 39 10
M  V30 43 1 40 12
M  V30 44 1 41 12
M  V30 45 1 42 13
M  V30 46 1 43 13
M  V30 47 1 44 15
M  V30 48 1 45 15
M  V30 49 1 46 16
M  V30 50 1 47 16
M  V30 51 1 48 17
M  V30 52 1 49 17
M  V30 53 1 50 21
M  V30 54 1 51 22
M  V30 55 1 52 25
M  V30 56 1 53 26
M  V30 57 1 54 27
M  V30 58 1 55 27
M  V30 59 1 56 28
M  V30 60 1 57 28
M  V30 61 1 14 58 CFG=1
M  V30 END BOND
M  V30 END CTAB
M  END
>  <b_m_subgroup_collapsed>  (495) 
0

>  <r_i_docking_score>  (495) 
-8.2272982298671806

>  <s_m_subgroup_title>  (495) 
glide-dock_SP_D22_pv

>  <s_m_subgroupid>  (495) 
glide-dock_SP_D22_pv

>  <Molecule ChEMBL ID>  (495) 
CHEMBL357807

>  <Standard Type>  (495) 
Ki

>  <Standard Value>  (495) 
2.0

>  <label>  (495) 
1

$$$$
CHEMBL4528835
     RDKit          3D

  0  0  0  0  0  0  0  0  0  0999 V3000
M  V30 BEGIN CTAB
M  V30 COUNTS 50 53 0 0 1
M  V30 BEGIN ATOM
M  V30 1 O 5.116176 3.037673 -12.647075 0
M  V30 2 C 6.092920 3.436972 -13.277972 0
M  V30 3 C 6.333299 4.943562 -13.395757 0
M  V30 4 C 6.581327 5.657692 -12.058826 0
M  V30 5 C 7.815691 5.154810 -11.284947 0
M  V30 6 N 8.150443 6.036716 -10.136546 0 CFG=1 CHG=1
M  V30 7 C 8.724992 5.331490 -8.955414 0
M  V30 8 C 10.263275 5.211484 -9.068333 0
M  V30 9 C 10.892934 6.607344 -9.211485 0 CFG=1
M  V30 10 C 10.815587 7.382361 -7.894190 0
M  V30 11 C 11.205660 6.762041 -6.680108 0
M  V30 12 C 11.285995 7.475101 -5.469886 0
M  V30 13 C 11.050911 8.856953 -5.459390 0
M  V30 14 Cl 11.286991 9.771771 -4.016584 0
M  V30 15 C 10.656794 9.493803 -6.644481 0
M  V30 16 C 10.513592 8.765092 -7.840535 0
M  V30 17 C 11.651174 7.427197 -10.262784 0
M  V30 18 C 10.329389 6.923265 -10.620724 0 CFG=2
M  V30 19 C 8.886067 7.293378 -10.488388 0
M  V30 20 C 7.048179 2.520976 -13.962619 0
M  V30 21 C 6.638259 1.197358 -14.248899 0
M  V30 22 C 7.537407 0.275960 -14.819894 0
M  V30 23 C 8.861188 0.660141 -15.098678 0
M  V30 24 F 9.731559 -0.227898 -15.632386 0
M  V30 25 C 9.282719 1.971552 -14.816491 0
M  V30 26 C 8.385702 2.895781 -14.246904 0
M  V30 27 H 7.161538 5.140538 -14.070726 0
M  V30 28 H 5.440311 5.372745 -13.848190 0
M  V30 29 H 6.676646 6.724684 -12.255977 0
M  V30 30 H 5.685956 5.565251 -11.446443 0
M  V30 31 H 7.594335 4.154524 -10.917933 0
M  V30 32 H 8.672745 5.052308 -11.948047 0
M  V30 33 H 8.466139 5.905735 -8.064196 0
M  V30 34 H 8.266495 4.351502 -8.815310 0
M  V30 35 H 10.687855 4.657888 -8.246872 0
M  V30 36 H 10.484889 4.591505 -9.932611 0
M  V30 37 H 11.510401 5.732822 -6.655952 0
M  V30 38 H 11.599670 6.972024 -4.566112 0
M  V30 39 H 10.488296 10.559976 -6.639068 0
M  V30 40 H 10.238632 9.309576 -8.730891 0
M  V30 41 H 11.737998 8.507138 -10.170887 0
M  V30 42 H 12.486071 6.972274 -10.774409 0
M  V30 43 H 10.463130 6.211989 -11.433731 0
M  V30 44 H 8.526559 7.732744 -11.418530 0
M  V30 45 H 8.740216 8.037497 -9.709174 0
M  V30 46 H 5.630450 0.874694 -14.027671 0
M  V30 47 H 7.215354 -0.730661 -15.036271 0
M  V30 48 H 10.302437 2.262192 -15.022515 0
M  V30 49 H 8.764351 3.878109 -14.012218 0
M  V30 50 H 7.246705 6.413799 -9.847240 0
M  V30 END ATOM
M  V30 BEGIN BOND
M  V30 1 2 2 1
M  V30 2 1 3 2
M  V30 3 1 4 3
M  V30 4 1 5 4
M  V30 5 1 6 5
M  V30 6 1 7 6
M  V30 7 1 8 7
M  V30 8 1 9 8
M  V30 9 1 9 10 CFG=1
M  V30 10 1 11 10
M  V30 11 2 12 11
M  V30 12 1 13 12
M  V30 13 1 14 13
M  V30 14 2 15 13
M  V30 15 2 16 10
M  V30 16 1 16 15
M  V30 17 1 17 9
M  V30 18 1 18 9
M  V30 19 1 18 17
M  V30 20 1 19 6
M  V30 21 1 19 18
M  V30 22 1 20 2
M  V30 23 1 21 20
M  V30 24 2 22 21
M  V30 25 1 23 22
M  V30 26 1 24 23
M  V30 27 2 25 23
M  V30 28 2 26 20
M  V30 29 1 26 25
M  V30 30 1 27 3
M  V30 31 1 28 3
M  V30 32 1 29 4
M  V30 33 1 30 4
M  V30 34 1 31 5
M  V30 35 1 32 5
M  V30 36 1 33 7
M  V30 37 1 34 7
M  V30 38 1 35 8
M  V30 39 1 36 8
M  V30 40 1 37 11
M  V30 41 1 38 12
M  V30 42 1 39 15
M  V30 43 1 40 16
M  V30 44 1 41 17
M  V30 45 1 42 17
M  V30 46 1 18 43 CFG=3
M  V30 47 1 44 19
M  V30 48 1 45 19
M  V30 49 1 46 21
M  V30 50 1 47 22
M  V30 51 1 48 25
M  V30 52 1 49 26
M  V30 53 1 6 50 CFG=1
M  V30 END BOND
M  V30 END CTAB
M  END
>  <b_m_subgroup_collapsed>  (496) 
0

>  <r_i_docking_score>  (496) 
-8.2270149621535094

>  <s_m_subgroup_title>  (496) 
glide-dock_SP_D22_pv

>  <s_m_subgroupid>  (496) 
glide-dock_SP_D22_pv

>  <Molecule ChEMBL ID>  (496) 
CHEMBL4528835

>  <Standard Type>  (496) 
Ki

>  <Standard Value>  (496) 
0.1585

>  <label>  (496) 
1

$$$$
CHEMBL2165138
     RDKit          3D

  0  0  0  0  0  0  0  0  0  0999 V3000
M  V30 BEGIN CTAB
M  V30 COUNTS 50 53 0 0 1
M  V30 BEGIN ATOM
M  V30 1 Cl 8.048226 0.180308 -15.750241 0
M  V30 2 C 7.240098 1.235827 -14.649544 0
M  V30 3 C 6.055267 0.802257 -14.028807 0
M  V30 4 C 5.380272 1.651537 -13.134577 0
M  V30 5 C 5.877357 2.938771 -12.861994 0
M  V30 6 C 7.087387 3.371828 -13.451878 0
M  V30 7 C 7.705540 4.705025 -13.056355 0 CFG=1
M  V30 8 C 6.700746 5.800513 -12.681188 0
M  V30 9 C 7.474636 7.115426 -12.527875 0
M  V30 10 N 8.486112 7.010581 -11.446961 0 CFG=2 CHG=1
M  V30 11 C 9.166386 8.298304 -11.170579 0
M  V30 12 C 9.520369 8.470179 -9.678060 0
M  V30 13 C 11.026742 8.629107 -9.415289 0
M  V30 14 O 11.247196 9.372223 -8.224360 0
M  V30 15 C 11.303596 8.753264 -6.998150 0
M  V30 16 C 11.099280 7.370956 -6.783851 0
M  V30 17 C 11.286245 6.826898 -5.499665 0
M  V30 18 C 11.684718 7.649738 -4.433297 0
M  V30 19 S 12.085506 7.206121 -2.772263 0
M  V30 20 C 12.278980 8.923991 -2.430546 0
M  V30 21 N 12.095393 9.772291 -3.445780 0
M  V30 22 C 11.801105 9.058231 -4.601043 0
M  V30 23 C 11.612904 9.580251 -5.899081 0
M  V30 24 C 9.431263 5.875880 -11.619041 0
M  V30 25 C 8.699464 4.551965 -11.892069 0
M  V30 26 C 7.768526 2.511619 -14.354970 0
M  V30 27 Cl 9.272865 2.982895 -15.076717 0
M  V30 28 H 5.665100 -0.182995 -14.239295 0
M  V30 29 H 4.485705 1.309288 -12.647594 0
M  V30 30 H 5.348375 3.555716 -12.151228 0
M  V30 31 H 8.242469 5.076682 -13.928976 0
M  V30 32 H 5.927291 5.886014 -13.445576 0
M  V30 33 H 6.184843 5.572089 -11.747034 0
M  V30 34 H 6.775554 7.924463 -12.313486 0
M  V30 35 H 7.979935 7.373246 -13.446898 0
M  V30 36 H 8.495509 9.117560 -11.437225 0
M  V30 37 H 10.035057 8.412679 -11.820055 0
M  V30 38 H 9.109555 7.664089 -9.069081 0
M  V30 39 H 9.017539 9.370884 -9.322931 0
M  V30 40 H 11.471353 9.227592 -10.211038 0
M  V30 41 H 11.556162 7.675875 -9.432749 0
M  V30 42 H 10.826106 6.706060 -7.588524 0
M  V30 43 H 11.161386 5.772403 -5.331353 0
M  V30 44 H 12.535904 9.320081 -1.458103 0
M  V30 45 H 11.740013 10.640403 -6.056882 0
M  V30 46 H 10.104638 6.093669 -12.449742 0
M  V30 47 H 10.052168 5.776297 -10.727451 0
M  V30 48 H 9.432968 3.776670 -12.117024 0
M  V30 49 H 8.171370 4.224650 -10.995179 0
M  V30 50 H 7.894266 6.857516 -10.633514 0
M  V30 END ATOM
M  V30 BEGIN BOND
M  V30 1 1 2 1
M  V30 2 1 3 2
M  V30 3 2 4 3
M  V30 4 1 5 4
M  V30 5 2 6 5
M  V30 6 1 7 6
M  V30 7 1 8 7
M  V30 8 1 9 8
M  V30 9 1 10 9
M  V30 10 1 11 10
M  V30 11 1 12 11
M  V30 12 1 13 12
M  V30 13 1 14 13
M  V30 14 1 15 14
M  V30 15 2 16 15
M  V30 16 1 17 16
M  V30 17 2 18 17
M  V30 18 1 19 18
M  V30 19 1 20 19
M  V30 20 2 21 20
M  V30 21 1 22 18
M  V30 22 1 22 21
M  V30 23 1 23 15
M  V30 24 2 23 22
M  V30 25 1 24 10
M  V30 26 1 25 7
M  V30 27 1 25 24
M  V30 28 2 26 2
M  V30 29 1 26 6
M  V30 30 1 27 26
M  V30 31 1 28 3
M  V30 32 1 29 4
M  V30 33 1 30 5
M  V30 34 1 7 31 CFG=3
M  V30 35 1 32 8
M  V30 36 1 33 8
M  V30 37 1 34 9
M  V30 38 1 35 9
M  V30 39 1 36 11
M  V30 40 1 37 11
M  V30 41 1 38 12
M  V30 42 1 39 12
M  V30 43 1 40 13
M  V30 44 1 41 13
M  V30 45 1 42 16
M  V30 46 1 43 17
M  V30 47 1 44 20
M  V30 48 1 45 23
M  V30 49 1 46 24
M  V30 50 1 47 24
M  V30 51 1 48 25
M  V30 52 1 49 25
M  V30 53 1 10 50 CFG=1
M  V30 END BOND
M  V30 END CTAB
M  END
>  <b_m_subgroup_collapsed>  (497) 
0

>  <r_i_docking_score>  (497) 
-8.2256687016333601

>  <s_m_subgroup_title>  (497) 
glide-dock_SP_D22_pv

>  <s_m_subgroupid>  (497) 
glide-dock_SP_D22_pv

>  <Molecule ChEMBL ID>  (497) 
CHEMBL2165138

>  <Standard Type>  (497) 
Ki

>  <Standard Value>  (497) 
75.0

>  <label>  (497) 
1

$$$$
CHEMBL164471
     RDKit          3D

  0  0  0  0  0  0  0  0  0  0999 V3000
M  V30 BEGIN CTAB
M  V30 COUNTS 52 56 0 0 1
M  V30 BEGIN ATOM
M  V30 1 O 6.271754 4.063772 -12.746877 0
M  V30 2 C 7.309619 3.966785 -13.400790 0
M  V30 3 C 7.596434 2.788495 -14.247043 0
M  V30 4 C 6.886180 1.598937 -14.571239 0
M  V30 5 C 7.708516 0.884397 -15.399988 0
M  V30 6 O 8.881515 1.548124 -15.616634 0
M  V30 7 C 8.793650 2.694028 -14.889625 0
M  V30 8 C 9.939095 3.639073 -14.891596 0
M  V30 9 C 9.818148 4.593692 -13.688840 0
M  V30 10 C 8.366780 5.101286 -13.419714 0 CFG=2
M  V30 11 C 8.291671 6.056338 -12.199900 0
M  V30 12 C 8.569633 5.409318 -10.818372 0
M  V30 13 N 8.886063 6.403317 -9.755845 0 CFG=1 CHG=1
M  V30 14 C 8.696886 5.829620 -8.394093 0
M  V30 15 C 8.969056 6.865942 -7.289078 0
M  V30 16 C 10.397893 7.404228 -7.415108 0 CFG=2
M  V30 17 C 10.750418 8.374253 -6.319327 0
M  V30 18 N 10.491281 9.670810 -6.445542 0
M  V30 19 O 10.936850 10.322653 -5.264013 0
M  V30 20 C 11.444780 9.380653 -4.388231 0
M  V30 21 C 11.984962 9.500732 -3.102505 0
M  V30 22 C 12.369518 8.318123 -2.440090 0
M  V30 23 F 12.885964 8.390165 -1.194395 0
M  V30 24 C 12.212700 7.060402 -3.070756 0
M  V30 25 C 11.686001 6.969027 -4.380717 0
M  V30 26 C 11.303965 8.155364 -5.042840 0
M  V30 27 C 10.580746 8.009689 -8.819508 0
M  V30 28 C 10.248562 6.983137 -9.909865 0
M  V30 29 H 5.901433 1.305018 -14.240102 0
M  V30 30 H 7.620915 -0.069271 -15.898329 0
M  V30 31 H 10.886295 3.099113 -14.863852 0
M  V30 32 H 9.927201 4.211201 -15.818820 0
M  V30 33 H 10.501972 5.433965 -13.816464 0
M  V30 34 H 10.173245 4.050866 -12.813754 0
M  V30 35 H 8.090711 5.700572 -14.286381 0
M  V30 36 H 8.984328 6.871127 -12.398626 0
M  V30 37 H 7.308906 6.532251 -12.171312 0
M  V30 38 H 7.685832 4.840099 -10.525480 0
M  V30 39 H 9.385809 4.688147 -10.866592 0
M  V30 40 H 7.686088 5.451952 -8.280186 0
M  V30 41 H 9.359233 4.971098 -8.266418 0
M  V30 42 H 8.835630 6.400255 -6.312458 0
M  V30 43 H 8.248784 7.684256 -7.342291 0
M  V30 44 H 11.080796 6.556611 -7.333513 0
M  V30 45 H 12.085258 10.467019 -2.631767 0
M  V30 46 H 12.504025 6.160879 -2.547625 0
M  V30 47 H 11.572896 6.007063 -4.858439 0
M  V30 48 H 11.606686 8.361259 -8.945876 0
M  V30 49 H 9.936845 8.882515 -8.944647 0
M  V30 50 H 10.968461 6.172317 -9.853703 0
M  V30 51 H 10.372046 7.456487 -10.881920 0
M  V30 52 H 8.191108 7.144016 -9.846801 0
M  V30 END ATOM
M  V30 BEGIN BOND
M  V30 1 2 2 1
M  V30 2 1 3 2
M  V30 3 1 4 3
M  V30 4 2 5 4
M  V30 5 1 6 5
M  V30 6 2 7 3
M  V30 7 1 7 6
M  V30 8 1 8 7
M  V30 9 1 9 8
M  V30 10 1 10 2
M  V30 11 1 10 9
M  V30 12 1 11 10
M  V30 13 1 12 11
M  V30 14 1 13 12
M  V30 15 1 14 13
M  V30 16 1 15 14
M  V30 17 1 16 15
M  V30 18 1 17 16
M  V30 19 2 18 17
M  V30 20 1 19 18
M  V30 21 1 20 19
M  V30 22 1 21 20
M  V30 23 2 22 21
M  V30 24 1 23 22
M  V30 25 1 24 22
M  V30 26 2 25 24
M  V30 27 1 26 17
M  V30 28 2 26 20
M  V30 29 1 26 25
M  V30 30 1 27 16
M  V30 31 1 28 13
M  V30 32 1 28 27
M  V30 33 1 29 4
M  V30 34 1 30 5
M  V30 35 1 31 8
M  V30 36 1 32 8
M  V30 37 1 33 9
M  V30 38 1 34 9
M  V30 39 1 10 35 CFG=3
M  V30 40 1 36 11
M  V30 41 1 37 11
M  V30 42 1 38 12
M  V30 43 1 39 12
M  V30 44 1 40 14
M  V30 45 1 41 14
M  V30 46 1 42 15
M  V30 47 1 43 15
M  V30 48 1 16 44 CFG=3
M  V30 49 1 45 21
M  V30 50 1 46 24
M  V30 51 1 47 25
M  V30 52 1 48 27
M  V30 53 1 49 27
M  V30 54 1 50 28
M  V30 55 1 51 28
M  V30 56 1 13 52 CFG=3
M  V30 END BOND
M  V30 END CTAB
M  END
>  <b_m_subgroup_collapsed>  (498) 
0

>  <r_i_docking_score>  (498) 
-8.2249874825667195

>  <s_m_subgroup_title>  (498) 
glide-dock_SP_D22_pv

>  <s_m_subgroupid>  (498) 
glide-dock_SP_D22_pv

>  <Molecule ChEMBL ID>  (498) 
CHEMBL164471

>  <Standard Type>  (498) 
Ki

>  <Standard Value>  (498) 
45.71

>  <label>  (498) 
1

$$$$
CHEMBL334472
     RDKit          3D

  0  0  0  0  0  0  0  0  0  0999 V3000
M  V30 BEGIN CTAB
M  V30 COUNTS 35 36 0 0 1
M  V30 BEGIN ATOM
M  V30 1 C 9.418083 4.253896 -12.014987 0
M  V30 2 C 9.273096 5.471536 -11.094619 0
M  V30 3 C 8.864563 5.079579 -9.666535 0
M  V30 4 N 8.486026 6.261873 -8.866044 0 CHG=1
M  V30 5 C 9.588170 6.999914 -8.208899 0 CFG=1
M  V30 6 C 9.247899 8.479527 -8.048615 0
M  V30 7 C 10.446767 9.244794 -7.473595 0
M  V30 8 C 11.119994 8.579543 -6.295058 0
M  V30 9 C 12.028304 9.327495 -5.515691 0
M  V30 10 O 12.486013 10.520927 -5.984205 0
M  V30 11 C 12.486013 8.828693 -4.281260 0
M  V30 12 C 12.087404 7.545654 -3.864284 0
M  V30 13 C 11.286001 6.753871 -4.709187 0
M  V30 14 C 10.803092 7.253785 -5.937126 0
M  V30 15 C 9.919852 6.387097 -6.835074 0
M  V30 16 H 9.813452 4.543845 -12.988652 0
M  V30 17 H 10.086001 3.506753 -11.588766 0
M  V30 18 H 8.453890 3.772462 -12.181055 0
M  V30 19 H 8.525618 6.142391 -11.521346 0
M  V30 20 H 10.208324 6.030802 -11.074445 0
M  V30 21 H 9.650704 4.508454 -9.170691 0
M  V30 22 H 7.996544 4.424284 -9.718751 0
M  V30 23 H 7.827260 5.992745 -8.147731 0
M  V30 24 H 10.472583 6.945400 -8.846071 0
M  V30 25 H 8.395348 8.577858 -7.373610 0
M  V30 26 H 8.943378 8.923915 -8.997361 0
M  V30 27 H 10.086377 10.172335 -7.046876 0
M  V30 28 H 11.186451 9.465246 -8.244263 0
M  V30 29 H 13.437973 10.572245 -6.012365 0
M  V30 30 H 13.143322 9.421935 -3.662695 0
M  V30 31 H 12.428902 7.152175 -2.918106 0
M  V30 32 H 11.005747 5.769071 -4.385303 0
M  V30 33 H 10.423167 5.443313 -7.032956 0
M  V30 34 H 9.003452 6.172427 -6.283333 0
M  V30 35 H 7.960264 6.896173 -9.466456 0
M  V30 END ATOM
M  V30 BEGIN BOND
M  V30 1 1 2 1
M  V30 2 1 3 2
M  V30 3 1 4 3
M  V30 4 1 5 4
M  V30 5 1 6 5
M  V30 6 1 7 6
M  V30 7 1 8 7
M  V30 8 2 9 8
M  V30 9 1 10 9
M  V30 10 1 11 9
M  V30 11 2 12 11
M  V30 12 1 13 12
M  V30 13 1 14 8
M  V30 14 2 14 13
M  V30 15 1 15 5
M  V30 16 1 15 14
M  V30 17 1 16 1
M  V30 18 1 17 1
M  V30 19 1 18 1
M  V30 20 1 19 2
M  V30 21 1 20 2
M  V30 22 1 21 3
M  V30 23 1 22 3
M  V30 24 1 23 4
M  V30 25 1 5 24 CFG=3
M  V30 26 1 25 6
M  V30 27 1 26 6
M  V30 28 1 27 7
M  V30 29 1 28 7
M  V30 30 1 29 10
M  V30 31 1 30 11
M  V30 32 1 31 12
M  V30 33 1 32 13
M  V30 34 1 33 15
M  V30 35 1 34 15
M  V30 36 1 35 4
M  V30 END BOND
M  V30 END CTAB
M  END
>  <b_m_subgroup_collapsed>  (499) 
0

>  <r_i_docking_score>  (499) 
-8.2237351190363697

>  <s_m_subgroup_title>  (499) 
glide-dock_SP_D22_pv

>  <s_m_subgroupid>  (499) 
glide-dock_SP_D22_pv

>  <Molecule ChEMBL ID>  (499) 
CHEMBL334472

>  <Standard Type>  (499) 
Ki

>  <Standard Value>  (499) 
0.5

>  <label>  (499) 
1

$$$$
CHEMBL4846472
     RDKit          3D

  0  0  0  0  0  0  0  0  0  0999 V3000
M  V30 BEGIN CTAB
M  V30 COUNTS 55 58 0 0 1
M  V30 BEGIN ATOM
M  V30 1 C 5.165324 -0.235559 -14.052656 0
M  V30 2 O 5.640810 1.087328 -13.845768 0
M  V30 3 C 6.924311 1.391370 -14.248590 0
M  V30 4 C 7.857188 0.408133 -14.661526 0
M  V30 5 C 9.154279 0.763297 -15.068436 0
M  V30 6 C 9.531066 2.116012 -15.089694 0
M  V30 7 Cl 11.110918 2.571218 -15.609227 0
M  V30 8 C 8.612589 3.101875 -14.689908 0
M  V30 9 C 7.317923 2.751938 -14.246139 0
M  V30 10 C 6.369160 3.828933 -13.796122 0 CFG=1
M  V30 11 C 5.657176 3.755628 -12.467129 0
M  V30 12 C 6.704344 4.819552 -12.685007 0 CFG=1
M  V30 13 C 8.019638 4.769109 -11.924954 0
M  V30 14 N 8.086087 5.776346 -10.844417 0 CHG=1
M  V30 15 C 9.309049 6.629889 -10.891025 0
M  V30 16 C 9.246655 7.858193 -9.953178 0
M  V30 17 C 10.581549 8.640509 -9.838347 0
M  V30 18 O 10.688544 9.371903 -8.612058 0
M  V30 19 C 10.946414 8.666574 -7.453386 0
M  V30 20 C 11.046878 7.254655 -7.432148 0
M  V30 21 C 11.287879 6.573710 -6.238140 0
M  V30 22 C 11.466778 7.285777 -5.048400 0
M  V30 23 C 11.804007 6.609560 -3.809383 0
M  V30 24 C 12.094152 7.288831 -2.693236 0
M  V30 25 C 12.086897 8.745018 -2.667555 0
M  V30 26 O 12.416417 9.372290 -1.670581 0
M  V30 27 N 11.708849 9.362239 -3.817805 0
M  V30 28 C 11.416757 8.690442 -5.041722 0
M  V30 29 C 11.135139 9.382676 -6.242904 0
M  V30 30 H 4.115757 -0.291449 -13.763911 0
M  V30 31 H 5.228623 -0.520980 -15.102917 0
M  V30 32 H 5.712465 -0.958833 -13.447459 0
M  V30 33 H 7.600735 -0.637376 -14.669391 0
M  V30 34 H 9.852576 -0.002834 -15.373157 0
M  V30 35 H 8.910478 4.137939 -14.730212 0
M  V30 36 H 5.773026 4.172136 -14.641556 0
M  V30 37 H 4.622352 4.086004 -12.438460 0
M  V30 38 H 5.903582 2.934769 -11.797940 0
M  V30 39 H 6.332159 5.828382 -12.849828 0
M  V30 40 H 8.180005 3.773341 -11.511123 0
M  V30 41 H 8.828368 4.940437 -12.633855 0
M  V30 42 H 7.291085 6.412509 -10.902132 0
M  V30 43 H 10.170772 6.007443 -10.642414 0
M  V30 44 H 9.462721 6.992831 -11.911196 0
M  V30 45 H 8.486341 8.559686 -10.300323 0
M  V30 46 H 8.905128 7.528258 -8.970918 0
M  V30 47 H 11.451031 7.993165 -9.967337 0
M  V30 48 H 10.653488 9.366816 -10.647302 0
M  V30 49 H 10.954088 6.647415 -8.317026 0
M  V30 50 H 11.417163 5.506317 -6.265795 0
M  V30 51 H 11.847729 5.540100 -3.815507 0
M  V30 52 H 12.357001 6.741538 -1.802699 0
M  V30 53 H 11.689669 10.371598 -3.817423 0
M  V30 54 H 11.089174 10.461610 -6.250087 0
M  V30 55 H 8.012095 5.316270 -9.948163 0
M  V30 END ATOM
M  V30 BEGIN BOND
M  V30 1 1 2 1
M  V30 2 1 3 2
M  V30 3 1 4 3
M  V30 4 2 5 4
M  V30 5 1 6 5
M  V30 6 1 7 6
M  V30 7 2 8 6
M  V30 8 2 9 3
M  V30 9 1 9 8
M  V30 10 1 10 9
M  V30 11 1 11 10
M  V30 12 1 12 10
M  V30 13 1 12 11
M  V30 14 1 13 12
M  V30 15 1 14 13
M  V30 16 1 15 14
M  V30 17 1 16 15
M  V30 18 1 17 16
M  V30 19 1 18 17
M  V30 20 1 19 18
M  V30 21 1 20 19
M  V30 22 2 21 20
M  V30 23 1 22 21
M  V30 24 1 23 22
M  V30 25 2 24 23
M  V30 26 1 25 24
M  V30 27 2 26 25
M  V30 28 1 27 25
M  V30 29 2 28 22
M  V30 30 1 28 27
M  V30 31 2 29 19
M  V30 32 1 29 28
M  V30 33 1 30 1
M  V30 34 1 31 1
M  V30 35 1 32 1
M  V30 36 1 33 4
M  V30 37 1 34 5
M  V30 38 1 35 8
M  V30 39 1 10 36 CFG=3
M  V30 40 1 37 11
M  V30 41 1 38 11
M  V30 42 1 12 39 CFG=3
M  V30 43 1 40 13
M  V30 44 1 41 13
M  V30 45 1 42 14
M  V30 46 1 43 15
M  V30 47 1 44 15
M  V30 48 1 45 16
M  V30 49 1 46 16
M  V30 50 1 47 17
M  V30 51 1 48 17
M  V30 52 1 49 20
M  V30 53 1 50 21
M  V30 54 1 51 23
M  V30 55 1 52 24
M  V30 56 1 53 27
M  V30 57 1 54 29
M  V30 58 1 55 14
M  V30 END BOND
M  V30 END CTAB
M  END
>  <b_m_subgroup_collapsed>  (500) 
0

>  <r_i_docking_score>  (500) 
-8.2215863303661099

>  <s_m_subgroup_title>  (500) 
glide-dock_SP_D22_pv

>  <s_m_subgroupid>  (500) 
glide-dock_SP_D22_pv

>  <Molecule ChEMBL ID>  (500) 
CHEMBL4846472

>  <Standard Type>  (500) 
Ki

>  <Standard Value>  (500) 
32.9

>  <label>  (500) 
1

$$$$
CHEMBL3290004
     RDKit          3D

  0  0  0  0  0  0  0  0  0  0999 V3000
M  V30 BEGIN CTAB
M  V30 COUNTS 57 61 0 0 1
M  V30 BEGIN ATOM
M  V30 1 O 9.655916 3.565209 -14.769105 0
M  V30 2 S 8.620371 4.009132 -13.824624 0
M  V30 3 O 8.085991 5.372594 -13.880174 0
M  V30 4 N 9.234985 3.772357 -12.246848 0
M  V30 5 C 9.666353 4.857402 -11.373999 0
M  V30 6 C 8.516594 5.778224 -10.902771 0
M  V30 7 N 8.886022 6.640039 -9.747867 0 CFG=1 CHG=1
M  V30 8 C 8.721690 5.978000 -8.425036 0
M  V30 9 C 8.993998 6.954470 -7.263909 0
M  V30 10 C 10.395061 7.566806 -7.397943 0 CFG=2
M  V30 11 C 10.752569 8.470173 -6.246806 0
M  V30 12 N 10.491431 9.772175 -6.294439 0
M  V30 13 O 10.938597 10.355000 -5.078790 0
M  V30 14 C 11.452704 9.365125 -4.262903 0
M  V30 15 C 11.994960 9.410163 -2.974243 0
M  V30 16 C 12.374602 8.191689 -2.380095 0
M  V30 17 F 12.886011 8.190830 -1.130101 0
M  V30 18 C 12.212379 6.972319 -3.079438 0
M  V30 19 C 11.686020 6.956886 -4.392121 0
M  V30 20 C 11.307901 8.179300 -4.986042 0
M  V30 21 C 10.499290 8.285028 -8.757789 0
M  V30 22 C 10.202436 7.319722 -9.908324 0
M  V30 23 C 7.253012 2.851844 -13.848375 0
M  V30 24 C 6.106095 3.084763 -13.058764 0
M  V30 25 C 5.068267 2.131155 -13.046935 0
M  V30 26 C 5.152405 0.972319 -13.846869 0
M  V30 27 C 4.054933 0.089802 -13.954275 0
M  V30 28 C 4.121822 -1.027686 -14.806228 0
M  V30 29 C 5.285923 -1.272202 -15.554280 0
M  V30 30 C 6.374193 -0.382229 -15.474644 0
M  V30 31 C 6.308205 0.747195 -14.636475 0
M  V30 32 C 7.363328 1.680614 -14.625070 0
M  V30 33 H 9.750026 2.893878 -12.140896 0
M  V30 34 H 10.086024 4.379784 -10.491982 0
M  V30 35 H 10.451880 5.420608 -11.878889 0
M  V30 36 H 8.212457 6.449110 -11.704582 0
M  V30 37 H 7.633239 5.191699 -10.647572 0
M  V30 38 H 7.706142 5.592284 -8.332260 0
M  V30 39 H 9.392352 5.120919 -8.353463 0
M  V30 40 H 8.906086 6.424560 -6.314682 0
M  V30 41 H 8.239330 7.742821 -7.243676 0
M  V30 42 H 11.115656 6.747320 -7.402575 0
M  V30 43 H 12.086049 10.345703 -2.443235 0
M  V30 44 H 12.498198 6.043535 -2.606964 0
M  V30 45 H 11.567410 6.023839 -4.923286 0
M  V30 46 H 11.496257 8.710073 -8.884975 0
M  V30 47 H 9.797811 9.120131 -8.802119 0
M  V30 48 H 11.006068 6.583979 -9.938936 0
M  V30 49 H 10.222756 7.858760 -10.856807 0
M  V30 50 H 6.032835 3.979277 -12.457093 0
M  V30 51 H 4.181765 2.312557 -12.461948 0
M  V30 52 H 3.125422 0.289343 -13.446867 0
M  V30 53 H 3.278233 -1.695738 -14.900537 0
M  V30 54 H 5.340237 -2.134955 -16.202957 0
M  V30 55 H 7.254075 -0.570483 -16.072960 0
M  V30 56 H 8.245302 1.507614 -15.224256 0
M  V30 57 H 8.166764 7.362350 -9.764667 0
M  V30 END ATOM
M  V30 BEGIN BOND
M  V30 1 2 2 1
M  V30 2 2 3 2
M  V30 3 1 4 2
M  V30 4 1 5 4
M  V30 5 1 6 5
M  V30 6 1 7 6
M  V30 7 1 8 7
M  V30 8 1 9 8
M  V30 9 1 10 9
M  V30 10 1 11 10
M  V30 11 2 12 11
M  V30 12 1 13 12
M  V30 13 1 14 13
M  V30 14 1 15 14
M  V30 15 2 16 15
M  V30 16 1 17 16
M  V30 17 1 18 16
M  V30 18 2 19 18
M  V30 19 1 20 11
M  V30 20 2 20 14
M  V30 21 1 20 19
M  V30 22 1 21 10
M  V30 23 1 22 7
M  V30 24 1 22 21
M  V30 25 1 23 2
M  V30 26 1 24 23
M  V30 27 2 25 24
M  V30 28 1 26 25
M  V30 29 2 27 26
M  V30 30 1 28 27
M  V30 31 2 29 28
M  V30 32 1 30 29
M  V30 33 1 31 26
M  V30 34 2 31 30
M  V30 35 2 32 23
M  V30 36 1 32 31
M  V30 37 1 33 4
M  V30 38 1 34 5
M  V30 39 1 35 5
M  V30 40 1 36 6
M  V30 41 1 37 6
M  V30 42 1 38 8
M  V30 43 1 39 8
M  V30 44 1 40 9
M  V30 45 1 41 9
M  V30 46 1 10 42 CFG=3
M  V30 47 1 43 15
M  V30 48 1 44 18
M  V30 49 1 45 19
M  V30 50 1 46 21
M  V30 51 1 47 21
M  V30 52 1 48 22
M  V30 53 1 49 22
M  V30 54 1 50 24
M  V30 55 1 51 25
M  V30 56 1 52 27
M  V30 57 1 53 28
M  V30 58 1 54 29
M  V30 59 1 55 30
M  V30 60 1 56 32
M  V30 61 1 7 57 CFG=1
M  V30 END BOND
M  V30 END CTAB
M  END
>  <b_m_subgroup_collapsed>  (501) 
0

>  <r_i_docking_score>  (501) 
-8.2214484636822895

>  <s_m_subgroup_title>  (501) 
glide-dock_SP_D22_pv

>  <s_m_subgroupid>  (501) 
glide-dock_SP_D22_pv

>  <Molecule ChEMBL ID>  (501) 
CHEMBL3290004

>  <Standard Type>  (501) 
Ki

>  <Standard Value>  (501) 
5.2

>  <label>  (501) 
1

$$$$
CHEMBL4470321
     RDKit          3D

  0  0  0  0  0  0  0  0  0  0999 V3000
M  V30 BEGIN CTAB
M  V30 COUNTS 50 52 0 0 1
M  V30 BEGIN ATOM
M  V30 1 O 8.727669 8.444527 -7.326902 0
M  V30 2 C 9.919645 7.689332 -7.359768 0 CFG=1
M  V30 3 C 10.697273 7.928698 -6.056206 0
M  V30 4 C 11.168531 6.866303 -5.247887 0
M  V30 5 C 11.747672 7.112952 -3.989030 0
M  V30 6 C 11.888066 8.432282 -3.524921 0
M  V30 7 Cl 12.486235 8.718049 -1.937690 0
M  V30 8 C 11.486146 9.503633 -4.341908 0
M  V30 9 C 10.894370 9.253768 -5.597547 0
M  V30 10 C 9.542105 6.206210 -7.602933 0
M  V30 11 C 8.867974 5.945612 -8.964250 0
M  V30 12 N 9.690082 6.464437 -10.084970 0 CFG=1 CHG=1
M  V30 13 C 9.106670 6.181875 -11.420788 0
M  V30 14 C 9.124740 4.679163 -11.773380 0
M  V30 15 C 8.901953 4.389060 -13.267846 0
M  V30 16 C 10.013318 4.829200 -14.125277 0
M  V30 17 C 10.963423 5.196553 -14.798447 0
M  V30 18 C 12.102528 5.607319 -15.599701 0
M  V30 19 C 12.426494 6.973915 -15.729474 0
M  V30 20 C 13.517876 7.370032 -16.526928 0
M  V30 21 C 14.301436 6.398556 -17.180239 0
M  V30 22 F 15.358787 6.775625 -17.935438 0
M  V30 23 C 13.982525 5.033223 -17.046789 0
M  V30 24 C 12.885525 4.637474 -16.256659 0
M  V30 25 C 10.005219 7.907019 -9.914062 0
M  V30 26 C 10.728983 8.179099 -8.578159 0
M  V30 27 H 7.967839 7.898435 -7.528912 0
M  V30 28 H 11.054960 5.833234 -5.541117 0
M  V30 29 H 12.054838 6.287248 -3.368821 0
M  V30 30 H 11.599928 10.517116 -3.985701 0
M  V30 31 H 10.549424 10.087263 -6.191914 0
M  V30 32 H 10.444392 5.593661 -7.586111 0
M  V30 33 H 8.896946 5.842226 -6.803071 0
M  V30 34 H 8.720183 4.870129 -9.068669 0
M  V30 35 H 7.876138 6.389381 -8.997248 0
M  V30 36 H 8.088833 6.574938 -11.478467 0
M  V30 37 H 9.687409 6.731351 -12.159816 0
M  V30 38 H 10.068744 4.229161 -11.462098 0
M  V30 39 H 8.342390 4.172547 -11.205425 0
M  V30 40 H 8.779563 3.317523 -13.423427 0
M  V30 41 H 7.988752 4.867312 -13.620159 0
M  V30 42 H 11.834968 7.726523 -15.228436 0
M  V30 43 H 13.757936 8.417728 -16.634743 0
M  V30 44 H 14.585539 4.286972 -17.542345 0
M  V30 45 H 12.652220 3.586641 -16.156052 0
M  V30 46 H 10.642253 8.244861 -10.731702 0
M  V30 47 H 9.084579 8.492439 -9.974972 0
M  V30 48 H 10.940289 9.246550 -8.495742 0
M  V30 49 H 11.701679 7.682146 -8.589124 0
M  V30 50 H 10.572022 5.972454 -10.053519 0
M  V30 END ATOM
M  V30 BEGIN BOND
M  V30 1 1 2 1 CFG=1
M  V30 2 1 3 2
M  V30 3 1 4 3
M  V30 4 2 5 4
M  V30 5 1 6 5
M  V30 6 1 7 6
M  V30 7 2 8 6
M  V30 8 2 9 3
M  V30 9 1 9 8
M  V30 10 1 10 2
M  V30 11 1 11 10
M  V30 12 1 12 11
M  V30 13 1 13 12
M  V30 14 1 14 13
M  V30 15 1 15 14
M  V30 16 1 16 15
M  V30 17 3 17 16
M  V30 18 1 18 17
M  V30 19 1 19 18
M  V30 20 2 20 19
M  V30 21 1 21 20
M  V30 22 1 22 21
M  V30 23 2 23 21
M  V30 24 2 24 18
M  V30 25 1 24 23
M  V30 26 1 25 12
M  V30 27 1 26 2
M  V30 28 1 26 25
M  V30 29 1 27 1
M  V30 30 1 28 4
M  V30 31 1 29 5
M  V30 32 1 30 8
M  V30 33 1 31 9
M  V30 34 1 32 10
M  V30 35 1 33 10
M  V30 36 1 34 11
M  V30 37 1 35 11
M  V30 38 1 36 13
M  V30 39 1 37 13
M  V30 40 1 38 14
M  V30 41 1 39 14
M  V30 42 1 40 15
M  V30 43 1 41 15
M  V30 44 1 42 19
M  V30 45 1 43 20
M  V30 46 1 44 23
M  V30 47 1 45 24
M  V30 48 1 46 25
M  V30 49 1 47 25
M  V30 50 1 48 26
M  V30 51 1 49 26
M  V30 52 1 12 50 CFG=3
M  V30 END BOND
M  V30 END CTAB
M  END
>  <b_m_subgroup_collapsed>  (502) 
0

>  <r_i_docking_score>  (502) 
-8.22142520920797

>  <s_m_subgroup_title>  (502) 
glide-dock_SP_D22_pv

>  <s_m_subgroupid>  (502) 
glide-dock_SP_D22_pv

>  <Molecule ChEMBL ID>  (502) 
CHEMBL4470321

>  <Standard Type>  (502) 
Ki

>  <Standard Value>  (502) 
19.05

>  <label>  (502) 
1

$$$$
CHEMBL246232
     RDKit          3D

  0  0  0  0  0  0  0  0  0  0999 V3000
M  V30 BEGIN CTAB
M  V30 COUNTS 51 54 0 0 1
M  V30 BEGIN ATOM
M  V30 1 N 6.749828 5.747447 -12.246758 0 CHG=1
M  V30 2 C 7.971305 6.572316 -12.301228 0
M  V30 3 C 9.259612 5.900148 -11.724655 0 CFG=1
M  V30 4 C 9.905410 5.105859 -12.884562 0
M  V30 5 C 11.017085 5.609944 -13.607610 0
M  V30 6 C 11.573627 4.885812 -14.679756 0
M  V30 7 C 11.026307 3.646467 -15.055304 0
M  V30 8 Cl 11.686470 2.769228 -16.384579 0
M  V30 9 C 9.926026 3.129947 -14.350962 0
M  V30 10 C 9.368370 3.855515 -13.282419 0
M  V30 11 C 10.208300 7.007806 -11.171182 0
M  V30 12 C 9.811963 7.602578 -9.795382 0
M  V30 13 N 9.662449 6.554456 -8.746948 0 CFG=1 CHG=1
M  V30 14 C 9.309026 7.048446 -7.380699 0
M  V30 15 C 10.290405 7.980593 -6.715016 0
M  V30 16 C 10.510016 9.273455 -7.091368 0
M  V30 17 N 11.313368 9.911304 -6.164659 0
M  V30 18 C 11.632706 9.049478 -5.138821 0
M  V30 19 C 12.338172 9.221634 -3.933433 0
M  V30 20 C 12.486011 8.140307 -3.050779 0
M  V30 21 C 11.979248 6.881459 -3.406091 0
M  V30 22 C 11.284857 6.721886 -4.620455 0
M  V30 23 C 11.053526 7.798405 -5.502860 0
M  V30 24 C 8.657309 5.563503 -9.192235 0
M  V30 25 C 9.026663 4.920904 -10.534565 0
M  V30 26 H 5.998037 6.250233 -12.695548 0
M  V30 27 H 6.894856 4.859017 -12.701501 0
M  V30 28 H 7.753148 7.532571 -11.846623 0
M  V30 29 H 8.125677 6.830531 -13.348242 0
M  V30 30 H 11.465415 6.561853 -13.369977 0
M  V30 31 H 12.418406 5.287823 -15.220543 0
M  V30 32 H 9.504936 2.176001 -14.633777 0
M  V30 33 H 8.518441 3.424571 -12.779825 0
M  V30 34 H 10.302245 7.820733 -11.892422 0
M  V30 35 H 11.209767 6.599085 -11.054252 0
M  V30 36 H 8.887336 8.177858 -9.871024 0
M  V30 37 H 10.600972 8.297331 -9.515469 0
M  V30 38 H 9.158830 6.184447 -6.730605 0
M  V30 39 H 8.336821 7.540095 -7.431779 0
M  V30 40 H 10.102965 9.772279 -7.949666 0
M  V30 41 H 11.585443 10.881970 -6.231021 0
M  V30 42 H 12.759045 10.172207 -3.662565 0
M  V30 43 H 13.006796 8.273539 -2.113662 0
M  V30 44 H 12.097566 6.039417 -2.738178 0
M  V30 45 H 10.852773 5.772039 -4.858016 0
M  V30 46 H 8.551455 4.777869 -8.441886 0
M  V30 47 H 7.686715 6.050853 -9.270378 0
M  V30 48 H 8.268996 4.173218 -10.765957 0
M  V30 49 H 9.943935 4.349963 -10.373558 0
M  V30 50 H 6.491099 5.609400 -11.277434 0
M  V30 51 H 10.548193 6.076389 -8.661726 0
M  V30 END ATOM
M  V30 BEGIN BOND
M  V30 1 1 2 1
M  V30 2 1 3 2 CFG=3
M  V30 3 1 4 3
M  V30 4 1 5 4
M  V30 5 2 6 5
M  V30 6 1 7 6
M  V30 7 1 8 7
M  V30 8 2 9 7
M  V30 9 2 10 4
M  V30 10 1 10 9
M  V30 11 1 11 3
M  V30 12 1 12 11
M  V30 13 1 13 12
M  V30 14 1 14 13
M  V30 15 1 15 14
M  V30 16 2 16 15
M  V30 17 1 17 16
M  V30 18 1 18 17
M  V30 19 2 19 18
M  V30 20 1 20 19
M  V30 21 2 21 20
M  V30 22 1 22 21
M  V30 23 1 23 15
M  V30 24 1 23 18
M  V30 25 2 23 22
M  V30 26 1 24 13
M  V30 27 1 25 3
M  V30 28 1 25 24
M  V30 29 1 26 1
M  V30 30 1 27 1
M  V30 31 1 28 2
M  V30 32 1 29 2
M  V30 33 1 30 5
M  V30 34 1 31 6
M  V30 35 1 32 9
M  V30 36 1 33 10
M  V30 37 1 34 11
M  V30 38 1 35 11
M  V30 39 1 36 12
M  V30 40 1 37 12
M  V30 41 1 38 14
M  V30 42 1 39 14
M  V30 43 1 40 16
M  V30 44 1 41 17
M  V30 45 1 42 19
M  V30 46 1 43 20
M  V30 47 1 44 21
M  V30 48 1 45 22
M  V30 49 1 46 24
M  V30 50 1 47 24
M  V30 51 1 48 25
M  V30 52 1 49 25
M  V30 53 1 50 1
M  V30 54 1 13 51 CFG=1
M  V30 END BOND
M  V30 END CTAB
M  END
>  <b_m_subgroup_collapsed>  (503) 
0

>  <r_i_docking_score>  (503) 
-8.2212502879429294

>  <s_m_subgroup_title>  (503) 
glide-dock_SP_D22_pv

>  <s_m_subgroupid>  (503) 
glide-dock_SP_D22_pv

>  <Molecule ChEMBL ID>  (503) 
CHEMBL246232

>  <Standard Type>  (503) 
Ki

>  <Standard Value>  (503) 
10000.0

>  <label>  (503) 
0

$$$$
CHEMBL164471
     RDKit          3D

  0  0  0  0  0  0  0  0  0  0999 V3000
M  V30 BEGIN CTAB
M  V30 COUNTS 52 56 0 0 1
M  V30 BEGIN ATOM
M  V30 1 O 7.468134 4.410624 -13.258080 0
M  V30 2 C 8.515158 3.826540 -13.534778 0
M  V30 3 C 8.550918 2.595435 -14.351564 0
M  V30 4 C 7.576603 1.673669 -14.827756 0
M  V30 5 C 8.274394 0.715122 -15.513077 0
M  V30 6 O 9.610556 0.995718 -15.523849 0
M  V30 7 C 9.750607 2.154593 -14.827798 0
M  V30 8 C 11.104904 2.746394 -14.663224 0
M  V30 9 C 10.994996 4.174585 -14.084764 0
M  V30 10 C 9.889332 4.302176 -13.002160 0 CFG=1
M  V30 11 C 9.861920 5.702124 -12.341570 0
M  V30 12 C 9.361742 5.648674 -10.880869 0
M  V30 13 N 9.486925 6.929947 -10.131471 0 CFG=1 CHG=1
M  V30 14 C 8.755597 6.848243 -8.842911 0
M  V30 15 C 8.806044 8.187674 -8.070486 0
M  V30 16 C 10.237904 8.671030 -7.809267 0 CFG=1
M  V30 17 C 10.898773 7.915233 -6.683183 0
M  V30 18 N 11.149373 6.609866 -6.778123 0
M  V30 19 O 11.636831 6.175017 -5.519235 0
M  V30 20 C 11.689527 7.246235 -4.645972 0
M  V30 21 C 12.100463 7.331482 -3.310814 0
M  V30 22 C 12.100492 8.607154 -2.713158 0
M  V30 23 F 12.511678 8.746145 -1.435944 0
M  V30 24 C 11.685845 9.742666 -3.447234 0
M  V30 25 C 11.270288 9.626732 -4.793595 0
M  V30 26 C 11.273619 8.350115 -5.392010 0
M  V30 27 C 11.021379 8.685748 -9.132607 0
M  V30 28 C 10.897924 7.373323 -9.933630 0
M  V30 29 H 6.509856 1.695529 -14.666633 0
M  V30 30 H 7.990561 -0.189131 -16.032757 0
M  V30 31 H 11.674839 2.126692 -13.972260 0
M  V30 32 H 11.645682 2.752086 -15.609324 0
M  V30 33 H 10.763157 4.868085 -14.894989 0
M  V30 34 H 11.965612 4.480275 -13.692721 0
M  V30 35 H 10.149188 3.586055 -12.221268 0
M  V30 36 H 10.871356 6.104513 -12.383634 0
M  V30 37 H 9.245322 6.390869 -12.921037 0
M  V30 38 H 8.311150 5.350200 -10.887265 0
M  V30 39 H 9.894759 4.872302 -10.328407 0
M  V30 40 H 7.721658 6.554807 -9.046591 0
M  V30 41 H 9.153286 6.032015 -8.241044 0
M  V30 42 H 8.253572 8.105508 -7.132392 0
M  V30 43 H 8.292482 8.949691 -8.655998 0
M  V30 44 H 10.161092 9.702095 -7.477924 0
M  V30 45 H 12.424931 6.455342 -2.768008 0
M  V30 46 H 11.686707 10.708056 -2.965025 0
M  V30 47 H 10.954750 10.500116 -5.345803 0
M  V30 48 H 12.069641 8.931075 -8.952570 0
M  V30 49 H 10.632393 9.493226 -9.755757 0
M  V30 50 H 11.448146 6.578403 -9.435069 0
M  V30 51 H 11.389507 7.530932 -10.892045 0
M  V30 52 H 9.001849 7.635778 -10.668340 0
M  V30 END ATOM
M  V30 BEGIN BOND
M  V30 1 2 2 1
M  V30 2 1 3 2
M  V30 3 1 4 3
M  V30 4 2 5 4
M  V30 5 1 6 5
M  V30 6 2 7 3
M  V30 7 1 7 6
M  V30 8 1 8 7
M  V30 9 1 9 8
M  V30 10 1 10 2
M  V30 11 1 10 9
M  V30 12 1 11 10
M  V30 13 1 12 11
M  V30 14 1 13 12
M  V30 15 1 14 13
M  V30 16 1 15 14
M  V30 17 1 16 15
M  V30 18 1 17 16
M  V30 19 2 18 17
M  V30 20 1 19 18
M  V30 21 1 20 19
M  V30 22 1 21 20
M  V30 23 2 22 21
M  V30 24 1 23 22
M  V30 25 1 24 22
M  V30 26 2 25 24
M  V30 27 1 26 17
M  V30 28 2 26 20
M  V30 29 1 26 25
M  V30 30 1 27 16
M  V30 31 1 28 13
M  V30 32 1 28 27
M  V30 33 1 29 4
M  V30 34 1 30 5
M  V30 35 1 31 8
M  V30 36 1 32 8
M  V30 37 1 33 9
M  V30 38 1 34 9
M  V30 39 1 10 35 CFG=1
M  V30 40 1 36 11
M  V30 41 1 37 11
M  V30 42 1 38 12
M  V30 43 1 39 12
M  V30 44 1 40 14
M  V30 45 1 41 14
M  V30 46 1 42 15
M  V30 47 1 43 15
M  V30 48 1 16 44 CFG=1
M  V30 49 1 45 21
M  V30 50 1 46 24
M  V30 51 1 47 25
M  V30 52 1 48 27
M  V30 53 1 49 27
M  V30 54 1 50 28
M  V30 55 1 51 28
M  V30 56 1 13 52 CFG=3
M  V30 END BOND
M  V30 END CTAB
M  END
>  <b_m_subgroup_collapsed>  (504) 
0

>  <r_i_docking_score>  (504) 
-8.2205052991817595

>  <s_m_subgroup_title>  (504) 
glide-dock_SP_D22_pv

>  <s_m_subgroupid>  (504) 
glide-dock_SP_D22_pv

>  <Molecule ChEMBL ID>  (504) 
CHEMBL164471

>  <Standard Type>  (504) 
Ki

>  <Standard Value>  (504) 
45.71

>  <label>  (504) 
1

$$$$
CHEMBL164471
     RDKit          3D

  0  0  0  0  0  0  0  0  0  0999 V3000
M  V30 BEGIN CTAB
M  V30 COUNTS 52 56 0 0 1
M  V30 BEGIN ATOM
M  V30 1 O 10.116809 4.044904 -13.161347 0
M  V30 2 C 8.933657 3.861907 -13.451440 0
M  V30 3 C 8.477386 2.700309 -14.246376 0
M  V30 4 C 9.127084 1.628364 -14.918705 0
M  V30 5 C 8.123476 0.850812 -15.432983 0
M  V30 6 O 6.896888 1.362905 -15.123043 0
M  V30 7 C 7.141680 2.474944 -14.380871 0
M  V30 8 C 5.993262 3.252788 -13.845233 0
M  V30 9 C 6.468241 4.196386 -12.729271 0
M  V30 10 C 7.834250 4.872139 -13.044076 0 CFG=1
M  V30 11 C 8.262491 5.873099 -11.949256 0
M  V30 12 C 8.554126 5.249230 -10.568003 0
M  V30 13 N 8.885983 6.271914 -9.538528 0 CFG=1 CHG=1
M  V30 14 C 8.681712 5.753262 -8.158675 0
M  V30 15 C 9.021630 6.801932 -7.084241 0
M  V30 16 C 10.472509 7.276539 -7.234598 0 CFG=2
M  V30 17 C 10.854280 8.288668 -6.185111 0
M  V30 18 N 10.599925 9.582041 -6.371128 0
M  V30 19 O 11.047168 10.282037 -5.220541 0
M  V30 20 C 11.555090 9.381083 -4.303230 0
M  V30 21 C 12.085576 9.565787 -3.021479 0
M  V30 22 C 12.483811 8.421204 -2.300911 0
M  V30 23 F 12.981844 8.561738 -1.047361 0
M  V30 24 C 12.323110 7.134761 -2.871608 0
M  V30 25 C 11.786091 6.975069 -4.172690 0
M  V30 26 C 11.414434 8.126886 -4.899535 0
M  V30 27 C 10.682045 7.809758 -8.666068 0
M  V30 28 C 10.270872 6.773481 -9.719001 0
M  V30 29 H 10.187602 1.442874 -15.007648 0
M  V30 30 H 8.103012 -0.062624 -16.009844 0
M  V30 31 H 5.567611 3.847151 -14.646816 0
M  V30 32 H 5.208095 2.589777 -13.479787 0
M  V30 33 H 6.560319 3.607131 -11.816934 0
M  V30 34 H 5.701420 4.945424 -12.522594 0
M  V30 35 H 7.685894 5.466058 -13.944097 0
M  V30 36 H 9.134849 6.412621 -12.314420 0
M  V30 37 H 7.478772 6.624484 -11.849466 0
M  V30 38 H 7.685477 4.694176 -10.238665 0
M  V30 39 H 9.358756 4.518000 -10.631603 0
M  V30 40 H 7.655509 5.431809 -8.023854 0
M  V30 41 H 9.297002 4.864579 -8.013478 0
M  V30 42 H 8.886505 6.364159 -6.096290 0
M  V30 43 H 8.333556 7.646676 -7.149389 0
M  V30 44 H 11.120028 6.406505 -7.111001 0
M  V30 45 H 12.160367 10.554668 -2.598241 0
M  V30 46 H 12.606830 6.261338 -2.302068 0
M  V30 47 H 11.664143 5.988125 -4.598367 0
M  V30 48 H 11.725703 8.089467 -8.812385 0
M  V30 49 H 10.093802 8.714683 -8.828535 0
M  V30 50 H 10.894189 5.893059 -9.632794 0
M  V30 51 H 10.421238 7.192510 -10.713230 0
M  V30 52 H 8.222817 7.033311 -9.662170 0
M  V30 END ATOM
M  V30 BEGIN BOND
M  V30 1 2 2 1
M  V30 2 1 3 2
M  V30 3 1 4 3
M  V30 4 2 5 4
M  V30 5 1 6 5
M  V30 6 2 7 3
M  V30 7 1 7 6
M  V30 8 1 8 7
M  V30 9 1 9 8
M  V30 10 1 10 2
M  V30 11 1 10 9
M  V30 12 1 11 10
M  V30 13 1 12 11
M  V30 14 1 13 12
M  V30 15 1 14 13
M  V30 16 1 15 14
M  V30 17 1 16 15
M  V30 18 1 17 16
M  V30 19 2 18 17
M  V30 20 1 19 18
M  V30 21 1 20 19
M  V30 22 1 21 20
M  V30 23 2 22 21
M  V30 24 1 23 22
M  V30 25 1 24 22
M  V30 26 2 25 24
M  V30 27 1 26 17
M  V30 28 2 26 20
M  V30 29 1 26 25
M  V30 30 1 27 16
M  V30 31 1 28 13
M  V30 32 1 28 27
M  V30 33 1 29 4
M  V30 34 1 30 5
M  V30 35 1 31 8
M  V30 36 1 32 8
M  V30 37 1 33 9
M  V30 38 1 34 9
M  V30 39 1 10 35 CFG=3
M  V30 40 1 36 11
M  V30 41 1 37 11
M  V30 42 1 38 12
M  V30 43 1 39 12
M  V30 44 1 40 14
M  V30 45 1 41 14
M  V30 46 1 42 15
M  V30 47 1 43 15
M  V30 48 1 16 44 CFG=1
M  V30 49 1 45 21
M  V30 50 1 46 24
M  V30 51 1 47 25
M  V30 52 1 48 27
M  V30 53 1 49 27
M  V30 54 1 50 28
M  V30 55 1 51 28
M  V30 56 1 13 52 CFG=3
M  V30 END BOND
M  V30 END CTAB
M  END
>  <b_m_subgroup_collapsed>  (505) 
0

>  <r_i_docking_score>  (505) 
-8.2202191984302395

>  <s_m_subgroup_title>  (505) 
glide-dock_SP_D22_pv

>  <s_m_subgroupid>  (505) 
glide-dock_SP_D22_pv

>  <Molecule ChEMBL ID>  (505) 
CHEMBL164471

>  <Standard Type>  (505) 
Ki

>  <Standard Value>  (505) 
45.71

>  <label>  (505) 
1

$$$$
CHEMBL296953
     RDKit          3D

  0  0  0  0  0  0  0  0  0  0999 V3000
M  V30 BEGIN CTAB
M  V30 COUNTS 43 45 0 0 1
M  V30 BEGIN ATOM
M  V30 1 O 10.448381 6.056909 -12.646478 0
M  V30 2 C 9.287409 6.172678 -12.247115 0
M  V30 3 N 8.884988 7.172019 -11.451996 0
M  V30 4 C 9.751523 8.117129 -10.782112 0
M  V30 5 N 10.413847 7.631835 -9.578262 0
M  V30 6 C 11.282491 8.692313 -9.063369 0
M  V30 7 C 12.006057 8.202150 -7.803994 0
M  V30 8 N 11.023857 7.778914 -6.806417 0
M  V30 9 C 11.338189 7.894675 -5.442651 0
M  V30 10 C 11.504290 6.756852 -4.625765 0
M  V30 11 C 11.885092 6.893874 -3.274968 0
M  V30 12 C 12.086308 8.172755 -2.722833 0
M  V30 13 C 11.903674 9.314129 -3.524131 0
M  V30 14 C 11.534772 9.172628 -4.876853 0
M  V30 15 Cl 11.286155 10.572723 -5.842868 0
M  V30 16 C 10.103591 6.758131 -7.278736 0
M  V30 17 C 9.414206 7.268643 -8.558518 0
M  V30 18 C 8.231339 5.176602 -12.647761 0
M  V30 19 C 8.487522 4.250572 -13.686190 0
M  V30 20 C 7.564711 3.226862 -13.978765 0
M  V30 21 C 6.373121 3.118834 -13.237735 0
M  V30 22 Cl 5.338640 1.753314 -13.446398 0
M  V30 23 C 6.080274 4.071510 -12.247668 0
M  V30 24 C 7.003634 5.090659 -11.948790 0
M  V30 25 H 7.904068 7.225613 -11.182146 0
M  V30 26 H 9.141705 8.990417 -10.540159 0
M  V30 27 H 10.503528 8.462315 -11.491653 0
M  V30 28 H 10.699311 9.585821 -8.837586 0
M  V30 29 H 12.020496 8.970964 -9.818411 0
M  V30 30 H 12.664770 8.981509 -7.422163 0
M  V30 31 H 12.661023 7.372257 -8.052811 0
M  V30 32 H 11.363516 5.772381 -5.038448 0
M  V30 33 H 12.019947 6.014877 -2.660417 0
M  V30 34 H 12.365208 8.282228 -1.685433 0
M  V30 35 H 12.043209 10.295915 -3.095240 0
M  V30 36 H 10.649816 5.835105 -7.478827 0
M  V30 37 H 9.354655 6.539596 -6.516896 0
M  V30 38 H 8.782932 8.128277 -8.325293 0
M  V30 39 H 8.750110 6.490732 -8.939243 0
M  V30 40 H 9.417496 4.291064 -14.234120 0
M  V30 41 H 7.797312 2.493443 -14.737018 0
M  V30 42 H 5.176023 3.988314 -11.664048 0
M  V30 43 H 6.764481 5.771179 -11.142443 0
M  V30 END ATOM
M  V30 BEGIN BOND
M  V30 1 2 2 1
M  V30 2 1 3 2
M  V30 3 1 4 3
M  V30 4 1 5 4
M  V30 5 1 6 5
M  V30 6 1 7 6
M  V30 7 1 8 7
M  V30 8 1 9 8
M  V30 9 2 10 9
M  V30 10 1 11 10
M  V30 11 2 12 11
M  V30 12 1 13 12
M  V30 13 1 14 9
M  V30 14 2 14 13
M  V30 15 1 15 14
M  V30 16 1 16 8
M  V30 17 1 17 5
M  V30 18 1 17 16
M  V30 19 1 18 2
M  V30 20 1 19 18
M  V30 21 2 20 19
M  V30 22 1 21 20
M  V30 23 1 22 21
M  V30 24 2 23 21
M  V30 25 2 24 18
M  V30 26 1 24 23
M  V30 27 1 25 3
M  V30 28 1 26 4
M  V30 29 1 27 4
M  V30 30 1 28 6
M  V30 31 1 29 6
M  V30 32 1 30 7
M  V30 33 1 31 7
M  V30 34 1 32 10
M  V30 35 1 33 11
M  V30 36 1 34 12
M  V30 37 1 35 13
M  V30 38 1 36 16
M  V30 39 1 37 16
M  V30 40 1 38 17
M  V30 41 1 39 17
M  V30 42 1 40 19
M  V30 43 1 41 20
M  V30 44 1 42 23
M  V30 45 1 43 24
M  V30 END BOND
M  V30 END CTAB
M  END
>  <b_m_subgroup_collapsed>  (506) 
0

>  <r_i_docking_score>  (506) 
-8.2199084058301004

>  <s_m_subgroup_title>  (506) 
glide-dock_SP_D22_pv

>  <s_m_subgroupid>  (506) 
glide-dock_SP_D22_pv

>  <Molecule ChEMBL ID>  (506) 
CHEMBL296953

>  <Standard Type>  (506) 
Ki

>  <Standard Value>  (506) 
66.07

>  <label>  (506) 
1

$$$$
CHEMBL80315
     RDKit          3D

  0  0  0  0  0  0  0  0  0  0999 V3000
M  V30 BEGIN CTAB
M  V30 COUNTS 63 66 0 0 1
M  V30 BEGIN ATOM
M  V30 1 C 11.513547 6.353966 -6.487263 0
M  V30 2 N 11.182858 7.782415 -6.585620 0
M  V30 3 C 11.263506 8.662333 -5.554255 0
M  V30 4 O 11.009459 9.860695 -5.704642 0
M  V30 5 C 11.685800 8.192398 -4.206136 0
M  V30 6 C 11.726522 6.971954 -3.571890 0
M  V30 7 C 12.221603 7.038185 -2.246867 0
M  V30 8 C 12.485892 8.317593 -1.846864 0
M  V30 9 S 12.086182 9.461453 -3.081375 0
M  V30 10 C 10.760106 8.222236 -7.926153 0 CFG=1
M  V30 11 C 11.987260 8.273854 -8.864429 0
M  V30 12 C 11.608608 8.461156 -10.333311 0
M  V30 13 C 10.534059 7.442654 -10.767453 0 CFG=2
M  V30 14 C 10.174089 7.542905 -12.251106 0
M  V30 15 C 11.285909 7.098711 -13.235884 0
M  V30 16 N 11.189254 5.682491 -13.678050 0 CHG=1
M  V30 17 C 9.945131 5.273793 -14.402879 0
M  V30 18 C 9.920818 3.750789 -14.651525 0
M  V30 19 N 11.181997 3.316405 -15.234929 0
M  V30 20 C 11.229777 2.565693 -16.419701 0
M  V30 21 C 11.901995 3.102242 -17.540455 0
M  V30 22 C 11.996617 2.370723 -18.737913 0
M  V30 23 C 11.423417 1.089897 -18.821882 0
M  V30 24 C 10.757960 0.539762 -17.709967 0
M  V30 25 Cl 10.083325 -1.042143 -17.847486 0
M  V30 26 C 10.656990 1.270530 -16.503792 0
M  V30 27 Cl 9.884399 0.549858 -15.129535 0
M  V30 28 C 12.418003 3.802918 -14.655169 0
M  V30 29 C 12.378544 5.312545 -14.476982 0
M  V30 30 C 9.278306 7.648060 -9.912769 0
M  V30 31 C 9.568733 7.378846 -8.440535 0
M  V30 32 H 12.434643 6.167770 -5.941289 0
M  V30 33 H 10.689855 5.830013 -6.007338 0
M  V30 34 H 11.663893 5.871318 -7.446872 0
M  V30 35 H 11.440795 6.016967 -3.979432 0
M  V30 36 H 12.355475 6.151333 -1.644702 0
M  V30 37 H 12.860892 8.670998 -0.900683 0
M  V30 38 H 10.370852 9.241536 -7.905365 0
M  V30 39 H 12.658457 9.070291 -8.547350 0
M  V30 40 H 12.581373 7.372336 -8.787202 0
M  V30 41 H 11.242423 9.475038 -10.476065 0
M  V30 42 H 12.512672 8.381752 -10.934744 0
M  V30 43 H 10.886092 6.432286 -10.573511 0
M  V30 44 H 9.247255 7.002988 -12.423109 0
M  V30 45 H 9.901793 8.572254 -12.462526 0
M  V30 46 H 11.286036 7.736605 -14.117946 0
M  V30 47 H 12.263278 7.259436 -12.783583 0
M  V30 48 H 9.034256 5.541483 -13.873388 0
M  V30 49 H 9.909194 5.772124 -15.370013 0
M  V30 50 H 9.769279 3.216604 -13.711887 0
M  V30 51 H 9.086357 3.489248 -15.304050 0
M  V30 52 H 12.346526 4.085504 -17.489485 0
M  V30 53 H 12.510166 2.791764 -19.590338 0
M  V30 54 H 11.498645 0.524351 -19.739643 0
M  V30 55 H 12.486018 3.366132 -13.664031 0
M  V30 56 H 13.286020 3.509780 -15.245211 0
M  V30 57 H 12.359166 5.817043 -15.444497 0
M  V30 58 H 13.285752 5.630795 -13.975070 0
M  V30 59 H 8.888113 8.659133 -10.039572 0
M  V30 60 H 8.486137 6.971246 -10.235295 0
M  V30 61 H 9.737540 6.308166 -8.341103 0
M  V30 62 H 8.678103 7.592441 -7.846448 0
M  V30 63 H 11.217813 5.119678 -12.841001 0
M  V30 END ATOM
M  V30 BEGIN BOND
M  V30 1 1 2 1
M  V30 2 1 3 2
M  V30 3 2 4 3
M  V30 4 1 5 3
M  V30 5 2 6 5
M  V30 6 1 7 6
M  V30 7 2 8 7
M  V30 8 1 9 5
M  V30 9 1 9 8
M  V30 10 1 10 2
M  V30 11 1 11 10
M  V30 12 1 12 11
M  V30 13 1 13 12
M  V30 14 1 14 13
M  V30 15 1 15 14
M  V30 16 1 16 15
M  V30 17 1 17 16
M  V30 18 1 18 17
M  V30 19 1 19 18
M  V30 20 1 20 19
M  V30 21 2 21 20
M  V30 22 1 22 21
M  V30 23 2 23 22
M  V30 24 1 24 23
M  V30 25 1 25 24
M  V30 26 1 26 20
M  V30 27 2 26 24
M  V30 28 1 27 26
M  V30 29 1 28 19
M  V30 30 1 29 16
M  V30 31 1 29 28
M  V30 32 1 30 13
M  V30 33 1 31 10
M  V30 34 1 31 30
M  V30 35 1 32 1
M  V30 36 1 33 1
M  V30 37 1 34 1
M  V30 38 1 35 6
M  V30 39 1 36 7
M  V30 40 1 37 8
M  V30 41 1 10 38 CFG=1
M  V30 42 1 39 11
M  V30 43 1 40 11
M  V30 44 1 41 12
M  V30 45 1 42 12
M  V30 46 1 13 43 CFG=3
M  V30 47 1 44 14
M  V30 48 1 45 14
M  V30 49 1 46 15
M  V30 50 1 47 15
M  V30 51 1 48 17
M  V30 52 1 49 17
M  V30 53 1 50 18
M  V30 54 1 51 18
M  V30 55 1 52 21
M  V30 56 1 53 22
M  V30 57 1 54 23
M  V30 58 1 55 28
M  V30 59 1 56 28
M  V30 60 1 57 29
M  V30 61 1 58 29
M  V30 62 1 59 30
M  V30 63 1 60 30
M  V30 64 1 61 31
M  V30 65 1 62 31
M  V30 66 1 63 16
M  V30 END BOND
M  V30 END CTAB
M  END
>  <b_m_subgroup_collapsed>  (507) 
0

>  <r_i_docking_score>  (507) 
-8.2198428130616694

>  <s_m_subgroup_title>  (507) 
glide-dock_SP_D22_pv

>  <s_m_subgroupid>  (507) 
glide-dock_SP_D22_pv

>  <Molecule ChEMBL ID>  (507) 
CHEMBL80315

>  <Standard Type>  (507) 
Ki

>  <Standard Value>  (507) 
16.5

>  <label>  (507) 
1

$$$$
CHEMBL185436
     RDKit          3D

  0  0  0  0  0  0  0  0  0  0999 V3000
M  V30 BEGIN CTAB
M  V30 COUNTS 55 59 0 0 1
M  V30 BEGIN ATOM
M  V30 1 C 12.285928 8.230281 -2.100090 0
M  V30 2 C 12.086192 9.398456 -2.859022 0
M  V30 3 C 11.705028 9.315276 -4.210931 0
M  V30 4 C 11.501925 8.053949 -4.808737 0
M  V30 5 C 11.105968 7.956828 -6.206334 0
M  V30 6 N 10.153864 7.113931 -6.652658 0
M  V30 7 C 10.106192 7.234764 -8.029594 0
M  V30 8 C 9.345773 6.625606 -9.038679 0
M  V30 9 C 9.584367 6.980466 -10.382771 0
M  V30 10 C 8.735031 6.378926 -11.484730 0
M  V30 11 C 9.353312 5.095045 -12.067595 0
M  V30 12 N 8.579485 4.512063 -13.171015 0
M  V30 13 C 9.292409 3.298173 -13.602357 0
M  V30 14 C 8.531127 2.533157 -14.705955 0
M  V30 15 N 7.187565 2.226006 -14.239453 0
M  V30 16 C 6.484852 1.082713 -14.652823 0
M  V30 17 C 6.755243 0.451281 -15.888907 0
M  V30 18 C 5.958883 -0.627453 -16.327972 0
M  V30 19 C 4.894071 -1.095483 -15.536132 0
M  V30 20 C 4.630332 -0.489570 -14.294469 0
M  V30 21 C 5.428994 0.581920 -13.848209 0
M  V30 22 C 6.437377 3.395589 -13.794987 0
M  V30 23 C 7.224424 4.161020 -12.716120 0
M  V30 24 C 10.587886 7.921817 -10.696950 0
M  V30 25 C 11.331556 8.548663 -9.674293 0
M  V30 26 C 11.093895 8.215633 -8.322518 0
M  V30 27 N 11.686107 8.683844 -7.163795 0
M  V30 28 C 11.687850 6.884859 -4.042131 0
M  V30 29 C 12.086215 6.970402 -2.694382 0
M  V30 30 H 12.574777 8.305283 -1.059141 0
M  V30 31 H 12.217735 10.367503 -2.401970 0
M  V30 32 H 11.562899 10.216903 -4.788342 0
M  V30 33 H 8.567540 5.918766 -8.786577 0
M  V30 34 H 7.757864 6.171955 -11.047724 0
M  V30 35 H 8.578690 7.119507 -12.270184 0
M  V30 36 H 10.356628 5.323923 -12.430144 0
M  V30 37 H 9.468665 4.363723 -11.266529 0
M  V30 38 H 10.282379 3.573024 -13.968096 0
M  V30 39 H 9.449687 2.635082 -12.749008 0
M  V30 40 H 8.473731 3.128015 -15.619107 0
M  V30 41 H 9.071086 1.616257 -14.945254 0
M  V30 42 H 7.549721 0.805477 -16.529396 0
M  V30 43 H 6.166430 -1.096765 -17.278545 0
M  V30 44 H 4.282856 -1.917737 -15.880320 0
M  V30 45 H 3.803898 -0.840449 -13.695501 0
M  V30 46 H 5.207576 1.035178 -12.892827 0
M  V30 47 H 6.254835 4.046276 -14.646617 0
M  V30 48 H 5.456123 3.131626 -13.403861 0
M  V30 49 H 7.265146 3.583113 -11.793532 0
M  V30 50 H 6.661812 5.065213 -12.488680 0
M  V30 51 H 10.771589 8.172915 -11.730464 0
M  V30 52 H 12.089279 9.282046 -9.918321 0
M  V30 53 H 11.534709 5.912951 -4.489536 0
M  V30 54 H 12.230204 6.070435 -2.115707 0
M  V30 55 H 9.593796 6.510919 -6.068420 0
M  V30 END ATOM
M  V30 BEGIN BOND
M  V30 1 2 2 1
M  V30 2 1 3 2
M  V30 3 2 4 3
M  V30 4 1 5 4
M  V30 5 1 6 5
M  V30 6 1 7 6
M  V30 7 1 8 7
M  V30 8 2 9 8
M  V30 9 1 10 9
M  V30 10 1 11 10
M  V30 11 1 12 11
M  V30 12 1 13 12
M  V30 13 1 14 13
M  V30 14 1 15 14
M  V30 15 1 16 15
M  V30 16 2 17 16
M  V30 17 1 18 17
M  V30 18 2 19 18
M  V30 19 1 20 19
M  V30 20 1 21 16
M  V30 21 2 21 20
M  V30 22 1 22 15
M  V30 23 1 23 12
M  V30 24 1 23 22
M  V30 25 1 24 9
M  V30 26 2 25 24
M  V30 27 2 26 7
M  V30 28 1 26 25
M  V30 29 2 27 5
M  V30 30 1 27 26
M  V30 31 1 28 4
M  V30 32 1 29 1
M  V30 33 2 29 28
M  V30 34 1 30 1
M  V30 35 1 31 2
M  V30 36 1 32 3
M  V30 37 1 33 8
M  V30 38 1 34 10
M  V30 39 1 35 10
M  V30 40 1 36 11
M  V30 41 1 37 11
M  V30 42 1 38 13
M  V30 43 1 39 13
M  V30 44 1 40 14
M  V30 45 1 41 14
M  V30 46 1 42 17
M  V30 47 1 43 18
M  V30 48 1 44 19
M  V30 49 1 45 20
M  V30 50 1 46 21
M  V30 51 1 47 22
M  V30 52 1 48 22
M  V30 53 1 49 23
M  V30 54 1 50 23
M  V30 55 1 51 24
M  V30 56 1 52 25
M  V30 57 1 53 28
M  V30 58 1 54 29
M  V30 59 1 55 6
M  V30 END BOND
M  V30 END CTAB
M  END
>  <b_m_subgroup_collapsed>  (508) 
0

>  <r_i_docking_score>  (508) 
-8.2167597309745108

>  <s_m_subgroup_title>  (508) 
glide-dock_SP_D22_pv

>  <s_m_subgroupid>  (508) 
glide-dock_SP_D22_pv

>  <Molecule ChEMBL ID>  (508) 
CHEMBL185436

>  <Standard Type>  (508) 
Ki

>  <Standard Value>  (508) 
31.62

>  <label>  (508) 
1

$$$$
CHEMBL1087818
     RDKit          3D

  0  0  0  0  0  0  0  0  0  0999 V3000
M  V30 BEGIN CTAB
M  V30 COUNTS 68 72 0 0 1
M  V30 BEGIN ATOM
M  V30 1 C 5.817814 -0.640316 -16.875822 0
M  V30 2 S 7.295623 0.409369 -17.157810 0
M  V30 3 O 6.885345 1.696160 -17.741350 0
M  V30 4 O 8.357690 -0.394182 -17.780104 0
M  V30 5 N 7.861720 0.765587 -15.563277 0
M  V30 6 C 7.244356 1.613929 -14.643687 0
M  V30 7 C 6.086036 1.211206 -13.950091 0
M  V30 8 C 5.463343 2.094233 -13.046343 0
M  V30 9 C 6.008508 3.372377 -12.811038 0
M  V30 10 C 7.187039 3.773003 -13.485944 0
M  V30 11 O 7.784090 4.999290 -13.323423 0
M  V30 12 C 7.647888 5.630573 -12.061210 0
M  V30 13 C 8.648762 6.795860 -12.045573 0
M  V30 14 N 8.886049 7.302515 -10.672001 0 CFG=1 CHG=1
M  V30 15 C 9.735149 6.383428 -9.837964 0
M  V30 16 C 11.004042 7.007639 -9.186287 0 CFG=1
M  V30 17 C 12.151063 7.344495 -10.154174 0
M  V30 18 C 11.659856 8.555304 -10.903658 0
M  V30 19 C 10.538896 9.108379 -10.013010 0 CFG=1
M  V30 20 C 9.165387 8.769770 -10.603624 0
M  V30 21 C 10.750017 8.405785 -8.690631 0 CFG=1
M  V30 22 C 9.687616 8.543341 -7.607891 0
M  V30 23 C 10.416659 8.698545 -6.306287 0
M  V30 24 C 10.710846 9.989131 -5.849150 0
M  V30 25 C 11.262326 10.172598 -4.590761 0
M  V30 26 C 11.744817 9.083418 -3.870679 0
M  V30 27 C 11.579205 7.783879 -4.395148 0
M  V30 28 C 10.885637 7.578367 -5.598520 0
M  V30 29 N 12.042352 6.676771 -3.680695 0
M  V30 30 C 12.440598 6.748431 -2.413296 0
M  V30 31 O 12.886004 5.772337 -1.846781 0
M  V30 32 C 12.293723 8.070512 -1.654760 0
M  V30 33 C 12.450669 9.289017 -2.551527 0
M  V30 34 C 7.792243 2.887676 -14.399842 0
M  V30 35 H 5.446717 -0.999017 -17.834982 0
M  V30 36 H 6.089202 -1.494345 -16.254524 0
M  V30 37 H 5.038831 -0.057212 -16.389187 0
M  V30 38 H 8.866755 0.855417 -15.559876 0
M  V30 39 H 5.666613 0.229723 -14.112885 0
M  V30 40 H 4.565149 1.791042 -12.530821 0
M  V30 41 H 5.509121 4.029118 -12.113392 0
M  V30 42 H 6.633280 6.001182 -11.908151 0
M  V30 43 H 7.866327 4.912104 -11.269415 0
M  V30 44 H 9.600274 6.500390 -12.490947 0
M  V30 45 H 8.237694 7.578890 -12.682607 0
M  V30 46 H 9.085654 5.996040 -9.052358 0
M  V30 47 H 10.036029 5.504010 -10.409128 0
M  V30 48 H 11.314846 6.362099 -8.367537 0
M  V30 49 H 12.429135 6.572379 -10.849239 0
M  V30 50 H 13.053871 7.601758 -9.596337 0
M  V30 51 H 11.291206 8.172533 -11.857132 0
M  V30 52 H 12.468236 9.270345 -11.057216 0
M  V30 53 H 10.661990 10.172390 -9.846881 0
M  V30 54 H 9.054339 9.244728 -11.578512 0
M  V30 55 H 8.396220 9.229001 -9.984604 0
M  V30 56 H 11.680180 8.824539 -8.292383 0
M  V30 57 H 9.070188 9.424429 -7.776468 0
M  V30 58 H 9.002410 7.697585 -7.557340 0
M  V30 59 H 10.485871 10.863938 -6.432392 0
M  V30 60 H 11.286022 11.172647 -4.210769 0
M  V30 61 H 10.709149 6.579170 -5.971014 0
M  V30 62 H 12.041984 5.775229 -4.135347 0
M  V30 63 H 11.286237 8.068000 -1.254341 0
M  V30 64 H 12.986339 8.127322 -0.815714 0
M  V30 65 H 13.499876 9.487357 -2.721376 0
M  V30 66 H 12.069861 10.172530 -2.047199 0
M  V30 67 H 8.683286 3.199013 -14.925467 0
M  V30 68 H 7.943713 7.292881 -10.258797 0
M  V30 END ATOM
M  V30 BEGIN BOND
M  V30 1 1 2 1
M  V30 2 2 3 2
M  V30 3 2 4 2
M  V30 4 1 5 2
M  V30 5 1 6 5
M  V30 6 1 7 6
M  V30 7 2 8 7
M  V30 8 1 9 8
M  V30 9 2 10 9
M  V30 10 1 11 10
M  V30 11 1 12 11
M  V30 12 1 13 12
M  V30 13 1 14 13
M  V30 14 1 15 14
M  V30 15 1 16 15
M  V30 16 1 17 16
M  V30 17 1 18 17
M  V30 18 1 19 18
M  V30 19 1 20 14
M  V30 20 1 20 19
M  V30 21 1 21 16
M  V30 22 1 21 19
M  V30 23 1 22 21
M  V30 24 1 23 22
M  V30 25 1 24 23
M  V30 26 2 25 24
M  V30 27 1 26 25
M  V30 28 2 27 26
M  V30 29 2 28 23
M  V30 30 1 28 27
M  V30 31 1 29 27
M  V30 32 1 30 29
M  V30 33 2 31 30
M  V30 34 1 32 30
M  V30 35 1 33 26
M  V30 36 1 33 32
M  V30 37 2 34 6
M  V30 38 1 34 10
M  V30 39 1 35 1
M  V30 40 1 36 1
M  V30 41 1 37 1
M  V30 42 1 38 5
M  V30 43 1 39 7
M  V30 44 1 40 8
M  V30 45 1 41 9
M  V30 46 1 42 12
M  V30 47 1 43 12
M  V30 48 1 44 13
M  V30 49 1 45 13
M  V30 50 1 46 15
M  V30 51 1 47 15
M  V30 52 1 16 48 CFG=1
M  V30 53 1 49 17
M  V30 54 1 50 17
M  V30 55 1 51 18
M  V30 56 1 52 18
M  V30 57 1 19 53 CFG=1
M  V30 58 1 54 20
M  V30 59 1 55 20
M  V30 60 1 21 56 CFG=1
M  V30 61 1 57 22
M  V30 62 1 58 22
M  V30 63 1 59 24
M  V30 64 1 60 25
M  V30 65 1 61 28
M  V30 66 1 62 29
M  V30 67 1 63 32
M  V30 68 1 64 32
M  V30 69 1 65 33
M  V30 70 1 66 33
M  V30 71 1 67 34
M  V30 72 1 14 68 CFG=1
M  V30 END BOND
M  V30 END CTAB
M  END
>  <b_m_subgroup_collapsed>  (509) 
0

>  <r_i_docking_score>  (509) 
-8.2150668971704892

>  <s_m_subgroup_title>  (509) 
glide-dock_SP_D22_pv

>  <s_m_subgroupid>  (509) 
glide-dock_SP_D22_pv

>  <Molecule ChEMBL ID>  (509) 
CHEMBL1087818

>  <Standard Type>  (509) 
Ki

>  <Standard Value>  (509) 
11.0

>  <label>  (509) 
1

$$$$
CHEMBL3739820
     RDKit          3D

  0  0  0  0  0  0  0  0  0  0999 V3000
M  V30 BEGIN CTAB
M  V30 COUNTS 56 59 0 0 1
M  V30 BEGIN ATOM
M  V30 1 Cl 12.485886 8.582082 -1.961467 0
M  V30 2 C 11.852918 8.348762 -3.546812 0
M  V30 3 C 11.462779 9.449199 -4.332573 0
M  V30 4 C 10.891497 9.245947 -5.606451 0
M  V30 5 C 10.696961 7.934758 -6.108677 0
M  V30 6 N 10.077179 7.683049 -7.351609 0
M  V30 7 C 9.043961 6.655153 -7.408418 0
M  V30 8 C 9.011102 6.006662 -8.800783 0
M  V30 9 N 8.886047 7.006920 -9.898974 0 CHG=1
M  V30 10 C 9.059510 6.408988 -11.248149 0
M  V30 11 C 7.986652 5.378352 -11.644079 0
M  V30 12 C 8.266958 4.748316 -13.019725 0
M  V30 13 C 9.451192 3.758094 -12.991171 0
M  V30 14 N 9.725856 3.136365 -14.278305 0
M  V30 15 C 8.977655 2.001791 -14.659476 0
M  V30 16 N 9.497153 1.052604 -15.425310 0
M  V30 17 O 8.422863 0.173323 -15.625367 0
M  V30 18 C 7.373604 0.701251 -14.946085 0
M  V30 19 C 6.065802 0.061581 -15.045024 0
M  V30 20 C 5.081877 0.305685 -14.060251 0
M  V30 21 C 3.785734 -0.227626 -14.205851 0
M  V30 22 C 3.478875 -1.027756 -15.321073 0
M  V30 23 C 4.464831 -1.315636 -16.280146 0
M  V30 24 C 5.754214 -0.769026 -16.144514 0
M  V30 25 N 7.675393 1.828003 -14.305196 0
M  V30 26 C 9.808620 8.170847 -9.745785 0
M  V30 27 C 9.872512 8.749025 -8.320396 0
M  V30 28 C 11.141706 6.847562 -5.322502 0
M  V30 29 C 11.697988 7.046120 -4.047549 0
M  V30 30 H 11.578710 10.450132 -3.945170 0
M  V30 31 H 10.573234 10.111516 -6.166519 0
M  V30 32 H 8.086114 7.128533 -7.196560 0
M  V30 33 H 9.168169 5.884670 -6.651035 0
M  V30 34 H 8.176030 5.307289 -8.836355 0
M  V30 35 H 9.922883 5.424041 -8.943051 0
M  V30 36 H 10.052610 5.962950 -11.299920 0
M  V30 37 H 9.044650 7.209468 -11.989870 0
M  V30 38 H 7.012117 5.868502 -11.663465 0
M  V30 39 H 7.906964 4.577802 -10.909153 0
M  V30 40 H 8.447127 5.529218 -13.759625 0
M  V30 41 H 7.361968 4.235768 -13.343724 0
M  V30 42 H 9.286285 2.981211 -12.246768 0
M  V30 43 H 10.362523 4.271929 -12.688901 0
M  V30 44 H 10.692055 3.114723 -14.568835 0
M  V30 45 H 5.307406 0.939295 -13.214309 0
M  V30 46 H 3.019319 -0.011870 -13.475424 0
M  V30 47 H 2.486194 -1.427098 -15.448518 0
M  V30 48 H 4.225285 -1.946657 -17.124208 0
M  V30 49 H 6.497234 -0.980540 -16.899757 0
M  V30 50 H 10.815139 7.855781 -10.026515 0
M  V30 51 H 9.522388 8.957499 -10.444859 0
M  V30 52 H 8.949459 9.280290 -8.082026 0
M  V30 53 H 10.689394 9.468365 -8.276500 0
M  V30 54 H 11.055935 5.835117 -5.683761 0
M  V30 55 H 12.002365 6.196225 -3.453691 0
M  V30 56 H 7.925920 7.372399 -9.855152 0
M  V30 END ATOM
M  V30 BEGIN BOND
M  V30 1 1 2 1
M  V30 2 1 3 2
M  V30 3 2 4 3
M  V30 4 1 5 4
M  V30 5 1 6 5
M  V30 6 1 7 6
M  V30 7 1 8 7
M  V30 8 1 9 8
M  V30 9 1 10 9
M  V30 10 1 11 10
M  V30 11 1 12 11
M  V30 12 1 13 12
M  V30 13 1 14 13
M  V30 14 1 15 14
M  V30 15 2 16 15
M  V30 16 1 17 16
M  V30 17 1 18 17
M  V30 18 1 19 18
M  V30 19 2 20 19
M  V30 20 1 21 20
M  V30 21 2 22 21
M  V30 22 1 23 22
M  V30 23 1 24 19
M  V30 24 2 24 23
M  V30 25 1 25 15
M  V30 26 2 25 18
M  V30 27 1 26 9
M  V30 28 1 27 6
M  V30 29 1 27 26
M  V30 30 2 28 5
M  V30 31 2 29 2
M  V30 32 1 29 28
M  V30 33 1 30 3
M  V30 34 1 31 4
M  V30 35 1 32 7
M  V30 36 1 33 7
M  V30 37 1 34 8
M  V30 38 1 35 8
M  V30 39 1 36 10
M  V30 40 1 37 10
M  V30 41 1 38 11
M  V30 42 1 39 11
M  V30 43 1 40 12
M  V30 44 1 41 12
M  V30 45 1 42 13
M  V30 46 1 43 13
M  V30 47 1 44 14
M  V30 48 1 45 20
M  V30 49 1 46 21
M  V30 50 1 47 22
M  V30 51 1 48 23
M  V30 52 1 49 24
M  V30 53 1 50 26
M  V30 54 1 51 26
M  V30 55 1 52 27
M  V30 56 1 53 27
M  V30 57 1 54 28
M  V30 58 1 55 29
M  V30 59 1 56 9
M  V30 END BOND
M  V30 END CTAB
M  END
>  <b_m_subgroup_collapsed>  (510) 
0

>  <r_i_docking_score>  (510) 
-8.2109016137587396

>  <s_m_subgroup_title>  (510) 
glide-dock_SP_D22_pv

>  <s_m_subgroupid>  (510) 
glide-dock_SP_D22_pv

>  <Molecule ChEMBL ID>  (510) 
CHEMBL3739820

>  <Standard Type>  (510) 
Ki

>  <Standard Value>  (510) 
79630.0

>  <label>  (510) 
0

$$$$
CHEMBL4077251
     RDKit          3D

  0  0  0  0  0  0  0  0  0  0999 V3000
M  V30 BEGIN CTAB
M  V30 COUNTS 61 65 0 0 1
M  V30 BEGIN ATOM
M  V30 1 C 5.595265 -0.348783 -14.344005 0
M  V30 2 O 6.472863 0.759823 -14.197276 0
M  V30 3 C 7.304706 1.092957 -15.249559 0
M  V30 4 C 7.322241 0.350482 -16.460184 0
M  V30 5 C 8.191926 0.694214 -17.504963 0
M  V30 6 C 9.067633 1.774820 -17.342592 0
M  V30 7 C 9.058786 2.506243 -16.142502 0
M  V30 8 C 8.172997 2.211253 -15.074702 0
M  V30 9 N 8.190056 2.972416 -13.864717 0
M  V30 10 C 8.788082 4.299430 -13.873296 0
M  V30 11 C 7.739244 4.635093 -12.810987 0
M  V30 12 C 7.191094 6.044383 -12.637503 0
M  V30 13 N 8.030554 6.171707 -11.446829 0 CHG=1
M  V30 14 C 9.291408 6.906798 -11.656304 0
M  V30 15 C 9.035280 8.404688 -11.469429 0
M  V30 16 C 9.115662 8.794691 -9.994142 0
M  V30 17 S 10.844422 8.829318 -9.447258 0
M  V30 18 C 10.657844 8.158916 -7.831872 0
M  V30 19 N 9.901251 7.107873 -7.517200 0
M  V30 20 N 10.094070 6.920290 -6.168485 0
M  V30 21 C 10.961720 7.859652 -5.783191 0
M  V30 22 C 11.476725 7.969539 -4.429519 0
M  V30 23 C 11.933818 6.816459 -3.762842 0
M  V30 24 C 12.457984 6.915952 -2.464009 0
M  V30 25 C 12.519451 8.170760 -1.830658 0
M  V30 26 C 12.079960 9.324256 -2.494874 0
M  V30 27 C 11.533096 9.222119 -3.781046 0
M  V30 28 N 11.335533 8.663418 -6.790544 0
M  V30 29 C 12.256748 9.772191 -6.790138 0
M  V30 30 C 8.128283 4.716011 -11.335938 0
M  V30 31 C 6.912657 3.485149 -13.387824 0
M  V30 32 H 4.994888 -0.452354 -13.441060 0
M  V30 33 H 4.904165 -0.205441 -15.176896 0
M  V30 34 H 6.145851 -1.280552 -14.482719 0
M  V30 35 H 6.679631 -0.502836 -16.614157 0
M  V30 36 H 8.194718 0.120274 -18.419918 0
M  V30 37 H 9.754251 2.039207 -18.132584 0
M  V30 38 H 9.765742 3.316196 -16.053593 0
M  V30 39 H 8.637044 4.848725 -14.803592 0
M  V30 40 H 9.821660 4.321445 -13.528193 0
M  V30 41 H 6.129408 6.070733 -12.383030 0
M  V30 42 H 7.438455 6.743839 -13.436589 0
M  V30 43 H 9.696180 6.707679 -12.647248 0
M  V30 44 H 10.041657 6.551287 -10.949275 0
M  V30 45 H 8.062266 8.684297 -11.875093 0
M  V30 46 H 9.757898 8.972630 -12.043959 0
M  V30 47 H 8.515836 8.112607 -9.393863 0
M  V30 48 H 8.674465 9.772344 -9.843488 0
M  V30 49 H 11.885671 5.852011 -4.248903 0
M  V30 50 H 12.804202 6.029755 -1.951999 0
M  V30 51 H 12.919728 8.247110 -0.829353 0
M  V30 52 H 12.122928 10.281174 -2.002694 0
M  V30 53 H 11.156863 10.112031 -4.264451 0
M  V30 54 H 13.052965 9.551415 -7.495034 0
M  V30 55 H 11.687763 10.671113 -7.046051 0
M  V30 56 H 12.755456 9.918158 -5.837389 0
M  V30 57 H 9.122190 4.331410 -11.101625 0
M  V30 58 H 7.367971 4.304474 -10.670886 0
M  V30 59 H 6.417581 2.862755 -12.641601 0
M  V30 60 H 6.245059 3.786870 -14.197947 0
M  V30 61 H 7.485466 6.614347 -10.700397 0
M  V30 END ATOM
M  V30 BEGIN BOND
M  V30 1 1 2 1
M  V30 2 1 3 2
M  V30 3 2 4 3
M  V30 4 1 5 4
M  V30 5 2 6 5
M  V30 6 1 7 6
M  V30 7 1 8 3
M  V30 8 2 8 7
M  V30 9 1 9 8
M  V30 10 1 10 9
M  V30 11 1 11 10
M  V30 12 1 12 11
M  V30 13 1 13 12
M  V30 14 1 14 13
M  V30 15 1 15 14
M  V30 16 1 16 15
M  V30 17 1 17 16
M  V30 18 1 18 17
M  V30 19 2 19 18
M  V30 20 1 20 19
M  V30 21 2 21 20
M  V30 22 1 22 21
M  V30 23 2 23 22
M  V30 24 1 24 23
M  V30 25 2 25 24
M  V30 26 1 26 25
M  V30 27 1 27 22
M  V30 28 2 27 26
M  V30 29 1 28 18
M  V30 30 1 28 21
M  V30 31 1 29 28
M  V30 32 1 30 11
M  V30 33 1 30 13
M  V30 34 1 31 9
M  V30 35 1 31 11
M  V30 36 1 32 1
M  V30 37 1 33 1
M  V30 38 1 34 1
M  V30 39 1 35 4
M  V30 40 1 36 5
M  V30 41 1 37 6
M  V30 42 1 38 7
M  V30 43 1 39 10
M  V30 44 1 40 10
M  V30 45 1 41 12
M  V30 46 1 42 12
M  V30 47 1 43 14
M  V30 48 1 44 14
M  V30 49 1 45 15
M  V30 50 1 46 15
M  V30 51 1 47 16
M  V30 52 1 48 16
M  V30 53 1 49 23
M  V30 54 1 50 24
M  V30 55 1 51 25
M  V30 56 1 52 26
M  V30 57 1 53 27
M  V30 58 1 54 29
M  V30 59 1 55 29
M  V30 60 1 56 29
M  V30 61 1 57 30
M  V30 62 1 58 30
M  V30 63 1 59 31
M  V30 64 1 60 31
M  V30 65 1 61 13
M  V30 END BOND
M  V30 END CTAB
M  END
>  <b_m_subgroup_collapsed>  (511) 
0

>  <r_i_docking_score>  (511) 
-8.2101922271082692

>  <s_m_subgroup_title>  (511) 
glide-dock_SP_D22_pv

>  <s_m_subgroupid>  (511) 
glide-dock_SP_D22_pv

>  <Molecule ChEMBL ID>  (511) 
CHEMBL4077251

>  <Standard Type>  (511) 
Ki

>  <Standard Value>  (511) 
21216.0

>  <label>  (511) 
0

$$$$
CHEMBL19215
     RDKit          3D

  0  0  0  0  0  0  0  0  0  0999 V3000
M  V30 BEGIN CTAB
M  V30 COUNTS 60 64 0 0 1
M  V30 BEGIN ATOM
M  V30 1 C 12.699035 7.306120 -15.426268 0
M  V30 2 N 12.745813 6.325840 -14.312741 0 CFG=1 CHG=1
M  V30 3 C 12.544019 6.929676 -12.970715 0
M  V30 4 C 11.081108 7.277004 -12.696175 0 CFG=2
M  V30 5 C 10.837476 8.009568 -11.357674 0
M  V30 6 N 10.677842 7.159462 -10.187871 0
M  V30 7 C 10.121688 7.660353 -9.026189 0
M  V30 8 O 9.676515 8.798323 -8.877698 0
M  V30 9 O 10.164081 6.713258 -8.075733 0
M  V30 10 C 9.601518 6.970467 -6.793710 0
M  V30 11 C 10.551342 7.689515 -5.847051 0
M  V30 12 C 10.661448 9.093843 -5.893607 0
M  V30 13 C 11.484431 9.772824 -4.981233 0
M  V30 14 C 12.189069 9.056630 -3.995280 0
M  V30 15 C 12.086066 7.653668 -3.942960 0
M  V30 16 C 11.285897 6.971089 -4.880450 0
M  V30 17 C 10.155885 6.059247 -12.928452 0
M  V30 18 C 10.410059 5.369493 -14.290577 0 CFG=2
M  V30 19 C 9.551987 4.111214 -14.465926 0
M  V30 20 C 8.258577 3.862673 -13.961567 0
M  V30 21 C 7.629733 2.636890 -14.246693 0
M  V30 22 C 8.310074 1.661841 -14.999866 0
M  V30 23 C 9.582523 1.902602 -15.495411 0
M  V30 24 C 10.192775 3.126337 -15.249819 0
M  V30 25 C 11.436001 3.044607 -15.917577 0
M  V30 26 C 11.586510 1.828171 -16.526583 0
M  V30 27 N 10.428067 1.117475 -16.241943 0
M  V30 28 C 10.116547 -0.240266 -16.646107 0
M  V30 29 C 12.235147 4.312086 -15.782000 0
M  V30 30 C 11.926819 5.090448 -14.479184 0 CFG=1
M  V30 31 H 11.685746 7.631566 -15.641427 0
M  V30 32 H 13.122553 6.887783 -16.338932 0
M  V30 33 H 13.285796 8.193587 -15.185242 0
M  V30 34 H 12.886003 6.202116 -12.246806 0
M  V30 35 H 13.184954 7.806428 -12.853625 0
M  V30 36 H 10.886056 8.031022 -13.446771 0
M  V30 37 H 11.645838 8.706151 -11.130992 0
M  V30 38 H 9.930882 8.609659 -11.468976 0
M  V30 39 H 10.967162 6.194179 -10.181132 0
M  V30 40 H 8.675066 7.540096 -6.887255 0
M  V30 41 H 9.318773 6.018445 -6.347994 0
M  V30 42 H 10.100710 9.663481 -6.616767 0
M  V30 43 H 11.555492 10.847433 -5.045238 0
M  V30 44 H 12.810835 9.581608 -3.284669 0
M  V30 45 H 12.626813 7.099016 -3.190595 0
M  V30 46 H 11.206562 5.894454 -4.831089 0
M  V30 47 H 10.304373 5.325797 -12.135377 0
M  V30 48 H 9.116430 6.380258 -12.852917 0
M  V30 49 H 10.094390 6.028682 -15.096526 0
M  V30 50 H 7.742059 4.602612 -13.366309 0
M  V30 51 H 6.636957 2.436428 -13.869444 0
M  V30 52 H 7.831115 0.713021 -15.194220 0
M  V30 53 H 12.397745 1.414229 -17.108973 0
M  V30 54 H 10.883752 -0.616812 -17.323677 0
M  V30 55 H 9.153566 -0.265840 -17.158760 0
M  V30 56 H 10.074406 -0.886124 -15.766562 0
M  V30 57 H 13.298497 4.076348 -15.827666 0
M  V30 58 H 12.025605 4.936550 -16.649860 0
M  V30 59 H 12.228324 4.427131 -13.664863 0
M  V30 60 H 13.710866 6.016224 -14.284122 0
M  V30 END ATOM
M  V30 BEGIN BOND
M  V30 1 1 2 1
M  V30 2 1 3 2
M  V30 3 1 4 3
M  V30 4 1 5 4
M  V30 5 1 6 5
M  V30 6 1 7 6
M  V30 7 2 8 7
M  V30 8 1 9 7
M  V30 9 1 10 9
M  V30 10 1 11 10
M  V30 11 2 12 11
M  V30 12 1 13 12
M  V30 13 2 14 13
M  V30 14 1 15 14
M  V30 15 1 16 11
M  V30 16 2 16 15
M  V30 17 1 17 4
M  V30 18 1 18 17
M  V30 19 1 19 18
M  V30 20 1 20 19
M  V30 21 2 21 20
M  V30 22 1 22 21
M  V30 23 2 23 22
M  V30 24 2 24 19
M  V30 25 1 24 23
M  V30 26 1 25 24
M  V30 27 2 26 25
M  V30 28 1 27 23
M  V30 29 1 27 26
M  V30 30 1 28 27
M  V30 31 1 29 25
M  V30 32 1 30 2
M  V30 33 1 30 18
M  V30 34 1 30 29
M  V30 35 1 31 1
M  V30 36 1 32 1
M  V30 37 1 33 1
M  V30 38 1 34 3
M  V30 39 1 35 3
M  V30 40 1 4 36 CFG=3
M  V30 41 1 37 5
M  V30 42 1 38 5
M  V30 43 1 39 6
M  V30 44 1 40 10
M  V30 45 1 41 10
M  V30 46 1 42 12
M  V30 47 1 43 13
M  V30 48 1 44 14
M  V30 49 1 45 15
M  V30 50 1 46 16
M  V30 51 1 47 17
M  V30 52 1 48 17
M  V30 53 1 18 49 CFG=3
M  V30 54 1 50 20
M  V30 55 1 51 21
M  V30 56 1 52 22
M  V30 57 1 53 26
M  V30 58 1 54 28
M  V30 59 1 55 28
M  V30 60 1 56 28
M  V30 61 1 57 29
M  V30 62 1 58 29
M  V30 63 1 30 59 CFG=1
M  V30 64 1 2 60 CFG=1
M  V30 END BOND
M  V30 END CTAB
M  END
>  <b_m_subgroup_collapsed>  (512) 
0

>  <r_i_docking_score>  (512) 
-8.2094107009551607

>  <s_m_subgroup_title>  (512) 
glide-dock_SP_D22_pv

>  <s_m_subgroupid>  (512) 
glide-dock_SP_D22_pv

>  <Molecule ChEMBL ID>  (512) 
CHEMBL19215

>  <Standard Type>  (512) 
Ki

>  <Standard Value>  (512) 
21.0

>  <label>  (512) 
1

$$$$
CHEMBL494701
     RDKit          3D

  0  0  0  0  0  0  0  0  0  0999 V3000
M  V30 BEGIN CTAB
M  V30 COUNTS 59 63 0 0 1
M  V30 BEGIN ATOM
M  V30 1 O 5.286042 3.517730 -12.645335 0
M  V30 2 C 6.433265 3.770537 -12.996354 0
M  V30 3 C 7.175733 5.007469 -12.457230 0
M  V30 4 C 8.727400 4.877742 -12.481902 0 CFG=2
M  V30 5 C 9.439137 6.190089 -12.121200 0
M  V30 6 N 9.286312 6.684004 -10.729301 0 CFG=2 CHG=1
M  V30 7 C 10.207525 7.837442 -10.546325 0
M  V30 8 C 10.075065 8.470357 -9.169376 0
M  V30 9 C 10.294416 7.440564 -8.041292 0 CFG=1
M  V30 10 C 9.915919 8.103873 -6.725588 0
M  V30 11 O 8.791779 8.572279 -6.646794 0
M  V30 12 C 10.874098 8.161644 -5.600553 0
M  V30 13 C 11.388152 6.972288 -5.044816 0
M  V30 14 C 12.085854 7.003942 -3.819415 0
M  V30 15 C 12.265965 8.225958 -3.144267 0
M  V30 16 F 12.885777 8.253254 -1.941803 0
M  V30 17 C 11.780178 9.418310 -3.708377 0
M  V30 18 C 11.086350 9.389344 -4.933303 0
M  V30 19 C 9.370184 6.226968 -8.270002 0
M  V30 20 C 9.500064 5.648362 -9.680163 0
M  V30 21 C 9.271812 4.379900 -13.837507 0
M  V30 22 C 8.432160 3.265629 -14.318999 0
M  V30 23 O 8.927516 2.427753 -15.262648 0
M  V30 24 C 7.950515 1.503616 -15.497073 0
M  V30 25 C 8.215113 0.527684 -16.546387 0
M  V30 26 C 9.539154 0.221493 -16.939478 0
M  V30 27 C 9.785881 -0.696086 -17.979185 0
M  V30 28 C 8.709765 -1.312530 -18.643827 0
M  V30 29 C 7.389043 -1.017544 -18.258537 0
M  V30 30 C 7.144462 -0.105472 -17.214205 0
M  V30 31 C 6.868822 1.742946 -14.688208 0
M  V30 32 C 7.163254 2.931555 -13.967447 0
M  V30 33 H 6.861335 5.866894 -13.048057 0
M  V30 34 H 6.835595 5.198309 -11.439514 0
M  V30 35 H 9.000000 4.097821 -11.772869 0
M  V30 36 H 10.504210 6.062979 -12.326009 0
M  V30 37 H 9.087668 6.973979 -12.787726 0
M  V30 38 H 11.240722 7.514803 -10.691822 0
M  V30 39 H 10.002586 8.592268 -11.306975 0
M  V30 40 H 10.792478 9.288468 -9.075156 0
M  V30 41 H 9.084119 8.926805 -9.106557 0
M  V30 42 H 11.338326 7.124948 -8.016219 0
M  V30 43 H 11.204915 6.022003 -5.522645 0
M  V30 44 H 12.450594 6.088277 -3.378219 0
M  V30 45 H 11.905783 10.348823 -3.173505 0
M  V30 46 H 10.663161 10.302798 -5.325736 0
M  V30 47 H 9.586160 5.449900 -7.535246 0
M  V30 48 H 8.324862 6.504278 -8.112080 0
M  V30 49 H 8.759604 4.854641 -9.774577 0
M  V30 50 H 10.484172 5.196739 -9.798415 0
M  V30 51 H 10.310870 4.061023 -13.745235 0
M  V30 52 H 9.250292 5.183132 -14.576038 0
M  V30 53 H 10.377511 0.691976 -16.443968 0
M  V30 54 H 10.801705 -0.922433 -18.269644 0
M  V30 55 H 8.890760 -2.011394 -19.445032 0
M  V30 56 H 6.560943 -1.494024 -18.761044 0
M  V30 57 H 6.122636 0.112830 -16.936699 0
M  V30 58 H 5.955865 1.167644 -14.662620 0
M  V30 59 H 8.332396 7.024828 -10.619068 0
M  V30 END ATOM
M  V30 BEGIN BOND
M  V30 1 2 2 1
M  V30 2 1 3 2
M  V30 3 1 4 3
M  V30 4 1 5 4
M  V30 5 1 6 5
M  V30 6 1 7 6
M  V30 7 1 8 7
M  V30 8 1 9 8
M  V30 9 1 10 9
M  V30 10 2 11 10
M  V30 11 1 12 10
M  V30 12 1 13 12
M  V30 13 2 14 13
M  V30 14 1 15 14
M  V30 15 1 16 15
M  V30 16 2 17 15
M  V30 17 2 18 12
M  V30 18 1 18 17
M  V30 19 1 19 9
M  V30 20 1 20 6
M  V30 21 1 20 19
M  V30 22 1 21 4
M  V30 23 1 22 21
M  V30 24 1 23 22
M  V30 25 1 24 23
M  V30 26 1 25 24
M  V30 27 2 26 25
M  V30 28 1 27 26
M  V30 29 2 28 27
M  V30 30 1 29 28
M  V30 31 1 30 25
M  V30 32 2 30 29
M  V30 33 2 31 24
M  V30 34 1 32 2
M  V30 35 2 32 22
M  V30 36 1 32 31
M  V30 37 1 33 3
M  V30 38 1 34 3
M  V30 39 1 4 35 CFG=1
M  V30 40 1 36 5
M  V30 41 1 37 5
M  V30 42 1 38 7
M  V30 43 1 39 7
M  V30 44 1 40 8
M  V30 45 1 41 8
M  V30 46 1 9 42 CFG=1
M  V30 47 1 43 13
M  V30 48 1 44 14
M  V30 49 1 45 17
M  V30 50 1 46 18
M  V30 51 1 47 19
M  V30 52 1 48 19
M  V30 53 1 49 20
M  V30 54 1 50 20
M  V30 55 1 51 21
M  V30 56 1 52 21
M  V30 57 1 53 26
M  V30 58 1 54 27
M  V30 59 1 55 28
M  V30 60 1 56 29
M  V30 61 1 57 30
M  V30 62 1 58 31
M  V30 63 1 6 59 CFG=3
M  V30 END BOND
M  V30 END CTAB
M  END
>  <b_m_subgroup_collapsed>  (513) 
0

>  <r_i_docking_score>  (513) 
-8.2090133520032609

>  <s_m_subgroup_title>  (513) 
glide-dock_SP_D22_pv

>  <s_m_subgroupid>  (513) 
glide-dock_SP_D22_pv

>  <Molecule ChEMBL ID>  (513) 
CHEMBL494701

>  <Standard Type>  (513) 
Ki

>  <Standard Value>  (513) 
10000.0

>  <label>  (513) 
0

$$$$
CHEMBL131926
     RDKit          3D

  0  0  0  0  0  0  0  0  0  0999 V3000
M  V30 BEGIN CTAB
M  V30 COUNTS 57 60 0 0 1
M  V30 BEGIN ATOM
M  V30 1 C 5.424789 4.325984 -13.584257 0
M  V30 2 O 6.812918 4.437313 -13.340996 0
M  V30 3 C 7.646917 3.460194 -13.846723 0
M  V30 4 N 7.066441 2.318490 -14.299580 0
M  V30 5 C 7.847445 1.329991 -14.774069 0
M  V30 6 N 7.187811 0.172789 -15.185364 0
M  V30 7 C 9.248807 1.441804 -14.848887 0
M  V30 8 Cl 10.223062 0.172161 -15.492402 0
M  V30 9 C 9.852331 2.622198 -14.377395 0
M  V30 10 C 9.052986 3.661924 -13.848319 0
M  V30 11 C 9.725478 4.897016 -13.293726 0
M  V30 12 O 10.935965 5.058294 -13.447934 0
M  V30 13 N 8.981392 5.723531 -12.535591 0
M  V30 14 C 9.501761 6.498501 -11.415107 0 CFG=1
M  V30 15 C 9.141920 8.002893 -11.439250 0
M  V30 16 C 9.431920 8.741371 -10.089393 0 CFG=2
M  V30 17 C 10.926950 9.043470 -9.847854 0
M  V30 18 C 11.764798 7.797067 -9.545381 0
M  V30 19 C 11.003739 6.678614 -8.799566 0
M  V30 20 C 9.462686 6.629964 -8.888136 0 CFG=2
M  V30 21 C 8.990802 5.847098 -10.122660 0
M  V30 22 N 8.886133 7.984227 -8.926981 0 CFG=1 CHG=1
M  V30 23 C 8.822589 8.718013 -7.619273 0
M  V30 24 C 9.979648 8.549307 -6.615369 0
M  V30 25 C 10.085567 7.367304 -5.845835 0
M  V30 26 C 11.121483 7.193339 -4.906252 0
M  V30 27 C 12.025622 8.238923 -4.655307 0
M  V30 28 C 11.937715 9.419034 -5.414227 0
M  V30 29 C 10.923638 9.576449 -6.380831 0
M  V30 30 H 4.935331 5.258924 -13.315515 0
M  V30 31 H 5.272541 4.172008 -14.646938 0
M  V30 32 H 4.971410 3.510926 -13.018246 0
M  V30 33 H 7.690445 -0.670352 -15.443272 0
M  V30 34 H 6.191977 0.078613 -15.056307 0
M  V30 35 H 10.928663 2.711433 -14.412628 0
M  V30 36 H 7.984760 5.543642 -12.523218 0
M  V30 37 H 10.581836 6.420771 -11.442856 0
M  V30 38 H 8.086094 8.106195 -11.679167 0
M  V30 39 H 9.668921 8.497641 -12.254992 0
M  V30 40 H 8.898871 9.691833 -10.142593 0
M  V30 41 H 11.377259 9.556952 -10.689003 0
M  V30 42 H 11.024119 9.753201 -9.031982 0
M  V30 43 H 12.174873 7.404706 -10.475021 0
M  V30 44 H 12.644995 8.085643 -8.969719 0
M  V30 45 H 11.285839 5.767070 -9.267105 0
M  V30 46 H 11.385069 6.583548 -7.788814 0
M  V30 47 H 9.055554 6.090355 -8.034873 0
M  V30 48 H 9.334956 4.812812 -10.062997 0
M  V30 49 H 7.899719 5.793575 -10.131114 0
M  V30 50 H 7.930067 8.381562 -7.092707 0
M  V30 51 H 8.658140 9.770372 -7.846511 0
M  V30 52 H 9.361732 6.574168 -5.956465 0
M  V30 53 H 11.186079 6.274685 -4.340387 0
M  V30 54 H 12.804283 8.121737 -3.915635 0
M  V30 55 H 12.662493 10.201009 -5.258728 0
M  V30 56 H 10.885726 10.505072 -6.924861 0
M  V30 57 H 7.903662 7.823884 -9.176166 0
M  V30 END ATOM
M  V30 BEGIN BOND
M  V30 1 1 2 1
M  V30 2 1 3 2
M  V30 3 1 4 3
M  V30 4 2 5 4
M  V30 5 1 6 5
M  V30 6 1 7 5
M  V30 7 1 8 7
M  V30 8 2 9 7
M  V30 9 2 10 3
M  V30 10 1 10 9
M  V30 11 1 11 10
M  V30 12 2 12 11
M  V30 13 1 13 11
M  V30 14 1 14 13
M  V30 15 1 15 14
M  V30 16 1 16 15
M  V30 17 1 17 16
M  V30 18 1 18 17
M  V30 19 1 19 18
M  V30 20 1 20 19
M  V30 21 1 21 14
M  V30 22 1 21 20
M  V30 23 1 22 16
M  V30 24 1 22 20
M  V30 25 1 23 22
M  V30 26 1 24 23
M  V30 27 2 25 24
M  V30 28 1 26 25
M  V30 29 2 27 26
M  V30 30 1 28 27
M  V30 31 1 29 24
M  V30 32 2 29 28
M  V30 33 1 30 1
M  V30 34 1 31 1
M  V30 35 1 32 1
M  V30 36 1 33 6
M  V30 37 1 34 6
M  V30 38 1 35 9
M  V30 39 1 36 13
M  V30 40 1 14 37 CFG=1
M  V30 41 1 38 15
M  V30 42 1 39 15
M  V30 43 1 16 40 CFG=3
M  V30 44 1 41 17
M  V30 45 1 42 17
M  V30 46 1 43 18
M  V30 47 1 44 18
M  V30 48 1 45 19
M  V30 49 1 46 19
M  V30 50 1 20 47 CFG=1
M  V30 51 1 48 21
M  V30 52 1 49 21
M  V30 53 1 50 23
M  V30 54 1 51 23
M  V30 55 1 52 25
M  V30 56 1 53 26
M  V30 57 1 54 27
M  V30 58 1 55 28
M  V30 59 1 56 29
M  V30 60 1 22 57 CFG=3
M  V30 END BOND
M  V30 END CTAB
M  END
>  <b_m_subgroup_collapsed>  (514) 
0

>  <r_i_docking_score>  (514) 
-8.2086012835681004

>  <s_m_subgroup_title>  (514) 
glide-dock_SP_D22_pv

>  <s_m_subgroupid>  (514) 
glide-dock_SP_D22_pv

>  <Molecule ChEMBL ID>  (514) 
CHEMBL131926

>  <Standard Type>  (514) 
Ki

>  <Standard Value>  (514) 
1.259

>  <label>  (514) 
1

$$$$
CHEMBL2037522
     RDKit          3D

  0  0  0  0  0  0  0  0  0  0999 V3000
M  V30 BEGIN CTAB
M  V30 COUNTS 46 49 0 0 1
M  V30 BEGIN ATOM
M  V30 1 C 7.563047 2.542962 -14.864053 0
M  V30 2 C 8.913314 2.849393 -15.120063 0
M  V30 3 C 9.573051 3.826979 -14.350736 0
M  V30 4 C 8.892123 4.495790 -13.311911 0
M  V30 5 C 7.534009 4.187727 -13.060890 0
M  V30 6 C 6.868745 3.223664 -13.846221 0
M  V30 7 C 6.814137 4.864617 -11.915312 0
M  V30 8 C 7.805013 5.241108 -10.811866 0
M  V30 9 N 8.872228 6.115302 -11.341867 0 CFG=1 CHG=1
M  V30 10 C 9.714728 6.673931 -10.253451 0
M  V30 11 C 9.928720 8.189928 -10.390114 0
M  V30 12 C 10.691702 8.761786 -9.182240 0
M  V30 13 C 9.819972 8.854723 -7.916056 0
M  V30 14 C 10.594009 8.762936 -6.645667 0
M  V30 15 N 10.808635 7.583729 -6.054045 0
M  V30 16 C 11.394663 7.782041 -4.811098 0
M  V30 17 C 11.685934 6.792034 -3.852617 0
M  V30 18 C 12.222152 7.114940 -2.593298 0
M  V30 19 C 12.485282 8.457817 -2.268749 0
M  V30 20 C 12.214694 9.467016 -3.209923 0
M  V30 21 C 11.688432 9.131426 -4.470894 0
M  V30 22 S 11.285821 10.172358 -5.831846 0
M  V30 23 C 9.665417 5.474774 -12.430624 0
M  V30 24 H 7.057145 1.792241 -15.453655 0
M  V30 25 H 9.445510 2.329533 -15.903188 0
M  V30 26 H 10.614071 4.041683 -14.545040 0
M  V30 27 H 5.832438 2.985321 -13.654424 0
M  V30 28 H 6.298885 5.751757 -12.287569 0
M  V30 29 H 6.049317 4.199251 -11.512011 0
M  V30 30 H 7.286106 5.772326 -10.019375 0
M  V30 31 H 8.242081 4.347409 -10.364630 0
M  V30 32 H 9.246546 6.463106 -9.293224 0
M  V30 33 H 10.679658 6.172213 -10.201713 0
M  V30 34 H 10.490625 8.392889 -11.302430 0
M  V30 35 H 8.970118 8.702344 -10.494761 0
M  V30 36 H 11.556745 8.124804 -8.991148 0
M  V30 37 H 11.095675 9.747386 -9.415955 0
M  V30 38 H 9.239409 9.772305 -7.917842 0
M  V30 39 H 9.069538 8.066631 -7.888078 0
M  V30 40 H 11.454613 5.771886 -4.094563 0
M  V30 41 H 12.419696 6.332655 -1.873219 0
M  V30 42 H 12.886516 8.719686 -1.299988 0
M  V30 43 H 12.406076 10.498603 -2.956370 0
M  V30 44 H 10.480701 4.893325 -12.000865 0
M  V30 45 H 10.121984 6.249172 -13.046856 0
M  V30 46 H 8.364438 6.894415 -11.739945 0
M  V30 END ATOM
M  V30 BEGIN BOND
M  V30 1 2 2 1
M  V30 2 1 3 2
M  V30 3 2 4 3
M  V30 4 1 5 4
M  V30 5 1 6 1
M  V30 6 2 6 5
M  V30 7 1 7 5
M  V30 8 1 8 7
M  V30 9 1 9 8
M  V30 10 1 10 9
M  V30 11 1 11 10
M  V30 12 1 12 11
M  V30 13 1 13 12
M  V30 14 1 14 13
M  V30 15 2 15 14
M  V30 16 1 16 15
M  V30 17 2 17 16
M  V30 18 1 18 17
M  V30 19 2 19 18
M  V30 20 1 20 19
M  V30 21 1 21 16
M  V30 22 2 21 20
M  V30 23 1 22 14
M  V30 24 1 22 21
M  V30 25 1 23 4
M  V30 26 1 23 9
M  V30 27 1 24 1
M  V30 28 1 25 2
M  V30 29 1 26 3
M  V30 30 1 27 6
M  V30 31 1 28 7
M  V30 32 1 29 7
M  V30 33 1 30 8
M  V30 34 1 31 8
M  V30 35 1 32 10
M  V30 36 1 33 10
M  V30 37 1 34 11
M  V30 38 1 35 11
M  V30 39 1 36 12
M  V30 40 1 37 12
M  V30 41 1 38 13
M  V30 42 1 39 13
M  V30 43 1 40 17
M  V30 44 1 41 18
M  V30 45 1 42 19
M  V30 46 1 43 20
M  V30 47 1 44 23
M  V30 48 1 45 23
M  V30 49 1 9 46 CFG=3
M  V30 END BOND
M  V30 END CTAB
M  END
>  <b_m_subgroup_collapsed>  (515) 
0

>  <r_i_docking_score>  (515) 
-8.2082620444341394

>  <s_m_subgroup_title>  (515) 
glide-dock_SP_D22_pv

>  <s_m_subgroupid>  (515) 
glide-dock_SP_D22_pv

>  <Molecule ChEMBL ID>  (515) 
CHEMBL2037522

>  <Standard Type>  (515) 
Ki

>  <Standard Value>  (515) 
30.8

>  <label>  (515) 
1

$$$$
CHEMBL4068843
     RDKit          3D

  0  0  0  0  0  0  0  0  0  0999 V3000
M  V30 BEGIN CTAB
M  V30 COUNTS 56 60 0 0 1
M  V30 BEGIN ATOM
M  V30 1 N 3.545038 -0.628319 -13.848248 0
M  V30 2 C 4.551339 -0.227313 -14.249856 0
M  V30 3 C 5.814931 0.291459 -14.743084 0
M  V30 4 C 6.485801 -0.330863 -15.811209 0
M  V30 5 C 7.725029 0.172339 -16.259115 0
M  V30 6 C 8.283458 1.322435 -15.663922 0
M  V30 7 C 7.568016 1.989979 -14.645592 0
M  V30 8 C 6.353531 1.460915 -14.172152 0
M  V30 9 C 8.077414 3.294605 -14.065252 0
M  V30 10 N 9.543257 3.473613 -14.217603 0 CFG=2 CHG=1
M  V30 11 C 10.006386 4.782513 -13.690534 0
M  V30 12 C 9.677450 4.950005 -12.219839 0 CFG=2
M  V30 13 C 8.362368 5.571330 -11.799649 0
M  V30 14 C 9.650906 6.309801 -11.556282 0 CFG=1
M  V30 15 C 10.139637 6.488200 -10.138217 0
M  V30 16 C 9.146273 7.288599 -9.286506 0
M  V30 17 N 9.683812 7.535953 -7.962593 0
M  V30 18 C 10.531858 8.527333 -7.668952 0
M  V30 19 O 10.897387 9.371413 -8.485146 0
M  V30 20 C 10.984809 8.575535 -6.275220 0
M  V30 21 C 11.270226 9.619581 -5.430578 0
M  V30 22 C 11.687842 9.034477 -4.188182 0
M  V30 23 C 12.086570 9.502748 -2.921885 0
M  V30 24 C 12.485954 8.573582 -1.941937 0
M  V30 25 C 12.453489 7.197620 -2.247751 0
M  V30 26 N 12.054492 6.686334 -3.427370 0
M  V30 27 C 11.686303 7.620510 -4.341094 0
M  V30 28 N 11.231677 7.380668 -5.613467 0
M  V30 29 C 9.950589 3.249696 -15.626178 0
M  V30 30 C 9.672488 1.799288 -16.056629 0
M  V30 31 H 6.079802 -1.221556 -16.268843 0
M  V30 32 H 8.258852 -0.345830 -17.040482 0
M  V30 33 H 5.821831 1.966295 -13.377163 0
M  V30 34 H 7.791368 3.332470 -13.017989 0
M  V30 35 H 7.555202 4.115126 -14.554856 0
M  V30 36 H 9.565353 5.597886 -14.265250 0
M  V30 37 H 11.087052 4.860258 -13.808125 0
M  V30 38 H 10.040301 4.132097 -11.598789 0
M  V30 39 H 7.852502 5.133413 -10.943365 0
M  V30 40 H 7.704525 5.982206 -12.562279 0
M  V30 41 H 9.808161 7.182266 -12.189212 0
M  V30 42 H 11.109952 6.984988 -10.173265 0
M  V30 43 H 10.299560 5.511270 -9.679398 0
M  V30 44 H 8.222651 6.721820 -9.164777 0
M  V30 45 H 8.886210 8.229975 -9.773622 0
M  V30 46 H 9.351387 6.950461 -7.212500 0
M  V30 47 H 11.183686 10.672469 -5.650791 0
M  V30 48 H 12.094719 10.561358 -2.702745 0
M  V30 49 H 12.821095 8.920968 -0.979155 0
M  V30 50 H 12.765656 6.471026 -1.511817 0
M  V30 51 H 11.133418 6.470363 -6.035902 0
M  V30 52 H 9.402544 3.937285 -16.272806 0
M  V30 53 H 11.012159 3.469043 -15.759161 0
M  V30 54 H 10.399562 1.131153 -15.588560 0
M  V30 55 H 9.807734 1.694409 -17.135576 0
M  V30 56 H 9.985518 2.751338 -13.663352 0
M  V30 END ATOM
M  V30 BEGIN BOND
M  V30 1 3 2 1
M  V30 2 1 3 2
M  V30 3 1 4 3
M  V30 4 2 5 4
M  V30 5 1 6 5
M  V30 6 2 7 6
M  V30 7 2 8 3
M  V30 8 1 8 7
M  V30 9 1 9 7
M  V30 10 1 10 9
M  V30 11 1 11 10
M  V30 12 1 12 11
M  V30 13 1 13 12
M  V30 14 1 14 12
M  V30 15 1 14 13
M  V30 16 1 15 14
M  V30 17 1 16 15
M  V30 18 1 17 16
M  V30 19 1 18 17
M  V30 20 2 19 18
M  V30 21 1 20 18
M  V30 22 2 21 20
M  V30 23 1 22 21
M  V30 24 2 23 22
M  V30 25 1 24 23
M  V30 26 2 25 24
M  V30 27 1 26 25
M  V30 28 1 27 22
M  V30 29 2 27 26
M  V30 30 1 28 20
M  V30 31 1 28 27
M  V30 32 1 29 10
M  V30 33 1 30 6
M  V30 34 1 30 29
M  V30 35 1 31 4
M  V30 36 1 32 5
M  V30 37 1 33 8
M  V30 38 1 34 9
M  V30 39 1 35 9
M  V30 40 1 36 11
M  V30 41 1 37 11
M  V30 42 1 12 38 CFG=1
M  V30 43 1 39 13
M  V30 44 1 40 13
M  V30 45 1 14 41 CFG=3
M  V30 46 1 42 15
M  V30 47 1 43 15
M  V30 48 1 44 16
M  V30 49 1 45 16
M  V30 50 1 46 17
M  V30 51 1 47 21
M  V30 52 1 48 23
M  V30 53 1 49 24
M  V30 54 1 50 25
M  V30 55 1 51 28
M  V30 56 1 52 29
M  V30 57 1 53 29
M  V30 58 1 54 30
M  V30 59 1 55 30
M  V30 60 1 10 56 CFG=1
M  V30 END BOND
M  V30 END CTAB
M  END
>  <b_m_subgroup_collapsed>  (516) 
0

>  <r_i_docking_score>  (516) 
-8.2070206999806992

>  <s_m_subgroup_title>  (516) 
glide-dock_SP_D22_pv

>  <s_m_subgroupid>  (516) 
glide-dock_SP_D22_pv

>  <Molecule ChEMBL ID>  (516) 
CHEMBL4068843

>  <Standard Type>  (516) 
Ki

>  <Standard Value>  (516) 
14.4

>  <label>  (516) 
1

$$$$
CHEMBL5920206
     RDKit          3D

  0  0  0  0  0  0  0  0  0  0999 V3000
M  V30 BEGIN CTAB
M  V30 COUNTS 51 55 0 0 1
M  V30 BEGIN ATOM
M  V30 1 O 10.473431 4.835383 -13.442019 0
M  V30 2 C 9.316884 4.422764 -13.322507 0
M  V30 3 C 8.869255 3.222748 -14.118062 0
M  V30 4 N 9.826151 2.492424 -14.737355 0
M  V30 5 C 9.463813 1.414330 -15.456139 0
M  V30 6 Cl 10.690923 0.524071 -16.270901 0
M  V30 7 C 8.126462 1.001481 -15.586293 0
M  V30 8 C 7.126266 1.759947 -14.958031 0
M  V30 9 C 7.497669 2.901962 -14.224792 0
M  V30 10 C 6.459404 3.768503 -13.536694 0
M  V30 11 C 7.034153 4.484021 -12.306023 0
M  V30 12 N 8.406498 4.989503 -12.486278 0
M  V30 13 C 8.765687 6.127790 -11.630253 0
M  V30 14 C 8.655299 5.757449 -10.139518 0
M  V30 15 N 9.701238 6.334295 -9.304310 0
M  V30 16 C 9.725161 7.801115 -9.339858 0
M  V30 17 C 10.933430 8.295227 -8.521645 0
M  V30 18 N 10.864059 7.781576 -7.156670 0
M  V30 19 C 11.126535 8.609828 -6.054945 0
M  V30 20 N 10.950429 9.927995 -6.098587 0
M  V30 21 O 11.266579 10.425079 -4.809200 0
M  V30 22 C 11.682443 9.389826 -3.989951 0
M  V30 23 C 12.085703 9.386342 -2.651921 0
M  V30 24 C 12.456061 8.157406 -2.074295 0
M  V30 25 C 12.386263 6.969898 -2.834271 0
M  V30 26 C 11.958760 6.996935 -4.180036 0
M  V30 27 C 11.595399 8.235852 -4.766526 0
M  V30 28 C 10.563264 6.367653 -6.995722 0
M  V30 29 C 9.417841 5.938430 -7.923839 0
M  V30 30 H 7.871865 0.124044 -16.164307 0
M  V30 31 H 6.092671 1.464793 -15.042886 0
M  V30 32 H 6.101529 4.510846 -14.247046 0
M  V30 33 H 5.595006 3.167207 -13.253139 0
M  V30 34 H 6.360506 5.286106 -11.998843 0
M  V30 35 H 7.057557 3.778876 -11.473749 0
M  V30 36 H 9.771736 6.490791 -11.846577 0
M  V30 37 H 8.102776 6.968599 -11.847612 0
M  V30 38 H 7.682010 6.069988 -9.761855 0
M  V30 39 H 8.709558 4.673526 -10.024169 0
M  V30 40 H 9.822133 8.166583 -10.360810 0
M  V30 41 H 8.793717 8.210355 -8.945877 0
M  V30 42 H 11.860970 7.944180 -8.974874 0
M  V30 43 H 10.965086 9.383923 -8.545242 0
M  V30 44 H 12.088149 10.301303 -2.084730 0
M  V30 45 H 12.782066 8.128829 -1.047678 0
M  V30 46 H 12.661874 6.025175 -2.382814 0
M  V30 47 H 11.939801 6.073844 -4.735445 0
M  V30 48 H 11.459031 5.776327 -7.181677 0
M  V30 49 H 10.226573 6.172115 -5.979050 0
M  V30 50 H 8.479275 6.388330 -7.590631 0
M  V30 51 H 9.287686 4.858625 -7.856045 0
M  V30 END ATOM
M  V30 BEGIN BOND
M  V30 1 2 2 1
M  V30 2 1 3 2
M  V30 3 1 4 3
M  V30 4 2 5 4
M  V30 5 1 6 5
M  V30 6 1 7 5
M  V30 7 2 8 7
M  V30 8 2 9 3
M  V30 9 1 9 8
M  V30 10 1 10 9
M  V30 11 1 11 10
M  V30 12 1 12 2
M  V30 13 1 12 11
M  V30 14 1 13 12
M  V30 15 1 14 13
M  V30 16 1 15 14
M  V30 17 1 16 15
M  V30 18 1 17 16
M  V30 19 1 18 17
M  V30 20 1 19 18
M  V30 21 2 20 19
M  V30 22 1 21 20
M  V30 23 1 22 21
M  V30 24 2 23 22
M  V30 25 1 24 23
M  V30 26 2 25 24
M  V30 27 1 26 25
M  V30 28 1 27 19
M  V30 29 1 27 22
M  V30 30 2 27 26
M  V30 31 1 28 18
M  V30 32 1 29 15
M  V30 33 1 29 28
M  V30 34 1 30 7
M  V30 35 1 31 8
M  V30 36 1 32 10
M  V30 37 1 33 10
M  V30 38 1 34 11
M  V30 39 1 35 11
M  V30 40 1 36 13
M  V30 41 1 37 13
M  V30 42 1 38 14
M  V30 43 1 39 14
M  V30 44 1 40 16
M  V30 45 1 41 16
M  V30 46 1 42 17
M  V30 47 1 43 17
M  V30 48 1 44 23
M  V30 49 1 45 24
M  V30 50 1 46 25
M  V30 51 1 47 26
M  V30 52 1 48 28
M  V30 53 1 49 28
M  V30 54 1 50 29
M  V30 55 1 51 29
M  V30 END BOND
M  V30 END CTAB
M  END
>  <b_m_subgroup_collapsed>  (517) 
0

>  <r_i_docking_score>  (517) 
-8.2061018071560294

>  <s_m_subgroup_title>  (517) 
glide-dock_SP_D22_pv

>  <s_m_subgroupid>  (517) 
glide-dock_SP_D22_pv

>  <Molecule ChEMBL ID>  (517) 
CHEMBL5920206

>  <Standard Type>  (517) 
Ki

>  <Standard Value>  (517) 
10000.0

>  <label>  (517) 
0

$$$$
CHEMBL3764212
     RDKit          3D

  0  0  0  0  0  0  0  0  0  0999 V3000
M  V30 BEGIN CTAB
M  V30 COUNTS 61 64 0 0 1
M  V30 BEGIN ATOM
M  V30 1 C 9.342804 0.222019 -15.468569 0
M  V30 2 N 8.581384 1.363521 -14.992446 0
M  V30 3 C 9.055986 2.593587 -14.717440 0
M  V30 4 S 10.745191 3.025362 -15.027405 0
M  V30 5 C 11.039291 4.208858 -13.684503 0
M  V30 6 C 10.654918 5.662149 -14.034839 0
M  V30 7 C 10.850575 6.601791 -12.830344 0
M  V30 8 N 10.107869 6.203222 -11.649566 0
M  V30 9 C 8.665380 6.261492 -11.778392 0
M  V30 10 C 8.016762 5.647435 -10.538914 0
M  V30 11 O 8.486197 6.281635 -9.343371 0
M  V30 12 C 9.896673 6.364016 -9.215375 0 CFG=2
M  V30 13 C 10.298399 7.132889 -7.970036 0
M  V30 14 C 10.110602 8.527021 -7.848998 0
M  V30 15 C 10.572068 9.198537 -6.697109 0
M  V30 16 C 11.166429 8.481995 -5.635431 0
M  V30 17 C 11.716418 9.214350 -4.422731 0
M  V30 18 F 11.905983 8.393088 -3.388791 0
M  V30 19 F 12.880694 9.771718 -4.745717 0
M  V30 20 F 10.875803 10.172463 -4.049256 0
M  V30 21 C 11.286043 7.082500 -5.737323 0
M  V30 22 C 10.900477 6.430340 -6.917321 0
M  V30 23 C 10.507487 6.970506 -10.485291 0
M  V30 24 N 8.127810 3.425042 -14.246317 0
M  V30 25 N 6.955631 2.704139 -14.245864 0
M  V30 26 C 7.258893 1.489790 -14.719546 0
M  V30 27 C 6.216467 0.481532 -14.943254 0
M  V30 28 C 5.210294 0.263214 -13.976641 0
M  V30 29 C 4.146718 -0.623145 -14.246609 0
M  V30 30 C 4.101471 -1.327527 -15.467420 0
M  V30 31 C 5.115016 -1.142461 -16.436338 0
M  V30 32 C 5.082202 -1.847012 -17.767094 0
M  V30 33 N 4.419924 -3.004256 -17.847023 0
M  V30 34 O 5.690484 -1.393350 -18.733763 0
M  V30 35 C 6.153983 -0.220880 -16.166714 0
M  V30 36 H 9.845406 0.472956 -16.403259 0
M  V30 37 H 10.090815 -0.055551 -14.724746 0
M  V30 38 H 8.690520 -0.627782 -15.638163 0
M  V30 39 H 10.503257 3.857323 -12.800820 0
M  V30 40 H 12.100806 4.172652 -13.440302 0
M  V30 41 H 11.279105 6.008174 -14.859600 0
M  V30 42 H 9.630069 5.719764 -14.400482 0
M  V30 43 H 11.915456 6.601285 -12.596965 0
M  V30 44 H 10.610217 7.639997 -13.046786 0
M  V30 45 H 8.331847 7.293332 -11.901496 0
M  V30 46 H 8.322554 5.709769 -12.651443 0
M  V30 47 H 6.941473 5.772017 -10.645837 0
M  V30 48 H 8.220969 4.576889 -10.492446 0
M  V30 49 H 10.262525 5.339157 -9.121125 0
M  V30 50 H 9.637659 9.084028 -8.645009 0
M  V30 51 H 10.486066 10.272380 -6.630170 0
M  V30 52 H 11.742919 6.508637 -4.943166 0
M  V30 53 H 11.072805 5.372973 -7.028138 0
M  V30 54 H 11.592799 6.973014 -10.388458 0
M  V30 55 H 10.199410 8.009882 -10.602555 0
M  V30 56 H 5.226131 0.810362 -13.045032 0
M  V30 57 H 3.353783 -0.754616 -13.526438 0
M  V30 58 H 3.276807 -2.001391 -15.654997 0
M  V30 59 H 3.891525 -3.390517 -17.061558 0
M  V30 60 H 4.406773 -3.490565 -18.729937 0
M  V30 61 H 6.908842 -0.037671 -16.918509 0
M  V30 END ATOM
M  V30 BEGIN BOND
M  V30 1 1 2 1
M  V30 2 1 3 2
M  V30 3 1 4 3
M  V30 4 1 5 4
M  V30 5 1 6 5
M  V30 6 1 7 6
M  V30 7 1 8 7
M  V30 8 1 9 8
M  V30 9 1 10 9
M  V30 10 1 11 10
M  V30 11 1 12 11
M  V30 12 1 13 12
M  V30 13 1 14 13
M  V30 14 2 15 14
M  V30 15 1 16 15
M  V30 16 1 17 16
M  V30 17 1 18 17
M  V30 18 1 19 17
M  V30 19 1 20 17
M  V30 20 2 21 16
M  V30 21 2 22 13
M  V30 22 1 22 21
M  V30 23 1 23 8
M  V30 24 1 23 12
M  V30 25 2 24 3
M  V30 26 1 25 24
M  V30 27 1 26 2
M  V30 28 2 26 25
M  V30 29 1 27 26
M  V30 30 2 28 27
M  V30 31 1 29 28
M  V30 32 2 30 29
M  V30 33 1 31 30
M  V30 34 1 32 31
M  V30 35 1 33 32
M  V30 36 2 34 32
M  V30 37 1 35 27
M  V30 38 2 35 31
M  V30 39 1 36 1
M  V30 40 1 37 1
M  V30 41 1 38 1
M  V30 42 1 39 5
M  V30 43 1 40 5
M  V30 44 1 41 6
M  V30 45 1 42 6
M  V30 46 1 43 7
M  V30 47 1 44 7
M  V30 48 1 45 9
M  V30 49 1 46 9
M  V30 50 1 47 10
M  V30 51 1 48 10
M  V30 52 1 12 49 CFG=1
M  V30 53 1 50 14
M  V30 54 1 51 15
M  V30 55 1 52 21
M  V30 56 1 53 22
M  V30 57 1 54 23
M  V30 58 1 55 23
M  V30 59 1 56 28
M  V30 60 1 57 29
M  V30 61 1 58 30
M  V30 62 1 59 33
M  V30 63 1 60 33
M  V30 64 1 61 35
M  V30 END BOND
M  V30 END CTAB
M  END
>  <b_m_subgroup_collapsed>  (518) 
0

>  <r_i_docking_score>  (518) 
-8.2055377578179804

>  <s_m_subgroup_title>  (518) 
glide-dock_SP_D22_pv

>  <s_m_subgroupid>  (518) 
glide-dock_SP_D22_pv

>  <Molecule ChEMBL ID>  (518) 
CHEMBL3764212

>  <Standard Type>  (518) 
Ki

>  <Standard Value>  (518) 
15136.0

>  <label>  (518) 
0

$$$$
CHEMBL5871355
     RDKit          3D

  0  0  0  0  0  0  0  0  0  0999 V3000
M  V30 BEGIN CTAB
M  V30 COUNTS 55 57 0 0 1
M  V30 BEGIN ATOM
M  V30 1 C 5.559693 3.372653 -12.499496 0
M  V30 2 C 6.183290 4.605325 -13.168437 0
M  V30 3 N 7.641037 4.663054 -12.950363 0
M  V30 4 C 8.103808 5.690872 -11.993420 0
M  V30 5 C 8.484674 5.113060 -10.609735 0
M  V30 6 N 8.822284 6.160954 -9.606575 0 CFG=2 CHG=1
M  V30 7 C 10.165417 6.747228 -9.853349 0
M  V30 8 C 10.556645 7.796293 -8.802623 0
M  V30 9 C 10.503381 7.217080 -7.372519 0 CFG=1
M  V30 10 C 10.901457 8.223616 -6.320629 0
M  V30 11 C 10.885846 9.584807 -6.470634 0
M  V30 12 N 11.286370 10.194188 -5.302648 0
M  V30 13 C 11.626474 9.250534 -4.363559 0
M  V30 14 C 12.109415 9.371810 -3.050924 0
M  V30 15 C 12.386909 8.213015 -2.309404 0
M  V30 16 F 12.885665 8.316797 -1.054310 0
M  V30 17 C 12.159471 6.947727 -2.886002 0
M  V30 18 C 11.677677 6.838333 -4.207040 0
M  V30 19 C 11.392867 7.985759 -4.983881 0
M  V30 20 C 9.082936 6.679893 -7.147295 0
M  V30 21 C 8.704171 5.639163 -8.216447 0
M  V30 22 C 8.456923 3.858384 -13.683767 0
M  V30 23 O 8.011973 3.126151 -14.569886 0
M  V30 24 C 9.965468 3.810307 -13.379421 0
M  V30 25 C 10.796125 2.983612 -14.381205 0
M  V30 26 O 10.547640 1.596962 -14.247907 0
M  V30 27 H 4.485914 3.341767 -12.674625 0
M  V30 28 H 5.978473 2.443035 -12.890875 0
M  V30 29 H 5.721829 3.384258 -11.423964 0
M  V30 30 H 5.684629 5.502371 -12.802014 0
M  V30 31 H 5.963916 4.571642 -14.239650 0
M  V30 32 H 8.935427 6.240506 -12.434192 0
M  V30 33 H 7.331227 6.447023 -11.849542 0
M  V30 34 H 7.664219 4.504634 -10.246133 0
M  V30 35 H 9.324368 4.426579 -10.680163 0
M  V30 36 H 10.886507 5.933461 -9.838835 0
M  V30 37 H 10.209228 7.199654 -10.843108 0
M  V30 38 H 11.559984 8.168715 -9.019911 0
M  V30 39 H 9.880468 8.646588 -8.897582 0
M  V30 40 H 11.199870 6.377958 -7.320451 0
M  V30 41 H 10.615961 10.171662 -7.326036 0
M  V30 42 H 11.343740 11.195519 -5.189313 0
M  V30 43 H 12.273457 10.346760 -2.616635 0
M  V30 44 H 12.366049 6.054374 -2.312826 0
M  V30 45 H 11.510303 5.858464 -4.630425 0
M  V30 46 H 9.012862 6.227645 -6.159552 0
M  V30 47 H 8.365327 7.501677 -7.153768 0
M  V30 48 H 7.686077 5.307970 -8.035508 0
M  V30 49 H 9.340648 4.759102 -8.112483 0
M  V30 50 H 10.105373 3.393547 -12.384634 0
M  V30 51 H 10.361338 4.823822 -13.372124 0
M  V30 52 H 11.857769 3.155934 -14.205812 0
M  V30 53 H 10.596658 3.288776 -15.408189 0
M  V30 54 H 10.483334 1.372349 -13.320867 0
M  V30 55 H 8.123079 6.897192 -9.699734 0
M  V30 END ATOM
M  V30 BEGIN BOND
M  V30 1 1 2 1
M  V30 2 1 3 2
M  V30 3 1 4 3
M  V30 4 1 5 4
M  V30 5 1 6 5
M  V30 6 1 7 6
M  V30 7 1 8 7
M  V30 8 1 9 8
M  V30 9 1 10 9
M  V30 10 2 11 10
M  V30 11 1 12 11
M  V30 12 1 13 12
M  V30 13 1 14 13
M  V30 14 2 15 14
M  V30 15 1 16 15
M  V30 16 1 17 15
M  V30 17 2 18 17
M  V30 18 1 19 10
M  V30 19 2 19 13
M  V30 20 1 19 18
M  V30 21 1 20 9
M  V30 22 1 21 6
M  V30 23 1 21 20
M  V30 24 1 22 3
M  V30 25 2 23 22
M  V30 26 1 24 22
M  V30 27 1 25 24
M  V30 28 1 26 25
M  V30 29 1 27 1
M  V30 30 1 28 1
M  V30 31 1 29 1
M  V30 32 1 30 2
M  V30 33 1 31 2
M  V30 34 1 32 4
M  V30 35 1 33 4
M  V30 36 1 34 5
M  V30 37 1 35 5
M  V30 38 1 36 7
M  V30 39 1 37 7
M  V30 40 1 38 8
M  V30 41 1 39 8
M  V30 42 1 9 40 CFG=3
M  V30 43 1 41 11
M  V30 44 1 42 12
M  V30 45 1 43 14
M  V30 46 1 44 17
M  V30 47 1 45 18
M  V30 48 1 46 20
M  V30 49 1 47 20
M  V30 50 1 48 21
M  V30 51 1 49 21
M  V30 52 1 50 24
M  V30 53 1 51 24
M  V30 54 1 52 25
M  V30 55 1 53 25
M  V30 56 1 54 26
M  V30 57 1 6 55 CFG=1
M  V30 END BOND
M  V30 END CTAB
M  END
>  <b_m_subgroup_collapsed>  (519) 
0

>  <r_i_docking_score>  (519) 
-8.2042449634558405

>  <s_m_subgroup_title>  (519) 
glide-dock_SP_D22_pv

>  <s_m_subgroupid>  (519) 
glide-dock_SP_D22_pv

>  <Molecule ChEMBL ID>  (519) 
CHEMBL5871355

>  <Standard Type>  (519) 
Ki

>  <Standard Value>  (519) 
80.0

>  <label>  (519) 
1

$$$$
CHEMBL5722957
     RDKit          3D

  0  0  0  0  0  0  0  0  0  0999 V3000
M  V30 BEGIN CTAB
M  V30 COUNTS 40 42 0 0 1
M  V30 BEGIN ATOM
M  V30 1 O 10.948015 4.339416 -13.961923 0
M  V30 2 C 10.096464 4.964345 -13.328471 0
M  V30 3 C 10.445526 6.178550 -12.565249 0
M  V30 4 C 9.510865 6.860063 -11.865208 0
M  V30 5 C 9.853359 8.078964 -11.027264 0
M  V30 6 N 9.286005 7.939791 -9.672427 0 CHG=1
M  V30 7 C 10.243435 8.002232 -8.548985 0
M  V30 8 C 9.506395 7.976230 -7.197328 0 CFG=1
M  V30 9 O 8.686068 6.815130 -7.165776 0
M  V30 10 C 10.484855 8.037372 -6.024240 0
M  V30 11 C 10.883853 9.274285 -5.470716 0
M  V30 12 C 11.708022 9.261572 -4.327690 0
M  V30 13 C 12.109389 8.028518 -3.788157 0
M  V30 14 C 11.684400 6.852604 -4.429788 0
M  V30 15 N 10.912553 6.855581 -5.532535 0
M  V30 16 N 8.178185 6.461505 -11.846717 0
M  V30 17 C 7.739686 5.315195 -12.517929 0
M  V30 18 C 6.389277 4.918012 -12.446256 0
M  V30 19 C 5.963130 3.750730 -13.111454 0
M  V30 20 C 6.885916 2.979620 -13.847023 0
M  V30 21 F 6.486678 1.844716 -14.466451 0
M  V30 22 C 8.233827 3.374635 -13.924419 0
M  V30 23 C 8.668264 4.544788 -13.263921 0
M  V30 24 H 11.477071 6.498359 -12.580454 0
M  V30 25 H 9.439797 8.968627 -11.503413 0
M  V30 26 H 10.934805 8.214489 -10.981555 0
M  V30 27 H 8.812278 7.044906 -9.629091 0
M  V30 28 H 10.835477 8.915770 -8.629913 0
M  V30 29 H 10.935207 7.160414 -8.619993 0
M  V30 30 H 8.842904 8.838859 -7.123467 0
M  V30 31 H 7.794108 7.037222 -7.424304 0
M  V30 32 H 10.542246 10.210826 -5.884063 0
M  V30 33 H 12.018396 10.176159 -3.851282 0
M  V30 34 H 12.732893 7.983899 -2.907295 0
M  V30 35 H 11.985277 5.885606 -4.054355 0
M  V30 36 H 7.478830 6.985632 -11.307840 0
M  V30 37 H 5.684337 5.501201 -11.869902 0
M  V30 38 H 4.930063 3.440261 -13.048097 0
M  V30 39 H 8.929679 2.766412 -14.484893 0
M  V30 40 H 8.568210 8.641736 -9.554506 0
M  V30 END ATOM
M  V30 BEGIN BOND
M  V30 1 2 2 1
M  V30 2 1 3 2
M  V30 3 2 4 3
M  V30 4 1 5 4
M  V30 5 1 6 5
M  V30 6 1 7 6
M  V30 7 1 8 7
M  V30 8 1 9 8
M  V30 9 1 10 8
M  V30 10 2 11 10
M  V30 11 1 12 11
M  V30 12 2 13 12
M  V30 13 1 14 13
M  V30 14 1 15 10
M  V30 15 2 15 14
M  V30 16 1 16 4
M  V30 17 1 17 16
M  V30 18 2 18 17
M  V30 19 1 19 18
M  V30 20 2 20 19
M  V30 21 1 21 20
M  V30 22 1 22 20
M  V30 23 1 23 2
M  V30 24 1 23 17
M  V30 25 2 23 22
M  V30 26 1 24 3
M  V30 27 1 25 5
M  V30 28 1 26 5
M  V30 29 1 27 6
M  V30 30 1 28 7
M  V30 31 1 29 7
M  V30 32 1 8 30 CFG=3
M  V30 33 1 31 9
M  V30 34 1 32 11
M  V30 35 1 33 12
M  V30 36 1 34 13
M  V30 37 1 35 14
M  V30 38 1 36 16
M  V30 39 1 37 18
M  V30 40 1 38 19
M  V30 41 1 39 22
M  V30 42 1 40 6
M  V30 END BOND
M  V30 END CTAB
M  END
>  <b_m_subgroup_collapsed>  (520) 
0

>  <r_i_docking_score>  (520) 
-8.2038887128111497

>  <s_m_subgroup_title>  (520) 
glide-dock_SP_D22_pv

>  <s_m_subgroupid>  (520) 
glide-dock_SP_D22_pv

>  <Molecule ChEMBL ID>  (520) 
CHEMBL5722957

>  <Standard Type>  (520) 
Ki

>  <Standard Value>  (520) 
10000.0

>  <label>  (520) 
0

$$$$
CHEMBL5781514
     RDKit          3D

  0  0  0  0  0  0  0  0  0  0999 V3000
M  V30 BEGIN CTAB
M  V30 COUNTS 45 47 0 0 1
M  V30 BEGIN ATOM
M  V30 1 C 8.047215 6.703809 -12.348341 0
M  V30 2 C 9.227935 6.257337 -11.452710 0 CFG=2
M  V30 3 O 10.429505 6.212066 -12.235218 0
M  V30 4 C 10.632099 5.300070 -13.257640 0
M  V30 5 C 11.826834 5.452441 -13.990494 0
M  V30 6 C 12.154258 4.570462 -15.038380 0
M  V30 7 C 11.285315 3.514825 -15.366090 0
M  V30 8 Cl 11.685611 2.431937 -16.648109 0
M  V30 9 C 10.089784 3.343618 -14.643363 0
M  V30 10 C 9.762090 4.231773 -13.599124 0
M  V30 11 C 8.946744 4.955697 -10.655977 0
M  V30 12 C 8.948887 5.315631 -9.166572 0
M  V30 13 N 8.886091 6.784740 -9.108163 0 CFG=1 CHG=1
M  V30 14 C 9.258805 7.412884 -7.805184 0
M  V30 15 C 10.769735 7.379507 -7.465772 0
M  V30 16 N 11.065354 7.846118 -6.096585 0
M  V30 17 C 11.286448 6.856452 -5.119401 0
M  V30 18 C 11.686033 7.154650 -3.871878 0
M  V30 19 C 11.845022 8.545938 -3.519752 0
M  V30 20 C 11.592409 9.506144 -4.431974 0
M  V30 21 C 11.196342 9.177420 -5.806734 0
M  V30 22 O 11.004283 10.050690 -6.646827 0
M  V30 23 C 9.519233 7.295240 -10.340673 0
M  V30 24 H 7.089055 6.573440 -11.846921 0
M  V30 25 H 8.137701 7.752579 -12.632573 0
M  V30 26 H 7.971942 6.137271 -13.273192 0
M  V30 27 H 12.508598 6.253348 -13.741891 0
M  V30 28 H 13.075024 4.703257 -15.588054 0
M  V30 29 H 9.421253 2.530988 -14.889081 0
M  V30 30 H 8.836728 4.058349 -13.075234 0
M  V30 31 H 7.976807 4.538065 -10.930360 0
M  V30 32 H 9.687192 4.178988 -10.847111 0
M  V30 33 H 8.107056 4.868149 -8.635197 0
M  V30 34 H 9.865269 4.947556 -8.706821 0
M  V30 35 H 8.911484 8.447582 -7.818371 0
M  V30 36 H 8.688601 6.917027 -7.017312 0
M  V30 37 H 11.168392 6.374130 -7.595621 0
M  V30 38 H 11.327792 7.993575 -8.173482 0
M  V30 39 H 11.143657 5.839502 -5.453216 0
M  V30 40 H 11.864462 6.373401 -3.147085 0
M  V30 41 H 12.137645 8.821199 -2.517274 0
M  V30 42 H 11.683868 10.547445 -4.151099 0
M  V30 43 H 10.596160 7.367172 -10.189917 0
M  V30 44 H 9.158302 8.296409 -10.580994 0
M  V30 45 H 7.898301 7.004586 -9.236727 0
M  V30 END ATOM
M  V30 BEGIN BOND
M  V30 1 1 2 1
M  V30 2 1 2 3 CFG=3
M  V30 3 1 4 3
M  V30 4 1 5 4
M  V30 5 2 6 5
M  V30 6 1 7 6
M  V30 7 1 8 7
M  V30 8 2 9 7
M  V30 9 2 10 4
M  V30 10 1 10 9
M  V30 11 1 11 2
M  V30 12 1 12 11
M  V30 13 1 13 12
M  V30 14 1 14 13
M  V30 15 1 15 14
M  V30 16 1 16 15
M  V30 17 1 17 16
M  V30 18 2 18 17
M  V30 19 1 19 18
M  V30 20 2 20 19
M  V30 21 1 21 16
M  V30 22 1 21 20
M  V30 23 2 22 21
M  V30 24 1 23 2
M  V30 25 1 23 13
M  V30 26 1 24 1
M  V30 27 1 25 1
M  V30 28 1 26 1
M  V30 29 1 27 5
M  V30 30 1 28 6
M  V30 31 1 29 9
M  V30 32 1 30 10
M  V30 33 1 31 11
M  V30 34 1 32 11
M  V30 35 1 33 12
M  V30 36 1 34 12
M  V30 37 1 35 14
M  V30 38 1 36 14
M  V30 39 1 37 15
M  V30 40 1 38 15
M  V30 41 1 39 17
M  V30 42 1 40 18
M  V30 43 1 41 19
M  V30 44 1 42 20
M  V30 45 1 43 23
M  V30 46 1 44 23
M  V30 47 1 13 45 CFG=3
M  V30 END BOND
M  V30 END CTAB
M  END
>  <b_m_subgroup_collapsed>  (521) 
0

>  <r_i_docking_score>  (521) 
-8.2029049731140091

>  <s_m_subgroup_title>  (521) 
glide-dock_SP_D22_pv

>  <s_m_subgroupid>  (521) 
glide-dock_SP_D22_pv

>  <Molecule ChEMBL ID>  (521) 
CHEMBL5781514

>  <Standard Type>  (521) 
Ki

>  <Standard Value>  (521) 
20000.0

>  <label>  (521) 
0

$$$$
CHEMBL346398
     RDKit          3D

  0  0  0  0  0  0  0  0  0  0999 V3000
M  V30 BEGIN CTAB
M  V30 COUNTS 50 53 0 0 1
M  V30 BEGIN ATOM
M  V30 1 C 12.228771 7.959966 -1.984314 0
M  V30 2 C 11.882448 8.112758 -3.444058 0
M  V30 3 C 11.686172 6.966368 -4.234066 0
M  V30 4 C 11.286043 7.094309 -5.573598 0
M  V30 5 C 11.085463 8.372497 -6.140574 0
M  V30 6 C 10.694566 8.522063 -7.601768 0 CFG=1
M  V30 7 C 11.913564 8.339410 -8.518964 0
M  V30 8 C 11.535131 8.464912 -10.003978 0
M  V30 9 N 10.445027 7.520824 -10.372629 0 CFG=2 CHG=1
M  V30 10 C 10.134342 7.556962 -11.825521 0
M  V30 11 C 9.610502 6.234830 -12.359208 0
M  V30 12 C 10.483556 5.361865 -13.046762 0
M  V30 13 C 9.993983 4.164123 -13.603157 0
M  V30 14 C 8.632889 3.828929 -13.470936 0
M  V30 15 C 7.770354 4.683761 -12.749536 0
M  V30 16 C 8.247299 5.898133 -12.223414 0
M  V30 17 N 6.441447 4.278246 -12.504057 0
M  V30 18 C 5.931410 3.166877 -13.045753 0
M  V30 19 O 4.886230 2.658056 -12.647850 0
M  V30 20 C 6.747488 2.514807 -14.177672 0
M  V30 21 O 8.166627 2.646668 -13.998792 0
M  V30 22 C 9.243103 7.714056 -9.517146 0
M  V30 23 C 9.572554 7.557503 -8.027869 0
M  V30 24 C 11.285550 9.520585 -5.343771 0
M  V30 25 C 11.682667 9.389535 -3.998378 0
M  V30 26 H 12.706664 8.854341 -1.582486 0
M  V30 27 H 11.302721 7.777278 -1.444452 0
M  V30 28 H 12.884550 7.105046 -1.826544 0
M  V30 29 H 11.822963 5.982839 -3.808403 0
M  V30 30 H 11.153266 6.195132 -6.155473 0
M  V30 31 H 10.317980 9.535225 -7.734855 0
M  V30 32 H 12.682680 9.070048 -8.271233 0
M  V30 33 H 12.371467 7.372259 -8.335023 0
M  V30 34 H 12.418887 8.268532 -10.611786 0
M  V30 35 H 11.228302 9.487780 -10.226360 0
M  V30 36 H 11.043965 7.772569 -12.385834 0
M  V30 37 H 9.435287 8.362849 -12.053868 0
M  V30 38 H 11.527701 5.610737 -13.169077 0
M  V30 39 H 10.660133 3.500198 -14.136173 0
M  V30 40 H 7.566986 6.564279 -11.714164 0
M  V30 41 H 5.918698 4.761424 -11.785758 0
M  V30 42 H 6.470228 2.972801 -15.125517 0
M  V30 43 H 6.498275 1.456091 -14.246092 0
M  V30 44 H 8.805226 8.694946 -9.705948 0
M  V30 45 H 8.486073 6.972239 -9.763458 0
M  V30 46 H 8.674633 7.740707 -7.433636 0
M  V30 47 H 9.851756 6.518932 -7.853394 0
M  V30 48 H 11.140089 10.507254 -5.758220 0
M  V30 49 H 11.814342 10.270114 -3.386023 0
M  V30 50 H 10.788860 6.590745 -10.182060 0
M  V30 END ATOM
M  V30 BEGIN BOND
M  V30 1 1 2 1
M  V30 2 1 3 2
M  V30 3 2 4 3
M  V30 4 1 5 4
M  V30 5 1 6 5
M  V30 6 1 7 6
M  V30 7 1 8 7
M  V30 8 1 9 8
M  V30 9 1 10 9
M  V30 10 1 11 10
M  V30 11 1 12 11
M  V30 12 2 13 12
M  V30 13 1 14 13
M  V30 14 2 15 14
M  V30 15 2 16 11
M  V30 16 1 16 15
M  V30 17 1 17 15
M  V30 18 1 18 17
M  V30 19 2 19 18
M  V30 20 1 20 18
M  V30 21 1 21 14
M  V30 22 1 21 20
M  V30 23 1 22 9
M  V30 24 1 23 6
M  V30 25 1 23 22
M  V30 26 2 24 5
M  V30 27 2 25 2
M  V30 28 1 25 24
M  V30 29 1 26 1
M  V30 30 1 27 1
M  V30 31 1 28 1
M  V30 32 1 29 3
M  V30 33 1 30 4
M  V30 34 1 6 31 CFG=1
M  V30 35 1 32 7
M  V30 36 1 33 7
M  V30 37 1 34 8
M  V30 38 1 35 8
M  V30 39 1 36 10
M  V30 40 1 37 10
M  V30 41 1 38 12
M  V30 42 1 39 13
M  V30 43 1 40 16
M  V30 44 1 41 17
M  V30 45 1 42 20
M  V30 46 1 43 20
M  V30 47 1 44 22
M  V30 48 1 45 22
M  V30 49 1 46 23
M  V30 50 1 47 23
M  V30 51 1 48 24
M  V30 52 1 49 25
M  V30 53 1 9 50 CFG=1
M  V30 END BOND
M  V30 END CTAB
M  END
>  <b_m_subgroup_collapsed>  (522) 
0

>  <r_i_docking_score>  (522) 
-8.20189804389641

>  <s_m_subgroup_title>  (522) 
glide-dock_SP_D22_pv

>  <s_m_subgroupid>  (522) 
glide-dock_SP_D22_pv

>  <Molecule ChEMBL ID>  (522) 
CHEMBL346398

>  <Standard Type>  (522) 
Ki

>  <Standard Value>  (522) 
52.5

>  <label>  (522) 
1

$$$$
CHEMBL85
     RDKit          3D

  0  0  0  0  0  0  0  0  0  0999 V3000
M  V30 BEGIN CTAB
M  V30 COUNTS 58 62 0 0 1
M  V30 BEGIN ATOM
M  V30 1 C 6.209439 5.308068 -12.549639 0
M  V30 2 C 7.403189 4.564813 -13.127388 0
M  V30 3 N 7.094722 3.409885 -13.847360 0
M  V30 4 C 8.053018 2.715892 -14.366492 0
M  V30 5 N 9.413648 3.082275 -14.259712 0
M  V30 6 C 9.788644 4.187199 -13.547790 0
M  V30 7 O 10.970039 4.527850 -13.446845 0
M  V30 8 C 8.690415 4.961345 -12.939204 0
M  V30 9 C 9.061271 6.189510 -12.111648 0
M  V30 10 C 9.210617 5.825151 -10.628627 0
M  V30 11 N 9.380364 7.034981 -9.786454 0 CFG=2 CHG=1
M  V30 12 C 10.797524 7.460347 -9.652058 0
M  V30 13 C 10.947472 8.756490 -8.824689 0
M  V30 14 C 10.191526 8.730676 -7.475542 0 CFG=2
M  V30 15 C 10.887856 7.961575 -6.374175 0
M  V30 16 N 11.155254 6.663606 -6.504929 0
M  V30 17 O 11.683825 6.199388 -5.271945 0
M  V30 18 C 11.784185 7.258794 -4.390851 0
M  V30 19 C 12.292797 7.325412 -3.088094 0
M  V30 20 C 12.323816 8.591123 -2.471972 0
M  V30 21 F 12.857727 8.716579 -1.237858 0
M  V30 22 C 11.817108 9.728041 -3.145168 0
M  V30 23 C 11.286629 9.631632 -4.454024 0
M  V30 24 C 11.293406 8.367682 -5.084438 0
M  V30 25 C 8.760337 8.213788 -7.686010 0
M  V30 26 C 8.733802 6.880927 -8.468287 0
M  V30 27 C 10.404705 2.306995 -15.043185 0
M  V30 28 C 10.250665 0.773785 -14.917086 0
M  V30 29 C 8.805568 0.330738 -14.650994 0
M  V30 30 C 7.794592 1.397561 -15.085720 0
M  V30 31 H 6.208611 6.358447 -12.844178 0
M  V30 32 H 5.275464 4.870615 -12.904453 0
M  V30 33 H 6.205006 5.256198 -11.460679 0
M  V30 34 H 8.289990 6.954762 -12.231010 0
M  V30 35 H 9.976118 6.643567 -12.498185 0
M  V30 36 H 10.036005 5.129112 -10.476825 0
M  V30 37 H 8.310693 5.288759 -10.324169 0
M  V30 38 H 11.231939 7.607787 -10.639651 0
M  V30 39 H 11.360047 6.654007 -9.186548 0
M  V30 40 H 10.551735 9.578111 -9.426220 0
M  V30 41 H 12.004835 8.975624 -8.667700 0
M  V30 42 H 10.114259 9.769773 -7.143543 0
M  V30 43 H 12.672558 6.445920 -2.593321 0
M  V30 44 H 11.847239 10.684825 -2.648804 0
M  V30 45 H 10.909929 10.507586 -4.959928 0
M  V30 46 H 8.245499 8.103624 -6.730093 0
M  V30 47 H 8.198493 8.966866 -8.243777 0
M  V30 48 H 7.715219 6.560450 -8.647559 0
M  V30 49 H 9.183593 6.060171 -7.913394 0
M  V30 50 H 10.274164 2.589898 -16.088551 0
M  V30 51 H 11.438144 2.565007 -14.803913 0
M  V30 52 H 10.619986 0.306398 -15.829600 0
M  V30 53 H 10.885101 0.399522 -14.112934 0
M  V30 54 H 8.598339 -0.626763 -15.131893 0
M  V30 55 H 8.679965 0.170568 -13.579774 0
M  V30 56 H 6.784674 1.051373 -14.858322 0
M  V30 57 H 7.836555 1.559003 -16.163708 0
M  V30 58 H 8.861369 7.771602 -10.247057 0
M  V30 END ATOM
M  V30 BEGIN BOND
M  V30 1 1 2 1
M  V30 2 1 3 2
M  V30 3 2 4 3
M  V30 4 1 5 4
M  V30 5 1 6 5
M  V30 6 2 7 6
M  V30 7 2 8 2
M  V30 8 1 8 6
M  V30 9 1 9 8
M  V30 10 1 10 9
M  V30 11 1 11 10
M  V30 12 1 12 11
M  V30 13 1 13 12
M  V30 14 1 14 13
M  V30 15 1 15 14
M  V30 16 2 16 15
M  V30 17 1 17 16
M  V30 18 1 18 17
M  V30 19 1 19 18
M  V30 20 2 20 19
M  V30 21 1 21 20
M  V30 22 1 22 20
M  V30 23 2 23 22
M  V30 24 1 24 15
M  V30 25 2 24 18
M  V30 26 1 24 23
M  V30 27 1 25 14
M  V30 28 1 26 11
M  V30 29 1 26 25
M  V30 30 1 27 5
M  V30 31 1 28 27
M  V30 32 1 29 28
M  V30 33 1 30 4
M  V30 34 1 30 29
M  V30 35 1 31 1
M  V30 36 1 32 1
M  V30 37 1 33 1
M  V30 38 1 34 9
M  V30 39 1 35 9
M  V30 40 1 36 10
M  V30 41 1 37 10
M  V30 42 1 38 12
M  V30 43 1 39 12
M  V30 44 1 40 13
M  V30 45 1 41 13
M  V30 46 1 14 42 CFG=1
M  V30 47 1 43 19
M  V30 48 1 44 22
M  V30 49 1 45 23
M  V30 50 1 46 25
M  V30 51 1 47 25
M  V30 52 1 48 26
M  V30 53 1 49 26
M  V30 54 1 50 27
M  V30 55 1 51 27
M  V30 56 1 52 28
M  V30 57 1 53 28
M  V30 58 1 54 29
M  V30 59 1 55 29
M  V30 60 1 56 30
M  V30 61 1 57 30
M  V30 62 1 11 58 CFG=3
M  V30 END BOND
M  V30 END CTAB
M  END
>  <b_m_subgroup_collapsed>  (523) 
0

>  <r_i_docking_score>  (523) 
-8.1915392146807502

>  <s_m_subgroup_title>  (523) 
glide-dock_SP_D22_pv

>  <s_m_subgroupid>  (523) 
glide-dock_SP_D22_pv

>  <Molecule ChEMBL ID>  (523) 
CHEMBL85

>  <Standard Type>  (523) 
Ki

>  <Standard Value>  (523) 
0.44

>  <label>  (523) 
1

$$$$
CHEMBL4579981
     RDKit          3D

  0  0  0  0  0  0  0  0  0  0999 V3000
M  V30 BEGIN CTAB
M  V30 COUNTS 45 47 0 0 1
M  V30 BEGIN ATOM
M  V30 1 C 6.735677 1.505593 -14.989848 0
M  V30 2 C 7.021095 2.750630 -14.174800 0
M  V30 3 C 5.995346 3.371710 -13.430470 0
M  V30 4 C 6.268662 4.516321 -12.654573 0
M  V30 5 C 7.575750 5.039268 -12.615565 0
M  V30 6 N 7.865502 6.172600 -11.846368 0
M  V30 7 C 9.144979 6.696247 -11.749532 0
M  V30 8 C 9.291280 7.922798 -10.863790 0
M  V30 9 N 9.286265 7.528095 -9.437284 0 CHG=1
M  V30 10 C 9.857341 8.543430 -8.519458 0
M  V30 11 C 10.260654 7.947370 -7.153149 0
M  V30 12 C 11.045923 8.968110 -6.296233 0
M  V30 13 C 11.463011 8.513886 -4.899650 0
M  V30 14 C 11.670224 9.481218 -3.893326 0
M  V30 15 C 12.086607 9.060801 -2.614893 0
M  V30 16 N 12.289559 7.770508 -2.286307 0
M  V30 17 C 12.085453 6.846735 -3.246895 0
M  V30 18 C 11.683256 7.159999 -4.562447 0
M  V30 19 C 10.179676 6.161457 -12.432641 0
M  V30 20 C 9.998553 4.969102 -13.289106 0
M  V30 21 O 10.947271 4.469209 -13.892960 0
M  V30 22 C 8.612759 4.418632 -13.356482 0
M  V30 23 C 8.327163 3.279855 -14.141695 0
M  V30 24 H 5.844234 0.993751 -14.625932 0
M  V30 25 H 6.582817 1.764444 -16.037746 0
M  V30 26 H 7.573558 0.809213 -14.928753 0
M  V30 27 H 4.991269 2.972825 -13.443651 0
M  V30 28 H 5.477744 4.981798 -12.082072 0
M  V30 29 H 7.113709 6.643357 -11.333549 0
M  V30 30 H 8.485841 8.634727 -11.050818 0
M  V30 31 H 10.224676 8.426714 -11.122215 0
M  V30 32 H 9.811987 6.669426 -9.350078 0
M  V30 33 H 9.135497 9.353842 -8.389991 0
M  V30 34 H 10.745163 8.982929 -8.980618 0
M  V30 35 H 10.884610 7.065038 -7.320925 0
M  V30 36 H 9.370761 7.609910 -6.613667 0
M  V30 37 H 10.439520 9.868662 -6.184023 0
M  V30 38 H 11.951666 9.273705 -6.825178 0
M  V30 39 H 11.517028 10.533072 -4.089942 0
M  V30 40 H 12.249815 9.782503 -1.830207 0
M  V30 41 H 12.259641 5.821123 -2.959734 0
M  V30 42 H 11.551295 6.362231 -5.276408 0
M  V30 43 H 11.169519 6.587878 -12.368181 0
M  V30 44 H 9.113056 2.796662 -14.706383 0
M  V30 45 H 8.316954 7.347730 -9.186322 0
M  V30 END ATOM
M  V30 BEGIN BOND
M  V30 1 1 2 1
M  V30 2 2 3 2
M  V30 3 1 4 3
M  V30 4 2 5 4
M  V30 5 1 6 5
M  V30 6 1 7 6
M  V30 7 1 8 7
M  V30 8 1 9 8
M  V30 9 1 10 9
M  V30 10 1 11 10
M  V30 11 1 12 11
M  V30 12 1 13 12
M  V30 13 1 14 13
M  V30 14 2 15 14
M  V30 15 1 16 15
M  V30 16 2 17 16
M  V30 17 2 18 13
M  V30 18 1 18 17
M  V30 19 2 19 7
M  V30 20 1 20 19
M  V30 21 2 21 20
M  V30 22 1 22 5
M  V30 23 1 22 20
M  V30 24 1 23 2
M  V30 25 2 23 22
M  V30 26 1 24 1
M  V30 27 1 25 1
M  V30 28 1 26 1
M  V30 29 1 27 3
M  V30 30 1 28 4
M  V30 31 1 29 6
M  V30 32 1 30 8
M  V30 33 1 31 8
M  V30 34 1 32 9
M  V30 35 1 33 10
M  V30 36 1 34 10
M  V30 37 1 35 11
M  V30 38 1 36 11
M  V30 39 1 37 12
M  V30 40 1 38 12
M  V30 41 1 39 14
M  V30 42 1 40 15
M  V30 43 1 41 17
M  V30 44 1 42 18
M  V30 45 1 43 19
M  V30 46 1 44 23
M  V30 47 1 45 9
M  V30 END BOND
M  V30 END CTAB
M  END
>  <b_m_subgroup_collapsed>  (524) 
0

>  <r_i_docking_score>  (524) 
-8.1884183267925597

>  <s_m_subgroup_title>  (524) 
glide-dock_SP_D22_pv

>  <s_m_subgroupid>  (524) 
glide-dock_SP_D22_pv

>  <Molecule ChEMBL ID>  (524) 
CHEMBL4579981

>  <Standard Type>  (524) 
Ki

>  <Standard Value>  (524) 
10000.0

>  <label>  (524) 
0

$$$$
CHEMBL4447330
     RDKit          3D

  0  0  0  0  0  0  0  0  0  0999 V3000
M  V30 BEGIN CTAB
M  V30 COUNTS 69 73 0 0 1
M  V30 BEGIN ATOM
M  V30 1 C 12.610816 8.859110 -1.738001 0
M  V30 2 O 12.486204 9.544567 -2.977442 0
M  V30 3 C 11.901669 8.915308 -4.050309 0
M  V30 4 C 11.510545 9.732834 -5.128642 0
M  V30 5 C 10.887271 9.185725 -6.264072 0
M  V30 6 C 10.657676 7.795285 -6.355769 0
M  V30 7 N 10.021831 7.213084 -7.469267 0
M  V30 8 C 9.862556 7.972102 -8.704611 0
M  V30 9 C 9.607674 7.022318 -9.888325 0
M  V30 10 N 8.486050 6.077913 -9.631515 0 CHG=1
M  V30 11 C 8.345226 5.059184 -10.698773 0
M  V30 12 C 7.788665 5.615130 -12.017392 0
M  V30 13 C 7.529717 4.505572 -13.044055 0
M  V30 14 C 6.295506 3.648453 -12.713696 0
M  V30 15 C 5.943552 2.675365 -13.840197 0
M  V30 16 C 6.809995 1.399879 -13.920609 0
M  V30 17 N 6.557076 0.700291 -15.200677 0
M  V30 18 C 5.573924 -0.242996 -15.251585 0
M  V30 19 O 4.967237 -0.629772 -14.248280 0
M  V30 20 C 5.177303 -0.783164 -16.605034 0
M  V30 21 C 4.149389 -1.745077 -16.738827 0
M  V30 22 C 3.748922 -2.225100 -17.996084 0
M  V30 23 C 4.365324 -1.746413 -19.157120 0
M  V30 24 C 5.397675 -0.795338 -19.077301 0
M  V30 25 C 6.043054 -0.290266 -20.220711 0
M  V30 26 C 7.077409 0.649562 -20.100878 0
M  V30 27 C 7.468808 1.090547 -18.828407 0
M  V30 28 C 6.839785 0.621013 -17.650791 0
M  V30 29 C 5.799383 -0.327487 -17.794022 0
M  V30 30 C 7.254149 1.125407 -16.293896 0
M  V30 31 O 8.171086 1.947138 -16.228970 0
M  V30 32 C 8.597199 5.404016 -8.309899 0
M  V30 33 C 8.876538 6.370180 -7.159740 0
M  V30 34 C 11.081403 6.972104 -5.289389 0
M  V30 35 C 11.686547 7.520611 -4.146393 0
M  V30 36 H 13.368999 9.351239 -1.130733 0
M  V30 37 H 11.686060 8.910589 -1.178599 0
M  V30 38 H 12.891116 7.813780 -1.813952 0
M  V30 39 H 11.685217 10.795417 -5.091538 0
M  V30 40 H 10.582348 9.854262 -7.050123 0
M  V30 41 H 9.026803 8.664092 -8.597233 0
M  V30 42 H 10.754749 8.566617 -8.905010 0
M  V30 43 H 9.402857 7.612184 -10.783453 0
M  V30 44 H 10.518108 6.453106 -10.086349 0
M  V30 45 H 9.306623 4.573713 -10.871333 0
M  V30 46 H 7.686233 4.270381 -10.338926 0
M  V30 47 H 6.868240 6.172175 -11.843602 0
M  V30 48 H 8.498692 6.323659 -12.445496 0
M  V30 49 H 7.385965 4.972638 -14.017802 0
M  V30 50 H 8.413690 3.874740 -13.145423 0
M  V30 51 H 6.415530 3.106386 -11.776121 0
M  V30 52 H 5.446675 4.315504 -12.563044 0
M  V30 53 H 4.902099 2.372323 -13.722806 0
M  V30 54 H 6.011145 3.227610 -14.778582 0
M  V30 55 H 7.867929 1.655619 -13.847112 0
M  V30 56 H 6.609725 0.765642 -13.049300 0
M  V30 57 H 3.649971 -2.136352 -15.862078 0
M  V30 58 H 2.966217 -2.967819 -18.064110 0
M  V30 59 H 4.048702 -2.121612 -20.118494 0
M  V30 60 H 5.742729 -0.627387 -21.201609 0
M  V30 61 H 7.571194 1.027508 -20.984261 0
M  V30 62 H 8.271265 1.812170 -18.758715 0
M  V30 63 H 7.687047 4.851802 -8.091855 0
M  V30 64 H 9.404688 4.672005 -8.354182 0
M  V30 65 H 9.016825 5.774367 -6.260506 0
M  V30 66 H 8.019116 7.013772 -6.970672 0
M  V30 67 H 10.951124 5.902882 -5.333499 0
M  V30 68 H 11.974912 6.833697 -3.369107 0
M  V30 69 H 7.631489 6.641335 -9.622231 0
M  V30 END ATOM
M  V30 BEGIN BOND
M  V30 1 1 2 1
M  V30 2 1 3 2
M  V30 3 1 4 3
M  V30 4 2 5 4
M  V30 5 1 6 5
M  V30 6 1 7 6
M  V30 7 1 8 7
M  V30 8 1 9 8
M  V30 9 1 10 9
M  V30 10 1 11 10
M  V30 11 1 12 11
M  V30 12 1 13 12
M  V30 13 1 14 13
M  V30 14 1 15 14
M  V30 15 1 16 15
M  V30 16 1 17 16
M  V30 17 1 18 17
M  V30 18 2 19 18
M  V30 19 1 20 18
M  V30 20 1 21 20
M  V30 21 2 22 21
M  V30 22 1 23 22
M  V30 23 2 24 23
M  V30 24 1 25 24
M  V30 25 2 26 25
M  V30 26 1 27 26
M  V30 27 2 28 27
M  V30 28 2 29 20
M  V30 29 1 29 24
M  V30 30 1 29 28
M  V30 31 1 30 17
M  V30 32 1 30 28
M  V30 33 2 31 30
M  V30 34 1 32 10
M  V30 35 1 33 7
M  V30 36 1 33 32
M  V30 37 2 34 6
M  V30 38 2 35 3
M  V30 39 1 35 34
M  V30 40 1 36 1
M  V30 41 1 37 1
M  V30 42 1 38 1
M  V30 43 1 39 4
M  V30 44 1 40 5
M  V30 45 1 41 8
M  V30 46 1 42 8
M  V30 47 1 43 9
M  V30 48 1 44 9
M  V30 49 1 45 11
M  V30 50 1 46 11
M  V30 51 1 47 12
M  V30 52 1 48 12
M  V30 53 1 49 13
M  V30 54 1 50 13
M  V30 55 1 51 14
M  V30 56 1 52 14
M  V30 57 1 53 15
M  V30 58 1 54 15
M  V30 59 1 55 16
M  V30 60 1 56 16
M  V30 61 1 57 21
M  V30 62 1 58 22
M  V30 63 1 59 23
M  V30 64 1 60 25
M  V30 65 1 61 26
M  V30 66 1 62 27
M  V30 67 1 63 32
M  V30 68 1 64 32
M  V30 69 1 65 33
M  V30 70 1 66 33
M  V30 71 1 67 34
M  V30 72 1 68 35
M  V30 73 1 69 10
M  V30 END BOND
M  V30 END CTAB
M  END
>  <b_m_subgroup_collapsed>  (525) 
0

>  <r_i_docking_score>  (525) 
-8.1871475059791408

>  <s_m_subgroup_title>  (525) 
glide-dock_SP_D22_pv

>  <s_m_subgroupid>  (525) 
glide-dock_SP_D22_pv

>  <Molecule ChEMBL ID>  (525) 
CHEMBL4447330

>  <Standard Type>  (525) 
Ki

>  <Standard Value>  (525) 
40040.0

>  <label>  (525) 
0

$$$$
CHEMBL351611
     RDKit          3D

  0  0  0  0  0  0  0  0  0  0999 V3000
M  V30 BEGIN CTAB
M  V30 COUNTS 51 54 0 0 1
M  V30 BEGIN ATOM
M  V30 1 C 8.521736 0.934925 -15.376597 0
M  V30 2 C 7.286823 1.469931 -14.962975 0
M  V30 3 C 7.245890 2.681125 -14.245599 0
M  V30 4 C 8.434413 3.371336 -13.923317 0
M  V30 5 O 8.308853 4.523377 -13.172842 0
M  V30 6 C 9.477894 5.292195 -12.919125 0
M  V30 7 C 9.213082 6.368608 -11.852364 0 CFG=2
M  V30 8 C 10.398364 7.348415 -11.815190 0
M  V30 9 C 10.233041 8.367804 -10.686069 0
M  V30 10 C 10.073882 7.653190 -9.343554 0 CFG=1
M  V30 11 C 10.002672 8.674669 -8.189349 0
M  V30 12 N 9.754460 7.993674 -6.929483 0
M  V30 13 C 10.672551 8.043674 -5.861368 0
M  V30 14 C 11.375767 9.232224 -5.566533 0
M  V30 15 C 12.264355 9.279456 -4.472471 0
M  V30 16 C 12.445590 8.159095 -3.646392 0
M  V30 17 C 11.758035 6.971511 -3.937716 0
M  V30 18 C 10.895814 6.913877 -5.047353 0
M  V30 19 C 8.587031 7.121936 -6.910981 0
M  V30 20 C 8.632720 6.099312 -8.060390 0
M  V30 21 N 8.886211 6.741699 -9.376432 0 CFG=2 CHG=1
M  V30 22 C 8.985595 5.730333 -10.464781 0
M  V30 23 C 9.671755 2.835045 -14.367167 0
M  V30 24 C 9.712652 1.623842 -15.084651 0
M  V30 25 H 8.551562 0.000029 -15.916842 0
M  V30 26 H 6.370212 0.945736 -15.193378 0
M  V30 27 H 6.294256 3.078320 -13.926225 0
M  V30 28 H 10.296230 4.665168 -12.566309 0
M  V30 29 H 9.792724 5.757885 -13.854568 0
M  V30 30 H 8.315729 6.922842 -12.134592 0
M  V30 31 H 11.331281 6.803470 -11.675945 0
M  V30 32 H 10.486933 7.867240 -12.765631 0
M  V30 33 H 11.100620 9.030640 -10.648300 0
M  V30 34 H 9.360453 8.993664 -10.882511 0
M  V30 35 H 10.955855 7.032981 -9.176600 0
M  V30 36 H 10.929127 9.249369 -8.158073 0
M  V30 37 H 9.191718 9.382512 -8.356332 0
M  V30 38 H 11.230056 10.124319 -6.157496 0
M  V30 39 H 12.822284 10.172322 -4.263783 0
M  V30 40 H 13.114552 8.212667 -2.802379 0
M  V30 41 H 11.903830 6.101068 -3.316084 0
M  V30 42 H 10.399389 5.981284 -5.251406 0
M  V30 43 H 8.486783 6.588183 -5.969609 0
M  V30 44 H 7.708097 7.759836 -6.992815 0
M  V30 45 H 9.421079 5.371410 -7.856482 0
M  V30 46 H 7.691818 5.548223 -8.095461 0
M  V30 47 H 8.070297 5.137922 -10.480047 0
M  V30 48 H 9.801620 5.042891 -10.232833 0
M  V30 49 H 10.610990 3.323304 -14.166471 0
M  V30 50 H 10.660869 1.219033 -15.406628 0
M  V30 51 H 8.057425 7.302936 -9.575982 0
M  V30 END ATOM
M  V30 BEGIN BOND
M  V30 1 2 2 1
M  V30 2 1 3 2
M  V30 3 2 4 3
M  V30 4 1 5 4
M  V30 5 1 6 5
M  V30 6 1 7 6
M  V30 7 1 8 7
M  V30 8 1 9 8
M  V30 9 1 10 9
M  V30 10 1 11 10
M  V30 11 1 12 11
M  V30 12 1 13 12
M  V30 13 2 14 13
M  V30 14 1 15 14
M  V30 15 2 16 15
M  V30 16 1 17 16
M  V30 17 1 18 13
M  V30 18 2 18 17
M  V30 19 1 19 12
M  V30 20 1 20 19
M  V30 21 1 21 10
M  V30 22 1 21 20
M  V30 23 1 22 7
M  V30 24 1 22 21
M  V30 25 1 23 4
M  V30 26 1 24 1
M  V30 27 2 24 23
M  V30 28 1 25 1
M  V30 29 1 26 2
M  V30 30 1 27 3
M  V30 31 1 28 6
M  V30 32 1 29 6
M  V30 33 1 7 30 CFG=3
M  V30 34 1 31 8
M  V30 35 1 32 8
M  V30 36 1 33 9
M  V30 37 1 34 9
M  V30 38 1 10 35 CFG=1
M  V30 39 1 36 11
M  V30 40 1 37 11
M  V30 41 1 38 14
M  V30 42 1 39 15
M  V30 43 1 40 16
M  V30 44 1 41 17
M  V30 45 1 42 18
M  V30 46 1 43 19
M  V30 47 1 44 19
M  V30 48 1 45 20
M  V30 49 1 46 20
M  V30 50 1 47 22
M  V30 51 1 48 22
M  V30 52 1 49 23
M  V30 53 1 50 24
M  V30 54 1 21 51 CFG=3
M  V30 END BOND
M  V30 END CTAB
M  END
>  <b_m_subgroup_collapsed>  (526) 
0

>  <r_i_docking_score>  (526) 
-8.1861802897528406

>  <s_m_subgroup_title>  (526) 
glide-dock_SP_D22_pv

>  <s_m_subgroupid>  (526) 
glide-dock_SP_D22_pv

>  <Molecule ChEMBL ID>  (526) 
CHEMBL351611

>  <Standard Type>  (526) 
Ki

>  <Standard Value>  (526) 
44.0

>  <label>  (526) 
1

$$$$
CHEMBL3590084
     RDKit          3D

  0  0  0  0  0  0  0  0  0  0999 V3000
M  V30 BEGIN CTAB
M  V30 COUNTS 55 57 0 0 1
M  V30 BEGIN ATOM
M  V30 1 C 8.657886 4.189095 -9.186758 0
M  V30 2 C 8.486911 5.504820 -8.431842 0
M  V30 3 C 9.841455 6.119528 -8.063320 0
M  V30 4 N 9.705070 7.422565 -7.353110 0 CFG=2 CHG=1
M  V30 5 C 9.204220 8.541624 -8.211061 0
M  V30 6 C 9.942727 8.732821 -9.550351 0
M  V30 7 N 9.286067 7.973184 -10.603236 0
M  V30 8 C 9.910645 7.266011 -11.549405 0
M  V30 9 O 11.115442 7.371652 -11.782374 0
M  V30 10 C 8.992921 6.330245 -12.168812 0
M  V30 11 C 9.456258 5.303369 -12.907826 0
M  V30 12 C 8.642330 4.229489 -13.501345 0
M  V30 13 C 7.242729 4.139411 -13.311191 0
M  V30 14 C 6.516629 3.058049 -13.848200 0
M  V30 15 C 7.180740 2.061913 -14.589880 0
M  V30 16 F 6.487291 1.015281 -15.096620 0
M  V30 17 C 8.568996 2.148563 -14.794996 0
M  V30 18 C 9.294251 3.227816 -14.252756 0
M  V30 19 C 10.894256 7.753299 -6.512311 0
M  V30 20 C 10.828021 9.117597 -5.770046 0
M  V30 21 C 11.464813 8.837070 -4.441228 0
M  V30 22 C 11.722471 9.761082 -3.422075 0
M  V30 23 C 12.257628 9.281096 -2.209369 0
M  V30 24 C 12.485415 7.902300 -2.015079 0
M  V30 25 C 12.194679 6.978733 -3.041649 0
M  V30 26 C 11.686011 7.479544 -4.251762 0
M  V30 27 C 11.198637 6.685011 -5.424192 0
M  V30 28 H 7.686101 3.772411 -9.444064 0
M  V30 29 H 9.206259 4.340051 -10.114691 0
M  V30 30 H 9.209187 3.446380 -8.616037 0
M  V30 31 H 7.892398 5.350217 -7.531855 0
M  V30 32 H 7.907931 6.174946 -9.062848 0
M  V30 33 H 10.489097 6.214184 -8.933455 0
M  V30 34 H 10.348443 5.388120 -7.441067 0
M  V30 35 H 9.234035 9.485947 -7.677108 0
M  V30 36 H 8.140293 8.397770 -8.383069 0
M  V30 37 H 11.007143 8.511873 -9.462069 0
M  V30 38 H 9.874762 9.772856 -9.846579 0
M  V30 39 H 8.277361 7.850125 -10.515618 0
M  V30 40 H 7.932105 6.452509 -12.002267 0
M  V30 41 H 10.522896 5.219809 -13.070365 0
M  V30 42 H 6.706835 4.877077 -12.733716 0
M  V30 43 H 5.450234 2.989223 -13.687081 0
M  V30 44 H 9.078351 1.382244 -15.361667 0
M  V30 45 H 10.363132 3.273048 -14.403080 0
M  V30 46 H 11.767870 7.800278 -7.165568 0
M  V30 47 H 11.351857 9.908833 -6.307711 0
M  V30 48 H 9.808382 9.443491 -5.576893 0
M  V30 49 H 11.489302 10.805139 -3.541867 0
M  V30 50 H 12.485177 9.966899 -1.407711 0
M  V30 51 H 12.885742 7.568075 -1.064915 0
M  V30 52 H 12.339935 5.918697 -2.891828 0
M  V30 53 H 10.291494 6.171843 -5.107726 0
M  V30 54 H 11.936131 5.947113 -5.744817 0
M  V30 55 H 8.962522 7.278801 -6.683082 0
M  V30 END ATOM
M  V30 BEGIN BOND
M  V30 1 1 2 1
M  V30 2 1 3 2
M  V30 3 1 4 3
M  V30 4 1 5 4
M  V30 5 1 6 5
M  V30 6 1 7 6
M  V30 7 1 8 7
M  V30 8 2 9 8
M  V30 9 1 10 8
M  V30 10 2 11 10
M  V30 11 1 12 11
M  V30 12 1 13 12
M  V30 13 2 14 13
M  V30 14 1 15 14
M  V30 15 1 16 15
M  V30 16 2 17 15
M  V30 17 2 18 12
M  V30 18 1 18 17
M  V30 19 1 19 4
M  V30 20 1 20 19
M  V30 21 1 21 20
M  V30 22 2 22 21
M  V30 23 1 23 22
M  V30 24 2 24 23
M  V30 25 1 25 24
M  V30 26 1 26 21
M  V30 27 2 26 25
M  V30 28 1 27 19
M  V30 29 1 27 26
M  V30 30 1 28 1
M  V30 31 1 29 1
M  V30 32 1 30 1
M  V30 33 1 31 2
M  V30 34 1 32 2
M  V30 35 1 33 3
M  V30 36 1 34 3
M  V30 37 1 35 5
M  V30 38 1 36 5
M  V30 39 1 37 6
M  V30 40 1 38 6
M  V30 41 1 39 7
M  V30 42 1 40 10
M  V30 43 1 41 11
M  V30 44 1 42 13
M  V30 45 1 43 14
M  V30 46 1 44 17
M  V30 47 1 45 18
M  V30 48 1 46 19
M  V30 49 1 47 20
M  V30 50 1 48 20
M  V30 51 1 49 22
M  V30 52 1 50 23
M  V30 53 1 51 24
M  V30 54 1 52 25
M  V30 55 1 53 27
M  V30 56 1 54 27
M  V30 57 1 4 55 CFG=1
M  V30 END BOND
M  V30 END CTAB
M  END
>  <b_m_subgroup_collapsed>  (527) 
0

>  <r_i_docking_score>  (527) 
-8.1853015228104695

>  <s_m_subgroup_title>  (527) 
glide-dock_SP_D22_pv

>  <s_m_subgroupid>  (527) 
glide-dock_SP_D22_pv

>  <Molecule ChEMBL ID>  (527) 
CHEMBL3590084

>  <Standard Type>  (527) 
Ki

>  <Standard Value>  (527) 
13.0

>  <label>  (527) 
1

$$$$
CHEMBL201748
     RDKit          3D

  0  0  0  0  0  0  0  0  0  0999 V3000
M  V30 BEGIN CTAB
M  V30 COUNTS 43 47 0 0 1
M  V30 BEGIN ATOM
M  V30 1 C 12.641397 5.037763 -15.170630 0
M  V30 2 C 11.682705 4.316129 -14.437144 0
M  V30 3 C 10.914085 4.959255 -13.447612 0
M  V30 4 C 11.106974 6.334831 -13.162802 0
M  V30 5 C 10.268204 7.104503 -12.131678 0 CFG=2
M  V30 6 C 11.031752 7.656699 -10.935061 0
M  V30 7 C 9.904964 7.993915 -9.961507 0 CFG=2
M  V30 8 C 10.382040 8.134786 -8.556750 0
M  V30 9 N 11.260986 9.099011 -8.101650 0
M  V30 10 C 11.487502 8.939377 -6.747246 0
M  V30 11 C 12.230633 9.678526 -5.810145 0
M  V30 12 C 12.319395 9.220516 -4.482088 0
M  V30 13 C 11.686050 8.018234 -4.113933 0
M  V30 14 C 10.933727 7.290646 -5.058307 0
M  V30 15 C 10.784866 7.753466 -6.381579 0
M  V30 16 C 10.043773 7.317402 -7.525556 0
M  V30 17 C 9.056157 6.223083 -7.697359 0
M  V30 18 C 8.989988 5.780545 -9.166170 0
M  V30 19 N 8.886175 6.914463 -10.140339 0 CFG=2 CHG=1
M  V30 20 C 9.024318 6.415591 -11.531599 0
M  V30 21 C 12.085899 7.042724 -13.899668 0
M  V30 22 C 12.838331 6.404833 -14.905271 0
M  V30 23 H 13.225971 4.542908 -15.932707 0
M  V30 24 H 11.530671 3.265230 -14.640256 0
M  V30 25 H 10.187155 4.355004 -12.931499 0
M  V30 26 H 9.887494 7.986529 -12.645474 0
M  V30 27 H 11.673875 6.894430 -10.499792 0
M  V30 28 H 11.661105 8.516319 -11.167741 0
M  V30 29 H 9.436521 8.928505 -10.275447 0
M  V30 30 H 11.669832 9.803838 -8.698609 0
M  V30 31 H 12.752248 10.573700 -6.111665 0
M  V30 32 H 12.892874 9.771166 -3.750800 0
M  V30 33 H 11.772369 7.655086 -3.099896 0
M  V30 34 H 10.438890 6.377811 -4.758574 0
M  V30 35 H 9.316887 5.373774 -7.070776 0
M  V30 36 H 8.084711 6.570161 -7.358160 0
M  V30 37 H 9.898856 5.216039 -9.383904 0
M  V30 38 H 8.151960 5.095524 -9.307524 0
M  V30 39 H 8.130238 6.653697 -12.108105 0
M  V30 40 H 9.095662 5.331830 -11.514807 0
M  V30 41 H 12.256988 8.092387 -13.713663 0
M  V30 42 H 13.577038 6.962132 -15.463056 0
M  V30 43 H 7.953650 7.342030 -10.043169 0
M  V30 END ATOM
M  V30 BEGIN BOND
M  V30 1 2 2 1
M  V30 2 1 3 2
M  V30 3 2 4 3
M  V30 4 1 5 4
M  V30 5 1 6 5
M  V30 6 1 7 6
M  V30 7 1 8 7
M  V30 8 1 9 8
M  V30 9 1 10 9
M  V30 10 2 11 10
M  V30 11 1 12 11
M  V30 12 2 13 12
M  V30 13 1 14 13
M  V30 14 1 15 10
M  V30 15 2 15 14
M  V30 16 2 16 8
M  V30 17 1 16 15
M  V30 18 1 17 16
M  V30 19 1 18 17
M  V30 20 1 19 7
M  V30 21 1 19 18
M  V30 22 1 20 5
M  V30 23 1 20 19
M  V30 24 1 21 4
M  V30 25 1 22 1
M  V30 26 2 22 21
M  V30 27 1 23 1
M  V30 28 1 24 2
M  V30 29 1 25 3
M  V30 30 1 5 26 CFG=3
M  V30 31 1 27 6
M  V30 32 1 28 6
M  V30 33 1 7 29 CFG=3
M  V30 34 1 30 9
M  V30 35 1 31 11
M  V30 36 1 32 12
M  V30 37 1 33 13
M  V30 38 1 34 14
M  V30 39 1 35 17
M  V30 40 1 36 17
M  V30 41 1 37 18
M  V30 42 1 38 18
M  V30 43 1 39 20
M  V30 44 1 40 20
M  V30 45 1 41 21
M  V30 46 1 42 22
M  V30 47 1 19 43 CFG=3
M  V30 END BOND
M  V30 END CTAB
M  END
>  <b_m_subgroup_collapsed>  (528) 
0

>  <r_i_docking_score>  (528) 
-8.1848779592167507

>  <s_m_subgroup_title>  (528) 
glide-dock_SP_D22_pv

>  <s_m_subgroupid>  (528) 
glide-dock_SP_D22_pv

>  <Molecule ChEMBL ID>  (528) 
CHEMBL201748

>  <Standard Type>  (528) 
Ki

>  <Standard Value>  (528) 
10000.0

>  <label>  (528) 
0

$$$$
CHEMBL4862301
     RDKit          3D

  0  0  0  0  0  0  0  0  0  0999 V3000
M  V30 BEGIN CTAB
M  V30 COUNTS 60 63 0 0 1
M  V30 BEGIN ATOM
M  V30 1 C 5.985414 -0.794500 -14.936137 0
M  V30 2 O 6.143716 0.582332 -14.624332 0
M  V30 3 C 7.413160 1.125305 -14.649425 0
M  V30 4 C 8.566244 0.401273 -15.043607 0
M  V30 5 C 9.836239 1.008129 -15.047489 0
M  V30 6 C 9.969101 2.353429 -14.667083 0
M  V30 7 C 8.830832 3.084364 -14.283625 0
M  V30 8 C 7.555405 2.479643 -14.263124 0
M  V30 9 C 6.370121 3.297462 -13.851674 0 CFG=1
M  V30 10 C 5.347146 2.855898 -12.833478 0
M  V30 11 C 6.333085 3.949774 -12.493725 0 CFG=2
M  V30 12 C 5.883008 5.391519 -12.347962 0
M  V30 13 N 6.971435 6.384961 -12.246972 0 CHG=1
M  V30 14 C 8.148116 5.985827 -11.467973 0
M  V30 15 C 9.061376 7.188533 -11.198061 0
M  V30 16 C 10.203712 6.842730 -10.241961 0
M  V30 17 C 9.695277 6.204553 -8.932055 0
M  V30 18 O 10.699458 6.082147 -7.945012 0
M  V30 19 C 10.826436 7.118275 -7.058291 0
M  V30 20 C 10.529664 8.464302 -7.384356 0
M  V30 21 C 10.701749 9.469804 -6.427553 0
M  V30 22 C 11.123778 9.135476 -5.140893 0
M  V30 23 C 11.445572 7.808543 -4.802555 0
M  V30 24 C 11.286150 6.800340 -5.765766 0
M  V30 25 N 11.901698 7.502494 -3.495903 0
M  V30 26 C 12.236026 8.441698 -2.595342 0
M  V30 27 O 12.556466 8.172487 -1.447023 0
M  V30 28 C 12.234678 9.900498 -3.046437 0
M  V30 29 C 11.150913 10.187648 -4.079257 0
M  V30 30 H 4.930840 -1.059445 -14.867982 0
M  V30 31 H 6.313024 -1.018805 -15.951637 0
M  V30 32 H 6.525034 -1.426754 -14.231346 0
M  V30 33 H 8.503384 -0.627595 -15.352392 0
M  V30 34 H 10.706409 0.442378 -15.346045 0
M  V30 35 H 10.941255 2.824009 -14.673986 0
M  V30 36 H 8.942348 4.120195 -14.005164 0
M  V30 37 H 5.999479 3.874491 -14.689144 0
M  V30 38 H 4.315222 3.149620 -13.006157 0
M  V30 39 H 5.484955 1.890362 -12.350272 0
M  V30 40 H 7.045645 3.624525 -11.741500 0
M  V30 41 H 5.252905 5.668942 -13.190454 0
M  V30 42 H 5.284405 5.470538 -11.446424 0
M  V30 43 H 7.255639 6.710394 -13.157191 0
M  V30 44 H 7.762483 5.571852 -10.536827 0
M  V30 45 H 8.708753 5.203397 -11.977053 0
M  V30 46 H 9.473145 7.563260 -12.136061 0
M  V30 47 H 8.486500 8.010564 -10.771770 0
M  V30 48 H 10.885898 6.172360 -10.744556 0
M  V30 49 H 10.791940 7.738822 -10.057298 0
M  V30 50 H 8.822336 6.732821 -8.541195 0
M  V30 51 H 9.365808 5.184443 -9.125916 0
M  V30 52 H 10.157343 8.759418 -8.349861 0
M  V30 53 H 10.486054 10.501922 -6.647493 0
M  V30 54 H 11.523123 5.777611 -5.520017 0
M  V30 55 H 11.956580 6.531788 -3.223287 0
M  V30 56 H 12.086149 10.562382 -2.200619 0
M  V30 57 H 13.218345 10.111571 -3.462941 0
M  V30 58 H 11.285888 11.157884 -4.551205 0
M  V30 59 H 10.172831 10.201036 -3.607812 0
M  V30 60 H 6.584051 7.160983 -11.698696 0
M  V30 END ATOM
M  V30 BEGIN BOND
M  V30 1 1 2 1
M  V30 2 1 3 2
M  V30 3 2 4 3
M  V30 4 1 5 4
M  V30 5 2 6 5
M  V30 6 1 7 6
M  V30 7 1 8 3
M  V30 8 2 8 7
M  V30 9 1 9 8
M  V30 10 1 10 9
M  V30 11 1 11 9
M  V30 12 1 11 10
M  V30 13 1 12 11
M  V30 14 1 13 12
M  V30 15 1 14 13
M  V30 16 1 15 14
M  V30 17 1 16 15
M  V30 18 1 17 16
M  V30 19 1 18 17
M  V30 20 1 19 18
M  V30 21 1 20 19
M  V30 22 2 21 20
M  V30 23 1 22 21
M  V30 24 2 23 22
M  V30 25 2 24 19
M  V30 26 1 24 23
M  V30 27 1 25 23
M  V30 28 1 26 25
M  V30 29 2 27 26
M  V30 30 1 28 26
M  V30 31 1 29 22
M  V30 32 1 29 28
M  V30 33 1 30 1
M  V30 34 1 31 1
M  V30 35 1 32 1
M  V30 36 1 33 4
M  V30 37 1 34 5
M  V30 38 1 35 6
M  V30 39 1 36 7
M  V30 40 1 9 37 CFG=3
M  V30 41 1 38 10
M  V30 42 1 39 10
M  V30 43 1 11 40 CFG=1
M  V30 44 1 41 12
M  V30 45 1 42 12
M  V30 46 1 43 13
M  V30 47 1 44 14
M  V30 48 1 45 14
M  V30 49 1 46 15
M  V30 50 1 47 15
M  V30 51 1 48 16
M  V30 52 1 49 16
M  V30 53 1 50 17
M  V30 54 1 51 17
M  V30 55 1 52 20
M  V30 56 1 53 21
M  V30 57 1 54 24
M  V30 58 1 55 25
M  V30 59 1 56 28
M  V30 60 1 57 28
M  V30 61 1 58 29
M  V30 62 1 59 29
M  V30 63 1 60 13
M  V30 END BOND
M  V30 END CTAB
M  END
>  <b_m_subgroup_collapsed>  (529) 
0

>  <r_i_docking_score>  (529) 
-8.1845064417874607

>  <s_m_subgroup_title>  (529) 
glide-dock_SP_D22_pv

>  <s_m_subgroupid>  (529) 
glide-dock_SP_D22_pv

>  <Molecule ChEMBL ID>  (529) 
CHEMBL4862301

>  <Standard Type>  (529) 
Ki

>  <Standard Value>  (529) 
61.9

>  <label>  (529) 
1

$$$$
CHEMBL564477
     RDKit          3D

  0  0  0  0  0  0  0  0  0  0999 V3000
M  V30 BEGIN CTAB
M  V30 COUNTS 47 50 0 0 1
M  V30 BEGIN ATOM
M  V30 1 C 5.296909 -1.848869 -15.255504 0
M  V30 2 C 5.703006 -0.481697 -14.747744 0
M  V30 3 C 6.843922 0.175365 -15.250916 0
M  V30 4 C 7.130888 1.479094 -14.799779 0
M  V30 5 C 6.265941 2.086517 -13.858090 0
M  V30 6 N 6.414993 3.444182 -13.428485 0
M  V30 7 C 5.285262 4.193026 -12.892825 0
M  V30 8 C 5.874322 5.529747 -12.490430 0
M  V30 9 N 7.285855 5.311807 -12.704732 0
M  V30 10 C 8.216613 6.172732 -11.994994 0
M  V30 11 C 8.611544 5.500829 -10.663878 0
M  V30 12 N 8.885024 6.475029 -9.591996 0 CHG=1
M  V30 13 C 9.116984 5.866586 -8.252452 0
M  V30 14 C 9.945121 6.908932 -7.564888 0
M  V30 15 C 10.247723 7.015846 -6.197521 0
M  V30 16 C 10.978912 8.145592 -5.767722 0
M  V30 17 C 11.375911 9.140105 -6.694144 0
M  V30 18 C 11.060640 9.004253 -8.064301 0
M  V30 19 C 10.362249 7.863936 -8.475576 0
M  V30 20 C 9.903274 7.519875 -9.861738 0
M  V30 21 C 7.563087 4.142455 -13.297473 0
M  V30 22 O 8.696300 3.756608 -13.579910 0
M  V30 23 C 5.181182 1.308454 -13.389012 0
M  V30 24 N 4.896911 0.062176 -13.815631 0
M  V30 25 H 5.685511 -2.024522 -16.258120 0
M  V30 26 H 5.685567 -2.624815 -14.598425 0
M  V30 27 H 4.211104 -1.943708 -15.298790 0
M  V30 28 H 7.472718 -0.302320 -15.988171 0
M  V30 29 H 7.977561 2.004509 -15.214495 0
M  V30 30 H 4.492307 4.303794 -13.632003 0
M  V30 31 H 4.886371 3.703269 -12.007184 0
M  V30 32 H 5.658549 5.767031 -11.445924 0
M  V30 33 H 5.510208 6.350380 -13.107421 0
M  V30 34 H 9.098565 6.362750 -12.609322 0
M  V30 35 H 7.735308 7.139540 -11.846996 0
M  V30 36 H 7.798162 4.865346 -10.306655 0
M  V30 37 H 9.473248 4.847151 -10.810499 0
M  V30 38 H 8.173946 5.683971 -7.734632 0
M  V30 39 H 9.682645 4.936226 -8.321108 0
M  V30 40 H 9.916221 6.267756 -5.492190 0
M  V30 41 H 11.222622 8.259664 -4.722333 0
M  V30 42 H 11.913673 10.012305 -6.351202 0
M  V30 43 H 11.304161 9.771565 -8.782121 0
M  V30 44 H 10.740068 7.128230 -10.442067 0
M  V30 45 H 9.468731 8.378085 -10.374481 0
M  V30 46 H 4.485682 1.693218 -12.661147 0
M  V30 47 H 8.009640 6.989616 -9.495402 0
M  V30 END ATOM
M  V30 BEGIN BOND
M  V30 1 1 2 1
M  V30 2 1 3 2
M  V30 3 2 4 3
M  V30 4 1 5 4
M  V30 5 1 6 5
M  V30 6 1 7 6
M  V30 7 1 8 7
M  V30 8 1 9 8
M  V30 9 1 10 9
M  V30 10 1 11 10
M  V30 11 1 12 11
M  V30 12 1 13 12
M  V30 13 1 14 13
M  V30 14 2 15 14
M  V30 15 1 16 15
M  V30 16 2 17 16
M  V30 17 1 18 17
M  V30 18 1 19 14
M  V30 19 2 19 18
M  V30 20 1 20 12
M  V30 21 1 20 19
M  V30 22 1 21 6
M  V30 23 1 21 9
M  V30 24 2 22 21
M  V30 25 2 23 5
M  V30 26 2 24 2
M  V30 27 1 24 23
M  V30 28 1 25 1
M  V30 29 1 26 1
M  V30 30 1 27 1
M  V30 31 1 28 3
M  V30 32 1 29 4
M  V30 33 1 30 7
M  V30 34 1 31 7
M  V30 35 1 32 8
M  V30 36 1 33 8
M  V30 37 1 34 10
M  V30 38 1 35 10
M  V30 39 1 36 11
M  V30 40 1 37 11
M  V30 41 1 38 13
M  V30 42 1 39 13
M  V30 43 1 40 15
M  V30 44 1 41 16
M  V30 45 1 42 17
M  V30 46 1 43 18
M  V30 47 1 44 20
M  V30 48 1 45 20
M  V30 49 1 46 23
M  V30 50 1 47 12
M  V30 END BOND
M  V30 END CTAB
M  END
>  <b_m_subgroup_collapsed>  (530) 
0

>  <r_i_docking_score>  (530) 
-8.1806391787162909

>  <s_m_subgroup_title>  (530) 
glide-dock_SP_D22_pv

>  <s_m_subgroupid>  (530) 
glide-dock_SP_D22_pv

>  <Molecule ChEMBL ID>  (530) 
CHEMBL564477

>  <Standard Type>  (530) 
Ki

>  <Standard Value>  (530) 
10000.0

>  <label>  (530) 
0

$$$$
CHEMBL5174637
     RDKit          3D

  0  0  0  0  0  0  0  0  0  0999 V3000
M  V30 BEGIN CTAB
M  V30 COUNTS 55 58 0 0 1
M  V30 BEGIN ATOM
M  V30 1 C 9.814902 -0.092444 -15.630293 0
M  V30 2 O 9.352614 1.227655 -15.405840 0
M  V30 3 C 8.139771 1.397340 -14.767634 0
M  V30 4 C 7.262922 0.333482 -14.439968 0
M  V30 5 C 6.044169 0.587227 -13.783968 0
M  V30 6 C 5.685903 1.905771 -13.446872 0
M  V30 7 C 6.542528 2.971469 -13.777850 0
M  V30 8 C 7.770607 2.718316 -14.425494 0
M  V30 9 C 8.717307 3.869718 -14.726802 0
M  V30 10 C 9.988331 3.837104 -13.863584 0
M  V30 11 N 9.684566 3.772962 -12.441887 0
M  V30 12 C 9.431732 4.873223 -11.648419 0
M  V30 13 N 9.445388 6.077441 -12.229815 0
M  V30 14 C 9.336777 7.060690 -11.344225 0
M  V30 15 N 9.274061 8.328350 -11.846733 0
M  V30 16 N 9.287314 6.969526 -10.023329 0
M  V30 17 C 9.210494 5.705215 -9.605707 0
M  V30 18 N 9.108239 5.481505 -8.248624 0
M  V30 19 C 9.332544 6.513122 -7.246078 0
M  V30 20 C 10.826909 6.849048 -7.115954 0
M  V30 21 C 11.071261 8.007874 -6.204976 0
M  V30 22 C 10.958397 9.332420 -6.535479 0
M  V30 23 N 11.285932 10.104589 -5.433696 0
M  V30 24 C 11.622936 9.300797 -4.362987 0
M  V30 25 C 12.021544 9.584290 -3.045492 0
M  V30 26 C 12.297959 8.527109 -2.161357 0
M  V30 27 C 12.155698 7.195171 -2.596057 0
M  V30 28 C 11.749707 6.920874 -3.916340 0
M  V30 29 C 11.481628 7.962063 -4.830729 0
M  V30 30 N 9.286130 4.605116 -10.351697 0
M  V30 31 H 10.796201 -0.055184 -16.102058 0
M  V30 32 H 9.920224 -0.628084 -14.689417 0
M  V30 33 H 9.145006 -0.633118 -16.299704 0
M  V30 34 H 7.503789 -0.689778 -14.680333 0
M  V30 35 H 5.386330 -0.232941 -13.539755 0
M  V30 36 H 4.751250 2.100514 -12.940654 0
M  V30 37 H 6.265764 3.980742 -13.510122 0
M  V30 38 H 8.985730 3.840951 -15.783750 0
M  V30 39 H 8.198655 4.818106 -14.575151 0
M  V30 40 H 10.590435 2.963149 -14.111605 0
M  V30 41 H 10.613433 4.704871 -14.079788 0
M  V30 42 H 9.686203 2.865803 -11.987308 0
M  V30 43 H 8.821268 8.994915 -11.241886 0
M  V30 44 H 9.026138 8.395178 -12.820778 0
M  V30 45 H 9.039770 4.518554 -7.960869 0
M  V30 46 H 8.760241 7.402983 -7.512865 0
M  V30 47 H 8.936960 6.174267 -6.289337 0
M  V30 48 H 11.368920 5.972723 -6.758560 0
M  V30 49 H 11.250699 7.073281 -8.094971 0
M  V30 50 H 10.673271 9.772426 -7.478727 0
M  V30 51 H 11.285680 11.113293 -5.446806 0
M  V30 52 H 12.088221 10.603541 -2.693614 0
M  V30 53 H 12.596894 8.739655 -1.146031 0
M  V30 54 H 12.352310 6.378969 -1.916053 0
M  V30 55 H 11.641570 5.894437 -4.236307 0
M  V30 END ATOM
M  V30 BEGIN BOND
M  V30 1 1 2 1
M  V30 2 1 3 2
M  V30 3 2 4 3
M  V30 4 1 5 4
M  V30 5 2 6 5
M  V30 6 1 7 6
M  V30 7 1 8 3
M  V30 8 2 8 7
M  V30 9 1 9 8
M  V30 10 1 10 9
M  V30 11 1 11 10
M  V30 12 1 12 11
M  V30 13 1 13 12
M  V30 14 2 14 13
M  V30 15 1 15 14
M  V30 16 1 16 14
M  V30 17 2 17 16
M  V30 18 1 18 17
M  V30 19 1 19 18
M  V30 20 1 20 19
M  V30 21 1 21 20
M  V30 22 2 22 21
M  V30 23 1 23 22
M  V30 24 1 24 23
M  V30 25 2 25 24
M  V30 26 1 26 25
M  V30 27 2 27 26
M  V30 28 1 28 27
M  V30 29 1 29 21
M  V30 30 1 29 24
M  V30 31 2 29 28
M  V30 32 2 30 12
M  V30 33 1 30 17
M  V30 34 1 31 1
M  V30 35 1 32 1
M  V30 36 1 33 1
M  V30 37 1 34 4
M  V30 38 1 35 5
M  V30 39 1 36 6
M  V30 40 1 37 7
M  V30 41 1 38 9
M  V30 42 1 39 9
M  V30 43 1 40 10
M  V30 44 1 41 10
M  V30 45 1 42 11
M  V30 46 1 43 15
M  V30 47 1 44 15
M  V30 48 1 45 18
M  V30 49 1 46 19
M  V30 50 1 47 19
M  V30 51 1 48 20
M  V30 52 1 49 20
M  V30 53 1 50 22
M  V30 54 1 51 23
M  V30 55 1 52 25
M  V30 56 1 53 26
M  V30 57 1 54 27
M  V30 58 1 55 28
M  V30 END BOND
M  V30 END CTAB
M  END
>  <b_m_subgroup_collapsed>  (531) 
0

>  <r_i_docking_score>  (531) 
-8.1793454734765998

>  <s_m_subgroup_title>  (531) 
glide-dock_SP_D22_pv

>  <s_m_subgroupid>  (531) 
glide-dock_SP_D22_pv

>  <Molecule ChEMBL ID>  (531) 
CHEMBL5174637

>  <Standard Type>  (531) 
Ki

>  <Standard Value>  (531) 
13300.0

>  <label>  (531) 
0

$$$$
CHEMBL4864320
     RDKit          3D

  0  0  0  0  0  0  0  0  0  0999 V3000
M  V30 BEGIN CTAB
M  V30 COUNTS 84 87 0 0 1
M  V30 BEGIN ATOM
M  V30 1 C 14.824279 4.226316 -19.203743 0
M  V30 2 C 14.224500 4.460652 -17.815210 0
M  V30 3 C 12.918644 3.682338 -17.613415 0
M  V30 4 N 12.401634 3.819126 -16.231085 0 CFG=1 CHG=1
M  V30 5 C 11.939913 5.170558 -15.845721 0
M  V30 6 C 11.047754 4.980873 -14.607731 0 CFG=2
M  V30 7 O 11.726409 5.434104 -13.446822 0
M  V30 8 C 11.596590 6.823933 -13.176234 0
M  V30 9 C 10.299704 7.101144 -12.393229 0
M  V30 10 C 10.352989 6.607045 -10.947432 0
M  V30 11 C 9.075453 6.904811 -10.164141 0
M  V30 12 O 9.233935 6.431403 -8.833962 0
M  V30 13 C 9.861605 7.225081 -7.896528 0
M  V30 14 C 10.108587 8.614279 -8.029711 0
M  V30 15 C 10.686370 9.338279 -6.967393 0
M  V30 16 C 11.014799 8.684420 -5.771417 0
M  V30 17 C 10.854974 7.287113 -5.657388 0
M  V30 18 C 10.260742 6.573217 -6.714668 0
M  V30 19 N 11.286289 6.620456 -4.481675 0
M  V30 20 C 12.078089 7.186565 -3.550823 0
M  V30 21 O 12.469641 6.573165 -2.560641 0
M  V30 22 C 12.545477 8.629434 -3.796578 0
M  V30 23 C 11.529577 9.462078 -4.579658 0
M  V30 24 C 10.834107 3.465629 -14.492820 0
M  V30 25 C 11.339767 2.871681 -15.815671 0 CFG=1
M  V30 26 C 10.217529 2.710306 -16.870955 0
M  V30 27 N 9.162827 1.818708 -16.404102 0
M  V30 28 C 7.991193 1.650274 -17.031366 0
M  V30 29 O 7.730299 2.172487 -18.117783 0
M  V30 30 C 6.990224 0.785667 -16.311279 0
M  V30 31 C 6.282836 -0.230217 -17.010313 0
M  V30 32 O 6.564087 -0.512067 -18.320232 0
M  V30 33 C 5.285389 -0.985564 -16.349676 0
M  V30 34 C 4.516255 -2.080718 -17.070597 0
M  V30 35 C 5.286086 -3.408317 -17.096701 0
M  V30 36 C 4.999110 -0.733349 -14.998317 0
M  V30 37 C 5.692379 0.266704 -14.297166 0
M  V30 38 Cl 5.289491 0.575222 -12.646909 0
M  V30 39 C 6.690626 1.029131 -14.944861 0
M  V30 40 O 7.350868 2.015119 -14.249281 0
M  V30 41 C 6.617960 3.225144 -14.124426 0
M  V30 42 H 15.748464 4.786090 -19.327879 0
M  V30 43 H 15.042621 3.172157 -19.369343 0
M  V30 44 H 14.137359 4.548985 -19.985260 0
M  V30 45 H 14.048668 5.527407 -17.684320 0
M  V30 46 H 14.946779 4.173428 -17.048086 0
M  V30 47 H 13.101089 2.625003 -17.806875 0
M  V30 48 H 12.171095 4.017905 -18.333750 0
M  V30 49 H 11.349285 5.606146 -16.654303 0
M  V30 50 H 12.781662 5.837925 -15.652785 0
M  V30 51 H 10.088304 5.480556 -14.744313 0
M  V30 52 H 12.452502 7.136024 -12.579026 0
M  V30 53 H 11.647147 7.405262 -14.096867 0
M  V30 54 H 10.098592 8.171703 -12.382697 0
M  V30 55 H 9.447311 6.640309 -12.890546 0
M  V30 56 H 10.484559 5.530319 -10.938907 0
M  V30 57 H 11.211459 7.046014 -10.441017 0
M  V30 58 H 8.790588 7.952284 -10.230054 0
M  V30 59 H 8.250728 6.347864 -10.608158 0
M  V30 60 H 9.841557 9.161572 -8.915483 0
M  V30 61 H 10.875472 10.396301 -7.044197 0
M  V30 62 H 10.089377 5.519691 -6.646941 0
M  V30 63 H 11.022998 5.651846 -4.361063 0
M  V30 64 H 12.822192 9.119039 -2.862046 0
M  V30 65 H 13.430074 8.571323 -4.422830 0
M  V30 66 H 11.993038 10.378307 -4.939769 0
M  V30 67 H 10.690859 9.749843 -3.943066 0
M  V30 68 H 9.799335 3.215528 -14.256199 0
M  V30 69 H 11.439747 3.072083 -13.676404 0
M  V30 70 H 11.789393 1.895087 -15.634862 0
M  V30 71 H 10.612047 2.293403 -17.797367 0
M  V30 72 H 9.784234 3.681713 -17.119293 0
M  V30 73 H 9.278412 1.367852 -15.505047 0
M  V30 74 H 6.050019 -1.230663 -18.657921 0
M  V30 75 H 3.553427 -2.222547 -16.576221 0
M  V30 76 H 4.275659 -1.762154 -18.086327 0
M  V30 77 H 4.719342 -4.174270 -17.624336 0
M  V30 78 H 6.251586 -3.305111 -17.590153 0
M  V30 79 H 5.465927 -3.771462 -16.085331 0
M  V30 80 H 4.238773 -1.305239 -14.490857 0
M  V30 81 H 7.299372 4.048987 -13.912584 0
M  V30 82 H 6.085371 3.456942 -15.045546 0
M  V30 83 H 5.896677 3.176599 -13.310301 0
M  V30 84 H 13.180667 3.615266 -15.619456 0
M  V30 END ATOM
M  V30 BEGIN BOND
M  V30 1 1 2 1
M  V30 2 1 3 2
M  V30 3 1 4 3
M  V30 4 1 5 4
M  V30 5 1 6 5
M  V30 6 1 7 6
M  V30 7 1 8 7
M  V30 8 1 9 8
M  V30 9 1 10 9
M  V30 10 1 11 10
M  V30 11 1 12 11
M  V30 12 1 13 12
M  V30 13 1 14 13
M  V30 14 2 15 14
M  V30 15 1 16 15
M  V30 16 2 17 16
M  V30 17 2 18 13
M  V30 18 1 18 17
M  V30 19 1 19 17
M  V30 20 1 20 19
M  V30 21 2 21 20
M  V30 22 1 22 20
M  V30 23 1 23 16
M  V30 24 1 23 22
M  V30 25 1 24 6
M  V30 26 1 25 4
M  V30 27 1 25 24
M  V30 28 1 26 25
M  V30 29 1 27 26
M  V30 30 1 28 27
M  V30 31 2 29 28
M  V30 32 1 30 28
M  V30 33 1 31 30
M  V30 34 1 32 31
M  V30 35 2 33 31
M  V30 36 1 34 33
M  V30 37 1 35 34
M  V30 38 1 36 33
M  V30 39 2 37 36
M  V30 40 1 38 37
M  V30 41 2 39 30
M  V30 42 1 39 37
M  V30 43 1 40 39
M  V30 44 1 41 40
M  V30 45 1 42 1
M  V30 46 1 43 1
M  V30 47 1 44 1
M  V30 48 1 45 2
M  V30 49 1 46 2
M  V30 50 1 47 3
M  V30 51 1 48 3
M  V30 52 1 49 5
M  V30 53 1 50 5
M  V30 54 1 6 51 CFG=3
M  V30 55 1 52 8
M  V30 56 1 53 8
M  V30 57 1 54 9
M  V30 58 1 55 9
M  V30 59 1 56 10
M  V30 60 1 57 10
M  V30 61 1 58 11
M  V30 62 1 59 11
M  V30 63 1 60 14
M  V30 64 1 61 15
M  V30 65 1 62 18
M  V30 66 1 63 19
M  V30 67 1 64 22
M  V30 68 1 65 22
M  V30 69 1 66 23
M  V30 70 1 67 23
M  V30 71 1 68 24
M  V30 72 1 69 24
M  V30 73 1 25 70 CFG=1
M  V30 74 1 71 26
M  V30 75 1 72 26
M  V30 76 1 73 27
M  V30 77 1 74 32
M  V30 78 1 75 34
M  V30 79 1 76 34
M  V30 80 1 77 35
M  V30 81 1 78 35
M  V30 82 1 79 35
M  V30 83 1 80 36
M  V30 84 1 81 41
M  V30 85 1 82 41
M  V30 86 1 83 41
M  V30 87 1 4 84 CFG=1
M  V30 END BOND
M  V30 END CTAB
M  END
>  <b_m_subgroup_collapsed>  (532) 
0

>  <r_i_docking_score>  (532) 
-8.1786088832331796

>  <s_m_subgroup_title>  (532) 
glide-dock_SP_D22_pv

>  <s_m_subgroupid>  (532) 
glide-dock_SP_D22_pv

>  <Molecule ChEMBL ID>  (532) 
CHEMBL4864320

>  <Standard Type>  (532) 
Ki

>  <Standard Value>  (532) 
2.57

>  <label>  (532) 
1

$$$$
CHEMBL78241
     RDKit          3D

  0  0  0  0  0  0  0  0  0  0999 V3000
M  V30 BEGIN CTAB
M  V30 COUNTS 53 57 0 0 1
M  V30 BEGIN ATOM
M  V30 1 C 11.871316 8.224298 -3.046115 0
M  V30 2 C 11.688220 6.953372 -3.619068 0
M  V30 3 C 11.343444 6.833203 -4.980933 0
M  V30 4 C 11.197612 7.974926 -5.798272 0
M  V30 5 C 10.899838 7.856361 -7.240709 0
M  V30 6 C 11.556890 8.702813 -8.156206 0
M  V30 7 C 11.222164 8.700581 -9.520755 0
M  V30 8 C 10.244215 7.814139 -9.999770 0
M  V30 9 C 9.651445 6.872422 -9.127333 0
M  V30 10 C 8.632027 5.835881 -9.604860 0
M  V30 11 N 8.486108 5.675738 -11.080888 0 CHG=1
M  V30 12 C 9.685137 5.077832 -11.712742 0
M  V30 13 C 9.556395 4.831055 -13.222713 0
M  V30 14 N 8.306954 4.151556 -13.538801 0
M  V30 15 C 8.267437 2.979811 -14.337620 0
M  V30 16 C 7.186357 2.059175 -14.246984 0
M  V30 17 C 7.153399 0.870703 -15.014440 0
M  V30 18 C 8.197452 0.568217 -15.910796 0
M  V30 19 C 9.255067 1.481677 -16.010649 0
M  V30 20 C 9.290299 2.645686 -15.263801 0
M  V30 21 O 10.414642 3.336675 -15.601620 0
M  V30 22 C 11.095459 2.559383 -16.551306 0
M  V30 23 O 10.351773 1.400702 -16.805769 0
M  V30 24 C 7.110586 4.765514 -12.973299 0
M  V30 25 C 7.260714 4.933758 -11.448920 0
M  V30 26 C 9.970162 6.919547 -7.749993 0
M  V30 27 C 11.361220 9.246896 -5.200080 0
M  V30 28 C 11.688909 9.372478 -3.836293 0
M  V30 29 H 12.129354 8.322080 -2.001178 0
M  V30 30 H 11.812285 6.066558 -3.013885 0
M  V30 31 H 11.224269 5.847566 -5.404152 0
M  V30 32 H 12.323186 9.372407 -7.800710 0
M  V30 33 H 11.713562 9.387354 -10.196367 0
M  V30 34 H 9.980123 7.863332 -11.045541 0
M  V30 35 H 8.860104 4.868654 -9.152078 0
M  V30 36 H 7.685906 6.151631 -9.179159 0
M  V30 37 H 10.489829 5.772743 -11.564676 0
M  V30 38 H 9.938340 4.143723 -11.208733 0
M  V30 39 H 9.589152 5.772652 -13.770108 0
M  V30 40 H 10.432066 4.259090 -13.517861 0
M  V30 41 H 6.374094 2.216176 -13.554656 0
M  V30 42 H 6.326234 0.181904 -14.908672 0
M  V30 43 H 8.183659 -0.337238 -16.501040 0
M  V30 44 H 11.210537 3.130664 -17.473331 0
M  V30 45 H 12.080687 2.289547 -16.168472 0
M  V30 46 H 6.997287 5.745261 -13.440999 0
M  V30 47 H 6.193791 4.230256 -13.207479 0
M  V30 48 H 7.274466 3.953934 -10.968286 0
M  V30 49 H 6.397199 5.478665 -11.068072 0
M  V30 50 H 9.472838 6.243018 -7.070024 0
M  V30 51 H 11.233239 10.141754 -5.790561 0
M  V30 52 H 11.799864 10.350574 -3.391740 0
M  V30 53 H 8.353004 6.606906 -11.450419 0
M  V30 END ATOM
M  V30 BEGIN BOND
M  V30 1 2 2 1
M  V30 2 1 3 2
M  V30 3 2 4 3
M  V30 4 1 5 4
M  V30 5 2 6 5
M  V30 6 1 7 6
M  V30 7 2 8 7
M  V30 8 1 9 8
M  V30 9 1 10 9
M  V30 10 1 11 10
M  V30 11 1 12 11
M  V30 12 1 13 12
M  V30 13 1 14 13
M  V30 14 1 15 14
M  V30 15 2 16 15
M  V30 16 1 17 16
M  V30 17 2 18 17
M  V30 18 1 19 18
M  V30 19 1 20 15
M  V30 20 2 20 19
M  V30 21 1 21 20
M  V30 22 1 22 21
M  V30 23 1 23 19
M  V30 24 1 23 22
M  V30 25 1 24 14
M  V30 26 1 25 11
M  V30 27 1 25 24
M  V30 28 1 26 5
M  V30 29 2 26 9
M  V30 30 1 27 4
M  V30 31 1 28 1
M  V30 32 2 28 27
M  V30 33 1 29 1
M  V30 34 1 30 2
M  V30 35 1 31 3
M  V30 36 1 32 6
M  V30 37 1 33 7
M  V30 38 1 34 8
M  V30 39 1 35 10
M  V30 40 1 36 10
M  V30 41 1 37 12
M  V30 42 1 38 12
M  V30 43 1 39 13
M  V30 44 1 40 13
M  V30 45 1 41 16
M  V30 46 1 42 17
M  V30 47 1 43 18
M  V30 48 1 44 22
M  V30 49 1 45 22
M  V30 50 1 46 24
M  V30 51 1 47 24
M  V30 52 1 48 25
M  V30 53 1 49 25
M  V30 54 1 50 26
M  V30 55 1 51 27
M  V30 56 1 52 28
M  V30 57 1 53 11
M  V30 END BOND
M  V30 END CTAB
M  END
>  <b_m_subgroup_collapsed>  (533) 
0

>  <r_i_docking_score>  (533) 
-8.1779275141816203

>  <s_m_subgroup_title>  (533) 
glide-dock_SP_D22_pv

>  <s_m_subgroupid>  (533) 
glide-dock_SP_D22_pv

>  <Molecule ChEMBL ID>  (533) 
CHEMBL78241

>  <Standard Type>  (533) 
Ki

>  <Standard Value>  (533) 
10.0

>  <label>  (533) 
1

$$$$
CHEMBL1774543
     RDKit          3D

  0  0  0  0  0  0  0  0  0  0999 V3000
M  V30 BEGIN CTAB
M  V30 COUNTS 70 73 0 0 1
M  V30 BEGIN ATOM
M  V30 1 C 7.971499 4.407959 -10.971870 0
M  V30 2 C 9.202286 4.671339 -10.100215 0
M  V30 3 C 8.862546 5.326096 -8.739212 0
M  V30 4 N 9.651318 6.550854 -8.428262 0 CFG=1 CHG=1
M  V30 5 C 9.475775 7.554352 -9.515679 0
M  V30 6 C 10.706578 7.606088 -10.446509 0
M  V30 7 C 10.287296 7.802752 -11.914536 0
M  V30 8 C 11.349527 7.363985 -12.945410 0
M  V30 9 N 11.328191 5.934709 -13.270732 0
M  V30 10 C 10.081132 5.376305 -13.827506 0
M  V30 11 C 10.206128 3.850867 -14.004154 0
M  V30 12 N 11.355123 3.549979 -14.848516 0
M  V30 13 C 11.299111 2.671722 -15.951472 0
M  V30 14 C 12.049062 2.983086 -17.110605 0
M  V30 15 C 12.029630 2.144238 -18.238729 0
M  V30 16 C 11.251844 0.975515 -18.224335 0
M  V30 17 C 10.498230 0.650156 -17.081554 0
M  V30 18 C 10.512515 1.486187 -15.933769 0
M  V30 19 O 9.817358 1.173369 -14.784159 0
M  V30 20 C 8.826347 0.164399 -14.850819 0
M  V30 21 C 12.592299 4.204295 -14.443876 0
M  V30 22 C 12.363190 5.711120 -14.282436 0
M  V30 23 C 9.317733 7.051590 -7.061618 0
M  V30 24 C 10.289424 8.041711 -6.448283 0
M  V30 25 C 10.446238 9.329926 -6.893124 0
M  V30 26 S 11.337856 10.379147 -5.846461 0
M  V30 27 C 11.655762 9.060771 -4.750927 0
M  V30 28 C 12.333745 9.133386 -3.520628 0
M  V30 29 C 12.482020 7.980174 -2.736245 0
M  V30 30 C 11.977906 6.756873 -3.202929 0
M  V30 31 C 11.286864 6.700783 -4.430213 0
M  V30 32 C 11.078842 7.841861 -5.238377 0
M  V30 33 H 8.243683 3.903481 -11.897839 0
M  V30 34 H 7.263496 3.771748 -10.453653 0
M  V30 35 H 7.460433 5.335839 -11.233336 0
M  V30 36 H 9.872340 5.245518 -10.720023 0
M  V30 37 H 9.768871 3.769588 -9.912497 0
M  V30 38 H 8.995006 4.581488 -7.953776 0
M  V30 39 H 7.808224 5.601496 -8.707059 0
M  V30 40 H 8.582141 7.296202 -10.084264 0
M  V30 41 H 9.223537 8.545344 -9.159514 0
M  V30 42 H 11.380453 8.406467 -10.135660 0
M  V30 43 H 11.297117 6.691381 -10.356071 0
M  V30 44 H 9.330138 7.332808 -12.124508 0
M  V30 45 H 10.083488 8.862417 -12.030707 0
M  V30 46 H 11.283519 7.945612 -13.863187 0
M  V30 47 H 12.333021 7.610649 -12.540720 0
M  V30 48 H 9.222420 5.579808 -13.193645 0
M  V30 49 H 9.861907 5.789362 -14.809619 0
M  V30 50 H 10.326373 3.354871 -13.039910 0
M  V30 51 H 9.284712 3.479571 -14.453156 0
M  V30 52 H 12.638939 3.886676 -17.155474 0
M  V30 53 H 12.609627 2.402143 -19.113619 0
M  V30 54 H 11.233704 0.326298 -19.087551 0
M  V30 55 H 9.925231 -0.263211 -17.108662 0
M  V30 56 H 8.303947 0.105919 -13.896255 0
M  V30 57 H 8.085467 0.381675 -15.620337 0
M  V30 58 H 9.279487 -0.804801 -15.049752 0
M  V30 59 H 12.885674 3.785811 -13.482485 0
M  V30 60 H 13.407304 4.021630 -15.140644 0
M  V30 61 H 12.080075 6.158098 -15.237120 0
M  V30 62 H 13.285146 6.196145 -13.978742 0
M  V30 63 H 9.235067 6.191908 -6.394173 0
M  V30 64 H 8.315625 7.484374 -7.080947 0
M  V30 65 H 9.979566 9.770461 -7.753596 0
M  V30 66 H 12.720714 10.077391 -3.164761 0
M  V30 67 H 12.971511 8.042926 -1.776093 0
M  V30 68 H 12.085203 5.863707 -2.604008 0
M  V30 69 H 10.856790 5.766321 -4.739215 0
M  V30 70 H 10.625302 6.287193 -8.410393 0
M  V30 END ATOM
M  V30 BEGIN BOND
M  V30 1 1 2 1
M  V30 2 1 3 2
M  V30 3 1 4 3
M  V30 4 1 5 4
M  V30 5 1 6 5
M  V30 6 1 7 6
M  V30 7 1 8 7
M  V30 8 1 9 8
M  V30 9 1 10 9
M  V30 10 1 11 10
M  V30 11 1 12 11
M  V30 12 1 13 12
M  V30 13 2 14 13
M  V30 14 1 15 14
M  V30 15 2 16 15
M  V30 16 1 17 16
M  V30 17 1 18 13
M  V30 18 2 18 17
M  V30 19 1 19 18
M  V30 20 1 20 19
M  V30 21 1 21 12
M  V30 22 1 22 9
M  V30 23 1 22 21
M  V30 24 1 23 4
M  V30 25 1 24 23
M  V30 26 2 25 24
M  V30 27 1 26 25
M  V30 28 1 27 26
M  V30 29 2 28 27
M  V30 30 1 29 28
M  V30 31 2 30 29
M  V30 32 1 31 30
M  V30 33 1 32 24
M  V30 34 1 32 27
M  V30 35 2 32 31
M  V30 36 1 33 1
M  V30 37 1 34 1
M  V30 38 1 35 1
M  V30 39 1 36 2
M  V30 40 1 37 2
M  V30 41 1 38 3
M  V30 42 1 39 3
M  V30 43 1 40 5
M  V30 44 1 41 5
M  V30 45 1 42 6
M  V30 46 1 43 6
M  V30 47 1 44 7
M  V30 48 1 45 7
M  V30 49 1 46 8
M  V30 50 1 47 8
M  V30 51 1 48 10
M  V30 52 1 49 10
M  V30 53 1 50 11
M  V30 54 1 51 11
M  V30 55 1 52 14
M  V30 56 1 53 15
M  V30 57 1 54 16
M  V30 58 1 55 17
M  V30 59 1 56 20
M  V30 60 1 57 20
M  V30 61 1 58 20
M  V30 62 1 59 21
M  V30 63 1 60 21
M  V30 64 1 61 22
M  V30 65 1 62 22
M  V30 66 1 63 23
M  V30 67 1 64 23
M  V30 68 1 65 25
M  V30 69 1 66 28
M  V30 70 1 67 29
M  V30 71 1 68 30
M  V30 72 1 69 31
M  V30 73 1 4 70 CFG=1
M  V30 END BOND
M  V30 END CTAB
M  END
>  <b_m_subgroup_collapsed>  (534) 
0

>  <r_i_docking_score>  (534) 
-8.1752263659964708

>  <s_m_subgroup_title>  (534) 
glide-dock_SP_D22_pv

>  <s_m_subgroupid>  (534) 
glide-dock_SP_D22_pv

>  <Molecule ChEMBL ID>  (534) 
CHEMBL1774543

>  <Standard Type>  (534) 
Ki

>  <Standard Value>  (534) 
69.9

>  <label>  (534) 
1

$$$$
CHEMBL516334
     RDKit          3D

  0  0  0  0  0  0  0  0  0  0999 V3000
M  V30 BEGIN CTAB
M  V30 COUNTS 74 77 0 0 1
M  V30 BEGIN ATOM
M  V30 1 C 13.278316 7.370543 -15.389729 0
M  V30 2 O 12.093189 6.680552 -15.024499 0
M  V30 3 C 11.890941 5.422492 -15.550075 0
M  V30 4 C 12.847850 4.707936 -16.313051 0
M  V30 5 C 12.543561 3.429228 -16.821150 0
M  V30 6 C 11.287107 2.846719 -16.574593 0
M  V30 7 C 10.328626 3.549125 -15.818303 0
M  V30 8 C 8.951097 2.961030 -15.590999 0
M  V30 9 C 8.908243 1.876505 -14.509466 0
M  V30 10 C 7.506725 1.315772 -14.305463 0
M  V30 11 C 7.245130 -0.025352 -14.646786 0
M  V30 12 C 5.983332 -0.598741 -14.408744 0
M  V30 13 C 4.972863 0.172059 -13.808290 0
M  V30 14 C 5.230148 1.507781 -13.446848 0
M  V30 15 C 6.483939 2.104000 -13.725326 0
M  V30 16 O 6.761010 3.420460 -13.424636 0
M  V30 17 C 6.086091 4.012854 -12.321760 0
M  V30 18 C 6.771653 5.347854 -11.985508 0
M  V30 19 C 8.291812 5.194339 -11.809689 0
M  V30 20 C 8.998491 6.471666 -11.320194 0
M  V30 21 N 8.886190 6.700671 -9.856665 0 CHG=1
M  V30 22 C 9.190663 8.113551 -9.502514 0
M  V30 23 C 9.110033 8.363713 -7.984015 0
M  V30 24 N 9.936784 7.396337 -7.275578 0
M  V30 25 C 10.786932 7.771961 -6.211679 0
M  V30 26 C 10.887198 6.979788 -5.046672 0
M  V30 27 C 11.686190 7.378607 -3.955712 0
M  V30 28 C 12.379136 8.600650 -4.003727 0
M  V30 29 C 12.340175 9.372084 -5.179502 0
M  V30 30 C 11.582725 8.943031 -6.286728 0
M  V30 31 O 11.684932 9.651773 -7.446740 0
M  V30 32 C 12.410144 8.971002 -8.463622 0
M  V30 33 C 9.624179 6.007016 -7.542236 0
M  V30 34 C 9.674723 5.724218 -9.052814 0
M  V30 35 C 10.638065 4.826613 -15.306312 0
M  V30 36 H 13.278307 8.356801 -14.924814 0
M  V30 37 H 14.167176 6.839765 -15.046396 0
M  V30 38 H 13.341341 7.514967 -16.469412 0
M  V30 39 H 13.823570 5.118005 -16.519852 0
M  V30 40 H 13.282845 2.890725 -17.394484 0
M  V30 41 H 11.060203 1.867503 -16.974031 0
M  V30 42 H 8.556286 2.582233 -16.534769 0
M  V30 43 H 8.304309 3.771707 -15.279589 0
M  V30 44 H 9.263969 2.282471 -13.559773 0
M  V30 45 H 9.593341 1.068043 -14.769998 0
M  V30 46 H 8.024300 -0.627008 -15.088141 0
M  V30 47 H 5.798047 -1.628823 -14.682021 0
M  V30 48 H 3.997736 -0.258154 -13.628584 0
M  V30 49 H 4.432116 2.076374 -12.996315 0
M  V30 50 H 6.123451 3.350518 -11.455086 0
M  V30 51 H 5.038136 4.190632 -12.561287 0
M  V30 52 H 6.330904 5.762239 -11.078475 0
M  V30 53 H 6.568710 6.071133 -12.775349 0
M  V30 54 H 8.711604 4.934676 -12.781496 0
M  V30 55 H 8.510715 4.337837 -11.175749 0
M  V30 56 H 8.592777 7.329131 -11.862082 0
M  V30 57 H 10.057051 6.425321 -11.584987 0
M  V30 58 H 8.501285 8.785266 -10.016595 0
M  V30 59 H 10.179621 8.356405 -9.879345 0
M  V30 60 H 8.086828 8.233794 -7.636390 0
M  V30 61 H 9.367004 9.393344 -7.747302 0
M  V30 62 H 10.305978 6.079992 -4.947829 0
M  V30 63 H 11.725882 6.766735 -3.065077 0
M  V30 64 H 12.960307 8.927672 -3.155853 0
M  V30 65 H 12.942542 10.260982 -5.264242 0
M  V30 66 H 12.114780 9.372663 -9.433361 0
M  V30 67 H 13.484165 9.099646 -8.318765 0
M  V30 68 H 12.227271 7.898207 -8.496224 0
M  V30 69 H 10.351743 5.372370 -7.047761 0
M  V30 70 H 8.638368 5.773273 -7.136810 0
M  V30 71 H 9.335999 4.703092 -9.223742 0
M  V30 72 H 10.713018 5.774750 -9.381805 0
M  V30 73 H 9.901665 5.374423 -14.736885 0
M  V30 74 H 7.901542 6.607170 -9.623065 0
M  V30 END ATOM
M  V30 BEGIN BOND
M  V30 1 1 2 1
M  V30 2 1 3 2
M  V30 3 2 4 3
M  V30 4 1 5 4
M  V30 5 2 6 5
M  V30 6 1 7 6
M  V30 7 1 8 7
M  V30 8 1 9 8
M  V30 9 1 10 9
M  V30 10 2 11 10
M  V30 11 1 12 11
M  V30 12 2 13 12
M  V30 13 1 14 13
M  V30 14 1 15 10
M  V30 15 2 15 14
M  V30 16 1 16 15
M  V30 17 1 17 16
M  V30 18 1 18 17
M  V30 19 1 19 18
M  V30 20 1 20 19
M  V30 21 1 21 20
M  V30 22 1 22 21
M  V30 23 1 23 22
M  V30 24 1 24 23
M  V30 25 1 25 24
M  V30 26 2 26 25
M  V30 27 1 27 26
M  V30 28 2 28 27
M  V30 29 1 29 28
M  V30 30 1 30 25
M  V30 31 2 30 29
M  V30 32 1 31 30
M  V30 33 1 32 31
M  V30 34 1 33 24
M  V30 35 1 34 21
M  V30 36 1 34 33
M  V30 37 1 35 3
M  V30 38 2 35 7
M  V30 39 1 36 1
M  V30 40 1 37 1
M  V30 41 1 38 1
M  V30 42 1 39 4
M  V30 43 1 40 5
M  V30 44 1 41 6
M  V30 45 1 42 8
M  V30 46 1 43 8
M  V30 47 1 44 9
M  V30 48 1 45 9
M  V30 49 1 46 11
M  V30 50 1 47 12
M  V30 51 1 48 13
M  V30 52 1 49 14
M  V30 53 1 50 17
M  V30 54 1 51 17
M  V30 55 1 52 18
M  V30 56 1 53 18
M  V30 57 1 54 19
M  V30 58 1 55 19
M  V30 59 1 56 20
M  V30 60 1 57 20
M  V30 61 1 58 22
M  V30 62 1 59 22
M  V30 63 1 60 23
M  V30 64 1 61 23
M  V30 65 1 62 26
M  V30 66 1 63 27
M  V30 67 1 64 28
M  V30 68 1 65 29
M  V30 69 1 66 32
M  V30 70 1 67 32
M  V30 71 1 68 32
M  V30 72 1 69 33
M  V30 73 1 70 33
M  V30 74 1 71 34
M  V30 75 1 72 34
M  V30 76 1 73 35
M  V30 77 1 74 21
M  V30 END BOND
M  V30 END CTAB
M  END
>  <b_m_subgroup_collapsed>  (535) 
0

>  <r_i_docking_score>  (535) 
-8.1748468874951801

>  <s_m_subgroup_title>  (535) 
glide-dock_SP_D22_pv

>  <s_m_subgroupid>  (535) 
glide-dock_SP_D22_pv

>  <Molecule ChEMBL ID>  (535) 
CHEMBL516334

>  <Standard Type>  (535) 
Ki

>  <Standard Value>  (535) 
67000.0

>  <label>  (535) 
0

$$$$
CHEMBL423706
     RDKit          3D

  0  0  0  0  0  0  0  0  0  0999 V3000
M  V30 BEGIN CTAB
M  V30 COUNTS 59 62 0 0 1
M  V30 BEGIN ATOM
M  V30 1 O 7.954378 3.881224 -14.092190 0
M  V30 2 C 6.933213 3.371731 -13.628143 0
M  V30 3 C 6.082669 4.148230 -12.618191 0
M  V30 4 C 6.782208 5.374643 -12.025758 0
M  V30 5 C 7.982514 5.025876 -11.125301 0
M  V30 6 N 8.486088 6.256160 -10.486922 0 CFG=2 CHG=1
M  V30 7 C 9.656013 6.854174 -11.169953 0
M  V30 8 C 9.984599 8.244378 -10.592517 0
M  V30 9 C 10.133639 8.228673 -9.060052 0 CFG=2
M  V30 10 C 11.467372 7.599978 -8.615025 0
M  V30 11 C 11.529429 7.123092 -7.152812 0
M  V30 12 C 11.465077 8.203265 -6.104709 0
M  V30 13 C 11.287390 9.557653 -6.254677 0
M  V30 14 N 11.401107 10.171706 -5.024301 0
M  V30 15 C 11.731245 9.250211 -4.055054 0
M  V30 16 C 12.075968 9.375983 -2.700910 0
M  V30 17 C 12.344559 8.224073 -1.944658 0
M  V30 18 C 12.238665 6.955289 -2.542077 0
M  V30 19 C 11.917608 6.841347 -3.906633 0
M  V30 20 C 11.686070 7.985429 -4.702538 0
M  V30 21 C 8.894520 7.573678 -8.433123 0
M  V30 22 C 8.625585 6.172443 -9.015523 0
M  V30 23 C 6.475007 1.999897 -13.983215 0
M  V30 24 C 7.233219 1.233100 -14.896695 0
M  V30 25 C 6.800916 -0.050049 -15.281097 0
M  V30 26 C 5.608488 -0.583077 -14.758957 0
M  V30 27 F 5.189193 -1.813209 -15.134193 0
M  V30 28 C 4.848232 0.169160 -13.847339 0
M  V30 29 C 5.285445 1.445467 -13.447127 0
M  V30 30 H 5.162866 4.454587 -13.116013 0
M  V30 31 H 5.799582 3.492193 -11.795973 0
M  V30 32 H 7.089114 6.055991 -12.820561 0
M  V30 33 H 6.036700 5.918097 -11.447048 0
M  V30 34 H 7.686099 4.300768 -10.367048 0
M  V30 35 H 8.781987 4.541988 -11.687299 0
M  V30 36 H 10.501377 6.174490 -11.084167 0
M  V30 37 H 9.443616 6.950681 -12.235621 0
M  V30 38 H 10.893497 8.637759 -11.047025 0
M  V30 39 H 9.184007 8.934299 -10.864309 0
M  V30 40 H 10.130854 9.270351 -8.748676 0
M  V30 41 H 11.668518 6.738688 -9.246649 0
M  V30 42 H 12.285227 8.295677 -8.811041 0
M  V30 43 H 10.770879 6.366230 -6.956156 0
M  V30 44 H 12.461350 6.570416 -7.046890 0
M  V30 45 H 11.129157 10.159137 -7.133414 0
M  V30 46 H 11.337457 11.171012 -4.897064 0
M  V30 47 H 12.114742 10.353767 -2.246063 0
M  V30 48 H 12.611316 8.316073 -0.904432 0
M  V30 49 H 12.425047 6.063953 -1.959391 0
M  V30 50 H 11.875725 5.863007 -4.362526 0
M  V30 51 H 8.940722 7.538134 -7.345469 0
M  V30 52 H 8.086074 8.261566 -8.631017 0
M  V30 53 H 7.701255 5.776180 -8.586043 0
M  V30 54 H 9.424358 5.476325 -8.757356 0
M  V30 55 H 8.147691 1.625853 -15.318181 0
M  V30 56 H 7.382707 -0.627367 -15.983591 0
M  V30 57 H 3.922446 -0.232580 -13.463768 0
M  V30 58 H 4.662983 1.993546 -12.757090 0
M  V30 59 H 7.721841 6.929703 -10.584906 0
M  V30 END ATOM
M  V30 BEGIN BOND
M  V30 1 2 2 1
M  V30 2 1 3 2
M  V30 3 1 4 3
M  V30 4 1 5 4
M  V30 5 1 6 5
M  V30 6 1 7 6
M  V30 7 1 8 7
M  V30 8 1 9 8
M  V30 9 1 10 9
M  V30 10 1 11 10
M  V30 11 1 12 11
M  V30 12 2 13 12
M  V30 13 1 14 13
M  V30 14 1 15 14
M  V30 15 2 16 15
M  V30 16 1 17 16
M  V30 17 2 18 17
M  V30 18 1 19 18
M  V30 19 1 20 12
M  V30 20 1 20 15
M  V30 21 2 20 19
M  V30 22 1 21 9
M  V30 23 1 22 6
M  V30 24 1 22 21
M  V30 25 1 23 2
M  V30 26 1 24 23
M  V30 27 2 25 24
M  V30 28 1 26 25
M  V30 29 1 27 26
M  V30 30 2 28 26
M  V30 31 2 29 23
M  V30 32 1 29 28
M  V30 33 1 30 3
M  V30 34 1 31 3
M  V30 35 1 32 4
M  V30 36 1 33 4
M  V30 37 1 34 5
M  V30 38 1 35 5
M  V30 39 1 36 7
M  V30 40 1 37 7
M  V30 41 1 38 8
M  V30 42 1 39 8
M  V30 43 1 9 40 CFG=1
M  V30 44 1 41 10
M  V30 45 1 42 10
M  V30 46 1 43 11
M  V30 47 1 44 11
M  V30 48 1 45 13
M  V30 49 1 46 14
M  V30 50 1 47 16
M  V30 51 1 48 17
M  V30 52 1 49 18
M  V30 53 1 50 19
M  V30 54 1 51 21
M  V30 55 1 52 21
M  V30 56 1 53 22
M  V30 57 1 54 22
M  V30 58 1 55 24
M  V30 59 1 56 25
M  V30 60 1 57 28
M  V30 61 1 58 29
M  V30 62 1 6 59 CFG=1
M  V30 END BOND
M  V30 END CTAB
M  END
>  <b_m_subgroup_collapsed>  (536) 
0

>  <r_i_docking_score>  (536) 
-8.1734299303181093

>  <s_m_subgroup_title>  (536) 
glide-dock_SP_D22_pv

>  <s_m_subgroupid>  (536) 
glide-dock_SP_D22_pv

>  <Molecule ChEMBL ID>  (536) 
CHEMBL423706

>  <Standard Type>  (536) 
Ki

>  <Standard Value>  (536) 
40.0

>  <label>  (536) 
1

$$$$
CHEMBL5202417
     RDKit          3D

  0  0  0  0  0  0  0  0  0  0999 V3000
M  V30 BEGIN CTAB
M  V30 COUNTS 77 82 0 0 1
M  V30 BEGIN ATOM
M  V30 1 C 11.808904 11.057919 -6.163187 0
M  V30 2 O 11.244892 9.780767 -6.321940 0
M  V30 3 C 11.467887 8.875447 -5.308591 0
M  V30 4 C 12.193062 9.180626 -4.123614 0
M  V30 5 C 12.464394 8.193656 -3.163136 0
M  V30 6 C 12.020838 6.881216 -3.377738 0
M  V30 7 C 11.285993 6.573959 -4.535755 0
M  V30 8 C 10.973373 7.563320 -5.494308 0
M  V30 9 N 10.181439 7.249111 -6.616950 0
M  V30 10 C 10.389304 6.023227 -7.362257 0
M  V30 11 C 10.446260 6.316196 -8.867188 0
M  V30 12 N 9.286039 7.135742 -9.318878 0 CHG=1
M  V30 13 C 9.280754 7.343222 -10.789871 0
M  V30 14 C 8.913480 6.045754 -11.561448 0
M  V30 15 C 9.816630 5.763559 -12.785532 0
M  V30 16 C 10.356837 4.318167 -12.849184 0
M  V30 17 N 9.497777 3.416663 -13.602455 0
M  V30 18 C 9.535450 3.374061 -15.007722 0
M  V30 19 C 10.305790 4.281250 -15.789209 0
M  V30 20 C 10.287921 4.213626 -17.199322 0
M  V30 21 C 9.482836 3.247213 -17.830498 0
M  V30 22 C 8.743436 2.388533 -16.987463 0
M  V30 23 N 7.851058 1.412749 -17.439835 0
M  V30 24 N 7.313951 0.757573 -16.370958 0 CHG=1
M  V30 25 C 6.366125 -0.119550 -16.444532 0
M  V30 26 C 5.668743 -0.370560 -17.679979 0
M  V30 27 C 4.528729 -1.059615 -17.995049 0
M  V30 28 C 3.643578 -1.827571 -17.057138 0
M  V30 29 C 4.327806 -0.895885 -19.395048 0
M  V30 30 C 5.341436 -0.132879 -19.901112 0
M  V30 31 C 5.601387 0.328411 -21.298429 0
M  V30 32 N 6.177836 0.182613 -18.841299 0
M  V30 33 B 7.511156 1.029231 -18.929884 0 CHG=-1
M  V30 34 F 7.288414 2.167682 -19.656410 0
M  V30 35 F 8.522300 0.280751 -19.471615 0
M  V30 36 B 7.864159 1.330088 -14.987577 0 CHG=-1
M  V30 37 F 6.840953 1.870802 -14.246732 0
M  V30 38 F 8.578822 0.378935 -14.307057 0
M  V30 39 N 8.781692 2.431658 -15.640102 0 CHG=1
M  V30 40 C 9.169441 8.393979 -8.534043 0
M  V30 41 C 9.050207 8.070812 -7.031566 0
M  V30 42 H 11.677252 11.675785 -7.046544 0
M  V30 43 H 11.300479 11.545040 -5.328618 0
M  V30 44 H 12.883404 10.972216 -5.991452 0
M  V30 45 H 12.570724 10.170465 -3.918883 0
M  V30 46 H 13.013249 8.444871 -2.266817 0
M  V30 47 H 12.215037 6.111666 -2.644506 0
M  V30 48 H 10.901058 5.579090 -4.646838 0
M  V30 49 H 9.544654 5.372085 -7.152730 0
M  V30 50 H 11.299627 5.512864 -7.047750 0
M  V30 51 H 10.486025 5.368731 -9.403110 0
M  V30 52 H 11.365015 6.859048 -9.099496 0
M  V30 53 H 10.251636 7.743280 -11.082658 0
M  V30 54 H 8.553577 8.114461 -11.047886 0
M  V30 55 H 7.872350 6.108215 -11.886621 0
M  V30 56 H 8.922683 5.181392 -10.897784 0
M  V30 57 H 10.685253 6.428308 -12.767272 0
M  V30 58 H 9.272470 6.016068 -13.699018 0
M  V30 59 H 10.483345 3.912696 -11.846012 0
M  V30 60 H 11.354516 4.309112 -13.290913 0
M  V30 61 H 9.008354 2.687196 -13.095187 0
M  V30 62 H 10.914065 5.043235 -15.327987 0
M  V30 63 H 10.875281 4.904382 -17.788038 0
M  V30 64 H 9.429661 3.176507 -18.908226 0
M  V30 65 H 6.051509 -0.639944 -15.548013 0
M  V30 66 H 3.147592 -2.627198 -17.605314 0
M  V30 67 H 4.219691 -2.284052 -16.251911 0
M  V30 68 H 2.886810 -1.174609 -16.623869 0
M  V30 69 H 3.516602 -1.303053 -19.979874 0
M  V30 70 H 4.932489 -0.169835 -22.001741 0
M  V30 71 H 5.436720 1.403350 -21.386196 0
M  V30 72 H 6.627819 0.114312 -21.597834 0
M  V30 73 H 10.046435 9.018292 -8.714211 0
M  V30 74 H 8.303105 8.972419 -8.857917 0
M  V30 75 H 8.130261 7.513412 -6.846945 0
M  V30 76 H 8.965590 8.972352 -6.432534 0
M  V30 77 H 8.434612 6.627835 -9.111257 0
M  V30 END ATOM
M  V30 BEGIN BOND
M  V30 1 1 2 1
M  V30 2 1 3 2
M  V30 3 2 4 3
M  V30 4 1 5 4
M  V30 5 2 6 5
M  V30 6 1 7 6
M  V30 7 1 8 3
M  V30 8 2 8 7
M  V30 9 1 9 8
M  V30 10 1 10 9
M  V30 11 1 11 10
M  V30 12 1 12 11
M  V30 13 1 13 12
M  V30 14 1 14 13
M  V30 15 1 15 14
M  V30 16 1 16 15
M  V30 17 1 17 16
M  V30 18 1 18 17
M  V30 19 2 19 18
M  V30 20 1 20 19
M  V30 21 2 21 20
M  V30 22 1 22 21
M  V30 23 1 23 22
M  V30 24 1 24 23
M  V30 25 2 25 24
M  V30 26 1 26 25
M  V30 27 2 27 26
M  V30 28 1 28 27
M  V30 29 1 29 27
M  V30 30 2 30 29
M  V30 31 1 31 30
M  V30 32 1 32 26
M  V30 33 1 32 30
M  V30 34 1 33 23
M  V30 35 1 33 32
M  V30 36 1 34 33
M  V30 37 1 35 33
M  V30 38 1 36 24
M  V30 39 1 37 36
M  V30 40 1 38 36
M  V30 41 1 39 18
M  V30 42 2 39 22
M  V30 43 1 39 36
M  V30 44 1 40 12
M  V30 45 1 41 9
M  V30 46 1 41 40
M  V30 47 1 42 1
M  V30 48 1 43 1
M  V30 49 1 44 1
M  V30 50 1 45 4
M  V30 51 1 46 5
M  V30 52 1 47 6
M  V30 53 1 48 7
M  V30 54 1 49 10
M  V30 55 1 50 10
M  V30 56 1 51 11
M  V30 57 1 52 11
M  V30 58 1 53 13
M  V30 59 1 54 13
M  V30 60 1 55 14
M  V30 61 1 56 14
M  V30 62 1 57 15
M  V30 63 1 58 15
M  V30 64 1 59 16
M  V30 65 1 60 16
M  V30 66 1 61 17
M  V30 67 1 62 19
M  V30 68 1 63 20
M  V30 69 1 64 21
M  V30 70 1 65 25
M  V30 71 1 66 28
M  V30 72 1 67 28
M  V30 73 1 68 28
M  V30 74 1 69 29
M  V30 75 1 70 31
M  V30 76 1 71 31
M  V30 77 1 72 31
M  V30 78 1 73 40
M  V30 79 1 74 40
M  V30 80 1 75 41
M  V30 81 1 76 41
M  V30 82 1 77 12
M  V30 END BOND
M  V30 END CTAB
M  END
>  <b_m_subgroup_collapsed>  (537) 
0

>  <r_i_docking_score>  (537) 
-8.1705302290830399

>  <s_m_subgroup_title>  (537) 
glide-dock_SP_D22_pv

>  <s_m_subgroupid>  (537) 
glide-dock_SP_D22_pv

>  <Molecule ChEMBL ID>  (537) 
CHEMBL5202417

>  <Standard Type>  (537) 
Ki

>  <Standard Value>  (537) 
81.1

>  <label>  (537) 
1

$$$$
CHEMBL353220
     RDKit          3D

  0  0  0  0  0  0  0  0  0  0999 V3000
M  V30 BEGIN CTAB
M  V30 COUNTS 57 60 0 0 1
M  V30 BEGIN ATOM
M  V30 1 C 12.708472 6.131666 -15.414062 0
M  V30 2 O 11.507780 5.546866 -14.926565 0
M  V30 3 C 11.212226 4.242834 -15.277464 0
M  V30 4 C 12.015951 3.491658 -16.175703 0
M  V30 5 C 11.684178 2.164241 -16.506920 0
M  V30 6 C 10.552352 1.561267 -15.932651 0
M  V30 7 Br 10.086095 -0.227586 -16.373711 0
M  V30 8 C 9.749951 2.286924 -15.037155 0
M  V30 9 C 10.053276 3.630172 -14.719782 0
M  V30 10 C 9.135662 4.356445 -13.828876 0
M  V30 11 N 7.807380 4.111713 -13.845274 0 CHG=1
M  V30 12 C 6.806052 4.778608 -12.997828 0
M  V30 13 C 7.301884 6.169520 -12.584252 0
M  V30 14 C 8.738938 6.096208 -12.041278 0 CFG=1
M  V30 15 C 8.849303 5.527763 -10.604265 0
M  V30 16 N 8.886253 6.552006 -9.523815 0 CHG=1
M  V30 17 C 10.126893 7.389000 -9.567393 0
M  V30 18 C 10.313291 8.300525 -8.337927 0
M  V30 19 N 10.143002 7.522752 -7.121575 0
M  V30 20 C 10.886894 7.777162 -5.953890 0
M  V30 21 C 11.055820 6.751298 -4.998439 0
M  V30 22 C 11.759525 6.971040 -3.801308 0
M  V30 23 C 12.342975 8.222902 -3.556650 0
M  V30 24 C 12.224047 9.237254 -4.519841 0
M  V30 25 C 11.492837 9.030267 -5.705905 0
M  V30 26 C 8.863702 6.841652 -7.018023 0
M  V30 27 C 8.681859 5.888726 -8.204436 0
M  V30 28 N 9.571047 5.300464 -12.968033 0
M  V30 29 H 12.812068 7.135320 -15.001206 0
M  V30 30 H 13.587480 5.561440 -15.108366 0
M  V30 31 H 12.695866 6.222423 -16.501638 0
M  V30 32 H 12.901486 3.909445 -16.630964 0
M  V30 33 H 12.304316 1.605496 -17.191563 0
M  V30 34 H 8.890543 1.794264 -14.606022 0
M  V30 35 H 5.858700 4.853069 -13.533723 0
M  V30 36 H 6.625526 4.161254 -12.117029 0
M  V30 37 H 6.615680 6.572284 -11.846869 0
M  V30 38 H 7.285686 6.858506 -13.427261 0
M  V30 39 H 9.147702 7.103298 -12.073508 0
M  V30 40 H 9.730757 4.888854 -10.510584 0
M  V30 41 H 7.998142 4.870762 -10.422470 0
M  V30 42 H 10.147208 8.015899 -10.459382 0
M  V30 43 H 10.992311 6.726357 -9.633747 0
M  V30 44 H 9.580119 9.109147 -8.346427 0
M  V30 45 H 11.302249 8.757667 -8.376639 0
M  V30 46 H 10.640660 5.772797 -5.166105 0
M  V30 47 H 11.859599 6.174179 -3.077698 0
M  V30 48 H 12.893116 8.397527 -2.642859 0
M  V30 49 H 12.714881 10.172311 -4.343196 0
M  V30 50 H 11.405130 9.841352 -6.412660 0
M  V30 51 H 8.756468 6.288753 -6.086774 0
M  V30 52 H 8.085074 7.603127 -7.014982 0
M  V30 53 H 7.686656 5.448539 -8.162717 0
M  V30 54 H 9.393146 5.066714 -8.102542 0
M  V30 55 H 10.551355 5.542519 -13.042463 0
M  V30 56 H 7.461418 3.406318 -14.478789 0
M  V30 57 H 8.070537 7.154699 -9.655403 0
M  V30 END ATOM
M  V30 BEGIN BOND
M  V30 1 1 2 1
M  V30 2 1 3 2
M  V30 3 1 4 3
M  V30 4 2 5 4
M  V30 5 1 6 5
M  V30 6 1 7 6
M  V30 7 2 8 6
M  V30 8 2 9 3
M  V30 9 1 9 8
M  V30 10 1 10 9
M  V30 11 2 11 10
M  V30 12 1 12 11
M  V30 13 1 13 12
M  V30 14 1 14 13
M  V30 15 1 15 14
M  V30 16 1 16 15
M  V30 17 1 17 16
M  V30 18 1 18 17
M  V30 19 1 19 18
M  V30 20 1 20 19
M  V30 21 2 21 20
M  V30 22 1 22 21
M  V30 23 2 23 22
M  V30 24 1 24 23
M  V30 25 1 25 20
M  V30 26 2 25 24
M  V30 27 1 26 19
M  V30 28 1 27 16
M  V30 29 1 27 26
M  V30 30 1 28 10
M  V30 31 1 28 14
M  V30 32 1 29 1
M  V30 33 1 30 1
M  V30 34 1 31 1
M  V30 35 1 32 4
M  V30 36 1 33 5
M  V30 37 1 34 8
M  V30 38 1 35 12
M  V30 39 1 36 12
M  V30 40 1 37 13
M  V30 41 1 38 13
M  V30 42 1 14 39 CFG=1
M  V30 43 1 40 15
M  V30 44 1 41 15
M  V30 45 1 42 17
M  V30 46 1 43 17
M  V30 47 1 44 18
M  V30 48 1 45 18
M  V30 49 1 46 21
M  V30 50 1 47 22
M  V30 51 1 48 23
M  V30 52 1 49 24
M  V30 53 1 50 25
M  V30 54 1 51 26
M  V30 55 1 52 26
M  V30 56 1 53 27
M  V30 57 1 54 27
M  V30 58 1 55 28
M  V30 59 1 56 11
M  V30 60 1 57 16
M  V30 END BOND
M  V30 END CTAB
M  END
>  <b_m_subgroup_collapsed>  (538) 
0

>  <r_i_docking_score>  (538) 
-8.1669768397528308

>  <s_m_subgroup_title>  (538) 
glide-dock_SP_D22_pv

>  <s_m_subgroupid>  (538) 
glide-dock_SP_D22_pv

>  <Molecule ChEMBL ID>  (538) 
CHEMBL353220

>  <Standard Type>  (538) 
Ki

>  <Standard Value>  (538) 
14000.0

>  <label>  (538) 
0

$$$$
CHEMBL311772
     RDKit          3D

  0  0  0  0  0  0  0  0  0  0999 V3000
M  V30 BEGIN CTAB
M  V30 COUNTS 60 63 0 0 1
M  V30 BEGIN ATOM
M  V30 1 O 12.179193 3.369945 -16.307793 0
M  V30 2 C 11.921192 4.482841 -15.849554 0
M  V30 3 N 10.906969 4.717985 -15.009408 0
M  V30 4 C 9.791494 3.819175 -14.738022 0 CFG=1
M  V30 5 C 10.024510 2.969936 -13.481141 0
M  V30 6 C 9.920092 3.812218 -12.204204 0
M  V30 7 C 8.565074 4.540415 -12.108940 0 CFG=1
M  V30 8 C 8.337455 5.275959 -10.776716 0
M  V30 9 C 9.393728 6.347309 -10.453713 0
M  V30 10 N 9.173195 7.046080 -9.166115 0 CHG=1
M  V30 11 C 9.198203 6.119741 -7.996548 0
M  V30 12 C 9.146277 6.867807 -6.661521 0
M  V30 13 N 10.199585 7.867470 -6.631964 0
M  V30 14 C 10.887471 8.095262 -5.428663 0
M  V30 15 C 11.407102 6.997290 -4.699005 0
M  V30 16 C 12.067009 7.190118 -3.468728 0
M  V30 17 C 12.198115 8.486574 -2.941418 0
M  V30 18 C 11.686764 9.585299 -3.657460 0
M  V30 19 C 11.060075 9.397193 -4.905605 0
M  V30 20 C 10.086819 8.879011 -7.667671 0
M  V30 21 C 10.117188 8.198287 -9.044129 0
M  V30 22 C 8.424710 5.465240 -13.317487 0
M  V30 23 C 8.511132 4.661122 -14.615431 0
M  V30 24 C 12.660007 5.692582 -16.260391 0
M  V30 25 C 12.468098 7.013454 -15.933560 0
M  V30 26 C 13.312123 7.898831 -16.659441 0
M  V30 27 C 14.178505 7.237530 -17.491234 0
M  V30 28 S 13.967277 5.507604 -17.404896 0
M  V30 29 H 10.806916 5.658786 -14.666913 0
M  V30 30 H 9.671760 3.149227 -15.592452 0
M  V30 31 H 9.283142 2.171186 -13.447039 0
M  V30 32 H 10.991464 2.470812 -13.538732 0
M  V30 33 H 10.085979 3.189551 -11.327663 0
M  V30 34 H 10.726401 4.541429 -12.246919 0
M  V30 35 H 7.777421 3.788746 -12.177332 0
M  V30 36 H 7.350960 5.745142 -10.788694 0
M  V30 37 H 8.303328 4.519635 -9.994216 0
M  V30 38 H 10.388975 5.905712 -10.438117 0
M  V30 39 H 9.397515 7.095676 -11.246621 0
M  V30 40 H 8.346830 5.440401 -8.031263 0
M  V30 41 H 10.101862 5.508646 -8.033890 0
M  V30 42 H 8.182863 7.371184 -6.568507 0
M  V30 43 H 9.212523 6.172560 -5.826077 0
M  V30 44 H 11.310459 5.992235 -5.079827 0
M  V30 45 H 12.456589 6.341794 -2.924607 0
M  V30 46 H 12.684968 8.643215 -1.988681 0
M  V30 47 H 11.767867 10.572365 -3.232739 0
M  V30 48 H 10.664728 10.258645 -5.422947 0
M  V30 49 H 9.142735 9.406090 -7.534377 0
M  V30 50 H 10.892563 9.609907 -7.596367 0
M  V30 51 H 11.133535 7.841728 -9.225768 0
M  V30 52 H 9.901891 8.935349 -9.819147 0
M  V30 53 H 7.482054 6.010136 -13.274634 0
M  V30 54 H 9.219845 6.203333 -13.310354 0
M  V30 55 H 8.486058 5.360888 -15.447261 0
M  V30 56 H 7.639697 4.005560 -14.646776 0
M  V30 57 H 11.722417 7.381549 -15.243510 0
M  V30 58 H 13.260067 8.973381 -16.548651 0
M  V30 59 H 14.924905 7.661526 -18.147264 0
M  V30 60 H 8.230483 7.426365 -9.207030 0
M  V30 END ATOM
M  V30 BEGIN BOND
M  V30 1 2 2 1
M  V30 2 1 3 2
M  V30 3 1 4 3
M  V30 4 1 5 4
M  V30 5 1 6 5
M  V30 6 1 7 6
M  V30 7 1 8 7
M  V30 8 1 9 8
M  V30 9 1 10 9
M  V30 10 1 11 10
M  V30 11 1 12 11
M  V30 12 1 13 12
M  V30 13 1 14 13
M  V30 14 2 15 14
M  V30 15 1 16 15
M  V30 16 2 17 16
M  V30 17 1 18 17
M  V30 18 1 19 14
M  V30 19 2 19 18
M  V30 20 1 20 13
M  V30 21 1 21 10
M  V30 22 1 21 20
M  V30 23 1 22 7
M  V30 24 1 23 4
M  V30 25 1 23 22
M  V30 26 1 24 2
M  V30 27 2 25 24
M  V30 28 1 26 25
M  V30 29 2 27 26
M  V30 30 1 28 24
M  V30 31 1 28 27
M  V30 32 1 29 3
M  V30 33 1 4 30 CFG=3
M  V30 34 1 31 5
M  V30 35 1 32 5
M  V30 36 1 33 6
M  V30 37 1 34 6
M  V30 38 1 7 35 CFG=3
M  V30 39 1 36 8
M  V30 40 1 37 8
M  V30 41 1 38 9
M  V30 42 1 39 9
M  V30 43 1 40 11
M  V30 44 1 41 11
M  V30 45 1 42 12
M  V30 46 1 43 12
M  V30 47 1 44 15
M  V30 48 1 45 16
M  V30 49 1 46 17
M  V30 50 1 47 18
M  V30 51 1 48 19
M  V30 52 1 49 20
M  V30 53 1 50 20
M  V30 54 1 51 21
M  V30 55 1 52 21
M  V30 56 1 53 22
M  V30 57 1 54 22
M  V30 58 1 55 23
M  V30 59 1 56 23
M  V30 60 1 57 25
M  V30 61 1 58 26
M  V30 62 1 59 27
M  V30 63 1 60 10
M  V30 END BOND
M  V30 END CTAB
M  END
>  <b_m_subgroup_collapsed>  (539) 
0

>  <r_i_docking_score>  (539) 
-8.1652760602092194

>  <s_m_subgroup_title>  (539) 
glide-dock_SP_D22_pv

>  <s_m_subgroupid>  (539) 
glide-dock_SP_D22_pv

>  <Molecule ChEMBL ID>  (539) 
CHEMBL311772

>  <Standard Type>  (539) 
Ki

>  <Standard Value>  (539) 
40.0

>  <label>  (539) 
1

$$$$
CHEMBL134808
     RDKit          3D

  0  0  0  0  0  0  0  0  0  0999 V3000
M  V30 BEGIN CTAB
M  V30 COUNTS 44 47 0 0 1
M  V30 BEGIN ATOM
M  V30 1 O 13.048536 7.772371 -13.342469 0
M  V30 2 C 12.078897 6.817010 -13.300037 0
M  V30 3 C 12.268533 5.557658 -13.905327 0
M  V30 4 C 11.251366 4.585598 -13.846929 0
M  V30 5 C 10.027121 4.886639 -13.215843 0
M  V30 6 C 9.826381 6.165562 -12.646996 0
M  V30 7 C 10.872092 7.103746 -12.646955 0
M  V30 8 O 8.614554 6.559731 -12.136441 0
M  V30 9 C 7.781561 5.543014 -11.604220 0 CFG=2
M  V30 10 C 8.361278 5.055014 -10.255553 0
M  V30 11 N 8.526999 6.142640 -9.243332 0 CFG=1 CHG=1
M  V30 12 C 8.565072 5.581470 -7.875309 0
M  V30 13 C 8.674712 6.666300 -6.799812 0
M  V30 14 C 9.864864 7.555475 -7.045961 0
M  V30 15 C 10.496916 8.199017 -5.968769 0
M  V30 16 C 11.685736 8.918700 -6.164924 0
M  V30 17 C 12.248668 8.972310 -7.450318 0
M  V30 18 C 11.585958 8.389605 -8.546535 0
M  V30 19 C 10.381693 7.684092 -8.347625 0
M  V30 20 C 9.701372 7.020639 -9.533440 0
M  V30 21 C 7.596735 4.430889 -12.655508 0
M  V30 22 C 8.934394 3.840344 -13.135888 0
M  V30 23 H 13.908069 7.390976 -13.476172 0
M  V30 24 H 13.198832 5.328747 -14.404683 0
M  V30 25 H 11.409923 3.613994 -14.292111 0
M  V30 26 H 10.713379 8.073977 -12.202133 0
M  V30 27 H 6.801702 5.988091 -11.438656 0
M  V30 28 H 7.688069 4.291054 -9.869419 0
M  V30 29 H 9.313776 4.542901 -10.395684 0
M  V30 30 H 7.686130 4.972396 -7.689228 0
M  V30 31 H 9.426916 4.917425 -7.820167 0
M  V30 32 H 8.825853 6.172688 -5.845047 0
M  V30 33 H 7.771410 7.267039 -6.697613 0
M  V30 34 H 10.086319 8.099882 -4.984454 0
M  V30 35 H 12.194706 9.374143 -5.327774 0
M  V30 36 H 13.218670 9.420200 -7.590218 0
M  V30 37 H 12.025748 8.456695 -9.531894 0
M  V30 38 H 10.482060 6.435102 -10.018924 0
M  V30 39 H 9.392803 7.813983 -10.213762 0
M  V30 40 H 6.931070 3.648408 -12.291296 0
M  V30 41 H 7.093423 4.876670 -13.514461 0
M  V30 42 H 8.808049 3.353872 -14.104006 0
M  V30 43 H 9.286324 3.073765 -12.444952 0
M  V30 44 H 7.699956 6.737613 -9.293214 0
M  V30 END ATOM
M  V30 BEGIN BOND
M  V30 1 1 2 1
M  V30 2 1 3 2
M  V30 3 2 4 3
M  V30 4 1 5 4
M  V30 5 2 6 5
M  V30 6 2 7 2
M  V30 7 1 7 6
M  V30 8 1 8 6
M  V30 9 1 9 8
M  V30 10 1 10 9
M  V30 11 1 11 10
M  V30 12 1 12 11
M  V30 13 1 13 12
M  V30 14 1 14 13
M  V30 15 2 15 14
M  V30 16 1 16 15
M  V30 17 2 17 16
M  V30 18 1 18 17
M  V30 19 1 19 14
M  V30 20 2 19 18
M  V30 21 1 20 11
M  V30 22 1 20 19
M  V30 23 1 21 9
M  V30 24 1 22 5
M  V30 25 1 22 21
M  V30 26 1 23 1
M  V30 27 1 24 3
M  V30 28 1 25 4
M  V30 29 1 26 7
M  V30 30 1 9 27 CFG=1
M  V30 31 1 28 10
M  V30 32 1 29 10
M  V30 33 1 30 12
M  V30 34 1 31 12
M  V30 35 1 32 13
M  V30 36 1 33 13
M  V30 37 1 34 15
M  V30 38 1 35 16
M  V30 39 1 36 17
M  V30 40 1 37 18
M  V30 41 1 38 20
M  V30 42 1 39 20
M  V30 43 1 40 21
M  V30 44 1 41 21
M  V30 45 1 42 22
M  V30 46 1 43 22
M  V30 47 1 11 44 CFG=1
M  V30 END BOND
M  V30 END CTAB
M  END
>  <b_m_subgroup_collapsed>  (540) 
0

>  <r_i_docking_score>  (540) 
-8.1638184821931805

>  <s_m_subgroup_title>  (540) 
glide-dock_SP_D22_pv

>  <s_m_subgroupid>  (540) 
glide-dock_SP_D22_pv

>  <Molecule ChEMBL ID>  (540) 
CHEMBL134808

>  <Standard Type>  (540) 
Ki

>  <Standard Value>  (540) 
4.3

>  <label>  (540) 
1

$$$$
CHEMBL351300
     RDKit          3D

  0  0  0  0  0  0  0  0  0  0999 V3000
M  V30 BEGIN CTAB
M  V30 COUNTS 59 62 0 0 1
M  V30 BEGIN ATOM
M  V30 1 O 12.267512 4.719914 -17.181671 0
M  V30 2 C 12.031208 3.551619 -16.870049 0
M  V30 3 C 12.530974 2.375100 -17.567953 0
M  V30 4 C 13.357583 2.507108 -18.627029 0
M  V30 5 C 13.921750 1.416789 -19.446171 0
M  V30 6 C 15.006562 1.710114 -20.302668 0
M  V30 7 C 15.599993 0.700669 -21.084606 0
M  V30 8 C 15.117917 -0.619040 -21.014847 0
M  V30 9 F 15.685347 -1.586097 -21.772842 0
M  V30 10 C 14.044641 -0.928843 -20.158680 0
M  V30 11 C 13.449254 0.083867 -19.379021 0
M  V30 12 N 11.249862 3.222759 -15.829413 0
M  V30 13 C 10.531086 4.169783 -14.976046 0 CFG=1
M  V30 14 C 9.385136 3.433959 -14.255750 0
M  V30 15 C 8.634194 4.352523 -13.277830 0
M  V30 16 C 9.589401 4.955016 -12.229547 0 CFG=2
M  V30 17 C 8.841692 5.854379 -11.219719 0
M  V30 18 C 9.574808 5.940969 -9.873334 0
M  V30 19 N 8.886092 6.836176 -8.905714 0 CFG=2 CHG=1
M  V30 20 C 9.425206 8.232227 -8.895167 0
M  V30 21 C 10.172719 8.316645 -7.588999 0
M  V30 22 C 11.054516 9.318230 -7.141486 0
M  V30 23 C 11.625404 9.185954 -5.855732 0
M  V30 24 C 11.334534 8.055322 -5.055419 0
M  V30 25 Br 12.086100 7.900916 -3.314591 0
M  V30 26 C 10.486094 7.037858 -5.542100 0
M  V30 27 C 9.894838 7.212010 -6.805927 0
M  V30 28 C 8.922918 6.308239 -7.508488 0
M  V30 29 C 10.720840 5.719397 -12.945177 0
M  V30 30 C 11.479590 4.836995 -13.957078 0
M  V30 31 H 12.235112 1.391062 -17.232023 0
M  V30 32 H 13.642072 3.504803 -18.937534 0
M  V30 33 H 15.389455 2.718409 -20.367468 0
M  V30 34 H 16.426832 0.937855 -21.739143 0
M  V30 35 H 13.684498 -1.946098 -20.099890 0
M  V30 36 H 12.624763 -0.176501 -18.733953 0
M  V30 37 H 11.114721 2.242200 -15.633177 0
M  V30 38 H 10.093597 4.947469 -15.606243 0
M  V30 39 H 8.685061 3.028442 -14.987260 0
M  V30 40 H 9.782081 2.579147 -13.706316 0
M  V30 41 H 8.131609 5.149469 -13.827875 0
M  V30 42 H 7.850799 3.776317 -12.783073 0
M  V30 43 H 10.027569 4.116952 -11.685470 0
M  V30 44 H 8.683454 6.848636 -11.641208 0
M  V30 45 H 7.844387 5.449948 -11.033531 0
M  V30 46 H 9.626002 4.921548 -9.486154 0
M  V30 47 H 10.610992 6.255323 -10.002513 0
M  V30 48 H 10.064109 8.458908 -9.749121 0
M  V30 49 H 8.600280 8.946407 -8.884347 0
M  V30 50 H 11.285941 10.172060 -7.758622 0
M  V30 51 H 12.292877 9.950846 -5.485087 0
M  V30 52 H 10.259485 6.172300 -4.936689 0
M  V30 53 H 7.943851 6.402431 -7.037387 0
M  V30 54 H 9.233620 5.267266 -7.446028 0
M  V30 55 H 10.286874 6.572297 -13.446845 0
M  V30 56 H 11.421055 6.172324 -12.246805 0
M  V30 57 H 12.040102 4.069438 -13.425875 0
M  V30 58 H 12.221362 5.444878 -14.476278 0
M  V30 59 H 7.909256 6.908042 -9.186422 0
M  V30 END ATOM
M  V30 BEGIN BOND
M  V30 1 2 2 1
M  V30 2 1 3 2
M  V30 3 2 4 3
M  V30 4 1 5 4
M  V30 5 1 6 5
M  V30 6 2 7 6
M  V30 7 1 8 7
M  V30 8 1 9 8
M  V30 9 2 10 8
M  V30 10 2 11 5
M  V30 11 1 11 10
M  V30 12 1 12 2
M  V30 13 1 13 12
M  V30 14 1 14 13
M  V30 15 1 15 14
M  V30 16 1 16 15
M  V30 17 1 17 16
M  V30 18 1 18 17
M  V30 19 1 19 18
M  V30 20 1 20 19
M  V30 21 1 21 20
M  V30 22 1 22 21
M  V30 23 2 23 22
M  V30 24 1 24 23
M  V30 25 1 25 24
M  V30 26 2 26 24
M  V30 27 2 27 21
M  V30 28 1 27 26
M  V30 29 1 28 19
M  V30 30 1 28 27
M  V30 31 1 29 16
M  V30 32 1 30 13
M  V30 33 1 30 29
M  V30 34 1 31 3
M  V30 35 1 32 4
M  V30 36 1 33 6
M  V30 37 1 34 7
M  V30 38 1 35 10
M  V30 39 1 36 11
M  V30 40 1 37 12
M  V30 41 1 13 38 CFG=3
M  V30 42 1 39 14
M  V30 43 1 40 14
M  V30 44 1 41 15
M  V30 45 1 42 15
M  V30 46 1 16 43 CFG=1
M  V30 47 1 44 17
M  V30 48 1 45 17
M  V30 49 1 46 18
M  V30 50 1 47 18
M  V30 51 1 48 20
M  V30 52 1 49 20
M  V30 53 1 50 22
M  V30 54 1 51 23
M  V30 55 1 52 26
M  V30 56 1 53 28
M  V30 57 1 54 28
M  V30 58 1 55 29
M  V30 59 1 56 29
M  V30 60 1 57 30
M  V30 61 1 58 30
M  V30 62 1 19 59 CFG=3
M  V30 END BOND
M  V30 END CTAB
M  END
>  <b_m_subgroup_collapsed>  (541) 
0

>  <r_i_docking_score>  (541) 
-8.1633889822710195

>  <s_m_subgroup_title>  (541) 
glide-dock_SP_D22_pv

>  <s_m_subgroupid>  (541) 
glide-dock_SP_D22_pv

>  <Molecule ChEMBL ID>  (541) 
CHEMBL351300

>  <Standard Type>  (541) 
Ki

>  <Standard Value>  (541) 
100.0

>  <label>  (541) 
1

$$$$
CHEMBL1173711
     RDKit          3D

  0  0  0  0  0  0  0  0  0  0999 V3000
M  V30 BEGIN CTAB
M  V30 COUNTS 53 56 0 0 1
M  V30 BEGIN ATOM
M  V30 1 O 8.886066 8.452875 -10.327461 0
M  V30 2 C 9.643373 7.396628 -9.767085 0 CFG=1
M  V30 3 C 10.149605 7.762559 -8.360262 0
M  V30 4 C 10.856827 8.972440 -8.177390 0
M  V30 5 C 11.360414 9.337664 -6.913196 0
M  V30 6 C 11.177635 8.487598 -5.810015 0
M  V30 7 Br 11.875077 8.975871 -4.107143 0
M  V30 8 C 10.482134 7.276611 -5.973477 0
M  V30 9 C 9.962793 6.921158 -7.234466 0
M  V30 10 C 8.819952 6.086526 -9.803750 0
M  V30 11 C 8.390088 5.682141 -11.222156 0
M  V30 12 N 9.555577 5.508007 -12.129990 0 CFG=1 CHG=1
M  V30 13 C 9.095838 5.097071 -13.492067 0
M  V30 14 C 10.151853 4.466888 -14.373477 0
M  V30 15 C 11.265902 5.098540 -14.875287 0
M  V30 16 N 11.984543 4.220372 -15.658323 0
M  V30 17 C 11.329113 3.015510 -15.761294 0
M  V30 18 C 11.642056 1.853876 -16.485199 0
M  V30 19 C 10.773921 0.754501 -16.430208 0
M  V30 20 C 9.595171 0.837976 -15.670689 0
M  V30 21 C 9.265286 2.017524 -14.952544 0
M  V30 22 O 8.086883 2.132728 -14.246758 0
M  V30 23 C 6.948157 1.412193 -14.716506 0
M  V30 24 C 6.746090 0.055486 -14.017138 0
M  V30 25 F 6.090191 0.191534 -12.865247 0
M  V30 26 C 10.149393 3.136013 -14.961794 0
M  V30 27 C 10.425586 6.724149 -12.130632 0
M  V30 28 C 10.832215 7.228363 -10.725543 0
M  V30 29 H 7.937301 8.250630 -10.246452 0
M  V30 30 H 11.013357 9.635216 -9.016188 0
M  V30 31 H 11.895036 10.266918 -6.786319 0
M  V30 32 H 10.335630 6.618606 -5.128966 0
M  V30 33 H 9.425739 5.988333 -7.306084 0
M  V30 34 H 9.411140 5.266138 -9.394376 0
M  V30 35 H 7.936280 6.171690 -9.170459 0
M  V30 36 H 7.828486 4.748675 -11.162513 0
M  V30 37 H 7.706645 6.425600 -11.636533 0
M  V30 38 H 8.275436 4.391332 -13.370667 0
M  V30 39 H 8.644600 5.952464 -13.993910 0
M  V30 40 H 11.620714 6.111365 -14.755729 0
M  V30 41 H 12.847268 4.465903 -16.124100 0
M  V30 42 H 12.547953 1.801957 -17.071455 0
M  V30 43 H 11.006112 -0.148637 -16.975773 0
M  V30 44 H 8.946469 -0.024440 -15.662271 0
M  V30 45 H 6.082020 2.043924 -14.538921 0
M  V30 46 H 6.988838 1.281810 -15.799387 0
M  V30 47 H 6.139610 -0.608014 -14.633384 0
M  V30 48 H 7.684813 -0.450008 -13.806375 0
M  V30 49 H 11.344751 6.535219 -12.676799 0
M  V30 50 H 9.905923 7.530639 -12.646812 0
M  V30 51 H 11.359324 8.176497 -10.841797 0
M  V30 52 H 11.559491 6.572350 -10.259471 0
M  V30 53 H 10.095037 4.738123 -11.760216 0
M  V30 END ATOM
M  V30 BEGIN BOND
M  V30 1 1 2 1 CFG=3
M  V30 2 1 3 2
M  V30 3 1 4 3
M  V30 4 2 5 4
M  V30 5 1 6 5
M  V30 6 1 7 6
M  V30 7 2 8 6
M  V30 8 2 9 3
M  V30 9 1 9 8
M  V30 10 1 10 2
M  V30 11 1 11 10
M  V30 12 1 12 11
M  V30 13 1 13 12
M  V30 14 1 14 13
M  V30 15 2 15 14
M  V30 16 1 16 15
M  V30 17 1 17 16
M  V30 18 2 18 17
M  V30 19 1 19 18
M  V30 20 2 20 19
M  V30 21 1 21 20
M  V30 22 1 22 21
M  V30 23 1 23 22
M  V30 24 1 24 23
M  V30 25 1 25 24
M  V30 26 1 26 14
M  V30 27 1 26 17
M  V30 28 2 26 21
M  V30 29 1 27 12
M  V30 30 1 28 2
M  V30 31 1 28 27
M  V30 32 1 29 1
M  V30 33 1 30 4
M  V30 34 1 31 5
M  V30 35 1 32 8
M  V30 36 1 33 9
M  V30 37 1 34 10
M  V30 38 1 35 10
M  V30 39 1 36 11
M  V30 40 1 37 11
M  V30 41 1 38 13
M  V30 42 1 39 13
M  V30 43 1 40 15
M  V30 44 1 41 16
M  V30 45 1 42 18
M  V30 46 1 43 19
M  V30 47 1 44 20
M  V30 48 1 45 23
M  V30 49 1 46 23
M  V30 50 1 47 24
M  V30 51 1 48 24
M  V30 52 1 49 27
M  V30 53 1 50 27
M  V30 54 1 51 28
M  V30 55 1 52 28
M  V30 56 1 12 53 CFG=1
M  V30 END BOND
M  V30 END CTAB
M  END
>  <b_m_subgroup_collapsed>  (542) 
0

>  <r_i_docking_score>  (542) 
-8.1605784893254096

>  <s_m_subgroup_title>  (542) 
glide-dock_SP_D22_pv

>  <s_m_subgroupid>  (542) 
glide-dock_SP_D22_pv

>  <Molecule ChEMBL ID>  (542) 
CHEMBL1173711

>  <Standard Type>  (542) 
Ki

>  <Standard Value>  (542) 
27.7

>  <label>  (542) 
1

$$$$
CHEMBL5398291
     RDKit          3D

  0  0  0  0  0  0  0  0  0  0999 V3000
M  V30 BEGIN CTAB
M  V30 COUNTS 56 59 0 0 1
M  V30 BEGIN ATOM
M  V30 1 O 5.286038 1.866115 -12.603200 0
M  V30 2 C 6.045828 2.343035 -13.446802 0
M  V30 3 N 6.132968 3.655349 -13.691216 0
M  V30 4 C 5.557580 4.681897 -12.836927 0
M  V30 5 C 6.638916 5.571845 -12.206002 0
M  V30 6 C 7.808305 4.836387 -11.521280 0
M  V30 7 C 9.010896 5.751631 -11.211519 0
M  V30 8 N 8.886024 6.571735 -9.976142 0 CHG=1
M  V30 9 C 9.881495 7.681554 -9.986425 0
M  V30 10 C 9.937911 8.469704 -8.666089 0
M  V30 11 N 10.096445 7.553072 -7.545876 0
M  V30 12 C 10.663483 7.993086 -6.332867 0
M  V30 13 C 10.759522 9.366056 -6.006143 0
M  V30 14 C 11.281016 9.774179 -4.764716 0
M  V30 15 C 11.757375 8.822183 -3.846297 0
M  V30 16 C 11.696443 7.454403 -4.170332 0
M  V30 17 C 11.152677 7.045644 -5.403305 0
M  V30 18 C 9.025448 6.570162 -7.453923 0
M  V30 19 C 8.952930 5.736360 -8.741875 0
M  V30 20 C 6.934331 1.478994 -14.266725 0
M  V30 21 N 6.692206 0.221516 -14.543667 0
M  V30 22 N 7.791752 -0.227674 -15.184355 0
M  V30 23 C 8.791958 0.711012 -15.323893 0
M  V30 24 C 10.085062 0.666667 -15.874150 0
M  V30 25 C 10.880861 1.825406 -15.847556 0
M  V30 26 C 10.371381 3.008712 -15.279338 0
M  V30 27 C 9.072264 3.038707 -14.730603 0
M  V30 28 C 8.245263 1.884269 -14.731919 0
M  V30 29 H 6.726266 3.955916 -14.448477 0
M  V30 30 H 4.946130 4.249289 -12.043111 0
M  V30 31 H 4.887296 5.287870 -13.446980 0
M  V30 32 H 6.139699 6.172317 -11.453031 0
M  V30 33 H 7.021750 6.255715 -12.963840 0
M  V30 34 H 8.184779 4.060316 -12.181619 0
M  V30 35 H 7.456337 4.293672 -10.646895 0
M  V30 36 H 9.181957 6.403367 -12.069765 0
M  V30 37 H 9.910587 5.139641 -11.129185 0
M  V30 38 H 9.658011 8.363091 -10.808356 0
M  V30 39 H 10.870790 7.264484 -10.182846 0
M  V30 40 H 9.022760 9.049156 -8.530992 0
M  V30 41 H 10.768438 9.175503 -8.707735 0
M  V30 42 H 10.406451 10.126849 -6.682919 0
M  V30 43 H 11.286019 10.824074 -4.514474 0
M  V30 44 H 12.158353 9.139509 -2.894148 0
M  V30 45 H 12.060325 6.715349 -3.471221 0
M  V30 46 H 11.122248 5.991246 -5.630101 0
M  V30 47 H 9.150064 5.904816 -6.603241 0
M  V30 48 H 8.086064 7.097732 -7.289704 0
M  V30 49 H 8.086254 5.079351 -8.682382 0
M  V30 50 H 9.833864 5.093957 -8.789330 0
M  V30 51 H 7.853018 -1.213308 -15.446898 0
M  V30 52 H 10.464116 -0.246385 -16.308064 0
M  V30 53 H 11.879889 1.807397 -16.259724 0
M  V30 54 H 10.983096 3.899212 -15.262856 0
M  V30 55 H 8.721972 3.964916 -14.306684 0
M  V30 56 H 7.961472 7.012072 -9.986260 0
M  V30 END ATOM
M  V30 BEGIN BOND
M  V30 1 2 2 1
M  V30 2 1 3 2
M  V30 3 1 4 3
M  V30 4 1 5 4
M  V30 5 1 6 5
M  V30 6 1 7 6
M  V30 7 1 8 7
M  V30 8 1 9 8
M  V30 9 1 10 9
M  V30 10 1 11 10
M  V30 11 1 12 11
M  V30 12 2 13 12
M  V30 13 1 14 13
M  V30 14 2 15 14
M  V30 15 1 16 15
M  V30 16 1 17 12
M  V30 17 2 17 16
M  V30 18 1 18 11
M  V30 19 1 19 8
M  V30 20 1 19 18
M  V30 21 1 20 2
M  V30 22 2 21 20
M  V30 23 1 22 21
M  V30 24 1 23 22
M  V30 25 2 24 23
M  V30 26 1 25 24
M  V30 27 2 26 25
M  V30 28 1 27 26
M  V30 29 1 28 20
M  V30 30 1 28 23
M  V30 31 2 28 27
M  V30 32 1 29 3
M  V30 33 1 30 4
M  V30 34 1 31 4
M  V30 35 1 32 5
M  V30 36 1 33 5
M  V30 37 1 34 6
M  V30 38 1 35 6
M  V30 39 1 36 7
M  V30 40 1 37 7
M  V30 41 1 38 9
M  V30 42 1 39 9
M  V30 43 1 40 10
M  V30 44 1 41 10
M  V30 45 1 42 13
M  V30 46 1 43 14
M  V30 47 1 44 15
M  V30 48 1 45 16
M  V30 49 1 46 17
M  V30 50 1 47 18
M  V30 51 1 48 18
M  V30 52 1 49 19
M  V30 53 1 50 19
M  V30 54 1 51 22
M  V30 55 1 52 24
M  V30 56 1 53 25
M  V30 57 1 54 26
M  V30 58 1 55 27
M  V30 59 1 56 8
M  V30 END BOND
M  V30 END CTAB
M  END
>  <b_m_subgroup_collapsed>  (543) 
0

>  <r_i_docking_score>  (543) 
-8.1602280397372908

>  <s_m_subgroup_title>  (543) 
glide-dock_SP_D22_pv

>  <s_m_subgroupid>  (543) 
glide-dock_SP_D22_pv

>  <Molecule ChEMBL ID>  (543) 
CHEMBL5398291

>  <Standard Type>  (543) 
Ki

>  <Standard Value>  (543) 
69.7

>  <label>  (543) 
1

$$$$
CHEMBL5882462
     RDKit          3D

  0  0  0  0  0  0  0  0  0  0999 V3000
M  V30 BEGIN CTAB
M  V30 COUNTS 64 68 0 0 1
M  V30 BEGIN ATOM
M  V30 1 C 11.473360 10.191690 -6.263583 0
M  V30 2 N 11.239090 8.780389 -6.524096 0
M  V30 3 C 11.103447 8.143805 -7.710757 0
M  V30 4 S 11.274579 8.979171 -9.252785 0
M  V30 5 C 11.056771 7.640053 -10.436278 0
M  V30 6 C 9.573416 7.335638 -10.629904 0
M  V30 7 C 9.365938 6.037994 -11.404041 0
M  V30 8 N 7.931331 5.712059 -11.481688 0 CFG=1 CHG=1
M  V30 9 C 7.156252 6.451615 -12.491962 0
M  V30 10 C 5.886365 5.624900 -12.578459 0
M  V30 11 C 6.413526 4.214407 -12.582578 0 CFG=1
M  V30 12 C 5.576885 2.953884 -12.628340 0
M  V30 13 C 6.297377 3.407728 -13.864795 0 CFG=2
M  V30 14 C 7.372119 2.572808 -14.486012 0
M  V30 15 C 8.630475 3.118977 -14.815864 0
M  V30 16 C 9.557570 2.366373 -15.563014 0
M  V30 17 C 9.237862 1.057393 -15.984633 0
M  V30 18 C 10.180863 0.280103 -16.888643 0
M  V30 19 F 11.445763 0.662203 -16.706347 0
M  V30 20 F 10.091232 -1.027567 -16.659147 0
M  V30 21 F 9.847392 0.510740 -18.159065 0
M  V30 22 C 8.003143 0.493913 -15.605811 0
M  V30 23 C 7.077990 1.244525 -14.859200 0
M  V30 24 C 7.646684 4.276562 -11.700484 0
M  V30 25 N 10.882452 6.833737 -7.596695 0
M  V30 26 N 10.919889 6.572840 -6.255047 0
M  V30 27 C 11.140659 7.746408 -5.662218 0
M  V30 28 N 11.314297 7.878009 -4.280729 0
M  V30 29 C 11.583711 6.741495 -3.400387 0
M  V30 30 C 12.885441 6.979658 -2.647006 0
M  V30 31 O 12.807095 8.172129 -1.868639 0
M  V30 32 C 12.511150 9.315457 -2.660958 0
M  V30 33 C 11.220841 9.056108 -3.413252 0
M  V30 34 H 10.580057 10.641528 -5.832950 0
M  V30 35 H 12.329231 10.314682 -5.600860 0
M  V30 36 H 11.685647 10.729503 -7.170576 0
M  V30 37 H 11.614964 6.767397 -10.098690 0
M  V30 38 H 11.498527 7.941445 -11.386128 0
M  V30 39 H 9.092000 8.170593 -11.142979 0
M  V30 40 H 9.080985 7.253560 -9.659014 0
M  V30 41 H 9.880265 5.234659 -10.873799 0
M  V30 42 H 9.805058 6.091663 -12.400479 0
M  V30 43 H 7.686203 6.428356 -13.441215 0
M  V30 44 H 6.972927 7.496598 -12.248030 0
M  V30 45 H 5.280206 5.849860 -13.449853 0
M  V30 46 H 5.289164 5.781542 -11.680253 0
M  V30 47 H 4.494068 3.030716 -12.647552 0
M  V30 48 H 5.999096 2.092909 -12.109310 0
M  V30 49 H 5.677951 3.822842 -14.656494 0
M  V30 50 H 8.867150 4.138529 -14.546600 0
M  V30 51 H 10.499912 2.812761 -15.845283 0
M  V30 52 H 7.745324 -0.506606 -15.923116 0
M  V30 53 H 6.114978 0.813669 -14.621267 0
M  V30 54 H 7.443696 3.796955 -10.742045 0
M  V30 55 H 8.486426 3.768727 -12.176547 0
M  V30 56 H 10.775367 6.570441 -2.691124 0
M  V30 57 H 11.675705 5.819833 -3.974824 0
M  V30 58 H 13.098020 6.126558 -2.000570 0
M  V30 59 H 13.689854 7.070105 -3.373565 0
M  V30 60 H 12.386533 10.172839 -2.004018 0
M  V30 61 H 13.286804 9.554461 -3.378348 0
M  V30 62 H 10.868426 9.950896 -3.907807 0
M  V30 63 H 10.487605 8.870085 -2.647547 0
M  V30 64 H 7.505077 5.971595 -10.596959 0
M  V30 END ATOM
M  V30 BEGIN BOND
M  V30 1 1 2 1
M  V30 2 1 3 2
M  V30 3 1 4 3
M  V30 4 1 5 4
M  V30 5 1 6 5
M  V30 6 1 7 6
M  V30 7 1 8 7
M  V30 8 1 9 8
M  V30 9 1 10 9
M  V30 10 1 11 10 CFG=3
M  V30 11 1 12 11
M  V30 12 1 13 11
M  V30 13 1 13 12
M  V30 14 1 14 13
M  V30 15 1 15 14
M  V30 16 2 16 15
M  V30 17 1 17 16
M  V30 18 1 18 17
M  V30 19 1 19 18
M  V30 20 1 20 18
M  V30 21 1 21 18
M  V30 22 2 22 17
M  V30 23 2 23 14
M  V30 24 1 23 22
M  V30 25 1 24 8
M  V30 26 1 24 11
M  V30 27 2 25 3
M  V30 28 1 26 25
M  V30 29 1 27 2
M  V30 30 2 27 26
M  V30 31 1 28 27
M  V30 32 1 29 28
M  V30 33 1 30 29
M  V30 34 1 31 30
M  V30 35 1 32 31
M  V30 36 1 33 28
M  V30 37 1 33 32
M  V30 38 1 34 1
M  V30 39 1 35 1
M  V30 40 1 36 1
M  V30 41 1 37 5
M  V30 42 1 38 5
M  V30 43 1 39 6
M  V30 44 1 40 6
M  V30 45 1 41 7
M  V30 46 1 42 7
M  V30 47 1 43 9
M  V30 48 1 44 9
M  V30 49 1 45 10
M  V30 50 1 46 10
M  V30 51 1 47 12
M  V30 52 1 48 12
M  V30 53 1 13 49 CFG=3
M  V30 54 1 50 15
M  V30 55 1 51 16
M  V30 56 1 52 22
M  V30 57 1 53 23
M  V30 58 1 54 24
M  V30 59 1 55 24
M  V30 60 1 56 29
M  V30 61 1 57 29
M  V30 62 1 58 30
M  V30 63 1 59 30
M  V30 64 1 60 32
M  V30 65 1 61 32
M  V30 66 1 62 33
M  V30 67 1 63 33
M  V30 68 1 8 64 CFG=1
M  V30 END BOND
M  V30 END CTAB
M  END
>  <b_m_subgroup_collapsed>  (544) 
0

>  <r_i_docking_score>  (544) 
-8.1590125299430607

>  <s_m_subgroup_title>  (544) 
glide-dock_SP_D22_pv

>  <s_m_subgroupid>  (544) 
glide-dock_SP_D22_pv

>  <Molecule ChEMBL ID>  (544) 
CHEMBL5882462

>  <Standard Type>  (544) 
Ki

>  <Standard Value>  (544) 
41.7

>  <label>  (544) 
1

$$$$
CHEMBL519228
     RDKit          3D

  0  0  0  0  0  0  0  0  0  0999 V3000
M  V30 BEGIN CTAB
M  V30 COUNTS 68 71 0 0 1
M  V30 BEGIN ATOM
M  V30 1 C 3.474290 -2.139144 -18.430733 0
M  V30 2 O 4.677379 -1.550315 -17.965742 0
M  V30 3 C 4.712766 -1.062470 -16.677700 0
M  V30 4 C 3.608952 -1.040176 -15.791146 0
M  V30 5 C 3.738762 -0.503622 -14.494236 0
M  V30 6 C 4.974280 0.018599 -14.067799 0
M  V30 7 C 6.079719 -0.000428 -14.940951 0
M  V30 8 C 7.409091 0.597981 -14.530393 0
M  V30 9 C 7.542334 2.035420 -15.051197 0
M  V30 10 C 8.921315 2.633720 -14.826474 0
M  V30 11 C 10.004441 2.114959 -15.567952 0
M  V30 12 C 11.285225 2.681595 -15.452932 0
M  V30 13 C 11.490260 3.772391 -14.592353 0
M  V30 14 C 10.418023 4.287816 -13.843361 0
M  V30 15 C 9.117604 3.726085 -13.945024 0
M  V30 16 O 8.030215 4.194339 -13.230438 0
M  V30 17 C 8.078892 5.522887 -12.718112 0
M  V30 18 C 8.748539 5.608654 -11.331779 0
M  V30 19 C 9.456725 6.960508 -11.144011 0
M  V30 20 C 10.169191 7.136437 -9.793495 0
M  V30 21 C 9.229947 7.647278 -8.678822 0
M  V30 22 N 9.924234 8.076200 -7.435915 0 CFG=2 CHG=1
M  V30 23 C 11.021859 9.049294 -7.649979 0
M  V30 24 C 11.358928 9.763509 -6.333658 0
M  V30 25 C 11.590620 8.775209 -5.207764 0
M  V30 26 C 12.285208 9.177416 -4.048018 0
M  V30 27 C 12.484053 8.282272 -2.981998 0
M  V30 28 C 11.984357 6.972697 -3.071273 0
M  V30 29 C 11.286536 6.572345 -4.225959 0
M  V30 30 C 11.089077 7.454978 -5.304646 0
M  V30 31 C 10.348266 6.964124 -6.550202 0
M  V30 32 C 5.941888 -0.539929 -16.233465 0
M  V30 33 H 3.606295 -2.457102 -19.464542 0
M  V30 34 H 3.213559 -3.021499 -17.847059 0
M  V30 35 H 2.649569 -1.428033 -18.414835 0
M  V30 36 H 2.646466 -1.427858 -16.086645 0
M  V30 37 H 2.883986 -0.484831 -13.834255 0
M  V30 38 H 5.070163 0.447271 -13.080193 0
M  V30 39 H 8.203451 -0.032478 -14.928539 0
M  V30 40 H 7.512580 0.570820 -13.446756 0
M  V30 41 H 6.765511 2.660595 -14.609474 0
M  V30 42 H 7.356909 2.052744 -16.126900 0
M  V30 43 H 9.851236 1.285002 -16.240793 0
M  V30 44 H 12.108908 2.279155 -16.025730 0
M  V30 45 H 12.472680 4.211168 -14.503449 0
M  V30 46 H 10.623394 5.119310 -13.190969 0
M  V30 47 H 8.567153 6.173293 -13.444935 0
M  V30 48 H 7.057111 5.898821 -12.643438 0
M  V30 49 H 7.997289 5.452616 -10.557102 0
M  V30 50 H 9.474026 4.804591 -11.213255 0
M  V30 51 H 10.203249 7.065096 -11.931754 0
M  V30 52 H 8.748966 7.775160 -11.301751 0
M  V30 53 H 10.660683 6.208956 -9.498471 0
M  V30 54 H 10.966571 7.859958 -9.965800 0
M  V30 55 H 8.669837 8.507808 -9.048071 0
M  V30 56 H 8.484333 6.888590 -8.438854 0
M  V30 57 H 11.909575 8.527596 -8.012385 0
M  V30 58 H 10.753592 9.772146 -8.418681 0
M  V30 59 H 10.546570 10.430528 -6.044649 0
M  V30 60 H 12.246462 10.385218 -6.459999 0
M  V30 61 H 12.677600 10.172191 -3.966351 0
M  V30 62 H 13.019964 8.604743 -2.100473 0
M  V30 63 H 12.121654 6.279499 -2.254412 0
M  V30 64 H 10.888129 5.578141 -4.271587 0
M  V30 65 H 9.470699 6.392046 -6.245209 0
M  V30 66 H 11.006475 6.282450 -7.090303 0
M  V30 67 H 6.789613 -0.550366 -16.900785 0
M  V30 68 H 9.214854 8.567714 -6.910740 0
M  V30 END ATOM
M  V30 BEGIN BOND
M  V30 1 1 2 1
M  V30 2 1 3 2
M  V30 3 2 4 3
M  V30 4 1 5 4
M  V30 5 2 6 5
M  V30 6 1 7 6
M  V30 7 1 8 7
M  V30 8 1 9 8
M  V30 9 1 10 9
M  V30 10 2 11 10
M  V30 11 1 12 11
M  V30 12 2 13 12
M  V30 13 1 14 13
M  V30 14 1 15 10
M  V30 15 2 15 14
M  V30 16 1 16 15
M  V30 17 1 17 16
M  V30 18 1 18 17
M  V30 19 1 19 18
M  V30 20 1 20 19
M  V30 21 1 21 20
M  V30 22 1 22 21
M  V30 23 1 23 22
M  V30 24 1 24 23
M  V30 25 1 25 24
M  V30 26 2 26 25
M  V30 27 1 27 26
M  V30 28 2 28 27
M  V30 29 1 29 28
M  V30 30 1 30 25
M  V30 31 2 30 29
M  V30 32 1 31 22
M  V30 33 1 31 30
M  V30 34 1 32 3
M  V30 35 2 32 7
M  V30 36 1 33 1
M  V30 37 1 34 1
M  V30 38 1 35 1
M  V30 39 1 36 4
M  V30 40 1 37 5
M  V30 41 1 38 6
M  V30 42 1 39 8
M  V30 43 1 40 8
M  V30 44 1 41 9
M  V30 45 1 42 9
M  V30 46 1 43 11
M  V30 47 1 44 12
M  V30 48 1 45 13
M  V30 49 1 46 14
M  V30 50 1 47 17
M  V30 51 1 48 17
M  V30 52 1 49 18
M  V30 53 1 50 18
M  V30 54 1 51 19
M  V30 55 1 52 19
M  V30 56 1 53 20
M  V30 57 1 54 20
M  V30 58 1 55 21
M  V30 59 1 56 21
M  V30 60 1 57 23
M  V30 61 1 58 23
M  V30 62 1 59 24
M  V30 63 1 60 24
M  V30 64 1 61 26
M  V30 65 1 62 27
M  V30 66 1 63 28
M  V30 67 1 64 29
M  V30 68 1 65 31
M  V30 69 1 66 31
M  V30 70 1 67 32
M  V30 71 1 22 68 CFG=1
M  V30 END BOND
M  V30 END CTAB
M  END
>  <b_m_subgroup_collapsed>  (545) 
0

>  <r_i_docking_score>  (545) 
-8.1571862829396107

>  <s_m_subgroup_title>  (545) 
glide-dock_SP_D22_pv

>  <s_m_subgroupid>  (545) 
glide-dock_SP_D22_pv

>  <Molecule ChEMBL ID>  (545) 
CHEMBL519228

>  <Standard Type>  (545) 
Ki

>  <Standard Value>  (545) 
1000000.0

>  <label>  (545) 
0

$$$$
CHEMBL201375
     RDKit          3D

  0  0  0  0  0  0  0  0  0  0999 V3000
M  V30 BEGIN CTAB
M  V30 COUNTS 48 51 0 0 1
M  V30 BEGIN ATOM
M  V30 1 C 9.687973 4.148084 -9.077678 0
M  V30 2 N 9.767386 5.619455 -8.946448 0 CFG=1 CHG=1
M  V30 3 C 8.569109 6.293207 -9.487589 0
M  V30 4 C 8.630719 6.314758 -11.018373 0
M  V30 5 C 9.974405 6.709234 -11.556765 0
M  V30 6 C 10.913138 7.597527 -11.061792 0
M  V30 7 N 12.002002 7.581395 -11.922692 0
M  V30 8 C 11.757062 6.786774 -13.028497 0
M  V30 9 C 12.486160 6.530223 -14.201353 0
M  V30 10 C 11.999012 5.600358 -15.136092 0
M  V30 11 C 10.778864 4.946149 -14.894962 0
M  V30 12 C 10.036601 5.232858 -13.731914 0
M  V30 13 C 10.503069 6.172071 -12.777969 0
M  V30 14 C 10.897149 8.546947 -9.885238 0
M  V30 15 C 11.530244 8.057378 -8.551120 0
M  V30 16 C 10.545859 7.547318 -7.455493 0 CFG=2
M  V30 17 C 11.025476 7.886687 -6.034068 0
M  V30 18 C 11.526063 6.908904 -5.134173 0
M  V30 19 C 11.959323 7.258910 -3.841253 0
M  V30 20 C 11.881335 8.594405 -3.414842 0
M  V30 21 C 11.365109 9.568608 -4.284191 0
M  V30 22 C 10.947861 9.224800 -5.584867 0
M  V30 23 C 10.186608 6.047981 -7.596888 0
M  V30 24 H 8.795188 3.751030 -8.592232 0
M  V30 25 H 10.559811 3.660295 -8.647221 0
M  V30 26 H 9.685885 3.869303 -10.130958 0
M  V30 27 H 7.684726 5.780840 -9.131469 0
M  V30 28 H 8.485783 7.317451 -9.137881 0
M  V30 29 H 8.364520 5.323208 -11.381245 0
M  V30 30 H 7.876479 6.971603 -11.446689 0
M  V30 31 H 12.810219 8.174064 -11.795635 0
M  V30 32 H 13.434689 7.018199 -14.368312 0
M  V30 33 H 12.567010 5.383559 -16.030283 0
M  V30 34 H 10.403959 4.228645 -15.610614 0
M  V30 35 H 9.088334 4.740955 -13.577328 0
M  V30 36 H 11.454627 9.434390 -10.192565 0
M  V30 37 H 9.889685 8.929907 -9.722832 0
M  V30 38 H 12.357909 7.372397 -8.720783 0
M  V30 39 H 12.006145 8.947248 -8.135288 0
M  V30 40 H 9.625776 8.125046 -7.539733 0
M  V30 41 H 11.609620 5.868728 -5.404920 0
M  V30 42 H 12.339260 6.499495 -3.173122 0
M  V30 43 H 12.196136 8.869601 -2.418654 0
M  V30 44 H 11.285655 10.579000 -3.936246 0
M  V30 45 H 10.558105 9.993991 -6.236985 0
M  V30 46 H 9.416986 5.772376 -6.876089 0
M  V30 47 H 11.078772 5.462861 -7.378987 0
M  V30 48 H 10.519501 5.916306 -9.556057 0
M  V30 END ATOM
M  V30 BEGIN BOND
M  V30 1 1 2 1
M  V30 2 1 3 2
M  V30 3 1 4 3
M  V30 4 1 5 4
M  V30 5 2 6 5
M  V30 6 1 7 6
M  V30 7 1 8 7
M  V30 8 2 9 8
M  V30 9 1 10 9
M  V30 10 2 11 10
M  V30 11 1 12 11
M  V30 12 1 13 5
M  V30 13 1 13 8
M  V30 14 2 13 12
M  V30 15 1 14 6
M  V30 16 1 15 14
M  V30 17 1 16 15
M  V30 18 1 17 16
M  V30 19 2 18 17
M  V30 20 1 19 18
M  V30 21 2 20 19
M  V30 22 1 21 20
M  V30 23 1 22 17
M  V30 24 2 22 21
M  V30 25 1 23 2
M  V30 26 1 23 16
M  V30 27 1 24 1
M  V30 28 1 25 1
M  V30 29 1 26 1
M  V30 30 1 27 3
M  V30 31 1 28 3
M  V30 32 1 29 4
M  V30 33 1 30 4
M  V30 34 1 31 7
M  V30 35 1 32 9
M  V30 36 1 33 10
M  V30 37 1 34 11
M  V30 38 1 35 12
M  V30 39 1 36 14
M  V30 40 1 37 14
M  V30 41 1 38 15
M  V30 42 1 39 15
M  V30 43 1 16 40 CFG=3
M  V30 44 1 41 18
M  V30 45 1 42 19
M  V30 46 1 43 20
M  V30 47 1 44 21
M  V30 48 1 45 22
M  V30 49 1 46 23
M  V30 50 1 47 23
M  V30 51 1 2 48 CFG=3
M  V30 END BOND
M  V30 END CTAB
M  END
>  <b_m_subgroup_collapsed>  (546) 
0

>  <r_i_docking_score>  (546) 
-8.1566283969645301

>  <s_m_subgroup_title>  (546) 
glide-dock_SP_D22_pv

>  <s_m_subgroupid>  (546) 
glide-dock_SP_D22_pv

>  <Molecule ChEMBL ID>  (546) 
CHEMBL201375

>  <Standard Type>  (546) 
Ki

>  <Standard Value>  (546) 
10000.0

>  <label>  (546) 
0

$$$$
CHEMBL514747
     RDKit          3D

  0  0  0  0  0  0  0  0  0  0999 V3000
M  V30 BEGIN CTAB
M  V30 COUNTS 44 48 0 0 1
M  V30 BEGIN ATOM
M  V30 1 Cl 12.486484 8.572319 -1.519534 0
M  V30 2 C 12.012554 8.323458 -3.153543 0
M  V30 3 C 11.943800 7.023774 -3.683203 0
M  V30 4 C 11.574653 6.835580 -5.029017 0
M  V30 5 C 11.285835 7.936399 -5.868866 0
M  V30 6 N 11.034154 7.707014 -7.238909 0
M  V30 7 C 10.086804 6.641528 -7.582663 0
M  V30 8 C 9.287583 7.245565 -8.755177 0 CFG=1
M  V30 9 C 9.196103 8.695211 -8.282852 0
M  V30 10 C 10.707948 8.797204 -8.157756 0 CFG=2
M  V30 11 C 11.135740 8.400534 -9.581556 0
M  V30 12 N 10.184293 7.316978 -9.937963 0 CFG=2 CHG=1
M  V30 13 C 9.497365 7.508201 -11.240124 0
M  V30 14 C 9.111996 6.195775 -11.851757 0
M  V30 15 C 7.934842 5.516970 -11.648333 0
M  V30 16 N 7.935673 4.365638 -12.416378 0
M  V30 17 C 9.109016 4.259080 -13.129793 0
M  V30 18 N 9.459889 3.258265 -13.984610 0
M  V30 19 C 10.675688 3.406740 -14.554841 0
M  V30 20 C 11.531325 4.504371 -14.327746 0
M  V30 21 C 11.120059 5.523507 -13.446619 0
M  V30 22 C 9.868915 5.414859 -12.797787 0
M  V30 23 C 11.313976 9.236363 -5.304218 0
M  V30 24 C 11.674364 9.424659 -3.956890 0
M  V30 25 H 12.183845 6.171726 -3.064372 0
M  V30 26 H 11.562414 5.831234 -5.425785 0
M  V30 27 H 10.598527 5.718926 -7.858258 0
M  V30 28 H 9.422137 6.424729 -6.743814 0
M  V30 29 H 8.339419 6.741018 -8.944095 0
M  V30 30 H 8.762539 9.373621 -9.020128 0
M  V30 31 H 8.662916 8.810722 -7.337189 0
M  V30 32 H 11.087400 9.779924 -7.883008 0
M  V30 33 H 11.041716 9.261495 -10.244686 0
M  V30 34 H 12.169559 8.055900 -9.623175 0
M  V30 35 H 8.629037 8.158956 -11.124465 0
M  V30 36 H 10.168309 8.021950 -11.929621 0
M  V30 37 H 7.086284 5.769250 -11.023565 0
M  V30 38 H 7.172541 3.706547 -12.434339 0
M  V30 39 H 10.978787 2.618620 -15.228928 0
M  V30 40 H 12.488676 4.560483 -14.826961 0
M  V30 41 H 11.761975 6.372492 -13.264054 0
M  V30 42 H 11.075614 10.117163 -5.878128 0
M  V30 43 H 11.686948 10.418917 -3.534853 0
M  V30 44 H 10.691918 6.447101 -9.989989 0
M  V30 END ATOM
M  V30 BEGIN BOND
M  V30 1 1 2 1
M  V30 2 1 3 2
M  V30 3 2 4 3
M  V30 4 1 5 4
M  V30 5 1 6 5
M  V30 6 1 7 6
M  V30 7 1 8 7
M  V30 8 1 9 8
M  V30 9 1 10 6
M  V30 10 1 10 9
M  V30 11 1 11 10
M  V30 12 1 12 8
M  V30 13 1 12 11
M  V30 14 1 13 12
M  V30 15 1 14 13
M  V30 16 2 15 14
M  V30 17 1 16 15
M  V30 18 1 17 16
M  V30 19 2 18 17
M  V30 20 1 19 18
M  V30 21 2 20 19
M  V30 22 1 21 20
M  V30 23 1 22 14
M  V30 24 1 22 17
M  V30 25 2 22 21
M  V30 26 2 23 5
M  V30 27 2 24 2
M  V30 28 1 24 23
M  V30 29 1 25 3
M  V30 30 1 26 4
M  V30 31 1 27 7
M  V30 32 1 28 7
M  V30 33 1 8 29 CFG=3
M  V30 34 1 30 9
M  V30 35 1 31 9
M  V30 36 1 10 32 CFG=1
M  V30 37 1 33 11
M  V30 38 1 34 11
M  V30 39 1 35 13
M  V30 40 1 36 13
M  V30 41 1 37 15
M  V30 42 1 38 16
M  V30 43 1 39 19
M  V30 44 1 40 20
M  V30 45 1 41 21
M  V30 46 1 42 23
M  V30 47 1 43 24
M  V30 48 1 12 44 CFG=3
M  V30 END BOND
M  V30 END CTAB
M  END
>  <b_m_subgroup_collapsed>  (547) 
0

>  <r_i_docking_score>  (547) 
-8.1557204881081802

>  <s_m_subgroup_title>  (547) 
glide-dock_SP_D22_pv

>  <s_m_subgroupid>  (547) 
glide-dock_SP_D22_pv

>  <Molecule ChEMBL ID>  (547) 
CHEMBL514747

>  <Standard Type>  (547) 
Ki

>  <Standard Value>  (547) 
62.0

>  <label>  (547) 
1

$$$$
CHEMBL377542
     RDKit          3D

  0  0  0  0  0  0  0  0  0  0999 V3000
M  V30 BEGIN CTAB
M  V30 COUNTS 42 45 0 0 1
M  V30 BEGIN ATOM
M  V30 1 F 12.486591 8.471478 -1.449888 0
M  V30 2 C 12.094469 8.316420 -2.738465 0
M  V30 3 C 12.083533 7.040970 -3.328401 0
M  V30 4 C 11.656363 6.881402 -4.663345 0
M  V30 5 C 11.245982 7.989630 -5.444617 0
M  V30 6 N 10.838552 7.809249 -6.791111 0
M  V30 7 C 9.899097 6.736442 -7.118668 0
M  V30 8 C 9.972052 6.337930 -8.615158 0
M  V30 9 N 9.920118 7.506536 -9.543736 0 CHG=1
M  V30 10 C 10.199197 7.188712 -10.974664 0
M  V30 11 C 9.371248 6.090268 -11.580313 0
M  V30 12 C 8.070234 5.772344 -11.330935 0
M  V30 13 N 7.706153 4.800338 -12.235304 0
M  V30 14 C 6.522316 4.173667 -12.452713 0
M  V30 15 C 6.488231 3.257322 -13.469522 0
M  V30 16 N 7.572380 2.934327 -14.247045 0
M  V30 17 C 8.709784 3.534062 -14.023460 0
M  V30 18 C 8.857548 4.524140 -13.006777 0
M  V30 19 N 9.872035 5.295598 -12.607701 0
M  V30 20 C 10.819049 8.612417 -9.117456 0
M  V30 21 C 10.674886 8.978965 -7.637963 0
M  V30 22 C 11.286198 9.271929 -4.834846 0
M  V30 23 C 11.696575 9.430635 -3.496106 0
M  V30 24 H 12.391114 6.178404 -2.754022 0
M  V30 25 H 11.670188 5.888219 -5.086303 0
M  V30 26 H 8.890323 7.079637 -6.879811 0
M  V30 27 H 10.069782 5.851407 -6.510226 0
M  V30 28 H 9.153217 5.651937 -8.832209 0
M  V30 29 H 10.885502 5.778047 -8.794345 0
M  V30 30 H 11.260862 6.966491 -11.089307 0
M  V30 31 H 10.033756 8.096886 -11.555700 0
M  V30 32 H 7.330050 6.168313 -10.651361 0
M  V30 33 H 5.685331 4.433270 -11.813186 0
M  V30 34 H 5.574837 2.720054 -13.702596 0
M  V30 35 H 9.571276 3.288982 -14.635431 0
M  V30 36 H 11.856604 8.324982 -9.299259 0
M  V30 37 H 10.630958 9.496252 -9.728270 0
M  V30 38 H 9.696277 9.422329 -7.448540 0
M  V30 39 H 11.428916 9.732738 -7.409630 0
M  V30 40 H 10.977666 10.159410 -5.365391 0
M  V30 41 H 11.703184 10.412755 -3.045467 0
M  V30 42 H 8.967461 7.847584 -9.500610 0
M  V30 END ATOM
M  V30 BEGIN BOND
M  V30 1 1 2 1
M  V30 2 1 3 2
M  V30 3 2 4 3
M  V30 4 1 5 4
M  V30 5 1 6 5
M  V30 6 1 7 6
M  V30 7 1 8 7
M  V30 8 1 9 8
M  V30 9 1 10 9
M  V30 10 1 11 10
M  V30 11 2 12 11
M  V30 12 1 13 12
M  V30 13 1 14 13
M  V30 14 2 15 14
M  V30 15 1 16 15
M  V30 16 2 17 16
M  V30 17 1 18 13
M  V30 18 1 18 17
M  V30 19 1 19 11
M  V30 20 2 19 18
M  V30 21 1 20 9
M  V30 22 1 21 6
M  V30 23 1 21 20
M  V30 24 2 22 5
M  V30 25 2 23 2
M  V30 26 1 23 22
M  V30 27 1 24 3
M  V30 28 1 25 4
M  V30 29 1 26 7
M  V30 30 1 27 7
M  V30 31 1 28 8
M  V30 32 1 29 8
M  V30 33 1 30 10
M  V30 34 1 31 10
M  V30 35 1 32 12
M  V30 36 1 33 14
M  V30 37 1 34 15
M  V30 38 1 35 17
M  V30 39 1 36 20
M  V30 40 1 37 20
M  V30 41 1 38 21
M  V30 42 1 39 21
M  V30 43 1 40 22
M  V30 44 1 41 23
M  V30 45 1 42 9
M  V30 END BOND
M  V30 END CTAB
M  END
>  <b_m_subgroup_collapsed>  (548) 
0

>  <r_i_docking_score>  (548) 
-8.1548943055205498

>  <s_m_subgroup_title>  (548) 
glide-dock_SP_D22_pv

>  <s_m_subgroupid>  (548) 
glide-dock_SP_D22_pv

>  <Molecule ChEMBL ID>  (548) 
CHEMBL377542

>  <Standard Type>  (548) 
Ki

>  <Standard Value>  (548) 
64000.0

>  <label>  (548) 
0

$$$$
CHEMBL3817911
     RDKit          3D

  0  0  0  0  0  0  0  0  0  0999 V3000
M  V30 BEGIN CTAB
M  V30 COUNTS 54 57 0 0 1
M  V30 BEGIN ATOM
M  V30 1 O 11.418242 6.177804 -6.380260 0
M  V30 2 C 11.286601 7.259994 -5.812497 0
M  V30 3 C 11.686276 7.536209 -4.427179 0
M  V30 4 C 12.085890 6.648815 -3.434478 0
M  V30 5 C 12.479615 7.214468 -2.215457 0
M  V30 6 C 12.485693 8.620036 -2.010426 0
M  V30 7 C 12.041097 9.489562 -3.033183 0
M  V30 8 C 11.641331 8.890040 -4.236168 0
M  V30 9 C 11.098297 9.479742 -5.477037 0
M  V30 10 O 10.885933 10.672831 -5.652723 0
M  V30 11 N 10.884956 8.441986 -6.325077 0
M  V30 12 C 10.320998 8.559925 -7.660162 0
M  V30 13 C 8.883546 8.006025 -7.721985 0
M  V30 14 C 8.723986 6.463503 -7.640954 0
M  V30 15 C 9.380183 5.660253 -8.767727 0
M  V30 16 N 8.797443 6.016030 -10.084515 0 CFG=1 CHG=1
M  V30 17 C 9.674603 6.948952 -10.835221 0
M  V30 18 C 9.027419 7.395801 -12.140825 0
M  V30 19 C 8.668274 6.188848 -13.021029 0 CFG=1
M  V30 20 C 9.894119 5.466875 -13.627100 0
M  V30 21 C 9.440988 4.327491 -14.547098 0
M  V30 22 C 8.552094 3.334199 -13.787007 0
M  V30 23 C 7.355515 4.035566 -13.113450 0
M  V30 24 C 7.766792 5.227399 -12.227516 0 CFG=1
M  V30 25 C 8.422297 4.823023 -10.889640 0
M  V30 26 H 12.124492 5.589152 -3.610096 0
M  V30 27 H 12.834647 6.547087 -1.446136 0
M  V30 28 H 12.814465 9.030501 -1.066978 0
M  V30 29 H 12.003556 10.560214 -2.887010 0
M  V30 30 H 10.313887 9.604328 -7.967855 0
M  V30 31 H 10.981006 8.056619 -8.364998 0
M  V30 32 H 8.291169 8.458129 -6.924840 0
M  V30 33 H 8.437827 8.371733 -8.642931 0
M  V30 34 H 9.030883 6.095744 -6.667718 0
M  V30 35 H 7.685934 6.172447 -7.648613 0
M  V30 36 H 10.463237 5.783523 -8.771592 0
M  V30 37 H 9.213492 4.602653 -8.556952 0
M  V30 38 H 9.890021 7.840216 -10.253787 0
M  V30 39 H 10.635002 6.474013 -11.029534 0
M  V30 40 H 8.122672 7.966533 -11.920176 0
M  V30 41 H 9.703480 8.086505 -12.639367 0
M  V30 42 H 8.078442 6.570940 -13.847355 0
M  V30 43 H 10.513720 6.167269 -14.189552 0
M  V30 44 H 10.539854 5.064246 -12.847236 0
M  V30 45 H 8.895082 4.739775 -15.396382 0
M  V30 46 H 10.311283 3.814524 -14.957229 0
M  V30 47 H 8.190454 2.567162 -14.471365 0
M  V30 48 H 9.160729 2.814854 -13.047227 0
M  V30 49 H 6.686382 4.398362 -13.894001 0
M  V30 50 H 6.768052 3.328987 -12.531920 0
M  V30 51 H 6.852520 5.766977 -11.973861 0
M  V30 52 H 9.309645 4.212766 -11.058348 0
M  V30 53 H 7.722375 4.211338 -10.318822 0
M  V30 54 H 7.927957 6.516347 -9.904078 0
M  V30 END ATOM
M  V30 BEGIN BOND
M  V30 1 2 2 1
M  V30 2 1 3 2
M  V30 3 2 4 3
M  V30 4 1 5 4
M  V30 5 2 6 5
M  V30 6 1 7 6
M  V30 7 1 8 3
M  V30 8 2 8 7
M  V30 9 1 9 8
M  V30 10 2 10 9
M  V30 11 1 11 2
M  V30 12 1 11 9
M  V30 13 1 12 11
M  V30 14 1 13 12
M  V30 15 1 14 13
M  V30 16 1 15 14
M  V30 17 1 16 15
M  V30 18 1 17 16
M  V30 19 1 18 17
M  V30 20 1 19 18
M  V30 21 1 20 19
M  V30 22 1 21 20
M  V30 23 1 22 21
M  V30 24 1 23 22
M  V30 25 1 24 19
M  V30 26 1 24 23
M  V30 27 1 25 16
M  V30 28 1 25 24
M  V30 29 1 26 4
M  V30 30 1 27 5
M  V30 31 1 28 6
M  V30 32 1 29 7
M  V30 33 1 30 12
M  V30 34 1 31 12
M  V30 35 1 32 13
M  V30 36 1 33 13
M  V30 37 1 34 14
M  V30 38 1 35 14
M  V30 39 1 36 15
M  V30 40 1 37 15
M  V30 41 1 38 17
M  V30 42 1 39 17
M  V30 43 1 40 18
M  V30 44 1 41 18
M  V30 45 1 19 42 CFG=3
M  V30 46 1 43 20
M  V30 47 1 44 20
M  V30 48 1 45 21
M  V30 49 1 46 21
M  V30 50 1 47 22
M  V30 51 1 48 22
M  V30 52 1 49 23
M  V30 53 1 50 23
M  V30 54 1 24 51 CFG=1
M  V30 55 1 52 25
M  V30 56 1 53 25
M  V30 57 1 16 54 CFG=1
M  V30 END BOND
M  V30 END CTAB
M  END
>  <b_m_subgroup_collapsed>  (549) 
0

>  <r_i_docking_score>  (549) 
-8.1521586095837506

>  <s_m_subgroup_title>  (549) 
glide-dock_SP_D22_pv

>  <s_m_subgroupid>  (549) 
glide-dock_SP_D22_pv

>  <Molecule ChEMBL ID>  (549) 
CHEMBL3817911

>  <Standard Type>  (549) 
Ki

>  <Standard Value>  (549) 
10000.0

>  <label>  (549) 
0

$$$$
CHEMBL6003107
     RDKit          3D

  0  0  0  0  0  0  0  0  0  0999 V3000
M  V30 BEGIN CTAB
M  V30 COUNTS 76 80 0 0 1
M  V30 BEGIN ATOM
M  V30 1 O 11.031662 6.975129 -10.948656 0
M  V30 2 C 10.068165 7.267899 -10.244333 0
M  V30 3 N 8.921331 6.556288 -10.228513 0
M  V30 4 C 8.662812 5.240063 -10.827940 0
M  V30 5 C 8.989914 5.221842 -12.324459 0
M  V30 6 C 8.855877 3.904706 -13.092273 0
M  V30 7 C 9.209028 4.052357 -14.592838 0
M  V30 8 N 10.667104 4.106172 -14.933470 0 CHG=1
M  V30 9 C 10.893879 3.590062 -16.320986 0
M  V30 10 C 12.366428 3.681680 -16.796980 0
M  V30 11 N 12.984299 4.937177 -16.395821 0
M  V30 12 C 13.699146 5.757449 -17.279839 0
M  V30 13 C 15.093315 5.839932 -17.121504 0
M  V30 14 C 15.834639 6.665239 -17.988636 0
M  V30 15 C 17.353775 6.767621 -17.877779 0
M  V30 16 F 17.747549 8.041296 -17.865017 0
M  V30 17 F 17.801157 6.172762 -16.769194 0
M  V30 18 F 17.909492 6.163434 -18.925341 0
M  V30 19 N 15.253139 7.379990 -18.975145 0
M  V30 20 C 13.910285 7.340445 -19.124781 0
M  V30 21 C 13.302857 8.110348 -20.138428 0
M  V30 22 C 11.905443 8.127254 -20.307566 0
M  V30 23 C 11.089002 7.370384 -19.451326 0
M  V30 24 C 11.675425 6.581847 -18.446627 0
M  V30 25 C 13.080190 6.545228 -18.283489 0
M  V30 26 C 12.800368 5.396745 -15.041589 0
M  V30 27 C 11.303425 5.452549 -14.759211 0
M  V30 28 N 10.109476 8.326316 -9.403864 0
M  V30 29 C 11.354229 9.074777 -9.168187 0
M  V30 30 C 11.893586 8.720969 -7.765773 0
M  V30 31 C 10.821086 8.963494 -6.677013 0
M  V30 32 C 11.287358 8.542022 -5.293332 0
M  V30 33 C 11.345572 7.179482 -4.926301 0
M  V30 34 C 11.766441 6.814435 -3.633898 0
M  V30 35 C 12.134358 7.800624 -2.701005 0
M  V30 36 C 12.085611 9.159078 -3.064565 0
M  V30 37 C 11.662774 9.523906 -4.356133 0
M  V30 38 C 9.473253 8.310824 -7.044439 0
M  V30 39 C 9.056364 8.709244 -8.458570 0
M  V30 40 H 8.136186 6.986454 -9.748744 0
M  V30 41 H 9.246443 4.479346 -10.304929 0
M  V30 42 H 7.611324 5.003667 -10.675377 0
M  V30 43 H 8.469545 6.028367 -12.843521 0
M  V30 44 H 10.036755 5.424930 -12.343699 0
M  V30 45 H 9.463978 3.124152 -12.632494 0
M  V30 46 H 7.819589 3.569539 -13.023540 0
M  V30 47 H 8.780124 3.172942 -15.076303 0
M  V30 48 H 8.694435 4.906308 -15.035154 0
M  V30 49 H 10.559956 2.553955 -16.396706 0
M  V30 50 H 10.254610 4.155454 -16.999243 0
M  V30 51 H 12.940161 2.868047 -16.354561 0
M  V30 52 H 12.433962 3.551665 -17.877663 0
M  V30 53 H 15.584003 5.273951 -16.344336 0
M  V30 54 H 13.921142 8.711113 -20.788973 0
M  V30 55 H 11.460098 8.730065 -21.085426 0
M  V30 56 H 10.014345 7.396444 -19.564583 0
M  V30 57 H 11.028231 6.028802 -17.790770 0
M  V30 58 H 13.295465 4.715036 -14.348506 0
M  V30 59 H 13.243946 6.382648 -14.896254 0
M  V30 60 H 10.819728 6.172931 -15.420479 0
M  V30 61 H 11.249660 5.872407 -13.767619 0
M  V30 62 H 11.156256 10.141433 -9.261524 0
M  V30 63 H 12.129856 8.863779 -9.905396 0
M  V30 64 H 12.790250 9.302098 -7.542938 0
M  V30 65 H 12.208377 7.676003 -7.762579 0
M  V30 66 H 10.642778 10.040266 -6.648185 0
M  V30 67 H 11.074821 6.405160 -5.626470 0
M  V30 68 H 11.808050 5.774465 -3.357262 0
M  V30 69 H 12.469547 7.516237 -1.715350 0
M  V30 70 H 12.376728 9.919221 -2.354140 0
M  V30 71 H 11.629741 10.566080 -4.633611 0
M  V30 72 H 9.533614 7.222786 -7.001815 0
M  V30 73 H 8.695603 8.598557 -6.335404 0
M  V30 74 H 8.895079 9.768549 -8.521495 0
M  V30 75 H 8.089181 8.277445 -8.664248 0
M  V30 76 H 11.145704 3.468795 -14.312108 0
M  V30 END ATOM
M  V30 BEGIN BOND
M  V30 1 2 2 1
M  V30 2 1 3 2
M  V30 3 1 4 3
M  V30 4 1 5 4
M  V30 5 1 6 5
M  V30 6 1 7 6
M  V30 7 1 8 7
M  V30 8 1 9 8
M  V30 9 1 10 9
M  V30 10 1 11 10
M  V30 11 1 12 11
M  V30 12 2 13 12
M  V30 13 1 14 13
M  V30 14 1 15 14
M  V30 15 1 16 15
M  V30 16 1 17 15
M  V30 17 1 18 15
M  V30 18 2 19 14
M  V30 19 1 20 19
M  V30 20 2 21 20
M  V30 21 1 22 21
M  V30 22 2 23 22
M  V30 23 1 24 23
M  V30 24 1 25 12
M  V30 25 1 25 20
M  V30 26 2 25 24
M  V30 27 1 26 11
M  V30 28 1 27 8
M  V30 29 1 27 26
M  V30 30 1 28 2
M  V30 31 1 29 28
M  V30 32 1 30 29
M  V30 33 1 31 30
M  V30 34 1 32 31
M  V30 35 2 33 32
M  V30 36 1 34 33
M  V30 37 2 35 34
M  V30 38 1 36 35
M  V30 39 1 37 32
M  V30 40 2 37 36
M  V30 41 1 38 31
M  V30 42 1 39 28
M  V30 43 1 39 38
M  V30 44 1 40 3
M  V30 45 1 41 4
M  V30 46 1 42 4
M  V30 47 1 43 5
M  V30 48 1 44 5
M  V30 49 1 45 6
M  V30 50 1 46 6
M  V30 51 1 47 7
M  V30 52 1 48 7
M  V30 53 1 49 9
M  V30 54 1 50 9
M  V30 55 1 51 10
M  V30 56 1 52 10
M  V30 57 1 53 13
M  V30 58 1 54 21
M  V30 59 1 55 22
M  V30 60 1 56 23
M  V30 61 1 57 24
M  V30 62 1 58 26
M  V30 63 1 59 26
M  V30 64 1 60 27
M  V30 65 1 61 27
M  V30 66 1 62 29
M  V30 67 1 63 29
M  V30 68 1 64 30
M  V30 69 1 65 30
M  V30 70 1 66 31
M  V30 71 1 67 33
M  V30 72 1 68 34
M  V30 73 1 69 35
M  V30 74 1 70 36
M  V30 75 1 71 37
M  V30 76 1 72 38
M  V30 77 1 73 38
M  V30 78 1 74 39
M  V30 79 1 75 39
M  V30 80 1 76 8
M  V30 END BOND
M  V30 END CTAB
M  END
>  <b_m_subgroup_collapsed>  (550) 
0

>  <r_i_docking_score>  (550) 
-8.1507487794984606

>  <s_m_subgroup_title>  (550) 
glide-dock_SP_D22_pv

>  <s_m_subgroupid>  (550) 
glide-dock_SP_D22_pv

>  <Molecule ChEMBL ID>  (550) 
CHEMBL6003107

>  <Standard Type>  (550) 
Ki

>  <Standard Value>  (550) 
100000.0

>  <label>  (550) 
0

$$$$
CHEMBL3104522
     RDKit          3D

  0  0  0  0  0  0  0  0  0  0999 V3000
M  V30 BEGIN CTAB
M  V30 COUNTS 59 63 0 0 1
M  V30 BEGIN ATOM
M  V30 1 N 10.686844 0.287327 -16.248512 0
M  V30 2 C 9.651537 0.959967 -15.601314 0
M  V30 3 C 8.329228 0.489340 -15.709722 0
M  V30 4 C 7.283494 1.168105 -15.056486 0
M  V30 5 C 7.550373 2.324055 -14.295442 0
M  V30 6 C 8.880663 2.803351 -14.187466 0
M  V30 7 C 9.923323 2.112334 -14.842094 0
M  V30 8 C 9.226664 4.047717 -13.381623 0 CFG=1
M  V30 9 O 9.534842 5.119730 -14.245917 0
M  V30 10 C 8.119037 4.484504 -12.387947 0 CFG=1
M  V30 11 C 8.342769 5.863942 -11.734987 0
M  V30 12 C 9.666750 5.979749 -10.958530 0
M  V30 13 N 9.691561 7.165603 -10.065374 0 CFG=2 CHG=1
M  V30 14 C 11.077747 7.654834 -9.816659 0
M  V30 15 C 11.115738 8.905251 -8.916057 0
M  V30 16 C 10.285344 8.761184 -7.624978 0 CFG=2
M  V30 17 C 10.944610 7.959148 -6.526900 0
M  V30 18 N 11.235954 6.668130 -6.681970 0
M  V30 19 O 11.685184 6.172723 -5.428301 0
M  V30 20 C 11.708172 7.204282 -4.509717 0
M  V30 21 C 12.097665 7.237526 -3.166276 0
M  V30 22 C 12.090536 8.490944 -2.521108 0
M  V30 23 F 12.496364 8.583018 -1.236826 0
M  V30 24 C 11.687457 9.654767 -3.217078 0
M  V30 25 C 11.280201 9.590366 -4.567906 0
M  V30 26 C 11.291022 8.336668 -5.214725 0
M  V30 27 C 8.885378 8.220159 -7.953708 0
M  V30 28 C 8.951475 6.932046 -8.798446 0
M  V30 29 C 6.725859 4.395953 -13.026048 0
M  V30 30 C 6.398652 2.998889 -13.567564 0
M  V30 31 H 10.475019 -0.400700 -16.955626 0
M  V30 32 H 11.606759 0.699670 -16.302048 0
M  V30 33 H 8.109304 -0.397574 -16.284727 0
M  V30 34 H 6.272801 0.792185 -15.137330 0
M  V30 35 H 10.938249 2.473357 -14.758077 0
M  V30 36 H 10.133172 3.824973 -12.816635 0
M  V30 37 H 10.193129 4.826468 -14.856943 0
M  V30 38 H 8.117646 3.772783 -11.567426 0
M  V30 39 H 8.272906 6.655982 -12.480325 0
M  V30 40 H 7.505921 6.032064 -11.060707 0
M  V30 41 H 9.852087 5.080466 -10.369994 0
M  V30 42 H 10.482380 6.054882 -11.683549 0
M  V30 43 H 11.682611 6.866311 -9.372568 0
M  V30 44 H 11.549804 7.897195 -10.767138 0
M  V30 45 H 12.148088 9.160273 -8.673076 0
M  V30 46 H 10.721796 9.747272 -9.485785 0
M  V30 47 H 10.150018 9.769917 -7.230978 0
M  V30 48 H 12.420268 6.340351 -2.655067 0
M  V30 49 H 11.694154 10.605125 -2.704466 0
M  V30 50 H 10.972674 10.485246 -5.090724 0
M  V30 51 H 8.316898 8.045931 -7.038227 0
M  V30 52 H 8.332051 8.979795 -8.506551 0
M  V30 53 H 7.951573 6.571320 -9.005336 0
M  V30 54 H 9.408052 6.110291 -8.250587 0
M  V30 55 H 6.683672 5.104795 -13.846754 0
M  V30 56 H 5.949795 4.705965 -12.322139 0
M  V30 57 H 5.546380 3.068990 -14.240379 0
M  V30 58 H 6.087073 2.351299 -12.747239 0
M  V30 59 H 9.186584 7.897184 -10.549417 0
M  V30 END ATOM
M  V30 BEGIN BOND
M  V30 1 1 2 1
M  V30 2 1 3 2
M  V30 3 2 4 3
M  V30 4 1 5 4
M  V30 5 2 6 5
M  V30 6 2 7 2
M  V30 7 1 7 6
M  V30 8 1 8 6
M  V30 9 1 9 8
M  V30 10 1 10 8
M  V30 11 1 11 10
M  V30 12 1 12 11
M  V30 13 1 13 12
M  V30 14 1 14 13
M  V30 15 1 15 14
M  V30 16 1 16 15
M  V30 17 1 17 16
M  V30 18 2 18 17
M  V30 19 1 19 18
M  V30 20 1 20 19
M  V30 21 1 21 20
M  V30 22 2 22 21
M  V30 23 1 23 22
M  V30 24 1 24 22
M  V30 25 2 25 24
M  V30 26 1 26 17
M  V30 27 2 26 20
M  V30 28 1 26 25
M  V30 29 1 27 16
M  V30 30 1 28 13
M  V30 31 1 28 27
M  V30 32 1 29 10
M  V30 33 1 30 5
M  V30 34 1 30 29
M  V30 35 1 31 1
M  V30 36 1 32 1
M  V30 37 1 33 3
M  V30 38 1 34 4
M  V30 39 1 35 7
M  V30 40 1 8 36 CFG=1
M  V30 41 1 37 9
M  V30 42 1 10 38 CFG=1
M  V30 43 1 39 11
M  V30 44 1 40 11
M  V30 45 1 41 12
M  V30 46 1 42 12
M  V30 47 1 43 14
M  V30 48 1 44 14
M  V30 49 1 45 15
M  V30 50 1 46 15
M  V30 51 1 16 47 CFG=1
M  V30 52 1 48 21
M  V30 53 1 49 24
M  V30 54 1 50 25
M  V30 55 1 51 27
M  V30 56 1 52 27
M  V30 57 1 53 28
M  V30 58 1 54 28
M  V30 59 1 55 29
M  V30 60 1 56 29
M  V30 61 1 57 30
M  V30 62 1 58 30
M  V30 63 1 13 59 CFG=3
M  V30 END BOND
M  V30 END CTAB
M  END
>  <b_m_subgroup_collapsed>  (551) 
0

>  <r_i_docking_score>  (551) 
-8.1482667541402094

>  <s_m_subgroup_title>  (551) 
glide-dock_SP_D22_pv

>  <s_m_subgroupid>  (551) 
glide-dock_SP_D22_pv

>  <Molecule ChEMBL ID>  (551) 
CHEMBL3104522

>  <Standard Type>  (551) 
Ki

>  <Standard Value>  (551) 
87.1

>  <label>  (551) 
1

$$$$
CHEMBL553288
     RDKit          3D

  0  0  0  0  0  0  0  0  0  0999 V3000
M  V30 BEGIN CTAB
M  V30 COUNTS 33 35 0 0 1
M  V30 BEGIN ATOM
M  V30 1 O 12.346182 7.772372 -8.234462 0
M  V30 2 C 11.147711 7.866818 -7.976419 0
M  V30 3 C 10.532336 8.218092 -6.716410 0
M  V30 4 C 11.151485 8.310099 -5.390908 0
M  V30 5 C 11.280532 9.558661 -4.748608 0
M  V30 6 C 11.805276 9.620970 -3.443659 0
M  V30 7 C 12.205018 8.444320 -2.781755 0
M  V30 8 C 12.086105 7.198684 -3.427463 0
M  V30 9 C 11.565897 7.131448 -4.734324 0
M  V30 10 C 9.286379 8.572314 -7.048335 0
M  V30 11 O 8.956453 8.417564 -8.368766 0
M  V30 12 C 10.031118 7.726620 -9.003445 0 CFG=1
M  V30 13 C 10.424647 8.332805 -10.364600 0
M  V30 14 C 9.310085 8.146461 -11.405244 0
M  V30 15 C 8.886185 6.669901 -11.498016 0
M  V30 16 N 8.486039 6.172253 -10.164453 0 CHG=1
M  V30 17 C 9.573993 6.258975 -9.164181 0
M  V30 18 H 10.960679 10.464449 -5.243187 0
M  V30 19 H 11.894194 10.571860 -2.939141 0
M  V30 20 H 12.600424 8.500338 -1.777919 0
M  V30 21 H 12.386534 6.293521 -2.919435 0
M  V30 22 H 11.461427 6.171492 -5.219184 0
M  V30 23 H 8.489461 8.939876 -6.417913 0
M  V30 24 H 10.668250 9.385289 -10.246947 0
M  V30 25 H 11.331655 7.851497 -10.734042 0
M  V30 26 H 8.456774 8.765182 -11.129169 0
M  V30 27 H 9.643289 8.505207 -12.379132 0
M  V30 28 H 8.041771 6.567271 -12.180326 0
M  V30 29 H 9.696918 6.057126 -11.894251 0
M  V30 30 H 7.713321 6.771546 -9.861375 0
M  V30 31 H 10.405705 5.627567 -9.480164 0
M  V30 32 H 9.210861 5.856485 -8.217012 0
M  V30 33 H 8.142240 5.224951 -10.233746 0
M  V30 END ATOM
M  V30 BEGIN BOND
M  V30 1 2 2 1
M  V30 2 1 3 2
M  V30 3 1 4 3
M  V30 4 2 5 4
M  V30 5 1 6 5
M  V30 6 2 7 6
M  V30 7 1 8 7
M  V30 8 1 9 4
M  V30 9 2 9 8
M  V30 10 2 10 3
M  V30 11 1 11 10
M  V30 12 1 12 2
M  V30 13 1 12 11 CFG=1
M  V30 14 1 13 12
M  V30 15 1 14 13
M  V30 16 1 15 14
M  V30 17 1 16 15
M  V30 18 1 17 12
M  V30 19 1 17 16
M  V30 20 1 18 5
M  V30 21 1 19 6
M  V30 22 1 20 7
M  V30 23 1 21 8
M  V30 24 1 22 9
M  V30 25 1 23 10
M  V30 26 1 24 13
M  V30 27 1 25 13
M  V30 28 1 26 14
M  V30 29 1 27 14
M  V30 30 1 28 15
M  V30 31 1 29 15
M  V30 32 1 30 16
M  V30 33 1 31 17
M  V30 34 1 32 17
M  V30 35 1 33 16
M  V30 END BOND
M  V30 END CTAB
M  END
>  <b_m_subgroup_collapsed>  (552) 
0

>  <r_i_docking_score>  (552) 
-8.1481121976850606

>  <s_m_subgroup_title>  (552) 
glide-dock_SP_D22_pv

>  <s_m_subgroupid>  (552) 
glide-dock_SP_D22_pv

>  <Molecule ChEMBL ID>  (552) 
CHEMBL553288

>  <Standard Type>  (552) 
Ki

>  <Standard Value>  (552) 
10000.0

>  <label>  (552) 
0

$$$$
CHEMBL540241
     RDKit          3D

  0  0  0  0  0  0  0  0  0  0999 V3000
M  V30 BEGIN CTAB
M  V30 COUNTS 54 57 0 0 1
M  V30 BEGIN ATOM
M  V30 1 C 11.539709 6.481364 -2.246495 0
M  V30 2 C 12.417339 7.629438 -2.757787 0
M  V30 3 C 12.799764 8.571846 -1.600041 0
M  V30 4 C 11.770998 8.329942 -3.954785 0
M  V30 5 C 11.466846 9.707340 -3.943263 0
M  V30 6 C 10.886399 10.303414 -5.071053 0
M  V30 7 C 10.614112 9.543875 -6.220125 0
M  V30 8 C 10.892838 8.161893 -6.261500 0
M  V30 9 N 10.560849 7.345345 -7.396677 0
M  V30 10 C 10.372608 5.915537 -7.239422 0
M  V30 11 C 9.740279 5.456452 -8.537096 0
M  V30 12 N 9.699306 6.681375 -9.305550 0
M  V30 13 C 9.199197 6.696284 -10.683713 0
M  V30 14 C 8.092673 5.646425 -10.934767 0
M  V30 15 N 7.508057 5.765749 -12.291158 0 CHG=1
M  V30 16 C 8.379330 5.157130 -13.346210 0
M  V30 17 C 7.696015 3.850647 -13.646005 0
M  V30 18 C 8.199801 2.742488 -14.349427 0
M  V30 19 C 7.379988 1.595406 -14.454945 0
M  V30 20 C 6.101550 1.565447 -13.846837 0
M  V30 21 C 5.617578 2.688201 -13.138589 0
M  V30 22 C 6.435624 3.828776 -13.073181 0
M  V30 23 C 6.156522 5.136872 -12.393190 0
M  V30 24 C 10.216462 7.735439 -8.645582 0
M  V30 25 O 10.364324 8.857631 -9.131302 0
M  V30 26 C 11.469030 7.573308 -5.109663 0
M  V30 27 H 11.304901 5.772886 -3.037602 0
M  V30 28 H 12.052522 5.912172 -1.471736 0
M  V30 29 H 10.597337 6.844549 -1.839579 0
M  V30 30 H 13.335418 7.188431 -3.137964 0
M  V30 31 H 13.490477 9.344470 -1.931626 0
M  V30 32 H 11.924824 9.065831 -1.177779 0
M  V30 33 H 13.283669 8.035033 -0.785707 0
M  V30 34 H 11.663851 10.326451 -3.081905 0
M  V30 35 H 10.651464 11.356144 -5.052154 0
M  V30 36 H 10.145227 10.045045 -7.047641 0
M  V30 37 H 11.308016 5.381188 -7.049896 0
M  V30 38 H 9.692831 5.772668 -6.402790 0
M  V30 39 H 8.738427 5.061768 -8.355734 0
M  V30 40 H 10.340562 4.696035 -9.034811 0
M  V30 41 H 8.811916 7.690830 -10.912909 0
M  V30 42 H 10.047392 6.536356 -11.349802 0
M  V30 43 H 8.471230 4.633822 -10.794361 0
M  V30 44 H 7.308101 5.772400 -10.193119 0
M  V30 45 H 8.385483 5.772327 -14.245594 0
M  V30 46 H 9.410124 5.001695 -13.024881 0
M  V30 47 H 9.189262 2.759831 -14.784717 0
M  V30 48 H 7.739447 0.728368 -14.988786 0
M  V30 49 H 5.493066 0.675397 -13.923355 0
M  V30 50 H 4.643786 2.671796 -12.669459 0
M  V30 51 H 5.634471 5.007655 -11.446825 0
M  V30 52 H 5.526228 5.742719 -13.044966 0
M  V30 53 H 11.708573 6.521143 -5.107678 0
M  V30 54 H 7.393312 6.759140 -12.446907 0
M  V30 END ATOM
M  V30 BEGIN BOND
M  V30 1 1 2 1
M  V30 2 1 3 2
M  V30 3 1 4 2
M  V30 4 1 5 4
M  V30 5 2 6 5
M  V30 6 1 7 6
M  V30 7 2 8 7
M  V30 8 1 9 8
M  V30 9 1 10 9
M  V30 10 1 11 10
M  V30 11 1 12 11
M  V30 12 1 13 12
M  V30 13 1 14 13
M  V30 14 1 15 14
M  V30 15 1 16 15
M  V30 16 1 17 16
M  V30 17 2 18 17
M  V30 18 1 19 18
M  V30 19 2 20 19
M  V30 20 1 21 20
M  V30 21 1 22 17
M  V30 22 2 22 21
M  V30 23 1 23 15
M  V30 24 1 23 22
M  V30 25 1 24 9
M  V30 26 1 24 12
M  V30 27 2 25 24
M  V30 28 2 26 4
M  V30 29 1 26 8
M  V30 30 1 27 1
M  V30 31 1 28 1
M  V30 32 1 29 1
M  V30 33 1 30 2
M  V30 34 1 31 3
M  V30 35 1 32 3
M  V30 36 1 33 3
M  V30 37 1 34 5
M  V30 38 1 35 6
M  V30 39 1 36 7
M  V30 40 1 37 10
M  V30 41 1 38 10
M  V30 42 1 39 11
M  V30 43 1 40 11
M  V30 44 1 41 13
M  V30 45 1 42 13
M  V30 46 1 43 14
M  V30 47 1 44 14
M  V30 48 1 45 16
M  V30 49 1 46 16
M  V30 50 1 47 18
M  V30 51 1 48 19
M  V30 52 1 49 20
M  V30 53 1 50 21
M  V30 54 1 51 23
M  V30 55 1 52 23
M  V30 56 1 53 26
M  V30 57 1 54 15
M  V30 END BOND
M  V30 END CTAB
M  END
>  <b_m_subgroup_collapsed>  (553) 
0

>  <r_i_docking_score>  (553) 
-8.1476060561672892

>  <s_m_subgroup_title>  (553) 
glide-dock_SP_D22_pv

>  <s_m_subgroupid>  (553) 
glide-dock_SP_D22_pv

>  <Molecule ChEMBL ID>  (553) 
CHEMBL540241

>  <Standard Type>  (553) 
Ki

>  <Standard Value>  (553) 
79.43

>  <label>  (553) 
1

$$$$
CHEMBL5992622
     RDKit          3D

  0  0  0  0  0  0  0  0  0  0999 V3000
M  V30 BEGIN CTAB
M  V30 COUNTS 53 57 0 0 1
M  V30 BEGIN ATOM
M  V30 1 O 9.279683 6.572316 -6.516895 0
M  V30 2 C 10.200382 7.368060 -6.649426 0
M  V30 3 C 11.127252 7.641482 -5.494276 0
M  V30 4 N 11.284993 6.683308 -4.552293 0
M  V30 5 C 11.934639 6.992919 -3.415765 0
M  V30 6 C 12.486128 8.262673 -3.177531 0
M  V30 7 C 12.418075 9.224670 -4.201123 0
M  V30 8 C 11.719458 8.913704 -5.383783 0
M  V30 9 C 11.620255 9.871435 -6.557043 0
M  V30 10 C 11.451198 9.089989 -7.885931 0
M  V30 11 N 10.410943 8.051602 -7.801123 0
M  V30 12 C 9.499646 7.876463 -8.954337 0
M  V30 13 C 9.551594 6.447986 -9.556916 0
M  V30 14 N 8.486037 6.172675 -10.561091 0 CFG=2 CHG=1
M  V30 15 C 8.167087 4.724968 -10.605163 0
M  V30 16 C 7.074678 4.409959 -11.634514 0
M  V30 17 C 7.516327 4.785698 -13.036901 0 CFG=2
M  V30 18 C 8.657793 3.941580 -13.584258 0
M  V30 19 N 9.936953 4.292126 -13.422207 0
M  V30 20 O 10.745076 3.299882 -14.039408 0
M  V30 21 C 9.938296 2.297626 -14.547646 0
M  V30 22 C 10.242410 1.102542 -15.216695 0
M  V30 23 C 9.166718 0.263146 -15.576461 0
M  V30 24 C 7.836238 0.625729 -15.254605 0
M  V30 25 C 7.560731 1.841477 -14.587614 0
M  V30 26 F 6.292673 2.166869 -14.247170 0
M  V30 27 C 8.632449 2.693019 -14.246894 0
M  V30 28 C 7.784825 6.295908 -13.005806 0
M  V30 29 C 8.790751 6.743692 -11.907851 0
M  V30 30 H 12.003973 6.210115 -2.673640 0
M  V30 31 H 13.001358 8.477141 -2.253695 0
M  V30 32 H 12.908230 10.172309 -4.069365 0
M  V30 33 H 10.766212 10.527656 -6.393923 0
M  V30 34 H 12.505846 10.506067 -6.590765 0
M  V30 35 H 11.261437 9.774532 -8.709494 0
M  V30 36 H 12.390537 8.589557 -8.125763 0
M  V30 37 H 8.486382 8.097178 -8.619372 0
M  V30 38 H 9.715918 8.605828 -9.735860 0
M  V30 39 H 10.530744 6.258107 -9.997710 0
M  V30 40 H 9.452447 5.709011 -8.764720 0
M  V30 41 H 9.080120 4.172174 -10.828777 0
M  V30 42 H 7.846748 4.386636 -9.621225 0
M  V30 43 H 6.780253 3.371807 -11.585407 0
M  V30 44 H 6.169404 4.978034 -11.427042 0
M  V30 45 H 6.661227 4.631596 -13.696039 0
M  V30 46 H 11.264105 0.830816 -15.435601 0
M  V30 47 H 9.361110 -0.665900 -16.087994 0
M  V30 48 H 7.025006 -0.038931 -15.513773 0
M  V30 49 H 8.104586 6.572365 -13.999252 0
M  V30 50 H 6.842221 6.819666 -12.832444 0
M  V30 51 H 8.770347 7.831966 -11.837231 0
M  V30 52 H 9.812092 6.491117 -12.190694 0
M  V30 53 H 7.637857 6.660830 -10.247149 0
M  V30 END ATOM
M  V30 BEGIN BOND
M  V30 1 2 2 1
M  V30 2 1 3 2
M  V30 3 2 4 3
M  V30 4 1 5 4
M  V30 5 2 6 5
M  V30 6 1 7 6
M  V30 7 1 8 3
M  V30 8 2 8 7
M  V30 9 1 9 8
M  V30 10 1 10 9
M  V30 11 1 11 2
M  V30 12 1 11 10
M  V30 13 1 12 11
M  V30 14 1 13 12
M  V30 15 1 14 13
M  V30 16 1 15 14
M  V30 17 1 16 15
M  V30 18 1 17 16
M  V30 19 1 18 17
M  V30 20 2 19 18
M  V30 21 1 20 19
M  V30 22 1 21 20
M  V30 23 2 22 21
M  V30 24 1 23 22
M  V30 25 2 24 23
M  V30 26 1 25 24
M  V30 27 1 26 25
M  V30 28 1 27 18
M  V30 29 1 27 21
M  V30 30 2 27 25
M  V30 31 1 28 17
M  V30 32 1 29 14
M  V30 33 1 29 28
M  V30 34 1 30 5
M  V30 35 1 31 6
M  V30 36 1 32 7
M  V30 37 1 33 9
M  V30 38 1 34 9
M  V30 39 1 35 10
M  V30 40 1 36 10
M  V30 41 1 37 12
M  V30 42 1 38 12
M  V30 43 1 39 13
M  V30 44 1 40 13
M  V30 45 1 41 15
M  V30 46 1 42 15
M  V30 47 1 43 16
M  V30 48 1 44 16
M  V30 49 1 17 45 CFG=3
M  V30 50 1 46 22
M  V30 51 1 47 23
M  V30 52 1 48 24
M  V30 53 1 49 28
M  V30 54 1 50 28
M  V30 55 1 51 29
M  V30 56 1 52 29
M  V30 57 1 14 53 CFG=1
M  V30 END BOND
M  V30 END CTAB
M  END
>  <b_m_subgroup_collapsed>  (554) 
0

>  <r_i_docking_score>  (554) 
-8.1474868326052299

>  <s_m_subgroup_title>  (554) 
glide-dock_SP_D22_pv

>  <s_m_subgroupid>  (554) 
glide-dock_SP_D22_pv

>  <Molecule ChEMBL ID>  (554) 
CHEMBL5992622

>  <Standard Type>  (554) 
Ki

>  <Standard Value>  (554) 
10000.0

>  <label>  (554) 
0

$$$$
CHEMBL4528835
     RDKit          3D

  0  0  0  0  0  0  0  0  0  0999 V3000
M  V30 BEGIN CTAB
M  V30 COUNTS 50 53 0 0 1
M  V30 BEGIN ATOM
M  V30 1 O 10.819208 6.671704 -6.901910 0
M  V30 2 C 11.005324 7.804305 -6.453243 0
M  V30 3 C 10.844816 9.024607 -7.377287 0
M  V30 4 C 10.504802 8.654587 -8.836217 0
M  V30 5 C 9.062310 8.120185 -9.014874 0
M  V30 6 N 8.886430 7.119990 -10.104739 0 CFG=2 CHG=1
M  V30 7 C 9.651771 5.866652 -9.879558 0
M  V30 8 C 9.232235 4.742055 -10.839332 0
M  V30 9 C 9.180557 5.166794 -12.300191 0 CFG=2
M  V30 10 C 8.501211 4.111887 -13.122649 0
M  V30 11 C 7.094498 4.003741 -13.155507 0
M  V30 12 C 6.478760 2.941079 -13.848229 0
M  V30 13 C 7.264675 1.982357 -14.521007 0
M  V30 14 Cl 6.523489 0.628895 -15.296897 0
M  V30 15 C 8.664817 2.111147 -14.531731 0
M  V30 16 C 9.278076 3.169638 -13.838592 0
M  V30 17 C 10.255005 5.972645 -12.981218 0
M  V30 18 C 8.958316 6.639698 -12.565385 0 CFG=2
M  V30 19 C 9.068948 7.689609 -11.463593 0
M  V30 20 C 11.436953 8.042716 -5.047864 0
M  V30 21 C 11.627739 9.344354 -4.525839 0
M  V30 22 C 12.079854 9.516582 -3.203359 0
M  V30 23 C 12.353789 8.400565 -2.394459 0
M  V30 24 F 12.825904 8.573357 -1.141160 0
M  V30 25 C 12.141350 7.106030 -2.891996 0
M  V30 26 C 11.686082 6.931216 -4.212463 0
M  V30 27 H 10.081892 9.685917 -6.970208 0
M  V30 28 H 11.783287 9.578944 -7.359510 0
M  V30 29 H 10.640512 9.535828 -9.462863 0
M  V30 30 H 11.252619 7.948987 -9.190504 0
M  V30 31 H 8.690346 7.667739 -8.094812 0
M  V30 32 H 8.417222 8.976726 -9.200901 0
M  V30 33 H 10.713397 6.066946 -9.994851 0
M  V30 34 H 9.508847 5.522037 -8.855356 0
M  V30 35 H 9.904509 3.890521 -10.740117 0
M  V30 36 H 8.241910 4.394918 -10.546251 0
M  V30 37 H 6.484518 4.711549 -12.614000 0
M  V30 38 H 5.403228 2.846595 -13.846556 0
M  V30 39 H 9.273942 1.377367 -15.041355 0
M  V30 40 H 10.353960 3.233331 -13.816964 0
M  V30 41 H 11.152512 6.219163 -12.418383 0
M  V30 42 H 10.415298 5.818684 -14.047649 0
M  V30 43 H 8.219484 6.865021 -13.332543 0
M  V30 44 H 8.316869 8.460928 -11.634825 0
M  V30 45 H 10.041344 8.181387 -11.541962 0
M  V30 46 H 11.442695 10.223364 -5.123756 0
M  V30 47 H 12.219909 10.509871 -2.802906 0
M  V30 48 H 12.339908 6.243479 -2.271693 0
M  V30 49 H 11.544234 5.923779 -4.581234 0
M  V30 50 H 7.890021 6.913846 -10.062397 0
M  V30 END ATOM
M  V30 BEGIN BOND
M  V30 1 2 2 1
M  V30 2 1 3 2
M  V30 3 1 4 3
M  V30 4 1 5 4
M  V30 5 1 6 5
M  V30 6 1 7 6
M  V30 7 1 8 7
M  V30 8 1 9 8
M  V30 9 1 9 10 CFG=3
M  V30 10 1 11 10
M  V30 11 2 12 11
M  V30 12 1 13 12
M  V30 13 1 14 13
M  V30 14 2 15 13
M  V30 15 2 16 10
M  V30 16 1 16 15
M  V30 17 1 17 9
M  V30 18 1 18 9
M  V30 19 1 18 17
M  V30 20 1 19 6
M  V30 21 1 19 18
M  V30 22 1 20 2
M  V30 23 1 21 20
M  V30 24 2 22 21
M  V30 25 1 23 22
M  V30 26 1 24 23
M  V30 27 2 25 23
M  V30 28 2 26 20
M  V30 29 1 26 25
M  V30 30 1 27 3
M  V30 31 1 28 3
M  V30 32 1 29 4
M  V30 33 1 30 4
M  V30 34 1 31 5
M  V30 35 1 32 5
M  V30 36 1 33 7
M  V30 37 1 34 7
M  V30 38 1 35 8
M  V30 39 1 36 8
M  V30 40 1 37 11
M  V30 41 1 38 12
M  V30 42 1 39 15
M  V30 43 1 40 16
M  V30 44 1 41 17
M  V30 45 1 42 17
M  V30 46 1 18 43 CFG=3
M  V30 47 1 44 19
M  V30 48 1 45 19
M  V30 49 1 46 21
M  V30 50 1 47 22
M  V30 51 1 48 25
M  V30 52 1 49 26
M  V30 53 1 6 50 CFG=3
M  V30 END BOND
M  V30 END CTAB
M  END
>  <b_m_subgroup_collapsed>  (555) 
0

>  <r_i_docking_score>  (555) 
-8.1467190150402207

>  <s_m_subgroup_title>  (555) 
glide-dock_SP_D22_pv

>  <s_m_subgroupid>  (555) 
glide-dock_SP_D22_pv

>  <Molecule ChEMBL ID>  (555) 
CHEMBL4528835

>  <Standard Type>  (555) 
Ki

>  <Standard Value>  (555) 
0.1585

>  <label>  (555) 
1

$$$$
CHEMBL4574793
     RDKit          3D

  0  0  0  0  0  0  0  0  0  0999 V3000
M  V30 BEGIN CTAB
M  V30 COUNTS 50 52 0 0 1
M  V30 BEGIN ATOM
M  V30 1 O 10.487370 9.368963 -6.932664 0
M  V30 2 C 10.625660 8.354348 -6.246852 0
M  V30 3 C 10.096496 7.000157 -6.730423 0
M  V30 4 C 9.090803 7.082256 -7.890884 0
M  V30 5 C 9.130410 5.798536 -8.735328 0
M  V30 6 N 8.485974 5.924286 -10.069664 0 CFG=1 CHG=1
M  V30 7 C 9.293192 6.753895 -11.005923 0
M  V30 8 C 8.524600 7.138012 -12.272990 0
M  V30 9 C 8.631233 6.093006 -13.387906 0
M  V30 10 N 8.058558 4.792139 -13.075739 0
M  V30 11 C 8.589503 3.669418 -13.734632 0
M  V30 12 C 9.986578 3.478278 -13.844825 0
M  V30 13 C 10.468018 2.339926 -14.515959 0
M  V30 14 C 9.542595 1.424596 -15.045238 0
M  V30 15 Cl 10.085774 0.006831 -15.865564 0
M  V30 16 C 8.169809 1.695014 -14.884674 0
M  V30 17 N 7.698939 2.789753 -14.246825 0
M  V30 18 C 7.285000 4.570473 -11.859318 0
M  V30 19 C 8.191123 4.574243 -10.617200 0
M  V30 20 C 11.286065 8.370527 -4.918622 0
M  V30 21 C 11.501486 9.616514 -4.294683 0
M  V30 22 C 12.085968 9.675704 -3.020826 0
M  V30 23 C 12.479254 8.499976 -2.361999 0
M  V30 24 F 13.040357 8.572300 -1.134481 0
M  V30 25 C 12.279863 7.251671 -2.979044 0
M  V30 26 C 11.686574 7.184216 -4.254415 0
M  V30 27 H 9.636446 6.467753 -5.897669 0
M  V30 28 H 10.968400 6.420347 -7.033052 0
M  V30 29 H 9.281905 7.959629 -8.502777 0
M  V30 30 H 8.090532 7.228341 -7.481420 0
M  V30 31 H 8.644844 5.014351 -8.150897 0
M  V30 32 H 10.160468 5.468141 -8.885913 0
M  V30 33 H 10.225681 6.245412 -11.256927 0
M  V30 34 H 9.586445 7.687064 -10.531970 0
M  V30 35 H 8.945822 8.071071 -12.645968 0
M  V30 36 H 7.482441 7.366417 -12.065606 0
M  V30 37 H 9.671323 6.009137 -13.697940 0
M  V30 38 H 8.086040 6.459490 -14.247197 0
M  V30 39 H 10.691997 4.170268 -13.411610 0
M  V30 40 H 11.530342 2.167773 -14.612465 0
M  V30 41 H 7.428276 1.015478 -15.277800 0
M  V30 42 H 6.486012 5.307371 -11.768097 0
M  V30 43 H 6.782468 3.605805 -11.932386 0
M  V30 44 H 9.138937 4.077098 -10.830898 0
M  V30 45 H 7.686023 3.995932 -9.845483 0
M  V30 46 H 11.198026 10.536273 -4.775288 0
M  V30 47 H 12.207053 10.631439 -2.541712 0
M  V30 48 H 12.576033 6.344392 -2.472548 0
M  V30 49 H 11.543854 6.210747 -4.701525 0
M  V30 50 H 7.600609 6.415905 -9.937536 0
M  V30 END ATOM
M  V30 BEGIN BOND
M  V30 1 2 2 1
M  V30 2 1 3 2
M  V30 3 1 4 3
M  V30 4 1 5 4
M  V30 5 1 6 5
M  V30 6 1 7 6
M  V30 7 1 8 7
M  V30 8 1 9 8
M  V30 9 1 10 9
M  V30 10 1 11 10
M  V30 11 1 12 11
M  V30 12 2 13 12
M  V30 13 1 14 13
M  V30 14 1 15 14
M  V30 15 2 16 14
M  V30 16 2 17 11
M  V30 17 1 17 16
M  V30 18 1 18 10
M  V30 19 1 19 6
M  V30 20 1 19 18
M  V30 21 1 20 2
M  V30 22 1 21 20
M  V30 23 2 22 21
M  V30 24 1 23 22
M  V30 25 1 24 23
M  V30 26 2 25 23
M  V30 27 2 26 20
M  V30 28 1 26 25
M  V30 29 1 27 3
M  V30 30 1 28 3
M  V30 31 1 29 4
M  V30 32 1 30 4
M  V30 33 1 31 5
M  V30 34 1 32 5
M  V30 35 1 33 7
M  V30 36 1 34 7
M  V30 37 1 35 8
M  V30 38 1 36 8
M  V30 39 1 37 9
M  V30 40 1 38 9
M  V30 41 1 39 12
M  V30 42 1 40 13
M  V30 43 1 41 16
M  V30 44 1 42 18
M  V30 45 1 43 18
M  V30 46 1 44 19
M  V30 47 1 45 19
M  V30 48 1 46 21
M  V30 49 1 47 22
M  V30 50 1 48 25
M  V30 51 1 49 26
M  V30 52 1 6 50 CFG=1
M  V30 END BOND
M  V30 END CTAB
M  END
>  <b_m_subgroup_collapsed>  (556) 
0

>  <r_i_docking_score>  (556) 
-8.1411351431266006

>  <s_m_subgroup_title>  (556) 
glide-dock_SP_D22_pv

>  <s_m_subgroupid>  (556) 
glide-dock_SP_D22_pv

>  <Molecule ChEMBL ID>  (556) 
CHEMBL4574793

>  <Standard Type>  (556) 
Ki

>  <Standard Value>  (556) 
41.0

>  <label>  (556) 
1

$$$$
CHEMBL4242192
     RDKit          3D

  0  0  0  0  0  0  0  0  0  0999 V3000
M  V30 BEGIN CTAB
M  V30 COUNTS 63 65 0 0 1
M  V30 BEGIN ATOM
M  V30 1 C 3.686145 -0.628740 -18.273575 0
M  V30 2 C 3.964322 -1.238812 -17.253101 0
M  V30 3 C 4.271994 -2.011171 -16.037157 0
M  V30 4 C 5.487398 -1.521576 -15.233434 0
M  V30 5 C 5.276782 -0.227390 -14.445199 0
M  V30 6 O 4.257718 -0.070453 -13.773130 0
M  V30 7 N 6.291205 0.648913 -14.540942 0
M  V30 8 C 6.488517 1.916793 -13.929440 0
M  V30 9 C 5.591165 2.532855 -13.022957 0
M  V30 10 C 5.916779 3.774509 -12.436441 0
M  V30 11 C 7.131992 4.415957 -12.753123 0
M  V30 12 C 7.477682 5.770750 -12.165512 0
M  V30 13 C 8.471403 5.705953 -10.977057 0
M  V30 14 N 8.886032 7.053554 -10.459643 0 CFG=2 CHG=1
M  V30 15 C 9.508321 7.918283 -11.512542 0
M  V30 16 C 10.840478 7.382265 -12.100725 0
M  V30 17 C 12.116911 7.814855 -11.358985 0
M  V30 18 C 9.651165 7.057682 -9.163156 0 CFG=2
M  V30 19 C 8.980530 6.288003 -8.015237 0
M  V30 20 C 9.915867 6.172329 -6.811264 0
M  V30 21 C 10.616562 7.443685 -6.395937 0
M  V30 22 C 11.285857 7.531055 -5.146960 0
M  V30 23 O 11.299599 6.494838 -4.266311 0
M  V30 24 C 11.963742 8.705153 -4.781084 0
M  V30 25 C 11.981390 9.786343 -5.669965 0
M  V30 26 C 11.286016 9.715937 -6.882116 0
M  V30 27 C 10.618698 8.545379 -7.272195 0
M  V30 28 C 9.933495 8.493183 -8.631469 0
M  V30 29 C 8.018090 3.810977 -13.665820 0
M  V30 30 C 7.696387 2.572330 -14.248413 0
M  V30 31 H 3.411223 -0.101634 -19.159527 0
M  V30 32 H 3.370386 -2.057781 -15.425723 0
M  V30 33 H 4.486040 -3.028716 -16.366724 0
M  V30 34 H 5.748960 -2.285925 -14.502923 0
M  V30 35 H 6.346485 -1.427450 -15.899453 0
M  V30 36 H 7.046261 0.346000 -15.138424 0
M  V30 37 H 4.655505 2.071611 -12.750051 0
M  V30 38 H 5.232033 4.232415 -11.737566 0
M  V30 39 H 7.868276 6.345516 -13.002118 0
M  V30 40 H 6.557855 6.264942 -11.850564 0
M  V30 41 H 7.946373 5.149005 -10.206519 0
M  V30 42 H 9.345503 5.107430 -11.230762 0
M  V30 43 H 8.797571 8.058012 -12.322371 0
M  V30 44 H 9.626383 8.944754 -11.174087 0
M  V30 45 H 10.835995 6.303505 -12.243553 0
M  V30 46 H 10.923203 7.772288 -13.110700 0
M  V30 47 H 12.982123 7.707283 -12.012636 0
M  V30 48 H 12.082270 8.859471 -11.047022 0
M  V30 49 H 12.310925 7.216837 -10.471803 0
M  V30 50 H 10.596094 6.552402 -9.350867 0
M  V30 51 H 8.086027 6.817508 -7.702524 0
M  V30 52 H 8.678909 5.277443 -8.279534 0
M  V30 53 H 10.687828 5.440180 -7.046898 0
M  V30 54 H 9.330329 5.835853 -5.966376 0
M  V30 55 H 10.870296 5.712688 -4.582976 0
M  V30 56 H 12.489471 8.765070 -3.839005 0
M  V30 57 H 12.537128 10.674801 -5.446921 0
M  V30 58 H 11.286123 10.572304 -7.520423 0
M  V30 59 H 10.581423 9.049356 -9.304480 0
M  V30 60 H 8.999173 9.052364 -8.555889 0
M  V30 61 H 8.948922 4.294613 -13.924080 0
M  V30 62 H 8.396082 2.120548 -14.936343 0
M  V30 63 H 7.972437 7.480322 -10.247122 0
M  V30 END ATOM
M  V30 BEGIN BOND
M  V30 1 3 2 1
M  V30 2 1 3 2
M  V30 3 1 4 3
M  V30 4 1 5 4
M  V30 5 2 6 5
M  V30 6 1 7 5
M  V30 7 1 8 7
M  V30 8 1 9 8
M  V30 9 2 10 9
M  V30 10 1 11 10
M  V30 11 1 12 11
M  V30 12 1 13 12
M  V30 13 1 14 13
M  V30 14 1 15 14
M  V30 15 1 16 15
M  V30 16 1 17 16
M  V30 17 1 18 14
M  V30 18 1 19 18
M  V30 19 1 20 19
M  V30 20 1 21 20
M  V30 21 2 22 21
M  V30 22 1 23 22
M  V30 23 1 24 22
M  V30 24 2 25 24
M  V30 25 1 26 25
M  V30 26 1 27 21
M  V30 27 2 27 26
M  V30 28 1 28 18
M  V30 29 1 28 27
M  V30 30 2 29 11
M  V30 31 2 30 8
M  V30 32 1 30 29
M  V30 33 1 31 1
M  V30 34 1 32 3
M  V30 35 1 33 3
M  V30 36 1 34 4
M  V30 37 1 35 4
M  V30 38 1 36 7
M  V30 39 1 37 9
M  V30 40 1 38 10
M  V30 41 1 39 12
M  V30 42 1 40 12
M  V30 43 1 41 13
M  V30 44 1 42 13
M  V30 45 1 43 15
M  V30 46 1 44 15
M  V30 47 1 45 16
M  V30 48 1 46 16
M  V30 49 1 47 17
M  V30 50 1 48 17
M  V30 51 1 49 17
M  V30 52 1 18 50 CFG=3
M  V30 53 1 51 19
M  V30 54 1 52 19
M  V30 55 1 53 20
M  V30 56 1 54 20
M  V30 57 1 55 23
M  V30 58 1 56 24
M  V30 59 1 57 25
M  V30 60 1 58 26
M  V30 61 1 59 28
M  V30 62 1 60 28
M  V30 63 1 61 29
M  V30 64 1 62 30
M  V30 65 1 14 63 CFG=1
M  V30 END BOND
M  V30 END CTAB
M  END
>  <b_m_subgroup_collapsed>  (557) 
0

>  <r_i_docking_score>  (557) 
-8.1386420330272298

>  <s_m_subgroup_title>  (557) 
glide-dock_SP_D22_pv

>  <s_m_subgroupid>  (557) 
glide-dock_SP_D22_pv

>  <Molecule ChEMBL ID>  (557) 
CHEMBL4242192

>  <Standard Type>  (557) 
Ki

>  <Standard Value>  (557) 
17.0

>  <label>  (557) 
1

$$$$
CHEMBL6064944
     RDKit          3D

  0  0  0  0  0  0  0  0  0  0999 V3000
M  V30 BEGIN CTAB
M  V30 COUNTS 54 56 0 0 1
M  V30 BEGIN ATOM
M  V30 1 C 11.804588 6.735338 -3.462404 0
M  V30 2 C 11.554193 7.675639 -4.622673 0
M  V30 3 C 11.964188 9.020786 -4.557191 0
M  V30 4 C 11.709913 9.841844 -5.668007 0
M  V30 5 C 11.058088 9.294136 -6.785656 0
M  V30 6 C 10.663402 7.939007 -6.762714 0
M  V30 7 C 9.979005 7.328750 -7.937871 0
M  V30 8 C 9.587639 6.036793 -7.914158 0
M  V30 9 C 8.927464 5.284732 -9.053278 0
M  V30 10 N 8.486042 6.172280 -10.160934 0 CFG=2 CHG=1
M  V30 11 C 8.043829 5.424371 -11.370076 0
M  V30 12 C 9.204416 4.793564 -12.171016 0
M  V30 13 N 8.728168 4.010726 -13.302404 0
M  V30 14 C 9.549083 3.331380 -14.117029 0
M  V30 15 O 10.773627 3.372647 -14.003800 0
M  V30 16 C 8.886894 2.477329 -15.211457 0
M  V30 17 C 9.308709 2.907129 -16.638010 0
M  V30 18 C 10.701497 2.399285 -17.053394 0
M  V30 19 C 10.822637 0.879507 -16.862915 0
M  V30 20 F 9.985925 0.254958 -17.693796 0
M  V30 21 F 12.064442 0.503743 -17.165106 0
M  V30 22 C 10.508442 0.473267 -15.416016 0
M  V30 23 C 9.111143 0.961427 -14.989180 0
M  V30 24 C 9.453673 7.259527 -10.442466 0
M  V30 25 C 9.703488 8.137294 -9.203488 0
M  V30 26 N 10.914417 7.149695 -5.689242 0
M  V30 27 H 12.567710 7.128375 -2.790832 0
M  V30 28 H 10.893000 6.572244 -2.888434 0
M  V30 29 H 12.143325 5.771965 -3.833293 0
M  V30 30 H 12.465168 9.412991 -3.684461 0
M  V30 31 H 12.014540 10.877237 -5.675872 0
M  V30 32 H 10.886000 9.916784 -7.642840 0
M  V30 33 H 9.774404 5.428368 -7.046874 0
M  V30 34 H 9.655258 4.552179 -9.401844 0
M  V30 35 H 8.084149 4.722222 -8.659091 0
M  V30 36 H 7.331506 4.655786 -11.068053 0
M  V30 37 H 7.490163 6.113115 -12.008764 0
M  V30 38 H 9.869346 5.566158 -12.559110 0
M  V30 39 H 9.807195 4.139188 -11.540757 0
M  V30 40 H 7.731540 3.935380 -13.445122 0
M  V30 41 H 7.812037 2.651743 -15.133026 0
M  V30 42 H 8.571041 2.532417 -17.348280 0
M  V30 43 H 9.283130 3.994293 -16.728977 0
M  V30 44 H 10.893863 2.659324 -18.095308 0
M  V30 45 H 11.473610 2.901948 -16.470793 0
M  V30 46 H 10.559782 -0.611408 -15.314178 0
M  V30 47 H 11.278697 0.879088 -14.755520 0
M  V30 48 H 8.934828 0.701715 -13.943369 0
M  V30 49 H 8.361639 0.409017 -15.557693 0
M  V30 50 H 9.088044 7.878260 -11.263748 0
M  V30 51 H 10.404121 6.828534 -10.760870 0
M  V30 52 H 8.864582 8.809333 -9.017542 0
M  V30 53 H 10.568646 8.756050 -9.438351 0
M  V30 54 H 7.646216 6.669837 -9.847151 0
M  V30 END ATOM
M  V30 BEGIN BOND
M  V30 1 1 2 1
M  V30 2 1 3 2
M  V30 3 2 4 3
M  V30 4 1 5 4
M  V30 5 2 6 5
M  V30 6 1 7 6
M  V30 7 2 8 7
M  V30 8 1 9 8
M  V30 9 1 10 9
M  V30 10 1 11 10
M  V30 11 1 12 11
M  V30 12 1 13 12
M  V30 13 1 14 13
M  V30 14 2 15 14
M  V30 15 1 16 14
M  V30 16 1 17 16
M  V30 17 1 18 17
M  V30 18 1 19 18
M  V30 19 1 20 19
M  V30 20 1 21 19
M  V30 21 1 22 19
M  V30 22 1 23 16
M  V30 23 1 23 22
M  V30 24 1 24 10
M  V30 25 1 25 7
M  V30 26 1 25 24
M  V30 27 2 26 2
M  V30 28 1 26 6
M  V30 29 1 27 1
M  V30 30 1 28 1
M  V30 31 1 29 1
M  V30 32 1 30 3
M  V30 33 1 31 4
M  V30 34 1 32 5
M  V30 35 1 33 8
M  V30 36 1 34 9
M  V30 37 1 35 9
M  V30 38 1 36 11
M  V30 39 1 37 11
M  V30 40 1 38 12
M  V30 41 1 39 12
M  V30 42 1 40 13
M  V30 43 1 41 16
M  V30 44 1 42 17
M  V30 45 1 43 17
M  V30 46 1 44 18
M  V30 47 1 45 18
M  V30 48 1 46 22
M  V30 49 1 47 22
M  V30 50 1 48 23
M  V30 51 1 49 23
M  V30 52 1 50 24
M  V30 53 1 51 24
M  V30 54 1 52 25
M  V30 55 1 53 25
M  V30 56 1 10 54 CFG=1
M  V30 END BOND
M  V30 END CTAB
M  END
>  <b_m_subgroup_collapsed>  (558) 
0

>  <r_i_docking_score>  (558) 
-8.1385020220475504

>  <s_m_subgroup_title>  (558) 
glide-dock_SP_D22_pv

>  <s_m_subgroupid>  (558) 
glide-dock_SP_D22_pv

>  <Molecule ChEMBL ID>  (558) 
CHEMBL6064944

>  <Standard Type>  (558) 
Ki

>  <Standard Value>  (558) 
0.1

>  <label>  (558) 
1

$$$$
CHEMBL134571
     RDKit          3D

  0  0  0  0  0  0  0  0  0  0999 V3000
M  V30 BEGIN CTAB
M  V30 COUNTS 35 36 0 0 1
M  V30 BEGIN ATOM
M  V30 1 C 9.426303 8.462140 -10.974199 0
M  V30 2 C 9.294013 7.016924 -10.473392 0
M  V30 3 N 8.886343 6.880852 -9.044450 0 CFG=1 CHG=1
M  V30 4 C 8.516983 5.469425 -8.769445 0
M  V30 5 C 9.854068 7.495777 -8.069109 0 CFG=1
M  V30 6 C 9.507707 8.955066 -7.715876 0
M  V30 7 C 10.703945 9.609450 -6.998837 0
M  V30 8 C 11.174526 8.812468 -5.806726 0
M  V30 9 C 11.895658 9.464053 -4.789617 0
M  V30 10 C 12.342536 8.755840 -3.657743 0
M  V30 11 C 12.066199 7.381414 -3.546345 0
M  V30 12 O 12.475450 6.679412 -2.450557 0
M  V30 13 C 11.335542 6.735191 -4.562027 0
M  V30 14 C 10.886009 7.437133 -5.696805 0
M  V30 15 C 10.051813 6.713426 -6.744371 0
M  V30 16 H 9.606187 8.477111 -12.050406 0
M  V30 17 H 8.516133 9.035925 -10.788231 0
M  V30 18 H 10.268185 8.973074 -10.507901 0
M  V30 19 H 10.227358 6.479012 -10.643702 0
M  V30 20 H 8.541920 6.533577 -11.100296 0
M  V30 21 H 9.393245 4.820340 -8.739364 0
M  V30 22 H 7.965393 5.369721 -7.835731 0
M  V30 23 H 7.862606 5.088044 -9.553569 0
M  V30 24 H 10.830446 7.497853 -8.557091 0
M  V30 25 H 9.244821 9.542609 -8.589813 0
M  V30 26 H 8.625234 8.971730 -7.073267 0
M  V30 27 H 10.485846 10.614168 -6.646800 0
M  V30 28 H 11.541525 9.706867 -7.688985 0
M  V30 29 H 12.085988 10.519340 -4.888477 0
M  V30 30 H 12.887042 9.267703 -2.877252 0
M  V30 31 H 12.133100 5.797980 -2.422760 0
M  V30 32 H 11.092842 5.695190 -4.463630 0
M  V30 33 H 10.547782 5.769200 -6.953670 0
M  V30 34 H 9.092607 6.496883 -6.272928 0
M  V30 35 H 7.998404 7.374372 -8.962637 0
M  V30 END ATOM
M  V30 BEGIN BOND
M  V30 1 1 2 1
M  V30 2 1 3 2
M  V30 3 1 4 3
M  V30 4 1 5 3
M  V30 5 1 6 5
M  V30 6 1 7 6
M  V30 7 1 8 7
M  V30 8 1 9 8
M  V30 9 2 10 9
M  V30 10 1 11 10
M  V30 11 1 12 11
M  V30 12 2 13 11
M  V30 13 2 14 8
M  V30 14 1 14 13
M  V30 15 1 15 5
M  V30 16 1 15 14
M  V30 17 1 16 1
M  V30 18 1 17 1
M  V30 19 1 18 1
M  V30 20 1 19 2
M  V30 21 1 20 2
M  V30 22 1 21 4
M  V30 23 1 22 4
M  V30 24 1 23 4
M  V30 25 1 5 24 CFG=3
M  V30 26 1 25 6
M  V30 27 1 26 6
M  V30 28 1 27 7
M  V30 29 1 28 7
M  V30 30 1 29 9
M  V30 31 1 30 10
M  V30 32 1 31 12
M  V30 33 1 32 13
M  V30 34 1 33 15
M  V30 35 1 34 15
M  V30 36 1 3 35 CFG=3
M  V30 END BOND
M  V30 END CTAB
M  END
>  <b_m_subgroup_collapsed>  (559) 
0

>  <r_i_docking_score>  (559) 
-8.1364853523927803

>  <s_m_subgroup_title>  (559) 
glide-dock_SP_D22_pv

>  <s_m_subgroupid>  (559) 
glide-dock_SP_D22_pv

>  <Molecule ChEMBL ID>  (559) 
CHEMBL134571

>  <Standard Type>  (559) 
Ki

>  <Standard Value>  (559) 
2.5

>  <label>  (559) 
1

$$$$
CHEMBL57019
     RDKit          3D

  0  0  0  0  0  0  0  0  0  0999 V3000
M  V30 BEGIN CTAB
M  V30 COUNTS 54 57 0 0 1
M  V30 BEGIN ATOM
M  V30 1 C 12.484979 5.523913 -14.245510 0
M  V30 2 O 11.179139 5.126509 -13.856553 0
M  V30 3 C 10.632187 3.984205 -14.410941 0
M  V30 4 C 11.338707 3.188623 -15.349026 0
M  V30 5 C 10.749124 2.051006 -15.928644 0
M  V30 6 C 11.464147 1.283661 -16.870810 0
M  V30 7 C 10.872565 0.145093 -17.450239 0
M  V30 8 C 9.564200 -0.227545 -17.087082 0
M  V30 9 C 8.844569 0.538074 -16.148842 0
M  V30 10 C 9.433311 1.681721 -15.571485 0
M  V30 11 C 8.718851 2.464135 -14.646725 0
M  V30 12 C 9.302773 3.609571 -14.058919 0
M  V30 13 C 8.449711 4.409753 -13.130555 0
M  V30 14 O 7.222772 4.474029 -13.230655 0
M  V30 15 O 9.149342 5.042395 -12.174090 0
M  V30 16 C 8.532064 6.062262 -11.410291 0
M  V30 17 C 9.596642 6.740613 -10.523927 0 CFG=1
M  V30 18 C 9.394849 8.264473 -10.444785 0
M  V30 19 C 9.296208 8.582632 -8.958449 0
M  V30 20 N 8.886112 7.320630 -8.320054 0 CFG=2 CHG=1
M  V30 21 C 8.906129 7.246953 -6.835216 0
M  V30 22 C 10.161033 7.712241 -6.085622 0
M  V30 23 C 10.488153 9.080721 -6.028039 0
M  V30 24 C 11.472201 9.561785 -5.144557 0
M  V30 25 C 12.138332 8.670523 -4.285039 0
M  V30 26 C 11.844755 7.296180 -4.348460 0
M  V30 27 C 10.885713 6.821054 -5.264982 0
M  V30 28 C 9.563612 6.245815 -9.063087 0
M  V30 29 H 12.752042 6.438225 -13.716828 0
M  V30 30 H 13.226404 4.766606 -13.988734 0
M  V30 31 H 12.534200 5.733906 -15.314289 0
M  V30 32 H 12.344589 3.435246 -15.651769 0
M  V30 33 H 12.471922 1.558424 -17.146513 0
M  V30 34 H 11.423167 -0.440914 -18.171272 0
M  V30 35 H 9.108994 -1.101777 -17.529976 0
M  V30 36 H 7.841331 0.243185 -15.877977 0
M  V30 37 H 7.708759 2.179548 -14.388387 0
M  V30 38 H 7.707243 5.666764 -10.814001 0
M  V30 39 H 8.103811 6.785595 -12.105400 0
M  V30 40 H 10.584972 6.558637 -10.946716 0
M  V30 41 H 8.486114 8.580626 -10.955719 0
M  V30 42 H 10.219873 8.802767 -10.912565 0
M  V30 43 H 8.589319 9.383185 -8.745365 0
M  V30 44 H 10.288811 8.882212 -8.625438 0
M  V30 45 H 8.644437 6.233349 -6.529109 0
M  V30 46 H 8.085578 7.876531 -6.489341 0
M  V30 47 H 9.943865 9.772529 -6.638200 0
M  V30 48 H 11.685760 10.617807 -5.106484 0
M  V30 49 H 12.878114 9.036816 -3.587230 0
M  V30 50 H 12.351269 6.603034 -3.693037 0
M  V30 51 H 10.649125 5.772402 -5.263226 0
M  V30 52 H 10.578972 6.129274 -8.679679 0
M  V30 53 H 9.054306 5.287670 -8.945209 0
M  V30 54 H 7.899309 7.230814 -8.558647 0
M  V30 END ATOM
M  V30 BEGIN BOND
M  V30 1 1 2 1
M  V30 2 1 3 2
M  V30 3 2 4 3
M  V30 4 1 5 4
M  V30 5 2 6 5
M  V30 6 1 7 6
M  V30 7 2 8 7
M  V30 8 1 9 8
M  V30 9 1 10 5
M  V30 10 2 10 9
M  V30 11 1 11 10
M  V30 12 1 12 3
M  V30 13 2 12 11
M  V30 14 1 13 12
M  V30 15 2 14 13
M  V30 16 1 15 13
M  V30 17 1 16 15
M  V30 18 1 17 16
M  V30 19 1 18 17
M  V30 20 1 19 18
M  V30 21 1 20 19
M  V30 22 1 21 20
M  V30 23 1 22 21
M  V30 24 2 23 22
M  V30 25 1 24 23
M  V30 26 2 25 24
M  V30 27 1 26 25
M  V30 28 1 27 22
M  V30 29 2 27 26
M  V30 30 1 28 17
M  V30 31 1 28 20
M  V30 32 1 29 1
M  V30 33 1 30 1
M  V30 34 1 31 1
M  V30 35 1 32 4
M  V30 36 1 33 6
M  V30 37 1 34 7
M  V30 38 1 35 8
M  V30 39 1 36 9
M  V30 40 1 37 11
M  V30 41 1 38 16
M  V30 42 1 39 16
M  V30 43 1 17 40 CFG=3
M  V30 44 1 41 18
M  V30 45 1 42 18
M  V30 46 1 43 19
M  V30 47 1 44 19
M  V30 48 1 45 21
M  V30 49 1 46 21
M  V30 50 1 47 23
M  V30 51 1 48 24
M  V30 52 1 49 25
M  V30 53 1 50 26
M  V30 54 1 51 27
M  V30 55 1 52 28
M  V30 56 1 53 28
M  V30 57 1 20 54 CFG=3
M  V30 END BOND
M  V30 END CTAB
M  END
>  <b_m_subgroup_collapsed>  (560) 
0

>  <r_i_docking_score>  (560) 
-8.13618316704442

>  <s_m_subgroup_title>  (560) 
glide-dock_SP_D22_pv

>  <s_m_subgroupid>  (560) 
glide-dock_SP_D22_pv

>  <Molecule ChEMBL ID>  (560) 
CHEMBL57019

>  <Standard Type>  (560) 
Ki

>  <Standard Value>  (560) 
10000.0

>  <label>  (560) 
0

$$$$
CHEMBL564741
     RDKit          3D

  0  0  0  0  0  0  0  0  0  0999 V3000
M  V30 BEGIN CTAB
M  V30 COUNTS 54 57 0 0 1
M  V30 BEGIN ATOM
M  V30 1 C 7.277470 4.776005 -12.608739 0
M  V30 2 C 8.469152 5.690720 -12.966184 0 CFG=2
M  V30 3 C 9.653492 4.980001 -13.638092 0
M  V30 4 C 10.945409 5.558259 -13.597568 0
M  V30 5 C 12.026148 4.960044 -14.267941 0
M  V30 6 C 11.829536 3.772055 -14.993030 0
M  V30 7 C 10.555198 3.167402 -15.038823 0
M  V30 8 C 10.340518 1.870399 -15.806833 0
M  V30 9 F 10.378669 0.840162 -14.962337 0
M  V30 10 F 9.155116 1.883623 -16.416843 0
M  V30 11 F 11.284254 1.694268 -16.733524 0
M  V30 12 C 9.475738 3.775967 -14.362391 0
M  V30 13 N 8.859910 6.520631 -11.818897 0
M  V30 14 C 8.882729 7.970581 -11.935711 0
M  V30 15 C 9.264581 8.431121 -10.538910 0
M  V30 16 N 9.401727 7.180850 -9.815549 0
M  V30 17 C 9.497516 7.146930 -8.362186 0
M  V30 18 C 10.298771 8.325776 -7.791442 0
M  V30 19 N 10.343022 8.267436 -6.319872 0 CHG=1
M  V30 20 C 10.875582 9.500966 -5.673511 0
M  V30 21 C 11.496710 8.971524 -4.419621 0
M  V30 22 C 11.841796 9.680955 -3.258527 0
M  V30 23 C 12.368233 8.954793 -2.170959 0
M  V30 24 C 12.485656 7.548719 -2.246123 0
M  V30 25 C 12.087564 6.849007 -3.399980 0
M  V30 26 C 11.609910 7.593726 -4.483627 0
M  V30 27 C 11.042886 7.072896 -5.766109 0
M  V30 28 C 9.196380 6.105000 -10.586563 0
M  V30 29 O 9.286072 4.936835 -10.210193 0
M  V30 30 H 6.801675 4.364730 -13.498715 0
M  V30 31 H 7.577780 3.944500 -11.971669 0
M  V30 32 H 6.506640 5.335320 -12.076162 0
M  V30 33 H 8.086261 6.376273 -13.722148 0
M  V30 34 H 11.123135 6.483718 -13.069223 0
M  V30 35 H 13.004951 5.417879 -14.236480 0
M  V30 36 H 12.665477 3.324619 -15.509129 0
M  V30 37 H 8.506607 3.304004 -14.418712 0
M  V30 38 H 9.634599 8.299973 -12.646862 0
M  V30 39 H 7.907757 8.355344 -12.241219 0
M  V30 40 H 8.488829 9.060924 -10.100801 0
M  V30 41 H 10.210117 8.973152 -10.545995 0
M  V30 42 H 9.949084 6.200996 -8.058013 0
M  V30 43 H 8.486100 7.152118 -7.956172 0
M  V30 44 H 9.826544 9.268664 -8.069267 0
M  V30 45 H 11.312142 8.337173 -8.196998 0
M  V30 46 H 10.087990 10.217079 -5.446457 0
M  V30 47 H 11.643367 9.983778 -6.281633 0
M  V30 48 H 11.686000 10.745090 -3.178075 0
M  V30 49 H 12.654461 9.473080 -1.267037 0
M  V30 50 H 12.885332 6.995229 -1.412521 0
M  V30 51 H 12.150967 5.774510 -3.447093 0
M  V30 52 H 11.846294 6.726213 -6.416193 0
M  V30 53 H 10.347345 6.250966 -5.590956 0
M  V30 54 H 9.386177 8.186117 -6.004479 0
M  V30 END ATOM
M  V30 BEGIN BOND
M  V30 1 1 2 1
M  V30 2 1 3 2
M  V30 3 1 4 3
M  V30 4 2 5 4
M  V30 5 1 6 5
M  V30 6 2 7 6
M  V30 7 1 8 7
M  V30 8 1 9 8
M  V30 9 1 10 8
M  V30 10 1 11 8
M  V30 11 2 12 3
M  V30 12 1 12 7
M  V30 13 1 13 2
M  V30 14 1 14 13
M  V30 15 1 15 14
M  V30 16 1 16 15
M  V30 17 1 17 16
M  V30 18 1 18 17
M  V30 19 1 19 18
M  V30 20 1 20 19
M  V30 21 1 21 20
M  V30 22 2 22 21
M  V30 23 1 23 22
M  V30 24 2 24 23
M  V30 25 1 25 24
M  V30 26 1 26 21
M  V30 27 2 26 25
M  V30 28 1 27 19
M  V30 29 1 27 26
M  V30 30 1 28 13
M  V30 31 1 28 16
M  V30 32 2 29 28
M  V30 33 1 30 1
M  V30 34 1 31 1
M  V30 35 1 32 1
M  V30 36 1 2 33 CFG=3
M  V30 37 1 34 4
M  V30 38 1 35 5
M  V30 39 1 36 6
M  V30 40 1 37 12
M  V30 41 1 38 14
M  V30 42 1 39 14
M  V30 43 1 40 15
M  V30 44 1 41 15
M  V30 45 1 42 17
M  V30 46 1 43 17
M  V30 47 1 44 18
M  V30 48 1 45 18
M  V30 49 1 46 20
M  V30 50 1 47 20
M  V30 51 1 48 22
M  V30 52 1 49 23
M  V30 53 1 50 24
M  V30 54 1 51 25
M  V30 55 1 52 27
M  V30 56 1 53 27
M  V30 57 1 54 19
M  V30 END BOND
M  V30 END CTAB
M  END
>  <b_m_subgroup_collapsed>  (561) 
0

>  <r_i_docking_score>  (561) 
-8.1353115511308403

>  <s_m_subgroup_title>  (561) 
glide-dock_SP_D22_pv

>  <s_m_subgroupid>  (561) 
glide-dock_SP_D22_pv

>  <Molecule ChEMBL ID>  (561) 
CHEMBL564741

>  <Standard Type>  (561) 
Ki

>  <Standard Value>  (561) 
10000.0

>  <label>  (561) 
0

$$$$
CHEMBL311772
     RDKit          3D

  0  0  0  0  0  0  0  0  0  0999 V3000
M  V30 BEGIN CTAB
M  V30 COUNTS 60 63 0 0 1
M  V30 BEGIN ATOM
M  V30 1 O 4.972940 -0.312367 -13.929422 0
M  V30 2 C 5.562790 -0.014307 -14.971088 0
M  V30 3 N 6.487261 0.949666 -15.042711 0
M  V30 4 C 6.878542 1.812677 -13.942816 0 CFG=1
M  V30 5 C 8.258384 2.431860 -14.268337 0
M  V30 6 C 8.707513 3.549438 -13.304395 0
M  V30 7 C 7.580416 4.565976 -13.005006 0 CFG=2
M  V30 8 C 7.969809 5.639937 -11.979690 0
M  V30 9 C 8.383053 5.098657 -10.597391 0
M  V30 10 N 8.487451 6.172226 -9.582237 0 CHG=1
M  V30 11 C 8.602877 5.601362 -8.212691 0
M  V30 12 C 8.912285 6.660095 -7.141490 0
M  V30 13 N 10.087951 7.429851 -7.523546 0
M  V30 14 C 10.829735 8.055737 -6.497394 0
M  V30 15 C 11.115153 7.377052 -5.284686 0
M  V30 16 C 11.842742 8.004482 -4.252655 0
M  V30 17 C 12.333581 9.310751 -4.435203 0
M  V30 18 C 12.085654 9.981825 -5.648201 0
M  V30 19 C 11.334194 9.368178 -6.657281 0
M  V30 20 C 9.927966 8.102875 -8.809001 0
M  V30 21 C 9.605505 7.098539 -9.916980 0
M  V30 22 C 6.258543 3.877724 -12.624351 0
M  V30 23 C 5.830006 2.911103 -13.723220 0
M  V30 24 C 5.228983 -0.631957 -16.265043 0
M  V30 25 C 5.914011 -0.722309 -17.452002 0
M  V30 26 C 5.186826 -1.415807 -18.462969 0
M  V30 27 C 3.963212 -1.851475 -18.030176 0
M  V30 28 S 3.685833 -1.427624 -16.363586 0
M  V30 29 H 6.911594 1.122434 -15.941675 0
M  V30 30 H 6.885981 1.187945 -13.047224 0
M  V30 31 H 9.017410 1.650348 -14.306924 0
M  V30 32 H 8.215911 2.863662 -15.268593 0
M  V30 33 H 9.107642 3.111093 -12.393011 0
M  V30 34 H 9.554599 4.078732 -13.741047 0
M  V30 35 H 7.393080 5.094266 -13.938257 0
M  V30 36 H 8.779658 6.230890 -12.408847 0
M  V30 37 H 7.129080 6.324971 -11.851997 0
M  V30 38 H 7.683323 4.346164 -10.247031 0
M  V30 39 H 9.341163 4.580690 -10.667832 0
M  V30 40 H 7.686606 5.076293 -7.951505 0
M  V30 41 H 9.400476 4.856550 -8.207108 0
M  V30 42 H 8.085174 7.358948 -7.041824 0
M  V30 43 H 9.015005 6.173216 -6.175577 0
M  V30 44 H 10.791308 6.359827 -5.123908 0
M  V30 45 H 12.043710 7.472394 -3.333075 0
M  V30 46 H 12.915624 9.778155 -3.653486 0
M  V30 47 H 12.477282 10.969566 -5.842364 0
M  V30 48 H 11.169758 9.938361 -7.554059 0
M  V30 49 H 9.135572 8.849199 -8.729924 0
M  V30 50 H 10.841795 8.616896 -9.107069 0
M  V30 51 H 10.501940 6.513562 -10.126627 0
M  V30 52 H 9.376718 7.658140 -10.822290 0
M  V30 53 H 6.348713 3.344034 -11.681664 0
M  V30 54 H 5.476089 4.623677 -12.476518 0
M  V30 55 H 5.685883 3.471091 -14.646297 0
M  V30 56 H 4.875626 2.464830 -13.448583 0
M  V30 57 H 6.902194 -0.322975 -17.630142 0
M  V30 58 H 5.580157 -1.575997 -19.454868 0
M  V30 59 H 3.213526 -2.411408 -18.570620 0
M  V30 60 H 7.629588 6.729432 -9.616737 0
M  V30 END ATOM
M  V30 BEGIN BOND
M  V30 1 2 2 1
M  V30 2 1 3 2
M  V30 3 1 4 3
M  V30 4 1 5 4
M  V30 5 1 6 5
M  V30 6 1 7 6
M  V30 7 1 8 7
M  V30 8 1 9 8
M  V30 9 1 10 9
M  V30 10 1 11 10
M  V30 11 1 12 11
M  V30 12 1 13 12
M  V30 13 1 14 13
M  V30 14 2 15 14
M  V30 15 1 16 15
M  V30 16 2 17 16
M  V30 17 1 18 17
M  V30 18 1 19 14
M  V30 19 2 19 18
M  V30 20 1 20 13
M  V30 21 1 21 10
M  V30 22 1 21 20
M  V30 23 1 22 7
M  V30 24 1 23 4
M  V30 25 1 23 22
M  V30 26 1 24 2
M  V30 27 2 25 24
M  V30 28 1 26 25
M  V30 29 2 27 26
M  V30 30 1 28 24
M  V30 31 1 28 27
M  V30 32 1 29 3
M  V30 33 1 4 30 CFG=1
M  V30 34 1 31 5
M  V30 35 1 32 5
M  V30 36 1 33 6
M  V30 37 1 34 6
M  V30 38 1 7 35 CFG=3
M  V30 39 1 36 8
M  V30 40 1 37 8
M  V30 41 1 38 9
M  V30 42 1 39 9
M  V30 43 1 40 11
M  V30 44 1 41 11
M  V30 45 1 42 12
M  V30 46 1 43 12
M  V30 47 1 44 15
M  V30 48 1 45 16
M  V30 49 1 46 17
M  V30 50 1 47 18
M  V30 51 1 48 19
M  V30 52 1 49 20
M  V30 53 1 50 20
M  V30 54 1 51 21
M  V30 55 1 52 21
M  V30 56 1 53 22
M  V30 57 1 54 22
M  V30 58 1 55 23
M  V30 59 1 56 23
M  V30 60 1 57 25
M  V30 61 1 58 26
M  V30 62 1 59 27
M  V30 63 1 60 10
M  V30 END BOND
M  V30 END CTAB
M  END
>  <b_m_subgroup_collapsed>  (562) 
0

>  <r_i_docking_score>  (562) 
-8.1349003081311295

>  <s_m_subgroup_title>  (562) 
glide-dock_SP_D22_pv

>  <s_m_subgroupid>  (562) 
glide-dock_SP_D22_pv

>  <Molecule ChEMBL ID>  (562) 
CHEMBL311772

>  <Standard Type>  (562) 
Ki

>  <Standard Value>  (562) 
40.0

>  <label>  (562) 
1

$$$$
CHEMBL352182
     RDKit          3D

  0  0  0  0  0  0  0  0  0  0999 V3000
M  V30 BEGIN CTAB
M  V30 COUNTS 59 63 0 0 1
M  V30 BEGIN ATOM
M  V30 1 N 11.465656 10.676497 -6.246797 0
M  V30 2 C 11.389880 9.369646 -5.780854 0
M  V30 3 C 11.869508 9.116001 -4.486016 0
M  V30 4 C 11.821621 7.815406 -3.974982 0
M  V30 5 Br 12.481666 7.482871 -2.245038 0
M  V30 6 C 11.286034 6.762023 -4.728238 0
M  V30 7 C 10.814110 7.002020 -6.027161 0
M  V30 8 C 10.874164 8.303416 -6.560411 0
M  V30 9 C 10.385365 8.498139 -7.935512 0
M  V30 10 O 9.286479 8.972335 -8.201571 0
M  V30 11 C 11.376757 8.076440 -9.021042 0
M  V30 12 C 11.144004 8.700529 -10.411791 0
M  V30 13 C 9.832570 8.361625 -11.176858 0
M  V30 14 N 9.817806 7.066093 -11.893530 0 CFG=1 CHG=1
M  V30 15 C 10.934569 6.873768 -12.854997 0
M  V30 16 C 10.622291 5.700130 -13.790981 0
M  V30 17 C 10.490827 4.404767 -12.987096 0 CFG=1
M  V30 18 C 9.539216 4.583925 -11.800357 0 CFG=1
M  V30 19 C 9.640445 5.896306 -11.010369 0
M  V30 20 C 8.213440 4.287459 -12.429070 0
M  V30 21 C 6.899820 4.587801 -12.043317 0
M  V30 22 C 5.848526 3.974197 -12.747119 0
M  V30 23 C 6.118057 3.070020 -13.800491 0
M  V30 24 C 7.427685 2.772105 -14.247425 0
M  V30 25 C 8.442822 3.449041 -13.526765 0
M  V30 26 N 9.851941 3.346792 -13.761356 0
M  V30 27 C 10.298955 3.001383 -15.107857 0
M  V30 28 C 10.426252 1.485263 -15.325396 0
M  V30 29 C 9.171173 0.680685 -14.973052 0
M  V30 30 S 7.667871 1.540677 -15.491554 0
M  V30 31 H 11.684814 11.426840 -5.607486 0
M  V30 32 H 10.908660 10.953066 -7.043358 0
M  V30 33 H 12.279700 9.908766 -3.878702 0
M  V30 34 H 11.243953 5.772328 -4.304123 0
M  V30 35 H 10.405520 6.183793 -6.602217 0
M  V30 36 H 12.364355 8.393375 -8.680171 0
M  V30 37 H 11.430813 6.992129 -9.049865 0
M  V30 38 H 11.166265 9.772678 -10.246346 0
M  V30 39 H 12.018544 8.517597 -11.033820 0
M  V30 40 H 8.945056 8.435961 -10.550542 0
M  V30 41 H 9.685565 9.111793 -11.949869 0
M  V30 42 H 11.113783 7.772589 -13.442673 0
M  V30 43 H 11.864708 6.673954 -12.322364 0
M  V30 44 H 9.702396 5.854501 -14.352189 0
M  V30 45 H 11.417565 5.605113 -14.530557 0
M  V30 46 H 11.494814 4.172025 -12.659989 0
M  V30 47 H 9.711771 3.772213 -11.093646 0
M  V30 48 H 10.486010 5.805548 -10.343672 0
M  V30 49 H 8.768633 6.031281 -10.366348 0
M  V30 50 H 6.693715 5.231172 -11.198674 0
M  V30 51 H 4.830160 4.163814 -12.447211 0
M  V30 52 H 5.286161 2.556650 -14.245185 0
M  V30 53 H 9.634042 3.449173 -15.847756 0
M  V30 54 H 11.275165 3.449280 -15.287319 0
M  V30 55 H 10.681021 1.309854 -16.370888 0
M  V30 56 H 11.267070 1.103316 -14.746902 0
M  V30 57 H 9.208030 -0.302412 -15.445122 0
M  V30 58 H 9.115361 0.512493 -13.896840 0
M  V30 59 H 8.973845 7.096839 -12.449428 0
M  V30 END ATOM
M  V30 BEGIN BOND
M  V30 1 1 2 1
M  V30 2 1 3 2
M  V30 3 2 4 3
M  V30 4 1 5 4
M  V30 5 1 6 4
M  V30 6 2 7 6
M  V30 7 2 8 2
M  V30 8 1 8 7
M  V30 9 1 9 8
M  V30 10 2 10 9
M  V30 11 1 11 9
M  V30 12 1 12 11
M  V30 13 1 13 12
M  V30 14 1 14 13
M  V30 15 1 15 14
M  V30 16 1 16 15
M  V30 17 1 17 16
M  V30 18 1 18 17
M  V30 19 1 19 14
M  V30 20 1 19 18
M  V30 21 1 20 18
M  V30 22 2 21 20
M  V30 23 1 22 21
M  V30 24 2 23 22
M  V30 25 1 24 23
M  V30 26 1 25 20
M  V30 27 2 25 24
M  V30 28 1 26 17
M  V30 29 1 26 25
M  V30 30 1 27 26
M  V30 31 1 28 27
M  V30 32 1 29 28
M  V30 33 1 30 24
M  V30 34 1 30 29
M  V30 35 1 31 1
M  V30 36 1 32 1
M  V30 37 1 33 3
M  V30 38 1 34 6
M  V30 39 1 35 7
M  V30 40 1 36 11
M  V30 41 1 37 11
M  V30 42 1 38 12
M  V30 43 1 39 12
M  V30 44 1 40 13
M  V30 45 1 41 13
M  V30 46 1 42 15
M  V30 47 1 43 15
M  V30 48 1 44 16
M  V30 49 1 45 16
M  V30 50 1 17 46 CFG=1
M  V30 51 1 18 47 CFG=1
M  V30 52 1 48 19
M  V30 53 1 49 19
M  V30 54 1 50 21
M  V30 55 1 51 22
M  V30 56 1 52 23
M  V30 57 1 53 27
M  V30 58 1 54 27
M  V30 59 1 55 28
M  V30 60 1 56 28
M  V30 61 1 57 29
M  V30 62 1 58 29
M  V30 63 1 14 59 CFG=3
M  V30 END BOND
M  V30 END CTAB
M  END
>  <b_m_subgroup_collapsed>  (563) 
0

>  <r_i_docking_score>  (563) 
-8.1347060382690195

>  <s_m_subgroup_title>  (563) 
glide-dock_SP_D22_pv

>  <s_m_subgroupid>  (563) 
glide-dock_SP_D22_pv

>  <Molecule ChEMBL ID>  (563) 
CHEMBL352182

>  <Standard Type>  (563) 
Ki

>  <Standard Value>  (563) 
4.7

>  <label>  (563) 
1

$$$$
CHEMBL4572887
     RDKit          3D

  0  0  0  0  0  0  0  0  0  0999 V3000
M  V30 BEGIN CTAB
M  V30 COUNTS 59 62 0 0 1
M  V30 BEGIN ATOM
M  V30 1 N 12.886040 8.972320 -1.486859 0
M  V30 2 C 12.387629 8.669038 -2.732046 0
M  V30 3 N 12.086026 9.568005 -3.670729 0
M  V30 4 C 11.497885 8.972229 -4.787226 0
M  V30 5 C 11.332600 7.628008 -4.646871 0
M  V30 6 S 12.083541 7.014019 -3.196857 0
M  V30 7 C 10.592169 6.750352 -5.565389 0
M  V30 8 C 11.116693 6.723758 -6.999973 0
M  V30 9 N 10.756924 7.951211 -7.766137 0 CFG=2 CHG=1
M  V30 10 C 10.868819 7.773703 -9.243382 0
M  V30 11 C 10.025775 6.612792 -9.806782 0
M  V30 12 C 9.981606 6.585291 -11.336926 0
M  V30 13 C 9.450793 5.240077 -11.848115 0
M  V30 14 N 9.440746 5.257869 -13.307389 0
M  V30 15 C 10.105675 4.104788 -13.923065 0
M  V30 16 C 9.306281 2.805969 -13.708946 0
M  V30 17 N 7.938894 2.968307 -14.193020 0
M  V30 18 C 7.278653 1.839734 -14.717473 0
M  V30 19 C 7.853213 1.264416 -15.872745 0
M  V30 20 C 7.261860 0.160158 -16.506458 0
M  V30 21 C 6.085919 -0.398792 -15.982282 0
M  V30 22 C 5.501154 0.145934 -14.825882 0
M  V30 23 Cl 4.026958 -0.549540 -14.246895 0
M  V30 24 C 6.086040 1.263951 -14.181892 0
M  V30 25 Cl 5.286826 1.889594 -12.772105 0
M  V30 26 C 7.229028 4.123003 -13.661000 0
M  V30 27 C 8.086066 5.397817 -13.846916 0
M  V30 28 C 11.484632 9.180894 -7.325492 0
M  V30 29 C 11.029199 9.758782 -5.966231 0
M  V30 30 H 13.281039 9.903183 -1.363297 0
M  V30 31 H 13.279467 8.249483 -0.905434 0
M  V30 32 H 10.649625 5.772323 -5.132460 0
M  V30 33 H 9.533002 7.008699 -5.558315 0
M  V30 34 H 10.644390 5.847947 -7.435065 0
M  V30 35 H 12.187898 6.535803 -7.043498 0
M  V30 36 H 11.916696 7.636499 -9.515878 0
M  V30 37 H 10.539540 8.692327 -9.731884 0
M  V30 38 H 9.005765 6.657578 -9.420004 0
M  V30 39 H 10.445034 5.659529 -9.489543 0
M  V30 40 H 10.981004 6.751648 -11.740918 0
M  V30 41 H 9.357810 7.403043 -11.701753 0
M  V30 42 H 8.458964 5.051917 -11.435963 0
M  V30 43 H 10.086143 4.434046 -11.481429 0
M  V30 44 H 11.114906 4.003231 -13.522344 0
M  V30 45 H 10.215160 4.293274 -14.991842 0
M  V30 46 H 9.286528 2.572342 -12.647078 0
M  V30 47 H 9.809281 1.973127 -14.200646 0
M  V30 48 H 8.752462 1.687446 -16.296640 0
M  V30 49 H 7.712082 -0.263755 -17.392046 0
M  V30 50 H 5.630885 -1.250056 -16.468220 0
M  V30 51 H 6.274158 4.242268 -14.174503 0
M  V30 52 H 7.008616 3.963464 -12.605878 0
M  V30 53 H 7.599293 6.260205 -13.390131 0
M  V30 54 H 8.180359 5.615334 -14.909716 0
M  V30 55 H 12.563868 9.017684 -7.340527 0
M  V30 56 H 11.286034 9.954391 -8.064717 0
M  V30 57 H 11.361700 10.794453 -5.881145 0
M  V30 58 H 9.943673 9.772334 -5.946709 0
M  V30 59 H 9.773294 8.114598 -7.596656 0
M  V30 END ATOM
M  V30 BEGIN BOND
M  V30 1 1 2 1
M  V30 2 2 3 2
M  V30 3 1 4 3
M  V30 4 2 5 4
M  V30 5 1 6 2
M  V30 6 1 6 5
M  V30 7 1 7 5
M  V30 8 1 8 7
M  V30 9 1 9 8
M  V30 10 1 10 9
M  V30 11 1 11 10
M  V30 12 1 12 11
M  V30 13 1 13 12
M  V30 14 1 14 13
M  V30 15 1 15 14
M  V30 16 1 16 15
M  V30 17 1 17 16
M  V30 18 1 18 17
M  V30 19 2 19 18
M  V30 20 1 20 19
M  V30 21 2 21 20
M  V30 22 1 22 21
M  V30 23 1 23 22
M  V30 24 1 24 18
M  V30 25 2 24 22
M  V30 26 1 25 24
M  V30 27 1 26 17
M  V30 28 1 27 14
M  V30 29 1 27 26
M  V30 30 1 28 9
M  V30 31 1 29 4
M  V30 32 1 29 28
M  V30 33 1 30 1
M  V30 34 1 31 1
M  V30 35 1 32 7
M  V30 36 1 33 7
M  V30 37 1 34 8
M  V30 38 1 35 8
M  V30 39 1 36 10
M  V30 40 1 37 10
M  V30 41 1 38 11
M  V30 42 1 39 11
M  V30 43 1 40 12
M  V30 44 1 41 12
M  V30 45 1 42 13
M  V30 46 1 43 13
M  V30 47 1 44 15
M  V30 48 1 45 15
M  V30 49 1 46 16
M  V30 50 1 47 16
M  V30 51 1 48 19
M  V30 52 1 49 20
M  V30 53 1 50 21
M  V30 54 1 51 26
M  V30 55 1 52 26
M  V30 56 1 53 27
M  V30 57 1 54 27
M  V30 58 1 55 28
M  V30 59 1 56 28
M  V30 60 1 57 29
M  V30 61 1 58 29
M  V30 62 1 9 59 CFG=3
M  V30 END BOND
M  V30 END CTAB
M  END
>  <b_m_subgroup_collapsed>  (564) 
0

>  <r_i_docking_score>  (564) 
-8.1339684159919994

>  <s_m_subgroup_title>  (564) 
glide-dock_SP_D22_pv

>  <s_m_subgroupid>  (564) 
glide-dock_SP_D22_pv

>  <Molecule ChEMBL ID>  (564) 
CHEMBL4572887

>  <Standard Type>  (564) 
Ki

>  <Standard Value>  (564) 
22.39

>  <label>  (564) 
1

$$$$
CHEMBL4291172
     RDKit          3D

  0  0  0  0  0  0  0  0  0  0999 V3000
M  V30 BEGIN CTAB
M  V30 COUNTS 53 55 0 0 1
M  V30 BEGIN ATOM
M  V30 1 C 4.057135 -0.808643 -14.474560 0
M  V30 2 O 5.477819 -0.747480 -14.525270 0
M  V30 3 C 6.066816 0.470461 -14.263124 0
M  V30 4 C 5.453832 1.478242 -13.475718 0
M  V30 5 C 6.086790 2.724788 -13.285018 0
M  V30 6 C 7.362050 2.965756 -13.846907 0
M  V30 7 C 7.975744 1.961426 -14.619513 0
M  V30 8 C 7.343526 0.719589 -14.814590 0
M  V30 9 O 7.990711 -0.227626 -15.555472 0
M  V30 10 C 8.118375 4.259652 -13.581702 0
M  V30 11 N 7.590372 5.029762 -12.424167 0 CFG=1 CHG=1
M  V30 12 C 8.245405 6.355179 -12.283286 0
M  V30 13 C 9.696466 6.315751 -11.764695 0
M  V30 14 C 9.863189 6.045786 -10.254660 0
M  V30 15 C 9.057323 6.983606 -9.340789 0
M  V30 16 N 9.678160 7.160234 -8.033722 0
M  V30 17 C 10.538340 8.146163 -7.740486 0
M  V30 18 O 10.929860 8.972185 -8.563622 0
M  V30 19 C 10.961236 8.235236 -6.305089 0
M  V30 20 C 11.135531 9.501472 -5.703846 0
M  V30 21 C 11.573180 9.599916 -4.369461 0
M  V30 22 C 11.863903 8.434530 -3.636016 0
M  V30 23 Br 12.486006 8.572204 -1.846875 0
M  V30 24 C 11.686644 7.168298 -4.225011 0
M  V30 25 C 11.237945 7.068364 -5.555811 0
M  V30 26 C 6.111356 5.144455 -12.495398 0
M  V30 27 C 5.448255 3.762564 -12.388368 0
M  V30 28 H 3.725558 -1.743938 -14.925985 0
M  V30 29 H 3.688519 -0.786467 -13.449382 0
M  V30 30 H 3.597816 0.006387 -15.036393 0
M  V30 31 H 4.488361 1.312882 -13.021994 0
M  V30 32 H 8.955153 2.127235 -15.044286 0
M  V30 33 H 7.685159 -1.128159 -15.450376 0
M  V30 34 H 9.164898 4.011649 -13.403209 0
M  V30 35 H 8.085189 4.869536 -14.486054 0
M  V30 36 H 8.193267 6.872577 -13.240184 0
M  V30 37 H 7.686020 6.972173 -11.600014 0
M  V30 38 H 10.302278 5.613441 -12.336610 0
M  V30 39 H 10.136110 7.293693 -11.963144 0
M  V30 40 H 9.622272 5.008766 -10.019942 0
M  V30 41 H 10.914577 6.172954 -10.015024 0
M  V30 42 H 8.887871 7.954384 -9.809160 0
M  V30 43 H 8.080779 6.545782 -9.171131 0
M  V30 44 H 9.362452 6.564350 -7.283713 0
M  V30 45 H 10.930059 10.402388 -6.264397 0
M  V30 46 H 11.685757 10.570589 -3.906770 0
M  V30 47 H 11.904153 6.273013 -3.659208 0
M  V30 48 H 11.128141 6.089937 -6.000238 0
M  V30 49 H 5.827707 5.616276 -13.439007 0
M  V30 50 H 5.732399 5.783638 -11.695153 0
M  V30 51 H 4.392648 3.834256 -12.646935 0
M  V30 52 H 5.506371 3.395633 -11.365198 0
M  V30 53 H 7.790126 4.507221 -11.582938 0
M  V30 END ATOM
M  V30 BEGIN BOND
M  V30 1 1 2 1
M  V30 2 1 3 2
M  V30 3 2 4 3
M  V30 4 1 5 4
M  V30 5 2 6 5
M  V30 6 1 7 6
M  V30 7 1 8 3
M  V30 8 2 8 7
M  V30 9 1 9 8
M  V30 10 1 10 6
M  V30 11 1 11 10
M  V30 12 1 12 11
M  V30 13 1 13 12
M  V30 14 1 14 13
M  V30 15 1 15 14
M  V30 16 1 16 15
M  V30 17 1 17 16
M  V30 18 2 18 17
M  V30 19 1 19 17
M  V30 20 1 20 19
M  V30 21 2 21 20
M  V30 22 1 22 21
M  V30 23 1 23 22
M  V30 24 2 24 22
M  V30 25 2 25 19
M  V30 26 1 25 24
M  V30 27 1 26 11
M  V30 28 1 27 5
M  V30 29 1 27 26
M  V30 30 1 28 1
M  V30 31 1 29 1
M  V30 32 1 30 1
M  V30 33 1 31 4
M  V30 34 1 32 7
M  V30 35 1 33 9
M  V30 36 1 34 10
M  V30 37 1 35 10
M  V30 38 1 36 12
M  V30 39 1 37 12
M  V30 40 1 38 13
M  V30 41 1 39 13
M  V30 42 1 40 14
M  V30 43 1 41 14
M  V30 44 1 42 15
M  V30 45 1 43 15
M  V30 46 1 44 16
M  V30 47 1 45 20
M  V30 48 1 46 21
M  V30 49 1 47 24
M  V30 50 1 48 25
M  V30 51 1 49 26
M  V30 52 1 50 26
M  V30 53 1 51 27
M  V30 54 1 52 27
M  V30 55 1 11 53 CFG=1
M  V30 END BOND
M  V30 END CTAB
M  END
>  <b_m_subgroup_collapsed>  (565) 
0

>  <r_i_docking_score>  (565) 
-8.1300006957476398

>  <s_m_subgroup_title>  (565) 
glide-dock_SP_D22_pv

>  <s_m_subgroupid>  (565) 
glide-dock_SP_D22_pv

>  <Molecule ChEMBL ID>  (565) 
CHEMBL4291172

>  <Standard Type>  (565) 
Ki

>  <Standard Value>  (565) 
10000.0

>  <label>  (565) 
0

$$$$
CHEMBL5779117
     RDKit          3D

  0  0  0  0  0  0  0  0  0  0999 V3000
M  V30 BEGIN CTAB
M  V30 COUNTS 56 60 0 0 1
M  V30 BEGIN ATOM
M  V30 1 C 9.862914 0.249041 -15.517725 0
M  V30 2 C 8.697445 1.015940 -14.919585 0
M  V30 3 C 7.429581 0.403526 -14.827166 0
M  V30 4 N 6.346884 1.009963 -14.301019 0
M  V30 5 C 6.485929 2.272326 -13.846996 0
M  V30 6 C 7.709840 2.974839 -13.865771 0
M  V30 7 C 8.838589 2.333076 -14.420427 0
M  V30 8 C 10.162723 3.073025 -14.427730 0
M  V30 9 C 10.279716 4.010365 -13.213804 0
M  V30 10 N 9.055259 4.774005 -12.925270 0
M  V30 11 C 9.255155 5.978234 -12.107479 0
M  V30 12 C 9.110172 5.642299 -10.606877 0
M  V30 13 N 9.282898 6.822288 -9.720985 0 CFG=1 CHG=1
M  V30 14 C 8.696063 6.595121 -8.379362 0
M  V30 15 C 8.688061 7.922429 -7.579492 0
M  V30 16 C 10.088964 8.539525 -7.415040 0 CFG=1
M  V30 17 C 10.861178 7.865154 -6.307857 0
M  V30 18 N 11.150246 6.572263 -6.391616 0
M  V30 19 O 11.685937 6.172416 -5.141227 0
M  V30 20 C 11.790612 7.263641 -4.304118 0
M  V30 21 C 12.275293 7.381293 -2.995372 0
M  V30 22 C 12.268880 8.664274 -2.413520 0
M  V30 23 C 11.777746 9.772232 -3.143673 0
M  V30 24 C 11.285893 9.625304 -4.462792 0
M  V30 25 C 11.296788 8.339664 -5.046999 0
M  V30 26 C 10.806210 8.596449 -8.781779 0
M  V30 27 C 10.691345 7.293229 -9.602590 0
M  V30 28 C 7.813552 4.350574 -13.269332 0
M  V30 29 O 6.793341 5.000946 -13.046082 0
M  V30 30 H 10.550255 -0.068800 -14.732773 0
M  V30 31 H 9.517201 -0.639650 -16.043982 0
M  V30 32 H 10.407855 0.864808 -16.233643 0
M  V30 33 H 7.277544 -0.605736 -15.180874 0
M  V30 34 H 5.595282 2.714964 -13.425859 0
M  V30 35 H 11.004148 2.380639 -14.426272 0
M  V30 36 H 10.224176 3.648149 -15.351663 0
M  V30 37 H 11.142735 4.663772 -13.345632 0
M  V30 38 H 10.479253 3.407307 -12.329859 0
M  V30 39 H 10.233694 6.406382 -12.322309 0
M  V30 40 H 8.534820 6.750488 -12.387280 0
M  V30 41 H 8.110526 5.230427 -10.453191 0
M  V30 42 H 9.811785 4.859960 -10.312697 0
M  V30 43 H 7.693268 6.172317 -8.477120 0
M  V30 44 H 9.253984 5.816549 -7.862701 0
M  V30 45 H 8.201767 7.786970 -6.613718 0
M  V30 46 H 8.086040 8.651457 -8.116958 0
M  V30 47 H 9.945183 9.572845 -7.101478 0
M  V30 48 H 12.643049 6.518593 -2.459361 0
M  V30 49 H 12.636339 8.805446 -1.407747 0
M  V30 50 H 11.777184 10.743402 -2.670593 0
M  V30 51 H 10.906640 10.479566 -5.004357 0
M  V30 52 H 11.851267 8.882577 -8.653723 0
M  V30 53 H 10.350161 9.392846 -9.371400 0
M  V30 54 H 11.285736 6.509256 -9.137358 0
M  V30 55 H 11.122553 7.466124 -10.587945 0
M  V30 56 H 8.713329 7.554942 -10.129718 0
M  V30 END ATOM
M  V30 BEGIN BOND
M  V30 1 1 2 1
M  V30 2 1 3 2
M  V30 3 2 4 3
M  V30 4 1 5 4
M  V30 5 2 6 5
M  V30 6 2 7 2
M  V30 7 1 7 6
M  V30 8 1 8 7
M  V30 9 1 9 8
M  V30 10 1 10 9
M  V30 11 1 11 10
M  V30 12 1 12 11
M  V30 13 1 13 12
M  V30 14 1 14 13
M  V30 15 1 15 14
M  V30 16 1 16 15
M  V30 17 1 17 16
M  V30 18 2 18 17
M  V30 19 1 19 18
M  V30 20 1 20 19
M  V30 21 2 21 20
M  V30 22 1 22 21
M  V30 23 2 23 22
M  V30 24 1 24 23
M  V30 25 1 25 17
M  V30 26 1 25 20
M  V30 27 2 25 24
M  V30 28 1 26 16
M  V30 29 1 27 13
M  V30 30 1 27 26
M  V30 31 1 28 6
M  V30 32 1 28 10
M  V30 33 2 29 28
M  V30 34 1 30 1
M  V30 35 1 31 1
M  V30 36 1 32 1
M  V30 37 1 33 3
M  V30 38 1 34 5
M  V30 39 1 35 8
M  V30 40 1 36 8
M  V30 41 1 37 9
M  V30 42 1 38 9
M  V30 43 1 39 11
M  V30 44 1 40 11
M  V30 45 1 41 12
M  V30 46 1 42 12
M  V30 47 1 43 14
M  V30 48 1 44 14
M  V30 49 1 45 15
M  V30 50 1 46 15
M  V30 51 1 16 47 CFG=1
M  V30 52 1 48 21
M  V30 53 1 49 22
M  V30 54 1 50 23
M  V30 55 1 51 24
M  V30 56 1 52 26
M  V30 57 1 53 26
M  V30 58 1 54 27
M  V30 59 1 55 27
M  V30 60 1 13 56 CFG=3
M  V30 END BOND
M  V30 END CTAB
M  END
>  <b_m_subgroup_collapsed>  (566) 
0

>  <r_i_docking_score>  (566) 
-8.1285824846542791

>  <s_m_subgroup_title>  (566) 
glide-dock_SP_D22_pv

>  <s_m_subgroupid>  (566) 
glide-dock_SP_D22_pv

>  <Molecule ChEMBL ID>  (566) 
CHEMBL5779117

>  <Standard Type>  (566) 
Ki

>  <Standard Value>  (566) 
76.0

>  <label>  (566) 
1

$$$$
CHEMBL201748
     RDKit          3D

  0  0  0  0  0  0  0  0  0  0999 V3000
M  V30 BEGIN CTAB
M  V30 COUNTS 43 47 0 0 1
M  V30 BEGIN ATOM
M  V30 1 C 11.286010 7.851535 -5.155926 0
M  V30 2 C 11.055799 6.775040 -6.030839 0
M  V30 3 C 10.892122 6.996802 -7.413164 0
M  V30 4 C 10.950829 8.309760 -7.934433 0
M  V30 5 C 10.688455 8.584931 -9.416503 0 CFG=2
M  V30 6 C 9.374245 7.973500 -9.951361 0
M  V30 7 C 9.688297 7.653605 -11.412009 0 CFG=2
M  V30 8 C 8.970329 6.517018 -12.052910 0
M  V30 9 N 7.654995 6.172399 -11.846842 0
M  V30 10 C 7.331145 5.045059 -12.572254 0
M  V30 11 C 6.147541 4.294059 -12.668146 0
M  V30 12 C 6.111616 3.166548 -13.509147 0
M  V30 13 C 7.256939 2.805288 -14.246759 0
M  V30 14 C 8.445815 3.559105 -14.137948 0
M  V30 15 C 8.513020 4.697887 -13.297583 0
M  V30 16 C 9.535369 5.646539 -12.946891 0
M  V30 17 C 10.986200 5.734280 -13.346910 0
M  V30 18 C 11.685977 6.972293 -12.707233 0
M  V30 19 N 11.100182 7.256703 -11.365736 0 CFG=1 CHG=1
M  V30 20 C 11.798376 8.112037 -10.386028 0
M  V30 21 C 11.219067 9.377134 -7.049512 0
M  V30 22 C 11.380983 9.155532 -5.668712 0
M  V30 23 H 11.409925 7.675191 -4.097974 0
M  V30 24 H 11.004233 5.773081 -5.633380 0
M  V30 25 H 10.707315 6.152599 -8.059879 0
M  V30 26 H 10.604847 9.665439 -9.539300 0
M  V30 27 H 9.136890 7.043393 -9.432745 0
M  V30 28 H 8.514456 8.635437 -9.831247 0
M  V30 29 H 9.582770 8.556474 -12.015882 0
M  V30 30 H 7.040770 6.711655 -11.215743 0
M  V30 31 H 5.286113 4.578142 -12.084194 0
M  V30 32 H 5.209957 2.577902 -13.582644 0
M  V30 33 H 7.228489 1.935706 -14.887766 0
M  V30 34 H 9.316953 3.258751 -14.700343 0
M  V30 35 H 11.498771 4.821658 -13.046967 0
M  V30 36 H 11.080905 5.779725 -14.432422 0
M  V30 37 H 12.762024 6.808556 -12.645817 0
M  V30 38 H 11.537782 7.823543 -13.363700 0
M  V30 39 H 12.263629 8.964620 -10.881607 0
M  V30 40 H 12.580754 7.546302 -9.879906 0
M  V30 41 H 11.286410 10.385751 -7.420408 0
M  V30 42 H 11.574747 9.986975 -5.006156 0
M  V30 43 H 11.059737 6.355307 -10.911107 0
M  V30 END ATOM
M  V30 BEGIN BOND
M  V30 1 2 2 1
M  V30 2 1 3 2
M  V30 3 2 4 3
M  V30 4 1 5 4
M  V30 5 1 6 5
M  V30 6 1 7 6
M  V30 7 1 8 7
M  V30 8 1 9 8
M  V30 9 1 10 9
M  V30 10 2 11 10
M  V30 11 1 12 11
M  V30 12 2 13 12
M  V30 13 1 14 13
M  V30 14 1 15 10
M  V30 15 2 15 14
M  V30 16 2 16 8
M  V30 17 1 16 15
M  V30 18 1 17 16
M  V30 19 1 18 17
M  V30 20 1 19 7
M  V30 21 1 19 18
M  V30 22 1 20 5
M  V30 23 1 20 19
M  V30 24 1 21 4
M  V30 25 1 22 1
M  V30 26 2 22 21
M  V30 27 1 23 1
M  V30 28 1 24 2
M  V30 29 1 25 3
M  V30 30 1 5 26 CFG=1
M  V30 31 1 27 6
M  V30 32 1 28 6
M  V30 33 1 7 29 CFG=3
M  V30 34 1 30 9
M  V30 35 1 31 11
M  V30 36 1 32 12
M  V30 37 1 33 13
M  V30 38 1 34 14
M  V30 39 1 35 17
M  V30 40 1 36 17
M  V30 41 1 37 18
M  V30 42 1 38 18
M  V30 43 1 39 20
M  V30 44 1 40 20
M  V30 45 1 41 21
M  V30 46 1 42 22
M  V30 47 1 19 43 CFG=1
M  V30 END BOND
M  V30 END CTAB
M  END
>  <b_m_subgroup_collapsed>  (567) 
0

>  <r_i_docking_score>  (567) 
-8.1283855424624392

>  <s_m_subgroup_title>  (567) 
glide-dock_SP_D22_pv

>  <s_m_subgroupid>  (567) 
glide-dock_SP_D22_pv

>  <Molecule ChEMBL ID>  (567) 
CHEMBL201748

>  <Standard Type>  (567) 
Ki

>  <Standard Value>  (567) 
10000.0

>  <label>  (567) 
0

$$$$
CHEMBL4645793
     RDKit          3D

  0  0  0  0  0  0  0  0  0  0999 V3000
M  V30 BEGIN CTAB
M  V30 COUNTS 61 64 0 0 1
M  V30 BEGIN ATOM
M  V30 1 O 4.752320 -0.486872 -14.392765 0
M  V30 2 C 5.468132 -0.269970 -15.372083 0
M  V30 3 N 6.652406 0.358557 -15.306575 0
M  V30 4 C 7.076573 1.197936 -14.194121 0
M  V30 5 C 6.948678 2.678782 -14.600707 0
M  V30 6 C 6.736311 3.642947 -13.427078 0
M  V30 7 C 8.039351 4.180802 -12.835073 0
M  V30 8 C 7.798925 4.927406 -11.520392 0
M  V30 9 C 9.112080 5.446481 -10.939706 0
M  V30 10 N 8.885962 6.197303 -9.682533 0 CHG=1
M  V30 11 C 9.392220 5.472096 -8.483801 0
M  V30 12 C 9.248249 6.290331 -7.184878 0
M  V30 13 N 9.787494 7.627182 -7.358306 0
M  V30 14 C 10.746319 8.274204 -6.530372 0
M  V30 15 N 11.183155 9.428150 -6.980852 0
M  V30 16 S 12.085973 10.201174 -5.846900 0
M  V30 17 C 11.980233 8.954826 -4.653934 0
M  V30 18 C 12.486012 8.967876 -3.344092 0
M  V30 19 C 12.393639 7.816753 -2.554429 0
M  V30 20 C 11.813066 6.665900 -3.103585 0
M  V30 21 C 11.285036 6.681548 -4.412452 0
M  V30 22 C 11.286443 7.844864 -5.228323 0
M  V30 23 C 9.148018 8.337698 -8.467095 0
M  V30 24 C 9.388343 7.587920 -9.775619 0
M  V30 25 C 5.035952 -0.668370 -16.753275 0
M  V30 26 C 4.299184 -1.854406 -16.946764 0
M  V30 27 C 3.831701 -2.208007 -18.228140 0
M  V30 28 C 4.086202 -1.367393 -19.327461 0
M  V30 29 C 4.812627 -0.175681 -19.144230 0
M  V30 30 C 5.285972 0.172842 -17.863823 0
M  V30 31 H 7.198677 0.404613 -16.153141 0
M  V30 32 H 6.480517 0.985952 -13.304295 0
M  V30 33 H 8.107970 0.961647 -13.931164 0
M  V30 34 H 7.811228 2.973208 -15.198218 0
M  V30 35 H 6.093987 2.804392 -15.256489 0
M  V30 36 H 6.145075 4.493740 -13.770852 0
M  V30 37 H 6.131162 3.163272 -12.656911 0
M  V30 38 H 8.747973 3.372235 -12.664670 0
M  V30 39 H 8.511552 4.844436 -13.559901 0
M  V30 40 H 7.110779 5.758888 -11.686885 0
M  V30 41 H 7.318669 4.260804 -10.803213 0
M  V30 42 H 9.795393 4.612299 -10.774528 0
M  V30 43 H 9.598473 6.079473 -11.683040 0
M  V30 44 H 8.867893 4.520134 -8.383822 0
M  V30 45 H 10.448651 5.238695 -8.630978 0
M  V30 46 H 8.196511 6.369818 -6.901784 0
M  V30 47 H 9.750673 5.772348 -6.385637 0
M  V30 48 H 12.963780 9.852187 -2.956972 0
M  V30 49 H 12.784760 7.810043 -1.547692 0
M  V30 50 H 11.749694 5.772302 -2.503891 0
M  V30 51 H 10.833349 5.772474 -4.752925 0
M  V30 52 H 8.086049 8.399831 -8.246526 0
M  V30 53 H 9.462693 9.371954 -8.590681 0
M  V30 54 H 10.455488 7.584245 -10.005239 0
M  V30 55 H 8.886983 8.105647 -10.593943 0
M  V30 56 H 4.086009 -2.506495 -16.111044 0
M  V30 57 H 3.266206 -3.121583 -18.353413 0
M  V30 58 H 3.717273 -1.631982 -20.307842 0
M  V30 59 H 4.995497 0.476370 -19.984612 0
M  V30 60 H 5.816354 1.106009 -17.739216 0
M  V30 61 H 7.883397 6.311610 -9.572248 0
M  V30 END ATOM
M  V30 BEGIN BOND
M  V30 1 2 2 1
M  V30 2 1 3 2
M  V30 3 1 4 3
M  V30 4 1 5 4
M  V30 5 1 6 5
M  V30 6 1 7 6
M  V30 7 1 8 7
M  V30 8 1 9 8
M  V30 9 1 10 9
M  V30 10 1 11 10
M  V30 11 1 12 11
M  V30 12 1 13 12
M  V30 13 1 14 13
M  V30 14 2 15 14
M  V30 15 1 16 15
M  V30 16 1 17 16
M  V30 17 2 18 17
M  V30 18 1 19 18
M  V30 19 2 20 19
M  V30 20 1 21 20
M  V30 21 1 22 14
M  V30 22 1 22 17
M  V30 23 2 22 21
M  V30 24 1 23 13
M  V30 25 1 24 10
M  V30 26 1 24 23
M  V30 27 1 25 2
M  V30 28 2 26 25
M  V30 29 1 27 26
M  V30 30 2 28 27
M  V30 31 1 29 28
M  V30 32 1 30 25
M  V30 33 2 30 29
M  V30 34 1 31 3
M  V30 35 1 32 4
M  V30 36 1 33 4
M  V30 37 1 34 5
M  V30 38 1 35 5
M  V30 39 1 36 6
M  V30 40 1 37 6
M  V30 41 1 38 7
M  V30 42 1 39 7
M  V30 43 1 40 8
M  V30 44 1 41 8
M  V30 45 1 42 9
M  V30 46 1 43 9
M  V30 47 1 44 11
M  V30 48 1 45 11
M  V30 49 1 46 12
M  V30 50 1 47 12
M  V30 51 1 48 18
M  V30 52 1 49 19
M  V30 53 1 50 20
M  V30 54 1 51 21
M  V30 55 1 52 23
M  V30 56 1 53 23
M  V30 57 1 54 24
M  V30 58 1 55 24
M  V30 59 1 56 26
M  V30 60 1 57 27
M  V30 61 1 58 28
M  V30 62 1 59 29
M  V30 63 1 60 30
M  V30 64 1 61 10
M  V30 END BOND
M  V30 END CTAB
M  END
>  <b_m_subgroup_collapsed>  (568) 
0

>  <r_i_docking_score>  (568) 
-8.1266186691996491

>  <s_m_subgroup_title>  (568) 
glide-dock_SP_D22_pv

>  <s_m_subgroupid>  (568) 
glide-dock_SP_D22_pv

>  <Molecule ChEMBL ID>  (568) 
CHEMBL4645793

>  <Standard Type>  (568) 
Ki

>  <Standard Value>  (568) 
14.0

>  <label>  (568) 
1

$$$$
CHEMBL160626
     RDKit          3D

  0  0  0  0  0  0  0  0  0  0999 V3000
M  V30 BEGIN CTAB
M  V30 COUNTS 44 47 0 0 1
M  V30 BEGIN ATOM
M  V30 1 N 8.511188 1.430843 -14.965578 0
M  V30 2 C 9.093232 2.375085 -14.636107 0
M  V30 3 C 9.830862 3.563012 -14.224500 0
M  V30 4 C 11.138300 3.734037 -14.627693 0
M  V30 5 C 11.866273 4.884546 -14.240500 0
M  V30 6 C 11.283390 5.845628 -13.446899 0
M  V30 7 C 9.942043 5.674739 -13.009485 0
M  V30 8 C 9.073791 6.392576 -12.222182 0
M  V30 9 C 9.285914 7.682772 -11.477654 0
M  V30 10 N 9.286223 7.478433 -10.007425 0 CHG=1
M  V30 11 C 10.364793 6.560587 -9.540831 0
M  V30 12 C 10.390947 6.374456 -8.008004 0
M  V30 13 N 10.340926 7.667554 -7.340190 0
M  V30 14 C 10.890895 7.872177 -6.055576 0
M  V30 15 C 11.062971 9.185892 -5.554132 0
M  V30 16 C 11.562874 9.402160 -4.256404 0
M  V30 17 C 11.922278 8.310116 -3.448668 0
M  V30 18 Cl 12.485912 8.572381 -1.846555 0
M  V30 19 C 11.788651 7.001729 -3.940647 0
M  V30 20 C 11.285274 6.788889 -5.236095 0
M  V30 21 C 9.196812 8.465558 -7.749082 0
M  V30 22 C 9.285978 8.754191 -9.252925 0
M  V30 23 C 7.877374 5.629443 -12.253734 0
M  V30 24 N 7.958983 4.523820 -12.956028 0
M  V30 25 N 9.248133 4.520043 -13.436852 0
M  V30 26 H 11.616870 2.984280 -15.251176 0
M  V30 27 H 12.895542 5.013672 -14.567863 0
M  V30 28 H 11.844045 6.724499 -13.148169 0
M  V30 29 H 10.220298 8.160568 -11.781898 0
M  V30 30 H 8.485223 8.379662 -11.735504 0
M  V30 31 H 10.255781 5.582284 -10.008225 0
M  V30 32 H 11.325224 6.961323 -9.864574 0
M  V30 33 H 9.537477 5.774770 -7.686849 0
M  V30 34 H 11.286033 5.820618 -7.735086 0
M  V30 35 H 10.812403 10.048456 -6.153069 0
M  V30 36 H 11.648799 10.407764 -3.870850 0
M  V30 37 H 12.056138 6.158213 -3.319944 0
M  V30 38 H 11.179984 5.772325 -5.574559 0
M  V30 39 H 8.286422 7.904665 -7.531976 0
M  V30 40 H 9.103734 9.372663 -7.174870 0
M  V30 41 H 10.188659 9.324409 -9.475819 0
M  V30 42 H 8.437539 9.367663 -9.557478 0
M  V30 43 H 6.946197 5.868419 -11.756185 0
M  V30 44 H 8.386793 7.055889 -9.795515 0
M  V30 END ATOM
M  V30 BEGIN BOND
M  V30 1 3 2 1
M  V30 2 1 3 2
M  V30 3 2 4 3
M  V30 4 1 5 4
M  V30 5 2 6 5
M  V30 6 1 7 6
M  V30 7 2 8 7
M  V30 8 1 9 8
M  V30 9 1 10 9
M  V30 10 1 11 10
M  V30 11 1 12 11
M  V30 12 1 13 12
M  V30 13 1 14 13
M  V30 14 1 15 14
M  V30 15 2 16 15
M  V30 16 1 17 16
M  V30 17 1 18 17
M  V30 18 2 19 17
M  V30 19 2 20 14
M  V30 20 1 20 19
M  V30 21 1 21 13
M  V30 22 1 22 10
M  V30 23 1 22 21
M  V30 24 1 23 8
M  V30 25 2 24 23
M  V30 26 1 25 3
M  V30 27 1 25 7
M  V30 28 1 25 24
M  V30 29 1 26 4
M  V30 30 1 27 5
M  V30 31 1 28 6
M  V30 32 1 29 9
M  V30 33 1 30 9
M  V30 34 1 31 11
M  V30 35 1 32 11
M  V30 36 1 33 12
M  V30 37 1 34 12
M  V30 38 1 35 15
M  V30 39 1 36 16
M  V30 40 1 37 19
M  V30 41 1 38 20
M  V30 42 1 39 21
M  V30 43 1 40 21
M  V30 44 1 41 22
M  V30 45 1 42 22
M  V30 46 1 43 23
M  V30 47 1 44 10
M  V30 END BOND
M  V30 END CTAB
M  END
>  <b_m_subgroup_collapsed>  (569) 
0

>  <r_i_docking_score>  (569) 
-8.1264250403179705

>  <s_m_subgroup_title>  (569) 
glide-dock_SP_D22_pv

>  <s_m_subgroupid>  (569) 
glide-dock_SP_D22_pv

>  <Molecule ChEMBL ID>  (569) 
CHEMBL160626

>  <Standard Type>  (569) 
Ki

>  <Standard Value>  (569) 
44000.0

>  <label>  (569) 
0

$$$$
CHEMBL353087
     RDKit          3D

  0  0  0  0  0  0  0  0  0  0999 V3000
M  V30 BEGIN CTAB
M  V30 COUNTS 56 58 0 0 1
M  V30 BEGIN ATOM
M  V30 1 C 5.286520 4.131173 -12.101671 0
M  V30 2 O 6.363698 4.530533 -12.931992 0
M  V30 3 C 7.106090 3.515897 -13.491100 0
M  V30 4 C 6.486747 2.320375 -13.936321 0
M  V30 5 C 7.246539 1.266340 -14.501880 0
M  V30 6 N 6.667025 0.045366 -14.957164 0
M  V30 7 C 5.481743 -0.510733 -14.648310 0
M  V30 8 C 5.151326 -1.800144 -15.386094 0
M  V30 9 O 4.693699 -0.075114 -13.810815 0
M  V30 10 C 8.638823 1.440300 -14.663978 0
M  V30 11 Cl 9.616179 0.191723 -15.359604 0
M  V30 12 C 9.254862 2.633093 -14.245674 0
M  V30 13 C 8.514056 3.669286 -13.631257 0
M  V30 14 C 9.256341 4.888899 -13.134982 0
M  V30 15 O 10.339060 5.203868 -13.628421 0
M  V30 16 N 8.712021 5.546665 -12.098814 0
M  V30 17 C 9.257835 6.738226 -11.458179 0
M  V30 18 C 9.770799 6.443725 -10.037423 0 CFG=2
M  V30 19 C 8.705692 6.035510 -9.003572 0
M  V30 20 C 8.979157 6.898710 -7.758593 0
M  V30 21 N 10.334684 7.459281 -7.949135 0 CFG=2 CHG=1
M  V30 22 C 10.658614 8.674931 -7.159558 0
M  V30 23 C 11.108696 8.423032 -5.723290 0
M  V30 24 C 11.389585 9.542754 -4.909706 0
M  V30 25 C 11.847856 9.371858 -3.588869 0
M  V30 26 C 12.012400 8.078963 -3.058858 0
M  V30 27 C 11.703826 6.958321 -3.852717 0
M  V30 28 C 11.281420 7.124648 -5.185054 0
M  V30 29 C 10.477372 7.645015 -9.404119 0
M  V30 30 H 4.995208 4.960533 -11.458280 0
M  V30 31 H 4.422500 3.837497 -12.696545 0
M  V30 32 H 5.563686 3.300751 -11.449165 0
M  V30 33 H 5.418803 2.219317 -13.847239 0
M  V30 34 H 7.259993 -0.514203 -15.555134 0
M  V30 35 H 5.437202 -1.731627 -16.436909 0
M  V30 36 H 5.685045 -2.639613 -14.940248 0
M  V30 37 H 4.080195 -2.005745 -15.347540 0
M  V30 38 H 10.323160 2.730439 -14.363349 0
M  V30 39 H 7.807937 5.227799 -11.778109 0
M  V30 40 H 8.481367 7.501008 -11.427439 0
M  V30 41 H 10.063531 7.164340 -12.058193 0
M  V30 42 H 10.485652 5.625868 -10.093419 0
M  V30 43 H 8.808395 4.974720 -8.762486 0
M  V30 44 H 7.689475 6.170805 -9.370741 0
M  V30 45 H 8.890457 6.334380 -6.828533 0
M  V30 46 H 8.258291 7.717577 -7.716455 0
M  V30 47 H 9.816309 9.367319 -7.171217 0
M  V30 48 H 11.486358 9.191628 -7.649387 0
M  V30 49 H 11.271168 10.543003 -5.300059 0
M  V30 50 H 12.067971 10.233139 -2.975688 0
M  V30 51 H 12.355175 7.950118 -2.042004 0
M  V30 52 H 11.821564 5.964875 -3.444341 0
M  V30 53 H 11.078621 6.237629 -5.765968 0
M  V30 54 H 9.979568 8.571527 -9.701202 0
M  V30 55 H 11.524955 7.713125 -9.704401 0
M  V30 56 H 10.995119 6.738451 -7.695950 0
M  V30 END ATOM
M  V30 BEGIN BOND
M  V30 1 1 2 1
M  V30 2 1 3 2
M  V30 3 1 4 3
M  V30 4 2 5 4
M  V30 5 1 6 5
M  V30 6 1 7 6
M  V30 7 1 8 7
M  V30 8 2 9 7
M  V30 9 1 10 5
M  V30 10 1 11 10
M  V30 11 2 12 10
M  V30 12 2 13 3
M  V30 13 1 13 12
M  V30 14 1 14 13
M  V30 15 2 15 14
M  V30 16 1 16 14
M  V30 17 1 17 16
M  V30 18 1 18 17
M  V30 19 1 19 18
M  V30 20 1 20 19
M  V30 21 1 21 20
M  V30 22 1 22 21
M  V30 23 1 23 22
M  V30 24 2 24 23
M  V30 25 1 25 24
M  V30 26 2 26 25
M  V30 27 1 27 26
M  V30 28 1 28 23
M  V30 29 2 28 27
M  V30 30 1 29 18
M  V30 31 1 29 21
M  V30 32 1 30 1
M  V30 33 1 31 1
M  V30 34 1 32 1
M  V30 35 1 33 4
M  V30 36 1 34 6
M  V30 37 1 35 8
M  V30 38 1 36 8
M  V30 39 1 37 8
M  V30 40 1 38 12
M  V30 41 1 39 16
M  V30 42 1 40 17
M  V30 43 1 41 17
M  V30 44 1 18 42 CFG=3
M  V30 45 1 43 19
M  V30 46 1 44 19
M  V30 47 1 45 20
M  V30 48 1 46 20
M  V30 49 1 47 22
M  V30 50 1 48 22
M  V30 51 1 49 24
M  V30 52 1 50 25
M  V30 53 1 51 26
M  V30 54 1 52 27
M  V30 55 1 53 28
M  V30 56 1 54 29
M  V30 57 1 55 29
M  V30 58 1 21 56 CFG=1
M  V30 END BOND
M  V30 END CTAB
M  END
>  <b_m_subgroup_collapsed>  (570) 
0

>  <r_i_docking_score>  (570) 
-8.1262096303610107

>  <s_m_subgroup_title>  (570) 
glide-dock_SP_D22_pv

>  <s_m_subgroupid>  (570) 
glide-dock_SP_D22_pv

>  <Molecule ChEMBL ID>  (570) 
CHEMBL353087

>  <Standard Type>  (570) 
Ki

>  <Standard Value>  (570) 
19000.0

>  <label>  (570) 
0

$$$$
CHEMBL381019
     RDKit          3D

  0  0  0  0  0  0  0  0  0  0999 V3000
M  V30 BEGIN CTAB
M  V30 COUNTS 52 55 0 0 1
M  V30 BEGIN ATOM
M  V30 1 C 12.589677 8.972437 -1.528046 0
M  V30 2 C 12.129823 8.402864 -2.851889 0
M  V30 3 C 12.151352 9.189101 -4.018181 0
M  V30 4 C 11.707357 8.690189 -5.258220 0
M  V30 5 C 11.285785 7.348304 -5.346145 0
M  V30 6 C 10.913230 6.656110 -6.649095 0
M  V30 7 N 10.579782 7.567550 -7.759077 0 CFG=2 CHG=1
M  V30 8 C 9.276128 8.245227 -7.646222 0
M  V30 9 C 9.101434 8.864683 -9.027727 0
M  V30 10 C 9.784592 7.892743 -9.989525 0 CFG=2
M  V30 11 N 8.886020 7.181369 -10.891842 0
M  V30 12 C 9.342803 6.469893 -11.932733 0
M  V30 13 O 10.511109 6.559379 -12.312995 0
M  V30 14 C 8.423339 5.453002 -12.549904 0
M  V30 15 C 7.018757 5.520912 -12.414571 0
M  V30 16 C 6.207252 4.536869 -13.011705 0
M  V30 17 C 6.786701 3.485375 -13.748341 0
M  V30 18 C 8.190365 3.396542 -13.895342 0
M  V30 19 C 8.833327 2.314817 -14.646934 0
M  V30 20 C 10.123732 2.245835 -15.116293 0
M  V30 21 C 10.417079 1.022884 -15.785749 0
M  V30 22 C 9.345938 0.172324 -15.823421 0
M  V30 23 S 7.954806 0.849998 -15.024776 0
M  V30 24 C 8.987377 4.392471 -13.292571 0
M  V30 25 C 10.538116 6.912998 -9.078292 0
M  V30 26 C 11.286025 6.572322 -4.179281 0
M  V30 27 C 11.687745 7.075851 -2.933610 0
M  V30 28 H 11.990710 8.572676 -0.712187 0
M  V30 29 H 13.636523 8.734941 -1.344702 0
M  V30 30 H 12.483720 10.054835 -1.515488 0
M  V30 31 H 12.554257 10.172325 -3.960282 0
M  V30 32 H 11.763559 9.326573 -6.128502 0
M  V30 33 H 10.072839 5.982656 -6.479779 0
M  V30 34 H 11.761331 6.034536 -6.940021 0
M  V30 35 H 9.250813 8.973019 -6.837624 0
M  V30 36 H 8.485906 7.514707 -7.461369 0
M  V30 37 H 9.687846 9.772345 -9.052873 0
M  V30 38 H 8.086019 9.140954 -9.285538 0
M  V30 39 H 10.499242 8.466676 -10.584657 0
M  V30 40 H 7.890643 7.184048 -10.648902 0
M  V30 41 H 6.548836 6.314489 -11.851269 0
M  V30 42 H 5.134348 4.586634 -12.904192 0
M  V30 43 H 6.135497 2.751245 -14.198186 0
M  V30 44 H 10.869346 3.019194 -15.007265 0
M  V30 45 H 11.389317 0.815002 -16.208803 0
M  V30 46 H 9.285548 -0.811680 -16.262886 0
M  V30 47 H 10.061487 4.334087 -13.386460 0
M  V30 48 H 10.006253 5.961991 -8.996637 0
M  V30 49 H 11.538819 6.709981 -9.456326 0
M  V30 50 H 10.959972 5.552830 -4.246858 0
M  V30 51 H 11.666048 6.439868 -2.059904 0
M  V30 52 H 11.293704 8.279643 -7.806848 0
M  V30 END ATOM
M  V30 BEGIN BOND
M  V30 1 1 2 1
M  V30 2 1 3 2
M  V30 3 2 4 3
M  V30 4 1 5 4
M  V30 5 1 6 5
M  V30 6 1 7 6
M  V30 7 1 8 7
M  V30 8 1 9 8
M  V30 9 1 10 9
M  V30 10 1 11 10
M  V30 11 1 12 11
M  V30 12 2 13 12
M  V30 13 1 14 12
M  V30 14 1 15 14
M  V30 15 2 16 15
M  V30 16 1 17 16
M  V30 17 2 18 17
M  V30 18 1 19 18
M  V30 19 2 20 19
M  V30 20 1 21 20
M  V30 21 2 22 21
M  V30 22 1 23 19
M  V30 23 1 23 22
M  V30 24 2 24 14
M  V30 25 1 24 18
M  V30 26 1 25 7
M  V30 27 1 25 10
M  V30 28 2 26 5
M  V30 29 2 27 2
M  V30 30 1 27 26
M  V30 31 1 28 1
M  V30 32 1 29 1
M  V30 33 1 30 1
M  V30 34 1 31 3
M  V30 35 1 32 4
M  V30 36 1 33 6
M  V30 37 1 34 6
M  V30 38 1 35 8
M  V30 39 1 36 8
M  V30 40 1 37 9
M  V30 41 1 38 9
M  V30 42 1 10 39 CFG=3
M  V30 43 1 40 11
M  V30 44 1 41 15
M  V30 45 1 42 16
M  V30 46 1 43 17
M  V30 47 1 44 20
M  V30 48 1 45 21
M  V30 49 1 46 22
M  V30 50 1 47 24
M  V30 51 1 48 25
M  V30 52 1 49 25
M  V30 53 1 50 26
M  V30 54 1 51 27
M  V30 55 1 7 52 CFG=3
M  V30 END BOND
M  V30 END CTAB
M  END
>  <b_m_subgroup_collapsed>  (571) 
0

>  <r_i_docking_score>  (571) 
-8.12534014990967

>  <s_m_subgroup_title>  (571) 
glide-dock_SP_D22_pv

>  <s_m_subgroupid>  (571) 
glide-dock_SP_D22_pv

>  <Molecule ChEMBL ID>  (571) 
CHEMBL381019

>  <Standard Type>  (571) 
Ki

>  <Standard Value>  (571) 
60.0

>  <label>  (571) 
1

$$$$
CHEMBL553327
     RDKit          3D

  0  0  0  0  0  0  0  0  0  0999 V3000
M  V30 BEGIN CTAB
M  V30 COUNTS 54 57 0 0 1
M  V30 BEGIN ATOM
M  V30 1 O 10.215497 4.846605 -13.993521 0
M  V30 2 C 9.204334 5.183707 -13.379601 0
M  V30 3 C 9.247770 6.495647 -12.585771 0
M  V30 4 C 9.282409 6.299371 -11.061809 0
M  V30 5 C 9.439851 7.622402 -10.292996 0
M  V30 6 N 9.019162 7.461619 -8.880351 0 CFG=1 CHG=1
M  V30 7 C 9.665891 6.428288 -8.055522 0 CFG=2
M  V30 8 C 8.854506 6.551229 -6.765251 0
M  V30 9 C 8.508780 8.047245 -6.693680 0
M  V30 10 C 9.026607 8.639269 -7.996799 0 CFG=1
M  V30 11 C 10.454343 9.199816 -7.776312 0
M  V30 12 C 11.490378 8.155128 -7.258868 0 CFG=1
M  V30 13 O 12.707405 8.572777 -7.846921 0
M  V30 14 C 11.663382 8.158456 -5.710021 0
M  V30 15 C 11.900312 9.372723 -5.022532 0
M  V30 16 C 12.087081 9.395225 -3.624417 0
M  V30 17 C 12.081737 8.203877 -2.882699 0
M  V30 18 C 11.862458 6.985514 -3.542212 0
M  V30 19 C 11.652224 6.966552 -4.933842 0
M  V30 20 C 11.175919 6.760553 -7.893608 0
M  V30 21 C 7.948245 4.377657 -13.376961 0
M  V30 22 C 6.806102 4.772482 -12.639913 0
M  V30 23 C 5.701637 3.912267 -12.526657 0
M  V30 24 C 5.687496 2.679188 -13.199632 0
M  V30 25 F 4.642544 1.833760 -13.046969 0
M  V30 26 C 6.773967 2.323325 -14.020198 0
M  V30 27 C 7.905511 3.160410 -14.095510 0
M  V30 28 H 8.400868 7.117845 -12.874463 0
M  V30 29 H 10.148088 7.030492 -12.886451 0
M  V30 30 H 10.088219 5.614060 -10.799409 0
M  V30 31 H 8.369772 5.811802 -10.723557 0
M  V30 32 H 8.797564 8.383274 -10.738845 0
M  V30 33 H 10.459563 7.995325 -10.382219 0
M  V30 34 H 9.540382 5.433581 -8.484359 0
M  V30 35 H 9.353212 6.173666 -5.877999 0
M  V30 36 H 7.928653 5.980947 -6.863953 0
M  V30 37 H 8.964329 8.538058 -5.846926 0
M  V30 38 H 7.435787 8.172230 -6.638097 0
M  V30 39 H 8.357983 9.412398 -8.374720 0
M  V30 40 H 10.410461 10.045751 -7.089571 0
M  V30 41 H 10.778552 9.616752 -8.731426 0
M  V30 42 H 12.601257 8.682205 -8.780467 0
M  V30 43 H 11.958163 10.303582 -5.566889 0
M  V30 44 H 12.255237 10.326660 -3.104460 0
M  V30 45 H 12.237536 8.226573 -1.814986 0
M  V30 46 H 11.850046 6.061870 -2.981419 0
M  V30 47 H 11.503841 5.994888 -5.372191 0
M  V30 48 H 11.581800 6.751946 -8.905031 0
M  V30 49 H 11.709579 5.946641 -7.410000 0
M  V30 50 H 6.761369 5.711792 -12.109037 0
M  V30 51 H 4.885289 4.199288 -11.888363 0
M  V30 52 H 6.760583 1.382386 -14.549908 0
M  V30 53 H 8.753212 2.840832 -14.685752 0
M  V30 54 H 8.033041 7.212261 -8.941514 0
M  V30 END ATOM
M  V30 BEGIN BOND
M  V30 1 2 2 1
M  V30 2 1 3 2
M  V30 3 1 4 3
M  V30 4 1 5 4
M  V30 5 1 6 5
M  V30 6 1 7 6
M  V30 7 1 8 7
M  V30 8 1 9 8
M  V30 9 1 10 6
M  V30 10 1 10 9
M  V30 11 1 11 10
M  V30 12 1 12 11
M  V30 13 1 12 13 CFG=3
M  V30 14 1 14 12
M  V30 15 2 15 14
M  V30 16 1 16 15
M  V30 17 2 17 16
M  V30 18 1 18 17
M  V30 19 1 19 14
M  V30 20 2 19 18
M  V30 21 1 20 7
M  V30 22 1 20 12
M  V30 23 1 21 2
M  V30 24 1 22 21
M  V30 25 2 23 22
M  V30 26 1 24 23
M  V30 27 1 25 24
M  V30 28 2 26 24
M  V30 29 2 27 21
M  V30 30 1 27 26
M  V30 31 1 28 3
M  V30 32 1 29 3
M  V30 33 1 30 4
M  V30 34 1 31 4
M  V30 35 1 32 5
M  V30 36 1 33 5
M  V30 37 1 7 34 CFG=3
M  V30 38 1 35 8
M  V30 39 1 36 8
M  V30 40 1 37 9
M  V30 41 1 38 9
M  V30 42 1 10 39 CFG=3
M  V30 43 1 40 11
M  V30 44 1 41 11
M  V30 45 1 42 13
M  V30 46 1 43 15
M  V30 47 1 44 16
M  V30 48 1 45 17
M  V30 49 1 46 18
M  V30 50 1 47 19
M  V30 51 1 48 20
M  V30 52 1 49 20
M  V30 53 1 50 22
M  V30 54 1 51 23
M  V30 55 1 52 26
M  V30 56 1 53 27
M  V30 57 1 6 54 CFG=3
M  V30 END BOND
M  V30 END CTAB
M  END
>  <b_m_subgroup_collapsed>  (572) 
0

>  <r_i_docking_score>  (572) 
-8.12528480981954

>  <s_m_subgroup_title>  (572) 
glide-dock_SP_D22_pv

>  <s_m_subgroupid>  (572) 
glide-dock_SP_D22_pv

>  <Molecule ChEMBL ID>  (572) 
CHEMBL553327

>  <Standard Type>  (572) 
Ki

>  <Standard Value>  (572) 
2.3

>  <label>  (572) 
1

$$$$
CHEMBL78923
     RDKit          3D

  0  0  0  0  0  0  0  0  0  0999 V3000
M  V30 BEGIN CTAB
M  V30 COUNTS 51 54 0 0 1
M  V30 BEGIN ATOM
M  V30 1 N 12.702140 5.871793 -15.045313 0
M  V30 2 C 11.628149 5.746596 -14.210161 0
M  V30 3 N 10.788208 4.750094 -14.473995 0
M  V30 4 C 9.730289 4.605022 -13.645273 0
M  V30 5 C 8.774261 3.517797 -13.938064 0
M  V30 6 C 9.204860 2.272713 -14.454700 0
M  V30 7 C 8.296454 1.211965 -14.646920 0
M  V30 8 C 6.936712 1.383708 -14.330399 0
M  V30 9 Cl 5.828705 0.072667 -14.506664 0
M  V30 10 C 6.485499 2.626562 -13.847000 0
M  V30 11 C 7.396498 3.683870 -13.658451 0
M  V30 12 C 9.557166 5.467936 -12.544107 0
M  V30 13 C 10.513634 6.487680 -12.356005 0
M  V30 14 C 10.418752 7.512962 -11.222775 0 CFG=1
M  V30 15 C 9.495636 7.050764 -10.077830 0
M  V30 16 C 9.414458 8.074798 -8.944374 0
M  V30 17 N 10.761536 8.362632 -8.395424 0 CFG=2 CHG=1
M  V30 18 C 10.706700 9.270183 -7.224786 0
M  V30 19 C 11.226021 8.639270 -5.950825 0
M  V30 20 C 12.011379 9.409451 -5.071128 0
M  V30 21 C 12.431647 8.877967 -3.837210 0
M  V30 22 C 12.088408 7.558619 -3.489681 0
M  V30 23 C 11.332157 6.777758 -4.381171 0
M  V30 24 C 10.886368 7.313945 -5.602107 0
M  V30 25 C 11.685862 8.845875 -9.447205 0
M  V30 26 C 11.794899 7.856638 -10.612101 0
M  V30 27 N 11.548842 6.623506 -13.213340 0
M  V30 28 H 12.897361 5.111517 -15.678153 0
M  V30 29 H 13.487548 6.410655 -14.709848 0
M  V30 30 H 10.251081 2.116380 -14.677181 0
M  V30 31 H 8.645249 0.258998 -15.019011 0
M  V30 32 H 5.442029 2.768211 -13.606980 0
M  V30 33 H 7.029861 4.624220 -13.273314 0
M  V30 34 H 8.715055 5.330912 -11.883091 0
M  V30 35 H 9.999079 8.419826 -11.662096 0
M  V30 36 H 8.485739 6.900228 -10.453753 0
M  V30 37 H 9.827676 6.088244 -9.685700 0
M  V30 38 H 8.764113 7.691253 -8.153816 0
M  V30 39 H 8.956016 8.997725 -9.307010 0
M  V30 40 H 9.686146 9.597587 -7.045806 0
M  V30 41 H 11.287572 10.172287 -7.421966 0
M  V30 42 H 12.273974 10.422285 -5.334601 0
M  V30 43 H 13.008458 9.484774 -3.155390 0
M  V30 44 H 12.409117 7.143330 -2.544524 0
M  V30 45 H 11.061120 5.772248 -4.109612 0
M  V30 46 H 10.264462 6.707503 -6.245489 0
M  V30 47 H 11.358723 9.819024 -9.815084 0
M  V30 48 H 12.678308 8.972887 -9.008869 0
M  V30 49 H 12.454261 8.278934 -11.370632 0
M  V30 50 H 12.285787 6.960448 -10.247962 0
M  V30 51 H 11.131132 7.487383 -8.056918 0
M  V30 END ATOM
M  V30 BEGIN BOND
M  V30 1 1 2 1
M  V30 2 2 3 2
M  V30 3 1 4 3
M  V30 4 1 5 4
M  V30 5 1 6 5
M  V30 6 2 7 6
M  V30 7 1 8 7
M  V30 8 1 9 8
M  V30 9 2 10 8
M  V30 10 2 11 5
M  V30 11 1 11 10
M  V30 12 2 12 4
M  V30 13 1 13 12
M  V30 14 1 14 13
M  V30 15 1 15 14
M  V30 16 1 16 15
M  V30 17 1 17 16
M  V30 18 1 18 17
M  V30 19 1 19 18
M  V30 20 2 20 19
M  V30 21 1 21 20
M  V30 22 2 22 21
M  V30 23 1 23 22
M  V30 24 1 24 19
M  V30 25 2 24 23
M  V30 26 1 25 17
M  V30 27 1 26 14
M  V30 28 1 26 25
M  V30 29 1 27 2
M  V30 30 2 27 13
M  V30 31 1 28 1
M  V30 32 1 29 1
M  V30 33 1 30 6
M  V30 34 1 31 7
M  V30 35 1 32 10
M  V30 36 1 33 11
M  V30 37 1 34 12
M  V30 38 1 14 35 CFG=3
M  V30 39 1 36 15
M  V30 40 1 37 15
M  V30 41 1 38 16
M  V30 42 1 39 16
M  V30 43 1 40 18
M  V30 44 1 41 18
M  V30 45 1 42 20
M  V30 46 1 43 21
M  V30 47 1 44 22
M  V30 48 1 45 23
M  V30 49 1 46 24
M  V30 50 1 47 25
M  V30 51 1 48 25
M  V30 52 1 49 26
M  V30 53 1 50 26
M  V30 54 1 17 51 CFG=1
M  V30 END BOND
M  V30 END CTAB
M  END
>  <b_m_subgroup_collapsed>  (573) 
0

>  <r_i_docking_score>  (573) 
-8.1252635065057994

>  <s_m_subgroup_title>  (573) 
glide-dock_SP_D22_pv

>  <s_m_subgroupid>  (573) 
glide-dock_SP_D22_pv

>  <Molecule ChEMBL ID>  (573) 
CHEMBL78923

>  <Standard Type>  (573) 
Ki

>  <Standard Value>  (573) 
8.6

>  <label>  (573) 
1

$$$$
CHEMBL3409246
     RDKit          3D

  0  0  0  0  0  0  0  0  0  0999 V3000
M  V30 BEGIN CTAB
M  V30 COUNTS 69 73 0 0 1
M  V30 BEGIN ATOM
M  V30 1 N 12.246155 10.340228 -6.246882 0
M  V30 2 C 11.368955 10.170859 -5.278324 0
M  V30 3 O 10.486014 10.972300 -5.046751 0
M  V30 4 C 11.576653 8.972423 -4.434469 0
M  V30 5 C 11.867739 9.146145 -3.066809 0
M  V30 6 C 12.086023 8.027740 -2.246861 0
M  V30 7 C 11.993549 6.735262 -2.792847 0
M  V30 8 C 11.685908 6.572335 -4.157973 0
M  V30 9 C 11.472093 7.680472 -4.992748 0
M  V30 10 O 11.286108 7.507666 -6.344606 0
M  V30 11 C 10.022774 7.026361 -6.781435 0
M  V30 12 C 10.218888 6.600720 -8.249997 0
M  V30 13 C 8.928656 6.505134 -9.090922 0
M  V30 14 N 9.219228 6.033128 -10.475877 0 CFG=2 CHG=1
M  V30 15 C 8.284009 6.562131 -11.498958 0
M  V30 16 C 8.743953 6.159750 -12.904920 0
M  V30 17 C 8.787510 4.634694 -13.085763 0 CFG=1
M  V30 18 C 9.270733 4.218357 -14.454508 0
M  V30 19 C 10.060632 4.944365 -15.311512 0
M  V30 20 N 10.296054 4.228558 -16.475283 0
M  V30 21 S 11.223213 4.824442 -17.800438 0
M  V30 22 O 12.042231 3.691644 -18.260048 0
M  V30 23 O 11.849190 6.066184 -17.317722 0
M  V30 24 C 10.000656 5.233397 -19.046642 0
M  V30 25 C 9.361229 6.489375 -19.016150 0
M  V30 26 C 8.408128 6.813454 -20.001148 0
M  V30 27 C 8.100619 5.885709 -21.016237 0
M  V30 28 C 8.744425 4.632248 -21.046793 0
M  V30 29 C 9.696264 4.303365 -20.061415 0
M  V30 30 C 9.684434 2.986876 -16.385588 0
M  V30 31 C 9.628345 1.885228 -17.263519 0
M  V30 32 C 8.908538 0.734202 -16.896679 0
M  V30 33 C 8.241406 0.692505 -15.659547 0
M  V30 34 C 8.295978 1.797927 -14.787761 0
M  V30 35 C 9.021109 2.967244 -15.120522 0
M  V30 36 C 9.695618 4.068945 -11.991575 0
M  V30 37 C 9.292127 4.556303 -10.575482 0
M  V30 38 H 12.170162 11.160602 -6.825388 0
M  V30 39 H 13.017769 9.697991 -6.362604 0
M  V30 40 H 11.937772 10.140122 -2.646553 0
M  V30 41 H 12.318425 8.172522 -1.202128 0
M  V30 42 H 12.157345 5.867673 -2.170187 0
M  V30 43 H 11.632829 5.589779 -4.586790 0
M  V30 44 H 9.289789 7.830439 -6.700036 0
M  V30 45 H 9.670999 6.186522 -6.179499 0
M  V30 46 H 10.759547 5.654297 -8.259607 0
M  V30 47 H 10.875936 7.324559 -8.735018 0
M  V30 48 H 8.486048 7.501072 -9.128078 0
M  V30 49 H 8.186555 5.862594 -8.613420 0
M  V30 50 H 8.240641 7.650225 -11.446829 0
M  V30 51 H 7.281900 6.172340 -11.317383 0
M  V30 52 H 9.741973 6.572591 -13.047094 0
M  V30 53 H 8.085838 6.595601 -13.653180 0
M  V30 54 H 7.779391 4.244965 -12.934942 0
M  V30 55 H 10.487059 5.929566 -15.193035 0
M  V30 56 H 9.600723 7.205984 -18.246536 0
M  V30 57 H 7.911682 7.772386 -19.978138 0
M  V30 58 H 7.367103 6.134290 -21.769270 0
M  V30 59 H 8.507878 3.923094 -21.826653 0
M  V30 60 H 10.193001 3.345305 -20.092678 0
M  V30 61 H 10.144828 1.911700 -18.210489 0
M  V30 62 H 8.866033 -0.116270 -17.561779 0
M  V30 63 H 7.687357 -0.192788 -15.379461 0
M  V30 64 H 7.773834 1.747943 -13.846850 0
M  V30 65 H 9.686293 2.979018 -12.026423 0
M  V30 66 H 10.715384 4.361152 -12.243683 0
M  V30 67 H 9.990831 4.158278 -9.839676 0
M  V30 68 H 8.304444 4.172333 -10.319370 0
M  V30 69 H 10.127310 6.402404 -10.715176 0
M  V30 END ATOM
M  V30 BEGIN BOND
M  V30 1 1 2 1
M  V30 2 2 3 2
M  V30 3 1 4 2
M  V30 4 2 5 4
M  V30 5 1 6 5
M  V30 6 2 7 6
M  V30 7 1 8 7
M  V30 8 1 9 4
M  V30 9 2 9 8
M  V30 10 1 10 9
M  V30 11 1 11 10
M  V30 12 1 12 11
M  V30 13 1 13 12
M  V30 14 1 14 13
M  V30 15 1 15 14
M  V30 16 1 16 15
M  V30 17 1 17 16
M  V30 18 1 18 17
M  V30 19 2 19 18
M  V30 20 1 20 19
M  V30 21 1 21 20
M  V30 22 2 22 21
M  V30 23 2 23 21
M  V30 24 1 24 21
M  V30 25 2 25 24
M  V30 26 1 26 25
M  V30 27 2 27 26
M  V30 28 1 28 27
M  V30 29 1 29 24
M  V30 30 2 29 28
M  V30 31 1 30 20
M  V30 32 2 31 30
M  V30 33 1 32 31
M  V30 34 2 33 32
M  V30 35 1 34 33
M  V30 36 1 35 18
M  V30 37 1 35 30
M  V30 38 2 35 34
M  V30 39 1 36 17
M  V30 40 1 37 14
M  V30 41 1 37 36
M  V30 42 1 38 1
M  V30 43 1 39 1
M  V30 44 1 40 5
M  V30 45 1 41 6
M  V30 46 1 42 7
M  V30 47 1 43 8
M  V30 48 1 44 11
M  V30 49 1 45 11
M  V30 50 1 46 12
M  V30 51 1 47 12
M  V30 52 1 48 13
M  V30 53 1 49 13
M  V30 54 1 50 15
M  V30 55 1 51 15
M  V30 56 1 52 16
M  V30 57 1 53 16
M  V30 58 1 17 54 CFG=1
M  V30 59 1 55 19
M  V30 60 1 56 25
M  V30 61 1 57 26
M  V30 62 1 58 27
M  V30 63 1 59 28
M  V30 64 1 60 29
M  V30 65 1 61 31
M  V30 66 1 62 32
M  V30 67 1 63 33
M  V30 68 1 64 34
M  V30 69 1 65 36
M  V30 70 1 66 36
M  V30 71 1 67 37
M  V30 72 1 68 37
M  V30 73 1 14 69 CFG=3
M  V30 END BOND
M  V30 END CTAB
M  END
>  <b_m_subgroup_collapsed>  (574) 
0

>  <r_i_docking_score>  (574) 
-8.1249489088715698

>  <s_m_subgroup_title>  (574) 
glide-dock_SP_D22_pv

>  <s_m_subgroupid>  (574) 
glide-dock_SP_D22_pv

>  <Molecule ChEMBL ID>  (574) 
CHEMBL3409246

>  <Standard Type>  (574) 
Ki

>  <Standard Value>  (574) 
62.0

>  <label>  (574) 
1

$$$$
CHEMBL149723
     RDKit          3D

  0  0  0  0  0  0  0  0  0  0999 V3000
M  V30 BEGIN CTAB
M  V30 COUNTS 57 60 0 0 1
M  V30 BEGIN ATOM
M  V30 1 C 10.458605 1.959573 -14.349041 0
M  V30 2 S 11.018505 2.473184 -15.995014 0
M  V30 3 C 11.677443 4.113459 -15.887356 0
M  V30 4 C 12.259710 4.682454 -17.038652 0
M  V30 5 C 12.759806 5.991779 -16.948647 0
M  V30 6 C 12.697031 6.731253 -15.779855 0
M  V30 7 C 12.105508 6.189404 -14.618401 0
M  V30 8 C 12.016263 6.974982 -13.340431 0
M  V30 9 O 12.886002 7.772216 -12.990295 0
M  V30 10 N 10.890769 6.758690 -12.648942 0
M  V30 11 C 10.615958 7.176891 -11.288903 0
M  V30 12 C 9.109087 7.054770 -10.930058 0 CFG=1
M  V30 13 C 8.338294 5.913543 -11.612190 0
M  V30 14 C 8.561388 4.717743 -10.698598 0
M  V30 15 C 8.847255 5.319693 -9.316687 0
M  V30 16 N 8.886051 6.791541 -9.487698 0 CFG=1 CHG=1
M  V30 17 C 9.764353 7.506915 -8.532349 0
M  V30 18 C 9.313943 7.355437 -7.072057 0
M  V30 19 C 10.313304 7.994759 -6.130386 0
M  V30 20 C 10.970405 7.229221 -5.143797 0
M  V30 21 C 11.863419 7.847726 -4.246797 0
M  V30 22 C 12.120515 9.229136 -4.348357 0
M  V30 23 C 11.485462 9.987668 -5.350971 0
M  V30 24 C 10.583342 9.372457 -6.233681 0
M  V30 25 C 11.612096 4.858835 -14.683576 0
M  V30 26 O 13.227592 7.983706 -15.928031 0
M  V30 27 C 13.730453 8.105045 -17.269735 0
M  V30 28 C 13.392832 6.801520 -18.024508 0
M  V30 29 H 10.071203 0.940924 -14.387562 0
M  V30 30 H 11.285475 1.980489 -13.641007 0
M  V30 31 H 9.663891 2.610839 -13.986011 0
M  V30 32 H 12.313195 4.129703 -17.964905 0
M  V30 33 H 10.215605 6.141688 -13.073837 0
M  V30 34 H 10.945848 8.207067 -11.142539 0
M  V30 35 H 11.239335 6.572507 -10.638529 0
M  V30 36 H 8.632831 8.000791 -11.194641 0
M  V30 37 H 8.593578 5.714995 -12.652737 0
M  V30 38 H 7.276115 6.162155 -11.607090 0
M  V30 39 H 9.419514 4.139035 -11.043472 0
M  V30 40 H 7.685962 4.069078 -10.689378 0
M  V30 41 H 9.802728 4.944325 -8.947592 0
M  V30 42 H 8.086029 5.044569 -8.587453 0
M  V30 43 H 9.783296 8.561281 -8.810905 0
M  V30 44 H 10.787527 7.137586 -8.606526 0
M  V30 45 H 9.199296 6.305749 -6.802816 0
M  V30 46 H 8.337909 7.819686 -6.924747 0
M  V30 47 H 10.773719 6.172200 -5.050551 0
M  V30 48 H 12.352343 7.261479 -3.481886 0
M  V30 49 H 12.807729 9.705010 -3.663716 0
M  V30 50 H 11.685300 11.043750 -5.446852 0
M  V30 51 H 10.089310 9.962384 -6.989889 0
M  V30 52 H 11.175150 4.413467 -13.804159 0
M  V30 53 H 13.286044 8.970207 -17.759012 0
M  V30 54 H 14.808352 8.258981 -17.238752 0
M  V30 55 H 14.283026 6.307599 -18.413446 0
M  V30 56 H 12.686873 6.972752 -18.837744 0
M  V30 57 H 7.928621 7.114938 -9.342706 0
M  V30 END ATOM
M  V30 BEGIN BOND
M  V30 1 1 2 1
M  V30 2 1 3 2
M  V30 3 2 4 3
M  V30 4 1 5 4
M  V30 5 2 6 5
M  V30 6 1 7 6
M  V30 7 1 8 7
M  V30 8 2 9 8
M  V30 9 1 10 8
M  V30 10 1 11 10
M  V30 11 1 12 11
M  V30 12 1 13 12
M  V30 13 1 14 13
M  V30 14 1 15 14
M  V30 15 1 16 12
M  V30 16 1 16 15
M  V30 17 1 17 16
M  V30 18 1 18 17
M  V30 19 1 19 18
M  V30 20 2 20 19
M  V30 21 1 21 20
M  V30 22 2 22 21
M  V30 23 1 23 22
M  V30 24 1 24 19
M  V30 25 2 24 23
M  V30 26 1 25 3
M  V30 27 2 25 7
M  V30 28 1 26 6
M  V30 29 1 27 26
M  V30 30 1 28 5
M  V30 31 1 28 27
M  V30 32 1 29 1
M  V30 33 1 30 1
M  V30 34 1 31 1
M  V30 35 1 32 4
M  V30 36 1 33 10
M  V30 37 1 34 11
M  V30 38 1 35 11
M  V30 39 1 12 36 CFG=3
M  V30 40 1 37 13
M  V30 41 1 38 13
M  V30 42 1 39 14
M  V30 43 1 40 14
M  V30 44 1 41 15
M  V30 45 1 42 15
M  V30 46 1 43 17
M  V30 47 1 44 17
M  V30 48 1 45 18
M  V30 49 1 46 18
M  V30 50 1 47 20
M  V30 51 1 48 21
M  V30 52 1 49 22
M  V30 53 1 50 23
M  V30 54 1 51 24
M  V30 55 1 52 25
M  V30 56 1 53 27
M  V30 57 1 54 27
M  V30 58 1 55 28
M  V30 59 1 56 28
M  V30 60 1 16 57 CFG=1
M  V30 END BOND
M  V30 END CTAB
M  END
>  <b_m_subgroup_collapsed>  (575) 
0

>  <r_i_docking_score>  (575) 
-8.1244642542454599

>  <s_m_subgroup_title>  (575) 
glide-dock_SP_D22_pv

>  <s_m_subgroupid>  (575) 
glide-dock_SP_D22_pv

>  <Molecule ChEMBL ID>  (575) 
CHEMBL149723

>  <Standard Type>  (575) 
Ki

>  <Standard Value>  (575) 
6.7

>  <label>  (575) 
1

$$$$
CHEMBL5091775
     RDKit          3D

  0  0  0  0  0  0  0  0  0  0999 V3000
M  V30 BEGIN CTAB
M  V30 COUNTS 37 39 0 0 1
M  V30 BEGIN ATOM
M  V30 1 O 12.086021 10.172324 -2.833209 0
M  V30 2 C 11.904052 9.033587 -3.537573 0
M  V30 3 C 12.094260 7.803830 -2.897140 0
M  V30 4 C 11.915968 6.627945 -3.629877 0
M  V30 5 C 11.542112 6.688134 -4.985540 0
M  V30 6 C 11.323107 7.918231 -5.647014 0
M  V30 7 C 10.939013 7.991932 -7.145231 0 CFG=2
M  V30 8 C 12.185031 8.440215 -7.962319 0
M  V30 9 C 12.002388 8.551907 -9.483976 0
M  V30 10 C 11.227356 7.372297 -10.090662 0
M  V30 11 C 10.091865 6.800790 -9.210854 0 CFG=2
M  V30 12 N 8.886023 7.633122 -9.256075 0 CHG=1
M  V30 13 C 9.045958 8.972338 -8.668965 0
M  V30 14 C 9.752185 8.972322 -7.295827 0
M  V30 15 C 10.485696 6.630114 -7.734310 0 CFG=2
M  V30 16 O 9.328138 6.172325 -7.055977 0
M  V30 17 C 11.526345 9.099661 -4.893497 0
M  V30 18 H 12.643252 10.099175 -2.070046 0
M  V30 19 H 12.380274 7.756962 -1.856590 0
M  V30 20 H 12.085991 5.683627 -3.143605 0
M  V30 21 H 11.451254 5.766530 -5.517884 0
M  V30 22 H 12.592678 9.372322 -7.569714 0
M  V30 23 H 12.967524 7.694785 -7.846865 0
M  V30 24 H 11.564233 9.510010 -9.751387 0
M  V30 25 H 12.988014 8.572325 -9.950596 0
M  V30 26 H 10.860280 7.629239 -11.085171 0
M  V30 27 H 11.943718 6.572508 -10.246863 0
M  V30 28 H 9.806966 5.827778 -9.614502 0
M  V30 29 H 8.501462 7.709167 -10.189494 0
M  V30 30 H 9.536055 9.625288 -9.383997 0
M  V30 31 H 8.061663 9.411828 -8.548314 0
M  V30 32 H 8.996242 8.724119 -6.548154 0
M  V30 33 H 10.086021 9.978037 -7.046865 0
M  V30 34 H 11.275115 5.881083 -7.663641 0
M  V30 35 H 9.513549 6.122129 -6.128494 0
M  V30 36 H 11.412246 10.073101 -5.345210 0
M  V30 37 H 8.186424 7.156481 -8.695722 0
M  V30 END ATOM
M  V30 BEGIN BOND
M  V30 1 1 2 1
M  V30 2 1 3 2
M  V30 3 2 4 3
M  V30 4 1 5 4
M  V30 5 2 6 5
M  V30 6 1 7 6 CFG=1
M  V30 7 1 8 7
M  V30 8 1 9 8
M  V30 9 1 10 9
M  V30 10 1 11 10
M  V30 11 1 12 11
M  V30 12 1 13 12
M  V30 13 1 14 7
M  V30 14 1 14 13
M  V30 15 1 15 7
M  V30 16 1 15 11
M  V30 17 1 16 15
M  V30 18 2 17 2
M  V30 19 1 17 6
M  V30 20 1 18 1
M  V30 21 1 19 3
M  V30 22 1 20 4
M  V30 23 1 21 5
M  V30 24 1 22 8
M  V30 25 1 23 8
M  V30 26 1 24 9
M  V30 27 1 25 9
M  V30 28 1 26 10
M  V30 29 1 27 10
M  V30 30 1 11 28 CFG=3
M  V30 31 1 29 12
M  V30 32 1 30 13
M  V30 33 1 31 13
M  V30 34 1 32 14
M  V30 35 1 33 14
M  V30 36 1 15 34 CFG=3
M  V30 37 1 35 16
M  V30 38 1 36 17
M  V30 39 1 37 12
M  V30 END BOND
M  V30 END CTAB
M  END
>  <b_m_subgroup_collapsed>  (576) 
0

>  <r_i_docking_score>  (576) 
-8.1225750587870795

>  <s_m_subgroup_title>  (576) 
glide-dock_SP_D22_pv

>  <s_m_subgroupid>  (576) 
glide-dock_SP_D22_pv

>  <Molecule ChEMBL ID>  (576) 
CHEMBL5091775

>  <Standard Type>  (576) 
Ki

>  <Standard Value>  (576) 
100000.0

>  <label>  (576) 
0

$$$$
CHEMBL303538
     RDKit          3D

  0  0  0  0  0  0  0  0  0  0999 V3000
M  V30 BEGIN CTAB
M  V30 COUNTS 44 46 0 0 1
M  V30 BEGIN ATOM
M  V30 1 N 8.566932 1.931150 -15.728075 0
M  V30 2 C 7.826588 2.167057 -14.870070 0
M  V30 3 C 6.879280 2.458879 -13.847426 0
M  V30 4 C 5.762202 1.602508 -13.634213 0
M  V30 5 N 4.885736 0.871349 -13.446186 0
M  V30 6 C 7.027963 3.534723 -13.047057 0
M  V30 7 C 8.102438 4.480204 -12.965121 0
M  V30 8 C 9.367747 4.510544 -13.490057 0
M  V30 9 C 10.014450 5.689330 -13.024224 0
M  V30 10 C 9.128642 6.381134 -12.246499 0
M  V30 11 C 9.274125 7.680097 -11.522804 0
M  V30 12 N 9.285994 7.539512 -10.046124 0 CHG=1
M  V30 13 C 10.339760 6.618277 -9.541286 0
M  V30 14 C 10.381404 6.542185 -8.005324 0
M  V30 15 N 10.401381 7.873653 -7.406214 0
M  V30 16 C 10.886979 8.034126 -6.087804 0
M  V30 17 C 11.197124 6.918605 -5.270301 0
M  V30 18 C 11.689275 7.081923 -3.964305 0
M  V30 19 C 11.884296 8.371707 -3.445830 0
M  V30 20 Cl 12.485911 8.572265 -1.846537 0
M  V30 21 C 11.568739 9.493639 -4.231008 0
M  V30 22 C 11.091358 9.327474 -5.545503 0
M  V30 23 C 9.315468 8.738085 -7.856318 0
M  V30 24 C 9.331196 8.862970 -9.383996 0
M  V30 25 N 7.962936 5.638306 -12.223194 0
M  V30 26 H 6.243792 3.698440 -12.319671 0
M  V30 27 H 9.811172 3.754414 -14.119917 0
M  V30 28 H 11.024578 6.000280 -13.245601 0
M  V30 29 H 10.190798 8.173546 -11.846111 0
M  V30 30 H 8.454492 8.340510 -11.812030 0
M  V30 31 H 10.185324 5.614332 -9.938039 0
M  V30 32 H 11.309049 6.962529 -9.906825 0
M  V30 33 H 9.513146 5.995035 -7.630397 0
M  V30 34 H 11.269918 5.974895 -7.724450 0
M  V30 35 H 11.053107 5.907552 -5.614149 0
M  V30 36 H 11.915297 6.214931 -3.361108 0
M  V30 37 H 11.685869 10.485456 -3.821851 0
M  V30 38 H 10.895874 10.214949 -6.126619 0
M  V30 39 H 8.365294 8.321320 -7.517323 0
M  V30 40 H 9.380845 9.739695 -7.447258 0
M  V30 41 H 10.234236 9.389770 -9.694446 0
M  V30 42 H 8.479131 9.458799 -9.710505 0
M  V30 43 H 7.124436 5.907968 -11.720855 0
M  V30 44 H 8.377687 7.155788 -9.799518 0
M  V30 END ATOM
M  V30 BEGIN BOND
M  V30 1 3 2 1
M  V30 2 1 3 2
M  V30 3 1 4 3
M  V30 4 3 5 4
M  V30 5 2 6 3 CFG=2
M  V30 6 1 7 6
M  V30 7 2 8 7
M  V30 8 1 9 8
M  V30 9 2 10 9
M  V30 10 1 11 10
M  V30 11 1 12 11
M  V30 12 1 13 12
M  V30 13 1 14 13
M  V30 14 1 15 14
M  V30 15 1 16 15
M  V30 16 1 17 16
M  V30 17 2 18 17
M  V30 18 1 19 18
M  V30 19 1 20 19
M  V30 20 2 21 19
M  V30 21 2 22 16
M  V30 22 1 22 21
M  V30 23 1 23 15
M  V30 24 1 24 12
M  V30 25 1 24 23
M  V30 26 1 25 7
M  V30 27 1 25 10
M  V30 28 1 26 6
M  V30 29 1 27 8
M  V30 30 1 28 9
M  V30 31 1 29 11
M  V30 32 1 30 11
M  V30 33 1 31 13
M  V30 34 1 32 13
M  V30 35 1 33 14
M  V30 36 1 34 14
M  V30 37 1 35 17
M  V30 38 1 36 18
M  V30 39 1 37 21
M  V30 40 1 38 22
M  V30 41 1 39 23
M  V30 42 1 40 23
M  V30 43 1 41 24
M  V30 44 1 42 24
M  V30 45 1 43 25
M  V30 46 1 44 12
M  V30 END BOND
M  V30 END CTAB
M  END
>  <b_m_subgroup_collapsed>  (577) 
0

>  <r_i_docking_score>  (577) 
-8.1221704110460795

>  <s_m_subgroup_title>  (577) 
glide-dock_SP_D22_pv

>  <s_m_subgroupid>  (577) 
glide-dock_SP_D22_pv

>  <Molecule ChEMBL ID>  (577) 
CHEMBL303538

>  <Standard Type>  (577) 
Ki

>  <Standard Value>  (577) 
48500.0

>  <label>  (577) 
0

$$$$
CHEMBL2159479
     RDKit          3D

  0  0  0  0  0  0  0  0  0  0999 V3000
M  V30 BEGIN CTAB
M  V30 COUNTS 47 49 0 0 1
M  V30 BEGIN ATOM
M  V30 1 O 5.685818 5.375034 -13.047110 0
M  V30 2 S 6.956836 4.643747 -13.069447 0
M  V30 3 O 8.086375 5.090365 -13.899719 0
M  V30 4 N 7.500691 4.571807 -11.446877 0
M  V30 5 C 8.836459 5.050057 -11.090322 0 CFG=1
M  V30 6 C 9.017452 6.539851 -11.457520 0
M  V30 7 C 9.417445 7.238590 -10.163132 0
M  V30 8 N 8.885985 6.378334 -9.092272 0 CFG=2 CHG=1
M  V30 9 C 9.485952 6.597671 -7.763455 0
M  V30 10 C 9.068558 7.934406 -7.120211 0
M  V30 11 O 10.193066 8.739986 -6.782256 0
M  V30 12 C 10.886037 8.457409 -5.623702 0
M  V30 13 C 11.534039 9.534476 -4.984459 0
M  V30 14 C 12.230802 9.341128 -3.775527 0
M  V30 15 C 12.305146 8.060987 -3.199510 0
M  V30 16 C 11.686297 6.972915 -3.840167 0
M  V30 17 C 10.987186 7.165864 -5.046747 0
M  V30 18 C 9.022950 4.989014 -9.572063 0
M  V30 19 C 6.599495 2.948087 -13.474741 0
M  V30 20 C 5.517885 2.295231 -12.853579 0
M  V30 21 C 5.288013 0.933335 -13.128119 0
M  V30 22 C 6.117085 0.236198 -14.025178 0
M  V30 23 F 5.883029 -1.072648 -14.272357 0
M  V30 24 C 7.187524 0.897712 -14.657749 0
M  V30 25 C 7.429997 2.259057 -14.384510 0
M  V30 26 H 6.761068 4.759441 -10.762600 0
M  V30 27 H 9.577706 4.426478 -11.591898 0
M  V30 28 H 8.084782 6.975973 -11.820480 0
M  V30 29 H 9.762085 6.684953 -12.241123 0
M  V30 30 H 9.022467 8.253983 -10.108866 0
M  V30 31 H 10.505347 7.289233 -10.094212 0
M  V30 32 H 10.571503 6.518578 -7.836574 0
M  V30 33 H 9.153833 5.784290 -7.119128 0
M  V30 34 H 8.439450 7.766289 -6.246860 0
M  V30 35 H 8.457133 8.523005 -7.805106 0
M  V30 36 H 11.478284 10.522662 -5.416389 0
M  V30 37 H 12.712214 10.172104 -3.282406 0
M  V30 38 H 12.842941 7.910844 -2.275054 0
M  V30 39 H 11.742093 5.988164 -3.401626 0
M  V30 40 H 10.526154 6.296798 -5.481301 0
M  V30 41 H 10.030318 4.627514 -9.351570 0
M  V30 42 H 8.317808 4.319875 -9.073442 0
M  V30 43 H 4.887612 2.826678 -12.158335 0
M  V30 44 H 4.485956 0.407956 -12.646516 0
M  V30 45 H 7.824560 0.356663 -15.342695 0
M  V30 46 H 8.263236 2.760097 -14.853757 0
M  V30 47 H 7.890060 6.584756 -9.036949 0
M  V30 END ATOM
M  V30 BEGIN BOND
M  V30 1 2 2 1
M  V30 2 2 3 2
M  V30 3 1 4 2
M  V30 4 1 5 4
M  V30 5 1 6 5
M  V30 6 1 7 6
M  V30 7 1 8 7
M  V30 8 1 9 8
M  V30 9 1 10 9
M  V30 10 1 11 10
M  V30 11 1 12 11
M  V30 12 2 13 12
M  V30 13 1 14 13
M  V30 14 2 15 14
M  V30 15 1 16 15
M  V30 16 1 17 12
M  V30 17 2 17 16
M  V30 18 1 18 5
M  V30 19 1 18 8
M  V30 20 1 19 2
M  V30 21 1 20 19
M  V30 22 2 21 20
M  V30 23 1 22 21
M  V30 24 1 23 22
M  V30 25 2 24 22
M  V30 26 2 25 19
M  V30 27 1 25 24
M  V30 28 1 26 4
M  V30 29 1 5 27 CFG=3
M  V30 30 1 28 6
M  V30 31 1 29 6
M  V30 32 1 30 7
M  V30 33 1 31 7
M  V30 34 1 32 9
M  V30 35 1 33 9
M  V30 36 1 34 10
M  V30 37 1 35 10
M  V30 38 1 36 13
M  V30 39 1 37 14
M  V30 40 1 38 15
M  V30 41 1 39 16
M  V30 42 1 40 17
M  V30 43 1 41 18
M  V30 44 1 42 18
M  V30 45 1 43 20
M  V30 46 1 44 21
M  V30 47 1 45 24
M  V30 48 1 46 25
M  V30 49 1 8 47 CFG=1
M  V30 END BOND
M  V30 END CTAB
M  END
>  <b_m_subgroup_collapsed>  (578) 
0

>  <r_i_docking_score>  (578) 
-8.1199802499966491

>  <s_m_subgroup_title>  (578) 
glide-dock_SP_D22_pv

>  <s_m_subgroupid>  (578) 
glide-dock_SP_D22_pv

>  <Molecule ChEMBL ID>  (578) 
CHEMBL2159479

>  <Standard Type>  (578) 
Ki

>  <Standard Value>  (578) 
11.0

>  <label>  (578) 
1

$$$$
CHEMBL57019
     RDKit          3D

  0  0  0  0  0  0  0  0  0  0999 V3000
M  V30 BEGIN CTAB
M  V30 COUNTS 54 57 0 0 1
M  V30 BEGIN ATOM
M  V30 1 C 13.999328 5.811460 -16.756620 0
M  V30 2 O 13.080694 5.866237 -15.674723 0
M  V30 3 C 12.241740 4.790681 -15.449560 0
M  V30 4 C 12.225082 3.649322 -16.293564 0
M  V30 5 C 11.351091 2.573922 -16.044151 0
M  V30 6 C 11.350757 1.442499 -16.888424 0
M  V30 7 C 10.488154 0.361353 -16.624323 0
M  V30 8 C 9.619506 0.406787 -15.516941 0
M  V30 9 C 9.608995 1.537471 -14.678370 0
M  V30 10 C 10.476785 2.620327 -14.937142 0
M  V30 11 C 10.480614 3.747846 -14.097575 0
M  V30 12 C 11.346782 4.844331 -14.343604 0
M  V30 13 C 11.284933 6.044618 -13.447234 0
M  V30 14 O 12.158690 6.908077 -13.357939 0
M  V30 15 O 10.124217 6.105941 -12.756472 0
M  V30 16 C 9.820974 7.223508 -11.934241 0
M  V30 17 C 10.112012 6.890498 -10.467473 0 CFG=2
M  V30 18 C 9.236518 5.739384 -9.942993 0
M  V30 19 C 8.996477 6.099189 -8.483935 0
M  V30 20 N 8.886392 7.567838 -8.515452 0 CFG=1 CHG=1
M  V30 21 C 8.816364 8.287071 -7.223784 0
M  V30 22 C 10.050141 8.198192 -6.333188 0
M  V30 23 C 10.296902 7.023065 -5.595052 0
M  V30 24 C 11.307399 6.987129 -4.621695 0
M  V30 25 C 12.084978 8.134746 -4.377299 0
M  V30 26 C 11.881693 9.296701 -5.146393 0
M  V30 27 C 10.866507 9.329593 -6.120407 0
M  V30 28 C 9.841279 8.072325 -9.519391 0
M  V30 29 H 14.594711 6.723094 -16.764318 0
M  V30 30 H 14.688666 4.973975 -16.653484 0
M  V30 31 H 13.479596 5.743759 -17.715725 0
M  V30 32 H 12.883769 3.574305 -17.145767 0
M  V30 33 H 12.016875 1.395194 -17.737520 0
M  V30 34 H 10.494298 -0.505996 -17.267288 0
M  V30 35 H 8.957622 -0.422222 -15.315300 0
M  V30 36 H 8.938980 1.564472 -13.831695 0
M  V30 37 H 9.802429 3.758981 -13.255323 0
M  V30 38 H 8.761287 7.453834 -12.059423 0
M  V30 39 H 10.363219 8.118002 -12.243287 0
M  V30 40 H 11.160999 6.615969 -10.357092 0
M  V30 41 H 9.700302 4.759707 -10.065405 0
M  V30 42 H 8.277831 5.715764 -10.466865 0
M  V30 43 H 9.859830 5.782283 -7.901276 0
M  V30 44 H 8.100042 5.632778 -8.074630 0
M  V30 45 H 7.962857 7.909288 -6.656829 0
M  V30 46 H 8.595362 9.332588 -7.446948 0
M  V30 47 H 9.646923 6.172057 -5.706324 0
M  V30 48 H 11.464430 6.093448 -4.034925 0
M  V30 49 H 12.854239 8.115933 -3.618480 0
M  V30 50 H 12.497039 10.166406 -4.976482 0
M  V30 51 H 10.684896 10.248452 -6.654573 0
M  V30 52 H 9.419106 8.939852 -10.032253 0
M  V30 53 H 10.773890 8.387809 -9.045796 0
M  V30 54 H 7.974217 7.727482 -8.936457 0
M  V30 END ATOM
M  V30 BEGIN BOND
M  V30 1 1 2 1
M  V30 2 1 3 2
M  V30 3 2 4 3
M  V30 4 1 5 4
M  V30 5 2 6 5
M  V30 6 1 7 6
M  V30 7 2 8 7
M  V30 8 1 9 8
M  V30 9 1 10 5
M  V30 10 2 10 9
M  V30 11 1 11 10
M  V30 12 1 12 3
M  V30 13 2 12 11
M  V30 14 1 13 12
M  V30 15 2 14 13
M  V30 16 1 15 13
M  V30 17 1 16 15
M  V30 18 1 17 16
M  V30 19 1 18 17
M  V30 20 1 19 18
M  V30 21 1 20 19
M  V30 22 1 21 20
M  V30 23 1 22 21
M  V30 24 2 23 22
M  V30 25 1 24 23
M  V30 26 2 25 24
M  V30 27 1 26 25
M  V30 28 1 27 22
M  V30 29 2 27 26
M  V30 30 1 28 17
M  V30 31 1 28 20
M  V30 32 1 29 1
M  V30 33 1 30 1
M  V30 34 1 31 1
M  V30 35 1 32 4
M  V30 36 1 33 6
M  V30 37 1 34 7
M  V30 38 1 35 8
M  V30 39 1 36 9
M  V30 40 1 37 11
M  V30 41 1 38 16
M  V30 42 1 39 16
M  V30 43 1 17 40 CFG=3
M  V30 44 1 41 18
M  V30 45 1 42 18
M  V30 46 1 43 19
M  V30 47 1 44 19
M  V30 48 1 45 21
M  V30 49 1 46 21
M  V30 50 1 47 23
M  V30 51 1 48 24
M  V30 52 1 49 25
M  V30 53 1 50 26
M  V30 54 1 51 27
M  V30 55 1 52 28
M  V30 56 1 53 28
M  V30 57 1 20 54 CFG=3
M  V30 END BOND
M  V30 END CTAB
M  END
>  <b_m_subgroup_collapsed>  (579) 
0

>  <r_i_docking_score>  (579) 
-8.1192790884547996

>  <s_m_subgroup_title>  (579) 
glide-dock_SP_D22_pv

>  <s_m_subgroupid>  (579) 
glide-dock_SP_D22_pv

>  <Molecule ChEMBL ID>  (579) 
CHEMBL57019

>  <Standard Type>  (579) 
Ki

>  <Standard Value>  (579) 
10000.0

>  <label>  (579) 
0

$$$$
CHEMBL3764251
     RDKit          3D

  0  0  0  0  0  0  0  0  0  0999 V3000
M  V30 BEGIN CTAB
M  V30 COUNTS 57 60 0 0 1
M  V30 BEGIN ATOM
M  V30 1 C 4.718414 -1.090211 -17.687124 0
M  V30 2 N 4.741139 -0.724775 -16.284138 0
M  V30 3 C 3.840977 -1.089244 -15.360012 0
M  V30 4 N 4.081584 -0.626902 -14.139060 0
M  V30 5 C 5.256062 0.103837 -14.288966 0
M  V30 6 C 5.668827 0.067133 -15.604496 0
M  V30 7 C 6.806594 0.720892 -16.249529 0
M  V30 8 N 6.717581 1.340648 -17.432226 0
M  V30 9 N 7.964909 1.861718 -17.682226 0
M  V30 10 C 8.715170 1.510638 -16.637165 0
M  V30 11 S 10.411752 1.985694 -16.496099 0
M  V30 12 C 10.466304 2.713987 -14.825081 0
M  V30 13 C 9.349708 3.742854 -14.539351 0
M  V30 14 C 9.438317 4.332552 -13.117348 0
M  V30 15 N 10.057887 5.653363 -13.019297 0
M  V30 16 C 11.420657 5.667131 -13.546206 0
M  V30 17 C 12.086573 7.034455 -13.391063 0
M  V30 18 O 12.084965 7.374047 -12.016018 0
M  V30 19 C 10.781951 7.476441 -11.436249 0 CFG=2
M  V30 20 C 10.881031 7.893840 -9.970826 0
M  V30 21 C 12.143944 8.177768 -9.407792 0
M  V30 22 C 12.259936 8.572345 -8.065630 0
M  V30 23 C 11.117290 8.681047 -7.249057 0
M  V30 24 C 11.255818 9.051293 -5.778558 0
M  V30 25 F 10.486244 10.090317 -5.468718 0
M  V30 26 F 10.889397 8.002685 -5.046807 0
M  V30 27 F 12.506180 9.372230 -5.452904 0
M  V30 28 C 9.848433 8.407199 -7.807105 0
M  V30 29 C 9.730152 8.021510 -9.160493 0
M  V30 30 C 10.039519 6.134180 -11.632511 0
M  V30 31 N 8.049701 0.768965 -15.727512 0
M  V30 32 C 8.520543 0.175622 -14.492377 0
M  V30 33 H 4.386530 -0.238838 -18.283140 0
M  V30 34 H 5.716198 -1.390438 -18.008589 0
M  V30 35 H 4.032594 -1.924549 -17.847204 0
M  V30 36 H 2.987887 -1.712948 -15.588486 0
M  V30 37 H 5.700840 0.617510 -13.449155 0
M  V30 38 H 10.467915 1.923146 -14.078213 0
M  V30 39 H 11.443535 3.183982 -14.730634 0
M  V30 40 H 9.345134 4.533888 -15.290658 0
M  V30 41 H 8.378938 3.257265 -14.623921 0
M  V30 42 H 8.421189 4.410826 -12.729633 0
M  V30 43 H 9.944154 3.627069 -12.455425 0
M  V30 44 H 12.026170 4.906984 -13.052101 0
M  V30 45 H 11.415180 5.422998 -14.607922 0
M  V30 46 H 13.112396 7.001651 -13.756282 0
M  V30 47 H 11.571786 7.798392 -13.971348 0
M  V30 48 H 10.226247 8.256816 -11.956569 0
M  V30 49 H 13.045651 8.117640 -9.998753 0
M  V30 50 H 13.240989 8.796371 -7.673674 0
M  V30 51 H 8.960674 8.483026 -7.194866 0
M  V30 52 H 8.750175 7.816843 -9.568126 0
M  V30 53 H 9.004651 6.242027 -11.304305 0
M  V30 54 H 10.479999 5.390391 -10.971371 0
M  V30 55 H 8.510897 0.918828 -13.697658 0
M  V30 56 H 7.853940 -0.627652 -14.200022 0
M  V30 57 H 9.525300 -0.227378 -14.621841 0
M  V30 END ATOM
M  V30 BEGIN BOND
M  V30 1 1 2 1
M  V30 2 1 3 2
M  V30 3 2 4 3
M  V30 4 1 5 4
M  V30 5 1 6 2
M  V30 6 2 6 5
M  V30 7 1 7 6
M  V30 8 2 8 7
M  V30 9 1 9 8
M  V30 10 2 10 9
M  V30 11 1 11 10
M  V30 12 1 12 11
M  V30 13 1 13 12
M  V30 14 1 14 13
M  V30 15 1 15 14
M  V30 16 1 16 15
M  V30 17 1 17 16
M  V30 18 1 18 17
M  V30 19 1 19 18
M  V30 20 1 20 19
M  V30 21 1 21 20
M  V30 22 2 22 21
M  V30 23 1 23 22
M  V30 24 1 24 23
M  V30 25 1 25 24
M  V30 26 1 26 24
M  V30 27 1 27 24
M  V30 28 2 28 23
M  V30 29 2 29 20
M  V30 30 1 29 28
M  V30 31 1 30 15
M  V30 32 1 30 19
M  V30 33 1 31 7
M  V30 34 1 31 10
M  V30 35 1 32 31
M  V30 36 1 33 1
M  V30 37 1 34 1
M  V30 38 1 35 1
M  V30 39 1 36 3
M  V30 40 1 37 5
M  V30 41 1 38 12
M  V30 42 1 39 12
M  V30 43 1 40 13
M  V30 44 1 41 13
M  V30 45 1 42 14
M  V30 46 1 43 14
M  V30 47 1 44 16
M  V30 48 1 45 16
M  V30 49 1 46 17
M  V30 50 1 47 17
M  V30 51 1 19 48 CFG=3
M  V30 52 1 49 21
M  V30 53 1 50 22
M  V30 54 1 51 28
M  V30 55 1 52 29
M  V30 56 1 53 30
M  V30 57 1 54 30
M  V30 58 1 55 32
M  V30 59 1 56 32
M  V30 60 1 57 32
M  V30 END BOND
M  V30 END CTAB
M  END
>  <b_m_subgroup_collapsed>  (580) 
0

>  <r_i_docking_score>  (580) 
-8.1192666106150106

>  <s_m_subgroup_title>  (580) 
glide-dock_SP_D22_pv

>  <s_m_subgroupid>  (580) 
glide-dock_SP_D22_pv

>  <Molecule ChEMBL ID>  (580) 
CHEMBL3764251

>  <Standard Type>  (580) 
Ki

>  <Standard Value>  (580) 
10000.0

>  <label>  (580) 
0

$$$$
CHEMBL328119
     RDKit          3D

  0  0  0  0  0  0  0  0  0  0999 V3000
M  V30 BEGIN CTAB
M  V30 COUNTS 51 53 0 0 1
M  V30 BEGIN ATOM
M  V30 1 O 7.005451 -0.227791 -13.594072 0
M  V30 2 S 5.808836 0.613394 -13.446136 0
M  V30 3 O 5.286063 0.947392 -12.113070 0
M  V30 4 O 6.087109 2.075031 -14.246923 0
M  V30 5 C 7.184134 2.790228 -13.852358 0
M  V30 6 C 8.462125 2.380547 -14.283067 0
M  V30 7 C 9.607860 3.063228 -13.847815 0
M  V30 8 C 9.476355 4.178003 -13.003705 0
M  V30 9 C 8.198911 4.627195 -12.593562 0
M  V30 10 C 8.081398 5.904571 -11.762492 0 CFG=2
M  V30 11 C 8.550715 7.086324 -12.619405 0
M  V30 12 C 8.670193 8.403770 -11.853200 0
M  V30 13 C 9.452772 8.215513 -10.549079 0
M  V30 14 N 8.886055 7.129658 -9.702470 0 CFG=2 CHG=1
M  V30 15 C 9.596227 6.996788 -8.397326 0
M  V30 16 C 9.478848 8.209404 -7.438313 0
M  V30 17 C 10.411203 8.137884 -6.226533 0
M  V30 18 C 10.802697 6.902549 -5.666254 0
M  V30 19 C 11.631597 6.848870 -4.529580 0
M  V30 20 C 12.085567 8.036735 -3.931436 0
M  V30 21 C 11.710950 9.273410 -4.485155 0
M  V30 22 C 10.885860 9.328370 -5.628403 0
M  V30 23 C 8.869288 5.829478 -10.432669 0
M  V30 24 C 7.049671 3.925034 -13.022485 0
M  V30 25 C 4.443298 -0.073004 -14.479565 0
M  V30 26 F 4.386467 -1.392335 -14.288887 0
M  V30 27 F 3.288432 0.486683 -14.118343 0
M  V30 28 F 4.703947 0.172296 -15.762184 0
M  V30 29 H 8.565783 1.520074 -14.928363 0
M  V30 30 H 10.586321 2.734960 -14.164433 0
M  V30 31 H 10.371116 4.697094 -12.693142 0
M  V30 32 H 7.030113 6.057992 -11.516852 0
M  V30 33 H 7.856899 7.209672 -13.446498 0
M  V30 34 H 9.530471 6.853599 -13.036527 0
M  V30 35 H 7.686900 8.832505 -11.663074 0
M  V30 36 H 9.174565 9.139021 -12.480446 0
M  V30 37 H 9.431213 9.168154 -10.025688 0
M  V30 38 H 10.498295 8.001539 -10.771727 0
M  V30 39 H 10.649343 6.793367 -8.600168 0
M  V30 40 H 9.196218 6.118634 -7.892335 0
M  V30 41 H 8.452070 8.297364 -7.079309 0
M  V30 42 H 9.703097 9.145851 -7.942896 0
M  V30 43 H 10.459819 5.972728 -6.089520 0
M  V30 44 H 11.910509 5.892724 -4.111159 0
M  V30 45 H 12.712954 7.998103 -3.052777 0
M  V30 46 H 12.065742 10.172396 -4.013573 0
M  V30 47 H 10.606091 10.290730 -6.030115 0
M  V30 48 H 9.899587 5.525260 -10.613680 0
M  V30 49 H 8.419166 5.060554 -9.802707 0
M  V30 50 H 6.066185 4.252262 -12.716143 0
M  V30 51 H 7.902769 7.372082 -9.551469 0
M  V30 END ATOM
M  V30 BEGIN BOND
M  V30 1 2 2 1
M  V30 2 2 3 2
M  V30 3 1 4 2
M  V30 4 1 5 4
M  V30 5 1 6 5
M  V30 6 2 7 6
M  V30 7 1 8 7
M  V30 8 2 9 8
M  V30 9 1 10 9
M  V30 10 1 11 10
M  V30 11 1 12 11
M  V30 12 1 13 12
M  V30 13 1 14 13
M  V30 14 1 15 14
M  V30 15 1 16 15
M  V30 16 1 17 16
M  V30 17 2 18 17
M  V30 18 1 19 18
M  V30 19 2 20 19
M  V30 20 1 21 20
M  V30 21 1 22 17
M  V30 22 2 22 21
M  V30 23 1 23 10
M  V30 24 1 23 14
M  V30 25 2 24 5
M  V30 26 1 24 9
M  V30 27 1 25 2
M  V30 28 1 26 25
M  V30 29 1 27 25
M  V30 30 1 28 25
M  V30 31 1 29 6
M  V30 32 1 30 7
M  V30 33 1 31 8
M  V30 34 1 10 32 CFG=1
M  V30 35 1 33 11
M  V30 36 1 34 11
M  V30 37 1 35 12
M  V30 38 1 36 12
M  V30 39 1 37 13
M  V30 40 1 38 13
M  V30 41 1 39 15
M  V30 42 1 40 15
M  V30 43 1 41 16
M  V30 44 1 42 16
M  V30 45 1 43 18
M  V30 46 1 44 19
M  V30 47 1 45 20
M  V30 48 1 46 21
M  V30 49 1 47 22
M  V30 50 1 48 23
M  V30 51 1 49 23
M  V30 52 1 50 24
M  V30 53 1 14 51 CFG=1
M  V30 END BOND
M  V30 END CTAB
M  END
>  <b_m_subgroup_collapsed>  (581) 
0

>  <r_i_docking_score>  (581) 
-8.1171491662327107

>  <s_m_subgroup_title>  (581) 
glide-dock_SP_D22_pv

>  <s_m_subgroupid>  (581) 
glide-dock_SP_D22_pv

>  <Molecule ChEMBL ID>  (581) 
CHEMBL328119

>  <Standard Type>  (581) 
Ki

>  <Standard Value>  (581) 
73.0

>  <label>  (581) 
1

$$$$
CHEMBL542877
     RDKit          3D

  0  0  0  0  0  0  0  0  0  0999 V3000
M  V30 BEGIN CTAB
M  V30 COUNTS 43 46 0 0 1
M  V30 BEGIN ATOM
M  V30 1 O 11.286555 6.172375 -7.046916 0
M  V30 2 C 10.902164 7.338194 -7.011058 0
M  V30 3 C 10.894380 8.245625 -5.882984 0
M  V30 4 C 11.486910 8.107726 -4.545715 0
M  V30 5 C 11.781129 9.272937 -3.802243 0
M  V30 6 C 12.274223 9.171780 -2.493691 0
M  V30 7 C 12.485869 7.909667 -1.921113 0
M  V30 8 C 12.185941 6.743590 -2.647758 0
M  V30 9 C 11.686316 6.840020 -3.959895 0
M  V30 10 C 10.299767 9.343087 -6.349007 0
M  V30 11 O 9.886567 9.313474 -7.648194 0
M  V30 12 C 10.365504 8.105725 -8.216835 0 CFG=1
M  V30 13 C 11.492347 8.440861 -9.204752 0
M  V30 14 C 11.098617 7.772401 -10.513191 0
M  V30 15 N 9.988315 6.838102 -10.218522 0 CFG=2 CHG=1
M  V30 16 C 9.113647 6.550680 -11.382673 0
M  V30 17 C 9.816791 5.657848 -12.399031 0
M  V30 18 C 10.856512 6.160790 -13.218618 0
M  V30 19 C 11.509662 5.316339 -14.136877 0
M  V30 20 C 11.124497 3.967025 -14.251597 0
M  V30 21 C 10.085698 3.462697 -13.446773 0
M  V30 22 C 9.438235 4.303344 -12.520108 0
M  V30 23 C 9.287876 7.367339 -9.029204 0
M  V30 24 H 11.626678 10.256023 -4.216651 0
M  V30 25 H 12.485826 10.065155 -1.927157 0
M  V30 26 H 12.886970 7.839797 -0.922887 0
M  V30 27 H 12.338379 5.773665 -2.196685 0
M  V30 28 H 11.444218 5.933291 -4.494860 0
M  V30 29 H 10.094254 10.263643 -5.828404 0
M  V30 30 H 11.597560 9.517222 -9.347060 0
M  V30 31 H 12.464949 8.074730 -8.869391 0
M  V30 32 H 10.759010 8.542967 -11.207226 0
M  V30 33 H 11.949757 7.261341 -10.963586 0
M  V30 34 H 8.209821 6.050557 -11.029005 0
M  V30 35 H 8.780919 7.474048 -11.859278 0
M  V30 36 H 11.157637 7.194762 -13.161829 0
M  V30 37 H 12.303960 5.704691 -14.757771 0
M  V30 38 H 11.624584 3.320460 -14.957023 0
M  V30 39 H 9.793761 2.425161 -13.528260 0
M  V30 40 H 8.651270 3.896904 -11.901190 0
M  V30 41 H 8.802510 6.562988 -8.472567 0
M  V30 42 H 8.497287 8.062669 -9.328662 0
M  V30 43 H 10.400809 5.961627 -9.929846 0
M  V30 END ATOM
M  V30 BEGIN BOND
M  V30 1 2 2 1
M  V30 2 1 3 2
M  V30 3 1 4 3
M  V30 4 2 5 4
M  V30 5 1 6 5
M  V30 6 2 7 6
M  V30 7 1 8 7
M  V30 8 1 9 4
M  V30 9 2 9 8
M  V30 10 2 10 3
M  V30 11 1 11 10
M  V30 12 1 12 2
M  V30 13 1 12 11 CFG=1
M  V30 14 1 13 12
M  V30 15 1 14 13
M  V30 16 1 15 14
M  V30 17 1 16 15
M  V30 18 1 17 16
M  V30 19 2 18 17
M  V30 20 1 19 18
M  V30 21 2 20 19
M  V30 22 1 21 20
M  V30 23 1 22 17
M  V30 24 2 22 21
M  V30 25 1 23 12
M  V30 26 1 23 15
M  V30 27 1 24 5
M  V30 28 1 25 6
M  V30 29 1 26 7
M  V30 30 1 27 8
M  V30 31 1 28 9
M  V30 32 1 29 10
M  V30 33 1 30 13
M  V30 34 1 31 13
M  V30 35 1 32 14
M  V30 36 1 33 14
M  V30 37 1 34 16
M  V30 38 1 35 16
M  V30 39 1 36 18
M  V30 40 1 37 19
M  V30 41 1 38 20
M  V30 42 1 39 21
M  V30 43 1 40 22
M  V30 44 1 41 23
M  V30 45 1 42 23
M  V30 46 1 15 43 CFG=1
M  V30 END BOND
M  V30 END CTAB
M  END
>  <b_m_subgroup_collapsed>  (582) 
0

>  <r_i_docking_score>  (582) 
-8.1160248532342596

>  <s_m_subgroup_title>  (582) 
glide-dock_SP_D22_pv

>  <s_m_subgroupid>  (582) 
glide-dock_SP_D22_pv

>  <Molecule ChEMBL ID>  (582) 
CHEMBL542877

>  <Standard Type>  (582) 
Ki

>  <Standard Value>  (582) 
20000.0

>  <label>  (582) 
0

$$$$
CHEMBL1257927
     RDKit          3D

  0  0  0  0  0  0  0  0  0  0999 V3000
M  V30 BEGIN CTAB
M  V30 COUNTS 62 64 0 0 1
M  V30 BEGIN ATOM
M  V30 1 C 12.553880 6.172344 -2.173508 0
M  V30 2 C 12.208508 7.339045 -3.048146 0
M  V30 3 C 12.361926 8.649260 -2.571907 0
M  V30 4 C 11.990874 9.723130 -3.389972 0
M  V30 5 C 11.488177 9.502316 -4.688002 0
M  V30 6 C 11.140694 10.704826 -5.538633 0
M  V30 7 C 11.311496 8.175014 -5.167270 0
M  V30 8 C 10.647245 7.882976 -6.472311 0
M  V30 9 O 9.707458 8.544052 -6.915044 0
M  V30 10 C 11.183400 6.702480 -7.294620 0
M  V30 11 C 10.145016 6.136154 -8.275143 0
M  V30 12 C 10.036801 6.929222 -9.596576 0
M  V30 13 N 8.887507 6.545900 -10.460919 0 CFG=2 CHG=1
M  V30 14 C 8.610264 5.091516 -10.506638 0
M  V30 15 C 7.286931 4.895494 -11.218133 0
M  V30 16 C 7.311294 5.282406 -12.688678 0 CFG=2
M  V30 17 O 5.948914 5.394721 -13.043832 0
M  V30 18 C 8.046162 4.232168 -13.557541 0
M  V30 19 C 9.356339 4.499065 -14.032529 0
M  V30 20 C 10.089543 3.553596 -14.773162 0
M  V30 21 C 11.499081 3.876036 -15.227158 0
M  V30 22 C 9.509235 2.313969 -15.081649 0
M  V30 23 C 8.203834 2.033059 -14.650016 0
M  V30 24 C 7.463683 2.968700 -13.893281 0
M  V30 25 C 6.069981 2.525074 -13.454283 0
M  V30 26 C 7.846761 6.739617 -12.763691 0
M  V30 27 C 9.037723 7.092432 -11.833984 0
M  V30 28 C 11.681861 7.101598 -4.327467 0
M  V30 29 H 12.888806 6.503674 -1.199875 0
M  V30 30 H 11.657131 5.594325 -2.016249 0
M  V30 31 H 13.317572 5.546128 -2.630050 0
M  V30 32 H 12.743077 8.840020 -1.579009 0
M  V30 33 H 12.083658 10.720289 -2.993263 0
M  V30 34 H 11.284982 11.659097 -5.047316 0
M  V30 35 H 11.694259 10.704294 -6.478011 0
M  V30 36 H 10.087423 10.659845 -5.742938 0
M  V30 37 H 11.497672 5.898067 -6.635753 0
M  V30 38 H 12.079161 7.014044 -7.832561 0
M  V30 39 H 9.171672 6.079999 -7.783337 0
M  V30 40 H 10.435565 5.107808 -8.492268 0
M  V30 41 H 10.968419 6.793334 -10.146829 0
M  V30 42 H 9.953647 7.998678 -9.404132 0
M  V30 43 H 8.480813 4.676729 -9.508200 0
M  V30 44 H 9.420760 4.541604 -10.987771 0
M  V30 45 H 6.603318 5.603206 -10.749318 0
M  V30 46 H 6.899987 3.893095 -11.053125 0
M  V30 47 H 5.537573 6.011338 -12.454422 0
M  V30 48 H 9.841331 5.438328 -13.844721 0
M  V30 49 H 11.943823 3.045378 -15.775885 0
M  V30 50 H 11.494753 4.750195 -15.877544 0
M  V30 51 H 12.133909 4.091314 -14.366840 0
M  V30 52 H 10.056937 1.576370 -15.649650 0
M  V30 53 H 7.774335 1.073149 -14.898592 0
M  V30 54 H 5.855121 1.511436 -13.792816 0
M  V30 55 H 5.964821 2.516452 -12.372787 0
M  V30 56 H 5.289595 3.159547 -13.870057 0
M  V30 57 H 8.084538 6.970690 -13.793754 0
M  V30 58 H 7.047968 7.430862 -12.487277 0
M  V30 59 H 9.128260 8.177707 -11.775733 0
M  V30 60 H 9.981007 6.741694 -12.247350 0
M  V30 61 H 11.523593 6.076001 -4.622611 0
M  V30 62 H 8.041981 6.977824 -10.080304 0
M  V30 END ATOM
M  V30 BEGIN BOND
M  V30 1 1 2 1
M  V30 2 1 3 2
M  V30 3 2 4 3
M  V30 4 1 5 4
M  V30 5 1 6 5
M  V30 6 2 7 5
M  V30 7 1 8 7
M  V30 8 2 9 8
M  V30 9 1 10 8
M  V30 10 1 11 10
M  V30 11 1 12 11
M  V30 12 1 13 12
M  V30 13 1 14 13
M  V30 14 1 15 14
M  V30 15 1 16 15
M  V30 16 1 16 17 CFG=3
M  V30 17 1 18 16
M  V30 18 1 19 18
M  V30 19 2 20 19
M  V30 20 1 21 20
M  V30 21 1 22 20
M  V30 22 2 23 22
M  V30 23 2 24 18
M  V30 24 1 24 23
M  V30 25 1 25 24
M  V30 26 1 26 16
M  V30 27 1 27 13
M  V30 28 1 27 26
M  V30 29 2 28 2
M  V30 30 1 28 7
M  V30 31 1 29 1
M  V30 32 1 30 1
M  V30 33 1 31 1
M  V30 34 1 32 3
M  V30 35 1 33 4
M  V30 36 1 34 6
M  V30 37 1 35 6
M  V30 38 1 36 6
M  V30 39 1 37 10
M  V30 40 1 38 10
M  V30 41 1 39 11
M  V30 42 1 40 11
M  V30 43 1 41 12
M  V30 44 1 42 12
M  V30 45 1 43 14
M  V30 46 1 44 14
M  V30 47 1 45 15
M  V30 48 1 46 15
M  V30 49 1 47 17
M  V30 50 1 48 19
M  V30 51 1 49 21
M  V30 52 1 50 21
M  V30 53 1 51 21
M  V30 54 1 52 22
M  V30 55 1 53 23
M  V30 56 1 54 25
M  V30 57 1 55 25
M  V30 58 1 56 25
M  V30 59 1 57 26
M  V30 60 1 58 26
M  V30 61 1 59 27
M  V30 62 1 60 27
M  V30 63 1 61 28
M  V30 64 1 13 62 CFG=1
M  V30 END BOND
M  V30 END CTAB
M  END
>  <b_m_subgroup_collapsed>  (583) 
0

>  <r_i_docking_score>  (583) 
-8.1149994712495701

>  <s_m_subgroup_title>  (583) 
glide-dock_SP_D22_pv

>  <s_m_subgroupid>  (583) 
glide-dock_SP_D22_pv

>  <Molecule ChEMBL ID>  (583) 
CHEMBL1257927

>  <Standard Type>  (583) 
Ki

>  <Standard Value>  (583) 
46.0

>  <label>  (583) 
1

$$$$
CHEMBL542646
     RDKit          3D

  0  0  0  0  0  0  0  0  0  0999 V3000
M  V30 BEGIN CTAB
M  V30 COUNTS 43 46 0 0 1
M  V30 BEGIN ATOM
M  V30 1 C 6.977777 5.179682 -12.198640 0
M  V30 2 N 7.779207 6.172291 -11.447064 0 CFG=1 CHG=1
M  V30 3 C 8.872700 5.618992 -10.635553 0 CFG=1
M  V30 4 C 10.086066 5.606194 -11.568638 0
M  V30 5 C 9.703650 6.452988 -12.759907 0
M  V30 6 C 8.471815 7.195122 -12.247182 0 CFG=2
M  V30 7 C 8.869523 8.408925 -11.347547 0
M  V30 8 C 9.490017 8.073076 -9.947147 0 CFG=1
M  V30 9 C 10.988745 8.494919 -9.925313 0
M  V30 10 C 11.587177 8.372287 -8.529542 0
M  V30 11 O 12.793356 8.171728 -8.415841 0
M  V30 12 C 10.660949 8.537254 -7.392709 0
M  V30 13 C 11.081483 8.399701 -5.991905 0
M  V30 14 C 11.305105 9.544266 -5.197242 0
M  V30 15 C 11.732624 9.396677 -3.861373 0
M  V30 16 C 11.934803 8.112542 -3.320022 0
M  V30 17 C 11.690668 6.971388 -4.108520 0
M  V30 18 C 11.273816 7.113026 -5.446230 0
M  V30 19 C 9.387039 8.857176 -7.698844 0
M  V30 20 O 8.886511 8.939279 -8.980899 0
M  V30 21 C 9.136271 6.604570 -9.482852 0
M  V30 22 H 7.598498 4.557861 -12.844275 0
M  V30 23 H 6.454257 4.522868 -11.502439 0
M  V30 24 H 6.229031 5.677338 -12.817473 0
M  V30 25 H 8.631210 4.628666 -10.245686 0
M  V30 26 H 10.886043 6.170160 -11.104028 0
M  V30 27 H 10.434986 4.609880 -11.846081 0
M  V30 28 H 10.518640 7.116461 -13.046588 0
M  V30 29 H 9.457588 5.817561 -13.613038 0
M  V30 30 H 7.828277 7.551397 -13.046880 0
M  V30 31 H 7.995863 9.039152 -11.203387 0
M  V30 32 H 9.540440 9.049358 -11.916838 0
M  V30 33 H 11.072518 9.543934 -10.206857 0
M  V30 34 H 11.608728 7.956727 -10.637206 0
M  V30 35 H 11.158506 10.531759 -5.610335 0
M  V30 36 H 11.906012 10.266966 -3.245689 0
M  V30 37 H 12.259516 8.003344 -2.295504 0
M  V30 38 H 11.833026 5.985545 -3.690157 0
M  V30 39 H 11.100409 6.232750 -6.048877 0
M  V30 40 H 8.607230 8.974042 -6.960297 0
M  V30 41 H 9.903642 6.194731 -8.826122 0
M  V30 42 H 8.226598 6.623564 -8.878107 0
M  V30 43 H 7.136973 6.706897 -10.840878 0
M  V30 END ATOM
M  V30 BEGIN BOND
M  V30 1 1 2 1
M  V30 2 1 3 2
M  V30 3 1 4 3
M  V30 4 1 5 4
M  V30 5 1 6 2
M  V30 6 1 6 5
M  V30 7 1 7 6
M  V30 8 1 8 7
M  V30 9 1 9 8
M  V30 10 1 10 9
M  V30 11 2 11 10
M  V30 12 1 12 10
M  V30 13 1 13 12
M  V30 14 2 14 13
M  V30 15 1 15 14
M  V30 16 2 16 15
M  V30 17 1 17 16
M  V30 18 1 18 13
M  V30 19 2 18 17
M  V30 20 2 19 12
M  V30 21 1 8 20 CFG=1
M  V30 22 1 20 19
M  V30 23 1 21 3
M  V30 24 1 21 8
M  V30 25 1 22 1
M  V30 26 1 23 1
M  V30 27 1 24 1
M  V30 28 1 3 25 CFG=1
M  V30 29 1 26 4
M  V30 30 1 27 4
M  V30 31 1 28 5
M  V30 32 1 29 5
M  V30 33 1 6 30 CFG=3
M  V30 34 1 31 7
M  V30 35 1 32 7
M  V30 36 1 33 9
M  V30 37 1 34 9
M  V30 38 1 35 14
M  V30 39 1 36 15
M  V30 40 1 37 16
M  V30 41 1 38 17
M  V30 42 1 39 18
M  V30 43 1 40 19
M  V30 44 1 41 21
M  V30 45 1 42 21
M  V30 46 1 2 43 CFG=1
M  V30 END BOND
M  V30 END CTAB
M  END
>  <b_m_subgroup_collapsed>  (584) 
0

>  <r_i_docking_score>  (584) 
-8.1149962463228906

>  <s_m_subgroup_title>  (584) 
glide-dock_SP_D22_pv

>  <s_m_subgroupid>  (584) 
glide-dock_SP_D22_pv

>  <Molecule ChEMBL ID>  (584) 
CHEMBL542646

>  <Standard Type>  (584) 
Ki

>  <Standard Value>  (584) 
10000.0

>  <label>  (584) 
0

$$$$
CHEMBL3588996
     RDKit          3D

  0  0  0  0  0  0  0  0  0  0999 V3000
M  V30 BEGIN CTAB
M  V30 COUNTS 66 70 0 0 1
M  V30 BEGIN ATOM
M  V30 1 O 6.886872 2.550890 -13.847197 0
M  V30 2 C 7.723869 3.687159 -13.799321 0 CFG=1
M  V30 3 C 7.403352 4.542933 -12.570294 0
M  V30 4 C 7.896548 5.995900 -12.749729 0
M  V30 5 N 8.935307 6.373880 -11.815134 0
M  V30 6 C 8.885485 6.306334 -10.448770 0
M  V30 7 C 9.983086 6.996764 -10.033876 0
M  V30 8 C 10.362012 7.345417 -8.670199 0
M  V30 9 C 11.333065 8.332463 -8.392763 0
M  V30 10 C 11.686375 8.614585 -7.058574 0
M  V30 11 C 11.105274 7.893874 -5.993967 0
M  V30 12 C 11.581263 8.029160 -4.614197 0
M  V30 13 C 11.770904 6.869170 -3.831309 0
M  V30 14 C 12.218307 6.955403 -2.503098 0
M  V30 15 C 12.485334 8.214862 -1.940846 0
M  V30 16 C 12.283769 9.372595 -2.707879 0
M  V30 17 C 11.839429 9.285269 -4.036943 0
M  V30 18 C 10.082163 6.971392 -6.274891 0
M  V30 19 C 9.714403 6.696018 -7.599005 0
M  V30 20 N 10.704484 7.371653 -11.172413 0
M  V30 21 N 10.067057 6.987075 -12.233778 0
M  V30 22 C 9.205849 3.261459 -13.865270 0
M  V30 23 N 9.533742 2.612702 -15.156775 0 CHG=1
M  V30 24 C 9.732170 3.577868 -16.270502 0
M  V30 25 C 9.882291 2.837607 -17.610439 0
M  V30 26 N 10.905689 1.800429 -17.525009 0
M  V30 27 C 12.155211 2.007008 -18.143488 0
M  V30 28 C 12.754955 3.289690 -18.137791 0
M  V30 29 C 13.983187 3.514931 -18.785292 0
M  V30 30 C 14.635036 2.458930 -19.444742 0
M  V30 31 C 14.061397 1.174407 -19.450087 0
M  V30 32 Cl 14.899530 -0.111014 -20.244326 0
M  V30 33 C 12.819074 0.947692 -18.815941 0
M  V30 34 Cl 12.100016 -0.624668 -18.915873 0
M  V30 35 C 10.821820 0.884226 -16.388895 0
M  V30 36 C 10.664841 1.653935 -15.064795 0
M  V30 37 H 6.567389 2.416360 -14.728778 0
M  V30 38 H 7.456349 4.296504 -14.646481 0
M  V30 39 H 6.322048 4.579092 -12.434286 0
M  V30 40 H 7.795385 4.079640 -11.664182 0
M  V30 41 H 8.244120 6.172797 -13.765778 0
M  V30 42 H 7.063258 6.680737 -12.593649 0
M  V30 43 H 8.037515 5.902900 -9.908210 0
M  V30 44 H 11.820999 8.861789 -9.198535 0
M  V30 45 H 12.462563 9.341982 -6.859097 0
M  V30 46 H 11.577602 5.893916 -4.255203 0
M  V30 47 H 12.358292 6.056121 -1.919377 0
M  V30 48 H 12.837927 8.294977 -0.925619 0
M  V30 49 H 12.473286 10.336496 -2.267725 0
M  V30 50 H 11.688913 10.186025 -4.611742 0
M  V30 51 H 9.592704 6.435963 -5.474411 0
M  V30 52 H 8.942303 5.963489 -7.780463 0
M  V30 53 H 9.867974 4.115396 -13.707954 0
M  V30 54 H 9.406540 2.572823 -13.046841 0
M  V30 55 H 8.896481 4.270150 -16.345665 0
M  V30 56 H 10.615219 4.182785 -16.065289 0
M  V30 57 H 8.939174 2.356852 -17.873703 0
M  V30 58 H 10.093594 3.540564 -18.418468 0
M  V30 59 H 12.282349 4.120303 -17.638142 0
M  V30 60 H 14.424944 4.501574 -18.780605 0
M  V30 61 H 15.577392 2.634894 -19.944124 0
M  V30 62 H 9.965814 0.225752 -16.537495 0
M  V30 63 H 11.693787 0.236381 -16.332113 0
M  V30 64 H 11.583512 2.191670 -14.825279 0
M  V30 65 H 10.490592 0.943644 -14.256324 0
M  V30 66 H 8.730736 2.045181 -15.388403 0
M  V30 END ATOM
M  V30 BEGIN BOND
M  V30 1 1 2 1
M  V30 2 1 3 2
M  V30 3 1 4 3
M  V30 4 1 5 4
M  V30 5 1 6 5
M  V30 6 2 7 6
M  V30 7 1 8 7
M  V30 8 1 9 8
M  V30 9 2 10 9
M  V30 10 1 11 10
M  V30 11 1 12 11
M  V30 12 2 13 12
M  V30 13 1 14 13
M  V30 14 2 15 14
M  V30 15 1 16 15
M  V30 16 1 17 12
M  V30 17 2 17 16
M  V30 18 2 18 11
M  V30 19 2 19 8
M  V30 20 1 19 18
M  V30 21 1 20 7
M  V30 22 1 21 5
M  V30 23 2 21 20
M  V30 24 1 22 2
M  V30 25 1 23 22
M  V30 26 1 24 23
M  V30 27 1 25 24
M  V30 28 1 26 25
M  V30 29 1 27 26
M  V30 30 2 28 27
M  V30 31 1 29 28
M  V30 32 2 30 29
M  V30 33 1 31 30
M  V30 34 1 32 31
M  V30 35 1 33 27
M  V30 36 2 33 31
M  V30 37 1 34 33
M  V30 38 1 35 26
M  V30 39 1 36 23
M  V30 40 1 36 35
M  V30 41 1 37 1
M  V30 42 1 2 38 CFG=3
M  V30 43 1 39 3
M  V30 44 1 40 3
M  V30 45 1 41 4
M  V30 46 1 42 4
M  V30 47 1 43 6
M  V30 48 1 44 9
M  V30 49 1 45 10
M  V30 50 1 46 13
M  V30 51 1 47 14
M  V30 52 1 48 15
M  V30 53 1 49 16
M  V30 54 1 50 17
M  V30 55 1 51 18
M  V30 56 1 52 19
M  V30 57 1 53 22
M  V30 58 1 54 22
M  V30 59 1 55 24
M  V30 60 1 56 24
M  V30 61 1 57 25
M  V30 62 1 58 25
M  V30 63 1 59 28
M  V30 64 1 60 29
M  V30 65 1 61 30
M  V30 66 1 62 35
M  V30 67 1 63 35
M  V30 68 1 64 36
M  V30 69 1 65 36
M  V30 70 1 66 23
M  V30 END BOND
M  V30 END CTAB
M  END
>  <b_m_subgroup_collapsed>  (585) 
0

>  <r_i_docking_score>  (585) 
-8.1144174646953804

>  <s_m_subgroup_title>  (585) 
glide-dock_SP_D22_pv

>  <s_m_subgroupid>  (585) 
glide-dock_SP_D22_pv

>  <Molecule ChEMBL ID>  (585) 
CHEMBL3588996

>  <Standard Type>  (585) 
Ki

>  <Standard Value>  (585) 
15100.0

>  <label>  (585) 
0

$$$$
CHEMBL4545775
     RDKit          3D

  0  0  0  0  0  0  0  0  0  0999 V3000
M  V30 BEGIN CTAB
M  V30 COUNTS 63 66 0 0 1
M  V30 BEGIN ATOM
M  V30 1 C 15.654335 -0.498110 -20.376900 0
M  V30 2 C 14.332459 -0.070347 -19.770683 0
M  V30 3 C 13.336124 -1.026638 -19.499332 0
M  V30 4 C 12.115644 -0.627946 -18.917618 0
M  V30 5 C 11.869405 0.721674 -18.573570 0
M  V30 6 N 10.632517 1.089582 -17.994701 0
M  V30 7 C 10.190540 2.480870 -17.991018 0
M  V30 8 C 10.425344 3.120934 -16.611605 0
M  V30 9 N 9.784002 2.315979 -15.534554 0 CHG=1
M  V30 10 C 9.937130 2.911600 -14.182719 0
M  V30 11 C 9.088813 4.179526 -13.955329 0
M  V30 12 C 9.286306 4.733970 -12.535064 0
M  V30 13 C 8.536139 6.055645 -12.269391 0
M  V30 14 N 8.886054 6.615679 -10.968219 0
M  V30 15 C 10.077295 7.156027 -10.662115 0
M  V30 16 O 10.948320 7.372407 -11.506005 0
M  V30 17 C 10.325541 7.483795 -9.215321 0
M  V30 18 C 11.303424 8.444522 -8.871216 0
M  V30 19 C 11.648106 8.664299 -7.524026 0
M  V30 20 C 11.024479 7.926911 -6.496086 0
M  V30 21 C 11.444012 8.094028 -5.103980 0
M  V30 22 C 11.685324 9.387209 -4.543448 0
M  V30 23 C 12.082538 9.344883 -3.232800 0
M  V30 24 S 12.157006 7.711360 -2.639419 0
M  V30 25 C 11.684630 7.091815 -4.196440 0
M  V30 26 C 10.028039 6.987387 -6.833134 0
M  V30 27 C 9.681182 6.764753 -8.180124 0
M  V30 28 C 10.233878 0.896410 -15.561271 0
M  V30 29 C 10.043927 0.253626 -16.948496 0
M  V30 30 C 12.885516 1.670960 -18.847900 0
M  V30 31 C 14.099984 1.280969 -19.447218 0
M  V30 32 H 16.076591 0.294668 -20.995401 0
M  V30 33 H 16.369638 -0.737474 -19.589664 0
M  V30 34 H 15.529898 -1.383838 -21.001015 0
M  V30 35 H 13.508158 -2.064970 -19.745636 0
M  V30 36 H 11.362230 -1.381978 -18.752377 0
M  V30 37 H 9.124894 2.492820 -18.220751 0
M  V30 38 H 10.661379 3.062890 -18.782928 0
M  V30 39 H 10.026883 4.135922 -16.622118 0
M  V30 40 H 11.496492 3.202840 -16.414497 0
M  V30 41 H 10.993184 3.110181 -13.987079 0
M  V30 42 H 9.623662 2.172008 -13.446951 0
M  V30 43 H 8.032941 3.958212 -14.119280 0
M  V30 44 H 9.362391 4.957287 -14.669197 0
M  V30 45 H 10.354805 4.883841 -12.377222 0
M  V30 46 H 8.974992 3.989381 -11.802545 0
M  V30 47 H 7.458915 5.885750 -12.295057 0
M  V30 48 H 8.753203 6.788022 -13.046396 0
M  V30 49 H 8.151307 6.642431 -10.270452 0
M  V30 50 H 11.827282 8.993319 -9.642778 0
M  V30 51 H 12.428480 9.372695 -7.287426 0
M  V30 52 H 11.559221 10.295482 -5.115160 0
M  V30 53 H 12.328389 10.170842 -2.580003 0
M  V30 54 H 11.592909 6.025933 -4.346790 0
M  V30 55 H 9.536462 6.416472 -6.058667 0
M  V30 56 H 8.936476 6.014548 -8.403388 0
M  V30 57 H 11.286147 0.850923 -15.280043 0
M  V30 58 H 9.686288 0.314526 -14.817989 0
M  V30 59 H 8.981586 0.136668 -17.164761 0
M  V30 60 H 10.462072 -0.751740 -16.928650 0
M  V30 61 H 12.762510 2.712442 -18.595846 0
M  V30 62 H 14.859144 2.023105 -19.644409 0
M  V30 63 H 8.794208 2.293526 -15.735705 0
M  V30 END ATOM
M  V30 BEGIN BOND
M  V30 1 1 2 1
M  V30 2 1 3 2
M  V30 3 2 4 3
M  V30 4 1 5 4
M  V30 5 1 6 5
M  V30 6 1 7 6
M  V30 7 1 8 7
M  V30 8 1 9 8
M  V30 9 1 10 9
M  V30 10 1 11 10
M  V30 11 1 12 11
M  V30 12 1 13 12
M  V30 13 1 14 13
M  V30 14 1 15 14
M  V30 15 2 16 15
M  V30 16 1 17 15
M  V30 17 1 18 17
M  V30 18 2 19 18
M  V30 19 1 20 19
M  V30 20 1 21 20
M  V30 21 1 22 21
M  V30 22 2 23 22
M  V30 23 1 24 23
M  V30 24 2 25 21
M  V30 25 1 25 24
M  V30 26 2 26 20
M  V30 27 2 27 17
M  V30 28 1 27 26
M  V30 29 1 28 9
M  V30 30 1 29 6
M  V30 31 1 29 28
M  V30 32 2 30 5
M  V30 33 2 31 2
M  V30 34 1 31 30
M  V30 35 1 32 1
M  V30 36 1 33 1
M  V30 37 1 34 1
M  V30 38 1 35 3
M  V30 39 1 36 4
M  V30 40 1 37 7
M  V30 41 1 38 7
M  V30 42 1 39 8
M  V30 43 1 40 8
M  V30 44 1 41 10
M  V30 45 1 42 10
M  V30 46 1 43 11
M  V30 47 1 44 11
M  V30 48 1 45 12
M  V30 49 1 46 12
M  V30 50 1 47 13
M  V30 51 1 48 13
M  V30 52 1 49 14
M  V30 53 1 50 18
M  V30 54 1 51 19
M  V30 55 1 52 22
M  V30 56 1 53 23
M  V30 57 1 54 25
M  V30 58 1 55 26
M  V30 59 1 56 27
M  V30 60 1 57 28
M  V30 61 1 58 28
M  V30 62 1 59 29
M  V30 63 1 60 29
M  V30 64 1 61 30
M  V30 65 1 62 31
M  V30 66 1 63 9
M  V30 END BOND
M  V30 END CTAB
M  END
>  <b_m_subgroup_collapsed>  (586) 
0

>  <r_i_docking_score>  (586) 
-8.1128706160700208

>  <s_m_subgroup_title>  (586) 
glide-dock_SP_D22_pv

>  <s_m_subgroupid>  (586) 
glide-dock_SP_D22_pv

>  <Molecule ChEMBL ID>  (586) 
CHEMBL4545775

>  <Standard Type>  (586) 
Ki

>  <Standard Value>  (586) 
24994.0

>  <label>  (586) 
0

$$$$
CHEMBL156369
     RDKit          3D

  0  0  0  0  0  0  0  0  0  0999 V3000
M  V30 BEGIN CTAB
M  V30 COUNTS 46 49 0 0 1
M  V30 BEGIN ATOM
M  V30 1 C 11.934701 6.700225 -13.297013 0
M  V30 2 C 11.044353 5.485673 -13.487050 0
M  V30 3 C 11.514424 4.422469 -14.230593 0
M  V30 4 C 10.710053 3.278270 -14.446732 0
M  V30 5 C 9.437846 3.217449 -13.930566 0
M  V30 6 N 8.969855 4.266183 -13.200874 0
M  V30 7 N 7.722203 4.339620 -12.647160 0
M  V30 8 C 7.714705 5.500850 -12.036714 0
M  V30 9 C 8.926611 6.233198 -12.149626 0
M  V30 10 C 9.178841 7.578999 -11.528157 0
M  V30 11 N 9.286152 7.506483 -10.048858 0 CHG=1
M  V30 12 C 10.373272 6.622813 -9.555916 0
M  V30 13 C 10.407908 6.558470 -8.019835 0
M  V30 14 N 10.423770 7.894905 -7.425668 0
M  V30 15 C 10.889365 8.056928 -6.098132 0
M  V30 16 C 11.089177 9.349041 -5.549776 0
M  V30 17 C 11.565694 9.513526 -4.233641 0
M  V30 18 C 11.882363 8.391612 -3.448303 0
M  V30 19 Cl 12.486346 8.589814 -1.846651 0
M  V30 20 C 11.689730 7.102891 -3.971580 0
M  V30 21 C 11.197488 6.941552 -5.279468 0
M  V30 22 C 9.342591 8.762757 -7.889092 0
M  V30 23 C 9.332622 8.850574 -9.425033 0
M  V30 24 C 9.729156 5.427728 -12.929645 0
M  V30 25 H 11.463990 7.590736 -13.711240 0
M  V30 26 H 12.145296 6.871305 -12.242316 0
M  V30 27 H 12.888380 6.574629 -13.808967 0
M  V30 28 H 12.512980 4.457489 -14.656482 0
M  V30 29 H 11.094795 2.443982 -15.025928 0
M  V30 30 H 8.773910 2.369074 -14.062516 0
M  V30 31 H 6.825888 5.805041 -11.499075 0
M  V30 32 H 10.075689 8.048153 -11.929393 0
M  V30 33 H 8.355474 8.247094 -11.789170 0
M  V30 34 H 10.248790 5.612093 -9.945065 0
M  V30 35 H 11.328930 6.994973 -9.926480 0
M  V30 36 H 9.536797 6.016185 -7.647888 0
M  V30 37 H 11.290103 5.989886 -7.729345 0
M  V30 38 H 10.897714 10.238741 -6.128760 0
M  V30 39 H 11.684732 10.504339 -3.822617 0
M  V30 40 H 11.915632 6.233770 -3.370492 0
M  V30 41 H 11.057096 5.930534 -5.624992 0
M  V30 42 H 8.393590 8.361882 -7.528590 0
M  V30 43 H 9.420897 9.770035 -7.490863 0
M  V30 44 H 10.224511 9.374122 -9.769700 0
M  V30 45 H 8.470051 9.430877 -9.751097 0
M  V30 46 H 8.400503 7.116292 -9.743464 0
M  V30 END ATOM
M  V30 BEGIN BOND
M  V30 1 1 2 1
M  V30 2 2 3 2
M  V30 3 1 4 3
M  V30 4 2 5 4
M  V30 5 1 6 5
M  V30 6 1 7 6
M  V30 7 2 8 7
M  V30 8 1 9 8
M  V30 9 1 10 9
M  V30 10 1 11 10
M  V30 11 1 12 11
M  V30 12 1 13 12
M  V30 13 1 14 13
M  V30 14 1 15 14
M  V30 15 1 16 15
M  V30 16 2 17 16
M  V30 17 1 18 17
M  V30 18 1 19 18
M  V30 19 2 20 18
M  V30 20 2 21 15
M  V30 21 1 21 20
M  V30 22 1 22 14
M  V30 23 1 23 11
M  V30 24 1 23 22
M  V30 25 1 24 2
M  V30 26 1 24 6
M  V30 27 2 24 9
M  V30 28 1 25 1
M  V30 29 1 26 1
M  V30 30 1 27 1
M  V30 31 1 28 3
M  V30 32 1 29 4
M  V30 33 1 30 5
M  V30 34 1 31 8
M  V30 35 1 32 10
M  V30 36 1 33 10
M  V30 37 1 34 12
M  V30 38 1 35 12
M  V30 39 1 36 13
M  V30 40 1 37 13
M  V30 41 1 38 16
M  V30 42 1 39 17
M  V30 43 1 40 20
M  V30 44 1 41 21
M  V30 45 1 42 22
M  V30 46 1 43 22
M  V30 47 1 44 23
M  V30 48 1 45 23
M  V30 49 1 46 11
M  V30 END BOND
M  V30 END CTAB
M  END
>  <b_m_subgroup_collapsed>  (587) 
0

>  <r_i_docking_score>  (587) 
-8.1107204702765596

>  <s_m_subgroup_title>  (587) 
glide-dock_SP_D22_pv

>  <s_m_subgroupid>  (587) 
glide-dock_SP_D22_pv

>  <Molecule ChEMBL ID>  (587) 
CHEMBL156369

>  <Standard Type>  (587) 
Ki

>  <Standard Value>  (587) 
12000.0

>  <label>  (587) 
0

$$$$
CHEMBL5750360
     RDKit          3D

  0  0  0  0  0  0  0  0  0  0999 V3000
M  V30 BEGIN CTAB
M  V30 COUNTS 60 63 0 0 1
M  V30 BEGIN ATOM
M  V30 1 O 10.086320 4.064880 -12.366716 0
M  V30 2 C 9.324356 4.588953 -13.168681 0
M  V30 3 N 9.563572 4.575073 -14.488179 0
M  V30 4 C 10.776672 4.020912 -15.100501 0 CFG=1
M  V30 5 C 10.549811 2.749790 -15.921458 0
M  V30 6 C 9.287952 2.108240 -15.987150 0
M  V30 7 C 9.136988 0.909386 -16.711716 0
M  V30 8 C 10.241815 0.342453 -17.376097 0
M  V30 9 Cl 10.064905 -1.131900 -18.248251 0
M  V30 10 C 11.495420 0.976266 -17.324009 0
M  V30 11 C 11.648890 2.170395 -16.596539 0
M  V30 12 C 11.523385 5.106722 -15.864059 0
M  V30 13 C 11.065491 5.567203 -17.117640 0
M  V30 14 C 11.802527 6.572615 -17.773251 0
M  V30 15 C 12.950222 7.092015 -17.144100 0
M  V30 16 C 13.318843 6.573411 -15.888307 0
M  V30 17 N 12.625471 5.602633 -15.258815 0
M  V30 18 C 8.054424 5.302030 -12.669600 0 CFG=1
M  V30 19 C 7.392686 4.617274 -11.458182 0
M  V30 20 C 8.213340 4.752395 -10.150115 0
M  V30 21 N 8.494155 6.172321 -9.822776 0 CFG=1 CHG=1
M  V30 22 C 9.286246 6.310151 -8.572350 0
M  V30 23 C 9.040342 7.644807 -7.840728 0
M  V30 24 N 10.128859 7.989100 -6.926023 0
M  V30 25 C 10.475773 7.178025 -5.846323 0
M  V30 26 C 11.285800 7.559697 -4.837136 0
M  V30 27 C 11.843938 8.926264 -4.837584 0
M  V30 28 O 12.486635 9.363882 -3.887767 0
M  V30 29 C 11.581308 9.727354 -6.049617 0
M  V30 30 C 10.771701 9.224738 -7.005229 0
M  V30 31 C 9.138292 6.884908 -10.958321 0
M  V30 32 C 8.333386 6.758289 -12.264878 0
M  V30 33 H 8.915391 5.038387 -15.104834 0
M  V30 34 H 11.460111 3.687359 -14.317173 0
M  V30 35 H 8.428652 2.509197 -15.471827 0
M  V30 36 H 8.175302 0.417833 -16.749760 0
M  V30 37 H 12.347135 0.538188 -17.825619 0
M  V30 38 H 12.626872 2.631508 -16.542742 0
M  V30 39 H 10.176867 5.153080 -17.571779 0
M  V30 40 H 11.485312 6.947524 -18.735497 0
M  V30 41 H 13.530596 7.874451 -17.610939 0
M  V30 42 H 14.195112 6.947248 -15.379411 0
M  V30 43 H 7.337642 5.300107 -13.492018 0
M  V30 44 H 6.415962 5.079730 -11.323770 0
M  V30 45 H 7.185013 3.572620 -11.676699 0
M  V30 46 H 7.686129 4.280085 -9.325665 0
M  V30 47 H 9.154525 4.208592 -10.195366 0
M  V30 48 H 9.031001 5.502633 -7.885004 0
M  V30 49 H 10.346265 6.183710 -8.802104 0
M  V30 50 H 8.914624 8.453130 -8.561921 0
M  V30 51 H 8.103752 7.597847 -7.279798 0
M  V30 52 H 10.046094 6.187296 -5.870976 0
M  V30 53 H 11.523783 6.893171 -4.020421 0
M  V30 54 H 12.055043 10.691774 -6.155319 0
M  V30 55 H 10.578431 9.770986 -7.915586 0
M  V30 56 H 9.243731 7.941985 -10.715522 0
M  V30 57 H 10.148601 6.499868 -11.106228 0
M  V30 58 H 8.889230 7.255207 -13.045679 0
M  V30 59 H 7.389462 7.301447 -12.204964 0
M  V30 60 H 7.593776 6.643044 -9.694767 0
M  V30 END ATOM
M  V30 BEGIN BOND
M  V30 1 2 2 1
M  V30 2 1 3 2
M  V30 3 1 4 3
M  V30 4 1 5 4
M  V30 5 1 6 5
M  V30 6 2 7 6
M  V30 7 1 8 7
M  V30 8 1 9 8
M  V30 9 2 10 8
M  V30 10 2 11 5
M  V30 11 1 11 10
M  V30 12 1 12 4
M  V30 13 2 13 12
M  V30 14 1 14 13
M  V30 15 2 15 14
M  V30 16 1 16 15
M  V30 17 1 17 12
M  V30 18 2 17 16
M  V30 19 1 18 2
M  V30 20 1 19 18
M  V30 21 1 20 19
M  V30 22 1 21 20
M  V30 23 1 22 21
M  V30 24 1 23 22
M  V30 25 1 24 23
M  V30 26 1 25 24
M  V30 27 2 26 25
M  V30 28 1 27 26
M  V30 29 2 28 27
M  V30 30 1 29 27
M  V30 31 1 30 24
M  V30 32 2 30 29
M  V30 33 1 31 21
M  V30 34 1 32 18
M  V30 35 1 32 31
M  V30 36 1 33 3
M  V30 37 1 4 34 CFG=1
M  V30 38 1 35 6
M  V30 39 1 36 7
M  V30 40 1 37 10
M  V30 41 1 38 11
M  V30 42 1 39 13
M  V30 43 1 40 14
M  V30 44 1 41 15
M  V30 45 1 42 16
M  V30 46 1 18 43 CFG=3
M  V30 47 1 44 19
M  V30 48 1 45 19
M  V30 49 1 46 20
M  V30 50 1 47 20
M  V30 51 1 48 22
M  V30 52 1 49 22
M  V30 53 1 50 23
M  V30 54 1 51 23
M  V30 55 1 52 25
M  V30 56 1 53 26
M  V30 57 1 54 29
M  V30 58 1 55 30
M  V30 59 1 56 31
M  V30 60 1 57 31
M  V30 61 1 58 32
M  V30 62 1 59 32
M  V30 63 1 21 60 CFG=1
M  V30 END BOND
M  V30 END CTAB
M  END
>  <b_m_subgroup_collapsed>  (588) 
0

>  <r_i_docking_score>  (588) 
-8.1104271541677502

>  <s_m_subgroup_title>  (588) 
glide-dock_SP_D22_pv

>  <s_m_subgroupid>  (588) 
glide-dock_SP_D22_pv

>  <Molecule ChEMBL ID>  (588) 
CHEMBL5750360

>  <Standard Type>  (588) 
Ki

>  <Standard Value>  (588) 
20000.0

>  <label>  (588) 
0

$$$$
CHEMBL3896746
     RDKit          3D

  0  0  0  0  0  0  0  0  0  0999 V3000
M  V30 BEGIN CTAB
M  V30 COUNTS 56 59 0 0 1
M  V30 BEGIN ATOM
M  V30 1 O 12.089981 9.379395 -1.601310 0
M  V30 2 C 12.085876 8.824453 -2.687411 0
M  V30 3 C 12.515726 7.369956 -2.755218 0
M  V30 4 C 11.681735 6.571546 -3.736535 0
M  V30 5 C 11.454578 7.307067 -5.030187 0
M  V30 6 C 11.300285 6.583938 -6.218362 0
M  V30 7 C 11.184216 7.257565 -7.433279 0
M  V30 8 C 11.140244 8.669370 -7.479778 0
M  V30 9 O 10.983180 9.372285 -8.655829 0
M  V30 10 C 10.946442 8.664144 -9.891788 0
M  V30 11 C 9.679768 7.847888 -10.047971 0
M  V30 12 C 9.697072 6.562612 -10.433937 0
M  V30 13 C 8.499530 5.639285 -10.465211 0
M  V30 14 N 8.134234 5.209076 -11.835086 0 CHG=1
M  V30 15 C 9.189871 4.379773 -12.484608 0
M  V30 16 C 8.776821 3.889562 -13.884574 0
M  V30 17 N 7.457831 3.268451 -13.846017 0
M  V30 18 C 7.167605 2.176023 -14.696582 0
M  V30 19 C 7.801497 2.114280 -15.962141 0
M  V30 20 C 7.541751 1.066282 -16.860422 0
M  V30 21 C 6.635659 0.053062 -16.509182 0
M  V30 22 C 6.004299 0.084195 -15.253765 0
M  V30 23 Cl 4.873929 -1.162897 -14.868773 0
M  V30 24 C 6.274745 1.123439 -14.333523 0
M  V30 25 Cl 5.489390 1.067392 -12.791385 0
M  V30 26 C 6.399026 4.082699 -13.255467 0
M  V30 27 C 6.804610 4.541976 -11.846981 0
M  V30 28 C 11.276060 9.398423 -6.271616 0
M  V30 29 C 11.463743 8.717721 -5.045809 0
M  V30 30 N 11.674602 9.419282 -3.825495 0
M  V30 31 H 13.550440 7.370422 -3.092024 0
M  V30 32 H 12.493124 6.906262 -1.769938 0
M  V30 33 H 10.733337 6.258157 -3.297081 0
M  V30 34 H 12.221721 5.656638 -3.956344 0
M  V30 35 H 11.376131 5.513573 -6.224616 0
M  V30 36 H 11.139768 6.641945 -8.313042 0
M  V30 37 H 11.833665 8.040121 -10.004084 0
M  V30 38 H 10.986118 9.372839 -10.708882 0
M  V30 39 H 8.749718 8.335419 -9.796659 0
M  V30 40 H 10.651132 6.147513 -10.702716 0
M  V30 41 H 8.707191 4.769583 -9.839667 0
M  V30 42 H 7.685068 6.170097 -9.991521 0
M  V30 43 H 10.119919 4.941011 -12.573961 0
M  V30 44 H 9.405984 3.517711 -11.849022 0
M  V30 45 H 8.755201 4.724115 -14.587521 0
M  V30 46 H 9.526855 3.183817 -14.244652 0
M  V30 47 H 8.491155 2.882255 -16.276442 0
M  V30 48 H 8.033231 1.037545 -17.822189 0
M  V30 49 H 6.424036 -0.751489 -17.199825 0
M  V30 50 H 6.251003 4.971497 -13.855768 0
M  V30 51 H 5.434565 3.579892 -13.237533 0
M  V30 52 H 6.827075 3.683429 -11.174476 0
M  V30 53 H 6.052530 5.229514 -11.455386 0
M  V30 54 H 11.268296 10.478275 -6.298566 0
M  V30 55 H 11.457542 10.403853 -3.794049 0
M  V30 56 H 8.028004 6.050828 -12.381953 0
M  V30 END ATOM
M  V30 BEGIN BOND
M  V30 1 2 2 1
M  V30 2 1 3 2
M  V30 3 1 4 3
M  V30 4 1 5 4
M  V30 5 1 6 5
M  V30 6 2 7 6
M  V30 7 1 8 7
M  V30 8 1 9 8
M  V30 9 1 10 9
M  V30 10 1 11 10
M  V30 11 2 12 11
M  V30 12 1 13 12
M  V30 13 1 14 13
M  V30 14 1 15 14
M  V30 15 1 16 15
M  V30 16 1 17 16
M  V30 17 1 18 17
M  V30 18 2 19 18
M  V30 19 1 20 19
M  V30 20 2 21 20
M  V30 21 1 22 21
M  V30 22 1 23 22
M  V30 23 1 24 18
M  V30 24 2 24 22
M  V30 25 1 25 24
M  V30 26 1 26 17
M  V30 27 1 27 14
M  V30 28 1 27 26
M  V30 29 2 28 8
M  V30 30 2 29 5
M  V30 31 1 29 28
M  V30 32 1 30 2
M  V30 33 1 30 29
M  V30 34 1 31 3
M  V30 35 1 32 3
M  V30 36 1 33 4
M  V30 37 1 34 4
M  V30 38 1 35 6
M  V30 39 1 36 7
M  V30 40 1 37 10
M  V30 41 1 38 10
M  V30 42 1 39 11
M  V30 43 1 40 12
M  V30 44 1 41 13
M  V30 45 1 42 13
M  V30 46 1 43 15
M  V30 47 1 44 15
M  V30 48 1 45 16
M  V30 49 1 46 16
M  V30 50 1 47 19
M  V30 51 1 48 20
M  V30 52 1 49 21
M  V30 53 1 50 26
M  V30 54 1 51 26
M  V30 55 1 52 27
M  V30 56 1 53 27
M  V30 57 1 54 28
M  V30 58 1 55 30
M  V30 59 1 56 14
M  V30 END BOND
M  V30 END CTAB
M  END
>  <b_m_subgroup_collapsed>  (589) 
0

>  <r_i_docking_score>  (589) 
-8.1100204046302409

>  <s_m_subgroup_title>  (589) 
glide-dock_SP_D22_pv

>  <s_m_subgroupid>  (589) 
glide-dock_SP_D22_pv

>  <Molecule ChEMBL ID>  (589) 
CHEMBL3896746

>  <Standard Type>  (589) 
Ki

>  <Standard Value>  (589) 
15.0

>  <label>  (589) 
1

$$$$
CHEMBL3819434
     RDKit          3D

  0  0  0  0  0  0  0  0  0  0999 V3000
M  V30 BEGIN CTAB
M  V30 COUNTS 57 61 0 0 1
M  V30 BEGIN ATOM
M  V30 1 O 5.681415 4.926381 -13.442957 0
M  V30 2 C 7.029227 4.706170 -13.078400 0 CFG=1
M  V30 3 C 7.574683 3.534002 -13.922981 0
M  V30 4 C 8.725528 3.647422 -14.743315 0
M  V30 5 C 9.221047 2.550892 -15.465838 0
M  V30 6 C 8.560084 1.316333 -15.408908 0
M  V30 7 Cl 9.201987 -0.013155 -16.297201 0
M  V30 8 C 7.381177 1.189939 -14.648028 0
M  V30 9 C 6.886130 2.295787 -13.922900 0
M  V30 10 C 7.771042 6.068877 -13.251102 0
M  V30 11 C 8.955050 6.331295 -12.287759 0 CFG=2
M  V30 12 C 10.065272 5.294142 -12.336926 0
M  V30 13 C 9.533324 4.145978 -11.458818 0
M  V30 14 C 8.269834 4.730176 -10.801676 0 CFG=2
M  V30 15 C 6.973414 4.388042 -11.565869 0
M  V30 16 N 8.481190 6.186744 -10.900685 0 CFG=1 CHG=1
M  V30 17 C 9.360940 6.712287 -9.831331 0
M  V30 18 C 9.752055 8.191749 -10.014047 0
M  V30 19 C 10.571138 8.690820 -8.826952 0
M  V30 20 C 9.706124 8.834528 -7.573937 0
M  V30 21 C 10.498452 8.764385 -6.327524 0
M  V30 22 N 10.886272 7.591751 -5.818027 0
M  V30 23 C 11.479744 7.800611 -4.582805 0
M  V30 24 C 11.915959 6.811502 -3.679432 0
M  V30 25 C 12.411552 7.152964 -2.409470 0
M  V30 26 C 12.486676 8.503859 -2.021529 0
M  V30 27 C 12.086041 9.511807 -2.913294 0
M  V30 28 C 11.589530 9.160271 -4.176116 0
M  V30 29 S 10.986039 10.205101 -5.445456 0
M  V30 30 H 5.324627 5.614262 -12.900703 0
M  V30 31 H 9.240919 4.579412 -14.884348 0
M  V30 32 H 10.106453 2.661999 -16.074530 0
M  V30 33 H 6.858584 0.244842 -14.618054 0
M  V30 34 H 5.982564 2.182376 -13.342202 0
M  V30 35 H 8.086080 6.212735 -14.276634 0
M  V30 36 H 7.064951 6.877269 -13.046562 0
M  V30 37 H 9.335039 7.328409 -12.500632 0
M  V30 38 H 10.444193 5.012350 -13.312274 0
M  V30 39 H 10.885997 5.792586 -11.853053 0
M  V30 40 H 9.345057 3.242405 -12.032001 0
M  V30 41 H 10.231499 3.866270 -10.679266 0
M  V30 42 H 8.165611 4.415262 -9.761766 0
M  V30 43 H 6.213904 5.038781 -11.135545 0
M  V30 44 H 6.637180 3.372475 -11.368485 0
M  V30 45 H 8.801213 6.563617 -8.910428 0
M  V30 46 H 10.263558 6.111488 -9.719837 0
M  V30 47 H 10.369041 8.316693 -10.902493 0
M  V30 48 H 8.866721 8.814431 -10.151814 0
M  V30 49 H 11.383704 7.984565 -8.646304 0
M  V30 50 H 11.048673 9.644167 -9.057164 0
M  V30 51 H 9.168263 9.772295 -7.626047 0
M  V30 52 H 8.929792 8.077119 -7.493445 0
M  V30 53 H 11.831617 5.774729 -3.962141 0
M  V30 54 H 12.724513 6.370502 -1.733177 0
M  V30 55 H 12.863489 8.773468 -1.046798 0
M  V30 56 H 12.134986 10.552152 -2.626003 0
M  V30 57 H 7.595886 6.686719 -10.777586 0
M  V30 END ATOM
M  V30 BEGIN BOND
M  V30 1 1 2 1 CFG=3
M  V30 2 1 3 2
M  V30 3 1 4 3
M  V30 4 2 5 4
M  V30 5 1 6 5
M  V30 6 1 7 6
M  V30 7 2 8 6
M  V30 8 2 9 3
M  V30 9 1 9 8
M  V30 10 1 10 2
M  V30 11 1 11 10
M  V30 12 1 12 11
M  V30 13 1 13 12
M  V30 14 1 14 13
M  V30 15 1 15 2
M  V30 16 1 15 14
M  V30 17 1 16 11
M  V30 18 1 16 14
M  V30 19 1 17 16
M  V30 20 1 18 17
M  V30 21 1 19 18
M  V30 22 1 20 19
M  V30 23 1 21 20
M  V30 24 2 22 21
M  V30 25 1 23 22
M  V30 26 2 24 23
M  V30 27 1 25 24
M  V30 28 2 26 25
M  V30 29 1 27 26
M  V30 30 1 28 23
M  V30 31 2 28 27
M  V30 32 1 29 21
M  V30 33 1 29 28
M  V30 34 1 30 1
M  V30 35 1 31 4
M  V30 36 1 32 5
M  V30 37 1 33 8
M  V30 38 1 34 9
M  V30 39 1 35 10
M  V30 40 1 36 10
M  V30 41 1 11 37 CFG=1
M  V30 42 1 38 12
M  V30 43 1 39 12
M  V30 44 1 40 13
M  V30 45 1 41 13
M  V30 46 1 14 42 CFG=1
M  V30 47 1 43 15
M  V30 48 1 44 15
M  V30 49 1 45 17
M  V30 50 1 46 17
M  V30 51 1 47 18
M  V30 52 1 48 18
M  V30 53 1 49 19
M  V30 54 1 50 19
M  V30 55 1 51 20
M  V30 56 1 52 20
M  V30 57 1 53 24
M  V30 58 1 54 25
M  V30 59 1 55 26
M  V30 60 1 56 27
M  V30 61 1 16 57 CFG=3
M  V30 END BOND
M  V30 END CTAB
M  END
>  <b_m_subgroup_collapsed>  (590) 
0

>  <r_i_docking_score>  (590) 
-8.1099578424376109

>  <s_m_subgroup_title>  (590) 
glide-dock_SP_D22_pv

>  <s_m_subgroupid>  (590) 
glide-dock_SP_D22_pv

>  <Molecule ChEMBL ID>  (590) 
CHEMBL3819434

>  <Standard Type>  (590) 
Ki

>  <Standard Value>  (590) 
44.67

>  <label>  (590) 
1

$$$$
CHEMBL4528835
     RDKit          3D

  0  0  0  0  0  0  0  0  0  0999 V3000
M  V30 BEGIN CTAB
M  V30 COUNTS 50 53 0 0 1
M  V30 BEGIN ATOM
M  V30 1 O 7.376584 4.431648 -13.356611 0
M  V30 2 C 8.542730 4.203758 -13.682582 0
M  V30 3 C 9.626836 5.249857 -13.372920 0
M  V30 4 C 9.289755 6.263983 -12.254826 0
M  V30 5 C 9.182772 5.605003 -10.858310 0
M  V30 6 N 9.286378 6.561760 -9.721468 0 CFG=2 CHG=1
M  V30 7 C 10.682677 7.039196 -9.497905 0
M  V30 8 C 10.765151 8.186707 -8.473799 0
M  V30 9 C 9.988574 7.888271 -7.201225 0 CFG=1
M  V30 10 C 10.788139 8.086349 -5.946308 0
M  V30 11 C 10.972842 9.375381 -5.399851 0
M  V30 12 C 11.589254 9.529448 -4.141034 0
M  V30 13 C 12.032154 8.400380 -3.430116 0
M  V30 14 Cl 12.675588 8.572563 -1.846754 0
M  V30 15 C 11.895514 7.118926 -3.988200 0
M  V30 16 C 11.285981 6.969124 -5.245848 0
M  V30 17 C 8.516911 8.244607 -7.184019 0
M  V30 18 C 8.923059 6.805116 -7.241804 0 CFG=1
M  V30 19 C 8.743278 5.947329 -8.481011 0
M  V30 20 C 8.963058 2.953977 -14.383590 0
M  V30 21 C 8.013332 1.926247 -14.604235 0
M  V30 22 C 8.390537 0.719819 -15.224256 0
M  V30 23 C 9.716106 0.531950 -15.652095 0
M  V30 24 F 10.086591 -0.628011 -16.244024 0
M  V30 25 C 10.660105 1.555929 -15.466968 0
M  V30 26 C 10.290085 2.758800 -14.838996 0
M  V30 27 H 10.546611 4.739515 -13.091146 0
M  V30 28 H 9.836918 5.773572 -14.305788 0
M  V30 29 H 10.073740 7.019518 -12.267410 0
M  V30 30 H 8.365522 6.801494 -12.481840 0
M  V30 31 H 8.223864 5.084315 -10.806129 0
M  V30 32 H 9.950591 4.839448 -10.742420 0
M  V30 33 H 11.285559 6.200341 -9.147934 0
M  V30 34 H 11.138634 7.379766 -10.425672 0
M  V30 35 H 11.814680 8.383048 -8.235471 0
M  V30 36 H 10.378261 9.108559 -8.910797 0
M  V30 37 H 10.596431 10.244862 -5.918121 0
M  V30 38 H 11.685942 10.509259 -3.696632 0
M  V30 39 H 12.232536 6.248362 -3.444702 0
M  V30 40 H 11.154514 5.977390 -5.649099 0
M  V30 41 H 8.086414 8.573612 -6.247344 0
M  V30 42 H 8.087110 8.693002 -8.075481 0
M  V30 43 H 8.727905 6.255090 -6.322368 0
M  V30 44 H 7.685451 5.740974 -8.611238 0
M  V30 45 H 9.234527 4.990412 -8.302275 0
M  V30 46 H 6.990094 2.048049 -14.275667 0
M  V30 47 H 7.666209 -0.065320 -15.373741 0
M  V30 48 H 11.678244 1.416578 -15.803696 0
M  V30 49 H 11.050382 3.516647 -14.722324 0
M  V30 50 H 8.680434 7.346569 -9.932207 0
M  V30 END ATOM
M  V30 BEGIN BOND
M  V30 1 2 2 1
M  V30 2 1 3 2
M  V30 3 1 4 3
M  V30 4 1 5 4
M  V30 5 1 6 5
M  V30 6 1 7 6
M  V30 7 1 8 7
M  V30 8 1 9 8
M  V30 9 1 9 10 CFG=1
M  V30 10 1 11 10
M  V30 11 2 12 11
M  V30 12 1 13 12
M  V30 13 1 14 13
M  V30 14 2 15 13
M  V30 15 2 16 10
M  V30 16 1 16 15
M  V30 17 1 17 9
M  V30 18 1 18 9
M  V30 19 1 18 17
M  V30 20 1 19 6
M  V30 21 1 19 18
M  V30 22 1 20 2
M  V30 23 1 21 20
M  V30 24 2 22 21
M  V30 25 1 23 22
M  V30 26 1 24 23
M  V30 27 2 25 23
M  V30 28 2 26 20
M  V30 29 1 26 25
M  V30 30 1 27 3
M  V30 31 1 28 3
M  V30 32 1 29 4
M  V30 33 1 30 4
M  V30 34 1 31 5
M  V30 35 1 32 5
M  V30 36 1 33 7
M  V30 37 1 34 7
M  V30 38 1 35 8
M  V30 39 1 36 8
M  V30 40 1 37 11
M  V30 41 1 38 12
M  V30 42 1 39 15
M  V30 43 1 40 16
M  V30 44 1 41 17
M  V30 45 1 42 17
M  V30 46 1 18 43 CFG=1
M  V30 47 1 44 19
M  V30 48 1 45 19
M  V30 49 1 46 21
M  V30 50 1 47 22
M  V30 51 1 48 25
M  V30 52 1 49 26
M  V30 53 1 6 50 CFG=3
M  V30 END BOND
M  V30 END CTAB
M  END
>  <b_m_subgroup_collapsed>  (591) 
0

>  <r_i_docking_score>  (591) 
-8.1087871601860808

>  <s_m_subgroup_title>  (591) 
glide-dock_SP_D22_pv

>  <s_m_subgroupid>  (591) 
glide-dock_SP_D22_pv

>  <Molecule ChEMBL ID>  (591) 
CHEMBL4528835

>  <Standard Type>  (591) 
Ki

>  <Standard Value>  (591) 
0.1585

>  <label>  (591) 
1

$$$$
CHEMBL164604
     RDKit          3D

  0  0  0  0  0  0  0  0  0  0999 V3000
M  V30 BEGIN CTAB
M  V30 COUNTS 58 61 0 0 1
M  V30 BEGIN ATOM
M  V30 1 C 10.526464 7.588519 -8.622885 0
M  V30 2 C 10.139883 7.317298 -7.365289 0
M  V30 3 C 10.744938 8.012088 -6.219642 0
M  V30 4 C 10.802993 9.418715 -6.205931 0
M  V30 5 C 11.285920 10.096811 -5.070675 0
M  V30 6 C 11.749952 9.369163 -3.959403 0
M  V30 7 C 11.724477 7.960327 -3.985330 0
M  V30 8 C 11.222792 7.278805 -5.111557 0
M  V30 9 C 8.941291 6.423423 -7.138799 0
M  V30 10 C 8.678643 5.466355 -8.305544 0
M  V30 11 N 8.702642 6.133389 -9.631832 0 CFG=2 CHG=1
M  V30 12 C 8.507442 5.116544 -10.698662 0
M  V30 13 C 8.222507 5.708858 -12.093797 0
M  V30 14 C 7.919593 4.655183 -13.186512 0 CFG=1
M  V30 15 C 9.070517 3.647180 -13.409826 0
M  V30 16 C 8.748820 2.654326 -14.539990 0
M  V30 17 C 7.412026 1.913603 -14.323462 0 CFG=2
M  V30 18 N 7.141201 1.048714 -15.463829 0
M  V30 19 C 6.083596 0.171095 -15.575834 0
M  V30 20 N 5.362097 -0.115503 -14.486882 0
M  V30 21 C 4.288435 -0.909991 -14.664878 0
M  V30 22 C 3.953018 -1.429278 -15.925454 0
M  V30 23 C 4.797509 -1.075308 -16.991337 0
M  V30 24 N 5.855691 -0.259123 -16.813765 0
M  V30 25 C 6.272253 2.931833 -14.094917 0
M  V30 26 C 6.582890 3.920319 -12.960218 0
M  V30 27 C 9.913191 6.971561 -9.871242 0
M  V30 28 H 11.345404 8.271968 -8.793044 0
M  V30 29 H 10.432216 9.985483 -7.044812 0
M  V30 30 H 11.286178 11.175739 -5.050519 0
M  V30 31 H 12.123599 9.887723 -3.088422 0
M  V30 32 H 12.081265 7.399459 -3.133226 0
M  V30 33 H 11.183776 6.198596 -5.112211 0
M  V30 34 H 9.094251 5.818316 -6.248154 0
M  V30 35 H 8.085906 7.066881 -6.944099 0
M  V30 36 H 9.432008 4.677073 -8.292293 0
M  V30 37 H 7.708060 4.989459 -8.151990 0
M  V30 38 H 9.390753 4.479295 -10.736654 0
M  V30 39 H 7.685551 4.467331 -10.410343 0
M  V30 40 H 7.379232 6.399078 -12.025723 0
M  V30 41 H 9.072824 6.308068 -12.421861 0
M  V30 42 H 7.812889 5.211655 -14.117337 0
M  V30 43 H 9.989604 4.182421 -13.651053 0
M  V30 44 H 9.285229 3.085132 -12.503084 0
M  V30 45 H 9.561801 1.931987 -14.627368 0
M  V30 46 H 8.721695 3.198163 -15.485469 0
M  V30 47 H 7.495458 1.267648 -13.448425 0
M  V30 48 H 7.643890 1.223974 -16.318110 0
M  V30 49 H 3.695730 -1.140606 -13.792020 0
M  V30 50 H 3.111029 -2.091361 -16.063646 0
M  V30 51 H 4.617034 -1.438502 -17.992785 0
M  V30 52 H 5.341529 2.421369 -13.847732 0
M  V30 53 H 6.085774 3.471401 -15.020828 0
M  V30 54 H 6.595345 3.374837 -12.016397 0
M  V30 55 H 5.768302 4.642758 -12.880922 0
M  V30 56 H 9.657075 7.770717 -10.568580 0
M  V30 57 H 10.695602 6.377421 -10.343078 0
M  V30 58 H 7.895753 6.756496 -9.657843 0
M  V30 END ATOM
M  V30 BEGIN BOND
M  V30 1 2 2 1
M  V30 2 1 3 2
M  V30 3 2 4 3
M  V30 4 1 5 4
M  V30 5 2 6 5
M  V30 6 1 7 6
M  V30 7 1 8 3
M  V30 8 2 8 7
M  V30 9 1 9 2
M  V30 10 1 10 9
M  V30 11 1 11 10
M  V30 12 1 12 11
M  V30 13 1 13 12
M  V30 14 1 14 13
M  V30 15 1 15 14
M  V30 16 1 16 15
M  V30 17 1 17 16
M  V30 18 1 18 17
M  V30 19 1 19 18
M  V30 20 2 20 19
M  V30 21 1 21 20
M  V30 22 2 22 21
M  V30 23 1 23 22
M  V30 24 1 24 19
M  V30 25 2 24 23
M  V30 26 1 25 17
M  V30 27 1 26 14
M  V30 28 1 26 25
M  V30 29 1 27 1
M  V30 30 1 27 11
M  V30 31 1 28 1
M  V30 32 1 29 4
M  V30 33 1 30 5
M  V30 34 1 31 6
M  V30 35 1 32 7
M  V30 36 1 33 8
M  V30 37 1 34 9
M  V30 38 1 35 9
M  V30 39 1 36 10
M  V30 40 1 37 10
M  V30 41 1 38 12
M  V30 42 1 39 12
M  V30 43 1 40 13
M  V30 44 1 41 13
M  V30 45 1 14 42 CFG=3
M  V30 46 1 43 15
M  V30 47 1 44 15
M  V30 48 1 45 16
M  V30 49 1 46 16
M  V30 50 1 17 47 CFG=1
M  V30 51 1 48 18
M  V30 52 1 49 21
M  V30 53 1 50 22
M  V30 54 1 51 23
M  V30 55 1 52 25
M  V30 56 1 53 25
M  V30 57 1 54 26
M  V30 58 1 55 26
M  V30 59 1 56 27
M  V30 60 1 57 27
M  V30 61 1 11 58 CFG=1
M  V30 END BOND
M  V30 END CTAB
M  END
>  <b_m_subgroup_collapsed>  (592) 
0

>  <r_i_docking_score>  (592) 
-8.1087327063522192

>  <s_m_subgroup_title>  (592) 
glide-dock_SP_D22_pv

>  <s_m_subgroupid>  (592) 
glide-dock_SP_D22_pv

>  <Molecule ChEMBL ID>  (592) 
CHEMBL164604

>  <Standard Type>  (592) 
Ki

>  <Standard Value>  (592) 
4.7

>  <label>  (592) 
1

$$$$
CHEMBL556496
     RDKit          3D

  0  0  0  0  0  0  0  0  0  0999 V3000
M  V30 BEGIN CTAB
M  V30 COUNTS 58 61 0 0 1
M  V30 BEGIN ATOM
M  V30 1 C 11.742750 10.026272 -3.166851 0
M  V30 2 O 11.088308 10.083926 -4.433741 0
M  V30 3 C 11.072820 8.915790 -5.166678 0
M  V30 4 C 11.685082 7.729868 -4.703850 0
M  V30 5 C 11.623269 6.572313 -5.477942 0
M  V30 6 C 10.966653 6.567891 -6.715079 0
M  V30 7 C 10.307975 7.712070 -7.190851 0
M  V30 8 C 9.538721 7.695473 -8.520291 0 CFG=1
M  V30 9 C 10.306211 8.487676 -9.591247 0
M  V30 10 C 9.527665 8.473810 -10.908251 0
M  V30 11 C 9.279469 7.045376 -11.373491 0
M  V30 12 N 8.486037 6.288486 -10.372928 0 CFG=1 CHG=1
M  V30 13 C 8.140073 4.937563 -10.879495 0
M  V30 14 C 7.080428 4.973740 -12.016657 0
M  V30 15 N 7.342779 3.968003 -13.047644 0
M  V30 16 C 6.357080 2.977018 -13.411461 0
M  V30 17 C 7.113046 2.140274 -14.439022 0
M  V30 18 N 8.373950 2.854103 -14.641670 0
M  V30 19 C 9.398051 2.361418 -15.528082 0
M  V30 20 C 10.539039 3.130032 -15.889590 0
M  V30 21 C 11.530187 2.609333 -16.742929 0
M  V30 22 C 11.396312 1.315779 -17.270987 0
M  V30 23 C 10.265204 0.546614 -16.947121 0
M  V30 24 Cl 10.085876 -1.027761 -17.624012 0
M  V30 25 C 9.279081 1.061371 -16.083172 0
M  V30 26 C 8.441515 3.925864 -13.820444 0
M  V30 27 O 9.354629 4.747831 -13.740023 0
M  V30 28 C 9.173347 6.269366 -9.049840 0
M  V30 29 C 10.392476 8.888172 -6.411057 0
M  V30 30 H 11.686122 10.972342 -2.646873 0
M  V30 31 H 11.286227 9.286502 -2.508750 0
M  V30 32 H 12.803133 9.792241 -3.278362 0
M  V30 33 H 12.211889 7.663679 -3.764799 0
M  V30 34 H 12.098425 5.677883 -5.118257 0
M  V30 35 H 10.970675 5.644240 -7.267554 0
M  V30 36 H 8.597907 8.216483 -8.332816 0
M  V30 37 H 11.294611 8.050584 -9.738978 0
M  V30 38 H 10.466739 9.516711 -9.270040 0
M  V30 39 H 10.086055 8.972395 -11.688878 0
M  V30 40 H 8.582348 9.008723 -10.801107 0
M  V30 41 H 10.229267 6.537875 -11.552012 0
M  V30 42 H 8.774844 7.091885 -12.336123 0
M  V30 43 H 7.735663 4.335551 -10.065214 0
M  V30 44 H 9.060715 4.431135 -11.173867 0
M  V30 45 H 7.006365 5.944493 -12.504952 0
M  V30 46 H 6.091229 4.805776 -11.588126 0
M  V30 47 H 6.043191 2.390162 -12.547792 0
M  V30 48 H 5.481057 3.460578 -13.846488 0
M  V30 49 H 6.551810 2.048018 -15.370358 0
M  V30 50 H 7.301736 1.141486 -14.042982 0
M  V30 51 H 10.691802 4.136268 -15.537660 0
M  V30 52 H 12.392899 3.209589 -16.998081 0
M  V30 53 H 12.155118 0.917824 -17.928818 0
M  V30 54 H 8.432436 0.430159 -15.857924 0
M  V30 55 H 8.539104 5.760108 -8.322672 0
M  V30 56 H 10.072027 5.666053 -9.178863 0
M  V30 57 H 9.914015 9.772504 -6.781330 0
M  V30 58 H 7.604558 6.807818 -10.246906 0
M  V30 END ATOM
M  V30 BEGIN BOND
M  V30 1 1 2 1
M  V30 2 1 3 2
M  V30 3 1 4 3
M  V30 4 2 5 4
M  V30 5 1 6 5
M  V30 6 2 7 6
M  V30 7 1 8 7
M  V30 8 1 9 8
M  V30 9 1 10 9
M  V30 10 1 11 10
M  V30 11 1 12 11
M  V30 12 1 13 12
M  V30 13 1 14 13
M  V30 14 1 15 14
M  V30 15 1 16 15
M  V30 16 1 17 16
M  V30 17 1 18 17
M  V30 18 1 19 18
M  V30 19 2 20 19
M  V30 20 1 21 20
M  V30 21 2 22 21
M  V30 22 1 23 22
M  V30 23 1 24 23
M  V30 24 1 25 19
M  V30 25 2 25 23
M  V30 26 1 26 15
M  V30 27 1 26 18
M  V30 28 2 27 26
M  V30 29 1 28 8
M  V30 30 1 28 12
M  V30 31 2 29 3
M  V30 32 1 29 7
M  V30 33 1 30 1
M  V30 34 1 31 1
M  V30 35 1 32 1
M  V30 36 1 33 4
M  V30 37 1 34 5
M  V30 38 1 35 6
M  V30 39 1 8 36 CFG=1
M  V30 40 1 37 9
M  V30 41 1 38 9
M  V30 42 1 39 10
M  V30 43 1 40 10
M  V30 44 1 41 11
M  V30 45 1 42 11
M  V30 46 1 43 13
M  V30 47 1 44 13
M  V30 48 1 45 14
M  V30 49 1 46 14
M  V30 50 1 47 16
M  V30 51 1 48 16
M  V30 52 1 49 17
M  V30 53 1 50 17
M  V30 54 1 51 20
M  V30 55 1 52 21
M  V30 56 1 53 22
M  V30 57 1 54 25
M  V30 58 1 55 28
M  V30 59 1 56 28
M  V30 60 1 57 29
M  V30 61 1 12 58 CFG=1
M  V30 END BOND
M  V30 END CTAB
M  END
>  <b_m_subgroup_collapsed>  (593) 
0

>  <r_i_docking_score>  (593) 
-8.1083025425756894

>  <s_m_subgroup_title>  (593) 
glide-dock_SP_D22_pv

>  <s_m_subgroupid>  (593) 
glide-dock_SP_D22_pv

>  <Molecule ChEMBL ID>  (593) 
CHEMBL556496

>  <Standard Type>  (593) 
Ki

>  <Standard Value>  (593) 
25.12

>  <label>  (593) 
1

$$$$
CHEMBL4751170
     RDKit          3D

  0  0  0  0  0  0  0  0  0  0999 V3000
M  V30 BEGIN CTAB
M  V30 COUNTS 55 59 0 0 1
M  V30 BEGIN ATOM
M  V30 1 F 12.539357 8.282871 -1.746131 0
M  V30 2 C 12.080400 8.204335 -3.016580 0
M  V30 3 C 11.765593 9.373221 -3.727992 0
M  V30 4 C 11.286128 9.290949 -5.050791 0
M  V30 5 C 11.102909 8.038217 -5.687977 0
M  V30 6 C 10.634719 7.954728 -7.090486 0
M  V30 7 C 10.987539 8.952629 -8.024968 0
M  V30 8 N 10.573214 8.975347 -9.305779 0
M  V30 9 C 9.769993 7.985546 -9.727138 0
M  V30 10 C 9.396338 6.889242 -8.921319 0
M  V30 11 C 8.492208 5.772177 -9.447958 0
M  V30 12 N 8.432048 5.678097 -10.933961 0 CHG=1
M  V30 13 C 9.685495 5.166070 -11.523027 0
M  V30 14 C 9.674210 5.151107 -13.058545 0
M  V30 15 N 8.465933 4.515526 -13.575586 0
M  V30 16 C 8.540560 3.360261 -14.393770 0
M  V30 17 C 7.589117 2.321056 -14.246888 0
M  V30 18 C 7.662962 1.143161 -15.010920 0
M  V30 19 C 8.695862 0.978552 -15.945743 0
M  V30 20 C 9.641691 2.000850 -16.134474 0
M  V30 21 C 9.547487 3.210322 -15.390438 0
M  V30 22 O 10.420099 4.246195 -15.653993 0
M  V30 23 C 11.161825 4.133769 -16.860996 0
M  V30 24 C 11.722170 2.712386 -16.977261 0
M  V30 25 O 10.639745 1.796793 -17.059767 0
M  V30 26 C 7.210662 4.975131 -12.985851 0
M  V30 27 C 7.266072 4.928158 -11.447968 0
M  V30 28 C 9.827814 6.894560 -7.574448 0
M  V30 29 C 11.398400 6.873197 -4.943810 0
M  V30 30 C 11.888798 6.952931 -3.624632 0
M  V30 31 H 11.889489 10.333873 -3.250172 0
M  V30 32 H 11.053773 10.208755 -5.570316 0
M  V30 33 H 11.626950 9.772010 -7.736329 0
M  V30 34 H 9.442836 8.067952 -10.752905 0
M  V30 35 H 8.794008 4.813246 -9.023758 0
M  V30 36 H 7.508981 5.985005 -9.052969 0
M  V30 37 H 10.485992 5.810334 -11.188593 0
M  V30 38 H 9.882700 4.162336 -11.142758 0
M  V30 39 H 9.726905 6.168666 -13.446459 0
M  V30 40 H 10.579576 4.639288 -13.380896 0
M  V30 41 H 6.804113 2.387035 -13.509830 0
M  V30 42 H 6.937614 0.355504 -14.865958 0
M  V30 43 H 8.763256 0.065063 -16.518463 0
M  V30 44 H 10.523934 4.373783 -17.712936 0
M  V30 45 H 11.971928 4.862846 -16.846983 0
M  V30 46 H 12.336943 2.615256 -17.871841 0
M  V30 47 H 12.353847 2.469195 -16.122330 0
M  V30 48 H 7.071703 6.011450 -13.290722 0
M  V30 49 H 6.340554 4.440799 -13.365598 0
M  V30 50 H 7.286790 3.896604 -11.091291 0
M  V30 51 H 6.361256 5.391483 -11.058888 0
M  V30 52 H 9.520723 6.097925 -6.913079 0
M  V30 53 H 11.278627 5.897599 -5.389685 0
M  V30 54 H 12.115368 6.049505 -3.077854 0
M  V30 55 H 8.283689 6.623481 -11.260034 0
M  V30 END ATOM
M  V30 BEGIN BOND
M  V30 1 1 2 1
M  V30 2 1 3 2
M  V30 3 2 4 3
M  V30 4 1 5 4
M  V30 5 1 6 5
M  V30 6 2 7 6
M  V30 7 1 8 7
M  V30 8 2 9 8
M  V30 9 1 10 9
M  V30 10 1 11 10
M  V30 11 1 12 11
M  V30 12 1 13 12
M  V30 13 1 14 13
M  V30 14 1 15 14
M  V30 15 1 16 15
M  V30 16 2 17 16
M  V30 17 1 18 17
M  V30 18 2 19 18
M  V30 19 1 20 19
M  V30 20 1 21 16
M  V30 21 2 21 20
M  V30 22 1 22 21
M  V30 23 1 23 22
M  V30 24 1 24 23
M  V30 25 1 25 20
M  V30 26 1 25 24
M  V30 27 1 26 15
M  V30 28 1 27 12
M  V30 29 1 27 26
M  V30 30 1 28 6
M  V30 31 2 28 10
M  V30 32 2 29 5
M  V30 33 2 30 2
M  V30 34 1 30 29
M  V30 35 1 31 3
M  V30 36 1 32 4
M  V30 37 1 33 7
M  V30 38 1 34 9
M  V30 39 1 35 11
M  V30 40 1 36 11
M  V30 41 1 37 13
M  V30 42 1 38 13
M  V30 43 1 39 14
M  V30 44 1 40 14
M  V30 45 1 41 17
M  V30 46 1 42 18
M  V30 47 1 43 19
M  V30 48 1 44 23
M  V30 49 1 45 23
M  V30 50 1 46 24
M  V30 51 1 47 24
M  V30 52 1 48 26
M  V30 53 1 49 26
M  V30 54 1 50 27
M  V30 55 1 51 27
M  V30 56 1 52 28
M  V30 57 1 53 29
M  V30 58 1 54 30
M  V30 59 1 55 12
M  V30 END BOND
M  V30 END CTAB
M  END
>  <b_m_subgroup_collapsed>  (594) 
0

>  <r_i_docking_score>  (594) 
-8.1072621455873701

>  <s_m_subgroup_title>  (594) 
glide-dock_SP_D22_pv

>  <s_m_subgroupid>  (594) 
glide-dock_SP_D22_pv

>  <Molecule ChEMBL ID>  (594) 
CHEMBL4751170

>  <Standard Type>  (594) 
Ki

>  <Standard Value>  (594) 
3.981

>  <label>  (594) 
1

$$$$
CHEMBL6064944
     RDKit          3D

  0  0  0  0  0  0  0  0  0  0999 V3000
M  V30 BEGIN CTAB
M  V30 COUNTS 54 56 0 0 1
M  V30 BEGIN ATOM
M  V30 1 C 11.660288 6.762878 -3.434445 0
M  V30 2 C 11.543895 7.673131 -4.641263 0
M  V30 3 C 12.086674 8.973417 -4.619749 0
M  V30 4 C 11.957433 9.765554 -5.774396 0
M  V30 5 C 11.273749 9.239757 -6.884700 0
M  V30 6 C 10.739569 7.933725 -6.810780 0
M  V30 7 C 10.031265 7.310793 -7.962746 0
M  V30 8 C 10.135074 7.817974 -9.208802 0
M  V30 9 C 9.455499 7.260993 -10.447682 0
M  V30 10 N 8.486040 6.172316 -10.157102 0 CFG=1 CHG=1
M  V30 11 C 8.050048 5.420137 -11.365938 0
M  V30 12 C 9.174594 4.596542 -12.043071 0
M  V30 13 N 8.700135 3.879286 -13.218633 0
M  V30 14 C 9.519798 3.249545 -14.075719 0
M  V30 15 O 10.745006 3.298224 -13.970287 0
M  V30 16 C 8.856680 2.441530 -15.206009 0
M  V30 17 C 9.282277 2.924396 -16.615807 0
M  V30 18 C 10.675633 2.431098 -17.048424 0
M  V30 19 C 10.803886 0.905962 -16.905382 0
M  V30 20 F 9.973867 0.306354 -17.757563 0
M  V30 21 F 12.046847 0.543894 -17.215105 0
M  V30 22 C 10.481853 0.451966 -15.473576 0
M  V30 23 C 9.079529 0.918546 -15.041677 0
M  V30 24 C 8.872213 5.298401 -9.026031 0
M  V30 25 C 9.121858 6.106385 -7.746477 0
M  V30 26 N 10.886088 7.166679 -5.705555 0
M  V30 27 H 11.824334 7.337863 -2.523053 0
M  V30 28 H 10.753409 6.172402 -3.303189 0
M  V30 29 H 12.485652 6.066921 -3.557513 0
M  V30 30 H 12.607876 9.347409 -3.750396 0
M  V30 31 H 12.378357 10.758936 -5.827055 0
M  V30 32 H 11.178664 9.851618 -7.764498 0
M  V30 33 H 10.772285 8.664505 -9.413383 0
M  V30 34 H 8.934125 8.069166 -10.961684 0
M  V30 35 H 10.259262 6.928609 -11.098998 0
M  V30 36 H 7.232872 4.757978 -11.075546 0
M  V30 37 H 7.629242 6.131660 -12.078812 0
M  V30 38 H 9.993520 5.239305 -12.361759 0
M  V30 39 H 9.595846 3.861676 -11.356735 0
M  V30 40 H 7.703291 3.801931 -13.357953 0
M  V30 41 H 7.781894 2.614415 -15.123347 0
M  V30 42 H 8.545761 2.574950 -17.340837 0
M  V30 43 H 9.254703 4.012985 -16.668165 0
M  V30 44 H 10.864815 2.722176 -18.081755 0
M  V30 45 H 11.447621 2.918860 -16.453720 0
M  V30 46 H 10.538991 -0.634358 -15.408510 0
M  V30 47 H 11.240295 0.840630 -14.793021 0
M  V30 48 H 8.902007 0.620011 -14.006361 0
M  V30 49 H 8.334030 0.385075 -15.632792 0
M  V30 50 H 9.780679 4.748925 -9.278396 0
M  V30 51 H 8.089296 4.559213 -8.842547 0
M  V30 52 H 9.587833 5.416117 -7.046672 0
M  V30 53 H 8.187159 6.440529 -7.292048 0
M  V30 54 H 7.646049 6.674198 -9.852454 0
M  V30 END ATOM
M  V30 BEGIN BOND
M  V30 1 1 2 1
M  V30 2 1 3 2
M  V30 3 2 4 3
M  V30 4 1 5 4
M  V30 5 2 6 5
M  V30 6 1 7 6
M  V30 7 2 8 7
M  V30 8 1 9 8
M  V30 9 1 10 9
M  V30 10 1 11 10
M  V30 11 1 12 11
M  V30 12 1 13 12
M  V30 13 1 14 13
M  V30 14 2 15 14
M  V30 15 1 16 14
M  V30 16 1 17 16
M  V30 17 1 18 17
M  V30 18 1 19 18
M  V30 19 1 20 19
M  V30 20 1 21 19
M  V30 21 1 22 19
M  V30 22 1 23 16
M  V30 23 1 23 22
M  V30 24 1 24 10
M  V30 25 1 25 7
M  V30 26 1 25 24
M  V30 27 2 26 2
M  V30 28 1 26 6
M  V30 29 1 27 1
M  V30 30 1 28 1
M  V30 31 1 29 1
M  V30 32 1 30 3
M  V30 33 1 31 4
M  V30 34 1 32 5
M  V30 35 1 33 8
M  V30 36 1 34 9
M  V30 37 1 35 9
M  V30 38 1 36 11
M  V30 39 1 37 11
M  V30 40 1 38 12
M  V30 41 1 39 12
M  V30 42 1 40 13
M  V30 43 1 41 16
M  V30 44 1 42 17
M  V30 45 1 43 17
M  V30 46 1 44 18
M  V30 47 1 45 18
M  V30 48 1 46 22
M  V30 49 1 47 22
M  V30 50 1 48 23
M  V30 51 1 49 23
M  V30 52 1 50 24
M  V30 53 1 51 24
M  V30 54 1 52 25
M  V30 55 1 53 25
M  V30 56 1 10 54 CFG=1
M  V30 END BOND
M  V30 END CTAB
M  END
>  <b_m_subgroup_collapsed>  (595) 
0

>  <r_i_docking_score>  (595) 
-8.1028471925695005

>  <s_m_subgroup_title>  (595) 
glide-dock_SP_D22_pv

>  <s_m_subgroupid>  (595) 
glide-dock_SP_D22_pv

>  <Molecule ChEMBL ID>  (595) 
CHEMBL6064944

>  <Standard Type>  (595) 
Ki

>  <Standard Value>  (595) 
0.1

>  <label>  (595) 
1

$$$$
CHEMBL2159463
     RDKit          3D

  0  0  0  0  0  0  0  0  0  0999 V3000
M  V30 BEGIN CTAB
M  V30 COUNTS 56 58 0 0 1
M  V30 BEGIN ATOM
M  V30 1 C 9.679623 -0.235987 -16.337534 0
M  V30 2 C 10.209116 0.322485 -15.009620 0
M  V30 3 O 9.844641 1.684474 -14.824423 0
M  V30 4 C 10.615566 2.686750 -15.382723 0
M  V30 5 C 11.686719 2.431639 -16.274870 0
M  V30 6 C 12.466590 3.481939 -16.790119 0
M  V30 7 C 12.181510 4.809288 -16.434246 0
M  V30 8 C 11.109043 5.081261 -15.567778 0
M  V30 9 C 10.322742 4.031731 -15.033906 0
M  V30 10 C 9.149981 4.369875 -14.152817 0
M  V30 11 O 8.077188 3.774826 -14.246952 0
M  V30 12 N 9.354555 5.372794 -13.286965 0
M  V30 13 C 8.304941 6.101760 -12.574870 0 CFG=1
M  V30 14 C 7.561065 5.245715 -11.531910 0
M  V30 15 C 8.449204 4.958288 -10.322486 0
M  V30 16 N 8.886135 6.218221 -9.672325 0 CFG=1 CHG=1
M  V30 17 C 9.615467 5.912712 -8.413527 0
M  V30 18 C 9.952909 7.138828 -7.556863 0
M  V30 19 O 10.694507 6.681128 -6.435024 0
M  V30 20 C 11.084925 7.606480 -5.493854 0
M  V30 21 C 10.901649 9.004704 -5.640337 0
M  V30 22 C 11.285673 9.878660 -4.609195 0
M  V30 23 C 11.847867 9.374550 -3.422948 0
M  V30 24 C 12.030867 7.988726 -3.269309 0
M  V30 25 F 12.491415 7.492852 -2.098728 0
M  V30 26 C 11.679049 7.113088 -4.311778 0
M  V30 27 C 9.664771 7.063426 -10.619722 0
M  V30 28 C 8.889641 7.364133 -11.915607 0
M  V30 29 H 10.004060 -1.268601 -16.471573 0
M  V30 30 H 8.589038 -0.216971 -16.357832 0
M  V30 31 H 10.037689 0.336478 -17.193815 0
M  V30 32 H 11.283245 0.168041 -14.914028 0
M  V30 33 H 9.760706 -0.228068 -14.184919 0
M  V30 34 H 11.948791 1.428866 -16.574202 0
M  V30 35 H 13.286152 3.262660 -17.457975 0
M  V30 36 H 12.778873 5.616710 -16.834385 0
M  V30 37 H 10.887402 6.111752 -15.333511 0
M  V30 38 H 10.283835 5.764812 -13.261493 0
M  V30 39 H 7.587106 6.421315 -13.328496 0
M  V30 40 H 6.664802 5.772335 -11.201754 0
M  V30 41 H 7.201430 4.308919 -11.956106 0
M  V30 42 H 9.321931 4.379705 -10.626741 0
M  V30 43 H 7.906128 4.337325 -9.611488 0
M  V30 44 H 10.528417 5.368285 -8.653298 0
M  V30 45 H 9.007818 5.238245 -7.807623 0
M  V30 46 H 9.035583 7.641844 -7.242095 0
M  V30 47 H 10.568562 7.846519 -8.111143 0
M  V30 48 H 10.459562 9.433136 -6.526059 0
M  V30 49 H 11.137178 10.942212 -4.725206 0
M  V30 50 H 12.117709 10.049205 -2.621803 0
M  V30 51 H 11.808084 6.048789 -4.179878 0
M  V30 52 H 9.916491 8.018517 -10.162675 0
M  V30 53 H 10.607128 6.571015 -10.857677 0
M  V30 54 H 8.085407 8.059109 -11.685781 0
M  V30 55 H 9.526956 7.899630 -12.619905 0
M  V30 56 H 8.035242 6.729970 -9.442634 0
M  V30 END ATOM
M  V30 BEGIN BOND
M  V30 1 1 2 1
M  V30 2 1 3 2
M  V30 3 1 4 3
M  V30 4 2 5 4
M  V30 5 1 6 5
M  V30 6 2 7 6
M  V30 7 1 8 7
M  V30 8 1 9 4
M  V30 9 2 9 8
M  V30 10 1 10 9
M  V30 11 2 11 10
M  V30 12 1 12 10
M  V30 13 1 13 12
M  V30 14 1 14 13
M  V30 15 1 15 14
M  V30 16 1 16 15
M  V30 17 1 17 16
M  V30 18 1 18 17
M  V30 19 1 19 18
M  V30 20 1 20 19
M  V30 21 2 21 20
M  V30 22 1 22 21
M  V30 23 2 23 22
M  V30 24 1 24 23
M  V30 25 1 25 24
M  V30 26 1 26 20
M  V30 27 2 26 24
M  V30 28 1 27 16
M  V30 29 1 28 13
M  V30 30 1 28 27
M  V30 31 1 29 1
M  V30 32 1 30 1
M  V30 33 1 31 1
M  V30 34 1 32 2
M  V30 35 1 33 2
M  V30 36 1 34 5
M  V30 37 1 35 6
M  V30 38 1 36 7
M  V30 39 1 37 8
M  V30 40 1 38 12
M  V30 41 1 13 39 CFG=3
M  V30 42 1 40 14
M  V30 43 1 41 14
M  V30 44 1 42 15
M  V30 45 1 43 15
M  V30 46 1 44 17
M  V30 47 1 45 17
M  V30 48 1 46 18
M  V30 49 1 47 18
M  V30 50 1 48 21
M  V30 51 1 49 22
M  V30 52 1 50 23
M  V30 53 1 51 26
M  V30 54 1 52 27
M  V30 55 1 53 27
M  V30 56 1 54 28
M  V30 57 1 55 28
M  V30 58 1 16 56 CFG=1
M  V30 END BOND
M  V30 END CTAB
M  END
>  <b_m_subgroup_collapsed>  (596) 
0

>  <r_i_docking_score>  (596) 
-8.0987442768206996

>  <s_m_subgroup_title>  (596) 
glide-dock_SP_D22_pv

>  <s_m_subgroupid>  (596) 
glide-dock_SP_D22_pv

>  <Molecule ChEMBL ID>  (596) 
CHEMBL2159463

>  <Standard Type>  (596) 
Ki

>  <Standard Value>  (596) 
76.0

>  <label>  (596) 
1

$$$$
CHEMBL212370
     RDKit          3D

  0  0  0  0  0  0  0  0  0  0999 V3000
M  V30 BEGIN CTAB
M  V30 COUNTS 43 46 0 0 1
M  V30 BEGIN ATOM
M  V30 1 Cl 12.486078 8.572375 -1.846945 0
M  V30 2 C 11.884010 8.351365 -3.445479 0
M  V30 3 C 11.574534 9.462753 -4.247293 0
M  V30 4 C 11.104726 9.280846 -5.561746 0
M  V30 5 C 10.886220 7.982506 -6.091418 0
M  V30 6 N 10.393707 7.802401 -7.409889 0
M  V30 7 C 9.421114 8.760419 -7.932889 0
M  V30 8 C 9.486921 8.810120 -9.465836 0
M  V30 9 N 9.285933 7.471092 -10.066527 0 CHG=1
M  V30 10 C 9.312913 7.521433 -11.548223 0
M  V30 11 C 8.826266 6.248982 -12.181307 0
M  V30 12 C 7.546977 5.771711 -12.251011 0
M  V30 13 N 7.594264 4.623292 -13.024161 0
M  V30 14 C 6.608537 3.779945 -13.445018 0
M  V30 15 C 6.930905 2.705310 -14.242708 0
M  V30 16 C 8.275984 2.467589 -14.610529 0
M  V30 17 C 9.274384 3.311900 -14.181785 0
M  V30 18 C 8.955990 4.432610 -13.369366 0
M  V30 19 N 9.704640 5.403214 -12.846460 0
M  V30 20 C 10.188373 6.442945 -9.487433 0
M  V30 21 C 10.211007 6.452855 -7.947349 0
M  V30 22 C 11.190148 6.878926 -5.253697 0
M  V30 23 C 11.686419 7.055928 -3.949236 0
M  V30 24 H 11.685920 10.459960 -3.851885 0
M  V30 25 H 10.926232 10.170841 -6.143767 0
M  V30 26 H 8.423322 8.458343 -7.607774 0
M  V30 27 H 9.564382 9.769641 -7.560111 0
M  V30 28 H 8.717476 9.487525 -9.839228 0
M  V30 29 H 10.451135 9.212434 -9.781753 0
M  V30 30 H 8.678531 8.342246 -11.886086 0
M  V30 31 H 10.323336 7.759562 -11.885736 0
M  V30 32 H 6.609195 6.145148 -11.855292 0
M  V30 33 H 5.596227 4.007701 -13.130546 0
M  V30 34 H 6.147417 2.032962 -14.579110 0
M  V30 35 H 8.526468 1.610828 -15.228893 0
M  V30 36 H 10.309297 3.136541 -14.456394 0
M  V30 37 H 9.901438 5.449316 -9.834905 0
M  V30 38 H 11.200197 6.617831 -9.856236 0
M  V30 39 H 11.015522 5.787698 -7.637297 0
M  V30 40 H 9.278884 6.040956 -7.555956 0
M  V30 41 H 11.042030 5.863047 -5.577900 0
M  V30 42 H 11.906697 6.195841 -3.333248 0
M  V30 43 H 8.327706 7.219091 -9.837029 0
M  V30 END ATOM
M  V30 BEGIN BOND
M  V30 1 1 2 1
M  V30 2 1 3 2
M  V30 3 2 4 3
M  V30 4 1 5 4
M  V30 5 1 6 5
M  V30 6 1 7 6
M  V30 7 1 8 7
M  V30 8 1 9 8
M  V30 9 1 10 9
M  V30 10 1 11 10
M  V30 11 2 12 11
M  V30 12 1 13 12
M  V30 13 1 14 13
M  V30 14 2 15 14
M  V30 15 1 16 15
M  V30 16 2 17 16
M  V30 17 1 18 13
M  V30 18 1 18 17
M  V30 19 1 19 11
M  V30 20 2 19 18
M  V30 21 1 20 9
M  V30 22 1 21 6
M  V30 23 1 21 20
M  V30 24 2 22 5
M  V30 25 2 23 2
M  V30 26 1 23 22
M  V30 27 1 24 3
M  V30 28 1 25 4
M  V30 29 1 26 7
M  V30 30 1 27 7
M  V30 31 1 28 8
M  V30 32 1 29 8
M  V30 33 1 30 10
M  V30 34 1 31 10
M  V30 35 1 32 12
M  V30 36 1 33 14
M  V30 37 1 34 15
M  V30 38 1 35 16
M  V30 39 1 36 17
M  V30 40 1 37 20
M  V30 41 1 38 20
M  V30 42 1 39 21
M  V30 43 1 40 21
M  V30 44 1 41 22
M  V30 45 1 42 23
M  V30 46 1 43 9
M  V30 END BOND
M  V30 END CTAB
M  END
>  <b_m_subgroup_collapsed>  (597) 
0

>  <r_i_docking_score>  (597) 
-8.0986294255931508

>  <s_m_subgroup_title>  (597) 
glide-dock_SP_D22_pv

>  <s_m_subgroupid>  (597) 
glide-dock_SP_D22_pv

>  <Molecule ChEMBL ID>  (597) 
CHEMBL212370

>  <Standard Type>  (597) 
Ki

>  <Standard Value>  (597) 
15000.0

>  <label>  (597) 
0

$$$$
CHEMBL3819153
     RDKit          3D

  0  0  0  0  0  0  0  0  0  0999 V3000
M  V30 BEGIN CTAB
M  V30 COUNTS 56 60 0 0 1
M  V30 BEGIN ATOM
M  V30 1 O 9.775971 2.968168 -15.760118 0
M  V30 2 C 8.798183 2.445685 -15.230971 0
M  V30 3 N 8.300143 1.255178 -15.595779 0
M  V30 4 C 7.097624 1.027750 -14.945714 0
M  V30 5 C 6.177325 -0.020118 -15.112411 0
M  V30 6 C 4.973095 0.073829 -14.383112 0
M  V30 7 Cl 3.685461 -1.027746 -14.654861 0
M  V30 8 C 4.757593 1.138580 -13.486730 0
M  V30 9 C 5.701084 2.168643 -13.331789 0
M  V30 10 C 6.885729 2.104842 -14.100969 0
M  V30 11 N 8.011985 2.971504 -14.248129 0
M  V30 12 C 8.256342 4.284903 -13.583054 0 CFG=1
M  V30 13 C 7.325449 4.590839 -12.385612 0
M  V30 14 C 7.686645 5.820234 -11.542936 0
M  V30 15 N 9.124250 5.880836 -11.176811 0 CFG=2 CHG=1
M  V30 16 C 9.455213 7.087883 -10.372354 0
M  V30 17 C 9.105285 6.937061 -8.877730 0
M  V30 18 C 9.202833 8.266371 -8.101796 0
M  V30 19 C 10.646171 8.713899 -7.803905 0
M  V30 20 C 11.049594 8.494363 -6.384488 0
M  V30 21 N 11.285831 7.299402 -5.829706 0
M  V30 22 C 11.685324 7.627046 -4.551772 0
M  V30 23 C 12.085952 6.839968 -3.457320 0
M  V30 24 C 12.485775 7.444417 -2.251660 0
M  V30 25 C 12.454193 8.846256 -2.106756 0
M  V30 26 C 12.010601 9.649539 -3.174661 0
M  V30 27 C 11.654970 9.027089 -4.383849 0
M  V30 28 O 11.220352 9.587479 -5.571940 0
M  V30 29 C 9.940593 5.785065 -12.406521 0
M  V30 30 C 9.719252 4.435730 -13.098105 0
M  V30 31 H 8.672449 0.653629 -16.314739 0
M  V30 32 H 6.353103 -0.825781 -15.811224 0
M  V30 33 H 3.785731 1.242522 -13.046890 0
M  V30 34 H 5.435227 2.967356 -12.666572 0
M  V30 35 H 8.083947 5.051730 -14.339876 0
M  V30 36 H 6.319961 4.781289 -12.756331 0
M  V30 37 H 7.292946 3.744774 -11.703859 0
M  V30 38 H 7.076655 5.772359 -10.645693 0
M  V30 39 H 7.404264 6.725431 -12.083480 0
M  V30 40 H 8.945926 7.954773 -10.797678 0
M  V30 41 H 10.522706 7.295904 -10.450977 0
M  V30 42 H 9.735903 6.180313 -8.409290 0
M  V30 43 H 8.086049 6.570452 -8.778339 0
M  V30 44 H 8.635154 8.194790 -7.172087 0
M  V30 45 H 8.695891 9.042441 -8.676872 0
M  V30 46 H 10.758182 9.772117 -8.023745 0
M  V30 47 H 11.362171 8.204619 -8.448891 0
M  V30 48 H 12.099517 5.771182 -3.557941 0
M  V30 49 H 12.829882 6.816069 -1.446813 0
M  V30 50 H 12.754181 9.307442 -1.176409 0
M  V30 51 H 11.947645 10.716920 -3.046826 0
M  V30 52 H 9.640679 6.604266 -13.047162 0
M  V30 53 H 11.003921 5.934520 -12.246758 0
M  V30 54 H 10.424118 4.389461 -13.925776 0
M  V30 55 H 9.982535 3.618609 -12.423607 0
M  V30 56 H 9.337255 5.072415 -10.609893 0
M  V30 END ATOM
M  V30 BEGIN BOND
M  V30 1 2 2 1
M  V30 2 1 3 2
M  V30 3 1 4 3
M  V30 4 1 5 4
M  V30 5 2 6 5
M  V30 6 1 7 6
M  V30 7 1 8 6
M  V30 8 2 9 8
M  V30 9 2 10 4
M  V30 10 1 10 9
M  V30 11 1 11 2
M  V30 12 1 11 10
M  V30 13 1 12 11
M  V30 14 1 13 12
M  V30 15 1 14 13
M  V30 16 1 15 14
M  V30 17 1 16 15
M  V30 18 1 17 16
M  V30 19 1 18 17
M  V30 20 1 19 18
M  V30 21 1 20 19
M  V30 22 2 21 20
M  V30 23 1 22 21
M  V30 24 2 23 22
M  V30 25 1 24 23
M  V30 26 2 25 24
M  V30 27 1 26 25
M  V30 28 1 27 22
M  V30 29 2 27 26
M  V30 30 1 28 20
M  V30 31 1 28 27
M  V30 32 1 29 15
M  V30 33 1 30 12
M  V30 34 1 30 29
M  V30 35 1 31 3
M  V30 36 1 32 5
M  V30 37 1 33 8
M  V30 38 1 34 9
M  V30 39 1 12 35 CFG=3
M  V30 40 1 36 13
M  V30 41 1 37 13
M  V30 42 1 38 14
M  V30 43 1 39 14
M  V30 44 1 40 16
M  V30 45 1 41 16
M  V30 46 1 42 17
M  V30 47 1 43 17
M  V30 48 1 44 18
M  V30 49 1 45 18
M  V30 50 1 46 19
M  V30 51 1 47 19
M  V30 52 1 48 23
M  V30 53 1 49 24
M  V30 54 1 50 25
M  V30 55 1 51 26
M  V30 56 1 52 29
M  V30 57 1 53 29
M  V30 58 1 54 30
M  V30 59 1 55 30
M  V30 60 1 15 56 CFG=1
M  V30 END BOND
M  V30 END CTAB
M  END
>  <b_m_subgroup_collapsed>  (598) 
0

>  <r_i_docking_score>  (598) 
-8.0968482266266406

>  <s_m_subgroup_title>  (598) 
glide-dock_SP_D22_pv

>  <s_m_subgroupid>  (598) 
glide-dock_SP_D22_pv

>  <Molecule ChEMBL ID>  (598) 
CHEMBL3819153

>  <Standard Type>  (598) 
Ki

>  <Standard Value>  (598) 
95.5

>  <label>  (598) 
1

$$$$
CHEMBL552373
     RDKit          3D

  0  0  0  0  0  0  0  0  0  0999 V3000
M  V30 BEGIN CTAB
M  V30 COUNTS 48 50 0 0 1
M  V30 BEGIN ATOM
M  V30 1 N 13.076033 3.495523 -17.834055 0
M  V30 2 C 12.231008 2.971643 -17.240831 0
M  V30 3 C 11.169568 2.308732 -16.499584 0
M  V30 4 C 10.967036 0.921675 -16.642759 0
M  V30 5 C 9.937163 0.285162 -15.925352 0
M  V30 6 C 9.097351 1.032726 -15.079412 0
M  V30 7 C 9.288311 2.426241 -14.926783 0
M  V30 8 N 8.417583 3.180861 -14.081536 0
M  V30 9 C 7.004430 2.853157 -13.932528 0
M  V30 10 C 6.503770 3.856856 -12.899824 0
M  V30 11 N 7.712934 4.568553 -12.543439 0
M  V30 12 C 7.679637 5.610502 -11.521984 0
M  V30 13 C 8.508030 5.230731 -10.276320 0
M  V30 14 N 8.505761 6.293168 -9.239344 0 CFG=2 CHG=1
M  V30 15 C 9.397628 7.436068 -9.576433 0
M  V30 16 C 9.297871 8.566018 -8.535162 0
M  V30 17 C 9.564384 8.091378 -7.090081 0 CFG=2
M  V30 18 C 11.061249 7.934849 -6.740854 0
M  V30 19 F 11.641269 6.975020 -7.456707 0
M  V30 20 F 11.697894 9.083041 -6.968510 0
M  V30 21 F 11.202318 7.638171 -5.450811 0
M  V30 22 C 8.725589 6.834285 -6.793062 0
M  V30 23 C 8.805419 5.756553 -7.888988 0
M  V30 24 C 8.785142 4.174698 -13.249039 0
M  V30 25 O 9.916528 4.650137 -13.124660 0
M  V30 26 C 10.335278 3.056278 -15.645534 0
M  V30 27 H 11.606306 0.340069 -17.292933 0
M  V30 28 H 9.785923 -0.779739 -16.028084 0
M  V30 29 H 8.318405 0.513211 -14.541019 0
M  V30 30 H 6.485420 2.966219 -14.885503 0
M  V30 31 H 6.865913 1.834491 -13.573277 0
M  V30 32 H 6.063155 3.369025 -12.027719 0
M  V30 33 H 5.770278 4.540973 -13.326352 0
M  V30 34 H 8.030296 6.539781 -11.971993 0
M  V30 35 H 6.643055 5.772529 -11.227613 0
M  V30 36 H 8.085260 4.316050 -9.859986 0
M  V30 37 H 9.538557 4.992971 -10.537884 0
M  V30 38 H 10.425807 7.085019 -9.665148 0
M  V30 39 H 9.125947 7.844808 -10.550976 0
M  V30 40 H 9.978441 9.373692 -8.799528 0
M  V30 41 H 8.298173 8.999813 -8.579632 0
M  V30 42 H 9.194814 8.877550 -6.430244 0
M  V30 43 H 9.034528 6.399993 -5.845788 0
M  V30 44 H 7.687991 7.131010 -6.649434 0
M  V30 45 H 8.085289 4.973164 -7.658195 0
M  V30 46 H 9.792602 5.293712 -7.894549 0
M  V30 47 H 10.492621 4.120283 -15.556978 0
M  V30 48 H 7.561125 6.681545 -9.220046 0
M  V30 END ATOM
M  V30 BEGIN BOND
M  V30 1 3 2 1
M  V30 2 1 3 2
M  V30 3 1 4 3
M  V30 4 2 5 4
M  V30 5 1 6 5
M  V30 6 2 7 6
M  V30 7 1 8 7
M  V30 8 1 9 8
M  V30 9 1 10 9
M  V30 10 1 11 10
M  V30 11 1 12 11
M  V30 12 1 13 12
M  V30 13 1 14 13
M  V30 14 1 15 14
M  V30 15 1 16 15
M  V30 16 1 17 16
M  V30 17 1 18 17
M  V30 18 1 19 18
M  V30 19 1 20 18
M  V30 20 1 21 18
M  V30 21 1 22 17
M  V30 22 1 23 14
M  V30 23 1 23 22
M  V30 24 1 24 8
M  V30 25 1 24 11
M  V30 26 2 25 24
M  V30 27 2 26 3
M  V30 28 1 26 7
M  V30 29 1 27 4
M  V30 30 1 28 5
M  V30 31 1 29 6
M  V30 32 1 30 9
M  V30 33 1 31 9
M  V30 34 1 32 10
M  V30 35 1 33 10
M  V30 36 1 34 12
M  V30 37 1 35 12
M  V30 38 1 36 13
M  V30 39 1 37 13
M  V30 40 1 38 15
M  V30 41 1 39 15
M  V30 42 1 40 16
M  V30 43 1 41 16
M  V30 44 1 17 42 CFG=1
M  V30 45 1 43 22
M  V30 46 1 44 22
M  V30 47 1 45 23
M  V30 48 1 46 23
M  V30 49 1 47 26
M  V30 50 1 14 48 CFG=1
M  V30 END BOND
M  V30 END CTAB
M  END
>  <b_m_subgroup_collapsed>  (599) 
0

>  <r_i_docking_score>  (599) 
-8.0966329417607401

>  <s_m_subgroup_title>  (599) 
glide-dock_SP_D22_pv

>  <s_m_subgroupid>  (599) 
glide-dock_SP_D22_pv

>  <Molecule ChEMBL ID>  (599) 
CHEMBL552373

>  <Standard Type>  (599) 
Ki

>  <Standard Value>  (599) 
100.0

>  <label>  (599) 
1

$$$$
CHEMBL555146
     RDKit          3D

  0  0  0  0  0  0  0  0  0  0999 V3000
M  V30 BEGIN CTAB
M  V30 COUNTS 49 52 0 0 1
M  V30 BEGIN ATOM
M  V30 1 C 13.143633 6.494039 -16.465460 0
M  V30 2 C 12.865226 5.183480 -15.710714 0 CFG=2
M  V30 3 C 12.778304 3.985260 -16.676756 0
M  V30 4 C 11.293662 3.659554 -16.774073 0
M  V30 5 C 10.789959 4.028629 -15.385813 0
M  V30 6 N 11.549073 5.241746 -15.017541 0 CFG=1 CHG=1
M  V30 7 C 11.573125 5.506522 -13.557180 0
M  V30 8 C 11.893389 6.977581 -13.249851 0
M  V30 9 C 11.683375 7.372405 -11.828197 0
M  V30 10 C 12.476234 8.096991 -10.970748 0
M  V30 11 C 11.706192 8.267364 -9.776258 0
M  V30 12 C 11.888443 8.884885 -8.523185 0
M  V30 13 C 10.857808 8.917820 -7.560628 0
M  V30 14 C 11.125678 9.610610 -6.277784 0
M  V30 15 O 11.286049 10.827864 -6.241586 0
M  V30 16 C 11.341522 8.763208 -5.078592 0
M  V30 17 C 11.689664 9.369101 -3.846815 0
M  V30 18 C 12.078881 8.578806 -2.747939 0
M  V30 19 C 12.086202 7.178349 -2.871184 0
M  V30 20 F 12.486088 6.399878 -1.846900 0
M  V30 21 C 11.686023 6.575049 -4.070943 0
M  V30 22 C 11.296190 7.353975 -5.166546 0
M  V30 23 C 9.616723 8.294723 -7.831599 0
M  V30 24 C 9.422856 7.637372 -9.063733 0
M  V30 25 C 10.458385 7.645457 -10.011211 0
M  V30 26 O 10.455839 7.100170 -11.279394 0
M  V30 27 H 14.096332 6.441144 -16.993862 0
M  V30 28 H 12.368902 6.702678 -17.204662 0
M  V30 29 H 13.199038 7.350892 -15.794641 0
M  V30 30 H 13.676886 5.006800 -15.000023 0
M  V30 31 H 13.286053 3.124063 -16.246588 0
M  V30 32 H 13.231400 4.174471 -17.650927 0
M  V30 33 H 11.103029 2.617215 -17.032753 0
M  V30 34 H 10.818596 4.288931 -17.527962 0
M  V30 35 H 11.017529 3.221519 -14.685556 0
M  V30 36 H 9.713073 4.202163 -15.363698 0
M  V30 37 H 12.269993 4.838004 -13.047911 0
M  V30 38 H 10.580871 5.278478 -13.163460 0
M  V30 39 H 11.287460 7.631298 -13.873249 0
M  V30 40 H 12.928564 7.186395 -13.517135 0
M  V30 41 H 13.464636 8.496886 -11.147371 0
M  V30 42 H 12.836176 9.359035 -8.313783 0
M  V30 43 H 11.686092 10.444263 -3.740686 0
M  V30 44 H 12.371693 9.046291 -1.818997 0
M  V30 45 H 11.708424 5.507238 -4.170496 0
M  V30 46 H 11.037057 6.839934 -6.080107 0
M  V30 47 H 8.814651 8.310827 -7.104887 0
M  V30 48 H 8.485729 7.154253 -9.291838 0
M  V30 49 H 11.045134 6.005182 -15.446357 0
M  V30 END ATOM
M  V30 BEGIN BOND
M  V30 1 1 2 1
M  V30 2 1 3 2
M  V30 3 1 4 3
M  V30 4 1 5 4
M  V30 5 1 6 2
M  V30 6 1 6 5
M  V30 7 1 7 6
M  V30 8 1 8 7
M  V30 9 1 9 8
M  V30 10 2 10 9
M  V30 11 1 11 10
M  V30 12 1 12 11
M  V30 13 2 13 12
M  V30 14 1 14 13
M  V30 15 2 15 14
M  V30 16 1 16 14
M  V30 17 1 17 16
M  V30 18 2 18 17
M  V30 19 1 19 18
M  V30 20 1 20 19
M  V30 21 2 21 19
M  V30 22 2 22 16
M  V30 23 1 22 21
M  V30 24 1 23 13
M  V30 25 2 24 23
M  V30 26 2 25 11
M  V30 27 1 25 24
M  V30 28 1 26 9
M  V30 29 1 26 25
M  V30 30 1 27 1
M  V30 31 1 28 1
M  V30 32 1 29 1
M  V30 33 1 2 30 CFG=1
M  V30 34 1 31 3
M  V30 35 1 32 3
M  V30 36 1 33 4
M  V30 37 1 34 4
M  V30 38 1 35 5
M  V30 39 1 36 5
M  V30 40 1 37 7
M  V30 41 1 38 7
M  V30 42 1 39 8
M  V30 43 1 40 8
M  V30 44 1 41 10
M  V30 45 1 42 12
M  V30 46 1 43 17
M  V30 47 1 44 18
M  V30 48 1 45 21
M  V30 49 1 46 22
M  V30 50 1 47 23
M  V30 51 1 48 24
M  V30 52 1 6 49 CFG=3
M  V30 END BOND
M  V30 END CTAB
M  END
>  <b_m_subgroup_collapsed>  (600) 
0

>  <r_i_docking_score>  (600) 
-8.0957730002294408

>  <s_m_subgroup_title>  (600) 
glide-dock_SP_D22_pv

>  <s_m_subgroupid>  (600) 
glide-dock_SP_D22_pv

>  <Molecule ChEMBL ID>  (600) 
CHEMBL555146

>  <Standard Type>  (600) 
Ki

>  <Standard Value>  (600) 
10000.0

>  <label>  (600) 
0

$$$$
CHEMBL1684128
     RDKit          3D

  0  0  0  0  0  0  0  0  0  0999 V3000
M  V30 BEGIN CTAB
M  V30 COUNTS 84 89 0 0 1
M  V30 BEGIN ATOM
M  V30 1 C 16.004694 1.273990 -20.258167 0
M  V30 2 C 14.754615 1.089357 -21.129601 0
M  V30 3 C 13.556304 1.934685 -20.661142 0
M  V30 4 N 13.010707 1.437889 -19.365749 0 CFG=2 CHG=1
M  V30 5 C 12.004164 0.384244 -19.599899 0
M  V30 6 C 11.710765 -0.324981 -18.294044 0
M  V30 7 C 11.235034 0.597770 -17.188253 0
M  V30 8 C 10.466608 0.173035 -16.092266 0
M  V30 9 C 10.182062 1.066015 -15.054135 0
M  V30 10 C 10.665319 2.385159 -15.112388 0
M  V30 11 C 11.410316 2.899724 -16.208752 0
M  V30 12 C 11.680753 1.950002 -17.234447 0
M  V30 13 C 12.489739 2.489427 -18.442020 0 CFG=1
M  V30 14 C 13.610334 3.453501 -17.972223 0
M  V30 15 C 13.092474 4.533224 -17.046209 0
M  V30 16 C 13.743368 5.782820 -17.035072 0
M  V30 17 C 13.247632 6.825261 -16.242641 0
M  V30 18 C 12.086122 6.621457 -15.484159 0
M  V30 19 C 11.430114 5.368056 -15.477759 0
M  V30 20 O 10.231516 5.228958 -14.817379 0
M  V30 21 C 10.205268 5.607201 -13.448001 0
M  V30 22 C 8.741580 5.649728 -12.978772 0
M  V30 23 C 8.599643 5.732031 -11.452809 0
M  V30 24 C 9.156569 7.036887 -10.842325 0
M  V30 25 N 9.237679 6.973379 -9.364198 0 CHG=1
M  V30 26 C 9.285394 8.315671 -8.728190 0
M  V30 27 C 9.254687 8.179791 -7.196199 0
M  V30 28 N 10.350533 7.314896 -6.768263 0
M  V30 29 C 11.102901 7.632418 -5.619052 0
M  V30 30 C 11.285695 6.684227 -4.595987 0
M  V30 31 C 11.960011 6.990658 -3.402098 0
M  V30 32 C 12.486006 8.276086 -3.227172 0
M  V30 33 C 12.370346 9.220530 -4.260854 0
M  V30 34 C 11.679290 8.912621 -5.462044 0
M  V30 35 O 11.550953 9.790709 -6.514390 0
M  V30 36 C 11.813511 11.145192 -6.247277 0
M  V30 37 C 10.367435 5.986282 -7.361357 0
M  V30 38 C 10.352220 6.109922 -8.888722 0
M  V30 39 C 11.958183 4.284227 -16.235802 0
M  V30 40 H 16.834017 0.680029 -20.645229 0
M  V30 41 H 16.327761 2.315572 -20.248051 0
M  V30 42 H 15.831089 0.958721 -19.229647 0
M  V30 43 H 14.491199 0.031976 -21.174366 0
M  V30 44 H 15.005502 1.375914 -22.151455 0
M  V30 45 H 12.771604 1.916332 -21.419756 0
M  V30 46 H 13.868248 2.974655 -20.622637 0
M  V30 47 H 11.093082 0.819542 -20.015224 0
M  V30 48 H 12.366765 -0.344526 -20.325680 0
M  V30 49 H 12.603889 -0.843302 -17.942245 0
M  V30 50 H 10.953726 -1.092977 -18.460705 0
M  V30 51 H 10.118513 -0.848837 -16.030088 0
M  V30 52 H 9.615677 0.735409 -14.195530 0
M  V30 53 H 10.459378 2.996613 -14.252477 0
M  V30 54 H 11.771760 3.075854 -19.018482 0
M  V30 55 H 14.094817 3.954647 -18.806303 0
M  V30 56 H 14.398327 2.923133 -17.446884 0
M  V30 57 H 14.615685 5.952070 -17.649485 0
M  V30 58 H 13.733636 7.790717 -16.241854 0
M  V30 59 H 11.686872 7.459931 -14.935643 0
M  V30 60 H 10.676927 6.570242 -13.267620 0
M  V30 61 H 10.765537 4.868048 -12.874139 0
M  V30 62 H 8.239278 4.745281 -13.320054 0
M  V30 63 H 8.216288 6.481417 -13.445388 0
M  V30 64 H 9.085982 4.851898 -11.036309 0
M  V30 65 H 7.545548 5.638373 -11.184492 0
M  V30 66 H 8.503303 7.859266 -11.142486 0
M  V30 67 H 10.144947 7.278415 -11.230278 0
M  V30 68 H 8.453368 8.931844 -9.062677 0
M  V30 69 H 10.196534 8.835287 -9.032961 0
M  V30 70 H 8.311031 7.732156 -6.881999 0
M  V30 71 H 9.291650 9.156397 -6.721011 0
M  V30 72 H 10.818738 5.733078 -4.687573 0
M  V30 73 H 12.050948 6.249130 -2.622079 0
M  V30 74 H 13.005462 8.532907 -2.315929 0
M  V30 75 H 12.840206 10.172053 -4.105831 0
M  V30 76 H 11.439278 11.771068 -7.046433 0
M  V30 77 H 11.312692 11.455648 -5.327616 0
M  V30 78 H 12.885818 11.311684 -6.246494 0
M  V30 79 H 11.225531 5.382571 -7.047194 0
M  V30 80 H 9.469702 5.456561 -7.046933 0
M  V30 81 H 10.295901 5.108735 -9.309516 0
M  V30 82 H 11.289192 6.553368 -9.229283 0
M  V30 83 H 13.778134 1.002328 -18.876661 0
M  V30 84 H 8.360619 6.573264 -9.051269 0
M  V30 END ATOM
M  V30 BEGIN BOND
M  V30 1 1 2 1
M  V30 2 1 3 2
M  V30 3 1 4 3
M  V30 4 1 5 4
M  V30 5 1 6 5
M  V30 6 1 7 6
M  V30 7 1 8 7
M  V30 8 2 9 8
M  V30 9 1 10 9
M  V30 10 2 11 10
M  V30 11 2 12 7
M  V30 12 1 12 11
M  V30 13 1 13 4
M  V30 14 1 13 12
M  V30 15 1 14 13
M  V30 16 1 15 14
M  V30 17 1 16 15
M  V30 18 2 17 16
M  V30 19 1 18 17
M  V30 20 2 19 18
M  V30 21 1 20 19
M  V30 22 1 21 20
M  V30 23 1 22 21
M  V30 24 1 23 22
M  V30 25 1 24 23
M  V30 26 1 25 24
M  V30 27 1 26 25
M  V30 28 1 27 26
M  V30 29 1 28 27
M  V30 30 1 29 28
M  V30 31 2 30 29
M  V30 32 1 31 30
M  V30 33 2 32 31
M  V30 34 1 33 32
M  V30 35 1 34 29
M  V30 36 2 34 33
M  V30 37 1 35 34
M  V30 38 1 36 35
M  V30 39 1 37 28
M  V30 40 1 38 25
M  V30 41 1 38 37
M  V30 42 1 39 11
M  V30 43 2 39 15
M  V30 44 1 39 19
M  V30 45 1 40 1
M  V30 46 1 41 1
M  V30 47 1 42 1
M  V30 48 1 43 2
M  V30 49 1 44 2
M  V30 50 1 45 3
M  V30 51 1 46 3
M  V30 52 1 47 5
M  V30 53 1 48 5
M  V30 54 1 49 6
M  V30 55 1 50 6
M  V30 56 1 51 8
M  V30 57 1 52 9
M  V30 58 1 53 10
M  V30 59 1 13 54 CFG=3
M  V30 60 1 55 14
M  V30 61 1 56 14
M  V30 62 1 57 16
M  V30 63 1 58 17
M  V30 64 1 59 18
M  V30 65 1 60 21
M  V30 66 1 61 21
M  V30 67 1 62 22
M  V30 68 1 63 22
M  V30 69 1 64 23
M  V30 70 1 65 23
M  V30 71 1 66 24
M  V30 72 1 67 24
M  V30 73 1 68 26
M  V30 74 1 69 26
M  V30 75 1 70 27
M  V30 76 1 71 27
M  V30 77 1 72 30
M  V30 78 1 73 31
M  V30 79 1 74 32
M  V30 80 1 75 33
M  V30 81 1 76 36
M  V30 82 1 77 36
M  V30 83 1 78 36
M  V30 84 1 79 37
M  V30 85 1 80 37
M  V30 86 1 81 38
M  V30 87 1 82 38
M  V30 88 1 4 83 CFG=1
M  V30 89 1 84 25
M  V30 END BOND
M  V30 END CTAB
M  END
>  <b_m_subgroup_collapsed>  (601) 
0

>  <r_i_docking_score>  (601) 
-8.0955554449607892

>  <s_m_subgroup_title>  (601) 
glide-dock_SP_D22_pv

>  <s_m_subgroupid>  (601) 
glide-dock_SP_D22_pv

>  <Molecule ChEMBL ID>  (601) 
CHEMBL1684128

>  <Standard Type>  (601) 
Ki

>  <Standard Value>  (601) 
88.0

>  <label>  (601) 
1

$$$$
CHEMBL4876545
     RDKit          3D

  0  0  0  0  0  0  0  0  0  0999 V3000
M  V30 BEGIN CTAB
M  V30 COUNTS 62 66 0 0 1
M  V30 BEGIN ATOM
M  V30 1 C 11.712735 10.981308 -6.064492 0
M  V30 2 O 10.979948 9.777294 -6.062665 0
M  V30 3 C 11.286271 8.888288 -5.058764 0
M  V30 4 C 11.872914 9.278792 -3.824970 0
M  V30 5 C 12.258140 8.321338 -2.870570 0
M  V30 6 C 12.061919 6.957810 -3.138644 0
M  V30 7 C 11.441092 6.572332 -4.341132 0
M  V30 8 C 11.019046 7.521213 -5.291476 0
M  V30 9 N 10.349633 7.078314 -6.444703 0
M  V30 10 C 9.043735 7.624811 -6.811936 0
M  V30 11 C 9.091054 8.329397 -8.180139 0
M  V30 12 N 9.741656 7.466469 -9.197309 0 CHG=1
M  V30 13 C 9.625096 8.021273 -10.569894 0
M  V30 14 C 10.221842 7.132142 -11.653673 0
M  V30 15 C 11.536381 7.372293 -12.100690 0
M  V30 16 C 12.085684 6.619193 -13.149448 0
M  V30 17 C 11.346229 5.579720 -13.742173 0
M  V30 18 C 11.969989 4.769046 -14.865585 0
M  V30 19 N 11.822165 5.391639 -16.187088 0
M  V30 20 C 10.658130 5.285301 -16.957468 0
M  V30 21 O 9.686284 4.580501 -16.688198 0
M  V30 22 C 10.781635 6.171903 -18.155771 0
M  V30 23 C 9.801703 6.349665 -19.151381 0
M  V30 24 C 10.073015 7.247081 -20.209770 0
M  V30 25 C 11.301221 7.950871 -20.266724 0
M  V30 26 C 12.280415 7.772203 -19.263542 0
M  V30 27 C 11.986276 6.876930 -18.222826 0
M  V30 28 S 12.979399 6.512280 -16.807791 0
M  V30 29 O 13.033863 7.691733 -15.931883 0
M  V30 30 O 14.189310 5.773814 -17.200556 0
M  V30 31 C 10.037473 5.312956 -13.280762 0
M  V30 32 C 9.473179 6.091626 -12.246748 0
M  V30 33 C 11.130816 7.141107 -8.769942 0
M  V30 34 C 11.109828 6.351164 -7.446692 0
M  V30 35 H 11.681919 11.471889 -7.036855 0
M  V30 36 H 11.286069 11.645663 -5.313194 0
M  V30 37 H 12.768332 10.806290 -5.847304 0
M  V30 38 H 12.041332 10.312702 -3.579136 0
M  V30 39 H 12.709516 8.635575 -1.939730 0
M  V30 40 H 12.358044 6.209521 -2.417382 0
M  V30 41 H 11.256400 5.532237 -4.526770 0
M  V30 42 H 8.326068 6.803941 -6.844267 0
M  V30 43 H 8.682032 8.317926 -6.056175 0
M  V30 44 H 8.086067 8.607400 -8.482842 0
M  V30 45 H 9.640916 9.267455 -8.106446 0
M  V30 46 H 8.575793 8.200288 -10.808775 0
M  V30 47 H 10.120390 8.991021 -10.602292 0
M  V30 48 H 12.124786 8.165617 -11.662855 0
M  V30 49 H 13.080415 6.848427 -13.499607 0
M  V30 50 H 13.033842 4.644094 -14.657185 0
M  V30 51 H 11.546685 3.763050 -14.880469 0
M  V30 52 H 8.860220 5.819942 -19.104706 0
M  V30 53 H 9.331374 7.403488 -20.980881 0
M  V30 54 H 11.487439 8.638934 -21.078478 0
M  V30 55 H 13.211274 8.319700 -19.281170 0
M  V30 56 H 9.456266 4.519691 -13.730085 0
M  V30 57 H 8.460830 5.896911 -11.919165 0
M  V30 58 H 11.666945 6.572419 -9.526336 0
M  V30 59 H 11.695230 8.065728 -8.641569 0
M  V30 60 H 12.123108 6.172885 -7.084616 0
M  V30 61 H 10.650957 5.372621 -7.599806 0
M  V30 62 H 9.218112 6.601874 -9.203212 0
M  V30 END ATOM
M  V30 BEGIN BOND
M  V30 1 1 2 1
M  V30 2 1 3 2
M  V30 3 2 4 3
M  V30 4 1 5 4
M  V30 5 2 6 5
M  V30 6 1 7 6
M  V30 7 1 8 3
M  V30 8 2 8 7
M  V30 9 1 9 8
M  V30 10 1 10 9
M  V30 11 1 11 10
M  V30 12 1 12 11
M  V30 13 1 13 12
M  V30 14 1 14 13
M  V30 15 1 15 14
M  V30 16 2 16 15
M  V30 17 1 17 16
M  V30 18 1 18 17
M  V30 19 1 19 18
M  V30 20 1 20 19
M  V30 21 2 21 20
M  V30 22 1 22 20
M  V30 23 2 23 22
M  V30 24 1 24 23
M  V30 25 2 25 24
M  V30 26 1 26 25
M  V30 27 1 27 22
M  V30 28 2 27 26
M  V30 29 1 28 19
M  V30 30 1 28 27
M  V30 31 2 29 28
M  V30 32 2 30 28
M  V30 33 2 31 17
M  V30 34 2 32 14
M  V30 35 1 32 31
M  V30 36 1 33 12
M  V30 37 1 34 9
M  V30 38 1 34 33
M  V30 39 1 35 1
M  V30 40 1 36 1
M  V30 41 1 37 1
M  V30 42 1 38 4
M  V30 43 1 39 5
M  V30 44 1 40 6
M  V30 45 1 41 7
M  V30 46 1 42 10
M  V30 47 1 43 10
M  V30 48 1 44 11
M  V30 49 1 45 11
M  V30 50 1 46 13
M  V30 51 1 47 13
M  V30 52 1 48 15
M  V30 53 1 49 16
M  V30 54 1 50 18
M  V30 55 1 51 18
M  V30 56 1 52 23
M  V30 57 1 53 24
M  V30 58 1 54 25
M  V30 59 1 55 26
M  V30 60 1 56 31
M  V30 61 1 57 32
M  V30 62 1 58 33
M  V30 63 1 59 33
M  V30 64 1 60 34
M  V30 65 1 61 34
M  V30 66 1 62 12
M  V30 END BOND
M  V30 END CTAB
M  END
>  <b_m_subgroup_collapsed>  (602) 
0

>  <r_i_docking_score>  (602) 
-8.0950855955483192

>  <s_m_subgroup_title>  (602) 
glide-dock_SP_D22_pv

>  <s_m_subgroupid>  (602) 
glide-dock_SP_D22_pv

>  <Molecule ChEMBL ID>  (602) 
CHEMBL4876545

>  <Standard Type>  (602) 
Ki

>  <Standard Value>  (602) 
2.0

>  <label>  (602) 
1

$$$$
CHEMBL106660
     RDKit          3D

  0  0  0  0  0  0  0  0  0  0999 V3000
M  V30 BEGIN CTAB
M  V30 COUNTS 65 69 0 0 1
M  V30 BEGIN ATOM
M  V30 1 Cl 13.284133 8.033145 -16.652851 0
M  V30 2 C 12.173084 6.724958 -16.827898 0
M  V30 3 C 11.465001 6.564387 -18.036312 0
M  V30 4 C 10.550485 5.502086 -18.174219 0
M  V30 5 C 10.355312 4.598501 -17.112087 0
M  V30 6 C 11.057782 4.756382 -15.889481 0
M  V30 7 C 10.948129 3.750445 -14.742906 0 CFG=1
M  V30 8 O 10.907831 4.354882 -13.443809 0
M  V30 9 C 9.735468 5.063370 -13.054258 0 CFG=1
M  V30 10 C 8.912814 4.182011 -12.088789 0
M  V30 11 C 7.842128 4.992568 -11.299359 0 CFG=2
M  V30 12 C 6.912863 5.756616 -12.248977 0
M  V30 13 C 7.663990 7.079871 -12.505695 0
M  V30 14 C 8.915071 7.014307 -11.603031 0 CFG=2
M  V30 15 C 10.115795 6.385632 -12.346718 0
M  V30 16 N 8.460909 6.100426 -10.541083 0 CFG=2 CHG=1
M  V30 17 C 9.352191 5.724484 -9.416149 0
M  V30 18 C 9.738894 6.915983 -8.522759 0
M  V30 19 C 10.434930 6.434443 -7.234662 0
M  V30 20 C 10.868354 7.502920 -6.241322 0
M  V30 21 C 10.865248 8.884171 -6.548238 0
M  V30 22 C 11.277415 9.823181 -5.580444 0
M  V30 23 C 11.689477 9.392385 -4.302792 0
M  V30 24 C 11.687415 8.020842 -3.990370 0
M  V30 25 C 11.292146 7.081285 -4.962954 0
M  V30 26 C 9.985037 2.573648 -14.960712 0
M  V30 27 C 8.587713 2.754046 -15.083869 0
M  V30 28 C 7.732760 1.656736 -15.292184 0
M  V30 29 C 8.270527 0.361366 -15.409415 0
M  V30 30 C 9.663372 0.169591 -15.324660 0
M  V30 31 C 10.509303 1.270401 -15.095649 0
M  V30 32 C 11.969995 5.826948 -15.761830 0
M  V30 33 H 11.620874 7.258149 -18.849459 0
M  V30 34 H 10.008506 5.372781 -19.102165 0
M  V30 35 H 9.667371 3.780857 -17.269041 0
M  V30 36 H 11.940733 3.298735 -14.744445 0
M  V30 37 H 9.148624 5.315830 -13.936565 0
M  V30 38 H 9.597123 3.697723 -11.394213 0
M  V30 39 H 8.440227 3.374909 -12.651126 0
M  V30 40 H 7.283336 4.327300 -10.643244 0
M  V30 41 H 6.697019 5.203430 -13.164428 0
M  V30 42 H 5.959282 5.963415 -11.760370 0
M  V30 43 H 7.916814 7.172333 -13.547871 0
M  V30 44 H 7.038564 7.939748 -12.266212 0
M  V30 45 H 9.170197 7.994678 -11.200287 0
M  V30 46 H 10.545916 7.095355 -13.047902 0
M  V30 47 H 10.885713 6.200667 -11.615065 0
M  V30 48 H 10.246024 5.208296 -9.762799 0
M  V30 49 H 8.802743 5.002426 -8.808902 0
M  V30 50 H 8.844362 7.481875 -8.257965 0
M  V30 51 H 10.390447 7.590367 -9.079275 0
M  V30 52 H 11.310745 5.832858 -7.477349 0
M  V30 53 H 9.749355 5.773567 -6.702186 0
M  V30 54 H 10.547678 9.243081 -7.517344 0
M  V30 55 H 11.275745 10.877449 -5.820434 0
M  V30 56 H 11.998948 10.113258 -3.560485 0
M  V30 57 H 12.003100 7.683177 -3.013378 0
M  V30 58 H 11.302174 6.028754 -4.716029 0
M  V30 59 H 8.157056 3.737371 -15.017550 0
M  V30 60 H 6.664295 1.808974 -15.374669 0
M  V30 61 H 7.617002 -0.483023 -15.575336 0
M  V30 62 H 10.075508 -0.821354 -15.440042 0
M  V30 63 H 11.578313 1.113298 -15.043313 0
M  V30 64 H 12.529664 5.954420 -14.844997 0
M  V30 65 H 7.670833 6.607502 -10.133731 0
M  V30 END ATOM
M  V30 BEGIN BOND
M  V30 1 1 2 1
M  V30 2 1 3 2
M  V30 3 2 4 3
M  V30 4 1 5 4
M  V30 5 2 6 5
M  V30 6 1 7 6
M  V30 7 1 8 7
M  V30 8 1 9 8
M  V30 9 1 10 9
M  V30 10 1 11 10
M  V30 11 1 12 11
M  V30 12 1 13 12
M  V30 13 1 14 13
M  V30 14 1 15 9
M  V30 15 1 15 14
M  V30 16 1 16 11
M  V30 17 1 16 14
M  V30 18 1 17 16
M  V30 19 1 18 17
M  V30 20 1 19 18
M  V30 21 1 20 19
M  V30 22 2 21 20
M  V30 23 1 22 21
M  V30 24 2 23 22
M  V30 25 1 24 23
M  V30 26 1 25 20
M  V30 27 2 25 24
M  V30 28 1 26 7
M  V30 29 2 27 26
M  V30 30 1 28 27
M  V30 31 2 29 28
M  V30 32 1 30 29
M  V30 33 1 31 26
M  V30 34 2 31 30
M  V30 35 2 32 2
M  V30 36 1 32 6
M  V30 37 1 33 3
M  V30 38 1 34 4
M  V30 39 1 35 5
M  V30 40 1 7 36 CFG=1
M  V30 41 1 9 37 CFG=3
M  V30 42 1 38 10
M  V30 43 1 39 10
M  V30 44 1 11 40 CFG=1
M  V30 45 1 41 12
M  V30 46 1 42 12
M  V30 47 1 43 13
M  V30 48 1 44 13
M  V30 49 1 14 45 CFG=1
M  V30 50 1 46 15
M  V30 51 1 47 15
M  V30 52 1 48 17
M  V30 53 1 49 17
M  V30 54 1 50 18
M  V30 55 1 51 18
M  V30 56 1 52 19
M  V30 57 1 53 19
M  V30 58 1 54 21
M  V30 59 1 55 22
M  V30 60 1 56 23
M  V30 61 1 57 24
M  V30 62 1 58 25
M  V30 63 1 59 27
M  V30 64 1 60 28
M  V30 65 1 61 29
M  V30 66 1 62 30
M  V30 67 1 63 31
M  V30 68 1 64 32
M  V30 69 1 16 65 CFG=1
M  V30 END BOND
M  V30 END CTAB
M  END
>  <b_m_subgroup_collapsed>  (603) 
0

>  <r_i_docking_score>  (603) 
-8.0950480257263404

>  <s_m_subgroup_title>  (603) 
glide-dock_SP_D22_pv

>  <s_m_subgroupid>  (603) 
glide-dock_SP_D22_pv

>  <Molecule ChEMBL ID>  (603) 
CHEMBL106660

>  <Standard Type>  (603) 
Ki

>  <Standard Value>  (603) 
59.0

>  <label>  (603) 
1

$$$$
CHEMBL575788
     RDKit          3D

  0  0  0  0  0  0  0  0  0  0999 V3000
M  V30 BEGIN CTAB
M  V30 COUNTS 60 65 0 0 1
M  V30 BEGIN ATOM
M  V30 1 O 12.485078 5.152774 -14.239655 0
M  V30 2 C 11.300223 4.877731 -14.063591 0
M  V30 3 C 10.485907 5.650606 -13.014732 0
M  V30 4 C 9.371460 4.788651 -12.369609 0 CFG=1
M  V30 5 C 8.545520 5.523843 -11.291836 0
M  V30 6 N 9.390847 6.051558 -10.187814 0 CFG=2 CHG=1
M  V30 7 C 8.839592 5.758237 -8.835534 0
M  V30 8 C 9.715224 6.325909 -7.695024 0
M  V30 9 C 9.990768 7.822767 -7.898753 0 CFG=1
M  V30 10 C 10.804008 8.499731 -6.814978 0
M  V30 11 N 11.112628 9.772313 -7.026861 0
M  V30 12 O 11.764515 10.281112 -5.876757 0
M  V30 13 C 11.871950 9.277087 -4.937851 0
M  V30 14 C 12.416513 9.286034 -3.647886 0
M  V30 15 C 12.383785 8.093045 -2.908840 0
M  V30 16 F 12.883603 8.082648 -1.651124 0
M  V30 17 C 11.833907 6.922925 -3.481249 0
M  V30 18 C 11.285787 6.938828 -4.788521 0
M  V30 19 C 11.287785 8.145351 -5.524701 0
M  V30 20 C 10.637836 8.001258 -9.284669 0
M  V30 21 C 9.687364 7.496451 -10.368545 0
M  V30 22 C 8.451413 4.202695 -13.459586 0
M  V30 23 C 9.240945 3.493203 -14.543318 0
M  V30 24 N 8.590492 2.537245 -15.233567 0
M  V30 25 C 9.267294 1.875483 -16.179337 0
M  V30 26 C 8.534949 0.848783 -16.958017 0
M  V30 27 C 7.144310 0.648690 -16.767101 0
M  V30 28 C 6.444620 -0.312662 -17.520584 0
M  V30 29 C 7.122984 -1.087023 -18.479343 0
M  V30 30 C 8.503654 -0.904166 -18.677830 0
M  V30 31 C 9.204715 0.055137 -17.921785 0
M  V30 32 N 10.552049 2.093461 -16.486502 0
M  V30 33 C 11.213673 3.054399 -15.811058 0
M  V30 34 C 10.586015 3.815268 -14.806653 0
M  V30 35 H 11.184656 5.986488 -12.251926 0
M  V30 36 H 10.082299 6.567181 -13.446418 0
M  V30 37 H 9.861445 3.945885 -11.876987 0
M  V30 38 H 7.946649 6.323178 -11.732000 0
M  V30 39 H 7.819801 4.815331 -10.886769 0
M  V30 40 H 7.835745 6.172935 -8.768827 0
M  V30 41 H 8.735140 4.678919 -8.711750 0
M  V30 42 H 9.193564 6.175640 -6.749746 0
M  V30 43 H 10.652814 5.771769 -7.634915 0
M  V30 44 H 9.020136 8.323170 -7.919868 0
M  V30 45 H 12.849998 10.172481 -3.219141 0
M  V30 46 H 11.819843 6.008240 -2.906908 0
M  V30 47 H 10.864759 6.035655 -5.198255 0
M  V30 48 H 10.843087 9.053470 -9.488040 0
M  V30 49 H 11.597724 7.484594 -9.336899 0
M  V30 50 H 10.129972 7.688391 -11.343677 0
M  V30 51 H 8.762200 8.072127 -10.341739 0
M  V30 52 H 7.872367 4.997091 -13.931552 0
M  V30 53 H 7.729849 3.509192 -13.029696 0
M  V30 54 H 6.595232 1.233261 -16.042917 0
M  V30 55 H 5.384253 -0.452801 -17.363495 0
M  V30 56 H 6.585934 -1.822850 -19.061478 0
M  V30 57 H 9.024663 -1.494103 -19.416527 0
M  V30 58 H 10.264019 0.175228 -18.098415 0
M  V30 59 H 12.247978 3.210742 -16.080450 0
M  V30 60 H 10.268398 5.556975 -10.234218 0
M  V30 END ATOM
M  V30 BEGIN BOND
M  V30 1 2 2 1
M  V30 2 1 3 2
M  V30 3 1 4 3
M  V30 4 1 5 4
M  V30 5 1 6 5
M  V30 6 1 7 6
M  V30 7 1 8 7
M  V30 8 1 9 8
M  V30 9 1 10 9
M  V30 10 2 11 10
M  V30 11 1 12 11
M  V30 12 1 13 12
M  V30 13 1 14 13
M  V30 14 2 15 14
M  V30 15 1 16 15
M  V30 16 1 17 15
M  V30 17 2 18 17
M  V30 18 1 19 10
M  V30 19 2 19 13
M  V30 20 1 19 18
M  V30 21 1 20 9
M  V30 22 1 21 6
M  V30 23 1 21 20
M  V30 24 1 22 4
M  V30 25 1 23 22
M  V30 26 1 24 23
M  V30 27 2 25 24
M  V30 28 1 26 25
M  V30 29 2 27 26
M  V30 30 1 28 27
M  V30 31 2 29 28
M  V30 32 1 30 29
M  V30 33 1 31 26
M  V30 34 2 31 30
M  V30 35 1 32 25
M  V30 36 2 33 32
M  V30 37 1 34 2
M  V30 38 2 34 23
M  V30 39 1 34 33
M  V30 40 1 35 3
M  V30 41 1 36 3
M  V30 42 1 4 37 CFG=1
M  V30 43 1 38 5
M  V30 44 1 39 5
M  V30 45 1 40 7
M  V30 46 1 41 7
M  V30 47 1 42 8
M  V30 48 1 43 8
M  V30 49 1 9 44 CFG=3
M  V30 50 1 45 14
M  V30 51 1 46 17
M  V30 52 1 47 18
M  V30 53 1 48 20
M  V30 54 1 49 20
M  V30 55 1 50 21
M  V30 56 1 51 21
M  V30 57 1 52 22
M  V30 58 1 53 22
M  V30 59 1 54 27
M  V30 60 1 55 28
M  V30 61 1 56 29
M  V30 62 1 57 30
M  V30 63 1 58 31
M  V30 64 1 59 33
M  V30 65 1 6 60 CFG=1
M  V30 END BOND
M  V30 END CTAB
M  END
>  <b_m_subgroup_collapsed>  (604) 
0

>  <r_i_docking_score>  (604) 
-8.0937375351275893

>  <s_m_subgroup_title>  (604) 
glide-dock_SP_D22_pv

>  <s_m_subgroupid>  (604) 
glide-dock_SP_D22_pv

>  <Molecule ChEMBL ID>  (604) 
CHEMBL575788

>  <Standard Type>  (604) 
Ki

>  <Standard Value>  (604) 
33.88

>  <label>  (604) 
1

$$$$
CHEMBL1172210
     RDKit          3D

  0  0  0  0  0  0  0  0  0  0999 V3000
M  V30 BEGIN CTAB
M  V30 COUNTS 45 48 0 0 1
M  V30 BEGIN ATOM
M  V30 1 O 8.886195 8.509119 -7.557808 0
M  V30 2 C 10.055346 7.715178 -7.533126 0 CFG=1
M  V30 3 C 10.758430 7.904036 -6.186624 0
M  V30 4 C 10.924946 9.213341 -5.676782 0
M  V30 5 C 11.467319 9.420234 -4.394986 0
M  V30 6 C 11.849427 8.318032 -3.611437 0
M  V30 7 Br 12.486457 8.575497 -1.846650 0
M  V30 8 C 11.718413 7.014404 -4.115377 0
M  V30 9 C 11.190218 6.809027 -5.400580 0
M  V30 10 C 9.659897 6.246446 -7.826677 0
M  V30 11 C 8.969178 6.076128 -9.184095 0
M  V30 12 N 9.784255 6.622475 -10.296062 0 CFG=1 CHG=1
M  V30 13 C 9.119436 6.448175 -11.609069 0
M  V30 14 C 10.087957 5.986159 -12.647008 0
M  V30 15 C 11.286693 6.503492 -13.087058 0
M  V30 16 C 11.717796 5.645987 -14.153556 0
M  V30 17 C 12.808406 5.584853 -15.050592 0
M  V30 18 C 12.886561 4.560539 -16.018192 0
M  V30 19 C 11.890879 3.564363 -16.096930 0
M  V30 20 C 10.800278 3.593795 -15.207961 0
M  V30 21 C 10.732985 4.631900 -14.265130 0
M  V30 22 O 9.745485 4.848506 -13.328391 0
M  V30 23 C 10.217310 8.027934 -10.060736 0
M  V30 24 C 10.932288 8.201867 -8.703827 0
M  V30 25 H 8.213275 8.109823 -7.021476 0
M  V30 26 H 10.603481 10.066167 -6.256944 0
M  V30 27 H 11.557042 10.419929 -3.997758 0
M  V30 28 H 12.009933 6.169255 -3.509040 0
M  V30 29 H 11.095766 5.788278 -5.736419 0
M  V30 30 H 10.550532 5.617254 -7.835489 0
M  V30 31 H 9.008132 5.853051 -7.044737 0
M  V30 32 H 8.769757 5.017615 -9.358459 0
M  V30 33 H 8.007223 6.572227 -9.164747 0
M  V30 34 H 8.315173 5.714453 -11.528978 0
M  V30 35 H 8.631945 7.371579 -11.925607 0
M  V30 36 H 11.806536 7.384808 -12.745642 0
M  V30 37 H 13.588008 6.330982 -14.994935 0
M  V30 38 H 13.728497 4.527325 -16.695118 0
M  V30 39 H 11.969645 2.777753 -16.833956 0
M  V30 40 H 10.027842 2.840615 -15.251349 0
M  V30 41 H 10.884624 8.349734 -10.859850 0
M  V30 42 H 9.346631 8.686052 -10.109033 0
M  V30 43 H 11.195975 9.252204 -8.570241 0
M  V30 44 H 11.874965 7.652994 -8.713015 0
M  V30 45 H 10.617381 6.054276 -10.332168 0
M  V30 END ATOM
M  V30 BEGIN BOND
M  V30 1 1 2 1 CFG=1
M  V30 2 1 3 2
M  V30 3 1 4 3
M  V30 4 2 5 4
M  V30 5 1 6 5
M  V30 6 1 7 6
M  V30 7 2 8 6
M  V30 8 2 9 3
M  V30 9 1 9 8
M  V30 10 1 10 2
M  V30 11 1 11 10
M  V30 12 1 12 11
M  V30 13 1 13 12
M  V30 14 1 14 13
M  V30 15 2 15 14
M  V30 16 1 16 15
M  V30 17 2 17 16
M  V30 18 1 18 17
M  V30 19 2 19 18
M  V30 20 1 20 19
M  V30 21 1 21 16
M  V30 22 2 21 20
M  V30 23 1 22 14
M  V30 24 1 22 21
M  V30 25 1 23 12
M  V30 26 1 24 2
M  V30 27 1 24 23
M  V30 28 1 25 1
M  V30 29 1 26 4
M  V30 30 1 27 5
M  V30 31 1 28 8
M  V30 32 1 29 9
M  V30 33 1 30 10
M  V30 34 1 31 10
M  V30 35 1 32 11
M  V30 36 1 33 11
M  V30 37 1 34 13
M  V30 38 1 35 13
M  V30 39 1 36 15
M  V30 40 1 37 17
M  V30 41 1 38 18
M  V30 42 1 39 19
M  V30 43 1 40 20
M  V30 44 1 41 23
M  V30 45 1 42 23
M  V30 46 1 43 24
M  V30 47 1 44 24
M  V30 48 1 12 45 CFG=3
M  V30 END BOND
M  V30 END CTAB
M  END
>  <b_m_subgroup_collapsed>  (605) 
0

>  <r_i_docking_score>  (605) 
-8.0915425457264902

>  <s_m_subgroup_title>  (605) 
glide-dock_SP_D22_pv

>  <s_m_subgroupid>  (605) 
glide-dock_SP_D22_pv

>  <Molecule ChEMBL ID>  (605) 
CHEMBL1172210

>  <Standard Type>  (605) 
Ki

>  <Standard Value>  (605) 
17.3

>  <label>  (605) 
1

$$$$
CHEMBL2037522
     RDKit          3D

  0  0  0  0  0  0  0  0  0  0999 V3000
M  V30 BEGIN CTAB
M  V30 COUNTS 46 49 0 0 1
M  V30 BEGIN ATOM
M  V30 1 C 6.587452 2.203660 -14.247005 0
M  V30 2 C 5.685811 2.460060 -13.198277 0
M  V30 3 C 5.970816 3.463452 -12.254929 0
M  V30 4 C 7.169870 4.198812 -12.344981 0
M  V30 5 C 8.047165 3.977817 -13.430551 0
M  V30 6 C 7.758669 2.972342 -14.373720 0
M  V30 7 C 9.305760 4.810272 -13.556962 0
M  V30 8 C 9.793645 5.269990 -12.181090 0
M  V30 9 N 8.731594 5.997683 -11.443896 0 CFG=2 CHG=1
M  V30 10 C 9.256830 6.592286 -10.184548 0
M  V30 11 C 9.909059 7.977668 -10.393699 0
M  V30 12 C 10.703980 8.454951 -9.162286 0
M  V30 13 C 9.831030 8.794814 -7.939172 0
M  V30 14 C 10.584852 8.742881 -6.652122 0
M  V30 15 N 10.792266 7.572059 -6.040795 0
M  V30 16 C 11.387225 7.782661 -4.805812 0
M  V30 17 C 11.686097 6.798260 -3.843653 0
M  V30 18 C 12.227238 7.132942 -2.589567 0
M  V30 19 C 12.486035 8.479459 -2.275360 0
M  V30 20 C 12.211493 9.481493 -3.223967 0
M  V30 21 C 11.683379 9.136257 -4.480357 0
M  V30 22 S 11.270313 10.167896 -5.847314 0
M  V30 23 C 7.527250 5.152470 -11.211626 0
M  V30 24 H 6.372344 1.427781 -14.967446 0
M  V30 25 H 4.778202 1.882327 -13.108872 0
M  V30 26 H 5.289100 3.636974 -11.434938 0
M  V30 27 H 8.437115 2.783338 -15.194916 0
M  V30 28 H 10.084748 4.227511 -14.050779 0
M  V30 29 H 9.094069 5.666912 -14.197937 0
M  V30 30 H 10.086755 4.399588 -11.592563 0
M  V30 31 H 10.678442 5.895666 -12.288785 0
M  V30 32 H 8.455941 6.696115 -9.459131 0
M  V30 33 H 9.967111 5.900757 -9.725919 0
M  V30 34 H 10.598936 7.939634 -11.238519 0
M  V30 35 H 9.146226 8.712220 -10.656848 0
M  V30 36 H 11.409358 7.666718 -8.893147 0
M  V30 37 H 11.315378 9.321514 -9.419111 0
M  V30 38 H 9.368987 9.771650 -8.053111 0
M  V30 39 H 9.001427 8.095602 -7.846572 0
M  V30 40 H 11.457436 5.772405 -4.073494 0
M  V30 41 H 12.432047 6.356901 -1.867324 0
M  V30 42 H 12.891867 8.747707 -1.310349 0
M  V30 43 H 12.398908 10.515713 -2.977630 0
M  V30 44 H 6.654411 5.772514 -11.032877 0
M  V30 45 H 7.686559 4.546945 -10.320169 0
M  V30 46 H 8.410773 6.765180 -12.017176 0
M  V30 END ATOM
M  V30 BEGIN BOND
M  V30 1 2 2 1
M  V30 2 1 3 2
M  V30 3 2 4 3
M  V30 4 1 5 4
M  V30 5 1 6 1
M  V30 6 2 6 5
M  V30 7 1 7 5
M  V30 8 1 8 7
M  V30 9 1 9 8
M  V30 10 1 10 9
M  V30 11 1 11 10
M  V30 12 1 12 11
M  V30 13 1 13 12
M  V30 14 1 14 13
M  V30 15 2 15 14
M  V30 16 1 16 15
M  V30 17 2 17 16
M  V30 18 1 18 17
M  V30 19 2 19 18
M  V30 20 1 20 19
M  V30 21 1 21 16
M  V30 22 2 21 20
M  V30 23 1 22 14
M  V30 24 1 22 21
M  V30 25 1 23 4
M  V30 26 1 23 9
M  V30 27 1 24 1
M  V30 28 1 25 2
M  V30 29 1 26 3
M  V30 30 1 27 6
M  V30 31 1 28 7
M  V30 32 1 29 7
M  V30 33 1 30 8
M  V30 34 1 31 8
M  V30 35 1 32 10
M  V30 36 1 33 10
M  V30 37 1 34 11
M  V30 38 1 35 11
M  V30 39 1 36 12
M  V30 40 1 37 12
M  V30 41 1 38 13
M  V30 42 1 39 13
M  V30 43 1 40 17
M  V30 44 1 41 18
M  V30 45 1 42 19
M  V30 46 1 43 20
M  V30 47 1 44 23
M  V30 48 1 45 23
M  V30 49 1 9 46 CFG=3
M  V30 END BOND
M  V30 END CTAB
M  END
>  <b_m_subgroup_collapsed>  (606) 
0

>  <r_i_docking_score>  (606) 
-8.0888993014292492

>  <s_m_subgroup_title>  (606) 
glide-dock_SP_D22_pv

>  <s_m_subgroupid>  (606) 
glide-dock_SP_D22_pv

>  <Molecule ChEMBL ID>  (606) 
CHEMBL2037522

>  <Standard Type>  (606) 
Ki

>  <Standard Value>  (606) 
30.8

>  <label>  (606) 
1

$$$$
CHEMBL106660
     RDKit          3D

  0  0  0  0  0  0  0  0  0  0999 V3000
M  V30 BEGIN CTAB
M  V30 COUNTS 65 69 0 0 1
M  V30 BEGIN ATOM
M  V30 1 Cl 6.484192 0.728915 -14.563141 0
M  V30 2 C 8.053637 1.414864 -14.736939 0
M  V30 3 C 9.156523 0.571884 -14.956354 0
M  V30 4 C 10.446849 1.123271 -15.046500 0
M  V30 5 C 10.634527 2.512664 -14.911866 0
M  V30 6 C 9.528089 3.375530 -14.727505 0
M  V30 7 C 9.712724 4.899285 -14.653735 0 CFG=1
M  V30 8 O 9.932047 5.372396 -13.326798 0
M  V30 9 C 8.822457 5.368398 -12.434821 0 CFG=1
M  V30 10 C 9.383271 4.931629 -11.078184 0
M  V30 11 C 9.990271 6.106762 -10.284624 0 CFG=1
M  V30 12 C 11.027291 6.996385 -11.032809 0
M  V30 13 C 10.198586 8.096604 -11.668827 0
M  V30 14 C 8.764509 7.735488 -11.316202 0 CFG=1
M  V30 15 C 8.122599 6.750040 -12.337476 0
M  V30 16 N 8.887626 7.050707 -10.008961 0 CFG=2 CHG=1
M  V30 17 C 9.134059 7.956129 -8.845286 0
M  V30 18 C 8.888090 7.266887 -7.486579 0
M  V30 19 C 10.153819 6.692228 -6.809141 0
M  V30 20 C 10.829539 7.581099 -5.781982 0
M  V30 21 C 10.897312 8.978975 -5.951311 0
M  V30 22 C 11.546159 9.772582 -4.992011 0
M  V30 23 C 12.137070 9.181990 -3.857877 0
M  V30 24 C 12.085331 7.785280 -3.686597 0
M  V30 25 C 11.428248 6.989331 -4.646472 0
M  V30 26 C 10.837606 5.372178 -15.569363 0
M  V30 27 C 10.645207 5.406025 -16.968725 0
M  V30 28 C 11.678952 5.844172 -17.818882 0
M  V30 29 C 12.916372 6.242350 -17.277243 0
M  V30 30 C 13.123265 6.199491 -15.884871 0
M  V30 31 C 12.087768 5.763292 -15.036741 0
M  V30 32 C 8.237097 2.808659 -14.647615 0
M  V30 33 H 9.015873 -0.496540 -15.046916 0
M  V30 34 H 11.286282 0.468539 -15.213797 0
M  V30 35 H 11.637218 2.908536 -14.970653 0
M  V30 36 H 8.802794 5.372807 -15.026619 0
M  V30 37 H 8.089881 4.627540 -12.743042 0
M  V30 38 H 10.091219 4.113285 -11.209329 0
M  V30 39 H 8.569322 4.511118 -10.487441 0
M  V30 40 H 10.417268 5.674942 -9.386821 0
M  V30 41 H 11.629333 6.572284 -11.825342 0
M  V30 42 H 11.731363 7.428879 -10.321674 0
M  V30 43 H 10.364796 8.172027 -12.739674 0
M  V30 44 H 10.472830 9.036456 -11.201787 0
M  V30 45 H 8.153051 8.638526 -11.264548 0
M  V30 46 H 7.090433 6.572811 -12.026749 0
M  V30 47 H 8.053835 7.202477 -13.323318 0
M  V30 48 H 8.459647 8.807483 -8.925717 0
M  V30 49 H 10.131915 8.392061 -8.877448 0
M  V30 50 H 8.166591 6.460583 -7.632122 0
M  V30 51 H 8.386679 7.953763 -6.800426 0
M  V30 52 H 10.926618 6.417938 -7.519640 0
M  V30 53 H 9.868281 5.773103 -6.310131 0
M  V30 54 H 10.455359 9.455411 -6.812582 0
M  V30 55 H 11.593637 10.840817 -5.139128 0
M  V30 56 H 12.639374 9.797908 -3.125951 0
M  V30 57 H 12.542928 7.324731 -2.823879 0
M  V30 58 H 11.390852 5.918356 -4.510249 0
M  V30 59 H 9.698687 5.100755 -17.390112 0
M  V30 60 H 11.522780 5.873435 -18.887449 0
M  V30 61 H 13.708222 6.577686 -17.929960 0
M  V30 62 H 14.075168 6.495986 -15.467355 0
M  V30 63 H 12.268736 5.730431 -13.971863 0
M  V30 64 H 7.372638 3.441830 -14.508015 0
M  V30 65 H 7.995576 6.596871 -9.844234 0
M  V30 END ATOM
M  V30 BEGIN BOND
M  V30 1 1 2 1
M  V30 2 1 3 2
M  V30 3 2 4 3
M  V30 4 1 5 4
M  V30 5 2 6 5
M  V30 6 1 7 6
M  V30 7 1 8 7
M  V30 8 1 9 8
M  V30 9 1 10 9
M  V30 10 1 11 10
M  V30 11 1 12 11
M  V30 12 1 13 12
M  V30 13 1 14 13
M  V30 14 1 15 9
M  V30 15 1 15 14
M  V30 16 1 16 11
M  V30 17 1 16 14
M  V30 18 1 17 16
M  V30 19 1 18 17
M  V30 20 1 19 18
M  V30 21 1 20 19
M  V30 22 2 21 20
M  V30 23 1 22 21
M  V30 24 2 23 22
M  V30 25 1 24 23
M  V30 26 1 25 20
M  V30 27 2 25 24
M  V30 28 1 26 7
M  V30 29 2 27 26
M  V30 30 1 28 27
M  V30 31 2 29 28
M  V30 32 1 30 29
M  V30 33 1 31 26
M  V30 34 2 31 30
M  V30 35 2 32 2
M  V30 36 1 32 6
M  V30 37 1 33 3
M  V30 38 1 34 4
M  V30 39 1 35 5
M  V30 40 1 7 36 CFG=3
M  V30 41 1 9 37 CFG=3
M  V30 42 1 38 10
M  V30 43 1 39 10
M  V30 44 1 11 40 CFG=1
M  V30 45 1 41 12
M  V30 46 1 42 12
M  V30 47 1 43 13
M  V30 48 1 44 13
M  V30 49 1 14 45 CFG=1
M  V30 50 1 46 15
M  V30 51 1 47 15
M  V30 52 1 48 17
M  V30 53 1 49 17
M  V30 54 1 50 18
M  V30 55 1 51 18
M  V30 56 1 52 19
M  V30 57 1 53 19
M  V30 58 1 54 21
M  V30 59 1 55 22
M  V30 60 1 56 23
M  V30 61 1 57 24
M  V30 62 1 58 25
M  V30 63 1 59 27
M  V30 64 1 60 28
M  V30 65 1 61 29
M  V30 66 1 62 30
M  V30 67 1 63 31
M  V30 68 1 64 32
M  V30 69 1 16 65 CFG=1
M  V30 END BOND
M  V30 END CTAB
M  END
>  <b_m_subgroup_collapsed>  (607) 
0

>  <r_i_docking_score>  (607) 
-8.08846135969935

>  <s_m_subgroup_title>  (607) 
glide-dock_SP_D22_pv

>  <s_m_subgroupid>  (607) 
glide-dock_SP_D22_pv

>  <Molecule ChEMBL ID>  (607) 
CHEMBL106660

>  <Standard Type>  (607) 
Ki

>  <Standard Value>  (607) 
59.0

>  <label>  (607) 
1

$$$$
CHEMBL2159466
     RDKit          3D

  0  0  0  0  0  0  0  0  0  0999 V3000
M  V30 BEGIN CTAB
M  V30 COUNTS 60 63 0 0 1
M  V30 BEGIN ATOM
M  V30 1 O 12.886008 9.372315 -6.897666 0
M  V30 2 S 11.580712 9.261774 -6.247558 0
M  V30 3 O 10.696880 10.425148 -6.224844 0
M  V30 4 N 10.781409 7.935437 -6.983972 0
M  V30 5 C 9.349846 7.975181 -7.250938 0 CFG=1
M  V30 6 C 9.097706 8.544236 -8.653524 0
M  V30 7 C 9.306816 7.492534 -9.755822 0
M  V30 8 N 8.489640 6.275337 -9.506815 0 CFG=1 CHG=1
M  V30 9 C 8.449007 5.348943 -10.669865 0
M  V30 10 C 7.532665 5.859981 -11.807495 0
M  V30 11 O 7.888035 5.254615 -13.046010 0
M  V30 12 C 7.403584 4.007188 -13.379313 0
M  V30 13 C 6.142159 3.521207 -12.948186 0
M  V30 14 C 5.687366 2.253463 -13.358162 0
M  V30 15 C 6.484638 1.462440 -14.205535 0
M  V30 16 C 7.728784 1.944236 -14.647231 0
M  V30 17 C 8.200913 3.212134 -14.244541 0
M  V30 18 C 9.519754 3.673777 -14.717897 0
M  V30 19 C 10.537377 4.017726 -13.800694 0
M  V30 20 C 11.797086 4.462169 -14.246786 0
M  V30 21 C 12.058386 4.559875 -15.625392 0
M  V30 22 C 11.057775 4.211465 -16.551905 0
M  V30 23 C 9.799010 3.768968 -16.099138 0
M  V30 24 C 8.885424 5.625856 -8.231572 0
M  V30 25 C 8.737842 6.586357 -7.029690 0
M  V30 26 C 11.796774 8.733237 -4.563384 0
M  V30 27 C 11.710110 9.705925 -3.555090 0
M  V30 28 C 12.086076 9.372303 -2.247412 0
M  V30 29 C 12.486036 8.064807 -1.945859 0
M  V30 30 F 12.982549 7.794815 -0.721372 0
M  V30 31 C 12.450001 7.060221 -2.930649 0
M  V30 32 F 12.829698 5.796510 -2.628532 0
M  V30 33 C 12.085961 7.391428 -4.246770 0
M  V30 34 H 11.343952 7.495658 -7.710911 0
M  V30 35 H 8.895557 8.644402 -6.519130 0
M  V30 36 H 8.086092 8.946778 -8.701328 0
M  V30 37 H 9.750275 9.396688 -8.838137 0
M  V30 38 H 10.360567 7.216613 -9.819210 0
M  V30 39 H 9.054715 7.953367 -10.708822 0
M  V30 40 H 8.085422 4.369540 -10.357649 0
M  V30 41 H 9.466416 5.202437 -11.032544 0
M  V30 42 H 7.686252 6.923015 -11.978005 0
M  V30 43 H 6.480697 5.772236 -11.543685 0
M  V30 44 H 5.492845 4.103545 -12.314173 0
M  V30 45 H 4.725188 1.890794 -13.027483 0
M  V30 46 H 6.139562 0.488226 -14.521589 0
M  V30 47 H 8.332694 1.326811 -15.296466 0
M  V30 48 H 10.352049 3.930982 -12.741231 0
M  V30 49 H 12.564767 4.722300 -13.532049 0
M  V30 50 H 13.024530 4.897352 -15.971432 0
M  V30 51 H 11.255484 4.283732 -17.611372 0
M  V30 52 H 9.040115 3.505629 -16.821177 0
M  V30 53 H 8.268659 4.742550 -8.061554 0
M  V30 54 H 9.917393 5.280032 -8.309189 0
M  V30 55 H 7.686090 6.699516 -6.788330 0
M  V30 56 H 9.174186 6.170689 -6.124667 0
M  V30 57 H 11.408856 10.712906 -3.789089 0
M  V30 58 H 12.108508 10.127472 -1.479398 0
M  V30 59 H 12.099640 6.634471 -5.016926 0
M  V30 60 H 7.539088 6.630641 -9.391993 0
M  V30 END ATOM
M  V30 BEGIN BOND
M  V30 1 2 2 1
M  V30 2 2 3 2
M  V30 3 1 4 2
M  V30 4 1 5 4
M  V30 5 1 6 5
M  V30 6 1 7 6
M  V30 7 1 8 7
M  V30 8 1 9 8
M  V30 9 1 10 9
M  V30 10 1 11 10
M  V30 11 1 12 11
M  V30 12 2 13 12
M  V30 13 1 14 13
M  V30 14 2 15 14
M  V30 15 1 16 15
M  V30 16 1 17 12
M  V30 17 2 17 16
M  V30 18 1 18 17
M  V30 19 2 19 18
M  V30 20 1 20 19
M  V30 21 2 21 20
M  V30 22 1 22 21
M  V30 23 1 23 18
M  V30 24 2 23 22
M  V30 25 1 24 8
M  V30 26 1 25 5
M  V30 27 1 25 24
M  V30 28 1 26 2
M  V30 29 1 27 26
M  V30 30 2 28 27
M  V30 31 1 29 28
M  V30 32 1 30 29
M  V30 33 2 31 29
M  V30 34 1 32 31
M  V30 35 2 33 26
M  V30 36 1 33 31
M  V30 37 1 34 4
M  V30 38 1 5 35 CFG=1
M  V30 39 1 36 6
M  V30 40 1 37 6
M  V30 41 1 38 7
M  V30 42 1 39 7
M  V30 43 1 40 9
M  V30 44 1 41 9
M  V30 45 1 42 10
M  V30 46 1 43 10
M  V30 47 1 44 13
M  V30 48 1 45 14
M  V30 49 1 46 15
M  V30 50 1 47 16
M  V30 51 1 48 19
M  V30 52 1 49 20
M  V30 53 1 50 21
M  V30 54 1 51 22
M  V30 55 1 52 23
M  V30 56 1 53 24
M  V30 57 1 54 24
M  V30 58 1 55 25
M  V30 59 1 56 25
M  V30 60 1 57 27
M  V30 61 1 58 28
M  V30 62 1 59 33
M  V30 63 1 8 60 CFG=1
M  V30 END BOND
M  V30 END CTAB
M  END
>  <b_m_subgroup_collapsed>  (608) 
0

>  <r_i_docking_score>  (608) 
-8.0862391146800405

>  <s_m_subgroup_title>  (608) 
glide-dock_SP_D22_pv

>  <s_m_subgroupid>  (608) 
glide-dock_SP_D22_pv

>  <Molecule ChEMBL ID>  (608) 
CHEMBL2159466

>  <Standard Type>  (608) 
Ki

>  <Standard Value>  (608) 
63.0

>  <label>  (608) 
1

$$$$
CHEMBL2335736
     RDKit          3D

  0  0  0  0  0  0  0  0  0  0999 V3000
M  V30 BEGIN CTAB
M  V30 COUNTS 52 55 0 0 1
M  V30 BEGIN ATOM
M  V30 1 C 6.554262 0.569239 -15.020695 0
M  V30 2 O 6.086141 1.578840 -14.137542 0
M  V30 3 C 6.920616 2.638099 -13.847014 0
M  V30 4 C 8.208812 2.808736 -14.414789 0
M  V30 5 C 9.043575 3.868335 -14.003331 0
M  V30 6 C 8.604653 4.785150 -13.018588 0
M  V30 7 C 7.305659 4.640410 -12.487075 0
M  V30 8 C 6.485929 3.569175 -12.879618 0
M  V30 9 O 5.286109 3.415469 -12.256050 0
M  V30 10 C 9.479076 5.964736 -12.575025 0 CFG=1
M  V30 11 C 9.496550 6.187862 -11.046296 0
M  V30 12 C 10.203979 7.506439 -10.653260 0 CFG=1
M  V30 13 O 9.401619 8.546741 -11.175311 0
M  V30 14 C 10.374126 7.687276 -9.137526 0
M  V30 15 C 9.869458 6.757399 -8.197286 0
M  V30 16 C 10.099119 6.932244 -6.820396 0
M  V30 17 C 10.832511 8.031963 -6.343370 0
M  V30 18 O 11.051704 8.090112 -4.986193 0
M  V30 19 C 11.619466 9.182811 -4.412329 0
M  V30 20 F 11.684705 9.011672 -3.069215 0
M  V30 21 F 12.888692 9.374187 -4.839842 0
M  V30 22 F 10.886511 10.302141 -4.641493 0
M  V30 23 C 11.306974 8.984933 -7.276034 0
M  V30 24 C 11.072971 8.815275 -8.652188 0
M  V30 25 C 11.598812 7.567297 -11.336243 0
M  V30 26 C 11.655878 7.093853 -12.804227 0
M  V30 27 N 10.886064 5.852753 -13.048415 0 CFG=2 CHG=1
M  V30 28 C 10.996386 5.406632 -14.454681 0
M  V30 29 C 10.428948 3.992162 -14.602358 0
M  V30 30 H 5.789374 -0.199789 -15.123052 0
M  V30 31 H 6.751332 0.971986 -16.014542 0
M  V30 32 H 7.456261 0.087996 -14.637422 0
M  V30 33 H 8.590204 2.116276 -15.148415 0
M  V30 34 H 6.921984 5.338039 -11.759173 0
M  V30 35 H 5.192700 3.984845 -11.504786 0
M  V30 36 H 9.013408 6.827422 -13.046823 0
M  V30 37 H 9.988702 5.331930 -10.583782 0
M  V30 38 H 8.485054 6.219482 -10.642072 0
M  V30 39 H 8.543947 8.487763 -10.769993 0
M  V30 40 H 9.305690 5.888690 -8.500630 0
M  V30 41 H 9.713532 6.203275 -6.123607 0
M  V30 42 H 11.864367 9.855306 -6.964834 0
M  V30 43 H 11.450162 9.559772 -9.337904 0
M  V30 44 H 12.295764 6.971779 -10.753227 0
M  V30 45 H 12.010749 8.572361 -11.280574 0
M  V30 46 H 12.697330 6.937868 -13.084614 0
M  V30 47 H 11.286130 7.862847 -13.474374 0
M  V30 48 H 12.041268 5.401024 -14.766072 0
M  V30 49 H 10.484806 6.116930 -15.105479 0
M  V30 50 H 11.077685 3.271273 -14.105643 0
M  V30 51 H 10.399049 3.714441 -15.655616 0
M  V30 52 H 11.307190 5.121861 -12.497368 0
M  V30 END ATOM
M  V30 BEGIN BOND
M  V30 1 1 2 1
M  V30 2 1 3 2
M  V30 3 1 4 3
M  V30 4 2 5 4
M  V30 5 1 6 5
M  V30 6 2 7 6
M  V30 7 2 8 3
M  V30 8 1 8 7
M  V30 9 1 9 8
M  V30 10 1 10 6
M  V30 11 1 11 10
M  V30 12 1 12 11
M  V30 13 1 12 13 CFG=3
M  V30 14 1 14 12
M  V30 15 1 15 14
M  V30 16 2 16 15
M  V30 17 1 17 16
M  V30 18 1 18 17
M  V30 19 1 19 18
M  V30 20 1 20 19
M  V30 21 1 21 19
M  V30 22 1 22 19
M  V30 23 2 23 17
M  V30 24 2 24 14
M  V30 25 1 24 23
M  V30 26 1 25 12
M  V30 27 1 26 25
M  V30 28 1 27 10
M  V30 29 1 27 26
M  V30 30 1 28 27
M  V30 31 1 29 5
M  V30 32 1 29 28
M  V30 33 1 30 1
M  V30 34 1 31 1
M  V30 35 1 32 1
M  V30 36 1 33 4
M  V30 37 1 34 7
M  V30 38 1 35 9
M  V30 39 1 10 36 CFG=3
M  V30 40 1 37 11
M  V30 41 1 38 11
M  V30 42 1 39 13
M  V30 43 1 40 15
M  V30 44 1 41 16
M  V30 45 1 42 23
M  V30 46 1 43 24
M  V30 47 1 44 25
M  V30 48 1 45 25
M  V30 49 1 46 26
M  V30 50 1 47 26
M  V30 51 1 48 28
M  V30 52 1 49 28
M  V30 53 1 50 29
M  V30 54 1 51 29
M  V30 55 1 27 52 CFG=1
M  V30 END BOND
M  V30 END CTAB
M  END
>  <b_m_subgroup_collapsed>  (609) 
0

>  <r_i_docking_score>  (609) 
-8.0861494081821608

>  <s_m_subgroup_title>  (609) 
glide-dock_SP_D22_pv

>  <s_m_subgroupid>  (609) 
glide-dock_SP_D22_pv

>  <Molecule ChEMBL ID>  (609) 
CHEMBL2335736

>  <Standard Type>  (609) 
Ki

>  <Standard Value>  (609) 
4.0

>  <label>  (609) 
1

$$$$
CHEMBL196598
     RDKit          3D

  0  0  0  0  0  0  0  0  0  0999 V3000
M  V30 BEGIN CTAB
M  V30 COUNTS 65 68 0 0 1
M  V30 BEGIN ATOM
M  V30 1 C 10.770293 -0.366488 -17.917454 0
M  V30 2 O 9.712726 -0.266837 -16.971729 0
M  V30 3 C 9.697807 0.812051 -16.110367 0
M  V30 4 C 10.885519 1.523472 -15.811877 0
M  V30 5 C 10.885398 2.591742 -14.900468 0
M  V30 6 C 9.687460 2.992215 -14.274807 0
M  V30 7 N 9.626563 4.056868 -13.331262 0
M  V30 8 C 10.390666 5.167663 -13.294284 0
M  V30 9 O 11.266368 5.400588 -14.129993 0
M  V30 10 N 10.085813 6.035584 -12.294772 0
M  V30 11 C 9.104834 5.744483 -11.225917 0
M  V30 12 C 9.065344 6.808868 -10.111223 0
M  V30 13 N 10.415870 7.238099 -9.766335 0
M  V30 14 C 10.683406 7.657536 -8.441232 0
M  V30 15 C 11.494694 8.787399 -8.175679 0
M  V30 16 C 11.780534 9.186636 -6.860095 0
M  V30 17 C 11.294362 8.449236 -5.766047 0
M  V30 18 C 11.697117 8.861823 -4.356045 0
M  V30 19 F 11.685935 7.824248 -3.516667 0
M  V30 20 F 12.922677 9.371804 -4.366214 0
M  V30 21 F 10.886118 9.807243 -3.903255 0
M  V30 22 C 10.484554 7.323424 -6.009961 0
M  V30 23 C 10.177729 6.934324 -7.331814 0
M  V30 24 C 11.165793 7.842434 -10.864816 0
M  V30 25 C 10.710431 7.372415 -12.263060 0
M  V30 26 C 8.504129 2.282842 -14.560230 0
M  V30 27 C 8.483125 1.198613 -15.469761 0
M  V30 28 N 7.238795 0.561827 -15.682570 0
M  V30 29 C 6.701391 -0.125690 -14.509671 0
M  V30 30 C 5.214705 -0.484174 -14.689767 0
M  V30 31 N 4.973131 -1.166668 -15.984525 0 CHG=1
M  V30 32 C 3.565205 -1.592352 -16.151917 0
M  V30 33 C 5.462554 -0.363748 -17.129566 0
M  V30 34 C 6.959651 -0.069670 -16.972353 0
M  V30 35 H 10.538256 -1.152275 -18.638288 0
M  V30 36 H 10.893744 0.564192 -18.477312 0
M  V30 37 H 11.717705 -0.627445 -17.447441 0
M  V30 38 H 11.833496 1.250448 -16.247585 0
M  V30 39 H 11.823080 3.083226 -14.687895 0
M  V30 40 H 8.871009 4.021967 -12.664736 0
M  V30 41 H 8.103447 5.632555 -11.647204 0
M  V30 42 H 9.367603 4.790726 -10.763941 0
M  V30 43 H 8.527638 7.687145 -10.474866 0
M  V30 44 H 8.492980 6.441491 -9.260460 0
M  V30 45 H 11.922970 9.373424 -8.970958 0
M  V30 46 H 12.406796 10.049809 -6.687255 0
M  V30 47 H 10.102143 6.737890 -5.185389 0
M  V30 48 H 9.576262 6.051171 -7.477059 0
M  V30 49 H 11.095788 8.930020 -10.834413 0
M  V30 50 H 12.216736 7.580554 -10.727767 0
M  V30 51 H 11.558887 7.470805 -12.940350 0
M  V30 52 H 9.962738 8.069096 -12.646677 0
M  V30 53 H 7.587683 2.585842 -14.075925 0
M  V30 54 H 7.285717 -1.028337 -14.344604 0
M  V30 55 H 6.815883 0.482678 -13.610472 0
M  V30 56 H 4.898671 -1.121398 -13.863491 0
M  V30 57 H 4.610358 0.422715 -14.642918 0
M  V30 58 H 2.889195 -0.737090 -16.190874 0
M  V30 59 H 3.440364 -2.171770 -17.068129 0
M  V30 60 H 3.265100 -2.225593 -15.320433 0
M  V30 61 H 5.291974 -0.905602 -18.059845 0
M  V30 62 H 4.901346 0.572435 -17.191612 0
M  V30 63 H 7.304921 0.570531 -17.783430 0
M  V30 64 H 7.494360 -1.017796 -17.046114 0
M  V30 65 H 5.532978 -2.008945 -15.968574 0
M  V30 END ATOM
M  V30 BEGIN BOND
M  V30 1 1 2 1
M  V30 2 1 3 2
M  V30 3 1 4 3
M  V30 4 2 5 4
M  V30 5 1 6 5
M  V30 6 1 7 6
M  V30 7 1 8 7
M  V30 8 2 9 8
M  V30 9 1 10 8
M  V30 10 1 11 10
M  V30 11 1 12 11
M  V30 12 1 13 12
M  V30 13 1 14 13
M  V30 14 1 15 14
M  V30 15 2 16 15
M  V30 16 1 17 16
M  V30 17 1 18 17
M  V30 18 1 19 18
M  V30 19 1 20 18
M  V30 20 1 21 18
M  V30 21 2 22 17
M  V30 22 2 23 14
M  V30 23 1 23 22
M  V30 24 1 24 13
M  V30 25 1 25 10
M  V30 26 1 25 24
M  V30 27 2 26 6
M  V30 28 2 27 3
M  V30 29 1 27 26
M  V30 30 1 28 27
M  V30 31 1 29 28
M  V30 32 1 30 29
M  V30 33 1 31 30
M  V30 34 1 32 31
M  V30 35 1 33 31
M  V30 36 1 34 28
M  V30 37 1 34 33
M  V30 38 1 35 1
M  V30 39 1 36 1
M  V30 40 1 37 1
M  V30 41 1 38 4
M  V30 42 1 39 5
M  V30 43 1 40 7
M  V30 44 1 41 11
M  V30 45 1 42 11
M  V30 46 1 43 12
M  V30 47 1 44 12
M  V30 48 1 45 15
M  V30 49 1 46 16
M  V30 50 1 47 22
M  V30 51 1 48 23
M  V30 52 1 49 24
M  V30 53 1 50 24
M  V30 54 1 51 25
M  V30 55 1 52 25
M  V30 56 1 53 26
M  V30 57 1 54 29
M  V30 58 1 55 29
M  V30 59 1 56 30
M  V30 60 1 57 30
M  V30 61 1 58 32
M  V30 62 1 59 32
M  V30 63 1 60 32
M  V30 64 1 61 33
M  V30 65 1 62 33
M  V30 66 1 63 34
M  V30 67 1 64 34
M  V30 68 1 65 31
M  V30 END BOND
M  V30 END CTAB
M  END
>  <b_m_subgroup_collapsed>  (610) 
0

>  <r_i_docking_score>  (610) 
-8.0831995221029906

>  <s_m_subgroup_title>  (610) 
glide-dock_SP_D22_pv

>  <s_m_subgroupid>  (610) 
glide-dock_SP_D22_pv

>  <Molecule ChEMBL ID>  (610) 
CHEMBL196598

>  <Standard Type>  (610) 
Ki

>  <Standard Value>  (610) 
10000.0

>  <label>  (610) 
0

$$$$
CHEMBL5903085
     RDKit          3D

  0  0  0  0  0  0  0  0  0  0999 V3000
M  V30 BEGIN CTAB
M  V30 COUNTS 51 53 0 0 1
M  V30 BEGIN ATOM
M  V30 1 C 10.747109 2.888716 -14.289722 0
M  V30 2 C 10.010004 4.064863 -13.626605 0 CFG=1
M  V30 3 O 10.430224 5.257258 -14.260702 0
M  V30 4 C 8.470515 3.939470 -13.700606 0
M  V30 5 O 7.985007 3.146435 -14.506177 0
M  V30 6 N 7.679978 4.680726 -12.880359 0
M  V30 7 C 6.211525 4.566680 -12.941833 0
M  V30 8 C 5.695981 3.195134 -12.775851 0
M  V30 9 N 5.286388 2.121243 -12.645366 0
M  V30 10 C 8.162199 5.718913 -11.956931 0
M  V30 11 C 8.501061 5.126912 -10.576761 0
M  V30 12 N 8.842173 6.172098 -9.576272 0 CFG=1 CHG=1
M  V30 13 C 8.632177 5.692573 -8.183757 0
M  V30 14 C 8.949896 6.779308 -7.146174 0
M  V30 15 C 10.394953 7.257759 -7.302915 0 CFG=2
M  V30 16 C 10.763267 8.281940 -6.262680 0
M  V30 17 N 10.500771 9.573060 -6.449308 0
M  V30 18 O 10.951839 10.274295 -5.296727 0
M  V30 19 C 11.456036 9.372666 -4.375196 0
M  V30 20 C 11.988387 9.546474 -3.090542 0
M  V30 21 C 12.367623 8.391966 -2.379163 0
M  V30 22 F 12.886308 8.515939 -1.138578 0
M  V30 23 C 12.210755 7.108443 -2.956241 0
M  V30 24 C 11.686046 6.962846 -4.260077 0
M  V30 25 C 11.312226 8.120247 -4.976943 0
M  V30 26 C 10.610125 7.756872 -8.742908 0
M  V30 27 C 10.224465 6.681877 -9.769376 0
M  V30 28 H 10.451593 1.936772 -13.846826 0
M  V30 29 H 10.540994 2.834276 -15.358035 0
M  V30 30 H 11.825828 2.979692 -14.170200 0
M  V30 31 H 10.326374 4.107624 -12.587033 0
M  V30 32 H 11.374045 5.285214 -14.266925 0
M  V30 33 H 5.723726 5.159307 -12.165293 0
M  V30 34 H 5.846766 4.946287 -13.895610 0
M  V30 35 H 9.015397 6.244424 -12.382684 0
M  V30 36 H 7.398962 6.492636 -11.848278 0
M  V30 37 H 7.649277 4.545742 -10.246542 0
M  V30 38 H 9.316499 4.407745 -10.642546 0
M  V30 39 H 7.604576 5.373902 -8.043377 0
M  V30 40 H 9.253299 4.813531 -8.004115 0
M  V30 41 H 8.806583 6.373219 -6.145786 0
M  V30 42 H 8.255081 7.615007 -7.245809 0
M  V30 43 H 11.043756 6.390847 -7.157913 0
M  V30 44 H 12.086352 10.527864 -2.647568 0
M  V30 45 H 12.499239 6.231709 -2.394023 0
M  V30 46 H 11.569043 5.980713 -4.695276 0
M  V30 47 H 11.652552 8.042919 -8.887853 0
M  V30 48 H 10.013856 8.653093 -8.926655 0
M  V30 49 H 10.886018 5.826195 -9.666023 0
M  V30 50 H 10.355045 7.079478 -10.776434 0
M  V30 51 H 8.181308 6.936170 -9.711520 0
M  V30 END ATOM
M  V30 BEGIN BOND
M  V30 1 1 2 1
M  V30 2 1 3 2
M  V30 3 1 4 2
M  V30 4 2 5 4
M  V30 5 1 6 4
M  V30 6 1 7 6
M  V30 7 1 8 7
M  V30 8 3 9 8
M  V30 9 1 10 6
M  V30 10 1 11 10
M  V30 11 1 12 11
M  V30 12 1 13 12
M  V30 13 1 14 13
M  V30 14 1 15 14
M  V30 15 1 16 15
M  V30 16 2 17 16
M  V30 17 1 18 17
M  V30 18 1 19 18
M  V30 19 1 20 19
M  V30 20 2 21 20
M  V30 21 1 22 21
M  V30 22 1 23 21
M  V30 23 2 24 23
M  V30 24 1 25 16
M  V30 25 2 25 19
M  V30 26 1 25 24
M  V30 27 1 26 15
M  V30 28 1 27 12
M  V30 29 1 27 26
M  V30 30 1 28 1
M  V30 31 1 29 1
M  V30 32 1 30 1
M  V30 33 1 2 31 CFG=1
M  V30 34 1 32 3
M  V30 35 1 33 7
M  V30 36 1 34 7
M  V30 37 1 35 10
M  V30 38 1 36 10
M  V30 39 1 37 11
M  V30 40 1 38 11
M  V30 41 1 39 13
M  V30 42 1 40 13
M  V30 43 1 41 14
M  V30 44 1 42 14
M  V30 45 1 15 43 CFG=1
M  V30 46 1 44 20
M  V30 47 1 45 23
M  V30 48 1 46 24
M  V30 49 1 47 26
M  V30 50 1 48 26
M  V30 51 1 49 27
M  V30 52 1 50 27
M  V30 53 1 12 51 CFG=3
M  V30 END BOND
M  V30 END CTAB
M  END
>  <b_m_subgroup_collapsed>  (611) 
0

>  <r_i_docking_score>  (611) 
-8.0811927955802894

>  <s_m_subgroup_title>  (611) 
glide-dock_SP_D22_pv

>  <s_m_subgroupid>  (611) 
glide-dock_SP_D22_pv

>  <Molecule ChEMBL ID>  (611) 
CHEMBL5903085

>  <Standard Type>  (611) 
Ki

>  <Standard Value>  (611) 
10000.0

>  <label>  (611) 
0

$$$$
CHEMBL5435325
     RDKit          3D

  0  0  0  0  0  0  0  0  0  0999 V3000
M  V30 BEGIN CTAB
M  V30 COUNTS 64 68 0 0 1
M  V30 BEGIN ATOM
M  V30 1 C 9.523100 -0.940235 -18.104200 0
M  V30 2 C 8.099963 -0.584093 -17.649776 0
M  V30 3 C 7.335414 0.201217 -18.727459 0
M  V30 4 O 8.223497 0.221534 -16.481346 0
M  V30 5 C 7.147977 0.355862 -15.625610 0
M  V30 6 C 6.085845 -0.572916 -15.492417 0
M  V30 7 C 5.059808 -0.351344 -14.549598 0
M  V30 8 C 5.062457 0.802029 -13.741150 0
M  V30 9 C 6.087207 1.764705 -13.867660 0
M  V30 10 C 6.405781 3.043933 -13.303085 0
M  V30 11 C 7.604072 3.405762 -13.846631 0
M  V30 12 O 8.057758 2.516003 -14.771084 0
M  V30 13 C 7.125686 1.494172 -14.802485 0
M  V30 14 C 8.407999 4.606057 -13.486061 0
M  V30 15 N 7.910477 5.174538 -12.196648 0 CFG=1 CHG=1
M  V30 16 C 8.578315 6.447218 -11.823495 0
M  V30 17 C 10.047756 6.257851 -11.420711 0
M  V30 18 C 10.748351 7.587405 -11.098611 0
M  V30 19 C 10.397665 8.229835 -9.750756 0
M  V30 20 O 10.919178 7.422476 -8.702971 0
M  V30 21 C 11.104424 7.984924 -7.456818 0
M  V30 22 C 11.265501 9.372306 -7.205317 0
M  V30 23 C 11.460687 9.857897 -5.896819 0
M  V30 24 C 11.555933 8.953242 -4.826846 0
M  V30 25 C 11.835348 9.368640 -3.452031 0
M  V30 26 C 12.086515 8.457167 -2.489017 0
M  V30 27 C 12.090209 7.022956 -2.774215 0
M  V30 28 O 12.483654 6.172760 -1.984116 0
M  V30 29 N 11.684373 6.665531 -4.011584 0
M  V30 30 C 11.451330 7.569801 -5.072638 0
M  V30 31 C 11.201717 7.091427 -6.372158 0
M  V30 32 C 6.418972 5.274098 -12.168295 0
M  V30 33 C 5.750925 3.877088 -12.248428 0
M  V30 34 H 9.505498 -1.567283 -18.997347 0
M  V30 35 H 10.054426 -1.486714 -17.323040 0
M  V30 36 H 10.102683 -0.044811 -18.332552 0
M  V30 37 H 7.588057 -1.520694 -17.450218 0
M  V30 38 H 7.249496 -0.375263 -19.650320 0
M  V30 39 H 7.845122 1.136450 -18.962502 0
M  V30 40 H 6.324746 0.447892 -18.397823 0
M  V30 41 H 6.044276 -1.480925 -16.078180 0
M  V30 42 H 4.259955 -1.072328 -14.457861 0
M  V30 43 H 4.258131 0.975249 -13.047454 0
M  V30 44 H 9.456378 4.320634 -13.406129 0
M  V30 45 H 8.330058 5.349751 -14.280508 0
M  V30 46 H 8.475471 7.173710 -12.631220 0
M  V30 47 H 8.086812 6.867332 -10.954026 0
M  V30 48 H 10.110384 5.581324 -10.568892 0
M  V30 49 H 10.597195 5.795715 -12.239931 0
M  V30 50 H 11.830123 7.447414 -11.141907 0
M  V30 51 H 10.495736 8.299846 -11.880272 0
M  V30 52 H 10.829185 9.224926 -9.778239 0
M  V30 53 H 9.320669 8.354926 -9.634453 0
M  V30 54 H 11.285608 10.097446 -7.997602 0
M  V30 55 H 11.576312 10.919327 -5.728310 0
M  V30 56 H 11.812598 10.420996 -3.212119 0
M  V30 57 H 12.275321 8.788617 -1.479795 0
M  V30 58 H 11.645121 5.676154 -4.217586 0
M  V30 59 H 11.118103 6.032006 -6.552263 0
M  V30 60 H 6.079904 5.770494 -11.259782 0
M  V30 61 H 6.090959 5.896773 -13.003161 0
M  V30 62 H 4.691568 3.987309 -12.461054 0
M  V30 63 H 5.830884 3.373531 -11.284708 0
M  V30 64 H 8.141642 4.509537 -11.470827 0
M  V30 END ATOM
M  V30 BEGIN BOND
M  V30 1 1 2 1
M  V30 2 1 3 2
M  V30 3 1 4 2
M  V30 4 1 5 4
M  V30 5 1 6 5
M  V30 6 2 7 6
M  V30 7 1 8 7
M  V30 8 2 9 8
M  V30 9 1 10 9
M  V30 10 2 11 10
M  V30 11 1 12 11
M  V30 12 2 13 5
M  V30 13 1 13 9
M  V30 14 1 13 12
M  V30 15 1 14 11
M  V30 16 1 15 14
M  V30 17 1 16 15
M  V30 18 1 17 16
M  V30 19 1 18 17
M  V30 20 1 19 18
M  V30 21 1 20 19
M  V30 22 1 21 20
M  V30 23 1 22 21
M  V30 24 2 23 22
M  V30 25 1 24 23
M  V30 26 1 25 24
M  V30 27 2 26 25
M  V30 28 1 27 26
M  V30 29 2 28 27
M  V30 30 1 29 27
M  V30 31 2 30 24
M  V30 32 1 30 29
M  V30 33 2 31 21
M  V30 34 1 31 30
M  V30 35 1 32 15
M  V30 36 1 33 10
M  V30 37 1 33 32
M  V30 38 1 34 1
M  V30 39 1 35 1
M  V30 40 1 36 1
M  V30 41 1 37 2
M  V30 42 1 38 3
M  V30 43 1 39 3
M  V30 44 1 40 3
M  V30 45 1 41 6
M  V30 46 1 42 7
M  V30 47 1 43 8
M  V30 48 1 44 14
M  V30 49 1 45 14
M  V30 50 1 46 16
M  V30 51 1 47 16
M  V30 52 1 48 17
M  V30 53 1 49 17
M  V30 54 1 50 18
M  V30 55 1 51 18
M  V30 56 1 52 19
M  V30 57 1 53 19
M  V30 58 1 54 22
M  V30 59 1 55 23
M  V30 60 1 56 25
M  V30 61 1 57 26
M  V30 62 1 58 29
M  V30 63 1 59 31
M  V30 64 1 60 32
M  V30 65 1 61 32
M  V30 66 1 62 33
M  V30 67 1 63 33
M  V30 68 1 15 64 CFG=1
M  V30 END BOND
M  V30 END CTAB
M  END
>  <b_m_subgroup_collapsed>  (612) 
0

>  <r_i_docking_score>  (612) 
-8.0808760045470702

>  <s_m_subgroup_title>  (612) 
glide-dock_SP_D22_pv

>  <s_m_subgroupid>  (612) 
glide-dock_SP_D22_pv

>  <Molecule ChEMBL ID>  (612) 
CHEMBL5435325

>  <Standard Type>  (612) 
Ki

>  <Standard Value>  (612) 
88.8

>  <label>  (612) 
1

$$$$
CHEMBL559873
     RDKit          3D

  0  0  0  0  0  0  0  0  0  0999 V3000
M  V30 BEGIN CTAB
M  V30 COUNTS 48 51 0 0 1
M  V30 BEGIN ATOM
M  V30 1 O 8.944448 8.140151 -7.149001 0
M  V30 2 C 10.053740 8.285276 -7.655394 0
M  V30 3 N 10.327147 8.338984 -8.965250 0
M  V30 4 C 9.409926 8.077906 -10.056279 0
M  V30 5 C 9.176564 6.556029 -10.198931 0
M  V30 6 N 8.265825 6.172400 -11.307784 0 CFG=2 CHG=1
M  V30 7 C 7.953413 4.716671 -11.260425 0
M  V30 8 C 7.296911 4.163661 -12.544894 0
M  V30 9 C 8.317122 3.726553 -13.626695 0
M  V30 10 C 9.606049 4.497243 -13.648120 0
M  V30 11 S 11.077358 3.772748 -14.246586 0
M  V30 12 C 11.990145 5.200512 -13.847515 0
M  V30 13 C 11.195760 6.171744 -13.299970 0
M  V30 14 C 9.827972 5.772071 -13.187035 0
M  V30 15 C 8.724580 6.634280 -12.644886 0
M  V30 16 C 11.715461 8.628098 -9.255462 0
M  V30 17 C 12.356477 8.512821 -7.882077 0
M  V30 18 N 11.212928 8.375859 -6.995567 0
M  V30 19 C 11.331932 8.539474 -5.604185 0
M  V30 20 C 11.171842 9.818599 -5.043729 0
M  V30 21 C 11.403274 10.000586 -3.671461 0
M  V30 22 C 11.835463 8.936740 -2.867747 0
M  V30 23 C 11.969807 7.658137 -3.427077 0
M  V30 24 Cl 12.485890 6.367351 -2.427140 0
M  V30 25 C 11.685908 7.443742 -4.789356 0
M  V30 26 H 9.856509 8.521178 -10.943880 0
M  V30 27 H 8.486364 8.618789 -9.873733 0
M  V30 28 H 8.743177 6.179622 -9.269889 0
M  V30 29 H 10.133171 6.046209 -10.324349 0
M  V30 30 H 8.870078 4.165128 -11.050772 0
M  V30 31 H 7.313381 4.521093 -10.411474 0
M  V30 32 H 6.658720 3.316948 -12.299870 0
M  V30 33 H 6.601242 4.897726 -12.950139 0
M  V30 34 H 7.848690 3.755545 -14.610552 0
M  V30 35 H 8.563077 2.678693 -13.450829 0
M  V30 36 H 13.051762 5.243546 -14.048249 0
M  V30 37 H 11.545213 7.144176 -12.984668 0
M  V30 38 H 9.011065 7.680527 -12.631296 0
M  V30 39 H 7.880998 6.628985 -13.333585 0
M  V30 40 H 12.141507 7.920411 -9.968113 0
M  V30 41 H 11.798950 9.635484 -9.663562 0
M  V30 42 H 12.978479 9.371585 -7.625862 0
M  V30 43 H 12.961156 7.609231 -7.847176 0
M  V30 44 H 10.888075 10.658540 -5.662307 0
M  V30 45 H 11.286587 10.972076 -3.225931 0
M  V30 46 H 12.040605 9.098036 -1.819740 0
M  V30 47 H 11.804403 6.457918 -5.217025 0
M  V30 48 H 7.406692 6.684676 -11.096086 0
M  V30 END ATOM
M  V30 BEGIN BOND
M  V30 1 2 2 1
M  V30 2 1 3 2
M  V30 3 1 4 3
M  V30 4 1 5 4
M  V30 5 1 6 5
M  V30 6 1 7 6
M  V30 7 1 8 7
M  V30 8 1 9 8
M  V30 9 1 10 9
M  V30 10 1 11 10
M  V30 11 1 12 11
M  V30 12 2 13 12
M  V30 13 2 14 10
M  V30 14 1 14 13
M  V30 15 1 15 6
M  V30 16 1 15 14
M  V30 17 1 16 3
M  V30 18 1 17 16
M  V30 19 1 18 2
M  V30 20 1 18 17
M  V30 21 1 19 18
M  V30 22 2 20 19
M  V30 23 1 21 20
M  V30 24 2 22 21
M  V30 25 1 23 22
M  V30 26 1 24 23
M  V30 27 1 25 19
M  V30 28 2 25 23
M  V30 29 1 26 4
M  V30 30 1 27 4
M  V30 31 1 28 5
M  V30 32 1 29 5
M  V30 33 1 30 7
M  V30 34 1 31 7
M  V30 35 1 32 8
M  V30 36 1 33 8
M  V30 37 1 34 9
M  V30 38 1 35 9
M  V30 39 1 36 12
M  V30 40 1 37 13
M  V30 41 1 38 15
M  V30 42 1 39 15
M  V30 43 1 40 16
M  V30 44 1 41 16
M  V30 45 1 42 17
M  V30 46 1 43 17
M  V30 47 1 44 20
M  V30 48 1 45 21
M  V30 49 1 46 22
M  V30 50 1 47 25
M  V30 51 1 6 48 CFG=1
M  V30 END BOND
M  V30 END CTAB
M  END
>  <b_m_subgroup_collapsed>  (613) 
0

>  <r_i_docking_score>  (613) 
-8.0802289654920401

>  <s_m_subgroup_title>  (613) 
glide-dock_SP_D22_pv

>  <s_m_subgroupid>  (613) 
glide-dock_SP_D22_pv

>  <Molecule ChEMBL ID>  (613) 
CHEMBL559873

>  <Standard Type>  (613) 
Ki

>  <Standard Value>  (613) 
3.162

>  <label>  (613) 
1

$$$$
CHEMBL545457
     RDKit          3D

  0  0  0  0  0  0  0  0  0  0999 V3000
M  V30 BEGIN CTAB
M  V30 COUNTS 33 35 0 0 1
M  V30 BEGIN ATOM
M  V30 1 O 8.886069 9.184826 -8.904131 0
M  V30 2 C 9.618040 8.554404 -8.151324 0
M  V30 3 C 10.027335 8.911998 -6.831721 0
M  V30 4 C 10.845429 7.962326 -6.387903 0
M  V30 5 C 11.448215 7.981870 -5.046944 0
M  V30 6 C 11.685889 6.772676 -4.365141 0
M  V30 7 C 12.147107 6.793517 -3.033956 0
M  V30 8 C 12.380911 8.020905 -2.384275 0
M  V30 9 C 12.149696 9.230123 -3.063982 0
M  V30 10 C 11.686240 9.212359 -4.391850 0
M  V30 11 O 11.102003 6.988085 -7.327554 0
M  V30 12 C 10.295140 7.240161 -8.495759 0 CFG=2
M  V30 13 C 11.149495 7.394646 -9.777512 0
M  V30 14 C 10.295744 7.409309 -11.064076 0
M  V30 15 C 9.311314 6.226145 -11.107771 0
M  V30 16 N 8.486023 6.172311 -9.882329 0 CHG=1
M  V30 17 C 9.285797 6.075754 -8.637492 0
M  V30 18 H 9.686543 9.772274 -6.295288 0
M  V30 19 H 11.486514 5.827276 -4.848792 0
M  V30 20 H 12.314622 5.863947 -2.508912 0
M  V30 21 H 12.733349 8.038323 -1.363891 0
M  V30 22 H 12.324702 10.171890 -2.564941 0
M  V30 23 H 11.504321 10.151753 -4.892929 0
M  V30 24 H 11.763132 8.296151 -9.728157 0
M  V30 25 H 11.847200 6.572406 -9.847075 0
M  V30 26 H 9.744527 8.346236 -11.146327 0
M  V30 27 H 10.948506 7.376359 -11.937105 0
M  V30 28 H 8.653994 6.313402 -11.973821 0
M  V30 29 H 9.853442 5.285398 -11.213076 0
M  V30 30 H 7.876287 6.996119 -9.848497 0
M  V30 31 H 9.818364 5.123633 -8.634020 0
M  V30 32 H 8.602390 6.052178 -7.786571 0
M  V30 33 H 7.866258 5.375676 -9.935379 0
M  V30 END ATOM
M  V30 BEGIN BOND
M  V30 1 2 2 1
M  V30 2 1 3 2
M  V30 3 2 4 3
M  V30 4 1 5 4
M  V30 5 2 6 5
M  V30 6 1 7 6
M  V30 7 2 8 7
M  V30 8 1 9 8
M  V30 9 1 10 5
M  V30 10 2 10 9
M  V30 11 1 11 4
M  V30 12 1 12 2
M  V30 13 1 12 11 CFG=1
M  V30 14 1 13 12
M  V30 15 1 14 13
M  V30 16 1 15 14
M  V30 17 1 16 15
M  V30 18 1 17 12
M  V30 19 1 17 16
M  V30 20 1 18 3
M  V30 21 1 19 6
M  V30 22 1 20 7
M  V30 23 1 21 8
M  V30 24 1 22 9
M  V30 25 1 23 10
M  V30 26 1 24 13
M  V30 27 1 25 13
M  V30 28 1 26 14
M  V30 29 1 27 14
M  V30 30 1 28 15
M  V30 31 1 29 15
M  V30 32 1 30 16
M  V30 33 1 31 17
M  V30 34 1 32 17
M  V30 35 1 33 16
M  V30 END BOND
M  V30 END CTAB
M  END
>  <b_m_subgroup_collapsed>  (614) 
0

>  <r_i_docking_score>  (614) 
-8.0793171112349906

>  <s_m_subgroup_title>  (614) 
glide-dock_SP_D22_pv

>  <s_m_subgroupid>  (614) 
glide-dock_SP_D22_pv

>  <Molecule ChEMBL ID>  (614) 
CHEMBL545457

>  <Standard Type>  (614) 
Ki

>  <Standard Value>  (614) 
10000.0

>  <label>  (614) 
0

$$$$
CHEMBL4165881
     RDKit          3D

  0  0  0  0  0  0  0  0  0  0999 V3000
M  V30 BEGIN CTAB
M  V30 COUNTS 46 48 0 0 1
M  V30 BEGIN ATOM
M  V30 1 C 11.893054 6.946085 -3.076611 0
M  V30 2 C 11.686562 7.724355 -4.361865 0
M  V30 3 C 12.190343 9.032448 -4.475951 0
M  V30 4 C 12.003404 9.744584 -5.672446 0
M  V30 5 C 11.298284 9.170753 -6.742790 0
M  V30 6 C 10.778817 7.856434 -6.655396 0
M  V30 7 N 10.097148 7.258054 -7.742581 0
M  V30 8 C 8.914819 6.458474 -7.441651 0
M  V30 9 C 8.605061 5.486103 -8.588448 0
M  V30 10 N 8.486218 6.172150 -9.901405 0 CHG=1
M  V30 11 C 8.246312 5.204756 -11.002613 0
M  V30 12 C 7.588551 5.849189 -12.240234 0
M  V30 13 N 7.634203 4.971745 -13.404680 0
M  V30 14 C 6.921905 3.768586 -13.428337 0
M  V30 15 C 5.773068 3.515487 -12.637903 0
M  V30 16 N 5.158742 2.311391 -12.644899 0
M  V30 17 C 5.685669 1.363467 -13.449674 0
M  V30 18 C 6.813735 1.618191 -14.260784 0
M  V30 19 Cl 7.434095 0.372730 -15.275491 0
M  V30 20 N 7.429317 2.822115 -14.246775 0
M  V30 21 C 9.659929 7.042962 -10.176084 0
M  V30 22 C 9.998145 7.983521 -9.008648 0
M  V30 23 C 10.989369 7.145514 -5.446168 0
M  V30 24 H 11.133858 6.173120 -2.960225 0
M  V30 25 H 12.872641 6.468847 -3.068351 0
M  V30 26 H 11.831347 7.608239 -2.212955 0
M  V30 27 H 12.730875 9.486176 -3.657516 0
M  V30 28 H 12.403717 10.739670 -5.787905 0
M  V30 29 H 11.176851 9.772427 -7.628325 0
M  V30 30 H 8.086004 7.143291 -7.275728 0
M  V30 31 H 9.013538 5.876036 -6.530733 0
M  V30 32 H 7.686154 4.953855 -8.353332 0
M  V30 33 H 9.396116 4.735347 -8.648193 0
M  V30 34 H 7.601616 4.400864 -10.647149 0
M  V30 35 H 9.190988 4.730143 -11.275126 0
M  V30 36 H 8.109492 6.763988 -12.520702 0
M  V30 37 H 6.561879 6.148051 -12.020645 0
M  V30 38 H 8.465851 5.008344 -13.976748 0
M  V30 39 H 5.352255 4.260989 -11.979117 0
M  V30 40 H 5.197134 0.400289 -13.457516 0
M  V30 41 H 10.527766 6.414149 -10.375502 0
M  V30 42 H 9.489810 7.638481 -11.072000 0
M  V30 43 H 9.237015 8.760961 -8.918357 0
M  V30 44 H 10.941584 8.472493 -9.251333 0
M  V30 45 H 10.646008 6.130965 -5.332115 0
M  V30 46 H 7.657865 6.776754 -9.847232 0
M  V30 END ATOM
M  V30 BEGIN BOND
M  V30 1 1 2 1
M  V30 2 1 3 2
M  V30 3 2 4 3
M  V30 4 1 5 4
M  V30 5 2 6 5
M  V30 6 1 7 6
M  V30 7 1 8 7
M  V30 8 1 9 8
M  V30 9 1 10 9
M  V30 10 1 11 10
M  V30 11 1 12 11
M  V30 12 1 13 12
M  V30 13 1 14 13
M  V30 14 2 15 14
M  V30 15 1 16 15
M  V30 16 2 17 16
M  V30 17 1 18 17
M  V30 18 1 19 18
M  V30 19 1 20 14
M  V30 20 2 20 18
M  V30 21 1 21 10
M  V30 22 1 22 7
M  V30 23 1 22 21
M  V30 24 2 23 2
M  V30 25 1 23 6
M  V30 26 1 24 1
M  V30 27 1 25 1
M  V30 28 1 26 1
M  V30 29 1 27 3
M  V30 30 1 28 4
M  V30 31 1 29 5
M  V30 32 1 30 8
M  V30 33 1 31 8
M  V30 34 1 32 9
M  V30 35 1 33 9
M  V30 36 1 34 11
M  V30 37 1 35 11
M  V30 38 1 36 12
M  V30 39 1 37 12
M  V30 40 1 38 13
M  V30 41 1 39 15
M  V30 42 1 40 17
M  V30 43 1 41 21
M  V30 44 1 42 21
M  V30 45 1 43 22
M  V30 46 1 44 22
M  V30 47 1 45 23
M  V30 48 1 46 10
M  V30 END BOND
M  V30 END CTAB
M  END
>  <b_m_subgroup_collapsed>  (615) 
0

>  <r_i_docking_score>  (615) 
-8.0791676310654594

>  <s_m_subgroup_title>  (615) 
glide-dock_SP_D22_pv

>  <s_m_subgroupid>  (615) 
glide-dock_SP_D22_pv

>  <Molecule ChEMBL ID>  (615) 
CHEMBL4165881

>  <Standard Type>  (615) 
Ki

>  <Standard Value>  (615) 
10000.0

>  <label>  (615) 
0

$$$$
CHEMBL5723014
     RDKit          3D

  0  0  0  0  0  0  0  0  0  0999 V3000
M  V30 BEGIN CTAB
M  V30 COUNTS 52 54 0 0 1
M  V30 BEGIN ATOM
M  V30 1 O 5.686801 0.707788 -14.028452 0
M  V30 2 C 6.487451 1.640831 -14.055680 0
M  V30 3 C 6.162502 2.957441 -13.446268 0
M  V30 4 C 7.063107 3.966705 -13.448029 0
M  V30 5 C 6.821675 5.327032 -12.806664 0
M  V30 6 N 7.285874 5.372374 -11.402410 0 CHG=1
M  V30 7 C 8.690454 4.977232 -11.170972 0
M  V30 8 C 9.152740 5.270165 -9.737773 0
M  V30 9 C 9.420139 6.770673 -9.524492 0
M  V30 10 N 10.282249 7.111831 -8.394434 0
M  V30 11 C 9.663013 6.718595 -7.125939 0
M  V30 12 C 10.580424 6.960226 -5.922531 0
M  V30 13 C 10.958447 8.441076 -5.826733 0
M  V30 14 C 11.521279 8.920699 -7.169151 0
M  V30 15 C 10.608414 8.553304 -8.364268 0 CFG=1
M  V30 16 C 11.239517 9.105191 -9.669305 0
M  V30 17 O 12.484193 8.502015 -9.963150 0
M  V30 18 N 8.293559 3.837941 -14.077862 0
M  V30 19 C 8.728303 2.636178 -14.636118 0
M  V30 20 C 10.033025 2.541773 -15.161719 0
M  V30 21 C 10.483981 1.324232 -15.702149 0
M  V30 22 C 9.633933 0.204100 -15.720018 0
M  V30 23 F 10.085938 -0.956464 -16.246824 0
M  V30 24 C 8.325596 0.295765 -15.197182 0
M  V30 25 C 7.860264 1.514578 -14.647887 0
M  V30 26 H 5.198382 3.072177 -12.970151 0
M  V30 27 H 5.763422 5.583221 -12.852444 0
M  V30 28 H 7.358993 6.095582 -13.362932 0
M  V30 29 H 6.689011 4.783161 -10.833867 0
M  V30 30 H 9.342920 5.486305 -11.883505 0
M  V30 31 H 8.800457 3.911706 -11.372550 0
M  V30 32 H 10.077190 4.720945 -9.555578 0
M  V30 33 H 8.426979 4.888851 -9.015059 0
M  V30 34 H 8.486427 7.318730 -9.454544 0
M  V30 35 H 9.896451 7.098184 -10.442825 0
M  V30 36 H 8.720838 7.251972 -6.985156 0
M  V30 37 H 9.414622 5.659451 -7.143206 0
M  V30 38 H 10.085523 6.630021 -5.008373 0
M  V30 39 H 11.481866 6.352916 -6.022214 0
M  V30 40 H 10.086455 9.038226 -5.567239 0
M  V30 41 H 11.687046 8.598091 -5.031104 0
M  V30 42 H 12.499298 8.474891 -7.323529 0
M  V30 43 H 11.681389 9.998325 -7.118551 0
M  V30 44 H 9.674073 9.098014 -8.224278 0
M  V30 45 H 11.395860 10.173299 -9.563272 0
M  V30 46 H 10.576719 9.014873 -10.529020 0
M  V30 47 H 13.141180 9.193883 -9.984969 0
M  V30 48 H 8.935034 4.620044 -14.098259 0
M  V30 49 H 10.694541 3.397104 -15.148931 0
M  V30 50 H 11.486099 1.248009 -16.100401 0
M  V30 51 H 7.688405 -0.576870 -15.212520 0
M  V30 52 H 7.141260 6.323888 -11.054829 0
M  V30 END ATOM
M  V30 BEGIN BOND
M  V30 1 2 2 1
M  V30 2 1 3 2
M  V30 3 2 4 3
M  V30 4 1 5 4
M  V30 5 1 6 5
M  V30 6 1 7 6
M  V30 7 1 8 7
M  V30 8 1 9 8
M  V30 9 1 10 9
M  V30 10 1 11 10
M  V30 11 1 12 11
M  V30 12 1 13 12
M  V30 13 1 14 13
M  V30 14 1 15 10
M  V30 15 1 15 14
M  V30 16 1 16 15
M  V30 17 1 17 16
M  V30 18 1 18 4
M  V30 19 1 19 18
M  V30 20 2 20 19
M  V30 21 1 21 20
M  V30 22 2 22 21
M  V30 23 1 23 22
M  V30 24 1 24 22
M  V30 25 1 25 2
M  V30 26 1 25 19
M  V30 27 2 25 24
M  V30 28 1 26 3
M  V30 29 1 27 5
M  V30 30 1 28 5
M  V30 31 1 29 6
M  V30 32 1 30 7
M  V30 33 1 31 7
M  V30 34 1 32 8
M  V30 35 1 33 8
M  V30 36 1 34 9
M  V30 37 1 35 9
M  V30 38 1 36 11
M  V30 39 1 37 11
M  V30 40 1 38 12
M  V30 41 1 39 12
M  V30 42 1 40 13
M  V30 43 1 41 13
M  V30 44 1 42 14
M  V30 45 1 43 14
M  V30 46 1 15 44 CFG=1
M  V30 47 1 45 16
M  V30 48 1 46 16
M  V30 49 1 47 17
M  V30 50 1 48 18
M  V30 51 1 49 20
M  V30 52 1 50 21
M  V30 53 1 51 24
M  V30 54 1 52 6
M  V30 END BOND
M  V30 END CTAB
M  END
>  <b_m_subgroup_collapsed>  (616) 
0

>  <r_i_docking_score>  (616) 
-8.0786354938830094

>  <s_m_subgroup_title>  (616) 
glide-dock_SP_D22_pv

>  <s_m_subgroupid>  (616) 
glide-dock_SP_D22_pv

>  <Molecule ChEMBL ID>  (616) 
CHEMBL5723014

>  <Standard Type>  (616) 
Ki

>  <Standard Value>  (616) 
10000.0

>  <label>  (616) 
0

$$$$
CHEMBL29649
     RDKit          3D

  0  0  0  0  0  0  0  0  0  0999 V3000
M  V30 BEGIN CTAB
M  V30 COUNTS 59 62 0 0 1
M  V30 BEGIN ATOM
M  V30 1 C 12.924805 5.134928 -15.594165 0
M  V30 2 C 11.417633 4.936907 -15.426282 0
M  V30 3 O 11.185304 4.238970 -14.209366 0
M  V30 4 C 9.854802 4.029758 -13.946607 0
M  V30 5 C 9.105489 4.946632 -13.157652 0
M  V30 6 C 9.738219 6.172103 -12.538776 0
M  V30 7 O 10.886129 6.528076 -12.814543 0
M  V30 8 N 8.977450 6.850328 -11.663095 0
M  V30 9 C 9.368281 8.063024 -10.960458 0
M  V30 10 C 10.654786 7.865968 -10.135029 0
M  V30 11 N 10.528162 8.491343 -8.825637 0
M  V30 12 C 9.826872 7.552107 -7.932549 0
M  V30 13 C 9.662513 8.145290 -6.523044 0
M  V30 14 N 10.938470 8.644738 -6.037852 0
M  V30 15 C 11.408657 8.367101 -4.756033 0
M  V30 16 C 11.583250 7.034548 -4.322128 0
M  V30 17 C 12.088377 6.783689 -3.033123 0
M  V30 18 C 12.439451 7.852253 -2.191966 0
M  V30 19 C 12.241073 9.177214 -2.611504 0
M  V30 20 C 11.725989 9.431866 -3.892232 0
M  V30 21 C 11.735702 9.466695 -6.934229 0
M  V30 22 C 11.863371 8.750400 -8.287576 0
M  V30 23 C 7.731296 4.690382 -12.954230 0
M  V30 24 C 7.113370 3.544728 -13.477886 0
M  V30 25 Br 5.287270 3.255158 -13.041387 0
M  V30 26 C 7.858804 2.621540 -14.246017 0
M  V30 27 C 7.260749 1.452455 -14.763317 0
M  V30 28 C 8.030091 0.512997 -15.475796 0
M  V30 29 C 9.403205 0.734632 -15.669954 0
M  V30 30 C 10.004844 1.904090 -15.170325 0
M  V30 31 C 9.241302 2.859287 -14.459002 0
M  V30 32 H 13.149166 5.689003 -16.505665 0
M  V30 33 H 13.335773 5.692027 -14.751743 0
M  V30 34 H 13.436157 4.173133 -15.648726 0
M  V30 35 H 11.019426 4.377493 -16.275267 0
M  V30 36 H 10.914049 5.905621 -15.411337 0
M  V30 37 H 8.041043 6.518384 -11.462321 0
M  V30 38 H 8.530396 8.371374 -10.335824 0
M  V30 39 H 9.503332 8.869911 -11.681939 0
M  V30 40 H 11.477759 8.316916 -10.693419 0
M  V30 41 H 10.910748 6.809268 -10.024064 0
M  V30 42 H 10.380288 6.614431 -7.867342 0
M  V30 43 H 8.842104 7.307567 -8.334482 0
M  V30 44 H 9.264223 7.383583 -5.852501 0
M  V30 45 H 8.939412 8.962411 -6.539904 0
M  V30 46 H 11.333721 6.209179 -4.972379 0
M  V30 47 H 12.230705 5.770947 -2.695507 0
M  V30 48 H 12.856906 7.661111 -1.215839 0
M  V30 49 H 12.482809 9.994349 -1.951788 0
M  V30 50 H 11.572158 10.454084 -4.207446 0
M  V30 51 H 11.267939 10.443211 -7.045981 0
M  V30 52 H 12.727529 9.640533 -6.517352 0
M  V30 53 H 12.420070 7.820552 -8.172256 0
M  V30 54 H 12.425026 9.370399 -8.982244 0
M  V30 55 H 7.113829 5.351264 -12.366665 0
M  V30 56 H 6.211392 1.247774 -14.614019 0
M  V30 57 H 7.565125 -0.384358 -15.859350 0
M  V30 58 H 9.996000 0.006815 -16.203039 0
M  V30 59 H 11.064141 2.046370 -15.322562 0
M  V30 END ATOM
M  V30 BEGIN BOND
M  V30 1 1 2 1
M  V30 2 1 3 2
M  V30 3 1 4 3
M  V30 4 2 5 4
M  V30 5 1 6 5
M  V30 6 2 7 6
M  V30 7 1 8 6
M  V30 8 1 9 8
M  V30 9 1 10 9
M  V30 10 1 11 10
M  V30 11 1 12 11
M  V30 12 1 13 12
M  V30 13 1 14 13
M  V30 14 1 15 14
M  V30 15 2 16 15
M  V30 16 1 17 16
M  V30 17 2 18 17
M  V30 18 1 19 18
M  V30 19 1 20 15
M  V30 20 2 20 19
M  V30 21 1 21 14
M  V30 22 1 22 11
M  V30 23 1 22 21
M  V30 24 1 23 5
M  V30 25 2 24 23
M  V30 26 1 25 24
M  V30 27 1 26 24
M  V30 28 2 27 26
M  V30 29 1 28 27
M  V30 30 2 29 28
M  V30 31 1 30 29
M  V30 32 1 31 4
M  V30 33 1 31 26
M  V30 34 2 31 30
M  V30 35 1 32 1
M  V30 36 1 33 1
M  V30 37 1 34 1
M  V30 38 1 35 2
M  V30 39 1 36 2
M  V30 40 1 37 8
M  V30 41 1 38 9
M  V30 42 1 39 9
M  V30 43 1 40 10
M  V30 44 1 41 10
M  V30 45 1 42 12
M  V30 46 1 43 12
M  V30 47 1 44 13
M  V30 48 1 45 13
M  V30 49 1 46 16
M  V30 50 1 47 17
M  V30 51 1 48 18
M  V30 52 1 49 19
M  V30 53 1 50 20
M  V30 54 1 51 21
M  V30 55 1 52 21
M  V30 56 1 53 22
M  V30 57 1 54 22
M  V30 58 1 55 23
M  V30 59 1 56 27
M  V30 60 1 57 28
M  V30 61 1 58 29
M  V30 62 1 59 30
M  V30 END BOND
M  V30 END CTAB
M  END
>  <b_m_subgroup_collapsed>  (617) 
0

>  <r_i_docking_score>  (617) 
-8.0776508711014703

>  <s_m_subgroup_title>  (617) 
glide-dock_SP_D22_pv

>  <s_m_subgroupid>  (617) 
glide-dock_SP_D22_pv

>  <Molecule ChEMBL ID>  (617) 
CHEMBL29649

>  <Standard Type>  (617) 
Ki

>  <Standard Value>  (617) 
10000.0

>  <label>  (617) 
0

$$$$
CHEMBL1833977
     RDKit          3D

  0  0  0  0  0  0  0  0  0  0999 V3000
M  V30 BEGIN CTAB
M  V30 COUNTS 56 59 0 0 1
M  V30 BEGIN ATOM
M  V30 1 C 5.432231 -1.029400 -14.361853 0
M  V30 2 O 5.038498 0.097093 -13.585120 0
M  V30 3 C 5.789741 1.247592 -13.704515 0
M  V30 4 C 5.370697 2.377201 -12.965696 0
M  V30 5 C 6.086019 3.591088 -13.032526 0
M  V30 6 C 7.233631 3.693554 -13.846344 0
M  V30 7 C 8.028482 4.993342 -13.903589 0
M  V30 8 C 9.457944 4.861534 -13.370616 0
M  V30 9 C 9.520871 4.548996 -11.868142 0
M  V30 10 N 9.258012 5.674731 -10.970434 0
M  V30 11 C 10.120572 6.840591 -11.194298 0
M  V30 12 C 9.789042 7.956284 -10.185679 0
M  V30 13 N 9.949852 7.462170 -8.796078 0 CHG=1
M  V30 14 C 9.728946 8.513882 -7.779101 0
M  V30 15 C 10.463207 8.251190 -6.500707 0
M  V30 16 C 10.950497 7.099678 -5.920605 0
M  V30 17 C 11.485769 7.489102 -4.648794 0
M  V30 18 C 12.079241 6.847709 -3.537596 0
M  V30 19 C 12.460225 7.579379 -2.397774 0
M  V30 20 C 12.268361 8.973042 -2.347465 0
M  V30 21 C 11.688028 9.640965 -3.442543 0
M  V30 22 C 11.310685 8.893187 -4.566385 0
M  V30 23 O 10.698788 9.347742 -5.713982 0
M  V30 24 C 9.086902 6.274695 -8.596738 0
M  V30 25 C 9.452536 5.181693 -9.603737 0
M  V30 26 C 7.649086 2.572372 -14.596756 0
M  V30 27 C 6.939094 1.360577 -14.522456 0
M  V30 28 H 4.701041 -1.826684 -14.245062 0
M  V30 29 H 5.474854 -0.792340 -15.427006 0
M  V30 30 H 6.397674 -1.415145 -14.036709 0
M  V30 31 H 4.497826 2.309427 -12.336202 0
M  V30 32 H 5.757753 4.434848 -12.444322 0
M  V30 33 H 8.086109 5.342686 -14.933398 0
M  V30 34 H 7.501052 5.771710 -13.350819 0
M  V30 35 H 9.957039 4.056857 -13.909073 0
M  V30 36 H 10.034204 5.749901 -13.618629 0
M  V30 37 H 8.795920 3.770642 -11.647239 0
M  V30 38 H 10.485765 4.115159 -11.646924 0
M  V30 39 H 11.173071 6.572458 -11.125394 0
M  V30 40 H 9.956352 7.238659 -12.195333 0
M  V30 41 H 10.459646 8.799737 -10.357196 0
M  V30 42 H 8.774442 8.323981 -10.343348 0
M  V30 43 H 10.083197 9.463023 -8.175274 0
M  V30 44 H 8.660511 8.644661 -7.585173 0
M  V30 45 H 10.918709 6.088102 -6.294911 0
M  V30 46 H 12.208594 5.776435 -3.550023 0
M  V30 47 H 12.885721 7.064999 -1.548077 0
M  V30 48 H 12.552258 9.528825 -1.463487 0
M  V30 49 H 11.513727 10.701983 -3.402575 0
M  V30 50 H 9.165665 5.887114 -7.582806 0
M  V30 51 H 8.056705 6.565203 -8.740236 0
M  V30 52 H 8.813079 4.314525 -9.431083 0
M  V30 53 H 10.484718 4.861015 -9.447163 0
M  V30 54 H 8.525080 2.636735 -15.226154 0
M  V30 55 H 7.305514 0.525443 -15.101878 0
M  V30 56 H 10.907165 7.163846 -8.698635 0
M  V30 END ATOM
M  V30 BEGIN BOND
M  V30 1 1 2 1
M  V30 2 1 3 2
M  V30 3 1 4 3
M  V30 4 2 5 4
M  V30 5 1 6 5
M  V30 6 1 7 6
M  V30 7 1 8 7
M  V30 8 1 9 8
M  V30 9 1 10 9
M  V30 10 1 11 10
M  V30 11 1 12 11
M  V30 12 1 13 12
M  V30 13 1 14 13
M  V30 14 1 15 14
M  V30 15 2 16 15
M  V30 16 1 17 16
M  V30 17 2 18 17
M  V30 18 1 19 18
M  V30 19 2 20 19
M  V30 20 1 21 20
M  V30 21 1 22 17
M  V30 22 2 22 21
M  V30 23 1 23 15
M  V30 24 1 23 22
M  V30 25 1 24 13
M  V30 26 1 25 10
M  V30 27 1 25 24
M  V30 28 2 26 6
M  V30 29 2 27 3
M  V30 30 1 27 26
M  V30 31 1 28 1
M  V30 32 1 29 1
M  V30 33 1 30 1
M  V30 34 1 31 4
M  V30 35 1 32 5
M  V30 36 1 33 7
M  V30 37 1 34 7
M  V30 38 1 35 8
M  V30 39 1 36 8
M  V30 40 1 37 9
M  V30 41 1 38 9
M  V30 42 1 39 11
M  V30 43 1 40 11
M  V30 44 1 41 12
M  V30 45 1 42 12
M  V30 46 1 43 14
M  V30 47 1 44 14
M  V30 48 1 45 16
M  V30 49 1 46 18
M  V30 50 1 47 19
M  V30 51 1 48 20
M  V30 52 1 49 21
M  V30 53 1 50 24
M  V30 54 1 51 24
M  V30 55 1 52 25
M  V30 56 1 53 25
M  V30 57 1 54 26
M  V30 58 1 55 27
M  V30 59 1 56 13
M  V30 END BOND
M  V30 END CTAB
M  END
>  <b_m_subgroup_collapsed>  (618) 
0

>  <r_i_docking_score>  (618) 
-8.0772086119649504

>  <s_m_subgroup_title>  (618) 
glide-dock_SP_D22_pv

>  <s_m_subgroupid>  (618) 
glide-dock_SP_D22_pv

>  <Molecule ChEMBL ID>  (618) 
CHEMBL1833977

>  <Standard Type>  (618) 
Ki

>  <Standard Value>  (618) 
10000.0

>  <label>  (618) 
0

$$$$
CHEMBL4436589
     RDKit          3D

  0  0  0  0  0  0  0  0  0  0999 V3000
M  V30 BEGIN CTAB
M  V30 COUNTS 58 61 0 0 1
M  V30 BEGIN ATOM
M  V30 1 C 9.142892 8.666018 -10.782414 0
M  V30 2 C 9.922629 8.773113 -9.457109 0 CFG=1
M  V30 3 C 8.913334 8.568120 -8.306502 0
M  V30 4 O 9.544388 8.750505 -7.049634 0
M  V30 5 C 10.623413 7.851561 -6.837755 0 CFG=2
M  V30 6 C 11.219859 8.081876 -5.464250 0
M  V30 7 C 11.570358 7.005937 -4.622266 0
M  V30 8 C 12.086114 7.286981 -3.341886 0
M  V30 9 C 12.237915 8.636158 -2.967337 0
M  V30 10 N 12.756662 8.971496 -1.722304 0
M  V30 11 N 11.918943 9.668678 -3.767420 0
M  V30 12 C 11.425585 9.393247 -4.992380 0
M  V30 13 C 11.653247 8.064693 -7.965025 0
M  V30 14 N 11.090608 7.881635 -9.302839 0
M  V30 15 C 12.153019 8.090367 -10.292791 0
M  V30 16 C 11.836080 7.501432 -11.649969 0
M  V30 17 C 12.654825 7.531893 -12.712315 0
M  V30 18 C 12.292014 7.025804 -14.093395 0
M  V30 19 O 12.498112 5.627614 -14.248956 0
M  V30 20 C 11.411659 4.783803 -14.318318 0
M  V30 21 C 10.129164 5.076006 -13.790443 0
M  V30 22 C 9.072098 4.157110 -13.915147 0
M  V30 23 C 9.282944 2.929910 -14.569858 0
M  V30 24 C 10.559491 2.624329 -15.090838 0
M  V30 25 C 11.616180 3.548590 -14.964472 0
M  V30 26 N 10.777527 1.399184 -15.764499 0
M  V30 27 C 9.912369 0.374475 -15.753490 0
M  V30 28 O 10.086671 -0.630431 -16.433867 0
M  V30 29 C 8.687032 0.492221 -14.840055 0
M  V30 30 C 8.153891 1.933439 -14.756370 0
M  V30 31 H 8.262690 9.309535 -10.769582 0
M  V30 32 H 9.726521 8.971355 -11.646009 0
M  V30 33 H 8.800124 7.644246 -10.955596 0
M  V30 34 H 10.282469 9.796526 -9.394123 0
M  V30 35 H 8.486619 7.564198 -8.353091 0
M  V30 36 H 8.088516 9.276817 -8.378320 0
M  V30 37 H 10.241953 6.829484 -6.877835 0
M  V30 38 H 11.430098 5.982590 -4.941799 0
M  V30 39 H 12.350531 6.483748 -2.672187 0
M  V30 40 H 13.085949 8.266864 -1.082060 0
M  V30 41 H 13.058016 9.924006 -1.551642 0
M  V30 42 H 11.174229 10.247041 -5.605174 0
M  V30 43 H 12.483663 7.373198 -7.833367 0
M  V30 44 H 12.076599 9.068027 -7.874048 0
M  V30 45 H 13.079748 7.634246 -9.949152 0
M  V30 46 H 12.361404 9.152610 -10.398688 0
M  V30 47 H 10.865160 7.038877 -11.739469 0
M  V30 48 H 13.644199 7.958390 -12.604455 0
M  V30 49 H 11.286030 7.328857 -14.356555 0
M  V30 50 H 12.936191 7.537527 -14.808893 0
M  V30 51 H 9.923136 6.007402 -13.291692 0
M  V30 52 H 8.101662 4.404046 -13.513808 0
M  V30 53 H 12.588646 3.321728 -15.377178 0
M  V30 54 H 11.631350 1.295809 -16.291275 0
M  V30 55 H 7.901405 -0.194636 -15.163656 0
M  V30 56 H 8.999970 0.170319 -13.847728 0
M  V30 57 H 7.450189 2.020738 -13.926305 0
M  V30 58 H 7.608013 2.189180 -15.664460 0
M  V30 END ATOM
M  V30 BEGIN BOND
M  V30 1 1 2 1
M  V30 2 1 3 2
M  V30 3 1 4 3
M  V30 4 1 5 4
M  V30 5 1 6 5
M  V30 6 1 7 6
M  V30 7 2 8 7
M  V30 8 1 9 8
M  V30 9 1 10 9
M  V30 10 2 11 9
M  V30 11 2 12 6
M  V30 12 1 12 11
M  V30 13 1 13 5
M  V30 14 1 14 2
M  V30 15 1 14 13
M  V30 16 1 15 14
M  V30 17 1 16 15
M  V30 18 2 17 16
M  V30 19 1 18 17
M  V30 20 1 19 18
M  V30 21 1 20 19
M  V30 22 1 21 20
M  V30 23 2 22 21
M  V30 24 1 23 22
M  V30 25 2 24 23
M  V30 26 2 25 20
M  V30 27 1 25 24
M  V30 28 1 26 24
M  V30 29 1 27 26
M  V30 30 2 28 27
M  V30 31 1 29 27
M  V30 32 1 30 23
M  V30 33 1 30 29
M  V30 34 1 31 1
M  V30 35 1 32 1
M  V30 36 1 33 1
M  V30 37 1 2 34 CFG=1
M  V30 38 1 35 3
M  V30 39 1 36 3
M  V30 40 1 5 37 CFG=1
M  V30 41 1 38 7
M  V30 42 1 39 8
M  V30 43 1 40 10
M  V30 44 1 41 10
M  V30 45 1 42 12
M  V30 46 1 43 13
M  V30 47 1 44 13
M  V30 48 1 45 15
M  V30 49 1 46 15
M  V30 50 1 47 16
M  V30 51 1 48 17
M  V30 52 1 49 18
M  V30 53 1 50 18
M  V30 54 1 51 21
M  V30 55 1 52 22
M  V30 56 1 53 25
M  V30 57 1 54 26
M  V30 58 1 55 29
M  V30 59 1 56 29
M  V30 60 1 57 30
M  V30 61 1 58 30
M  V30 END BOND
M  V30 END CTAB
M  END
>  <b_m_subgroup_collapsed>  (619) 
0

>  <r_i_docking_score>  (619) 
-8.0749025796722993

>  <s_m_subgroup_title>  (619) 
glide-dock_SP_D22_pv

>  <s_m_subgroupid>  (619) 
glide-dock_SP_D22_pv

>  <Molecule ChEMBL ID>  (619) 
CHEMBL4436589

>  <Standard Type>  (619) 
Ki

>  <Standard Value>  (619) 
21100.0

>  <label>  (619) 
0

$$$$
CHEMBL3818994
     RDKit          3D

  0  0  0  0  0  0  0  0  0  0999 V3000
M  V30 BEGIN CTAB
M  V30 COUNTS 43 45 0 0 1
M  V30 BEGIN ATOM
M  V30 1 O 10.326223 8.964533 -7.488018 0
M  V30 2 C 10.275960 8.074310 -6.638779 0
M  V30 3 C 9.358274 6.864850 -6.869345 0
M  V30 4 C 9.644361 6.128203 -8.190651 0
M  V30 5 C 8.668977 6.546650 -9.304118 0
M  V30 6 N 9.043534 5.984878 -10.622497 0 CFG=1 CHG=1
M  V30 7 C 7.900221 5.762962 -11.541046 0
M  V30 8 C 8.331920 4.819866 -12.671061 0
M  V30 9 C 9.642297 5.249034 -13.305965 0
M  V30 10 C 10.035295 4.702122 -14.546163 0
M  V30 11 C 11.253139 5.089688 -15.137297 0
M  V30 12 C 12.084277 6.026428 -14.490277 0
M  V30 13 C 11.693095 6.572619 -13.253376 0
M  V30 14 C 10.485724 6.177283 -12.646878 0
M  V30 15 C 10.095730 6.778173 -11.303829 0
M  V30 16 C 11.009978 8.140519 -5.343150 0
M  V30 17 C 11.445392 6.974773 -4.666868 0
M  V30 18 C 12.086013 7.068380 -3.415102 0
M  V30 19 C 12.303144 8.326147 -2.824930 0
M  V30 20 F 12.885662 8.417172 -1.606934 0
M  V30 21 C 11.912874 9.490243 -3.506447 0
M  V30 22 C 11.287229 9.402721 -4.766932 0
M  V30 23 H 8.326018 7.215744 -6.853914 0
M  V30 24 H 9.433232 6.173558 -6.036184 0
M  V30 25 H 9.552892 5.053950 -8.028528 0
M  V30 26 H 10.680202 6.291435 -8.491722 0
M  V30 27 H 8.582668 7.633185 -9.368011 0
M  V30 28 H 7.686235 6.170281 -9.027388 0
M  V30 29 H 7.565860 6.720987 -11.945780 0
M  V30 30 H 7.037735 5.326430 -11.038473 0
M  V30 31 H 7.552686 4.769601 -13.435262 0
M  V30 32 H 8.460154 3.808410 -12.283139 0
M  V30 33 H 9.401278 3.985110 -15.049056 0
M  V30 34 H 11.552284 4.670635 -16.086161 0
M  V30 35 H 13.017223 6.328924 -14.943136 0
M  V30 36 H 12.342247 7.286169 -12.763281 0
M  V30 37 H 10.981730 6.848350 -10.674108 0
M  V30 38 H 9.743700 7.797329 -11.470473 0
M  V30 39 H 11.289047 5.993461 -5.088899 0
M  V30 40 H 12.399912 6.168528 -2.901332 0
M  V30 41 H 12.084561 10.452372 -3.046377 0
M  V30 42 H 10.986563 10.311145 -5.269119 0
M  V30 43 H 9.423035 5.067325 -10.441746 0
M  V30 END ATOM
M  V30 BEGIN BOND
M  V30 1 2 2 1
M  V30 2 1 3 2
M  V30 3 1 4 3
M  V30 4 1 5 4
M  V30 5 1 6 5
M  V30 6 1 7 6
M  V30 7 1 8 7
M  V30 8 1 9 8
M  V30 9 2 10 9
M  V30 10 1 11 10
M  V30 11 2 12 11
M  V30 12 1 13 12
M  V30 13 1 14 9
M  V30 14 2 14 13
M  V30 15 1 15 6
M  V30 16 1 15 14
M  V30 17 1 16 2
M  V30 18 1 17 16
M  V30 19 2 18 17
M  V30 20 1 19 18
M  V30 21 1 20 19
M  V30 22 2 21 19
M  V30 23 2 22 16
M  V30 24 1 22 21
M  V30 25 1 23 3
M  V30 26 1 24 3
M  V30 27 1 25 4
M  V30 28 1 26 4
M  V30 29 1 27 5
M  V30 30 1 28 5
M  V30 31 1 29 7
M  V30 32 1 30 7
M  V30 33 1 31 8
M  V30 34 1 32 8
M  V30 35 1 33 10
M  V30 36 1 34 11
M  V30 37 1 35 12
M  V30 38 1 36 13
M  V30 39 1 37 15
M  V30 40 1 38 15
M  V30 41 1 39 17
M  V30 42 1 40 18
M  V30 43 1 41 21
M  V30 44 1 42 22
M  V30 45 1 6 43 CFG=1
M  V30 END BOND
M  V30 END CTAB
M  END
>  <b_m_subgroup_collapsed>  (620) 
0

>  <r_i_docking_score>  (620) 
-8.07321227128487

>  <s_m_subgroup_title>  (620) 
glide-dock_SP_D22_pv

>  <s_m_subgroupid>  (620) 
glide-dock_SP_D22_pv

>  <Molecule ChEMBL ID>  (620) 
CHEMBL3818994

>  <Standard Type>  (620) 
Ki

>  <Standard Value>  (620) 
49.0

>  <label>  (620) 
1

$$$$
CHEMBL4085282
     RDKit          3D

  0  0  0  0  0  0  0  0  0  0999 V3000
M  V30 BEGIN CTAB
M  V30 COUNTS 72 75 0 0 1
M  V30 BEGIN ATOM
M  V30 1 C 3.684762 -2.688038 -18.854759 0
M  V30 2 N 4.486087 -3.211431 -17.726082 0 CHG=1
M  V30 3 C 5.101595 -2.211677 -16.822445 0 CFG=2
M  V30 4 C 4.054311 -1.453159 -15.966378 0
M  V30 5 C 4.674684 -0.424418 -15.027491 0
M  V30 6 C 4.162689 0.159563 -13.847452 0
M  V30 7 C 4.886799 1.202082 -13.198017 0
M  V30 8 C 6.110634 1.686659 -13.720537 0
M  V30 9 C 6.633459 1.098020 -14.886527 0
M  V30 10 C 5.895326 0.098246 -15.469320 0
M  V30 11 N 6.597496 -0.256230 -16.625742 0
M  V30 12 C 7.717583 0.498306 -16.737465 0
M  V30 13 O 8.531386 0.449514 -17.659182 0
M  V30 14 N 7.759714 1.344800 -15.679603 0
M  V30 15 C 8.723186 2.412656 -15.434381 0
M  V30 16 C 10.026210 1.881966 -14.808012 0
M  V30 17 O 10.736503 2.914349 -14.136214 0
M  V30 18 C 11.313404 3.899511 -14.980312 0
M  V30 19 C 11.923479 5.003143 -14.108497 0
M  V30 20 O 10.878554 5.697222 -13.441470 0
M  V30 21 C 11.325880 6.860786 -12.762213 0
M  V30 22 C 10.246926 7.355693 -11.783181 0
M  V30 23 O 10.278738 6.573328 -10.598275 0
M  V30 24 C 9.528880 7.128584 -9.527686 0
M  V30 25 C 9.628144 6.199836 -8.303084 0
M  V30 26 C 9.652347 6.931939 -6.946733 0
M  V30 27 C 10.946204 7.742191 -6.737813 0
M  V30 28 C 11.286901 8.013884 -5.283514 0
M  V30 29 C 11.286724 9.331205 -4.776346 0
M  V30 30 C 11.686524 9.569992 -3.445978 0
M  V30 31 C 12.085990 8.503999 -2.618841 0
M  V30 32 C 12.085964 7.189158 -3.119334 0
M  V30 33 C 11.685728 6.949302 -4.447314 0
M  V30 34 C 6.091872 -1.265185 -17.546459 0
M  V30 35 H 3.211039 -3.520967 -19.377426 0
M  V30 36 H 2.888889 -2.022257 -18.516397 0
M  V30 37 H 4.305689 -2.155327 -19.576252 0
M  V30 38 H 5.205342 -3.819966 -18.086859 0
M  V30 39 H 5.685816 -2.801514 -16.115803 0
M  V30 40 H 3.459795 -2.157940 -15.384747 0
M  V30 41 H 3.353417 -0.911569 -16.603437 0
M  V30 42 H 3.208283 -0.158078 -13.454774 0
M  V30 43 H 4.486197 1.676110 -12.315164 0
M  V30 44 H 6.624321 2.504230 -13.234128 0
M  V30 45 H 8.273852 3.149154 -14.769380 0
M  V30 46 H 8.930113 2.929950 -16.372635 0
M  V30 47 H 10.657492 1.390519 -15.551971 0
M  V30 48 H 9.783133 1.129269 -14.055991 0
M  V30 49 H 10.578175 4.339588 -15.655187 0
M  V30 50 H 12.088086 3.436790 -15.593746 0
M  V30 51 H 12.481243 5.695448 -14.741236 0
M  V30 52 H 12.626836 4.580963 -13.387929 0
M  V30 53 H 11.532648 7.630275 -13.507779 0
M  V30 54 H 12.263366 6.679535 -12.236482 0
M  V30 55 H 9.255631 7.330388 -12.238089 0
M  V30 56 H 10.459348 8.392610 -11.524780 0
M  V30 57 H 8.486041 7.252608 -9.811261 0
M  V30 58 H 9.923737 8.117314 -9.297832 0
M  V30 59 H 10.525449 5.584103 -8.379190 0
M  V30 60 H 8.792089 5.498956 -8.326023 0
M  V30 61 H 9.578701 6.174059 -6.168511 0
M  V30 62 H 8.773408 7.568409 -6.827112 0
M  V30 63 H 10.894893 8.685704 -7.283214 0
M  V30 64 H 11.792035 7.197939 -7.160605 0
M  V30 65 H 10.992682 10.161321 -5.403969 0
M  V30 66 H 11.684048 10.574370 -3.050990 0
M  V30 67 H 12.384842 8.696954 -1.598809 0
M  V30 68 H 12.388345 6.365151 -2.487478 0
M  V30 69 H 11.697779 5.939605 -4.829469 0
M  V30 70 H 5.605812 -0.735227 -18.366209 0
M  V30 71 H 6.922492 -1.830256 -17.971441 0
M  V30 72 H 3.846395 -3.777073 -17.152609 0
M  V30 END ATOM
M  V30 BEGIN BOND
M  V30 1 1 2 1
M  V30 2 1 3 2
M  V30 3 1 4 3
M  V30 4 1 5 4
M  V30 5 1 6 5
M  V30 6 2 7 6
M  V30 7 1 8 7
M  V30 8 2 9 8
M  V30 9 2 10 5
M  V30 10 1 10 9
M  V30 11 1 11 10
M  V30 12 1 12 11
M  V30 13 2 13 12
M  V30 14 1 14 9
M  V30 15 1 14 12
M  V30 16 1 15 14
M  V30 17 1 16 15
M  V30 18 1 17 16
M  V30 19 1 18 17
M  V30 20 1 19 18
M  V30 21 1 20 19
M  V30 22 1 21 20
M  V30 23 1 22 21
M  V30 24 1 23 22
M  V30 25 1 24 23
M  V30 26 1 25 24
M  V30 27 1 26 25
M  V30 28 1 27 26
M  V30 29 1 28 27
M  V30 30 2 29 28
M  V30 31 1 30 29
M  V30 32 2 31 30
M  V30 33 1 32 31
M  V30 34 1 33 28
M  V30 35 2 33 32
M  V30 36 1 34 3
M  V30 37 1 34 11
M  V30 38 1 35 1
M  V30 39 1 36 1
M  V30 40 1 37 1
M  V30 41 1 38 2
M  V30 42 1 3 39 CFG=1
M  V30 43 1 40 4
M  V30 44 1 41 4
M  V30 45 1 42 6
M  V30 46 1 43 7
M  V30 47 1 44 8
M  V30 48 1 45 15
M  V30 49 1 46 15
M  V30 50 1 47 16
M  V30 51 1 48 16
M  V30 52 1 49 18
M  V30 53 1 50 18
M  V30 54 1 51 19
M  V30 55 1 52 19
M  V30 56 1 53 21
M  V30 57 1 54 21
M  V30 58 1 55 22
M  V30 59 1 56 22
M  V30 60 1 57 24
M  V30 61 1 58 24
M  V30 62 1 59 25
M  V30 63 1 60 25
M  V30 64 1 61 26
M  V30 65 1 62 26
M  V30 66 1 63 27
M  V30 67 1 64 27
M  V30 68 1 65 29
M  V30 69 1 66 30
M  V30 70 1 67 31
M  V30 71 1 68 32
M  V30 72 1 69 33
M  V30 73 1 70 34
M  V30 74 1 71 34
M  V30 75 1 72 2
M  V30 END BOND
M  V30 END CTAB
M  END
>  <b_m_subgroup_collapsed>  (621) 
0

>  <r_i_docking_score>  (621) 
-8.0729039392154096

>  <s_m_subgroup_title>  (621) 
glide-dock_SP_D22_pv

>  <s_m_subgroupid>  (621) 
glide-dock_SP_D22_pv

>  <Molecule ChEMBL ID>  (621) 
CHEMBL4085282

>  <Standard Type>  (621) 
Ki

>  <Standard Value>  (621) 
34.7

>  <label>  (621) 
1

$$$$
CHEMBL4472703
     RDKit          3D

  0  0  0  0  0  0  0  0  0  0999 V3000
M  V30 BEGIN CTAB
M  V30 COUNTS 38 39 0 0 1
M  V30 BEGIN ATOM
M  V30 1 C 9.186056 4.465014 -8.646974 0
M  V30 2 C 10.313747 5.497154 -8.473341 0
M  V30 3 C 9.836950 6.908993 -8.067327 0 CFG=1
M  V30 4 C 10.767778 7.559000 -7.030249 0
M  V30 5 C 10.826786 7.071952 -5.701588 0
M  V30 6 C 11.569047 7.741734 -4.702170 0
M  V30 7 O 11.674780 7.151911 -3.460045 0
M  V30 8 C 12.248077 7.918528 -2.410912 0
M  V30 9 C 12.181963 8.972387 -5.029891 0
M  V30 10 C 12.189185 9.422332 -6.357638 0
M  V30 11 C 11.547536 8.688729 -7.371232 0
M  V30 12 C 11.690941 9.164493 -8.807751 0
M  V30 13 C 10.963916 8.320380 -9.843520 0
M  V30 14 C 9.615696 7.848104 -9.293708 0 CFG=2
M  V30 15 C 8.769580 9.063032 -8.866753 0
M  V30 16 N 8.885973 7.168280 -10.372797 0 CHG=1
M  V30 17 H 9.588650 3.451877 -8.647071 0
M  V30 18 H 8.452190 4.523878 -7.847257 0
M  V30 19 H 8.646533 4.596873 -9.582483 0
M  V30 20 H 10.885813 5.539554 -9.390047 0
M  V30 21 H 11.012492 5.133654 -7.726253 0
M  V30 22 H 8.883562 6.785954 -7.550379 0
M  V30 23 H 10.289371 6.172549 -5.439285 0
M  V30 24 H 12.247643 7.347215 -1.486183 0
M  V30 25 H 13.286331 8.171330 -2.630826 0
M  V30 26 H 11.685586 8.835712 -2.236210 0
M  V30 27 H 12.729615 9.549954 -4.302474 0
M  V30 28 H 12.737223 10.318372 -6.602973 0
M  V30 29 H 11.286131 10.171093 -8.879646 0
M  V30 30 H 12.751270 9.194257 -9.045023 0
M  V30 31 H 11.591792 7.471555 -10.113156 0
M  V30 32 H 10.842739 8.902844 -10.756833 0
M  V30 33 H 9.291198 9.770867 -8.237391 0
M  V30 34 H 8.345899 9.605514 -9.714784 0
M  V30 35 H 7.983278 8.754567 -8.198683 0
M  V30 36 H 9.157160 7.540712 -11.269038 0
M  V30 37 H 9.050198 6.174200 -10.335586 0
M  V30 38 H 7.880309 7.371613 -10.247127 0
M  V30 END ATOM
M  V30 BEGIN BOND
M  V30 1 1 2 1
M  V30 2 1 3 2
M  V30 3 1 4 3
M  V30 4 1 5 4
M  V30 5 2 6 5
M  V30 6 1 7 6
M  V30 7 1 8 7
M  V30 8 1 9 6
M  V30 9 2 10 9
M  V30 10 2 11 4
M  V30 11 1 11 10
M  V30 12 1 12 11
M  V30 13 1 13 12
M  V30 14 1 14 3
M  V30 15 1 14 13
M  V30 16 1 14 15 CFG=1
M  V30 17 1 16 14
M  V30 18 1 17 1
M  V30 19 1 18 1
M  V30 20 1 19 1
M  V30 21 1 20 2
M  V30 22 1 21 2
M  V30 23 1 3 22 CFG=1
M  V30 24 1 23 5
M  V30 25 1 24 8
M  V30 26 1 25 8
M  V30 27 1 26 8
M  V30 28 1 27 9
M  V30 29 1 28 10
M  V30 30 1 29 12
M  V30 31 1 30 12
M  V30 32 1 31 13
M  V30 33 1 32 13
M  V30 34 1 33 15
M  V30 35 1 34 15
M  V30 36 1 35 15
M  V30 37 1 36 16
M  V30 38 1 37 16
M  V30 39 1 38 16
M  V30 END BOND
M  V30 END CTAB
M  END
>  <b_m_subgroup_collapsed>  (622) 
0

>  <r_i_docking_score>  (622) 
-8.0726402361470608

>  <s_m_subgroup_title>  (622) 
glide-dock_SP_D22_pv

>  <s_m_subgroupid>  (622) 
glide-dock_SP_D22_pv

>  <Molecule ChEMBL ID>  (622) 
CHEMBL4472703

>  <Standard Type>  (622) 
Ki

>  <Standard Value>  (622) 
10000.0

>  <label>  (622) 
0

$$$$
CHEMBL514747
     RDKit          3D

  0  0  0  0  0  0  0  0  0  0999 V3000
M  V30 BEGIN CTAB
M  V30 COUNTS 44 48 0 0 1
M  V30 BEGIN ATOM
M  V30 1 Cl 12.486557 8.575267 -1.469964 0
M  V30 2 C 11.916142 8.450346 -3.095786 0
M  V30 3 C 11.590242 9.619014 -3.803676 0
M  V30 4 C 11.135100 9.548443 -5.134175 0
M  V30 5 C 10.997439 8.299527 -5.773768 0
M  V30 6 N 10.618416 8.283276 -7.125725 0
M  V30 7 C 9.181813 8.242432 -7.403554 0
M  V30 8 C 9.098504 7.334601 -8.646260 0 CFG=2
M  V30 9 C 10.070396 6.249775 -8.204786 0
M  V30 10 C 11.187869 7.268661 -8.018902 0 CFG=1
M  V30 11 C 11.239959 7.823044 -9.454489 0
M  V30 12 N 9.806626 8.065043 -9.731753 0 CFG=1 CHG=1
M  V30 13 C 9.347031 7.935399 -11.137239 0
M  V30 14 C 9.230196 6.535960 -11.668585 0
M  V30 15 C 8.190680 5.666299 -11.446636 0
M  V30 16 N 8.408566 4.503560 -12.164097 0
M  V30 17 C 9.583529 4.585686 -12.874629 0
M  V30 18 N 10.110560 3.637156 -13.697953 0
M  V30 19 C 11.280683 3.982958 -14.277093 0
M  V30 20 C 11.933560 5.216871 -14.074528 0
M  V30 21 C 11.346045 6.172521 -13.222747 0
M  V30 22 C 10.123692 5.868115 -12.579155 0
M  V30 23 C 11.285592 7.120614 -5.044952 0
M  V30 24 C 11.753761 7.195364 -3.715778 0
M  V30 25 H 11.698835 10.571443 -3.312862 0
M  V30 26 H 10.912442 10.459887 -5.669451 0
M  V30 27 H 8.626537 7.814312 -6.566972 0
M  V30 28 H 8.778612 9.236096 -7.595115 0
M  V30 29 H 8.094987 6.982100 -8.883781 0
M  V30 30 H 9.767363 5.748033 -7.286639 0
M  V30 31 H 10.272137 5.501032 -8.972359 0
M  V30 32 H 12.129497 6.860338 -7.662452 0
M  V30 33 H 11.828212 8.739119 -9.538243 0
M  V30 34 H 11.656937 7.077806 -10.137104 0
M  V30 35 H 8.394507 8.453063 -11.229473 0
M  V30 36 H 10.030327 8.507166 -11.764909 0
M  V30 37 H 7.296937 5.791262 -10.849430 0
M  V30 38 H 7.776426 3.717507 -12.161886 0
M  V30 39 H 11.719595 3.240362 -14.927502 0
M  V30 40 H 12.872963 5.426165 -14.566017 0
M  V30 41 H 11.831479 7.123000 -13.059094 0
M  V30 42 H 11.178103 6.149773 -5.502334 0
M  V30 43 H 11.984403 6.288494 -3.176151 0
M  V30 44 H 9.648664 9.034757 -9.499079 0
M  V30 END ATOM
M  V30 BEGIN BOND
M  V30 1 1 2 1
M  V30 2 1 3 2
M  V30 3 2 4 3
M  V30 4 1 5 4
M  V30 5 1 6 5
M  V30 6 1 7 6
M  V30 7 1 8 7
M  V30 8 1 9 8
M  V30 9 1 10 6
M  V30 10 1 10 9
M  V30 11 1 11 10
M  V30 12 1 12 8
M  V30 13 1 12 11
M  V30 14 1 13 12
M  V30 15 1 14 13
M  V30 16 2 15 14
M  V30 17 1 16 15
M  V30 18 1 17 16
M  V30 19 2 18 17
M  V30 20 1 19 18
M  V30 21 2 20 19
M  V30 22 1 21 20
M  V30 23 1 22 14
M  V30 24 1 22 17
M  V30 25 2 22 21
M  V30 26 2 23 5
M  V30 27 2 24 2
M  V30 28 1 24 23
M  V30 29 1 25 3
M  V30 30 1 26 4
M  V30 31 1 27 7
M  V30 32 1 28 7
M  V30 33 1 8 29 CFG=3
M  V30 34 1 30 9
M  V30 35 1 31 9
M  V30 36 1 10 32 CFG=1
M  V30 37 1 33 11
M  V30 38 1 34 11
M  V30 39 1 35 13
M  V30 40 1 36 13
M  V30 41 1 37 15
M  V30 42 1 38 16
M  V30 43 1 39 19
M  V30 44 1 40 20
M  V30 45 1 41 21
M  V30 46 1 42 23
M  V30 47 1 43 24
M  V30 48 1 12 44 CFG=1
M  V30 END BOND
M  V30 END CTAB
M  END
>  <b_m_subgroup_collapsed>  (623) 
0

>  <r_i_docking_score>  (623) 
-8.0722209457870004

>  <s_m_subgroup_title>  (623) 
glide-dock_SP_D22_pv

>  <s_m_subgroupid>  (623) 
glide-dock_SP_D22_pv

>  <Molecule ChEMBL ID>  (623) 
CHEMBL514747

>  <Standard Type>  (623) 
Ki

>  <Standard Value>  (623) 
62.0

>  <label>  (623) 
1

$$$$
CHEMBL30713
     RDKit          3D

  0  0  0  0  0  0  0  0  0  0999 V3000
M  V30 BEGIN CTAB
M  V30 COUNTS 28 29 0 0 1
M  V30 BEGIN ATOM
M  V30 1 C 9.051052 5.447797 -8.325423 0
M  V30 2 C 9.371295 6.513754 -7.266285 0 CFG=2
M  V30 3 N 8.486022 7.671915 -7.446864 0 CHG=1
M  V30 4 C 10.849262 6.941517 -7.314704 0
M  V30 5 C 11.170242 8.029508 -6.333309 0
M  V30 6 C 11.208450 9.372323 -6.604935 0
M  V30 7 N 11.514407 10.063081 -5.446900 0
M  V30 8 C 11.729280 9.187324 -4.402158 0
M  V30 9 C 12.086021 9.382368 -3.056708 0
M  V30 10 C 12.261794 8.268947 -2.218473 0
M  V30 11 C 12.063399 6.972325 -2.726271 0
M  V30 12 C 11.686022 6.787143 -4.071533 0
M  V30 13 C 11.517077 7.886485 -4.944721 0
M  V30 14 H 9.706795 4.581655 -8.246864 0
M  V30 15 H 8.027384 5.088809 -8.224178 0
M  V30 16 H 9.160626 5.844467 -9.335690 0
M  V30 17 H 9.154361 6.123520 -6.273079 0
M  V30 18 H 8.714408 8.144284 -8.308726 0
M  V30 19 H 7.503173 7.372324 -7.525466 0
M  V30 20 H 11.106979 7.265460 -8.324231 0
M  V30 21 H 11.479947 6.073852 -7.115520 0
M  V30 22 H 11.041947 9.889499 -7.536773 0
M  V30 23 H 11.608556 11.068288 -5.409504 0
M  V30 24 H 12.230197 10.378381 -2.664032 0
M  V30 25 H 12.540877 8.412818 -1.184796 0
M  V30 26 H 12.189259 6.113132 -2.082289 0
M  V30 27 H 11.531775 5.784970 -4.444182 0
M  V30 28 H 8.579126 8.307474 -6.669200 0
M  V30 END ATOM
M  V30 BEGIN BOND
M  V30 1 1 2 1
M  V30 2 1 3 2
M  V30 3 1 4 2
M  V30 4 1 5 4
M  V30 5 2 6 5
M  V30 6 1 7 6
M  V30 7 1 8 7
M  V30 8 2 9 8
M  V30 9 1 10 9
M  V30 10 2 11 10
M  V30 11 1 12 11
M  V30 12 1 13 5
M  V30 13 1 13 8
M  V30 14 2 13 12
M  V30 15 1 14 1
M  V30 16 1 15 1
M  V30 17 1 16 1
M  V30 18 1 2 17 CFG=1
M  V30 19 1 18 3
M  V30 20 1 19 3
M  V30 21 1 20 4
M  V30 22 1 21 4
M  V30 23 1 22 6
M  V30 24 1 23 7
M  V30 25 1 24 9
M  V30 26 1 25 10
M  V30 27 1 26 11
M  V30 28 1 27 12
M  V30 29 1 28 3
M  V30 END BOND
M  V30 END CTAB
M  END
>  <b_m_subgroup_collapsed>  (624) 
0

>  <r_i_docking_score>  (624) 
-8.0700430688324207

>  <s_m_subgroup_title>  (624) 
glide-dock_SP_D22_pv

>  <s_m_subgroupid>  (624) 
glide-dock_SP_D22_pv

>  <Molecule ChEMBL ID>  (624) 
CHEMBL30713

>  <Standard Type>  (624) 
Ki

>  <Standard Value>  (624) 
10000.0

>  <label>  (624) 
0

$$$$
CHEMBL550849
     RDKit          3D

  0  0  0  0  0  0  0  0  0  0999 V3000
M  V30 BEGIN CTAB
M  V30 COUNTS 47 49 0 0 1
M  V30 BEGIN ATOM
M  V30 1 O 10.043728 4.511786 -13.072844 0
M  V30 2 C 8.875406 4.171945 -13.256329 0
M  V30 3 N 7.818463 4.693742 -12.618796 0
M  V30 4 C 7.857409 5.763935 -11.627273 0
M  V30 5 C 8.517231 5.297006 -10.309803 0
M  V30 6 N 8.523379 6.337615 -9.249082 0 CFG=2 CHG=1
M  V30 7 C 9.431611 7.474031 -9.543507 0
M  V30 8 C 9.317473 8.577365 -8.474612 0
M  V30 9 C 9.563342 8.068864 -7.040017 0 CFG=2
M  V30 10 C 11.054962 7.895449 -6.682485 0
M  V30 11 F 11.634138 6.973458 -7.447174 0
M  V30 12 F 11.691441 9.056258 -6.846238 0
M  V30 13 F 11.177584 7.537917 -5.403308 0
M  V30 14 C 8.720922 6.805630 -6.784721 0
M  V30 15 C 8.806443 5.762095 -7.911308 0
M  V30 16 C 6.561553 4.068999 -12.982000 0
M  V30 17 C 7.006079 2.977821 -13.948191 0
M  V30 18 N 8.436958 3.223494 -14.105553 0
M  V30 19 C 9.267815 2.401289 -14.918137 0
M  V30 20 C 9.073273 1.001778 -14.918010 0
M  V30 21 C 9.881331 0.169974 -15.711688 0
M  V30 22 C 10.886149 0.728382 -16.523296 0
M  V30 23 C 11.083463 2.121344 -16.539793 0
M  V30 24 Cl 12.314281 2.794569 -17.546698 0
M  V30 25 C 10.272041 2.961048 -15.750621 0
M  V30 26 F 10.439515 4.304908 -15.823717 0
M  V30 27 H 8.389786 6.608109 -12.067621 0
M  V30 28 H 6.840409 6.110257 -11.446508 0
M  V30 29 H 7.968499 4.426644 -9.948540 0
M  V30 30 H 9.540691 4.965085 -10.481921 0
M  V30 31 H 10.459048 7.116674 -9.623579 0
M  V30 32 H 9.185204 7.919533 -10.505206 0
M  V30 33 H 10.018707 9.375119 -8.712914 0
M  V30 34 H 8.327499 9.029797 -8.527719 0
M  V30 35 H 9.192012 8.841093 -6.363916 0
M  V30 36 H 9.013300 6.343235 -5.846417 0
M  V30 37 H 7.686188 7.110585 -6.647004 0
M  V30 38 H 8.082174 4.971888 -7.713357 0
M  V30 39 H 9.793742 5.301611 -7.923917 0
M  V30 40 H 6.060872 3.662275 -12.101949 0
M  V30 41 H 5.899845 4.792638 -13.459114 0
M  V30 42 H 6.488054 3.043614 -14.905007 0
M  V30 43 H 6.812301 1.992494 -13.522758 0
M  V30 44 H 8.318270 0.548542 -14.294680 0
M  V30 45 H 9.728565 -0.898121 -15.696303 0
M  V30 46 H 11.508659 0.086751 -17.130253 0
M  V30 47 H 7.582287 6.738141 -9.228571 0
M  V30 END ATOM
M  V30 BEGIN BOND
M  V30 1 2 2 1
M  V30 2 1 3 2
M  V30 3 1 4 3
M  V30 4 1 5 4
M  V30 5 1 6 5
M  V30 6 1 7 6
M  V30 7 1 8 7
M  V30 8 1 9 8
M  V30 9 1 10 9
M  V30 10 1 11 10
M  V30 11 1 12 10
M  V30 12 1 13 10
M  V30 13 1 14 9
M  V30 14 1 15 6
M  V30 15 1 15 14
M  V30 16 1 16 3
M  V30 17 1 17 16
M  V30 18 1 18 2
M  V30 19 1 18 17
M  V30 20 1 19 18
M  V30 21 2 20 19
M  V30 22 1 21 20
M  V30 23 2 22 21
M  V30 24 1 23 22
M  V30 25 1 24 23
M  V30 26 1 25 19
M  V30 27 2 25 23
M  V30 28 1 26 25
M  V30 29 1 27 4
M  V30 30 1 28 4
M  V30 31 1 29 5
M  V30 32 1 30 5
M  V30 33 1 31 7
M  V30 34 1 32 7
M  V30 35 1 33 8
M  V30 36 1 34 8
M  V30 37 1 9 35 CFG=1
M  V30 38 1 36 14
M  V30 39 1 37 14
M  V30 40 1 38 15
M  V30 41 1 39 15
M  V30 42 1 40 16
M  V30 43 1 41 16
M  V30 44 1 42 17
M  V30 45 1 43 17
M  V30 46 1 44 20
M  V30 47 1 45 21
M  V30 48 1 46 22
M  V30 49 1 6 47 CFG=1
M  V30 END BOND
M  V30 END CTAB
M  END
>  <b_m_subgroup_collapsed>  (625) 
0

>  <r_i_docking_score>  (625) 
-8.0696912748921701

>  <s_m_subgroup_title>  (625) 
glide-dock_SP_D22_pv

>  <s_m_subgroupid>  (625) 
glide-dock_SP_D22_pv

>  <Molecule ChEMBL ID>  (625) 
CHEMBL550849

>  <Standard Type>  (625) 
Ki

>  <Standard Value>  (625) 
10000.0

>  <label>  (625) 
0

$$$$
CHEMBL201748
     RDKit          3D

  0  0  0  0  0  0  0  0  0  0999 V3000
M  V30 BEGIN CTAB
M  V30 COUNTS 43 47 0 0 1
M  V30 BEGIN ATOM
M  V30 1 C 12.441736 7.800525 -2.485713 0
M  V30 2 C 12.224353 9.154232 -2.787879 0
M  V30 3 C 11.651344 9.516116 -4.019605 0
M  V30 4 C 11.286023 8.530912 -4.961813 0
M  V30 5 C 10.561238 8.973867 -6.230572 0 CFG=1
M  V30 6 C 11.452467 9.012903 -7.467976 0
M  V30 7 C 11.257584 7.653350 -8.130343 0 CFG=2
M  V30 8 C 11.455788 7.629128 -9.613139 0
M  V30 9 N 12.520094 8.172744 -10.309157 0
M  V30 10 C 12.438923 7.844913 -11.651772 0
M  V30 11 C 13.240665 8.172325 -12.763746 0
M  V30 12 C 12.886023 7.662300 -14.030249 0
M  V30 13 C 11.791905 6.788493 -14.159692 0
M  V30 14 C 10.980528 6.496359 -13.046865 0
M  V30 15 C 11.261975 7.050078 -11.781222 0
M  V30 16 C 10.654344 6.964586 -10.487682 0
M  V30 17 C 9.462687 6.207940 -10.019710 0
M  V30 18 C 8.901632 6.899642 -8.771867 0
M  V30 19 N 9.913889 7.150953 -7.703682 0 CFG=2 CHG=1
M  V30 20 C 9.399868 8.067189 -6.661171 0
M  V30 21 C 11.518733 7.170010 -4.656454 0
M  V30 22 C 12.086022 6.811594 -3.418784 0
M  V30 23 H 12.874735 7.522793 -1.536364 0
M  V30 24 H 12.485984 9.914536 -2.067360 0
M  V30 25 H 11.459196 10.559783 -4.220579 0
M  V30 26 H 10.174537 9.972836 -6.035154 0
M  V30 27 H 11.064178 9.772323 -8.145148 0
M  V30 28 H 12.494792 9.261623 -7.262188 0
M  V30 29 H 11.981335 6.972322 -7.682385 0
M  V30 30 H 13.220860 8.781091 -9.897753 0
M  V30 31 H 14.103317 8.807285 -12.646886 0
M  V30 32 H 13.481554 7.897727 -14.899739 0
M  V30 33 H 11.551504 6.369619 -15.126257 0
M  V30 34 H 10.122917 5.850514 -13.165059 0
M  V30 35 H 8.696721 6.166914 -10.795458 0
M  V30 36 H 9.735380 5.177172 -9.790528 0
M  V30 37 H 8.486023 7.855873 -9.091037 0
M  V30 38 H 8.086023 6.311075 -8.356244 0
M  V30 39 H 8.943896 7.510849 -5.846866 0
M  V30 40 H 8.612618 8.700955 -7.074060 0
M  V30 41 H 11.240117 6.385704 -5.343285 0
M  V30 42 H 12.246244 5.772325 -3.178675 0
M  V30 43 H 10.083088 6.256647 -7.267107 0
M  V30 END ATOM
M  V30 BEGIN BOND
M  V30 1 2 2 1
M  V30 2 1 3 2
M  V30 3 2 4 3
M  V30 4 1 5 4
M  V30 5 1 6 5
M  V30 6 1 7 6
M  V30 7 1 8 7
M  V30 8 1 9 8
M  V30 9 1 10 9
M  V30 10 2 11 10
M  V30 11 1 12 11
M  V30 12 2 13 12
M  V30 13 1 14 13
M  V30 14 1 15 10
M  V30 15 2 15 14
M  V30 16 2 16 8
M  V30 17 1 16 15
M  V30 18 1 17 16
M  V30 19 1 18 17
M  V30 20 1 19 7
M  V30 21 1 19 18
M  V30 22 1 20 5
M  V30 23 1 20 19
M  V30 24 1 21 4
M  V30 25 1 22 1
M  V30 26 2 22 21
M  V30 27 1 23 1
M  V30 28 1 24 2
M  V30 29 1 25 3
M  V30 30 1 5 26 CFG=1
M  V30 31 1 27 6
M  V30 32 1 28 6
M  V30 33 1 7 29 CFG=1
M  V30 34 1 30 9
M  V30 35 1 31 11
M  V30 36 1 32 12
M  V30 37 1 33 13
M  V30 38 1 34 14
M  V30 39 1 35 17
M  V30 40 1 36 17
M  V30 41 1 37 18
M  V30 42 1 38 18
M  V30 43 1 39 20
M  V30 44 1 40 20
M  V30 45 1 41 21
M  V30 46 1 42 22
M  V30 47 1 19 43 CFG=1
M  V30 END BOND
M  V30 END CTAB
M  END
>  <b_m_subgroup_collapsed>  (626) 
0

>  <r_i_docking_score>  (626) 
-8.0687117157690107

>  <s_m_subgroup_title>  (626) 
glide-dock_SP_D22_pv

>  <s_m_subgroupid>  (626) 
glide-dock_SP_D22_pv

>  <Molecule ChEMBL ID>  (626) 
CHEMBL201748

>  <Standard Type>  (626) 
Ki

>  <Standard Value>  (626) 
10000.0

>  <label>  (626) 
0

$$$$
CHEMBL1172212
     RDKit          3D

  0  0  0  0  0  0  0  0  0  0999 V3000
M  V30 BEGIN CTAB
M  V30 COUNTS 44 47 0 0 1
M  V30 BEGIN ATOM
M  V30 1 O 8.080973 6.565948 -11.847339 0
M  V30 2 C 9.431222 6.268731 -11.542464 0
M  V30 3 C 9.996672 5.343520 -12.640453 0
M  V30 4 C 9.377141 4.093370 -12.864874 0
M  V30 5 C 9.863826 3.208797 -13.845260 0
M  V30 6 C 10.982958 3.561229 -14.620136 0
M  V30 7 C 11.602743 4.808295 -14.422657 0
M  V30 8 C 11.109777 5.696115 -13.446765 0
M  V30 9 C 10.184904 7.610062 -11.440939 0
M  V30 10 C 9.723403 8.457219 -10.251729 0
M  V30 11 N 9.960394 7.754559 -8.992795 0
M  V30 12 C 9.570920 8.647178 -7.898402 0
M  V30 13 C 10.344048 8.483644 -6.626411 0
M  V30 14 C 10.678064 7.318274 -5.984778 0
M  V30 15 C 11.323766 7.566500 -4.718869 0
M  V30 16 C 11.767076 6.672447 -3.727058 0
M  V30 17 C 12.336570 7.106183 -2.518065 0
M  V30 18 C 12.486077 8.482537 -2.267989 0
M  V30 19 C 12.083764 9.406917 -3.245131 0
M  V30 20 C 11.510460 8.956591 -4.453103 0
M  V30 21 S 10.913565 9.910809 -5.794866 0
M  V30 22 C 9.135625 6.539731 -8.981537 0
M  V30 23 C 9.482041 5.596449 -10.147625 0
M  V30 24 H 7.641839 7.027487 -11.129583 0
M  V30 25 H 8.521125 3.806245 -12.275162 0
M  V30 26 H 9.384085 2.250855 -13.988652 0
M  V30 27 H 11.363338 2.879275 -15.366981 0
M  V30 28 H 12.456935 5.088704 -15.019689 0
M  V30 29 H 11.617673 6.642325 -13.333432 0
M  V30 30 H 11.252857 7.428624 -11.316514 0
M  V30 31 H 10.067448 8.177027 -12.365616 0
M  V30 32 H 10.311908 9.372766 -10.248199 0
M  V30 33 H 8.675130 8.742948 -10.351663 0
M  V30 34 H 9.697955 9.681608 -8.213913 0
M  V30 35 H 8.502707 8.552851 -7.695460 0
M  V30 36 H 10.450790 6.325005 -6.336545 0
M  V30 37 H 11.648406 5.624139 -3.908125 0
M  V30 38 H 12.652562 6.380197 -1.783450 0
M  V30 39 H 12.916603 8.828161 -1.340087 0
M  V30 40 H 12.186970 10.465729 -3.047038 0
M  V30 41 H 9.251849 6.006699 -8.041605 0
M  V30 42 H 8.086109 6.809436 -9.045383 0
M  V30 43 H 8.827626 4.723606 -10.111278 0
M  V30 44 H 10.485928 5.221131 -9.959888 0
M  V30 END ATOM
M  V30 BEGIN BOND
M  V30 1 1 2 1
M  V30 2 1 3 2
M  V30 3 2 4 3
M  V30 4 1 5 4
M  V30 5 2 6 5
M  V30 6 1 7 6
M  V30 7 1 8 3
M  V30 8 2 8 7
M  V30 9 1 9 2
M  V30 10 1 10 9
M  V30 11 1 11 10
M  V30 12 1 12 11
M  V30 13 1 13 12
M  V30 14 2 14 13
M  V30 15 1 15 14
M  V30 16 2 16 15
M  V30 17 1 17 16
M  V30 18 2 18 17
M  V30 19 1 19 18
M  V30 20 1 20 15
M  V30 21 2 20 19
M  V30 22 1 21 13
M  V30 23 1 21 20
M  V30 24 1 22 11
M  V30 25 1 23 2
M  V30 26 1 23 22
M  V30 27 1 24 1
M  V30 28 1 25 4
M  V30 29 1 26 5
M  V30 30 1 27 6
M  V30 31 1 28 7
M  V30 32 1 29 8
M  V30 33 1 30 9
M  V30 34 1 31 9
M  V30 35 1 32 10
M  V30 36 1 33 10
M  V30 37 1 34 12
M  V30 38 1 35 12
M  V30 39 1 36 14
M  V30 40 1 37 16
M  V30 41 1 38 17
M  V30 42 1 39 18
M  V30 43 1 40 19
M  V30 44 1 41 22
M  V30 45 1 42 22
M  V30 46 1 43 23
M  V30 47 1 44 23
M  V30 END BOND
M  V30 END CTAB
M  END
>  <b_m_subgroup_collapsed>  (627) 
0

>  <r_i_docking_score>  (627) 
-8.0643461516374408

>  <s_m_subgroup_title>  (627) 
glide-dock_SP_D22_pv

>  <s_m_subgroupid>  (627) 
glide-dock_SP_D22_pv

>  <Molecule ChEMBL ID>  (627) 
CHEMBL1172212

>  <Standard Type>  (627) 
Ki

>  <Standard Value>  (627) 
46.8

>  <label>  (627) 
1

$$$$
CHEMBL210101
     RDKit          3D

  0  0  0  0  0  0  0  0  0  0999 V3000
M  V30 BEGIN CTAB
M  V30 COUNTS 50 52 0 0 1
M  V30 BEGIN ATOM
M  V30 1 C 5.307990 3.748102 -12.952171 0
M  V30 2 O 6.428984 4.391027 -12.397898 0
M  V30 3 N 7.501836 4.214777 -13.269906 0
M  V30 4 C 8.467764 5.005013 -13.020119 0
M  V30 5 C 8.394062 6.043536 -11.884600 0
M  V30 6 C 8.599197 5.391459 -10.499994 0
M  V30 7 N 8.886264 6.366800 -9.413976 0 CFG=2 CHG=1
M  V30 8 C 10.240919 6.973500 -9.559154 0
M  V30 9 C 10.599891 7.919828 -8.408216 0
M  V30 10 C 10.479004 7.203368 -7.053826 0 CFG=1
M  V30 11 C 10.936047 8.048810 -5.872280 0
M  V30 12 C 10.653649 9.426221 -5.816318 0
M  V30 13 C 11.107436 10.165169 -4.712570 0
M  V30 14 C 11.836384 9.503448 -3.706105 0
M  V30 15 C 12.072360 8.122165 -3.848494 0
M  V30 16 N 11.625575 7.405353 -4.902148 0
M  V30 17 C 9.038081 6.695185 -6.914434 0
M  V30 18 C 8.702696 5.740124 -8.074373 0
M  V30 19 C 9.702525 4.974880 -13.862538 0
M  V30 20 C 9.683894 4.319625 -15.119156 0
M  V30 21 C 10.815093 4.313590 -15.957764 0
M  V30 22 C 11.994102 4.957283 -15.548886 0
M  V30 23 Cl 13.365181 4.981439 -16.593235 0
M  V30 24 C 12.047340 5.579854 -14.289888 0
M  V30 25 C 10.916058 5.578179 -13.448800 0
M  V30 26 H 4.487833 3.926070 -12.270582 0
M  V30 27 H 5.041302 4.170517 -13.921765 0
M  V30 28 H 5.457757 2.672060 -13.049911 0
M  V30 29 H 7.421087 6.538645 -11.886807 0
M  V30 30 H 9.081058 6.860765 -12.086871 0
M  V30 31 H 9.399690 4.648962 -10.537534 0
M  V30 32 H 7.688332 4.841835 -10.249105 0
M  V30 33 H 10.321267 7.529168 -10.489643 0
M  V30 34 H 10.982324 6.177381 -9.603508 0
M  V30 35 H 9.942931 8.786401 -8.455033 0
M  V30 36 H 11.616339 8.291932 -8.545230 0
M  V30 37 H 11.141640 6.336248 -7.079373 0
M  V30 38 H 10.088610 9.913278 -6.594559 0
M  V30 39 H 10.890821 11.220297 -4.644279 0
M  V30 40 H 12.208249 10.040146 -2.847134 0
M  V30 41 H 12.629159 7.580298 -3.097683 0
M  V30 42 H 8.908626 6.173189 -5.966516 0
M  V30 43 H 8.335177 7.530323 -6.893878 0
M  V30 44 H 7.682036 5.387573 -7.965686 0
M  V30 45 H 9.336515 4.854764 -8.003828 0
M  V30 46 H 8.793025 3.817106 -15.466289 0
M  V30 47 H 10.769355 3.819266 -16.916458 0
M  V30 48 H 12.952825 6.070370 -13.968496 0
M  V30 49 H 11.000767 6.065447 -12.492034 0
M  V30 50 H 8.182958 7.095875 -9.491313 0
M  V30 END ATOM
M  V30 BEGIN BOND
M  V30 1 1 2 1
M  V30 2 1 3 2
M  V30 3 2 4 3
M  V30 4 1 5 4
M  V30 5 1 6 5
M  V30 6 1 7 6
M  V30 7 1 8 7
M  V30 8 1 9 8
M  V30 9 1 10 9
M  V30 10 1 11 10
M  V30 11 2 12 11
M  V30 12 1 13 12
M  V30 13 2 14 13
M  V30 14 1 15 14
M  V30 15 1 16 11
M  V30 16 2 16 15
M  V30 17 1 17 10
M  V30 18 1 18 7
M  V30 19 1 18 17
M  V30 20 1 19 4
M  V30 21 1 20 19
M  V30 22 2 21 20
M  V30 23 1 22 21
M  V30 24 1 23 22
M  V30 25 2 24 22
M  V30 26 2 25 19
M  V30 27 1 25 24
M  V30 28 1 26 1
M  V30 29 1 27 1
M  V30 30 1 28 1
M  V30 31 1 29 5
M  V30 32 1 30 5
M  V30 33 1 31 6
M  V30 34 1 32 6
M  V30 35 1 33 8
M  V30 36 1 34 8
M  V30 37 1 35 9
M  V30 38 1 36 9
M  V30 39 1 10 37 CFG=3
M  V30 40 1 38 12
M  V30 41 1 39 13
M  V30 42 1 40 14
M  V30 43 1 41 15
M  V30 44 1 42 17
M  V30 45 1 43 17
M  V30 46 1 44 18
M  V30 47 1 45 18
M  V30 48 1 46 20
M  V30 49 1 47 21
M  V30 50 1 48 24
M  V30 51 1 49 25
M  V30 52 1 7 50 CFG=1
M  V30 END BOND
M  V30 END CTAB
M  END
>  <b_m_subgroup_collapsed>  (628) 
0

>  <r_i_docking_score>  (628) 
-8.0638840982135296

>  <s_m_subgroup_title>  (628) 
glide-dock_SP_D22_pv

>  <s_m_subgroupid>  (628) 
glide-dock_SP_D22_pv

>  <Molecule ChEMBL ID>  (628) 
CHEMBL210101

>  <Standard Type>  (628) 
Ki

>  <Standard Value>  (628) 
25.3

>  <label>  (628) 
1

$$$$
CHEMBL4451231
     RDKit          3D

  0  0  0  0  0  0  0  0  0  0999 V3000
M  V30 BEGIN CTAB
M  V30 COUNTS 70 75 0 0 1
M  V30 BEGIN ATOM
M  V30 1 O 8.593963 2.605462 -15.326839 0
M  V30 2 C 9.674221 3.189285 -15.446560 0
M  V30 3 C 10.410985 3.247975 -16.714096 0
M  V30 4 C 9.823950 2.563954 -17.885015 0
M  V30 5 C 9.253157 3.315287 -18.935349 0
M  V30 6 C 8.669976 2.655600 -20.034683 0
M  V30 7 C 8.648580 1.248579 -20.082771 0
M  V30 8 C 9.210847 0.496983 -19.031898 0
M  V30 9 C 9.797287 1.153113 -17.932640 0
M  V30 10 C 11.574389 3.961877 -16.797255 0
M  V30 11 C 12.318556 4.033199 -18.061073 0
M  V30 12 C 13.452033 4.744670 -18.161074 0
M  V30 13 C 13.946089 5.450009 -17.002550 0
M  V30 14 C 13.286383 5.373514 -15.832235 0
M  V30 15 N 12.117118 4.634724 -15.691822 0
M  V30 16 C 11.483247 4.570307 -14.437903 0
M  V30 17 O 11.967616 5.128506 -13.448133 0
M  V30 18 N 10.279337 3.846781 -14.354324 0
M  V30 19 C 9.682675 3.710408 -13.035111 0
M  V30 20 C 9.033019 4.988394 -12.473692 0
M  V30 21 C 8.959952 4.943038 -10.934818 0
M  V30 22 C 8.552372 6.288132 -10.304116 0
M  V30 23 N 9.681592 7.016320 -9.662316 0 CFG=1 CHG=1
M  V30 24 C 10.658008 7.558933 -10.640787 0
M  V30 25 C 11.884858 8.148514 -9.932637 0
M  V30 26 C 11.510909 9.185602 -8.873713 0
M  V30 27 C 10.373525 8.739869 -7.936886 0 CFG=2
M  V30 28 C 10.902109 7.912893 -6.792967 0
M  V30 29 C 11.152353 6.566987 -6.792388 0
M  V30 30 N 11.610977 6.182698 -5.547771 0
M  V30 31 C 11.685820 7.260510 -4.697307 0
M  V30 32 C 12.086392 7.373007 -3.354391 0
M  V30 33 C 12.086006 8.637527 -2.742322 0
M  V30 34 C 11.686588 9.765985 -3.481508 0
M  V30 35 C 11.285665 9.642645 -4.828636 0
M  V30 36 C 11.267287 8.382434 -5.473622 0
M  V30 37 C 9.216928 8.081065 -8.730577 0
M  V30 38 H 9.256489 4.394729 -18.897762 0
M  V30 39 H 8.235114 3.230190 -20.839710 0
M  V30 40 H 8.198596 0.744958 -20.925428 0
M  V30 41 H 9.189079 -0.582354 -19.067354 0
M  V30 42 H 10.219799 0.573173 -17.124720 0
M  V30 43 H 11.979793 3.504920 -18.939610 0
M  V30 44 H 13.992903 4.783291 -19.095470 0
M  V30 45 H 14.851236 6.035228 -17.072536 0
M  V30 46 H 13.695887 5.912605 -14.989119 0
M  V30 47 H 8.970187 2.888577 -13.046189 0
M  V30 48 H 10.485930 3.370177 -12.388668 0
M  V30 49 H 9.584122 5.872495 -12.789546 0
M  V30 50 H 8.032368 5.105723 -12.893997 0
M  V30 51 H 8.234230 4.174087 -10.657334 0
M  V30 52 H 9.910966 4.610487 -10.513576 0
M  V30 53 H 8.086164 6.926727 -11.053665 0
M  V30 54 H 7.797452 6.085319 -9.543117 0
M  V30 55 H 10.997726 6.775159 -11.314692 0
M  V30 56 H 10.174968 8.318713 -11.257743 0
M  V30 57 H 12.465179 7.372421 -9.447403 0
M  V30 58 H 12.555505 8.597499 -10.666211 0
M  V30 59 H 12.403126 9.372207 -8.278677 0
M  V30 60 H 11.237000 10.111916 -9.379763 0
M  V30 61 H 9.956566 9.642639 -7.490542 0
M  V30 62 H 11.033312 5.821682 -7.563433 0
M  V30 63 H 11.795354 5.217362 -5.303983 0
M  V30 64 H 12.391543 6.496536 -2.800964 0
M  V30 65 H 12.386892 8.746709 -1.710516 0
M  V30 66 H 11.686343 10.734658 -3.004647 0
M  V30 67 H 10.980874 10.523046 -5.374446 0
M  V30 68 H 8.698951 8.843220 -9.315434 0
M  V30 69 H 8.485770 7.679234 -8.028739 0
M  V30 70 H 10.166286 6.338958 -9.095798 0
M  V30 END ATOM
M  V30 BEGIN BOND
M  V30 1 2 2 1
M  V30 2 1 3 2
M  V30 3 1 4 3
M  V30 4 2 5 4
M  V30 5 1 6 5
M  V30 6 2 7 6
M  V30 7 1 8 7
M  V30 8 1 9 4
M  V30 9 2 9 8
M  V30 10 2 10 3
M  V30 11 1 11 10
M  V30 12 2 12 11
M  V30 13 1 13 12
M  V30 14 2 14 13
M  V30 15 1 15 10
M  V30 16 1 15 14
M  V30 17 1 16 15
M  V30 18 2 17 16
M  V30 19 1 18 2
M  V30 20 1 18 16
M  V30 21 1 19 18
M  V30 22 1 20 19
M  V30 23 1 21 20
M  V30 24 1 22 21
M  V30 25 1 23 22
M  V30 26 1 24 23
M  V30 27 1 25 24
M  V30 28 1 26 25
M  V30 29 1 27 26
M  V30 30 1 28 27
M  V30 31 2 29 28
M  V30 32 1 30 29
M  V30 33 1 31 30
M  V30 34 2 32 31
M  V30 35 1 33 32
M  V30 36 2 34 33
M  V30 37 1 35 34
M  V30 38 1 36 28
M  V30 39 1 36 31
M  V30 40 2 36 35
M  V30 41 1 37 23
M  V30 42 1 37 27
M  V30 43 1 38 5
M  V30 44 1 39 6
M  V30 45 1 40 7
M  V30 46 1 41 8
M  V30 47 1 42 9
M  V30 48 1 43 11
M  V30 49 1 44 12
M  V30 50 1 45 13
M  V30 51 1 46 14
M  V30 52 1 47 19
M  V30 53 1 48 19
M  V30 54 1 49 20
M  V30 55 1 50 20
M  V30 56 1 51 21
M  V30 57 1 52 21
M  V30 58 1 53 22
M  V30 59 1 54 22
M  V30 60 1 55 24
M  V30 61 1 56 24
M  V30 62 1 57 25
M  V30 63 1 58 25
M  V30 64 1 59 26
M  V30 65 1 60 26
M  V30 66 1 27 61 CFG=1
M  V30 67 1 62 29
M  V30 68 1 63 30
M  V30 69 1 64 32
M  V30 70 1 65 33
M  V30 71 1 66 34
M  V30 72 1 67 35
M  V30 73 1 68 37
M  V30 74 1 69 37
M  V30 75 1 23 70 CFG=1
M  V30 END BOND
M  V30 END CTAB
M  END
>  <b_m_subgroup_collapsed>  (629) 
0

>  <r_i_docking_score>  (629) 
-8.0637958635391396

>  <s_m_subgroup_title>  (629) 
glide-dock_SP_D22_pv

>  <s_m_subgroupid>  (629) 
glide-dock_SP_D22_pv

>  <Molecule ChEMBL ID>  (629) 
CHEMBL4451231

>  <Standard Type>  (629) 
Ki

>  <Standard Value>  (629) 
17670.0

>  <label>  (629) 
0

$$$$
CHEMBL494702
     RDKit          3D

  0  0  0  0  0  0  0  0  0  0999 V3000
M  V30 BEGIN CTAB
M  V30 COUNTS 61 64 0 0 1
M  V30 BEGIN ATOM
M  V30 1 C 10.482745 -0.643755 -17.238022 0
M  V30 2 C 11.208592 0.700752 -17.145855 0
M  V30 3 O 10.573985 1.492065 -16.158974 0
M  V30 4 C 11.108226 2.668702 -15.792738 0
M  V30 5 O 12.152897 3.133756 -16.247416 0
M  V30 6 C 10.313656 3.368198 -14.782805 0
M  V30 7 O 10.859545 4.488206 -14.216467 0
M  V30 8 C 9.925783 4.990888 -13.373961 0
M  V30 9 C 8.809584 4.214090 -13.374914 0
M  V30 10 C 9.054521 3.131790 -14.274309 0
M  V30 11 C 8.114122 1.995269 -14.612766 0
M  V30 12 C 7.658129 4.634496 -12.552450 0
M  V30 13 O 6.543883 4.123769 -12.644190 0
M  V30 14 C 7.930427 5.743992 -11.527893 0
M  V30 15 C 8.922172 6.846856 -12.024674 0 CFG=1
M  V30 16 C 9.232265 7.959682 -10.990032 0
M  V30 17 N 9.211423 7.506415 -9.573643 0 CFG=2 CHG=1
M  V30 18 C 8.993216 8.630781 -8.623664 0
M  V30 19 C 8.822567 8.123914 -7.174904 0
M  V30 20 C 9.967917 7.213753 -6.726077 0 CFG=2
M  V30 21 C 11.203509 8.053967 -6.406114 0
M  V30 22 O 11.808853 8.658100 -7.290997 0
M  V30 23 C 11.526695 8.169186 -4.979530 0
M  V30 24 C 11.718122 9.448642 -4.426610 0
M  V30 25 C 12.086044 9.575459 -3.078355 0
M  V30 26 C 12.310883 8.427547 -2.304193 0
M  V30 27 F 12.768470 8.564281 -1.046955 0
M  V30 28 C 12.089816 7.145747 -2.840024 0
M  V30 29 C 11.688984 7.014303 -4.182354 0
M  V30 30 C 10.221071 6.107276 -7.762675 0
M  V30 31 C 10.359907 6.642744 -9.195443 0
M  V30 32 C 10.207182 6.278187 -12.672122 0
M  V30 33 H 10.963390 -1.297837 -17.965502 0
M  V30 34 H 10.482874 -1.151706 -16.274181 0
M  V30 35 H 9.444166 -0.507378 -17.541843 0
M  V30 36 H 11.178707 1.216239 -18.107496 0
M  V30 37 H 12.257237 0.551305 -16.887108 0
M  V30 38 H 7.165272 2.083929 -14.086264 0
M  V30 39 H 7.904211 1.976725 -15.682148 0
M  V30 40 H 8.563629 1.042287 -14.330684 0
M  V30 41 H 8.307938 5.255294 -10.630238 0
M  V30 42 H 6.965095 6.172132 -11.266833 0
M  V30 43 H 8.393101 7.339073 -12.842110 0
M  V30 44 H 8.476061 8.736129 -11.108397 0
M  V30 45 H 10.179116 8.453199 -11.214159 0
M  V30 46 H 8.100924 9.193938 -8.901743 0
M  V30 47 H 9.819515 9.337314 -8.699332 0
M  V30 48 H 7.898715 7.571541 -7.046894 0
M  V30 49 H 8.727919 8.972075 -6.496827 0
M  V30 50 H 9.652949 6.731182 -5.800658 0
M  V30 51 H 11.592958 10.334661 -5.031940 0
M  V30 52 H 12.236684 10.554507 -2.646941 0
M  V30 53 H 12.249016 6.267169 -2.232689 0
M  V30 54 H 11.546821 6.027368 -4.598493 0
M  V30 55 H 11.112653 5.539108 -7.492943 0
M  V30 56 H 9.394073 5.395145 -7.729859 0
M  V30 57 H 10.411954 5.780206 -9.855692 0
M  V30 58 H 11.294798 7.188380 -9.323448 0
M  V30 59 H 10.662043 6.972475 -13.371362 0
M  V30 60 H 10.972709 6.172407 -11.915943 0
M  V30 61 H 8.359866 6.961963 -9.493589 0
M  V30 END ATOM
M  V30 BEGIN BOND
M  V30 1 1 2 1
M  V30 2 1 3 2
M  V30 3 1 4 3
M  V30 4 2 5 4
M  V30 5 1 6 4
M  V30 6 1 7 6
M  V30 7 1 8 7
M  V30 8 2 9 8
M  V30 9 2 10 6
M  V30 10 1 10 9
M  V30 11 1 11 10
M  V30 12 1 12 9
M  V30 13 2 13 12
M  V30 14 1 14 12
M  V30 15 1 15 14
M  V30 16 1 16 15
M  V30 17 1 17 16
M  V30 18 1 18 17
M  V30 19 1 19 18
M  V30 20 1 20 19
M  V30 21 1 21 20
M  V30 22 2 22 21
M  V30 23 1 23 21
M  V30 24 1 24 23
M  V30 25 2 25 24
M  V30 26 1 26 25
M  V30 27 1 27 26
M  V30 28 2 28 26
M  V30 29 2 29 23
M  V30 30 1 29 28
M  V30 31 1 30 20
M  V30 32 1 31 17
M  V30 33 1 31 30
M  V30 34 1 32 8
M  V30 35 1 32 15
M  V30 36 1 33 1
M  V30 37 1 34 1
M  V30 38 1 35 1
M  V30 39 1 36 2
M  V30 40 1 37 2
M  V30 41 1 38 11
M  V30 42 1 39 11
M  V30 43 1 40 11
M  V30 44 1 41 14
M  V30 45 1 42 14
M  V30 46 1 15 43 CFG=3
M  V30 47 1 44 16
M  V30 48 1 45 16
M  V30 49 1 46 18
M  V30 50 1 47 18
M  V30 51 1 48 19
M  V30 52 1 49 19
M  V30 53 1 20 50 CFG=1
M  V30 54 1 51 24
M  V30 55 1 52 25
M  V30 56 1 53 28
M  V30 57 1 54 29
M  V30 58 1 55 30
M  V30 59 1 56 30
M  V30 60 1 57 31
M  V30 61 1 58 31
M  V30 62 1 59 32
M  V30 63 1 60 32
M  V30 64 1 17 61 CFG=3
M  V30 END BOND
M  V30 END CTAB
M  END
>  <b_m_subgroup_collapsed>  (630) 
0

>  <r_i_docking_score>  (630) 
-8.0626418588967805

>  <s_m_subgroup_title>  (630) 
glide-dock_SP_D22_pv

>  <s_m_subgroupid>  (630) 
glide-dock_SP_D22_pv

>  <Molecule ChEMBL ID>  (630) 
CHEMBL494702

>  <Standard Type>  (630) 
Ki

>  <Standard Value>  (630) 
10000.0

>  <label>  (630) 
0

$$$$
CHEMBL5856810
     RDKit          3D

  0  0  0  0  0  0  0  0  0  0999 V3000
M  V30 BEGIN CTAB
M  V30 COUNTS 57 59 0 0 1
M  V30 BEGIN ATOM
M  V30 1 C 5.580357 3.482586 -12.579907 0
M  V30 2 C 6.323152 4.509780 -13.441781 0
M  V30 3 N 7.702874 4.714787 -12.962355 0
M  V30 4 C 7.929551 5.776064 -11.968614 0
M  V30 5 C 8.217477 5.169887 -10.578210 0
M  V30 6 N 8.656685 6.172356 -9.576168 0 CFG=2 CHG=1
M  V30 7 C 10.053160 6.633708 -9.816160 0
M  V30 8 C 10.507763 7.691030 -8.800328 0
M  V30 9 C 10.334454 7.191746 -7.352943 0 CFG=1
M  V30 10 C 10.741614 8.221149 -6.330019 0
M  V30 11 N 10.487028 9.511436 -6.526182 0
M  V30 12 O 10.943964 10.224775 -5.385012 0
M  V30 13 C 11.451664 9.331298 -4.458689 0
M  V30 14 C 11.987402 9.517034 -3.177703 0
M  V30 15 C 12.373550 8.369589 -2.457944 0
M  V30 16 F 12.885734 8.509663 -1.215710 0
M  V30 17 C 12.217793 7.079700 -3.025061 0
M  V30 18 C 11.685928 6.922129 -4.324259 0
M  V30 19 C 11.306752 8.071451 -5.046602 0
M  V30 20 C 8.886803 6.734630 -7.144368 0
M  V30 21 C 8.497031 5.672390 -8.183921 0
M  V30 22 S 9.042310 3.850977 -13.650467 0
M  V30 23 O 8.513837 2.625701 -14.270732 0
M  V30 24 O 10.085904 3.772698 -12.623144 0
M  V30 25 C 9.649081 4.994360 -14.971711 0 CFG=1
M  V30 26 C 10.951237 5.697562 -14.538337 0
M  V30 27 C 9.811258 4.276098 -16.325562 0
M  V30 28 O 10.831746 3.297594 -16.279978 0
M  V30 29 H 4.572431 3.319229 -12.962580 0
M  V30 30 H 6.086493 2.517454 -12.580167 0
M  V30 31 H 5.490488 3.817292 -11.546427 0
M  V30 32 H 5.773612 5.450780 -13.447071 0
M  V30 33 H 6.347375 4.167211 -14.473691 0
M  V30 34 H 8.758665 6.387262 -12.324325 0
M  V30 35 H 7.063727 6.439806 -11.910033 0
M  V30 36 H 7.300600 4.689878 -10.256436 0
M  V30 37 H 8.958383 4.375632 -10.610953 0
M  V30 38 H 10.716993 5.772865 -9.759284 0
M  V30 39 H 10.164725 7.047384 -10.813653 0
M  V30 40 H 11.551851 7.953102 -8.982650 0
M  V30 41 H 9.926493 8.600941 -8.963731 0
M  V30 42 H 10.978249 6.321918 -7.226453 0
M  V30 43 H 12.083958 10.502588 -2.745651 0
M  V30 44 H 12.509268 6.206824 -2.455672 0
M  V30 45 H 11.565156 5.937045 -4.750760 0
M  V30 46 H 8.779161 6.312011 -6.147179 0
M  V30 47 H 8.206791 7.586749 -7.197216 0
M  V30 48 H 7.472384 5.372785 -7.992510 0
M  V30 49 H 9.107278 4.777501 -8.050876 0
M  V30 50 H 8.868838 5.746503 -15.070516 0
M  V30 51 H 11.284852 6.415721 -15.288844 0
M  V30 52 H 10.822804 6.232208 -13.600040 0
M  V30 53 H 11.762489 4.982667 -14.392485 0
M  V30 54 H 10.060406 4.996193 -17.105537 0
M  V30 55 H 8.886076 3.791864 -16.630112 0
M  V30 56 H 10.553555 2.603118 -15.699351 0
M  V30 57 H 8.013865 6.959500 -9.672371 0
M  V30 END ATOM
M  V30 BEGIN BOND
M  V30 1 1 2 1
M  V30 2 1 3 2
M  V30 3 1 4 3
M  V30 4 1 5 4
M  V30 5 1 6 5
M  V30 6 1 7 6
M  V30 7 1 8 7
M  V30 8 1 9 8
M  V30 9 1 10 9
M  V30 10 2 11 10
M  V30 11 1 12 11
M  V30 12 1 13 12
M  V30 13 1 14 13
M  V30 14 2 15 14
M  V30 15 1 16 15
M  V30 16 1 17 15
M  V30 17 2 18 17
M  V30 18 1 19 10
M  V30 19 2 19 13
M  V30 20 1 19 18
M  V30 21 1 20 9
M  V30 22 1 21 6
M  V30 23 1 21 20
M  V30 24 1 22 3
M  V30 25 2 23 22
M  V30 26 2 24 22
M  V30 27 1 25 22
M  V30 28 1 26 25
M  V30 29 1 27 25
M  V30 30 1 28 27
M  V30 31 1 29 1
M  V30 32 1 30 1
M  V30 33 1 31 1
M  V30 34 1 32 2
M  V30 35 1 33 2
M  V30 36 1 34 4
M  V30 37 1 35 4
M  V30 38 1 36 5
M  V30 39 1 37 5
M  V30 40 1 38 7
M  V30 41 1 39 7
M  V30 42 1 40 8
M  V30 43 1 41 8
M  V30 44 1 9 42 CFG=3
M  V30 45 1 43 14
M  V30 46 1 44 17
M  V30 47 1 45 18
M  V30 48 1 46 20
M  V30 49 1 47 20
M  V30 50 1 48 21
M  V30 51 1 49 21
M  V30 52 1 25 50 CFG=3
M  V30 53 1 51 26
M  V30 54 1 52 26
M  V30 55 1 53 26
M  V30 56 1 54 27
M  V30 57 1 55 27
M  V30 58 1 56 28
M  V30 59 1 6 57 CFG=1
M  V30 END BOND
M  V30 END CTAB
M  END
>  <b_m_subgroup_collapsed>  (631) 
0

>  <r_i_docking_score>  (631) 
-8.0623800172231803

>  <s_m_subgroup_title>  (631) 
glide-dock_SP_D22_pv

>  <s_m_subgroupid>  (631) 
glide-dock_SP_D22_pv

>  <Molecule ChEMBL ID>  (631) 
CHEMBL5856810

>  <Standard Type>  (631) 
Ki

>  <Standard Value>  (631) 
10000.0

>  <label>  (631) 
0

$$$$
CHEMBL309015
     RDKit          3D

  0  0  0  0  0  0  0  0  0  0999 V3000
M  V30 BEGIN CTAB
M  V30 COUNTS 58 61 0 0 1
M  V30 BEGIN ATOM
M  V30 1 C 10.778778 8.963900 -7.251870 0
M  V30 2 C 11.296268 8.009255 -6.454758 0
M  V30 3 C 11.562873 8.124859 -5.015806 0
M  V30 4 C 11.689042 9.376168 -4.375849 0
M  V30 5 C 11.986396 9.443425 -3.003449 0
M  V30 6 C 12.137524 8.265314 -2.249127 0
M  V30 7 C 11.984300 7.013072 -2.872653 0
M  V30 8 C 11.687045 6.948259 -4.247087 0
M  V30 9 C 10.553180 8.838811 -8.751972 0
M  V30 10 O 11.071438 7.633422 -9.303777 0
M  V30 11 C 10.252500 6.485715 -9.121636 0
M  V30 12 C 9.205517 6.329282 -10.227673 0 CFG=1
M  V30 13 C 9.756110 6.465614 -11.659911 0
M  V30 14 C 8.669524 6.186391 -12.705955 0
M  V30 15 N 8.042150 4.860984 -12.497778 0 CFG=2 CHG=1
M  V30 16 C 7.127814 4.483392 -13.600571 0
M  V30 17 C 7.140918 2.983087 -13.846956 0
M  V30 18 C 6.017655 2.225543 -13.448526 0
M  V30 19 C 5.983035 0.834253 -13.658722 0
M  V30 20 C 7.078744 0.184803 -14.255342 0
M  V30 21 C 8.213171 0.923582 -14.646820 0
M  V30 22 C 9.312234 0.254372 -15.224672 0
M  V30 23 C 10.460057 0.969470 -15.606266 0
M  V30 24 C 10.509211 2.361834 -15.422597 0
M  V30 25 C 9.413146 3.038201 -14.856202 0
M  V30 26 C 8.252485 2.331007 -14.452007 0
M  V30 27 C 7.434885 4.755315 -11.153803 0
M  V30 28 C 8.508894 4.967993 -10.075195 0
M  V30 29 H 10.488953 9.911829 -6.827077 0
M  V30 30 H 11.585637 7.064194 -6.888667 0
M  V30 31 H 11.587669 10.294436 -4.934940 0
M  V30 32 H 12.086333 10.407048 -2.525664 0
M  V30 33 H 12.359617 8.327911 -1.194577 0
M  V30 34 H 12.086420 6.103265 -2.298390 0
M  V30 35 H 11.570122 5.982175 -4.717172 0
M  V30 36 H 9.493526 8.961759 -8.981580 0
M  V30 37 H 11.072982 9.668779 -9.232064 0
M  V30 38 H 10.886047 5.606500 -9.112059 0
M  V30 39 H 9.752518 6.496019 -8.152620 0
M  V30 40 H 8.485976 7.128908 -10.083353 0
M  V30 41 H 10.167177 7.464737 -11.810528 0
M  V30 42 H 10.570037 5.770202 -11.837395 0
M  V30 43 H 9.133920 6.172318 -13.688418 0
M  V30 44 H 7.911387 6.971594 -12.696391 0
M  V30 45 H 6.117621 4.849003 -13.405004 0
M  V30 46 H 7.449580 4.965864 -14.519808 0
M  V30 47 H 5.170615 2.707580 -12.984037 0
M  V30 48 H 5.117027 0.262891 -13.359481 0
M  V30 49 H 7.043856 -0.884475 -14.410364 0
M  V30 50 H 9.286526 -0.814492 -15.371394 0
M  V30 51 H 11.301934 0.451647 -16.039965 0
M  V30 52 H 11.390811 2.911384 -15.718367 0
M  V30 53 H 9.498021 4.106130 -14.744074 0
M  V30 54 H 6.973405 3.773934 -11.044110 0
M  V30 55 H 6.644657 5.500894 -11.047336 0
M  V30 56 H 9.250681 4.172776 -10.148472 0
M  V30 57 H 8.084317 4.883338 -9.076370 0
M  V30 58 H 8.793680 4.188032 -12.524975 0
M  V30 END ATOM
M  V30 BEGIN BOND
M  V30 1 2 2 1
M  V30 2 1 3 2
M  V30 3 2 4 3
M  V30 4 1 5 4
M  V30 5 2 6 5
M  V30 6 1 7 6
M  V30 7 1 8 3
M  V30 8 2 8 7
M  V30 9 1 9 1
M  V30 10 1 10 9
M  V30 11 1 11 10
M  V30 12 1 12 11
M  V30 13 1 13 12
M  V30 14 1 14 13
M  V30 15 1 15 14
M  V30 16 1 16 15
M  V30 17 1 17 16
M  V30 18 2 18 17
M  V30 19 1 19 18
M  V30 20 2 20 19
M  V30 21 1 21 20
M  V30 22 2 22 21
M  V30 23 1 23 22
M  V30 24 2 24 23
M  V30 25 1 25 24
M  V30 26 1 26 17
M  V30 27 1 26 21
M  V30 28 2 26 25
M  V30 29 1 27 15
M  V30 30 1 28 12
M  V30 31 1 28 27
M  V30 32 1 29 1
M  V30 33 1 30 2
M  V30 34 1 31 4
M  V30 35 1 32 5
M  V30 36 1 33 6
M  V30 37 1 34 7
M  V30 38 1 35 8
M  V30 39 1 36 9
M  V30 40 1 37 9
M  V30 41 1 38 11
M  V30 42 1 39 11
M  V30 43 1 12 40 CFG=1
M  V30 44 1 41 13
M  V30 45 1 42 13
M  V30 46 1 43 14
M  V30 47 1 44 14
M  V30 48 1 45 16
M  V30 49 1 46 16
M  V30 50 1 47 18
M  V30 51 1 48 19
M  V30 52 1 49 20
M  V30 53 1 50 22
M  V30 54 1 51 23
M  V30 55 1 52 24
M  V30 56 1 53 25
M  V30 57 1 54 27
M  V30 58 1 55 27
M  V30 59 1 56 28
M  V30 60 1 57 28
M  V30 61 1 15 58 CFG=1
M  V30 END BOND
M  V30 END CTAB
M  END
>  <b_m_subgroup_collapsed>  (632) 
0

>  <r_i_docking_score>  (632) 
-8.0620668811838794

>  <s_m_subgroup_title>  (632) 
glide-dock_SP_D22_pv

>  <s_m_subgroupid>  (632) 
glide-dock_SP_D22_pv

>  <Molecule ChEMBL ID>  (632) 
CHEMBL309015

>  <Standard Type>  (632) 
Ki

>  <Standard Value>  (632) 
10000.0

>  <label>  (632) 
0

$$$$
CHEMBL3775534
     RDKit          3D

  0  0  0  0  0  0  0  0  0  0999 V3000
M  V30 BEGIN CTAB
M  V30 COUNTS 60 64 0 0 1
M  V30 BEGIN ATOM
M  V30 1 C 12.487114 6.132799 -2.897744 0
M  V30 2 C 12.414362 7.590270 -2.698209 0
M  V30 3 N 12.693746 8.090165 -1.446891 0
M  V30 4 C 12.484989 9.372320 -1.554711 0
M  V30 5 O 12.086091 9.772699 -2.785181 0
M  V30 6 C 12.059403 8.626975 -3.523858 0
M  V30 7 C 11.622702 8.764359 -4.905169 0
M  V30 8 N 11.873811 9.889888 -5.579908 0
M  V30 9 N 11.285985 9.742202 -6.806708 0
M  V30 10 C 10.712775 8.540271 -6.776774 0
M  V30 11 S 9.808897 7.809143 -8.093925 0
M  V30 12 C 10.552451 8.731853 -9.440627 0
M  V30 13 C 10.127943 8.175067 -10.788516 0
M  V30 14 C 10.852988 6.887342 -11.208824 0
M  V30 15 N 10.638417 6.572326 -12.646922 0 CFG=1 CHG=1
M  V30 16 C 11.685980 7.058374 -13.583510 0
M  V30 17 C 11.559546 6.183083 -14.847891 0 CFG=1
M  V30 18 C 12.808590 5.388227 -15.241406 0
M  V30 19 C 12.230840 4.110253 -15.842139 0
M  V30 20 N 11.030132 3.855521 -15.060545 0
M  V30 21 C 10.266124 2.677608 -15.217422 0
M  V30 22 C 10.802127 1.561979 -15.907554 0
M  V30 23 C 10.060800 0.375541 -16.055452 0
M  V30 24 C 8.767756 0.283937 -15.514425 0
M  V30 25 C 8.216003 1.376422 -14.821755 0
M  V30 26 C 6.885581 1.257302 -14.246939 0
M  V30 27 N 5.828966 1.158993 -13.785432 0
M  V30 28 C 8.959501 2.568062 -14.678481 0
M  V30 29 C 10.513862 5.110444 -14.523041 0 CFG=1
M  V30 30 C 10.448035 5.147390 -12.996101 0
M  V30 31 N 10.885971 7.886236 -5.621578 0
M  V30 32 C 10.364541 6.572303 -5.311839 0
M  V30 33 H 12.486008 5.850439 -3.944526 0
M  V30 34 H 11.625475 5.689853 -2.412037 0
M  V30 35 H 13.375647 5.708524 -2.435382 0
M  V30 36 H 12.564162 10.069455 -0.735969 0
M  V30 37 H 10.230031 9.770639 -9.360819 0
M  V30 38 H 11.639850 8.727441 -9.350406 0
M  V30 39 H 9.043413 8.060706 -10.843428 0
M  V30 40 H 10.391748 8.972396 -11.447868 0
M  V30 41 H 11.919220 6.972384 -10.994111 0
M  V30 42 H 10.472432 6.071422 -10.592916 0
M  V30 43 H 11.550997 8.110593 -13.832089 0
M  V30 44 H 12.677571 6.951813 -13.141348 0
M  V30 45 H 11.232312 6.770842 -15.706462 0
M  V30 46 H 13.465985 5.925123 -15.925814 0
M  V30 47 H 13.384651 5.122050 -14.355542 0
M  V30 48 H 11.959887 4.255829 -16.888758 0
M  V30 49 H 12.953406 3.298899 -15.781923 0
M  V30 50 H 11.794185 1.585896 -16.331261 0
M  V30 51 H 10.485380 -0.465693 -16.583166 0
M  V30 52 H 8.200729 -0.627668 -15.630493 0
M  V30 53 H 8.511929 3.391868 -14.144628 0
M  V30 54 H 9.551597 5.371823 -14.966165 0
M  V30 55 H 11.285487 4.550549 -12.646852 0
M  V30 56 H 9.524674 4.737334 -12.586677 0
M  V30 57 H 9.351828 6.467027 -5.701437 0
M  V30 58 H 10.314500 6.399569 -4.247039 0
M  V30 59 H 11.003976 5.819868 -5.771496 0
M  V30 60 H 9.771684 7.020763 -12.909774 0
M  V30 END ATOM
M  V30 BEGIN BOND
M  V30 1 1 2 1
M  V30 2 1 3 2
M  V30 3 2 4 3
M  V30 4 1 5 4
M  V30 5 2 6 2
M  V30 6 1 6 5
M  V30 7 1 7 6
M  V30 8 2 8 7
M  V30 9 1 9 8
M  V30 10 2 10 9
M  V30 11 1 11 10
M  V30 12 1 12 11
M  V30 13 1 13 12
M  V30 14 1 14 13
M  V30 15 1 15 14
M  V30 16 1 16 15
M  V30 17 1 17 16
M  V30 18 1 18 17
M  V30 19 1 19 18
M  V30 20 1 20 19
M  V30 21 1 21 20
M  V30 22 2 22 21
M  V30 23 1 23 22
M  V30 24 2 24 23
M  V30 25 1 25 24
M  V30 26 1 26 25
M  V30 27 3 27 26
M  V30 28 1 28 21
M  V30 29 2 28 25
M  V30 30 1 29 17
M  V30 31 1 29 20
M  V30 32 1 30 15
M  V30 33 1 30 29
M  V30 34 1 31 7
M  V30 35 1 31 10
M  V30 36 1 32 31
M  V30 37 1 33 1
M  V30 38 1 34 1
M  V30 39 1 35 1
M  V30 40 1 36 4
M  V30 41 1 37 12
M  V30 42 1 38 12
M  V30 43 1 39 13
M  V30 44 1 40 13
M  V30 45 1 41 14
M  V30 46 1 42 14
M  V30 47 1 43 16
M  V30 48 1 44 16
M  V30 49 1 17 45 CFG=3
M  V30 50 1 46 18
M  V30 51 1 47 18
M  V30 52 1 48 19
M  V30 53 1 49 19
M  V30 54 1 50 22
M  V30 55 1 51 23
M  V30 56 1 52 24
M  V30 57 1 53 28
M  V30 58 1 29 54 CFG=3
M  V30 59 1 55 30
M  V30 60 1 56 30
M  V30 61 1 57 32
M  V30 62 1 58 32
M  V30 63 1 59 32
M  V30 64 1 15 60 CFG=3
M  V30 END BOND
M  V30 END CTAB
M  END
>  <b_m_subgroup_collapsed>  (633) 
0

>  <r_i_docking_score>  (633) 
-8.0616205228532802

>  <s_m_subgroup_title>  (633) 
glide-dock_SP_D22_pv

>  <s_m_subgroupid>  (633) 
glide-dock_SP_D22_pv

>  <Molecule ChEMBL ID>  (633) 
CHEMBL3775534

>  <Standard Type>  (633) 
Ki

>  <Standard Value>  (633) 
5.75

>  <label>  (633) 
1

$$$$
CHEMBL553327
     RDKit          3D

  0  0  0  0  0  0  0  0  0  0999 V3000
M  V30 BEGIN CTAB
M  V30 COUNTS 54 57 0 0 1
M  V30 BEGIN ATOM
M  V30 1 O 7.819077 4.172373 -12.358751 0
M  V30 2 C 8.964276 4.620765 -12.370631 0
M  V30 3 C 9.440068 5.476604 -11.189867 0
M  V30 4 C 9.249348 4.761179 -9.830385 0
M  V30 5 C 9.902271 5.438972 -8.612836 0
M  V30 6 N 9.948589 6.892648 -8.823464 0 CFG=2 CHG=1
M  V30 7 C 11.194409 7.665942 -8.890215 0 CFG=1
M  V30 8 C 10.622256 8.991228 -9.429314 0
M  V30 9 C 9.162200 9.008914 -8.889385 0
M  V30 10 C 9.047009 7.731884 -8.067477 0 CFG=2
M  V30 11 C 9.481788 7.891580 -6.584807 0
M  V30 12 C 10.922511 8.441624 -6.394024 0 CFG=1
M  V30 13 O 10.886089 9.826122 -6.650870 0
M  V30 14 C 11.435958 8.238684 -4.957410 0
M  V30 15 C 11.685987 9.349299 -4.106488 0
M  V30 16 C 12.124996 9.170924 -2.785390 0
M  V30 17 C 12.331217 7.878736 -2.284490 0
M  V30 18 C 12.086101 6.765724 -3.107151 0
M  V30 19 C 11.649710 6.942893 -4.436039 0
M  V30 20 C 11.841503 7.801112 -7.477568 0
M  V30 21 C 9.932260 4.336701 -13.464748 0
M  V30 22 C 9.792409 3.143307 -14.209352 0
M  V30 23 C 10.670494 2.855909 -15.271987 0
M  V30 24 C 11.687082 3.767094 -15.611156 0
M  V30 25 F 12.523467 3.495612 -16.640196 0
M  V30 26 C 11.828773 4.963477 -14.883904 0
M  V30 27 C 10.951783 5.252093 -13.819794 0
M  V30 28 H 8.866905 6.404513 -11.212479 0
M  V30 29 H 10.485854 5.746284 -11.314101 0
M  V30 30 H 9.686027 3.772303 -9.899872 0
M  V30 31 H 8.181776 4.628603 -9.643094 0
M  V30 32 H 10.886032 5.036734 -8.446644 0
M  V30 33 H 9.334159 5.195595 -7.714940 0
M  V30 34 H 11.894338 7.227933 -9.602015 0
M  V30 35 H 11.219140 9.857672 -9.148790 0
M  V30 36 H 10.603116 8.972198 -10.520047 0
M  V30 37 H 8.887178 9.834557 -8.248609 0
M  V30 38 H 8.477053 8.998068 -9.734918 0
M  V30 39 H 8.086023 7.268695 -8.122540 0
M  V30 40 H 9.395736 6.917506 -6.102641 0
M  V30 41 H 8.756613 8.529296 -6.086005 0
M  V30 42 H 10.335666 10.231730 -5.999324 0
M  V30 43 H 11.544995 10.367233 -4.433625 0
M  V30 44 H 12.308043 10.029819 -2.156925 0
M  V30 45 H 12.680647 7.753931 -1.271735 0
M  V30 46 H 12.237416 5.772340 -2.715328 0
M  V30 47 H 11.461265 6.071496 -5.045120 0
M  V30 48 H 12.773954 8.362485 -7.553980 0
M  V30 49 H 12.103906 6.793156 -7.159931 0
M  V30 50 H 9.014931 2.433611 -13.962995 0
M  V30 51 H 10.562038 1.938146 -15.830747 0
M  V30 52 H 12.605693 5.665020 -15.150545 0
M  V30 53 H 11.068213 6.191097 -13.299894 0
M  V30 54 H 9.573408 6.969162 -9.758425 0
M  V30 END ATOM
M  V30 BEGIN BOND
M  V30 1 2 2 1
M  V30 2 1 3 2
M  V30 3 1 4 3
M  V30 4 1 5 4
M  V30 5 1 6 5
M  V30 6 1 7 6
M  V30 7 1 8 7
M  V30 8 1 9 8
M  V30 9 1 10 6
M  V30 10 1 10 9
M  V30 11 1 11 10
M  V30 12 1 12 11
M  V30 13 1 12 13 CFG=3
M  V30 14 1 14 12
M  V30 15 2 15 14
M  V30 16 1 16 15
M  V30 17 2 17 16
M  V30 18 1 18 17
M  V30 19 1 19 14
M  V30 20 2 19 18
M  V30 21 1 20 7
M  V30 22 1 20 12
M  V30 23 1 21 2
M  V30 24 1 22 21
M  V30 25 2 23 22
M  V30 26 1 24 23
M  V30 27 1 25 24
M  V30 28 2 26 24
M  V30 29 2 27 21
M  V30 30 1 27 26
M  V30 31 1 28 3
M  V30 32 1 29 3
M  V30 33 1 30 4
M  V30 34 1 31 4
M  V30 35 1 32 5
M  V30 36 1 33 5
M  V30 37 1 7 34 CFG=3
M  V30 38 1 35 8
M  V30 39 1 36 8
M  V30 40 1 37 9
M  V30 41 1 38 9
M  V30 42 1 10 39 CFG=1
M  V30 43 1 40 11
M  V30 44 1 41 11
M  V30 45 1 42 13
M  V30 46 1 43 15
M  V30 47 1 44 16
M  V30 48 1 45 17
M  V30 49 1 46 18
M  V30 50 1 47 19
M  V30 51 1 48 20
M  V30 52 1 49 20
M  V30 53 1 50 22
M  V30 54 1 51 23
M  V30 55 1 52 26
M  V30 56 1 53 27
M  V30 57 1 6 54 CFG=3
M  V30 END BOND
M  V30 END CTAB
M  END
>  <b_m_subgroup_collapsed>  (634) 
0

>  <r_i_docking_score>  (634) 
-8.0614108077847995

>  <s_m_subgroup_title>  (634) 
glide-dock_SP_D22_pv

>  <s_m_subgroupid>  (634) 
glide-dock_SP_D22_pv

>  <Molecule ChEMBL ID>  (634) 
CHEMBL553327

>  <Standard Type>  (634) 
Ki

>  <Standard Value>  (634) 
2.3

>  <label>  (634) 
1

$$$$
CHEMBL3344462
     RDKit          3D

  0  0  0  0  0  0  0  0  0  0999 V3000
M  V30 BEGIN CTAB
M  V30 COUNTS 53 56 0 0 1
M  V30 BEGIN ATOM
M  V30 1 C 12.604111 8.584593 -1.968564 0
M  V30 2 C 11.868649 9.219490 -3.155366 0
M  V30 3 C 12.177325 8.615658 -4.539760 0 CFG=1
M  V30 4 C 11.686293 7.154223 -4.659491 0
M  V30 5 C 11.611057 9.546429 -5.645883 0
M  V30 6 C 11.267617 8.913703 -6.959770 0
M  V30 7 C 10.025394 8.544645 -7.408366 0
M  V30 8 C 10.052209 8.016881 -8.732148 0
M  V30 9 C 11.298422 7.998796 -9.279015 0
M  V30 10 S 12.486030 8.572324 -8.163077 0
M  V30 11 C 11.626697 7.453096 -10.623760 0
M  V30 12 C 10.357122 7.109598 -11.461394 0 CFG=1
M  V30 13 C 10.651412 6.172659 -12.646856 0
M  V30 14 C 11.799009 6.371610 -13.446821 0
M  V30 15 C 12.131886 5.462756 -14.470683 0
M  V30 16 O 13.285942 5.646863 -15.177011 0
M  V30 17 C 11.311307 4.347729 -14.740402 0
M  V30 18 O 11.718771 3.476567 -15.730221 0
M  V30 19 C 11.042078 2.234183 -15.850948 0
M  V30 20 C 10.131626 4.175313 -13.976813 0
M  V30 21 C 9.801561 5.076731 -12.944131 0
M  V30 22 C 8.552893 4.819030 -12.123567 0
M  V30 23 C 8.126969 6.048690 -11.321738 0
M  V30 24 N 9.286645 6.571776 -10.565794 0 CFG=2 CHG=1
M  V30 25 C 8.886025 7.552662 -9.525036 0
M  V30 26 H 12.294193 9.072896 -1.046823 0
M  V30 27 H 13.682525 8.713860 -2.049802 0
M  V30 28 H 12.387012 7.522552 -1.862414 0
M  V30 29 H 10.800043 9.160869 -2.987335 0
M  V30 30 H 12.103856 10.283040 -3.156739 0
M  V30 31 H 13.261769 8.596211 -4.646882 0
M  V30 32 H 10.598443 7.092933 -4.646812 0
M  V30 33 H 12.064839 6.527264 -3.853431 0
M  V30 34 H 12.020912 6.689964 -5.587192 0
M  V30 35 H 10.704499 10.026104 -5.272504 0
M  V30 36 H 12.311599 10.365340 -5.815843 0
M  V30 37 H 9.107497 8.644973 -6.845749 0
M  V30 38 H 12.265452 8.153505 -11.162814 0
M  V30 39 H 12.229241 6.572333 -10.439822 0
M  V30 40 H 9.972305 8.036956 -11.889815 0
M  V30 41 H 12.457095 7.206057 -13.255031 0
M  V30 42 H 13.924519 6.169838 -14.712909 0
M  V30 43 H 11.550812 1.619643 -16.593801 0
M  V30 44 H 10.013430 2.371828 -16.184923 0
M  V30 45 H 11.046796 1.681968 -14.909766 0
M  V30 46 H 9.471889 3.339346 -14.153969 0
M  V30 47 H 7.738290 4.504663 -12.777566 0
M  V30 48 H 8.758014 3.984867 -11.453302 0
M  V30 49 H 7.737058 6.826317 -11.980834 0
M  V30 50 H 7.316280 5.772264 -10.646708 0
M  V30 51 H 8.135454 7.107458 -8.870497 0
M  V30 52 H 8.486022 8.433474 -10.020888 0
M  V30 53 H 9.682673 5.786090 -10.071648 0
M  V30 END ATOM
M  V30 BEGIN BOND
M  V30 1 1 2 1
M  V30 2 1 3 2
M  V30 3 1 4 3
M  V30 4 1 5 3
M  V30 5 1 6 5
M  V30 6 2 7 6
M  V30 7 1 8 7
M  V30 8 2 9 8
M  V30 9 1 10 6
M  V30 10 1 10 9
M  V30 11 1 11 9
M  V30 12 1 12 11
M  V30 13 1 13 12
M  V30 14 2 14 13
M  V30 15 1 15 14
M  V30 16 1 16 15
M  V30 17 2 17 15
M  V30 18 1 18 17
M  V30 19 1 19 18
M  V30 20 1 20 17
M  V30 21 1 21 13
M  V30 22 2 21 20
M  V30 23 1 22 21
M  V30 24 1 23 22
M  V30 25 1 24 12
M  V30 26 1 24 23
M  V30 27 1 25 8
M  V30 28 1 25 24
M  V30 29 1 26 1
M  V30 30 1 27 1
M  V30 31 1 28 1
M  V30 32 1 29 2
M  V30 33 1 30 2
M  V30 34 1 3 31 CFG=3
M  V30 35 1 32 4
M  V30 36 1 33 4
M  V30 37 1 34 4
M  V30 38 1 35 5
M  V30 39 1 36 5
M  V30 40 1 37 7
M  V30 41 1 38 11
M  V30 42 1 39 11
M  V30 43 1 12 40 CFG=3
M  V30 44 1 41 14
M  V30 45 1 42 16
M  V30 46 1 43 19
M  V30 47 1 44 19
M  V30 48 1 45 19
M  V30 49 1 46 20
M  V30 50 1 47 22
M  V30 51 1 48 22
M  V30 52 1 49 23
M  V30 53 1 50 23
M  V30 54 1 51 25
M  V30 55 1 52 25
M  V30 56 1 24 53 CFG=1
M  V30 END BOND
M  V30 END CTAB
M  END
>  <b_m_subgroup_collapsed>  (635) 
0

>  <r_i_docking_score>  (635) 
-8.0609634877543304

>  <s_m_subgroup_title>  (635) 
glide-dock_SP_D22_pv

>  <s_m_subgroupid>  (635) 
glide-dock_SP_D22_pv

>  <Molecule ChEMBL ID>  (635) 
CHEMBL3344462

>  <Standard Type>  (635) 
Ki

>  <Standard Value>  (635) 
29.1

>  <label>  (635) 
1

$$$$
CHEMBL404888
     RDKit          3D

  0  0  0  0  0  0  0  0  0  0999 V3000
M  V30 BEGIN CTAB
M  V30 COUNTS 51 53 0 0 1
M  V30 BEGIN ATOM
M  V30 1 C 5.387451 4.431700 -12.776277 0
M  V30 2 O 6.579197 3.788621 -13.192029 0
M  V30 3 C 7.769547 4.466499 -13.037241 0
M  V30 4 C 7.890088 5.694078 -12.335798 0
M  V30 5 C 9.137986 6.339797 -12.231387 0
M  V30 6 C 9.264600 7.641782 -11.457132 0
M  V30 7 N 9.286094 7.433573 -9.988297 0 CHG=1
M  V30 8 C 9.246819 8.716438 -9.242384 0
M  V30 9 C 9.169500 8.450152 -7.734560 0
M  V30 10 N 10.322584 7.660540 -7.327192 0
M  V30 11 C 10.874703 7.871471 -6.046046 0
M  V30 12 C 11.068967 9.187023 -5.557429 0
M  V30 13 C 11.576401 9.405689 -4.262955 0
M  V30 14 C 11.914974 8.312744 -3.445973 0
M  V30 15 Cl 12.486942 8.576353 -1.846741 0
M  V30 16 C 11.756344 7.001969 -3.924933 0
M  V30 17 C 11.246367 6.788586 -5.216865 0
M  V30 18 C 10.391695 6.361258 -7.983795 0
M  V30 19 C 10.372051 6.528051 -9.515493 0
M  V30 20 C 10.270291 5.766856 -12.840835 0
M  V30 21 C 10.165145 4.539736 -13.521055 0
M  V30 22 C 8.917669 3.875678 -13.613010 0
M  V30 23 O 8.742758 2.662379 -14.247200 0
M  V30 24 C 9.891089 1.937147 -14.661469 0
M  V30 25 C 9.439294 0.539180 -15.087766 0
M  V30 26 F 10.485532 -0.190541 -15.469797 0
M  V30 27 H 4.528578 3.820929 -13.056288 0
M  V30 28 H 5.361535 4.561190 -11.694830 0
M  V30 29 H 5.283655 5.403042 -13.260571 0
M  V30 30 H 7.037171 6.152821 -11.856421 0
M  V30 31 H 8.421403 8.282606 -11.722833 0
M  V30 32 H 10.166610 8.171270 -11.767854 0
M  V30 33 H 8.393374 9.320661 -9.556063 0
M  V30 34 H 10.142182 9.300173 -9.468137 0
M  V30 35 H 8.261512 7.892642 -7.494668 0
M  V30 36 H 9.091014 9.372440 -7.182946 0
M  V30 37 H 10.828387 10.047361 -6.162995 0
M  V30 38 H 11.686228 10.412200 -3.888642 0
M  V30 39 H 12.009922 6.160916 -3.295870 0
M  V30 40 H 11.118330 5.772684 -5.541065 0
M  V30 41 H 11.286038 5.816058 -7.694549 0
M  V30 42 H 9.538083 5.761822 -7.662474 0
M  V30 43 H 10.266550 5.541629 -9.964965 0
M  V30 44 H 11.330248 6.931930 -9.845614 0
M  V30 45 H 11.231464 6.258467 -12.778387 0
M  V30 46 H 11.058642 4.128652 -13.963865 0
M  V30 47 H 10.378025 2.447767 -15.494320 0
M  V30 48 H 10.612892 1.847617 -13.847510 0
M  V30 49 H 8.954590 0.016659 -14.263014 0
M  V30 50 H 8.742067 0.582103 -15.925197 0
M  V30 51 H 8.398958 6.988626 -9.774448 0
M  V30 END ATOM
M  V30 BEGIN BOND
M  V30 1 1 2 1
M  V30 2 1 3 2
M  V30 3 1 4 3
M  V30 4 2 5 4
M  V30 5 1 6 5
M  V30 6 1 7 6
M  V30 7 1 8 7
M  V30 8 1 9 8
M  V30 9 1 10 9
M  V30 10 1 11 10
M  V30 11 1 12 11
M  V30 12 2 13 12
M  V30 13 1 14 13
M  V30 14 1 15 14
M  V30 15 2 16 14
M  V30 16 2 17 11
M  V30 17 1 17 16
M  V30 18 1 18 10
M  V30 19 1 19 7
M  V30 20 1 19 18
M  V30 21 1 20 5
M  V30 22 2 21 20
M  V30 23 2 22 3
M  V30 24 1 22 21
M  V30 25 1 23 22
M  V30 26 1 24 23
M  V30 27 1 25 24
M  V30 28 1 26 25
M  V30 29 1 27 1
M  V30 30 1 28 1
M  V30 31 1 29 1
M  V30 32 1 30 4
M  V30 33 1 31 6
M  V30 34 1 32 6
M  V30 35 1 33 8
M  V30 36 1 34 8
M  V30 37 1 35 9
M  V30 38 1 36 9
M  V30 39 1 37 12
M  V30 40 1 38 13
M  V30 41 1 39 16
M  V30 42 1 40 17
M  V30 43 1 41 18
M  V30 44 1 42 18
M  V30 45 1 43 19
M  V30 46 1 44 19
M  V30 47 1 45 20
M  V30 48 1 46 21
M  V30 49 1 47 24
M  V30 50 1 48 24
M  V30 51 1 49 25
M  V30 52 1 50 25
M  V30 53 1 51 7
M  V30 END BOND
M  V30 END CTAB
M  END
>  <b_m_subgroup_collapsed>  (636) 
0

>  <r_i_docking_score>  (636) 
-8.0600708115384698

>  <s_m_subgroup_title>  (636) 
glide-dock_SP_D22_pv

>  <s_m_subgroupid>  (636) 
glide-dock_SP_D22_pv

>  <Molecule ChEMBL ID>  (636) 
CHEMBL404888

>  <Standard Type>  (636) 
Ki

>  <Standard Value>  (636) 
21000.0

>  <label>  (636) 
0

$$$$
CHEMBL2387229
     RDKit          3D

  0  0  0  0  0  0  0  0  0  0999 V3000
M  V30 BEGIN CTAB
M  V30 COUNTS 61 65 0 0 1
M  V30 BEGIN ATOM
M  V30 1 C 14.209734 3.623326 -19.181362 0
M  V30 2 C 13.307604 2.521567 -18.646385 0
M  V30 3 C 13.319937 1.284696 -19.174467 0
M  V30 4 C 12.479472 0.187190 -18.646715 0
M  V30 5 O 12.509845 -0.946020 -19.119610 0
M  V30 6 O 11.679893 0.500476 -17.581732 0
M  V30 7 C 11.626657 1.756950 -17.012941 0
M  V30 8 C 10.758689 1.980106 -15.916975 0
M  V30 9 Cl 9.814463 0.668618 -15.295459 0
M  V30 10 C 10.654748 3.258669 -15.321606 0
M  V30 11 O 9.764603 3.416173 -14.275956 0
M  V30 12 C 9.692958 4.684659 -13.636731 0
M  V30 13 C 8.657589 4.632618 -12.501758 0
M  V30 14 C 8.595278 5.910691 -11.637290 0
M  V30 15 C 9.871124 6.109723 -10.795273 0
M  V30 16 N 9.815010 7.260054 -9.857953 0 CFG=2 CHG=1
M  V30 17 C 11.174416 7.757148 -9.511719 0
M  V30 18 C 11.132550 8.981611 -8.589730 0
M  V30 19 C 10.269300 8.778448 -7.329795 0 CFG=2
M  V30 20 C 10.939549 7.985880 -6.227434 0
M  V30 21 N 11.165091 6.680687 -6.357587 0
M  V30 22 O 11.687313 6.204410 -5.124922 0
M  V30 23 C 11.838364 7.258679 -4.247092 0
M  V30 24 C 12.329275 7.309578 -2.937022 0
M  V30 25 C 12.411474 8.574553 -2.322610 0
M  V30 26 F 12.887064 8.679235 -1.058562 0
M  V30 27 C 12.000852 9.733479 -3.029111 0
M  V30 28 C 11.467461 9.650170 -4.335623 0
M  V30 29 C 11.397050 8.384579 -4.951181 0
M  V30 30 C 8.899194 8.191443 -7.724099 0
M  V30 31 C 9.047606 6.949437 -8.631349 0
M  V30 32 C 11.457373 4.310598 -15.831609 0
M  V30 33 C 12.331026 4.089458 -16.910908 0
M  V30 34 C 12.418555 2.815613 -17.511173 0
M  V30 35 H 13.618275 4.466922 -19.539660 0
M  V30 36 H 14.882834 3.977137 -18.399361 0
M  V30 37 H 14.820869 3.268849 -20.012247 0
M  V30 38 H 13.967946 1.050244 -20.007435 0
M  V30 39 H 10.678715 4.933104 -13.243501 0
M  V30 40 H 9.404747 5.455179 -14.354247 0
M  V30 41 H 7.672980 4.447740 -12.933883 0
M  V30 42 H 8.868443 3.775084 -11.861386 0
M  V30 43 H 8.414921 6.782989 -12.267532 0
M  V30 44 H 7.722826 5.827881 -10.987530 0
M  V30 45 H 10.087881 5.198076 -10.236702 0
M  V30 46 H 10.698808 6.269781 -11.483221 0
M  V30 47 H 11.726808 6.970739 -9.011962 0
M  V30 48 H 11.725566 8.008116 -10.418855 0
M  V30 49 H 12.141644 9.291021 -8.316009 0
M  V30 50 H 10.711623 9.790808 -9.182241 0
M  V30 51 H 10.085992 9.771958 -6.925669 0
M  V30 52 H 12.643701 6.413682 -2.423503 0
M  V30 53 H 12.085691 10.697060 -2.551872 0
M  V30 54 H 11.146075 10.540533 -4.853295 0
M  V30 55 H 8.309096 7.954172 -6.835973 0
M  V30 56 H 8.336166 8.953102 -8.264050 0
M  V30 57 H 8.085900 6.571908 -8.924858 0
M  V30 58 H 9.505087 6.114586 -8.106501 0
M  V30 59 H 11.417747 5.305126 -15.416072 0
M  V30 60 H 12.924532 4.915592 -17.270784 0
M  V30 61 H 9.322007 8.004478 -10.331093 0
M  V30 END ATOM
M  V30 BEGIN BOND
M  V30 1 1 2 1
M  V30 2 2 3 2
M  V30 3 1 4 3
M  V30 4 2 5 4
M  V30 5 1 6 4
M  V30 6 1 7 6
M  V30 7 1 8 7
M  V30 8 1 9 8
M  V30 9 2 10 8
M  V30 10 1 11 10
M  V30 11 1 12 11
M  V30 12 1 13 12
M  V30 13 1 14 13
M  V30 14 1 15 14
M  V30 15 1 16 15
M  V30 16 1 17 16
M  V30 17 1 18 17
M  V30 18 1 19 18
M  V30 19 1 20 19
M  V30 20 2 21 20
M  V30 21 1 22 21
M  V30 22 1 23 22
M  V30 23 1 24 23
M  V30 24 2 25 24
M  V30 25 1 26 25
M  V30 26 1 27 25
M  V30 27 2 28 27
M  V30 28 1 29 20
M  V30 29 2 29 23
M  V30 30 1 29 28
M  V30 31 1 30 19
M  V30 32 1 31 16
M  V30 33 1 31 30
M  V30 34 1 32 10
M  V30 35 2 33 32
M  V30 36 1 34 2
M  V30 37 2 34 7
M  V30 38 1 34 33
M  V30 39 1 35 1
M  V30 40 1 36 1
M  V30 41 1 37 1
M  V30 42 1 38 3
M  V30 43 1 39 12
M  V30 44 1 40 12
M  V30 45 1 41 13
M  V30 46 1 42 13
M  V30 47 1 43 14
M  V30 48 1 44 14
M  V30 49 1 45 15
M  V30 50 1 46 15
M  V30 51 1 47 17
M  V30 52 1 48 17
M  V30 53 1 49 18
M  V30 54 1 50 18
M  V30 55 1 19 51 CFG=1
M  V30 56 1 52 24
M  V30 57 1 53 27
M  V30 58 1 54 28
M  V30 59 1 55 30
M  V30 60 1 56 30
M  V30 61 1 57 31
M  V30 62 1 58 31
M  V30 63 1 59 32
M  V30 64 1 60 33
M  V30 65 1 16 61 CFG=3
M  V30 END BOND
M  V30 END CTAB
M  END
>  <b_m_subgroup_collapsed>  (637) 
0

>  <r_i_docking_score>  (637) 
-8.05592365208026

>  <s_m_subgroup_title>  (637) 
glide-dock_SP_D22_pv

>  <s_m_subgroupid>  (637) 
glide-dock_SP_D22_pv

>  <Molecule ChEMBL ID>  (637) 
CHEMBL2387229

>  <Standard Type>  (637) 
Ki

>  <Standard Value>  (637) 
2.6

>  <label>  (637) 
1

$$$$
CHEMBL133830
     RDKit          3D

  0  0  0  0  0  0  0  0  0  0999 V3000
M  V30 BEGIN CTAB
M  V30 COUNTS 26 27 0 0 1
M  V30 BEGIN ATOM
M  V30 1 N 8.885959 8.571496 -7.308038 0 CHG=1
M  V30 2 C 10.314836 8.798929 -7.604569 0 CFG=2
M  V30 3 C 11.015799 7.453329 -7.805823 0
M  V30 4 C 10.987523 6.607674 -6.524301 0
M  V30 5 C 11.315946 7.389601 -5.259813 0
M  V30 6 C 11.686078 6.678114 -4.104596 0
M  V30 7 C 12.079751 7.344721 -2.933553 0
M  V30 8 C 12.085887 8.747805 -2.898862 0
M  V30 9 O 12.485776 9.372230 -1.753523 0
M  V30 10 C 11.686920 9.475919 -4.040827 0
M  V30 11 C 11.319959 8.804045 -5.230849 0
M  V30 12 C 11.025031 9.603756 -6.490567 0
M  V30 13 H 8.789663 8.046368 -6.450754 0
M  V30 14 H 8.392870 9.447090 -7.210180 0
M  V30 15 H 10.357751 9.370763 -8.532748 0
M  V30 16 H 10.579721 6.897269 -8.637031 0
M  V30 17 H 12.053764 7.644156 -8.080999 0
M  V30 18 H 11.684633 5.773459 -6.624703 0
M  V30 19 H 9.997161 6.172113 -6.392515 0
M  V30 20 H 11.702868 5.605997 -4.128154 0
M  V30 21 H 12.377712 6.776484 -2.064622 0
M  V30 22 H 12.805220 10.264141 -1.847435 0
M  V30 23 H 11.685608 10.555023 -4.010808 0
M  V30 24 H 10.486105 10.514919 -6.237927 0
M  V30 25 H 11.991824 9.937373 -6.870238 0
M  V30 26 H 8.438042 8.044132 -8.049675 0
M  V30 END ATOM
M  V30 BEGIN BOND
M  V30 1 1 2 1
M  V30 2 1 3 2
M  V30 3 1 4 3
M  V30 4 1 5 4
M  V30 5 1 6 5
M  V30 6 2 7 6
M  V30 7 1 8 7
M  V30 8 1 9 8
M  V30 9 2 10 8
M  V30 10 2 11 5
M  V30 11 1 11 10
M  V30 12 1 12 2
M  V30 13 1 12 11
M  V30 14 1 13 1
M  V30 15 1 14 1
M  V30 16 1 2 15 CFG=3
M  V30 17 1 16 3
M  V30 18 1 17 3
M  V30 19 1 18 4
M  V30 20 1 19 4
M  V30 21 1 20 6
M  V30 22 1 21 7
M  V30 23 1 22 9
M  V30 24 1 23 10
M  V30 25 1 24 12
M  V30 26 1 25 12
M  V30 27 1 26 1
M  V30 END BOND
M  V30 END CTAB
M  END
>  <b_m_subgroup_collapsed>  (638) 
0

>  <r_i_docking_score>  (638) 
-8.0559204539849603

>  <s_m_subgroup_title>  (638) 
glide-dock_SP_D22_pv

>  <s_m_subgroupid>  (638) 
glide-dock_SP_D22_pv

>  <Molecule ChEMBL ID>  (638) 
CHEMBL133830

>  <Standard Type>  (638) 
Ki

>  <Standard Value>  (638) 
3.3

>  <label>  (638) 
1

$$$$
CHEMBL106660
     RDKit          3D

  0  0  0  0  0  0  0  0  0  0999 V3000
M  V30 BEGIN CTAB
M  V30 COUNTS 65 69 0 0 1
M  V30 BEGIN ATOM
M  V30 1 Cl 5.816206 1.197738 -13.846303 0
M  V30 2 C 7.378250 1.279056 -14.572800 0
M  V30 3 C 7.890294 0.171429 -15.261933 0
M  V30 4 C 9.208922 0.175978 -15.755518 0
M  V30 5 C 10.012959 1.318639 -15.573633 0
M  V30 6 C 9.491987 2.459012 -14.918740 0
M  V30 7 C 10.363220 3.690091 -14.710623 0 CFG=2
M  V30 8 O 9.703213 4.699471 -13.933434 0
M  V30 9 C 10.264655 4.997608 -12.657924 0 CFG=1
M  V30 10 C 10.366471 6.528057 -12.494834 0
M  V30 11 C 9.052320 7.162868 -11.962508 0 CFG=1
M  V30 12 C 7.822742 6.799245 -12.816274 0
M  V30 13 C 7.214747 5.573466 -12.117176 0
M  V30 14 C 8.225886 5.223883 -11.017697 0 CFG=1
M  V30 15 C 9.421740 4.352005 -11.520864 0
M  V30 16 N 8.698462 6.572527 -10.652660 0 CFG=1 CHG=1
M  V30 17 C 9.645453 6.720839 -9.514786 0
M  V30 18 C 9.747900 8.190393 -9.036071 0
M  V30 19 C 11.116117 8.593332 -8.451973 0
M  V30 20 C 11.256489 8.408593 -6.949060 0
M  V30 21 C 11.083090 7.139171 -6.359591 0
M  V30 22 C 11.286202 6.970455 -4.977205 0
M  V30 23 C 11.686187 8.058532 -4.179546 0
M  V30 24 C 11.826090 9.332934 -4.754149 0
M  V30 25 C 11.613577 9.508590 -6.135224 0
M  V30 26 C 10.828865 4.278442 -16.032520 0
M  V30 27 C 9.916332 4.972140 -16.857023 0
M  V30 28 C 10.344151 5.521159 -18.082726 0
M  V30 29 C 11.684918 5.374068 -18.489670 0
M  V30 30 C 12.596668 4.676957 -17.673483 0
M  V30 31 C 12.171012 4.128038 -16.447929 0
M  V30 32 C 8.167497 2.429930 -14.435255 0
M  V30 33 H 7.273086 -0.706104 -15.378740 0
M  V30 34 H 9.604897 -0.693964 -16.258589 0
M  V30 35 H 11.029130 1.320602 -15.940867 0
M  V30 36 H 11.248773 3.306001 -14.203958 0
M  V30 37 H 11.285632 4.620856 -12.646968 0
M  V30 38 H 10.694322 6.971537 -13.434028 0
M  V30 39 H 11.180948 6.766216 -11.812618 0
M  V30 40 H 9.157331 8.245568 -11.914908 0
M  V30 41 H 8.086011 6.578280 -13.846257 0
M  V30 42 H 7.100121 7.617212 -12.827208 0
M  V30 43 H 6.983255 4.756829 -12.788124 0
M  V30 44 H 6.266981 5.856905 -11.657301 0
M  V30 45 H 7.690836 4.743415 -10.194895 0
M  V30 46 H 10.077496 4.151486 -10.674974 0
M  V30 47 H 9.076105 3.374914 -11.849451 0
M  V30 48 H 10.624264 6.317838 -9.765944 0
M  V30 49 H 9.277715 6.108726 -8.690982 0
M  V30 50 H 8.936560 8.433806 -8.347562 0
M  V30 51 H 9.593350 8.850602 -9.886417 0
M  V30 52 H 11.284426 9.646034 -8.681739 0
M  V30 53 H 11.926948 8.064475 -8.952092 0
M  V30 54 H 10.817204 6.281797 -6.958454 0
M  V30 55 H 11.160441 5.994190 -4.530704 0
M  V30 56 H 11.853832 7.919621 -3.121917 0
M  V30 57 H 12.098961 10.171269 -4.131875 0
M  V30 58 H 11.749237 10.487905 -6.568814 0
M  V30 59 H 8.886582 5.090993 -16.548647 0
M  V30 60 H 9.647457 6.058344 -18.708834 0
M  V30 61 H 12.013550 5.797105 -19.427610 0
M  V30 62 H 13.623880 4.559245 -17.986843 0
M  V30 63 H 12.877711 3.590158 -15.832297 0
M  V30 64 H 7.753875 3.276967 -13.927588 0
M  V30 65 H 7.852006 7.072460 -10.361526 0
M  V30 END ATOM
M  V30 BEGIN BOND
M  V30 1 1 2 1
M  V30 2 1 3 2
M  V30 3 2 4 3
M  V30 4 1 5 4
M  V30 5 2 6 5
M  V30 6 1 7 6
M  V30 7 1 8 7
M  V30 8 1 9 8
M  V30 9 1 10 9
M  V30 10 1 11 10
M  V30 11 1 12 11
M  V30 12 1 13 12
M  V30 13 1 14 13
M  V30 14 1 15 9
M  V30 15 1 15 14
M  V30 16 1 16 11
M  V30 17 1 16 14
M  V30 18 1 17 16
M  V30 19 1 18 17
M  V30 20 1 19 18
M  V30 21 1 20 19
M  V30 22 2 21 20
M  V30 23 1 22 21
M  V30 24 2 23 22
M  V30 25 1 24 23
M  V30 26 1 25 20
M  V30 27 2 25 24
M  V30 28 1 26 7
M  V30 29 2 27 26
M  V30 30 1 28 27
M  V30 31 2 29 28
M  V30 32 1 30 29
M  V30 33 1 31 26
M  V30 34 2 31 30
M  V30 35 2 32 2
M  V30 36 1 32 6
M  V30 37 1 33 3
M  V30 38 1 34 4
M  V30 39 1 35 5
M  V30 40 1 7 36 CFG=1
M  V30 41 1 9 37 CFG=3
M  V30 42 1 38 10
M  V30 43 1 39 10
M  V30 44 1 11 40 CFG=1
M  V30 45 1 41 12
M  V30 46 1 42 12
M  V30 47 1 43 13
M  V30 48 1 44 13
M  V30 49 1 14 45 CFG=1
M  V30 50 1 46 15
M  V30 51 1 47 15
M  V30 52 1 48 17
M  V30 53 1 49 17
M  V30 54 1 50 18
M  V30 55 1 51 18
M  V30 56 1 52 19
M  V30 57 1 53 19
M  V30 58 1 54 21
M  V30 59 1 55 22
M  V30 60 1 56 23
M  V30 61 1 57 24
M  V30 62 1 58 25
M  V30 63 1 59 27
M  V30 64 1 60 28
M  V30 65 1 61 29
M  V30 66 1 62 30
M  V30 67 1 63 31
M  V30 68 1 64 32
M  V30 69 1 16 65 CFG=1
M  V30 END BOND
M  V30 END CTAB
M  END
>  <b_m_subgroup_collapsed>  (639) 
0

>  <r_i_docking_score>  (639) 
-8.0544406624588891

>  <s_m_subgroup_title>  (639) 
glide-dock_SP_D22_pv

>  <s_m_subgroupid>  (639) 
glide-dock_SP_D22_pv

>  <Molecule ChEMBL ID>  (639) 
CHEMBL106660

>  <Standard Type>  (639) 
Ki

>  <Standard Value>  (639) 
59.0

>  <label>  (639) 
1

$$$$
CHEMBL68191
     RDKit          3D

  0  0  0  0  0  0  0  0  0  0999 V3000
M  V30 BEGIN CTAB
M  V30 COUNTS 54 57 0 0 1
M  V30 BEGIN ATOM
M  V30 1 C 14.637582 6.738061 -16.647348 0
M  V30 2 C 13.121832 6.988194 -16.695478 0
M  V30 3 N 12.419729 6.269728 -15.613608 0
M  V30 4 C 12.171232 6.931290 -14.438938 0
M  V30 5 O 12.487545 8.110839 -14.280159 0
M  V30 6 C 11.502608 6.165677 -13.261000 0 CFG=1
M  V30 7 N 10.855000 7.027778 -12.197240 0
M  V30 8 C 11.832253 7.684128 -11.295832 0
M  V30 9 C 11.153230 8.541103 -10.202230 0
M  V30 10 N 10.169168 7.753126 -9.425579 0 CHG=1
M  V30 11 C 9.536151 8.492926 -8.306144 0
M  V30 12 C 10.331914 8.337424 -7.023081 0
M  V30 13 C 11.116166 9.394458 -6.515402 0
M  V30 14 C 11.783825 9.252352 -5.284129 0
M  V30 15 C 11.687736 8.045386 -4.565081 0
M  V30 16 Cl 12.482739 7.875091 -3.046498 0
M  V30 17 C 10.945788 6.972551 -5.090356 0
M  V30 18 C 10.258331 7.122582 -6.309923 0
M  V30 19 C 9.174265 7.193064 -10.354137 0
M  V30 20 C 9.859831 6.300147 -11.386356 0
M  V30 21 C 10.554206 5.075678 -13.815654 0
M  V30 22 C 11.143344 4.264076 -14.936131 0
M  V30 23 C 10.767929 2.914875 -15.109091 0
M  V30 24 C 11.279646 2.175320 -16.187700 0
M  V30 25 C 12.155543 2.791403 -17.098192 0
M  V30 26 C 12.533648 4.135771 -16.919197 0
M  V30 27 C 12.042802 4.894807 -15.822507 0
M  V30 28 H 15.156291 7.361099 -17.374294 0
M  V30 29 H 15.031255 6.965514 -15.659765 0
M  V30 30 H 14.898963 5.703181 -16.857445 0
M  V30 31 H 12.717430 6.698822 -17.665249 0
M  V30 32 H 12.934827 8.062712 -16.656181 0
M  V30 33 H 12.338114 5.641734 -12.803612 0
M  V30 34 H 12.485462 6.972247 -10.805794 0
M  V30 35 H 12.506748 8.332052 -11.850637 0
M  V30 36 H 11.908119 8.958562 -9.535635 0
M  V30 37 H 10.637403 9.372290 -10.665442 0
M  V30 38 H 9.395400 9.542045 -8.562762 0
M  V30 39 H 8.536133 8.101226 -8.105006 0
M  V30 40 H 11.205562 10.327466 -7.047462 0
M  V30 41 H 12.372777 10.067785 -4.891749 0
M  V30 42 H 10.883943 6.041564 -4.544902 0
M  V30 43 H 9.659898 6.303113 -6.681099 0
M  V30 44 H 8.474392 6.578583 -9.792831 0
M  V30 45 H 8.605212 7.987521 -10.843570 0
M  V30 46 H 9.048892 5.927063 -12.011767 0
M  V30 47 H 10.298509 5.440538 -10.884674 0
M  V30 48 H 9.633865 5.525599 -14.187718 0
M  V30 49 H 10.281953 4.365062 -13.034678 0
M  V30 50 H 10.084204 2.446275 -14.414450 0
M  V30 51 H 10.994274 1.142282 -16.320938 0
M  V30 52 H 12.543031 2.229149 -17.934479 0
M  V30 53 H 13.207677 4.557572 -17.646214 0
M  V30 54 H 10.649570 6.965720 -9.014126 0
M  V30 END ATOM
M  V30 BEGIN BOND
M  V30 1 1 2 1
M  V30 2 1 3 2
M  V30 3 1 4 3
M  V30 4 2 5 4
M  V30 5 1 6 4
M  V30 6 1 7 6
M  V30 7 1 8 7
M  V30 8 1 9 8
M  V30 9 1 10 9
M  V30 10 1 11 10
M  V30 11 1 12 11
M  V30 12 1 13 12
M  V30 13 2 14 13
M  V30 14 1 15 14
M  V30 15 1 16 15
M  V30 16 2 17 15
M  V30 17 2 18 12
M  V30 18 1 18 17
M  V30 19 1 19 10
M  V30 20 1 20 7
M  V30 21 1 20 19
M  V30 22 1 21 6
M  V30 23 1 22 21
M  V30 24 2 23 22
M  V30 25 1 24 23
M  V30 26 2 25 24
M  V30 27 1 26 25
M  V30 28 1 27 3
M  V30 29 1 27 22
M  V30 30 2 27 26
M  V30 31 1 28 1
M  V30 32 1 29 1
M  V30 33 1 30 1
M  V30 34 1 31 2
M  V30 35 1 32 2
M  V30 36 1 6 33 CFG=1
M  V30 37 1 34 8
M  V30 38 1 35 8
M  V30 39 1 36 9
M  V30 40 1 37 9
M  V30 41 1 38 11
M  V30 42 1 39 11
M  V30 43 1 40 13
M  V30 44 1 41 14
M  V30 45 1 42 17
M  V30 46 1 43 18
M  V30 47 1 44 19
M  V30 48 1 45 19
M  V30 49 1 46 20
M  V30 50 1 47 20
M  V30 51 1 48 21
M  V30 52 1 49 21
M  V30 53 1 50 23
M  V30 54 1 51 24
M  V30 55 1 52 25
M  V30 56 1 53 26
M  V30 57 1 54 10
M  V30 END BOND
M  V30 END CTAB
M  END
>  <b_m_subgroup_collapsed>  (640) 
0

>  <r_i_docking_score>  (640) 
-8.0517571121824698

>  <s_m_subgroup_title>  (640) 
glide-dock_SP_D22_pv

>  <s_m_subgroupid>  (640) 
glide-dock_SP_D22_pv

>  <Molecule ChEMBL ID>  (640) 
CHEMBL68191

>  <Standard Type>  (640) 
Ki

>  <Standard Value>  (640) 
21.0

>  <label>  (640) 
1

$$$$
CHEMBL458992
     RDKit          3D

  0  0  0  0  0  0  0  0  0  0999 V3000
M  V30 BEGIN CTAB
M  V30 COUNTS 63 66 0 0 1
M  V30 BEGIN ATOM
M  V30 1 C 5.301453 2.452522 -12.707950 0
M  V30 2 O 5.696797 1.304936 -13.446084 0
M  V30 3 C 6.815183 1.401504 -14.246382 0
M  V30 4 C 7.193699 0.247106 -14.961303 0
M  V30 5 C 8.329340 0.258629 -15.793585 0
M  V30 6 C 9.101652 1.424657 -15.918812 0
M  V30 7 C 8.740021 2.585371 -15.207157 0
M  V30 8 C 9.569350 3.843885 -15.357497 0
M  V30 9 C 10.934008 3.748047 -14.658998 0
M  V30 10 C 11.758440 4.994930 -14.923207 0
M  V30 11 C 12.553920 5.046779 -16.088425 0
M  V30 12 C 13.258699 6.217731 -16.417318 0
M  V30 13 C 13.170393 7.340147 -15.579416 0
M  V30 14 C 12.405440 7.285361 -14.398708 0
M  V30 15 C 11.685249 6.110885 -14.056272 0
M  V30 16 O 10.872420 6.007323 -12.943429 0
M  V30 17 C 10.918190 7.049057 -11.975986 0
M  V30 18 C 10.135496 6.649662 -10.706567 0
M  V30 19 N 10.180977 7.692109 -9.680902 0
M  V30 20 C 11.515128 7.867046 -9.094399 0
M  V30 21 C 11.500408 9.102507 -8.180531 0
M  V30 22 N 10.499818 8.970347 -7.129372 0
M  V30 23 C 10.992862 8.625078 -5.865972 0
M  V30 24 C 11.386033 9.661385 -4.993461 0
M  V30 25 C 11.897482 9.362823 -3.714963 0
M  V30 26 C 12.041183 8.021674 -3.313805 0
M  V30 27 F 12.486275 7.735235 -2.069154 0
M  V30 28 C 11.685900 6.981153 -4.192992 0
M  V30 29 C 11.146593 7.279701 -5.461730 0
M  V30 30 C 9.185758 8.495870 -7.561170 0
M  V30 31 C 9.286441 7.330216 -8.573364 0
M  V30 32 C 7.599205 2.575270 -14.377417 0
M  V30 33 H 4.484307 2.171846 -12.051734 0
M  V30 34 H 6.088777 2.835397 -12.062990 0
M  V30 35 H 4.954786 3.250405 -13.365861 0
M  V30 36 H 6.612672 -0.658767 -14.869039 0
M  V30 37 H 8.606890 -0.627641 -16.339813 0
M  V30 38 H 9.972501 1.426883 -16.560520 0
M  V30 39 H 9.017529 4.699870 -14.970931 0
M  V30 40 H 9.710779 4.029920 -16.421671 0
M  V30 41 H 11.485088 2.880066 -15.022551 0
M  V30 42 H 10.804204 3.594429 -13.587358 0
M  V30 43 H 12.603969 4.194074 -16.749983 0
M  V30 44 H 13.851046 6.259806 -17.319700 0
M  V30 45 H 13.685916 8.251326 -15.844460 0
M  V30 46 H 12.371551 8.171870 -13.787948 0
M  V30 47 H 11.963115 7.245454 -11.741268 0
M  V30 48 H 10.485612 7.958289 -12.394414 0
M  V30 49 H 9.094417 6.486882 -10.990612 0
M  V30 50 H 10.485818 5.705465 -10.294750 0
M  V30 51 H 11.799473 6.972639 -8.536808 0
M  V30 52 H 12.275322 8.033479 -9.855911 0
M  V30 53 H 12.490142 9.248527 -7.746791 0
M  V30 54 H 11.285750 9.988102 -8.774870 0
M  V30 55 H 11.279430 10.692792 -5.301547 0
M  V30 56 H 12.173391 10.163038 -3.043539 0
M  V30 57 H 11.793410 5.952158 -3.882341 0
M  V30 58 H 10.866489 6.473535 -6.122433 0
M  V30 59 H 8.589378 8.191760 -6.700606 0
M  V30 60 H 8.654716 9.329127 -8.022738 0
M  V30 61 H 8.296021 7.099446 -8.961098 0
M  V30 62 H 9.639565 6.421442 -8.083495 0
M  V30 63 H 7.344243 3.480350 -13.849281 0
M  V30 END ATOM
M  V30 BEGIN BOND
M  V30 1 1 2 1
M  V30 2 1 3 2
M  V30 3 2 4 3
M  V30 4 1 5 4
M  V30 5 2 6 5
M  V30 6 1 7 6
M  V30 7 1 8 7
M  V30 8 1 9 8
M  V30 9 1 10 9
M  V30 10 2 11 10
M  V30 11 1 12 11
M  V30 12 2 13 12
M  V30 13 1 14 13
M  V30 14 1 15 10
M  V30 15 2 15 14
M  V30 16 1 16 15
M  V30 17 1 17 16
M  V30 18 1 18 17
M  V30 19 1 19 18
M  V30 20 1 20 19
M  V30 21 1 21 20
M  V30 22 1 22 21
M  V30 23 1 23 22
M  V30 24 1 24 23
M  V30 25 2 25 24
M  V30 26 1 26 25
M  V30 27 1 27 26
M  V30 28 2 28 26
M  V30 29 2 29 23
M  V30 30 1 29 28
M  V30 31 1 30 22
M  V30 32 1 31 19
M  V30 33 1 31 30
M  V30 34 1 32 3
M  V30 35 2 32 7
M  V30 36 1 33 1
M  V30 37 1 34 1
M  V30 38 1 35 1
M  V30 39 1 36 4
M  V30 40 1 37 5
M  V30 41 1 38 6
M  V30 42 1 39 8
M  V30 43 1 40 8
M  V30 44 1 41 9
M  V30 45 1 42 9
M  V30 46 1 43 11
M  V30 47 1 44 12
M  V30 48 1 45 13
M  V30 49 1 46 14
M  V30 50 1 47 17
M  V30 51 1 48 17
M  V30 52 1 49 18
M  V30 53 1 50 18
M  V30 54 1 51 20
M  V30 55 1 52 20
M  V30 56 1 53 21
M  V30 57 1 54 21
M  V30 58 1 55 24
M  V30 59 1 56 25
M  V30 60 1 57 28
M  V30 61 1 58 29
M  V30 62 1 59 30
M  V30 63 1 60 30
M  V30 64 1 61 31
M  V30 65 1 62 31
M  V30 66 1 63 32
M  V30 END BOND
M  V30 END CTAB
M  END
>  <b_m_subgroup_collapsed>  (641) 
0

>  <r_i_docking_score>  (641) 
-8.0514347945987392

>  <s_m_subgroup_title>  (641) 
glide-dock_SP_D22_pv

>  <s_m_subgroupid>  (641) 
glide-dock_SP_D22_pv

>  <Molecule ChEMBL ID>  (641) 
CHEMBL458992

>  <Standard Type>  (641) 
Ki

>  <Standard Value>  (641) 
1000000.0

>  <label>  (641) 
0

$$$$
CHEMBL113229
     RDKit          3D

  0  0  0  0  0  0  0  0  0  0999 V3000
M  V30 BEGIN CTAB
M  V30 COUNTS 61 64 0 0 1
M  V30 BEGIN ATOM
M  V30 1 C 10.278419 5.614939 -8.421049 0
M  V30 2 C 9.293635 6.692042 -7.889770 0
M  V30 3 N 9.760386 8.112779 -7.976819 0 CFG=1 CHG=1
M  V30 4 C 11.125047 8.393766 -7.446621 0
M  V30 5 C 11.285730 8.227798 -5.935967 0
M  V30 6 C 11.337393 6.929572 -5.362910 0
M  V30 7 C 11.685759 6.741369 -4.012826 0
M  V30 8 C 11.921287 7.865859 -3.231354 0
M  V30 9 C 11.820131 9.135118 -3.750657 0
M  V30 10 C 11.503608 9.361089 -5.105668 0
M  V30 11 O 12.085812 10.022225 -2.761493 0
M  V30 12 C 12.424664 9.255211 -1.626880 0
M  V30 13 O 12.247571 7.905389 -1.920377 0
M  V30 14 C 9.498943 8.771383 -9.291105 0
M  V30 15 C 10.002853 8.015886 -10.478791 0
M  V30 16 C 11.239075 7.894776 -11.046846 0
M  V30 17 C 11.135113 6.972421 -12.132619 0
M  V30 18 C 9.853312 6.486317 -12.168845 0
M  V30 19 C 9.213042 5.422060 -12.962419 0
M  V30 20 C 9.990989 4.753346 -13.936309 0
M  V30 21 C 9.439739 3.715837 -14.711098 0
M  V30 22 S 10.424150 2.885378 -15.945810 0
M  V30 23 O 9.544905 2.594988 -17.088816 0
M  V30 24 O 11.657290 3.662150 -16.145117 0
M  V30 25 C 10.886070 1.294458 -15.151413 0
M  V30 26 C 9.717357 0.313264 -15.040203 0
M  V30 27 C 8.118086 3.297571 -14.507295 0
M  V30 28 C 7.330099 3.948125 -13.549376 0
M  V30 29 C 7.857254 5.016978 -12.781294 0
M  V30 30 O 7.090227 5.672810 -11.847461 0
M  V30 31 C 5.686287 5.478069 -11.862383 0
M  V30 32 N 9.165483 7.201488 -11.209725 0
M  V30 33 H 9.867039 4.622733 -8.246630 0
M  V30 34 H 10.419280 5.659256 -9.494488 0
M  V30 35 H 11.282230 5.650986 -7.986651 0
M  V30 36 H 9.056815 6.476059 -6.848723 0
M  V30 37 H 8.344697 6.594456 -8.417171 0
M  V30 38 H 11.387388 9.426088 -7.677438 0
M  V30 39 H 11.874785 7.795153 -7.963274 0
M  V30 40 H 11.187905 6.044244 -5.952182 0
M  V30 41 H 11.760163 5.770486 -3.568977 0
M  V30 42 H 11.478100 10.365443 -5.499860 0
M  V30 43 H 11.800208 9.530075 -0.778880 0
M  V30 44 H 13.475249 9.372169 -1.364659 0
M  V30 45 H 8.427548 8.925198 -9.390083 0
M  V30 46 H 9.924246 9.772220 -9.303524 0
M  V30 47 H 12.130141 8.411657 -10.718827 0
M  V30 48 H 11.942787 6.650297 -12.773214 0
M  V30 49 H 11.018081 5.038508 -14.101801 0
M  V30 50 H 11.682319 0.863185 -15.758887 0
M  V30 51 H 11.286654 1.518415 -14.164016 0
M  V30 52 H 10.080363 -0.632210 -14.647242 0
M  V30 53 H 8.947823 0.669991 -14.356755 0
M  V30 54 H 9.258274 0.119029 -16.009462 0
M  V30 55 H 7.699328 2.496631 -15.098407 0
M  V30 56 H 6.314928 3.606498 -13.425940 0
M  V30 57 H 5.222273 6.167511 -11.160969 0
M  V30 58 H 5.286087 5.687208 -12.854335 0
M  V30 59 H 5.413002 4.467205 -11.558722 0
M  V30 60 H 8.169951 7.081786 -11.032089 0
M  V30 61 H 9.142298 8.607175 -7.348024 0
M  V30 END ATOM
M  V30 BEGIN BOND
M  V30 1 1 2 1
M  V30 2 1 3 2
M  V30 3 1 4 3
M  V30 4 1 5 4
M  V30 5 1 6 5
M  V30 6 2 7 6
M  V30 7 1 8 7
M  V30 8 2 9 8
M  V30 9 2 10 5
M  V30 10 1 10 9
M  V30 11 1 11 9
M  V30 12 1 12 11
M  V30 13 1 13 8
M  V30 14 1 13 12
M  V30 15 1 14 3
M  V30 16 1 15 14
M  V30 17 2 16 15
M  V30 18 1 17 16
M  V30 19 2 18 17
M  V30 20 1 19 18
M  V30 21 1 20 19
M  V30 22 2 21 20
M  V30 23 1 22 21
M  V30 24 2 23 22
M  V30 25 2 24 22
M  V30 26 1 25 22
M  V30 27 1 26 25
M  V30 28 1 27 21
M  V30 29 2 28 27
M  V30 30 2 29 19
M  V30 31 1 29 28
M  V30 32 1 30 29
M  V30 33 1 31 30
M  V30 34 1 32 15
M  V30 35 1 32 18
M  V30 36 1 33 1
M  V30 37 1 34 1
M  V30 38 1 35 1
M  V30 39 1 36 2
M  V30 40 1 37 2
M  V30 41 1 38 4
M  V30 42 1 39 4
M  V30 43 1 40 6
M  V30 44 1 41 7
M  V30 45 1 42 10
M  V30 46 1 43 12
M  V30 47 1 44 12
M  V30 48 1 45 14
M  V30 49 1 46 14
M  V30 50 1 47 16
M  V30 51 1 48 17
M  V30 52 1 49 20
M  V30 53 1 50 25
M  V30 54 1 51 25
M  V30 55 1 52 26
M  V30 56 1 53 26
M  V30 57 1 54 26
M  V30 58 1 55 27
M  V30 59 1 56 28
M  V30 60 1 57 31
M  V30 61 1 58 31
M  V30 62 1 59 31
M  V30 63 1 60 32
M  V30 64 1 3 61 CFG=1
M  V30 END BOND
M  V30 END CTAB
M  END
>  <b_m_subgroup_collapsed>  (642) 
0

>  <r_i_docking_score>  (642) 
-8.0504229582478892

>  <s_m_subgroup_title>  (642) 
glide-dock_SP_D22_pv

>  <s_m_subgroupid>  (642) 
glide-dock_SP_D22_pv

>  <Molecule ChEMBL ID>  (642) 
CHEMBL113229

>  <Standard Type>  (642) 
Ki

>  <Standard Value>  (642) 
3.162

>  <label>  (642) 
1

$$$$
CHEMBL10289
     RDKit          3D

  0  0  0  0  0  0  0  0  0  0999 V3000
M  V30 BEGIN CTAB
M  V30 COUNTS 37 39 0 0 1
M  V30 BEGIN ATOM
M  V30 1 C 12.229334 8.058327 -11.108034 0
M  V30 2 C 11.014661 7.874590 -10.575440 0
M  V30 3 C 10.285049 8.909374 -9.739232 0
M  V30 4 N 10.059418 8.509643 -8.328555 0 CFG=1 CHG=1
M  V30 5 C 9.252152 7.297693 -8.116364 0
M  V30 6 C 9.473783 6.973661 -6.650924 0
M  V30 7 C 10.964585 7.245510 -6.479269 0 CFG=2
M  V30 8 C 11.380804 7.484846 -5.036515 0
M  V30 9 C 11.685117 6.395482 -4.215047 0
M  V30 10 C 12.094462 6.571374 -2.882919 0
M  V30 11 C 12.251390 7.859975 -2.369832 0
M  V30 12 C 11.942745 8.956824 -3.181957 0
M  V30 13 O 12.086020 10.183343 -2.646928 0
M  V30 14 C 11.478331 8.782991 -4.505248 0
M  V30 15 C 11.063455 9.936380 -5.390140 0
M  V30 16 C 11.625145 9.750450 -6.795176 0
M  V30 17 C 11.263311 8.404608 -7.460500 0 CFG=2
M  V30 18 H 12.785941 8.972339 -10.956540 0
M  V30 19 H 12.687976 7.294929 -11.717879 0
M  V30 20 H 10.500800 6.942712 -10.758656 0
M  V30 21 H 10.853579 9.839280 -9.751876 0
M  V30 22 H 9.321003 9.116856 -10.208460 0
M  V30 23 H 8.205632 7.463614 -8.352876 0
M  V30 24 H 9.605748 6.469301 -8.726558 0
M  V30 25 H 8.885791 7.657920 -6.037982 0
M  V30 26 H 9.185644 5.958644 -6.393230 0
M  V30 27 H 11.505155 6.367683 -6.837056 0
M  V30 28 H 11.588799 5.403039 -4.612328 0
M  V30 29 H 12.315331 5.720641 -2.257583 0
M  V30 30 H 12.591176 8.002067 -1.355700 0
M  V30 31 H 12.732629 10.274629 -1.957305 0
M  V30 32 H 9.978193 9.940482 -5.444922 0
M  V30 33 H 11.355972 10.901386 -4.980853 0
M  V30 34 H 11.287176 10.571864 -7.413785 0
M  V30 35 H 12.712956 9.820717 -6.728837 0
M  V30 36 H 12.114040 8.107420 -8.075563 0
M  V30 37 H 9.503428 9.244640 -7.920018 0
M  V30 END ATOM
M  V30 BEGIN BOND
M  V30 1 2 2 1
M  V30 2 1 3 2
M  V30 3 1 4 3
M  V30 4 1 5 4
M  V30 5 1 6 5
M  V30 6 1 7 6
M  V30 7 1 8 7
M  V30 8 2 9 8
M  V30 9 1 10 9
M  V30 10 2 11 10
M  V30 11 1 12 11
M  V30 12 1 13 12
M  V30 13 1 14 8
M  V30 14 2 14 12
M  V30 15 1 15 14
M  V30 16 1 16 15
M  V30 17 1 17 4
M  V30 18 1 17 7
M  V30 19 1 17 16
M  V30 20 1 18 1
M  V30 21 1 19 1
M  V30 22 1 20 2
M  V30 23 1 21 3
M  V30 24 1 22 3
M  V30 25 1 23 5
M  V30 26 1 24 5
M  V30 27 1 25 6
M  V30 28 1 26 6
M  V30 29 1 7 27 CFG=3
M  V30 30 1 28 9
M  V30 31 1 29 10
M  V30 32 1 30 11
M  V30 33 1 31 13
M  V30 34 1 32 15
M  V30 35 1 33 15
M  V30 36 1 34 16
M  V30 37 1 35 16
M  V30 38 1 17 36 CFG=3
M  V30 39 1 4 37 CFG=1
M  V30 END BOND
M  V30 END CTAB
M  END
>  <b_m_subgroup_collapsed>  (643) 
0

>  <r_i_docking_score>  (643) 
-8.0495642056993493

>  <s_m_subgroup_title>  (643) 
glide-dock_SP_D22_pv

>  <s_m_subgroupid>  (643) 
glide-dock_SP_D22_pv

>  <Molecule ChEMBL ID>  (643) 
CHEMBL10289

>  <Standard Type>  (643) 
Ki

>  <Standard Value>  (643) 
75.0

>  <label>  (643) 
1

$$$$
CHEMBL3676920
     RDKit          3D

  0  0  0  0  0  0  0  0  0  0999 V3000
M  V30 BEGIN CTAB
M  V30 COUNTS 70 74 0 0 1
M  V30 BEGIN ATOM
M  V30 1 C 4.857672 -5.086834 -18.239613 0
M  V30 2 S 4.339648 -3.591866 -19.166273 0
M  V30 3 O 2.885782 -3.423122 -19.047062 0
M  V30 4 O 4.974480 -3.632447 -20.492449 0
M  V30 5 C 5.107650 -2.248268 -18.287498 0
M  V30 6 C 6.161884 -1.498026 -18.732983 0
M  V30 7 C 6.601590 -0.539307 -17.775791 0
M  V30 8 C 5.885697 -0.575176 -16.604048 0
M  V30 9 C 6.072685 0.161949 -15.334441 0
M  V30 10 O 5.481937 -0.162323 -14.302760 0
M  V30 11 N 6.927925 1.193393 -15.398600 0
M  V30 12 C 7.428954 1.944825 -14.256910 0 CFG=1
M  V30 13 C 8.792622 2.554849 -14.615555 0
M  V30 14 C 9.397943 3.295907 -13.419848 0
M  V30 15 C 8.461289 4.390678 -12.861306 0 CFG=2
M  V30 16 C 9.077120 4.965976 -11.568163 0
M  V30 17 C 8.264500 6.118248 -10.951778 0
M  V30 18 N 8.886635 6.751599 -9.761544 0 CFG=2 CHG=1
M  V30 19 C 10.214701 7.358491 -10.022874 0
M  V30 20 C 10.654552 8.234199 -8.844696 0
M  V30 21 C 10.676805 7.445458 -7.517631 0 CFG=1
M  V30 22 C 11.090950 8.309382 -6.354797 0
M  V30 23 C 11.285748 9.671955 -6.372321 0
M  V30 24 O 11.621161 10.172391 -5.156277 0
M  V30 25 C 11.726598 9.105971 -4.306020 0
M  V30 26 C 12.089594 9.147141 -2.953070 0
M  V30 27 C 12.186619 7.936884 -2.249981 0
M  V30 28 C 11.905436 6.723015 -2.907743 0
M  V30 29 C 11.522969 6.710818 -4.269591 0
M  V30 30 C 11.422576 7.911802 -5.007991 0
M  V30 31 C 9.295257 6.791604 -7.304792 0
M  V30 32 C 8.873169 5.937766 -8.519418 0
M  V30 33 C 7.002954 3.904276 -12.652729 0
M  V30 34 C 6.453107 3.053884 -13.812183 0
M  V30 35 S 4.616677 -1.780170 -16.678423 0
M  V30 36 H 4.420637 -5.967600 -18.707184 0
M  V30 37 H 5.943078 -5.158297 -18.241896 0
M  V30 38 H 4.491812 -5.016634 -17.215599 0
M  V30 39 H 6.635381 -1.615894 -19.696531 0
M  V30 40 H 7.440485 0.111889 -17.969467 0
M  V30 41 H 7.347198 1.396173 -16.293608 0
M  V30 42 H 7.566548 1.226960 -13.451084 0
M  V30 43 H 9.481956 1.771581 -14.936972 0
M  V30 44 H 8.688176 3.241861 -15.456190 0
M  V30 45 H 9.663387 2.573230 -12.647164 0
M  V30 46 H 10.344232 3.745987 -13.723011 0
M  V30 47 H 8.426752 5.188397 -13.606041 0
M  V30 48 H 9.189810 4.172248 -10.831092 0
M  V30 49 H 10.084046 5.306412 -11.808423 0
M  V30 50 H 8.096334 6.891659 -11.702927 0
M  V30 51 H 7.276694 5.772004 -10.656743 0
M  V30 52 H 10.955338 6.574931 -10.186378 0
M  V30 53 H 10.173143 7.962312 -10.930891 0
M  V30 54 H 11.642508 8.650040 -9.051492 0
M  V30 55 H 9.969310 9.080953 -8.765072 0
M  V30 56 H 11.409212 6.643484 -7.619265 0
M  V30 57 H 11.234283 10.416958 -7.146794 0
M  V30 58 H 12.307546 10.090146 -2.472349 0
M  V30 59 H 12.486126 7.945506 -1.212818 0
M  V30 60 H 11.976993 5.794705 -2.361607 0
M  V30 61 H 11.300534 5.772728 -4.754747 0
M  V30 62 H 9.305047 6.174799 -6.406618 0
M  V30 63 H 8.541134 7.563103 -7.129725 0
M  V30 64 H 7.871875 5.541944 -8.347172 0
M  V30 65 H 9.541047 5.080817 -8.626081 0
M  V30 66 H 6.905257 3.372353 -11.709942 0
M  V30 67 H 6.347538 4.768050 -12.537721 0
M  V30 68 H 6.236723 3.715673 -14.646942 0
M  V30 69 H 5.496907 2.618102 -13.519575 0
M  V30 70 H 8.234829 7.510576 -9.577334 0
M  V30 END ATOM
M  V30 BEGIN BOND
M  V30 1 1 2 1
M  V30 2 2 3 2
M  V30 3 2 4 2
M  V30 4 1 5 2
M  V30 5 2 6 5
M  V30 6 1 7 6
M  V30 7 2 8 7
M  V30 8 1 9 8
M  V30 9 2 10 9
M  V30 10 1 11 9
M  V30 11 1 12 11
M  V30 12 1 13 12
M  V30 13 1 14 13
M  V30 14 1 15 14
M  V30 15 1 16 15
M  V30 16 1 17 16
M  V30 17 1 18 17
M  V30 18 1 19 18
M  V30 19 1 20 19
M  V30 20 1 21 20
M  V30 21 1 22 21
M  V30 22 2 23 22
M  V30 23 1 24 23
M  V30 24 1 25 24
M  V30 25 2 26 25
M  V30 26 1 27 26
M  V30 27 2 28 27
M  V30 28 1 29 28
M  V30 29 1 30 22
M  V30 30 1 30 25
M  V30 31 2 30 29
M  V30 32 1 31 21
M  V30 33 1 32 18
M  V30 34 1 32 31
M  V30 35 1 33 15
M  V30 36 1 34 12
M  V30 37 1 34 33
M  V30 38 1 35 5
M  V30 39 1 35 8
M  V30 40 1 36 1
M  V30 41 1 37 1
M  V30 42 1 38 1
M  V30 43 1 39 6
M  V30 44 1 40 7
M  V30 45 1 41 11
M  V30 46 1 12 42 CFG=1
M  V30 47 1 43 13
M  V30 48 1 44 13
M  V30 49 1 45 14
M  V30 50 1 46 14
M  V30 51 1 15 47 CFG=3
M  V30 52 1 48 16
M  V30 53 1 49 16
M  V30 54 1 50 17
M  V30 55 1 51 17
M  V30 56 1 52 19
M  V30 57 1 53 19
M  V30 58 1 54 20
M  V30 59 1 55 20
M  V30 60 1 21 56 CFG=3
M  V30 61 1 57 23
M  V30 62 1 58 26
M  V30 63 1 59 27
M  V30 64 1 60 28
M  V30 65 1 61 29
M  V30 66 1 62 31
M  V30 67 1 63 31
M  V30 68 1 64 32
M  V30 69 1 65 32
M  V30 70 1 66 33
M  V30 71 1 67 33
M  V30 72 1 68 34
M  V30 73 1 69 34
M  V30 74 1 18 70 CFG=1
M  V30 END BOND
M  V30 END CTAB
M  END
>  <b_m_subgroup_collapsed>  (644) 
0

>  <r_i_docking_score>  (644) 
-8.0495321658846493

>  <s_m_subgroup_title>  (644) 
glide-dock_SP_D22_pv

>  <s_m_subgroupid>  (644) 
glide-dock_SP_D22_pv

>  <Molecule ChEMBL ID>  (644) 
CHEMBL3676920

>  <Standard Type>  (644) 
Ki

>  <Standard Value>  (644) 
60.84

>  <label>  (644) 
1

$$$$
CHEMBL3344462
     RDKit          3D

  0  0  0  0  0  0  0  0  0  0999 V3000
M  V30 BEGIN CTAB
M  V30 COUNTS 53 56 0 0 1
M  V30 BEGIN ATOM
M  V30 1 C 11.930225 6.619250 -3.059952 0
M  V30 2 C 12.284483 7.531137 -4.243775 0
M  V30 3 C 11.553254 8.886234 -4.252699 0 CFG=1
M  V30 4 C 11.912987 9.700758 -3.002638 0
M  V30 5 C 11.808453 9.716384 -5.524313 0
M  V30 6 C 11.368018 9.073501 -6.802282 0
M  V30 7 C 10.099558 8.790252 -7.238897 0
M  V30 8 C 10.084399 8.247537 -8.559058 0
M  V30 9 C 11.324048 8.115079 -9.095459 0
M  V30 10 S 12.541697 8.572341 -7.982918 0
M  V30 11 C 11.628541 7.556282 -10.427305 0
M  V30 12 C 10.378883 7.451493 -11.331858 0 CFG=1
M  V30 13 C 10.675364 6.518024 -12.512389 0
M  V30 14 C 11.686096 6.851206 -13.441811 0
M  V30 15 C 12.036119 5.960935 -14.477478 0
M  V30 16 O 13.018280 6.307223 -15.361190 0
M  V30 17 C 11.392351 4.710135 -14.596518 0
M  V30 18 O 11.805044 3.874132 -15.613384 0
M  V30 19 C 11.243685 2.572117 -15.684278 0
M  V30 20 C 10.377083 4.376318 -13.667619 0
M  V30 21 C 10.026699 5.264756 -12.630355 0
M  V30 22 C 8.971253 4.846509 -11.621515 0
M  V30 23 C 9.113359 5.586025 -10.287166 0
M  V30 24 N 9.171615 7.040080 -10.547053 0 CFG=1 CHG=1
M  V30 25 C 8.886157 7.893298 -9.356382 0
M  V30 26 H 12.540864 5.721252 -3.082733 0
M  V30 27 H 10.886277 6.311026 -3.091913 0
M  V30 28 H 12.117988 7.092925 -2.098494 0
M  V30 29 H 13.354528 7.722342 -4.225830 0
M  V30 30 H 12.081072 6.984309 -5.164479 0
M  V30 31 H 10.486444 8.697481 -4.246749 0
M  V30 32 H 12.993870 9.772712 -2.891414 0
M  V30 33 H 11.524769 9.246847 -2.092765 0
M  V30 34 H 11.507944 10.707371 -3.047060 0
M  V30 35 H 11.298891 10.677170 -5.436862 0
M  V30 36 H 12.871287 9.955044 -5.586902 0
M  V30 37 H 9.191112 8.971359 -6.680632 0
M  V30 38 H 12.409212 8.141710 -10.914956 0
M  V30 39 H 12.047097 6.575179 -10.246867 0
M  V30 40 H 10.151936 8.442120 -11.729777 0
M  V30 41 H 12.212164 7.788001 -13.353247 0
M  V30 42 H 13.465800 7.108781 -15.138330 0
M  V30 43 H 11.721898 2.018366 -16.492750 0
M  V30 44 H 10.174596 2.611130 -15.896400 0
M  V30 45 H 11.408779 2.012525 -14.762699 0
M  V30 46 H 9.863537 3.428043 -13.720817 0
M  V30 47 H 7.988459 5.036818 -12.054226 0
M  V30 48 H 9.040033 3.772479 -11.452177 0
M  V30 49 H 8.260289 5.342631 -9.653160 0
M  V30 50 H 10.008397 5.262597 -9.754183 0
M  V30 51 H 8.140510 7.427701 -8.712564 0
M  V30 52 H 8.485545 8.830773 -9.733376 0
M  V30 53 H 8.362093 7.209369 -11.131875 0
M  V30 END ATOM
M  V30 BEGIN BOND
M  V30 1 1 2 1
M  V30 2 1 3 2
M  V30 3 1 4 3
M  V30 4 1 5 3
M  V30 5 1 6 5
M  V30 6 2 7 6
M  V30 7 1 8 7
M  V30 8 2 9 8
M  V30 9 1 10 6
M  V30 10 1 10 9
M  V30 11 1 11 9
M  V30 12 1 12 11
M  V30 13 1 13 12
M  V30 14 2 14 13
M  V30 15 1 15 14
M  V30 16 1 16 15
M  V30 17 2 17 15
M  V30 18 1 18 17
M  V30 19 1 19 18
M  V30 20 1 20 17
M  V30 21 1 21 13
M  V30 22 2 21 20
M  V30 23 1 22 21
M  V30 24 1 23 22
M  V30 25 1 24 12
M  V30 26 1 24 23
M  V30 27 1 25 8
M  V30 28 1 25 24
M  V30 29 1 26 1
M  V30 30 1 27 1
M  V30 31 1 28 1
M  V30 32 1 29 2
M  V30 33 1 30 2
M  V30 34 1 3 31 CFG=1
M  V30 35 1 32 4
M  V30 36 1 33 4
M  V30 37 1 34 4
M  V30 38 1 35 5
M  V30 39 1 36 5
M  V30 40 1 37 7
M  V30 41 1 38 11
M  V30 42 1 39 11
M  V30 43 1 12 40 CFG=3
M  V30 44 1 41 14
M  V30 45 1 42 16
M  V30 46 1 43 19
M  V30 47 1 44 19
M  V30 48 1 45 19
M  V30 49 1 46 20
M  V30 50 1 47 22
M  V30 51 1 48 22
M  V30 52 1 49 23
M  V30 53 1 50 23
M  V30 54 1 51 25
M  V30 55 1 52 25
M  V30 56 1 24 53 CFG=3
M  V30 END BOND
M  V30 END CTAB
M  END
>  <b_m_subgroup_collapsed>  (645) 
0

>  <r_i_docking_score>  (645) 
-8.0487081399352896

>  <s_m_subgroup_title>  (645) 
glide-dock_SP_D22_pv

>  <s_m_subgroupid>  (645) 
glide-dock_SP_D22_pv

>  <Molecule ChEMBL ID>  (645) 
CHEMBL3344462

>  <Standard Type>  (645) 
Ki

>  <Standard Value>  (645) 
29.1

>  <label>  (645) 
1

$$$$
CHEMBL126429
     RDKit          3D

  0  0  0  0  0  0  0  0  0  0999 V3000
M  V30 BEGIN CTAB
M  V30 COUNTS 47 50 0 0 1
M  V30 BEGIN ATOM
M  V30 1 Cl 12.088717 9.378600 -2.292821 0
M  V30 2 C 11.684952 8.915403 -3.900057 0
M  V30 3 C 11.282179 9.868851 -4.844328 0
M  V30 4 C 10.833111 9.449029 -6.108035 0
M  V30 5 C 10.758758 8.076468 -6.457559 0
M  V30 6 N 10.230913 7.656003 -7.705410 0
M  V30 7 C 9.293712 6.533184 -7.699461 0
M  V30 8 C 9.196820 5.876684 -9.092203 0
M  V30 9 N 8.886363 6.859436 -10.168130 0 CHG=1
M  V30 10 C 8.951298 6.295915 -11.543056 0
M  V30 11 C 8.115032 5.055019 -11.802167 0 CFG=1
M  V30 12 C 6.669124 5.096688 -12.247815 0
M  V30 13 C 7.758667 4.775845 -13.245962 0 CFG=2
M  V30 14 C 7.973942 3.421402 -13.848011 0
M  V30 15 C 9.285836 2.946447 -14.060208 0
M  V30 16 C 9.503575 1.683519 -14.646828 0
M  V30 17 C 8.408487 0.880566 -15.019650 0
M  V30 18 C 7.096828 1.351407 -14.819752 0
M  V30 19 C 6.882552 2.619985 -14.245348 0
M  V30 20 C 9.758506 8.063340 -10.102366 0
M  V30 21 C 9.877152 8.667158 -8.697408 0
M  V30 22 C 11.230811 7.136153 -5.506468 0
M  V30 23 C 11.686017 7.558376 -4.240570 0
M  V30 24 Cl 12.171556 6.428857 -3.043600 0
M  V30 25 H 11.272468 10.917783 -4.589342 0
M  V30 26 H 10.499466 10.220825 -6.775660 0
M  V30 27 H 8.313438 6.900991 -7.393637 0
M  V30 28 H 9.571664 5.773326 -6.975062 0
M  V30 29 H 8.428829 5.102119 -9.065311 0
M  V30 30 H 10.142386 5.382640 -9.321288 0
M  V30 31 H 9.986537 6.049395 -11.784024 0
M  V30 32 H 8.646463 7.071341 -12.248471 0
M  V30 33 H 8.402373 4.185088 -11.215004 0
M  V30 34 H 6.199766 6.078582 -12.291522 0
M  V30 35 H 6.026029 4.288221 -11.904052 0
M  V30 36 H 8.012524 5.541804 -13.977068 0
M  V30 37 H 10.132461 3.551386 -13.771490 0
M  V30 38 H 10.512286 1.326120 -14.798406 0
M  V30 39 H 8.573621 -0.093588 -15.458716 0
M  V30 40 H 6.254455 0.740946 -15.112998 0
M  V30 41 H 5.872252 2.976541 -14.102705 0
M  V30 42 H 10.760242 7.794530 -10.441401 0
M  V30 43 H 9.387492 8.822159 -10.792099 0
M  V30 44 H 8.940403 9.147450 -8.408379 0
M  V30 45 H 10.646175 9.438454 -8.743209 0
M  V30 46 H 11.238344 6.080432 -5.724959 0
M  V30 47 H 7.920957 7.184481 -10.027803 0
M  V30 END ATOM
M  V30 BEGIN BOND
M  V30 1 1 2 1
M  V30 2 1 3 2
M  V30 3 2 4 3
M  V30 4 1 5 4
M  V30 5 1 6 5
M  V30 6 1 7 6
M  V30 7 1 8 7
M  V30 8 1 9 8
M  V30 9 1 10 9
M  V30 10 1 11 10
M  V30 11 1 12 11
M  V30 12 1 13 11
M  V30 13 1 13 12
M  V30 14 1 14 13
M  V30 15 2 15 14
M  V30 16 1 16 15
M  V30 17 2 17 16
M  V30 18 1 18 17
M  V30 19 1 19 14
M  V30 20 2 19 18
M  V30 21 1 20 9
M  V30 22 1 21 6
M  V30 23 1 21 20
M  V30 24 2 22 5
M  V30 25 2 23 2
M  V30 26 1 23 22
M  V30 27 1 24 23
M  V30 28 1 25 3
M  V30 29 1 26 4
M  V30 30 1 27 7
M  V30 31 1 28 7
M  V30 32 1 29 8
M  V30 33 1 30 8
M  V30 34 1 31 10
M  V30 35 1 32 10
M  V30 36 1 11 33 CFG=1
M  V30 37 1 34 12
M  V30 38 1 35 12
M  V30 39 1 13 36 CFG=3
M  V30 40 1 37 15
M  V30 41 1 38 16
M  V30 42 1 39 17
M  V30 43 1 40 18
M  V30 44 1 41 19
M  V30 45 1 42 20
M  V30 46 1 43 20
M  V30 47 1 44 21
M  V30 48 1 45 21
M  V30 49 1 46 22
M  V30 50 1 47 9
M  V30 END BOND
M  V30 END CTAB
M  END
>  <b_m_subgroup_collapsed>  (646) 
0

>  <r_i_docking_score>  (646) 
-8.0484576717727006

>  <s_m_subgroup_title>  (646) 
glide-dock_SP_D22_pv

>  <s_m_subgroupid>  (646) 
glide-dock_SP_D22_pv

>  <Molecule ChEMBL ID>  (646) 
CHEMBL126429

>  <Standard Type>  (646) 
Ki

>  <Standard Value>  (646) 
93.0

>  <label>  (646) 
1

$$$$
CHEMBL59752
     RDKit          3D

  0  0  0  0  0  0  0  0  0  0999 V3000
M  V30 BEGIN CTAB
M  V30 COUNTS 40 42 0 0 1
M  V30 BEGIN ATOM
M  V30 1 O 12.486022 7.043488 -2.086689 0
M  V30 2 C 12.086020 7.469285 -3.162071 0
M  V30 3 C 11.442504 6.578664 -4.237544 0
M  V30 4 C 11.286021 7.596685 -5.333519 0
M  V30 5 C 11.697391 8.846256 -4.884278 0
M  V30 6 C 11.700577 9.962890 -5.728142 0
M  V30 7 C 11.286028 9.757118 -7.047957 0
M  V30 8 C 10.891539 8.498093 -7.529151 0
M  V30 9 C 10.877392 7.382042 -6.663995 0
M  V30 10 O 10.520485 6.115764 -7.048041 0
M  V30 11 C 10.143208 5.855210 -8.396487 0
M  V30 12 C 8.718750 6.362200 -8.674595 0
M  V30 13 N 8.086024 5.772324 -9.872842 0 CHG=1
M  V30 14 C 8.717768 6.036288 -11.177848 0
M  V30 15 C 8.127145 5.101984 -12.216488 0
M  V30 16 C 6.734710 5.093829 -12.455501 0
M  V30 17 C 6.177344 4.172569 -13.363636 0
M  V30 18 C 7.012156 3.274779 -14.055338 0
M  V30 19 C 8.404553 3.304320 -13.846894 0
M  V30 20 C 8.960847 4.207720 -12.921462 0
M  V30 21 N 12.149632 8.743373 -3.569328 0
M  V30 22 H 10.486022 6.172327 -3.913766 0
M  V30 23 H 12.092371 5.772300 -4.552009 0
M  V30 24 H 12.036325 10.944788 -5.446853 0
M  V30 25 H 11.286022 10.572322 -7.729326 0
M  V30 26 H 10.620346 8.426798 -8.570151 0
M  V30 27 H 10.167562 4.773595 -8.529773 0
M  V30 28 H 10.874107 6.258006 -9.098340 0
M  V30 29 H 8.677583 7.446705 -8.759953 0
M  V30 30 H 8.086017 6.106689 -7.824305 0
M  V30 31 H 7.191008 6.260684 -9.934515 0
M  V30 32 H 9.795239 5.882326 -11.125295 0
M  V30 33 H 8.546972 7.074724 -11.465509 0
M  V30 34 H 6.086065 5.778855 -11.926214 0
M  V30 35 H 5.110461 4.158771 -13.532992 0
M  V30 36 H 6.585137 2.570303 -14.754148 0
M  V30 37 H 9.044662 2.616519 -14.380137 0
M  V30 38 H 10.027822 4.199773 -12.751264 0
M  V30 39 H 12.530926 9.515475 -3.041498 0
M  V30 40 H 7.916392 4.784038 -9.750085 0
M  V30 END ATOM
M  V30 BEGIN BOND
M  V30 1 2 2 1
M  V30 2 1 3 2
M  V30 3 1 4 3
M  V30 4 2 5 4
M  V30 5 1 6 5
M  V30 6 2 7 6
M  V30 7 1 8 7
M  V30 8 1 9 4
M  V30 9 2 9 8
M  V30 10 1 10 9
M  V30 11 1 11 10
M  V30 12 1 12 11
M  V30 13 1 13 12
M  V30 14 1 14 13
M  V30 15 1 15 14
M  V30 16 2 16 15
M  V30 17 1 17 16
M  V30 18 2 18 17
M  V30 19 1 19 18
M  V30 20 1 20 15
M  V30 21 2 20 19
M  V30 22 1 21 2
M  V30 23 1 21 5
M  V30 24 1 22 3
M  V30 25 1 23 3
M  V30 26 1 24 6
M  V30 27 1 25 7
M  V30 28 1 26 8
M  V30 29 1 27 11
M  V30 30 1 28 11
M  V30 31 1 29 12
M  V30 32 1 30 12
M  V30 33 1 31 13
M  V30 34 1 32 14
M  V30 35 1 33 14
M  V30 36 1 34 16
M  V30 37 1 35 17
M  V30 38 1 36 18
M  V30 39 1 37 19
M  V30 40 1 38 20
M  V30 41 1 39 21
M  V30 42 1 40 13
M  V30 END BOND
M  V30 END CTAB
M  END
>  <b_m_subgroup_collapsed>  (647) 
0

>  <r_i_docking_score>  (647) 
-8.0468015986466792

>  <s_m_subgroup_title>  (647) 
glide-dock_SP_D22_pv

>  <s_m_subgroupid>  (647) 
glide-dock_SP_D22_pv

>  <Molecule ChEMBL ID>  (647) 
CHEMBL59752

>  <Standard Type>  (647) 
Ki

>  <Standard Value>  (647) 
4.25

>  <label>  (647) 
1

$$$$
CHEMBL104514
     RDKit          3D

  0  0  0  0  0  0  0  0  0  0999 V3000
M  V30 BEGIN CTAB
M  V30 COUNTS 51 54 0 0 1
M  V30 BEGIN ATOM
M  V30 1 O 11.652602 8.232100 -9.177215 0
M  V30 2 C 10.886948 7.333537 -8.829031 0
M  V30 3 C 10.680737 7.040648 -7.318708 0
M  V30 4 N 11.148482 8.106566 -6.425132 0
M  V30 5 C 10.997713 9.542109 -6.671112 0
M  V30 6 C 11.234865 10.286156 -5.351922 0
M  V30 7 C 11.567740 9.165416 -4.422517 0
M  V30 8 C 11.941929 9.270938 -3.073503 0
M  V30 9 C 12.192280 8.080956 -2.361167 0
M  V30 10 C 12.061521 6.824874 -2.999604 0
M  V30 11 C 11.686936 6.741712 -4.360922 0
M  V30 12 C 11.455849 7.938440 -5.068690 0
M  V30 13 N 10.260284 6.573267 -9.757961 0
M  V30 14 C 9.564008 5.309578 -9.483437 0
M  V30 15 C 8.149032 5.359450 -10.054414 0
M  V30 16 N 8.169458 5.697513 -11.498116 0 CHG=1
M  V30 17 C 6.847611 5.617675 -12.158523 0
M  V30 18 C 6.659838 4.240862 -12.768214 0
M  V30 19 C 7.464216 3.806880 -13.844272 0
M  V30 20 C 7.291306 2.514097 -14.380340 0
M  V30 21 C 6.309549 1.654458 -13.849285 0
M  V30 22 Cl 6.110126 0.062040 -14.481210 0
M  V30 23 C 5.495042 2.092512 -12.790401 0
M  V30 24 C 5.681983 3.376506 -12.247071 0
M  V30 25 C 8.888475 6.959269 -11.778390 0
M  V30 26 C 10.304787 6.915076 -11.191958 0
M  V30 27 H 11.198112 6.110566 -7.082414 0
M  V30 28 H 9.619221 6.892467 -7.116736 0
M  V30 29 H 11.768039 9.832726 -7.378945 0
M  V30 30 H 10.033524 9.771524 -7.115760 0
M  V30 31 H 10.351892 10.826314 -5.013698 0
M  V30 32 H 12.070001 10.972408 -5.451709 0
M  V30 33 H 12.032096 10.235136 -2.594198 0
M  V30 34 H 12.479667 8.135530 -1.321627 0
M  V30 35 H 12.247337 5.918595 -2.441066 0
M  V30 36 H 11.601134 5.774271 -4.838255 0
M  V30 37 H 10.088652 4.485253 -9.963257 0
M  V30 38 H 9.516638 5.050071 -8.426192 0
M  V30 39 H 7.686041 4.383483 -9.914964 0
M  V30 40 H 7.590641 6.103475 -9.492085 0
M  V30 41 H 6.048909 5.845838 -11.450374 0
M  V30 42 H 6.763402 6.350350 -12.961523 0
M  V30 43 H 8.220376 4.457863 -14.258496 0
M  V30 44 H 7.914489 2.178493 -15.195956 0
M  V30 45 H 4.749866 1.432289 -12.379736 0
M  V30 46 H 5.078232 3.701210 -11.416068 0
M  V30 47 H 8.947276 7.084580 -12.855524 0
M  V30 48 H 8.343315 7.819902 -11.394109 0
M  V30 49 H 10.788046 7.872271 -11.393428 0
M  V30 50 H 10.885307 6.173006 -11.733801 0
M  V30 51 H 8.719459 4.974438 -11.937144 0
M  V30 END ATOM
M  V30 BEGIN BOND
M  V30 1 2 2 1
M  V30 2 1 3 2
M  V30 3 1 4 3
M  V30 4 1 5 4
M  V30 5 1 6 5
M  V30 6 1 7 6
M  V30 7 2 8 7
M  V30 8 1 9 8
M  V30 9 2 10 9
M  V30 10 1 11 10
M  V30 11 1 12 4
M  V30 12 1 12 7
M  V30 13 2 12 11
M  V30 14 1 13 2
M  V30 15 1 14 13
M  V30 16 1 15 14
M  V30 17 1 16 15
M  V30 18 1 17 16
M  V30 19 1 18 17
M  V30 20 1 19 18
M  V30 21 2 20 19
M  V30 22 1 21 20
M  V30 23 1 22 21
M  V30 24 2 23 21
M  V30 25 2 24 18
M  V30 26 1 24 23
M  V30 27 1 25 16
M  V30 28 1 26 13
M  V30 29 1 26 25
M  V30 30 1 27 3
M  V30 31 1 28 3
M  V30 32 1 29 5
M  V30 33 1 30 5
M  V30 34 1 31 6
M  V30 35 1 32 6
M  V30 36 1 33 8
M  V30 37 1 34 9
M  V30 38 1 35 10
M  V30 39 1 36 11
M  V30 40 1 37 14
M  V30 41 1 38 14
M  V30 42 1 39 15
M  V30 43 1 40 15
M  V30 44 1 41 17
M  V30 45 1 42 17
M  V30 46 1 43 19
M  V30 47 1 44 20
M  V30 48 1 45 23
M  V30 49 1 46 24
M  V30 50 1 47 25
M  V30 51 1 48 25
M  V30 52 1 49 26
M  V30 53 1 50 26
M  V30 54 1 51 16
M  V30 END BOND
M  V30 END CTAB
M  END
>  <b_m_subgroup_collapsed>  (648) 
0

>  <r_i_docking_score>  (648) 
-8.0456734465912394

>  <s_m_subgroup_title>  (648) 
glide-dock_SP_D22_pv

>  <s_m_subgroupid>  (648) 
glide-dock_SP_D22_pv

>  <Molecule ChEMBL ID>  (648) 
CHEMBL104514

>  <Standard Type>  (648) 
Ki

>  <Standard Value>  (648) 
10000.0

>  <label>  (648) 
0

$$$$
CHEMBL381019
     RDKit          3D

  0  0  0  0  0  0  0  0  0  0999 V3000
M  V30 BEGIN CTAB
M  V30 COUNTS 52 55 0 0 1
M  V30 BEGIN ATOM
M  V30 1 C 12.931137 7.724841 -17.956881 0
M  V30 2 C 12.351625 6.750730 -16.952190 0
M  V30 3 C 11.293145 5.896774 -17.326908 0
M  V30 4 C 10.735079 5.005344 -16.389807 0
M  V30 5 C 11.235572 4.963870 -15.071671 0
M  V30 6 C 10.629952 4.024300 -14.049346 0
M  V30 7 N 9.678450 4.744264 -13.172979 0 CFG=1 CHG=1
M  V30 8 C 8.345034 5.001476 -13.742599 0
M  V30 9 C 7.464387 5.378323 -12.544191 0
M  V30 10 C 8.152062 4.754094 -11.313029 0 CFG=2
M  V30 11 N 8.486179 5.777625 -10.324061 0
M  V30 12 C 9.142492 5.586329 -9.168671 0
M  V30 13 O 9.286232 4.476021 -8.660559 0
M  V30 14 C 9.783092 6.807398 -8.562317 0
M  V30 15 C 10.160001 7.897090 -9.379887 0
M  V30 16 C 10.883260 8.972153 -8.838161 0
M  V30 17 C 11.238406 8.971486 -7.477355 0
M  V30 18 C 10.868203 7.902684 -6.632013 0
M  V30 19 C 11.287363 7.882661 -5.227367 0
M  V30 20 C 11.485477 6.800306 -4.407294 0
M  V30 21 C 11.949670 7.152596 -3.104200 0
M  V30 22 C 12.087892 8.505309 -2.938441 0
M  V30 23 S 11.684415 9.372190 -4.393558 0
M  V30 24 C 10.137367 6.827322 -7.191543 0
M  V30 25 C 9.430573 4.096107 -11.878699 0
M  V30 26 C 12.303561 5.809420 -14.701450 0
M  V30 27 C 12.858616 6.700729 -15.638148 0
M  V30 28 H 13.409449 8.566690 -17.455742 0
M  V30 29 H 13.676755 7.227346 -18.578272 0
M  V30 30 H 12.150564 8.124173 -18.606655 0
M  V30 31 H 10.901325 5.929154 -18.333221 0
M  V30 32 H 9.920069 4.362005 -16.686565 0
M  V30 33 H 11.444529 3.619725 -13.447333 0
M  V30 34 H 10.149363 3.171972 -14.532866 0
M  V30 35 H 7.962334 4.090569 -14.204287 0
M  V30 36 H 8.380911 5.772750 -14.509851 0
M  V30 37 H 6.444117 5.012866 -12.667551 0
M  V30 38 H 7.403067 6.463478 -12.448526 0
M  V30 39 H 7.502145 4.013754 -10.843976 0
M  V30 40 H 8.208231 6.730649 -10.534749 0
M  V30 41 H 9.928744 7.912344 -10.435373 0
M  V30 42 H 11.186834 9.791492 -9.473525 0
M  V30 43 H 11.817456 9.796004 -7.093894 0
M  V30 44 H 11.322638 5.772938 -4.693731 0
M  V30 45 H 12.149051 6.409534 -2.345303 0
M  V30 46 H 12.411306 9.048673 -2.061439 0
M  V30 47 H 9.866009 5.991080 -6.567016 0
M  V30 48 H 10.289062 4.172453 -11.222696 0
M  V30 49 H 9.285935 3.035219 -12.073878 0
M  V30 50 H 12.706564 5.779160 -13.699235 0
M  V30 51 H 13.672046 7.346558 -15.343563 0
M  V30 52 H 10.086902 5.643601 -12.961168 0
M  V30 END ATOM
M  V30 BEGIN BOND
M  V30 1 1 2 1
M  V30 2 1 3 2
M  V30 3 2 4 3
M  V30 4 1 5 4
M  V30 5 1 6 5
M  V30 6 1 7 6
M  V30 7 1 8 7
M  V30 8 1 9 8
M  V30 9 1 10 9
M  V30 10 1 11 10
M  V30 11 1 12 11
M  V30 12 2 13 12
M  V30 13 1 14 12
M  V30 14 1 15 14
M  V30 15 2 16 15
M  V30 16 1 17 16
M  V30 17 2 18 17
M  V30 18 1 19 18
M  V30 19 2 20 19
M  V30 20 1 21 20
M  V30 21 2 22 21
M  V30 22 1 23 19
M  V30 23 1 23 22
M  V30 24 2 24 14
M  V30 25 1 24 18
M  V30 26 1 25 7
M  V30 27 1 25 10
M  V30 28 2 26 5
M  V30 29 2 27 2
M  V30 30 1 27 26
M  V30 31 1 28 1
M  V30 32 1 29 1
M  V30 33 1 30 1
M  V30 34 1 31 3
M  V30 35 1 32 4
M  V30 36 1 33 6
M  V30 37 1 34 6
M  V30 38 1 35 8
M  V30 39 1 36 8
M  V30 40 1 37 9
M  V30 41 1 38 9
M  V30 42 1 10 39 CFG=1
M  V30 43 1 40 11
M  V30 44 1 41 15
M  V30 45 1 42 16
M  V30 46 1 43 17
M  V30 47 1 44 20
M  V30 48 1 45 21
M  V30 49 1 46 22
M  V30 50 1 47 24
M  V30 51 1 48 25
M  V30 52 1 49 25
M  V30 53 1 50 26
M  V30 54 1 51 27
M  V30 55 1 7 52 CFG=1
M  V30 END BOND
M  V30 END CTAB
M  END
>  <b_m_subgroup_collapsed>  (649) 
0

>  <r_i_docking_score>  (649) 
-8.0454202937766404

>  <s_m_subgroup_title>  (649) 
glide-dock_SP_D22_pv

>  <s_m_subgroupid>  (649) 
glide-dock_SP_D22_pv

>  <Molecule ChEMBL ID>  (649) 
CHEMBL381019

>  <Standard Type>  (649) 
Ki

>  <Standard Value>  (649) 
60.0

>  <label>  (649) 
1

$$$$
CHEMBL247058
     RDKit          3D

  0  0  0  0  0  0  0  0  0  0999 V3000
M  V30 BEGIN CTAB
M  V30 COUNTS 54 57 0 0 1
M  V30 BEGIN ATOM
M  V30 1 C 10.645728 1.919213 -15.473186 0
M  V30 2 O 9.378384 1.276950 -15.424682 0
M  V30 3 C 8.356586 1.903212 -14.744931 0
M  V30 4 C 7.174263 1.156451 -14.556870 0
M  V30 5 C 6.088256 1.702615 -13.847744 0
M  V30 6 C 6.191558 3.005371 -13.333680 0
M  V30 7 N 5.321907 3.775039 -12.598181 0
M  V30 8 C 5.889380 5.000427 -12.296268 0
M  V30 9 C 7.135356 5.074766 -12.859666 0
M  V30 10 C 8.027921 6.285225 -12.815923 0
M  V30 11 N 8.486066 6.629613 -11.446692 0 CFG=2 CHG=1
M  V30 12 C 9.083486 7.986738 -11.391883 0
M  V30 13 C 9.455747 8.385487 -9.951194 0
M  V30 14 C 10.418658 7.378147 -9.286352 0 CFG=1
M  V30 15 O 11.611151 7.375366 -10.049680 0
M  V30 16 C 10.747295 7.781355 -7.840728 0
M  V30 17 C 10.570734 6.902763 -6.745986 0
M  V30 18 C 10.961080 7.276861 -5.445684 0
M  V30 19 C 11.530746 8.543617 -5.210877 0
M  V30 20 S 12.085403 9.027361 -3.599765 0
M  V30 21 C 12.250838 7.532983 -2.584396 0
M  V30 22 C 11.683605 9.440964 -6.284778 0
M  V30 23 C 11.300373 9.058224 -7.585550 0
M  V30 24 C 9.788149 5.966450 -9.409642 0
M  V30 25 C 9.369773 5.600152 -10.845407 0
M  V30 26 C 7.362153 3.803110 -13.505376 0
M  V30 27 C 8.434368 3.224621 -14.231818 0
M  V30 28 H 11.363802 1.260265 -15.961360 0
M  V30 29 H 10.603370 2.844587 -16.048382 0
M  V30 30 H 11.022581 2.131035 -14.470683 0
M  V30 31 H 7.109421 0.152145 -14.949860 0
M  V30 32 H 5.189338 1.123508 -13.700186 0
M  V30 33 H 4.402509 3.496783 -12.285662 0
M  V30 34 H 5.351301 5.735218 -11.708361 0
M  V30 35 H 7.475568 7.136661 -13.215688 0
M  V30 36 H 8.894118 6.163611 -13.464408 0
M  V30 37 H 8.370509 8.713812 -11.784772 0
M  V30 38 H 9.961212 8.027112 -12.038465 0
M  V30 39 H 8.548194 8.471327 -9.349884 0
M  V30 40 H 9.893568 9.379190 -9.968661 0
M  V30 41 H 12.034911 8.213786 -9.945742 0
M  V30 42 H 10.155883 5.916346 -6.877729 0
M  V30 43 H 10.826073 6.567156 -4.643344 0
M  V30 44 H 12.650741 7.797916 -1.605215 0
M  V30 45 H 11.284245 7.054393 -2.435198 0
M  V30 46 H 12.926970 6.818983 -3.051999 0
M  V30 47 H 12.123042 10.412725 -6.120232 0
M  V30 48 H 11.453128 9.753487 -8.395086 0
M  V30 49 H 10.485518 5.212397 -9.040234 0
M  V30 50 H 8.898253 5.910326 -8.780554 0
M  V30 51 H 8.864079 4.635797 -10.832047 0
M  V30 52 H 10.245776 5.484487 -11.482200 0
M  V30 53 H 9.321384 3.819358 -14.372224 0
M  V30 54 H 7.643059 6.716653 -10.877113 0
M  V30 END ATOM
M  V30 BEGIN BOND
M  V30 1 1 2 1
M  V30 2 1 3 2
M  V30 3 1 4 3
M  V30 4 2 5 4
M  V30 5 1 6 5
M  V30 6 1 7 6
M  V30 7 1 8 7
M  V30 8 2 9 8
M  V30 9 1 10 9
M  V30 10 1 11 10
M  V30 11 1 12 11
M  V30 12 1 13 12
M  V30 13 1 14 13
M  V30 14 1 14 15 CFG=3
M  V30 15 1 16 14
M  V30 16 1 17 16
M  V30 17 2 18 17
M  V30 18 1 19 18
M  V30 19 1 20 19
M  V30 20 1 21 20
M  V30 21 2 22 19
M  V30 22 2 23 16
M  V30 23 1 23 22
M  V30 24 1 24 14
M  V30 25 1 25 11
M  V30 26 1 25 24
M  V30 27 2 26 6
M  V30 28 1 26 9
M  V30 29 2 27 3
M  V30 30 1 27 26
M  V30 31 1 28 1
M  V30 32 1 29 1
M  V30 33 1 30 1
M  V30 34 1 31 4
M  V30 35 1 32 5
M  V30 36 1 33 7
M  V30 37 1 34 8
M  V30 38 1 35 10
M  V30 39 1 36 10
M  V30 40 1 37 12
M  V30 41 1 38 12
M  V30 42 1 39 13
M  V30 43 1 40 13
M  V30 44 1 41 15
M  V30 45 1 42 17
M  V30 46 1 43 18
M  V30 47 1 44 21
M  V30 48 1 45 21
M  V30 49 1 46 21
M  V30 50 1 47 22
M  V30 51 1 48 23
M  V30 52 1 49 24
M  V30 53 1 50 24
M  V30 54 1 51 25
M  V30 55 1 52 25
M  V30 56 1 53 27
M  V30 57 1 11 54 CFG=1
M  V30 END BOND
M  V30 END CTAB
M  END
>  <b_m_subgroup_collapsed>  (650) 
0

>  <r_i_docking_score>  (650) 
-8.0452077765354399

>  <s_m_subgroup_title>  (650) 
glide-dock_SP_D22_pv

>  <s_m_subgroupid>  (650) 
glide-dock_SP_D22_pv

>  <Molecule ChEMBL ID>  (650) 
CHEMBL247058

>  <Standard Type>  (650) 
Ki

>  <Standard Value>  (650) 
5.5

>  <label>  (650) 
1

$$$$
CHEMBL3085820
     RDKit          3D

  0  0  0  0  0  0  0  0  0  0999 V3000
M  V30 BEGIN CTAB
M  V30 COUNTS 69 71 0 0 1
M  V30 BEGIN ATOM
M  V30 1 C 4.764933 -0.234292 -19.007074 0
M  V30 2 C 6.001536 -0.938947 -18.403360 0
M  V30 3 C 7.200436 -0.928573 -19.376982 0
M  V30 4 C 5.632668 -2.397396 -18.080822 0
M  V30 5 O 6.354859 -0.380482 -17.131084 0
M  V30 6 C 6.717764 0.905397 -16.930132 0
M  V30 7 O 6.896858 1.753163 -17.805019 0
M  V30 8 N 6.795330 1.108228 -15.564046 0
M  V30 9 C 6.929407 2.421204 -14.940492 0 CFG=1
M  V30 10 C 6.383379 2.377988 -13.514121 0
M  V30 11 C 6.650031 3.691399 -12.733561 0
M  V30 12 C 8.130691 4.142311 -12.775962 0 CFG=2
M  V30 13 C 8.384668 5.495834 -12.067344 0
M  V30 14 C 8.623401 5.367157 -10.548873 0
M  V30 15 N 8.886979 6.653681 -9.831142 0 CFG=2 CHG=1
M  V30 16 C 10.088784 7.380764 -10.332935 0
M  V30 17 C 10.302662 8.779294 -9.723461 0
M  V30 18 C 11.008372 8.772661 -8.359645 0
M  V30 19 N 10.171267 8.306494 -7.265018 0
M  V30 20 C 10.833685 8.004369 -6.060154 0
M  V30 21 C 11.126677 6.672995 -5.741233 0
M  V30 22 C 11.699600 6.358975 -4.503797 0
M  V30 23 C 12.021029 7.321208 -3.561720 0
M  V30 24 C 11.750474 8.644131 -3.871528 0
M  V30 25 Cl 12.083961 9.772375 -2.647307 0
M  V30 26 C 11.188215 8.996753 -5.116841 0
M  V30 27 Cl 10.886532 10.637238 -5.448720 0
M  V30 28 C 8.868666 7.683091 -7.490061 0
M  V30 29 C 8.903627 6.411816 -8.365610 0
M  V30 30 C 8.611779 4.210405 -14.234200 0
M  V30 31 C 8.399609 2.881695 -14.975258 0
M  V30 32 H 3.926219 -0.239445 -18.309992 0
M  V30 33 H 4.968745 0.802360 -19.273281 0
M  V30 34 H 4.432898 -0.735842 -19.916355 0
M  V30 35 H 8.072603 -1.405886 -18.928730 0
M  V30 36 H 6.964554 -1.471012 -20.292826 0
M  V30 37 H 7.489955 0.081317 -19.671326 0
M  V30 38 H 4.801106 -2.451325 -17.375164 0
M  V30 39 H 5.331139 -2.939979 -18.977909 0
M  V30 40 H 6.473126 -2.933471 -17.635096 0
M  V30 41 H 6.621952 0.296903 -14.987103 0
M  V30 42 H 6.288135 3.128990 -15.450038 0
M  V30 43 H 6.820741 1.501013 -13.047157 0
M  V30 44 H 5.309347 2.187610 -13.534386 0
M  V30 45 H 6.320895 3.573594 -11.700641 0
M  V30 46 H 6.026248 4.477829 -13.160586 0
M  V30 47 H 8.735955 3.380938 -12.286287 0
M  V30 48 H 7.568655 6.192600 -12.268543 0
M  V30 49 H 9.270144 5.931105 -12.525955 0
M  V30 50 H 9.455305 4.684822 -10.365173 0
M  V30 51 H 7.736496 4.897668 -10.119911 0
M  V30 52 H 9.973005 7.557056 -11.399649 0
M  V30 53 H 10.980021 6.763852 -10.213059 0
M  V30 54 H 9.371655 9.345927 -9.694757 0
M  V30 55 H 10.953482 9.332945 -10.400123 0
M  V30 56 H 11.289955 9.795282 -8.124161 0
M  V30 57 H 11.930978 8.192406 -8.405937 0
M  V30 58 H 10.928688 5.888321 -6.441307 0
M  V30 59 H 11.974647 5.372416 -4.250079 0
M  V30 60 H 12.463811 7.045775 -2.615322 0
M  V30 61 H 8.450898 7.415249 -6.517535 0
M  V30 62 H 8.173701 8.418432 -7.894084 0
M  V30 63 H 7.995580 5.862183 -8.118612 0
M  V30 64 H 9.728311 5.747639 -8.116515 0
M  V30 65 H 8.094979 5.022903 -14.740239 0
M  V30 66 H 9.673311 4.460280 -14.265906 0
M  V30 67 H 9.033479 2.116524 -14.522588 0
M  V30 68 H 8.737701 2.985885 -16.006582 0
M  V30 69 H 8.058159 7.230370 -10.000201 0
M  V30 END ATOM
M  V30 BEGIN BOND
M  V30 1 1 2 1
M  V30 2 1 3 2
M  V30 3 1 4 2
M  V30 4 1 5 2
M  V30 5 1 6 5
M  V30 6 2 7 6
M  V30 7 1 8 6
M  V30 8 1 9 8
M  V30 9 1 10 9
M  V30 10 1 11 10
M  V30 11 1 12 11
M  V30 12 1 13 12
M  V30 13 1 14 13
M  V30 14 1 15 14
M  V30 15 1 16 15
M  V30 16 1 17 16
M  V30 17 1 18 17
M  V30 18 1 19 18
M  V30 19 1 20 19
M  V30 20 2 21 20
M  V30 21 1 22 21
M  V30 22 2 23 22
M  V30 23 1 24 23
M  V30 24 1 25 24
M  V30 25 1 26 20
M  V30 26 2 26 24
M  V30 27 1 27 26
M  V30 28 1 28 19
M  V30 29 1 29 15
M  V30 30 1 29 28
M  V30 31 1 30 12
M  V30 32 1 31 9
M  V30 33 1 31 30
M  V30 34 1 32 1
M  V30 35 1 33 1
M  V30 36 1 34 1
M  V30 37 1 35 3
M  V30 38 1 36 3
M  V30 39 1 37 3
M  V30 40 1 38 4
M  V30 41 1 39 4
M  V30 42 1 40 4
M  V30 43 1 41 8
M  V30 44 1 9 42 CFG=3
M  V30 45 1 43 10
M  V30 46 1 44 10
M  V30 47 1 45 11
M  V30 48 1 46 11
M  V30 49 1 12 47 CFG=1
M  V30 50 1 48 13
M  V30 51 1 49 13
M  V30 52 1 50 14
M  V30 53 1 51 14
M  V30 54 1 52 16
M  V30 55 1 53 16
M  V30 56 1 54 17
M  V30 57 1 55 17
M  V30 58 1 56 18
M  V30 59 1 57 18
M  V30 60 1 58 21
M  V30 61 1 59 22
M  V30 62 1 60 23
M  V30 63 1 61 28
M  V30 64 1 62 28
M  V30 65 1 63 29
M  V30 66 1 64 29
M  V30 67 1 65 30
M  V30 68 1 66 30
M  V30 69 1 67 31
M  V30 70 1 68 31
M  V30 71 1 15 69 CFG=1
M  V30 END BOND
M  V30 END CTAB
M  END
>  <b_m_subgroup_collapsed>  (651) 
0

>  <r_i_docking_score>  (651) 
-8.0442201109499596

>  <s_m_subgroup_title>  (651) 
glide-dock_SP_D22_pv

>  <s_m_subgroupid>  (651) 
glide-dock_SP_D22_pv

>  <Molecule ChEMBL ID>  (651) 
CHEMBL3085820

>  <Standard Type>  (651) 
Ki

>  <Standard Value>  (651) 
10.47

>  <label>  (651) 
1

$$$$
CHEMBL3758610
     RDKit          3D

  0  0  0  0  0  0  0  0  0  0999 V3000
M  V30 BEGIN CTAB
M  V30 COUNTS 67 70 0 0 1
M  V30 BEGIN ATOM
M  V30 1 C 5.690211 -0.138839 -21.148247 0
M  V30 2 S 6.532995 -0.022218 -19.522442 0
M  V30 3 O 6.485843 1.371733 -19.051298 0
M  V30 4 O 7.801950 -0.763636 -19.577116 0
M  V30 5 N 5.484354 -0.940612 -18.491526 0
M  V30 6 C 5.231360 -0.774882 -17.128742 0
M  V30 7 C 4.086931 -1.378154 -16.574806 0
M  V30 8 C 3.768887 -1.173055 -15.222337 0
M  V30 9 C 4.591434 -0.366036 -14.416976 0
M  V30 10 C 5.752547 0.234188 -14.948610 0
M  V30 11 N 6.522003 1.115278 -14.160030 0
M  V30 12 C 7.969431 1.225339 -14.321473 0
M  V30 13 C 8.396196 2.697118 -14.491538 0
M  V30 14 N 7.809241 3.589662 -13.447338 0 CHG=1
M  V30 15 C 8.207237 5.015050 -13.599950 0
M  V30 16 C 9.661870 5.322444 -13.186985 0
M  V30 17 C 9.917285 5.675755 -11.709768 0
M  V30 18 C 8.922790 6.632960 -11.027721 0
M  V30 19 N 9.490960 7.232102 -9.821297 0
M  V30 20 C 9.776924 6.594035 -8.674644 0
M  V30 21 O 9.662506 5.374289 -8.544910 0
M  V30 22 C 10.295845 7.449416 -7.544731 0
M  V30 23 C 10.166926 8.856933 -7.556097 0
M  V30 24 C 10.603487 9.621333 -6.458246 0
M  V30 25 C 11.133852 9.000635 -5.314250 0
M  V30 26 C 11.471523 9.769681 -4.185907 0
M  V30 27 C 12.014342 9.144053 -3.046765 0
M  V30 28 C 12.175411 7.743291 -3.022938 0
M  V30 29 C 11.801257 6.971764 -4.140203 0
M  V30 30 C 11.285386 7.599267 -5.292204 0
M  V30 31 C 10.884830 6.841065 -6.411264 0
M  V30 32 C 6.329053 3.454348 -13.370087 0
M  V30 33 C 5.869031 1.993442 -13.194087 0
M  V30 34 C 6.075593 0.006577 -16.307678 0
M  V30 35 H 6.270888 0.408790 -21.889236 0
M  V30 36 H 5.614055 -1.182831 -21.450768 0
M  V30 37 H 4.691823 0.293786 -21.077259 0
M  V30 38 H 4.891726 -1.614663 -18.953791 0
M  V30 39 H 3.435388 -1.992391 -17.181726 0
M  V30 40 H 2.887782 -1.629673 -14.802539 0
M  V30 41 H 4.311350 -0.211441 -13.388207 0
M  V30 42 H 8.455996 0.797967 -13.446958 0
M  V30 43 H 8.336552 0.633136 -15.157188 0
M  V30 44 H 9.484899 2.750815 -14.474809 0
M  V30 45 H 8.083881 3.034991 -15.478841 0
M  V30 46 H 8.085572 5.296132 -14.647096 0
M  V30 47 H 7.522792 5.663529 -13.050430 0
M  V30 48 H 10.338348 4.521801 -13.482287 0
M  V30 49 H 9.996086 6.172296 -13.773750 0
M  V30 50 H 10.004760 4.759785 -11.125341 0
M  V30 51 H 10.886008 6.172302 -11.678822 0
M  V30 52 H 8.655010 7.446057 -11.702236 0
M  V30 53 H 7.994684 6.116485 -10.774936 0
M  V30 54 H 9.592382 8.234982 -9.830385 0
M  V30 55 H 9.715474 9.371474 -8.389870 0
M  V30 56 H 10.486471 10.693331 -6.474944 0
M  V30 57 H 11.286161 10.835191 -4.184904 0
M  V30 58 H 12.280541 9.733223 -2.181168 0
M  V30 59 H 12.566760 7.258477 -2.140459 0
M  V30 60 H 11.910360 5.898945 -4.108053 0
M  V30 61 H 10.996387 5.772126 -6.381337 0
M  V30 62 H 5.940730 4.049760 -12.542838 0
M  V30 63 H 5.885761 3.860458 -14.281612 0
M  V30 64 H 4.785034 1.963533 -13.297251 0
M  V30 65 H 6.085746 1.634340 -12.188926 0
M  V30 66 H 6.942009 0.477009 -16.741705 0
M  V30 67 H 8.165975 3.278277 -12.556569 0
M  V30 END ATOM
M  V30 BEGIN BOND
M  V30 1 1 2 1
M  V30 2 2 3 2
M  V30 3 2 4 2
M  V30 4 1 5 2
M  V30 5 1 6 5
M  V30 6 1 7 6
M  V30 7 2 8 7
M  V30 8 1 9 8
M  V30 9 2 10 9
M  V30 10 1 11 10
M  V30 11 1 12 11
M  V30 12 1 13 12
M  V30 13 1 14 13
M  V30 14 1 15 14
M  V30 15 1 16 15
M  V30 16 1 17 16
M  V30 17 1 18 17
M  V30 18 1 19 18
M  V30 19 1 20 19
M  V30 20 2 21 20
M  V30 21 1 22 20
M  V30 22 1 23 22
M  V30 23 2 24 23
M  V30 24 1 25 24
M  V30 25 2 26 25
M  V30 26 1 27 26
M  V30 27 2 28 27
M  V30 28 1 29 28
M  V30 29 1 30 25
M  V30 30 2 30 29
M  V30 31 2 31 22
M  V30 32 1 31 30
M  V30 33 1 32 14
M  V30 34 1 33 11
M  V30 35 1 33 32
M  V30 36 2 34 6
M  V30 37 1 34 10
M  V30 38 1 35 1
M  V30 39 1 36 1
M  V30 40 1 37 1
M  V30 41 1 38 5
M  V30 42 1 39 7
M  V30 43 1 40 8
M  V30 44 1 41 9
M  V30 45 1 42 12
M  V30 46 1 43 12
M  V30 47 1 44 13
M  V30 48 1 45 13
M  V30 49 1 46 15
M  V30 50 1 47 15
M  V30 51 1 48 16
M  V30 52 1 49 16
M  V30 53 1 50 17
M  V30 54 1 51 17
M  V30 55 1 52 18
M  V30 56 1 53 18
M  V30 57 1 54 19
M  V30 58 1 55 23
M  V30 59 1 56 24
M  V30 60 1 57 26
M  V30 61 1 58 27
M  V30 62 1 59 28
M  V30 63 1 60 29
M  V30 64 1 61 31
M  V30 65 1 62 32
M  V30 66 1 63 32
M  V30 67 1 64 33
M  V30 68 1 65 33
M  V30 69 1 66 34
M  V30 70 1 67 14
M  V30 END BOND
M  V30 END CTAB
M  END
>  <b_m_subgroup_collapsed>  (652) 
0

>  <r_i_docking_score>  (652) 
-8.0359788345531005

>  <s_m_subgroup_title>  (652) 
glide-dock_SP_D22_pv

>  <s_m_subgroupid>  (652) 
glide-dock_SP_D22_pv

>  <Molecule ChEMBL ID>  (652) 
CHEMBL3758610

>  <Standard Type>  (652) 
Ki

>  <Standard Value>  (652) 
55.0

>  <label>  (652) 
1

$$$$
CHEMBL254203
     RDKit          3D

  0  0  0  0  0  0  0  0  0  0999 V3000
M  V30 BEGIN CTAB
M  V30 COUNTS 72 75 0 0 1
M  V30 BEGIN ATOM
M  V30 1 C 5.285372 4.180686 -12.842427 0
M  V30 2 C 6.591674 4.909946 -13.156142 0
M  V30 3 C 7.730581 4.449948 -12.232305 0
M  V30 4 N 9.095157 4.914578 -12.631225 0 CFG=2 CHG=1
M  V30 5 C 9.236659 6.388924 -12.508220 0
M  V30 6 C 9.244015 6.861315 -11.051625 0
M  V30 7 C 9.493415 8.374290 -10.978797 0
M  V30 8 C 9.264373 8.968397 -9.589226 0
M  V30 9 N 10.082722 8.258748 -8.616562 0
M  V30 10 C 9.261395 7.700435 -7.532986 0
M  V30 11 C 10.141075 6.882294 -6.560123 0
M  V30 12 N 11.285937 7.680888 -6.146479 0
M  V30 13 C 11.612782 7.876279 -4.801015 0
M  V30 14 C 11.903523 9.173056 -4.324054 0
M  V30 15 C 12.271268 9.367247 -2.983400 0
M  V30 16 C 12.372575 8.266433 -2.113061 0
M  V30 17 C 12.085627 6.971832 -2.581452 0
M  V30 18 C 11.686184 6.777738 -3.919021 0
M  V30 19 C 12.047867 8.330829 -7.201713 0
M  V30 20 C 11.098472 9.151424 -8.064673 0
M  V30 21 C 9.611446 4.358186 -13.931433 0 CFG=1
M  V30 22 C 11.143176 4.534143 -14.101532 0
M  V30 23 C 11.622991 4.090629 -15.488924 0
M  V30 24 C 11.101443 2.727498 -15.894066 0
M  V30 25 C 11.749623 2.021914 -16.927469 0
M  V30 26 C 11.287342 0.750926 -17.323195 0
M  V30 27 O 11.934400 0.067948 -18.313379 0
M  V30 28 C 10.160750 0.192497 -16.685627 0
M  V30 29 O 9.685330 -1.028603 -17.054358 0
M  V30 30 C 9.513181 0.891622 -15.651257 0
M  V30 31 C 9.978723 2.157629 -15.252664 0
M  V30 32 C 9.275023 2.856271 -14.101296 0
M  V30 33 H 4.487067 4.508929 -13.508825 0
M  V30 34 H 5.389940 3.102271 -12.965559 0
M  V30 35 H 4.970553 4.371841 -11.815821 0
M  V30 36 H 6.421774 5.980976 -13.047385 0
M  V30 37 H 6.845036 4.721257 -14.197225 0
M  V30 38 H 7.720577 3.373344 -12.194764 0
M  V30 39 H 7.506787 4.743340 -11.206304 0
M  V30 40 H 10.167597 6.732870 -12.947803 0
M  V30 41 H 8.446296 6.899024 -13.048156 0
M  V30 42 H 8.304948 6.621855 -10.554851 0
M  V30 43 H 10.026476 6.338870 -10.496442 0
M  V30 44 H 10.514289 8.581387 -11.306205 0
M  V30 45 H 8.832656 8.891525 -11.676374 0
M  V30 46 H 9.539326 10.016480 -9.628599 0
M  V30 47 H 8.210121 8.948621 -9.321045 0
M  V30 48 H 8.750626 8.503747 -6.999716 0
M  V30 49 H 8.485517 7.057111 -7.950045 0
M  V30 50 H 9.548315 6.572684 -5.698782 0
M  V30 51 H 10.500154 5.976185 -7.049541 0
M  V30 52 H 11.842899 10.025708 -4.982884 0
M  V30 53 H 12.485091 10.362977 -2.624674 0
M  V30 54 H 12.665362 8.420570 -1.085758 0
M  V30 55 H 12.155570 6.125272 -1.914335 0
M  V30 56 H 11.468499 5.775018 -4.266744 0
M  V30 57 H 12.833312 8.974463 -6.809637 0
M  V30 58 H 12.531942 7.571447 -7.817343 0
M  V30 59 H 11.654922 9.635500 -8.868779 0
M  V30 60 H 10.635479 9.919820 -7.446874 0
M  V30 61 H 9.122915 4.906599 -14.739509 0
M  V30 62 H 11.485699 5.556153 -13.960431 0
M  V30 63 H 11.658748 3.938728 -13.349637 0
M  V30 64 H 12.714884 4.085484 -15.518112 0
M  V30 65 H 11.292512 4.810157 -16.237463 0
M  V30 66 H 12.611393 2.456780 -17.412819 0
M  V30 67 H 12.681739 0.531900 -18.660442 0
M  V30 68 H 8.924271 -1.285298 -16.550568 0
M  V30 69 H 8.658026 0.453222 -15.154870 0
M  V30 70 H 8.203633 2.714194 -14.234451 0
M  V30 71 H 9.561809 2.315408 -13.200150 0
M  V30 72 H 9.709935 4.521869 -11.930452 0
M  V30 END ATOM
M  V30 BEGIN BOND
M  V30 1 1 2 1
M  V30 2 1 3 2
M  V30 3 1 4 3
M  V30 4 1 5 4
M  V30 5 1 6 5
M  V30 6 1 7 6
M  V30 7 1 8 7
M  V30 8 1 9 8
M  V30 9 1 10 9
M  V30 10 1 11 10
M  V30 11 1 12 11
M  V30 12 1 13 12
M  V30 13 2 14 13
M  V30 14 1 15 14
M  V30 15 2 16 15
M  V30 16 1 17 16
M  V30 17 1 18 13
M  V30 18 2 18 17
M  V30 19 1 19 12
M  V30 20 1 20 9
M  V30 21 1 20 19
M  V30 22 1 21 4
M  V30 23 1 22 21
M  V30 24 1 23 22
M  V30 25 1 24 23
M  V30 26 1 25 24
M  V30 27 2 26 25
M  V30 28 1 27 26
M  V30 29 1 28 26
M  V30 30 1 29 28
M  V30 31 2 30 28
M  V30 32 2 31 24
M  V30 33 1 31 30
M  V30 34 1 32 21
M  V30 35 1 32 31
M  V30 36 1 33 1
M  V30 37 1 34 1
M  V30 38 1 35 1
M  V30 39 1 36 2
M  V30 40 1 37 2
M  V30 41 1 38 3
M  V30 42 1 39 3
M  V30 43 1 40 5
M  V30 44 1 41 5
M  V30 45 1 42 6
M  V30 46 1 43 6
M  V30 47 1 44 7
M  V30 48 1 45 7
M  V30 49 1 46 8
M  V30 50 1 47 8
M  V30 51 1 48 10
M  V30 52 1 49 10
M  V30 53 1 50 11
M  V30 54 1 51 11
M  V30 55 1 52 14
M  V30 56 1 53 15
M  V30 57 1 54 16
M  V30 58 1 55 17
M  V30 59 1 56 18
M  V30 60 1 57 19
M  V30 61 1 58 19
M  V30 62 1 59 20
M  V30 63 1 60 20
M  V30 64 1 21 61 CFG=3
M  V30 65 1 62 22
M  V30 66 1 63 22
M  V30 67 1 64 23
M  V30 68 1 65 23
M  V30 69 1 66 25
M  V30 70 1 67 27
M  V30 71 1 68 29
M  V30 72 1 69 30
M  V30 73 1 70 32
M  V30 74 1 71 32
M  V30 75 1 4 72 CFG=1
M  V30 END BOND
M  V30 END CTAB
M  END
>  <b_m_subgroup_collapsed>  (653) 
0

>  <r_i_docking_score>  (653) 
-8.0347974033241591

>  <s_m_subgroup_title>  (653) 
glide-dock_SP_D22_pv

>  <s_m_subgroupid>  (653) 
glide-dock_SP_D22_pv

>  <Molecule ChEMBL ID>  (653) 
CHEMBL254203

>  <Standard Type>  (653) 
Ki

>  <Standard Value>  (653) 
21.7

>  <label>  (653) 
1

$$$$
CHEMBL4076086
     RDKit          3D

  0  0  0  0  0  0  0  0  0  0999 V3000
M  V30 BEGIN CTAB
M  V30 COUNTS 70 74 0 0 1
M  V30 BEGIN ATOM
M  V30 1 C 12.264666 9.487584 -7.046852 0
M  V30 2 N 11.305429 8.414100 -7.029890 0
M  V30 3 C 10.614529 7.902909 -8.060946 0
M  V30 4 S 10.807340 8.572756 -9.686179 0
M  V30 5 C 9.287417 7.996437 -10.483134 0
M  V30 6 C 9.484488 6.621763 -11.130693 0
M  V30 7 C 8.424055 6.292098 -12.201385 0
M  V30 8 N 8.533893 4.912785 -12.748479 0 CHG=1
M  V30 9 C 7.517943 4.644052 -13.795649 0
M  V30 10 C 7.499487 3.163901 -14.232613 0
M  V30 11 C 8.886902 2.608964 -14.644215 0
M  V30 12 C 9.915660 3.054495 -13.573329 0
M  V30 13 C 9.880916 4.548480 -13.255019 0
M  V30 14 C 9.291262 3.094697 -16.062269 0
M  V30 15 C 10.579469 2.418228 -16.579424 0
M  V30 16 N 10.461237 0.961487 -16.524055 0
M  V30 17 C 10.135001 0.287490 -17.718601 0
M  V30 18 C 10.903607 0.521199 -18.882101 0
M  V30 19 C 10.595870 -0.127545 -20.093252 0
M  V30 20 C 9.515745 -1.026405 -20.156586 0
M  V30 21 C 8.749239 -1.282065 -19.003340 0
M  V30 22 C 7.646161 -2.226874 -19.058411 0
M  V30 23 N 6.770842 -2.981219 -19.103899 0
M  V30 24 C 9.057218 -0.626820 -17.794334 0
M  V30 25 C 10.074857 0.399777 -15.231644 0
M  V30 26 C 8.791004 1.061419 -14.699142 0
M  V30 27 N 9.825060 6.887495 -7.709323 0
M  V30 28 N 10.001060 6.746646 -6.347796 0
M  V30 29 C 10.882255 7.683276 -5.986981 0
M  V30 30 C 11.365545 7.877140 -4.625230 0
M  V30 31 C 11.781033 6.768403 -3.863982 0
M  V30 32 C 12.339784 6.953422 -2.586218 0
M  V30 33 C 12.484598 8.250690 -2.056513 0
M  V30 34 C 12.035556 9.359735 -2.795358 0
M  V30 35 C 11.467834 9.173271 -4.068101 0
M  V30 36 H 11.702079 10.426364 -7.047032 0
M  V30 37 H 12.925568 9.452546 -6.182974 0
M  V30 38 H 12.897459 9.372311 -7.927023 0
M  V30 39 H 8.486493 7.984026 -9.748946 0
M  V30 40 H 9.016646 8.731411 -11.241602 0
M  V30 41 H 10.471546 6.632684 -11.590066 0
M  V30 42 H 9.501305 5.851202 -10.358878 0
M  V30 43 H 7.428421 6.405064 -11.771307 0
M  V30 44 H 8.485246 7.010868 -13.018364 0
M  V30 45 H 6.526491 4.934510 -13.444466 0
M  V30 46 H 7.757714 5.275070 -14.646858 0
M  V30 47 H 7.095718 2.571650 -13.415351 0
M  V30 48 H 6.784978 3.021288 -15.045001 0
M  V30 49 H 9.688736 2.572311 -12.631230 0
M  V30 50 H 10.929924 2.752617 -13.832827 0
M  V30 51 H 10.150032 5.155250 -14.119999 0
M  V30 52 H 10.644878 4.718280 -12.501823 0
M  V30 53 H 8.487257 2.870815 -16.764353 0
M  V30 54 H 9.414358 4.176645 -16.089535 0
M  V30 55 H 10.778014 2.766449 -17.592432 0
M  V30 56 H 11.442852 2.721772 -15.987964 0
M  V30 57 H 11.746546 1.196033 -18.851551 0
M  V30 58 H 11.193079 0.062366 -20.972847 0
M  V30 59 H 9.287261 -1.523420 -21.088608 0
M  V30 60 H 8.442748 -0.826468 -16.929844 0
M  V30 61 H 9.954042 -0.681540 -15.292792 0
M  V30 62 H 10.887265 0.561897 -14.524819 0
M  V30 63 H 8.561211 0.653813 -13.714231 0
M  V30 64 H 7.954859 0.774530 -15.337468 0
M  V30 65 H 11.693397 5.772249 -4.271699 0
M  V30 66 H 12.662556 6.095522 -2.014114 0
M  V30 67 H 12.908966 8.394765 -1.073701 0
M  V30 68 H 12.089743 10.355242 -2.381184 0
M  V30 69 H 11.120718 10.034669 -4.618872 0
M  V30 70 H 8.335102 4.293550 -11.974813 0
M  V30 END ATOM
M  V30 BEGIN BOND
M  V30 1 1 2 1
M  V30 2 1 3 2
M  V30 3 1 4 3
M  V30 4 1 5 4
M  V30 5 1 6 5
M  V30 6 1 7 6
M  V30 7 1 8 7
M  V30 8 1 9 8
M  V30 9 1 10 9
M  V30 10 1 11 10
M  V30 11 1 12 11
M  V30 12 1 13 8
M  V30 13 1 13 12
M  V30 14 1 14 11
M  V30 15 1 15 14
M  V30 16 1 16 15
M  V30 17 1 17 16
M  V30 18 2 18 17
M  V30 19 1 19 18
M  V30 20 2 20 19
M  V30 21 1 21 20
M  V30 22 1 22 21
M  V30 23 3 23 22
M  V30 24 1 24 17
M  V30 25 2 24 21
M  V30 26 1 25 16
M  V30 27 1 26 11
M  V30 28 1 26 25
M  V30 29 2 27 3
M  V30 30 1 28 27
M  V30 31 1 29 2
M  V30 32 2 29 28
M  V30 33 1 30 29
M  V30 34 2 31 30
M  V30 35 1 32 31
M  V30 36 2 33 32
M  V30 37 1 34 33
M  V30 38 1 35 30
M  V30 39 2 35 34
M  V30 40 1 36 1
M  V30 41 1 37 1
M  V30 42 1 38 1
M  V30 43 1 39 5
M  V30 44 1 40 5
M  V30 45 1 41 6
M  V30 46 1 42 6
M  V30 47 1 43 7
M  V30 48 1 44 7
M  V30 49 1 45 9
M  V30 50 1 46 9
M  V30 51 1 47 10
M  V30 52 1 48 10
M  V30 53 1 49 12
M  V30 54 1 50 12
M  V30 55 1 51 13
M  V30 56 1 52 13
M  V30 57 1 53 14
M  V30 58 1 54 14
M  V30 59 1 55 15
M  V30 60 1 56 15
M  V30 61 1 57 18
M  V30 62 1 58 19
M  V30 63 1 59 20
M  V30 64 1 60 24
M  V30 65 1 61 25
M  V30 66 1 62 25
M  V30 67 1 63 26
M  V30 68 1 64 26
M  V30 69 1 65 31
M  V30 70 1 66 32
M  V30 71 1 67 33
M  V30 72 1 68 34
M  V30 73 1 69 35
M  V30 74 1 70 8
M  V30 END BOND
M  V30 END CTAB
M  END
>  <b_m_subgroup_collapsed>  (654) 
0

>  <r_i_docking_score>  (654) 
-8.0345203084294106

>  <s_m_subgroup_title>  (654) 
glide-dock_SP_D22_pv

>  <s_m_subgroupid>  (654) 
glide-dock_SP_D22_pv

>  <Molecule ChEMBL ID>  (654) 
CHEMBL4076086

>  <Standard Type>  (654) 
Ki

>  <Standard Value>  (654) 
57101.0

>  <label>  (654) 
0

$$$$
CHEMBL4528835
     RDKit          3D

  0  0  0  0  0  0  0  0  0  0999 V3000
M  V30 BEGIN CTAB
M  V30 COUNTS 50 53 0 0 1
M  V30 BEGIN ATOM
M  V30 1 O 11.145079 6.446424 -7.036701 0
M  V30 2 C 10.886182 7.553470 -6.569549 0
M  V30 3 C 10.124402 8.579353 -7.422237 0
M  V30 4 C 9.183758 7.949032 -8.467406 0
M  V30 5 C 9.875216 7.357127 -9.708838 0
M  V30 6 N 8.886025 6.676455 -10.579158 0 CFG=1 CHG=1
M  V30 7 C 8.595405 7.419666 -11.856798 0
M  V30 8 C 7.753148 6.602870 -12.882653 0
M  V30 9 C 8.362276 5.219809 -13.022493 0 CFG=2
M  V30 10 C 9.680206 5.243696 -13.802045 0
M  V30 11 C 10.904724 5.803701 -13.357544 0
M  V30 12 C 12.039227 5.838760 -14.188196 0
M  V30 13 C 11.991948 5.286534 -15.477479 0
M  V30 14 Cl 13.378342 5.357689 -16.500462 0
M  V30 15 C 10.805247 4.683055 -15.925680 0
M  V30 16 C 9.670816 4.664024 -15.091593 0
M  V30 17 C 7.877215 3.809954 -12.837942 0
M  V30 18 C 8.042579 4.657616 -11.618513 0 CFG=1
M  V30 19 C 9.098678 5.191343 -10.694119 0
M  V30 20 C 11.285576 7.950858 -5.190988 0
M  V30 21 C 11.296668 9.301536 -4.767649 0
M  V30 22 C 11.687653 9.624292 -3.453967 0
M  V30 23 C 12.092745 8.614062 -2.564859 0
M  V30 24 F 12.491647 8.936638 -1.316148 0
M  V30 25 C 12.088753 7.270918 -2.975001 0
M  V30 26 C 11.686053 6.944061 -4.281841 0
M  V30 27 H 9.515578 9.189802 -6.755326 0
M  V30 28 H 10.837517 9.249601 -7.904015 0
M  V30 29 H 8.576115 7.183082 -7.983634 0
M  V30 30 H 8.485960 8.718959 -8.796131 0
M  V30 31 H 10.383791 8.155488 -10.249976 0
M  V30 32 H 10.658113 6.652262 -9.435783 0
M  V30 33 H 8.086218 8.353231 -11.623195 0
M  V30 34 H 9.519278 7.750266 -12.323289 0
M  V30 35 H 6.720252 6.531782 -12.536118 0
M  V30 36 H 7.686453 7.091732 -13.846663 0
M  V30 37 H 11.008732 6.251154 -12.385370 0
M  V30 38 H 12.945220 6.303657 -13.834529 0
M  V30 39 H 10.761170 4.243933 -16.911674 0
M  V30 40 H 8.769869 4.194977 -15.449422 0
M  V30 41 H 6.862851 3.592496 -13.166813 0
M  V30 42 H 8.598828 3.017951 -13.040467 0
M  V30 43 H 7.060304 4.822331 -11.174750 0
M  V30 44 H 10.085962 4.900666 -11.029008 0
M  V30 45 H 8.963064 4.738032 -9.711442 0
M  V30 46 H 11.011838 10.103070 -5.432598 0
M  V30 47 H 11.686307 10.649014 -3.117897 0
M  V30 48 H 12.393615 6.491610 -2.290894 0
M  V30 49 H 11.686282 5.905590 -4.582157 0
M  V30 50 H 7.989481 6.780568 -10.104373 0
M  V30 END ATOM
M  V30 BEGIN BOND
M  V30 1 2 2 1
M  V30 2 1 3 2
M  V30 3 1 4 3
M  V30 4 1 5 4
M  V30 5 1 6 5
M  V30 6 1 7 6
M  V30 7 1 8 7
M  V30 8 1 9 8
M  V30 9 1 9 10 CFG=1
M  V30 10 1 11 10
M  V30 11 2 12 11
M  V30 12 1 13 12
M  V30 13 1 14 13
M  V30 14 2 15 13
M  V30 15 2 16 10
M  V30 16 1 16 15
M  V30 17 1 17 9
M  V30 18 1 18 9
M  V30 19 1 18 17
M  V30 20 1 19 6
M  V30 21 1 19 18
M  V30 22 1 20 2
M  V30 23 1 21 20
M  V30 24 2 22 21
M  V30 25 1 23 22
M  V30 26 1 24 23
M  V30 27 2 25 23
M  V30 28 2 26 20
M  V30 29 1 26 25
M  V30 30 1 27 3
M  V30 31 1 28 3
M  V30 32 1 29 4
M  V30 33 1 30 4
M  V30 34 1 31 5
M  V30 35 1 32 5
M  V30 36 1 33 7
M  V30 37 1 34 7
M  V30 38 1 35 8
M  V30 39 1 36 8
M  V30 40 1 37 11
M  V30 41 1 38 12
M  V30 42 1 39 15
M  V30 43 1 40 16
M  V30 44 1 41 17
M  V30 45 1 42 17
M  V30 46 1 18 43 CFG=1
M  V30 47 1 44 19
M  V30 48 1 45 19
M  V30 49 1 46 21
M  V30 50 1 47 22
M  V30 51 1 48 25
M  V30 52 1 49 26
M  V30 53 1 6 50 CFG=1
M  V30 END BOND
M  V30 END CTAB
M  END
>  <b_m_subgroup_collapsed>  (655) 
0

>  <r_i_docking_score>  (655) 
-8.02825319722991

>  <s_m_subgroup_title>  (655) 
glide-dock_SP_D22_pv

>  <s_m_subgroupid>  (655) 
glide-dock_SP_D22_pv

>  <Molecule ChEMBL ID>  (655) 
CHEMBL4528835

>  <Standard Type>  (655) 
Ki

>  <Standard Value>  (655) 
0.1585

>  <label>  (655) 
1

$$$$
CHEMBL495075
     RDKit          3D

  0  0  0  0  0  0  0  0  0  0999 V3000
M  V30 BEGIN CTAB
M  V30 COUNTS 59 62 0 0 1
M  V30 BEGIN ATOM
M  V30 1 O 11.591009 8.201367 -8.935349 0
M  V30 2 C 10.836404 7.820304 -8.042289 0
M  V30 3 N 9.842268 6.945983 -8.220141 0
M  V30 4 C 9.762930 5.993785 -9.315242 0 CFG=1
M  V30 5 C 8.555214 5.071494 -9.199533 0
M  V30 6 C 8.086021 4.897857 -10.646861 0
M  V30 7 N 9.173692 5.395925 -11.497886 0 CFG=1 CHG=1
M  V30 8 C 8.790787 5.612658 -12.911774 0
M  V30 9 C 8.459859 4.290576 -13.603995 0
M  V30 10 C 7.136800 3.797364 -13.629419 0
M  V30 11 C 6.836434 2.572478 -14.263148 0
M  V30 12 C 7.853132 1.820322 -14.903922 0
M  V30 13 O 7.655861 0.630886 -15.584790 0
M  V30 14 C 6.341535 0.153115 -15.863853 0
M  V30 15 C 6.396192 -0.725817 -17.131065 0
M  V30 16 C 5.081266 -1.500194 -17.391312 0
M  V30 17 N 4.640362 -2.227672 -16.179104 0 CHG=1
M  V30 18 C 4.437428 -1.297502 -15.046854 0
M  V30 19 C 5.771980 -0.634988 -14.668752 0
M  V30 20 C 9.175319 2.312703 -14.858521 0
M  V30 21 Br 10.571020 1.323959 -15.691884 0
M  V30 22 C 9.478350 3.532236 -14.217579 0
M  V30 23 C 9.686045 6.557734 -10.745328 0
M  V30 24 C 11.034363 8.252145 -6.626380 0
M  V30 25 C 11.060605 9.621359 -6.297913 0
M  V30 26 C 11.319761 10.030183 -4.981587 0
M  V30 27 C 11.671628 9.074446 -4.013838 0
M  V30 28 Cl 12.086022 9.554992 -2.421522 0
M  V30 29 C 11.666075 7.709051 -4.332229 0
M  V30 30 Cl 12.086022 6.572324 -3.111298 0
M  V30 31 C 11.286074 7.288887 -5.622422 0
M  V30 32 H 9.220899 6.787777 -7.438792 0
M  V30 33 H 10.653435 5.372314 -9.246962 0
M  V30 34 H 8.830208 4.120290 -8.742256 0
M  V30 35 H 7.761344 5.513287 -8.594402 0
M  V30 36 H 7.782250 3.879645 -10.883045 0
M  V30 37 H 7.212115 5.530895 -10.808938 0
M  V30 38 H 7.944143 6.298609 -12.977506 0
M  V30 39 H 9.621560 6.086707 -13.435332 0
M  V30 40 H 6.341360 4.357571 -13.158357 0
M  V30 41 H 5.811708 2.237230 -14.246884 0
M  V30 42 H 5.686026 0.972325 -16.112719 0
M  V30 43 H 6.634149 -0.105822 -17.996054 0
M  V30 44 H 7.221634 -1.427672 -17.046867 0
M  V30 45 H 4.292633 -0.812763 -17.701990 0
M  V30 46 H 5.217329 -2.211809 -18.206274 0
M  V30 47 H 3.790857 -2.762700 -16.357437 0
M  V30 48 H 3.695947 -0.543654 -15.317988 0
M  V30 49 H 4.029370 -1.827675 -14.191691 0
M  V30 50 H 6.486020 -1.399432 -14.357631 0
M  V30 51 H 5.631009 0.014540 -13.805701 0
M  V30 52 H 10.500122 3.882968 -14.207350 0
M  V30 53 H 8.981464 7.390798 -10.803244 0
M  V30 54 H 10.653412 6.891745 -11.122139 0
M  V30 55 H 10.886021 10.371212 -7.046863 0
M  V30 56 H 11.286022 11.078093 -4.731470 0
M  V30 57 H 11.281582 6.233583 -5.857080 0
M  V30 58 H 5.363280 -2.888511 -15.926757 0
M  V30 59 H 9.900100 4.694450 -11.488285 0
M  V30 END ATOM
M  V30 BEGIN BOND
M  V30 1 2 2 1
M  V30 2 1 3 2
M  V30 3 1 4 3
M  V30 4 1 5 4
M  V30 5 1 6 5
M  V30 6 1 7 6
M  V30 7 1 8 7
M  V30 8 1 9 8
M  V30 9 1 10 9
M  V30 10 2 11 10
M  V30 11 1 12 11
M  V30 12 1 13 12
M  V30 13 1 14 13
M  V30 14 1 15 14
M  V30 15 1 16 15
M  V30 16 1 17 16
M  V30 17 1 18 17
M  V30 18 1 19 14
M  V30 19 1 19 18
M  V30 20 2 20 12
M  V30 21 1 21 20
M  V30 22 2 22 9
M  V30 23 1 22 20
M  V30 24 1 23 4
M  V30 25 1 23 7
M  V30 26 1 24 2
M  V30 27 1 25 24
M  V30 28 2 26 25
M  V30 29 1 27 26
M  V30 30 1 28 27
M  V30 31 2 29 27
M  V30 32 1 30 29
M  V30 33 2 31 24
M  V30 34 1 31 29
M  V30 35 1 32 3
M  V30 36 1 4 33 CFG=3
M  V30 37 1 34 5
M  V30 38 1 35 5
M  V30 39 1 36 6
M  V30 40 1 37 6
M  V30 41 1 38 8
M  V30 42 1 39 8
M  V30 43 1 40 10
M  V30 44 1 41 11
M  V30 45 1 42 14
M  V30 46 1 43 15
M  V30 47 1 44 15
M  V30 48 1 45 16
M  V30 49 1 46 16
M  V30 50 1 47 17
M  V30 51 1 48 18
M  V30 52 1 49 18
M  V30 53 1 50 19
M  V30 54 1 51 19
M  V30 55 1 52 22
M  V30 56 1 53 23
M  V30 57 1 54 23
M  V30 58 1 55 25
M  V30 59 1 56 26
M  V30 60 1 57 31
M  V30 61 1 58 17
M  V30 62 1 7 59 CFG=3
M  V30 END BOND
M  V30 END CTAB
M  END
>  <b_m_subgroup_collapsed>  (656) 
0

>  <r_i_docking_score>  (656) 
-8.0278549167354605

>  <s_m_subgroup_title>  (656) 
glide-dock_SP_D22_pv

>  <s_m_subgroupid>  (656) 
glide-dock_SP_D22_pv

>  <Molecule ChEMBL ID>  (656) 
CHEMBL495075

>  <Standard Type>  (656) 
Ki

>  <Standard Value>  (656) 
100.0

>  <label>  (656) 
1

$$$$
CHEMBL542946
     RDKit          3D

  0  0  0  0  0  0  0  0  0  0999 V3000
M  V30 BEGIN CTAB
M  V30 COUNTS 37 39 0 0 1
M  V30 BEGIN ATOM
M  V30 1 C 8.531249 5.681770 -10.492640 0
M  V30 2 N 8.886023 6.728052 -9.510020 0 CFG=1 CHG=1
M  V30 3 C 8.708344 6.275884 -8.104878 0
M  V30 4 C 9.070644 7.389343 -7.091118 0
M  V30 5 C 10.531830 7.867308 -7.277458 0 CFG=2
M  V30 6 C 11.513840 6.700167 -7.046866 0
M  V30 7 C 11.557362 6.222743 -5.588132 0
M  V30 8 C 11.686026 7.325655 -4.571200 0
M  V30 9 C 12.159304 7.017580 -3.278590 0
M  V30 10 C 12.367150 8.042818 -2.339343 0
M  V30 11 C 12.072274 9.372324 -2.682215 0
M  V30 12 C 11.544678 9.672331 -3.952252 0
M  V30 13 C 11.361004 8.652950 -4.913002 0
M  V30 14 C 10.909095 9.004654 -6.284104 0
M  V30 15 O 10.886023 10.172325 -6.646864 0
M  V30 16 C 10.623689 8.378368 -8.742174 0
M  V30 17 C 10.224128 7.312812 -9.781186 0
M  V30 18 H 9.170654 4.804015 -10.388757 0
M  V30 19 H 7.496236 5.372313 -10.364384 0
M  V30 20 H 8.628607 6.060764 -11.510463 0
M  V30 21 H 7.686022 5.955203 -7.950572 0
M  V30 22 H 9.282562 5.368412 -7.929327 0
M  V30 23 H 8.898478 7.028574 -6.078553 0
M  V30 24 H 8.383421 8.228343 -7.217195 0
M  V30 25 H 11.295892 5.837425 -7.669519 0
M  V30 26 H 12.486021 7.026148 -7.395294 0
M  V30 27 H 12.350827 5.488306 -5.460430 0
M  V30 28 H 10.607346 5.772325 -5.334071 0
M  V30 29 H 12.394711 5.996427 -3.014451 0
M  V30 30 H 12.754322 7.812484 -1.358774 0
M  V30 31 H 12.219764 10.161814 -1.961086 0
M  V30 32 H 11.286022 10.694596 -4.186652 0
M  V30 33 H 9.969869 9.242542 -8.877128 0
M  V30 34 H 11.632840 8.733224 -8.959728 0
M  V30 35 H 10.220309 7.763701 -10.774549 0
M  V30 36 H 10.970184 6.519583 -9.812243 0
M  V30 37 H 8.185962 7.452277 -9.656070 0
M  V30 END ATOM
M  V30 BEGIN BOND
M  V30 1 1 2 1
M  V30 2 1 3 2
M  V30 3 1 4 3
M  V30 4 1 5 4 CFG=1
M  V30 5 1 6 5
M  V30 6 1 7 6
M  V30 7 1 8 7
M  V30 8 2 9 8
M  V30 9 1 10 9
M  V30 10 2 11 10
M  V30 11 1 12 11
M  V30 12 1 13 8
M  V30 13 2 13 12
M  V30 14 1 14 5
M  V30 15 1 14 13
M  V30 16 2 15 14
M  V30 17 1 16 5
M  V30 18 1 17 2
M  V30 19 1 17 16
M  V30 20 1 18 1
M  V30 21 1 19 1
M  V30 22 1 20 1
M  V30 23 1 21 3
M  V30 24 1 22 3
M  V30 25 1 23 4
M  V30 26 1 24 4
M  V30 27 1 25 6
M  V30 28 1 26 6
M  V30 29 1 27 7
M  V30 30 1 28 7
M  V30 31 1 29 9
M  V30 32 1 30 10
M  V30 33 1 31 11
M  V30 34 1 32 12
M  V30 35 1 33 16
M  V30 36 1 34 16
M  V30 37 1 35 17
M  V30 38 1 36 17
M  V30 39 1 2 37 CFG=3
M  V30 END BOND
M  V30 END CTAB
M  END
>  <b_m_subgroup_collapsed>  (657) 
0

>  <r_i_docking_score>  (657) 
-8.0271279676177194

>  <s_m_subgroup_title>  (657) 
glide-dock_SP_D22_pv

>  <s_m_subgroupid>  (657) 
glide-dock_SP_D22_pv

>  <Molecule ChEMBL ID>  (657) 
CHEMBL542946

>  <Standard Type>  (657) 
Ki

>  <Standard Value>  (657) 
10000.0

>  <label>  (657) 
0

$$$$
CHEMBL1940406
     RDKit          3D

  0  0  0  0  0  0  0  0  0  0999 V3000
M  V30 BEGIN CTAB
M  V30 COUNTS 48 50 0 0 1
M  V30 BEGIN ATOM
M  V30 1 F 4.302331 -0.228537 -13.446759 0
M  V30 2 C 5.346634 0.598792 -13.677642 0
M  V30 3 C 6.476951 0.135708 -14.375080 0
M  V30 4 C 7.541709 1.015719 -14.650148 0
M  V30 5 C 7.487702 2.366800 -14.247321 0
M  V30 6 O 8.578780 3.154471 -14.559208 0
M  V30 7 C 8.530840 4.545820 -14.265345 0
M  V30 8 C 8.852579 4.847876 -12.794610 0
M  V30 9 C 8.040097 6.050202 -12.270980 0
M  V30 10 N 8.486040 6.571403 -10.957520 0 CFG=2 CHG=1
M  V30 11 C 9.636866 7.502086 -11.054196 0
M  V30 12 C 9.918945 8.166725 -9.700585 0
M  V30 13 C 10.170643 7.115361 -8.598004 0 CFG=1
M  V30 14 C 10.530208 7.698862 -7.230153 0
M  V30 15 C 10.485466 9.085744 -6.969119 0
M  V30 16 C 10.901299 9.605194 -5.728569 0
M  V30 17 C 11.352801 8.733783 -4.721830 0
M  V30 18 Cl 11.934472 9.368040 -3.227054 0
M  V30 19 C 11.347994 7.344426 -4.948669 0
M  V30 20 C 10.957692 6.835467 -6.201275 0
M  V30 21 C 8.962672 6.162002 -8.533668 0
M  V30 22 C 8.675227 5.533459 -9.908876 0
M  V30 23 C 6.344086 2.819624 -13.536861 0
M  V30 24 C 5.292075 1.932726 -13.236856 0
M  V30 25 H 6.524418 -0.892474 -14.705482 0
M  V30 26 H 8.407051 0.651355 -15.184431 0
M  V30 27 H 9.259806 5.050795 -14.899822 0
M  V30 28 H 7.572488 4.966320 -14.554886 0
M  V30 29 H 8.631192 3.971236 -12.184906 0
M  V30 30 H 9.924607 5.020200 -12.697358 0
M  V30 31 H 8.049133 6.863060 -12.998087 0
M  V30 32 H 6.993767 5.761120 -12.168355 0
M  V30 33 H 10.521152 6.964747 -11.399472 0
M  V30 34 H 9.425100 8.275797 -11.793469 0
M  V30 35 H 10.783044 8.825085 -9.801497 0
M  V30 36 H 9.066001 8.794457 -9.435160 0
M  V30 37 H 11.040186 6.531129 -8.902013 0
M  V30 38 H 10.152173 9.772063 -7.724882 0
M  V30 39 H 10.890963 10.671409 -5.556627 0
M  V30 40 H 11.687171 6.668777 -4.176977 0
M  V30 41 H 11.008136 5.772364 -6.376128 0
M  V30 42 H 9.142655 5.363709 -7.813908 0
M  V30 43 H 8.086582 6.698740 -8.174340 0
M  V30 44 H 7.784681 4.907323 -9.853825 0
M  V30 45 H 9.506318 4.878849 -10.175268 0
M  V30 46 H 6.250448 3.837309 -13.195454 0
M  V30 47 H 4.426250 2.285020 -12.696058 0
M  V30 48 H 7.670826 7.128054 -10.645676 0
M  V30 END ATOM
M  V30 BEGIN BOND
M  V30 1 1 2 1
M  V30 2 1 3 2
M  V30 3 2 4 3
M  V30 4 1 5 4
M  V30 5 1 6 5
M  V30 6 1 7 6
M  V30 7 1 8 7
M  V30 8 1 9 8
M  V30 9 1 10 9
M  V30 10 1 11 10
M  V30 11 1 12 11
M  V30 12 1 13 12
M  V30 13 1 14 13
M  V30 14 1 15 14
M  V30 15 2 16 15
M  V30 16 1 17 16
M  V30 17 1 18 17
M  V30 18 2 19 17
M  V30 19 2 20 14
M  V30 20 1 20 19
M  V30 21 1 21 13
M  V30 22 1 22 10
M  V30 23 1 22 21
M  V30 24 2 23 5
M  V30 25 2 24 2
M  V30 26 1 24 23
M  V30 27 1 25 3
M  V30 28 1 26 4
M  V30 29 1 27 7
M  V30 30 1 28 7
M  V30 31 1 29 8
M  V30 32 1 30 8
M  V30 33 1 31 9
M  V30 34 1 32 9
M  V30 35 1 33 11
M  V30 36 1 34 11
M  V30 37 1 35 12
M  V30 38 1 36 12
M  V30 39 1 13 37 CFG=3
M  V30 40 1 38 15
M  V30 41 1 39 16
M  V30 42 1 40 19
M  V30 43 1 41 20
M  V30 44 1 42 21
M  V30 45 1 43 21
M  V30 46 1 44 22
M  V30 47 1 45 22
M  V30 48 1 46 23
M  V30 49 1 47 24
M  V30 50 1 10 48 CFG=1
M  V30 END BOND
M  V30 END CTAB
M  END
>  <b_m_subgroup_collapsed>  (658) 
0

>  <r_i_docking_score>  (658) 
-8.0269362735219598

>  <s_m_subgroup_title>  (658) 
glide-dock_SP_D22_pv

>  <s_m_subgroupid>  (658) 
glide-dock_SP_D22_pv

>  <Molecule ChEMBL ID>  (658) 
CHEMBL1940406

>  <Standard Type>  (658) 
Ki

>  <Standard Value>  (658) 
41.0

>  <label>  (658) 
1

$$$$
CHEMBL238875
     RDKit          3D

  0  0  0  0  0  0  0  0  0  0999 V3000
M  V30 BEGIN CTAB
M  V30 COUNTS 71 74 0 0 1
M  V30 BEGIN ATOM
M  V30 1 C 6.325701 0.258206 -19.032314 0
M  V30 2 O 7.402032 0.461071 -18.126301 0
M  V30 3 C 7.196112 0.180187 -16.789108 0
M  V30 4 C 5.944165 -0.228351 -16.258406 0
M  V30 5 C 5.779616 -0.433246 -14.874332 0
M  V30 6 C 6.861481 -0.227558 -14.001085 0
M  V30 7 C 8.107801 0.172201 -14.514405 0
M  V30 8 C 8.289563 0.360455 -15.901946 0
M  V30 9 N 9.554082 0.828084 -16.387800 0
M  V30 10 C 10.280072 0.043662 -17.232767 0
M  V30 11 C 11.453413 0.641969 -18.020679 0
M  V30 12 O 10.040311 -1.150397 -17.411678 0
M  V30 13 C 9.983151 2.199606 -16.008873 0 CFG=1
M  V30 14 C 8.841158 3.042249 -15.400229 0
M  V30 15 C 9.300351 4.469158 -15.074276 0
M  V30 16 N 10.419136 4.395380 -14.097076 0 CFG=2 CHG=1
M  V30 17 C 10.793614 5.696828 -13.493822 0
M  V30 18 C 9.774444 6.121091 -12.412790 0
M  V30 19 C 10.343410 7.072695 -11.347338 0
M  V30 20 C 9.285737 7.495854 -10.306314 0
M  V30 21 N 9.881963 7.987752 -9.067353 0
M  V30 22 C 10.342402 7.188901 -8.085224 0
M  V30 23 O 10.371973 5.961278 -8.193487 0
M  V30 24 C 10.819645 7.851921 -6.814431 0
M  V30 25 C 10.833130 9.256581 -6.654843 0
M  V30 26 C 11.263978 9.856194 -5.455490 0
M  V30 27 C 11.681310 9.051042 -4.380928 0
M  V30 28 C 12.078774 9.620425 -3.154200 0
M  V30 29 C 12.485660 8.800807 -2.088208 0
M  V30 30 C 12.485984 7.404147 -2.247876 0
M  V30 31 C 12.085291 6.832415 -3.462253 0
M  V30 32 C 11.683149 7.646393 -4.531627 0
M  V30 33 C 11.262885 7.055108 -5.738107 0
M  V30 34 C 11.574569 3.647828 -14.654868 0
M  V30 35 C 11.168443 2.209488 -15.021881 0
M  V30 36 H 6.662934 0.497696 -20.041761 0
M  V30 37 H 5.992910 -0.780561 -19.029236 0
M  V30 38 H 5.484748 0.913402 -18.801004 0
M  V30 39 H 5.083756 -0.380503 -16.893265 0
M  V30 40 H 4.820821 -0.744405 -14.489426 0
M  V30 41 H 6.736061 -0.383665 -12.938077 0
M  V30 42 H 8.932733 0.325992 -13.834087 0
M  V30 43 H 11.132622 1.505070 -18.602428 0
M  V30 44 H 12.284092 0.928430 -17.376564 0
M  V30 45 H 11.834476 -0.094391 -18.727417 0
M  V30 46 H 10.282237 2.723502 -16.917837 0
M  V30 47 H 7.986977 2.972559 -16.075365 0
M  V30 48 H 8.496852 2.626578 -14.455534 0
M  V30 49 H 8.466716 5.030466 -14.651883 0
M  V30 50 H 9.621627 4.993989 -15.975236 0
M  V30 51 H 11.781069 5.596999 -13.046912 0
M  V30 52 H 10.904753 6.454875 -14.268589 0
M  V30 53 H 8.902530 6.574127 -12.883849 0
M  V30 54 H 9.407944 5.234721 -11.897255 0
M  V30 55 H 11.168115 6.573183 -10.837564 0
M  V30 56 H 10.770610 7.958918 -11.818001 0
M  V30 57 H 8.647286 8.273714 -10.724241 0
M  V30 58 H 8.622799 6.658151 -10.069353 0
M  V30 59 H 9.866951 8.984039 -8.909673 0
M  V30 60 H 10.493958 9.896346 -7.446652 0
M  V30 61 H 11.256518 10.932825 -5.363164 0
M  V30 62 H 12.056470 10.686965 -3.009553 0
M  V30 63 H 12.789150 9.244301 -1.150656 0
M  V30 64 H 12.798292 6.759490 -1.447138 0
M  V30 65 H 12.085459 5.766160 -3.571345 0
M  V30 66 H 11.269238 5.977507 -5.826841 0
M  V30 67 H 12.385598 3.617614 -13.925242 0
M  V30 68 H 11.962430 4.170507 -15.530318 0
M  V30 69 H 10.903161 1.659201 -14.118388 0
M  V30 70 H 12.033812 1.711696 -15.446411 0
M  V30 71 H 10.086535 3.828885 -13.329502 0
M  V30 END ATOM
M  V30 BEGIN BOND
M  V30 1 1 2 1
M  V30 2 1 3 2
M  V30 3 2 4 3
M  V30 4 1 5 4
M  V30 5 2 6 5
M  V30 6 1 7 6
M  V30 7 1 8 3
M  V30 8 2 8 7
M  V30 9 1 9 8
M  V30 10 1 10 9
M  V30 11 1 11 10
M  V30 12 2 12 10
M  V30 13 1 13 9
M  V30 14 1 14 13
M  V30 15 1 15 14
M  V30 16 1 16 15
M  V30 17 1 17 16
M  V30 18 1 18 17
M  V30 19 1 19 18
M  V30 20 1 20 19
M  V30 21 1 21 20
M  V30 22 1 22 21
M  V30 23 2 23 22
M  V30 24 1 24 22
M  V30 25 1 25 24
M  V30 26 2 26 25
M  V30 27 1 27 26
M  V30 28 2 28 27
M  V30 29 1 29 28
M  V30 30 2 30 29
M  V30 31 1 31 30
M  V30 32 1 32 27
M  V30 33 2 32 31
M  V30 34 2 33 24
M  V30 35 1 33 32
M  V30 36 1 34 16
M  V30 37 1 35 13
M  V30 38 1 35 34
M  V30 39 1 36 1
M  V30 40 1 37 1
M  V30 41 1 38 1
M  V30 42 1 39 4
M  V30 43 1 40 5
M  V30 44 1 41 6
M  V30 45 1 42 7
M  V30 46 1 43 11
M  V30 47 1 44 11
M  V30 48 1 45 11
M  V30 49 1 13 46 CFG=3
M  V30 50 1 47 14
M  V30 51 1 48 14
M  V30 52 1 49 15
M  V30 53 1 50 15
M  V30 54 1 51 17
M  V30 55 1 52 17
M  V30 56 1 53 18
M  V30 57 1 54 18
M  V30 58 1 55 19
M  V30 59 1 56 19
M  V30 60 1 57 20
M  V30 61 1 58 20
M  V30 62 1 59 21
M  V30 63 1 60 25
M  V30 64 1 61 26
M  V30 65 1 62 28
M  V30 66 1 63 29
M  V30 67 1 64 30
M  V30 68 1 65 31
M  V30 69 1 66 33
M  V30 70 1 67 34
M  V30 71 1 68 34
M  V30 72 1 69 35
M  V30 73 1 70 35
M  V30 74 1 16 71 CFG=1
M  V30 END BOND
M  V30 END CTAB
M  END
>  <b_m_subgroup_collapsed>  (659) 
0

>  <r_i_docking_score>  (659) 
-8.0268382530848896

>  <s_m_subgroup_title>  (659) 
glide-dock_SP_D22_pv

>  <s_m_subgroupid>  (659) 
glide-dock_SP_D22_pv

>  <Molecule ChEMBL ID>  (659) 
CHEMBL238875

>  <Standard Type>  (659) 
Ki

>  <Standard Value>  (659) 
13350.0

>  <label>  (659) 
0

$$$$
CHEMBL4845947
     RDKit          3D

  0  0  0  0  0  0  0  0  0  0999 V3000
M  V30 BEGIN CTAB
M  V30 COUNTS 54 57 0 0 1
M  V30 BEGIN ATOM
M  V30 1 O 10.485954 -0.490277 -17.046625 0
M  V30 2 C 10.289635 0.383107 -16.204094 0
M  V30 3 C 9.217573 0.183839 -15.126847 0
M  V30 4 C 8.523593 1.505662 -14.753385 0
M  V30 5 C 9.527962 2.627512 -14.552919 0
M  V30 6 C 9.249044 3.703282 -13.689756 0
M  V30 7 C 10.173825 4.760367 -13.533458 0
M  V30 8 C 9.802546 5.900664 -12.646819 0
M  V30 9 O 8.669957 6.028635 -12.183966 0
M  V30 10 C 10.872016 6.970035 -12.358324 0
M  V30 11 C 10.591901 7.849459 -11.119543 0
M  V30 12 C 10.452215 7.036113 -9.819526 0
M  V30 13 N 10.315245 7.868219 -8.627234 0
M  V30 14 C 11.608833 8.450153 -8.234380 0
M  V30 15 C 11.478229 9.277943 -6.938566 0
M  V30 16 N 10.863004 8.453521 -5.913363 0
M  V30 17 C 11.436956 8.323194 -4.648518 0
M  V30 18 C 11.686072 7.047272 -4.100528 0
M  V30 19 C 12.212937 6.962432 -2.798513 0
M  V30 20 C 12.474796 8.153256 -2.098629 0
M  V30 21 C 12.176661 9.371962 -2.729214 0
M  V30 22 N 11.687170 9.465445 -3.979586 0
M  V30 23 C 9.629116 7.773119 -6.258987 0
M  V30 24 C 9.830606 6.984092 -7.556624 0
M  V30 25 C 11.390944 4.719352 -14.259336 0
M  V30 26 C 11.673190 3.642293 -15.126877 0
M  V30 27 C 10.740969 2.594888 -15.275418 0
M  V30 28 N 11.001594 1.522606 -16.167725 0
M  V30 29 H 9.716684 -0.226232 -14.247046 0
M  V30 30 H 8.481889 -0.555011 -15.446355 0
M  V30 31 H 7.933326 1.367655 -13.847795 0
M  V30 32 H 7.827363 1.795865 -15.539694 0
M  V30 33 H 8.310878 3.715806 -13.152854 0
M  V30 34 H 10.955396 7.610894 -13.234429 0
M  V30 35 H 11.846197 6.498601 -12.246695 0
M  V30 36 H 9.685015 8.438311 -11.279124 0
M  V30 37 H 11.407444 8.568496 -11.040812 0
M  V30 38 H 11.286336 6.348433 -9.699746 0
M  V30 39 H 9.558753 6.415663 -9.899018 0
M  V30 40 H 11.996856 9.093008 -9.023370 0
M  V30 41 H 12.342018 7.653869 -8.086486 0
M  V30 42 H 10.874635 10.171784 -7.089781 0
M  V30 43 H 12.463129 9.614578 -6.614124 0
M  V30 44 H 11.462275 6.147612 -4.656638 0
M  V30 45 H 12.410966 6.001426 -2.344784 0
M  V30 46 H 12.879897 8.138990 -1.096792 0
M  V30 47 H 12.333709 10.303576 -2.215298 0
M  V30 48 H 9.300764 7.103776 -5.463309 0
M  V30 49 H 8.841586 8.517067 -6.393183 0
M  V30 50 H 8.877196 6.538160 -7.844191 0
M  V30 51 H 10.533797 6.165620 -7.392796 0
M  V30 52 H 12.118127 5.513898 -14.182554 0
M  V30 53 H 12.600573 3.630080 -15.679664 0
M  V30 54 H 11.765987 1.624961 -16.817904 0
M  V30 END ATOM
M  V30 BEGIN BOND
M  V30 1 2 2 1
M  V30 2 1 3 2
M  V30 3 1 4 3
M  V30 4 1 5 4
M  V30 5 1 6 5
M  V30 6 2 7 6
M  V30 7 1 8 7
M  V30 8 2 9 8
M  V30 9 1 10 8
M  V30 10 1 11 10
M  V30 11 1 12 11
M  V30 12 1 13 12
M  V30 13 1 14 13
M  V30 14 1 15 14
M  V30 15 1 16 15
M  V30 16 1 17 16
M  V30 17 2 18 17
M  V30 18 1 19 18
M  V30 19 2 20 19
M  V30 20 1 21 20
M  V30 21 1 22 17
M  V30 22 2 22 21
M  V30 23 1 23 16
M  V30 24 1 24 13
M  V30 25 1 24 23
M  V30 26 1 25 7
M  V30 27 2 26 25
M  V30 28 2 27 5
M  V30 29 1 27 26
M  V30 30 1 28 2
M  V30 31 1 28 27
M  V30 32 1 29 3
M  V30 33 1 30 3
M  V30 34 1 31 4
M  V30 35 1 32 4
M  V30 36 1 33 6
M  V30 37 1 34 10
M  V30 38 1 35 10
M  V30 39 1 36 11
M  V30 40 1 37 11
M  V30 41 1 38 12
M  V30 42 1 39 12
M  V30 43 1 40 14
M  V30 44 1 41 14
M  V30 45 1 42 15
M  V30 46 1 43 15
M  V30 47 1 44 18
M  V30 48 1 45 19
M  V30 49 1 46 20
M  V30 50 1 47 21
M  V30 51 1 48 23
M  V30 52 1 49 23
M  V30 53 1 50 24
M  V30 54 1 51 24
M  V30 55 1 52 25
M  V30 56 1 53 26
M  V30 57 1 54 28
M  V30 END BOND
M  V30 END CTAB
M  END
>  <b_m_subgroup_collapsed>  (660) 
0

>  <r_i_docking_score>  (660) 
-8.0251547619459593

>  <s_m_subgroup_title>  (660) 
glide-dock_SP_D22_pv

>  <s_m_subgroupid>  (660) 
glide-dock_SP_D22_pv

>  <Molecule ChEMBL ID>  (660) 
CHEMBL4845947

>  <Standard Type>  (660) 
Ki

>  <Standard Value>  (660) 
10000.0

>  <label>  (660) 
0

$$$$
CHEMBL4535104
     RDKit          3D

  0  0  0  0  0  0  0  0  0  0999 V3000
M  V30 BEGIN CTAB
M  V30 COUNTS 73 77 0 0 1
M  V30 BEGIN ATOM
M  V30 1 C 6.693554 -0.894876 -17.625881 0
M  V30 2 O 7.868714 -0.209664 -17.219898 0
M  V30 3 C 8.969225 -0.226524 -18.050503 0
M  V30 4 C 8.954946 -0.831274 -19.332188 0
M  V30 5 C 10.087084 -0.779942 -20.164467 0
M  V30 6 C 11.258855 -0.142923 -19.723019 0
M  V30 7 C 11.288091 0.457654 -18.453245 0
M  V30 8 C 10.154734 0.423827 -17.614037 0
M  V30 9 N 10.242080 1.092066 -16.380421 0
M  V30 10 C 9.955102 0.412397 -15.122141 0
M  V30 11 C 8.690964 0.978562 -14.439757 0
M  V30 12 C 8.655151 2.526724 -14.360757 0
M  V30 13 C 9.726720 3.064231 -13.378201 0
M  V30 14 C 9.585953 4.555790 -13.078835 0
M  V30 15 N 8.256240 4.884250 -12.496944 0 CHG=1
M  V30 16 C 8.093523 6.341224 -12.207269 0
M  V30 17 C 8.743703 6.854342 -10.911713 0
M  V30 18 C 10.259446 6.782104 -10.834688 0
M  V30 19 S 10.986918 8.163690 -9.918692 0
M  V30 20 C 10.699222 7.656065 -8.254319 0
M  V30 21 N 9.907736 6.655868 -7.866816 0
M  V30 22 N 10.009814 6.623173 -6.494754 0
M  V30 23 C 10.855782 7.601695 -6.162837 0
M  V30 24 C 11.290961 7.863086 -4.798303 0
M  V30 25 C 11.686056 6.783940 -3.980712 0
M  V30 26 C 12.222448 7.018129 -2.702279 0
M  V30 27 C 12.385880 8.338726 -2.246185 0
M  V30 28 F 12.955278 8.572405 -1.047152 0
M  V30 29 C 11.968309 9.419137 -3.040806 0
M  V30 30 C 11.401012 9.183345 -4.305187 0
M  V30 31 N 11.315923 8.272774 -7.234504 0
M  V30 32 C 12.251828 9.372157 -7.281410 0
M  V30 33 C 7.167942 4.424471 -13.398341 0
M  V30 34 C 7.252794 2.956657 -13.848329 0
M  V30 35 C 8.901291 3.063322 -15.796583 0
M  V30 36 C 10.213669 2.546583 -16.414928 0
M  V30 37 H 5.949986 -0.825813 -16.831703 0
M  V30 38 H 6.263301 -0.447218 -18.522125 0
M  V30 39 H 6.886090 -1.954450 -17.802874 0
M  V30 40 H 8.075786 -1.329867 -19.711088 0
M  V30 41 H 10.058000 -1.238747 -21.141571 0
M  V30 42 H 12.131252 -0.107827 -20.358557 0
M  V30 43 H 12.187714 0.954681 -18.120272 0
M  V30 44 H 9.842714 -0.659555 -15.289450 0
M  V30 45 H 10.819459 0.533478 -14.467089 0
M  V30 46 H 7.810566 0.635579 -14.980071 0
M  V30 47 H 8.594160 0.539008 -13.446929 0
M  V30 48 H 9.683902 2.572495 -12.416840 0
M  V30 49 H 10.731698 2.856529 -13.741822 0
M  V30 50 H 10.383055 4.789100 -12.384519 0
M  V30 51 H 9.767011 5.150866 -13.975218 0
M  V30 52 H 8.439456 6.938854 -13.047785 0
M  V30 53 H 7.028265 6.557837 -12.114223 0
M  V30 54 H 8.486110 7.911063 -10.832211 0
M  V30 55 H 8.291831 6.369120 -10.045758 0
M  V30 56 H 10.513914 5.832072 -10.373382 0
M  V30 57 H 10.698210 6.835797 -11.829763 0
M  V30 58 H 11.599121 5.772282 -4.345003 0
M  V30 59 H 12.534502 6.189089 -2.084677 0
M  V30 60 H 12.084805 10.428133 -2.672924 0
M  V30 61 H 11.083409 10.021473 -4.908336 0
M  V30 62 H 12.964529 9.333169 -6.458998 0
M  V30 63 H 12.821016 9.359727 -8.209689 0
M  V30 64 H 11.685909 10.299572 -7.200808 0
M  V30 65 H 6.192440 4.618334 -12.947975 0
M  V30 66 H 7.240908 5.022953 -14.286561 0
M  V30 67 H 6.520779 2.800178 -14.642481 0
M  V30 68 H 6.885936 2.323096 -13.048079 0
M  V30 69 H 8.083157 2.744200 -16.444918 0
M  V30 70 H 8.895218 4.152017 -15.823684 0
M  V30 71 H 11.084185 2.934321 -15.887925 0
M  V30 72 H 10.294595 2.904647 -17.441977 0
M  V30 73 H 8.155793 4.385669 -11.622995 0
M  V30 END ATOM
M  V30 BEGIN BOND
M  V30 1 1 2 1
M  V30 2 1 3 2
M  V30 3 2 4 3
M  V30 4 1 5 4
M  V30 5 2 6 5
M  V30 6 1 7 6
M  V30 7 1 8 3
M  V30 8 2 8 7
M  V30 9 1 9 8
M  V30 10 1 10 9
M  V30 11 1 11 10
M  V30 12 1 12 11
M  V30 13 1 13 12
M  V30 14 1 14 13
M  V30 15 1 15 14
M  V30 16 1 16 15
M  V30 17 1 17 16
M  V30 18 1 18 17
M  V30 19 1 19 18
M  V30 20 1 20 19
M  V30 21 2 21 20
M  V30 22 1 22 21
M  V30 23 2 23 22
M  V30 24 1 24 23
M  V30 25 1 25 24
M  V30 26 2 26 25
M  V30 27 1 27 26
M  V30 28 1 28 27
M  V30 29 2 29 27
M  V30 30 2 30 24
M  V30 31 1 30 29
M  V30 32 1 31 20
M  V30 33 1 31 23
M  V30 34 1 32 31
M  V30 35 1 33 15
M  V30 36 1 34 12
M  V30 37 1 34 33
M  V30 38 1 35 12
M  V30 39 1 36 9
M  V30 40 1 36 35
M  V30 41 1 37 1
M  V30 42 1 38 1
M  V30 43 1 39 1
M  V30 44 1 40 4
M  V30 45 1 41 5
M  V30 46 1 42 6
M  V30 47 1 43 7
M  V30 48 1 44 10
M  V30 49 1 45 10
M  V30 50 1 46 11
M  V30 51 1 47 11
M  V30 52 1 48 13
M  V30 53 1 49 13
M  V30 54 1 50 14
M  V30 55 1 51 14
M  V30 56 1 52 16
M  V30 57 1 53 16
M  V30 58 1 54 17
M  V30 59 1 55 17
M  V30 60 1 56 18
M  V30 61 1 57 18
M  V30 62 1 58 25
M  V30 63 1 59 26
M  V30 64 1 60 29
M  V30 65 1 61 30
M  V30 66 1 62 32
M  V30 67 1 63 32
M  V30 68 1 64 32
M  V30 69 1 65 33
M  V30 70 1 66 33
M  V30 71 1 67 34
M  V30 72 1 68 34
M  V30 73 1 69 35
M  V30 74 1 70 35
M  V30 75 1 71 36
M  V30 76 1 72 36
M  V30 77 1 73 15
M  V30 END BOND
M  V30 END CTAB
M  END
>  <b_m_subgroup_collapsed>  (661) 
0

>  <r_i_docking_score>  (661) 
-8.0249388565807003

>  <s_m_subgroup_title>  (661) 
glide-dock_SP_D22_pv

>  <s_m_subgroupid>  (661) 
glide-dock_SP_D22_pv

>  <Molecule ChEMBL ID>  (661) 
CHEMBL4535104

>  <Standard Type>  (661) 
Ki

>  <Standard Value>  (661) 
15768.0

>  <label>  (661) 
0

$$$$
CHEMBL5267339
     RDKit          3D

  0  0  0  0  0  0  0  0  0  0999 V3000
M  V30 BEGIN CTAB
M  V30 COUNTS 41 43 0 0 1
M  V30 BEGIN ATOM
M  V30 1 Cl 12.885820 8.572324 -1.446865 0
M  V30 2 C 12.227527 8.278199 -2.996248 0
M  V30 3 C 11.836771 6.995436 -3.418708 0
M  V30 4 C 11.286022 6.836735 -4.706445 0
M  V30 5 C 11.143521 7.947608 -5.569471 0
M  V30 6 N 10.520759 7.778645 -6.825791 0
M  V30 7 C 10.681522 6.753664 -7.733667 0
M  V30 8 C 9.907571 7.147235 -8.787593 0
M  V30 9 C 9.664324 6.475887 -10.090025 0
M  V30 10 N 8.373032 5.772325 -10.032789 0 CHG=1
M  V30 11 C 8.189756 4.771174 -11.096654 0
M  V30 12 C 7.627701 5.382854 -12.394720 0 CFG=2
M  V30 13 C 6.087062 5.357516 -12.416404 0
M  V30 14 C 5.561077 3.931695 -12.646865 0
M  V30 15 C 6.254909 3.278528 -13.846863 0
M  V30 16 O 7.668876 3.332639 -13.704282 0
M  V30 17 C 8.182902 4.655102 -13.633801 0
M  V30 18 N 9.286022 8.345820 -8.473582 0
M  V30 19 N 9.622303 8.688027 -7.277995 0
M  V30 20 C 11.621726 9.214916 -5.153768 0
M  V30 21 Cl 11.686022 10.572325 -6.215601 0
M  V30 22 C 12.113786 9.372324 -3.851181 0
M  V30 23 H 11.931765 6.147102 -2.756041 0
M  V30 24 H 10.943667 5.860550 -5.015392 0
M  V30 25 H 11.314826 5.896130 -7.564813 0
M  V30 26 H 9.656248 7.196480 -10.908651 0
M  V30 27 H 10.472004 5.772326 -10.288119 0
M  V30 28 H 8.319297 5.301802 -9.141325 0
M  V30 29 H 9.131101 4.249093 -11.275627 0
M  V30 30 H 7.512053 4.013478 -10.710027 0
M  V30 31 H 7.953938 6.421656 -12.463236 0
M  V30 32 H 5.683995 5.770215 -11.490035 0
M  V30 33 H 5.717220 6.002826 -13.212272 0
M  V30 34 H 4.486021 3.953229 -12.817904 0
M  V30 35 H 5.709060 3.317663 -11.759251 0
M  V30 36 H 5.952965 3.772324 -14.768181 0
M  V30 37 H 5.949246 2.235666 -13.932784 0
M  V30 38 H 7.944258 5.197381 -14.547457 0
M  V30 39 H 9.271456 4.607160 -13.592049 0
M  V30 40 H 12.436950 10.322103 -3.468516 0
M  V30 41 H 7.616499 6.459775 -10.061237 0
M  V30 END ATOM
M  V30 BEGIN BOND
M  V30 1 1 2 1
M  V30 2 1 3 2
M  V30 3 2 4 3
M  V30 4 1 5 4
M  V30 5 1 6 5
M  V30 6 1 7 6
M  V30 7 2 8 7
M  V30 8 1 9 8
M  V30 9 1 10 9
M  V30 10 1 11 10
M  V30 11 1 12 11
M  V30 12 1 13 12
M  V30 13 1 14 13
M  V30 14 1 15 14
M  V30 15 1 16 15
M  V30 16 1 17 12
M  V30 17 1 17 16
M  V30 18 1 18 8
M  V30 19 1 19 6
M  V30 20 2 19 18
M  V30 21 2 20 5
M  V30 22 1 21 20
M  V30 23 2 22 2
M  V30 24 1 22 20
M  V30 25 1 23 3
M  V30 26 1 24 4
M  V30 27 1 25 7
M  V30 28 1 26 9
M  V30 29 1 27 9
M  V30 30 1 28 10
M  V30 31 1 29 11
M  V30 32 1 30 11
M  V30 33 1 12 31 CFG=3
M  V30 34 1 32 13
M  V30 35 1 33 13
M  V30 36 1 34 14
M  V30 37 1 35 14
M  V30 38 1 36 15
M  V30 39 1 37 15
M  V30 40 1 38 17
M  V30 41 1 39 17
M  V30 42 1 40 22
M  V30 43 1 41 10
M  V30 END BOND
M  V30 END CTAB
M  END
>  <b_m_subgroup_collapsed>  (662) 
0

>  <r_i_docking_score>  (662) 
-8.0232564089387903

>  <s_m_subgroup_title>  (662) 
glide-dock_SP_D22_pv

>  <s_m_subgroupid>  (662) 
glide-dock_SP_D22_pv

>  <Molecule ChEMBL ID>  (662) 
CHEMBL5267339

>  <Standard Type>  (662) 
Ki

>  <Standard Value>  (662) 
10000.0

>  <label>  (662) 
0

$$$$
CHEMBL3344462
     RDKit          3D

  0  0  0  0  0  0  0  0  0  0999 V3000
M  V30 BEGIN CTAB
M  V30 COUNTS 53 56 0 0 1
M  V30 BEGIN ATOM
M  V30 1 C 12.193728 8.874467 -1.891511 0
M  V30 2 C 12.143333 9.645084 -3.217157 0
M  V30 3 C 11.560670 8.851414 -4.408404 0 CFG=2
M  V30 4 C 12.085814 7.402328 -4.439332 0
M  V30 5 C 11.760578 9.638985 -5.725124 0
M  V30 6 C 11.335366 8.959488 -6.995183 0
M  V30 7 C 10.079409 8.574019 -7.398034 0
M  V30 8 C 10.067908 8.022623 -8.717706 0
M  V30 9 C 11.300878 7.997807 -9.294499 0
M  V30 10 S 12.516725 8.572284 -8.219953 0
M  V30 11 C 11.610163 7.452138 -10.640374 0
M  V30 12 C 10.332749 7.110702 -11.458963 0 CFG=1
M  V30 13 C 10.621058 6.173169 -12.646846 0
M  V30 14 C 11.776971 6.359452 -13.437510 0
M  V30 15 C 12.115859 5.439404 -14.448131 0
M  V30 16 O 13.284417 5.605308 -15.135837 0
M  V30 17 C 11.286439 4.330640 -14.719576 0
M  V30 18 O 11.695800 3.449826 -15.699297 0
M  V30 19 C 10.990606 2.225393 -15.840003 0
M  V30 20 C 10.098340 4.172163 -13.965730 0
M  V30 21 C 9.768141 5.079821 -12.939033 0
M  V30 22 C 8.522806 4.827125 -12.110928 0
M  V30 23 C 8.109344 6.052347 -11.293687 0
M  V30 24 N 9.276844 6.572071 -10.546386 0 CFG=2 CHG=1
M  V30 25 C 8.886309 7.551280 -9.493534 0
M  V30 26 H 12.328635 9.550719 -1.046992 0
M  V30 27 H 13.024949 8.171995 -1.881009 0
M  V30 28 H 11.286016 8.298175 -1.733512 0
M  V30 29 H 11.558019 10.554537 -3.075310 0
M  V30 30 H 13.156623 9.971321 -3.450419 0
M  V30 31 H 10.486070 8.787788 -4.262955 0
M  V30 32 H 13.157800 7.372874 -4.246888 0
M  V30 33 H 11.875409 6.895196 -5.380779 0
M  V30 34 H 11.615942 6.803520 -3.658555 0
M  V30 35 H 11.237385 10.593246 -5.650101 0
M  V30 36 H 12.816569 9.899238 -5.815059 0
M  V30 37 H 9.177550 8.690750 -6.813550 0
M  V30 38 H 12.240584 8.154575 -11.186622 0
M  V30 39 H 12.217113 6.572352 -10.465492 0
M  V30 40 H 9.941314 8.037804 -11.882507 0
M  V30 41 H 12.440690 7.188998 -13.245087 0
M  V30 42 H 13.900311 6.172579 -14.694154 0
M  V30 43 H 11.494871 1.604264 -16.580137 0
M  V30 44 H 9.970204 2.391565 -16.187452 0
M  V30 45 H 10.968626 1.665869 -14.903499 0
M  V30 46 H 9.435350 3.338332 -14.141097 0
M  V30 47 H 7.702108 4.521762 -12.761477 0
M  V30 48 H 8.726171 3.987663 -11.446754 0
M  V30 49 H 7.712827 6.834612 -11.943406 0
M  V30 50 H 7.305057 5.771504 -10.612895 0
M  V30 51 H 8.143020 7.108837 -8.829130 0
M  V30 52 H 8.486021 8.433619 -9.985264 0
M  V30 53 H 9.678173 5.783722 -10.060600 0
M  V30 END ATOM
M  V30 BEGIN BOND
M  V30 1 1 2 1
M  V30 2 1 3 2
M  V30 3 1 4 3
M  V30 4 1 5 3
M  V30 5 1 6 5
M  V30 6 2 7 6
M  V30 7 1 8 7
M  V30 8 2 9 8
M  V30 9 1 10 6
M  V30 10 1 10 9
M  V30 11 1 11 9
M  V30 12 1 12 11
M  V30 13 1 13 12
M  V30 14 2 14 13
M  V30 15 1 15 14
M  V30 16 1 16 15
M  V30 17 2 17 15
M  V30 18 1 18 17
M  V30 19 1 19 18
M  V30 20 1 20 17
M  V30 21 1 21 13
M  V30 22 2 21 20
M  V30 23 1 22 21
M  V30 24 1 23 22
M  V30 25 1 24 12
M  V30 26 1 24 23
M  V30 27 1 25 8
M  V30 28 1 25 24
M  V30 29 1 26 1
M  V30 30 1 27 1
M  V30 31 1 28 1
M  V30 32 1 29 2
M  V30 33 1 30 2
M  V30 34 1 3 31 CFG=1
M  V30 35 1 32 4
M  V30 36 1 33 4
M  V30 37 1 34 4
M  V30 38 1 35 5
M  V30 39 1 36 5
M  V30 40 1 37 7
M  V30 41 1 38 11
M  V30 42 1 39 11
M  V30 43 1 12 40 CFG=3
M  V30 44 1 41 14
M  V30 45 1 42 16
M  V30 46 1 43 19
M  V30 47 1 44 19
M  V30 48 1 45 19
M  V30 49 1 46 20
M  V30 50 1 47 22
M  V30 51 1 48 22
M  V30 52 1 49 23
M  V30 53 1 50 23
M  V30 54 1 51 25
M  V30 55 1 52 25
M  V30 56 1 24 53 CFG=1
M  V30 END BOND
M  V30 END CTAB
M  END
>  <b_m_subgroup_collapsed>  (663) 
0

>  <r_i_docking_score>  (663) 
-8.0223566996857691

>  <s_m_subgroup_title>  (663) 
glide-dock_SP_D22_pv

>  <s_m_subgroupid>  (663) 
glide-dock_SP_D22_pv

>  <Molecule ChEMBL ID>  (663) 
CHEMBL3344462

>  <Standard Type>  (663) 
Ki

>  <Standard Value>  (663) 
29.1

>  <label>  (663) 
1

$$$$
CHEMBL5790341
     RDKit          3D

  0  0  0  0  0  0  0  0  0  0999 V3000
M  V30 BEGIN CTAB
M  V30 COUNTS 60 64 0 0 1
M  V30 BEGIN ATOM
M  V30 1 O 12.815850 8.971689 -1.351218 0
M  V30 2 C 12.485723 8.529630 -2.440836 0
M  V30 3 C 12.572773 7.024433 -2.707127 0
M  V30 4 C 11.600907 6.518483 -3.781819 0
M  V30 5 C 11.375773 7.512577 -4.899782 0
M  V30 6 C 10.869551 7.073631 -6.133107 0
M  V30 7 C 10.706438 7.978518 -7.193602 0
M  V30 8 O 10.149282 7.479731 -8.342143 0
M  V30 9 C 9.469864 8.373982 -9.208879 0
M  V30 10 C 10.251065 8.437484 -10.530418 0
M  V30 11 C 9.374178 8.267061 -11.788186 0
M  V30 12 N 8.486117 7.076904 -11.737822 0 CFG=2 CHG=1
M  V30 13 C 9.185768 5.795338 -11.499481 0
M  V30 14 C 8.174397 4.691666 -11.187588 0
M  V30 15 C 7.055518 4.535903 -12.238078 0 CFG=2
M  V30 16 C 7.503238 3.758274 -13.467628 0
M  V30 17 N 8.580083 3.900863 -14.129848 0
M  V30 18 O 8.588655 2.901985 -15.156143 0
M  V30 19 C 7.773464 1.866441 -14.636136 0 CFG=2
M  V30 20 C 7.205038 0.781254 -15.522794 0
M  V30 21 C 6.084022 0.160113 -15.094836 0
M  V30 22 F 5.533171 -0.811745 -15.838779 0
M  V30 23 C 5.430354 0.575107 -13.848297 0
M  V30 24 C 5.686554 1.793266 -13.319867 0
M  V30 25 C 6.645802 2.703295 -14.077034 0 CFG=1
M  V30 26 C 6.454013 5.905852 -12.594365 0
M  V30 27 C 7.541941 6.965875 -12.877935 0
M  V30 28 C 11.125113 9.318276 -7.029198 0
M  V30 29 C 11.577793 9.779351 -5.780016 0
M  V30 30 C 11.686274 8.876308 -4.706655 0
M  V30 31 N 12.106046 9.335620 -3.440063 0
M  V30 32 H 12.454861 6.450750 -1.789373 0
M  V30 33 H 13.590584 6.846873 -3.047458 0
M  V30 34 H 10.659042 6.172944 -3.352780 0
M  V30 35 H 12.060905 5.651450 -4.244345 0
M  V30 36 H 10.591558 6.039990 -6.268772 0
M  V30 37 H 9.267102 9.364632 -8.804051 0
M  V30 38 H 8.486047 7.934256 -9.343667 0
M  V30 39 H 11.031862 7.676507 -10.534260 0
M  V30 40 H 10.807528 9.371372 -10.576754 0
M  V30 41 H 10.032838 8.182546 -12.647006 0
M  V30 42 H 8.763953 9.160319 -11.928094 0
M  V30 43 H 9.858638 5.854857 -10.646330 0
M  V30 44 H 9.802686 5.542157 -12.362517 0
M  V30 45 H 7.718271 4.896453 -10.218347 0
M  V30 46 H 8.735849 3.772645 -11.078846 0
M  V30 47 H 6.266848 3.956968 -11.761177 0
M  V30 48 H 8.343676 1.355350 -13.854795 0
M  V30 49 H 7.716126 0.508560 -16.434233 0
M  V30 50 H 4.743558 -0.097181 -13.358660 0
M  V30 51 H 5.205320 2.135240 -12.415730 0
M  V30 52 H 6.085946 3.177854 -14.882659 0
M  V30 53 H 5.770617 5.811338 -13.443558 0
M  V30 54 H 5.839475 6.225229 -11.750299 0
M  V30 55 H 7.064285 7.930820 -13.050426 0
M  V30 56 H 8.085954 6.693572 -13.785262 0
M  V30 57 H 11.105217 10.002159 -7.857541 0
M  V30 58 H 11.850485 10.817438 -5.661747 0
M  V30 59 H 12.132765 10.330677 -3.274436 0
M  V30 60 H 7.866091 7.246680 -10.942127 0
M  V30 END ATOM
M  V30 BEGIN BOND
M  V30 1 2 2 1
M  V30 2 1 3 2
M  V30 3 1 4 3
M  V30 4 1 5 4
M  V30 5 1 6 5
M  V30 6 2 7 6
M  V30 7 1 8 7
M  V30 8 1 9 8
M  V30 9 1 10 9
M  V30 10 1 11 10
M  V30 11 1 12 11
M  V30 12 1 13 12
M  V30 13 1 14 13
M  V30 14 1 15 14
M  V30 15 1 16 15
M  V30 16 2 17 16
M  V30 17 1 18 17
M  V30 18 1 19 18
M  V30 19 1 20 19
M  V30 20 2 21 20
M  V30 21 1 22 21
M  V30 22 1 23 21
M  V30 23 2 24 23
M  V30 24 1 25 16
M  V30 25 1 25 19
M  V30 26 1 25 24
M  V30 27 1 26 15
M  V30 28 1 27 12
M  V30 29 1 27 26
M  V30 30 1 28 7
M  V30 31 2 29 28
M  V30 32 2 30 5
M  V30 33 1 30 29
M  V30 34 1 31 2
M  V30 35 1 31 30
M  V30 36 1 32 3
M  V30 37 1 33 3
M  V30 38 1 34 4
M  V30 39 1 35 4
M  V30 40 1 36 6
M  V30 41 1 37 9
M  V30 42 1 38 9
M  V30 43 1 39 10
M  V30 44 1 40 10
M  V30 45 1 41 11
M  V30 46 1 42 11
M  V30 47 1 43 13
M  V30 48 1 44 13
M  V30 49 1 45 14
M  V30 50 1 46 14
M  V30 51 1 15 47 CFG=1
M  V30 52 1 19 48 CFG=1
M  V30 53 1 49 20
M  V30 54 1 50 23
M  V30 55 1 51 24
M  V30 56 1 25 52 CFG=3
M  V30 57 1 53 26
M  V30 58 1 54 26
M  V30 59 1 55 27
M  V30 60 1 56 27
M  V30 61 1 57 28
M  V30 62 1 58 29
M  V30 63 1 59 31
M  V30 64 1 12 60 CFG=1
M  V30 END BOND
M  V30 END CTAB
M  END
>  <b_m_subgroup_collapsed>  (664) 
0

>  <r_i_docking_score>  (664) 
-8.0216294079499004

>  <s_m_subgroup_title>  (664) 
glide-dock_SP_D22_pv

>  <s_m_subgroupid>  (664) 
glide-dock_SP_D22_pv

>  <Molecule ChEMBL ID>  (664) 
CHEMBL5790341

>  <Standard Type>  (664) 
Ki

>  <Standard Value>  (664) 
5.6

>  <label>  (664) 
1

$$$$
CHEMBL6063896
     RDKit          3D

  0  0  0  0  0  0  0  0  0  0999 V3000
M  V30 BEGIN CTAB
M  V30 COUNTS 57 59 0 0 1
M  V30 BEGIN ATOM
M  V30 1 C 11.242249 1.147343 -16.284576 0
M  V30 2 O 10.346313 0.428546 -15.449594 0
M  V30 3 C 9.651754 1.235214 -14.506783 0
M  V30 4 C 8.644212 2.191714 -15.177103 0
M  V30 5 C 7.689330 2.879256 -14.199996 0
M  V30 6 C 8.353405 3.945992 -13.366301 0
M  V30 7 O 9.545956 4.236165 -13.454839 0
M  V30 8 N 7.534691 4.573456 -12.514771 0
M  V30 9 C 7.899166 5.645565 -11.617835 0
M  V30 10 C 8.457773 5.065218 -10.315426 0
M  V30 11 N 8.807768 6.111747 -9.323904 0 CFG=2 CHG=1
M  V30 12 C 10.184951 6.634629 -9.534014 0
M  V30 13 C 10.585182 7.669453 -8.471375 0
M  V30 14 C 10.459264 7.069386 -7.056262 0 CFG=1
M  V30 15 C 10.909348 7.985830 -5.925770 0
M  V30 16 C 10.887057 9.388302 -6.063168 0
M  V30 17 C 11.285845 10.172233 -4.972472 0
M  V30 18 C 11.686682 9.541357 -3.784317 0
M  V30 19 C 11.686140 8.131735 -3.728522 0
M  V30 20 C 12.049231 7.406386 -2.433800 0
M  V30 21 F 12.642409 8.239621 -1.577327 0
M  V30 22 F 10.950179 6.929795 -1.847858 0
M  V30 23 F 12.880022 6.392235 -2.667091 0
M  V30 24 N 11.295785 7.370311 -4.782627 0
M  V30 25 C 9.007753 6.621526 -6.864900 0
M  V30 26 C 8.603656 5.606884 -7.944767 0
M  V30 27 C 6.486073 2.112173 -13.647314 0
M  V30 28 C 6.281974 3.211098 -14.649688 0
M  V30 29 H 11.837813 0.444878 -16.867947 0
M  V30 30 H 10.706483 1.782559 -16.989912 0
M  V30 31 H 11.927027 1.769085 -15.705707 0
M  V30 32 H 10.363754 1.774651 -13.881207 0
M  V30 33 H 9.110682 0.555950 -13.847585 0
M  V30 34 H 8.051679 1.624162 -15.894040 0
M  V30 35 H 9.163774 2.956173 -15.755536 0
M  V30 36 H 6.568070 4.281983 -12.498263 0
M  V30 37 H 6.966018 6.172473 -11.444917 0
M  V30 38 H 8.591305 6.340479 -12.096699 0
M  V30 39 H 9.326356 4.436443 -10.518341 0
M  V30 40 H 7.701318 4.394718 -9.906195 0
M  V30 41 H 10.271290 7.072404 -10.528815 0
M  V30 42 H 10.886860 5.802738 -9.489321 0
M  V30 43 H 9.945727 8.546458 -8.585658 0
M  V30 44 H 11.610598 7.997126 -8.649129 0
M  V30 45 H 11.098764 6.185080 -7.006980 0
M  V30 46 H 10.566094 9.869763 -6.971951 0
M  V30 47 H 11.280931 11.250991 -5.047114 0
M  V30 48 H 11.981954 10.137460 -2.932197 0
M  V30 49 H 8.886295 6.172429 -5.876832 0
M  V30 50 H 8.338822 7.483982 -6.890827 0
M  V30 51 H 7.552950 5.364673 -7.806795 0
M  V30 52 H 9.170402 4.680950 -7.840259 0
M  V30 53 H 6.353347 1.086082 -13.985918 0
M  V30 54 H 6.103071 2.312492 -12.646392 0
M  V30 55 H 5.786963 4.116336 -14.303373 0
M  V30 56 H 6.086073 2.971614 -15.687552 0
M  V30 57 H 8.144217 6.871970 -9.450210 0
M  V30 END ATOM
M  V30 BEGIN BOND
M  V30 1 1 2 1
M  V30 2 1 3 2
M  V30 3 1 4 3
M  V30 4 1 5 4
M  V30 5 1 6 5
M  V30 6 2 7 6
M  V30 7 1 8 6
M  V30 8 1 9 8
M  V30 9 1 10 9
M  V30 10 1 11 10
M  V30 11 1 12 11
M  V30 12 1 13 12
M  V30 13 1 14 13
M  V30 14 1 15 14
M  V30 15 1 16 15
M  V30 16 2 17 16
M  V30 17 1 18 17
M  V30 18 2 19 18
M  V30 19 1 20 19
M  V30 20 1 21 20
M  V30 21 1 22 20
M  V30 22 1 23 20
M  V30 23 2 24 15
M  V30 24 1 24 19
M  V30 25 1 25 14
M  V30 26 1 26 11
M  V30 27 1 26 25
M  V30 28 1 27 5
M  V30 29 1 28 5
M  V30 30 1 28 27
M  V30 31 1 29 1
M  V30 32 1 30 1
M  V30 33 1 31 1
M  V30 34 1 32 3
M  V30 35 1 33 3
M  V30 36 1 34 4
M  V30 37 1 35 4
M  V30 38 1 36 8
M  V30 39 1 37 9
M  V30 40 1 38 9
M  V30 41 1 39 10
M  V30 42 1 40 10
M  V30 43 1 41 12
M  V30 44 1 42 12
M  V30 45 1 43 13
M  V30 46 1 44 13
M  V30 47 1 14 45 CFG=3
M  V30 48 1 46 16
M  V30 49 1 47 17
M  V30 50 1 48 18
M  V30 51 1 49 25
M  V30 52 1 50 25
M  V30 53 1 51 26
M  V30 54 1 52 26
M  V30 55 1 53 27
M  V30 56 1 54 27
M  V30 57 1 55 28
M  V30 58 1 56 28
M  V30 59 1 11 57 CFG=3
M  V30 END BOND
M  V30 END CTAB
M  END
>  <b_m_subgroup_collapsed>  (665) 
0

>  <r_i_docking_score>  (665) 
-8.0210394368778992

>  <s_m_subgroup_title>  (665) 
glide-dock_SP_D22_pv

>  <s_m_subgroupid>  (665) 
glide-dock_SP_D22_pv

>  <Molecule ChEMBL ID>  (665) 
CHEMBL6063896

>  <Standard Type>  (665) 
Ki

>  <Standard Value>  (665) 
13.0

>  <label>  (665) 
1

$$$$
CHEMBL4293999
     RDKit          3D

  0  0  0  0  0  0  0  0  0  0999 V3000
M  V30 BEGIN CTAB
M  V30 COUNTS 66 71 0 0 1
M  V30 BEGIN ATOM
M  V30 1 O 12.171295 4.174182 -14.353658 0
M  V30 2 C 11.044640 4.083061 -14.840455 0
M  V30 3 C 10.038056 5.218022 -14.633392 0
M  V30 4 C 9.337557 5.144015 -13.267412 0
M  V30 5 C 9.887303 6.174130 -12.274728 0
M  V30 6 C 9.414817 5.900649 -10.837911 0
M  V30 7 N 9.580988 7.069161 -9.937279 0 CFG=1 CHG=1
M  V30 8 C 8.882527 6.852471 -8.654105 0
M  V30 9 C 8.861351 8.152749 -7.826950 0
M  V30 10 C 10.274998 8.679272 -7.539474 0 CFG=1
M  V30 11 C 10.928644 7.916442 -6.411211 0
M  V30 12 N 11.195971 6.617155 -6.525079 0
M  V30 13 O 11.685853 6.172472 -5.268860 0
M  V30 14 C 11.759015 7.236731 -4.392615 0
M  V30 15 C 12.212929 7.319242 -3.071380 0
M  V30 16 C 12.218198 8.591322 -2.468594 0
M  V30 17 F 12.688611 8.730231 -1.210094 0
M  V30 18 C 11.754156 9.724393 -3.177922 0
M  V30 19 C 11.285961 9.612889 -4.507174 0
M  V30 20 C 11.302923 8.339888 -5.118908 0
M  V30 21 C 11.100304 8.746707 -8.844885 0
M  V30 22 C 10.994436 7.477418 -9.715063 0
M  V30 23 C 10.592861 2.940154 -15.671012 0
M  V30 24 C 11.550342 2.218740 -16.436125 0
M  V30 25 C 11.142941 1.162063 -17.282114 0
M  V30 26 C 9.773500 0.857702 -17.296007 0
M  V30 27 C 8.819273 1.495239 -16.512611 0
M  V30 28 C 9.220984 2.556714 -15.685883 0
M  V30 29 C 7.481771 0.842265 -16.791323 0
M  V30 30 C 7.763058 -0.250040 -17.842657 0
M  V30 31 N 9.185616 -0.109960 -18.126196 0
M  V30 32 C 9.818229 -0.657062 -19.180231 0
M  V30 33 O 9.270291 -1.427499 -19.964087 0
M  V30 34 C 11.264646 -0.210970 -19.438915 0
M  V30 35 C 11.984321 0.243903 -18.154249 0
M  V30 36 H 10.556444 6.170295 -14.750386 0
M  V30 37 H 9.299222 5.188562 -15.435061 0
M  V30 38 H 8.267499 5.316349 -13.404074 0
M  V30 39 H 9.423653 4.139604 -12.844875 0
M  V30 40 H 10.975359 6.175929 -12.311954 0
M  V30 41 H 9.564343 7.166448 -12.589997 0
M  V30 42 H 8.353004 5.649302 -10.874268 0
M  V30 43 H 9.927627 5.029484 -10.429207 0
M  V30 44 H 7.876133 6.507932 -8.860142 0
M  V30 45 H 9.341455 6.030043 -8.108705 0
M  V30 46 H 8.308565 8.009375 -6.898554 0
M  V30 47 H 8.318615 8.915472 -8.384594 0
M  V30 48 H 10.161631 9.706274 -7.190599 0
M  V30 49 H 12.567120 6.445147 -2.543725 0
M  V30 50 H 11.764774 10.687336 -2.690441 0
M  V30 51 H 10.935814 10.485537 -5.042860 0
M  V30 52 H 12.144794 8.972187 -8.622072 0
M  V30 53 H 10.736009 9.585365 -9.437552 0
M  V30 54 H 11.522013 6.656095 -9.240281 0
M  V30 55 H 11.494478 7.664267 -10.663443 0
M  V30 56 H 12.598528 2.483921 -16.390087 0
M  V30 57 H 8.485542 3.062770 -15.080130 0
M  V30 58 H 7.072640 0.413916 -15.874617 0
M  V30 59 H 6.774780 1.585190 -17.165167 0
M  V30 60 H 7.161959 -0.101973 -18.739544 0
M  V30 61 H 7.555944 -1.245110 -17.448341 0
M  V30 62 H 11.223610 0.619027 -20.146851 0
M  V30 63 H 11.819739 -1.016533 -19.920393 0
M  V30 64 H 12.915899 0.752066 -18.408329 0
M  V30 65 H 12.260752 -0.626527 -17.562796 0
M  V30 66 H 9.091775 7.833820 -10.382936 0
M  V30 END ATOM
M  V30 BEGIN BOND
M  V30 1 2 2 1
M  V30 2 1 3 2
M  V30 3 1 4 3
M  V30 4 1 5 4
M  V30 5 1 6 5
M  V30 6 1 7 6
M  V30 7 1 8 7
M  V30 8 1 9 8
M  V30 9 1 10 9
M  V30 10 1 11 10
M  V30 11 2 12 11
M  V30 12 1 13 12
M  V30 13 1 14 13
M  V30 14 1 15 14
M  V30 15 2 16 15
M  V30 16 1 17 16
M  V30 17 1 18 16
M  V30 18 2 19 18
M  V30 19 1 20 11
M  V30 20 2 20 14
M  V30 21 1 20 19
M  V30 22 1 21 10
M  V30 23 1 22 7
M  V30 24 1 22 21
M  V30 25 1 23 2
M  V30 26 2 24 23
M  V30 27 1 25 24
M  V30 28 2 26 25
M  V30 29 1 27 26
M  V30 30 1 28 23
M  V30 31 2 28 27
M  V30 32 1 29 27
M  V30 33 1 30 29
M  V30 34 1 31 26
M  V30 35 1 31 30
M  V30 36 1 32 31
M  V30 37 2 33 32
M  V30 38 1 34 32
M  V30 39 1 35 25
M  V30 40 1 35 34
M  V30 41 1 36 3
M  V30 42 1 37 3
M  V30 43 1 38 4
M  V30 44 1 39 4
M  V30 45 1 40 5
M  V30 46 1 41 5
M  V30 47 1 42 6
M  V30 48 1 43 6
M  V30 49 1 44 8
M  V30 50 1 45 8
M  V30 51 1 46 9
M  V30 52 1 47 9
M  V30 53 1 10 48 CFG=1
M  V30 54 1 49 15
M  V30 55 1 50 18
M  V30 56 1 51 19
M  V30 57 1 52 21
M  V30 58 1 53 21
M  V30 59 1 54 22
M  V30 60 1 55 22
M  V30 61 1 56 24
M  V30 62 1 57 28
M  V30 63 1 58 29
M  V30 64 1 59 29
M  V30 65 1 60 30
M  V30 66 1 61 30
M  V30 67 1 62 34
M  V30 68 1 63 34
M  V30 69 1 64 35
M  V30 70 1 65 35
M  V30 71 1 7 66 CFG=3
M  V30 END BOND
M  V30 END CTAB
M  END
>  <b_m_subgroup_collapsed>  (666) 
0

>  <r_i_docking_score>  (666) 
-8.0208331520396001

>  <s_m_subgroup_title>  (666) 
glide-dock_SP_D22_pv

>  <s_m_subgroupid>  (666) 
glide-dock_SP_D22_pv

>  <Molecule ChEMBL ID>  (666) 
CHEMBL4293999

>  <Standard Type>  (666) 
Ki

>  <Standard Value>  (666) 
2.9

>  <label>  (666) 
1

$$$$
CHEMBL165047
     RDKit          3D

  0  0  0  0  0  0  0  0  0  0999 V3000
M  V30 BEGIN CTAB
M  V30 COUNTS 62 65 0 0 1
M  V30 BEGIN ATOM
M  V30 1 C 9.218297 0.181247 -14.599201 0
M  V30 2 N 9.571576 1.512229 -15.079973 0
M  V30 3 C 9.820069 1.667863 -16.444452 0
M  V30 4 N 10.484735 0.674671 -17.043688 0
M  V30 5 C 10.732646 0.800951 -18.360846 0
M  V30 6 C 10.308776 1.926564 -19.087734 0
M  V30 7 C 9.612844 2.907175 -18.361589 0
M  V30 8 N 9.364871 2.771072 -17.045046 0
M  V30 9 C 9.398179 2.611666 -14.120282 0 CFG=1
M  V30 10 C 10.422771 3.753313 -14.276938 0
M  V30 11 C 10.272459 4.747730 -13.122162 0
M  V30 12 C 8.853229 5.353570 -13.056408 0 CFG=2
M  V30 13 C 8.721148 6.390408 -11.911724 0
M  V30 14 C 8.861034 5.783315 -10.495676 0
M  V30 15 N 8.885988 6.761263 -9.379797 0 CHG=1
M  V30 16 C 8.735075 6.029770 -8.088015 0
M  V30 17 C 8.912833 6.923858 -6.858096 0
M  V30 18 N 10.156910 7.663115 -6.975920 0
M  V30 19 C 10.822261 7.976018 -5.781357 0
M  V30 20 C 11.286572 6.922369 -4.963852 0
M  V30 21 C 11.929167 7.183397 -3.738511 0
M  V30 22 C 12.085971 8.510271 -3.302631 0
M  V30 23 C 11.607888 9.564384 -4.102142 0
M  V30 24 C 11.002152 9.308155 -5.349057 0
M  V30 25 C 10.229262 8.527140 -8.140708 0
M  V30 26 C 10.066065 7.677862 -9.418885 0
M  V30 27 C 7.779727 4.245817 -12.993430 0
M  V30 28 C 7.960779 3.166334 -14.079791 0
M  V30 29 H 10.112441 -0.310561 -14.222154 0
M  V30 30 H 8.489116 0.228365 -13.791760 0
M  V30 31 H 8.793191 -0.436295 -15.389446 0
M  V30 32 H 11.272790 -0.003307 -18.838470 0
M  V30 33 H 10.507549 2.031490 -20.143553 0
M  V30 34 H 9.247197 3.803843 -18.839487 0
M  V30 35 H 9.589505 2.175032 -13.140694 0
M  V30 36 H 11.434858 3.346590 -14.280059 0
M  V30 37 H 10.295518 4.287540 -15.217709 0
M  V30 38 H 10.488876 4.209574 -12.202652 0
M  V30 39 H 11.019197 5.537054 -13.215195 0
M  V30 40 H 8.690489 5.886206 -13.993419 0
M  V30 41 H 9.473531 7.160324 -12.076147 0
M  V30 42 H 7.757128 6.895252 -11.989125 0
M  V30 43 H 8.015224 5.118390 -10.322360 0
M  V30 44 H 9.756416 5.169244 -10.418112 0
M  V30 45 H 7.756184 5.550269 -8.046271 0
M  V30 46 H 9.478003 5.231582 -8.041295 0
M  V30 47 H 8.086276 7.631692 -6.779483 0
M  V30 48 H 8.891003 6.316438 -5.953275 0
M  V30 49 H 11.159542 5.897239 -5.278064 0
M  V30 50 H 12.280415 6.364702 -3.127101 0
M  V30 51 H 12.552998 8.720456 -2.351201 0
M  V30 52 H 11.685882 10.572698 -3.737578 0
M  V30 53 H 10.636484 10.134385 -5.940401 0
M  V30 54 H 9.438279 9.276709 -8.080103 0
M  V30 55 H 11.180883 9.060083 -8.164391 0
M  V30 56 H 10.968390 7.079529 -9.556206 0
M  V30 57 H 9.994263 8.345397 -10.277061 0
M  V30 58 H 7.808599 3.772373 -12.017080 0
M  V30 59 H 6.786102 4.687218 -13.081137 0
M  V30 60 H 7.718229 3.591099 -15.046315 0
M  V30 61 H 7.246499 2.359593 -13.912377 0
M  V30 62 H 8.038360 7.324287 -9.481017 0
M  V30 END ATOM
M  V30 BEGIN BOND
M  V30 1 1 2 1
M  V30 2 1 3 2
M  V30 3 2 4 3
M  V30 4 1 5 4
M  V30 5 2 6 5
M  V30 6 1 7 6
M  V30 7 1 8 3
M  V30 8 2 8 7
M  V30 9 1 9 2
M  V30 10 1 10 9
M  V30 11 1 11 10
M  V30 12 1 12 11
M  V30 13 1 13 12
M  V30 14 1 14 13
M  V30 15 1 15 14
M  V30 16 1 16 15
M  V30 17 1 17 16
M  V30 18 1 18 17
M  V30 19 1 19 18
M  V30 20 2 20 19
M  V30 21 1 21 20
M  V30 22 2 22 21
M  V30 23 1 23 22
M  V30 24 1 24 19
M  V30 25 2 24 23
M  V30 26 1 25 18
M  V30 27 1 26 15
M  V30 28 1 26 25
M  V30 29 1 27 12
M  V30 30 1 28 9
M  V30 31 1 28 27
M  V30 32 1 29 1
M  V30 33 1 30 1
M  V30 34 1 31 1
M  V30 35 1 32 5
M  V30 36 1 33 6
M  V30 37 1 34 7
M  V30 38 1 9 35 CFG=1
M  V30 39 1 36 10
M  V30 40 1 37 10
M  V30 41 1 38 11
M  V30 42 1 39 11
M  V30 43 1 12 40 CFG=3
M  V30 44 1 41 13
M  V30 45 1 42 13
M  V30 46 1 43 14
M  V30 47 1 44 14
M  V30 48 1 45 16
M  V30 49 1 46 16
M  V30 50 1 47 17
M  V30 51 1 48 17
M  V30 52 1 49 20
M  V30 53 1 50 21
M  V30 54 1 51 22
M  V30 55 1 52 23
M  V30 56 1 53 24
M  V30 57 1 54 25
M  V30 58 1 55 25
M  V30 59 1 56 26
M  V30 60 1 57 26
M  V30 61 1 58 27
M  V30 62 1 59 27
M  V30 63 1 60 28
M  V30 64 1 61 28
M  V30 65 1 62 15
M  V30 END BOND
M  V30 END CTAB
M  END
>  <b_m_subgroup_collapsed>  (667) 
0

>  <r_i_docking_score>  (667) 
-8.0163871780832991

>  <s_m_subgroup_title>  (667) 
glide-dock_SP_D22_pv

>  <s_m_subgroupid>  (667) 
glide-dock_SP_D22_pv

>  <Molecule ChEMBL ID>  (667) 
CHEMBL165047

>  <Standard Type>  (667) 
Ki

>  <Standard Value>  (667) 
4.8

>  <label>  (667) 
1

$$$$
CHEMBL169889
     RDKit          3D

  0  0  0  0  0  0  0  0  0  0999 V3000
M  V30 BEGIN CTAB
M  V30 COUNTS 57 60 0 0 1
M  V30 BEGIN ATOM
M  V30 1 C 12.120834 3.188341 -16.119272 0
M  V30 2 O 11.279914 3.353716 -14.983796 0
M  V30 3 C 10.096412 2.642751 -14.955274 0
M  V30 4 C 9.970026 1.399770 -15.628078 0
M  V30 5 C 8.771429 0.668413 -15.577765 0
M  V30 6 C 7.668218 1.185166 -14.883821 0
M  V30 7 Br 6.063828 0.171789 -14.757531 0
M  V30 8 C 7.762349 2.434862 -14.246914 0
M  V30 9 C 8.983060 3.154988 -14.221159 0
M  V30 10 C 9.066549 4.385571 -13.397324 0
M  V30 11 N 10.083982 5.266281 -13.519473 0 CHG=1
M  V30 12 C 10.283448 6.473753 -12.698620 0
M  V30 13 C 8.918517 7.000210 -12.221697 0
M  V30 14 C 8.169292 5.849449 -11.535149 0 CFG=2
M  V30 15 C 8.766189 5.380360 -10.187659 0
M  V30 16 N 8.910652 6.425066 -9.133894 0 CHG=1
M  V30 17 C 10.238022 7.123654 -9.179036 0
M  V30 18 C 10.424341 8.147464 -8.044394 0
M  V30 19 N 10.193081 7.485026 -6.775700 0
M  V30 20 C 10.984000 7.749573 -5.637873 0
M  V30 21 C 11.592784 9.006889 -5.422460 0
M  V30 22 C 12.342529 9.232760 -4.250204 0
M  V30 23 C 12.484978 8.234878 -3.273314 0
M  V30 24 C 11.919741 6.972443 -3.492898 0
M  V30 25 C 11.190467 6.739465 -4.671864 0
M  V30 26 C 8.912523 6.803510 -6.646425 0
M  V30 27 C 8.692135 5.814597 -7.796477 0
M  V30 28 N 8.134007 4.689638 -12.457908 0
M  V30 29 H 12.925500 3.923757 -16.079109 0
M  V30 30 H 12.582329 2.202171 -16.153170 0
M  V30 31 H 11.570232 3.352472 -17.046822 0
M  V30 32 H 10.796403 0.964855 -16.169161 0
M  V30 33 H 8.700518 -0.292101 -16.066605 0
M  V30 34 H 6.890797 2.793895 -13.720556 0
M  V30 35 H 10.886349 6.188684 -11.840165 0
M  V30 36 H 10.879608 7.214859 -13.239102 0
M  V30 37 H 8.309085 7.349140 -13.046887 0
M  V30 38 H 8.994037 7.877498 -11.584777 0
M  V30 39 H 7.140982 6.171071 -11.373249 0
M  V30 40 H 9.715796 4.863454 -10.332690 0
M  V30 41 H 8.087008 4.606205 -9.822126 0
M  V30 42 H 10.419075 7.636600 -10.115736 0
M  V30 43 H 11.025435 6.373539 -9.096360 0
M  V30 44 H 9.725563 8.977026 -8.156405 0
M  V30 45 H 11.432590 8.559700 -8.090845 0
M  V30 46 H 11.480302 9.808199 -6.137737 0
M  V30 47 H 12.828011 10.172314 -4.083201 0
M  V30 48 H 13.049985 8.430310 -2.373393 0
M  V30 49 H 12.037539 6.184122 -2.763178 0
M  V30 50 H 10.756795 5.772316 -4.815575 0
M  V30 51 H 8.871549 6.259177 -5.706193 0
M  V30 52 H 8.109428 7.543495 -6.640810 0
M  V30 53 H 7.685863 5.405005 -7.729849 0
M  V30 54 H 9.378609 4.973312 -7.686857 0
M  V30 55 H 7.366956 4.048480 -12.324742 0
M  V30 56 H 10.814245 5.013232 -14.177386 0
M  V30 57 H 8.165381 7.103304 -9.267087 0
M  V30 END ATOM
M  V30 BEGIN BOND
M  V30 1 1 2 1
M  V30 2 1 3 2
M  V30 3 1 4 3
M  V30 4 2 5 4
M  V30 5 1 6 5
M  V30 6 1 7 6
M  V30 7 2 8 6
M  V30 8 2 9 3
M  V30 9 1 9 8
M  V30 10 1 10 9
M  V30 11 2 11 10
M  V30 12 1 12 11
M  V30 13 1 13 12
M  V30 14 1 14 13
M  V30 15 1 15 14
M  V30 16 1 16 15
M  V30 17 1 17 16
M  V30 18 1 18 17
M  V30 19 1 19 18
M  V30 20 1 20 19
M  V30 21 2 21 20
M  V30 22 1 22 21
M  V30 23 2 23 22
M  V30 24 1 24 23
M  V30 25 1 25 20
M  V30 26 2 25 24
M  V30 27 1 26 19
M  V30 28 1 27 16
M  V30 29 1 27 26
M  V30 30 1 28 10
M  V30 31 1 28 14
M  V30 32 1 29 1
M  V30 33 1 30 1
M  V30 34 1 31 1
M  V30 35 1 32 4
M  V30 36 1 33 5
M  V30 37 1 34 8
M  V30 38 1 35 12
M  V30 39 1 36 12
M  V30 40 1 37 13
M  V30 41 1 38 13
M  V30 42 1 14 39 CFG=1
M  V30 43 1 40 15
M  V30 44 1 41 15
M  V30 45 1 42 17
M  V30 46 1 43 17
M  V30 47 1 44 18
M  V30 48 1 45 18
M  V30 49 1 46 21
M  V30 50 1 47 22
M  V30 51 1 48 23
M  V30 52 1 49 24
M  V30 53 1 50 25
M  V30 54 1 51 26
M  V30 55 1 52 26
M  V30 56 1 53 27
M  V30 57 1 54 27
M  V30 58 1 55 28
M  V30 59 1 56 11
M  V30 60 1 57 16
M  V30 END BOND
M  V30 END CTAB
M  END
>  <b_m_subgroup_collapsed>  (668) 
0

>  <r_i_docking_score>  (668) 
-8.0120670708406703

>  <s_m_subgroup_title>  (668) 
glide-dock_SP_D22_pv

>  <s_m_subgroupid>  (668) 
glide-dock_SP_D22_pv

>  <Molecule ChEMBL ID>  (668) 
CHEMBL169889

>  <Standard Type>  (668) 
Ki

>  <Standard Value>  (668) 
43000.0

>  <label>  (668) 
0

$$$$
CHEMBL5289958
     RDKit          3D

  0  0  0  0  0  0  0  0  0  0999 V3000
M  V30 BEGIN CTAB
M  V30 COUNTS 58 62 0 0 1
M  V30 BEGIN ATOM
M  V30 1 F 12.554933 7.366663 -18.715809 0
M  V30 2 C 12.280602 6.483490 -17.726692 0
M  V30 3 C 11.404181 5.407788 -17.967815 0
M  V30 4 C 11.109817 4.491704 -16.938953 0
M  V30 5 C 11.686011 4.649711 -15.659440 0
M  V30 6 C 11.343987 3.678412 -14.535607 0
M  V30 7 N 10.154892 4.077328 -13.733692 0 CFG=2 CHG=1
M  V30 8 C 8.878578 3.968914 -14.475342 0
M  V30 9 C 7.680385 4.214170 -13.542222 0
M  V30 10 C 7.800857 5.558795 -12.799450 0
M  V30 11 C 9.157314 5.705937 -12.077250 0 CFG=2
M  V30 12 C 9.217374 4.804845 -10.827764 0
M  V30 13 C 9.285698 5.730706 -9.618252 0
M  V30 14 N 9.829658 7.001503 -10.127176 0 CFG=2 CHG=1
M  V30 15 C 9.542607 8.186472 -9.290516 0
M  V30 16 C 10.288285 8.235929 -8.003825 0
M  V30 17 C 11.071654 9.257030 -7.550298 0
M  V30 18 C 11.485647 8.919703 -6.227486 0
M  V30 19 C 12.235973 9.579073 -5.232801 0
M  V30 20 C 12.485200 8.966593 -3.989318 0
M  V30 21 C 12.027831 7.657311 -3.746799 0
M  V30 22 Cl 12.341810 6.889384 -2.246940 0
M  V30 23 C 11.286063 6.973475 -4.722852 0
M  V30 24 C 10.992551 7.617523 -5.933263 0
M  V30 25 N 10.240610 7.250046 -7.029337 0
M  V30 26 C 9.311736 7.132967 -11.503119 0
M  V30 27 C 10.293163 5.411144 -13.094015 0
M  V30 28 C 12.581514 5.718526 -15.430012 0
M  V30 29 C 12.870000 6.638163 -16.457102 0
M  V30 30 F 13.708719 7.673692 -16.219137 0
M  V30 31 H 10.956434 5.287611 -18.943359 0
M  V30 32 H 10.432652 3.673100 -17.137463 0
M  V30 33 H 11.194864 2.679004 -14.946741 0
M  V30 34 H 12.201618 3.599478 -13.867203 0
M  V30 35 H 8.874509 4.697492 -15.286920 0
M  V30 36 H 8.792852 2.980857 -14.929864 0
M  V30 37 H 6.754613 4.195575 -14.119061 0
M  V30 38 H 7.598980 3.394857 -12.828403 0
M  V30 39 H 7.691536 6.378666 -13.506240 0
M  V30 40 H 6.975621 5.669111 -12.092651 0
M  V30 41 H 8.335859 4.172407 -10.737855 0
M  V30 42 H 10.085629 4.146507 -10.849335 0
M  V30 43 H 8.279052 5.892700 -9.225079 0
M  V30 44 H 9.896968 5.303413 -8.823689 0
M  V30 45 H 9.785563 9.080573 -9.866940 0
M  V30 46 H 8.485637 8.252295 -9.079487 0
M  V30 47 H 11.286057 10.172301 -8.070193 0
M  V30 48 H 12.620633 10.564971 -5.447009 0
M  V30 49 H 13.042820 9.494081 -3.228304 0
M  V30 50 H 10.912632 5.979288 -4.526485 0
M  V30 51 H 9.670754 6.418879 -7.092229 0
M  V30 52 H 9.957452 7.773962 -12.105073 0
M  V30 53 H 8.338257 7.623892 -11.456884 0
M  V30 54 H 11.279391 5.499144 -12.646758 0
M  V30 55 H 10.273410 6.171875 -13.872532 0
M  V30 56 H 13.044956 5.849654 -14.462683 0
M  V30 57 H 10.092464 3.400949 -12.984722 0
M  V30 58 H 10.832415 6.905123 -10.185778 0
M  V30 END ATOM
M  V30 BEGIN BOND
M  V30 1 1 2 1
M  V30 2 1 3 2
M  V30 3 2 4 3
M  V30 4 1 5 4
M  V30 5 1 6 5
M  V30 6 1 7 6
M  V30 7 1 8 7
M  V30 8 1 9 8
M  V30 9 1 10 9
M  V30 10 1 11 10 CFG=3
M  V30 11 1 12 11
M  V30 12 1 13 12
M  V30 13 1 14 13
M  V30 14 1 15 14
M  V30 15 1 16 15
M  V30 16 2 17 16
M  V30 17 1 18 17
M  V30 18 1 19 18
M  V30 19 2 20 19
M  V30 20 1 21 20
M  V30 21 1 22 21
M  V30 22 2 23 21
M  V30 23 2 24 18
M  V30 24 1 24 23
M  V30 25 1 25 16
M  V30 26 1 25 24
M  V30 27 1 26 11
M  V30 28 1 26 14
M  V30 29 1 27 7
M  V30 30 1 27 11
M  V30 31 2 28 5
M  V30 32 2 29 2
M  V30 33 1 29 28
M  V30 34 1 30 29
M  V30 35 1 31 3
M  V30 36 1 32 4
M  V30 37 1 33 6
M  V30 38 1 34 6
M  V30 39 1 35 8
M  V30 40 1 36 8
M  V30 41 1 37 9
M  V30 42 1 38 9
M  V30 43 1 39 10
M  V30 44 1 40 10
M  V30 45 1 41 12
M  V30 46 1 42 12
M  V30 47 1 43 13
M  V30 48 1 44 13
M  V30 49 1 45 15
M  V30 50 1 46 15
M  V30 51 1 47 17
M  V30 52 1 48 19
M  V30 53 1 49 20
M  V30 54 1 50 23
M  V30 55 1 51 25
M  V30 56 1 52 26
M  V30 57 1 53 26
M  V30 58 1 54 27
M  V30 59 1 55 27
M  V30 60 1 56 28
M  V30 61 1 7 57 CFG=1
M  V30 62 1 14 58 CFG=3
M  V30 END BOND
M  V30 END CTAB
M  END
>  <b_m_subgroup_collapsed>  (669) 
0

>  <r_i_docking_score>  (669) 
-8.0119191035108397

>  <s_m_subgroup_title>  (669) 
glide-dock_SP_D22_pv

>  <s_m_subgroupid>  (669) 
glide-dock_SP_D22_pv

>  <Molecule ChEMBL ID>  (669) 
CHEMBL5289958

>  <Standard Type>  (669) 
Ki

>  <Standard Value>  (669) 
10000.0

>  <label>  (669) 
0

$$$$
CHEMBL3819434
     RDKit          3D

  0  0  0  0  0  0  0  0  0  0999 V3000
M  V30 BEGIN CTAB
M  V30 COUNTS 57 61 0 0 1
M  V30 BEGIN ATOM
M  V30 1 O 6.242469 4.172380 -13.846902 0
M  V30 2 C 7.601276 4.179383 -13.457458 0 CFG=1
M  V30 3 C 8.285707 2.989503 -14.160364 0
M  V30 4 C 9.686356 2.931978 -14.361162 0
M  V30 5 C 10.262533 1.866204 -15.087295 0
M  V30 6 C 9.447195 0.840473 -15.606888 0
M  V30 7 Cl 10.099417 -0.424390 -16.573715 0
M  V30 8 C 8.068848 0.850758 -15.361557 0
M  V30 9 C 7.496611 1.911258 -14.645740 0
M  V30 10 C 8.170568 5.574010 -13.847014 0
M  V30 11 C 7.641893 6.731428 -12.919779 0 CFG=1
M  V30 12 C 6.105493 6.790904 -12.645874 0
M  V30 13 C 5.860294 5.772318 -11.510065 0
M  V30 14 C 7.286520 5.355243 -11.134154 0 CFG=1
M  V30 15 C 7.661489 4.080360 -11.905799 0
M  V30 16 N 8.112807 6.485190 -11.553239 0 CFG=1 CHG=1
M  V30 17 C 9.565466 6.415101 -11.245497 0
M  V30 18 C 10.231346 7.805292 -11.270667 0
M  V30 19 C 10.813198 8.217548 -9.908231 0
M  V30 20 C 9.741041 8.414914 -8.817981 0
M  V30 21 C 10.307261 8.309266 -7.443468 0
M  V30 22 N 10.577366 9.372392 -6.676763 0
M  V30 23 C 11.079725 8.953385 -5.447940 0
M  V30 24 C 11.426475 9.771842 -4.351353 0
M  V30 25 C 11.942122 9.221741 -3.160372 0
M  V30 26 C 12.086019 7.827218 -3.031842 0
M  V30 27 C 11.718508 6.983342 -4.096433 0
M  V30 28 C 11.233447 7.545266 -5.291428 0
M  V30 29 S 10.714694 6.733989 -6.760557 0
M  V30 30 H 5.843910 3.374548 -13.535912 0
M  V30 31 H 10.335119 3.705907 -13.981900 0
M  V30 32 H 11.328369 1.846473 -15.262256 0
M  V30 33 H 7.445922 0.054005 -15.742929 0
M  V30 34 H 6.428266 1.872693 -14.501847 0
M  V30 35 H 9.251286 5.560088 -13.764144 0
M  V30 36 H 8.086023 5.772314 -14.910489 0
M  V30 37 H 7.998121 7.703058 -13.245819 0
M  V30 38 H 5.420551 6.586417 -13.446871 0
M  V30 39 H 5.837905 7.788659 -12.294524 0
M  V30 40 H 5.256343 4.921805 -11.811630 0
M  V30 41 H 5.286029 6.172325 -10.681727 0
M  V30 42 H 7.449658 5.231142 -10.071030 0
M  V30 43 H 6.937761 3.362813 -11.550815 0
M  V30 44 H 8.658694 3.772376 -11.593434 0
M  V30 45 H 9.672900 5.979534 -10.251327 0
M  V30 46 H 10.104382 5.721097 -11.885559 0
M  V30 47 H 11.040976 7.772728 -12.000746 0
M  V30 48 H 9.542246 8.575543 -11.619505 0
M  V30 49 H 11.514689 7.441591 -9.598144 0
M  V30 50 H 11.405209 9.129039 -10.004847 0
M  V30 51 H 9.245691 9.377129 -8.939640 0
M  V30 52 H 8.950178 7.669005 -8.894403 0
M  V30 53 H 11.286038 10.838223 -4.436552 0
M  V30 54 H 12.209274 9.869951 -2.337538 0
M  V30 55 H 12.464864 7.405557 -2.112140 0
M  V30 56 H 11.809885 5.910768 -4.002045 0
M  V30 57 H 7.723225 7.244502 -10.988753 0
M  V30 END ATOM
M  V30 BEGIN BOND
M  V30 1 1 2 1 CFG=1
M  V30 2 1 3 2
M  V30 3 1 4 3
M  V30 4 2 5 4
M  V30 5 1 6 5
M  V30 6 1 7 6
M  V30 7 2 8 6
M  V30 8 2 9 3
M  V30 9 1 9 8
M  V30 10 1 10 2
M  V30 11 1 11 10
M  V30 12 1 12 11
M  V30 13 1 13 12
M  V30 14 1 14 13
M  V30 15 1 15 2
M  V30 16 1 15 14
M  V30 17 1 16 11
M  V30 18 1 16 14
M  V30 19 1 17 16
M  V30 20 1 18 17
M  V30 21 1 19 18
M  V30 22 1 20 19
M  V30 23 1 21 20
M  V30 24 2 22 21
M  V30 25 1 23 22
M  V30 26 2 24 23
M  V30 27 1 25 24
M  V30 28 2 26 25
M  V30 29 1 27 26
M  V30 30 1 28 23
M  V30 31 2 28 27
M  V30 32 1 29 21
M  V30 33 1 29 28
M  V30 34 1 30 1
M  V30 35 1 31 4
M  V30 36 1 32 5
M  V30 37 1 33 8
M  V30 38 1 34 9
M  V30 39 1 35 10
M  V30 40 1 36 10
M  V30 41 1 11 37 CFG=3
M  V30 42 1 38 12
M  V30 43 1 39 12
M  V30 44 1 40 13
M  V30 45 1 41 13
M  V30 46 1 14 42 CFG=1
M  V30 47 1 43 15
M  V30 48 1 44 15
M  V30 49 1 45 17
M  V30 50 1 46 17
M  V30 51 1 47 18
M  V30 52 1 48 18
M  V30 53 1 49 19
M  V30 54 1 50 19
M  V30 55 1 51 20
M  V30 56 1 52 20
M  V30 57 1 53 24
M  V30 58 1 54 25
M  V30 59 1 55 26
M  V30 60 1 56 27
M  V30 61 1 16 57 CFG=1
M  V30 END BOND
M  V30 END CTAB
M  END
>  <b_m_subgroup_collapsed>  (670) 
0

>  <r_i_docking_score>  (670) 
-8.0116167880538693

>  <s_m_subgroup_title>  (670) 
glide-dock_SP_D22_pv

>  <s_m_subgroupid>  (670) 
glide-dock_SP_D22_pv

>  <Molecule ChEMBL ID>  (670) 
CHEMBL3819434

>  <Standard Type>  (670) 
Ki

>  <Standard Value>  (670) 
44.67

>  <label>  (670) 
1

$$$$
CHEMBL461627
     RDKit          3D

  0  0  0  0  0  0  0  0  0  0999 V3000
M  V30 BEGIN CTAB
M  V30 COUNTS 55 59 0 0 1
M  V30 BEGIN ATOM
M  V30 1 C 8.498862 0.656254 -14.785477 0
M  V30 2 O 9.023646 1.920430 -14.417699 0
M  V30 3 C 10.201970 2.321052 -14.914071 0
M  V30 4 O 10.884765 1.664723 -15.702771 0
M  V30 5 C 10.630895 3.644556 -14.400102 0
M  V30 6 C 11.860394 4.158807 -14.723156 0
M  V30 7 O 12.075523 5.360591 -14.122613 0
M  V30 8 C 10.946371 5.626796 -13.418992 0
M  V30 9 C 10.030812 4.621825 -13.543496 0
M  V30 10 C 8.730922 4.774759 -12.850554 0
M  V30 11 O 7.720910 4.141347 -13.145266 0
M  V30 12 C 8.707248 5.791049 -11.699137 0
M  V30 13 C 9.468383 7.108239 -12.030369 0 CFG=1
M  V30 14 C 9.437918 8.175517 -10.917404 0
M  V30 15 N 9.456638 7.598888 -9.555891 0 CFG=2 CHG=1
M  V30 16 C 9.027831 8.555434 -8.516341 0
M  V30 17 C 8.846328 7.804430 -7.186694 0
M  V30 18 C 10.076012 7.024142 -6.749483 0 CFG=2
M  V30 19 C 11.063861 7.936937 -6.116422 0
M  V30 20 N 11.410939 9.102106 -6.661316 0
M  V30 21 O 12.039372 9.859451 -5.643684 0
M  V30 22 C 12.113748 9.085546 -4.502151 0
M  V30 23 C 12.531669 9.380404 -3.219002 0
M  V30 24 C 12.526685 8.347383 -2.268419 0
M  V30 25 F 13.018605 8.591609 -1.046878 0
M  V30 26 C 12.087801 7.048626 -2.606360 0
M  V30 27 C 11.617545 6.786842 -3.906651 0
M  V30 28 C 11.605916 7.843241 -4.840452 0
M  V30 29 C 10.619618 6.173279 -7.881909 0
M  V30 30 C 10.745936 6.962432 -9.188977 0
M  V30 31 C 10.882336 6.900731 -12.646885 0
M  V30 32 H 7.568631 0.470982 -14.248588 0
M  V30 33 H 8.289537 0.618603 -15.855070 0
M  V30 34 H 9.198653 -0.143538 -14.538568 0
M  V30 35 H 12.679009 3.801641 -15.331926 0
M  V30 36 H 7.669342 6.013806 -11.446869 0
M  V30 37 H 9.141091 5.294425 -10.832542 0
M  V30 38 H 8.856591 7.540209 -12.817752 0
M  V30 39 H 10.246079 8.898599 -11.036781 0
M  V30 40 H 8.513392 8.743717 -11.029149 0
M  V30 41 H 9.741573 9.370863 -8.453852 0
M  V30 42 H 8.086446 9.026144 -8.793252 0
M  V30 43 H 8.485839 8.470833 -6.403003 0
M  V30 44 H 8.085409 7.049224 -7.330691 0
M  V30 45 H 9.740123 6.331901 -5.976354 0
M  V30 46 H 12.885548 10.370154 -3.016434 0
M  V30 47 H 12.103827 6.260704 -1.866342 0
M  V30 48 H 11.238605 5.809340 -4.166720 0
M  V30 49 H 11.567444 5.740530 -7.565711 0
M  V30 50 H 9.940578 5.336695 -8.052390 0
M  V30 51 H 11.030753 6.243495 -9.946183 0
M  V30 52 H 11.539700 7.708864 -9.129812 0
M  V30 53 H 11.659110 6.892678 -11.886143 0
M  V30 54 H 11.144979 7.738977 -13.292085 0
M  V30 55 H 8.736111 6.887808 -9.562795 0
M  V30 END ATOM
M  V30 BEGIN BOND
M  V30 1 1 2 1
M  V30 2 1 3 2
M  V30 3 2 4 3
M  V30 4 1 5 3
M  V30 5 2 6 5
M  V30 6 1 7 6
M  V30 7 1 8 7
M  V30 8 1 9 5
M  V30 9 2 9 8
M  V30 10 1 10 9
M  V30 11 2 11 10
M  V30 12 1 12 10
M  V30 13 1 13 12
M  V30 14 1 14 13
M  V30 15 1 15 14
M  V30 16 1 16 15
M  V30 17 1 17 16
M  V30 18 1 18 17
M  V30 19 1 19 18
M  V30 20 2 20 19
M  V30 21 1 21 20
M  V30 22 1 22 21
M  V30 23 1 23 22
M  V30 24 2 24 23
M  V30 25 1 25 24
M  V30 26 1 26 24
M  V30 27 2 27 26
M  V30 28 1 28 19
M  V30 29 2 28 22
M  V30 30 1 28 27
M  V30 31 1 29 18
M  V30 32 1 30 15
M  V30 33 1 30 29
M  V30 34 1 31 8
M  V30 35 1 31 13
M  V30 36 1 32 1
M  V30 37 1 33 1
M  V30 38 1 34 1
M  V30 39 1 35 6
M  V30 40 1 36 12
M  V30 41 1 37 12
M  V30 42 1 13 38 CFG=3
M  V30 43 1 39 14
M  V30 44 1 40 14
M  V30 45 1 41 16
M  V30 46 1 42 16
M  V30 47 1 43 17
M  V30 48 1 44 17
M  V30 49 1 18 45 CFG=1
M  V30 50 1 46 23
M  V30 51 1 47 26
M  V30 52 1 48 27
M  V30 53 1 49 29
M  V30 54 1 50 29
M  V30 55 1 51 30
M  V30 56 1 52 30
M  V30 57 1 53 31
M  V30 58 1 54 31
M  V30 59 1 15 55 CFG=3
M  V30 END BOND
M  V30 END CTAB
M  END
>  <b_m_subgroup_collapsed>  (671) 
0

>  <r_i_docking_score>  (671) 
-8.0108934630190909

>  <s_m_subgroup_title>  (671) 
glide-dock_SP_D22_pv

>  <s_m_subgroupid>  (671) 
glide-dock_SP_D22_pv

>  <Molecule ChEMBL ID>  (671) 
CHEMBL461627

>  <Standard Type>  (671) 
Ki

>  <Standard Value>  (671) 
85.11

>  <label>  (671) 
1

$$$$
CHEMBL1237149
     RDKit          3D

  0  0  0  0  0  0  0  0  0  0999 V3000
M  V30 BEGIN CTAB
M  V30 COUNTS 58 64 0 0 1
M  V30 BEGIN ATOM
M  V30 1 O 14.534315 6.223650 -16.658068 0
M  V30 2 C 13.659059 5.372625 -16.527285 0
M  V30 3 N 13.415792 4.267504 -17.330481 0
M  V30 4 C 12.355046 3.543854 -16.808685 0
M  V30 5 C 11.772428 2.346195 -17.243496 0
M  V30 6 C 10.700802 1.845335 -16.473915 0
M  V30 7 C 10.240848 2.544610 -15.329586 0
M  V30 8 C 10.834363 3.768342 -14.914695 0
M  V30 9 N 10.367362 4.447448 -13.768877 0
M  V30 10 C 10.816309 5.782791 -13.393360 0
M  V30 11 C 9.670893 6.275519 -12.486598 0 CFG=1
M  V30 12 C 8.480392 5.757911 -13.283643 0
M  V30 13 C 9.002193 4.332546 -13.248201 0 CFG=2
M  V30 14 C 9.077493 4.172365 -11.728297 0
M  V30 15 N 9.682342 5.437578 -11.264533 0 CFG=2 CHG=1
M  V30 16 C 9.099335 6.003303 -10.022276 0
M  V30 17 C 10.137545 6.836077 -9.238432 0 CFG=1
M  V30 18 C 10.095921 8.335097 -9.619975 0
M  V30 19 C 11.232184 9.112591 -8.954480 0
M  V30 20 C 11.301352 8.798681 -7.505256 0
M  V30 21 N 11.920028 9.580122 -6.547584 0
M  V30 22 C 11.928992 8.924243 -5.335590 0
M  V30 23 C 12.486146 9.251441 -4.088653 0
M  V30 24 C 12.436064 8.326871 -3.036212 0
M  V30 25 C 11.851795 7.070178 -3.250699 0
M  V30 26 F 11.839767 6.172364 -2.246808 0
M  V30 27 C 11.286032 6.746083 -4.500002 0
M  V30 28 C 11.285978 7.669344 -5.569856 0
M  V30 29 C 10.814399 7.660736 -6.929770 0
M  V30 30 C 10.024607 6.635763 -7.699569 0
M  V30 31 C 11.926534 4.231287 -15.689973 0
M  V30 32 O 12.725558 5.332476 -15.526622 0
M  V30 33 H 13.968102 4.036440 -18.142900 0
M  V30 34 H 12.133914 1.823403 -18.116793 0
M  V30 35 H 10.227715 0.916016 -16.758165 0
M  V30 36 H 9.430636 2.106299 -14.767521 0
M  V30 37 H 11.785197 5.771875 -12.894673 0
M  V30 38 H 10.894027 6.420529 -14.273648 0
M  V30 39 H 9.666924 7.349523 -12.333540 0
M  V30 40 H 7.519970 5.896886 -12.781931 0
M  V30 41 H 8.421674 6.170241 -14.288186 0
M  V30 42 H 8.352743 3.614160 -13.746514 0
M  V30 43 H 8.076573 4.037292 -11.313207 0
M  V30 44 H 9.700843 3.327270 -11.446878 0
M  V30 45 H 8.193064 6.570692 -10.232344 0
M  V30 46 H 8.790115 5.166395 -9.393572 0
M  V30 47 H 11.133232 6.479690 -9.504412 0
M  V30 48 H 10.167910 8.499275 -10.689401 0
M  V30 49 H 9.136187 8.753324 -9.309651 0
M  V30 50 H 11.112313 10.172321 -9.132919 0
M  V30 51 H 12.180004 8.837963 -9.419388 0
M  V30 52 H 12.369116 10.461882 -6.745180 0
M  V30 53 H 13.013760 10.172256 -3.942001 0
M  V30 54 H 12.875404 8.566083 -2.078578 0
M  V30 55 H 10.844534 5.772391 -4.642578 0
M  V30 56 H 8.976458 6.706161 -7.403434 0
M  V30 57 H 10.347790 5.629223 -7.437634 0
M  V30 58 H 10.646520 5.226465 -11.064206 0
M  V30 END ATOM
M  V30 BEGIN BOND
M  V30 1 2 2 1
M  V30 2 1 3 2
M  V30 3 1 4 3
M  V30 4 2 5 4
M  V30 5 1 6 5
M  V30 6 2 7 6
M  V30 7 1 8 7
M  V30 8 1 9 8
M  V30 9 1 10 9
M  V30 10 1 11 10
M  V30 11 1 12 11
M  V30 12 1 13 9
M  V30 13 1 13 12
M  V30 14 1 14 13
M  V30 15 1 15 11
M  V30 16 1 15 14
M  V30 17 1 16 15
M  V30 18 1 17 16
M  V30 19 1 18 17
M  V30 20 1 19 18
M  V30 21 1 20 19
M  V30 22 1 21 20
M  V30 23 1 22 21
M  V30 24 1 23 22
M  V30 25 2 24 23
M  V30 26 1 25 24
M  V30 27 1 26 25
M  V30 28 2 27 25
M  V30 29 2 28 22
M  V30 30 1 28 27
M  V30 31 2 29 20
M  V30 32 1 29 28
M  V30 33 1 30 17
M  V30 34 1 30 29
M  V30 35 1 31 4
M  V30 36 2 31 8
M  V30 37 1 32 2
M  V30 38 1 32 31
M  V30 39 1 33 3
M  V30 40 1 34 5
M  V30 41 1 35 6
M  V30 42 1 36 7
M  V30 43 1 37 10
M  V30 44 1 38 10
M  V30 45 1 11 39 CFG=1
M  V30 46 1 40 12
M  V30 47 1 41 12
M  V30 48 1 13 42 CFG=3
M  V30 49 1 43 14
M  V30 50 1 44 14
M  V30 51 1 45 16
M  V30 52 1 46 16
M  V30 53 1 17 47 CFG=3
M  V30 54 1 48 18
M  V30 55 1 49 18
M  V30 56 1 50 19
M  V30 57 1 51 19
M  V30 58 1 52 21
M  V30 59 1 53 23
M  V30 60 1 54 24
M  V30 61 1 55 27
M  V30 62 1 56 30
M  V30 63 1 57 30
M  V30 64 1 15 58 CFG=1
M  V30 END BOND
M  V30 END CTAB
M  END
>  <b_m_subgroup_collapsed>  (672) 
0

>  <r_i_docking_score>  (672) 
-8.0080413002134705

>  <s_m_subgroup_title>  (672) 
glide-dock_SP_D22_pv

>  <s_m_subgroupid>  (672) 
glide-dock_SP_D22_pv

>  <Molecule ChEMBL ID>  (672) 
CHEMBL1237149

>  <Standard Type>  (672) 
Ki

>  <Standard Value>  (672) 
12.0

>  <label>  (672) 
1

$$$$
CHEMBL4552459
     RDKit          3D

  0  0  0  0  0  0  0  0  0  0999 V3000
M  V30 BEGIN CTAB
M  V30 COUNTS 72 76 0 0 1
M  V30 BEGIN ATOM
M  V30 1 C 8.376079 -1.430503 -18.519693 0
M  V30 2 O 9.139074 -0.421207 -17.874866 0
M  V30 3 C 10.367654 -0.072439 -18.401587 0
M  V30 4 C 10.884345 -0.627762 -19.598890 0
M  V30 5 C 12.136498 -0.227827 -20.101841 0
M  V30 6 C 12.890347 0.742194 -19.421028 0
M  V30 7 C 12.382608 1.317713 -18.243465 0
M  V30 8 C 11.129581 0.916622 -17.727575 0
M  V30 9 N 10.632519 1.538487 -16.572817 0
M  V30 10 C 10.668233 2.988777 -16.475737 0
M  V30 11 C 9.323466 3.492677 -15.928287 0
M  V30 12 C 8.923745 2.806623 -14.591510 0
M  V30 13 C 7.508024 3.248210 -14.148231 0
M  V30 14 C 7.457225 4.710723 -13.658247 0
M  V30 15 N 8.437718 5.000680 -12.582168 0 CHG=1
M  V30 16 C 8.330929 6.410612 -12.114155 0
M  V30 17 C 9.269125 6.743784 -10.929820 0
M  V30 18 C 9.288907 8.224262 -10.519758 0
M  V30 19 S 10.861987 8.673298 -9.723623 0
M  V30 20 C 10.588534 8.054831 -8.092130 0
M  V30 21 N 9.688478 7.142519 -7.715614 0
M  V30 22 N 9.862217 6.973426 -6.344613 0
M  V30 23 C 10.847736 7.801051 -5.982600 0
M  V30 24 C 11.362391 7.948630 -4.632715 0
M  V30 25 C 11.556708 9.233141 -4.075690 0
M  V30 26 C 12.086091 9.372090 -2.781266 0
M  V30 27 C 12.431627 8.228654 -2.039591 0
M  V30 28 C 12.224288 6.946822 -2.583792 0
M  V30 29 C 11.686846 6.805733 -3.875837 0
M  V30 30 N 11.309371 8.464178 -7.044848 0
M  V30 31 N 12.375009 9.372284 -7.046961 0
M  V30 32 C 9.811739 4.632048 -13.010221 0
M  V30 33 C 9.899765 3.173673 -13.455361 0
M  V30 34 C 8.933858 1.270302 -14.817084 0
M  V30 35 C 10.266220 0.760410 -15.396001 0
M  V30 36 H 7.450685 -1.587484 -17.964319 0
M  V30 37 H 8.106053 -1.143269 -19.536129 0
M  V30 38 H 8.912220 -2.379583 -18.539818 0
M  V30 39 H 10.333406 -1.372488 -20.152723 0
M  V30 40 H 12.521111 -0.667764 -21.010958 0
M  V30 41 H 13.852624 1.048705 -19.804085 0
M  V30 42 H 12.968156 2.063403 -17.725174 0
M  V30 43 H 10.844571 3.432015 -17.456488 0
M  V30 44 H 11.498855 3.291226 -15.837074 0
M  V30 45 H 8.559012 3.285747 -16.679415 0
M  V30 46 H 9.361291 4.577057 -15.836800 0
M  V30 47 H 7.141346 2.593064 -13.362702 0
M  V30 48 H 6.803729 3.105724 -14.967964 0
M  V30 49 H 6.448144 4.952393 -13.320416 0
M  V30 50 H 7.686727 5.372113 -14.488926 0
M  V30 51 H 7.291886 6.600490 -11.843596 0
M  V30 52 H 8.540327 7.077033 -12.949314 0
M  V30 53 H 10.298498 6.510590 -11.190354 0
M  V30 54 H 9.016431 6.115991 -10.075658 0
M  V30 55 H 8.486042 8.478230 -9.835681 0
M  V30 56 H 9.176293 8.858280 -11.399162 0
M  V30 57 H 11.290590 10.117761 -4.634827 0
M  V30 58 H 12.213860 10.354871 -2.354967 0
M  V30 59 H 12.843727 8.336603 -1.047477 0
M  V30 60 H 12.479443 6.066214 -2.011854 0
M  V30 61 H 11.537531 5.818497 -4.289759 0
M  V30 62 H 12.714782 9.430429 -7.998750 0
M  V30 63 H 12.002894 10.277486 -6.796079 0
M  V30 64 H 10.170032 5.308148 -13.787813 0
M  V30 65 H 10.486680 4.715898 -12.170291 0
M  V30 66 H 9.685448 2.572407 -12.580915 0
M  V30 67 H 10.929804 2.941836 -13.722959 0
M  V30 68 H 8.717431 0.748890 -13.881987 0
M  V30 69 H 8.133107 0.996218 -15.505025 0
M  V30 70 H 10.195910 -0.302308 -15.628589 0
M  V30 71 H 11.057747 0.856147 -14.655091 0
M  V30 72 H 8.197358 4.413666 -11.794540 0
M  V30 END ATOM
M  V30 BEGIN BOND
M  V30 1 1 2 1
M  V30 2 1 3 2
M  V30 3 2 4 3
M  V30 4 1 5 4
M  V30 5 2 6 5
M  V30 6 1 7 6
M  V30 7 1 8 3
M  V30 8 2 8 7
M  V30 9 1 9 8
M  V30 10 1 10 9
M  V30 11 1 11 10
M  V30 12 1 12 11
M  V30 13 1 13 12
M  V30 14 1 14 13
M  V30 15 1 15 14
M  V30 16 1 16 15
M  V30 17 1 17 16
M  V30 18 1 18 17
M  V30 19 1 19 18
M  V30 20 1 20 19
M  V30 21 2 21 20
M  V30 22 1 22 21
M  V30 23 2 23 22
M  V30 24 1 24 23
M  V30 25 2 25 24
M  V30 26 1 26 25
M  V30 27 2 27 26
M  V30 28 1 28 27
M  V30 29 1 29 24
M  V30 30 2 29 28
M  V30 31 1 30 20
M  V30 32 1 30 23
M  V30 33 1 31 30
M  V30 34 1 32 15
M  V30 35 1 33 12
M  V30 36 1 33 32
M  V30 37 1 34 12
M  V30 38 1 35 9
M  V30 39 1 35 34
M  V30 40 1 36 1
M  V30 41 1 37 1
M  V30 42 1 38 1
M  V30 43 1 39 4
M  V30 44 1 40 5
M  V30 45 1 41 6
M  V30 46 1 42 7
M  V30 47 1 43 10
M  V30 48 1 44 10
M  V30 49 1 45 11
M  V30 50 1 46 11
M  V30 51 1 47 13
M  V30 52 1 48 13
M  V30 53 1 49 14
M  V30 54 1 50 14
M  V30 55 1 51 16
M  V30 56 1 52 16
M  V30 57 1 53 17
M  V30 58 1 54 17
M  V30 59 1 55 18
M  V30 60 1 56 18
M  V30 61 1 57 25
M  V30 62 1 58 26
M  V30 63 1 59 27
M  V30 64 1 60 28
M  V30 65 1 61 29
M  V30 66 1 62 31
M  V30 67 1 63 31
M  V30 68 1 64 32
M  V30 69 1 65 32
M  V30 70 1 66 33
M  V30 71 1 67 33
M  V30 72 1 68 34
M  V30 73 1 69 34
M  V30 74 1 70 35
M  V30 75 1 71 35
M  V30 76 1 72 15
M  V30 END BOND
M  V30 END CTAB
M  END
>  <b_m_subgroup_collapsed>  (673) 
0

>  <r_i_docking_score>  (673) 
-8.0078627654400893

>  <s_m_subgroup_title>  (673) 
glide-dock_SP_D22_pv

>  <s_m_subgroupid>  (673) 
glide-dock_SP_D22_pv

>  <Molecule ChEMBL ID>  (673) 
CHEMBL4552459

>  <Standard Type>  (673) 
Ki

>  <Standard Value>  (673) 
13904.0

>  <label>  (673) 
0

$$$$
CHEMBL2159472
     RDKit          3D

  0  0  0  0  0  0  0  0  0  0999 V3000
M  V30 BEGIN CTAB
M  V30 COUNTS 54 57 0 0 1
M  V30 BEGIN ATOM
M  V30 1 O 10.664271 2.907400 -14.643272 0
M  V30 2 S 9.403082 3.566885 -14.273605 0
M  V30 3 O 8.886188 4.704539 -15.046391 0
M  V30 4 N 9.548443 4.080839 -12.636212 0
M  V30 5 C 8.531349 4.951732 -12.034985 0 CFG=2
M  V30 6 C 8.841726 6.433029 -12.302032 0
M  V30 7 C 9.188884 7.031048 -10.938562 0
M  V30 8 N 8.486325 6.172256 -9.966810 0 CFG=2 CHG=1
M  V30 9 C 8.863851 6.330656 -8.539145 0
M  V30 10 C 10.318132 5.933907 -8.204370 0
M  V30 11 O 10.611903 6.172364 -6.834999 0
M  V30 12 C 10.934330 7.435740 -6.410555 0
M  V30 13 C 10.961067 8.544223 -7.279015 0
M  V30 14 C 11.269731 9.803721 -6.772863 0
M  V30 15 C 11.534582 9.993532 -5.415677 0
M  V30 16 C 11.619013 8.893117 -4.554781 0
M  V30 17 C 11.285997 7.610281 -5.048499 0
M  V30 18 C 11.338060 6.394849 -4.142150 0
M  V30 19 C 11.660666 6.671029 -2.663765 0
M  V30 20 C 12.648242 7.819068 -2.516791 0
M  V30 21 C 12.097939 9.104864 -3.129833 0
M  V30 22 C 8.518309 4.799613 -10.508570 0
M  V30 23 C 8.123588 2.321791 -14.247110 0
M  V30 24 C 6.801716 2.479087 -13.909323 0
M  V30 25 C 6.089809 1.241777 -13.870086 0
M  V30 26 C 6.859453 0.173464 -14.253489 0
M  V30 27 S 8.486786 0.661820 -14.646796 0
M  V30 28 H 10.498309 4.392855 -12.441579 0
M  V30 29 H 7.548498 4.712498 -12.433248 0
M  V30 30 H 9.645396 6.572294 -13.025284 0
M  V30 31 H 7.953258 6.924368 -12.702069 0
M  V30 32 H 10.267729 6.981881 -10.798038 0
M  V30 33 H 8.885892 8.074909 -10.849271 0
M  V30 34 H 8.670080 7.366539 -8.260745 0
M  V30 35 H 8.177807 5.735433 -7.934566 0
M  V30 36 H 10.454601 4.867520 -8.363915 0
M  V30 37 H 11.055726 6.410933 -8.846600 0
M  V30 38 H 10.736038 8.474203 -8.331329 0
M  V30 39 H 11.286049 10.632027 -7.445187 0
M  V30 40 H 11.686041 10.986188 -5.047615 0
M  V30 41 H 10.406849 5.847851 -4.230385 0
M  V30 42 H 12.104252 5.758425 -4.563350 0
M  V30 43 H 10.756115 6.922014 -2.112980 0
M  V30 44 H 12.052752 5.772692 -2.190481 0
M  V30 45 H 12.888773 7.980839 -1.466213 0
M  V30 46 H 13.558515 7.535289 -3.047040 0
M  V30 47 H 12.878826 9.865335 -3.121773 0
M  V30 48 H 11.284457 9.495968 -2.524636 0
M  V30 49 H 7.685996 4.197026 -10.155948 0
M  V30 50 H 9.426880 4.290080 -10.189153 0
M  V30 51 H 6.326578 3.414657 -13.659824 0
M  V30 52 H 5.046813 1.183590 -13.594313 0
M  V30 53 H 6.576265 -0.866864 -14.343029 0
M  V30 54 H 7.520306 6.500934 -10.026328 0
M  V30 END ATOM
M  V30 BEGIN BOND
M  V30 1 2 2 1
M  V30 2 2 3 2
M  V30 3 1 4 2
M  V30 4 1 5 4
M  V30 5 1 6 5
M  V30 6 1 7 6
M  V30 7 1 8 7
M  V30 8 1 9 8
M  V30 9 1 10 9
M  V30 10 1 11 10
M  V30 11 1 12 11
M  V30 12 2 13 12
M  V30 13 1 14 13
M  V30 14 2 15 14
M  V30 15 1 16 15
M  V30 16 1 17 12
M  V30 17 2 17 16
M  V30 18 1 18 17
M  V30 19 1 19 18
M  V30 20 1 20 19
M  V30 21 1 21 16
M  V30 22 1 21 20
M  V30 23 1 22 5
M  V30 24 1 22 8
M  V30 25 1 23 2
M  V30 26 2 24 23
M  V30 27 1 25 24
M  V30 28 2 26 25
M  V30 29 1 27 23
M  V30 30 1 27 26
M  V30 31 1 28 4
M  V30 32 1 5 29 CFG=3
M  V30 33 1 30 6
M  V30 34 1 31 6
M  V30 35 1 32 7
M  V30 36 1 33 7
M  V30 37 1 34 9
M  V30 38 1 35 9
M  V30 39 1 36 10
M  V30 40 1 37 10
M  V30 41 1 38 13
M  V30 42 1 39 14
M  V30 43 1 40 15
M  V30 44 1 41 18
M  V30 45 1 42 18
M  V30 46 1 43 19
M  V30 47 1 44 19
M  V30 48 1 45 20
M  V30 49 1 46 20
M  V30 50 1 47 21
M  V30 51 1 48 21
M  V30 52 1 49 22
M  V30 53 1 50 22
M  V30 54 1 51 24
M  V30 55 1 52 25
M  V30 56 1 53 26
M  V30 57 1 8 54 CFG=1
M  V30 END BOND
M  V30 END CTAB
M  END
>  <b_m_subgroup_collapsed>  (674) 
0

>  <r_i_docking_score>  (674) 
-7.9980968605764504

>  <s_m_subgroup_title>  (674) 
glide-dock_SP_D22_pv

>  <s_m_subgroupid>  (674) 
glide-dock_SP_D22_pv

>  <Molecule ChEMBL ID>  (674) 
CHEMBL2159472

>  <Standard Type>  (674) 
Ki

>  <Standard Value>  (674) 
72.0

>  <label>  (674) 
1

$$$$
CHEMBL568801
     RDKit          3D

  0  0  0  0  0  0  0  0  0  0999 V3000
M  V30 BEGIN CTAB
M  V30 COUNTS 74 78 0 0 1
M  V30 BEGIN ATOM
M  V30 1 C 4.868230 4.117040 -13.255627 0
M  V30 2 C 6.110656 4.984835 -13.257262 0
M  V30 3 C 7.089734 4.541914 -12.179211 0
M  V30 4 N 8.429229 5.160261 -12.332604 0 CFG=1 CHG=1
M  V30 5 C 9.158160 5.189089 -11.045614 0
M  V30 6 C 9.414340 6.650074 -10.647957 0
M  V30 7 N 10.301400 6.702572 -9.502213 0
M  V30 8 C 10.907120 8.031782 -9.398032 0
M  V30 9 C 11.958012 8.011725 -8.276903 0
M  V30 10 N 11.373752 7.522571 -7.031544 0
M  V30 11 C 11.286047 8.375797 -5.926756 0
M  V30 12 C 10.886044 9.709139 -6.125233 0
M  V30 13 C 10.886000 10.583896 -5.036079 0
M  V30 14 N 11.285982 10.172336 -3.830513 0 CHG=1
M  V30 15 C 11.685982 8.933645 -3.579258 0
M  V30 16 C 12.088826 8.633111 -2.277101 0
M  V30 17 C 12.486019 7.329499 -2.005019 0
M  V30 18 C 12.485442 6.354852 -3.000595 0
M  V30 19 C 12.059450 6.658999 -4.300248 0
M  V30 20 C 11.668292 7.971312 -4.618491 0
M  V30 21 C 10.548267 6.328307 -7.106219 0
M  V30 22 C 9.553157 6.441217 -8.266151 0
M  V30 23 C 9.223280 4.704945 -13.522884 0 CFG=1
M  V30 24 C 10.607032 5.371123 -13.651012 0
M  V30 25 C 11.232073 5.085296 -15.022596 0
M  V30 26 C 11.116069 3.628793 -15.463316 0
M  V30 27 C 10.234709 2.733391 -14.802922 0
M  V30 28 C 10.132218 1.398308 -15.240876 0
M  V30 29 C 10.885945 0.954712 -16.339281 0
M  V30 30 C 11.755931 1.839646 -17.000275 0
M  V30 31 C 11.885980 3.182657 -16.564878 0
M  V30 32 O 12.728088 4.097908 -17.163019 0
M  V30 33 C 13.590058 3.647641 -18.196957 0
M  V30 34 C 9.377695 3.174579 -13.626537 0
M  V30 35 H 4.086171 4.572315 -13.859629 0
M  V30 36 H 5.080954 3.117645 -13.635510 0
M  V30 37 H 4.487053 4.013407 -12.246904 0
M  V30 38 H 5.833031 6.024155 -13.070411 0
M  V30 39 H 6.551281 4.929443 -14.246316 0
M  V30 40 H 7.151718 3.457607 -12.123935 0
M  V30 41 H 6.657385 4.858731 -11.230620 0
M  V30 42 H 8.590307 4.681616 -10.265496 0
M  V30 43 H 10.086035 4.625263 -11.104213 0
M  V30 44 H 9.890750 7.163585 -11.482666 0
M  V30 45 H 8.486051 7.183660 -10.445269 0
M  V30 46 H 11.395458 8.301456 -10.335532 0
M  V30 47 H 10.142355 8.786297 -9.204838 0
M  V30 48 H 12.791941 7.372384 -8.552565 0
M  V30 49 H 12.392094 9.002959 -8.151768 0
M  V30 50 H 10.571754 10.057061 -7.093822 0
M  V30 51 H 10.584903 11.613581 -5.046874 0
M  V30 52 H 12.114210 9.380544 -1.496377 0
M  V30 53 H 12.886030 7.078683 -1.046882 0
M  V30 54 H 12.846437 5.372329 -2.761688 0
M  V30 55 H 12.085814 5.882657 -5.049714 0
M  V30 56 H 11.201412 5.470258 -7.257319 0
M  V30 57 H 10.005027 6.172175 -6.173437 0
M  V30 58 H 8.824361 7.232812 -8.079136 0
M  V30 59 H 8.992742 5.509538 -8.327039 0
M  V30 60 H 8.671545 5.032076 -14.403208 0
M  V30 61 H 10.562600 6.445103 -13.476070 0
M  V30 62 H 11.284284 4.967219 -12.901663 0
M  V30 63 H 12.281446 5.383069 -15.007403 0
M  V30 64 H 10.746855 5.700227 -15.781930 0
M  V30 65 H 9.468348 0.709566 -14.738159 0
M  V30 66 H 10.799860 -0.068766 -16.672718 0
M  V30 67 H 12.322045 1.458583 -17.836271 0
M  V30 68 H 14.220133 4.474081 -18.524477 0
M  V30 69 H 14.247646 2.850711 -17.847559 0
M  V30 70 H 13.025601 3.300869 -19.063648 0
M  V30 71 H 8.405700 2.696919 -13.744661 0
M  V30 72 H 9.823872 2.777583 -12.714969 0
M  V30 73 H 11.287102 10.848866 -3.063661 0
M  V30 74 H 8.226019 6.135156 -12.505000 0
M  V30 END ATOM
M  V30 BEGIN BOND
M  V30 1 1 2 1
M  V30 2 1 3 2
M  V30 3 1 4 3
M  V30 4 1 5 4
M  V30 5 1 6 5
M  V30 6 1 7 6
M  V30 7 1 8 7
M  V30 8 1 9 8
M  V30 9 1 10 9
M  V30 10 1 11 10
M  V30 11 2 12 11
M  V30 12 1 13 12
M  V30 13 2 14 13
M  V30 14 1 15 14
M  V30 15 2 16 15
M  V30 16 1 17 16
M  V30 17 2 18 17
M  V30 18 1 19 18
M  V30 19 1 20 11
M  V30 20 1 20 15
M  V30 21 2 20 19
M  V30 22 1 21 10
M  V30 23 1 22 7
M  V30 24 1 22 21
M  V30 25 1 23 4
M  V30 26 1 24 23
M  V30 27 1 25 24
M  V30 28 1 26 25
M  V30 29 2 27 26
M  V30 30 1 28 27
M  V30 31 2 29 28
M  V30 32 1 30 29
M  V30 33 1 31 26
M  V30 34 2 31 30
M  V30 35 1 32 31
M  V30 36 1 33 32
M  V30 37 1 34 23
M  V30 38 1 34 27
M  V30 39 1 35 1
M  V30 40 1 36 1
M  V30 41 1 37 1
M  V30 42 1 38 2
M  V30 43 1 39 2
M  V30 44 1 40 3
M  V30 45 1 41 3
M  V30 46 1 42 5
M  V30 47 1 43 5
M  V30 48 1 44 6
M  V30 49 1 45 6
M  V30 50 1 46 8
M  V30 51 1 47 8
M  V30 52 1 48 9
M  V30 53 1 49 9
M  V30 54 1 50 12
M  V30 55 1 51 13
M  V30 56 1 52 16
M  V30 57 1 53 17
M  V30 58 1 54 18
M  V30 59 1 55 19
M  V30 60 1 56 21
M  V30 61 1 57 21
M  V30 62 1 58 22
M  V30 63 1 59 22
M  V30 64 1 23 60 CFG=3
M  V30 65 1 61 24
M  V30 66 1 62 24
M  V30 67 1 63 25
M  V30 68 1 64 25
M  V30 69 1 65 28
M  V30 70 1 66 29
M  V30 71 1 67 30
M  V30 72 1 68 33
M  V30 73 1 69 33
M  V30 74 1 70 33
M  V30 75 1 71 34
M  V30 76 1 72 34
M  V30 77 1 73 14
M  V30 78 1 4 74 CFG=3
M  V30 END BOND
M  V30 END CTAB
M  END
>  <b_m_subgroup_collapsed>  (675) 
0

>  <r_i_docking_score>  (675) 
-7.99434472898065

>  <s_m_subgroup_title>  (675) 
glide-dock_SP_D22_pv

>  <s_m_subgroupid>  (675) 
glide-dock_SP_D22_pv

>  <Molecule ChEMBL ID>  (675) 
CHEMBL568801

>  <Standard Type>  (675) 
Ki

>  <Standard Value>  (675) 
4.89

>  <label>  (675) 
1

$$$$
CHEMBL1082209
     RDKit          3D

  0  0  0  0  0  0  0  0  0  0999 V3000
M  V30 BEGIN CTAB
M  V30 COUNTS 60 64 0 0 1
M  V30 BEGIN ATOM
M  V30 1 C 10.571535 5.305304 -17.613335 0
M  V30 2 C 11.622313 4.311482 -17.084261 0 CFG=1
M  V30 3 C 12.696816 5.007936 -16.211809 0
M  V30 4 N 12.157063 5.379808 -14.894853 0
M  V30 5 C 12.172273 6.661487 -14.436033 0
M  V30 6 O 12.631253 7.592493 -15.098182 0
M  V30 7 C 11.681355 6.968140 -13.043642 0
M  V30 8 C 10.403251 6.572594 -12.593177 0
M  V30 9 C 9.991452 6.849743 -11.274586 0
M  V30 10 C 10.851418 7.501761 -10.356455 0
M  V30 11 C 10.524105 7.590270 -8.914890 0
M  V30 12 C 9.688437 6.609028 -8.337499 0
M  V30 13 C 9.463406 6.572399 -6.956223 0
M  V30 14 C 10.084692 7.506259 -6.113570 0
M  V30 15 C 10.861301 8.544906 -6.658088 0
M  V30 16 C 11.462891 9.600260 -5.735579 0
M  V30 17 F 10.887232 9.594535 -4.533504 0
M  V30 18 F 12.761027 9.373038 -5.568526 0
M  V30 19 F 11.299387 10.815479 -6.247282 0
M  V30 20 C 11.079279 8.577225 -8.056569 0
M  V30 21 C 12.086434 7.978465 -10.845632 0
M  V30 22 C 12.486048 7.731477 -12.173201 0
M  V30 23 C 11.681170 4.177500 -14.204569 0
M  V30 24 C 10.512775 3.581602 -15.007212 0
M  V30 25 N 10.979699 3.190566 -16.354433 0
M  V30 26 C 10.906940 1.891176 -16.763638 0
M  V30 27 O 10.485886 0.991405 -16.032814 0
M  V30 28 C 11.401038 1.489827 -18.132454 0
M  V30 29 C 10.963696 2.124148 -19.318316 0
M  V30 30 C 11.437479 1.702258 -20.579651 0
M  V30 31 C 12.346171 0.625034 -20.702824 0
M  V30 32 C 13.007379 -0.028944 -21.800745 0
M  V30 33 C 13.777260 -1.028557 -21.262627 0
M  V30 34 N 13.619746 -1.027429 -19.887203 0
M  V30 35 C 12.745636 -0.026833 -19.501776 0
M  V30 36 C 12.264096 0.379109 -18.246807 0
M  V30 37 H 11.033399 6.054950 -18.255972 0
M  V30 38 H 9.790718 4.812564 -18.191580 0
M  V30 39 H 10.084582 5.837836 -16.798256 0
M  V30 40 H 12.171064 3.940067 -17.948692 0
M  V30 41 H 13.108326 5.859605 -16.754965 0
M  V30 42 H 13.540673 4.332839 -16.061436 0
M  V30 43 H 9.729333 6.043830 -13.251938 0
M  V30 44 H 9.012326 6.513704 -10.965744 0
M  V30 45 H 9.232311 5.835532 -8.936788 0
M  V30 46 H 8.822419 5.808780 -6.545387 0
M  V30 47 H 9.938045 7.429073 -5.047666 0
M  V30 48 H 11.699771 9.362288 -8.461934 0
M  V30 49 H 12.774626 8.498775 -10.196083 0
M  V30 50 H 13.448405 8.089898 -12.508615 0
M  V30 51 H 12.485930 3.446648 -14.155016 0
M  V30 52 H 11.395764 4.339290 -13.169198 0
M  V30 53 H 10.092669 2.750556 -14.439823 0
M  V30 54 H 9.703543 4.305410 -15.095863 0
M  V30 55 H 10.258405 2.938046 -19.273558 0
M  V30 56 H 11.099796 2.209033 -21.470720 0
M  V30 57 H 12.909610 0.230363 -22.843521 0
M  V30 58 H 14.427752 -1.743530 -21.746521 0
M  V30 59 H 14.106383 -1.674556 -19.281260 0
M  V30 60 H 12.564960 -0.155624 -17.362385 0
M  V30 END ATOM
M  V30 BEGIN BOND
M  V30 1 1 2 1
M  V30 2 1 3 2
M  V30 3 1 4 3
M  V30 4 1 5 4
M  V30 5 2 6 5
M  V30 6 1 7 5
M  V30 7 1 8 7
M  V30 8 2 9 8
M  V30 9 1 10 9
M  V30 10 1 11 10
M  V30 11 1 12 11
M  V30 12 2 13 12
M  V30 13 1 14 13
M  V30 14 2 15 14
M  V30 15 1 16 15
M  V30 16 1 17 16
M  V30 17 1 18 16
M  V30 18 1 19 16
M  V30 19 2 20 11
M  V30 20 1 20 15
M  V30 21 2 21 10
M  V30 22 2 22 7
M  V30 23 1 22 21
M  V30 24 1 23 4
M  V30 25 1 24 23
M  V30 26 1 25 2
M  V30 27 1 25 24
M  V30 28 1 26 25
M  V30 29 2 27 26
M  V30 30 1 28 26
M  V30 31 2 29 28
M  V30 32 1 30 29
M  V30 33 2 31 30
M  V30 34 1 32 31
M  V30 35 2 33 32
M  V30 36 1 34 33
M  V30 37 1 35 31
M  V30 38 1 35 34
M  V30 39 1 36 28
M  V30 40 2 36 35
M  V30 41 1 37 1
M  V30 42 1 38 1
M  V30 43 1 39 1
M  V30 44 1 2 40 CFG=3
M  V30 45 1 41 3
M  V30 46 1 42 3
M  V30 47 1 43 8
M  V30 48 1 44 9
M  V30 49 1 45 12
M  V30 50 1 46 13
M  V30 51 1 47 14
M  V30 52 1 48 20
M  V30 53 1 49 21
M  V30 54 1 50 22
M  V30 55 1 51 23
M  V30 56 1 52 23
M  V30 57 1 53 24
M  V30 58 1 54 24
M  V30 59 1 55 29
M  V30 60 1 56 30
M  V30 61 1 57 32
M  V30 62 1 58 33
M  V30 63 1 59 34
M  V30 64 1 60 36
M  V30 END BOND
M  V30 END CTAB
M  END
>  <b_m_subgroup_collapsed>  (676) 
0

>  <r_i_docking_score>  (676) 
-7.9928680724571297

>  <s_m_subgroup_title>  (676) 
glide-dock_SP_D22_pv

>  <s_m_subgroupid>  (676) 
glide-dock_SP_D22_pv

>  <Molecule ChEMBL ID>  (676) 
CHEMBL1082209

>  <Standard Type>  (676) 
Ki

>  <Standard Value>  (676) 
10000.0

>  <label>  (676) 
0

$$$$
CHEMBL569270
     RDKit          3D

  0  0  0  0  0  0  0  0  0  0999 V3000
M  V30 BEGIN CTAB
M  V30 COUNTS 38 40 0 0 1
M  V30 BEGIN ATOM
M  V30 1 C 5.285416 2.610506 -12.508683 0
M  V30 2 N 5.815552 3.792404 -11.848696 0
M  V30 3 C 7.015815 4.346141 -12.299031 0
M  V30 4 C 7.722228 5.201604 -11.447558 0
M  V30 5 C 8.954494 5.694249 -11.907725 0
M  V30 6 C 9.785804 6.563802 -11.070920 0
M  V30 7 C 10.835916 7.360501 -11.459405 0
M  V30 8 S 11.586249 8.171805 -10.118111 0
M  V30 9 C 10.389535 7.438197 -9.033156 0
M  V30 10 N 10.302219 7.581851 -7.601810 0
M  V30 11 C 9.278702 6.801016 -6.891904 0
M  V30 12 C 11.106696 8.438931 -6.923697 0
M  V30 13 O 11.685903 9.374415 -7.457897 0
M  V30 14 C 11.304034 8.307447 -5.438875 0
M  V30 15 C 11.304697 9.479090 -4.650164 0
M  V30 16 C 11.689245 9.425711 -3.300114 0
M  V30 17 C 12.085564 8.204675 -2.730066 0
M  V30 18 F 12.495536 8.172269 -1.446469 0
M  V30 19 C 12.062377 7.024599 -3.495126 0
M  V30 20 C 11.674900 7.075069 -4.848814 0
M  V30 21 N 9.552732 6.631827 -9.689903 0
M  V30 22 N 9.416284 5.375879 -13.136645 0
M  V30 23 C 8.658817 4.559455 -13.868156 0
M  V30 24 N 7.488164 4.025220 -13.521425 0
M  V30 25 H 4.485823 2.171476 -11.915738 0
M  V30 26 H 4.885689 2.876410 -13.484834 0
M  V30 27 H 6.060385 1.857557 -12.650970 0
M  V30 28 H 5.567040 3.987097 -10.880000 0
M  V30 29 H 7.336979 5.481668 -10.477771 0
M  V30 30 H 11.224079 7.483388 -12.459020 0
M  V30 31 H 9.042503 7.183419 -5.900548 0
M  V30 32 H 8.332381 6.796129 -7.433209 0
M  V30 33 H 9.612922 5.772296 -6.790818 0
M  V30 34 H 11.049903 10.433372 -5.089780 0
M  V30 35 H 11.711020 10.327830 -2.705921 0
M  V30 36 H 12.361991 6.086592 -3.050549 0
M  V30 37 H 11.707314 6.172675 -5.442727 0
M  V30 38 H 9.031237 4.308390 -14.850078 0
M  V30 END ATOM
M  V30 BEGIN BOND
M  V30 1 1 2 1
M  V30 2 1 3 2
M  V30 3 2 4 3
M  V30 4 1 5 4
M  V30 5 1 6 5
M  V30 6 2 7 6
M  V30 7 1 8 7
M  V30 8 1 9 8
M  V30 9 1 10 9
M  V30 10 1 11 10
M  V30 11 1 12 10
M  V30 12 2 13 12
M  V30 13 1 14 12
M  V30 14 1 15 14
M  V30 15 2 16 15
M  V30 16 1 17 16
M  V30 17 1 18 17
M  V30 18 2 19 17
M  V30 19 2 20 14
M  V30 20 1 20 19
M  V30 21 1 21 6
M  V30 22 2 21 9
M  V30 23 2 22 5
M  V30 24 1 23 22
M  V30 25 1 24 3
M  V30 26 2 24 23
M  V30 27 1 25 1
M  V30 28 1 26 1
M  V30 29 1 27 1
M  V30 30 1 28 2
M  V30 31 1 29 4
M  V30 32 1 30 7
M  V30 33 1 31 11
M  V30 34 1 32 11
M  V30 35 1 33 11
M  V30 36 1 34 15
M  V30 37 1 35 16
M  V30 38 1 36 19
M  V30 39 1 37 20
M  V30 40 1 38 23
M  V30 END BOND
M  V30 END CTAB
M  END
>  <b_m_subgroup_collapsed>  (677) 
0

>  <r_i_docking_score>  (677) 
-7.9924901698372404

>  <s_m_subgroup_title>  (677) 
glide-dock_SP_D22_pv

>  <s_m_subgroupid>  (677) 
glide-dock_SP_D22_pv

>  <Molecule ChEMBL ID>  (677) 
CHEMBL569270

>  <Standard Type>  (677) 
Ki

>  <Standard Value>  (677) 
10000.0

>  <label>  (677) 
0

$$$$
CHEMBL569746
     RDKit          3D

  0  0  0  0  0  0  0  0  0  0999 V3000
M  V30 BEGIN CTAB
M  V30 COUNTS 71 75 0 0 1
M  V30 BEGIN ATOM
M  V30 1 C 11.796277 3.976596 -14.382480 0
M  V30 2 C 10.410968 3.932176 -13.734047 0
M  V30 3 C 9.429027 3.043358 -14.508370 0
M  V30 4 N 8.101041 2.891450 -13.847605 0 CFG=1 CHG=1
M  V30 5 C 7.308255 4.154290 -13.796042 0
M  V30 6 C 7.041692 4.590294 -12.337871 0
M  V30 7 N 8.254910 5.104768 -11.702155 0
M  V30 8 C 8.514136 6.489631 -12.112573 0
M  V30 9 C 9.833393 6.963320 -11.478232 0
M  V30 10 N 9.774404 6.902406 -10.008152 0
M  V30 11 C 10.060957 7.990166 -9.249149 0
M  V30 12 O 10.102740 9.118406 -9.742499 0
M  V30 13 C 10.417260 7.864418 -7.807016 0
M  V30 14 C 10.841309 6.854291 -6.972759 0
M  V30 15 C 11.183240 7.452714 -5.709754 0
M  V30 16 C 11.686003 6.972219 -4.477093 0
M  V30 17 C 12.038417 7.855826 -3.433074 0
M  V30 18 C 11.832788 9.242437 -3.579114 0
M  V30 19 C 11.286213 9.745387 -4.773978 0
M  V30 20 C 10.981389 8.856157 -5.820494 0
M  V30 21 N 10.489568 9.050831 -7.091217 0
M  V30 22 C 9.365651 5.579516 -9.522232 0
M  V30 23 C 8.093630 5.107204 -10.249068 0
M  V30 24 C 7.364704 1.674481 -14.342486 0 CFG=1
M  V30 25 C 6.006145 1.400056 -13.653337 0
M  V30 26 C 5.400916 0.056078 -14.102833 0
M  V30 27 C 5.456502 -0.198131 -15.608799 0
M  V30 28 C 4.598187 -1.155549 -16.201248 0
M  V30 29 O 3.685838 -1.827675 -15.446810 0
M  V30 30 C 4.656940 -1.415258 -17.582891 0
M  V30 31 C 5.564542 -0.710053 -18.391785 0
M  V30 32 C 6.405660 0.259628 -17.818378 0
M  V30 33 C 6.353664 0.525892 -16.433071 0
M  V30 34 C 7.224378 1.643116 -15.883675 0
M  V30 35 H 12.507028 4.522499 -13.760181 0
M  V30 36 H 12.181787 2.972337 -14.538150 0
M  V30 37 H 11.759050 4.468165 -15.355315 0
M  V30 38 H 10.045415 4.953953 -13.702120 0
M  V30 39 H 10.486092 3.584576 -12.702608 0
M  V30 40 H 9.885742 2.057215 -14.607555 0
M  V30 41 H 9.303656 3.435340 -15.518719 0
M  V30 42 H 7.802599 4.946983 -14.354536 0
M  V30 43 H 6.351694 4.030188 -14.299996 0
M  V30 44 H 6.259306 5.350555 -12.301344 0
M  V30 45 H 6.657200 3.737955 -11.776816 0
M  V30 46 H 8.599378 6.567926 -13.193585 0
M  V30 47 H 7.686536 7.146901 -11.844856 0
M  V30 48 H 10.657322 6.336615 -11.818472 0
M  V30 49 H 10.057078 7.961529 -11.856901 0
M  V30 50 H 10.949209 5.805732 -7.207586 0
M  V30 51 H 11.843906 5.911177 -4.350840 0
M  V30 52 H 12.447675 7.466349 -2.512379 0
M  V30 53 H 12.090981 9.917086 -2.774336 0
M  V30 54 H 11.124852 10.806114 -4.897276 0
M  V30 55 H 10.264888 9.933404 -7.527220 0
M  V30 56 H 10.171042 4.861518 -9.660820 0
M  V30 57 H 9.117688 5.593562 -8.463519 0
M  V30 58 H 7.286041 5.772901 -9.977798 0
M  V30 59 H 7.815475 4.119092 -9.892442 0
M  V30 60 H 7.996386 0.825002 -14.075451 0
M  V30 61 H 5.289186 2.186785 -13.881697 0
M  V30 62 H 6.086089 1.398683 -12.567192 0
M  V30 63 H 4.367570 0.000206 -13.757730 0
M  V30 64 H 5.931560 -0.764528 -13.617536 0
M  V30 65 H 3.290365 -2.586624 -15.868886 0
M  V30 66 H 3.999290 -2.148353 -18.027861 0
M  V30 67 H 5.605552 -0.906097 -19.453293 0
M  V30 68 H 7.086134 0.808575 -18.452372 0
M  V30 69 H 8.202879 1.558463 -16.357269 0
M  V30 70 H 6.783233 2.572332 -16.235212 0
M  V30 71 H 8.323354 2.701588 -12.880188 0
M  V30 END ATOM
M  V30 BEGIN BOND
M  V30 1 1 2 1
M  V30 2 1 3 2
M  V30 3 1 4 3
M  V30 4 1 5 4
M  V30 5 1 6 5
M  V30 6 1 7 6
M  V30 7 1 8 7
M  V30 8 1 9 8
M  V30 9 1 10 9
M  V30 10 1 11 10
M  V30 11 2 12 11
M  V30 12 1 13 11
M  V30 13 2 14 13
M  V30 14 1 15 14
M  V30 15 2 16 15
M  V30 16 1 17 16
M  V30 17 2 18 17
M  V30 18 1 19 18
M  V30 19 1 20 15
M  V30 20 2 20 19
M  V30 21 1 21 13
M  V30 22 1 21 20
M  V30 23 1 22 10
M  V30 24 1 23 7
M  V30 25 1 23 22
M  V30 26 1 24 4
M  V30 27 1 25 24
M  V30 28 1 26 25
M  V30 29 1 27 26
M  V30 30 2 28 27
M  V30 31 1 29 28
M  V30 32 1 30 28
M  V30 33 2 31 30
M  V30 34 1 32 31
M  V30 35 1 33 27
M  V30 36 2 33 32
M  V30 37 1 34 24
M  V30 38 1 34 33
M  V30 39 1 35 1
M  V30 40 1 36 1
M  V30 41 1 37 1
M  V30 42 1 38 2
M  V30 43 1 39 2
M  V30 44 1 40 3
M  V30 45 1 41 3
M  V30 46 1 42 5
M  V30 47 1 43 5
M  V30 48 1 44 6
M  V30 49 1 45 6
M  V30 50 1 46 8
M  V30 51 1 47 8
M  V30 52 1 48 9
M  V30 53 1 49 9
M  V30 54 1 50 14
M  V30 55 1 51 16
M  V30 56 1 52 17
M  V30 57 1 53 18
M  V30 58 1 54 19
M  V30 59 1 55 21
M  V30 60 1 56 22
M  V30 61 1 57 22
M  V30 62 1 58 23
M  V30 63 1 59 23
M  V30 64 1 24 60 CFG=1
M  V30 65 1 61 25
M  V30 66 1 62 25
M  V30 67 1 63 26
M  V30 68 1 64 26
M  V30 69 1 65 29
M  V30 70 1 66 30
M  V30 71 1 67 31
M  V30 72 1 68 32
M  V30 73 1 69 34
M  V30 74 1 70 34
M  V30 75 1 4 71 CFG=1
M  V30 END BOND
M  V30 END CTAB
M  END
>  <b_m_subgroup_collapsed>  (678) 
0

>  <r_i_docking_score>  (678) 
-7.9905276501560802

>  <s_m_subgroup_title>  (678) 
glide-dock_SP_D22_pv

>  <s_m_subgroupid>  (678) 
glide-dock_SP_D22_pv

>  <Molecule ChEMBL ID>  (678) 
CHEMBL569746

>  <Standard Type>  (678) 
Ki

>  <Standard Value>  (678) 
47.5

>  <label>  (678) 
1

$$$$
CHEMBL5723004
     RDKit          3D

  0  0  0  0  0  0  0  0  0  0999 V3000
M  V30 BEGIN CTAB
M  V30 COUNTS 47 49 0 0 1
M  V30 BEGIN ATOM
M  V30 1 C 12.609547 8.993167 -1.447565 0
M  V30 2 C 12.152951 8.459380 -2.786721 0
M  V30 3 C 11.947753 7.078629 -2.966183 0
M  V30 4 C 11.500007 6.596272 -4.209406 0
M  V30 5 C 11.285139 7.474447 -5.285430 0
M  V30 6 N 10.855311 6.979851 -6.521127 0
M  V30 7 C 10.704295 7.796681 -7.632330 0
M  V30 8 C 10.351458 7.070552 -8.924110 0
M  V30 9 N 8.886797 7.002596 -9.135805 0 CHG=1
M  V30 10 C 8.368680 5.701682 -9.608935 0
M  V30 11 C 8.841147 5.262987 -11.010540 0
M  V30 12 C 8.029467 5.812641 -12.214835 0 CFG=2
M  V30 13 C 6.526395 5.446557 -12.268462 0
M  V30 14 C 6.311213 3.949565 -12.510266 0
M  V30 15 C 7.057950 3.527848 -13.779118 0
M  V30 16 C 8.524255 3.995844 -13.748668 0
M  V30 17 O 8.623896 5.391154 -13.446954 0
M  V30 18 C 10.969841 9.120364 -7.568379 0
M  V30 19 C 11.401562 9.766011 -6.301381 0
M  V30 20 O 11.668596 10.968365 -6.246490 0
M  V30 21 C 11.534756 8.858270 -5.125247 0
M  V30 22 C 11.934848 9.344843 -3.860634 0
M  V30 23 H 13.662148 8.764544 -1.268157 0
M  V30 24 H 12.485202 10.072424 -1.396081 0
M  V30 25 H 12.005151 8.573917 -0.647857 0
M  V30 26 H 12.110018 6.390078 -2.149697 0
M  V30 27 H 11.316096 5.547310 -4.335263 0
M  V30 28 H 10.704986 5.982750 -6.597370 0
M  V30 29 H 10.824009 7.555521 -9.779846 0
M  V30 30 H 10.768142 6.063387 -8.876767 0
M  V30 31 H 8.413727 7.184216 -8.259509 0
M  V30 32 H 8.629885 4.939724 -8.873723 0
M  V30 33 H 7.288223 5.772574 -9.603190 0
M  V30 34 H 9.895718 5.500599 -11.145640 0
M  V30 35 H 8.796398 4.176454 -11.021487 0
M  V30 36 H 8.105283 6.900416 -12.190298 0
M  V30 37 H 5.990527 5.773353 -11.383117 0
M  V30 38 H 6.060441 5.999386 -13.084175 0
M  V30 39 H 5.246146 3.735132 -12.611057 0
M  V30 40 H 6.655944 3.375604 -11.650149 0
M  V30 41 H 6.553956 3.952123 -14.646105 0
M  V30 42 H 7.012940 2.445572 -13.902516 0
M  V30 43 H 8.981501 3.823746 -14.722219 0
M  V30 44 H 9.104147 3.403478 -13.041743 0
M  V30 45 H 10.897308 9.741849 -8.448944 0
M  V30 46 H 12.085262 10.398198 -3.699978 0
M  V30 47 H 8.573090 7.716931 -9.781516 0
M  V30 END ATOM
M  V30 BEGIN BOND
M  V30 1 1 2 1
M  V30 2 2 3 2
M  V30 3 1 4 3
M  V30 4 2 5 4
M  V30 5 1 6 5
M  V30 6 1 7 6
M  V30 7 1 8 7
M  V30 8 1 9 8
M  V30 9 1 10 9
M  V30 10 1 11 10
M  V30 11 1 12 11
M  V30 12 1 13 12
M  V30 13 1 14 13
M  V30 14 1 15 14
M  V30 15 1 16 15
M  V30 16 1 17 12
M  V30 17 1 17 16
M  V30 18 2 18 7
M  V30 19 1 19 18
M  V30 20 2 20 19
M  V30 21 1 21 5
M  V30 22 1 21 19
M  V30 23 1 22 2
M  V30 24 2 22 21
M  V30 25 1 23 1
M  V30 26 1 24 1
M  V30 27 1 25 1
M  V30 28 1 26 3
M  V30 29 1 27 4
M  V30 30 1 28 6
M  V30 31 1 29 8
M  V30 32 1 30 8
M  V30 33 1 31 9
M  V30 34 1 32 10
M  V30 35 1 33 10
M  V30 36 1 34 11
M  V30 37 1 35 11
M  V30 38 1 12 36 CFG=3
M  V30 39 1 37 13
M  V30 40 1 38 13
M  V30 41 1 39 14
M  V30 42 1 40 14
M  V30 43 1 41 15
M  V30 44 1 42 15
M  V30 45 1 43 16
M  V30 46 1 44 16
M  V30 47 1 45 18
M  V30 48 1 46 22
M  V30 49 1 47 9
M  V30 END BOND
M  V30 END CTAB
M  END
>  <b_m_subgroup_collapsed>  (679) 
0

>  <r_i_docking_score>  (679) 
-7.9897254487232798

>  <s_m_subgroup_title>  (679) 
glide-dock_SP_D22_pv

>  <s_m_subgroupid>  (679) 
glide-dock_SP_D22_pv

>  <Molecule ChEMBL ID>  (679) 
CHEMBL5723004

>  <Standard Type>  (679) 
Ki

>  <Standard Value>  (679) 
10000.0

>  <label>  (679) 
0

$$$$
CHEMBL5905068
     RDKit          3D

  0  0  0  0  0  0  0  0  0  0999 V3000
M  V30 BEGIN CTAB
M  V30 COUNTS 57 61 0 0 1
M  V30 BEGIN ATOM
M  V30 1 C 12.557215 6.514833 -14.867123 0
M  V30 2 O 12.617568 5.217063 -15.441165 0
M  V30 3 C 11.543036 4.372271 -15.264195 0
M  V30 4 C 11.684408 3.058949 -15.771962 0
M  V30 5 C 10.646428 2.115339 -15.642309 0
M  V30 6 C 9.476099 2.519972 -14.988410 0
M  V30 7 O 8.298654 1.841748 -14.741133 0
M  V30 8 N 7.392636 2.699652 -14.067264 0
M  V30 9 C 8.006023 3.862980 -13.846581 0
M  V30 10 C 7.205593 4.919737 -13.105426 0 CFG=1
M  V30 11 C 6.882055 4.530629 -11.667144 0
M  V30 12 C 8.076611 4.746723 -10.718645 0
M  V30 13 N 8.486025 6.172580 -10.678823 0 CFG=1 CHG=1
M  V30 14 C 9.535628 6.420658 -9.652711 0
M  V30 15 C 9.502302 7.860189 -9.074140 0
M  V30 16 N 10.383390 8.044067 -7.901330 0
M  V30 17 C 11.427640 9.083698 -7.975101 0
M  V30 18 C 11.590069 9.863295 -6.642729 0
M  V30 19 C 11.678653 8.902104 -5.478611 0
M  V30 20 C 12.392193 9.209986 -4.303575 0
M  V30 21 C 12.485923 8.232740 -3.296328 0
M  V30 22 C 11.897580 6.976186 -3.525574 0
M  V30 23 N 11.204074 6.683641 -4.644418 0
M  V30 24 C 11.061412 7.639658 -5.589375 0
M  V30 25 C 10.142269 7.368784 -6.751271 0
M  V30 26 O 9.215584 6.572174 -6.633953 0
M  V30 27 C 8.875411 6.628104 -12.033141 0
M  V30 28 C 7.769543 6.349482 -13.082431 0
M  V30 29 C 9.294611 3.800988 -14.452543 0
M  V30 30 C 10.332152 4.750039 -14.618051 0
M  V30 31 H 13.499987 7.031218 -15.049105 0
M  V30 32 H 11.761757 7.111478 -15.315580 0
M  V30 33 H 12.411966 6.467563 -13.786448 0
M  V30 34 H 12.603531 2.773929 -16.263895 0
M  V30 35 H 10.747020 1.114454 -16.035555 0
M  V30 36 H 6.247998 4.972364 -13.626966 0
M  V30 37 H 6.050451 5.172673 -11.382037 0
M  V30 38 H 6.505762 3.510387 -11.601897 0
M  V30 39 H 8.932267 4.154489 -11.042412 0
M  V30 40 H 7.809897 4.399240 -9.721551 0
M  V30 41 H 10.521385 6.201727 -10.063848 0
M  V30 42 H 9.396317 5.690802 -8.858624 0
M  V30 43 H 8.487265 8.107972 -8.764542 0
M  V30 44 H 9.751365 8.572741 -9.860163 0
M  V30 45 H 11.243559 9.772948 -8.796869 0
M  V30 46 H 12.368281 8.584101 -8.212056 0
M  V30 47 H 10.737813 10.523090 -6.479798 0
M  V30 48 H 12.482738 10.489918 -6.646576 0
M  V30 49 H 12.866935 10.169755 -4.173736 0
M  V30 50 H 13.019053 8.433466 -2.379228 0
M  V30 51 H 11.970462 6.192100 -2.785916 0
M  V30 52 H 9.090598 7.696888 -12.011708 0
M  V30 53 H 9.805684 6.127142 -12.289830 0
M  V30 54 H 6.947909 7.035900 -12.869801 0
M  V30 55 H 8.086621 6.569885 -14.091021 0
M  V30 56 H 10.196431 5.760842 -14.284238 0
M  V30 57 H 7.656047 6.712110 -10.404490 0
M  V30 END ATOM
M  V30 BEGIN BOND
M  V30 1 1 2 1
M  V30 2 1 3 2
M  V30 3 1 4 3
M  V30 4 2 5 4
M  V30 5 1 6 5
M  V30 6 1 7 6
M  V30 7 1 8 7
M  V30 8 2 9 8
M  V30 9 1 10 9
M  V30 10 1 11 10
M  V30 11 1 12 11
M  V30 12 1 13 12
M  V30 13 1 14 13
M  V30 14 1 15 14
M  V30 15 1 16 15
M  V30 16 1 17 16
M  V30 17 1 18 17
M  V30 18 1 19 18
M  V30 19 2 20 19
M  V30 20 1 21 20
M  V30 21 2 22 21
M  V30 22 1 23 22
M  V30 23 1 24 19
M  V30 24 2 24 23
M  V30 25 1 25 16
M  V30 26 1 25 24
M  V30 27 2 26 25
M  V30 28 1 27 13
M  V30 29 1 28 10
M  V30 30 1 28 27
M  V30 31 2 29 6
M  V30 32 1 29 9
M  V30 33 2 30 3
M  V30 34 1 30 29
M  V30 35 1 31 1
M  V30 36 1 32 1
M  V30 37 1 33 1
M  V30 38 1 34 4
M  V30 39 1 35 5
M  V30 40 1 10 36 CFG=3
M  V30 41 1 37 11
M  V30 42 1 38 11
M  V30 43 1 39 12
M  V30 44 1 40 12
M  V30 45 1 41 14
M  V30 46 1 42 14
M  V30 47 1 43 15
M  V30 48 1 44 15
M  V30 49 1 45 17
M  V30 50 1 46 17
M  V30 51 1 47 18
M  V30 52 1 48 18
M  V30 53 1 49 20
M  V30 54 1 50 21
M  V30 55 1 51 22
M  V30 56 1 52 27
M  V30 57 1 53 27
M  V30 58 1 54 28
M  V30 59 1 55 28
M  V30 60 1 56 30
M  V30 61 1 13 57 CFG=1
M  V30 END BOND
M  V30 END CTAB
M  END
>  <b_m_subgroup_collapsed>  (680) 
0

>  <r_i_docking_score>  (680) 
-7.9893425202720803

>  <s_m_subgroup_title>  (680) 
glide-dock_SP_D22_pv

>  <s_m_subgroupid>  (680) 
glide-dock_SP_D22_pv

>  <Molecule ChEMBL ID>  (680) 
CHEMBL5905068

>  <Standard Type>  (680) 
Ki

>  <Standard Value>  (680) 
10000.0

>  <label>  (680) 
0

$$$$
CHEMBL6047884
     RDKit          3D

  0  0  0  0  0  0  0  0  0  0999 V3000
M  V30 BEGIN CTAB
M  V30 COUNTS 54 58 0 0 1
M  V30 BEGIN ATOM
M  V30 1 C 8.300129 1.136883 -16.005100 0
M  V30 2 C 9.342987 2.111181 -15.498254 0
M  V30 3 C 10.654516 2.088429 -16.007275 0
M  V30 4 C 11.586615 3.005312 -15.489132 0
M  V30 5 C 11.175391 3.896281 -14.478980 0
M  V30 6 C 9.831372 3.861774 -14.042250 0
M  V30 7 N 8.936374 2.978756 -14.548332 0
M  V30 8 C 9.347842 4.813998 -12.975839 0
M  V30 9 O 8.251502 4.639335 -12.440625 0
M  V30 10 N 10.145357 5.872104 -12.684624 0
M  V30 11 C 9.690901 6.934090 -11.777158 0
M  V30 12 C 9.776428 6.509701 -10.297752 0
M  V30 13 N 9.389860 7.606822 -9.407920 0
M  V30 14 C 9.001629 7.145968 -8.069036 0
M  V30 15 C 10.212306 6.614213 -7.267528 0
M  V30 16 N 11.288960 7.599013 -7.225083 0
M  V30 17 C 11.273559 8.500335 -6.150888 0
M  V30 18 N 11.051413 9.808032 -6.262544 0
M  V30 19 O 11.223748 10.359858 -4.964000 0
M  V30 20 C 11.640577 9.370805 -4.083412 0
M  V30 21 C 12.053671 9.417799 -2.746238 0
M  V30 22 C 12.435091 8.209731 -2.125177 0
M  V30 23 C 12.357941 6.989130 -2.836783 0
M  V30 24 C 11.951190 6.969477 -4.190501 0
M  V30 25 C 11.614284 8.187282 -4.820069 0
M  V30 26 C 11.649158 8.154301 -8.527267 0
M  V30 27 C 10.401466 8.660806 -9.278894 0
M  V30 28 C 11.448595 6.129833 -13.327794 0
M  V30 29 C 12.152211 4.872272 -13.860738 0
M  V30 30 H 8.444012 0.937102 -17.066374 0
M  V30 31 H 8.371146 0.193821 -15.463202 0
M  V30 32 H 7.293917 1.533336 -15.867535 0
M  V30 33 H 10.945077 1.383376 -16.772156 0
M  V30 34 H 12.604612 3.006884 -15.848112 0
M  V30 35 H 10.276416 7.834013 -11.957811 0
M  V30 36 H 8.662430 7.212783 -12.017838 0
M  V30 37 H 9.095712 5.673706 -10.135746 0
M  V30 38 H 10.771407 6.143203 -10.056813 0
M  V30 39 H 8.539722 7.977440 -7.531593 0
M  V30 40 H 8.230530 6.378803 -8.151139 0
M  V30 41 H 9.895656 6.359231 -6.255686 0
M  V30 42 H 10.588671 5.695606 -7.712960 0
M  V30 43 H 12.085397 10.358268 -2.220304 0
M  V30 44 H 12.764678 8.219182 -1.096013 0
M  V30 45 H 12.629916 6.063901 -2.348635 0
M  V30 46 H 11.925504 6.042141 -4.744584 0
M  V30 47 H 12.364509 8.968765 -8.407243 0
M  V30 48 H 12.173860 7.394501 -9.105697 0
M  V30 49 H 10.683372 9.059379 -10.251887 0
M  V30 50 H 9.950876 9.492959 -8.739334 0
M  V30 51 H 12.123110 6.648623 -12.645147 0
M  V30 52 H 11.284174 6.811516 -14.162295 0
M  V30 53 H 12.675754 4.365769 -13.050256 0
M  V30 54 H 12.915814 5.154024 -14.587079 0
M  V30 END ATOM
M  V30 BEGIN BOND
M  V30 1 1 2 1
M  V30 2 1 3 2
M  V30 3 2 4 3
M  V30 4 1 5 4
M  V30 5 2 6 5
M  V30 6 2 7 2
M  V30 7 1 7 6
M  V30 8 1 8 6
M  V30 9 2 9 8
M  V30 10 1 10 8
M  V30 11 1 11 10
M  V30 12 1 12 11
M  V30 13 1 13 12
M  V30 14 1 14 13
M  V30 15 1 15 14
M  V30 16 1 16 15
M  V30 17 1 17 16
M  V30 18 2 18 17
M  V30 19 1 19 18
M  V30 20 1 20 19
M  V30 21 2 21 20
M  V30 22 1 22 21
M  V30 23 2 23 22
M  V30 24 1 24 23
M  V30 25 1 25 17
M  V30 26 1 25 20
M  V30 27 2 25 24
M  V30 28 1 26 16
M  V30 29 1 27 13
M  V30 30 1 27 26
M  V30 31 1 28 10
M  V30 32 1 29 5
M  V30 33 1 29 28
M  V30 34 1 30 1
M  V30 35 1 31 1
M  V30 36 1 32 1
M  V30 37 1 33 3
M  V30 38 1 34 4
M  V30 39 1 35 11
M  V30 40 1 36 11
M  V30 41 1 37 12
M  V30 42 1 38 12
M  V30 43 1 39 14
M  V30 44 1 40 14
M  V30 45 1 41 15
M  V30 46 1 42 15
M  V30 47 1 43 21
M  V30 48 1 44 22
M  V30 49 1 45 23
M  V30 50 1 46 24
M  V30 51 1 47 26
M  V30 52 1 48 26
M  V30 53 1 49 27
M  V30 54 1 50 27
M  V30 55 1 51 28
M  V30 56 1 52 28
M  V30 57 1 53 29
M  V30 58 1 54 29
M  V30 END BOND
M  V30 END CTAB
M  END
>  <b_m_subgroup_collapsed>  (681) 
0

>  <r_i_docking_score>  (681) 
-7.9892521067669904

>  <s_m_subgroup_title>  (681) 
glide-dock_SP_D22_pv

>  <s_m_subgroupid>  (681) 
glide-dock_SP_D22_pv

>  <Molecule ChEMBL ID>  (681) 
CHEMBL6047884

>  <Standard Type>  (681) 
Ki

>  <Standard Value>  (681) 
10000.0

>  <label>  (681) 
0

$$$$
CHEMBL5764090
     RDKit          3D

  0  0  0  0  0  0  0  0  0  0999 V3000
M  V30 BEGIN CTAB
M  V30 COUNTS 52 56 0 0 1
M  V30 BEGIN ATOM
M  V30 1 C 11.741843 2.671167 -16.136148 0
M  V30 2 N 11.721197 3.805624 -15.236279 0
M  V30 3 N 12.740369 4.706974 -15.253486 0
M  V30 4 C 12.427939 5.621313 -14.340061 0
M  V30 5 C 11.202022 5.282578 -13.714154 0
M  V30 6 C 10.765888 4.148397 -14.301869 0
M  V30 7 C 9.487528 3.471032 -13.987988 0
M  V30 8 C 8.952207 3.976003 -12.624360 0
M  V30 9 N 9.274872 5.388258 -12.289798 0
M  V30 10 C 8.255803 6.081901 -11.497787 0
M  V30 11 C 8.343138 5.758805 -9.989771 0
M  V30 12 N 9.539956 6.248150 -9.307004 0
M  V30 13 C 9.592534 7.716175 -9.302817 0
M  V30 14 C 10.901319 8.166677 -8.630560 0
M  V30 15 N 10.962081 7.661665 -7.263160 0
M  V30 16 C 11.166760 8.523517 -6.171136 0
M  V30 17 N 10.976348 9.838393 -6.250617 0
M  V30 18 O 11.284905 10.380607 -4.977466 0
M  V30 19 C 11.685416 9.371819 -4.117338 0
M  V30 20 C 12.085770 9.408630 -2.775735 0
M  V30 21 C 12.446318 8.196903 -2.154260 0
M  V30 22 C 12.393764 6.987298 -2.884942 0
M  V30 23 C 11.989382 6.977509 -4.235903 0
M  V30 24 C 11.614458 8.193195 -4.861070 0
M  V30 25 C 10.655552 6.249942 -7.088746 0
M  V30 26 C 9.421116 5.831902 -7.906693 0
M  V30 27 C 10.424914 6.009835 -12.666554 0
M  V30 28 O 10.811950 7.100883 -12.249907 0
M  V30 29 H 11.459534 1.764429 -15.597115 0
M  V30 30 H 11.035515 2.837132 -16.951498 0
M  V30 31 H 12.742260 2.532795 -16.551205 0
M  V30 32 H 13.077311 6.467582 -14.173965 0
M  V30 33 H 8.763597 3.701478 -14.772583 0
M  V30 34 H 9.610593 2.387848 -13.972807 0
M  V30 35 H 9.425782 3.374579 -11.847228 0
M  V30 36 H 7.884525 3.771622 -12.553411 0
M  V30 37 H 8.272044 7.156452 -11.683531 0
M  V30 38 H 7.268126 5.783066 -11.852412 0
M  V30 39 H 7.472464 6.168511 -9.481337 0
M  V30 40 H 8.275832 4.676349 -9.862796 0
M  V30 41 H 9.580951 8.115001 -10.315222 0
M  V30 42 H 8.723906 8.137011 -8.793514 0
M  V30 43 H 11.750810 7.775001 -9.190065 0
M  V30 44 H 10.979290 9.251527 -8.676899 0
M  V30 45 H 12.098152 10.346769 -2.242659 0
M  V30 46 H 12.757534 8.193648 -1.119893 0
M  V30 47 H 12.678194 6.058546 -2.407501 0
M  V30 48 H 11.996924 6.041559 -4.768000 0
M  V30 49 H 11.526070 5.653907 -7.359879 0
M  V30 50 H 10.406107 6.046331 -6.053733 0
M  V30 51 H 8.524137 6.267196 -7.457718 0
M  V30 52 H 9.294885 4.747590 -7.848713 0
M  V30 END ATOM
M  V30 BEGIN BOND
M  V30 1 1 2 1
M  V30 2 1 3 2
M  V30 3 2 4 3
M  V30 4 1 5 4
M  V30 5 1 6 2
M  V30 6 2 6 5
M  V30 7 1 7 6
M  V30 8 1 8 7
M  V30 9 1 9 8
M  V30 10 1 10 9
M  V30 11 1 11 10
M  V30 12 1 12 11
M  V30 13 1 13 12
M  V30 14 1 14 13
M  V30 15 1 15 14
M  V30 16 1 16 15
M  V30 17 2 17 16
M  V30 18 1 18 17
M  V30 19 1 19 18
M  V30 20 2 20 19
M  V30 21 1 21 20
M  V30 22 2 22 21
M  V30 23 1 23 22
M  V30 24 1 24 16
M  V30 25 1 24 19
M  V30 26 2 24 23
M  V30 27 1 25 15
M  V30 28 1 26 12
M  V30 29 1 26 25
M  V30 30 1 27 5
M  V30 31 1 27 9
M  V30 32 2 28 27
M  V30 33 1 29 1
M  V30 34 1 30 1
M  V30 35 1 31 1
M  V30 36 1 32 4
M  V30 37 1 33 7
M  V30 38 1 34 7
M  V30 39 1 35 8
M  V30 40 1 36 8
M  V30 41 1 37 10
M  V30 42 1 38 10
M  V30 43 1 39 11
M  V30 44 1 40 11
M  V30 45 1 41 13
M  V30 46 1 42 13
M  V30 47 1 43 14
M  V30 48 1 44 14
M  V30 49 1 45 20
M  V30 50 1 46 21
M  V30 51 1 47 22
M  V30 52 1 48 23
M  V30 53 1 49 25
M  V30 54 1 50 25
M  V30 55 1 51 26
M  V30 56 1 52 26
M  V30 END BOND
M  V30 END CTAB
M  END
>  <b_m_subgroup_collapsed>  (682) 
0

>  <r_i_docking_score>  (682) 
-7.9865368022066603

>  <s_m_subgroup_title>  (682) 
glide-dock_SP_D22_pv

>  <s_m_subgroupid>  (682) 
glide-dock_SP_D22_pv

>  <Molecule ChEMBL ID>  (682) 
CHEMBL5764090

>  <Standard Type>  (682) 
Ki

>  <Standard Value>  (682) 
10000.0

>  <label>  (682) 
0

$$$$
CHEMBL282083
     RDKit          3D

  0  0  0  0  0  0  0  0  0  0999 V3000
M  V30 BEGIN CTAB
M  V30 COUNTS 57 60 0 0 1
M  V30 BEGIN ATOM
M  V30 1 C 11.893624 5.329395 -15.775486 0
M  V30 2 O 11.821391 4.373111 -14.728602 0
M  V30 3 C 10.632545 3.685051 -14.684057 0
M  V30 4 C 9.585130 4.100261 -13.815769 0
M  V30 5 C 9.733312 5.293217 -12.895867 0
M  V30 6 O 10.566916 6.172660 -13.100198 0
M  V30 7 N 8.941334 5.312554 -11.810383 0
M  V30 8 C 8.887780 6.385247 -10.817930 0
M  V30 9 C 10.220502 6.529772 -10.059831 0
M  V30 10 N 10.129710 7.439824 -8.923769 0
M  V30 11 C 9.551155 6.717360 -7.780729 0
M  V30 12 C 9.448643 7.628305 -6.549251 0
M  V30 13 N 10.734869 8.250832 -6.272099 0
M  V30 14 C 11.314586 8.203315 -5.002097 0
M  V30 15 C 11.524492 6.972125 -4.344380 0
M  V30 16 C 12.081815 6.943328 -3.049428 0
M  V30 17 C 12.428417 8.147173 -2.407402 0
M  V30 18 C 12.225843 9.372633 -3.065536 0
M  V30 19 C 11.686214 9.401812 -4.363004 0
M  V30 20 C 11.422548 8.878479 -7.385931 0
M  V30 21 C 11.480345 7.884284 -8.557107 0
M  V30 22 C 8.373929 3.371066 -13.825389 0
M  V30 23 C 8.225940 2.191700 -14.582566 0
M  V30 24 C 6.997478 1.421916 -14.400808 0
M  V30 25 N 6.028106 0.808837 -14.245890 0
M  V30 26 C 9.279109 1.756027 -15.426423 0
M  V30 27 C 9.173370 0.576840 -16.209183 0
M  V30 28 C 10.228992 0.167211 -17.042322 0
M  V30 29 C 11.407638 0.928152 -17.100384 0
M  V30 30 C 11.531423 2.089536 -16.320370 0
M  V30 31 C 10.477189 2.519041 -15.481476 0
M  V30 32 H 12.831116 5.879003 -15.696718 0
M  V30 33 H 11.863330 4.860490 -16.759274 0
M  V30 34 H 11.077910 6.052874 -15.722660 0
M  V30 35 H 8.305892 4.540695 -11.670888 0
M  V30 36 H 8.082586 6.144949 -10.128525 0
M  V30 37 H 8.613972 7.325833 -11.299701 0
M  V30 38 H 10.972143 6.909192 -10.753059 0
M  V30 39 H 10.555302 5.551297 -9.721498 0
M  V30 40 H 10.162216 5.846723 -7.537456 0
M  V30 41 H 8.555087 6.347209 -8.020344 0
M  V30 42 H 9.121177 7.038561 -5.696434 0
M  V30 43 H 8.699306 8.403874 -6.714613 0
M  V30 44 H 11.251081 6.046135 -4.827074 0
M  V30 45 H 12.231061 5.998031 -2.547753 0
M  V30 46 H 12.844577 8.131860 -1.410803 0
M  V30 47 H 12.485458 10.296135 -2.572867 0
M  V30 48 H 11.525010 10.349502 -4.856653 0
M  V30 49 H 10.885289 9.772465 -7.687459 0
M  V30 50 H 12.429905 9.179540 -7.098584 0
M  V30 51 H 12.085748 7.025428 -8.273005 0
M  V30 52 H 11.962711 8.364674 -9.410374 0
M  V30 53 H 7.551226 3.676873 -13.192546 0
M  V30 54 H 8.284312 -0.038320 -16.190048 0
M  V30 55 H 10.135551 -0.733057 -17.632704 0
M  V30 56 H 12.226759 0.611667 -17.731108 0
M  V30 57 H 12.462252 2.635146 -16.362524 0
M  V30 END ATOM
M  V30 BEGIN BOND
M  V30 1 1 2 1
M  V30 2 1 3 2
M  V30 3 2 4 3
M  V30 4 1 5 4
M  V30 5 2 6 5
M  V30 6 1 7 5
M  V30 7 1 8 7
M  V30 8 1 9 8
M  V30 9 1 10 9
M  V30 10 1 11 10
M  V30 11 1 12 11
M  V30 12 1 13 12
M  V30 13 1 14 13
M  V30 14 2 15 14
M  V30 15 1 16 15
M  V30 16 2 17 16
M  V30 17 1 18 17
M  V30 18 1 19 14
M  V30 19 2 19 18
M  V30 20 1 20 13
M  V30 21 1 21 10
M  V30 22 1 21 20
M  V30 23 1 22 4
M  V30 24 2 23 22
M  V30 25 1 24 23
M  V30 26 3 25 24
M  V30 27 1 26 23
M  V30 28 2 27 26
M  V30 29 1 28 27
M  V30 30 2 29 28
M  V30 31 1 30 29
M  V30 32 1 31 3
M  V30 33 1 31 26
M  V30 34 2 31 30
M  V30 35 1 32 1
M  V30 36 1 33 1
M  V30 37 1 34 1
M  V30 38 1 35 7
M  V30 39 1 36 8
M  V30 40 1 37 8
M  V30 41 1 38 9
M  V30 42 1 39 9
M  V30 43 1 40 11
M  V30 44 1 41 11
M  V30 45 1 42 12
M  V30 46 1 43 12
M  V30 47 1 44 15
M  V30 48 1 45 16
M  V30 49 1 46 17
M  V30 50 1 47 18
M  V30 51 1 48 19
M  V30 52 1 49 20
M  V30 53 1 50 20
M  V30 54 1 51 21
M  V30 55 1 52 21
M  V30 56 1 53 22
M  V30 57 1 54 27
M  V30 58 1 55 28
M  V30 59 1 56 29
M  V30 60 1 57 30
M  V30 END BOND
M  V30 END CTAB
M  END
>  <b_m_subgroup_collapsed>  (683) 
0

>  <r_i_docking_score>  (683) 
-7.9845084462604703

>  <s_m_subgroup_title>  (683) 
glide-dock_SP_D22_pv

>  <s_m_subgroupid>  (683) 
glide-dock_SP_D22_pv

>  <Molecule ChEMBL ID>  (683) 
CHEMBL282083

>  <Standard Type>  (683) 
Ki

>  <Standard Value>  (683) 
71.0

>  <label>  (683) 
1

$$$$
CHEMBL252539
     RDKit          3D

  0  0  0  0  0  0  0  0  0  0999 V3000
M  V30 BEGIN CTAB
M  V30 COUNTS 65 68 0 0 1
M  V30 BEGIN ATOM
M  V30 1 C 5.424551 8.202924 -12.729918 0
M  V30 2 C 5.889134 6.751431 -12.644556 0
M  V30 3 C 7.423583 6.621726 -12.647337 0
M  V30 4 N 7.910885 5.436640 -11.876652 0 CFG=2 CHG=1
M  V30 5 C 9.250590 5.627087 -11.245579 0
M  V30 6 C 9.430454 6.968912 -10.504902 0
M  V30 7 N 10.355863 6.848448 -9.388277 0
M  V30 8 C 9.610239 6.492170 -8.170307 0
M  V30 9 C 10.571153 6.327814 -6.978086 0
M  V30 10 N 11.410686 7.501969 -6.835979 0
M  V30 11 C 11.293249 8.343165 -5.723126 0
M  V30 12 C 10.886046 9.670445 -5.935198 0
M  V30 13 C 10.886013 10.572549 -4.871657 0
M  V30 14 C 11.339838 10.172367 -3.605781 0
M  V30 15 C 11.780826 8.878386 -3.378226 0
M  V30 16 Cl 12.482847 8.487569 -1.847758 0
M  V30 17 C 11.685861 7.944463 -4.416298 0
M  V30 18 Cl 12.085719 6.341024 -4.017226 0
M  V30 19 C 12.035323 8.024386 -8.047688 0
M  V30 20 C 10.998270 8.147277 -9.171988 0
M  V30 21 C 7.842942 4.125378 -12.603048 0 CFG=2
M  V30 22 C 8.446653 4.139031 -14.015124 0
M  V30 23 C 8.554628 2.722474 -14.604337 0
M  V30 24 C 7.323763 1.851095 -14.373112 0
M  V30 25 C 7.209120 0.604190 -15.034038 0
M  V30 26 O 8.182526 0.172357 -15.886992 0
M  V30 27 C 6.095400 -0.227029 -14.801467 0
M  V30 28 C 5.096639 0.171531 -13.896391 0
M  V30 29 C 5.225985 1.390306 -13.209669 0
M  V30 30 C 6.322013 2.236975 -13.446976 0
M  V30 31 C 6.425158 3.516882 -12.632786 0
M  V30 32 H 4.486055 8.354039 -12.209424 0
M  V30 33 H 6.116606 8.893831 -12.246959 0
M  V30 34 H 5.286240 8.511397 -13.764911 0
M  V30 35 H 5.415912 6.194288 -13.446590 0
M  V30 36 H 5.494630 6.329307 -11.719526 0
M  V30 37 H 7.800489 7.539598 -12.210928 0
M  V30 38 H 7.838086 6.652720 -13.649010 0
M  V30 39 H 9.397524 4.805139 -10.542766 0
M  V30 40 H 10.040024 5.529656 -11.991576 0
M  V30 41 H 9.799850 7.699930 -11.226422 0
M  V30 42 H 8.486130 7.358301 -10.130106 0
M  V30 43 H 8.867923 7.259848 -7.939985 0
M  V30 44 H 9.060876 5.562433 -8.321600 0
M  V30 45 H 9.999317 6.171150 -6.063014 0
M  V30 46 H 11.220245 5.466839 -7.126130 0
M  V30 47 H 10.577683 10.007666 -6.912402 0
M  V30 48 H 10.584302 11.586925 -5.046513 0
M  V30 49 H 11.422749 10.891503 -2.807566 0
M  V30 50 H 12.506776 8.990253 -7.865882 0
M  V30 51 H 12.849691 7.372356 -8.348905 0
M  V30 52 H 11.504458 8.472608 -10.081846 0
M  V30 53 H 10.251426 8.905794 -8.932085 0
M  V30 54 H 8.463762 3.423259 -12.045300 0
M  V30 55 H 9.425350 4.618011 -14.037143 0
M  V30 56 H 7.794120 4.730901 -14.646866 0
M  V30 57 H 9.404099 2.207722 -14.153060 0
M  V30 58 H 8.762489 2.785628 -15.673120 0
M  V30 59 H 8.083178 -0.749201 -16.090462 0
M  V30 60 H 6.005975 -1.176734 -15.310101 0
M  V30 61 H 4.239867 -0.463389 -13.727783 0
M  V30 62 H 4.486063 1.691311 -12.488611 0
M  V30 63 H 5.698123 4.181237 -13.081411 0
M  V30 64 H 6.086990 3.330186 -11.612281 0
M  V30 65 H 7.281826 5.367855 -11.085616 0
M  V30 END ATOM
M  V30 BEGIN BOND
M  V30 1 1 2 1
M  V30 2 1 3 2
M  V30 3 1 4 3
M  V30 4 1 5 4
M  V30 5 1 6 5
M  V30 6 1 7 6
M  V30 7 1 8 7
M  V30 8 1 9 8
M  V30 9 1 10 9
M  V30 10 1 11 10
M  V30 11 2 12 11
M  V30 12 1 13 12
M  V30 13 2 14 13
M  V30 14 1 15 14
M  V30 15 1 16 15
M  V30 16 1 17 11
M  V30 17 2 17 15
M  V30 18 1 18 17
M  V30 19 1 19 10
M  V30 20 1 20 7
M  V30 21 1 20 19
M  V30 22 1 21 4
M  V30 23 1 22 21
M  V30 24 1 23 22
M  V30 25 1 24 23
M  V30 26 2 25 24
M  V30 27 1 26 25
M  V30 28 1 27 25
M  V30 29 2 28 27
M  V30 30 1 29 28
M  V30 31 1 30 24
M  V30 32 2 30 29
M  V30 33 1 31 21
M  V30 34 1 31 30
M  V30 35 1 32 1
M  V30 36 1 33 1
M  V30 37 1 34 1
M  V30 38 1 35 2
M  V30 39 1 36 2
M  V30 40 1 37 3
M  V30 41 1 38 3
M  V30 42 1 39 5
M  V30 43 1 40 5
M  V30 44 1 41 6
M  V30 45 1 42 6
M  V30 46 1 43 8
M  V30 47 1 44 8
M  V30 48 1 45 9
M  V30 49 1 46 9
M  V30 50 1 47 12
M  V30 51 1 48 13
M  V30 52 1 49 14
M  V30 53 1 50 19
M  V30 54 1 51 19
M  V30 55 1 52 20
M  V30 56 1 53 20
M  V30 57 1 21 54 CFG=1
M  V30 58 1 55 22
M  V30 59 1 56 22
M  V30 60 1 57 23
M  V30 61 1 58 23
M  V30 62 1 59 26
M  V30 63 1 60 27
M  V30 64 1 61 28
M  V30 65 1 62 29
M  V30 66 1 63 31
M  V30 67 1 64 31
M  V30 68 1 4 65 CFG=1
M  V30 END BOND
M  V30 END CTAB
M  END
>  <b_m_subgroup_collapsed>  (684) 
0

>  <r_i_docking_score>  (684) 
-7.9842565858498604

>  <s_m_subgroup_title>  (684) 
glide-dock_SP_D22_pv

>  <s_m_subgroupid>  (684) 
glide-dock_SP_D22_pv

>  <Molecule ChEMBL ID>  (684) 
CHEMBL252539

>  <Standard Type>  (684) 
Ki

>  <Standard Value>  (684) 
14.6

>  <label>  (684) 
1

$$$$
CHEMBL11388
     RDKit          3D

  0  0  0  0  0  0  0  0  0  0999 V3000
M  V30 BEGIN CTAB
M  V30 COUNTS 42 44 0 0 1
M  V30 BEGIN ATOM
M  V30 1 C 8.554585 6.475001 -12.840022 0
M  V30 2 C 8.672633 7.827817 -12.110841 0
M  V30 3 C 9.519825 7.820208 -10.827864 0
M  V30 4 N 8.886060 7.091726 -9.695880 0 CFG=1 CHG=1
M  V30 5 C 8.949034 5.610422 -9.833921 0
M  V30 6 C 9.608408 5.056182 -8.566314 0
M  V30 7 C 10.410003 6.249172 -8.062341 0 CFG=2
M  V30 8 C 10.872821 6.226980 -6.600279 0
M  V30 9 C 11.082027 7.597893 -5.972620 0
M  V30 10 C 10.728667 8.781543 -6.672660 0
M  V30 11 C 10.886060 10.023621 -6.036717 0
M  V30 12 C 11.286012 10.082367 -4.697561 0
M  V30 13 C 11.674770 8.928143 -4.012568 0
M  V30 14 C 11.583984 7.669315 -4.647772 0
M  V30 15 O 11.914297 6.492867 -4.013908 0
M  V30 16 C 12.431622 6.569497 -2.694392 0
M  V30 17 C 10.134108 8.732642 -8.077012 0
M  V30 18 C 9.442184 7.383592 -8.342214 0 CFG=1
M  V30 19 H 8.085795 6.573184 -13.817300 0
M  V30 20 H 7.941106 5.763948 -12.286863 0
M  V30 21 H 9.535275 6.029298 -13.007486 0
M  V30 22 H 9.115472 8.571851 -12.771136 0
M  V30 23 H 7.685948 8.223418 -11.895240 0
M  V30 24 H 10.527054 7.447162 -11.016788 0
M  V30 25 H 9.623072 8.870075 -10.563594 0
M  V30 26 H 7.952438 5.195117 -9.986829 0
M  V30 27 H 9.564157 5.317094 -10.683043 0
M  V30 28 H 8.838849 4.777102 -7.847071 0
M  V30 29 H 10.221302 4.175826 -8.761058 0
M  V30 30 H 11.284921 6.395954 -8.695639 0
M  V30 31 H 10.094318 5.772511 -5.998118 0
M  V30 32 H 11.781960 5.633351 -6.498949 0
M  V30 33 H 10.620592 10.937444 -6.543785 0
M  V30 34 H 11.285905 11.015576 -4.177015 0
M  V30 35 H 11.990232 9.040475 -2.986708 0
M  V30 36 H 12.781433 5.591354 -2.372460 0
M  V30 37 H 11.667473 6.901288 -1.990630 0
M  V30 38 H 13.284324 7.243837 -2.648700 0
M  V30 39 H 9.406919 9.534848 -8.197752 0
M  V30 40 H 10.955379 8.914505 -8.771478 0
M  V30 41 H 8.600226 7.298553 -7.651408 0
M  V30 42 H 7.898215 7.373156 -9.719457 0
M  V30 END ATOM
M  V30 BEGIN BOND
M  V30 1 1 2 1
M  V30 2 1 3 2
M  V30 3 1 4 3
M  V30 4 1 5 4
M  V30 5 1 6 5
M  V30 6 1 7 6
M  V30 7 1 8 7
M  V30 8 1 9 8
M  V30 9 2 10 9
M  V30 10 1 11 10
M  V30 11 2 12 11
M  V30 12 1 13 12
M  V30 13 1 14 9
M  V30 14 2 14 13
M  V30 15 1 15 14
M  V30 16 1 16 15
M  V30 17 1 17 10
M  V30 18 1 18 4
M  V30 19 1 18 7
M  V30 20 1 18 17
M  V30 21 1 19 1
M  V30 22 1 20 1
M  V30 23 1 21 1
M  V30 24 1 22 2
M  V30 25 1 23 2
M  V30 26 1 24 3
M  V30 27 1 25 3
M  V30 28 1 26 5
M  V30 29 1 27 5
M  V30 30 1 28 6
M  V30 31 1 29 6
M  V30 32 1 7 30 CFG=3
M  V30 33 1 31 8
M  V30 34 1 32 8
M  V30 35 1 33 11
M  V30 36 1 34 12
M  V30 37 1 35 13
M  V30 38 1 36 16
M  V30 39 1 37 16
M  V30 40 1 38 16
M  V30 41 1 39 17
M  V30 42 1 40 17
M  V30 43 1 18 41 CFG=1
M  V30 44 1 4 42 CFG=1
M  V30 END BOND
M  V30 END CTAB
M  END
>  <b_m_subgroup_collapsed>  (685) 
0

>  <r_i_docking_score>  (685) 
-7.98359554673387

>  <s_m_subgroup_title>  (685) 
glide-dock_SP_D22_pv

>  <s_m_subgroupid>  (685) 
glide-dock_SP_D22_pv

>  <Molecule ChEMBL ID>  (685) 
CHEMBL11388

>  <Standard Type>  (685) 
Ki

>  <Standard Value>  (685) 
75.0

>  <label>  (685) 
1

$$$$
CHEMBL383102
     RDKit          3D

  0  0  0  0  0  0  0  0  0  0999 V3000
M  V30 BEGIN CTAB
M  V30 COUNTS 43 47 0 0 1
M  V30 BEGIN ATOM
M  V30 1 C 11.628918 5.450221 -14.923925 0
M  V30 2 C 10.372718 4.830746 -14.775184 0
M  V30 3 C 9.577738 5.110849 -13.648885 0
M  V30 4 C 10.028114 6.001336 -12.646651 0
M  V30 5 C 9.142354 6.244884 -11.415647 0 CFG=1
M  V30 6 C 8.719534 4.915997 -10.739792 0
M  V30 7 C 9.127625 5.005805 -9.259435 0
M  V30 8 C 9.214258 6.512493 -9.060053 0 CFG=1
M  V30 9 C 10.019368 7.067880 -7.934098 0
M  V30 10 N 10.078444 6.572397 -6.650469 0
M  V30 11 C 10.881655 7.371359 -5.866275 0
M  V30 12 C 11.290796 7.253758 -4.528980 0
M  V30 13 C 12.085934 8.259967 -3.954454 0
M  V30 14 C 12.474858 9.368590 -4.730669 0
M  V30 15 C 12.082797 9.464289 -6.082935 0
M  V30 16 C 11.285985 8.463574 -6.695506 0
M  V30 17 C 10.756798 8.219552 -8.015288 0
M  V30 18 C 10.924513 8.949757 -9.327096 0
M  V30 19 C 9.868226 8.475620 -10.367390 0
M  V30 20 N 9.800712 6.990536 -10.323066 0 CFG=2 CHG=1
M  V30 21 C 11.290089 6.625436 -12.813989 0
M  V30 22 C 12.083913 6.351449 -13.943624 0
M  V30 23 H 12.239707 5.237281 -15.788942 0
M  V30 24 H 10.017966 4.143252 -15.530361 0
M  V30 25 H 8.614524 4.628169 -13.553073 0
M  V30 26 H 8.249161 6.791550 -11.725181 0
M  V30 27 H 7.640985 4.783907 -10.832046 0
M  V30 28 H 9.185607 4.042181 -11.195533 0
M  V30 29 H 8.419008 4.524670 -8.586190 0
M  V30 30 H 10.104061 4.543978 -9.115866 0
M  V30 31 H 8.197796 6.898737 -8.983817 0
M  V30 32 H 9.598947 5.736136 -6.345116 0
M  V30 33 H 10.984317 6.400389 -3.940876 0
M  V30 34 H 12.402617 8.187332 -2.921730 0
M  V30 35 H 13.099401 10.136012 -4.295737 0
M  V30 36 H 12.417280 10.318358 -6.647607 0
M  V30 37 H 10.885771 10.026976 -9.198355 0
M  V30 38 H 11.921721 8.746186 -9.717845 0
M  V30 39 H 8.882475 8.887772 -10.137855 0
M  V30 40 H 10.125534 8.829801 -11.364187 0
M  V30 41 H 11.688661 7.311393 -12.084416 0
M  V30 42 H 13.047732 6.828268 -14.058081 0
M  V30 43 H 10.753124 6.661624 -10.313287 0
M  V30 END ATOM
M  V30 BEGIN BOND
M  V30 1 2 2 1
M  V30 2 1 3 2
M  V30 3 2 4 3
M  V30 4 1 5 4
M  V30 5 1 6 5
M  V30 6 1 7 6
M  V30 7 1 8 7
M  V30 8 1 9 8
M  V30 9 1 10 9
M  V30 10 1 11 10
M  V30 11 2 12 11
M  V30 12 1 13 12
M  V30 13 2 14 13
M  V30 14 1 15 14
M  V30 15 1 16 11
M  V30 16 2 16 15
M  V30 17 2 17 9
M  V30 18 1 17 16
M  V30 19 1 18 17
M  V30 20 1 19 18
M  V30 21 1 20 5
M  V30 22 1 20 8
M  V30 23 1 20 19
M  V30 24 1 21 4
M  V30 25 1 22 1
M  V30 26 2 22 21
M  V30 27 1 23 1
M  V30 28 1 24 2
M  V30 29 1 25 3
M  V30 30 1 5 26 CFG=3
M  V30 31 1 27 6
M  V30 32 1 28 6
M  V30 33 1 29 7
M  V30 34 1 30 7
M  V30 35 1 8 31 CFG=1
M  V30 36 1 32 10
M  V30 37 1 33 12
M  V30 38 1 34 13
M  V30 39 1 35 14
M  V30 40 1 36 15
M  V30 41 1 37 18
M  V30 42 1 38 18
M  V30 43 1 39 19
M  V30 44 1 40 19
M  V30 45 1 41 21
M  V30 46 1 42 22
M  V30 47 1 20 43 CFG=1
M  V30 END BOND
M  V30 END CTAB
M  END
>  <b_m_subgroup_collapsed>  (686) 
0

>  <r_i_docking_score>  (686) 
-7.9822459758445801

>  <s_m_subgroup_title>  (686) 
glide-dock_SP_D22_pv

>  <s_m_subgroupid>  (686) 
glide-dock_SP_D22_pv

>  <Molecule ChEMBL ID>  (686) 
CHEMBL383102

>  <Standard Type>  (686) 
Ki

>  <Standard Value>  (686) 
10000.0

>  <label>  (686) 
0

$$$$
CHEMBL4443848
     RDKit          3D

  0  0  0  0  0  0  0  0  0  0999 V3000
M  V30 BEGIN CTAB
M  V30 COUNTS 49 51 0 0 1
M  V30 BEGIN ATOM
M  V30 1 C 9.044848 0.895287 -14.665453 0
M  V30 2 C 8.037067 1.863203 -15.295713 0
M  V30 3 C 7.298915 2.674548 -14.247005 0
M  V30 4 C 6.086085 2.199223 -13.711952 0
M  V30 5 C 5.413844 2.940391 -12.723768 0
M  V30 6 C 5.954026 4.154933 -12.258515 0
M  V30 7 C 7.179779 4.629964 -12.765442 0
M  V30 8 N 7.678780 5.853144 -12.237329 0
M  V30 9 C 8.965269 6.241154 -12.151877 0
M  V30 10 O 9.925879 5.588742 -12.557737 0
M  V30 11 C 9.236553 7.582282 -11.470271 0
M  V30 12 N 9.285911 7.489787 -9.986363 0 CHG=1
M  V30 13 C 9.330134 8.834051 -9.365710 0
M  V30 14 C 9.304657 8.763459 -7.832472 0
M  V30 15 N 10.342567 7.864741 -7.329993 0
M  V30 16 C 10.807333 8.046883 -6.007525 0
M  V30 17 C 11.196526 6.953361 -5.197894 0
M  V30 18 C 11.695403 7.187156 -3.904641 0
M  V30 19 C 11.823481 8.511579 -3.458973 0
M  V30 20 Cl 12.486236 8.850777 -1.902467 0
M  V30 21 C 11.390319 9.542476 -4.313497 0
M  V30 22 N 10.889141 9.320012 -5.549167 0
M  V30 23 C 10.351090 6.530318 -7.924988 0
M  V30 24 C 10.357549 6.599783 -9.461136 0
M  V30 25 C 7.840470 3.890296 -13.779892 0
M  V30 26 H 9.558936 0.312515 -15.429626 0
M  V30 27 H 9.800042 1.434634 -14.092640 0
M  V30 28 H 8.550945 0.196919 -13.988395 0
M  V30 29 H 7.313722 1.308439 -15.893062 0
M  V30 30 H 8.547473 2.539649 -15.980758 0
M  V30 31 H 5.666782 1.264890 -14.058888 0
M  V30 32 H 4.486311 2.567436 -12.320965 0
M  V30 33 H 5.431443 4.707562 -11.490650 0
M  V30 34 H 7.000387 6.435989 -11.757277 0
M  V30 35 H 8.456030 8.284290 -11.768593 0
M  V30 36 H 10.177467 7.990477 -11.842742 0
M  V30 37 H 8.479793 9.420425 -9.713778 0
M  V30 38 H 10.233347 9.354184 -9.691397 0
M  V30 39 H 8.333838 8.413775 -7.479116 0
M  V30 40 H 9.434104 9.772177 -7.452717 0
M  V30 41 H 11.116076 5.930069 -5.525373 0
M  V30 42 H 11.996339 6.360559 -3.278627 0
M  V30 43 H 11.438658 10.572130 -3.995519 0
M  V30 44 H 11.234109 5.967775 -7.620543 0
M  V30 45 H 9.476599 5.979233 -7.571929 0
M  V30 46 H 10.244444 5.585332 -9.845511 0
M  V30 47 H 11.325511 6.967068 -9.808593 0
M  V30 48 H 8.769598 4.237291 -14.205605 0
M  V30 49 H 8.387926 7.102714 -9.708006 0
M  V30 END ATOM
M  V30 BEGIN BOND
M  V30 1 1 2 1
M  V30 2 1 3 2
M  V30 3 1 4 3
M  V30 4 2 5 4
M  V30 5 1 6 5
M  V30 6 2 7 6
M  V30 7 1 8 7
M  V30 8 1 9 8
M  V30 9 2 10 9
M  V30 10 1 11 9
M  V30 11 1 12 11
M  V30 12 1 13 12
M  V30 13 1 14 13
M  V30 14 1 15 14
M  V30 15 1 16 15
M  V30 16 1 17 16
M  V30 17 2 18 17
M  V30 18 1 19 18
M  V30 19 1 20 19
M  V30 20 2 21 19
M  V30 21 2 22 16
M  V30 22 1 22 21
M  V30 23 1 23 15
M  V30 24 1 24 12
M  V30 25 1 24 23
M  V30 26 2 25 3
M  V30 27 1 25 7
M  V30 28 1 26 1
M  V30 29 1 27 1
M  V30 30 1 28 1
M  V30 31 1 29 2
M  V30 32 1 30 2
M  V30 33 1 31 4
M  V30 34 1 32 5
M  V30 35 1 33 6
M  V30 36 1 34 8
M  V30 37 1 35 11
M  V30 38 1 36 11
M  V30 39 1 37 13
M  V30 40 1 38 13
M  V30 41 1 39 14
M  V30 42 1 40 14
M  V30 43 1 41 17
M  V30 44 1 42 18
M  V30 45 1 43 21
M  V30 46 1 44 23
M  V30 47 1 45 23
M  V30 48 1 46 24
M  V30 49 1 47 24
M  V30 50 1 48 25
M  V30 51 1 49 12
M  V30 END BOND
M  V30 END CTAB
M  END
>  <b_m_subgroup_collapsed>  (687) 
0

>  <r_i_docking_score>  (687) 
-7.9811408885109003

>  <s_m_subgroup_title>  (687) 
glide-dock_SP_D22_pv

>  <s_m_subgroupid>  (687) 
glide-dock_SP_D22_pv

>  <Molecule ChEMBL ID>  (687) 
CHEMBL4443848

>  <Standard Type>  (687) 
Ki

>  <Standard Value>  (687) 
46260.0

>  <label>  (687) 
0

$$$$
CHEMBL494702
     RDKit          3D

  0  0  0  0  0  0  0  0  0  0999 V3000
M  V30 BEGIN CTAB
M  V30 COUNTS 61 64 0 0 1
M  V30 BEGIN ATOM
M  V30 1 C 3.821711 -1.704914 -17.328455 0
M  V30 2 C 4.867981 -2.160860 -16.302511 0
M  V30 3 O 5.680677 -1.065076 -15.903878 0
M  V30 4 C 5.367094 -0.331635 -14.823470 0
M  V30 5 O 4.397085 -0.532300 -14.091124 0
M  V30 6 C 6.277268 0.797109 -14.624434 0
M  V30 7 O 5.818965 1.826141 -13.846549 0
M  V30 8 C 6.783823 2.772330 -13.847025 0
M  V30 9 C 7.864390 2.367265 -14.569310 0
M  V30 10 C 7.541414 1.078705 -15.097498 0
M  V30 11 C 8.435051 0.223570 -15.963187 0
M  V30 12 C 9.047382 3.256257 -14.622561 0
M  V30 13 O 10.114511 2.933127 -15.136724 0
M  V30 14 C 8.876039 4.656434 -14.005132 0
M  V30 15 C 7.928533 4.679770 -12.773885 0 CFG=1
M  V30 16 C 7.761116 6.097867 -12.199339 0
M  V30 17 N 8.908630 6.470578 -11.334979 0 CFG=2 CHG=1
M  V30 18 C 8.785599 5.895072 -9.968447 0
M  V30 19 C 9.992644 6.225704 -9.086587 0
M  V30 20 C 10.264617 7.738661 -9.013511 0 CFG=1
M  V30 21 C 11.533843 8.040181 -8.196788 0
M  V30 22 O 12.614315 8.174141 -8.768584 0
M  V30 23 C 11.425254 8.121910 -6.725564 0
M  V30 24 C 11.165446 6.958486 -5.969430 0
M  V30 25 C 11.287305 6.967000 -4.570503 0
M  V30 26 C 11.687011 8.138084 -3.908895 0
M  V30 27 F 11.837054 8.136442 -2.564096 0
M  V30 28 C 11.937625 9.303184 -4.649454 0
M  V30 29 C 11.809944 9.303647 -6.053599 0
M  V30 30 C 10.400440 8.281976 -10.455826 0
M  V30 31 C 9.182150 7.935748 -11.328119 0
M  V30 32 C 6.567710 4.019081 -13.069363 0
M  V30 33 H 3.270270 -2.563160 -17.716698 0
M  V30 34 H 3.100546 -1.017978 -16.883327 0
M  V30 35 H 4.292237 -1.203559 -18.177099 0
M  V30 36 H 5.512181 -2.917669 -16.752180 0
M  V30 37 H 4.379820 -2.629647 -15.446854 0
M  V30 38 H 9.304383 0.778112 -16.316034 0
M  V30 39 H 8.796388 -0.627543 -15.386298 0
M  V30 40 H 7.899813 -0.142166 -16.840746 0
M  V30 41 H 8.493289 5.319794 -14.782213 0
M  V30 42 H 9.862145 5.033749 -13.727722 0
M  V30 43 H 8.392389 4.040076 -12.024098 0
M  V30 44 H 6.839519 6.165797 -11.618745 0
M  V30 45 H 7.647668 6.806516 -13.021048 0
M  V30 46 H 8.695712 4.812364 -10.021710 0
M  V30 47 H 7.873708 6.230447 -9.479597 0
M  V30 48 H 10.884955 5.715065 -9.446298 0
M  V30 49 H 9.773055 5.819464 -8.105082 0
M  V30 50 H 9.421955 8.231511 -8.525199 0
M  V30 51 H 10.951412 6.014810 -6.441568 0
M  V30 52 H 11.107594 6.062467 -4.005518 0
M  V30 53 H 12.271965 10.171485 -4.115983 0
M  V30 54 H 12.064548 10.190317 -6.614925 0
M  V30 55 H 10.541825 9.361191 -10.424409 0
M  V30 56 H 11.294235 7.872203 -10.931627 0
M  V30 57 H 9.381942 8.264157 -12.347790 0
M  V30 58 H 8.320460 8.512965 -11.004941 0
M  V30 59 H 6.033162 3.802771 -12.142303 0
M  V30 60 H 5.935954 4.692929 -13.649554 0
M  V30 61 H 9.724220 6.048785 -11.753729 0
M  V30 END ATOM
M  V30 BEGIN BOND
M  V30 1 1 2 1
M  V30 2 1 3 2
M  V30 3 1 4 3
M  V30 4 2 5 4
M  V30 5 1 6 4
M  V30 6 1 7 6
M  V30 7 1 8 7
M  V30 8 2 9 8
M  V30 9 2 10 6
M  V30 10 1 10 9
M  V30 11 1 11 10
M  V30 12 1 12 9
M  V30 13 2 13 12
M  V30 14 1 14 12
M  V30 15 1 15 14
M  V30 16 1 16 15
M  V30 17 1 17 16
M  V30 18 1 18 17
M  V30 19 1 19 18
M  V30 20 1 20 19
M  V30 21 1 21 20
M  V30 22 2 22 21
M  V30 23 1 23 21
M  V30 24 1 24 23
M  V30 25 2 25 24
M  V30 26 1 26 25
M  V30 27 1 27 26
M  V30 28 2 28 26
M  V30 29 2 29 23
M  V30 30 1 29 28
M  V30 31 1 30 20
M  V30 32 1 31 17
M  V30 33 1 31 30
M  V30 34 1 32 8
M  V30 35 1 32 15
M  V30 36 1 33 1
M  V30 37 1 34 1
M  V30 38 1 35 1
M  V30 39 1 36 2
M  V30 40 1 37 2
M  V30 41 1 38 11
M  V30 42 1 39 11
M  V30 43 1 40 11
M  V30 44 1 41 14
M  V30 45 1 42 14
M  V30 46 1 15 43 CFG=1
M  V30 47 1 44 16
M  V30 48 1 45 16
M  V30 49 1 46 18
M  V30 50 1 47 18
M  V30 51 1 48 19
M  V30 52 1 49 19
M  V30 53 1 20 50 CFG=1
M  V30 54 1 51 24
M  V30 55 1 52 25
M  V30 56 1 53 28
M  V30 57 1 54 29
M  V30 58 1 55 30
M  V30 59 1 56 30
M  V30 60 1 57 31
M  V30 61 1 58 31
M  V30 62 1 59 32
M  V30 63 1 60 32
M  V30 64 1 17 61 CFG=3
M  V30 END BOND
M  V30 END CTAB
M  END
>  <b_m_subgroup_collapsed>  (688) 
0

>  <r_i_docking_score>  (688) 
-7.9803835692986

>  <s_m_subgroup_title>  (688) 
glide-dock_SP_D22_pv

>  <s_m_subgroupid>  (688) 
glide-dock_SP_D22_pv

>  <Molecule ChEMBL ID>  (688) 
CHEMBL494702

>  <Standard Type>  (688) 
Ki

>  <Standard Value>  (688) 
10000.0

>  <label>  (688) 
0

$$$$
CHEMBL3765266
     RDKit          3D

  0  0  0  0  0  0  0  0  0  0999 V3000
M  V30 BEGIN CTAB
M  V30 COUNTS 65 69 0 0 1
M  V30 BEGIN ATOM
M  V30 1 C 12.726841 8.484513 -1.448492 0
M  V30 2 C 12.170729 8.780719 -2.792782 0
M  V30 3 N 12.087065 7.946724 -3.824686 0
M  V30 4 C 11.537899 8.775336 -4.752980 0
M  V30 5 C 11.234586 8.324677 -6.114582 0
M  V30 6 C 10.892685 6.980093 -6.379603 0
M  V30 7 C 10.593308 6.567658 -7.690224 0
M  V30 8 C 10.633486 7.493865 -8.751086 0
M  V30 9 C 10.326086 7.086822 -10.113395 0
M  V30 10 N 11.083807 7.471987 -11.144643 0
M  V30 11 N 10.503530 6.927895 -12.259128 0
M  V30 12 C 9.435115 6.261193 -11.819333 0
M  V30 13 S 8.319263 5.376329 -12.856494 0
M  V30 14 C 9.448248 4.091558 -13.452508 0
M  V30 15 C 10.272871 4.566049 -14.659125 0
M  V30 16 C 11.348175 3.583629 -15.154288 0
M  V30 17 N 10.846363 2.522384 -16.025339 0
M  V30 18 C 10.405168 1.339967 -15.287277 0
M  V30 19 C 9.848771 0.263609 -16.228151 0
M  V30 20 O 10.834173 -0.076103 -17.197416 0
M  V30 21 C 11.294037 1.039301 -17.963587 0 CFG=2
M  V30 22 C 12.326342 0.628212 -19.002256 0
M  V30 23 C 12.805054 -0.695690 -19.047003 0
M  V30 24 C 13.747545 -1.082052 -20.015297 0
M  V30 25 C 14.240149 -0.142328 -20.944160 0
M  V30 26 C 15.289759 -0.545504 -21.965294 0
M  V30 27 F 16.485722 -0.193872 -21.503347 0
M  V30 28 F 15.286043 -1.861369 -22.184315 0
M  V30 29 F 15.079348 0.073514 -23.126890 0
M  V30 30 C 13.771605 1.186594 -20.893208 0
M  V30 31 C 12.812315 1.569630 -19.934736 0
M  V30 32 C 11.846317 2.107186 -17.000362 0
M  V30 33 N 9.281742 6.318976 -10.487324 0
M  V30 34 C 8.221754 5.735415 -9.686988 0
M  V30 35 C 10.984070 8.832058 -8.494809 0
M  V30 36 C 11.280640 9.240969 -7.185515 0
M  V30 37 N 11.268029 10.016002 -4.375518 0
M  V30 38 O 11.686032 10.021910 -3.042182 0
M  V30 39 H 12.885488 7.411876 -1.343058 0
M  V30 40 H 13.684730 8.985891 -1.322357 0
M  V30 41 H 12.038560 8.827537 -0.677763 0
M  V30 42 H 10.855437 6.258011 -5.576385 0
M  V30 43 H 10.341831 5.534311 -7.876099 0
M  V30 44 H 10.089432 3.758216 -12.636201 0
M  V30 45 H 8.817226 3.251278 -13.730896 0
M  V30 46 H 9.605782 4.830410 -15.480522 0
M  V30 47 H 10.784284 5.489472 -14.394722 0
M  V30 48 H 12.063802 4.185886 -15.716377 0
M  V30 49 H 11.917795 3.169562 -14.321836 0
M  V30 50 H 11.241272 0.928041 -14.720348 0
M  V30 51 H 9.640792 1.589228 -14.558636 0
M  V30 52 H 9.579810 -0.627706 -15.663151 0
M  V30 53 H 8.945436 0.615005 -16.726389 0
M  V30 54 H 10.441124 1.448260 -18.509939 0
M  V30 55 H 12.448449 -1.426986 -18.339489 0
M  V30 56 H 14.087097 -2.106863 -20.032391 0
M  V30 57 H 14.145827 1.915922 -21.596790 0
M  V30 58 H 12.456148 2.589008 -19.918648 0
M  V30 59 H 12.174398 2.974425 -17.574434 0
M  V30 60 H 12.730222 1.725654 -16.489851 0
M  V30 61 H 7.286383 5.772341 -10.245906 0
M  V30 62 H 8.459244 4.698182 -9.450381 0
M  V30 63 H 8.085378 6.298177 -8.766226 0
M  V30 64 H 11.024494 9.548444 -9.304396 0
M  V30 65 H 11.545651 10.271693 -7.007515 0
M  V30 END ATOM
M  V30 BEGIN BOND
M  V30 1 1 2 1
M  V30 2 2 3 2
M  V30 3 1 4 3
M  V30 4 1 5 4
M  V30 5 1 6 5
M  V30 6 2 7 6
M  V30 7 1 8 7
M  V30 8 1 9 8
M  V30 9 2 10 9
M  V30 10 1 11 10
M  V30 11 2 12 11
M  V30 12 1 13 12
M  V30 13 1 14 13
M  V30 14 1 15 14
M  V30 15 1 16 15
M  V30 16 1 17 16
M  V30 17 1 18 17
M  V30 18 1 19 18
M  V30 19 1 20 19
M  V30 20 1 21 20
M  V30 21 1 22 21
M  V30 22 1 23 22
M  V30 23 2 24 23
M  V30 24 1 25 24
M  V30 25 1 26 25
M  V30 26 1 27 26
M  V30 27 1 28 26
M  V30 28 1 29 26
M  V30 29 2 30 25
M  V30 30 2 31 22
M  V30 31 1 31 30
M  V30 32 1 32 17
M  V30 33 1 32 21
M  V30 34 1 33 9
M  V30 35 1 33 12
M  V30 36 1 34 33
M  V30 37 2 35 8
M  V30 38 2 36 5
M  V30 39 1 36 35
M  V30 40 2 37 4
M  V30 41 1 38 2
M  V30 42 1 38 37
M  V30 43 1 39 1
M  V30 44 1 40 1
M  V30 45 1 41 1
M  V30 46 1 42 6
M  V30 47 1 43 7
M  V30 48 1 44 14
M  V30 49 1 45 14
M  V30 50 1 46 15
M  V30 51 1 47 15
M  V30 52 1 48 16
M  V30 53 1 49 16
M  V30 54 1 50 18
M  V30 55 1 51 18
M  V30 56 1 52 19
M  V30 57 1 53 19
M  V30 58 1 21 54 CFG=3
M  V30 59 1 55 23
M  V30 60 1 56 24
M  V30 61 1 57 30
M  V30 62 1 58 31
M  V30 63 1 59 32
M  V30 64 1 60 32
M  V30 65 1 61 34
M  V30 66 1 62 34
M  V30 67 1 63 34
M  V30 68 1 64 35
M  V30 69 1 65 36
M  V30 END BOND
M  V30 END CTAB
M  END
>  <b_m_subgroup_collapsed>  (689) 
0

>  <r_i_docking_score>  (689) 
-7.9791613094158

>  <s_m_subgroup_title>  (689) 
glide-dock_SP_D22_pv

>  <s_m_subgroupid>  (689) 
glide-dock_SP_D22_pv

>  <Molecule ChEMBL ID>  (689) 
CHEMBL3765266

>  <Standard Type>  (689) 
Ki

>  <Standard Value>  (689) 
10000.0

>  <label>  (689) 
0

$$$$
CHEMBL4242192
     RDKit          3D

  0  0  0  0  0  0  0  0  0  0999 V3000
M  V30 BEGIN CTAB
M  V30 COUNTS 63 65 0 0 1
M  V30 BEGIN ATOM
M  V30 1 C 12.372878 9.009118 -3.486315 0
M  V30 2 C 11.686818 9.369691 -4.430019 0
M  V30 3 C 10.821261 9.837128 -5.526090 0
M  V30 4 C 10.170241 8.708581 -6.364973 0
M  V30 5 C 10.883582 8.430931 -7.696063 0
M  V30 6 O 12.103064 8.555478 -7.767688 0
M  V30 7 N 10.097943 8.055062 -8.721724 0
M  V30 8 C 10.464255 7.636544 -10.033347 0
M  V30 9 C 9.470890 6.969475 -10.775012 0
M  V30 10 C 9.740404 6.493698 -12.069434 0
M  V30 11 C 11.015934 6.667066 -12.646648 0
M  V30 12 C 11.293768 6.120973 -14.036695 0
M  V30 13 C 11.856694 4.677051 -14.049181 0
M  V30 14 N 11.563218 3.912545 -15.305781 0 CFG=2 CHG=1
M  V30 15 C 11.843391 4.637047 -16.583979 0
M  V30 16 C 13.346426 4.802905 -16.899908 0
M  V30 17 C 14.023315 6.042622 -16.294815 0
M  V30 18 C 10.264221 3.142869 -15.313894 0 CFG=1
M  V30 19 C 10.471896 1.679891 -14.894030 0
M  V30 20 C 9.190139 0.845139 -15.087789 0
M  V30 21 C 7.939981 1.496302 -14.499856 0
M  V30 22 C 6.804423 0.714588 -14.163944 0
M  V30 23 O 6.756279 -0.627447 -14.401628 0
M  V30 24 C 5.688410 1.307586 -13.541924 0
M  V30 25 C 5.682460 2.686860 -13.272220 0
M  V30 26 C 6.781487 3.477934 -13.639612 0
M  V30 27 C 7.911207 2.891363 -14.246707 0
M  V30 28 C 9.106325 3.785623 -14.511455 0
M  V30 29 C 12.002558 7.372475 -11.927896 0
M  V30 30 C 11.730663 7.857358 -10.630879 0
M  V30 31 H 12.955278 8.708967 -2.644840 0
M  V30 32 H 10.055005 10.442377 -5.047141 0
M  V30 33 H 11.400337 10.522676 -6.147722 0
M  V30 34 H 10.112373 7.778846 -5.796464 0
M  V30 35 H 9.134515 8.972483 -6.584068 0
M  V30 36 H 9.111691 7.971364 -8.511572 0
M  V30 37 H 8.486391 6.816597 -10.352584 0
M  V30 38 H 8.948792 6.000172 -12.611203 0
M  V30 39 H 10.372736 6.170884 -14.603049 0
M  V30 40 H 11.978807 6.798572 -14.545128 0
M  V30 41 H 12.932978 4.711699 -13.889396 0
M  V30 42 H 11.495401 4.115005 -13.188943 0
M  V30 43 H 11.452710 4.040214 -17.408379 0
M  V30 44 H 11.312232 5.588036 -16.647448 0
M  V30 45 H 13.897421 3.897494 -16.647148 0
M  V30 46 H 13.440107 4.897837 -17.983765 0
M  V30 47 H 15.029667 6.163023 -16.698355 0
M  V30 48 H 13.467690 6.951007 -16.532295 0
M  V30 49 H 14.123844 5.981164 -15.212623 0
M  V30 50 H 9.904290 3.078263 -16.341412 0
M  V30 51 H 11.285748 1.224431 -15.458530 0
M  V30 52 H 10.771265 1.649299 -13.847188 0
M  V30 53 H 9.339292 -0.140531 -14.644012 0
M  V30 54 H 9.012394 0.683676 -16.151140 0
M  V30 55 H 7.443584 -0.979043 -14.949014 0
M  V30 56 H 4.834301 0.703596 -13.273975 0
M  V30 57 H 4.827527 3.140571 -12.792714 0
M  V30 58 H 6.766283 4.536935 -13.424450 0
M  V30 59 H 9.418654 4.055989 -13.508561 0
M  V30 60 H 8.763919 4.694396 -15.004614 0
M  V30 61 H 12.974689 7.540881 -12.368478 0
M  V30 62 H 12.510128 8.401997 -10.118908 0
M  V30 63 H 12.252217 3.173416 -15.309220 0
M  V30 END ATOM
M  V30 BEGIN BOND
M  V30 1 3 2 1
M  V30 2 1 3 2
M  V30 3 1 4 3
M  V30 4 1 5 4
M  V30 5 2 6 5
M  V30 6 1 7 5
M  V30 7 1 8 7
M  V30 8 1 9 8
M  V30 9 2 10 9
M  V30 10 1 11 10
M  V30 11 1 12 11
M  V30 12 1 13 12
M  V30 13 1 14 13
M  V30 14 1 15 14
M  V30 15 1 16 15
M  V30 16 1 17 16
M  V30 17 1 18 14
M  V30 18 1 19 18
M  V30 19 1 20 19
M  V30 20 1 21 20
M  V30 21 2 22 21
M  V30 22 1 23 22
M  V30 23 1 24 22
M  V30 24 2 25 24
M  V30 25 1 26 25
M  V30 26 1 27 21
M  V30 27 2 27 26
M  V30 28 1 28 18
M  V30 29 1 28 27
M  V30 30 2 29 11
M  V30 31 2 30 8
M  V30 32 1 30 29
M  V30 33 1 31 1
M  V30 34 1 32 3
M  V30 35 1 33 3
M  V30 36 1 34 4
M  V30 37 1 35 4
M  V30 38 1 36 7
M  V30 39 1 37 9
M  V30 40 1 38 10
M  V30 41 1 39 12
M  V30 42 1 40 12
M  V30 43 1 41 13
M  V30 44 1 42 13
M  V30 45 1 43 15
M  V30 46 1 44 15
M  V30 47 1 45 16
M  V30 48 1 46 16
M  V30 49 1 47 17
M  V30 50 1 48 17
M  V30 51 1 49 17
M  V30 52 1 18 50 CFG=3
M  V30 53 1 51 19
M  V30 54 1 52 19
M  V30 55 1 53 20
M  V30 56 1 54 20
M  V30 57 1 55 23
M  V30 58 1 56 24
M  V30 59 1 57 25
M  V30 60 1 58 26
M  V30 61 1 59 28
M  V30 62 1 60 28
M  V30 63 1 61 29
M  V30 64 1 62 30
M  V30 65 1 14 63 CFG=1
M  V30 END BOND
M  V30 END CTAB
M  END
>  <b_m_subgroup_collapsed>  (690) 
0

>  <r_i_docking_score>  (690) 
-7.9780273747141601

>  <s_m_subgroup_title>  (690) 
glide-dock_SP_D22_pv

>  <s_m_subgroupid>  (690) 
glide-dock_SP_D22_pv

>  <Molecule ChEMBL ID>  (690) 
CHEMBL4242192

>  <Standard Type>  (690) 
Ki

>  <Standard Value>  (690) 
17.0

>  <label>  (690) 
1

$$$$
CHEMBL169459
     RDKit          3D

  0  0  0  0  0  0  0  0  0  0999 V3000
M  V30 BEGIN CTAB
M  V30 COUNTS 53 56 0 0 1
M  V30 BEGIN ATOM
M  V30 1 C 10.522201 1.423853 -16.401268 0
M  V30 2 C 9.666225 0.779803 -15.487340 0
M  V30 3 C 8.831391 1.542922 -14.647771 0
M  V30 4 C 8.848415 2.955565 -14.716570 0
M  V30 5 C 8.013556 3.736173 -13.803741 0
M  V30 6 N 6.745089 3.371930 -13.524329 0 CHG=1
M  V30 7 C 5.872445 4.006394 -12.520522 0
M  V30 8 C 6.291500 5.458042 -12.254822 0
M  V30 9 C 7.820473 5.585376 -12.106777 0 CFG=1
M  V30 10 C 8.353338 5.101763 -10.735467 0
M  V30 11 N 8.487776 6.169590 -9.709060 0 CHG=1
M  V30 12 C 8.600315 5.557811 -8.354550 0
M  V30 13 C 8.904455 6.582507 -7.256592 0
M  V30 14 N 10.103824 7.330334 -7.595386 0
M  V30 15 C 10.753860 7.945298 -6.506080 0
M  V30 16 C 11.074192 9.320489 -6.517438 0
M  V30 17 C 11.687144 9.921597 -5.407640 0
M  V30 18 C 12.006335 9.163879 -4.266591 0
M  V30 19 C 11.715356 7.788502 -4.247492 0
M  V30 20 C 11.100689 7.185540 -5.362385 0
M  V30 21 C 9.975384 8.042916 -8.862090 0
M  V30 22 C 9.643326 7.068667 -10.006780 0
M  V30 23 N 8.500017 4.827221 -13.177986 0
M  V30 24 C 9.705392 3.596895 -15.639073 0
M  V30 25 C 10.539128 2.830601 -16.478497 0
M  V30 26 H 11.166504 0.838845 -17.041727 0
M  V30 27 H 9.652298 -0.299527 -15.425681 0
M  V30 28 H 8.198077 1.031487 -13.936413 0
M  V30 29 H 4.835014 3.961321 -12.852539 0
M  V30 30 H 5.933562 3.425965 -11.599105 0
M  V30 31 H 5.930335 6.110494 -13.048278 0
M  V30 32 H 5.796870 5.803531 -11.348948 0
M  V30 33 H 8.085576 6.631593 -12.254748 0
M  V30 34 H 7.685931 4.330802 -10.352550 0
M  V30 35 H 9.315769 4.597821 -10.846843 0
M  V30 36 H 7.685934 5.027752 -8.102821 0
M  V30 37 H 9.395869 4.810764 -8.362899 0
M  V30 38 H 8.086263 7.290930 -7.142628 0
M  V30 39 H 8.986645 6.080550 -6.296137 0
M  V30 40 H 10.849353 9.941994 -7.367149 0
M  V30 41 H 11.909614 10.972275 -5.447217 0
M  V30 42 H 12.477251 9.633758 -3.414840 0
M  V30 43 H 11.965616 7.193514 -3.380957 0
M  V30 44 H 10.900161 6.126062 -5.324571 0
M  V30 45 H 9.191392 8.797424 -8.773564 0
M  V30 46 H 10.903279 8.562880 -9.103284 0
M  V30 47 H 10.527357 6.459676 -10.200445 0
M  V30 48 H 9.453857 7.642540 -10.913295 0
M  V30 49 H 9.451320 5.092079 -13.390093 0
M  V30 50 H 9.732849 4.675466 -15.710191 0
M  V30 51 H 11.196515 3.322420 -17.180969 0
M  V30 52 H 6.364927 2.576185 -14.017559 0
M  V30 53 H 7.638868 6.745223 -9.726608 0
M  V30 END ATOM
M  V30 BEGIN BOND
M  V30 1 2 2 1
M  V30 2 1 3 2
M  V30 3 2 4 3
M  V30 4 1 5 4
M  V30 5 2 6 5
M  V30 6 1 7 6
M  V30 7 1 8 7
M  V30 8 1 9 8
M  V30 9 1 10 9
M  V30 10 1 11 10
M  V30 11 1 12 11
M  V30 12 1 13 12
M  V30 13 1 14 13
M  V30 14 1 15 14
M  V30 15 2 16 15
M  V30 16 1 17 16
M  V30 17 2 18 17
M  V30 18 1 19 18
M  V30 19 1 20 15
M  V30 20 2 20 19
M  V30 21 1 21 14
M  V30 22 1 22 11
M  V30 23 1 22 21
M  V30 24 1 23 5
M  V30 25 1 23 9
M  V30 26 1 24 4
M  V30 27 1 25 1
M  V30 28 2 25 24
M  V30 29 1 26 1
M  V30 30 1 27 2
M  V30 31 1 28 3
M  V30 32 1 29 7
M  V30 33 1 30 7
M  V30 34 1 31 8
M  V30 35 1 32 8
M  V30 36 1 9 33 CFG=3
M  V30 37 1 34 10
M  V30 38 1 35 10
M  V30 39 1 36 12
M  V30 40 1 37 12
M  V30 41 1 38 13
M  V30 42 1 39 13
M  V30 43 1 40 16
M  V30 44 1 41 17
M  V30 45 1 42 18
M  V30 46 1 43 19
M  V30 47 1 44 20
M  V30 48 1 45 21
M  V30 49 1 46 21
M  V30 50 1 47 22
M  V30 51 1 48 22
M  V30 52 1 49 23
M  V30 53 1 50 24
M  V30 54 1 51 25
M  V30 55 1 52 6
M  V30 56 1 53 11
M  V30 END BOND
M  V30 END CTAB
M  END
>  <b_m_subgroup_collapsed>  (691) 
0

>  <r_i_docking_score>  (691) 
-7.9780084211225004

>  <s_m_subgroup_title>  (691) 
glide-dock_SP_D22_pv

>  <s_m_subgroupid>  (691) 
glide-dock_SP_D22_pv

>  <Molecule ChEMBL ID>  (691) 
CHEMBL169459

>  <Standard Type>  (691) 
Ki

>  <Standard Value>  (691) 
29000.0

>  <label>  (691) 
0

$$$$
CHEMBL1080755
     RDKit          3D

  0  0  0  0  0  0  0  0  0  0999 V3000
M  V30 BEGIN CTAB
M  V30 COUNTS 61 65 0 0 1
M  V30 BEGIN ATOM
M  V30 1 C 9.841702 4.173948 -17.572941 0
M  V30 2 C 10.672009 3.135847 -16.795967 0 CFG=1
M  V30 3 C 11.878462 3.762215 -16.053946 0
M  V30 4 N 11.448808 4.422154 -14.815028 0
M  V30 5 C 11.555139 5.764320 -14.631451 0
M  V30 6 O 11.976346 6.509184 -15.517859 0
M  V30 7 C 11.286582 6.364218 -13.275932 0
M  V30 8 C 12.257087 7.222366 -12.737352 0
M  V30 9 C 12.096841 7.772584 -11.458413 0
M  V30 10 C 10.955813 7.512786 -10.667208 0
M  V30 11 C 10.882644 8.032365 -9.277779 0
M  V30 12 C 9.669007 8.099474 -8.550178 0
M  V30 13 C 9.635398 8.572099 -7.220644 0
M  V30 14 C 10.816591 9.002975 -6.582070 0
M  V30 15 O 10.759523 9.463059 -5.288213 0
M  V30 16 C 11.662024 8.988472 -4.383450 0
M  V30 17 F 12.913017 9.452077 -4.609432 0
M  V30 18 F 11.313032 9.391648 -3.141013 0
M  V30 19 F 11.686242 7.631077 -4.364380 0
M  V30 20 C 12.021862 8.971945 -7.307472 0
M  V30 21 C 12.054385 8.476529 -8.617863 0
M  V30 22 C 9.932635 6.727880 -11.259029 0
M  V30 23 C 10.085834 6.172324 -12.549177 0
M  V30 24 C 10.793517 3.445403 -13.946781 0
M  V30 25 C 9.473662 3.070335 -14.635954 0
M  V30 26 N 9.803511 2.353231 -15.882638 0
M  V30 27 C 9.429028 1.086028 -16.193665 0
M  V30 28 O 10.026791 0.400353 -17.025478 0
M  V30 29 C 8.113726 0.571341 -15.678378 0
M  V30 30 C 7.881816 0.272320 -14.317820 0
M  V30 31 C 6.634933 -0.227699 -13.889474 0
M  V30 32 C 5.603788 -0.504931 -14.817019 0
M  V30 33 C 4.268035 -1.027837 -14.730831 0
M  V30 34 C 3.805522 -1.145437 -16.015106 0
M  V30 35 N 4.757456 -0.650208 -16.883444 0
M  V30 36 C 5.880194 -0.251911 -16.191578 0
M  V30 37 C 7.103155 0.288016 -16.619181 0
M  V30 38 H 10.455408 4.688441 -18.313303 0
M  V30 39 H 9.020057 3.698786 -18.107019 0
M  V30 40 H 9.416597 4.930996 -16.917437 0
M  V30 41 H 11.110285 2.486851 -17.554790 0
M  V30 42 H 12.426629 4.422771 -16.726332 0
M  V30 43 H 12.587589 2.973851 -15.798820 0
M  V30 44 H 13.162000 7.434956 -13.291509 0
M  V30 45 H 12.892468 8.413127 -11.111170 0
M  V30 46 H 8.735995 7.783315 -8.995688 0
M  V30 47 H 8.692825 8.598161 -6.691969 0
M  V30 48 H 12.943054 9.339179 -6.887142 0
M  V30 49 H 13.021071 8.451099 -9.093301 0
M  V30 50 H 9.018494 6.518574 -10.719737 0
M  V30 51 H 9.281941 5.583126 -12.960987 0
M  V30 52 H 11.421961 2.559405 -13.847252 0
M  V30 53 H 10.631631 3.778883 -12.926303 0
M  V30 54 H 8.873878 2.508536 -13.930065 0
M  V30 55 H 8.885886 3.959188 -14.862390 0
M  V30 56 H 8.667474 0.408219 -13.587258 0
M  V30 57 H 6.479278 -0.439088 -12.841463 0
M  V30 58 H 3.745720 -1.329090 -13.838319 0
M  V30 59 H 2.879276 -1.554747 -16.385195 0
M  V30 60 H 4.636691 -0.642364 -17.886080 0
M  V30 61 H 7.273471 0.454177 -17.673597 0
M  V30 END ATOM
M  V30 BEGIN BOND
M  V30 1 1 2 1
M  V30 2 1 3 2
M  V30 3 1 4 3
M  V30 4 1 5 4
M  V30 5 2 6 5
M  V30 6 1 7 5
M  V30 7 1 8 7
M  V30 8 2 9 8
M  V30 9 1 10 9
M  V30 10 1 11 10
M  V30 11 1 12 11
M  V30 12 2 13 12
M  V30 13 1 14 13
M  V30 14 1 15 14
M  V30 15 1 16 15
M  V30 16 1 17 16
M  V30 17 1 18 16
M  V30 18 1 19 16
M  V30 19 2 20 14
M  V30 20 2 21 11
M  V30 21 1 21 20
M  V30 22 2 22 10
M  V30 23 2 23 7
M  V30 24 1 23 22
M  V30 25 1 24 4
M  V30 26 1 25 24
M  V30 27 1 26 2
M  V30 28 1 26 25
M  V30 29 1 27 26
M  V30 30 2 28 27
M  V30 31 1 29 27
M  V30 32 2 30 29
M  V30 33 1 31 30
M  V30 34 2 32 31
M  V30 35 1 33 32
M  V30 36 2 34 33
M  V30 37 1 35 34
M  V30 38 1 36 32
M  V30 39 1 36 35
M  V30 40 1 37 29
M  V30 41 2 37 36
M  V30 42 1 38 1
M  V30 43 1 39 1
M  V30 44 1 40 1
M  V30 45 1 2 41 CFG=3
M  V30 46 1 42 3
M  V30 47 1 43 3
M  V30 48 1 44 8
M  V30 49 1 45 9
M  V30 50 1 46 12
M  V30 51 1 47 13
M  V30 52 1 48 20
M  V30 53 1 49 21
M  V30 54 1 50 22
M  V30 55 1 51 23
M  V30 56 1 52 24
M  V30 57 1 53 24
M  V30 58 1 54 25
M  V30 59 1 55 25
M  V30 60 1 56 30
M  V30 61 1 57 31
M  V30 62 1 58 33
M  V30 63 1 59 34
M  V30 64 1 60 35
M  V30 65 1 61 37
M  V30 END BOND
M  V30 END CTAB
M  END
>  <b_m_subgroup_collapsed>  (692) 
0

>  <r_i_docking_score>  (692) 
-7.9766207205171797

>  <s_m_subgroup_title>  (692) 
glide-dock_SP_D22_pv

>  <s_m_subgroupid>  (692) 
glide-dock_SP_D22_pv

>  <Molecule ChEMBL ID>  (692) 
CHEMBL1080755

>  <Standard Type>  (692) 
Ki

>  <Standard Value>  (692) 
10000.0

>  <label>  (692) 
0

$$$$
CHEMBL5828332
     RDKit          3D

  0  0  0  0  0  0  0  0  0  0999 V3000
M  V30 BEGIN CTAB
M  V30 COUNTS 64 67 0 0 1
M  V30 BEGIN ATOM
M  V30 1 C 7.343082 4.314466 -13.189657 0
M  V30 2 C 8.461086 5.204708 -12.582510 0 CFG=1
M  V30 3 C 9.805471 5.005896 -13.337234 0
M  V30 4 O 10.791233 5.680274 -13.047279 0
M  V30 5 N 9.865337 4.057816 -14.283714 0
M  V30 6 C 11.080267 3.604374 -14.958342 0 CFG=2
M  V30 7 C 11.637007 4.687708 -15.884746 0
M  V30 8 C 10.878618 5.167548 -16.974365 0
M  V30 9 C 11.395743 6.180787 -17.807833 0
M  V30 10 C 12.665799 6.727174 -17.545586 0
M  V30 11 F 13.161389 7.705917 -18.342924 0
M  V30 12 C 13.421158 6.263443 -16.451023 0
M  V30 13 C 12.907471 5.246680 -15.623851 0
M  V30 14 C 10.845373 2.248046 -15.630829 0
M  V30 15 C 9.955006 1.309205 -15.058053 0
M  V30 16 C 9.723832 0.097269 -15.729082 0
M  V30 17 C 10.401155 -0.151473 -16.936291 0
M  V30 18 C 11.289207 0.828672 -17.417128 0
M  V30 19 N 11.510889 1.998232 -16.783724 0
M  V30 20 C 7.976171 6.671956 -12.644056 0
M  V30 21 C 8.836767 7.665772 -11.836175 0
M  V30 22 N 8.888960 7.258172 -10.411537 0 CFG=2 CHG=1
M  V30 23 C 9.615663 8.235637 -9.558534 0
M  V30 24 C 9.165964 8.210418 -8.082440 0
M  V30 25 O 10.035051 9.076063 -7.353343 0
M  V30 26 C 10.697310 8.645955 -6.220099 0
M  V30 27 C 11.231481 9.657490 -5.391880 0
M  V30 28 C 11.913017 9.337189 -4.201137 0
M  V30 29 C 12.086158 7.989718 -3.831360 0
M  V30 30 C 11.573281 6.972233 -4.655670 0
M  V30 31 C 10.889411 7.291795 -5.846798 0
M  V30 32 C 9.407349 5.869599 -10.247794 0
M  V30 33 C 8.634933 4.834518 -11.091392 0
M  V30 34 H 6.398947 4.444688 -12.657110 0
M  V30 35 H 7.152689 4.555829 -14.237213 0
M  V30 36 H 7.588235 3.254067 -13.127779 0
M  V30 37 H 9.025365 3.536172 -14.483518 0
M  V30 38 H 11.824446 3.408449 -14.184127 0
M  V30 39 H 9.901854 4.757249 -17.178440 0
M  V30 40 H 10.818463 6.540856 -18.646456 0
M  V30 41 H 14.393861 6.689299 -16.247131 0
M  V30 42 H 13.491858 4.908340 -14.783726 0
M  V30 43 H 9.455522 1.497927 -14.119415 0
M  V30 44 H 9.037837 -0.627818 -15.317335 0
M  V30 45 H 10.251365 -1.074600 -17.475796 0
M  V30 46 H 11.834830 0.669486 -18.334896 0
M  V30 47 H 7.904023 6.971741 -13.681752 0
M  V30 48 H 6.957296 6.728467 -12.255249 0
M  V30 49 H 8.377818 8.653024 -11.905066 0
M  V30 50 H 9.841308 7.768640 -12.241027 0
M  V30 51 H 10.687909 8.053835 -9.632299 0
M  V30 52 H 9.454154 9.244542 -9.938777 0
M  V30 53 H 8.161496 8.623752 -7.997712 0
M  V30 54 H 9.094929 7.201264 -7.692365 0
M  V30 55 H 11.100165 10.694935 -5.665155 0
M  V30 56 H 12.303617 10.122301 -3.567794 0
M  V30 57 H 12.608274 7.739878 -2.921062 0
M  V30 58 H 11.708117 5.936297 -4.378112 0
M  V30 59 H 10.539495 6.468610 -6.448393 0
M  V30 60 H 9.352216 5.566160 -9.203558 0
M  V30 61 H 10.465546 5.855424 -10.505715 0
M  V30 62 H 7.661261 4.675381 -10.631562 0
M  V30 63 H 9.158847 3.879555 -11.035687 0
M  V30 64 H 7.898908 7.308315 -10.143107 0
M  V30 END ATOM
M  V30 BEGIN BOND
M  V30 1 1 2 1 CFG=3
M  V30 2 1 3 2
M  V30 3 2 4 3
M  V30 4 1 5 3
M  V30 5 1 6 5
M  V30 6 1 7 6
M  V30 7 1 8 7
M  V30 8 2 9 8
M  V30 9 1 10 9
M  V30 10 1 11 10
M  V30 11 2 12 10
M  V30 12 2 13 7
M  V30 13 1 13 12
M  V30 14 1 14 6
M  V30 15 2 15 14
M  V30 16 1 16 15
M  V30 17 2 17 16
M  V30 18 1 18 17
M  V30 19 1 19 14
M  V30 20 2 19 18
M  V30 21 1 20 2
M  V30 22 1 21 20
M  V30 23 1 22 21
M  V30 24 1 23 22
M  V30 25 1 24 23
M  V30 26 1 25 24
M  V30 27 1 26 25
M  V30 28 2 27 26
M  V30 29 1 28 27
M  V30 30 2 29 28
M  V30 31 1 30 29
M  V30 32 1 31 26
M  V30 33 2 31 30
M  V30 34 1 32 22
M  V30 35 1 33 2
M  V30 36 1 33 32
M  V30 37 1 34 1
M  V30 38 1 35 1
M  V30 39 1 36 1
M  V30 40 1 37 5
M  V30 41 1 6 38 CFG=1
M  V30 42 1 39 8
M  V30 43 1 40 9
M  V30 44 1 41 12
M  V30 45 1 42 13
M  V30 46 1 43 15
M  V30 47 1 44 16
M  V30 48 1 45 17
M  V30 49 1 46 18
M  V30 50 1 47 20
M  V30 51 1 48 20
M  V30 52 1 49 21
M  V30 53 1 50 21
M  V30 54 1 51 23
M  V30 55 1 52 23
M  V30 56 1 53 24
M  V30 57 1 54 24
M  V30 58 1 55 27
M  V30 59 1 56 28
M  V30 60 1 57 29
M  V30 61 1 58 30
M  V30 62 1 59 31
M  V30 63 1 60 32
M  V30 64 1 61 32
M  V30 65 1 62 33
M  V30 66 1 63 33
M  V30 67 1 22 64 CFG=1
M  V30 END BOND
M  V30 END CTAB
M  END
>  <b_m_subgroup_collapsed>  (693) 
0

>  <r_i_docking_score>  (693) 
-7.9765317216077403

>  <s_m_subgroup_title>  (693) 
glide-dock_SP_D22_pv

>  <s_m_subgroupid>  (693) 
glide-dock_SP_D22_pv

>  <Molecule ChEMBL ID>  (693) 
CHEMBL5828332

>  <Standard Type>  (693) 
Ki

>  <Standard Value>  (693) 
55.0

>  <label>  (693) 
1

$$$$
CHEMBL5790341
     RDKit          3D

  0  0  0  0  0  0  0  0  0  0999 V3000
M  V30 BEGIN CTAB
M  V30 COUNTS 60 64 0 0 1
M  V30 BEGIN ATOM
M  V30 1 O 12.485970 6.665485 -2.156505 0
M  V30 2 C 12.057716 7.338973 -3.083136 0
M  V30 3 C 11.934191 8.862117 -2.962169 0
M  V30 4 C 12.165954 9.598667 -4.293146 0
M  V30 5 C 11.575069 8.871518 -5.483922 0
M  V30 6 C 11.390636 9.526515 -6.715579 0
M  V30 7 C 10.941326 8.815322 -7.849724 0
M  V30 8 O 10.891804 9.494565 -9.044532 0
M  V30 9 C 10.634299 8.780720 -10.236430 0
M  V30 10 C 9.116642 8.598289 -10.429984 0
M  V30 11 C 8.678378 8.067706 -11.808339 0
M  V30 12 N 8.586307 6.582072 -11.878613 0 CFG=2 CHG=1
M  V30 13 C 9.921663 5.940950 -11.994973 0
M  V30 14 C 9.867395 4.411366 -12.118766 0
M  V30 15 C 8.929082 3.915287 -13.227035 0 CFG=2
M  V30 16 C 9.575818 3.968981 -14.606798 0
M  V30 17 N 9.685969 4.972173 -15.378264 0
M  V30 18 O 10.379610 4.540011 -16.553125 0
M  V30 19 C 10.109599 3.151469 -16.626986 0 CFG=1
M  V30 20 C 10.951183 2.220873 -17.474892 0
M  V30 21 C 10.954005 0.911925 -17.134651 0
M  V30 22 F 11.669474 0.033591 -17.855539 0
M  V30 23 C 10.201460 0.449992 -15.961210 0
M  V30 24 C 9.840017 1.333337 -15.002131 0
M  V30 25 C 10.276984 2.780974 -15.173440 0 CFG=2
M  V30 26 C 7.565896 4.627328 -13.104784 0
M  V30 27 C 7.686452 6.157204 -12.976564 0
M  V30 28 C 10.596498 7.451817 -7.710985 0
M  V30 29 C 10.759983 6.808913 -6.479371 0
M  V30 30 C 11.286037 7.496217 -5.379114 0
M  V30 31 N 11.628462 6.773647 -4.216641 0
M  V30 32 H 12.587711 9.248706 -2.179914 0
M  V30 33 H 10.909230 9.053510 -2.646853 0
M  V30 34 H 13.230853 9.761232 -4.465033 0
M  V30 35 H 11.685734 10.572224 -4.231195 0
M  V30 36 H 11.649039 10.570836 -6.808984 0
M  V30 37 H 11.217769 7.867130 -10.253057 0
M  V30 38 H 11.042036 9.372183 -11.046226 0
M  V30 39 H 8.656960 9.578509 -10.297762 0
M  V30 40 H 8.686708 7.986118 -9.638684 0
M  V30 41 H 9.312111 8.465593 -12.603104 0
M  V30 42 H 7.686398 8.479519 -12.001441 0
M  V30 43 H 10.486266 6.151604 -11.095963 0
M  V30 44 H 10.469648 6.365350 -12.836177 0
M  V30 45 H 9.551663 3.989978 -11.162694 0
M  V30 46 H 10.881817 4.049331 -12.294525 0
M  V30 47 H 8.746119 2.864118 -13.046913 0
M  V30 48 H 9.074489 3.032914 -16.961550 0
M  V30 49 H 11.486656 2.608031 -18.328033 0
M  V30 50 H 9.924020 -0.590900 -15.870588 0
M  V30 51 H 9.300749 1.023760 -14.119008 0
M  V30 52 H 11.323638 2.848238 -14.869694 0
M  V30 53 H 6.927344 4.369626 -13.950991 0
M  V30 54 H 7.051409 4.250587 -12.219283 0
M  V30 55 H 6.695004 6.589464 -12.827781 0
M  V30 56 H 8.086099 6.572031 -13.892423 0
M  V30 57 H 10.229966 6.859298 -8.533509 0
M  V30 58 H 10.512541 5.772326 -6.398875 0
M  V30 59 H 11.594647 5.764750 -4.257333 0
M  V30 60 H 8.142105 6.284706 -11.018331 0
M  V30 END ATOM
M  V30 BEGIN BOND
M  V30 1 2 2 1
M  V30 2 1 3 2
M  V30 3 1 4 3
M  V30 4 1 5 4
M  V30 5 1 6 5
M  V30 6 2 7 6
M  V30 7 1 8 7
M  V30 8 1 9 8
M  V30 9 1 10 9
M  V30 10 1 11 10
M  V30 11 1 12 11
M  V30 12 1 13 12
M  V30 13 1 14 13
M  V30 14 1 15 14
M  V30 15 1 16 15
M  V30 16 2 17 16
M  V30 17 1 18 17
M  V30 18 1 19 18
M  V30 19 1 20 19
M  V30 20 2 21 20
M  V30 21 1 22 21
M  V30 22 1 23 21
M  V30 23 2 24 23
M  V30 24 1 25 16
M  V30 25 1 25 19
M  V30 26 1 25 24
M  V30 27 1 26 15
M  V30 28 1 27 12
M  V30 29 1 27 26
M  V30 30 1 28 7
M  V30 31 2 29 28
M  V30 32 2 30 5
M  V30 33 1 30 29
M  V30 34 1 31 2
M  V30 35 1 31 30
M  V30 36 1 32 3
M  V30 37 1 33 3
M  V30 38 1 34 4
M  V30 39 1 35 4
M  V30 40 1 36 6
M  V30 41 1 37 9
M  V30 42 1 38 9
M  V30 43 1 39 10
M  V30 44 1 40 10
M  V30 45 1 41 11
M  V30 46 1 42 11
M  V30 47 1 43 13
M  V30 48 1 44 13
M  V30 49 1 45 14
M  V30 50 1 46 14
M  V30 51 1 15 47 CFG=1
M  V30 52 1 19 48 CFG=3
M  V30 53 1 49 20
M  V30 54 1 50 23
M  V30 55 1 51 24
M  V30 56 1 25 52 CFG=1
M  V30 57 1 53 26
M  V30 58 1 54 26
M  V30 59 1 55 27
M  V30 60 1 56 27
M  V30 61 1 57 28
M  V30 62 1 58 29
M  V30 63 1 59 31
M  V30 64 1 12 60 CFG=1
M  V30 END BOND
M  V30 END CTAB
M  END
>  <b_m_subgroup_collapsed>  (694) 
0

>  <r_i_docking_score>  (694) 
-7.97529615124924

>  <s_m_subgroup_title>  (694) 
glide-dock_SP_D22_pv

>  <s_m_subgroupid>  (694) 
glide-dock_SP_D22_pv

>  <Molecule ChEMBL ID>  (694) 
CHEMBL5790341

>  <Standard Type>  (694) 
Ki

>  <Standard Value>  (694) 
5.6

>  <label>  (694) 
1

$$$$
CHEMBL3104520
     RDKit          3D

  0  0  0  0  0  0  0  0  0  0999 V3000
M  V30 BEGIN CTAB
M  V30 COUNTS 60 63 0 0 1
M  V30 BEGIN ATOM
M  V30 1 C 11.813170 11.288604 -6.246941 0
M  V30 2 O 11.248571 10.039676 -6.561561 0
M  V30 3 C 11.427934 9.033957 -5.638692 0
M  V30 4 C 12.101704 9.229722 -4.400130 0
M  V30 5 C 12.241034 8.194071 -3.464687 0
M  V30 6 C 11.709804 6.933741 -3.759305 0
M  V30 7 C 11.048472 6.731833 -4.980410 0
M  V30 8 C 10.885284 7.758937 -5.931416 0
M  V30 9 N 10.166212 7.466090 -7.111867 0
M  V30 10 C 8.860353 6.837717 -6.989463 0
M  V30 11 C 8.679873 5.801507 -8.103091 0
M  V30 12 N 8.886057 6.389329 -9.453003 0 CHG=1
M  V30 13 C 8.684300 5.358589 -10.504286 0
M  V30 14 C 8.395752 5.936985 -11.906164 0
M  V30 15 C 7.997966 4.883256 -12.972489 0 CFG=2
M  V30 16 C 6.707910 4.123914 -12.601087 0
M  V30 17 C 6.220937 3.216456 -13.735311 0
M  V30 18 C 7.328089 2.397862 -14.381710 0
M  V30 19 C 6.973531 1.271096 -15.154694 0
M  V30 20 C 7.957459 0.529544 -15.832499 0
M  V30 21 C 9.315616 0.901742 -15.748114 0
M  V30 22 N 10.342706 0.171744 -16.512173 0 CHG=1
M  V30 23 O 11.405256 0.743022 -16.732630 0
M  V30 24 O 10.085801 -0.960682 -16.906921 0 CHG=-1
M  V30 25 C 9.672693 2.002409 -14.936441 0
M  V30 26 C 8.694066 2.754366 -14.246925 0
M  V30 27 C 9.138021 3.905460 -13.344628 0 CFG=1
M  V30 28 O 10.210334 4.643273 -13.898943 0
M  V30 29 C 10.193676 7.098882 -9.560466 0
M  V30 30 C 10.444057 8.089760 -8.400402 0
M  V30 31 H 11.686184 12.007868 -7.047288 0
M  V30 32 H 11.326367 11.677367 -5.350248 0
M  V30 33 H 12.886013 11.169467 -6.135135 0
M  V30 34 H 12.533345 10.172321 -4.118808 0
M  V30 35 H 12.753845 8.366712 -2.530703 0
M  V30 36 H 11.803938 6.122507 -3.053269 0
M  V30 37 H 10.636030 5.772311 -5.183218 0
M  V30 38 H 8.086139 7.606068 -7.049166 0
M  V30 39 H 8.726526 6.351782 -6.025502 0
M  V30 40 H 7.685226 5.371730 -8.025517 0
M  V30 41 H 9.386971 4.981705 -7.955685 0
M  V30 42 H 7.831954 4.748822 -10.205688 0
M  V30 43 H 9.543889 4.688544 -10.527564 0
M  V30 44 H 9.261311 6.497559 -12.260560 0
M  V30 45 H 7.588299 6.667839 -11.845951 0
M  V30 46 H 7.757082 5.444202 -13.875481 0
M  V30 47 H 5.915247 4.817494 -12.317967 0
M  V30 48 H 6.886065 3.498586 -11.728338 0
M  V30 49 H 5.761887 3.826133 -14.514293 0
M  V30 50 H 5.437992 2.553810 -13.364771 0
M  V30 51 H 5.939165 0.972053 -15.242439 0
M  V30 52 H 7.660374 -0.321523 -16.429670 0
M  V30 53 H 10.714068 2.275465 -14.842997 0
M  V30 54 H 9.509671 3.428738 -12.436324 0
M  V30 55 H 9.928229 4.991994 -14.731055 0
M  V30 56 H 10.990787 6.355349 -9.557878 0
M  V30 57 H 10.260638 7.629837 -10.510556 0
M  V30 58 H 9.799479 8.963312 -8.509071 0
M  V30 59 H 11.475974 8.440293 -8.442354 0
M  V30 60 H 8.142737 7.072897 -9.574392 0
M  V30 END ATOM
M  V30 BEGIN BOND
M  V30 1 1 2 1
M  V30 2 1 3 2
M  V30 3 2 4 3
M  V30 4 1 5 4
M  V30 5 2 6 5
M  V30 6 1 7 6
M  V30 7 1 8 3
M  V30 8 2 8 7
M  V30 9 1 9 8
M  V30 10 1 10 9
M  V30 11 1 11 10
M  V30 12 1 12 11
M  V30 13 1 13 12
M  V30 14 1 14 13
M  V30 15 1 15 14
M  V30 16 1 16 15
M  V30 17 1 17 16
M  V30 18 1 18 17
M  V30 19 1 19 18
M  V30 20 2 20 19
M  V30 21 1 21 20
M  V30 22 1 22 21
M  V30 23 2 23 22
M  V30 24 1 24 22
M  V30 25 2 25 21
M  V30 26 2 26 18
M  V30 27 1 26 25
M  V30 28 1 27 15
M  V30 29 1 27 26
M  V30 30 1 28 27
M  V30 31 1 29 12
M  V30 32 1 30 9
M  V30 33 1 30 29
M  V30 34 1 31 1
M  V30 35 1 32 1
M  V30 36 1 33 1
M  V30 37 1 34 4
M  V30 38 1 35 5
M  V30 39 1 36 6
M  V30 40 1 37 7
M  V30 41 1 38 10
M  V30 42 1 39 10
M  V30 43 1 40 11
M  V30 44 1 41 11
M  V30 45 1 42 13
M  V30 46 1 43 13
M  V30 47 1 44 14
M  V30 48 1 45 14
M  V30 49 1 15 46 CFG=3
M  V30 50 1 47 16
M  V30 51 1 48 16
M  V30 52 1 49 17
M  V30 53 1 50 17
M  V30 54 1 51 19
M  V30 55 1 52 20
M  V30 56 1 53 25
M  V30 57 1 27 54 CFG=1
M  V30 58 1 55 28
M  V30 59 1 56 29
M  V30 60 1 57 29
M  V30 61 1 58 30
M  V30 62 1 59 30
M  V30 63 1 60 12
M  V30 END BOND
M  V30 END CTAB
M  END
>  <b_m_subgroup_collapsed>  (695) 
0

>  <r_i_docking_score>  (695) 
-7.9740661644686401

>  <s_m_subgroup_title>  (695) 
glide-dock_SP_D22_pv

>  <s_m_subgroupid>  (695) 
glide-dock_SP_D22_pv

>  <Molecule ChEMBL ID>  (695) 
CHEMBL3104520

>  <Standard Type>  (695) 
Ki

>  <Standard Value>  (695) 
19.05

>  <label>  (695) 
1

$$$$
CHEMBL556895
     RDKit          3D

  0  0  0  0  0  0  0  0  0  0999 V3000
M  V30 BEGIN CTAB
M  V30 COUNTS 51 55 0 0 1
M  V30 BEGIN ATOM
M  V30 1 O 9.758125 3.978468 -13.245779 0
M  V30 2 C 8.563056 3.774704 -13.461789 0
M  V30 3 N 7.583155 4.492476 -12.895259 0
M  V30 4 C 7.764994 5.586473 -11.948783 0
M  V30 5 C 8.343097 5.082380 -10.610525 0
M  V30 6 N 8.486199 6.184895 -9.639975 0 CHG=1
M  V30 7 C 8.682827 5.762452 -8.222787 0
M  V30 8 C 9.628298 6.796428 -7.675122 0
M  V30 9 C 10.028066 6.985745 -6.341119 0
M  V30 10 C 10.917377 8.045491 -6.056132 0
M  V30 11 C 11.393083 8.884316 -7.092869 0
M  V30 12 C 10.985148 8.673502 -8.429474 0
M  V30 13 C 10.094995 7.616290 -8.688512 0
M  V30 14 C 9.510980 7.205297 -10.008105 0
M  V30 15 C 6.260875 4.076695 -13.292347 0
M  V30 16 C 6.562039 2.869139 -14.167206 0
M  V30 17 N 8.022007 2.820915 -14.256227 0
M  V30 18 C 8.747229 1.918283 -15.124944 0
M  V30 19 C 10.090520 2.088060 -15.395535 0
M  V30 20 S 10.702456 0.901323 -16.502575 0
M  V30 21 C 9.136248 0.167853 -16.614695 0
M  V30 22 C 8.189219 0.783397 -15.834225 0
M  V30 23 C 6.814740 0.281391 -15.787124 0
M  V30 24 C 6.306044 -0.358321 -14.637630 0
M  V30 25 C 5.026412 -0.940235 -14.703277 0
M  V30 26 C 4.310920 -0.878494 -15.911506 0
M  V30 27 C 4.908866 -0.229209 -17.006910 0
M  V30 28 N 6.127778 0.346830 -16.950163 0
M  V30 29 H 8.426729 6.325767 -12.401927 0
M  V30 30 H 6.811746 6.093056 -11.786676 0
M  V30 31 H 7.686094 4.318683 -10.197742 0
M  V30 32 H 9.313738 4.603393 -10.746197 0
M  V30 33 H 7.737088 5.755146 -7.679265 0
M  V30 34 H 9.144235 4.776413 -8.157494 0
M  V30 35 H 9.657937 6.347417 -5.552474 0
M  V30 36 H 11.238682 8.216643 -5.039354 0
M  V30 37 H 12.075941 9.688660 -6.861683 0
M  V30 38 H 11.346791 9.309234 -9.225190 0
M  V30 39 H 10.298679 6.788154 -10.637458 0
M  V30 40 H 9.048645 8.049246 -10.522313 0
M  V30 41 H 5.653128 3.815711 -12.424479 0
M  V30 42 H 5.758151 4.869506 -13.847491 0
M  V30 43 H 6.087454 2.970042 -15.142386 0
M  V30 44 H 6.177485 1.982873 -13.669293 0
M  V30 45 H 10.779675 2.837429 -15.036180 0
M  V30 46 H 8.988277 -0.693512 -17.248890 0
M  V30 47 H 6.896420 -0.425968 -13.736306 0
M  V30 48 H 4.606406 -1.441175 -13.846338 0
M  V30 49 H 3.333165 -1.330512 -16.003887 0
M  V30 50 H 4.391760 -0.167770 -17.952486 0
M  V30 51 H 7.605127 6.707466 -9.657074 0
M  V30 END ATOM
M  V30 BEGIN BOND
M  V30 1 2 2 1
M  V30 2 1 3 2
M  V30 3 1 4 3
M  V30 4 1 5 4
M  V30 5 1 6 5
M  V30 6 1 7 6
M  V30 7 1 8 7
M  V30 8 2 9 8
M  V30 9 1 10 9
M  V30 10 2 11 10
M  V30 11 1 12 11
M  V30 12 1 13 8
M  V30 13 2 13 12
M  V30 14 1 14 6
M  V30 15 1 14 13
M  V30 16 1 15 3
M  V30 17 1 16 15
M  V30 18 1 17 2
M  V30 19 1 17 16
M  V30 20 1 18 17
M  V30 21 2 19 18
M  V30 22 1 20 19
M  V30 23 1 21 20
M  V30 24 1 22 18
M  V30 25 2 22 21
M  V30 26 1 23 22
M  V30 27 2 24 23
M  V30 28 1 25 24
M  V30 29 2 26 25
M  V30 30 1 27 26
M  V30 31 1 28 23
M  V30 32 2 28 27
M  V30 33 1 29 4
M  V30 34 1 30 4
M  V30 35 1 31 5
M  V30 36 1 32 5
M  V30 37 1 33 7
M  V30 38 1 34 7
M  V30 39 1 35 9
M  V30 40 1 36 10
M  V30 41 1 37 11
M  V30 42 1 38 12
M  V30 43 1 39 14
M  V30 44 1 40 14
M  V30 45 1 41 15
M  V30 46 1 42 15
M  V30 47 1 43 16
M  V30 48 1 44 16
M  V30 49 1 45 19
M  V30 50 1 46 21
M  V30 51 1 47 24
M  V30 52 1 48 25
M  V30 53 1 49 26
M  V30 54 1 50 27
M  V30 55 1 51 6
M  V30 END BOND
M  V30 END CTAB
M  END
>  <b_m_subgroup_collapsed>  (696) 
0

>  <r_i_docking_score>  (696) 
-7.9729514185393002

>  <s_m_subgroup_title>  (696) 
glide-dock_SP_D22_pv

>  <s_m_subgroupid>  (696) 
glide-dock_SP_D22_pv

>  <Molecule ChEMBL ID>  (696) 
CHEMBL556895

>  <Standard Type>  (696) 
Ki

>  <Standard Value>  (696) 
10000.0

>  <label>  (696) 
0

$$$$
CHEMBL219185
     RDKit          3D

  0  0  0  0  0  0  0  0  0  0999 V3000
M  V30 BEGIN CTAB
M  V30 COUNTS 47 49 0 0 1
M  V30 BEGIN ATOM
M  V30 1 C 8.465556 2.292417 -14.837793 0
M  V30 2 C 7.654556 3.202918 -13.937874 0
M  V30 3 C 6.278872 2.971047 -13.752880 0
M  V30 4 C 5.533652 3.815699 -12.911839 0
M  V30 5 C 6.159430 4.888871 -12.253007 0
M  V30 6 C 7.538785 5.126331 -12.418193 0
M  V30 7 N 8.089978 6.229520 -11.709682 0
M  V30 8 C 9.355091 6.690027 -11.686443 0
M  V30 9 O 10.308756 6.171915 -12.268054 0
M  V30 10 C 9.615635 7.975005 -10.895260 0
M  V30 11 N 10.278542 7.783053 -9.581601 0
M  V30 12 C 9.369651 7.149794 -8.617692 0
M  V30 13 C 10.048806 6.963350 -7.250925 0
M  V30 14 C 10.503934 8.322198 -6.678028 0
M  V30 15 C 11.147451 8.262152 -5.285844 0
M  V30 16 C 11.549196 7.036840 -4.696617 0
M  V30 17 C 12.086220 7.011777 -3.400199 0
M  V30 18 C 12.239440 8.221262 -2.708597 0
M  V30 19 C 11.837799 9.417854 -3.325235 0
M  V30 20 N 11.286635 9.437579 -4.577816 0 CHG=1
M  V30 21 O 10.886129 10.563871 -5.054761 0 CHG=-1
M  V30 22 C 11.416028 8.977230 -7.725752 0
M  V30 23 C 10.712770 9.093701 -9.089469 0
M  V30 24 C 8.282527 4.271416 -13.271834 0
M  V30 25 H 7.831728 1.818377 -15.587290 0
M  V30 26 H 9.239645 2.856868 -15.356448 0
M  V30 27 H 8.946045 1.510124 -14.247899 0
M  V30 28 H 5.793322 2.140945 -14.245434 0
M  V30 29 H 4.480063 3.634706 -12.768750 0
M  V30 30 H 5.576502 5.530229 -11.603357 0
M  V30 31 H 7.423186 6.773774 -11.151448 0
M  V30 32 H 10.259279 8.573645 -11.535132 0
M  V30 33 H 8.688424 8.541990 -10.779043 0
M  V30 34 H 8.485413 7.768426 -8.496053 0
M  V30 35 H 9.035337 6.177179 -8.979840 0
M  V30 36 H 9.350813 6.485993 -6.561655 0
M  V30 37 H 10.897089 6.287266 -7.373211 0
M  V30 38 H 9.609211 8.937623 -6.575529 0
M  V30 39 H 11.437064 6.100606 -5.220122 0
M  V30 40 H 12.378879 6.074152 -2.949638 0
M  V30 41 H 12.660142 8.236445 -1.712540 0
M  V30 42 H 11.909466 10.388523 -2.853272 0
M  V30 43 H 11.688141 9.975633 -7.393047 0
M  V30 44 H 12.344178 8.414462 -7.826781 0
M  V30 45 H 11.407163 9.540932 -9.801128 0
M  V30 46 H 9.857175 9.768246 -9.020169 0
M  V30 47 H 9.337646 4.404516 -13.434246 0
M  V30 END ATOM
M  V30 BEGIN BOND
M  V30 1 1 2 1
M  V30 2 1 3 2
M  V30 3 2 4 3
M  V30 4 1 5 4
M  V30 5 2 6 5
M  V30 6 1 7 6
M  V30 7 1 8 7
M  V30 8 2 9 8
M  V30 9 1 10 8
M  V30 10 1 11 10
M  V30 11 1 12 11
M  V30 12 1 13 12
M  V30 13 1 14 13
M  V30 14 1 15 14
M  V30 15 2 16 15
M  V30 16 1 17 16
M  V30 17 2 18 17
M  V30 18 1 19 18
M  V30 19 1 20 15
M  V30 20 2 20 19
M  V30 21 1 21 20
M  V30 22 1 22 14
M  V30 23 1 23 11
M  V30 24 1 23 22
M  V30 25 2 24 2
M  V30 26 1 24 6
M  V30 27 1 25 1
M  V30 28 1 26 1
M  V30 29 1 27 1
M  V30 30 1 28 3
M  V30 31 1 29 4
M  V30 32 1 30 5
M  V30 33 1 31 7
M  V30 34 1 32 10
M  V30 35 1 33 10
M  V30 36 1 34 12
M  V30 37 1 35 12
M  V30 38 1 36 13
M  V30 39 1 37 13
M  V30 40 1 38 14
M  V30 41 1 39 16
M  V30 42 1 40 17
M  V30 43 1 41 18
M  V30 44 1 42 19
M  V30 45 1 43 22
M  V30 46 1 44 22
M  V30 47 1 45 23
M  V30 48 1 46 23
M  V30 49 1 47 24
M  V30 END BOND
M  V30 END CTAB
M  END
>  <b_m_subgroup_collapsed>  (697) 
0

>  <r_i_docking_score>  (697) 
-7.9718877672744499

>  <s_m_subgroup_title>  (697) 
glide-dock_SP_D22_pv

>  <s_m_subgroupid>  (697) 
glide-dock_SP_D22_pv

>  <Molecule ChEMBL ID>  (697) 
CHEMBL219185

>  <Standard Type>  (697) 
Ki

>  <Standard Value>  (697) 
10000.0

>  <label>  (697) 
0

$$$$
CHEMBL492282
     RDKit          3D

  0  0  0  0  0  0  0  0  0  0999 V3000
M  V30 BEGIN CTAB
M  V30 COUNTS 72 75 0 0 1
M  V30 BEGIN ATOM
M  V30 1 C 7.337952 1.510354 -18.430298 0
M  V30 2 C 8.008499 1.578992 -17.042185 0
M  V30 3 C 9.388594 0.898186 -17.109369 0
M  V30 4 C 7.128894 0.965285 -15.946666 0
M  V30 5 C 6.476508 -0.249511 -16.256664 0
M  V30 6 C 5.578734 -0.854913 -15.365037 0
M  V30 7 C 5.328958 -0.253889 -14.126825 0
M  V30 8 C 5.990590 0.933762 -13.779598 0
M  V30 9 C 6.885817 1.571123 -14.672010 0
M  V30 10 N 7.436290 2.799504 -14.248158 0
M  V30 11 C 6.543869 3.831243 -13.725249 0
M  V30 12 C 7.110235 4.474407 -12.446238 0
M  V30 13 N 8.536903 4.863681 -12.614901 0 CHG=1
M  V30 14 C 9.094666 5.605367 -11.453241 0
M  V30 15 C 9.319609 4.715758 -10.212178 0
M  V30 16 C 9.682706 5.488750 -8.942580 0
M  V30 17 C 8.394105 5.992312 -8.289628 0
M  V30 18 C 8.540771 6.810568 -7.005320 0
M  V30 19 C 9.350161 8.092820 -7.199118 0
M  V30 20 O 8.886288 8.972299 -7.923312 0
M  V30 21 N 10.518742 8.246964 -6.548243 0
M  V30 22 C 11.194149 9.540752 -6.463552 0
M  V30 23 C 11.140263 10.040071 -5.030825 0
M  V30 24 C 11.670352 8.997546 -4.072934 0
M  V30 25 C 12.086060 9.372644 -2.784683 0
M  V30 26 C 12.486082 8.388852 -1.867620 0
M  V30 27 C 12.485965 7.033653 -2.246594 0
M  V30 28 C 12.086024 6.660614 -3.532508 0
M  V30 29 C 11.685791 7.635379 -4.454467 0
M  V30 30 C 11.245943 7.195315 -5.839154 0
M  V30 31 C 9.394935 3.737668 -13.071901 0
M  V30 32 C 8.858465 3.098207 -14.361171 0
M  V30 33 H 6.282145 1.772658 -18.377573 0
M  V30 34 H 7.832466 2.172883 -19.141399 0
M  V30 35 H 7.386129 0.507470 -18.854813 0
M  V30 36 H 8.139518 2.636829 -16.833214 0
M  V30 37 H 9.920612 0.930139 -16.161131 0
M  V30 38 H 9.293464 -0.153241 -17.382711 0
M  V30 39 H 10.023570 1.375612 -17.856211 0
M  V30 40 H 6.652396 -0.745977 -17.198277 0
M  V30 41 H 5.087533 -1.779660 -15.633427 0
M  V30 42 H 4.630208 -0.708066 -13.446824 0
M  V30 43 H 5.788218 1.362201 -12.809529 0
M  V30 44 H 6.422108 4.574824 -14.502401 0
M  V30 45 H 5.539282 3.453975 -13.534226 0
M  V30 46 H 6.514995 5.349058 -12.179759 0
M  V30 47 H 7.005330 3.772220 -11.621369 0
M  V30 48 H 10.040961 6.060931 -11.747979 0
M  V30 49 H 8.423536 6.433301 -11.218050 0
M  V30 50 H 8.404336 4.172347 -9.999007 0
M  V30 51 H 10.085985 3.970159 -10.408175 0
M  V30 52 H 10.205666 4.836116 -8.246904 0
M  V30 53 H 10.364967 6.306100 -9.177779 0
M  V30 54 H 7.865278 6.572235 -9.038356 0
M  V30 55 H 7.749629 5.145278 -8.059429 0
M  V30 56 H 7.575814 7.143246 -6.646848 0
M  V30 57 H 8.848015 6.172525 -6.190156 0
M  V30 58 H 12.225208 9.446136 -6.809004 0
M  V30 59 H 10.728919 10.314679 -7.046883 0
M  V30 60 H 10.111215 10.269290 -4.751105 0
M  V30 61 H 11.685959 10.972203 -4.975876 0
M  V30 62 H 12.085440 10.412013 -2.490703 0
M  V30 63 H 12.805046 8.680807 -0.880654 0
M  V30 64 H 12.801824 6.272205 -1.547597 0
M  V30 65 H 12.092244 5.625002 -3.818613 0
M  V30 66 H 10.745966 6.242387 -5.720893 0
M  V30 67 H 12.086031 6.935386 -6.466925 0
M  V30 68 H 10.414402 4.089347 -13.232612 0
M  V30 69 H 9.449512 2.972286 -12.299767 0
M  V30 70 H 9.421872 2.188171 -14.551976 0
M  V30 71 H 9.021705 3.775957 -15.199268 0
M  V30 72 H 8.533169 5.525649 -13.377116 0
M  V30 END ATOM
M  V30 BEGIN BOND
M  V30 1 1 2 1
M  V30 2 1 3 2
M  V30 3 1 4 2
M  V30 4 2 5 4
M  V30 5 1 6 5
M  V30 6 2 7 6
M  V30 7 1 8 7
M  V30 8 1 9 4
M  V30 9 2 9 8
M  V30 10 1 10 9
M  V30 11 1 11 10
M  V30 12 1 12 11
M  V30 13 1 13 12
M  V30 14 1 14 13
M  V30 15 1 15 14
M  V30 16 1 16 15
M  V30 17 1 17 16
M  V30 18 1 18 17
M  V30 19 1 19 18
M  V30 20 2 20 19
M  V30 21 1 21 19
M  V30 22 1 22 21
M  V30 23 1 23 22
M  V30 24 1 24 23
M  V30 25 2 25 24
M  V30 26 1 26 25
M  V30 27 2 27 26
M  V30 28 1 28 27
M  V30 29 1 29 24
M  V30 30 2 29 28
M  V30 31 1 30 21
M  V30 32 1 30 29
M  V30 33 1 31 13
M  V30 34 1 32 10
M  V30 35 1 32 31
M  V30 36 1 33 1
M  V30 37 1 34 1
M  V30 38 1 35 1
M  V30 39 1 36 2
M  V30 40 1 37 3
M  V30 41 1 38 3
M  V30 42 1 39 3
M  V30 43 1 40 5
M  V30 44 1 41 6
M  V30 45 1 42 7
M  V30 46 1 43 8
M  V30 47 1 44 11
M  V30 48 1 45 11
M  V30 49 1 46 12
M  V30 50 1 47 12
M  V30 51 1 48 14
M  V30 52 1 49 14
M  V30 53 1 50 15
M  V30 54 1 51 15
M  V30 55 1 52 16
M  V30 56 1 53 16
M  V30 57 1 54 17
M  V30 58 1 55 17
M  V30 59 1 56 18
M  V30 60 1 57 18
M  V30 61 1 58 22
M  V30 62 1 59 22
M  V30 63 1 60 23
M  V30 64 1 61 23
M  V30 65 1 62 25
M  V30 66 1 63 26
M  V30 67 1 64 27
M  V30 68 1 65 28
M  V30 69 1 66 30
M  V30 70 1 67 30
M  V30 71 1 68 31
M  V30 72 1 69 31
M  V30 73 1 70 32
M  V30 74 1 71 32
M  V30 75 1 72 13
M  V30 END BOND
M  V30 END CTAB
M  END
>  <b_m_subgroup_collapsed>  (698) 
0

>  <r_i_docking_score>  (698) 
-7.9695741962123998

>  <s_m_subgroup_title>  (698) 
glide-dock_SP_D22_pv

>  <s_m_subgroupid>  (698) 
glide-dock_SP_D22_pv

>  <Molecule ChEMBL ID>  (698) 
CHEMBL492282

>  <Standard Type>  (698) 
Ki

>  <Standard Value>  (698) 
1.3

>  <label>  (698) 
1

$$$$
CHEMBL3409240
     RDKit          3D

  0  0  0  0  0  0  0  0  0  0999 V3000
M  V30 BEGIN CTAB
M  V30 COUNTS 75 80 0 0 1
M  V30 BEGIN ATOM
M  V30 1 O 13.133465 8.972273 -1.377329 0
M  V30 2 C 12.485587 8.541913 -2.319407 0
M  V30 3 C 11.789356 7.188924 -2.174638 0
M  V30 4 C 11.624596 6.432663 -3.491697 0
M  V30 5 C 11.419899 7.324769 -4.692617 0
M  V30 6 C 10.885704 6.782321 -5.866243 0
M  V30 7 C 10.830581 7.529642 -7.041758 0
M  V30 8 C 11.272314 8.868914 -7.046382 0
M  V30 9 O 11.285971 9.638362 -8.182277 0
M  V30 10 C 11.123175 9.012206 -9.452685 0
M  V30 11 C 9.638931 8.806432 -9.821964 0
M  V30 12 C 9.436749 8.133215 -11.186040 0
M  V30 13 C 9.826600 6.648292 -11.204819 0
M  V30 14 N 9.587425 6.051577 -12.541099 0 CHG=1
M  V30 15 C 8.218977 5.490773 -12.687613 0
M  V30 16 C 8.013736 4.955188 -14.111465 0
M  V30 17 N 9.055985 3.994589 -14.442593 0
M  V30 18 C 8.775219 2.716964 -14.975270 0
M  V30 19 C 9.687018 2.153661 -15.904400 0
M  V30 20 C 9.472970 0.890029 -16.475203 0
M  V30 21 C 8.315734 0.174160 -16.148300 0
M  V30 22 C 7.387460 0.721841 -15.245001 0
M  V30 23 C 7.598603 1.987634 -14.618731 0
M  V30 24 C 6.485690 2.195560 -13.725779 0
M  V30 25 C 5.653820 1.120728 -13.848408 0
M  V30 26 N 6.136259 0.276686 -14.834876 0
M  V30 27 C 5.426169 -0.884073 -15.336831 0
M  V30 28 C 4.893385 -0.733614 -16.763689 0
M  V30 29 C 3.850780 -1.586418 -17.164375 0
M  V30 30 C 3.419554 -1.621199 -18.502132 0
M  V30 31 C 3.997454 -0.756443 -19.448128 0
M  V30 32 C 4.980940 0.159346 -19.048767 0
M  V30 33 F 5.518887 1.015325 -19.949467 0
M  V30 34 C 5.425451 0.173368 -17.714239 0
M  V30 35 C 10.416968 4.502678 -14.347139 0
M  V30 36 C 10.650571 5.095691 -12.954902 0
M  V30 37 C 11.739388 9.448214 -5.842570 0
M  V30 38 C 11.828226 8.672535 -4.665137 0
M  V30 39 N 12.382256 9.211410 -3.479488 0
M  V30 40 H 12.330242 6.570020 -1.452979 0
M  V30 41 H 10.806153 7.372816 -1.747783 0
M  V30 42 H 10.766987 5.772358 -3.409699 0
M  V30 43 H 12.485967 5.793296 -3.664955 0
M  V30 44 H 10.540354 5.772326 -5.887579 0
M  V30 45 H 10.460362 7.034604 -7.923155 0
M  V30 46 H 11.697441 8.086917 -9.496528 0
M  V30 47 H 11.584146 9.668057 -10.191691 0
M  V30 48 H 9.145023 9.772301 -9.846774 0
M  V30 49 H 9.098662 8.244552 -9.060327 0
M  V30 50 H 10.017205 8.662108 -11.939785 0
M  V30 51 H 8.389794 8.239042 -11.472713 0
M  V30 52 H 9.287790 6.091506 -10.435287 0
M  V30 53 H 10.884379 6.572811 -10.954431 0
M  V30 54 H 7.473585 6.256433 -12.467692 0
M  V30 55 H 8.072104 4.685673 -11.964989 0
M  V30 56 H 8.096743 5.772426 -14.821621 0
M  V30 57 H 7.007096 4.572734 -14.246538 0
M  V30 58 H 10.568192 2.688600 -16.222141 0
M  V30 59 H 10.180464 0.485598 -17.185720 0
M  V30 60 H 8.116960 -0.773846 -16.625872 0
M  V30 61 H 6.335788 3.023960 -13.051763 0
M  V30 62 H 4.710607 0.925487 -13.359560 0
M  V30 63 H 4.594995 -1.103691 -14.665311 0
M  V30 64 H 6.085848 -1.750114 -15.294643 0
M  V30 65 H 3.385521 -2.229219 -16.436247 0
M  V30 66 H 2.640320 -2.311795 -18.791662 0
M  V30 67 H 3.685371 -0.784208 -20.480490 0
M  V30 68 H 6.187843 0.889285 -17.461666 0
M  V30 69 H 11.164487 3.725372 -14.503354 0
M  V30 70 H 10.569483 5.258697 -15.118237 0
M  V30 71 H 11.622345 5.591396 -12.949170 0
M  V30 72 H 10.680260 4.270038 -12.246748 0
M  V30 73 H 12.075036 10.475390 -5.846631 0
M  V30 74 H 12.796819 10.130505 -3.525232 0
M  V30 75 H 9.645744 6.812243 -13.200769 0
M  V30 END ATOM
M  V30 BEGIN BOND
M  V30 1 2 2 1
M  V30 2 1 3 2
M  V30 3 1 4 3
M  V30 4 1 5 4
M  V30 5 1 6 5
M  V30 6 2 7 6
M  V30 7 1 8 7
M  V30 8 1 9 8
M  V30 9 1 10 9
M  V30 10 1 11 10
M  V30 11 1 12 11
M  V30 12 1 13 12
M  V30 13 1 14 13
M  V30 14 1 15 14
M  V30 15 1 16 15
M  V30 16 1 17 16
M  V30 17 1 18 17
M  V30 18 1 19 18
M  V30 19 2 20 19
M  V30 20 1 21 20
M  V30 21 2 22 21
M  V30 22 2 23 18
M  V30 23 1 23 22
M  V30 24 1 24 23
M  V30 25 2 25 24
M  V30 26 1 26 22
M  V30 27 1 26 25
M  V30 28 1 27 26
M  V30 29 1 28 27
M  V30 30 2 29 28
M  V30 31 1 30 29
M  V30 32 2 31 30
M  V30 33 1 32 31
M  V30 34 1 33 32
M  V30 35 1 34 28
M  V30 36 2 34 32
M  V30 37 1 35 17
M  V30 38 1 36 14
M  V30 39 1 36 35
M  V30 40 2 37 8
M  V30 41 2 38 5
M  V30 42 1 38 37
M  V30 43 1 39 2
M  V30 44 1 39 38
M  V30 45 1 40 3
M  V30 46 1 41 3
M  V30 47 1 42 4
M  V30 48 1 43 4
M  V30 49 1 44 6
M  V30 50 1 45 7
M  V30 51 1 46 10
M  V30 52 1 47 10
M  V30 53 1 48 11
M  V30 54 1 49 11
M  V30 55 1 50 12
M  V30 56 1 51 12
M  V30 57 1 52 13
M  V30 58 1 53 13
M  V30 59 1 54 15
M  V30 60 1 55 15
M  V30 61 1 56 16
M  V30 62 1 57 16
M  V30 63 1 58 19
M  V30 64 1 59 20
M  V30 65 1 60 21
M  V30 66 1 61 24
M  V30 67 1 62 25
M  V30 68 1 63 27
M  V30 69 1 64 27
M  V30 70 1 65 29
M  V30 71 1 66 30
M  V30 72 1 67 31
M  V30 73 1 68 34
M  V30 74 1 69 35
M  V30 75 1 70 35
M  V30 76 1 71 36
M  V30 77 1 72 36
M  V30 78 1 73 37
M  V30 79 1 74 39
M  V30 80 1 75 14
M  V30 END BOND
M  V30 END CTAB
M  END
>  <b_m_subgroup_collapsed>  (699) 
0

>  <r_i_docking_score>  (699) 
-7.9694918549800802

>  <s_m_subgroup_title>  (699) 
glide-dock_SP_D22_pv

>  <s_m_subgroupid>  (699) 
glide-dock_SP_D22_pv

>  <Molecule ChEMBL ID>  (699) 
CHEMBL3409240

>  <Standard Type>  (699) 
Ki

>  <Standard Value>  (699) 
6.1

>  <label>  (699) 
1

$$$$
CHEMBL86504
     RDKit          3D

  0  0  0  0  0  0  0  0  0  0999 V3000
M  V30 BEGIN CTAB
M  V30 COUNTS 41 43 0 0 1
M  V30 BEGIN ATOM
M  V30 1 F 8.855541 0.806342 -16.960819 0
M  V30 2 C 9.934860 0.776273 -16.180073 0
M  V30 3 F 11.002866 0.546659 -16.947479 0
M  V30 4 F 9.815555 -0.229932 -15.320021 0
M  V30 5 C 10.078870 2.064378 -15.429307 0
M  V30 6 N 9.132721 2.573492 -14.637957 0
M  V30 7 C 9.727573 3.724519 -14.144986 0
M  V30 8 C 9.240224 4.692441 -13.231937 0
M  V30 9 O 7.976225 4.491963 -12.704731 0
M  V30 10 C 7.536377 5.316379 -11.627904 0
M  V30 11 C 8.277353 4.971243 -10.316548 0
M  V30 12 N 8.489811 6.172482 -9.485073 0 CHG=1
M  V30 13 C 9.164352 5.919824 -8.200342 0
M  V30 14 C 10.004758 7.116843 -7.799707 0
M  V30 15 C 11.130635 7.478843 -8.570392 0
M  V30 16 C 11.941186 8.562846 -8.181168 0
M  V30 17 C 11.631312 9.287572 -7.012906 0
M  V30 18 C 10.499481 8.942775 -6.252672 0
M  V30 19 C 9.685022 7.861642 -6.647284 0
M  V30 20 C 10.060346 5.804420 -12.912177 0
M  V30 21 C 11.339271 5.959260 -13.477039 0
M  V30 22 Cl 12.267042 7.365481 -13.108569 0
M  V30 23 C 11.850125 4.987656 -14.352780 0
M  V30 24 C 11.042387 3.888725 -14.679199 0
M  V30 25 N 11.216470 2.783163 -15.492840 0
M  V30 26 H 6.467602 5.150023 -11.481270 0
M  V30 27 H 7.613857 6.369326 -11.894328 0
M  V30 28 H 9.262345 4.543381 -10.521488 0
M  V30 29 H 7.727004 4.201587 -9.770245 0
M  V30 30 H 7.604305 6.652742 -9.325531 0
M  V30 31 H 9.829637 5.058108 -8.275294 0
M  V30 32 H 8.409833 5.681813 -7.447344 0
M  V30 33 H 11.383763 6.921620 -9.460649 0
M  V30 34 H 12.804982 8.834374 -8.772463 0
M  V30 35 H 12.261861 10.108815 -6.696595 0
M  V30 36 H 10.260988 9.509341 -5.364506 0
M  V30 37 H 8.821222 7.601574 -6.056012 0
M  V30 38 H 9.725793 6.585995 -12.250363 0
M  V30 39 H 12.837236 5.098336 -14.780782 0
M  V30 40 H 12.026155 2.521301 -16.036877 0
M  V30 41 H 9.065637 6.818088 -10.010075 0
M  V30 END ATOM
M  V30 BEGIN BOND
M  V30 1 1 2 1
M  V30 2 1 3 2
M  V30 3 1 4 2
M  V30 4 1 5 2
M  V30 5 2 6 5
M  V30 6 1 7 6
M  V30 7 2 8 7
M  V30 8 1 9 8
M  V30 9 1 10 9
M  V30 10 1 11 10
M  V30 11 1 12 11
M  V30 12 1 13 12
M  V30 13 1 14 13
M  V30 14 2 15 14
M  V30 15 1 16 15
M  V30 16 2 17 16
M  V30 17 1 18 17
M  V30 18 1 19 14
M  V30 19 2 19 18
M  V30 20 1 20 8
M  V30 21 2 21 20
M  V30 22 1 22 21
M  V30 23 1 23 21
M  V30 24 1 24 7
M  V30 25 2 24 23
M  V30 26 1 25 5
M  V30 27 1 25 24
M  V30 28 1 26 10
M  V30 29 1 27 10
M  V30 30 1 28 11
M  V30 31 1 29 11
M  V30 32 1 30 12
M  V30 33 1 31 13
M  V30 34 1 32 13
M  V30 35 1 33 15
M  V30 36 1 34 16
M  V30 37 1 35 17
M  V30 38 1 36 18
M  V30 39 1 37 19
M  V30 40 1 38 20
M  V30 41 1 39 23
M  V30 42 1 40 25
M  V30 43 1 41 12
M  V30 END BOND
M  V30 END CTAB
M  END
>  <b_m_subgroup_collapsed>  (700) 
0

>  <r_i_docking_score>  (700) 
-7.9661979366213798

>  <s_m_subgroup_title>  (700) 
glide-dock_SP_D22_pv

>  <s_m_subgroupid>  (700) 
glide-dock_SP_D22_pv

>  <Molecule ChEMBL ID>  (700) 
CHEMBL86504

>  <Standard Type>  (700) 
Ki

>  <Standard Value>  (700) 
32.4

>  <label>  (700) 
1

$$$$
CHEMBL5958689
     RDKit          3D

  0  0  0  0  0  0  0  0  0  0999 V3000
M  V30 BEGIN CTAB
M  V30 COUNTS 54 58 0 0 1
M  V30 BEGIN ATOM
M  V30 1 C 6.562430 0.411678 -15.283526 0
M  V30 2 N 7.692949 1.236679 -14.908803 0
M  V30 3 C 8.995201 0.974993 -15.113243 0
M  V30 4 N 9.828913 1.911827 -14.668082 0
M  V30 5 C 8.974952 2.862554 -14.110966 0
M  V30 6 C 7.675854 2.465002 -14.260065 0
M  V30 7 C 6.500972 3.240472 -13.795203 0
M  V30 8 C 6.922670 4.259924 -12.708312 0
M  V30 9 N 8.319296 4.764574 -12.791409 0
M  V30 10 C 8.572618 5.960676 -11.976528 0
M  V30 11 C 9.131272 5.577259 -10.593030 0
M  V30 12 N 9.285873 6.771891 -9.725537 0 CFG=2 CHG=1
M  V30 13 C 10.686863 7.259743 -9.638452 0
M  V30 14 C 10.804595 8.578356 -8.841940 0
M  V30 15 C 10.099433 8.537963 -7.467372 0 CFG=2
M  V30 16 C 10.874664 7.864718 -6.361000 0
M  V30 17 N 11.166165 6.572238 -6.440352 0
M  V30 18 O 11.685958 6.172659 -5.183129 0
M  V30 19 C 11.777527 7.263035 -4.344743 0
M  V30 20 C 12.241989 7.381691 -3.028750 0
M  V30 21 C 12.228761 8.666092 -2.450677 0
M  V30 22 C 11.753846 9.772148 -3.194163 0
M  V30 23 C 11.284403 9.625039 -4.519639 0
M  V30 24 C 11.297143 8.338392 -5.096866 0
M  V30 25 C 8.693999 7.926092 -7.612527 0
M  V30 26 C 8.695436 6.581334 -8.381259 0
M  V30 27 C 9.343081 4.135470 -13.433335 0
M  V30 28 O 10.499644 4.560403 -13.434210 0
M  V30 29 H 5.831247 0.389325 -14.476015 0
M  V30 30 H 6.095139 0.816162 -16.180719 0
M  V30 31 H 6.890847 -0.608861 -15.482639 0
M  V30 32 H 9.341298 0.075944 -15.602405 0
M  V30 33 H 6.071883 3.769597 -14.645774 0
M  V30 34 H 5.721303 2.581636 -13.412274 0
M  V30 35 H 6.838175 3.771330 -11.736348 0
M  V30 36 H 6.201709 5.078571 -12.689871 0
M  V30 37 H 7.654018 6.536969 -11.856868 0
M  V30 38 H 9.264121 6.628545 -12.492929 0
M  V30 39 H 10.084415 5.051970 -10.685947 0
M  V30 40 H 8.445164 4.862717 -10.134346 0
M  V30 41 H 11.089513 7.401832 -10.642270 0
M  V30 42 H 11.286334 6.486156 -9.163660 0
M  V30 43 H 10.342247 9.366370 -9.438262 0
M  V30 44 H 11.850497 8.868199 -8.727278 0
M  V30 45 H 9.965022 9.574865 -7.161595 0
M  V30 46 H 12.600041 6.519985 -2.485082 0
M  V30 47 H 12.580316 8.809950 -1.439505 0
M  V30 48 H 11.749722 10.748561 -2.734170 0
M  V30 49 H 10.917982 10.478963 -5.070203 0
M  V30 50 H 8.212893 7.810516 -6.641444 0
M  V30 51 H 8.086882 8.644861 -8.159279 0
M  V30 52 H 7.687876 6.173657 -8.484248 0
M  V30 53 H 9.237892 5.805839 -7.844229 0
M  V30 54 H 8.711160 7.490613 -10.150968 0
M  V30 END ATOM
M  V30 BEGIN BOND
M  V30 1 1 2 1
M  V30 2 1 3 2
M  V30 3 2 4 3
M  V30 4 1 5 4
M  V30 5 1 6 2
M  V30 6 2 6 5
M  V30 7 1 7 6
M  V30 8 1 8 7
M  V30 9 1 9 8
M  V30 10 1 10 9
M  V30 11 1 11 10
M  V30 12 1 12 11
M  V30 13 1 13 12
M  V30 14 1 14 13
M  V30 15 1 15 14
M  V30 16 1 16 15
M  V30 17 2 17 16
M  V30 18 1 18 17
M  V30 19 1 19 18
M  V30 20 2 20 19
M  V30 21 1 21 20
M  V30 22 2 22 21
M  V30 23 1 23 22
M  V30 24 1 24 16
M  V30 25 1 24 19
M  V30 26 2 24 23
M  V30 27 1 25 15
M  V30 28 1 26 12
M  V30 29 1 26 25
M  V30 30 1 27 5
M  V30 31 1 27 9
M  V30 32 2 28 27
M  V30 33 1 29 1
M  V30 34 1 30 1
M  V30 35 1 31 1
M  V30 36 1 32 3
M  V30 37 1 33 7
M  V30 38 1 34 7
M  V30 39 1 35 8
M  V30 40 1 36 8
M  V30 41 1 37 10
M  V30 42 1 38 10
M  V30 43 1 39 11
M  V30 44 1 40 11
M  V30 45 1 41 13
M  V30 46 1 42 13
M  V30 47 1 43 14
M  V30 48 1 44 14
M  V30 49 1 15 45 CFG=1
M  V30 50 1 46 20
M  V30 51 1 47 21
M  V30 52 1 48 22
M  V30 53 1 49 23
M  V30 54 1 50 25
M  V30 55 1 51 25
M  V30 56 1 52 26
M  V30 57 1 53 26
M  V30 58 1 12 54 CFG=3
M  V30 END BOND
M  V30 END CTAB
M  END
>  <b_m_subgroup_collapsed>  (701) 
0

>  <r_i_docking_score>  (701) 
-7.9659300817541903

>  <s_m_subgroup_title>  (701) 
glide-dock_SP_D22_pv

>  <s_m_subgroupid>  (701) 
glide-dock_SP_D22_pv

>  <Molecule ChEMBL ID>  (701) 
CHEMBL5958689

>  <Standard Type>  (701) 
Ki

>  <Standard Value>  (701) 
34023.0

>  <label>  (701) 
0

$$$$
CHEMBL3800150
     RDKit          3D

  0  0  0  0  0  0  0  0  0  0999 V3000
M  V30 BEGIN CTAB
M  V30 COUNTS 72 76 0 0 1
M  V30 BEGIN ATOM
M  V30 1 C 11.579778 0.234768 -17.838499 0
M  V30 2 C 11.770976 1.743041 -18.065828 0
M  V30 3 C 12.949582 1.998578 -19.018736 0
M  V30 4 C 11.926791 2.501752 -16.732962 0
M  V30 5 S 11.789334 4.327337 -16.964378 0
M  V30 6 O 10.609776 4.649812 -17.781288 0
M  V30 7 O 13.111590 4.880332 -17.295555 0
M  V30 8 N 11.429414 4.878989 -15.376607 0
M  V30 9 C 12.238729 5.745009 -14.655266 0
M  V30 10 C 11.657176 6.024333 -13.448318 0
M  V30 11 C 10.408469 5.312030 -13.413414 0
M  V30 12 C 9.333921 5.162763 -12.497259 0
M  V30 13 C 9.346876 5.838459 -11.177302 0
M  V30 14 C 8.885962 5.160582 -10.028529 0
M  V30 15 C 8.975700 5.735199 -8.750155 0
M  V30 16 C 9.540244 7.008265 -8.576676 0
M  V30 17 O 9.654168 7.463021 -7.284366 0
M  V30 18 C 10.624075 8.463035 -7.005184 0
M  V30 19 C 11.103120 8.356936 -5.570416 0
M  V30 20 C 11.286497 7.083103 -4.988378 0
M  V30 21 C 11.778981 6.969528 -3.673466 0
M  V30 22 C 12.086136 8.126153 -2.933318 0
M  V30 23 C 11.893677 9.395547 -3.507910 0
M  V30 24 C 11.405843 9.514942 -4.825659 0
M  V30 25 C 9.961019 7.728894 -9.720887 0
M  V30 26 C 9.852700 7.149296 -11.003004 0
M  V30 27 C 8.278212 4.283679 -12.850631 0
M  V30 28 C 8.304549 3.550998 -14.063888 0
M  V30 29 N 7.317453 2.578148 -14.393915 0
M  V30 30 C 7.335527 1.883716 -15.687892 0
M  V30 31 C 7.102600 0.375604 -15.496173 0
M  V30 32 N 5.842534 0.132566 -14.758297 0 CHG=1
M  V30 33 C 5.523455 -1.309302 -14.646458 0
M  V30 34 C 5.817914 0.830578 -13.447952 0
M  V30 35 C 6.120408 2.342907 -13.581947 0
M  V30 36 N 9.293893 3.720628 -14.967104 0
M  V30 37 C 10.302585 4.573829 -14.625248 0
M  V30 38 H 12.486956 -0.224346 -17.446268 0
M  V30 39 H 10.765309 0.035431 -17.138472 0
M  V30 40 H 11.338509 -0.274099 -18.774252 0
M  V30 41 H 10.862002 2.106246 -18.551424 0
M  V30 42 H 13.896688 1.694389 -18.569471 0
M  V30 43 H 12.831920 1.442033 -19.948799 0
M  V30 44 H 13.033867 3.050504 -19.285549 0
M  V30 45 H 12.878592 2.284475 -16.248463 0
M  V30 46 H 11.137568 2.192755 -16.049910 0
M  V30 47 H 13.172149 6.103911 -15.064858 0
M  V30 48 H 12.060740 6.664284 -12.675761 0
M  V30 49 H 8.470426 4.172417 -10.114822 0
M  V30 50 H 8.626827 5.186341 -7.889565 0
M  V30 51 H 10.192879 9.447812 -7.190298 0
M  V30 52 H 11.505293 8.356916 -7.639659 0
M  V30 53 H 11.061948 6.188828 -5.548182 0
M  V30 54 H 11.921383 5.992262 -3.233075 0
M  V30 55 H 12.456041 8.040606 -1.921879 0
M  V30 56 H 12.118760 10.282800 -2.935849 0
M  V30 57 H 11.273823 10.492785 -5.265204 0
M  V30 58 H 10.367839 8.726624 -9.633757 0
M  V30 59 H 10.180387 7.720538 -11.858924 0
M  V30 60 H 7.474810 4.180209 -12.141012 0
M  V30 61 H 6.544204 2.300616 -16.313696 0
M  V30 62 H 8.260010 2.013119 -16.249365 0
M  V30 63 H 7.061959 -0.115729 -16.469660 0
M  V30 64 H 7.941204 -0.067544 -14.954128 0
M  V30 65 H 6.250458 -1.827690 -14.016651 0
M  V30 66 H 4.532985 -1.449488 -14.211599 0
M  V30 67 H 5.522075 -1.789906 -15.626237 0
M  V30 68 H 4.844152 0.697542 -12.976266 0
M  V30 69 H 6.549200 0.364833 -12.787949 0
M  V30 70 H 6.181825 2.755256 -12.579614 0
M  V30 71 H 5.286032 2.855070 -14.056694 0
M  V30 72 H 5.108360 0.543045 -15.318144 0
M  V30 END ATOM
M  V30 BEGIN BOND
M  V30 1 1 2 1
M  V30 2 1 3 2
M  V30 3 1 4 2
M  V30 4 1 5 4
M  V30 5 2 6 5
M  V30 6 2 7 5
M  V30 7 1 8 5
M  V30 8 1 9 8
M  V30 9 2 10 9
M  V30 10 1 11 10
M  V30 11 2 12 11
M  V30 12 1 13 12
M  V30 13 1 14 13
M  V30 14 2 15 14
M  V30 15 1 16 15
M  V30 16 1 17 16
M  V30 17 1 18 17
M  V30 18 1 19 18
M  V30 19 2 20 19
M  V30 20 1 21 20
M  V30 21 2 22 21
M  V30 22 1 23 22
M  V30 23 1 24 19
M  V30 24 2 24 23
M  V30 25 2 25 16
M  V30 26 2 26 13
M  V30 27 1 26 25
M  V30 28 1 27 12
M  V30 29 2 28 27
M  V30 30 1 29 28
M  V30 31 1 30 29
M  V30 32 1 31 30
M  V30 33 1 32 31
M  V30 34 1 33 32
M  V30 35 1 34 32
M  V30 36 1 35 29
M  V30 37 1 35 34
M  V30 38 1 36 28
M  V30 39 1 37 8
M  V30 40 1 37 11
M  V30 41 2 37 36
M  V30 42 1 38 1
M  V30 43 1 39 1
M  V30 44 1 40 1
M  V30 45 1 41 2
M  V30 46 1 42 3
M  V30 47 1 43 3
M  V30 48 1 44 3
M  V30 49 1 45 4
M  V30 50 1 46 4
M  V30 51 1 47 9
M  V30 52 1 48 10
M  V30 53 1 49 14
M  V30 54 1 50 15
M  V30 55 1 51 18
M  V30 56 1 52 18
M  V30 57 1 53 20
M  V30 58 1 54 21
M  V30 59 1 55 22
M  V30 60 1 56 23
M  V30 61 1 57 24
M  V30 62 1 58 25
M  V30 63 1 59 26
M  V30 64 1 60 27
M  V30 65 1 61 30
M  V30 66 1 62 30
M  V30 67 1 63 31
M  V30 68 1 64 31
M  V30 69 1 65 33
M  V30 70 1 66 33
M  V30 71 1 67 33
M  V30 72 1 68 34
M  V30 73 1 69 34
M  V30 74 1 70 35
M  V30 75 1 71 35
M  V30 76 1 72 32
M  V30 END BOND
M  V30 END CTAB
M  END
>  <b_m_subgroup_collapsed>  (702) 
0

>  <r_i_docking_score>  (702) 
-7.9658501031143096

>  <s_m_subgroup_title>  (702) 
glide-dock_SP_D22_pv

>  <s_m_subgroupid>  (702) 
glide-dock_SP_D22_pv

>  <Molecule ChEMBL ID>  (702) 
CHEMBL3800150

>  <Standard Type>  (702) 
Ki

>  <Standard Value>  (702) 
86.0

>  <label>  (702) 
1

$$$$
CHEMBL4584497
     RDKit          3D

  0  0  0  0  0  0  0  0  0  0999 V3000
M  V30 BEGIN CTAB
M  V30 COUNTS 63 66 0 0 1
M  V30 BEGIN ATOM
M  V30 1 C 3.523775 -1.153187 -15.569734 0
M  V30 2 C 4.936960 -1.430742 -15.035007 0
M  V30 3 C 5.867380 -0.258909 -15.298682 0
M  V30 4 C 6.510493 -0.221610 -16.549137 0
M  V30 5 C 7.347950 0.853529 -16.875856 0
M  V30 6 C 7.531672 1.897710 -15.953147 0
M  V30 7 C 6.903112 1.896871 -14.684582 0
M  V30 8 N 7.145103 3.015246 -13.847033 0
M  V30 9 C 8.528364 3.424504 -13.636211 0
M  V30 10 C 8.599249 4.949523 -13.585044 0
M  V30 11 N 7.727934 5.512105 -12.513391 0 CHG=1
M  V30 12 C 7.811105 6.998274 -12.461331 0
M  V30 13 C 8.838444 7.560569 -11.455656 0 CFG=2
M  V30 14 F 8.857141 8.883712 -11.617706 0
M  V30 15 C 10.278325 7.050761 -11.629081 0
M  V30 16 C 11.333912 7.751291 -10.753742 0
M  V30 17 N 11.011686 7.892441 -9.346702 0
M  V30 18 C 10.548379 6.972893 -8.492801 0
M  V30 19 O 10.097519 5.872923 -8.810310 0
M  V30 20 C 10.808366 7.327518 -7.095785 0
M  V30 21 C 11.286083 6.595664 -6.044513 0
M  V30 22 C 11.476848 7.501215 -4.953447 0
M  V30 23 C 11.983490 7.378854 -3.638546 0
M  V30 24 C 12.086037 8.506999 -2.800939 0
M  V30 25 C 11.687540 9.772025 -3.270262 0
M  V30 26 C 11.175410 9.923621 -4.566666 0
M  V30 27 C 11.075456 8.797078 -5.391505 0
M  V30 28 N 10.635858 8.638276 -6.684480 0
M  V30 29 C 6.317177 5.040029 -12.629885 0
M  V30 30 C 6.186146 3.518501 -12.862588 0
M  V30 31 C 6.073561 0.780915 -14.349689 0
M  V30 32 Cl 5.286384 0.646429 -12.814109 0
M  V30 33 H 2.887644 -2.027242 -15.444628 0
M  V30 34 H 3.056904 -0.311058 -15.053742 0
M  V30 35 H 3.544929 -0.925518 -16.637737 0
M  V30 36 H 5.339036 -2.319314 -15.527981 0
M  V30 37 H 4.904494 -1.681521 -13.976479 0
M  V30 38 H 6.357586 -1.015199 -17.266150 0
M  V30 39 H 7.840728 0.887033 -17.835556 0
M  V30 40 H 8.154483 2.726650 -16.257212 0
M  V30 41 H 8.900979 3.004426 -12.701783 0
M  V30 42 H 9.201407 3.050192 -14.406484 0
M  V30 43 H 9.637854 5.236349 -13.445833 0
M  V30 44 H 8.296214 5.354470 -14.552011 0
M  V30 45 H 8.039214 7.374029 -13.446821 0
M  V30 46 H 6.831938 7.423050 -12.247076 0
M  V30 47 H 8.486166 7.379745 -10.439834 0
M  V30 48 H 10.307143 5.983678 -11.419361 0
M  V30 49 H 10.584935 7.171590 -12.666645 0
M  V30 50 H 12.291217 7.240395 -10.841705 0
M  V30 51 H 11.503366 8.764606 -11.104868 0
M  V30 52 H 11.380554 8.724941 -8.916039 0
M  V30 53 H 11.566796 5.557200 -6.056478 0
M  V30 54 H 12.296688 6.409487 -3.276258 0
M  V30 55 H 12.475574 8.407144 -1.800441 0
M  V30 56 H 11.788589 10.645877 -2.646541 0
M  V30 57 H 10.876785 10.895979 -4.931466 0
M  V30 58 H 10.245586 9.356441 -7.276082 0
M  V30 59 H 5.772393 5.319438 -11.727347 0
M  V30 60 H 5.827874 5.562953 -13.446901 0
M  V30 61 H 5.165336 3.299259 -13.176388 0
M  V30 62 H 6.353103 3.004004 -11.915419 0
M  V30 63 H 8.059611 5.163497 -11.624557 0
M  V30 END ATOM
M  V30 BEGIN BOND
M  V30 1 1 2 1
M  V30 2 1 3 2
M  V30 3 1 4 3
M  V30 4 2 5 4
M  V30 5 1 6 5
M  V30 6 2 7 6
M  V30 7 1 8 7
M  V30 8 1 9 8
M  V30 9 1 10 9
M  V30 10 1 11 10
M  V30 11 1 12 11
M  V30 12 1 13 12
M  V30 13 1 14 13
M  V30 14 1 15 13
M  V30 15 1 16 15
M  V30 16 1 17 16
M  V30 17 1 18 17
M  V30 18 2 19 18
M  V30 19 1 20 18
M  V30 20 2 21 20
M  V30 21 1 22 21
M  V30 22 2 23 22
M  V30 23 1 24 23
M  V30 24 2 25 24
M  V30 25 1 26 25
M  V30 26 1 27 22
M  V30 27 2 27 26
M  V30 28 1 28 20
M  V30 29 1 28 27
M  V30 30 1 29 11
M  V30 31 1 30 8
M  V30 32 1 30 29
M  V30 33 2 31 3
M  V30 34 1 31 7
M  V30 35 1 32 31
M  V30 36 1 33 1
M  V30 37 1 34 1
M  V30 38 1 35 1
M  V30 39 1 36 2
M  V30 40 1 37 2
M  V30 41 1 38 4
M  V30 42 1 39 5
M  V30 43 1 40 6
M  V30 44 1 41 9
M  V30 45 1 42 9
M  V30 46 1 43 10
M  V30 47 1 44 10
M  V30 48 1 45 12
M  V30 49 1 46 12
M  V30 50 1 13 47 CFG=1
M  V30 51 1 48 15
M  V30 52 1 49 15
M  V30 53 1 50 16
M  V30 54 1 51 16
M  V30 55 1 52 17
M  V30 56 1 53 21
M  V30 57 1 54 23
M  V30 58 1 55 24
M  V30 59 1 56 25
M  V30 60 1 57 26
M  V30 61 1 58 28
M  V30 62 1 59 29
M  V30 63 1 60 29
M  V30 64 1 61 30
M  V30 65 1 62 30
M  V30 66 1 63 11
M  V30 END BOND
M  V30 END CTAB
M  END
>  <b_m_subgroup_collapsed>  (703) 
0

>  <r_i_docking_score>  (703) 
-7.9656811290634

>  <s_m_subgroup_title>  (703) 
glide-dock_SP_D22_pv

>  <s_m_subgroupid>  (703) 
glide-dock_SP_D22_pv

>  <Molecule ChEMBL ID>  (703) 
CHEMBL4584497

>  <Standard Type>  (703) 
Ki

>  <Standard Value>  (703) 
80.2

>  <label>  (703) 
1

$$$$
CHEMBL124234
     RDKit          3D

  0  0  0  0  0  0  0  0  0  0999 V3000
M  V30 BEGIN CTAB
M  V30 COUNTS 53 56 0 0 1
M  V30 BEGIN ATOM
M  V30 1 C 12.693364 8.974528 -1.641433 0
M  V30 2 C 12.126098 8.561170 -2.976152 0
M  V30 3 C 11.602645 9.531004 -3.852987 0
M  V30 4 C 10.979590 9.140141 -5.054206 0
M  V30 5 C 10.885736 7.767344 -5.376134 0
M  V30 6 C 9.974133 7.286025 -6.487472 0
M  V30 7 N 10.247098 7.945264 -7.776928 0 CFG=2 CHG=1
M  V30 8 C 9.039424 7.965451 -8.633655 0
M  V30 9 C 9.318803 8.766524 -9.902985 0
M  V30 10 C 10.491190 8.193556 -10.706369 0 CFG=2
M  V30 11 C 10.232741 6.834308 -11.443785 0 CFG=1
M  V30 12 C 8.781073 6.583367 -11.897358 0
M  V30 13 C 8.574492 5.161149 -12.442593 0
M  V30 14 C 9.679143 4.698792 -13.377973 0
M  V30 15 C 9.468415 3.543465 -14.159668 0
M  V30 16 C 10.469708 3.080993 -15.033011 0
M  V30 17 C 11.687013 3.776846 -15.135985 0
M  V30 18 C 11.907296 4.930044 -14.358704 0
M  V30 19 C 10.913083 5.391933 -13.466106 0
M  V30 20 C 11.174727 6.607080 -12.647141 0
M  V30 21 O 12.115795 7.372085 -12.857784 0
M  V30 22 C 11.725698 8.155052 -9.780005 0
M  V30 23 C 11.437121 7.394403 -8.473530 0
M  V30 24 C 11.495748 6.814064 -4.539900 0
M  V30 25 C 12.101051 7.202593 -3.335274 0
M  V30 26 H 12.762926 8.133244 -0.957359 0
M  V30 27 H 13.688288 9.370442 -1.784067 0
M  V30 28 H 12.086413 9.752537 -1.179121 0
M  V30 29 H 11.627680 10.572441 -3.568610 0
M  V30 30 H 10.504244 9.888492 -5.670967 0
M  V30 31 H 8.955753 7.507428 -6.166620 0
M  V30 32 H 10.022638 6.200187 -6.599927 0
M  V30 33 H 8.226266 8.446834 -8.087934 0
M  V30 34 H 8.716413 6.948931 -8.860624 0
M  V30 35 H 9.577865 9.773291 -9.596946 0
M  V30 36 H 8.440254 8.886986 -10.529451 0
M  V30 37 H 10.672769 8.962061 -11.446820 0
M  V30 38 H 10.456590 6.039394 -10.734461 0
M  V30 39 H 8.086643 6.703669 -11.072509 0
M  V30 40 H 8.499909 7.323344 -12.646901 0
M  V30 41 H 7.609394 5.095046 -12.946306 0
M  V30 42 H 8.534876 4.457489 -11.608658 0
M  V30 43 H 8.536566 3.001907 -14.085459 0
M  V30 44 H 10.303782 2.194152 -15.627549 0
M  V30 45 H 12.456235 3.423536 -15.807250 0
M  V30 46 H 12.853531 5.449052 -14.441604 0
M  V30 47 H 12.583524 7.713624 -10.285315 0
M  V30 48 H 12.023115 9.175428 -9.535049 0
M  V30 49 H 12.308603 7.457947 -7.821109 0
M  V30 50 H 11.281448 6.334426 -8.677361 0
M  V30 51 H 11.423538 5.769679 -4.777368 0
M  V30 52 H 12.509939 6.451229 -2.674660 0
M  V30 53 H 10.454845 8.908847 -7.562452 0
M  V30 END ATOM
M  V30 BEGIN BOND
M  V30 1 1 2 1
M  V30 2 1 3 2
M  V30 3 2 4 3
M  V30 4 1 5 4
M  V30 5 1 6 5
M  V30 6 1 7 6
M  V30 7 1 8 7
M  V30 8 1 9 8
M  V30 9 1 10 9
M  V30 10 1 11 10
M  V30 11 1 12 11
M  V30 12 1 13 12
M  V30 13 1 14 13
M  V30 14 2 15 14
M  V30 15 1 16 15
M  V30 16 2 17 16
M  V30 17 1 18 17
M  V30 18 1 19 14
M  V30 19 2 19 18
M  V30 20 1 20 11
M  V30 21 1 20 19
M  V30 22 2 21 20
M  V30 23 1 22 10
M  V30 24 1 23 7
M  V30 25 1 23 22
M  V30 26 2 24 5
M  V30 27 2 25 2
M  V30 28 1 25 24
M  V30 29 1 26 1
M  V30 30 1 27 1
M  V30 31 1 28 1
M  V30 32 1 29 3
M  V30 33 1 30 4
M  V30 34 1 31 6
M  V30 35 1 32 6
M  V30 36 1 33 8
M  V30 37 1 34 8
M  V30 38 1 35 9
M  V30 39 1 36 9
M  V30 40 1 10 37 CFG=3
M  V30 41 1 11 38 CFG=1
M  V30 42 1 39 12
M  V30 43 1 40 12
M  V30 44 1 41 13
M  V30 45 1 42 13
M  V30 46 1 43 15
M  V30 47 1 44 16
M  V30 48 1 45 17
M  V30 49 1 46 18
M  V30 50 1 47 22
M  V30 51 1 48 22
M  V30 52 1 49 23
M  V30 53 1 50 23
M  V30 54 1 51 24
M  V30 55 1 52 25
M  V30 56 1 7 53 CFG=1
M  V30 END BOND
M  V30 END CTAB
M  END
>  <b_m_subgroup_collapsed>  (704) 
0

>  <r_i_docking_score>  (704) 
-7.9645494583087801

>  <s_m_subgroup_title>  (704) 
glide-dock_SP_D22_pv

>  <s_m_subgroupid>  (704) 
glide-dock_SP_D22_pv

>  <Molecule ChEMBL ID>  (704) 
CHEMBL124234

>  <Standard Type>  (704) 
Ki

>  <Standard Value>  (704) 
37.0

>  <label>  (704) 
1

$$$$
CHEMBL219182
     RDKit          3D

  0  0  0  0  0  0  0  0  0  0999 V3000
M  V30 BEGIN CTAB
M  V30 COUNTS 47 49 0 0 1
M  V30 BEGIN ATOM
M  V30 1 C 7.748491 2.174581 -15.127571 0
M  V30 2 C 7.442728 3.198931 -14.054688 0
M  V30 3 C 6.171759 3.224659 -13.447310 0
M  V30 4 C 5.896344 4.165194 -12.440273 0
M  V30 5 C 6.885201 5.081277 -12.036272 0
M  V30 6 C 8.164761 5.075493 -12.641129 0
M  V30 7 C 9.248983 6.029577 -12.206470 0
M  V30 8 O 10.395982 5.914000 -12.641434 0
M  V30 9 N 8.886052 7.005757 -11.358475 0
M  V30 10 C 9.767960 8.005503 -10.774187 0
M  V30 11 N 10.294279 7.729524 -9.437057 0
M  V30 12 C 9.190248 7.599357 -8.475510 0
M  V30 13 C 9.727233 7.291021 -7.065396 0
M  V30 14 C 10.670265 8.417936 -6.619354 0
M  V30 15 C 11.202977 8.293536 -5.188461 0
M  V30 16 C 11.603577 7.048622 -4.648708 0
M  V30 17 C 12.090046 6.971700 -3.334697 0
M  V30 18 C 12.203660 8.149994 -2.584455 0
M  V30 19 C 11.806794 9.369447 -3.158516 0
M  V30 20 N 11.293869 9.434865 -4.423287 0 CHG=1
M  V30 21 O 10.886661 10.571523 -4.866285 0 CHG=-1
M  V30 22 C 11.794826 8.554471 -7.654613 0
M  V30 23 C 11.203716 8.813624 -9.050537 0
M  V30 24 C 8.429877 4.124561 -13.655049 0
M  V30 25 H 7.174853 1.260814 -14.968499 0
M  V30 26 H 7.498045 2.571619 -16.112312 0
M  V30 27 H 8.807400 1.912606 -15.122224 0
M  V30 28 H 5.410277 2.520305 -13.745468 0
M  V30 29 H 4.927352 4.176402 -11.962736 0
M  V30 30 H 6.639081 5.772505 -11.243763 0
M  V30 31 H 7.912843 7.064090 -11.064320 0
M  V30 32 H 10.604242 8.179362 -11.453129 0
M  V30 33 H 9.204374 8.939989 -10.753071 0
M  V30 34 H 8.597913 8.515759 -8.458091 0
M  V30 35 H 8.512340 6.799267 -8.781389 0
M  V30 36 H 8.892723 7.198665 -6.368827 0
M  V30 37 H 10.238028 6.327465 -7.074516 0
M  V30 38 H 10.068700 9.325360 -6.677409 0
M  V30 39 H 11.532970 6.146103 -5.236296 0
M  V30 40 H 12.383795 6.020202 -2.913091 0
M  V30 41 H 12.583580 8.124999 -1.574885 0
M  V30 42 H 11.852302 10.318696 -2.646170 0
M  V30 43 H 12.462631 9.371588 -7.379357 0
M  V30 44 H 12.403422 7.649851 -7.676917 0
M  V30 45 H 12.016512 8.886862 -9.775711 0
M  V30 46 H 10.680792 9.771453 -9.064134 0
M  V30 47 H 9.403812 4.090337 -14.122916 0
M  V30 END ATOM
M  V30 BEGIN BOND
M  V30 1 1 2 1
M  V30 2 1 3 2
M  V30 3 2 4 3
M  V30 4 1 5 4
M  V30 5 2 6 5
M  V30 6 1 7 6
M  V30 7 2 8 7
M  V30 8 1 9 7
M  V30 9 1 10 9
M  V30 10 1 11 10
M  V30 11 1 12 11
M  V30 12 1 13 12
M  V30 13 1 14 13
M  V30 14 1 15 14
M  V30 15 2 16 15
M  V30 16 1 17 16
M  V30 17 2 18 17
M  V30 18 1 19 18
M  V30 19 1 20 15
M  V30 20 2 20 19
M  V30 21 1 21 20
M  V30 22 1 22 14
M  V30 23 1 23 11
M  V30 24 1 23 22
M  V30 25 2 24 2
M  V30 26 1 24 6
M  V30 27 1 25 1
M  V30 28 1 26 1
M  V30 29 1 27 1
M  V30 30 1 28 3
M  V30 31 1 29 4
M  V30 32 1 30 5
M  V30 33 1 31 9
M  V30 34 1 32 10
M  V30 35 1 33 10
M  V30 36 1 34 12
M  V30 37 1 35 12
M  V30 38 1 36 13
M  V30 39 1 37 13
M  V30 40 1 38 14
M  V30 41 1 39 16
M  V30 42 1 40 17
M  V30 43 1 41 18
M  V30 44 1 42 19
M  V30 45 1 43 22
M  V30 46 1 44 22
M  V30 47 1 45 23
M  V30 48 1 46 23
M  V30 49 1 47 24
M  V30 END BOND
M  V30 END CTAB
M  END
>  <b_m_subgroup_collapsed>  (705) 
0

>  <r_i_docking_score>  (705) 
-7.9632397034211602

>  <s_m_subgroup_title>  (705) 
glide-dock_SP_D22_pv

>  <s_m_subgroupid>  (705) 
glide-dock_SP_D22_pv

>  <Molecule ChEMBL ID>  (705) 
CHEMBL219182

>  <Standard Type>  (705) 
Ki

>  <Standard Value>  (705) 
10000.0

>  <label>  (705) 
0

$$$$
CHEMBL3774621
     RDKit          3D

  0  0  0  0  0  0  0  0  0  0999 V3000
M  V30 BEGIN CTAB
M  V30 COUNTS 62 66 0 0 1
M  V30 BEGIN ATOM
M  V30 1 C 9.475988 6.659218 -6.653245 0
M  V30 2 N 10.452762 7.634805 -7.080208 0
M  V30 3 C 10.769616 8.001528 -8.334678 0
M  V30 4 S 10.087054 7.218396 -9.763451 0
M  V30 5 C 9.689579 8.706212 -10.719505 0
M  V30 6 C 9.371037 8.405909 -12.194260 0
M  V30 7 C 8.038081 7.688446 -12.424743 0
M  V30 8 N 8.085136 6.242476 -12.106193 0 CFG=1 CHG=1
M  V30 9 C 6.752718 5.659982 -11.872634 0
M  V30 10 C 6.849002 4.183258 -12.264282 0 CFG=1
M  V30 11 C 5.822681 3.722641 -13.300829 0
M  V30 12 C 6.615125 2.681307 -14.070653 0
M  V30 13 N 7.963645 3.229143 -14.171248 0
M  V30 14 C 8.976794 2.421046 -14.748105 0
M  V30 15 C 8.804335 1.014221 -14.845034 0
M  V30 16 C 9.749072 0.200538 -15.492891 0
M  V30 17 C 10.886051 0.779839 -16.067965 0
M  V30 18 C 11.094962 2.163020 -15.961630 0
M  V30 19 C 10.157009 2.997379 -15.301588 0
M  V30 20 O 10.334173 4.363117 -15.227260 0
M  V30 21 C 11.573447 4.918104 -15.346425 0
M  V30 22 F 11.525407 6.216950 -14.968453 0
M  V30 23 F 12.479493 4.315458 -14.535309 0
M  V30 24 F 12.022179 4.892558 -16.625513 0
M  V30 25 C 8.214333 3.983689 -12.939412 0 CFG=1
M  V30 26 C 8.740801 5.409878 -13.136846 0
M  V30 27 N 11.679018 8.971958 -8.383894 0
M  V30 28 N 12.006628 9.237069 -7.076730 0
M  V30 29 C 11.285621 8.396249 -6.333733 0
M  V30 30 C 11.501234 8.307337 -4.891403 0
M  V30 31 C 11.686051 7.060603 -4.246450 0
M  V30 32 N 12.025683 6.972390 -2.938957 0
M  V30 33 C 12.173589 8.139588 -2.274575 0
M  V30 34 C 11.984502 9.381358 -2.912040 0
M  V30 35 N 11.645015 9.471509 -4.214885 0
M  V30 36 H 8.886130 7.077465 -5.846734 0
M  V30 37 H 9.996005 5.772344 -6.315781 0
M  V30 38 H 8.792738 6.394511 -7.460623 0
M  V30 39 H 8.861102 9.228562 -10.239017 0
M  V30 40 H 10.551036 9.371702 -10.673599 0
M  V30 41 H 9.286303 9.360213 -12.717150 0
M  V30 42 H 10.201853 7.864884 -12.646807 0
M  V30 43 H 7.297838 8.231828 -11.849308 0
M  V30 44 H 7.685790 7.782784 -13.446768 0
M  V30 45 H 6.486739 5.772230 -10.828100 0
M  V30 46 H 5.995818 6.180549 -12.461582 0
M  V30 47 H 6.787030 3.551014 -11.377565 0
M  V30 48 H 4.913247 3.322425 -12.853035 0
M  V30 49 H 5.541977 4.533867 -13.972865 0
M  V30 50 H 6.605097 1.758152 -13.490561 0
M  V30 51 H 6.187515 2.481708 -15.050344 0
M  V30 52 H 7.941912 0.513825 -14.435411 0
M  V30 53 H 9.593774 -0.866122 -15.555708 0
M  V30 54 H 11.614128 0.168346 -16.577890 0
M  V30 55 H 11.990881 2.558145 -16.411583 0
M  V30 56 H 8.885668 3.429565 -12.280727 0
M  V30 57 H 8.470348 5.772149 -14.129908 0
M  V30 58 H 9.823487 5.466760 -13.030657 0
M  V30 59 H 11.618776 6.127909 -4.785748 0
M  V30 60 H 12.447172 8.092259 -1.231127 0
M  V30 61 H 12.086082 10.308313 -2.368943 0
M  V30 62 H 8.590236 6.137764 -11.236641 0
M  V30 END ATOM
M  V30 BEGIN BOND
M  V30 1 1 2 1
M  V30 2 1 3 2
M  V30 3 1 4 3
M  V30 4 1 5 4
M  V30 5 1 6 5
M  V30 6 1 7 6
M  V30 7 1 8 7
M  V30 8 1 9 8
M  V30 9 1 10 9
M  V30 10 1 11 10
M  V30 11 1 12 11
M  V30 12 1 13 12
M  V30 13 1 14 13
M  V30 14 2 15 14
M  V30 15 1 16 15
M  V30 16 2 17 16
M  V30 17 1 18 17
M  V30 18 1 19 14
M  V30 19 2 19 18
M  V30 20 1 20 19
M  V30 21 1 21 20
M  V30 22 1 22 21
M  V30 23 1 23 21
M  V30 24 1 24 21
M  V30 25 1 25 10
M  V30 26 1 25 13
M  V30 27 1 26 8
M  V30 28 1 26 25
M  V30 29 2 27 3
M  V30 30 1 28 27
M  V30 31 1 29 2
M  V30 32 2 29 28
M  V30 33 1 30 29
M  V30 34 1 31 30
M  V30 35 2 32 31
M  V30 36 1 33 32
M  V30 37 2 34 33
M  V30 38 2 35 30
M  V30 39 1 35 34
M  V30 40 1 36 1
M  V30 41 1 37 1
M  V30 42 1 38 1
M  V30 43 1 39 5
M  V30 44 1 40 5
M  V30 45 1 41 6
M  V30 46 1 42 6
M  V30 47 1 43 7
M  V30 48 1 44 7
M  V30 49 1 45 9
M  V30 50 1 46 9
M  V30 51 1 10 47 CFG=1
M  V30 52 1 48 11
M  V30 53 1 49 11
M  V30 54 1 50 12
M  V30 55 1 51 12
M  V30 56 1 52 15
M  V30 57 1 53 16
M  V30 58 1 54 17
M  V30 59 1 55 18
M  V30 60 1 25 56 CFG=1
M  V30 61 1 57 26
M  V30 62 1 58 26
M  V30 63 1 59 31
M  V30 64 1 60 33
M  V30 65 1 61 34
M  V30 66 1 8 62 CFG=1
M  V30 END BOND
M  V30 END CTAB
M  END
>  <b_m_subgroup_collapsed>  (706) 
0

>  <r_i_docking_score>  (706) 
-7.9632349113517202

>  <s_m_subgroup_title>  (706) 
glide-dock_SP_D22_pv

>  <s_m_subgroupid>  (706) 
glide-dock_SP_D22_pv

>  <Molecule ChEMBL ID>  (706) 
CHEMBL3774621

>  <Standard Type>  (706) 
Ki

>  <Standard Value>  (706) 
11.5

>  <label>  (706) 
1

$$$$
CHEMBL4863980
     RDKit          3D

  0  0  0  0  0  0  0  0  0  0999 V3000
M  V30 BEGIN CTAB
M  V30 COUNTS 66 70 0 0 1
M  V30 BEGIN ATOM
M  V30 1 F 12.758339 8.833002 -1.209973 0
M  V30 2 C 12.268847 8.664913 -2.459071 0
M  V30 3 C 11.745049 9.770938 -3.171970 0
M  V30 4 C 11.241949 9.623528 -4.487431 0
M  V30 5 C 11.280730 8.342111 -5.079947 0
M  V30 6 C 10.851141 7.874651 -6.343282 0
M  V30 7 C 10.070320 8.564122 -7.440964 0 CFG=1
M  V30 8 C 10.755053 8.605991 -8.823612 0
M  V30 9 C 10.669244 7.270679 -9.595496 0
M  V30 10 N 9.286806 6.715794 -9.678450 0 CFG=1 CHG=1
M  V30 11 C 9.249979 5.417993 -10.404716 0
M  V30 12 C 9.277485 5.572158 -11.933851 0
M  V30 13 C 9.527411 4.215985 -12.624949 0
M  V30 14 O 9.404808 4.292085 -14.041149 0
M  V30 15 C 10.411203 4.871100 -14.787040 0
M  V30 16 C 11.624413 5.373706 -14.256234 0
M  V30 17 C 12.557385 6.010696 -15.098799 0
M  V30 18 C 12.304353 6.145540 -16.479191 0
M  V30 19 C 13.325633 6.845349 -17.362581 0
M  V30 20 N 14.114121 5.922296 -18.183441 0
M  V30 21 C 14.949912 6.612895 -19.161520 0
M  V30 22 C 16.188581 7.283301 -18.532990 0
M  V30 23 O 16.935669 6.321619 -17.788754 0
M  V30 24 C 16.165594 5.695728 -16.768347 0
M  V30 25 C 14.945281 5.001991 -17.407909 0
M  V30 26 C 11.108210 5.617548 -17.016241 0
M  V30 27 Cl 10.737343 5.758877 -18.696886 0
M  V30 28 C 10.184105 4.972230 -16.172211 0
M  V30 29 C 8.683844 6.589395 -8.332582 0
M  V30 30 C 8.668120 7.958292 -7.603014 0
M  V30 31 N 11.149147 6.581283 -6.431118 0
M  V30 32 O 11.686607 6.176467 -5.183979 0
M  V30 33 C 11.786184 7.265696 -4.344197 0
M  V30 34 C 12.283453 7.384267 -3.042476 0
M  V30 35 H 11.732888 10.736216 -2.683636 0
M  V30 36 H 10.846581 10.475760 -5.019441 0
M  V30 37 H 9.945641 9.604929 -7.135829 0
M  V30 38 H 10.265823 9.370741 -9.424749 0
M  V30 39 H 11.794810 8.925301 -8.722345 0
M  V30 40 H 11.289136 6.532758 -9.097723 0
M  V30 41 H 11.090171 7.408154 -10.591129 0
M  V30 42 H 8.338491 4.874428 -10.149916 0
M  V30 43 H 10.079765 4.795437 -10.065372 0
M  V30 44 H 10.038541 6.290194 -12.231017 0
M  V30 45 H 8.328435 5.985404 -12.273331 0
M  V30 46 H 8.773640 3.506138 -12.288668 0
M  V30 47 H 10.483386 3.777725 -12.336555 0
M  V30 48 H 11.869150 5.293377 -13.208616 0
M  V30 49 H 13.474238 6.393870 -14.673527 0
M  V30 50 H 12.785014 7.542616 -18.006670 0
M  V30 51 H 13.973584 7.464199 -16.741594 0
M  V30 52 H 15.287754 5.891919 -19.906887 0
M  V30 53 H 14.359011 7.350327 -19.706984 0
M  V30 54 H 16.826796 7.695900 -19.313246 0
M  V30 55 H 15.900400 8.114086 -17.888311 0
M  V30 56 H 16.796034 4.973356 -16.249119 0
M  V30 57 H 15.853690 6.426686 -16.022160 0
M  V30 58 H 14.351821 4.498373 -16.646816 0
M  V30 59 H 15.293448 4.206765 -18.069151 0
M  V30 60 H 9.272225 4.576063 -16.593239 0
M  V30 61 H 7.686277 6.172425 -8.437186 0
M  V30 62 H 9.213947 5.832053 -7.762320 0
M  V30 63 H 8.086105 8.666627 -8.188279 0
M  V30 64 H 8.162110 7.870347 -6.641317 0
M  V30 65 H 12.674250 6.528166 -2.515319 0
M  V30 66 H 8.687758 7.364304 -10.175274 0
M  V30 END ATOM
M  V30 BEGIN BOND
M  V30 1 1 2 1
M  V30 2 1 3 2
M  V30 3 2 4 3
M  V30 4 1 5 4
M  V30 5 1 6 5
M  V30 6 1 7 6
M  V30 7 1 8 7
M  V30 8 1 9 8
M  V30 9 1 10 9
M  V30 10 1 11 10
M  V30 11 1 12 11
M  V30 12 1 13 12
M  V30 13 1 14 13
M  V30 14 1 15 14
M  V30 15 1 16 15
M  V30 16 2 17 16
M  V30 17 1 18 17
M  V30 18 1 19 18
M  V30 19 1 20 19
M  V30 20 1 21 20
M  V30 21 1 22 21
M  V30 22 1 23 22
M  V30 23 1 24 23
M  V30 24 1 25 20
M  V30 25 1 25 24
M  V30 26 2 26 18
M  V30 27 1 27 26
M  V30 28 2 28 15
M  V30 29 1 28 26
M  V30 30 1 29 10
M  V30 31 1 30 7
M  V30 32 1 30 29
M  V30 33 2 31 6
M  V30 34 1 32 31
M  V30 35 2 33 5
M  V30 36 1 33 32
M  V30 37 2 34 2
M  V30 38 1 34 33
M  V30 39 1 35 3
M  V30 40 1 36 4
M  V30 41 1 7 37 CFG=1
M  V30 42 1 38 8
M  V30 43 1 39 8
M  V30 44 1 40 9
M  V30 45 1 41 9
M  V30 46 1 42 11
M  V30 47 1 43 11
M  V30 48 1 44 12
M  V30 49 1 45 12
M  V30 50 1 46 13
M  V30 51 1 47 13
M  V30 52 1 48 16
M  V30 53 1 49 17
M  V30 54 1 50 19
M  V30 55 1 51 19
M  V30 56 1 52 21
M  V30 57 1 53 21
M  V30 58 1 54 22
M  V30 59 1 55 22
M  V30 60 1 56 24
M  V30 61 1 57 24
M  V30 62 1 58 25
M  V30 63 1 59 25
M  V30 64 1 60 28
M  V30 65 1 61 29
M  V30 66 1 62 29
M  V30 67 1 63 30
M  V30 68 1 64 30
M  V30 69 1 65 34
M  V30 70 1 10 66 CFG=3
M  V30 END BOND
M  V30 END CTAB
M  END
>  <b_m_subgroup_collapsed>  (707) 
0

>  <r_i_docking_score>  (707) 
-7.9609192033915503

>  <s_m_subgroup_title>  (707) 
glide-dock_SP_D22_pv

>  <s_m_subgroupid>  (707) 
glide-dock_SP_D22_pv

>  <Molecule ChEMBL ID>  (707) 
CHEMBL4863980

>  <Standard Type>  (707) 
Ki

>  <Standard Value>  (707) 
5.4

>  <label>  (707) 
1

$$$$
CHEMBL134571
     RDKit          3D

  0  0  0  0  0  0  0  0  0  0999 V3000
M  V30 BEGIN CTAB
M  V30 COUNTS 35 36 0 0 1
M  V30 BEGIN ATOM
M  V30 1 C 10.375545 7.902232 -11.404100 0
M  V30 2 C 9.170991 7.912660 -10.442703 0
M  V30 3 N 9.304989 7.106053 -9.191040 0 CFG=1 CHG=1
M  V30 4 C 9.790763 5.734311 -9.462364 0
M  V30 5 C 9.929499 7.792098 -7.999808 0 CFG=2
M  V30 6 C 11.159663 8.663432 -8.326511 0
M  V30 7 C 11.669397 9.461144 -7.117202 0
M  V30 8 C 11.685833 8.704894 -5.812890 0
M  V30 9 C 12.394359 9.249244 -4.723400 0
M  V30 10 C 12.485906 8.563061 -3.503113 0
M  V30 11 C 11.949429 7.273725 -3.403474 0
M  V30 12 O 12.085436 6.571976 -2.246876 0
M  V30 13 C 11.265987 6.719074 -4.498549 0
M  V30 14 C 11.071050 7.444703 -5.689180 0
M  V30 15 C 10.276085 6.823166 -6.830680 0
M  V30 16 H 10.086129 8.445374 -12.303415 0
M  V30 17 H 11.270369 8.377188 -11.008409 0
M  V30 18 H 10.644016 6.896455 -11.726312 0
M  V30 19 H 8.374819 7.469804 -11.039050 0
M  V30 20 H 8.853552 8.929738 -10.208860 0
M  V30 21 H 10.874472 5.763468 -9.564521 0
M  V30 22 H 9.522927 5.041704 -8.663839 0
M  V30 23 H 9.360480 5.330922 -10.379724 0
M  V30 24 H 9.164201 8.478044 -7.632137 0
M  V30 25 H 11.961702 8.019635 -8.690244 0
M  V30 26 H 10.946885 9.388608 -9.109520 0
M  V30 27 H 11.072520 10.359199 -6.968113 0
M  V30 28 H 12.694425 9.772106 -7.307747 0
M  V30 29 H 12.922508 10.172433 -4.840624 0
M  V30 30 H 13.019883 8.999394 -2.670868 0
M  V30 31 H 11.688581 5.710967 -2.267970 0
M  V30 32 H 10.822856 5.749481 -4.404830 0
M  V30 33 H 10.907310 6.003690 -7.172749 0
M  V30 34 H 9.363546 6.378365 -6.430783 0
M  V30 35 H 8.335608 6.974710 -8.915442 0
M  V30 END ATOM
M  V30 BEGIN BOND
M  V30 1 1 2 1
M  V30 2 1 3 2
M  V30 3 1 4 3
M  V30 4 1 5 3
M  V30 5 1 6 5
M  V30 6 1 7 6
M  V30 7 1 8 7
M  V30 8 1 9 8
M  V30 9 2 10 9
M  V30 10 1 11 10
M  V30 11 1 12 11
M  V30 12 2 13 11
M  V30 13 2 14 8
M  V30 14 1 14 13
M  V30 15 1 15 5
M  V30 16 1 15 14
M  V30 17 1 16 1
M  V30 18 1 17 1
M  V30 19 1 18 1
M  V30 20 1 19 2
M  V30 21 1 20 2
M  V30 22 1 21 4
M  V30 23 1 22 4
M  V30 24 1 23 4
M  V30 25 1 5 24 CFG=1
M  V30 26 1 25 6
M  V30 27 1 26 6
M  V30 28 1 27 7
M  V30 29 1 28 7
M  V30 30 1 29 9
M  V30 31 1 30 10
M  V30 32 1 31 12
M  V30 33 1 32 13
M  V30 34 1 33 15
M  V30 35 1 34 15
M  V30 36 1 3 35 CFG=1
M  V30 END BOND
M  V30 END CTAB
M  END
>  <b_m_subgroup_collapsed>  (708) 
0

>  <r_i_docking_score>  (708) 
-7.96017915199677

>  <s_m_subgroup_title>  (708) 
glide-dock_SP_D22_pv

>  <s_m_subgroupid>  (708) 
glide-dock_SP_D22_pv

>  <Molecule ChEMBL ID>  (708) 
CHEMBL134571

>  <Standard Type>  (708) 
Ki

>  <Standard Value>  (708) 
2.5

>  <label>  (708) 
1

$$$$
CHEMBL4591835
     RDKit          3D

  0  0  0  0  0  0  0  0  0  0999 V3000
M  V30 BEGIN CTAB
M  V30 COUNTS 70 74 0 0 1
M  V30 BEGIN ATOM
M  V30 1 C 8.940724 0.137611 -14.633471 0
M  V30 2 N 8.539567 1.008234 -15.723339 0
M  V30 3 C 9.224392 2.025278 -16.283089 0
M  V30 4 S 10.771804 2.598377 -15.662548 0
M  V30 5 C 10.151367 3.445154 -14.176795 0
M  V30 6 C 9.482446 4.794670 -14.501898 0
M  V30 7 C 8.558178 5.331386 -13.382060 0
M  V30 8 N 9.190509 6.390654 -12.559987 0 CHG=1
M  V30 9 C 10.184849 5.851385 -11.623491 0
M  V30 10 C 10.917910 6.972088 -10.850064 0
M  V30 11 C 9.962031 7.871815 -10.051970 0
M  V30 12 C 8.940092 8.392529 -11.094096 0
M  V30 13 C 8.221033 7.242344 -11.846910 0
M  V30 14 C 9.225546 7.141558 -8.890447 0
M  V30 15 C 10.102214 6.772119 -7.685343 0
M  V30 16 N 10.793117 7.960295 -7.199603 0
M  V30 17 C 11.152108 8.051259 -5.834551 0
M  V30 18 C 11.322796 6.887454 -5.047995 0
M  V30 19 C 11.686897 6.971982 -3.690619 0
M  V30 20 C 11.893464 8.225861 -3.090743 0
M  V30 21 C 11.687956 9.393478 -3.844287 0
M  V30 22 C 11.315712 9.310620 -5.200867 0
M  V30 23 O 11.068281 10.463853 -5.880905 0
M  V30 24 C 11.631979 8.592244 -8.212399 0
M  V30 25 C 10.761261 9.036726 -9.413252 0
M  V30 26 N 8.609142 2.571956 -17.330814 0
M  V30 27 N 7.418718 1.893089 -17.446289 0
M  V30 28 C 7.404064 0.993171 -16.457329 0
M  V30 29 C 6.247297 0.133276 -16.232241 0
M  V30 30 C 5.595697 0.120107 -14.978727 0
M  V30 31 C 4.431903 -0.652109 -14.794656 0
M  V30 32 C 3.926201 -1.427749 -15.854584 0
M  V30 33 C 4.578155 -1.427596 -17.101326 0
M  V30 34 C 5.733121 -0.644325 -17.292086 0
M  V30 35 H 8.084000 -0.166198 -14.035708 0
M  V30 36 H 9.414515 -0.749616 -15.050405 0
M  V30 37 H 9.658182 0.622571 -13.976913 0
M  V30 38 H 10.994875 3.575464 -13.502554 0
M  V30 39 H 9.447146 2.794995 -13.660952 0
M  V30 40 H 8.882728 4.666642 -15.399770 0
M  V30 41 H 10.236542 5.531599 -14.780500 0
M  V30 42 H 8.170994 4.528143 -12.752811 0
M  V30 43 H 7.685849 5.772965 -13.848474 0
M  V30 44 H 10.886035 5.311399 -12.246908 0
M  V30 45 H 9.729095 5.129971 -10.943347 0
M  V30 46 H 11.476772 7.577542 -11.565827 0
M  V30 47 H 11.668283 6.572395 -10.176100 0
M  V30 48 H 8.216463 9.056754 -10.621117 0
M  V30 49 H 9.452707 9.008931 -11.831708 0
M  V30 50 H 7.493788 7.660910 -12.543842 0
M  V30 51 H 7.686033 6.572323 -11.175327 0
M  V30 52 H 8.683053 6.258881 -9.223759 0
M  V30 53 H 8.476251 7.827198 -8.506433 0
M  V30 54 H 10.827538 6.003664 -7.955036 0
M  V30 55 H 9.463576 6.357044 -6.904022 0
M  V30 56 H 11.202195 5.906245 -5.479348 0
M  V30 57 H 11.822054 6.069691 -3.112134 0
M  V30 58 H 12.173313 8.294191 -2.049761 0
M  V30 59 H 11.797489 10.357087 -3.369249 0
M  V30 60 H 10.742164 10.248089 -6.743125 0
M  V30 61 H 12.192926 9.424307 -7.801819 0
M  V30 62 H 12.389771 7.878502 -8.535175 0
M  V30 63 H 11.381819 9.539227 -10.156351 0
M  V30 64 H 10.044077 9.772233 -9.060423 0
M  V30 65 H 5.962999 0.730350 -14.166772 0
M  V30 66 H 3.918295 -0.646917 -13.846231 0
M  V30 67 H 3.038705 -2.028413 -15.717580 0
M  V30 68 H 4.184497 -2.026218 -17.910318 0
M  V30 69 H 6.220366 -0.634675 -18.256054 0
M  V30 70 H 9.679666 7.002046 -13.196450 0
M  V30 END ATOM
M  V30 BEGIN BOND
M  V30 1 1 2 1
M  V30 2 1 3 2
M  V30 3 1 4 3
M  V30 4 1 5 4
M  V30 5 1 6 5
M  V30 6 1 7 6
M  V30 7 1 8 7
M  V30 8 1 9 8
M  V30 9 1 10 9
M  V30 10 1 11 10
M  V30 11 1 12 11
M  V30 12 1 13 8
M  V30 13 1 13 12
M  V30 14 1 14 11
M  V30 15 1 15 14
M  V30 16 1 16 15
M  V30 17 1 17 16
M  V30 18 2 18 17
M  V30 19 1 19 18
M  V30 20 2 20 19
M  V30 21 1 21 20
M  V30 22 1 22 17
M  V30 23 2 22 21
M  V30 24 1 23 22
M  V30 25 1 24 16
M  V30 26 1 25 11
M  V30 27 1 25 24
M  V30 28 2 26 3
M  V30 29 1 27 26
M  V30 30 1 28 2
M  V30 31 2 28 27
M  V30 32 1 29 28
M  V30 33 2 30 29
M  V30 34 1 31 30
M  V30 35 2 32 31
M  V30 36 1 33 32
M  V30 37 1 34 29
M  V30 38 2 34 33
M  V30 39 1 35 1
M  V30 40 1 36 1
M  V30 41 1 37 1
M  V30 42 1 38 5
M  V30 43 1 39 5
M  V30 44 1 40 6
M  V30 45 1 41 6
M  V30 46 1 42 7
M  V30 47 1 43 7
M  V30 48 1 44 9
M  V30 49 1 45 9
M  V30 50 1 46 10
M  V30 51 1 47 10
M  V30 52 1 48 12
M  V30 53 1 49 12
M  V30 54 1 50 13
M  V30 55 1 51 13
M  V30 56 1 52 14
M  V30 57 1 53 14
M  V30 58 1 54 15
M  V30 59 1 55 15
M  V30 60 1 56 18
M  V30 61 1 57 19
M  V30 62 1 58 20
M  V30 63 1 59 21
M  V30 64 1 60 23
M  V30 65 1 61 24
M  V30 66 1 62 24
M  V30 67 1 63 25
M  V30 68 1 64 25
M  V30 69 1 65 30
M  V30 70 1 66 31
M  V30 71 1 67 32
M  V30 72 1 68 33
M  V30 73 1 69 34
M  V30 74 1 70 8
M  V30 END BOND
M  V30 END CTAB
M  END
>  <b_m_subgroup_collapsed>  (709) 
0

>  <r_i_docking_score>  (709) 
-7.9597215301923097

>  <s_m_subgroup_title>  (709) 
glide-dock_SP_D22_pv

>  <s_m_subgroupid>  (709) 
glide-dock_SP_D22_pv

>  <Molecule ChEMBL ID>  (709) 
CHEMBL4591835

>  <Standard Type>  (709) 
Ki

>  <Standard Value>  (709) 
17595.0

>  <label>  (709) 
0

$$$$
CHEMBL478
     RDKit          3D

  0  0  0  0  0  0  0  0  0  0999 V3000
M  V30 BEGIN CTAB
M  V30 COUNTS 27 28 0 0 1
M  V30 BEGIN ATOM
M  V30 1 Cl 12.087224 7.008031 -2.659519 0
M  V30 2 C 11.693335 7.945326 -4.055097 0
M  V30 3 C 11.628808 9.346597 -3.963960 0
M  V30 4 C 11.301753 10.097933 -5.105937 0
M  V30 5 C 11.105323 9.462756 -6.343969 0
M  V30 6 C 11.195723 8.056235 -6.464856 0
M  V30 7 N 11.079217 7.411175 -7.719418 0
M  V30 8 C 11.114655 8.165668 -8.974591 0
M  V30 9 C 9.687079 8.450383 -9.491732 0
M  V30 10 N 8.889167 7.201071 -9.563968 0 CHG=1
M  V30 11 C 8.885925 6.456704 -8.285749 0
M  V30 12 C 10.302269 6.178246 -7.783428 0
M  V30 13 C 11.455844 7.306785 -5.287642 0
M  V30 14 H 11.811296 9.842043 -3.020681 0
M  V30 15 H 11.249789 11.171000 -5.045393 0
M  V30 16 H 10.898071 10.087537 -7.195253 0
M  V30 17 H 11.697974 9.082201 -8.888906 0
M  V30 18 H 11.646328 7.557546 -9.707931 0
M  V30 19 H 9.176275 9.150489 -8.827663 0
M  V30 20 H 9.723317 8.915681 -10.477432 0
M  V30 21 H 7.918006 7.427779 -9.822514 0
M  V30 22 H 8.365853 7.051159 -7.535723 0
M  V30 23 H 8.324677 5.530613 -8.403669 0
M  V30 24 H 10.798640 5.463414 -8.438148 0
M  V30 25 H 10.216569 5.711742 -6.809330 0
M  V30 26 H 11.558692 6.232769 -5.322508 0
M  V30 27 H 9.272279 6.603593 -10.280191 0
M  V30 END ATOM
M  V30 BEGIN BOND
M  V30 1 1 2 1
M  V30 2 1 3 2
M  V30 3 2 4 3
M  V30 4 1 5 4
M  V30 5 2 6 5
M  V30 6 1 7 6
M  V30 7 1 8 7
M  V30 8 1 9 8
M  V30 9 1 10 9
M  V30 10 1 11 10
M  V30 11 1 12 7
M  V30 12 1 12 11
M  V30 13 2 13 2
M  V30 14 1 13 6
M  V30 15 1 14 3
M  V30 16 1 15 4
M  V30 17 1 16 5
M  V30 18 1 17 8
M  V30 19 1 18 8
M  V30 20 1 19 9
M  V30 21 1 20 9
M  V30 22 1 21 10
M  V30 23 1 22 11
M  V30 24 1 23 11
M  V30 25 1 24 12
M  V30 26 1 25 12
M  V30 27 1 26 13
M  V30 28 1 27 10
M  V30 END BOND
M  V30 END CTAB
M  END
>  <b_m_subgroup_collapsed>  (710) 
0

>  <r_i_docking_score>  (710) 
-7.9590881611557398

>  <s_m_subgroup_title>  (710) 
glide-dock_SP_D22_pv

>  <s_m_subgroupid>  (710) 
glide-dock_SP_D22_pv

>  <Molecule ChEMBL ID>  (710) 
CHEMBL478

>  <Standard Type>  (710) 
Ki

>  <Standard Value>  (710) 
10000.0

>  <label>  (710) 
0

$$$$
CHEMBL124234
     RDKit          3D

  0  0  0  0  0  0  0  0  0  0999 V3000
M  V30 BEGIN CTAB
M  V30 COUNTS 53 56 0 0 1
M  V30 BEGIN ATOM
M  V30 1 C 6.866374 2.373394 -14.225932 0
M  V30 2 C 7.443669 3.634117 -13.615416 0
M  V30 3 C 6.587782 4.596509 -13.044701 0
M  V30 4 C 7.122700 5.772751 -12.485931 0
M  V30 5 C 8.517038 5.991115 -12.481746 0
M  V30 6 C 9.092818 7.267739 -11.885481 0
M  V30 7 N 8.886035 7.375166 -10.421094 0 CFG=2 CHG=1
M  V30 8 C 9.267815 8.700868 -9.878976 0
M  V30 9 C 8.886922 8.843210 -8.388194 0
M  V30 10 C 9.421838 7.693994 -7.519657 0 CFG=2
M  V30 11 C 10.950863 7.890496 -7.322569 0 CFG=2
M  V30 12 C 11.724804 6.604756 -7.036808 0
M  V30 13 C 11.685182 6.172398 -5.560612 0
M  V30 14 C 11.806326 7.281383 -4.537724 0
M  V30 15 C 12.149826 6.965436 -3.205294 0
M  V30 16 C 12.315884 7.988226 -2.252754 0
M  V30 17 C 12.085274 9.323220 -2.614656 0
M  V30 18 C 11.686048 9.631648 -3.924117 0
M  V30 19 C 11.579195 8.622561 -4.902143 0
M  V30 20 C 11.281065 9.003931 -6.300174 0
M  V30 21 O 11.286234 10.176934 -6.658893 0
M  V30 22 C 8.986914 6.350040 -8.160922 0
M  V30 23 C 9.428025 6.242129 -9.630151 0
M  V30 24 C 9.373317 5.018254 -13.040529 0
M  V30 25 C 8.837871 3.845964 -13.608583 0
M  V30 26 H 7.605772 1.572161 -14.243579 0
M  V30 27 H 6.007264 2.025272 -13.651823 0
M  V30 28 H 6.541847 2.563980 -15.248548 0
M  V30 29 H 5.518644 4.440864 -13.039459 0
M  V30 30 H 6.454178 6.507216 -12.059241 0
M  V30 31 H 8.611153 8.113501 -12.378783 0
M  V30 32 H 10.158333 7.338670 -12.109770 0
M  V30 33 H 8.748578 9.475593 -10.443627 0
M  V30 34 H 10.334162 8.866920 -10.033085 0
M  V30 35 H 7.823628 8.972911 -8.244890 0
M  V30 36 H 9.279994 9.772336 -8.019237 0
M  V30 37 H 8.943064 7.750917 -6.539822 0
M  V30 38 H 11.357143 8.244846 -8.268128 0
M  V30 39 H 11.395576 5.765630 -7.637749 0
M  V30 40 H 12.720027 6.773747 -7.446754 0
M  V30 41 H 12.440118 5.410406 -5.385921 0
M  V30 42 H 10.698653 5.772465 -5.355983 0
M  V30 43 H 12.317855 5.936874 -2.918439 0
M  V30 44 H 12.615951 7.763513 -1.242135 0
M  V30 45 H 12.185712 10.108173 -1.880738 0
M  V30 46 H 11.462711 10.652909 -4.177516 0
M  V30 47 H 9.330064 5.494156 -7.582786 0
M  V30 48 H 7.907819 6.233856 -8.118752 0
M  V30 49 H 9.066486 5.291722 -10.023303 0
M  V30 50 H 10.514044 6.225443 -9.719669 0
M  V30 51 H 10.443522 5.166895 -13.044920 0
M  V30 52 H 9.501743 3.108513 -14.036171 0
M  V30 53 H 7.865357 7.372245 -10.284779 0
M  V30 END ATOM
M  V30 BEGIN BOND
M  V30 1 1 2 1
M  V30 2 1 3 2
M  V30 3 2 4 3
M  V30 4 1 5 4
M  V30 5 1 6 5
M  V30 6 1 7 6
M  V30 7 1 8 7
M  V30 8 1 9 8
M  V30 9 1 10 9
M  V30 10 1 11 10
M  V30 11 1 12 11
M  V30 12 1 13 12
M  V30 13 1 14 13
M  V30 14 2 15 14
M  V30 15 1 16 15
M  V30 16 2 17 16
M  V30 17 1 18 17
M  V30 18 1 19 14
M  V30 19 2 19 18
M  V30 20 1 20 11
M  V30 21 1 20 19
M  V30 22 2 21 20
M  V30 23 1 22 10
M  V30 24 1 23 7
M  V30 25 1 23 22
M  V30 26 2 24 5
M  V30 27 2 25 2
M  V30 28 1 25 24
M  V30 29 1 26 1
M  V30 30 1 27 1
M  V30 31 1 28 1
M  V30 32 1 29 3
M  V30 33 1 30 4
M  V30 34 1 31 6
M  V30 35 1 32 6
M  V30 36 1 33 8
M  V30 37 1 34 8
M  V30 38 1 35 9
M  V30 39 1 36 9
M  V30 40 1 10 37 CFG=1
M  V30 41 1 11 38 CFG=3
M  V30 42 1 39 12
M  V30 43 1 40 12
M  V30 44 1 41 13
M  V30 45 1 42 13
M  V30 46 1 43 15
M  V30 47 1 44 16
M  V30 48 1 45 17
M  V30 49 1 46 18
M  V30 50 1 47 22
M  V30 51 1 48 22
M  V30 52 1 49 23
M  V30 53 1 50 23
M  V30 54 1 51 24
M  V30 55 1 52 25
M  V30 56 1 7 53 CFG=3
M  V30 END BOND
M  V30 END CTAB
M  END
>  <b_m_subgroup_collapsed>  (711) 
0

>  <r_i_docking_score>  (711) 
-7.9588668300607699

>  <s_m_subgroup_title>  (711) 
glide-dock_SP_D22_pv

>  <s_m_subgroupid>  (711) 
glide-dock_SP_D22_pv

>  <Molecule ChEMBL ID>  (711) 
CHEMBL124234

>  <Standard Type>  (711) 
Ki

>  <Standard Value>  (711) 
37.0

>  <label>  (711) 
1

$$$$
CHEMBL4555876
     RDKit          3D

  0  0  0  0  0  0  0  0  0  0999 V3000
M  V30 BEGIN CTAB
M  V30 COUNTS 69 73 0 0 1
M  V30 BEGIN ATOM
M  V30 1 C 12.485759 9.408388 -7.066216 0
M  V30 2 N 11.504703 8.348218 -7.029823 0
M  V30 3 C 10.806583 7.800748 -8.040931 0
M  V30 4 S 10.966002 8.365282 -9.706862 0
M  V30 5 C 9.268476 8.045285 -10.267824 0
M  V30 6 C 9.073230 6.609055 -10.787867 0
M  V30 7 C 9.175742 6.525506 -12.314847 0
M  V30 8 N 9.027752 5.125753 -12.786834 0 CHG=1
M  V30 9 C 7.902786 4.931299 -13.733722 0
M  V30 10 C 7.698516 3.438071 -14.052110 0
M  V30 11 C 8.977402 2.717888 -14.563950 0
M  V30 12 C 10.120402 3.051007 -13.572803 0
M  V30 13 C 10.281630 4.558477 -13.334586 0
M  V30 14 C 9.336184 3.144386 -16.013956 0
M  V30 15 C 10.528811 2.353304 -16.588369 0
M  V30 16 N 10.282857 0.913481 -16.510090 0
M  V30 17 C 9.826590 0.287888 -17.686476 0
M  V30 18 C 8.595222 -0.408124 -17.726393 0
M  V30 19 C 8.138560 -0.999536 -18.918892 0
M  V30 20 C 8.909592 -0.906898 -20.090265 0
M  V30 21 C 10.145481 -0.238783 -20.061983 0
M  V30 22 C 10.605996 0.350182 -18.869078 0
M  V30 23 F 11.813476 0.965264 -18.868290 0
M  V30 24 C 9.893359 0.392191 -15.200309 0
M  V30 25 C 8.717894 1.189161 -14.597133 0
M  V30 26 N 9.997336 6.816525 -7.647700 0
M  V30 27 N 10.151939 6.737452 -6.286137 0
M  V30 28 C 11.053464 7.665255 -5.961503 0
M  V30 29 C 11.511168 7.880995 -4.596732 0
M  V30 30 C 11.874006 6.774073 -3.804543 0
M  V30 31 C 12.361955 6.964406 -2.500022 0
M  V30 32 C 12.483751 8.265464 -1.977107 0
M  V30 33 C 12.086215 9.370612 -2.749547 0
M  V30 34 C 11.602963 9.182977 -4.055934 0
M  V30 35 H 13.091600 9.336138 -7.968992 0
M  V30 36 H 11.956807 10.360351 -7.046761 0
M  V30 37 H 13.158760 9.371250 -6.211016 0
M  V30 38 H 8.588425 8.246089 -9.439024 0
M  V30 39 H 9.006064 8.770920 -11.037524 0
M  V30 40 H 9.791212 5.934527 -10.318061 0
M  V30 41 H 8.088486 6.250432 -10.482969 0
M  V30 42 H 8.398892 7.156165 -12.749475 0
M  V30 43 H 10.126573 6.946252 -12.646144 0
M  V30 44 H 6.987630 5.331986 -13.294268 0
M  V30 45 H 8.089613 5.493385 -14.646126 0
M  V30 46 H 7.349804 2.971935 -13.132981 0
M  V30 47 H 6.879413 3.313490 -14.759743 0
M  V30 48 H 9.902870 2.572676 -12.621875 0
M  V30 49 H 11.072036 2.632524 -13.894896 0
M  V30 50 H 10.556710 5.076124 -14.254736 0
M  V30 51 H 11.105836 4.725399 -12.647109 0
M  V30 52 H 8.479134 2.972878 -16.663706 0
M  V30 53 H 9.544188 4.211329 -16.079315 0
M  V30 54 H 10.695913 2.672256 -17.616884 0
M  V30 55 H 11.451291 2.584829 -16.056316 0
M  V30 56 H 7.974370 -0.493962 -16.848600 0
M  V30 57 H 7.192367 -1.522821 -18.932394 0
M  V30 58 H 8.559530 -1.358011 -21.006834 0
M  V30 59 H 10.745625 -0.180085 -20.956820 0
M  V30 60 H 9.643997 -0.666586 -15.267005 0
M  V30 61 H 10.759357 0.447495 -14.539268 0
M  V30 62 H 8.508140 0.809243 -13.596899 0
M  V30 63 H 7.814075 0.996055 -15.174891 0
M  V30 64 H 11.790195 5.773307 -4.203124 0
M  V30 65 H 12.644137 6.109943 -1.901563 0
M  V30 66 H 12.857660 8.415803 -0.976343 0
M  V30 67 H 12.133718 10.367109 -2.335742 0
M  V30 68 H 11.297686 10.041510 -4.635612 0
M  V30 69 H 8.797262 4.582483 -11.965378 0
M  V30 END ATOM
M  V30 BEGIN BOND
M  V30 1 1 2 1
M  V30 2 1 3 2
M  V30 3 1 4 3
M  V30 4 1 5 4
M  V30 5 1 6 5
M  V30 6 1 7 6
M  V30 7 1 8 7
M  V30 8 1 9 8
M  V30 9 1 10 9
M  V30 10 1 11 10
M  V30 11 1 12 11
M  V30 12 1 13 8
M  V30 13 1 13 12
M  V30 14 1 14 11
M  V30 15 1 15 14
M  V30 16 1 16 15
M  V30 17 1 17 16
M  V30 18 2 18 17
M  V30 19 1 19 18
M  V30 20 2 20 19
M  V30 21 1 21 20
M  V30 22 1 22 17
M  V30 23 2 22 21
M  V30 24 1 23 22
M  V30 25 1 24 16
M  V30 26 1 25 11
M  V30 27 1 25 24
M  V30 28 2 26 3
M  V30 29 1 27 26
M  V30 30 1 28 2
M  V30 31 2 28 27
M  V30 32 1 29 28
M  V30 33 2 30 29
M  V30 34 1 31 30
M  V30 35 2 32 31
M  V30 36 1 33 32
M  V30 37 1 34 29
M  V30 38 2 34 33
M  V30 39 1 35 1
M  V30 40 1 36 1
M  V30 41 1 37 1
M  V30 42 1 38 5
M  V30 43 1 39 5
M  V30 44 1 40 6
M  V30 45 1 41 6
M  V30 46 1 42 7
M  V30 47 1 43 7
M  V30 48 1 44 9
M  V30 49 1 45 9
M  V30 50 1 46 10
M  V30 51 1 47 10
M  V30 52 1 48 12
M  V30 53 1 49 12
M  V30 54 1 50 13
M  V30 55 1 51 13
M  V30 56 1 52 14
M  V30 57 1 53 14
M  V30 58 1 54 15
M  V30 59 1 55 15
M  V30 60 1 56 18
M  V30 61 1 57 19
M  V30 62 1 58 20
M  V30 63 1 59 21
M  V30 64 1 60 24
M  V30 65 1 61 24
M  V30 66 1 62 25
M  V30 67 1 63 25
M  V30 68 1 64 30
M  V30 69 1 65 31
M  V30 70 1 66 32
M  V30 71 1 67 33
M  V30 72 1 68 34
M  V30 73 1 69 8
M  V30 END BOND
M  V30 END CTAB
M  END
>  <b_m_subgroup_collapsed>  (712) 
0

>  <r_i_docking_score>  (712) 
-7.95750155211259

>  <s_m_subgroup_title>  (712) 
glide-dock_SP_D22_pv

>  <s_m_subgroupid>  (712) 
glide-dock_SP_D22_pv

>  <Molecule ChEMBL ID>  (712) 
CHEMBL4555876

>  <Standard Type>  (712) 
Ki

>  <Standard Value>  (712) 
26253.0

>  <label>  (712) 
0

$$$$
CHEMBL2111528
     RDKit          3D

  0  0  0  0  0  0  0  0  0  0999 V3000
M  V30 BEGIN CTAB
M  V30 COUNTS 57 60 0 0 1
M  V30 BEGIN ATOM
M  V30 1 C 9.450907 1.337779 -18.206808 0
M  V30 2 O 9.001843 1.840186 -16.955549 0
M  V30 3 C 7.939849 1.217794 -16.333872 0
M  V30 4 C 7.204766 0.171318 -16.947508 0
M  V30 5 C 6.085461 -0.392385 -16.311989 0
M  V30 6 C 5.687435 0.067333 -15.047177 0
M  V30 7 Br 4.104297 -0.624451 -14.246532 0
M  V30 8 C 6.429648 1.077890 -14.407346 0
M  V30 9 C 7.542903 1.669541 -15.045528 0
M  V30 10 C 8.214416 2.787375 -14.377362 0
M  V30 11 N 7.590906 3.771937 -13.720970 0
M  V30 12 C 8.462372 4.755196 -13.244320 0
M  V30 13 C 7.906138 5.947339 -12.517886 0
M  V30 14 N 7.959249 5.772265 -11.051310 0 CHG=1
M  V30 15 C 9.307694 5.881395 -10.443760 0
M  V30 16 C 9.682526 7.344091 -10.130477 0 CFG=2
M  V30 17 C 11.201162 7.537239 -9.972448 0
M  V30 18 C 11.384913 8.349015 -8.693254 0
M  V30 19 N 10.228015 7.961169 -7.870396 0 CFG=1 CHG=1
M  V30 20 C 9.967202 8.804687 -6.691700 0
M  V30 21 C 10.885955 8.433267 -5.549479 0
M  V30 22 C 10.890673 7.112861 -5.047260 0
M  V30 23 C 11.686138 6.790388 -3.932597 0
M  V30 24 C 12.471858 7.780170 -3.316385 0
M  V30 25 C 12.480296 9.091312 -3.825266 0
M  V30 26 C 11.692821 9.416898 -4.943740 0
M  V30 27 C 9.087768 7.824176 -8.793781 0
M  V30 28 C 9.777360 4.491917 -13.537917 0
M  V30 29 S 9.967407 2.971220 -14.364240 0
M  V30 30 H 10.325219 1.904172 -18.528345 0
M  V30 31 H 9.745965 0.291182 -18.137478 0
M  V30 32 H 8.688207 1.448902 -18.978155 0
M  V30 33 H 7.460766 -0.208907 -17.923512 0
M  V30 34 H 5.519821 -1.170629 -16.801283 0
M  V30 35 H 6.107983 1.435548 -13.440663 0
M  V30 36 H 8.430741 6.858261 -12.806468 0
M  V30 37 H 6.861044 6.098900 -12.793910 0
M  V30 38 H 7.352393 6.490464 -10.645710 0
M  V30 39 H 9.310172 5.297386 -9.523889 0
M  V30 40 H 10.079774 5.427660 -11.069949 0
M  V30 41 H 9.334373 8.001919 -10.927880 0
M  V30 42 H 11.687071 6.573002 -9.846617 0
M  V30 43 H 11.660048 8.019127 -10.838985 0
M  V30 44 H 12.334472 8.139532 -8.196437 0
M  V30 45 H 11.349955 9.414685 -8.922459 0
M  V30 46 H 10.085710 9.853417 -6.954500 0
M  V30 47 H 8.938864 8.665278 -6.355105 0
M  V30 48 H 10.264903 6.347869 -5.486989 0
M  V30 49 H 11.684033 5.785740 -3.535931 0
M  V30 50 H 13.060845 7.538216 -2.446899 0
M  V30 51 H 13.084151 9.848656 -3.348622 0
M  V30 52 H 11.690235 10.432758 -5.314920 0
M  V30 53 H 8.598443 8.792639 -8.925874 0
M  V30 54 H 8.356637 7.132972 -8.374167 0
M  V30 55 H 10.650410 5.086502 -13.316124 0
M  V30 56 H 10.416934 7.031303 -7.522564 0
M  V30 57 H 7.555394 4.872648 -10.831611 0
M  V30 END ATOM
M  V30 BEGIN BOND
M  V30 1 1 2 1
M  V30 2 1 3 2
M  V30 3 1 4 3
M  V30 4 2 5 4
M  V30 5 1 6 5
M  V30 6 1 7 6
M  V30 7 2 8 6
M  V30 8 2 9 3
M  V30 9 1 9 8
M  V30 10 1 10 9
M  V30 11 2 11 10
M  V30 12 1 12 11
M  V30 13 1 13 12
M  V30 14 1 14 13
M  V30 15 1 15 14
M  V30 16 1 16 15
M  V30 17 1 17 16
M  V30 18 1 18 17
M  V30 19 1 19 18
M  V30 20 1 20 19
M  V30 21 1 21 20
M  V30 22 2 22 21
M  V30 23 1 23 22
M  V30 24 2 24 23
M  V30 25 1 25 24
M  V30 26 1 26 21
M  V30 27 2 26 25
M  V30 28 1 27 16
M  V30 29 1 27 19
M  V30 30 2 28 12
M  V30 31 1 29 10
M  V30 32 1 29 28
M  V30 33 1 30 1
M  V30 34 1 31 1
M  V30 35 1 32 1
M  V30 36 1 33 4
M  V30 37 1 34 5
M  V30 38 1 35 8
M  V30 39 1 36 13
M  V30 40 1 37 13
M  V30 41 1 38 14
M  V30 42 1 39 15
M  V30 43 1 40 15
M  V30 44 1 16 41 CFG=3
M  V30 45 1 42 17
M  V30 46 1 43 17
M  V30 47 1 44 18
M  V30 48 1 45 18
M  V30 49 1 46 20
M  V30 50 1 47 20
M  V30 51 1 48 22
M  V30 52 1 49 23
M  V30 53 1 50 24
M  V30 54 1 51 25
M  V30 55 1 52 26
M  V30 56 1 53 27
M  V30 57 1 54 27
M  V30 58 1 55 28
M  V30 59 1 19 56 CFG=1
M  V30 60 1 57 14
M  V30 END BOND
M  V30 END CTAB
M  END
>  <b_m_subgroup_collapsed>  (713) 
0

>  <r_i_docking_score>  (713) 
-7.9553041390880601

>  <s_m_subgroup_title>  (713) 
glide-dock_SP_D22_pv

>  <s_m_subgroupid>  (713) 
glide-dock_SP_D22_pv

>  <Molecule ChEMBL ID>  (713) 
CHEMBL2111528

>  <Standard Type>  (713) 
Ki

>  <Standard Value>  (713) 
92.0

>  <label>  (713) 
1

$$$$
CHEMBL166366
     RDKit          3D

  0  0  0  0  0  0  0  0  0  0999 V3000
M  V30 BEGIN CTAB
M  V30 COUNTS 56 60 0 0 1
M  V30 BEGIN ATOM
M  V30 1 N 11.283827 10.572143 -5.446998 0
M  V30 2 C 11.456920 9.355387 -4.789536 0
M  V30 3 C 11.921912 9.371398 -3.458183 0
M  V30 4 C 12.097369 8.170401 -2.748576 0
M  V30 5 C 11.813408 6.945498 -3.374624 0
M  V30 6 C 11.340372 6.921992 -4.702295 0
M  V30 7 C 11.144956 8.122263 -5.422880 0
M  V30 8 C 10.671837 8.065896 -6.836725 0
M  V30 9 O 11.121434 8.793941 -7.724977 0
M  V30 10 C 9.517125 7.110761 -7.163144 0
M  V30 11 C 9.722074 6.388438 -8.508465 0
M  V30 12 C 8.420296 5.759950 -9.051319 0
M  V30 13 N 8.486209 5.128054 -10.412524 0 CFG=2 CHG=1
M  V30 14 C 9.853396 5.004814 -10.965165 0
M  V30 15 C 9.891789 4.218179 -12.273787 0
M  V30 16 C 9.003213 4.838605 -13.367509 0 CFG=2
M  V30 17 C 7.607832 5.153012 -12.805518 0 CFG=2
M  V30 18 C 7.579302 5.771856 -11.395453 0
M  V30 19 C 6.864352 3.860646 -13.048924 0
M  V30 20 C 5.696879 3.266787 -12.540083 0
M  V30 21 C 5.349599 1.979823 -13.021999 0
M  V30 22 C 6.132901 1.310250 -14.001648 0
M  V30 23 C 7.288770 1.900150 -14.566564 0
M  V30 24 C 7.574809 3.164433 -14.024725 0
M  V30 25 N 8.737236 3.859671 -14.410810 0
M  V30 26 C 9.735790 3.028502 -15.075850 0
M  V30 27 C 9.057845 2.111963 -16.114138 0
M  V30 28 O 8.078928 1.270904 -15.503557 0
M  V30 29 H 11.201185 10.554023 -6.455136 0
M  V30 30 H 11.684188 11.418284 -5.073939 0
M  V30 31 H 12.136363 10.309061 -2.965390 0
M  V30 32 H 12.448981 8.193291 -1.725867 0
M  V30 33 H 11.954271 6.020283 -2.831984 0
M  V30 34 H 11.141056 5.965327 -5.161235 0
M  V30 35 H 9.360764 6.387985 -6.363310 0
M  V30 36 H 8.609089 7.714428 -7.203593 0
M  V30 37 H 10.092562 7.103806 -9.240530 0
M  V30 38 H 10.492006 5.629960 -8.368047 0
M  V30 39 H 8.071113 5.005793 -8.346831 0
M  V30 40 H 7.686723 6.560428 -9.046906 0
M  V30 41 H 10.284512 5.991676 -11.137799 0
M  V30 42 H 10.463482 4.485706 -10.225986 0
M  V30 43 H 10.913270 4.172165 -12.644934 0
M  V30 44 H 9.604606 3.187530 -12.069520 0
M  V30 45 H 9.466428 5.740760 -13.771546 0
M  V30 46 H 7.122628 5.879147 -13.446825 0
M  V30 47 H 6.548947 5.772048 -11.043501 0
M  V30 48 H 7.897670 6.811307 -11.484844 0
M  V30 49 H 5.105019 3.767171 -11.787490 0
M  V30 50 H 4.485840 1.476756 -12.628884 0
M  V30 51 H 5.836882 0.325708 -14.332760 0
M  V30 52 H 10.474238 3.666728 -15.561645 0
M  V30 53 H 10.266899 2.424127 -14.338707 0
M  V30 54 H 8.582447 2.703844 -16.898323 0
M  V30 55 H 9.801957 1.482133 -16.601669 0
M  V30 56 H 8.125951 4.191464 -10.295806 0
M  V30 END ATOM
M  V30 BEGIN BOND
M  V30 1 1 2 1
M  V30 2 2 3 2
M  V30 3 1 4 3
M  V30 4 2 5 4
M  V30 5 1 6 5
M  V30 6 1 7 2
M  V30 7 2 7 6
M  V30 8 1 8 7
M  V30 9 2 9 8
M  V30 10 1 10 8
M  V30 11 1 11 10
M  V30 12 1 12 11
M  V30 13 1 13 12
M  V30 14 1 14 13
M  V30 15 1 15 14
M  V30 16 1 16 15
M  V30 17 1 17 16
M  V30 18 1 18 13
M  V30 19 1 18 17
M  V30 20 1 19 17
M  V30 21 2 20 19
M  V30 22 1 21 20
M  V30 23 2 22 21
M  V30 24 1 23 22
M  V30 25 1 24 19
M  V30 26 2 24 23
M  V30 27 1 25 16
M  V30 28 1 25 24
M  V30 29 1 26 25
M  V30 30 1 27 26
M  V30 31 1 28 23
M  V30 32 1 28 27
M  V30 33 1 29 1
M  V30 34 1 30 1
M  V30 35 1 31 3
M  V30 36 1 32 4
M  V30 37 1 33 5
M  V30 38 1 34 6
M  V30 39 1 35 10
M  V30 40 1 36 10
M  V30 41 1 37 11
M  V30 42 1 38 11
M  V30 43 1 39 12
M  V30 44 1 40 12
M  V30 45 1 41 14
M  V30 46 1 42 14
M  V30 47 1 43 15
M  V30 48 1 44 15
M  V30 49 1 16 45 CFG=3
M  V30 50 1 17 46 CFG=3
M  V30 51 1 47 18
M  V30 52 1 48 18
M  V30 53 1 49 20
M  V30 54 1 50 21
M  V30 55 1 51 22
M  V30 56 1 52 26
M  V30 57 1 53 26
M  V30 58 1 54 27
M  V30 59 1 55 27
M  V30 60 1 13 56 CFG=1
M  V30 END BOND
M  V30 END CTAB
M  END
>  <b_m_subgroup_collapsed>  (714) 
0

>  <r_i_docking_score>  (714) 
-7.95519705638982

>  <s_m_subgroup_title>  (714) 
glide-dock_SP_D22_pv

>  <s_m_subgroupid>  (714) 
glide-dock_SP_D22_pv

>  <Molecule ChEMBL ID>  (714) 
CHEMBL166366

>  <Standard Type>  (714) 
Ki

>  <Standard Value>  (714) 
60.0

>  <label>  (714) 
1

$$$$
CHEMBL201748
     RDKit          3D

  0  0  0  0  0  0  0  0  0  0999 V3000
M  V30 BEGIN CTAB
M  V30 COUNTS 43 47 0 0 1
M  V30 BEGIN ATOM
M  V30 1 C 12.084935 8.575383 -3.281778 0
M  V30 2 C 11.586446 9.759609 -3.853716 0
M  V30 3 C 10.949460 9.732299 -5.111782 0
M  V30 4 C 10.785771 8.510066 -5.802093 0
M  V30 5 C 10.042790 8.483390 -7.139258 0 CFG=1
M  V30 6 C 10.927193 8.531337 -8.408902 0
M  V30 7 C 10.538888 7.247097 -9.137225 0 CFG=2
M  V30 8 C 10.676576 7.107414 -10.617025 0
M  V30 9 N 11.705474 7.579002 -11.413662 0
M  V30 10 C 11.626856 7.006677 -12.673301 0
M  V30 11 C 12.438107 7.114066 -13.816046 0
M  V30 12 C 12.147514 6.329868 -14.948855 0
M  V30 13 C 11.046744 5.447927 -14.931174 0
M  V30 14 C 10.214655 5.372221 -13.796229 0
M  V30 15 C 10.479312 6.156009 -12.646829 0
M  V30 16 C 9.869231 6.284751 -11.354373 0
M  V30 17 C 8.643333 5.634724 -10.770498 0
M  V30 18 C 8.674785 5.663612 -9.217293 0
M  V30 19 N 9.138405 6.993112 -8.755318 0 CFG=1 CHG=1
M  V30 20 C 9.088253 7.278881 -7.314554 0
M  V30 21 C 11.287294 7.323083 -5.215402 0
M  V30 22 C 11.934354 7.356069 -3.964599 0
M  V30 23 H 12.568693 8.602914 -2.317325 0
M  V30 24 H 11.685208 10.684084 -3.307132 0
M  V30 25 H 10.573818 10.651548 -5.534150 0
M  V30 26 H 9.413369 9.371784 -7.169207 0
M  V30 27 H 10.663523 9.400500 -9.012457 0
M  V30 28 H 11.996953 8.578074 -8.201833 0
M  V30 29 H 11.137428 6.454189 -8.685325 0
M  V30 30 H 12.435306 8.195432 -11.082657 0
M  V30 31 H 13.300717 7.763826 -13.815649 0
M  V30 32 H 12.774970 6.392344 -15.824844 0
M  V30 33 H 10.832541 4.841535 -15.795842 0
M  V30 34 H 9.368297 4.704365 -13.798862 0
M  V30 35 H 7.757190 6.171269 -11.114990 0
M  V30 36 H 8.540653 4.607226 -11.123582 0
M  V30 37 H 7.686542 5.456933 -8.809153 0
M  V30 38 H 9.345405 4.889278 -8.838975 0
M  V30 39 H 9.407728 6.383792 -6.786039 0
M  V30 40 H 8.085242 7.509617 -6.969972 0
M  V30 41 H 11.210141 6.369617 -5.713607 0
M  V30 42 H 12.310822 6.444010 -3.525940 0
M  V30 43 H 8.549380 7.675694 -9.221567 0
M  V30 END ATOM
M  V30 BEGIN BOND
M  V30 1 2 2 1
M  V30 2 1 3 2
M  V30 3 2 4 3
M  V30 4 1 5 4
M  V30 5 1 6 5
M  V30 6 1 7 6
M  V30 7 1 8 7
M  V30 8 1 9 8
M  V30 9 1 10 9
M  V30 10 2 11 10
M  V30 11 1 12 11
M  V30 12 2 13 12
M  V30 13 1 14 13
M  V30 14 1 15 10
M  V30 15 2 15 14
M  V30 16 2 16 8
M  V30 17 1 16 15
M  V30 18 1 17 16
M  V30 19 1 18 17
M  V30 20 1 19 7
M  V30 21 1 19 18
M  V30 22 1 20 5
M  V30 23 1 20 19
M  V30 24 1 21 4
M  V30 25 1 22 1
M  V30 26 2 22 21
M  V30 27 1 23 1
M  V30 28 1 24 2
M  V30 29 1 25 3
M  V30 30 1 5 26 CFG=1
M  V30 31 1 27 6
M  V30 32 1 28 6
M  V30 33 1 7 29 CFG=1
M  V30 34 1 30 9
M  V30 35 1 31 11
M  V30 36 1 32 12
M  V30 37 1 33 13
M  V30 38 1 34 14
M  V30 39 1 35 17
M  V30 40 1 36 17
M  V30 41 1 37 18
M  V30 42 1 38 18
M  V30 43 1 39 20
M  V30 44 1 40 20
M  V30 45 1 41 21
M  V30 46 1 42 22
M  V30 47 1 19 43 CFG=3
M  V30 END BOND
M  V30 END CTAB
M  END
>  <b_m_subgroup_collapsed>  (715) 
0

>  <r_i_docking_score>  (715) 
-7.9550058394760397

>  <s_m_subgroup_title>  (715) 
glide-dock_SP_D22_pv

>  <s_m_subgroupid>  (715) 
glide-dock_SP_D22_pv

>  <Molecule ChEMBL ID>  (715) 
CHEMBL201748

>  <Standard Type>  (715) 
Ki

>  <Standard Value>  (715) 
10000.0

>  <label>  (715) 
0

$$$$
CHEMBL1258426
     RDKit          3D

  0  0  0  0  0  0  0  0  0  0999 V3000
M  V30 BEGIN CTAB
M  V30 COUNTS 59 63 0 0 1
M  V30 BEGIN ATOM
M  V30 1 F 11.303926 2.195198 -15.542699 0
M  V30 2 C 10.019388 2.070920 -15.143123 0
M  V30 3 C 9.264283 0.960307 -15.554389 0
M  V30 4 C 7.930322 0.830491 -15.132527 0
M  V30 5 C 7.349582 1.815311 -14.305175 0
M  V30 6 C 6.031360 1.630644 -13.850204 0
M  V30 7 C 5.411607 2.599890 -13.045504 0
M  V30 8 C 6.135669 3.731697 -12.637580 0
M  V30 9 C 7.484960 3.900594 -13.024235 0
M  V30 10 N 8.232893 4.911317 -12.405241 0
M  V30 11 C 8.815829 6.012204 -13.145532 0
M  V30 12 C 10.192273 6.347751 -12.521887 0
M  V30 13 N 10.087345 6.642198 -11.086560 0
M  V30 14 C 9.479366 7.950245 -10.851040 0
M  V30 15 C 9.671517 8.438966 -9.405110 0
M  V30 16 C 11.153578 8.607724 -9.043912 0
M  V30 17 O 11.285637 9.373013 -7.858489 0
M  V30 18 C 11.339551 8.761509 -6.629349 0
M  V30 19 C 11.120498 7.374787 -6.400341 0
M  V30 20 C 11.294806 6.827221 -5.109576 0
M  V30 21 C 11.686192 7.679320 -4.065214 0
M  V30 22 C 11.828817 9.038069 -4.270700 0
M  V30 23 C 11.667350 9.605183 -5.544474 0
M  V30 24 C 12.152582 9.742799 -2.989550 0
M  V30 25 N 12.086332 8.662657 -1.967540 0 CHG=1
M  V30 26 C 11.941714 7.333556 -2.625816 0
M  V30 27 C 9.436875 5.527396 -10.376522 0
M  V30 28 C 8.072436 5.151020 -10.981085 0
M  V30 29 C 8.093511 2.954948 -13.897547 0
M  V30 30 C 9.444596 3.052143 -14.314855 0
M  V30 31 H 9.714718 0.203848 -16.177988 0
M  V30 32 H 7.364546 -0.038722 -15.436281 0
M  V30 33 H 5.469358 0.754141 -14.143191 0
M  V30 34 H 4.394141 2.461786 -12.713231 0
M  V30 35 H 5.666569 4.446435 -11.975124 0
M  V30 36 H 8.142229 6.868904 -13.087504 0
M  V30 37 H 8.918859 5.769533 -14.203408 0
M  V30 38 H 10.664722 7.181485 -13.044511 0
M  V30 39 H 10.866655 5.500830 -12.646238 0
M  V30 40 H 8.427336 7.934046 -11.110691 0
M  V30 41 H 9.941988 8.675796 -11.519645 0
M  V30 42 H 9.163899 7.793726 -8.688790 0
M  V30 43 H 9.178058 9.405686 -9.315735 0
M  V30 44 H 11.649929 9.174023 -9.834038 0
M  V30 45 H 11.684259 7.656737 -8.995893 0
M  V30 46 H 10.834863 6.708891 -7.201455 0
M  V30 47 H 11.147095 5.772810 -4.934803 0
M  V30 48 H 11.808993 10.662516 -5.705929 0
M  V30 49 H 13.149393 10.172226 -3.046799 0
M  V30 50 H 11.438190 10.537927 -2.782031 0
M  V30 51 H 12.907781 8.691065 -1.381407 0
M  V30 52 H 11.114742 6.760558 -2.202149 0
M  V30 53 H 12.860174 6.751884 -2.536781 0
M  V30 54 H 10.086315 4.656380 -10.441353 0
M  V30 55 H 9.332813 5.740075 -9.314286 0
M  V30 56 H 7.335371 5.935714 -10.825067 0
M  V30 57 H 7.688218 4.257610 -10.484740 0
M  V30 58 H 10.069850 3.871722 -14.003572 0
M  V30 59 H 11.263867 8.823357 -1.398960 0
M  V30 END ATOM
M  V30 BEGIN BOND
M  V30 1 1 2 1
M  V30 2 1 3 2
M  V30 3 2 4 3
M  V30 4 1 5 4
M  V30 5 2 6 5
M  V30 6 1 7 6
M  V30 7 2 8 7
M  V30 8 1 9 8
M  V30 9 1 10 9
M  V30 10 1 11 10
M  V30 11 1 12 11
M  V30 12 1 13 12
M  V30 13 1 14 13
M  V30 14 1 15 14
M  V30 15 1 16 15
M  V30 16 1 17 16
M  V30 17 1 18 17
M  V30 18 1 19 18
M  V30 19 2 20 19
M  V30 20 1 21 20
M  V30 21 2 22 21
M  V30 22 2 23 18
M  V30 23 1 23 22
M  V30 24 1 24 22
M  V30 25 1 25 24
M  V30 26 1 26 21
M  V30 27 1 26 25
M  V30 28 1 27 13
M  V30 29 1 28 10
M  V30 30 1 28 27
M  V30 31 1 29 5
M  V30 32 2 29 9
M  V30 33 2 30 2
M  V30 34 1 30 29
M  V30 35 1 31 3
M  V30 36 1 32 4
M  V30 37 1 33 6
M  V30 38 1 34 7
M  V30 39 1 35 8
M  V30 40 1 36 11
M  V30 41 1 37 11
M  V30 42 1 38 12
M  V30 43 1 39 12
M  V30 44 1 40 14
M  V30 45 1 41 14
M  V30 46 1 42 15
M  V30 47 1 43 15
M  V30 48 1 44 16
M  V30 49 1 45 16
M  V30 50 1 46 19
M  V30 51 1 47 20
M  V30 52 1 48 23
M  V30 53 1 49 24
M  V30 54 1 50 24
M  V30 55 1 51 25
M  V30 56 1 52 26
M  V30 57 1 53 26
M  V30 58 1 54 27
M  V30 59 1 55 27
M  V30 60 1 56 28
M  V30 61 1 57 28
M  V30 62 1 58 30
M  V30 63 1 59 25
M  V30 END BOND
M  V30 END CTAB
M  END
>  <b_m_subgroup_collapsed>  (716) 
0

>  <r_i_docking_score>  (716) 
-7.95182680762505

>  <s_m_subgroup_title>  (716) 
glide-dock_SP_D22_pv

>  <s_m_subgroupid>  (716) 
glide-dock_SP_D22_pv

>  <Molecule ChEMBL ID>  (716) 
CHEMBL1258426

>  <Standard Type>  (716) 
Ki

>  <Standard Value>  (716) 
24.7

>  <label>  (716) 
1

$$$$
CHEMBL93432
     RDKit          3D

  0  0  0  0  0  0  0  0  0  0999 V3000
M  V30 BEGIN CTAB
M  V30 COUNTS 62 66 0 0 1
M  V30 BEGIN ATOM
M  V30 1 C 8.170848 4.639143 -12.486253 0
M  V30 2 C 9.464844 5.258516 -12.992650 0
M  V30 3 C 10.172194 4.968554 -14.087179 0
M  V30 4 C 9.909967 3.886040 -15.051972 0
M  V30 5 C 9.789939 2.553992 -14.601058 0
M  V30 6 C 9.535784 1.517896 -15.518248 0
M  V30 7 C 9.402290 1.809619 -16.892406 0
M  V30 8 C 9.521766 3.139873 -17.344521 0
M  V30 9 C 9.773615 4.176725 -16.427290 0
M  V30 10 N 11.284122 5.811006 -14.078403 0
M  V30 11 C 12.228810 5.947467 -15.138650 0
M  V30 12 C 12.548981 7.231896 -15.636061 0
M  V30 13 C 13.449170 7.386153 -16.705883 0
M  V30 14 C 14.043176 6.255313 -17.293316 0
M  V30 15 C 13.735346 4.971886 -16.804136 0
M  V30 16 C 12.839874 4.816441 -15.728805 0
M  V30 17 C 11.250066 6.572361 -12.963688 0
M  V30 18 O 12.118826 7.368330 -12.611638 0
M  V30 19 N 10.099216 6.288843 -12.306926 0
M  V30 20 C 9.576794 6.863357 -11.047168 0 CFG=1
M  V30 21 C 10.085870 6.068888 -9.841013 0
M  V30 22 C 9.536579 6.612155 -8.522555 0
M  V30 23 N 9.997917 8.009859 -8.351809 0 CFG=2 CHG=1
M  V30 24 C 9.693444 8.573108 -7.015983 0
M  V30 25 C 10.743025 8.282734 -5.953451 0
M  V30 26 C 10.821272 7.016545 -5.335444 0
M  V30 27 C 11.685976 6.805935 -4.244852 0
M  V30 28 C 12.486076 7.856451 -3.767472 0
M  V30 29 C 12.456904 9.107481 -4.409353 0
M  V30 30 C 11.586330 9.322554 -5.497499 0
M  V30 31 C 9.492069 8.864250 -9.456772 0
M  V30 32 C 9.924562 8.350202 -10.833937 0
M  V30 33 H 7.851944 3.810536 -13.116794 0
M  V30 34 H 8.289925 4.257344 -11.473196 0
M  V30 35 H 7.367969 5.379824 -12.488200 0
M  V30 36 H 9.894524 2.319414 -13.551212 0
M  V30 37 H 9.441089 0.497231 -15.172256 0
M  V30 38 H 9.211466 1.013813 -17.597773 0
M  V30 39 H 9.423654 3.367625 -18.396467 0
M  V30 40 H 9.865880 5.194896 -16.778696 0
M  V30 41 H 12.091949 8.113400 -15.210673 0
M  V30 42 H 13.675758 8.374201 -17.079237 0
M  V30 43 H 14.735087 6.368629 -18.115170 0
M  V30 44 H 14.194816 4.101019 -17.247049 0
M  V30 45 H 12.623215 3.821777 -15.364598 0
M  V30 46 H 8.486711 6.804891 -11.063865 0
M  V30 47 H 9.852683 5.008941 -9.938128 0
M  V30 48 H 11.169442 6.172249 -9.806676 0
M  V30 49 H 9.894317 5.979455 -7.713993 0
M  V30 50 H 8.446931 6.563432 -8.505733 0
M  V30 51 H 9.685023 9.657785 -7.113024 0
M  V30 52 H 8.699210 8.276546 -6.676943 0
M  V30 53 H 10.169235 6.210279 -5.634999 0
M  V30 54 H 11.708282 5.843670 -3.756012 0
M  V30 55 H 13.135942 7.698145 -2.923551 0
M  V30 56 H 13.092682 9.902737 -4.053178 0
M  V30 57 H 11.551056 10.301199 -5.952557 0
M  V30 58 H 9.915360 9.856774 -9.358677 0
M  V30 59 H 8.411328 8.971231 -9.398102 0
M  V30 60 H 10.996220 8.520177 -10.886587 0
M  V30 61 H 9.472598 8.956218 -11.619286 0
M  V30 62 H 11.005696 8.003693 -8.431288 0
M  V30 END ATOM
M  V30 BEGIN BOND
M  V30 1 1 2 1
M  V30 2 2 3 2
M  V30 3 1 4 3
M  V30 4 2 5 4
M  V30 5 1 6 5
M  V30 6 2 7 6
M  V30 7 1 8 7
M  V30 8 1 9 4
M  V30 9 2 9 8
M  V30 10 1 10 3
M  V30 11 1 11 10
M  V30 12 2 12 11
M  V30 13 1 13 12
M  V30 14 2 14 13
M  V30 15 1 15 14
M  V30 16 1 16 11
M  V30 17 2 16 15
M  V30 18 1 17 10
M  V30 19 2 18 17
M  V30 20 1 19 2
M  V30 21 1 19 17
M  V30 22 1 20 19
M  V30 23 1 21 20
M  V30 24 1 22 21
M  V30 25 1 23 22
M  V30 26 1 24 23
M  V30 27 1 25 24
M  V30 28 2 26 25
M  V30 29 1 27 26
M  V30 30 2 28 27
M  V30 31 1 29 28
M  V30 32 1 30 25
M  V30 33 2 30 29
M  V30 34 1 31 23
M  V30 35 1 32 20
M  V30 36 1 32 31
M  V30 37 1 33 1
M  V30 38 1 34 1
M  V30 39 1 35 1
M  V30 40 1 36 5
M  V30 41 1 37 6
M  V30 42 1 38 7
M  V30 43 1 39 8
M  V30 44 1 40 9
M  V30 45 1 41 12
M  V30 46 1 42 13
M  V30 47 1 43 14
M  V30 48 1 44 15
M  V30 49 1 45 16
M  V30 50 1 20 46 CFG=3
M  V30 51 1 47 21
M  V30 52 1 48 21
M  V30 53 1 49 22
M  V30 54 1 50 22
M  V30 55 1 51 24
M  V30 56 1 52 24
M  V30 57 1 53 26
M  V30 58 1 54 27
M  V30 59 1 55 28
M  V30 60 1 56 29
M  V30 61 1 57 30
M  V30 62 1 58 31
M  V30 63 1 59 31
M  V30 64 1 60 32
M  V30 65 1 61 32
M  V30 66 1 23 62 CFG=3
M  V30 END BOND
M  V30 END CTAB
M  END
>  <b_m_subgroup_collapsed>  (717) 
0

>  <r_i_docking_score>  (717) 
-7.9494941838711002

>  <s_m_subgroup_title>  (717) 
glide-dock_SP_D22_pv

>  <s_m_subgroupid>  (717) 
glide-dock_SP_D22_pv

>  <Molecule ChEMBL ID>  (717) 
CHEMBL93432

>  <Standard Type>  (717) 
Ki

>  <Standard Value>  (717) 
8.8

>  <label>  (717) 
1

$$$$
CHEMBL3409243
     RDKit          3D

  0  0  0  0  0  0  0  0  0  0999 V3000
M  V30 BEGIN CTAB
M  V30 COUNTS 67 71 0 0 1
M  V30 BEGIN ATOM
M  V30 1 N 11.779773 10.151027 -6.642841 0
M  V30 2 C 11.262597 10.123831 -5.420104 0
M  V30 3 O 10.487385 10.972078 -5.013937 0
M  V30 4 C 11.642633 8.978385 -4.543919 0
M  V30 5 C 12.042443 9.230019 -3.213588 0
M  V30 6 C 12.283828 8.163197 -2.331848 0
M  V30 7 C 12.084908 6.842395 -2.772820 0
M  V30 8 C 11.686393 6.590859 -4.098223 0
M  V30 9 C 11.474439 7.655426 -5.007082 0
M  V30 10 O 11.062270 7.489917 -6.314084 0
M  V30 11 C 10.820508 6.188762 -6.792628 0
M  V30 12 C 10.550607 6.211552 -8.296498 0
M  V30 13 C 9.209840 6.839818 -8.726625 0
M  V30 14 N 8.874870 6.578646 -10.154495 0 CFG=2 CHG=1
M  V30 15 C 8.379018 5.191198 -10.388730 0
M  V30 16 C 8.750718 4.580858 -11.733295 0
M  V30 17 C 9.290800 5.244106 -12.764833 0
M  V30 18 C 9.520295 4.578864 -14.066713 0
M  V30 19 C 10.508499 4.915289 -14.950580 0
M  V30 20 N 10.455535 4.055704 -16.040529 0
M  V30 21 C 11.334938 4.144886 -17.194056 0
M  V30 22 C 10.838325 5.191479 -18.178389 0
M  V30 23 C 9.640529 4.975986 -18.895510 0
M  V30 24 C 9.161817 5.951348 -19.790178 0
M  V30 25 C 9.886832 7.143882 -19.985468 0
M  V30 26 C 11.087952 7.357740 -19.283514 0
M  V30 27 C 11.561535 6.388297 -18.377886 0
M  V30 28 C 9.427462 3.133937 -15.855492 0
M  V30 29 C 8.979560 2.055171 -16.647179 0
M  V30 30 C 7.875337 1.291845 -16.227564 0
M  V30 31 C 7.211484 1.623398 -15.034063 0
M  V30 32 C 7.657299 2.704548 -14.247612 0
M  V30 33 C 8.791536 3.468265 -14.620426 0
M  V30 34 C 9.573379 6.719583 -12.584055 0
M  V30 35 C 9.888195 7.071474 -11.121051 0
M  V30 36 H 11.528226 10.902465 -7.264380 0
M  V30 37 H 12.391768 9.404195 -6.941586 0
M  V30 38 H 12.146503 10.244491 -2.855310 0
M  V30 39 H 12.589845 8.365507 -1.315055 0
M  V30 40 H 12.243933 6.015790 -2.096503 0
M  V30 41 H 11.541162 5.571204 -4.396408 0
M  V30 42 H 9.970786 5.773599 -6.257816 0
M  V30 43 H 11.708534 5.582385 -6.618288 0
M  V30 44 H 10.595765 5.179678 -8.643673 0
M  V30 45 H 11.370665 6.739784 -8.776340 0
M  V30 46 H 9.232386 7.917310 -8.559074 0
M  V30 47 H 8.403769 6.455691 -8.100995 0
M  V30 48 H 7.290140 5.232964 -10.329786 0
M  V30 49 H 8.711039 4.508784 -9.606524 0
M  V30 50 H 8.537579 3.532913 -11.838070 0
M  V30 51 H 11.254444 5.695583 -14.903560 0
M  V30 52 H 12.341148 4.378181 -16.852535 0
M  V30 53 H 11.393725 3.175906 -17.684807 0
M  V30 54 H 9.075951 4.065557 -18.750206 0
M  V30 55 H 8.236312 5.788649 -20.321424 0
M  V30 56 H 9.522277 7.892960 -20.671902 0
M  V30 57 H 11.637950 8.278680 -19.429865 0
M  V30 58 H 12.476130 6.571778 -17.833050 0
M  V30 59 H 9.480243 1.809455 -17.570999 0
M  V30 60 H 7.531573 0.459954 -16.824879 0
M  V30 61 H 6.352873 1.046924 -14.720784 0
M  V30 62 H 7.111859 2.952951 -13.351495 0
M  V30 63 H 10.487945 6.968480 -13.126158 0
M  V30 64 H 8.730979 7.290012 -12.990674 0
M  V30 65 H 10.843229 6.607457 -10.894037 0
M  V30 66 H 10.015243 8.147602 -11.003938 0
M  V30 67 H 8.029613 7.136311 -10.305349 0
M  V30 END ATOM
M  V30 BEGIN BOND
M  V30 1 1 2 1
M  V30 2 2 3 2
M  V30 3 1 4 2
M  V30 4 2 5 4
M  V30 5 1 6 5
M  V30 6 2 7 6
M  V30 7 1 8 7
M  V30 8 1 9 4
M  V30 9 2 9 8
M  V30 10 1 10 9
M  V30 11 1 11 10
M  V30 12 1 12 11
M  V30 13 1 13 12
M  V30 14 1 14 13
M  V30 15 1 15 14
M  V30 16 1 16 15
M  V30 17 2 17 16
M  V30 18 1 18 17
M  V30 19 2 19 18
M  V30 20 1 20 19
M  V30 21 1 21 20
M  V30 22 1 22 21
M  V30 23 2 23 22
M  V30 24 1 24 23
M  V30 25 2 25 24
M  V30 26 1 26 25
M  V30 27 1 27 22
M  V30 28 2 27 26
M  V30 29 1 28 20
M  V30 30 2 29 28
M  V30 31 1 30 29
M  V30 32 2 31 30
M  V30 33 1 32 31
M  V30 34 1 33 18
M  V30 35 1 33 28
M  V30 36 2 33 32
M  V30 37 1 34 17
M  V30 38 1 35 14
M  V30 39 1 35 34
M  V30 40 1 36 1
M  V30 41 1 37 1
M  V30 42 1 38 5
M  V30 43 1 39 6
M  V30 44 1 40 7
M  V30 45 1 41 8
M  V30 46 1 42 11
M  V30 47 1 43 11
M  V30 48 1 44 12
M  V30 49 1 45 12
M  V30 50 1 46 13
M  V30 51 1 47 13
M  V30 52 1 48 15
M  V30 53 1 49 15
M  V30 54 1 50 16
M  V30 55 1 51 19
M  V30 56 1 52 21
M  V30 57 1 53 21
M  V30 58 1 54 23
M  V30 59 1 55 24
M  V30 60 1 56 25
M  V30 61 1 57 26
M  V30 62 1 58 27
M  V30 63 1 59 29
M  V30 64 1 60 30
M  V30 65 1 61 31
M  V30 66 1 62 32
M  V30 67 1 63 34
M  V30 68 1 64 34
M  V30 69 1 65 35
M  V30 70 1 66 35
M  V30 71 1 14 67 CFG=3
M  V30 END BOND
M  V30 END CTAB
M  END
>  <b_m_subgroup_collapsed>  (718) 
0

>  <r_i_docking_score>  (718) 
-7.9493359931441203

>  <s_m_subgroup_title>  (718) 
glide-dock_SP_D22_pv

>  <s_m_subgroupid>  (718) 
glide-dock_SP_D22_pv

>  <Molecule ChEMBL ID>  (718) 
CHEMBL3409243

>  <Standard Type>  (718) 
Ki

>  <Standard Value>  (718) 
31.0

>  <label>  (718) 
1

$$$$
CHEMBL486336
     RDKit          3D

  0  0  0  0  0  0  0  0  0  0999 V3000
M  V30 BEGIN CTAB
M  V30 COUNTS 67 70 0 0 1
M  V30 BEGIN ATOM
M  V30 1 C 14.822240 5.196940 -17.956192 0
M  V30 2 O 13.773506 4.381816 -17.457367 0
M  V30 3 C 13.056211 4.839029 -16.374271 0
M  V30 4 C 13.262243 6.098383 -15.758925 0
M  V30 5 C 12.488000 6.479495 -14.647756 0
M  V30 6 C 11.507277 5.609963 -14.135569 0
M  V30 7 C 11.284810 4.359554 -14.746323 0
M  V30 8 C 10.191816 3.442438 -14.232794 0
M  V30 9 C 8.842619 3.756733 -14.900106 0
M  V30 10 C 7.689889 2.940816 -14.334966 0
M  V30 11 C 7.658958 1.547429 -14.565579 0
M  V30 12 C 6.614303 0.760353 -14.044818 0
M  V30 13 C 5.596654 1.363321 -13.282550 0
M  V30 14 C 5.613022 2.753977 -13.059856 0
M  V30 15 C 6.649294 3.553058 -13.593180 0
M  V30 16 O 6.614695 4.920313 -13.447366 0
M  V30 17 C 6.719846 5.406118 -12.123016 0
M  V30 18 C 8.140192 5.977434 -11.961609 0
M  V30 19 N 8.486037 6.217906 -10.544921 0 CFG=1 CHG=1
M  V30 20 C 8.841378 4.973399 -9.828345 0
M  V30 21 C 8.868445 5.220615 -8.327421 0
M  V30 22 C 9.687311 6.438826 -7.958871 0
M  V30 23 C 10.163918 6.571636 -6.647321 0
M  V30 24 C 10.880054 7.708025 -6.225097 0
M  V30 25 O 11.410382 7.796569 -4.953114 0
M  V30 26 C 11.589123 6.597138 -4.209469 0
M  V30 27 C 11.051232 8.772196 -7.151270 0
M  V30 28 O 11.647047 9.971754 -6.839772 0
M  V30 29 C 11.473866 10.468507 -5.518746 0
M  V30 30 C 10.621026 8.613338 -8.488566 0
M  V30 31 C 9.943461 7.449613 -8.905973 0
M  V30 32 C 9.507140 7.282526 -10.359577 0
M  V30 33 C 12.061366 3.982130 -15.860095 0
M  V30 34 H 15.291260 4.696405 -18.803560 0
M  V30 35 H 14.447517 6.157259 -18.309027 0
M  V30 36 H 15.590059 5.362078 -17.200838 0
M  V30 37 H 14.012502 6.788523 -16.115471 0
M  V30 38 H 12.655438 7.438562 -14.180986 0
M  V30 39 H 10.921472 5.916539 -13.284223 0
M  V30 40 H 10.119594 3.545436 -13.150359 0
M  V30 41 H 10.474467 2.404979 -14.415925 0
M  V30 42 H 8.910064 3.566812 -15.971615 0
M  V30 43 H 8.631657 4.820807 -14.800747 0
M  V30 44 H 8.441945 1.075133 -15.140984 0
M  V30 45 H 6.599505 -0.305342 -14.222543 0
M  V30 46 H 4.795727 0.761038 -12.883070 0
M  V30 47 H 4.813495 3.214433 -12.501304 0
M  V30 48 H 5.969906 6.179571 -11.958764 0
M  V30 49 H 6.511154 4.618375 -11.404809 0
M  V30 50 H 8.876676 5.302936 -12.391847 0
M  V30 51 H 8.201459 6.908404 -12.528293 0
M  V30 52 H 8.130603 4.174633 -10.033209 0
M  V30 53 H 9.815306 4.622772 -10.173188 0
M  V30 54 H 9.283959 4.339752 -7.847192 0
M  V30 55 H 7.856404 5.358838 -7.943132 0
M  V30 56 H 9.965210 5.772383 -5.960584 0
M  V30 57 H 12.176936 6.812002 -3.316020 0
M  V30 58 H 10.639070 6.173074 -3.881767 0
M  V30 59 H 12.130605 5.850082 -4.789928 0
M  V30 60 H 11.535013 11.551588 -5.522165 0
M  V30 61 H 10.504005 10.208756 -5.093267 0
M  V30 62 H 12.264091 10.105613 -4.863771 0
M  V30 63 H 10.801139 9.407759 -9.197525 0
M  V30 64 H 10.390095 7.052619 -10.957401 0
M  V30 65 H 9.104761 8.229597 -10.723699 0
M  V30 66 H 11.896544 3.024325 -16.332012 0
M  V30 67 H 7.638230 6.622411 -10.137169 0
M  V30 END ATOM
M  V30 BEGIN BOND
M  V30 1 1 2 1
M  V30 2 1 3 2
M  V30 3 2 4 3
M  V30 4 1 5 4
M  V30 5 2 6 5
M  V30 6 1 7 6
M  V30 7 1 8 7
M  V30 8 1 9 8
M  V30 9 1 10 9
M  V30 10 2 11 10
M  V30 11 1 12 11
M  V30 12 2 13 12
M  V30 13 1 14 13
M  V30 14 1 15 10
M  V30 15 2 15 14
M  V30 16 1 16 15
M  V30 17 1 17 16
M  V30 18 1 18 17
M  V30 19 1 19 18
M  V30 20 1 20 19
M  V30 21 1 21 20
M  V30 22 1 22 21
M  V30 23 2 23 22
M  V30 24 1 24 23
M  V30 25 1 25 24
M  V30 26 1 26 25
M  V30 27 2 27 24
M  V30 28 1 28 27
M  V30 29 1 29 28
M  V30 30 1 30 27
M  V30 31 1 31 22
M  V30 32 2 31 30
M  V30 33 1 32 19
M  V30 34 1 32 31
M  V30 35 1 33 3
M  V30 36 2 33 7
M  V30 37 1 34 1
M  V30 38 1 35 1
M  V30 39 1 36 1
M  V30 40 1 37 4
M  V30 41 1 38 5
M  V30 42 1 39 6
M  V30 43 1 40 8
M  V30 44 1 41 8
M  V30 45 1 42 9
M  V30 46 1 43 9
M  V30 47 1 44 11
M  V30 48 1 45 12
M  V30 49 1 46 13
M  V30 50 1 47 14
M  V30 51 1 48 17
M  V30 52 1 49 17
M  V30 53 1 50 18
M  V30 54 1 51 18
M  V30 55 1 52 20
M  V30 56 1 53 20
M  V30 57 1 54 21
M  V30 58 1 55 21
M  V30 59 1 56 23
M  V30 60 1 57 26
M  V30 61 1 58 26
M  V30 62 1 59 26
M  V30 63 1 60 29
M  V30 64 1 61 29
M  V30 65 1 62 29
M  V30 66 1 63 30
M  V30 67 1 64 32
M  V30 68 1 65 32
M  V30 69 1 66 33
M  V30 70 1 19 67 CFG=1
M  V30 END BOND
M  V30 END CTAB
M  END
>  <b_m_subgroup_collapsed>  (719) 
0

>  <r_i_docking_score>  (719) 
-7.9486491913106896

>  <s_m_subgroup_title>  (719) 
glide-dock_SP_D22_pv

>  <s_m_subgroupid>  (719) 
glide-dock_SP_D22_pv

>  <Molecule ChEMBL ID>  (719) 
CHEMBL486336

>  <Standard Type>  (719) 
Ki

>  <Standard Value>  (719) 
1000000.0

>  <label>  (719) 
0

$$$$
CHEMBL80784
     RDKit          3D

  0  0  0  0  0  0  0  0  0  0999 V3000
M  V30 BEGIN CTAB
M  V30 COUNTS 53 55 0 0 1
M  V30 BEGIN ATOM
M  V30 1 C 10.716154 8.078767 -8.459338 0
M  V30 2 C 11.270216 8.423966 -7.173892 0
M  V30 3 C 11.122299 7.602742 -6.121603 0
M  V30 4 C 11.565315 7.864066 -4.751618 0
M  V30 5 C 11.879812 9.163833 -4.305691 0
M  V30 6 C 12.275968 9.372322 -2.975850 0
M  V30 7 C 12.390552 8.290169 -2.085301 0
M  V30 8 C 12.092535 6.987467 -2.531018 0
M  V30 9 C 11.686139 6.778779 -3.858835 0
M  V30 10 C 10.860626 8.830477 -9.567267 0
M  V30 11 O 10.295022 8.572309 -10.794654 0
M  V30 12 C 9.243996 7.612499 -10.838256 0
M  V30 13 C 9.824855 6.201380 -11.068325 0 CFG=1
M  V30 14 C 8.992997 5.089119 -10.416601 0
M  V30 15 C 7.674068 4.849097 -11.158207 0
M  V30 16 N 7.885036 4.571339 -12.600448 0 CFG=1 CHG=1
M  V30 17 C 6.613475 4.292852 -13.310480 0
M  V30 18 C 6.464161 2.823144 -13.640759 0
M  V30 19 C 5.432887 2.066127 -13.046174 0
M  V30 20 C 5.293138 0.699241 -13.356889 0
M  V30 21 C 6.189635 0.079560 -14.245583 0
M  V30 22 C 7.216868 0.833031 -14.844455 0
M  V30 23 C 7.349062 2.204574 -14.551224 0
M  V30 24 C 8.687925 5.625166 -13.274287 0
M  V30 25 C 10.027416 5.874084 -12.556244 0
M  V30 26 H 10.144322 7.165847 -8.496857 0
M  V30 27 H 11.794736 9.361592 -7.069667 0
M  V30 28 H 10.604642 6.663406 -6.269122 0
M  V30 29 H 11.794431 10.014798 -4.963351 0
M  V30 30 H 12.485683 10.375808 -2.645704 0
M  V30 31 H 12.692899 8.461813 -1.063233 0
M  V30 32 H 12.176679 6.149796 -1.854597 0
M  V30 33 H 11.454200 5.777284 -4.191360 0
M  V30 34 H 11.438459 9.743286 -9.592053 0
M  V30 35 H 8.633526 7.654015 -9.933413 0
M  V30 36 H 8.559502 7.896577 -11.637138 0
M  V30 37 H 10.795281 6.176232 -10.576987 0
M  V30 38 H 9.579704 4.171403 -10.406925 0
M  V30 39 H 8.789364 5.324739 -9.371605 0
M  V30 40 H 7.015351 5.713385 -11.045057 0
M  V30 41 H 7.174294 3.989918 -10.706937 0
M  V30 42 H 5.754422 4.645666 -12.736673 0
M  V30 43 H 6.574914 4.836175 -14.246987 0
M  V30 44 H 4.741599 2.529157 -12.359174 0
M  V30 45 H 4.491907 0.132610 -12.913333 0
M  V30 46 H 6.087544 -0.971915 -14.475645 0
M  V30 47 H 7.901182 0.355971 -15.533031 0
M  V30 48 H 8.136642 2.771990 -15.020555 0
M  V30 49 H 8.097228 6.540457 -13.330383 0
M  V30 50 H 8.885205 5.324005 -14.303976 0
M  V30 51 H 10.577157 6.677827 -13.046195 0
M  V30 52 H 10.649280 4.983102 -12.648527 0
M  V30 53 H 8.431325 3.722106 -12.651094 0
M  V30 END ATOM
M  V30 BEGIN BOND
M  V30 1 1 2 1
M  V30 2 2 3 2
M  V30 3 1 4 3
M  V30 4 2 5 4
M  V30 5 1 6 5
M  V30 6 2 7 6
M  V30 7 1 8 7
M  V30 8 1 9 4
M  V30 9 2 9 8
M  V30 10 2 10 1
M  V30 11 1 11 10
M  V30 12 1 12 11
M  V30 13 1 13 12
M  V30 14 1 14 13
M  V30 15 1 15 14
M  V30 16 1 16 15
M  V30 17 1 17 16
M  V30 18 1 18 17
M  V30 19 2 19 18
M  V30 20 1 20 19
M  V30 21 2 21 20
M  V30 22 1 22 21
M  V30 23 1 23 18
M  V30 24 2 23 22
M  V30 25 1 24 16
M  V30 26 1 25 13
M  V30 27 1 25 24
M  V30 28 1 26 1
M  V30 29 1 27 2
M  V30 30 1 28 3
M  V30 31 1 29 5
M  V30 32 1 30 6
M  V30 33 1 31 7
M  V30 34 1 32 8
M  V30 35 1 33 9
M  V30 36 1 34 10
M  V30 37 1 35 12
M  V30 38 1 36 12
M  V30 39 1 13 37 CFG=1
M  V30 40 1 38 14
M  V30 41 1 39 14
M  V30 42 1 40 15
M  V30 43 1 41 15
M  V30 44 1 42 17
M  V30 45 1 43 17
M  V30 46 1 44 19
M  V30 47 1 45 20
M  V30 48 1 46 21
M  V30 49 1 47 22
M  V30 50 1 48 23
M  V30 51 1 49 24
M  V30 52 1 50 24
M  V30 53 1 51 25
M  V30 54 1 52 25
M  V30 55 1 16 53 CFG=1
M  V30 END BOND
M  V30 END CTAB
M  END
>  <b_m_subgroup_collapsed>  (720) 
0

>  <r_i_docking_score>  (720) 
-7.9484810157483201

>  <s_m_subgroup_title>  (720) 
glide-dock_SP_D22_pv

>  <s_m_subgroupid>  (720) 
glide-dock_SP_D22_pv

>  <Molecule ChEMBL ID>  (720) 
CHEMBL80784

>  <Standard Type>  (720) 
Ki

>  <Standard Value>  (720) 
10000.0

>  <label>  (720) 
0

$$$$
CHEMBL133830
     RDKit          3D

  0  0  0  0  0  0  0  0  0  0999 V3000
M  V30 BEGIN CTAB
M  V30 COUNTS 26 27 0 0 1
M  V30 BEGIN ATOM
M  V30 1 N 8.486055 6.172318 -9.481306 0 CHG=1
M  V30 2 C 9.658198 6.769335 -8.809816 0 CFG=1
M  V30 3 C 9.820960 8.252997 -9.170847 0
M  V30 4 C 11.104189 8.824735 -8.550420 0
M  V30 5 C 11.234768 8.531175 -7.062778 0
M  V30 6 C 12.019632 9.373469 -6.243541 0
M  V30 7 C 12.223570 9.063892 -4.885099 0
M  V30 8 C 11.687141 7.880077 -4.349048 0
M  V30 9 O 11.946568 7.541049 -3.052771 0
M  V30 10 C 10.885900 7.049789 -5.155281 0
M  V30 11 C 10.610584 7.393293 -6.496681 0
M  V30 12 C 9.591070 6.574281 -7.285518 0
M  V30 13 H 7.654479 6.745346 -9.318216 0
M  V30 14 H 8.631678 6.154319 -10.479750 0
M  V30 15 H 10.537710 6.236367 -9.174897 0
M  V30 16 H 9.843835 8.390392 -10.252559 0
M  V30 17 H 8.957534 8.813993 -8.807821 0
M  V30 18 H 11.177179 9.891607 -8.740976 0
M  V30 19 H 11.970292 8.381371 -9.043744 0
M  V30 20 H 12.489882 10.256691 -6.647046 0
M  V30 21 H 12.834332 9.709312 -4.270829 0
M  V30 22 H 11.581222 6.705942 -2.803910 0
M  V30 23 H 10.428981 6.172363 -4.725358 0
M  V30 24 H 9.708011 5.518996 -7.047184 0
M  V30 25 H 8.603488 6.865471 -6.921404 0
M  V30 26 H 8.310673 5.235865 -9.146271 0
M  V30 END ATOM
M  V30 BEGIN BOND
M  V30 1 1 2 1
M  V30 2 1 3 2
M  V30 3 1 4 3
M  V30 4 1 5 4
M  V30 5 1 6 5
M  V30 6 2 7 6
M  V30 7 1 8 7
M  V30 8 1 9 8
M  V30 9 2 10 8
M  V30 10 2 11 5
M  V30 11 1 11 10
M  V30 12 1 12 2
M  V30 13 1 12 11
M  V30 14 1 13 1
M  V30 15 1 14 1
M  V30 16 1 2 15 CFG=3
M  V30 17 1 16 3
M  V30 18 1 17 3
M  V30 19 1 18 4
M  V30 20 1 19 4
M  V30 21 1 20 6
M  V30 22 1 21 7
M  V30 23 1 22 9
M  V30 24 1 23 10
M  V30 25 1 24 12
M  V30 26 1 25 12
M  V30 27 1 26 1
M  V30 END BOND
M  V30 END CTAB
M  END
>  <b_m_subgroup_collapsed>  (721) 
0

>  <r_i_docking_score>  (721) 
-7.9447374824753698

>  <s_m_subgroup_title>  (721) 
glide-dock_SP_D22_pv

>  <s_m_subgroupid>  (721) 
glide-dock_SP_D22_pv

>  <Molecule ChEMBL ID>  (721) 
CHEMBL133830

>  <Standard Type>  (721) 
Ki

>  <Standard Value>  (721) 
3.3

>  <label>  (721) 
1

$$$$
CHEMBL123937
     RDKit          3D

  0  0  0  0  0  0  0  0  0  0999 V3000
M  V30 BEGIN CTAB
M  V30 COUNTS 53 57 0 0 1
M  V30 BEGIN ATOM
M  V30 1 O 9.605990 5.235726 -13.904859 0
M  V30 2 C 8.547674 4.684615 -13.600274 0
M  V30 3 C 8.156950 3.349522 -14.145555 0
M  V30 4 C 9.065385 2.656307 -14.979615 0
M  V30 5 C 8.745746 1.383818 -15.490364 0
M  V30 6 C 7.510586 0.789551 -15.176718 0
M  V30 7 C 6.594149 1.472458 -14.356909 0
M  V30 8 C 6.905383 2.750777 -13.846951 0
M  V30 9 C 5.912898 3.424838 -12.918861 0
M  V30 10 C 6.134865 4.936038 -12.818761 0
M  V30 11 C 7.607485 5.363072 -12.569049 0 CFG=1
M  V30 12 C 8.020820 4.951551 -11.142200 0
M  V30 13 C 9.297798 5.586738 -10.623174 0
M  V30 14 N 9.176218 7.065398 -10.597440 0 CFG=1 CHG=1
M  V30 15 C 10.354996 7.748297 -9.993709 0
M  V30 16 C 10.509719 7.678209 -8.472240 0
M  V30 17 C 10.886047 6.487346 -7.824618 0
M  V30 18 C 11.285923 6.494364 -6.477957 0
M  V30 19 C 11.268789 7.673108 -5.725548 0
M  V30 20 C 11.686090 7.660818 -4.378242 0
M  V30 21 C 11.693810 8.857324 -3.639889 0
M  V30 22 C 11.285895 10.054292 -4.254323 0
M  V30 23 C 10.885835 10.065247 -5.604555 0
M  V30 24 C 10.856956 8.870973 -6.346731 0
M  V30 25 C 10.462676 8.860321 -7.704751 0
M  V30 26 C 8.916016 7.569460 -11.970732 0
M  V30 27 C 7.686415 6.912409 -12.646840 0
M  V30 28 H 10.024567 3.089596 -15.225652 0
M  V30 29 H 9.451874 0.859661 -16.117586 0
M  V30 30 H 7.268360 -0.191311 -15.560668 0
M  V30 31 H 5.650935 1.005365 -14.113583 0
M  V30 32 H 4.896078 3.224806 -13.258945 0
M  V30 33 H 6.003109 2.970499 -11.931799 0
M  V30 34 H 5.487246 5.337944 -12.037931 0
M  V30 35 H 5.774488 5.372297 -13.748315 0
M  V30 36 H 7.285972 5.280474 -10.428440 0
M  V30 37 H 8.072002 3.868810 -11.057918 0
M  V30 38 H 9.435316 5.191574 -9.623251 0
M  V30 39 H 10.145570 5.274748 -11.226727 0
M  V30 40 H 11.267776 7.362854 -10.451689 0
M  V30 41 H 10.321385 8.804710 -10.265597 0
M  V30 42 H 10.984067 5.561193 -8.360916 0
M  V30 43 H 11.662576 5.590079 -6.029677 0
M  V30 44 H 12.000050 6.738884 -3.909621 0
M  V30 45 H 12.004852 8.857882 -2.604976 0
M  V30 46 H 11.285917 10.970325 -3.684389 0
M  V30 47 H 10.584875 10.986425 -6.072250 0
M  V30 48 H 10.179096 9.771051 -8.191422 0
M  V30 49 H 8.753458 8.647738 -11.936543 0
M  V30 50 H 9.805862 7.416222 -12.583618 0
M  V30 51 H 7.685978 7.217673 -13.686274 0
M  V30 52 H 6.774093 7.349989 -12.246879 0
M  V30 53 H 8.343242 7.308691 -10.063369 0
M  V30 END ATOM
M  V30 BEGIN BOND
M  V30 1 2 2 1
M  V30 2 1 3 2
M  V30 3 2 4 3
M  V30 4 1 5 4
M  V30 5 2 6 5
M  V30 6 1 7 6
M  V30 7 1 8 3
M  V30 8 2 8 7
M  V30 9 1 9 8
M  V30 10 1 10 9
M  V30 11 1 11 2
M  V30 12 1 11 10 CFG=3
M  V30 13 1 12 11
M  V30 14 1 13 12
M  V30 15 1 14 13
M  V30 16 1 15 14
M  V30 17 1 16 15
M  V30 18 1 17 16
M  V30 19 2 18 17
M  V30 20 1 19 18
M  V30 21 2 20 19
M  V30 22 1 21 20
M  V30 23 2 22 21
M  V30 24 1 23 22
M  V30 25 1 24 19
M  V30 26 2 24 23
M  V30 27 2 25 16
M  V30 28 1 25 24
M  V30 29 1 26 14
M  V30 30 1 27 11
M  V30 31 1 27 26
M  V30 32 1 28 4
M  V30 33 1 29 5
M  V30 34 1 30 6
M  V30 35 1 31 7
M  V30 36 1 32 9
M  V30 37 1 33 9
M  V30 38 1 34 10
M  V30 39 1 35 10
M  V30 40 1 36 12
M  V30 41 1 37 12
M  V30 42 1 38 13
M  V30 43 1 39 13
M  V30 44 1 40 15
M  V30 45 1 41 15
M  V30 46 1 42 17
M  V30 47 1 43 18
M  V30 48 1 44 20
M  V30 49 1 45 21
M  V30 50 1 46 22
M  V30 51 1 47 23
M  V30 52 1 48 25
M  V30 53 1 49 26
M  V30 54 1 50 26
M  V30 55 1 51 27
M  V30 56 1 52 27
M  V30 57 1 14 53 CFG=1
M  V30 END BOND
M  V30 END CTAB
M  END
>  <b_m_subgroup_collapsed>  (722) 
0

>  <r_i_docking_score>  (722) 
-7.9440318426036596

>  <s_m_subgroup_title>  (722) 
glide-dock_SP_D22_pv

>  <s_m_subgroupid>  (722) 
glide-dock_SP_D22_pv

>  <Molecule ChEMBL ID>  (722) 
CHEMBL123937

>  <Standard Type>  (722) 
Ki

>  <Standard Value>  (722) 
10000.0

>  <label>  (722) 
0

$$$$
CHEMBL179351
     RDKit          3D

  0  0  0  0  0  0  0  0  0  0999 V3000
M  V30 BEGIN CTAB
M  V30 COUNTS 58 61 0 0 1
M  V30 BEGIN ATOM
M  V30 1 O 9.605081 7.098107 -11.323233 0
M  V30 2 C 10.689006 7.366654 -10.809956 0
M  V30 3 N 11.840936 7.394193 -11.501183 0
M  V30 4 C 11.978025 7.248753 -12.949565 0
M  V30 5 C 12.050778 5.801041 -13.405404 0
M  V30 6 C 11.178344 5.207059 -14.235774 0
M  V30 7 C 11.285528 3.767831 -14.708714 0
M  V30 8 N 10.101484 2.922769 -14.394397 0 CHG=1
M  V30 9 C 8.823106 3.492273 -14.911027 0
M  V30 10 C 7.623834 2.572133 -14.644086 0
M  V30 11 N 7.903694 1.243368 -15.152948 0
M  V30 12 C 6.830969 0.428798 -15.552852 0
M  V30 13 C 6.843726 -0.047425 -16.881031 0
M  V30 14 C 5.779256 -0.819213 -17.378355 0
M  V30 15 C 4.682776 -1.117816 -16.551739 0
M  V30 16 C 4.660672 -0.656551 -15.224159 0
M  V30 17 Cl 3.286118 -1.007487 -14.245816 0
M  V30 18 C 5.736766 0.097861 -14.707457 0
M  V30 19 Cl 5.686556 0.597563 -13.048073 0
M  V30 20 C 9.100960 0.603036 -14.638501 0
M  V30 21 C 10.327022 1.516973 -14.848719 0
M  V30 22 C 10.832400 7.586970 -9.328188 0
M  V30 23 C 10.084209 6.816954 -8.408721 0
M  V30 24 C 10.278452 6.973218 -7.019734 0
M  V30 25 C 11.195062 7.930228 -6.530276 0
M  V30 26 C 11.505405 8.030405 -5.105565 0
M  V30 27 N 11.730866 9.175127 -4.459707 0
M  V30 28 C 12.086044 8.813780 -3.157980 0
M  V30 29 C 12.067433 7.444270 -3.042323 0
M  V30 30 N 11.685555 6.980419 -4.290533 0
M  V30 31 C 11.886132 8.748903 -7.445994 0
M  V30 32 C 11.713621 8.573411 -8.832784 0
M  V30 33 H 12.676838 7.616867 -10.982498 0
M  V30 34 H 12.901721 7.748206 -13.251925 0
M  V30 35 H 11.164728 7.771154 -13.446633 0
M  V30 36 H 12.885809 5.223564 -13.040377 0
M  V30 37 H 10.347333 5.777646 -14.620588 0
M  V30 38 H 11.453272 3.780406 -15.787210 0
M  V30 39 H 12.170089 3.321472 -14.257512 0
M  V30 40 H 8.611293 4.452250 -14.446905 0
M  V30 41 H 8.918083 3.668380 -15.984546 0
M  V30 42 H 7.437716 2.530811 -13.571752 0
M  V30 43 H 6.718294 2.970768 -15.101982 0
M  V30 44 H 7.674134 0.187312 -17.531324 0
M  V30 45 H 5.799638 -1.176094 -18.397940 0
M  V30 46 H 3.858239 -1.703757 -16.935959 0
M  V30 47 H 8.945851 0.395193 -13.579253 0
M  V30 48 H 9.258469 -0.359175 -15.129920 0
M  V30 49 H 10.563591 1.532038 -15.914225 0
M  V30 50 H 11.207471 1.105349 -14.346185 0
M  V30 51 H 9.384892 6.074676 -8.764580 0
M  V30 52 H 9.726445 6.350753 -6.330594 0
M  V30 53 H 12.317437 9.563100 -2.414716 0
M  V30 54 H 12.270438 6.786306 -2.209637 0
M  V30 55 H 11.575395 6.011074 -4.554943 0
M  V30 56 H 12.590864 9.484434 -7.080830 0
M  V30 57 H 12.276655 9.196085 -9.512514 0
M  V30 58 H 10.010088 2.876368 -13.387037 0
M  V30 END ATOM
M  V30 BEGIN BOND
M  V30 1 2 2 1
M  V30 2 1 3 2
M  V30 3 1 4 3
M  V30 4 1 5 4
M  V30 5 2 6 5
M  V30 6 1 7 6
M  V30 7 1 8 7
M  V30 8 1 9 8
M  V30 9 1 10 9
M  V30 10 1 11 10
M  V30 11 1 12 11
M  V30 12 2 13 12
M  V30 13 1 14 13
M  V30 14 2 15 14
M  V30 15 1 16 15
M  V30 16 1 17 16
M  V30 17 1 18 12
M  V30 18 2 18 16
M  V30 19 1 19 18
M  V30 20 1 20 11
M  V30 21 1 21 8
M  V30 22 1 21 20
M  V30 23 1 22 2
M  V30 24 1 23 22
M  V30 25 2 24 23
M  V30 26 1 25 24
M  V30 27 1 26 25
M  V30 28 2 27 26
M  V30 29 1 28 27
M  V30 30 2 29 28
M  V30 31 1 30 26
M  V30 32 1 30 29
M  V30 33 2 31 25
M  V30 34 2 32 22
M  V30 35 1 32 31
M  V30 36 1 33 3
M  V30 37 1 34 4
M  V30 38 1 35 4
M  V30 39 1 36 5
M  V30 40 1 37 6
M  V30 41 1 38 7
M  V30 42 1 39 7
M  V30 43 1 40 9
M  V30 44 1 41 9
M  V30 45 1 42 10
M  V30 46 1 43 10
M  V30 47 1 44 13
M  V30 48 1 45 14
M  V30 49 1 46 15
M  V30 50 1 47 20
M  V30 51 1 48 20
M  V30 52 1 49 21
M  V30 53 1 50 21
M  V30 54 1 51 23
M  V30 55 1 52 24
M  V30 56 1 53 28
M  V30 57 1 54 29
M  V30 58 1 55 30
M  V30 59 1 56 31
M  V30 60 1 57 32
M  V30 61 1 58 8
M  V30 END BOND
M  V30 END CTAB
M  END
>  <b_m_subgroup_collapsed>  (723) 
0

>  <r_i_docking_score>  (723) 
-7.9437311094397698

>  <s_m_subgroup_title>  (723) 
glide-dock_SP_D22_pv

>  <s_m_subgroupid>  (723) 
glide-dock_SP_D22_pv

>  <Molecule ChEMBL ID>  (723) 
CHEMBL179351

>  <Standard Type>  (723) 
Ki

>  <Standard Value>  (723) 
8.0

>  <label>  (723) 
1

$$$$
CHEMBL5950738
     RDKit          3D

  0  0  0  0  0  0  0  0  0  0999 V3000
M  V30 BEGIN CTAB
M  V30 COUNTS 55 57 0 0 1
M  V30 BEGIN ATOM
M  V30 1 O 11.068006 9.873570 -6.402570 0
M  V30 2 C 10.983136 8.779343 -5.847498 0
M  V30 3 N 10.156780 7.810545 -6.277261 0
M  V30 4 C 9.347528 7.857348 -7.490424 0
M  V30 5 C 9.535898 6.551195 -8.288950 0
M  V30 6 N 8.885924 6.572456 -9.624205 0 CFG=2 CHG=1
M  V30 7 C 8.635802 5.206747 -10.150625 0
M  V30 8 C 7.820811 5.269744 -11.452344 0
M  V30 9 C 8.542990 6.071520 -12.555780 0 CFG=2
M  V30 10 C 9.711314 5.303251 -13.190434 0
M  V30 11 C 11.008048 5.852024 -13.319814 0
M  V30 12 C 12.006695 5.099959 -13.962375 0
M  V30 13 C 11.685856 3.822165 -14.442723 0
M  V30 14 C 10.371790 3.347899 -14.284828 0
M  V30 15 O 10.077412 2.082399 -14.743313 0
M  V30 16 C 8.835605 1.776572 -15.209451 0
M  V30 17 F 8.835917 0.503206 -15.673519 0
M  V30 18 F 7.880460 1.844444 -14.249525 0
M  V30 19 F 8.485386 2.571791 -16.250223 0
M  V30 20 N 9.398950 4.085030 -13.694447 0
M  V30 21 C 8.885888 7.464309 -11.968426 0
M  V30 22 C 9.620381 7.399650 -10.615747 0
M  V30 23 C 11.863739 8.495123 -4.618717 0
M  V30 24 C 11.534977 9.454585 -3.461570 0
M  V30 25 C 12.365508 9.134168 -2.211071 0
M  V30 26 O 12.180593 7.771978 -1.847405 0
M  V30 27 C 12.632918 6.861552 -2.843145 0
M  V30 28 C 11.824447 7.026597 -4.134034 0
M  V30 29 H 10.129249 6.953656 -5.744130 0
M  V30 30 H 9.613980 8.728730 -8.090026 0
M  V30 31 H 8.299957 7.985318 -7.208393 0
M  V30 32 H 9.115925 5.737373 -7.694798 0
M  V30 33 H 10.598444 6.321867 -8.408598 0
M  V30 34 H 8.086082 4.623411 -9.411764 0
M  V30 35 H 9.583056 4.688397 -10.314601 0
M  V30 36 H 6.868027 5.757134 -11.237060 0
M  V30 37 H 7.566886 4.266783 -11.793489 0
M  V30 38 H 7.836896 6.229268 -13.372037 0
M  V30 39 H 11.261723 6.835958 -12.960781 0
M  V30 40 H 13.002234 5.500778 -14.087427 0
M  V30 41 H 12.431020 3.218699 -14.940585 0
M  V30 42 H 9.463813 8.079660 -12.646860 0
M  V30 43 H 7.955330 8.016496 -11.846656 0
M  V30 44 H 9.743375 8.415994 -10.246367 0
M  V30 45 H 10.625565 6.996470 -10.743730 0
M  V30 46 H 12.885696 8.718106 -4.922594 0
M  V30 47 H 11.686234 10.492063 -3.755870 0
M  V30 48 H 10.486040 9.372222 -3.213543 0
M  V30 49 H 13.419733 9.342261 -2.376320 0
M  V30 50 H 12.061142 9.765326 -1.378986 0
M  V30 51 H 13.685990 7.029556 -3.047126 0
M  V30 52 H 12.538025 5.843660 -2.463178 0
M  V30 53 H 10.814346 6.680132 -3.942506 0
M  V30 54 H 12.216824 6.363661 -4.905445 0
M  V30 55 H 7.962204 6.995729 -9.520689 0
M  V30 END ATOM
M  V30 BEGIN BOND
M  V30 1 2 2 1
M  V30 2 1 3 2
M  V30 3 1 4 3
M  V30 4 1 5 4
M  V30 5 1 6 5
M  V30 6 1 7 6
M  V30 7 1 8 7
M  V30 8 1 9 8
M  V30 9 1 10 9
M  V30 10 2 11 10
M  V30 11 1 12 11
M  V30 12 2 13 12
M  V30 13 1 14 13
M  V30 14 1 15 14
M  V30 15 1 16 15
M  V30 16 1 17 16
M  V30 17 1 18 16
M  V30 18 1 19 16
M  V30 19 1 20 10
M  V30 20 2 20 14
M  V30 21 1 21 9
M  V30 22 1 22 6
M  V30 23 1 22 21
M  V30 24 1 23 2
M  V30 25 1 24 23
M  V30 26 1 25 24
M  V30 27 1 26 25
M  V30 28 1 27 26
M  V30 29 1 28 23
M  V30 30 1 28 27
M  V30 31 1 29 3
M  V30 32 1 30 4
M  V30 33 1 31 4
M  V30 34 1 32 5
M  V30 35 1 33 5
M  V30 36 1 34 7
M  V30 37 1 35 7
M  V30 38 1 36 8
M  V30 39 1 37 8
M  V30 40 1 9 38 CFG=3
M  V30 41 1 39 11
M  V30 42 1 40 12
M  V30 43 1 41 13
M  V30 44 1 42 21
M  V30 45 1 43 21
M  V30 46 1 44 22
M  V30 47 1 45 22
M  V30 48 1 46 23
M  V30 49 1 47 24
M  V30 50 1 48 24
M  V30 51 1 49 25
M  V30 52 1 50 25
M  V30 53 1 51 27
M  V30 54 1 52 27
M  V30 55 1 53 28
M  V30 56 1 54 28
M  V30 57 1 6 55 CFG=1
M  V30 END BOND
M  V30 END CTAB
M  END
>  <b_m_subgroup_collapsed>  (724) 
0

>  <r_i_docking_score>  (724) 
-7.9434373667526099

>  <s_m_subgroup_title>  (724) 
glide-dock_SP_D22_pv

>  <s_m_subgroupid>  (724) 
glide-dock_SP_D22_pv

>  <Molecule ChEMBL ID>  (724) 
CHEMBL5950738

>  <Standard Type>  (724) 
Ki

>  <Standard Value>  (724) 
28.0

>  <label>  (724) 
1

$$$$
CHEMBL241083
     RDKit          3D

  0  0  0  0  0  0  0  0  0  0999 V3000
M  V30 BEGIN CTAB
M  V30 COUNTS 36 39 0 0 1
M  V30 BEGIN ATOM
M  V30 1 C 12.486007 6.968358 -13.502854 0
M  V30 2 C 11.286159 6.242653 -13.549883 0
M  V30 3 C 10.324669 6.411998 -12.535634 0
M  V30 4 C 10.580462 7.250278 -11.419150 0
M  V30 5 C 9.481090 7.545552 -10.385143 0 CFG=1
M  V30 6 N 8.486038 6.435947 -10.345302 0 CHG=1
M  V30 7 C 8.868722 5.299953 -9.472700 0
M  V30 8 C 9.032115 5.753847 -8.012280 0
M  V30 9 C 9.839328 6.998455 -7.918716 0
M  V30 10 C 9.988713 7.832630 -8.986561 0
M  V30 11 N 10.653636 8.972339 -8.551311 0
M  V30 12 C 11.044260 8.840852 -7.226312 0
M  V30 13 C 11.754129 9.681825 -6.343989 0
M  V30 14 C 12.057662 9.230768 -5.046349 0
M  V30 15 C 11.633014 7.956041 -4.631886 0
M  V30 16 C 10.883552 7.139401 -5.502707 0
M  V30 17 C 10.570859 7.559747 -6.817543 0
M  V30 18 C 11.851661 7.864642 -11.328671 0
M  V30 19 C 12.773709 7.772219 -12.386554 0
M  V30 20 H 13.207334 6.878588 -14.302309 0
M  V30 21 H 11.074563 5.606627 -14.397125 0
M  V30 22 H 9.381366 5.903534 -12.662089 0
M  V30 23 H 8.947098 8.424877 -10.748123 0
M  V30 24 H 7.596504 6.855762 -10.038069 0
M  V30 25 H 9.804893 4.876251 -9.840197 0
M  V30 26 H 8.116001 4.513689 -9.541421 0
M  V30 27 H 9.516854 4.972274 -7.446929 0
M  V30 28 H 8.054441 5.913810 -7.557466 0
M  V30 29 H 10.853846 9.759893 -9.150147 0
M  V30 30 H 12.090164 10.660805 -6.647186 0
M  V30 31 H 12.625042 9.851554 -4.369491 0
M  V30 32 H 11.867451 7.608775 -3.636022 0
M  V30 33 H 10.542777 6.172630 -5.162384 0
M  V30 34 H 12.119553 8.504002 -10.503931 0
M  V30 35 H 13.712403 8.304944 -12.335138 0
M  V30 36 H 8.329584 6.105826 -11.283395 0
M  V30 END ATOM
M  V30 BEGIN BOND
M  V30 1 2 2 1
M  V30 2 1 3 2
M  V30 3 2 4 3
M  V30 4 1 5 4
M  V30 5 1 6 5
M  V30 6 1 7 6
M  V30 7 1 8 7
M  V30 8 1 9 8
M  V30 9 1 10 5
M  V30 10 2 10 9
M  V30 11 1 11 10
M  V30 12 1 12 11
M  V30 13 2 13 12
M  V30 14 1 14 13
M  V30 15 2 15 14
M  V30 16 1 16 15
M  V30 17 1 17 9
M  V30 18 1 17 12
M  V30 19 2 17 16
M  V30 20 1 18 4
M  V30 21 1 19 1
M  V30 22 2 19 18
M  V30 23 1 20 1
M  V30 24 1 21 2
M  V30 25 1 22 3
M  V30 26 1 5 23 CFG=3
M  V30 27 1 24 6
M  V30 28 1 25 7
M  V30 29 1 26 7
M  V30 30 1 27 8
M  V30 31 1 28 8
M  V30 32 1 29 11
M  V30 33 1 30 13
M  V30 34 1 31 14
M  V30 35 1 32 15
M  V30 36 1 33 16
M  V30 37 1 34 18
M  V30 38 1 35 19
M  V30 39 1 36 6
M  V30 END BOND
M  V30 END CTAB
M  END
>  <b_m_subgroup_collapsed>  (725) 
0

>  <r_i_docking_score>  (725) 
-7.94313780907828

>  <s_m_subgroup_title>  (725) 
glide-dock_SP_D22_pv

>  <s_m_subgroupid>  (725) 
glide-dock_SP_D22_pv

>  <Molecule ChEMBL ID>  (725) 
CHEMBL241083

>  <Standard Type>  (725) 
Ki

>  <Standard Value>  (725) 
300000.0

>  <label>  (725) 
0

$$$$
CHEMBL5966386
     RDKit          3D

  0  0  0  0  0  0  0  0  0  0999 V3000
M  V30 BEGIN CTAB
M  V30 COUNTS 60 63 0 0 1
M  V30 BEGIN ATOM
M  V30 1 C 5.889042 3.940363 -12.456804 0
M  V30 2 C 6.831697 4.874588 -13.229983 0
M  V30 3 N 8.183729 4.915281 -12.653797 0
M  V30 4 C 8.249063 5.870778 -11.520709 0
M  V30 5 C 9.639448 6.157197 -10.899275 0
M  V30 6 N 9.632404 7.263859 -9.914351 0 CFG=1 CHG=1
M  V30 7 C 8.895654 6.941938 -8.668716 0
M  V30 8 C 8.806682 8.184603 -7.759212 0
M  V30 9 C 10.193654 8.757957 -7.423574 0 CFG=1
M  V30 10 C 10.877723 7.968055 -6.335408 0
M  V30 11 N 11.157381 6.673423 -6.479803 0
M  V30 12 O 11.683551 6.209589 -5.245451 0
M  V30 13 C 11.782100 7.263427 -4.357098 0
M  V30 14 C 12.285007 7.332066 -3.053539 0
M  V30 15 C 12.317821 8.601677 -2.442086 0
M  V30 16 F 12.835471 8.724949 -1.202077 0
M  V30 17 C 11.821409 9.742249 -3.122553 0
M  V30 18 C 11.287977 9.638865 -4.426452 0
M  V30 19 C 11.291398 8.372484 -5.051416 0
M  V30 20 C 11.030641 8.950053 -8.702102 0
M  V30 21 C 11.015276 7.729187 -9.628963 0
M  V30 22 C 9.185218 4.068598 -13.023345 0
M  V30 23 O 10.084176 3.775753 -12.247586 0
M  V30 24 C 9.340818 3.530202 -14.473736 0 CFG=2
M  V30 25 O 9.286251 4.602319 -15.395949 0
M  V30 26 C 8.346809 2.395784 -14.813910 0
M  V30 27 C 9.139641 1.079017 -14.767902 0
M  V30 28 N 10.482516 1.436026 -14.296096 0 CHG=1
M  V30 29 C 10.704461 2.830461 -14.695806 0
M  V30 30 H 4.918968 3.882682 -12.950325 0
M  V30 31 H 6.269894 2.926215 -12.375952 0
M  V30 32 H 5.713606 4.304746 -11.447460 0
M  V30 33 H 6.387690 5.869169 -13.220680 0
M  V30 34 H 6.849143 4.573120 -14.267936 0
M  V30 35 H 7.835615 6.824333 -11.850697 0
M  V30 36 H 7.576154 5.494606 -10.751654 0
M  V30 37 H 10.031426 5.279494 -10.388811 0
M  V30 38 H 10.337512 6.410062 -11.696741 0
M  V30 39 H 7.908195 6.568350 -8.909145 0
M  V30 40 H 9.375284 6.109152 -8.162604 0
M  V30 41 H 8.253509 7.961384 -6.847815 0
M  V30 42 H 8.230879 8.956648 -8.273926 0
M  V30 43 H 10.035905 9.756075 -7.019265 0
M  V30 44 H 12.655589 6.450051 -2.551872 0
M  V30 45 H 11.869018 10.710047 -2.647316 0
M  V30 46 H 10.923519 10.516818 -4.942157 0
M  V30 47 H 12.054296 9.238292 -8.457354 0
M  V30 48 H 10.606000 9.772184 -9.272022 0
M  V30 49 H 11.593702 6.921066 -9.186094 0
M  V30 50 H 11.517150 7.993864 -10.560708 0
M  V30 51 H 10.000707 5.197736 -15.220028 0
M  V30 52 H 7.523812 2.334251 -14.104016 0
M  V30 53 H 7.904497 2.536213 -15.801515 0
M  V30 54 H 8.681129 0.331462 -14.117567 0
M  V30 55 H 9.217965 0.652865 -15.769605 0
M  V30 56 H 10.485471 1.372039 -13.277784 0
M  V30 57 H 10.966741 2.831748 -15.753901 0
M  V30 58 H 11.546489 3.277007 -14.163704 0
M  V30 59 H 11.184588 0.821574 -14.678679 0
M  V30 60 H 9.127461 8.027062 -10.342844 0
M  V30 END ATOM
M  V30 BEGIN BOND
M  V30 1 1 2 1
M  V30 2 1 3 2
M  V30 3 1 4 3
M  V30 4 1 5 4
M  V30 5 1 6 5
M  V30 6 1 7 6
M  V30 7 1 8 7
M  V30 8 1 9 8
M  V30 9 1 10 9
M  V30 10 2 11 10
M  V30 11 1 12 11
M  V30 12 1 13 12
M  V30 13 1 14 13
M  V30 14 2 15 14
M  V30 15 1 16 15
M  V30 16 1 17 15
M  V30 17 2 18 17
M  V30 18 1 19 10
M  V30 19 2 19 13
M  V30 20 1 19 18
M  V30 21 1 20 9
M  V30 22 1 21 6
M  V30 23 1 21 20
M  V30 24 1 22 3
M  V30 25 2 23 22
M  V30 26 1 24 22
M  V30 27 1 24 25 CFG=3
M  V30 28 1 26 24
M  V30 29 1 27 26
M  V30 30 1 28 27
M  V30 31 1 29 24
M  V30 32 1 29 28
M  V30 33 1 30 1
M  V30 34 1 31 1
M  V30 35 1 32 1
M  V30 36 1 33 2
M  V30 37 1 34 2
M  V30 38 1 35 4
M  V30 39 1 36 4
M  V30 40 1 37 5
M  V30 41 1 38 5
M  V30 42 1 39 7
M  V30 43 1 40 7
M  V30 44 1 41 8
M  V30 45 1 42 8
M  V30 46 1 9 43 CFG=1
M  V30 47 1 44 14
M  V30 48 1 45 17
M  V30 49 1 46 18
M  V30 50 1 47 20
M  V30 51 1 48 20
M  V30 52 1 49 21
M  V30 53 1 50 21
M  V30 54 1 51 25
M  V30 55 1 52 26
M  V30 56 1 53 26
M  V30 57 1 54 27
M  V30 58 1 55 27
M  V30 59 1 56 28
M  V30 60 1 57 29
M  V30 61 1 58 29
M  V30 62 1 59 28
M  V30 63 1 6 60 CFG=3
M  V30 END BOND
M  V30 END CTAB
M  END
>  <b_m_subgroup_collapsed>  (726) 
0

>  <r_i_docking_score>  (726) 
-7.9425457522143201

>  <s_m_subgroup_title>  (726) 
glide-dock_SP_D22_pv

>  <s_m_subgroupid>  (726) 
glide-dock_SP_D22_pv

>  <Molecule ChEMBL ID>  (726) 
CHEMBL5966386

>  <Standard Type>  (726) 
Ki

>  <Standard Value>  (726) 
52.0

>  <label>  (726) 
1

$$$$
CHEMBL3085819
     RDKit          3D

  0  0  0  0  0  0  0  0  0  0999 V3000
M  V30 BEGIN CTAB
M  V30 COUNTS 52 54 0 0 1
M  V30 BEGIN ATOM
M  V30 1 C 11.792476 3.114498 -18.311405 0
M  V30 2 C 10.636685 3.296096 -17.335087 0
M  V30 3 O 9.473673 3.200444 -17.726721 0
M  V30 4 N 10.970435 3.558895 -16.063335 0
M  V30 5 C 10.018015 3.739603 -14.972903 0 CFG=1
M  V30 6 C 10.690515 3.437125 -13.626399 0
M  V30 7 C 9.685014 3.642225 -12.485584 0
M  V30 8 C 9.134889 5.078452 -12.424486 0 CFG=2
M  V30 9 C 8.133554 5.260934 -11.258441 0
M  V30 10 C 8.748309 5.178884 -9.839121 0
M  V30 11 N 8.885539 6.478032 -9.123588 0 CFG=2 CHG=1
M  V30 12 C 9.773161 7.457666 -9.796405 0
M  V30 13 C 9.814256 8.779283 -9.014942 0
M  V30 14 C 10.320678 8.540462 -7.608982 0
M  V30 15 C 11.099713 9.507076 -6.944431 0
M  V30 16 C 11.640740 9.246177 -5.673200 0
M  V30 17 C 11.401390 8.004348 -5.055912 0
M  V30 18 C 12.006474 7.708570 -3.765365 0
M  V30 19 N 12.485888 7.473815 -2.739255 0
M  V30 20 C 10.592333 7.047821 -5.705869 0
M  V30 21 C 10.040706 7.312425 -6.979990 0
M  V30 22 C 9.175403 6.260381 -7.671233 0
M  V30 23 C 8.476952 5.390344 -13.784052 0
M  V30 24 C 9.450307 5.169055 -14.960830 0
M  V30 25 H 12.346730 4.046749 -18.421583 0
M  V30 26 H 12.475779 2.342322 -17.957026 0
M  V30 27 H 11.423775 2.817944 -19.293715 0
M  V30 28 H 11.951855 3.621118 -15.835819 0
M  V30 29 H 9.194928 3.034177 -15.109214 0
M  V30 30 H 11.561693 4.076549 -13.476768 0
M  V30 31 H 11.045845 2.405807 -13.618210 0
M  V30 32 H 10.088896 3.329052 -11.528440 0
M  V30 33 H 8.859880 2.972385 -12.680890 0
M  V30 34 H 9.966796 5.768551 -12.280180 0
M  V30 35 H 7.374787 4.481488 -11.344370 0
M  V30 36 H 7.576539 6.187359 -11.377344 0
M  V30 37 H 9.712296 4.671699 -9.845968 0
M  V30 38 H 8.086413 4.551039 -9.239599 0
M  V30 39 H 10.776823 7.039876 -9.890640 0
M  V30 40 H 9.410920 7.655322 -10.805296 0
M  V30 41 H 8.820889 9.228886 -8.965762 0
M  V30 42 H 10.463949 9.491302 -9.524923 0
M  V30 43 H 11.288383 10.456394 -7.413858 0
M  V30 44 H 12.253055 9.993216 -5.188073 0
M  V30 45 H 10.398249 6.105475 -5.218561 0
M  V30 46 H 9.692852 5.311471 -7.544729 0
M  V30 47 H 8.227369 6.170519 -7.138766 0
M  V30 48 H 7.604274 4.749910 -13.921088 0
M  V30 49 H 8.094494 6.411311 -13.792004 0
M  V30 50 H 10.280527 5.871244 -14.895969 0
M  V30 51 H 8.939052 5.371346 -15.901645 0
M  V30 52 H 7.962111 6.908269 -9.155004 0
M  V30 END ATOM
M  V30 BEGIN BOND
M  V30 1 1 2 1
M  V30 2 2 3 2
M  V30 3 1 4 2
M  V30 4 1 5 4
M  V30 5 1 6 5
M  V30 6 1 7 6
M  V30 7 1 8 7
M  V30 8 1 9 8
M  V30 9 1 10 9
M  V30 10 1 11 10
M  V30 11 1 12 11
M  V30 12 1 13 12
M  V30 13 1 14 13
M  V30 14 1 15 14
M  V30 15 2 16 15
M  V30 16 1 17 16
M  V30 17 1 18 17
M  V30 18 3 19 18
M  V30 19 2 20 17
M  V30 20 2 21 14
M  V30 21 1 21 20
M  V30 22 1 22 11
M  V30 23 1 22 21
M  V30 24 1 23 8
M  V30 25 1 24 5
M  V30 26 1 24 23
M  V30 27 1 25 1
M  V30 28 1 26 1
M  V30 29 1 27 1
M  V30 30 1 28 4
M  V30 31 1 5 29 CFG=3
M  V30 32 1 30 6
M  V30 33 1 31 6
M  V30 34 1 32 7
M  V30 35 1 33 7
M  V30 36 1 8 34 CFG=1
M  V30 37 1 35 9
M  V30 38 1 36 9
M  V30 39 1 37 10
M  V30 40 1 38 10
M  V30 41 1 39 12
M  V30 42 1 40 12
M  V30 43 1 41 13
M  V30 44 1 42 13
M  V30 45 1 43 15
M  V30 46 1 44 16
M  V30 47 1 45 20
M  V30 48 1 46 22
M  V30 49 1 47 22
M  V30 50 1 48 23
M  V30 51 1 49 23
M  V30 52 1 50 24
M  V30 53 1 51 24
M  V30 54 1 11 52 CFG=1
M  V30 END BOND
M  V30 END CTAB
M  END
>  <b_m_subgroup_collapsed>  (727) 
0

>  <r_i_docking_score>  (727) 
-7.9423620566182596

>  <s_m_subgroup_title>  (727) 
glide-dock_SP_D22_pv

>  <s_m_subgroupid>  (727) 
glide-dock_SP_D22_pv

>  <Molecule ChEMBL ID>  (727) 
CHEMBL3085819

>  <Standard Type>  (727) 
Ki

>  <Standard Value>  (727) 
23.44

>  <label>  (727) 
1

$$$$
CHEMBL3104520
     RDKit          3D

  0  0  0  0  0  0  0  0  0  0999 V3000
M  V30 BEGIN CTAB
M  V30 COUNTS 60 63 0 0 1
M  V30 BEGIN ATOM
M  V30 1 C 11.875825 10.662191 -6.248131 0
M  V30 2 O 10.924881 10.318620 -5.256926 0
M  V30 3 C 11.287441 9.192492 -4.563354 0
M  V30 4 C 11.791681 9.367414 -3.259519 0
M  V30 5 C 12.204343 8.259756 -2.502489 0
M  V30 6 C 12.115711 6.968844 -3.051245 0
M  V30 7 C 11.617923 6.786381 -4.356252 0
M  V30 8 C 11.182298 7.889825 -5.126855 0
M  V30 9 N 10.629004 7.703103 -6.413380 0
M  V30 10 C 11.060395 6.609446 -7.262074 0
M  V30 11 C 10.954404 7.030720 -8.738946 0
M  V30 12 N 9.612471 7.570666 -9.108095 0 CHG=1
M  V30 13 C 9.561049 8.101234 -10.499887 0
M  V30 14 C 10.017507 7.125217 -11.614090 0
M  V30 15 C 9.114779 5.889829 -11.866185 0 CFG=1
M  V30 16 C 7.755817 6.288463 -12.460864 0
M  V30 17 C 6.802866 5.097949 -12.560481 0
M  V30 18 C 7.428593 3.925451 -13.286286 0
M  V30 19 C 6.591422 2.964673 -13.888056 0
M  V30 20 C 7.150819 1.874801 -14.581679 0
M  V30 21 C 8.552593 1.721982 -14.659581 0
M  V30 22 N 9.140133 0.599350 -15.408811 0 CHG=1
M  V30 23 O 10.233337 0.171904 -15.049810 0
M  V30 24 O 8.513373 0.169638 -16.372561 0 CHG=-1
M  V30 25 C 9.384347 2.677395 -14.042477 0
M  V30 26 C 8.836528 3.781171 -13.357438 0
M  V30 27 C 9.795047 4.795308 -12.738762 0 CFG=1
M  V30 28 O 10.581785 5.390537 -13.755445 0
M  V30 29 C 9.139231 8.600322 -8.142348 0
M  V30 30 C 9.269521 8.153625 -6.678280 0
M  V30 31 H 11.686401 11.659133 -6.640625 0
M  V30 32 H 12.885763 10.642675 -5.845478 0
M  V30 33 H 11.834318 9.965083 -7.081927 0
M  V30 34 H 11.871170 10.359930 -2.838191 0
M  V30 35 H 12.584296 8.398845 -1.502613 0
M  V30 36 H 12.420412 6.111793 -2.467976 0
M  V30 37 H 11.545818 5.778382 -4.742795 0
M  V30 38 H 10.419073 5.750302 -7.067715 0
M  V30 39 H 12.085654 6.311217 -7.031366 0
M  V30 40 H 11.188945 6.172307 -9.360930 0
M  V30 41 H 11.713572 7.786983 -8.948891 0
M  V30 42 H 10.212590 8.973161 -10.548203 0
M  V30 43 H 8.560672 8.477973 -10.712286 0
M  V30 44 H 11.043952 6.811497 -11.436002 0
M  V30 45 H 10.069028 7.698566 -12.538382 0
M  V30 46 H 8.903522 5.427819 -10.900605 0
M  V30 47 H 7.905499 6.722808 -13.447846 0
M  V30 48 H 7.286706 7.057105 -11.858578 0
M  V30 49 H 5.884334 5.401823 -13.061971 0
M  V30 50 H 6.511469 4.767652 -11.562986 0
M  V30 51 H 5.516951 3.064573 -13.831125 0
M  V30 52 H 6.500021 1.151475 -15.052866 0
M  V30 53 H 10.456857 2.574474 -14.109115 0
M  V30 54 H 10.485051 4.234840 -12.108717 0
M  V30 55 H 11.233138 5.945264 -13.354572 0
M  V30 56 H 9.736271 9.501708 -8.278987 0
M  V30 57 H 8.105083 8.879791 -8.348739 0
M  V30 58 H 8.576632 7.335794 -6.470607 0
M  V30 59 H 8.986933 8.972884 -6.028430 0
M  V30 60 H 8.945695 6.812015 -9.048682 0
M  V30 END ATOM
M  V30 BEGIN BOND
M  V30 1 1 2 1
M  V30 2 1 3 2
M  V30 3 2 4 3
M  V30 4 1 5 4
M  V30 5 2 6 5
M  V30 6 1 7 6
M  V30 7 1 8 3
M  V30 8 2 8 7
M  V30 9 1 9 8
M  V30 10 1 10 9
M  V30 11 1 11 10
M  V30 12 1 12 11
M  V30 13 1 13 12
M  V30 14 1 14 13
M  V30 15 1 15 14
M  V30 16 1 16 15
M  V30 17 1 17 16
M  V30 18 1 18 17
M  V30 19 1 19 18
M  V30 20 2 20 19
M  V30 21 1 21 20
M  V30 22 1 22 21
M  V30 23 2 23 22
M  V30 24 1 24 22
M  V30 25 2 25 21
M  V30 26 2 26 18
M  V30 27 1 26 25
M  V30 28 1 27 15
M  V30 29 1 27 26
M  V30 30 1 28 27
M  V30 31 1 29 12
M  V30 32 1 30 9
M  V30 33 1 30 29
M  V30 34 1 31 1
M  V30 35 1 32 1
M  V30 36 1 33 1
M  V30 37 1 34 4
M  V30 38 1 35 5
M  V30 39 1 36 6
M  V30 40 1 37 7
M  V30 41 1 38 10
M  V30 42 1 39 10
M  V30 43 1 40 11
M  V30 44 1 41 11
M  V30 45 1 42 13
M  V30 46 1 43 13
M  V30 47 1 44 14
M  V30 48 1 45 14
M  V30 49 1 15 46 CFG=1
M  V30 50 1 47 16
M  V30 51 1 48 16
M  V30 52 1 49 17
M  V30 53 1 50 17
M  V30 54 1 51 19
M  V30 55 1 52 20
M  V30 56 1 53 25
M  V30 57 1 27 54 CFG=1
M  V30 58 1 55 28
M  V30 59 1 56 29
M  V30 60 1 57 29
M  V30 61 1 58 30
M  V30 62 1 59 30
M  V30 63 1 60 12
M  V30 END BOND
M  V30 END CTAB
M  END
>  <b_m_subgroup_collapsed>  (728) 
0

>  <r_i_docking_score>  (728) 
-7.9413432929245804

>  <s_m_subgroup_title>  (728) 
glide-dock_SP_D22_pv

>  <s_m_subgroupid>  (728) 
glide-dock_SP_D22_pv

>  <Molecule ChEMBL ID>  (728) 
CHEMBL3104520

>  <Standard Type>  (728) 
Ki

>  <Standard Value>  (728) 
19.05

>  <label>  (728) 
1

$$$$
CHEMBL4516927
     RDKit          3D

  0  0  0  0  0  0  0  0  0  0999 V3000
M  V30 BEGIN CTAB
M  V30 COUNTS 72 76 0 0 1
M  V30 BEGIN ATOM
M  V30 1 C 11.633699 11.006212 -5.886392 0
M  V30 2 O 10.924186 9.801398 -5.798149 0
M  V30 3 C 11.363292 8.911694 -4.851451 0
M  V30 4 C 11.959140 9.305156 -3.626683 0
M  V30 5 C 12.410405 8.337971 -2.710283 0
M  V30 6 C 12.279462 6.972363 -3.016341 0
M  V30 7 C 11.685893 6.582125 -4.230725 0
M  V30 8 C 11.202317 7.541271 -5.139738 0
M  V30 9 N 10.548256 7.131511 -6.312505 0
M  V30 10 C 11.285928 6.396683 -7.330450 0
M  V30 11 C 11.114445 7.074155 -8.708316 0
M  V30 12 C 9.622682 7.273538 -9.082390 0
M  V30 13 C 8.777517 5.962884 -9.094906 0
M  V30 14 C 9.109474 5.008095 -10.241328 0
M  V30 15 N 9.039651 5.658157 -11.573595 0 CHG=1
M  V30 16 C 9.447618 4.697028 -12.639032 0
M  V30 17 C 8.804846 4.959260 -14.017087 0
M  V30 18 C 9.737363 4.581896 -15.188604 0
M  V30 19 S 10.219588 2.822242 -15.201748 0
M  V30 20 C 8.820508 2.123425 -16.023653 0
M  V30 21 N 8.357121 2.542235 -17.200594 0
M  V30 22 N 7.242550 1.772181 -17.447113 0
M  V30 23 C 7.114824 0.944052 -16.402552 0
M  V30 24 C 5.978380 0.025365 -16.282804 0
M  V30 25 C 5.434521 -0.602779 -17.423700 0
M  V30 26 C 4.302813 -1.427065 -17.276266 0
M  V30 27 C 3.756178 -1.598401 -15.990545 0
M  V30 28 N 4.264922 -1.012340 -14.886810 0
M  V30 29 C 5.350821 -0.227117 -15.040595 0
M  V30 30 N 8.119495 1.095620 -15.507643 0
M  V30 31 C 8.386702 0.360416 -14.288914 0
M  V30 32 C 9.827536 6.923783 -11.631037 0
M  V30 33 C 9.495525 7.907157 -10.486527 0
M  V30 34 C 9.102098 8.236379 -7.992663 0
M  V30 35 C 9.192408 7.602911 -6.592022 0
M  V30 36 H 11.429866 11.468347 -6.845990 0
M  V30 37 H 11.285995 11.673145 -5.095225 0
M  V30 38 H 12.712069 10.850975 -5.846929 0
M  V30 39 H 12.063535 10.344146 -3.359643 0
M  V30 40 H 12.856209 8.647705 -1.776017 0
M  V30 41 H 12.622792 6.221495 -2.319301 0
M  V30 42 H 11.564027 5.540419 -4.457045 0
M  V30 43 H 10.927274 5.372479 -7.368858 0
M  V30 44 H 12.338016 6.343797 -7.050363 0
M  V30 45 H 11.649716 6.560024 -9.495824 0
M  V30 46 H 11.605165 8.048199 -8.663462 0
M  V30 47 H 7.714077 6.185974 -9.163746 0
M  V30 48 H 8.873768 5.409966 -8.162478 0
M  V30 49 H 8.394185 4.184904 -10.214262 0
M  V30 50 H 10.088019 4.566363 -10.082531 0
M  V30 51 H 9.188478 3.677514 -12.346821 0
M  V30 52 H 10.536216 4.699904 -12.715607 0
M  V30 53 H 8.534601 6.009355 -14.115385 0
M  V30 54 H 7.864422 4.411945 -14.094499 0
M  V30 55 H 10.651809 5.172084 -15.120948 0
M  V30 56 H 9.286013 4.848780 -16.143950 0
M  V30 57 H 5.866898 -0.447579 -18.401600 0
M  V30 58 H 3.857088 -1.921714 -18.126940 0
M  V30 59 H 2.886334 -2.224459 -15.846537 0
M  V30 60 H 5.698186 0.250625 -14.137405 0
M  V30 61 H 9.460754 0.242470 -14.141126 0
M  V30 62 H 7.955657 0.893001 -13.447165 0
M  V30 63 H 7.939994 -0.627573 -14.349840 0
M  V30 64 H 10.892112 6.692631 -11.616169 0
M  V30 65 H 9.641502 7.418722 -12.583419 0
M  V30 66 H 8.486052 8.286088 -10.633323 0
M  V30 67 H 10.142819 8.781985 -10.560141 0
M  V30 68 H 9.676722 9.163046 -8.008375 0
M  V30 69 H 8.086058 8.544435 -8.192717 0
M  V30 70 H 8.497746 6.768883 -6.498422 0
M  V30 71 H 8.874543 8.327132 -5.847125 0
M  V30 72 H 8.067076 5.905161 -11.707181 0
M  V30 END ATOM
M  V30 BEGIN BOND
M  V30 1 1 2 1
M  V30 2 1 3 2
M  V30 3 2 4 3
M  V30 4 1 5 4
M  V30 5 2 6 5
M  V30 6 1 7 6
M  V30 7 1 8 3
M  V30 8 2 8 7
M  V30 9 1 9 8
M  V30 10 1 10 9
M  V30 11 1 11 10
M  V30 12 1 12 11
M  V30 13 1 13 12
M  V30 14 1 14 13
M  V30 15 1 15 14
M  V30 16 1 16 15
M  V30 17 1 17 16
M  V30 18 1 18 17
M  V30 19 1 19 18
M  V30 20 1 20 19
M  V30 21 2 21 20
M  V30 22 1 22 21
M  V30 23 2 23 22
M  V30 24 1 24 23
M  V30 25 2 25 24
M  V30 26 1 26 25
M  V30 27 2 27 26
M  V30 28 1 28 27
M  V30 29 1 29 24
M  V30 30 2 29 28
M  V30 31 1 30 20
M  V30 32 1 30 23
M  V30 33 1 31 30
M  V30 34 1 32 15
M  V30 35 1 33 12
M  V30 36 1 33 32
M  V30 37 1 34 12
M  V30 38 1 35 9
M  V30 39 1 35 34
M  V30 40 1 36 1
M  V30 41 1 37 1
M  V30 42 1 38 1
M  V30 43 1 39 4
M  V30 44 1 40 5
M  V30 45 1 41 6
M  V30 46 1 42 7
M  V30 47 1 43 10
M  V30 48 1 44 10
M  V30 49 1 45 11
M  V30 50 1 46 11
M  V30 51 1 47 13
M  V30 52 1 48 13
M  V30 53 1 49 14
M  V30 54 1 50 14
M  V30 55 1 51 16
M  V30 56 1 52 16
M  V30 57 1 53 17
M  V30 58 1 54 17
M  V30 59 1 55 18
M  V30 60 1 56 18
M  V30 61 1 57 25
M  V30 62 1 58 26
M  V30 63 1 59 27
M  V30 64 1 60 29
M  V30 65 1 61 31
M  V30 66 1 62 31
M  V30 67 1 63 31
M  V30 68 1 64 32
M  V30 69 1 65 32
M  V30 70 1 66 33
M  V30 71 1 67 33
M  V30 72 1 68 34
M  V30 73 1 69 34
M  V30 74 1 70 35
M  V30 75 1 71 35
M  V30 76 1 72 15
M  V30 END BOND
M  V30 END CTAB
M  END
>  <b_m_subgroup_collapsed>  (729) 
0

>  <r_i_docking_score>  (729) 
-7.9386264636630104

>  <s_m_subgroup_title>  (729) 
glide-dock_SP_D22_pv

>  <s_m_subgroupid>  (729) 
glide-dock_SP_D22_pv

>  <Molecule ChEMBL ID>  (729) 
CHEMBL4516927

>  <Standard Type>  (729) 
Ki

>  <Standard Value>  (729) 
48584.0

>  <label>  (729) 
0

$$$$
CHEMBL543344
     RDKit          3D

  0  0  0  0  0  0  0  0  0  0999 V3000
M  V30 BEGIN CTAB
M  V30 COUNTS 48 51 0 0 1
M  V30 BEGIN ATOM
M  V30 1 O 12.450076 7.775067 -8.211365 0
M  V30 2 C 11.254116 7.993965 -8.033506 0
M  V30 3 C 10.632734 8.730682 -6.871521 0 CFG=2
M  V30 4 C 11.213181 8.467319 -5.492924 0
M  V30 5 C 11.613937 9.567150 -4.707557 0
M  V30 6 C 12.064057 9.371668 -3.389945 0
M  V30 7 C 12.112890 8.076966 -2.850115 0
M  V30 8 F 12.504034 7.906832 -1.568759 0
M  V30 9 C 11.740312 6.970252 -3.635804 0
M  V30 10 C 11.288095 7.162201 -4.956451 0
M  V30 11 C 9.177240 8.288326 -7.028752 0
M  V30 12 O 8.989001 8.236861 -8.436137 0
M  V30 13 C 10.151827 7.655447 -9.018611 0 CFG=2
M  V30 14 C 9.954398 6.143607 -9.188061 0
M  V30 15 C 8.816197 5.847099 -10.180675 0
M  V30 16 N 9.001969 6.532249 -11.491145 0 CFG=1 CHG=1
M  V30 17 C 7.868931 6.286453 -12.419527 0
M  V30 18 C 7.970029 4.962865 -13.157028 0
M  V30 19 C 9.161215 4.594815 -13.822703 0
M  V30 20 C 9.221847 3.392517 -14.552092 0
M  V30 21 C 8.087289 2.564100 -14.640887 0
M  V30 22 C 6.894447 2.934214 -13.991587 0
M  V30 23 C 6.839732 4.123889 -13.240085 0
M  V30 24 C 9.285424 7.989963 -11.364501 0
M  V30 25 C 10.426028 8.287719 -10.382941 0
M  V30 26 H 10.710154 9.794941 -7.092345 0
M  V30 27 H 11.553223 10.569369 -5.105553 0
M  V30 28 H 12.351527 10.214678 -2.779604 0
M  V30 29 H 11.779888 5.974971 -3.217914 0
M  V30 30 H 10.978947 6.306791 -5.539899 0
M  V30 31 H 8.479757 8.973494 -6.556511 0
M  V30 32 H 8.996990 7.299753 -6.603657 0
M  V30 33 H 10.884922 5.706746 -9.539915 0
M  V30 34 H 9.738122 5.666522 -8.231316 0
M  V30 35 H 7.874863 6.169756 -9.734961 0
M  V30 36 H 8.731791 4.771790 -10.338697 0
M  V30 37 H 7.815588 7.064956 -13.180216 0
M  V30 38 H 6.923601 6.346084 -11.875645 0
M  V30 39 H 10.032585 5.230551 -13.790687 0
M  V30 40 H 10.134644 3.108956 -15.053746 0
M  V30 41 H 8.132153 1.643347 -15.205076 0
M  V30 42 H 6.023282 2.300988 -14.059916 0
M  V30 43 H 5.918945 4.396189 -12.745011 0
M  V30 44 H 9.544240 8.397142 -12.342120 0
M  V30 45 H 8.390402 8.522061 -11.047121 0
M  V30 46 H 11.369546 7.919559 -10.791736 0
M  V30 47 H 10.542742 9.363736 -10.247750 0
M  V30 48 H 9.816563 6.121474 -11.921271 0
M  V30 END ATOM
M  V30 BEGIN BOND
M  V30 1 2 2 1
M  V30 2 1 3 2
M  V30 3 1 4 3
M  V30 4 1 5 4
M  V30 5 2 6 5
M  V30 6 1 7 6
M  V30 7 1 8 7
M  V30 8 2 9 7
M  V30 9 2 10 4
M  V30 10 1 10 9
M  V30 11 1 11 3
M  V30 12 1 12 11
M  V30 13 1 13 2
M  V30 14 1 13 12 CFG=1
M  V30 15 1 14 13
M  V30 16 1 15 14
M  V30 17 1 16 15
M  V30 18 1 17 16
M  V30 19 1 18 17
M  V30 20 2 19 18
M  V30 21 1 20 19
M  V30 22 2 21 20
M  V30 23 1 22 21
M  V30 24 1 23 18
M  V30 25 2 23 22
M  V30 26 1 24 16
M  V30 27 1 25 13
M  V30 28 1 25 24
M  V30 29 1 3 26 CFG=3
M  V30 30 1 27 5
M  V30 31 1 28 6
M  V30 32 1 29 9
M  V30 33 1 30 10
M  V30 34 1 31 11
M  V30 35 1 32 11
M  V30 36 1 33 14
M  V30 37 1 34 14
M  V30 38 1 35 15
M  V30 39 1 36 15
M  V30 40 1 37 17
M  V30 41 1 38 17
M  V30 42 1 39 19
M  V30 43 1 40 20
M  V30 44 1 41 21
M  V30 45 1 42 22
M  V30 46 1 43 23
M  V30 47 1 44 24
M  V30 48 1 45 24
M  V30 49 1 46 25
M  V30 50 1 47 25
M  V30 51 1 16 48 CFG=3
M  V30 END BOND
M  V30 END CTAB
M  END
>  <b_m_subgroup_collapsed>  (730) 
0

>  <r_i_docking_score>  (730) 
-7.9382641234412201

>  <s_m_subgroup_title>  (730) 
glide-dock_SP_D22_pv

>  <s_m_subgroupid>  (730) 
glide-dock_SP_D22_pv

>  <Molecule ChEMBL ID>  (730) 
CHEMBL543344

>  <Standard Type>  (730) 
Ki

>  <Standard Value>  (730) 
47.0

>  <label>  (730) 
1

$$$$
CHEMBL5557169
     RDKit          3D

  0  0  0  0  0  0  0  0  0  0999 V3000
M  V30 BEGIN CTAB
M  V30 COUNTS 59 63 0 0 1
M  V30 BEGIN ATOM
M  V30 1 C 11.333537 2.192940 -15.447259 0
M  V30 2 C 9.997173 2.953856 -15.525926 0
M  V30 3 C 10.136847 4.093723 -16.562937 0
M  V30 4 C 8.920448 1.978834 -16.100107 0
M  V30 5 O 9.174810 1.251622 -17.059391 0
M  V30 6 N 7.700172 1.976776 -15.545435 0
M  V30 7 C 7.385352 2.762470 -14.421796 0
M  V30 8 C 6.103208 2.829892 -13.825879 0
M  V30 9 C 5.864382 3.597607 -12.657335 0
M  V30 10 C 6.915336 4.276934 -12.001567 0
M  V30 11 C 8.200320 4.206359 -12.561067 0
M  V30 12 C 8.361836 3.494102 -13.740661 0
M  V30 13 N 9.703177 3.494345 -14.175879 0
M  V30 14 C 10.480653 4.349772 -13.270696 0 CFG=1
M  V30 15 C 10.810634 5.724103 -13.881621 0
M  V30 16 C 11.058898 6.821894 -12.834015 0
M  V30 17 N 9.871110 6.961689 -11.953156 0 CFG=2 CHG=1
M  V30 18 C 9.788095 8.237598 -11.189144 0
M  V30 19 C 10.997332 8.561046 -10.274779 0
M  V30 20 C 10.931612 7.945056 -8.865735 0
M  V30 21 O 10.843659 8.973577 -7.884906 0
M  V30 22 C 11.072362 8.619324 -6.572556 0
M  V30 23 C 11.383147 9.655483 -5.666359 0
M  V30 24 C 11.689625 9.366710 -4.321805 0
M  V30 25 C 11.686129 8.033904 -3.870355 0
M  V30 26 F 12.004627 7.753070 -2.584471 0
M  V30 27 C 11.333505 6.995953 -4.752356 0
M  V30 28 C 11.022950 7.284582 -6.095383 0
M  V30 29 C 9.672855 5.748795 -11.140597 0
M  V30 30 C 9.572206 4.481714 -12.017978 0 CFG=1
M  V30 31 H 11.628340 1.768291 -16.407143 0
M  V30 32 H 11.284446 1.378550 -14.722993 0
M  V30 33 H 12.138618 2.858483 -15.138481 0
M  V30 34 H 10.202837 3.711572 -17.582661 0
M  V30 35 H 11.041518 4.679073 -16.407814 0
M  V30 36 H 9.286208 4.774905 -16.528183 0
M  V30 37 H 6.989691 1.371275 -15.928134 0
M  V30 38 H 5.287386 2.267400 -14.246764 0
M  V30 39 H 4.880452 3.616670 -12.222968 0
M  V30 40 H 6.747454 4.778927 -11.060115 0
M  V30 41 H 11.419384 3.853479 -13.046853 0
M  V30 42 H 11.692310 5.640921 -14.517541 0
M  V30 43 H 9.993710 6.015750 -14.532131 0
M  V30 44 H 11.943119 6.573221 -12.245602 0
M  V30 45 H 11.267676 7.765903 -13.340449 0
M  V30 46 H 9.685506 9.018290 -11.939123 0
M  V30 47 H 8.863734 8.271817 -10.613153 0
M  V30 48 H 11.940047 8.298121 -10.753800 0
M  V30 49 H 11.058799 9.642769 -10.152112 0
M  V30 50 H 10.079652 7.270440 -8.767727 0
M  V30 51 H 11.842542 7.368946 -8.701194 0
M  V30 52 H 11.409743 10.679409 -6.011031 0
M  V30 53 H 11.939308 10.164734 -3.637262 0
M  V30 54 H 11.306699 5.975224 -4.398428 0
M  V30 55 H 10.763144 6.461308 -6.742587 0
M  V30 56 H 10.485933 5.655033 -10.428533 0
M  V30 57 H 8.775752 5.854352 -10.529954 0
M  V30 58 H 9.778723 3.628504 -11.370325 0
M  V30 59 H 9.068454 6.989954 -12.568369 0
M  V30 END ATOM
M  V30 BEGIN BOND
M  V30 1 1 2 1
M  V30 2 1 3 2
M  V30 3 1 4 2
M  V30 4 2 5 4
M  V30 5 1 6 4
M  V30 6 1 7 6
M  V30 7 1 8 7
M  V30 8 2 9 8
M  V30 9 1 10 9
M  V30 10 2 11 10
M  V30 11 2 12 7
M  V30 12 1 12 11
M  V30 13 1 13 2
M  V30 14 1 13 12
M  V30 15 1 14 13
M  V30 16 1 15 14
M  V30 17 1 16 15
M  V30 18 1 17 16
M  V30 19 1 18 17
M  V30 20 1 19 18
M  V30 21 1 20 19
M  V30 22 1 21 20
M  V30 23 1 22 21
M  V30 24 1 23 22
M  V30 25 2 24 23
M  V30 26 1 25 24
M  V30 27 1 26 25
M  V30 28 2 27 25
M  V30 29 2 28 22
M  V30 30 1 28 27
M  V30 31 1 29 17
M  V30 32 1 30 11
M  V30 33 1 30 14
M  V30 34 1 30 29
M  V30 35 1 31 1
M  V30 36 1 32 1
M  V30 37 1 33 1
M  V30 38 1 34 3
M  V30 39 1 35 3
M  V30 40 1 36 3
M  V30 41 1 37 6
M  V30 42 1 38 8
M  V30 43 1 39 9
M  V30 44 1 40 10
M  V30 45 1 14 41 CFG=1
M  V30 46 1 42 15
M  V30 47 1 43 15
M  V30 48 1 44 16
M  V30 49 1 45 16
M  V30 50 1 46 18
M  V30 51 1 47 18
M  V30 52 1 48 19
M  V30 53 1 49 19
M  V30 54 1 50 20
M  V30 55 1 51 20
M  V30 56 1 52 23
M  V30 57 1 53 24
M  V30 58 1 54 27
M  V30 59 1 55 28
M  V30 60 1 56 29
M  V30 61 1 57 29
M  V30 62 1 30 58 CFG=1
M  V30 63 1 17 59 CFG=3
M  V30 END BOND
M  V30 END CTAB
M  END
>  <b_m_subgroup_collapsed>  (731) 
0

>  <r_i_docking_score>  (731) 
-7.9372690899898304

>  <s_m_subgroup_title>  (731) 
glide-dock_SP_D22_pv

>  <s_m_subgroupid>  (731) 
glide-dock_SP_D22_pv

>  <Molecule ChEMBL ID>  (731) 
CHEMBL5557169

>  <Standard Type>  (731) 
Ki

>  <Standard Value>  (731) 
53.0

>  <label>  (731) 
1

$$$$
CHEMBL4645292
     RDKit          3D

  0  0  0  0  0  0  0  0  0  0999 V3000
M  V30 BEGIN CTAB
M  V30 COUNTS 70 74 0 0 1
M  V30 BEGIN ATOM
M  V30 1 C 11.913707 10.659789 -6.177210 0
M  V30 2 O 11.108853 10.435056 -5.034200 0
M  V30 3 C 11.485319 9.341181 -4.298805 0
M  V30 4 C 12.066335 9.565135 -3.034557 0
M  V30 5 C 12.481651 8.490156 -2.231313 0
M  V30 6 C 12.286656 7.172854 -2.678289 0
M  V30 7 C 11.692106 6.939874 -3.931123 0
M  V30 8 C 11.286185 8.011873 -4.762221 0
M  V30 9 N 10.669346 7.751875 -6.005997 0
M  V30 10 C 9.411551 8.407333 -6.356886 0
M  V30 11 C 9.329356 8.627627 -7.871585 0
M  V30 12 N 9.570782 7.371253 -8.624903 0 CHG=1
M  V30 13 C 9.540922 7.614647 -10.085917 0
M  V30 14 C 9.558554 6.314140 -10.897745 0
M  V30 15 C 9.482783 6.580845 -12.396101 0
M  V30 16 C 9.706883 5.326942 -13.251834 0
M  V30 17 C 8.688153 4.202830 -12.981634 0
M  V30 18 C 8.190045 3.499763 -14.253450 0
M  V30 19 N 9.046696 2.419407 -14.754190 0
M  V30 20 C 10.175887 2.617719 -15.453128 0
M  V30 21 O 10.728706 3.695261 -15.663825 0
M  V30 22 C 10.690575 1.312042 -16.050707 0 CFG=2
M  V30 23 C 10.601365 1.251024 -17.596504 0 CFG=1
M  V30 24 C 11.182467 -0.093805 -18.070398 0
M  V30 25 C 10.102174 -1.100627 -17.621094 0
M  V30 26 C 9.052719 -0.200850 -16.951021 0 CFG=2
M  V30 27 C 9.111152 1.029292 -17.856384 0
M  V30 28 C 9.637966 0.290993 -15.602138 0 CFG=2
M  V30 29 C 8.669926 1.131390 -14.775550 0
M  V30 30 O 7.667250 0.653522 -14.246956 0
M  V30 31 C 10.815746 6.672916 -8.192561 0
M  V30 32 C 10.901380 6.486897 -6.677186 0
M  V30 33 H 11.503369 11.469399 -6.769558 0
M  V30 34 H 12.892073 10.972128 -5.847567 0
M  V30 35 H 12.034274 9.792081 -6.825080 0
M  V30 36 H 12.183344 10.573373 -2.666752 0
M  V30 37 H 12.927166 8.679661 -1.265847 0
M  V30 38 H 12.581296 6.336614 -2.059553 0
M  V30 39 H 11.533771 5.913991 -4.228477 0
M  V30 40 H 8.584229 7.769618 -6.049337 0
M  V30 41 H 9.273663 9.359052 -5.847788 0
M  V30 42 H 8.350611 9.032974 -8.129877 0
M  V30 43 H 10.068426 9.371696 -8.171156 0
M  V30 44 H 8.652289 8.188231 -10.346698 0
M  V30 45 H 10.392736 8.236543 -10.366942 0
M  V30 46 H 10.485118 5.773874 -10.720801 0
M  V30 47 H 8.739930 5.666409 -10.582060 0
M  V30 48 H 8.519388 7.030876 -12.647505 0
M  V30 49 H 10.243812 7.319594 -12.646818 0
M  V30 50 H 9.651991 5.643805 -14.292623 0
M  V30 51 H 10.719436 4.948739 -13.110357 0
M  V30 52 H 9.091750 3.484130 -12.267986 0
M  V30 53 H 7.809833 4.637515 -12.503938 0
M  V30 54 H 7.180252 3.129121 -14.070967 0
M  V30 55 H 8.086198 4.235519 -15.046225 0
M  V30 56 H 11.686264 1.091251 -15.673407 0
M  V30 57 H 11.031811 2.115067 -18.101223 0
M  V30 58 H 12.161952 -0.296247 -17.633730 0
M  V30 59 H 11.293752 -0.109219 -19.155289 0
M  V30 60 H 10.486043 -1.830292 -16.916147 0
M  V30 61 H 9.682581 -1.635489 -18.474842 0
M  V30 62 H 8.064156 -0.653198 -16.865505 0
M  V30 63 H 8.883553 0.807077 -18.899967 0
M  V30 64 H 8.468526 1.849097 -17.534441 0
M  V30 65 H 10.055998 -0.513952 -14.995909 0
M  V30 66 H 10.883264 5.683922 -8.641212 0
M  V30 67 H 11.682137 7.243066 -8.532734 0
M  V30 68 H 11.878655 6.073902 -6.425065 0
M  V30 69 H 10.148375 5.772711 -6.348853 0
M  V30 70 H 8.784867 6.771209 -8.409442 0
M  V30 END ATOM
M  V30 BEGIN BOND
M  V30 1 1 2 1
M  V30 2 1 3 2
M  V30 3 2 4 3
M  V30 4 1 5 4
M  V30 5 2 6 5
M  V30 6 1 7 6
M  V30 7 1 8 3
M  V30 8 2 8 7
M  V30 9 1 9 8
M  V30 10 1 10 9
M  V30 11 1 11 10
M  V30 12 1 12 11
M  V30 13 1 13 12
M  V30 14 1 14 13
M  V30 15 1 15 14
M  V30 16 1 16 15
M  V30 17 1 17 16
M  V30 18 1 18 17
M  V30 19 1 19 18
M  V30 20 1 20 19
M  V30 21 2 21 20
M  V30 22 1 22 20
M  V30 23 1 23 22
M  V30 24 1 24 23
M  V30 25 1 25 24
M  V30 26 1 26 25
M  V30 27 1 27 23
M  V30 28 1 27 26
M  V30 29 1 28 22
M  V30 30 1 28 26
M  V30 31 1 29 19
M  V30 32 1 29 28
M  V30 33 2 30 29
M  V30 34 1 31 12
M  V30 35 1 32 9
M  V30 36 1 32 31
M  V30 37 1 33 1
M  V30 38 1 34 1
M  V30 39 1 35 1
M  V30 40 1 36 4
M  V30 41 1 37 5
M  V30 42 1 38 6
M  V30 43 1 39 7
M  V30 44 1 40 10
M  V30 45 1 41 10
M  V30 46 1 42 11
M  V30 47 1 43 11
M  V30 48 1 44 13
M  V30 49 1 45 13
M  V30 50 1 46 14
M  V30 51 1 47 14
M  V30 52 1 48 15
M  V30 53 1 49 15
M  V30 54 1 50 16
M  V30 55 1 51 16
M  V30 56 1 52 17
M  V30 57 1 53 17
M  V30 58 1 54 18
M  V30 59 1 55 18
M  V30 60 1 22 56 CFG=3
M  V30 61 1 23 57 CFG=3
M  V30 62 1 58 24
M  V30 63 1 59 24
M  V30 64 1 60 25
M  V30 65 1 61 25
M  V30 66 1 26 62 CFG=1
M  V30 67 1 63 27
M  V30 68 1 64 27
M  V30 69 1 28 65 CFG=1
M  V30 70 1 66 31
M  V30 71 1 67 31
M  V30 72 1 68 32
M  V30 73 1 69 32
M  V30 74 1 70 12
M  V30 END BOND
M  V30 END CTAB
M  END
>  <b_m_subgroup_collapsed>  (732) 
0

>  <r_i_docking_score>  (732) 
-7.93605804906543

>  <s_m_subgroup_title>  (732) 
glide-dock_SP_D22_pv

>  <s_m_subgroupid>  (732) 
glide-dock_SP_D22_pv

>  <Molecule ChEMBL ID>  (732) 
CHEMBL4645292

>  <Standard Type>  (732) 
Ki

>  <Standard Value>  (732) 
41.0

>  <label>  (732) 
1

$$$$
CHEMBL372453
     RDKit          3D

  0  0  0  0  0  0  0  0  0  0999 V3000
M  V30 BEGIN CTAB
M  V30 COUNTS 62 65 0 0 1
M  V30 BEGIN ATOM
M  V30 1 C 6.204057 0.715432 -14.328279 0
M  V30 2 O 7.020572 1.707913 -14.938697 0
M  V30 3 C 7.320952 2.814366 -14.173662 0
M  V30 4 C 6.364563 3.413281 -13.319292 0
M  V30 5 C 6.704417 4.532194 -12.534768 0
M  V30 6 C 8.003534 5.074507 -12.584384 0
M  V30 7 N 8.283909 6.172269 -11.721762 0
M  V30 8 C 9.457610 6.780877 -11.461571 0
M  V30 9 O 10.405604 6.816973 -12.247143 0
M  V30 10 N 9.455364 7.476790 -10.304204 0
M  V30 11 C 10.458481 8.508977 -10.018203 0
M  V30 12 C 11.616379 7.873658 -9.225963 0
M  V30 13 N 11.112365 7.157776 -8.050792 0
M  V30 14 C 11.243568 7.713151 -6.767850 0
M  V30 15 C 11.361349 9.107190 -6.564171 0
M  V30 16 C 11.594492 9.618726 -5.274582 0
M  V30 17 C 11.736269 8.740166 -4.184659 0
M  V30 18 Cl 12.085933 9.349746 -2.617209 0
M  V30 19 C 11.596546 7.354822 -4.371614 0
M  V30 20 C 11.309528 6.851354 -5.651253 0
M  V30 21 C 10.002061 6.232621 -8.269229 0
M  V30 22 C 8.889609 6.939909 -9.055982 0
M  V30 23 C 8.953440 4.490777 -13.455583 0
M  V30 24 C 8.624519 3.368347 -14.251002 0
M  V30 25 N 9.585226 2.783481 -15.099718 0
M  V30 26 C 10.038282 1.444241 -14.745052 0
M  V30 27 C 10.607234 0.740491 -15.987655 0
M  V30 28 N 11.657190 1.562449 -16.646893 0 CHG=1
M  V30 29 C 12.224152 0.894957 -17.839558 0
M  V30 30 C 11.202131 2.946983 -16.944321 0
M  V30 31 C 10.605305 3.633449 -15.702470 0
M  V30 32 H 6.323000 -0.223904 -14.868677 0
M  V30 33 H 6.494608 0.534313 -13.292065 0
M  V30 34 H 5.146633 0.972690 -14.355684 0
M  V30 35 H 5.361163 3.020840 -13.254877 0
M  V30 36 H 5.963551 4.963566 -11.875616 0
M  V30 37 H 7.532049 6.444870 -11.093530 0
M  V30 38 H 9.993836 9.311564 -9.443862 0
M  V30 39 H 10.834219 8.970830 -10.931920 0
M  V30 40 H 12.364257 8.620552 -8.958238 0
M  V30 41 H 12.130575 7.154906 -9.863884 0
M  V30 42 H 11.283526 9.796155 -7.391129 0
M  V30 43 H 11.684224 10.683360 -5.130599 0
M  V30 44 H 11.696172 6.678197 -3.535393 0
M  V30 45 H 11.231699 5.783238 -5.781101 0
M  V30 46 H 10.365863 5.366158 -8.822334 0
M  V30 47 H 9.592267 5.854202 -7.332539 0
M  V30 48 H 8.486002 7.760087 -8.461967 0
M  V30 49 H 8.068215 6.242385 -9.215634 0
M  V30 50 H 9.956652 4.877661 -13.504848 0
M  V30 51 H 10.807417 1.527087 -13.975745 0
M  V30 52 H 9.236147 0.846816 -14.312194 0
M  V30 53 H 11.015744 -0.228546 -15.701555 0
M  V30 54 H 9.800863 0.545978 -16.696249 0
M  V30 55 H 11.485844 0.829542 -18.639475 0
M  V30 56 H 13.088286 1.444245 -18.214525 0
M  V30 57 H 12.549129 -0.117481 -17.601114 0
M  V30 58 H 12.035434 3.536797 -17.328548 0
M  V30 59 H 10.448357 2.913385 -17.732807 0
M  V30 60 H 10.177176 4.597296 -15.982403 0
M  V30 61 H 11.391164 3.828800 -14.971068 0
M  V30 62 H 12.406605 1.645454 -15.973319 0
M  V30 END ATOM
M  V30 BEGIN BOND
M  V30 1 1 2 1
M  V30 2 1 3 2
M  V30 3 1 4 3
M  V30 4 2 5 4
M  V30 5 1 6 5
M  V30 6 1 7 6
M  V30 7 1 8 7
M  V30 8 2 9 8
M  V30 9 1 10 8
M  V30 10 1 11 10
M  V30 11 1 12 11
M  V30 12 1 13 12
M  V30 13 1 14 13
M  V30 14 1 15 14
M  V30 15 2 16 15
M  V30 16 1 17 16
M  V30 17 1 18 17
M  V30 18 2 19 17
M  V30 19 2 20 14
M  V30 20 1 20 19
M  V30 21 1 21 13
M  V30 22 1 22 10
M  V30 23 1 22 21
M  V30 24 2 23 6
M  V30 25 2 24 3
M  V30 26 1 24 23
M  V30 27 1 25 24
M  V30 28 1 26 25
M  V30 29 1 27 26
M  V30 30 1 28 27
M  V30 31 1 29 28
M  V30 32 1 30 28
M  V30 33 1 31 25
M  V30 34 1 31 30
M  V30 35 1 32 1
M  V30 36 1 33 1
M  V30 37 1 34 1
M  V30 38 1 35 4
M  V30 39 1 36 5
M  V30 40 1 37 7
M  V30 41 1 38 11
M  V30 42 1 39 11
M  V30 43 1 40 12
M  V30 44 1 41 12
M  V30 45 1 42 15
M  V30 46 1 43 16
M  V30 47 1 44 19
M  V30 48 1 45 20
M  V30 49 1 46 21
M  V30 50 1 47 21
M  V30 51 1 48 22
M  V30 52 1 49 22
M  V30 53 1 50 23
M  V30 54 1 51 26
M  V30 55 1 52 26
M  V30 56 1 53 27
M  V30 57 1 54 27
M  V30 58 1 55 29
M  V30 59 1 56 29
M  V30 60 1 57 29
M  V30 61 1 58 30
M  V30 62 1 59 30
M  V30 63 1 60 31
M  V30 64 1 61 31
M  V30 65 1 62 28
M  V30 END BOND
M  V30 END CTAB
M  END
>  <b_m_subgroup_collapsed>  (733) 
0

>  <r_i_docking_score>  (733) 
-7.9359332629573602

>  <s_m_subgroup_title>  (733) 
glide-dock_SP_D22_pv

>  <s_m_subgroupid>  (733) 
glide-dock_SP_D22_pv

>  <Molecule ChEMBL ID>  (733) 
CHEMBL372453

>  <Standard Type>  (733) 
Ki

>  <Standard Value>  (733) 
10000.0

>  <label>  (733) 
0

$$$$
CHEMBL5817080
     RDKit          3D

  0  0  0  0  0  0  0  0  0  0999 V3000
M  V30 BEGIN CTAB
M  V30 COUNTS 54 55 0 0 1
M  V30 BEGIN ATOM
M  V30 1 C 7.479549 0.782860 -15.852550 0
M  V30 2 O 8.491101 1.777211 -15.863231 0
M  V30 3 C 8.396882 2.677585 -14.767702 0
M  V30 4 C 9.635307 3.610764 -14.717670 0
M  V30 5 C 10.906021 2.742811 -14.561959 0
M  V30 6 C 9.739889 4.432631 -16.017088 0
M  V30 7 C 9.569209 4.615822 -13.539074 0
M  V30 8 O 10.604641 5.147081 -13.136425 0
M  V30 9 N 8.375720 4.911774 -12.986155 0
M  V30 10 C 8.224802 5.886641 -11.905909 0
M  V30 11 C 8.551769 5.250350 -10.539607 0
M  V30 12 N 8.849055 6.250988 -9.480798 0 CFG=2 CHG=1
M  V30 13 C 10.160255 6.926043 -9.711756 0
M  V30 14 C 10.765863 7.567988 -8.475287 0
M  V30 15 C 10.274466 7.440268 -7.230089 0
M  V30 16 C 10.866765 8.183970 -6.112902 0
M  V30 17 C 10.885686 9.584564 -6.179553 0
M  V30 18 C 11.285502 10.295100 -5.044422 0
M  V30 19 C 11.686887 9.589211 -3.899427 0
M  V30 20 C 11.686006 8.179700 -3.936276 0
M  V30 21 C 12.008774 7.371984 -2.684986 0
M  V30 22 F 10.937419 6.749704 -2.197633 0
M  V30 23 F 12.886069 6.433619 -2.975814 0
M  V30 24 F 12.511648 8.162795 -1.735184 0
M  V30 25 N 11.277119 7.487130 -5.027813 0
M  V30 26 C 8.981226 6.682110 -7.016585 0
M  V30 27 C 8.723655 5.654296 -8.125501 0
M  V30 28 H 7.612927 0.115252 -16.703846 0
M  V30 29 H 7.529525 0.176672 -14.945928 0
M  V30 30 H 6.485703 1.225255 -15.923736 0
M  V30 31 H 8.330850 2.102376 -13.844185 0
M  V30 32 H 7.470308 3.244429 -14.859647 0
M  V30 33 H 11.008455 2.030359 -15.379924 0
M  V30 34 H 11.815854 3.343086 -14.555208 0
M  V30 35 H 10.886596 2.171558 -13.633953 0
M  V30 36 H 9.783838 3.788932 -16.895514 0
M  V30 37 H 8.887077 5.100612 -16.136868 0
M  V30 38 H 10.638930 5.052950 -16.025270 0
M  V30 39 H 7.543796 4.465069 -13.337967 0
M  V30 40 H 7.197450 6.251443 -11.901045 0
M  V30 41 H 8.849106 6.753688 -12.115920 0
M  V30 42 H 9.393361 4.559013 -10.613062 0
M  V30 43 H 7.688175 4.647636 -10.247093 0
M  V30 44 H 10.043167 7.696019 -10.473096 0
M  V30 45 H 10.886160 6.210274 -10.089786 0
M  V30 46 H 11.659851 8.154361 -8.638449 0
M  V30 47 H 10.536784 10.116026 -7.047198 0
M  V30 48 H 11.269639 11.373629 -5.047041 0
M  V30 49 H 11.978137 10.131515 -3.011364 0
M  V30 50 H 9.028742 6.171899 -6.055684 0
M  V30 51 H 8.162659 7.401151 -6.947509 0
M  V30 52 H 9.432871 4.830311 -8.039434 0
M  V30 53 H 7.725723 5.236685 -7.993976 0
M  V30 54 H 8.122453 6.961625 -9.537222 0
M  V30 END ATOM
M  V30 BEGIN BOND
M  V30 1 1 2 1
M  V30 2 1 3 2
M  V30 3 1 4 3
M  V30 4 1 5 4
M  V30 5 1 6 4
M  V30 6 1 7 4
M  V30 7 2 8 7
M  V30 8 1 9 7
M  V30 9 1 10 9
M  V30 10 1 11 10
M  V30 11 1 12 11
M  V30 12 1 13 12
M  V30 13 1 14 13
M  V30 14 2 15 14
M  V30 15 1 16 15
M  V30 16 1 17 16
M  V30 17 2 18 17
M  V30 18 1 19 18
M  V30 19 2 20 19
M  V30 20 1 21 20
M  V30 21 1 22 21
M  V30 22 1 23 21
M  V30 23 1 24 21
M  V30 24 2 25 16
M  V30 25 1 25 20
M  V30 26 1 26 15
M  V30 27 1 27 12
M  V30 28 1 27 26
M  V30 29 1 28 1
M  V30 30 1 29 1
M  V30 31 1 30 1
M  V30 32 1 31 3
M  V30 33 1 32 3
M  V30 34 1 33 5
M  V30 35 1 34 5
M  V30 36 1 35 5
M  V30 37 1 36 6
M  V30 38 1 37 6
M  V30 39 1 38 6
M  V30 40 1 39 9
M  V30 41 1 40 10
M  V30 42 1 41 10
M  V30 43 1 42 11
M  V30 44 1 43 11
M  V30 45 1 44 13
M  V30 46 1 45 13
M  V30 47 1 46 14
M  V30 48 1 47 17
M  V30 49 1 48 18
M  V30 50 1 49 19
M  V30 51 1 50 26
M  V30 52 1 51 26
M  V30 53 1 52 27
M  V30 54 1 53 27
M  V30 55 1 12 54 CFG=1
M  V30 END BOND
M  V30 END CTAB
M  END
>  <b_m_subgroup_collapsed>  (734) 
0

>  <r_i_docking_score>  (734) 
-7.9341064395097698

>  <s_m_subgroup_title>  (734) 
glide-dock_SP_D22_pv

>  <s_m_subgroupid>  (734) 
glide-dock_SP_D22_pv

>  <Molecule ChEMBL ID>  (734) 
CHEMBL5817080

>  <Standard Type>  (734) 
Ki

>  <Standard Value>  (734) 
21.0

>  <label>  (734) 
1

$$$$
CHEMBL104273
     RDKit          3D

  0  0  0  0  0  0  0  0  0  0999 V3000
M  V30 BEGIN CTAB
M  V30 COUNTS 58 61 0 0 1
M  V30 BEGIN ATOM
M  V30 1 C 12.622224 9.083737 -1.614323 0
M  V30 2 C 12.086602 8.621514 -2.952142 0
M  V30 3 C 11.535601 9.549683 -3.857322 0
M  V30 4 C 10.941608 9.115844 -5.055432 0
M  V30 5 C 10.886519 7.735508 -5.349416 0
M  V30 6 C 10.002485 7.209209 -6.462339 0
M  V30 7 N 10.276887 7.859200 -7.757834 0 CFG=2 CHG=1
M  V30 8 C 9.057744 7.964406 -8.592380 0
M  V30 9 C 9.361082 8.811012 -9.826210 0
M  V30 10 C 10.482256 8.213821 -10.679992 0 CFG=2
M  V30 11 C 9.970118 7.019417 -11.512814 0
M  V30 12 C 10.884261 6.538152 -12.646469 0
M  V30 13 O 11.979625 7.081821 -12.775262 0
M  V30 14 N 10.500892 5.508478 -13.449700 0
M  V30 15 C 9.285610 4.753182 -13.449776 0
M  V30 16 C 8.038383 4.970987 -12.807343 0
M  V30 17 C 6.972192 4.078153 -13.053106 0
M  V30 18 C 7.141119 2.973605 -13.914248 0
M  V30 19 C 8.384602 2.745407 -14.537400 0
M  V30 20 C 9.431812 3.652319 -14.292231 0
M  V30 21 C 10.799448 3.602582 -14.898828 0
M  V30 22 C 11.448462 4.923459 -14.425739 0 CFG=1
M  V30 23 C 11.718500 5.863473 -15.619032 0
M  V30 24 C 11.728369 7.987513 -9.796062 0
M  V30 25 C 11.421420 7.254187 -8.480527 0
M  V30 26 C 11.505457 6.819750 -4.477612 0
M  V30 27 C 12.086047 7.252820 -3.274746 0
M  V30 28 F 12.585511 6.340706 -2.408233 0
M  V30 29 H 12.485921 10.155912 -1.481947 0
M  V30 30 H 12.089196 8.576881 -0.812990 0
M  V30 31 H 13.685798 8.867605 -1.521837 0
M  V30 32 H 11.509175 10.592903 -3.595614 0
M  V30 33 H 10.447650 9.837669 -5.689193 0
M  V30 34 H 8.973756 7.400822 -6.158330 0
M  V30 35 H 10.086146 6.128717 -6.557930 0
M  V30 36 H 8.273520 8.458704 -8.017382 0
M  V30 37 H 8.683020 6.977116 -8.863107 0
M  V30 38 H 9.686724 9.776173 -9.473143 0
M  V30 39 H 8.469853 8.979516 -10.427723 0
M  V30 40 H 10.739762 8.972085 -11.406916 0
M  V30 41 H 9.067373 7.384410 -11.993901 0
M  V30 42 H 9.714176 6.176635 -10.870458 0
M  V30 43 H 7.822112 5.789889 -12.147852 0
M  V30 44 H 6.020349 4.244100 -12.568039 0
M  V30 45 H 6.318838 2.296843 -14.092110 0
M  V30 46 H 8.529106 1.902800 -15.198583 0
M  V30 47 H 11.338459 2.733408 -14.516641 0
M  V30 48 H 10.740103 3.520757 -15.984905 0
M  V30 49 H 12.396664 4.696668 -13.931453 0
M  V30 50 H 12.372912 5.385258 -16.347378 0
M  V30 51 H 10.793219 6.133235 -16.131954 0
M  V30 52 H 12.209929 6.787049 -15.315453 0
M  V30 53 H 12.505610 7.452947 -10.339625 0
M  V30 54 H 12.159931 8.959157 -9.556965 0
M  V30 55 H 12.307734 7.301489 -7.845463 0
M  V30 56 H 11.237413 6.197512 -8.679616 0
M  V30 57 H 11.453876 5.768141 -4.686971 0
M  V30 58 H 10.539774 8.808075 -7.544533 0
M  V30 END ATOM
M  V30 BEGIN BOND
M  V30 1 1 2 1
M  V30 2 1 3 2
M  V30 3 2 4 3
M  V30 4 1 5 4
M  V30 5 1 6 5
M  V30 6 1 7 6
M  V30 7 1 8 7
M  V30 8 1 9 8
M  V30 9 1 10 9
M  V30 10 1 11 10
M  V30 11 1 12 11
M  V30 12 2 13 12
M  V30 13 1 14 12
M  V30 14 1 15 14
M  V30 15 2 16 15
M  V30 16 1 17 16
M  V30 17 2 18 17
M  V30 18 1 19 18
M  V30 19 1 20 15
M  V30 20 2 20 19
M  V30 21 1 21 20
M  V30 22 1 22 14
M  V30 23 1 22 21
M  V30 24 1 23 22
M  V30 25 1 24 10
M  V30 26 1 25 7
M  V30 27 1 25 24
M  V30 28 2 26 5
M  V30 29 2 27 2
M  V30 30 1 27 26
M  V30 31 1 28 27
M  V30 32 1 29 1
M  V30 33 1 30 1
M  V30 34 1 31 1
M  V30 35 1 32 3
M  V30 36 1 33 4
M  V30 37 1 34 6
M  V30 38 1 35 6
M  V30 39 1 36 8
M  V30 40 1 37 8
M  V30 41 1 38 9
M  V30 42 1 39 9
M  V30 43 1 10 40 CFG=3
M  V30 44 1 41 11
M  V30 45 1 42 11
M  V30 46 1 43 16
M  V30 47 1 44 17
M  V30 48 1 45 18
M  V30 49 1 46 19
M  V30 50 1 47 21
M  V30 51 1 48 21
M  V30 52 1 22 49 CFG=1
M  V30 53 1 50 23
M  V30 54 1 51 23
M  V30 55 1 52 23
M  V30 56 1 53 24
M  V30 57 1 54 24
M  V30 58 1 55 25
M  V30 59 1 56 25
M  V30 60 1 57 26
M  V30 61 1 7 58 CFG=1
M  V30 END BOND
M  V30 END CTAB
M  END
>  <b_m_subgroup_collapsed>  (735) 
0

>  <r_i_docking_score>  (735) 
-7.93135272265941

>  <s_m_subgroup_title>  (735) 
glide-dock_SP_D22_pv

>  <s_m_subgroupid>  (735) 
glide-dock_SP_D22_pv

>  <Molecule ChEMBL ID>  (735) 
CHEMBL104273

>  <Standard Type>  (735) 
Ki

>  <Standard Value>  (735) 
23.0

>  <label>  (735) 
1

$$$$
CHEMBL543344
     RDKit          3D

  0  0  0  0  0  0  0  0  0  0999 V3000
M  V30 BEGIN CTAB
M  V30 COUNTS 48 51 0 0 1
M  V30 BEGIN ATOM
M  V30 1 O 10.086050 5.742675 -9.534630 0
M  V30 2 C 9.803250 6.752704 -10.174555 0
M  V30 3 C 9.206161 6.740832 -11.558024 0 CFG=2
M  V30 4 C 10.035538 5.964888 -12.581689 0
M  V30 5 C 9.544249 4.734626 -13.070142 0
M  V30 6 C 10.284207 3.996197 -14.013811 0
M  V30 7 C 11.520131 4.483238 -14.478493 0
M  V30 8 F 12.226912 3.775421 -15.390817 0
M  V30 9 C 12.021255 5.705492 -13.994182 0
M  V30 10 C 11.286090 6.443201 -13.046240 0
M  V30 11 C 9.023167 8.235640 -11.847322 0
M  V30 12 O 9.288184 8.972538 -10.650728 0
M  V30 13 C 9.845305 8.172956 -9.616523 0 CFG=2
M  V30 14 C 11.236575 8.686817 -9.217486 0
M  V30 15 C 11.774762 7.990170 -7.950204 0
M  V30 16 N 10.827267 7.973580 -6.794360 0 CFG=2 CHG=1
M  V30 17 C 11.280336 7.080665 -5.701807 0
M  V30 18 C 11.686229 7.793313 -4.434670 0
M  V30 19 C 11.680502 9.201142 -4.277208 0
M  V30 20 C 12.065311 9.766952 -3.045370 0
M  V30 21 C 12.486094 8.941206 -1.988740 0
M  V30 22 C 12.485916 7.547325 -2.158859 0
M  V30 23 C 12.086009 6.973024 -3.367771 0
M  V30 24 C 9.433851 7.627934 -7.137617 0
M  V30 25 C 8.946919 8.329521 -8.393458 0
M  V30 26 H 8.222889 6.277822 -11.470227 0
M  V30 27 H 8.597633 4.349554 -12.718296 0
M  V30 28 H 9.906329 3.054173 -14.382973 0
M  V30 29 H 12.974392 6.073108 -14.344827 0
M  V30 30 H 11.691418 7.370344 -12.672260 0
M  V30 31 H 8.008224 8.441833 -12.188393 0
M  V30 32 H 9.686631 8.590785 -12.632200 0
M  V30 33 H 11.939662 8.556305 -10.040898 0
M  V30 34 H 11.183654 9.762012 -9.042737 0
M  V30 35 H 12.699070 8.478586 -7.638542 0
M  V30 36 H 12.040134 6.972265 -8.209414 0
M  V30 37 H 12.086374 6.426937 -6.030722 0
M  V30 38 H 10.489031 6.390451 -5.400530 0
M  V30 39 H 11.375226 9.864791 -5.071105 0
M  V30 40 H 12.039338 10.833568 -2.891109 0
M  V30 41 H 12.808978 9.375060 -1.053506 0
M  V30 42 H 12.877230 6.902717 -1.388964 0
M  V30 43 H 12.105866 5.897995 -3.477109 0
M  V30 44 H 9.340677 6.549531 -7.275075 0
M  V30 45 H 8.784565 7.877324 -6.293622 0
M  V30 46 H 8.086039 7.767894 -8.646886 0
M  V30 47 H 8.667558 9.368328 -8.211149 0
M  V30 48 H 10.798741 8.912953 -6.429039 0
M  V30 END ATOM
M  V30 BEGIN BOND
M  V30 1 2 2 1
M  V30 2 1 3 2
M  V30 3 1 4 3
M  V30 4 1 5 4
M  V30 5 2 6 5
M  V30 6 1 7 6
M  V30 7 1 8 7
M  V30 8 2 9 7
M  V30 9 2 10 4
M  V30 10 1 10 9
M  V30 11 1 11 3
M  V30 12 1 12 11
M  V30 13 1 13 2
M  V30 14 1 13 12 CFG=3
M  V30 15 1 14 13
M  V30 16 1 15 14
M  V30 17 1 16 15
M  V30 18 1 17 16
M  V30 19 1 18 17
M  V30 20 2 19 18
M  V30 21 1 20 19
M  V30 22 2 21 20
M  V30 23 1 22 21
M  V30 24 1 23 18
M  V30 25 2 23 22
M  V30 26 1 24 16
M  V30 27 1 25 13
M  V30 28 1 25 24
M  V30 29 1 3 26 CFG=1
M  V30 30 1 27 5
M  V30 31 1 28 6
M  V30 32 1 29 9
M  V30 33 1 30 10
M  V30 34 1 31 11
M  V30 35 1 32 11
M  V30 36 1 33 14
M  V30 37 1 34 14
M  V30 38 1 35 15
M  V30 39 1 36 15
M  V30 40 1 37 17
M  V30 41 1 38 17
M  V30 42 1 39 19
M  V30 43 1 40 20
M  V30 44 1 41 21
M  V30 45 1 42 22
M  V30 46 1 43 23
M  V30 47 1 44 24
M  V30 48 1 45 24
M  V30 49 1 46 25
M  V30 50 1 47 25
M  V30 51 1 16 48 CFG=1
M  V30 END BOND
M  V30 END CTAB
M  END
>  <b_m_subgroup_collapsed>  (736) 
0

>  <r_i_docking_score>  (736) 
-7.9299663286925801

>  <s_m_subgroup_title>  (736) 
glide-dock_SP_D22_pv

>  <s_m_subgroupid>  (736) 
glide-dock_SP_D22_pv

>  <Molecule ChEMBL ID>  (736) 
CHEMBL543344

>  <Standard Type>  (736) 
Ki

>  <Standard Value>  (736) 
47.0

>  <label>  (736) 
1

$$$$
CHEMBL3780812
     RDKit          3D

  0  0  0  0  0  0  0  0  0  0999 V3000
M  V30 BEGIN CTAB
M  V30 COUNTS 50 51 0 0 1
M  V30 BEGIN ATOM
M  V30 1 C 9.868500 3.981567 -9.081851 0
M  V30 2 C 8.526895 4.695763 -8.854978 0
M  V30 3 N 8.529760 6.172582 -9.083280 0 CFG=1 CHG=1
M  V30 4 C 8.883807 6.981794 -7.877605 0
M  V30 5 C 10.333163 6.786730 -7.365304 0
M  V30 6 C 10.733650 7.689662 -6.215422 0
M  V30 7 C 10.603086 9.086102 -6.344317 0
M  V30 8 C 10.976490 9.927700 -5.284184 0
M  V30 9 C 11.499111 9.372115 -4.103206 0
M  V30 10 O 11.796566 10.172307 -3.046705 0
M  V30 11 C 11.686089 7.984230 -3.968591 0
M  V30 12 O 12.231746 7.552969 -2.776160 0
M  V30 13 C 12.207783 6.172267 -2.473928 0
M  V30 14 C 11.286104 7.139637 -5.033826 0
M  V30 15 C 9.162770 6.688517 -10.334829 0
M  V30 16 C 8.850371 5.931348 -11.627931 0
M  V30 17 C 7.570961 5.371933 -11.837346 0
M  V30 18 C 7.318596 4.571311 -12.959495 0
M  V30 19 C 8.342746 4.343656 -13.890613 0
M  V30 20 C 9.596080 4.971570 -13.752155 0
M  V30 21 O 10.516885 4.722032 -14.729061 0
M  V30 22 C 9.851852 5.813470 -12.627652 0
M  V30 23 O 10.992433 6.572321 -12.413637 0
M  V30 24 C 12.039416 6.624849 -13.370437 0
M  V30 25 H 9.838245 2.981324 -8.647126 0
M  V30 26 H 10.084316 3.866620 -10.144391 0
M  V30 27 H 10.716571 4.494892 -8.647151 0
M  V30 28 H 8.167776 4.500547 -7.846895 0
M  V30 29 H 7.795188 4.218311 -9.503616 0
M  V30 30 H 8.181991 6.743543 -7.075773 0
M  V30 31 H 8.702107 8.029195 -8.120011 0
M  V30 32 H 11.065309 6.931554 -8.158685 0
M  V30 33 H 10.445848 5.771866 -7.001974 0
M  V30 34 H 10.209333 9.520396 -7.250834 0
M  V30 35 H 10.850574 10.995354 -5.377735 0
M  V30 36 H 11.588460 11.089882 -3.153598 0
M  V30 37 H 12.542267 6.020048 -1.448139 0
M  V30 38 H 11.199718 5.772421 -2.558234 0
M  V30 39 H 12.885771 5.613743 -3.111367 0
M  V30 40 H 11.404906 6.069774 -4.955387 0
M  V30 41 H 8.885764 7.733272 -10.479510 0
M  V30 42 H 10.239860 6.679152 -10.178831 0
M  V30 43 H 6.780361 5.530723 -11.118511 0
M  V30 44 H 6.347814 4.116745 -13.095127 0
M  V30 45 H 8.146821 3.700727 -14.735080 0
M  V30 46 H 10.212931 4.123617 -15.393232 0
M  V30 47 H 12.799770 7.326041 -13.026812 0
M  V30 48 H 12.522765 5.654294 -13.483960 0
M  V30 49 H 11.685420 6.980452 -14.338091 0
M  V30 50 H 7.551973 6.420035 -9.220351 0
M  V30 END ATOM
M  V30 BEGIN BOND
M  V30 1 1 2 1
M  V30 2 1 3 2
M  V30 3 1 4 3
M  V30 4 1 5 4
M  V30 5 1 6 5
M  V30 6 1 7 6
M  V30 7 2 8 7
M  V30 8 1 9 8
M  V30 9 1 10 9
M  V30 10 2 11 9
M  V30 11 1 12 11
M  V30 12 1 13 12
M  V30 13 2 14 6
M  V30 14 1 14 11
M  V30 15 1 15 3
M  V30 16 1 16 15
M  V30 17 2 17 16
M  V30 18 1 18 17
M  V30 19 2 19 18
M  V30 20 1 20 19
M  V30 21 1 21 20
M  V30 22 1 22 16
M  V30 23 2 22 20
M  V30 24 1 23 22
M  V30 25 1 24 23
M  V30 26 1 25 1
M  V30 27 1 26 1
M  V30 28 1 27 1
M  V30 29 1 28 2
M  V30 30 1 29 2
M  V30 31 1 30 4
M  V30 32 1 31 4
M  V30 33 1 32 5
M  V30 34 1 33 5
M  V30 35 1 34 7
M  V30 36 1 35 8
M  V30 37 1 36 10
M  V30 38 1 37 13
M  V30 39 1 38 13
M  V30 40 1 39 13
M  V30 41 1 40 14
M  V30 42 1 41 15
M  V30 43 1 42 15
M  V30 44 1 43 17
M  V30 45 1 44 18
M  V30 46 1 45 19
M  V30 47 1 46 21
M  V30 48 1 47 24
M  V30 49 1 48 24
M  V30 50 1 49 24
M  V30 51 1 3 50 CFG=3
M  V30 END BOND
M  V30 END CTAB
M  END
>  <b_m_subgroup_collapsed>  (737) 
0

>  <r_i_docking_score>  (737) 
-7.9288295423715196

>  <s_m_subgroup_title>  (737) 
glide-dock_SP_D22_pv

>  <s_m_subgroupid>  (737) 
glide-dock_SP_D22_pv

>  <Molecule ChEMBL ID>  (737) 
CHEMBL3780812

>  <Standard Type>  (737) 
Ki

>  <Standard Value>  (737) 
10000.0

>  <label>  (737) 
0

$$$$
CHEMBL4788140
     RDKit          3D

  0  0  0  0  0  0  0  0  0  0999 V3000
M  V30 BEGIN CTAB
M  V30 COUNTS 69 74 0 0 1
M  V30 BEGIN ATOM
M  V30 1 C 11.852880 7.896912 -10.375877 0
M  V30 2 C 10.614409 8.400647 -9.623322 0 CFG=1
M  V30 3 C 9.272190 8.079961 -10.328201 0
M  V30 4 N 8.886628 6.647002 -10.526489 0 CFG=1 CHG=1
M  V30 5 C 9.177128 6.105265 -11.883412 0
M  V30 6 C 8.230548 4.943144 -12.268675 0
M  V30 7 C 8.586621 4.224715 -13.585276 0 CFG=1
M  V30 8 C 9.838242 3.324351 -13.455775 0
M  V30 9 C 10.150707 2.530807 -14.741977 0
M  V30 10 C 8.937396 1.693891 -15.225173 0 CFG=2
M  V30 11 N 9.242361 0.974552 -16.488880 0
M  V30 12 C 8.868859 1.272928 -17.757507 0
M  V30 13 O 8.118358 2.172118 -18.140676 0
M  V30 14 C 9.520084 0.328780 -18.764606 0 CFG=2
M  V30 15 C 10.360872 -0.608948 -17.874096 0 CFG=2
M  V30 16 C 10.048008 -0.096231 -16.466852 0
M  V30 17 O 10.485900 -0.626182 -15.450497 0
M  V30 18 C 11.805888 -0.376720 -18.413107 0 CFG=2
M  V30 19 C 12.257081 1.049590 -18.145298 0
M  V30 20 C 11.530320 1.854927 -18.921715 0
M  V30 21 C 10.575721 0.978081 -19.711178 0 CFG=1
M  V30 22 C 11.480700 -0.240506 -19.909126 0
M  V30 23 C 7.739174 2.628604 -15.348926 0
M  V30 24 C 7.391749 3.377484 -14.063384 0
M  V30 25 C 9.311462 5.709919 -9.457938 0
M  V30 26 C 8.971981 6.218417 -8.072869 0
M  V30 27 C 9.978614 7.123940 -7.424511 0
M  V30 28 C 10.126333 6.968429 -6.034044 0
M  V30 29 C 10.994526 7.779377 -5.304681 0
M  V30 30 C 11.685657 8.794777 -5.962577 0
M  V30 31 Cl 12.747153 9.772289 -5.046508 0
M  V30 32 C 11.540093 8.971931 -7.349909 0
M  V30 33 C 10.697212 8.135016 -8.112969 0
M  V30 34 H 12.758156 8.378891 -10.005301 0
M  V30 35 H 11.983884 6.829172 -10.246851 0
M  V30 36 H 11.785653 8.106495 -11.443149 0
M  V30 37 H 10.675426 9.487582 -9.698458 0
M  V30 38 H 9.237001 8.599518 -11.286035 0
M  V30 39 H 8.486909 8.553830 -9.740130 0
M  V30 40 H 10.221474 5.797112 -11.929543 0
M  V30 41 H 9.056967 6.887679 -12.633162 0
M  V30 42 H 7.220803 5.350946 -12.341474 0
M  V30 43 H 8.178867 4.178664 -11.495380 0
M  V30 44 H 8.783166 4.982143 -14.346168 0
M  V30 45 H 10.709852 3.917888 -13.181639 0
M  V30 46 H 9.686070 2.613902 -12.645870 0
M  V30 47 H 11.010964 1.886507 -14.556171 0
M  V30 48 H 10.455981 3.223095 -15.528040 0
M  V30 49 H 8.693264 0.955314 -14.458268 0
M  V30 50 H 8.759877 -0.224079 -19.318592 0
M  V30 51 H 10.050765 -1.649747 -17.981289 0
M  V30 52 H 12.541451 -1.145145 -18.177595 0
M  V30 53 H 13.004722 1.335471 -17.420462 0
M  V30 54 H 11.557104 2.934421 -18.966082 0
M  V30 55 H 10.192986 1.419883 -20.631363 0
M  V30 56 H 12.360162 -0.027641 -20.520941 0
M  V30 57 H 10.952851 -1.090162 -20.341345 0
M  V30 58 H 8.086044 3.372139 -16.055510 0
M  V30 59 H 6.861758 2.120577 -15.751439 0
M  V30 60 H 6.534073 4.025599 -14.246991 0
M  V30 61 H 7.068882 2.668477 -13.304369 0
M  V30 62 H 8.764470 4.776860 -9.576324 0
M  V30 63 H 10.366243 5.446051 -9.525402 0
M  V30 64 H 8.085991 6.817540 -8.106847 0
M  V30 65 H 8.752445 5.373704 -7.427622 0
M  V30 66 H 9.569785 6.207201 -5.506927 0
M  V30 67 H 11.120637 7.629012 -4.243701 0
M  V30 68 H 12.085628 9.758908 -7.833171 0
M  V30 69 H 7.870619 6.716391 -10.467084 0
M  V30 END ATOM
M  V30 BEGIN BOND
M  V30 1 1 2 1
M  V30 2 1 3 2
M  V30 3 1 4 3
M  V30 4 1 5 4
M  V30 5 1 6 5
M  V30 6 1 7 6
M  V30 7 1 8 7
M  V30 8 1 9 8
M  V30 9 1 10 9
M  V30 10 1 11 10
M  V30 11 1 12 11
M  V30 12 2 13 12
M  V30 13 1 14 12
M  V30 14 1 15 14
M  V30 15 1 16 11
M  V30 16 1 16 15
M  V30 17 2 17 16
M  V30 18 1 18 15
M  V30 19 1 19 18
M  V30 20 2 20 19
M  V30 21 1 21 14
M  V30 22 1 21 20
M  V30 23 1 22 18
M  V30 24 1 22 21
M  V30 25 1 23 10
M  V30 26 1 24 7
M  V30 27 1 24 23
M  V30 28 1 25 4
M  V30 29 1 26 25
M  V30 30 1 27 26
M  V30 31 1 28 27
M  V30 32 2 29 28
M  V30 33 1 30 29
M  V30 34 1 31 30
M  V30 35 2 32 30
M  V30 36 1 33 2
M  V30 37 2 33 27
M  V30 38 1 33 32
M  V30 39 1 34 1
M  V30 40 1 35 1
M  V30 41 1 36 1
M  V30 42 1 2 37 CFG=1
M  V30 43 1 38 3
M  V30 44 1 39 3
M  V30 45 1 40 5
M  V30 46 1 41 5
M  V30 47 1 42 6
M  V30 48 1 43 6
M  V30 49 1 7 44 CFG=3
M  V30 50 1 45 8
M  V30 51 1 46 8
M  V30 52 1 47 9
M  V30 53 1 48 9
M  V30 54 1 10 49 CFG=1
M  V30 55 1 14 50 CFG=3
M  V30 56 1 15 51 CFG=1
M  V30 57 1 18 52 CFG=3
M  V30 58 1 53 19
M  V30 59 1 54 20
M  V30 60 1 21 55 CFG=3
M  V30 61 1 56 22
M  V30 62 1 57 22
M  V30 63 1 58 23
M  V30 64 1 59 23
M  V30 65 1 60 24
M  V30 66 1 61 24
M  V30 67 1 62 25
M  V30 68 1 63 25
M  V30 69 1 64 26
M  V30 70 1 65 26
M  V30 71 1 66 28
M  V30 72 1 67 29
M  V30 73 1 68 32
M  V30 74 1 4 69 CFG=3
M  V30 END BOND
M  V30 END CTAB
M  END
>  <b_m_subgroup_collapsed>  (738) 
0

>  <r_i_docking_score>  (738) 
-7.9270130752257604

>  <s_m_subgroup_title>  (738) 
glide-dock_SP_D22_pv

>  <s_m_subgroupid>  (738) 
glide-dock_SP_D22_pv

>  <Molecule ChEMBL ID>  (738) 
CHEMBL4788140

>  <Standard Type>  (738) 
Ki

>  <Standard Value>  (738) 
43.7

>  <label>  (738) 
1

$$$$
CHEMBL1202208
     RDKit          3D

  0  0  0  0  0  0  0  0  0  0999 V3000
M  V30 BEGIN CTAB
M  V30 COUNTS 53 56 0 0 1
M  V30 BEGIN ATOM
M  V30 1 C 7.949029 0.610578 -15.887220 0
M  V30 2 C 7.876081 1.844605 -15.011713 0
M  V30 3 C 8.970303 2.727999 -14.941049 0
M  V30 4 C 8.916932 3.853682 -14.097503 0
M  V30 5 C 7.766666 4.111077 -13.321548 0
M  V30 6 N 7.796736 5.162311 -12.393922 0
M  V30 7 C 7.908351 6.546112 -12.798964 0
M  V30 8 C 9.012751 7.258573 -11.985375 0
M  V30 9 N 8.886184 7.009078 -10.517610 0 CHG=1
M  V30 10 C 9.908288 7.752783 -9.733843 0
M  V30 11 C 9.625937 7.815595 -8.237652 0 CFG=2
M  V30 12 C 8.886334 8.972151 -7.605424 0
M  V30 13 C 10.372379 8.827407 -7.385686 0 CFG=1
M  V30 14 C 10.933697 8.531198 -6.020592 0
M  V30 15 C 11.137442 7.210783 -5.558827 0
M  V30 16 C 11.686009 6.972248 -4.282897 0
M  V30 17 C 12.050480 8.049925 -3.455818 0
M  V30 18 C 11.838729 9.368805 -3.898099 0
M  V30 19 C 11.285671 9.605713 -5.173128 0
M  V30 20 C 8.838563 5.552838 -10.213480 0
M  V30 21 C 7.686206 4.899236 -10.977250 0
M  V30 22 C 6.637517 3.259198 -13.443151 0
M  V30 23 C 5.359533 3.518468 -12.661837 0
M  V30 24 C 6.711988 2.116775 -14.265321 0
M  V30 25 H 7.303819 -0.182592 -15.503916 0
M  V30 26 H 7.634396 0.847215 -16.904575 0
M  V30 27 H 8.966730 0.220547 -15.923071 0
M  V30 28 H 9.863728 2.531009 -15.514823 0
M  V30 29 H 9.779965 4.498608 -14.019180 0
M  V30 30 H 6.946305 7.030514 -12.627025 0
M  V30 31 H 8.087596 6.573696 -13.869416 0
M  V30 32 H 8.970172 8.329462 -12.186385 0
M  V30 33 H 9.991718 6.910578 -12.319537 0
M  V30 34 H 9.978596 8.775303 -10.110553 0
M  V30 35 H 10.886132 7.295574 -9.888648 0
M  V30 36 H 9.445421 6.851433 -7.773481 0
M  V30 37 H 8.219567 8.712890 -6.786097 0
M  V30 38 H 8.538342 9.770274 -8.257532 0
M  V30 39 H 11.023248 9.526605 -7.907976 0
M  V30 40 H 10.885036 6.363891 -6.177328 0
M  V30 41 H 11.832996 5.957896 -3.942029 0
M  V30 42 H 12.471151 7.868391 -2.477871 0
M  V30 43 H 12.103092 10.194050 -3.254794 0
M  V30 44 H 11.132198 10.622132 -5.503109 0
M  V30 45 H 9.785493 5.081873 -10.477573 0
M  V30 46 H 8.678072 5.378843 -9.151173 0
M  V30 47 H 6.775790 5.388694 -10.659930 0
M  V30 48 H 7.603642 3.834805 -10.759969 0
M  V30 49 H 4.522713 2.937044 -13.047564 0
M  V30 50 H 5.490189 3.251059 -11.612930 0
M  V30 51 H 5.088931 4.572372 -12.715441 0
M  V30 52 H 5.868829 1.443014 -14.327310 0
M  V30 53 H 7.957342 7.372305 -10.259058 0
M  V30 END ATOM
M  V30 BEGIN BOND
M  V30 1 1 2 1
M  V30 2 1 3 2
M  V30 3 2 4 3
M  V30 4 1 5 4
M  V30 5 1 6 5
M  V30 6 1 7 6
M  V30 7 1 8 7
M  V30 8 1 9 8
M  V30 9 1 10 9
M  V30 10 1 11 10
M  V30 11 1 12 11
M  V30 12 1 13 11
M  V30 13 1 13 12
M  V30 14 1 14 13
M  V30 15 2 15 14
M  V30 16 1 16 15
M  V30 17 2 17 16
M  V30 18 1 18 17
M  V30 19 1 19 14
M  V30 20 2 19 18
M  V30 21 1 20 9
M  V30 22 1 21 6
M  V30 23 1 21 20
M  V30 24 2 22 5
M  V30 25 1 23 22
M  V30 26 2 24 2
M  V30 27 1 24 22
M  V30 28 1 25 1
M  V30 29 1 26 1
M  V30 30 1 27 1
M  V30 31 1 28 3
M  V30 32 1 29 4
M  V30 33 1 30 7
M  V30 34 1 31 7
M  V30 35 1 32 8
M  V30 36 1 33 8
M  V30 37 1 34 10
M  V30 38 1 35 10
M  V30 39 1 11 36 CFG=1
M  V30 40 1 37 12
M  V30 41 1 38 12
M  V30 42 1 13 39 CFG=3
M  V30 43 1 40 15
M  V30 44 1 41 16
M  V30 45 1 42 17
M  V30 46 1 43 18
M  V30 47 1 44 19
M  V30 48 1 45 20
M  V30 49 1 46 20
M  V30 50 1 47 21
M  V30 51 1 48 21
M  V30 52 1 49 23
M  V30 53 1 50 23
M  V30 54 1 51 23
M  V30 55 1 52 24
M  V30 56 1 53 9
M  V30 END BOND
M  V30 END CTAB
M  END
>  <b_m_subgroup_collapsed>  (739) 
0

>  <r_i_docking_score>  (739) 
-7.9267458516511704

>  <s_m_subgroup_title>  (739) 
glide-dock_SP_D22_pv

>  <s_m_subgroupid>  (739) 
glide-dock_SP_D22_pv

>  <Molecule ChEMBL ID>  (739) 
CHEMBL1202208

>  <Standard Type>  (739) 
Ki

>  <Standard Value>  (739) 
61.0

>  <label>  (739) 
1

$$$$
CHEMBL1087872
     RDKit          3D

  0  0  0  0  0  0  0  0  0  0999 V3000
M  V30 BEGIN CTAB
M  V30 COUNTS 62 65 0 0 1
M  V30 BEGIN ATOM
M  V30 1 C 5.285604 -2.714166 -15.925673 0
M  V30 2 S 5.160686 -0.965408 -15.412669 0
M  V30 3 O 4.272206 -0.841310 -14.246758 0
M  V30 4 O 4.974834 -0.136753 -16.611275 0
M  V30 5 N 6.755949 -0.627470 -14.840543 0
M  V30 6 C 7.350046 0.630708 -14.707378 0
M  V30 7 C 6.606220 1.737890 -14.247233 0
M  V30 8 C 7.204048 3.009352 -14.115868 0
M  V30 9 O 6.418384 4.031401 -13.623172 0
M  V30 10 C 7.049721 5.173859 -13.045867 0
M  V30 11 C 7.823412 4.770603 -11.781775 0
M  V30 12 N 8.181508 5.899177 -10.891003 0 CFG=2 CHG=1
M  V30 13 C 9.072461 6.940252 -11.485779 0
M  V30 14 C 9.395927 8.084437 -10.482105 0
M  V30 15 C 9.983774 7.529562 -9.170556 0 CFG=1
M  V30 16 O 10.231900 8.558139 -8.188593 0
M  V30 17 C 10.794458 8.152808 -6.985745 0
M  V30 18 C 11.286008 6.838465 -6.822922 0
M  V30 19 C 11.686011 6.365676 -5.586981 0
M  V30 20 C 11.819125 7.232489 -4.514869 0
M  V30 21 C 11.442256 8.582599 -4.644342 0
M  V30 22 C 10.886139 9.037072 -5.873774 0
M  V30 23 N 11.685630 9.435523 -3.531381 0
M  V30 24 C 12.086689 8.984465 -2.320698 0
M  V30 25 O 12.396528 9.712714 -1.398622 0
M  V30 26 C 12.129839 7.491430 -2.055533 0
M  V30 27 C 12.563564 6.757020 -3.292480 0
M  V30 28 C 8.974200 6.493365 -8.634171 0
M  V30 29 C 8.742452 5.370675 -9.630865 0
M  V30 30 C 8.562686 3.168759 -14.484550 0
M  V30 31 C 9.310250 2.067997 -14.937032 0
M  V30 32 C 8.709182 0.802167 -15.043374 0
M  V30 33 F 9.446929 -0.239919 -15.488346 0
M  V30 34 H 4.330705 -3.027628 -16.340963 0
M  V30 35 H 6.053953 -2.816233 -16.690527 0
M  V30 36 H 5.535200 -3.335030 -15.069309 0
M  V30 37 H 7.421102 -1.356790 -15.089975 0
M  V30 38 H 5.569011 1.612621 -13.972112 0
M  V30 39 H 7.692134 5.686688 -13.762032 0
M  V30 40 H 6.257829 5.875392 -12.780993 0
M  V30 41 H 7.188561 4.088475 -11.214063 0
M  V30 42 H 8.726979 4.213915 -12.028826 0
M  V30 43 H 9.998122 6.473041 -11.824785 0
M  V30 44 H 8.596285 7.374307 -12.364511 0
M  V30 45 H 10.098613 8.783627 -10.933512 0
M  V30 46 H 8.490431 8.657433 -10.270835 0
M  V30 47 H 10.927923 7.055983 -9.443427 0
M  V30 48 H 11.340815 6.116848 -7.620365 0
M  V30 49 H 12.085622 5.372511 -5.516438 0
M  V30 50 H 10.559038 10.060887 -5.976972 0
M  V30 51 H 11.591118 10.431746 -3.660515 0
M  V30 52 H 12.858766 7.291163 -1.266562 0
M  V30 53 H 11.140478 7.161310 -1.737559 0
M  V30 54 H 12.456558 5.684768 -3.154422 0
M  V30 55 H 13.621586 6.972494 -3.438922 0
M  V30 56 H 9.203661 6.018519 -7.686479 0
M  V30 57 H 8.086034 7.046520 -8.415481 0
M  V30 58 H 8.078496 4.631700 -9.185879 0
M  V30 59 H 9.682011 4.852412 -9.831929 0
M  V30 60 H 9.059388 4.124095 -14.423208 0
M  V30 61 H 10.348812 2.191839 -15.206197 0
M  V30 62 H 7.325320 6.400263 -10.640550 0
M  V30 END ATOM
M  V30 BEGIN BOND
M  V30 1 1 2 1
M  V30 2 2 3 2
M  V30 3 2 4 2
M  V30 4 1 5 2
M  V30 5 1 6 5
M  V30 6 1 7 6
M  V30 7 2 8 7
M  V30 8 1 9 8
M  V30 9 1 10 9
M  V30 10 1 11 10
M  V30 11 1 12 11
M  V30 12 1 13 12
M  V30 13 1 14 13
M  V30 14 1 15 14
M  V30 15 1 16 15
M  V30 16 1 17 16
M  V30 17 1 18 17
M  V30 18 2 19 18
M  V30 19 1 20 19
M  V30 20 2 21 20
M  V30 21 2 22 17
M  V30 22 1 22 21
M  V30 23 1 23 21
M  V30 24 1 24 23
M  V30 25 2 25 24
M  V30 26 1 26 24
M  V30 27 1 27 20
M  V30 28 1 27 26
M  V30 29 1 28 15
M  V30 30 1 29 12
M  V30 31 1 29 28
M  V30 32 1 30 8
M  V30 33 2 31 30
M  V30 34 2 32 6
M  V30 35 1 32 31
M  V30 36 1 33 32
M  V30 37 1 34 1
M  V30 38 1 35 1
M  V30 39 1 36 1
M  V30 40 1 37 5
M  V30 41 1 38 7
M  V30 42 1 39 10
M  V30 43 1 40 10
M  V30 44 1 41 11
M  V30 45 1 42 11
M  V30 46 1 43 13
M  V30 47 1 44 13
M  V30 48 1 45 14
M  V30 49 1 46 14
M  V30 50 1 15 47 CFG=3
M  V30 51 1 48 18
M  V30 52 1 49 19
M  V30 53 1 50 22
M  V30 54 1 51 23
M  V30 55 1 52 26
M  V30 56 1 53 26
M  V30 57 1 54 27
M  V30 58 1 55 27
M  V30 59 1 56 28
M  V30 60 1 57 28
M  V30 61 1 58 29
M  V30 62 1 59 29
M  V30 63 1 60 30
M  V30 64 1 61 31
M  V30 65 1 12 62 CFG=1
M  V30 END BOND
M  V30 END CTAB
M  END
>  <b_m_subgroup_collapsed>  (740) 
0

>  <r_i_docking_score>  (740) 
-7.9262507362684902

>  <s_m_subgroup_title>  (740) 
glide-dock_SP_D22_pv

>  <s_m_subgroupid>  (740) 
glide-dock_SP_D22_pv

>  <Molecule ChEMBL ID>  (740) 
CHEMBL1087872

>  <Standard Type>  (740) 
Ki

>  <Standard Value>  (740) 
9.0

>  <label>  (740) 
1

$$$$
CHEMBL1171249
     RDKit          3D

  0  0  0  0  0  0  0  0  0  0999 V3000
M  V30 BEGIN CTAB
M  V30 COUNTS 45 48 0 0 1
M  V30 BEGIN ATOM
M  V30 1 O 8.085197 6.572509 -11.955397 0
M  V30 2 C 9.344311 6.021591 -11.610486 0 CFG=1
M  V30 3 C 9.959283 5.346358 -12.854861 0
M  V30 4 C 11.176414 5.774360 -13.446447 0
M  V30 5 C 11.737455 5.077747 -14.533898 0
M  V30 6 C 11.084920 3.950329 -15.062757 0
M  V30 7 I 11.942792 2.891317 -16.648882 0
M  V30 8 C 9.856284 3.537006 -14.517714 0
M  V30 9 C 9.296997 4.234833 -13.429802 0
M  V30 10 C 10.223880 7.156446 -11.028518 0
M  V30 11 C 9.789635 7.653620 -9.637129 0
M  V30 12 N 9.680556 6.546210 -8.645285 0 CFG=1 CHG=1
M  V30 13 C 9.305236 6.972867 -7.265729 0
M  V30 14 C 10.273787 7.896005 -6.572651 0
M  V30 15 C 10.486311 9.206049 -6.903896 0
M  V30 16 O 11.274650 9.874682 -6.010699 0
M  V30 17 C 11.591852 8.962498 -5.030396 0
M  V30 18 C 12.305058 9.197662 -3.843126 0
M  V30 19 C 12.485966 8.138996 -2.937653 0
M  V30 20 C 11.997117 6.859564 -3.256209 0
M  V30 21 C 11.286090 6.647702 -4.456561 0
M  V30 22 C 11.032954 7.700026 -5.363875 0
M  V30 23 C 8.732338 5.518123 -9.137858 0
M  V30 24 C 9.144149 4.958021 -10.506001 0
M  V30 25 H 7.627259 6.950763 -11.204554 0
M  V30 26 H 11.716952 6.629319 -13.072108 0
M  V30 27 H 12.676526 5.404689 -14.955869 0
M  V30 28 H 9.345497 2.677790 -14.926895 0
M  V30 29 H 8.353843 3.896911 -13.027135 0
M  V30 30 H 11.248902 6.806062 -10.914539 0
M  V30 31 H 10.265051 7.996364 -11.723906 0
M  V30 32 H 10.549459 8.364631 -9.326081 0
M  V30 33 H 8.846631 8.196500 -9.700614 0
M  V30 34 H 8.322749 7.446679 -7.301334 0
M  V30 35 H 9.172275 6.084710 -6.649240 0
M  V30 36 H 10.090549 9.772317 -7.722701 0
M  V30 37 H 12.693908 10.172316 -3.607779 0
M  V30 38 H 13.011502 8.307050 -2.008905 0
M  V30 39 H 12.143137 6.038584 -2.567730 0
M  V30 40 H 10.886171 5.674269 -4.656683 0
M  V30 41 H 8.671090 4.695668 -8.423439 0
M  V30 42 H 7.730241 5.945345 -9.200926 0
M  V30 43 H 8.397931 4.224635 -10.812771 0
M  V30 44 H 10.073500 4.400718 -10.377205 0
M  V30 45 H 10.587425 6.107413 -8.576980 0
M  V30 END ATOM
M  V30 BEGIN BOND
M  V30 1 1 2 1 CFG=3
M  V30 2 1 3 2
M  V30 3 1 4 3
M  V30 4 2 5 4
M  V30 5 1 6 5
M  V30 6 1 7 6
M  V30 7 2 8 6
M  V30 8 2 9 3
M  V30 9 1 9 8
M  V30 10 1 10 2
M  V30 11 1 11 10
M  V30 12 1 12 11
M  V30 13 1 13 12
M  V30 14 1 14 13
M  V30 15 2 15 14
M  V30 16 1 16 15
M  V30 17 1 17 16
M  V30 18 2 18 17
M  V30 19 1 19 18
M  V30 20 2 20 19
M  V30 21 1 21 20
M  V30 22 1 22 14
M  V30 23 1 22 17
M  V30 24 2 22 21
M  V30 25 1 23 12
M  V30 26 1 24 2
M  V30 27 1 24 23
M  V30 28 1 25 1
M  V30 29 1 26 4
M  V30 30 1 27 5
M  V30 31 1 28 8
M  V30 32 1 29 9
M  V30 33 1 30 10
M  V30 34 1 31 10
M  V30 35 1 32 11
M  V30 36 1 33 11
M  V30 37 1 34 13
M  V30 38 1 35 13
M  V30 39 1 36 15
M  V30 40 1 37 18
M  V30 41 1 38 19
M  V30 42 1 39 20
M  V30 43 1 40 21
M  V30 44 1 41 23
M  V30 45 1 42 23
M  V30 46 1 43 24
M  V30 47 1 44 24
M  V30 48 1 12 45 CFG=1
M  V30 END BOND
M  V30 END CTAB
M  END
>  <b_m_subgroup_collapsed>  (741) 
0

>  <r_i_docking_score>  (741) 
-7.9220523717752904

>  <s_m_subgroup_title>  (741) 
glide-dock_SP_D22_pv

>  <s_m_subgroupid>  (741) 
glide-dock_SP_D22_pv

>  <Molecule ChEMBL ID>  (741) 
CHEMBL1171249

>  <Standard Type>  (741) 
Ki

>  <Standard Value>  (741) 
2.4

>  <label>  (741) 
1

$$$$
CHEMBL3775534
     RDKit          3D

  0  0  0  0  0  0  0  0  0  0999 V3000
M  V30 BEGIN CTAB
M  V30 COUNTS 60 64 0 0 1
M  V30 BEGIN ATOM
M  V30 1 C 12.488453 5.950301 -2.865242 0
M  V30 2 C 12.241641 7.396725 -2.954540 0
M  V30 3 N 12.486179 8.172606 -1.847413 0
M  V30 4 C 12.086653 9.370804 -2.220303 0
M  V30 5 O 11.642990 9.463407 -3.499365 0
M  V30 6 C 11.738519 8.178864 -3.962632 0
M  V30 7 C 11.285822 7.872073 -5.314446 0
M  V30 8 N 11.018198 6.624235 -5.703612 0
M  V30 9 N 10.603260 6.706273 -7.008316 0
M  V30 10 C 10.670515 7.999876 -7.319319 0
M  V30 11 S 10.246214 8.648641 -8.904500 0
M  V30 12 C 11.163754 7.483631 -9.954750 0
M  V30 13 C 10.413006 7.147400 -11.244534 0
M  V30 14 C 9.140311 6.340903 -10.946239 0
M  V30 15 N 8.444251 5.928697 -12.184226 0 CFG=2 CHG=1
M  V30 16 C 7.017889 5.583808 -12.003549 0
M  V30 17 C 6.664194 4.633657 -13.161320 0 CFG=2
M  V30 18 C 6.110392 3.259972 -12.770367 0
M  V30 19 C 6.698428 2.324171 -13.830924 0
M  V30 20 N 7.989168 2.906441 -14.163877 0
M  V30 21 C 8.946102 2.244429 -14.960465 0
M  V30 22 C 8.886515 0.840598 -15.144286 0
M  V30 23 C 9.851177 0.171798 -15.920015 0
M  V30 24 C 10.887336 0.895516 -16.534632 0
M  V30 25 C 10.961953 2.291118 -16.363815 0
M  V30 26 C 12.034189 3.043249 -16.991993 0
M  V30 27 N 12.887072 3.643546 -17.490061 0
M  V30 28 C 9.997982 2.958746 -15.580055 0
M  V30 29 C 7.989959 4.331652 -13.867692 0 CFG=2
M  V30 30 C 9.055556 4.771805 -12.866475 0
M  V30 31 N 11.092671 8.773095 -6.298386 0
M  V30 32 C 11.310293 10.201746 -6.270207 0
M  V30 33 H 12.485483 5.470481 -3.838541 0
M  V30 34 H 11.716984 5.502881 -2.246835 0
M  V30 35 H 13.445721 5.763965 -2.388302 0
M  V30 36 H 12.087780 10.175745 -1.526857 0
M  V30 37 H 12.143783 7.911943 -10.174316 0
M  V30 38 H 11.326373 6.554897 -9.418434 0
M  V30 39 H 10.166622 8.064277 -11.782372 0
M  V30 40 H 11.072927 6.572901 -11.894934 0
M  V30 41 H 9.359556 5.465196 -10.332934 0
M  V30 42 H 8.485757 6.970046 -10.348536 0
M  V30 43 H 6.885465 5.085225 -11.046844 0
M  V30 44 H 6.391418 6.475663 -12.006814 0
M  V30 45 H 5.959468 5.101799 -13.846634 0
M  V30 46 H 6.485447 2.973150 -11.787706 0
M  V30 47 H 5.021235 3.234008 -12.733693 0
M  V30 48 H 6.771354 1.307964 -13.446969 0
M  V30 49 H 6.085981 2.307219 -14.730422 0
M  V30 50 H 8.110720 0.245592 -14.688394 0
M  V30 51 H 9.795589 -0.900949 -16.040163 0
M  V30 52 H 11.624148 0.373575 -17.127977 0
M  V30 53 H 10.077237 4.029533 -15.468689 0
M  V30 54 H 8.085615 4.929604 -14.773842 0
M  V30 55 H 9.999346 5.028177 -13.345725 0
M  V30 56 H 9.248736 3.975804 -12.144170 0
M  V30 57 H 11.296079 10.574271 -7.284078 0
M  V30 58 H 12.286778 10.426843 -5.840843 0
M  V30 59 H 10.527869 10.688418 -5.686886 0
M  V30 60 H 8.458064 6.713405 -12.819093 0
M  V30 END ATOM
M  V30 BEGIN BOND
M  V30 1 1 2 1
M  V30 2 1 3 2
M  V30 3 2 4 3
M  V30 4 1 5 4
M  V30 5 2 6 2
M  V30 6 1 6 5
M  V30 7 1 7 6
M  V30 8 2 8 7
M  V30 9 1 9 8
M  V30 10 2 10 9
M  V30 11 1 11 10
M  V30 12 1 12 11
M  V30 13 1 13 12
M  V30 14 1 14 13
M  V30 15 1 15 14
M  V30 16 1 16 15
M  V30 17 1 17 16
M  V30 18 1 18 17
M  V30 19 1 19 18
M  V30 20 1 20 19
M  V30 21 1 21 20
M  V30 22 2 22 21
M  V30 23 1 23 22
M  V30 24 2 24 23
M  V30 25 1 25 24
M  V30 26 1 26 25
M  V30 27 3 27 26
M  V30 28 1 28 21
M  V30 29 2 28 25
M  V30 30 1 29 17
M  V30 31 1 29 20
M  V30 32 1 30 15
M  V30 33 1 30 29
M  V30 34 1 31 7
M  V30 35 1 31 10
M  V30 36 1 32 31
M  V30 37 1 33 1
M  V30 38 1 34 1
M  V30 39 1 35 1
M  V30 40 1 36 4
M  V30 41 1 37 12
M  V30 42 1 38 12
M  V30 43 1 39 13
M  V30 44 1 40 13
M  V30 45 1 41 14
M  V30 46 1 42 14
M  V30 47 1 43 16
M  V30 48 1 44 16
M  V30 49 1 17 45 CFG=3
M  V30 50 1 46 18
M  V30 51 1 47 18
M  V30 52 1 48 19
M  V30 53 1 49 19
M  V30 54 1 50 22
M  V30 55 1 51 23
M  V30 56 1 52 24
M  V30 57 1 53 28
M  V30 58 1 29 54 CFG=3
M  V30 59 1 55 30
M  V30 60 1 56 30
M  V30 61 1 57 32
M  V30 62 1 58 32
M  V30 63 1 59 32
M  V30 64 1 15 60 CFG=3
M  V30 END BOND
M  V30 END CTAB
M  END
>  <b_m_subgroup_collapsed>  (742) 
0

>  <r_i_docking_score>  (742) 
-7.9212745871436496

>  <s_m_subgroup_title>  (742) 
glide-dock_SP_D22_pv

>  <s_m_subgroupid>  (742) 
glide-dock_SP_D22_pv

>  <Molecule ChEMBL ID>  (742) 
CHEMBL3775534

>  <Standard Type>  (742) 
Ki

>  <Standard Value>  (742) 
5.75

>  <label>  (742) 
1

$$$$
CHEMBL5410217
     RDKit          3D

  0  0  0  0  0  0  0  0  0  0999 V3000
M  V30 BEGIN CTAB
M  V30 COUNTS 54 58 0 0 1
M  V30 BEGIN ATOM
M  V30 1 C 5.405573 -0.771192 -15.577082 0
M  V30 2 O 5.957830 0.378487 -14.950414 0
M  V30 3 C 7.107940 0.920274 -15.485134 0
M  V30 4 C 7.833080 0.364316 -16.566778 0
M  V30 5 C 9.015615 0.987162 -17.022835 0
M  V30 6 C 9.497198 2.162532 -16.408464 0
M  V30 7 C 8.801868 2.743175 -15.324409 0
M  V30 8 C 8.966245 3.866916 -14.444837 0
M  V30 9 C 7.923090 3.816097 -13.565202 0
M  V30 10 O 7.052126 2.801023 -13.846534 0
M  V30 11 C 7.605013 2.099917 -14.902502 0
M  V30 12 C 7.740421 4.664927 -12.345432 0
M  V30 13 N 8.777143 5.743270 -12.273628 0 CFG=1 CHG=1
M  V30 14 C 8.901537 6.335263 -10.918193 0
M  V30 15 C 9.192434 7.845567 -10.992592 0
M  V30 16 C 9.439484 8.492514 -9.619605 0
M  V30 17 C 10.931504 8.601569 -9.267121 0
M  V30 18 O 11.104080 9.371594 -8.083823 0
M  V30 19 C 11.223288 8.756459 -6.859092 0
M  V30 20 C 11.047653 7.370244 -6.640169 0
M  V30 21 C 11.286194 6.826669 -5.366236 0
M  V30 22 C 11.685894 7.652097 -4.305743 0
M  V30 23 S 12.086139 7.208026 -2.647388 0
M  V30 24 C 12.293685 8.924254 -2.308858 0
M  V30 25 N 12.086946 9.772237 -3.319343 0
M  V30 26 C 11.778626 9.061247 -4.473116 0
M  V30 27 C 11.551611 9.585658 -5.765712 0
M  V30 28 C 10.108367 5.345551 -12.832637 0
M  V30 29 C 10.027095 4.907410 -14.310597 0
M  V30 30 H 4.487138 -1.055050 -15.062495 0
M  V30 31 H 6.084687 -1.623610 -15.528961 0
M  V30 32 H 5.148210 -0.572052 -16.619307 0
M  V30 33 H 7.511079 -0.544627 -17.052172 0
M  V30 34 H 9.565900 0.551055 -17.844231 0
M  V30 35 H 10.412014 2.617683 -16.759533 0
M  V30 36 H 6.745564 5.111626 -12.330813 0
M  V30 37 H 7.815992 4.030073 -11.461546 0
M  V30 38 H 7.980173 6.172619 -10.356827 0
M  V30 39 H 9.680005 5.816476 -10.356085 0
M  V30 40 H 10.034766 8.055681 -11.653603 0
M  V30 41 H 8.333816 8.335583 -11.453847 0
M  V30 42 H 9.027652 9.500840 -9.638826 0
M  V30 43 H 8.889230 7.967745 -8.837197 0
M  V30 44 H 11.423858 7.629191 -9.235560 0
M  V30 45 H 11.442069 9.147784 -10.061558 0
M  V30 46 H 10.745267 6.701063 -7.430663 0
M  V30 47 H 11.175573 5.771925 -5.195207 0
M  V30 48 H 12.561507 9.319946 -1.340249 0
M  V30 49 H 11.651170 10.649117 -5.920012 0
M  V30 50 H 10.829741 6.156646 -12.733208 0
M  V30 51 H 10.487049 4.509013 -12.245023 0
M  V30 52 H 10.992397 4.520715 -14.641017 0
M  V30 53 H 9.800989 5.770712 -14.940483 0
M  V30 54 H 8.425981 6.478983 -12.868580 0
M  V30 END ATOM
M  V30 BEGIN BOND
M  V30 1 1 2 1
M  V30 2 1 3 2
M  V30 3 1 4 3
M  V30 4 2 5 4
M  V30 5 1 6 5
M  V30 6 2 7 6
M  V30 7 1 8 7
M  V30 8 2 9 8
M  V30 9 1 10 9
M  V30 10 2 11 3
M  V30 11 1 11 7
M  V30 12 1 11 10
M  V30 13 1 12 9
M  V30 14 1 13 12
M  V30 15 1 14 13
M  V30 16 1 15 14
M  V30 17 1 16 15
M  V30 18 1 17 16
M  V30 19 1 18 17
M  V30 20 1 19 18
M  V30 21 2 20 19
M  V30 22 1 21 20
M  V30 23 2 22 21
M  V30 24 1 23 22
M  V30 25 1 24 23
M  V30 26 2 25 24
M  V30 27 1 26 22
M  V30 28 1 26 25
M  V30 29 1 27 19
M  V30 30 2 27 26
M  V30 31 1 28 13
M  V30 32 1 29 8
M  V30 33 1 29 28
M  V30 34 1 30 1
M  V30 35 1 31 1
M  V30 36 1 32 1
M  V30 37 1 33 4
M  V30 38 1 34 5
M  V30 39 1 35 6
M  V30 40 1 36 12
M  V30 41 1 37 12
M  V30 42 1 38 14
M  V30 43 1 39 14
M  V30 44 1 40 15
M  V30 45 1 41 15
M  V30 46 1 42 16
M  V30 47 1 43 16
M  V30 48 1 44 17
M  V30 49 1 45 17
M  V30 50 1 46 20
M  V30 51 1 47 21
M  V30 52 1 48 24
M  V30 53 1 49 27
M  V30 54 1 50 28
M  V30 55 1 51 28
M  V30 56 1 52 29
M  V30 57 1 53 29
M  V30 58 1 13 54 CFG=3
M  V30 END BOND
M  V30 END CTAB
M  END
>  <b_m_subgroup_collapsed>  (743) 
0

>  <r_i_docking_score>  (743) 
-7.9202913784048903

>  <s_m_subgroup_title>  (743) 
glide-dock_SP_D22_pv

>  <s_m_subgroupid>  (743) 
glide-dock_SP_D22_pv

>  <Molecule ChEMBL ID>  (743) 
CHEMBL5410217

>  <Standard Type>  (743) 
Ki

>  <Standard Value>  (743) 
25852.0

>  <label>  (743) 
0

$$$$
CHEMBL597503
     RDKit          3D

  0  0  0  0  0  0  0  0  0  0999 V3000
M  V30 BEGIN CTAB
M  V30 COUNTS 57 62 0 0 1
M  V30 BEGIN ATOM
M  V30 1 C 12.493540 6.933331 -17.520958 0
M  V30 2 N 13.051933 5.736737 -16.835800 0 CFG=2 CHG=1
M  V30 3 C 13.163576 4.552179 -17.724924 0
M  V30 4 C 11.815993 3.929235 -18.138424 0
M  V30 5 C 11.239347 3.001931 -17.081264 0
M  V30 6 C 10.989144 1.661489 -17.436855 0
M  V30 7 C 10.461048 0.752606 -16.506760 0
M  V30 8 Cl 10.086216 -0.845117 -17.044872 0
M  V30 9 C 10.242905 1.161139 -15.173313 0
M  V30 10 O 9.738880 0.285928 -14.247134 0
M  V30 11 C 10.519919 2.493458 -14.806731 0
M  V30 12 C 10.957407 3.445876 -15.766782 0
M  V30 13 C 11.061618 4.940921 -15.420411 0 CFG=1
M  V30 14 C 10.258782 5.329885 -14.166917 0
M  V30 15 C 8.881728 5.042701 -14.187041 0
M  V30 16 C 8.060661 5.405438 -13.115458 0
M  V30 17 C 8.618500 6.065234 -12.014557 0
M  V30 18 C 10.002542 6.353080 -11.927672 0
M  V30 19 C 10.445277 6.972282 -10.645085 0
M  V30 20 C 11.348179 8.057667 -10.567790 0
M  V30 21 C 11.753517 8.586516 -9.336117 0
M  V30 22 C 11.175619 8.113308 -8.154361 0
M  V30 23 N 11.333831 8.476433 -6.833500 0
M  V30 24 C 10.508142 7.717176 -6.025215 0
M  V30 25 C 9.790915 6.854274 -6.810165 0
M  V30 26 C 10.216580 7.067306 -8.164594 0
M  V30 27 C 9.898502 6.498940 -9.419973 0
M  V30 28 C 10.832835 5.987761 -13.045290 0
M  V30 29 C 12.336728 6.249162 -13.105868 0
M  V30 30 C 12.742267 6.659076 -14.520988 0
M  V30 31 C 12.523439 5.468342 -15.465992 0 CFG=2
M  V30 32 H 11.418564 6.859569 -17.679201 0
M  V30 33 H 12.956386 7.069234 -18.498632 0
M  V30 34 H 12.685563 7.848669 -16.961840 0
M  V30 35 H 13.694240 4.863023 -18.625847 0
M  V30 36 H 13.801916 3.796096 -17.263475 0
M  V30 37 H 11.079250 4.683971 -18.410616 0
M  V30 38 H 11.981768 3.352467 -19.049353 0
M  V30 39 H 11.175794 1.320798 -18.445124 0
M  V30 40 H 9.722040 0.575724 -13.331354 0
M  V30 41 H 10.331223 2.784321 -13.783829 0
M  V30 42 H 10.507018 5.458379 -16.203480 0
M  V30 43 H 8.465602 4.536116 -15.042156 0
M  V30 44 H 7.001743 5.187960 -13.137586 0
M  V30 45 H 7.951063 6.345488 -11.210938 0
M  V30 46 H 11.750515 8.524847 -11.446890 0
M  V30 47 H 12.485316 9.372133 -9.307327 0
M  V30 48 H 11.951283 9.193573 -6.483919 0
M  V30 49 H 10.486539 7.858333 -4.955932 0
M  V30 50 H 9.048156 6.144901 -6.478045 0
M  V30 51 H 9.183588 5.689444 -9.430274 0
M  V30 52 H 12.691865 6.998219 -12.413726 0
M  V30 53 H 12.877693 5.337299 -12.845654 0
M  V30 54 H 12.153848 7.527060 -14.820346 0
M  V30 55 H 13.783763 6.972747 -14.549267 0
M  V30 56 H 13.154710 4.673874 -15.060435 0
M  V30 57 H 14.014935 5.990359 -16.668463 0
M  V30 END ATOM
M  V30 BEGIN BOND
M  V30 1 1 2 1
M  V30 2 1 3 2
M  V30 3 1 4 3
M  V30 4 1 5 4
M  V30 5 1 6 5
M  V30 6 2 7 6
M  V30 7 1 8 7
M  V30 8 1 9 7
M  V30 9 1 10 9
M  V30 10 2 11 9
M  V30 11 2 12 5
M  V30 12 1 12 11
M  V30 13 1 13 12
M  V30 14 1 14 13
M  V30 15 2 15 14
M  V30 16 1 16 15
M  V30 17 2 17 16
M  V30 18 1 18 17
M  V30 19 1 19 18
M  V30 20 2 20 19
M  V30 21 1 21 20
M  V30 22 2 22 21
M  V30 23 1 23 22
M  V30 24 1 24 23
M  V30 25 2 25 24
M  V30 26 1 26 22
M  V30 27 1 26 25
M  V30 28 1 27 19
M  V30 29 2 27 26
M  V30 30 1 28 14
M  V30 31 2 28 18
M  V30 32 1 29 28
M  V30 33 1 30 29
M  V30 34 1 31 2
M  V30 35 1 31 13
M  V30 36 1 31 30
M  V30 37 1 32 1
M  V30 38 1 33 1
M  V30 39 1 34 1
M  V30 40 1 35 3
M  V30 41 1 36 3
M  V30 42 1 37 4
M  V30 43 1 38 4
M  V30 44 1 39 6
M  V30 45 1 40 10
M  V30 46 1 41 11
M  V30 47 1 13 42 CFG=3
M  V30 48 1 43 15
M  V30 49 1 44 16
M  V30 50 1 45 17
M  V30 51 1 46 20
M  V30 52 1 47 21
M  V30 53 1 48 23
M  V30 54 1 49 24
M  V30 55 1 50 25
M  V30 56 1 51 27
M  V30 57 1 52 29
M  V30 58 1 53 29
M  V30 59 1 54 30
M  V30 60 1 55 30
M  V30 61 1 31 56 CFG=1
M  V30 62 1 2 57 CFG=1
M  V30 END BOND
M  V30 END CTAB
M  END
>  <b_m_subgroup_collapsed>  (744) 
0

>  <r_i_docking_score>  (744) 
-7.9181037745007199

>  <s_m_subgroup_title>  (744) 
glide-dock_SP_D22_pv

>  <s_m_subgroupid>  (744) 
glide-dock_SP_D22_pv

>  <Molecule ChEMBL ID>  (744) 
CHEMBL597503

>  <Standard Type>  (744) 
Ki

>  <Standard Value>  (744) 
51.0

>  <label>  (744) 
1

$$$$
CHEMBL4436479
     RDKit          3D

  0  0  0  0  0  0  0  0  0  0999 V3000
M  V30 BEGIN CTAB
M  V30 COUNTS 48 50 0 0 1
M  V30 BEGIN ATOM
M  V30 1 C 8.026457 1.844584 -15.315523 0
M  V30 2 C 7.313572 2.644691 -14.247461 0
M  V30 3 C 6.086673 2.191081 -13.726270 0
M  V30 4 C 5.421267 2.935492 -12.735770 0
M  V30 5 C 5.977792 4.139678 -12.261723 0
M  V30 6 C 7.216513 4.594802 -12.760387 0
M  V30 7 N 7.740818 5.811017 -12.243382 0
M  V30 8 C 9.036574 6.095677 -12.021220 0
M  V30 9 O 9.967887 5.323281 -12.246435 0
M  V30 10 C 9.367354 7.467882 -11.442696 0
M  V30 11 N 9.958817 7.336080 -10.086179 0 CFG=2 CHG=1
M  V30 12 C 8.904876 7.366202 -9.042171 0
M  V30 13 C 9.450345 7.192309 -7.627314 0
M  V30 14 C 10.462697 8.310922 -7.349552 0 CFG=1
M  V30 15 C 10.973228 8.335597 -5.920491 0
M  V30 16 C 11.286106 7.146687 -5.221367 0
M  V30 17 C 11.771868 7.208860 -3.899904 0
M  V30 18 C 11.925281 8.459741 -3.270820 0
M  V30 19 Cl 12.486734 8.571598 -1.652725 0
M  V30 20 C 11.593116 9.638842 -3.952590 0
M  V30 21 C 11.131391 9.582128 -5.278146 0
M  V30 22 C 11.589776 8.206375 -8.387876 0
M  V30 23 C 11.031442 8.335806 -9.820048 0
M  V30 24 C 7.874687 3.850190 -13.768993 0
M  V30 25 H 7.803342 0.781571 -15.218973 0
M  V30 26 H 7.712935 2.172851 -16.307907 0
M  V30 27 H 9.106920 1.969924 -15.238767 0
M  V30 28 H 5.651279 1.266793 -14.082801 0
M  V30 29 H 4.486599 2.571866 -12.339438 0
M  V30 30 H 5.462643 4.700459 -11.495996 0
M  V30 31 H 7.063488 6.465819 -11.865861 0
M  V30 32 H 10.082800 7.927879 -12.123283 0
M  V30 33 H 8.490116 8.120053 -11.440127 0
M  V30 34 H 8.468312 8.360084 -9.099152 0
M  V30 35 H 8.136817 6.614048 -9.238985 0
M  V30 36 H 8.625096 7.249362 -6.913826 0
M  V30 37 H 9.894742 6.201705 -7.521821 0
M  V30 38 H 9.948142 9.262448 -7.504679 0
M  V30 39 H 11.176660 6.180827 -5.690147 0
M  V30 40 H 12.016505 6.298760 -3.369886 0
M  V30 41 H 11.685534 10.584366 -3.442201 0
M  V30 42 H 10.886554 10.501274 -5.787769 0
M  V30 43 H 12.343250 8.976120 -8.216601 0
M  V30 44 H 12.085491 7.246615 -8.268178 0
M  V30 45 H 11.840020 8.208312 -10.542258 0
M  V30 46 H 10.633979 9.341487 -9.968201 0
M  V30 47 H 8.811239 4.192290 -14.182845 0
M  V30 48 H 10.387691 6.420747 -10.056384 0
M  V30 END ATOM
M  V30 BEGIN BOND
M  V30 1 1 2 1
M  V30 2 1 3 2
M  V30 3 2 4 3
M  V30 4 1 5 4
M  V30 5 2 6 5
M  V30 6 1 7 6
M  V30 7 1 8 7
M  V30 8 2 9 8
M  V30 9 1 10 8
M  V30 10 1 11 10
M  V30 11 1 12 11
M  V30 12 1 13 12
M  V30 13 1 14 13
M  V30 14 1 15 14
M  V30 15 1 16 15
M  V30 16 2 17 16
M  V30 17 1 18 17
M  V30 18 1 19 18
M  V30 19 2 20 18
M  V30 20 2 21 15
M  V30 21 1 21 20
M  V30 22 1 22 14
M  V30 23 1 23 11
M  V30 24 1 23 22
M  V30 25 2 24 2
M  V30 26 1 24 6
M  V30 27 1 25 1
M  V30 28 1 26 1
M  V30 29 1 27 1
M  V30 30 1 28 3
M  V30 31 1 29 4
M  V30 32 1 30 5
M  V30 33 1 31 7
M  V30 34 1 32 10
M  V30 35 1 33 10
M  V30 36 1 34 12
M  V30 37 1 35 12
M  V30 38 1 36 13
M  V30 39 1 37 13
M  V30 40 1 14 38 CFG=3
M  V30 41 1 39 16
M  V30 42 1 40 17
M  V30 43 1 41 20
M  V30 44 1 42 21
M  V30 45 1 43 22
M  V30 46 1 44 22
M  V30 47 1 45 23
M  V30 48 1 46 23
M  V30 49 1 47 24
M  V30 50 1 11 48 CFG=3
M  V30 END BOND
M  V30 END CTAB
M  END
>  <b_m_subgroup_collapsed>  (745) 
0

>  <r_i_docking_score>  (745) 
-7.9168911634655004

>  <s_m_subgroup_title>  (745) 
glide-dock_SP_D22_pv

>  <s_m_subgroupid>  (745) 
glide-dock_SP_D22_pv

>  <Molecule ChEMBL ID>  (745) 
CHEMBL4436479

>  <Standard Type>  (745) 
Ki

>  <Standard Value>  (745) 
50000.0

>  <label>  (745) 
0

$$$$
CHEMBL425064
     RDKit          3D

  0  0  0  0  0  0  0  0  0  0999 V3000
M  V30 BEGIN CTAB
M  V30 COUNTS 42 45 0 0 1
M  V30 BEGIN ATOM
M  V30 1 F 12.599974 8.563144 -1.446135 0
M  V30 2 C 12.144102 8.435234 -2.711998 0
M  V30 3 C 11.738728 9.574368 -3.427492 0
M  V30 4 C 11.285743 9.453519 -4.753252 0
M  V30 5 C 11.232155 8.187652 -5.388535 0
M  V30 6 N 10.810637 8.059509 -6.728089 0
M  V30 7 C 9.904433 6.982363 -7.109545 0
M  V30 8 C 10.214031 6.535837 -8.548074 0
M  V30 9 N 10.138370 7.669498 -9.512896 0 CHG=1
M  V30 10 C 10.491577 7.295188 -10.912807 0
M  V30 11 C 9.633115 6.229465 -11.540010 0
M  V30 12 C 8.365133 5.842700 -11.219604 0
M  V30 13 N 7.974382 4.916526 -12.167979 0
M  V30 14 C 6.804883 4.246938 -12.377195 0
M  V30 15 C 6.737487 3.382097 -13.446184 0
M  V30 16 C 7.893501 3.217298 -14.246921 0
M  V30 17 N 9.034974 3.869742 -14.058347 0
M  V30 18 C 9.085119 4.727350 -13.024601 0
M  V30 19 N 10.085549 5.523347 -12.647084 0
M  V30 20 C 10.972065 8.826704 -9.075577 0
M  V30 21 C 10.776270 9.225092 -7.599462 0
M  V30 22 C 11.633326 7.049265 -4.646754 0
M  V30 23 C 12.085662 7.169148 -3.318481 0
M  V30 24 H 11.778621 10.544606 -2.955048 0
M  V30 25 H 10.974998 10.351775 -5.262431 0
M  V30 26 H 8.875105 7.341326 -7.044069 0
M  V30 27 H 9.972556 6.133086 -6.433492 0
M  V30 28 H 9.538942 5.727427 -8.825903 0
M  V30 29 H 11.224747 6.132853 -8.572096 0
M  V30 30 H 11.537472 6.984657 -10.938683 0
M  V30 31 H 10.430168 8.192179 -11.530970 0
M  V30 32 H 7.683835 6.172043 -10.450447 0
M  V30 33 H 5.986300 4.440924 -11.690633 0
M  V30 34 H 5.827555 2.830629 -13.656864 0
M  V30 35 H 7.871877 2.527944 -15.084578 0
M  V30 36 H 12.024390 8.569066 -9.216640 0
M  V30 37 H 10.783755 9.691642 -9.710864 0
M  V30 38 H 9.832509 9.756600 -7.455338 0
M  V30 39 H 11.572550 9.921696 -7.333116 0
M  V30 40 H 11.629113 6.067213 -5.097407 0
M  V30 41 H 12.397647 6.289438 -2.774435 0
M  V30 42 H 9.173009 7.971433 -9.521870 0
M  V30 END ATOM
M  V30 BEGIN BOND
M  V30 1 1 2 1
M  V30 2 1 3 2
M  V30 3 2 4 3
M  V30 4 1 5 4
M  V30 5 1 6 5
M  V30 6 1 7 6
M  V30 7 1 8 7
M  V30 8 1 9 8
M  V30 9 1 10 9
M  V30 10 1 11 10
M  V30 11 2 12 11
M  V30 12 1 13 12
M  V30 13 1 14 13
M  V30 14 2 15 14
M  V30 15 1 16 15
M  V30 16 2 17 16
M  V30 17 1 18 13
M  V30 18 1 18 17
M  V30 19 1 19 11
M  V30 20 2 19 18
M  V30 21 1 20 9
M  V30 22 1 21 6
M  V30 23 1 21 20
M  V30 24 2 22 5
M  V30 25 2 23 2
M  V30 26 1 23 22
M  V30 27 1 24 3
M  V30 28 1 25 4
M  V30 29 1 26 7
M  V30 30 1 27 7
M  V30 31 1 28 8
M  V30 32 1 29 8
M  V30 33 1 30 10
M  V30 34 1 31 10
M  V30 35 1 32 12
M  V30 36 1 33 14
M  V30 37 1 34 15
M  V30 38 1 35 16
M  V30 39 1 36 20
M  V30 40 1 37 20
M  V30 41 1 38 21
M  V30 42 1 39 21
M  V30 43 1 40 22
M  V30 44 1 41 23
M  V30 45 1 42 9
M  V30 END BOND
M  V30 END CTAB
M  END
>  <b_m_subgroup_collapsed>  (746) 
0

>  <r_i_docking_score>  (746) 
-7.9131284152851196

>  <s_m_subgroup_title>  (746) 
glide-dock_SP_D22_pv

>  <s_m_subgroupid>  (746) 
glide-dock_SP_D22_pv

>  <Molecule ChEMBL ID>  (746) 
CHEMBL425064

>  <Standard Type>  (746) 
Ki

>  <Standard Value>  (746) 
49000.0

>  <label>  (746) 
0

$$$$
CHEMBL4242192
     RDKit          3D

  0  0  0  0  0  0  0  0  0  0999 V3000
M  V30 BEGIN CTAB
M  V30 COUNTS 63 65 0 0 1
M  V30 BEGIN ATOM
M  V30 1 C 12.084784 6.963614 -2.957876 0
M  V30 2 C 11.939433 8.111857 -3.347787 0
M  V30 3 C 11.719481 9.489872 -3.823666 0
M  V30 4 C 12.161876 9.747591 -5.281383 0
M  V30 5 C 11.292215 9.071282 -6.344870 0
M  V30 6 O 10.084169 8.971849 -6.169754 0
M  V30 7 N 11.933970 8.655910 -7.447432 0
M  V30 8 C 11.400942 8.066106 -8.622884 0
M  V30 9 C 10.136146 7.429145 -8.708599 0
M  V30 10 C 9.690100 6.891667 -9.935359 0
M  V30 11 C 10.508435 6.979506 -11.080520 0
M  V30 12 C 10.032522 6.543561 -12.446792 0
M  V30 13 C 10.702699 5.274131 -13.023221 0
M  V30 14 N 10.291169 5.018417 -14.437105 0 CFG=1 CHG=1
M  V30 15 C 11.442256 4.944416 -15.377889 0
M  V30 16 C 12.049387 6.331387 -15.652590 0
M  V30 17 C 13.262548 6.264233 -16.585323 0
M  V30 18 C 9.290199 3.926553 -14.638734 0 CFG=1
M  V30 19 C 9.839507 2.503698 -14.427382 0
M  V30 20 C 8.797795 1.443463 -14.825745 0
M  V30 21 C 7.409563 1.702116 -14.246986 0
M  V30 22 C 6.484190 0.641520 -14.093064 0
M  V30 23 O 6.757972 -0.627483 -14.502336 0
M  V30 24 C 5.235075 0.867990 -13.489805 0
M  V30 25 C 4.885977 2.151828 -13.046822 0
M  V30 26 C 5.780326 3.218511 -13.215707 0
M  V30 27 C 7.038905 3.000233 -13.810206 0
M  V30 28 C 8.010232 4.160914 -13.818680 0
M  V30 29 C 11.771392 7.597839 -10.986213 0
M  V30 30 C 12.219535 8.121797 -9.764766 0
M  V30 31 H 12.184861 5.955571 -2.622482 0
M  V30 32 H 10.665021 9.731241 -3.688694 0
M  V30 33 H 12.270103 10.146677 -3.149285 0
M  V30 34 H 12.085569 10.812682 -5.496008 0
M  V30 35 H 13.210159 9.474494 -5.412293 0
M  V30 36 H 12.918560 8.876199 -7.485110 0
M  V30 37 H 9.481348 7.350587 -7.853599 0
M  V30 38 H 8.705474 6.448728 -9.995606 0
M  V30 39 H 8.945144 6.481146 -12.458922 0
M  V30 40 H 10.315389 7.396596 -13.046826 0
M  V30 41 H 11.784945 5.406742 -12.999577 0
M  V30 42 H 10.491964 4.415509 -12.384989 0
M  V30 43 H 12.200053 4.262010 -14.987722 0
M  V30 44 H 11.114449 4.524025 -16.330679 0
M  V30 45 H 11.289873 6.971705 -16.099703 0
M  V30 46 H 12.354495 6.817593 -14.725379 0
M  V30 47 H 13.669007 7.260871 -16.767050 0
M  V30 48 H 14.058626 5.657403 -16.152472 0
M  V30 49 H 12.996157 5.833528 -17.550968 0
M  V30 50 H 8.989614 3.978848 -15.686890 0
M  V30 51 H 10.751316 2.330929 -14.999313 0
M  V30 52 H 10.105090 2.368348 -13.380826 0
M  V30 53 H 9.156137 0.464018 -14.506652 0
M  V30 54 H 8.704514 1.406432 -15.911428 0
M  V30 55 H 7.550375 -0.759934 -15.003725 0
M  V30 56 H 4.530398 0.056287 -13.389595 0
M  V30 57 H 3.902858 2.327921 -12.646735 0
M  V30 58 H 5.505449 4.204194 -12.868102 0
M  V30 59 H 8.240006 4.328523 -12.767895 0
M  V30 60 H 7.498060 5.053011 -14.170950 0
M  V30 61 H 12.403980 7.683265 -11.858391 0
M  V30 62 H 13.198828 8.572617 -9.714321 0
M  V30 63 H 9.799373 5.853989 -14.718101 0
M  V30 END ATOM
M  V30 BEGIN BOND
M  V30 1 3 2 1
M  V30 2 1 3 2
M  V30 3 1 4 3
M  V30 4 1 5 4
M  V30 5 2 6 5
M  V30 6 1 7 5
M  V30 7 1 8 7
M  V30 8 1 9 8
M  V30 9 2 10 9
M  V30 10 1 11 10
M  V30 11 1 12 11
M  V30 12 1 13 12
M  V30 13 1 14 13
M  V30 14 1 15 14
M  V30 15 1 16 15
M  V30 16 1 17 16
M  V30 17 1 18 14
M  V30 18 1 19 18
M  V30 19 1 20 19
M  V30 20 1 21 20
M  V30 21 2 22 21
M  V30 22 1 23 22
M  V30 23 1 24 22
M  V30 24 2 25 24
M  V30 25 1 26 25
M  V30 26 1 27 21
M  V30 27 2 27 26
M  V30 28 1 28 18
M  V30 29 1 28 27
M  V30 30 2 29 11
M  V30 31 2 30 8
M  V30 32 1 30 29
M  V30 33 1 31 1
M  V30 34 1 32 3
M  V30 35 1 33 3
M  V30 36 1 34 4
M  V30 37 1 35 4
M  V30 38 1 36 7
M  V30 39 1 37 9
M  V30 40 1 38 10
M  V30 41 1 39 12
M  V30 42 1 40 12
M  V30 43 1 41 13
M  V30 44 1 42 13
M  V30 45 1 43 15
M  V30 46 1 44 15
M  V30 47 1 45 16
M  V30 48 1 46 16
M  V30 49 1 47 17
M  V30 50 1 48 17
M  V30 51 1 49 17
M  V30 52 1 18 50 CFG=3
M  V30 53 1 51 19
M  V30 54 1 52 19
M  V30 55 1 53 20
M  V30 56 1 54 20
M  V30 57 1 55 23
M  V30 58 1 56 24
M  V30 59 1 57 25
M  V30 60 1 58 26
M  V30 61 1 59 28
M  V30 62 1 60 28
M  V30 63 1 61 29
M  V30 64 1 62 30
M  V30 65 1 14 63 CFG=3
M  V30 END BOND
M  V30 END CTAB
M  END
>  <b_m_subgroup_collapsed>  (747) 
0

>  <r_i_docking_score>  (747) 
-7.9124310430275697

>  <s_m_subgroup_title>  (747) 
glide-dock_SP_D22_pv

>  <s_m_subgroupid>  (747) 
glide-dock_SP_D22_pv

>  <Molecule ChEMBL ID>  (747) 
CHEMBL4242192

>  <Standard Type>  (747) 
Ki

>  <Standard Value>  (747) 
17.0

>  <label>  (747) 
1

$$$$
CHEMBL542942
     RDKit          3D

  0  0  0  0  0  0  0  0  0  0999 V3000
M  V30 BEGIN CTAB
M  V30 COUNTS 52 55 0 0 1
M  V30 BEGIN ATOM
M  V30 1 O 12.304979 9.372322 -7.081576 0
M  V30 2 C 11.073846 8.946336 -6.561875 0 CFG=2
M  V30 3 C 11.353732 8.669029 -5.097375 0
M  V30 4 C 11.479693 9.756123 -4.211486 0
M  V30 5 C 11.944507 9.548135 -2.901207 0
M  V30 6 C 12.229980 8.249528 -2.445032 0
M  V30 7 C 12.086020 7.157712 -3.318530 0
M  V30 8 C 11.680404 7.373339 -4.651388 0
M  V30 9 C 11.571180 6.202739 -5.594181 0
M  V30 10 C 11.545724 6.549769 -7.091834 0
M  V30 11 C 10.621108 7.733992 -7.437204 0 CFG=2
M  V30 12 C 10.710513 8.112364 -8.946359 0
M  V30 13 C 10.246173 7.001457 -9.894437 0
M  V30 14 N 8.886017 6.502279 -9.581149 0 CFG=1 CHG=1
M  V30 15 C 8.511415 5.367362 -10.462191 0
M  V30 16 C 8.105458 5.816733 -11.878814 0
M  V30 17 C 7.678056 4.638617 -12.728248 0
M  V30 18 C 8.611989 3.986949 -13.560848 0
M  V30 19 C 8.215785 2.875211 -14.328896 0
M  V30 20 C 6.886014 2.414975 -14.268562 0
M  V30 21 C 5.951798 3.067493 -13.441469 0
M  V30 22 C 6.346592 4.176987 -12.670180 0
M  V30 23 C 8.716891 6.172300 -8.139160 0
M  V30 24 C 9.140294 7.341237 -7.215602 0
M  V30 25 H 12.210926 9.530345 -8.007512 0
M  V30 26 H 10.358297 9.764797 -6.649708 0
M  V30 27 H 11.281754 10.759562 -4.557295 0
M  V30 28 H 12.085953 10.394092 -2.246856 0
M  V30 29 H 12.569798 8.095802 -1.432248 0
M  V30 30 H 12.312142 6.159432 -2.972142 0
M  V30 31 H 12.361773 5.481189 -5.398388 0
M  V30 32 H 10.618205 5.772326 -5.315189 0
M  V30 33 H 12.537556 6.807225 -7.446863 0
M  V30 34 H 11.290748 5.648851 -7.642020 0
M  V30 35 H 10.115405 9.008307 -9.132768 0
M  V30 36 H 11.729992 8.362415 -9.241397 0
M  V30 37 H 10.948281 6.172319 -9.846829 0
M  V30 38 H 10.279238 7.376232 -10.917163 0
M  V30 39 H 9.331676 4.649014 -10.513662 0
M  V30 40 H 7.686019 4.820824 -10.017372 0
M  V30 41 H 7.285920 6.535825 -11.846828 0
M  V30 42 H 8.929807 6.322191 -12.381229 0
M  V30 43 H 9.635674 4.328938 -13.607045 0
M  V30 44 H 8.933000 2.372162 -14.960824 0
M  V30 45 H 6.583118 1.560369 -14.855956 0
M  V30 46 H 4.932917 2.712421 -13.392772 0
M  V30 47 H 5.629546 4.667079 -12.026536 0
M  V30 48 H 9.256955 5.257607 -7.902676 0
M  V30 49 H 7.686017 5.910796 -7.941627 0
M  V30 50 H 8.958829 7.069905 -6.176951 0
M  V30 51 H 8.491913 8.198854 -7.404759 0
M  V30 52 H 8.207290 7.236733 -9.774763 0
M  V30 END ATOM
M  V30 BEGIN BOND
M  V30 1 1 2 1
M  V30 2 1 3 2
M  V30 3 2 4 3
M  V30 4 1 5 4
M  V30 5 2 6 5
M  V30 6 1 7 6
M  V30 7 1 8 3
M  V30 8 2 8 7
M  V30 9 1 9 8
M  V30 10 1 10 9
M  V30 11 1 11 2
M  V30 12 1 11 10 CFG=3
M  V30 13 1 12 11
M  V30 14 1 13 12
M  V30 15 1 14 13
M  V30 16 1 15 14
M  V30 17 1 16 15
M  V30 18 1 17 16
M  V30 19 2 18 17
M  V30 20 1 19 18
M  V30 21 2 20 19
M  V30 22 1 21 20
M  V30 23 1 22 17
M  V30 24 2 22 21
M  V30 25 1 23 14
M  V30 26 1 24 11
M  V30 27 1 24 23
M  V30 28 1 25 1
M  V30 29 1 2 26 CFG=1
M  V30 30 1 27 4
M  V30 31 1 28 5
M  V30 32 1 29 6
M  V30 33 1 30 7
M  V30 34 1 31 9
M  V30 35 1 32 9
M  V30 36 1 33 10
M  V30 37 1 34 10
M  V30 38 1 35 12
M  V30 39 1 36 12
M  V30 40 1 37 13
M  V30 41 1 38 13
M  V30 42 1 39 15
M  V30 43 1 40 15
M  V30 44 1 41 16
M  V30 45 1 42 16
M  V30 46 1 43 18
M  V30 47 1 44 19
M  V30 48 1 45 20
M  V30 49 1 46 21
M  V30 50 1 47 22
M  V30 51 1 48 23
M  V30 52 1 49 23
M  V30 53 1 50 24
M  V30 54 1 51 24
M  V30 55 1 14 52 CFG=3
M  V30 END BOND
M  V30 END CTAB
M  END
>  <b_m_subgroup_collapsed>  (748) 
0

>  <r_i_docking_score>  (748) 
-7.9114018194287796

>  <s_m_subgroup_title>  (748) 
glide-dock_SP_D22_pv

>  <s_m_subgroupid>  (748) 
glide-dock_SP_D22_pv

>  <Molecule ChEMBL ID>  (748) 
CHEMBL542942

>  <Standard Type>  (748) 
Ki

>  <Standard Value>  (748) 
10000.0

>  <label>  (748) 
0

$$$$
CHEMBL1923416
     RDKit          3D

  0  0  0  0  0  0  0  0  0  0999 V3000
M  V30 BEGIN CTAB
M  V30 COUNTS 45 48 0 0 1
M  V30 BEGIN ATOM
M  V30 1 F 5.767754 2.432495 -13.725856 0
M  V30 2 C 6.494156 3.520232 -13.380410 0
M  V30 3 C 7.863569 3.556368 -13.709276 0
M  V30 4 C 8.629694 4.666421 -13.310144 0
M  V30 5 C 7.995650 5.714728 -12.614128 0
M  V30 6 C 8.767612 6.965010 -12.217988 0
M  V30 7 N 8.886053 7.169428 -10.756736 0 CHG=1
M  V30 8 C 9.670032 6.128755 -10.047635 0
M  V30 9 C 9.698345 6.364068 -8.526350 0
M  V30 10 N 10.086364 7.740472 -8.229322 0
M  V30 11 C 10.678915 8.070665 -6.992721 0
M  V30 12 C 11.277662 9.339177 -6.818595 0
M  V30 13 C 11.886497 9.695362 -5.606313 0
M  V30 14 C 11.916306 8.790492 -4.535422 0
M  V30 15 C 11.354425 7.501700 -4.701641 0
M  V30 16 C 10.726042 7.156043 -5.913144 0
M  V30 17 O 11.403920 6.572396 -3.693274 0
M  V30 18 C 12.360671 6.846388 -2.682096 0
M  V30 19 C 12.268039 8.316492 -2.252264 0
M  V30 20 O 12.509539 9.175658 -3.357422 0
M  V30 21 C 9.285988 8.757241 -8.903882 0
M  V30 22 C 9.327079 8.541793 -10.419391 0
M  V30 23 C 6.613469 5.590851 -12.349397 0
M  V30 24 N 5.879244 4.521688 -12.720219 0
M  V30 25 H 8.319403 2.733109 -14.238943 0
M  V30 26 H 9.682670 4.713333 -13.547355 0
M  V30 27 H 9.769779 6.946829 -12.646758 0
M  V30 28 H 8.246829 7.818440 -12.654058 0
M  V30 29 H 9.278948 5.133399 -10.261099 0
M  V30 30 H 10.689400 6.172585 -10.427469 0
M  V30 31 H 8.715244 6.169271 -8.093534 0
M  V30 32 H 10.398351 5.655760 -8.082966 0
M  V30 33 H 11.293522 10.060756 -7.617284 0
M  V30 34 H 12.340467 10.665340 -5.507531 0
M  V30 35 H 10.287271 6.172547 -5.988198 0
M  V30 36 H 12.169860 6.178120 -1.845346 0
M  V30 37 H 13.358310 6.614797 -3.046828 0
M  V30 38 H 11.286175 8.530946 -1.846854 0
M  V30 39 H 12.992928 8.535840 -1.468339 0
M  V30 40 H 8.263790 8.687585 -8.533726 0
M  V30 41 H 9.600846 9.772232 -8.693489 0
M  V30 42 H 10.335982 8.711763 -10.798747 0
M  V30 43 H 8.671474 9.269513 -10.899964 0
M  V30 44 H 6.071826 6.376702 -11.847321 0
M  V30 45 H 7.926385 7.150935 -10.398093 0
M  V30 END ATOM
M  V30 BEGIN BOND
M  V30 1 1 2 1
M  V30 2 1 3 2
M  V30 3 2 4 3
M  V30 4 1 5 4
M  V30 5 1 6 5
M  V30 6 1 7 6
M  V30 7 1 8 7
M  V30 8 1 9 8
M  V30 9 1 10 9
M  V30 10 1 11 10
M  V30 11 1 12 11
M  V30 12 2 13 12
M  V30 13 1 14 13
M  V30 14 2 15 14
M  V30 15 2 16 11
M  V30 16 1 16 15
M  V30 17 1 17 15
M  V30 18 1 18 17
M  V30 19 1 19 18
M  V30 20 1 20 14
M  V30 21 1 20 19
M  V30 22 1 21 10
M  V30 23 1 22 7
M  V30 24 1 22 21
M  V30 25 2 23 5
M  V30 26 2 24 2
M  V30 27 1 24 23
M  V30 28 1 25 3
M  V30 29 1 26 4
M  V30 30 1 27 6
M  V30 31 1 28 6
M  V30 32 1 29 8
M  V30 33 1 30 8
M  V30 34 1 31 9
M  V30 35 1 32 9
M  V30 36 1 33 12
M  V30 37 1 34 13
M  V30 38 1 35 16
M  V30 39 1 36 18
M  V30 40 1 37 18
M  V30 41 1 38 19
M  V30 42 1 39 19
M  V30 43 1 40 21
M  V30 44 1 41 21
M  V30 45 1 42 22
M  V30 46 1 43 22
M  V30 47 1 44 23
M  V30 48 1 45 7
M  V30 END BOND
M  V30 END CTAB
M  END
>  <b_m_subgroup_collapsed>  (749) 
0

>  <r_i_docking_score>  (749) 
-7.9109229400964898

>  <s_m_subgroup_title>  (749) 
glide-dock_SP_D22_pv

>  <s_m_subgroupid>  (749) 
glide-dock_SP_D22_pv

>  <Molecule ChEMBL ID>  (749) 
CHEMBL1923416

>  <Standard Type>  (749) 
Ki

>  <Standard Value>  (749) 
29000.0

>  <label>  (749) 
0

$$$$
CHEMBL57019
     RDKit          3D

  0  0  0  0  0  0  0  0  0  0999 V3000
M  V30 BEGIN CTAB
M  V30 COUNTS 54 57 0 0 1
M  V30 BEGIN ATOM
M  V30 1 C 10.253723 0.176243 -16.846495 0
M  V30 2 O 9.746640 1.303018 -16.144629 0
M  V30 3 C 8.501659 1.211248 -15.553331 0
M  V30 4 C 7.592861 0.176329 -15.891034 0
M  V30 5 C 6.348806 0.052726 -15.247262 0
M  V30 6 C 5.452317 -0.975944 -15.605624 0
M  V30 7 C 4.203240 -1.076525 -14.964663 0
M  V30 8 C 3.863608 -0.180694 -13.934496 0
M  V30 9 C 4.767542 0.834688 -13.560082 0
M  V30 10 C 5.996404 0.972404 -14.239060 0
M  V30 11 C 6.854135 2.047966 -13.946780 0
M  V30 12 C 8.111402 2.185635 -14.590154 0
M  V30 13 C 9.000573 3.345266 -14.240451 0
M  V30 14 O 10.125756 3.529937 -14.708742 0
M  V30 15 O 8.430522 4.205010 -13.363960 0
M  V30 16 C 9.073822 5.437132 -13.085879 0
M  V30 17 C 8.350944 6.206728 -11.968764 0 CFG=2
M  V30 18 C 8.853194 7.655332 -11.846519 0
M  V30 19 C 9.556223 7.723139 -10.502251 0
M  V30 20 N 8.886088 6.709205 -9.665708 0 CFG=2 CHG=1
M  V30 21 C 9.576024 6.313742 -8.407784 0
M  V30 22 C 10.327366 7.449036 -7.720884 0
M  V30 23 C 9.755086 8.164776 -6.647204 0
M  V30 24 C 10.486425 9.195829 -6.016849 0
M  V30 25 C 11.765099 9.546376 -6.477809 0
M  V30 26 C 12.325203 8.851381 -7.559887 0
M  V30 27 C 11.626237 7.787845 -8.156339 0
M  V30 28 C 8.564192 5.587054 -10.573558 0
M  V30 29 H 11.305331 0.342972 -17.085480 0
M  V30 30 H 10.194827 -0.732985 -16.244938 0
M  V30 31 H 9.721990 0.022675 -17.786575 0
M  V30 32 H 7.837636 -0.556554 -16.643969 0
M  V30 33 H 5.712916 -1.684099 -16.378933 0
M  V30 34 H 3.506730 -1.848597 -15.260894 0
M  V30 35 H 2.901598 -0.262355 -13.448216 0
M  V30 36 H 4.493055 1.538817 -12.788401 0
M  V30 37 H 6.532309 2.758739 -13.199693 0
M  V30 38 H 9.056782 6.025647 -14.002250 0
M  V30 39 H 10.120100 5.278261 -12.818490 0
M  V30 40 H 7.282994 6.239078 -12.194699 0
M  V30 41 H 8.006711 8.341989 -11.855169 0
M  V30 42 H 9.524513 7.959354 -12.646621 0
M  V30 43 H 9.507153 8.721482 -10.065118 0
M  V30 44 H 10.601482 7.452477 -10.650056 0
M  V30 45 H 10.297952 5.521347 -8.612113 0
M  V30 46 H 8.840760 5.885538 -7.724768 0
M  V30 47 H 8.763999 7.916606 -6.292723 0
M  V30 48 H 10.084499 9.742313 -5.178582 0
M  V30 49 H 12.318751 10.342711 -6.001164 0
M  V30 50 H 13.312341 9.111728 -7.914914 0
M  V30 51 H 12.085184 7.268468 -8.980611 0
M  V30 52 H 9.397030 4.881499 -10.600436 0
M  V30 53 H 7.686499 5.041770 -10.230715 0
M  V30 54 H 7.984122 7.124991 -9.429409 0
M  V30 END ATOM
M  V30 BEGIN BOND
M  V30 1 1 2 1
M  V30 2 1 3 2
M  V30 3 2 4 3
M  V30 4 1 5 4
M  V30 5 2 6 5
M  V30 6 1 7 6
M  V30 7 2 8 7
M  V30 8 1 9 8
M  V30 9 1 10 5
M  V30 10 2 10 9
M  V30 11 1 11 10
M  V30 12 1 12 3
M  V30 13 2 12 11
M  V30 14 1 13 12
M  V30 15 2 14 13
M  V30 16 1 15 13
M  V30 17 1 16 15
M  V30 18 1 17 16
M  V30 19 1 18 17
M  V30 20 1 19 18
M  V30 21 1 20 19
M  V30 22 1 21 20
M  V30 23 1 22 21
M  V30 24 2 23 22
M  V30 25 1 24 23
M  V30 26 2 25 24
M  V30 27 1 26 25
M  V30 28 1 27 22
M  V30 29 2 27 26
M  V30 30 1 28 17
M  V30 31 1 28 20
M  V30 32 1 29 1
M  V30 33 1 30 1
M  V30 34 1 31 1
M  V30 35 1 32 4
M  V30 36 1 33 6
M  V30 37 1 34 7
M  V30 38 1 35 8
M  V30 39 1 36 9
M  V30 40 1 37 11
M  V30 41 1 38 16
M  V30 42 1 39 16
M  V30 43 1 17 40 CFG=3
M  V30 44 1 41 18
M  V30 45 1 42 18
M  V30 46 1 43 19
M  V30 47 1 44 19
M  V30 48 1 45 21
M  V30 49 1 46 21
M  V30 50 1 47 23
M  V30 51 1 48 24
M  V30 52 1 49 25
M  V30 53 1 50 26
M  V30 54 1 51 27
M  V30 55 1 52 28
M  V30 56 1 53 28
M  V30 57 1 20 54 CFG=1
M  V30 END BOND
M  V30 END CTAB
M  END
>  <b_m_subgroup_collapsed>  (750) 
0

>  <r_i_docking_score>  (750) 
-7.9082321710741397

>  <s_m_subgroup_title>  (750) 
glide-dock_SP_D22_pv

>  <s_m_subgroupid>  (750) 
glide-dock_SP_D22_pv

>  <Molecule ChEMBL ID>  (750) 
CHEMBL57019

>  <Standard Type>  (750) 
Ki

>  <Standard Value>  (750) 
10000.0

>  <label>  (750) 
0

$$$$
CHEMBL109897
     RDKit          3D

  0  0  0  0  0  0  0  0  0  0999 V3000
M  V30 BEGIN CTAB
M  V30 COUNTS 91 98 0 0 1
M  V30 BEGIN ATOM
M  V30 1 C 11.658749 7.094139 -12.825673 0
M  V30 2 C 11.580661 7.772017 -11.453342 0
M  V30 3 C 10.213335 8.420821 -11.107496 0
M  V30 4 N 9.286019 7.625234 -10.248520 0 CFG=1 CHG=1
M  V30 5 C 8.825794 6.347454 -10.870201 0
M  V30 6 C 8.137398 6.529062 -12.244391 0
M  V30 7 C 7.690033 5.204525 -12.819466 0
M  V30 8 C 6.423998 4.681333 -12.489249 0
M  V30 9 C 6.022095 3.435469 -13.005625 0
M  V30 10 C 6.885959 2.704562 -13.847139 0
M  V30 11 N 6.485391 1.441459 -14.292861 0
M  V30 12 C 6.655049 0.791616 -15.500801 0
M  V30 13 S 5.580115 -0.674668 -15.578942 0
M  V30 14 N 7.407639 1.171565 -16.484966 0
M  V30 15 C 7.394541 0.444079 -17.671259 0
M  V30 16 C 8.305149 -0.627415 -17.862555 0
M  V30 17 C 8.290069 -1.380208 -19.056360 0
M  V30 18 C 7.361642 -1.024323 -20.049799 0
M  V30 19 C 6.505494 0.047659 -19.880070 0
M  V30 20 C 6.489820 0.803021 -18.698633 0
M  V30 21 C 5.703068 0.187609 -21.093063 0
M  V30 22 O 4.885821 1.071569 -21.334202 0
M  V30 23 O 6.063162 -0.832263 -21.920965 0
M  V30 24 C 7.080806 -1.685957 -21.374712 0 CFG=1
M  V30 25 C 8.320333 -1.680366 -22.262871 0
M  V30 26 C 8.870516 -0.454741 -22.707392 0
M  V30 27 C 10.027185 -0.439096 -23.507725 0
M  V30 28 C 10.641846 -1.650439 -23.872948 0
M  V30 29 O 11.769784 -1.642115 -24.638487 0 CHG=-1
M  V30 30 C 10.094572 -2.874079 -23.445816 0
M  V30 31 C 8.944129 -2.895859 -22.634586 0
M  V30 32 O 8.483229 -4.121807 -22.214493 0
M  V30 33 C 7.281625 -4.227632 -21.551085 0
M  V30 34 C 6.789688 -5.521553 -21.277962 0
M  V30 35 C 5.570876 -5.696777 -20.594025 0
M  V30 36 O 5.114251 -6.955222 -20.325174 0
M  V30 37 C 4.830967 -4.574852 -20.181387 0
M  V30 38 C 5.315446 -3.281172 -20.449602 0
M  V30 39 C 6.540825 -3.094968 -21.134876 0
M  V30 40 C 8.151011 3.234428 -14.181492 0
M  V30 41 C 8.547739 4.483934 -13.675691 0
M  V30 42 C 9.621264 7.520567 -8.782844 0 CFG=1
M  V30 43 C 10.640500 6.424333 -8.423876 0
M  V30 44 C 10.665907 6.172727 -6.920960 0
M  V30 45 C 10.896173 7.439229 -6.117694 0
M  V30 46 C 11.423279 7.362463 -4.806252 0
M  V30 47 O 11.685905 6.172356 -4.210623 0
M  V30 48 C 11.685958 8.523480 -4.066011 0
M  V30 49 C 11.391456 9.772242 -4.619937 0
M  V30 50 C 10.885443 9.866987 -5.926136 0
M  V30 51 C 10.601704 8.707362 -6.678173 0
M  V30 52 C 10.041841 8.854380 -8.094272 0
M  V30 53 H 12.676770 6.764709 -13.028548 0
M  V30 54 H 11.020438 6.213461 -12.874065 0
M  V30 55 H 11.375299 7.772238 -13.628149 0
M  V30 56 H 12.336210 8.558270 -11.441237 0
M  V30 57 H 11.909739 7.063191 -10.704927 0
M  V30 58 H 9.687825 8.714855 -12.015702 0
M  V30 59 H 10.400367 9.371805 -10.629912 0
M  V30 60 H 8.119100 5.869579 -10.189301 0
M  V30 61 H 9.664698 5.662069 -10.982100 0
M  V30 62 H 8.810609 6.973050 -12.969550 0
M  V30 63 H 7.281747 7.200150 -12.196187 0
M  V30 64 H 5.761578 5.226341 -11.831455 0
M  V30 65 H 5.055402 3.036243 -12.730855 0
M  V30 66 H 5.777390 1.053352 -13.687824 0
M  V30 67 H 5.971764 -1.086455 -16.791525 0
M  V30 68 H 9.003213 -0.885958 -17.080217 0
M  V30 69 H 8.964542 -2.205336 -19.198204 0
M  V30 70 H 5.792239 1.618130 -18.574192 0
M  V30 71 H 8.410250 0.483578 -22.433638 0
M  V30 72 H 10.447799 0.498773 -23.839331 0
M  V30 73 H 10.569791 -3.800273 -23.731398 0
M  V30 74 H 7.354976 -6.387133 -21.594204 0
M  V30 75 H 4.305167 -6.956050 -19.834917 0
M  V30 76 H 3.894204 -4.696078 -19.654058 0
M  V30 77 H 4.739378 -2.429836 -20.115372 0
M  V30 78 H 8.832255 2.677769 -14.807915 0
M  V30 79 H 9.515420 4.878864 -13.942650 0
M  V30 80 H 8.680537 7.220335 -8.313981 0
M  V30 81 H 10.446697 5.478292 -8.927326 0
M  V30 82 H 11.638597 6.752000 -8.700819 0
M  V30 83 H 11.455358 5.454897 -6.707444 0
M  V30 84 H 9.705014 5.772326 -6.611300 0
M  V30 85 H 11.325299 5.422296 -4.663245 0
M  V30 86 H 12.073354 8.455445 -3.061383 0
M  V30 87 H 11.542409 10.649050 -4.018993 0
M  V30 88 H 10.687652 10.844948 -6.338618 0
M  V30 89 H 10.852395 9.346931 -8.627124 0
M  V30 90 H 9.194664 9.542837 -8.078530 0
M  V30 91 H 8.418196 8.158863 -10.242951 0
M  V30 END ATOM
M  V30 BEGIN BOND
M  V30 1 1 2 1
M  V30 2 1 3 2
M  V30 3 1 4 3
M  V30 4 1 5 4
M  V30 5 1 6 5
M  V30 6 1 7 6
M  V30 7 1 8 7
M  V30 8 2 9 8
M  V30 9 1 10 9
M  V30 10 1 11 10
M  V30 11 1 12 11
M  V30 12 1 13 12
M  V30 13 2 14 12
M  V30 14 1 15 14
M  V30 15 1 16 15
M  V30 16 2 17 16
M  V30 17 1 18 17
M  V30 18 2 19 18
M  V30 19 2 20 15
M  V30 20 1 20 19
M  V30 21 1 21 19
M  V30 22 2 22 21
M  V30 23 1 23 21
M  V30 24 1 24 18
M  V30 25 1 24 23 CFG=3
M  V30 26 1 25 24
M  V30 27 1 26 25
M  V30 28 2 27 26
M  V30 29 1 28 27
M  V30 30 1 29 28
M  V30 31 2 30 28
M  V30 32 2 31 25
M  V30 33 1 31 30
M  V30 34 1 32 31
M  V30 35 1 33 32
M  V30 36 1 34 33
M  V30 37 2 35 34
M  V30 38 1 36 35
M  V30 39 1 37 35
M  V30 40 2 38 37
M  V30 41 1 39 24
M  V30 42 2 39 33
M  V30 43 1 39 38
M  V30 44 2 40 10
M  V30 45 2 41 7
M  V30 46 1 41 40
M  V30 47 1 42 4
M  V30 48 1 43 42
M  V30 49 1 44 43
M  V30 50 1 45 44
M  V30 51 2 46 45
M  V30 52 1 47 46
M  V30 53 1 48 46
M  V30 54 2 49 48
M  V30 55 1 50 49
M  V30 56 1 51 45
M  V30 57 2 51 50
M  V30 58 1 52 42
M  V30 59 1 52 51
M  V30 60 1 53 1
M  V30 61 1 54 1
M  V30 62 1 55 1
M  V30 63 1 56 2
M  V30 64 1 57 2
M  V30 65 1 58 3
M  V30 66 1 59 3
M  V30 67 1 60 5
M  V30 68 1 61 5
M  V30 69 1 62 6
M  V30 70 1 63 6
M  V30 71 1 64 8
M  V30 72 1 65 9
M  V30 73 1 66 11
M  V30 74 1 67 13
M  V30 75 1 68 16
M  V30 76 1 69 17
M  V30 77 1 70 20
M  V30 78 1 71 26
M  V30 79 1 72 27
M  V30 80 1 73 30
M  V30 81 1 74 34
M  V30 82 1 75 36
M  V30 83 1 76 37
M  V30 84 1 77 38
M  V30 85 1 78 40
M  V30 86 1 79 41
M  V30 87 1 42 80 CFG=1
M  V30 88 1 81 43
M  V30 89 1 82 43
M  V30 90 1 83 44
M  V30 91 1 84 44
M  V30 92 1 85 47
M  V30 93 1 86 48
M  V30 94 1 87 49
M  V30 95 1 88 50
M  V30 96 1 89 52
M  V30 97 1 90 52
M  V30 98 1 4 91 CFG=1
M  V30 END BOND
M  V30 END CTAB
M  END
>  <b_m_subgroup_collapsed>  (751) 
0

>  <r_i_docking_score>  (751) 
-7.9066279045713097

>  <s_m_subgroup_title>  (751) 
glide-dock_SP_D22_pv

>  <s_m_subgroupid>  (751) 
glide-dock_SP_D22_pv

>  <Molecule ChEMBL ID>  (751) 
CHEMBL109897

>  <Standard Type>  (751) 
Ki

>  <Standard Value>  (751) 
4.8

>  <label>  (751) 
1

$$$$
CHEMBL540039
     RDKit          3D

  0  0  0  0  0  0  0  0  0  0999 V3000
M  V30 BEGIN CTAB
M  V30 COUNTS 49 52 0 0 1
M  V30 BEGIN ATOM
M  V30 1 C 6.085955 2.528122 -13.803882 0
M  V30 2 C 5.608128 3.552181 -12.965535 0
M  V30 3 C 6.472918 4.577130 -12.535734 0
M  V30 4 C 7.824981 4.582729 -12.948543 0
M  V30 5 C 8.745350 5.615547 -12.463783 0
M  V30 6 N 10.008029 5.778294 -12.883450 0 CHG=1
M  V30 7 C 10.670960 6.915447 -12.242750 0
M  V30 8 C 9.618812 7.416881 -11.246754 0 CFG=2
M  V30 9 C 10.025371 7.273139 -9.767170 0
M  V30 10 N 10.016463 8.600422 -9.167653 0
M  V30 11 C 9.069511 8.717427 -8.051517 0
M  V30 12 C 9.609855 8.047967 -6.775966 0
M  V30 13 N 10.884745 8.658098 -6.429701 0
M  V30 14 C 11.365800 8.409783 -5.140573 0
M  V30 15 C 11.682247 9.513179 -4.325679 0
M  V30 16 C 12.187490 9.321015 -3.027266 0
M  V30 17 C 12.382799 8.017909 -2.536039 0
M  V30 18 C 12.062715 6.909364 -3.343839 0
M  V30 19 C 11.556422 7.100604 -4.645861 0
M  V30 20 C 11.870724 8.485708 -7.488262 0
M  V30 21 C 11.348947 9.093801 -8.807950 0
M  V30 22 N 8.486013 6.545911 -11.533952 0
M  V30 23 C 8.288499 3.568834 -13.821799 0
M  V30 24 C 7.420249 2.546016 -14.248025 0
M  V30 25 H 5.425809 1.731244 -14.113572 0
M  V30 26 H 4.576583 3.545314 -12.647404 0
M  V30 27 H 6.090065 5.341100 -11.872437 0
M  V30 28 H 11.602948 6.609755 -11.772505 0
M  V30 29 H 10.903342 7.680019 -12.984268 0
M  V30 30 H 9.330813 8.442060 -11.486886 0
M  V30 31 H 9.333086 6.609887 -9.244899 0
M  V30 32 H 11.007089 6.809081 -9.668299 0
M  V30 33 H 8.889731 9.771494 -7.853251 0
M  V30 34 H 8.102718 8.294259 -8.319719 0
M  V30 35 H 8.894941 8.173968 -5.963947 0
M  V30 36 H 9.730823 6.974570 -6.925985 0
M  V30 37 H 11.535259 10.515290 -4.701580 0
M  V30 38 H 12.439959 10.173872 -2.412302 0
M  V30 39 H 12.775751 7.871317 -1.540764 0
M  V30 40 H 12.206552 5.907576 -2.965592 0
M  V30 41 H 11.319719 6.241404 -5.256787 0
M  V30 42 H 12.806725 8.971982 -7.208328 0
M  V30 43 H 12.084946 7.424193 -7.616474 0
M  V30 44 H 12.053182 8.917683 -9.621949 0
M  V30 45 H 11.284469 10.172030 -8.698422 0
M  V30 46 H 7.577362 6.750049 -11.102571 0
M  V30 47 H 9.315366 3.545027 -14.155318 0
M  V30 48 H 7.783283 1.762695 -14.897881 0
M  V30 49 H 10.447174 5.220306 -13.599995 0
M  V30 END ATOM
M  V30 BEGIN BOND
M  V30 1 2 2 1
M  V30 2 1 3 2
M  V30 3 2 4 3
M  V30 4 1 5 4
M  V30 5 2 6 5
M  V30 6 1 7 6
M  V30 7 1 8 7
M  V30 8 1 9 8
M  V30 9 1 10 9
M  V30 10 1 11 10
M  V30 11 1 12 11
M  V30 12 1 13 12
M  V30 13 1 14 13
M  V30 14 2 15 14
M  V30 15 1 16 15
M  V30 16 2 17 16
M  V30 17 1 18 17
M  V30 18 1 19 14
M  V30 19 2 19 18
M  V30 20 1 20 13
M  V30 21 1 21 10
M  V30 22 1 21 20
M  V30 23 1 22 5
M  V30 24 1 22 8
M  V30 25 1 23 4
M  V30 26 1 24 1
M  V30 27 2 24 23
M  V30 28 1 25 1
M  V30 29 1 26 2
M  V30 30 1 27 3
M  V30 31 1 28 7
M  V30 32 1 29 7
M  V30 33 1 8 30 CFG=3
M  V30 34 1 31 9
M  V30 35 1 32 9
M  V30 36 1 33 11
M  V30 37 1 34 11
M  V30 38 1 35 12
M  V30 39 1 36 12
M  V30 40 1 37 15
M  V30 41 1 38 16
M  V30 42 1 39 17
M  V30 43 1 40 18
M  V30 44 1 41 19
M  V30 45 1 42 20
M  V30 46 1 43 20
M  V30 47 1 44 21
M  V30 48 1 45 21
M  V30 49 1 46 22
M  V30 50 1 47 23
M  V30 51 1 48 24
M  V30 52 1 49 6
M  V30 END BOND
M  V30 END CTAB
M  END
>  <b_m_subgroup_collapsed>  (752) 
0

>  <r_i_docking_score>  (752) 
-7.9066110384934403

>  <s_m_subgroup_title>  (752) 
glide-dock_SP_D22_pv

>  <s_m_subgroupid>  (752) 
glide-dock_SP_D22_pv

>  <Molecule ChEMBL ID>  (752) 
CHEMBL540039

>  <Standard Type>  (752) 
Ki

>  <Standard Value>  (752) 
10000.0

>  <label>  (752) 
0

$$$$
CHEMBL391984
     RDKit          3D

  0  0  0  0  0  0  0  0  0  0999 V3000
M  V30 BEGIN CTAB
M  V30 COUNTS 51 54 0 0 1
M  V30 BEGIN ATOM
M  V30 1 C 6.981001 1.459270 -15.189323 0
M  V30 2 C 6.806010 2.536516 -14.160037 0
M  V30 3 N 5.685976 2.616654 -13.446803 0
M  V30 4 O 5.826362 3.708009 -12.569430 0
M  V30 5 C 7.059494 4.233935 -12.766006 0
M  V30 6 C 7.696383 3.559853 -13.750345 0
M  V30 7 C 9.072317 3.886315 -14.152960 0
M  V30 8 O 9.740746 3.237783 -14.952388 0
M  V30 9 C 9.630718 5.167171 -13.507219 0
M  V30 10 C 9.108441 5.450464 -12.066200 0 CFG=1
M  V30 11 C 9.655838 6.791578 -11.524811 0
M  V30 12 N 9.258627 7.090884 -10.122246 0 CFG=2 CHG=1
M  V30 13 C 9.650681 8.464025 -9.718238 0
M  V30 14 C 9.160551 8.814367 -8.297523 0
M  V30 15 C 9.533526 7.776771 -7.230281 0 CFG=2
M  V30 16 C 11.007140 7.883084 -6.828028 0
M  V30 17 O 11.893013 7.790195 -7.677133 0
M  V30 18 C 11.286974 8.076926 -5.392667 0
M  V30 19 C 11.286532 9.372175 -4.832034 0
M  V30 20 C 11.686007 9.554909 -3.492716 0
M  V30 21 C 12.086193 8.449785 -2.718465 0
M  V30 22 F 12.487378 8.632921 -1.442474 0
M  V30 23 C 12.080295 7.157214 -3.272246 0
M  V30 24 C 11.685990 6.972434 -4.610629 0
M  V30 25 C 9.168541 6.368859 -7.727396 0
M  V30 26 C 9.694900 6.065346 -9.137115 0
M  V30 27 C 7.562729 5.358122 -11.939593 0
M  V30 28 H 7.189419 1.886774 -16.168579 0
M  V30 29 H 7.811284 0.802420 -14.929967 0
M  V30 30 H 6.087250 0.840762 -15.279651 0
M  V30 31 H 9.361501 5.988736 -14.163044 0
M  V30 32 H 10.720660 5.110315 -13.507072 0
M  V30 33 H 9.525962 4.633544 -11.478068 0
M  V30 34 H 9.298789 7.598116 -12.168086 0
M  V30 35 H 10.745011 6.800756 -11.594059 0
M  V30 36 H 9.218628 9.175097 -10.422023 0
M  V30 37 H 10.732494 8.574026 -9.796142 0
M  V30 38 H 8.086094 8.952403 -8.297651 0
M  V30 39 H 9.565871 9.772289 -8.002912 0
M  V30 40 H 8.950652 7.986045 -6.331605 0
M  V30 41 H 11.007762 10.229572 -5.429441 0
M  V30 42 H 11.696556 10.541107 -3.053547 0
M  V30 43 H 12.388283 6.310557 -2.675919 0
M  V30 44 H 11.706907 5.980184 -5.038080 0
M  V30 45 H 9.559422 5.616825 -7.045199 0
M  V30 46 H 8.086056 6.253874 -7.707417 0
M  V30 47 H 9.314657 5.080745 -9.407645 0
M  V30 48 H 10.782623 5.990137 -9.142245 0
M  V30 49 H 7.274281 5.218184 -10.897136 0
M  V30 50 H 7.095449 6.284264 -12.275115 0
M  V30 51 H 8.239616 7.105937 -10.108687 0
M  V30 END ATOM
M  V30 BEGIN BOND
M  V30 1 1 2 1
M  V30 2 2 3 2
M  V30 3 1 4 3
M  V30 4 1 5 4
M  V30 5 1 6 2
M  V30 6 2 6 5
M  V30 7 1 7 6
M  V30 8 2 8 7
M  V30 9 1 9 7
M  V30 10 1 10 9
M  V30 11 1 11 10
M  V30 12 1 12 11
M  V30 13 1 13 12
M  V30 14 1 14 13
M  V30 15 1 15 14
M  V30 16 1 16 15
M  V30 17 2 17 16
M  V30 18 1 18 16
M  V30 19 1 19 18
M  V30 20 2 20 19
M  V30 21 1 21 20
M  V30 22 1 22 21
M  V30 23 2 23 21
M  V30 24 2 24 18
M  V30 25 1 24 23
M  V30 26 1 25 15
M  V30 27 1 26 12
M  V30 28 1 26 25
M  V30 29 1 27 5
M  V30 30 1 27 10
M  V30 31 1 28 1
M  V30 32 1 29 1
M  V30 33 1 30 1
M  V30 34 1 31 9
M  V30 35 1 32 9
M  V30 36 1 10 33 CFG=1
M  V30 37 1 34 11
M  V30 38 1 35 11
M  V30 39 1 36 13
M  V30 40 1 37 13
M  V30 41 1 38 14
M  V30 42 1 39 14
M  V30 43 1 15 40 CFG=1
M  V30 44 1 41 19
M  V30 45 1 42 20
M  V30 46 1 43 23
M  V30 47 1 44 24
M  V30 48 1 45 25
M  V30 49 1 46 25
M  V30 50 1 47 26
M  V30 51 1 48 26
M  V30 52 1 49 27
M  V30 53 1 50 27
M  V30 54 1 12 51 CFG=3
M  V30 END BOND
M  V30 END CTAB
M  END
>  <b_m_subgroup_collapsed>  (753) 
0

>  <r_i_docking_score>  (753) 
-7.9049594948103801

>  <s_m_subgroup_title>  (753) 
glide-dock_SP_D22_pv

>  <s_m_subgroupid>  (753) 
glide-dock_SP_D22_pv

>  <Molecule ChEMBL ID>  (753) 
CHEMBL391984

>  <Standard Type>  (753) 
Ki

>  <Standard Value>  (753) 
10000.0

>  <label>  (753) 
0

$$$$
CHEMBL282927
     RDKit          3D

  0  0  0  0  0  0  0  0  0  0999 V3000
M  V30 BEGIN CTAB
M  V30 COUNTS 57 60 0 0 1
M  V30 BEGIN ATOM
M  V30 1 N 11.685108 6.976208 -4.247142 0
M  V30 2 C 11.685994 8.273976 -4.555024 0
M  V30 3 O 12.376486 9.082527 -3.941026 0
M  V30 4 C 10.791820 8.738724 -5.716846 0 CFG=1
M  V30 5 C 11.601912 9.279382 -6.898145 0
M  V30 6 C 11.238035 8.338532 -8.030891 0
M  V30 7 C 9.841635 7.824552 -7.643130 0 CFG=1
M  V30 8 C 9.412568 6.456864 -8.237608 0
M  V30 9 N 8.886092 6.456438 -9.639877 0 CHG=1
M  V30 10 C 9.795035 7.136749 -10.598249 0
M  V30 11 C 9.367118 7.005482 -12.061696 0
M  V30 12 C 9.145759 5.556095 -12.476936 0
M  V30 13 C 9.740303 4.914379 -13.531095 0
M  V30 14 C 9.329333 3.555400 -13.955634 0
M  V30 15 C 7.980178 3.248519 -14.246072 0
M  V30 16 C 7.615477 1.968075 -14.705365 0
M  V30 17 C 8.601321 0.983253 -14.902492 0
M  V30 18 C 9.951371 1.286392 -14.647681 0
M  V30 19 C 10.311140 2.564646 -14.177791 0
M  V30 20 C 10.813623 5.512450 -14.372157 0
M  V30 21 C 11.912358 6.211462 -13.818561 0
M  V30 22 C 12.883487 6.806999 -14.647126 0
M  V30 23 C 12.802384 6.672860 -16.042976 0
M  V30 24 F 13.740119 7.242543 -16.835180 0
M  V30 25 C 11.740841 5.944767 -16.610270 0
M  V30 26 C 10.756434 5.372490 -15.781676 0
M  V30 27 C 8.114473 4.942425 -11.534616 0
M  V30 28 C 8.556260 5.064946 -10.062631 0
M  V30 29 O 10.032924 7.647143 -6.243233 0
M  V30 30 H 12.245905 6.640489 -3.479463 0
M  V30 31 H 11.088301 6.353099 -4.772750 0
M  V30 32 H 10.097970 9.505643 -5.365250 0
M  V30 33 H 11.286095 10.297769 -7.119337 0
M  V30 34 H 12.680207 9.307751 -6.728966 0
M  V30 35 H 11.949358 7.512587 -8.055226 0
M  V30 36 H 11.290404 8.855403 -8.986960 0
M  V30 37 H 9.075934 8.586263 -7.803715 0
M  V30 38 H 8.616935 6.056748 -7.607567 0
M  V30 39 H 10.244854 5.756099 -8.151310 0
M  V30 40 H 10.811230 6.753118 -10.480083 0
M  V30 41 H 9.804804 8.202507 -10.376489 0
M  V30 42 H 10.094944 7.542365 -12.654027 0
M  V30 43 H 8.425802 7.537881 -12.211282 0
M  V30 44 H 7.213706 3.999374 -14.120752 0
M  V30 45 H 6.579817 1.743468 -14.913039 0
M  V30 46 H 8.324243 -0.000408 -15.256857 0
M  V30 47 H 10.713516 0.536697 -14.804332 0
M  V30 48 H 11.353084 2.777448 -13.986762 0
M  V30 49 H 12.013258 6.309901 -12.748741 0
M  V30 50 H 13.687537 7.371136 -14.207583 0
M  V30 51 H 11.675426 5.838701 -17.682901 0
M  V30 52 H 9.937596 4.837515 -16.240068 0
M  V30 53 H 7.161893 5.456909 -11.677246 0
M  V30 54 H 7.931551 3.890995 -11.742833 0
M  V30 55 H 9.429288 4.428393 -9.908633 0
M  V30 56 H 7.767493 4.675920 -9.418187 0
M  V30 57 H 8.002551 6.971322 -9.658653 0
M  V30 END ATOM
M  V30 BEGIN BOND
M  V30 1 1 2 1
M  V30 2 2 3 2
M  V30 3 1 4 2
M  V30 4 1 5 4
M  V30 5 1 6 5
M  V30 6 1 7 6
M  V30 7 1 8 7
M  V30 8 1 9 8
M  V30 9 1 10 9
M  V30 10 1 11 10
M  V30 11 1 12 11
M  V30 12 2 13 12
M  V30 13 1 14 13
M  V30 14 2 15 14
M  V30 15 1 16 15
M  V30 16 2 17 16
M  V30 17 1 18 17
M  V30 18 1 19 14
M  V30 19 2 19 18
M  V30 20 1 20 13
M  V30 21 1 21 20
M  V30 22 2 22 21
M  V30 23 1 23 22
M  V30 24 1 24 23
M  V30 25 2 25 23
M  V30 26 2 26 20
M  V30 27 1 26 25
M  V30 28 1 27 12
M  V30 29 1 28 9
M  V30 30 1 28 27
M  V30 31 1 29 4
M  V30 32 1 29 7
M  V30 33 1 30 1
M  V30 34 1 31 1
M  V30 35 1 4 32 CFG=1
M  V30 36 1 33 5
M  V30 37 1 34 5
M  V30 38 1 35 6
M  V30 39 1 36 6
M  V30 40 1 7 37 CFG=1
M  V30 41 1 38 8
M  V30 42 1 39 8
M  V30 43 1 40 10
M  V30 44 1 41 10
M  V30 45 1 42 11
M  V30 46 1 43 11
M  V30 47 1 44 15
M  V30 48 1 45 16
M  V30 49 1 46 17
M  V30 50 1 47 18
M  V30 51 1 48 19
M  V30 52 1 49 21
M  V30 53 1 50 22
M  V30 54 1 51 25
M  V30 55 1 52 26
M  V30 56 1 53 27
M  V30 57 1 54 27
M  V30 58 1 55 28
M  V30 59 1 56 28
M  V30 60 1 57 9
M  V30 END BOND
M  V30 END CTAB
M  END
>  <b_m_subgroup_collapsed>  (754) 
0

>  <r_i_docking_score>  (754) 
-7.9034623473878796

>  <s_m_subgroup_title>  (754) 
glide-dock_SP_D22_pv

>  <s_m_subgroupid>  (754) 
glide-dock_SP_D22_pv

>  <Molecule ChEMBL ID>  (754) 
CHEMBL282927

>  <Standard Type>  (754) 
Ki

>  <Standard Value>  (754) 
100.0

>  <label>  (754) 
1

$$$$
CHEMBL554693
     RDKit          3D

  0  0  0  0  0  0  0  0  0  0999 V3000
M  V30 BEGIN CTAB
M  V30 COUNTS 58 60 0 0 1
M  V30 BEGIN ATOM
M  V30 1 C 12.326058 6.172334 -2.549496 0
M  V30 2 O 12.450442 7.368196 -3.290014 0
M  V30 3 C 11.686029 7.550264 -4.425602 0
M  V30 4 C 10.912790 6.572321 -5.046885 0
M  V30 5 C 10.192907 6.830898 -6.224551 0
M  V30 6 C 10.253352 8.093748 -6.841521 0
M  V30 7 C 9.513652 8.344304 -8.154421 0
M  V30 8 C 9.573448 7.133227 -9.126389 0
M  V30 9 N 8.886023 7.309808 -10.434395 0 CFG=1 CHG=1
M  V30 10 C 9.415622 8.449462 -11.215888 0
M  V30 11 C 8.869632 6.042800 -11.207117 0
M  V30 12 C 7.800686 6.022964 -12.323545 0
M  V30 13 N 7.811267 4.769831 -13.076612 0
M  V30 14 C 6.598701 3.992778 -13.229708 0
M  V30 15 C 7.058208 2.829526 -14.102783 0
M  V30 16 N 8.455983 3.139379 -14.389253 0
M  V30 17 C 9.283609 2.285525 -15.183180 0
M  V30 18 C 9.058341 0.889118 -15.182195 0
M  V30 19 C 9.859440 0.035826 -15.963214 0
M  V30 20 C 10.886079 0.563715 -16.764791 0
M  V30 21 C 11.120896 1.949254 -16.778351 0
M  V30 22 Cl 12.386380 2.598620 -17.754684 0
M  V30 23 C 10.322028 2.805280 -15.997092 0
M  V30 24 C 8.843915 4.275485 -13.777162 0
M  V30 25 O 9.959383 4.793819 -13.833004 0
M  V30 26 C 11.006593 9.107650 -6.206120 0
M  V30 27 C 11.686245 8.822179 -4.998011 0
M  V30 28 O 12.347843 9.772326 -4.302612 0
M  V30 29 C 11.610524 10.172338 -3.151692 0
M  V30 30 H 12.796050 6.305411 -1.575973 0
M  V30 31 H 11.286188 5.895247 -2.378499 0
M  V30 32 H 12.862959 5.372324 -3.046885 0
M  V30 33 H 10.886013 5.586522 -4.627885 0
M  V30 34 H 9.606561 6.027698 -6.639730 0
M  V30 35 H 9.954643 9.229090 -8.611644 0
M  V30 36 H 8.477502 8.591869 -7.923208 0
M  V30 37 H 9.096146 6.277596 -8.651837 0
M  V30 38 H 10.614118 6.857073 -9.305714 0
M  V30 39 H 10.487078 8.347508 -11.390710 0
M  V30 40 H 8.920873 8.562437 -12.178776 0
M  V30 41 H 9.233343 9.372323 -10.676027 0
M  V30 42 H 8.653069 5.208231 -10.538017 0
M  V30 43 H 9.873940 5.870567 -11.593375 0
M  V30 44 H 7.947253 6.830784 -13.039041 0
M  V30 45 H 6.812470 6.172391 -11.884898 0
M  V30 46 H 6.228842 3.654976 -12.260225 0
M  V30 47 H 5.820695 4.581233 -13.718422 0
M  V30 48 H 6.486031 2.772107 -15.029448 0
M  V30 49 H 6.943876 1.885907 -13.570024 0
M  V30 50 H 8.282773 0.448114 -14.574656 0
M  V30 51 H 9.686057 -1.028070 -15.944970 0
M  V30 52 H 11.499357 -0.094293 -17.362856 0
M  V30 53 H 10.515343 3.866312 -16.045528 0
M  V30 54 H 11.051629 10.102804 -6.623525 0
M  V30 55 H 12.086026 11.004379 -2.646863 0
M  V30 56 H 10.614810 10.505181 -3.446861 0
M  V30 57 H 11.498461 9.386660 -2.405865 0
M  V30 58 H 7.893934 7.522988 -10.246861 0
M  V30 END ATOM
M  V30 BEGIN BOND
M  V30 1 1 2 1
M  V30 2 1 3 2
M  V30 3 1 4 3
M  V30 4 2 5 4
M  V30 5 1 6 5
M  V30 6 1 7 6
M  V30 7 1 8 7
M  V30 8 1 9 8
M  V30 9 1 10 9
M  V30 10 1 11 9
M  V30 11 1 12 11
M  V30 12 1 13 12
M  V30 13 1 14 13
M  V30 14 1 15 14
M  V30 15 1 16 15
M  V30 16 1 17 16
M  V30 17 2 18 17
M  V30 18 1 19 18
M  V30 19 2 20 19
M  V30 20 1 21 20
M  V30 21 1 22 21
M  V30 22 1 23 17
M  V30 23 2 23 21
M  V30 24 1 24 13
M  V30 25 1 24 16
M  V30 26 2 25 24
M  V30 27 2 26 6
M  V30 28 2 27 3
M  V30 29 1 27 26
M  V30 30 1 28 27
M  V30 31 1 29 28
M  V30 32 1 30 1
M  V30 33 1 31 1
M  V30 34 1 32 1
M  V30 35 1 33 4
M  V30 36 1 34 5
M  V30 37 1 35 7
M  V30 38 1 36 7
M  V30 39 1 37 8
M  V30 40 1 38 8
M  V30 41 1 39 10
M  V30 42 1 40 10
M  V30 43 1 41 10
M  V30 44 1 42 11
M  V30 45 1 43 11
M  V30 46 1 44 12
M  V30 47 1 45 12
M  V30 48 1 46 14
M  V30 49 1 47 14
M  V30 50 1 48 15
M  V30 51 1 49 15
M  V30 52 1 50 18
M  V30 53 1 51 19
M  V30 54 1 52 20
M  V30 55 1 53 23
M  V30 56 1 54 26
M  V30 57 1 55 29
M  V30 58 1 56 29
M  V30 59 1 57 29
M  V30 60 1 9 58 CFG=1
M  V30 END BOND
M  V30 END CTAB
M  END
>  <b_m_subgroup_collapsed>  (755) 
0

>  <r_i_docking_score>  (755) 
-7.90040068062748

>  <s_m_subgroup_title>  (755) 
glide-dock_SP_D22_pv

>  <s_m_subgroupid>  (755) 
glide-dock_SP_D22_pv

>  <Molecule ChEMBL ID>  (755) 
CHEMBL554693

>  <Standard Type>  (755) 
Ki

>  <Standard Value>  (755) 
100.0

>  <label>  (755) 
1

$$$$
CHEMBL283142
     RDKit          3D

  0  0  0  0  0  0  0  0  0  0999 V3000
M  V30 BEGIN CTAB
M  V30 COUNTS 55 56 0 0 1
M  V30 BEGIN ATOM
M  V30 1 C 8.673614 1.329367 -16.830936 0
M  V30 2 C 9.196482 1.327530 -15.375445 0
M  V30 3 C 10.486687 0.486052 -15.307103 0
M  V30 4 C 8.115712 0.697671 -14.470022 0
M  V30 5 C 9.505877 2.774546 -14.918826 0
M  V30 6 O 9.559205 3.696928 -15.734147 0
M  V30 7 N 9.705151 2.970461 -13.607750 0
M  V30 8 C 9.974766 4.249801 -12.967288 0
M  V30 9 C 8.690119 5.090738 -12.798637 0
M  V30 10 C 8.835913 6.225883 -11.767156 0
M  V30 11 C 8.814281 5.683823 -10.322743 0
M  V30 12 N 8.992222 6.714306 -9.267665 0 CHG=1
M  V30 13 C 10.329809 7.381175 -9.323238 0
M  V30 14 C 10.597261 8.331945 -8.137915 0
M  V30 15 N 10.297854 7.670303 -6.875513 0
M  V30 16 C 11.040768 7.863000 -5.686349 0
M  V30 17 C 11.285390 6.736209 -4.870725 0
M  V30 18 C 11.952882 6.837521 -3.636100 0
M  V30 19 C 12.405147 8.086897 -3.192403 0
M  V30 20 C 12.193772 9.217861 -3.995423 0
M  V30 21 C 11.525348 9.118815 -5.233853 0
M  V30 22 Cl 11.288114 10.572188 -6.122413 0
M  V30 23 C 8.968443 7.088984 -6.776702 0
M  V30 24 C 8.717537 6.117263 -7.932907 0
M  V30 25 H 7.769129 1.932832 -16.928450 0
M  V30 26 H 9.415063 1.731032 -17.524315 0
M  V30 27 H 8.430979 0.319899 -17.165977 0
M  V30 28 H 10.880940 0.428905 -14.291854 0
M  V30 29 H 10.307699 -0.536631 -15.643208 0
M  V30 30 H 11.272329 0.905855 -15.937293 0
M  V30 31 H 7.225590 1.325691 -14.410410 0
M  V30 32 H 7.801418 -0.274550 -14.851094 0
M  V30 33 H 8.478665 0.536572 -13.454951 0
M  V30 34 H 9.685576 2.154651 -13.004709 0
M  V30 35 H 10.728218 4.802809 -13.526560 0
M  V30 36 H 10.416528 4.013546 -12.002985 0
M  V30 37 H 7.852744 4.452154 -12.510245 0
M  V30 38 H 8.423646 5.517514 -13.766004 0
M  V30 39 H 8.011753 6.931193 -11.890655 0
M  V30 40 H 9.750544 6.778183 -11.986054 0
M  V30 41 H 9.577495 4.919877 -10.181760 0
M  V30 42 H 7.853479 5.186336 -10.167844 0
M  V30 43 H 10.432712 7.945212 -10.248128 0
M  V30 44 H 11.102682 6.611396 -9.334954 0
M  V30 45 H 9.965240 9.216148 -8.229677 0
M  V30 46 H 11.635798 8.667856 -8.160975 0
M  V30 47 H 10.930640 5.772304 -5.190421 0
M  V30 48 H 12.109768 5.957930 -3.031087 0
M  V30 49 H 12.909833 8.181729 -2.243839 0
M  V30 50 H 12.544911 10.172065 -3.642133 0
M  V30 51 H 8.859425 6.542899 -5.846488 0
M  V30 52 H 8.222545 7.887164 -6.777811 0
M  V30 53 H 7.686931 5.770282 -7.889439 0
M  V30 54 H 9.350834 5.237731 -7.801262 0
M  V30 55 H 8.265488 7.410306 -9.422221 0
M  V30 END ATOM
M  V30 BEGIN BOND
M  V30 1 1 2 1
M  V30 2 1 3 2
M  V30 3 1 4 2
M  V30 4 1 5 2
M  V30 5 2 6 5
M  V30 6 1 7 5
M  V30 7 1 8 7
M  V30 8 1 9 8
M  V30 9 1 10 9
M  V30 10 1 11 10
M  V30 11 1 12 11
M  V30 12 1 13 12
M  V30 13 1 14 13
M  V30 14 1 15 14
M  V30 15 1 16 15
M  V30 16 2 17 16
M  V30 17 1 18 17
M  V30 18 2 19 18
M  V30 19 1 20 19
M  V30 20 1 21 16
M  V30 21 2 21 20
M  V30 22 1 22 21
M  V30 23 1 23 15
M  V30 24 1 24 12
M  V30 25 1 24 23
M  V30 26 1 25 1
M  V30 27 1 26 1
M  V30 28 1 27 1
M  V30 29 1 28 3
M  V30 30 1 29 3
M  V30 31 1 30 3
M  V30 32 1 31 4
M  V30 33 1 32 4
M  V30 34 1 33 4
M  V30 35 1 34 7
M  V30 36 1 35 8
M  V30 37 1 36 8
M  V30 38 1 37 9
M  V30 39 1 38 9
M  V30 40 1 39 10
M  V30 41 1 40 10
M  V30 42 1 41 11
M  V30 43 1 42 11
M  V30 44 1 43 13
M  V30 45 1 44 13
M  V30 46 1 45 14
M  V30 47 1 46 14
M  V30 48 1 47 17
M  V30 49 1 48 18
M  V30 50 1 49 19
M  V30 51 1 50 20
M  V30 52 1 51 23
M  V30 53 1 52 23
M  V30 54 1 53 24
M  V30 55 1 54 24
M  V30 56 1 55 12
M  V30 END BOND
M  V30 END CTAB
M  END
>  <b_m_subgroup_collapsed>  (756) 
0

>  <r_i_docking_score>  (756) 
-7.8996972234811702

>  <s_m_subgroup_title>  (756) 
glide-dock_SP_D22_pv

>  <s_m_subgroupid>  (756) 
glide-dock_SP_D22_pv

>  <Molecule ChEMBL ID>  (756) 
CHEMBL283142

>  <Standard Type>  (756) 
Ki

>  <Standard Value>  (756) 
63.1

>  <label>  (756) 
1

$$$$
CHEMBL4072821
     RDKit          3D

  0  0  0  0  0  0  0  0  0  0999 V3000
M  V30 BEGIN CTAB
M  V30 COUNTS 66 69 0 0 1
M  V30 BEGIN ATOM
M  V30 1 C 15.781842 -0.545892 -20.107737 0
M  V30 2 C 14.269484 -0.781080 -20.042233 0
M  V30 3 O 13.667016 0.242896 -19.263100 0
M  V30 4 C 12.484967 0.023043 -18.647051 0
M  V30 5 O 11.851322 -1.027172 -18.764206 0
M  V30 6 C 12.070477 1.122455 -17.778759 0
M  V30 7 C 11.053646 0.971006 -16.795263 0
M  V30 8 C 11.002129 2.167937 -16.140026 0
M  V30 9 C 10.263357 2.695541 -15.051558 0
M  V30 10 C 10.469867 4.006571 -14.649486 0
M  V30 11 O 9.789152 4.608241 -13.610076 0
M  V30 12 C 8.924302 3.790113 -12.831783 0
M  V30 13 C 8.261974 4.588608 -11.704785 0
M  V30 14 C 9.265444 5.097866 -10.661470 0
M  V30 15 C 8.569919 5.660668 -9.409534 0
M  V30 16 N 9.455440 6.576165 -8.645767 0 CHG=1
M  V30 17 C 10.442011 5.827088 -7.849311 0
M  V30 18 C 11.491683 6.760608 -7.245398 0
M  V30 19 N 10.822069 7.756403 -6.420723 0
M  V30 20 C 11.285693 8.041174 -5.117320 0
M  V30 21 C 11.686019 6.971493 -4.279570 0
M  V30 22 C 12.086886 7.192533 -2.950048 0
M  V30 23 C 12.105852 8.498469 -2.436222 0
M  V30 24 C 11.715568 9.572556 -3.252538 0
M  V30 25 C 11.313079 9.362104 -4.586153 0
M  V30 26 O 10.958286 10.467876 -5.315779 0
M  V30 27 C 11.929992 10.828712 -6.281577 0
M  V30 28 C 9.696275 8.478292 -7.014104 0
M  V30 29 C 8.736264 7.547953 -7.780160 0
M  V30 30 C 11.429769 4.797291 -15.335013 0
M  V30 31 C 12.160638 4.283962 -16.383915 0
M  V30 32 N 11.944247 2.997540 -16.768476 0
M  V30 33 N 12.585866 2.338892 -17.786444 0
M  V30 34 H 16.265551 -1.320112 -20.703928 0
M  V30 35 H 16.013237 0.419500 -20.557505 0
M  V30 36 H 16.224884 -0.570326 -19.111952 0
M  V30 37 H 14.080307 -1.764314 -19.608067 0
M  V30 38 H 13.837406 -0.775987 -21.043163 0
M  V30 39 H 10.477676 0.079999 -16.591482 0
M  V30 40 H 9.549678 2.038646 -14.568336 0
M  V30 41 H 9.501104 2.972206 -12.401917 0
M  V30 42 H 8.140986 3.367645 -13.462474 0
M  V30 43 H 7.524684 3.952823 -11.213797 0
M  V30 44 H 7.703995 5.427655 -12.123885 0
M  V30 45 H 9.885200 5.865751 -11.126172 0
M  V30 46 H 9.936671 4.287712 -10.375971 0
M  V30 47 H 8.208344 4.853382 -8.770515 0
M  V30 48 H 7.680189 6.172381 -9.737159 0
M  V30 49 H 10.886007 5.025164 -8.430071 0
M  V30 50 H 9.879372 5.372291 -7.046399 0
M  V30 51 H 12.045765 7.276560 -8.030379 0
M  V30 52 H 12.218557 6.171770 -6.687562 0
M  V30 53 H 11.644753 5.952281 -4.632601 0
M  V30 54 H 12.369515 6.356850 -2.325698 0
M  V30 55 H 12.407059 8.678829 -1.415180 0
M  V30 56 H 11.726614 10.572379 -2.847700 0
M  V30 57 H 11.685970 11.771350 -6.765971 0
M  V30 58 H 12.906652 10.967902 -5.846858 0
M  V30 59 H 12.036569 10.065439 -7.046834 0
M  V30 60 H 9.120587 8.986853 -6.245591 0
M  V30 61 H 10.077528 9.239594 -7.693832 0
M  V30 62 H 8.091256 8.179049 -8.383642 0
M  V30 63 H 8.096559 7.012234 -7.075126 0
M  V30 64 H 11.597145 5.824080 -15.025617 0
M  V30 65 H 12.909715 4.846649 -16.931541 0
M  V30 66 H 9.956339 7.127211 -9.326718 0
M  V30 END ATOM
M  V30 BEGIN BOND
M  V30 1 1 2 1
M  V30 2 1 3 2
M  V30 3 1 4 3
M  V30 4 2 5 4
M  V30 5 1 6 4
M  V30 6 1 7 6
M  V30 7 2 8 7
M  V30 8 1 9 8
M  V30 9 2 10 9
M  V30 10 1 11 10
M  V30 11 1 12 11
M  V30 12 1 13 12
M  V30 13 1 14 13
M  V30 14 1 15 14
M  V30 15 1 16 15
M  V30 16 1 17 16
M  V30 17 1 18 17
M  V30 18 1 19 18
M  V30 19 1 20 19
M  V30 20 2 21 20
M  V30 21 1 22 21
M  V30 22 2 23 22
M  V30 23 1 24 23
M  V30 24 1 25 20
M  V30 25 2 25 24
M  V30 26 1 26 25
M  V30 27 1 27 26
M  V30 28 1 28 19
M  V30 29 1 29 16
M  V30 30 1 29 28
M  V30 31 1 30 10
M  V30 32 2 31 30
M  V30 33 1 32 8
M  V30 34 1 32 31
M  V30 35 2 33 6
M  V30 36 1 33 32
M  V30 37 1 34 1
M  V30 38 1 35 1
M  V30 39 1 36 1
M  V30 40 1 37 2
M  V30 41 1 38 2
M  V30 42 1 39 7
M  V30 43 1 40 9
M  V30 44 1 41 12
M  V30 45 1 42 12
M  V30 46 1 43 13
M  V30 47 1 44 13
M  V30 48 1 45 14
M  V30 49 1 46 14
M  V30 50 1 47 15
M  V30 51 1 48 15
M  V30 52 1 49 17
M  V30 53 1 50 17
M  V30 54 1 51 18
M  V30 55 1 52 18
M  V30 56 1 53 21
M  V30 57 1 54 22
M  V30 58 1 55 23
M  V30 59 1 56 24
M  V30 60 1 57 27
M  V30 61 1 58 27
M  V30 62 1 59 27
M  V30 63 1 60 28
M  V30 64 1 61 28
M  V30 65 1 62 29
M  V30 66 1 63 29
M  V30 67 1 64 30
M  V30 68 1 65 31
M  V30 69 1 66 16
M  V30 END BOND
M  V30 END CTAB
M  END
>  <b_m_subgroup_collapsed>  (757) 
0

>  <r_i_docking_score>  (757) 
-7.8992203401374796

>  <s_m_subgroup_title>  (757) 
glide-dock_SP_D22_pv

>  <s_m_subgroupid>  (757) 
glide-dock_SP_D22_pv

>  <Molecule ChEMBL ID>  (757) 
CHEMBL4072821

>  <Standard Type>  (757) 
Ki

>  <Standard Value>  (757) 
7.4

>  <label>  (757) 
1

$$$$
CHEMBL5817080
     RDKit          3D

  0  0  0  0  0  0  0  0  0  0999 V3000
M  V30 BEGIN CTAB
M  V30 COUNTS 54 55 0 0 1
M  V30 BEGIN ATOM
M  V30 1 C 6.957506 0.525657 -15.515382 0
M  V30 2 O 7.977020 1.455378 -15.835087 0
M  V30 3 C 8.358941 2.260797 -14.728884 0
M  V30 4 C 9.701845 2.977435 -15.022726 0
M  V30 5 C 10.780044 1.899237 -15.292948 0
M  V30 6 C 9.573955 3.895264 -16.254906 0
M  V30 7 C 10.170930 3.855666 -13.836293 0
M  V30 8 O 11.333160 4.264038 -13.820825 0
M  V30 9 N 9.302860 4.158184 -12.850313 0
M  V30 10 C 9.680357 4.879376 -11.638145 0
M  V30 11 C 8.506867 5.654054 -10.993422 0
M  V30 12 N 8.886101 6.413569 -9.766701 0 CFG=1 CHG=1
M  V30 13 C 9.075922 5.557596 -8.562429 0
M  V30 14 C 9.719776 6.295187 -7.394789 0
M  V30 15 C 10.245867 7.530293 -7.439012 0
M  V30 16 C 10.842710 8.163789 -6.229774 0
M  V30 17 C 10.882938 9.568771 -6.208409 0
M  V30 18 C 11.286362 10.210572 -5.040110 0
M  V30 19 C 11.698091 9.445160 -3.937399 0
M  V30 20 C 11.677691 8.034101 -4.033230 0
M  V30 21 C 11.986847 7.188422 -2.782033 0
M  V30 22 F 12.489875 7.970192 -1.829648 0
M  V30 23 F 10.924264 6.572938 -2.253489 0
M  V30 24 F 12.885968 6.258785 -3.046819 0
M  V30 25 N 11.240429 7.404781 -5.163714 0
M  V30 26 C 10.193719 8.288786 -8.762041 0
M  V30 27 C 9.998202 7.372502 -9.976135 0
M  V30 28 H 6.647962 -0.004935 -16.415737 0
M  V30 29 H 7.313015 -0.214362 -14.798667 0
M  V30 30 H 6.084146 1.026526 -15.098577 0
M  V30 31 H 8.473532 1.628887 -13.846107 0
M  V30 32 H 7.558852 2.973617 -14.521446 0
M  V30 33 H 10.523008 1.281620 -16.152895 0
M  V30 34 H 11.757481 2.334742 -15.502309 0
M  V30 35 H 10.893947 1.231950 -14.437157 0
M  V30 36 H 9.196297 3.351845 -17.122116 0
M  V30 37 H 8.897579 4.727583 -16.061560 0
M  V30 38 H 10.537581 4.322868 -16.537975 0
M  V30 39 H 8.355478 3.813832 -12.915222 0
M  V30 40 H 10.483360 5.574642 -11.885494 0
M  V30 41 H 10.086253 4.148593 -10.939852 0
M  V30 42 H 7.685180 4.976318 -10.750619 0
M  V30 43 H 8.102328 6.364970 -11.716148 0
M  V30 44 H 9.708639 4.699532 -8.789559 0
M  V30 45 H 8.106570 5.168199 -8.248016 0
M  V30 46 H 9.738907 5.772923 -6.455700 0
M  V30 47 H 10.563474 10.171796 -7.045529 0
M  V30 48 H 11.285702 11.289351 -5.015521 0
M  V30 49 H 12.001781 9.948048 -3.029445 0
M  V30 50 H 9.398386 9.034846 -8.711700 0
M  V30 51 H 11.133144 8.826313 -8.903116 0
M  V30 52 H 9.813467 7.976554 -10.865396 0
M  V30 53 H 10.928466 6.829531 -10.143225 0
M  V30 54 H 8.055592 6.976122 -9.575522 0
M  V30 END ATOM
M  V30 BEGIN BOND
M  V30 1 1 2 1
M  V30 2 1 3 2
M  V30 3 1 4 3
M  V30 4 1 5 4
M  V30 5 1 6 4
M  V30 6 1 7 4
M  V30 7 2 8 7
M  V30 8 1 9 7
M  V30 9 1 10 9
M  V30 10 1 11 10
M  V30 11 1 12 11
M  V30 12 1 13 12
M  V30 13 1 14 13
M  V30 14 2 15 14
M  V30 15 1 16 15
M  V30 16 1 17 16
M  V30 17 2 18 17
M  V30 18 1 19 18
M  V30 19 2 20 19
M  V30 20 1 21 20
M  V30 21 1 22 21
M  V30 22 1 23 21
M  V30 23 1 24 21
M  V30 24 2 25 16
M  V30 25 1 25 20
M  V30 26 1 26 15
M  V30 27 1 27 12
M  V30 28 1 27 26
M  V30 29 1 28 1
M  V30 30 1 29 1
M  V30 31 1 30 1
M  V30 32 1 31 3
M  V30 33 1 32 3
M  V30 34 1 33 5
M  V30 35 1 34 5
M  V30 36 1 35 5
M  V30 37 1 36 6
M  V30 38 1 37 6
M  V30 39 1 38 6
M  V30 40 1 39 9
M  V30 41 1 40 10
M  V30 42 1 41 10
M  V30 43 1 42 11
M  V30 44 1 43 11
M  V30 45 1 44 13
M  V30 46 1 45 13
M  V30 47 1 46 14
M  V30 48 1 47 17
M  V30 49 1 48 18
M  V30 50 1 49 19
M  V30 51 1 50 26
M  V30 52 1 51 26
M  V30 53 1 52 27
M  V30 54 1 53 27
M  V30 55 1 12 54 CFG=1
M  V30 END BOND
M  V30 END CTAB
M  END
>  <b_m_subgroup_collapsed>  (758) 
0

>  <r_i_docking_score>  (758) 
-7.8984145170679803

>  <s_m_subgroup_title>  (758) 
glide-dock_SP_D22_pv

>  <s_m_subgroupid>  (758) 
glide-dock_SP_D22_pv

>  <Molecule ChEMBL ID>  (758) 
CHEMBL5817080

>  <Standard Type>  (758) 
Ki

>  <Standard Value>  (758) 
21.0

>  <label>  (758) 
1

$$$$
CHEMBL542942
     RDKit          3D

  0  0  0  0  0  0  0  0  0  0999 V3000
M  V30 BEGIN CTAB
M  V30 COUNTS 52 55 0 0 1
M  V30 BEGIN ATOM
M  V30 1 O 10.773587 5.734371 -13.359822 0
M  V30 2 C 9.865551 4.958057 -12.599423 0 CFG=2
M  V30 3 C 9.347357 3.806896 -13.465450 0
M  V30 4 C 10.265863 2.835893 -13.917457 0
M  V30 5 C 9.838063 1.740247 -14.691163 0
M  V30 6 C 8.481275 1.611771 -15.035907 0
M  V30 7 C 7.557894 2.587609 -14.614767 0
M  V30 8 C 7.986457 3.691572 -13.844448 0
M  V30 9 C 6.975698 4.741907 -13.431122 0
M  V30 10 C 7.637364 6.064749 -12.998137 0
M  V30 11 C 8.756529 5.866132 -11.957879 0 CFG=2
M  V30 12 C 9.272257 7.267007 -11.509335 0
M  V30 13 C 10.078059 7.263620 -10.194423 0
M  V30 14 N 9.311007 6.641452 -9.081149 0 CFG=2 CHG=1
M  V30 15 C 10.008881 6.682451 -7.763700 0
M  V30 16 C 10.213085 8.098632 -7.177604 0
M  V30 17 C 10.885047 8.142947 -5.803388 0
M  V30 18 C 11.099348 9.397702 -5.192200 0
M  V30 19 C 11.685018 9.480988 -3.912037 0
M  V30 20 C 12.086260 8.312973 -3.238541 0
M  V30 21 C 11.886485 7.058405 -3.841016 0
M  V30 22 C 11.286470 6.972787 -5.114607 0
M  V30 23 C 8.950709 5.248143 -9.434164 0
M  V30 24 C 8.109246 5.206454 -10.712714 0
M  V30 25 H 11.125993 6.422633 -12.819431 0
M  V30 26 H 10.456984 4.498868 -11.809141 0
M  V30 27 H 11.311029 2.922165 -13.662035 0
M  V30 28 H 10.551779 0.997506 -15.017634 0
M  V30 29 H 8.148412 0.770065 -15.626873 0
M  V30 30 H 6.519795 2.494406 -14.896309 0
M  V30 31 H 6.275872 4.910430 -14.245256 0
M  V30 32 H 6.368288 4.334219 -12.621463 0
M  V30 33 H 8.085799 6.567912 -13.851240 0
M  V30 34 H 6.866491 6.740902 -12.623179 0
M  V30 35 H 9.846644 7.761589 -12.289206 0
M  V30 36 H 8.421283 7.931473 -11.368918 0
M  V30 37 H 10.327770 8.294281 -9.948401 0
M  V30 38 H 11.021530 6.735979 -10.329624 0
M  V30 39 H 9.415975 6.110776 -7.048977 0
M  V30 40 H 10.968865 6.172543 -7.857112 0
M  V30 41 H 10.827127 8.704533 -7.844075 0
M  V30 42 H 9.248337 8.601458 -7.097225 0
M  V30 43 H 10.795707 10.304145 -5.695895 0
M  V30 44 H 11.813928 10.441861 -3.436542 0
M  V30 45 H 12.536190 8.380117 -2.258682 0
M  V30 46 H 12.183176 6.159093 -3.322049 0
M  V30 47 H 11.142459 5.991236 -5.536019 0
M  V30 48 H 8.368423 4.805897 -8.623739 0
M  V30 49 H 9.849302 4.638456 -9.540728 0
M  V30 50 H 7.184123 5.739056 -10.505787 0
M  V30 51 H 7.830795 4.172382 -10.911624 0
M  V30 52 H 8.433035 7.143132 -8.989798 0
M  V30 END ATOM
M  V30 BEGIN BOND
M  V30 1 1 2 1
M  V30 2 1 3 2
M  V30 3 2 4 3
M  V30 4 1 5 4
M  V30 5 2 6 5
M  V30 6 1 7 6
M  V30 7 1 8 3
M  V30 8 2 8 7
M  V30 9 1 9 8
M  V30 10 1 10 9
M  V30 11 1 11 2
M  V30 12 1 11 10 CFG=3
M  V30 13 1 12 11
M  V30 14 1 13 12
M  V30 15 1 14 13
M  V30 16 1 15 14
M  V30 17 1 16 15
M  V30 18 1 17 16
M  V30 19 2 18 17
M  V30 20 1 19 18
M  V30 21 2 20 19
M  V30 22 1 21 20
M  V30 23 1 22 17
M  V30 24 2 22 21
M  V30 25 1 23 14
M  V30 26 1 24 11
M  V30 27 1 24 23
M  V30 28 1 25 1
M  V30 29 1 2 26 CFG=1
M  V30 30 1 27 4
M  V30 31 1 28 5
M  V30 32 1 29 6
M  V30 33 1 30 7
M  V30 34 1 31 9
M  V30 35 1 32 9
M  V30 36 1 33 10
M  V30 37 1 34 10
M  V30 38 1 35 12
M  V30 39 1 36 12
M  V30 40 1 37 13
M  V30 41 1 38 13
M  V30 42 1 39 15
M  V30 43 1 40 15
M  V30 44 1 41 16
M  V30 45 1 42 16
M  V30 46 1 43 18
M  V30 47 1 44 19
M  V30 48 1 45 20
M  V30 49 1 46 21
M  V30 50 1 47 22
M  V30 51 1 48 23
M  V30 52 1 49 23
M  V30 53 1 50 24
M  V30 54 1 51 24
M  V30 55 1 14 52 CFG=1
M  V30 END BOND
M  V30 END CTAB
M  END
>  <b_m_subgroup_collapsed>  (759) 
0

>  <r_i_docking_score>  (759) 
-7.8938749475659797

>  <s_m_subgroup_title>  (759) 
glide-dock_SP_D22_pv

>  <s_m_subgroupid>  (759) 
glide-dock_SP_D22_pv

>  <Molecule ChEMBL ID>  (759) 
CHEMBL542942

>  <Standard Type>  (759) 
Ki

>  <Standard Value>  (759) 
10000.0

>  <label>  (759) 
0

$$$$
CHEMBL5982641
     RDKit          3D

  0  0  0  0  0  0  0  0  0  0999 V3000
M  V30 BEGIN CTAB
M  V30 COUNTS 51 55 0 0 1
M  V30 BEGIN ATOM
M  V30 1 C 12.086362 2.468105 -16.656391 0
M  V30 2 C 11.751955 3.459104 -15.597738 0
M  V30 3 N 12.503320 4.485944 -15.189704 0
M  V30 4 C 11.743332 5.065980 -14.189898 0
M  V30 5 C 10.582308 4.384894 -14.053670 0
M  V30 6 O 10.563207 3.339890 -14.937124 0
M  V30 7 C 9.495510 4.703127 -13.129839 0
M  V30 8 O 8.502416 3.980439 -13.048396 0
M  V30 9 N 9.668309 5.859838 -12.437488 0
M  V30 10 C 8.573694 6.397881 -11.615142 0
M  V30 11 C 8.612779 5.897016 -10.154484 0
M  V30 12 N 9.743960 6.394769 -9.367688 0
M  V30 13 C 9.771085 7.860218 -9.269993 0
M  V30 14 C 11.055134 8.275353 -8.538258 0
M  V30 15 N 11.072678 7.703064 -7.196945 0
M  V30 16 C 11.190711 8.530282 -6.066901 0
M  V30 17 N 10.923116 9.833071 -6.107777 0
M  V30 18 O 11.199159 10.356033 -4.818688 0
M  V30 19 C 11.666639 9.348894 -3.991268 0
M  V30 20 C 12.085741 9.374893 -2.656145 0
M  V30 21 C 12.480387 8.166275 -2.061098 0
M  V30 22 C 12.466259 6.971103 -2.811317 0
M  V30 23 C 12.062478 6.972579 -4.166206 0
M  V30 24 C 11.645032 8.185809 -4.763841 0
M  V30 25 C 10.789600 6.275959 -7.113600 0
M  V30 26 C 9.588810 5.887082 -8.000545 0
M  V30 27 C 10.848867 6.764228 -12.563781 0
M  V30 28 C 12.087087 6.250370 -13.360978 0
M  V30 29 H 13.082863 2.665106 -17.053604 0
M  V30 30 H 12.067445 1.459289 -16.244669 0
M  V30 31 H 11.363057 2.535856 -17.468981 0
M  V30 32 H 7.611756 6.100471 -12.037676 0
M  V30 33 H 8.536117 7.483474 -11.675821 0
M  V30 34 H 8.631776 4.805483 -10.160046 0
M  V30 35 H 7.686405 6.172023 -9.655213 0
M  V30 36 H 8.883191 8.235114 -8.758165 0
M  V30 37 H 9.789833 8.327374 -10.250878 0
M  V30 38 H 11.137423 9.361296 -8.525128 0
M  V30 39 H 11.929028 7.914032 -9.080435 0
M  V30 40 H 12.086824 10.299012 -2.102452 0
M  V30 41 H 12.805494 8.160693 -1.033257 0
M  V30 42 H 12.778436 6.043466 -2.350653 0
M  V30 43 H 12.085563 6.045936 -4.717294 0
M  V30 44 H 11.676289 5.718071 -7.411417 0
M  V30 45 H 10.539063 5.996496 -6.094382 0
M  V30 46 H 8.664424 6.274368 -7.564213 0
M  V30 47 H 9.494187 4.801287 -8.024547 0
M  V30 48 H 10.496541 7.676330 -13.042751 0
M  V30 49 H 11.187296 7.073849 -11.576334 0
M  V30 50 H 12.884190 5.990731 -12.660414 0
M  V30 51 H 12.489493 7.050767 -13.983117 0
M  V30 END ATOM
M  V30 BEGIN BOND
M  V30 1 1 2 1
M  V30 2 2 3 2
M  V30 3 1 4 3
M  V30 4 2 5 4
M  V30 5 1 6 2
M  V30 6 1 6 5
M  V30 7 1 7 5
M  V30 8 2 8 7
M  V30 9 1 9 7
M  V30 10 1 10 9
M  V30 11 1 11 10
M  V30 12 1 12 11
M  V30 13 1 13 12
M  V30 14 1 14 13
M  V30 15 1 15 14
M  V30 16 1 16 15
M  V30 17 2 17 16
M  V30 18 1 18 17
M  V30 19 1 19 18
M  V30 20 2 20 19
M  V30 21 1 21 20
M  V30 22 2 22 21
M  V30 23 1 23 22
M  V30 24 1 24 16
M  V30 25 1 24 19
M  V30 26 2 24 23
M  V30 27 1 25 15
M  V30 28 1 26 12
M  V30 29 1 26 25
M  V30 30 1 27 9
M  V30 31 1 28 4
M  V30 32 1 28 27
M  V30 33 1 29 1
M  V30 34 1 30 1
M  V30 35 1 31 1
M  V30 36 1 32 10
M  V30 37 1 33 10
M  V30 38 1 34 11
M  V30 39 1 35 11
M  V30 40 1 36 13
M  V30 41 1 37 13
M  V30 42 1 38 14
M  V30 43 1 39 14
M  V30 44 1 40 20
M  V30 45 1 41 21
M  V30 46 1 42 22
M  V30 47 1 43 23
M  V30 48 1 44 25
M  V30 49 1 45 25
M  V30 50 1 46 26
M  V30 51 1 47 26
M  V30 52 1 48 27
M  V30 53 1 49 27
M  V30 54 1 50 28
M  V30 55 1 51 28
M  V30 END BOND
M  V30 END CTAB
M  END
>  <b_m_subgroup_collapsed>  (760) 
0

>  <r_i_docking_score>  (760) 
-7.8924848095835696

>  <s_m_subgroup_title>  (760) 
glide-dock_SP_D22_pv

>  <s_m_subgroupid>  (760) 
glide-dock_SP_D22_pv

>  <Molecule ChEMBL ID>  (760) 
CHEMBL5982641

>  <Standard Type>  (760) 
Ki

>  <Standard Value>  (760) 
10000.0

>  <label>  (760) 
0

$$$$
CHEMBL6025845
     RDKit          3D

  0  0  0  0  0  0  0  0  0  0999 V3000
M  V30 BEGIN CTAB
M  V30 COUNTS 70 73 0 0 1
M  V30 BEGIN ATOM
M  V30 1 C 12.500573 -0.259591 -20.532684 0
M  V30 2 C 11.401597 -0.320116 -19.529636 0
M  V30 3 N 11.596407 -0.627800 -18.246946 0
M  V30 4 C 10.410642 -0.620745 -17.509466 0
M  V30 5 C 9.299283 -0.292079 -18.246899 0
M  V30 6 C 7.889674 -0.145795 -17.766405 0
M  V30 7 C 7.701158 1.228209 -17.125481 0
M  V30 8 O 7.288679 2.171684 -17.798832 0
M  V30 9 N 8.050782 1.336037 -15.835968 0
M  V30 10 C 8.139510 2.580366 -15.077899 0 CFG=1
M  V30 11 C 6.774737 2.977750 -14.496965 0
M  V30 12 C 6.878184 4.260843 -13.652946 0
M  V30 13 C 7.818915 4.088447 -12.462994 0 CFG=2
M  V30 14 C 7.926683 5.364702 -11.611187 0
M  V30 15 C 8.533056 5.092190 -10.220562 0
M  V30 16 N 8.683420 6.326330 -9.412980 0 CFG=1 CHG=1
M  V30 17 C 8.655697 6.049387 -7.953126 0
M  V30 18 C 8.911208 7.319513 -7.126766 0
M  V30 19 N 10.171009 7.938983 -7.529690 0
M  V30 20 C 10.748689 8.747804 -6.527496 0
M  V30 21 N 10.886092 10.054213 -6.641864 0
M  V30 22 O 11.441486 10.500353 -5.446650 0
M  V30 23 C 11.673561 9.418292 -4.669484 0
M  V30 24 C 11.285824 8.261917 -5.291745 0
M  V30 25 C 11.458937 6.849662 -4.778838 0
M  V30 26 C 12.254940 6.796169 -3.462065 0
M  V30 27 F 10.292391 6.260784 -4.553177 0
M  V30 28 F 12.085984 6.145429 -5.715374 0
M  V30 29 C 10.108760 8.361493 -8.938557 0 CFG=1
M  V30 30 C 11.344019 9.120342 -9.457258 0
M  V30 31 C 9.872434 7.120019 -9.823408 0
M  V30 32 C 9.205328 3.595515 -12.967407 0
M  V30 33 C 9.156393 2.400029 -13.949080 0
M  V30 34 S 9.715500 -0.004475 -19.917194 0
M  V30 35 H 12.903007 0.752411 -20.582346 0
M  V30 36 H 13.304602 -0.943561 -20.257465 0
M  V30 37 H 12.126369 -0.540444 -21.517427 0
M  V30 38 H 10.453696 -0.844557 -16.453695 0
M  V30 39 H 7.190439 -0.255946 -18.595959 0
M  V30 40 H 7.645978 -0.929777 -17.048473 0
M  V30 41 H 8.357309 0.496390 -15.366646 0
M  V30 42 H 8.489475 3.371346 -15.740130 0
M  V30 43 H 6.086044 3.145417 -15.317663 0
M  V30 44 H 6.359630 2.166547 -13.896897 0
M  V30 45 H 7.286053 5.066184 -14.247767 0
M  V30 46 H 5.886464 4.571576 -13.322114 0
M  V30 47 H 7.326576 3.372377 -11.817169 0
M  V30 48 H 8.493436 6.117794 -12.157603 0
M  V30 49 H 6.927200 5.777843 -11.465071 0
M  V30 50 H 7.885890 4.387280 -9.699327 0
M  V30 51 H 9.500140 4.595255 -10.297612 0
M  V30 52 H 7.689074 5.623296 -7.679160 0
M  V30 53 H 9.416270 5.305280 -7.714155 0
M  V30 54 H 8.096449 8.030159 -7.282794 0
M  V30 55 H 8.885853 7.086762 -6.067959 0
M  V30 56 H 12.137462 9.627907 -3.716462 0
M  V30 57 H 12.407099 5.772046 -3.130548 0
M  V30 58 H 13.237679 7.257053 -3.565463 0
M  V30 59 H 11.727386 7.315998 -2.661429 0
M  V30 60 H 9.247177 9.022388 -9.052886 0
M  V30 61 H 11.391936 9.110689 -10.546479 0
M  V30 62 H 11.285910 10.171902 -9.179741 0
M  V30 63 H 12.279044 8.699419 -9.084572 0
M  V30 64 H 10.758173 6.483853 -9.783933 0
M  V30 65 H 9.755494 7.433843 -10.860315 0
M  V30 66 H 9.707553 4.422621 -13.470979 0
M  V30 67 H 9.844413 3.327026 -12.126325 0
M  V30 68 H 8.897991 1.473059 -13.446847 0
M  V30 69 H 10.151156 2.235787 -14.366547 0
M  V30 70 H 7.860707 6.902791 -9.599223 0
M  V30 END ATOM
M  V30 BEGIN BOND
M  V30 1 1 2 1
M  V30 2 2 3 2
M  V30 3 1 4 3
M  V30 4 2 5 4
M  V30 5 1 6 5
M  V30 6 1 7 6
M  V30 7 2 8 7
M  V30 8 1 9 7
M  V30 9 1 10 9
M  V30 10 1 11 10
M  V30 11 1 12 11
M  V30 12 1 13 12
M  V30 13 1 14 13
M  V30 14 1 15 14
M  V30 15 1 16 15
M  V30 16 1 17 16
M  V30 17 1 18 17
M  V30 18 1 19 18
M  V30 19 1 20 19
M  V30 20 2 21 20
M  V30 21 1 22 21
M  V30 22 1 23 22
M  V30 23 1 24 20
M  V30 24 2 24 23
M  V30 25 1 25 24
M  V30 26 1 26 25
M  V30 27 1 27 25
M  V30 28 1 28 25
M  V30 29 1 29 19
M  V30 30 1 30 29
M  V30 31 1 31 16
M  V30 32 1 31 29
M  V30 33 1 32 13
M  V30 34 1 33 10
M  V30 35 1 33 32
M  V30 36 1 34 2
M  V30 37 1 34 5
M  V30 38 1 35 1
M  V30 39 1 36 1
M  V30 40 1 37 1
M  V30 41 1 38 4
M  V30 42 1 39 6
M  V30 43 1 40 6
M  V30 44 1 41 9
M  V30 45 1 10 42 CFG=3
M  V30 46 1 43 11
M  V30 47 1 44 11
M  V30 48 1 45 12
M  V30 49 1 46 12
M  V30 50 1 13 47 CFG=1
M  V30 51 1 48 14
M  V30 52 1 49 14
M  V30 53 1 50 15
M  V30 54 1 51 15
M  V30 55 1 52 17
M  V30 56 1 53 17
M  V30 57 1 54 18
M  V30 58 1 55 18
M  V30 59 1 56 23
M  V30 60 1 57 26
M  V30 61 1 58 26
M  V30 62 1 59 26
M  V30 63 1 29 60 CFG=1
M  V30 64 1 61 30
M  V30 65 1 62 30
M  V30 66 1 63 30
M  V30 67 1 64 31
M  V30 68 1 65 31
M  V30 69 1 66 32
M  V30 70 1 67 32
M  V30 71 1 68 33
M  V30 72 1 69 33
M  V30 73 1 16 70 CFG=1
M  V30 END BOND
M  V30 END CTAB
M  END
>  <b_m_subgroup_collapsed>  (761) 
0

>  <r_i_docking_score>  (761) 
-7.89239248333846

>  <s_m_subgroup_title>  (761) 
glide-dock_SP_D22_pv

>  <s_m_subgroupid>  (761) 
glide-dock_SP_D22_pv

>  <Molecule ChEMBL ID>  (761) 
CHEMBL6025845

>  <Standard Type>  (761) 
Ki

>  <Standard Value>  (761) 
68.0

>  <label>  (761) 
1

$$$$
CHEMBL4863980
     RDKit          3D

  0  0  0  0  0  0  0  0  0  0999 V3000
M  V30 BEGIN CTAB
M  V30 COUNTS 66 70 0 0 1
M  V30 BEGIN ATOM
M  V30 1 F 12.886053 8.562537 -1.102460 0
M  V30 2 C 12.378929 8.423487 -2.345881 0
M  V30 3 C 12.204858 7.133449 -2.909248 0
M  V30 4 C 11.686416 6.976762 -4.216208 0
M  V30 5 C 11.339660 8.133208 -4.947578 0
M  V30 6 C 10.801530 8.295332 -6.237498 0
M  V30 7 C 10.404364 7.281684 -7.274562 0 CFG=1
M  V30 8 C 8.898729 6.982474 -7.225899 0
M  V30 9 C 8.522532 5.968102 -8.318233 0
M  V30 10 N 8.886050 6.463518 -9.670619 0 CFG=2 CHG=1
M  V30 11 C 8.408838 5.552894 -10.739099 0
M  V30 12 C 8.573798 6.132906 -12.157491 0
M  V30 13 C 7.903477 5.247416 -13.208543 0
M  V30 14 O 8.524736 3.968914 -13.265771 0
M  V30 15 C 9.517148 3.732831 -14.192123 0
M  V30 16 C 9.912536 2.392707 -14.353078 0
M  V30 17 C 10.884251 2.034672 -15.302637 0
M  V30 18 C 11.462083 3.016125 -16.134176 0
M  V30 19 C 12.457327 2.585185 -17.199661 0
M  V30 20 N 11.849133 2.351995 -18.517965 0
M  V30 21 C 12.843532 2.146487 -19.568316 0
M  V30 22 C 13.516245 0.756885 -19.517338 0
M  V30 23 O 12.531671 -0.276375 -19.498072 0
M  V30 24 C 11.587170 -0.139553 -18.440323 0
M  V30 25 C 10.899133 1.236249 -18.547436 0
M  V30 26 C 11.093661 4.370726 -15.965070 0
M  V30 27 Cl 11.782948 5.620832 -16.941654 0
M  V30 28 C 10.142525 4.724818 -14.988962 0
M  V30 29 C 10.347398 6.737627 -9.754856 0
M  V30 30 C 10.807120 7.734557 -8.689734 0
M  V30 31 N 10.591961 9.590818 -6.447844 0
M  V30 32 O 11.033675 10.294931 -5.296897 0
M  V30 33 C 11.499073 9.391266 -4.360388 0
M  V30 34 C 12.013114 9.573094 -3.071693 0
M  V30 35 H 12.475640 6.259149 -2.337496 0
M  V30 36 H 11.555131 5.993203 -4.643130 0
M  V30 37 H 10.933228 6.351516 -7.062941 0
M  V30 38 H 8.631485 6.583685 -6.247401 0
M  V30 39 H 8.328276 7.902923 -7.354360 0
M  V30 40 H 7.457656 5.772006 -8.262989 0
M  V30 41 H 9.020830 5.016397 -8.133689 0
M  V30 42 H 7.346387 5.361395 -10.583756 0
M  V30 43 H 8.924975 4.594714 -10.657454 0
M  V30 44 H 9.624798 6.243418 -12.424008 0
M  V30 45 H 8.128244 7.129662 -12.193572 0
M  V30 46 H 7.905140 5.745731 -14.173056 0
M  V30 47 H 6.853193 5.101089 -12.955099 0
M  V30 48 H 9.456183 1.622318 -13.748093 0
M  V30 49 H 11.163918 0.996393 -15.415504 0
M  V30 50 H 13.227176 3.354689 -17.281034 0
M  V30 51 H 12.973503 1.692130 -16.848675 0
M  V30 52 H 12.353470 2.254944 -20.538013 0
M  V30 53 H 13.601249 2.931119 -19.530046 0
M  V30 54 H 14.156693 0.614481 -20.388193 0
M  V30 55 H 14.164414 0.669695 -18.646406 0
M  V30 56 H 10.848920 -0.938063 -18.517431 0
M  V30 57 H 12.083368 -0.260069 -17.476812 0
M  V30 58 H 10.148909 1.344472 -17.766823 0
M  V30 59 H 10.342771 1.270369 -19.486101 0
M  V30 60 H 9.905696 5.771980 -14.888535 0
M  V30 61 H 10.883910 5.798116 -9.628036 0
M  V30 62 H 10.625002 7.139248 -10.725996 0
M  V30 63 H 11.887457 7.872113 -8.749161 0
M  V30 64 H 10.360751 8.703293 -8.916313 0
M  V30 65 H 12.104522 10.563644 -2.646392 0
M  V30 66 H 8.355807 7.321939 -9.805687 0
M  V30 END ATOM
M  V30 BEGIN BOND
M  V30 1 1 2 1
M  V30 2 1 3 2
M  V30 3 2 4 3
M  V30 4 1 5 4
M  V30 5 1 6 5
M  V30 6 1 7 6
M  V30 7 1 8 7
M  V30 8 1 9 8
M  V30 9 1 10 9
M  V30 10 1 11 10
M  V30 11 1 12 11
M  V30 12 1 13 12
M  V30 13 1 14 13
M  V30 14 1 15 14
M  V30 15 1 16 15
M  V30 16 2 17 16
M  V30 17 1 18 17
M  V30 18 1 19 18
M  V30 19 1 20 19
M  V30 20 1 21 20
M  V30 21 1 22 21
M  V30 22 1 23 22
M  V30 23 1 24 23
M  V30 24 1 25 20
M  V30 25 1 25 24
M  V30 26 2 26 18
M  V30 27 1 27 26
M  V30 28 2 28 15
M  V30 29 1 28 26
M  V30 30 1 29 10
M  V30 31 1 30 7
M  V30 32 1 30 29
M  V30 33 2 31 6
M  V30 34 1 32 31
M  V30 35 2 33 5
M  V30 36 1 33 32
M  V30 37 2 34 2
M  V30 38 1 34 33
M  V30 39 1 35 3
M  V30 40 1 36 4
M  V30 41 1 7 37 CFG=1
M  V30 42 1 38 8
M  V30 43 1 39 8
M  V30 44 1 40 9
M  V30 45 1 41 9
M  V30 46 1 42 11
M  V30 47 1 43 11
M  V30 48 1 44 12
M  V30 49 1 45 12
M  V30 50 1 46 13
M  V30 51 1 47 13
M  V30 52 1 48 16
M  V30 53 1 49 17
M  V30 54 1 50 19
M  V30 55 1 51 19
M  V30 56 1 52 21
M  V30 57 1 53 21
M  V30 58 1 54 22
M  V30 59 1 55 22
M  V30 60 1 56 24
M  V30 61 1 57 24
M  V30 62 1 58 25
M  V30 63 1 59 25
M  V30 64 1 60 28
M  V30 65 1 61 29
M  V30 66 1 62 29
M  V30 67 1 63 30
M  V30 68 1 64 30
M  V30 69 1 65 34
M  V30 70 1 10 66 CFG=3
M  V30 END BOND
M  V30 END CTAB
M  END
>  <b_m_subgroup_collapsed>  (762) 
0

>  <r_i_docking_score>  (762) 
-7.8922609611956904

>  <s_m_subgroup_title>  (762) 
glide-dock_SP_D22_pv

>  <s_m_subgroupid>  (762) 
glide-dock_SP_D22_pv

>  <Molecule ChEMBL ID>  (762) 
CHEMBL4863980

>  <Standard Type>  (762) 
Ki

>  <Standard Value>  (762) 
5.4

>  <label>  (762) 
1

$$$$
CHEMBL572867
     RDKit          3D

  0  0  0  0  0  0  0  0  0  0999 V3000
M  V30 BEGIN CTAB
M  V30 COUNTS 72 75 0 0 1
M  V30 BEGIN ATOM
M  V30 1 C 2.957313 -0.872710 -14.559794 0
M  V30 2 O 4.085441 -0.395721 -13.846951 0
M  V30 3 C 5.264388 -0.227783 -14.537573 0
M  V30 4 C 5.403171 -0.424375 -15.933311 0
M  V30 5 C 6.648217 -0.223535 -16.557777 0
M  V30 6 C 7.775847 0.172412 -15.802550 0
M  V30 7 N 9.035766 0.358697 -16.423513 0
M  V30 8 C 10.078684 1.173126 -16.023539 0
M  V30 9 C 11.004098 1.024806 -17.016829 0
M  V30 10 C 12.317693 1.716831 -17.207552 0
M  V30 11 C 12.218961 2.925882 -18.155283 0
M  V30 12 C 11.317554 4.073102 -17.649612 0
M  V30 13 C 11.875917 4.796975 -16.420782 0
M  V30 14 O 13.060034 5.130853 -16.385399 0
M  V30 15 N 11.013638 5.063228 -15.429177 0
M  V30 16 C 11.341308 5.889440 -14.275979 0
M  V30 17 C 10.314822 5.724101 -13.143121 0
M  V30 18 C 10.502711 6.798932 -12.060034 0
M  V30 19 C 9.751771 6.489891 -10.747323 0
M  V30 20 N 9.894444 7.546100 -9.707911 0 CHG=1
M  V30 21 C 11.306136 7.870932 -9.354822 0
M  V30 22 C 11.419080 8.996086 -8.314420 0
M  V30 23 N 10.476654 8.810188 -7.222147 0
M  V30 24 C 10.940084 8.827478 -5.899855 0
M  V30 25 C 10.885894 10.040312 -5.190063 0
M  V30 26 C 11.292109 10.080220 -3.847239 0
M  V30 27 C 11.789236 8.946255 -3.208433 0
M  V30 28 C 11.872178 7.744382 -3.911643 0
M  V30 29 Cl 12.486001 6.404944 -3.037076 0
M  V30 30 C 11.462102 7.671995 -5.265598 0
M  V30 31 Cl 11.685480 6.216550 -6.173388 0
M  V30 32 C 9.108671 8.388088 -7.496742 0
M  V30 33 C 9.103392 7.218212 -8.494216 0
M  V30 34 N 10.522632 0.107057 -17.943796 0
M  V30 35 N 9.343699 -0.284066 -17.579388 0
M  V30 36 C 7.635618 0.375266 -14.412470 0
M  V30 37 C 6.389355 0.172164 -13.790204 0
M  V30 38 H 2.144250 -1.027627 -13.851064 0
M  V30 39 H 2.619687 -0.156209 -15.307800 0
M  V30 40 H 3.167447 -1.827638 -15.043922 0
M  V30 41 H 4.570173 -0.728194 -16.548143 0
M  V30 42 H 6.726140 -0.382107 -17.623728 0
M  V30 43 H 10.062473 1.789111 -15.137129 0
M  V30 44 H 13.036609 1.011257 -17.621935 0
M  V30 45 H 12.724302 2.029314 -16.246864 0
M  V30 46 H 11.846566 2.586950 -19.122734 0
M  V30 47 H 13.221644 3.310172 -18.347664 0
M  V30 48 H 10.309175 3.706739 -17.451475 0
M  V30 49 H 11.214725 4.817314 -18.439827 0
M  V30 50 H 10.057578 4.757516 -15.530884 0
M  V30 51 H 11.384627 6.927815 -14.604946 0
M  V30 52 H 12.338248 5.639431 -13.904333 0
M  V30 53 H 10.431420 4.731563 -12.706996 0
M  V30 54 H 9.297139 5.773105 -13.531390 0
M  V30 55 H 10.180083 7.765708 -12.448618 0
M  V30 56 H 11.571532 6.890845 -11.874915 0
M  V30 57 H 10.086448 5.534395 -10.338787 0
M  V30 58 H 8.689419 6.372018 -10.969438 0
M  V30 59 H 11.886717 8.177776 -10.223617 0
M  V30 60 H 11.766881 6.972362 -8.957282 0
M  V30 61 H 11.233198 9.954507 -8.795113 0
M  V30 62 H 12.439623 9.038161 -7.931174 0
M  V30 63 H 10.507606 10.933594 -5.663297 0
M  V30 64 H 11.272419 10.972310 -3.264166 0
M  V30 65 H 12.107111 9.001541 -2.177330 0
M  V30 66 H 8.599508 8.097938 -6.576525 0
M  V30 67 H 8.553926 9.233976 -7.905553 0
M  V30 68 H 8.086378 6.964300 -8.772866 0
M  V30 69 H 9.513366 6.324416 -8.022401 0
M  V30 70 H 8.483871 0.667345 -13.811470 0
M  V30 71 H 6.295278 0.318446 -12.724339 0
M  V30 72 H 9.478786 8.384115 -10.088993 0
M  V30 END ATOM
M  V30 BEGIN BOND
M  V30 1 1 2 1
M  V30 2 1 3 2
M  V30 3 1 4 3
M  V30 4 2 5 4
M  V30 5 1 6 5
M  V30 6 1 7 6
M  V30 7 1 8 7
M  V30 8 2 9 8
M  V30 9 1 10 9
M  V30 10 1 11 10
M  V30 11 1 12 11
M  V30 12 1 13 12
M  V30 13 2 14 13
M  V30 14 1 15 13
M  V30 15 1 16 15
M  V30 16 1 17 16
M  V30 17 1 18 17
M  V30 18 1 19 18
M  V30 19 1 20 19
M  V30 20 1 21 20
M  V30 21 1 22 21
M  V30 22 1 23 22
M  V30 23 1 24 23
M  V30 24 2 25 24
M  V30 25 1 26 25
M  V30 26 2 27 26
M  V30 27 1 28 27
M  V30 28 1 29 28
M  V30 29 1 30 24
M  V30 30 2 30 28
M  V30 31 1 31 30
M  V30 32 1 32 23
M  V30 33 1 33 20
M  V30 34 1 33 32
M  V30 35 1 34 9
M  V30 36 1 35 7
M  V30 37 2 35 34
M  V30 38 2 36 6
M  V30 39 2 37 3
M  V30 40 1 37 36
M  V30 41 1 38 1
M  V30 42 1 39 1
M  V30 43 1 40 1
M  V30 44 1 41 4
M  V30 45 1 42 5
M  V30 46 1 43 8
M  V30 47 1 44 10
M  V30 48 1 45 10
M  V30 49 1 46 11
M  V30 50 1 47 11
M  V30 51 1 48 12
M  V30 52 1 49 12
M  V30 53 1 50 15
M  V30 54 1 51 16
M  V30 55 1 52 16
M  V30 56 1 53 17
M  V30 57 1 54 17
M  V30 58 1 55 18
M  V30 59 1 56 18
M  V30 60 1 57 19
M  V30 61 1 58 19
M  V30 62 1 59 21
M  V30 63 1 60 21
M  V30 64 1 61 22
M  V30 65 1 62 22
M  V30 66 1 63 25
M  V30 67 1 64 26
M  V30 68 1 65 27
M  V30 69 1 66 32
M  V30 70 1 67 32
M  V30 71 1 68 33
M  V30 72 1 69 33
M  V30 73 1 70 36
M  V30 74 1 71 37
M  V30 75 1 72 20
M  V30 END BOND
M  V30 END CTAB
M  END
>  <b_m_subgroup_collapsed>  (763) 
0

>  <r_i_docking_score>  (763) 
-7.8916822098814396

>  <s_m_subgroup_title>  (763) 
glide-dock_SP_D22_pv

>  <s_m_subgroupid>  (763) 
glide-dock_SP_D22_pv

>  <Molecule ChEMBL ID>  (763) 
CHEMBL572867

>  <Standard Type>  (763) 
Ki

>  <Standard Value>  (763) 
1.0

>  <label>  (763) 
1

$$$$
CHEMBL5277789
     RDKit          3D

  0  0  0  0  0  0  0  0  0  0999 V3000
M  V30 BEGIN CTAB
M  V30 COUNTS 58 61 0 0 1
M  V30 BEGIN ATOM
M  V30 1 O 12.085965 10.172266 -2.989586 0
M  V30 2 C 11.834869 9.157011 -3.853734 0
M  V30 3 C 11.991545 7.827240 -3.435213 0
M  V30 4 C 11.686091 6.789280 -4.328785 0
M  V30 5 C 11.272126 7.068842 -5.645624 0
M  V30 6 C 11.145985 8.411267 -6.081470 0
M  V30 7 O 10.789034 8.794564 -7.355361 0
M  V30 8 C 10.662126 7.813974 -8.377510 0
M  V30 9 C 9.260146 7.183258 -8.371687 0
M  V30 10 N 8.886011 6.684260 -9.710964 0 CHG=1
M  V30 11 C 8.876608 5.213422 -9.888419 0
M  V30 12 C 8.511533 4.809090 -11.335440 0 CFG=1
M  V30 13 C 7.303336 5.588104 -11.887868 0
M  V30 14 O 7.104206 5.199119 -13.224908 0
M  V30 15 C 8.256563 5.516330 -13.986637 0
M  V30 16 C 9.493139 4.694729 -13.590740 0
M  V30 17 C 10.659930 5.336110 -14.364292 0
M  V30 18 C 10.766661 5.170557 -15.767951 0
M  V30 19 C 11.778149 5.822912 -16.497803 0
M  V30 20 C 12.687878 6.666812 -15.836847 0
M  V30 21 C 12.587423 6.846083 -14.445910 0
M  V30 22 C 11.592974 6.173573 -13.711146 0
M  V30 23 C 9.346276 3.200984 -13.994782 0
M  V30 24 C 8.083827 2.596688 -14.246838 0
M  V30 25 C 7.981711 1.277573 -14.727073 0
M  V30 26 C 9.141248 0.534048 -14.992525 0
M  V30 27 C 10.399497 1.109300 -14.755057 0
M  V30 28 C 10.501579 2.420044 -14.246824 0
M  V30 29 O 9.670238 4.914347 -12.174256 0
M  V30 30 C 11.411614 9.447186 -5.164319 0
M  V30 31 H 12.586300 9.942362 -2.220033 0
M  V30 32 H 12.312685 7.596946 -2.429698 0
M  V30 33 H 11.783544 5.772371 -3.997348 0
M  V30 34 H 11.065648 6.234186 -6.297625 0
M  V30 35 H 10.806896 8.352628 -9.314979 0
M  V30 36 H 11.452359 7.062494 -8.346887 0
M  V30 37 H 9.153819 6.412249 -7.607799 0
M  V30 38 H 8.530341 7.955446 -8.121016 0
M  V30 39 H 7.930515 7.020366 -9.872331 0
M  V30 40 H 9.841915 4.789479 -9.608808 0
M  V30 41 H 8.135369 4.799340 -9.202749 0
M  V30 42 H 8.222456 3.772317 -11.343350 0
M  V30 43 H 6.400857 5.369495 -11.320990 0
M  V30 44 H 7.449975 6.666389 -11.848206 0
M  V30 45 H 8.448472 6.572321 -13.846792 0
M  V30 46 H 8.085960 5.372528 -15.046852 0
M  V30 47 H 10.060493 4.547920 -16.298075 0
M  V30 48 H 11.846623 5.687172 -17.567034 0
M  V30 49 H 13.458800 7.177455 -16.395229 0
M  V30 50 H 13.286499 7.492470 -13.935918 0
M  V30 51 H 11.538145 6.340714 -12.647295 0
M  V30 52 H 7.153814 3.116098 -14.097987 0
M  V30 53 H 7.010020 0.841801 -14.908648 0
M  V30 54 H 9.064675 -0.474203 -15.373732 0
M  V30 55 H 11.286029 0.535483 -14.967408 0
M  V30 56 H 11.485398 2.833137 -14.079304 0
M  V30 57 H 11.306808 10.476396 -5.476040 0
M  V30 58 H 9.477152 7.107701 -10.411054 0
M  V30 END ATOM
M  V30 BEGIN BOND
M  V30 1 1 2 1
M  V30 2 1 3 2
M  V30 3 2 4 3
M  V30 4 1 5 4
M  V30 5 2 6 5
M  V30 6 1 7 6
M  V30 7 1 8 7
M  V30 8 1 9 8
M  V30 9 1 10 9
M  V30 10 1 11 10
M  V30 11 1 12 11
M  V30 12 1 13 12
M  V30 13 1 14 13
M  V30 14 1 15 14
M  V30 15 1 16 15
M  V30 16 1 17 16
M  V30 17 2 18 17
M  V30 18 1 19 18
M  V30 19 2 20 19
M  V30 20 1 21 20
M  V30 21 1 22 17
M  V30 22 2 22 21
M  V30 23 1 23 16
M  V30 24 2 24 23
M  V30 25 1 25 24
M  V30 26 2 26 25
M  V30 27 1 27 26
M  V30 28 1 28 23
M  V30 29 2 28 27
M  V30 30 1 29 12
M  V30 31 1 29 16
M  V30 32 2 30 2
M  V30 33 1 30 6
M  V30 34 1 31 1
M  V30 35 1 32 3
M  V30 36 1 33 4
M  V30 37 1 34 5
M  V30 38 1 35 8
M  V30 39 1 36 8
M  V30 40 1 37 9
M  V30 41 1 38 9
M  V30 42 1 39 10
M  V30 43 1 40 11
M  V30 44 1 41 11
M  V30 45 1 12 42 CFG=1
M  V30 46 1 43 13
M  V30 47 1 44 13
M  V30 48 1 45 15
M  V30 49 1 46 15
M  V30 50 1 47 18
M  V30 51 1 48 19
M  V30 52 1 49 20
M  V30 53 1 50 21
M  V30 54 1 51 22
M  V30 55 1 52 24
M  V30 56 1 53 25
M  V30 57 1 54 26
M  V30 58 1 55 27
M  V30 59 1 56 28
M  V30 60 1 57 30
M  V30 61 1 58 10
M  V30 END BOND
M  V30 END CTAB
M  END
>  <b_m_subgroup_collapsed>  (764) 
0

>  <r_i_docking_score>  (764) 
-7.8916702817963804

>  <s_m_subgroup_title>  (764) 
glide-dock_SP_D22_pv

>  <s_m_subgroupid>  (764) 
glide-dock_SP_D22_pv

>  <Molecule ChEMBL ID>  (764) 
CHEMBL5277789

>  <Standard Type>  (764) 
Ki

>  <Standard Value>  (764) 
10000.0

>  <label>  (764) 
0

$$$$
CHEMBL165664
     RDKit          3D

  0  0  0  0  0  0  0  0  0  0999 V3000
M  V30 BEGIN CTAB
M  V30 COUNTS 56 59 0 0 1
M  V30 BEGIN ATOM
M  V30 1 C 12.371022 8.200455 -2.063049 0
M  V30 2 C 12.161328 6.970855 -2.708441 0
M  V30 3 C 11.686817 6.948237 -4.032480 0
M  V30 4 C 11.402794 8.146020 -4.727946 0
M  V30 5 N 10.921025 8.105030 -6.049193 0
M  V30 6 C 9.952710 7.092724 -6.435763 0
M  V30 7 C 10.293403 6.601536 -7.840236 0
M  V30 8 N 10.275626 7.724407 -8.823063 0 CHG=1
M  V30 9 C 10.616192 7.290121 -10.204244 0
M  V30 10 C 9.458241 6.735909 -11.069182 0 CFG=1
M  V30 11 C 10.046223 6.346469 -12.443652 0
M  V30 12 C 9.002182 5.713745 -13.375342 0
M  V30 13 C 8.397020 4.472786 -12.719787 0 CFG=2
M  V30 14 N 7.475173 3.773100 -13.602160 0
M  V30 15 C 7.853463 2.615952 -14.247961 0
M  V30 16 N 6.887976 1.714469 -14.412939 0
M  V30 17 C 7.237391 0.552688 -15.002156 0
M  V30 18 C 8.553625 0.307260 -15.429966 0
M  V30 19 C 9.483433 1.336321 -15.209815 0
M  V30 20 N 9.127523 2.495590 -14.626118 0
M  V30 21 C 7.702463 4.888989 -11.426270 0
M  V30 22 C 8.701155 5.534575 -10.458097 0
M  V30 23 C 11.193453 8.822741 -8.395114 0
M  V30 24 C 11.002526 9.260864 -6.930153 0
M  V30 25 C 11.611031 9.372626 -4.062944 0
M  V30 26 C 12.085996 9.395988 -2.741272 0
M  V30 27 H 12.735960 8.230885 -1.046942 0
M  V30 28 H 12.370159 6.042632 -2.195410 0
M  V30 29 H 11.564742 5.987387 -4.507520 0
M  V30 30 H 8.956115 7.534856 -6.425456 0
M  V30 31 H 9.908333 6.249848 -5.748313 0
M  V30 32 H 9.595291 5.811694 -8.088165 0
M  V30 33 H 11.283425 6.142770 -7.830150 0
M  V30 34 H 11.438414 6.580565 -10.154957 0
M  V30 35 H 11.017953 8.147348 -10.747684 0
M  V30 36 H 8.731952 7.535589 -11.226691 0
M  V30 37 H 10.486133 7.223469 -12.919124 0
M  V30 38 H 10.874316 5.646551 -12.317687 0
M  V30 39 H 9.468544 5.450611 -14.325943 0
M  V30 40 H 8.210396 6.431823 -13.596102 0
M  V30 41 H 9.204476 3.787515 -12.451084 0
M  V30 42 H 6.511908 3.777608 -13.305325 0
M  V30 43 H 6.460275 -0.186633 -15.132633 0
M  V30 44 H 8.833053 -0.623508 -15.899668 0
M  V30 45 H 10.515286 1.232437 -15.508821 0
M  V30 46 H 6.881187 5.578824 -11.630575 0
M  V30 47 H 7.264796 4.012753 -10.948442 0
M  V30 48 H 8.125625 5.864038 -9.593665 0
M  V30 49 H 9.406981 4.772312 -10.122828 0
M  V30 50 H 12.223392 8.482779 -8.519223 0
M  V30 51 H 11.072647 9.688504 -9.049002 0
M  V30 52 H 10.086184 9.837794 -6.827462 0
M  V30 53 H 11.831969 9.912506 -6.649212 0
M  V30 54 H 11.383224 10.313538 -4.540977 0
M  V30 55 H 12.216387 10.344563 -2.245723 0
M  V30 56 H 9.336004 8.098926 -8.838730 0
M  V30 END ATOM
M  V30 BEGIN BOND
M  V30 1 2 2 1
M  V30 2 1 3 2
M  V30 3 2 4 3
M  V30 4 1 5 4
M  V30 5 1 6 5
M  V30 6 1 7 6
M  V30 7 1 8 7
M  V30 8 1 9 8
M  V30 9 1 10 9
M  V30 10 1 11 10
M  V30 11 1 12 11
M  V30 12 1 13 12
M  V30 13 1 14 13
M  V30 14 1 15 14
M  V30 15 2 16 15
M  V30 16 1 17 16
M  V30 17 2 18 17
M  V30 18 1 19 18
M  V30 19 1 20 15
M  V30 20 2 20 19
M  V30 21 1 21 13
M  V30 22 1 22 10
M  V30 23 1 22 21
M  V30 24 1 23 8
M  V30 25 1 24 5
M  V30 26 1 24 23
M  V30 27 1 25 4
M  V30 28 1 26 1
M  V30 29 2 26 25
M  V30 30 1 27 1
M  V30 31 1 28 2
M  V30 32 1 29 3
M  V30 33 1 30 6
M  V30 34 1 31 6
M  V30 35 1 32 7
M  V30 36 1 33 7
M  V30 37 1 34 9
M  V30 38 1 35 9
M  V30 39 1 10 36 CFG=3
M  V30 40 1 37 11
M  V30 41 1 38 11
M  V30 42 1 39 12
M  V30 43 1 40 12
M  V30 44 1 13 41 CFG=1
M  V30 45 1 42 14
M  V30 46 1 43 17
M  V30 47 1 44 18
M  V30 48 1 45 19
M  V30 49 1 46 21
M  V30 50 1 47 21
M  V30 51 1 48 22
M  V30 52 1 49 22
M  V30 53 1 50 23
M  V30 54 1 51 23
M  V30 55 1 52 24
M  V30 56 1 53 24
M  V30 57 1 54 25
M  V30 58 1 55 26
M  V30 59 1 56 8
M  V30 END BOND
M  V30 END CTAB
M  END
>  <b_m_subgroup_collapsed>  (765) 
0

>  <r_i_docking_score>  (765) 
-7.8911624098208302

>  <s_m_subgroup_title>  (765) 
glide-dock_SP_D22_pv

>  <s_m_subgroupid>  (765) 
glide-dock_SP_D22_pv

>  <Molecule ChEMBL ID>  (765) 
CHEMBL165664

>  <Standard Type>  (765) 
Ki

>  <Standard Value>  (765) 
5.7

>  <label>  (765) 
1

$$$$
CHEMBL5557169
     RDKit          3D

  0  0  0  0  0  0  0  0  0  0999 V3000
M  V30 BEGIN CTAB
M  V30 COUNTS 59 63 0 0 1
M  V30 BEGIN ATOM
M  V30 1 C 7.976520 2.171343 -16.459942 0
M  V30 2 C 8.806598 1.822201 -15.205124 0
M  V30 3 C 7.937160 0.907388 -14.316990 0
M  V30 4 C 10.031138 0.985144 -15.698179 0
M  V30 5 O 9.954794 -0.228088 -15.883207 0
M  V30 6 N 11.174946 1.638717 -15.935982 0
M  V30 7 C 11.316526 3.009110 -15.665860 0
M  V30 8 C 12.438102 3.780081 -16.054596 0
M  V30 9 C 12.543591 5.154027 -15.716816 0
M  V30 10 C 11.522981 5.806248 -14.985275 0
M  V30 11 C 10.390580 5.064079 -14.602959 0
M  V30 12 C 10.346122 3.719866 -14.948337 0
M  V30 13 N 9.184471 3.063035 -14.470948 0
M  V30 14 C 8.301502 4.102518 -13.923937 0 CFG=1
M  V30 15 C 7.672566 3.799851 -12.563043 0
M  V30 16 C 7.175113 5.094310 -11.893416 0
M  V30 17 N 8.312372 5.955852 -11.463299 0 CFG=1 CHG=1
M  V30 18 C 8.657810 5.737611 -10.026377 0
M  V30 19 C 9.723252 6.705901 -9.448858 0
M  V30 20 C 9.126842 7.821584 -8.569273 0
M  V30 21 O 10.121963 8.696723 -8.043826 0
M  V30 22 C 10.674606 8.430075 -6.808226 0
M  V30 23 C 10.670445 7.157065 -6.184607 0
M  V30 24 C 11.284363 6.974948 -4.927962 0
M  V30 25 C 11.872707 8.065934 -4.261178 0
M  V30 26 F 12.440965 7.893733 -3.044400 0
M  V30 27 C 11.875395 9.334029 -4.870090 0
M  V30 28 C 11.292738 9.508568 -6.140606 0
M  V30 29 C 9.493049 5.829149 -12.374838 0
M  V30 30 C 9.144363 5.385889 -13.822342 0 CFG=1
M  V30 31 H 7.790693 1.290967 -17.077387 0
M  V30 32 H 8.483356 2.906596 -17.085962 0
M  V30 33 H 6.999088 2.572338 -16.193563 0
M  V30 34 H 7.617018 0.009916 -14.850344 0
M  V30 35 H 7.024571 1.396690 -13.985033 0
M  V30 36 H 8.491548 0.572249 -13.445988 0
M  V30 37 H 11.967407 1.130533 -16.298759 0
M  V30 38 H 13.240665 3.313375 -16.606998 0
M  V30 39 H 13.419868 5.709575 -16.018038 0
M  V30 40 H 11.616460 6.850952 -14.728971 0
M  V30 41 H 7.501639 4.268049 -14.641385 0
M  V30 42 H 6.848896 3.094603 -12.653087 0
M  V30 43 H 8.445647 3.372478 -11.929502 0
M  V30 44 H 6.554477 5.656179 -12.592491 0
M  V30 45 H 6.526170 4.857980 -11.055554 0
M  V30 46 H 7.750714 5.798840 -9.421402 0
M  V30 47 H 9.014276 4.712687 -9.912466 0
M  V30 48 H 10.417000 6.117820 -8.848821 0
M  V30 49 H 10.341752 7.153759 -10.224842 0
M  V30 50 H 8.486060 8.444074 -9.190785 0
M  V30 51 H 8.487445 7.422254 -7.779769 0
M  V30 52 H 10.208803 6.301254 -6.651674 0
M  V30 53 H 11.282337 5.999780 -4.463266 0
M  V30 54 H 12.330171 10.171563 -4.364739 0
M  V30 55 H 11.307143 10.484424 -6.603153 0
M  V30 56 H 10.040024 6.771872 -12.402156 0
M  V30 57 H 10.173346 5.086797 -11.954988 0
M  V30 58 H 8.578615 6.171062 -14.313771 0
M  V30 59 H 7.949596 6.902490 -11.502872 0
M  V30 END ATOM
M  V30 BEGIN BOND
M  V30 1 1 2 1
M  V30 2 1 3 2
M  V30 3 1 4 2
M  V30 4 2 5 4
M  V30 5 1 6 4
M  V30 6 1 7 6
M  V30 7 1 8 7
M  V30 8 2 9 8
M  V30 9 1 10 9
M  V30 10 2 11 10
M  V30 11 2 12 7
M  V30 12 1 12 11
M  V30 13 1 13 2
M  V30 14 1 13 12
M  V30 15 1 14 13
M  V30 16 1 15 14
M  V30 17 1 16 15
M  V30 18 1 17 16
M  V30 19 1 18 17
M  V30 20 1 19 18
M  V30 21 1 20 19
M  V30 22 1 21 20
M  V30 23 1 22 21
M  V30 24 1 23 22
M  V30 25 2 24 23
M  V30 26 1 25 24
M  V30 27 1 26 25
M  V30 28 2 27 25
M  V30 29 2 28 22
M  V30 30 1 28 27
M  V30 31 1 29 17
M  V30 32 1 30 11
M  V30 33 1 30 14
M  V30 34 1 30 29
M  V30 35 1 31 1
M  V30 36 1 32 1
M  V30 37 1 33 1
M  V30 38 1 34 3
M  V30 39 1 35 3
M  V30 40 1 36 3
M  V30 41 1 37 6
M  V30 42 1 38 8
M  V30 43 1 39 9
M  V30 44 1 40 10
M  V30 45 1 14 41 CFG=3
M  V30 46 1 42 15
M  V30 47 1 43 15
M  V30 48 1 44 16
M  V30 49 1 45 16
M  V30 50 1 46 18
M  V30 51 1 47 18
M  V30 52 1 48 19
M  V30 53 1 49 19
M  V30 54 1 50 20
M  V30 55 1 51 20
M  V30 56 1 52 23
M  V30 57 1 53 24
M  V30 58 1 54 27
M  V30 59 1 55 28
M  V30 60 1 56 29
M  V30 61 1 57 29
M  V30 62 1 30 58 CFG=3
M  V30 63 1 17 59 CFG=1
M  V30 END BOND
M  V30 END CTAB
M  END
>  <b_m_subgroup_collapsed>  (766) 
0

>  <r_i_docking_score>  (766) 
-7.8883469566546003

>  <s_m_subgroup_title>  (766) 
glide-dock_SP_D22_pv

>  <s_m_subgroupid>  (766) 
glide-dock_SP_D22_pv

>  <Molecule ChEMBL ID>  (766) 
CHEMBL5557169

>  <Standard Type>  (766) 
Ki

>  <Standard Value>  (766) 
53.0

>  <label>  (766) 
1

$$$$
CHEMBL3780184
     RDKit          3D

  0  0  0  0  0  0  0  0  0  0999 V3000
M  V30 BEGIN CTAB
M  V30 COUNTS 56 60 0 0 1
M  V30 BEGIN ATOM
M  V30 1 C 11.965536 2.850781 -16.614363 0
M  V30 2 O 12.472016 4.149938 -16.339821 0
M  V30 3 C 11.948420 4.846768 -15.269055 0
M  V30 4 C 10.858994 4.390607 -14.488218 0
M  V30 5 C 10.387920 5.145902 -13.394620 0
M  V30 6 C 11.011857 6.371631 -13.046748 0
M  V30 7 C 12.085602 6.836535 -13.841253 0
M  V30 8 C 12.544490 6.084273 -14.943572 0
M  V30 9 O 13.586844 6.553365 -15.691151 0
M  V30 10 C 10.531590 7.188135 -11.832822 0 CFG=2
M  V30 11 C 11.713381 7.719539 -10.982282 0
M  V30 12 C 11.377665 8.084306 -9.549570 0
M  V30 13 C 12.397680 8.572486 -8.715896 0
M  V30 14 C 12.114250 8.966228 -7.398970 0
M  V30 15 C 10.827902 8.768780 -6.857984 0
M  V30 16 O 10.486143 9.113943 -5.569536 0
M  V30 17 C 11.281342 10.066510 -4.880485 0
M  V30 18 C 12.424812 9.419607 -4.120387 0
M  V30 19 C 12.266187 9.123370 -2.648936 0
M  V30 20 C 12.364160 7.984682 -3.635540 0
M  V30 21 C 9.841838 8.154290 -7.656780 0
M  V30 22 O 8.650501 7.813718 -7.086245 0
M  V30 23 C 8.659795 6.466299 -6.646595 0
M  V30 24 C 10.092900 7.858637 -9.017089 0
M  V30 25 C 9.006947 7.294156 -9.915780 0
M  V30 26 N 9.585704 6.429118 -10.966894 0 CFG=1 CHG=1
M  V30 27 C 8.555851 5.707915 -11.744729 0
M  V30 28 C 9.228045 4.610111 -12.573568 0
M  V30 29 H 12.524671 2.416902 -17.442181 0
M  V30 30 H 12.081332 2.183602 -15.757835 0
M  V30 31 H 10.915355 2.884492 -16.905579 0
M  V30 32 H 10.368532 3.455380 -14.709225 0
M  V30 33 H 12.567074 7.773505 -13.605799 0
M  V30 34 H 13.969588 7.348166 -15.349131 0
M  V30 35 H 9.981672 8.044712 -12.230559 0
M  V30 36 H 12.192996 8.578769 -11.447137 0
M  V30 37 H 12.485941 6.971892 -10.915326 0
M  V30 38 H 13.400802 8.698128 -9.095354 0
M  V30 39 H 12.918136 9.377115 -6.809992 0
M  V30 40 H 11.657159 10.849544 -5.542209 0
M  V30 41 H 10.628911 10.571973 -4.167768 0
M  V30 42 H 13.406291 9.771337 -4.431604 0
M  V30 43 H 13.120821 9.345128 -2.010504 0
M  V30 44 H 11.290170 9.310271 -2.206710 0
M  V30 45 H 11.458794 7.415011 -3.830174 0
M  V30 46 H 13.284811 7.406201 -3.648845 0
M  V30 47 H 7.688796 6.172785 -6.247551 0
M  V30 48 H 8.918807 5.765876 -7.441364 0
M  V30 49 H 9.386003 6.346328 -5.843771 0
M  V30 50 H 8.490309 8.134926 -10.378837 0
M  V30 51 H 8.279872 6.725698 -9.334789 0
M  V30 52 H 8.022998 6.409621 -12.388778 0
M  V30 53 H 7.811324 5.260399 -11.083242 0
M  V30 54 H 8.495685 4.143613 -13.233373 0
M  V30 55 H 9.606952 3.823939 -11.917330 0
M  V30 56 H 10.122174 5.723658 -10.484042 0
M  V30 END ATOM
M  V30 BEGIN BOND
M  V30 1 1 2 1
M  V30 2 1 3 2
M  V30 3 1 4 3
M  V30 4 2 5 4
M  V30 5 1 6 5
M  V30 6 2 7 6
M  V30 7 2 8 3
M  V30 8 1 8 7
M  V30 9 1 9 8
M  V30 10 1 10 6
M  V30 11 1 11 10
M  V30 12 1 12 11
M  V30 13 1 13 12
M  V30 14 2 14 13
M  V30 15 1 15 14
M  V30 16 1 16 15
M  V30 17 1 17 16
M  V30 18 1 18 17
M  V30 19 1 19 18
M  V30 20 1 20 18
M  V30 21 1 20 19
M  V30 22 2 21 15
M  V30 23 1 22 21
M  V30 24 1 23 22
M  V30 25 2 24 12
M  V30 26 1 24 21
M  V30 27 1 25 24
M  V30 28 1 26 10
M  V30 29 1 26 25
M  V30 30 1 27 26
M  V30 31 1 28 5
M  V30 32 1 28 27
M  V30 33 1 29 1
M  V30 34 1 30 1
M  V30 35 1 31 1
M  V30 36 1 32 4
M  V30 37 1 33 7
M  V30 38 1 34 9
M  V30 39 1 10 35 CFG=3
M  V30 40 1 36 11
M  V30 41 1 37 11
M  V30 42 1 38 13
M  V30 43 1 39 14
M  V30 44 1 40 17
M  V30 45 1 41 17
M  V30 46 1 42 18
M  V30 47 1 43 19
M  V30 48 1 44 19
M  V30 49 1 45 20
M  V30 50 1 46 20
M  V30 51 1 47 23
M  V30 52 1 48 23
M  V30 53 1 49 23
M  V30 54 1 50 25
M  V30 55 1 51 25
M  V30 56 1 52 27
M  V30 57 1 53 27
M  V30 58 1 54 28
M  V30 59 1 55 28
M  V30 60 1 26 56 CFG=1
M  V30 END BOND
M  V30 END CTAB
M  END
>  <b_m_subgroup_collapsed>  (767) 
0

>  <r_i_docking_score>  (767) 
-7.8875110727319502

>  <s_m_subgroup_title>  (767) 
glide-dock_SP_D22_pv

>  <s_m_subgroupid>  (767) 
glide-dock_SP_D22_pv

>  <Molecule ChEMBL ID>  (767) 
CHEMBL3780184

>  <Standard Type>  (767) 
Ki

>  <Standard Value>  (767) 
54.0

>  <label>  (767) 
1

$$$$
CHEMBL4467437
     RDKit          3D

  0  0  0  0  0  0  0  0  0  0999 V3000
M  V30 BEGIN CTAB
M  V30 COUNTS 71 74 0 0 1
M  V30 BEGIN ATOM
M  V30 1 C 11.931039 10.829597 -6.281929 0
M  V30 2 O 10.962071 10.473783 -5.311308 0
M  V30 3 C 11.313134 9.364555 -4.586279 0
M  V30 4 C 11.713681 9.571262 -3.251172 0
M  V30 5 C 12.101409 8.492083 -2.438930 0
M  V30 6 C 12.086764 7.188511 -2.960866 0
M  V30 7 C 11.685980 6.972308 -4.291281 0
M  V30 8 C 11.286023 8.046032 -5.124466 0
M  V30 9 N 10.835593 7.771676 -6.434847 0
M  V30 10 C 9.710436 8.494370 -7.022729 0
M  V30 11 C 8.741884 7.561585 -7.771442 0
M  V30 12 N 9.434154 6.562379 -8.632331 0 CHG=1
M  V30 13 C 8.489046 5.625666 -9.292236 0
M  V30 14 C 9.082806 4.791325 -10.437063 0
M  V30 15 C 9.619085 5.605985 -11.622230 0
M  V30 16 N 10.085841 4.700580 -12.663470 0
M  V30 17 C 9.344994 4.224639 -13.670812 0
M  V30 18 O 8.180271 4.559938 -13.881513 0
M  V30 19 N 10.032397 3.340270 -14.413733 0
M  V30 20 N 9.556655 2.770980 -15.610261 0
M  V30 21 C 9.826381 3.599452 -16.792049 0
M  V30 22 C 11.193565 4.268157 -16.843641 0
M  V30 23 C 11.339665 5.612183 -16.435532 0
M  V30 24 C 12.600953 6.236182 -16.481693 0
M  V30 25 C 13.720780 5.520640 -16.947008 0
M  V30 26 C 13.578538 4.182551 -17.363335 0
M  V30 27 C 12.319618 3.553864 -17.306541 0
M  V30 28 F 12.198355 2.262232 -17.699734 0
M  V30 29 C 8.467451 1.868782 -15.601434 0
M  V30 30 C 8.238886 1.048330 -14.470476 0
M  V30 31 C 7.137984 0.172817 -14.414674 0
M  V30 32 C 6.250138 0.093023 -15.500880 0
M  V30 33 Br 4.716288 -1.028854 -15.395844 0
M  V30 34 C 6.486042 0.866861 -16.651726 0
M  V30 35 C 7.578346 1.754440 -16.699402 0
M  V30 36 C 10.445070 5.833998 -7.846826 0
M  V30 37 C 11.498634 6.776918 -7.265018 0
M  V30 38 H 11.686013 11.772285 -6.763857 0
M  V30 39 H 12.908055 10.963478 -5.846848 0
M  V30 40 H 12.034657 10.066150 -7.047030 0
M  V30 41 H 11.729355 10.572136 -2.845447 0
M  V30 42 H 12.401258 8.667731 -1.416705 0
M  V30 43 H 12.369661 6.349951 -2.339479 0
M  V30 44 H 11.651252 5.955058 -4.650652 0
M  V30 45 H 10.086461 9.248790 -7.711421 0
M  V30 46 H 9.145672 9.007635 -6.246866 0
M  V30 47 H 8.089391 8.187479 -8.373343 0
M  V30 48 H 8.112250 7.041298 -7.047620 0
M  V30 49 H 7.673070 6.172417 -9.725116 0
M  V30 50 H 8.060573 4.962088 -8.540045 0
M  V30 51 H 8.269862 4.172321 -10.814947 0
M  V30 52 H 9.840013 4.096950 -10.076544 0
M  V30 53 H 10.459955 6.230495 -11.314898 0
M  V30 54 H 8.849511 6.278960 -12.008606 0
M  V30 55 H 11.037428 4.378098 -12.590943 0
M  V30 56 H 10.983020 3.085850 -14.193711 0
M  V30 57 H 9.054103 4.364968 -16.875395 0
M  V30 58 H 9.752831 2.982745 -17.688240 0
M  V30 59 H 10.486156 6.168467 -16.079437 0
M  V30 60 H 12.709137 7.262931 -16.162722 0
M  V30 61 H 14.688694 5.998253 -16.981367 0
M  V30 62 H 14.440366 3.631773 -17.710485 0
M  V30 63 H 8.894726 1.100151 -13.616011 0
M  V30 64 H 6.967467 -0.427769 -13.532511 0
M  V30 65 H 5.806412 0.802923 -17.488913 0
M  V30 66 H 7.701467 2.350815 -17.587965 0
M  V30 67 H 9.905294 5.372353 -7.032105 0
M  V30 68 H 10.886041 5.034513 -8.427795 0
M  V30 69 H 12.035109 7.291809 -8.062241 0
M  V30 70 H 12.238176 6.196241 -6.714662 0
M  V30 71 H 9.907480 7.079865 -9.357787 0
M  V30 END ATOM
M  V30 BEGIN BOND
M  V30 1 1 2 1
M  V30 2 1 3 2
M  V30 3 2 4 3
M  V30 4 1 5 4
M  V30 5 2 6 5
M  V30 6 1 7 6
M  V30 7 1 8 3
M  V30 8 2 8 7
M  V30 9 1 9 8
M  V30 10 1 10 9
M  V30 11 1 11 10
M  V30 12 1 12 11
M  V30 13 1 13 12
M  V30 14 1 14 13
M  V30 15 1 15 14
M  V30 16 1 16 15
M  V30 17 1 17 16
M  V30 18 2 18 17
M  V30 19 1 19 17
M  V30 20 1 20 19
M  V30 21 1 21 20
M  V30 22 1 22 21
M  V30 23 2 23 22
M  V30 24 1 24 23
M  V30 25 2 25 24
M  V30 26 1 26 25
M  V30 27 1 27 22
M  V30 28 2 27 26
M  V30 29 1 28 27
M  V30 30 1 29 20
M  V30 31 1 30 29
M  V30 32 2 31 30
M  V30 33 1 32 31
M  V30 34 1 33 32
M  V30 35 2 34 32
M  V30 36 2 35 29
M  V30 37 1 35 34
M  V30 38 1 36 12
M  V30 39 1 37 9
M  V30 40 1 37 36
M  V30 41 1 38 1
M  V30 42 1 39 1
M  V30 43 1 40 1
M  V30 44 1 41 4
M  V30 45 1 42 5
M  V30 46 1 43 6
M  V30 47 1 44 7
M  V30 48 1 45 10
M  V30 49 1 46 10
M  V30 50 1 47 11
M  V30 51 1 48 11
M  V30 52 1 49 13
M  V30 53 1 50 13
M  V30 54 1 51 14
M  V30 55 1 52 14
M  V30 56 1 53 15
M  V30 57 1 54 15
M  V30 58 1 55 16
M  V30 59 1 56 19
M  V30 60 1 57 21
M  V30 61 1 58 21
M  V30 62 1 59 23
M  V30 63 1 60 24
M  V30 64 1 61 25
M  V30 65 1 62 26
M  V30 66 1 63 30
M  V30 67 1 64 31
M  V30 68 1 65 34
M  V30 69 1 66 35
M  V30 70 1 67 36
M  V30 71 1 68 36
M  V30 72 1 69 37
M  V30 73 1 70 37
M  V30 74 1 71 12
M  V30 END BOND
M  V30 END CTAB
M  END
>  <b_m_subgroup_collapsed>  (768) 
0

>  <r_i_docking_score>  (768) 
-7.88700043479587

>  <s_m_subgroup_title>  (768) 
glide-dock_SP_D22_pv

>  <s_m_subgroupid>  (768) 
glide-dock_SP_D22_pv

>  <Molecule ChEMBL ID>  (768) 
CHEMBL4467437

>  <Standard Type>  (768) 
Ki

>  <Standard Value>  (768) 
22.0

>  <label>  (768) 
1

$$$$
CHEMBL1923293
     RDKit          3D

  0  0  0  0  0  0  0  0  0  0999 V3000
M  V30 BEGIN CTAB
M  V30 COUNTS 50 53 0 0 1
M  V30 BEGIN ATOM
M  V30 1 C 9.875711 2.350014 -14.789060 0
M  V30 2 O 8.471375 2.344091 -14.575154 0
M  V30 3 C 7.920051 3.376707 -13.846689 0
M  V30 4 C 8.631882 4.540251 -13.455964 0
M  V30 5 C 7.999408 5.555214 -12.704170 0
M  V30 6 C 8.751131 6.833070 -12.360973 0
M  V30 7 N 8.885948 7.085984 -10.909778 0 CHG=1
M  V30 8 C 9.723398 6.091509 -10.200833 0
M  V30 9 C 9.761282 6.357798 -8.690112 0
M  V30 10 N 10.131521 7.745773 -8.422318 0
M  V30 11 C 10.705016 8.087080 -7.179142 0
M  V30 12 C 11.285433 9.362548 -6.993308 0
M  V30 13 C 11.887301 9.719276 -5.775943 0
M  V30 14 C 11.917528 8.806243 -4.709470 0
M  V30 15 C 11.365813 7.512026 -4.884890 0
M  V30 16 C 10.751269 7.169993 -6.102070 0
M  V30 17 O 11.405024 6.573269 -3.879314 0
M  V30 18 C 12.254098 6.896282 -2.785507 0
M  V30 19 C 12.071861 8.376060 -2.424584 0
M  V30 20 O 12.485425 9.182111 -3.516490 0
M  V30 21 C 9.318290 8.748036 -9.109286 0
M  V30 22 C 9.293696 8.480585 -10.620384 0
M  V30 23 C 6.650036 5.401383 -12.324632 0
M  V30 24 C 5.939537 4.247425 -12.698761 0
M  V30 25 C 6.568270 3.246459 -13.460892 0
M  V30 26 F 5.874335 2.134874 -13.802876 0
M  V30 27 H 10.166175 1.428032 -15.292731 0
M  V30 28 H 10.178264 3.182636 -15.425327 0
M  V30 29 H 10.424478 2.395708 -13.847011 0
M  V30 30 H 9.662791 4.678920 -13.743266 0
M  V30 31 H 9.748692 6.814193 -12.801274 0
M  V30 32 H 8.204893 7.658395 -12.819941 0
M  V30 33 H 9.372375 5.076362 -10.389311 0
M  V30 34 H 10.733853 6.172507 -10.596391 0
M  V30 35 H 8.787001 6.153127 -8.242359 0
M  V30 36 H 10.479980 5.668266 -8.246935 0
M  V30 37 H 11.288191 10.089161 -7.787251 0
M  V30 38 H 12.325108 10.697724 -5.668705 0
M  V30 39 H 10.317661 6.185410 -6.178631 0
M  V30 40 H 11.993972 6.258877 -1.940206 0
M  V30 41 H 13.288349 6.682418 -3.046967 0
M  V30 42 H 11.017627 8.574485 -2.246372 0
M  V30 43 H 12.634161 8.644513 -1.529792 0
M  V30 44 H 8.311756 8.709611 -8.695713 0
M  V30 45 H 9.661684 9.766841 -8.955715 0
M  V30 46 H 10.280653 8.666383 -11.047066 0
M  V30 47 H 8.599580 9.175655 -11.095450 0
M  V30 48 H 6.146939 6.169114 -11.754245 0
M  V30 49 H 4.907888 4.130291 -12.402998 0
M  V30 50 H 7.937609 7.039300 -10.531880 0
M  V30 END ATOM
M  V30 BEGIN BOND
M  V30 1 1 2 1
M  V30 2 1 3 2
M  V30 3 1 4 3
M  V30 4 2 5 4
M  V30 5 1 6 5
M  V30 6 1 7 6
M  V30 7 1 8 7
M  V30 8 1 9 8
M  V30 9 1 10 9
M  V30 10 1 11 10
M  V30 11 1 12 11
M  V30 12 2 13 12
M  V30 13 1 14 13
M  V30 14 2 15 14
M  V30 15 2 16 11
M  V30 16 1 16 15
M  V30 17 1 17 15
M  V30 18 1 18 17
M  V30 19 1 19 18
M  V30 20 1 20 14
M  V30 21 1 20 19
M  V30 22 1 21 10
M  V30 23 1 22 7
M  V30 24 1 22 21
M  V30 25 1 23 5
M  V30 26 2 24 23
M  V30 27 2 25 3
M  V30 28 1 25 24
M  V30 29 1 26 25
M  V30 30 1 27 1
M  V30 31 1 28 1
M  V30 32 1 29 1
M  V30 33 1 30 4
M  V30 34 1 31 6
M  V30 35 1 32 6
M  V30 36 1 33 8
M  V30 37 1 34 8
M  V30 38 1 35 9
M  V30 39 1 36 9
M  V30 40 1 37 12
M  V30 41 1 38 13
M  V30 42 1 39 16
M  V30 43 1 40 18
M  V30 44 1 41 18
M  V30 45 1 42 19
M  V30 46 1 43 19
M  V30 47 1 44 21
M  V30 48 1 45 21
M  V30 49 1 46 22
M  V30 50 1 47 22
M  V30 51 1 48 23
M  V30 52 1 49 24
M  V30 53 1 50 7
M  V30 END BOND
M  V30 END CTAB
M  END
>  <b_m_subgroup_collapsed>  (769) 
0

>  <r_i_docking_score>  (769) 
-7.8862039194736404

>  <s_m_subgroup_title>  (769) 
glide-dock_SP_D22_pv

>  <s_m_subgroupid>  (769) 
glide-dock_SP_D22_pv

>  <Molecule ChEMBL ID>  (769) 
CHEMBL1923293

>  <Standard Type>  (769) 
Ki

>  <Standard Value>  (769) 
16000.0

>  <label>  (769) 
0

$$$$
CHEMBL5857085
     RDKit          3D

  0  0  0  0  0  0  0  0  0  0999 V3000
M  V30 BEGIN CTAB
M  V30 COUNTS 52 56 0 0 1
M  V30 BEGIN ATOM
M  V30 1 O 10.730575 4.780085 -13.336350 0
M  V30 2 C 9.627166 4.263924 -13.524170 0
M  V30 3 C 9.491105 3.125326 -14.503492 0
M  V30 4 C 10.606576 2.609001 -15.194242 0
M  V30 5 N 10.519025 1.606887 -16.093107 0
M  V30 6 C 9.303897 1.068027 -16.344072 0
M  V30 7 C 9.273333 -0.031150 -17.400160 0
M  V30 8 F 9.689460 0.458976 -18.568161 0
M  V30 9 F 10.085196 -1.027872 -17.045368 0
M  V30 10 F 8.043973 -0.519075 -17.568901 0
M  V30 11 C 8.127371 1.504383 -15.692541 0
M  V30 12 C 8.228613 2.549436 -14.754103 0
M  V30 13 C 7.071559 3.075691 -14.029592 0
M  V30 14 C 7.238032 4.080433 -13.149028 0
M  V30 15 N 8.491983 4.667510 -12.885849 0
M  V30 16 C 8.551562 5.733631 -11.878745 0
M  V30 17 C 9.077956 5.186981 -10.535588 0
M  V30 18 N 9.236559 6.231611 -9.527265 0
M  V30 19 C 10.404439 7.074677 -9.801136 0
M  V30 20 C 10.546487 8.156290 -8.716609 0
M  V30 21 N 10.665375 7.555072 -7.388766 0
M  V30 22 C 10.957174 8.456339 -6.351584 0
M  V30 23 N 10.887434 9.778150 -6.479557 0
M  V30 24 O 11.280543 10.341629 -5.235837 0
M  V30 25 C 11.607600 9.331159 -4.347184 0
M  V30 26 C 12.050745 9.371976 -3.018659 0
M  V30 27 C 12.283394 8.146699 -2.363235 0
M  V30 28 C 12.087710 6.924981 -3.050544 0
M  V30 29 C 11.665442 6.910874 -4.400210 0
M  V30 30 C 11.400283 8.138598 -5.046265 0
M  V30 31 C 9.531974 6.676745 -7.115871 0
M  V30 32 C 9.414619 5.603906 -8.216277 0
M  V30 33 H 11.598007 3.007859 -15.034714 0
M  V30 34 H 7.170367 1.052671 -15.909754 0
M  V30 35 H 6.100503 2.638091 -14.208953 0
M  V30 36 H 6.417253 4.493475 -12.579329 0
M  V30 37 H 7.567031 6.179572 -11.725491 0
M  V30 38 H 9.174238 6.543277 -12.259896 0
M  V30 39 H 10.019753 4.652847 -10.666021 0
M  V30 40 H 8.352588 4.457192 -10.172894 0
M  V30 41 H 10.305224 7.566808 -10.767226 0
M  V30 42 H 11.306473 6.468791 -9.844065 0
M  V30 43 H 9.680649 8.821275 -8.744548 0
M  V30 44 H 11.427471 8.764988 -8.926283 0
M  V30 45 H 12.186308 10.314171 -2.509916 0
M  V30 46 H 12.609620 8.145902 -1.334219 0
M  V30 47 H 12.270721 5.989435 -2.541375 0
M  V30 48 H 11.532122 5.973539 -4.919604 0
M  V30 49 H 9.642123 6.191300 -6.147405 0
M  V30 50 H 8.613028 7.265244 -7.069287 0
M  V30 51 H 8.560775 4.961014 -7.998641 0
M  V30 52 H 10.304791 4.973855 -8.228508 0
M  V30 END ATOM
M  V30 BEGIN BOND
M  V30 1 2 2 1
M  V30 2 1 3 2
M  V30 3 2 4 3
M  V30 4 1 5 4
M  V30 5 2 6 5
M  V30 6 1 7 6
M  V30 7 1 8 7
M  V30 8 1 9 7
M  V30 9 1 10 7
M  V30 10 1 11 6
M  V30 11 1 12 3
M  V30 12 2 12 11
M  V30 13 1 13 12
M  V30 14 2 14 13
M  V30 15 1 15 2
M  V30 16 1 15 14
M  V30 17 1 16 15
M  V30 18 1 17 16
M  V30 19 1 18 17
M  V30 20 1 19 18
M  V30 21 1 20 19
M  V30 22 1 21 20
M  V30 23 1 22 21
M  V30 24 2 23 22
M  V30 25 1 24 23
M  V30 26 1 25 24
M  V30 27 2 26 25
M  V30 28 1 27 26
M  V30 29 2 28 27
M  V30 30 1 29 28
M  V30 31 1 30 22
M  V30 32 1 30 25
M  V30 33 2 30 29
M  V30 34 1 31 21
M  V30 35 1 32 18
M  V30 36 1 32 31
M  V30 37 1 33 4
M  V30 38 1 34 11
M  V30 39 1 35 13
M  V30 40 1 36 14
M  V30 41 1 37 16
M  V30 42 1 38 16
M  V30 43 1 39 17
M  V30 44 1 40 17
M  V30 45 1 41 19
M  V30 46 1 42 19
M  V30 47 1 43 20
M  V30 48 1 44 20
M  V30 49 1 45 26
M  V30 50 1 46 27
M  V30 51 1 47 28
M  V30 52 1 48 29
M  V30 53 1 49 31
M  V30 54 1 50 31
M  V30 55 1 51 32
M  V30 56 1 52 32
M  V30 END BOND
M  V30 END CTAB
M  END
>  <b_m_subgroup_collapsed>  (770) 
0

>  <r_i_docking_score>  (770) 
-7.8856086276211599

>  <s_m_subgroup_title>  (770) 
glide-dock_SP_D22_pv

>  <s_m_subgroupid>  (770) 
glide-dock_SP_D22_pv

>  <Molecule ChEMBL ID>  (770) 
CHEMBL5857085

>  <Standard Type>  (770) 
Ki

>  <Standard Value>  (770) 
10000.0

>  <label>  (770) 
0

$$$$
CHEMBL77744
     RDKit          3D

  0  0  0  0  0  0  0  0  0  0999 V3000
M  V30 BEGIN CTAB
M  V30 COUNTS 57 60 0 0 1
M  V30 BEGIN ATOM
M  V30 1 C 12.411722 8.028605 -2.247876 0
M  V30 2 C 12.169069 6.896476 -3.046652 0
M  V30 3 C 11.615784 7.043831 -4.334352 0
M  V30 4 C 11.286887 8.329392 -4.822692 0
M  V30 5 C 10.680301 8.551358 -6.197060 0
M  V30 6 C 11.024682 7.488241 -7.255232 0
M  V30 7 N 10.724543 7.999918 -8.611220 0 CFG=2 CHG=1
M  V30 8 C 9.281413 7.998763 -8.955450 0
M  V30 9 C 9.108616 8.784711 -10.258058 0
M  V30 10 C 9.875937 8.160593 -11.431190 0 CFG=2
M  V30 11 C 9.427492 6.791475 -11.862799 0
M  V30 12 C 10.081710 5.880004 -12.643648 0
M  V30 13 C 9.210091 4.755802 -12.710621 0
M  V30 14 C 9.465062 3.425452 -13.386179 0
M  V30 15 C 8.270515 2.978526 -14.255451 0
M  V30 16 C 8.527109 1.611944 -14.909601 0
M  V30 17 C 9.808590 1.633346 -15.755526 0
M  V30 18 C 11.012383 2.100458 -14.924322 0
M  V30 19 C 10.744471 3.455248 -14.252013 0
M  V30 20 N 8.093327 4.961011 -12.022173 0
M  V30 21 N 8.212095 6.218766 -11.550551 0
M  V30 22 C 11.364009 8.156631 -11.017539 0
M  V30 23 C 11.555052 7.398549 -9.687429 0
M  V30 24 C 11.529954 9.457229 -4.013167 0
M  V30 25 C 12.088202 9.306258 -2.731413 0
M  V30 26 H 12.843950 7.920559 -1.263994 0
M  V30 27 H 12.404683 5.912196 -2.670906 0
M  V30 28 H 11.428513 6.160078 -4.926463 0
M  V30 29 H 9.598475 8.621873 -6.074873 0
M  V30 30 H 11.012197 9.530855 -6.551148 0
M  V30 31 H 12.086041 7.267445 -7.195894 0
M  V30 32 H 10.500387 6.547754 -7.072528 0
M  V30 33 H 8.906516 6.977634 -9.037982 0
M  V30 34 H 8.696719 8.481448 -8.171755 0
M  V30 35 H 8.086081 8.972301 -10.539171 0
M  V30 36 H 9.498631 9.772320 -10.055235 0
M  V30 37 H 9.705988 8.819723 -12.283510 0
M  V30 38 H 11.058067 5.994311 -13.087867 0
M  V30 39 H 9.630674 2.677233 -12.614947 0
M  V30 40 H 7.361253 2.923184 -13.654671 0
M  V30 41 H 8.086499 3.724683 -15.026340 0
M  V30 42 H 8.610715 0.846600 -14.138093 0
M  V30 43 H 7.676455 1.331758 -15.531072 0
M  V30 44 H 10.000698 0.641170 -16.166716 0
M  V30 45 H 9.672273 2.300842 -16.607899 0
M  V30 46 H 11.234079 1.360126 -14.156486 0
M  V30 47 H 11.897068 2.167103 -15.558283 0
M  V30 48 H 10.653142 4.225194 -15.018929 0
M  V30 49 H 11.607430 3.723969 -13.642529 0
M  V30 50 H 7.467487 6.678478 -11.015769 0
M  V30 51 H 11.990200 7.726722 -11.800380 0
M  V30 52 H 11.721471 9.178386 -10.883753 0
M  V30 53 H 12.608748 7.438736 -9.411153 0
M  V30 54 H 11.285748 6.348785 -9.796008 0
M  V30 55 H 11.283409 10.447710 -4.367094 0
M  V30 56 H 12.265732 10.171688 -2.112879 0
M  V30 57 H 11.003503 8.970325 -8.592307 0
M  V30 END ATOM
M  V30 BEGIN BOND
M  V30 1 2 2 1
M  V30 2 1 3 2
M  V30 3 2 4 3
M  V30 4 1 5 4
M  V30 5 1 6 5
M  V30 6 1 7 6
M  V30 7 1 8 7
M  V30 8 1 9 8
M  V30 9 1 10 9
M  V30 10 1 11 10
M  V30 11 2 12 11
M  V30 12 1 13 12
M  V30 13 1 14 13
M  V30 14 1 15 14
M  V30 15 1 16 15
M  V30 16 1 17 16
M  V30 17 1 18 17
M  V30 18 1 19 14
M  V30 19 1 19 18
M  V30 20 2 20 13
M  V30 21 1 21 11
M  V30 22 1 21 20
M  V30 23 1 22 10
M  V30 24 1 23 7
M  V30 25 1 23 22
M  V30 26 1 24 4
M  V30 27 1 25 1
M  V30 28 2 25 24
M  V30 29 1 26 1
M  V30 30 1 27 2
M  V30 31 1 28 3
M  V30 32 1 29 5
M  V30 33 1 30 5
M  V30 34 1 31 6
M  V30 35 1 32 6
M  V30 36 1 33 8
M  V30 37 1 34 8
M  V30 38 1 35 9
M  V30 39 1 36 9
M  V30 40 1 10 37 CFG=3
M  V30 41 1 38 12
M  V30 42 1 39 14
M  V30 43 1 40 15
M  V30 44 1 41 15
M  V30 45 1 42 16
M  V30 46 1 43 16
M  V30 47 1 44 17
M  V30 48 1 45 17
M  V30 49 1 46 18
M  V30 50 1 47 18
M  V30 51 1 48 19
M  V30 52 1 49 19
M  V30 53 1 50 21
M  V30 54 1 51 22
M  V30 55 1 52 22
M  V30 56 1 53 23
M  V30 57 1 54 23
M  V30 58 1 55 24
M  V30 59 1 56 25
M  V30 60 1 7 57 CFG=1
M  V30 END BOND
M  V30 END CTAB
M  END
>  <b_m_subgroup_collapsed>  (771) 
0

>  <r_i_docking_score>  (771) 
-7.8853986089365504

>  <s_m_subgroup_title>  (771) 
glide-dock_SP_D22_pv

>  <s_m_subgroupid>  (771) 
glide-dock_SP_D22_pv

>  <Molecule ChEMBL ID>  (771) 
CHEMBL77744

>  <Standard Type>  (771) 
Ki

>  <Standard Value>  (771) 
61.0

>  <label>  (771) 
1

$$$$
CHEMBL246439
     RDKit          3D

  0  0  0  0  0  0  0  0  0  0999 V3000
M  V30 BEGIN CTAB
M  V30 COUNTS 49 52 0 0 1
M  V30 BEGIN ATOM
M  V30 1 C 7.186343 4.773532 -11.706037 0
M  V30 2 C 8.507306 4.878824 -12.389023 0
M  V30 3 N 8.985572 3.858716 -13.192487 0
M  V30 4 C 10.188580 4.208272 -13.765085 0
M  V30 5 C 11.033919 3.539590 -14.666717 0
M  V30 6 C 12.201191 4.179420 -15.118468 0
M  V30 7 C 12.518805 5.466490 -14.646951 0
M  V30 8 C 11.679970 6.118361 -13.722198 0
M  V30 9 C 10.486435 5.509045 -13.264785 0
M  V30 10 C 9.421271 5.904402 -12.377903 0
M  V30 11 C 9.289008 7.211845 -11.649743 0
M  V30 12 N 9.993037 7.222002 -10.339926 0 CFG=2 CHG=1
M  V30 13 C 9.284831 6.422183 -9.303290 0
M  V30 14 C 9.951491 6.507656 -7.916518 0
M  V30 15 C 10.159371 7.963984 -7.437814 0 CFG=1
M  V30 16 O 8.886271 8.572049 -7.388426 0
M  V30 17 C 10.830397 8.095131 -6.065491 0
M  V30 18 C 10.948586 9.376394 -5.476957 0
M  V30 19 C 11.477719 9.528382 -4.181017 0
M  V30 20 C 11.899902 8.399763 -3.456853 0
M  V30 21 Cl 12.486494 8.572816 -1.846884 0
M  V30 22 C 11.807874 7.122416 -4.036230 0
M  V30 23 C 11.284554 6.971441 -5.333875 0
M  V30 24 C 10.965488 8.695704 -8.530409 0
M  V30 25 C 10.274266 8.616987 -9.906013 0
M  V30 26 H 7.286028 5.000877 -10.647988 0
M  V30 27 H 6.472188 5.481668 -12.125642 0
M  V30 28 H 6.763153 3.772575 -11.794310 0
M  V30 29 H 8.491943 2.990257 -13.344150 0
M  V30 30 H 10.784469 2.550224 -15.021072 0
M  V30 31 H 12.855891 3.683725 -15.821654 0
M  V30 32 H 13.421149 5.955231 -14.986010 0
M  V30 33 H 11.945848 7.106411 -13.377608 0
M  V30 34 H 8.239741 7.471428 -11.505395 0
M  V30 35 H 9.694660 8.001761 -12.281779 0
M  V30 36 H 9.262428 5.377083 -9.610334 0
M  V30 37 H 8.245964 6.743863 -9.226903 0
M  V30 38 H 10.910613 5.991321 -7.965783 0
M  V30 39 H 9.340172 5.956154 -7.198047 0
M  V30 40 H 8.269945 8.001231 -6.944783 0
M  V30 41 H 10.603551 10.251588 -6.007325 0
M  V30 42 H 11.534212 10.508104 -3.728419 0
M  V30 43 H 12.127176 6.252775 -3.482125 0
M  V30 44 H 11.220840 5.972784 -5.735371 0
M  V30 45 H 11.106855 9.747594 -8.273320 0
M  V30 46 H 11.965311 8.262480 -8.598130 0
M  V30 47 H 10.916088 9.095338 -10.646049 0
M  V30 48 H 9.341237 9.184961 -9.890912 0
M  V30 49 H 10.888634 6.781202 -10.487971 0
M  V30 END ATOM
M  V30 BEGIN BOND
M  V30 1 1 2 1
M  V30 2 1 3 2
M  V30 3 1 4 3
M  V30 4 2 5 4
M  V30 5 1 6 5
M  V30 6 2 7 6
M  V30 7 1 8 7
M  V30 8 1 9 4
M  V30 9 2 9 8
M  V30 10 2 10 2
M  V30 11 1 10 9
M  V30 12 1 11 10
M  V30 13 1 12 11
M  V30 14 1 13 12
M  V30 15 1 14 13
M  V30 16 1 15 14
M  V30 17 1 15 16 CFG=1
M  V30 18 1 17 15
M  V30 19 1 18 17
M  V30 20 2 19 18
M  V30 21 1 20 19
M  V30 22 1 21 20
M  V30 23 2 22 20
M  V30 24 2 23 17
M  V30 25 1 23 22
M  V30 26 1 24 15
M  V30 27 1 25 12
M  V30 28 1 25 24
M  V30 29 1 26 1
M  V30 30 1 27 1
M  V30 31 1 28 1
M  V30 32 1 29 3
M  V30 33 1 30 5
M  V30 34 1 31 6
M  V30 35 1 32 7
M  V30 36 1 33 8
M  V30 37 1 34 11
M  V30 38 1 35 11
M  V30 39 1 36 13
M  V30 40 1 37 13
M  V30 41 1 38 14
M  V30 42 1 39 14
M  V30 43 1 40 16
M  V30 44 1 41 18
M  V30 45 1 42 19
M  V30 46 1 43 22
M  V30 47 1 44 23
M  V30 48 1 45 24
M  V30 49 1 46 24
M  V30 50 1 47 25
M  V30 51 1 48 25
M  V30 52 1 12 49 CFG=3
M  V30 END BOND
M  V30 END CTAB
M  END
>  <b_m_subgroup_collapsed>  (772) 
0

>  <r_i_docking_score>  (772) 
-7.8841932735197604

>  <s_m_subgroup_title>  (772) 
glide-dock_SP_D22_pv

>  <s_m_subgroupid>  (772) 
glide-dock_SP_D22_pv

>  <Molecule ChEMBL ID>  (772) 
CHEMBL246439

>  <Standard Type>  (772) 
Ki

>  <Standard Value>  (772) 
15.4

>  <label>  (772) 
1

$$$$
CHEMBL272873
     RDKit          3D

  0  0  0  0  0  0  0  0  0  0999 V3000
M  V30 BEGIN CTAB
M  V30 COUNTS 50 53 0 0 1
M  V30 BEGIN ATOM
M  V30 1 F 12.884480 2.706945 -17.723358 0
M  V30 2 C 11.941520 2.690620 -16.781815 0
M  V30 3 C 12.084276 3.907485 -15.864059 0
M  V30 4 O 11.011589 3.905354 -14.931403 0
M  V30 5 C 10.938071 4.936380 -14.019324 0
M  V30 6 C 11.900476 5.968596 -13.902120 0
M  V30 7 C 11.755881 6.971411 -12.924533 0
M  V30 8 C 10.654144 6.970716 -12.040299 0
M  V30 9 N 10.566078 7.967287 -11.047238 0
M  V30 10 C 11.707429 8.109764 -10.148128 0
M  V30 11 C 11.428179 7.373284 -8.828306 0
M  V30 12 N 10.175803 7.869322 -8.224443 0 CHG=1
M  V30 13 C 9.957319 7.388241 -6.843170 0
M  V30 14 C 10.694810 8.247548 -5.859924 0
M  V30 15 C 10.828554 9.658605 -5.886067 0
M  V30 16 N 11.369937 10.172332 -4.813890 0
M  V30 17 N 11.686550 9.094102 -4.051055 0
M  V30 18 C 12.254265 9.139709 -2.818323 0
M  V30 19 C 12.474263 7.960406 -2.149512 0
M  V30 20 C 12.139904 6.721424 -2.749851 0
M  V30 21 C 11.584451 6.685660 -4.008618 0
M  V30 22 C 11.314143 7.896562 -4.688587 0
M  V30 23 C 9.021038 7.647628 -9.121076 0
M  V30 24 C 9.265135 8.322687 -10.486161 0
M  V30 25 C 9.681181 5.952872 -12.177382 0
M  V30 26 C 9.828655 4.947274 -13.151599 0
M  V30 27 H 12.043821 1.756606 -16.228575 0
M  V30 28 H 10.976832 2.687562 -17.288677 0
M  V30 29 H 12.059873 4.820681 -16.460800 0
M  V30 30 H 13.043275 3.864542 -15.345896 0
M  V30 31 H 12.768868 6.010818 -14.542354 0
M  V30 32 H 12.508788 7.743474 -12.858055 0
M  V30 33 H 11.875341 9.171240 -9.961074 0
M  V30 34 H 12.627398 7.732442 -10.592298 0
M  V30 35 H 12.265162 7.500270 -8.140260 0
M  V30 36 H 11.286090 6.306480 -9.008064 0
M  V30 37 H 10.246496 6.339171 -6.756404 0
M  V30 38 H 8.893436 7.423959 -6.599820 0
M  V30 39 H 10.485942 10.336879 -6.648720 0
M  V30 40 H 12.484782 10.119107 -2.410600 0
M  V30 41 H 12.887722 7.988178 -1.147227 0
M  V30 42 H 12.308263 5.790287 -2.214355 0
M  V30 43 H 11.294329 5.755456 -4.472543 0
M  V30 44 H 8.829062 6.580257 -9.238465 0
M  V30 45 H 8.146782 8.084340 -8.646992 0
M  V30 46 H 9.238790 9.401783 -10.352622 0
M  V30 47 H 8.468077 8.096653 -11.191004 0
M  V30 48 H 8.820601 5.909541 -11.526614 0
M  V30 49 H 9.084564 4.167668 -13.226473 0
M  V30 50 H 10.265164 8.870981 -8.164654 0
M  V30 END ATOM
M  V30 BEGIN BOND
M  V30 1 1 2 1
M  V30 2 1 3 2
M  V30 3 1 4 3
M  V30 4 1 5 4
M  V30 5 1 6 5
M  V30 6 2 7 6
M  V30 7 1 8 7
M  V30 8 1 9 8
M  V30 9 1 10 9
M  V30 10 1 11 10
M  V30 11 1 12 11
M  V30 12 1 13 12
M  V30 13 1 14 13
M  V30 14 1 15 14
M  V30 15 2 16 15
M  V30 16 1 17 16
M  V30 17 1 18 17
M  V30 18 2 19 18
M  V30 19 1 20 19
M  V30 20 2 21 20
M  V30 21 2 22 14
M  V30 22 1 22 17
M  V30 23 1 22 21
M  V30 24 1 23 12
M  V30 25 1 24 9
M  V30 26 1 24 23
M  V30 27 2 25 8
M  V30 28 2 26 5
M  V30 29 1 26 25
M  V30 30 1 27 2
M  V30 31 1 28 2
M  V30 32 1 29 3
M  V30 33 1 30 3
M  V30 34 1 31 6
M  V30 35 1 32 7
M  V30 36 1 33 10
M  V30 37 1 34 10
M  V30 38 1 35 11
M  V30 39 1 36 11
M  V30 40 1 37 13
M  V30 41 1 38 13
M  V30 42 1 39 15
M  V30 43 1 40 18
M  V30 44 1 41 19
M  V30 45 1 42 20
M  V30 46 1 43 21
M  V30 47 1 44 23
M  V30 48 1 45 23
M  V30 49 1 46 24
M  V30 50 1 47 24
M  V30 51 1 48 25
M  V30 52 1 49 26
M  V30 53 1 50 12
M  V30 END BOND
M  V30 END CTAB
M  END
>  <b_m_subgroup_collapsed>  (773) 
0

>  <r_i_docking_score>  (773) 
-7.88394755915931

>  <s_m_subgroup_title>  (773) 
glide-dock_SP_D22_pv

>  <s_m_subgroupid>  (773) 
glide-dock_SP_D22_pv

>  <Molecule ChEMBL ID>  (773) 
CHEMBL272873

>  <Standard Type>  (773) 
Ki

>  <Standard Value>  (773) 
66000.0

>  <label>  (773) 
0

$$$$
CHEMBL149723
     RDKit          3D

  0  0  0  0  0  0  0  0  0  0999 V3000
M  V30 BEGIN CTAB
M  V30 COUNTS 57 60 0 0 1
M  V30 BEGIN ATOM
M  V30 1 C 4.577991 -1.584487 -15.384193 0
M  V30 2 S 4.302405 -0.228122 -14.209544 0
M  V30 3 C 5.737113 0.808536 -14.205297 0
M  V30 4 C 6.901361 0.457296 -14.927563 0
M  V30 5 C 7.974560 1.364227 -14.923345 0
M  V30 6 C 7.922735 2.572358 -14.246847 0
M  V30 7 C 6.774767 2.932927 -13.507226 0
M  V30 8 C 6.724141 4.171831 -12.674819 0
M  V30 9 O 5.740529 4.909504 -12.702340 0
M  V30 10 N 7.777396 4.330801 -11.856095 0
M  V30 11 C 7.858525 5.308068 -10.778214 0
M  V30 12 C 8.944448 6.366321 -11.031177 0 CFG=1
M  V30 13 C 8.852038 7.001252 -12.424293 0
M  V30 14 C 8.953483 8.510948 -12.223958 0
M  V30 15 C 9.337741 8.693847 -10.763394 0
M  V30 16 N 8.886081 7.480507 -10.054778 0 CFG=2 CHG=1
M  V30 17 C 9.601919 7.241826 -8.775038 0
M  V30 18 C 9.379962 8.366367 -7.735660 0
M  V30 19 C 10.297497 8.262983 -6.525368 0
M  V30 20 C 10.453045 7.039659 -5.843251 0
M  V30 21 C 11.286240 6.950916 -4.710866 0
M  V30 22 C 11.973563 8.087142 -4.247712 0
M  V30 23 C 11.831214 9.308373 -4.930453 0
M  V30 24 C 10.997705 9.399068 -6.063471 0
M  V30 25 C 5.686016 2.029718 -13.488207 0
M  V30 26 O 9.087909 3.281988 -14.354297 0
M  V30 27 C 10.052801 2.449303 -15.020393 0
M  V30 28 C 9.299895 1.224101 -15.587991 0
M  V30 29 H 3.686345 -2.208198 -15.453816 0
M  V30 30 H 4.796475 -1.194366 -16.377630 0
M  V30 31 H 5.407463 -2.213435 -15.060658 0
M  V30 32 H 6.979671 -0.471043 -15.473255 0
M  V30 33 H 8.524673 3.654631 -11.929783 0
M  V30 34 H 8.071759 4.775090 -9.850965 0
M  V30 35 H 6.885879 5.772317 -10.646873 0
M  V30 36 H 9.925291 5.894128 -10.951535 0
M  V30 37 H 7.911638 6.778968 -12.928855 0
M  V30 38 H 9.653807 6.602515 -13.046713 0
M  V30 39 H 7.982157 8.972713 -12.409081 0
M  V30 40 H 9.677556 8.972334 -12.894252 0
M  V30 41 H 8.879612 9.588672 -10.341427 0
M  V30 42 H 10.421523 8.793104 -10.682111 0
M  V30 43 H 10.668028 7.134774 -8.982529 0
M  V30 44 H 9.266273 6.291061 -8.360268 0
M  V30 45 H 8.345274 8.351831 -7.388294 0
M  V30 46 H 9.534981 9.346979 -8.184126 0
M  V30 47 H 9.909083 6.168889 -6.168417 0
M  V30 48 H 11.387568 6.009366 -4.191548 0
M  V30 49 H 12.611384 8.020640 -3.378253 0
M  V30 50 H 12.369971 10.171928 -4.579848 0
M  V30 51 H 10.897170 10.347705 -6.570437 0
M  V30 52 H 4.795639 2.277819 -12.928037 0
M  V30 53 H 10.578705 3.001368 -15.800103 0
M  V30 54 H 10.791739 2.130906 -14.283340 0
M  V30 55 H 9.783413 0.280834 -15.331124 0
M  V30 56 H 9.180137 1.286766 -16.669750 0
M  V30 57 H 7.880677 7.626542 -9.883548 0
M  V30 END ATOM
M  V30 BEGIN BOND
M  V30 1 1 2 1
M  V30 2 1 3 2
M  V30 3 2 4 3
M  V30 4 1 5 4
M  V30 5 2 6 5
M  V30 6 1 7 6
M  V30 7 1 8 7
M  V30 8 2 9 8
M  V30 9 1 10 8
M  V30 10 1 11 10
M  V30 11 1 12 11
M  V30 12 1 13 12
M  V30 13 1 14 13
M  V30 14 1 15 14
M  V30 15 1 16 12
M  V30 16 1 16 15
M  V30 17 1 17 16
M  V30 18 1 18 17
M  V30 19 1 19 18
M  V30 20 2 20 19
M  V30 21 1 21 20
M  V30 22 2 22 21
M  V30 23 1 23 22
M  V30 24 1 24 19
M  V30 25 2 24 23
M  V30 26 1 25 3
M  V30 27 2 25 7
M  V30 28 1 26 6
M  V30 29 1 27 26
M  V30 30 1 28 5
M  V30 31 1 28 27
M  V30 32 1 29 1
M  V30 33 1 30 1
M  V30 34 1 31 1
M  V30 35 1 32 4
M  V30 36 1 33 10
M  V30 37 1 34 11
M  V30 38 1 35 11
M  V30 39 1 12 36 CFG=3
M  V30 40 1 37 13
M  V30 41 1 38 13
M  V30 42 1 39 14
M  V30 43 1 40 14
M  V30 44 1 41 15
M  V30 45 1 42 15
M  V30 46 1 43 17
M  V30 47 1 44 17
M  V30 48 1 45 18
M  V30 49 1 46 18
M  V30 50 1 47 20
M  V30 51 1 48 21
M  V30 52 1 49 22
M  V30 53 1 50 23
M  V30 54 1 51 24
M  V30 55 1 52 25
M  V30 56 1 53 27
M  V30 57 1 54 27
M  V30 58 1 55 28
M  V30 59 1 56 28
M  V30 60 1 16 57 CFG=1
M  V30 END BOND
M  V30 END CTAB
M  END
>  <b_m_subgroup_collapsed>  (774) 
0

>  <r_i_docking_score>  (774) 
-7.8799047508295104

>  <s_m_subgroup_title>  (774) 
glide-dock_SP_D22_pv

>  <s_m_subgroupid>  (774) 
glide-dock_SP_D22_pv

>  <Molecule ChEMBL ID>  (774) 
CHEMBL149723

>  <Standard Type>  (774) 
Ki

>  <Standard Value>  (774) 
6.7

>  <label>  (774) 
1

$$$$
CHEMBL5885188
     RDKit          3D

  0  0  0  0  0  0  0  0  0  0999 V3000
M  V30 BEGIN CTAB
M  V30 COUNTS 64 68 0 0 1
M  V30 BEGIN ATOM
M  V30 1 C 3.540751 -1.027663 -15.451097 0 CHG=-1
M  V30 2 N 4.638533 -0.681496 -15.345438 0 CHG=1
M  V30 3 C 5.961162 -0.265060 -15.211078 0
M  V30 4 C 6.539736 -0.252058 -13.979672 0
M  V30 5 C 7.869637 0.172264 -14.246168 0
M  V30 6 C 7.973932 0.375719 -15.598166 0
M  V30 7 S 9.330086 0.925792 -16.607327 0
M  V30 8 O 10.079789 -0.275483 -17.006166 0
M  V30 9 O 8.763887 1.844616 -17.607349 0
M  V30 10 N 10.342464 1.840525 -15.543159 0
M  V30 11 C 9.961459 3.195142 -15.119769 0 CFG=1
M  V30 12 C 8.898510 3.131093 -14.013110 0
M  V30 13 C 8.520478 4.502305 -13.482582 0
M  V30 14 C 9.745117 5.264980 -12.961805 0 CFG=2
M  V30 15 C 9.297602 6.660161 -12.505113 0
M  V30 16 C 8.711865 6.739510 -11.090659 0
M  V30 17 N 9.742192 6.796096 -10.026721 0 CHG=1
M  V30 18 C 10.451688 8.099055 -9.958907 0
M  V30 19 C 11.640709 7.998235 -9.000178 0
M  V30 20 N 11.213902 7.514315 -7.683863 0
M  V30 21 C 11.218007 8.413025 -6.594056 0
M  V30 22 N 11.062658 9.695408 -6.834385 0
M  V30 23 S 11.285021 10.572180 -5.446651 0
M  V30 24 C 11.606947 9.202916 -4.420088 0
M  V30 25 C 11.948307 9.164219 -3.057912 0
M  V30 26 C 12.155368 7.923819 -2.434138 0
M  V30 27 C 12.018759 6.737600 -3.178568 0
M  V30 28 C 11.685936 6.792884 -4.547714 0
M  V30 29 C 11.478983 8.025207 -5.215035 0
M  V30 30 C 10.363760 6.325259 -7.658693 0
M  V30 31 C 9.217698 6.421171 -8.687885 0
M  V30 32 C 10.831859 5.336444 -14.060316 0
M  V30 33 C 11.202963 3.947125 -14.609260 0
M  V30 34 O 6.779418 0.128091 -16.218655 0
M  V30 35 H 6.088519 -0.524896 -13.036532 0
M  V30 36 H 8.670899 0.294809 -13.534134 0
M  V30 37 H 11.315996 1.797479 -15.844876 0
M  V30 38 H 9.558380 3.732804 -15.979753 0
M  V30 39 H 7.977149 2.697946 -14.392806 0
M  V30 40 H 9.267653 2.516355 -13.190753 0
M  V30 41 H 8.040976 5.065161 -14.283607 0
M  V30 42 H 7.773221 4.390294 -12.696261 0
M  V30 43 H 10.162043 4.722082 -12.112003 0
M  V30 44 H 10.096840 7.384016 -12.646671 0
M  V30 45 H 8.486003 6.976170 -13.159827 0
M  V30 46 H 8.111000 7.643003 -11.054877 0
M  V30 47 H 8.027503 5.908778 -10.919523 0
M  V30 48 H 10.821386 8.414119 -10.932742 0
M  V30 49 H 9.762205 8.874910 -9.625339 0
M  V30 50 H 12.401165 7.345832 -9.414370 0
M  V30 51 H 12.137280 8.968124 -8.934349 0
M  V30 52 H 12.053841 10.081855 -2.496940 0
M  V30 53 H 12.426980 7.885855 -1.391108 0
M  V30 54 H 12.177501 5.779105 -2.703629 0
M  V30 55 H 11.616070 5.868728 -5.100941 0
M  V30 56 H 10.981496 5.450946 -7.864000 0
M  V30 57 H 9.936959 6.176156 -6.666782 0
M  V30 58 H 8.486369 7.164934 -8.366584 0
M  V30 59 H 8.692580 5.466980 -8.737963 0
M  V30 60 H 10.486121 5.957335 -14.887344 0
M  V30 61 H 11.726789 5.821515 -13.667809 0
M  V30 62 H 11.692596 3.365313 -13.829335 0
M  V30 63 H 11.932256 4.055782 -15.412624 0
M  V30 64 H 10.427509 6.093822 -10.257666 0
M  V30 END ATOM
M  V30 BEGIN BOND
M  V30 1 3 2 1
M  V30 2 1 3 2
M  V30 3 2 4 3
M  V30 4 1 5 4
M  V30 5 2 6 5
M  V30 6 1 7 6
M  V30 7 2 8 7
M  V30 8 2 9 7
M  V30 9 1 10 7
M  V30 10 1 11 10
M  V30 11 1 12 11
M  V30 12 1 13 12
M  V30 13 1 14 13
M  V30 14 1 15 14
M  V30 15 1 16 15
M  V30 16 1 17 16
M  V30 17 1 18 17
M  V30 18 1 19 18
M  V30 19 1 20 19
M  V30 20 1 21 20
M  V30 21 2 22 21
M  V30 22 1 23 22
M  V30 23 1 24 23
M  V30 24 2 25 24
M  V30 25 1 26 25
M  V30 26 2 27 26
M  V30 27 1 28 27
M  V30 28 1 29 21
M  V30 29 1 29 24
M  V30 30 2 29 28
M  V30 31 1 30 20
M  V30 32 1 31 17
M  V30 33 1 31 30
M  V30 34 1 32 14
M  V30 35 1 33 11
M  V30 36 1 33 32
M  V30 37 1 34 3
M  V30 38 1 34 6
M  V30 39 1 35 4
M  V30 40 1 36 5
M  V30 41 1 37 10
M  V30 42 1 11 38 CFG=3
M  V30 43 1 39 12
M  V30 44 1 40 12
M  V30 45 1 41 13
M  V30 46 1 42 13
M  V30 47 1 14 43 CFG=1
M  V30 48 1 44 15
M  V30 49 1 45 15
M  V30 50 1 46 16
M  V30 51 1 47 16
M  V30 52 1 48 18
M  V30 53 1 49 18
M  V30 54 1 50 19
M  V30 55 1 51 19
M  V30 56 1 52 25
M  V30 57 1 53 26
M  V30 58 1 54 27
M  V30 59 1 55 28
M  V30 60 1 56 30
M  V30 61 1 57 30
M  V30 62 1 58 31
M  V30 63 1 59 31
M  V30 64 1 60 32
M  V30 65 1 61 32
M  V30 66 1 62 33
M  V30 67 1 63 33
M  V30 68 1 64 17
M  V30 END BOND
M  V30 END CTAB
M  END
>  <b_m_subgroup_collapsed>  (775) 
0

>  <r_i_docking_score>  (775) 
-7.8787163754663396

>  <s_m_subgroup_title>  (775) 
glide-dock_SP_D22_pv

>  <s_m_subgroupid>  (775) 
glide-dock_SP_D22_pv

>  <Molecule ChEMBL ID>  (775) 
CHEMBL5885188

>  <Standard Type>  (775) 
Ki

>  <Standard Value>  (775) 
8.54

>  <label>  (775) 
1

$$$$
CHEMBL4068843
     RDKit          3D

  0  0  0  0  0  0  0  0  0  0999 V3000
M  V30 BEGIN CTAB
M  V30 COUNTS 56 60 0 0 1
M  V30 BEGIN ATOM
M  V30 1 N 10.035579 -0.433983 -17.042305 0
M  V30 2 C 9.267932 0.113836 -16.370760 0
M  V30 3 C 8.306962 0.801322 -15.523919 0
M  V30 4 C 7.109246 0.172773 -15.122374 0
M  V30 5 C 6.203815 0.848895 -14.279518 0
M  V30 6 C 6.486209 2.161250 -13.846913 0
M  V30 7 C 7.685484 2.789992 -14.249584 0
M  V30 8 C 8.587552 2.108940 -15.089291 0
M  V30 9 C 8.053620 4.187489 -13.784282 0
M  V30 10 N 7.187725 4.744367 -12.710354 0 CFG=1 CHG=1
M  V30 11 C 7.380775 6.207267 -12.511214 0
M  V30 12 C 8.639234 6.615787 -11.760789 0 CFG=2
M  V30 13 C 10.055641 6.374177 -12.224032 0
M  V30 14 C 9.501722 5.607384 -11.034088 0 CFG=1
M  V30 15 C 9.948910 5.919291 -9.632206 0
M  V30 16 C 8.776958 6.258136 -8.696836 0
M  V30 17 N 9.289536 6.830137 -7.473077 0
M  V30 18 C 9.846519 8.048310 -7.374016 0
M  V30 19 O 9.751778 8.929559 -8.226933 0
M  V30 20 C 10.614545 8.264985 -6.143394 0
M  V30 21 C 11.001250 9.391065 -5.457859 0
M  V30 22 C 11.603807 8.928900 -4.237433 0
M  V30 23 C 12.084755 9.501883 -3.043364 0
M  V30 24 C 12.514140 8.653105 -2.006589 0
M  V30 25 C 12.486013 7.258554 -2.211241 0
M  V30 26 N 12.086438 6.650450 -3.336049 0
M  V30 27 C 11.656422 7.509051 -4.287180 0
M  V30 28 N 11.082422 7.148199 -5.469168 0
M  V30 29 C 5.759563 4.389830 -12.893263 0
M  V30 30 C 5.557571 2.868385 -12.877946 0
M  V30 31 H 6.884001 -0.833631 -15.447528 0
M  V30 32 H 5.297648 0.352586 -13.963565 0
M  V30 33 H 9.507620 2.589991 -15.391773 0
M  V30 34 H 8.070000 4.852812 -14.647066 0
M  V30 35 H 9.074761 4.109877 -13.422584 0
M  V30 36 H 6.546054 6.571586 -11.913735 0
M  V30 37 H 7.338982 6.758707 -13.446840 0
M  V30 38 H 8.521506 7.595080 -11.298610 0
M  V30 39 H 10.776877 7.163443 -12.020547 0
M  V30 40 H 10.219633 5.859412 -13.165320 0
M  V30 41 H 9.294511 4.551345 -11.185735 0
M  V30 42 H 10.662297 6.742453 -9.680798 0
M  V30 43 H 10.486022 5.060372 -9.233546 0
M  V30 44 H 8.194031 5.365600 -8.467260 0
M  V30 45 H 8.087193 6.971163 -9.137159 0
M  V30 46 H 9.302688 6.234795 -6.660445 0
M  V30 47 H 10.804252 10.416900 -5.732167 0
M  V30 48 H 12.081921 10.572220 -2.903384 0
M  V30 49 H 12.869983 9.071171 -1.075713 0
M  V30 50 H 12.850531 6.591406 -1.446622 0
M  V30 51 H 10.968921 6.199068 -5.790126 0
M  V30 52 H 5.178074 4.819871 -12.078771 0
M  V30 53 H 5.389681 4.816825 -13.827294 0
M  V30 54 H 4.519615 2.625323 -13.105771 0
M  V30 55 H 5.746318 2.481138 -11.876278 0
M  V30 56 H 7.459050 4.302402 -11.843115 0
M  V30 END ATOM
M  V30 BEGIN BOND
M  V30 1 3 2 1
M  V30 2 1 3 2
M  V30 3 1 4 3
M  V30 4 2 5 4
M  V30 5 1 6 5
M  V30 6 2 7 6
M  V30 7 2 8 3
M  V30 8 1 8 7
M  V30 9 1 9 7
M  V30 10 1 10 9
M  V30 11 1 11 10
M  V30 12 1 12 11
M  V30 13 1 13 12
M  V30 14 1 14 12
M  V30 15 1 14 13
M  V30 16 1 15 14
M  V30 17 1 16 15
M  V30 18 1 17 16
M  V30 19 1 18 17
M  V30 20 2 19 18
M  V30 21 1 20 18
M  V30 22 2 21 20
M  V30 23 1 22 21
M  V30 24 2 23 22
M  V30 25 1 24 23
M  V30 26 2 25 24
M  V30 27 1 26 25
M  V30 28 1 27 22
M  V30 29 2 27 26
M  V30 30 1 28 20
M  V30 31 1 28 27
M  V30 32 1 29 10
M  V30 33 1 30 6
M  V30 34 1 30 29
M  V30 35 1 31 4
M  V30 36 1 32 5
M  V30 37 1 33 8
M  V30 38 1 34 9
M  V30 39 1 35 9
M  V30 40 1 36 11
M  V30 41 1 37 11
M  V30 42 1 12 38 CFG=1
M  V30 43 1 39 13
M  V30 44 1 40 13
M  V30 45 1 14 41 CFG=3
M  V30 46 1 42 15
M  V30 47 1 43 15
M  V30 48 1 44 16
M  V30 49 1 45 16
M  V30 50 1 46 17
M  V30 51 1 47 21
M  V30 52 1 48 23
M  V30 53 1 49 24
M  V30 54 1 50 25
M  V30 55 1 51 28
M  V30 56 1 52 29
M  V30 57 1 53 29
M  V30 58 1 54 30
M  V30 59 1 55 30
M  V30 60 1 10 56 CFG=1
M  V30 END BOND
M  V30 END CTAB
M  END
>  <b_m_subgroup_collapsed>  (776) 
0

>  <r_i_docking_score>  (776) 
-7.8756015641518102

>  <s_m_subgroup_title>  (776) 
glide-dock_SP_D22_pv

>  <s_m_subgroupid>  (776) 
glide-dock_SP_D22_pv

>  <Molecule ChEMBL ID>  (776) 
CHEMBL4068843

>  <Standard Type>  (776) 
Ki

>  <Standard Value>  (776) 
14.4

>  <label>  (776) 
1

$$$$
CHEMBL3133875
     RDKit          3D

  0  0  0  0  0  0  0  0  0  0999 V3000
M  V30 BEGIN CTAB
M  V30 COUNTS 62 65 0 0 1
M  V30 BEGIN ATOM
M  V30 1 C 11.685719 11.018668 -5.972297 0
M  V30 2 O 11.022415 9.778874 -5.979910 0
M  V30 3 C 11.361803 8.895069 -4.983875 0
M  V30 4 C 11.927114 9.292063 -3.743549 0
M  V30 5 C 12.284052 8.335552 -2.776687 0
M  V30 6 C 12.089111 6.970380 -3.044277 0
M  V30 7 C 11.520364 6.573411 -4.267045 0
M  V30 8 C 11.129072 7.524279 -5.228782 0
M  V30 9 N 10.484219 7.090286 -6.398737 0
M  V30 10 C 11.297687 6.566636 -7.488049 0
M  V30 11 C 11.165060 7.421076 -8.764045 0
M  V30 12 N 9.734929 7.633278 -9.091370 0 CHG=1
M  V30 13 C 9.505364 8.239932 -10.423645 0
M  V30 14 C 9.745474 7.288253 -11.618047 0
M  V30 15 C 8.815152 6.055679 -11.727216 0
M  V30 16 C 8.871817 5.452167 -13.149117 0
M  V30 17 N 8.215527 4.152279 -13.315283 0
M  V30 18 C 6.893560 3.917719 -13.364887 0
M  V30 19 O 6.046344 4.753218 -13.054663 0
M  V30 20 C 6.492872 2.556131 -13.796982 0
M  V30 21 C 7.070297 1.619923 -14.619548 0
M  V30 22 C 6.127208 0.539429 -14.751975 0
M  V30 23 C 6.069190 -0.635476 -15.538219 0
M  V30 24 C 4.927527 -1.471297 -15.538252 0
M  V30 25 O 4.885933 -2.595134 -16.320395 0
M  V30 26 C 3.811926 -1.130579 -14.755125 0
M  V30 27 C 3.846558 0.019433 -13.947184 0
M  V30 28 C 5.001895 0.825758 -13.923349 0
M  V30 29 N 5.285489 2.044709 -13.334504 0
M  V30 30 C 9.101779 8.393221 -7.987981 0
M  V30 31 C 9.137122 7.576278 -6.683994 0
M  V30 32 H 11.548806 11.534046 -6.919117 0
M  V30 33 H 11.285961 11.641982 -5.170947 0
M  V30 34 H 12.759891 10.885387 -5.846944 0
M  V30 35 H 12.083076 10.329548 -3.499798 0
M  V30 36 H 12.710151 8.652764 -1.834888 0
M  V30 37 H 12.360109 6.225308 -2.310373 0
M  V30 38 H 11.339461 5.532921 -4.457731 0
M  V30 39 H 10.990209 5.539801 -7.686154 0
M  V30 40 H 12.344024 6.541920 -7.185396 0
M  V30 41 H 11.690832 6.967016 -9.599184 0
M  V30 42 H 11.649848 8.387734 -8.608177 0
M  V30 43 H 10.153438 9.110618 -10.518818 0
M  V30 44 H 8.486134 8.617757 -10.491542 0
M  V30 45 H 10.785679 6.966014 -11.654625 0
M  V30 46 H 9.609552 7.892700 -12.514498 0
M  V30 47 H 7.786283 6.341031 -11.497850 0
M  V30 48 H 9.102574 5.308232 -10.985920 0
M  V30 49 H 9.915122 5.312377 -13.436236 0
M  V30 50 H 8.454448 6.165523 -13.859901 0
M  V30 51 H 8.819798 3.370476 -13.522854 0
M  V30 52 H 8.012202 1.704761 -15.140949 0
M  V30 53 H 6.900873 -0.892335 -16.177114 0
M  V30 54 H 4.105058 -3.140300 -16.239292 0
M  V30 55 H 2.916249 -1.732000 -14.798128 0
M  V30 56 H 2.941721 0.318874 -13.446772 0
M  V30 57 H 4.678677 2.583489 -12.732349 0
M  V30 58 H 9.603099 9.352712 -7.871361 0
M  V30 59 H 8.086059 8.649057 -8.237999 0
M  V30 60 H 8.468609 6.718870 -6.768555 0
M  V30 61 H 8.768087 8.170579 -5.847233 0
M  V30 62 H 9.274994 6.732944 -9.103881 0
M  V30 END ATOM
M  V30 BEGIN BOND
M  V30 1 1 2 1
M  V30 2 1 3 2
M  V30 3 2 4 3
M  V30 4 1 5 4
M  V30 5 2 6 5
M  V30 6 1 7 6
M  V30 7 1 8 3
M  V30 8 2 8 7
M  V30 9 1 9 8
M  V30 10 1 10 9
M  V30 11 1 11 10
M  V30 12 1 12 11
M  V30 13 1 13 12
M  V30 14 1 14 13
M  V30 15 1 15 14
M  V30 16 1 16 15
M  V30 17 1 17 16
M  V30 18 1 18 17
M  V30 19 2 19 18
M  V30 20 1 20 18
M  V30 21 2 21 20
M  V30 22 1 22 21
M  V30 23 1 23 22
M  V30 24 2 24 23
M  V30 25 1 25 24
M  V30 26 1 26 24
M  V30 27 2 27 26
M  V30 28 2 28 22
M  V30 29 1 28 27
M  V30 30 1 29 20
M  V30 31 1 29 28
M  V30 32 1 30 12
M  V30 33 1 31 9
M  V30 34 1 31 30
M  V30 35 1 32 1
M  V30 36 1 33 1
M  V30 37 1 34 1
M  V30 38 1 35 4
M  V30 39 1 36 5
M  V30 40 1 37 6
M  V30 41 1 38 7
M  V30 42 1 39 10
M  V30 43 1 40 10
M  V30 44 1 41 11
M  V30 45 1 42 11
M  V30 46 1 43 13
M  V30 47 1 44 13
M  V30 48 1 45 14
M  V30 49 1 46 14
M  V30 50 1 47 15
M  V30 51 1 48 15
M  V30 52 1 49 16
M  V30 53 1 50 16
M  V30 54 1 51 17
M  V30 55 1 52 21
M  V30 56 1 53 23
M  V30 57 1 54 25
M  V30 58 1 55 26
M  V30 59 1 56 27
M  V30 60 1 57 29
M  V30 61 1 58 30
M  V30 62 1 59 30
M  V30 63 1 60 31
M  V30 64 1 61 31
M  V30 65 1 62 12
M  V30 END BOND
M  V30 END CTAB
M  END
>  <b_m_subgroup_collapsed>  (777) 
0

>  <r_i_docking_score>  (777) 
-7.8754623441112601

>  <s_m_subgroup_title>  (777) 
glide-dock_SP_D22_pv

>  <s_m_subgroupid>  (777) 
glide-dock_SP_D22_pv

>  <Molecule ChEMBL ID>  (777) 
CHEMBL3133875

>  <Standard Type>  (777) 
Ki

>  <Standard Value>  (777) 
15.7

>  <label>  (777) 
1

$$$$
CHEMBL28321
     RDKit          3D

  0  0  0  0  0  0  0  0  0  0999 V3000
M  V30 BEGIN CTAB
M  V30 COUNTS 52 55 0 0 1
M  V30 BEGIN ATOM
M  V30 1 C 11.877048 10.662274 -6.246982 0
M  V30 2 O 10.939091 10.327667 -5.241576 0
M  V30 3 C 11.286783 9.187217 -4.567499 0
M  V30 4 C 11.827660 9.333659 -3.274824 0
M  V30 5 C 12.224716 8.205127 -2.537629 0
M  V30 6 C 12.090240 6.924429 -3.098510 0
M  V30 7 C 11.557355 6.772615 -4.392313 0
M  V30 8 C 11.129848 7.894054 -5.139513 0
M  V30 9 N 10.531018 7.724451 -6.405479 0
M  V30 10 C 10.873895 6.607699 -7.269747 0
M  V30 11 C 10.755286 7.041438 -8.744660 0
M  V30 12 N 9.459113 7.718123 -9.062251 0 CHG=1
M  V30 13 C 9.415774 8.240986 -10.449954 0
M  V30 14 C 9.522014 7.137725 -11.465543 0
M  V30 15 C 10.653036 6.818291 -12.264532 0
M  V30 16 C 10.332325 5.745154 -13.046969 0
M  V30 17 N 9.027980 5.364608 -12.760064 0
M  V30 18 C 8.310785 4.281821 -13.341718 0
M  V30 19 C 6.908201 4.172263 -13.174773 0
M  V30 20 C 6.203901 3.086179 -13.727068 0
M  V30 21 C 6.886203 2.102235 -14.465965 0
M  V30 22 C 8.277783 2.203024 -14.647206 0
M  V30 23 C 8.986695 3.282681 -14.085100 0
M  V30 24 C 8.548448 6.236178 -11.792269 0
M  V30 25 C 9.099438 8.775894 -8.086551 0
M  V30 26 C 9.204653 8.277083 -6.642423 0
M  V30 27 H 11.687770 11.659194 -6.641980 0
M  V30 28 H 12.887829 10.646038 -5.846490 0
M  V30 29 H 11.835548 9.957120 -7.072310 0
M  V30 30 H 11.937329 10.319580 -2.845922 0
M  V30 31 H 12.631581 8.326632 -1.544491 0
M  V30 32 H 12.388159 6.052898 -2.533347 0
M  V30 33 H 11.441075 5.775025 -4.786195 0
M  V30 34 H 10.196124 5.779132 -7.062934 0
M  V30 35 H 11.884212 6.257096 -7.057272 0
M  V30 36 H 10.887284 6.168943 -9.384878 0
M  V30 37 H 11.572934 7.726875 -8.972979 0
M  V30 38 H 10.224243 8.959007 -10.605515 0
M  V30 39 H 8.486720 8.780956 -10.623211 0
M  V30 40 H 11.606731 7.327080 -12.273553 0
M  V30 41 H 10.927882 5.229413 -13.783743 0
M  V30 42 H 6.348449 4.909463 -12.619377 0
M  V30 43 H 5.136840 3.010950 -13.581927 0
M  V30 44 H 6.344428 1.268722 -14.889093 0
M  V30 45 H 8.803522 1.444557 -15.207203 0
M  V30 46 H 10.055243 3.315600 -14.225530 0
M  V30 47 H 7.548130 6.155632 -11.391662 0
M  V30 48 H 9.775136 9.618741 -8.219323 0
M  V30 49 H 8.092175 9.146372 -8.280963 0
M  V30 50 H 8.453411 7.505227 -6.459879 0
M  V30 51 H 8.983898 9.088852 -5.957024 0
M  V30 52 H 8.724545 7.025010 -8.996526 0
M  V30 END ATOM
M  V30 BEGIN BOND
M  V30 1 1 2 1
M  V30 2 1 3 2
M  V30 3 2 4 3
M  V30 4 1 5 4
M  V30 5 2 6 5
M  V30 6 1 7 6
M  V30 7 1 8 3
M  V30 8 2 8 7
M  V30 9 1 9 8
M  V30 10 1 10 9
M  V30 11 1 11 10
M  V30 12 1 12 11
M  V30 13 1 13 12
M  V30 14 1 14 13
M  V30 15 1 15 14
M  V30 16 2 16 15
M  V30 17 1 17 16
M  V30 18 1 18 17
M  V30 19 2 19 18
M  V30 20 1 20 19
M  V30 21 2 21 20
M  V30 22 1 22 21
M  V30 23 1 23 18
M  V30 24 2 23 22
M  V30 25 2 24 14
M  V30 26 1 24 17
M  V30 27 1 25 12
M  V30 28 1 26 9
M  V30 29 1 26 25
M  V30 30 1 27 1
M  V30 31 1 28 1
M  V30 32 1 29 1
M  V30 33 1 30 4
M  V30 34 1 31 5
M  V30 35 1 32 6
M  V30 36 1 33 7
M  V30 37 1 34 10
M  V30 38 1 35 10
M  V30 39 1 36 11
M  V30 40 1 37 11
M  V30 41 1 38 13
M  V30 42 1 39 13
M  V30 43 1 40 15
M  V30 44 1 41 16
M  V30 45 1 42 19
M  V30 46 1 43 20
M  V30 47 1 44 21
M  V30 48 1 45 22
M  V30 49 1 46 23
M  V30 50 1 47 24
M  V30 51 1 48 25
M  V30 52 1 49 25
M  V30 53 1 50 26
M  V30 54 1 51 26
M  V30 55 1 52 12
M  V30 END BOND
M  V30 END CTAB
M  END
>  <b_m_subgroup_collapsed>  (778) 
0

>  <r_i_docking_score>  (778) 
-7.8746679938300002

>  <s_m_subgroup_title>  (778) 
glide-dock_SP_D22_pv

>  <s_m_subgroupid>  (778) 
glide-dock_SP_D22_pv

>  <Molecule ChEMBL ID>  (778) 
CHEMBL28321

>  <Standard Type>  (778) 
Ki

>  <Standard Value>  (778) 
1.3

>  <label>  (778) 
1

$$$$
CHEMBL336652
     RDKit          3D

  0  0  0  0  0  0  0  0  0  0999 V3000
M  V30 BEGIN CTAB
M  V30 COUNTS 35 36 0 0 1
M  V30 BEGIN ATOM
M  V30 1 C 8.468292 5.924602 -12.618037 0
M  V30 2 C 8.340653 5.749782 -11.100718 0
M  V30 3 C 9.114669 6.820210 -10.313711 0
M  V30 4 N 8.886221 6.682125 -8.859859 0 CHG=1
M  V30 5 C 9.878448 7.373915 -7.998680 0 CFG=1
M  V30 6 C 9.597173 8.869813 -7.803510 0
M  V30 7 C 10.754585 9.540584 -7.027319 0
M  V30 8 C 11.233004 8.748372 -5.827035 0
M  V30 9 C 12.051117 9.385271 -4.874803 0
M  V30 10 C 12.470397 8.709764 -3.712571 0
M  V30 11 C 12.085766 7.371746 -3.515132 0
M  V30 12 O 12.472615 6.699205 -2.393038 0
M  V30 13 C 11.286702 6.729027 -4.478884 0
M  V30 14 C 10.856943 7.403042 -5.636097 0
M  V30 15 C 9.966771 6.683058 -6.634606 0
M  V30 16 H 7.920164 5.143284 -13.145128 0
M  V30 17 H 8.061241 6.884292 -12.939509 0
M  V30 18 H 9.508686 5.876551 -12.939656 0
M  V30 19 H 8.703470 4.758394 -10.824820 0
M  V30 20 H 7.285133 5.772505 -10.830347 0
M  V30 21 H 8.830560 7.824366 -10.633713 0
M  V30 22 H 10.176430 6.711413 -10.536706 0
M  V30 23 H 8.947269 5.695835 -8.656935 0
M  V30 24 H 10.858238 7.273103 -8.468042 0
M  V30 25 H 9.443141 9.372539 -8.757849 0
M  V30 26 H 8.665020 8.972483 -7.244829 0
M  V30 27 H 10.485911 10.528185 -6.646944 0
M  V30 28 H 11.606174 9.679182 -7.692255 0
M  V30 29 H 12.345128 10.407443 -5.047143 0
M  V30 30 H 13.073947 9.219360 -2.975117 0
M  V30 31 H 12.089697 5.835192 -2.323806 0
M  V30 32 H 10.967440 5.717458 -4.314455 0
M  V30 33 H 10.369946 5.691705 -6.789762 0
M  V30 34 H 8.974132 6.571379 -6.194595 0
M  V30 35 H 7.935292 6.978798 -8.645980 0
M  V30 END ATOM
M  V30 BEGIN BOND
M  V30 1 1 2 1
M  V30 2 1 3 2
M  V30 3 1 4 3
M  V30 4 1 5 4
M  V30 5 1 6 5
M  V30 6 1 7 6
M  V30 7 1 8 7
M  V30 8 1 9 8
M  V30 9 2 10 9
M  V30 10 1 11 10
M  V30 11 1 12 11
M  V30 12 2 13 11
M  V30 13 2 14 8
M  V30 14 1 14 13
M  V30 15 1 15 5
M  V30 16 1 15 14
M  V30 17 1 16 1
M  V30 18 1 17 1
M  V30 19 1 18 1
M  V30 20 1 19 2
M  V30 21 1 20 2
M  V30 22 1 21 3
M  V30 23 1 22 3
M  V30 24 1 23 4
M  V30 25 1 5 24 CFG=3
M  V30 26 1 25 6
M  V30 27 1 26 6
M  V30 28 1 27 7
M  V30 29 1 28 7
M  V30 30 1 29 9
M  V30 31 1 30 10
M  V30 32 1 31 12
M  V30 33 1 32 13
M  V30 34 1 33 15
M  V30 35 1 34 15
M  V30 36 1 35 4
M  V30 END BOND
M  V30 END CTAB
M  END
>  <b_m_subgroup_collapsed>  (779) 
0

>  <r_i_docking_score>  (779) 
-7.8744471904143598

>  <s_m_subgroup_title>  (779) 
glide-dock_SP_D22_pv

>  <s_m_subgroupid>  (779) 
glide-dock_SP_D22_pv

>  <Molecule ChEMBL ID>  (779) 
CHEMBL336652

>  <Standard Type>  (779) 
Ki

>  <Standard Value>  (779) 
3.8

>  <label>  (779) 
1

$$$$
CHEMBL4069145
     RDKit          3D

  0  0  0  0  0  0  0  0  0  0999 V3000
M  V30 BEGIN CTAB
M  V30 COUNTS 61 64 0 0 1
M  V30 BEGIN ATOM
M  V30 1 C 12.487782 8.908778 -8.453783 0
M  V30 2 O 11.683419 9.592430 -7.499961 0
M  V30 3 C 11.578220 8.926278 -6.323036 0
M  V30 4 C 12.350774 9.372336 -5.234626 0
M  V30 5 C 12.389937 8.631289 -4.041777 0
M  V30 6 C 11.685982 7.418775 -3.963118 0
M  V30 7 C 10.885840 6.995411 -5.046878 0
M  V30 8 C 10.774382 7.767694 -6.226367 0
M  V30 9 N 9.927203 7.376274 -7.290707 0
M  V30 10 C 9.631843 5.979509 -7.521622 0
M  V30 11 C 9.716268 5.648899 -9.013569 0
M  V30 12 N 8.887536 6.554458 -9.857751 0 CHG=1
M  V30 13 C 8.998361 6.223133 -11.307841 0
M  V30 14 C 8.356732 4.863790 -11.695166 0
M  V30 15 C 9.086327 4.107167 -12.829832 0
M  V30 16 C 8.542079 4.365732 -14.243187 0
M  V30 17 O 8.848495 3.263101 -15.100931 0
M  V30 18 C 7.971326 2.193269 -15.157672 0
M  V30 19 C 8.125299 1.277260 -16.232700 0
M  V30 20 C 7.240984 0.236920 -16.427448 0
M  V30 21 C 6.156551 0.064205 -15.526041 0
M  V30 22 C 5.052134 -0.741777 -15.406985 0
M  V30 23 C 4.581752 -1.828955 -16.284065 0
M  V30 24 N 5.221653 -2.297371 -17.270363 0
M  V30 25 O 4.468897 -3.378090 -17.846746 0
M  V30 26 C 4.381578 -0.303274 -14.244775 0
M  V30 27 N 5.004357 0.671359 -13.620029 0
M  V30 28 N 6.084912 0.950464 -14.429536 0
M  V30 29 C 6.949964 1.983952 -14.247020 0
M  V30 30 C 9.195248 7.986667 -9.571717 0
M  V30 31 C 9.115011 8.315746 -8.060952 0
M  V30 32 H 12.342733 9.363698 -9.433108 0
M  V30 33 H 13.544263 8.974384 -8.191459 0
M  V30 34 H 12.241602 7.852427 -8.551172 0
M  V30 35 H 12.954640 10.260336 -5.350882 0
M  V30 36 H 12.978362 8.977968 -3.206318 0
M  V30 37 H 11.727935 6.826760 -3.060538 0
M  V30 38 H 10.302432 6.099103 -4.923926 0
M  V30 39 H 8.644096 5.750880 -7.116199 0
M  V30 40 H 10.372045 5.372441 -7.018579 0
M  V30 41 H 9.453815 4.601263 -9.141006 0
M  V30 42 H 10.753957 5.753341 -9.330532 0
M  V30 43 H 10.053856 6.241813 -11.580079 0
M  V30 44 H 8.521893 7.009562 -11.896652 0
M  V30 45 H 7.304415 5.016077 -11.944526 0
M  V30 46 H 8.323200 4.181916 -10.848410 0
M  V30 47 H 9.003682 3.038175 -12.645235 0
M  V30 48 H 10.159829 4.295334 -12.803821 0
M  V30 49 H 9.010642 5.262448 -14.649846 0
M  V30 50 H 7.471780 4.572458 -14.243610 0
M  V30 51 H 8.933867 1.420320 -16.941664 0
M  V30 52 H 7.341262 -0.438806 -17.270454 0
M  V30 53 H 3.597944 -2.227078 -16.022417 0
M  V30 54 H 3.850566 -3.630386 -17.157118 0
M  V30 55 H 3.455708 -0.692365 -13.845046 0
M  V30 56 H 6.750069 2.612840 -13.389143 0
M  V30 57 H 10.191655 8.216223 -9.944432 0
M  V30 58 H 8.514318 8.637927 -10.120639 0
M  V30 59 H 8.086765 8.221167 -7.713440 0
M  V30 60 H 9.382248 9.354828 -7.881129 0
M  V30 61 H 7.909779 6.453825 -9.603675 0
M  V30 END ATOM
M  V30 BEGIN BOND
M  V30 1 1 2 1
M  V30 2 1 3 2
M  V30 3 2 4 3
M  V30 4 1 5 4
M  V30 5 2 6 5
M  V30 6 1 7 6
M  V30 7 1 8 3
M  V30 8 2 8 7
M  V30 9 1 9 8
M  V30 10 1 10 9
M  V30 11 1 11 10
M  V30 12 1 12 11
M  V30 13 1 13 12
M  V30 14 1 14 13
M  V30 15 1 15 14
M  V30 16 1 16 15
M  V30 17 1 17 16
M  V30 18 1 18 17
M  V30 19 1 19 18
M  V30 20 2 20 19
M  V30 21 1 21 20
M  V30 22 2 22 21
M  V30 23 1 23 22
M  V30 24 2 24 23
M  V30 25 1 25 24
M  V30 26 1 26 22
M  V30 27 2 27 26
M  V30 28 1 28 21
M  V30 29 1 28 27
M  V30 30 2 29 18
M  V30 31 1 29 28
M  V30 32 1 30 12
M  V30 33 1 31 9
M  V30 34 1 31 30
M  V30 35 1 32 1
M  V30 36 1 33 1
M  V30 37 1 34 1
M  V30 38 1 35 4
M  V30 39 1 36 5
M  V30 40 1 37 6
M  V30 41 1 38 7
M  V30 42 1 39 10
M  V30 43 1 40 10
M  V30 44 1 41 11
M  V30 45 1 42 11
M  V30 46 1 43 13
M  V30 47 1 44 13
M  V30 48 1 45 14
M  V30 49 1 46 14
M  V30 50 1 47 15
M  V30 51 1 48 15
M  V30 52 1 49 16
M  V30 53 1 50 16
M  V30 54 1 51 19
M  V30 55 1 52 20
M  V30 56 1 53 23
M  V30 57 1 54 25
M  V30 58 1 55 26
M  V30 59 1 56 29
M  V30 60 1 57 30
M  V30 61 1 58 30
M  V30 62 1 59 31
M  V30 63 1 60 31
M  V30 64 1 61 12
M  V30 END BOND
M  V30 END CTAB
M  END
>  <b_m_subgroup_collapsed>  (780) 
0

>  <r_i_docking_score>  (780) 
-7.8730530738931002

>  <s_m_subgroup_title>  (780) 
glide-dock_SP_D22_pv

>  <s_m_subgroupid>  (780) 
glide-dock_SP_D22_pv

>  <Molecule ChEMBL ID>  (780) 
CHEMBL4069145

>  <Standard Type>  (780) 
Ki

>  <Standard Value>  (780) 
1.7

>  <label>  (780) 
1

$$$$
CHEMBL5777100
     RDKit          3D

  0  0  0  0  0  0  0  0  0  0999 V3000
M  V30 BEGIN CTAB
M  V30 COUNTS 64 68 0 0 1
M  V30 BEGIN ATOM
M  V30 1 O 10.885878 5.849265 -12.745808 0
M  V30 2 C 9.761779 5.515216 -13.106318 0
M  V30 3 N 9.552901 4.578784 -14.042654 0
M  V30 4 C 10.618120 3.819827 -14.693761 0 CFG=1
M  V30 5 C 10.041322 2.637973 -15.469583 0
M  V30 6 C 10.360961 1.307306 -15.084766 0
M  V30 7 C 9.812245 0.199882 -15.771802 0
M  V30 8 C 8.936895 0.459461 -16.838552 0
M  V30 9 C 8.612718 1.744696 -17.210518 0
M  V30 10 C 9.150370 2.858512 -16.548767 0
M  V30 11 O 7.739130 1.715078 -18.248108 0
M  V30 12 C 7.515741 0.354371 -18.528957 0
M  V30 13 F 6.220479 0.071362 -18.394247 0
M  V30 14 F 7.862185 0.086387 -19.785736 0
M  V30 15 O 8.284812 -0.417475 -17.640553 0
M  V30 16 C 11.534475 4.720480 -15.529814 0
M  V30 17 C 12.885598 4.895253 -15.163605 0
M  V30 18 C 13.685562 5.772643 -15.917680 0
M  V30 19 C 13.111427 6.438178 -17.014370 0
M  V30 20 C 11.754043 6.201122 -17.302420 0
M  V30 21 N 10.976376 5.371318 -16.577452 0
M  V30 22 C 8.528923 6.214068 -12.520411 0 CFG=1
M  V30 23 C 7.866627 5.347772 -11.434837 0
M  V30 24 C 8.695458 5.311763 -10.139765 0
M  V30 25 N 8.886017 6.685226 -9.612752 0 CFG=1 CHG=1
M  V30 26 C 9.477913 6.704869 -8.252908 0
M  V30 27 C 9.030009 7.933759 -7.433706 0
M  V30 28 O 10.128987 8.770081 -7.091030 0
M  V30 29 C 10.844706 8.478180 -5.949384 0
M  V30 30 C 10.945822 7.180786 -5.384541 0
M  V30 31 C 11.685918 6.972862 -4.202836 0
M  V30 32 C 12.313899 8.055698 -3.562950 0
M  V30 33 C 12.224821 9.344169 -4.119315 0
M  V30 34 C 11.506031 9.550385 -5.313115 0
M  V30 35 F 11.431455 10.791574 -5.846839 0
M  V30 36 C 9.576037 7.577544 -10.577493 0
M  V30 37 C 8.848453 7.616765 -11.942225 0
M  V30 38 H 8.605937 4.365925 -14.317492 0
M  V30 39 H 11.227574 3.400969 -13.890882 0
M  V30 40 H 11.020135 1.131925 -14.248126 0
M  V30 41 H 10.046591 -0.813204 -15.477747 0
M  V30 42 H 8.885838 3.856836 -16.863510 0
M  V30 43 H 13.293479 4.387250 -14.302768 0
M  V30 44 H 14.720442 5.935866 -15.653984 0
M  V30 45 H 13.692322 7.121213 -17.616800 0
M  V30 46 H 11.276414 6.703427 -18.130371 0
M  V30 47 H 7.822284 6.343127 -13.341283 0
M  V30 48 H 6.874564 5.744907 -11.217487 0
M  V30 49 H 7.707476 4.331101 -11.796028 0
M  V30 50 H 8.160309 4.708374 -9.405668 0
M  V30 51 H 9.663111 4.833059 -10.298295 0
M  V30 52 H 9.150088 5.817705 -7.709801 0
M  V30 53 H 10.565727 6.636394 -8.312477 0
M  V30 54 H 8.333831 8.548612 -8.002124 0
M  V30 55 H 8.483037 7.630119 -6.539886 0
M  V30 56 H 10.465188 6.327060 -5.831877 0
M  V30 57 H 11.753043 5.982263 -3.778723 0
M  V30 58 H 12.867456 7.897017 -2.649571 0
M  V30 59 H 12.710945 10.172256 -3.624913 0
M  V30 60 H 9.615873 8.588830 -10.169488 0
M  V30 61 H 10.610806 7.258372 -10.690467 0
M  V30 62 H 9.448516 8.196905 -12.644748 0
M  V30 63 H 7.915771 8.171882 -11.847330 0
M  V30 64 H 7.938028 7.058565 -9.539977 0
M  V30 END ATOM
M  V30 BEGIN BOND
M  V30 1 2 2 1
M  V30 2 1 3 2
M  V30 3 1 4 3
M  V30 4 1 5 4
M  V30 5 1 6 5
M  V30 6 2 7 6
M  V30 7 1 8 7
M  V30 8 2 9 8
M  V30 9 2 10 5
M  V30 10 1 10 9
M  V30 11 1 11 9
M  V30 12 1 12 11
M  V30 13 1 13 12
M  V30 14 1 14 12
M  V30 15 1 15 8
M  V30 16 1 15 12
M  V30 17 1 16 4
M  V30 18 2 17 16
M  V30 19 1 18 17
M  V30 20 2 19 18
M  V30 21 1 20 19
M  V30 22 1 21 16
M  V30 23 2 21 20
M  V30 24 1 22 2
M  V30 25 1 23 22
M  V30 26 1 24 23
M  V30 27 1 25 24
M  V30 28 1 26 25
M  V30 29 1 27 26
M  V30 30 1 28 27
M  V30 31 1 29 28
M  V30 32 2 30 29
M  V30 33 1 31 30
M  V30 34 2 32 31
M  V30 35 1 33 32
M  V30 36 1 34 29
M  V30 37 2 34 33
M  V30 38 1 35 34
M  V30 39 1 36 25
M  V30 40 1 37 22
M  V30 41 1 37 36
M  V30 42 1 38 3
M  V30 43 1 4 39 CFG=1
M  V30 44 1 40 6
M  V30 45 1 41 7
M  V30 46 1 42 10
M  V30 47 1 43 17
M  V30 48 1 44 18
M  V30 49 1 45 19
M  V30 50 1 46 20
M  V30 51 1 22 47 CFG=3
M  V30 52 1 48 23
M  V30 53 1 49 23
M  V30 54 1 50 24
M  V30 55 1 51 24
M  V30 56 1 52 26
M  V30 57 1 53 26
M  V30 58 1 54 27
M  V30 59 1 55 27
M  V30 60 1 56 30
M  V30 61 1 57 31
M  V30 62 1 58 32
M  V30 63 1 59 33
M  V30 64 1 60 36
M  V30 65 1 61 36
M  V30 66 1 62 37
M  V30 67 1 63 37
M  V30 68 1 25 64 CFG=1
M  V30 END BOND
M  V30 END CTAB
M  END
>  <b_m_subgroup_collapsed>  (781) 
0

>  <r_i_docking_score>  (781) 
-7.8724473402338297

>  <s_m_subgroup_title>  (781) 
glide-dock_SP_D22_pv

>  <s_m_subgroupid>  (781) 
glide-dock_SP_D22_pv

>  <Molecule ChEMBL ID>  (781) 
CHEMBL5777100

>  <Standard Type>  (781) 
Ki

>  <Standard Value>  (781) 
55.0

>  <label>  (781) 
1

$$$$
CHEMBL400827
     RDKit          3D

  0  0  0  0  0  0  0  0  0  0999 V3000
M  V30 BEGIN CTAB
M  V30 COUNTS 49 52 0 0 1
M  V30 BEGIN ATOM
M  V30 1 C 5.476011 3.314806 -12.695481 0
M  V30 2 N 6.667666 4.121555 -12.823223 0
M  V30 3 C 6.832576 5.377525 -12.261013 0
M  V30 4 C 8.076056 5.863502 -12.561716 0
M  V30 5 C 8.631490 7.184373 -12.136225 0
M  V30 6 N 8.886023 7.261944 -10.681334 0 CFG=2 CHG=1
M  V30 7 C 9.347218 8.620629 -10.321995 0
M  V30 8 C 9.643901 8.757554 -8.825864 0
M  V30 9 C 10.699043 7.746123 -8.332574 0 CFG=1
M  V30 10 O 11.888044 7.932994 -9.080125 0
M  V30 11 C 11.009752 7.936782 -6.838505 0
M  V30 12 C 11.143098 6.834632 -5.960860 0
M  V30 13 C 11.482905 7.022211 -4.608900 0
M  V30 14 C 11.686849 8.318757 -4.107409 0
M  V30 15 Cl 12.113535 8.548617 -2.452586 0
M  V30 16 C 11.546334 9.426053 -4.958648 0
M  V30 17 C 11.233366 9.235567 -6.316652 0
M  V30 18 C 10.146181 6.342563 -8.685016 0
M  V30 19 C 9.781572 6.186150 -10.175803 0
M  V30 20 C 8.730970 4.853664 -13.343053 0
M  V30 21 C 10.009905 4.729414 -13.937132 0
M  V30 22 C 10.366545 3.577787 -14.666996 0
M  V30 23 C 9.445788 2.525146 -14.824671 0
M  V30 24 C 8.166576 2.623123 -14.248098 0
M  V30 25 C 7.820232 3.772388 -13.510947 0
M  V30 26 H 5.741921 2.270519 -12.529998 0
M  V30 27 H 4.888332 3.666088 -11.848500 0
M  V30 28 H 4.886267 3.398208 -13.605576 0
M  V30 29 H 6.045342 5.833857 -11.673039 0
M  V30 30 H 7.942514 7.979259 -12.426909 0
M  V30 31 H 9.572890 7.384195 -12.646578 0
M  V30 32 H 8.579355 9.345219 -10.598949 0
M  V30 33 H 10.237310 8.870427 -10.901762 0
M  V30 34 H 8.720409 8.644860 -8.253311 0
M  V30 35 H 9.982378 9.772089 -8.671071 0
M  V30 36 H 12.263686 8.774241 -8.862585 0
M  V30 37 H 11.006916 5.822085 -6.301438 0
M  V30 38 H 11.589525 6.169420 -3.954665 0
M  V30 39 H 11.685347 10.422657 -4.571455 0
M  V30 40 H 11.174773 10.110841 -6.942981 0
M  V30 41 H 10.876036 5.572362 -8.438088 0
M  V30 42 H 9.259311 6.138852 -8.082408 0
M  V30 43 H 9.317708 5.210923 -10.320829 0
M  V30 44 H 10.688710 6.184706 -10.775757 0
M  V30 45 H 10.726727 5.530443 -13.832660 0
M  V30 46 H 11.349445 3.502074 -15.109076 0
M  V30 47 H 9.721405 1.642666 -15.383836 0
M  V30 48 H 7.461617 1.813663 -14.360169 0
M  V30 49 H 7.960663 7.181873 -10.248034 0
M  V30 END ATOM
M  V30 BEGIN BOND
M  V30 1 1 2 1
M  V30 2 1 3 2
M  V30 3 2 4 3
M  V30 4 1 5 4
M  V30 5 1 6 5
M  V30 6 1 7 6
M  V30 7 1 8 7
M  V30 8 1 9 8
M  V30 9 1 9 10 CFG=3
M  V30 10 1 11 9
M  V30 11 1 12 11
M  V30 12 2 13 12
M  V30 13 1 14 13
M  V30 14 1 15 14
M  V30 15 2 16 14
M  V30 16 2 17 11
M  V30 17 1 17 16
M  V30 18 1 18 9
M  V30 19 1 19 6
M  V30 20 1 19 18
M  V30 21 1 20 4
M  V30 22 2 21 20
M  V30 23 1 22 21
M  V30 24 2 23 22
M  V30 25 1 24 23
M  V30 26 1 25 2
M  V30 27 1 25 20
M  V30 28 2 25 24
M  V30 29 1 26 1
M  V30 30 1 27 1
M  V30 31 1 28 1
M  V30 32 1 29 3
M  V30 33 1 30 5
M  V30 34 1 31 5
M  V30 35 1 32 7
M  V30 36 1 33 7
M  V30 37 1 34 8
M  V30 38 1 35 8
M  V30 39 1 36 10
M  V30 40 1 37 12
M  V30 41 1 38 13
M  V30 42 1 39 16
M  V30 43 1 40 17
M  V30 44 1 41 18
M  V30 45 1 42 18
M  V30 46 1 43 19
M  V30 47 1 44 19
M  V30 48 1 45 21
M  V30 49 1 46 22
M  V30 50 1 47 23
M  V30 51 1 48 24
M  V30 52 1 6 49 CFG=1
M  V30 END BOND
M  V30 END CTAB
M  END
>  <b_m_subgroup_collapsed>  (782) 
0

>  <r_i_docking_score>  (782) 
-7.87057973068198

>  <s_m_subgroup_title>  (782) 
glide-dock_SP_D22_pv

>  <s_m_subgroupid>  (782) 
glide-dock_SP_D22_pv

>  <Molecule ChEMBL ID>  (782) 
CHEMBL400827

>  <Standard Type>  (782) 
Ki

>  <Standard Value>  (782) 
29.6

>  <label>  (782) 
1

$$$$
CHEMBL80318
     RDKit          3D

  0  0  0  0  0  0  0  0  0  0999 V3000
M  V30 BEGIN CTAB
M  V30 COUNTS 52 55 0 0 1
M  V30 BEGIN ATOM
M  V30 1 C 9.152143 6.780233 -6.523715 0
M  V30 2 C 10.274353 7.576035 -7.143183 0
M  V30 3 C 11.286149 8.318276 -6.461138 0
M  V30 4 C 11.545383 8.410492 -5.027422 0
M  V30 5 C 11.686110 7.242091 -4.247419 0
M  V30 6 C 11.997670 7.334857 -2.876209 0
M  V30 7 C 12.145493 8.599146 -2.276006 0
M  V30 8 C 11.985198 9.767628 -3.046222 0
M  V30 9 C 11.685960 9.671518 -4.417421 0
M  V30 10 N 12.084726 8.972699 -7.294820 0
M  V30 11 N 11.649969 8.647161 -8.522409 0
M  V30 12 C 10.574903 7.799466 -8.460572 0
M  V30 13 C 9.886513 7.213579 -9.565437 0
M  V30 14 C 9.643349 5.891310 -9.557278 0
M  V30 15 C 8.814912 5.162555 -10.586547 0
M  V30 16 N 8.085774 6.092111 -11.488809 0 CFG=2 CHG=1
M  V30 17 C 7.414687 5.348641 -12.589063 0
M  V30 18 C 8.392314 4.821163 -13.674156 0
M  V30 19 C 8.174453 3.371028 -14.089458 0
M  V30 20 C 9.300415 2.544654 -14.302929 0
M  V30 21 C 9.138927 1.188297 -14.646955 0
M  V30 22 C 7.849081 0.644322 -14.775937 0
M  V30 23 C 6.722087 1.461875 -14.574598 0
M  V30 24 C 6.881296 2.824304 -14.246669 0
M  V30 25 C 8.878861 7.275675 -11.901258 0
M  V30 26 C 9.321058 8.091679 -10.672610 0
M  V30 27 H 9.285932 6.664411 -5.450236 0
M  V30 28 H 8.185469 7.263206 -6.674727 0
M  V30 29 H 9.069491 5.773541 -6.926588 0
M  V30 30 H 11.580278 6.268268 -4.703173 0
M  V30 31 H 12.114138 6.435102 -2.289085 0
M  V30 32 H 12.377854 8.677114 -1.224034 0
M  V30 33 H 12.086230 10.739863 -2.590789 0
M  V30 34 H 11.574455 10.571156 -5.005890 0
M  V30 35 H 12.107527 8.989149 -9.358268 0
M  V30 36 H 10.056147 5.267134 -8.777422 0
M  V30 37 H 9.478595 4.497670 -11.136292 0
M  V30 38 H 8.087788 4.540711 -10.065152 0
M  V30 39 H 6.867171 4.526824 -12.125851 0
M  V30 40 H 6.656540 5.985619 -13.045423 0
M  V30 41 H 8.321537 5.443189 -14.565180 0
M  V30 42 H 9.427092 4.912720 -13.345189 0
M  V30 43 H 10.300113 2.937803 -14.184190 0
M  V30 44 H 10.005871 0.562083 -14.796239 0
M  V30 45 H 7.722913 -0.399889 -15.024771 0
M  V30 46 H 5.731495 1.039756 -14.670060 0
M  V30 47 H 6.003098 3.436472 -14.102510 0
M  V30 48 H 8.284274 7.905097 -12.564783 0
M  V30 49 H 9.760704 6.962416 -12.460176 0
M  V30 50 H 8.488647 8.669585 -10.267912 0
M  V30 51 H 10.078312 8.810814 -10.983494 0
M  V30 52 H 7.340975 6.498013 -10.920862 0
M  V30 END ATOM
M  V30 BEGIN BOND
M  V30 1 1 2 1
M  V30 2 1 3 2
M  V30 3 1 4 3
M  V30 4 2 5 4
M  V30 5 1 6 5
M  V30 6 2 7 6
M  V30 7 1 8 7
M  V30 8 1 9 4
M  V30 9 2 9 8
M  V30 10 2 10 3
M  V30 11 1 11 10
M  V30 12 2 12 2
M  V30 13 1 12 11
M  V30 14 1 13 12
M  V30 15 2 14 13
M  V30 16 1 15 14
M  V30 17 1 16 15
M  V30 18 1 17 16
M  V30 19 1 18 17
M  V30 20 1 19 18
M  V30 21 2 20 19
M  V30 22 1 21 20
M  V30 23 2 22 21
M  V30 24 1 23 22
M  V30 25 1 24 19
M  V30 26 2 24 23
M  V30 27 1 25 16
M  V30 28 1 26 13
M  V30 29 1 26 25
M  V30 30 1 27 1
M  V30 31 1 28 1
M  V30 32 1 29 1
M  V30 33 1 30 5
M  V30 34 1 31 6
M  V30 35 1 32 7
M  V30 36 1 33 8
M  V30 37 1 34 9
M  V30 38 1 35 11
M  V30 39 1 36 14
M  V30 40 1 37 15
M  V30 41 1 38 15
M  V30 42 1 39 17
M  V30 43 1 40 17
M  V30 44 1 41 18
M  V30 45 1 42 18
M  V30 46 1 43 20
M  V30 47 1 44 21
M  V30 48 1 45 22
M  V30 49 1 46 23
M  V30 50 1 47 24
M  V30 51 1 48 25
M  V30 52 1 49 25
M  V30 53 1 50 26
M  V30 54 1 51 26
M  V30 55 1 16 52 CFG=1
M  V30 END BOND
M  V30 END CTAB
M  END
>  <b_m_subgroup_collapsed>  (783) 
0

>  <r_i_docking_score>  (783) 
-7.8705512161242499

>  <s_m_subgroup_title>  (783) 
glide-dock_SP_D22_pv

>  <s_m_subgroupid>  (783) 
glide-dock_SP_D22_pv

>  <Molecule ChEMBL ID>  (783) 
CHEMBL80318

>  <Standard Type>  (783) 
Ki

>  <Standard Value>  (783) 
90.0

>  <label>  (783) 
1

$$$$
CHEMBL197796
     RDKit          3D

  0  0  0  0  0  0  0  0  0  0999 V3000
M  V30 BEGIN CTAB
M  V30 COUNTS 66 69 0 0 1
M  V30 BEGIN ATOM
M  V30 1 C 13.463056 3.327422 -18.156462 0
M  V30 2 O 12.386925 3.121942 -17.253742 0
M  V30 3 C 12.224673 4.020562 -16.218069 0
M  V30 4 C 13.035932 5.170347 -16.039907 0
M  V30 5 C 12.810881 6.052156 -14.967586 0
M  V30 6 C 11.785615 5.798247 -14.038528 0
M  V30 7 N 11.595995 6.712024 -12.962067 0
M  V30 8 C 10.467964 6.913039 -12.245710 0
M  V30 9 O 9.387417 6.406563 -12.550632 0
M  V30 10 N 10.599793 7.775147 -11.207283 0
M  V30 11 C 9.419109 8.290106 -10.492491 0
M  V30 12 C 9.500310 7.912951 -9.006782 0
M  V30 13 N 10.741921 8.414794 -8.422397 0
M  V30 14 C 11.019260 8.215773 -7.058679 0
M  V30 15 C 10.659647 7.011522 -6.412768 0
M  V30 16 C 11.002917 6.793193 -5.063253 0
M  V30 17 C 11.686042 7.777711 -4.333999 0
M  V30 18 S 12.088401 7.439121 -2.649087 0
M  V30 19 C 12.486631 9.019477 -1.874566 0
M  V30 20 C 12.022959 8.998980 -4.957519 0
M  V30 21 C 11.688840 9.213356 -6.309883 0
M  V30 22 C 11.773152 8.968214 -9.299389 0
M  V30 23 C 11.901651 8.165480 -10.618001 0
M  V30 24 C 10.996215 4.637834 -14.195408 0
M  V30 25 C 11.188608 3.766981 -15.288116 0
M  V30 26 N 10.314095 2.684852 -15.476733 0
M  V30 27 C 8.990095 3.137875 -15.893687 0
M  V30 28 C 8.059018 1.953251 -16.189026 0
M  V30 29 N 8.023811 1.012469 -15.043691 0 CHG=1
M  V30 30 C 7.060531 -0.086723 -15.252701 0
M  V30 31 C 9.385799 0.537425 -14.700465 0
M  V30 32 C 10.298228 1.727528 -14.373595 0
M  V30 33 H 13.491025 2.506662 -18.872555 0
M  V30 34 H 13.336960 4.254167 -18.719711 0
M  V30 35 H 14.425261 3.346553 -17.640306 0
M  V30 36 H 13.840122 5.404726 -16.719227 0
M  V30 37 H 13.438586 6.924267 -14.858356 0
M  V30 38 H 12.390889 7.281320 -12.717645 0
M  V30 39 H 9.360877 9.371587 -10.603740 0
M  V30 40 H 8.486298 7.910549 -10.904771 0
M  V30 41 H 8.648800 8.330423 -8.466464 0
M  V30 42 H 9.439896 6.828895 -8.906932 0
M  V30 43 H 10.144957 6.226327 -6.945512 0
M  V30 44 H 10.743409 5.857658 -4.592120 0
M  V30 45 H 12.561576 8.897468 -0.797688 0
M  V30 46 H 13.445210 9.372403 -2.245225 0
M  V30 47 H 11.720218 9.764096 -2.090186 0
M  V30 48 H 12.554988 9.770796 -4.421842 0
M  V30 49 H 11.968623 10.146941 -6.775222 0
M  V30 50 H 11.509592 10.001155 -9.524115 0
M  V30 51 H 12.742540 8.975547 -8.799633 0
M  V30 52 H 12.470365 7.258965 -10.404043 0
M  V30 53 H 12.489743 8.739734 -11.334567 0
M  V30 54 H 10.215823 4.404416 -13.490401 0
M  V30 55 H 8.551904 3.759428 -15.109824 0
M  V30 56 H 9.085576 3.766789 -16.781126 0
M  V30 57 H 7.052672 2.316542 -16.403908 0
M  V30 58 H 8.405657 1.428307 -17.079805 0
M  V30 59 H 7.310251 -0.629101 -16.163788 0
M  V30 60 H 7.058142 -0.780784 -14.411925 0
M  V30 61 H 6.047131 0.305311 -15.365813 0
M  V30 62 H 9.344753 -0.135636 -13.846112 0
M  V30 63 H 9.800028 -0.034996 -15.531962 0
M  V30 64 H 11.306472 1.371477 -14.178880 0
M  V30 65 H 9.952579 2.207134 -13.456110 0
M  V30 66 H 7.702130 1.540077 -14.245461 0
M  V30 END ATOM
M  V30 BEGIN BOND
M  V30 1 1 2 1
M  V30 2 1 3 2
M  V30 3 1 4 3
M  V30 4 2 5 4
M  V30 5 1 6 5
M  V30 6 1 7 6
M  V30 7 1 8 7
M  V30 8 2 9 8
M  V30 9 1 10 8
M  V30 10 1 11 10
M  V30 11 1 12 11
M  V30 12 1 13 12
M  V30 13 1 14 13
M  V30 14 1 15 14
M  V30 15 2 16 15
M  V30 16 1 17 16
M  V30 17 1 18 17
M  V30 18 1 19 18
M  V30 19 2 20 17
M  V30 20 2 21 14
M  V30 21 1 21 20
M  V30 22 1 22 13
M  V30 23 1 23 10
M  V30 24 1 23 22
M  V30 25 2 24 6
M  V30 26 2 25 3
M  V30 27 1 25 24
M  V30 28 1 26 25
M  V30 29 1 27 26
M  V30 30 1 28 27
M  V30 31 1 29 28
M  V30 32 1 30 29
M  V30 33 1 31 29
M  V30 34 1 32 26
M  V30 35 1 32 31
M  V30 36 1 33 1
M  V30 37 1 34 1
M  V30 38 1 35 1
M  V30 39 1 36 4
M  V30 40 1 37 5
M  V30 41 1 38 7
M  V30 42 1 39 11
M  V30 43 1 40 11
M  V30 44 1 41 12
M  V30 45 1 42 12
M  V30 46 1 43 15
M  V30 47 1 44 16
M  V30 48 1 45 19
M  V30 49 1 46 19
M  V30 50 1 47 19
M  V30 51 1 48 20
M  V30 52 1 49 21
M  V30 53 1 50 22
M  V30 54 1 51 22
M  V30 55 1 52 23
M  V30 56 1 53 23
M  V30 57 1 54 24
M  V30 58 1 55 27
M  V30 59 1 56 27
M  V30 60 1 57 28
M  V30 61 1 58 28
M  V30 62 1 59 30
M  V30 63 1 60 30
M  V30 64 1 61 30
M  V30 65 1 62 31
M  V30 66 1 63 31
M  V30 67 1 64 32
M  V30 68 1 65 32
M  V30 69 1 66 29
M  V30 END BOND
M  V30 END CTAB
M  END
>  <b_m_subgroup_collapsed>  (784) 
0

>  <r_i_docking_score>  (784) 
-7.8693199877457696

>  <s_m_subgroup_title>  (784) 
glide-dock_SP_D22_pv

>  <s_m_subgroupid>  (784) 
glide-dock_SP_D22_pv

>  <Molecule ChEMBL ID>  (784) 
CHEMBL197796

>  <Standard Type>  (784) 
Ki

>  <Standard Value>  (784) 
10000.0

>  <label>  (784) 
0

$$$$
CHEMBL257536
     RDKit          3D

  0  0  0  0  0  0  0  0  0  0999 V3000
M  V30 BEGIN CTAB
M  V30 COUNTS 59 63 0 0 1
M  V30 BEGIN ATOM
M  V30 1 C 13.117045 1.382264 -18.743629 0
M  V30 2 C 11.958200 0.580953 -18.237356 0
M  V30 3 N 11.590847 -0.615390 -18.838409 0
M  V30 4 C 10.531869 -1.024921 -18.147545 0
M  V30 5 O 10.194227 -0.204874 -17.121189 0
M  V30 6 C 11.099339 0.823612 -17.188864 0
M  V30 7 C 10.997245 1.914856 -16.217991 0
M  V30 8 N 11.708403 3.040987 -16.344465 0
M  V30 9 N 11.352937 3.846211 -15.289130 0
M  V30 10 C 10.451841 3.146017 -14.605455 0
M  V30 11 S 9.643932 3.775346 -13.176421 0
M  V30 12 C 8.099315 4.294423 -13.978371 0
M  V30 13 C 6.942846 4.506278 -12.988842 0
M  V30 14 C 6.897556 5.851582 -12.221320 0
M  V30 15 N 8.050030 6.172513 -11.330654 0 CFG=1 CHG=1
M  V30 16 C 8.301727 5.152209 -10.270026 0
M  V30 17 C 9.699044 5.024304 -9.711839 0
M  V30 18 C 10.119681 6.298497 -9.025290 0
M  V30 19 C 10.218760 6.341257 -7.623119 0
M  V30 20 C 10.663771 7.513541 -6.993125 0
M  V30 21 C 10.933084 8.666646 -7.758685 0
M  V30 22 C 10.797004 8.634918 -9.160808 0
M  V30 23 C 10.419209 7.434603 -9.798774 0
M  V30 24 C 10.440087 7.302723 -11.308280 0
M  V30 25 C 9.101801 6.992785 -12.011216 0
M  V30 26 O 11.319743 9.818516 -7.122684 0
M  V30 27 C 12.085259 9.648515 -5.928661 0
M  V30 28 C 11.503985 8.569268 -5.002573 0
M  V30 29 O 11.690278 8.620855 -3.789976 0
M  V30 30 N 10.852725 7.558768 -5.594920 0
M  V30 31 N 10.201002 1.925591 -15.122888 0
M  V30 32 C 9.299221 0.891433 -14.635936 0
M  V30 33 H 13.670148 1.840371 -17.924507 0
M  V30 34 H 12.780337 2.183363 -19.402029 0
M  V30 35 H 13.816694 0.760800 -19.302700 0
M  V30 36 H 9.986821 -1.936602 -18.342836 0
M  V30 37 H 8.276266 5.185995 -14.578517 0
M  V30 38 H 7.810322 3.501513 -14.667337 0
M  V30 39 H 6.020606 4.462004 -13.569938 0
M  V30 40 H 6.867402 3.652006 -12.317777 0
M  V30 41 H 6.736981 6.674280 -12.919405 0
M  V30 42 H 6.007233 5.835468 -11.589981 0
M  V30 43 H 7.685804 5.426620 -9.419663 0
M  V30 44 H 7.968107 4.172047 -10.582841 0
M  V30 45 H 9.732317 4.199041 -8.999499 0
M  V30 46 H 10.377848 4.751963 -10.508245 0
M  V30 47 H 9.982425 5.463824 -7.045859 0
M  V30 48 H 11.036059 9.515139 -9.739666 0
M  V30 49 H 10.836076 8.221179 -11.730581 0
M  V30 50 H 11.192327 6.571662 -11.584719 0
M  V30 51 H 9.325864 6.572485 -12.990985 0
M  V30 52 H 8.620681 7.950706 -12.213983 0
M  V30 53 H 13.109007 9.377711 -6.186985 0
M  V30 54 H 12.114981 10.603358 -5.416901 0
M  V30 55 H 10.519837 6.786568 -5.036525 0
M  V30 56 H 8.886191 1.152593 -13.663065 0
M  V30 57 H 9.840991 -0.049385 -14.531480 0
M  V30 58 H 8.477584 0.756147 -15.339085 0
M  V30 59 H 7.594550 6.894691 -10.759574 0
M  V30 END ATOM
M  V30 BEGIN BOND
M  V30 1 1 2 1
M  V30 2 1 3 2
M  V30 3 2 4 3
M  V30 4 1 5 4
M  V30 5 2 6 2
M  V30 6 1 6 5
M  V30 7 1 7 6
M  V30 8 2 8 7
M  V30 9 1 9 8
M  V30 10 2 10 9
M  V30 11 1 11 10
M  V30 12 1 12 11
M  V30 13 1 13 12
M  V30 14 1 14 13
M  V30 15 1 15 14
M  V30 16 1 16 15
M  V30 17 1 17 16
M  V30 18 1 18 17
M  V30 19 2 19 18
M  V30 20 1 20 19
M  V30 21 2 21 20
M  V30 22 1 22 21
M  V30 23 1 23 18
M  V30 24 2 23 22
M  V30 25 1 24 23
M  V30 26 1 25 15
M  V30 27 1 25 24
M  V30 28 1 26 21
M  V30 29 1 27 26
M  V30 30 1 28 27
M  V30 31 2 29 28
M  V30 32 1 30 20
M  V30 33 1 30 28
M  V30 34 1 31 7
M  V30 35 1 31 10
M  V30 36 1 32 31
M  V30 37 1 33 1
M  V30 38 1 34 1
M  V30 39 1 35 1
M  V30 40 1 36 4
M  V30 41 1 37 12
M  V30 42 1 38 12
M  V30 43 1 39 13
M  V30 44 1 40 13
M  V30 45 1 41 14
M  V30 46 1 42 14
M  V30 47 1 43 16
M  V30 48 1 44 16
M  V30 49 1 45 17
M  V30 50 1 46 17
M  V30 51 1 47 19
M  V30 52 1 48 22
M  V30 53 1 49 24
M  V30 54 1 50 24
M  V30 55 1 51 25
M  V30 56 1 52 25
M  V30 57 1 53 27
M  V30 58 1 54 27
M  V30 59 1 55 30
M  V30 60 1 56 32
M  V30 61 1 57 32
M  V30 62 1 58 32
M  V30 63 1 15 59 CFG=1
M  V30 END BOND
M  V30 END CTAB
M  END
>  <b_m_subgroup_collapsed>  (785) 
0

>  <r_i_docking_score>  (785) 
-7.8683314544006002

>  <s_m_subgroup_title>  (785) 
glide-dock_SP_D22_pv

>  <s_m_subgroupid>  (785) 
glide-dock_SP_D22_pv

>  <Molecule ChEMBL ID>  (785) 
CHEMBL257536

>  <Standard Type>  (785) 
Ki

>  <Standard Value>  (785) 
10000.0

>  <label>  (785) 
0

$$$$
CHEMBL5828332
     RDKit          3D

  0  0  0  0  0  0  0  0  0  0999 V3000
M  V30 BEGIN CTAB
M  V30 COUNTS 64 67 0 0 1
M  V30 BEGIN ATOM
M  V30 1 C 10.800269 5.893223 -12.834657 0
M  V30 2 C 9.394579 5.539337 -12.276685 0 CFG=1
M  V30 3 C 8.701255 4.593768 -13.282332 0
M  V30 4 O 7.686071 4.972287 -13.847354 0
M  V30 5 N 9.267053 3.396757 -13.538899 0
M  V30 6 C 8.878144 2.397588 -14.556333 0 CFG=2
M  V30 7 C 9.014093 2.838351 -16.023302 0
M  V30 8 C 8.493387 2.023880 -17.059242 0
M  V30 9 C 8.629295 2.394440 -18.409296 0
M  V30 10 C 9.287364 3.589757 -18.748756 0
M  V30 11 F 9.408344 3.953086 -20.046837 0
M  V30 12 C 9.821461 4.405893 -17.735287 0
M  V30 13 C 9.695505 4.026453 -16.385469 0
M  V30 14 C 7.586492 1.621982 -14.246899 0
M  V30 15 C 7.573382 0.211224 -14.319202 0
M  V30 16 C 6.402265 -0.481078 -13.955345 0
M  V30 17 C 5.292761 0.256957 -13.506904 0
M  V30 18 C 5.402122 1.657158 -13.447208 0
M  V30 19 N 6.501049 2.325004 -13.846779 0
M  V30 20 C 9.423644 4.853477 -10.885284 0
M  V30 21 C 9.818742 5.795175 -9.729449 0
M  V30 22 N 8.986487 7.025239 -9.715566 0 CFG=1 CHG=1
M  V30 23 C 9.252736 7.918991 -8.568339 0
M  V30 24 C 8.816015 7.302002 -7.229392 0
M  V30 25 O 9.934632 6.746962 -6.548297 0
M  V30 26 C 10.660161 7.577441 -5.724718 0
M  V30 27 C 11.385114 6.973354 -4.677382 0
M  V30 28 C 12.087208 7.757856 -3.743073 0
M  V30 29 C 12.085619 9.160864 -3.856658 0
M  V30 30 C 11.379697 9.772512 -4.910343 0
M  V30 31 C 10.682939 8.989284 -5.846835 0
M  V30 32 C 9.076164 7.744958 -11.003862 0
M  V30 33 C 8.550014 6.835895 -12.116027 0
M  V30 34 H 11.360076 6.566643 -12.180300 0
M  V30 35 H 11.414200 5.011155 -13.026111 0
M  V30 36 H 10.726526 6.408119 -13.792106 0
M  V30 37 H 10.075673 3.151851 -12.987311 0
M  V30 38 H 9.671127 1.657229 -14.451683 0
M  V30 39 H 7.985840 1.097794 -16.834127 0
M  V30 40 H 8.229037 1.761705 -19.189114 0
M  V30 41 H 10.331503 5.321735 -17.993961 0
M  V30 42 H 10.133711 4.668484 -15.637845 0
M  V30 43 H 8.443561 -0.335819 -14.648956 0
M  V30 44 H 6.361597 -1.558820 -14.012074 0
M  V30 45 H 4.371072 -0.227674 -13.230366 0
M  V30 46 H 4.569076 2.257185 -13.109543 0
M  V30 47 H 8.429766 4.458057 -10.662000 0
M  V30 48 H 10.085750 3.989594 -10.896933 0
M  V30 49 H 10.867531 6.085231 -9.811986 0
M  V30 50 H 9.719197 5.257100 -8.787369 0
M  V30 51 H 10.301513 8.218133 -8.558205 0
M  V30 52 H 8.672865 8.832582 -8.708643 0
M  V30 53 H 8.302548 8.038869 -6.609175 0
M  V30 54 H 8.086564 6.508304 -7.386592 0
M  V30 55 H 11.378224 5.897170 -4.571786 0
M  V30 56 H 12.627773 7.282337 -2.938337 0
M  V30 57 H 12.615416 9.764820 -3.134043 0
M  V30 58 H 11.355309 10.848839 -4.999148 0
M  V30 59 H 10.146334 9.502261 -6.629145 0
M  V30 60 H 10.099055 8.071259 -11.190988 0
M  V30 61 H 8.486198 8.659558 -10.970301 0
M  V30 62 H 8.485963 7.393348 -13.046515 0
M  V30 63 H 7.517298 6.577047 -11.872026 0
M  V30 64 H 8.002554 6.772933 -9.646854 0
M  V30 END ATOM
M  V30 BEGIN BOND
M  V30 1 1 2 1 CFG=3
M  V30 2 1 3 2
M  V30 3 2 4 3
M  V30 4 1 5 3
M  V30 5 1 6 5
M  V30 6 1 7 6
M  V30 7 1 8 7
M  V30 8 2 9 8
M  V30 9 1 10 9
M  V30 10 1 11 10
M  V30 11 2 12 10
M  V30 12 2 13 7
M  V30 13 1 13 12
M  V30 14 1 14 6
M  V30 15 2 15 14
M  V30 16 1 16 15
M  V30 17 2 17 16
M  V30 18 1 18 17
M  V30 19 1 19 14
M  V30 20 2 19 18
M  V30 21 1 20 2
M  V30 22 1 21 20
M  V30 23 1 22 21
M  V30 24 1 23 22
M  V30 25 1 24 23
M  V30 26 1 25 24
M  V30 27 1 26 25
M  V30 28 2 27 26
M  V30 29 1 28 27
M  V30 30 2 29 28
M  V30 31 1 30 29
M  V30 32 1 31 26
M  V30 33 2 31 30
M  V30 34 1 32 22
M  V30 35 1 33 2
M  V30 36 1 33 32
M  V30 37 1 34 1
M  V30 38 1 35 1
M  V30 39 1 36 1
M  V30 40 1 37 5
M  V30 41 1 6 38 CFG=3
M  V30 42 1 39 8
M  V30 43 1 40 9
M  V30 44 1 41 12
M  V30 45 1 42 13
M  V30 46 1 43 15
M  V30 47 1 44 16
M  V30 48 1 45 17
M  V30 49 1 46 18
M  V30 50 1 47 20
M  V30 51 1 48 20
M  V30 52 1 49 21
M  V30 53 1 50 21
M  V30 54 1 51 23
M  V30 55 1 52 23
M  V30 56 1 53 24
M  V30 57 1 54 24
M  V30 58 1 55 27
M  V30 59 1 56 28
M  V30 60 1 57 29
M  V30 61 1 58 30
M  V30 62 1 59 31
M  V30 63 1 60 32
M  V30 64 1 61 32
M  V30 65 1 62 33
M  V30 66 1 63 33
M  V30 67 1 22 64 CFG=1
M  V30 END BOND
M  V30 END CTAB
M  END
>  <b_m_subgroup_collapsed>  (786) 
0

>  <r_i_docking_score>  (786) 
-7.8682582075710004

>  <s_m_subgroup_title>  (786) 
glide-dock_SP_D22_pv

>  <s_m_subgroupid>  (786) 
glide-dock_SP_D22_pv

>  <Molecule ChEMBL ID>  (786) 
CHEMBL5828332

>  <Standard Type>  (786) 
Ki

>  <Standard Value>  (786) 
55.0

>  <label>  (786) 
1

$$$$
CHEMBL2414991
     RDKit          3D

  0  0  0  0  0  0  0  0  0  0999 V3000
M  V30 BEGIN CTAB
M  V30 COUNTS 38 41 0 0 1
M  V30 BEGIN ATOM
M  V30 1 C 13.171366 4.621943 -16.112873 0
M  V30 2 N 12.608240 5.262274 -14.896866 0 CFG=1 CHG=1
M  V30 3 C 12.814135 6.717056 -14.932624 0
M  V30 4 C 12.542521 7.282976 -13.551349 0
M  V30 5 C 11.225443 6.880691 -12.930571 0
M  V30 6 C 10.654192 7.538743 -11.840092 0
M  V30 7 C 9.399349 7.156927 -11.369612 0
M  V30 8 O 8.886026 7.863232 -10.325700 0
M  V30 9 C 8.702758 6.078053 -11.960153 0
M  V30 10 O 7.473090 5.772254 -11.446888 0
M  V30 11 C 9.266325 5.307693 -13.027272 0
M  V30 12 C 10.545304 5.758604 -13.474515 0
M  V30 13 C 11.173754 4.950490 -14.635571 0 CFG=2
M  V30 14 C 10.936569 3.437209 -14.440796 0
M  V30 15 C 9.467831 3.133083 -14.250314 0
M  V30 16 C 8.947055 1.920981 -14.749962 0
M  V30 17 C 7.571924 1.653434 -14.662178 0
M  V30 18 C 6.718732 2.614492 -14.098982 0
M  V30 19 C 7.244550 3.816553 -13.590331 0
M  V30 20 C 8.636805 4.088655 -13.617257 0
M  V30 21 H 12.584539 4.872797 -16.997890 0
M  V30 22 H 13.215507 3.537768 -16.023399 0
M  V30 23 H 14.195586 4.956281 -16.286631 0
M  V30 24 H 13.838313 6.960332 -15.218778 0
M  V30 25 H 12.156153 7.174064 -15.674507 0
M  V30 26 H 13.286022 6.974258 -12.832567 0
M  V30 27 H 12.616571 8.366573 -13.606095 0
M  V30 28 H 11.165520 8.368906 -11.376051 0
M  V30 29 H 7.919282 7.772691 -10.235779 0
M  V30 30 H 7.053833 6.450237 -10.917477 0
M  V30 31 H 10.622712 5.255057 -15.527991 0
M  V30 32 H 11.289342 2.860179 -15.294083 0
M  V30 33 H 11.473005 3.076603 -13.566268 0
M  V30 34 H 9.598980 1.194976 -15.213373 0
M  V30 35 H 7.173110 0.725758 -15.046163 0
M  V30 36 H 5.657463 2.427356 -14.046731 0
M  V30 37 H 6.538311 4.522305 -13.186044 0
M  V30 38 H 13.139489 4.929209 -14.104023 0
M  V30 END ATOM
M  V30 BEGIN BOND
M  V30 1 1 2 1
M  V30 2 1 3 2
M  V30 3 1 4 3
M  V30 4 1 5 4
M  V30 5 1 6 5
M  V30 6 2 7 6
M  V30 7 1 8 7
M  V30 8 1 9 7
M  V30 9 1 10 9
M  V30 10 2 11 9
M  V30 11 2 12 5
M  V30 12 1 12 11
M  V30 13 1 13 2
M  V30 14 1 13 12
M  V30 15 1 14 13
M  V30 16 1 15 14
M  V30 17 2 16 15
M  V30 18 1 17 16
M  V30 19 2 18 17
M  V30 20 1 19 18
M  V30 21 1 20 11
M  V30 22 1 20 15
M  V30 23 2 20 19
M  V30 24 1 21 1
M  V30 25 1 22 1
M  V30 26 1 23 1
M  V30 27 1 24 3
M  V30 28 1 25 3
M  V30 29 1 26 4
M  V30 30 1 27 4
M  V30 31 1 28 6
M  V30 32 1 29 8
M  V30 33 1 30 10
M  V30 34 1 13 31 CFG=3
M  V30 35 1 32 14
M  V30 36 1 33 14
M  V30 37 1 34 16
M  V30 38 1 35 17
M  V30 39 1 36 18
M  V30 40 1 37 19
M  V30 41 1 2 38 CFG=1
M  V30 END BOND
M  V30 END CTAB
M  END
>  <b_m_subgroup_collapsed>  (787) 
0

>  <r_i_docking_score>  (787) 
-7.86690322380373

>  <s_m_subgroup_title>  (787) 
glide-dock_SP_D22_pv

>  <s_m_subgroupid>  (787) 
glide-dock_SP_D22_pv

>  <Molecule ChEMBL ID>  (787) 
CHEMBL2414991

>  <Standard Type>  (787) 
Ki

>  <Standard Value>  (787) 
38.9

>  <label>  (787) 
1

$$$$
CHEMBL420986
     RDKit          3D

  0  0  0  0  0  0  0  0  0  0999 V3000
M  V30 BEGIN CTAB
M  V30 COUNTS 43 46 0 0 1
M  V30 BEGIN ATOM
M  V30 1 O 10.374840 0.409113 -16.371593 0
M  V30 2 C 9.357915 0.787296 -15.797574 0
M  V30 3 N 9.128859 2.018730 -15.305720 0
M  V30 4 C 7.897421 2.036631 -14.646487 0
M  V30 5 C 7.261538 3.045093 -13.910766 0
M  V30 6 C 6.016772 2.718730 -13.308826 0
M  V30 7 C 5.465834 1.414172 -13.446840 0
M  V30 8 C 6.137204 0.414804 -14.190775 0
M  V30 9 C 7.359506 0.776469 -14.775855 0
M  V30 10 N 8.276974 0.036696 -15.519412 0
M  V30 11 C 5.288056 3.758736 -12.480604 0
M  V30 12 C 5.953407 5.143779 -12.553460 0
M  V30 13 C 7.485134 5.009905 -12.620701 0 CFG=2
M  V30 14 C 8.235027 6.351324 -12.734556 0
M  V30 15 N 8.486055 7.036314 -11.446807 0 CHG=1
M  V30 16 C 9.294421 6.273380 -10.470577 0
M  V30 17 C 9.934299 7.180718 -9.437897 0
M  V30 18 C 11.199221 7.756635 -9.684095 0
M  V30 19 C 11.814893 8.555393 -8.701076 0
M  V30 20 C 11.162936 8.799651 -7.476592 0
M  V30 21 C 9.895123 8.236576 -7.232411 0
M  V30 22 C 9.286065 7.424656 -8.209270 0
M  V30 23 O 7.853900 4.275722 -13.780357 0
M  V30 24 H 4.519307 1.181462 -12.982592 0
M  V30 25 H 5.732965 -0.581898 -14.295233 0
M  V30 26 H 8.157047 -0.947282 -15.733172 0
M  V30 27 H 4.250640 3.801295 -12.808580 0
M  V30 28 H 5.286500 3.413028 -11.446782 0
M  V30 29 H 5.650324 5.756396 -11.702980 0
M  V30 30 H 5.601112 5.658717 -13.446699 0
M  V30 31 H 7.841823 4.440130 -11.762443 0
M  V30 32 H 7.695590 7.026324 -13.398622 0
M  V30 33 H 9.206920 6.172066 -13.196828 0
M  V30 34 H 7.597950 7.309393 -10.989258 0
M  V30 35 H 10.084251 5.721599 -10.983132 0
M  V30 36 H 8.666175 5.539290 -9.964238 0
M  V30 37 H 11.713196 7.571518 -10.615725 0
M  V30 38 H 12.793944 8.972344 -8.887134 0
M  V30 39 H 11.635770 9.414819 -6.724910 0
M  V30 40 H 9.390285 8.416994 -6.293891 0
M  V30 41 H 8.320602 6.983541 -8.006499 0
M  V30 42 H 9.760339 2.803594 -15.342035 0
M  V30 43 H 8.984415 7.891047 -11.643304 0
M  V30 END ATOM
M  V30 BEGIN BOND
M  V30 1 2 2 1
M  V30 2 1 3 2
M  V30 3 1 4 3
M  V30 4 1 5 4
M  V30 5 2 6 5
M  V30 6 1 7 6
M  V30 7 2 8 7
M  V30 8 2 9 4
M  V30 9 1 9 8
M  V30 10 1 10 2
M  V30 11 1 10 9
M  V30 12 1 11 6
M  V30 13 1 12 11
M  V30 14 1 13 12
M  V30 15 1 14 13
M  V30 16 1 15 14
M  V30 17 1 16 15
M  V30 18 1 17 16
M  V30 19 2 18 17
M  V30 20 1 19 18
M  V30 21 2 20 19
M  V30 22 1 21 20
M  V30 23 1 22 17
M  V30 24 2 22 21
M  V30 25 1 23 5
M  V30 26 1 23 13
M  V30 27 1 24 7
M  V30 28 1 25 8
M  V30 29 1 26 10
M  V30 30 1 27 11
M  V30 31 1 28 11
M  V30 32 1 29 12
M  V30 33 1 30 12
M  V30 34 1 13 31 CFG=1
M  V30 35 1 32 14
M  V30 36 1 33 14
M  V30 37 1 34 15
M  V30 38 1 35 16
M  V30 39 1 36 16
M  V30 40 1 37 18
M  V30 41 1 38 19
M  V30 42 1 39 20
M  V30 43 1 40 21
M  V30 44 1 41 22
M  V30 45 1 42 3
M  V30 46 1 43 15
M  V30 END BOND
M  V30 END CTAB
M  END
>  <b_m_subgroup_collapsed>  (788) 
0

>  <r_i_docking_score>  (788) 
-7.8657649512138201

>  <s_m_subgroup_title>  (788) 
glide-dock_SP_D22_pv

>  <s_m_subgroupid>  (788) 
glide-dock_SP_D22_pv

>  <Molecule ChEMBL ID>  (788) 
CHEMBL420986

>  <Standard Type>  (788) 
Ki

>  <Standard Value>  (788) 
3.0

>  <label>  (788) 
1

$$$$
CHEMBL598516
     RDKit          3D

  0  0  0  0  0  0  0  0  0  0999 V3000
M  V30 BEGIN CTAB
M  V30 COUNTS 54 58 0 0 1
M  V30 BEGIN ATOM
M  V30 1 C 12.551305 6.593456 -15.770085 0
M  V30 2 N 11.686120 6.126538 -14.654334 0 CFG=1 CHG=1
M  V30 3 C 11.495049 4.655220 -14.739739 0
M  V30 4 C 10.801963 4.059029 -13.509805 0
M  V30 5 C 9.503547 4.739861 -13.161123 0
M  V30 6 C 8.304282 4.011883 -13.309914 0
M  V30 7 C 7.067597 4.594379 -12.984646 0
M  V30 8 Cl 5.623271 3.656302 -13.083228 0
M  V30 9 C 7.031628 5.934032 -12.559240 0
M  V30 10 O 5.864444 6.555398 -12.246856 0
M  V30 11 C 8.221909 6.660487 -12.417671 0
M  V30 12 C 9.478359 6.073167 -12.673888 0
M  V30 13 C 10.719979 6.967641 -12.479153 0 CFG=1
M  V30 14 C 11.017118 7.372382 -11.031843 0
M  V30 15 C 10.131585 7.080376 -9.959278 0
M  V30 16 C 10.394470 7.529702 -8.651690 0
M  V30 17 C 11.579172 8.247519 -8.383660 0
M  V30 18 N 11.964601 8.759727 -7.118606 0
M  V30 19 C 11.289915 8.793680 -5.960981 0
M  V30 20 O 10.093887 8.535674 -5.850549 0
M  V30 21 C 12.158962 9.185919 -4.804721 0
M  V30 22 C 11.517135 9.773220 -3.566927 0
M  V30 23 C 12.021118 8.353904 -3.545571 0
M  V30 24 C 12.485979 8.466029 -9.430059 0
M  V30 25 C 12.207144 8.080738 -10.754994 0
M  V30 26 C 13.211837 8.445126 -11.850601 0
M  V30 27 C 12.931680 7.842589 -13.250362 0
M  V30 28 C 12.017708 6.609978 -13.268759 0 CFG=2
M  V30 29 H 13.589006 6.292397 -15.620518 0
M  V30 30 H 12.218924 6.161138 -16.714916 0
M  V30 31 H 12.509099 7.674712 -15.898232 0
M  V30 32 H 12.465239 4.169229 -14.861278 0
M  V30 33 H 10.913710 4.427566 -15.634728 0
M  V30 34 H 11.435429 4.172178 -12.646960 0
M  V30 35 H 10.651590 2.987319 -13.646353 0
M  V30 36 H 8.327070 2.987000 -13.650689 0
M  V30 37 H 6.011631 7.173690 -11.519832 0
M  V30 38 H 8.166768 7.684243 -12.074232 0
M  V30 39 H 10.409304 7.921646 -12.899270 0
M  V30 40 H 9.218227 6.524864 -10.104855 0
M  V30 41 H 9.674530 7.303625 -7.879004 0
M  V30 42 H 12.913139 9.103225 -7.070740 0
M  V30 43 H 13.164919 9.529089 -5.044800 0
M  V30 44 H 12.085184 10.516202 -3.010041 0
M  V30 45 H 10.444341 9.934193 -3.580014 0
M  V30 46 H 11.286412 7.551586 -3.538626 0
M  V30 47 H 12.927911 8.146626 -2.982089 0
M  V30 48 H 13.409783 8.972294 -9.203166 0
M  V30 49 H 14.207270 8.172386 -11.515670 0
M  V30 50 H 13.285872 9.527567 -11.929948 0
M  V30 51 H 13.868941 7.648790 -13.751603 0
M  V30 52 H 12.460111 8.572353 -13.885235 0
M  V30 53 H 12.603595 5.853012 -12.754380 0
M  V30 54 H 10.775887 6.521907 -14.846399 0
M  V30 END ATOM
M  V30 BEGIN BOND
M  V30 1 1 2 1
M  V30 2 1 3 2
M  V30 3 1 4 3
M  V30 4 1 5 4
M  V30 5 1 6 5
M  V30 6 2 7 6
M  V30 7 1 8 7
M  V30 8 1 9 7
M  V30 9 1 10 9
M  V30 10 2 11 9
M  V30 11 2 12 5
M  V30 12 1 12 11
M  V30 13 1 13 12
M  V30 14 1 14 13
M  V30 15 1 15 14
M  V30 16 2 16 15
M  V30 17 1 17 16
M  V30 18 1 18 17
M  V30 19 1 19 18
M  V30 20 2 20 19
M  V30 21 1 21 19
M  V30 22 1 22 21
M  V30 23 1 23 21
M  V30 24 1 23 22
M  V30 25 2 24 17
M  V30 26 2 25 14
M  V30 27 1 25 24
M  V30 28 1 26 25
M  V30 29 1 27 26
M  V30 30 1 28 2
M  V30 31 1 28 13
M  V30 32 1 28 27
M  V30 33 1 29 1
M  V30 34 1 30 1
M  V30 35 1 31 1
M  V30 36 1 32 3
M  V30 37 1 33 3
M  V30 38 1 34 4
M  V30 39 1 35 4
M  V30 40 1 36 6
M  V30 41 1 37 10
M  V30 42 1 38 11
M  V30 43 1 13 39 CFG=3
M  V30 44 1 40 15
M  V30 45 1 41 16
M  V30 46 1 42 18
M  V30 47 1 43 21
M  V30 48 1 44 22
M  V30 49 1 45 22
M  V30 50 1 46 23
M  V30 51 1 47 23
M  V30 52 1 48 24
M  V30 53 1 49 26
M  V30 54 1 50 26
M  V30 55 1 51 27
M  V30 56 1 52 27
M  V30 57 1 28 53 CFG=1
M  V30 58 1 2 54 CFG=3
M  V30 END BOND
M  V30 END CTAB
M  END
>  <b_m_subgroup_collapsed>  (789) 
0

>  <r_i_docking_score>  (789) 
-7.8649978102334597

>  <s_m_subgroup_title>  (789) 
glide-dock_SP_D22_pv

>  <s_m_subgroupid>  (789) 
glide-dock_SP_D22_pv

>  <Molecule ChEMBL ID>  (789) 
CHEMBL598516

>  <Standard Type>  (789) 
Ki

>  <Standard Value>  (789) 
10000.0

>  <label>  (789) 
0

$$$$
CHEMBL1215036
     RDKit          3D

  0  0  0  0  0  0  0  0  0  0999 V3000
M  V30 BEGIN CTAB
M  V30 COUNTS 53 56 0 0 1
M  V30 BEGIN ATOM
M  V30 1 F 10.481812 -0.007854 -15.494134 0
M  V30 2 C 10.107297 0.949856 -14.647231 0
M  V30 3 C 9.936102 2.282143 -15.392113 0
M  V30 4 O 9.691466 3.355519 -14.489332 0
M  V30 5 C 8.441843 3.500632 -13.918073 0
M  V30 6 C 7.324734 2.688886 -14.246205 0
M  V30 7 C 6.085891 2.887912 -13.608708 0
M  V30 8 C 5.928778 3.920572 -12.671189 0
M  V30 9 C 7.020054 4.748668 -12.357524 0
M  V30 10 C 8.282817 4.532600 -12.958865 0
M  V30 11 C 9.471834 5.432097 -12.628050 0
M  V30 12 N 9.318664 6.252936 -11.428652 0
M  V30 13 C 10.281681 7.347794 -11.399546 0
M  V30 14 C 9.894125 8.291163 -10.249378 0
M  V30 15 N 9.942571 7.589842 -8.941885 0 CHG=1
M  V30 16 C 9.555542 8.481133 -7.820560 0
M  V30 17 C 10.353027 8.237648 -6.579389 0
M  V30 18 C 10.829462 7.084413 -5.998134 0
M  V30 19 C 11.414625 7.483927 -4.754268 0
M  V30 20 C 12.008585 6.844717 -3.645070 0
M  V30 21 C 12.445443 7.578355 -2.524857 0
M  V30 22 C 12.281709 8.975099 -2.483548 0
M  V30 23 C 11.686638 9.641847 -3.570046 0
M  V30 24 C 11.285830 8.891861 -4.687029 0
M  V30 25 O 10.648876 9.344231 -5.824491 0
M  V30 26 C 9.130951 6.345772 -8.985400 0
M  V30 27 C 9.473031 5.468315 -10.200259 0
M  V30 28 H 10.874875 1.031679 -13.880013 0
M  V30 29 H 9.188411 0.616733 -14.165504 0
M  V30 30 H 9.176007 2.220985 -16.171181 0
M  V30 31 H 10.866426 2.514333 -15.911811 0
M  V30 32 H 7.390267 1.890707 -14.969322 0
M  V30 33 H 5.248638 2.247643 -13.846031 0
M  V30 34 H 4.976026 4.082937 -12.190952 0
M  V30 35 H 6.870674 5.546838 -11.643721 0
M  V30 36 H 10.381616 4.833904 -12.549775 0
M  V30 37 H 9.603840 6.086767 -13.489257 0
M  V30 38 H 11.300912 6.974105 -11.287580 0
M  V30 39 H 10.241621 7.898705 -12.339988 0
M  V30 40 H 10.581281 9.138525 -10.234266 0
M  V30 41 H 8.891138 8.689962 -10.414906 0
M  V30 42 H 9.710263 9.518270 -8.115296 0
M  V30 43 H 8.487157 8.398554 -7.608362 0
M  V30 44 H 10.739774 6.068422 -6.347610 0
M  V30 45 H 12.099777 5.772179 -3.643674 0
M  V30 46 H 12.883216 7.064443 -1.682379 0
M  V30 47 H 12.594896 9.533895 -1.612343 0
M  V30 48 H 11.516996 10.702828 -3.529280 0
M  V30 49 H 9.254745 5.772577 -8.066663 0
M  V30 50 H 8.085337 6.610073 -9.042405 0
M  V30 51 H 8.805043 4.606698 -10.218255 0
M  V30 52 H 10.482704 5.079827 -10.108890 0
M  V30 53 H 10.904168 7.325004 -8.788832 0
M  V30 END ATOM
M  V30 BEGIN BOND
M  V30 1 1 2 1
M  V30 2 1 3 2
M  V30 3 1 4 3
M  V30 4 1 5 4
M  V30 5 2 6 5
M  V30 6 1 7 6
M  V30 7 2 8 7
M  V30 8 1 9 8
M  V30 9 1 10 5
M  V30 10 2 10 9
M  V30 11 1 11 10
M  V30 12 1 12 11
M  V30 13 1 13 12
M  V30 14 1 14 13
M  V30 15 1 15 14
M  V30 16 1 16 15
M  V30 17 1 17 16
M  V30 18 2 18 17
M  V30 19 1 19 18
M  V30 20 2 20 19
M  V30 21 1 21 20
M  V30 22 2 22 21
M  V30 23 1 23 22
M  V30 24 1 24 19
M  V30 25 2 24 23
M  V30 26 1 25 17
M  V30 27 1 25 24
M  V30 28 1 26 15
M  V30 29 1 27 12
M  V30 30 1 27 26
M  V30 31 1 28 2
M  V30 32 1 29 2
M  V30 33 1 30 3
M  V30 34 1 31 3
M  V30 35 1 32 6
M  V30 36 1 33 7
M  V30 37 1 34 8
M  V30 38 1 35 9
M  V30 39 1 36 11
M  V30 40 1 37 11
M  V30 41 1 38 13
M  V30 42 1 39 13
M  V30 43 1 40 14
M  V30 44 1 41 14
M  V30 45 1 42 16
M  V30 46 1 43 16
M  V30 47 1 44 18
M  V30 48 1 45 20
M  V30 49 1 46 21
M  V30 50 1 47 22
M  V30 51 1 48 23
M  V30 52 1 49 26
M  V30 53 1 50 26
M  V30 54 1 51 27
M  V30 55 1 52 27
M  V30 56 1 53 15
M  V30 END BOND
M  V30 END CTAB
M  END
>  <b_m_subgroup_collapsed>  (790) 
0

>  <r_i_docking_score>  (790) 
-7.8645637748976496

>  <s_m_subgroup_title>  (790) 
glide-dock_SP_D22_pv

>  <s_m_subgroupid>  (790) 
glide-dock_SP_D22_pv

>  <Molecule ChEMBL ID>  (790) 
CHEMBL1215036

>  <Standard Type>  (790) 
Ki

>  <Standard Value>  (790) 
10000.0

>  <label>  (790) 
0

$$$$
CHEMBL517407
     RDKit          3D

  0  0  0  0  0  0  0  0  0  0999 V3000
M  V30 BEGIN CTAB
M  V30 COUNTS 76 80 0 0 1
M  V30 BEGIN ATOM
M  V30 1 C 11.829032 4.280551 -17.272736 0
M  V30 2 N 11.463012 3.132103 -16.411968 0 CFG=2 CHG=1
M  V30 3 C 10.045598 2.729188 -16.592739 0
M  V30 4 C 9.617608 1.517761 -15.731517 0
M  V30 5 C 8.322491 0.887522 -16.209129 0
M  V30 6 C 7.085295 0.916486 -15.655487 0
M  V30 7 C 6.694325 1.762281 -14.493705 0
M  V30 8 C 7.236651 3.049965 -14.262444 0
M  V30 9 C 6.787071 3.874509 -13.215798 0
M  V30 10 C 5.800015 3.409746 -12.338888 0
M  V30 11 C 5.262370 2.129673 -12.535091 0
M  V30 12 C 5.687938 1.316837 -13.605277 0
M  V30 13 S 4.873312 -0.227570 -13.846850 0
M  V30 14 C 4.973803 -0.445610 -15.591860 0
M  V30 15 C 3.981777 -1.224359 -16.220104 0
M  V30 16 C 3.967048 -1.356851 -17.618837 0
M  V30 17 C 4.946576 -0.704885 -18.388573 0
M  V30 18 Cl 4.903772 -0.816017 -20.109259 0
M  V30 19 C 5.961416 0.042770 -17.756157 0
M  V30 20 C 6.000037 0.172515 -16.345417 0
M  V30 21 C 11.936155 3.268749 -15.008377 0
M  V30 22 C 11.417491 4.457338 -14.218673 0
M  V30 23 C 12.090977 5.692063 -14.287881 0
M  V30 24 C 11.685793 6.768631 -13.479095 0
M  V30 25 C 10.585413 6.635892 -12.605430 0
M  V30 26 O 10.199218 7.772565 -11.927673 0
M  V30 27 C 9.366153 7.683308 -10.777631 0
M  V30 28 C 10.272165 7.492867 -9.558353 0
M  V30 29 C 9.516014 7.469386 -8.219691 0
M  V30 30 N 10.475047 7.661682 -7.101608 0 CHG=1
M  V30 31 C 10.611845 9.079632 -6.696898 0
M  V30 32 C 11.806979 9.261584 -5.750806 0
M  V30 33 C 11.681989 8.352098 -4.516536 0
M  V30 34 C 11.377839 6.895258 -4.914366 0
M  V30 35 C 10.222434 6.799191 -5.925270 0
M  V30 36 C 9.924824 5.386546 -12.522502 0
M  V30 37 C 10.342497 4.306900 -13.320916 0
M  V30 38 H 11.264721 5.175910 -17.004965 0
M  V30 39 H 12.892779 4.508010 -17.187191 0
M  V30 40 H 11.627431 4.058087 -18.321255 0
M  V30 41 H 9.907773 2.477326 -17.646557 0
M  V30 42 H 9.412503 3.595716 -16.410496 0
M  V30 43 H 9.535666 1.770274 -14.677288 0
M  V30 44 H 10.377339 0.737570 -15.785071 0
M  V30 45 H 8.473750 0.279618 -17.089563 0
M  V30 46 H 7.970767 3.462550 -14.925814 0
M  V30 47 H 7.193254 4.867999 -13.093031 0
M  V30 48 H 5.454660 4.033422 -11.527405 0
M  V30 49 H 4.486484 1.791728 -11.869173 0
M  V30 50 H 3.214114 -1.710374 -15.635025 0
M  V30 51 H 3.195740 -1.942651 -18.097008 0
M  V30 52 H 6.701643 0.526893 -18.375351 0
M  V30 53 H 11.740425 2.356228 -14.446553 0
M  V30 54 H 13.015288 3.372589 -15.047299 0
M  V30 55 H 12.941783 5.819775 -14.941339 0
M  V30 56 H 12.206672 7.712206 -13.548199 0
M  V30 57 H 8.851639 8.639158 -10.687392 0
M  V30 58 H 8.577236 6.936483 -10.837471 0
M  V30 59 H 10.845263 6.571563 -9.666760 0
M  V30 60 H 11.000752 8.304855 -9.557222 0
M  V30 61 H 8.741899 8.237779 -8.187431 0
M  V30 62 H 8.993837 6.515201 -8.129730 0
M  V30 63 H 10.738256 9.717337 -7.572320 0
M  V30 64 H 9.686281 9.372424 -6.203283 0
M  V30 65 H 12.728287 9.049146 -6.292002 0
M  V30 66 H 11.876093 10.304344 -5.438905 0
M  V30 67 H 12.595403 8.395565 -3.920741 0
M  V30 68 H 10.886121 8.732448 -3.877623 0
M  V30 69 H 12.260095 6.432996 -5.350076 0
M  V30 70 H 11.143999 6.304736 -4.028010 0
M  V30 71 H 9.285877 7.076732 -5.447333 0
M  V30 72 H 10.122215 5.772467 -6.266519 0
M  V30 73 H 9.094560 5.220452 -11.855900 0
M  V30 74 H 9.846702 3.355336 -13.207414 0
M  V30 75 H 11.373548 7.373285 -7.460385 0
M  V30 76 H 11.994229 2.350960 -16.772699 0
M  V30 END ATOM
M  V30 BEGIN BOND
M  V30 1 1 2 1
M  V30 2 1 3 2
M  V30 3 1 4 3
M  V30 4 1 5 4
M  V30 5 2 6 5
M  V30 6 1 7 6
M  V30 7 2 8 7
M  V30 8 1 9 8
M  V30 9 2 10 9
M  V30 10 1 11 10
M  V30 11 1 12 7
M  V30 12 2 12 11
M  V30 13 1 13 12
M  V30 14 1 14 13
M  V30 15 1 15 14
M  V30 16 2 16 15
M  V30 17 1 17 16
M  V30 18 1 18 17
M  V30 19 2 19 17
M  V30 20 1 20 6
M  V30 21 2 20 14
M  V30 22 1 20 19
M  V30 23 1 21 2
M  V30 24 1 22 21
M  V30 25 1 23 22
M  V30 26 2 24 23
M  V30 27 1 25 24
M  V30 28 1 26 25
M  V30 29 1 27 26
M  V30 30 1 28 27
M  V30 31 1 29 28
M  V30 32 1 30 29
M  V30 33 1 31 30
M  V30 34 1 32 31
M  V30 35 1 33 32
M  V30 36 1 34 33
M  V30 37 1 35 30
M  V30 38 1 35 34
M  V30 39 2 36 25
M  V30 40 2 37 22
M  V30 41 1 37 36
M  V30 42 1 38 1
M  V30 43 1 39 1
M  V30 44 1 40 1
M  V30 45 1 41 3
M  V30 46 1 42 3
M  V30 47 1 43 4
M  V30 48 1 44 4
M  V30 49 1 45 5
M  V30 50 1 46 8
M  V30 51 1 47 9
M  V30 52 1 48 10
M  V30 53 1 49 11
M  V30 54 1 50 15
M  V30 55 1 51 16
M  V30 56 1 52 19
M  V30 57 1 53 21
M  V30 58 1 54 21
M  V30 59 1 55 23
M  V30 60 1 56 24
M  V30 61 1 57 27
M  V30 62 1 58 27
M  V30 63 1 59 28
M  V30 64 1 60 28
M  V30 65 1 61 29
M  V30 66 1 62 29
M  V30 67 1 63 31
M  V30 68 1 64 31
M  V30 69 1 65 32
M  V30 70 1 66 32
M  V30 71 1 67 33
M  V30 72 1 68 33
M  V30 73 1 69 34
M  V30 74 1 70 34
M  V30 75 1 71 35
M  V30 76 1 72 35
M  V30 77 1 73 36
M  V30 78 1 74 37
M  V30 79 1 75 30
M  V30 80 1 2 76 CFG=3
M  V30 END BOND
M  V30 END CTAB
M  END
>  <b_m_subgroup_collapsed>  (791) 
0

>  <r_i_docking_score>  (791) 
-7.8629947612147904

>  <s_m_subgroup_title>  (791) 
glide-dock_SP_D22_pv

>  <s_m_subgroupid>  (791) 
glide-dock_SP_D22_pv

>  <Molecule ChEMBL ID>  (791) 
CHEMBL517407

>  <Standard Type>  (791) 
Ki

>  <Standard Value>  (791) 
52.0

>  <label>  (791) 
1

$$$$
CHEMBL3289985
     RDKit          3D

  0  0  0  0  0  0  0  0  0  0999 V3000
M  V30 BEGIN CTAB
M  V30 COUNTS 58 62 0 0 1
M  V30 BEGIN ATOM
M  V30 1 C 9.359179 0.695745 -16.167484 0
M  V30 2 C 8.397762 1.451900 -15.295279 0
M  V30 3 C 8.612872 2.714137 -14.773320 0
M  V30 4 S 10.080352 3.734532 -14.955544 0
M  V30 5 O 9.684151 4.958005 -15.669154 0
M  V30 6 O 11.162003 2.881441 -15.469001 0
M  V30 7 N 10.522898 4.171897 -13.348742 0
M  V30 8 C 9.837525 5.230633 -12.603324 0
M  V30 9 C 9.288275 4.682178 -11.278041 0
M  V30 10 C 8.619783 5.762308 -10.415697 0
M  V30 11 N 9.584108 6.241899 -9.427419 0
M  V30 12 C 9.814254 7.679913 -9.594707 0
M  V30 13 C 10.897429 8.155284 -8.606717 0
M  V30 14 N 10.523903 7.801117 -7.242142 0
M  V30 15 C 10.929682 8.616967 -6.176462 0
M  V30 16 N 10.885990 9.943286 -6.248294 0
M  V30 17 O 11.286023 10.439988 -4.982510 0
M  V30 18 C 11.627863 9.387244 -4.150333 0
M  V30 19 C 12.086524 9.371959 -2.828111 0
M  V30 20 C 12.349208 8.122492 -2.236564 0
M  V30 21 C 12.144322 6.931124 -2.969205 0
M  V30 22 C 11.684823 6.972243 -4.304854 0
M  V30 23 C 11.408405 8.227554 -4.898946 0
M  V30 24 C 10.114571 6.422145 -7.030006 0
M  V30 25 C 9.064578 6.011976 -8.076082 0
M  V30 26 S 7.275263 3.337017 -13.846911 0
M  V30 27 C 6.403422 1.828401 -14.016801 0
M  V30 28 C 5.159691 1.491417 -13.446835 0
M  V30 29 C 4.527274 0.287874 -13.808109 0
M  V30 30 C 5.170761 -0.593760 -14.687341 0
M  V30 31 F 4.566883 -1.747379 -15.048653 0
M  V30 32 C 6.440034 -0.277546 -15.198601 0
M  V30 33 C 7.102773 0.934542 -14.887696 0
M  V30 34 H 8.910715 -0.202725 -16.590530 0
M  V30 35 H 9.698825 1.305669 -17.005400 0
M  V30 36 H 10.237616 0.381330 -15.603556 0
M  V30 37 H 10.743208 3.353686 -12.781569 0
M  V30 38 H 9.036492 5.660019 -13.205835 0
M  V30 39 H 10.548552 6.034135 -12.409982 0
M  V30 40 H 10.077956 4.176161 -10.719066 0
M  V30 41 H 8.548548 3.914106 -11.485173 0
M  V30 42 H 7.748054 5.329593 -9.922162 0
M  V30 43 H 8.224405 6.568245 -11.037560 0
M  V30 44 H 8.884867 8.231553 -9.438241 0
M  V30 45 H 10.140105 7.883505 -10.615207 0
M  V30 46 H 11.043101 9.230538 -8.713411 0
M  V30 47 H 11.850718 7.679538 -8.841961 0
M  V30 48 H 12.226701 10.289067 -2.279026 0
M  V30 49 H 12.704916 8.080212 -1.218134 0
M  V30 50 H 12.346963 5.976303 -2.505359 0
M  V30 51 H 11.551349 6.048331 -4.844554 0
M  V30 52 H 10.987811 5.772322 -7.090245 0
M  V30 53 H 9.676641 6.308471 -6.038498 0
M  V30 54 H 8.139960 6.572971 -7.926591 0
M  V30 55 H 8.821203 4.956940 -7.945792 0
M  V30 56 H 4.660243 2.191315 -12.792704 0
M  V30 57 H 3.537157 0.053212 -13.446482 0
M  V30 58 H 6.899049 -0.999846 -15.856407 0
M  V30 END ATOM
M  V30 BEGIN BOND
M  V30 1 1 2 1
M  V30 2 2 3 2
M  V30 3 1 4 3
M  V30 4 2 5 4
M  V30 5 2 6 4
M  V30 6 1 7 4
M  V30 7 1 8 7
M  V30 8 1 9 8
M  V30 9 1 10 9
M  V30 10 1 11 10
M  V30 11 1 12 11
M  V30 12 1 13 12
M  V30 13 1 14 13
M  V30 14 1 15 14
M  V30 15 2 16 15
M  V30 16 1 17 16
M  V30 17 1 18 17
M  V30 18 2 19 18
M  V30 19 1 20 19
M  V30 20 2 21 20
M  V30 21 1 22 21
M  V30 22 1 23 15
M  V30 23 1 23 18
M  V30 24 2 23 22
M  V30 25 1 24 14
M  V30 26 1 25 11
M  V30 27 1 25 24
M  V30 28 1 26 3
M  V30 29 1 27 26
M  V30 30 1 28 27
M  V30 31 2 29 28
M  V30 32 1 30 29
M  V30 33 1 31 30
M  V30 34 2 32 30
M  V30 35 1 33 2
M  V30 36 2 33 27
M  V30 37 1 33 32
M  V30 38 1 34 1
M  V30 39 1 35 1
M  V30 40 1 36 1
M  V30 41 1 37 7
M  V30 42 1 38 8
M  V30 43 1 39 8
M  V30 44 1 40 9
M  V30 45 1 41 9
M  V30 46 1 42 10
M  V30 47 1 43 10
M  V30 48 1 44 12
M  V30 49 1 45 12
M  V30 50 1 46 13
M  V30 51 1 47 13
M  V30 52 1 48 19
M  V30 53 1 49 20
M  V30 54 1 50 21
M  V30 55 1 51 22
M  V30 56 1 52 24
M  V30 57 1 53 24
M  V30 58 1 54 25
M  V30 59 1 55 25
M  V30 60 1 56 28
M  V30 61 1 57 29
M  V30 62 1 58 32
M  V30 END BOND
M  V30 END CTAB
M  END
>  <b_m_subgroup_collapsed>  (792) 
0

>  <r_i_docking_score>  (792) 
-7.8623048835560301

>  <s_m_subgroup_title>  (792) 
glide-dock_SP_D22_pv

>  <s_m_subgroupid>  (792) 
glide-dock_SP_D22_pv

>  <Molecule ChEMBL ID>  (792) 
CHEMBL3289985

>  <Standard Type>  (792) 
Ki

>  <Standard Value>  (792) 
10000.0

>  <label>  (792) 
0

$$$$
CHEMBL542946
     RDKit          3D

  0  0  0  0  0  0  0  0  0  0999 V3000
M  V30 BEGIN CTAB
M  V30 COUNTS 37 39 0 0 1
M  V30 BEGIN ATOM
M  V30 1 C 8.763952 5.372736 -9.517517 0
M  V30 2 N 9.179761 6.633636 -8.871780 0 CFG=1 CHG=1
M  V30 3 C 8.749869 6.726512 -7.453288 0
M  V30 4 C 9.131943 8.101663 -6.858225 0
M  V30 5 C 10.663610 8.310360 -6.853269 0 CFG=1
M  V30 6 C 11.092800 9.745372 -6.461224 0
M  V30 7 C 10.894699 10.125733 -5.004868 0
M  V30 8 C 11.534707 9.112711 -4.091885 0
M  V30 9 C 12.011327 9.520463 -2.832659 0
M  V30 10 C 12.486007 8.572515 -1.911698 0
M  V30 11 C 12.485721 7.210325 -2.251723 0
M  V30 12 C 12.081181 6.813047 -3.535363 0
M  V30 13 C 11.621636 7.755861 -4.477762 0
M  V30 14 C 11.286157 7.300488 -5.859315 0
M  V30 15 O 11.581943 6.172339 -6.247896 0
M  V30 16 C 11.144221 8.110810 -8.320962 0
M  V30 17 C 10.638987 6.836150 -9.022497 0
M  V30 18 H 9.140719 4.501649 -8.979349 0
M  V30 19 H 7.686058 5.317139 -9.552278 0
M  V30 20 H 9.119638 5.321880 -10.547172 0
M  V30 21 H 7.686128 6.563296 -7.342871 0
M  V30 22 H 9.185686 5.903926 -6.889948 0
M  V30 23 H 8.737658 8.171921 -5.848312 0
M  V30 24 H 8.638851 8.893691 -7.424626 0
M  V30 25 H 12.148666 9.885088 -6.701667 0
M  V30 26 H 10.554566 10.465651 -7.046835 0
M  V30 27 H 9.834453 10.181293 -4.777161 0
M  V30 28 H 11.286005 11.123305 -4.824246 0
M  V30 29 H 11.986830 10.564898 -2.558416 0
M  V30 30 H 12.837169 8.896636 -0.946058 0
M  V30 31 H 12.839180 6.469589 -1.549008 0
M  V30 32 H 12.126419 5.770411 -3.796170 0
M  V30 33 H 10.819656 8.965253 -8.917502 0
M  V30 34 H 12.234786 8.126855 -8.363604 0
M  V30 35 H 10.890547 6.885757 -10.082729 0
M  V30 36 H 11.147542 5.958774 -8.633184 0
M  V30 37 H 8.693137 7.372575 -9.366202 0
M  V30 END ATOM
M  V30 BEGIN BOND
M  V30 1 1 2 1
M  V30 2 1 3 2
M  V30 3 1 4 3
M  V30 4 1 5 4 CFG=3
M  V30 5 1 6 5
M  V30 6 1 7 6
M  V30 7 1 8 7
M  V30 8 2 9 8
M  V30 9 1 10 9
M  V30 10 2 11 10
M  V30 11 1 12 11
M  V30 12 1 13 8
M  V30 13 2 13 12
M  V30 14 1 14 5
M  V30 15 1 14 13
M  V30 16 2 15 14
M  V30 17 1 16 5
M  V30 18 1 17 2
M  V30 19 1 17 16
M  V30 20 1 18 1
M  V30 21 1 19 1
M  V30 22 1 20 1
M  V30 23 1 21 3
M  V30 24 1 22 3
M  V30 25 1 23 4
M  V30 26 1 24 4
M  V30 27 1 25 6
M  V30 28 1 26 6
M  V30 29 1 27 7
M  V30 30 1 28 7
M  V30 31 1 29 9
M  V30 32 1 30 10
M  V30 33 1 31 11
M  V30 34 1 32 12
M  V30 35 1 33 16
M  V30 36 1 34 16
M  V30 37 1 35 17
M  V30 38 1 36 17
M  V30 39 1 2 37 CFG=3
M  V30 END BOND
M  V30 END CTAB
M  END
>  <b_m_subgroup_collapsed>  (793) 
0

>  <r_i_docking_score>  (793) 
-7.8594740916192896

>  <s_m_subgroup_title>  (793) 
glide-dock_SP_D22_pv

>  <s_m_subgroupid>  (793) 
glide-dock_SP_D22_pv

>  <Molecule ChEMBL ID>  (793) 
CHEMBL542946

>  <Standard Type>  (793) 
Ki

>  <Standard Value>  (793) 
10000.0

>  <label>  (793) 
0

$$$$
CHEMBL404000
     RDKit          3D

  0  0  0  0  0  0  0  0  0  0999 V3000
M  V30 BEGIN CTAB
M  V30 COUNTS 54 58 0 0 1
M  V30 BEGIN ATOM
M  V30 1 N 10.479132 1.450811 -14.646913 0 CHG=1
M  V30 2 C 9.465140 2.319364 -15.269099 0 CFG=1
M  V30 3 C 8.390945 1.506649 -16.039518 0
M  V30 4 C 7.001194 2.000162 -15.568909 0
M  V30 5 C 7.308058 2.877451 -14.385308 0
M  V30 6 C 6.383271 3.462245 -13.500226 0
M  V30 7 C 6.884136 4.174439 -12.388549 0
M  V30 8 C 8.281609 4.295272 -12.185161 0
M  V30 9 C 8.821022 4.795230 -10.861033 0
M  V30 10 C 9.204318 6.280705 -10.820984 0
M  V30 11 N 10.086352 6.524165 -9.680426 0
M  V30 12 C 10.595737 7.894690 -9.692556 0
M  V30 13 C 11.732597 8.001563 -8.657536 0
M  V30 14 N 11.287643 7.581476 -7.328253 0
M  V30 15 C 11.229374 8.483142 -6.252959 0
M  V30 16 N 10.885213 9.730153 -6.478849 0
M  V30 17 S 10.886078 10.572311 -5.047022 0
M  V30 18 C 11.597381 9.307964 -4.089179 0
M  V30 19 C 12.065201 9.332980 -2.765963 0
M  V30 20 C 12.485769 8.140016 -2.162731 0
M  V30 21 C 12.442310 6.941919 -2.897405 0
M  V30 22 C 12.026937 6.946092 -4.245183 0
M  V30 23 C 11.615250 8.133365 -4.892168 0
M  V30 24 C 10.564507 6.320262 -7.290197 0
M  V30 25 C 9.463250 6.291448 -8.369766 0
M  V30 26 C 9.191111 3.778683 -13.133728 0
M  V30 27 C 8.676388 3.053316 -14.221665 0
M  V30 28 H 11.167997 2.026972 -14.186584 0
M  V30 29 H 10.034017 0.869263 -13.949087 0
M  V30 30 H 9.945177 3.044483 -15.928640 0
M  V30 31 H 8.508844 1.586916 -17.120560 0
M  V30 32 H 8.474674 0.444821 -15.797155 0
M  V30 33 H 6.356992 1.168327 -15.277745 0
M  V30 34 H 6.490087 2.572176 -16.344936 0
M  V30 35 H 5.319775 3.332230 -13.638968 0
M  V30 36 H 6.195073 4.570719 -11.656438 0
M  V30 37 H 8.070405 4.581450 -10.100515 0
M  V30 38 H 9.687363 4.181171 -10.604375 0
M  V30 39 H 9.754241 6.526638 -11.729923 0
M  V30 40 H 8.325936 6.922938 -10.797417 0
M  V30 41 H 10.986774 8.141287 -10.680318 0
M  V30 42 H 9.795938 8.605555 -9.475331 0
M  V30 43 H 12.568678 7.373995 -8.960546 0
M  V30 44 H 12.119428 9.020185 -8.637280 0
M  V30 45 H 12.082927 10.258012 -2.212439 0
M  V30 46 H 12.830874 8.145881 -1.139960 0
M  V30 47 H 12.753006 6.014314 -2.436248 0
M  V30 48 H 12.047035 6.022660 -4.803850 0
M  V30 49 H 11.273759 5.506203 -7.446191 0
M  V30 50 H 10.114540 6.172419 -6.307271 0
M  V30 51 H 8.689047 7.034737 -8.170093 0
M  V30 52 H 8.980480 5.317972 -8.321601 0
M  V30 53 H 10.256243 3.861472 -12.972454 0
M  V30 54 H 10.928534 0.881543 -15.348201 0
M  V30 END ATOM
M  V30 BEGIN BOND
M  V30 1 1 2 1
M  V30 2 1 3 2
M  V30 3 1 4 3
M  V30 4 1 5 4
M  V30 5 1 6 5
M  V30 6 2 7 6
M  V30 7 1 8 7
M  V30 8 1 9 8
M  V30 9 1 10 9
M  V30 10 1 11 10
M  V30 11 1 12 11
M  V30 12 1 13 12
M  V30 13 1 14 13
M  V30 14 1 15 14
M  V30 15 2 16 15
M  V30 16 1 17 16
M  V30 17 1 18 17
M  V30 18 2 19 18
M  V30 19 1 20 19
M  V30 20 2 21 20
M  V30 21 1 22 21
M  V30 22 1 23 15
M  V30 23 1 23 18
M  V30 24 2 23 22
M  V30 25 1 24 14
M  V30 26 1 25 11
M  V30 27 1 25 24
M  V30 28 2 26 8
M  V30 29 1 27 2
M  V30 30 2 27 5
M  V30 31 1 27 26
M  V30 32 1 28 1
M  V30 33 1 29 1
M  V30 34 1 2 30 CFG=3
M  V30 35 1 31 3
M  V30 36 1 32 3
M  V30 37 1 33 4
M  V30 38 1 34 4
M  V30 39 1 35 6
M  V30 40 1 36 7
M  V30 41 1 37 9
M  V30 42 1 38 9
M  V30 43 1 39 10
M  V30 44 1 40 10
M  V30 45 1 41 12
M  V30 46 1 42 12
M  V30 47 1 43 13
M  V30 48 1 44 13
M  V30 49 1 45 19
M  V30 50 1 46 20
M  V30 51 1 47 21
M  V30 52 1 48 22
M  V30 53 1 49 24
M  V30 54 1 50 24
M  V30 55 1 51 25
M  V30 56 1 52 25
M  V30 57 1 53 26
M  V30 58 1 54 1
M  V30 END BOND
M  V30 END CTAB
M  END
>  <b_m_subgroup_collapsed>  (794) 
0

>  <r_i_docking_score>  (794) 
-7.8593640524701298

>  <s_m_subgroup_title>  (794) 
glide-dock_SP_D22_pv

>  <s_m_subgroupid>  (794) 
glide-dock_SP_D22_pv

>  <Molecule ChEMBL ID>  (794) 
CHEMBL404000

>  <Standard Type>  (794) 
Ki

>  <Standard Value>  (794) 
21.0

>  <label>  (794) 
1

$$$$
CHEMBL62919
     RDKit          3D

  0  0  0  0  0  0  0  0  0  0999 V3000
M  V30 BEGIN CTAB
M  V30 COUNTS 51 54 0 0 1
M  V30 BEGIN ATOM
M  V30 1 O 10.487230 9.771248 -7.046552 0
M  V30 2 C 10.668592 8.616625 -6.682247 0
M  V30 3 C 11.219266 8.342261 -5.327516 0
M  V30 4 C 11.591476 9.460277 -4.541663 0
M  V30 5 C 12.085709 9.296576 -3.238589 0
M  V30 6 C 12.209310 8.007723 -2.703685 0
M  V30 7 F 12.676089 7.860344 -1.447108 0
M  V30 8 C 11.855262 6.882449 -3.473448 0
M  V30 9 C 11.359372 7.044765 -4.784886 0
M  V30 10 C 10.350421 7.473462 -7.670072 0 CFG=1
M  V30 11 C 8.977967 6.818516 -7.424438 0
M  V30 12 C 8.684817 5.710495 -8.465656 0
M  V30 13 N 8.784755 6.172582 -9.884157 0 CFG=2 CHG=1
M  V30 14 C 8.594015 5.043808 -10.843969 0
M  V30 15 C 8.452607 5.471871 -12.331940 0
M  V30 16 N 8.459483 4.296587 -13.259440 0
M  V30 17 C 7.267329 3.581293 -13.636988 0
M  V30 18 S 5.685921 4.149741 -12.937293 0 CHG=-1
M  V30 19 N 7.278111 2.548782 -14.426296 0
M  V30 20 C 8.481040 2.082565 -14.955450 0
M  V30 21 C 8.470326 0.950473 -15.796824 0
M  V30 22 C 9.669832 0.466978 -16.352823 0
M  V30 23 C 10.884969 1.120241 -16.075485 0
M  V30 24 C 10.901518 2.244321 -15.227403 0
M  V30 25 C 9.700140 2.723368 -14.660489 0
M  V30 26 C 9.680978 3.903478 -13.732211 0
M  V30 27 O 10.745405 4.455408 -13.441079 0
M  V30 28 C 10.066972 6.890364 -10.130581 0
M  V30 29 C 10.334329 8.005152 -9.118070 0
M  V30 30 H 11.497242 10.466512 -4.924903 0
M  V30 31 H 12.358188 10.159878 -2.647112 0
M  V30 32 H 11.958150 5.893834 -3.049954 0
M  V30 33 H 11.081359 6.170191 -5.353167 0
M  V30 34 H 11.135190 6.720537 -7.580326 0
M  V30 35 H 8.931942 6.392757 -6.420705 0
M  V30 36 H 8.194160 7.576354 -7.456921 0
M  V30 37 H 7.686721 5.312509 -8.284106 0
M  V30 38 H 9.381658 4.885009 -8.309565 0
M  V30 39 H 9.426091 4.345063 -10.735317 0
M  V30 40 H 7.696782 4.495547 -10.554094 0
M  V30 41 H 7.593606 6.128766 -12.458348 0
M  V30 42 H 9.262638 6.139424 -12.622971 0
M  V30 43 H 7.538679 0.448625 -16.017090 0
M  V30 44 H 9.653580 -0.400507 -16.994509 0
M  V30 45 H 11.806989 0.757509 -16.505527 0
M  V30 46 H 11.842369 2.730277 -15.013060 0
M  V30 47 H 10.075738 7.345357 -11.119148 0
M  V30 48 H 10.886152 6.175194 -10.099024 0
M  V30 49 H 9.566735 8.773540 -9.236510 0
M  V30 50 H 11.285830 8.485689 -9.356157 0
M  V30 51 H 8.007258 6.821445 -10.024968 0
M  V30 END ATOM
M  V30 BEGIN BOND
M  V30 1 2 2 1
M  V30 2 1 3 2
M  V30 3 1 4 3
M  V30 4 2 5 4
M  V30 5 1 6 5
M  V30 6 1 7 6
M  V30 7 2 8 6
M  V30 8 2 9 3
M  V30 9 1 9 8
M  V30 10 1 10 2
M  V30 11 1 11 10
M  V30 12 1 12 11
M  V30 13 1 13 12
M  V30 14 1 14 13
M  V30 15 1 15 14
M  V30 16 1 16 15
M  V30 17 1 17 16
M  V30 18 1 18 17
M  V30 19 2 19 17
M  V30 20 1 20 19
M  V30 21 2 21 20
M  V30 22 1 22 21
M  V30 23 2 23 22
M  V30 24 1 24 23
M  V30 25 1 25 20
M  V30 26 2 25 24
M  V30 27 1 26 16
M  V30 28 1 26 25
M  V30 29 2 27 26
M  V30 30 1 28 13
M  V30 31 1 29 10
M  V30 32 1 29 28
M  V30 33 1 30 4
M  V30 34 1 31 5
M  V30 35 1 32 8
M  V30 36 1 33 9
M  V30 37 1 10 34 CFG=3
M  V30 38 1 35 11
M  V30 39 1 36 11
M  V30 40 1 37 12
M  V30 41 1 38 12
M  V30 42 1 39 14
M  V30 43 1 40 14
M  V30 44 1 41 15
M  V30 45 1 42 15
M  V30 46 1 43 21
M  V30 47 1 44 22
M  V30 48 1 45 23
M  V30 49 1 46 24
M  V30 50 1 47 28
M  V30 51 1 48 28
M  V30 52 1 49 29
M  V30 53 1 50 29
M  V30 54 1 13 51 CFG=3
M  V30 END BOND
M  V30 END CTAB
M  END
>  <b_m_subgroup_collapsed>  (795) 
0

>  <r_i_docking_score>  (795) 
-7.8571734029707603

>  <s_m_subgroup_title>  (795) 
glide-dock_SP_D22_pv

>  <s_m_subgroupid>  (795) 
glide-dock_SP_D22_pv

>  <Molecule ChEMBL ID>  (795) 
CHEMBL62919

>  <Standard Type>  (795) 
Ki

>  <Standard Value>  (795) 
62.0

>  <label>  (795) 
1

$$$$
CHEMBL4788140
     RDKit          3D

  0  0  0  0  0  0  0  0  0  0999 V3000
M  V30 BEGIN CTAB
M  V30 COUNTS 69 74 0 0 1
M  V30 BEGIN ATOM
M  V30 1 C 8.720486 5.362949 -7.905296 0
M  V30 2 C 9.695580 6.341845 -8.566966 0 CFG=1
M  V30 3 C 8.896262 7.106874 -9.625163 0
M  V30 4 N 9.688186 7.479160 -10.811463 0 CFG=2 CHG=1
M  V30 5 C 9.804363 6.381647 -11.811674 0
M  V30 6 C 8.511254 6.212262 -12.640767 0
M  V30 7 C 8.527584 5.087629 -13.708105 0 CFG=1
M  V30 8 C 9.872708 4.885490 -14.446600 0
M  V30 9 C 9.759009 3.821573 -15.549022 0
M  V30 10 C 9.225286 2.493497 -14.976305 0 CFG=2
M  V30 11 N 9.203338 1.418548 -15.987825 0
M  V30 12 C 8.432398 1.372583 -17.091852 0
M  V30 13 O 7.555807 2.172255 -17.415695 0
M  V30 14 C 8.792204 0.173551 -17.969339 0 CFG=2
M  V30 15 C 9.938415 -0.499308 -17.185408 0 CFG=2
M  V30 16 C 10.069025 0.394202 -15.955009 0
M  V30 17 O 10.885561 0.169936 -15.067301 0
M  V30 18 C 11.120255 -0.479518 -18.200438 0 CFG=2
M  V30 19 C 11.547867 0.945271 -18.497803 0
M  V30 20 C 10.556473 1.525234 -19.179369 0
M  V30 21 C 9.452351 0.493938 -19.344028 0 CFG=1
M  V30 22 C 10.319650 -0.764371 -19.480425 0
M  V30 23 C 7.878247 2.690783 -14.258343 0
M  V30 24 C 8.026488 3.746862 -13.143157 0
M  V30 25 C 10.983954 8.106091 -10.464500 0
M  V30 26 C 10.852376 9.147701 -9.331929 0
M  V30 27 C 10.877906 8.575605 -7.911772 0
M  V30 28 C 11.402217 9.406767 -6.894101 0
M  V30 29 C 11.602728 8.933687 -5.590850 0
M  V30 30 C 11.286479 7.603663 -5.287011 0
M  V30 31 Cl 11.686121 6.971913 -3.731100 0
M  V30 32 C 10.695312 6.785965 -6.266161 0
M  V30 33 C 10.438760 7.259667 -7.576156 0
M  V30 34 H 9.285995 4.572436 -7.446964 0
M  V30 35 H 8.074734 5.846750 -7.169497 0
M  V30 36 H 8.088154 4.844549 -8.625861 0
M  V30 37 H 10.449664 5.722602 -9.053964 0
M  V30 38 H 8.486009 8.002605 -9.168141 0
M  V30 39 H 8.076717 6.504644 -9.976033 0
M  V30 40 H 10.076979 5.444127 -11.326623 0
M  V30 41 H 10.621927 6.623839 -12.492096 0
M  V30 42 H 8.280038 7.167807 -13.103264 0
M  V30 43 H 7.651565 6.037781 -11.994935 0
M  V30 44 H 7.796634 5.372315 -14.459745 0
M  V30 45 H 10.219500 5.813608 -14.892601 0
M  V30 46 H 10.644520 4.574529 -13.741362 0
M  V30 47 H 10.739386 3.663274 -15.998657 0
M  V30 48 H 9.111228 4.186947 -16.346104 0
M  V30 49 H 9.926307 2.211465 -14.185678 0
M  V30 50 H 7.936998 -0.494228 -18.076038 0
M  V30 51 H 9.686074 -1.515975 -16.894526 0
M  V30 52 H 11.937089 -1.173040 -18.007175 0
M  V30 53 H 12.475581 1.391599 -18.170115 0
M  V30 54 H 10.502138 2.546437 -19.526051 0
M  V30 55 H 8.771852 0.672047 -20.176964 0
M  V30 56 H 10.937255 -0.763063 -20.380421 0
M  V30 57 H 9.748528 -1.695246 -19.452921 0
M  V30 58 H 7.106364 3.000644 -14.961566 0
M  V30 59 H 7.540320 1.740370 -13.846745 0
M  V30 60 H 7.065974 3.871397 -12.641072 0
M  V30 61 H 8.733862 3.391136 -12.391606 0
M  V30 62 H 11.730522 7.356385 -10.197251 0
M  V30 63 H 11.367650 8.572362 -11.367735 0
M  V30 64 H 11.687372 9.831820 -9.437330 0
M  V30 65 H 9.964722 9.770461 -9.454595 0
M  V30 66 H 11.686131 10.428469 -7.091533 0
M  V30 67 H 12.046122 9.574012 -4.841891 0
M  V30 68 H 10.451609 5.774368 -5.988600 0
M  V30 69 H 9.134503 8.193010 -11.264339 0
M  V30 END ATOM
M  V30 BEGIN BOND
M  V30 1 1 2 1
M  V30 2 1 3 2
M  V30 3 1 4 3
M  V30 4 1 5 4
M  V30 5 1 6 5
M  V30 6 1 7 6
M  V30 7 1 8 7
M  V30 8 1 9 8
M  V30 9 1 10 9
M  V30 10 1 11 10
M  V30 11 1 12 11
M  V30 12 2 13 12
M  V30 13 1 14 12
M  V30 14 1 15 14
M  V30 15 1 16 11
M  V30 16 1 16 15
M  V30 17 2 17 16
M  V30 18 1 18 15
M  V30 19 1 19 18
M  V30 20 2 20 19
M  V30 21 1 21 14
M  V30 22 1 21 20
M  V30 23 1 22 18
M  V30 24 1 22 21
M  V30 25 1 23 10
M  V30 26 1 24 7
M  V30 27 1 24 23
M  V30 28 1 25 4
M  V30 29 1 26 25
M  V30 30 1 27 26
M  V30 31 1 28 27
M  V30 32 2 29 28
M  V30 33 1 30 29
M  V30 34 1 31 30
M  V30 35 2 32 30
M  V30 36 1 33 2
M  V30 37 2 33 27
M  V30 38 1 33 32
M  V30 39 1 34 1
M  V30 40 1 35 1
M  V30 41 1 36 1
M  V30 42 1 2 37 CFG=3
M  V30 43 1 38 3
M  V30 44 1 39 3
M  V30 45 1 40 5
M  V30 46 1 41 5
M  V30 47 1 42 6
M  V30 48 1 43 6
M  V30 49 1 7 44 CFG=3
M  V30 50 1 45 8
M  V30 51 1 46 8
M  V30 52 1 47 9
M  V30 53 1 48 9
M  V30 54 1 10 49 CFG=1
M  V30 55 1 14 50 CFG=3
M  V30 56 1 15 51 CFG=1
M  V30 57 1 18 52 CFG=1
M  V30 58 1 53 19
M  V30 59 1 54 20
M  V30 60 1 21 55 CFG=3
M  V30 61 1 56 22
M  V30 62 1 57 22
M  V30 63 1 58 23
M  V30 64 1 59 23
M  V30 65 1 60 24
M  V30 66 1 61 24
M  V30 67 1 62 25
M  V30 68 1 63 25
M  V30 69 1 64 26
M  V30 70 1 65 26
M  V30 71 1 66 28
M  V30 72 1 67 29
M  V30 73 1 68 32
M  V30 74 1 4 69 CFG=3
M  V30 END BOND
M  V30 END CTAB
M  END
>  <b_m_subgroup_collapsed>  (796) 
0

>  <r_i_docking_score>  (796) 
-7.8555406710122702

>  <s_m_subgroup_title>  (796) 
glide-dock_SP_D22_pv

>  <s_m_subgroupid>  (796) 
glide-dock_SP_D22_pv

>  <Molecule ChEMBL ID>  (796) 
CHEMBL4788140

>  <Standard Type>  (796) 
Ki

>  <Standard Value>  (796) 
43.7

>  <label>  (796) 
1

$$$$
CHEMBL25856
     RDKit          3D

  0  0  0  0  0  0  0  0  0  0999 V3000
M  V30 BEGIN CTAB
M  V30 COUNTS 38 41 0 0 1
M  V30 BEGIN ATOM
M  V30 1 O 6.836344 -0.624891 -15.279585 0
M  V30 2 C 7.371455 0.560542 -14.851162 0
M  V30 3 C 6.485616 1.566516 -14.441206 0
M  V30 4 C 6.944591 2.805651 -13.954714 0
M  V30 5 C 8.338713 3.051172 -13.846674 0
M  V30 6 C 9.227872 2.020344 -14.247259 0
M  V30 7 C 8.759387 0.794358 -14.767488 0
M  V30 8 O 9.657119 -0.166036 -15.140381 0
M  V30 9 C 8.849510 4.250097 -13.015211 0 CFG=1
M  V30 10 C 10.072669 5.040792 -13.483885 0
M  V30 11 C 10.825503 4.715598 -14.638256 0
M  V30 12 C 11.977041 5.450831 -14.974345 0
M  V30 13 C 12.384078 6.529737 -14.171706 0
M  V30 14 C 11.622529 6.891270 -13.046382 0
M  V30 15 C 10.450716 6.173922 -12.715365 0
M  V30 16 C 9.560866 6.722750 -11.594423 0
M  V30 17 N 8.250570 6.048039 -11.413296 0 CHG=1
M  V30 18 C 7.763615 5.260406 -12.569621 0 CFG=2
M  V30 19 C 6.428637 4.589360 -12.247250 0
M  V30 20 C 5.916565 3.801008 -13.446260 0
M  V30 21 H 7.423093 -1.356629 -15.446118 0
M  V30 22 H 5.428170 1.355256 -14.460025 0
M  V30 23 H 10.289959 2.128664 -14.085911 0
M  V30 24 H 9.246462 -0.958609 -15.447369 0
M  V30 25 H 9.195586 3.754093 -12.106250 0
M  V30 26 H 10.541589 3.912040 -15.297193 0
M  V30 27 H 12.550221 5.186089 -15.850955 0
M  V30 28 H 13.272724 7.088145 -14.426293 0
M  V30 29 H 11.921765 7.746595 -12.457954 0
M  V30 30 H 10.103984 6.708939 -10.650637 0
M  V30 31 H 9.355881 7.769331 -11.821662 0
M  V30 32 H 8.348670 5.405007 -10.642180 0
M  V30 33 H 7.582341 5.953840 -13.392772 0
M  V30 34 H 6.551033 3.910689 -11.402579 0
M  V30 35 H 5.688235 5.331882 -11.946151 0
M  V30 36 H 5.655990 4.483083 -14.253597 0
M  V30 37 H 4.998066 3.281617 -13.170858 0
M  V30 38 H 7.552650 6.737623 -11.126274 0
M  V30 END ATOM
M  V30 BEGIN BOND
M  V30 1 1 2 1
M  V30 2 2 3 2
M  V30 3 1 4 3
M  V30 4 2 5 4
M  V30 5 1 6 5
M  V30 6 1 7 2
M  V30 7 2 7 6
M  V30 8 1 8 7
M  V30 9 1 9 5
M  V30 10 1 10 9
M  V30 11 2 11 10
M  V30 12 1 12 11
M  V30 13 2 13 12
M  V30 14 1 14 13
M  V30 15 1 15 10
M  V30 16 2 15 14
M  V30 17 1 16 15
M  V30 18 1 17 16
M  V30 19 1 18 9
M  V30 20 1 18 17
M  V30 21 1 19 18
M  V30 22 1 20 4
M  V30 23 1 20 19
M  V30 24 1 21 1
M  V30 25 1 22 3
M  V30 26 1 23 6
M  V30 27 1 24 8
M  V30 28 1 9 25 CFG=1
M  V30 29 1 26 11
M  V30 30 1 27 12
M  V30 31 1 28 13
M  V30 32 1 29 14
M  V30 33 1 30 16
M  V30 34 1 31 16
M  V30 35 1 32 17
M  V30 36 1 18 33 CFG=3
M  V30 37 1 34 19
M  V30 38 1 35 19
M  V30 39 1 36 20
M  V30 40 1 37 20
M  V30 41 1 38 17
M  V30 END BOND
M  V30 END CTAB
M  END
>  <b_m_subgroup_collapsed>  (797) 
0

>  <r_i_docking_score>  (797) 
-7.8552453359636498

>  <s_m_subgroup_title>  (797) 
glide-dock_SP_D22_pv

>  <s_m_subgroupid>  (797) 
glide-dock_SP_D22_pv

>  <Molecule ChEMBL ID>  (797) 
CHEMBL25856

>  <Standard Type>  (797) 
Ki

>  <Standard Value>  (797) 
58.0

>  <label>  (797) 
1

$$$$
CHEMBL6008815
     RDKit          3D

  0  0  0  0  0  0  0  0  0  0999 V3000
M  V30 BEGIN CTAB
M  V30 COUNTS 49 53 0 0 1
M  V30 BEGIN ATOM
M  V30 1 O 10.803488 4.171407 -13.447147 0
M  V30 2 C 9.586690 3.979176 -13.458632 0
M  V30 3 C 9.030046 2.788229 -14.198943 0
M  V30 4 C 9.874899 1.831142 -14.801982 0
M  V30 5 N 9.413695 0.735567 -15.442342 0
M  V30 6 C 8.077840 0.553028 -15.502390 0
M  V30 7 C 7.146825 1.443651 -14.933621 0
M  V30 8 C 7.635241 2.584149 -14.269819 0
M  V30 9 C 6.757009 3.553330 -13.614701 0
M  V30 10 C 7.296261 4.577731 -12.929732 0
M  V30 11 N 8.687258 4.778283 -12.814650 0
M  V30 12 C 9.134694 5.864634 -11.932992 0
M  V30 13 C 8.806850 5.540936 -10.460185 0
M  V30 14 N 9.690370 6.219495 -9.514071 0
M  V30 15 C 9.580616 7.679749 -9.581890 0
M  V30 16 C 10.617205 8.309710 -8.630307 0
M  V30 17 N 10.426234 7.832483 -7.262377 0
M  V30 18 C 10.898024 8.625975 -6.199138 0
M  V30 19 N 10.886095 9.954900 -6.263750 0
M  V30 20 O 11.286044 10.443801 -4.997128 0
M  V30 21 C 11.625280 9.386374 -4.172313 0
M  V30 22 C 12.086297 9.371586 -2.850087 0
M  V30 23 C 12.341473 8.123853 -2.252100 0
M  V30 24 C 12.133853 6.934100 -2.986888 0
M  V30 25 C 11.673374 6.973994 -4.323155 0
M  V30 26 C 11.395166 8.228058 -4.923653 0
M  V30 27 C 10.283664 6.391009 -7.120725 0
M  V30 28 C 9.298780 5.821336 -8.159475 0
M  V30 29 H 10.950212 1.931873 -14.766190 0
M  V30 30 H 7.738404 -0.331936 -16.018860 0
M  V30 31 H 6.087934 1.243554 -15.000121 0
M  V30 32 H 5.687020 3.422799 -13.686599 0
M  V30 33 H 6.693723 5.313128 -12.414082 0
M  V30 34 H 10.203033 6.057820 -12.039050 0
M  V30 35 H 8.639387 6.791069 -12.228191 0
M  V30 36 H 7.760564 5.769975 -10.246349 0
M  V30 37 H 8.928661 4.468325 -10.304465 0
M  V30 38 H 9.775343 8.033741 -10.594078 0
M  V30 39 H 8.570875 8.002907 -9.322006 0
M  V30 40 H 11.628243 8.059155 -8.954905 0
M  V30 41 H 10.527398 9.393359 -8.687820 0
M  V30 42 H 12.225216 10.290043 -2.302852 0
M  V30 43 H 12.695045 8.081107 -1.232887 0
M  V30 44 H 12.333431 5.978500 -2.523308 0
M  V30 45 H 11.545094 6.044192 -4.852346 0
M  V30 46 H 11.259831 5.911976 -7.211471 0
M  V30 47 H 9.877528 6.172042 -6.134519 0
M  V30 48 H 8.284073 6.166570 -7.945338 0
M  V30 49 H 9.284137 4.733967 -8.080683 0
M  V30 END ATOM
M  V30 BEGIN BOND
M  V30 1 2 2 1
M  V30 2 1 3 2
M  V30 3 1 4 3
M  V30 4 2 5 4
M  V30 5 1 6 5
M  V30 6 2 7 6
M  V30 7 2 8 3
M  V30 8 1 8 7
M  V30 9 1 9 8
M  V30 10 2 10 9
M  V30 11 1 11 2
M  V30 12 1 11 10
M  V30 13 1 12 11
M  V30 14 1 13 12
M  V30 15 1 14 13
M  V30 16 1 15 14
M  V30 17 1 16 15
M  V30 18 1 17 16
M  V30 19 1 18 17
M  V30 20 2 19 18
M  V30 21 1 20 19
M  V30 22 1 21 20
M  V30 23 2 22 21
M  V30 24 1 23 22
M  V30 25 2 24 23
M  V30 26 1 25 24
M  V30 27 1 26 18
M  V30 28 1 26 21
M  V30 29 2 26 25
M  V30 30 1 27 17
M  V30 31 1 28 14
M  V30 32 1 28 27
M  V30 33 1 29 4
M  V30 34 1 30 6
M  V30 35 1 31 7
M  V30 36 1 32 9
M  V30 37 1 33 10
M  V30 38 1 34 12
M  V30 39 1 35 12
M  V30 40 1 36 13
M  V30 41 1 37 13
M  V30 42 1 38 15
M  V30 43 1 39 15
M  V30 44 1 40 16
M  V30 45 1 41 16
M  V30 46 1 42 22
M  V30 47 1 43 23
M  V30 48 1 44 24
M  V30 49 1 45 25
M  V30 50 1 46 27
M  V30 51 1 47 27
M  V30 52 1 48 28
M  V30 53 1 49 28
M  V30 END BOND
M  V30 END CTAB
M  END
>  <b_m_subgroup_collapsed>  (798) 
0

>  <r_i_docking_score>  (798) 
-7.8546572705377899

>  <s_m_subgroup_title>  (798) 
glide-dock_SP_D22_pv

>  <s_m_subgroupid>  (798) 
glide-dock_SP_D22_pv

>  <Molecule ChEMBL ID>  (798) 
CHEMBL6008815

>  <Standard Type>  (798) 
Ki

>  <Standard Value>  (798) 
10000.0

>  <label>  (798) 
0

$$$$
CHEMBL3759205
     RDKit          3D

  0  0  0  0  0  0  0  0  0  0999 V3000
M  V30 BEGIN CTAB
M  V30 COUNTS 63 66 0 0 1
M  V30 BEGIN ATOM
M  V30 1 C 11.764743 6.600869 -2.462027 0
M  V30 2 C 12.439145 7.741352 -3.229238 0
M  V30 3 C 12.710454 8.904572 -2.256209 0
M  V30 4 C 11.690773 8.148502 -4.505653 0
M  V30 5 C 11.460452 9.508841 -4.811204 0
M  V30 6 C 10.884809 9.877941 -6.034044 0
M  V30 7 C 10.451410 8.895950 -6.945051 0
M  V30 8 C 10.634846 7.522210 -6.651925 0
M  V30 9 O 10.234354 6.494291 -7.487178 0
M  V30 10 C 9.430710 6.813508 -8.619751 0
M  V30 11 C 9.162374 5.536177 -9.439241 0
M  V30 12 N 8.277480 5.772445 -10.615165 0 CFG=1 CHG=1
M  V30 13 C 8.667713 6.780945 -11.622602 0 CFG=2
M  V30 14 C 7.508722 6.695284 -12.629183 0
M  V30 15 C 6.994519 5.246628 -12.504841 0
M  V30 16 C 7.911449 4.609399 -11.444042 0 CFG=1
M  V30 17 C 9.178211 3.975443 -12.085896 0
M  V30 18 C 10.048443 4.982094 -12.874285 0 CFG=1
M  V30 19 N 9.643119 4.971281 -14.286371 0
M  V30 20 S 10.482221 4.049747 -15.476591 0
M  V30 21 O 11.179424 2.953173 -14.790521 0
M  V30 22 O 9.530182 3.774573 -16.560343 0
M  V30 23 C 11.687115 5.225664 -16.075708 0
M  V30 24 C 12.935781 5.339396 -15.438009 0
M  V30 25 C 13.885361 6.259717 -15.928048 0
M  V30 26 C 13.577563 7.062528 -17.045485 0
M  V30 27 F 14.486091 7.946012 -17.515823 0
M  V30 28 C 12.326101 6.945742 -17.678364 0
M  V30 29 C 11.376511 6.024662 -17.194178 0
M  V30 30 C 10.026739 6.413568 -12.279401 0
M  V30 31 C 11.280060 7.170187 -5.444340 0
M  V30 32 H 11.524075 5.773051 -3.116207 0
M  V30 33 H 12.430452 6.208706 -1.692769 0
M  V30 34 H 10.846251 6.924571 -1.979390 0
M  V30 35 H 13.404597 7.372158 -3.571368 0
M  V30 36 H 13.285759 9.694849 -2.736121 0
M  V30 37 H 11.782784 9.344354 -1.888660 0
M  V30 38 H 13.277271 8.572069 -1.388833 0
M  V30 39 H 11.732028 10.300101 -4.133011 0
M  V30 40 H 10.741231 10.924465 -6.252097 0
M  V30 41 H 9.976161 9.229469 -7.856761 0
M  V30 42 H 8.488647 7.260222 -8.295360 0
M  V30 43 H 9.954925 7.533201 -9.247945 0
M  V30 44 H 10.108904 5.097663 -9.742256 0
M  V30 45 H 8.676626 4.801953 -8.794731 0
M  V30 46 H 8.716860 7.777709 -11.189333 0
M  V30 47 H 7.815353 6.961245 -13.634337 0
M  V30 48 H 6.715124 7.389649 -12.353106 0
M  V30 49 H 7.004024 4.704048 -13.451687 0
M  V30 50 H 5.962081 5.255987 -12.148188 0
M  V30 51 H 7.362464 3.868719 -10.860743 0
M  V30 52 H 9.792751 3.516821 -11.313177 0
M  V30 53 H 8.892024 3.151155 -12.741436 0
M  V30 54 H 11.080120 4.633413 -12.847561 0
M  V30 55 H 9.153578 5.793283 -14.636126 0
M  V30 56 H 13.167684 4.725937 -14.579205 0
M  V30 57 H 14.846669 6.348869 -15.447902 0
M  V30 58 H 12.094613 7.570331 -18.529264 0
M  V30 59 H 10.416306 5.936957 -17.680891 0
M  V30 60 H 10.314477 7.131140 -13.046520 0
M  V30 61 H 10.807822 6.519313 -11.527705 0
M  V30 62 H 11.455585 6.122329 -5.250107 0
M  V30 63 H 7.403225 6.134818 -10.243826 0
M  V30 END ATOM
M  V30 BEGIN BOND
M  V30 1 1 2 1
M  V30 2 1 3 2
M  V30 3 1 4 2
M  V30 4 2 5 4
M  V30 5 1 6 5
M  V30 6 2 7 6
M  V30 7 1 8 7
M  V30 8 1 9 8
M  V30 9 1 10 9
M  V30 10 1 11 10
M  V30 11 1 12 11
M  V30 12 1 13 12
M  V30 13 1 14 13
M  V30 14 1 15 14
M  V30 15 1 16 12
M  V30 16 1 16 15
M  V30 17 1 17 16
M  V30 18 1 18 17
M  V30 19 1 19 18
M  V30 20 1 20 19
M  V30 21 2 21 20
M  V30 22 2 22 20
M  V30 23 1 23 20
M  V30 24 1 24 23
M  V30 25 2 25 24
M  V30 26 1 26 25
M  V30 27 1 27 26
M  V30 28 2 28 26
M  V30 29 2 29 23
M  V30 30 1 29 28
M  V30 31 1 30 13
M  V30 32 1 30 18
M  V30 33 1 31 4
M  V30 34 2 31 8
M  V30 35 1 32 1
M  V30 36 1 33 1
M  V30 37 1 34 1
M  V30 38 1 35 2
M  V30 39 1 36 3
M  V30 40 1 37 3
M  V30 41 1 38 3
M  V30 42 1 39 5
M  V30 43 1 40 6
M  V30 44 1 41 7
M  V30 45 1 42 10
M  V30 46 1 43 10
M  V30 47 1 44 11
M  V30 48 1 45 11
M  V30 49 1 13 46 CFG=1
M  V30 50 1 47 14
M  V30 51 1 48 14
M  V30 52 1 49 15
M  V30 53 1 50 15
M  V30 54 1 16 51 CFG=1
M  V30 55 1 52 17
M  V30 56 1 53 17
M  V30 57 1 18 54 CFG=3
M  V30 58 1 55 19
M  V30 59 1 56 24
M  V30 60 1 57 25
M  V30 61 1 58 28
M  V30 62 1 59 29
M  V30 63 1 60 30
M  V30 64 1 61 30
M  V30 65 1 62 31
M  V30 66 1 12 63 CFG=1
M  V30 END BOND
M  V30 END CTAB
M  END
>  <b_m_subgroup_collapsed>  (799) 
0

>  <r_i_docking_score>  (799) 
-7.8537288378517296

>  <s_m_subgroup_title>  (799) 
glide-dock_SP_D22_pv

>  <s_m_subgroupid>  (799) 
glide-dock_SP_D22_pv

>  <Molecule ChEMBL ID>  (799) 
CHEMBL3759205

>  <Standard Type>  (799) 
Ki

>  <Standard Value>  (799) 
60.0

>  <label>  (799) 
1

$$$$
CHEMBL6063896
     RDKit          3D

  0  0  0  0  0  0  0  0  0  0999 V3000
M  V30 BEGIN CTAB
M  V30 COUNTS 57 59 0 0 1
M  V30 BEGIN ATOM
M  V30 1 C 12.899281 8.691474 -1.488902 0
M  V30 2 O 12.484930 7.408520 -1.940748 0
M  V30 3 C 11.523726 7.479567 -2.974459 0
M  V30 4 C 12.180728 7.609889 -4.360533 0
M  V30 5 C 11.453810 8.543734 -5.335419 0
M  V30 6 C 10.483584 7.834561 -6.252205 0
M  V30 7 O 9.710256 6.972306 -5.846929 0
M  V30 8 N 10.495443 8.211595 -7.541451 0
M  V30 9 C 9.457806 7.904434 -8.526314 0
M  V30 10 C 9.502318 6.449042 -9.050346 0
M  V30 11 N 8.521473 6.171670 -10.142339 0 CFG=2 CHG=1
M  V30 12 C 8.365309 4.713800 -10.392505 0
M  V30 13 C 7.298355 4.437718 -11.471457 0
M  V30 14 C 7.647532 5.089539 -12.816274 0 CFG=2
M  V30 15 C 8.781123 4.370498 -13.559303 0
M  V30 16 C 10.035320 4.960268 -13.840253 0
M  V30 17 C 11.014694 4.194971 -14.499416 0
M  V30 18 C 10.708785 2.876292 -14.874647 0
M  V30 19 C 9.420833 2.375637 -14.590816 0
M  V30 20 C 9.009640 0.978983 -15.049012 0
M  V30 21 F 10.070507 0.171976 -15.127111 0
M  V30 22 F 8.127757 0.431255 -14.211835 0
M  V30 23 F 8.449028 1.064339 -16.255705 0
M  V30 24 N 8.477474 3.116372 -13.961322 0
M  V30 25 C 7.835671 6.592655 -12.538092 0
M  V30 26 C 8.833364 6.908401 -11.398154 0
M  V30 27 C 12.169091 9.797427 -5.834661 0
M  V30 28 C 11.024758 9.932264 -4.876290 0
M  V30 29 H 13.685834 8.589401 -0.742352 0
M  V30 30 H 13.286596 9.298541 -2.306642 0
M  V30 31 H 12.077059 9.237381 -1.028660 0
M  V30 32 H 10.886072 8.331141 -2.756189 0
M  V30 33 H 10.898314 6.583872 -2.943140 0
M  V30 34 H 12.277677 6.614150 -4.796694 0
M  V30 35 H 13.200940 7.973913 -4.246272 0
M  V30 36 H 11.190981 8.889934 -7.815398 0
M  V30 37 H 9.592103 8.622781 -9.332747 0
M  V30 38 H 8.483850 8.116570 -8.087385 0
M  V30 39 H 9.294716 5.776620 -8.216461 0
M  V30 40 H 10.506919 6.202881 -9.396886 0
M  V30 41 H 8.085753 4.216923 -9.462505 0
M  V30 42 H 9.323078 4.287519 -10.695887 0
M  V30 43 H 6.355215 4.869501 -11.148705 0
M  V30 44 H 7.097363 3.372925 -11.587357 0
M  V30 45 H 6.774448 4.989516 -13.463230 0
M  V30 46 H 10.269884 5.978807 -13.587770 0
M  V30 47 H 11.983447 4.617238 -14.723971 0
M  V30 48 H 11.439467 2.272091 -15.392183 0
M  V30 49 H 8.085934 7.125073 -13.446867 0
M  V30 50 H 6.865717 6.998318 -12.247202 0
M  V30 51 H 8.785402 7.981701 -11.221687 0
M  V30 52 H 9.861672 6.693613 -11.679224 0
M  V30 53 H 13.168341 9.986959 -5.447245 0
M  V30 54 H 11.999441 10.170489 -6.841050 0
M  V30 55 H 10.086457 10.326231 -5.258549 0
M  V30 56 H 11.268959 10.247617 -3.864036 0
M  V30 57 H 7.614202 6.533839 -9.846732 0
M  V30 END ATOM
M  V30 BEGIN BOND
M  V30 1 1 2 1
M  V30 2 1 3 2
M  V30 3 1 4 3
M  V30 4 1 5 4
M  V30 5 1 6 5
M  V30 6 2 7 6
M  V30 7 1 8 6
M  V30 8 1 9 8
M  V30 9 1 10 9
M  V30 10 1 11 10
M  V30 11 1 12 11
M  V30 12 1 13 12
M  V30 13 1 14 13
M  V30 14 1 15 14
M  V30 15 1 16 15
M  V30 16 2 17 16
M  V30 17 1 18 17
M  V30 18 2 19 18
M  V30 19 1 20 19
M  V30 20 1 21 20
M  V30 21 1 22 20
M  V30 22 1 23 20
M  V30 23 2 24 15
M  V30 24 1 24 19
M  V30 25 1 25 14
M  V30 26 1 26 11
M  V30 27 1 26 25
M  V30 28 1 27 5
M  V30 29 1 28 5
M  V30 30 1 28 27
M  V30 31 1 29 1
M  V30 32 1 30 1
M  V30 33 1 31 1
M  V30 34 1 32 3
M  V30 35 1 33 3
M  V30 36 1 34 4
M  V30 37 1 35 4
M  V30 38 1 36 8
M  V30 39 1 37 9
M  V30 40 1 38 9
M  V30 41 1 39 10
M  V30 42 1 40 10
M  V30 43 1 41 12
M  V30 44 1 42 12
M  V30 45 1 43 13
M  V30 46 1 44 13
M  V30 47 1 14 45 CFG=3
M  V30 48 1 46 16
M  V30 49 1 47 17
M  V30 50 1 48 18
M  V30 51 1 49 25
M  V30 52 1 50 25
M  V30 53 1 51 26
M  V30 54 1 52 26
M  V30 55 1 53 27
M  V30 56 1 54 27
M  V30 57 1 55 28
M  V30 58 1 56 28
M  V30 59 1 11 57 CFG=1
M  V30 END BOND
M  V30 END CTAB
M  END
>  <b_m_subgroup_collapsed>  (800) 
0

>  <r_i_docking_score>  (800) 
-7.8516273708785302

>  <s_m_subgroup_title>  (800) 
glide-dock_SP_D22_pv

>  <s_m_subgroupid>  (800) 
glide-dock_SP_D22_pv

>  <Molecule ChEMBL ID>  (800) 
CHEMBL6063896

>  <Standard Type>  (800) 
Ki

>  <Standard Value>  (800) 
13.0

>  <label>  (800) 
1

$$$$
CHEMBL5646837
     RDKit          3D

  0  0  0  0  0  0  0  0  0  0999 V3000
M  V30 BEGIN CTAB
M  V30 COUNTS 78 81 0 0 1
M  V30 BEGIN ATOM
M  V30 1 C 13.810479 5.997044 -15.837461 0
M  V30 2 C 13.298477 4.930464 -15.205658 0
M  V30 3 C 12.169339 4.075334 -15.735625 0
M  V30 4 N 11.069858 4.008802 -14.741197 0 CFG=1 CHG=1
M  V30 5 C 10.479378 5.311138 -14.380666 0
M  V30 6 C 9.138767 5.002105 -13.687436 0 CFG=2
M  V30 7 O 9.175313 5.051447 -12.264024 0
M  V30 8 C 9.453808 6.169801 -11.573705 0
M  V30 9 O 9.826344 7.234682 -12.065727 0
M  V30 10 N 9.252149 5.874781 -10.241014 0
M  V30 11 C 9.723769 6.555085 -9.095572 0
M  V30 12 C 10.770466 7.509198 -9.113958 0
M  V30 13 C 11.273204 8.031003 -7.902451 0
M  V30 14 C 10.737976 7.596584 -6.669482 0
M  V30 15 C 11.286058 8.037905 -5.390677 0
M  V30 16 C 11.660549 7.074574 -4.396141 0
M  V30 17 C 12.091915 7.636868 -3.227395 0
M  V30 18 S 12.086875 9.372220 -3.317814 0
M  V30 19 C 11.503042 9.322816 -4.963060 0
M  V30 20 C 9.661378 6.692689 -6.665234 0
M  V30 21 C 9.160016 6.173099 -7.868514 0
M  V30 22 C 8.835215 3.541785 -14.077430 0
M  V30 23 C 9.948157 3.093987 -15.042560 0 CFG=1
M  V30 24 C 9.499668 3.126767 -16.525236 0
M  V30 25 N 8.426749 2.172428 -16.752867 0
M  V30 26 C 8.600922 0.879150 -17.051647 0
M  V30 27 O 9.694008 0.369378 -17.294130 0
M  V30 28 C 7.331428 0.090266 -17.114136 0
M  V30 29 C 7.063767 -0.681728 -18.258503 0
M  V30 30 C 5.864281 -1.405839 -18.361612 0
M  V30 31 C 5.555601 -2.196344 -19.620207 0
M  V30 32 C 4.589295 -1.469737 -20.571341 0
M  V30 33 C 5.122663 -0.149988 -21.155521 0
M  V30 34 F 5.139591 0.823992 -20.242710 0
M  V30 35 C 4.936927 -1.380263 -17.301788 0
M  V30 36 C 5.201415 -0.629284 -16.129356 0
M  V30 37 O 4.332041 -0.548044 -15.062779 0
M  V30 38 C 3.060802 -1.153811 -15.208484 0
M  V30 39 C 6.416324 0.095698 -16.032780 0
M  V30 40 O 6.691057 0.823976 -14.899294 0
M  V30 41 C 6.964383 0.042780 -13.743748 0
M  V30 42 H 13.437089 6.316770 -16.799210 0
M  V30 43 H 14.614585 6.565596 -15.393264 0
M  V30 44 H 13.687983 4.636755 -14.244733 0
M  V30 45 H 11.821977 4.489650 -16.681416 0
M  V30 46 H 12.544963 3.070087 -15.931416 0
M  V30 47 H 11.163311 5.910439 -13.783379 0
M  V30 48 H 10.281820 5.857048 -15.303763 0
M  V30 49 H 8.359139 5.673074 -14.051802 0
M  V30 50 H 8.754211 5.013878 -10.074346 0
M  V30 51 H 11.224779 7.821920 -10.042256 0
M  V30 52 H 12.097559 8.729584 -7.921008 0
M  V30 53 H 11.573728 6.012001 -4.567425 0
M  V30 54 H 12.412123 7.138140 -2.324570 0
M  V30 55 H 11.324210 10.242801 -5.500226 0
M  V30 56 H 9.228151 6.373591 -5.731140 0
M  V30 57 H 8.343726 5.462355 -7.841284 0
M  V30 58 H 8.882681 2.906236 -13.191725 0
M  V30 59 H 7.829616 3.432451 -14.485242 0
M  V30 60 H 10.264983 2.079415 -14.797416 0
M  V30 61 H 9.153898 4.122580 -16.805830 0
M  V30 62 H 10.322083 2.888813 -17.200272 0
M  V30 63 H 7.479862 2.475189 -16.576385 0
M  V30 64 H 7.770447 -0.694845 -19.076799 0
M  V30 65 H 6.484337 -2.435014 -20.140017 0
M  V30 66 H 5.122464 -3.151808 -19.325087 0
M  V30 67 H 4.366556 -2.142698 -21.403013 0
M  V30 68 H 3.637143 -1.288272 -20.070478 0
M  V30 69 H 6.133403 -0.257980 -21.547827 0
M  V30 70 H 4.486346 0.196419 -21.967876 0
M  V30 71 H 4.024481 -1.946451 -17.418945 0
M  V30 72 H 2.491008 -1.024946 -14.287598 0
M  V30 73 H 2.493682 -0.688093 -16.012417 0
M  V30 74 H 3.149451 -2.225583 -15.402707 0
M  V30 75 H 6.438810 0.464442 -12.886332 0
M  V30 76 H 6.672693 -1.005117 -13.835782 0
M  V30 77 H 8.032263 0.078604 -13.526947 0
M  V30 78 H 11.476186 3.650565 -13.888388 0
M  V30 END ATOM
M  V30 BEGIN BOND
M  V30 1 2 2 1
M  V30 2 1 3 2
M  V30 3 1 4 3
M  V30 4 1 5 4
M  V30 5 1 6 5
M  V30 6 1 7 6
M  V30 7 1 8 7
M  V30 8 2 9 8
M  V30 9 1 10 8
M  V30 10 1 11 10
M  V30 11 1 12 11
M  V30 12 2 13 12
M  V30 13 1 14 13
M  V30 14 1 15 14
M  V30 15 1 16 15
M  V30 16 2 17 16
M  V30 17 1 18 17
M  V30 18 2 19 15
M  V30 19 1 19 18
M  V30 20 2 20 14
M  V30 21 2 21 11
M  V30 22 1 21 20
M  V30 23 1 22 6
M  V30 24 1 23 4
M  V30 25 1 23 22
M  V30 26 1 24 23
M  V30 27 1 25 24
M  V30 28 1 26 25
M  V30 29 2 27 26
M  V30 30 1 28 26
M  V30 31 2 29 28
M  V30 32 1 30 29
M  V30 33 1 31 30
M  V30 34 1 32 31
M  V30 35 1 33 32
M  V30 36 1 34 33
M  V30 37 2 35 30
M  V30 38 1 36 35
M  V30 39 1 37 36
M  V30 40 1 38 37
M  V30 41 1 39 28
M  V30 42 2 39 36
M  V30 43 1 40 39
M  V30 44 1 41 40
M  V30 45 1 42 1
M  V30 46 1 43 1
M  V30 47 1 44 2
M  V30 48 1 45 3
M  V30 49 1 46 3
M  V30 50 1 47 5
M  V30 51 1 48 5
M  V30 52 1 6 49 CFG=3
M  V30 53 1 50 10
M  V30 54 1 51 12
M  V30 55 1 52 13
M  V30 56 1 53 16
M  V30 57 1 54 17
M  V30 58 1 55 19
M  V30 59 1 56 20
M  V30 60 1 57 21
M  V30 61 1 58 22
M  V30 62 1 59 22
M  V30 63 1 23 60 CFG=1
M  V30 64 1 61 24
M  V30 65 1 62 24
M  V30 66 1 63 25
M  V30 67 1 64 29
M  V30 68 1 65 31
M  V30 69 1 66 31
M  V30 70 1 67 32
M  V30 71 1 68 32
M  V30 72 1 69 33
M  V30 73 1 70 33
M  V30 74 1 71 35
M  V30 75 1 72 38
M  V30 76 1 73 38
M  V30 77 1 74 38
M  V30 78 1 75 41
M  V30 79 1 76 41
M  V30 80 1 77 41
M  V30 81 1 4 78 CFG=1
M  V30 END BOND
M  V30 END CTAB
M  END
>  <b_m_subgroup_collapsed>  (801) 
0

>  <r_i_docking_score>  (801) 
-7.8500275374001696

>  <s_m_subgroup_title>  (801) 
glide-dock_SP_D22_pv

>  <s_m_subgroupid>  (801) 
glide-dock_SP_D22_pv

>  <Molecule ChEMBL ID>  (801) 
CHEMBL5646837

>  <Standard Type>  (801) 
Ki

>  <Standard Value>  (801) 
28.8

>  <label>  (801) 
1

$$$$
CHEMBL5266180
     RDKit          3D

  0  0  0  0  0  0  0  0  0  0999 V3000
M  V30 BEGIN CTAB
M  V30 COUNTS 62 66 0 0 1
M  V30 BEGIN ATOM
M  V30 1 C 8.498335 2.534420 -15.399415 0
M  V30 2 C 9.317793 2.525017 -14.090661 0 CFG=1
M  V30 3 C 10.769227 2.094466 -14.379088 0
M  V30 4 O 11.458144 3.123292 -15.085319 0
M  V30 5 C 11.501140 4.368279 -14.385979 0 CFG=1
M  V30 6 C 12.191841 5.457225 -15.192467 0
M  V30 7 C 12.355655 6.751442 -14.652488 0
M  V30 8 C 12.885995 7.767591 -15.467362 0
M  V30 9 C 13.256235 7.443470 -16.787552 0
M  V30 10 N 13.733555 8.424801 -17.643915 0
M  V30 11 N 13.151848 6.202959 -17.298178 0
M  V30 12 C 12.626204 5.234638 -16.516716 0
M  V30 13 C 10.063625 4.801849 -14.044447 0
M  V30 14 N 9.301633 3.777375 -13.329155 0
M  V30 15 C 7.951038 4.229048 -12.962910 0
M  V30 16 C 7.817512 4.920349 -11.591742 0
M  V30 17 N 8.666597 6.082921 -11.421907 0
M  V30 18 C 9.685015 6.267049 -10.511387 0
M  V30 19 C 10.138436 7.522378 -10.794587 0
M  V30 20 C 11.247786 8.313860 -10.163594 0
M  V30 21 N 11.375051 8.147550 -8.718960 0
M  V30 22 C 10.475788 8.565745 -7.817973 0
M  V30 23 O 9.352728 8.973514 -8.102658 0
M  V30 24 C 10.960641 8.598920 -6.432842 0
M  V30 25 C 11.184829 9.630438 -5.554339 0
M  V30 26 C 11.668313 9.043015 -4.332689 0
M  V30 27 C 12.085672 9.537224 -3.074323 0
M  V30 28 C 12.486202 8.670992 -2.040273 0
M  V30 29 C 12.484925 7.280740 -2.246847 0
M  V30 30 C 12.085555 6.760726 -3.484510 0
M  V30 31 C 11.686235 7.630524 -4.509603 0
M  V30 32 N 11.250956 7.404323 -5.799589 0
M  V30 33 N 9.384768 8.042171 -11.845903 0
M  V30 34 N 8.486280 7.177031 -12.198618 0
M  V30 35 H 8.540195 1.560936 -15.883588 0
M  V30 36 H 7.446675 2.750828 -15.221187 0
M  V30 37 H 8.882373 3.262136 -16.112883 0
M  V30 38 H 8.885985 1.752716 -13.451756 0
M  V30 39 H 10.793843 1.177139 -14.968427 0
M  V30 40 H 11.290405 1.877954 -13.448996 0
M  V30 41 H 12.067150 4.227847 -13.462560 0
M  V30 42 H 12.043056 6.975191 -13.642530 0
M  V30 43 H 12.985949 8.772925 -15.092210 0
M  V30 44 H 13.492999 9.390627 -17.457556 0
M  V30 45 H 13.806755 8.200544 -18.627237 0
M  V30 46 H 12.525217 4.265672 -16.984371 0
M  V30 47 H 10.123994 5.703739 -13.447882 0
M  V30 48 H 9.540198 5.080733 -14.961793 0
M  V30 49 H 7.550953 4.872802 -13.747777 0
M  V30 50 H 7.278023 3.372545 -12.933296 0
M  V30 51 H 6.784631 5.233101 -11.442064 0
M  V30 52 H 8.039931 4.210169 -10.793425 0
M  V30 53 H 9.976763 5.526695 -9.782796 0
M  V30 54 H 12.198332 8.037075 -10.620217 0
M  V30 55 H 11.117632 9.372375 -10.376435 0
M  V30 56 H 12.276097 7.855969 -8.371193 0
M  V30 57 H 11.045151 10.683062 -5.747756 0
M  V30 58 H 12.085859 10.599024 -2.889196 0
M  V30 59 H 12.795771 9.080655 -1.090694 0
M  V30 60 H 12.794838 6.611689 -1.457171 0
M  V30 61 H 12.084893 5.699452 -3.651482 0
M  V30 62 H 11.115050 6.503771 -6.234345 0
M  V30 END ATOM
M  V30 BEGIN BOND
M  V30 1 1 2 1
M  V30 2 1 3 2
M  V30 3 1 4 3
M  V30 4 1 5 4
M  V30 5 1 6 5
M  V30 6 1 7 6
M  V30 7 2 8 7
M  V30 8 1 9 8
M  V30 9 1 10 9
M  V30 10 2 11 9
M  V30 11 2 12 6
M  V30 12 1 12 11
M  V30 13 1 13 5
M  V30 14 1 14 2
M  V30 15 1 14 13
M  V30 16 1 15 14
M  V30 17 1 16 15
M  V30 18 1 17 16
M  V30 19 1 18 17
M  V30 20 2 19 18
M  V30 21 1 20 19
M  V30 22 1 21 20
M  V30 23 1 22 21
M  V30 24 2 23 22
M  V30 25 1 24 22
M  V30 26 2 25 24
M  V30 27 1 26 25
M  V30 28 2 27 26
M  V30 29 1 28 27
M  V30 30 2 29 28
M  V30 31 1 30 29
M  V30 32 1 31 26
M  V30 33 2 31 30
M  V30 34 1 32 24
M  V30 35 1 32 31
M  V30 36 1 33 19
M  V30 37 1 34 17
M  V30 38 2 34 33
M  V30 39 1 35 1
M  V30 40 1 36 1
M  V30 41 1 37 1
M  V30 42 1 2 38 CFG=1
M  V30 43 1 39 3
M  V30 44 1 40 3
M  V30 45 1 5 41 CFG=1
M  V30 46 1 42 7
M  V30 47 1 43 8
M  V30 48 1 44 10
M  V30 49 1 45 10
M  V30 50 1 46 12
M  V30 51 1 47 13
M  V30 52 1 48 13
M  V30 53 1 49 15
M  V30 54 1 50 15
M  V30 55 1 51 16
M  V30 56 1 52 16
M  V30 57 1 53 18
M  V30 58 1 54 20
M  V30 59 1 55 20
M  V30 60 1 56 21
M  V30 61 1 57 25
M  V30 62 1 58 27
M  V30 63 1 59 28
M  V30 64 1 60 29
M  V30 65 1 61 30
M  V30 66 1 62 32
M  V30 END BOND
M  V30 END CTAB
M  END
>  <b_m_subgroup_collapsed>  (802) 
0

>  <r_i_docking_score>  (802) 
-7.8488854528143204

>  <s_m_subgroup_title>  (802) 
glide-dock_SP_D22_pv

>  <s_m_subgroupid>  (802) 
glide-dock_SP_D22_pv

>  <Molecule ChEMBL ID>  (802) 
CHEMBL5266180

>  <Standard Type>  (802) 
Ki

>  <Standard Value>  (802) 
13500.0

>  <label>  (802) 
0

$$$$
CHEMBL5949172
     RDKit          3D

  0  0  0  0  0  0  0  0  0  0999 V3000
M  V30 BEGIN CTAB
M  V30 COUNTS 51 55 0 0 1
M  V30 BEGIN ATOM
M  V30 1 C 10.547229 1.286870 -15.405831 0
M  V30 2 N 10.230035 2.497971 -14.679092 0
M  V30 3 C 11.077064 3.545007 -14.350769 0
M  V30 4 C 10.296625 4.404087 -13.643555 0
M  V30 5 C 9.010788 3.846387 -13.593998 0
M  V30 6 N 8.955385 2.689818 -14.235397 0
M  V30 7 C 7.871476 4.505926 -12.891752 0
M  V30 8 C 8.434504 5.496809 -11.833911 0
M  V30 9 N 9.646567 6.252243 -12.249868 0
M  V30 10 C 9.707349 7.663177 -11.843021 0
M  V30 11 C 10.683902 7.975713 -10.700047 0
M  V30 12 N 10.382581 7.316607 -9.408036 0 CFG=2 CHG=1
M  V30 13 C 8.988016 7.456549 -8.920639 0
M  V30 14 C 9.036724 7.660635 -7.402197 0
M  V30 15 C 10.515315 7.531512 -7.036867 0 CFG=2
M  V30 16 C 10.958065 8.427226 -5.918065 0
M  V30 17 N 10.882400 9.750867 -6.052770 0
M  V30 18 O 11.286752 10.324773 -4.822546 0
M  V30 19 C 11.685256 9.325865 -3.955607 0
M  V30 20 C 12.176065 9.372343 -2.649555 0
M  V30 21 C 12.479036 8.152815 -2.013612 0
M  V30 22 C 12.240192 6.924782 -2.679189 0
M  V30 23 C 11.727647 6.904012 -3.997867 0
M  V30 24 C 11.466736 8.132571 -4.642721 0
M  V30 25 C 11.260771 7.814605 -8.332841 0
M  V30 26 C 10.619432 5.732134 -13.047166 0
M  V30 27 O 11.682347 6.296848 -13.311109 0
M  V30 28 H 11.538889 1.370458 -15.851989 0
M  V30 29 H 10.534735 0.435678 -14.723715 0
M  V30 30 H 9.813481 1.124486 -16.194811 0
M  V30 31 H 12.118404 3.579763 -14.635524 0
M  V30 32 H 7.265710 5.047377 -13.619411 0
M  V30 33 H 7.217971 3.773284 -12.418128 0
M  V30 34 H 8.719743 4.918046 -10.954376 0
M  V30 35 H 7.632937 6.159833 -11.502008 0
M  V30 36 H 8.711315 8.057762 -11.636361 0
M  V30 37 H 10.069398 8.256921 -12.675660 0
M  V30 38 H 10.683200 9.056058 -10.558613 0
M  V30 39 H 11.700246 7.715389 -10.994654 0
M  V30 40 H 8.429873 6.557422 -9.173391 0
M  V30 41 H 8.486265 8.311932 -9.376758 0
M  V30 42 H 8.412882 6.942257 -6.863174 0
M  V30 43 H 8.650270 8.654323 -7.167177 0
M  V30 44 H 10.703362 6.489652 -6.766789 0
M  V30 45 H 12.317183 10.311510 -2.147466 0
M  V30 46 H 12.875793 8.161799 -1.012150 0
M  V30 47 H 12.453093 5.992815 -2.177327 0
M  V30 48 H 11.545242 5.963240 -4.497190 0
M  V30 49 H 11.393675 8.891097 -8.457609 0
M  V30 50 H 12.254656 7.372476 -8.357980 0
M  V30 51 H 10.548027 6.326242 -9.509589 0
M  V30 END ATOM
M  V30 BEGIN BOND
M  V30 1 1 2 1
M  V30 2 1 3 2
M  V30 3 2 4 3
M  V30 4 1 5 4
M  V30 5 1 6 2
M  V30 6 2 6 5
M  V30 7 1 7 5
M  V30 8 1 8 7
M  V30 9 1 9 8
M  V30 10 1 10 9
M  V30 11 1 11 10
M  V30 12 1 12 11
M  V30 13 1 13 12
M  V30 14 1 14 13
M  V30 15 1 15 14
M  V30 16 1 16 15
M  V30 17 2 17 16
M  V30 18 1 18 17
M  V30 19 1 19 18
M  V30 20 2 20 19
M  V30 21 1 21 20
M  V30 22 2 22 21
M  V30 23 1 23 22
M  V30 24 1 24 16
M  V30 25 1 24 19
M  V30 26 2 24 23
M  V30 27 1 25 12
M  V30 28 1 25 15
M  V30 29 1 26 4
M  V30 30 1 26 9
M  V30 31 2 27 26
M  V30 32 1 28 1
M  V30 33 1 29 1
M  V30 34 1 30 1
M  V30 35 1 31 3
M  V30 36 1 32 7
M  V30 37 1 33 7
M  V30 38 1 34 8
M  V30 39 1 35 8
M  V30 40 1 36 10
M  V30 41 1 37 10
M  V30 42 1 38 11
M  V30 43 1 39 11
M  V30 44 1 40 13
M  V30 45 1 41 13
M  V30 46 1 42 14
M  V30 47 1 43 14
M  V30 48 1 15 44 CFG=1
M  V30 49 1 45 20
M  V30 50 1 46 21
M  V30 51 1 47 22
M  V30 52 1 48 23
M  V30 53 1 49 25
M  V30 54 1 50 25
M  V30 55 1 12 51 CFG=3
M  V30 END BOND
M  V30 END CTAB
M  END
>  <b_m_subgroup_collapsed>  (803) 
0

>  <r_i_docking_score>  (803) 
-7.84785256585897

>  <s_m_subgroup_title>  (803) 
glide-dock_SP_D22_pv

>  <s_m_subgroupid>  (803) 
glide-dock_SP_D22_pv

>  <Molecule ChEMBL ID>  (803) 
CHEMBL5949172

>  <Standard Type>  (803) 
Ki

>  <Standard Value>  (803) 
10000.0

>  <label>  (803) 
0

$$$$
CHEMBL3290021
     RDKit          3D

  0  0  0  0  0  0  0  0  0  0999 V3000
M  V30 BEGIN CTAB
M  V30 COUNTS 59 63 0 0 1
M  V30 BEGIN ATOM
M  V30 1 O 10.353458 2.281967 -16.568182 0
M  V30 2 S 10.586780 3.303498 -15.533506 0
M  V30 3 O 11.330005 2.968231 -14.307907 0
M  V30 4 N 9.044079 3.900886 -15.042681 0
M  V30 5 C 8.972851 4.831936 -13.914887 0
M  V30 6 C 8.796794 4.064430 -12.593701 0
M  V30 7 C 9.293247 4.846926 -11.373134 0
M  V30 8 C 8.380024 6.015975 -10.959333 0
M  V30 9 N 8.886323 6.793097 -9.797850 0 CFG=2 CHG=1
M  V30 10 C 10.246252 7.367498 -10.004930 0
M  V30 11 C 10.655025 8.301231 -8.861291 0
M  V30 12 C 10.547864 7.594889 -7.489938 0 CFG=1
M  V30 13 C 10.968674 8.490013 -6.347975 0
M  V30 14 N 10.882874 9.814082 -6.452985 0
M  V30 15 O 11.284595 10.383212 -5.217314 0
M  V30 16 C 11.633378 9.371519 -4.344068 0
M  V30 17 C 12.090798 9.404413 -3.024064 0
M  V30 18 C 12.382893 8.180529 -2.396929 0
M  V30 19 F 12.884770 8.172486 -1.140881 0
M  V30 20 C 12.162877 6.962311 -3.079491 0
M  V30 21 C 11.686014 6.951538 -4.411086 0
M  V30 22 C 11.430332 8.184399 -5.050209 0
M  V30 23 C 9.114370 7.061304 -7.322845 0
M  V30 24 C 8.743325 6.112387 -8.483890 0
M  V30 25 C 11.354245 4.741978 -16.286240 0
M  V30 26 C 12.520320 5.270974 -15.692206 0
M  V30 27 C 13.149999 6.397161 -16.252066 0
M  V30 28 C 12.625104 6.990151 -17.414669 0
M  V30 29 C 11.461220 6.459951 -18.005060 0
M  V30 30 S 10.615157 7.023578 -19.447393 0
M  V30 31 C 9.436813 5.739168 -19.182814 0
M  V30 32 N 9.638288 4.928286 -18.140469 0
M  V30 33 C 10.788614 5.323892 -17.453365 0
M  V30 34 H 8.383268 3.130966 -14.942165 0
M  V30 35 H 9.883815 5.435917 -13.903013 0
M  V30 36 H 8.138524 5.520178 -14.067320 0
M  V30 37 H 7.754458 3.772673 -12.463594 0
M  V30 38 H 9.367782 3.135236 -12.636050 0
M  V30 39 H 9.408305 4.171938 -10.528553 0
M  V30 40 H 10.290100 5.210268 -11.616414 0
M  V30 41 H 8.260323 6.705196 -11.795713 0
M  V30 42 H 7.377820 5.646503 -10.731277 0
M  V30 43 H 10.987575 6.572338 -10.067036 0
M  V30 44 H 10.277843 7.906871 -10.952342 0
M  V30 45 H 11.672129 8.655767 -9.022806 0
M  V30 46 H 10.009497 9.182541 -8.883841 0
M  V30 47 H 11.224060 6.738210 -7.502418 0
M  V30 48 H 12.234385 10.345594 -2.515123 0
M  V30 49 H 12.375404 6.027131 -2.581234 0
M  V30 50 H 11.518325 6.016119 -4.926199 0
M  V30 51 H 9.023840 6.529136 -6.373531 0
M  V30 52 H 8.408039 7.893004 -7.273639 0
M  V30 53 H 7.715652 5.772299 -8.357090 0
M  V30 54 H 9.375498 5.224588 -8.454150 0
M  V30 55 H 12.938478 4.818458 -14.805780 0
M  V30 56 H 14.038329 6.803063 -15.789745 0
M  V30 57 H 13.098197 7.860581 -17.848028 0
M  V30 58 H 8.579062 5.574282 -19.818251 0
M  V30 59 H 8.224766 7.567049 -9.760175 0
M  V30 END ATOM
M  V30 BEGIN BOND
M  V30 1 2 2 1
M  V30 2 2 3 2
M  V30 3 1 4 2
M  V30 4 1 5 4
M  V30 5 1 6 5
M  V30 6 1 7 6
M  V30 7 1 8 7
M  V30 8 1 9 8
M  V30 9 1 10 9
M  V30 10 1 11 10
M  V30 11 1 12 11
M  V30 12 1 13 12
M  V30 13 2 14 13
M  V30 14 1 15 14
M  V30 15 1 16 15
M  V30 16 1 17 16
M  V30 17 2 18 17
M  V30 18 1 19 18
M  V30 19 1 20 18
M  V30 20 2 21 20
M  V30 21 1 22 13
M  V30 22 2 22 16
M  V30 23 1 22 21
M  V30 24 1 23 12
M  V30 25 1 24 9
M  V30 26 1 24 23
M  V30 27 1 25 2
M  V30 28 1 26 25
M  V30 29 2 27 26
M  V30 30 1 28 27
M  V30 31 2 29 28
M  V30 32 1 30 29
M  V30 33 1 31 30
M  V30 34 2 32 31
M  V30 35 2 33 25
M  V30 36 1 33 29
M  V30 37 1 33 32
M  V30 38 1 34 4
M  V30 39 1 35 5
M  V30 40 1 36 5
M  V30 41 1 37 6
M  V30 42 1 38 6
M  V30 43 1 39 7
M  V30 44 1 40 7
M  V30 45 1 41 8
M  V30 46 1 42 8
M  V30 47 1 43 10
M  V30 48 1 44 10
M  V30 49 1 45 11
M  V30 50 1 46 11
M  V30 51 1 12 47 CFG=3
M  V30 52 1 48 17
M  V30 53 1 49 20
M  V30 54 1 50 21
M  V30 55 1 51 23
M  V30 56 1 52 23
M  V30 57 1 53 24
M  V30 58 1 54 24
M  V30 59 1 55 26
M  V30 60 1 56 27
M  V30 61 1 57 28
M  V30 62 1 58 31
M  V30 63 1 9 59 CFG=1
M  V30 END BOND
M  V30 END CTAB
M  END
>  <b_m_subgroup_collapsed>  (804) 
0

>  <r_i_docking_score>  (804) 
-7.8470177959759901

>  <s_m_subgroup_title>  (804) 
glide-dock_SP_D22_pv

>  <s_m_subgroupid>  (804) 
glide-dock_SP_D22_pv

>  <Molecule ChEMBL ID>  (804) 
CHEMBL3290021

>  <Standard Type>  (804) 
Ki

>  <Standard Value>  (804) 
25.0

>  <label>  (804) 
1

$$$$
CHEMBL3104520
     RDKit          3D

  0  0  0  0  0  0  0  0  0  0999 V3000
M  V30 BEGIN CTAB
M  V30 COUNTS 60 63 0 0 1
M  V30 BEGIN ATOM
M  V30 1 C 11.822292 11.333974 -6.304561 0
M  V30 2 O 11.073159 10.172362 -6.543709 0
M  V30 3 C 11.287682 9.104231 -5.708416 0
M  V30 4 C 11.932246 9.227989 -4.447909 0
M  V30 5 C 12.131126 8.115217 -3.616984 0
M  V30 6 C 11.686010 6.857993 -4.039694 0
M  V30 7 C 11.030879 6.735909 -5.277749 0
M  V30 8 C 10.815410 7.837271 -6.127569 0
M  V30 9 N 10.164102 7.623566 -7.364110 0
M  V30 10 C 8.912328 6.881480 -7.401354 0
M  V30 11 C 8.873229 5.983977 -8.650056 0
M  V30 12 N 9.140984 6.743504 -9.907019 0 CHG=1
M  V30 13 C 9.224943 5.863623 -11.102318 0
M  V30 14 C 7.859365 5.387695 -11.611951 0
M  V30 15 C 7.955730 4.225126 -12.623811 0 CFG=2
M  V30 16 C 8.668736 4.558709 -13.945648 0
M  V30 17 C 8.893466 3.295575 -14.795615 0
M  V30 18 C 7.761819 2.273941 -14.750310 0
M  V30 19 C 7.825370 1.157734 -15.607222 0
M  V30 20 C 6.822556 0.171918 -15.573727 0
M  V30 21 C 5.741584 0.272365 -14.669695 0
M  V30 22 N 4.666318 -0.738586 -14.668474 0 CHG=1
M  V30 23 O 3.762511 -0.624626 -13.846523 0
M  V30 24 O 4.714139 -1.636791 -15.501124 0 CHG=-1
M  V30 25 C 5.686462 1.387193 -13.801119 0
M  V30 26 C 6.678316 2.393276 -13.846893 0
M  V30 27 C 6.579608 3.576393 -12.895477 0 CFG=2
M  V30 28 O 5.680654 4.550445 -13.379821 0
M  V30 29 C 10.366395 7.583594 -9.816209 0
M  V30 30 C 10.433962 8.435748 -8.542745 0
M  V30 31 H 11.686250 12.068657 -7.093880 0
M  V30 32 H 11.447172 11.772309 -5.395644 0
M  V30 33 H 12.885923 11.110470 -6.246821 0
M  V30 34 H 12.286881 10.171941 -4.076558 0
M  V30 35 H 12.624942 8.227699 -2.662102 0
M  V30 36 H 11.836625 5.990104 -3.415352 0
M  V30 37 H 10.693431 5.772358 -5.591450 0
M  V30 38 H 8.088987 7.597195 -7.424847 0
M  V30 39 H 8.758659 6.280396 -6.505274 0
M  V30 40 H 7.900372 5.499648 -8.699614 0
M  V30 41 H 9.613982 5.190586 -8.539997 0
M  V30 42 H 9.867712 5.012343 -10.874516 0
M  V30 43 H 9.712770 6.403043 -11.915214 0
M  V30 44 H 7.306230 6.229118 -12.029778 0
M  V30 45 H 7.284658 5.033155 -10.763502 0
M  V30 46 H 8.580229 3.468034 -12.151022 0
M  V30 47 H 9.631627 5.038484 -13.772568 0
M  V30 48 H 8.079897 5.279434 -14.510901 0
M  V30 49 H 9.789721 2.787693 -14.439363 0
M  V30 50 H 9.092815 3.575046 -15.830290 0
M  V30 51 H 8.650123 1.049960 -16.295668 0
M  V30 52 H 6.891170 -0.668023 -16.248997 0
M  V30 53 H 4.861619 1.496014 -13.110451 0
M  V30 54 H 6.173087 3.210912 -11.950437 0
M  V30 55 H 5.617232 5.240138 -12.735820 0
M  V30 56 H 11.241554 6.931597 -9.842963 0
M  V30 57 H 10.434198 8.236204 -10.687819 0
M  V30 58 H 9.706979 9.248452 -8.589536 0
M  V30 59 H 11.426757 8.883944 -8.490229 0
M  V30 60 H 8.341167 7.363951 -10.033725 0
M  V30 END ATOM
M  V30 BEGIN BOND
M  V30 1 1 2 1
M  V30 2 1 3 2
M  V30 3 2 4 3
M  V30 4 1 5 4
M  V30 5 2 6 5
M  V30 6 1 7 6
M  V30 7 1 8 3
M  V30 8 2 8 7
M  V30 9 1 9 8
M  V30 10 1 10 9
M  V30 11 1 11 10
M  V30 12 1 12 11
M  V30 13 1 13 12
M  V30 14 1 14 13
M  V30 15 1 15 14
M  V30 16 1 16 15
M  V30 17 1 17 16
M  V30 18 1 18 17
M  V30 19 1 19 18
M  V30 20 2 20 19
M  V30 21 1 21 20
M  V30 22 1 22 21
M  V30 23 2 23 22
M  V30 24 1 24 22
M  V30 25 2 25 21
M  V30 26 2 26 18
M  V30 27 1 26 25
M  V30 28 1 27 15
M  V30 29 1 27 26
M  V30 30 1 28 27
M  V30 31 1 29 12
M  V30 32 1 30 9
M  V30 33 1 30 29
M  V30 34 1 31 1
M  V30 35 1 32 1
M  V30 36 1 33 1
M  V30 37 1 34 4
M  V30 38 1 35 5
M  V30 39 1 36 6
M  V30 40 1 37 7
M  V30 41 1 38 10
M  V30 42 1 39 10
M  V30 43 1 40 11
M  V30 44 1 41 11
M  V30 45 1 42 13
M  V30 46 1 43 13
M  V30 47 1 44 14
M  V30 48 1 45 14
M  V30 49 1 15 46 CFG=1
M  V30 50 1 47 16
M  V30 51 1 48 16
M  V30 52 1 49 17
M  V30 53 1 50 17
M  V30 54 1 51 19
M  V30 55 1 52 20
M  V30 56 1 53 25
M  V30 57 1 27 54 CFG=1
M  V30 58 1 55 28
M  V30 59 1 56 29
M  V30 60 1 57 29
M  V30 61 1 58 30
M  V30 62 1 59 30
M  V30 63 1 60 12
M  V30 END BOND
M  V30 END CTAB
M  END
>  <b_m_subgroup_collapsed>  (805) 
0

>  <r_i_docking_score>  (805) 
-7.8439234810968799

>  <s_m_subgroup_title>  (805) 
glide-dock_SP_D22_pv

>  <s_m_subgroupid>  (805) 
glide-dock_SP_D22_pv

>  <Molecule ChEMBL ID>  (805) 
CHEMBL3104520

>  <Standard Type>  (805) 
Ki

>  <Standard Value>  (805) 
19.05

>  <label>  (805) 
1

$$$$
CHEMBL3758920
     RDKit          3D

  0  0  0  0  0  0  0  0  0  0999 V3000
M  V30 BEGIN CTAB
M  V30 COUNTS 59 62 0 0 1
M  V30 BEGIN ATOM
M  V30 1 O 10.178926 1.961658 -14.793091 0
M  V30 2 C 8.970753 2.138063 -14.643503 0
M  V30 3 N 8.423530 3.186702 -14.018993 0
M  V30 4 C 9.087627 4.211843 -13.237999 0
M  V30 5 C 8.174951 5.450851 -13.182663 0
M  V30 6 C 8.089966 6.113723 -11.805499 0
M  V30 7 C 9.385572 6.805585 -11.350555 0
M  V30 8 N 9.285973 7.346120 -9.970492 0 CHG=1
M  V30 9 C 10.291093 8.416870 -9.727645 0
M  V30 10 C 10.226596 8.973221 -8.295012 0
M  V30 11 N 10.293796 7.880772 -7.337431 0
M  V30 12 C 10.817264 8.083153 -6.047435 0
M  V30 13 C 10.897259 9.369874 -5.461994 0
M  V30 14 C 11.422017 9.529572 -4.163961 0
M  V30 15 C 11.872622 8.408059 -3.442096 0
M  V30 16 Cl 12.486002 8.583764 -1.846595 0
M  V30 17 C 11.800524 7.127903 -4.013800 0
M  V30 18 C 11.284339 6.971539 -5.310682 0
M  V30 19 C 9.263566 6.861759 -7.505221 0
M  V30 20 C 9.321130 6.281191 -8.927238 0
M  V30 21 C 7.943417 1.195370 -15.192179 0
M  V30 22 C 8.111523 0.603432 -16.462368 0
M  V30 23 C 7.096314 -0.212209 -17.003855 0
M  V30 24 C 5.912032 -0.446784 -16.273909 0
M  V30 25 C 4.872995 -1.224791 -16.821848 0
M  V30 26 C 3.686863 -1.427632 -16.090830 0
M  V30 27 C 3.535405 -0.871266 -14.806684 0
M  V30 28 C 4.577156 -0.111690 -14.245879 0
M  V30 29 C 5.759994 0.108672 -14.980301 0
M  V30 30 C 6.779891 0.910401 -14.440516 0
M  V30 31 H 7.415225 3.216061 -14.016789 0
M  V30 32 H 10.062493 4.464053 -13.658779 0
M  V30 33 H 9.262234 3.805212 -12.240218 0
M  V30 34 H 7.153753 5.172462 -13.448005 0
M  V30 35 H 8.485677 6.172163 -13.936677 0
M  V30 36 H 7.760821 5.363791 -11.087298 0
M  V30 37 H 7.292174 6.854191 -11.847170 0
M  V30 38 H 9.590349 7.621458 -12.045801 0
M  V30 39 H 10.237783 6.129472 -11.415781 0
M  V30 40 H 10.144337 9.229535 -10.436329 0
M  V30 41 H 11.289171 8.014944 -9.911787 0
M  V30 42 H 9.292611 9.516033 -8.142685 0
M  V30 43 H 11.047812 9.675396 -8.143015 0
M  V30 44 H 10.543459 10.244190 -5.987216 0
M  V30 45 H 11.463363 10.510557 -3.713924 0
M  V30 46 H 12.141187 6.264292 -3.460705 0
M  V30 47 H 11.260825 5.980570 -5.737510 0
M  V30 48 H 9.349740 6.056173 -6.777527 0
M  V30 49 H 8.291746 7.324703 -7.327973 0
M  V30 50 H 8.484765 5.593231 -9.050351 0
M  V30 51 H 10.234438 5.693516 -9.039915 0
M  V30 52 H 9.005542 0.796794 -17.037508 0
M  V30 53 H 7.224624 -0.644542 -17.985495 0
M  V30 54 H 4.974610 -1.663138 -17.803839 0
M  V30 55 H 2.893610 -2.024236 -16.514742 0
M  V30 56 H 2.619823 -1.026248 -14.254292 0
M  V30 57 H 4.455346 0.323162 -13.265053 0
M  V30 58 H 6.646487 1.330845 -13.453791 0
M  V30 59 H 8.361146 7.769470 -9.899656 0
M  V30 END ATOM
M  V30 BEGIN BOND
M  V30 1 2 2 1
M  V30 2 1 3 2
M  V30 3 1 4 3
M  V30 4 1 5 4
M  V30 5 1 6 5
M  V30 6 1 7 6
M  V30 7 1 8 7
M  V30 8 1 9 8
M  V30 9 1 10 9
M  V30 10 1 11 10
M  V30 11 1 12 11
M  V30 12 1 13 12
M  V30 13 2 14 13
M  V30 14 1 15 14
M  V30 15 1 16 15
M  V30 16 2 17 15
M  V30 17 2 18 12
M  V30 18 1 18 17
M  V30 19 1 19 11
M  V30 20 1 20 8
M  V30 21 1 20 19
M  V30 22 1 21 2
M  V30 23 1 22 21
M  V30 24 2 23 22
M  V30 25 1 24 23
M  V30 26 2 25 24
M  V30 27 1 26 25
M  V30 28 2 27 26
M  V30 29 1 28 27
M  V30 30 1 29 24
M  V30 31 2 29 28
M  V30 32 2 30 21
M  V30 33 1 30 29
M  V30 34 1 31 3
M  V30 35 1 32 4
M  V30 36 1 33 4
M  V30 37 1 34 5
M  V30 38 1 35 5
M  V30 39 1 36 6
M  V30 40 1 37 6
M  V30 41 1 38 7
M  V30 42 1 39 7
M  V30 43 1 40 9
M  V30 44 1 41 9
M  V30 45 1 42 10
M  V30 46 1 43 10
M  V30 47 1 44 13
M  V30 48 1 45 14
M  V30 49 1 46 17
M  V30 50 1 47 18
M  V30 51 1 48 19
M  V30 52 1 49 19
M  V30 53 1 50 20
M  V30 54 1 51 20
M  V30 55 1 52 22
M  V30 56 1 53 23
M  V30 57 1 54 25
M  V30 58 1 55 26
M  V30 59 1 56 27
M  V30 60 1 57 28
M  V30 61 1 58 30
M  V30 62 1 59 8
M  V30 END BOND
M  V30 END CTAB
M  END
>  <b_m_subgroup_collapsed>  (806) 
0

>  <r_i_docking_score>  (806) 
-7.8426460900509998

>  <s_m_subgroup_title>  (806) 
glide-dock_SP_D22_pv

>  <s_m_subgroupid>  (806) 
glide-dock_SP_D22_pv

>  <Molecule ChEMBL ID>  (806) 
CHEMBL3758920

>  <Standard Type>  (806) 
Ki

>  <Standard Value>  (806) 
12143.0

>  <label>  (806) 
0

$$$$
CHEMBL4451063
     RDKit          3D

  0  0  0  0  0  0  0  0  0  0999 V3000
M  V30 BEGIN CTAB
M  V30 COUNTS 61 65 0 0 1
M  V30 BEGIN ATOM
M  V30 1 C 11.632822 3.861403 -14.498057 0
M  V30 2 C 10.300221 3.173012 -14.860447 0 CFG=1
M  V30 3 C 10.503201 1.645770 -14.979810 0
M  V30 4 O 9.288834 1.013503 -15.361454 0
M  V30 5 C 8.277557 1.179540 -14.376661 0 CFG=2
M  V30 6 C 6.984743 0.459509 -14.720047 0
M  V30 7 C 6.719406 -0.028364 -16.016064 0
M  V30 8 C 5.471646 -0.625905 -16.274450 0
M  V30 9 C 4.531407 -0.699552 -15.230606 0
M  V30 10 N 3.286465 -1.269436 -15.450206 0
M  V30 11 N 4.764534 -0.227875 -13.988369 0
M  V30 12 C 5.973310 0.319937 -13.744678 0
M  V30 13 C 7.992808 2.684384 -14.223180 0
M  V30 14 N 9.204537 3.482450 -13.891502 0 CFG=2 CHG=1
M  V30 15 C 8.896207 4.943186 -13.796782 0
M  V30 16 C 7.927430 5.308613 -12.672531 0 CFG=2
M  V30 17 C 7.560084 6.754762 -12.470678 0
M  V30 18 C 8.340057 6.033669 -11.395875 0 CFG=2
M  V30 19 C 9.775656 6.436050 -11.108217 0
M  V30 20 N 10.084408 6.669164 -9.703301 0
M  V30 21 C 10.132916 7.867467 -9.102142 0
M  V30 22 O 9.894281 8.929269 -9.676636 0
M  V30 23 C 10.548407 7.846118 -7.682775 0
M  V30 24 C 10.871203 6.838875 -6.807166 0
M  V30 25 C 11.243571 7.461325 -5.564981 0
M  V30 26 C 11.686571 6.994355 -4.302870 0
M  V30 27 C 12.013922 7.891950 -3.264408 0
M  V30 28 C 11.870449 9.281313 -3.454332 0
M  V30 29 C 11.407217 9.772273 -4.688941 0
M  V30 30 C 11.114686 8.870278 -5.726693 0
M  V30 31 N 10.680343 9.055672 -7.021021 0
M  V30 32 H 12.460493 3.457154 -15.085192 0
M  V30 33 H 11.612216 4.929822 -14.712386 0
M  V30 34 H 11.885693 3.740168 -13.447400 0
M  V30 35 H 9.995962 3.538091 -15.841940 0
M  V30 36 H 10.884199 1.221558 -14.048646 0
M  V30 37 H 11.247850 1.428935 -15.747029 0
M  V30 38 H 8.642177 0.753401 -13.446827 0
M  V30 39 H 7.451254 0.057667 -16.805647 0
M  V30 40 H 5.241132 -1.009685 -17.256807 0
M  V30 41 H 3.183259 -1.963774 -16.181606 0
M  V30 42 H 2.680727 -1.407808 -14.657064 0
M  V30 43 H 6.125121 0.687286 -12.738307 0
M  V30 44 H 7.556921 3.047043 -15.154259 0
M  V30 45 H 7.236248 2.809577 -13.450438 0
M  V30 46 H 9.799043 5.529984 -13.657681 0
M  V30 47 H 8.473567 5.281843 -14.742489 0
M  V30 48 H 7.065256 4.657266 -12.584936 0
M  V30 49 H 8.085583 7.514109 -13.046123 0
M  V30 50 H 6.517579 6.974115 -12.255885 0
M  V30 51 H 7.772834 5.761442 -10.502435 0
M  V30 52 H 10.424810 5.632869 -11.449333 0
M  V30 53 H 10.043003 7.307746 -11.710722 0
M  V30 54 H 10.289258 5.860964 -9.135193 0
M  V30 55 H 10.869974 5.776061 -7.002820 0
M  V30 56 H 11.785089 5.930994 -4.138031 0
M  V30 57 H 12.356910 7.513396 -2.312086 0
M  V30 58 H 12.109373 9.966336 -2.652035 0
M  V30 59 H 11.285956 10.834357 -4.847502 0
M  V30 60 H 10.479460 9.931678 -7.480289 0
M  V30 61 H 9.520104 3.179313 -12.982445 0
M  V30 END ATOM
M  V30 BEGIN BOND
M  V30 1 1 2 1
M  V30 2 1 3 2
M  V30 3 1 4 3
M  V30 4 1 5 4
M  V30 5 1 6 5
M  V30 6 1 7 6
M  V30 7 2 8 7
M  V30 8 1 9 8
M  V30 9 1 10 9
M  V30 10 2 11 9
M  V30 11 2 12 6
M  V30 12 1 12 11
M  V30 13 1 13 5
M  V30 14 1 14 2
M  V30 15 1 14 13
M  V30 16 1 15 14
M  V30 17 1 16 15
M  V30 18 1 17 16
M  V30 19 1 18 16
M  V30 20 1 18 17
M  V30 21 1 19 18
M  V30 22 1 20 19
M  V30 23 1 21 20
M  V30 24 2 22 21
M  V30 25 1 23 21
M  V30 26 2 24 23
M  V30 27 1 25 24
M  V30 28 2 26 25
M  V30 29 1 27 26
M  V30 30 2 28 27
M  V30 31 1 29 28
M  V30 32 1 30 25
M  V30 33 2 30 29
M  V30 34 1 31 23
M  V30 35 1 31 30
M  V30 36 1 32 1
M  V30 37 1 33 1
M  V30 38 1 34 1
M  V30 39 1 2 35 CFG=3
M  V30 40 1 36 3
M  V30 41 1 37 3
M  V30 42 1 5 38 CFG=1
M  V30 43 1 39 7
M  V30 44 1 40 8
M  V30 45 1 41 10
M  V30 46 1 42 10
M  V30 47 1 43 12
M  V30 48 1 44 13
M  V30 49 1 45 13
M  V30 50 1 46 15
M  V30 51 1 47 15
M  V30 52 1 16 48 CFG=1
M  V30 53 1 49 17
M  V30 54 1 50 17
M  V30 55 1 18 51 CFG=1
M  V30 56 1 52 19
M  V30 57 1 53 19
M  V30 58 1 54 20
M  V30 59 1 55 24
M  V30 60 1 56 26
M  V30 61 1 57 27
M  V30 62 1 58 28
M  V30 63 1 59 29
M  V30 64 1 60 31
M  V30 65 1 14 61 CFG=1
M  V30 END BOND
M  V30 END CTAB
M  END
>  <b_m_subgroup_collapsed>  (807) 
0

>  <r_i_docking_score>  (807) 
-7.8419604346622203

>  <s_m_subgroup_title>  (807) 
glide-dock_SP_D22_pv

>  <s_m_subgroupid>  (807) 
glide-dock_SP_D22_pv

>  <Molecule ChEMBL ID>  (807) 
CHEMBL4451063

>  <Standard Type>  (807) 
Ki

>  <Standard Value>  (807) 
14100.0

>  <label>  (807) 
0

$$$$
CHEMBL5289958
     RDKit          3D

  0  0  0  0  0  0  0  0  0  0999 V3000
M  V30 BEGIN CTAB
M  V30 COUNTS 58 62 0 0 1
M  V30 BEGIN ATOM
M  V30 1 F 4.349391 -0.614694 -15.123139 0
M  V30 2 C 5.641964 -0.238816 -15.268473 0
M  V30 3 C 6.126775 0.154361 -16.532436 0
M  V30 4 C 7.471316 0.550365 -16.684374 0
M  V30 5 C 8.336990 0.554412 -15.569598 0
M  V30 6 C 9.786204 0.977648 -15.713795 0
M  V30 7 N 9.883840 2.433366 -15.474055 0 CFG=2 CHG=1
M  V30 8 C 10.893264 3.128936 -16.304445 0
M  V30 9 C 10.670377 4.643310 -16.200851 0
M  V30 10 C 10.698532 5.103664 -14.735600 0
M  V30 11 C 9.715768 4.310221 -13.832964 0 CFG=2
M  V30 12 C 8.232524 4.635206 -14.106514 0
M  V30 13 C 7.588878 4.925538 -12.753883 0
M  V30 14 N 8.679112 5.474282 -11.937613 0 CFG=1 CHG=1
M  V30 15 C 8.386997 5.474432 -10.483481 0
M  V30 16 C 9.273800 6.379865 -9.672315 0
M  V30 17 C 10.485578 6.973118 -9.942863 0
M  V30 18 C 10.877777 7.694300 -8.764832 0
M  V30 19 C 12.005795 8.463376 -8.397502 0
M  V30 20 C 12.085726 9.069118 -7.127603 0
M  V30 21 C 11.035158 8.941031 -6.204025 0
M  V30 22 Cl 11.151712 9.722922 -4.671049 0
M  V30 23 C 9.902762 8.178460 -6.542649 0
M  V30 24 C 9.839067 7.559517 -7.801972 0
M  V30 25 N 8.885922 6.764585 -8.399042 0
M  V30 26 C 9.892396 4.733586 -12.356622 0
M  V30 27 C 9.999285 2.805235 -14.037853 0
M  V30 28 C 7.840999 0.171631 -14.308842 0
M  V30 29 C 6.505343 -0.230022 -14.157433 0
M  V30 30 F 6.068751 -0.601810 -12.934453 0
M  V30 31 H 5.464612 0.146275 -17.386162 0
M  V30 32 H 7.832579 0.840043 -17.660942 0
M  V30 33 H 10.426949 0.424043 -15.024741 0
M  V30 34 H 10.118711 0.724351 -16.721241 0
M  V30 35 H 11.898932 2.856708 -15.977935 0
M  V30 36 H 10.800823 2.824287 -17.347752 0
M  V30 37 H 11.435155 5.173018 -16.770853 0
M  V30 38 H 9.714004 4.907522 -16.654146 0
M  V30 39 H 11.717276 4.980937 -14.361388 0
M  V30 40 H 10.490724 6.170470 -14.684897 0
M  V30 41 H 8.163923 5.528351 -14.720358 0
M  V30 42 H 7.696101 3.845228 -14.633493 0
M  V30 43 H 6.747504 5.615611 -12.827958 0
M  V30 44 H 7.225971 3.997251 -12.308262 0
M  V30 45 H 7.336914 5.773157 -10.351312 0
M  V30 46 H 8.446168 4.459155 -10.091186 0
M  V30 47 H 11.073863 6.924185 -10.843102 0
M  V30 48 H 12.817491 8.595594 -9.098575 0
M  V30 49 H 12.953837 9.653039 -6.864570 0
M  V30 50 H 9.086137 8.057758 -5.848294 0
M  V30 51 H 7.955794 6.584651 -8.028682 0
M  V30 52 H 10.021508 3.854877 -11.719970 0
M  V30 53 H 10.782549 5.348557 -12.247430 0
M  V30 54 H 9.299376 2.230814 -13.436592 0
M  V30 55 H 10.995729 2.542449 -13.679462 0
M  V30 56 H 8.487340 0.149652 -13.447316 0
M  V30 57 H 8.994142 2.792947 -15.786946 0
M  V30 58 H 8.785321 6.441074 -12.212521 0
M  V30 END ATOM
M  V30 BEGIN BOND
M  V30 1 1 2 1
M  V30 2 1 3 2
M  V30 3 2 4 3
M  V30 4 1 5 4
M  V30 5 1 6 5
M  V30 6 1 7 6
M  V30 7 1 8 7
M  V30 8 1 9 8
M  V30 9 1 10 9
M  V30 10 1 11 10 CFG=3
M  V30 11 1 12 11
M  V30 12 1 13 12
M  V30 13 1 14 13
M  V30 14 1 15 14
M  V30 15 1 16 15
M  V30 16 2 17 16
M  V30 17 1 18 17
M  V30 18 1 19 18
M  V30 19 2 20 19
M  V30 20 1 21 20
M  V30 21 1 22 21
M  V30 22 2 23 21
M  V30 23 2 24 18
M  V30 24 1 24 23
M  V30 25 1 25 16
M  V30 26 1 25 24
M  V30 27 1 26 11
M  V30 28 1 26 14
M  V30 29 1 27 7
M  V30 30 1 27 11
M  V30 31 2 28 5
M  V30 32 2 29 2
M  V30 33 1 29 28
M  V30 34 1 30 29
M  V30 35 1 31 3
M  V30 36 1 32 4
M  V30 37 1 33 6
M  V30 38 1 34 6
M  V30 39 1 35 8
M  V30 40 1 36 8
M  V30 41 1 37 9
M  V30 42 1 38 9
M  V30 43 1 39 10
M  V30 44 1 40 10
M  V30 45 1 41 12
M  V30 46 1 42 12
M  V30 47 1 43 13
M  V30 48 1 44 13
M  V30 49 1 45 15
M  V30 50 1 46 15
M  V30 51 1 47 17
M  V30 52 1 48 19
M  V30 53 1 49 20
M  V30 54 1 50 23
M  V30 55 1 51 25
M  V30 56 1 52 26
M  V30 57 1 53 26
M  V30 58 1 54 27
M  V30 59 1 55 27
M  V30 60 1 56 28
M  V30 61 1 7 57 CFG=3
M  V30 62 1 14 58 CFG=3
M  V30 END BOND
M  V30 END CTAB
M  END
>  <b_m_subgroup_collapsed>  (808) 
0

>  <r_i_docking_score>  (808) 
-7.8414303147222997

>  <s_m_subgroup_title>  (808) 
glide-dock_SP_D22_pv

>  <s_m_subgroupid>  (808) 
glide-dock_SP_D22_pv

>  <Molecule ChEMBL ID>  (808) 
CHEMBL5289958

>  <Standard Type>  (808) 
Ki

>  <Standard Value>  (808) 
10000.0

>  <label>  (808) 
0

$$$$
CHEMBL198599
     RDKit          3D

  0  0  0  0  0  0  0  0  0  0999 V3000
M  V30 BEGIN CTAB
M  V30 COUNTS 58 62 0 0 1
M  V30 BEGIN ATOM
M  V30 1 C 12.352815 4.169557 -15.130031 0
M  V30 2 C 10.933013 4.095470 -14.606873 0
M  V30 3 C 10.513337 4.993285 -13.609703 0
M  V30 4 C 9.193213 4.960508 -13.116301 0
M  V30 5 C 8.821381 5.954491 -12.022461 0
M  V30 6 C 9.165230 5.399467 -10.624512 0
M  V30 7 N 9.286732 6.432913 -9.594544 0
M  V30 8 C 9.335458 5.782075 -8.280153 0
M  V30 9 C 9.466178 6.823886 -7.146992 0
M  V30 10 N 10.656535 7.644971 -7.346712 0
M  V30 11 C 10.950538 8.512707 -6.281263 0
M  V30 12 N 10.886388 9.839977 -6.358680 0
M  V30 13 O 11.285911 10.352205 -5.095439 0
M  V30 14 C 11.622570 9.307621 -4.251289 0
M  V30 15 C 12.085947 9.295115 -2.928898 0
M  V30 16 C 12.320986 8.042697 -2.326865 0
M  V30 17 C 12.102576 6.848886 -3.055384 0
M  V30 18 C 11.659281 6.889878 -4.398334 0
M  V30 19 C 11.400440 8.144026 -4.993521 0
M  V30 20 C 10.639620 8.278294 -8.661942 0
M  V30 21 C 10.516076 7.218676 -9.768468 0
M  V30 22 C 8.285167 4.002199 -13.630052 0
M  V30 23 C 8.702172 3.083596 -14.630438 0
M  V30 24 C 10.028214 3.144573 -15.116764 0
M  V30 25 C 7.683879 2.084961 -15.194612 0 CFG=1
M  V30 26 C 8.311905 0.779379 -15.722271 0
M  V30 27 C 6.585690 1.750401 -14.165035 0
M  V30 28 C 6.085999 2.973376 -13.385687 0
M  V30 29 O 4.938790 2.999987 -12.952318 0
M  V30 30 N 6.951226 3.969074 -13.153748 0
M  V30 31 H 12.586033 3.323073 -15.775558 0
M  V30 32 H 12.494321 5.085049 -15.703487 0
M  V30 33 H 13.062139 4.172973 -14.302486 0
M  V30 34 H 11.214003 5.717578 -13.219974 0
M  V30 35 H 9.352178 6.879735 -12.237838 0
M  V30 36 H 7.765037 6.222365 -12.066767 0
M  V30 37 H 8.383639 4.690248 -10.344853 0
M  V30 38 H 10.085981 4.821570 -10.662385 0
M  V30 39 H 8.423318 5.202867 -8.129478 0
M  V30 40 H 10.170769 5.080974 -8.246729 0
M  V30 41 H 8.580419 7.462506 -7.124182 0
M  V30 42 H 9.511065 6.313007 -6.185264 0
M  V30 43 H 12.240462 10.212887 -2.384123 0
M  V30 44 H 12.668275 7.999325 -1.305833 0
M  V30 45 H 12.285183 5.892333 -2.585591 0
M  V30 46 H 11.506621 5.975852 -4.952910 0
M  V30 47 H 9.807007 8.981196 -8.726488 0
M  V30 48 H 11.556941 8.850491 -8.808730 0
M  V30 49 H 11.391715 6.572319 -9.758255 0
M  V30 50 H 10.517044 7.732875 -10.727405 0
M  V30 51 H 10.365129 2.472384 -15.890119 0
M  V30 52 H 7.200357 2.571923 -16.041189 0
M  V30 53 H 8.955307 0.952268 -16.584448 0
M  V30 54 H 8.901940 0.282101 -14.950850 0
M  V30 55 H 7.540942 0.079196 -16.046158 0
M  V30 56 H 6.977900 1.033699 -13.446913 0
M  V30 57 H 5.744876 1.251559 -14.646748 0
M  V30 58 H 6.645144 4.727446 -12.560475 0
M  V30 END ATOM
M  V30 BEGIN BOND
M  V30 1 1 2 1
M  V30 2 2 3 2
M  V30 3 1 4 3
M  V30 4 1 5 4
M  V30 5 1 6 5
M  V30 6 1 7 6
M  V30 7 1 8 7
M  V30 8 1 9 8
M  V30 9 1 10 9
M  V30 10 1 11 10
M  V30 11 2 12 11
M  V30 12 1 13 12
M  V30 13 1 14 13
M  V30 14 2 15 14
M  V30 15 1 16 15
M  V30 16 2 17 16
M  V30 17 1 18 17
M  V30 18 1 19 11
M  V30 19 1 19 14
M  V30 20 2 19 18
M  V30 21 1 20 10
M  V30 22 1 21 7
M  V30 23 1 21 20
M  V30 24 2 22 4
M  V30 25 1 23 22
M  V30 26 1 24 2
M  V30 27 2 24 23
M  V30 28 1 25 23
M  V30 29 1 26 25
M  V30 30 1 27 25
M  V30 31 1 28 27
M  V30 32 2 29 28
M  V30 33 1 30 22
M  V30 34 1 30 28
M  V30 35 1 31 1
M  V30 36 1 32 1
M  V30 37 1 33 1
M  V30 38 1 34 3
M  V30 39 1 35 5
M  V30 40 1 36 5
M  V30 41 1 37 6
M  V30 42 1 38 6
M  V30 43 1 39 8
M  V30 44 1 40 8
M  V30 45 1 41 9
M  V30 46 1 42 9
M  V30 47 1 43 15
M  V30 48 1 44 16
M  V30 49 1 45 17
M  V30 50 1 46 18
M  V30 51 1 47 20
M  V30 52 1 48 20
M  V30 53 1 49 21
M  V30 54 1 50 21
M  V30 55 1 51 24
M  V30 56 1 25 52 CFG=3
M  V30 57 1 53 26
M  V30 58 1 54 26
M  V30 59 1 55 26
M  V30 60 1 56 27
M  V30 61 1 57 27
M  V30 62 1 58 30
M  V30 END BOND
M  V30 END CTAB
M  END
>  <b_m_subgroup_collapsed>  (809) 
0

>  <r_i_docking_score>  (809) 
-7.8392505901274303

>  <s_m_subgroup_title>  (809) 
glide-dock_SP_D22_pv

>  <s_m_subgroupid>  (809) 
glide-dock_SP_D22_pv

>  <Molecule ChEMBL ID>  (809) 
CHEMBL198599

>  <Standard Type>  (809) 
Ki

>  <Standard Value>  (809) 
35.0

>  <label>  (809) 
1

$$$$
CHEMBL3613878
     RDKit          3D

  0  0  0  0  0  0  0  0  0  0999 V3000
M  V30 BEGIN CTAB
M  V30 COUNTS 51 55 0 0 1
M  V30 BEGIN ATOM
M  V30 1 Cl 12.086135 9.719583 -3.047570 0
M  V30 2 C 11.686049 8.730339 -4.397947 0
M  V30 3 C 11.685135 7.346603 -4.215062 0
M  V30 4 C 11.286780 6.524833 -5.271824 0
M  V30 5 C 10.921735 7.041051 -6.526153 0
M  V30 6 C 10.955519 8.429866 -6.732299 0
M  V30 7 N 10.675121 8.969799 -7.996993 0
M  V30 8 C 11.781188 9.070379 -8.941185 0
M  V30 9 C 11.736310 7.967715 -10.010672 0
M  V30 10 N 10.472531 8.121557 -10.721267 0
M  V30 11 C 10.411507 7.376266 -11.982529 0
M  V30 12 C 10.041886 5.885980 -11.843451 0
M  V30 13 C 10.404284 5.056780 -13.043351 0
M  V30 14 C 9.728601 4.004188 -13.588442 0
M  V30 15 N 10.618446 3.480271 -14.509531 0
M  V30 16 C 10.471013 2.323632 -15.315487 0
M  V30 17 C 9.551943 1.308424 -14.927742 0
M  V30 18 C 9.391862 0.173431 -15.687756 0
M  V30 19 N 10.132736 0.031853 -16.817936 0
M  V30 20 N 10.085298 -1.032709 -17.677551 0
M  V30 21 C 10.958754 -0.725406 -18.609692 0
M  V30 22 C 11.611504 0.513597 -18.405195 0
M  V30 23 C 11.064053 0.997080 -17.249432 0
M  V30 24 C 11.222628 2.166670 -16.465780 0
M  V30 25 N 11.756173 4.219357 -14.551618 0
M  V30 26 N 11.649146 5.150692 -13.661718 0
M  V30 27 C 9.392906 7.807662 -9.785654 0
M  V30 28 C 9.356814 8.799726 -8.602470 0
M  V30 29 C 11.318572 9.270401 -5.650785 0
M  V30 30 Cl 11.286026 10.969193 -5.846865 0
M  V30 31 H 11.958208 6.915552 -3.262710 0
M  V30 32 H 11.286213 5.465984 -5.100484 0
M  V30 33 H 10.643835 6.370571 -7.326094 0
M  V30 34 H 12.738835 9.045879 -8.419165 0
M  V30 35 H 11.688272 10.033072 -9.446232 0
M  V30 36 H 11.822206 6.974035 -9.571790 0
M  V30 37 H 12.572706 8.101777 -10.697721 0
M  V30 38 H 11.371805 7.489740 -12.486583 0
M  V30 39 H 9.677052 7.857036 -12.629083 0
M  V30 40 H 8.966822 5.812747 -11.674605 0
M  V30 41 H 10.485293 5.463368 -10.946421 0
M  V30 42 H 8.764934 3.574654 -13.361666 0
M  V30 43 H 8.974929 1.405130 -14.013968 0
M  V30 44 H 8.701512 -0.626405 -15.441422 0
M  V30 45 H 11.114102 -1.411840 -19.428087 0
M  V30 46 H 12.364190 0.972690 -19.028433 0
M  V30 47 H 11.935407 2.917228 -16.790089 0
M  V30 48 H 8.486021 7.874944 -10.361124 0
M  V30 49 H 9.471419 6.787376 -9.409846 0
M  V30 50 H 8.628729 8.472418 -7.858440 0
M  V30 51 H 9.019310 9.771657 -8.957787 0
M  V30 END ATOM
M  V30 BEGIN BOND
M  V30 1 1 2 1
M  V30 2 1 3 2
M  V30 3 2 4 3
M  V30 4 1 5 4
M  V30 5 2 6 5
M  V30 6 1 7 6
M  V30 7 1 8 7
M  V30 8 1 9 8
M  V30 9 1 10 9
M  V30 10 1 11 10
M  V30 11 1 12 11
M  V30 12 1 13 12
M  V30 13 2 14 13
M  V30 14 1 15 14
M  V30 15 1 16 15
M  V30 16 1 17 16
M  V30 17 2 18 17
M  V30 18 1 19 18
M  V30 19 1 20 19
M  V30 20 2 21 20
M  V30 21 1 22 21
M  V30 22 1 23 19
M  V30 23 2 23 22
M  V30 24 2 24 16
M  V30 25 1 24 23
M  V30 26 1 25 15
M  V30 27 1 26 13
M  V30 28 2 26 25
M  V30 29 1 27 10
M  V30 30 1 28 7
M  V30 31 1 28 27
M  V30 32 2 29 2
M  V30 33 1 29 6
M  V30 34 1 30 29
M  V30 35 1 31 3
M  V30 36 1 32 4
M  V30 37 1 33 5
M  V30 38 1 34 8
M  V30 39 1 35 8
M  V30 40 1 36 9
M  V30 41 1 37 9
M  V30 42 1 38 11
M  V30 43 1 39 11
M  V30 44 1 40 12
M  V30 45 1 41 12
M  V30 46 1 42 14
M  V30 47 1 43 17
M  V30 48 1 44 18
M  V30 49 1 45 21
M  V30 50 1 46 22
M  V30 51 1 47 24
M  V30 52 1 48 27
M  V30 53 1 49 27
M  V30 54 1 50 28
M  V30 55 1 51 28
M  V30 END BOND
M  V30 END CTAB
M  END
>  <b_m_subgroup_collapsed>  (810) 
0

>  <r_i_docking_score>  (810) 
-7.8385847442144998

>  <s_m_subgroup_title>  (810) 
glide-dock_SP_D22_pv

>  <s_m_subgroupid>  (810) 
glide-dock_SP_D22_pv

>  <Molecule ChEMBL ID>  (810) 
CHEMBL3613878

>  <Standard Type>  (810) 
Ki

>  <Standard Value>  (810) 
10.0

>  <label>  (810) 
1

$$$$
CHEMBL208018
     RDKit          3D

  0  0  0  0  0  0  0  0  0  0999 V3000
M  V30 BEGIN CTAB
M  V30 COUNTS 50 53 0 0 1
M  V30 BEGIN ATOM
M  V30 1 C 11.492921 6.681927 -12.966960 0
M  V30 2 C 10.114482 6.172972 -12.646740 0
M  V30 3 N 9.648203 5.110856 -13.279913 0
M  V30 4 N 8.381482 4.941615 -12.830889 0
M  V30 5 C 7.578298 3.858125 -13.278501 0
M  V30 6 C 6.301351 3.633281 -12.707512 0
M  V30 7 C 5.564378 2.482977 -13.047014 0
M  V30 8 C 6.086446 1.555387 -13.968225 0
M  V30 9 C 7.325855 1.801275 -14.587204 0
M  V30 10 C 8.068346 2.946959 -14.246105 0
M  V30 11 C 8.070990 5.914765 -11.900536 0
M  V30 12 C 9.162580 6.718469 -11.737896 0
M  V30 13 C 9.296043 7.921852 -10.840684 0
M  V30 14 N 9.286559 7.570648 -9.394193 0 CHG=1
M  V30 15 C 9.208044 8.795425 -8.555251 0
M  V30 16 C 9.251631 8.464539 -7.056624 0
M  V30 17 N 10.458866 7.708747 -6.758548 0
M  V30 18 C 11.060081 7.882531 -5.492141 0
M  V30 19 C 11.285921 9.184471 -4.981811 0
M  V30 20 C 11.841734 9.373566 -3.700716 0
M  V30 21 C 12.207774 8.267876 -2.915959 0
M  V30 22 C 12.014386 6.970472 -3.417830 0
M  V30 23 C 11.440963 6.782159 -4.690092 0
M  V30 24 C 10.538144 6.444986 -7.482985 0
M  V30 25 C 10.422657 6.680457 -9.007108 0
M  V30 26 H 11.440523 7.657550 -13.452454 0
M  V30 27 H 12.096298 6.802498 -12.064890 0
M  V30 28 H 12.025995 6.004788 -13.636825 0
M  V30 29 H 5.885332 4.304118 -11.970795 0
M  V30 30 H 4.600737 2.304647 -12.591362 0
M  V30 31 H 5.522404 0.668922 -14.222754 0
M  V30 32 H 7.716298 1.098947 -15.309509 0
M  V30 33 H 9.034607 3.094849 -14.706023 0
M  V30 34 H 7.106995 5.973977 -11.420345 0
M  V30 35 H 8.485706 8.622174 -11.044347 0
M  V30 36 H 10.210700 8.470977 -11.063555 0
M  V30 37 H 8.301568 9.359266 -8.782601 0
M  V30 38 H 10.051954 9.439818 -8.804494 0
M  V30 39 H 8.377371 7.873130 -6.776942 0
M  V30 40 H 9.205173 9.372287 -6.468506 0
M  V30 41 H 11.031379 10.057755 -5.562265 0
M  V30 42 H 11.984594 10.367402 -3.306491 0
M  V30 43 H 12.633725 8.416661 -1.933878 0
M  V30 44 H 12.290951 6.114318 -2.821572 0
M  V30 45 H 11.280257 5.772381 -5.030426 0
M  V30 46 H 11.475192 5.931528 -7.265102 0
M  V30 47 H 9.730099 5.794183 -7.142961 0
M  V30 48 H 10.337985 5.718727 -9.514133 0
M  V30 49 H 11.351187 7.135505 -9.354428 0
M  V30 50 H 8.414511 7.074471 -9.231317 0
M  V30 END ATOM
M  V30 BEGIN BOND
M  V30 1 1 2 1
M  V30 2 2 3 2
M  V30 3 1 4 3
M  V30 4 1 5 4
M  V30 5 2 6 5
M  V30 6 1 7 6
M  V30 7 2 8 7
M  V30 8 1 9 8
M  V30 9 1 10 5
M  V30 10 2 10 9
M  V30 11 1 11 4
M  V30 12 1 12 2
M  V30 13 2 12 11
M  V30 14 1 13 12
M  V30 15 1 14 13
M  V30 16 1 15 14
M  V30 17 1 16 15
M  V30 18 1 17 16
M  V30 19 1 18 17
M  V30 20 2 19 18
M  V30 21 1 20 19
M  V30 22 2 21 20
M  V30 23 1 22 21
M  V30 24 1 23 18
M  V30 25 2 23 22
M  V30 26 1 24 17
M  V30 27 1 25 14
M  V30 28 1 25 24
M  V30 29 1 26 1
M  V30 30 1 27 1
M  V30 31 1 28 1
M  V30 32 1 29 6
M  V30 33 1 30 7
M  V30 34 1 31 8
M  V30 35 1 32 9
M  V30 36 1 33 10
M  V30 37 1 34 11
M  V30 38 1 35 13
M  V30 39 1 36 13
M  V30 40 1 37 15
M  V30 41 1 38 15
M  V30 42 1 39 16
M  V30 43 1 40 16
M  V30 44 1 41 19
M  V30 45 1 42 20
M  V30 46 1 43 21
M  V30 47 1 44 22
M  V30 48 1 45 23
M  V30 49 1 46 24
M  V30 50 1 47 24
M  V30 51 1 48 25
M  V30 52 1 49 25
M  V30 53 1 50 14
M  V30 END BOND
M  V30 END CTAB
M  END
>  <b_m_subgroup_collapsed>  (811) 
0

>  <r_i_docking_score>  (811) 
-7.8379538820201997

>  <s_m_subgroup_title>  (811) 
glide-dock_SP_D22_pv

>  <s_m_subgroupid>  (811) 
glide-dock_SP_D22_pv

>  <Molecule ChEMBL ID>  (811) 
CHEMBL208018

>  <Standard Type>  (811) 
Ki

>  <Standard Value>  (811) 
43.0

>  <label>  (811) 
1

$$$$
CHEMBL4451063
     RDKit          3D

  0  0  0  0  0  0  0  0  0  0999 V3000
M  V30 BEGIN CTAB
M  V30 COUNTS 61 65 0 0 1
M  V30 BEGIN ATOM
M  V30 1 C 11.898408 6.159213 -13.780516 0
M  V30 2 C 10.765199 5.214808 -14.242114 0 CFG=1
M  V30 3 C 11.373109 3.990505 -14.952677 0
M  V30 4 O 10.330195 3.200987 -15.499830 0
M  V30 5 C 9.456563 2.670768 -14.512562 0 CFG=2
M  V30 6 C 8.399201 1.788198 -15.154947 0
M  V30 7 C 7.817243 0.713708 -14.451001 0
M  V30 8 C 6.814655 -0.050056 -15.078735 0
M  V30 9 C 6.443089 0.278762 -16.394238 0
M  V30 10 N 5.459990 -0.446600 -17.051657 0
M  V30 11 N 6.987034 1.305747 -17.078041 0
M  V30 12 C 7.945853 2.033368 -16.468283 0
M  V30 13 C 8.819438 3.839838 -13.726738 0
M  V30 14 N 9.847471 4.749230 -13.152848 0 CFG=2 CHG=1
M  V30 15 C 9.254168 5.844214 -12.332330 0
M  V30 16 C 8.593136 5.349101 -11.045896 0 CFG=1
M  V30 17 C 9.410337 4.918086 -9.843407 0
M  V30 18 C 8.585075 6.170208 -9.762055 0 CFG=1
M  V30 19 C 9.285129 7.502960 -9.580799 0
M  V30 20 N 9.698887 7.759636 -8.212939 0
M  V30 21 C 10.659204 8.630507 -7.880039 0
M  V30 22 O 11.202917 9.372076 -8.693933 0
M  V30 23 C 11.028565 8.678071 -6.459793 0
M  V30 24 C 11.301176 9.713733 -5.600079 0
M  V30 25 C 11.697989 9.124006 -4.347914 0
M  V30 26 C 12.085380 9.619208 -3.079640 0
M  V30 27 C 12.486197 8.751806 -2.043865 0
M  V30 28 C 12.481837 7.362222 -2.246864 0
M  V30 29 C 12.072419 6.838134 -3.479622 0
M  V30 30 C 11.685618 7.709784 -4.508941 0
M  V30 31 N 11.235950 7.482397 -5.791054 0
M  V30 32 H 12.597270 6.346842 -14.596839 0
M  V30 33 H 11.530339 7.141518 -13.478545 0
M  V30 34 H 12.483742 5.744045 -12.961740 0
M  V30 35 H 10.168587 5.762868 -14.971132 0
M  V30 36 H 11.986933 3.395962 -14.272758 0
M  V30 37 H 12.022757 4.307425 -15.771152 0
M  V30 38 H 10.043039 2.047447 -13.837235 0
M  V30 39 H 8.129626 0.476110 -13.446972 0
M  V30 40 H 6.359318 -0.885570 -14.565006 0
M  V30 41 H 5.104752 -1.311949 -16.670547 0
M  V30 42 H 5.276539 -0.278954 -18.028547 0
M  V30 43 H 8.351848 2.848040 -17.050333 0
M  V30 44 H 8.159223 4.414099 -14.378869 0
M  V30 45 H 8.193155 3.428123 -12.937912 0
M  V30 46 H 10.030316 6.549150 -12.060336 0
M  V30 47 H 8.519593 6.402142 -12.916561 0
M  V30 48 H 7.672477 4.790778 -11.215631 0
M  V30 49 H 9.063719 4.084198 -9.241050 0
M  V30 50 H 10.486009 5.059068 -9.855493 0
M  V30 51 H 7.684071 6.085519 -9.162352 0
M  V30 52 H 10.169681 7.544100 -10.214737 0
M  V30 53 H 8.625539 8.307279 -9.907402 0
M  V30 54 H 9.224401 7.256336 -7.477916 0
M  V30 55 H 11.239097 10.770308 -5.816773 0
M  V30 56 H 12.083457 10.680700 -2.891889 0
M  V30 57 H 12.788927 9.162836 -1.091129 0
M  V30 58 H 12.789298 6.696357 -1.452379 0
M  V30 59 H 12.053784 5.771502 -3.640675 0
M  V30 60 H 11.122433 6.580192 -6.229959 0
M  V30 61 H 10.405070 4.198444 -12.515359 0
M  V30 END ATOM
M  V30 BEGIN BOND
M  V30 1 1 2 1
M  V30 2 1 3 2
M  V30 3 1 4 3
M  V30 4 1 5 4
M  V30 5 1 6 5
M  V30 6 1 7 6
M  V30 7 2 8 7
M  V30 8 1 9 8
M  V30 9 1 10 9
M  V30 10 2 11 9
M  V30 11 2 12 6
M  V30 12 1 12 11
M  V30 13 1 13 5
M  V30 14 1 14 2
M  V30 15 1 14 13
M  V30 16 1 15 14
M  V30 17 1 16 15
M  V30 18 1 17 16
M  V30 19 1 18 16
M  V30 20 1 18 17
M  V30 21 1 19 18
M  V30 22 1 20 19
M  V30 23 1 21 20
M  V30 24 2 22 21
M  V30 25 1 23 21
M  V30 26 2 24 23
M  V30 27 1 25 24
M  V30 28 2 26 25
M  V30 29 1 27 26
M  V30 30 2 28 27
M  V30 31 1 29 28
M  V30 32 1 30 25
M  V30 33 2 30 29
M  V30 34 1 31 23
M  V30 35 1 31 30
M  V30 36 1 32 1
M  V30 37 1 33 1
M  V30 38 1 34 1
M  V30 39 1 2 35 CFG=3
M  V30 40 1 36 3
M  V30 41 1 37 3
M  V30 42 1 5 38 CFG=1
M  V30 43 1 39 7
M  V30 44 1 40 8
M  V30 45 1 41 10
M  V30 46 1 42 10
M  V30 47 1 43 12
M  V30 48 1 44 13
M  V30 49 1 45 13
M  V30 50 1 46 15
M  V30 51 1 47 15
M  V30 52 1 16 48 CFG=3
M  V30 53 1 49 17
M  V30 54 1 50 17
M  V30 55 1 18 51 CFG=1
M  V30 56 1 52 19
M  V30 57 1 53 19
M  V30 58 1 54 20
M  V30 59 1 55 24
M  V30 60 1 56 26
M  V30 61 1 57 27
M  V30 62 1 58 28
M  V30 63 1 59 29
M  V30 64 1 60 31
M  V30 65 1 14 61 CFG=1
M  V30 END BOND
M  V30 END CTAB
M  END
>  <b_m_subgroup_collapsed>  (812) 
0

>  <r_i_docking_score>  (812) 
-7.8372841458940199

>  <s_m_subgroup_title>  (812) 
glide-dock_SP_D22_pv

>  <s_m_subgroupid>  (812) 
glide-dock_SP_D22_pv

>  <Molecule ChEMBL ID>  (812) 
CHEMBL4451063

>  <Standard Type>  (812) 
Ki

>  <Standard Value>  (812) 
14100.0

>  <label>  (812) 
0

$$$$
CHEMBL568801
     RDKit          3D

  0  0  0  0  0  0  0  0  0  0999 V3000
M  V30 BEGIN CTAB
M  V30 COUNTS 74 78 0 0 1
M  V30 BEGIN ATOM
M  V30 1 C 5.724520 7.881227 -12.772261 0
M  V30 2 C 6.295455 6.461181 -12.629395 0
M  V30 3 C 7.819193 6.446609 -12.836202 0
M  V30 4 N 8.413523 5.111215 -12.570496 0 CFG=2 CHG=1
M  V30 5 C 9.370500 5.130722 -11.427959 0
M  V30 6 C 8.706025 5.475894 -10.078301 0
M  V30 7 N 9.692318 6.001214 -9.136570 0
M  V30 8 C 10.045457 7.411306 -9.365937 0
M  V30 9 C 11.208968 7.835361 -8.425877 0
M  V30 10 N 10.943170 7.472152 -7.027479 0
M  V30 11 C 11.150300 8.353363 -5.944835 0
M  V30 12 C 10.819445 9.708951 -6.127477 0
M  V30 13 C 10.885826 10.593165 -5.046307 0
M  V30 14 N 11.286223 10.172276 -3.847401 0 CHG=1
M  V30 15 C 11.679651 8.929397 -3.608392 0
M  V30 16 C 12.101097 8.639171 -2.308854 0
M  V30 17 C 12.486567 7.336776 -2.017639 0
M  V30 18 C 12.477227 6.358957 -3.014168 0
M  V30 19 C 12.036921 6.657071 -4.313617 0
M  V30 20 C 11.619494 7.961150 -4.646485 0
M  V30 21 C 10.303571 6.184211 -6.807947 0
M  V30 22 C 9.146098 5.945710 -7.784354 0
M  V30 23 C 8.954087 4.464288 -13.809312 0 CFG=1
M  V30 24 C 10.385366 4.907022 -14.176662 0
M  V30 25 C 10.803918 4.351610 -15.542739 0
M  V30 26 C 10.520943 2.861749 -15.705579 0
M  V30 27 C 9.588671 2.204545 -14.862719 0
M  V30 28 C 9.341954 0.826966 -15.032036 0
M  V30 29 C 10.009374 0.105853 -16.033325 0
M  V30 30 C 10.925852 0.755424 -16.877693 0
M  V30 31 C 11.192963 2.139274 -16.722240 0
M  V30 32 O 12.084272 2.830976 -17.517248 0
M  V30 33 C 12.779840 2.122722 -18.532888 0
M  V30 34 C 8.863792 2.932395 -13.739315 0
M  V30 35 H 4.786819 7.994289 -12.241596 0
M  V30 36 H 6.391137 8.602877 -12.299739 0
M  V30 37 H 5.583488 8.171401 -13.814910 0
M  V30 38 H 5.792510 5.772271 -13.308634 0
M  V30 39 H 6.065766 6.102586 -11.626037 0
M  V30 40 H 8.275192 7.201378 -12.193052 0
M  V30 41 H 8.062303 6.762752 -13.844080 0
M  V30 42 H 9.866035 4.166135 -11.322657 0
M  V30 43 H 10.159121 5.844384 -11.661059 0
M  V30 44 H 7.885215 6.179640 -10.173091 0
M  V30 45 H 8.262643 4.559334 -9.686357 0
M  V30 46 H 10.356284 7.573635 -10.397164 0
M  V30 47 H 9.170965 8.044750 -9.204504 0
M  V30 48 H 12.136415 7.361646 -8.738874 0
M  V30 49 H 11.400514 8.900426 -8.543510 0
M  V30 50 H 10.430981 10.071033 -7.060952 0
M  V30 51 H 10.602436 11.627512 -5.047503 0
M  V30 52 H 12.141257 9.396588 -1.536148 0
M  V30 53 H 12.885715 7.098957 -1.047072 0
M  V30 54 H 12.838122 5.373695 -2.776498 0
M  V30 55 H 12.078725 5.874070 -5.050918 0
M  V30 56 H 11.054141 5.404575 -6.940883 0
M  V30 57 H 9.913376 6.144466 -5.790957 0
M  V30 58 H 8.344190 6.672115 -7.642298 0
M  V30 59 H 8.714290 4.964906 -7.596363 0
M  V30 60 H 8.309156 4.743292 -14.644346 0
M  V30 61 H 10.482403 5.992936 -14.179832 0
M  V30 62 H 11.091797 4.533743 -13.434224 0
M  V30 63 H 11.865194 4.551124 -15.695631 0
M  V30 64 H 10.274083 4.882925 -16.334759 0
M  V30 65 H 8.643992 0.314054 -14.385182 0
M  V30 66 H 9.812420 -0.948828 -16.154610 0
M  V30 67 H 11.415216 0.165094 -17.635750 0
M  V30 68 H 13.438228 2.810137 -19.064524 0
M  V30 69 H 13.402404 1.333088 -18.114019 0
M  V30 70 H 12.094001 1.693660 -19.262756 0
M  V30 71 H 7.815941 2.627373 -13.737810 0
M  V30 72 H 9.294584 2.574073 -12.809946 0
M  V30 73 H 11.316188 10.850271 -3.081678 0
M  V30 74 H 7.637168 4.536985 -12.273701 0
M  V30 END ATOM
M  V30 BEGIN BOND
M  V30 1 1 2 1
M  V30 2 1 3 2
M  V30 3 1 4 3
M  V30 4 1 5 4
M  V30 5 1 6 5
M  V30 6 1 7 6
M  V30 7 1 8 7
M  V30 8 1 9 8
M  V30 9 1 10 9
M  V30 10 1 11 10
M  V30 11 2 12 11
M  V30 12 1 13 12
M  V30 13 2 14 13
M  V30 14 1 15 14
M  V30 15 2 16 15
M  V30 16 1 17 16
M  V30 17 2 18 17
M  V30 18 1 19 18
M  V30 19 1 20 11
M  V30 20 1 20 15
M  V30 21 2 20 19
M  V30 22 1 21 10
M  V30 23 1 22 7
M  V30 24 1 22 21
M  V30 25 1 23 4
M  V30 26 1 24 23
M  V30 27 1 25 24
M  V30 28 1 26 25
M  V30 29 2 27 26
M  V30 30 1 28 27
M  V30 31 2 29 28
M  V30 32 1 30 29
M  V30 33 1 31 26
M  V30 34 2 31 30
M  V30 35 1 32 31
M  V30 36 1 33 32
M  V30 37 1 34 23
M  V30 38 1 34 27
M  V30 39 1 35 1
M  V30 40 1 36 1
M  V30 41 1 37 1
M  V30 42 1 38 2
M  V30 43 1 39 2
M  V30 44 1 40 3
M  V30 45 1 41 3
M  V30 46 1 42 5
M  V30 47 1 43 5
M  V30 48 1 44 6
M  V30 49 1 45 6
M  V30 50 1 46 8
M  V30 51 1 47 8
M  V30 52 1 48 9
M  V30 53 1 49 9
M  V30 54 1 50 12
M  V30 55 1 51 13
M  V30 56 1 52 16
M  V30 57 1 53 17
M  V30 58 1 54 18
M  V30 59 1 55 19
M  V30 60 1 56 21
M  V30 61 1 57 21
M  V30 62 1 58 22
M  V30 63 1 59 22
M  V30 64 1 23 60 CFG=3
M  V30 65 1 61 24
M  V30 66 1 62 24
M  V30 67 1 63 25
M  V30 68 1 64 25
M  V30 69 1 65 28
M  V30 70 1 66 29
M  V30 71 1 67 30
M  V30 72 1 68 33
M  V30 73 1 69 33
M  V30 74 1 70 33
M  V30 75 1 71 34
M  V30 76 1 72 34
M  V30 77 1 73 14
M  V30 78 1 4 74 CFG=1
M  V30 END BOND
M  V30 END CTAB
M  END
>  <b_m_subgroup_collapsed>  (813) 
0

>  <r_i_docking_score>  (813) 
-7.83591783071292

>  <s_m_subgroup_title>  (813) 
glide-dock_SP_D22_pv

>  <s_m_subgroupid>  (813) 
glide-dock_SP_D22_pv

>  <Molecule ChEMBL ID>  (813) 
CHEMBL568801

>  <Standard Type>  (813) 
Ki

>  <Standard Value>  (813) 
4.89

>  <label>  (813) 
1

$$$$
CHEMBL3335535
     RDKit          3D

  0  0  0  0  0  0  0  0  0  0999 V3000
M  V30 BEGIN CTAB
M  V30 COUNTS 47 50 0 0 1
M  V30 BEGIN ATOM
M  V30 1 C 12.320688 9.106574 -2.233477 0
M  V30 2 C 11.775447 9.770479 -3.346520 0
M  V30 3 C 11.387200 9.041803 -4.484584 0
M  V30 4 C 11.527864 7.637588 -4.496782 0
M  V30 5 C 10.882625 6.796338 -5.571774 0
M  V30 6 C 11.429914 6.866707 -7.013488 0
M  V30 7 C 11.226210 8.209558 -7.754940 0 CFG=1
M  V30 8 C 11.266458 8.079384 -9.294250 0
M  V30 9 N 10.174485 7.257568 -9.821280 0
M  V30 10 C 10.215261 7.200358 -11.288815 0
M  V30 11 C 9.335297 6.166336 -11.940677 0
M  V30 12 N 9.819933 5.199540 -12.722852 0
M  V30 13 C 8.678630 4.518281 -13.115341 0
M  V30 14 C 8.520432 3.393926 -13.956954 0
M  V30 15 C 7.235713 2.867373 -14.211873 0
M  V30 16 C 6.095254 3.448232 -13.616718 0
M  V30 17 C 6.227170 4.575034 -12.782403 0
M  V30 18 C 7.509179 5.100416 -12.547943 0
M  V30 19 N 7.991274 6.171784 -11.820556 0
M  V30 20 C 8.886568 7.754139 -9.333210 0
M  V30 21 C 8.846556 8.083838 -7.838140 0
M  V30 22 O 9.987279 8.820680 -7.422122 0
M  V30 23 C 12.086237 6.979359 -3.381777 0
M  V30 24 C 12.484745 7.713585 -2.254017 0
M  V30 25 H 12.598607 9.670495 -1.356245 0
M  V30 26 H 11.621872 10.836308 -3.300075 0
M  V30 27 H 10.917541 9.561275 -5.305587 0
M  V30 28 H 10.956235 5.772244 -5.242613 0
M  V30 29 H 9.818705 7.013354 -5.524763 0
M  V30 30 H 12.476191 6.570273 -7.046925 0
M  V30 31 H 10.911068 6.083644 -7.567385 0
M  V30 32 H 12.011505 8.897498 -7.440289 0
M  V30 33 H 11.216386 9.077664 -9.731726 0
M  V30 34 H 12.227336 7.662174 -9.597449 0
M  V30 35 H 9.966114 8.175618 -11.709606 0
M  V30 36 H 11.237886 6.993715 -11.607332 0
M  V30 37 H 9.392749 2.935624 -14.397065 0
M  V30 38 H 7.125846 2.004356 -14.852707 0
M  V30 39 H 5.118626 3.030071 -13.805975 0
M  V30 40 H 5.360877 5.030037 -12.324753 0
M  V30 41 H 7.451293 6.823452 -11.240518 0
M  V30 42 H 8.141993 6.972043 -9.477408 0
M  V30 43 H 8.583651 8.637142 -9.898303 0
M  V30 44 H 8.715430 7.158801 -7.282827 0
M  V30 45 H 7.983654 8.697758 -7.602637 0
M  V30 46 H 12.166207 5.901696 -3.360802 0
M  V30 47 H 12.885544 7.199125 -1.397412 0
M  V30 END ATOM
M  V30 BEGIN BOND
M  V30 1 2 2 1
M  V30 2 1 3 2
M  V30 3 2 4 3
M  V30 4 1 5 4
M  V30 5 1 6 5
M  V30 6 1 7 6
M  V30 7 1 8 7
M  V30 8 1 9 8
M  V30 9 1 10 9
M  V30 10 1 11 10
M  V30 11 2 12 11
M  V30 12 1 13 12
M  V30 13 2 14 13
M  V30 14 1 15 14
M  V30 15 2 16 15
M  V30 16 1 17 16
M  V30 17 1 18 13
M  V30 18 2 18 17
M  V30 19 1 19 11
M  V30 20 1 19 18
M  V30 21 1 20 9
M  V30 22 1 21 20
M  V30 23 1 22 7
M  V30 24 1 22 21
M  V30 25 1 23 4
M  V30 26 1 24 1
M  V30 27 2 24 23
M  V30 28 1 25 1
M  V30 29 1 26 2
M  V30 30 1 27 3
M  V30 31 1 28 5
M  V30 32 1 29 5
M  V30 33 1 30 6
M  V30 34 1 31 6
M  V30 35 1 7 32 CFG=1
M  V30 36 1 33 8
M  V30 37 1 34 8
M  V30 38 1 35 10
M  V30 39 1 36 10
M  V30 40 1 37 14
M  V30 41 1 38 15
M  V30 42 1 39 16
M  V30 43 1 40 17
M  V30 44 1 41 19
M  V30 45 1 42 20
M  V30 46 1 43 20
M  V30 47 1 44 21
M  V30 48 1 45 21
M  V30 49 1 46 23
M  V30 50 1 47 24
M  V30 END BOND
M  V30 END CTAB
M  END
>  <b_m_subgroup_collapsed>  (814) 
0

>  <r_i_docking_score>  (814) 
-7.8347978746537699

>  <s_m_subgroup_title>  (814) 
glide-dock_SP_D22_pv

>  <s_m_subgroupid>  (814) 
glide-dock_SP_D22_pv

>  <Molecule ChEMBL ID>  (814) 
CHEMBL3335535

>  <Standard Type>  (814) 
Ki

>  <Standard Value>  (814) 
100000.0

>  <label>  (814) 
0

$$$$
CHEMBL3335536
     RDKit          3D

  0  0  0  0  0  0  0  0  0  0999 V3000
M  V30 BEGIN CTAB
M  V30 COUNTS 47 50 0 0 1
M  V30 BEGIN ATOM
M  V30 1 C 12.320688 9.106574 -2.233477 0
M  V30 2 C 11.775447 9.770479 -3.346520 0
M  V30 3 C 11.387200 9.041803 -4.484584 0
M  V30 4 C 11.527864 7.637588 -4.496782 0
M  V30 5 C 10.882625 6.796338 -5.571774 0
M  V30 6 C 11.429914 6.866707 -7.013488 0
M  V30 7 C 11.226210 8.209558 -7.754940 0 CFG=1
M  V30 8 C 11.266458 8.079384 -9.294250 0
M  V30 9 N 10.174485 7.257568 -9.821280 0
M  V30 10 C 10.215261 7.200358 -11.288815 0
M  V30 11 C 9.335297 6.166336 -11.940677 0
M  V30 12 N 9.819933 5.199540 -12.722852 0
M  V30 13 C 8.678630 4.518281 -13.115341 0
M  V30 14 C 8.520432 3.393926 -13.956954 0
M  V30 15 C 7.235713 2.867373 -14.211873 0
M  V30 16 C 6.095254 3.448232 -13.616718 0
M  V30 17 C 6.227170 4.575034 -12.782403 0
M  V30 18 C 7.509179 5.100416 -12.547943 0
M  V30 19 N 7.991274 6.171784 -11.820556 0
M  V30 20 C 8.886568 7.754139 -9.333210 0
M  V30 21 C 8.846556 8.083838 -7.838140 0
M  V30 22 O 9.987279 8.820680 -7.422122 0
M  V30 23 C 12.086237 6.979359 -3.381777 0
M  V30 24 C 12.484745 7.713585 -2.254017 0
M  V30 25 H 12.598607 9.670495 -1.356245 0
M  V30 26 H 11.621872 10.836308 -3.300075 0
M  V30 27 H 10.917541 9.561275 -5.305587 0
M  V30 28 H 10.956235 5.772244 -5.242613 0
M  V30 29 H 9.818705 7.013354 -5.524763 0
M  V30 30 H 12.476191 6.570273 -7.046925 0
M  V30 31 H 10.911068 6.083644 -7.567385 0
M  V30 32 H 12.011505 8.897498 -7.440289 0
M  V30 33 H 11.216386 9.077664 -9.731726 0
M  V30 34 H 12.227336 7.662174 -9.597449 0
M  V30 35 H 9.966114 8.175618 -11.709606 0
M  V30 36 H 11.237886 6.993715 -11.607332 0
M  V30 37 H 9.392749 2.935624 -14.397065 0
M  V30 38 H 7.125846 2.004356 -14.852707 0
M  V30 39 H 5.118626 3.030071 -13.805975 0
M  V30 40 H 5.360877 5.030037 -12.324753 0
M  V30 41 H 7.451293 6.823452 -11.240518 0
M  V30 42 H 8.141993 6.972043 -9.477408 0
M  V30 43 H 8.583651 8.637142 -9.898303 0
M  V30 44 H 8.715430 7.158801 -7.282827 0
M  V30 45 H 7.983654 8.697758 -7.602637 0
M  V30 46 H 12.166207 5.901696 -3.360802 0
M  V30 47 H 12.885544 7.199125 -1.397412 0
M  V30 END ATOM
M  V30 BEGIN BOND
M  V30 1 2 2 1
M  V30 2 1 3 2
M  V30 3 2 4 3
M  V30 4 1 5 4
M  V30 5 1 6 5
M  V30 6 1 7 6
M  V30 7 1 8 7
M  V30 8 1 9 8
M  V30 9 1 10 9
M  V30 10 1 11 10
M  V30 11 2 12 11
M  V30 12 1 13 12
M  V30 13 2 14 13
M  V30 14 1 15 14
M  V30 15 2 16 15
M  V30 16 1 17 16
M  V30 17 1 18 13
M  V30 18 2 18 17
M  V30 19 1 19 11
M  V30 20 1 19 18
M  V30 21 1 20 9
M  V30 22 1 21 20
M  V30 23 1 22 7
M  V30 24 1 22 21
M  V30 25 1 23 4
M  V30 26 1 24 1
M  V30 27 2 24 23
M  V30 28 1 25 1
M  V30 29 1 26 2
M  V30 30 1 27 3
M  V30 31 1 28 5
M  V30 32 1 29 5
M  V30 33 1 30 6
M  V30 34 1 31 6
M  V30 35 1 7 32 CFG=1
M  V30 36 1 33 8
M  V30 37 1 34 8
M  V30 38 1 35 10
M  V30 39 1 36 10
M  V30 40 1 37 14
M  V30 41 1 38 15
M  V30 42 1 39 16
M  V30 43 1 40 17
M  V30 44 1 41 19
M  V30 45 1 42 20
M  V30 46 1 43 20
M  V30 47 1 44 21
M  V30 48 1 45 21
M  V30 49 1 46 23
M  V30 50 1 47 24
M  V30 END BOND
M  V30 END CTAB
M  END
>  <b_m_subgroup_collapsed>  (815) 
0

>  <r_i_docking_score>  (815) 
-7.8347978746537699

>  <s_m_subgroup_title>  (815) 
glide-dock_SP_D22_pv

>  <s_m_subgroupid>  (815) 
glide-dock_SP_D22_pv

>  <Molecule ChEMBL ID>  (815) 
CHEMBL3335536

>  <Standard Type>  (815) 
Ki

>  <Standard Value>  (815) 
100000.0

>  <label>  (815) 
0

$$$$
CHEMBL2062852
     RDKit          3D

  0  0  0  0  0  0  0  0  0  0999 V3000
M  V30 BEGIN CTAB
M  V30 COUNTS 54 56 0 0 1
M  V30 BEGIN ATOM
M  V30 1 C 6.083734 4.819983 -12.646950 0
M  V30 2 C 7.535329 4.351774 -12.846228 0
M  V30 3 N 8.514827 5.452190 -13.084496 0 CHG=1
M  V30 4 C 9.796153 4.926138 -13.646764 0
M  V30 5 C 9.686954 4.548796 -15.132712 0
M  V30 6 C 8.641920 6.333948 -11.880513 0 CFG=2
M  V30 7 C 9.508142 7.606424 -11.962707 0 CFG=1
M  V30 8 C 8.834500 8.972324 -11.887407 0
M  V30 9 O 7.487571 8.902156 -12.246864 0
M  V30 10 C 10.350806 7.088061 -10.783039 0 CFG=1
M  V30 11 C 10.304160 7.678360 -9.384908 0
M  V30 12 N 9.107677 7.061056 -8.761287 0 CFG=2 CHG=1
M  V30 13 C 8.909467 7.209929 -7.286873 0
M  V30 14 C 10.073781 7.775153 -6.471611 0
M  V30 15 C 10.423337 9.139548 -6.572883 0
M  V30 16 C 11.392815 9.702617 -5.721001 0
M  V30 17 C 12.015516 8.904070 -4.744275 0
M  V30 18 C 11.686022 7.537833 -4.646853 0
M  V30 19 C 10.736534 6.972345 -5.519440 0
M  V30 20 C 8.886020 5.721157 -9.383376 0 CFG=2
M  V30 21 C 9.533631 4.572325 -8.646865 0
M  V30 22 C 9.512972 5.819243 -10.752523 0 CFG=1
M  V30 23 H 5.410707 3.962087 -12.638352 0
M  V30 24 H 5.753300 5.480603 -13.446865 0
M  V30 25 H 5.929914 5.335004 -11.698966 0
M  V30 26 H 7.852345 3.772329 -11.979140 0
M  V30 27 H 7.536714 3.661909 -13.688667 0
M  V30 28 H 10.597237 5.656172 -13.559145 0
M  V30 29 H 10.126884 4.053438 -13.081469 0
M  V30 30 H 10.668046 4.285193 -15.529233 0
M  V30 31 H 9.304827 5.372324 -15.733398 0
M  V30 32 H 9.040266 3.687906 -15.298482 0
M  V30 33 H 7.663525 6.572320 -11.483042 0
M  V30 34 H 10.178938 7.581158 -12.814018 0
M  V30 35 H 8.885917 9.418886 -10.898534 0
M  V30 36 H 9.286021 9.659767 -12.599987 0
M  V30 37 H 6.985157 8.523560 -11.517233 0
M  V30 38 H 11.373900 6.920452 -11.120140 0
M  V30 39 H 11.201285 7.377586 -8.841637 0
M  V30 40 H 10.267940 8.766145 -9.374155 0
M  V30 41 H 8.086023 7.910739 -7.151698 0
M  V30 42 H 8.552674 6.283182 -6.838050 0
M  V30 43 H 9.919558 9.772319 -7.287103 0
M  V30 44 H 11.643408 10.750399 -5.803671 0
M  V30 45 H 12.748933 9.335154 -4.077976 0
M  V30 46 H 12.165034 6.919619 -3.901355 0
M  V30 47 H 10.486020 5.929976 -5.410447 0
M  V30 48 H 7.813774 5.537666 -9.454313 0
M  V30 49 H 9.686627 3.704624 -9.283531 0
M  V30 50 H 8.886024 4.234988 -7.846864 0
M  V30 51 H 10.504483 4.864365 -8.246866 0
M  V30 52 H 10.086021 4.943308 -11.044650 0
M  V30 53 H 8.115204 6.040536 -13.802058 0
M  V30 54 H 8.325121 7.582500 -9.144176 0
M  V30 END ATOM
M  V30 BEGIN BOND
M  V30 1 1 2 1
M  V30 2 1 3 2
M  V30 3 1 4 3
M  V30 4 1 5 4
M  V30 5 1 6 3
M  V30 6 1 7 6
M  V30 7 1 8 7
M  V30 8 1 9 8
M  V30 9 1 10 7
M  V30 10 1 11 10
M  V30 11 1 12 11
M  V30 12 1 13 12
M  V30 13 1 14 13
M  V30 14 2 15 14
M  V30 15 1 16 15
M  V30 16 2 17 16
M  V30 17 1 18 17
M  V30 18 1 19 14
M  V30 19 2 19 18
M  V30 20 1 20 12
M  V30 21 1 21 20
M  V30 22 1 22 6
M  V30 23 1 22 10
M  V30 24 1 22 20
M  V30 25 1 23 1
M  V30 26 1 24 1
M  V30 27 1 25 1
M  V30 28 1 26 2
M  V30 29 1 27 2
M  V30 30 1 28 4
M  V30 31 1 29 4
M  V30 32 1 30 5
M  V30 33 1 31 5
M  V30 34 1 32 5
M  V30 35 1 6 33 CFG=1
M  V30 36 1 7 34 CFG=3
M  V30 37 1 35 8
M  V30 38 1 36 8
M  V30 39 1 37 9
M  V30 40 1 10 38 CFG=3
M  V30 41 1 39 11
M  V30 42 1 40 11
M  V30 43 1 41 13
M  V30 44 1 42 13
M  V30 45 1 43 15
M  V30 46 1 44 16
M  V30 47 1 45 17
M  V30 48 1 46 18
M  V30 49 1 47 19
M  V30 50 1 20 48 CFG=3
M  V30 51 1 49 21
M  V30 52 1 50 21
M  V30 53 1 51 21
M  V30 54 1 22 52 CFG=3
M  V30 55 1 53 3
M  V30 56 1 12 54 CFG=3
M  V30 END BOND
M  V30 END CTAB
M  END
>  <b_m_subgroup_collapsed>  (816) 
0

>  <r_i_docking_score>  (816) 
-7.8340494267885896

>  <s_m_subgroup_title>  (816) 
glide-dock_SP_D22_pv

>  <s_m_subgroupid>  (816) 
glide-dock_SP_D22_pv

>  <Molecule ChEMBL ID>  (816) 
CHEMBL2062852

>  <Standard Type>  (816) 
Ki

>  <Standard Value>  (816) 
38000.0

>  <label>  (816) 
0

$$$$
CHEMBL1779060
     RDKit          3D

  0  0  0  0  0  0  0  0  0  0999 V3000
M  V30 BEGIN CTAB
M  V30 COUNTS 54 60 0 0 1
M  V30 BEGIN ATOM
M  V30 1 C 5.158252 1.995433 -13.117273 0
M  V30 2 O 6.085842 2.899982 -13.701699 0
M  V30 3 C 7.237538 2.372300 -14.246854 0
M  V30 4 C 7.250651 1.093417 -14.855989 0
M  V30 5 C 8.432324 0.572349 -15.409389 0
M  V30 6 C 9.618602 1.324802 -15.373724 0
M  V30 7 C 10.886207 0.752233 -15.968352 0
M  V30 8 C 9.617878 2.600431 -14.776358 0
M  V30 9 C 8.442836 3.129261 -14.195601 0
M  V30 10 C 8.519489 4.474811 -13.518652 0
M  V30 11 O 9.265083 5.358835 -13.938738 0
M  V30 12 N 7.799827 4.605074 -12.395610 0
M  V30 13 C 7.752313 5.773407 -11.526786 0
M  V30 14 C 9.049358 5.947509 -10.717321 0
M  V30 15 N 8.886024 6.972343 -9.645119 0 CFG=2 CHG=1
M  V30 16 C 9.918032 8.027721 -9.585417 0 CFG=1
M  V30 17 C 9.550629 8.849440 -8.309513 0 CFG=2
M  V30 18 C 10.871739 9.214714 -7.582438 0 CFG=1
M  V30 19 C 10.537203 9.056202 -6.098366 0
M  V30 20 C 10.036145 7.623374 -6.246925 0 CFG=2
M  V30 21 C 11.160064 6.909832 -6.982165 0 CFG=2
M  V30 22 C 11.733136 7.998385 -7.893371 0 CFG=1
M  V30 23 C 11.158514 7.282097 -9.102742 0 CFG=1
M  V30 24 C 10.570188 6.199856 -8.185978 0 CFG=2
M  V30 25 C 9.087405 6.510790 -8.256911 0 CFG=2
M  V30 26 O 8.131294 5.505681 -8.043554 0
M  V30 27 C 8.960057 7.757388 -7.360569 0 CFG=2
M  V30 28 H 4.369487 2.572387 -12.638753 0
M  V30 29 H 5.634644 1.375521 -12.356425 0
M  V30 30 H 4.671172 1.351711 -13.846942 0
M  V30 31 H 6.357780 0.491374 -14.920544 0
M  V30 32 H 8.422038 -0.406947 -15.865737 0
M  V30 33 H 11.717546 1.452557 -15.884582 0
M  V30 34 H 10.740824 0.519366 -17.023275 0
M  V30 35 H 11.158459 -0.164951 -15.446939 0
M  V30 36 H 10.535657 3.170445 -14.742334 0
M  V30 37 H 7.202857 3.828075 -12.148394 0
M  V30 38 H 7.550607 6.666441 -12.120732 0
M  V30 39 H 6.900112 5.652950 -10.861008 0
M  V30 40 H 9.345366 4.986022 -10.294632 0
M  V30 41 H 9.855502 6.239222 -11.391812 0
M  V30 42 H 10.056100 8.615820 -10.493451 0
M  V30 43 H 8.858347 9.675217 -8.471384 0
M  V30 44 H 11.286035 10.172314 -7.876724 0
M  V30 45 H 11.418753 9.129107 -5.459446 0
M  V30 46 H 9.779746 9.748096 -5.737059 0
M  V30 47 H 9.700094 7.116712 -5.343667 0
M  V30 48 H 11.895581 6.355710 -6.397779 0
M  V30 49 H 12.817337 8.110401 -7.854733 0
M  V30 50 H 11.873577 6.944620 -9.851386 0
M  V30 51 H 10.886023 5.176745 -8.380334 0
M  V30 52 H 7.312991 5.952139 -7.843283 0
M  V30 53 H 7.962765 8.004525 -7.001966 0
M  V30 54 H 7.949823 7.376538 -9.754226 0
M  V30 END ATOM
M  V30 BEGIN BOND
M  V30 1 1 2 1
M  V30 2 1 3 2
M  V30 3 1 4 3
M  V30 4 2 5 4
M  V30 5 1 6 5
M  V30 6 1 7 6
M  V30 7 2 8 6
M  V30 8 2 9 3
M  V30 9 1 9 8
M  V30 10 1 10 9
M  V30 11 2 11 10
M  V30 12 1 12 10
M  V30 13 1 13 12
M  V30 14 1 14 13
M  V30 15 1 15 14
M  V30 16 1 16 15
M  V30 17 1 17 16
M  V30 18 1 18 17
M  V30 19 1 19 18
M  V30 20 1 20 19
M  V30 21 1 21 20
M  V30 22 1 22 18
M  V30 23 1 22 21
M  V30 24 1 23 16
M  V30 25 1 23 22
M  V30 26 1 24 21
M  V30 27 1 24 23
M  V30 28 1 25 15
M  V30 29 1 25 24
M  V30 30 1 25 26 CFG=1
M  V30 31 1 27 17
M  V30 32 1 27 20
M  V30 33 1 27 25
M  V30 34 1 28 1
M  V30 35 1 29 1
M  V30 36 1 30 1
M  V30 37 1 31 4
M  V30 38 1 32 5
M  V30 39 1 33 7
M  V30 40 1 34 7
M  V30 41 1 35 7
M  V30 42 1 36 8
M  V30 43 1 37 12
M  V30 44 1 38 13
M  V30 45 1 39 13
M  V30 46 1 40 14
M  V30 47 1 41 14
M  V30 48 1 16 42 CFG=3
M  V30 49 1 17 43 CFG=3
M  V30 50 1 18 44 CFG=1
M  V30 51 1 45 19
M  V30 52 1 46 19
M  V30 53 1 20 47 CFG=1
M  V30 54 1 21 48 CFG=1
M  V30 55 1 22 49 CFG=3
M  V30 56 1 23 50 CFG=3
M  V30 57 1 24 51 CFG=3
M  V30 58 1 52 26
M  V30 59 1 27 53 CFG=1
M  V30 60 1 15 54 CFG=1
M  V30 END BOND
M  V30 END CTAB
M  END
>  <b_m_subgroup_collapsed>  (817) 
0

>  <r_i_docking_score>  (817) 
-7.8336316250609102

>  <s_m_subgroup_title>  (817) 
glide-dock_SP_D22_pv

>  <s_m_subgroupid>  (817) 
glide-dock_SP_D22_pv

>  <Molecule ChEMBL ID>  (817) 
CHEMBL1779060

>  <Standard Type>  (817) 
Ki

>  <Standard Value>  (817) 
10000.0

>  <label>  (817) 
0

$$$$
CHEMBL6060787
     RDKit          3D

  0  0  0  0  0  0  0  0  0  0999 V3000
M  V30 BEGIN CTAB
M  V30 COUNTS 53 57 0 0 1
M  V30 BEGIN ATOM
M  V30 1 C 7.146057 -0.227533 -16.269243 0
M  V30 2 C 7.747143 0.898237 -15.458960 0
M  V30 3 N 9.076900 0.929458 -15.346807 0
M  V30 4 C 9.605803 1.960307 -14.651481 0
M  V30 5 C 8.792098 2.956625 -14.073566 0
M  V30 6 C 7.406450 2.804371 -14.247526 0
M  V30 7 N 6.886016 1.775489 -14.943121 0
M  V30 8 C 6.446549 3.798000 -13.629963 0
M  V30 9 C 7.059070 4.467746 -12.389495 0
M  V30 10 N 8.488933 4.806786 -12.530602 0
M  V30 11 C 8.941386 5.907400 -11.673941 0
M  V30 12 C 8.737765 5.548503 -10.191285 0
M  V30 13 N 9.681079 6.214134 -9.299816 0
M  V30 14 C 9.581252 7.675297 -9.371938 0
M  V30 15 C 10.658913 8.294480 -8.464523 0
M  V30 16 N 10.506475 7.814323 -7.094407 0
M  V30 17 C 10.943221 8.620382 -6.031546 0
M  V30 18 N 10.885770 9.947468 -6.092518 0
M  V30 19 O 11.269802 10.436990 -4.820570 0
M  V30 20 C 11.635200 9.384375 -4.001523 0
M  V30 21 C 12.090326 9.372318 -2.680578 0
M  V30 22 C 12.465552 8.138297 -2.118464 0
M  V30 23 C 12.287535 6.946416 -2.857880 0
M  V30 24 C 11.772349 6.977874 -4.174779 0
M  V30 25 C 11.450916 8.227410 -4.761917 0
M  V30 26 C 10.348983 6.378315 -6.934409 0
M  V30 27 C 9.323997 5.823755 -7.934478 0
M  V30 28 C 9.357092 4.117923 -13.314929 0
M  V30 29 O 10.555770 4.380728 -13.415205 0
M  V30 30 H 6.792453 -1.016786 -15.606054 0
M  V30 31 H 6.298279 0.129694 -16.853554 0
M  V30 32 H 7.878503 -0.650120 -16.957239 0
M  V30 33 H 10.682515 1.982639 -14.563892 0
M  V30 34 H 6.203852 4.561073 -14.365563 0
M  V30 35 H 5.508853 3.305564 -13.369153 0
M  V30 36 H 6.975634 3.776790 -11.549248 0
M  V30 37 H 6.471731 5.346338 -12.116739 0
M  V30 38 H 9.990076 6.151752 -11.852972 0
M  V30 39 H 8.380199 6.810123 -11.920349 0
M  V30 40 H 7.707254 5.770254 -9.900197 0
M  V30 41 H 8.876048 4.474407 -10.061697 0
M  V30 42 H 9.743009 8.025103 -10.391382 0
M  V30 43 H 8.585998 8.009273 -9.072160 0
M  V30 44 H 11.653691 8.030025 -8.825021 0
M  V30 45 H 10.582134 9.378978 -8.519402 0
M  V30 46 H 12.184859 10.291842 -2.128962 0
M  V30 47 H 12.857918 8.104172 -1.113209 0
M  V30 48 H 12.551420 5.997323 -2.413105 0
M  V30 49 H 11.674343 6.049157 -4.712296 0
M  V30 50 H 11.314393 5.883655 -7.051702 0
M  V30 51 H 9.968528 6.171710 -5.936090 0
M  V30 52 H 8.324690 6.189663 -7.687232 0
M  V30 53 H 9.287091 4.737308 -7.849764 0
M  V30 END ATOM
M  V30 BEGIN BOND
M  V30 1 1 2 1
M  V30 2 1 3 2
M  V30 3 2 4 3
M  V30 4 1 5 4
M  V30 5 2 6 5
M  V30 6 2 7 2
M  V30 7 1 7 6
M  V30 8 1 8 6
M  V30 9 1 9 8
M  V30 10 1 10 9
M  V30 11 1 11 10
M  V30 12 1 12 11
M  V30 13 1 13 12
M  V30 14 1 14 13
M  V30 15 1 15 14
M  V30 16 1 16 15
M  V30 17 1 17 16
M  V30 18 2 18 17
M  V30 19 1 19 18
M  V30 20 1 20 19
M  V30 21 2 21 20
M  V30 22 1 22 21
M  V30 23 2 23 22
M  V30 24 1 24 23
M  V30 25 1 25 17
M  V30 26 1 25 20
M  V30 27 2 25 24
M  V30 28 1 26 16
M  V30 29 1 27 13
M  V30 30 1 27 26
M  V30 31 1 28 5
M  V30 32 1 28 10
M  V30 33 2 29 28
M  V30 34 1 30 1
M  V30 35 1 31 1
M  V30 36 1 32 1
M  V30 37 1 33 4
M  V30 38 1 34 8
M  V30 39 1 35 8
M  V30 40 1 36 9
M  V30 41 1 37 9
M  V30 42 1 38 11
M  V30 43 1 39 11
M  V30 44 1 40 12
M  V30 45 1 41 12
M  V30 46 1 42 14
M  V30 47 1 43 14
M  V30 48 1 44 15
M  V30 49 1 45 15
M  V30 50 1 46 21
M  V30 51 1 47 22
M  V30 52 1 48 23
M  V30 53 1 49 24
M  V30 54 1 50 26
M  V30 55 1 51 26
M  V30 56 1 52 27
M  V30 57 1 53 27
M  V30 END BOND
M  V30 END CTAB
M  END
>  <b_m_subgroup_collapsed>  (818) 
0

>  <r_i_docking_score>  (818) 
-7.83230554065916

>  <s_m_subgroup_title>  (818) 
glide-dock_SP_D22_pv

>  <s_m_subgroupid>  (818) 
glide-dock_SP_D22_pv

>  <Molecule ChEMBL ID>  (818) 
CHEMBL6060787

>  <Standard Type>  (818) 
Ki

>  <Standard Value>  (818) 
10000.0

>  <label>  (818) 
0

$$$$
CHEMBL3265324
     RDKit          3D

  0  0  0  0  0  0  0  0  0  0999 V3000
M  V30 BEGIN CTAB
M  V30 COUNTS 124 126 0 0 1
M  V30 BEGIN ATOM
M  V30 1 C 11.694208 9.320004 -5.478658 0
M  V30 2 C 11.314189 9.908182 -6.626390 0
M  V30 3 C 10.934589 9.203114 -7.922929 0
M  V30 4 N 10.392493 7.845676 -7.712532 0 CFG=1 CHG=1
M  V30 5 C 9.126980 7.764977 -6.961947 0
M  V30 6 C 8.756523 6.296271 -7.083385 0
M  V30 7 C 9.384761 5.817661 -8.397384 0
M  V30 8 C 10.205391 7.006960 -8.920213 0 CFG=1
M  V30 9 C 9.484977 7.737176 -10.084215 0
M  V30 10 N 9.345598 6.854914 -11.235085 0
M  V30 11 C 10.275987 6.680904 -12.185019 0
M  V30 12 O 11.298684 7.371775 -12.213060 0
M  V30 13 C 10.098441 5.524316 -13.149903 0
M  V30 14 C 11.238465 5.132506 -13.884011 0
M  V30 15 C 11.191860 4.071084 -14.796047 0
M  V30 16 C 12.438494 3.699080 -15.570928 0
M  V30 17 C 12.681868 4.589995 -16.798492 0
M  V30 18 C 14.040976 4.286632 -17.446501 0
M  V30 19 S 14.301883 5.147487 -19.023144 0
M  V30 20 C 15.303382 6.559866 -18.466963 0 CFG=2
M  V30 21 C 14.463531 7.671720 -17.829365 0
M  V30 22 C 14.897619 8.907535 -18.603415 0
M  V30 23 O 14.490555 10.033399 -18.329741 0
M  V30 24 N 15.734335 8.590438 -19.600704 0
M  V30 25 C 16.205299 9.541844 -20.618219 0
M  V30 26 C 15.445190 9.390658 -21.955370 0
M  V30 27 C 13.919679 9.552001 -21.817945 0
M  V30 28 C 13.125368 9.165210 -23.081997 0
M  V30 29 C 11.663292 8.758669 -22.784504 0
M  V30 30 C 11.567477 7.489056 -21.927031 0
M  V30 31 O 12.341914 6.552847 -22.133911 0
M  V30 32 N 10.658894 7.469256 -20.938471 0
M  V30 33 C 10.600886 6.434004 -19.906906 0
M  V30 34 C 10.047401 5.094714 -20.425232 0
M  V30 35 O 10.351312 4.082896 -19.479225 0
M  V30 36 C 9.850349 2.807320 -19.843239 0
M  V30 37 C 10.452523 1.734990 -18.922501 0
M  V30 38 O 11.656941 1.229179 -19.483734 0
M  V30 39 C 12.274755 0.249979 -18.662958 0
M  V30 40 C 13.360702 -0.514328 -19.435816 0
M  V30 41 O 14.581289 0.213424 -19.446651 0
M  V30 42 C 15.699859 -0.603188 -19.770132 0
M  V30 43 C 16.996309 0.203608 -19.633049 0
M  V30 44 O 17.392750 0.773688 -20.870676 0
M  V30 45 C 18.607666 1.511127 -20.759094 0
M  V30 46 C 19.281740 1.734113 -22.127003 0
M  V30 47 C 18.556925 2.740750 -23.021496 0
M  V30 48 N 19.285931 3.698797 -23.599108 0
M  V30 49 O 17.347893 2.653457 -23.211941 0
M  V30 50 C 16.020836 7.281181 -19.602528 0
M  V30 51 O 16.761433 6.703325 -20.393074 0
M  V30 52 C 9.997044 3.354069 -14.955048 0
M  V30 53 C 8.822816 3.716605 -14.247437 0
M  V30 54 O 7.639919 3.026159 -14.431447 0
M  V30 55 C 7.626588 1.867494 -15.255081 0
M  V30 56 C 8.861358 4.834980 -13.351506 0
M  V30 57 O 7.750601 5.328318 -12.686546 0
M  V30 58 C 6.613589 4.519914 -12.422235 0
M  V30 59 H 11.756962 8.247190 -5.368348 0
M  V30 60 H 11.953888 9.916990 -4.616824 0
M  V30 61 H 11.291050 10.988565 -6.656082 0
M  V30 62 H 10.171982 9.772299 -8.442861 0
M  V30 63 H 11.811748 9.162704 -8.572090 0
M  V30 64 H 9.234782 8.064826 -5.920056 0
M  V30 65 H 8.363211 8.396459 -7.420551 0
M  V30 66 H 9.207295 5.773956 -6.248181 0
M  V30 67 H 7.685698 6.132823 -7.045921 0
M  V30 68 H 10.045813 4.972296 -8.207267 0
M  V30 69 H 8.622499 5.475528 -9.098316 0
M  V30 70 H 11.187076 6.674133 -9.262768 0
M  V30 71 H 8.486027 8.056155 -9.780109 0
M  V30 72 H 10.014267 8.640254 -10.392385 0
M  V30 73 H 8.496147 6.307642 -11.309405 0
M  V30 74 H 12.176024 5.658304 -13.758295 0
M  V30 75 H 13.284338 3.775101 -14.890490 0
M  V30 76 H 12.383778 2.654791 -15.876284 0
M  V30 77 H 11.881619 4.438951 -17.519127 0
M  V30 78 H 12.648116 5.641246 -16.509186 0
M  V30 79 H 14.841926 4.569057 -16.763330 0
M  V30 80 H 14.129761 3.217351 -17.635426 0
M  V30 81 H 16.068449 6.210574 -17.773314 0
M  V30 82 H 13.391890 7.519333 -17.973011 0
M  V30 83 H 14.656500 7.773424 -16.760658 0
M  V30 84 H 16.105480 10.568085 -20.259964 0
M  V30 85 H 17.273045 9.387949 -20.784824 0
M  V30 86 H 15.824059 10.115663 -22.676704 0
M  V30 87 H 15.667623 8.407643 -22.376673 0
M  V30 88 H 13.579782 8.927214 -20.996168 0
M  V30 89 H 13.686636 10.572935 -21.522078 0
M  V30 90 H 13.143107 9.998754 -23.785664 0
M  V30 91 H 13.620376 8.340094 -23.596548 0
M  V30 92 H 11.139869 9.580876 -22.293934 0
M  V30 93 H 11.139954 8.573056 -23.723475 0
M  V30 94 H 10.053765 8.268590 -20.828417 0
M  V30 95 H 11.604608 6.289006 -19.506285 0
M  V30 96 H 9.992218 6.791687 -19.076136 0
M  V30 97 H 8.969110 5.166810 -20.584518 0
M  V30 98 H 10.503672 4.826858 -21.379713 0
M  V30 99 H 8.764831 2.826730 -19.728884 0
M  V30 100 H 10.062542 2.567248 -20.885363 0
M  V30 101 H 10.617849 2.133979 -17.921600 0
M  V30 102 H 9.741326 0.911337 -18.829996 0
M  V30 103 H 12.685033 0.706580 -17.762823 0
M  V30 104 H 11.523722 -0.472651 -18.339407 0
M  V30 105 H 13.516791 -1.464525 -18.927063 0
M  V30 106 H 13.038973 -0.748467 -20.450708 0
M  V30 107 H 15.745727 -1.412861 -19.047573 0
M  V30 108 H 15.609508 -1.047492 -20.761324 0
M  V30 109 H 16.886307 0.971903 -18.872663 0
M  V30 110 H 17.788740 -0.463379 -19.290628 0
M  V30 111 H 18.420147 2.458018 -20.250422 0
M  V30 112 H 19.312300 0.971830 -20.128017 0
M  V30 113 H 20.303530 2.080737 -21.962755 0
M  V30 114 H 19.368795 0.788725 -22.658358 0
M  V30 115 H 20.303421 3.772191 -23.447163 0
M  V30 116 H 18.828102 4.370136 -24.191179 0
M  V30 117 H 10.009581 2.529459 -15.647509 0
M  V30 118 H 6.629998 1.426594 -15.236710 0
M  V30 119 H 7.858507 2.107782 -16.293543 0
M  V30 120 H 8.325197 1.110881 -14.891390 0
M  V30 121 H 6.021437 5.002295 -11.642830 0
M  V30 122 H 5.972488 4.429667 -13.297785 0
M  V30 123 H 6.885340 3.530067 -12.052865 0
M  V30 124 H 11.070216 7.352819 -7.153360 0
M  V30 END ATOM
M  V30 BEGIN BOND
M  V30 1 2 2 1
M  V30 2 1 3 2
M  V30 3 1 4 3
M  V30 4 1 5 4
M  V30 5 1 6 5
M  V30 6 1 7 6
M  V30 7 1 8 4
M  V30 8 1 8 7
M  V30 9 1 9 8
M  V30 10 1 10 9
M  V30 11 1 11 10
M  V30 12 2 12 11
M  V30 13 1 13 11
M  V30 14 2 14 13
M  V30 15 1 15 14
M  V30 16 1 16 15
M  V30 17 1 17 16
M  V30 18 1 18 17
M  V30 19 1 19 18
M  V30 20 1 20 19
M  V30 21 1 21 20
M  V30 22 1 22 21
M  V30 23 2 23 22
M  V30 24 1 24 22
M  V30 25 1 25 24
M  V30 26 1 26 25
M  V30 27 1 27 26
M  V30 28 1 28 27
M  V30 29 1 29 28
M  V30 30 1 30 29
M  V30 31 2 31 30
M  V30 32 1 32 30
M  V30 33 1 33 32
M  V30 34 1 34 33
M  V30 35 1 35 34
M  V30 36 1 36 35
M  V30 37 1 37 36
M  V30 38 1 38 37
M  V30 39 1 39 38
M  V30 40 1 40 39
M  V30 41 1 41 40
M  V30 42 1 42 41
M  V30 43 1 43 42
M  V30 44 1 44 43
M  V30 45 1 45 44
M  V30 46 1 46 45
M  V30 47 1 47 46
M  V30 48 1 48 47
M  V30 49 2 49 47
M  V30 50 1 50 20
M  V30 51 1 50 24
M  V30 52 2 51 50
M  V30 53 2 52 15
M  V30 54 1 53 52
M  V30 55 1 54 53
M  V30 56 1 55 54
M  V30 57 1 56 13
M  V30 58 2 56 53
M  V30 59 1 57 56
M  V30 60 1 58 57
M  V30 61 1 59 1
M  V30 62 1 60 1
M  V30 63 1 61 2
M  V30 64 1 62 3
M  V30 65 1 63 3
M  V30 66 1 64 5
M  V30 67 1 65 5
M  V30 68 1 66 6
M  V30 69 1 67 6
M  V30 70 1 68 7
M  V30 71 1 69 7
M  V30 72 1 8 70 CFG=3
M  V30 73 1 71 9
M  V30 74 1 72 9
M  V30 75 1 73 10
M  V30 76 1 74 14
M  V30 77 1 75 16
M  V30 78 1 76 16
M  V30 79 1 77 17
M  V30 80 1 78 17
M  V30 81 1 79 18
M  V30 82 1 80 18
M  V30 83 1 20 81 CFG=1
M  V30 84 1 82 21
M  V30 85 1 83 21
M  V30 86 1 84 25
M  V30 87 1 85 25
M  V30 88 1 86 26
M  V30 89 1 87 26
M  V30 90 1 88 27
M  V30 91 1 89 27
M  V30 92 1 90 28
M  V30 93 1 91 28
M  V30 94 1 92 29
M  V30 95 1 93 29
M  V30 96 1 94 32
M  V30 97 1 95 33
M  V30 98 1 96 33
M  V30 99 1 97 34
M  V30 100 1 98 34
M  V30 101 1 99 36
M  V30 102 1 100 36
M  V30 103 1 101 37
M  V30 104 1 102 37
M  V30 105 1 103 39
M  V30 106 1 104 39
M  V30 107 1 105 40
M  V30 108 1 106 40
M  V30 109 1 107 42
M  V30 110 1 108 42
M  V30 111 1 109 43
M  V30 112 1 110 43
M  V30 113 1 111 45
M  V30 114 1 112 45
M  V30 115 1 113 46
M  V30 116 1 114 46
M  V30 117 1 115 48
M  V30 118 1 116 48
M  V30 119 1 117 52
M  V30 120 1 118 55
M  V30 121 1 119 55
M  V30 122 1 120 55
M  V30 123 1 121 58
M  V30 124 1 122 58
M  V30 125 1 123 58
M  V30 126 1 4 124 CFG=1
M  V30 END BOND
M  V30 END CTAB
M  END
>  <b_m_subgroup_collapsed>  (819) 
0

>  <r_i_docking_score>  (819) 
-7.8312449783604299

>  <s_m_subgroup_title>  (819) 
glide-dock_SP_D22_pv

>  <s_m_subgroupid>  (819) 
glide-dock_SP_D22_pv

>  <Molecule ChEMBL ID>  (819) 
CHEMBL3265324

>  <Standard Type>  (819) 
Ki

>  <Standard Value>  (819) 
7.31

>  <label>  (819) 
1

$$$$
CHEMBL104273
     RDKit          3D

  0  0  0  0  0  0  0  0  0  0999 V3000
M  V30 BEGIN CTAB
M  V30 COUNTS 58 61 0 0 1
M  V30 BEGIN ATOM
M  V30 1 C 12.677163 9.394817 -3.792686 0
M  V30 2 C 11.757573 8.836609 -4.854781 0
M  V30 3 C 11.388312 7.478362 -4.812887 0
M  V30 4 C 10.486638 6.968775 -5.761452 0
M  V30 5 C 9.931092 7.801132 -6.748523 0
M  V30 6 C 8.836469 7.280986 -7.662796 0
M  V30 7 N 9.371008 6.745916 -8.939314 0 CFG=2 CHG=1
M  V30 8 C 9.574562 7.801630 -9.963616 0
M  V30 9 C 10.231662 7.233207 -11.229655 0
M  V30 10 C 9.450777 6.045297 -11.830219 0 CFG=1
M  V30 11 C 10.243472 5.473887 -13.031643 0
M  V30 12 C 9.602445 4.323324 -13.821692 0
M  V30 13 O 8.423252 4.041109 -13.612488 0
M  V30 14 N 10.370318 3.672749 -14.733666 0
M  V30 15 C 10.086281 2.383715 -15.249762 0
M  V30 16 C 9.185616 1.407672 -14.772097 0
M  V30 17 C 9.115141 0.172465 -15.448792 0
M  V30 18 C 9.937590 -0.086893 -16.569643 0
M  V30 19 C 10.845284 0.889403 -17.029455 0
M  V30 20 C 10.896086 2.116935 -16.348007 0
M  V30 21 C 11.801974 3.271550 -16.643858 0
M  V30 22 C 11.489079 4.278859 -15.503401 0 CFG=2
M  V30 23 C 12.752042 4.556015 -14.663400 0
M  V30 24 C 9.174177 5.002855 -10.721470 0
M  V30 25 C 8.543293 5.635797 -9.474050 0
M  V30 26 C 10.353821 9.139009 -6.825598 0
M  V30 27 C 11.260706 9.664528 -5.883937 0
M  V30 28 F 11.625591 10.967172 -5.958893 0
M  V30 29 H 12.975807 8.622297 -3.084506 0
M  V30 30 H 13.568329 9.817224 -4.255434 0
M  V30 31 H 12.166399 10.174525 -3.228671 0
M  V30 32 H 11.770189 6.827226 -4.038543 0
M  V30 33 H 10.182245 5.939761 -5.694054 0
M  V30 34 H 8.104787 8.071183 -7.843628 0
M  V30 35 H 8.296662 6.503798 -7.119595 0
M  V30 36 H 10.210932 8.591678 -9.565248 0
M  V30 37 H 8.623310 8.271002 -10.216391 0
M  V30 38 H 11.253678 6.935494 -10.991266 0
M  V30 39 H 10.319421 8.028101 -11.969926 0
M  V30 40 H 8.491055 6.420969 -12.191088 0
M  V30 41 H 11.186385 5.099279 -12.646945 0
M  V30 42 H 10.486952 6.265829 -13.735002 0
M  V30 43 H 8.570088 1.577471 -13.901395 0
M  V30 44 H 8.431488 -0.588076 -15.098496 0
M  V30 45 H 9.873032 -1.040814 -17.072418 0
M  V30 46 H 11.489070 0.697051 -17.875761 0
M  V30 47 H 12.841707 2.935968 -16.652981 0
M  V30 48 H 11.564722 3.689575 -17.623472 0
M  V30 49 H 11.147390 5.213080 -15.954687 0
M  V30 50 H 13.647506 4.600769 -15.286332 0
M  V30 51 H 12.704418 5.514507 -14.147174 0
M  V30 52 H 12.886440 3.772975 -13.920525 0
M  V30 53 H 8.502343 4.227974 -11.087991 0
M  V30 54 H 10.085784 4.486417 -10.437728 0
M  V30 55 H 8.401275 4.867975 -8.712633 0
M  V30 56 H 7.560312 6.017295 -9.727190 0
M  V30 57 H 9.935203 9.771938 -7.587048 0
M  V30 58 H 10.273707 6.348118 -8.722616 0
M  V30 END ATOM
M  V30 BEGIN BOND
M  V30 1 1 2 1
M  V30 2 1 3 2
M  V30 3 2 4 3
M  V30 4 1 5 4
M  V30 5 1 6 5
M  V30 6 1 7 6
M  V30 7 1 8 7
M  V30 8 1 9 8
M  V30 9 1 10 9
M  V30 10 1 11 10
M  V30 11 1 12 11
M  V30 12 2 13 12
M  V30 13 1 14 12
M  V30 14 1 15 14
M  V30 15 2 16 15
M  V30 16 1 17 16
M  V30 17 2 18 17
M  V30 18 1 19 18
M  V30 19 1 20 15
M  V30 20 2 20 19
M  V30 21 1 21 20
M  V30 22 1 22 14
M  V30 23 1 22 21
M  V30 24 1 23 22
M  V30 25 1 24 10
M  V30 26 1 25 7
M  V30 27 1 25 24
M  V30 28 2 26 5
M  V30 29 2 27 2
M  V30 30 1 27 26
M  V30 31 1 28 27
M  V30 32 1 29 1
M  V30 33 1 30 1
M  V30 34 1 31 1
M  V30 35 1 32 3
M  V30 36 1 33 4
M  V30 37 1 34 6
M  V30 38 1 35 6
M  V30 39 1 36 8
M  V30 40 1 37 8
M  V30 41 1 38 9
M  V30 42 1 39 9
M  V30 43 1 10 40 CFG=3
M  V30 44 1 41 11
M  V30 45 1 42 11
M  V30 46 1 43 16
M  V30 47 1 44 17
M  V30 48 1 45 18
M  V30 49 1 46 19
M  V30 50 1 47 21
M  V30 51 1 48 21
M  V30 52 1 22 49 CFG=3
M  V30 53 1 50 23
M  V30 54 1 51 23
M  V30 55 1 52 23
M  V30 56 1 53 24
M  V30 57 1 54 24
M  V30 58 1 55 25
M  V30 59 1 56 25
M  V30 60 1 57 26
M  V30 61 1 7 58 CFG=1
M  V30 END BOND
M  V30 END CTAB
M  END
>  <b_m_subgroup_collapsed>  (820) 
0

>  <r_i_docking_score>  (820) 
-7.8271260139227001

>  <s_m_subgroup_title>  (820) 
glide-dock_SP_D22_pv

>  <s_m_subgroupid>  (820) 
glide-dock_SP_D22_pv

>  <Molecule ChEMBL ID>  (820) 
CHEMBL104273

>  <Standard Type>  (820) 
Ki

>  <Standard Value>  (820) 
23.0

>  <label>  (820) 
1

$$$$
CHEMBL325772
     RDKit          3D

  0  0  0  0  0  0  0  0  0  0999 V3000
M  V30 BEGIN CTAB
M  V30 COUNTS 52 55 0 0 1
M  V30 BEGIN ATOM
M  V30 1 C 12.098786 4.920954 -14.809967 0
M  V30 2 O 11.579232 4.414031 -13.586731 0
M  V30 3 C 10.206769 4.348080 -13.544974 0
M  V30 4 C 9.459307 5.370851 -12.900678 0
M  V30 5 C 10.137768 6.547178 -12.246851 0
M  V30 6 O 11.180879 7.026165 -12.690853 0
M  V30 7 N 9.569588 6.985388 -11.113916 0
M  V30 8 C 10.102310 8.035388 -10.250489 0 CFG=2
M  V30 9 C 11.563403 7.847095 -9.790688 0
M  V30 10 C 11.502122 7.779486 -8.267548 0
M  V30 11 N 10.249593 8.467066 -7.894450 0 CFG=2 CHG=1
M  V30 12 C 9.742792 8.155161 -6.538917 0
M  V30 13 C 10.802712 8.188334 -5.446778 0
M  V30 14 C 11.188299 9.408456 -4.848501 0
M  V30 15 C 11.994311 9.399490 -3.692287 0
M  V30 16 C 12.438412 8.184997 -3.142017 0
M  V30 17 C 12.086091 6.972015 -3.756308 0
M  V30 18 C 11.285895 6.972685 -4.913652 0
M  V30 19 C 9.280634 8.136383 -8.960268 0
M  V30 20 C 8.049678 5.280511 -12.882457 0
M  V30 21 C 7.381228 4.188411 -13.462854 0
M  V30 22 I 5.286127 4.172439 -13.358041 0
M  V30 23 C 8.121385 3.148450 -14.074234 0
M  V30 24 C 7.476605 2.022290 -14.640431 0
M  V30 25 C 8.227403 0.968446 -15.193731 0
M  V30 26 C 9.630804 1.032677 -15.196227 0
M  V30 27 C 10.282214 2.154988 -14.654404 0
M  V30 28 C 9.540447 3.223956 -14.097546 0
M  V30 29 H 13.165724 5.111398 -14.697950 0
M  V30 30 H 11.971400 4.212745 -15.627166 0
M  V30 31 H 11.621734 5.859581 -15.092910 0
M  V30 32 H 8.691932 6.564819 -10.835143 0
M  V30 33 H 10.026879 8.972234 -10.799740 0
M  V30 34 H 12.151346 8.713686 -10.099024 0
M  V30 35 H 12.057016 6.972297 -10.209511 0
M  V30 36 H 12.378492 8.230308 -7.798744 0
M  V30 37 H 11.443923 6.735359 -7.951860 0
M  V30 38 H 9.281245 7.166037 -6.533417 0
M  V30 39 H 8.943529 8.853241 -6.291635 0
M  V30 40 H 10.811639 10.348443 -5.225460 0
M  V30 41 H 12.244670 10.322241 -3.191776 0
M  V30 42 H 13.037338 8.188133 -2.243883 0
M  V30 43 H 12.416413 6.036084 -3.328332 0
M  V30 44 H 10.987853 6.030100 -5.347919 0
M  V30 45 H 8.798836 7.179785 -8.743322 0
M  V30 46 H 8.489604 8.885806 -9.028881 0
M  V30 47 H 7.455640 6.054641 -12.415950 0
M  V30 48 H 6.402019 1.933995 -14.641552 0
M  V30 49 H 7.725825 0.103637 -15.604988 0
M  V30 50 H 10.209477 0.219943 -15.609700 0
M  V30 51 H 11.361471 2.174740 -14.656846 0
M  V30 52 H 10.434762 9.458227 -7.944800 0
M  V30 END ATOM
M  V30 BEGIN BOND
M  V30 1 1 2 1
M  V30 2 1 3 2
M  V30 3 2 4 3
M  V30 4 1 5 4
M  V30 5 2 6 5
M  V30 6 1 7 5
M  V30 7 1 8 7
M  V30 8 1 9 8
M  V30 9 1 10 9
M  V30 10 1 11 10
M  V30 11 1 12 11
M  V30 12 1 13 12
M  V30 13 2 14 13
M  V30 14 1 15 14
M  V30 15 2 16 15
M  V30 16 1 17 16
M  V30 17 1 18 13
M  V30 18 2 18 17
M  V30 19 1 19 8
M  V30 20 1 19 11
M  V30 21 1 20 4
M  V30 22 2 21 20
M  V30 23 1 22 21
M  V30 24 1 23 21
M  V30 25 2 24 23
M  V30 26 1 25 24
M  V30 27 2 26 25
M  V30 28 1 27 26
M  V30 29 1 28 3
M  V30 30 1 28 23
M  V30 31 2 28 27
M  V30 32 1 29 1
M  V30 33 1 30 1
M  V30 34 1 31 1
M  V30 35 1 32 7
M  V30 36 1 8 33 CFG=3
M  V30 37 1 34 9
M  V30 38 1 35 9
M  V30 39 1 36 10
M  V30 40 1 37 10
M  V30 41 1 38 12
M  V30 42 1 39 12
M  V30 43 1 40 14
M  V30 44 1 41 15
M  V30 45 1 42 16
M  V30 46 1 43 17
M  V30 47 1 44 18
M  V30 48 1 45 19
M  V30 49 1 46 19
M  V30 50 1 47 20
M  V30 51 1 48 24
M  V30 52 1 49 25
M  V30 53 1 50 26
M  V30 54 1 51 27
M  V30 55 1 11 52 CFG=1
M  V30 END BOND
M  V30 END CTAB
M  END
>  <b_m_subgroup_collapsed>  (821) 
0

>  <r_i_docking_score>  (821) 
-7.8259319641909997

>  <s_m_subgroup_title>  (821) 
glide-dock_SP_D22_pv

>  <s_m_subgroupid>  (821) 
glide-dock_SP_D22_pv

>  <Molecule ChEMBL ID>  (821) 
CHEMBL325772

>  <Standard Type>  (821) 
Ki

>  <Standard Value>  (821) 
70.0

>  <label>  (821) 
1

$$$$
CHEMBL5722942
     RDKit          3D

  0  0  0  0  0  0  0  0  0  0999 V3000
M  V30 BEGIN CTAB
M  V30 COUNTS 46 48 0 0 1
M  V30 BEGIN ATOM
M  V30 1 C 11.480700 6.173882 -3.643297 0
M  V30 2 C 11.685623 7.534692 -4.195627 0
M  V30 3 N 12.486080 8.351267 -3.549776 0
M  V30 4 N 12.486175 9.449029 -4.309342 0
M  V30 5 C 11.651307 9.366036 -5.394205 0
M  V30 6 C 11.463752 10.493333 -6.342632 0
M  V30 7 C 11.080462 8.127322 -5.345408 0
M  V30 8 C 10.014574 7.552458 -6.243222 0
M  V30 9 C 10.580365 6.805761 -7.462865 0
M  V30 10 C 9.466930 6.343854 -8.423327 0
M  V30 11 N 8.886051 7.483088 -9.171589 0 CHG=1
M  V30 12 C 9.524838 7.806281 -10.468213 0
M  V30 13 C 9.347560 6.698323 -11.498322 0
M  V30 14 C 10.363604 6.227831 -12.247979 0
M  V30 15 C 10.168842 5.102585 -13.189739 0
M  V30 16 O 11.104622 4.652079 -13.850224 0
M  V30 17 C 8.784058 4.553868 -13.273512 0
M  V30 18 C 8.482410 3.477582 -14.137800 0
M  V30 19 C 7.168824 2.972230 -14.204666 0
M  V30 20 F 6.886273 1.938737 -15.031930 0
M  V30 21 C 6.152580 3.544037 -13.413094 0
M  V30 22 C 6.447468 4.614252 -12.547240 0
M  V30 23 C 7.761415 5.115782 -12.470480 0
M  V30 24 N 8.067653 6.172351 -11.606854 0
M  V30 25 H 11.119113 5.534713 -4.441386 0
M  V30 26 H 12.414389 5.771887 -3.249012 0
M  V30 27 H 10.744048 6.173242 -2.838306 0
M  V30 28 H 13.049688 10.249342 -4.064574 0
M  V30 29 H 11.460770 10.128920 -7.367725 0
M  V30 30 H 10.503949 10.971923 -6.157375 0
M  V30 31 H 12.249223 11.242562 -6.247051 0
M  V30 32 H 9.347051 8.349247 -6.574039 0
M  V30 33 H 9.378829 6.867485 -5.680891 0
M  V30 34 H 11.138869 5.937178 -7.108373 0
M  V30 35 H 11.301131 7.431307 -7.992224 0
M  V30 36 H 8.670912 5.863136 -7.851256 0
M  V30 37 H 9.848132 5.582351 -9.102670 0
M  V30 38 H 8.918731 8.293806 -8.574103 0
M  V30 39 H 10.582170 8.015687 -10.309043 0
M  V30 40 H 9.072630 8.717272 -10.859075 0
M  V30 41 H 11.358196 6.640078 -12.163116 0
M  V30 42 H 9.252191 3.033891 -14.755623 0
M  V30 43 H 5.146019 3.155765 -13.464201 0
M  V30 44 H 5.669372 5.043496 -11.932524 0
M  V30 45 H 7.296054 6.635891 -11.120952 0
M  V30 46 H 7.897130 7.322046 -9.367176 0
M  V30 END ATOM
M  V30 BEGIN BOND
M  V30 1 1 2 1
M  V30 2 2 3 2
M  V30 3 1 4 3
M  V30 4 1 5 4
M  V30 5 1 6 5
M  V30 6 1 7 2
M  V30 7 2 7 5
M  V30 8 1 8 7
M  V30 9 1 9 8
M  V30 10 1 10 9
M  V30 11 1 11 10
M  V30 12 1 12 11
M  V30 13 1 13 12
M  V30 14 2 14 13
M  V30 15 1 15 14
M  V30 16 2 16 15
M  V30 17 1 17 15
M  V30 18 2 18 17
M  V30 19 1 19 18
M  V30 20 1 20 19
M  V30 21 2 21 19
M  V30 22 1 22 21
M  V30 23 1 23 17
M  V30 24 2 23 22
M  V30 25 1 24 13
M  V30 26 1 24 23
M  V30 27 1 25 1
M  V30 28 1 26 1
M  V30 29 1 27 1
M  V30 30 1 28 4
M  V30 31 1 29 6
M  V30 32 1 30 6
M  V30 33 1 31 6
M  V30 34 1 32 8
M  V30 35 1 33 8
M  V30 36 1 34 9
M  V30 37 1 35 9
M  V30 38 1 36 10
M  V30 39 1 37 10
M  V30 40 1 38 11
M  V30 41 1 39 12
M  V30 42 1 40 12
M  V30 43 1 41 14
M  V30 44 1 42 18
M  V30 45 1 43 21
M  V30 46 1 44 22
M  V30 47 1 45 24
M  V30 48 1 46 11
M  V30 END BOND
M  V30 END CTAB
M  END
>  <b_m_subgroup_collapsed>  (822) 
0

>  <r_i_docking_score>  (822) 
-7.82094457096255

>  <s_m_subgroup_title>  (822) 
glide-dock_SP_D22_pv

>  <s_m_subgroupid>  (822) 
glide-dock_SP_D22_pv

>  <Molecule ChEMBL ID>  (822) 
CHEMBL5722942

>  <Standard Type>  (822) 
Ki

>  <Standard Value>  (822) 
10000.0

>  <label>  (822) 
0

$$$$
CHEMBL30713
     RDKit          3D

  0  0  0  0  0  0  0  0  0  0999 V3000
M  V30 BEGIN CTAB
M  V30 COUNTS 28 29 0 0 1
M  V30 BEGIN ATOM
M  V30 1 C 9.274613 5.879364 -9.074029 0
M  V30 2 C 9.526904 7.025561 -8.085159 0 CFG=1
M  V30 3 N 8.486022 7.036859 -7.046865 0 CHG=1
M  V30 4 C 10.923676 6.930518 -7.440662 0
M  V30 5 C 11.196889 8.021220 -6.443425 0
M  V30 6 C 11.223743 9.365309 -6.708605 0
M  V30 7 N 11.519084 10.055983 -5.546957 0
M  V30 8 C 11.731219 9.180028 -4.501827 0
M  V30 9 C 12.085920 9.375343 -3.154662 0
M  V30 10 C 12.247946 8.263827 -2.310583 0
M  V30 11 C 12.050197 6.967965 -2.820368 0
M  V30 12 C 11.686003 6.781652 -4.169657 0
M  V30 13 C 11.521538 7.879322 -5.046842 0
M  V30 14 H 10.017157 5.880108 -9.872566 0
M  V30 15 H 9.318123 4.906065 -8.583517 0
M  V30 16 H 8.292864 5.973226 -9.542025 0
M  V30 17 H 9.448058 7.968317 -8.628833 0
M  V30 18 H 8.514759 6.180761 -6.514794 0
M  V30 19 H 8.634362 7.818153 -6.426408 0
M  V30 20 H 11.678527 6.972335 -8.226432 0
M  V30 21 H 11.046071 5.954409 -6.969842 0
M  V30 22 H 11.065617 9.878625 -7.643889 0
M  V30 23 H 11.608756 11.061455 -5.506471 0
M  V30 24 H 12.230836 10.371441 -2.762889 0
M  V30 25 H 12.519202 8.408051 -1.274879 0
M  V30 26 H 12.169529 6.108882 -2.174992 0
M  V30 27 H 11.539889 5.777897 -4.540847 0
M  V30 28 H 7.551986 7.131543 -7.467429 0
M  V30 END ATOM
M  V30 BEGIN BOND
M  V30 1 1 2 1
M  V30 2 1 3 2
M  V30 3 1 4 2
M  V30 4 1 5 4
M  V30 5 2 6 5
M  V30 6 1 7 6
M  V30 7 1 8 7
M  V30 8 2 9 8
M  V30 9 1 10 9
M  V30 10 2 11 10
M  V30 11 1 12 11
M  V30 12 1 13 5
M  V30 13 1 13 8
M  V30 14 2 13 12
M  V30 15 1 14 1
M  V30 16 1 15 1
M  V30 17 1 16 1
M  V30 18 1 2 17 CFG=3
M  V30 19 1 18 3
M  V30 20 1 19 3
M  V30 21 1 20 4
M  V30 22 1 21 4
M  V30 23 1 22 6
M  V30 24 1 23 7
M  V30 25 1 24 9
M  V30 26 1 25 10
M  V30 27 1 26 11
M  V30 28 1 27 12
M  V30 29 1 28 3
M  V30 END BOND
M  V30 END CTAB
M  END
>  <b_m_subgroup_collapsed>  (823) 
0

>  <r_i_docking_score>  (823) 
-7.8200612916935404

>  <s_m_subgroup_title>  (823) 
glide-dock_SP_D22_pv

>  <s_m_subgroupid>  (823) 
glide-dock_SP_D22_pv

>  <Molecule ChEMBL ID>  (823) 
CHEMBL30713

>  <Standard Type>  (823) 
Ki

>  <Standard Value>  (823) 
10000.0

>  <label>  (823) 
0

$$$$
CHEMBL5410217
     RDKit          3D

  0  0  0  0  0  0  0  0  0  0999 V3000
M  V30 BEGIN CTAB
M  V30 COUNTS 54 58 0 0 1
M  V30 BEGIN ATOM
M  V30 1 C 11.690588 6.749836 -3.355258 0
M  V30 2 O 10.969101 6.552125 -4.566309 0
M  V30 3 C 11.069154 7.509097 -5.544680 0
M  V30 4 C 11.684116 8.768109 -5.328190 0
M  V30 5 C 11.780475 9.695819 -6.378242 0
M  V30 6 C 11.263820 9.372766 -7.645667 0
M  V30 7 C 10.623840 8.161890 -7.894052 0
M  V30 8 C 9.984736 7.580863 -9.019299 0
M  V30 9 C 9.586457 6.343638 -8.615562 0
M  V30 10 O 9.886539 6.104772 -7.296870 0
M  V30 11 C 10.538212 7.236917 -6.829380 0
M  V30 12 C 8.932850 5.316774 -9.482905 0
M  V30 13 N 8.486001 5.958664 -10.759545 0 CFG=2 CHG=1
M  V30 14 C 7.901037 5.032184 -11.765252 0
M  V30 15 C 8.930243 4.138434 -12.499812 0
M  V30 16 C 8.332419 3.462794 -13.743828 0
M  V30 17 C 9.145647 2.231456 -14.188519 0
M  V30 18 O 8.759798 1.748483 -15.467122 0
M  V30 19 C 7.606693 1.001430 -15.599670 0
M  V30 20 C 7.319864 0.526697 -16.894047 0
M  V30 21 C 6.148653 -0.206796 -17.147791 0
M  V30 22 C 5.239935 -0.442938 -16.101658 0
M  V30 23 S 3.686120 -1.259025 -16.159689 0
M  V30 24 C 3.471666 -0.845845 -14.460796 0
M  V30 25 N 4.485491 -0.227536 -13.846488 0
M  V30 26 C 5.496128 0.015750 -14.776336 0
M  V30 27 C 6.706442 0.707201 -14.544718 0
M  V30 28 C 9.472141 6.920592 -11.341869 0
M  V30 29 C 9.729239 8.102421 -10.393284 0
M  V30 30 H 11.626374 5.855012 -2.736110 0
M  V30 31 H 11.286700 7.580716 -2.774635 0
M  V30 32 H 12.748367 6.937479 -3.542058 0
M  V30 33 H 12.096877 9.046182 -4.368588 0
M  V30 34 H 12.253261 10.654227 -6.215678 0
M  V30 35 H 11.286051 10.088718 -8.452497 0
M  V30 36 H 9.649815 4.522665 -9.695989 0
M  V30 37 H 8.086150 4.865384 -8.968363 0
M  V30 38 H 7.142911 4.411329 -11.282565 0
M  V30 39 H 7.366380 5.640520 -12.494731 0
M  V30 40 H 9.796937 4.708392 -12.829347 0
M  V30 41 H 9.319601 3.374697 -11.825013 0
M  V30 42 H 7.297644 3.188236 -13.541951 0
M  V30 43 H 8.291803 4.189577 -14.556664 0
M  V30 44 H 10.197922 2.506667 -14.262833 0
M  V30 45 H 9.100145 1.436086 -13.448055 0
M  V30 46 H 8.010457 0.732457 -17.701275 0
M  V30 47 H 5.931288 -0.571839 -18.142284 0
M  V30 48 H 2.576488 -1.076140 -13.901215 0
M  V30 49 H 6.890265 1.030298 -13.534638 0
M  V30 50 H 10.414944 6.407099 -11.528039 0
M  V30 51 H 9.117715 7.298645 -12.300591 0
M  V30 52 H 8.864345 8.767323 -10.380656 0
M  V30 53 H 10.574143 8.694358 -10.747133 0
M  V30 54 H 7.708054 6.555905 -10.477238 0
M  V30 END ATOM
M  V30 BEGIN BOND
M  V30 1 1 2 1
M  V30 2 1 3 2
M  V30 3 1 4 3
M  V30 4 2 5 4
M  V30 5 1 6 5
M  V30 6 2 7 6
M  V30 7 1 8 7
M  V30 8 2 9 8
M  V30 9 1 10 9
M  V30 10 2 11 3
M  V30 11 1 11 7
M  V30 12 1 11 10
M  V30 13 1 12 9
M  V30 14 1 13 12
M  V30 15 1 14 13
M  V30 16 1 15 14
M  V30 17 1 16 15
M  V30 18 1 17 16
M  V30 19 1 18 17
M  V30 20 1 19 18
M  V30 21 2 20 19
M  V30 22 1 21 20
M  V30 23 2 22 21
M  V30 24 1 23 22
M  V30 25 1 24 23
M  V30 26 2 25 24
M  V30 27 1 26 22
M  V30 28 1 26 25
M  V30 29 1 27 19
M  V30 30 2 27 26
M  V30 31 1 28 13
M  V30 32 1 29 8
M  V30 33 1 29 28
M  V30 34 1 30 1
M  V30 35 1 31 1
M  V30 36 1 32 1
M  V30 37 1 33 4
M  V30 38 1 34 5
M  V30 39 1 35 6
M  V30 40 1 36 12
M  V30 41 1 37 12
M  V30 42 1 38 14
M  V30 43 1 39 14
M  V30 44 1 40 15
M  V30 45 1 41 15
M  V30 46 1 42 16
M  V30 47 1 43 16
M  V30 48 1 44 17
M  V30 49 1 45 17
M  V30 50 1 46 20
M  V30 51 1 47 21
M  V30 52 1 48 24
M  V30 53 1 49 27
M  V30 54 1 50 28
M  V30 55 1 51 28
M  V30 56 1 52 29
M  V30 57 1 53 29
M  V30 58 1 13 54 CFG=1
M  V30 END BOND
M  V30 END CTAB
M  END
>  <b_m_subgroup_collapsed>  (824) 
0

>  <r_i_docking_score>  (824) 
-7.8192046813662097

>  <s_m_subgroup_title>  (824) 
glide-dock_SP_D22_pv

>  <s_m_subgroupid>  (824) 
glide-dock_SP_D22_pv

>  <Molecule ChEMBL ID>  (824) 
CHEMBL5410217

>  <Standard Type>  (824) 
Ki

>  <Standard Value>  (824) 
25852.0

>  <label>  (824) 
0

$$$$
CHEMBL156851
     RDKit          3D

  0  0  0  0  0  0  0  0  0  0999 V3000
M  V30 BEGIN CTAB
M  V30 COUNTS 48 51 0 0 1
M  V30 BEGIN ATOM
M  V30 1 C 9.064366 1.440682 -15.319509 0
M  V30 2 C 8.583671 2.348192 -14.659110 0
M  V30 3 C 7.999217 3.408828 -13.847448 0
M  V30 4 C 6.657707 3.373376 -13.535387 0
M  V30 5 C 6.082956 4.375632 -12.720519 0
M  V30 6 C 6.851168 5.409157 -12.238330 0
M  V30 7 C 8.233685 5.465938 -12.556508 0
M  V30 8 C 9.269107 6.322164 -12.267776 0
M  V30 9 C 9.248716 7.601045 -11.472139 0
M  V30 10 N 9.285913 7.393470 -10.001179 0 CHG=1
M  V30 11 C 10.378879 6.500125 -9.523735 0
M  V30 12 C 10.395936 6.345149 -7.988494 0
M  V30 13 N 10.337378 7.650506 -7.339368 0
M  V30 14 C 10.887243 7.866084 -6.056336 0
M  V30 15 C 11.067919 9.181552 -5.562056 0
M  V30 16 C 11.575576 9.402194 -4.266653 0
M  V30 17 C 11.921401 8.312876 -3.448945 0
M  V30 18 Cl 12.486187 8.572724 -1.845970 0
M  V30 19 C 11.783325 7.003349 -3.934345 0
M  V30 20 C 11.282738 6.788289 -5.230330 0
M  V30 21 C 9.183414 8.437645 -7.750459 0
M  V30 22 C 9.246964 8.681852 -9.263703 0
M  V30 23 C 10.379374 5.770992 -12.971367 0
M  V30 24 C 11.756537 6.355954 -13.070952 0
M  V30 25 N 10.101572 4.649257 -13.596301 0
M  V30 26 N 8.762943 4.441198 -13.368866 0
M  V30 27 H 9.483824 0.642528 -15.889248 0
M  V30 28 H 6.037715 2.561027 -13.902619 0
M  V30 29 H 5.029274 4.327267 -12.464130 0
M  V30 30 H 6.410696 6.172400 -11.603526 0
M  V30 31 H 10.084488 8.238373 -11.761172 0
M  V30 32 H 8.349335 8.166234 -11.721835 0
M  V30 33 H 10.279571 5.511732 -9.971049 0
M  V30 34 H 11.333999 6.911296 -9.852539 0
M  V30 35 H 9.538019 5.754454 -7.662680 0
M  V30 36 H 11.286572 5.792528 -7.698951 0
M  V30 37 H 10.820803 10.040542 -6.167056 0
M  V30 38 H 11.681757 10.408401 -3.891083 0
M  V30 39 H 12.047346 6.161983 -3.310598 0
M  V30 40 H 11.171697 5.772278 -5.560166 0
M  V30 41 H 8.276365 7.886786 -7.495845 0
M  V30 42 H 9.109911 9.372446 -7.214949 0
M  V30 43 H 10.133765 9.270596 -9.505291 0
M  V30 44 H 8.386083 9.272155 -9.578231 0
M  V30 45 H 12.022370 6.938091 -12.188600 0
M  V30 46 H 12.511093 5.577036 -13.187803 0
M  V30 47 H 11.834444 7.017378 -13.934310 0
M  V30 48 H 8.402238 6.949261 -9.775500 0
M  V30 END ATOM
M  V30 BEGIN BOND
M  V30 1 3 2 1
M  V30 2 1 3 2
M  V30 3 2 4 3
M  V30 4 1 5 4
M  V30 5 2 6 5
M  V30 6 1 7 6
M  V30 7 2 8 7
M  V30 8 1 9 8
M  V30 9 1 10 9
M  V30 10 1 11 10
M  V30 11 1 12 11
M  V30 12 1 13 12
M  V30 13 1 14 13
M  V30 14 1 15 14
M  V30 15 2 16 15
M  V30 16 1 17 16
M  V30 17 1 18 17
M  V30 18 2 19 17
M  V30 19 2 20 14
M  V30 20 1 20 19
M  V30 21 1 21 13
M  V30 22 1 22 10
M  V30 23 1 22 21
M  V30 24 1 23 8
M  V30 25 1 24 23
M  V30 26 2 25 23
M  V30 27 1 26 3
M  V30 28 1 26 7
M  V30 29 1 26 25
M  V30 30 1 27 1
M  V30 31 1 28 4
M  V30 32 1 29 5
M  V30 33 1 30 6
M  V30 34 1 31 9
M  V30 35 1 32 9
M  V30 36 1 33 11
M  V30 37 1 34 11
M  V30 38 1 35 12
M  V30 39 1 36 12
M  V30 40 1 37 15
M  V30 41 1 38 16
M  V30 42 1 39 19
M  V30 43 1 40 20
M  V30 44 1 41 21
M  V30 45 1 42 21
M  V30 46 1 43 22
M  V30 47 1 44 22
M  V30 48 1 45 24
M  V30 49 1 46 24
M  V30 50 1 47 24
M  V30 51 1 48 10
M  V30 END BOND
M  V30 END CTAB
M  END
>  <b_m_subgroup_collapsed>  (825) 
0

>  <r_i_docking_score>  (825) 
-7.8185186277374896

>  <s_m_subgroup_title>  (825) 
glide-dock_SP_D22_pv

>  <s_m_subgroupid>  (825) 
glide-dock_SP_D22_pv

>  <Molecule ChEMBL ID>  (825) 
CHEMBL156851

>  <Standard Type>  (825) 
Ki

>  <Standard Value>  (825) 
21000.0

>  <label>  (825) 
0

$$$$
CHEMBL5722985
     RDKit          3D

  0  0  0  0  0  0  0  0  0  0999 V3000
M  V30 BEGIN CTAB
M  V30 COUNTS 47 49 0 0 1
M  V30 BEGIN ATOM
M  V30 1 C 6.843969 1.382913 -15.086684 0
M  V30 2 C 7.107395 2.615232 -14.246774 0
M  V30 3 C 6.084811 3.171965 -13.449224 0
M  V30 4 C 6.337195 4.311886 -12.660449 0
M  V30 5 C 7.616852 4.899081 -12.663376 0
M  V30 6 N 7.883793 6.029799 -11.881471 0
M  V30 7 C 9.139342 6.618549 -11.843885 0
M  V30 8 C 9.283388 7.782731 -10.887887 0
M  V30 9 N 8.886452 7.351798 -9.530412 0 CHG=1
M  V30 10 C 9.349996 8.210923 -8.421185 0
M  V30 11 C 10.869744 8.085764 -8.205040 0
M  V30 12 C 11.412041 8.832376 -6.977405 0
M  V30 13 C 11.003230 8.246019 -5.612037 0 CFG=1
M  V30 14 C 11.211199 6.750121 -5.440119 0
M  V30 15 C 11.426898 6.573571 -3.935870 0
M  V30 16 O 11.689080 7.867519 -3.399936 0
M  V30 17 C 11.821385 8.813608 -4.450689 0
M  V30 18 C 10.169259 6.151753 -12.580140 0
M  V30 19 C 10.006182 4.969271 -13.451115 0
M  V30 20 O 10.946790 4.532530 -14.114912 0
M  V30 21 C 8.651440 4.345274 -13.459056 0
M  V30 22 C 8.389810 3.202368 -14.247764 0
M  V30 23 H 7.713413 0.725662 -15.090075 0
M  V30 24 H 5.997631 0.816335 -14.698520 0
M  V30 25 H 6.623588 1.667223 -16.115311 0
M  V30 26 H 5.100835 2.724843 -13.440485 0
M  V30 27 H 5.549971 4.727540 -12.047503 0
M  V30 28 H 7.121338 6.444041 -11.345568 0
M  V30 29 H 10.312317 8.137629 -10.916986 0
M  V30 30 H 8.649938 8.611419 -11.210691 0
M  V30 31 H 7.862096 7.371996 -9.548234 0
M  V30 32 H 9.061831 9.246655 -8.606415 0
M  V30 33 H 8.817714 7.893890 -7.523750 0
M  V30 34 H 11.154810 7.035130 -8.153316 0
M  V30 35 H 11.395788 8.486627 -9.071084 0
M  V30 36 H 12.496789 8.838040 -7.049363 0
M  V30 37 H 11.116015 9.880436 -7.022107 0
M  V30 38 H 9.950934 8.456990 -5.447997 0
M  V30 39 H 10.362387 6.172538 -5.804204 0
M  V30 40 H 12.085988 6.406620 -5.985554 0
M  V30 41 H 12.250401 5.894132 -3.720359 0
M  V30 42 H 10.533457 6.172341 -3.460789 0
M  V30 43 H 12.878348 8.891882 -4.709499 0
M  V30 44 H 11.477912 9.801069 -4.138143 0
M  V30 45 H 11.144939 6.609425 -12.533979 0
M  V30 46 H 9.172633 2.770149 -14.853539 0
M  V30 47 H 9.181869 6.400318 -9.377719 0
M  V30 END ATOM
M  V30 BEGIN BOND
M  V30 1 1 2 1
M  V30 2 2 3 2
M  V30 3 1 4 3
M  V30 4 2 5 4
M  V30 5 1 6 5
M  V30 6 1 7 6
M  V30 7 1 8 7
M  V30 8 1 9 8
M  V30 9 1 10 9
M  V30 10 1 11 10
M  V30 11 1 12 11
M  V30 12 1 13 12
M  V30 13 1 14 13
M  V30 14 1 15 14
M  V30 15 1 16 15
M  V30 16 1 17 13
M  V30 17 1 17 16
M  V30 18 2 18 7
M  V30 19 1 19 18
M  V30 20 2 20 19
M  V30 21 1 21 5
M  V30 22 1 21 19
M  V30 23 1 22 2
M  V30 24 2 22 21
M  V30 25 1 23 1
M  V30 26 1 24 1
M  V30 27 1 25 1
M  V30 28 1 26 3
M  V30 29 1 27 4
M  V30 30 1 28 6
M  V30 31 1 29 8
M  V30 32 1 30 8
M  V30 33 1 31 9
M  V30 34 1 32 10
M  V30 35 1 33 10
M  V30 36 1 34 11
M  V30 37 1 35 11
M  V30 38 1 36 12
M  V30 39 1 37 12
M  V30 40 1 13 38 CFG=1
M  V30 41 1 39 14
M  V30 42 1 40 14
M  V30 43 1 41 15
M  V30 44 1 42 15
M  V30 45 1 43 17
M  V30 46 1 44 17
M  V30 47 1 45 18
M  V30 48 1 46 22
M  V30 49 1 47 9
M  V30 END BOND
M  V30 END CTAB
M  END
>  <b_m_subgroup_collapsed>  (826) 
0

>  <r_i_docking_score>  (826) 
-7.8177585643458301

>  <s_m_subgroup_title>  (826) 
glide-dock_SP_D22_pv

>  <s_m_subgroupid>  (826) 
glide-dock_SP_D22_pv

>  <Molecule ChEMBL ID>  (826) 
CHEMBL5722985

>  <Standard Type>  (826) 
Ki

>  <Standard Value>  (826) 
10000.0

>  <label>  (826) 
0

$$$$
CHEMBL3358513
     RDKit          3D

  0  0  0  0  0  0  0  0  0  0999 V3000
M  V30 BEGIN CTAB
M  V30 COUNTS 58 61 0 0 1
M  V30 BEGIN ATOM
M  V30 1 O 11.160833 9.532309 -6.937164 0
M  V30 2 C 10.842693 8.557325 -6.257727 0
M  V30 3 N 9.967596 7.623593 -6.655661 0
M  V30 4 C 9.305644 7.589637 -7.952581 0
M  V30 5 C 10.293793 7.199072 -9.070237 0
M  V30 6 C 9.616508 6.896610 -10.414363 0
M  V30 7 C 8.919060 5.529685 -10.410543 0
M  V30 8 N 8.297754 5.231514 -11.723270 0 CHG=1
M  V30 9 C 6.890218 4.798168 -11.571222 0
M  V30 10 C 6.225513 4.571247 -12.921679 0
M  V30 11 N 7.008778 3.617561 -13.695231 0
M  V30 12 C 6.493456 2.333894 -13.969357 0
M  V30 13 C 5.516789 1.721625 -13.143791 0
M  V30 14 N 4.885939 0.569538 -13.447368 0
M  V30 15 C 5.178232 -0.038060 -14.617373 0
M  V30 16 C 4.425560 -1.152752 -15.030660 0
M  V30 17 C 4.676127 -1.780805 -16.263426 0
M  V30 18 C 5.696437 -1.301538 -17.103193 0
M  V30 19 C 6.467218 -0.192129 -16.707483 0
M  V30 20 C 6.198459 0.447503 -15.479695 0
M  V30 21 C 6.885879 1.628433 -15.129738 0
M  V30 22 C 8.419387 3.939312 -13.893695 0
M  V30 23 C 9.104686 4.290532 -12.553349 0
M  V30 24 C 11.374636 8.382451 -4.868635 0
M  V30 25 C 11.589732 9.516624 -4.060974 0
M  V30 26 C 12.086058 9.372269 -2.753843 0
M  V30 27 C 12.387625 8.097862 -2.245191 0
M  V30 28 C 12.183158 6.959678 -3.046515 0
M  V30 29 C 11.685841 7.100163 -4.356864 0
M  V30 30 H 9.730536 6.893948 -5.998953 0
M  V30 31 H 8.841580 8.555322 -8.167045 0
M  V30 32 H 8.490697 6.870585 -7.876429 0
M  V30 33 H 10.883992 6.333576 -8.761726 0
M  V30 34 H 11.004323 8.015571 -9.214058 0
M  V30 35 H 10.373279 6.912514 -11.200121 0
M  V30 36 H 8.897459 7.685095 -10.653203 0
M  V30 37 H 8.155309 5.529197 -9.631488 0
M  V30 38 H 9.621283 4.742361 -10.129088 0
M  V30 39 H 6.333163 5.573694 -11.046880 0
M  V30 40 H 6.879412 3.875893 -10.989825 0
M  V30 41 H 6.186368 5.521735 -13.446761 0
M  V30 42 H 5.187548 4.264135 -12.800566 0
M  V30 43 H 5.203239 2.176242 -12.215573 0
M  V30 44 H 3.622535 -1.517721 -14.408245 0
M  V30 45 H 4.079053 -2.627540 -16.569017 0
M  V30 46 H 5.886903 -1.786950 -18.049658 0
M  V30 47 H 7.242155 0.176484 -17.362665 0
M  V30 48 H 7.623393 2.039511 -15.801424 0
M  V30 49 H 8.959094 3.118665 -14.368773 0
M  V30 50 H 8.481378 4.790003 -14.574531 0
M  V30 51 H 10.087700 4.724357 -12.744365 0
M  V30 52 H 9.282765 3.372903 -11.991671 0
M  V30 53 H 11.353989 10.503382 -4.437613 0
M  V30 54 H 12.229973 10.242026 -2.137326 0
M  V30 55 H 12.774351 7.999643 -1.242380 0
M  V30 56 H 12.414249 5.977407 -2.661049 0
M  V30 57 H 11.546071 6.215285 -4.961032 0
M  V30 58 H 8.247023 6.108217 -12.222131 0
M  V30 END ATOM
M  V30 BEGIN BOND
M  V30 1 2 2 1
M  V30 2 1 3 2
M  V30 3 1 4 3
M  V30 4 1 5 4
M  V30 5 1 6 5
M  V30 6 1 7 6
M  V30 7 1 8 7
M  V30 8 1 9 8
M  V30 9 1 10 9
M  V30 10 1 11 10
M  V30 11 1 12 11
M  V30 12 1 13 12
M  V30 13 2 14 13
M  V30 14 1 15 14
M  V30 15 2 16 15
M  V30 16 1 17 16
M  V30 17 2 18 17
M  V30 18 1 19 18
M  V30 19 1 20 15
M  V30 20 2 20 19
M  V30 21 2 21 12
M  V30 22 1 21 20
M  V30 23 1 22 11
M  V30 24 1 23 8
M  V30 25 1 23 22
M  V30 26 1 24 2
M  V30 27 2 25 24
M  V30 28 1 26 25
M  V30 29 2 27 26
M  V30 30 1 28 27
M  V30 31 1 29 24
M  V30 32 2 29 28
M  V30 33 1 30 3
M  V30 34 1 31 4
M  V30 35 1 32 4
M  V30 36 1 33 5
M  V30 37 1 34 5
M  V30 38 1 35 6
M  V30 39 1 36 6
M  V30 40 1 37 7
M  V30 41 1 38 7
M  V30 42 1 39 9
M  V30 43 1 40 9
M  V30 44 1 41 10
M  V30 45 1 42 10
M  V30 46 1 43 13
M  V30 47 1 44 16
M  V30 48 1 45 17
M  V30 49 1 46 18
M  V30 50 1 47 19
M  V30 51 1 48 21
M  V30 52 1 49 22
M  V30 53 1 50 22
M  V30 54 1 51 23
M  V30 55 1 52 23
M  V30 56 1 53 25
M  V30 57 1 54 26
M  V30 58 1 55 27
M  V30 59 1 56 28
M  V30 60 1 57 29
M  V30 61 1 58 8
M  V30 END BOND
M  V30 END CTAB
M  END
>  <b_m_subgroup_collapsed>  (827) 
0

>  <r_i_docking_score>  (827) 
-7.8172730239960302

>  <s_m_subgroup_title>  (827) 
glide-dock_SP_D22_pv

>  <s_m_subgroupid>  (827) 
glide-dock_SP_D22_pv

>  <Molecule ChEMBL ID>  (827) 
CHEMBL3358513

>  <Standard Type>  (827) 
Ki

>  <Standard Value>  (827) 
1.0

>  <label>  (827) 
1

$$$$
CHEMBL461627
     RDKit          3D

  0  0  0  0  0  0  0  0  0  0999 V3000
M  V30 BEGIN CTAB
M  V30 COUNTS 55 59 0 0 1
M  V30 BEGIN ATOM
M  V30 1 C 12.490067 3.022858 -17.188263 0
M  V30 2 O 11.733807 3.523976 -16.100214 0
M  V30 3 C 10.616079 2.893185 -15.720699 0
M  V30 4 O 10.180393 1.868575 -16.250641 0
M  V30 5 C 9.932183 3.551772 -14.582346 0
M  V30 6 C 8.758753 3.039470 -14.095186 0
M  V30 7 O 8.291445 3.769526 -13.047439 0
M  V30 8 C 9.191328 4.761361 -12.857667 0
M  V30 9 C 10.200372 4.706742 -13.777252 0
M  V30 10 C 11.245796 5.759960 -13.742589 0
M  V30 11 O 12.185315 5.809514 -14.530266 0
M  V30 12 C 11.119771 6.831116 -12.643730 0
M  V30 13 C 9.687515 7.029860 -12.052979 0 CFG=2
M  V30 14 C 9.584037 8.142367 -10.984254 0
M  V30 15 N 9.633395 7.643322 -9.593742 0 CFG=2 CHG=1
M  V30 16 C 9.031067 8.571244 -8.616507 0
M  V30 17 C 8.795744 7.808463 -7.300731 0
M  V30 18 C 10.074544 7.187902 -6.738646 0 CFG=2
M  V30 19 C 10.852147 8.200245 -5.966677 0
M  V30 20 N 10.966139 9.462578 -6.373851 0
M  V30 21 O 11.523758 10.195615 -5.298764 0
M  V30 22 C 11.831152 9.324201 -4.272575 0
M  V30 23 C 12.346131 9.539001 -3.002694 0
M  V30 24 C 12.625080 8.413340 -2.210890 0
M  V30 25 F 13.277851 8.574553 -1.047159 0
M  V30 26 C 12.290509 7.112867 -2.651315 0
M  V30 27 C 11.687708 6.928964 -3.911747 0
M  V30 28 C 11.469311 8.061913 -4.723143 0
M  V30 29 C 10.884327 6.461531 -7.813135 0
M  V30 30 C 10.980105 7.236939 -9.133208 0
M  V30 31 C 8.951078 5.713932 -11.742008 0
M  V30 32 H 13.348842 3.667565 -17.366676 0
M  V30 33 H 12.858923 2.018179 -16.977150 0
M  V30 34 H 11.889707 2.992031 -18.098202 0
M  V30 35 H 8.150075 2.188008 -14.363811 0
M  V30 36 H 11.840333 6.579360 -11.873006 0
M  V30 37 H 11.464333 7.772136 -13.070005 0
M  V30 38 H 9.082487 7.428327 -12.861543 0
M  V30 39 H 10.339740 8.913786 -11.133541 0
M  V30 40 H 8.619468 8.633688 -11.127508 0
M  V30 41 H 9.665753 9.446370 -8.497564 0
M  V30 42 H 8.088563 8.972115 -8.979374 0
M  V30 43 H 8.309045 8.448235 -6.563691 0
M  V30 44 H 8.089295 7.000547 -7.492809 0
M  V30 45 H 9.755047 6.430541 -6.021118 0
M  V30 46 H 12.486817 10.545647 -2.648274 0
M  V30 47 H 12.495329 6.258841 -2.021496 0
M  V30 48 H 11.404380 5.941529 -4.246181 0
M  V30 49 H 11.870831 6.209167 -7.423565 0
M  V30 50 H 10.394975 5.509943 -8.023723 0
M  V30 51 H 11.442353 6.575294 -9.858332 0
M  V30 52 H 11.629234 8.109169 -9.030587 0
M  V30 53 H 7.881812 5.890155 -11.608883 0
M  V30 54 H 9.319942 5.264286 -10.819012 0
M  V30 55 H 9.032399 6.830569 -9.583157 0
M  V30 END ATOM
M  V30 BEGIN BOND
M  V30 1 1 2 1
M  V30 2 1 3 2
M  V30 3 2 4 3
M  V30 4 1 5 3
M  V30 5 2 6 5
M  V30 6 1 7 6
M  V30 7 1 8 7
M  V30 8 1 9 5
M  V30 9 2 9 8
M  V30 10 1 10 9
M  V30 11 2 11 10
M  V30 12 1 12 10
M  V30 13 1 13 12
M  V30 14 1 14 13
M  V30 15 1 15 14
M  V30 16 1 16 15
M  V30 17 1 17 16
M  V30 18 1 18 17
M  V30 19 1 19 18
M  V30 20 2 20 19
M  V30 21 1 21 20
M  V30 22 1 22 21
M  V30 23 1 23 22
M  V30 24 2 24 23
M  V30 25 1 25 24
M  V30 26 1 26 24
M  V30 27 2 27 26
M  V30 28 1 28 19
M  V30 29 2 28 22
M  V30 30 1 28 27
M  V30 31 1 29 18
M  V30 32 1 30 15
M  V30 33 1 30 29
M  V30 34 1 31 8
M  V30 35 1 31 13
M  V30 36 1 32 1
M  V30 37 1 33 1
M  V30 38 1 34 1
M  V30 39 1 35 6
M  V30 40 1 36 12
M  V30 41 1 37 12
M  V30 42 1 13 38 CFG=3
M  V30 43 1 39 14
M  V30 44 1 40 14
M  V30 45 1 41 16
M  V30 46 1 42 16
M  V30 47 1 43 17
M  V30 48 1 44 17
M  V30 49 1 18 45 CFG=1
M  V30 50 1 46 23
M  V30 51 1 47 26
M  V30 52 1 48 27
M  V30 53 1 49 29
M  V30 54 1 50 29
M  V30 55 1 51 30
M  V30 56 1 52 30
M  V30 57 1 53 31
M  V30 58 1 54 31
M  V30 59 1 15 55 CFG=3
M  V30 END BOND
M  V30 END CTAB
M  END
>  <b_m_subgroup_collapsed>  (828) 
0

>  <r_i_docking_score>  (828) 
-7.8168722453423296

>  <s_m_subgroup_title>  (828) 
glide-dock_SP_D22_pv

>  <s_m_subgroupid>  (828) 
glide-dock_SP_D22_pv

>  <Molecule ChEMBL ID>  (828) 
CHEMBL461627

>  <Standard Type>  (828) 
Ki

>  <Standard Value>  (828) 
85.11

>  <label>  (828) 
1

$$$$
CHEMBL3676933
     RDKit          3D

  0  0  0  0  0  0  0  0  0  0999 V3000
M  V30 BEGIN CTAB
M  V30 COUNTS 80 84 0 0 1
M  V30 BEGIN ATOM
M  V30 1 C 13.551859 7.404474 -18.653845 0
M  V30 2 C 13.534010 6.526876 -17.384468 0
M  V30 3 C 13.095921 7.379553 -16.177538 0
M  V30 4 C 14.981830 6.048527 -17.131065 0
M  V30 5 C 12.539433 5.362137 -17.550985 0
M  V30 6 C 12.902916 4.009981 -17.320204 0
M  V30 7 C 11.942603 2.981138 -17.398834 0
M  V30 8 C 10.608212 3.297145 -17.709549 0
M  V30 9 S 9.341541 2.033451 -17.623060 0
M  V30 10 O 8.086221 2.571312 -18.169590 0
M  V30 11 O 9.903786 0.770545 -18.124016 0
M  V30 12 N 9.135419 1.856701 -15.916471 0
M  V30 13 C 8.911150 3.047475 -15.091871 0 CFG=1
M  V30 14 C 7.621655 2.930859 -14.260515 0
M  V30 15 C 7.437721 4.126057 -13.293152 0
M  V30 16 C 8.700897 4.470665 -12.469835 0 CFG=2
M  V30 17 C 8.489161 5.737769 -11.599693 0
M  V30 18 C 9.746835 6.068955 -10.777009 0
M  V30 19 N 9.650969 7.220078 -9.848042 0 CFG=2 CHG=1
M  V30 20 C 11.008279 7.748313 -9.523767 0
M  V30 21 C 10.961009 8.967938 -8.595581 0
M  V30 22 C 10.147972 8.725588 -7.313464 0 CFG=2
M  V30 23 C 10.860978 7.934449 -6.245368 0
M  V30 24 C 11.157441 6.589729 -6.229005 0
M  V30 25 O 11.685996 6.184269 -5.040823 0
M  V30 26 C 11.829080 7.305728 -4.268753 0
M  V30 27 C 12.379272 7.373590 -2.979516 0
M  V30 28 C 12.480359 8.631799 -2.364627 0
M  V30 29 C 12.011876 9.772258 -3.046711 0
M  V30 30 C 11.436710 9.678528 -4.332284 0
M  V30 31 C 11.348090 8.430960 -4.986612 0
M  V30 32 C 8.781442 8.125707 -7.682698 0
M  V30 33 C 8.885242 6.903174 -8.621259 0
M  V30 34 C 9.944540 4.559481 -13.384736 0
M  V30 35 C 10.127084 3.274199 -14.190503 0
M  V30 36 C 10.236830 4.625935 -17.985737 0
M  V30 37 C 11.196707 5.649409 -17.899660 0
M  V30 38 H 13.816838 6.820118 -19.536913 0
M  V30 39 H 12.589145 7.876574 -18.850229 0
M  V30 40 H 14.278881 8.214124 -18.567862 0
M  V30 41 H 13.105143 6.795304 -15.257918 0
M  V30 42 H 13.751552 8.237949 -16.036329 0
M  V30 43 H 12.087089 7.771983 -16.303030 0
M  V30 44 H 15.347257 5.421791 -17.944376 0
M  V30 45 H 15.665687 6.893787 -17.046949 0
M  V30 46 H 15.066658 5.483596 -16.202515 0
M  V30 47 H 13.911383 3.733185 -17.047169 0
M  V30 48 H 12.222918 1.961824 -17.177292 0
M  V30 49 H 9.855368 1.253932 -15.521579 0
M  V30 50 H 8.827351 3.915672 -15.743655 0
M  V30 51 H 6.756995 2.864458 -14.921843 0
M  V30 52 H 7.637977 1.996055 -13.704248 0
M  V30 53 H 7.142149 5.006192 -13.856063 0
M  V30 54 H 6.605996 3.918839 -12.618979 0
M  V30 55 H 8.885021 3.640386 -11.793417 0
M  V30 56 H 8.228765 6.588830 -12.231944 0
M  V30 57 H 7.633918 5.579460 -10.942122 0
M  V30 58 H 10.086589 5.183610 -10.237326 0
M  V30 59 H 10.503540 6.338297 -11.500587 0
M  V30 60 H 11.609641 6.968308 -9.060669 0
M  V30 61 H 11.523803 8.032704 -10.442229 0
M  V30 62 H 11.969316 9.308575 -8.355113 0
M  V30 63 H 10.492790 9.772446 -9.160892 0
M  V30 64 H 9.963939 9.716229 -6.896380 0
M  V30 65 H 11.026208 5.781109 -6.930518 0
M  V30 66 H 12.725988 6.478644 -2.482867 0
M  V30 67 H 12.907292 8.730841 -1.376717 0
M  V30 68 H 12.086352 10.740597 -2.572958 0
M  V30 69 H 11.077945 10.572021 -4.823061 0
M  V30 70 H 8.215760 7.869568 -6.785304 0
M  V30 71 H 8.194941 8.899508 -8.184560 0
M  V30 72 H 7.899888 6.564556 -8.918327 0
M  V30 73 H 9.316719 6.045928 -8.114096 0
M  V30 74 H 9.866876 5.416155 -14.056063 0
M  V30 75 H 10.857515 4.688437 -12.805807 0
M  V30 76 H 10.263935 2.430361 -13.512756 0
M  V30 77 H 11.038318 3.348544 -14.784102 0
M  V30 78 H 9.210896 4.873124 -18.214632 0
M  V30 79 H 10.880401 6.667298 -18.073002 0
M  V30 80 H 9.132158 7.948581 -10.325147 0
M  V30 END ATOM
M  V30 BEGIN BOND
M  V30 1 1 2 1
M  V30 2 1 3 2
M  V30 3 1 4 2
M  V30 4 1 5 2
M  V30 5 1 6 5
M  V30 6 2 7 6
M  V30 7 1 8 7
M  V30 8 1 9 8
M  V30 9 2 10 9
M  V30 10 2 11 9
M  V30 11 1 12 9
M  V30 12 1 13 12
M  V30 13 1 14 13
M  V30 14 1 15 14
M  V30 15 1 16 15
M  V30 16 1 17 16
M  V30 17 1 18 17
M  V30 18 1 19 18
M  V30 19 1 20 19
M  V30 20 1 21 20
M  V30 21 1 22 21
M  V30 22 1 23 22
M  V30 23 2 24 23
M  V30 24 1 25 24
M  V30 25 1 26 25
M  V30 26 2 27 26
M  V30 27 1 28 27
M  V30 28 2 29 28
M  V30 29 1 30 29
M  V30 30 1 31 23
M  V30 31 1 31 26
M  V30 32 2 31 30
M  V30 33 1 32 22
M  V30 34 1 33 19
M  V30 35 1 33 32
M  V30 36 1 34 16
M  V30 37 1 35 13
M  V30 38 1 35 34
M  V30 39 2 36 8
M  V30 40 2 37 5
M  V30 41 1 37 36
M  V30 42 1 38 1
M  V30 43 1 39 1
M  V30 44 1 40 1
M  V30 45 1 41 3
M  V30 46 1 42 3
M  V30 47 1 43 3
M  V30 48 1 44 4
M  V30 49 1 45 4
M  V30 50 1 46 4
M  V30 51 1 47 6
M  V30 52 1 48 7
M  V30 53 1 49 12
M  V30 54 1 13 50 CFG=3
M  V30 55 1 51 14
M  V30 56 1 52 14
M  V30 57 1 53 15
M  V30 58 1 54 15
M  V30 59 1 16 55 CFG=1
M  V30 60 1 56 17
M  V30 61 1 57 17
M  V30 62 1 58 18
M  V30 63 1 59 18
M  V30 64 1 60 20
M  V30 65 1 61 20
M  V30 66 1 62 21
M  V30 67 1 63 21
M  V30 68 1 22 64 CFG=1
M  V30 69 1 65 24
M  V30 70 1 66 27
M  V30 71 1 67 28
M  V30 72 1 68 29
M  V30 73 1 69 30
M  V30 74 1 70 32
M  V30 75 1 71 32
M  V30 76 1 72 33
M  V30 77 1 73 33
M  V30 78 1 74 34
M  V30 79 1 75 34
M  V30 80 1 76 35
M  V30 81 1 77 35
M  V30 82 1 78 36
M  V30 83 1 79 37
M  V30 84 1 19 80 CFG=3
M  V30 END BOND
M  V30 END CTAB
M  END
>  <b_m_subgroup_collapsed>  (829) 
0

>  <r_i_docking_score>  (829) 
-7.8167813208073396

>  <s_m_subgroup_title>  (829) 
glide-dock_SP_D22_pv

>  <s_m_subgroupid>  (829) 
glide-dock_SP_D22_pv

>  <Molecule ChEMBL ID>  (829) 
CHEMBL3676933

>  <Standard Type>  (829) 
Ki

>  <Standard Value>  (829) 
70.03

>  <label>  (829) 
1

$$$$
CHEMBL80318
     RDKit          3D

  0  0  0  0  0  0  0  0  0  0999 V3000
M  V30 BEGIN CTAB
M  V30 COUNTS 52 55 0 0 1
M  V30 BEGIN ATOM
M  V30 1 C 9.260939 6.570582 -6.589083 0
M  V30 2 C 10.317779 7.508628 -7.092573 0
M  V30 3 C 11.285518 8.235651 -6.328830 0
M  V30 4 C 11.568377 8.200936 -4.894282 0
M  V30 5 C 11.686710 6.975341 -4.205621 0
M  V30 6 C 12.001335 6.956041 -2.832201 0
M  V30 7 C 12.205518 8.164434 -2.140835 0
M  V30 8 C 12.082359 9.386254 -2.820299 0
M  V30 9 C 11.762082 9.405324 -4.188771 0
M  V30 10 N 12.031960 9.028428 -7.086405 0
M  V30 11 N 11.595088 8.821737 -8.337907 0
M  V30 12 C 10.582310 7.895686 -8.378097 0
M  V30 13 C 9.875625 7.450844 -9.544314 0
M  V30 14 C 9.687807 8.315465 -10.558698 0
M  V30 15 C 9.016306 7.965109 -11.871261 0
M  V30 16 N 8.295163 6.671170 -11.781784 0 CFG=1 CHG=1
M  V30 17 C 7.621554 6.305840 -13.045863 0
M  V30 18 C 6.639025 5.116180 -12.915139 0
M  V30 19 C 7.102848 3.772808 -13.479762 0
M  V30 20 C 6.134059 2.764278 -13.673872 0
M  V30 21 C 6.489274 1.525989 -14.245917 0
M  V30 22 C 7.820360 1.281595 -14.632931 0
M  V30 23 C 8.798868 2.271373 -14.425618 0
M  V30 24 C 8.445312 3.507543 -13.848858 0
M  V30 25 C 9.126553 5.615399 -11.160112 0
M  V30 26 C 9.430180 5.999707 -9.704122 0
M  V30 27 H 9.289311 6.463521 -5.505422 0
M  V30 28 H 8.260017 6.918785 -6.847493 0
M  V30 29 H 9.377102 5.580613 -7.025911 0
M  V30 30 H 11.539209 6.043175 -4.732289 0
M  V30 31 H 12.084820 6.013151 -2.311214 0
M  V30 32 H 12.442356 8.168094 -1.087400 0
M  V30 33 H 12.211853 10.313749 -2.285557 0
M  V30 34 H 11.667591 10.349640 -4.702146 0
M  V30 35 H 12.012938 9.286643 -9.132970 0
M  V30 36 H 10.027466 9.334346 -10.462924 0
M  V30 37 H 8.314273 8.760880 -12.128427 0
M  V30 38 H 9.781962 7.930373 -12.646398 0
M  V30 39 H 7.040495 7.188192 -13.318318 0
M  V30 40 H 8.334926 6.172944 -13.857353 0
M  V30 41 H 6.326370 4.979922 -11.878493 0
M  V30 42 H 5.724166 5.374054 -13.449633 0
M  V30 43 H 5.104886 2.941469 -13.395837 0
M  V30 44 H 5.737630 0.765320 -14.394965 0
M  V30 45 H 8.091010 0.332106 -15.072935 0
M  V30 46 H 9.824393 2.080393 -14.707667 0
M  V30 47 H 9.229344 4.234725 -13.706849 0
M  V30 48 H 10.047427 5.492877 -11.731791 0
M  V30 49 H 8.619022 4.650815 -11.162785 0
M  V30 50 H 10.205709 5.336051 -9.319102 0
M  V30 51 H 8.534325 5.843670 -9.101471 0
M  V30 52 H 7.539263 6.869759 -11.120616 0
M  V30 END ATOM
M  V30 BEGIN BOND
M  V30 1 1 2 1
M  V30 2 1 3 2
M  V30 3 1 4 3
M  V30 4 2 5 4
M  V30 5 1 6 5
M  V30 6 2 7 6
M  V30 7 1 8 7
M  V30 8 1 9 4
M  V30 9 2 9 8
M  V30 10 2 10 3
M  V30 11 1 11 10
M  V30 12 2 12 2
M  V30 13 1 12 11
M  V30 14 1 13 12
M  V30 15 2 14 13
M  V30 16 1 15 14
M  V30 17 1 16 15
M  V30 18 1 17 16
M  V30 19 1 18 17
M  V30 20 1 19 18
M  V30 21 2 20 19
M  V30 22 1 21 20
M  V30 23 2 22 21
M  V30 24 1 23 22
M  V30 25 1 24 19
M  V30 26 2 24 23
M  V30 27 1 25 16
M  V30 28 1 26 13
M  V30 29 1 26 25
M  V30 30 1 27 1
M  V30 31 1 28 1
M  V30 32 1 29 1
M  V30 33 1 30 5
M  V30 34 1 31 6
M  V30 35 1 32 7
M  V30 36 1 33 8
M  V30 37 1 34 9
M  V30 38 1 35 11
M  V30 39 1 36 14
M  V30 40 1 37 15
M  V30 41 1 38 15
M  V30 42 1 39 17
M  V30 43 1 40 17
M  V30 44 1 41 18
M  V30 45 1 42 18
M  V30 46 1 43 20
M  V30 47 1 44 21
M  V30 48 1 45 22
M  V30 49 1 46 23
M  V30 50 1 47 24
M  V30 51 1 48 25
M  V30 52 1 49 25
M  V30 53 1 50 26
M  V30 54 1 51 26
M  V30 55 1 16 52 CFG=1
M  V30 END BOND
M  V30 END CTAB
M  END
>  <b_m_subgroup_collapsed>  (830) 
0

>  <r_i_docking_score>  (830) 
-7.8153080860288

>  <s_m_subgroup_title>  (830) 
glide-dock_SP_D22_pv

>  <s_m_subgroupid>  (830) 
glide-dock_SP_D22_pv

>  <Molecule ChEMBL ID>  (830) 
CHEMBL80318

>  <Standard Type>  (830) 
Ki

>  <Standard Value>  (830) 
90.0

>  <label>  (830) 
1

$$$$
CHEMBL5966386
     RDKit          3D

  0  0  0  0  0  0  0  0  0  0999 V3000
M  V30 BEGIN CTAB
M  V30 COUNTS 60 63 0 0 1
M  V30 BEGIN ATOM
M  V30 1 C 11.800381 6.546055 -14.926437 0
M  V30 2 C 11.701912 5.477817 -13.824704 0
M  V30 3 N 10.351927 5.371732 -13.233845 0
M  V30 4 C 10.041939 6.472120 -12.288366 0
M  V30 5 C 9.778980 6.061724 -10.819369 0
M  V30 6 N 9.767191 7.227905 -9.896900 0 CFG=1 CHG=1
M  V30 7 C 9.012066 6.934976 -8.659081 0
M  V30 8 C 8.884018 8.189087 -7.767056 0
M  V30 9 C 10.255731 8.771470 -7.388722 0 CFG=1
M  V30 10 C 10.922716 7.977241 -6.285712 0
M  V30 11 N 11.162068 6.673678 -6.419219 0
M  V30 12 O 11.685638 6.200032 -5.187795 0
M  V30 13 C 11.822129 7.253602 -4.306429 0
M  V30 14 C 12.329520 7.309255 -3.003824 0
M  V30 15 C 12.407993 8.575891 -2.395083 0
M  V30 16 F 12.917211 8.690563 -1.149865 0
M  V30 17 C 11.966921 9.729803 -3.085607 0
M  V30 18 C 11.422032 9.641858 -4.387544 0
M  V30 19 C 11.366835 8.375690 -5.006347 0
M  V30 20 C 11.105234 8.962209 -8.660715 0
M  V30 21 C 11.133258 7.724188 -9.570548 0
M  V30 22 C 9.473932 4.356029 -13.482968 0
M  V30 23 O 8.472076 4.210911 -12.784218 0
M  V30 24 C 9.656933 3.371249 -14.684731 0 CFG=1
M  V30 25 O 9.904001 4.094242 -15.877778 0
M  V30 26 C 10.759815 2.301889 -14.451208 0
M  V30 27 C 10.079339 0.936515 -14.594217 0
M  V30 28 N 8.667411 1.203076 -14.301874 0 CHG=1
M  V30 29 C 8.387637 2.504418 -14.930133 0
M  V30 30 H 12.780801 6.508072 -15.402759 0
M  V30 31 H 11.053037 6.409279 -15.707674 0
M  V30 32 H 11.687470 7.550987 -14.520307 0
M  V30 33 H 12.427181 5.711743 -13.047059 0
M  V30 34 H 12.046430 4.529912 -14.227872 0
M  V30 35 H 10.835817 7.215639 -12.332521 0
M  V30 36 H 9.154025 6.994631 -12.643476 0
M  V30 37 H 8.803255 5.579999 -10.768725 0
M  V30 38 H 10.485449 5.324824 -10.451509 0
M  V30 39 H 8.041263 6.570796 -8.945683 0
M  V30 40 H 9.464981 6.096665 -8.133404 0
M  V30 41 H 8.297179 7.967882 -6.873669 0
M  V30 42 H 8.322177 8.948248 -8.313188 0
M  V30 43 H 10.082303 9.770159 -6.989353 0
M  V30 44 H 12.671319 6.417687 -2.499004 0
M  V30 45 H 12.057784 10.695167 -2.612355 0
M  V30 46 H 11.087635 10.530153 -4.903798 0
M  V30 47 H 12.117624 9.267968 -8.397987 0
M  V30 48 H 10.682502 9.775374 -9.247787 0
M  V30 49 H 11.685527 6.936954 -9.070153 0
M  V30 50 H 11.690948 7.967205 -10.474106 0
M  V30 51 H 10.061458 3.492210 -16.588171 0
M  V30 52 H 11.599227 2.392530 -15.142238 0
M  V30 53 H 11.170691 2.378520 -13.446727 0
M  V30 54 H 10.165656 0.577302 -15.621037 0
M  V30 55 H 10.500546 0.172730 -13.940193 0
M  V30 56 H 8.060329 0.470783 -14.641754 0
M  V30 57 H 7.450835 2.934752 -14.574268 0
M  V30 58 H 8.244460 2.321606 -15.995934 0
M  V30 59 H 8.575443 1.300178 -13.299811 0
M  V30 60 H 9.246037 7.961946 -10.358072 0
M  V30 END ATOM
M  V30 BEGIN BOND
M  V30 1 1 2 1
M  V30 2 1 3 2
M  V30 3 1 4 3
M  V30 4 1 5 4
M  V30 5 1 6 5
M  V30 6 1 7 6
M  V30 7 1 8 7
M  V30 8 1 9 8
M  V30 9 1 10 9
M  V30 10 2 11 10
M  V30 11 1 12 11
M  V30 12 1 13 12
M  V30 13 1 14 13
M  V30 14 2 15 14
M  V30 15 1 16 15
M  V30 16 1 17 15
M  V30 17 2 18 17
M  V30 18 1 19 10
M  V30 19 2 19 13
M  V30 20 1 19 18
M  V30 21 1 20 9
M  V30 22 1 21 6
M  V30 23 1 21 20
M  V30 24 1 22 3
M  V30 25 2 23 22
M  V30 26 1 24 22
M  V30 27 1 24 25 CFG=3
M  V30 28 1 26 24
M  V30 29 1 27 26
M  V30 30 1 28 27
M  V30 31 1 29 24
M  V30 32 1 29 28
M  V30 33 1 30 1
M  V30 34 1 31 1
M  V30 35 1 32 1
M  V30 36 1 33 2
M  V30 37 1 34 2
M  V30 38 1 35 4
M  V30 39 1 36 4
M  V30 40 1 37 5
M  V30 41 1 38 5
M  V30 42 1 39 7
M  V30 43 1 40 7
M  V30 44 1 41 8
M  V30 45 1 42 8
M  V30 46 1 9 43 CFG=1
M  V30 47 1 44 14
M  V30 48 1 45 17
M  V30 49 1 46 18
M  V30 50 1 47 20
M  V30 51 1 48 20
M  V30 52 1 49 21
M  V30 53 1 50 21
M  V30 54 1 51 25
M  V30 55 1 52 26
M  V30 56 1 53 26
M  V30 57 1 54 27
M  V30 58 1 55 27
M  V30 59 1 56 28
M  V30 60 1 57 29
M  V30 61 1 58 29
M  V30 62 1 59 28
M  V30 63 1 6 60 CFG=3
M  V30 END BOND
M  V30 END CTAB
M  END
>  <b_m_subgroup_collapsed>  (831) 
0

>  <r_i_docking_score>  (831) 
-7.8144283623700899

>  <s_m_subgroup_title>  (831) 
glide-dock_SP_D22_pv

>  <s_m_subgroupid>  (831) 
glide-dock_SP_D22_pv

>  <Molecule ChEMBL ID>  (831) 
CHEMBL5966386

>  <Standard Type>  (831) 
Ki

>  <Standard Value>  (831) 
52.0

>  <label>  (831) 
1

$$$$
CHEMBL2397392
     RDKit          3D

  0  0  0  0  0  0  0  0  0  0999 V3000
M  V30 BEGIN CTAB
M  V30 COUNTS 59 61 0 0 1
M  V30 BEGIN ATOM
M  V30 1 C 4.090797 -0.359378 -14.052375 0
M  V30 2 C 4.857063 0.570534 -13.852617 0
M  V30 3 C 5.696668 1.711538 -13.668756 0
M  V30 4 C 6.916848 1.768601 -14.233308 0
M  V30 5 C 7.900305 2.904966 -14.000048 0
M  V30 6 C 7.289861 4.127960 -13.264824 0 CFG=2
M  V30 7 N 8.350473 5.033772 -12.723146 0 CFG=1 CHG=1
M  V30 8 C 7.936477 6.467598 -12.661121 0
M  V30 9 C 9.020940 7.411541 -12.104591 0
M  V30 10 C 8.594021 8.875626 -12.094141 0
M  V30 11 C 9.096365 4.530401 -11.528496 0
M  V30 12 C 8.420261 4.819280 -10.162263 0
M  V30 13 C 9.422870 5.108417 -9.042806 0
M  V30 14 C 8.756193 5.966344 -7.952502 0
M  V30 15 N 9.692949 6.572368 -7.016270 0
M  V30 16 C 10.565614 7.528872 -7.352227 0
M  V30 17 O 10.838675 7.836014 -8.512723 0
M  V30 18 C 11.053099 8.341304 -6.222597 0
M  V30 19 C 11.290877 9.722688 -6.224160 0
M  V30 20 N 11.685594 10.172384 -5.063336 0
M  V30 21 N 11.788147 9.074906 -4.275138 0
M  V30 22 C 12.199493 9.095579 -2.980741 0
M  V30 23 C 12.277818 7.909982 -2.297297 0
M  V30 24 C 11.935711 6.698347 -2.939543 0
M  V30 25 C 11.510870 6.688482 -4.251905 0
M  V30 26 C 11.416243 7.909223 -4.969683 0
M  V30 27 C 6.203474 3.752135 -12.232247 0
M  V30 28 C 5.130808 2.839981 -12.824894 0
M  V30 29 H 3.415057 -1.162034 -14.255890 0
M  V30 30 H 7.278383 0.941617 -14.831097 0
M  V30 31 H 8.737012 2.479278 -13.448219 0
M  V30 32 H 8.304057 3.216155 -14.964341 0
M  V30 33 H 6.767086 4.683113 -14.043351 0
M  V30 34 H 7.688036 6.800733 -13.662358 0
M  V30 35 H 7.017519 6.572493 -12.084862 0
M  V30 36 H 9.244480 7.164890 -11.066925 0
M  V30 37 H 9.960197 7.304977 -12.646186 0
M  V30 38 H 9.170152 9.372313 -11.322011 0
M  V30 39 H 8.777852 9.372120 -13.046979 0
M  V30 40 H 7.540010 8.997114 -11.846890 0
M  V30 41 H 9.333717 3.475179 -11.622262 0
M  V30 42 H 10.075849 5.010744 -11.562781 0
M  V30 43 H 7.743952 5.668565 -10.243938 0
M  V30 44 H 7.771029 4.013817 -9.833745 0
M  V30 45 H 9.812915 4.170895 -8.646959 0
M  V30 46 H 10.279286 5.634000 -9.458464 0
M  V30 47 H 8.203382 6.787403 -8.409347 0
M  V30 48 H 8.018267 5.377357 -7.409139 0
M  V30 49 H 9.504815 6.427002 -6.035313 0
M  V30 50 H 11.160974 10.408808 -7.046326 0
M  V30 51 H 12.456146 10.058483 -2.553205 0
M  V30 52 H 12.608558 7.912498 -1.265593 0
M  V30 53 H 11.997523 5.770245 -2.383572 0
M  V30 54 H 11.240233 5.770746 -4.749257 0
M  V30 55 H 6.614523 3.234968 -11.376966 0
M  V30 56 H 5.724151 4.646597 -11.834077 0
M  V30 57 H 4.485600 3.452182 -13.446776 0
M  V30 58 H 4.514769 2.416879 -12.032370 0
M  V30 59 H 9.050217 5.029811 -13.452477 0
M  V30 END ATOM
M  V30 BEGIN BOND
M  V30 1 3 2 1
M  V30 2 1 3 2
M  V30 3 2 4 3
M  V30 4 1 5 4
M  V30 5 1 6 5
M  V30 6 1 7 6
M  V30 7 1 8 7
M  V30 8 1 9 8
M  V30 9 1 10 9
M  V30 10 1 11 7
M  V30 11 1 12 11
M  V30 12 1 13 12
M  V30 13 1 14 13
M  V30 14 1 15 14
M  V30 15 1 16 15
M  V30 16 2 17 16
M  V30 17 1 18 16
M  V30 18 1 19 18
M  V30 19 2 20 19
M  V30 20 1 21 20
M  V30 21 1 22 21
M  V30 22 2 23 22
M  V30 23 1 24 23
M  V30 24 2 25 24
M  V30 25 2 26 18
M  V30 26 1 26 21
M  V30 27 1 26 25
M  V30 28 1 27 6
M  V30 29 1 28 3
M  V30 30 1 28 27
M  V30 31 1 29 1
M  V30 32 1 30 4
M  V30 33 1 31 5
M  V30 34 1 32 5
M  V30 35 1 6 33 CFG=3
M  V30 36 1 34 8
M  V30 37 1 35 8
M  V30 38 1 36 9
M  V30 39 1 37 9
M  V30 40 1 38 10
M  V30 41 1 39 10
M  V30 42 1 40 10
M  V30 43 1 41 11
M  V30 44 1 42 11
M  V30 45 1 43 12
M  V30 46 1 44 12
M  V30 47 1 45 13
M  V30 48 1 46 13
M  V30 49 1 47 14
M  V30 50 1 48 14
M  V30 51 1 49 15
M  V30 52 1 50 19
M  V30 53 1 51 22
M  V30 54 1 52 23
M  V30 55 1 53 24
M  V30 56 1 54 25
M  V30 57 1 55 27
M  V30 58 1 56 27
M  V30 59 1 57 28
M  V30 60 1 58 28
M  V30 61 1 7 59 CFG=3
M  V30 END BOND
M  V30 END CTAB
M  END
>  <b_m_subgroup_collapsed>  (832) 
0

>  <r_i_docking_score>  (832) 
-7.8131832511489598

>  <s_m_subgroup_title>  (832) 
glide-dock_SP_D22_pv

>  <s_m_subgroupid>  (832) 
glide-dock_SP_D22_pv

>  <Molecule ChEMBL ID>  (832) 
CHEMBL2397392

>  <Standard Type>  (832) 
Ki

>  <Standard Value>  (832) 
0.55

>  <label>  (832) 
1

$$$$
CHEMBL543344
     RDKit          3D

  0  0  0  0  0  0  0  0  0  0999 V3000
M  V30 BEGIN CTAB
M  V30 COUNTS 48 51 0 0 1
M  V30 BEGIN ATOM
M  V30 1 O 12.169759 7.372371 -10.588566 0
M  V30 2 C 10.974415 7.598839 -10.725446 0
M  V30 3 C 10.231395 7.545018 -12.029211 0 CFG=1
M  V30 4 C 10.186080 6.154512 -12.651446 0
M  V30 5 C 11.278641 5.757308 -13.456237 0
M  V30 6 C 11.281957 4.502409 -14.093860 0
M  V30 7 C 10.185626 3.635028 -13.942309 0
M  V30 8 F 10.180395 2.434657 -14.568170 0
M  V30 9 C 9.093738 4.022088 -13.142954 0
M  V30 10 C 9.096166 5.268143 -12.487214 0
M  V30 11 C 8.911318 8.251008 -11.668629 0
M  V30 12 O 9.185088 8.972313 -10.460585 0
M  V30 13 C 10.096329 8.221926 -9.670358 0 CFG=1
M  V30 14 C 9.285375 7.174530 -8.885550 0
M  V30 15 C 10.096611 6.432380 -7.829134 0
M  V30 16 N 10.723551 7.404384 -6.904463 0 CFG=1 CHG=1
M  V30 17 C 11.285404 6.723915 -5.717278 0
M  V30 18 C 11.633215 7.606364 -4.531114 0
M  V30 19 C 12.176368 6.972858 -3.396017 0
M  V30 20 C 12.485868 7.717284 -2.247129 0
M  V30 21 C 12.252755 9.100487 -2.223413 0
M  V30 22 C 11.686062 9.737333 -3.340259 0
M  V30 23 C 11.364047 8.995479 -4.488509 0
M  V30 24 C 11.666676 8.287756 -7.643359 0
M  V30 25 C 10.885782 9.110937 -8.688816 0
M  V30 26 H 10.772165 8.171942 -12.731425 0
M  V30 27 H 12.123819 6.418016 -13.588775 0
M  V30 28 H 12.122134 4.208897 -14.705887 0
M  V30 29 H 8.246752 3.363006 -13.035558 0
M  V30 30 H 8.243674 5.520058 -11.875780 0
M  V30 31 H 8.097700 7.560575 -11.464680 0
M  V30 32 H 8.575804 8.924841 -12.457408 0
M  V30 33 H 8.805155 6.453125 -9.547644 0
M  V30 34 H 8.476839 7.694722 -8.377262 0
M  V30 35 H 10.856248 5.799754 -8.291248 0
M  V30 36 H 9.423032 5.772412 -7.280601 0
M  V30 37 H 12.138726 6.110808 -6.004781 0
M  V30 38 H 10.529827 6.041718 -5.332464 0
M  V30 39 H 12.349537 5.906268 -3.397790 0
M  V30 40 H 12.885782 7.220417 -1.379430 0
M  V30 41 H 12.485895 9.675366 -1.338552 0
M  V30 42 H 11.476539 10.793032 -3.298918 0
M  V30 43 H 10.891766 9.515587 -5.307402 0
M  V30 44 H 12.196164 8.970147 -6.981376 0
M  V30 45 H 12.446666 7.684266 -8.106964 0
M  V30 46 H 11.562318 9.769424 -9.236828 0
M  V30 47 H 10.192566 9.766601 -8.162338 0
M  V30 48 H 9.972708 7.985559 -6.558178 0
M  V30 END ATOM
M  V30 BEGIN BOND
M  V30 1 2 2 1
M  V30 2 1 3 2
M  V30 3 1 4 3
M  V30 4 1 5 4
M  V30 5 2 6 5
M  V30 6 1 7 6
M  V30 7 1 8 7
M  V30 8 2 9 7
M  V30 9 2 10 4
M  V30 10 1 10 9
M  V30 11 1 11 3
M  V30 12 1 12 11
M  V30 13 1 13 2
M  V30 14 1 13 12 CFG=3
M  V30 15 1 14 13
M  V30 16 1 15 14
M  V30 17 1 16 15
M  V30 18 1 17 16
M  V30 19 1 18 17
M  V30 20 2 19 18
M  V30 21 1 20 19
M  V30 22 2 21 20
M  V30 23 1 22 21
M  V30 24 1 23 18
M  V30 25 2 23 22
M  V30 26 1 24 16
M  V30 27 1 25 13
M  V30 28 1 25 24
M  V30 29 1 3 26 CFG=3
M  V30 30 1 27 5
M  V30 31 1 28 6
M  V30 32 1 29 9
M  V30 33 1 30 10
M  V30 34 1 31 11
M  V30 35 1 32 11
M  V30 36 1 33 14
M  V30 37 1 34 14
M  V30 38 1 35 15
M  V30 39 1 36 15
M  V30 40 1 37 17
M  V30 41 1 38 17
M  V30 42 1 39 19
M  V30 43 1 40 20
M  V30 44 1 41 21
M  V30 45 1 42 22
M  V30 46 1 43 23
M  V30 47 1 44 24
M  V30 48 1 45 24
M  V30 49 1 46 25
M  V30 50 1 47 25
M  V30 51 1 16 48 CFG=1
M  V30 END BOND
M  V30 END CTAB
M  END
>  <b_m_subgroup_collapsed>  (833) 
0

>  <r_i_docking_score>  (833) 
-7.80990990753972

>  <s_m_subgroup_title>  (833) 
glide-dock_SP_D22_pv

>  <s_m_subgroupid>  (833) 
glide-dock_SP_D22_pv

>  <Molecule ChEMBL ID>  (833) 
CHEMBL543344

>  <Standard Type>  (833) 
Ki

>  <Standard Value>  (833) 
47.0

>  <label>  (833) 
1

$$$$
CHEMBL1081868
     RDKit          3D

  0  0  0  0  0  0  0  0  0  0999 V3000
M  V30 BEGIN CTAB
M  V30 COUNTS 57 61 0 0 1
M  V30 BEGIN ATOM
M  V30 1 C 12.299215 9.909407 -3.120029 0
M  V30 2 C 12.085590 8.455339 -3.230039 0
M  V30 3 N 12.353785 7.713812 -2.098753 0
M  V30 4 C 12.087809 6.473885 -2.452687 0
M  V30 5 O 11.686631 6.343306 -3.736123 0
M  V30 6 C 11.686025 7.611835 -4.248609 0
M  V30 7 C 11.285948 7.693875 -5.662524 0
M  V30 8 N 10.941442 6.572350 -6.301026 0
M  V30 9 N 10.751286 6.895401 -7.612616 0
M  V30 10 C 10.985145 8.200742 -7.686714 0
M  V30 11 S 10.967658 9.102610 -9.205335 0
M  V30 12 C 11.075021 7.772505 -10.438546 0
M  V30 13 C 9.685334 7.242621 -10.806057 0
M  V30 14 C 9.724633 6.165838 -11.904567 0
M  V30 15 N 8.367760 5.701019 -12.262088 0 CFG=2 CHG=1
M  V30 16 C 7.639121 5.036448 -11.162479 0
M  V30 17 C 6.565026 4.219759 -11.845473 0 CFG=1
M  V30 18 C 5.697873 4.786393 -12.949574 0
M  V30 19 C 6.978010 4.037655 -13.274018 0 CFG=2
M  V30 20 C 6.894164 2.699123 -13.988230 0
M  V30 21 C 5.938923 1.731928 -13.590570 0
M  V30 22 C 5.856481 0.482270 -14.232857 0
M  V30 23 F 4.918145 -0.413565 -13.846815 0
M  V30 24 C 6.735697 0.170083 -15.283540 0
M  V30 25 C 7.695746 1.114202 -15.700260 0
M  V30 26 C 8.653605 0.815918 -16.842865 0
M  V30 27 F 8.584377 1.798229 -17.743479 0
M  V30 28 F 9.899338 0.749554 -16.371420 0
M  V30 29 F 8.365225 -0.333882 -17.453135 0
M  V30 30 C 7.768272 2.363923 -15.049434 0
M  V30 31 C 8.297903 4.783299 -13.425980 0
M  V30 32 N 11.274261 8.766542 -6.489699 0
M  V30 33 C 11.542884 10.157893 -6.183914 0
M  V30 34 H 13.186072 10.172200 -3.689688 0
M  V30 35 H 11.436094 10.494440 -3.427185 0
M  V30 36 H 12.485947 10.172280 -2.080909 0
M  V30 37 H 12.201101 5.627285 -1.799102 0
M  V30 38 H 11.553989 8.180103 -11.328003 0
M  V30 39 H 11.725840 6.974639 -10.080785 0
M  V30 40 H 9.212254 6.850007 -9.905719 0
M  V30 41 H 9.060398 8.074139 -11.135800 0
M  V30 42 H 10.206637 6.570348 -12.795902 0
M  V30 43 H 10.318002 5.311565 -11.583138 0
M  V30 44 H 8.295880 4.364226 -10.609130 0
M  V30 45 H 7.241354 5.772169 -10.468332 0
M  V30 46 H 6.174151 3.373789 -11.285877 0
M  V30 47 H 4.752204 4.288364 -13.151070 0
M  V30 48 H 5.676242 5.870162 -13.047240 0
M  V30 49 H 5.245001 1.939859 -12.789736 0
M  V30 50 H 6.662645 -0.793606 -15.766681 0
M  V30 51 H 8.511566 3.066175 -15.394920 0
M  V30 52 H 8.352035 5.316549 -14.375648 0
M  V30 53 H 9.126528 4.074884 -13.365600 0
M  V30 54 H 11.412760 10.793676 -7.047015 0
M  V30 55 H 10.826863 10.507971 -5.444649 0
M  V30 56 H 12.567593 10.272070 -5.835219 0
M  V30 57 H 7.814161 6.515940 -12.490160 0
M  V30 END ATOM
M  V30 BEGIN BOND
M  V30 1 1 2 1
M  V30 2 1 3 2
M  V30 3 2 4 3
M  V30 4 1 5 4
M  V30 5 2 6 2
M  V30 6 1 6 5
M  V30 7 1 7 6
M  V30 8 2 8 7
M  V30 9 1 9 8
M  V30 10 2 10 9
M  V30 11 1 11 10
M  V30 12 1 12 11
M  V30 13 1 13 12
M  V30 14 1 14 13
M  V30 15 1 15 14
M  V30 16 1 16 15
M  V30 17 1 17 16
M  V30 18 1 18 17
M  V30 19 1 19 17
M  V30 20 1 19 18
M  V30 21 1 19 20 CFG=3
M  V30 22 2 21 20
M  V30 23 1 22 21
M  V30 24 1 23 22
M  V30 25 2 24 22
M  V30 26 1 25 24
M  V30 27 1 26 25
M  V30 28 1 27 26
M  V30 29 1 28 26
M  V30 30 1 29 26
M  V30 31 1 30 20
M  V30 32 2 30 25
M  V30 33 1 31 15
M  V30 34 1 31 19
M  V30 35 1 32 7
M  V30 36 1 32 10
M  V30 37 1 33 32
M  V30 38 1 34 1
M  V30 39 1 35 1
M  V30 40 1 36 1
M  V30 41 1 37 4
M  V30 42 1 38 12
M  V30 43 1 39 12
M  V30 44 1 40 13
M  V30 45 1 41 13
M  V30 46 1 42 14
M  V30 47 1 43 14
M  V30 48 1 44 16
M  V30 49 1 45 16
M  V30 50 1 17 46 CFG=1
M  V30 51 1 47 18
M  V30 52 1 48 18
M  V30 53 1 49 21
M  V30 54 1 50 24
M  V30 55 1 51 30
M  V30 56 1 52 31
M  V30 57 1 53 31
M  V30 58 1 54 33
M  V30 59 1 55 33
M  V30 60 1 56 33
M  V30 61 1 15 57 CFG=3
M  V30 END BOND
M  V30 END CTAB
M  END
>  <b_m_subgroup_collapsed>  (834) 
0

>  <r_i_docking_score>  (834) 
-7.8094809814344401

>  <s_m_subgroup_title>  (834) 
glide-dock_SP_D22_pv

>  <s_m_subgroupid>  (834) 
glide-dock_SP_D22_pv

>  <Molecule ChEMBL ID>  (834) 
CHEMBL1081868

>  <Standard Type>  (834) 
Ki

>  <Standard Value>  (834) 
31.62

>  <label>  (834) 
1

$$$$
CHEMBL198599
     RDKit          3D

  0  0  0  0  0  0  0  0  0  0999 V3000
M  V30 BEGIN CTAB
M  V30 COUNTS 58 62 0 0 1
M  V30 BEGIN ATOM
M  V30 1 C 12.514708 4.289485 -15.097713 0
M  V30 2 C 11.115601 4.251088 -14.519936 0
M  V30 3 C 10.703496 5.255038 -13.625529 0
M  V30 4 C 9.409554 5.231068 -13.064906 0
M  V30 5 C 9.047542 6.288488 -12.035109 0
M  V30 6 C 9.209972 5.728067 -10.607756 0
M  V30 7 N 9.327202 6.771669 -9.593504 0
M  V30 8 C 10.661162 7.382561 -9.667276 0
M  V30 9 C 10.817383 8.452415 -8.580545 0
M  V30 10 N 10.657573 7.841921 -7.268145 0
M  V30 11 C 10.962838 8.687410 -6.195885 0
M  V30 12 N 10.889419 10.015679 -6.238442 0
M  V30 13 O 11.281520 10.481565 -4.955929 0
M  V30 14 C 11.628220 9.410206 -4.146559 0
M  V30 15 C 12.086073 9.352706 -2.824396 0
M  V30 16 C 12.339411 8.081918 -2.270658 0
M  V30 17 C 12.135000 6.913391 -3.043758 0
M  V30 18 C 11.685606 6.998402 -4.381936 0
M  V30 19 C 11.419957 8.273874 -4.928071 0
M  V30 20 C 9.355520 7.193008 -7.144798 0
M  V30 21 C 9.169359 6.153970 -8.270272 0
M  V30 22 C 8.512614 4.198670 -13.423027 0
M  V30 23 C 8.926059 3.172917 -14.312579 0
M  V30 24 C 10.231533 3.207419 -14.853887 0
M  V30 25 C 7.973373 2.009466 -14.594837 0 CFG=2
M  V30 26 C 8.177195 1.344769 -15.969846 0
M  V30 27 C 6.498543 2.428432 -14.429831 0
M  V30 28 C 6.235726 3.341989 -13.229026 0
M  V30 29 O 5.155550 3.301544 -12.649345 0
M  V30 30 N 7.215009 4.172003 -12.852045 0
M  V30 31 H 12.684403 3.469583 -15.796857 0
M  V30 32 H 12.679090 5.227737 -15.628663 0
M  V30 33 H 13.252772 4.215612 -14.298654 0
M  V30 34 H 11.395308 6.038965 -13.352642 0
M  V30 35 H 9.674551 7.158478 -12.217297 0
M  V30 36 H 8.026065 6.641678 -12.184511 0
M  V30 37 H 8.346670 5.098010 -10.388555 0
M  V30 38 H 10.081302 5.074995 -10.550753 0
M  V30 39 H 11.431541 6.620059 -9.551864 0
M  V30 40 H 10.826135 7.857005 -10.632630 0
M  V30 41 H 11.802605 8.915259 -8.657029 0
M  V30 42 H 10.075629 9.240409 -8.723129 0
M  V30 43 H 12.220253 10.251961 -2.246492 0
M  V30 44 H 12.686110 8.005227 -1.251383 0
M  V30 45 H 12.327560 5.943001 -2.608674 0
M  V30 46 H 11.533751 6.105932 -4.971138 0
M  V30 47 H 9.269971 6.702100 -6.174993 0
M  V30 48 H 8.561154 7.941785 -7.193553 0
M  V30 49 H 8.173689 5.713562 -8.191998 0
M  V30 50 H 9.891233 5.344713 -8.146083 0
M  V30 51 H 10.576715 2.428942 -15.516256 0
M  V30 52 H 8.193141 1.249307 -13.846696 0
M  V30 53 H 9.152418 0.865799 -16.052034 0
M  V30 54 H 7.434637 0.563250 -16.135836 0
M  V30 55 H 8.082306 2.068655 -16.779995 0
M  V30 56 H 5.864508 1.544437 -14.356030 0
M  V30 57 H 6.178129 2.973382 -15.314585 0
M  V30 58 H 7.018040 4.816403 -12.099072 0
M  V30 END ATOM
M  V30 BEGIN BOND
M  V30 1 1 2 1
M  V30 2 2 3 2
M  V30 3 1 4 3
M  V30 4 1 5 4
M  V30 5 1 6 5
M  V30 6 1 7 6
M  V30 7 1 8 7
M  V30 8 1 9 8
M  V30 9 1 10 9
M  V30 10 1 11 10
M  V30 11 2 12 11
M  V30 12 1 13 12
M  V30 13 1 14 13
M  V30 14 2 15 14
M  V30 15 1 16 15
M  V30 16 2 17 16
M  V30 17 1 18 17
M  V30 18 1 19 11
M  V30 19 1 19 14
M  V30 20 2 19 18
M  V30 21 1 20 10
M  V30 22 1 21 7
M  V30 23 1 21 20
M  V30 24 2 22 4
M  V30 25 1 23 22
M  V30 26 1 24 2
M  V30 27 2 24 23
M  V30 28 1 25 23
M  V30 29 1 26 25
M  V30 30 1 27 25
M  V30 31 1 28 27
M  V30 32 2 29 28
M  V30 33 1 30 22
M  V30 34 1 30 28
M  V30 35 1 31 1
M  V30 36 1 32 1
M  V30 37 1 33 1
M  V30 38 1 34 3
M  V30 39 1 35 5
M  V30 40 1 36 5
M  V30 41 1 37 6
M  V30 42 1 38 6
M  V30 43 1 39 8
M  V30 44 1 40 8
M  V30 45 1 41 9
M  V30 46 1 42 9
M  V30 47 1 43 15
M  V30 48 1 44 16
M  V30 49 1 45 17
M  V30 50 1 46 18
M  V30 51 1 47 20
M  V30 52 1 48 20
M  V30 53 1 49 21
M  V30 54 1 50 21
M  V30 55 1 51 24
M  V30 56 1 25 52 CFG=1
M  V30 57 1 53 26
M  V30 58 1 54 26
M  V30 59 1 55 26
M  V30 60 1 56 27
M  V30 61 1 57 27
M  V30 62 1 58 30
M  V30 END BOND
M  V30 END CTAB
M  END
>  <b_m_subgroup_collapsed>  (835) 
0

>  <r_i_docking_score>  (835) 
-7.8092755120757298

>  <s_m_subgroup_title>  (835) 
glide-dock_SP_D22_pv

>  <s_m_subgroupid>  (835) 
glide-dock_SP_D22_pv

>  <Molecule ChEMBL ID>  (835) 
CHEMBL198599

>  <Standard Type>  (835) 
Ki

>  <Standard Value>  (835) 
35.0

>  <label>  (835) 
1

$$$$
CHEMBL4084262
     RDKit          3D

  0  0  0  0  0  0  0  0  0  0999 V3000
M  V30 BEGIN CTAB
M  V30 COUNTS 73 77 0 0 1
M  V30 BEGIN ATOM
M  V30 1 C 13.109288 1.404248 -18.559271 0
M  V30 2 O 11.923279 1.147424 -17.827936 0
M  V30 3 C 10.927366 0.407457 -18.432398 0
M  V30 4 C 11.074251 -0.210838 -19.699976 0
M  V30 5 C 10.000924 -0.908422 -20.289074 0
M  V30 6 C 8.780784 -1.031279 -19.600359 0
M  V30 7 C 8.628103 -0.431060 -18.339558 0
M  V30 8 C 9.686229 0.297658 -17.760067 0
M  V30 9 N 9.450131 0.965998 -16.547102 0
M  V30 10 C 10.169481 0.602392 -15.332944 0
M  V30 11 C 10.937407 1.807790 -14.757497 0
M  V30 12 C 10.088830 3.093540 -14.632704 0
M  V30 13 C 8.994362 2.917904 -13.559249 0
M  V30 14 C 8.212930 4.206680 -13.243385 0
M  V30 15 N 9.108615 5.318823 -12.839767 0 CHG=1
M  V30 16 C 8.319071 6.546690 -12.530054 0
M  V30 17 C 9.102619 7.638471 -11.778376 0
M  V30 18 C 9.439773 7.249448 -10.335843 0
M  V30 19 S 10.471520 8.514761 -9.540827 0
M  V30 20 C 10.508965 7.871218 -7.897055 0
M  V30 21 N 9.773684 6.848087 -7.462831 0
M  V30 22 N 10.083811 6.716201 -6.132783 0
M  V30 23 C 10.973372 7.670115 -5.860470 0
M  V30 24 C 11.511209 7.882511 -4.524403 0
M  V30 25 C 11.900084 6.775506 -3.746545 0
M  V30 26 C 12.388802 6.964890 -2.443091 0
M  V30 27 C 12.482409 8.262746 -1.908148 0
M  V30 28 C 12.085410 9.371246 -2.674351 0
M  V30 29 C 11.602872 9.183887 -3.979922 0
M  V30 30 N 11.304002 8.393631 -6.944490 0
M  V30 31 C 12.278505 9.453096 -7.049380 0
M  V30 32 C 10.192868 5.526554 -13.840922 0
M  V30 33 C 10.992038 4.246595 -14.143975 0
M  V30 34 C 9.507867 3.376447 -16.042379 0
M  V30 35 C 8.685124 2.202218 -16.598133 0
M  V30 36 H 13.711747 2.129069 -18.012514 0
M  V30 37 H 13.698789 0.494422 -18.677740 0
M  V30 38 H 12.895758 1.832881 -19.539316 0
M  V30 39 H 11.998528 -0.151681 -20.256071 0
M  V30 40 H 10.117090 -1.357827 -21.262655 0
M  V30 41 H 7.961014 -1.578209 -20.045164 0
M  V30 42 H 7.684700 -0.522282 -17.819571 0
M  V30 43 H 10.868097 -0.212819 -15.526854 0
M  V30 44 H 9.448286 0.226775 -14.605739 0
M  V30 45 H 11.793900 2.012628 -15.399397 0
M  V30 46 H 11.339729 1.538384 -13.783278 0
M  V30 47 H 9.476397 2.574258 -12.647416 0
M  V30 48 H 8.295606 2.132207 -13.846705 0
M  V30 49 H 7.506658 4.006311 -12.435553 0
M  V30 50 H 7.619749 4.510480 -14.106441 0
M  V30 51 H 7.454396 6.279459 -11.918689 0
M  V30 52 H 7.903388 6.965053 -13.445621 0
M  V30 53 H 8.487615 8.539981 -11.741569 0
M  V30 54 H 10.002440 7.926727 -12.318014 0
M  V30 55 H 9.975773 6.301150 -10.303352 0
M  V30 56 H 8.515306 7.115998 -9.769547 0
M  V30 57 H 11.816471 5.773156 -4.145919 0
M  V30 58 H 12.681173 6.109519 -1.852131 0
M  V30 59 H 12.856460 8.409208 -0.905318 0
M  V30 60 H 12.122644 10.363281 -2.253133 0
M  V30 61 H 11.274227 10.042650 -4.546806 0
M  V30 62 H 12.804150 9.354268 -7.999252 0
M  V30 63 H 11.768663 10.415480 -6.989555 0
M  V30 64 H 13.023986 9.375786 -6.258907 0
M  V30 65 H 9.751967 5.849676 -14.778008 0
M  V30 66 H 10.881882 6.303996 -13.508129 0
M  V30 67 H 11.532152 3.944582 -13.247156 0
M  V30 68 H 11.758700 4.464172 -14.890832 0
M  V30 69 H 8.890293 4.271840 -16.046650 0
M  V30 70 H 10.327540 3.579698 -16.733856 0
M  V30 71 H 8.399912 2.426172 -17.627731 0
M  V30 72 H 7.758650 2.075168 -16.039225 0
M  V30 73 H 9.547791 5.030149 -11.977018 0
M  V30 END ATOM
M  V30 BEGIN BOND
M  V30 1 1 2 1
M  V30 2 1 3 2
M  V30 3 2 4 3
M  V30 4 1 5 4
M  V30 5 2 6 5
M  V30 6 1 7 6
M  V30 7 1 8 3
M  V30 8 2 8 7
M  V30 9 1 9 8
M  V30 10 1 10 9
M  V30 11 1 11 10
M  V30 12 1 12 11
M  V30 13 1 13 12
M  V30 14 1 14 13
M  V30 15 1 15 14
M  V30 16 1 16 15
M  V30 17 1 17 16
M  V30 18 1 18 17
M  V30 19 1 19 18
M  V30 20 1 20 19
M  V30 21 2 21 20
M  V30 22 1 22 21
M  V30 23 2 23 22
M  V30 24 1 24 23
M  V30 25 2 25 24
M  V30 26 1 26 25
M  V30 27 2 27 26
M  V30 28 1 28 27
M  V30 29 1 29 24
M  V30 30 2 29 28
M  V30 31 1 30 20
M  V30 32 1 30 23
M  V30 33 1 31 30
M  V30 34 1 32 15
M  V30 35 1 33 12
M  V30 36 1 33 32
M  V30 37 1 34 12
M  V30 38 1 35 9
M  V30 39 1 35 34
M  V30 40 1 36 1
M  V30 41 1 37 1
M  V30 42 1 38 1
M  V30 43 1 39 4
M  V30 44 1 40 5
M  V30 45 1 41 6
M  V30 46 1 42 7
M  V30 47 1 43 10
M  V30 48 1 44 10
M  V30 49 1 45 11
M  V30 50 1 46 11
M  V30 51 1 47 13
M  V30 52 1 48 13
M  V30 53 1 49 14
M  V30 54 1 50 14
M  V30 55 1 51 16
M  V30 56 1 52 16
M  V30 57 1 53 17
M  V30 58 1 54 17
M  V30 59 1 55 18
M  V30 60 1 56 18
M  V30 61 1 57 25
M  V30 62 1 58 26
M  V30 63 1 59 27
M  V30 64 1 60 28
M  V30 65 1 61 29
M  V30 66 1 62 31
M  V30 67 1 63 31
M  V30 68 1 64 31
M  V30 69 1 65 32
M  V30 70 1 66 32
M  V30 71 1 67 33
M  V30 72 1 68 33
M  V30 73 1 69 34
M  V30 74 1 70 34
M  V30 75 1 71 35
M  V30 76 1 72 35
M  V30 77 1 73 15
M  V30 END BOND
M  V30 END CTAB
M  END
>  <b_m_subgroup_collapsed>  (836) 
0

>  <r_i_docking_score>  (836) 
-7.8092023034577904

>  <s_m_subgroup_title>  (836) 
glide-dock_SP_D22_pv

>  <s_m_subgroupid>  (836) 
glide-dock_SP_D22_pv

>  <Molecule ChEMBL ID>  (836) 
CHEMBL4084262

>  <Standard Type>  (836) 
Ki

>  <Standard Value>  (836) 
10895.0

>  <label>  (836) 
0

$$$$
CHEMBL543111
     RDKit          3D

  0  0  0  0  0  0  0  0  0  0999 V3000
M  V30 BEGIN CTAB
M  V30 COUNTS 33 35 0 0 1
M  V30 BEGIN ATOM
M  V30 1 O 12.077799 7.772442 -10.343872 0
M  V30 2 C 11.522566 7.907139 -9.254702 0
M  V30 3 C 12.131940 8.172626 -7.985147 0
M  V30 4 C 11.162520 8.154863 -7.064081 0
M  V30 5 C 11.386320 8.204578 -5.614038 0
M  V30 6 C 11.765121 9.398582 -4.968199 0
M  V30 7 C 12.085891 9.377878 -3.593337 0
M  V30 8 C 12.071277 8.166064 -2.877182 0
M  V30 9 C 11.687399 6.975554 -3.524582 0
M  V30 10 C 11.312899 7.000096 -4.883286 0
M  V30 11 O 9.909587 7.997207 -7.593727 0
M  V30 12 C 10.021987 7.798757 -9.012222 0
M  V30 13 C 9.286009 8.903056 -9.787398 0
M  V30 14 C 9.130012 8.570993 -11.287982 0
M  V30 15 N 8.487015 7.252028 -11.447790 0 CHG=1
M  V30 16 C 9.250004 6.150786 -10.827410 0
M  V30 17 C 9.434485 6.403093 -9.320951 0
M  V30 18 H 13.196670 8.269127 -7.845603 0
M  V30 19 H 11.833066 10.323520 -5.523665 0
M  V30 20 H 12.362121 10.283282 -3.078121 0
M  V30 21 H 12.329249 8.160031 -1.828435 0
M  V30 22 H 11.669076 6.047406 -2.971595 0
M  V30 23 H 11.019895 6.085778 -5.375581 0
M  V30 24 H 8.311798 9.078386 -9.334159 0
M  V30 25 H 9.827553 9.836613 -9.679439 0
M  V30 26 H 8.505438 9.322663 -11.768696 0
M  V30 27 H 10.085906 8.571945 -11.810902 0
M  V30 28 H 7.573452 7.352924 -10.965786 0
M  V30 29 H 8.713446 5.214151 -10.983881 0
M  V30 30 H 10.212733 6.051300 -11.328139 0
M  V30 31 H 10.059957 5.619524 -8.890330 0
M  V30 32 H 8.465342 6.315969 -8.829342 0
M  V30 33 H 8.319632 7.058918 -12.424457 0
M  V30 END ATOM
M  V30 BEGIN BOND
M  V30 1 2 2 1
M  V30 2 1 3 2
M  V30 3 2 4 3
M  V30 4 1 5 4
M  V30 5 2 6 5
M  V30 6 1 7 6
M  V30 7 2 8 7
M  V30 8 1 9 8
M  V30 9 1 10 5
M  V30 10 2 10 9
M  V30 11 1 11 4
M  V30 12 1 12 2
M  V30 13 1 12 11
M  V30 14 1 13 12
M  V30 15 1 14 13
M  V30 16 1 15 14
M  V30 17 1 16 15
M  V30 18 1 17 12
M  V30 19 1 17 16
M  V30 20 1 18 3
M  V30 21 1 19 6
M  V30 22 1 20 7
M  V30 23 1 21 8
M  V30 24 1 22 9
M  V30 25 1 23 10
M  V30 26 1 24 13
M  V30 27 1 25 13
M  V30 28 1 26 14
M  V30 29 1 27 14
M  V30 30 1 28 15
M  V30 31 1 29 16
M  V30 32 1 30 16
M  V30 33 1 31 17
M  V30 34 1 32 17
M  V30 35 1 33 15
M  V30 END BOND
M  V30 END CTAB
M  END
>  <b_m_subgroup_collapsed>  (837) 
0

>  <r_i_docking_score>  (837) 
-7.8038032331211502

>  <s_m_subgroup_title>  (837) 
glide-dock_SP_D22_pv

>  <s_m_subgroupid>  (837) 
glide-dock_SP_D22_pv

>  <Molecule ChEMBL ID>  (837) 
CHEMBL543111

>  <Standard Type>  (837) 
Ki

>  <Standard Value>  (837) 
10000.0

>  <label>  (837) 
0

$$$$
CHEMBL3799455
     RDKit          3D

  0  0  0  0  0  0  0  0  0  0999 V3000
M  V30 BEGIN CTAB
M  V30 COUNTS 68 71 0 0 1
M  V30 BEGIN ATOM
M  V30 1 C 12.661126 7.577574 -13.960395 0
M  V30 2 O 12.062907 7.378149 -12.688007 0
M  V30 3 C 10.960528 6.561903 -12.650232 0
M  V30 4 C 10.885813 5.392810 -13.446439 0
M  V30 5 C 9.766547 4.542076 -13.377872 0
M  V30 6 C 9.709530 3.255559 -14.181948 0
M  V30 7 C 10.081465 3.425394 -15.668639 0
M  V30 8 N 9.998481 2.145674 -16.402267 0 CHG=1
M  V30 9 C 8.631863 1.768478 -16.822920 0
M  V30 10 C 8.566261 0.297220 -17.259102 0
M  V30 11 C 7.151539 -0.130074 -17.621412 0
M  V30 12 C 6.810712 -0.298059 -18.979929 0
M  V30 13 C 5.513436 -0.699558 -19.347380 0
M  V30 14 C 4.535144 -0.934494 -18.363806 0
M  V30 15 O 3.286588 -1.309662 -18.768642 0
M  V30 16 C 4.865204 -0.774423 -16.999050 0
M  V30 17 N 3.906826 -1.026440 -15.976931 0
M  V30 18 C 4.108205 -0.844807 -14.655203 0
M  V30 19 O 3.210336 -1.027442 -13.841329 0
M  V30 20 C 5.455934 -0.432142 -14.270580 0
M  V30 21 C 6.420347 -0.225830 -15.184428 0
M  V30 22 C 6.168598 -0.370678 -16.628025 0
M  V30 23 C 8.705305 4.875205 -12.515298 0
M  V30 24 C 8.778395 6.027962 -11.709382 0
M  V30 25 C 9.918867 6.869446 -11.745336 0
M  V30 26 O 10.074560 8.007147 -10.978328 0
M  V30 27 C 9.342902 8.157106 -9.763546 0
M  V30 28 C 10.322526 8.131345 -8.584272 0
M  V30 29 C 9.595160 8.386066 -7.257994 0
M  V30 30 C 10.507078 8.277260 -6.051741 0
M  V30 31 C 10.886392 7.003156 -5.585769 0
M  V30 32 C 11.677817 6.875867 -4.429802 0
M  V30 33 C 12.086415 8.028716 -3.730654 0
M  V30 34 C 11.726126 9.303394 -4.203462 0
M  V30 35 C 10.944899 9.431821 -5.367933 0
M  V30 36 H 13.286108 8.467075 -13.914548 0
M  V30 37 H 13.292604 6.735878 -14.247619 0
M  V30 38 H 11.912561 7.748586 -14.737029 0
M  V30 39 H 11.709950 5.128673 -14.086210 0
M  V30 40 H 8.706714 2.842176 -14.082931 0
M  V30 41 H 10.380582 2.539504 -13.705811 0
M  V30 42 H 11.108993 3.780560 -15.759238 0
M  V30 43 H 9.446865 4.172598 -16.149097 0
M  V30 44 H 10.383206 1.420552 -15.813510 0
M  V30 45 H 8.315669 2.419768 -17.637362 0
M  V30 46 H 7.936567 1.944490 -16.004211 0
M  V30 47 H 8.940454 -0.357333 -16.472084 0
M  V30 48 H 9.221457 0.135409 -18.113819 0
M  V30 49 H 7.545032 -0.123906 -19.751146 0
M  V30 50 H 5.265180 -0.826229 -20.391230 0
M  V30 51 H 2.568669 -0.981331 -18.243683 0
M  V30 52 H 3.011081 -1.396786 -16.258064 0
M  V30 53 H 5.687597 -0.315227 -13.220937 0
M  V30 54 H 7.405352 0.049883 -14.846309 0
M  V30 55 H 7.833941 4.242812 -12.450192 0
M  V30 56 H 7.927306 6.240818 -11.079763 0
M  V30 57 H 8.823213 9.115787 -9.800425 0
M  V30 58 H 8.579817 7.403938 -9.569282 0
M  V30 59 H 10.818823 7.157280 -8.558925 0
M  V30 60 H 11.104465 8.882130 -8.730886 0
M  V30 61 H 9.130702 9.370468 -7.286164 0
M  V30 62 H 8.778220 7.673129 -7.137071 0
M  V30 63 H 10.550400 6.120687 -6.106246 0
M  V30 64 H 11.956722 5.897519 -4.069136 0
M  V30 65 H 12.685953 7.932217 -2.836323 0
M  V30 66 H 12.051121 10.173218 -3.656327 0
M  V30 67 H 10.662959 10.412829 -5.717021 0
M  V30 68 H 10.567514 2.217558 -17.234232 0
M  V30 END ATOM
M  V30 BEGIN BOND
M  V30 1 1 2 1
M  V30 2 1 3 2
M  V30 3 1 4 3
M  V30 4 2 5 4
M  V30 5 1 6 5
M  V30 6 1 7 6
M  V30 7 1 8 7
M  V30 8 1 9 8
M  V30 9 1 10 9
M  V30 10 1 11 10
M  V30 11 1 12 11
M  V30 12 2 13 12
M  V30 13 1 14 13
M  V30 14 1 15 14
M  V30 15 2 16 14
M  V30 16 1 17 16
M  V30 17 1 18 17
M  V30 18 2 19 18
M  V30 19 1 20 18
M  V30 20 2 21 20
M  V30 21 2 22 11
M  V30 22 1 22 16
M  V30 23 1 22 21
M  V30 24 1 23 5
M  V30 25 2 24 23
M  V30 26 2 25 3
M  V30 27 1 25 24
M  V30 28 1 26 25
M  V30 29 1 27 26
M  V30 30 1 28 27
M  V30 31 1 29 28
M  V30 32 1 30 29
M  V30 33 2 31 30
M  V30 34 1 32 31
M  V30 35 2 33 32
M  V30 36 1 34 33
M  V30 37 1 35 30
M  V30 38 2 35 34
M  V30 39 1 36 1
M  V30 40 1 37 1
M  V30 41 1 38 1
M  V30 42 1 39 4
M  V30 43 1 40 6
M  V30 44 1 41 6
M  V30 45 1 42 7
M  V30 46 1 43 7
M  V30 47 1 44 8
M  V30 48 1 45 9
M  V30 49 1 46 9
M  V30 50 1 47 10
M  V30 51 1 48 10
M  V30 52 1 49 12
M  V30 53 1 50 13
M  V30 54 1 51 15
M  V30 55 1 52 17
M  V30 56 1 53 20
M  V30 57 1 54 21
M  V30 58 1 55 23
M  V30 59 1 56 24
M  V30 60 1 57 27
M  V30 61 1 58 27
M  V30 62 1 59 28
M  V30 63 1 60 28
M  V30 64 1 61 29
M  V30 65 1 62 29
M  V30 66 1 63 31
M  V30 67 1 64 32
M  V30 68 1 65 33
M  V30 69 1 66 34
M  V30 70 1 67 35
M  V30 71 1 68 8
M  V30 END BOND
M  V30 END CTAB
M  END
>  <b_m_subgroup_collapsed>  (838) 
0

>  <r_i_docking_score>  (838) 
-7.8034331660301897

>  <s_m_subgroup_title>  (838) 
glide-dock_SP_D22_pv

>  <s_m_subgroupid>  (838) 
glide-dock_SP_D22_pv

>  <Molecule ChEMBL ID>  (838) 
CHEMBL3799455

>  <Standard Type>  (838) 
Ki

>  <Standard Value>  (838) 
64.0

>  <label>  (838) 
1

$$$$
CHEMBL596
     RDKit          3D

  0  0  0  0  0  0  0  0  0  0999 V3000
M  V30 BEGIN CTAB
M  V30 COUNTS 54 56 0 0 1
M  V30 BEGIN ATOM
M  V30 1 C 5.905770 6.488894 -12.646740 0
M  V30 2 C 6.741796 5.404418 -11.963262 0
M  V30 3 C 7.927954 4.979632 -12.840956 0
M  V30 4 O 7.618917 4.343395 -13.846985 0
M  V30 5 N 9.228492 5.291877 -12.537873 0
M  V30 6 C 10.281171 4.902586 -13.437705 0
M  V30 7 C 10.378049 3.575028 -13.923793 0
M  V30 8 C 11.382664 3.218898 -14.841225 0
M  V30 9 C 12.330435 4.172305 -15.256837 0
M  V30 10 C 12.275867 5.481537 -14.748287 0
M  V30 11 C 11.259295 5.842969 -13.844793 0
M  V30 12 C 9.655747 6.009768 -11.311942 0 CFG=1
M  V30 13 C 9.137724 7.464691 -11.191753 0
M  V30 14 C 9.446301 8.089872 -9.809669 0
M  V30 15 N 9.119949 7.184532 -8.671653 0 CFG=2 CHG=1
M  V30 16 C 9.307612 7.790027 -7.321448 0
M  V30 17 C 10.745445 8.311351 -7.065411 0
M  V30 18 C 11.127266 8.373358 -5.596477 0
M  V30 19 C 11.411328 7.171529 -4.909708 0
M  V30 20 C 11.859611 7.201070 -3.574461 0
M  V30 21 C 12.003211 8.434087 -2.910338 0
M  V30 22 C 11.687417 9.632118 -3.579684 0
M  V30 23 C 11.264929 9.607142 -4.925056 0
M  V30 24 C 9.807845 5.871080 -8.773451 0
M  V30 25 C 9.445158 5.130061 -10.055164 0
M  V30 26 H 5.260476 6.958041 -11.909607 0
M  V30 27 H 6.527342 7.288196 -13.047182 0
M  V30 28 H 5.286623 6.082060 -13.446834 0
M  V30 29 H 6.117916 4.530199 -11.773803 0
M  V30 30 H 7.017536 5.771706 -10.984767 0
M  V30 31 H 9.673232 2.819527 -13.606879 0
M  V30 32 H 11.435030 2.207657 -15.217293 0
M  V30 33 H 13.107754 3.893454 -15.953516 0
M  V30 34 H 13.010643 6.211430 -15.056137 0
M  V30 35 H 11.227149 6.860588 -13.484778 0
M  V30 36 H 10.731369 6.172259 -11.352933 0
M  V30 37 H 9.626007 8.070884 -11.955444 0
M  V30 38 H 8.086692 7.565828 -11.445217 0
M  V30 39 H 8.892771 9.023990 -9.701646 0
M  V30 40 H 10.505756 8.347515 -9.774418 0
M  V30 41 H 8.587977 8.597857 -7.178959 0
M  V30 42 H 9.043145 7.035027 -6.578932 0
M  V30 43 H 11.496392 7.683887 -7.542427 0
M  V30 44 H 10.863504 9.298504 -7.514290 0
M  V30 45 H 11.313184 6.220163 -5.412736 0
M  V30 46 H 12.086635 6.278076 -3.059820 0
M  V30 47 H 12.335849 8.462004 -1.882804 0
M  V30 48 H 11.783853 10.571712 -3.054677 0
M  V30 49 H 11.053775 10.535579 -5.435871 0
M  V30 50 H 9.547902 5.245511 -7.918347 0
M  V30 51 H 10.886027 6.005279 -8.746897 0
M  V30 52 H 8.438773 4.733912 -9.951747 0
M  V30 53 H 10.079523 4.245343 -10.135924 0
M  V30 54 H 8.123909 6.999773 -8.751773 0
M  V30 END ATOM
M  V30 BEGIN BOND
M  V30 1 1 2 1
M  V30 2 1 3 2
M  V30 3 2 4 3
M  V30 4 1 5 3
M  V30 5 1 6 5
M  V30 6 2 7 6
M  V30 7 1 8 7
M  V30 8 2 9 8
M  V30 9 1 10 9
M  V30 10 1 11 6
M  V30 11 2 11 10
M  V30 12 1 12 5
M  V30 13 1 13 12
M  V30 14 1 14 13
M  V30 15 1 15 14
M  V30 16 1 16 15
M  V30 17 1 17 16
M  V30 18 1 18 17
M  V30 19 2 19 18
M  V30 20 1 20 19
M  V30 21 2 21 20
M  V30 22 1 22 21
M  V30 23 1 23 18
M  V30 24 2 23 22
M  V30 25 1 24 15
M  V30 26 1 25 12
M  V30 27 1 25 24
M  V30 28 1 26 1
M  V30 29 1 27 1
M  V30 30 1 28 1
M  V30 31 1 29 2
M  V30 32 1 30 2
M  V30 33 1 31 7
M  V30 34 1 32 8
M  V30 35 1 33 9
M  V30 36 1 34 10
M  V30 37 1 35 11
M  V30 38 1 12 36 CFG=3
M  V30 39 1 37 13
M  V30 40 1 38 13
M  V30 41 1 39 14
M  V30 42 1 40 14
M  V30 43 1 41 16
M  V30 44 1 42 16
M  V30 45 1 43 17
M  V30 46 1 44 17
M  V30 47 1 45 19
M  V30 48 1 46 20
M  V30 49 1 47 21
M  V30 50 1 48 22
M  V30 51 1 49 23
M  V30 52 1 50 24
M  V30 53 1 51 24
M  V30 54 1 52 25
M  V30 55 1 53 25
M  V30 56 1 15 54 CFG=3
M  V30 END BOND
M  V30 END CTAB
M  END
>  <b_m_subgroup_collapsed>  (839) 
0

>  <r_i_docking_score>  (839) 
-7.7997520085482099

>  <s_m_subgroup_title>  (839) 
glide-dock_SP_D22_pv

>  <s_m_subgroupid>  (839) 
glide-dock_SP_D22_pv

>  <Molecule ChEMBL ID>  (839) 
CHEMBL596

>  <Standard Type>  (839) 
Ki

>  <Standard Value>  (839) 
21000.0

>  <label>  (839) 
0

$$$$
CHEMBL3908917
     RDKit          3D

  0  0  0  0  0  0  0  0  0  0999 V3000
M  V30 BEGIN CTAB
M  V30 COUNTS 46 49 0 0 1
M  V30 BEGIN ATOM
M  V30 1 C 12.087324 6.566419 -13.787266 0
M  V30 2 N 10.886427 6.136666 -13.044604 0 CHG=1
M  V30 3 C 10.324303 7.180004 -12.162501 0 CFG=2
M  V30 4 C 11.099330 7.470419 -10.901059 0
M  V30 5 C 12.210322 8.171708 -10.422285 0
M  V30 6 C 12.179252 8.448300 -9.024623 0
M  V30 7 C 11.041393 8.118881 -8.215426 0
M  V30 8 C 9.997455 7.389695 -8.744893 0
M  V30 9 C 8.971984 7.154534 -7.833305 0
M  V30 10 C 9.348316 7.879087 -6.735582 0
M  V30 11 N 10.612041 8.440304 -6.925116 0
M  V30 12 S 11.404132 9.482433 -5.793473 0
M  V30 13 O 12.704110 9.772337 -6.387084 0
M  V30 14 O 10.486021 10.570623 -5.447386 0
M  V30 15 C 11.719702 8.597440 -4.305229 0
M  V30 16 C 11.686193 7.194913 -4.253544 0
M  V30 17 C 12.085991 6.572322 -3.061838 0
M  V30 18 C 12.486021 7.336902 -1.956680 0
M  V30 19 C 12.485306 8.737734 -2.003412 0
M  V30 20 C 12.084691 9.372181 -3.185859 0
M  V30 21 C 10.014691 7.064392 -10.075641 0
M  V30 22 C 9.111544 6.695437 -11.218343 0 CFG=2
M  V30 23 C 8.585866 5.262068 -11.125521 0
M  V30 24 C 7.590009 4.898158 -12.236327 0
M  V30 25 O 6.480952 5.774350 -12.246897 0
M  V30 26 H 12.458254 5.750840 -14.408269 0
M  V30 27 H 12.885592 6.862107 -13.105989 0
M  V30 28 H 11.858763 7.412776 -14.436095 0
M  V30 29 H 10.176165 5.871080 -13.711706 0
M  V30 30 H 10.086198 8.123815 -12.646863 0
M  V30 31 H 12.993784 8.549307 -11.063800 0
M  V30 32 H 13.004483 9.003289 -8.610433 0
M  V30 33 H 8.085979 6.590852 -8.061430 0
M  V30 34 H 8.779724 8.051466 -5.846817 0
M  V30 35 H 11.416039 6.602189 -5.115148 0
M  V30 36 H 12.127683 5.499429 -2.998466 0
M  V30 37 H 12.886015 6.837473 -1.087851 0
M  V30 38 H 12.808237 9.321149 -1.152955 0
M  V30 39 H 12.086033 10.450060 -3.235885 0
M  V30 40 H 8.316276 7.435632 -11.264421 0
M  V30 41 H 9.411093 4.549258 -11.129778 0
M  V30 42 H 8.085919 5.122934 -10.165375 0
M  V30 43 H 8.068423 4.922444 -13.215125 0
M  V30 44 H 7.223780 3.882015 -12.085863 0
M  V30 45 H 6.485970 6.318676 -11.461508 0
M  V30 46 H 11.114962 5.330961 -12.481894 0
M  V30 END ATOM
M  V30 BEGIN BOND
M  V30 1 1 2 1
M  V30 2 1 3 2
M  V30 3 1 4 3
M  V30 4 1 5 4
M  V30 5 2 6 5
M  V30 6 1 7 6
M  V30 7 2 8 7
M  V30 8 1 9 8
M  V30 9 2 10 9
M  V30 10 1 11 7
M  V30 11 1 11 10
M  V30 12 1 12 11
M  V30 13 2 13 12
M  V30 14 2 14 12
M  V30 15 1 15 12
M  V30 16 2 16 15
M  V30 17 1 17 16
M  V30 18 2 18 17
M  V30 19 1 19 18
M  V30 20 1 20 15
M  V30 21 2 20 19
M  V30 22 2 21 4
M  V30 23 1 21 8
M  V30 24 1 22 3
M  V30 25 1 22 21
M  V30 26 1 23 22
M  V30 27 1 24 23
M  V30 28 1 25 24
M  V30 29 1 26 1
M  V30 30 1 27 1
M  V30 31 1 28 1
M  V30 32 1 29 2
M  V30 33 1 3 30 CFG=3
M  V30 34 1 31 5
M  V30 35 1 32 6
M  V30 36 1 33 9
M  V30 37 1 34 10
M  V30 38 1 35 16
M  V30 39 1 36 17
M  V30 40 1 37 18
M  V30 41 1 38 19
M  V30 42 1 39 20
M  V30 43 1 22 40 CFG=3
M  V30 44 1 41 23
M  V30 45 1 42 23
M  V30 46 1 43 24
M  V30 47 1 44 24
M  V30 48 1 45 25
M  V30 49 1 46 2
M  V30 END BOND
M  V30 END CTAB
M  END
>  <b_m_subgroup_collapsed>  (840) 
0

>  <r_i_docking_score>  (840) 
-7.7997469179052699

>  <s_m_subgroup_title>  (840) 
glide-dock_SP_D22_pv

>  <s_m_subgroupid>  (840) 
glide-dock_SP_D22_pv

>  <Molecule ChEMBL ID>  (840) 
CHEMBL3908917

>  <Standard Type>  (840) 
Ki

>  <Standard Value>  (840) 
10000.0

>  <label>  (840) 
0

$$$$
CHEMBL523994
     RDKit          3D

  0  0  0  0  0  0  0  0  0  0999 V3000
M  V30 BEGIN CTAB
M  V30 COUNTS 59 62 0 0 1
M  V30 BEGIN ATOM
M  V30 1 C 12.780153 8.893719 -1.424802 0
M  V30 2 C 12.218708 8.526302 -2.777787 0
M  V30 3 C 12.071342 7.188458 -3.186416 0
M  V30 4 C 11.508331 6.902639 -4.447417 0
M  V30 5 C 11.112878 7.940971 -5.328977 0
M  V30 6 N 10.513471 7.637630 -6.568195 0
M  V30 7 C 10.859963 6.418133 -7.265084 0
M  V30 8 C 10.751413 6.653790 -8.773870 0
M  V30 9 N 9.442917 7.206732 -9.202142 0 CHG=1
M  V30 10 C 9.413590 7.344670 -10.697015 0 CFG=2
M  V30 11 C 9.487164 8.808977 -11.170395 0
M  V30 12 C 8.309476 6.491819 -11.354784 0 CFG=1
M  V30 13 C 7.626351 6.987911 -12.614602 0
M  V30 14 C 8.469614 5.738832 -12.693728 0 CFG=1
M  V30 15 C 9.833006 5.773270 -13.388703 0
M  V30 16 C 7.698591 4.455020 -13.019959 0
M  V30 17 C 8.129404 3.544782 -14.023760 0
M  V30 18 C 7.349567 2.432711 -14.395514 0
M  V30 19 C 6.117226 2.190747 -13.766669 0
M  V30 20 C 5.685126 3.054298 -12.745578 0
M  V30 21 C 6.466980 4.167259 -12.375631 0
M  V30 22 C 9.077951 8.406754 -8.387746 0
M  V30 23 C 9.168056 8.107799 -6.878856 0
M  V30 24 C 11.342469 9.286036 -4.932052 0
M  V30 25 C 11.100442 10.479850 -5.834595 0
M  V30 26 C 11.850859 9.556828 -3.650507 0
M  V30 27 H 12.393644 9.853881 -1.090445 0
M  V30 28 H 12.506925 8.171011 -0.669573 0
M  V30 29 H 13.862092 8.968387 -1.467845 0
M  V30 30 H 12.352468 6.377787 -2.529284 0
M  V30 31 H 11.361819 5.866248 -4.713574 0
M  V30 32 H 10.155887 5.647430 -6.964669 0
M  V30 33 H 11.863585 6.082793 -7.003297 0
M  V30 34 H 10.886815 5.722372 -9.299880 0
M  V30 35 H 11.552364 7.325595 -9.092047 0
M  V30 36 H 10.344399 6.910919 -11.054063 0
M  V30 37 H 9.685503 8.888295 -12.237928 0
M  V30 38 H 8.567329 9.355741 -10.957076 0
M  V30 39 H 10.324237 9.313824 -10.689027 0
M  V30 40 H 7.670818 6.002179 -10.623408 0
M  V30 41 H 7.991562 7.904790 -13.052567 0
M  V30 42 H 6.541714 6.898674 -12.630721 0
M  V30 43 H 10.406142 6.663995 -13.142405 0
M  V30 44 H 10.432737 4.911942 -13.087059 0
M  V30 45 H 9.714210 5.761926 -14.473360 0
M  V30 46 H 9.056267 3.681201 -14.560451 0
M  V30 47 H 7.697112 1.768502 -15.173400 0
M  V30 48 H 5.516574 1.338990 -14.051359 0
M  V30 49 H 4.749234 2.863043 -12.248887 0
M  V30 50 H 6.084270 4.818581 -11.603256 0
M  V30 51 H 9.760371 9.227860 -8.596334 0
M  V30 52 H 8.088635 8.773810 -8.638291 0
M  V30 53 H 8.447087 7.333246 -6.611362 0
M  V30 54 H 8.901502 8.977982 -6.289511 0
M  V30 55 H 10.299702 11.085958 -5.416809 0
M  V30 56 H 12.001763 11.098889 -5.884481 0
M  V30 57 H 10.852759 10.211336 -6.858665 0
M  V30 58 H 11.976931 10.572613 -3.322419 0
M  V30 59 H 8.739174 6.516851 -8.974347 0
M  V30 END ATOM
M  V30 BEGIN BOND
M  V30 1 1 2 1
M  V30 2 1 3 2
M  V30 3 2 4 3
M  V30 4 1 5 4
M  V30 5 1 6 5
M  V30 6 1 7 6
M  V30 7 1 8 7
M  V30 8 1 9 8
M  V30 9 1 10 9
M  V30 10 1 11 10
M  V30 11 1 12 10
M  V30 12 1 13 12
M  V30 13 1 14 12
M  V30 14 1 14 13
M  V30 15 1 14 15 CFG=3
M  V30 16 1 16 14
M  V30 17 2 17 16
M  V30 18 1 18 17
M  V30 19 2 19 18
M  V30 20 1 20 19
M  V30 21 1 21 16
M  V30 22 2 21 20
M  V30 23 1 22 9
M  V30 24 1 23 6
M  V30 25 1 23 22
M  V30 26 2 24 5
M  V30 27 1 25 24
M  V30 28 2 26 2
M  V30 29 1 26 24
M  V30 30 1 27 1
M  V30 31 1 28 1
M  V30 32 1 29 1
M  V30 33 1 30 3
M  V30 34 1 31 4
M  V30 35 1 32 7
M  V30 36 1 33 7
M  V30 37 1 34 8
M  V30 38 1 35 8
M  V30 39 1 10 36 CFG=3
M  V30 40 1 37 11
M  V30 41 1 38 11
M  V30 42 1 39 11
M  V30 43 1 12 40 CFG=1
M  V30 44 1 41 13
M  V30 45 1 42 13
M  V30 46 1 43 15
M  V30 47 1 44 15
M  V30 48 1 45 15
M  V30 49 1 46 17
M  V30 50 1 47 18
M  V30 51 1 48 19
M  V30 52 1 49 20
M  V30 53 1 50 21
M  V30 54 1 51 22
M  V30 55 1 52 22
M  V30 56 1 53 23
M  V30 57 1 54 23
M  V30 58 1 55 25
M  V30 59 1 56 25
M  V30 60 1 57 25
M  V30 61 1 58 26
M  V30 62 1 59 9
M  V30 END BOND
M  V30 END CTAB
M  END
>  <b_m_subgroup_collapsed>  (841) 
0

>  <r_i_docking_score>  (841) 
-7.7907810459805198

>  <s_m_subgroup_title>  (841) 
glide-dock_SP_D22_pv

>  <s_m_subgroupid>  (841) 
glide-dock_SP_D22_pv

>  <Molecule ChEMBL ID>  (841) 
CHEMBL523994

>  <Standard Type>  (841) 
Ki

>  <Standard Value>  (841) 
10000.0

>  <label>  (841) 
0

$$$$
CHEMBL46559
     RDKit          3D

  0  0  0  0  0  0  0  0  0  0999 V3000
M  V30 BEGIN CTAB
M  V30 COUNTS 46 48 0 0 1
M  V30 BEGIN ATOM
M  V30 1 N 12.885056 8.972298 -1.446690 0
M  V30 2 C 12.434602 8.755199 -2.481600 0
M  V30 3 C 11.884396 8.469737 -3.783192 0
M  V30 4 C 11.686522 7.129086 -4.151028 0
M  V30 5 C 11.285746 6.820579 -5.456289 0
M  V30 6 C 11.087276 7.852710 -6.408086 0
M  V30 7 O 10.799846 7.622397 -7.730530 0
M  V30 8 C 10.454852 6.294447 -8.077607 0
M  V30 9 C 10.144412 6.200458 -9.570139 0 CFG=1
M  V30 10 C 9.444845 4.861582 -9.849610 0
M  V30 11 C 9.040733 4.741673 -11.316311 0
M  V30 12 N 8.112691 5.844472 -11.675166 0 CFG=2 CHG=1
M  V30 13 C 7.467112 5.699907 -13.005436 0
M  V30 14 C 6.969863 4.291728 -13.310761 0
M  V30 15 C 7.728680 3.434343 -14.139538 0
M  V30 16 C 7.286371 2.124157 -14.404387 0
M  V30 17 C 6.085585 1.661400 -13.834714 0
M  V30 18 F 5.659477 0.399376 -14.076927 0
M  V30 19 C 5.321620 2.514225 -13.014779 0
M  V30 20 C 5.763481 3.825971 -12.748335 0
M  V30 21 C 8.779926 7.163220 -11.515338 0
M  V30 22 C 9.296166 7.375284 -10.075973 0
M  V30 23 C 11.214588 9.196762 -6.004792 0
M  V30 24 C 11.595869 9.507787 -4.689382 0
M  V30 25 H 11.881979 6.329325 -3.450938 0
M  V30 26 H 11.189775 5.773636 -5.702701 0
M  V30 27 H 9.585081 5.987357 -7.491389 0
M  V30 28 H 11.280831 5.617703 -7.847112 0
M  V30 29 H 11.081497 6.246621 -10.113924 0
M  V30 30 H 10.086679 4.026389 -9.571089 0
M  V30 31 H 8.551699 4.768101 -9.229561 0
M  V30 32 H 8.570962 3.772582 -11.452621 0
M  V30 33 H 9.919316 4.756099 -11.962855 0
M  V30 34 H 8.168653 5.998697 -13.785983 0
M  V30 35 H 6.626810 6.394272 -13.046636 0
M  V30 36 H 8.658400 3.775380 -14.572245 0
M  V30 37 H 7.869873 1.469919 -15.035144 0
M  V30 38 H 4.393560 2.165374 -12.585835 0
M  V30 39 H 5.181794 4.467764 -12.103355 0
M  V30 40 H 9.613896 7.229610 -12.215425 0
M  V30 41 H 8.086781 7.963288 -11.784866 0
M  V30 42 H 9.875389 8.299013 -10.043693 0
M  V30 43 H 8.485339 7.526176 -9.373836 0
M  V30 44 H 11.037582 9.989354 -6.716854 0
M  V30 45 H 11.685941 10.542946 -4.396569 0
M  V30 46 H 7.361076 5.841562 -10.995166 0
M  V30 END ATOM
M  V30 BEGIN BOND
M  V30 1 3 2 1
M  V30 2 1 3 2
M  V30 3 1 4 3
M  V30 4 2 5 4
M  V30 5 1 6 5
M  V30 6 1 7 6
M  V30 7 1 8 7
M  V30 8 1 9 8
M  V30 9 1 10 9
M  V30 10 1 11 10
M  V30 11 1 12 11
M  V30 12 1 13 12
M  V30 13 1 14 13
M  V30 14 1 15 14
M  V30 15 2 16 15
M  V30 16 1 17 16
M  V30 17 1 18 17
M  V30 18 2 19 17
M  V30 19 2 20 14
M  V30 20 1 20 19
M  V30 21 1 21 12
M  V30 22 1 22 9
M  V30 23 1 22 21
M  V30 24 2 23 6
M  V30 25 2 24 3
M  V30 26 1 24 23
M  V30 27 1 25 4
M  V30 28 1 26 5
M  V30 29 1 27 8
M  V30 30 1 28 8
M  V30 31 1 9 29 CFG=3
M  V30 32 1 30 10
M  V30 33 1 31 10
M  V30 34 1 32 11
M  V30 35 1 33 11
M  V30 36 1 34 13
M  V30 37 1 35 13
M  V30 38 1 36 15
M  V30 39 1 37 16
M  V30 40 1 38 19
M  V30 41 1 39 20
M  V30 42 1 40 21
M  V30 43 1 41 21
M  V30 44 1 42 22
M  V30 45 1 43 22
M  V30 46 1 44 23
M  V30 47 1 45 24
M  V30 48 1 12 46 CFG=1
M  V30 END BOND
M  V30 END CTAB
M  END
>  <b_m_subgroup_collapsed>  (842) 
0

>  <r_i_docking_score>  (842) 
-7.7895161942941904

>  <s_m_subgroup_title>  (842) 
glide-dock_SP_D22_pv

>  <s_m_subgroupid>  (842) 
glide-dock_SP_D22_pv

>  <Molecule ChEMBL ID>  (842) 
CHEMBL46559

>  <Standard Type>  (842) 
Ki

>  <Standard Value>  (842) 
10000.0

>  <label>  (842) 
0

$$$$
CHEMBL169631
     RDKit          3D

  0  0  0  0  0  0  0  0  0  0999 V3000
M  V30 BEGIN CTAB
M  V30 COUNTS 59 61 0 0 1
M  V30 BEGIN ATOM
M  V30 1 C 12.241134 4.976278 -13.996799 0
M  V30 2 O 10.947332 4.557373 -13.579602 0
M  V30 3 C 10.229231 3.705950 -14.396587 0
M  V30 4 C 10.837121 2.985792 -15.456858 0
M  V30 5 C 10.069834 2.181678 -16.328579 0
M  V30 6 N 10.727748 1.506979 -17.393070 0
M  V30 7 C 11.449603 2.321647 -18.372772 0
M  V30 8 C 10.844418 0.154873 -17.438606 0
M  V30 9 C 10.237994 -0.692635 -16.316534 0
M  V30 10 O 11.450401 -0.432210 -18.337128 0
M  V30 11 C 8.668223 2.106327 -16.151796 0
M  V30 12 Cl 7.638866 1.326305 -17.302185 0
M  V30 13 C 8.078532 2.735574 -15.047913 0
M  V30 14 C 8.831965 3.547585 -14.177938 0
M  V30 15 C 8.087877 4.270189 -13.088784 0
M  V30 16 O 6.901693 4.570644 -13.225178 0
M  V30 17 N 8.765952 4.469725 -11.956297 0
M  V30 18 C 8.201796 4.996279 -10.724906 0
M  V30 19 C 9.322410 5.581115 -9.858564 0 CFG=1
M  V30 20 C 9.982324 6.816986 -10.502638 0
M  V30 21 C 10.024839 7.876137 -9.400248 0
M  V30 22 N 8.886434 7.525147 -8.534588 0 CFG=2 CHG=1
M  V30 23 C 8.780549 8.236237 -7.236833 0
M  V30 24 C 10.012508 8.182427 -6.340356 0
M  V30 25 C 10.281844 7.020772 -5.590369 0
M  V30 26 C 11.314281 6.999192 -4.639478 0
M  V30 27 C 12.085921 8.153195 -4.424054 0
M  V30 28 C 11.861489 9.305071 -5.200640 0
M  V30 29 C 10.826209 9.321459 -6.156773 0
M  V30 30 C 8.812514 6.054748 -8.493969 0
M  V30 31 H 12.569228 5.792893 -13.353752 0
M  V30 32 H 12.970387 4.172443 -13.908185 0
M  V30 33 H 12.233224 5.347644 -15.021319 0
M  V30 34 H 11.900041 3.051162 -15.630349 0
M  V30 35 H 11.209329 2.011304 -19.391665 0
M  V30 36 H 11.184941 3.377517 -18.283175 0
M  V30 37 H 12.526433 2.228212 -18.228947 0
M  V30 38 H 10.626820 -0.394193 -15.343779 0
M  V30 39 H 9.154016 -0.627177 -16.293621 0
M  V30 40 H 10.479485 -1.743883 -16.471338 0
M  V30 41 H 7.009967 2.647599 -14.915412 0
M  V30 42 H 9.736251 4.190945 -11.951278 0
M  V30 43 H 7.694122 4.180091 -10.210485 0
M  V30 44 H 7.450617 5.760635 -10.933238 0
M  V30 45 H 10.083096 4.816072 -9.692842 0
M  V30 46 H 9.374959 7.188217 -11.333591 0
M  V30 47 H 10.970633 6.583633 -10.902350 0
M  V30 48 H 9.941590 8.893756 -9.787126 0
M  V30 49 H 10.960788 7.790390 -8.847666 0
M  V30 50 H 7.928751 7.844367 -6.682242 0
M  V30 51 H 8.544421 9.278479 -7.450804 0
M  V30 52 H 9.628733 6.170647 -5.666533 0
M  V30 53 H 11.487370 6.113098 -4.047100 0
M  V30 54 H 12.871201 8.146469 -3.680354 0
M  V30 55 H 12.479764 10.174339 -5.053359 0
M  V30 56 H 10.627505 10.231032 -6.701748 0
M  V30 57 H 9.470934 5.646588 -7.732314 0
M  V30 58 H 7.798298 5.721709 -8.270359 0
M  V30 59 H 8.040334 7.772213 -9.051122 0
M  V30 END ATOM
M  V30 BEGIN BOND
M  V30 1 1 2 1
M  V30 2 1 3 2
M  V30 3 1 4 3
M  V30 4 2 5 4
M  V30 5 1 6 5
M  V30 6 1 7 6
M  V30 7 1 8 6
M  V30 8 1 9 8
M  V30 9 2 10 8
M  V30 10 1 11 5
M  V30 11 1 12 11
M  V30 12 2 13 11
M  V30 13 2 14 3
M  V30 14 1 14 13
M  V30 15 1 15 14
M  V30 16 2 16 15
M  V30 17 1 17 15
M  V30 18 1 18 17
M  V30 19 1 19 18
M  V30 20 1 20 19
M  V30 21 1 21 20
M  V30 22 1 22 21
M  V30 23 1 23 22
M  V30 24 1 24 23
M  V30 25 2 25 24
M  V30 26 1 26 25
M  V30 27 2 27 26
M  V30 28 1 28 27
M  V30 29 1 29 24
M  V30 30 2 29 28
M  V30 31 1 30 19
M  V30 32 1 30 22
M  V30 33 1 31 1
M  V30 34 1 32 1
M  V30 35 1 33 1
M  V30 36 1 34 4
M  V30 37 1 35 7
M  V30 38 1 36 7
M  V30 39 1 37 7
M  V30 40 1 38 9
M  V30 41 1 39 9
M  V30 42 1 40 9
M  V30 43 1 41 13
M  V30 44 1 42 17
M  V30 45 1 43 18
M  V30 46 1 44 18
M  V30 47 1 19 45 CFG=1
M  V30 48 1 46 20
M  V30 49 1 47 20
M  V30 50 1 48 21
M  V30 51 1 49 21
M  V30 52 1 50 23
M  V30 53 1 51 23
M  V30 54 1 52 25
M  V30 55 1 53 26
M  V30 56 1 54 27
M  V30 57 1 55 28
M  V30 58 1 56 29
M  V30 59 1 57 30
M  V30 60 1 58 30
M  V30 61 1 22 59 CFG=3
M  V30 END BOND
M  V30 END CTAB
M  END
>  <b_m_subgroup_collapsed>  (843) 
0

>  <r_i_docking_score>  (843) 
-7.7887207332209298

>  <s_m_subgroup_title>  (843) 
glide-dock_SP_D22_pv

>  <s_m_subgroupid>  (843) 
glide-dock_SP_D22_pv

>  <Molecule ChEMBL ID>  (843) 
CHEMBL169631

>  <Standard Type>  (843) 
Ki

>  <Standard Value>  (843) 
28000.0

>  <label>  (843) 
0

$$$$
CHEMBL2062854
     RDKit          3D

  0  0  0  0  0  0  0  0  0  0999 V3000
M  V30 BEGIN CTAB
M  V30 COUNTS 52 55 0 0 1
M  V30 BEGIN ATOM
M  V30 1 C 10.486072 5.698495 -8.157710 0
M  V30 2 C 9.394240 6.304050 -8.996932 0 CFG=2
M  V30 3 C 9.903693 6.599580 -10.382795 0 CFG=2
M  V30 4 C 9.979863 8.102074 -10.554790 0 CFG=2
M  V30 5 C 9.431162 8.724687 -9.289631 0
M  V30 6 N 8.886298 7.602282 -8.488695 0 CFG=2 CHG=1
M  V30 7 C 8.784861 7.794463 -7.020701 0
M  V30 8 C 10.060439 8.114208 -6.245002 0
M  V30 9 C 10.588878 9.417743 -6.255810 0
M  V30 10 C 11.659887 9.773808 -5.420399 0
M  V30 11 C 12.196204 8.832053 -4.527498 0
M  V30 12 C 11.686379 7.520741 -4.509240 0
M  V30 13 C 10.633486 7.162703 -5.371691 0
M  V30 14 C 9.207207 7.963474 -11.871748 0 CFG=2
M  V30 15 C 8.086402 8.924358 -12.246751 0
M  V30 16 O 6.958879 8.172338 -12.646863 0
M  V30 17 C 8.889353 6.503402 -11.513933 0 CFG=1
M  V30 18 N 9.225636 5.533447 -12.580015 0 CHG=1
M  V30 19 C 9.543726 4.172129 -12.130511 0
M  V30 20 C 9.545127 3.347189 -13.413832 0
M  V30 21 C 8.486874 4.018729 -14.282742 0
M  V30 22 C 8.154771 5.332700 -13.567735 0
M  V30 23 H 10.878817 4.804909 -8.639839 0
M  V30 24 H 11.308556 6.390672 -7.988161 0
M  V30 25 H 10.079547 5.372332 -7.209863 0
M  V30 26 H 8.558821 5.601738 -9.026112 0
M  V30 27 H 10.873699 6.172367 -10.624510 0
M  V30 28 H 11.002086 8.429996 -10.753651 0
M  V30 29 H 10.255146 9.220861 -8.788316 0
M  V30 30 H 8.656045 9.467788 -9.459923 0
M  V30 31 H 8.085979 8.609631 -6.846790 0
M  V30 32 H 8.302674 6.912774 -6.598261 0
M  V30 33 H 10.141574 10.172340 -6.878420 0
M  V30 34 H 12.044122 10.781049 -5.447986 0
M  V30 35 H 12.997158 9.115852 -3.862078 0
M  V30 36 H 12.089308 6.792502 -3.820440 0
M  V30 37 H 10.216641 6.172492 -5.274171 0
M  V30 38 H 9.968986 7.966410 -12.646860 0
M  V30 39 H 8.402600 9.583015 -13.053621 0
M  V30 40 H 7.783317 9.568467 -11.425144 0
M  V30 41 H 6.527485 7.940668 -11.809436 0
M  V30 42 H 7.885199 6.345559 -11.118259 0
M  V30 43 H 10.486019 4.108529 -11.602023 0
M  V30 44 H 8.761423 3.816202 -11.457990 0
M  V30 45 H 10.520862 3.409802 -13.897997 0
M  V30 46 H 9.331122 2.292928 -13.239055 0
M  V30 47 H 8.886183 4.201801 -15.281398 0
M  V30 48 H 7.596499 3.396756 -14.388155 0
M  V30 49 H 7.192027 5.238874 -13.061019 0
M  V30 50 H 8.086405 6.172877 -14.249190 0
M  V30 51 H 10.037798 5.872579 -13.075381 0
M  V30 52 H 7.910437 7.567852 -8.779514 0
M  V30 END ATOM
M  V30 BEGIN BOND
M  V30 1 1 2 1
M  V30 2 1 3 2
M  V30 3 1 4 3
M  V30 4 1 5 4
M  V30 5 1 6 2
M  V30 6 1 6 5
M  V30 7 1 7 6
M  V30 8 1 8 7
M  V30 9 2 9 8
M  V30 10 1 10 9
M  V30 11 2 11 10
M  V30 12 1 12 11
M  V30 13 1 13 8
M  V30 14 2 13 12
M  V30 15 1 14 4
M  V30 16 1 15 14
M  V30 17 1 16 15
M  V30 18 1 17 3
M  V30 19 1 17 14
M  V30 20 1 18 17
M  V30 21 1 19 18
M  V30 22 1 20 19
M  V30 23 1 21 20
M  V30 24 1 22 18
M  V30 25 1 22 21
M  V30 26 1 23 1
M  V30 27 1 24 1
M  V30 28 1 25 1
M  V30 29 1 2 26 CFG=3
M  V30 30 1 3 27 CFG=3
M  V30 31 1 4 28 CFG=3
M  V30 32 1 29 5
M  V30 33 1 30 5
M  V30 34 1 31 7
M  V30 35 1 32 7
M  V30 36 1 33 9
M  V30 37 1 34 10
M  V30 38 1 35 11
M  V30 39 1 36 12
M  V30 40 1 37 13
M  V30 41 1 14 38 CFG=3
M  V30 42 1 39 15
M  V30 43 1 40 15
M  V30 44 1 41 16
M  V30 45 1 17 42 CFG=1
M  V30 46 1 43 19
M  V30 47 1 44 19
M  V30 48 1 45 20
M  V30 49 1 46 20
M  V30 50 1 47 21
M  V30 51 1 48 21
M  V30 52 1 49 22
M  V30 53 1 50 22
M  V30 54 1 51 18
M  V30 55 1 6 52 CFG=3
M  V30 END BOND
M  V30 END CTAB
M  END
>  <b_m_subgroup_collapsed>  (844) 
0

>  <r_i_docking_score>  (844) 
-7.7881259227788702

>  <s_m_subgroup_title>  (844) 
glide-dock_SP_D22_pv

>  <s_m_subgroupid>  (844) 
glide-dock_SP_D22_pv

>  <Molecule ChEMBL ID>  (844) 
CHEMBL2062854

>  <Standard Type>  (844) 
Ki

>  <Standard Value>  (844) 
66000.0

>  <label>  (844) 
0

$$$$
CHEMBL80615
     RDKit          3D

  0  0  0  0  0  0  0  0  0  0999 V3000
M  V30 BEGIN CTAB
M  V30 COUNTS 75 78 0 0 1
M  V30 BEGIN ATOM
M  V30 1 C 12.225327 9.372187 -2.483982 0
M  V30 2 C 11.729232 8.946980 -3.854086 0
M  V30 3 C 11.282899 9.922681 -4.759431 0
M  V30 4 C 10.786101 9.553571 -6.018106 0
M  V30 5 C 10.646870 8.195411 -6.402670 0
M  V30 6 N 10.052744 7.827905 -7.644013 0
M  V30 7 C 9.481945 8.853809 -8.513150 0
M  V30 8 C 9.479487 8.409668 -9.979736 0
M  V30 9 N 8.886144 7.065475 -10.223352 0 CHG=1
M  V30 10 C 9.193990 6.673222 -11.629123 0
M  V30 11 C 8.614407 5.330155 -12.120235 0
M  V30 12 C 9.180629 4.908828 -13.504390 0 CFG=1
M  V30 13 C 10.679060 4.529801 -13.416887 0
M  V30 14 C 11.251587 3.999982 -14.739860 0
M  V30 15 C 10.447652 2.799170 -15.260199 0 CFG=2
M  V30 16 N 11.004185 2.358576 -16.535809 0
M  V30 17 C 10.965456 1.110693 -17.028849 0
M  V30 18 O 10.465135 0.161291 -16.426443 0
M  V30 19 C 11.604306 0.918998 -18.414288 0
M  V30 20 C 12.173066 -0.502560 -18.625368 0
M  V30 21 C 12.854958 -0.624500 -19.997980 0
M  V30 22 C 11.868609 -0.283221 -21.127155 0
M  V30 23 C 11.248656 1.109523 -20.924025 0
M  V30 24 C 10.597669 1.242446 -19.536251 0
M  V30 25 C 8.969907 3.200975 -15.417325 0
M  V30 26 C 8.380996 3.726926 -14.093566 0
M  V30 27 C 9.311673 6.050360 -9.214352 0
M  V30 28 C 9.313761 6.568334 -7.758969 0
M  V30 29 C 11.140446 7.224310 -5.491149 0
M  V30 30 C 11.685943 7.588536 -4.236093 0
M  V30 31 C 12.166849 6.506259 -3.290944 0
M  V30 32 H 13.285887 9.155115 -2.374190 0
M  V30 33 H 12.085808 10.441990 -2.329201 0
M  V30 34 H 11.686594 8.849503 -1.694631 0
M  V30 35 H 11.286051 10.969565 -4.492620 0
M  V30 36 H 10.486195 10.371965 -6.646673 0
M  V30 37 H 8.469995 9.091116 -8.177697 0
M  V30 38 H 10.060294 9.771807 -8.496151 0
M  V30 39 H 8.944994 9.145427 -10.581933 0
M  V30 40 H 10.516129 8.414329 -10.324742 0
M  V30 41 H 8.839008 7.461165 -12.295112 0
M  V30 42 H 10.278209 6.660628 -11.724082 0
M  V30 43 H 8.813816 4.528840 -11.409171 0
M  V30 44 H 7.528483 5.421964 -12.174178 0
M  V30 45 H 9.076110 5.754097 -14.188667 0
M  V30 46 H 11.285259 5.380754 -13.112446 0
M  V30 47 H 10.804806 3.772322 -12.646416 0
M  V30 48 H 12.295440 3.716423 -14.598709 0
M  V30 49 H 11.248270 4.801767 -15.479784 0
M  V30 50 H 10.524447 1.987394 -14.533209 0
M  V30 51 H 11.447212 3.064573 -17.104134 0
M  V30 52 H 12.438121 1.620297 -18.484318 0
M  V30 53 H 12.889927 -0.742978 -17.846306 0
M  V30 54 H 11.377293 -1.245973 -18.549643 0
M  V30 55 H 13.710158 0.052051 -20.041348 0
M  V30 56 H 13.259063 -1.628430 -20.133118 0
M  V30 57 H 12.373182 -0.330150 -22.093069 0
M  V30 58 H 11.073577 -1.029002 -21.157616 0
M  V30 59 H 12.020748 1.871260 -21.038549 0
M  V30 60 H 10.507523 1.301951 -21.700933 0
M  V30 61 H 9.740208 0.569716 -19.471720 0
M  V30 62 H 10.206039 2.253950 -19.416021 0
M  V30 63 H 8.384040 2.347964 -15.761341 0
M  V30 64 H 8.886178 3.969210 -16.187004 0
M  V30 65 H 8.366379 2.911502 -13.375600 0
M  V30 66 H 7.341910 4.019151 -14.244838 0
M  V30 67 H 8.658543 5.179688 -9.273082 0
M  V30 68 H 10.319202 5.709679 -9.460122 0
M  V30 69 H 9.705079 5.779445 -7.122894 0
M  V30 70 H 8.287979 6.739173 -7.427135 0
M  V30 71 H 11.117052 6.174801 -5.733590 0
M  V30 72 H 12.389444 5.597018 -3.842244 0
M  V30 73 H 13.082748 6.802495 -2.780125 0
M  V30 74 H 11.404756 6.282290 -2.541334 0
M  V30 75 H 7.871130 7.206376 -10.146227 0
M  V30 END ATOM
M  V30 BEGIN BOND
M  V30 1 1 2 1
M  V30 2 1 3 2
M  V30 3 2 4 3
M  V30 4 1 5 4
M  V30 5 1 6 5
M  V30 6 1 7 6
M  V30 7 1 8 7
M  V30 8 1 9 8
M  V30 9 1 10 9
M  V30 10 1 11 10
M  V30 11 1 12 11
M  V30 12 1 13 12
M  V30 13 1 14 13
M  V30 14 1 15 14
M  V30 15 1 16 15
M  V30 16 1 17 16
M  V30 17 2 18 17
M  V30 18 1 19 17
M  V30 19 1 20 19
M  V30 20 1 21 20
M  V30 21 1 22 21
M  V30 22 1 23 22
M  V30 23 1 24 19
M  V30 24 1 24 23
M  V30 25 1 25 15
M  V30 26 1 26 12
M  V30 27 1 26 25
M  V30 28 1 27 9
M  V30 29 1 28 6
M  V30 30 1 28 27
M  V30 31 2 29 5
M  V30 32 2 30 2
M  V30 33 1 30 29
M  V30 34 1 31 30
M  V30 35 1 32 1
M  V30 36 1 33 1
M  V30 37 1 34 1
M  V30 38 1 35 3
M  V30 39 1 36 4
M  V30 40 1 37 7
M  V30 41 1 38 7
M  V30 42 1 39 8
M  V30 43 1 40 8
M  V30 44 1 41 10
M  V30 45 1 42 10
M  V30 46 1 43 11
M  V30 47 1 44 11
M  V30 48 1 12 45 CFG=3
M  V30 49 1 46 13
M  V30 50 1 47 13
M  V30 51 1 48 14
M  V30 52 1 49 14
M  V30 53 1 15 50 CFG=1
M  V30 54 1 51 16
M  V30 55 1 52 19
M  V30 56 1 53 20
M  V30 57 1 54 20
M  V30 58 1 55 21
M  V30 59 1 56 21
M  V30 60 1 57 22
M  V30 61 1 58 22
M  V30 62 1 59 23
M  V30 63 1 60 23
M  V30 64 1 61 24
M  V30 65 1 62 24
M  V30 66 1 63 25
M  V30 67 1 64 25
M  V30 68 1 65 26
M  V30 69 1 66 26
M  V30 70 1 67 27
M  V30 71 1 68 27
M  V30 72 1 69 28
M  V30 73 1 70 28
M  V30 74 1 71 29
M  V30 75 1 72 31
M  V30 76 1 73 31
M  V30 77 1 74 31
M  V30 78 1 75 9
M  V30 END BOND
M  V30 END CTAB
M  END
>  <b_m_subgroup_collapsed>  (845) 
0

>  <r_i_docking_score>  (845) 
-7.7829207027405696

>  <s_m_subgroup_title>  (845) 
glide-dock_SP_D22_pv

>  <s_m_subgroupid>  (845) 
glide-dock_SP_D22_pv

>  <Molecule ChEMBL ID>  (845) 
CHEMBL80615

>  <Standard Type>  (845) 
Ki

>  <Standard Value>  (845) 
5.6

>  <label>  (845) 
1

$$$$
CHEMBL11608
     RDKit          3D

  0  0  0  0  0  0  0  0  0  0999 V3000
M  V30 BEGIN CTAB
M  V30 COUNTS 22 22 0 0 1
M  V30 BEGIN ATOM
M  V30 1 N 8.886015 6.944561 -8.199769 0 CHG=1
M  V30 2 C 9.302866 7.315842 -6.835985 0
M  V30 3 C 10.833889 7.370125 -6.700529 0
M  V30 4 C 11.281727 7.790770 -5.311131 0
M  V30 5 C 11.686022 6.824415 -4.365207 0
M  V30 6 C 12.114722 7.216765 -3.081757 0
M  V30 7 C 12.142150 8.581408 -2.737223 0
M  V30 8 O 12.608932 8.972258 -1.515497 0
M  V30 9 C 11.701871 9.542944 -3.665433 0
M  V30 10 C 11.286075 9.154770 -4.953152 0
M  V30 11 H 7.866248 6.972376 -8.246548 0
M  V30 12 H 9.238855 7.605040 -8.876348 0
M  V30 13 H 8.887132 6.589507 -6.137261 0
M  V30 14 H 8.861005 8.283113 -6.592237 0
M  V30 15 H 11.251064 8.072173 -7.424088 0
M  V30 16 H 11.266294 6.395963 -6.934747 0
M  V30 17 H 11.676124 5.775148 -4.621757 0
M  V30 18 H 12.436287 6.469558 -2.370281 0
M  V30 19 H 12.817133 9.897322 -1.461217 0
M  V30 20 H 11.686015 10.583540 -3.389348 0
M  V30 21 H 10.966501 9.906815 -5.660193 0
M  V30 22 H 9.197692 6.013321 -8.431120 0
M  V30 END ATOM
M  V30 BEGIN BOND
M  V30 1 1 2 1
M  V30 2 1 3 2
M  V30 3 1 4 3
M  V30 4 1 5 4
M  V30 5 2 6 5
M  V30 6 1 7 6
M  V30 7 1 8 7
M  V30 8 2 9 7
M  V30 9 2 10 4
M  V30 10 1 10 9
M  V30 11 1 11 1
M  V30 12 1 12 1
M  V30 13 1 13 2
M  V30 14 1 14 2
M  V30 15 1 15 3
M  V30 16 1 16 3
M  V30 17 1 17 5
M  V30 18 1 18 6
M  V30 19 1 19 8
M  V30 20 1 20 9
M  V30 21 1 21 10
M  V30 22 1 22 1
M  V30 END BOND
M  V30 END CTAB
M  END
>  <b_m_subgroup_collapsed>  (846) 
0

>  <r_i_docking_score>  (846) 
-7.7828881590154397

>  <s_m_subgroup_title>  (846) 
glide-dock_SP_D22_pv

>  <s_m_subgroupid>  (846) 
glide-dock_SP_D22_pv

>  <Molecule ChEMBL ID>  (846) 
CHEMBL11608

>  <Standard Type>  (846) 
Ki

>  <Standard Value>  (846) 
17000.0

>  <label>  (846) 
0

$$$$
CHEMBL391192
     RDKit          3D

  0  0  0  0  0  0  0  0  0  0999 V3000
M  V30 BEGIN CTAB
M  V30 COUNTS 51 54 0 0 1
M  V30 BEGIN ATOM
M  V30 1 C 10.430451 1.535566 -14.780551 0
M  V30 2 O 10.924693 2.814761 -15.144924 0
M  V30 3 C 10.739779 3.864902 -14.269329 0
M  V30 4 C 9.919286 3.793226 -13.115518 0
M  V30 5 C 9.793758 4.896264 -12.246931 0
M  V30 6 C 10.481268 6.097657 -12.537634 0
M  V30 7 C 11.286294 6.172330 -13.688107 0
M  V30 8 C 11.429033 5.063797 -14.556964 0
M  V30 9 O 12.227907 5.077075 -15.682017 0
M  V30 10 C 13.001743 6.238293 -15.947717 0
M  V30 11 C 10.399251 7.297722 -11.602481 0
M  V30 12 N 9.828411 6.974905 -10.284271 0 CHG=1
M  V30 13 C 10.394478 7.487202 -9.166976 0
M  V30 14 N 9.979549 7.245202 -7.903442 0
M  V30 15 C 10.655059 7.890135 -6.802593 0
M  V30 16 C 11.053146 9.240923 -6.943710 0
M  V30 17 C 11.663295 9.919765 -5.868892 0
M  V30 18 C 11.861410 9.221776 -4.666040 0
M  V30 19 C 11.488617 7.891768 -4.521627 0
M  V30 20 C 10.876036 7.194943 -5.586656 0
M  V30 21 C 11.778859 7.404227 -3.114447 0 CFG=1
M  V30 22 O 12.486012 6.198444 -3.046865 0
M  V30 23 C 12.518960 8.577285 -2.434846 0
M  V30 24 C 12.459698 9.772313 -3.405260 0
M  V30 25 C 8.651028 6.092527 -10.302495 0
M  V30 26 C 8.986772 4.752439 -10.963474 0
M  V30 27 H 10.700250 0.813461 -15.551060 0
M  V30 28 H 10.878385 1.198030 -13.846831 0
M  V30 29 H 9.343684 1.530446 -14.689902 0
M  V30 30 H 9.396458 2.884417 -12.861705 0
M  V30 31 H 11.805293 7.098802 -13.880561 0
M  V30 32 H 13.601427 6.072707 -16.842607 0
M  V30 33 H 12.367506 7.106746 -16.132360 0
M  V30 34 H 13.688187 6.457502 -15.128316 0
M  V30 35 H 9.792022 8.073905 -12.069489 0
M  V30 36 H 11.400830 7.708000 -11.472525 0
M  V30 37 H 11.254414 8.131671 -9.308208 0
M  V30 38 H 10.875732 9.772194 -7.866089 0
M  V30 39 H 11.958899 10.954411 -5.965267 0
M  V30 40 H 10.558877 6.172295 -5.461186 0
M  V30 41 H 10.886021 7.223362 -2.541489 0
M  V30 42 H 11.899102 5.489087 -3.267747 0
M  V30 43 H 12.085504 8.824586 -1.464972 0
M  V30 44 H 13.557863 8.327028 -2.246898 0
M  V30 45 H 13.449460 10.172311 -3.613065 0
M  V30 46 H 11.828487 10.571230 -3.013838 0
M  V30 47 H 8.200101 5.962505 -9.319185 0
M  V30 48 H 7.909413 6.572287 -10.937230 0
M  V30 49 H 8.067451 4.203127 -11.171304 0
M  V30 50 H 9.570495 4.157887 -10.262525 0
M  V30 51 H 9.354118 6.466991 -7.746210 0
M  V30 END ATOM
M  V30 BEGIN BOND
M  V30 1 1 2 1
M  V30 2 1 3 2
M  V30 3 1 4 3
M  V30 4 2 5 4
M  V30 5 1 6 5
M  V30 6 2 7 6
M  V30 7 2 8 3
M  V30 8 1 8 7
M  V30 9 1 9 8
M  V30 10 1 10 9
M  V30 11 1 11 6
M  V30 12 1 12 11
M  V30 13 2 13 12 CFG=2
M  V30 14 1 14 13
M  V30 15 1 15 14
M  V30 16 1 16 15
M  V30 17 2 17 16
M  V30 18 1 18 17
M  V30 19 2 19 18
M  V30 20 2 20 15
M  V30 21 1 20 19
M  V30 22 1 21 19
M  V30 23 1 22 21
M  V30 24 1 23 21
M  V30 25 1 24 18
M  V30 26 1 24 23
M  V30 27 1 25 12
M  V30 28 1 26 5
M  V30 29 1 26 25
M  V30 30 1 27 1
M  V30 31 1 28 1
M  V30 32 1 29 1
M  V30 33 1 30 4
M  V30 34 1 31 7
M  V30 35 1 32 10
M  V30 36 1 33 10
M  V30 37 1 34 10
M  V30 38 1 35 11
M  V30 39 1 36 11
M  V30 40 1 37 13
M  V30 41 1 38 16
M  V30 42 1 39 17
M  V30 43 1 40 20
M  V30 44 1 21 41 CFG=1
M  V30 45 1 42 22
M  V30 46 1 43 23
M  V30 47 1 44 23
M  V30 48 1 45 24
M  V30 49 1 46 24
M  V30 50 1 47 25
M  V30 51 1 48 25
M  V30 52 1 49 26
M  V30 53 1 50 26
M  V30 54 1 51 14
M  V30 END BOND
M  V30 END CTAB
M  END
>  <b_m_subgroup_collapsed>  (847) 
0

>  <r_i_docking_score>  (847) 
-7.7825544013893602

>  <s_m_subgroup_title>  (847) 
glide-dock_SP_D22_pv

>  <s_m_subgroupid>  (847) 
glide-dock_SP_D22_pv

>  <Molecule ChEMBL ID>  (847) 
CHEMBL391192

>  <Standard Type>  (847) 
Ki

>  <Standard Value>  (847) 
300000.0

>  <label>  (847) 
0

$$$$
CHEMBL486337
     RDKit          3D

  0  0  0  0  0  0  0  0  0  0999 V3000
M  V30 BEGIN CTAB
M  V30 COUNTS 70 73 0 0 1
M  V30 BEGIN ATOM
M  V30 1 C 12.890040 2.376457 -18.497021 0
M  V30 2 O 13.155803 3.576740 -17.785908 0
M  V30 3 C 12.498886 3.780015 -16.592014 0
M  V30 4 C 12.873434 4.913606 -15.841879 0
M  V30 5 C 12.275463 5.181295 -14.596009 0
M  V30 6 C 11.284464 4.319770 -14.090591 0
M  V30 7 C 10.884637 3.191889 -14.835786 0
M  V30 8 C 9.774250 2.290758 -14.325981 0
M  V30 9 C 8.550731 2.336702 -15.252770 0
M  V30 10 C 7.332981 1.634397 -14.680580 0
M  V30 11 C 7.103223 0.280239 -15.001088 0
M  V30 12 C 5.967524 -0.382780 -14.506100 0
M  V30 13 C 5.058516 0.306550 -13.684721 0
M  V30 14 C 5.294604 1.650959 -13.338672 0
M  V30 15 C 6.434509 2.334498 -13.839904 0
M  V30 16 O 6.725423 3.652840 -13.542227 0
M  V30 17 C 6.079896 4.250579 -12.423773 0
M  V30 18 C 6.551696 5.707598 -12.251148 0
M  V30 19 C 8.076316 5.935746 -12.080065 0
M  V30 20 N 8.486041 6.172648 -10.669465 0 CFG=1 CHG=1
M  V30 21 C 8.605222 4.930105 -9.882242 0
M  V30 22 C 8.632185 5.259886 -8.391030 0
M  V30 23 C 9.608918 6.364003 -8.050080 0
M  V30 24 C 9.962620 6.572947 -6.706370 0
M  V30 25 C 10.887000 7.568856 -6.338334 0
M  V30 26 O 11.300034 7.739811 -5.035709 0
M  V30 27 C 11.444101 6.569127 -4.247589 0
M  V30 28 C 11.414227 8.408347 -7.344242 0
M  V30 29 O 12.343242 9.372413 -7.047325 0
M  V30 30 C 11.984580 10.311732 -6.042024 0
M  V30 31 C 11.041598 8.219521 -8.695005 0
M  V30 32 C 10.127246 7.205868 -9.059411 0
M  V30 33 C 9.704949 7.018507 -10.520103 0
M  V30 34 C 11.497320 2.920117 -16.076729 0
M  V30 35 H 13.522660 2.339488 -19.384417 0
M  V30 36 H 13.115255 1.495846 -17.892094 0
M  V30 37 H 11.852847 2.332393 -18.829643 0
M  V30 38 H 13.638397 5.576252 -16.219902 0
M  V30 39 H 12.583314 6.046235 -14.025930 0
M  V30 40 H 10.832292 4.533184 -13.134974 0
M  V30 41 H 9.490673 2.602663 -13.319674 0
M  V30 42 H 10.144272 1.268325 -14.245217 0
M  V30 43 H 8.790760 1.902358 -16.223906 0
M  V30 44 H 8.288641 3.371534 -15.447983 0
M  V30 45 H 7.794172 -0.255379 -15.635055 0
M  V30 46 H 5.791222 -1.416306 -14.766406 0
M  V30 47 H 4.172985 -0.195531 -13.327153 0
M  V30 48 H 4.574939 2.140628 -12.702389 0
M  V30 49 H 5.001654 4.268474 -12.584471 0
M  V30 50 H 6.260145 3.663389 -11.524064 0
M  V30 51 H 6.222266 6.260788 -13.123280 0
M  V30 52 H 5.990528 6.171738 -11.446740 0
M  V30 53 H 8.655517 5.127594 -12.527967 0
M  V30 54 H 8.328119 6.831206 -12.650618 0
M  V30 55 H 7.775970 4.254597 -10.077557 0
M  V30 56 H 9.515954 4.404146 -10.176560 0
M  V30 57 H 8.885943 4.352612 -7.847620 0
M  V30 58 H 7.655852 5.581267 -8.041360 0
M  V30 59 H 9.504305 5.969101 -5.946045 0
M  V30 60 H 12.019703 6.804333 -3.352961 0
M  V30 61 H 10.485136 6.172203 -3.924049 0
M  V30 62 H 11.983244 5.791616 -4.792061 0
M  V30 63 H 12.486175 11.257010 -6.246784 0
M  V30 64 H 10.909886 10.509040 -6.018960 0
M  V30 65 H 12.310594 9.984166 -5.054322 0
M  V30 66 H 11.464525 8.864817 -9.451742 0
M  V30 67 H 10.533782 6.572129 -11.069277 0
M  V30 68 H 9.514688 7.998616 -10.959194 0
M  V30 69 H 11.180118 2.044697 -16.622540 0
M  V30 70 H 7.729312 6.727913 -10.261222 0
M  V30 END ATOM
M  V30 BEGIN BOND
M  V30 1 1 2 1
M  V30 2 1 3 2
M  V30 3 2 4 3
M  V30 4 1 5 4
M  V30 5 2 6 5
M  V30 6 1 7 6
M  V30 7 1 8 7
M  V30 8 1 9 8
M  V30 9 1 10 9
M  V30 10 2 11 10
M  V30 11 1 12 11
M  V30 12 2 13 12
M  V30 13 1 14 13
M  V30 14 1 15 10
M  V30 15 2 15 14
M  V30 16 1 16 15
M  V30 17 1 17 16
M  V30 18 1 18 17
M  V30 19 1 19 18
M  V30 20 1 20 19
M  V30 21 1 21 20
M  V30 22 1 22 21
M  V30 23 1 23 22
M  V30 24 2 24 23
M  V30 25 1 25 24
M  V30 26 1 26 25
M  V30 27 1 27 26
M  V30 28 2 28 25
M  V30 29 1 29 28
M  V30 30 1 30 29
M  V30 31 1 31 28
M  V30 32 1 32 23
M  V30 33 2 32 31
M  V30 34 1 33 20
M  V30 35 1 33 32
M  V30 36 1 34 3
M  V30 37 2 34 7
M  V30 38 1 35 1
M  V30 39 1 36 1
M  V30 40 1 37 1
M  V30 41 1 38 4
M  V30 42 1 39 5
M  V30 43 1 40 6
M  V30 44 1 41 8
M  V30 45 1 42 8
M  V30 46 1 43 9
M  V30 47 1 44 9
M  V30 48 1 45 11
M  V30 49 1 46 12
M  V30 50 1 47 13
M  V30 51 1 48 14
M  V30 52 1 49 17
M  V30 53 1 50 17
M  V30 54 1 51 18
M  V30 55 1 52 18
M  V30 56 1 53 19
M  V30 57 1 54 19
M  V30 58 1 55 21
M  V30 59 1 56 21
M  V30 60 1 57 22
M  V30 61 1 58 22
M  V30 62 1 59 24
M  V30 63 1 60 27
M  V30 64 1 61 27
M  V30 65 1 62 27
M  V30 66 1 63 30
M  V30 67 1 64 30
M  V30 68 1 65 30
M  V30 69 1 66 31
M  V30 70 1 67 33
M  V30 71 1 68 33
M  V30 72 1 69 34
M  V30 73 1 20 70 CFG=1
M  V30 END BOND
M  V30 END CTAB
M  END
>  <b_m_subgroup_collapsed>  (848) 
0

>  <r_i_docking_score>  (848) 
-7.7817489122913903

>  <s_m_subgroup_title>  (848) 
glide-dock_SP_D22_pv

>  <s_m_subgroupid>  (848) 
glide-dock_SP_D22_pv

>  <Molecule ChEMBL ID>  (848) 
CHEMBL486337

>  <Standard Type>  (848) 
Ki

>  <Standard Value>  (848) 
1000000.0

>  <label>  (848) 
0

$$$$
CHEMBL542148
     RDKit          3D

  0  0  0  0  0  0  0  0  0  0999 V3000
M  V30 BEGIN CTAB
M  V30 COUNTS 35 36 0 0 1
M  V30 BEGIN ATOM
M  V30 1 C 9.556283 7.192802 -11.389204 0
M  V30 2 N 8.886023 7.071531 -10.077660 0 CHG=1
M  V30 3 C 8.711443 5.673701 -9.619818 0
M  V30 4 C 9.286022 8.056621 -9.036322 0
M  V30 5 C 10.714593 7.924808 -8.454666 0 CFG=2
M  V30 6 C 11.833787 8.464724 -9.369709 0
M  V30 7 O 10.998430 6.573114 -8.117012 0
M  V30 8 C 11.330276 6.516876 -6.793519 0
M  V30 9 C 11.267619 7.662995 -6.114161 0
M  V30 10 C 11.582130 7.885685 -4.690392 0
M  V30 11 C 11.736944 6.776740 -3.833920 0
M  V30 12 C 12.086021 6.962701 -2.486555 0
M  V30 13 C 12.268774 8.261540 -1.980804 0
M  V30 14 C 12.086022 9.372324 -2.820258 0
M  V30 15 C 11.761254 9.189111 -4.173769 0
M  V30 16 C 10.792498 8.606503 -7.092566 0
M  V30 17 O 10.486022 9.772324 -6.894589 0
M  V30 18 H 10.531844 6.708932 -11.385651 0
M  V30 19 H 8.953578 6.708119 -12.157991 0
M  V30 20 H 9.677847 8.237989 -11.676007 0
M  V30 21 H 9.660161 5.142804 -9.545212 0
M  V30 22 H 8.211421 5.639023 -8.650747 0
M  V30 23 H 8.086020 5.127909 -10.326866 0
M  V30 24 H 8.550818 7.970290 -8.232823 0
M  V30 25 H 9.143690 9.060759 -9.438721 0
M  V30 26 H 11.579788 9.444113 -9.776772 0
M  V30 27 H 12.777069 8.572325 -8.831302 0
M  V30 28 H 12.036073 7.797819 -10.204483 0
M  V30 29 H 11.663501 5.548298 -6.456369 0
M  V30 30 H 11.597888 5.772325 -4.199871 0
M  V30 31 H 12.212838 6.102063 -1.846865 0
M  V30 32 H 12.537536 8.412198 -0.948247 0
M  V30 33 H 12.203428 10.371069 -2.429294 0
M  V30 34 H 11.661593 10.065485 -4.794606 0
M  V30 35 H 7.914206 7.372324 -10.246865 0
M  V30 END ATOM
M  V30 BEGIN BOND
M  V30 1 1 2 1
M  V30 2 1 3 2
M  V30 3 1 4 2
M  V30 4 1 5 4 CFG=3
M  V30 5 1 6 5
M  V30 6 1 7 5
M  V30 7 1 8 7
M  V30 8 2 9 8
M  V30 9 1 10 9
M  V30 10 2 11 10
M  V30 11 1 12 11
M  V30 12 2 13 12
M  V30 13 1 14 13
M  V30 14 1 15 10
M  V30 15 2 15 14
M  V30 16 1 16 5
M  V30 17 1 16 9
M  V30 18 2 17 16
M  V30 19 1 18 1
M  V30 20 1 19 1
M  V30 21 1 20 1
M  V30 22 1 21 3
M  V30 23 1 22 3
M  V30 24 1 23 3
M  V30 25 1 24 4
M  V30 26 1 25 4
M  V30 27 1 26 6
M  V30 28 1 27 6
M  V30 29 1 28 6
M  V30 30 1 29 8
M  V30 31 1 30 11
M  V30 32 1 31 12
M  V30 33 1 32 13
M  V30 34 1 33 14
M  V30 35 1 34 15
M  V30 36 1 35 2
M  V30 END BOND
M  V30 END CTAB
M  END
>  <b_m_subgroup_collapsed>  (849) 
0

>  <r_i_docking_score>  (849) 
-7.7800189600989098

>  <s_m_subgroup_title>  (849) 
glide-dock_SP_D22_pv

>  <s_m_subgroupid>  (849) 
glide-dock_SP_D22_pv

>  <Molecule ChEMBL ID>  (849) 
CHEMBL542148

>  <Standard Type>  (849) 
Ki

>  <Standard Value>  (849) 
10000.0

>  <label>  (849) 
0

$$$$
CHEMBL167032
     RDKit          3D

  0  0  0  0  0  0  0  0  0  0999 V3000
M  V30 BEGIN CTAB
M  V30 COUNTS 56 58 0 0 1
M  V30 BEGIN ATOM
M  V30 1 C 13.195163 5.719057 -15.344353 0
M  V30 2 O 12.090168 5.350028 -14.531528 0
M  V30 3 C 11.428008 4.167710 -14.800116 0
M  V30 4 C 11.835180 3.282295 -15.831550 0
M  V30 5 C 11.167060 2.062554 -16.056541 0
M  V30 6 N 11.686264 1.192557 -17.047455 0
M  V30 7 C 11.031203 0.760242 -18.135698 0
M  V30 8 C 11.802692 -0.182011 -19.053795 0
M  V30 9 O 9.878415 1.084990 -18.416172 0
M  V30 10 C 10.077441 1.704494 -15.230025 0
M  V30 11 Cl 9.289339 0.172417 -15.360662 0
M  V30 12 C 9.642002 2.594106 -14.233912 0
M  V30 13 C 10.308167 3.818208 -13.996669 0
M  V30 14 C 9.785917 4.745557 -12.929569 0
M  V30 15 O 9.838243 5.962877 -13.053776 0
M  V30 16 N 9.286325 4.174681 -11.826629 0
M  V30 17 C 8.586063 4.899525 -10.761936 0
M  V30 18 C 9.514536 5.674184 -9.794816 0 CFG=1
M  V30 19 C 10.147870 6.954038 -10.379527 0
M  V30 20 C 10.237446 7.914055 -9.215065 0
M  V30 21 N 9.000257 7.627838 -8.478868 0 CFG=2 CHG=1
M  V30 22 C 8.851188 8.281212 -7.160877 0
M  V30 23 C 10.070528 8.205465 -6.247124 0
M  V30 24 C 10.881302 9.340032 -6.030073 0
M  V30 25 C 11.888139 9.305651 -5.045114 0
M  V30 26 C 12.089978 8.142357 -4.278502 0
M  V30 27 C 11.341570 6.985115 -4.548804 0
M  V30 28 C 10.335840 7.023608 -5.527381 0
M  V30 29 C 8.762427 6.170562 -8.548065 0
M  V30 30 H 13.589336 6.675193 -15.000657 0
M  V30 31 H 14.001818 4.989107 -15.278889 0
M  V30 32 H 12.901567 5.844320 -16.387375 0
M  V30 33 H 12.682271 3.508205 -16.460560 0
M  V30 34 H 12.664785 0.956271 -16.969400 0
M  V30 35 H 12.199434 -1.027629 -18.491564 0
M  V30 36 H 11.152478 -0.573157 -19.837088 0
M  V30 37 H 12.633261 0.341476 -19.526907 0
M  V30 38 H 8.793246 2.308316 -13.631843 0
M  V30 39 H 9.321701 3.166676 -11.761146 0
M  V30 40 H 8.007817 4.172658 -10.193339 0
M  V30 41 H 7.845763 5.574523 -11.198363 0
M  V30 42 H 10.309628 5.011181 -9.451628 0
M  V30 43 H 9.477548 7.405809 -11.111331 0
M  V30 44 H 11.110977 6.788677 -10.859831 0
M  V30 45 H 10.292816 8.957010 -9.530371 0
M  V30 46 H 11.119138 7.683276 -8.616239 0
M  V30 47 H 7.979896 7.875885 -6.647081 0
M  V30 48 H 8.622442 9.327579 -7.363245 0
M  V30 49 H 10.708358 10.252957 -6.580900 0
M  V30 50 H 12.503902 10.172142 -4.867209 0
M  V30 51 H 12.853318 8.124567 -3.515592 0
M  V30 52 H 11.507629 6.084924 -3.975482 0
M  V30 53 H 9.695141 6.172554 -5.655258 0
M  V30 54 H 9.144052 5.657323 -7.668431 0
M  V30 55 H 7.690168 5.971447 -8.601371 0
M  V30 56 H 8.245469 7.991103 -9.051988 0
M  V30 END ATOM
M  V30 BEGIN BOND
M  V30 1 1 2 1
M  V30 2 1 3 2
M  V30 3 1 4 3
M  V30 4 2 5 4
M  V30 5 1 6 5
M  V30 6 1 7 6
M  V30 7 1 8 7
M  V30 8 2 9 7
M  V30 9 1 10 5
M  V30 10 1 11 10
M  V30 11 2 12 10
M  V30 12 2 13 3
M  V30 13 1 13 12
M  V30 14 1 14 13
M  V30 15 2 15 14
M  V30 16 1 16 14
M  V30 17 1 17 16
M  V30 18 1 18 17
M  V30 19 1 19 18
M  V30 20 1 20 19
M  V30 21 1 21 20
M  V30 22 1 22 21
M  V30 23 1 23 22
M  V30 24 2 24 23
M  V30 25 1 25 24
M  V30 26 2 26 25
M  V30 27 1 27 26
M  V30 28 1 28 23
M  V30 29 2 28 27
M  V30 30 1 29 18
M  V30 31 1 29 21
M  V30 32 1 30 1
M  V30 33 1 31 1
M  V30 34 1 32 1
M  V30 35 1 33 4
M  V30 36 1 34 6
M  V30 37 1 35 8
M  V30 38 1 36 8
M  V30 39 1 37 8
M  V30 40 1 38 12
M  V30 41 1 39 16
M  V30 42 1 40 17
M  V30 43 1 41 17
M  V30 44 1 18 42 CFG=1
M  V30 45 1 43 19
M  V30 46 1 44 19
M  V30 47 1 45 20
M  V30 48 1 46 20
M  V30 49 1 47 22
M  V30 50 1 48 22
M  V30 51 1 49 24
M  V30 52 1 50 25
M  V30 53 1 51 26
M  V30 54 1 52 27
M  V30 55 1 53 28
M  V30 56 1 54 29
M  V30 57 1 55 29
M  V30 58 1 21 56 CFG=3
M  V30 END BOND
M  V30 END CTAB
M  END
>  <b_m_subgroup_collapsed>  (850) 
0

>  <r_i_docking_score>  (850) 
-7.7787517139614497

>  <s_m_subgroup_title>  (850) 
glide-dock_SP_D22_pv

>  <s_m_subgroupid>  (850) 
glide-dock_SP_D22_pv

>  <Molecule ChEMBL ID>  (850) 
CHEMBL167032

>  <Standard Type>  (850) 
Ki

>  <Standard Value>  (850) 
25000.0

>  <label>  (850) 
0

$$$$
CHEMBL1765629
     RDKit          3D

  0  0  0  0  0  0  0  0  0  0999 V3000
M  V30 BEGIN CTAB
M  V30 COUNTS 67 70 0 0 1
M  V30 BEGIN ATOM
M  V30 1 C 10.656882 3.657510 -18.850529 0
M  V30 2 C 10.594915 2.807152 -17.576860 0
M  V30 3 C 9.187870 2.800620 -16.948502 0
M  V30 4 N 9.105782 1.915542 -15.748303 0 CFG=1 CHG=1
M  V30 5 C 9.714151 2.572867 -14.544048 0
M  V30 6 C 8.800406 3.603309 -13.832038 0
M  V30 7 C 9.448244 4.256835 -12.598668 0
M  V30 8 C 8.515525 5.293499 -11.942160 0
M  V30 9 N 9.057418 5.803214 -10.688148 0
M  V30 10 C 9.737062 6.951083 -10.526562 0
M  V30 11 O 10.084439 7.670363 -11.465129 0
M  V30 12 C 10.140433 7.274548 -9.111502 0
M  V30 13 C 9.409946 6.772610 -8.008702 0
M  V30 14 C 9.830766 7.040685 -6.693195 0
M  V30 15 C 10.964540 7.840858 -6.441867 0
M  V30 16 C 11.414246 8.069031 -5.057802 0
M  V30 17 C 11.685786 6.971053 -4.212576 0
M  V30 18 C 12.086716 7.162972 -2.877035 0
M  V30 19 C 12.238864 8.467996 -2.375445 0
M  V30 20 C 11.987560 9.569882 -3.211295 0
M  V30 21 C 11.584518 9.373091 -4.546829 0
M  V30 22 C 11.658651 8.390017 -7.541552 0
M  V30 23 C 11.254458 8.108184 -8.862163 0
M  V30 24 C 7.770169 1.261382 -15.498414 0 CFG=2
M  V30 25 C 7.839006 0.228645 -14.338483 0
M  V30 26 C 6.460492 -0.326811 -13.932793 0
M  V30 27 N 5.653202 -0.606468 -15.098793 0
M  V30 28 N 4.484574 -1.262810 -14.978288 0
M  V30 29 C 4.028017 -1.338888 -16.218042 0
M  V30 30 C 4.879987 -0.691272 -17.158209 0
M  V30 31 C 5.914557 -0.227500 -16.396873 0
M  V30 32 C 7.152907 0.543484 -16.735104 0
M  V30 33 H 11.661760 3.650999 -19.273441 0
M  V30 34 H 10.389192 4.695240 -18.650522 0
M  V30 35 H 9.978004 3.279760 -19.615366 0
M  V30 36 H 10.895081 1.787149 -17.820271 0
M  V30 37 H 11.339625 3.188561 -16.878197 0
M  V30 38 H 8.886230 3.815965 -16.693964 0
M  V30 39 H 8.511428 2.490473 -17.738585 0
M  V30 40 H 10.034805 1.802377 -13.846760 0
M  V30 41 H 10.644285 3.068316 -14.818348 0
M  V30 42 H 8.508503 4.389951 -14.529229 0
M  V30 43 H 7.877884 3.128986 -13.497273 0
M  V30 44 H 9.701792 3.481227 -11.871387 0
M  V30 45 H 10.386252 4.738055 -12.881246 0
M  V30 46 H 8.307492 6.114735 -12.631065 0
M  V30 47 H 7.551784 4.835924 -11.714276 0
M  V30 48 H 8.819111 5.290833 -9.852143 0
M  V30 49 H 8.521152 6.173972 -8.153905 0
M  V30 50 H 9.272923 6.623650 -5.867162 0
M  V30 51 H 11.565696 5.965185 -4.588579 0
M  V30 52 H 12.273804 6.307980 -2.242300 0
M  V30 53 H 12.539142 8.627254 -1.350162 0
M  V30 54 H 12.087875 10.570660 -2.816924 0
M  V30 55 H 11.384884 10.229774 -5.174294 0
M  V30 56 H 12.525444 9.012830 -7.375047 0
M  V30 57 H 11.818111 8.523499 -9.687399 0
M  V30 58 H 7.062326 2.042724 -15.219471 0
M  V30 59 H 8.473971 -0.601635 -14.648549 0
M  V30 60 H 8.299829 0.634401 -13.446655 0
M  V30 61 H 6.565276 -1.238365 -13.340648 0
M  V30 62 H 5.925899 0.399187 -13.319147 0
M  V30 63 H 3.090186 -1.843886 -16.394171 0
M  V30 64 H 4.746600 -0.589626 -18.225227 0
M  V30 65 H 6.873107 1.250696 -17.511379 0
M  V30 66 H 7.881989 -0.136646 -17.175657 0
M  V30 67 H 9.721478 1.144799 -15.968232 0
M  V30 END ATOM
M  V30 BEGIN BOND
M  V30 1 1 2 1
M  V30 2 1 3 2
M  V30 3 1 4 3
M  V30 4 1 5 4
M  V30 5 1 6 5
M  V30 6 1 7 6
M  V30 7 1 8 7
M  V30 8 1 9 8
M  V30 9 1 10 9
M  V30 10 2 11 10
M  V30 11 1 12 10
M  V30 12 1 13 12
M  V30 13 2 14 13
M  V30 14 1 15 14
M  V30 15 1 16 15
M  V30 16 2 17 16
M  V30 17 1 18 17
M  V30 18 2 19 18
M  V30 19 1 20 19
M  V30 20 1 21 16
M  V30 21 2 21 20
M  V30 22 2 22 15
M  V30 23 2 23 12
M  V30 24 1 23 22
M  V30 25 1 24 4
M  V30 26 1 25 24
M  V30 27 1 26 25
M  V30 28 1 27 26
M  V30 29 1 28 27
M  V30 30 2 29 28
M  V30 31 1 30 29
M  V30 32 1 31 27
M  V30 33 2 31 30
M  V30 34 1 32 24
M  V30 35 1 32 31
M  V30 36 1 33 1
M  V30 37 1 34 1
M  V30 38 1 35 1
M  V30 39 1 36 2
M  V30 40 1 37 2
M  V30 41 1 38 3
M  V30 42 1 39 3
M  V30 43 1 40 5
M  V30 44 1 41 5
M  V30 45 1 42 6
M  V30 46 1 43 6
M  V30 47 1 44 7
M  V30 48 1 45 7
M  V30 49 1 46 8
M  V30 50 1 47 8
M  V30 51 1 48 9
M  V30 52 1 49 13
M  V30 53 1 50 14
M  V30 54 1 51 17
M  V30 55 1 52 18
M  V30 56 1 53 19
M  V30 57 1 54 20
M  V30 58 1 55 21
M  V30 59 1 56 22
M  V30 60 1 57 23
M  V30 61 1 24 58 CFG=1
M  V30 62 1 59 25
M  V30 63 1 60 25
M  V30 64 1 61 26
M  V30 65 1 62 26
M  V30 66 1 63 29
M  V30 67 1 64 30
M  V30 68 1 65 32
M  V30 69 1 66 32
M  V30 70 1 4 67 CFG=3
M  V30 END BOND
M  V30 END CTAB
M  END
>  <b_m_subgroup_collapsed>  (851) 
0

>  <r_i_docking_score>  (851) 
-7.7787147272263502

>  <s_m_subgroup_title>  (851) 
glide-dock_SP_D22_pv

>  <s_m_subgroupid>  (851) 
glide-dock_SP_D22_pv

>  <Molecule ChEMBL ID>  (851) 
CHEMBL1765629

>  <Standard Type>  (851) 
Ki

>  <Standard Value>  (851) 
77.0

>  <label>  (851) 
1

$$$$
CHEMBL383102
     RDKit          3D

  0  0  0  0  0  0  0  0  0  0999 V3000
M  V30 BEGIN CTAB
M  V30 COUNTS 43 47 0 0 1
M  V30 BEGIN ATOM
M  V30 1 C 7.079512 3.723055 -13.800712 0
M  V30 2 C 6.453342 4.630632 -12.928812 0
M  V30 3 C 7.228725 5.457759 -12.091798 0
M  V30 4 C 8.637322 5.358957 -12.096781 0
M  V30 5 C 9.523711 6.206633 -11.187432 0 CFG=1
M  V30 6 C 10.201645 7.371952 -11.895696 0
M  V30 7 C 10.724030 8.181158 -10.720414 0
M  V30 8 C 9.603199 8.090311 -9.682737 0 CFG=2
M  V30 9 C 10.146700 8.180930 -8.290203 0
M  V30 10 N 10.614698 9.312736 -7.648489 0
M  V30 11 C 11.055104 9.003483 -6.374511 0
M  V30 12 C 11.584929 9.791887 -5.339498 0
M  V30 13 C 11.977738 9.179587 -4.133962 0
M  V30 14 C 11.830941 7.787229 -3.976712 0
M  V30 15 C 11.284491 7.004562 -5.016723 0
M  V30 16 C 10.885698 7.594242 -6.239236 0
M  V30 17 C 10.318744 7.119420 -7.468483 0
M  V30 18 C 9.927841 5.772491 -7.920303 0
M  V30 19 C 8.712021 5.840815 -8.856683 0
M  V30 20 N 8.886134 6.801001 -9.986166 0 CFG=2 CHG=1
M  V30 21 C 9.256155 4.441001 -12.975098 0
M  V30 22 C 8.482494 3.634570 -13.831574 0
M  V30 23 H 6.484235 3.094992 -14.447171 0
M  V30 24 H 5.376538 4.705092 -12.907640 0
M  V30 25 H 6.717987 6.156981 -11.446919 0
M  V30 26 H 10.310583 5.550823 -10.820086 0
M  V30 27 H 10.984986 7.057255 -12.584662 0
M  V30 28 H 9.468829 7.958756 -12.449847 0
M  V30 29 H 11.628534 7.698747 -10.343205 0
M  V30 30 H 10.986450 9.205707 -10.967996 0
M  V30 31 H 8.883240 8.895336 -9.849255 0
M  V30 32 H 10.629655 10.228177 -8.076954 0
M  V30 33 H 11.695123 10.858521 -5.469883 0
M  V30 34 H 12.392686 9.774328 -3.329918 0
M  V30 35 H 12.130846 7.313753 -3.051882 0
M  V30 36 H 11.172079 5.939773 -4.877021 0
M  V30 37 H 10.764672 5.271816 -8.405531 0
M  V30 38 H 9.667594 5.201040 -7.048304 0
M  V30 39 H 8.448284 4.848142 -9.225760 0
M  V30 40 H 7.858669 6.172237 -8.269711 0
M  V30 41 H 10.333021 4.348952 -12.999234 0
M  V30 42 H 8.964722 2.935705 -14.498097 0
M  V30 43 H 7.938907 7.093304 -10.247447 0
M  V30 END ATOM
M  V30 BEGIN BOND
M  V30 1 2 2 1
M  V30 2 1 3 2
M  V30 3 2 4 3
M  V30 4 1 5 4
M  V30 5 1 6 5
M  V30 6 1 7 6
M  V30 7 1 8 7
M  V30 8 1 9 8
M  V30 9 1 10 9
M  V30 10 1 11 10
M  V30 11 2 12 11
M  V30 12 1 13 12
M  V30 13 2 14 13
M  V30 14 1 15 14
M  V30 15 1 16 11
M  V30 16 2 16 15
M  V30 17 2 17 9
M  V30 18 1 17 16
M  V30 19 1 18 17
M  V30 20 1 19 18
M  V30 21 1 20 5
M  V30 22 1 20 8
M  V30 23 1 20 19
M  V30 24 1 21 4
M  V30 25 1 22 1
M  V30 26 2 22 21
M  V30 27 1 23 1
M  V30 28 1 24 2
M  V30 29 1 25 3
M  V30 30 1 5 26 CFG=1
M  V30 31 1 27 6
M  V30 32 1 28 6
M  V30 33 1 29 7
M  V30 34 1 30 7
M  V30 35 1 8 31 CFG=3
M  V30 36 1 32 10
M  V30 37 1 33 12
M  V30 38 1 34 13
M  V30 39 1 35 14
M  V30 40 1 36 15
M  V30 41 1 37 18
M  V30 42 1 38 18
M  V30 43 1 39 19
M  V30 44 1 40 19
M  V30 45 1 41 21
M  V30 46 1 42 22
M  V30 47 1 20 43 CFG=3
M  V30 END BOND
M  V30 END CTAB
M  END
>  <b_m_subgroup_collapsed>  (852) 
0

>  <r_i_docking_score>  (852) 
-7.7773799409813904

>  <s_m_subgroup_title>  (852) 
glide-dock_SP_D22_pv

>  <s_m_subgroupid>  (852) 
glide-dock_SP_D22_pv

>  <Molecule ChEMBL ID>  (852) 
CHEMBL383102

>  <Standard Type>  (852) 
Ki

>  <Standard Value>  (852) 
10000.0

>  <label>  (852) 
0

$$$$
CHEMBL106660
     RDKit          3D

  0  0  0  0  0  0  0  0  0  0999 V3000
M  V30 BEGIN CTAB
M  V30 COUNTS 65 69 0 0 1
M  V30 BEGIN ATOM
M  V30 1 Cl 13.685045 7.688606 -17.465641 0
M  V30 2 C 12.310584 6.646657 -17.456656 0
M  V30 3 C 11.470140 6.575999 -18.583870 0
M  V30 4 C 10.335189 5.742671 -18.564186 0
M  V30 5 C 10.045786 4.973192 -17.420259 0
M  V30 6 C 10.891096 5.031382 -16.288649 0
M  V30 7 C 10.598262 4.233498 -15.025136 0 CFG=1
M  V30 8 O 9.820518 5.029490 -14.124564 0
M  V30 9 C 10.163362 4.945858 -12.741301 0 CFG=1
M  V30 10 C 10.136157 6.368963 -12.124536 0
M  V30 11 C 8.745531 6.767275 -11.570786 0 CFG=1
M  V30 12 C 7.662552 6.682320 -12.659822 0
M  V30 13 C 7.071197 5.270092 -12.512081 0
M  V30 14 C 7.933021 4.614453 -11.425296 0 CFG=1
M  V30 15 C 9.226441 3.962752 -12.001483 0
M  V30 16 N 8.279882 5.772365 -10.581803 0 CFG=1 CHG=1
M  V30 17 C 9.109523 5.508868 -9.376561 0
M  V30 18 C 9.410275 6.765558 -8.535736 0
M  V30 19 C 10.108040 6.363084 -7.225049 0
M  V30 20 C 10.628630 7.469560 -6.317598 0
M  V30 21 C 10.487962 8.843208 -6.619939 0
M  V30 22 C 11.005063 9.815938 -5.739553 0
M  V30 23 C 11.658916 9.426215 -4.554446 0
M  V30 24 C 11.801301 8.061658 -4.247292 0
M  V30 25 C 11.285558 7.089840 -5.125992 0
M  V30 26 C 9.986435 2.863052 -15.304277 0
M  V30 27 C 8.590025 2.668405 -15.247247 0
M  V30 28 C 8.025504 1.411448 -15.528320 0
M  V30 29 C 8.859056 0.336193 -15.880028 0
M  V30 30 C 10.252425 0.519579 -15.949655 0
M  V30 31 C 10.815433 1.779611 -15.666925 0
M  V30 32 C 12.021584 5.876525 -16.314297 0
M  V30 33 H 11.688349 7.170527 -19.458870 0
M  V30 34 H 9.684118 5.696604 -19.425142 0
M  V30 35 H 9.166818 4.346940 -17.420109 0
M  V30 36 H 11.582517 4.033871 -14.599396 0
M  V30 37 H 11.184813 4.582245 -12.646929 0
M  V30 38 H 10.482866 7.093298 -12.861358 0
M  V30 39 H 10.863108 6.442639 -11.316756 0
M  V30 40 H 8.779651 7.768053 -11.138248 0
M  V30 41 H 8.078293 6.839567 -13.650314 0
M  V30 42 H 6.888090 7.434330 -12.506222 0
M  V30 43 H 7.061098 4.714752 -13.446189 0
M  V30 44 H 6.038326 5.343679 -12.167562 0
M  V30 45 H 7.344250 3.885012 -10.866160 0
M  V30 46 H 9.794639 3.503305 -11.195506 0
M  V30 47 H 8.974679 3.133703 -12.656544 0
M  V30 48 H 10.053450 5.033775 -9.640669 0
M  V30 49 H 8.565886 4.788451 -8.762414 0
M  V30 50 H 8.487439 7.306499 -8.315098 0
M  V30 51 H 10.052185 7.437910 -9.104989 0
M  V30 52 H 10.954383 5.714030 -7.450611 0
M  V30 53 H 9.403500 5.771698 -6.644769 0
M  V30 54 H 9.985074 9.167244 -7.518595 0
M  V30 55 H 10.897131 10.864660 -5.972635 0
M  V30 56 H 12.048509 10.171129 -3.876781 0
M  V30 57 H 12.300167 7.758777 -3.338598 0
M  V30 58 H 11.397569 6.043333 -4.880276 0
M  V30 59 H 7.944631 3.490248 -14.992630 0
M  V30 60 H 6.955120 1.273342 -15.481390 0
M  V30 61 H 8.424393 -0.625640 -16.103518 0
M  V30 62 H 10.885967 -0.307251 -16.228186 0
M  V30 63 H 11.885546 1.912941 -15.734740 0
M  V30 64 H 12.667323 5.944880 -15.450692 0
M  V30 65 H 7.400907 6.157538 -10.245111 0
M  V30 END ATOM
M  V30 BEGIN BOND
M  V30 1 1 2 1
M  V30 2 1 3 2
M  V30 3 2 4 3
M  V30 4 1 5 4
M  V30 5 2 6 5
M  V30 6 1 7 6
M  V30 7 1 8 7
M  V30 8 1 9 8
M  V30 9 1 10 9
M  V30 10 1 11 10
M  V30 11 1 12 11
M  V30 12 1 13 12
M  V30 13 1 14 13
M  V30 14 1 15 9
M  V30 15 1 15 14
M  V30 16 1 16 11
M  V30 17 1 16 14
M  V30 18 1 17 16
M  V30 19 1 18 17
M  V30 20 1 19 18
M  V30 21 1 20 19
M  V30 22 2 21 20
M  V30 23 1 22 21
M  V30 24 2 23 22
M  V30 25 1 24 23
M  V30 26 1 25 20
M  V30 27 2 25 24
M  V30 28 1 26 7
M  V30 29 2 27 26
M  V30 30 1 28 27
M  V30 31 2 29 28
M  V30 32 1 30 29
M  V30 33 1 31 26
M  V30 34 2 31 30
M  V30 35 2 32 2
M  V30 36 1 32 6
M  V30 37 1 33 3
M  V30 38 1 34 4
M  V30 39 1 35 5
M  V30 40 1 7 36 CFG=1
M  V30 41 1 9 37 CFG=3
M  V30 42 1 38 10
M  V30 43 1 39 10
M  V30 44 1 11 40 CFG=1
M  V30 45 1 41 12
M  V30 46 1 42 12
M  V30 47 1 43 13
M  V30 48 1 44 13
M  V30 49 1 14 45 CFG=1
M  V30 50 1 46 15
M  V30 51 1 47 15
M  V30 52 1 48 17
M  V30 53 1 49 17
M  V30 54 1 50 18
M  V30 55 1 51 18
M  V30 56 1 52 19
M  V30 57 1 53 19
M  V30 58 1 54 21
M  V30 59 1 55 22
M  V30 60 1 56 23
M  V30 61 1 57 24
M  V30 62 1 58 25
M  V30 63 1 59 27
M  V30 64 1 60 28
M  V30 65 1 61 29
M  V30 66 1 62 30
M  V30 67 1 63 31
M  V30 68 1 64 32
M  V30 69 1 16 65 CFG=1
M  V30 END BOND
M  V30 END CTAB
M  END
>  <b_m_subgroup_collapsed>  (853) 
0

>  <r_i_docking_score>  (853) 
-7.7770281167757096

>  <s_m_subgroup_title>  (853) 
glide-dock_SP_D22_pv

>  <s_m_subgroupid>  (853) 
glide-dock_SP_D22_pv

>  <Molecule ChEMBL ID>  (853) 
CHEMBL106660

>  <Standard Type>  (853) 
Ki

>  <Standard Value>  (853) 
59.0

>  <label>  (853) 
1

$$$$
CHEMBL3695445
     RDKit          3D

  0  0  0  0  0  0  0  0  0  0999 V3000
M  V30 BEGIN CTAB
M  V30 COUNTS 78 83 0 0 1
M  V30 BEGIN ATOM
M  V30 1 O 9.948605 8.169052 -11.518748 0
M  V30 2 C 9.620970 7.369667 -10.640934 0
M  V30 3 N 8.999735 6.207533 -10.898955 0
M  V30 4 C 8.788887 5.646893 -12.226156 0 CFG=1
M  V30 5 C 10.120896 5.057457 -12.724859 0
M  V30 6 C 9.976788 4.326315 -14.061323 0
M  V30 7 C 8.951443 3.182422 -13.947364 0 CFG=2
M  V30 8 C 8.819982 2.376918 -15.256521 0
M  V30 9 C 10.124887 1.660321 -15.696769 0
M  V30 10 N 10.000170 0.838091 -16.930168 0 CFG=2 CHG=1
M  V30 11 C 9.389638 1.559317 -18.076216 0
M  V30 12 C 9.462078 0.714148 -19.353760 0
M  V30 13 C 8.695999 -0.615757 -19.181679 0 CFG=2
M  V30 14 C 7.166057 -0.458911 -19.062422 0
M  V30 15 C 6.421206 -1.010591 -17.979788 0
M  V30 16 C 5.018471 -0.876257 -17.893826 0
M  V30 17 C 4.303450 -0.196868 -18.897745 0
M  V30 18 C 5.025428 0.324656 -19.975653 0
M  V30 19 C 6.406309 0.200584 -20.057764 0
M  V30 20 C 6.845392 0.849602 -21.333488 0
M  V30 21 C 5.500819 1.069919 -22.052330 0
M  V30 22 O 4.486041 0.972089 -21.046085 0
M  V30 23 C 9.373554 -1.348757 -18.003456 0
M  V30 24 C 9.400143 -0.503996 -16.702492 0
M  V30 25 C 7.595023 3.769691 -13.489243 0
M  V30 26 C 7.707386 4.551042 -12.167123 0
M  V30 27 C 10.024571 7.589428 -9.210298 0
M  V30 28 C 11.161046 8.374348 -8.919971 0
M  V30 29 C 11.568909 8.571984 -7.587770 0
M  V30 30 C 10.854613 7.986060 -6.521940 0
M  V30 31 C 11.287898 8.203204 -5.136147 0
M  V30 32 C 11.684501 7.132594 -4.302288 0
M  V30 33 C 12.087447 7.405731 -2.981685 0
M  V30 34 C 12.087513 8.742398 -2.544822 0
M  V30 35 N 11.715672 9.772118 -3.330947 0
M  V30 36 C 11.332390 9.502728 -4.593800 0
M  V30 37 C 9.707911 7.216743 -6.813422 0
M  V30 38 C 9.286088 7.029050 -8.142358 0
M  V30 39 H 8.712560 5.645598 -10.110825 0
M  V30 40 H 8.457689 6.432734 -12.906733 0
M  V30 41 H 10.875871 5.840011 -12.817253 0
M  V30 42 H 10.483765 4.347319 -11.981124 0
M  V30 43 H 9.679971 5.028730 -14.841505 0
M  V30 44 H 10.958943 3.945515 -14.339921 0
M  V30 45 H 9.298009 2.496565 -13.173556 0
M  V30 46 H 8.027113 1.639221 -15.135684 0
M  V30 47 H 8.485617 3.059302 -16.037640 0
M  V30 48 H 10.901878 2.399756 -15.892585 0
M  V30 49 H 10.501487 1.039137 -14.881555 0
M  V30 50 H 8.345685 1.800405 -17.867355 0
M  V30 51 H 9.910227 2.507591 -18.232904 0
M  V30 52 H 9.113106 1.286520 -20.205229 0
M  V30 53 H 10.509291 0.499751 -19.577833 0
M  V30 54 H 8.855925 -1.215089 -20.079426 0
M  V30 55 H 6.888789 -1.571916 -17.189894 0
M  V30 56 H 4.486556 -1.309258 -17.058250 0
M  V30 57 H 3.229188 -0.100754 -18.847612 0
M  V30 58 H 7.302322 1.814153 -21.116999 0
M  V30 59 H 7.532897 0.229889 -21.910994 0
M  V30 60 H 5.467815 2.024468 -22.580429 0
M  V30 61 H 5.321392 0.275622 -22.779222 0
M  V30 62 H 8.900696 -2.319470 -17.846754 0
M  V30 63 H 10.401925 -1.582955 -18.279966 0
M  V30 64 H 9.985010 -1.027707 -15.946177 0
M  V30 65 H 8.399378 -0.382063 -16.292330 0
M  V30 66 H 7.201523 4.444903 -14.248230 0
M  V30 67 H 6.858682 2.972546 -13.380722 0
M  V30 68 H 7.933060 3.851376 -11.364141 0
M  V30 69 H 6.742952 4.997993 -11.917406 0
M  V30 70 H 11.735428 8.825188 -9.718904 0
M  V30 71 H 12.445939 9.169792 -7.386796 0
M  V30 72 H 11.674229 6.118148 -4.668126 0
M  V30 73 H 12.386553 6.606645 -2.320343 0
M  V30 74 H 12.389141 8.991436 -1.538741 0
M  V30 75 H 11.040792 10.355678 -5.190596 0
M  V30 76 H 9.135652 6.773469 -6.011220 0
M  V30 77 H 8.388295 6.456975 -8.329283 0
M  V30 78 H 10.953824 0.651954 -17.214708 0
M  V30 END ATOM
M  V30 BEGIN BOND
M  V30 1 2 2 1
M  V30 2 1 3 2
M  V30 3 1 4 3
M  V30 4 1 5 4
M  V30 5 1 6 5
M  V30 6 1 7 6
M  V30 7 1 8 7
M  V30 8 1 9 8
M  V30 9 1 10 9
M  V30 10 1 11 10
M  V30 11 1 12 11
M  V30 12 1 13 12
M  V30 13 1 14 13
M  V30 14 2 15 14
M  V30 15 1 16 15
M  V30 16 2 17 16
M  V30 17 1 18 17
M  V30 18 1 19 14
M  V30 19 2 19 18
M  V30 20 1 20 19
M  V30 21 1 21 20
M  V30 22 1 22 18
M  V30 23 1 22 21
M  V30 24 1 23 13
M  V30 25 1 24 10
M  V30 26 1 24 23
M  V30 27 1 25 7
M  V30 28 1 26 4
M  V30 29 1 26 25
M  V30 30 1 27 2
M  V30 31 1 28 27
M  V30 32 2 29 28
M  V30 33 1 30 29
M  V30 34 1 31 30
M  V30 35 2 32 31
M  V30 36 1 33 32
M  V30 37 2 34 33
M  V30 38 1 35 34
M  V30 39 1 36 31
M  V30 40 2 36 35
M  V30 41 2 37 30
M  V30 42 2 38 27
M  V30 43 1 38 37
M  V30 44 1 39 3
M  V30 45 1 4 40 CFG=3
M  V30 46 1 41 5
M  V30 47 1 42 5
M  V30 48 1 43 6
M  V30 49 1 44 6
M  V30 50 1 7 45 CFG=1
M  V30 51 1 46 8
M  V30 52 1 47 8
M  V30 53 1 48 9
M  V30 54 1 49 9
M  V30 55 1 50 11
M  V30 56 1 51 11
M  V30 57 1 52 12
M  V30 58 1 53 12
M  V30 59 1 13 54 CFG=3
M  V30 60 1 55 15
M  V30 61 1 56 16
M  V30 62 1 57 17
M  V30 63 1 58 20
M  V30 64 1 59 20
M  V30 65 1 60 21
M  V30 66 1 61 21
M  V30 67 1 62 23
M  V30 68 1 63 23
M  V30 69 1 64 24
M  V30 70 1 65 24
M  V30 71 1 66 25
M  V30 72 1 67 25
M  V30 73 1 68 26
M  V30 74 1 69 26
M  V30 75 1 70 28
M  V30 76 1 71 29
M  V30 77 1 72 32
M  V30 78 1 73 33
M  V30 79 1 74 34
M  V30 80 1 75 36
M  V30 81 1 76 37
M  V30 82 1 77 38
M  V30 83 1 10 78 CFG=3
M  V30 END BOND
M  V30 END CTAB
M  END
>  <b_m_subgroup_collapsed>  (854) 
0

>  <r_i_docking_score>  (854) 
-7.7761228470737898

>  <s_m_subgroup_title>  (854) 
glide-dock_SP_D22_pv

>  <s_m_subgroupid>  (854) 
glide-dock_SP_D22_pv

>  <Molecule ChEMBL ID>  (854) 
CHEMBL3695445

>  <Standard Type>  (854) 
Ki

>  <Standard Value>  (854) 
99.8

>  <label>  (854) 
1

$$$$
CHEMBL5871355
     RDKit          3D

  0  0  0  0  0  0  0  0  0  0999 V3000
M  V30 BEGIN CTAB
M  V30 COUNTS 55 57 0 0 1
M  V30 BEGIN ATOM
M  V30 1 C 11.500887 4.482769 -13.930631 0
M  V30 2 C 10.564072 5.694313 -14.083214 0
M  V30 3 N 9.517199 5.767533 -13.045717 0
M  V30 4 C 9.593271 6.930006 -12.148211 0
M  V30 5 C 10.518321 6.640100 -10.973123 0
M  V30 6 N 10.426951 7.697406 -9.946958 0 CFG=2 CHG=1
M  V30 7 C 11.713656 7.999949 -9.283152 0
M  V30 8 C 11.542586 9.172178 -8.315081 0
M  V30 9 C 10.438294 8.931171 -7.274535 0 CFG=2
M  V30 10 C 10.886552 7.999900 -6.183174 0
M  V30 11 C 10.986879 6.629823 -6.184836 0
M  V30 12 N 11.465893 6.202267 -4.964053 0
M  V30 13 C 11.720611 7.270553 -4.143343 0
M  V30 14 C 12.249914 7.356670 -2.847410 0
M  V30 15 C 12.428546 8.623096 -2.272030 0
M  V30 16 F 12.978254 8.733705 -1.046753 0
M  V30 17 C 12.035107 9.773927 -2.974846 0
M  V30 18 C 11.504049 9.678965 -4.271199 0
M  V30 19 C 11.350771 8.422894 -4.894718 0
M  V30 20 C 9.132300 8.514310 -7.967426 0
M  V30 21 C 9.359231 7.382165 -8.976637 0
M  V30 22 C 8.478054 4.890137 -13.049079 0
M  V30 23 O 8.368293 4.010767 -13.904093 0
M  V30 24 C 7.393281 4.954189 -11.960793 0
M  V30 25 C 6.084558 5.583292 -12.471868 0
M  V30 26 O 6.208837 6.982050 -12.646867 0
M  V30 27 H 12.171595 4.411550 -14.786938 0
M  V30 28 H 12.126813 4.575302 -13.047073 0
M  V30 29 H 10.957861 3.539832 -13.867285 0
M  V30 30 H 10.090069 5.666393 -15.066346 0
M  V30 31 H 11.187726 6.587763 -14.080667 0
M  V30 32 H 9.983771 7.812921 -12.647135 0
M  V30 33 H 8.609361 7.249515 -11.813926 0
M  V30 34 H 10.312002 5.662172 -10.535537 0
M  V30 35 H 11.527905 6.618492 -11.378735 0
M  V30 36 H 12.074117 7.126774 -8.747445 0
M  V30 37 H 12.469522 8.254249 -10.028713 0
M  V30 38 H 12.491627 9.371639 -7.814301 0
M  V30 39 H 11.285448 10.054588 -8.902828 0
M  V30 40 H 10.239191 9.893921 -6.807343 0
M  V30 41 H 10.767513 5.891540 -6.937438 0
M  V30 42 H 11.572537 5.222227 -4.727137 0
M  V30 43 H 12.533689 6.464821 -2.308150 0
M  V30 44 H 12.110135 10.743813 -2.511590 0
M  V30 45 H 11.218967 10.578769 -4.795877 0
M  V30 46 H 8.375221 8.231679 -7.233631 0
M  V30 47 H 8.723233 9.373185 -8.501554 0
M  V30 48 H 8.481682 7.216281 -9.564850 0
M  V30 49 H 9.540953 6.432188 -8.486387 0
M  V30 50 H 7.729813 5.427003 -11.040246 0
M  V30 51 H 7.180076 3.923854 -11.673558 0
M  V30 52 H 5.286626 5.397859 -11.751598 0
M  V30 53 H 5.773108 5.125791 -13.412056 0
M  V30 54 H 6.247524 7.372136 -11.762761 0
M  V30 55 H 10.151033 8.544121 -10.423607 0
M  V30 END ATOM
M  V30 BEGIN BOND
M  V30 1 1 2 1
M  V30 2 1 3 2
M  V30 3 1 4 3
M  V30 4 1 5 4
M  V30 5 1 6 5
M  V30 6 1 7 6
M  V30 7 1 8 7
M  V30 8 1 9 8
M  V30 9 1 10 9
M  V30 10 2 11 10
M  V30 11 1 12 11
M  V30 12 1 13 12
M  V30 13 1 14 13
M  V30 14 2 15 14
M  V30 15 1 16 15
M  V30 16 1 17 15
M  V30 17 2 18 17
M  V30 18 1 19 10
M  V30 19 2 19 13
M  V30 20 1 19 18
M  V30 21 1 20 9
M  V30 22 1 21 6
M  V30 23 1 21 20
M  V30 24 1 22 3
M  V30 25 2 23 22
M  V30 26 1 24 22
M  V30 27 1 25 24
M  V30 28 1 26 25
M  V30 29 1 27 1
M  V30 30 1 28 1
M  V30 31 1 29 1
M  V30 32 1 30 2
M  V30 33 1 31 2
M  V30 34 1 32 4
M  V30 35 1 33 4
M  V30 36 1 34 5
M  V30 37 1 35 5
M  V30 38 1 36 7
M  V30 39 1 37 7
M  V30 40 1 38 8
M  V30 41 1 39 8
M  V30 42 1 9 40 CFG=1
M  V30 43 1 41 11
M  V30 44 1 42 12
M  V30 45 1 43 14
M  V30 46 1 44 17
M  V30 47 1 45 18
M  V30 48 1 46 20
M  V30 49 1 47 20
M  V30 50 1 48 21
M  V30 51 1 49 21
M  V30 52 1 50 24
M  V30 53 1 51 24
M  V30 54 1 52 25
M  V30 55 1 53 25
M  V30 56 1 54 26
M  V30 57 1 6 55 CFG=3
M  V30 END BOND
M  V30 END CTAB
M  END
>  <b_m_subgroup_collapsed>  (855) 
0

>  <r_i_docking_score>  (855) 
-7.7742900993383097

>  <s_m_subgroup_title>  (855) 
glide-dock_SP_D22_pv

>  <s_m_subgroupid>  (855) 
glide-dock_SP_D22_pv

>  <Molecule ChEMBL ID>  (855) 
CHEMBL5871355

>  <Standard Type>  (855) 
Ki

>  <Standard Value>  (855) 
80.0

>  <label>  (855) 
1

$$$$
CHEMBL6047939
     RDKit          3D

  0  0  0  0  0  0  0  0  0  0999 V3000
M  V30 BEGIN CTAB
M  V30 COUNTS 63 67 0 0 1
M  V30 BEGIN ATOM
M  V30 1 C 10.341326 5.756151 -7.755587 0
M  V30 2 N 10.500131 7.162923 -8.011953 0
M  V30 3 C 10.298306 7.793846 -9.182160 0
M  V30 4 S 9.767716 6.929445 -10.629695 0
M  V30 5 C 10.751808 7.772347 -11.888120 0
M  V30 6 C 11.682995 6.829796 -12.648245 0
M  V30 7 C 12.243475 7.454587 -13.944706 0
M  V30 8 N 12.683347 6.450133 -14.945869 0 CFG=2 CHG=1
M  V30 9 C 13.127381 7.034875 -16.231153 0
M  V30 10 C 12.916172 5.947108 -17.290024 0 CFG=1
M  V30 11 C 14.098569 4.992521 -17.497620 0
M  V30 12 C 13.433152 3.638697 -17.759054 0
M  V30 13 N 12.193089 3.682550 -17.001575 0
M  V30 14 C 11.338156 2.568679 -16.842010 0
M  V30 15 C 11.712112 1.294736 -17.335037 0
M  V30 16 C 10.885823 0.171829 -17.142315 0
M  V30 17 C 9.669592 0.300170 -16.450836 0
M  V30 18 C 9.267532 1.557210 -15.959401 0
M  V30 19 C 7.944465 1.693119 -15.222137 0
M  V30 20 F 7.923826 2.786183 -14.457052 0
M  V30 21 F 6.955834 1.773569 -16.112602 0
M  V30 22 F 7.735673 0.632057 -14.442973 0
M  V30 23 C 10.095337 2.683825 -16.172640 0
M  V30 24 C 11.794871 5.060507 -16.746681 0 CFG=1
M  V30 25 C 11.687198 5.396451 -15.254173 0
M  V30 26 N 10.550867 9.099948 -9.128352 0
M  V30 27 N 10.942184 9.349919 -7.835326 0
M  V30 28 C 10.893406 8.177606 -7.199741 0
M  V30 29 C 11.274803 8.107425 -5.768142 0
M  V30 30 C 11.700676 9.310145 -5.056827 0
M  V30 31 C 12.090451 9.274132 -3.764630 0
M  V30 32 C 12.111707 8.026845 -3.010078 0
M  V30 33 O 12.486016 7.938824 -1.846610 0
M  V30 34 N 11.686370 6.947901 -3.691983 0
M  V30 35 C 11.285189 6.972261 -5.032382 0
M  V30 36 H 11.285491 5.372196 -7.378536 0
M  V30 37 H 10.097617 5.190887 -8.652868 0
M  V30 38 H 9.532096 5.611318 -7.046843 0
M  V30 39 H 10.039469 8.237156 -12.569339 0
M  V30 40 H 11.352635 8.564820 -11.446854 0
M  V30 41 H 12.512403 6.572348 -11.999231 0
M  V30 42 H 11.127849 5.911875 -12.834094 0
M  V30 43 H 11.503072 8.106461 -14.402330 0
M  V30 44 H 13.087019 8.100887 -13.697840 0
M  V30 45 H 12.501754 7.893173 -16.484165 0
M  V30 46 H 14.159154 7.382408 -16.183741 0
M  V30 47 H 12.629677 6.376800 -18.253450 0
M  V30 48 H 14.753570 5.301539 -18.311985 0
M  V30 49 H 14.701156 4.941993 -16.590393 0
M  V30 50 H 13.206691 3.513680 -18.818666 0
M  V30 51 H 14.082278 2.820997 -17.448256 0
M  V30 52 H 12.645163 1.152826 -17.857546 0
M  V30 53 H 11.191250 -0.794041 -17.516327 0
M  V30 54 H 9.042140 -0.566115 -16.300932 0
M  V30 55 H 9.760406 3.638752 -15.798025 0
M  V30 56 H 10.856729 5.284133 -17.258316 0
M  V30 57 H 11.855743 4.528217 -14.615365 0
M  V30 58 H 10.677381 5.759891 -15.058043 0
M  V30 59 H 11.710838 10.261749 -5.565342 0
M  V30 60 H 12.403632 10.171764 -3.260865 0
M  V30 61 H 11.665552 6.054775 -3.216473 0
M  V30 62 H 10.997439 5.994819 -5.366803 0
M  V30 63 H 13.487125 5.973701 -14.555601 0
M  V30 END ATOM
M  V30 BEGIN BOND
M  V30 1 1 2 1
M  V30 2 1 3 2
M  V30 3 1 4 3
M  V30 4 1 5 4
M  V30 5 1 6 5
M  V30 6 1 7 6
M  V30 7 1 8 7
M  V30 8 1 9 8
M  V30 9 1 10 9
M  V30 10 1 11 10
M  V30 11 1 12 11
M  V30 12 1 13 12
M  V30 13 1 14 13
M  V30 14 1 15 14
M  V30 15 2 16 15
M  V30 16 1 17 16
M  V30 17 2 18 17
M  V30 18 1 19 18
M  V30 19 1 20 19
M  V30 20 1 21 19
M  V30 21 1 22 19
M  V30 22 2 23 14
M  V30 23 1 23 18
M  V30 24 1 24 10
M  V30 25 1 24 13
M  V30 26 1 25 8
M  V30 27 1 25 24
M  V30 28 2 26 3
M  V30 29 1 27 26
M  V30 30 1 28 2
M  V30 31 2 28 27
M  V30 32 1 29 28
M  V30 33 1 30 29
M  V30 34 2 31 30
M  V30 35 1 32 31
M  V30 36 2 33 32
M  V30 37 1 34 32
M  V30 38 2 35 29
M  V30 39 1 35 34
M  V30 40 1 36 1
M  V30 41 1 37 1
M  V30 42 1 38 1
M  V30 43 1 39 5
M  V30 44 1 40 5
M  V30 45 1 41 6
M  V30 46 1 42 6
M  V30 47 1 43 7
M  V30 48 1 44 7
M  V30 49 1 45 9
M  V30 50 1 46 9
M  V30 51 1 10 47 CFG=3
M  V30 52 1 48 11
M  V30 53 1 49 11
M  V30 54 1 50 12
M  V30 55 1 51 12
M  V30 56 1 52 15
M  V30 57 1 53 16
M  V30 58 1 54 17
M  V30 59 1 55 23
M  V30 60 1 24 56 CFG=3
M  V30 61 1 57 25
M  V30 62 1 58 25
M  V30 63 1 59 30
M  V30 64 1 60 31
M  V30 65 1 61 34
M  V30 66 1 62 35
M  V30 67 1 8 63 CFG=1
M  V30 END BOND
M  V30 END CTAB
M  END
>  <b_m_subgroup_collapsed>  (856) 
0

>  <r_i_docking_score>  (856) 
-7.7716254692840696

>  <s_m_subgroup_title>  (856) 
glide-dock_SP_D22_pv

>  <s_m_subgroupid>  (856) 
glide-dock_SP_D22_pv

>  <Molecule ChEMBL ID>  (856) 
CHEMBL6047939

>  <Standard Type>  (856) 
Ki

>  <Standard Value>  (856) 
37.2

>  <label>  (856) 
1

$$$$
CHEMBL1257927
     RDKit          3D

  0  0  0  0  0  0  0  0  0  0999 V3000
M  V30 BEGIN CTAB
M  V30 COUNTS 62 64 0 0 1
M  V30 BEGIN ATOM
M  V30 1 C 11.850513 3.650715 -15.122513 0
M  V30 2 C 10.465126 3.096508 -14.857540 0
M  V30 3 C 10.100298 1.829629 -15.341555 0
M  V30 4 C 8.813700 1.329839 -15.082328 0
M  V30 5 C 7.872952 2.081870 -14.343795 0
M  V30 6 C 6.527796 1.413034 -14.079733 0
M  V30 7 C 8.227916 3.376548 -13.846162 0
M  V30 8 C 7.288638 4.225915 -13.020043 0
M  V30 9 O 6.143805 3.898496 -12.710977 0
M  V30 10 C 7.773179 5.586105 -12.498657 0
M  V30 11 C 8.447977 5.478656 -11.116986 0
M  V30 12 C 9.103726 6.801839 -10.688375 0
M  V30 13 N 9.312196 6.886744 -9.217020 0 CFG=2 CHG=1
M  V30 14 C 9.221560 8.286714 -8.734293 0
M  V30 15 C 9.493120 8.374416 -7.226545 0
M  V30 16 C 10.933020 7.939600 -6.874816 0 CFG=1
M  V30 17 O 11.880902 8.609477 -7.691677 0
M  V30 18 C 11.286488 8.205298 -5.388497 0
M  V30 19 C 11.573473 7.120288 -4.520186 0
M  V30 20 C 11.972617 7.333993 -3.186008 0
M  V30 21 C 12.279386 6.172439 -2.287752 0
M  V30 22 C 12.053798 8.629232 -2.664817 0
M  V30 23 C 11.759076 9.714629 -3.491597 0
M  V30 24 C 11.430314 9.526923 -4.853000 0
M  V30 25 C 11.344763 10.792948 -5.689031 0
M  V30 26 C 10.953793 6.447374 -7.301124 0
M  V30 27 C 10.572064 6.214406 -8.789107 0
M  V30 28 C 9.538333 3.853545 -14.116640 0
M  V30 29 H 12.439419 2.973999 -15.741644 0
M  V30 30 H 11.782630 4.609579 -15.637403 0
M  V30 31 H 12.382470 3.802060 -14.183295 0
M  V30 32 H 10.804520 1.234388 -15.904308 0
M  V30 33 H 8.554036 0.346678 -15.448566 0
M  V30 34 H 6.383731 0.542534 -14.720876 0
M  V30 35 H 6.475247 1.069503 -13.047459 0
M  V30 36 H 5.688412 2.080772 -14.259292 0
M  V30 37 H 6.901678 6.236406 -12.407622 0
M  V30 38 H 8.415196 6.078172 -13.226039 0
M  V30 39 H 9.190669 4.678896 -11.108329 0
M  V30 40 H 7.686239 5.198123 -10.388622 0
M  V30 41 H 8.485934 7.635212 -11.015736 0
M  V30 42 H 10.044688 6.943733 -11.221215 0
M  V30 43 H 8.235199 8.697609 -8.934372 0
M  V30 44 H 9.911752 8.920425 -9.292733 0
M  V30 45 H 8.771862 7.759339 -6.684467 0
M  V30 46 H 9.265950 9.371999 -6.908873 0
M  V30 47 H 11.703934 8.444343 -8.603004 0
M  V30 48 H 11.509462 6.097816 -4.855696 0
M  V30 49 H 12.885976 6.485158 -1.446607 0
M  V30 50 H 11.347118 5.772246 -1.896295 0
M  V30 51 H 12.824576 5.400270 -2.828683 0
M  V30 52 H 12.328931 8.799011 -1.633704 0
M  V30 53 H 11.832199 10.698574 -3.052969 0
M  V30 54 H 11.286061 11.667721 -5.046815 0
M  V30 55 H 12.244923 10.896376 -6.294320 0
M  V30 56 H 10.484853 10.852024 -6.335248 0
M  V30 57 H 11.932557 6.010977 -7.097351 0
M  V30 58 H 10.244022 5.888217 -6.690318 0
M  V30 59 H 10.485492 5.144004 -8.978833 0
M  V30 60 H 11.383072 6.573019 -9.421542 0
M  V30 61 H 9.882495 4.807460 -13.752700 0
M  V30 62 H 8.528337 6.411822 -8.787137 0
M  V30 END ATOM
M  V30 BEGIN BOND
M  V30 1 1 2 1
M  V30 2 1 3 2
M  V30 3 2 4 3
M  V30 4 1 5 4
M  V30 5 1 6 5
M  V30 6 2 7 5
M  V30 7 1 8 7
M  V30 8 2 9 8
M  V30 9 1 10 8
M  V30 10 1 11 10
M  V30 11 1 12 11
M  V30 12 1 13 12
M  V30 13 1 14 13
M  V30 14 1 15 14
M  V30 15 1 16 15
M  V30 16 1 16 17 CFG=3
M  V30 17 1 18 16
M  V30 18 1 19 18
M  V30 19 2 20 19
M  V30 20 1 21 20
M  V30 21 1 22 20
M  V30 22 2 23 22
M  V30 23 2 24 18
M  V30 24 1 24 23
M  V30 25 1 25 24
M  V30 26 1 26 16
M  V30 27 1 27 13
M  V30 28 1 27 26
M  V30 29 2 28 2
M  V30 30 1 28 7
M  V30 31 1 29 1
M  V30 32 1 30 1
M  V30 33 1 31 1
M  V30 34 1 32 3
M  V30 35 1 33 4
M  V30 36 1 34 6
M  V30 37 1 35 6
M  V30 38 1 36 6
M  V30 39 1 37 10
M  V30 40 1 38 10
M  V30 41 1 39 11
M  V30 42 1 40 11
M  V30 43 1 41 12
M  V30 44 1 42 12
M  V30 45 1 43 14
M  V30 46 1 44 14
M  V30 47 1 45 15
M  V30 48 1 46 15
M  V30 49 1 47 17
M  V30 50 1 48 19
M  V30 51 1 49 21
M  V30 52 1 50 21
M  V30 53 1 51 21
M  V30 54 1 52 22
M  V30 55 1 53 23
M  V30 56 1 54 25
M  V30 57 1 55 25
M  V30 58 1 56 25
M  V30 59 1 57 26
M  V30 60 1 58 26
M  V30 61 1 59 27
M  V30 62 1 60 27
M  V30 63 1 61 28
M  V30 64 1 13 62 CFG=1
M  V30 END BOND
M  V30 END CTAB
M  END
>  <b_m_subgroup_collapsed>  (857) 
0

>  <r_i_docking_score>  (857) 
-7.7703880086993697

>  <s_m_subgroup_title>  (857) 
glide-dock_SP_D22_pv

>  <s_m_subgroupid>  (857) 
glide-dock_SP_D22_pv

>  <Molecule ChEMBL ID>  (857) 
CHEMBL1257927

>  <Standard Type>  (857) 
Ki

>  <Standard Value>  (857) 
46.0

>  <label>  (857) 
1

$$$$
CHEMBL4862301
     RDKit          3D

  0  0  0  0  0  0  0  0  0  0999 V3000
M  V30 BEGIN CTAB
M  V30 COUNTS 60 63 0 0 1
M  V30 BEGIN ATOM
M  V30 1 C 11.764727 11.371214 -6.253895 0
M  V30 2 O 11.138927 10.177680 -6.646862 0
M  V30 3 C 11.310685 9.098437 -5.821462 0
M  V30 4 C 11.864505 9.168623 -4.514817 0
M  V30 5 C 12.062038 7.998919 -3.760954 0
M  V30 6 C 11.686017 6.759248 -4.301919 0
M  V30 7 C 11.113572 6.704104 -5.587918 0
M  V30 8 C 10.921695 7.859771 -6.357763 0
M  V30 9 C 10.380282 7.791313 -7.759610 0 CFG=2
M  V30 10 C 9.008057 8.323668 -8.095156 0
M  V30 11 C 9.286028 6.840075 -8.201721 0 CFG=1
M  V30 12 C 9.406687 6.153337 -9.550871 0
M  V30 13 N 8.086022 5.772324 -10.092841 0 CHG=1
M  V30 14 C 8.112172 4.956082 -11.323153 0
M  V30 15 C 8.470199 5.764120 -12.581826 0
M  V30 16 C 8.348262 4.944966 -13.880718 0
M  V30 17 C 9.376147 3.802018 -14.006884 0
M  V30 18 O 9.309446 3.176571 -15.286434 0
M  V30 19 C 8.385327 2.176230 -15.515817 0
M  V30 20 C 8.451261 1.520461 -16.763474 0
M  V30 21 C 7.553974 0.483277 -17.087961 0
M  V30 22 C 6.568410 0.092689 -16.161394 0
M  V30 23 C 6.486019 0.746012 -14.914347 0
M  V30 24 C 7.386301 1.780477 -14.592708 0
M  V30 25 N 5.480826 0.379844 -13.986689 0
M  V30 26 C 4.416000 -0.383586 -14.282853 0
M  V30 27 O 3.551258 -0.627676 -13.446865 0
M  V30 28 C 4.269695 -0.917610 -15.714285 0
M  V30 29 C 5.612070 -1.051241 -16.458698 0
M  V30 30 H 11.686024 12.115049 -7.046865 0
M  V30 31 H 11.286022 11.744917 -5.344110 0
M  V30 32 H 12.827322 11.180062 -6.119280 0
M  V30 33 H 12.157418 10.105850 -4.068582 0
M  V30 34 H 12.492364 8.054329 -2.771718 0
M  V30 35 H 11.826936 5.852738 -3.731566 0
M  V30 36 H 10.820394 5.772325 -6.017863 0
M  V30 37 H 11.177080 8.006433 -8.469563 0
M  V30 38 H 8.368332 8.643812 -7.274720 0
M  V30 39 H 8.886030 8.876446 -9.024598 0
M  V30 40 H 8.824692 6.226503 -7.429269 0
M  V30 41 H 9.914464 6.815637 -10.252784 0
M  V30 42 H 10.028546 5.265091 -9.431305 0
M  V30 43 H 7.597833 5.230457 -9.392389 0
M  V30 44 H 8.813083 4.135797 -11.184610 0
M  V30 45 H 7.122843 4.513268 -11.446853 0
M  V30 46 H 7.803894 6.625597 -12.651521 0
M  V30 47 H 9.480331 6.166854 -12.501838 0
M  V30 48 H 7.333011 4.560278 -13.974777 0
M  V30 49 H 8.486026 5.620246 -14.724491 0
M  V30 50 H 10.378694 4.220360 -13.913689 0
M  V30 51 H 9.292384 3.071125 -13.202192 0
M  V30 52 H 9.207654 1.811684 -17.477549 0
M  V30 53 H 7.631277 -0.016951 -18.042255 0
M  V30 54 H 7.283958 2.268065 -13.637153 0
M  V30 55 H 5.537427 0.768581 -13.058119 0
M  V30 56 H 3.746103 -1.875098 -15.706294 0
M  V30 57 H 3.624193 -0.227675 -16.249685 0
M  V30 58 H 5.432696 -1.109578 -17.532652 0
M  V30 59 H 6.086020 -1.988405 -16.172832 0
M  V30 60 H 7.522028 6.620145 -10.246859 0
M  V30 END ATOM
M  V30 BEGIN BOND
M  V30 1 1 2 1
M  V30 2 1 3 2
M  V30 3 2 4 3
M  V30 4 1 5 4
M  V30 5 2 6 5
M  V30 6 1 7 6
M  V30 7 1 8 3
M  V30 8 2 8 7
M  V30 9 1 9 8
M  V30 10 1 10 9
M  V30 11 1 11 9
M  V30 12 1 11 10
M  V30 13 1 12 11
M  V30 14 1 13 12
M  V30 15 1 14 13
M  V30 16 1 15 14
M  V30 17 1 16 15
M  V30 18 1 17 16
M  V30 19 1 18 17
M  V30 20 1 19 18
M  V30 21 1 20 19
M  V30 22 2 21 20
M  V30 23 1 22 21
M  V30 24 2 23 22
M  V30 25 2 24 19
M  V30 26 1 24 23
M  V30 27 1 25 23
M  V30 28 1 26 25
M  V30 29 2 27 26
M  V30 30 1 28 26
M  V30 31 1 29 22
M  V30 32 1 29 28
M  V30 33 1 30 1
M  V30 34 1 31 1
M  V30 35 1 32 1
M  V30 36 1 33 4
M  V30 37 1 34 5
M  V30 38 1 35 6
M  V30 39 1 36 7
M  V30 40 1 9 37 CFG=3
M  V30 41 1 38 10
M  V30 42 1 39 10
M  V30 43 1 11 40 CFG=1
M  V30 44 1 41 12
M  V30 45 1 42 12
M  V30 46 1 43 13
M  V30 47 1 44 14
M  V30 48 1 45 14
M  V30 49 1 46 15
M  V30 50 1 47 15
M  V30 51 1 48 16
M  V30 52 1 49 16
M  V30 53 1 50 17
M  V30 54 1 51 17
M  V30 55 1 52 20
M  V30 56 1 53 21
M  V30 57 1 54 24
M  V30 58 1 55 25
M  V30 59 1 56 28
M  V30 60 1 57 28
M  V30 61 1 58 29
M  V30 62 1 59 29
M  V30 63 1 60 13
M  V30 END BOND
M  V30 END CTAB
M  END
>  <b_m_subgroup_collapsed>  (858) 
0

>  <r_i_docking_score>  (858) 
-7.7694949797904496

>  <s_m_subgroup_title>  (858) 
glide-dock_SP_D22_pv

>  <s_m_subgroupid>  (858) 
glide-dock_SP_D22_pv

>  <Molecule ChEMBL ID>  (858) 
CHEMBL4862301

>  <Standard Type>  (858) 
Ki

>  <Standard Value>  (858) 
61.9

>  <label>  (858) 
1

$$$$
CHEMBL7806
     RDKit          3D

  0  0  0  0  0  0  0  0  0  0999 V3000
M  V30 BEGIN CTAB
M  V30 COUNTS 48 50 0 0 1
M  V30 BEGIN ATOM
M  V30 1 C 9.136650 4.196718 -8.888147 0
M  V30 2 C 8.879339 5.344767 -7.915531 0
M  V30 3 C 8.581894 6.718502 -8.532946 0
M  V30 4 N 9.730855 7.534185 -9.042171 0 CFG=1 CHG=1
M  V30 5 C 10.734736 7.810566 -7.964987 0
M  V30 6 C 10.208760 8.722106 -6.824133 0
M  V30 7 C 11.002278 8.611645 -5.557334 0
M  V30 8 C 11.461039 9.730060 -4.798572 0
M  V30 9 C 12.073586 9.372091 -3.625087 0
M  V30 10 S 12.089904 7.647745 -3.407688 0
M  V30 11 C 11.286111 7.419898 -4.934108 0
M  V30 12 C 10.329722 7.018279 -10.318949 0 CFG=2
M  V30 13 C 11.233938 8.036190 -11.046632 0
M  V30 14 C 12.005311 7.394761 -12.222827 0
M  V30 15 C 11.190400 6.406699 -13.048290 0
M  V30 16 C 11.711011 5.884145 -14.254624 0
M  V30 17 O 12.939688 6.256351 -14.707628 0
M  V30 18 C 10.962160 4.974143 -15.024092 0
M  V30 19 C 9.685995 4.571137 -14.598952 0
M  V30 20 C 9.154144 5.089871 -13.407253 0
M  V30 21 C 9.897387 6.005550 -12.632207 0
M  V30 22 C 9.279552 6.556504 -11.364669 0
M  V30 23 H 9.129636 3.244111 -8.358599 0
M  V30 24 H 8.328708 4.172363 -9.616895 0
M  V30 25 H 10.085723 4.271880 -9.412294 0
M  V30 26 H 9.625987 5.376893 -7.126274 0
M  V30 27 H 7.940684 5.069054 -7.446624 0
M  V30 28 H 8.086274 7.297647 -7.764713 0
M  V30 29 H 7.815972 6.570254 -9.278691 0
M  V30 30 H 11.102734 6.860978 -7.580476 0
M  V30 31 H 11.624120 8.294517 -8.356577 0
M  V30 32 H 10.194407 9.759898 -7.169910 0
M  V30 33 H 9.177432 8.510517 -6.556185 0
M  V30 34 H 11.304774 10.748873 -5.124126 0
M  V30 35 H 12.489084 10.016582 -2.863139 0
M  V30 36 H 11.038610 6.415825 -5.247791 0
M  V30 37 H 10.942290 6.172288 -10.031635 0
M  V30 38 H 11.954984 8.531762 -10.401181 0
M  V30 39 H 10.583405 8.820493 -11.434619 0
M  V30 40 H 12.873741 6.862706 -11.847232 0
M  V30 41 H 12.423227 8.165501 -12.871097 0
M  V30 42 H 13.540798 6.511940 -14.019721 0
M  V30 43 H 11.370859 4.583925 -15.945612 0
M  V30 44 H 9.114090 3.872620 -15.191472 0
M  V30 45 H 8.166459 4.782127 -13.092426 0
M  V30 46 H 8.622173 7.384954 -11.632179 0
M  V30 47 H 8.633335 5.769429 -11.002429 0
M  V30 48 H 9.316490 8.421957 -9.292515 0
M  V30 END ATOM
M  V30 BEGIN BOND
M  V30 1 1 2 1
M  V30 2 1 3 2
M  V30 3 1 4 3
M  V30 4 1 5 4
M  V30 5 1 6 5
M  V30 6 1 7 6
M  V30 7 1 8 7
M  V30 8 2 9 8
M  V30 9 1 10 9
M  V30 10 2 11 7
M  V30 11 1 11 10
M  V30 12 1 12 4
M  V30 13 1 13 12
M  V30 14 1 14 13
M  V30 15 1 15 14
M  V30 16 2 16 15
M  V30 17 1 17 16
M  V30 18 1 18 16
M  V30 19 2 19 18
M  V30 20 1 20 19
M  V30 21 1 21 15
M  V30 22 2 21 20
M  V30 23 1 22 12
M  V30 24 1 22 21
M  V30 25 1 23 1
M  V30 26 1 24 1
M  V30 27 1 25 1
M  V30 28 1 26 2
M  V30 29 1 27 2
M  V30 30 1 28 3
M  V30 31 1 29 3
M  V30 32 1 30 5
M  V30 33 1 31 5
M  V30 34 1 32 6
M  V30 35 1 33 6
M  V30 36 1 34 8
M  V30 37 1 35 9
M  V30 38 1 36 11
M  V30 39 1 12 37 CFG=1
M  V30 40 1 38 13
M  V30 41 1 39 13
M  V30 42 1 40 14
M  V30 43 1 41 14
M  V30 44 1 42 17
M  V30 45 1 43 18
M  V30 46 1 44 19
M  V30 47 1 45 20
M  V30 48 1 46 22
M  V30 49 1 47 22
M  V30 50 1 4 48 CFG=3
M  V30 END BOND
M  V30 END CTAB
M  END
>  <b_m_subgroup_collapsed>  (859) 
0

>  <r_i_docking_score>  (859) 
-7.7683672794605698

>  <s_m_subgroup_title>  (859) 
glide-dock_SP_D22_pv

>  <s_m_subgroupid>  (859) 
glide-dock_SP_D22_pv

>  <Molecule ChEMBL ID>  (859) 
CHEMBL7806

>  <Standard Type>  (859) 
Ki

>  <Standard Value>  (859) 
0.14

>  <label>  (859) 
1

$$$$
CHEMBL76982
     RDKit          3D

  0  0  0  0  0  0  0  0  0  0999 V3000
M  V30 BEGIN CTAB
M  V30 COUNTS 42 45 0 0 1
M  V30 BEGIN ATOM
M  V30 1 Cl 12.091701 8.970840 -2.216749 0
M  V30 2 C 11.685811 8.601315 -3.843185 0
M  V30 3 C 11.322388 9.630765 -4.731380 0
M  V30 4 C 10.994186 9.320665 -6.063273 0
M  V30 5 C 10.972144 7.978919 -6.497638 0
M  V30 6 N 10.627316 7.698116 -7.825330 0
M  V30 7 C 9.994074 6.430429 -8.144619 0
M  V30 8 C 9.253861 6.577872 -9.477148 0
M  V30 9 N 10.152387 6.972793 -10.571460 0
M  V30 10 C 9.372977 7.209805 -11.791256 0
M  V30 11 C 8.626984 6.018453 -12.310484 0
M  V30 12 N 9.124714 5.158196 -13.198791 0
M  V30 13 C 8.072568 4.276320 -13.382716 0
M  V30 14 C 7.971262 3.139911 -14.216286 0
M  V30 15 C 6.784895 2.377729 -14.238208 0
M  V30 16 C 5.686779 2.742277 -13.428003 0
M  V30 17 C 5.754201 3.883625 -12.604649 0
M  V30 18 C 6.944396 4.634317 -12.584011 0
M  V30 19 N 7.363590 5.772316 -11.913911 0
M  V30 20 C 10.800883 8.240626 -10.208283 0
M  V30 21 C 11.551538 8.129662 -8.865640 0
M  V30 22 C 11.287895 6.950029 -5.582395 0
M  V30 23 C 11.685979 7.261687 -4.269205 0
M  V30 24 H 11.287706 10.655185 -4.393451 0
M  V30 25 H 10.731133 10.114497 -6.745676 0
M  V30 26 H 10.736780 5.634576 -8.205456 0
M  V30 27 H 9.283775 6.159870 -7.362487 0
M  V30 28 H 8.756990 5.634774 -9.702775 0
M  V30 29 H 8.485859 7.338904 -9.360724 0
M  V30 30 H 8.654260 8.016281 -11.626911 0
M  V30 31 H 10.038941 7.547015 -12.590179 0
M  V30 32 H 8.813391 2.852997 -14.827940 0
M  V30 33 H 6.718667 1.504203 -14.871033 0
M  V30 34 H 4.785398 2.146768 -13.446972 0
M  V30 35 H 4.908654 4.173117 -11.994341 0
M  V30 36 H 6.865016 6.364880 -11.244711 0
M  V30 37 H 11.500909 8.529260 -10.993375 0
M  V30 38 H 10.055025 9.034497 -10.136069 0
M  V30 39 H 12.010824 9.084858 -8.611396 0
M  V30 40 H 12.354723 7.394731 -8.948193 0
M  V30 41 H 11.282858 5.915940 -5.890915 0
M  V30 42 H 11.952262 6.469904 -3.583940 0
M  V30 END ATOM
M  V30 BEGIN BOND
M  V30 1 1 2 1
M  V30 2 1 3 2
M  V30 3 2 4 3
M  V30 4 1 5 4
M  V30 5 1 6 5
M  V30 6 1 7 6
M  V30 7 1 8 7
M  V30 8 1 9 8
M  V30 9 1 10 9
M  V30 10 1 11 10
M  V30 11 2 12 11
M  V30 12 1 13 12
M  V30 13 2 14 13
M  V30 14 1 15 14
M  V30 15 2 16 15
M  V30 16 1 17 16
M  V30 17 1 18 13
M  V30 18 2 18 17
M  V30 19 1 19 11
M  V30 20 1 19 18
M  V30 21 1 20 9
M  V30 22 1 21 6
M  V30 23 1 21 20
M  V30 24 2 22 5
M  V30 25 2 23 2
M  V30 26 1 23 22
M  V30 27 1 24 3
M  V30 28 1 25 4
M  V30 29 1 26 7
M  V30 30 1 27 7
M  V30 31 1 28 8
M  V30 32 1 29 8
M  V30 33 1 30 10
M  V30 34 1 31 10
M  V30 35 1 32 14
M  V30 36 1 33 15
M  V30 37 1 34 16
M  V30 38 1 35 17
M  V30 39 1 36 19
M  V30 40 1 37 20
M  V30 41 1 38 20
M  V30 42 1 39 21
M  V30 43 1 40 21
M  V30 44 1 41 22
M  V30 45 1 42 23
M  V30 END BOND
M  V30 END CTAB
M  END
>  <b_m_subgroup_collapsed>  (860) 
0

>  <r_i_docking_score>  (860) 
-7.7674116990492204

>  <s_m_subgroup_title>  (860) 
glide-dock_SP_D22_pv

>  <s_m_subgroupid>  (860) 
glide-dock_SP_D22_pv

>  <Molecule ChEMBL ID>  (860) 
CHEMBL76982

>  <Standard Type>  (860) 
Ki

>  <Standard Value>  (860) 
10000.0

>  <label>  (860) 
0

$$$$
CHEMBL594557
     RDKit          3D

  0  0  0  0  0  0  0  0  0  0999 V3000
M  V30 BEGIN CTAB
M  V30 COUNTS 40 43 0 0 1
M  V30 BEGIN ATOM
M  V30 1 C 12.182364 8.977982 -2.841740 0
M  V30 2 O 11.878235 7.807391 -3.588913 0
M  V30 3 C 11.382852 7.967970 -4.865341 0
M  V30 4 C 10.962888 9.201792 -5.404434 0
M  V30 5 C 10.486030 9.265202 -6.724432 0
M  V30 6 C 10.477892 8.145418 -7.580428 0
M  V30 7 C 10.885134 6.917335 -7.026596 0
M  V30 8 C 11.286930 6.824390 -5.677559 0
M  V30 9 C 10.886030 5.687339 -7.886699 0
M  V30 10 C 9.519308 5.133822 -8.246132 0
M  V30 11 C 8.486018 6.230046 -8.422072 0
M  V30 12 N 8.886021 7.271237 -9.389313 0 CFG=2 CHG=1
M  V30 13 C 8.966351 6.812554 -10.799964 0
M  V30 14 C 10.317732 7.267453 -11.191308 0
M  V30 15 C 10.987048 6.921240 -12.371966 0
M  V30 16 C 12.305725 7.374742 -12.524856 0
M  V30 17 C 12.889558 8.172315 -11.510839 0
M  V30 18 C 12.211360 8.469306 -10.310545 0
M  V30 19 C 10.895128 8.035074 -10.184365 0
M  V30 20 C 9.945647 8.250830 -9.029010 0 CFG=2
M  V30 21 H 12.644324 8.694816 -1.895914 0
M  V30 22 H 11.286000 9.551916 -2.610662 0
M  V30 23 H 12.885885 9.619824 -3.373513 0
M  V30 24 H 10.967643 10.107227 -4.816627 0
M  V30 25 H 10.100765 10.199684 -7.046863 0
M  V30 26 H 11.590452 5.870801 -5.270249 0
M  V30 27 H 11.286017 5.960684 -8.847602 0
M  V30 28 H 11.572308 4.972328 -7.446856 0
M  V30 29 H 9.588911 4.481697 -9.117457 0
M  V30 30 H 9.151332 4.520555 -7.446861 0
M  V30 31 H 7.580066 5.772325 -8.796488 0
M  V30 32 H 8.214692 6.681007 -7.465874 0
M  V30 33 H 8.860528 5.733996 -10.915993 0
M  V30 34 H 8.223845 7.302768 -11.432515 0
M  V30 35 H 10.518463 6.304248 -13.124846 0
M  V30 36 H 12.867864 7.130684 -13.415140 0
M  V30 37 H 13.901733 8.529479 -11.637633 0
M  V30 38 H 12.693468 9.000581 -9.506996 0
M  V30 39 H 9.516501 9.244990 -9.161675 0
M  V30 40 H 7.996593 7.777218 -9.427007 0
M  V30 END ATOM
M  V30 BEGIN BOND
M  V30 1 1 2 1
M  V30 2 1 3 2
M  V30 3 1 4 3
M  V30 4 2 5 4
M  V30 5 1 6 5
M  V30 6 2 7 6
M  V30 7 2 8 3
M  V30 8 1 8 7
M  V30 9 1 9 7
M  V30 10 1 10 9
M  V30 11 1 11 10
M  V30 12 1 12 11
M  V30 13 1 13 12
M  V30 14 1 14 13
M  V30 15 2 15 14
M  V30 16 1 16 15
M  V30 17 2 17 16
M  V30 18 1 18 17
M  V30 19 1 19 14
M  V30 20 2 19 18
M  V30 21 1 20 6
M  V30 22 1 20 12
M  V30 23 1 20 19
M  V30 24 1 21 1
M  V30 25 1 22 1
M  V30 26 1 23 1
M  V30 27 1 24 4
M  V30 28 1 25 5
M  V30 29 1 26 8
M  V30 30 1 27 9
M  V30 31 1 28 9
M  V30 32 1 29 10
M  V30 33 1 30 10
M  V30 34 1 31 11
M  V30 35 1 32 11
M  V30 36 1 33 13
M  V30 37 1 34 13
M  V30 38 1 35 15
M  V30 39 1 36 16
M  V30 40 1 37 17
M  V30 41 1 38 18
M  V30 42 1 20 39 CFG=3
M  V30 43 1 12 40 CFG=3
M  V30 END BOND
M  V30 END CTAB
M  END
>  <b_m_subgroup_collapsed>  (861) 
0

>  <r_i_docking_score>  (861) 
-7.7669996555730698

>  <s_m_subgroup_title>  (861) 
glide-dock_SP_D22_pv

>  <s_m_subgroupid>  (861) 
glide-dock_SP_D22_pv

>  <Molecule ChEMBL ID>  (861) 
CHEMBL594557

>  <Standard Type>  (861) 
Ki

>  <Standard Value>  (861) 
10000.0

>  <label>  (861) 
0

$$$$
CHEMBL5273118
     RDKit          3D

  0  0  0  0  0  0  0  0  0  0999 V3000
M  V30 BEGIN CTAB
M  V30 COUNTS 68 73 0 0 1
M  V30 BEGIN ATOM
M  V30 1 C 9.375702 0.371824 -14.409588 0
M  V30 2 N 8.600785 1.330703 -15.191724 0
M  V30 3 C 8.084500 2.405442 -14.336775 0
M  V30 4 C 9.163475 3.272309 -13.650051 0
M  V30 5 C 8.510783 4.306069 -12.712234 0 CFG=2
M  V30 6 C 7.641014 5.318994 -13.448027 0
M  V30 7 C 7.624229 6.581777 -12.589093 0
M  V30 8 C 8.594900 6.345962 -11.416220 0 CFG=2
M  V30 9 C 9.365503 7.633335 -11.025358 0
M  V30 10 N 9.684972 7.826990 -9.608052 0
M  V30 11 C 10.058962 6.943034 -8.669573 0
M  V30 12 O 10.085589 5.724160 -8.831650 0
M  V30 13 C 10.486113 7.541284 -7.387691 0
M  V30 14 C 10.608934 8.837061 -6.950785 0
M  V30 15 C 11.104606 8.784520 -5.604452 0
M  V30 16 C 11.423570 9.752082 -4.622842 0
M  V30 17 C 11.917134 9.372293 -3.358641 0
M  V30 18 C 12.086646 8.010762 -3.039513 0
M  V30 19 C 11.752849 7.025000 -3.987162 0
M  V30 20 C 11.282430 7.414528 -5.252252 0
M  V30 21 N 10.888138 6.698141 -6.363075 0
M  V30 22 C 9.476591 5.180594 -11.910225 0
M  V30 23 C 7.541837 0.623168 -15.928641 0 CFG=2
M  V30 24 C 7.149639 1.369044 -17.229210 0
M  V30 25 C 6.129630 0.590219 -18.063036 0
M  V30 26 C 5.901308 0.563809 -19.456009 0
M  V30 27 C 4.876746 -0.266103 -19.992432 0
M  V30 28 C 4.061895 -1.076701 -19.156242 0
M  V30 29 C 4.280590 -1.043024 -17.768034 0
M  V30 30 N 3.686209 -1.657569 -16.663494 0
M  V30 31 C 4.275762 -1.195776 -15.543209 0
M  V30 32 O 3.929670 -1.425166 -14.387268 0
M  V30 33 N 5.297714 -0.396373 -15.921246 0
M  V30 34 C 5.286169 -0.231553 -17.308262 0
M  V30 35 C 6.297597 0.237472 -15.079810 0
M  V30 36 H 9.660344 -0.496467 -15.004557 0
M  V30 37 H 10.308450 0.813982 -14.062355 0
M  V30 38 H 8.812285 0.031915 -13.541433 0
M  V30 39 H 7.441063 1.990505 -13.562863 0
M  V30 40 H 7.450954 3.049646 -14.945642 0
M  V30 41 H 9.783134 3.765309 -14.401105 0
M  V30 42 H 9.830418 2.655550 -13.047633 0
M  V30 43 H 7.885002 3.776553 -11.991900 0
M  V30 44 H 6.635656 4.934834 -13.625699 0
M  V30 45 H 8.086031 5.550084 -14.417742 0
M  V30 46 H 6.615257 6.805398 -12.246955 0
M  V30 47 H 7.935760 7.435043 -13.187838 0
M  V30 48 H 7.994937 6.000761 -10.570402 0
M  V30 49 H 8.754092 8.498535 -11.289997 0
M  V30 50 H 10.278277 7.729208 -11.615621 0
M  V30 51 H 9.659965 8.787427 -9.300894 0
M  V30 52 H 10.380746 9.735594 -7.500446 0
M  V30 53 H 11.286386 10.797084 -4.850506 0
M  V30 54 H 12.155282 10.129786 -2.625835 0
M  V30 55 H 12.453709 7.723287 -2.064981 0
M  V30 56 H 11.863720 5.979365 -3.746463 0
M  V30 57 H 10.859505 5.691620 -6.460862 0
M  V30 58 H 10.271474 5.550999 -12.558089 0
M  V30 59 H 9.941495 4.622318 -11.101603 0
M  V30 60 H 7.979373 -0.310958 -16.285027 0
M  V30 61 H 6.719571 2.342593 -16.999689 0
M  V30 62 H 8.032721 1.551564 -17.839682 0
M  V30 63 H 6.506763 1.165397 -20.115404 0
M  V30 64 H 4.708763 -0.278916 -21.059620 0
M  V30 65 H 3.286301 -1.701165 -19.573851 0
M  V30 66 H 2.957217 -2.365160 -16.703304 0
M  V30 67 H 6.573738 -0.435267 -14.265038 0
M  V30 68 H 5.813871 1.107444 -14.640245 0
M  V30 END ATOM
M  V30 BEGIN BOND
M  V30 1 1 2 1
M  V30 2 1 3 2
M  V30 3 1 4 3
M  V30 4 1 5 4
M  V30 5 1 6 5
M  V30 6 1 7 6
M  V30 7 1 8 7
M  V30 8 1 9 8
M  V30 9 1 10 9
M  V30 10 1 11 10
M  V30 11 2 12 11
M  V30 12 1 13 11
M  V30 13 2 14 13
M  V30 14 1 15 14
M  V30 15 2 16 15
M  V30 16 1 17 16
M  V30 17 2 18 17
M  V30 18 1 19 18
M  V30 19 1 20 15
M  V30 20 2 20 19
M  V30 21 1 21 13
M  V30 22 1 21 20
M  V30 23 1 22 5
M  V30 24 1 22 8
M  V30 25 1 23 2
M  V30 26 1 24 23
M  V30 27 1 25 24
M  V30 28 1 26 25
M  V30 29 2 27 26
M  V30 30 1 28 27
M  V30 31 2 29 28
M  V30 32 1 30 29
M  V30 33 1 31 30
M  V30 34 2 32 31
M  V30 35 1 33 31
M  V30 36 2 34 25
M  V30 37 1 34 29
M  V30 38 1 34 33
M  V30 39 1 35 23
M  V30 40 1 35 33
M  V30 41 1 36 1
M  V30 42 1 37 1
M  V30 43 1 38 1
M  V30 44 1 39 3
M  V30 45 1 40 3
M  V30 46 1 41 4
M  V30 47 1 42 4
M  V30 48 1 5 43 CFG=1
M  V30 49 1 44 6
M  V30 50 1 45 6
M  V30 51 1 46 7
M  V30 52 1 47 7
M  V30 53 1 8 48 CFG=1
M  V30 54 1 49 9
M  V30 55 1 50 9
M  V30 56 1 51 10
M  V30 57 1 52 14
M  V30 58 1 53 16
M  V30 59 1 54 17
M  V30 60 1 55 18
M  V30 61 1 56 19
M  V30 62 1 57 21
M  V30 63 1 58 22
M  V30 64 1 59 22
M  V30 65 1 23 60 CFG=3
M  V30 66 1 61 24
M  V30 67 1 62 24
M  V30 68 1 63 26
M  V30 69 1 64 27
M  V30 70 1 65 28
M  V30 71 1 66 30
M  V30 72 1 67 35
M  V30 73 1 68 35
M  V30 END BOND
M  V30 END CTAB
M  END
>  <b_m_subgroup_collapsed>  (862) 
0

>  <r_i_docking_score>  (862) 
-7.7648986841183101

>  <s_m_subgroup_title>  (862) 
glide-dock_SP_D22_pv

>  <s_m_subgroupid>  (862) 
glide-dock_SP_D22_pv

>  <Molecule ChEMBL ID>  (862) 
CHEMBL5273118

>  <Standard Type>  (862) 
Ki

>  <Standard Value>  (862) 
2.03

>  <label>  (862) 
1

$$$$
CHEMBL30256
     RDKit          3D

  0  0  0  0  0  0  0  0  0  0999 V3000
M  V30 BEGIN CTAB
M  V30 COUNTS 52 55 0 0 1
M  V30 BEGIN ATOM
M  V30 1 O 12.511461 7.408514 -13.609921 0
M  V30 2 C 11.685390 6.512021 -13.446917 0
M  V30 3 N 10.729906 6.572640 -12.505733 0
M  V30 4 C 10.621415 7.611745 -11.487509 0
M  V30 5 C 10.214788 6.971786 -10.149632 0
M  V30 6 N 10.182336 7.912009 -9.031837 0
M  V30 7 C 11.549962 8.251411 -8.599862 0
M  V30 8 C 11.541257 9.192908 -7.377226 0
M  V30 9 N 10.732691 8.619576 -6.317234 0
M  V30 10 C 11.286572 8.387695 -5.054500 0
M  V30 11 C 11.425895 7.078552 -4.541463 0
M  V30 12 C 11.950213 6.888518 -3.246192 0
M  V30 13 C 12.322867 7.996478 -2.460905 0
M  V30 14 C 12.191987 9.297050 -2.979162 0
M  V30 15 C 11.685961 9.490018 -4.275304 0
M  V30 16 C 9.412006 8.124384 -6.680115 0
M  V30 17 C 9.501880 7.223492 -7.923531 0
M  V30 18 C 11.664928 5.306019 -14.354619 0
M  V30 19 C 12.481008 5.289382 -15.508147 0
M  V30 20 C 12.499310 4.178219 -16.372124 0
M  V30 21 Br 13.659587 4.229862 -17.885014 0
M  V30 22 C 11.686490 3.052214 -16.099314 0
M  V30 23 C 11.686085 1.920023 -16.944088 0
M  V30 24 C 10.884542 0.803841 -16.640169 0
M  V30 25 C 10.068344 0.812797 -15.493538 0
M  V30 26 C 10.059025 1.937558 -14.647314 0
M  V30 27 C 10.869121 3.055363 -14.939570 0
M  V30 28 C 10.866364 4.169158 -14.074038 0
M  V30 29 H 10.041654 5.834898 -12.477906 0
M  V30 30 H 9.865579 8.331442 -11.800839 0
M  V30 31 H 11.558576 8.157281 -11.395096 0
M  V30 32 H 10.885547 6.147391 -9.899932 0
M  V30 33 H 9.222761 6.531550 -10.281981 0
M  V30 34 H 12.102529 8.732857 -9.405401 0
M  V30 35 H 12.088205 7.339746 -8.347189 0
M  V30 36 H 11.145823 10.171006 -7.639014 0
M  V30 37 H 12.564412 9.356796 -7.030833 0
M  V30 38 H 11.128427 6.226459 -5.131751 0
M  V30 39 H 12.045258 5.888949 -2.845920 0
M  V30 40 H 12.706250 7.849500 -1.459837 0
M  V30 41 H 12.476764 10.149708 -2.380487 0
M  V30 42 H 11.573147 10.492218 -4.664123 0
M  V30 43 H 8.966174 7.571941 -5.850722 0
M  V30 44 H 8.755547 8.971867 -6.885051 0
M  V30 45 H 8.490073 6.947883 -8.226800 0
M  V30 46 H 10.027257 6.299988 -7.673805 0
M  V30 47 H 13.115092 6.134022 -15.737505 0
M  V30 48 H 12.306540 1.882262 -17.826530 0
M  V30 49 H 10.896393 -0.061346 -17.287659 0
M  V30 50 H 9.450905 -0.042878 -15.261708 0
M  V30 51 H 9.437449 1.930935 -13.764641 0
M  V30 52 H 10.244156 4.134343 -13.192273 0
M  V30 END ATOM
M  V30 BEGIN BOND
M  V30 1 2 2 1
M  V30 2 1 3 2
M  V30 3 1 4 3
M  V30 4 1 5 4
M  V30 5 1 6 5
M  V30 6 1 7 6
M  V30 7 1 8 7
M  V30 8 1 9 8
M  V30 9 1 10 9
M  V30 10 2 11 10
M  V30 11 1 12 11
M  V30 12 2 13 12
M  V30 13 1 14 13
M  V30 14 1 15 10
M  V30 15 2 15 14
M  V30 16 1 16 9
M  V30 17 1 17 6
M  V30 18 1 17 16
M  V30 19 1 18 2
M  V30 20 1 19 18
M  V30 21 2 20 19
M  V30 22 1 21 20
M  V30 23 1 22 20
M  V30 24 2 23 22
M  V30 25 1 24 23
M  V30 26 2 25 24
M  V30 27 1 26 25
M  V30 28 1 27 22
M  V30 29 2 27 26
M  V30 30 2 28 18
M  V30 31 1 28 27
M  V30 32 1 29 3
M  V30 33 1 30 4
M  V30 34 1 31 4
M  V30 35 1 32 5
M  V30 36 1 33 5
M  V30 37 1 34 7
M  V30 38 1 35 7
M  V30 39 1 36 8
M  V30 40 1 37 8
M  V30 41 1 38 11
M  V30 42 1 39 12
M  V30 43 1 40 13
M  V30 44 1 41 14
M  V30 45 1 42 15
M  V30 46 1 43 16
M  V30 47 1 44 16
M  V30 48 1 45 17
M  V30 49 1 46 17
M  V30 50 1 47 19
M  V30 51 1 48 23
M  V30 52 1 49 24
M  V30 53 1 50 25
M  V30 54 1 51 26
M  V30 55 1 52 28
M  V30 END BOND
M  V30 END CTAB
M  END
>  <b_m_subgroup_collapsed>  (863) 
0

>  <r_i_docking_score>  (863) 
-7.7643224039367196

>  <s_m_subgroup_title>  (863) 
glide-dock_SP_D22_pv

>  <s_m_subgroupid>  (863) 
glide-dock_SP_D22_pv

>  <Molecule ChEMBL ID>  (863) 
CHEMBL30256

>  <Standard Type>  (863) 
Ki

>  <Standard Value>  (863) 
10000.0

>  <label>  (863) 
0

$$$$
CHEMBL2165138
     RDKit          3D

  0  0  0  0  0  0  0  0  0  0999 V3000
M  V30 BEGIN CTAB
M  V30 COUNTS 50 53 0 0 1
M  V30 BEGIN ATOM
M  V30 1 Cl 7.429452 0.241244 -14.923081 0
M  V30 2 C 8.036202 1.841431 -14.681584 0
M  V30 3 C 9.313791 2.164149 -15.169766 0
M  V30 4 C 9.824186 3.460351 -14.986184 0
M  V30 5 C 9.071816 4.421695 -14.287288 0
M  V30 6 C 7.797899 4.108313 -13.752036 0
M  V30 7 C 6.988444 5.140556 -12.945342 0 CFG=1
M  V30 8 C 6.744313 4.717697 -11.492294 0
M  V30 9 C 8.015349 4.800263 -10.649260 0
M  V30 10 N 8.486241 6.196476 -10.570225 0 CFG=1 CHG=1
M  V30 11 C 9.656005 6.300565 -9.664767 0
M  V30 12 C 10.106550 7.733934 -9.322484 0
M  V30 13 C 9.173327 8.463837 -8.336912 0
M  V30 14 O 9.917569 9.295840 -7.450021 0
M  V30 15 C 10.529819 8.713569 -6.361036 0
M  V30 16 C 10.659316 7.315370 -6.193105 0
M  V30 17 C 11.285124 6.789359 -5.057555 0
M  V30 18 C 11.745399 7.644971 -4.059276 0
M  V30 19 S 12.485545 7.215773 -2.529639 0
M  V30 20 C 12.505905 8.931253 -2.141309 0
M  V30 21 N 12.083670 9.773398 -3.084162 0
M  V30 22 C 11.633288 9.057234 -4.183065 0
M  V30 23 C 11.041567 9.568277 -5.362013 0
M  V30 24 C 8.747847 6.762799 -11.916302 0
M  V30 25 C 7.548282 6.582170 -12.869935 0
M  V30 26 C 7.267906 2.808190 -13.993710 0
M  V30 27 Cl 5.686124 2.356955 -13.446733 0
M  V30 28 H 9.895540 1.422181 -15.697075 0
M  V30 29 H 10.797758 3.717413 -15.378802 0
M  V30 30 H 9.501994 5.403449 -14.192249 0
M  V30 31 H 6.020191 5.202003 -13.444135 0
M  V30 32 H 6.000442 5.398651 -11.077675 0
M  V30 33 H 6.319302 3.724483 -11.399472 0
M  V30 34 H 8.798478 4.172078 -11.073713 0
M  V30 35 H 7.809517 4.415155 -9.649729 0
M  V30 36 H 10.485888 5.770915 -10.126837 0
M  V30 37 H 9.441035 5.760321 -8.743215 0
M  V30 38 H 10.276410 8.348893 -10.205704 0
M  V30 39 H 11.095984 7.649434 -8.872589 0
M  V30 40 H 8.537702 7.775985 -7.774360 0
M  V30 41 H 8.485744 9.096449 -8.898015 0
M  V30 42 H 10.282493 6.611513 -6.911820 0
M  V30 43 H 11.376874 5.729146 -4.925885 0
M  V30 44 H 12.886672 9.335740 -1.212773 0
M  V30 45 H 10.942348 10.637275 -5.476128 0
M  V30 46 H 8.943562 7.830381 -11.837795 0
M  V30 47 H 9.655004 6.312386 -12.311412 0
M  V30 48 H 6.747256 7.233635 -12.515522 0
M  V30 49 H 7.796791 6.966185 -13.846810 0
M  V30 50 H 7.719992 6.758874 -10.191127 0
M  V30 END ATOM
M  V30 BEGIN BOND
M  V30 1 1 2 1
M  V30 2 1 3 2
M  V30 3 2 4 3
M  V30 4 1 5 4
M  V30 5 2 6 5
M  V30 6 1 7 6
M  V30 7 1 8 7
M  V30 8 1 9 8
M  V30 9 1 10 9
M  V30 10 1 11 10
M  V30 11 1 12 11
M  V30 12 1 13 12
M  V30 13 1 14 13
M  V30 14 1 15 14
M  V30 15 2 16 15
M  V30 16 1 17 16
M  V30 17 2 18 17
M  V30 18 1 19 18
M  V30 19 1 20 19
M  V30 20 2 21 20
M  V30 21 1 22 18
M  V30 22 1 22 21
M  V30 23 1 23 15
M  V30 24 2 23 22
M  V30 25 1 24 10
M  V30 26 1 25 7
M  V30 27 1 25 24
M  V30 28 2 26 2
M  V30 29 1 26 6
M  V30 30 1 27 26
M  V30 31 1 28 3
M  V30 32 1 29 4
M  V30 33 1 30 5
M  V30 34 1 7 31 CFG=3
M  V30 35 1 32 8
M  V30 36 1 33 8
M  V30 37 1 34 9
M  V30 38 1 35 9
M  V30 39 1 36 11
M  V30 40 1 37 11
M  V30 41 1 38 12
M  V30 42 1 39 12
M  V30 43 1 40 13
M  V30 44 1 41 13
M  V30 45 1 42 16
M  V30 46 1 43 17
M  V30 47 1 44 20
M  V30 48 1 45 23
M  V30 49 1 46 24
M  V30 50 1 47 24
M  V30 51 1 48 25
M  V30 52 1 49 25
M  V30 53 1 10 50 CFG=1
M  V30 END BOND
M  V30 END CTAB
M  END
>  <b_m_subgroup_collapsed>  (864) 
0

>  <r_i_docking_score>  (864) 
-7.7637114066645401

>  <s_m_subgroup_title>  (864) 
glide-dock_SP_D22_pv

>  <s_m_subgroupid>  (864) 
glide-dock_SP_D22_pv

>  <Molecule ChEMBL ID>  (864) 
CHEMBL2165138

>  <Standard Type>  (864) 
Ki

>  <Standard Value>  (864) 
75.0

>  <label>  (864) 
1

$$$$
CHEMBL353087
     RDKit          3D

  0  0  0  0  0  0  0  0  0  0999 V3000
M  V30 BEGIN CTAB
M  V30 COUNTS 56 58 0 0 1
M  V30 BEGIN ATOM
M  V30 1 C 12.035951 3.901768 -14.500663 0
M  V30 2 O 11.343812 4.654932 -13.516583 0
M  V30 3 C 9.973556 4.519171 -13.404988 0
M  V30 4 C 9.278794 3.441546 -14.011484 0
M  V30 5 C 7.878891 3.309231 -13.881948 0
M  V30 6 N 7.137859 2.248292 -14.476816 0
M  V30 7 C 7.540263 1.006750 -14.803478 0
M  V30 8 C 6.459226 0.102512 -15.383887 0
M  V30 9 O 8.682292 0.572886 -14.654627 0
M  V30 10 C 7.160169 4.287805 -13.168605 0
M  V30 11 Cl 5.441517 4.171899 -13.027030 0
M  V30 12 C 7.834866 5.360637 -12.560837 0
M  V30 13 C 9.244052 5.480909 -12.646768 0
M  V30 14 C 9.943691 6.634513 -11.961012 0
M  V30 15 O 11.083028 6.984745 -12.271703 0
M  V30 16 N 9.286036 7.217951 -10.947351 0
M  V30 17 C 9.877954 8.183286 -10.035819 0
M  V30 18 C 10.503256 7.452353 -8.832014 0 CFG=2
M  V30 19 C 9.437147 6.904143 -7.868773 0
M  V30 20 C 9.220219 8.014646 -6.833104 0
M  V30 21 N 10.335213 8.972639 -7.019612 0 CFG=1 CHG=1
M  V30 22 C 10.880958 9.688725 -5.834613 0
M  V30 23 C 11.408381 8.889121 -4.643077 0
M  V30 24 C 11.685998 9.607200 -3.460400 0
M  V30 25 C 12.170179 8.959755 -2.310844 0
M  V30 26 C 12.366650 7.570794 -2.326531 0
M  V30 27 C 12.085659 6.840044 -3.491543 0
M  V30 28 C 11.624770 7.490680 -4.651584 0
M  V30 29 C 11.321023 8.393372 -7.948770 0
M  V30 30 H 13.065838 4.253612 -14.553840 0
M  V30 31 H 12.065792 2.842803 -14.247640 0
M  V30 32 H 11.594748 4.028106 -15.490820 0
M  V30 33 H 9.820866 2.705604 -14.582808 0
M  V30 34 H 6.147200 2.424134 -14.567576 0
M  V30 35 H 5.973609 0.573655 -16.238647 0
M  V30 36 H 6.885518 -0.840905 -15.721838 0
M  V30 37 H 5.704676 -0.118673 -14.628896 0
M  V30 38 H 7.244069 6.086299 -12.019732 0
M  V30 39 H 8.321988 6.957523 -10.760415 0
M  V30 40 H 9.096189 8.871126 -9.711588 0
M  V30 41 H 10.622396 8.791459 -10.554781 0
M  V30 42 H 11.141868 6.648743 -9.199917 0
M  V30 43 H 9.822702 6.011798 -7.372420 0
M  V30 44 H 8.500257 6.621821 -8.359383 0
M  V30 45 H 9.184025 7.587190 -5.836099 0
M  V30 46 H 8.272024 8.529168 -7.001412 0
M  V30 47 H 10.087649 10.327426 -5.447289 0
M  V30 48 H 11.671280 10.360842 -6.170749 0
M  V30 49 H 11.520416 10.671186 -3.420964 0
M  V30 50 H 12.382345 9.528499 -1.415977 0
M  V30 51 H 12.731922 7.063615 -1.447362 0
M  V30 52 H 12.226964 5.771972 -3.493731 0
M  V30 53 H 11.424078 6.886255 -5.522033 0
M  V30 54 H 11.837806 9.167256 -8.519655 0
M  V30 55 H 12.081785 7.829997 -7.408827 0
M  V30 56 H 9.910599 9.702494 -7.573763 0
M  V30 END ATOM
M  V30 BEGIN BOND
M  V30 1 1 2 1
M  V30 2 1 3 2
M  V30 3 1 4 3
M  V30 4 2 5 4
M  V30 5 1 6 5
M  V30 6 1 7 6
M  V30 7 1 8 7
M  V30 8 2 9 7
M  V30 9 1 10 5
M  V30 10 1 11 10
M  V30 11 2 12 10
M  V30 12 2 13 3
M  V30 13 1 13 12
M  V30 14 1 14 13
M  V30 15 2 15 14
M  V30 16 1 16 14
M  V30 17 1 17 16
M  V30 18 1 18 17
M  V30 19 1 19 18
M  V30 20 1 20 19
M  V30 21 1 21 20
M  V30 22 1 22 21
M  V30 23 1 23 22
M  V30 24 2 24 23
M  V30 25 1 25 24
M  V30 26 2 26 25
M  V30 27 1 27 26
M  V30 28 1 28 23
M  V30 29 2 28 27
M  V30 30 1 29 18
M  V30 31 1 29 21
M  V30 32 1 30 1
M  V30 33 1 31 1
M  V30 34 1 32 1
M  V30 35 1 33 4
M  V30 36 1 34 6
M  V30 37 1 35 8
M  V30 38 1 36 8
M  V30 39 1 37 8
M  V30 40 1 38 12
M  V30 41 1 39 16
M  V30 42 1 40 17
M  V30 43 1 41 17
M  V30 44 1 18 42 CFG=3
M  V30 45 1 43 19
M  V30 46 1 44 19
M  V30 47 1 45 20
M  V30 48 1 46 20
M  V30 49 1 47 22
M  V30 50 1 48 22
M  V30 51 1 49 24
M  V30 52 1 50 25
M  V30 53 1 51 26
M  V30 54 1 52 27
M  V30 55 1 53 28
M  V30 56 1 54 29
M  V30 57 1 55 29
M  V30 58 1 21 56 CFG=3
M  V30 END BOND
M  V30 END CTAB
M  END
>  <b_m_subgroup_collapsed>  (865) 
0

>  <r_i_docking_score>  (865) 
-7.7591147169565797

>  <s_m_subgroup_title>  (865) 
glide-dock_SP_D22_pv

>  <s_m_subgroupid>  (865) 
glide-dock_SP_D22_pv

>  <Molecule ChEMBL ID>  (865) 
CHEMBL353087

>  <Standard Type>  (865) 
Ki

>  <Standard Value>  (865) 
19000.0

>  <label>  (865) 
0

$$$$
CHEMBL1256863
     RDKit          3D

  0  0  0  0  0  0  0  0  0  0999 V3000
M  V30 BEGIN CTAB
M  V30 COUNTS 29 30 0 0 1
M  V30 BEGIN ATOM
M  V30 1 N 8.485996 5.963803 -9.731904 0 CHG=1
M  V30 2 C 8.872046 5.343864 -8.452000 0
M  V30 3 C 8.853861 6.327282 -7.265060 0
M  V30 4 C 9.791457 7.491351 -7.373253 0
M  V30 5 C 9.911481 8.386933 -8.407896 0
M  V30 6 N 10.886284 9.309645 -8.089673 0
M  V30 7 C 11.348109 9.108643 -6.809192 0
M  V30 8 C 12.252764 9.818823 -6.010026 0
M  V30 9 C 12.533344 9.372337 -4.709621 0
M  V30 10 C 11.908535 8.214695 -4.207331 0
M  V30 11 C 12.183203 7.750547 -2.806343 0
M  V30 12 N 12.486053 8.693995 -1.912677 0
M  V30 13 O 12.080679 6.572265 -2.489187 0
M  V30 14 C 11.034469 7.481827 -5.046891 0
M  V30 15 C 10.698898 7.932085 -6.346159 0
M  V30 16 H 8.343294 5.250903 -10.432350 0
M  V30 17 H 7.618209 6.495207 -9.631498 0
M  V30 18 H 9.863247 4.901600 -8.560234 0
M  V30 19 H 8.180630 4.524530 -8.248677 0
M  V30 20 H 9.121115 5.773792 -6.373143 0
M  V30 21 H 7.845280 6.671938 -7.048691 0
M  V30 22 H 9.385240 8.463178 -9.347618 0
M  V30 23 H 11.165439 10.054835 -8.711401 0
M  V30 24 H 12.738432 10.706786 -6.385363 0
M  V30 25 H 13.245099 9.920578 -4.111363 0
M  V30 26 H 12.548823 9.664095 -2.186069 0
M  V30 27 H 12.635003 8.427640 -0.953027 0
M  V30 28 H 10.564034 6.584308 -4.668740 0
M  V30 29 H 9.209250 6.595300 -10.036228 0
M  V30 END ATOM
M  V30 BEGIN BOND
M  V30 1 1 2 1
M  V30 2 1 3 2
M  V30 3 1 4 3
M  V30 4 2 5 4
M  V30 5 1 6 5
M  V30 6 1 7 6
M  V30 7 1 8 7
M  V30 8 2 9 8
M  V30 9 1 10 9
M  V30 10 1 11 10
M  V30 11 1 12 11
M  V30 12 2 13 11
M  V30 13 2 14 10
M  V30 14 1 15 4
M  V30 15 2 15 7
M  V30 16 1 15 14
M  V30 17 1 16 1
M  V30 18 1 17 1
M  V30 19 1 18 2
M  V30 20 1 19 2
M  V30 21 1 20 3
M  V30 22 1 21 3
M  V30 23 1 22 5
M  V30 24 1 23 6
M  V30 25 1 24 8
M  V30 26 1 25 9
M  V30 27 1 26 12
M  V30 28 1 27 12
M  V30 29 1 28 14
M  V30 30 1 29 1
M  V30 END BOND
M  V30 END CTAB
M  END
>  <b_m_subgroup_collapsed>  (866) 
0

>  <r_i_docking_score>  (866) 
-7.7589402063565496

>  <s_m_subgroup_title>  (866) 
glide-dock_SP_D22_pv

>  <s_m_subgroupid>  (866) 
glide-dock_SP_D22_pv

>  <Molecule ChEMBL ID>  (866) 
CHEMBL1256863

>  <Standard Type>  (866) 
Ki

>  <Standard Value>  (866) 
10000.0

>  <label>  (866) 
0

$$$$
CHEMBL6025845
     RDKit          3D

  0  0  0  0  0  0  0  0  0  0999 V3000
M  V30 BEGIN CTAB
M  V30 COUNTS 70 73 0 0 1
M  V30 BEGIN ATOM
M  V30 1 C 2.889552 -0.991376 -14.836034 0
M  V30 2 C 4.273642 -0.472793 -14.722757 0
M  V30 3 N 4.705606 0.223151 -13.672261 0
M  V30 4 C 6.040236 0.601875 -13.809256 0
M  V30 5 C 6.637625 0.158532 -14.964095 0
M  V30 6 C 8.060051 0.331113 -15.394344 0
M  V30 7 C 8.424991 1.810028 -15.526904 0
M  V30 8 O 8.322464 2.373059 -16.616526 0
M  V30 9 N 8.825980 2.427282 -14.404997 0
M  V30 10 C 9.091094 3.855112 -14.253006 0 CFG=1
M  V30 11 C 8.164463 4.417161 -13.162241 0
M  V30 12 C 8.465351 5.890267 -12.845035 0
M  V30 13 C 9.941692 6.101024 -12.431927 0 CFG=2
M  V30 14 C 10.329567 7.574332 -12.149862 0
M  V30 15 C 9.528068 8.292080 -11.052524 0
M  V30 16 N 10.083731 8.010691 -9.715474 0 CFG=1 CHG=1
M  V30 17 C 11.275015 8.832110 -9.379352 0
M  V30 18 C 11.924047 8.326575 -8.085695 0
M  V30 19 N 10.929804 8.139419 -7.037022 0
M  V30 20 C 11.060566 8.866880 -5.859414 0
M  V30 21 N 10.886444 10.171980 -5.822666 0
M  V30 22 O 11.039008 10.502323 -4.475916 0
M  V30 23 C 11.353718 9.376060 -3.785851 0
M  V30 24 C 11.358640 8.275827 -4.596917 0
M  V30 25 C 11.618093 6.825434 -4.218356 0
M  V30 26 C 12.488240 6.709428 -2.959930 0
M  V30 27 F 10.486091 6.181368 -3.952967 0
M  V30 28 F 12.197754 6.172881 -5.222086 0
M  V30 29 C 9.614239 7.574279 -7.319714 0 CFG=2
M  V30 30 C 9.677346 6.056398 -7.303224 0
M  V30 31 C 9.057852 8.079178 -8.652057 0
M  V30 32 C 10.879914 5.525895 -13.517902 0
M  V30 33 C 10.568447 4.063986 -13.882359 0
M  V30 34 S 5.499222 -0.714279 -15.957160 0
M  V30 35 H 2.505709 -1.256678 -13.848338 0
M  V30 36 H 2.241709 -0.227555 -15.266944 0
M  V30 37 H 2.886075 -1.870344 -15.482647 0
M  V30 38 H 6.486259 1.193734 -13.030030 0
M  V30 39 H 8.728211 -0.151542 -14.680184 0
M  V30 40 H 8.227330 -0.163314 -16.351017 0
M  V30 41 H 8.925656 1.862641 -13.572117 0
M  V30 42 H 8.887820 4.390385 -15.182899 0
M  V30 43 H 7.123079 4.317401 -13.470645 0
M  V30 44 H 8.268094 3.831741 -12.247929 0
M  V30 45 H 8.212276 6.500319 -13.707711 0
M  V30 46 H 7.789742 6.198101 -12.048841 0
M  V30 47 H 10.088772 5.529746 -11.514239 0
M  V30 48 H 11.396254 7.619100 -11.929585 0
M  V30 49 H 10.226056 8.171787 -13.046110 0
M  V30 50 H 9.502895 9.369240 -11.219054 0
M  V30 51 H 8.488703 7.991211 -11.104765 0
M  V30 52 H 12.013703 8.814042 -10.180305 0
M  V30 53 H 10.971487 9.871801 -9.265310 0
M  V30 54 H 12.418578 7.372740 -8.259768 0
M  V30 55 H 12.702471 9.018582 -7.760938 0
M  V30 56 H 11.515724 9.516285 -2.726308 0
M  V30 57 H 12.728503 5.672012 -2.736887 0
M  V30 58 H 13.426312 7.248130 -3.078017 0
M  V30 59 H 11.982278 7.120119 -2.086720 0
M  V30 60 H 8.917563 7.878003 -6.534672 0
M  V30 61 H 8.692443 5.608704 -7.447412 0
M  V30 62 H 10.363082 5.651314 -8.048296 0
M  V30 63 H 10.032995 5.772328 -6.322024 0
M  V30 64 H 8.682904 9.098587 -8.555435 0
M  V30 65 H 8.219560 7.441759 -8.921671 0
M  V30 66 H 10.811840 6.134456 -14.419265 0
M  V30 67 H 11.917580 5.597357 -13.190776 0
M  V30 68 H 10.826780 3.419803 -13.046563 0
M  V30 69 H 11.204900 3.752438 -14.711509 0
M  V30 70 H 10.377750 7.045902 -9.728142 0
M  V30 END ATOM
M  V30 BEGIN BOND
M  V30 1 1 2 1
M  V30 2 2 3 2
M  V30 3 1 4 3
M  V30 4 2 5 4
M  V30 5 1 6 5
M  V30 6 1 7 6
M  V30 7 2 8 7
M  V30 8 1 9 7
M  V30 9 1 10 9
M  V30 10 1 11 10
M  V30 11 1 12 11
M  V30 12 1 13 12
M  V30 13 1 14 13
M  V30 14 1 15 14
M  V30 15 1 16 15
M  V30 16 1 17 16
M  V30 17 1 18 17
M  V30 18 1 19 18
M  V30 19 1 20 19
M  V30 20 2 21 20
M  V30 21 1 22 21
M  V30 22 1 23 22
M  V30 23 1 24 20
M  V30 24 2 24 23
M  V30 25 1 25 24
M  V30 26 1 26 25
M  V30 27 1 27 25
M  V30 28 1 28 25
M  V30 29 1 29 19
M  V30 30 1 30 29
M  V30 31 1 31 16
M  V30 32 1 31 29
M  V30 33 1 32 13
M  V30 34 1 33 10
M  V30 35 1 33 32
M  V30 36 1 34 2
M  V30 37 1 34 5
M  V30 38 1 35 1
M  V30 39 1 36 1
M  V30 40 1 37 1
M  V30 41 1 38 4
M  V30 42 1 39 6
M  V30 43 1 40 6
M  V30 44 1 41 9
M  V30 45 1 10 42 CFG=3
M  V30 46 1 43 11
M  V30 47 1 44 11
M  V30 48 1 45 12
M  V30 49 1 46 12
M  V30 50 1 13 47 CFG=1
M  V30 51 1 48 14
M  V30 52 1 49 14
M  V30 53 1 50 15
M  V30 54 1 51 15
M  V30 55 1 52 17
M  V30 56 1 53 17
M  V30 57 1 54 18
M  V30 58 1 55 18
M  V30 59 1 56 23
M  V30 60 1 57 26
M  V30 61 1 58 26
M  V30 62 1 59 26
M  V30 63 1 29 60 CFG=1
M  V30 64 1 61 30
M  V30 65 1 62 30
M  V30 66 1 63 30
M  V30 67 1 64 31
M  V30 68 1 65 31
M  V30 69 1 66 32
M  V30 70 1 67 32
M  V30 71 1 68 33
M  V30 72 1 69 33
M  V30 73 1 16 70 CFG=3
M  V30 END BOND
M  V30 END CTAB
M  END
>  <b_m_subgroup_collapsed>  (867) 
0

>  <r_i_docking_score>  (867) 
-7.7572522375886397

>  <s_m_subgroup_title>  (867) 
glide-dock_SP_D22_pv

>  <s_m_subgroupid>  (867) 
glide-dock_SP_D22_pv

>  <Molecule ChEMBL ID>  (867) 
CHEMBL6025845

>  <Standard Type>  (867) 
Ki

>  <Standard Value>  (867) 
68.0

>  <label>  (867) 
1

$$$$
CHEMBL124234
     RDKit          3D

  0  0  0  0  0  0  0  0  0  0999 V3000
M  V30 BEGIN CTAB
M  V30 COUNTS 53 56 0 0 1
M  V30 BEGIN ATOM
M  V30 1 C 6.638353 2.192485 -14.246992 0
M  V30 2 C 7.139256 3.520591 -13.718604 0
M  V30 3 C 8.456400 3.936214 -14.001404 0
M  V30 4 C 8.926838 5.173458 -13.521480 0
M  V30 5 C 8.086040 6.001740 -12.747730 0
M  V30 6 C 8.595649 7.334689 -12.217817 0
M  V30 7 N 8.886027 7.297095 -10.779611 0 CFG=2 CHG=1
M  V30 8 C 9.223144 8.636123 -10.249640 0
M  V30 9 C 9.341922 8.585224 -8.725753 0
M  V30 10 C 10.441696 7.590307 -8.304280 0 CFG=1
M  V30 11 C 10.616237 7.497149 -6.767873 0 CFG=1
M  V30 12 C 11.534456 6.326929 -6.391408 0
M  V30 13 C 11.686384 6.153583 -4.887558 0
M  V30 14 C 11.905427 7.408832 -4.116935 0
M  V30 15 C 12.376449 7.309125 -2.794428 0
M  V30 16 C 12.486033 8.466161 -2.012732 0
M  V30 17 C 12.086012 9.694924 -2.555437 0
M  V30 18 C 11.620363 9.788948 -3.873475 0
M  V30 19 C 11.556450 8.650481 -4.680010 0
M  V30 20 C 11.153136 8.780314 -6.098503 0
M  V30 21 O 11.253175 9.840327 -6.712617 0
M  V30 22 C 10.090046 6.216688 -8.924411 0
M  V30 23 C 9.910805 6.293820 -10.429294 0
M  V30 24 C 6.772413 5.576804 -12.453542 0
M  V30 25 C 6.299000 4.342669 -12.939506 0
M  V30 26 H 5.685912 1.917405 -13.792847 0
M  V30 27 H 6.500373 2.245895 -15.326995 0
M  V30 28 H 7.357000 1.400911 -14.031534 0
M  V30 29 H 9.107657 3.307763 -14.591844 0
M  V30 30 H 9.936836 5.481345 -13.749922 0
M  V30 31 H 7.869515 8.116227 -12.448352 0
M  V30 32 H 9.550077 7.615653 -12.646902 0
M  V30 33 H 8.454044 9.357501 -10.530443 0
M  V30 34 H 10.162506 8.972558 -10.689776 0
M  V30 35 H 8.395411 8.289490 -8.276721 0
M  V30 36 H 9.529391 9.592794 -8.370559 0
M  V30 37 H 11.389182 7.921773 -8.734256 0
M  V30 38 H 9.636089 7.306002 -6.328356 0
M  V30 39 H 11.162072 5.381059 -6.758797 0
M  V30 40 H 12.486013 6.449127 -6.895652 0
M  V30 41 H 12.475400 5.436280 -4.674851 0
M  V30 42 H 10.752261 5.772293 -4.486854 0
M  V30 43 H 12.631297 6.346604 -2.373607 0
M  V30 44 H 12.836578 8.408058 -0.995275 0
M  V30 45 H 12.086032 10.572424 -1.940889 0
M  V30 46 H 11.286021 10.743334 -4.256377 0
M  V30 47 H 10.882319 5.488338 -8.777783 0
M  V30 48 H 9.189080 5.810548 -8.460436 0
M  V30 49 H 9.642147 5.301679 -10.792649 0
M  V30 50 H 10.854528 6.572096 -10.902481 0
M  V30 51 H 6.121487 6.191966 -11.847392 0
M  V30 52 H 5.290599 4.031236 -12.707940 0
M  V30 53 H 7.990997 7.070135 -10.340889 0
M  V30 END ATOM
M  V30 BEGIN BOND
M  V30 1 1 2 1
M  V30 2 1 3 2
M  V30 3 2 4 3
M  V30 4 1 5 4
M  V30 5 1 6 5
M  V30 6 1 7 6
M  V30 7 1 8 7
M  V30 8 1 9 8
M  V30 9 1 10 9
M  V30 10 1 11 10
M  V30 11 1 12 11
M  V30 12 1 13 12
M  V30 13 1 14 13
M  V30 14 2 15 14
M  V30 15 1 16 15
M  V30 16 2 17 16
M  V30 17 1 18 17
M  V30 18 1 19 14
M  V30 19 2 19 18
M  V30 20 1 20 11
M  V30 21 1 20 19
M  V30 22 2 21 20
M  V30 23 1 22 10
M  V30 24 1 23 7
M  V30 25 1 23 22
M  V30 26 2 24 5
M  V30 27 2 25 2
M  V30 28 1 25 24
M  V30 29 1 26 1
M  V30 30 1 27 1
M  V30 31 1 28 1
M  V30 32 1 29 3
M  V30 33 1 30 4
M  V30 34 1 31 6
M  V30 35 1 32 6
M  V30 36 1 33 8
M  V30 37 1 34 8
M  V30 38 1 35 9
M  V30 39 1 36 9
M  V30 40 1 10 37 CFG=3
M  V30 41 1 11 38 CFG=1
M  V30 42 1 39 12
M  V30 43 1 40 12
M  V30 44 1 41 13
M  V30 45 1 42 13
M  V30 46 1 43 15
M  V30 47 1 44 16
M  V30 48 1 45 17
M  V30 49 1 46 18
M  V30 50 1 47 22
M  V30 51 1 48 22
M  V30 52 1 49 23
M  V30 53 1 50 23
M  V30 54 1 51 24
M  V30 55 1 52 25
M  V30 56 1 7 53 CFG=1
M  V30 END BOND
M  V30 END CTAB
M  END
>  <b_m_subgroup_collapsed>  (868) 
0

>  <r_i_docking_score>  (868) 
-7.7572079036430104

>  <s_m_subgroup_title>  (868) 
glide-dock_SP_D22_pv

>  <s_m_subgroupid>  (868) 
glide-dock_SP_D22_pv

>  <Molecule ChEMBL ID>  (868) 
CHEMBL124234

>  <Standard Type>  (868) 
Ki

>  <Standard Value>  (868) 
37.0

>  <label>  (868) 
1

$$$$
CHEMBL425208
     RDKit          3D

  0  0  0  0  0  0  0  0  0  0999 V3000
M  V30 BEGIN CTAB
M  V30 COUNTS 56 60 0 0 1
M  V30 BEGIN ATOM
M  V30 1 C 8.166663 2.109416 -17.105711 0
M  V30 2 C 8.514794 1.560540 -15.711056 0 CFG=1
M  V30 3 C 10.036220 1.532455 -15.445298 0
M  V30 4 C 10.589363 2.920862 -15.101389 0
M  V30 5 O 11.710877 3.256926 -15.468757 0
M  V30 6 N 9.806591 3.729812 -14.372501 0
M  V30 7 C 8.475201 3.423768 -13.985826 0
M  V30 8 C 7.825655 4.172367 -12.970266 0
M  V30 9 C 8.583087 5.224082 -12.160555 0
M  V30 10 C 8.207289 5.218327 -10.665276 0
M  V30 11 N 9.291357 5.705781 -9.819134 0
M  V30 12 C 8.921362 5.524200 -8.417411 0
M  V30 13 C 10.139197 5.828466 -7.532332 0
M  V30 14 N 10.665941 7.158711 -7.761591 0
M  V30 15 C 10.764244 8.133850 -6.776845 0
M  V30 16 N 10.486210 9.372677 -6.976188 0
M  V30 17 S 10.886015 10.383469 -5.748266 0
M  V30 18 O 12.133868 11.101079 -6.246865 0
M  V30 19 C 11.429007 9.050809 -4.715203 0
M  V30 20 C 11.889856 9.143787 -3.392591 0
M  V30 21 C 12.209819 7.939966 -2.733139 0
M  V30 22 C 12.086012 6.706656 -3.413931 0
M  V30 23 C 11.643697 6.663548 -4.757361 0
M  V30 24 C 11.286016 7.859959 -5.403351 0
M  V30 25 C 10.847564 7.459507 -9.184055 0
M  V30 26 C 9.584247 7.128167 -10.002167 0
M  V30 27 C 6.483236 3.864817 -12.646728 0
M  V30 28 C 5.827822 2.783019 -13.263105 0
M  V30 29 F 4.573518 2.447663 -12.885121 0
M  V30 30 C 6.486458 2.024148 -14.246711 0
M  V30 31 C 7.801421 2.352878 -14.624348 0
M  V30 32 H 7.091061 2.073419 -17.280851 0
M  V30 33 H 8.488521 3.144519 -17.223173 0
M  V30 34 H 8.647367 1.522101 -17.888430 0
M  V30 35 H 8.155102 0.531583 -15.658614 0
M  V30 36 H 10.575118 1.109030 -16.293629 0
M  V30 37 H 10.244591 0.886243 -14.591362 0
M  V30 38 H 10.192114 4.612199 -14.072033 0
M  V30 39 H 8.396861 6.207033 -12.594162 0
M  V30 40 H 9.655272 5.045149 -12.236938 0
M  V30 41 H 8.013644 4.187191 -10.366245 0
M  V30 42 H 7.286125 5.772352 -10.490973 0
M  V30 43 H 8.598913 4.496659 -8.244447 0
M  V30 44 H 8.085790 6.172651 -8.152595 0
M  V30 45 H 10.938107 5.114471 -7.725998 0
M  V30 46 H 9.820793 5.772299 -6.494934 0
M  V30 47 H 11.976174 10.098636 -2.893656 0
M  V30 48 H 12.553445 7.962541 -1.709556 0
M  V30 49 H 12.344493 5.786767 -2.908533 0
M  V30 50 H 11.592575 5.730389 -5.279948 0
M  V30 51 H 11.114554 8.506371 -9.334590 0
M  V30 52 H 11.686103 6.879488 -9.562819 0
M  V30 53 H 9.772907 7.348143 -11.052506 0
M  V30 54 H 8.741996 7.747030 -9.689337 0
M  V30 55 H 5.961523 4.417109 -11.878233 0
M  V30 56 H 5.979210 1.190818 -14.709511 0
M  V30 END ATOM
M  V30 BEGIN BOND
M  V30 1 1 2 1
M  V30 2 1 3 2
M  V30 3 1 4 3
M  V30 4 2 5 4
M  V30 5 1 6 4
M  V30 6 1 7 6
M  V30 7 2 8 7
M  V30 8 1 9 8
M  V30 9 1 10 9
M  V30 10 1 11 10
M  V30 11 1 12 11
M  V30 12 1 13 12
M  V30 13 1 14 13
M  V30 14 1 15 14
M  V30 15 2 16 15
M  V30 16 1 17 16 CFG=3
M  V30 17 2 18 17
M  V30 18 1 19 17
M  V30 19 2 20 19
M  V30 20 1 21 20
M  V30 21 2 22 21
M  V30 22 1 23 22
M  V30 23 1 24 15
M  V30 24 1 24 19
M  V30 25 2 24 23
M  V30 26 1 25 14
M  V30 27 1 26 11
M  V30 28 1 26 25
M  V30 29 1 27 8
M  V30 30 2 28 27
M  V30 31 1 29 28
M  V30 32 1 30 28
M  V30 33 1 31 2
M  V30 34 1 31 7
M  V30 35 2 31 30
M  V30 36 1 32 1
M  V30 37 1 33 1
M  V30 38 1 34 1
M  V30 39 1 2 35 CFG=3
M  V30 40 1 36 3
M  V30 41 1 37 3
M  V30 42 1 38 6
M  V30 43 1 39 9
M  V30 44 1 40 9
M  V30 45 1 41 10
M  V30 46 1 42 10
M  V30 47 1 43 12
M  V30 48 1 44 12
M  V30 49 1 45 13
M  V30 50 1 46 13
M  V30 51 1 47 20
M  V30 52 1 48 21
M  V30 53 1 49 22
M  V30 54 1 50 23
M  V30 55 1 51 25
M  V30 56 1 52 25
M  V30 57 1 53 26
M  V30 58 1 54 26
M  V30 59 1 55 27
M  V30 60 1 56 30
M  V30 END BOND
M  V30 END CTAB
M  END
>  <b_m_subgroup_collapsed>  (869) 
0

>  <r_i_docking_score>  (869) 
-7.7564728016562103

>  <s_m_subgroup_title>  (869) 
glide-dock_SP_D22_pv

>  <s_m_subgroupid>  (869) 
glide-dock_SP_D22_pv

>  <Molecule ChEMBL ID>  (869) 
CHEMBL425208

>  <Standard Type>  (869) 
Ki

>  <Standard Value>  (869) 
92.0

>  <label>  (869) 
1

$$$$
CHEMBL3286575
     RDKit          3D

  0  0  0  0  0  0  0  0  0  0999 V3000
M  V30 BEGIN CTAB
M  V30 COUNTS 51 55 0 0 1
M  V30 BEGIN ATOM
M  V30 1 C 12.429729 6.814506 -14.242752 0
M  V30 2 C 12.120126 7.372156 -12.987398 0
M  V30 3 C 11.020265 6.907407 -12.224482 0
M  V30 4 C 10.294577 5.835589 -12.777022 0
M  V30 5 C 9.202093 5.099521 -12.286424 0
M  V30 6 C 8.812581 4.142937 -13.185386 0
M  V30 7 N 9.698573 4.263623 -14.245946 0
M  V30 8 C 10.591161 5.270252 -14.005826 0
M  V30 9 C 11.652321 5.756951 -14.744190 0
M  V30 10 C 8.780789 5.595597 -10.927444 0
M  V30 11 C 9.844439 6.426454 -10.136121 0 CFG=2
M  V30 12 C 9.189646 7.161963 -8.951846 0
M  V30 13 N 10.149399 7.943913 -8.139087 0 CFG=1 CHG=1
M  V30 14 C 10.941729 7.134459 -7.174918 0
M  V30 15 C 10.827214 7.656377 -5.719824 0
M  V30 16 C 11.537693 6.677891 -4.751716 0
M  V30 17 C 11.786289 7.176679 -3.313889 0
M  V30 18 C 12.280344 8.627162 -3.270602 0
M  V30 19 C 11.375522 9.539280 -4.096987 0
M  V30 20 C 11.358190 9.097081 -5.564429 0
M  V30 21 C 10.953620 8.868941 -8.981657 0
M  V30 22 C 11.608740 8.173469 -10.191494 0
M  V30 23 N 10.643878 7.372293 -10.943445 0
M  V30 24 H 13.272229 7.186117 -14.807842 0
M  V30 25 H 12.758035 8.164202 -12.627090 0
M  V30 26 H 8.020803 3.408528 -13.156753 0
M  V30 27 H 9.686387 3.680896 -15.070782 0
M  V30 28 H 11.891530 5.320317 -15.702433 0
M  V30 29 H 8.475915 4.748546 -10.311568 0
M  V30 30 H 7.870027 6.178277 -11.051140 0
M  V30 31 H 10.554877 5.708462 -9.729148 0
M  V30 32 H 8.609688 6.482770 -8.324496 0
M  V30 33 H 8.486259 7.885530 -9.355048 0
M  V30 34 H 10.595213 6.099792 -7.196186 0
M  V30 35 H 11.987803 7.094147 -7.482360 0
M  V30 36 H 9.771346 7.664326 -5.446796 0
M  V30 37 H 10.943089 5.772401 -4.691593 0
M  V30 38 H 12.485985 6.371966 -5.178569 0
M  V30 39 H 10.886130 7.069537 -2.711227 0
M  V30 40 H 12.518361 6.527840 -2.831102 0
M  V30 41 H 12.336392 8.978046 -2.239447 0
M  V30 42 H 13.285776 8.679446 -3.678547 0
M  V30 43 H 10.381755 9.534785 -3.672720 0
M  V30 44 H 11.686404 10.572225 -4.019560 0
M  V30 45 H 12.367020 9.172601 -5.973483 0
M  V30 46 H 10.740304 9.792257 -6.133100 0
M  V30 47 H 11.710634 9.372792 -8.382506 0
M  V30 48 H 10.286612 9.647988 -9.353590 0
M  V30 49 H 12.425983 7.529461 -9.865100 0
M  V30 50 H 12.044039 8.950564 -10.818161 0
M  V30 51 H 9.564972 8.528450 -7.558642 0
M  V30 END ATOM
M  V30 BEGIN BOND
M  V30 1 2 2 1
M  V30 2 1 3 2
M  V30 3 2 4 3
M  V30 4 1 5 4
M  V30 5 2 6 5
M  V30 6 1 7 6
M  V30 7 1 8 4
M  V30 8 1 8 7
M  V30 9 1 9 1
M  V30 10 2 9 8
M  V30 11 1 10 5
M  V30 12 1 11 10
M  V30 13 1 12 11
M  V30 14 1 13 12
M  V30 15 1 14 13
M  V30 16 1 15 14
M  V30 17 1 16 15
M  V30 18 1 17 16
M  V30 19 1 18 17
M  V30 20 1 19 18
M  V30 21 1 20 15
M  V30 22 1 20 19
M  V30 23 1 21 13
M  V30 24 1 22 21
M  V30 25 1 23 3
M  V30 26 1 23 11
M  V30 27 1 23 22
M  V30 28 1 24 1
M  V30 29 1 25 2
M  V30 30 1 26 6
M  V30 31 1 27 7
M  V30 32 1 28 9
M  V30 33 1 29 10
M  V30 34 1 30 10
M  V30 35 1 11 31 CFG=1
M  V30 36 1 32 12
M  V30 37 1 33 12
M  V30 38 1 34 14
M  V30 39 1 35 14
M  V30 40 1 36 15
M  V30 41 1 37 16
M  V30 42 1 38 16
M  V30 43 1 39 17
M  V30 44 1 40 17
M  V30 45 1 41 18
M  V30 46 1 42 18
M  V30 47 1 43 19
M  V30 48 1 44 19
M  V30 49 1 45 20
M  V30 50 1 46 20
M  V30 51 1 47 21
M  V30 52 1 48 21
M  V30 53 1 49 22
M  V30 54 1 50 22
M  V30 55 1 13 51 CFG=1
M  V30 END BOND
M  V30 END CTAB
M  END
>  <b_m_subgroup_collapsed>  (870) 
0

>  <r_i_docking_score>  (870) 
-7.7561477953251003

>  <s_m_subgroup_title>  (870) 
glide-dock_SP_D22_pv

>  <s_m_subgroupid>  (870) 
glide-dock_SP_D22_pv

>  <Molecule ChEMBL ID>  (870) 
CHEMBL3286575

>  <Standard Type>  (870) 
Ki

>  <Standard Value>  (870) 
53.7

>  <label>  (870) 
1

$$$$
CHEMBL195015
     RDKit          3D

  0  0  0  0  0  0  0  0  0  0999 V3000
M  V30 BEGIN CTAB
M  V30 COUNTS 50 54 0 0 1
M  V30 BEGIN ATOM
M  V30 1 C 7.165412 3.924729 -13.203268 0
M  V30 2 C 8.085950 3.736729 -14.246719 0
M  V30 3 C 9.330520 4.390465 -14.223261 0
M  V30 4 C 9.697243 5.177201 -13.098348 0
M  V30 5 C 8.791746 5.324575 -12.014124 0
M  V30 6 N 9.175872 5.999758 -10.839177 0
M  V30 7 C 8.622306 5.582175 -9.561328 0
M  V30 8 C 9.671700 5.771740 -8.463470 0
M  V30 9 N 10.264998 7.138457 -8.447440 0 CHG=1
M  V30 10 C 11.398405 7.205122 -7.486428 0
M  V30 11 C 11.285720 8.265843 -6.441264 0
M  V30 12 C 11.165460 9.614120 -6.646725 0
M  V30 13 N 11.285965 10.270220 -5.437582 0
M  V30 14 C 11.545977 9.373464 -4.423223 0
M  V30 15 C 11.843576 9.545533 -3.061625 0
M  V30 16 C 12.091888 8.419600 -2.256087 0
M  V30 17 C 12.018447 7.131054 -2.818144 0
M  V30 18 C 11.706758 6.970279 -4.184405 0
M  V30 19 C 11.489944 8.086292 -5.027509 0
M  V30 20 C 10.669230 7.628118 -9.802867 0
M  V30 21 C 9.602331 7.388774 -10.884955 0
M  V30 22 C 7.517130 4.716461 -12.097221 0
M  V30 23 O 10.940689 5.772307 -13.046833 0
M  V30 24 C 11.895815 5.263345 -13.968353 0
M  V30 25 C 11.251461 5.155078 -15.354403 0
M  V30 26 O 10.175170 4.229096 -15.298407 0
M  V30 27 H 6.197405 3.446527 -13.239825 0
M  V30 28 H 7.823316 3.107726 -15.083248 0
M  V30 29 H 7.730559 6.172076 -9.345190 0
M  V30 30 H 8.317072 4.535839 -9.585511 0
M  V30 31 H 9.231789 5.554001 -7.489598 0
M  V30 32 H 10.464625 5.039273 -8.627016 0
M  V30 33 H 11.539399 6.240302 -6.996197 0
M  V30 34 H 12.333999 7.372562 -8.022517 0
M  V30 35 H 11.062283 10.169040 -7.563054 0
M  V30 36 H 11.277986 11.276850 -5.350288 0
M  V30 37 H 11.898941 10.540042 -2.644698 0
M  V30 38 H 12.324377 8.547736 -1.209004 0
M  V30 39 H 12.194180 6.259683 -2.203009 0
M  V30 40 H 11.668807 5.972330 -4.596545 0
M  V30 41 H 10.918915 8.688649 -9.750946 0
M  V30 42 H 11.576123 7.107684 -10.115463 0
M  V30 43 H 9.983375 7.666327 -11.867450 0
M  V30 44 H 8.735699 8.024751 -10.702826 0
M  V30 45 H 6.799857 4.834726 -11.299175 0
M  V30 46 H 12.752619 5.937441 -13.998552 0
M  V30 47 H 12.259775 4.292282 -13.628707 0
M  V30 48 H 10.889858 6.127278 -15.693246 0
M  V30 49 H 11.981123 4.807372 -16.085997 0
M  V30 50 H 9.531798 7.751817 -8.118138 0
M  V30 END ATOM
M  V30 BEGIN BOND
M  V30 1 2 2 1
M  V30 2 1 3 2
M  V30 3 2 4 3
M  V30 4 1 5 4
M  V30 5 1 6 5
M  V30 6 1 7 6
M  V30 7 1 8 7
M  V30 8 1 9 8
M  V30 9 1 10 9
M  V30 10 1 11 10
M  V30 11 2 12 11
M  V30 12 1 13 12
M  V30 13 1 14 13
M  V30 14 2 15 14
M  V30 15 1 16 15
M  V30 16 2 17 16
M  V30 17 1 18 17
M  V30 18 1 19 11
M  V30 19 1 19 14
M  V30 20 2 19 18
M  V30 21 1 20 9
M  V30 22 1 21 6
M  V30 23 1 21 20
M  V30 24 1 22 1
M  V30 25 2 22 5
M  V30 26 1 23 4
M  V30 27 1 24 23
M  V30 28 1 25 24
M  V30 29 1 26 3
M  V30 30 1 26 25
M  V30 31 1 27 1
M  V30 32 1 28 2
M  V30 33 1 29 7
M  V30 34 1 30 7
M  V30 35 1 31 8
M  V30 36 1 32 8
M  V30 37 1 33 10
M  V30 38 1 34 10
M  V30 39 1 35 12
M  V30 40 1 36 13
M  V30 41 1 37 15
M  V30 42 1 38 16
M  V30 43 1 39 17
M  V30 44 1 40 18
M  V30 45 1 41 20
M  V30 46 1 42 20
M  V30 47 1 43 21
M  V30 48 1 44 21
M  V30 49 1 45 22
M  V30 50 1 46 24
M  V30 51 1 47 24
M  V30 52 1 48 25
M  V30 53 1 49 25
M  V30 54 1 50 9
M  V30 END BOND
M  V30 END CTAB
M  END
>  <b_m_subgroup_collapsed>  (871) 
0

>  <r_i_docking_score>  (871) 
-7.7535322760253198

>  <s_m_subgroup_title>  (871) 
glide-dock_SP_D22_pv

>  <s_m_subgroupid>  (871) 
glide-dock_SP_D22_pv

>  <Molecule ChEMBL ID>  (871) 
CHEMBL195015

>  <Standard Type>  (871) 
Ki

>  <Standard Value>  (871) 
62.0

>  <label>  (871) 
1

$$$$
CHEMBL4084690
     RDKit          3D

  0  0  0  0  0  0  0  0  0  0999 V3000
M  V30 BEGIN CTAB
M  V30 COUNTS 67 71 0 0 1
M  V30 BEGIN ATOM
M  V30 1 O 12.484630 9.372297 -1.249619 0
M  V30 2 C 12.086473 8.795206 -2.247317 0
M  V30 3 C 11.947312 7.272937 -2.223691 0
M  V30 4 C 12.427346 6.715285 -3.543857 0
M  V30 5 C 11.685933 7.375237 -4.677424 0
M  V30 6 C 11.286176 6.650267 -5.807061 0
M  V30 7 C 10.595228 7.289020 -6.842698 0
M  V30 8 C 10.333508 8.677645 -6.773051 0
M  V30 9 O 9.683105 9.372303 -7.764332 0
M  V30 10 C 9.490829 8.747577 -9.023873 0
M  V30 11 C 10.836302 8.609249 -9.769996 0
M  V30 12 C 10.835290 7.454345 -10.774678 0
M  V30 13 C 9.826658 7.632236 -11.921882 0
M  V30 14 N 8.869811 6.496443 -12.001908 0 CFG=1 CHG=1
M  V30 15 C 7.574819 6.864439 -12.623267 0
M  V30 16 C 6.463871 5.852664 -12.291668 0
M  V30 17 C 6.397396 4.632322 -13.229825 0
M  V30 18 N 7.582136 3.772757 -13.210054 0
M  V30 19 C 7.741616 2.811784 -14.232674 0
M  V30 20 C 8.833785 2.928620 -15.123537 0
M  V30 21 C 9.029189 1.997003 -16.158833 0
M  V30 22 C 8.131040 0.929515 -16.320547 0
M  V30 23 O 8.320736 0.027459 -17.327320 0
M  V30 24 C 7.038876 0.786604 -15.442591 0
M  V30 25 O 6.165240 -0.263117 -15.654738 0
M  V30 26 C 5.078653 -0.512410 -14.867442 0
M  V30 27 O 4.294438 -1.426885 -15.103545 0
M  V30 28 C 4.904884 0.385708 -13.708719 0
M  V30 29 C 5.738570 1.412147 -13.477036 0
M  V30 30 C 6.858932 1.705332 -14.380368 0
M  V30 31 C 8.719824 4.011630 -12.324737 0
M  V30 32 C 9.482872 5.305359 -12.637755 0
M  V30 33 C 10.757896 9.409818 -5.640617 0
M  V30 34 C 11.403379 8.751825 -4.576355 0
M  V30 35 N 11.760101 9.436734 -3.385605 0
M  V30 36 H 12.570780 6.847013 -1.446865 0
M  V30 37 H 10.907670 6.998691 -2.024294 0
M  V30 38 H 12.331730 5.634340 -3.571298 0
M  V30 39 H 13.481017 6.972473 -3.622409 0
M  V30 40 H 11.551038 5.614468 -5.900956 0
M  V30 41 H 10.302262 6.686043 -7.687698 0
M  V30 42 H 8.813045 9.372730 -9.604414 0
M  V30 43 H 8.964975 7.797927 -8.912395 0
M  V30 44 H 11.647881 8.421179 -9.068410 0
M  V30 45 H 11.100305 9.551809 -10.247004 0
M  V30 46 H 10.655434 6.524224 -10.233914 0
M  V30 47 H 11.837712 7.356862 -11.195640 0
M  V30 48 H 10.392849 7.723447 -12.848156 0
M  V30 49 H 9.291553 8.575316 -11.804950 0
M  V30 50 H 7.686185 6.972579 -13.697070 0
M  V30 51 H 7.263375 7.840360 -12.249111 0
M  V30 52 H 5.511206 6.377172 -12.374564 0
M  V30 53 H 6.525337 5.542975 -11.249267 0
M  V30 54 H 6.226812 4.969795 -14.246839 0
M  V30 55 H 5.514085 4.059031 -12.961344 0
M  V30 56 H 9.537261 3.741027 -15.037001 0
M  V30 57 H 9.868303 2.104179 -16.830271 0
M  V30 58 H 7.707637 -0.692313 -17.270901 0
M  V30 59 H 4.083024 0.181825 -13.046924 0
M  V30 60 H 5.603244 2.015347 -12.594086 0
M  V30 61 H 8.376892 4.019353 -11.289718 0
M  V30 62 H 9.408105 3.168707 -12.402622 0
M  V30 63 H 9.600642 5.467456 -13.708918 0
M  V30 64 H 10.489054 5.180604 -12.245315 0
M  V30 65 H 10.551079 10.467713 -5.579885 0
M  V30 66 H 11.762998 10.445724 -3.387020 0
M  V30 67 H 8.637782 6.263636 -11.045734 0
M  V30 END ATOM
M  V30 BEGIN BOND
M  V30 1 2 2 1
M  V30 2 1 3 2
M  V30 3 1 4 3
M  V30 4 1 5 4
M  V30 5 1 6 5
M  V30 6 2 7 6
M  V30 7 1 8 7
M  V30 8 1 9 8
M  V30 9 1 10 9
M  V30 10 1 11 10
M  V30 11 1 12 11
M  V30 12 1 13 12
M  V30 13 1 14 13
M  V30 14 1 15 14
M  V30 15 1 16 15
M  V30 16 1 17 16
M  V30 17 1 18 17
M  V30 18 1 19 18
M  V30 19 1 20 19
M  V30 20 2 21 20
M  V30 21 1 22 21
M  V30 22 1 23 22
M  V30 23 2 24 22
M  V30 24 1 25 24
M  V30 25 1 26 25
M  V30 26 2 27 26
M  V30 27 1 28 26
M  V30 28 2 29 28
M  V30 29 2 30 19
M  V30 30 1 30 24
M  V30 31 1 30 29
M  V30 32 1 31 18
M  V30 33 1 32 14
M  V30 34 1 32 31
M  V30 35 2 33 8
M  V30 36 2 34 5
M  V30 37 1 34 33
M  V30 38 1 35 2
M  V30 39 1 35 34
M  V30 40 1 36 3
M  V30 41 1 37 3
M  V30 42 1 38 4
M  V30 43 1 39 4
M  V30 44 1 40 6
M  V30 45 1 41 7
M  V30 46 1 42 10
M  V30 47 1 43 10
M  V30 48 1 44 11
M  V30 49 1 45 11
M  V30 50 1 46 12
M  V30 51 1 47 12
M  V30 52 1 48 13
M  V30 53 1 49 13
M  V30 54 1 50 15
M  V30 55 1 51 15
M  V30 56 1 52 16
M  V30 57 1 53 16
M  V30 58 1 54 17
M  V30 59 1 55 17
M  V30 60 1 56 20
M  V30 61 1 57 21
M  V30 62 1 58 23
M  V30 63 1 59 28
M  V30 64 1 60 29
M  V30 65 1 61 31
M  V30 66 1 62 31
M  V30 67 1 63 32
M  V30 68 1 64 32
M  V30 69 1 65 33
M  V30 70 1 66 35
M  V30 71 1 14 67 CFG=1
M  V30 END BOND
M  V30 END CTAB
M  END
>  <b_m_subgroup_collapsed>  (872) 
0

>  <r_i_docking_score>  (872) 
-7.7529022375538901

>  <s_m_subgroup_title>  (872) 
glide-dock_SP_D22_pv

>  <s_m_subgroupid>  (872) 
glide-dock_SP_D22_pv

>  <Molecule ChEMBL ID>  (872) 
CHEMBL4084690

>  <Standard Type>  (872) 
Ki

>  <Standard Value>  (872) 
37.0

>  <label>  (872) 
1

$$$$
CHEMBL1258382
     RDKit          3D

  0  0  0  0  0  0  0  0  0  0999 V3000
M  V30 BEGIN CTAB
M  V30 COUNTS 76 81 0 0 1
M  V30 BEGIN ATOM
M  V30 1 O 10.926880 9.372496 -9.195288 0
M  V30 2 C 10.538185 8.440633 -8.496343 0
M  V30 3 N 9.782359 7.444141 -8.973570 0
M  V30 4 C 9.297806 7.381817 -10.342957 0
M  V30 5 C 8.841735 5.961886 -10.702971 0
M  V30 6 C 8.087791 5.919115 -12.041828 0
M  V30 7 C 8.176906 4.557673 -12.755208 0
M  V30 8 N 9.544436 4.219086 -13.239008 0 CHG=1
M  V30 9 C 10.117015 5.247465 -14.153788 0
M  V30 10 C 11.463258 4.845302 -14.775458 0
M  V30 11 N 11.391376 3.492710 -15.305993 0
M  V30 12 C 12.031791 3.133650 -16.515291 0
M  V30 13 C 13.108072 3.913750 -17.011749 0
M  V30 14 C 13.647547 3.675029 -18.292122 0
M  V30 15 C 13.363085 2.456801 -18.936987 0
M  V30 16 C 12.300447 1.664969 -18.458338 0
M  V30 17 C 11.526064 2.101640 -17.357567 0
M  V30 18 C 10.045245 1.679134 -17.335554 0
M  V30 19 C 9.058697 2.806139 -17.797709 0
M  V30 20 C 9.714191 3.846546 -18.706022 0
M  V30 21 C 10.170222 3.474656 -19.988428 0
M  V30 22 C 11.254797 4.168332 -20.561373 0
M  V30 23 C 11.864683 5.220458 -19.842646 0
M  V30 24 C 11.192274 5.785047 -18.737617 0
M  V30 25 C 10.106578 5.093138 -18.166975 0
M  V30 26 C 13.343381 5.533015 -20.082041 0
M  V30 27 C 14.308009 4.818324 -19.065672 0
M  V30 28 C 10.966690 2.486514 -14.346673 0
M  V30 29 C 9.574101 2.853950 -13.820567 0
M  V30 30 C 10.873555 8.353362 -7.060957 0
M  V30 31 C 10.976274 7.240787 -6.263714 0
M  V30 32 C 11.413396 7.579784 -4.931234 0
M  V30 33 C 11.685968 6.753723 -3.822939 0
M  V30 34 C 12.089917 7.266256 -2.579502 0
M  V30 35 C 12.231355 8.651402 -2.407431 0
M  V30 36 C 11.977145 9.509931 -3.488656 0
M  V30 37 C 11.592638 8.984321 -4.739739 0
M  V30 38 S 11.286107 9.844183 -6.242331 0
M  V30 39 H 9.454970 6.742992 -8.327780 0
M  V30 40 H 10.082539 7.694123 -11.034893 0
M  V30 41 H 8.488045 8.101346 -10.461411 0
M  V30 42 H 8.192653 5.562097 -9.923115 0
M  V30 43 H 9.718488 5.316611 -10.732627 0
M  V30 44 H 8.418404 6.723936 -12.698232 0
M  V30 45 H 7.037967 6.146485 -11.848216 0
M  V30 46 H 7.488815 4.552137 -13.603066 0
M  V30 47 H 7.831997 3.774338 -12.076312 0
M  V30 48 H 10.274279 6.172594 -13.604160 0
M  V30 49 H 9.398523 5.448209 -14.950478 0
M  V30 50 H 12.259288 4.893669 -14.030994 0
M  V30 51 H 11.703935 5.570918 -15.549983 0
M  V30 52 H 13.425507 4.803620 -16.490158 0
M  V30 53 H 13.796229 2.231071 -19.898130 0
M  V30 54 H 11.953117 0.852022 -19.081242 0
M  V30 55 H 9.941215 0.853123 -18.037519 0
M  V30 56 H 9.744188 1.256883 -16.380856 0
M  V30 57 H 8.688817 3.324185 -16.914635 0
M  V30 58 H 8.183572 2.376419 -18.284836 0
M  V30 59 H 9.848948 2.544064 -20.432882 0
M  V30 60 H 11.735562 3.752982 -21.433561 0
M  V30 61 H 11.627846 6.618021 -18.203138 0
M  V30 62 H 9.729916 5.414461 -17.208197 0
M  V30 63 H 13.593332 5.206225 -21.092690 0
M  V30 64 H 13.504956 6.612998 -20.071573 0
M  V30 65 H 15.203661 4.461856 -19.577463 0
M  V30 66 H 14.654578 5.554708 -18.340376 0
M  V30 67 H 10.978764 1.483220 -14.766538 0
M  V30 68 H 11.663195 2.462140 -13.502675 0
M  V30 69 H 9.286326 2.152416 -13.047691 0
M  V30 70 H 8.838434 2.774945 -14.623241 0
M  V30 71 H 10.788975 6.226498 -6.581880 0
M  V30 72 H 11.569963 5.696253 -3.942355 0
M  V30 73 H 12.291181 6.588214 -1.766423 0
M  V30 74 H 12.529151 9.058352 -1.451803 0
M  V30 75 H 12.084344 10.572242 -3.340143 0
M  V30 76 H 10.146218 4.188564 -12.429449 0
M  V30 END ATOM
M  V30 BEGIN BOND
M  V30 1 2 2 1
M  V30 2 1 3 2
M  V30 3 1 4 3
M  V30 4 1 5 4
M  V30 5 1 6 5
M  V30 6 1 7 6
M  V30 7 1 8 7
M  V30 8 1 9 8
M  V30 9 1 10 9
M  V30 10 1 11 10
M  V30 11 1 12 11
M  V30 12 1 13 12
M  V30 13 2 14 13
M  V30 14 1 15 14
M  V30 15 2 16 15
M  V30 16 2 17 12
M  V30 17 1 17 16
M  V30 18 1 18 17
M  V30 19 1 19 18
M  V30 20 1 20 19
M  V30 21 1 21 20
M  V30 22 2 22 21
M  V30 23 1 23 22
M  V30 24 2 24 23
M  V30 25 2 25 20
M  V30 26 1 25 24
M  V30 27 1 26 23
M  V30 28 1 27 14
M  V30 29 1 27 26
M  V30 30 1 28 11
M  V30 31 1 29 8
M  V30 32 1 29 28
M  V30 33 1 30 2
M  V30 34 2 31 30
M  V30 35 1 32 31
M  V30 36 2 33 32
M  V30 37 1 34 33
M  V30 38 2 35 34
M  V30 39 1 36 35
M  V30 40 1 37 32
M  V30 41 2 37 36
M  V30 42 1 38 30
M  V30 43 1 38 37
M  V30 44 1 39 3
M  V30 45 1 40 4
M  V30 46 1 41 4
M  V30 47 1 42 5
M  V30 48 1 43 5
M  V30 49 1 44 6
M  V30 50 1 45 6
M  V30 51 1 46 7
M  V30 52 1 47 7
M  V30 53 1 48 9
M  V30 54 1 49 9
M  V30 55 1 50 10
M  V30 56 1 51 10
M  V30 57 1 52 13
M  V30 58 1 53 15
M  V30 59 1 54 16
M  V30 60 1 55 18
M  V30 61 1 56 18
M  V30 62 1 57 19
M  V30 63 1 58 19
M  V30 64 1 59 21
M  V30 65 1 60 22
M  V30 66 1 61 24
M  V30 67 1 62 25
M  V30 68 1 63 26
M  V30 69 1 64 26
M  V30 70 1 65 27
M  V30 71 1 66 27
M  V30 72 1 67 28
M  V30 73 1 68 28
M  V30 74 1 69 29
M  V30 75 1 70 29
M  V30 76 1 71 31
M  V30 77 1 72 33
M  V30 78 1 73 34
M  V30 79 1 74 35
M  V30 80 1 75 36
M  V30 81 1 76 8
M  V30 END BOND
M  V30 END CTAB
M  END
>  <b_m_subgroup_collapsed>  (873) 
0

>  <r_i_docking_score>  (873) 
-7.7523362596477998

>  <s_m_subgroup_title>  (873) 
glide-dock_SP_D22_pv

>  <s_m_subgroupid>  (873) 
glide-dock_SP_D22_pv

>  <Molecule ChEMBL ID>  (873) 
CHEMBL1258382

>  <Standard Type>  (873) 
Ki

>  <Standard Value>  (873) 
83.0

>  <label>  (873) 
1

$$$$
CHEMBL3676910
     RDKit          3D

  0  0  0  0  0  0  0  0  0  0999 V3000
M  V30 BEGIN CTAB
M  V30 COUNTS 79 84 0 0 1
M  V30 BEGIN ATOM
M  V30 1 O 7.287720 1.956505 -17.364119 0
M  V30 2 C 6.880423 1.097554 -16.581528 0
M  V30 3 N 6.712636 1.313233 -15.263956 0
M  V30 4 C 6.829698 2.630913 -14.639313 0 CFG=1
M  V30 5 C 6.028726 2.732402 -13.329029 0
M  V30 6 C 6.235983 4.104414 -12.651968 0
M  V30 7 C 7.729020 4.453540 -12.453358 0 CFG=2
M  V30 8 C 7.933348 5.772652 -11.694673 0
M  V30 9 C 9.359056 5.915584 -11.111829 0
M  V30 10 N 9.523732 7.081730 -10.204593 0 CFG=2 CHG=1
M  V30 11 C 10.952788 7.441427 -10.001922 0
M  V30 12 C 11.124808 8.707230 -9.131090 0
M  V30 13 C 10.320603 8.685925 -7.813135 0 CFG=2
M  V30 14 C 10.945262 7.909453 -6.683735 0
M  V30 15 C 11.271741 6.573439 -6.641037 0
M  V30 16 O 11.685790 6.174880 -5.404796 0
M  V30 17 C 11.687433 7.294569 -4.611230 0
M  V30 18 C 12.086367 7.373852 -3.266998 0
M  V30 19 C 12.086062 8.633953 -2.646211 0
M  V30 20 C 11.686160 9.770798 -3.375018 0
M  V30 21 C 11.283141 9.666770 -4.723528 0
M  V30 22 C 11.283295 8.414505 -5.379817 0
M  V30 23 C 8.885992 8.210221 -8.088848 0
M  V30 24 C 8.857746 6.895966 -8.895430 0
M  V30 25 C 8.471161 4.396327 -13.800209 0
M  V30 26 C 8.313404 3.011129 -14.444640 0
M  V30 27 C 6.532481 -0.269535 -17.083548 0
M  V30 28 C 5.411644 -0.982088 -16.606167 0
M  V30 29 C 5.116930 -2.245056 -17.155897 0
M  V30 30 C 5.952517 -2.770688 -18.171928 0
M  V30 31 N 5.741131 -4.041733 -18.755320 0
M  V30 32 C 4.581315 -4.850893 -18.382072 0
M  V30 33 C 4.896025 -5.705698 -17.133673 0
M  V30 34 O 6.073888 -6.483499 -17.362772 0
M  V30 35 C 7.210818 -5.683893 -17.684069 0
M  V30 36 C 6.923107 -4.874387 -18.960337 0
M  V30 37 N 7.006901 -2.066365 -18.647104 0
M  V30 38 C 7.282062 -0.856248 -18.121479 0
M  V30 39 H 6.415133 0.540573 -14.685112 0
M  V30 40 H 6.346677 3.350501 -15.294546 0
M  V30 41 H 4.965904 2.601809 -13.531113 0
M  V30 42 H 6.284130 1.925499 -12.649690 0
M  V30 43 H 5.760301 4.880326 -13.252103 0
M  V30 44 H 5.716941 4.110343 -11.694686 0
M  V30 45 H 8.163626 3.699939 -11.809300 0
M  V30 46 H 7.680731 6.627182 -12.325955 0
M  V30 47 H 7.204042 5.771539 -10.889053 0
M  V30 48 H 9.647904 5.009680 -10.577426 0
M  V30 49 H 10.055546 6.018253 -11.942234 0
M  V30 50 H 11.459349 6.593559 -9.543410 0
M  V30 51 H 11.434542 7.606827 -10.967639 0
M  V30 52 H 12.179519 8.898176 -8.930017 0
M  V30 53 H 10.783293 9.557185 -9.722790 0
M  V30 54 H 10.246701 9.720134 -7.474613 0
M  V30 55 H 11.224537 5.771474 -7.359885 0
M  V30 56 H 12.391207 6.486102 -2.734506 0
M  V30 57 H 12.386470 8.735228 -1.612579 0
M  V30 58 H 11.683084 10.734916 -2.886730 0
M  V30 59 H 10.977346 10.553010 -5.261133 0
M  V30 60 H 8.329099 8.106937 -7.156469 0
M  V30 61 H 8.368203 8.980162 -8.661238 0
M  V30 62 H 7.837517 6.571163 -9.043100 0
M  V30 63 H 9.313921 6.074106 -8.348651 0
M  V30 64 H 8.090713 5.167566 -14.471273 0
M  V30 65 H 9.531934 4.599808 -13.664377 0
M  V30 66 H 8.808274 2.261979 -13.824729 0
M  V30 67 H 8.836253 3.006825 -15.402248 0
M  V30 68 H 4.779996 -0.573304 -15.831348 0
M  V30 69 H 4.266014 -2.786764 -16.773657 0
M  V30 70 H 3.691800 -4.236433 -18.246555 0
M  V30 71 H 4.349672 -5.514647 -19.216902 0
M  V30 72 H 5.029284 -5.076575 -16.250565 0
M  V30 73 H 4.066546 -6.379878 -16.918419 0
M  V30 74 H 7.455970 -5.026953 -16.848995 0
M  V30 75 H 8.071129 -6.331828 -17.847013 0
M  V30 76 H 6.728940 -5.553826 -19.790432 0
M  V30 77 H 7.801246 -4.295505 -19.246046 0
M  V30 78 H 8.136127 -0.346267 -18.543800 0
M  V30 79 H 9.058024 7.860164 -10.650506 0
M  V30 END ATOM
M  V30 BEGIN BOND
M  V30 1 2 2 1
M  V30 2 1 3 2
M  V30 3 1 4 3
M  V30 4 1 5 4
M  V30 5 1 6 5
M  V30 6 1 7 6
M  V30 7 1 8 7
M  V30 8 1 9 8
M  V30 9 1 10 9
M  V30 10 1 11 10
M  V30 11 1 12 11
M  V30 12 1 13 12
M  V30 13 1 14 13
M  V30 14 2 15 14
M  V30 15 1 16 15
M  V30 16 1 17 16
M  V30 17 2 18 17
M  V30 18 1 19 18
M  V30 19 2 20 19
M  V30 20 1 21 20
M  V30 21 1 22 14
M  V30 22 1 22 17
M  V30 23 2 22 21
M  V30 24 1 23 13
M  V30 25 1 24 10
M  V30 26 1 24 23
M  V30 27 1 25 7
M  V30 28 1 26 4
M  V30 29 1 26 25
M  V30 30 1 27 2
M  V30 31 1 28 27
M  V30 32 2 29 28
M  V30 33 1 30 29
M  V30 34 1 31 30
M  V30 35 1 32 31
M  V30 36 1 33 32
M  V30 37 1 34 33
M  V30 38 1 35 34
M  V30 39 1 36 31
M  V30 40 1 36 35
M  V30 41 2 37 30
M  V30 42 2 38 27
M  V30 43 1 38 37
M  V30 44 1 39 3
M  V30 45 1 4 40 CFG=3
M  V30 46 1 41 5
M  V30 47 1 42 5
M  V30 48 1 43 6
M  V30 49 1 44 6
M  V30 50 1 7 45 CFG=1
M  V30 51 1 46 8
M  V30 52 1 47 8
M  V30 53 1 48 9
M  V30 54 1 49 9
M  V30 55 1 50 11
M  V30 56 1 51 11
M  V30 57 1 52 12
M  V30 58 1 53 12
M  V30 59 1 13 54 CFG=1
M  V30 60 1 55 15
M  V30 61 1 56 18
M  V30 62 1 57 19
M  V30 63 1 58 20
M  V30 64 1 59 21
M  V30 65 1 60 23
M  V30 66 1 61 23
M  V30 67 1 62 24
M  V30 68 1 63 24
M  V30 69 1 64 25
M  V30 70 1 65 25
M  V30 71 1 66 26
M  V30 72 1 67 26
M  V30 73 1 68 28
M  V30 74 1 69 29
M  V30 75 1 70 32
M  V30 76 1 71 32
M  V30 77 1 72 33
M  V30 78 1 73 33
M  V30 79 1 74 35
M  V30 80 1 75 35
M  V30 81 1 76 36
M  V30 82 1 77 36
M  V30 83 1 78 38
M  V30 84 1 10 79 CFG=3
M  V30 END BOND
M  V30 END CTAB
M  END
>  <b_m_subgroup_collapsed>  (874) 
0

>  <r_i_docking_score>  (874) 
-7.7507965291392198

>  <s_m_subgroup_title>  (874) 
glide-dock_SP_D22_pv

>  <s_m_subgroupid>  (874) 
glide-dock_SP_D22_pv

>  <Molecule ChEMBL ID>  (874) 
CHEMBL3676910

>  <Standard Type>  (874) 
Ki

>  <Standard Value>  (874) 
51.8

>  <label>  (874) 
1

$$$$
CHEMBL4528651
     RDKit          3D

  0  0  0  0  0  0  0  0  0  0999 V3000
M  V30 BEGIN CTAB
M  V30 COUNTS 35 36 0 0 1
M  V30 BEGIN ATOM
M  V30 1 C 9.578904 4.652702 -8.647090 0
M  V30 2 C 10.600863 5.717447 -8.199119 0
M  V30 3 C 9.991566 7.006118 -7.621505 0 CFG=1
M  V30 4 C 10.875326 7.582029 -6.507408 0
M  V30 5 C 10.930182 6.972322 -5.234466 0
M  V30 6 C 11.686023 7.544825 -4.186262 0
M  V30 7 C 11.759492 6.862601 -2.834281 0
M  V30 8 C 12.338520 8.775216 -4.388527 0
M  V30 9 C 12.313391 9.372330 -5.661733 0
M  V30 10 C 11.627460 8.759382 -6.729622 0
M  V30 11 O 11.686022 9.372324 -7.954524 0
M  V30 12 C 11.095520 8.735370 -9.075547 0
M  V30 13 C 9.746747 8.082056 -8.715960 0 CFG=2
M  V30 14 C 8.783029 9.139367 -8.168147 0
M  V30 15 N 9.127757 7.517650 -9.932723 0 CHG=1
M  V30 16 H 10.086025 3.742640 -8.970017 0
M  V30 17 H 8.891729 4.383628 -7.846868 0
M  V30 18 H 8.967499 4.978444 -9.485889 0
M  V30 19 H 11.257435 5.962384 -9.028043 0
M  V30 20 H 11.257704 5.285193 -7.446866 0
M  V30 21 H 9.042213 6.739058 -7.152415 0
M  V30 22 H 10.377926 6.065317 -5.052953 0
M  V30 23 H 11.686046 5.780377 -2.939637 0
M  V30 24 H 12.705980 7.084526 -2.341437 0
M  V30 25 H 10.950978 7.199677 -2.185766 0
M  V30 26 H 12.886015 9.244835 -3.584265 0
M  V30 27 H 12.854778 10.291124 -5.833916 0
M  V30 28 H 10.953527 9.494110 -9.846081 0
M  V30 29 H 11.807997 8.021110 -9.487134 0
M  V30 30 H 9.286020 9.772298 -7.446867 0
M  V30 31 H 8.365847 9.772308 -8.949658 0
M  V30 32 H 7.957689 8.679714 -7.630991 0
M  V30 33 H 8.130658 7.372162 -9.776093 0
M  V30 34 H 9.194366 8.172841 -10.696714 0
M  V30 35 H 9.561613 6.643026 -10.186808 0
M  V30 END ATOM
M  V30 BEGIN BOND
M  V30 1 1 2 1
M  V30 2 1 3 2
M  V30 3 1 4 3
M  V30 4 1 5 4
M  V30 5 2 6 5
M  V30 6 1 7 6
M  V30 7 1 8 6
M  V30 8 2 9 8
M  V30 9 2 10 4
M  V30 10 1 10 9
M  V30 11 1 11 10
M  V30 12 1 12 11
M  V30 13 1 13 3
M  V30 14 1 13 12
M  V30 15 1 13 14 CFG=1
M  V30 16 1 15 13
M  V30 17 1 16 1
M  V30 18 1 17 1
M  V30 19 1 18 1
M  V30 20 1 19 2
M  V30 21 1 20 2
M  V30 22 1 3 21 CFG=1
M  V30 23 1 22 5
M  V30 24 1 23 7
M  V30 25 1 24 7
M  V30 26 1 25 7
M  V30 27 1 26 8
M  V30 28 1 27 9
M  V30 29 1 28 12
M  V30 30 1 29 12
M  V30 31 1 30 14
M  V30 32 1 31 14
M  V30 33 1 32 14
M  V30 34 1 33 15
M  V30 35 1 34 15
M  V30 36 1 35 15
M  V30 END BOND
M  V30 END CTAB
M  END
>  <b_m_subgroup_collapsed>  (875) 
0

>  <r_i_docking_score>  (875) 
-7.7488233151099397

>  <s_m_subgroup_title>  (875) 
glide-dock_SP_D22_pv

>  <s_m_subgroupid>  (875) 
glide-dock_SP_D22_pv

>  <Molecule ChEMBL ID>  (875) 
CHEMBL4528651

>  <Standard Type>  (875) 
Ki

>  <Standard Value>  (875) 
10000.0

>  <label>  (875) 
0

$$$$
CHEMBL354748
     RDKit          3D

  0  0  0  0  0  0  0  0  0  0999 V3000
M  V30 BEGIN CTAB
M  V30 COUNTS 52 55 0 0 1
M  V30 BEGIN ATOM
M  V30 1 C 12.945986 4.824313 -16.883978 0
M  V30 2 C 12.760799 6.181717 -16.555899 0
M  V30 3 C 12.088321 6.534976 -15.370243 0
M  V30 4 C 11.596116 5.532586 -14.499803 0
M  V30 5 C 10.898487 5.902056 -13.264435 0
M  V30 6 N 11.358012 6.972388 -12.578283 0 CHG=1
M  V30 7 C 10.837158 7.759591 -11.445004 0
M  V30 8 C 10.219457 6.924844 -10.309149 0 CFG=1
M  V30 9 N 10.056178 7.641568 -9.027041 0
M  V30 10 C 9.820906 6.627165 -7.975533 0
M  V30 11 C 9.705299 7.246314 -6.577110 0
M  V30 12 N 10.928691 7.975344 -6.288660 0
M  V30 13 C 11.385536 8.082270 -4.967634 0
M  V30 14 C 11.633739 6.907257 -4.223983 0
M  V30 15 C 12.086211 6.977720 -2.892269 0
M  V30 16 C 12.310176 8.233712 -2.296876 0
M  V30 17 C 12.084034 9.407750 -3.038053 0
M  V30 18 C 11.627030 9.337785 -4.366969 0
M  V30 19 C 11.186611 9.025522 -7.254273 0
M  V30 20 C 11.266909 8.404357 -8.660187 0
M  V30 21 C 8.886817 6.369592 -10.848486 0
M  V30 22 C 9.094285 5.060276 -11.604560 0
M  V30 23 N 9.836446 5.164631 -12.874125 0
M  V30 24 C 11.792994 4.172359 -14.833558 0
M  V30 25 C 12.461158 3.821455 -16.024286 0
M  V30 26 H 13.457630 4.551265 -17.794737 0
M  V30 27 H 13.133306 6.952727 -17.215075 0
M  V30 28 H 11.948295 7.582347 -15.142343 0
M  V30 29 H 11.701833 8.330470 -11.112151 0
M  V30 30 H 10.120032 8.492439 -11.818003 0
M  V30 31 H 10.884591 6.089610 -10.108899 0
M  V30 32 H 8.902596 6.070355 -8.156589 0
M  V30 33 H 10.633345 5.896400 -7.965739 0
M  V30 34 H 8.850865 7.922698 -6.532281 0
M  V30 35 H 9.524545 6.466994 -5.838897 0
M  V30 36 H 11.468665 5.936421 -4.669477 0
M  V30 37 H 12.259151 6.068621 -2.332306 0
M  V30 38 H 12.652589 8.300272 -1.273886 0
M  V30 39 H 12.240563 10.371689 -2.580745 0
M  V30 40 H 11.444999 10.255389 -4.906459 0
M  V30 41 H 10.388697 9.768087 -7.211307 0
M  V30 42 H 12.125577 9.534141 -7.028696 0
M  V30 43 H 12.143082 7.756667 -8.722165 0
M  V30 44 H 11.421378 9.235188 -9.346976 0
M  V30 45 H 8.155756 6.181090 -10.065979 0
M  V30 46 H 8.392385 7.097002 -11.492745 0
M  V30 47 H 9.610481 4.343950 -10.963249 0
M  V30 48 H 8.120491 4.618992 -11.822595 0
M  V30 49 H 9.532186 4.485723 -13.558234 0
M  V30 50 H 11.440399 3.387296 -14.179104 0
M  V30 51 H 12.610553 2.779991 -16.274719 0
M  V30 52 H 12.232880 7.328109 -12.933807 0
M  V30 END ATOM
M  V30 BEGIN BOND
M  V30 1 2 2 1
M  V30 2 1 3 2
M  V30 3 2 4 3
M  V30 4 1 5 4
M  V30 5 2 6 5
M  V30 6 1 7 6
M  V30 7 1 8 7
M  V30 8 1 9 8
M  V30 9 1 10 9
M  V30 10 1 11 10
M  V30 11 1 12 11
M  V30 12 1 13 12
M  V30 13 2 14 13
M  V30 14 1 15 14
M  V30 15 2 16 15
M  V30 16 1 17 16
M  V30 17 1 18 13
M  V30 18 2 18 17
M  V30 19 1 19 12
M  V30 20 1 20 9
M  V30 21 1 20 19
M  V30 22 1 21 8
M  V30 23 1 22 21
M  V30 24 1 23 5
M  V30 25 1 23 22
M  V30 26 1 24 4
M  V30 27 1 25 1
M  V30 28 2 25 24
M  V30 29 1 26 1
M  V30 30 1 27 2
M  V30 31 1 28 3
M  V30 32 1 29 7
M  V30 33 1 30 7
M  V30 34 1 8 31 CFG=1
M  V30 35 1 32 10
M  V30 36 1 33 10
M  V30 37 1 34 11
M  V30 38 1 35 11
M  V30 39 1 36 14
M  V30 40 1 37 15
M  V30 41 1 38 16
M  V30 42 1 39 17
M  V30 43 1 40 18
M  V30 44 1 41 19
M  V30 45 1 42 19
M  V30 46 1 43 20
M  V30 47 1 44 20
M  V30 48 1 45 21
M  V30 49 1 46 21
M  V30 50 1 47 22
M  V30 51 1 48 22
M  V30 52 1 49 23
M  V30 53 1 50 24
M  V30 54 1 51 25
M  V30 55 1 52 6
M  V30 END BOND
M  V30 END CTAB
M  END
>  <b_m_subgroup_collapsed>  (876) 
0

>  <r_i_docking_score>  (876) 
-7.7480607404145303

>  <s_m_subgroup_title>  (876) 
glide-dock_SP_D22_pv

>  <s_m_subgroupid>  (876) 
glide-dock_SP_D22_pv

>  <Molecule ChEMBL ID>  (876) 
CHEMBL354748

>  <Standard Type>  (876) 
Ki

>  <Standard Value>  (876) 
14000.0

>  <label>  (876) 
0

$$$$
CHEMBL4572245
     RDKit          3D

  0  0  0  0  0  0  0  0  0  0999 V3000
M  V30 BEGIN CTAB
M  V30 COUNTS 46 48 0 0 1
M  V30 BEGIN ATOM
M  V30 1 C 9.102800 2.343964 -14.679692 0
M  V30 2 C 8.130275 3.267146 -13.977431 0
M  V30 3 C 6.751026 2.974341 -13.985542 0
M  V30 4 C 5.850327 3.816286 -13.310411 0
M  V30 5 C 6.323414 4.951168 -12.626499 0
M  V30 6 C 7.700613 5.253148 -12.603037 0
M  V30 7 N 8.085910 6.397867 -11.854676 0
M  V30 8 C 9.287745 6.977889 -11.721642 0
M  V30 9 O 10.321437 6.628558 -12.284245 0
M  V30 10 C 9.340503 8.133364 -10.729227 0
M  V30 11 N 9.287379 7.643139 -9.328854 0 CHG=1
M  V30 12 C 9.037849 8.749940 -8.373478 0
M  V30 13 C 8.914802 8.193385 -6.954711 0
M  V30 14 N 10.138850 7.484634 -6.617623 0
M  V30 15 C 10.885000 7.816957 -5.473136 0
M  V30 16 C 11.484344 6.807804 -4.689796 0
M  V30 17 C 12.085887 7.153111 -3.467470 0
M  V30 18 C 12.086467 8.503102 -3.079148 0
M  V30 19 Cl 12.708718 8.972178 -1.548561 0
M  V30 20 C 11.520114 9.452291 -3.949852 0
M  V30 21 N 10.926441 9.123182 -5.118562 0
M  V30 22 C 10.476715 6.366271 -7.480333 0
M  V30 23 C 10.481081 6.818802 -8.953369 0
M  V30 24 C 8.603800 4.401516 -13.285514 0
M  V30 25 H 9.994585 2.883914 -14.999310 0
M  V30 26 H 9.408950 1.541943 -14.006445 0
M  V30 27 H 8.645052 1.896670 -15.562324 0
M  V30 28 H 6.385510 2.100724 -14.503153 0
M  V30 29 H 4.794239 3.590954 -13.314043 0
M  V30 30 H 5.624165 5.585916 -12.100084 0
M  V30 31 H 7.332054 6.845953 -11.330316 0
M  V30 32 H 8.494474 8.793160 -10.928731 0
M  V30 33 H 10.242900 8.724321 -10.889256 0
M  V30 34 H 8.132836 9.299959 -8.638809 0
M  V30 35 H 9.869395 9.452368 -8.420564 0
M  V30 36 H 8.085800 7.488540 -6.895856 0
M  V30 37 H 8.681467 8.975606 -6.247112 0
M  V30 38 H 11.430116 5.772430 -4.978587 0
M  V30 39 H 12.509113 6.392694 -2.827030 0
M  V30 40 H 11.492158 10.495975 -3.678305 0
M  V30 41 H 11.447743 5.941245 -7.224363 0
M  V30 42 H 9.733744 5.582759 -7.334916 0
M  V30 43 H 10.544067 5.927539 -9.578336 0
M  V30 44 H 11.383021 7.403062 -9.145209 0
M  V30 45 H 9.666691 4.580796 -13.278323 0
M  V30 46 H 8.463601 7.053267 -9.270057 0
M  V30 END ATOM
M  V30 BEGIN BOND
M  V30 1 1 2 1
M  V30 2 1 3 2
M  V30 3 2 4 3
M  V30 4 1 5 4
M  V30 5 2 6 5
M  V30 6 1 7 6
M  V30 7 1 8 7
M  V30 8 2 9 8
M  V30 9 1 10 8
M  V30 10 1 11 10
M  V30 11 1 12 11
M  V30 12 1 13 12
M  V30 13 1 14 13
M  V30 14 1 15 14
M  V30 15 1 16 15
M  V30 16 2 17 16
M  V30 17 1 18 17
M  V30 18 1 19 18
M  V30 19 2 20 18
M  V30 20 2 21 15
M  V30 21 1 21 20
M  V30 22 1 22 14
M  V30 23 1 23 11
M  V30 24 1 23 22
M  V30 25 2 24 2
M  V30 26 1 24 6
M  V30 27 1 25 1
M  V30 28 1 26 1
M  V30 29 1 27 1
M  V30 30 1 28 3
M  V30 31 1 29 4
M  V30 32 1 30 5
M  V30 33 1 31 7
M  V30 34 1 32 10
M  V30 35 1 33 10
M  V30 36 1 34 12
M  V30 37 1 35 12
M  V30 38 1 36 13
M  V30 39 1 37 13
M  V30 40 1 38 16
M  V30 41 1 39 17
M  V30 42 1 40 20
M  V30 43 1 41 22
M  V30 44 1 42 22
M  V30 45 1 43 23
M  V30 46 1 44 23
M  V30 47 1 45 24
M  V30 48 1 46 11
M  V30 END BOND
M  V30 END CTAB
M  END
>  <b_m_subgroup_collapsed>  (877) 
0

>  <r_i_docking_score>  (877) 
-7.7449888168573899

>  <s_m_subgroup_title>  (877) 
glide-dock_SP_D22_pv

>  <s_m_subgroupid>  (877) 
glide-dock_SP_D22_pv

>  <Molecule ChEMBL ID>  (877) 
CHEMBL4572245

>  <Standard Type>  (877) 
Ki

>  <Standard Value>  (877) 
10000.0

>  <label>  (877) 
0

$$$$
CHEMBL404000
     RDKit          3D

  0  0  0  0  0  0  0  0  0  0999 V3000
M  V30 BEGIN CTAB
M  V30 COUNTS 54 58 0 0 1
M  V30 BEGIN ATOM
M  V30 1 N 11.319331 2.680860 -15.833096 0 CHG=1
M  V30 2 C 10.618646 1.897191 -14.802983 0 CFG=2
M  V30 3 C 10.010694 0.598365 -15.393145 0
M  V30 4 C 8.489894 0.836172 -15.554291 0
M  V30 5 C 8.236244 2.060200 -14.716378 0
M  V30 6 C 6.993055 2.572990 -14.315963 0
M  V30 7 C 6.967865 3.685819 -13.444940 0
M  V30 8 C 8.175133 4.266957 -12.981259 0
M  V30 9 C 8.121544 5.343281 -11.902017 0
M  V30 10 C 9.295946 5.208492 -10.916399 0
M  V30 11 N 9.115691 5.905390 -9.650078 0
M  V30 12 C 10.190394 5.472217 -8.761508 0
M  V30 13 C 10.076478 6.109165 -7.374856 0
M  V30 14 N 10.064608 7.554868 -7.486701 0
M  V30 15 C 10.755688 8.422851 -6.612566 0
M  V30 16 N 10.939962 9.658115 -7.018440 0
M  V30 17 S 11.685412 10.560577 -5.847291 0
M  V30 18 C 11.855897 9.251113 -4.710161 0
M  V30 19 C 12.430108 9.264142 -3.427895 0
M  V30 20 C 12.440379 8.094036 -2.655351 0
M  V30 21 C 11.877315 6.920641 -3.181056 0
M  V30 22 C 11.301996 6.919384 -4.468595 0
M  V30 23 C 11.276336 8.079976 -5.287366 0
M  V30 24 C 9.071247 8.043230 -8.444246 0
M  V30 25 C 9.244945 7.355760 -9.813522 0
M  V30 26 C 9.418097 3.767298 -13.448439 0
M  V30 27 C 9.419718 2.650858 -14.301187 0
M  V30 28 H 11.629288 3.554961 -15.433418 0
M  V30 29 H 12.117560 2.163002 -16.172462 0
M  V30 30 H 11.289910 1.679243 -13.973014 0
M  V30 31 H 10.494262 0.246108 -16.305626 0
M  V30 32 H 10.140605 -0.192330 -14.652007 0
M  V30 33 H 7.900145 -0.015857 -15.213216 0
M  V30 34 H 8.228681 1.048374 -16.590733 0
M  V30 35 H 6.085049 2.094809 -14.639524 0
M  V30 36 H 6.018055 4.060255 -13.090698 0
M  V30 37 H 8.117612 6.327024 -12.371821 0
M  V30 38 H 7.180460 5.252916 -11.356737 0
M  V30 39 H 9.411372 4.150452 -10.687190 0
M  V30 40 H 10.221006 5.534421 -11.389983 0
M  V30 41 H 10.191607 4.386165 -8.661784 0
M  V30 42 H 11.140308 5.772657 -9.199190 0
M  V30 43 H 9.177218 5.773389 -6.858497 0
M  V30 44 H 10.946756 5.776569 -6.815593 0
M  V30 45 H 12.856425 10.172398 -3.038326 0
M  V30 46 H 12.867257 8.100887 -1.663724 0
M  V30 47 H 11.867625 6.016604 -2.589034 0
M  V30 48 H 10.848214 6.000449 -4.798020 0
M  V30 49 H 8.087957 7.829247 -8.031347 0
M  V30 50 H 9.112848 9.123404 -8.578410 0
M  V30 51 H 10.213877 7.613756 -10.243560 0
M  V30 52 H 8.487172 7.719060 -10.506292 0
M  V30 53 H 10.356290 4.180191 -13.111115 0
M  V30 54 H 10.682931 2.870071 -16.594173 0
M  V30 END ATOM
M  V30 BEGIN BOND
M  V30 1 1 2 1
M  V30 2 1 3 2
M  V30 3 1 4 3
M  V30 4 1 5 4
M  V30 5 1 6 5
M  V30 6 2 7 6
M  V30 7 1 8 7
M  V30 8 1 9 8
M  V30 9 1 10 9
M  V30 10 1 11 10
M  V30 11 1 12 11
M  V30 12 1 13 12
M  V30 13 1 14 13
M  V30 14 1 15 14
M  V30 15 2 16 15
M  V30 16 1 17 16
M  V30 17 1 18 17
M  V30 18 2 19 18
M  V30 19 1 20 19
M  V30 20 2 21 20
M  V30 21 1 22 21
M  V30 22 1 23 15
M  V30 23 1 23 18
M  V30 24 2 23 22
M  V30 25 1 24 14
M  V30 26 1 25 11
M  V30 27 1 25 24
M  V30 28 2 26 8
M  V30 29 1 27 2
M  V30 30 2 27 5
M  V30 31 1 27 26
M  V30 32 1 28 1
M  V30 33 1 29 1
M  V30 34 1 2 30 CFG=1
M  V30 35 1 31 3
M  V30 36 1 32 3
M  V30 37 1 33 4
M  V30 38 1 34 4
M  V30 39 1 35 6
M  V30 40 1 36 7
M  V30 41 1 37 9
M  V30 42 1 38 9
M  V30 43 1 39 10
M  V30 44 1 40 10
M  V30 45 1 41 12
M  V30 46 1 42 12
M  V30 47 1 43 13
M  V30 48 1 44 13
M  V30 49 1 45 19
M  V30 50 1 46 20
M  V30 51 1 47 21
M  V30 52 1 48 22
M  V30 53 1 49 24
M  V30 54 1 50 24
M  V30 55 1 51 25
M  V30 56 1 52 25
M  V30 57 1 53 26
M  V30 58 1 54 1
M  V30 END BOND
M  V30 END CTAB
M  END
>  <b_m_subgroup_collapsed>  (878) 
0

>  <r_i_docking_score>  (878) 
-7.7446631006882898

>  <s_m_subgroup_title>  (878) 
glide-dock_SP_D22_pv

>  <s_m_subgroupid>  (878) 
glide-dock_SP_D22_pv

>  <Molecule ChEMBL ID>  (878) 
CHEMBL404000

>  <Standard Type>  (878) 
Ki

>  <Standard Value>  (878) 
21.0

>  <label>  (878) 
1

$$$$
CHEMBL381325
     RDKit          3D

  0  0  0  0  0  0  0  0  0  0999 V3000
M  V30 BEGIN CTAB
M  V30 COUNTS 50 52 0 0 1
M  V30 BEGIN ATOM
M  V30 1 O 10.141476 7.031996 -11.170416 0
M  V30 2 C 9.489768 6.185063 -10.555165 0
M  V30 3 C 8.876271 4.994154 -11.296772 0
M  V30 4 C 8.521664 5.325710 -12.763680 0
M  V30 5 C 8.071093 4.105457 -13.585963 0
M  V30 6 C 6.697258 3.522271 -13.190293 0 CFG=1
M  V30 7 O 5.686954 4.474847 -13.447056 0
M  V30 8 C 6.377201 2.167386 -13.826912 0
M  V30 9 C 5.285629 1.431640 -13.314911 0
M  V30 10 C 4.951998 0.172622 -13.847512 0
M  V30 11 C 5.721199 -0.376179 -14.888683 0
M  V30 12 C 6.817377 0.343071 -15.401180 0
M  V30 13 C 7.142566 1.611342 -14.880126 0
M  V30 14 N 9.284431 6.237557 -9.231152 0
M  V30 15 C 9.681296 7.351715 -8.380292 0
M  V30 16 C 10.407306 6.885598 -7.104036 0
M  V30 17 C 10.857789 8.052531 -6.238758 0
M  V30 18 C 10.782647 9.363466 -6.516296 0
M  V30 19 C 11.270841 10.248421 -5.390662 0
M  V30 20 C 11.626359 9.191608 -4.372631 0
M  V30 21 C 12.088282 9.375188 -3.058389 0
M  V30 22 C 12.355747 8.229990 -2.278997 0
M  V30 23 C 12.154483 6.935415 -2.813287 0
M  V30 24 C 11.685362 6.766368 -4.134165 0
M  V30 25 C 11.406953 7.915342 -4.894391 0
M  V30 26 H 7.986766 4.662961 -10.759868 0
M  V30 27 H 9.594396 4.172571 -11.264126 0
M  V30 28 H 9.401803 5.745336 -13.258268 0
M  V30 29 H 7.765100 6.110658 -12.794656 0
M  V30 30 H 8.836955 3.336319 -13.473365 0
M  V30 31 H 8.063019 4.372429 -14.644446 0
M  V30 32 H 6.685001 3.369971 -12.111197 0
M  V30 33 H 5.851642 5.235171 -12.907973 0
M  V30 34 H 4.689291 1.846497 -12.516097 0
M  V30 35 H 4.100537 -0.366595 -13.463241 0
M  V30 36 H 5.474099 -1.345493 -15.295468 0
M  V30 37 H 7.407998 -0.079380 -16.199759 0
M  V30 38 H 7.984874 2.139274 -15.298269 0
M  V30 39 H 8.715052 5.517449 -8.806496 0
M  V30 40 H 10.322645 8.045417 -8.927338 0
M  V30 41 H 8.778911 7.905073 -8.115078 0
M  V30 42 H 9.732183 6.260090 -6.517240 0
M  V30 43 H 11.275562 6.273263 -7.350014 0
M  V30 44 H 10.398196 9.772320 -7.435355 0
M  V30 45 H 12.138363 10.822262 -5.712938 0
M  V30 46 H 10.486988 10.914709 -5.032093 0
M  V30 47 H 12.231241 10.364685 -2.649256 0
M  V30 48 H 12.713945 8.345839 -1.265742 0
M  V30 49 H 12.358088 6.065134 -2.207281 0
M  V30 50 H 11.511232 5.779676 -4.538978 0
M  V30 END ATOM
M  V30 BEGIN BOND
M  V30 1 2 2 1
M  V30 2 1 3 2
M  V30 3 1 4 3
M  V30 4 1 5 4
M  V30 5 1 6 5
M  V30 6 1 7 6
M  V30 7 1 8 6
M  V30 8 2 9 8
M  V30 9 1 10 9
M  V30 10 2 11 10
M  V30 11 1 12 11
M  V30 12 1 13 8
M  V30 13 2 13 12
M  V30 14 1 14 2
M  V30 15 1 15 14
M  V30 16 1 16 15
M  V30 17 1 17 16
M  V30 18 2 18 17
M  V30 19 1 19 18
M  V30 20 1 20 19
M  V30 21 2 21 20
M  V30 22 1 22 21
M  V30 23 2 23 22
M  V30 24 1 24 23
M  V30 25 1 25 17
M  V30 26 1 25 20
M  V30 27 2 25 24
M  V30 28 1 26 3
M  V30 29 1 27 3
M  V30 30 1 28 4
M  V30 31 1 29 4
M  V30 32 1 30 5
M  V30 33 1 31 5
M  V30 34 1 6 32 CFG=1
M  V30 35 1 33 7
M  V30 36 1 34 9
M  V30 37 1 35 10
M  V30 38 1 36 11
M  V30 39 1 37 12
M  V30 40 1 38 13
M  V30 41 1 39 14
M  V30 42 1 40 15
M  V30 43 1 41 15
M  V30 44 1 42 16
M  V30 45 1 43 16
M  V30 46 1 44 18
M  V30 47 1 45 19
M  V30 48 1 46 19
M  V30 49 1 47 21
M  V30 50 1 48 22
M  V30 51 1 49 23
M  V30 52 1 50 24
M  V30 END BOND
M  V30 END CTAB
M  END
>  <b_m_subgroup_collapsed>  (879) 
0

>  <r_i_docking_score>  (879) 
-7.7427808536191201

>  <s_m_subgroup_title>  (879) 
glide-dock_SP_D22_pv

>  <s_m_subgroupid>  (879) 
glide-dock_SP_D22_pv

>  <Molecule ChEMBL ID>  (879) 
CHEMBL381325

>  <Standard Type>  (879) 
Ki

>  <Standard Value>  (879) 
10000.0

>  <label>  (879) 
0

$$$$
CHEMBL2326481
     RDKit          3D

  0  0  0  0  0  0  0  0  0  0999 V3000
M  V30 BEGIN CTAB
M  V30 COUNTS 52 55 0 0 1
M  V30 BEGIN ATOM
M  V30 1 C 9.824035 3.192955 -17.413605 0
M  V30 2 N 10.081885 4.268994 -16.452953 0
M  V30 3 C 10.701411 5.465660 -17.032402 0
M  V30 4 C 9.699677 4.117607 -15.159068 0
M  V30 5 O 9.040330 3.148548 -14.779519 0
M  V30 6 C 10.061563 5.171569 -14.146650 0
M  V30 7 C 11.384108 5.653145 -14.021760 0
M  V30 8 C 11.715342 6.570693 -13.007177 0
M  V30 9 C 10.750905 6.972532 -12.058060 0
M  V30 10 C 11.232353 7.765845 -10.838888 0
M  V30 11 N 10.448470 7.650977 -9.578116 0 CFG=1 CHG=1
M  V30 12 C 9.449257 8.734081 -9.404565 0
M  V30 13 C 9.049911 8.987353 -7.937980 0
M  V30 14 C 10.028783 8.496857 -6.871967 0
M  V30 15 C 10.626499 9.365315 -5.920200 0
M  V30 16 C 11.323876 8.848101 -4.795088 0
M  V30 17 N 11.835556 9.533827 -3.691060 0
M  V30 18 C 12.319255 8.651908 -2.803156 0
M  V30 19 N 12.885620 8.972453 -1.589996 0
M  V30 20 S 12.243969 6.964100 -3.227480 0
M  V30 21 C 11.499162 7.438401 -4.737949 0
M  V30 22 C 11.057485 6.597661 -5.759318 0
M  V30 23 C 10.251808 7.106627 -6.786668 0
M  V30 24 C 9.535395 6.169249 -7.749102 0
M  V30 25 C 10.028759 6.274666 -9.191086 0
M  V30 26 C 9.407010 6.571899 -12.244596 0
M  V30 27 C 9.075919 5.643233 -13.251082 0
M  V30 28 H 8.754728 2.985949 -17.483780 0
M  V30 29 H 10.326670 2.275765 -17.101589 0
M  V30 30 H 10.178973 3.431569 -18.416887 0
M  V30 31 H 10.486515 6.373889 -16.472965 0
M  V30 32 H 10.338595 5.644766 -18.045376 0
M  V30 33 H 11.784006 5.342137 -17.080868 0
M  V30 34 H 12.162596 5.298241 -14.681996 0
M  V30 35 H 12.743830 6.888403 -12.908962 0
M  V30 36 H 12.225000 7.384767 -10.595889 0
M  V30 37 H 11.398181 8.812697 -11.081081 0
M  V30 38 H 9.899369 9.660480 -9.760128 0
M  V30 39 H 8.569044 8.576703 -10.027324 0
M  V30 40 H 8.879526 10.047920 -7.846879 0
M  V30 41 H 8.082551 8.538262 -7.727376 0
M  V30 42 H 10.485998 10.433417 -5.980809 0
M  V30 43 H 13.216827 9.924580 -1.445898 0
M  V30 44 H 13.346096 8.262151 -1.044015 0
M  V30 45 H 11.284129 5.556158 -5.673531 0
M  V30 46 H 9.642372 5.131821 -7.446941 0
M  V30 47 H 8.462298 6.358233 -7.701416 0
M  V30 48 H 9.251159 5.861334 -9.827085 0
M  V30 49 H 10.885962 5.617936 -9.299076 0
M  V30 50 H 8.619164 6.914274 -11.589925 0
M  V30 51 H 8.055735 5.294950 -13.334723 0
M  V30 52 H 11.126625 7.881761 -8.864932 0
M  V30 END ATOM
M  V30 BEGIN BOND
M  V30 1 1 2 1
M  V30 2 1 3 2
M  V30 3 1 4 2
M  V30 4 2 5 4
M  V30 5 1 6 4
M  V30 6 1 7 6
M  V30 7 2 8 7
M  V30 8 1 9 8
M  V30 9 1 10 9
M  V30 10 1 11 10
M  V30 11 1 12 11
M  V30 12 1 13 12
M  V30 13 1 14 13
M  V30 14 2 15 14
M  V30 15 1 16 15
M  V30 16 1 17 16
M  V30 17 2 18 17
M  V30 18 1 19 18
M  V30 19 1 20 18
M  V30 20 2 21 16
M  V30 21 1 21 20
M  V30 22 1 22 21
M  V30 23 1 23 14
M  V30 24 2 23 22
M  V30 25 1 24 23
M  V30 26 1 25 11
M  V30 27 1 25 24
M  V30 28 2 26 9
M  V30 29 2 27 6
M  V30 30 1 27 26
M  V30 31 1 28 1
M  V30 32 1 29 1
M  V30 33 1 30 1
M  V30 34 1 31 3
M  V30 35 1 32 3
M  V30 36 1 33 3
M  V30 37 1 34 7
M  V30 38 1 35 8
M  V30 39 1 36 10
M  V30 40 1 37 10
M  V30 41 1 38 12
M  V30 42 1 39 12
M  V30 43 1 40 13
M  V30 44 1 41 13
M  V30 45 1 42 15
M  V30 46 1 43 19
M  V30 47 1 44 19
M  V30 48 1 45 22
M  V30 49 1 46 24
M  V30 50 1 47 24
M  V30 51 1 48 25
M  V30 52 1 49 25
M  V30 53 1 50 26
M  V30 54 1 51 27
M  V30 55 1 11 52 CFG=1
M  V30 END BOND
M  V30 END CTAB
M  END
>  <b_m_subgroup_collapsed>  (880) 
0

>  <r_i_docking_score>  (880) 
-7.7418439100727099

>  <s_m_subgroup_title>  (880) 
glide-dock_SP_D22_pv

>  <s_m_subgroupid>  (880) 
glide-dock_SP_D22_pv

>  <Molecule ChEMBL ID>  (880) 
CHEMBL2326481

>  <Standard Type>  (880) 
Ki

>  <Standard Value>  (880) 
42.0

>  <label>  (880) 
1

$$$$
CHEMBL5171456
     RDKit          3D

  0  0  0  0  0  0  0  0  0  0999 V3000
M  V30 BEGIN CTAB
M  V30 COUNTS 61 65 0 0 1
M  V30 BEGIN ATOM
M  V30 1 C 6.815525 0.051361 -16.581240 0
M  V30 2 O 8.007239 0.714600 -16.182192 0
M  V30 3 C 9.177701 0.442877 -16.865118 0
M  V30 4 C 9.271383 -0.548019 -17.874584 0
M  V30 5 C 10.478094 -0.752224 -18.568720 0
M  V30 6 C 11.619188 0.001570 -18.247499 0
M  V30 7 C 11.542630 0.981522 -17.243237 0
M  V30 8 C 10.332224 1.213378 -16.557775 0
M  V30 9 N 10.298481 2.281436 -15.649528 0
M  V30 10 C 9.545203 3.415466 -16.168793 0
M  V30 11 C 9.773519 4.684121 -15.330790 0
M  V30 12 N 9.959082 4.403735 -13.906650 0
M  V30 13 C 10.341285 5.425837 -13.050644 0
M  V30 14 N 11.412901 6.126897 -13.429094 0
M  V30 15 C 11.738428 7.068712 -12.552826 0
M  V30 16 N 12.880457 7.772131 -12.831846 0
M  V30 17 N 11.122783 7.377983 -11.412968 0
M  V30 18 C 10.052420 6.606611 -11.182542 0
M  V30 19 N 9.324718 6.824676 -10.024808 0
M  V30 20 C 9.648609 7.786652 -8.975039 0
M  V30 21 C 10.651978 7.224073 -7.945593 0
M  V30 22 C 11.028774 8.200370 -6.862494 0
M  V30 23 C 11.288592 9.531955 -7.046968 0
M  V30 24 N 11.649821 10.111690 -5.846397 0
M  V30 25 C 11.696814 9.162283 -4.849741 0
M  V30 26 C 12.081100 9.234753 -3.497387 0
M  V30 27 C 12.085084 8.066124 -2.716878 0
M  V30 28 C 11.685831 6.846027 -3.292626 0
M  V30 29 C 11.288630 6.787303 -4.646157 0
M  V30 30 C 11.286277 7.940031 -5.465689 0
M  V30 31 N 9.611695 5.603952 -11.944057 0
M  V30 32 C 9.502104 3.106673 -13.407667 0
M  V30 33 C 10.053903 1.928754 -14.248705 0
M  V30 34 H 5.984372 0.410239 -15.973855 0
M  V30 35 H 6.574895 0.259222 -17.625347 0
M  V30 36 H 6.884522 -1.026139 -16.434870 0
M  V30 37 H 8.421853 -1.154477 -18.149696 0
M  V30 38 H 10.522560 -1.481463 -19.360090 0
M  V30 39 H 12.546237 -0.158464 -18.779097 0
M  V30 40 H 12.414955 1.575672 -17.010405 0
M  V30 41 H 9.795644 3.605247 -17.213682 0
M  V30 42 H 8.488003 3.153561 -16.140001 0
M  V30 43 H 10.666159 5.185875 -15.705798 0
M  V30 44 H 8.941425 5.372723 -15.471629 0
M  V30 45 H 13.546038 7.320117 -13.444341 0
M  V30 46 H 13.266081 8.338528 -12.092351 0
M  V30 47 H 8.402911 6.404303 -9.992003 0
M  V30 48 H 10.032491 8.699080 -9.432834 0
M  V30 49 H 8.720198 8.060224 -8.470823 0
M  V30 50 H 10.242607 6.315367 -7.503022 0
M  V30 51 H 11.558289 6.930750 -8.473580 0
M  V30 52 H 11.286084 10.109165 -7.958094 0
M  V30 53 H 11.901799 11.084770 -5.756154 0
M  V30 54 H 12.389248 10.172449 -3.059075 0
M  V30 55 H 12.385331 8.108266 -1.679862 0
M  V30 56 H 11.684717 5.945580 -2.694700 0
M  V30 57 H 10.999436 5.837495 -5.069200 0
M  V30 58 H 9.771146 2.970901 -12.359058 0
M  V30 59 H 8.412955 3.092202 -13.451385 0
M  V30 60 H 9.407221 1.057334 -14.147065 0
M  V30 61 H 11.021718 1.635492 -13.844033 0
M  V30 END ATOM
M  V30 BEGIN BOND
M  V30 1 1 2 1
M  V30 2 1 3 2
M  V30 3 2 4 3
M  V30 4 1 5 4
M  V30 5 2 6 5
M  V30 6 1 7 6
M  V30 7 1 8 3
M  V30 8 2 8 7
M  V30 9 1 9 8
M  V30 10 1 10 9
M  V30 11 1 11 10
M  V30 12 1 12 11
M  V30 13 1 13 12
M  V30 14 2 14 13
M  V30 15 1 15 14
M  V30 16 1 16 15
M  V30 17 2 17 15
M  V30 18 1 18 17
M  V30 19 1 19 18
M  V30 20 1 20 19
M  V30 21 1 21 20
M  V30 22 1 22 21
M  V30 23 2 23 22
M  V30 24 1 24 23
M  V30 25 1 25 24
M  V30 26 2 26 25
M  V30 27 1 27 26
M  V30 28 2 28 27
M  V30 29 1 29 28
M  V30 30 1 30 22
M  V30 31 1 30 25
M  V30 32 2 30 29
M  V30 33 1 31 13
M  V30 34 2 31 18
M  V30 35 1 32 12
M  V30 36 1 33 9
M  V30 37 1 33 32
M  V30 38 1 34 1
M  V30 39 1 35 1
M  V30 40 1 36 1
M  V30 41 1 37 4
M  V30 42 1 38 5
M  V30 43 1 39 6
M  V30 44 1 40 7
M  V30 45 1 41 10
M  V30 46 1 42 10
M  V30 47 1 43 11
M  V30 48 1 44 11
M  V30 49 1 45 16
M  V30 50 1 46 16
M  V30 51 1 47 19
M  V30 52 1 48 20
M  V30 53 1 49 20
M  V30 54 1 50 21
M  V30 55 1 51 21
M  V30 56 1 52 23
M  V30 57 1 53 24
M  V30 58 1 54 26
M  V30 59 1 55 27
M  V30 60 1 56 28
M  V30 61 1 57 29
M  V30 62 1 58 32
M  V30 63 1 59 32
M  V30 64 1 60 33
M  V30 65 1 61 33
M  V30 END BOND
M  V30 END CTAB
M  END
>  <b_m_subgroup_collapsed>  (881) 
0

>  <r_i_docking_score>  (881) 
-7.7404607974071

>  <s_m_subgroup_title>  (881) 
glide-dock_SP_D22_pv

>  <s_m_subgroupid>  (881) 
glide-dock_SP_D22_pv

>  <Molecule ChEMBL ID>  (881) 
CHEMBL5171456

>  <Standard Type>  (881) 
Ki

>  <Standard Value>  (881) 
13460.0

>  <label>  (881) 
0

$$$$
CHEMBL542942
     RDKit          3D

  0  0  0  0  0  0  0  0  0  0999 V3000
M  V30 BEGIN CTAB
M  V30 COUNTS 52 55 0 0 1
M  V30 BEGIN ATOM
M  V30 1 O 10.580741 10.129901 -6.644516 0
M  V30 2 C 11.306697 8.954741 -6.501771 0 CFG=1
M  V30 3 C 11.563704 8.618691 -5.037529 0
M  V30 4 C 11.686441 9.642037 -4.075708 0
M  V30 5 C 12.063189 9.348953 -2.752942 0
M  V30 6 C 12.260569 8.014153 -2.362808 0
M  V30 7 C 12.086387 6.980069 -3.298961 0
M  V30 8 C 11.750242 7.286421 -4.634186 0
M  V30 9 C 11.594648 6.172319 -5.630773 0
M  V30 10 C 11.590151 6.583401 -7.108888 0
M  V30 11 C 10.714772 7.816271 -7.390439 0 CFG=2
M  V30 12 C 10.798459 8.227967 -8.881057 0
M  V30 13 C 10.271594 7.149899 -9.845037 0
M  V30 14 N 8.905013 6.651061 -9.516225 0 CFG=1 CHG=1
M  V30 15 C 8.535638 5.502055 -10.382969 0
M  V30 16 C 8.189346 5.919223 -11.826838 0
M  V30 17 C 7.757535 4.738545 -12.670339 0
M  V30 18 C 6.412727 4.313582 -12.647711 0
M  V30 19 C 6.006179 3.221169 -13.437669 0
M  V30 20 C 6.941632 2.547970 -14.246861 0
M  V30 21 C 8.286271 2.966901 -14.265353 0
M  V30 22 C 8.694448 4.061781 -13.479334 0
M  V30 23 C 8.730571 6.341037 -8.068302 0
M  V30 24 C 9.218845 7.489228 -7.145917 0
M  V30 25 H 11.088445 10.835603 -6.274574 0
M  V30 26 H 12.297698 9.189629 -6.895353 0
M  V30 27 H 11.504132 10.662348 -4.354803 0
M  V30 28 H 12.175289 10.146729 -2.033997 0
M  V30 29 H 12.537827 7.785988 -1.346426 0
M  V30 30 H 12.226585 5.952876 -2.993895 0
M  V30 31 H 12.358419 5.416011 -5.464560 0
M  V30 32 H 10.621494 5.772366 -5.377102 0
M  V30 33 H 12.592452 6.821624 -7.446870 0
M  V30 34 H 11.300452 5.718090 -7.698376 0
M  V30 35 H 10.226048 9.142324 -9.045539 0
M  V30 36 H 11.827271 8.473394 -9.148642 0
M  V30 37 H 10.964518 6.310571 -9.846738 0
M  V30 38 H 10.281625 7.556231 -10.856091 0
M  V30 39 H 9.340770 4.764875 -10.387935 0
M  V30 40 H 7.685948 4.987680 -9.948343 0
M  V30 41 H 7.385725 6.654791 -11.847112 0
M  V30 42 H 9.042356 6.390923 -12.313256 0
M  V30 43 H 5.691806 4.823905 -12.023892 0
M  V30 44 H 4.976539 2.896325 -13.418644 0
M  V30 45 H 6.628987 1.707322 -14.849206 0
M  V30 46 H 9.005052 2.447059 -14.881925 0
M  V30 47 H 9.727867 4.375798 -13.499246 0
M  V30 48 H 9.228384 5.402981 -7.829567 0
M  V30 49 H 7.686148 6.129254 -7.867302 0
M  V30 50 H 9.041745 7.224627 -6.104754 0
M  V30 51 H 8.605679 8.374620 -7.323491 0
M  V30 52 H 8.219519 7.374202 -9.722088 0
M  V30 END ATOM
M  V30 BEGIN BOND
M  V30 1 1 2 1
M  V30 2 1 3 2
M  V30 3 2 4 3
M  V30 4 1 5 4
M  V30 5 2 6 5
M  V30 6 1 7 6
M  V30 7 1 8 3
M  V30 8 2 8 7
M  V30 9 1 9 8
M  V30 10 1 10 9
M  V30 11 1 11 2
M  V30 12 1 11 10 CFG=3
M  V30 13 1 12 11
M  V30 14 1 13 12
M  V30 15 1 14 13
M  V30 16 1 15 14
M  V30 17 1 16 15
M  V30 18 1 17 16
M  V30 19 2 18 17
M  V30 20 1 19 18
M  V30 21 2 20 19
M  V30 22 1 21 20
M  V30 23 1 22 17
M  V30 24 2 22 21
M  V30 25 1 23 14
M  V30 26 1 24 11
M  V30 27 1 24 23
M  V30 28 1 25 1
M  V30 29 1 2 26 CFG=3
M  V30 30 1 27 4
M  V30 31 1 28 5
M  V30 32 1 29 6
M  V30 33 1 30 7
M  V30 34 1 31 9
M  V30 35 1 32 9
M  V30 36 1 33 10
M  V30 37 1 34 10
M  V30 38 1 35 12
M  V30 39 1 36 12
M  V30 40 1 37 13
M  V30 41 1 38 13
M  V30 42 1 39 15
M  V30 43 1 40 15
M  V30 44 1 41 16
M  V30 45 1 42 16
M  V30 46 1 43 18
M  V30 47 1 44 19
M  V30 48 1 45 20
M  V30 49 1 46 21
M  V30 50 1 47 22
M  V30 51 1 48 23
M  V30 52 1 49 23
M  V30 53 1 50 24
M  V30 54 1 51 24
M  V30 55 1 14 52 CFG=3
M  V30 END BOND
M  V30 END CTAB
M  END
>  <b_m_subgroup_collapsed>  (882) 
0

>  <r_i_docking_score>  (882) 
-7.7397320685246402

>  <s_m_subgroup_title>  (882) 
glide-dock_SP_D22_pv

>  <s_m_subgroupid>  (882) 
glide-dock_SP_D22_pv

>  <Molecule ChEMBL ID>  (882) 
CHEMBL542942

>  <Standard Type>  (882) 
Ki

>  <Standard Value>  (882) 
10000.0

>  <label>  (882) 
0

$$$$
CHEMBL519547
     RDKit          3D

  0  0  0  0  0  0  0  0  0  0999 V3000
M  V30 BEGIN CTAB
M  V30 COUNTS 76 79 0 0 1
M  V30 BEGIN ATOM
M  V30 1 C 14.458218 4.778656 -17.890999 0
M  V30 2 O 13.376324 3.862375 -17.812899 0
M  V30 3 C 12.645253 3.823519 -16.645521 0
M  V30 4 C 12.844727 4.703244 -15.551334 0
M  V30 5 C 12.066232 4.578211 -14.383986 0
M  V30 6 C 11.076378 3.581838 -14.297493 0
M  V30 7 C 10.864297 2.703823 -15.379973 0
M  V30 8 C 9.789884 1.635498 -15.297561 0
M  V30 9 C 8.582788 1.962009 -16.192688 0
M  V30 10 C 7.428695 0.992735 -15.989683 0
M  V30 11 C 7.160025 0.000148 -16.954092 0
M  V30 12 C 6.084926 -0.891168 -16.771393 0
M  V30 13 C 5.295227 -0.816129 -15.609306 0
M  V30 14 C 5.560310 0.172564 -14.642447 0
M  V30 15 C 6.608606 1.106039 -14.844072 0
M  V30 16 O 6.869237 2.150831 -13.986131 0
M  V30 17 C 5.784911 2.678055 -13.236087 0
M  V30 18 C 6.121488 4.117589 -12.818234 0
M  V30 19 C 7.388449 4.172635 -11.962746 0
M  V30 20 C 7.694005 5.535841 -11.336272 0
M  V30 21 C 9.013467 5.477098 -10.557533 0
M  V30 22 N 9.109872 6.464206 -9.453548 0 CFG=2 CHG=1
M  V30 23 C 9.420201 7.837896 -9.908698 0
M  V30 24 C 9.350714 8.827690 -8.732045 0
M  V30 25 C 10.112532 8.354321 -7.504803 0
M  V30 26 C 10.460119 9.244226 -6.469156 0
M  V30 27 C 11.087762 8.794415 -5.290388 0
M  V30 28 O 11.286680 9.717807 -4.300333 0
M  V30 29 C 12.588390 9.771210 -3.755178 0
M  V30 30 C 11.446420 7.429081 -5.175807 0
M  V30 31 O 12.122944 6.895269 -4.108253 0
M  V30 32 C 11.391140 6.727659 -2.907974 0
M  V30 33 C 11.182304 6.572292 -6.252855 0
M  V30 34 C 10.458818 6.999198 -7.378981 0
M  V30 35 C 10.100801 5.994529 -8.455510 0
M  V30 36 C 11.650103 2.829529 -16.544767 0
M  V30 37 H 14.957579 4.661559 -18.852755 0
M  V30 38 H 14.114317 5.811097 -17.822865 0
M  V30 39 H 15.197116 4.591358 -17.110041 0
M  V30 40 H 13.594715 5.479214 -15.578489 0
M  V30 41 H 12.231636 5.250314 -13.554860 0
M  V30 42 H 10.483817 3.493647 -13.398157 0
M  V30 43 H 9.472317 1.537968 -14.257849 0
M  V30 44 H 10.216349 0.672326 -15.576545 0
M  V30 45 H 8.879945 1.965070 -17.241053 0
M  V30 46 H 8.233105 2.971467 -15.977923 0
M  V30 47 H 7.778124 -0.084046 -17.835392 0
M  V30 48 H 5.882991 -1.653278 -17.510239 0
M  V30 49 H 4.486288 -1.517374 -15.461601 0
M  V30 50 H 4.936125 0.220942 -13.763691 0
M  V30 51 H 4.885839 2.695363 -13.846125 0
M  V30 52 H 5.590971 2.054621 -12.361011 0
M  V30 53 H 6.245166 4.740686 -13.704066 0
M  V30 54 H 5.285709 4.534204 -12.256628 0
M  V30 55 H 7.263694 3.471045 -11.142459 0
M  V30 56 H 8.242822 3.833565 -12.549669 0
M  V30 57 H 7.718371 6.324760 -12.088625 0
M  V30 58 H 6.885695 5.772285 -10.649184 0
M  V30 59 H 9.093624 4.481975 -10.118367 0
M  V30 60 H 9.864085 5.569567 -11.235147 0
M  V30 61 H 10.420959 7.852242 -10.343382 0
M  V30 62 H 8.734726 8.150891 -10.696933 0
M  V30 63 H 8.315998 9.013806 -8.445193 0
M  V30 64 H 9.768828 9.771535 -9.063683 0
M  V30 65 H 10.219442 10.286571 -6.561065 0
M  V30 66 H 12.575267 10.572324 -3.038136 0
M  V30 67 H 12.886808 8.898094 -3.186181 0
M  V30 68 H 13.341620 9.973262 -4.519471 0
M  V30 69 H 11.989294 6.153741 -2.200938 0
M  V30 70 H 11.147205 7.675724 -2.429716 0
M  V30 71 H 10.479897 6.171283 -3.094713 0
M  V30 72 H 11.534645 5.558068 -6.195222 0
M  V30 73 H 9.745755 5.074152 -7.989809 0
M  V30 74 H 11.020320 5.772306 -8.984162 0
M  V30 75 H 11.494793 2.153425 -17.372452 0
M  V30 76 H 8.203129 6.512376 -9.001256 0
M  V30 END ATOM
M  V30 BEGIN BOND
M  V30 1 1 2 1
M  V30 2 1 3 2
M  V30 3 2 4 3
M  V30 4 1 5 4
M  V30 5 2 6 5
M  V30 6 1 7 6
M  V30 7 1 8 7
M  V30 8 1 9 8
M  V30 9 1 10 9
M  V30 10 2 11 10
M  V30 11 1 12 11
M  V30 12 2 13 12
M  V30 13 1 14 13
M  V30 14 1 15 10
M  V30 15 2 15 14
M  V30 16 1 16 15
M  V30 17 1 17 16
M  V30 18 1 18 17
M  V30 19 1 19 18
M  V30 20 1 20 19
M  V30 21 1 21 20
M  V30 22 1 22 21
M  V30 23 1 23 22
M  V30 24 1 24 23
M  V30 25 1 25 24
M  V30 26 2 26 25
M  V30 27 1 27 26
M  V30 28 1 28 27
M  V30 29 1 29 28
M  V30 30 2 30 27
M  V30 31 1 31 30
M  V30 32 1 32 31
M  V30 33 1 33 30
M  V30 34 1 34 25
M  V30 35 2 34 33
M  V30 36 1 35 22
M  V30 37 1 35 34
M  V30 38 1 36 3
M  V30 39 2 36 7
M  V30 40 1 37 1
M  V30 41 1 38 1
M  V30 42 1 39 1
M  V30 43 1 40 4
M  V30 44 1 41 5
M  V30 45 1 42 6
M  V30 46 1 43 8
M  V30 47 1 44 8
M  V30 48 1 45 9
M  V30 49 1 46 9
M  V30 50 1 47 11
M  V30 51 1 48 12
M  V30 52 1 49 13
M  V30 53 1 50 14
M  V30 54 1 51 17
M  V30 55 1 52 17
M  V30 56 1 53 18
M  V30 57 1 54 18
M  V30 58 1 55 19
M  V30 59 1 56 19
M  V30 60 1 57 20
M  V30 61 1 58 20
M  V30 62 1 59 21
M  V30 63 1 60 21
M  V30 64 1 61 23
M  V30 65 1 62 23
M  V30 66 1 63 24
M  V30 67 1 64 24
M  V30 68 1 65 26
M  V30 69 1 66 29
M  V30 70 1 67 29
M  V30 71 1 68 29
M  V30 72 1 69 32
M  V30 73 1 70 32
M  V30 74 1 71 32
M  V30 75 1 72 33
M  V30 76 1 73 35
M  V30 77 1 74 35
M  V30 78 1 75 36
M  V30 79 1 22 76 CFG=1
M  V30 END BOND
M  V30 END CTAB
M  END
>  <b_m_subgroup_collapsed>  (883) 
0

>  <r_i_docking_score>  (883) 
-7.7391032358483498

>  <s_m_subgroup_title>  (883) 
glide-dock_SP_D22_pv

>  <s_m_subgroupid>  (883) 
glide-dock_SP_D22_pv

>  <Molecule ChEMBL ID>  (883) 
CHEMBL519547

>  <Standard Type>  (883) 
Ki

>  <Standard Value>  (883) 
1000000.0

>  <label>  (883) 
0

$$$$
CHEMBL419760
     RDKit          3D

  0  0  0  0  0  0  0  0  0  0999 V3000
M  V30 BEGIN CTAB
M  V30 COUNTS 56 59 0 0 1
M  V30 BEGIN ATOM
M  V30 1 C 6.593365 -0.528593 -13.946883 0
M  V30 2 C 7.815950 0.330746 -14.296747 0
M  V30 3 S 7.295014 2.018371 -14.810124 0
M  V30 4 O 6.292982 2.498697 -13.845858 0
M  V30 5 O 6.956539 1.959408 -16.240894 0
M  V30 6 C 8.766703 3.024306 -14.635841 0
M  V30 7 C 9.815439 2.871565 -15.557439 0
M  V30 8 C 10.965882 3.673566 -15.432056 0
M  V30 9 C 11.071909 4.634708 -14.393624 0
M  V30 10 O 12.180959 5.441616 -14.241669 0
M  V30 11 C 13.156963 5.467545 -15.272415 0
M  V30 12 C 10.013939 4.775621 -13.454711 0
M  V30 13 C 10.084561 5.764380 -12.370605 0
M  V30 14 C 10.721761 6.972205 -12.246247 0
M  V30 15 C 10.450727 7.489854 -10.947462 0
M  V30 16 C 9.663840 6.588813 -10.280725 0
M  V30 17 C 9.094728 6.569688 -8.896170 0
M  V30 18 N 9.961123 7.306563 -7.942408 0 CFG=1 CHG=1
M  V30 19 C 9.583592 8.727443 -7.755458 0
M  V30 20 C 10.750630 9.466126 -7.080513 0
M  V30 21 C 11.211699 8.778714 -5.824989 0
M  V30 22 C 11.910912 9.519860 -4.858638 0
M  V30 23 C 12.344451 8.910226 -3.668173 0
M  V30 24 C 12.085711 7.544270 -3.453744 0
M  V30 25 C 11.384760 6.804097 -4.426768 0
M  V30 26 C 10.937073 7.411534 -5.617777 0
M  V30 27 C 10.150887 6.604051 -6.648459 0
M  V30 28 N 9.427455 5.558969 -11.170757 0
M  V30 29 C 8.868895 3.954470 -13.584312 0
M  V30 30 H 6.882403 -1.530796 -13.637403 0
M  V30 31 H 6.026820 -0.084585 -13.129162 0
M  V30 32 H 5.928632 -0.624272 -14.803317 0
M  V30 33 H 8.389112 -0.116388 -15.110479 0
M  V30 34 H 8.485379 0.428049 -13.445641 0
M  V30 35 H 9.736537 2.149770 -16.357151 0
M  V30 36 H 11.755336 3.531034 -16.153671 0
M  V30 37 H 13.894617 6.238440 -15.048078 0
M  V30 38 H 13.684057 4.517803 -15.343142 0
M  V30 39 H 12.713202 5.706849 -16.240580 0
M  V30 40 H 11.323619 7.439002 -13.010303 0
M  V30 41 H 10.812213 8.426031 -10.547849 0
M  V30 42 H 8.999789 5.528690 -8.578088 0
M  V30 43 H 8.086274 6.970397 -8.884289 0
M  V30 44 H 8.677022 8.790806 -7.148025 0
M  V30 45 H 9.355799 9.195196 -8.714496 0
M  V30 46 H 10.485302 10.477708 -6.780321 0
M  V30 47 H 11.596195 9.544012 -7.764756 0
M  V30 48 H 12.100714 10.566620 -5.045913 0
M  V30 49 H 12.872206 9.489884 -2.922050 0
M  V30 50 H 12.411963 7.066484 -2.543976 0
M  V30 51 H 11.170745 5.771190 -4.242484 0
M  V30 52 H 10.711453 5.699412 -6.860397 0
M  V30 53 H 9.187145 6.323278 -6.221063 0
M  V30 54 H 8.856890 4.750083 -10.969903 0
M  V30 55 H 8.048853 4.056163 -12.890956 0
M  V30 56 H 10.871703 7.319280 -8.376245 0
M  V30 END ATOM
M  V30 BEGIN BOND
M  V30 1 1 2 1
M  V30 2 1 3 2
M  V30 3 2 4 3
M  V30 4 2 5 3
M  V30 5 1 6 3
M  V30 6 1 7 6
M  V30 7 2 8 7
M  V30 8 1 9 8
M  V30 9 1 10 9
M  V30 10 1 11 10
M  V30 11 2 12 9
M  V30 12 1 13 12
M  V30 13 2 14 13
M  V30 14 1 15 14
M  V30 15 2 16 15
M  V30 16 1 17 16
M  V30 17 1 18 17
M  V30 18 1 19 18
M  V30 19 1 20 19
M  V30 20 1 21 20
M  V30 21 2 22 21
M  V30 22 1 23 22
M  V30 23 2 24 23
M  V30 24 1 25 24
M  V30 25 1 26 21
M  V30 26 2 26 25
M  V30 27 1 27 18
M  V30 28 1 27 26
M  V30 29 1 28 13
M  V30 30 1 28 16
M  V30 31 2 29 6
M  V30 32 1 29 12
M  V30 33 1 30 1
M  V30 34 1 31 1
M  V30 35 1 32 1
M  V30 36 1 33 2
M  V30 37 1 34 2
M  V30 38 1 35 7
M  V30 39 1 36 8
M  V30 40 1 37 11
M  V30 41 1 38 11
M  V30 42 1 39 11
M  V30 43 1 40 14
M  V30 44 1 41 15
M  V30 45 1 42 17
M  V30 46 1 43 17
M  V30 47 1 44 19
M  V30 48 1 45 19
M  V30 49 1 46 20
M  V30 50 1 47 20
M  V30 51 1 48 22
M  V30 52 1 49 23
M  V30 53 1 50 24
M  V30 54 1 51 25
M  V30 55 1 52 27
M  V30 56 1 53 27
M  V30 57 1 54 28
M  V30 58 1 55 29
M  V30 59 1 18 56 CFG=3
M  V30 END BOND
M  V30 END CTAB
M  END
>  <b_m_subgroup_collapsed>  (884) 
0

>  <r_i_docking_score>  (884) 
-7.7389126842084801

>  <s_m_subgroup_title>  (884) 
glide-dock_SP_D22_pv

>  <s_m_subgroupid>  (884) 
glide-dock_SP_D22_pv

>  <Molecule ChEMBL ID>  (884) 
CHEMBL419760

>  <Standard Type>  (884) 
Ki

>  <Standard Value>  (884) 
100.0

>  <label>  (884) 
1

$$$$
CHEMBL4644906
     RDKit          3D

  0  0  0  0  0  0  0  0  0  0999 V3000
M  V30 BEGIN CTAB
M  V30 COUNTS 66 70 0 0 1
M  V30 BEGIN ATOM
M  V30 1 O 9.926079 8.973025 -21.638237 0
M  V30 2 C 9.826714 7.948439 -20.972286 0
M  V30 3 C 8.906692 6.811269 -21.439117 0
M  V30 4 C 8.319619 6.005369 -20.264145 0
M  V30 5 C 9.380510 5.686362 -19.227089 0
M  V30 6 C 9.302123 4.524149 -18.434940 0
M  V30 7 C 10.270478 4.261795 -17.445431 0
M  V30 8 O 10.109425 3.104354 -16.712421 0
M  V30 9 C 10.886582 2.910160 -15.534568 0
M  V30 10 C 10.394528 3.823368 -14.395231 0
M  V30 11 C 8.975841 3.462929 -13.917733 0
M  V30 12 C 8.350246 4.493182 -12.958522 0
M  V30 13 C 9.232390 4.824868 -11.745549 0
M  V30 14 C 8.515793 5.685550 -10.694553 0
M  V30 15 N 9.470363 6.097925 -9.640191 0 CHG=1
M  V30 16 C 10.030824 7.451420 -9.862236 0
M  V30 17 C 11.193251 7.716448 -8.895908 0
M  V30 18 N 10.814856 7.425108 -7.509941 0
M  V30 19 C 11.038561 8.366353 -6.480995 0
M  V30 20 N 10.922301 9.640971 -6.772056 0
M  V30 21 S 11.286008 10.571964 -5.447740 0
M  V30 22 C 11.645977 9.237964 -4.386390 0
M  V30 23 C 12.074057 9.253877 -3.048411 0
M  V30 24 C 12.293782 8.042113 -2.376473 0
M  V30 25 C 12.088952 6.829765 -3.054841 0
M  V30 26 C 11.685918 6.827749 -4.406002 0
M  V30 27 C 11.436804 8.030717 -5.116219 0
M  V30 28 C 10.110853 6.176464 -7.250169 0
M  V30 29 C 8.966372 5.943901 -8.255227 0
M  V30 30 C 11.333103 5.183175 -17.263897 0
M  V30 31 C 11.418684 6.343206 -18.058239 0
M  V30 32 C 10.445075 6.593357 -19.043152 0
M  V30 33 N 10.536286 7.757891 -19.848440 0
M  V30 34 H 9.508006 6.149226 -22.066746 0
M  V30 35 H 8.106528 7.203359 -22.067301 0
M  V30 36 H 7.872660 5.083447 -20.635387 0
M  V30 37 H 7.522589 6.570224 -19.781633 0
M  V30 38 H 8.485998 3.832178 -18.572506 0
M  V30 39 H 10.777034 1.868296 -15.231730 0
M  V30 40 H 11.952720 3.043220 -15.730072 0
M  V30 41 H 11.088177 3.730033 -13.560159 0
M  V30 42 H 10.431326 4.869519 -14.700395 0
M  V30 43 H 8.319441 3.365917 -14.783674 0
M  V30 44 H 8.998093 2.480833 -13.447012 0
M  V30 45 H 8.131212 5.414230 -13.503482 0
M  V30 46 H 7.387967 4.110494 -12.615450 0
M  V30 47 H 9.580281 3.899361 -11.282770 0
M  V30 48 H 10.124131 5.349323 -12.093768 0
M  V30 49 H 8.084846 6.571570 -11.160131 0
M  V30 50 H 7.685941 5.118732 -10.273338 0
M  V30 51 H 10.382690 7.552558 -10.890353 0
M  V30 52 H 9.243693 8.197104 -9.719353 0
M  V30 53 H 12.051285 7.103134 -9.163363 0
M  V30 54 H 11.531252 8.745882 -9.017012 0
M  V30 55 H 12.220361 10.193030 -2.534412 0
M  V30 56 H 12.618863 8.048272 -1.347744 0
M  V30 57 H 12.256369 5.893257 -2.543742 0
M  V30 58 H 11.560440 5.878522 -4.904124 0
M  V30 59 H 10.842765 5.372345 -7.320325 0
M  V30 60 H 9.701900 6.172566 -6.239483 0
M  V30 61 H 8.155104 6.650034 -8.078841 0
M  V30 62 H 8.553554 4.942593 -8.110366 0
M  V30 63 H 12.097355 5.027595 -16.519787 0
M  V30 64 H 12.235478 7.037600 -17.911230 0
M  V30 65 H 11.191756 8.475066 -19.569250 0
M  V30 66 H 10.245804 5.455738 -9.706563 0
M  V30 END ATOM
M  V30 BEGIN BOND
M  V30 1 2 2 1
M  V30 2 1 3 2
M  V30 3 1 4 3
M  V30 4 1 5 4
M  V30 5 1 6 5
M  V30 6 2 7 6
M  V30 7 1 8 7
M  V30 8 1 9 8
M  V30 9 1 10 9
M  V30 10 1 11 10
M  V30 11 1 12 11
M  V30 12 1 13 12
M  V30 13 1 14 13
M  V30 14 1 15 14
M  V30 15 1 16 15
M  V30 16 1 17 16
M  V30 17 1 18 17
M  V30 18 1 19 18
M  V30 19 2 20 19
M  V30 20 1 21 20
M  V30 21 1 22 21
M  V30 22 2 23 22
M  V30 23 1 24 23
M  V30 24 2 25 24
M  V30 25 1 26 25
M  V30 26 1 27 19
M  V30 27 1 27 22
M  V30 28 2 27 26
M  V30 29 1 28 18
M  V30 30 1 29 15
M  V30 31 1 29 28
M  V30 32 1 30 7
M  V30 33 2 31 30
M  V30 34 2 32 5
M  V30 35 1 32 31
M  V30 36 1 33 2
M  V30 37 1 33 32
M  V30 38 1 34 3
M  V30 39 1 35 3
M  V30 40 1 36 4
M  V30 41 1 37 4
M  V30 42 1 38 6
M  V30 43 1 39 9
M  V30 44 1 40 9
M  V30 45 1 41 10
M  V30 46 1 42 10
M  V30 47 1 43 11
M  V30 48 1 44 11
M  V30 49 1 45 12
M  V30 50 1 46 12
M  V30 51 1 47 13
M  V30 52 1 48 13
M  V30 53 1 49 14
M  V30 54 1 50 14
M  V30 55 1 51 16
M  V30 56 1 52 16
M  V30 57 1 53 17
M  V30 58 1 54 17
M  V30 59 1 55 23
M  V30 60 1 56 24
M  V30 61 1 57 25
M  V30 62 1 58 26
M  V30 63 1 59 28
M  V30 64 1 60 28
M  V30 65 1 61 29
M  V30 66 1 62 29
M  V30 67 1 63 30
M  V30 68 1 64 31
M  V30 69 1 65 33
M  V30 70 1 66 15
M  V30 END BOND
M  V30 END CTAB
M  END
>  <b_m_subgroup_collapsed>  (885) 
0

>  <r_i_docking_score>  (885) 
-7.7378223661603602

>  <s_m_subgroup_title>  (885) 
glide-dock_SP_D22_pv

>  <s_m_subgroupid>  (885) 
glide-dock_SP_D22_pv

>  <Molecule ChEMBL ID>  (885) 
CHEMBL4644906

>  <Standard Type>  (885) 
Ki

>  <Standard Value>  (885) 
39.0

>  <label>  (885) 
1

$$$$
CHEMBL5723013
     RDKit          3D

  0  0  0  0  0  0  0  0  0  0999 V3000
M  V30 BEGIN CTAB
M  V30 COUNTS 42 45 0 0 1
M  V30 BEGIN ATOM
M  V30 1 O 10.874550 4.388225 -14.128919 0
M  V30 2 C 10.018453 4.950750 -13.445470 0
M  V30 3 C 10.339404 6.150194 -12.645286 0
M  V30 4 C 9.395789 6.750527 -11.891298 0
M  V30 5 C 9.682964 7.963920 -11.036428 0
M  V30 6 N 9.286010 7.701519 -9.663256 0
M  V30 7 C 9.493109 8.868341 -8.826732 0
M  V30 8 C 10.966322 8.984027 -8.422960 0
M  V30 9 C 11.194689 8.769106 -6.965991 0
M  V30 10 N 11.118298 7.560445 -6.382010 0
M  V30 11 C 11.375000 7.671254 -5.019478 0
M  V30 12 C 11.666140 8.909488 -4.586504 0
M  V30 13 S 11.578575 10.096189 -5.846375 0
M  V30 14 C 11.997691 8.979124 -3.150313 0
M  V30 15 C 11.907999 7.483582 -2.714779 0
M  V30 16 C 11.448624 6.647132 -3.951308 0
M  V30 17 N 8.086103 6.292275 -11.846881 0
M  V30 18 C 7.673032 5.162917 -12.555174 0
M  V30 19 C 6.342306 4.710580 -12.460733 0
M  V30 20 C 5.939873 3.563378 -13.169865 0
M  V30 21 C 6.865975 2.872029 -13.976023 0
M  V30 22 F 6.485922 1.758202 -14.644367 0
M  V30 23 C 8.194496 3.326152 -14.078685 0
M  V30 24 C 8.607408 4.470494 -13.365391 0
M  V30 25 H 11.353526 6.520979 -12.670144 0
M  V30 26 H 10.743743 8.210779 -11.090982 0
M  V30 27 H 9.125901 8.813521 -11.435728 0
M  V30 28 H 8.282649 7.523699 -9.679202 0
M  V30 29 H 9.159074 9.766152 -9.348637 0
M  V30 30 H 8.863712 8.778350 -7.939636 0
M  V30 31 H 11.613991 8.305583 -8.978323 0
M  V30 32 H 11.287557 9.988805 -8.681200 0
M  V30 33 H 12.995826 9.386943 -2.994388 0
M  V30 34 H 11.286018 9.606148 -2.615851 0
M  V30 35 H 12.884943 7.136591 -2.379329 0
M  V30 36 H 11.223605 7.358268 -1.875818 0
M  V30 37 H 10.485159 6.172490 -3.783131 0
M  V30 38 H 12.152900 5.856448 -4.196460 0
M  V30 39 H 7.405756 6.790340 -11.264753 0
M  V30 40 H 5.635857 5.235137 -11.833550 0
M  V30 41 H 4.922960 3.208099 -13.090825 0
M  V30 42 H 8.893794 2.781388 -14.697319 0
M  V30 END ATOM
M  V30 BEGIN BOND
M  V30 1 2 2 1
M  V30 2 1 3 2
M  V30 3 2 4 3
M  V30 4 1 5 4
M  V30 5 1 6 5
M  V30 6 1 7 6
M  V30 7 1 8 7
M  V30 8 1 9 8
M  V30 9 2 10 9
M  V30 10 1 11 10
M  V30 11 2 12 11
M  V30 12 1 13 9
M  V30 13 1 13 12
M  V30 14 1 14 12
M  V30 15 1 15 14
M  V30 16 1 16 11
M  V30 17 1 16 15
M  V30 18 1 17 4
M  V30 19 1 18 17
M  V30 20 2 19 18
M  V30 21 1 20 19
M  V30 22 2 21 20
M  V30 23 1 22 21
M  V30 24 1 23 21
M  V30 25 1 24 2
M  V30 26 1 24 18
M  V30 27 2 24 23
M  V30 28 1 25 3
M  V30 29 1 26 5
M  V30 30 1 27 5
M  V30 31 1 28 6
M  V30 32 1 29 7
M  V30 33 1 30 7
M  V30 34 1 31 8
M  V30 35 1 32 8
M  V30 36 1 33 14
M  V30 37 1 34 14
M  V30 38 1 35 15
M  V30 39 1 36 15
M  V30 40 1 37 16
M  V30 41 1 38 16
M  V30 42 1 39 17
M  V30 43 1 40 19
M  V30 44 1 41 20
M  V30 45 1 42 23
M  V30 END BOND
M  V30 END CTAB
M  END
>  <b_m_subgroup_collapsed>  (886) 
0

>  <r_i_docking_score>  (886) 
-7.7348987462823304

>  <s_m_subgroup_title>  (886) 
glide-dock_SP_D22_pv

>  <s_m_subgroupid>  (886) 
glide-dock_SP_D22_pv

>  <Molecule ChEMBL ID>  (886) 
CHEMBL5723013

>  <Standard Type>  (886) 
Ki

>  <Standard Value>  (886) 
10000.0

>  <label>  (886) 
0

$$$$
CHEMBL3290004
     RDKit          3D

  0  0  0  0  0  0  0  0  0  0999 V3000
M  V30 BEGIN CTAB
M  V30 COUNTS 57 61 0 0 1
M  V30 BEGIN ATOM
M  V30 1 O 9.853982 9.372298 -9.271017 0
M  V30 2 S 10.518601 8.173427 -8.746697 0
M  V30 3 O 11.687237 7.614343 -9.438437 0
M  V30 4 N 9.300571 6.961295 -8.630547 0
M  V30 5 C 9.571187 5.552601 -8.881908 0
M  V30 6 C 9.820804 5.323131 -10.385947 0
M  V30 7 N 8.715714 5.659917 -11.300447 0 CFG=1 CHG=1
M  V30 8 C 9.100494 5.420201 -12.707809 0
M  V30 9 C 7.930264 5.720046 -13.649131 0
M  V30 10 C 6.653575 4.913441 -13.311431 0 CFG=1
M  V30 11 C 6.719090 3.419234 -13.590655 0
M  V30 12 N 5.685977 2.669359 -13.203116 0
M  V30 13 O 5.945739 1.327635 -13.586226 0
M  V30 14 C 7.158223 1.261314 -14.246904 0
M  V30 15 C 7.845336 0.172362 -14.798583 0
M  V30 16 C 9.092670 0.418160 -15.409607 0
M  V30 17 F 9.806463 -0.601661 -15.943122 0
M  V30 18 C 9.602920 1.733874 -15.469454 0
M  V30 19 C 8.886326 2.816434 -14.911848 0
M  V30 20 C 7.647699 2.573535 -14.266535 0
M  V30 21 C 6.312096 5.254392 -11.867590 0
M  V30 22 C 7.485824 4.956106 -10.938567 0
M  V30 23 C 10.988456 8.467870 -7.051164 0
M  V30 24 C 11.272603 9.784528 -6.669238 0
M  V30 25 C 11.555688 10.086682 -5.335099 0
M  V30 26 C 11.702794 9.057377 -4.392508 0
M  V30 27 C 12.085926 9.351985 -3.068418 0
M  V30 28 C 12.284721 8.306784 -2.148622 0
M  V30 29 C 12.086034 6.972070 -2.548386 0
M  V30 30 C 11.686010 6.683693 -3.864736 0
M  V30 31 C 11.488389 7.717068 -4.793054 0
M  V30 32 C 11.085315 7.421184 -6.113248 0
M  V30 33 H 8.339420 7.263535 -8.438322 0
M  V30 34 H 10.467465 5.265790 -8.332195 0
M  V30 35 H 8.767408 4.936520 -8.478365 0
M  V30 36 H 10.627485 5.957741 -10.721059 0
M  V30 37 H 10.086066 4.277575 -10.542740 0
M  V30 38 H 9.950182 6.052862 -12.968639 0
M  V30 39 H 9.433248 4.388262 -12.810104 0
M  V30 40 H 8.215972 5.594054 -14.690022 0
M  V30 41 H 7.699174 6.780676 -13.527923 0
M  V30 42 H 5.797928 5.309280 -13.847249 0
M  V30 43 H 7.428841 -0.821735 -14.744274 0
M  V30 44 H 10.555023 1.911251 -15.947901 0
M  V30 45 H 9.314779 3.800592 -14.989603 0
M  V30 46 H 5.413533 4.734767 -11.532664 0
M  V30 47 H 6.065862 6.315902 -11.844221 0
M  V30 48 H 7.642811 3.883149 -10.839952 0
M  V30 49 H 7.286026 5.379467 -9.969635 0
M  V30 50 H 11.286020 10.572223 -7.399388 0
M  V30 51 H 11.685940 11.113432 -5.063132 0
M  V30 52 H 12.237492 10.373857 -2.752974 0
M  V30 53 H 12.584333 8.532837 -1.135725 0
M  V30 54 H 12.233665 6.163903 -1.847260 0
M  V30 55 H 11.524384 5.668355 -4.172138 0
M  V30 56 H 10.894768 6.400938 -6.407556 0
M  V30 57 H 8.518354 6.647066 -11.183985 0
M  V30 END ATOM
M  V30 BEGIN BOND
M  V30 1 2 2 1
M  V30 2 2 3 2
M  V30 3 1 4 2
M  V30 4 1 5 4
M  V30 5 1 6 5
M  V30 6 1 7 6
M  V30 7 1 8 7
M  V30 8 1 9 8
M  V30 9 1 10 9
M  V30 10 1 11 10
M  V30 11 2 12 11
M  V30 12 1 13 12
M  V30 13 1 14 13
M  V30 14 1 15 14
M  V30 15 2 16 15
M  V30 16 1 17 16
M  V30 17 1 18 16
M  V30 18 2 19 18
M  V30 19 1 20 11
M  V30 20 2 20 14
M  V30 21 1 20 19
M  V30 22 1 21 10
M  V30 23 1 22 7
M  V30 24 1 22 21
M  V30 25 1 23 2
M  V30 26 1 24 23
M  V30 27 2 25 24
M  V30 28 1 26 25
M  V30 29 2 27 26
M  V30 30 1 28 27
M  V30 31 2 29 28
M  V30 32 1 30 29
M  V30 33 1 31 26
M  V30 34 2 31 30
M  V30 35 2 32 23
M  V30 36 1 32 31
M  V30 37 1 33 4
M  V30 38 1 34 5
M  V30 39 1 35 5
M  V30 40 1 36 6
M  V30 41 1 37 6
M  V30 42 1 38 8
M  V30 43 1 39 8
M  V30 44 1 40 9
M  V30 45 1 41 9
M  V30 46 1 10 42 CFG=3
M  V30 47 1 43 15
M  V30 48 1 44 18
M  V30 49 1 45 19
M  V30 50 1 46 21
M  V30 51 1 47 21
M  V30 52 1 48 22
M  V30 53 1 49 22
M  V30 54 1 50 24
M  V30 55 1 51 25
M  V30 56 1 52 27
M  V30 57 1 53 28
M  V30 58 1 54 29
M  V30 59 1 55 30
M  V30 60 1 56 32
M  V30 61 1 7 57 CFG=3
M  V30 END BOND
M  V30 END CTAB
M  END
>  <b_m_subgroup_collapsed>  (887) 
0

>  <r_i_docking_score>  (887) 
-7.7327663368511104

>  <s_m_subgroup_title>  (887) 
glide-dock_SP_D22_pv

>  <s_m_subgroupid>  (887) 
glide-dock_SP_D22_pv

>  <Molecule ChEMBL ID>  (887) 
CHEMBL3290004

>  <Standard Type>  (887) 
Ki

>  <Standard Value>  (887) 
5.2

>  <label>  (887) 
1

$$$$
CHEMBL5723000
     RDKit          3D

  0  0  0  0  0  0  0  0  0  0999 V3000
M  V30 BEGIN CTAB
M  V30 COUNTS 43 45 0 0 1
M  V30 BEGIN ATOM
M  V30 1 C 6.887233 1.720846 -14.897554 0
M  V30 2 C 7.195831 2.975198 -14.106836 0
M  V30 3 C 6.173459 3.638882 -13.398360 0
M  V30 4 C 6.465261 4.794557 -12.647182 0
M  V30 5 C 7.782812 5.290446 -12.602480 0
M  V30 6 N 8.085996 6.426766 -11.846796 0
M  V30 7 C 9.383039 6.904673 -11.713204 0
M  V30 8 C 9.566052 8.085752 -10.771587 0
M  V30 9 N 8.886039 7.901237 -9.467904 0 CHG=1
M  V30 10 C 9.344007 6.758476 -8.643800 0
M  V30 11 C 9.641969 7.174528 -7.190216 0
M  V30 12 C 10.969518 7.943992 -7.042962 0
M  V30 13 N 11.284962 8.272401 -5.661329 0
M  V30 14 C 11.285656 9.536099 -5.081876 0
M  V30 15 C 11.687594 9.372163 -3.774981 0
M  V30 16 N 11.952106 8.026872 -3.530868 0
M  V30 17 C 11.684196 7.436937 -4.688618 0
M  V30 18 C 10.415452 6.330644 -12.366178 0
M  V30 19 C 10.210859 5.154315 -13.240213 0
M  V30 20 O 11.150145 4.639995 -13.846885 0
M  V30 21 C 8.815025 4.631543 -13.316237 0
M  V30 22 C 8.513302 3.475654 -14.070022 0
M  V30 23 H 6.031829 1.192179 -14.473178 0
M  V30 24 H 6.660185 1.971841 -15.933929 0
M  V30 25 H 7.738517 1.037622 -14.888000 0
M  V30 26 H 5.163249 3.257486 -13.420092 0
M  V30 27 H 5.680598 5.290660 -12.094654 0
M  V30 28 H 9.163393 8.974936 -11.256486 0
M  V30 29 H 10.627712 8.269106 -10.594275 0
M  V30 30 H 7.880366 7.785171 -9.661812 0
M  V30 31 H 10.220950 6.278180 -9.081887 0
M  V30 32 H 8.546231 6.013859 -8.655734 0
M  V30 33 H 9.693892 6.270983 -6.581975 0
M  V30 34 H 8.812709 7.757567 -6.784616 0
M  V30 35 H 10.941783 8.869351 -7.618797 0
M  V30 36 H 11.795105 7.353057 -7.445521 0
M  V30 37 H 11.014576 10.425971 -5.631996 0
M  V30 38 H 11.815791 10.116597 -3.003157 0
M  V30 39 H 11.790634 6.370978 -4.835185 0
M  V30 40 H 11.422733 6.709517 -12.259546 0
M  V30 41 H 9.296764 2.963227 -14.609948 0
M  V30 42 H 7.325981 6.875758 -11.325632 0
M  V30 43 H 8.990517 8.747351 -8.929071 0
M  V30 END ATOM
M  V30 BEGIN BOND
M  V30 1 1 2 1
M  V30 2 2 3 2
M  V30 3 1 4 3
M  V30 4 2 5 4
M  V30 5 1 6 5
M  V30 6 1 7 6
M  V30 7 1 8 7
M  V30 8 1 9 8
M  V30 9 1 10 9
M  V30 10 1 11 10
M  V30 11 1 12 11
M  V30 12 1 13 12
M  V30 13 1 14 13
M  V30 14 2 15 14
M  V30 15 1 16 15
M  V30 16 1 17 13
M  V30 17 2 17 16
M  V30 18 2 18 7
M  V30 19 1 19 18
M  V30 20 2 20 19
M  V30 21 1 21 5
M  V30 22 1 21 19
M  V30 23 1 22 2
M  V30 24 2 22 21
M  V30 25 1 23 1
M  V30 26 1 24 1
M  V30 27 1 25 1
M  V30 28 1 26 3
M  V30 29 1 27 4
M  V30 30 1 28 8
M  V30 31 1 29 8
M  V30 32 1 30 9
M  V30 33 1 31 10
M  V30 34 1 32 10
M  V30 35 1 33 11
M  V30 36 1 34 11
M  V30 37 1 35 12
M  V30 38 1 36 12
M  V30 39 1 37 14
M  V30 40 1 38 15
M  V30 41 1 39 17
M  V30 42 1 40 18
M  V30 43 1 41 22
M  V30 44 1 42 6
M  V30 45 1 43 9
M  V30 END BOND
M  V30 END CTAB
M  END
>  <b_m_subgroup_collapsed>  (888) 
0

>  <r_i_docking_score>  (888) 
-7.7326063165422001

>  <s_m_subgroup_title>  (888) 
glide-dock_SP_D22_pv

>  <s_m_subgroupid>  (888) 
glide-dock_SP_D22_pv

>  <Molecule ChEMBL ID>  (888) 
CHEMBL5723000

>  <Standard Type>  (888) 
Ki

>  <Standard Value>  (888) 
10000.0

>  <label>  (888) 
0

$$$$
CHEMBL3780438
     RDKit          3D

  0  0  0  0  0  0  0  0  0  0999 V3000
M  V30 BEGIN CTAB
M  V30 COUNTS 47 48 0 0 1
M  V30 BEGIN ATOM
M  V30 1 C 12.080570 6.173265 -2.672939 0
M  V30 2 O 12.271435 7.540284 -2.974650 0
M  V30 3 C 11.685949 8.032450 -4.121577 0
M  V30 4 C 11.290596 7.234901 -5.228749 0
M  V30 5 C 10.746416 7.827559 -6.389846 0
M  V30 6 C 10.408726 6.975203 -7.605536 0
M  V30 7 C 8.923930 7.062189 -8.034271 0
M  V30 8 N 8.566586 6.198139 -9.195338 0 CFG=2 CHG=1
M  V30 9 C 8.728498 4.753902 -8.911268 0
M  V30 10 C 9.145527 6.657026 -10.494133 0
M  V30 11 C 8.722092 5.834074 -11.718581 0
M  V30 12 C 7.389941 5.372430 -11.817625 0
M  V30 13 C 6.995871 4.528541 -12.864639 0
M  V30 14 C 7.929763 4.169498 -13.846895 0
M  V30 15 C 9.236484 4.692698 -13.823434 0
M  V30 16 O 10.034594 4.347602 -14.875589 0
M  V30 17 C 9.652689 5.546761 -12.755366 0
M  V30 18 O 10.885401 6.171978 -12.647289 0
M  V30 19 C 11.975073 5.838582 -13.492013 0
M  V30 20 C 10.563217 9.223876 -6.429705 0
M  V30 21 C 10.888480 10.015141 -5.312384 0
M  V30 22 C 11.437552 9.419139 -4.161549 0
M  V30 23 O 11.686410 10.172208 -3.049572 0
M  V30 24 H 12.590671 5.928638 -1.742898 0
M  V30 25 H 11.019732 5.966575 -2.541426 0
M  V30 26 H 12.486422 5.529512 -3.447613 0
M  V30 27 H 11.442837 6.167917 -5.221999 0
M  V30 28 H 11.060246 7.299994 -8.416360 0
M  V30 29 H 10.680732 5.940911 -7.392646 0
M  V30 30 H 8.288607 6.785752 -7.191042 0
M  V30 31 H 8.658404 8.091743 -8.277455 0
M  V30 32 H 9.768494 4.437065 -9.002687 0
M  V30 33 H 8.375654 4.510026 -7.909528 0
M  V30 34 H 8.127097 4.172303 -9.602741 0
M  V30 35 H 8.877790 7.699505 -10.669822 0
M  V30 36 H 10.229747 6.631200 -10.400407 0
M  V30 37 H 6.663316 5.640485 -11.063344 0
M  V30 38 H 5.983975 4.151989 -12.908003 0
M  V30 39 H 7.628466 3.510384 -14.646592 0
M  V30 40 H 10.882730 4.759492 -14.850911 0
M  V30 41 H 12.867701 6.361277 -13.144667 0
M  V30 42 H 12.194807 4.771181 -13.465518 0
M  V30 43 H 11.798487 6.162068 -14.517796 0
M  V30 44 H 10.157256 9.694622 -7.312916 0
M  V30 45 H 10.709537 11.078648 -5.340403 0
M  V30 46 H 11.469791 11.092439 -3.118579 0
M  V30 47 H 7.570616 6.369498 -9.308181 0
M  V30 END ATOM
M  V30 BEGIN BOND
M  V30 1 1 2 1
M  V30 2 1 3 2
M  V30 3 1 4 3
M  V30 4 2 5 4
M  V30 5 1 6 5
M  V30 6 1 7 6
M  V30 7 1 8 7
M  V30 8 1 9 8
M  V30 9 1 10 8
M  V30 10 1 11 10
M  V30 11 2 12 11
M  V30 12 1 13 12
M  V30 13 2 14 13
M  V30 14 1 15 14
M  V30 15 1 16 15
M  V30 16 1 17 11
M  V30 17 2 17 15
M  V30 18 1 18 17
M  V30 19 1 19 18
M  V30 20 1 20 5
M  V30 21 2 21 20
M  V30 22 2 22 3
M  V30 23 1 22 21
M  V30 24 1 23 22
M  V30 25 1 24 1
M  V30 26 1 25 1
M  V30 27 1 26 1
M  V30 28 1 27 4
M  V30 29 1 28 6
M  V30 30 1 29 6
M  V30 31 1 30 7
M  V30 32 1 31 7
M  V30 33 1 32 9
M  V30 34 1 33 9
M  V30 35 1 34 9
M  V30 36 1 35 10
M  V30 37 1 36 10
M  V30 38 1 37 12
M  V30 39 1 38 13
M  V30 40 1 39 14
M  V30 41 1 40 16
M  V30 42 1 41 19
M  V30 43 1 42 19
M  V30 44 1 43 19
M  V30 45 1 44 20
M  V30 46 1 45 21
M  V30 47 1 46 23
M  V30 48 1 8 47 CFG=3
M  V30 END BOND
M  V30 END CTAB
M  END
>  <b_m_subgroup_collapsed>  (889) 
0

>  <r_i_docking_score>  (889) 
-7.7310620034156896

>  <s_m_subgroup_title>  (889) 
glide-dock_SP_D22_pv

>  <s_m_subgroupid>  (889) 
glide-dock_SP_D22_pv

>  <Molecule ChEMBL ID>  (889) 
CHEMBL3780438

>  <Standard Type>  (889) 
Ki

>  <Standard Value>  (889) 
10000.0

>  <label>  (889) 
0

$$$$
CHEMBL167032
     RDKit          3D

  0  0  0  0  0  0  0  0  0  0999 V3000
M  V30 BEGIN CTAB
M  V30 COUNTS 56 58 0 0 1
M  V30 BEGIN ATOM
M  V30 1 C 11.702564 3.411390 -15.070649 0
M  V30 2 O 11.052353 4.235862 -14.114831 0
M  V30 3 C 9.698959 4.066155 -13.895319 0
M  V30 4 C 8.985666 2.986108 -14.476801 0
M  V30 5 C 7.606498 2.807121 -14.246686 0
M  V30 6 N 6.888749 1.697704 -14.771712 0
M  V30 7 C 7.076938 1.078496 -15.949673 0
M  V30 8 C 6.189377 -0.132330 -16.214003 0
M  V30 9 O 7.872639 1.451887 -16.809891 0
M  V30 10 C 6.936259 3.713752 -13.405119 0
M  V30 11 Cl 5.266695 3.508615 -13.046737 0
M  V30 12 C 7.622853 4.791018 -12.824375 0
M  V30 13 C 9.005630 4.988343 -13.054810 0
M  V30 14 C 9.709188 6.171701 -12.423764 0
M  V30 15 O 10.887780 6.428740 -12.667481 0
M  V30 16 N 8.996047 6.951040 -11.591884 0
M  V30 17 C 9.541587 8.161202 -10.991482 0
M  V30 18 C 10.542069 7.834507 -9.865614 0 CFG=1
M  V30 19 C 11.379173 9.029917 -9.403931 0
M  V30 20 C 11.438810 8.936968 -7.877491 0
M  V30 21 N 10.806511 7.651461 -7.507478 0 CFG=1 CHG=1
M  V30 22 C 10.156716 7.630975 -6.182559 0
M  V30 23 C 11.105977 7.926435 -5.036202 0
M  V30 24 C 11.286000 9.252692 -4.588536 0
M  V30 25 C 11.972987 9.504687 -3.387966 0
M  V30 26 C 12.486033 8.437840 -2.629457 0
M  V30 27 C 12.362087 7.116820 -3.099021 0
M  V30 28 C 11.684946 6.864288 -4.307014 0
M  V30 29 C 9.875727 7.308044 -8.597843 0
M  V30 30 H 12.743777 3.721564 -15.161249 0
M  V30 31 H 11.689958 2.365211 -14.762645 0
M  V30 32 H 11.245328 3.503526 -16.056667 0
M  V30 33 H 9.492103 2.259358 -15.090491 0
M  V30 34 H 6.100529 1.388755 -14.222032 0
M  V30 35 H 6.256175 -0.845773 -15.392257 0
M  V30 36 H 5.148635 0.170597 -16.329762 0
M  V30 37 H 6.496984 -0.643487 -17.126963 0
M  V30 38 H 7.055170 5.455949 -12.189661 0
M  V30 39 H 8.022365 6.744878 -11.397419 0
M  V30 40 H 8.721937 8.776484 -10.617079 0
M  V30 41 H 10.025948 8.749600 -11.769527 0
M  V30 42 H 11.250428 7.075520 -10.201699 0
M  V30 43 H 10.940612 9.979051 -9.709405 0
M  V30 44 H 12.377892 8.972610 -9.841010 0
M  V30 45 H 10.877826 9.771354 -7.452864 0
M  V30 46 H 12.460534 8.996701 -7.498625 0
M  V30 47 H 9.702778 6.650776 -6.024182 0
M  V30 48 H 9.334994 8.350489 -6.167645 0
M  V30 49 H 10.834920 10.079107 -5.118357 0
M  V30 50 H 12.074770 10.517408 -3.027154 0
M  V30 51 H 12.991772 8.638313 -1.697258 0
M  V30 52 H 12.762444 6.295255 -2.522910 0
M  V30 53 H 11.548289 5.842434 -4.631840 0
M  V30 54 H 9.678261 6.235463 -8.642571 0
M  V30 55 H 8.918656 7.812242 -8.441465 0
M  V30 56 H 11.534532 6.951262 -7.508962 0
M  V30 END ATOM
M  V30 BEGIN BOND
M  V30 1 1 2 1
M  V30 2 1 3 2
M  V30 3 1 4 3
M  V30 4 2 5 4
M  V30 5 1 6 5
M  V30 6 1 7 6
M  V30 7 1 8 7
M  V30 8 2 9 7
M  V30 9 1 10 5
M  V30 10 1 11 10
M  V30 11 2 12 10
M  V30 12 2 13 3
M  V30 13 1 13 12
M  V30 14 1 14 13
M  V30 15 2 15 14
M  V30 16 1 16 14
M  V30 17 1 17 16
M  V30 18 1 18 17
M  V30 19 1 19 18
M  V30 20 1 20 19
M  V30 21 1 21 20
M  V30 22 1 22 21
M  V30 23 1 23 22
M  V30 24 2 24 23
M  V30 25 1 25 24
M  V30 26 2 26 25
M  V30 27 1 27 26
M  V30 28 1 28 23
M  V30 29 2 28 27
M  V30 30 1 29 18
M  V30 31 1 29 21
M  V30 32 1 30 1
M  V30 33 1 31 1
M  V30 34 1 32 1
M  V30 35 1 33 4
M  V30 36 1 34 6
M  V30 37 1 35 8
M  V30 38 1 36 8
M  V30 39 1 37 8
M  V30 40 1 38 12
M  V30 41 1 39 16
M  V30 42 1 40 17
M  V30 43 1 41 17
M  V30 44 1 18 42 CFG=3
M  V30 45 1 43 19
M  V30 46 1 44 19
M  V30 47 1 45 20
M  V30 48 1 46 20
M  V30 49 1 47 22
M  V30 50 1 48 22
M  V30 51 1 49 24
M  V30 52 1 50 25
M  V30 53 1 51 26
M  V30 54 1 52 27
M  V30 55 1 53 28
M  V30 56 1 54 29
M  V30 57 1 55 29
M  V30 58 1 21 56 CFG=1
M  V30 END BOND
M  V30 END CTAB
M  END
>  <b_m_subgroup_collapsed>  (890) 
0

>  <r_i_docking_score>  (890) 
-7.7310024997949904

>  <s_m_subgroup_title>  (890) 
glide-dock_SP_D22_pv

>  <s_m_subgroupid>  (890) 
glide-dock_SP_D22_pv

>  <Molecule ChEMBL ID>  (890) 
CHEMBL167032

>  <Standard Type>  (890) 
Ki

>  <Standard Value>  (890) 
25000.0

>  <label>  (890) 
0

$$$$
CHEMBL3084517
     RDKit          3D

  0  0  0  0  0  0  0  0  0  0999 V3000
M  V30 BEGIN CTAB
M  V30 COUNTS 49 53 0 0 1
M  V30 BEGIN ATOM
M  V30 1 O 11.182925 7.006577 -11.809700 0
M  V30 2 C 9.905095 6.734408 -11.276252 0 CFG=1
M  V30 3 C 9.075856 5.770553 -12.173926 0
M  V30 4 C 7.707204 5.623998 -11.845702 0
M  V30 5 C 6.852219 4.753059 -12.536137 0
M  V30 6 C 7.360341 3.978156 -13.585146 0
M  V30 7 C 8.716147 4.075246 -13.932326 0
M  V30 8 Cl 9.299733 3.075682 -15.216524 0
M  V30 9 C 9.584580 4.959799 -13.245337 0
M  V30 10 Cl 11.241560 4.957347 -13.761596 0
M  V30 11 C 10.081735 6.090214 -9.861618 0
M  V30 12 C 10.433364 7.032893 -8.713303 0 CFG=1
M  V30 13 C 11.688283 7.889718 -8.991724 0
M  V30 14 C 11.126754 9.154232 -9.655162 0
M  V30 15 C 9.619128 8.877534 -9.780901 0 CFG=1
M  V30 16 C 9.285050 8.164454 -11.135598 0
M  V30 17 N 9.326628 7.977706 -8.644589 0 CFG=2 CHG=1
M  V30 18 C 9.087893 8.571061 -7.298876 0
M  V30 19 C 10.274749 8.972033 -6.416292 0
M  V30 20 C 10.886430 10.196006 -6.244745 0
M  V30 21 O 11.688309 10.270138 -5.174442 0
M  V30 22 C 11.753067 9.021750 -4.662689 0
M  V30 23 C 12.486412 8.637800 -3.537699 0
M  V30 24 C 12.468991 7.287401 -3.185929 0
M  V30 25 C 11.683024 6.402705 -3.935639 0
M  V30 26 C 10.913767 6.815707 -5.039351 0
M  V30 27 C 10.940413 8.157686 -5.440087 0
M  V30 28 H 11.629598 7.622245 -11.252061 0
M  V30 29 H 7.286888 6.169976 -11.017933 0
M  V30 30 H 5.813913 4.670949 -12.246646 0
M  V30 31 H 6.710104 3.298715 -14.117553 0
M  V30 32 H 9.178568 5.547703 -9.577590 0
M  V30 33 H 10.867949 5.371432 -9.846892 0
M  V30 34 H 10.537357 6.448148 -7.799874 0
M  V30 35 H 12.425861 7.379499 -9.608617 0
M  V30 36 H 12.205083 8.149981 -8.068869 0
M  V30 37 H 11.603646 9.383622 -10.608460 0
M  V30 38 H 11.286744 10.015203 -9.011731 0
M  V30 39 H 9.014580 9.772399 -9.713694 0
M  V30 40 H 9.588484 8.794262 -11.973537 0
M  V30 41 H 8.211637 8.131981 -11.263639 0
M  V30 42 H 8.379991 9.372410 -7.445199 0
M  V30 43 H 8.511509 7.823933 -6.751609 0
M  V30 44 H 10.784501 11.181583 -6.647018 0
M  V30 45 H 13.081558 9.355401 -2.988471 0
M  V30 46 H 13.043118 6.907942 -2.360890 0
M  V30 47 H 11.686707 5.373602 -3.645604 0
M  V30 48 H 10.288190 6.112942 -5.561817 0
M  V30 49 H 8.455794 7.504550 -8.870341 0
M  V30 END ATOM
M  V30 BEGIN BOND
M  V30 1 1 2 1 CFG=3
M  V30 2 1 3 2
M  V30 3 2 4 3
M  V30 4 1 5 4
M  V30 5 2 6 5
M  V30 6 1 7 6
M  V30 7 1 8 7
M  V30 8 1 9 3
M  V30 9 2 9 7
M  V30 10 1 10 9
M  V30 11 1 11 2
M  V30 12 1 12 11
M  V30 13 1 13 12
M  V30 14 1 14 13
M  V30 15 1 15 14
M  V30 16 1 16 2
M  V30 17 1 16 15
M  V30 18 1 17 12
M  V30 19 1 17 15
M  V30 20 1 18 17
M  V30 21 1 19 18
M  V30 22 2 20 19
M  V30 23 1 21 20
M  V30 24 1 22 21
M  V30 25 2 23 22
M  V30 26 1 24 23
M  V30 27 2 25 24
M  V30 28 1 26 25
M  V30 29 1 27 19
M  V30 30 1 27 22
M  V30 31 2 27 26
M  V30 32 1 28 1
M  V30 33 1 29 4
M  V30 34 1 30 5
M  V30 35 1 31 6
M  V30 36 1 32 11
M  V30 37 1 33 11
M  V30 38 1 12 34 CFG=1
M  V30 39 1 35 13
M  V30 40 1 36 13
M  V30 41 1 37 14
M  V30 42 1 38 14
M  V30 43 1 15 39 CFG=1
M  V30 44 1 40 16
M  V30 45 1 41 16
M  V30 46 1 42 18
M  V30 47 1 43 18
M  V30 48 1 44 20
M  V30 49 1 45 23
M  V30 50 1 46 24
M  V30 51 1 47 25
M  V30 52 1 48 26
M  V30 53 1 17 49 CFG=3
M  V30 END BOND
M  V30 END CTAB
M  END
>  <b_m_subgroup_collapsed>  (891) 
0

>  <r_i_docking_score>  (891) 
-7.7267866139061399

>  <s_m_subgroup_title>  (891) 
glide-dock_SP_D22_pv

>  <s_m_subgroupid>  (891) 
glide-dock_SP_D22_pv

>  <Molecule ChEMBL ID>  (891) 
CHEMBL3084517

>  <Standard Type>  (891) 
Ki

>  <Standard Value>  (891) 
40.1

>  <label>  (891) 
1

$$$$
CHEMBL122758
     RDKit          3D

  0  0  0  0  0  0  0  0  0  0999 V3000
M  V30 BEGIN CTAB
M  V30 COUNTS 52 55 0 0 1
M  V30 BEGIN ATOM
M  V30 1 O 9.555511 9.006123 -8.194451 0
M  V30 2 C 10.242852 8.909953 -6.964796 0 CFG=2
M  V30 3 C 11.507307 9.728392 -6.994020 0
M  V30 4 C 11.895120 10.109048 -5.575957 0
M  V30 5 C 11.866098 8.903797 -4.658704 0
M  V30 6 C 12.431684 9.042821 -3.374873 0
M  V30 7 C 12.477037 7.951349 -2.494514 0
M  V30 8 C 11.988050 6.705121 -2.914285 0
M  V30 9 C 11.405707 6.572332 -4.189005 0
M  V30 10 C 11.286027 7.666421 -5.070355 0
M  V30 11 C 10.543077 7.501636 -6.430495 0 CFG=1
M  V30 12 C 9.158430 6.827434 -6.272935 0
M  V30 13 C 8.514874 6.218587 -7.555543 0
M  V30 14 N 9.493809 5.470455 -8.375911 0 CFG=1 CHG=1
M  V30 15 C 8.944108 4.775412 -9.567685 0
M  V30 16 C 8.706986 5.681913 -10.796464 0
M  V30 17 C 8.082739 4.915781 -11.944170 0
M  V30 18 C 6.683319 4.916214 -12.116601 0
M  V30 19 C 6.094644 4.139935 -13.132440 0
M  V30 20 C 6.907846 3.372320 -13.988112 0
M  V30 21 C 8.308956 3.401983 -13.846888 0
M  V30 22 C 8.896571 4.172261 -12.824451 0
M  V30 23 C 10.668407 6.298868 -8.685855 0
M  V30 24 C 11.411023 6.650603 -7.391129 0
M  V30 25 H 8.640010 8.803933 -8.058212 0
M  V30 26 H 9.569955 9.372327 -6.248652 0
M  V30 27 H 12.330179 9.232960 -7.503688 0
M  V30 28 H 11.286027 10.573898 -7.583159 0
M  V30 29 H 12.886080 10.558389 -5.578768 0
M  V30 30 H 11.204651 10.857719 -5.184785 0
M  V30 31 H 12.835852 9.993191 -3.057760 0
M  V30 32 H 12.888908 8.069575 -1.503990 0
M  V30 33 H 12.035317 5.852654 -2.251610 0
M  V30 34 H 11.017031 5.616423 -4.478648 0
M  V30 35 H 9.194220 6.088706 -5.495727 0
M  V30 36 H 8.486021 7.573057 -5.869621 0
M  V30 37 H 7.685996 5.568281 -7.278286 0
M  V30 38 H 8.086032 6.997329 -8.177485 0
M  V30 39 H 9.669399 4.008956 -9.847336 0
M  V30 40 H 8.036881 4.244379 -9.287590 0
M  V30 41 H 8.086029 6.534743 -10.537214 0
M  V30 42 H 9.644716 6.099487 -11.162515 0
M  V30 43 H 6.057468 5.494184 -11.450018 0
M  V30 44 H 5.021124 4.129367 -13.251266 0
M  V30 45 H 6.458463 2.772091 -14.765140 0
M  V30 46 H 8.931835 2.819560 -14.509898 0
M  V30 47 H 9.970152 4.167233 -12.704072 0
M  V30 48 H 11.286017 5.772323 -9.380859 0
M  V30 49 H 10.405273 7.165614 -9.278497 0
M  V30 50 H 12.352172 7.139318 -7.627747 0
M  V30 51 H 11.696145 5.723106 -6.895003 0
M  V30 52 H 9.825084 4.730107 -7.775829 0
M  V30 END ATOM
M  V30 BEGIN BOND
M  V30 1 1 2 1
M  V30 2 1 3 2
M  V30 3 1 4 3
M  V30 4 1 5 4
M  V30 5 2 6 5
M  V30 6 1 7 6
M  V30 7 2 8 7
M  V30 8 1 9 8
M  V30 9 1 10 5
M  V30 10 2 10 9
M  V30 11 1 11 2
M  V30 12 1 11 10
M  V30 13 1 11 12 CFG=1
M  V30 14 1 13 12
M  V30 15 1 14 13
M  V30 16 1 15 14
M  V30 17 1 16 15
M  V30 18 1 17 16
M  V30 19 2 18 17
M  V30 20 1 19 18
M  V30 21 2 20 19
M  V30 22 1 21 20
M  V30 23 1 22 17
M  V30 24 2 22 21
M  V30 25 1 23 14
M  V30 26 1 24 11
M  V30 27 1 24 23
M  V30 28 1 25 1
M  V30 29 1 2 26 CFG=1
M  V30 30 1 27 3
M  V30 31 1 28 3
M  V30 32 1 29 4
M  V30 33 1 30 4
M  V30 34 1 31 6
M  V30 35 1 32 7
M  V30 36 1 33 8
M  V30 37 1 34 9
M  V30 38 1 35 12
M  V30 39 1 36 12
M  V30 40 1 37 13
M  V30 41 1 38 13
M  V30 42 1 39 15
M  V30 43 1 40 15
M  V30 44 1 41 16
M  V30 45 1 42 16
M  V30 46 1 43 18
M  V30 47 1 44 19
M  V30 48 1 45 20
M  V30 49 1 46 21
M  V30 50 1 47 22
M  V30 51 1 48 23
M  V30 52 1 49 23
M  V30 53 1 50 24
M  V30 54 1 51 24
M  V30 55 1 14 52 CFG=1
M  V30 END BOND
M  V30 END CTAB
M  END
>  <b_m_subgroup_collapsed>  (892) 
0

>  <r_i_docking_score>  (892) 
-7.7264620988069401

>  <s_m_subgroup_title>  (892) 
glide-dock_SP_D22_pv

>  <s_m_subgroupid>  (892) 
glide-dock_SP_D22_pv

>  <Molecule ChEMBL ID>  (892) 
CHEMBL122758

>  <Standard Type>  (892) 
Ki

>  <Standard Value>  (892) 
10000.0

>  <label>  (892) 
0

$$$$
CHEMBL3759819
     RDKit          3D

  0  0  0  0  0  0  0  0  0  0999 V3000
M  V30 BEGIN CTAB
M  V30 COUNTS 64 68 0 0 1
M  V30 BEGIN ATOM
M  V30 1 O 10.968019 4.789682 -16.983252 0
M  V30 2 S 11.009500 4.084377 -15.694445 0
M  V30 3 O 12.292957 3.784914 -15.043384 0
M  V30 4 N 10.056334 5.005351 -14.590244 0
M  V30 5 C 10.157395 4.802070 -13.136271 0 CFG=1
M  V30 6 C 9.999391 6.157467 -12.399851 0
M  V30 7 C 8.556022 6.404271 -11.876170 0 CFG=1
M  V30 8 C 7.564576 6.382288 -13.046660 0
M  V30 9 C 7.002724 4.952375 -13.079574 0
M  V30 10 C 7.846463 4.219247 -12.041137 0 CFG=1
M  V30 11 C 9.187816 3.699798 -12.627028 0
M  V30 12 N 8.091857 5.272782 -11.050476 0 CFG=1 CHG=1
M  V30 13 C 8.907383 4.903156 -9.876190 0
M  V30 14 C 8.462640 5.686728 -8.665545 0
M  V30 15 O 9.535895 5.628569 -7.784731 0
M  V30 16 C 10.207347 6.788559 -7.592424 0
M  V30 17 C 10.533752 7.713272 -8.608029 0
M  V30 18 C 11.248115 8.875477 -8.270699 0
M  V30 19 C 11.620365 9.105041 -6.931220 0
M  V30 20 C 11.284715 8.169495 -5.925301 0
M  V30 21 C 11.688111 8.331592 -4.533428 0
M  V30 22 C 11.680713 9.607764 -3.957680 0
M  V30 23 C 12.086119 9.772323 -2.632952 0
M  V30 24 C 12.486312 8.676908 -1.848401 0
M  V30 25 C 12.476246 7.389888 -2.411388 0
M  V30 26 C 12.086580 7.223086 -3.749743 0
M  V30 27 C 10.579563 7.017034 -6.273944 0
M  V30 28 C 10.071295 2.574241 -15.844660 0
M  V30 29 C 10.427158 1.433010 -15.098253 0
M  V30 30 C 9.646033 0.265661 -15.202406 0
M  V30 31 C 8.512339 0.253510 -16.039825 0
M  V30 32 C 8.168569 1.393641 -16.790144 0
M  V30 33 Cl 6.781678 1.367699 -17.813368 0
M  V30 34 C 8.952949 2.556952 -16.699415 0
M  V30 35 H 10.092821 5.993873 -14.841545 0
M  V30 36 H 11.172379 4.458344 -12.942110 0
M  V30 37 H 10.320442 6.976480 -13.041933 0
M  V30 38 H 10.712623 6.198191 -11.581311 0
M  V30 39 H 8.496484 7.343503 -11.323853 0
M  V30 40 H 8.085977 6.578583 -13.977302 0
M  V30 41 H 6.770007 7.119951 -12.921745 0
M  V30 42 H 7.060707 4.489716 -14.066981 0
M  V30 43 H 5.953362 4.959484 -12.778441 0
M  V30 44 H 7.271143 3.411596 -11.594411 0
M  V30 45 H 9.703182 3.136886 -11.848345 0
M  V30 46 H 8.976609 2.970004 -13.405423 0
M  V30 47 H 9.981792 5.002571 -10.046317 0
M  V30 48 H 8.767152 3.866322 -9.575552 0
M  V30 49 H 7.685699 5.144453 -8.149567 0
M  V30 50 H 8.086238 6.686893 -8.882168 0
M  V30 51 H 10.254670 7.539370 -9.634889 0
M  V30 52 H 11.514541 9.584738 -9.041076 0
M  V30 53 H 12.185770 9.991652 -6.681356 0
M  V30 54 H 11.361333 10.468855 -4.526101 0
M  V30 55 H 12.086216 10.775027 -2.244082 0
M  V30 56 H 12.800587 8.830019 -0.830020 0
M  V30 57 H 12.775455 6.530055 -1.829533 0
M  V30 58 H 12.096837 6.226995 -4.168628 0
M  V30 59 H 10.300198 6.291049 -5.523310 0
M  V30 60 H 11.274343 1.457079 -14.430970 0
M  V30 61 H 9.905252 -0.614916 -14.632762 0
M  V30 62 H 7.894107 -0.626874 -16.105793 0
M  V30 63 H 8.690802 3.434808 -17.271194 0
M  V30 64 H 7.182089 5.542792 -10.690310 0
M  V30 END ATOM
M  V30 BEGIN BOND
M  V30 1 2 2 1
M  V30 2 2 3 2
M  V30 3 1 4 2
M  V30 4 1 5 4
M  V30 5 1 6 5
M  V30 6 1 7 6
M  V30 7 1 8 7
M  V30 8 1 9 8
M  V30 9 1 10 9
M  V30 10 1 11 5
M  V30 11 1 11 10
M  V30 12 1 12 7
M  V30 13 1 12 10
M  V30 14 1 13 12
M  V30 15 1 14 13
M  V30 16 1 15 14
M  V30 17 1 16 15
M  V30 18 1 17 16
M  V30 19 2 18 17
M  V30 20 1 19 18
M  V30 21 2 20 19
M  V30 22 1 21 20
M  V30 23 2 22 21
M  V30 24 1 23 22
M  V30 25 2 24 23
M  V30 26 1 25 24
M  V30 27 1 26 21
M  V30 28 2 26 25
M  V30 29 2 27 16
M  V30 30 1 27 20
M  V30 31 1 28 2
M  V30 32 2 29 28
M  V30 33 1 30 29
M  V30 34 2 31 30
M  V30 35 1 32 31
M  V30 36 1 33 32
M  V30 37 1 34 28
M  V30 38 2 34 32
M  V30 39 1 35 4
M  V30 40 1 5 36 CFG=3
M  V30 41 1 37 6
M  V30 42 1 38 6
M  V30 43 1 7 39 CFG=1
M  V30 44 1 40 8
M  V30 45 1 41 8
M  V30 46 1 42 9
M  V30 47 1 43 9
M  V30 48 1 10 44 CFG=1
M  V30 49 1 45 11
M  V30 50 1 46 11
M  V30 51 1 47 13
M  V30 52 1 48 13
M  V30 53 1 49 14
M  V30 54 1 50 14
M  V30 55 1 51 17
M  V30 56 1 52 18
M  V30 57 1 53 19
M  V30 58 1 54 22
M  V30 59 1 55 23
M  V30 60 1 56 24
M  V30 61 1 57 25
M  V30 62 1 58 26
M  V30 63 1 59 27
M  V30 64 1 60 29
M  V30 65 1 61 30
M  V30 66 1 62 31
M  V30 67 1 63 34
M  V30 68 1 12 64 CFG=1
M  V30 END BOND
M  V30 END CTAB
M  END
>  <b_m_subgroup_collapsed>  (893) 
0

>  <r_i_docking_score>  (893) 
-7.7249114532240402

>  <s_m_subgroup_title>  (893) 
glide-dock_SP_D22_pv

>  <s_m_subgroupid>  (893) 
glide-dock_SP_D22_pv

>  <Molecule ChEMBL ID>  (893) 
CHEMBL3759819

>  <Standard Type>  (893) 
Ki

>  <Standard Value>  (893) 
94.0

>  <label>  (893) 
1

$$$$
CHEMBL201748
     RDKit          3D

  0  0  0  0  0  0  0  0  0  0999 V3000
M  V30 BEGIN CTAB
M  V30 COUNTS 43 47 0 0 1
M  V30 BEGIN ATOM
M  V30 1 C 12.084756 8.459334 -3.376539 0
M  V30 2 C 11.948626 7.165009 -3.911548 0
M  V30 3 C 11.291796 6.974443 -5.144464 0
M  V30 4 C 10.750604 8.076597 -5.847239 0
M  V30 5 C 10.019521 7.916241 -7.180635 0 CFG=1
M  V30 6 C 10.894177 8.104693 -8.432195 0
M  V30 7 C 9.987008 7.479020 -9.487715 0 CFG=1
M  V30 8 C 10.532576 7.117039 -10.823960 0
M  V30 9 N 11.524114 7.770827 -11.526842 0
M  V30 10 C 11.686001 7.187452 -12.774747 0
M  V30 11 C 12.517902 7.494186 -13.864972 0
M  V30 12 C 12.482976 6.686553 -15.017014 0
M  V30 13 C 11.614630 5.579617 -15.069893 0
M  V30 14 C 10.771131 5.286119 -13.979461 0
M  V30 15 C 10.775712 6.089406 -12.815324 0
M  V30 16 C 10.083849 6.054357 -11.555781 0
M  V30 17 C 9.123693 5.041100 -10.985640 0
M  V30 18 C 8.517843 5.503634 -9.630036 0
M  V30 19 N 9.523764 6.246219 -8.830257 0 CFG=2 CHG=1
M  V30 20 C 9.224699 6.603157 -7.427473 0
M  V30 21 C 10.898260 9.373238 -5.304041 0
M  V30 22 C 11.560232 9.562138 -4.074303 0
M  V30 23 H 12.588571 8.607444 -2.432312 0
M  V30 24 H 12.352078 6.315871 -3.378885 0
M  V30 25 H 11.228683 5.971951 -5.535326 0
M  V30 26 H 9.272087 8.713123 -7.205201 0
M  V30 27 H 11.144528 9.146619 -8.633688 0
M  V30 28 H 11.822284 7.538234 -8.339884 0
M  V30 29 H 9.124177 8.132737 -9.639543 0
M  V30 30 H 12.015546 8.583135 -11.179798 0
M  V30 31 H 13.197498 8.331163 -13.814650 0
M  V30 32 H 13.128144 6.908764 -15.854288 0
M  V30 33 H 11.594788 4.953283 -15.950283 0
M  V30 34 H 10.110708 4.433450 -14.031596 0
M  V30 35 H 8.326012 4.815165 -11.694407 0
M  V30 36 H 9.664248 4.106913 -10.828524 0
M  V30 37 H 7.686069 6.168823 -9.817607 0
M  V30 38 H 8.126093 4.651395 -9.072855 0
M  V30 39 H 9.518325 5.772482 -6.792134 0
M  V30 40 H 8.154976 6.766679 -7.275526 0
M  V30 41 H 10.498064 10.230333 -5.826414 0
M  V30 42 H 11.666179 10.552714 -3.657375 0
M  V30 43 H 10.335479 5.647284 -8.792364 0
M  V30 END ATOM
M  V30 BEGIN BOND
M  V30 1 2 2 1
M  V30 2 1 3 2
M  V30 3 2 4 3
M  V30 4 1 5 4
M  V30 5 1 6 5
M  V30 6 1 7 6
M  V30 7 1 8 7
M  V30 8 1 9 8
M  V30 9 1 10 9
M  V30 10 2 11 10
M  V30 11 1 12 11
M  V30 12 2 13 12
M  V30 13 1 14 13
M  V30 14 1 15 10
M  V30 15 2 15 14
M  V30 16 2 16 8
M  V30 17 1 16 15
M  V30 18 1 17 16
M  V30 19 1 18 17
M  V30 20 1 19 7
M  V30 21 1 19 18
M  V30 22 1 20 5
M  V30 23 1 20 19
M  V30 24 1 21 4
M  V30 25 1 22 1
M  V30 26 2 22 21
M  V30 27 1 23 1
M  V30 28 1 24 2
M  V30 29 1 25 3
M  V30 30 1 5 26 CFG=3
M  V30 31 1 27 6
M  V30 32 1 28 6
M  V30 33 1 7 29 CFG=3
M  V30 34 1 30 9
M  V30 35 1 31 11
M  V30 36 1 32 12
M  V30 37 1 33 13
M  V30 38 1 34 14
M  V30 39 1 35 17
M  V30 40 1 36 17
M  V30 41 1 37 18
M  V30 42 1 38 18
M  V30 43 1 39 20
M  V30 44 1 40 20
M  V30 45 1 41 21
M  V30 46 1 42 22
M  V30 47 1 19 43 CFG=1
M  V30 END BOND
M  V30 END CTAB
M  END
>  <b_m_subgroup_collapsed>  (894) 
0

>  <r_i_docking_score>  (894) 
-7.7239789875433598

>  <s_m_subgroup_title>  (894) 
glide-dock_SP_D22_pv

>  <s_m_subgroupid>  (894) 
glide-dock_SP_D22_pv

>  <Molecule ChEMBL ID>  (894) 
CHEMBL201748

>  <Standard Type>  (894) 
Ki

>  <Standard Value>  (894) 
10000.0

>  <label>  (894) 
0

$$$$
CHEMBL6044314
     RDKit          3D

  0  0  0  0  0  0  0  0  0  0999 V3000
M  V30 BEGIN CTAB
M  V30 COUNTS 63 67 0 0 1
M  V30 BEGIN ATOM
M  V30 1 C 9.125273 5.099500 -9.678609 0
M  V30 2 N 9.285806 6.425299 -10.255107 0
M  V30 3 C 8.948271 6.822534 -11.494884 0
M  V30 4 S 8.157465 5.761836 -12.650580 0
M  V30 5 C 9.659620 5.114995 -13.428969 0
M  V30 6 C 9.342389 4.541799 -14.810667 0
M  V30 7 C 10.591230 4.003729 -15.524995 0
M  V30 8 N 10.319700 3.349801 -16.804302 0
M  V30 9 C 9.807343 4.278265 -17.809061 0
M  V30 10 C 9.524670 3.568096 -19.142101 0
M  V30 11 O 10.724930 2.962447 -19.609533 0
M  V30 12 C 11.278428 2.022941 -18.690098 0 CFG=1
M  V30 13 C 12.568879 1.449590 -19.247698 0
M  V30 14 C 13.561271 2.325840 -19.728092 0
M  V30 15 C 14.765253 1.816729 -20.246473 0
M  V30 16 C 14.981010 0.425516 -20.294527 0
M  V30 17 C 16.283453 -0.117219 -20.847685 0
M  V30 18 F 17.154459 -0.228685 -19.845732 0
M  V30 19 F 16.084085 -1.312694 -21.405622 0
M  V30 20 F 16.791275 0.696890 -21.774294 0
M  V30 21 C 13.990894 -0.454178 -19.802813 0
M  V30 22 C 12.788117 0.055872 -19.276873 0
M  V30 23 C 11.522045 2.711373 -17.328440 0
M  V30 24 N 9.282551 8.080410 -11.773015 0
M  V30 25 N 9.816601 8.572037 -10.610071 0
M  V30 26 C 9.773373 7.573837 -9.719882 0
M  V30 27 C 10.227674 7.765432 -8.340563 0
M  V30 28 C 9.674676 7.024337 -7.273883 0
M  V30 29 C 10.163780 7.185814 -5.966799 0
M  V30 30 C 11.167977 8.137645 -5.695882 0
M  V30 31 C 11.686636 8.274564 -4.347758 0
M  V30 32 N 12.090308 9.372336 -3.713627 0
M  V30 33 C 12.482697 8.939711 -2.453351 0
M  V30 34 C 12.310355 7.581124 -2.405312 0
M  V30 35 O 11.795277 7.146809 -3.592547 0
M  V30 36 C 11.686064 8.923951 -6.745278 0
M  V30 37 C 11.235000 8.719956 -8.063513 0
M  V30 38 H 9.254495 4.334934 -10.444084 0
M  V30 39 H 9.870313 4.926531 -8.901176 0
M  V30 40 H 8.125091 5.003482 -9.253216 0
M  V30 41 H 10.391116 5.920161 -13.521606 0
M  V30 42 H 10.098911 4.354136 -12.781199 0
M  V30 43 H 8.600063 3.745661 -14.715435 0
M  V30 44 H 8.884120 5.336128 -15.400708 0
M  V30 45 H 11.309738 4.813776 -15.666521 0
M  V30 46 H 11.074266 3.285412 -14.859325 0
M  V30 47 H 8.886489 4.745899 -17.468262 0
M  V30 48 H 10.521315 5.086407 -17.974329 0
M  V30 49 H 8.745842 2.812284 -19.022709 0
M  V30 50 H 9.169228 4.281113 -19.886276 0
M  V30 51 H 10.563557 1.209939 -18.559559 0
M  V30 52 H 13.398582 3.394031 -19.704481 0
M  V30 53 H 15.518845 2.499436 -20.612772 0
M  V30 54 H 14.157289 -1.522102 -19.822071 0
M  V30 55 H 12.037420 -0.624026 -18.902184 0
M  V30 56 H 12.310076 3.456725 -17.438189 0
M  V30 57 H 11.892486 1.974184 -16.614555 0
M  V30 58 H 8.869272 6.320413 -7.443589 0
M  V30 59 H 9.751520 6.580169 -5.172633 0
M  V30 60 H 12.850373 9.616132 -1.699493 0
M  V30 61 H 12.484349 6.823915 -1.656349 0
M  V30 62 H 12.461621 9.652292 -6.547740 0
M  V30 63 H 11.666586 9.308164 -8.862556 0
M  V30 END ATOM
M  V30 BEGIN BOND
M  V30 1 1 2 1
M  V30 2 1 3 2
M  V30 3 1 4 3
M  V30 4 1 5 4
M  V30 5 1 6 5
M  V30 6 1 7 6
M  V30 7 1 8 7
M  V30 8 1 9 8
M  V30 9 1 10 9
M  V30 10 1 11 10
M  V30 11 1 12 11
M  V30 12 1 13 12
M  V30 13 1 14 13
M  V30 14 2 15 14
M  V30 15 1 16 15
M  V30 16 1 17 16
M  V30 17 1 18 17
M  V30 18 1 19 17
M  V30 19 1 20 17
M  V30 20 2 21 16
M  V30 21 2 22 13
M  V30 22 1 22 21
M  V30 23 1 23 8
M  V30 24 1 23 12
M  V30 25 2 24 3
M  V30 26 1 25 24
M  V30 27 1 26 2
M  V30 28 2 26 25
M  V30 29 1 27 26
M  V30 30 1 28 27
M  V30 31 2 29 28
M  V30 32 1 30 29
M  V30 33 1 31 30
M  V30 34 2 32 31
M  V30 35 1 33 32
M  V30 36 2 34 33
M  V30 37 1 35 31
M  V30 38 1 35 34
M  V30 39 2 36 30
M  V30 40 2 37 27
M  V30 41 1 37 36
M  V30 42 1 38 1
M  V30 43 1 39 1
M  V30 44 1 40 1
M  V30 45 1 41 5
M  V30 46 1 42 5
M  V30 47 1 43 6
M  V30 48 1 44 6
M  V30 49 1 45 7
M  V30 50 1 46 7
M  V30 51 1 47 9
M  V30 52 1 48 9
M  V30 53 1 49 10
M  V30 54 1 50 10
M  V30 55 1 12 51 CFG=1
M  V30 56 1 52 14
M  V30 57 1 53 15
M  V30 58 1 54 21
M  V30 59 1 55 22
M  V30 60 1 56 23
M  V30 61 1 57 23
M  V30 62 1 58 28
M  V30 63 1 59 29
M  V30 64 1 60 33
M  V30 65 1 61 34
M  V30 66 1 62 36
M  V30 67 1 63 37
M  V30 END BOND
M  V30 END CTAB
M  END
>  <b_m_subgroup_collapsed>  (895) 
0

>  <r_i_docking_score>  (895) 
-7.7238534992657497

>  <s_m_subgroup_title>  (895) 
glide-dock_SP_D22_pv

>  <s_m_subgroupid>  (895) 
glide-dock_SP_D22_pv

>  <Molecule ChEMBL ID>  (895) 
CHEMBL6044314

>  <Standard Type>  (895) 
Ki

>  <Standard Value>  (895) 
15488.0

>  <label>  (895) 
0

$$$$
CHEMBL2207487
     RDKit          3D

  0  0  0  0  0  0  0  0  0  0999 V3000
M  V30 BEGIN CTAB
M  V30 COUNTS 40 42 0 0 1
M  V30 BEGIN ATOM
M  V30 1 C 6.864017 4.290015 -12.518158 0
M  V30 2 C 7.285012 5.360587 -11.504638 0
M  V30 3 C 8.200047 4.807914 -10.404361 0
M  V30 4 N 8.645921 5.871541 -9.468368 0 CFG=2 CHG=1
M  V30 5 C 10.054091 6.247458 -9.738456 0
M  V30 6 C 10.538756 7.367015 -8.822694 0
M  V30 7 C 10.424127 6.959229 -7.336288 0 CFG=1
M  V30 8 C 10.863199 8.048985 -6.396486 0
M  V30 9 C 10.796315 9.373528 -6.731623 0
M  V30 10 S 11.285961 10.479653 -5.502846 0
M  V30 11 C 11.632833 9.158423 -4.413337 0
M  V30 12 C 12.092076 9.254853 -3.087587 0
M  V30 13 C 12.320694 8.089178 -2.339931 0
M  V30 14 C 12.085792 6.834961 -2.926353 0
M  V30 15 C 11.620957 6.749259 -4.252861 0
M  V30 16 C 11.366399 7.896421 -5.039692 0
M  V30 17 C 8.964621 6.573596 -7.063755 0
M  V30 18 C 8.451777 5.501429 -8.040731 0
M  V30 19 H 6.212912 4.715740 -13.283432 0
M  V30 20 H 7.728857 3.857563 -13.020417 0
M  V30 21 H 6.317335 3.480689 -12.031032 0
M  V30 22 H 6.384716 5.772282 -11.050492 0
M  V30 23 H 7.776621 6.181892 -12.026998 0
M  V30 24 H 9.056956 4.309285 -10.859296 0
M  V30 25 H 7.686014 4.025023 -9.854774 0
M  V30 26 H 10.174488 6.534295 -10.783807 0
M  V30 27 H 10.669004 5.372294 -9.557254 0
M  V30 28 H 9.932655 8.245878 -9.045306 0
M  V30 29 H 11.571397 7.620821 -9.064060 0
M  V30 30 H 11.051116 6.080557 -7.174564 0
M  V30 31 H 10.451200 9.772302 -7.667433 0
M  V30 32 H 12.270127 10.224070 -2.646380 0
M  V30 33 H 12.670255 8.162529 -1.320590 0
M  V30 34 H 12.252066 5.931453 -2.356054 0
M  V30 35 H 11.429443 5.778293 -4.678950 0
M  V30 36 H 8.871452 6.206622 -6.042203 0
M  V30 37 H 8.329709 7.458324 -7.129493 0
M  V30 38 H 7.391697 5.366578 -7.846981 0
M  V30 39 H 8.948239 4.549944 -7.846887 0
M  V30 40 H 8.043501 6.674431 -9.638191 0
M  V30 END ATOM
M  V30 BEGIN BOND
M  V30 1 1 2 1
M  V30 2 1 3 2
M  V30 3 1 4 3
M  V30 4 1 5 4
M  V30 5 1 6 5
M  V30 6 1 7 6
M  V30 7 1 8 7
M  V30 8 2 9 8
M  V30 9 1 10 9
M  V30 10 1 11 10
M  V30 11 2 12 11
M  V30 12 1 13 12
M  V30 13 2 14 13
M  V30 14 1 15 14
M  V30 15 1 16 8
M  V30 16 1 16 11
M  V30 17 2 16 15
M  V30 18 1 17 7
M  V30 19 1 18 4
M  V30 20 1 18 17
M  V30 21 1 19 1
M  V30 22 1 20 1
M  V30 23 1 21 1
M  V30 24 1 22 2
M  V30 25 1 23 2
M  V30 26 1 24 3
M  V30 27 1 25 3
M  V30 28 1 26 5
M  V30 29 1 27 5
M  V30 30 1 28 6
M  V30 31 1 29 6
M  V30 32 1 7 30 CFG=3
M  V30 33 1 31 9
M  V30 34 1 32 12
M  V30 35 1 33 13
M  V30 36 1 34 14
M  V30 37 1 35 15
M  V30 38 1 36 17
M  V30 39 1 37 17
M  V30 40 1 38 18
M  V30 41 1 39 18
M  V30 42 1 4 40 CFG=3
M  V30 END BOND
M  V30 END CTAB
M  END
>  <b_m_subgroup_collapsed>  (896) 
0

>  <r_i_docking_score>  (896) 
-7.7235040708353502

>  <s_m_subgroup_title>  (896) 
glide-dock_SP_D22_pv

>  <s_m_subgroupid>  (896) 
glide-dock_SP_D22_pv

>  <Molecule ChEMBL ID>  (896) 
CHEMBL2207487

>  <Standard Type>  (896) 
Ki

>  <Standard Value>  (896) 
26.0

>  <label>  (896) 
1

$$$$
CHEMBL29529
     RDKit          3D

  0  0  0  0  0  0  0  0  0  0999 V3000
M  V30 BEGIN CTAB
M  V30 COUNTS 52 55 0 0 1
M  V30 BEGIN ATOM
M  V30 1 O 10.947344 6.882572 -12.595857 0
M  V30 2 C 9.835563 6.476240 -12.252660 0
M  V30 3 N 9.067585 7.196416 -11.416828 0
M  V30 4 C 9.358193 8.572233 -11.025519 0
M  V30 5 C 10.596530 8.679695 -10.120960 0
M  V30 6 N 10.288456 8.057910 -8.840138 0
M  V30 7 C 11.448963 7.324271 -8.344362 0
M  V30 8 C 11.123680 6.631281 -7.004951 0
M  V30 9 N 10.633627 7.621556 -6.057588 0
M  V30 10 C 11.286131 7.869493 -4.840789 0
M  V30 11 C 11.495262 9.183587 -4.366326 0
M  V30 12 C 12.086200 9.397709 -3.106211 0
M  V30 13 C 12.484607 8.307375 -2.312140 0
M  V30 14 C 12.277379 6.997100 -2.776063 0
M  V30 15 C 11.686134 6.782864 -4.034763 0
M  V30 16 C 9.533170 8.446199 -6.539012 0
M  V30 17 C 9.905875 9.084253 -7.876276 0
M  V30 18 C 9.215793 5.215491 -12.843285 0
M  V30 19 C 7.819433 5.020706 -12.717583 0
M  V30 20 C 7.167722 3.926655 -13.306522 0
M  V30 21 Br 5.286094 3.770350 -13.046417 0
M  V30 22 C 7.899882 2.972449 -14.045823 0
M  V30 23 C 7.256944 1.856065 -14.632438 0
M  V30 24 C 7.997309 0.885176 -15.329771 0
M  V30 25 C 9.387637 1.030904 -15.463207 0
M  V30 26 C 10.032481 2.146257 -14.897232 0
M  V30 27 C 9.304338 3.128001 -14.178459 0
M  V30 28 C 9.958532 4.249125 -13.595710 0
M  V30 29 O 11.311041 4.373175 -13.793567 0 CHG=-1
M  V30 30 H 8.165020 6.840383 -11.124420 0
M  V30 31 H 8.485820 8.988333 -10.526406 0
M  V30 32 H 9.496902 9.157757 -11.932843 0
M  V30 33 H 10.897870 9.719416 -9.982966 0
M  V30 34 H 11.450388 8.198775 -10.595664 0
M  V30 35 H 12.310764 7.985494 -8.240217 0
M  V30 36 H 11.685986 6.572796 -9.094850 0
M  V30 37 H 12.009815 6.119873 -6.629316 0
M  V30 38 H 10.354906 5.871019 -7.151978 0
M  V30 39 H 11.199735 10.036505 -4.959944 0
M  V30 40 H 12.223819 10.403069 -2.738767 0
M  V30 41 H 12.927868 8.480124 -1.342895 0
M  V30 42 H 12.561440 6.151238 -2.166605 0
M  V30 43 H 11.507936 5.772326 -4.368395 0
M  V30 44 H 8.640893 7.826599 -6.649392 0
M  V30 45 H 9.286081 9.241389 -5.846880 0
M  V30 46 H 10.738043 9.772244 -7.726126 0
M  V30 47 H 9.057062 9.655132 -8.254676 0
M  V30 48 H 7.200240 5.721158 -12.176145 0
M  V30 49 H 6.190959 1.714378 -14.541778 0
M  V30 50 H 7.499523 0.027170 -15.759258 0
M  V30 51 H 9.963490 0.288420 -15.995540 0
M  V30 52 H 11.103418 2.229069 -15.009778 0
M  V30 END ATOM
M  V30 BEGIN BOND
M  V30 1 2 2 1
M  V30 2 1 3 2
M  V30 3 1 4 3
M  V30 4 1 5 4
M  V30 5 1 6 5
M  V30 6 1 7 6
M  V30 7 1 8 7
M  V30 8 1 9 8
M  V30 9 1 10 9
M  V30 10 2 11 10
M  V30 11 1 12 11
M  V30 12 2 13 12
M  V30 13 1 14 13
M  V30 14 1 15 10
M  V30 15 2 15 14
M  V30 16 1 16 9
M  V30 17 1 17 6
M  V30 18 1 17 16
M  V30 19 1 18 2
M  V30 20 1 19 18
M  V30 21 2 20 19
M  V30 22 1 21 20
M  V30 23 1 22 20
M  V30 24 2 23 22
M  V30 25 1 24 23
M  V30 26 2 25 24
M  V30 27 1 26 25
M  V30 28 1 27 22
M  V30 29 2 27 26
M  V30 30 2 28 18
M  V30 31 1 28 27
M  V30 32 1 29 28
M  V30 33 1 30 3
M  V30 34 1 31 4
M  V30 35 1 32 4
M  V30 36 1 33 5
M  V30 37 1 34 5
M  V30 38 1 35 7
M  V30 39 1 36 7
M  V30 40 1 37 8
M  V30 41 1 38 8
M  V30 42 1 39 11
M  V30 43 1 40 12
M  V30 44 1 41 13
M  V30 45 1 42 14
M  V30 46 1 43 15
M  V30 47 1 44 16
M  V30 48 1 45 16
M  V30 49 1 46 17
M  V30 50 1 47 17
M  V30 51 1 48 19
M  V30 52 1 49 23
M  V30 53 1 50 24
M  V30 54 1 51 25
M  V30 55 1 52 26
M  V30 END BOND
M  V30 END CTAB
M  END
>  <b_m_subgroup_collapsed>  (897) 
0

>  <r_i_docking_score>  (897) 
-7.7227671027750198

>  <s_m_subgroup_title>  (897) 
glide-dock_SP_D22_pv

>  <s_m_subgroupid>  (897) 
glide-dock_SP_D22_pv

>  <Molecule ChEMBL ID>  (897) 
CHEMBL29529

>  <Standard Type>  (897) 
Ki

>  <Standard Value>  (897) 
10000.0

>  <label>  (897) 
0

$$$$
CHEMBL378515
     RDKit          3D

  0  0  0  0  0  0  0  0  0  0999 V3000
M  V30 BEGIN CTAB
M  V30 COUNTS 46 49 0 0 1
M  V30 BEGIN ATOM
M  V30 1 C 11.882278 10.701102 -6.260655 0
M  V30 2 O 10.938848 10.342999 -5.273916 0
M  V30 3 C 11.286097 9.181121 -4.639297 0
M  V30 4 C 11.865683 9.298881 -3.361170 0
M  V30 5 C 12.261778 8.154550 -2.650028 0
M  V30 6 C 12.077974 6.886112 -3.222982 0
M  V30 7 C 11.498443 6.763422 -4.501801 0
M  V30 8 C 11.075546 7.900624 -5.228396 0
M  V30 9 N 10.442845 7.756405 -6.485919 0
M  V30 10 C 9.158659 8.398554 -6.722789 0
M  V30 11 C 9.058826 8.835473 -8.191414 0
M  V30 12 N 9.286151 7.711209 -9.137950 0 CHG=1
M  V30 13 C 9.340811 8.206366 -10.540215 0
M  V30 14 C 9.422860 7.083392 -11.529804 0
M  V30 15 C 8.463901 6.162282 -11.847541 0
M  V30 16 N 9.036206 5.292447 -12.756429 0
M  V30 17 N 8.425230 4.212338 -13.306915 0
M  V30 18 C 9.230633 3.531785 -14.119063 0
M  V30 19 Cl 8.566803 2.123007 -14.861358 0
M  V30 20 C 10.573342 3.864930 -14.430727 0
M  V30 21 C 11.142982 4.979141 -13.860907 0
M  V30 22 C 10.359498 5.750244 -12.967251 0
M  V30 23 N 10.595669 6.837805 -12.236865 0
M  V30 24 C 10.495267 6.896204 -8.793409 0
M  V30 25 C 10.634320 6.560063 -7.294738 0
M  V30 26 H 11.684653 11.700807 -6.644742 0
M  V30 27 H 12.886058 10.694448 -5.846992 0
M  V30 28 H 11.856374 9.995646 -7.087892 0
M  V30 29 H 12.009078 10.277879 -2.923578 0
M  V30 30 H 12.700095 8.252687 -1.668230 0
M  V30 31 H 12.373628 6.000473 -2.680719 0
M  V30 32 H 11.350762 5.772348 -4.899439 0
M  V30 33 H 8.357065 7.696602 -6.490982 0
M  V30 34 H 9.015338 9.250526 -6.068276 0
M  V30 35 H 8.089399 9.298128 -8.378634 0
M  V30 36 H 9.811293 9.599945 -8.379463 0
M  V30 37 H 8.479759 8.833412 -10.755999 0
M  V30 38 H 10.205867 8.862548 -10.650838 0
M  V30 39 H 7.441968 6.030011 -11.511971 0
M  V30 40 H 11.149697 3.243342 -15.109536 0
M  V30 41 H 12.169066 5.265810 -14.066546 0
M  V30 42 H 10.496260 5.966605 -9.363773 0
M  V30 43 H 11.386158 7.448749 -9.100077 0
M  V30 44 H 11.617917 6.125538 -7.113879 0
M  V30 45 H 9.895341 5.810643 -7.008160 0
M  V30 46 H 8.465318 7.117708 -9.074409 0
M  V30 END ATOM
M  V30 BEGIN BOND
M  V30 1 1 2 1
M  V30 2 1 3 2
M  V30 3 2 4 3
M  V30 4 1 5 4
M  V30 5 2 6 5
M  V30 6 1 7 6
M  V30 7 1 8 3
M  V30 8 2 8 7
M  V30 9 1 9 8
M  V30 10 1 10 9
M  V30 11 1 11 10
M  V30 12 1 12 11
M  V30 13 1 13 12
M  V30 14 1 14 13
M  V30 15 2 15 14
M  V30 16 1 16 15
M  V30 17 1 17 16
M  V30 18 2 18 17
M  V30 19 1 19 18
M  V30 20 1 20 18
M  V30 21 2 21 20
M  V30 22 1 22 16
M  V30 23 1 22 21
M  V30 24 1 23 14
M  V30 25 2 23 22
M  V30 26 1 24 12
M  V30 27 1 25 9
M  V30 28 1 25 24
M  V30 29 1 26 1
M  V30 30 1 27 1
M  V30 31 1 28 1
M  V30 32 1 29 4
M  V30 33 1 30 5
M  V30 34 1 31 6
M  V30 35 1 32 7
M  V30 36 1 33 10
M  V30 37 1 34 10
M  V30 38 1 35 11
M  V30 39 1 36 11
M  V30 40 1 37 13
M  V30 41 1 38 13
M  V30 42 1 39 15
M  V30 43 1 40 20
M  V30 44 1 41 21
M  V30 45 1 42 24
M  V30 46 1 43 24
M  V30 47 1 44 25
M  V30 48 1 45 25
M  V30 49 1 46 12
M  V30 END BOND
M  V30 END CTAB
M  END
>  <b_m_subgroup_collapsed>  (898) 
0

>  <r_i_docking_score>  (898) 
-7.7221871313655202

>  <s_m_subgroup_title>  (898) 
glide-dock_SP_D22_pv

>  <s_m_subgroupid>  (898) 
glide-dock_SP_D22_pv

>  <Molecule ChEMBL ID>  (898) 
CHEMBL378515

>  <Standard Type>  (898) 
Ki

>  <Standard Value>  (898) 
79.0

>  <label>  (898) 
1

$$$$
CHEMBL4526351
     RDKit          3D

  0  0  0  0  0  0  0  0  0  0999 V3000
M  V30 BEGIN CTAB
M  V30 COUNTS 54 58 0 0 1
M  V30 BEGIN ATOM
M  V30 1 C 13.252369 6.520384 -16.022854 0
M  V30 2 C 12.228054 5.612446 -15.375330 0
M  V30 3 C 11.641636 5.984274 -14.150834 0
M  V30 4 C 10.680359 5.147536 -13.532359 0
M  V30 5 N 10.085997 5.447903 -12.278705 0
M  V30 6 C 10.015982 6.641473 -11.662281 0
M  V30 7 O 10.187584 7.729631 -12.207564 0
M  V30 8 C 9.762424 6.570597 -10.187840 0
M  V30 9 C 8.883523 5.610397 -9.641841 0
M  V30 10 C 8.664162 5.566362 -8.253488 0
M  V30 11 C 9.312220 6.477707 -7.402930 0
M  V30 12 C 10.203990 7.430237 -7.938014 0
M  V30 13 S 11.090617 8.559274 -6.848901 0
M  V30 14 F 12.485691 8.188837 -7.578329 0
M  V30 15 F 9.708302 8.974117 -6.117315 0
M  V30 16 F 11.886326 9.576385 -5.879048 0
M  V30 17 F 10.885804 9.771659 -7.891594 0
M  V30 18 F 11.343793 7.383705 -5.763843 0
M  V30 19 C 10.419089 7.479407 -9.330769 0
M  V30 20 C 10.355963 3.912878 -14.130794 0
M  V30 21 C 10.927032 3.539957 -15.368760 0
M  V30 22 N 10.568950 2.322377 -15.999352 0
M  V30 23 C 11.334851 1.546041 -16.846933 0
M  V30 24 C 10.586631 0.404309 -17.319859 0
M  V30 25 N 9.395825 0.544546 -16.719725 0
M  V30 26 N 8.249354 -0.140858 -16.724913 0
M  V30 27 C 7.495433 0.573663 -15.844375 0
M  V30 28 C 6.154880 0.093638 -15.496891 0
M  V30 29 C 5.370327 -0.646593 -16.406164 0
M  V30 30 C 4.080012 -1.060743 -16.021641 0
M  V30 31 C 3.623871 -0.724316 -14.734363 0
M  V30 32 N 4.365420 -0.031957 -13.845522 0
M  V30 33 C 5.600683 0.364382 -14.227345 0
M  V30 34 C 8.149282 1.760430 -15.327699 0
M  V30 35 C 9.405060 1.631093 -15.963042 0
M  V30 36 C 11.860907 4.397984 -15.987213 0
M  V30 37 H 13.874596 5.973639 -16.731289 0
M  V30 38 H 12.750695 7.329689 -16.556461 0
M  V30 39 H 13.906654 6.958653 -15.268969 0
M  V30 40 H 11.953424 6.914473 -13.694719 0
M  V30 41 H 9.780470 4.654958 -11.735897 0
M  V30 42 H 8.348685 4.915196 -10.272213 0
M  V30 43 H 7.973989 4.843456 -7.846791 0
M  V30 44 H 9.119057 6.438354 -6.339526 0
M  V30 45 H 11.100623 8.204538 -9.749022 0
M  V30 46 H 9.669802 3.248639 -13.625277 0
M  V30 47 H 12.352852 1.841756 -17.062767 0
M  V30 48 H 10.806754 -0.424103 -17.982569 0
M  V30 49 H 5.743709 -0.892456 -17.390017 0
M  V30 50 H 3.457539 -1.634565 -16.692602 0
M  V30 51 H 2.641448 -1.025319 -14.404275 0
M  V30 52 H 6.158789 0.922166 -13.487448 0
M  V30 53 H 7.852717 2.542962 -14.646989 0
M  V30 54 H 12.306814 4.134950 -16.936304 0
M  V30 END ATOM
M  V30 BEGIN BOND
M  V30 1 1 2 1
M  V30 2 2 3 2
M  V30 3 1 4 3
M  V30 4 1 5 4
M  V30 5 1 6 5
M  V30 6 2 7 6
M  V30 7 1 8 6
M  V30 8 1 9 8
M  V30 9 2 10 9
M  V30 10 1 11 10
M  V30 11 2 12 11
M  V30 12 1 13 12
M  V30 13 1 14 13
M  V30 14 1 15 13
M  V30 15 1 16 13
M  V30 16 1 17 13
M  V30 17 1 18 13
M  V30 18 2 19 8
M  V30 19 1 19 12
M  V30 20 2 20 4
M  V30 21 1 21 20
M  V30 22 1 22 21
M  V30 23 1 23 22
M  V30 24 2 24 23
M  V30 25 1 25 24
M  V30 26 1 26 25
M  V30 27 2 27 26
M  V30 28 1 28 27
M  V30 29 2 29 28
M  V30 30 1 30 29
M  V30 31 2 31 30
M  V30 32 1 32 31
M  V30 33 1 33 28
M  V30 34 2 33 32
M  V30 35 1 34 27
M  V30 36 1 35 22
M  V30 37 1 35 25
M  V30 38 2 35 34
M  V30 39 1 36 2
M  V30 40 2 36 21
M  V30 41 1 37 1
M  V30 42 1 38 1
M  V30 43 1 39 1
M  V30 44 1 40 3
M  V30 45 1 41 5
M  V30 46 1 42 9
M  V30 47 1 43 10
M  V30 48 1 44 11
M  V30 49 1 45 19
M  V30 50 1 46 20
M  V30 51 1 47 23
M  V30 52 1 48 24
M  V30 53 1 49 29
M  V30 54 1 50 30
M  V30 55 1 51 31
M  V30 56 1 52 33
M  V30 57 1 53 34
M  V30 58 1 54 36
M  V30 END BOND
M  V30 END CTAB
M  END
>  <b_m_subgroup_collapsed>  (899) 
0

>  <r_i_docking_score>  (899) 
-7.7218256616396097

>  <s_m_subgroup_title>  (899) 
glide-dock_SP_D22_pv

>  <s_m_subgroupid>  (899) 
glide-dock_SP_D22_pv

>  <Molecule ChEMBL ID>  (899) 
CHEMBL4526351

>  <Standard Type>  (899) 
Ki

>  <Standard Value>  (899) 
10000.0

>  <label>  (899) 
0

$$$$
CHEMBL5789483
     RDKit          3D

  0  0  0  0  0  0  0  0  0  0999 V3000
M  V30 BEGIN CTAB
M  V30 COUNTS 58 60 0 0 1
M  V30 BEGIN ATOM
M  V30 1 C 12.292480 7.081222 -14.345260 0
M  V30 2 C 12.202124 5.632721 -13.848225 0
M  V30 3 N 10.805749 5.233237 -13.610882 0
M  V30 4 C 10.103817 5.854614 -12.469199 0
M  V30 5 C 9.385756 4.821582 -11.574107 0
M  V30 6 C 8.625687 5.431724 -10.379550 0
M  V30 7 N 9.546503 6.044264 -9.420055 0
M  V30 8 C 9.508654 7.505825 -9.555768 0
M  V30 9 C 10.593181 8.133241 -8.658824 0
M  V30 10 N 10.398359 7.730047 -7.268825 0
M  V30 11 C 10.884827 8.559171 -6.242195 0
M  V30 12 N 10.885857 9.883606 -6.355693 0
M  V30 13 O 11.286099 10.415859 -5.105072 0
M  V30 14 C 11.621305 9.384699 -4.246333 0
M  V30 15 C 12.089842 9.410184 -2.928503 0
M  V30 16 C 12.384332 8.184455 -2.306539 0
M  V30 17 F 12.885899 8.172717 -1.049596 0
M  V30 18 C 12.173841 6.972111 -3.001529 0
M  V30 19 C 11.680758 6.970747 -4.326861 0
M  V30 20 C 11.389129 8.204328 -4.959533 0
M  V30 21 C 10.160357 6.312155 -7.046494 0
M  V30 22 C 9.127133 5.752779 -8.046104 0
M  V30 23 S 9.912691 4.509055 -14.903351 0
M  V30 24 O 10.502925 4.967555 -16.170399 0
M  V30 25 O 8.486531 4.733837 -14.632172 0
M  V30 26 C 10.300503 2.714931 -14.667207 0 CFG=2
M  V30 27 C 11.245061 2.223583 -15.778729 0
M  V30 28 C 8.999207 1.901650 -14.606072 0
M  V30 29 O 9.284889 0.570167 -14.246896 0
M  V30 30 H 13.329427 7.363062 -14.527605 0
M  V30 31 H 11.742860 7.220132 -15.276584 0
M  V30 32 H 11.887178 7.773089 -13.609022 0
M  V30 33 H 12.783942 5.516573 -12.936576 0
M  V30 34 H 12.652423 4.958402 -14.577279 0
M  V30 35 H 10.823063 6.414735 -11.872904 0
M  V30 36 H 9.381321 6.576247 -12.848064 0
M  V30 37 H 8.661970 4.263649 -12.165464 0
M  V30 38 H 10.086118 4.074874 -11.206724 0
M  V30 39 H 7.861176 6.136283 -10.713025 0
M  V30 40 H 8.087887 4.615158 -9.897056 0
M  V30 41 H 9.679482 7.804343 -10.588856 0
M  V30 42 H 8.518243 7.886632 -9.288010 0
M  V30 43 H 11.584444 7.816842 -8.986091 0
M  V30 44 H 10.555130 9.217384 -8.766583 0
M  V30 45 H 12.233763 10.345637 -2.412166 0
M  V30 46 H 12.400055 6.033562 -2.516653 0
M  V30 47 H 11.546703 6.027297 -4.831287 0
M  V30 48 H 11.104755 5.773200 -7.124707 0
M  V30 49 H 9.764599 6.172367 -6.041446 0
M  V30 50 H 8.137587 6.172708 -7.852489 0
M  V30 51 H 9.044559 4.675661 -7.896959 0
M  V30 52 H 10.806117 2.635122 -13.705087 0
M  V30 53 H 11.522534 1.179699 -15.635193 0
M  V30 54 H 10.777838 2.307528 -16.759871 0
M  V30 55 H 12.165907 2.806273 -15.798237 0
M  V30 56 H 8.481636 1.920735 -15.565509 0
M  V30 57 H 8.317590 2.310142 -13.859417 0
M  V30 58 H 9.593503 0.572550 -13.343588 0
M  V30 END ATOM
M  V30 BEGIN BOND
M  V30 1 1 2 1
M  V30 2 1 3 2
M  V30 3 1 4 3
M  V30 4 1 5 4
M  V30 5 1 6 5
M  V30 6 1 7 6
M  V30 7 1 8 7
M  V30 8 1 9 8
M  V30 9 1 10 9
M  V30 10 1 11 10
M  V30 11 2 12 11
M  V30 12 1 13 12
M  V30 13 1 14 13
M  V30 14 1 15 14
M  V30 15 2 16 15
M  V30 16 1 17 16
M  V30 17 1 18 16
M  V30 18 2 19 18
M  V30 19 1 20 11
M  V30 20 2 20 14
M  V30 21 1 20 19
M  V30 22 1 21 10
M  V30 23 1 22 7
M  V30 24 1 22 21
M  V30 25 1 23 3
M  V30 26 2 24 23
M  V30 27 2 25 23
M  V30 28 1 26 23
M  V30 29 1 27 26
M  V30 30 1 28 26
M  V30 31 1 29 28
M  V30 32 1 30 1
M  V30 33 1 31 1
M  V30 34 1 32 1
M  V30 35 1 33 2
M  V30 36 1 34 2
M  V30 37 1 35 4
M  V30 38 1 36 4
M  V30 39 1 37 5
M  V30 40 1 38 5
M  V30 41 1 39 6
M  V30 42 1 40 6
M  V30 43 1 41 8
M  V30 44 1 42 8
M  V30 45 1 43 9
M  V30 46 1 44 9
M  V30 47 1 45 15
M  V30 48 1 46 18
M  V30 49 1 47 19
M  V30 50 1 48 21
M  V30 51 1 49 21
M  V30 52 1 50 22
M  V30 53 1 51 22
M  V30 54 1 26 52 CFG=1
M  V30 55 1 53 27
M  V30 56 1 54 27
M  V30 57 1 55 27
M  V30 58 1 56 28
M  V30 59 1 57 28
M  V30 60 1 58 29
M  V30 END BOND
M  V30 END CTAB
M  END
>  <b_m_subgroup_collapsed>  (900) 
0

>  <r_i_docking_score>  (900) 
-7.7209766934899102

>  <s_m_subgroup_title>  (900) 
glide-dock_SP_D22_pv

>  <s_m_subgroupid>  (900) 
glide-dock_SP_D22_pv

>  <Molecule ChEMBL ID>  (900) 
CHEMBL5789483

>  <Standard Type>  (900) 
Ki

>  <Standard Value>  (900) 
78.0

>  <label>  (900) 
1

$$$$
CHEMBL3321791
     RDKit          3D

  0  0  0  0  0  0  0  0  0  0999 V3000
M  V30 BEGIN CTAB
M  V30 COUNTS 53 56 0 0 1
M  V30 BEGIN ATOM
M  V30 1 O 11.686021 9.372272 -7.735685 0
M  V30 2 C 10.903767 8.325029 -7.212557 0 CFG=1
M  V30 3 C 11.117713 8.324775 -5.697790 0
M  V30 4 C 11.258572 9.571337 -5.042718 0
M  V30 5 C 11.685990 9.628680 -3.710213 0
M  V30 6 C 11.978218 8.448932 -3.020854 0
M  V30 7 Cl 12.627261 8.572327 -1.446864 0
M  V30 8 C 11.746277 7.197267 -3.615397 0
M  V30 9 C 11.292461 7.135523 -4.945846 0
M  V30 10 C 9.446735 8.640561 -7.612826 0
M  V30 11 C 9.114256 8.309649 -9.088847 0 CFG=1
M  V30 12 C 10.026496 8.979391 -10.130280 0
M  V30 13 C 11.227487 8.029485 -10.311533 0
M  V30 14 C 10.880767 6.870436 -9.373343 0 CFG=1
M  V30 15 C 11.407519 7.038886 -7.918694 0
M  V30 16 N 9.414820 6.907877 -9.395464 0 CFG=1 CHG=1
M  V30 17 C 8.676294 5.810046 -8.747705 0
M  V30 18 C 8.582773 4.596522 -9.693872 0
M  V30 19 C 7.786365 4.862946 -10.997167 0
M  V30 20 S 8.703138 5.816172 -12.249347 0
M  V30 21 C 9.696245 4.714026 -13.204847 0
M  V30 22 C 11.005596 5.100717 -13.552384 0
M  V30 23 C 11.801721 4.257145 -14.350625 0
M  V30 24 C 11.285130 3.029576 -14.809108 0
M  V30 25 C 9.974255 2.645063 -14.468859 0
M  V30 26 F 9.476519 1.468958 -14.918247 0
M  V30 27 C 9.176992 3.488740 -13.671436 0
M  V30 28 H 11.622373 9.369803 -8.678426 0
M  V30 29 H 11.098325 10.497524 -5.575728 0
M  V30 30 H 11.826981 10.572326 -3.212181 0
M  V30 31 H 11.938478 6.287428 -3.064834 0
M  V30 32 H 11.156656 6.154892 -5.367345 0
M  V30 33 H 8.759081 8.088288 -6.969531 0
M  V30 34 H 9.245082 9.694837 -7.446862 0
M  V30 35 H 8.086938 8.603125 -9.269928 0
M  V30 36 H 10.327071 9.982173 -9.843337 0
M  V30 37 H 9.487823 9.049199 -11.077446 0
M  V30 38 H 12.196118 8.484524 -10.101015 0
M  V30 39 H 11.262567 7.681081 -11.344762 0
M  V30 40 H 11.202094 5.933584 -9.787981 0
M  V30 41 H 12.492446 7.013501 -7.847573 0
M  V30 42 H 11.092279 6.144213 -7.394647 0
M  V30 43 H 9.101110 5.523737 -7.788311 0
M  V30 44 H 7.686021 6.166408 -8.524115 0
M  V30 45 H 9.573001 4.205338 -9.930791 0
M  V30 46 H 8.085810 3.807048 -9.128989 0
M  V30 47 H 7.447761 3.923893 -11.431619 0
M  V30 48 H 6.886123 5.435688 -10.781713 0
M  V30 49 H 11.401897 6.046909 -13.214512 0
M  V30 50 H 12.805833 4.554391 -14.616413 0
M  V30 51 H 11.892132 2.383369 -15.426611 0
M  V30 52 H 8.164874 3.193093 -13.443402 0
M  V30 53 H 9.138490 6.817843 -10.366334 0
M  V30 END ATOM
M  V30 BEGIN BOND
M  V30 1 1 2 1 CFG=3
M  V30 2 1 3 2
M  V30 3 1 4 3
M  V30 4 2 5 4
M  V30 5 1 6 5
M  V30 6 1 7 6
M  V30 7 2 8 6
M  V30 8 2 9 3
M  V30 9 1 9 8
M  V30 10 1 10 2
M  V30 11 1 11 10
M  V30 12 1 12 11
M  V30 13 1 13 12
M  V30 14 1 14 13
M  V30 15 1 15 2
M  V30 16 1 15 14
M  V30 17 1 16 11
M  V30 18 1 16 14
M  V30 19 1 17 16
M  V30 20 1 18 17
M  V30 21 1 19 18
M  V30 22 1 20 19
M  V30 23 1 21 20
M  V30 24 2 22 21
M  V30 25 1 23 22
M  V30 26 2 24 23
M  V30 27 1 25 24
M  V30 28 1 26 25
M  V30 29 1 27 21
M  V30 30 2 27 25
M  V30 31 1 28 1
M  V30 32 1 29 4
M  V30 33 1 30 5
M  V30 34 1 31 8
M  V30 35 1 32 9
M  V30 36 1 33 10
M  V30 37 1 34 10
M  V30 38 1 11 35 CFG=3
M  V30 39 1 36 12
M  V30 40 1 37 12
M  V30 41 1 38 13
M  V30 42 1 39 13
M  V30 43 1 14 40 CFG=3
M  V30 44 1 41 15
M  V30 45 1 42 15
M  V30 46 1 43 17
M  V30 47 1 44 17
M  V30 48 1 45 18
M  V30 49 1 46 18
M  V30 50 1 47 19
M  V30 51 1 48 19
M  V30 52 1 49 22
M  V30 53 1 50 23
M  V30 54 1 51 24
M  V30 55 1 52 27
M  V30 56 1 16 53 CFG=3
M  V30 END BOND
M  V30 END CTAB
M  END
>  <b_m_subgroup_collapsed>  (901) 
0

>  <r_i_docking_score>  (901) 
-7.72008892582505

>  <s_m_subgroup_title>  (901) 
glide-dock_SP_D22_pv

>  <s_m_subgroupid>  (901) 
glide-dock_SP_D22_pv

>  <Molecule ChEMBL ID>  (901) 
CHEMBL3321791

>  <Standard Type>  (901) 
Ki

>  <Standard Value>  (901) 
27.0

>  <label>  (901) 
1

$$$$
CHEMBL5079536
     RDKit          3D

  0  0  0  0  0  0  0  0  0  0999 V3000
M  V30 BEGIN CTAB
M  V30 COUNTS 60 64 0 0 1
M  V30 BEGIN ATOM
M  V30 1 C 8.116683 1.396736 -18.230169 0
M  V30 2 C 7.564847 0.910632 -16.919333 0
M  V30 3 C 8.178554 1.094619 -15.697705 0
M  V30 4 S 9.760534 1.884354 -15.427381 0
M  V30 5 O 10.741837 0.789589 -15.395048 0
M  V30 6 O 9.884959 2.989973 -16.390701 0
M  V30 7 N 9.701044 2.572727 -13.846905 0
M  V30 8 C 9.260334 3.955175 -13.600843 0 CFG=1
M  V30 9 C 7.741707 4.131488 -13.704962 0
M  V30 10 C 7.256773 4.571662 -12.318332 0 CFG=2
M  V30 11 C 6.083458 5.555820 -12.413367 0
M  V30 12 N 8.445194 5.162551 -11.667735 0 CFG=1 CHG=1
M  V30 13 C 8.377083 5.266741 -10.189369 0
M  V30 14 C 9.533818 6.101063 -9.613786 0
M  V30 15 C 9.289604 6.527013 -8.152550 0
M  V30 16 C 10.225237 7.611655 -7.686913 0
M  V30 17 N 10.443893 8.676475 -8.458130 0
M  V30 18 O 11.285891 9.560656 -7.734376 0
M  V30 19 C 11.526378 9.052893 -6.475812 0
M  V30 20 C 12.209020 9.589567 -5.380085 0
M  V30 21 C 12.270198 8.811467 -4.205022 0
M  V30 22 F 12.883694 9.301174 -3.102739 0
M  V30 23 C 11.685965 7.522521 -4.172218 0
M  V30 24 C 10.977880 7.018405 -5.290001 0
M  V30 25 C 10.892416 7.808950 -6.455739 0
M  V30 26 C 9.623560 4.438868 -12.189752 0
M  V30 27 S 7.314068 0.416736 -14.345355 0
M  V30 28 C 6.084914 -0.233171 -15.414964 0
M  V30 29 C 4.981474 -1.034741 -15.062235 0
M  V30 30 C 4.125920 -1.529016 -16.061689 0
M  V30 31 C 4.364189 -1.195477 -17.405085 0
M  V30 32 Cl 3.350052 -1.828098 -18.646957 0
M  V30 33 C 5.450180 -0.369547 -17.748486 0
M  V30 34 C 6.357824 0.117005 -16.776747 0
M  V30 35 H 7.564446 1.002172 -19.082417 0
M  V30 36 H 8.083085 2.483963 -18.295191 0
M  V30 37 H 9.155821 1.091209 -18.356651 0
M  V30 38 H 9.685555 1.901519 -13.072155 0
M  V30 39 H 9.743689 4.604393 -14.332857 0
M  V30 40 H 7.553734 4.927259 -14.424015 0
M  V30 41 H 7.209670 3.249859 -14.059317 0
M  V30 42 H 6.947007 3.692549 -11.751503 0
M  V30 43 H 5.286169 5.140625 -13.029255 0
M  V30 44 H 5.656378 5.771913 -11.434729 0
M  V30 45 H 6.380219 6.506391 -12.857940 0
M  V30 46 H 7.446765 5.771680 -9.941586 0
M  V30 47 H 8.333953 4.281070 -9.725042 0
M  V30 48 H 10.484836 5.573926 -9.693406 0
M  V30 49 H 9.624408 6.993869 -10.234464 0
M  V30 50 H 8.268207 6.886687 -8.038260 0
M  V30 51 H 9.371262 5.656200 -7.502353 0
M  V30 52 H 12.658338 10.570360 -5.447229 0
M  V30 53 H 11.748484 6.932067 -3.269140 0
M  V30 54 H 10.495397 6.055824 -5.238815 0
M  V30 55 H 9.857042 3.595682 -11.535995 0
M  V30 56 H 10.485833 5.100697 -12.211924 0
M  V30 57 H 4.822408 -1.309039 -14.032381 0
M  V30 58 H 3.312301 -2.203592 -15.813881 0
M  V30 59 H 5.609671 -0.142523 -18.791609 0
M  V30 60 H 8.501125 6.109049 -12.017707 0
M  V30 END ATOM
M  V30 BEGIN BOND
M  V30 1 1 2 1
M  V30 2 2 3 2
M  V30 3 1 4 3
M  V30 4 2 5 4
M  V30 5 2 6 4
M  V30 6 1 7 4
M  V30 7 1 8 7
M  V30 8 1 9 8
M  V30 9 1 10 9
M  V30 10 1 11 10
M  V30 11 1 12 10
M  V30 12 1 13 12
M  V30 13 1 14 13
M  V30 14 1 15 14
M  V30 15 1 16 15
M  V30 16 2 17 16
M  V30 17 1 18 17
M  V30 18 1 19 18
M  V30 19 1 20 19
M  V30 20 2 21 20
M  V30 21 1 22 21
M  V30 22 1 23 21
M  V30 23 2 24 23
M  V30 24 1 25 16
M  V30 25 2 25 19
M  V30 26 1 25 24
M  V30 27 1 26 8
M  V30 28 1 26 12
M  V30 29 1 27 3
M  V30 30 1 28 27
M  V30 31 1 29 28
M  V30 32 2 30 29
M  V30 33 1 31 30
M  V30 34 1 32 31
M  V30 35 2 33 31
M  V30 36 1 34 2
M  V30 37 2 34 28
M  V30 38 1 34 33
M  V30 39 1 35 1
M  V30 40 1 36 1
M  V30 41 1 37 1
M  V30 42 1 38 7
M  V30 43 1 8 39 CFG=3
M  V30 44 1 40 9
M  V30 45 1 41 9
M  V30 46 1 10 42 CFG=1
M  V30 47 1 43 11
M  V30 48 1 44 11
M  V30 49 1 45 11
M  V30 50 1 46 13
M  V30 51 1 47 13
M  V30 52 1 48 14
M  V30 53 1 49 14
M  V30 54 1 50 15
M  V30 55 1 51 15
M  V30 56 1 52 20
M  V30 57 1 53 23
M  V30 58 1 54 24
M  V30 59 1 55 26
M  V30 60 1 56 26
M  V30 61 1 57 29
M  V30 62 1 58 30
M  V30 63 1 59 33
M  V30 64 1 12 60 CFG=3
M  V30 END BOND
M  V30 END CTAB
M  END
>  <b_m_subgroup_collapsed>  (902) 
0

>  <r_i_docking_score>  (902) 
-7.7200237405645797

>  <s_m_subgroup_title>  (902) 
glide-dock_SP_D22_pv

>  <s_m_subgroupid>  (902) 
glide-dock_SP_D22_pv

>  <Molecule ChEMBL ID>  (902) 
CHEMBL5079536

>  <Standard Type>  (902) 
Ki

>  <Standard Value>  (902) 
53.7

>  <label>  (902) 
1

$$$$
CHEMBL519547
     RDKit          3D

  0  0  0  0  0  0  0  0  0  0999 V3000
M  V30 BEGIN CTAB
M  V30 COUNTS 76 79 0 0 1
M  V30 BEGIN ATOM
M  V30 1 C 12.298285 5.383032 -13.884748 0
M  V30 2 O 10.965952 4.922066 -14.053303 0
M  V30 3 C 10.749433 3.887523 -14.940344 0
M  V30 4 C 11.750253 3.328886 -15.771033 0
M  V30 5 C 11.449081 2.258351 -16.635887 0
M  V30 6 C 10.143884 1.736249 -16.684942 0
M  V30 7 C 9.133860 2.289994 -15.873902 0
M  V30 8 C 7.722341 1.738867 -15.934855 0
M  V30 9 C 7.582869 0.386261 -15.220394 0
M  V30 10 C 6.150071 -0.119251 -15.254325 0
M  V30 11 C 5.732728 -0.944571 -16.320026 0
M  V30 12 C 4.408589 -1.411040 -16.384941 0
M  V30 13 C 3.496755 -1.047034 -15.381009 0
M  V30 14 C 3.902728 -0.227498 -14.311641 0
M  V30 15 C 5.233324 0.260245 -14.246869 0
M  V30 16 O 5.690584 1.084945 -13.240345 0
M  V30 17 C 4.810133 2.070664 -12.711104 0
M  V30 18 C 5.282478 3.482265 -13.082235 0
M  V30 19 C 6.518690 3.931815 -12.303760 0
M  V30 20 C 6.779990 5.443135 -12.417128 0
M  V30 21 C 8.224164 5.896395 -12.115522 0
M  V30 22 N 8.486033 6.172424 -10.681137 0 CFG=1 CHG=1
M  V30 23 C 8.677449 4.948663 -9.877182 0
M  V30 24 C 8.638347 5.283743 -8.394042 0
M  V30 25 C 9.590040 6.400437 -8.041402 0
M  V30 26 C 9.967190 6.585198 -6.700045 0
M  V30 27 C 10.896816 7.575151 -6.338744 0
M  V30 28 O 11.350480 7.732665 -5.046875 0
M  V30 29 C 11.456761 6.561062 -4.252792 0
M  V30 30 C 11.404124 8.425564 -7.346746 0
M  V30 31 O 12.338152 9.373264 -7.045981 0
M  V30 32 C 11.842171 10.437405 -6.245858 0
M  V30 33 C 10.997943 8.271425 -8.688684 0
M  V30 34 C 10.077866 7.265466 -9.044416 0
M  V30 35 C 9.635542 7.103382 -10.499119 0
M  V30 36 C 9.442702 3.362947 -15.011292 0
M  V30 37 H 12.316169 6.164733 -13.124793 0
M  V30 38 H 12.952995 4.579659 -13.545637 0
M  V30 39 H 12.695766 5.809555 -14.807478 0
M  V30 40 H 12.765742 3.696180 -15.759606 0
M  V30 41 H 12.224864 1.835890 -17.257313 0
M  V30 42 H 9.920819 0.913312 -17.347656 0
M  V30 43 H 7.431595 1.635108 -16.979992 0
M  V30 44 H 7.034210 2.461139 -15.496262 0
M  V30 45 H 7.921701 0.463694 -14.186214 0
M  V30 46 H 8.233740 -0.350543 -15.692518 0
M  V30 47 H 6.434347 -1.234077 -17.086668 0
M  V30 48 H 4.092929 -2.055740 -17.190340 0
M  V30 49 H 2.485664 -1.420939 -15.437846 0
M  V30 50 H 3.171767 0.010604 -13.553226 0
M  V30 51 H 3.781166 1.971813 -13.046816 0
M  V30 52 H 4.793935 1.955764 -11.628716 0
M  V30 53 H 5.449321 3.564244 -14.155513 0
M  V30 54 H 4.479478 4.170934 -12.852125 0
M  V30 55 H 6.356907 3.660502 -11.265677 0
M  V30 56 H 7.384450 3.372329 -12.648568 0
M  V30 57 H 6.577268 5.721635 -13.446834 0
M  V30 58 H 6.060122 6.006729 -11.822297 0
M  V30 59 H 8.950974 5.183803 -12.499519 0
M  V30 60 H 8.389192 6.822535 -12.668795 0
M  V30 61 H 7.915150 4.205761 -10.060933 0
M  V30 62 H 9.630976 4.488824 -10.138962 0
M  V30 63 H 8.886023 4.378268 -7.846971 0
M  V30 64 H 7.646807 5.591931 -8.076817 0
M  V30 65 H 9.533559 5.953347 -5.948180 0
M  V30 66 H 12.013070 6.792662 -3.344590 0
M  V30 67 H 10.485202 6.172382 -3.952269 0
M  V30 68 H 12.002580 5.775135 -4.779503 0
M  V30 69 H 12.539562 11.271627 -6.263783 0
M  V30 70 H 10.886994 10.801819 -6.627430 0
M  V30 71 H 11.717249 10.146998 -5.203287 0
M  V30 72 H 11.405271 8.927187 -9.444974 0
M  V30 73 H 10.492150 6.741442 -11.070660 0
M  V30 74 H 9.373120 8.081737 -10.904755 0
M  V30 75 H 8.668393 3.792502 -14.398399 0
M  V30 76 H 7.662246 6.672955 -10.330258 0
M  V30 END ATOM
M  V30 BEGIN BOND
M  V30 1 1 2 1
M  V30 2 1 3 2
M  V30 3 2 4 3
M  V30 4 1 5 4
M  V30 5 2 6 5
M  V30 6 1 7 6
M  V30 7 1 8 7
M  V30 8 1 9 8
M  V30 9 1 10 9
M  V30 10 2 11 10
M  V30 11 1 12 11
M  V30 12 2 13 12
M  V30 13 1 14 13
M  V30 14 1 15 10
M  V30 15 2 15 14
M  V30 16 1 16 15
M  V30 17 1 17 16
M  V30 18 1 18 17
M  V30 19 1 19 18
M  V30 20 1 20 19
M  V30 21 1 21 20
M  V30 22 1 22 21
M  V30 23 1 23 22
M  V30 24 1 24 23
M  V30 25 1 25 24
M  V30 26 2 26 25
M  V30 27 1 27 26
M  V30 28 1 28 27
M  V30 29 1 29 28
M  V30 30 2 30 27
M  V30 31 1 31 30
M  V30 32 1 32 31
M  V30 33 1 33 30
M  V30 34 1 34 25
M  V30 35 2 34 33
M  V30 36 1 35 22
M  V30 37 1 35 34
M  V30 38 1 36 3
M  V30 39 2 36 7
M  V30 40 1 37 1
M  V30 41 1 38 1
M  V30 42 1 39 1
M  V30 43 1 40 4
M  V30 44 1 41 5
M  V30 45 1 42 6
M  V30 46 1 43 8
M  V30 47 1 44 8
M  V30 48 1 45 9
M  V30 49 1 46 9
M  V30 50 1 47 11
M  V30 51 1 48 12
M  V30 52 1 49 13
M  V30 53 1 50 14
M  V30 54 1 51 17
M  V30 55 1 52 17
M  V30 56 1 53 18
M  V30 57 1 54 18
M  V30 58 1 55 19
M  V30 59 1 56 19
M  V30 60 1 57 20
M  V30 61 1 58 20
M  V30 62 1 59 21
M  V30 63 1 60 21
M  V30 64 1 61 23
M  V30 65 1 62 23
M  V30 66 1 63 24
M  V30 67 1 64 24
M  V30 68 1 65 26
M  V30 69 1 66 29
M  V30 70 1 67 29
M  V30 71 1 68 29
M  V30 72 1 69 32
M  V30 73 1 70 32
M  V30 74 1 71 32
M  V30 75 1 72 33
M  V30 76 1 73 35
M  V30 77 1 74 35
M  V30 78 1 75 36
M  V30 79 1 22 76 CFG=1
M  V30 END BOND
M  V30 END CTAB
M  END
>  <b_m_subgroup_collapsed>  (903) 
0

>  <r_i_docking_score>  (903) 
-7.7196576236627799

>  <s_m_subgroup_title>  (903) 
glide-dock_SP_D22_pv

>  <s_m_subgroupid>  (903) 
glide-dock_SP_D22_pv

>  <Molecule ChEMBL ID>  (903) 
CHEMBL519547

>  <Standard Type>  (903) 
Ki

>  <Standard Value>  (903) 
1000000.0

>  <label>  (903) 
0

$$$$
CHEMBL90005
     RDKit          3D

  0  0  0  0  0  0  0  0  0  0999 V3000
M  V30 BEGIN CTAB
M  V30 COUNTS 49 52 0 0 1
M  V30 BEGIN ATOM
M  V30 1 C 8.615875 5.533861 -12.750610 0
M  V30 2 C 10.034686 6.079492 -12.646796 0
M  V30 3 C 11.069902 5.837973 -13.458216 0
M  V30 4 C 11.225383 4.886118 -14.520123 0
M  V30 5 C 12.184517 5.027676 -15.490653 0
M  V30 6 C 12.173072 3.946893 -16.421909 0
M  V30 7 C 11.210045 3.010560 -16.143280 0
M  V30 8 S 10.283855 3.432655 -14.727084 0
M  V30 9 N 12.086075 6.657190 -13.028338 0
M  V30 10 C 11.709486 7.372255 -11.963018 0
M  V30 11 O 12.445002 8.152431 -11.363226 0
M  V30 12 N 10.429881 7.016846 -11.679477 0
M  V30 13 C 9.556767 7.456500 -10.559794 0 CFG=1
M  V30 14 C 9.027937 6.296799 -9.667576 0
M  V30 15 C 9.941360 5.905109 -8.509208 0
M  V30 16 N 10.344553 7.078310 -7.694366 0 CFG=1 CHG=1
M  V30 17 C 11.112179 6.623457 -6.508225 0
M  V30 18 C 11.285978 7.577687 -5.333372 0
M  V30 19 C 10.986311 8.957859 -5.381575 0
M  V30 20 C 11.285776 9.777887 -4.278430 0
M  V30 21 C 11.848571 9.235889 -3.109303 0
M  V30 22 C 12.090527 7.854380 -3.031852 0
M  V30 23 C 11.811262 7.033695 -4.139827 0
M  V30 24 C 11.060586 8.050927 -8.560169 0
M  V30 25 C 10.110176 8.582319 -9.650908 0
M  V30 26 H 8.302616 5.528041 -13.794704 0
M  V30 27 H 8.573900 4.508816 -12.382366 0
M  V30 28 H 7.881663 6.130438 -12.210203 0
M  V30 29 H 12.885799 5.845207 -15.567941 0
M  V30 30 H 12.865111 3.893377 -17.249847 0
M  V30 31 H 10.990423 2.098701 -16.679607 0
M  V30 32 H 13.010148 6.653384 -13.439088 0
M  V30 33 H 8.693481 7.894373 -11.063116 0
M  V30 34 H 8.086056 6.607204 -9.224207 0
M  V30 35 H 8.785799 5.398257 -10.227377 0
M  V30 36 H 10.827609 5.400755 -8.892273 0
M  V30 37 H 9.412198 5.179622 -7.889939 0
M  V30 38 H 10.585949 5.772597 -6.085724 0
M  V30 39 H 12.087111 6.250993 -6.821228 0
M  V30 40 H 10.526125 9.419528 -6.239069 0
M  V30 41 H 11.070784 10.834580 -4.327334 0
M  V30 42 H 12.073683 9.875209 -2.267020 0
M  V30 43 H 12.502687 7.426226 -2.130012 0
M  V30 44 H 12.028741 5.977086 -4.074999 0
M  V30 45 H 11.926147 7.555948 -8.998629 0
M  V30 46 H 11.472204 8.889804 -8.006263 0
M  V30 47 H 10.584496 9.370576 -10.234427 0
M  V30 48 H 9.267125 9.071943 -9.159502 0
M  V30 49 H 9.494645 7.513443 -7.361287 0
M  V30 END ATOM
M  V30 BEGIN BOND
M  V30 1 1 2 1
M  V30 2 2 3 2
M  V30 3 1 4 3
M  V30 4 2 5 4
M  V30 5 1 6 5
M  V30 6 2 7 6
M  V30 7 1 8 4
M  V30 8 1 8 7
M  V30 9 1 9 3
M  V30 10 1 10 9
M  V30 11 2 11 10
M  V30 12 1 12 2
M  V30 13 1 12 10
M  V30 14 1 13 12
M  V30 15 1 14 13
M  V30 16 1 15 14
M  V30 17 1 16 15
M  V30 18 1 17 16
M  V30 19 1 18 17
M  V30 20 2 19 18
M  V30 21 1 20 19
M  V30 22 2 21 20
M  V30 23 1 22 21
M  V30 24 1 23 18
M  V30 25 2 23 22
M  V30 26 1 24 16
M  V30 27 1 25 13
M  V30 28 1 25 24
M  V30 29 1 26 1
M  V30 30 1 27 1
M  V30 31 1 28 1
M  V30 32 1 29 5
M  V30 33 1 30 6
M  V30 34 1 31 7
M  V30 35 1 32 9
M  V30 36 1 13 33 CFG=3
M  V30 37 1 34 14
M  V30 38 1 35 14
M  V30 39 1 36 15
M  V30 40 1 37 15
M  V30 41 1 38 17
M  V30 42 1 39 17
M  V30 43 1 40 19
M  V30 44 1 41 20
M  V30 45 1 42 21
M  V30 46 1 43 22
M  V30 47 1 44 23
M  V30 48 1 45 24
M  V30 49 1 46 24
M  V30 50 1 47 25
M  V30 51 1 48 25
M  V30 52 1 16 49 CFG=1
M  V30 END BOND
M  V30 END CTAB
M  END
>  <b_m_subgroup_collapsed>  (904) 
0

>  <r_i_docking_score>  (904) 
-7.7188214241481896

>  <s_m_subgroup_title>  (904) 
glide-dock_SP_D22_pv

>  <s_m_subgroupid>  (904) 
glide-dock_SP_D22_pv

>  <Molecule ChEMBL ID>  (904) 
CHEMBL90005

>  <Standard Type>  (904) 
Ki

>  <Standard Value>  (904) 
7.8

>  <label>  (904) 
1

$$$$
CHEMBL1080926
     RDKit          3D

  0  0  0  0  0  0  0  0  0  0999 V3000
M  V30 BEGIN CTAB
M  V30 COUNTS 57 61 0 0 1
M  V30 BEGIN ATOM
M  V30 1 C 9.908330 4.245328 -17.377926 0
M  V30 2 C 10.649857 3.166153 -16.562992 0 CFG=1
M  V30 3 C 11.806078 3.728613 -15.711453 0
M  V30 4 N 11.287123 4.433552 -14.532305 0
M  V30 5 C 11.456657 5.772514 -14.379113 0
M  V30 6 O 11.952791 6.476568 -15.263418 0
M  V30 7 C 11.179756 6.417872 -13.046839 0
M  V30 8 C 12.181631 7.223105 -12.482506 0
M  V30 9 C 12.026033 7.772891 -11.201854 0
M  V30 10 C 10.846453 7.577590 -10.444338 0
M  V30 11 C 10.738615 8.090981 -9.052116 0
M  V30 12 C 11.881620 8.558286 -8.352434 0
M  V30 13 C 11.795178 9.041646 -7.037142 0
M  V30 14 C 10.561645 9.055199 -6.371575 0
M  V30 15 F 10.486180 9.548291 -5.114431 0
M  V30 16 C 9.415977 8.572222 -7.029236 0
M  V30 17 C 9.501809 8.112960 -8.356351 0
M  V30 18 C 9.795137 6.861952 -11.072491 0
M  V30 19 C 9.949512 6.302762 -12.359780 0
M  V30 20 C 10.496161 3.515378 -13.704959 0
M  V30 21 C 9.254314 3.128963 -14.523135 0
M  V30 22 N 9.700107 2.394698 -15.726275 0
M  V30 23 C 9.382098 1.110519 -16.035818 0
M  V30 24 O 10.057046 0.417128 -16.800451 0
M  V30 25 C 8.050261 0.577863 -15.594617 0
M  V30 26 C 7.756535 0.272302 -14.246889 0
M  V30 27 C 6.492473 -0.234979 -13.882147 0
M  V30 28 C 5.507933 -0.504783 -14.859894 0
M  V30 29 C 4.170864 -1.028762 -14.839841 0
M  V30 30 C 3.779107 -1.149886 -16.144529 0
M  V30 31 N 4.763175 -0.635177 -16.963991 0
M  V30 32 C 5.847720 -0.235177 -16.216326 0
M  V30 33 C 7.087080 0.305129 -16.584616 0
M  V30 34 H 10.596991 4.770780 -18.038780 0
M  V30 35 H 9.128055 3.801405 -17.995871 0
M  V30 36 H 9.441036 4.994770 -16.738638 0
M  V30 37 H 11.122457 2.519201 -17.302427 0
M  V30 38 H 12.461729 4.344947 -16.331123 0
M  V30 39 H 12.440061 2.909023 -15.373405 0
M  V30 40 H 13.110262 7.382798 -13.015984 0
M  V30 41 H 12.850145 8.361898 -10.828536 0
M  V30 42 H 12.861648 8.561964 -8.801691 0
M  V30 43 H 12.682127 9.405138 -6.537966 0
M  V30 44 H 8.459866 8.572325 -6.525568 0
M  V30 45 H 8.586636 7.776706 -8.821194 0
M  V30 46 H 8.851659 6.698575 -10.577493 0
M  V30 47 H 9.120505 5.764982 -12.794971 0
M  V30 48 H 11.085177 2.626806 -13.462622 0
M  V30 49 H 10.220281 3.897742 -12.729622 0
M  V30 50 H 8.584605 2.576314 -13.877377 0
M  V30 51 H 8.692205 4.015385 -14.814554 0
M  V30 52 H 8.503349 0.421449 -13.480154 0
M  V30 53 H 6.289311 -0.455803 -12.845966 0
M  V30 54 H 3.613071 -1.338084 -13.968497 0
M  V30 55 H 2.885640 -1.571898 -16.569323 0
M  V30 56 H 4.692252 -0.620671 -17.971645 0
M  V30 57 H 7.307795 0.484452 -17.626991 0
M  V30 END ATOM
M  V30 BEGIN BOND
M  V30 1 1 2 1
M  V30 2 1 3 2
M  V30 3 1 4 3
M  V30 4 1 5 4
M  V30 5 2 6 5
M  V30 6 1 7 5
M  V30 7 1 8 7
M  V30 8 2 9 8
M  V30 9 1 10 9
M  V30 10 1 11 10
M  V30 11 1 12 11
M  V30 12 2 13 12
M  V30 13 1 14 13
M  V30 14 1 15 14
M  V30 15 2 16 14
M  V30 16 2 17 11
M  V30 17 1 17 16
M  V30 18 2 18 10
M  V30 19 2 19 7
M  V30 20 1 19 18
M  V30 21 1 20 4
M  V30 22 1 21 20
M  V30 23 1 22 2
M  V30 24 1 22 21
M  V30 25 1 23 22
M  V30 26 2 24 23
M  V30 27 1 25 23
M  V30 28 2 26 25
M  V30 29 1 27 26
M  V30 30 2 28 27
M  V30 31 1 29 28
M  V30 32 2 30 29
M  V30 33 1 31 30
M  V30 34 1 32 28
M  V30 35 1 32 31
M  V30 36 1 33 25
M  V30 37 2 33 32
M  V30 38 1 34 1
M  V30 39 1 35 1
M  V30 40 1 36 1
M  V30 41 1 2 37 CFG=3
M  V30 42 1 38 3
M  V30 43 1 39 3
M  V30 44 1 40 8
M  V30 45 1 41 9
M  V30 46 1 42 12
M  V30 47 1 43 13
M  V30 48 1 44 16
M  V30 49 1 45 17
M  V30 50 1 46 18
M  V30 51 1 47 19
M  V30 52 1 48 20
M  V30 53 1 49 20
M  V30 54 1 50 21
M  V30 55 1 51 21
M  V30 56 1 52 26
M  V30 57 1 53 27
M  V30 58 1 54 29
M  V30 59 1 55 30
M  V30 60 1 56 31
M  V30 61 1 57 33
M  V30 END BOND
M  V30 END CTAB
M  END
>  <b_m_subgroup_collapsed>  (905) 
0

>  <r_i_docking_score>  (905) 
-7.7154026897010803

>  <s_m_subgroup_title>  (905) 
glide-dock_SP_D22_pv

>  <s_m_subgroupid>  (905) 
glide-dock_SP_D22_pv

>  <Molecule ChEMBL ID>  (905) 
CHEMBL1080926

>  <Standard Type>  (905) 
Ki

>  <Standard Value>  (905) 
10000.0

>  <label>  (905) 
0

$$$$
CHEMBL402143
     RDKit          3D

  0  0  0  0  0  0  0  0  0  0999 V3000
M  V30 BEGIN CTAB
M  V30 COUNTS 59 61 0 0 1
M  V30 BEGIN ATOM
M  V30 1 C 11.796108 5.890908 -16.573217 0
M  V30 2 O 10.494585 5.772090 -16.015543 0
M  V30 3 C 10.172185 4.519320 -15.561744 0
M  V30 4 C 9.950800 3.476772 -16.498028 0
M  V30 5 O 10.029948 3.794717 -17.840403 0
M  V30 6 C 10.125413 2.756252 -18.812054 0
M  V30 7 C 11.500434 2.068151 -18.780346 0
M  V30 8 F 12.457698 2.928102 -19.126377 0
M  V30 9 C 9.636573 2.180001 -16.025387 0
M  V30 10 C 9.543853 1.929772 -14.647959 0
M  V30 11 C 9.747455 2.972458 -13.731821 0
M  V30 12 C 10.047438 4.277850 -14.167061 0
M  V30 13 C 10.255078 5.349903 -13.089223 0 CFG=1
M  V30 14 O 11.284227 6.273633 -13.397206 0
M  V30 15 C 8.930153 6.056534 -12.643308 0 CFG=1
M  V30 16 C 8.104919 5.241821 -11.617101 0
M  V30 17 C 8.716050 5.272315 -10.194847 0
M  V30 18 N 8.894099 6.660066 -9.681696 0 CFG=1 CHG=1
M  V30 19 C 9.516050 6.661457 -8.323665 0
M  V30 20 C 9.578496 8.049468 -7.625925 0
M  V30 21 C 10.431058 8.118554 -6.356234 0
M  V30 22 C 10.881516 6.964098 -5.677955 0
M  V30 23 C 11.629674 7.066876 -4.487005 0
M  V30 24 C 11.915753 8.332605 -3.946881 0
M  V30 25 F 12.584999 8.435967 -2.774712 0
M  V30 26 C 11.488572 9.489781 -4.621810 0
M  V30 27 C 10.780803 9.382378 -5.834077 0
M  V30 28 C 9.686587 7.473403 -10.642308 0
M  V30 29 C 9.074839 7.474051 -12.040907 0
M  V30 30 H 12.009604 6.943420 -16.764290 0
M  V30 31 H 12.557811 5.514436 -15.884904 0
M  V30 32 H 11.897036 5.357769 -17.519600 0
M  V30 33 H 9.313684 2.036234 -18.713360 0
M  V30 34 H 9.983408 3.213829 -19.791231 0
M  V30 35 H 11.751331 1.671721 -17.796055 0
M  V30 36 H 11.542978 1.246115 -19.495546 0
M  V30 37 H 9.457705 1.354217 -16.694895 0
M  V30 38 H 9.314228 0.935607 -14.293086 0
M  V30 39 H 9.682622 2.752987 -12.676494 0
M  V30 40 H 10.657327 4.803964 -12.246840 0
M  V30 41 H 12.043259 5.791376 -13.691192 0
M  V30 42 H 8.325665 6.173451 -13.544563 0
M  V30 43 H 7.095585 5.655235 -11.567383 0
M  V30 44 H 7.981395 4.211868 -11.949413 0
M  V30 45 H 9.678843 4.759682 -10.194461 0
M  V30 46 H 8.085246 4.711324 -9.506928 0
M  V30 47 H 8.963350 5.973190 -7.681718 0
M  V30 48 H 10.525517 6.255664 -8.419152 0
M  V30 49 H 9.983549 8.816729 -8.285444 0
M  V30 50 H 8.563260 8.372884 -7.375749 0
M  V30 51 H 10.648782 5.978434 -6.046158 0
M  V30 52 H 11.951887 6.172727 -3.973085 0
M  V30 53 H 11.686443 10.462977 -4.201659 0
M  V30 54 H 10.485758 10.287776 -6.340551 0
M  V30 55 H 10.713026 7.104668 -10.685553 0
M  V30 56 H 9.737591 8.514267 -10.328608 0
M  V30 57 H 9.683479 8.135807 -12.647067 0
M  V30 58 H 8.090056 7.943171 -11.995782 0
M  V30 59 H 7.960028 7.076542 -9.633015 0
M  V30 END ATOM
M  V30 BEGIN BOND
M  V30 1 1 2 1
M  V30 2 1 3 2
M  V30 3 2 4 3
M  V30 4 1 5 4
M  V30 5 1 6 5
M  V30 6 1 7 6
M  V30 7 1 8 7
M  V30 8 1 9 4
M  V30 9 2 10 9
M  V30 10 1 11 10
M  V30 11 1 12 3
M  V30 12 2 12 11
M  V30 13 1 13 12
M  V30 14 1 14 13
M  V30 15 1 15 13
M  V30 16 1 16 15
M  V30 17 1 17 16
M  V30 18 1 18 17
M  V30 19 1 19 18
M  V30 20 1 20 19
M  V30 21 1 21 20
M  V30 22 1 22 21
M  V30 23 2 23 22
M  V30 24 1 24 23
M  V30 25 1 25 24
M  V30 26 2 26 24
M  V30 27 2 27 21
M  V30 28 1 27 26
M  V30 29 1 28 18
M  V30 30 1 29 15
M  V30 31 1 29 28
M  V30 32 1 30 1
M  V30 33 1 31 1
M  V30 34 1 32 1
M  V30 35 1 33 6
M  V30 36 1 34 6
M  V30 37 1 35 7
M  V30 38 1 36 7
M  V30 39 1 37 9
M  V30 40 1 38 10
M  V30 41 1 39 11
M  V30 42 1 13 40 CFG=1
M  V30 43 1 41 14
M  V30 44 1 15 42 CFG=3
M  V30 45 1 43 16
M  V30 46 1 44 16
M  V30 47 1 45 17
M  V30 48 1 46 17
M  V30 49 1 47 19
M  V30 50 1 48 19
M  V30 51 1 49 20
M  V30 52 1 50 20
M  V30 53 1 51 22
M  V30 54 1 52 23
M  V30 55 1 53 26
M  V30 56 1 54 27
M  V30 57 1 55 28
M  V30 58 1 56 28
M  V30 59 1 57 29
M  V30 60 1 58 29
M  V30 61 1 18 59 CFG=1
M  V30 END BOND
M  V30 END CTAB
M  END
>  <b_m_subgroup_collapsed>  (906) 
0

>  <r_i_docking_score>  (906) 
-7.7152389474542504

>  <s_m_subgroup_title>  (906) 
glide-dock_SP_D22_pv

>  <s_m_subgroupid>  (906) 
glide-dock_SP_D22_pv

>  <Molecule ChEMBL ID>  (906) 
CHEMBL402143

>  <Standard Type>  (906) 
Ki

>  <Standard Value>  (906) 
10000.0

>  <label>  (906) 
0

$$$$
CHEMBL5274285
     RDKit          3D

  0  0  0  0  0  0  0  0  0  0999 V3000
M  V30 BEGIN CTAB
M  V30 COUNTS 54 58 0 0 1
M  V30 BEGIN ATOM
M  V30 1 F 10.077420 0.434121 -18.420147 0
M  V30 2 C 9.870274 1.155653 -17.293524 0
M  V30 3 C 9.616337 0.500507 -16.073811 0
M  V30 4 C 9.399542 1.251842 -14.903397 0
M  V30 5 C 9.432828 2.662233 -14.949636 0
M  V30 6 C 9.215623 3.464826 -13.682914 0
M  V30 7 N 7.955369 4.223786 -13.653978 0
M  V30 8 C 6.780799 3.371330 -13.749260 0
M  V30 9 C 5.608284 4.269415 -13.361084 0
M  V30 10 C 6.214680 5.423030 -12.570302 0
M  V30 11 C 7.724508 5.129828 -12.511653 0 CFG=2
M  V30 12 C 8.607432 6.375886 -12.645527 0
M  V30 13 C 9.075991 6.748749 -11.245474 0
M  V30 14 N 8.485499 5.771708 -10.309425 0 CFG=2 CHG=1
M  V30 15 C 9.315421 5.368595 -9.144651 0
M  V30 16 C 9.877168 6.454844 -8.280776 0
M  V30 17 C 10.215117 7.762276 -8.528759 0
M  V30 18 C 10.770702 8.285390 -7.321551 0
M  V30 19 C 11.281865 9.535715 -6.948519 0
M  V30 20 C 11.748825 9.783686 -5.651380 0
M  V30 21 C 11.742572 8.753508 -4.687967 0
M  V30 22 Cl 12.271819 9.053511 -3.075732 0
M  V30 23 C 11.284013 7.471828 -5.043068 0
M  V30 24 C 10.781224 7.263087 -6.340790 0
M  V30 25 N 10.226012 6.173873 -6.971177 0
M  V30 26 C 8.089878 4.598498 -11.118587 0
M  V30 27 C 9.685205 3.318074 -16.171413 0
M  V30 28 C 9.901130 2.564328 -17.340317 0
M  V30 29 F 10.138388 3.197480 -18.512613 0
M  V30 30 H 9.587042 -0.578649 -16.033424 0
M  V30 31 H 9.209933 0.739964 -13.969688 0
M  V30 32 H 9.285462 2.773218 -12.845304 0
M  V30 33 H 10.064800 4.139415 -13.582332 0
M  V30 34 H 6.664425 2.945155 -14.747059 0
M  V30 35 H 6.873646 2.549876 -13.046467 0
M  V30 36 H 5.107342 4.650476 -14.249309 0
M  V30 37 H 4.867893 3.722699 -12.775126 0
M  V30 38 H 5.997175 6.374639 -13.046889 0
M  V30 39 H 5.769365 5.501939 -11.578456 0
M  V30 40 H 9.494791 6.174880 -13.238562 0
M  V30 41 H 8.085792 7.207355 -13.119009 0
M  V30 42 H 10.166303 6.730010 -11.196710 0
M  V30 43 H 8.728824 7.750847 -10.997762 0
M  V30 44 H 8.705611 4.702839 -8.529648 0
M  V30 45 H 10.151421 4.758317 -9.484269 0
M  V30 46 H 10.112697 8.335779 -9.434009 0
M  V30 47 H 11.286626 10.317137 -7.680021 0
M  V30 48 H 12.094093 10.783003 -5.443618 0
M  V30 49 H 11.266080 6.670084 -4.318418 0
M  V30 50 H 10.086241 5.270850 -6.537184 0
M  V30 51 H 7.288243 4.022784 -10.648876 0
M  V30 52 H 8.966646 3.960914 -11.180153 0
M  V30 53 H 9.704212 4.398115 -16.210588 0
M  V30 54 H 7.636629 6.225272 -9.975105 0
M  V30 END ATOM
M  V30 BEGIN BOND
M  V30 1 1 2 1
M  V30 2 1 3 2
M  V30 3 2 4 3
M  V30 4 1 5 4
M  V30 5 1 6 5
M  V30 6 1 7 6
M  V30 7 1 8 7
M  V30 8 1 9 8
M  V30 9 1 10 9
M  V30 10 1 11 7 CFG=3
M  V30 11 1 11 10
M  V30 12 1 12 11
M  V30 13 1 13 12
M  V30 14 1 14 13
M  V30 15 1 15 14
M  V30 16 1 16 15
M  V30 17 2 17 16
M  V30 18 1 18 17
M  V30 19 1 19 18
M  V30 20 2 20 19
M  V30 21 1 21 20
M  V30 22 1 22 21
M  V30 23 2 23 21
M  V30 24 2 24 18
M  V30 25 1 24 23
M  V30 26 1 25 16
M  V30 27 1 25 24
M  V30 28 1 26 11
M  V30 29 1 26 14
M  V30 30 2 27 5
M  V30 31 2 28 2
M  V30 32 1 28 27
M  V30 33 1 29 28
M  V30 34 1 30 3
M  V30 35 1 31 4
M  V30 36 1 32 6
M  V30 37 1 33 6
M  V30 38 1 34 8
M  V30 39 1 35 8
M  V30 40 1 36 9
M  V30 41 1 37 9
M  V30 42 1 38 10
M  V30 43 1 39 10
M  V30 44 1 40 12
M  V30 45 1 41 12
M  V30 46 1 42 13
M  V30 47 1 43 13
M  V30 48 1 44 15
M  V30 49 1 45 15
M  V30 50 1 46 17
M  V30 51 1 47 19
M  V30 52 1 48 20
M  V30 53 1 49 23
M  V30 54 1 50 25
M  V30 55 1 51 26
M  V30 56 1 52 26
M  V30 57 1 53 27
M  V30 58 1 14 54 CFG=1
M  V30 END BOND
M  V30 END CTAB
M  END
>  <b_m_subgroup_collapsed>  (907) 
0

>  <r_i_docking_score>  (907) 
-7.7135231967079303

>  <s_m_subgroup_title>  (907) 
glide-dock_SP_D22_pv

>  <s_m_subgroupid>  (907) 
glide-dock_SP_D22_pv

>  <Molecule ChEMBL ID>  (907) 
CHEMBL5274285

>  <Standard Type>  (907) 
Ki

>  <Standard Value>  (907) 
10000.0

>  <label>  (907) 
0

$$$$
CHEMBL4528835
     RDKit          3D

  0  0  0  0  0  0  0  0  0  0999 V3000
M  V30 BEGIN CTAB
M  V30 COUNTS 50 53 0 0 1
M  V30 BEGIN ATOM
M  V30 1 O 5.472350 3.897545 -13.047823 0
M  V30 2 C 6.661539 4.047982 -13.327760 0
M  V30 3 C 7.310976 5.407441 -13.046182 0
M  V30 4 C 8.030956 5.460170 -11.688854 0
M  V30 5 C 8.748747 6.805602 -11.478024 0
M  V30 6 N 9.056602 7.051680 -10.043273 0 CFG=2 CHG=1
M  V30 7 C 9.069638 8.507147 -9.674882 0
M  V30 8 C 10.466608 9.148149 -9.774048 0
M  V30 9 C 11.431584 8.306193 -8.982884 0 CFG=2
M  V30 10 C 11.260070 8.406926 -7.462232 0
M  V30 11 C 11.259652 9.681243 -6.850749 0
M  V30 12 C 11.317726 9.840762 -5.457539 0
M  V30 13 C 11.402570 8.710951 -4.633470 0
M  V30 14 Cl 11.686205 8.902267 -2.947849 0
M  V30 15 C 11.326513 7.427320 -5.197327 0
M  V30 16 C 11.286004 7.280596 -6.596592 0
M  V30 17 C 12.746901 7.772336 -9.325337 0
M  V30 18 C 11.517489 7.030204 -9.856110 0 CFG=1
M  V30 19 C 10.224102 6.279365 -9.510783 0
M  V30 20 C 7.500244 2.972218 -13.936689 0
M  V30 21 C 6.903940 1.726161 -14.248467 0
M  V30 22 C 7.675965 0.669163 -14.773464 0
M  V30 23 C 9.052999 0.847177 -15.000910 0
M  V30 24 F 9.800507 -0.169617 -15.493056 0
M  V30 25 C 9.655126 2.084307 -14.708305 0
M  V30 26 C 8.886596 3.140560 -14.179975 0
M  V30 27 H 7.990373 5.672688 -13.855022 0
M  V30 28 H 6.522927 6.161298 -13.046844 0
M  V30 29 H 7.287509 5.318816 -10.903305 0
M  V30 30 H 8.737672 4.634932 -11.595504 0
M  V30 31 H 9.645365 6.867466 -12.094271 0
M  V30 32 H 8.086042 7.590725 -11.845939 0
M  V30 33 H 8.373276 9.087131 -10.278666 0
M  V30 34 H 8.708492 8.590007 -8.648568 0
M  V30 35 H 10.781849 9.180217 -10.816508 0
M  V30 36 H 10.476258 10.172303 -9.446859 0
M  V30 37 H 11.286026 10.572309 -7.446898 0
M  V30 38 H 11.353494 10.831784 -5.031688 0
M  V30 39 H 11.399629 6.552097 -4.567328 0
M  V30 40 H 11.393547 6.276284 -6.971735 0
M  V30 41 H 13.333306 8.337286 -10.046957 0
M  V30 42 H 13.331701 7.372328 -8.503455 0
M  V30 43 H 11.592998 7.089978 -10.940238 0
M  V30 44 H 10.057094 6.113139 -8.456942 0
M  V30 45 H 10.249758 5.286068 -9.955648 0
M  V30 46 H 5.850043 1.563552 -14.071298 0
M  V30 47 H 7.215730 -0.282854 -14.996917 0
M  V30 48 H 10.713404 2.217457 -14.879380 0
M  V30 49 H 9.393528 4.065157 -13.951631 0
M  V30 50 H 8.219860 6.714709 -9.579701 0
M  V30 END ATOM
M  V30 BEGIN BOND
M  V30 1 2 2 1
M  V30 2 1 3 2
M  V30 3 1 4 3
M  V30 4 1 5 4
M  V30 5 1 6 5
M  V30 6 1 7 6
M  V30 7 1 8 7
M  V30 8 1 9 8
M  V30 9 1 9 10 CFG=1
M  V30 10 1 11 10
M  V30 11 2 12 11
M  V30 12 1 13 12
M  V30 13 1 14 13
M  V30 14 2 15 13
M  V30 15 2 16 10
M  V30 16 1 16 15
M  V30 17 1 17 9
M  V30 18 1 18 9
M  V30 19 1 18 17
M  V30 20 1 19 6
M  V30 21 1 19 18
M  V30 22 1 20 2
M  V30 23 1 21 20
M  V30 24 2 22 21
M  V30 25 1 23 22
M  V30 26 1 24 23
M  V30 27 2 25 23
M  V30 28 2 26 20
M  V30 29 1 26 25
M  V30 30 1 27 3
M  V30 31 1 28 3
M  V30 32 1 29 4
M  V30 33 1 30 4
M  V30 34 1 31 5
M  V30 35 1 32 5
M  V30 36 1 33 7
M  V30 37 1 34 7
M  V30 38 1 35 8
M  V30 39 1 36 8
M  V30 40 1 37 11
M  V30 41 1 38 12
M  V30 42 1 39 15
M  V30 43 1 40 16
M  V30 44 1 41 17
M  V30 45 1 42 17
M  V30 46 1 18 43 CFG=3
M  V30 47 1 44 19
M  V30 48 1 45 19
M  V30 49 1 46 21
M  V30 50 1 47 22
M  V30 51 1 48 25
M  V30 52 1 49 26
M  V30 53 1 6 50 CFG=1
M  V30 END BOND
M  V30 END CTAB
M  END
>  <b_m_subgroup_collapsed>  (908) 
0

>  <r_i_docking_score>  (908) 
-7.7132058411775599

>  <s_m_subgroup_title>  (908) 
glide-dock_SP_D22_pv

>  <s_m_subgroupid>  (908) 
glide-dock_SP_D22_pv

>  <Molecule ChEMBL ID>  (908) 
CHEMBL4528835

>  <Standard Type>  (908) 
Ki

>  <Standard Value>  (908) 
0.1585

>  <label>  (908) 
1

$$$$
CHEMBL306634
     RDKit          3D

  0  0  0  0  0  0  0  0  0  0999 V3000
M  V30 BEGIN CTAB
M  V30 COUNTS 56 60 0 0 1
M  V30 BEGIN ATOM
M  V30 1 C 3.965748 -1.827084 -16.255465 0
M  V30 2 N 4.743670 -0.861938 -15.496969 0
M  V30 3 C 4.401163 -0.343263 -14.249940 0
M  V30 4 O 3.438694 -0.627459 -13.541170 0
M  V30 5 O 5.359116 0.575047 -13.929887 0
M  V30 6 C 6.244305 0.685655 -14.966153 0
M  V30 7 C 7.301379 1.607645 -15.163772 0
M  V30 8 N 7.598046 2.651098 -14.259377 0
M  V30 9 C 6.561164 3.179492 -13.375937 0
M  V30 10 C 6.813807 4.649633 -12.999068 0
M  V30 11 N 8.224889 4.952701 -12.637691 0 CHG=1
M  V30 12 C 8.390696 6.416297 -12.435550 0
M  V30 13 C 9.689778 6.816216 -11.749319 0
M  V30 14 C 10.884604 6.974313 -12.484033 0
M  V30 15 C 12.043425 7.451828 -11.852521 0
M  V30 16 C 12.019843 7.771160 -10.482739 0
M  V30 17 C 10.855441 7.550756 -9.709658 0
M  V30 18 C 10.860054 7.780308 -8.251562 0
M  V30 19 C 11.678927 8.778584 -7.677424 0
M  V30 20 C 11.685922 9.009426 -6.290176 0
M  V30 21 C 10.886482 8.218469 -5.449084 0
M  V30 22 C 10.086431 7.200884 -5.997699 0
M  V30 23 C 10.066698 6.991189 -7.387411 0
M  V30 24 C 9.689646 7.091274 -10.366814 0
M  V30 25 C 9.206880 4.396593 -13.611978 0
M  V30 26 C 8.989987 2.905405 -13.905540 0
M  V30 27 C 8.027675 1.483639 -16.379412 0
M  V30 28 C 7.684149 0.515349 -17.355234 0
M  V30 29 C 6.586789 -0.348944 -17.155842 0
M  V30 30 C 5.891803 -0.222620 -15.944803 0
M  V30 31 H 3.144959 -2.226530 -15.664962 0
M  V30 32 H 3.545052 -1.363585 -17.146921 0
M  V30 33 H 4.590475 -2.664404 -16.564293 0
M  V30 34 H 6.485987 2.573500 -12.476914 0
M  V30 35 H 5.588193 3.119778 -13.864957 0
M  V30 36 H 6.155996 4.931637 -12.175959 0
M  V30 37 H 6.534524 5.279163 -13.839124 0
M  V30 38 H 7.558213 6.790378 -11.845036 0
M  V30 39 H 8.289445 6.941399 -13.383505 0
M  V30 40 H 10.918751 6.762230 -13.541265 0
M  V30 41 H 12.949163 7.594470 -12.423850 0
M  V30 42 H 12.928363 8.131072 -10.024390 0
M  V30 43 H 12.317510 9.372299 -8.308963 0
M  V30 44 H 12.316330 9.782707 -5.874018 0
M  V30 45 H 10.897209 8.379757 -4.381705 0
M  V30 46 H 9.486888 6.576848 -5.351503 0
M  V30 47 H 9.442019 6.201460 -7.779716 0
M  V30 48 H 8.770775 6.970763 -9.810070 0
M  V30 49 H 9.140938 4.958747 -14.546130 0
M  V30 50 H 10.221668 4.517247 -13.236127 0
M  V30 51 H 9.283398 2.301913 -13.046268 0
M  V30 52 H 9.671020 2.603708 -14.700160 0
M  V30 53 H 8.837169 2.161616 -16.603483 0
M  V30 54 H 8.249205 0.457087 -18.273800 0
M  V30 55 H 6.289496 -1.068305 -17.904564 0
M  V30 56 H 8.395290 4.504000 -11.748502 0
M  V30 END ATOM
M  V30 BEGIN BOND
M  V30 1 1 2 1
M  V30 2 1 3 2
M  V30 3 2 4 3
M  V30 4 1 5 3
M  V30 5 1 6 5
M  V30 6 2 7 6
M  V30 7 1 8 7
M  V30 8 1 9 8
M  V30 9 1 10 9
M  V30 10 1 11 10
M  V30 11 1 12 11
M  V30 12 1 13 12
M  V30 13 1 14 13
M  V30 14 2 15 14
M  V30 15 1 16 15
M  V30 16 2 17 16
M  V30 17 1 18 17
M  V30 18 2 19 18
M  V30 19 1 20 19
M  V30 20 2 21 20
M  V30 21 1 22 21
M  V30 22 1 23 18
M  V30 23 2 23 22
M  V30 24 2 24 13
M  V30 25 1 24 17
M  V30 26 1 25 11
M  V30 27 1 26 8
M  V30 28 1 26 25
M  V30 29 1 27 7
M  V30 30 2 28 27
M  V30 31 1 29 28
M  V30 32 1 30 2
M  V30 33 1 30 6
M  V30 34 2 30 29
M  V30 35 1 31 1
M  V30 36 1 32 1
M  V30 37 1 33 1
M  V30 38 1 34 9
M  V30 39 1 35 9
M  V30 40 1 36 10
M  V30 41 1 37 10
M  V30 42 1 38 12
M  V30 43 1 39 12
M  V30 44 1 40 14
M  V30 45 1 41 15
M  V30 46 1 42 16
M  V30 47 1 43 19
M  V30 48 1 44 20
M  V30 49 1 45 21
M  V30 50 1 46 22
M  V30 51 1 47 23
M  V30 52 1 48 24
M  V30 53 1 49 25
M  V30 54 1 50 25
M  V30 55 1 51 26
M  V30 56 1 52 26
M  V30 57 1 53 27
M  V30 58 1 54 28
M  V30 59 1 55 29
M  V30 60 1 56 11
M  V30 END BOND
M  V30 END CTAB
M  END
>  <b_m_subgroup_collapsed>  (909) 
0

>  <r_i_docking_score>  (909) 
-7.7108266898688802

>  <s_m_subgroup_title>  (909) 
glide-dock_SP_D22_pv

>  <s_m_subgroupid>  (909) 
glide-dock_SP_D22_pv

>  <Molecule ChEMBL ID>  (909) 
CHEMBL306634

>  <Standard Type>  (909) 
Ki

>  <Standard Value>  (909) 
10.0

>  <label>  (909) 
1

$$$$
CHEMBL478043
     RDKit          3D

  0  0  0  0  0  0  0  0  0  0999 V3000
M  V30 BEGIN CTAB
M  V30 COUNTS 66 70 0 0 1
M  V30 BEGIN ATOM
M  V30 1 C 6.016231 -0.064559 -18.819729 0
M  V30 2 C 6.650064 -0.277169 -17.439787 0
M  V30 3 C 8.050619 0.358378 -17.340338 0
M  V30 4 N 8.662612 0.170614 -15.990675 0 CFG=1 CHG=1
M  V30 5 C 10.062698 -0.286312 -16.050499 0
M  V30 6 C 10.934591 0.804218 -16.675028 0
M  V30 7 C 10.761246 2.196831 -16.074699 0
M  V30 8 C 11.662084 3.250600 -16.295408 0
M  V30 9 C 11.379924 4.523057 -15.781869 0
M  V30 10 C 10.217983 4.736748 -15.021348 0
M  V30 11 C 9.288987 3.709105 -14.706511 0
M  V30 12 C 9.586472 2.452275 -15.308410 0
M  V30 13 C 8.564416 1.325321 -15.054417 0 CFG=1
M  V30 14 C 7.118027 1.837614 -14.915342 0
M  V30 15 C 7.017258 2.992139 -13.947880 0
M  V30 16 C 5.857673 3.103566 -13.153846 0
M  V30 17 C 5.736823 4.161788 -12.248427 0
M  V30 18 C 6.760107 5.105938 -12.148581 0
M  V30 19 C 7.951580 4.970673 -12.892622 0
M  V30 20 O 8.951248 5.876386 -12.644679 0
M  V30 21 C 9.514093 5.921651 -11.419851 0
M  V30 22 O 9.312990 5.121638 -10.499925 0
M  V30 23 C 10.484324 7.093244 -11.280286 0
M  V30 24 N 10.891249 7.256785 -9.890118 0
M  V30 25 C 10.400551 8.255864 -9.076554 0
M  V30 26 O 9.673522 9.184375 -9.422631 0
M  V30 27 O 10.845127 8.042781 -7.829509 0
M  V30 28 C 10.419232 8.898689 -6.783016 0
M  V30 29 C 11.087953 8.582582 -5.460161 0
M  V30 30 C 11.283010 7.245948 -5.046994 0
M  V30 31 C 11.865839 6.973220 -3.793790 0
M  V30 32 C 12.258375 8.031947 -2.952441 0
M  V30 33 C 12.066530 9.365070 -3.362953 0
M  V30 34 C 11.471025 9.638412 -4.608446 0
M  V30 35 C 8.087604 3.918714 -13.846827 0
M  V30 36 H 5.027423 -0.527337 -18.866188 0
M  V30 37 H 6.625810 -0.507034 -19.609945 0
M  V30 38 H 5.892690 0.996591 -19.041719 0
M  V30 39 H 5.976949 0.131429 -16.686518 0
M  V30 40 H 6.718496 -1.348260 -17.239660 0
M  V30 41 H 8.667984 -0.123714 -18.100454 0
M  V30 42 H 8.029731 1.415898 -17.606993 0
M  V30 43 H 10.413673 -0.517851 -15.043016 0
M  V30 44 H 10.139345 -1.215551 -16.618404 0
M  V30 45 H 11.986696 0.522766 -16.604195 0
M  V30 46 H 10.733695 0.884113 -17.746021 0
M  V30 47 H 12.554383 3.093002 -16.885506 0
M  V30 48 H 12.058548 5.341020 -15.973014 0
M  V30 49 H 10.060402 5.746649 -14.685231 0
M  V30 50 H 8.837070 0.932923 -14.072983 0
M  V30 51 H 6.738994 2.209057 -15.869080 0
M  V30 52 H 6.460276 1.027977 -14.595092 0
M  V30 53 H 5.065343 2.374372 -13.230757 0
M  V30 54 H 4.885223 4.253751 -11.601177 0
M  V30 55 H 6.656891 5.916157 -11.442438 0
M  V30 56 H 11.363003 6.909765 -11.898302 0
M  V30 57 H 10.006716 8.000380 -11.654959 0
M  V30 58 H 11.420379 6.526691 -9.438191 0
M  V30 59 H 10.636993 9.934196 -7.046973 0
M  V30 60 H 9.338707 8.814495 -6.661530 0
M  V30 61 H 10.976688 6.428936 -5.680783 0
M  V30 62 H 12.006394 5.951720 -3.474342 0
M  V30 63 H 12.697020 7.823440 -1.989945 0
M  V30 64 H 12.358546 10.172614 -2.710031 0
M  V30 65 H 11.296331 10.660850 -4.908490 0
M  V30 66 H 8.148398 -0.593545 -15.569757 0
M  V30 END ATOM
M  V30 BEGIN BOND
M  V30 1 1 2 1
M  V30 2 1 3 2
M  V30 3 1 4 3
M  V30 4 1 5 4
M  V30 5 1 6 5
M  V30 6 1 7 6
M  V30 7 1 8 7
M  V30 8 2 9 8
M  V30 9 1 10 9
M  V30 10 2 11 10
M  V30 11 2 12 7
M  V30 12 1 12 11
M  V30 13 1 13 4
M  V30 14 1 13 12
M  V30 15 1 14 13
M  V30 16 1 15 14
M  V30 17 1 16 15
M  V30 18 2 17 16
M  V30 19 1 18 17
M  V30 20 2 19 18
M  V30 21 1 20 19
M  V30 22 1 21 20
M  V30 23 2 22 21
M  V30 24 1 23 21
M  V30 25 1 24 23
M  V30 26 1 25 24
M  V30 27 2 26 25
M  V30 28 1 27 25
M  V30 29 1 28 27
M  V30 30 1 29 28
M  V30 31 2 30 29
M  V30 32 1 31 30
M  V30 33 2 32 31
M  V30 34 1 33 32
M  V30 35 1 34 29
M  V30 36 2 34 33
M  V30 37 1 35 11
M  V30 38 2 35 15
M  V30 39 1 35 19
M  V30 40 1 36 1
M  V30 41 1 37 1
M  V30 42 1 38 1
M  V30 43 1 39 2
M  V30 44 1 40 2
M  V30 45 1 41 3
M  V30 46 1 42 3
M  V30 47 1 43 5
M  V30 48 1 44 5
M  V30 49 1 45 6
M  V30 50 1 46 6
M  V30 51 1 47 8
M  V30 52 1 48 9
M  V30 53 1 49 10
M  V30 54 1 13 50 CFG=1
M  V30 55 1 51 14
M  V30 56 1 52 14
M  V30 57 1 53 16
M  V30 58 1 54 17
M  V30 59 1 55 18
M  V30 60 1 56 23
M  V30 61 1 57 23
M  V30 62 1 58 24
M  V30 63 1 59 28
M  V30 64 1 60 28
M  V30 65 1 61 30
M  V30 66 1 62 31
M  V30 67 1 63 32
M  V30 68 1 64 33
M  V30 69 1 65 34
M  V30 70 1 4 66 CFG=1
M  V30 END BOND
M  V30 END CTAB
M  END
>  <b_m_subgroup_collapsed>  (910) 
0

>  <r_i_docking_score>  (910) 
-7.70977837920067

>  <s_m_subgroup_title>  (910) 
glide-dock_SP_D22_pv

>  <s_m_subgroupid>  (910) 
glide-dock_SP_D22_pv

>  <Molecule ChEMBL ID>  (910) 
CHEMBL478043

>  <Standard Type>  (910) 
Ki

>  <Standard Value>  (910) 
10000.0

>  <label>  (910) 
0

$$$$
CHEMBL3697998
     RDKit          3D

  0  0  0  0  0  0  0  0  0  0999 V3000
M  V30 BEGIN CTAB
M  V30 COUNTS 65 69 0 0 1
M  V30 BEGIN ATOM
M  V30 1 O 5.695788 -0.391916 -14.244349 0
M  V30 2 C 6.098704 0.059217 -15.317639 0
M  V30 3 N 6.885968 1.147890 -15.407979 0
M  V30 4 C 7.265921 1.979079 -14.269959 0 CFG=1
M  V30 5 C 8.569937 2.753493 -14.553335 0
M  V30 6 C 8.934276 3.726398 -13.411102 0
M  V30 7 C 7.762053 4.678199 -13.068721 0 CFG=2
M  V30 8 C 8.074633 5.712315 -11.966128 0
M  V30 9 C 8.432364 5.114936 -10.589622 0
M  V30 10 N 8.498109 6.107916 -9.485367 0 CHG=1
M  V30 11 C 8.905107 5.439229 -8.221231 0
M  V30 12 C 9.169955 6.399113 -7.046432 0
M  V30 13 N 10.011519 7.530669 -7.440273 0
M  V30 14 C 10.854680 8.211441 -6.512060 0
M  V30 15 C 11.425224 9.472085 -6.835591 0
M  V30 16 C 12.251513 10.173459 -5.938028 0
M  V30 17 C 12.584707 9.645902 -4.682604 0
M  V30 18 C 12.053218 8.407049 -4.357694 0
M  V30 19 C 11.226093 7.716142 -5.229114 0
M  V30 20 O 10.888552 6.560110 -4.617061 0
M  V30 21 C 11.572723 6.519390 -3.390582 0
M  V30 22 O 12.242677 7.722598 -3.207031 0
M  V30 23 C 9.475374 8.230488 -8.611822 0
M  V30 24 C 9.349220 7.278937 -9.803418 0
M  V30 25 C 6.464566 3.906986 -12.774920 0
M  V30 26 C 6.109659 2.936363 -13.904715 0
M  V30 27 C 5.625266 -0.531539 -16.615494 0
M  V30 28 C 4.434767 -1.291850 -16.660954 0
M  V30 29 C 4.015206 -1.828238 -17.890987 0
M  V30 30 C 4.808194 -1.598767 -19.033054 0
M  V30 31 N 5.959485 -0.893387 -19.004507 0
M  V30 32 C 6.357912 -0.386826 -17.817574 0
M  V30 33 H 7.168681 1.461807 -16.324074 0
M  V30 34 H 7.457692 1.296996 -13.447724 0
M  V30 35 H 9.391112 2.048420 -14.705797 0
M  V30 36 H 8.485874 3.319356 -15.480207 0
M  V30 37 H 9.259715 3.155841 -12.539622 0
M  V30 38 H 9.799929 4.315221 -13.717692 0
M  V30 39 H 7.579540 5.254530 -13.972611 0
M  V30 40 H 8.890208 6.341249 -12.319668 0
M  V30 41 H 7.215946 6.374899 -11.849738 0
M  V30 42 H 7.691006 4.373915 -10.298166 0
M  V30 43 H 9.384453 4.590477 -10.665768 0
M  V30 44 H 8.145461 4.708058 -7.933209 0
M  V30 45 H 9.822223 4.879234 -8.411440 0
M  V30 46 H 8.227602 6.775351 -6.648632 0
M  V30 47 H 9.625788 5.777274 -6.282860 0
M  V30 48 H 11.284242 9.960746 -7.779064 0
M  V30 49 H 12.658007 11.125338 -6.242502 0
M  V30 50 H 13.240392 10.161480 -3.999007 0
M  V30 51 H 10.882681 6.343364 -2.565914 0
M  V30 52 H 12.320431 5.731829 -3.413812 0
M  V30 53 H 8.499333 8.650630 -8.357614 0
M  V30 54 H 10.083735 9.050723 -8.971745 0
M  V30 55 H 10.338460 6.939024 -10.120303 0
M  V30 56 H 8.910570 7.838406 -10.630519 0
M  V30 57 H 6.535014 3.367195 -11.834600 0
M  V30 58 H 5.643438 4.611022 -12.641953 0
M  V30 59 H 5.827607 3.521563 -14.775553 0
M  V30 60 H 5.227298 2.367046 -13.615498 0
M  V30 61 H 3.842881 -1.463808 -15.772852 0
M  V30 62 H 3.113181 -2.422093 -17.950027 0
M  V30 63 H 4.512283 -1.998213 -19.993338 0
M  V30 64 H 7.286779 0.164509 -17.846064 0
M  V30 65 H 7.566278 6.498255 -9.356556 0
M  V30 END ATOM
M  V30 BEGIN BOND
M  V30 1 2 2 1
M  V30 2 1 3 2
M  V30 3 1 4 3
M  V30 4 1 5 4
M  V30 5 1 6 5
M  V30 6 1 7 6
M  V30 7 1 8 7
M  V30 8 1 9 8
M  V30 9 1 10 9
M  V30 10 1 11 10
M  V30 11 1 12 11
M  V30 12 1 13 12
M  V30 13 1 14 13
M  V30 14 2 15 14
M  V30 15 1 16 15
M  V30 16 2 17 16
M  V30 17 1 18 17
M  V30 18 1 19 14
M  V30 19 2 19 18
M  V30 20 1 20 19
M  V30 21 1 21 20
M  V30 22 1 22 18
M  V30 23 1 22 21
M  V30 24 1 23 13
M  V30 25 1 24 10
M  V30 26 1 24 23
M  V30 27 1 25 7
M  V30 28 1 26 4
M  V30 29 1 26 25
M  V30 30 1 27 2
M  V30 31 2 28 27
M  V30 32 1 29 28
M  V30 33 2 30 29
M  V30 34 1 31 30
M  V30 35 1 32 27
M  V30 36 2 32 31
M  V30 37 1 33 3
M  V30 38 1 4 34 CFG=1
M  V30 39 1 35 5
M  V30 40 1 36 5
M  V30 41 1 37 6
M  V30 42 1 38 6
M  V30 43 1 7 39 CFG=3
M  V30 44 1 40 8
M  V30 45 1 41 8
M  V30 46 1 42 9
M  V30 47 1 43 9
M  V30 48 1 44 11
M  V30 49 1 45 11
M  V30 50 1 46 12
M  V30 51 1 47 12
M  V30 52 1 48 15
M  V30 53 1 49 16
M  V30 54 1 50 17
M  V30 55 1 51 21
M  V30 56 1 52 21
M  V30 57 1 53 23
M  V30 58 1 54 23
M  V30 59 1 55 24
M  V30 60 1 56 24
M  V30 61 1 57 25
M  V30 62 1 58 25
M  V30 63 1 59 26
M  V30 64 1 60 26
M  V30 65 1 61 28
M  V30 66 1 62 29
M  V30 67 1 63 30
M  V30 68 1 64 32
M  V30 69 1 65 10
M  V30 END BOND
M  V30 END CTAB
M  END
>  <b_m_subgroup_collapsed>  (911) 
0

>  <r_i_docking_score>  (911) 
-7.7084294036529704

>  <s_m_subgroup_title>  (911) 
glide-dock_SP_D22_pv

>  <s_m_subgroupid>  (911) 
glide-dock_SP_D22_pv

>  <Molecule ChEMBL ID>  (911) 
CHEMBL3697998

>  <Standard Type>  (911) 
Ki

>  <Standard Value>  (911) 
88.19

>  <label>  (911) 
1

$$$$
CHEMBL307444
     RDKit          3D

  0  0  0  0  0  0  0  0  0  0999 V3000
M  V30 BEGIN CTAB
M  V30 COUNTS 52 54 0 0 1
M  V30 BEGIN ATOM
M  V30 1 C 11.359389 3.446891 -14.697546 0
M  V30 2 C 10.658079 2.298939 -14.803256 0
M  V30 3 C 9.213445 2.010309 -14.646520 0
M  V30 4 C 8.240266 2.958145 -14.245795 0
M  V30 5 C 6.886052 2.593499 -14.111069 0
M  V30 6 C 6.486858 1.267516 -14.348225 0
M  V30 7 C 7.438742 0.312266 -14.740541 0
M  V30 8 C 8.787303 0.684153 -14.894657 0
M  V30 9 C 10.865991 4.848216 -14.405505 0
M  V30 10 O 10.682117 5.015474 -13.009352 0
M  V30 11 C 10.126289 6.273088 -12.665496 0
M  V30 12 C 10.138369 6.525937 -11.150409 0 CFG=1
M  V30 13 C 9.508574 7.887262 -10.832046 0
M  V30 14 C 9.530530 8.170568 -9.325999 0
M  V30 15 N 8.886158 7.081790 -8.543406 0 CFG=2 CHG=1
M  V30 16 C 8.755758 7.377316 -7.091517 0
M  V30 17 C 10.024825 7.805189 -6.347644 0
M  V30 18 C 10.485627 9.132488 -6.438075 0
M  V30 19 C 11.509175 9.612036 -5.600992 0
M  V30 20 C 12.086932 8.752774 -4.649416 0
M  V30 21 C 11.685934 7.405289 -4.592680 0
M  V30 22 C 10.669063 6.935318 -5.446885 0
M  V30 23 C 9.466901 5.746418 -8.831177 0
M  V30 24 C 9.414377 5.436737 -10.339304 0
M  V30 25 H 12.429082 3.380045 -14.834053 0
M  V30 26 H 11.255099 1.426687 -15.027911 0
M  V30 27 H 8.493582 3.972905 -14.000577 0
M  V30 28 H 6.158688 3.331353 -13.802601 0
M  V30 29 H 5.451274 0.982788 -14.233390 0
M  V30 30 H 7.133765 -0.708276 -14.922946 0
M  V30 31 H 9.499137 -0.069613 -15.196745 0
M  V30 32 H 11.621855 5.552125 -14.756078 0
M  V30 33 H 9.965216 5.067602 -14.978019 0
M  V30 34 H 10.726826 7.054893 -13.128922 0
M  V30 35 H 9.108078 6.341667 -13.047439 0
M  V30 36 H 11.179022 6.573127 -10.828186 0
M  V30 37 H 10.043851 8.678308 -11.355776 0
M  V30 38 H 8.485963 7.917336 -11.204122 0
M  V30 39 H 9.015424 9.111805 -9.130918 0
M  V30 40 H 10.568572 8.291967 -9.013992 0
M  V30 41 H 8.034254 8.184885 -6.981113 0
M  V30 42 H 8.301275 6.521656 -6.593003 0
M  V30 43 H 10.015395 9.788866 -7.143917 0
M  V30 44 H 11.832554 10.638885 -5.674176 0
M  V30 45 H 12.861010 9.117183 -3.990773 0
M  V30 46 H 12.143220 6.732648 -3.880875 0
M  V30 47 H 10.343981 5.914890 -5.351889 0
M  V30 48 H 8.910838 4.981546 -8.287363 0
M  V30 49 H 10.496023 5.706651 -8.471378 0
M  V30 50 H 8.376271 5.356793 -10.663172 0
M  V30 51 H 9.867524 4.462404 -10.525720 0
M  V30 52 H 7.925038 7.043596 -8.876883 0
M  V30 END ATOM
M  V30 BEGIN BOND
M  V30 1 2 2 1
M  V30 2 1 3 2
M  V30 3 2 4 3
M  V30 4 1 5 4
M  V30 5 2 6 5
M  V30 6 1 7 6
M  V30 7 1 8 3
M  V30 8 2 8 7
M  V30 9 1 9 1
M  V30 10 1 10 9
M  V30 11 1 11 10
M  V30 12 1 12 11
M  V30 13 1 13 12
M  V30 14 1 14 13
M  V30 15 1 15 14
M  V30 16 1 16 15
M  V30 17 1 17 16
M  V30 18 2 18 17
M  V30 19 1 19 18
M  V30 20 2 20 19
M  V30 21 1 21 20
M  V30 22 1 22 17
M  V30 23 2 22 21
M  V30 24 1 23 15
M  V30 25 1 24 12
M  V30 26 1 24 23
M  V30 27 1 25 1
M  V30 28 1 26 2
M  V30 29 1 27 4
M  V30 30 1 28 5
M  V30 31 1 29 6
M  V30 32 1 30 7
M  V30 33 1 31 8
M  V30 34 1 32 9
M  V30 35 1 33 9
M  V30 36 1 34 11
M  V30 37 1 35 11
M  V30 38 1 12 36 CFG=1
M  V30 39 1 37 13
M  V30 40 1 38 13
M  V30 41 1 39 14
M  V30 42 1 40 14
M  V30 43 1 41 16
M  V30 44 1 42 16
M  V30 45 1 43 18
M  V30 46 1 44 19
M  V30 47 1 45 20
M  V30 48 1 46 21
M  V30 49 1 47 22
M  V30 50 1 48 23
M  V30 51 1 49 23
M  V30 52 1 50 24
M  V30 53 1 51 24
M  V30 54 1 15 52 CFG=3
M  V30 END BOND
M  V30 END CTAB
M  END
>  <b_m_subgroup_collapsed>  (912) 
0

>  <r_i_docking_score>  (912) 
-7.7075492323193897

>  <s_m_subgroup_title>  (912) 
glide-dock_SP_D22_pv

>  <s_m_subgroupid>  (912) 
glide-dock_SP_D22_pv

>  <Molecule ChEMBL ID>  (912) 
CHEMBL307444

>  <Standard Type>  (912) 
Ki

>  <Standard Value>  (912) 
10000.0

>  <label>  (912) 
0

$$$$
CHEMBL485720
     RDKit          3D

  0  0  0  0  0  0  0  0  0  0999 V3000
M  V30 BEGIN CTAB
M  V30 COUNTS 62 65 0 0 1
M  V30 BEGIN ATOM
M  V30 1 C 3.750016 -1.709436 -17.850359 0
M  V30 2 O 4.964949 -1.046847 -17.540680 0
M  V30 3 C 5.152472 -0.604008 -16.249491 0
M  V30 4 C 4.174731 -0.686445 -15.227365 0
M  V30 5 C 4.446694 -0.171281 -13.945660 0
M  V30 6 C 5.698777 0.410985 -13.659266 0
M  V30 7 C 6.685490 0.486057 -14.664407 0
M  V30 8 C 8.046535 1.110070 -14.386895 0
M  V30 9 C 7.986101 2.654094 -14.381489 0
M  V30 10 C 9.333438 3.376795 -14.270778 0
M  V30 11 C 10.423544 2.930944 -15.052709 0
M  V30 12 C 11.654912 3.604088 -15.029301 0
M  V30 13 C 11.812901 4.742331 -14.221993 0
M  V30 14 C 10.735553 5.204747 -13.447603 0
M  V30 15 C 9.482471 4.538853 -13.460646 0
M  V30 16 O 8.391563 4.982855 -12.734219 0
M  V30 17 C 8.439672 6.261411 -12.091550 0
M  V30 18 C 9.097303 6.195643 -10.699183 0
M  V30 19 C 9.371175 7.588374 -10.073449 0
M  V30 20 N 9.915810 7.496376 -8.693923 0 CFG=2 CHG=1
M  V30 21 C 8.933737 7.045333 -7.682165 0
M  V30 22 C 9.730634 6.495568 -6.506187 0
M  V30 23 C 10.745851 7.484045 -5.974564 0
M  V30 24 C 11.285870 7.306335 -4.683871 0
M  V30 25 C 12.160010 8.264955 -4.148269 0
M  V30 26 C 12.537401 9.372082 -4.930356 0
M  V30 27 C 12.053778 9.513821 -6.244769 0
M  V30 28 C 11.153643 8.568681 -6.783085 0
M  V30 29 C 10.609451 8.722871 -8.210735 0
M  V30 30 C 6.398552 -0.016485 -15.951777 0
M  V30 31 H 3.752990 -1.985026 -18.904142 0
M  V30 32 H 3.649771 -2.626534 -17.269466 0
M  V30 33 H 2.886881 -1.065024 -17.681734 0
M  V30 34 H 3.206388 -1.128914 -15.408607 0
M  V30 35 H 3.683500 -0.224570 -13.183188 0
M  V30 36 H 5.897352 0.800775 -12.671325 0
M  V30 37 H 8.731350 0.746376 -15.152538 0
M  V30 38 H 8.434191 0.726918 -13.447005 0
M  V30 39 H 7.314076 2.976245 -13.586239 0
M  V30 40 H 7.526074 2.972666 -15.315372 0
M  V30 41 H 10.325582 2.076293 -15.703533 0
M  V30 42 H 12.477236 3.255810 -15.636567 0
M  V30 43 H 12.759757 5.263935 -14.197254 0
M  V30 44 H 10.903425 6.087782 -12.852478 0
M  V30 45 H 8.914529 7.011044 -12.720727 0
M  V30 46 H 7.407621 6.594872 -11.976975 0
M  V30 47 H 8.440519 5.596530 -10.068932 0
M  V30 48 H 10.032931 5.642498 -10.756764 0
M  V30 49 H 10.100022 8.100813 -10.703360 0
M  V30 50 H 8.486038 8.221187 -10.074335 0
M  V30 51 H 8.297434 7.875519 -7.372136 0
M  V30 52 H 8.267001 6.270154 -8.055849 0
M  V30 53 H 10.287219 5.629038 -6.850489 0
M  V30 54 H 9.062453 6.172955 -5.709007 0
M  V30 55 H 10.996670 6.456882 -4.083826 0
M  V30 56 H 12.554622 8.147498 -3.148484 0
M  V30 57 H 13.225516 10.098281 -4.530128 0
M  V30 58 H 12.362913 10.367249 -6.819431 0
M  V30 59 H 11.425778 8.983337 -8.884734 0
M  V30 60 H 9.900902 9.547042 -8.217573 0
M  V30 61 H 7.146216 0.040231 -16.729881 0
M  V30 62 H 10.623282 6.775351 -8.729984 0
M  V30 END ATOM
M  V30 BEGIN BOND
M  V30 1 1 2 1
M  V30 2 1 3 2
M  V30 3 2 4 3
M  V30 4 1 5 4
M  V30 5 2 6 5
M  V30 6 1 7 6
M  V30 7 1 8 7
M  V30 8 1 9 8
M  V30 9 1 10 9
M  V30 10 2 11 10
M  V30 11 1 12 11
M  V30 12 2 13 12
M  V30 13 1 14 13
M  V30 14 1 15 10
M  V30 15 2 15 14
M  V30 16 1 16 15
M  V30 17 1 17 16
M  V30 18 1 18 17
M  V30 19 1 19 18
M  V30 20 1 20 19
M  V30 21 1 21 20
M  V30 22 1 22 21
M  V30 23 1 23 22
M  V30 24 2 24 23
M  V30 25 1 25 24
M  V30 26 2 26 25
M  V30 27 1 27 26
M  V30 28 1 28 23
M  V30 29 2 28 27
M  V30 30 1 29 20
M  V30 31 1 29 28
M  V30 32 1 30 3
M  V30 33 2 30 7
M  V30 34 1 31 1
M  V30 35 1 32 1
M  V30 36 1 33 1
M  V30 37 1 34 4
M  V30 38 1 35 5
M  V30 39 1 36 6
M  V30 40 1 37 8
M  V30 41 1 38 8
M  V30 42 1 39 9
M  V30 43 1 40 9
M  V30 44 1 41 11
M  V30 45 1 42 12
M  V30 46 1 43 13
M  V30 47 1 44 14
M  V30 48 1 45 17
M  V30 49 1 46 17
M  V30 50 1 47 18
M  V30 51 1 48 18
M  V30 52 1 49 19
M  V30 53 1 50 19
M  V30 54 1 51 21
M  V30 55 1 52 21
M  V30 56 1 53 22
M  V30 57 1 54 22
M  V30 58 1 55 24
M  V30 59 1 56 25
M  V30 60 1 57 26
M  V30 61 1 58 27
M  V30 62 1 59 29
M  V30 63 1 60 29
M  V30 64 1 61 30
M  V30 65 1 20 62 CFG=3
M  V30 END BOND
M  V30 END CTAB
M  END
>  <b_m_subgroup_collapsed>  (913) 
0

>  <r_i_docking_score>  (913) 
-7.7072638342311999

>  <s_m_subgroup_title>  (913) 
glide-dock_SP_D22_pv

>  <s_m_subgroupid>  (913) 
glide-dock_SP_D22_pv

>  <Molecule ChEMBL ID>  (913) 
CHEMBL485720

>  <Standard Type>  (913) 
Ki

>  <Standard Value>  (913) 
114000.0

>  <label>  (913) 
0

$$$$
CHEMBL46559
     RDKit          3D

  0  0  0  0  0  0  0  0  0  0999 V3000
M  V30 BEGIN CTAB
M  V30 COUNTS 46 48 0 0 1
M  V30 BEGIN ATOM
M  V30 1 N 10.204898 0.626163 -15.615040 0
M  V30 2 C 10.267495 1.657404 -15.091236 0
M  V30 3 C 10.347366 2.950357 -14.429605 0
M  V30 4 C 9.306066 3.377903 -13.584668 0
M  V30 5 C 9.407880 4.599749 -12.889957 0
M  V30 6 C 10.556139 5.417166 -13.047136 0
M  V30 7 O 10.768140 6.600230 -12.370270 0
M  V30 8 C 9.863286 6.945729 -11.331143 0
M  V30 9 C 10.355026 8.240617 -10.650569 0 CFG=1
M  V30 10 C 9.285469 8.885617 -9.774180 0
M  V30 11 C 9.020129 8.067914 -8.511348 0
M  V30 12 N 10.261933 7.954708 -7.707921 0 CFG=1 CHG=1
M  V30 13 C 10.011056 7.276957 -6.419113 0
M  V30 14 C 10.932196 7.762946 -5.314728 0
M  V30 15 C 11.009796 9.135785 -4.988533 0
M  V30 16 C 11.685374 9.537577 -3.818169 0
M  V30 17 C 12.300555 8.586229 -2.984295 0
M  V30 18 F 12.887421 8.972292 -1.828893 0
M  V30 19 C 12.278544 7.227103 -3.344049 0
M  V30 20 C 11.604231 6.821164 -4.510051 0
M  V30 21 C 11.404179 7.372199 -8.465188 0
M  V30 22 C 11.644436 8.081682 -9.815428 0
M  V30 23 C 11.576287 4.997674 -13.926329 0
M  V30 24 C 11.477469 3.771931 -14.612926 0
M  V30 25 H 8.431123 2.759480 -13.446449 0
M  V30 26 H 8.594976 4.878975 -12.237376 0
M  V30 27 H 9.779813 6.134524 -10.607325 0
M  V30 28 H 8.874493 7.117960 -11.760076 0
M  V30 29 H 10.547110 8.953941 -11.443521 0
M  V30 30 H 9.645994 9.862925 -9.471933 0
M  V30 31 H 8.376331 9.054522 -10.347452 0
M  V30 32 H 8.627563 7.080331 -8.757482 0
M  V30 33 H 8.252872 8.572515 -7.922113 0
M  V30 34 H 10.074044 6.194562 -6.541557 0
M  V30 35 H 8.994088 7.479428 -6.078619 0
M  V30 36 H 10.488547 9.876484 -5.578322 0
M  V30 37 H 11.685555 10.572353 -3.520382 0
M  V30 38 H 12.748594 6.491943 -2.706453 0
M  V30 39 H 11.546956 5.771830 -4.744910 0
M  V30 40 H 12.306678 7.446792 -7.855773 0
M  V30 41 H 11.251057 6.307585 -8.632606 0
M  V30 42 H 12.058837 9.072446 -9.618266 0
M  V30 43 H 12.405087 7.552881 -10.389079 0
M  V30 44 H 12.456276 5.613222 -14.051683 0
M  V30 45 H 12.283059 3.459115 -15.261802 0
M  V30 46 H 10.520005 8.902821 -7.481366 0
M  V30 END ATOM
M  V30 BEGIN BOND
M  V30 1 3 2 1
M  V30 2 1 3 2
M  V30 3 1 4 3
M  V30 4 2 5 4
M  V30 5 1 6 5
M  V30 6 1 7 6
M  V30 7 1 8 7
M  V30 8 1 9 8
M  V30 9 1 10 9
M  V30 10 1 11 10
M  V30 11 1 12 11
M  V30 12 1 13 12
M  V30 13 1 14 13
M  V30 14 1 15 14
M  V30 15 2 16 15
M  V30 16 1 17 16
M  V30 17 1 18 17
M  V30 18 2 19 17
M  V30 19 2 20 14
M  V30 20 1 20 19
M  V30 21 1 21 12
M  V30 22 1 22 9
M  V30 23 1 22 21
M  V30 24 2 23 6
M  V30 25 2 24 3
M  V30 26 1 24 23
M  V30 27 1 25 4
M  V30 28 1 26 5
M  V30 29 1 27 8
M  V30 30 1 28 8
M  V30 31 1 9 29 CFG=3
M  V30 32 1 30 10
M  V30 33 1 31 10
M  V30 34 1 32 11
M  V30 35 1 33 11
M  V30 36 1 34 13
M  V30 37 1 35 13
M  V30 38 1 36 15
M  V30 39 1 37 16
M  V30 40 1 38 19
M  V30 41 1 39 20
M  V30 42 1 40 21
M  V30 43 1 41 21
M  V30 44 1 42 22
M  V30 45 1 43 22
M  V30 46 1 44 23
M  V30 47 1 45 24
M  V30 48 1 12 46 CFG=1
M  V30 END BOND
M  V30 END CTAB
M  END
>  <b_m_subgroup_collapsed>  (914) 
0

>  <r_i_docking_score>  (914) 
-7.7055778925157696

>  <s_m_subgroup_title>  (914) 
glide-dock_SP_D22_pv

>  <s_m_subgroupid>  (914) 
glide-dock_SP_D22_pv

>  <Molecule ChEMBL ID>  (914) 
CHEMBL46559

>  <Standard Type>  (914) 
Ki

>  <Standard Value>  (914) 
10000.0

>  <label>  (914) 
0

$$$$
CHEMBL1771108
     RDKit          3D

  0  0  0  0  0  0  0  0  0  0999 V3000
M  V30 BEGIN CTAB
M  V30 COUNTS 71 75 0 0 1
M  V30 BEGIN ATOM
M  V30 1 C 11.821081 11.222656 -6.246834 0
M  V30 2 O 11.383570 9.930952 -6.575434 0
M  V30 3 C 11.462390 8.986202 -5.576102 0
M  V30 4 C 12.125669 9.225040 -4.339000 0
M  V30 5 C 12.237592 8.223138 -3.363961 0
M  V30 6 C 11.686176 6.962503 -3.614753 0
M  V30 7 C 11.015820 6.724558 -4.826890 0
M  V30 8 C 10.880077 7.717511 -5.820929 0
M  V30 9 N 10.187306 7.440405 -7.024197 0
M  V30 10 C 10.004541 6.066129 -7.473544 0
M  V30 11 C 9.901125 5.984164 -9.005598 0
M  V30 12 N 8.946563 6.975855 -9.572547 0 CHG=1
M  V30 13 C 8.900714 6.919435 -11.053112 0
M  V30 14 C 8.019318 5.764034 -11.568918 0
M  V30 15 C 8.498128 5.220017 -12.920871 0
M  V30 16 C 9.706865 4.270685 -12.784514 0
M  V30 17 N 10.367209 4.068959 -14.077457 0
M  V30 18 C 9.887431 2.920008 -14.855795 0
M  V30 19 C 10.898971 2.416189 -15.895496 0
M  V30 20 C 11.560588 3.564826 -16.640751 0
M  V30 21 C 11.757873 4.787083 -15.951584 0
M  V30 22 C 12.396161 5.861245 -16.609283 0
M  V30 23 C 12.812761 5.728692 -17.944525 0
M  V30 24 C 12.589008 4.523028 -18.631926 0
M  V30 25 C 11.961687 3.431144 -17.995934 0
M  V30 26 C 11.718087 2.207471 -18.775743 0
M  V30 27 C 10.696096 2.181798 -19.748640 0
M  V30 28 C 10.449314 1.017644 -20.500801 0
M  V30 29 C 11.225439 -0.136239 -20.286009 0
M  V30 30 C 12.247860 -0.123279 -19.318705 0
M  V30 31 C 12.491828 1.045270 -18.572567 0
M  V30 32 C 11.288368 4.955145 -14.529929 0
M  V30 33 O 11.685491 5.907616 -13.854029 0
M  V30 34 C 9.211844 8.346428 -9.062162 0
M  V30 35 C 9.170882 8.359062 -7.526957 0
M  V30 36 H 11.685721 11.934993 -7.050076 0
M  V30 37 H 11.286153 11.581214 -5.364254 0
M  V30 38 H 12.885953 11.169410 -6.083102 0
M  V30 39 H 12.581930 10.172030 -4.102859 0
M  V30 40 H 12.746775 8.422116 -2.431947 0
M  V30 41 H 11.754912 6.179356 -2.873060 0
M  V30 42 H 10.550864 5.772312 -4.960629 0
M  V30 43 H 9.088686 5.677340 -7.031115 0
M  V30 44 H 10.835720 5.442584 -7.146590 0
M  V30 45 H 9.626642 4.970844 -9.298756 0
M  V30 46 H 10.887233 6.174670 -9.429057 0
M  V30 47 H 9.918134 6.853692 -11.441512 0
M  V30 48 H 8.497578 7.852116 -11.450424 0
M  V30 49 H 6.999168 6.138552 -11.671961 0
M  V30 50 H 7.960594 4.941391 -10.855947 0
M  V30 51 H 8.729621 6.055886 -13.580546 0
M  V30 52 H 7.683047 4.679272 -13.404034 0
M  V30 53 H 9.384593 3.320776 -12.358960 0
M  V30 54 H 10.427436 4.661935 -12.066109 0
M  V30 55 H 8.983132 3.240274 -15.370800 0
M  V30 56 H 9.599176 2.092912 -14.206412 0
M  V30 57 H 10.391998 1.732740 -16.576674 0
M  V30 58 H 11.683490 1.841376 -15.403208 0
M  V30 59 H 12.562250 6.799114 -16.097977 0
M  V30 60 H 13.293485 6.556915 -18.445299 0
M  V30 61 H 12.900672 4.436410 -19.662918 0
M  V30 62 H 10.095173 3.064022 -19.918186 0
M  V30 63 H 9.665437 1.011324 -21.243811 0
M  V30 64 H 11.037272 -1.025392 -20.867748 0
M  V30 65 H 12.848919 -1.005548 -19.153337 0
M  V30 66 H 13.284035 1.052303 -17.840717 0
M  V30 67 H 10.187856 8.688207 -9.412368 0
M  V30 68 H 8.480741 9.049253 -9.457079 0
M  V30 69 H 8.191753 8.026954 -7.175478 0
M  V30 70 H 9.277872 9.372009 -7.155843 0
M  V30 71 H 8.003106 6.769144 -9.260077 0
M  V30 END ATOM
M  V30 BEGIN BOND
M  V30 1 1 2 1
M  V30 2 1 3 2
M  V30 3 2 4 3
M  V30 4 1 5 4
M  V30 5 2 6 5
M  V30 6 1 7 6
M  V30 7 1 8 3
M  V30 8 2 8 7
M  V30 9 1 9 8
M  V30 10 1 10 9
M  V30 11 1 11 10
M  V30 12 1 12 11
M  V30 13 1 13 12
M  V30 14 1 14 13
M  V30 15 1 15 14
M  V30 16 1 16 15
M  V30 17 1 17 16
M  V30 18 1 18 17
M  V30 19 1 19 18
M  V30 20 1 20 19
M  V30 21 2 21 20
M  V30 22 1 22 21
M  V30 23 2 23 22
M  V30 24 1 24 23
M  V30 25 1 25 20
M  V30 26 2 25 24
M  V30 27 1 26 25
M  V30 28 2 27 26
M  V30 29 1 28 27
M  V30 30 2 29 28
M  V30 31 1 30 29
M  V30 32 1 31 26
M  V30 33 2 31 30
M  V30 34 1 32 17
M  V30 35 1 32 21
M  V30 36 2 33 32
M  V30 37 1 34 12
M  V30 38 1 35 9
M  V30 39 1 35 34
M  V30 40 1 36 1
M  V30 41 1 37 1
M  V30 42 1 38 1
M  V30 43 1 39 4
M  V30 44 1 40 5
M  V30 45 1 41 6
M  V30 46 1 42 7
M  V30 47 1 43 10
M  V30 48 1 44 10
M  V30 49 1 45 11
M  V30 50 1 46 11
M  V30 51 1 47 13
M  V30 52 1 48 13
M  V30 53 1 49 14
M  V30 54 1 50 14
M  V30 55 1 51 15
M  V30 56 1 52 15
M  V30 57 1 53 16
M  V30 58 1 54 16
M  V30 59 1 55 18
M  V30 60 1 56 18
M  V30 61 1 57 19
M  V30 62 1 58 19
M  V30 63 1 59 22
M  V30 64 1 60 23
M  V30 65 1 61 24
M  V30 66 1 62 27
M  V30 67 1 63 28
M  V30 68 1 64 29
M  V30 69 1 65 30
M  V30 70 1 66 31
M  V30 71 1 67 34
M  V30 72 1 68 34
M  V30 73 1 69 35
M  V30 74 1 70 35
M  V30 75 1 71 12
M  V30 END BOND
M  V30 END CTAB
M  END
>  <b_m_subgroup_collapsed>  (915) 
0

>  <r_i_docking_score>  (915) 
-7.7046178379932098

>  <s_m_subgroup_title>  (915) 
glide-dock_SP_D22_pv

>  <s_m_subgroupid>  (915) 
glide-dock_SP_D22_pv

>  <Molecule ChEMBL ID>  (915) 
CHEMBL1771108

>  <Standard Type>  (915) 
Ki

>  <Standard Value>  (915) 
52.0

>  <label>  (915) 
1

$$$$
CHEMBL4474829
     RDKit          3D

  0  0  0  0  0  0  0  0  0  0999 V3000
M  V30 BEGIN CTAB
M  V30 COUNTS 55 59 0 0 1
M  V30 BEGIN ATOM
M  V30 1 C 3.937819 -1.756306 -16.336561 0
M  V30 2 C 5.256956 -1.679633 -15.553978 0
M  V30 3 C 5.318449 -0.440314 -14.659415 0
M  V30 4 O 4.415850 -0.226993 -13.846151 0
M  V30 5 N 6.397140 0.350697 -14.812459 0
M  V30 6 C 6.611587 1.632625 -14.246281 0
M  V30 7 N 5.710806 2.279348 -13.503851 0
M  V30 8 C 6.251741 3.513956 -13.199963 0
M  V30 9 C 5.502196 4.524574 -12.412771 0
M  V30 10 C 7.533084 3.520199 -13.721720 0
M  V30 11 C 8.609913 4.498320 -13.514862 0
M  V30 12 C 8.609377 5.627633 -12.738874 0
M  V30 13 N 9.905263 6.094226 -12.562014 0
M  V30 14 S 10.327340 7.371744 -11.448786 0
M  V30 15 O 9.422605 8.476896 -11.797153 0
M  V30 16 O 11.784213 7.532983 -11.565875 0
M  V30 17 C 9.939910 6.831989 -9.752112 0
M  V30 18 C 8.999960 5.788463 -9.575151 0
M  V30 19 C 8.511065 5.466716 -8.304449 0
M  V30 20 C 8.964845 6.172447 -7.187940 0
M  V30 21 C 9.984566 7.125135 -7.316012 0
M  V30 22 C 10.485641 7.710009 -6.136705 0
M  V30 23 C 11.534051 8.634989 -6.200476 0
M  V30 24 C 12.079274 8.972313 -7.445813 0
M  V30 25 C 11.537883 8.439179 -8.638300 0
M  V30 26 C 10.493592 7.475253 -8.597723 0
M  V30 27 C 10.734797 5.436421 -13.472092 0
M  V30 28 C 12.085314 5.610626 -13.847836 0
M  V30 29 C 12.658824 4.784695 -14.827584 0
M  V30 30 C 11.897238 3.761827 -15.414822 0
M  V30 31 C 10.557431 3.575886 -15.030843 0
M  V30 32 C 9.932357 4.416681 -14.076625 0
M  V30 33 N 7.730082 2.322453 -14.425026 0
M  V30 34 H 3.938509 -2.623631 -16.997490 0
M  V30 35 H 3.079265 -1.850725 -15.668736 0
M  V30 36 H 3.784885 -0.871833 -16.953556 0
M  V30 37 H 6.086004 -1.673215 -16.259823 0
M  V30 38 H 5.379414 -2.567961 -14.936335 0
M  V30 39 H 7.113122 0.025592 -15.444598 0
M  V30 40 H 5.974669 4.696352 -11.446933 0
M  V30 41 H 5.450969 5.474720 -12.945445 0
M  V30 42 H 4.486283 4.172159 -12.247194 0
M  V30 43 H 7.802320 6.076766 -12.176477 0
M  V30 44 H 8.587851 5.223588 -10.387083 0
M  V30 45 H 7.760214 4.701839 -8.189664 0
M  V30 46 H 8.550117 5.953364 -6.216876 0
M  V30 47 H 10.086584 7.425260 -5.176587 0
M  V30 48 H 11.942790 9.056388 -5.293516 0
M  V30 49 H 12.918013 9.648204 -7.446738 0
M  V30 50 H 11.974922 8.766253 -9.568380 0
M  V30 51 H 12.699907 6.383593 -13.412107 0
M  V30 52 H 13.686989 4.935089 -15.125026 0
M  V30 53 H 12.342379 3.114537 -16.156143 0
M  V30 54 H 9.991772 2.786558 -15.500216 0
M  V30 55 H 4.796544 1.926627 -13.254959 0
M  V30 END ATOM
M  V30 BEGIN BOND
M  V30 1 1 2 1
M  V30 2 1 3 2
M  V30 3 2 4 3
M  V30 4 1 5 3
M  V30 5 1 6 5
M  V30 6 1 7 6
M  V30 7 1 8 7
M  V30 8 1 9 8
M  V30 9 2 10 8
M  V30 10 1 11 10
M  V30 11 2 12 11
M  V30 12 1 13 12
M  V30 13 1 14 13
M  V30 14 2 15 14
M  V30 15 2 16 14
M  V30 16 1 17 14
M  V30 17 2 18 17
M  V30 18 1 19 18
M  V30 19 2 20 19
M  V30 20 1 21 20
M  V30 21 2 22 21
M  V30 22 1 23 22
M  V30 23 2 24 23
M  V30 24 1 25 24
M  V30 25 1 26 17
M  V30 26 1 26 21
M  V30 27 2 26 25
M  V30 28 1 27 13
M  V30 29 2 28 27
M  V30 30 1 29 28
M  V30 31 2 30 29
M  V30 32 1 31 30
M  V30 33 1 32 11
M  V30 34 1 32 27
M  V30 35 2 32 31
M  V30 36 2 33 6
M  V30 37 1 33 10
M  V30 38 1 34 1
M  V30 39 1 35 1
M  V30 40 1 36 1
M  V30 41 1 37 2
M  V30 42 1 38 2
M  V30 43 1 39 5
M  V30 44 1 40 9
M  V30 45 1 41 9
M  V30 46 1 42 9
M  V30 47 1 43 12
M  V30 48 1 44 18
M  V30 49 1 45 19
M  V30 50 1 46 20
M  V30 51 1 47 22
M  V30 52 1 48 23
M  V30 53 1 49 24
M  V30 54 1 50 25
M  V30 55 1 51 28
M  V30 56 1 52 29
M  V30 57 1 53 30
M  V30 58 1 54 31
M  V30 59 1 55 7
M  V30 END BOND
M  V30 END CTAB
M  END
>  <b_m_subgroup_collapsed>  (916) 
0

>  <r_i_docking_score>  (916) 
-7.7038542110329198

>  <s_m_subgroup_title>  (916) 
glide-dock_SP_D22_pv

>  <s_m_subgroupid>  (916) 
glide-dock_SP_D22_pv

>  <Molecule ChEMBL ID>  (916) 
CHEMBL4474829

>  <Standard Type>  (916) 
Ki

>  <Standard Value>  (916) 
10000.0

>  <label>  (916) 
0

$$$$
CHEMBL5722937
     RDKit          3D

  0  0  0  0  0  0  0  0  0  0999 V3000
M  V30 BEGIN CTAB
M  V30 COUNTS 41 43 0 0 1
M  V30 BEGIN ATOM
M  V30 1 C 11.533175 9.777182 -3.299084 0
M  V30 2 C 12.429153 9.179804 -4.382410 0
M  V30 3 C 11.648692 8.651941 -5.541462 0
M  V30 4 N 11.510586 9.308746 -6.683145 0
M  V30 5 C 10.863931 8.536860 -7.664193 0
M  V30 6 C 10.706475 9.078833 -9.048656 0
M  V30 7 C 9.252415 9.054267 -9.530973 0
M  V30 8 N 8.885545 7.795583 -10.146241 0
M  V30 9 C 9.507217 7.702504 -11.445622 0
M  V30 10 C 9.160274 6.413316 -12.182418 0
M  V30 11 C 10.060495 5.779219 -12.962027 0
M  V30 12 C 9.690266 4.534534 -13.669800 0
M  V30 13 O 10.502839 3.919779 -14.351629 0
M  V30 14 C 8.282330 4.066445 -13.487143 0
M  V30 15 C 7.819006 2.902440 -14.132280 0
M  V30 16 C 6.508643 2.441294 -13.901268 0
M  V30 17 F 6.086707 1.286521 -14.479645 0
M  V30 18 C 5.637981 3.165273 -13.059591 0
M  V30 19 C 6.084036 4.342609 -12.435575 0
M  V30 20 C 7.408754 4.789186 -12.642843 0
M  V30 21 N 7.872756 5.945382 -12.009410 0
M  V30 22 C 10.429360 7.327928 -7.187949 0
M  V30 23 S 10.892518 7.070640 -5.532115 0
M  V30 24 H 12.107371 10.191267 -2.474276 0
M  V30 25 H 10.900024 10.559519 -3.693203 0
M  V30 26 H 10.885616 8.998885 -2.884188 0
M  V30 27 H 13.031240 8.380270 -3.961300 0
M  V30 28 H 13.123837 9.938791 -4.746128 0
M  V30 29 H 11.073965 10.103222 -9.068311 0
M  V30 30 H 11.353365 8.559173 -9.750593 0
M  V30 31 H 8.596740 9.221288 -8.687758 0
M  V30 32 H 9.077993 9.844477 -10.245102 0
M  V30 33 H 7.835003 7.773678 -10.233020 0
M  V30 34 H 9.197232 8.518109 -12.098740 0
M  V30 35 H 10.588312 7.782900 -11.338766 0
M  V30 36 H 11.075846 6.145741 -13.067579 0
M  V30 37 H 8.470786 2.339219 -14.788854 0
M  V30 38 H 4.629692 2.811722 -12.892159 0
M  V30 39 H 5.423051 4.893877 -11.783789 0
M  V30 40 H 7.256115 6.435326 -11.370778 0
M  V30 41 H 9.873491 6.568967 -7.717134 0
M  V30 END ATOM
M  V30 BEGIN BOND
M  V30 1 1 2 1
M  V30 2 1 3 2
M  V30 3 2 4 3
M  V30 4 1 5 4
M  V30 5 1 6 5
M  V30 6 1 7 6
M  V30 7 1 8 7
M  V30 8 1 9 8
M  V30 9 1 10 9
M  V30 10 2 11 10
M  V30 11 1 12 11
M  V30 12 2 13 12
M  V30 13 1 14 12
M  V30 14 2 15 14
M  V30 15 1 16 15
M  V30 16 1 17 16
M  V30 17 2 18 16
M  V30 18 1 19 18
M  V30 19 1 20 14
M  V30 20 2 20 19
M  V30 21 1 21 10
M  V30 22 1 21 20
M  V30 23 2 22 5
M  V30 24 1 23 3
M  V30 25 1 23 22
M  V30 26 1 24 1
M  V30 27 1 25 1
M  V30 28 1 26 1
M  V30 29 1 27 2
M  V30 30 1 28 2
M  V30 31 1 29 6
M  V30 32 1 30 6
M  V30 33 1 31 7
M  V30 34 1 32 7
M  V30 35 1 33 8
M  V30 36 1 34 9
M  V30 37 1 35 9
M  V30 38 1 36 11
M  V30 39 1 37 15
M  V30 40 1 38 18
M  V30 41 1 39 19
M  V30 42 1 40 21
M  V30 43 1 41 22
M  V30 END BOND
M  V30 END CTAB
M  END
>  <b_m_subgroup_collapsed>  (917) 
0

>  <r_i_docking_score>  (917) 
-7.7012372151989501

>  <s_m_subgroup_title>  (917) 
glide-dock_SP_D22_pv

>  <s_m_subgroupid>  (917) 
glide-dock_SP_D22_pv

>  <Molecule ChEMBL ID>  (917) 
CHEMBL5722937

>  <Standard Type>  (917) 
Ki

>  <Standard Value>  (917) 
10000.0

>  <label>  (917) 
0

$$$$
CHEMBL135954
     RDKit          3D

  0  0  0  0  0  0  0  0  0  0999 V3000
M  V30 BEGIN CTAB
M  V30 COUNTS 48 50 0 0 1
M  V30 BEGIN ATOM
M  V30 1 C 9.663413 4.172667 -10.184902 0
M  V30 2 C 9.420126 4.686728 -8.773712 0
M  V30 3 C 8.573327 5.969771 -8.748625 0
M  V30 4 N 9.318240 7.253913 -8.982428 0 CFG=2 CHG=1
M  V30 5 C 10.236799 7.277278 -10.168606 0
M  V30 6 C 9.520924 7.098119 -11.533952 0
M  V30 7 C 10.398602 6.564765 -12.637027 0
M  V30 8 C 11.651704 6.972018 -13.023392 0
M  V30 9 C 12.178987 6.214768 -14.109894 0
M  V30 10 C 11.344773 5.208299 -14.514294 0
M  V30 11 S 9.885528 5.173341 -13.568192 0
M  V30 12 C 9.875284 7.847237 -7.711814 0 CFG=2
M  V30 13 C 10.716404 9.116067 -7.917978 0
M  V30 14 C 10.981806 9.845670 -6.591976 0
M  V30 15 C 11.324373 8.935616 -5.432756 0
M  V30 16 C 11.702518 9.504025 -4.200142 0
M  V30 17 C 12.096235 8.689542 -3.123811 0
M  V30 18 C 12.086903 7.292496 -3.274637 0
M  V30 19 O 12.474365 6.489298 -2.247011 0
M  V30 20 C 11.642599 6.722902 -4.480587 0
M  V30 21 C 11.239794 7.533807 -5.557910 0
M  V30 22 C 10.695010 6.883271 -6.819838 0
M  V30 23 H 10.088066 3.176474 -10.144263 0
M  V30 24 H 8.739268 4.172215 -10.763954 0
M  V30 25 H 10.371566 4.746646 -10.751533 0
M  V30 26 H 10.365650 4.780635 -8.249726 0
M  V30 27 H 8.862391 3.913659 -8.244132 0
M  V30 28 H 8.079747 6.048744 -7.779927 0
M  V30 29 H 7.760300 5.797111 -9.457663 0
M  V30 30 H 10.746541 8.233187 -10.260285 0
M  V30 31 H 11.047004 6.571691 -10.006953 0
M  V30 32 H 8.654850 6.445519 -11.436893 0
M  V30 33 H 9.101448 8.056671 -11.842710 0
M  V30 34 H 12.209758 7.776208 -12.572089 0
M  V30 35 H 13.149909 6.420732 -14.537642 0
M  V30 36 H 11.500719 4.483457 -15.300146 0
M  V30 37 H 8.994296 8.141316 -7.136970 0
M  V30 38 H 11.683892 8.846604 -8.344672 0
M  V30 39 H 10.232891 9.772116 -8.635627 0
M  V30 40 H 10.091005 10.366318 -6.288517 0
M  V30 41 H 11.761729 10.598178 -6.705229 0
M  V30 42 H 11.686109 10.572500 -4.075445 0
M  V30 43 H 12.402427 9.136914 -2.189190 0
M  V30 44 H 12.224889 5.582247 -2.362268 0
M  V30 45 H 11.596056 5.655834 -4.583555 0
M  V30 46 H 11.540416 6.470966 -7.370978 0
M  V30 47 H 10.069771 6.058050 -6.486417 0
M  V30 48 H 8.573141 7.890512 -9.241946 0
M  V30 END ATOM
M  V30 BEGIN BOND
M  V30 1 1 2 1
M  V30 2 1 3 2
M  V30 3 1 4 3
M  V30 4 1 5 4
M  V30 5 1 6 5
M  V30 6 1 7 6
M  V30 7 2 8 7
M  V30 8 1 9 8
M  V30 9 2 10 9
M  V30 10 1 11 7
M  V30 11 1 11 10
M  V30 12 1 12 4
M  V30 13 1 13 12
M  V30 14 1 14 13
M  V30 15 1 15 14
M  V30 16 1 16 15
M  V30 17 2 17 16
M  V30 18 1 18 17
M  V30 19 1 19 18
M  V30 20 2 20 18
M  V30 21 2 21 15
M  V30 22 1 21 20
M  V30 23 1 22 12
M  V30 24 1 22 21
M  V30 25 1 23 1
M  V30 26 1 24 1
M  V30 27 1 25 1
M  V30 28 1 26 2
M  V30 29 1 27 2
M  V30 30 1 28 3
M  V30 31 1 29 3
M  V30 32 1 30 5
M  V30 33 1 31 5
M  V30 34 1 32 6
M  V30 35 1 33 6
M  V30 36 1 34 8
M  V30 37 1 35 9
M  V30 38 1 36 10
M  V30 39 1 12 37 CFG=1
M  V30 40 1 38 13
M  V30 41 1 39 13
M  V30 42 1 40 14
M  V30 43 1 41 14
M  V30 44 1 42 16
M  V30 45 1 43 17
M  V30 46 1 44 19
M  V30 47 1 45 20
M  V30 48 1 46 22
M  V30 49 1 47 22
M  V30 50 1 4 48 CFG=3
M  V30 END BOND
M  V30 END CTAB
M  END
>  <b_m_subgroup_collapsed>  (918) 
0

>  <r_i_docking_score>  (918) 
-7.7011325644916004

>  <s_m_subgroup_title>  (918) 
glide-dock_SP_D22_pv

>  <s_m_subgroupid>  (918) 
glide-dock_SP_D22_pv

>  <Molecule ChEMBL ID>  (918) 
CHEMBL135954

>  <Standard Type>  (918) 
Ki

>  <Standard Value>  (918) 
0.76

>  <label>  (918) 
1

$$$$
CHEMBL3819434
     RDKit          3D

  0  0  0  0  0  0  0  0  0  0999 V3000
M  V30 BEGIN CTAB
M  V30 COUNTS 57 61 0 0 1
M  V30 BEGIN ATOM
M  V30 1 O 11.283182 9.694677 -7.707181 0
M  V30 2 C 10.915192 8.423222 -7.250068 0 CFG=1
M  V30 3 C 11.187262 8.373934 -5.751376 0
M  V30 4 C 11.336001 7.143538 -5.068244 0
M  V30 5 C 11.733395 7.140348 -3.719028 0
M  V30 6 C 11.938818 8.364283 -3.054365 0
M  V30 7 Cl 12.486121 8.411003 -1.446965 0
M  V30 8 C 11.685933 9.583203 -3.687673 0
M  V30 9 C 11.299859 9.588898 -5.028931 0
M  V30 10 C 9.419799 8.095992 -7.536638 0
M  V30 11 C 9.117012 7.681506 -9.002327 0 CFG=1
M  V30 12 C 9.457067 8.812181 -9.983613 0
M  V30 13 C 10.935769 8.558781 -10.348396 0
M  V30 14 C 11.298388 7.290690 -9.540467 0 CFG=1
M  V30 15 C 11.843251 7.531912 -8.104636 0
M  V30 16 N 10.009790 6.583902 -9.415083 0 CFG=2 CHG=1
M  V30 17 C 9.638709 5.917575 -10.691216 0
M  V30 18 C 8.425453 4.994149 -10.646918 0
M  V30 19 C 8.125216 4.415304 -12.048531 0
M  V30 20 C 9.284365 3.604781 -12.685447 0
M  V30 21 C 10.043852 4.337042 -13.748966 0
M  V30 22 N 11.011848 5.220497 -13.471192 0
M  V30 23 C 11.513293 5.770782 -14.645885 0
M  V30 24 C 12.515115 6.761136 -14.754993 0
M  V30 25 C 12.928392 7.243007 -16.012606 0
M  V30 26 C 12.348594 6.734447 -17.191011 0
M  V30 27 C 11.342225 5.753467 -17.111588 0
M  V30 28 C 10.928222 5.284631 -15.850585 0
M  V30 29 S 9.688210 4.097780 -15.464808 0
M  V30 30 H 12.193213 9.829098 -7.486225 0
M  V30 31 H 11.200843 6.196420 -5.572169 0
M  V30 32 H 11.893950 6.206173 -3.201442 0
M  V30 33 H 11.802808 10.510922 -3.144969 0
M  V30 34 H 11.125267 10.551300 -5.489111 0
M  V30 35 H 9.115600 7.259975 -6.904668 0
M  V30 36 H 8.781814 8.927866 -7.233150 0
M  V30 37 H 8.086040 7.352266 -9.046716 0
M  V30 38 H 9.294150 9.772479 -9.516783 0
M  V30 39 H 8.825262 8.770555 -10.871408 0
M  V30 40 H 11.595367 9.404549 -10.157324 0
M  V30 41 H 11.015071 8.351387 -11.417736 0
M  V30 42 H 12.032634 6.716587 -10.099254 0
M  V30 43 H 12.859859 7.927424 -8.142622 0
M  V30 44 H 11.927615 6.570689 -7.613309 0
M  V30 45 H 9.504996 6.633347 -11.502007 0
M  V30 46 H 10.485945 5.304878 -10.955364 0
M  V30 47 H 8.591371 4.193793 -9.925680 0
M  V30 48 H 7.554338 5.548782 -10.302115 0
M  V30 49 H 7.253977 3.770412 -11.944334 0
M  V30 50 H 7.803381 5.207187 -12.727080 0
M  V30 51 H 9.978231 3.243402 -11.925007 0
M  V30 52 H 8.885500 2.710180 -13.159225 0
M  V30 53 H 12.978626 7.146413 -13.859198 0
M  V30 54 H 13.689584 8.004540 -16.075365 0
M  V30 55 H 12.669306 7.109560 -18.153069 0
M  V30 56 H 10.883483 5.367609 -18.010801 0
M  V30 57 H 10.057135 5.880172 -8.692261 0
M  V30 END ATOM
M  V30 BEGIN BOND
M  V30 1 1 2 1 CFG=3
M  V30 2 1 3 2
M  V30 3 1 4 3
M  V30 4 2 5 4
M  V30 5 1 6 5
M  V30 6 1 7 6
M  V30 7 2 8 6
M  V30 8 2 9 3
M  V30 9 1 9 8
M  V30 10 1 10 2
M  V30 11 1 11 10
M  V30 12 1 12 11
M  V30 13 1 13 12
M  V30 14 1 14 13
M  V30 15 1 15 2
M  V30 16 1 15 14
M  V30 17 1 16 11
M  V30 18 1 16 14
M  V30 19 1 17 16
M  V30 20 1 18 17
M  V30 21 1 19 18
M  V30 22 1 20 19
M  V30 23 1 21 20
M  V30 24 2 22 21
M  V30 25 1 23 22
M  V30 26 2 24 23
M  V30 27 1 25 24
M  V30 28 2 26 25
M  V30 29 1 27 26
M  V30 30 1 28 23
M  V30 31 2 28 27
M  V30 32 1 29 21
M  V30 33 1 29 28
M  V30 34 1 30 1
M  V30 35 1 31 4
M  V30 36 1 32 5
M  V30 37 1 33 8
M  V30 38 1 34 9
M  V30 39 1 35 10
M  V30 40 1 36 10
M  V30 41 1 11 37 CFG=1
M  V30 42 1 38 12
M  V30 43 1 39 12
M  V30 44 1 40 13
M  V30 45 1 41 13
M  V30 46 1 14 42 CFG=3
M  V30 47 1 43 15
M  V30 48 1 44 15
M  V30 49 1 45 17
M  V30 50 1 46 17
M  V30 51 1 47 18
M  V30 52 1 48 18
M  V30 53 1 49 19
M  V30 54 1 50 19
M  V30 55 1 51 20
M  V30 56 1 52 20
M  V30 57 1 53 24
M  V30 58 1 54 25
M  V30 59 1 55 26
M  V30 60 1 56 27
M  V30 61 1 16 57 CFG=1
M  V30 END BOND
M  V30 END CTAB
M  END
>  <b_m_subgroup_collapsed>  (919) 
0

>  <r_i_docking_score>  (919) 
-7.69799563602351

>  <s_m_subgroup_title>  (919) 
glide-dock_SP_D22_pv

>  <s_m_subgroupid>  (919) 
glide-dock_SP_D22_pv

>  <Molecule ChEMBL ID>  (919) 
CHEMBL3819434

>  <Standard Type>  (919) 
Ki

>  <Standard Value>  (919) 
44.67

>  <label>  (919) 
1

$$$$
CHEMBL3895540
     RDKit          3D

  0  0  0  0  0  0  0  0  0  0999 V3000
M  V30 BEGIN CTAB
M  V30 COUNTS 66 70 0 0 1
M  V30 BEGIN ATOM
M  V30 1 C 8.741125 2.770219 -17.423197 0
M  V30 2 N 9.559323 2.250289 -16.314997 0
M  V30 3 C 9.568214 2.996558 -15.041848 0 CFG=1
M  V30 4 C 10.145066 4.419775 -15.208435 0
M  V30 5 C 10.116743 5.177598 -13.874439 0
M  V30 6 C 8.667525 5.255416 -13.357999 0 CFG=2
M  V30 7 C 8.499501 6.135237 -12.110090 0
M  V30 8 C 9.042344 5.483207 -10.821852 0
M  V30 9 N 8.879962 6.298319 -9.605113 0 CHG=1
M  V30 10 C 9.338031 5.563359 -8.392985 0
M  V30 11 C 9.151136 6.388597 -7.111150 0
M  V30 12 N 9.727239 7.707698 -7.289088 0
M  V30 13 C 10.738927 8.308360 -6.504939 0
M  V30 14 N 11.209085 9.437322 -6.979374 0
M  V30 15 S 12.086019 10.220620 -5.846855 0
M  V30 16 C 11.984259 8.971602 -4.646740 0
M  V30 17 C 12.486013 8.976800 -3.336032 0
M  V30 18 C 12.390921 7.822516 -2.551054 0
M  V30 19 C 11.815686 6.670966 -3.105034 0
M  V30 20 C 11.285973 6.690269 -4.412498 0
M  V30 21 C 11.286361 7.863056 -5.217063 0
M  V30 22 C 9.150081 8.426852 -8.422953 0
M  V30 23 C 9.432093 7.667588 -9.709164 0
M  V30 24 C 8.138962 3.834620 -13.120899 0
M  V30 25 C 8.169635 2.986143 -14.388385 0
M  V30 26 S 9.830350 0.544221 -16.291859 0
M  V30 27 O 8.598597 -0.119275 -16.743111 0
M  V30 28 O 10.485838 0.172182 -15.029658 0
M  V30 29 C 11.045457 0.325301 -17.557322 0
M  V30 30 C 12.086390 1.164012 -17.854630 0
M  V30 31 C 12.857697 0.706497 -18.963182 0
M  V30 32 C 12.383049 -0.466357 -19.490206 0
M  V30 33 S 10.960038 -1.022686 -18.646841 0
M  V30 34 H 8.886179 3.836190 -17.582603 0
M  V30 35 H 9.013094 2.266491 -18.351252 0
M  V30 36 H 7.685407 2.572366 -17.237961 0
M  V30 37 H 10.245881 2.489342 -14.354804 0
M  V30 38 H 11.167947 4.364652 -15.582941 0
M  V30 39 H 9.579499 5.000501 -15.934988 0
M  V30 40 H 10.759336 4.673897 -13.151189 0
M  V30 41 H 10.535352 6.172302 -14.012568 0
M  V30 42 H 8.085604 5.722540 -14.150251 0
M  V30 43 H 8.992308 7.083689 -12.317835 0
M  V30 44 H 7.441528 6.364519 -11.971144 0
M  V30 45 H 8.498533 4.561774 -10.620914 0
M  V30 46 H 10.086058 5.213975 -10.946034 0
M  V30 47 H 8.794439 4.622065 -8.299183 0
M  V30 48 H 10.393628 5.311037 -8.507440 0
M  V30 49 H 8.087948 6.500525 -6.889017 0
M  V30 50 H 9.585180 5.864652 -6.275025 0
M  V30 51 H 12.964567 9.859081 -2.943891 0
M  V30 52 H 12.779441 7.814260 -1.543535 0
M  V30 53 H 11.759907 5.772328 -2.511838 0
M  V30 54 H 10.850479 5.772567 -4.762478 0
M  V30 55 H 8.086007 8.506513 -8.246200 0
M  V30 56 H 9.475788 9.457066 -8.543313 0
M  V30 57 H 10.503747 7.632657 -9.912368 0
M  V30 58 H 8.956696 8.222522 -10.516181 0
M  V30 59 H 8.788115 3.372270 -12.384285 0
M  V30 60 H 7.129409 3.854905 -12.707556 0
M  V30 61 H 7.401721 3.372253 -15.046857 0
M  V30 62 H 7.879537 1.960872 -14.154263 0
M  V30 63 H 12.318373 2.072209 -17.317545 0
M  V30 64 H 13.721410 1.243857 -19.326281 0
M  V30 65 H 12.774409 -1.027637 -20.325932 0
M  V30 66 H 7.881225 6.453261 -9.495322 0
M  V30 END ATOM
M  V30 BEGIN BOND
M  V30 1 1 2 1
M  V30 2 1 3 2
M  V30 3 1 4 3
M  V30 4 1 5 4
M  V30 5 1 6 5
M  V30 6 1 7 6
M  V30 7 1 8 7
M  V30 8 1 9 8
M  V30 9 1 10 9
M  V30 10 1 11 10
M  V30 11 1 12 11
M  V30 12 1 13 12
M  V30 13 2 14 13
M  V30 14 1 15 14
M  V30 15 1 16 15
M  V30 16 2 17 16
M  V30 17 1 18 17
M  V30 18 2 19 18
M  V30 19 1 20 19
M  V30 20 1 21 13
M  V30 21 1 21 16
M  V30 22 2 21 20
M  V30 23 1 22 12
M  V30 24 1 23 9
M  V30 25 1 23 22
M  V30 26 1 24 6
M  V30 27 1 25 3
M  V30 28 1 25 24
M  V30 29 1 26 2
M  V30 30 2 27 26
M  V30 31 2 28 26
M  V30 32 1 29 26
M  V30 33 2 30 29
M  V30 34 1 31 30
M  V30 35 2 32 31
M  V30 36 1 33 29
M  V30 37 1 33 32
M  V30 38 1 34 1
M  V30 39 1 35 1
M  V30 40 1 36 1
M  V30 41 1 3 37 CFG=1
M  V30 42 1 38 4
M  V30 43 1 39 4
M  V30 44 1 40 5
M  V30 45 1 41 5
M  V30 46 1 6 42 CFG=3
M  V30 47 1 43 7
M  V30 48 1 44 7
M  V30 49 1 45 8
M  V30 50 1 46 8
M  V30 51 1 47 10
M  V30 52 1 48 10
M  V30 53 1 49 11
M  V30 54 1 50 11
M  V30 55 1 51 17
M  V30 56 1 52 18
M  V30 57 1 53 19
M  V30 58 1 54 20
M  V30 59 1 55 22
M  V30 60 1 56 22
M  V30 61 1 57 23
M  V30 62 1 58 23
M  V30 63 1 59 24
M  V30 64 1 60 24
M  V30 65 1 61 25
M  V30 66 1 62 25
M  V30 67 1 63 30
M  V30 68 1 64 31
M  V30 69 1 65 32
M  V30 70 1 66 9
M  V30 END BOND
M  V30 END CTAB
M  END
>  <b_m_subgroup_collapsed>  (920) 
0

>  <r_i_docking_score>  (920) 
-7.6966506123693703

>  <s_m_subgroup_title>  (920) 
glide-dock_SP_D22_pv

>  <s_m_subgroupid>  (920) 
glide-dock_SP_D22_pv

>  <Molecule ChEMBL ID>  (920) 
CHEMBL3895540

>  <Standard Type>  (920) 
Ki

>  <Standard Value>  (920) 
0.3

>  <label>  (920) 
1

$$$$
CHEMBL1085672
     RDKit          3D

  0  0  0  0  0  0  0  0  0  0999 V3000
M  V30 BEGIN CTAB
M  V30 COUNTS 41 43 0 0 1
M  V30 BEGIN ATOM
M  V30 1 O 8.957631 8.597436 -7.477952 0
M  V30 2 C 10.096084 8.521556 -7.933707 0
M  V30 3 N 10.425947 8.456133 -9.233161 0
M  V30 4 C 9.501326 8.428819 -10.358583 0
M  V30 5 C 9.219938 7.004017 -10.858744 0 CFG=1
M  V30 6 C 8.879885 5.998991 -9.744278 0
M  V30 7 C 8.483210 4.635121 -10.314843 0
M  V30 8 C 7.441537 4.744407 -11.444131 0
M  V30 9 C 7.861506 5.762859 -12.499064 0
M  V30 10 N 8.123061 7.058537 -11.847143 0 CHG=1
M  V30 11 C 11.854725 8.440314 -9.457355 0
M  V30 12 C 12.411296 8.337839 -8.041054 0
M  V30 13 N 11.223117 8.460251 -7.214104 0
M  V30 14 C 11.298625 8.595840 -5.813086 0
M  V30 15 C 11.077926 9.855919 -5.225751 0
M  V30 16 C 11.286056 10.018127 -3.846990 0
M  V30 17 C 11.728540 8.953644 -3.051893 0
M  V30 18 C 11.927082 7.696168 -3.635258 0
M  V30 19 Cl 12.485895 6.415670 -2.646528 0
M  V30 20 C 11.686005 7.502254 -5.008937 0
M  V30 21 H 8.575706 8.940789 -10.085100 0
M  V30 22 H 9.937777 8.980242 -11.186188 0
M  V30 23 H 10.114077 6.646060 -11.372301 0
M  V30 24 H 9.732979 5.857656 -9.081384 0
M  V30 25 H 8.082835 6.393642 -9.118197 0
M  V30 26 H 9.383206 4.154572 -10.697217 0
M  V30 27 H 8.090962 4.030163 -9.495773 0
M  V30 28 H 7.267143 3.772437 -11.902105 0
M  V30 29 H 6.486251 5.074308 -11.046907 0
M  V30 30 H 8.750364 5.427714 -13.035324 0
M  V30 31 H 7.066510 5.881581 -13.231578 0
M  V30 32 H 7.299690 7.357885 -11.298117 0
M  V30 33 H 12.160006 7.600958 -10.082541 0
M  V30 34 H 12.139822 9.370754 -9.946668 0
M  V30 35 H 13.138279 9.122302 -7.826303 0
M  V30 36 H 12.882739 7.372228 -7.867002 0
M  V30 37 H 10.784950 10.701854 -5.831349 0
M  V30 38 H 11.155793 10.971299 -3.381218 0
M  V30 39 H 11.913166 9.104956 -1.998419 0
M  V30 40 H 11.854953 6.530531 -5.451653 0
M  V30 41 H 8.321439 7.763130 -12.539525 0
M  V30 END ATOM
M  V30 BEGIN BOND
M  V30 1 2 2 1
M  V30 2 1 3 2
M  V30 3 1 4 3
M  V30 4 1 5 4
M  V30 5 1 6 5
M  V30 6 1 7 6
M  V30 7 1 8 7
M  V30 8 1 9 8
M  V30 9 1 10 5
M  V30 10 1 10 9
M  V30 11 1 11 3
M  V30 12 1 12 11
M  V30 13 1 13 2
M  V30 14 1 13 12
M  V30 15 1 14 13
M  V30 16 2 15 14
M  V30 17 1 16 15
M  V30 18 2 17 16
M  V30 19 1 18 17
M  V30 20 1 19 18
M  V30 21 1 20 14
M  V30 22 2 20 18
M  V30 23 1 21 4
M  V30 24 1 22 4
M  V30 25 1 5 23 CFG=3
M  V30 26 1 24 6
M  V30 27 1 25 6
M  V30 28 1 26 7
M  V30 29 1 27 7
M  V30 30 1 28 8
M  V30 31 1 29 8
M  V30 32 1 30 9
M  V30 33 1 31 9
M  V30 34 1 32 10
M  V30 35 1 33 11
M  V30 36 1 34 11
M  V30 37 1 35 12
M  V30 38 1 36 12
M  V30 39 1 37 15
M  V30 40 1 38 16
M  V30 41 1 39 17
M  V30 42 1 40 20
M  V30 43 1 41 10
M  V30 END BOND
M  V30 END CTAB
M  END
>  <b_m_subgroup_collapsed>  (921) 
0

>  <r_i_docking_score>  (921) 
-7.6956417126924803

>  <s_m_subgroup_title>  (921) 
glide-dock_SP_D22_pv

>  <s_m_subgroupid>  (921) 
glide-dock_SP_D22_pv

>  <Molecule ChEMBL ID>  (921) 
CHEMBL1085672

>  <Standard Type>  (921) 
Ki

>  <Standard Value>  (921) 
79.43

>  <label>  (921) 
1

$$$$
CHEMBL5435325
     RDKit          3D

  0  0  0  0  0  0  0  0  0  0999 V3000
M  V30 BEGIN CTAB
M  V30 COUNTS 64 68 0 0 1
M  V30 BEGIN ATOM
M  V30 1 C 9.217584 -0.909539 -18.418419 0
M  V30 2 C 7.801847 -0.735394 -17.849981 0
M  V30 3 C 6.841108 -0.127759 -18.887583 0
M  V30 4 O 7.906019 0.131299 -16.722923 0
M  V30 5 C 6.888227 0.170556 -15.789224 0
M  V30 6 C 5.852641 -0.788794 -15.665839 0
M  V30 7 C 4.862469 -0.650036 -14.670325 0
M  V30 8 C 4.871347 0.455415 -13.796217 0
M  V30 9 C 5.865447 1.449839 -13.913198 0
M  V30 10 C 6.127748 2.737335 -13.343567 0
M  V30 11 C 7.280251 3.176878 -13.929559 0
M  V30 12 O 7.765267 2.315157 -14.867657 0
M  V30 13 C 6.876782 1.255127 -14.898582 0
M  V30 14 C 7.991811 4.442982 -13.636145 0
M  V30 15 N 7.061399 5.372170 -12.932000 0 CFG=2 CHG=1
M  V30 16 C 7.677473 6.665866 -12.544071 0
M  V30 17 C 8.759037 6.532154 -11.444703 0
M  V30 18 C 9.439867 7.849688 -11.044641 0
M  V30 19 C 10.744712 7.602271 -10.268126 0
M  V30 20 O 10.503947 6.918047 -9.036059 0
M  V30 21 C 10.696103 7.597227 -7.852390 0
M  V30 22 C 10.619366 9.002807 -7.736292 0
M  V30 23 C 10.912440 9.651260 -6.520376 0
M  V30 24 C 11.258707 8.893841 -5.390407 0
M  V30 25 C 11.636258 9.498638 -4.113503 0
M  V30 26 C 12.031701 8.745026 -3.071703 0
M  V30 27 C 12.086504 7.284835 -3.157827 0
M  V30 28 O 12.484282 6.570674 -2.246891 0
M  V30 29 N 11.684665 6.749703 -4.331447 0
M  V30 30 C 11.286025 7.489838 -5.475109 0
M  V30 31 C 10.995200 6.846632 -6.695828 0
M  V30 32 C 6.277494 4.727005 -11.846653 0
M  V30 33 C 5.386224 3.571591 -12.360569 0
M  V30 34 H 9.212756 -1.567134 -19.288624 0
M  V30 35 H 9.881153 -1.350272 -17.672880 0
M  V30 36 H 9.645702 0.048508 -18.720478 0
M  V30 37 H 7.458897 -1.727585 -17.568886 0
M  V30 38 H 6.770511 -0.761207 -19.772289 0
M  V30 39 H 7.180070 0.858180 -19.208111 0
M  V30 40 H 5.834459 -0.015481 -18.483879 0
M  V30 41 H 5.798037 -1.654331 -16.307943 0
M  V30 42 H 4.083568 -1.396331 -14.598580 0
M  V30 43 H 4.086057 0.573786 -13.068051 0
M  V30 44 H 8.855919 4.211556 -13.017505 0
M  V30 45 H 8.361288 4.900791 -14.553888 0
M  V30 46 H 8.093276 7.106880 -13.444897 0
M  V30 47 H 6.888908 7.354153 -12.246901 0
M  V30 48 H 8.332606 6.090281 -10.543625 0
M  V30 49 H 9.536319 5.849558 -11.779648 0
M  V30 50 H 9.672220 8.420886 -11.941160 0
M  V30 51 H 8.759281 8.466330 -10.457090 0
M  V30 52 H 11.399056 6.971227 -10.868611 0
M  V30 53 H 11.306831 8.528859 -10.159516 0
M  V30 54 H 10.350429 9.608565 -8.585182 0
M  V30 55 H 10.885965 10.729501 -6.460618 0
M  V30 56 H 11.573927 10.570699 -4.016648 0
M  V30 57 H 12.294896 9.220594 -2.139259 0
M  V30 58 H 11.691551 5.743459 -4.408300 0
M  V30 59 H 11.055474 5.772121 -6.771239 0
M  V30 60 H 6.966259 4.347946 -11.093989 0
M  V30 61 H 5.651588 5.483122 -11.371995 0
M  V30 62 H 4.488904 3.977843 -12.826387 0
M  V30 63 H 5.062230 2.959428 -11.520494 0
M  V30 64 H 6.363294 5.603354 -13.622341 0
M  V30 END ATOM
M  V30 BEGIN BOND
M  V30 1 1 2 1
M  V30 2 1 3 2
M  V30 3 1 4 2
M  V30 4 1 5 4
M  V30 5 1 6 5
M  V30 6 2 7 6
M  V30 7 1 8 7
M  V30 8 2 9 8
M  V30 9 1 10 9
M  V30 10 2 11 10
M  V30 11 1 12 11
M  V30 12 2 13 5
M  V30 13 1 13 9
M  V30 14 1 13 12
M  V30 15 1 14 11
M  V30 16 1 15 14
M  V30 17 1 16 15
M  V30 18 1 17 16
M  V30 19 1 18 17
M  V30 20 1 19 18
M  V30 21 1 20 19
M  V30 22 1 21 20
M  V30 23 1 22 21
M  V30 24 2 23 22
M  V30 25 1 24 23
M  V30 26 1 25 24
M  V30 27 2 26 25
M  V30 28 1 27 26
M  V30 29 2 28 27
M  V30 30 1 29 27
M  V30 31 2 30 24
M  V30 32 1 30 29
M  V30 33 2 31 21
M  V30 34 1 31 30
M  V30 35 1 32 15
M  V30 36 1 33 10
M  V30 37 1 33 32
M  V30 38 1 34 1
M  V30 39 1 35 1
M  V30 40 1 36 1
M  V30 41 1 37 2
M  V30 42 1 38 3
M  V30 43 1 39 3
M  V30 44 1 40 3
M  V30 45 1 41 6
M  V30 46 1 42 7
M  V30 47 1 43 8
M  V30 48 1 44 14
M  V30 49 1 45 14
M  V30 50 1 46 16
M  V30 51 1 47 16
M  V30 52 1 48 17
M  V30 53 1 49 17
M  V30 54 1 50 18
M  V30 55 1 51 18
M  V30 56 1 52 19
M  V30 57 1 53 19
M  V30 58 1 54 22
M  V30 59 1 55 23
M  V30 60 1 56 25
M  V30 61 1 57 26
M  V30 62 1 58 29
M  V30 63 1 59 31
M  V30 64 1 60 32
M  V30 65 1 61 32
M  V30 66 1 62 33
M  V30 67 1 63 33
M  V30 68 1 15 64 CFG=3
M  V30 END BOND
M  V30 END CTAB
M  END
>  <b_m_subgroup_collapsed>  (922) 
0

>  <r_i_docking_score>  (922) 
-7.6946958082572099

>  <s_m_subgroup_title>  (922) 
glide-dock_SP_D22_pv

>  <s_m_subgroupid>  (922) 
glide-dock_SP_D22_pv

>  <Molecule ChEMBL ID>  (922) 
CHEMBL5435325

>  <Standard Type>  (922) 
Ki

>  <Standard Value>  (922) 
88.8

>  <label>  (922) 
1

$$$$
CHEMBL1259241
     RDKit          3D

  0  0  0  0  0  0  0  0  0  0999 V3000
M  V30 BEGIN CTAB
M  V30 COUNTS 53 56 0 0 1
M  V30 BEGIN ATOM
M  V30 1 C 6.087309 -0.856311 -14.712695 0
M  V30 2 C 6.100621 0.566343 -14.193888 0
M  V30 3 C 5.274655 0.936357 -13.119484 0
M  V30 4 C 5.291753 2.270597 -12.675806 0
M  V30 5 C 6.147295 3.186295 -13.319515 0
M  V30 6 C 6.259525 4.623754 -12.837578 0
M  V30 7 N 7.656195 5.095994 -12.948730 0 CHG=1
M  V30 8 C 7.961176 6.384254 -12.289027 0
M  V30 9 C 9.067812 6.196078 -11.234866 0
M  V30 10 F 10.050965 5.534328 -11.848372 0
M  V30 11 C 9.677642 7.524250 -10.716440 0
M  V30 12 C 10.717263 7.282583 -9.594801 0
M  V30 13 N 10.084792 6.506396 -8.522063 0
M  V30 14 C 9.733159 6.944707 -7.290016 0
M  V30 15 O 8.861643 6.378133 -6.646764 0
M  V30 16 C 10.480564 8.061112 -6.645391 0
M  V30 17 C 10.488538 9.368999 -7.046258 0
M  V30 18 S 11.286421 10.443338 -5.940897 0
M  V30 19 C 11.632614 9.123597 -4.841508 0
M  V30 20 C 12.262472 9.212934 -3.585610 0
M  V30 21 C 12.454679 8.057588 -2.813362 0
M  V30 22 C 12.016964 6.817482 -3.304541 0
M  V30 23 C 11.378408 6.736574 -4.558899 0
M  V30 24 C 11.153203 7.878494 -5.368076 0
M  V30 25 C 9.644796 5.181020 -8.985765 0
M  V30 26 C 8.563348 5.338724 -10.055648 0
M  V30 27 N 6.956178 2.832999 -14.344046 0
M  V30 28 C 6.927688 1.550707 -14.770075 0
M  V30 29 H 5.072262 -1.160836 -14.969082 0
M  V30 30 H 6.701669 -0.953120 -15.606884 0
M  V30 31 H 6.470791 -1.540249 -13.955493 0
M  V30 32 H 4.634876 0.205858 -12.647356 0
M  V30 33 H 4.679468 2.572699 -11.847128 0
M  V30 34 H 5.597724 5.262466 -13.424235 0
M  V30 35 H 5.935183 4.679950 -11.796967 0
M  V30 36 H 8.246006 4.393646 -12.524755 0
M  V30 37 H 8.282750 7.095233 -13.046922 0
M  V30 38 H 7.062354 6.801016 -11.846974 0
M  V30 39 H 10.141146 8.070700 -11.538657 0
M  V30 40 H 8.885633 8.167735 -10.331905 0
M  V30 41 H 11.565783 6.722676 -9.985208 0
M  V30 42 H 11.133210 8.229039 -9.259762 0
M  V30 43 H 10.006537 9.768379 -7.924919 0
M  V30 44 H 12.586864 10.170494 -3.205623 0
M  V30 45 H 12.917103 8.128432 -1.840387 0
M  V30 46 H 12.150040 5.923635 -2.711558 0
M  V30 47 H 11.025856 5.773564 -4.898315 0
M  V30 48 H 10.486031 4.633017 -9.397182 0
M  V30 49 H 9.267127 4.547937 -8.182390 0
M  V30 50 H 7.686066 5.801757 -9.604998 0
M  V30 51 H 8.243717 4.353456 -10.393524 0
M  V30 52 H 7.580577 1.307883 -15.595432 0
M  V30 53 H 7.899323 5.134387 -13.927866 0
M  V30 END ATOM
M  V30 BEGIN BOND
M  V30 1 1 2 1
M  V30 2 1 3 2
M  V30 3 2 4 3
M  V30 4 1 5 4
M  V30 5 1 6 5
M  V30 6 1 7 6
M  V30 7 1 8 7
M  V30 8 1 9 8
M  V30 9 1 10 9
M  V30 10 1 11 9
M  V30 11 1 12 11
M  V30 12 1 13 12
M  V30 13 1 14 13
M  V30 14 2 15 14
M  V30 15 1 16 14
M  V30 16 2 17 16
M  V30 17 1 18 17
M  V30 18 1 19 18
M  V30 19 2 20 19
M  V30 20 1 21 20
M  V30 21 2 22 21
M  V30 22 1 23 22
M  V30 23 1 24 16
M  V30 24 1 24 19
M  V30 25 2 24 23
M  V30 26 1 25 13
M  V30 27 1 26 9
M  V30 28 1 26 25
M  V30 29 2 27 5
M  V30 30 2 28 2
M  V30 31 1 28 27
M  V30 32 1 29 1
M  V30 33 1 30 1
M  V30 34 1 31 1
M  V30 35 1 32 3
M  V30 36 1 33 4
M  V30 37 1 34 6
M  V30 38 1 35 6
M  V30 39 1 36 7
M  V30 40 1 37 8
M  V30 41 1 38 8
M  V30 42 1 39 11
M  V30 43 1 40 11
M  V30 44 1 41 12
M  V30 45 1 42 12
M  V30 46 1 43 17
M  V30 47 1 44 20
M  V30 48 1 45 21
M  V30 49 1 46 22
M  V30 50 1 47 23
M  V30 51 1 48 25
M  V30 52 1 49 25
M  V30 53 1 50 26
M  V30 54 1 51 26
M  V30 55 1 52 28
M  V30 56 1 53 7
M  V30 END BOND
M  V30 END CTAB
M  END
>  <b_m_subgroup_collapsed>  (923) 
0

>  <r_i_docking_score>  (923) 
-7.6941709685356097

>  <s_m_subgroup_title>  (923) 
glide-dock_SP_D22_pv

>  <s_m_subgroupid>  (923) 
glide-dock_SP_D22_pv

>  <Molecule ChEMBL ID>  (923) 
CHEMBL1259241

>  <Standard Type>  (923) 
Ki

>  <Standard Value>  (923) 
20000.0

>  <label>  (923) 
0

$$$$
CHEMBL4076408
     RDKit          3D

  0  0  0  0  0  0  0  0  0  0999 V3000
M  V30 BEGIN CTAB
M  V30 COUNTS 66 70 0 0 1
M  V30 BEGIN ATOM
M  V30 1 O 6.914959 -0.227195 -13.931866 0
M  V30 2 S 7.829718 0.478536 -14.840064 0
M  V30 3 O 9.250965 0.102086 -14.895563 0
M  V30 4 C 7.210013 0.528642 -16.541332 0
M  V30 5 C 8.039134 1.249084 -17.425976 0
M  V30 6 C 7.686978 1.409198 -18.773035 0
M  V30 7 C 6.483675 0.863548 -19.241352 0
M  V30 8 C 5.638283 0.119006 -18.394732 0
M  V30 9 N 4.513217 -0.401652 -18.930803 0
M  V30 10 C 3.714543 -1.162928 -18.162991 0
M  V30 11 C 3.987773 -1.427621 -16.814430 0
M  V30 12 C 5.144897 -0.876566 -16.239716 0
M  V30 13 C 6.007581 -0.071075 -17.026333 0
M  V30 14 N 7.764732 2.146564 -14.386415 0
M  V30 15 C 6.467994 2.802745 -14.140738 0
M  V30 16 C 6.566089 3.833622 -13.004457 0
M  V30 17 C 7.771315 4.775668 -13.171041 0
M  V30 18 C 7.890703 5.773036 -12.009964 0
M  V30 19 C 8.362198 5.161217 -10.671655 0
M  V30 20 N 8.487387 6.172366 -9.598782 0 CHG=1
M  V30 21 C 8.597580 5.535954 -8.257607 0
M  V30 22 C 8.891228 6.553868 -7.145172 0
M  V30 23 N 10.080125 7.324467 -7.472874 0
M  V30 24 C 10.725915 7.953059 -6.390478 0
M  V30 25 C 11.060022 9.324283 -6.440958 0
M  V30 26 C 11.693651 9.945081 -5.360519 0
M  V30 27 C 12.005147 9.222134 -4.198230 0
M  V30 28 C 11.691451 7.854702 -4.133647 0
M  V30 29 Cl 12.085718 6.963433 -2.711341 0
M  V30 30 C 11.066556 7.220592 -5.226765 0
M  V30 31 C 9.934107 8.054918 -8.724741 0
M  V30 32 C 9.618649 7.103806 -9.880030 0
M  V30 33 C 9.063853 3.978839 -13.420539 0
M  V30 34 C 8.904852 3.045930 -14.620617 0
M  V30 35 H 8.965917 1.674748 -17.069950 0
M  V30 36 H 8.338527 1.951260 -19.445040 0
M  V30 37 H 6.207451 0.989341 -20.277702 0
M  V30 38 H 2.842783 -1.581702 -18.641390 0
M  V30 39 H 3.332413 -2.070734 -16.241791 0
M  V30 40 H 5.332734 -1.133870 -15.215859 0
M  V30 41 H 6.134119 3.288926 -15.055664 0
M  V30 42 H 5.713022 2.056962 -13.892310 0
M  V30 43 H 5.644274 4.415191 -12.967408 0
M  V30 44 H 6.618788 3.319834 -12.048333 0
M  V30 45 H 7.607799 5.366320 -14.070010 0
M  V30 46 H 8.576768 6.550875 -12.339349 0
M  V30 47 H 6.929940 6.266401 -11.859855 0
M  V30 48 H 7.682953 4.376410 -10.351493 0
M  V30 49 H 9.330145 4.673252 -10.786127 0
M  V30 50 H 7.685980 4.993514 -8.021069 0
M  V30 51 H 9.400051 4.797135 -8.283020 0
M  V30 52 H 8.065496 7.252988 -7.033124 0
M  V30 53 H 8.978306 6.047413 -6.189336 0
M  V30 54 H 10.841557 9.935208 -7.300241 0
M  V30 55 H 11.946911 10.983516 -5.449266 0
M  V30 56 H 12.490500 9.712214 -3.366652 0
M  V30 57 H 10.854904 6.164651 -5.157115 0
M  V30 58 H 9.139750 8.796789 -8.622518 0
M  V30 59 H 10.852633 8.588537 -8.970970 0
M  V30 60 H 10.515728 6.524620 -10.103269 0
M  V30 61 H 9.406330 7.712875 -10.756442 0
M  V30 62 H 9.901854 4.657015 -13.588311 0
M  V30 63 H 9.321497 3.368629 -12.555305 0
M  V30 64 H 9.824066 2.477476 -14.756013 0
M  V30 65 H 8.744905 3.611687 -15.537525 0
M  V30 66 H 7.633037 6.737612 -9.607230 0
M  V30 END ATOM
M  V30 BEGIN BOND
M  V30 1 2 2 1
M  V30 2 2 3 2
M  V30 3 1 4 2
M  V30 4 1 5 4
M  V30 5 2 6 5
M  V30 6 1 7 6
M  V30 7 2 8 7
M  V30 8 1 9 8
M  V30 9 2 10 9
M  V30 10 1 11 10
M  V30 11 2 12 11
M  V30 12 2 13 4
M  V30 13 1 13 8
M  V30 14 1 13 12
M  V30 15 1 14 2
M  V30 16 1 15 14
M  V30 17 1 16 15
M  V30 18 1 17 16
M  V30 19 1 18 17
M  V30 20 1 19 18
M  V30 21 1 20 19
M  V30 22 1 21 20
M  V30 23 1 22 21
M  V30 24 1 23 22
M  V30 25 1 24 23
M  V30 26 2 25 24
M  V30 27 1 26 25
M  V30 28 2 27 26
M  V30 29 1 28 27
M  V30 30 1 29 28
M  V30 31 1 30 24
M  V30 32 2 30 28
M  V30 33 1 31 23
M  V30 34 1 32 20
M  V30 35 1 32 31
M  V30 36 1 33 17
M  V30 37 1 34 14
M  V30 38 1 34 33
M  V30 39 1 35 5
M  V30 40 1 36 6
M  V30 41 1 37 7
M  V30 42 1 38 10
M  V30 43 1 39 11
M  V30 44 1 40 12
M  V30 45 1 41 15
M  V30 46 1 42 15
M  V30 47 1 43 16
M  V30 48 1 44 16
M  V30 49 1 45 17
M  V30 50 1 46 18
M  V30 51 1 47 18
M  V30 52 1 48 19
M  V30 53 1 49 19
M  V30 54 1 50 21
M  V30 55 1 51 21
M  V30 56 1 52 22
M  V30 57 1 53 22
M  V30 58 1 54 25
M  V30 59 1 55 26
M  V30 60 1 56 27
M  V30 61 1 57 30
M  V30 62 1 58 31
M  V30 63 1 59 31
M  V30 64 1 60 32
M  V30 65 1 61 32
M  V30 66 1 62 33
M  V30 67 1 63 33
M  V30 68 1 64 34
M  V30 69 1 65 34
M  V30 70 1 66 20
M  V30 END BOND
M  V30 END CTAB
M  END
>  <b_m_subgroup_collapsed>  (924) 
0

>  <r_i_docking_score>  (924) 
-7.6935506851020401

>  <s_m_subgroup_title>  (924) 
glide-dock_SP_D22_pv

>  <s_m_subgroupid>  (924) 
glide-dock_SP_D22_pv

>  <Molecule ChEMBL ID>  (924) 
CHEMBL4076408

>  <Standard Type>  (924) 
Ki

>  <Standard Value>  (924) 
76.0

>  <label>  (924) 
1

$$$$
CHEMBL3975989
     RDKit          3D

  0  0  0  0  0  0  0  0  0  0999 V3000
M  V30 BEGIN CTAB
M  V30 COUNTS 60 64 0 0 1
M  V30 BEGIN ATOM
M  V30 1 C 12.063676 6.029510 -2.542513 0
M  V30 2 C 12.175674 7.479190 -2.607024 0
M  V30 3 N 12.486046 8.172348 -1.466316 0
M  V30 4 C 12.371219 9.412614 -1.847635 0
M  V30 5 O 12.056150 9.608516 -3.154028 0
M  V30 6 C 11.914460 8.342114 -3.636499 0
M  V30 7 C 11.507470 8.112012 -5.021122 0
M  V30 8 N 11.286014 6.875513 -5.477330 0
M  V30 9 N 11.000542 6.996651 -6.810472 0
M  V30 10 C 11.051079 8.302547 -7.059539 0
M  V30 11 S 10.791797 8.972326 -8.665549 0
M  V30 12 C 9.059304 8.476856 -8.865866 0
M  V30 13 C 8.958223 7.095584 -9.518520 0
M  V30 14 C 8.886119 7.146189 -11.057268 0
M  V30 15 N 8.662224 5.781474 -11.578223 0 CFG=2 CHG=1
M  V30 16 C 9.877267 4.963675 -11.546122 0
M  V30 17 C 9.687922 3.863915 -12.570037 0
M  V30 18 C 8.694994 4.419337 -13.555775 0 CFG=2
M  V30 19 C 7.745574 3.526554 -14.314870 0
M  V30 20 C 8.886803 4.204601 -15.046518 0 CFG=2
M  V30 21 C 9.999934 3.392693 -15.672886 0
M  V30 22 C 9.754601 2.041911 -16.021538 0
M  V30 23 C 10.731719 1.261884 -16.664547 0
M  V30 24 C 11.974038 1.827997 -16.987225 0
M  V30 25 C 12.238667 3.165508 -16.646894 0
M  V30 26 C 11.268517 3.956554 -15.989100 0
M  V30 27 C 11.592774 5.419232 -15.697670 0
M  V30 28 F 12.894526 5.674830 -15.833550 0
M  V30 29 F 10.927103 6.172272 -16.569149 0
M  V30 30 F 11.244699 5.769467 -14.460666 0
M  V30 31 C 8.150075 5.710249 -12.956735 0
M  V30 32 N 11.329921 9.053663 -5.971940 0
M  V30 33 C 11.438096 10.495907 -5.853478 0
M  V30 34 H 12.886013 5.530395 -3.046971 0
M  V30 35 H 12.042963 5.704239 -1.505737 0
M  V30 36 H 11.119134 5.772314 -3.007207 0
M  V30 37 H 12.486016 10.225916 -1.155597 0
M  V30 38 H 8.581306 8.463227 -7.884834 0
M  V30 39 H 8.519575 9.221988 -9.452339 0
M  V30 40 H 9.801018 6.481918 -9.202302 0
M  V30 41 H 8.085606 6.573431 -9.129053 0
M  V30 42 H 8.086240 7.791354 -11.427981 0
M  V30 43 H 9.800132 7.580018 -11.465528 0
M  V30 44 H 10.684293 5.612819 -11.882618 0
M  V30 45 H 10.086053 4.582064 -10.546808 0
M  V30 46 H 10.628896 3.590891 -13.046381 0
M  V30 47 H 9.285988 2.972427 -12.110550 0
M  V30 48 H 7.804967 2.468974 -14.067199 0
M  V30 49 H 6.735845 3.895862 -14.481694 0
M  V30 50 H 8.726258 5.107058 -15.630093 0
M  V30 51 H 8.798820 1.583752 -15.818931 0
M  V30 52 H 10.522133 0.233745 -16.921532 0
M  V30 53 H 12.727769 1.236354 -17.485735 0
M  V30 54 H 13.201439 3.581218 -16.905378 0
M  V30 55 H 7.059411 5.719344 -12.952499 0
M  V30 56 H 8.486020 6.568962 -13.531460 0
M  V30 57 H 10.888355 10.980388 -6.646863 0
M  V30 58 H 10.992102 10.839437 -4.921362 0
M  V30 59 H 12.485176 10.792481 -5.898999 0
M  V30 60 H 7.965540 5.339501 -10.992221 0
M  V30 END ATOM
M  V30 BEGIN BOND
M  V30 1 1 2 1
M  V30 2 1 3 2
M  V30 3 2 4 3
M  V30 4 1 5 4
M  V30 5 2 6 2
M  V30 6 1 6 5
M  V30 7 1 7 6
M  V30 8 2 8 7
M  V30 9 1 9 8
M  V30 10 2 10 9
M  V30 11 1 11 10
M  V30 12 1 12 11
M  V30 13 1 13 12
M  V30 14 1 14 13
M  V30 15 1 15 14
M  V30 16 1 16 15
M  V30 17 1 17 16
M  V30 18 1 18 17 CFG=1
M  V30 19 1 19 18
M  V30 20 1 20 18
M  V30 21 1 20 19
M  V30 22 1 21 20
M  V30 23 2 22 21
M  V30 24 1 23 22
M  V30 25 2 24 23
M  V30 26 1 25 24
M  V30 27 1 26 21
M  V30 28 2 26 25
M  V30 29 1 27 26
M  V30 30 1 28 27
M  V30 31 1 29 27
M  V30 32 1 30 27
M  V30 33 1 31 15
M  V30 34 1 31 18
M  V30 35 1 32 7
M  V30 36 1 32 10
M  V30 37 1 33 32
M  V30 38 1 34 1
M  V30 39 1 35 1
M  V30 40 1 36 1
M  V30 41 1 37 4
M  V30 42 1 38 12
M  V30 43 1 39 12
M  V30 44 1 40 13
M  V30 45 1 41 13
M  V30 46 1 42 14
M  V30 47 1 43 14
M  V30 48 1 44 16
M  V30 49 1 45 16
M  V30 50 1 46 17
M  V30 51 1 47 17
M  V30 52 1 48 19
M  V30 53 1 49 19
M  V30 54 1 20 50 CFG=3
M  V30 55 1 51 22
M  V30 56 1 52 23
M  V30 57 1 53 24
M  V30 58 1 54 25
M  V30 59 1 55 31
M  V30 60 1 56 31
M  V30 61 1 57 33
M  V30 62 1 58 33
M  V30 63 1 59 33
M  V30 64 1 15 60 CFG=1
M  V30 END BOND
M  V30 END CTAB
M  END
>  <b_m_subgroup_collapsed>  (925) 
0

>  <r_i_docking_score>  (925) 
-7.6934260595051303

>  <s_m_subgroup_title>  (925) 
glide-dock_SP_D22_pv

>  <s_m_subgroupid>  (925) 
glide-dock_SP_D22_pv

>  <Molecule ChEMBL ID>  (925) 
CHEMBL3975989

>  <Standard Type>  (925) 
Ki

>  <Standard Value>  (925) 
63.1

>  <label>  (925) 
1

$$$$
CHEMBL555146
     RDKit          3D

  0  0  0  0  0  0  0  0  0  0999 V3000
M  V30 BEGIN CTAB
M  V30 COUNTS 49 52 0 0 1
M  V30 BEGIN ATOM
M  V30 1 C 8.962410 3.296494 -13.866626 0
M  V30 2 C 8.803271 4.011395 -12.506433 0 CFG=2
M  V30 3 C 7.332356 4.171393 -12.106907 0
M  V30 4 C 6.912131 5.547841 -12.630446 0
M  V30 5 C 8.213563 6.220017 -13.086029 0
M  V30 6 N 9.298949 5.402783 -12.514427 0 CFG=2 CHG=1
M  V30 7 C 10.672509 5.611372 -13.040732 0
M  V30 8 C 11.308845 6.972002 -12.654611 0
M  V30 9 C 11.243997 7.386581 -11.212696 0
M  V30 10 C 12.149935 8.049053 -10.415752 0
M  V30 11 C 11.470900 8.330720 -9.182070 0
M  V30 12 C 11.759070 8.972282 -7.953470 0
M  V30 13 C 10.767279 9.110607 -6.952937 0
M  V30 14 C 11.088007 9.745159 -5.653637 0
M  V30 15 O 10.890161 10.937174 -5.446678 0
M  V30 16 C 11.609818 8.833375 -4.607000 0
M  V30 17 C 12.037007 9.332205 -3.351873 0
M  V30 18 C 12.481978 8.444351 -2.350793 0
M  V30 19 C 12.485987 7.060174 -2.605518 0
M  V30 20 F 12.886009 6.172550 -1.675731 0
M  V30 21 C 12.084917 6.572374 -3.845904 0
M  V30 22 C 11.645288 7.442198 -4.841633 0
M  V30 23 C 9.480801 8.561604 -7.145784 0
M  V30 24 C 9.189836 7.878267 -8.336618 0
M  V30 25 C 10.170203 7.797872 -9.330643 0
M  V30 26 O 10.044176 7.227632 -10.575258 0
M  V30 27 H 8.509141 2.303862 -13.846838 0
M  V30 28 H 8.487822 3.847335 -14.678797 0
M  V30 29 H 10.011847 3.153309 -14.126530 0
M  V30 30 H 9.350288 3.440026 -11.757321 0
M  V30 31 H 7.252343 4.163464 -11.019485 0
M  V30 32 H 6.692481 3.372984 -12.484259 0
M  V30 33 H 6.425193 6.126685 -11.844830 0
M  V30 34 H 6.197892 5.450278 -13.446180 0
M  V30 35 H 8.272481 7.262302 -12.769876 0
M  V30 36 H 8.280858 6.172419 -14.173165 0
M  V30 37 H 10.681873 5.499413 -14.124744 0
M  V30 38 H 11.286079 4.803468 -12.650320 0
M  V30 39 H 10.886083 7.771938 -13.253190 0
M  V30 40 H 12.356659 6.942065 -12.955414 0
M  V30 41 H 13.156356 8.355945 -10.664588 0
M  V30 42 H 12.750200 9.367571 -7.786027 0
M  V30 43 H 12.007778 10.390790 -3.134820 0
M  V30 44 H 12.797148 8.823929 -1.390971 0
M  V30 45 H 12.093113 5.515432 -4.039312 0
M  V30 46 H 11.330880 6.998263 -5.774634 0
M  V30 47 H 8.720649 8.635723 -6.380249 0
M  V30 48 H 8.217006 7.436441 -8.497717 0
M  V30 49 H 9.336264 5.681283 -11.540320 0
M  V30 END ATOM
M  V30 BEGIN BOND
M  V30 1 1 2 1
M  V30 2 1 3 2
M  V30 3 1 4 3
M  V30 4 1 5 4
M  V30 5 1 6 2
M  V30 6 1 6 5
M  V30 7 1 7 6
M  V30 8 1 8 7
M  V30 9 1 9 8
M  V30 10 2 10 9
M  V30 11 1 11 10
M  V30 12 1 12 11
M  V30 13 2 13 12
M  V30 14 1 14 13
M  V30 15 2 15 14
M  V30 16 1 16 14
M  V30 17 1 17 16
M  V30 18 2 18 17
M  V30 19 1 19 18
M  V30 20 1 20 19
M  V30 21 2 21 19
M  V30 22 2 22 16
M  V30 23 1 22 21
M  V30 24 1 23 13
M  V30 25 2 24 23
M  V30 26 2 25 11
M  V30 27 1 25 24
M  V30 28 1 26 9
M  V30 29 1 26 25
M  V30 30 1 27 1
M  V30 31 1 28 1
M  V30 32 1 29 1
M  V30 33 1 2 30 CFG=1
M  V30 34 1 31 3
M  V30 35 1 32 3
M  V30 36 1 33 4
M  V30 37 1 34 4
M  V30 38 1 35 5
M  V30 39 1 36 5
M  V30 40 1 37 7
M  V30 41 1 38 7
M  V30 42 1 39 8
M  V30 43 1 40 8
M  V30 44 1 41 10
M  V30 45 1 42 12
M  V30 46 1 43 17
M  V30 47 1 44 18
M  V30 48 1 45 21
M  V30 49 1 46 22
M  V30 50 1 47 23
M  V30 51 1 48 24
M  V30 52 1 6 49 CFG=1
M  V30 END BOND
M  V30 END CTAB
M  END
>  <b_m_subgroup_collapsed>  (926) 
0

>  <r_i_docking_score>  (926) 
-7.6918887976317398

>  <s_m_subgroup_title>  (926) 
glide-dock_SP_D22_pv

>  <s_m_subgroupid>  (926) 
glide-dock_SP_D22_pv

>  <Molecule ChEMBL ID>  (926) 
CHEMBL555146

>  <Standard Type>  (926) 
Ki

>  <Standard Value>  (926) 
10000.0

>  <label>  (926) 
0

$$$$
CHEMBL198463
     RDKit          3D

  0  0  0  0  0  0  0  0  0  0999 V3000
M  V30 BEGIN CTAB
M  V30 COUNTS 63 68 0 0 1
M  V30 BEGIN ATOM
M  V30 1 C 10.780189 -0.775655 -17.769726 0
M  V30 2 N 10.485067 0.147720 -16.649944 0 CFG=1 CHG=1
M  V30 3 C 11.273025 1.408073 -16.724199 0
M  V30 4 C 11.117227 2.241209 -15.435241 0
M  V30 5 C 9.672545 2.384613 -15.054018 0
M  V30 6 C 8.740774 1.506409 -15.540732 0
M  V30 7 S 7.138582 1.865305 -14.954741 0
M  V30 8 C 7.726235 3.243482 -14.062112 0
M  V30 9 N 6.871925 4.053332 -13.344862 0
M  V30 10 C 7.483759 5.005753 -12.695370 0
M  V30 11 N 8.889990 5.211950 -12.678466 0
M  V30 12 C 9.401543 6.266619 -11.785720 0
M  V30 13 C 8.993869 6.020930 -10.318269 0
M  V30 14 N 10.027534 6.363665 -9.351334 0
M  V30 15 C 10.421266 7.776079 -9.365808 0
M  V30 16 C 11.615390 7.951557 -8.402112 0
M  V30 17 N 11.278123 7.485844 -7.055401 0
M  V30 18 C 11.279474 8.358276 -5.949612 0
M  V30 19 C 10.886023 9.698633 -6.136978 0
M  V30 20 C 10.886023 10.577763 -5.046865 0
M  V30 21 N 11.286023 10.172324 -3.844378 0 CHG=1
M  V30 22 C 11.686022 8.933079 -3.596602 0
M  V30 23 C 12.086764 8.641681 -2.291447 0
M  V30 24 C 12.486021 7.341945 -2.006438 0
M  V30 25 C 12.485837 6.358147 -2.991519 0
M  V30 26 C 12.065192 6.655970 -4.293443 0
M  V30 27 C 11.671576 7.964622 -4.634173 0
M  V30 28 C 10.597085 6.199002 -6.979659 0
M  V30 29 C 9.482884 6.079849 -8.023637 0
M  V30 30 C 9.744149 4.446493 -13.414841 0
M  V30 31 O 10.964519 4.609387 -13.446874 0
M  V30 32 C 9.086082 3.357934 -14.185295 0
M  V30 33 C 9.023019 0.386289 -16.490553 0
M  V30 34 H 10.450364 -0.355425 -18.720968 0
M  V30 35 H 11.849546 -0.975637 -17.846861 0
M  V30 36 H 10.272838 -1.730542 -17.625454 0
M  V30 37 H 10.933815 1.986893 -17.585129 0
M  V30 38 H 12.329363 1.189028 -16.887581 0
M  V30 39 H 11.578827 3.217150 -15.587222 0
M  V30 40 H 11.662003 1.772328 -14.616743 0
M  V30 41 H 6.926414 5.725929 -12.092292 0
M  V30 42 H 9.019364 7.234328 -12.114908 0
M  V30 43 H 10.486578 6.350508 -11.851598 0
M  V30 44 H 8.762042 4.963230 -10.180298 0
M  V30 45 H 8.086022 6.572324 -10.089564 0
M  V30 46 H 9.582970 8.415087 -9.081624 0
M  V30 47 H 10.728516 8.080462 -10.365934 0
M  V30 48 H 11.955750 8.986280 -8.403290 0
M  V30 49 H 12.463097 7.372325 -8.764537 0
M  V30 50 H 10.542266 10.047858 -7.094410 0
M  V30 51 H 10.573718 11.604240 -5.046865 0
M  V30 52 H 12.111732 9.395042 -1.516170 0
M  V30 53 H 12.886023 7.100377 -1.046864 0
M  V30 54 H 12.839257 5.372324 -2.745479 0
M  V30 55 H 12.092836 5.863278 -5.021863 0
M  V30 56 H 11.330032 5.404646 -7.122875 0
M  V30 57 H 10.141256 6.074406 -5.998622 0
M  V30 58 H 8.658113 6.757433 -7.790978 0
M  V30 59 H 9.077636 5.067543 -7.987988 0
M  V30 60 H 8.540980 -0.529383 -16.146486 0
M  V30 61 H 8.584732 0.630299 -17.459410 0
M  V30 62 H 11.287382 10.849016 -3.077945 0
M  V30 63 H 10.784266 -0.308720 -15.800313 0
M  V30 END ATOM
M  V30 BEGIN BOND
M  V30 1 1 2 1
M  V30 2 1 3 2
M  V30 3 1 4 3
M  V30 4 1 5 4
M  V30 5 2 6 5
M  V30 6 1 7 6
M  V30 7 1 8 7
M  V30 8 1 9 8
M  V30 9 2 10 9
M  V30 10 1 11 10
M  V30 11 1 12 11
M  V30 12 1 13 12
M  V30 13 1 14 13
M  V30 14 1 15 14
M  V30 15 1 16 15
M  V30 16 1 17 16
M  V30 17 1 18 17
M  V30 18 2 19 18
M  V30 19 1 20 19
M  V30 20 2 21 20
M  V30 21 1 22 21
M  V30 22 2 23 22
M  V30 23 1 24 23
M  V30 24 2 25 24
M  V30 25 1 26 25
M  V30 26 1 27 18
M  V30 27 1 27 22
M  V30 28 2 27 26
M  V30 29 1 28 17
M  V30 30 1 29 14
M  V30 31 1 29 28
M  V30 32 1 30 11
M  V30 33 2 31 30
M  V30 34 1 32 5
M  V30 35 2 32 8
M  V30 36 1 32 30
M  V30 37 1 33 2
M  V30 38 1 33 6
M  V30 39 1 34 1
M  V30 40 1 35 1
M  V30 41 1 36 1
M  V30 42 1 37 3
M  V30 43 1 38 3
M  V30 44 1 39 4
M  V30 45 1 40 4
M  V30 46 1 41 10
M  V30 47 1 42 12
M  V30 48 1 43 12
M  V30 49 1 44 13
M  V30 50 1 45 13
M  V30 51 1 46 15
M  V30 52 1 47 15
M  V30 53 1 48 16
M  V30 54 1 49 16
M  V30 55 1 50 19
M  V30 56 1 51 20
M  V30 57 1 52 23
M  V30 58 1 53 24
M  V30 59 1 54 25
M  V30 60 1 55 26
M  V30 61 1 56 28
M  V30 62 1 57 28
M  V30 63 1 58 29
M  V30 64 1 59 29
M  V30 65 1 60 33
M  V30 66 1 61 33
M  V30 67 1 62 21
M  V30 68 1 2 63 CFG=1
M  V30 END BOND
M  V30 END CTAB
M  END
>  <b_m_subgroup_collapsed>  (927) 
0

>  <r_i_docking_score>  (927) 
-7.6907978375383497

>  <s_m_subgroup_title>  (927) 
glide-dock_SP_D22_pv

>  <s_m_subgroupid>  (927) 
glide-dock_SP_D22_pv

>  <Molecule ChEMBL ID>  (927) 
CHEMBL198463

>  <Standard Type>  (927) 
Ki

>  <Standard Value>  (927) 
1.46

>  <label>  (927) 
1

$$$$
CHEMBL134808
     RDKit          3D

  0  0  0  0  0  0  0  0  0  0999 V3000
M  V30 BEGIN CTAB
M  V30 COUNTS 44 47 0 0 1
M  V30 BEGIN ATOM
M  V30 1 O 8.366200 -0.074654 -15.956207 0
M  V30 2 C 7.623945 0.782209 -15.199362 0
M  V30 3 C 6.428680 0.339348 -14.600083 0
M  V30 4 C 5.682679 1.214110 -13.789626 0
M  V30 5 C 6.129160 2.532048 -13.563087 0
M  V30 6 C 7.342378 2.969582 -14.150735 0
M  V30 7 C 8.068501 2.101889 -14.991904 0
M  V30 8 O 7.865033 4.206968 -13.858533 0
M  V30 9 C 7.567666 4.640338 -12.538157 0 CFG=1
M  V30 10 C 8.401454 5.894218 -12.214990 0
M  V30 11 N 8.487517 6.257895 -10.768575 0 CFG=1 CHG=1
M  V30 12 C 8.776452 5.122925 -9.853821 0
M  V30 13 C 8.711891 5.546279 -8.389734 0
M  V30 14 C 9.586457 6.741306 -8.104633 0
M  V30 15 C 10.052077 6.973151 -6.794158 0
M  V30 16 C 10.885232 8.074142 -6.525477 0
M  V30 17 C 11.250556 8.943386 -7.568188 0
M  V30 18 C 10.766023 8.728161 -8.874526 0
M  V30 19 C 9.925310 7.628341 -9.150104 0
M  V30 20 C 9.441187 7.390520 -10.580928 0
M  V30 21 C 6.044888 4.813402 -12.418748 0
M  V30 22 C 5.347348 3.460194 -12.643264 0
M  V30 23 H 8.087786 -0.980307 -15.861313 0
M  V30 24 H 6.080676 -0.671666 -14.759574 0
M  V30 25 H 4.765512 0.869781 -13.334414 0
M  V30 26 H 8.997849 2.432694 -15.429001 0
M  V30 27 H 7.897272 3.816735 -11.909936 0
M  V30 28 H 9.415256 5.711635 -12.577950 0
M  V30 29 H 8.022365 6.746175 -12.780393 0
M  V30 30 H 8.051173 4.321758 -9.947075 0
M  V30 31 H 9.755757 4.704848 -10.090808 0
M  V30 32 H 9.038094 4.703624 -7.787976 0
M  V30 33 H 7.686417 5.772675 -8.096168 0
M  V30 34 H 9.776364 6.302581 -5.992337 0
M  V30 35 H 11.252273 8.241965 -5.524468 0
M  V30 36 H 11.902967 9.774531 -7.359983 0
M  V30 37 H 11.054790 9.406037 -9.665280 0
M  V30 38 H 10.334244 7.222658 -11.184363 0
M  V30 39 H 8.972175 8.302110 -10.953361 0
M  V30 40 H 5.760346 5.233473 -11.448750 0
M  V30 41 H 5.714205 5.525548 -13.175807 0
M  V30 42 H 4.339846 3.607805 -13.038404 0
M  V30 43 H 5.258432 2.951026 -11.685006 0
M  V30 44 H 7.582803 6.654564 -10.493371 0
M  V30 END ATOM
M  V30 BEGIN BOND
M  V30 1 1 2 1
M  V30 2 1 3 2
M  V30 3 2 4 3
M  V30 4 1 5 4
M  V30 5 2 6 5
M  V30 6 2 7 2
M  V30 7 1 7 6
M  V30 8 1 8 6
M  V30 9 1 9 8
M  V30 10 1 10 9
M  V30 11 1 11 10
M  V30 12 1 12 11
M  V30 13 1 13 12
M  V30 14 1 14 13
M  V30 15 2 15 14
M  V30 16 1 16 15
M  V30 17 2 17 16
M  V30 18 1 18 17
M  V30 19 1 19 14
M  V30 20 2 19 18
M  V30 21 1 20 11
M  V30 22 1 20 19
M  V30 23 1 21 9
M  V30 24 1 22 5
M  V30 25 1 22 21
M  V30 26 1 23 1
M  V30 27 1 24 3
M  V30 28 1 25 4
M  V30 29 1 26 7
M  V30 30 1 9 27 CFG=1
M  V30 31 1 28 10
M  V30 32 1 29 10
M  V30 33 1 30 12
M  V30 34 1 31 12
M  V30 35 1 32 13
M  V30 36 1 33 13
M  V30 37 1 34 15
M  V30 38 1 35 16
M  V30 39 1 36 17
M  V30 40 1 37 18
M  V30 41 1 38 20
M  V30 42 1 39 20
M  V30 43 1 40 21
M  V30 44 1 41 21
M  V30 45 1 42 22
M  V30 46 1 43 22
M  V30 47 1 11 44 CFG=1
M  V30 END BOND
M  V30 END CTAB
M  END
>  <b_m_subgroup_collapsed>  (928) 
0

>  <r_i_docking_score>  (928) 
-7.6898209896573304

>  <s_m_subgroup_title>  (928) 
glide-dock_SP_D22_pv

>  <s_m_subgroupid>  (928) 
glide-dock_SP_D22_pv

>  <Molecule ChEMBL ID>  (928) 
CHEMBL134808

>  <Standard Type>  (928) 
Ki

>  <Standard Value>  (928) 
4.3

>  <label>  (928) 
1

$$$$
CHEMBL309015
     RDKit          3D

  0  0  0  0  0  0  0  0  0  0999 V3000
M  V30 BEGIN CTAB
M  V30 COUNTS 58 61 0 0 1
M  V30 BEGIN ATOM
M  V30 1 C 10.100558 8.221785 -7.622049 0
M  V30 2 C 10.560129 9.048169 -6.667171 0
M  V30 3 C 11.139618 8.652906 -5.373678 0
M  V30 4 C 11.324630 7.301029 -4.996435 0
M  V30 5 C 11.879589 6.981424 -3.741348 0
M  V30 6 C 12.259264 8.005551 -2.853401 0
M  V30 7 C 12.078012 9.352025 -3.219363 0
M  V30 8 C 11.505701 9.668487 -4.466855 0
M  V30 9 C 9.521852 8.686228 -8.944243 0
M  V30 10 O 10.292732 8.272646 -10.069963 0
M  V30 11 C 10.474113 6.871834 -10.254265 0
M  V30 12 C 9.149346 6.087931 -10.385617 0 CFG=1
M  V30 13 C 8.240935 6.600559 -11.510215 0
M  V30 14 C 8.771038 6.230589 -12.883262 0
M  V30 15 N 8.878178 4.770189 -13.024707 0 CFG=1 CHG=1
M  V30 16 C 9.184182 4.408006 -14.427175 0
M  V30 17 C 9.116398 2.915582 -14.681456 0
M  V30 18 C 10.274928 2.297284 -15.196924 0
M  V30 19 C 10.302405 0.915119 -15.425728 0
M  V30 20 C 9.172624 0.142024 -15.120179 0
M  V30 21 C 8.007231 0.736503 -14.593718 0
M  V30 22 C 6.897918 -0.069891 -14.255776 0
M  V30 23 C 5.746487 0.504626 -13.691024 0
M  V30 24 C 5.685618 1.892952 -13.482670 0
M  V30 25 C 6.765972 2.708560 -13.867656 0
M  V30 26 C 7.958663 2.140075 -14.389660 0
M  V30 27 C 9.784247 4.183322 -12.013494 0
M  V30 28 C 9.337816 4.579484 -10.584287 0
M  V30 29 H 10.118944 7.153933 -7.475230 0
M  V30 30 H 10.510569 10.111412 -6.852488 0
M  V30 31 H 11.043519 6.492611 -5.654009 0
M  V30 32 H 12.016370 5.947544 -3.459061 0
M  V30 33 H 12.681337 7.760650 -1.890738 0
M  V30 34 H 12.355997 10.141490 -2.536508 0
M  V30 35 H 11.336811 10.702081 -4.729428 0
M  V30 36 H 8.486019 8.364087 -9.024467 0
M  V30 37 H 9.489988 9.771470 -8.964673 0
M  V30 38 H 11.076194 6.750607 -11.154213 0
M  V30 39 H 11.073862 6.464748 -9.441392 0
M  V30 40 H 8.603415 6.196429 -9.447930 0
M  V30 41 H 7.242570 6.172246 -11.402761 0
M  V30 42 H 8.118857 7.681514 -11.445833 0
M  V30 43 H 9.748181 6.683489 -13.046764 0
M  V30 44 H 8.085864 6.602423 -13.642426 0
M  V30 45 H 8.485693 4.901279 -15.096192 0
M  V30 46 H 10.170983 4.795002 -14.686778 0
M  V30 47 H 11.157672 2.878847 -15.420355 0
M  V30 48 H 11.191586 0.447405 -15.820415 0
M  V30 49 H 9.225801 -0.923134 -15.280850 0
M  V30 50 H 6.925104 -1.137527 -14.415459 0
M  V30 51 H 4.903291 -0.118605 -13.435299 0
M  V30 52 H 4.792735 2.336716 -13.064880 0
M  V30 53 H 6.648140 3.772429 -13.738104 0
M  V30 54 H 10.796149 4.511723 -12.247650 0
M  V30 55 H 9.783520 3.095685 -12.094637 0
M  V30 56 H 10.010373 4.164032 -9.832862 0
M  V30 57 H 8.347653 4.172313 -10.388882 0
M  V30 58 H 7.963573 4.395201 -12.823188 0
M  V30 END ATOM
M  V30 BEGIN BOND
M  V30 1 2 2 1
M  V30 2 1 3 2
M  V30 3 2 4 3
M  V30 4 1 5 4
M  V30 5 2 6 5
M  V30 6 1 7 6
M  V30 7 1 8 3
M  V30 8 2 8 7
M  V30 9 1 9 1
M  V30 10 1 10 9
M  V30 11 1 11 10
M  V30 12 1 12 11
M  V30 13 1 13 12
M  V30 14 1 14 13
M  V30 15 1 15 14
M  V30 16 1 16 15
M  V30 17 1 17 16
M  V30 18 2 18 17
M  V30 19 1 19 18
M  V30 20 2 20 19
M  V30 21 1 21 20
M  V30 22 2 22 21
M  V30 23 1 23 22
M  V30 24 2 24 23
M  V30 25 1 25 24
M  V30 26 1 26 17
M  V30 27 1 26 21
M  V30 28 2 26 25
M  V30 29 1 27 15
M  V30 30 1 28 12
M  V30 31 1 28 27
M  V30 32 1 29 1
M  V30 33 1 30 2
M  V30 34 1 31 4
M  V30 35 1 32 5
M  V30 36 1 33 6
M  V30 37 1 34 7
M  V30 38 1 35 8
M  V30 39 1 36 9
M  V30 40 1 37 9
M  V30 41 1 38 11
M  V30 42 1 39 11
M  V30 43 1 12 40 CFG=1
M  V30 44 1 41 13
M  V30 45 1 42 13
M  V30 46 1 43 14
M  V30 47 1 44 14
M  V30 48 1 45 16
M  V30 49 1 46 16
M  V30 50 1 47 18
M  V30 51 1 48 19
M  V30 52 1 49 20
M  V30 53 1 50 22
M  V30 54 1 51 23
M  V30 55 1 52 24
M  V30 56 1 53 25
M  V30 57 1 54 27
M  V30 58 1 55 27
M  V30 59 1 56 28
M  V30 60 1 57 28
M  V30 61 1 15 58 CFG=1
M  V30 END BOND
M  V30 END CTAB
M  END
>  <b_m_subgroup_collapsed>  (929) 
0

>  <r_i_docking_score>  (929) 
-7.6895709530098397

>  <s_m_subgroup_title>  (929) 
glide-dock_SP_D22_pv

>  <s_m_subgroupid>  (929) 
glide-dock_SP_D22_pv

>  <Molecule ChEMBL ID>  (929) 
CHEMBL309015

>  <Standard Type>  (929) 
Ki

>  <Standard Value>  (929) 
10000.0

>  <label>  (929) 
0

$$$$
CHEMBL164979
     RDKit          3D

  0  0  0  0  0  0  0  0  0  0999 V3000
M  V30 BEGIN CTAB
M  V30 COUNTS 56 58 0 0 1
M  V30 BEGIN ATOM
M  V30 1 C 8.908961 8.850182 -8.946833 0
M  V30 2 N 8.886933 7.479915 -8.364758 0 CFG=2 CHG=1
M  V30 3 C 9.347221 7.470976 -6.948296 0
M  V30 4 C 10.863949 7.738760 -6.783134 0
M  V30 5 C 11.285804 7.911808 -5.335566 0
M  V30 6 C 11.675535 6.799699 -4.561948 0
M  V30 7 C 12.084933 6.973915 -3.224852 0
M  V30 8 C 12.102104 8.261724 -2.657397 0
M  V30 9 C 11.725513 9.374930 -3.430033 0
M  V30 10 C 11.317467 9.203885 -4.766912 0
M  V30 11 C 9.564181 6.469544 -9.221984 0
M  V30 12 C 8.746854 6.081648 -10.472040 0
M  V30 13 C 9.531316 5.282732 -11.533739 0 CFG=1
M  V30 14 C 8.566529 4.641246 -12.552224 0
M  V30 15 C 9.312761 3.913919 -13.685450 0
M  V30 16 C 10.265613 4.867830 -14.430145 0 CFG=2
M  V30 17 N 10.966146 4.169558 -15.499645 0
M  V30 18 C 11.756330 4.783056 -16.451241 0
M  V30 19 N 12.536731 3.962425 -17.148987 0
M  V30 20 C 13.344371 4.528182 -18.069668 0
M  V30 21 C 13.360036 5.916729 -18.290848 0
M  V30 22 C 12.487164 6.682553 -17.493849 0
M  V30 23 N 11.685527 6.112383 -16.575491 0
M  V30 24 C 11.255196 5.490269 -13.428874 0
M  V30 25 C 10.528090 6.198668 -12.273461 0
M  V30 26 H 9.923316 9.241581 -9.030711 0
M  V30 27 H 8.486369 8.880978 -9.947543 0
M  V30 28 H 8.328357 9.533286 -8.325149 0
M  V30 29 H 8.774981 8.217110 -6.396411 0
M  V30 30 H 9.096069 6.509818 -6.495742 0
M  V30 31 H 11.446101 6.922399 -7.217924 0
M  V30 32 H 11.169980 8.637563 -7.315497 0
M  V30 33 H 11.660478 5.807758 -4.988302 0
M  V30 34 H 12.375605 6.116862 -2.633917 0
M  V30 35 H 12.409155 8.397446 -1.629135 0
M  V30 36 H 11.741868 10.363090 -2.992846 0
M  V30 37 H 11.034756 10.066543 -5.352570 0
M  V30 38 H 9.747468 5.562265 -8.641186 0
M  V30 39 H 10.546474 6.853845 -9.497782 0
M  V30 40 H 8.355583 6.966903 -10.971273 0
M  V30 41 H 7.869258 5.516932 -10.148974 0
M  V30 42 H 10.084329 4.481143 -11.040696 0
M  V30 43 H 7.902810 3.937932 -12.047232 0
M  V30 44 H 7.920686 5.409183 -12.983344 0
M  V30 45 H 8.590380 3.490694 -14.384377 0
M  V30 46 H 9.872026 3.074337 -13.270524 0
M  V30 47 H 9.670748 5.662186 -14.884558 0
M  V30 48 H 11.073547 3.166694 -15.424986 0
M  V30 49 H 13.986431 3.867449 -18.633196 0
M  V30 50 H 14.003229 6.373660 -19.029152 0
M  V30 51 H 12.432300 7.755548 -17.597710 0
M  V30 52 H 11.912715 4.711308 -13.046935 0
M  V30 53 H 11.905015 6.211515 -13.926953 0
M  V30 54 H 11.278132 6.573843 -11.582116 0
M  V30 55 H 10.005768 7.078895 -12.647099 0
M  V30 56 H 7.898283 7.227698 -8.336384 0
M  V30 END ATOM
M  V30 BEGIN BOND
M  V30 1 1 2 1
M  V30 2 1 3 2
M  V30 3 1 4 3
M  V30 4 1 5 4
M  V30 5 2 6 5
M  V30 6 1 7 6
M  V30 7 2 8 7
M  V30 8 1 9 8
M  V30 9 1 10 5
M  V30 10 2 10 9
M  V30 11 1 11 2
M  V30 12 1 12 11
M  V30 13 1 13 12
M  V30 14 1 14 13
M  V30 15 1 15 14
M  V30 16 1 16 15
M  V30 17 1 17 16
M  V30 18 1 18 17
M  V30 19 2 19 18
M  V30 20 1 20 19
M  V30 21 2 21 20
M  V30 22 1 22 21
M  V30 23 1 23 18
M  V30 24 2 23 22
M  V30 25 1 24 16
M  V30 26 1 25 13
M  V30 27 1 25 24
M  V30 28 1 26 1
M  V30 29 1 27 1
M  V30 30 1 28 1
M  V30 31 1 29 3
M  V30 32 1 30 3
M  V30 33 1 31 4
M  V30 34 1 32 4
M  V30 35 1 33 6
M  V30 36 1 34 7
M  V30 37 1 35 8
M  V30 38 1 36 9
M  V30 39 1 37 10
M  V30 40 1 38 11
M  V30 41 1 39 11
M  V30 42 1 40 12
M  V30 43 1 41 12
M  V30 44 1 13 42 CFG=1
M  V30 45 1 43 14
M  V30 46 1 44 14
M  V30 47 1 45 15
M  V30 48 1 46 15
M  V30 49 1 16 47 CFG=3
M  V30 50 1 48 17
M  V30 51 1 49 20
M  V30 52 1 50 21
M  V30 53 1 51 22
M  V30 54 1 52 24
M  V30 55 1 53 24
M  V30 56 1 54 25
M  V30 57 1 55 25
M  V30 58 1 2 56 CFG=1
M  V30 END BOND
M  V30 END CTAB
M  END
>  <b_m_subgroup_collapsed>  (930) 
0

>  <r_i_docking_score>  (930) 
-7.6881359142443202

>  <s_m_subgroup_title>  (930) 
glide-dock_SP_D22_pv

>  <s_m_subgroupid>  (930) 
glide-dock_SP_D22_pv

>  <Molecule ChEMBL ID>  (930) 
CHEMBL164979

>  <Standard Type>  (930) 
Ki

>  <Standard Value>  (930) 
39.0

>  <label>  (930) 
1

$$$$
CHEMBL542877
     RDKit          3D

  0  0  0  0  0  0  0  0  0  0999 V3000
M  V30 BEGIN CTAB
M  V30 COUNTS 43 46 0 0 1
M  V30 BEGIN ATOM
M  V30 1 O 11.685359 6.087616 -7.046904 0
M  V30 2 C 10.790265 6.919769 -7.102446 0
M  V30 3 C 10.537751 7.932012 -6.117252 0
M  V30 4 C 11.285764 8.186204 -4.870665 0
M  V30 5 C 11.754034 7.086812 -4.114233 0
M  V30 6 C 12.357291 7.286853 -2.860810 0
M  V30 7 C 12.485529 8.588497 -2.346613 0
M  V30 8 C 12.008080 9.686165 -3.087676 0
M  V30 9 C 11.402525 9.489596 -4.346239 0
M  V30 10 C 9.466455 8.572192 -6.587845 0
M  V30 11 O 8.887750 8.078360 -7.719410 0
M  V30 12 C 9.671844 6.976825 -8.150537 0 CFG=2
M  V30 13 C 8.868597 5.665824 -8.218354 0
M  V30 14 C 8.885071 5.252922 -9.682645 0
M  V30 15 N 9.081590 6.521986 -10.403420 0 CFG=2 CHG=1
M  V30 16 C 9.384171 6.423302 -11.850013 0
M  V30 17 C 8.510136 5.409342 -12.571948 0
M  V30 18 C 9.102281 4.301838 -13.212194 0
M  V30 19 C 8.298985 3.339760 -13.851251 0
M  V30 20 C 6.897189 3.470126 -13.844555 0
M  V30 21 C 6.299923 4.571715 -13.203157 0
M  V30 22 C 7.103491 5.548999 -12.583366 0
M  V30 23 C 10.075116 7.268039 -9.603470 0
M  V30 24 H 11.631250 6.078053 -4.478195 0
M  V30 25 H 12.702740 6.438151 -2.290267 0
M  V30 26 H 12.935009 8.749656 -1.376748 0
M  V30 27 H 12.085215 10.679911 -2.667690 0
M  V30 28 H 11.017985 10.339739 -4.889552 0
M  V30 29 H 8.927138 9.372321 -6.124439 0
M  V30 30 H 9.285319 4.879638 -7.597136 0
M  V30 31 H 7.845271 5.824351 -7.879913 0
M  V30 32 H 9.718529 4.579709 -9.883576 0
M  V30 33 H 7.962903 4.745924 -9.969584 0
M  V30 34 H 9.244372 7.403117 -12.300565 0
M  V30 35 H 10.432671 6.159526 -11.981886 0
M  V30 36 H 10.176382 4.179950 -13.210454 0
M  V30 37 H 8.759652 2.494424 -14.340457 0
M  V30 38 H 6.280308 2.725051 -14.326041 0
M  V30 39 H 5.222825 4.676628 -13.198404 0
M  V30 40 H 6.633099 6.391130 -12.093781 0
M  V30 41 H 10.052984 8.331414 -9.839580 0
M  V30 42 H 11.079629 6.893634 -9.804716 0
M  V30 43 H 8.195406 7.018918 -10.314137 0
M  V30 END ATOM
M  V30 BEGIN BOND
M  V30 1 2 2 1
M  V30 2 1 3 2
M  V30 3 1 4 3
M  V30 4 2 5 4
M  V30 5 1 6 5
M  V30 6 2 7 6
M  V30 7 1 8 7
M  V30 8 1 9 4
M  V30 9 2 9 8
M  V30 10 2 10 3
M  V30 11 1 11 10
M  V30 12 1 12 2
M  V30 13 1 12 11 CFG=1
M  V30 14 1 13 12
M  V30 15 1 14 13
M  V30 16 1 15 14
M  V30 17 1 16 15
M  V30 18 1 17 16
M  V30 19 2 18 17
M  V30 20 1 19 18
M  V30 21 2 20 19
M  V30 22 1 21 20
M  V30 23 1 22 17
M  V30 24 2 22 21
M  V30 25 1 23 12
M  V30 26 1 23 15
M  V30 27 1 24 5
M  V30 28 1 25 6
M  V30 29 1 26 7
M  V30 30 1 27 8
M  V30 31 1 28 9
M  V30 32 1 29 10
M  V30 33 1 30 13
M  V30 34 1 31 13
M  V30 35 1 32 14
M  V30 36 1 33 14
M  V30 37 1 34 16
M  V30 38 1 35 16
M  V30 39 1 36 18
M  V30 40 1 37 19
M  V30 41 1 38 20
M  V30 42 1 39 21
M  V30 43 1 40 22
M  V30 44 1 41 23
M  V30 45 1 42 23
M  V30 46 1 15 43 CFG=3
M  V30 END BOND
M  V30 END CTAB
M  END
>  <b_m_subgroup_collapsed>  (931) 
0

>  <r_i_docking_score>  (931) 
-7.6880975820765798

>  <s_m_subgroup_title>  (931) 
glide-dock_SP_D22_pv

>  <s_m_subgroupid>  (931) 
glide-dock_SP_D22_pv

>  <Molecule ChEMBL ID>  (931) 
CHEMBL542877

>  <Standard Type>  (931) 
Ki

>  <Standard Value>  (931) 
20000.0

>  <label>  (931) 
0

$$$$
CHEMBL3764830
     RDKit          3D

  0  0  0  0  0  0  0  0  0  0999 V3000
M  V30 BEGIN CTAB
M  V30 COUNTS 62 65 0 0 1
M  V30 BEGIN ATOM
M  V30 1 C 10.281394 1.312906 -14.345210 0
M  V30 2 N 9.990930 2.279628 -15.391008 0
M  V30 3 C 10.687676 3.391705 -15.685052 0
M  V30 4 S 12.086006 3.851100 -14.717064 0
M  V30 5 C 12.442829 5.537687 -15.276554 0
M  V30 6 C 11.495127 6.528980 -14.604506 0
M  V30 7 C 11.754972 6.717026 -13.091246 0
M  V30 8 N 10.564988 6.881555 -12.246446 0
M  V30 9 C 9.767667 5.652064 -12.177705 0
M  V30 10 C 8.583138 5.772152 -11.204988 0
M  V30 11 O 9.078999 6.113596 -9.916668 0
M  V30 12 C 9.758087 7.367220 -9.902847 0 CFG=1
M  V30 13 C 10.227865 7.743013 -8.501799 0
M  V30 14 C 10.027521 6.880599 -7.401128 0
M  V30 15 C 10.486605 7.242273 -6.117930 0
M  V30 16 C 11.153009 8.470299 -5.916644 0
M  V30 17 C 11.669011 8.881258 -4.544895 0
M  V30 18 F 12.901634 9.372065 -4.646930 0
M  V30 19 F 10.886075 9.833864 -4.044382 0
M  V30 20 F 11.697733 7.852134 -3.696742 0
M  V30 21 C 11.339365 9.335054 -7.012783 0
M  V30 22 C 10.886071 8.972322 -8.295396 0
M  V30 23 C 10.945312 7.281953 -10.888592 0
M  V30 24 N 10.229520 4.045566 -16.751333 0
M  V30 25 N 9.147285 3.313570 -17.182228 0
M  V30 26 C 9.008837 2.300626 -16.318346 0
M  V30 27 C 7.891212 1.363754 -16.402836 0
M  V30 28 C 7.127193 1.059178 -15.252971 0
M  V30 29 C 6.037806 0.171837 -15.334102 0
M  V30 30 C 5.684391 -0.377905 -16.579170 0
M  V30 31 S 4.237898 -1.419843 -16.689295 0
M  V30 32 N 4.886075 -2.966933 -16.336258 0
M  V30 33 O 3.313940 -1.055030 -15.602815 0
M  V30 34 O 3.788951 -1.435727 -18.089663 0
M  V30 35 C 6.435143 -0.084240 -17.734179 0
M  V30 36 C 7.543652 0.781539 -17.641788 0
M  V30 37 H 10.621895 1.831427 -13.446889 0
M  V30 38 H 9.412579 0.711649 -14.088856 0
M  V30 39 H 11.070138 0.644590 -14.687399 0
M  V30 40 H 13.476427 5.780737 -15.025500 0
M  V30 41 H 12.366403 5.597243 -16.362066 0
M  V30 42 H 11.595863 7.494981 -15.098407 0
M  V30 43 H 10.486197 6.172188 -14.803114 0
M  V30 44 H 12.347141 5.882715 -12.716906 0
M  V30 45 H 12.402812 7.587299 -12.977139 0
M  V30 46 H 9.375317 5.392601 -13.159543 0
M  V30 47 H 10.392539 4.814010 -11.869370 0
M  V30 48 H 7.871114 6.522931 -11.551638 0
M  V30 49 H 8.046478 4.825562 -11.139174 0
M  V30 50 H 9.062403 8.142329 -10.231858 0
M  V30 51 H 9.518979 5.936678 -7.530106 0
M  V30 52 H 10.320298 6.568503 -5.290264 0
M  V30 53 H 11.839848 10.279669 -6.865643 0
M  V30 54 H 11.042583 9.648457 -9.122697 0
M  V30 55 H 11.659779 6.573706 -10.471924 0
M  V30 56 H 11.459344 8.242490 -10.932902 0
M  V30 57 H 7.362368 1.515649 -14.302344 0
M  V30 58 H 5.454244 -0.054343 -14.453460 0
M  V30 59 H 4.106454 -3.639459 -16.246864 0
M  V30 60 H 5.519559 -3.267404 -17.074625 0
M  V30 61 H 6.159729 -0.511208 -18.686630 0
M  V30 62 H 8.116267 1.008408 -18.528404 0
M  V30 END ATOM
M  V30 BEGIN BOND
M  V30 1 1 2 1
M  V30 2 1 3 2
M  V30 3 1 4 3
M  V30 4 1 5 4
M  V30 5 1 6 5
M  V30 6 1 7 6
M  V30 7 1 8 7
M  V30 8 1 9 8
M  V30 9 1 10 9
M  V30 10 1 11 10
M  V30 11 1 12 11
M  V30 12 1 13 12
M  V30 13 1 14 13
M  V30 14 2 15 14
M  V30 15 1 16 15
M  V30 16 1 17 16
M  V30 17 1 18 17
M  V30 18 1 19 17
M  V30 19 1 20 17
M  V30 20 2 21 16
M  V30 21 2 22 13
M  V30 22 1 22 21
M  V30 23 1 23 8
M  V30 24 1 23 12
M  V30 25 2 24 3
M  V30 26 1 25 24
M  V30 27 1 26 2
M  V30 28 2 26 25
M  V30 29 1 27 26
M  V30 30 1 28 27
M  V30 31 2 29 28
M  V30 32 1 30 29
M  V30 33 1 31 30
M  V30 34 1 32 31
M  V30 35 2 33 31
M  V30 36 2 34 31
M  V30 37 2 35 30
M  V30 38 2 36 27
M  V30 39 1 36 35
M  V30 40 1 37 1
M  V30 41 1 38 1
M  V30 42 1 39 1
M  V30 43 1 40 5
M  V30 44 1 41 5
M  V30 45 1 42 6
M  V30 46 1 43 6
M  V30 47 1 44 7
M  V30 48 1 45 7
M  V30 49 1 46 9
M  V30 50 1 47 9
M  V30 51 1 48 10
M  V30 52 1 49 10
M  V30 53 1 12 50 CFG=3
M  V30 54 1 51 14
M  V30 55 1 52 15
M  V30 56 1 53 21
M  V30 57 1 54 22
M  V30 58 1 55 23
M  V30 59 1 56 23
M  V30 60 1 57 28
M  V30 61 1 58 29
M  V30 62 1 59 32
M  V30 63 1 60 32
M  V30 64 1 61 35
M  V30 65 1 62 36
M  V30 END BOND
M  V30 END CTAB
M  END
>  <b_m_subgroup_collapsed>  (932) 
0

>  <r_i_docking_score>  (932) 
-7.68781506326585

>  <s_m_subgroup_title>  (932) 
glide-dock_SP_D22_pv

>  <s_m_subgroupid>  (932) 
glide-dock_SP_D22_pv

>  <Molecule ChEMBL ID>  (932) 
CHEMBL3764830

>  <Standard Type>  (932) 
Ki

>  <Standard Value>  (932) 
31622.78

>  <label>  (932) 
0

$$$$
CHEMBL168372
     RDKit          3D

  0  0  0  0  0  0  0  0  0  0999 V3000
M  V30 BEGIN CTAB
M  V30 COUNTS 59 61 0 0 1
M  V30 BEGIN ATOM
M  V30 1 C 5.666457 4.765479 -12.097687 0
M  V30 2 O 6.891891 5.219316 -12.638133 0
M  V30 3 C 7.706705 4.279792 -13.224372 0
M  V30 4 C 7.171480 3.150366 -13.889884 0
M  V30 5 C 8.014123 2.222172 -14.533201 0
M  V30 6 N 7.432545 1.094095 -15.173174 0
M  V30 7 C 6.926648 0.023694 -14.310005 0
M  V30 8 C 7.249996 1.078483 -16.516756 0
M  V30 9 C 6.606202 -0.150335 -17.164124 0
M  V30 10 O 7.577873 2.015165 -17.248220 0
M  V30 11 C 9.413660 2.413194 -14.502141 0
M  V30 12 Cl 10.486008 1.275689 -15.240422 0
M  V30 13 C 9.950650 3.534325 -13.839229 0
M  V30 14 C 9.114164 4.467876 -13.184898 0
M  V30 15 C 9.740717 5.652737 -12.490995 0
M  V30 16 O 10.765714 6.169689 -12.936698 0
M  V30 17 N 9.150391 6.061368 -11.354334 0
M  V30 18 C 9.459088 7.289511 -10.629206 0
M  V30 19 C 9.067133 7.194572 -9.140507 0 CFG=2
M  V30 20 C 9.009326 8.547579 -8.430681 0
M  V30 21 C 9.079684 8.145421 -6.963141 0
M  V30 22 N 10.035572 7.017281 -6.913966 0 CFG=2 CHG=1
M  V30 23 C 11.409068 7.414309 -6.514738 0
M  V30 24 C 11.558667 7.810663 -5.051269 0
M  V30 25 C 11.686212 6.809474 -4.067832 0
M  V30 26 C 11.957691 7.148591 -2.729223 0
M  V30 27 C 12.086155 8.501137 -2.364437 0
M  V30 28 C 11.934813 9.507524 -3.336473 0
M  V30 29 C 11.680727 9.166384 -4.679117 0
M  V30 30 C 10.009447 6.367723 -8.254467 0
M  V30 31 H 5.285139 5.549604 -11.446510 0
M  V30 32 H 4.922793 4.571509 -12.872263 0
M  V30 33 H 5.798338 3.866660 -11.492570 0
M  V30 34 H 6.104972 2.991834 -13.940365 0
M  V30 35 H 7.284371 -0.956860 -14.627269 0
M  V30 36 H 7.252715 0.161709 -13.278430 0
M  V30 37 H 5.836107 0.010447 -14.310086 0
M  V30 38 H 7.242849 -1.027291 -17.046871 0
M  V30 39 H 5.630274 -0.360628 -16.726437 0
M  V30 40 H 6.461544 0.013018 -18.232214 0
M  V30 41 H 11.022906 3.666863 -13.822316 0
M  V30 42 H 8.289515 5.593889 -11.101275 0
M  V30 43 H 8.886046 8.089920 -11.099449 0
M  V30 44 H 10.512486 7.556467 -10.730974 0
M  V30 45 H 8.085808 6.732910 -9.060839 0
M  V30 46 H 8.109940 9.121169 -8.663587 0
M  V30 47 H 9.873230 9.157813 -8.697121 0
M  V30 48 H 8.101535 7.778965 -6.646168 0
M  V30 49 H 9.342991 8.975760 -6.310295 0
M  V30 50 H 11.761305 8.224582 -7.157041 0
M  V30 51 H 12.084973 6.573384 -6.688831 0
M  V30 52 H 11.608394 5.771421 -4.344865 0
M  V30 53 H 12.065594 6.370516 -1.987086 0
M  V30 54 H 12.287483 8.770587 -1.338028 0
M  V30 55 H 12.026224 10.544989 -3.047463 0
M  V30 56 H 11.601419 9.947888 -5.421115 0
M  V30 57 H 11.005055 6.332572 -8.698149 0
M  V30 58 H 9.662043 5.337514 -8.172044 0
M  V30 59 H 9.700416 6.353963 -6.228997 0
M  V30 END ATOM
M  V30 BEGIN BOND
M  V30 1 1 2 1
M  V30 2 1 3 2
M  V30 3 1 4 3
M  V30 4 2 5 4
M  V30 5 1 6 5
M  V30 6 1 7 6
M  V30 7 1 8 6
M  V30 8 1 9 8
M  V30 9 2 10 8
M  V30 10 1 11 5
M  V30 11 1 12 11
M  V30 12 2 13 11
M  V30 13 2 14 3
M  V30 14 1 14 13
M  V30 15 1 15 14
M  V30 16 2 16 15
M  V30 17 1 17 15
M  V30 18 1 18 17
M  V30 19 1 19 18
M  V30 20 1 20 19
M  V30 21 1 21 20
M  V30 22 1 22 21
M  V30 23 1 23 22
M  V30 24 1 24 23
M  V30 25 2 25 24
M  V30 26 1 26 25
M  V30 27 2 27 26
M  V30 28 1 28 27
M  V30 29 1 29 24
M  V30 30 2 29 28
M  V30 31 1 30 19
M  V30 32 1 30 22
M  V30 33 1 31 1
M  V30 34 1 32 1
M  V30 35 1 33 1
M  V30 36 1 34 4
M  V30 37 1 35 7
M  V30 38 1 36 7
M  V30 39 1 37 7
M  V30 40 1 38 9
M  V30 41 1 39 9
M  V30 42 1 40 9
M  V30 43 1 41 13
M  V30 44 1 42 17
M  V30 45 1 43 18
M  V30 46 1 44 18
M  V30 47 1 19 45 CFG=3
M  V30 48 1 46 20
M  V30 49 1 47 20
M  V30 50 1 48 21
M  V30 51 1 49 21
M  V30 52 1 50 23
M  V30 53 1 51 23
M  V30 54 1 52 25
M  V30 55 1 53 26
M  V30 56 1 54 27
M  V30 57 1 55 28
M  V30 58 1 56 29
M  V30 59 1 57 30
M  V30 60 1 58 30
M  V30 61 1 22 59 CFG=1
M  V30 END BOND
M  V30 END CTAB
M  END
>  <b_m_subgroup_collapsed>  (933) 
0

>  <r_i_docking_score>  (933) 
-7.6832214333152304

>  <s_m_subgroup_title>  (933) 
glide-dock_SP_D22_pv

>  <s_m_subgroupid>  (933) 
glide-dock_SP_D22_pv

>  <Molecule ChEMBL ID>  (933) 
CHEMBL168372

>  <Standard Type>  (933) 
Ki

>  <Standard Value>  (933) 
19000.0

>  <label>  (933) 
0

$$$$
CHEMBL1774552
     RDKit          3D

  0  0  0  0  0  0  0  0  0  0999 V3000
M  V30 BEGIN CTAB
M  V30 COUNTS 56 59 0 0 1
M  V30 BEGIN ATOM
M  V30 1 O 11.285986 6.080076 -7.345919 0
M  V30 2 C 10.482104 6.978524 -7.137473 0
M  V30 3 N 9.286613 7.069945 -7.734683 0
M  V30 4 C 8.892070 6.303059 -8.907042 0
M  V30 5 C 9.351096 7.036750 -10.182712 0
M  V30 6 C 8.768428 6.465714 -11.482597 0
M  V30 7 C 9.189704 5.012948 -11.745779 0
M  V30 8 N 8.520120 4.424643 -12.930077 0 CHG=1
M  V30 9 C 9.333749 3.313035 -13.493960 0
M  V30 10 C 8.665911 2.657106 -14.709979 0
M  V30 11 N 7.286243 2.309565 -14.402104 0
M  V30 12 C 6.675562 1.162340 -14.947975 0
M  V30 13 C 5.882918 0.375336 -14.081388 0
M  V30 14 C 5.194869 -0.753923 -14.557146 0
M  V30 15 C 5.287638 -1.116632 -15.910626 0
M  V30 16 C 6.079607 -0.351752 -16.788744 0
M  V30 17 Cl 6.166191 -0.824221 -18.448591 0
M  V30 18 C 6.776173 0.788295 -16.319597 0
M  V30 19 Cl 7.673228 1.738482 -17.462313 0
M  V30 20 C 6.432908 3.362812 -13.864673 0
M  V30 21 C 7.100644 4.044294 -12.658855 0
M  V30 22 C 10.814750 8.111932 -6.260934 0
M  V30 23 C 10.721829 9.415133 -6.652117 0
M  V30 24 S 11.285981 10.542590 -5.471109 0
M  V30 25 C 11.656574 9.241504 -4.349578 0
M  V30 26 C 12.160393 9.372195 -3.044867 0
M  V30 27 C 12.423516 8.225989 -2.276916 0
M  V30 28 C 12.185678 6.955231 -2.825907 0
M  V30 29 C 11.685812 6.831662 -4.135736 0
M  V30 30 C 11.382432 7.961926 -4.934798 0
M  V30 31 H 8.654473 7.802342 -7.447220 0
M  V30 32 H 9.316787 5.299239 -8.853839 0
M  V30 33 H 7.810208 6.172098 -8.909501 0
M  V30 34 H 9.050960 8.085233 -10.117097 0
M  V30 35 H 10.441330 7.035827 -10.238417 0
M  V30 36 H 7.685496 6.561687 -11.446290 0
M  V30 37 H 9.090128 7.088351 -12.318053 0
M  V30 38 H 10.269949 5.005675 -11.895959 0
M  V30 39 H 8.997394 4.375324 -10.883498 0
M  V30 40 H 10.318089 3.686260 -13.786758 0
M  V30 41 H 9.509921 2.572501 -12.715784 0
M  V30 42 H 8.681543 3.358265 -15.544876 0
M  V30 43 H 9.227612 1.771587 -15.010619 0
M  V30 44 H 5.798046 0.638971 -13.037806 0
M  V30 45 H 4.593653 -1.347893 -13.884501 0
M  V30 46 H 4.756011 -1.986087 -16.272266 0
M  V30 47 H 6.249794 4.099070 -14.646792 0
M  V30 48 H 5.455140 2.973982 -13.577219 0
M  V30 49 H 7.042892 3.372978 -11.801144 0
M  V30 50 H 6.519211 4.926415 -12.387998 0
M  V30 51 H 10.364432 9.772315 -7.606093 0
M  V30 52 H 12.345186 10.355109 -2.637880 0
M  V30 53 H 12.806586 8.326950 -1.272218 0
M  V30 54 H 12.385719 6.069545 -2.240422 0
M  V30 55 H 11.499187 5.844231 -4.535501 0
M  V30 56 H 8.498112 5.136612 -13.644749 0
M  V30 END ATOM
M  V30 BEGIN BOND
M  V30 1 2 2 1
M  V30 2 1 3 2
M  V30 3 1 4 3
M  V30 4 1 5 4
M  V30 5 1 6 5
M  V30 6 1 7 6
M  V30 7 1 8 7
M  V30 8 1 9 8
M  V30 9 1 10 9
M  V30 10 1 11 10
M  V30 11 1 12 11
M  V30 12 2 13 12
M  V30 13 1 14 13
M  V30 14 2 15 14
M  V30 15 1 16 15
M  V30 16 1 17 16
M  V30 17 1 18 12
M  V30 18 2 18 16
M  V30 19 1 19 18
M  V30 20 1 20 11
M  V30 21 1 21 8
M  V30 22 1 21 20
M  V30 23 1 22 2
M  V30 24 2 23 22
M  V30 25 1 24 23
M  V30 26 1 25 24
M  V30 27 2 26 25
M  V30 28 1 27 26
M  V30 29 2 28 27
M  V30 30 1 29 28
M  V30 31 1 30 22
M  V30 32 1 30 25
M  V30 33 2 30 29
M  V30 34 1 31 3
M  V30 35 1 32 4
M  V30 36 1 33 4
M  V30 37 1 34 5
M  V30 38 1 35 5
M  V30 39 1 36 6
M  V30 40 1 37 6
M  V30 41 1 38 7
M  V30 42 1 39 7
M  V30 43 1 40 9
M  V30 44 1 41 9
M  V30 45 1 42 10
M  V30 46 1 43 10
M  V30 47 1 44 13
M  V30 48 1 45 14
M  V30 49 1 46 15
M  V30 50 1 47 20
M  V30 51 1 48 20
M  V30 52 1 49 21
M  V30 53 1 50 21
M  V30 54 1 51 23
M  V30 55 1 52 26
M  V30 56 1 53 27
M  V30 57 1 54 28
M  V30 58 1 55 29
M  V30 59 1 56 8
M  V30 END BOND
M  V30 END CTAB
M  END
>  <b_m_subgroup_collapsed>  (934) 
0

>  <r_i_docking_score>  (934) 
-7.6812500865622297

>  <s_m_subgroup_title>  (934) 
glide-dock_SP_D22_pv

>  <s_m_subgroupid>  (934) 
glide-dock_SP_D22_pv

>  <Molecule ChEMBL ID>  (934) 
CHEMBL1774552

>  <Standard Type>  (934) 
Ki

>  <Standard Value>  (934) 
64.7

>  <label>  (934) 
1

$$$$
CHEMBL443006
     RDKit          3D

  0  0  0  0  0  0  0  0  0  0999 V3000
M  V30 BEGIN CTAB
M  V30 COUNTS 52 55 0 0 1
M  V30 BEGIN ATOM
M  V30 1 C 11.286073 7.533082 -4.439335 0
M  V30 2 S 11.678867 9.330336 -4.510839 0
M  V30 3 O 10.489473 10.172097 -4.312144 0
M  V30 4 O 12.885928 9.550435 -3.715708 0
M  V30 5 N 12.133686 9.532694 -6.160017 0
M  V30 6 C 11.487377 8.977313 -7.265767 0
M  V30 7 C 10.088687 8.798417 -7.258757 0
M  V30 8 C 9.445049 8.207795 -8.355790 0
M  V30 9 C 10.191983 7.802465 -9.475870 0
M  V30 10 C 9.498750 7.110940 -10.625184 0
M  V30 11 C 9.464334 5.588429 -10.380206 0
M  V30 12 N 8.793056 4.791652 -11.436897 0 CFG=1 CHG=1
M  V30 13 C 7.324918 4.931091 -11.459886 0
M  V30 14 C 6.921196 5.113529 -12.921585 0 CFG=2
M  V30 15 C 5.629377 4.372101 -13.264538 0
M  V30 16 O 5.776582 2.963154 -13.201113 0
M  V30 17 C 6.838825 2.438396 -13.892323 0
M  V30 18 C 6.770321 1.083464 -14.269510 0
M  V30 19 C 7.823585 0.489018 -14.986979 0
M  V30 20 C 8.959860 1.248532 -15.326077 0
M  V30 21 C 10.032647 0.648064 -16.099525 0
M  V30 22 N 10.885318 0.172809 -16.719252 0
M  V30 23 C 9.047897 2.596975 -14.925424 0
M  V30 24 C 7.998551 3.195837 -14.195779 0
M  V30 25 C 8.122016 4.650277 -13.752070 0 CFG=2
M  V30 26 C 9.307430 4.929279 -12.819483 0
M  V30 27 C 11.588670 7.995443 -9.497620 0
M  V30 28 C 12.234919 8.572341 -8.389312 0
M  V30 29 H 11.225130 7.217243 -3.398427 0
M  V30 30 H 12.091413 6.970338 -4.903781 0
M  V30 31 H 10.367572 7.312765 -4.982571 0
M  V30 32 H 13.108477 9.771567 -6.297289 0
M  V30 33 H 9.493316 9.095292 -6.409344 0
M  V30 34 H 8.377940 8.052313 -8.324524 0
M  V30 35 H 8.492285 7.514689 -10.741049 0
M  V30 36 H 10.043627 7.373755 -11.529999 0
M  V30 37 H 10.478999 5.224657 -10.252304 0
M  V30 38 H 8.960893 5.383587 -9.433409 0
M  V30 39 H 6.893040 4.019740 -11.045981 0
M  V30 40 H 6.969694 5.771117 -10.860530 0
M  V30 41 H 6.779688 6.187699 -13.050303 0
M  V30 42 H 4.886160 4.640610 -12.525848 0
M  V30 43 H 5.252642 4.658356 -14.246254 0
M  V30 44 H 5.896193 0.499962 -14.020004 0
M  V30 45 H 7.747132 -0.548220 -15.283124 0
M  V30 46 H 9.924088 3.175520 -15.181848 0
M  V30 47 H 8.206573 5.255630 -14.653664 0
M  V30 48 H 9.633352 5.947153 -13.017473 0
M  V30 49 H 10.168810 4.283755 -12.996291 0
M  V30 50 H 12.171725 7.686729 -10.352785 0
M  V30 51 H 13.306412 8.709431 -8.409856 0
M  V30 52 H 8.947263 3.822850 -11.193493 0
M  V30 END ATOM
M  V30 BEGIN BOND
M  V30 1 1 2 1
M  V30 2 2 3 2
M  V30 3 2 4 2
M  V30 4 1 5 2
M  V30 5 1 6 5
M  V30 6 1 7 6
M  V30 7 2 8 7
M  V30 8 1 9 8
M  V30 9 1 10 9
M  V30 10 1 11 10
M  V30 11 1 12 11
M  V30 12 1 13 12
M  V30 13 1 14 13
M  V30 14 1 15 14
M  V30 15 1 16 15
M  V30 16 1 17 16
M  V30 17 1 18 17
M  V30 18 2 19 18
M  V30 19 1 20 19
M  V30 20 1 21 20
M  V30 21 3 22 21
M  V30 22 2 23 20
M  V30 23 2 24 17
M  V30 24 1 24 23
M  V30 25 1 25 14
M  V30 26 1 25 24
M  V30 27 1 26 12
M  V30 28 1 26 25
M  V30 29 2 27 9
M  V30 30 2 28 6
M  V30 31 1 28 27
M  V30 32 1 29 1
M  V30 33 1 30 1
M  V30 34 1 31 1
M  V30 35 1 32 5
M  V30 36 1 33 7
M  V30 37 1 34 8
M  V30 38 1 35 10
M  V30 39 1 36 10
M  V30 40 1 37 11
M  V30 41 1 38 11
M  V30 42 1 39 13
M  V30 43 1 40 13
M  V30 44 1 14 41 CFG=1
M  V30 45 1 42 15
M  V30 46 1 43 15
M  V30 47 1 44 18
M  V30 48 1 45 19
M  V30 49 1 46 23
M  V30 50 1 25 47 CFG=3
M  V30 51 1 48 26
M  V30 52 1 49 26
M  V30 53 1 50 27
M  V30 54 1 51 28
M  V30 55 1 12 52 CFG=1
M  V30 END BOND
M  V30 END CTAB
M  END
>  <b_m_subgroup_collapsed>  (935) 
0

>  <r_i_docking_score>  (935) 
-7.6797042584757502

>  <s_m_subgroup_title>  (935) 
glide-dock_SP_D22_pv

>  <s_m_subgroupid>  (935) 
glide-dock_SP_D22_pv

>  <Molecule ChEMBL ID>  (935) 
CHEMBL443006

>  <Standard Type>  (935) 
Ki

>  <Standard Value>  (935) 
25.12

>  <label>  (935) 
1

$$$$
CHEMBL164471
     RDKit          3D

  0  0  0  0  0  0  0  0  0  0999 V3000
M  V30 BEGIN CTAB
M  V30 COUNTS 52 56 0 0 1
M  V30 BEGIN ATOM
M  V30 1 O 10.886275 10.532040 -6.246228 0
M  V30 2 C 10.921046 9.321095 -6.043071 0
M  V30 3 C 11.404707 8.793530 -4.755346 0
M  V30 4 C 11.714155 9.369658 -3.490548 0
M  V30 5 C 12.110587 8.326150 -2.699621 0
M  V30 6 O 12.100211 7.150435 -3.393685 0
M  V30 7 C 11.685708 7.470876 -4.647295 0
M  V30 8 C 11.575025 6.409239 -5.677116 0
M  V30 9 C 11.372193 7.022747 -7.082682 0
M  V30 10 C 10.446424 8.274907 -7.103897 0 CFG=2
M  V30 11 C 10.230948 8.922637 -8.512054 0
M  V30 12 C 10.477710 8.108003 -9.807649 0
M  V30 13 N 9.286023 7.419400 -10.394395 0 CFG=1 CHG=1
M  V30 14 C 9.234958 7.603525 -11.874556 0
M  V30 15 C 8.034465 6.895762 -12.540360 0
M  V30 16 C 7.915291 5.413774 -12.170291 0 CFG=1
M  V30 17 C 8.846681 4.519626 -12.957803 0
M  V30 18 N 10.163722 4.690289 -12.898211 0
M  V30 19 O 10.766949 3.710595 -13.733100 0
M  V30 20 C 9.785870 2.922516 -14.307827 0
M  V30 21 C 9.862110 1.826631 -15.178030 0
M  V30 22 C 8.651061 1.231035 -15.587464 0
M  V30 23 F 8.675183 0.174939 -16.432459 0
M  V30 24 C 7.412674 1.740695 -15.125076 0
M  V30 25 C 7.363102 2.848251 -14.247113 0
M  V30 26 C 8.577613 3.441018 -13.833594 0
M  V30 27 C 8.025358 5.271210 -10.648238 0
M  V30 28 C 9.229251 5.982887 -10.016346 0
M  V30 29 H 11.639806 10.404790 -3.191430 0
M  V30 30 H 12.424852 8.249084 -1.669413 0
M  V30 31 H 12.456505 5.771828 -5.669836 0
M  V30 32 H 10.728026 5.775917 -5.421557 0
M  V30 33 H 11.010574 6.236191 -7.740024 0
M  V30 34 H 12.343270 7.320156 -7.479170 0
M  V30 35 H 9.466698 7.933197 -6.765093 0
M  V30 36 H 9.238088 9.371649 -8.551307 0
M  V30 37 H 10.923250 9.759396 -8.599372 0
M  V30 38 H 10.818330 8.845899 -10.535699 0
M  V30 39 H 11.330032 7.433444 -9.726965 0
M  V30 40 H 9.168967 8.669801 -12.096214 0
M  V30 41 H 10.169971 7.258291 -12.314122 0
M  V30 42 H 8.080492 6.972018 -13.621059 0
M  V30 43 H 7.119250 7.410429 -12.247541 0
M  V30 44 H 6.899868 5.113861 -12.430672 0
M  V30 45 H 10.814205 1.451728 -15.523369 0
M  V30 46 H 6.492299 1.273234 -15.446092 0
M  V30 47 H 6.412909 3.224095 -13.896836 0
M  V30 48 H 7.968869 4.226109 -10.343035 0
M  V30 49 H 7.154199 5.771868 -10.246657 0
M  V30 50 H 10.149823 5.474949 -10.296284 0
M  V30 51 H 9.139389 5.910615 -8.932842 0
M  V30 52 H 8.423953 7.834702 -10.044338 0
M  V30 END ATOM
M  V30 BEGIN BOND
M  V30 1 2 2 1
M  V30 2 1 3 2
M  V30 3 1 4 3
M  V30 4 2 5 4
M  V30 5 1 6 5
M  V30 6 2 7 3
M  V30 7 1 7 6
M  V30 8 1 8 7
M  V30 9 1 9 8
M  V30 10 1 10 2
M  V30 11 1 10 9
M  V30 12 1 11 10
M  V30 13 1 12 11
M  V30 14 1 13 12
M  V30 15 1 14 13
M  V30 16 1 15 14
M  V30 17 1 16 15
M  V30 18 1 17 16
M  V30 19 2 18 17
M  V30 20 1 19 18
M  V30 21 1 20 19
M  V30 22 1 21 20
M  V30 23 2 22 21
M  V30 24 1 23 22
M  V30 25 1 24 22
M  V30 26 2 25 24
M  V30 27 1 26 17
M  V30 28 2 26 20
M  V30 29 1 26 25
M  V30 30 1 27 16
M  V30 31 1 28 13
M  V30 32 1 28 27
M  V30 33 1 29 4
M  V30 34 1 30 5
M  V30 35 1 31 8
M  V30 36 1 32 8
M  V30 37 1 33 9
M  V30 38 1 34 9
M  V30 39 1 10 35 CFG=1
M  V30 40 1 36 11
M  V30 41 1 37 11
M  V30 42 1 38 12
M  V30 43 1 39 12
M  V30 44 1 40 14
M  V30 45 1 41 14
M  V30 46 1 42 15
M  V30 47 1 43 15
M  V30 48 1 16 44 CFG=3
M  V30 49 1 45 21
M  V30 50 1 46 24
M  V30 51 1 47 25
M  V30 52 1 48 27
M  V30 53 1 49 27
M  V30 54 1 50 28
M  V30 55 1 51 28
M  V30 56 1 13 52 CFG=1
M  V30 END BOND
M  V30 END CTAB
M  END
>  <b_m_subgroup_collapsed>  (936) 
0

>  <r_i_docking_score>  (936) 
-7.6783391257704201

>  <s_m_subgroup_title>  (936) 
glide-dock_SP_D22_pv

>  <s_m_subgroupid>  (936) 
glide-dock_SP_D22_pv

>  <Molecule ChEMBL ID>  (936) 
CHEMBL164471

>  <Standard Type>  (936) 
Ki

>  <Standard Value>  (936) 
45.71

>  <label>  (936) 
1

$$$$
CHEMBL3774621
     RDKit          3D

  0  0  0  0  0  0  0  0  0  0999 V3000
M  V30 BEGIN CTAB
M  V30 COUNTS 62 66 0 0 1
M  V30 BEGIN ATOM
M  V30 1 C 11.378929 10.154799 -6.644815 0
M  V30 2 N 11.163586 8.724759 -6.708643 0
M  V30 3 C 10.819448 7.963314 -7.768244 0
M  V30 4 S 10.573934 8.612496 -9.393881 0
M  V30 5 C 9.219320 7.538307 -9.951097 0
M  V30 6 C 9.700430 6.164692 -10.444429 0
M  V30 7 C 8.543059 5.203085 -10.778786 0
M  V30 8 N 8.148169 5.238296 -12.206565 0 CFG=2 CHG=1
M  V30 9 C 6.958432 4.411188 -12.537327 0
M  V30 10 C 7.124809 3.969343 -14.009207 0 CFG=2
M  V30 11 C 7.119624 2.470328 -14.325265 0
M  V30 12 C 8.194420 2.310921 -15.409609 0
M  V30 13 N 9.181684 3.342016 -15.119053 0
M  V30 14 C 10.348544 3.544687 -15.901611 0
M  V30 15 C 10.787454 4.865726 -16.186720 0
M  V30 16 C 11.958628 5.113593 -16.922781 0
M  V30 17 C 12.733195 4.041000 -17.384874 0
M  V30 18 C 12.325589 2.725289 -17.112789 0
M  V30 19 C 11.138535 2.460832 -16.388424 0
M  V30 20 O 10.812512 1.156511 -16.094261 0
M  V30 21 C 10.555955 0.304058 -17.125471 0
M  V30 22 F 10.084546 -0.867685 -16.637911 0
M  V30 23 F 9.605797 0.799662 -17.957870 0
M  V30 24 F 11.665182 0.007439 -17.847506 0
M  V30 25 C 8.519301 4.437286 -14.420475 0 CFG=2
M  V30 26 C 9.221858 4.804741 -13.123022 0
M  V30 27 N 10.716372 6.671963 -7.469862 0
M  V30 28 N 11.028595 6.572223 -6.148726 0
M  V30 29 C 11.285691 7.807162 -5.724219 0
M  V30 30 C 11.686052 8.056548 -4.343497 0
M  V30 31 C 12.082953 6.981534 -3.513902 0
M  V30 32 N 12.486099 7.177714 -2.246631 0
M  V30 33 C 12.485880 8.452834 -1.802906 0
M  V30 34 C 12.085812 9.524256 -2.620016 0
M  V30 35 N 11.689924 9.330963 -3.888383 0
M  V30 36 H 12.381513 10.368466 -6.272034 0
M  V30 37 H 10.634246 10.618154 -5.998020 0
M  V30 38 H 11.286151 10.572329 -7.628866 0
M  V30 39 H 8.500338 7.430727 -9.136843 0
M  V30 40 H 8.701494 8.052904 -10.760492 0
M  V30 41 H 10.391485 6.301601 -11.273490 0
M  V30 42 H 10.300604 5.676266 -9.682445 0
M  V30 43 H 8.840899 4.186007 -10.526327 0
M  V30 44 H 7.685829 5.429355 -10.147412 0
M  V30 45 H 6.886133 3.546692 -11.876811 0
M  V30 46 H 6.049956 4.996336 -12.392241 0
M  V30 47 H 6.373940 4.441761 -14.644596 0
M  V30 48 H 7.400450 1.890193 -13.452373 0
M  V30 49 H 6.143538 2.109397 -14.646871 0
M  V30 50 H 8.598516 1.301613 -15.369966 0
M  V30 51 H 7.779111 2.477210 -16.404362 0
M  V30 52 H 10.244713 5.732836 -15.849988 0
M  V30 53 H 12.266942 6.129903 -17.123499 0
M  V30 54 H 13.644240 4.225067 -17.936657 0
M  V30 55 H 12.959011 1.917553 -17.445602 0
M  V30 56 H 8.409049 5.321265 -15.047490 0
M  V30 57 H 9.973377 5.575694 -13.289759 0
M  V30 58 H 9.722643 3.929141 -12.703659 0
M  V30 59 H 12.085291 5.958389 -3.859722 0
M  V30 60 H 12.813479 8.621750 -0.790455 0
M  V30 61 H 12.086226 10.540062 -2.254668 0
M  V30 62 H 7.908708 6.193738 -12.434123 0
M  V30 END ATOM
M  V30 BEGIN BOND
M  V30 1 1 2 1
M  V30 2 1 3 2
M  V30 3 1 4 3
M  V30 4 1 5 4
M  V30 5 1 6 5
M  V30 6 1 7 6
M  V30 7 1 8 7
M  V30 8 1 9 8
M  V30 9 1 10 9
M  V30 10 1 11 10
M  V30 11 1 12 11
M  V30 12 1 13 12
M  V30 13 1 14 13
M  V30 14 2 15 14
M  V30 15 1 16 15
M  V30 16 2 17 16
M  V30 17 1 18 17
M  V30 18 1 19 14
M  V30 19 2 19 18
M  V30 20 1 20 19
M  V30 21 1 21 20
M  V30 22 1 22 21
M  V30 23 1 23 21
M  V30 24 1 24 21
M  V30 25 1 25 10
M  V30 26 1 25 13
M  V30 27 1 26 8
M  V30 28 1 26 25
M  V30 29 2 27 3
M  V30 30 1 28 27
M  V30 31 1 29 2
M  V30 32 2 29 28
M  V30 33 1 30 29
M  V30 34 1 31 30
M  V30 35 2 32 31
M  V30 36 1 33 32
M  V30 37 2 34 33
M  V30 38 2 35 30
M  V30 39 1 35 34
M  V30 40 1 36 1
M  V30 41 1 37 1
M  V30 42 1 38 1
M  V30 43 1 39 5
M  V30 44 1 40 5
M  V30 45 1 41 6
M  V30 46 1 42 6
M  V30 47 1 43 7
M  V30 48 1 44 7
M  V30 49 1 45 9
M  V30 50 1 46 9
M  V30 51 1 10 47 CFG=3
M  V30 52 1 48 11
M  V30 53 1 49 11
M  V30 54 1 50 12
M  V30 55 1 51 12
M  V30 56 1 52 15
M  V30 57 1 53 16
M  V30 58 1 54 17
M  V30 59 1 55 18
M  V30 60 1 25 56 CFG=3
M  V30 61 1 57 26
M  V30 62 1 58 26
M  V30 63 1 59 31
M  V30 64 1 60 33
M  V30 65 1 61 34
M  V30 66 1 8 62 CFG=3
M  V30 END BOND
M  V30 END CTAB
M  END
>  <b_m_subgroup_collapsed>  (937) 
0

>  <r_i_docking_score>  (937) 
-7.6776371508556496

>  <s_m_subgroup_title>  (937) 
glide-dock_SP_D22_pv

>  <s_m_subgroupid>  (937) 
glide-dock_SP_D22_pv

>  <Molecule ChEMBL ID>  (937) 
CHEMBL3774621

>  <Standard Type>  (937) 
Ki

>  <Standard Value>  (937) 
11.5

>  <label>  (937) 
1

$$$$
CHEMBL1214892
     RDKit          3D

  0  0  0  0  0  0  0  0  0  0999 V3000
M  V30 BEGIN CTAB
M  V30 COUNTS 56 59 0 0 1
M  V30 BEGIN ATOM
M  V30 1 C 3.875750 -1.400424 -15.392328 0
M  V30 2 C 3.847231 -0.223244 -14.411955 0
M  V30 3 C 5.227020 0.422431 -14.244762 0
M  V30 4 O 5.076121 1.590890 -13.446807 0
M  V30 5 C 6.086004 2.529989 -13.447906 0
M  V30 6 C 7.295997 2.417688 -14.183528 0
M  V30 7 C 8.320664 3.371354 -14.011732 0
M  V30 8 C 8.149422 4.458632 -13.131645 0
M  V30 9 C 9.302718 5.432525 -12.920035 0
M  V30 10 N 9.210338 6.240581 -11.705818 0
M  V30 11 C 10.174863 7.333850 -11.715586 0
M  V30 12 C 9.847101 8.271712 -10.544334 0
M  V30 13 N 9.929030 7.570723 -9.238998 0 CHG=1
M  V30 14 C 9.543318 8.466158 -8.121894 0
M  V30 15 C 10.305202 8.216105 -6.863127 0
M  V30 16 C 10.736189 7.062886 -6.248258 0
M  V30 17 C 11.287617 7.472519 -4.990303 0
M  V30 18 C 11.833936 6.846176 -3.847589 0
M  V30 19 C 12.240428 7.598257 -2.725547 0
M  V30 20 C 12.107872 9.001152 -2.720883 0
M  V30 21 C 11.570111 9.652510 -3.847078 0
M  V30 22 C 11.194147 8.884202 -4.958319 0
M  V30 23 O 10.600496 9.328309 -6.118569 0
M  V30 24 C 9.130483 6.317929 -9.260179 0
M  V30 25 C 9.438881 5.452910 -10.492263 0
M  V30 26 C 6.906716 4.624712 -12.480673 0
M  V30 27 C 5.892373 3.662903 -12.634503 0
M  V30 28 H 2.887315 -1.842466 -15.502369 0
M  V30 29 H 4.200570 -1.080979 -16.383226 0
M  V30 30 H 4.558821 -2.181756 -15.056095 0
M  V30 31 H 3.467861 -0.554468 -13.446483 0
M  V30 32 H 3.143348 0.529603 -14.771638 0
M  V30 33 H 5.618465 0.647024 -15.236940 0
M  V30 34 H 5.921826 -0.267851 -13.763720 0
M  V30 35 H 7.496908 1.577645 -14.830373 0
M  V30 36 H 9.255728 3.244428 -14.537101 0
M  V30 37 H 10.248166 4.887754 -12.931163 0
M  V30 38 H 9.311166 6.089609 -13.787285 0
M  V30 39 H 11.199574 6.963422 -11.659695 0
M  V30 40 H 10.086449 7.896062 -12.644646 0
M  V30 41 H 10.552373 9.102768 -10.545659 0
M  V30 42 H 8.849015 8.693229 -10.676331 0
M  V30 43 H 9.717329 9.499261 -8.418408 0
M  V30 44 H 8.473287 8.400198 -7.926489 0
M  V30 45 H 10.635145 6.041712 -6.580427 0
M  V30 46 H 11.918932 5.772085 -3.822765 0
M  V30 47 H 12.636236 7.092746 -1.857096 0
M  V30 48 H 12.397747 9.573727 -1.850631 0
M  V30 49 H 11.398450 10.714348 -3.841352 0
M  V30 50 H 9.298140 5.739049 -8.353899 0
M  V30 51 H 8.080274 6.571924 -9.267837 0
M  V30 52 H 8.791846 4.575653 -10.481471 0
M  V30 53 H 10.461989 5.091258 -10.447954 0
M  V30 54 H 6.732295 5.466997 -11.824995 0
M  V30 55 H 4.967598 3.780323 -12.090105 0
M  V30 56 H 10.896446 7.317695 -9.102843 0
M  V30 END ATOM
M  V30 BEGIN BOND
M  V30 1 1 2 1
M  V30 2 1 3 2
M  V30 3 1 4 3
M  V30 4 1 5 4
M  V30 5 1 6 5
M  V30 6 2 7 6
M  V30 7 1 8 7
M  V30 8 1 9 8
M  V30 9 1 10 9
M  V30 10 1 11 10
M  V30 11 1 12 11
M  V30 12 1 13 12
M  V30 13 1 14 13
M  V30 14 1 15 14
M  V30 15 2 16 15
M  V30 16 1 17 16
M  V30 17 2 18 17
M  V30 18 1 19 18
M  V30 19 2 20 19
M  V30 20 1 21 20
M  V30 21 1 22 17
M  V30 22 2 22 21
M  V30 23 1 23 15
M  V30 24 1 23 22
M  V30 25 1 24 13
M  V30 26 1 25 10
M  V30 27 1 25 24
M  V30 28 2 26 8
M  V30 29 2 27 5
M  V30 30 1 27 26
M  V30 31 1 28 1
M  V30 32 1 29 1
M  V30 33 1 30 1
M  V30 34 1 31 2
M  V30 35 1 32 2
M  V30 36 1 33 3
M  V30 37 1 34 3
M  V30 38 1 35 6
M  V30 39 1 36 7
M  V30 40 1 37 9
M  V30 41 1 38 9
M  V30 42 1 39 11
M  V30 43 1 40 11
M  V30 44 1 41 12
M  V30 45 1 42 12
M  V30 46 1 43 14
M  V30 47 1 44 14
M  V30 48 1 45 16
M  V30 49 1 46 18
M  V30 50 1 47 19
M  V30 51 1 48 20
M  V30 52 1 49 21
M  V30 53 1 50 24
M  V30 54 1 51 24
M  V30 55 1 52 25
M  V30 56 1 53 25
M  V30 57 1 54 26
M  V30 58 1 55 27
M  V30 59 1 56 13
M  V30 END BOND
M  V30 END CTAB
M  END
>  <b_m_subgroup_collapsed>  (938) 
0

>  <r_i_docking_score>  (938) 
-7.6769972875638803

>  <s_m_subgroup_title>  (938) 
glide-dock_SP_D22_pv

>  <s_m_subgroupid>  (938) 
glide-dock_SP_D22_pv

>  <Molecule ChEMBL ID>  (938) 
CHEMBL1214892

>  <Standard Type>  (938) 
Ki

>  <Standard Value>  (938) 
10000.0

>  <label>  (938) 
0

$$$$
CHEMBL5178868
     RDKit          3D

  0  0  0  0  0  0  0  0  0  0999 V3000
M  V30 BEGIN CTAB
M  V30 COUNTS 58 61 0 0 1
M  V30 BEGIN ATOM
M  V30 1 C 12.610785 8.560676 -1.902913 0
M  V30 2 O 12.485988 9.371437 -3.062891 0
M  V30 3 C 11.898328 8.851404 -4.194916 0
M  V30 4 C 11.677201 7.475300 -4.448359 0
M  V30 5 C 11.055528 7.062783 -5.646379 0
M  V30 6 C 10.640455 7.997471 -6.623041 0
M  V30 7 N 10.036773 7.571458 -7.830454 0
M  V30 8 C 9.069783 6.474011 -7.821364 0
M  V30 9 C 9.041279 5.751380 -9.186435 0
M  V30 10 N 8.886026 6.691431 -10.329446 0 CHG=1
M  V30 11 C 8.988746 6.020511 -11.650875 0
M  V30 12 C 7.726765 5.256052 -12.088845 0
M  V30 13 C 7.721271 4.934360 -13.605882 0
M  V30 14 N 8.513537 3.747844 -13.995904 0
M  V30 15 C 9.857655 3.889843 -14.169065 0
M  V30 16 O 10.440392 4.974409 -14.123418 0
M  V30 17 C 10.698695 2.635250 -14.415172 0
M  V30 18 C 9.983747 1.653054 -15.343094 0
M  V30 19 C 8.561824 1.426863 -14.880362 0
M  V30 20 C 7.955858 0.172335 -15.084885 0
M  V30 21 C 6.641656 -0.060375 -14.648729 0
M  V30 22 C 5.923279 0.973456 -14.026037 0
M  V30 23 C 6.515604 2.239723 -13.846846 0
M  V30 24 C 7.856291 2.483672 -14.246907 0
M  V30 25 C 9.840357 7.828348 -10.267049 0
M  V30 26 C 9.837099 8.533990 -8.908229 0
M  V30 27 C 10.884149 9.366771 -6.361956 0
M  V30 28 C 11.509264 9.776447 -5.176907 0
M  V30 29 H 13.385086 8.979366 -1.260450 0
M  V30 30 H 11.686118 8.561727 -1.334296 0
M  V30 31 H 12.886010 7.527433 -2.095110 0
M  V30 32 H 11.965164 6.705034 -3.750971 0
M  V30 33 H 10.929745 6.005676 -5.806570 0
M  V30 34 H 8.086045 6.885011 -7.592189 0
M  V30 35 H 9.276476 5.739611 -7.045946 0
M  V30 36 H 8.230596 5.022636 -9.199825 0
M  V30 37 H 9.970428 5.191918 -9.305931 0
M  V30 38 H 9.858313 5.364755 -11.652687 0
M  V30 39 H 9.183835 6.784142 -12.405544 0
M  V30 40 H 6.859809 5.884492 -11.876728 0
M  V30 41 H 7.589949 4.348680 -11.500062 0
M  V30 42 H 8.085930 5.800291 -14.159995 0
M  V30 43 H 6.690398 4.838820 -13.939222 0
M  V30 44 H 11.671944 2.906574 -14.825539 0
M  V30 45 H 10.884657 2.172512 -13.447455 0
M  V30 46 H 10.527017 0.706535 -15.363750 0
M  V30 47 H 9.969222 2.034638 -16.364851 0
M  V30 48 H 8.501231 -0.624827 -15.569874 0
M  V30 49 H 6.187163 -1.029633 -14.798018 0
M  V30 50 H 4.911152 0.800230 -13.692225 0
M  V30 51 H 5.927267 2.986214 -13.337629 0
M  V30 52 H 10.847029 7.460144 -10.470978 0
M  V30 53 H 9.603955 8.555395 -11.045864 0
M  V30 54 H 8.895732 9.061709 -8.752926 0
M  V30 55 H 10.633054 9.277171 -8.935975 0
M  V30 56 H 10.591848 10.146780 -7.046542 0
M  V30 57 H 11.684445 10.830246 -5.031601 0
M  V30 58 H 7.947987 7.101639 -10.247330 0
M  V30 END ATOM
M  V30 BEGIN BOND
M  V30 1 1 2 1
M  V30 2 1 3 2
M  V30 3 1 4 3
M  V30 4 2 5 4
M  V30 5 1 6 5
M  V30 6 1 7 6
M  V30 7 1 8 7
M  V30 8 1 9 8
M  V30 9 1 10 9
M  V30 10 1 11 10
M  V30 11 1 12 11
M  V30 12 1 13 12
M  V30 13 1 14 13
M  V30 14 1 15 14
M  V30 15 2 16 15
M  V30 16 1 17 15
M  V30 17 1 18 17
M  V30 18 1 19 18
M  V30 19 2 20 19
M  V30 20 1 21 20
M  V30 21 2 22 21
M  V30 22 1 23 22
M  V30 23 1 24 14
M  V30 24 1 24 19
M  V30 25 2 24 23
M  V30 26 1 25 10
M  V30 27 1 26 7
M  V30 28 1 26 25
M  V30 29 2 27 6
M  V30 30 2 28 3
M  V30 31 1 28 27
M  V30 32 1 29 1
M  V30 33 1 30 1
M  V30 34 1 31 1
M  V30 35 1 32 4
M  V30 36 1 33 5
M  V30 37 1 34 8
M  V30 38 1 35 8
M  V30 39 1 36 9
M  V30 40 1 37 9
M  V30 41 1 38 11
M  V30 42 1 39 11
M  V30 43 1 40 12
M  V30 44 1 41 12
M  V30 45 1 42 13
M  V30 46 1 43 13
M  V30 47 1 44 17
M  V30 48 1 45 17
M  V30 49 1 46 18
M  V30 50 1 47 18
M  V30 51 1 48 20
M  V30 52 1 49 21
M  V30 53 1 50 22
M  V30 54 1 51 23
M  V30 55 1 52 25
M  V30 56 1 53 25
M  V30 57 1 54 26
M  V30 58 1 55 26
M  V30 59 1 56 27
M  V30 60 1 57 28
M  V30 61 1 58 10
M  V30 END BOND
M  V30 END CTAB
M  END
>  <b_m_subgroup_collapsed>  (939) 
0

>  <r_i_docking_score>  (939) 
-7.6734626581954704

>  <s_m_subgroup_title>  (939) 
glide-dock_SP_D22_pv

>  <s_m_subgroupid>  (939) 
glide-dock_SP_D22_pv

>  <Molecule ChEMBL ID>  (939) 
CHEMBL5178868

>  <Standard Type>  (939) 
Ki

>  <Standard Value>  (939) 
20892.96

>  <label>  (939) 
0

$$$$
CHEMBL556496
     RDKit          3D

  0  0  0  0  0  0  0  0  0  0999 V3000
M  V30 BEGIN CTAB
M  V30 COUNTS 58 61 0 0 1
M  V30 BEGIN ATOM
M  V30 1 C 10.151591 0.030009 -15.445937 0
M  V30 2 O 9.234579 1.054349 -15.089966 0
M  V30 3 C 9.732234 2.319781 -14.870198 0
M  V30 4 C 11.075094 2.699138 -15.106513 0
M  V30 5 C 11.491838 4.017940 -14.855972 0
M  V30 6 C 10.582566 4.963344 -14.349462 0
M  V30 7 C 9.242736 4.604634 -14.075047 0
M  V30 8 C 8.279474 5.653685 -13.488415 0 CFG=1
M  V30 9 C 6.901625 5.139431 -13.029768 0
M  V30 10 C 7.048441 4.274702 -11.776242 0
M  V30 11 C 7.865839 4.962358 -10.660183 0
M  V30 12 N 9.131406 5.543219 -11.170609 0 CFG=2 CHG=1
M  V30 13 C 9.967936 6.173016 -10.122118 0
M  V30 14 C 9.291453 7.358926 -9.418525 0
M  V30 15 N 10.199532 7.940833 -8.450878 0
M  V30 16 C 11.118336 8.988038 -8.839631 0
M  V30 17 C 11.672151 9.441019 -7.495053 0
M  V30 18 N 11.070119 8.519025 -6.555310 0
M  V30 19 C 11.332907 8.605412 -5.173145 0
M  V30 20 C 11.314245 9.857008 -4.523930 0
M  V30 21 C 11.685893 9.951965 -3.170074 0
M  V30 22 C 12.085893 8.812736 -2.461706 0
M  V30 23 C 12.065924 7.570004 -3.107698 0
M  V30 24 Cl 12.486159 6.172334 -2.247046 0
M  V30 25 C 11.686165 7.452248 -4.450311 0
M  V30 26 C 10.240808 7.647970 -7.147994 0
M  V30 27 O 9.610191 6.746456 -6.600246 0
M  V30 28 C 8.887334 6.444347 -12.319374 0
M  V30 29 C 8.830819 3.283045 -14.375887 0
M  V30 30 H 9.619365 -0.911223 -15.576070 0
M  V30 31 H 10.661388 0.249747 -16.385330 0
M  V30 32 H 10.887057 -0.120383 -14.655837 0
M  V30 33 H 11.801998 2.000248 -15.490855 0
M  V30 34 H 12.513925 4.305157 -15.054845 0
M  V30 35 H 10.935830 5.969571 -14.182129 0
M  V30 36 H 8.086061 6.367992 -14.271122 0
M  V30 37 H 6.384409 4.600159 -13.824600 0
M  V30 38 H 6.260585 5.989326 -12.788528 0
M  V30 39 H 7.552665 3.372444 -12.064215 0
M  V30 40 H 6.061955 3.971987 -11.428014 0
M  V30 41 H 8.067479 4.264291 -9.846271 0
M  V30 42 H 7.285693 5.772629 -10.246266 0
M  V30 43 H 10.887280 6.544048 -10.579475 0
M  V30 44 H 10.255230 5.413886 -9.392498 0
M  V30 45 H 8.387090 7.044393 -8.897842 0
M  V30 46 H 8.988972 8.133393 -10.123383 0
M  V30 47 H 11.906021 8.589423 -9.480989 0
M  V30 48 H 10.603498 9.781145 -9.378131 0
M  V30 49 H 11.362952 10.458463 -7.264789 0
M  V30 50 H 12.761301 9.372106 -7.453673 0
M  V30 51 H 11.034049 10.754546 -5.055504 0
M  V30 52 H 11.687792 10.906300 -2.663732 0
M  V30 53 H 12.377608 8.892015 -1.424692 0
M  V30 54 H 11.698810 6.480559 -4.923858 0
M  V30 55 H 8.196196 7.237441 -12.027321 0
M  V30 56 H 9.806936 6.949713 -12.612990 0
M  V30 57 H 7.811354 2.964960 -14.224003 0
M  V30 58 H 9.667344 4.768462 -11.536584 0
M  V30 END ATOM
M  V30 BEGIN BOND
M  V30 1 1 2 1
M  V30 2 1 3 2
M  V30 3 1 4 3
M  V30 4 2 5 4
M  V30 5 1 6 5
M  V30 6 2 7 6
M  V30 7 1 8 7
M  V30 8 1 9 8
M  V30 9 1 10 9
M  V30 10 1 11 10
M  V30 11 1 12 11
M  V30 12 1 13 12
M  V30 13 1 14 13
M  V30 14 1 15 14
M  V30 15 1 16 15
M  V30 16 1 17 16
M  V30 17 1 18 17
M  V30 18 1 19 18
M  V30 19 2 20 19
M  V30 20 1 21 20
M  V30 21 2 22 21
M  V30 22 1 23 22
M  V30 23 1 24 23
M  V30 24 1 25 19
M  V30 25 2 25 23
M  V30 26 1 26 15
M  V30 27 1 26 18
M  V30 28 2 27 26
M  V30 29 1 28 8
M  V30 30 1 28 12
M  V30 31 2 29 3
M  V30 32 1 29 7
M  V30 33 1 30 1
M  V30 34 1 31 1
M  V30 35 1 32 1
M  V30 36 1 33 4
M  V30 37 1 34 5
M  V30 38 1 35 6
M  V30 39 1 8 36 CFG=3
M  V30 40 1 37 9
M  V30 41 1 38 9
M  V30 42 1 39 10
M  V30 43 1 40 10
M  V30 44 1 41 11
M  V30 45 1 42 11
M  V30 46 1 43 13
M  V30 47 1 44 13
M  V30 48 1 45 14
M  V30 49 1 46 14
M  V30 50 1 47 16
M  V30 51 1 48 16
M  V30 52 1 49 17
M  V30 53 1 50 17
M  V30 54 1 51 20
M  V30 55 1 52 21
M  V30 56 1 53 22
M  V30 57 1 54 25
M  V30 58 1 55 28
M  V30 59 1 56 28
M  V30 60 1 57 29
M  V30 61 1 12 58 CFG=3
M  V30 END BOND
M  V30 END CTAB
M  END
>  <b_m_subgroup_collapsed>  (940) 
0

>  <r_i_docking_score>  (940) 
-7.6716444858843502

>  <s_m_subgroup_title>  (940) 
glide-dock_SP_D22_pv

>  <s_m_subgroupid>  (940) 
glide-dock_SP_D22_pv

>  <Molecule ChEMBL ID>  (940) 
CHEMBL556496

>  <Standard Type>  (940) 
Ki

>  <Standard Value>  (940) 
25.12

>  <label>  (940) 
1

$$$$
CHEMBL335971
     RDKit          3D

  0  0  0  0  0  0  0  0  0  0999 V3000
M  V30 BEGIN CTAB
M  V30 COUNTS 38 39 0 0 1
M  V30 BEGIN ATOM
M  V30 1 C 9.303658 4.139485 -12.303132 0
M  V30 2 C 8.446136 4.838414 -11.240968 0
M  V30 3 C 9.304764 5.398421 -10.102147 0
M  V30 4 N 8.486554 6.172296 -9.144628 0 CHG=1
M  V30 5 C 9.214790 7.080444 -8.224423 0 CFG=2
M  V30 6 C 10.099426 8.092966 -8.962070 0
M  V30 7 C 10.531838 9.184576 -7.995140 0
M  V30 8 C 11.036757 8.681983 -6.656470 0
M  V30 9 C 11.718724 9.580603 -5.813930 0
M  V30 10 C 12.179695 9.160257 -4.554536 0
M  V30 11 C 11.977305 7.840241 -4.116994 0
M  V30 12 O 12.484913 7.520079 -2.875948 0
M  V30 13 C 12.367520 6.182291 -2.422590 0
M  V30 14 C 11.279396 6.940925 -4.965939 0
M  V30 15 C 10.798510 7.353448 -6.230679 0
M  V30 16 C 10.030808 6.371968 -7.122140 0
M  V30 17 H 8.679900 3.663830 -13.060596 0
M  V30 18 H 9.954664 4.852313 -12.809381 0
M  V30 19 H 9.941922 3.371880 -11.862346 0
M  V30 20 H 7.699666 4.152712 -10.841234 0
M  V30 21 H 7.886864 5.647043 -11.713590 0
M  V30 22 H 10.072525 6.025864 -10.549923 0
M  V30 23 H 9.816318 4.592084 -9.575244 0
M  V30 24 H 7.918127 5.539890 -8.599431 0
M  V30 25 H 8.431877 7.646725 -7.718818 0
M  V30 26 H 10.993291 7.606361 -9.356718 0
M  V30 27 H 9.571701 8.537065 -9.808159 0
M  V30 28 H 9.644710 9.771393 -7.780488 0
M  V30 29 H 11.284402 9.820246 -8.462956 0
M  V30 30 H 11.896271 10.596525 -6.132782 0
M  V30 31 H 12.708821 9.850538 -3.915662 0
M  V30 32 H 12.843940 6.087901 -1.447765 0
M  V30 33 H 11.323406 5.891393 -2.311030 0
M  V30 34 H 12.875676 5.493060 -3.093385 0
M  V30 35 H 11.093706 5.923796 -4.654291 0
M  V30 36 H 10.756869 5.689272 -7.565394 0
M  V30 37 H 9.357165 5.773676 -6.510335 0
M  V30 38 H 7.836631 6.760165 -9.668189 0
M  V30 END ATOM
M  V30 BEGIN BOND
M  V30 1 1 2 1
M  V30 2 1 3 2
M  V30 3 1 4 3
M  V30 4 1 5 4
M  V30 5 1 6 5
M  V30 6 1 7 6
M  V30 7 1 8 7
M  V30 8 1 9 8
M  V30 9 2 10 9
M  V30 10 1 11 10
M  V30 11 1 12 11
M  V30 12 1 13 12
M  V30 13 2 14 11
M  V30 14 2 15 8
M  V30 15 1 15 14
M  V30 16 1 16 5
M  V30 17 1 16 15
M  V30 18 1 17 1
M  V30 19 1 18 1
M  V30 20 1 19 1
M  V30 21 1 20 2
M  V30 22 1 21 2
M  V30 23 1 22 3
M  V30 24 1 23 3
M  V30 25 1 24 4
M  V30 26 1 5 25 CFG=1
M  V30 27 1 26 6
M  V30 28 1 27 6
M  V30 29 1 28 7
M  V30 30 1 29 7
M  V30 31 1 30 9
M  V30 32 1 31 10
M  V30 33 1 32 13
M  V30 34 1 33 13
M  V30 35 1 34 13
M  V30 36 1 35 14
M  V30 37 1 36 16
M  V30 38 1 37 16
M  V30 39 1 38 4
M  V30 END BOND
M  V30 END CTAB
M  END
>  <b_m_subgroup_collapsed>  (941) 
0

>  <r_i_docking_score>  (941) 
-7.6705859449865601

>  <s_m_subgroup_title>  (941) 
glide-dock_SP_D22_pv

>  <s_m_subgroupid>  (941) 
glide-dock_SP_D22_pv

>  <Molecule ChEMBL ID>  (941) 
CHEMBL335971

>  <Standard Type>  (941) 
Ki

>  <Standard Value>  (941) 
58882.0

>  <label>  (941) 
0

$$$$
CHEMBL544761
     RDKit          3D

  0  0  0  0  0  0  0  0  0  0999 V3000
M  V30 BEGIN CTAB
M  V30 COUNTS 46 49 0 0 1
M  V30 BEGIN ATOM
M  V30 1 O 12.169101 7.797017 -10.608765 0
M  V30 2 C 11.612285 7.903387 -9.516249 0
M  V30 3 C 12.200154 8.236755 -8.247113 0
M  V30 4 C 11.256311 8.035776 -7.320109 0
M  V30 5 C 11.463479 8.144021 -5.871135 0
M  V30 6 C 11.997411 9.311915 -5.283691 0
M  V30 7 C 12.348057 9.303013 -3.916995 0
M  V30 8 C 12.197427 8.138151 -3.144909 0
M  V30 9 C 11.685781 6.972301 -3.737331 0
M  V30 10 C 11.286041 6.983821 -5.088800 0
M  V30 11 O 10.033546 7.694190 -7.842952 0
M  V30 12 C 10.133199 7.636122 -9.271694 0 CFG=1
M  V30 13 C 9.286431 8.755046 -9.903745 0
M  V30 14 C 9.124931 8.572244 -11.431183 0
M  V30 15 C 8.740081 7.139602 -11.844831 0
M  V30 16 N 9.685390 6.166667 -11.253261 0 CFG=2 CHG=1
M  V30 17 C 9.518573 4.793642 -11.788610 0
M  V30 18 C 10.008873 4.678669 -13.227117 0
M  V30 19 C 11.246214 5.241243 -13.622314 0
M  V30 20 C 11.694885 5.114532 -14.950694 0
M  V30 21 C 10.913584 4.422605 -15.895043 0
M  V30 22 C 9.685637 3.855998 -15.507406 0
M  V30 23 C 9.231600 3.986310 -14.179778 0
M  V30 24 C 9.676735 6.240945 -9.766828 0
M  V30 25 H 13.236110 8.507532 -8.102417 0
M  V30 26 H 12.171372 10.196238 -5.879570 0
M  V30 27 H 12.774935 10.170548 -3.447430 0
M  V30 28 H 12.487156 8.136606 -2.104239 0
M  V30 29 H 11.575660 6.073106 -3.149330 0
M  V30 30 H 10.899012 6.082738 -5.539115 0
M  V30 31 H 8.321217 8.791423 -9.411006 0
M  V30 32 H 9.728949 9.730808 -9.699297 0
M  V30 33 H 8.388609 9.280106 -11.813305 0
M  V30 34 H 10.068103 8.822805 -11.906612 0
M  V30 35 H 7.728180 6.890895 -11.529521 0
M  V30 36 H 8.736634 7.052096 -12.929606 0
M  V30 37 H 10.084765 4.080122 -11.190154 0
M  V30 38 H 8.471985 4.493278 -11.710515 0
M  V30 39 H 11.865074 5.783234 -12.923626 0
M  V30 40 H 12.639747 5.547951 -15.244942 0
M  V30 41 H 11.258858 4.322841 -16.913906 0
M  V30 42 H 9.089240 3.319589 -16.230673 0
M  V30 43 H 8.286366 3.544573 -13.896748 0
M  V30 44 H 10.326506 5.471877 -9.348307 0
M  V30 45 H 8.671100 6.026224 -9.399165 0
M  V30 46 H 10.609009 6.463439 -11.538240 0
M  V30 END ATOM
M  V30 BEGIN BOND
M  V30 1 2 2 1
M  V30 2 1 3 2
M  V30 3 2 4 3
M  V30 4 1 5 4
M  V30 5 2 6 5
M  V30 6 1 7 6
M  V30 7 2 8 7
M  V30 8 1 9 8
M  V30 9 1 10 5
M  V30 10 2 10 9
M  V30 11 1 11 4
M  V30 12 1 12 2
M  V30 13 1 12 11 CFG=1
M  V30 14 1 13 12
M  V30 15 1 14 13
M  V30 16 1 15 14
M  V30 17 1 16 15
M  V30 18 1 17 16
M  V30 19 1 18 17
M  V30 20 2 19 18
M  V30 21 1 20 19
M  V30 22 2 21 20
M  V30 23 1 22 21
M  V30 24 1 23 18
M  V30 25 2 23 22
M  V30 26 1 24 12
M  V30 27 1 24 16
M  V30 28 1 25 3
M  V30 29 1 26 6
M  V30 30 1 27 7
M  V30 31 1 28 8
M  V30 32 1 29 9
M  V30 33 1 30 10
M  V30 34 1 31 13
M  V30 35 1 32 13
M  V30 36 1 33 14
M  V30 37 1 34 14
M  V30 38 1 35 15
M  V30 39 1 36 15
M  V30 40 1 37 17
M  V30 41 1 38 17
M  V30 42 1 39 19
M  V30 43 1 40 20
M  V30 44 1 41 21
M  V30 45 1 42 22
M  V30 46 1 43 23
M  V30 47 1 44 24
M  V30 48 1 45 24
M  V30 49 1 16 46 CFG=3
M  V30 END BOND
M  V30 END CTAB
M  END
>  <b_m_subgroup_collapsed>  (942) 
0

>  <r_i_docking_score>  (942) 
-7.6703789063383798

>  <s_m_subgroup_title>  (942) 
glide-dock_SP_D22_pv

>  <s_m_subgroupid>  (942) 
glide-dock_SP_D22_pv

>  <Molecule ChEMBL ID>  (942) 
CHEMBL544761

>  <Standard Type>  (942) 
Ki

>  <Standard Value>  (942) 
10000.0

>  <label>  (942) 
0

$$$$
CHEMBL5558071
     RDKit          3D

  0  0  0  0  0  0  0  0  0  0999 V3000
M  V30 BEGIN CTAB
M  V30 COUNTS 55 60 0 0 1
M  V30 BEGIN ATOM
M  V30 1 O 7.415331 0.603558 -20.336555 0
M  V30 2 C 7.273718 0.550148 -19.118349 0
M  V30 3 C 8.392614 1.075617 -18.188593 0
M  V30 4 N 7.984205 1.379187 -16.809988 0
M  V30 5 C 6.879021 0.670931 -16.294504 0
M  V30 6 C 5.984460 0.026055 -17.156733 0
M  V30 7 C 4.921772 -0.633912 -16.490915 0
M  V30 8 C 4.817743 -0.626226 -15.072330 0
M  V30 9 C 5.767348 0.053796 -14.266509 0
M  V30 10 C 6.821511 0.730191 -14.908038 0
M  V30 11 C 8.022014 1.511610 -14.433484 0 CFG=2
M  V30 12 C 7.650499 2.899099 -13.873328 0
M  V30 13 N 8.875856 3.632891 -13.446316 0 CFG=2 CHG=1
M  V30 14 C 8.572974 5.003912 -12.963950 0
M  V30 15 C 9.665373 5.558667 -12.030400 0
M  V30 16 C 9.263551 6.918118 -11.439874 0
M  V30 17 C 10.309155 7.528283 -10.554759 0
M  V30 18 N 11.429933 8.007239 -11.044697 0
M  V30 19 N 12.085843 8.570990 -9.999401 0
M  V30 20 C 11.427856 8.438383 -8.792285 0
M  V30 21 C 11.711884 8.842149 -7.474924 0
M  V30 22 C 10.787976 8.548045 -6.456646 0
M  V30 23 F 11.040848 8.927444 -5.181947 0
M  V30 24 C 9.598543 7.860975 -6.767762 0
M  V30 25 C 9.321705 7.467909 -8.093368 0
M  V30 26 C 10.236229 7.743815 -9.136097 0
M  V30 27 C 10.000392 3.562692 -14.432413 0
M  V30 28 C 9.564025 3.037635 -15.816236 0
M  V30 29 C 8.887217 1.656636 -15.702687 0 CFG=2
M  V30 30 N 6.159941 0.056549 -18.555305 0
M  V30 31 H 9.190777 0.333255 -18.164162 0
M  V30 32 H 8.818687 1.976906 -18.630651 0
M  V30 33 H 4.178302 -1.166729 -17.066565 0
M  V30 34 H 3.999136 -1.153456 -14.604471 0
M  V30 35 H 5.687919 0.045925 -13.189487 0
M  V30 36 H 8.550533 0.925145 -13.681074 0
M  V30 37 H 7.126760 3.475341 -14.638035 0
M  V30 38 H 6.943826 2.811541 -13.047036 0
M  V30 39 H 8.412848 5.670028 -13.813790 0
M  V30 40 H 7.633012 4.983624 -12.409248 0
M  V30 41 H 9.850703 4.856162 -11.216246 0
M  V30 42 H 10.604649 5.669416 -12.572613 0
M  V30 43 H 9.020211 7.611633 -12.245414 0
M  V30 44 H 8.341915 6.788960 -10.875104 0
M  V30 45 H 12.948229 9.089450 -10.148893 0
M  V30 46 H 12.627020 9.367914 -7.244843 0
M  V30 47 H 8.886974 7.637497 -5.987996 0
M  V30 48 H 8.394579 6.959311 -8.316946 0
M  V30 49 H 10.483739 4.532536 -14.552568 0
M  V30 50 H 10.760789 2.896616 -14.021553 0
M  V30 51 H 8.886543 3.760404 -16.270294 0
M  V30 52 H 10.420918 2.974822 -16.488390 0
M  V30 53 H 9.648709 0.874275 -15.694445 0
M  V30 54 H 5.437045 -0.329573 -19.145025 0
M  V30 55 H 9.209373 3.132335 -12.632461 0
M  V30 END ATOM
M  V30 BEGIN BOND
M  V30 1 2 2 1
M  V30 2 1 3 2
M  V30 3 1 4 3
M  V30 4 1 5 4
M  V30 5 2 6 5
M  V30 6 1 7 6
M  V30 7 2 8 7
M  V30 8 1 9 8
M  V30 9 1 10 5
M  V30 10 2 10 9
M  V30 11 1 11 10
M  V30 12 1 12 11
M  V30 13 1 13 12
M  V30 14 1 14 13
M  V30 15 1 15 14
M  V30 16 1 16 15
M  V30 17 1 17 16
M  V30 18 2 18 17
M  V30 19 1 19 18
M  V30 20 1 20 19
M  V30 21 1 21 20
M  V30 22 2 22 21
M  V30 23 1 23 22
M  V30 24 1 24 22
M  V30 25 2 25 24
M  V30 26 1 26 17
M  V30 27 2 26 20
M  V30 28 1 26 25
M  V30 29 1 27 13
M  V30 30 1 28 27
M  V30 31 1 29 4
M  V30 32 1 29 11
M  V30 33 1 29 28
M  V30 34 1 30 2
M  V30 35 1 30 6
M  V30 36 1 31 3
M  V30 37 1 32 3
M  V30 38 1 33 7
M  V30 39 1 34 8
M  V30 40 1 35 9
M  V30 41 1 11 36 CFG=1
M  V30 42 1 37 12
M  V30 43 1 38 12
M  V30 44 1 39 14
M  V30 45 1 40 14
M  V30 46 1 41 15
M  V30 47 1 42 15
M  V30 48 1 43 16
M  V30 49 1 44 16
M  V30 50 1 45 19
M  V30 51 1 46 21
M  V30 52 1 47 24
M  V30 53 1 48 25
M  V30 54 1 49 27
M  V30 55 1 50 27
M  V30 56 1 51 28
M  V30 57 1 52 28
M  V30 58 1 29 53 CFG=1
M  V30 59 1 54 30
M  V30 60 1 13 55 CFG=1
M  V30 END BOND
M  V30 END CTAB
M  END
>  <b_m_subgroup_collapsed>  (943) 
0

>  <r_i_docking_score>  (943) 
-7.6697600208145396

>  <s_m_subgroup_title>  (943) 
glide-dock_SP_D22_pv

>  <s_m_subgroupid>  (943) 
glide-dock_SP_D22_pv

>  <Molecule ChEMBL ID>  (943) 
CHEMBL5558071

>  <Standard Type>  (943) 
Ki

>  <Standard Value>  (943) 
15.0

>  <label>  (943) 
1

$$$$
CHEMBL3764306
     RDKit          3D

  0  0  0  0  0  0  0  0  0  0999 V3000
M  V30 BEGIN CTAB
M  V30 COUNTS 60 63 0 0 1
M  V30 BEGIN ATOM
M  V30 1 C 9.162859 3.376400 -17.809196 0
M  V30 2 N 9.766106 2.907308 -16.572962 0
M  V30 3 C 10.929014 3.297896 -16.006502 0
M  V30 4 S 11.995164 4.512823 -16.724894 0
M  V30 5 C 12.552824 5.356248 -15.207910 0
M  V30 6 C 11.418427 6.173556 -14.567455 0
M  V30 7 C 11.677302 6.545119 -13.091184 0
M  V30 8 N 10.488104 6.755148 -12.246887 0
M  V30 9 C 9.684635 5.534533 -12.103690 0
M  V30 10 C 8.512233 5.710301 -11.129062 0
M  V30 11 O 9.027743 6.100138 -9.866172 0
M  V30 12 C 9.714083 7.349628 -9.902802 0 CFG=1
M  V30 13 C 10.210196 7.747159 -8.513644 0
M  V30 14 C 10.883838 8.972334 -8.321651 0
M  V30 15 C 11.346424 9.339053 -7.041085 0
M  V30 16 C 11.158315 8.484017 -5.936036 0
M  V30 17 C 11.670658 8.899289 -4.562401 0
M  V30 18 F 11.686081 7.878108 -3.706673 0
M  V30 19 F 12.908005 9.377225 -4.650262 0
M  V30 20 F 10.886648 9.860233 -4.078695 0
M  V30 21 C 10.481829 7.260020 -6.125266 0
M  V30 22 C 10.009372 6.897145 -7.401737 0
M  V30 23 C 10.881659 7.238836 -10.914863 0
M  V30 24 N 11.184330 2.687235 -14.849992 0
M  V30 25 N 10.133843 1.831424 -14.646791 0
M  V30 26 C 9.308681 1.993241 -15.684552 0
M  V30 27 C 8.060482 1.238959 -15.771276 0
M  V30 28 C 7.661027 0.555611 -16.937031 0
M  V30 29 C 6.467200 -0.193315 -16.914125 0
M  V30 30 C 5.716877 -0.253527 -15.714359 0
M  V30 31 C 4.463083 -1.080334 -15.624550 0
M  V30 32 N 4.486920 -2.227761 -16.304533 0
M  V30 33 O 3.513533 -0.752220 -14.911892 0
M  V30 34 N 6.086617 0.425804 -14.605272 0
M  V30 35 C 7.223570 1.147715 -14.642416 0
M  V30 36 H 9.318979 4.449572 -17.916336 0
M  V30 37 H 9.617296 2.862499 -18.655073 0
M  V30 38 H 8.089471 3.189705 -17.807991 0
M  V30 39 H 12.944487 4.610738 -14.514606 0
M  V30 40 H 13.388741 6.011132 -15.453181 0
M  V30 41 H 11.286105 7.083923 -15.151295 0
M  V30 42 H 10.488346 5.620687 -14.668836 0
M  V30 43 H 12.300291 5.772408 -12.646873 0
M  V30 44 H 12.297456 7.442526 -13.076304 0
M  V30 45 H 9.270129 5.230067 -13.062318 0
M  V30 46 H 10.310202 4.707851 -11.767031 0
M  V30 47 H 7.801591 6.449706 -11.499743 0
M  V30 48 H 7.967791 4.772870 -11.013865 0
M  V30 49 H 9.013068 8.118411 -10.231434 0
M  V30 50 H 11.041781 9.639969 -9.156173 0
M  V30 51 H 11.851293 10.282248 -6.901081 0
M  V30 52 H 10.313501 6.592496 -5.292813 0
M  V30 53 H 9.489558 5.955955 -7.514989 0
M  V30 54 H 11.625102 6.572348 -10.479463 0
M  V30 55 H 11.369422 8.208732 -11.017337 0
M  V30 56 H 8.264604 0.587752 -17.830639 0
M  V30 57 H 6.149545 -0.722717 -17.801025 0
M  V30 58 H 5.323650 -2.483860 -16.807137 0
M  V30 59 H 3.705643 -2.885296 -16.246916 0
M  V30 60 H 7.474187 1.670624 -13.734875 0
M  V30 END ATOM
M  V30 BEGIN BOND
M  V30 1 1 2 1
M  V30 2 1 3 2
M  V30 3 1 4 3
M  V30 4 1 5 4
M  V30 5 1 6 5
M  V30 6 1 7 6
M  V30 7 1 8 7
M  V30 8 1 9 8
M  V30 9 1 10 9
M  V30 10 1 11 10
M  V30 11 1 12 11
M  V30 12 1 13 12
M  V30 13 1 14 13
M  V30 14 2 15 14
M  V30 15 1 16 15
M  V30 16 1 17 16
M  V30 17 1 18 17
M  V30 18 1 19 17
M  V30 19 1 20 17
M  V30 20 2 21 16
M  V30 21 2 22 13
M  V30 22 1 22 21
M  V30 23 1 23 8
M  V30 24 1 23 12
M  V30 25 2 24 3
M  V30 26 1 25 24
M  V30 27 1 26 2
M  V30 28 2 26 25
M  V30 29 1 27 26
M  V30 30 1 28 27
M  V30 31 2 29 28
M  V30 32 1 30 29
M  V30 33 1 31 30
M  V30 34 1 32 31
M  V30 35 2 33 31
M  V30 36 2 34 30
M  V30 37 2 35 27
M  V30 38 1 35 34
M  V30 39 1 36 1
M  V30 40 1 37 1
M  V30 41 1 38 1
M  V30 42 1 39 5
M  V30 43 1 40 5
M  V30 44 1 41 6
M  V30 45 1 42 6
M  V30 46 1 43 7
M  V30 47 1 44 7
M  V30 48 1 45 9
M  V30 49 1 46 9
M  V30 50 1 47 10
M  V30 51 1 48 10
M  V30 52 1 12 49 CFG=3
M  V30 53 1 50 14
M  V30 54 1 51 15
M  V30 55 1 52 21
M  V30 56 1 53 22
M  V30 57 1 54 23
M  V30 58 1 55 23
M  V30 59 1 56 28
M  V30 60 1 57 29
M  V30 61 1 58 32
M  V30 62 1 59 32
M  V30 63 1 60 35
M  V30 END BOND
M  V30 END CTAB
M  END
>  <b_m_subgroup_collapsed>  (944) 
0

>  <r_i_docking_score>  (944) 
-7.6688192417516996

>  <s_m_subgroup_title>  (944) 
glide-dock_SP_D22_pv

>  <s_m_subgroupid>  (944) 
glide-dock_SP_D22_pv

>  <Molecule ChEMBL ID>  (944) 
CHEMBL3764306

>  <Standard Type>  (944) 
Ki

>  <Standard Value>  (944) 
24547.0

>  <label>  (944) 
0

$$$$
CHEMBL2207643
     RDKit          3D

  0  0  0  0  0  0  0  0  0  0999 V3000
M  V30 BEGIN CTAB
M  V30 COUNTS 50 53 0 0 1
M  V30 BEGIN ATOM
M  V30 1 C 11.781748 11.081499 -6.160308 0
M  V30 2 O 11.188014 9.816957 -6.322659 0
M  V30 3 C 11.423444 8.888489 -5.330978 0
M  V30 4 C 12.145514 9.180117 -4.141530 0
M  V30 5 C 12.435310 8.177044 -3.201026 0
M  V30 6 C 12.007716 6.864236 -3.440519 0
M  V30 7 C 11.269048 6.573317 -4.600760 0
M  V30 8 C 10.939092 7.575072 -5.539660 0
M  V30 9 N 10.124430 7.267301 -6.647664 0
M  V30 10 C 10.377082 6.103789 -7.482257 0
M  V30 11 C 10.436450 6.508059 -8.968828 0
M  V30 12 N 9.286152 7.362077 -9.378583 0 CHG=1
M  V30 13 C 9.311714 7.715869 -10.821308 0
M  V30 14 C 9.162964 6.481581 -11.700214 0
M  V30 15 C 8.002197 5.632952 -11.652193 0
M  V30 16 C 8.224166 4.568809 -12.568514 0
M  V30 17 C 9.455001 4.701540 -13.215551 0
M  V30 18 C 9.926674 3.792862 -14.163091 0
M  V30 19 C 11.161129 3.866604 -14.888072 0
M  V30 20 C 12.171764 4.883482 -14.827025 0
M  V30 21 C 12.216372 6.071639 -14.022701 0
M  V30 22 C 11.280932 6.548717 -13.044143 0
M  V30 23 C 10.066394 5.960544 -12.669809 0
M  V30 24 C 9.129872 8.547635 -8.495551 0
M  V30 25 C 8.994915 8.112706 -7.025353 0
M  V30 26 H 11.685440 11.702434 -7.047137 0
M  V30 27 H 11.287658 11.584530 -5.328196 0
M  V30 28 H 12.851545 10.972274 -5.979921 0
M  V30 29 H 12.507874 10.172253 -3.919478 0
M  V30 30 H 12.983742 8.418177 -2.302689 0
M  V30 31 H 12.215925 6.083401 -2.722050 0
M  V30 32 H 10.886353 5.581613 -4.723321 0
M  V30 33 H 9.576229 5.378688 -7.331463 0
M  V30 34 H 11.311411 5.624002 -7.195204 0
M  V30 35 H 10.474378 5.603676 -9.574127 0
M  V30 36 H 11.359226 7.057950 -9.161088 0
M  V30 37 H 10.225245 8.262522 -11.047338 0
M  V30 38 H 8.486205 8.390076 -11.047444 0
M  V30 39 H 7.128778 5.772058 -11.027350 0
M  V30 40 H 7.508291 3.771818 -12.723722 0
M  V30 41 H 9.296718 2.938298 -14.373048 0
M  V30 42 H 11.351017 3.054093 -15.580372 0
M  V30 43 H 13.022186 4.732697 -15.481898 0
M  V30 44 H 13.097516 6.685223 -14.159795 0
M  V30 45 H 11.560541 7.472176 -12.554389 0
M  V30 46 H 9.996196 9.199610 -8.616009 0
M  V30 47 H 8.257969 9.130489 -8.787950 0
M  V30 48 H 8.085940 7.528290 -6.892929 0
M  V30 49 H 8.892906 8.972716 -6.367101 0
M  V30 50 H 8.434400 6.829845 -9.245424 0
M  V30 END ATOM
M  V30 BEGIN BOND
M  V30 1 1 2 1
M  V30 2 1 3 2
M  V30 3 2 4 3
M  V30 4 1 5 4
M  V30 5 2 6 5
M  V30 6 1 7 6
M  V30 7 1 8 3
M  V30 8 2 8 7
M  V30 9 1 9 8
M  V30 10 1 10 9
M  V30 11 1 11 10
M  V30 12 1 12 11
M  V30 13 1 13 12
M  V30 14 1 14 13
M  V30 15 1 15 14
M  V30 16 2 16 15
M  V30 17 1 17 16
M  V30 18 2 18 17
M  V30 19 1 19 18
M  V30 20 2 20 19
M  V30 21 1 21 20
M  V30 22 2 22 21
M  V30 23 2 23 14
M  V30 24 1 23 17
M  V30 25 1 23 22
M  V30 26 1 24 12
M  V30 27 1 25 9
M  V30 28 1 25 24
M  V30 29 1 26 1
M  V30 30 1 27 1
M  V30 31 1 28 1
M  V30 32 1 29 4
M  V30 33 1 30 5
M  V30 34 1 31 6
M  V30 35 1 32 7
M  V30 36 1 33 10
M  V30 37 1 34 10
M  V30 38 1 35 11
M  V30 39 1 36 11
M  V30 40 1 37 13
M  V30 41 1 38 13
M  V30 42 1 39 15
M  V30 43 1 40 16
M  V30 44 1 41 18
M  V30 45 1 42 19
M  V30 46 1 43 20
M  V30 47 1 44 21
M  V30 48 1 45 22
M  V30 49 1 46 24
M  V30 50 1 47 24
M  V30 51 1 48 25
M  V30 52 1 49 25
M  V30 53 1 50 12
M  V30 END BOND
M  V30 END CTAB
M  END
>  <b_m_subgroup_collapsed>  (945) 
0

>  <r_i_docking_score>  (945) 
-7.6684489484174501

>  <s_m_subgroup_title>  (945) 
glide-dock_SP_D22_pv

>  <s_m_subgroupid>  (945) 
glide-dock_SP_D22_pv

>  <Molecule ChEMBL ID>  (945) 
CHEMBL2207643

>  <Standard Type>  (945) 
Ki

>  <Standard Value>  (945) 
24.0

>  <label>  (945) 
1

$$$$
CHEMBL78923
     RDKit          3D

  0  0  0  0  0  0  0  0  0  0999 V3000
M  V30 BEGIN CTAB
M  V30 COUNTS 51 54 0 0 1
M  V30 BEGIN ATOM
M  V30 1 N 8.237621 4.584887 -11.369798 0
M  V30 2 C 9.294495 5.364834 -11.734038 0
M  V30 3 N 9.881811 5.065999 -12.887870 0
M  V30 4 C 10.906899 5.853140 -13.285450 0
M  V30 5 C 11.594378 5.476558 -14.541268 0
M  V30 6 C 12.272108 6.446464 -15.318293 0
M  V30 7 C 12.959700 6.088133 -16.493765 0
M  V30 8 C 12.976166 4.747155 -16.917660 0
M  V30 9 Cl 13.839252 4.298377 -18.342331 0
M  V30 10 C 12.291452 3.771031 -16.171021 0
M  V30 11 C 11.613137 4.133771 -14.991373 0
M  V30 12 C 11.289590 6.972036 -12.510088 0
M  V30 13 C 10.584044 7.192005 -11.310945 0
M  V30 14 C 10.939240 8.357989 -10.396352 0 CFG=1
M  V30 15 C 9.718140 9.008408 -9.719621 0
M  V30 16 C 9.285394 8.313993 -8.423450 0
M  V30 17 N 10.434255 8.160688 -7.501193 0 CFG=1 CHG=1
M  V30 18 C 10.016737 7.605987 -6.201695 0
M  V30 19 C 11.006002 7.868522 -5.074635 0
M  V30 20 C 11.525983 6.779655 -4.346356 0
M  V30 21 C 12.257013 6.989609 -3.161966 0
M  V30 22 C 12.485918 8.299714 -2.704996 0
M  V30 23 C 12.009215 9.393001 -3.449025 0
M  V30 24 C 11.285026 9.184040 -4.640188 0
M  V30 25 C 11.513138 7.372299 -8.130411 0
M  V30 26 C 12.049056 8.057894 -9.384313 0
M  V30 27 N 9.616958 6.348658 -10.903713 0
M  V30 28 H 7.835943 3.980808 -12.068221 0
M  V30 29 H 7.619286 4.933844 -10.649639 0
M  V30 30 H 12.270852 7.484250 -15.019728 0
M  V30 31 H 13.475647 6.843700 -17.068525 0
M  V30 32 H 12.303764 2.738943 -16.490038 0
M  V30 33 H 11.113500 3.363430 -14.422223 0
M  V30 34 H 12.106671 7.614667 -12.801893 0
M  V30 35 H 11.358487 9.117392 -11.046814 0
M  V30 36 H 9.993809 10.027784 -9.448195 0
M  V30 37 H 8.880457 9.089859 -10.414697 0
M  V30 38 H 8.833980 7.341670 -8.626484 0
M  V30 39 H 8.504664 8.913195 -7.951242 0
M  V30 40 H 9.810860 6.538495 -6.298880 0
M  V30 41 H 9.073184 8.061771 -5.902296 0
M  V30 42 H 11.308464 5.772479 -4.658415 0
M  V30 43 H 12.618937 6.144551 -2.593923 0
M  V30 44 H 13.024919 8.471639 -1.784487 0
M  V30 45 H 12.167242 10.393806 -3.074387 0
M  V30 46 H 10.877899 10.034520 -5.167625 0
M  V30 47 H 12.341384 7.226296 -7.444041 0
M  V30 48 H 11.136674 6.377971 -8.377436 0
M  V30 49 H 12.516761 8.992126 -9.078375 0
M  V30 50 H 12.839788 7.468370 -9.848193 0
M  V30 51 H 10.795185 9.085313 -7.320030 0
M  V30 END ATOM
M  V30 BEGIN BOND
M  V30 1 1 2 1
M  V30 2 2 3 2
M  V30 3 1 4 3
M  V30 4 1 5 4
M  V30 5 1 6 5
M  V30 6 2 7 6
M  V30 7 1 8 7
M  V30 8 1 9 8
M  V30 9 2 10 8
M  V30 10 2 11 5
M  V30 11 1 11 10
M  V30 12 2 12 4
M  V30 13 1 13 12
M  V30 14 1 14 13
M  V30 15 1 15 14
M  V30 16 1 16 15
M  V30 17 1 17 16
M  V30 18 1 18 17
M  V30 19 1 19 18
M  V30 20 2 20 19
M  V30 21 1 21 20
M  V30 22 2 22 21
M  V30 23 1 23 22
M  V30 24 1 24 19
M  V30 25 2 24 23
M  V30 26 1 25 17
M  V30 27 1 26 14
M  V30 28 1 26 25
M  V30 29 1 27 2
M  V30 30 2 27 13
M  V30 31 1 28 1
M  V30 32 1 29 1
M  V30 33 1 30 6
M  V30 34 1 31 7
M  V30 35 1 32 10
M  V30 36 1 33 11
M  V30 37 1 34 12
M  V30 38 1 14 35 CFG=3
M  V30 39 1 36 15
M  V30 40 1 37 15
M  V30 41 1 38 16
M  V30 42 1 39 16
M  V30 43 1 40 18
M  V30 44 1 41 18
M  V30 45 1 42 20
M  V30 46 1 43 21
M  V30 47 1 44 22
M  V30 48 1 45 23
M  V30 49 1 46 24
M  V30 50 1 47 25
M  V30 51 1 48 25
M  V30 52 1 49 26
M  V30 53 1 50 26
M  V30 54 1 17 51 CFG=1
M  V30 END BOND
M  V30 END CTAB
M  END
>  <b_m_subgroup_collapsed>  (946) 
0

>  <r_i_docking_score>  (946) 
-7.6676805073260796

>  <s_m_subgroup_title>  (946) 
glide-dock_SP_D22_pv

>  <s_m_subgroupid>  (946) 
glide-dock_SP_D22_pv

>  <Molecule ChEMBL ID>  (946) 
CHEMBL78923

>  <Standard Type>  (946) 
Ki

>  <Standard Value>  (946) 
8.6

>  <label>  (946) 
1

$$$$
CHEMBL5079536
     RDKit          3D

  0  0  0  0  0  0  0  0  0  0999 V3000
M  V30 BEGIN CTAB
M  V30 COUNTS 60 64 0 0 1
M  V30 BEGIN ATOM
M  V30 1 C 8.177905 0.884884 -18.197115 0
M  V30 2 C 7.502151 0.572389 -16.892992 0
M  V30 3 C 8.001010 0.905906 -15.651489 0
M  V30 4 S 9.527356 1.778263 -15.343709 0
M  V30 5 O 10.530087 0.725617 -15.125927 0
M  V30 6 O 9.696039 2.788589 -16.398119 0
M  V30 7 N 9.329480 2.607546 -13.845307 0
M  V30 8 C 8.666295 3.917639 -13.716742 0 CFG=1
M  V30 9 C 7.155780 3.782387 -13.447313 0
M  V30 10 C 6.855582 4.672419 -12.240659 0 CFG=2
M  V30 11 C 6.326134 6.052969 -12.668012 0
M  V30 12 N 8.142031 4.712808 -11.503952 0 CFG=2 CHG=1
M  V30 13 C 8.263535 5.723256 -10.425158 0
M  V30 14 C 9.290513 5.302368 -9.357064 0
M  V30 15 C 9.125725 6.064456 -8.025893 0
M  V30 16 C 9.982166 7.288594 -7.857237 0
M  V30 17 N 10.073812 8.217718 -8.808959 0
M  V30 18 O 10.885845 9.266651 -8.289557 0
M  V30 19 C 11.258187 8.975690 -6.985601 0
M  V30 20 C 11.993429 9.698965 -6.032162 0
M  V30 21 C 12.181887 9.104561 -4.764205 0
M  V30 22 F 12.885924 9.750630 -3.808633 0
M  V30 23 C 11.654186 7.821983 -4.487899 0
M  V30 24 C 10.890215 7.130386 -5.455755 0
M  V30 25 C 10.704405 7.722915 -6.723878 0
M  V30 26 C 9.223815 4.694376 -12.509926 0
M  V30 27 S 7.042847 0.337900 -14.313263 0
M  V30 28 C 5.837822 -0.309096 -15.403759 0
M  V30 29 C 4.627923 -0.940628 -15.062695 0
M  V30 30 C 3.812541 -1.470432 -16.075472 0
M  V30 31 C 4.223982 -1.385825 -17.414570 0
M  V30 32 Cl 3.299512 -2.136098 -18.651447 0
M  V30 33 C 5.406642 -0.709249 -17.753109 0
M  V30 34 C 6.250682 -0.149343 -16.765324 0
M  V30 35 H 7.757771 0.310075 -19.021122 0
M  V30 36 H 8.077331 1.940417 -18.447762 0
M  V30 37 H 9.243197 0.651343 -18.158428 0
M  V30 38 H 9.429440 2.021316 -13.004660 0
M  V30 39 H 8.841819 4.496463 -14.626566 0
M  V30 40 H 6.550118 4.022923 -14.319754 0
M  V30 41 H 6.889298 2.770750 -13.163885 0
M  V30 42 H 6.098908 4.195938 -11.614828 0
M  V30 43 H 5.569327 5.949955 -13.446349 0
M  V30 44 H 5.837783 6.572283 -11.846905 0
M  V30 45 H 7.115666 6.699985 -13.046179 0
M  V30 46 H 8.485602 6.713336 -10.823962 0
M  V30 47 H 7.287033 5.773261 -9.952721 0
M  V30 48 H 9.121365 4.246972 -9.140440 0
M  V30 49 H 10.312870 5.375254 -9.727378 0
M  V30 50 H 8.085849 6.319890 -7.850135 0
M  V30 51 H 9.380939 5.372735 -7.226818 0
M  V30 52 H 12.406116 10.671369 -6.255539 0
M  V30 53 H 11.811623 7.379463 -3.515538 0
M  V30 54 H 10.465289 6.165545 -5.222364 0
M  V30 55 H 10.131969 4.252589 -12.098215 0
M  V30 56 H 9.464331 5.714693 -12.809930 0
M  V30 57 H 4.339425 -1.047594 -14.030111 0
M  V30 58 H 2.897988 -1.992472 -15.831364 0
M  V30 59 H 5.685675 -0.643520 -18.791409 0
M  V30 60 H 8.184057 3.817078 -11.041503 0
M  V30 END ATOM
M  V30 BEGIN BOND
M  V30 1 1 2 1
M  V30 2 2 3 2
M  V30 3 1 4 3
M  V30 4 2 5 4
M  V30 5 2 6 4
M  V30 6 1 7 4
M  V30 7 1 8 7
M  V30 8 1 9 8
M  V30 9 1 10 9
M  V30 10 1 11 10
M  V30 11 1 12 10
M  V30 12 1 13 12
M  V30 13 1 14 13
M  V30 14 1 15 14
M  V30 15 1 16 15
M  V30 16 2 17 16
M  V30 17 1 18 17
M  V30 18 1 19 18
M  V30 19 1 20 19
M  V30 20 2 21 20
M  V30 21 1 22 21
M  V30 22 1 23 21
M  V30 23 2 24 23
M  V30 24 1 25 16
M  V30 25 2 25 19
M  V30 26 1 25 24
M  V30 27 1 26 8
M  V30 28 1 26 12
M  V30 29 1 27 3
M  V30 30 1 28 27
M  V30 31 1 29 28
M  V30 32 2 30 29
M  V30 33 1 31 30
M  V30 34 1 32 31
M  V30 35 2 33 31
M  V30 36 1 34 2
M  V30 37 2 34 28
M  V30 38 1 34 33
M  V30 39 1 35 1
M  V30 40 1 36 1
M  V30 41 1 37 1
M  V30 42 1 38 7
M  V30 43 1 8 39 CFG=3
M  V30 44 1 40 9
M  V30 45 1 41 9
M  V30 46 1 10 42 CFG=1
M  V30 47 1 43 11
M  V30 48 1 44 11
M  V30 49 1 45 11
M  V30 50 1 46 13
M  V30 51 1 47 13
M  V30 52 1 48 14
M  V30 53 1 49 14
M  V30 54 1 50 15
M  V30 55 1 51 15
M  V30 56 1 52 20
M  V30 57 1 53 23
M  V30 58 1 54 24
M  V30 59 1 55 26
M  V30 60 1 56 26
M  V30 61 1 57 29
M  V30 62 1 58 30
M  V30 63 1 59 33
M  V30 64 1 12 60 CFG=1
M  V30 END BOND
M  V30 END CTAB
M  END
>  <b_m_subgroup_collapsed>  (947) 
0

>  <r_i_docking_score>  (947) 
-7.6672095357711303

>  <s_m_subgroup_title>  (947) 
glide-dock_SP_D22_pv

>  <s_m_subgroupid>  (947) 
glide-dock_SP_D22_pv

>  <Molecule ChEMBL ID>  (947) 
CHEMBL5079536

>  <Standard Type>  (947) 
Ki

>  <Standard Value>  (947) 
53.7

>  <label>  (947) 
1

$$$$
CHEMBL3321791
     RDKit          3D

  0  0  0  0  0  0  0  0  0  0999 V3000
M  V30 BEGIN CTAB
M  V30 COUNTS 53 56 0 0 1
M  V30 BEGIN ATOM
M  V30 1 O 8.716756 6.572403 -6.775405 0
M  V30 2 C 9.783402 7.392156 -7.197472 0 CFG=1
M  V30 3 C 10.580190 7.842339 -5.952993 0
M  V30 4 C 10.741791 9.197980 -5.573599 0
M  V30 5 C 11.354195 9.539497 -4.353524 0
M  V30 6 C 11.834777 8.537571 -3.494998 0
M  V30 7 Cl 12.486131 8.960721 -1.958229 0
M  V30 8 C 11.728232 7.188933 -3.872728 0
M  V30 9 C 11.106130 6.851686 -5.088700 0
M  V30 10 C 10.633555 6.469534 -8.127295 0
M  V30 11 C 11.275743 7.226882 -9.304678 0 CFG=2
M  V30 12 C 12.177021 8.380518 -8.850810 0
M  V30 13 C 11.252867 9.590064 -8.922511 0
M  V30 14 C 9.869331 9.010890 -9.257245 0 CFG=2
M  V30 15 C 9.085394 8.527740 -8.018031 0
M  V30 16 N 10.178106 7.830674 -10.081514 0 CFG=1 CHG=1
M  V30 17 C 10.509655 8.172187 -11.486413 0
M  V30 18 C 10.909613 7.007096 -12.405299 0
M  V30 19 C 9.840694 5.930183 -12.627862 0
M  V30 20 S 10.475572 4.682469 -13.782315 0
M  V30 21 C 9.223159 3.477787 -14.100914 0
M  V30 22 C 7.859098 3.739465 -13.846573 0
M  V30 23 C 6.889643 2.758991 -14.141377 0
M  V30 24 C 7.282195 1.516482 -14.678909 0
M  V30 25 C 8.643403 1.256584 -14.930263 0
M  V30 26 F 9.025590 0.066791 -15.448800 0
M  V30 27 C 9.610249 2.238231 -14.647061 0
M  V30 28 H 7.886996 6.971725 -7.018094 0
M  V30 29 H 10.343110 10.005918 -6.158504 0
M  V30 30 H 11.414663 10.572125 -4.052161 0
M  V30 31 H 12.084435 6.409091 -3.215186 0
M  V30 32 H 10.987005 5.806191 -5.328589 0
M  V30 33 H 11.380707 5.914246 -7.563111 0
M  V30 34 H 9.997278 5.699484 -8.569510 0
M  V30 35 H 11.857560 6.572298 -9.923777 0
M  V30 36 H 12.593119 8.222568 -7.855465 0
M  V30 37 H 13.018314 8.514067 -9.532500 0
M  V30 38 H 11.286009 10.172241 -8.010439 0
M  V30 39 H 11.573097 10.238788 -9.738070 0
M  V30 40 H 9.258811 9.728344 -9.807570 0
M  V30 41 H 8.163081 8.127268 -8.429074 0
M  V30 42 H 8.742694 9.356593 -7.405193 0
M  V30 43 H 9.685906 8.733094 -11.931913 0
M  V30 44 H 11.383446 8.812942 -11.446783 0
M  V30 45 H 11.170012 7.430348 -13.375788 0
M  V30 46 H 11.846728 6.572431 -12.072067 0
M  V30 47 H 9.572012 5.442859 -11.690069 0
M  V30 48 H 8.937401 6.382985 -13.037238 0
M  V30 49 H 7.537967 4.683697 -13.435785 0
M  V30 50 H 5.845391 2.958427 -13.950081 0
M  V30 51 H 6.541281 0.762140 -14.900421 0
M  V30 52 H 10.652155 2.034131 -14.845222 0
M  V30 53 H 9.373808 7.216684 -10.092793 0
M  V30 END ATOM
M  V30 BEGIN BOND
M  V30 1 1 2 1 CFG=1
M  V30 2 1 3 2
M  V30 3 1 4 3
M  V30 4 2 5 4
M  V30 5 1 6 5
M  V30 6 1 7 6
M  V30 7 2 8 6
M  V30 8 2 9 3
M  V30 9 1 9 8
M  V30 10 1 10 2
M  V30 11 1 11 10
M  V30 12 1 12 11
M  V30 13 1 13 12
M  V30 14 1 14 13
M  V30 15 1 15 2
M  V30 16 1 15 14
M  V30 17 1 16 11
M  V30 18 1 16 14
M  V30 19 1 17 16
M  V30 20 1 18 17
M  V30 21 1 19 18
M  V30 22 1 20 19
M  V30 23 1 21 20
M  V30 24 2 22 21
M  V30 25 1 23 22
M  V30 26 2 24 23
M  V30 27 1 25 24
M  V30 28 1 26 25
M  V30 29 1 27 21
M  V30 30 2 27 25
M  V30 31 1 28 1
M  V30 32 1 29 4
M  V30 33 1 30 5
M  V30 34 1 31 8
M  V30 35 1 32 9
M  V30 36 1 33 10
M  V30 37 1 34 10
M  V30 38 1 11 35 CFG=3
M  V30 39 1 36 12
M  V30 40 1 37 12
M  V30 41 1 38 13
M  V30 42 1 39 13
M  V30 43 1 14 40 CFG=3
M  V30 44 1 41 15
M  V30 45 1 42 15
M  V30 46 1 43 17
M  V30 47 1 44 17
M  V30 48 1 45 18
M  V30 49 1 46 18
M  V30 50 1 47 19
M  V30 51 1 48 19
M  V30 52 1 49 22
M  V30 53 1 50 23
M  V30 54 1 51 24
M  V30 55 1 52 27
M  V30 56 1 16 53 CFG=3
M  V30 END BOND
M  V30 END CTAB
M  END
>  <b_m_subgroup_collapsed>  (948) 
0

>  <r_i_docking_score>  (948) 
-7.6663397823645001

>  <s_m_subgroup_title>  (948) 
glide-dock_SP_D22_pv

>  <s_m_subgroupid>  (948) 
glide-dock_SP_D22_pv

>  <Molecule ChEMBL ID>  (948) 
CHEMBL3321791

>  <Standard Type>  (948) 
Ki

>  <Standard Value>  (948) 
27.0

>  <label>  (948) 
1

$$$$
CHEMBL2159469
     RDKit          3D

  0  0  0  0  0  0  0  0  0  0999 V3000
M  V30 BEGIN CTAB
M  V30 COUNTS 61 65 0 0 1
M  V30 BEGIN ATOM
M  V30 1 O 9.316494 5.038935 -8.246855 0
M  V30 2 C 9.723571 6.172529 -8.492404 0
M  V30 3 N 9.804308 6.635426 -9.741673 0
M  V30 4 C 9.390920 5.924795 -10.943321 0 CFG=2
M  V30 5 C 9.377954 6.854752 -12.152416 0
M  V30 6 C 8.002046 6.667751 -12.779494 0
M  V30 7 N 7.448500 5.422994 -12.229588 0 CFG=2 CHG=1
M  V30 8 C 5.975783 5.323539 -12.336900 0
M  V30 9 C 5.548772 3.862234 -12.438518 0
M  V30 10 O 6.288003 3.294291 -13.510209 0
M  V30 11 C 6.097204 1.963759 -13.810186 0
M  V30 12 C 4.916262 1.266279 -13.446755 0
M  V30 13 C 4.717476 -0.064975 -13.847168 0
M  V30 14 C 5.716661 -0.726390 -14.575691 0
M  V30 15 C 6.905728 -0.053029 -14.903311 0
M  V30 16 C 7.115700 1.298878 -14.544662 0
M  V30 17 C 8.376498 1.969030 -14.946735 0
M  V30 18 C 8.901059 1.772113 -16.246897 0
M  V30 19 C 10.113970 2.366777 -16.643469 0
M  V30 20 C 10.824317 3.187555 -15.748441 0
M  V30 21 C 10.319279 3.401777 -14.454281 0
M  V30 22 C 9.110222 2.798458 -14.061322 0
M  V30 23 C 7.987003 5.297186 -10.867865 0
M  V30 24 C 10.218572 7.121527 -7.427526 0
M  V30 25 C 10.093146 8.521967 -7.592894 0
M  V30 26 C 10.547221 9.371762 -6.565638 0
M  V30 27 C 11.061337 8.801084 -5.391894 0
M  V30 28 C 11.436038 9.629070 -4.314291 0
M  V30 29 C 11.967649 9.060882 -3.142360 0
M  V30 30 C 12.091206 7.662516 -3.042415 0
M  V30 31 C 11.686086 6.844625 -4.114489 0
M  V30 32 C 11.167802 7.390433 -5.304445 0
M  V30 33 N 10.766935 6.584937 -6.312948 0
M  V30 34 H 10.170383 7.567096 -9.860106 0
M  V30 35 H 10.086779 5.110936 -11.133090 0
M  V30 36 H 10.167393 6.570241 -12.847201 0
M  V30 37 H 9.535753 7.901384 -11.890763 0
M  V30 38 H 8.086013 6.572792 -13.851909 0
M  V30 39 H 7.355163 7.514226 -12.540145 0
M  V30 40 H 5.643646 5.835006 -13.240650 0
M  V30 41 H 5.483956 5.818676 -11.498054 0
M  V30 42 H 4.484435 3.830943 -12.647926 0
M  V30 43 H 5.742863 3.325308 -11.508170 0
M  V30 44 H 4.111278 1.754225 -12.919639 0
M  V30 45 H 3.791769 -0.567341 -13.611176 0
M  V30 46 H 5.575402 -1.751192 -14.884716 0
M  V30 47 H 7.664114 -0.597633 -15.444258 0
M  V30 48 H 8.370903 1.149218 -16.952354 0
M  V30 49 H 10.502405 2.192203 -17.638023 0
M  V30 50 H 11.758844 3.637403 -16.051994 0
M  V30 51 H 10.871984 4.018895 -13.760093 0
M  V30 52 H 8.760457 2.965670 -13.055822 0
M  V30 53 H 7.346185 5.798424 -10.150065 0
M  V30 54 H 8.024204 4.248040 -10.569929 0
M  V30 55 H 9.642231 8.952058 -8.475873 0
M  V30 56 H 10.486530 10.443896 -6.646887 0
M  V30 57 H 11.289285 10.697198 -4.379108 0
M  V30 58 H 12.254036 9.693668 -2.312436 0
M  V30 59 H 12.483339 7.216488 -2.141129 0
M  V30 60 H 11.760711 5.772356 -4.022845 0
M  V30 61 H 7.837391 4.672402 -12.782652 0
M  V30 END ATOM
M  V30 BEGIN BOND
M  V30 1 2 2 1
M  V30 2 1 3 2
M  V30 3 1 4 3
M  V30 4 1 5 4
M  V30 5 1 6 5
M  V30 6 1 7 6
M  V30 7 1 8 7
M  V30 8 1 9 8
M  V30 9 1 10 9
M  V30 10 1 11 10
M  V30 11 2 12 11
M  V30 12 1 13 12
M  V30 13 2 14 13
M  V30 14 1 15 14
M  V30 15 1 16 11
M  V30 16 2 16 15
M  V30 17 1 17 16
M  V30 18 2 18 17
M  V30 19 1 19 18
M  V30 20 2 20 19
M  V30 21 1 21 20
M  V30 22 1 22 17
M  V30 23 2 22 21
M  V30 24 1 23 4
M  V30 25 1 23 7
M  V30 26 1 24 2
M  V30 27 1 25 24
M  V30 28 2 26 25
M  V30 29 1 27 26
M  V30 30 2 28 27
M  V30 31 1 29 28
M  V30 32 2 30 29
M  V30 33 1 31 30
M  V30 34 1 32 27
M  V30 35 2 32 31
M  V30 36 2 33 24
M  V30 37 1 33 32
M  V30 38 1 34 3
M  V30 39 1 4 35 CFG=3
M  V30 40 1 36 5
M  V30 41 1 37 5
M  V30 42 1 38 6
M  V30 43 1 39 6
M  V30 44 1 40 8
M  V30 45 1 41 8
M  V30 46 1 42 9
M  V30 47 1 43 9
M  V30 48 1 44 12
M  V30 49 1 45 13
M  V30 50 1 46 14
M  V30 51 1 47 15
M  V30 52 1 48 18
M  V30 53 1 49 19
M  V30 54 1 50 20
M  V30 55 1 51 21
M  V30 56 1 52 22
M  V30 57 1 53 23
M  V30 58 1 54 23
M  V30 59 1 55 25
M  V30 60 1 56 26
M  V30 61 1 57 28
M  V30 62 1 58 29
M  V30 63 1 59 30
M  V30 64 1 60 31
M  V30 65 1 7 61 CFG=3
M  V30 END BOND
M  V30 END CTAB
M  END
>  <b_m_subgroup_collapsed>  (949) 
0

>  <r_i_docking_score>  (949) 
-7.6663308604801204

>  <s_m_subgroup_title>  (949) 
glide-dock_SP_D22_pv

>  <s_m_subgroupid>  (949) 
glide-dock_SP_D22_pv

>  <Molecule ChEMBL ID>  (949) 
CHEMBL2159469

>  <Standard Type>  (949) 
Ki

>  <Standard Value>  (949) 
24.0

>  <label>  (949) 
1

$$$$
CHEMBL4462839
     RDKit          3D

  0  0  0  0  0  0  0  0  0  0999 V3000
M  V30 BEGIN CTAB
M  V30 COUNTS 63 66 0 0 1
M  V30 BEGIN ATOM
M  V30 1 O 12.263705 5.134254 -13.725831 0
M  V30 2 C 12.187592 4.863698 -14.922368 0
M  V30 3 C 12.684038 5.727585 -16.035892 0
M  V30 4 C 13.281978 6.993530 -15.892553 0
M  V30 5 C 13.643130 7.704143 -17.060326 0
M  V30 6 C 13.417082 7.151665 -18.343611 0
M  V30 7 C 12.820337 5.878910 -18.482750 0
M  V30 8 C 12.467790 5.197093 -17.308035 0
M  V30 9 S 11.645254 3.640557 -17.181597 0
M  V30 10 O 10.301980 3.746262 -17.771002 0
M  V30 11 O 12.563848 2.547001 -17.529066 0
M  V30 12 N 11.533516 3.746523 -15.461608 0
M  V30 13 C 10.538568 2.960814 -14.711159 0
M  V30 14 C 9.135899 3.614775 -14.715548 0
M  V30 15 C 8.961308 4.861595 -13.824531 0
M  V30 16 C 8.952692 4.538414 -12.324353 0
M  V30 17 C 9.084704 5.779279 -11.424876 0
M  V30 18 C 8.845600 5.392136 -9.956200 0
M  V30 19 N 9.338187 6.367280 -8.945134 0 CHG=1
M  V30 20 C 8.765520 6.033073 -7.624511 0
M  V30 21 C 9.243776 6.981263 -6.504591 0
M  V30 22 N 10.697211 7.125924 -6.486312 0
M  V30 23 C 11.287052 7.554199 -5.269631 0
M  V30 24 C 11.510080 6.569900 -4.296388 0
M  V30 25 C 12.085196 6.835837 -3.041892 0
M  V30 26 C 12.452280 8.145426 -2.718552 0
M  V30 27 C 12.216458 9.160832 -3.654033 0
M  V30 28 C 11.624990 8.888200 -4.911611 0
M  V30 29 C 11.312673 10.085244 -5.767416 0
M  V30 30 F 10.485427 9.825893 -6.758060 0
M  V30 31 F 10.720819 10.975258 -4.989155 0
M  V30 32 F 12.437442 10.594441 -6.247961 0
M  V30 33 C 11.356077 7.352219 -7.773605 0
M  V30 34 C 10.819592 6.373418 -8.834982 0
M  V30 35 H 13.447953 7.418259 -14.913502 0
M  V30 36 H 14.089347 8.684022 -16.976122 0
M  V30 37 H 13.695992 7.713276 -19.222845 0
M  V30 38 H 12.627559 5.450406 -19.455458 0
M  V30 39 H 10.465361 1.981979 -15.187820 0
M  V30 40 H 10.893981 2.768312 -13.699139 0
M  V30 41 H 8.873861 3.877599 -15.737632 0
M  V30 42 H 8.400359 2.868673 -14.411195 0
M  V30 43 H 9.719630 5.607423 -14.050336 0
M  V30 44 H 8.016439 5.342591 -14.075534 0
M  V30 45 H 8.037618 3.992096 -12.085472 0
M  V30 46 H 9.773107 3.861810 -12.085137 0
M  V30 47 H 10.073977 6.207900 -11.578927 0
M  V30 48 H 8.365322 6.545730 -11.718192 0
M  V30 49 H 7.769948 5.259977 -9.835016 0
M  V30 50 H 9.295980 4.419191 -9.750471 0
M  V30 51 H 7.686221 6.049291 -7.663686 0
M  V30 52 H 9.040905 4.991680 -7.447412 0
M  V30 53 H 8.782357 7.961992 -6.630878 0
M  V30 54 H 8.887121 6.586795 -5.555583 0
M  V30 55 H 11.229375 5.558577 -4.519900 0
M  V30 56 H 12.236284 6.034134 -2.333727 0
M  V30 57 H 12.889571 8.376418 -1.758543 0
M  V30 58 H 12.475011 10.170053 -3.382220 0
M  V30 59 H 11.207263 8.354859 -8.160410 0
M  V30 60 H 12.432868 7.233504 -7.658444 0
M  V30 61 H 11.085700 5.370293 -8.517491 0
M  V30 62 H 11.291336 6.566357 -9.796028 0
M  V30 63 H 9.005233 7.287977 -9.199576 0
M  V30 END ATOM
M  V30 BEGIN BOND
M  V30 1 2 2 1
M  V30 2 1 3 2
M  V30 3 2 4 3
M  V30 4 1 5 4
M  V30 5 2 6 5
M  V30 6 1 7 6
M  V30 7 1 8 3
M  V30 8 2 8 7
M  V30 9 1 9 8
M  V30 10 2 10 9
M  V30 11 2 11 9
M  V30 12 1 12 2
M  V30 13 1 12 9
M  V30 14 1 13 12
M  V30 15 1 14 13
M  V30 16 1 15 14
M  V30 17 1 16 15
M  V30 18 1 17 16
M  V30 19 1 18 17
M  V30 20 1 19 18
M  V30 21 1 20 19
M  V30 22 1 21 20
M  V30 23 1 22 21
M  V30 24 1 23 22
M  V30 25 2 24 23
M  V30 26 1 25 24
M  V30 27 2 26 25
M  V30 28 1 27 26
M  V30 29 1 28 23
M  V30 30 2 28 27
M  V30 31 1 29 28
M  V30 32 1 30 29
M  V30 33 1 31 29
M  V30 34 1 32 29
M  V30 35 1 33 22
M  V30 36 1 34 19
M  V30 37 1 34 33
M  V30 38 1 35 4
M  V30 39 1 36 5
M  V30 40 1 37 6
M  V30 41 1 38 7
M  V30 42 1 39 13
M  V30 43 1 40 13
M  V30 44 1 41 14
M  V30 45 1 42 14
M  V30 46 1 43 15
M  V30 47 1 44 15
M  V30 48 1 45 16
M  V30 49 1 46 16
M  V30 50 1 47 17
M  V30 51 1 48 17
M  V30 52 1 49 18
M  V30 53 1 50 18
M  V30 54 1 51 20
M  V30 55 1 52 20
M  V30 56 1 53 21
M  V30 57 1 54 21
M  V30 58 1 55 24
M  V30 59 1 56 25
M  V30 60 1 57 26
M  V30 61 1 58 27
M  V30 62 1 59 33
M  V30 63 1 60 33
M  V30 64 1 61 34
M  V30 65 1 62 34
M  V30 66 1 63 19
M  V30 END BOND
M  V30 END CTAB
M  END
>  <b_m_subgroup_collapsed>  (950) 
0

>  <r_i_docking_score>  (950) 
-7.6661135377634499

>  <s_m_subgroup_title>  (950) 
glide-dock_SP_D22_pv

>  <s_m_subgroupid>  (950) 
glide-dock_SP_D22_pv

>  <Molecule ChEMBL ID>  (950) 
CHEMBL4462839

>  <Standard Type>  (950) 
Ki

>  <Standard Value>  (950) 
27.0

>  <label>  (950) 
1

$$$$
CHEMBL5403404
     RDKit          3D

  0  0  0  0  0  0  0  0  0  0999 V3000
M  V30 BEGIN CTAB
M  V30 COUNTS 67 70 0 0 1
M  V30 BEGIN ATOM
M  V30 1 C 10.373045 7.195996 -5.611160 0
M  V30 2 C 10.332930 6.827024 -7.092649 0
M  V30 3 C 8.936646 7.037638 -7.725211 0
M  V30 4 N 8.887160 6.782064 -9.188828 0 CHG=1
M  V30 5 C 9.128134 5.354418 -9.545671 0
M  V30 6 C 9.080894 5.114855 -11.062841 0
M  V30 7 N 9.925343 6.077172 -11.764714 0
M  V30 8 C 10.424979 5.771753 -13.047315 0
M  V30 9 C 11.550230 6.458410 -13.559784 0
M  V30 10 C 11.970331 6.249984 -14.887398 0
M  V30 11 C 11.294855 5.338407 -15.721776 0
M  V30 12 C 10.234939 4.571869 -15.185451 0
M  V30 13 C 9.808157 4.791579 -13.859074 0
M  V30 14 C 9.529451 3.503503 -16.008072 0 CFG=2
M  V30 15 N 9.892394 2.131054 -15.601763 0
M  V30 16 C 11.311830 1.830793 -15.442634 0
M  V30 17 C 8.994649 1.156704 -15.146907 0
M  V30 18 O 9.316966 0.014942 -14.820650 0
M  V30 19 O 7.737511 1.633804 -15.013207 0
M  V30 20 C 6.829370 0.991667 -14.121602 0
M  V30 21 C 5.735047 0.172238 -14.787477 0
M  V30 22 C 4.441835 0.168806 -14.221851 0
M  V30 23 C 3.421342 -0.627410 -14.774082 0
M  V30 24 C 3.682872 -1.416569 -15.909315 0
M  V30 25 C 4.969625 -1.414682 -16.483019 0
M  V30 26 C 5.994122 -0.626310 -15.920405 0
M  V30 27 C 9.657515 3.714693 -17.529249 0
M  V30 28 C 11.082226 4.069503 -17.970144 0
M  V30 29 C 11.685428 5.251490 -17.193188 0
M  V30 30 C 9.601339 7.471337 -11.484509 0
M  V30 31 C 9.706413 7.741014 -9.978011 0
M  V30 32 H 11.370658 7.054847 -5.196486 0
M  V30 33 H 10.087057 8.235021 -5.450780 0
M  V30 34 H 9.685290 6.572198 -5.045983 0
M  V30 35 H 10.646095 5.785412 -7.189726 0
M  V30 36 H 11.087590 7.429838 -7.597771 0
M  V30 37 H 8.597193 8.057818 -7.543546 0
M  V30 38 H 8.203738 6.397925 -7.228738 0
M  V30 39 H 8.398444 4.717490 -9.045059 0
M  V30 40 H 10.110005 5.044896 -9.194641 0
M  V30 41 H 8.057844 5.206576 -11.423347 0
M  V30 42 H 9.404092 4.096512 -11.273760 0
M  V30 43 H 12.071669 7.183503 -12.951810 0
M  V30 44 H 12.794991 6.827366 -15.274945 0
M  V30 45 H 8.965851 4.224154 -13.493746 0
M  V30 46 H 8.486030 3.671813 -15.780215 0
M  V30 47 H 11.526126 1.704432 -14.382063 0
M  V30 48 H 11.583070 0.915596 -15.968385 0
M  V30 49 H 11.969884 2.615575 -15.802219 0
M  V30 50 H 6.359118 1.767383 -13.520247 0
M  V30 51 H 7.344664 0.343107 -13.412642 0
M  V30 52 H 4.229041 0.771544 -13.351631 0
M  V30 53 H 2.433768 -0.627230 -14.336203 0
M  V30 54 H 2.888827 -2.017326 -16.330662 0
M  V30 55 H 5.171772 -2.029511 -17.350410 0
M  V30 56 H 6.984631 -0.655620 -16.353064 0
M  V30 57 H 9.284986 2.847502 -18.075014 0
M  V30 58 H 9.007791 4.538788 -17.815342 0
M  V30 59 H 11.108614 4.277391 -19.039400 0
M  V30 60 H 11.715665 3.194547 -17.837017 0
M  V30 61 H 11.356848 6.176868 -17.661209 0
M  V30 62 H 12.769189 5.234414 -17.284788 0
M  V30 63 H 10.248268 8.159883 -12.027061 0
M  V30 64 H 8.587010 7.673270 -11.829239 0
M  V30 65 H 9.388133 8.761108 -9.759907 0
M  V30 66 H 10.755358 7.663883 -9.698285 0
M  V30 67 H 7.926078 6.978790 -9.469230 0
M  V30 END ATOM
M  V30 BEGIN BOND
M  V30 1 1 2 1
M  V30 2 1 3 2
M  V30 3 1 4 3
M  V30 4 1 5 4
M  V30 5 1 6 5
M  V30 6 1 7 6
M  V30 7 1 8 7
M  V30 8 1 9 8
M  V30 9 2 10 9
M  V30 10 1 11 10
M  V30 11 2 12 11
M  V30 12 2 13 8
M  V30 13 1 13 12
M  V30 14 1 14 12
M  V30 15 1 15 14
M  V30 16 1 16 15
M  V30 17 1 17 15
M  V30 18 2 18 17
M  V30 19 1 19 17
M  V30 20 1 20 19
M  V30 21 1 21 20
M  V30 22 2 22 21
M  V30 23 1 23 22
M  V30 24 2 24 23
M  V30 25 1 25 24
M  V30 26 1 26 21
M  V30 27 2 26 25
M  V30 28 1 27 14
M  V30 29 1 28 27
M  V30 30 1 29 11
M  V30 31 1 29 28
M  V30 32 1 30 7
M  V30 33 1 31 4
M  V30 34 1 31 30
M  V30 35 1 32 1
M  V30 36 1 33 1
M  V30 37 1 34 1
M  V30 38 1 35 2
M  V30 39 1 36 2
M  V30 40 1 37 3
M  V30 41 1 38 3
M  V30 42 1 39 5
M  V30 43 1 40 5
M  V30 44 1 41 6
M  V30 45 1 42 6
M  V30 46 1 43 9
M  V30 47 1 44 10
M  V30 48 1 45 13
M  V30 49 1 14 46 CFG=1
M  V30 50 1 47 16
M  V30 51 1 48 16
M  V30 52 1 49 16
M  V30 53 1 50 20
M  V30 54 1 51 20
M  V30 55 1 52 22
M  V30 56 1 53 23
M  V30 57 1 54 24
M  V30 58 1 55 25
M  V30 59 1 56 26
M  V30 60 1 57 27
M  V30 61 1 58 27
M  V30 62 1 59 28
M  V30 63 1 60 28
M  V30 64 1 61 29
M  V30 65 1 62 29
M  V30 66 1 63 30
M  V30 67 1 64 30
M  V30 68 1 65 31
M  V30 69 1 66 31
M  V30 70 1 67 4
M  V30 END BOND
M  V30 END CTAB
M  END
>  <b_m_subgroup_collapsed>  (951) 
0

>  <r_i_docking_score>  (951) 
-7.6646130346415298

>  <s_m_subgroup_title>  (951) 
glide-dock_SP_D22_pv

>  <s_m_subgroupid>  (951) 
glide-dock_SP_D22_pv

>  <Molecule ChEMBL ID>  (951) 
CHEMBL5403404

>  <Standard Type>  (951) 
Ki

>  <Standard Value>  (951) 
10000.0

>  <label>  (951) 
0

$$$$
CHEMBL542877
     RDKit          3D

  0  0  0  0  0  0  0  0  0  0999 V3000
M  V30 BEGIN CTAB
M  V30 COUNTS 43 46 0 0 1
M  V30 BEGIN ATOM
M  V30 1 O 12.249575 7.773912 -8.246490 0
M  V30 2 C 11.082961 7.839740 -7.862131 0
M  V30 3 C 10.583410 7.999784 -6.509321 0
M  V30 4 C 11.285643 8.077147 -5.226084 0
M  V30 5 C 11.586702 6.893878 -4.522588 0
M  V30 6 C 12.111741 6.967698 -3.218055 0
M  V30 7 C 12.361138 8.220697 -2.627605 0
M  V30 8 C 12.086223 9.399289 -3.344524 0
M  V30 9 C 11.552173 9.334190 -4.645406 0
M  V30 10 C 9.261179 8.092127 -6.646889 0
M  V30 11 O 8.779837 8.032005 -7.916089 0
M  V30 12 C 9.862494 7.777794 -8.785549 0 CFG=1
M  V30 13 C 9.878681 8.808698 -9.920288 0
M  V30 14 C 9.961456 7.974504 -11.195839 0
M  V30 15 N 9.285788 6.706686 -10.866536 0 CFG=1 CHG=1
M  V30 16 C 9.549797 5.592522 -11.814714 0
M  V30 17 C 8.312632 4.943653 -12.406572 0
M  V30 18 C 7.027994 5.120201 -11.846848 0
M  V30 19 C 5.926507 4.415991 -12.365897 0
M  V30 20 C 6.098565 3.537901 -13.449866 0
M  V30 21 C 7.371700 3.369817 -14.022532 0
M  V30 22 C 8.474189 4.074497 -13.505887 0
M  V30 23 C 9.631934 6.412235 -9.457881 0
M  V30 24 H 11.372046 5.928590 -4.959097 0
M  V30 25 H 12.319391 6.059991 -2.669110 0
M  V30 26 H 12.764253 8.282174 -1.627709 0
M  V30 27 H 12.266891 10.358741 -2.882062 0
M  V30 28 H 11.314318 10.244913 -5.177433 0
M  V30 29 H 8.501251 8.182234 -5.888516 0
M  V30 30 H 8.944812 9.373086 -9.913713 0
M  V30 31 H 10.697427 9.526577 -9.846161 0
M  V30 32 H 9.494496 8.470775 -12.047143 0
M  V30 33 H 11.008657 7.783596 -11.441352 0
M  V30 34 H 10.184342 5.934091 -12.632936 0
M  V30 35 H 10.085990 4.785786 -11.319372 0
M  V30 36 H 6.866784 5.772185 -11.001376 0
M  V30 37 H 4.954782 4.541533 -11.914494 0
M  V30 38 H 5.259590 2.985882 -13.842257 0
M  V30 39 H 7.503621 2.694468 -14.854875 0
M  V30 40 H 9.452147 3.920674 -13.938925 0
M  V30 41 H 10.539622 5.806704 -9.406298 0
M  V30 42 H 8.830081 5.844035 -8.979997 0
M  V30 43 H 8.289680 6.912189 -10.877036 0
M  V30 END ATOM
M  V30 BEGIN BOND
M  V30 1 2 2 1
M  V30 2 1 3 2
M  V30 3 1 4 3
M  V30 4 2 5 4
M  V30 5 1 6 5
M  V30 6 2 7 6
M  V30 7 1 8 7
M  V30 8 1 9 4
M  V30 9 2 9 8
M  V30 10 2 10 3
M  V30 11 1 11 10
M  V30 12 1 12 2
M  V30 13 1 12 11 CFG=1
M  V30 14 1 13 12
M  V30 15 1 14 13
M  V30 16 1 15 14
M  V30 17 1 16 15
M  V30 18 1 17 16
M  V30 19 2 18 17
M  V30 20 1 19 18
M  V30 21 2 20 19
M  V30 22 1 21 20
M  V30 23 1 22 17
M  V30 24 2 22 21
M  V30 25 1 23 12
M  V30 26 1 23 15
M  V30 27 1 24 5
M  V30 28 1 25 6
M  V30 29 1 26 7
M  V30 30 1 27 8
M  V30 31 1 28 9
M  V30 32 1 29 10
M  V30 33 1 30 13
M  V30 34 1 31 13
M  V30 35 1 32 14
M  V30 36 1 33 14
M  V30 37 1 34 16
M  V30 38 1 35 16
M  V30 39 1 36 18
M  V30 40 1 37 19
M  V30 41 1 38 20
M  V30 42 1 39 21
M  V30 43 1 40 22
M  V30 44 1 41 23
M  V30 45 1 42 23
M  V30 46 1 15 43 CFG=1
M  V30 END BOND
M  V30 END CTAB
M  END
>  <b_m_subgroup_collapsed>  (952) 
0

>  <r_i_docking_score>  (952) 
-7.66395309788457

>  <s_m_subgroup_title>  (952) 
glide-dock_SP_D22_pv

>  <s_m_subgroupid>  (952) 
glide-dock_SP_D22_pv

>  <Molecule ChEMBL ID>  (952) 
CHEMBL542877

>  <Standard Type>  (952) 
Ki

>  <Standard Value>  (952) 
20000.0

>  <label>  (952) 
0

$$$$
CHEMBL432713
     RDKit          3D

  0  0  0  0  0  0  0  0  0  0999 V3000
M  V30 BEGIN CTAB
M  V30 COUNTS 66 69 0 0 1
M  V30 BEGIN ATOM
M  V30 1 O 9.467362 4.572351 -9.447931 0
M  V30 2 C 9.304749 5.784825 -9.596823 0
M  V30 3 C 9.604920 6.800552 -8.600881 0
M  V30 4 C 10.355881 6.469457 -7.533397 0
M  V30 5 C 10.801269 7.349588 -6.442893 0
M  V30 6 C 10.732988 8.759900 -6.491064 0
M  V30 7 C 11.165219 9.524788 -5.385932 0
M  V30 8 C 11.632512 8.877057 -4.221938 0
M  V30 9 Cl 12.085978 9.772305 -2.834812 0
M  V30 10 C 11.686240 7.477703 -4.161876 0
M  V30 11 Cl 12.190965 6.665345 -2.719781 0
M  V30 12 C 11.285924 6.732673 -5.275234 0
M  V30 13 N 8.888792 6.324687 -10.750508 0
M  V30 14 C 8.729987 5.609698 -12.013536 0
M  V30 15 C 10.086331 5.124097 -12.567288 0
M  V30 16 C 10.011460 4.563848 -13.992442 0
M  V30 17 C 11.337307 3.909148 -14.439425 0
M  V30 18 C 11.356359 3.521062 -15.923105 0
M  V30 19 N 10.260519 2.569372 -16.224951 0 CFG=2 CHG=1
M  V30 20 C 10.671986 1.142303 -16.223515 0
M  V30 21 C 9.434019 0.225240 -16.284389 0
M  V30 22 C 8.515378 0.572786 -17.477468 0 CFG=1
M  V30 23 C 7.228475 -0.208112 -17.498011 0
M  V30 24 C 6.760439 -0.916824 -18.576817 0
M  V30 25 N 5.530619 -1.466187 -18.266365 0
M  V30 26 C 5.163104 -1.139346 -16.979053 0
M  V30 27 C 4.022365 -1.451757 -16.220873 0
M  V30 28 C 3.919721 -0.992608 -14.897491 0
M  V30 29 C 4.963271 -0.227075 -14.345352 0
M  V30 30 O 4.886012 0.178194 -13.047040 0
M  V30 31 C 6.087265 0.113409 -15.125749 0
M  V30 32 C 6.227516 -0.343473 -16.460621 0
M  V30 33 C 8.217617 2.081203 -17.518684 0
M  V30 34 C 9.496669 2.919848 -17.444443 0
M  V30 35 H 9.229705 7.806160 -8.723624 0
M  V30 36 H 10.700153 5.448545 -7.448178 0
M  V30 37 H 10.358540 9.264042 -7.369519 0
M  V30 38 H 11.114440 10.603729 -5.421790 0
M  V30 39 H 11.336374 5.666599 -5.206251 0
M  V30 40 H 8.627816 7.302064 -10.739939 0
M  V30 41 H 8.257958 6.290639 -12.721847 0
M  V30 42 H 8.044638 4.771808 -11.878094 0
M  V30 43 H 10.484252 4.349366 -11.911308 0
M  V30 44 H 10.802261 5.946770 -12.548979 0
M  V30 45 H 9.745448 5.369927 -14.677317 0
M  V30 46 H 9.201721 3.836024 -14.041428 0
M  V30 47 H 11.535355 3.021031 -13.840637 0
M  V30 48 H 12.163097 4.596635 -14.248446 0
M  V30 49 H 12.321291 3.090417 -16.195606 0
M  V30 50 H 11.255253 4.430830 -16.517239 0
M  V30 51 H 11.240325 0.922283 -15.319046 0
M  V30 52 H 11.334358 0.947135 -17.068130 0
M  V30 53 H 8.898780 0.318040 -15.341462 0
M  V30 54 H 9.746781 -0.817953 -16.347239 0
M  V30 55 H 9.075760 0.332590 -18.382631 0
M  V30 56 H 7.201600 -1.067172 -19.552031 0
M  V30 57 H 4.989602 -2.029382 -18.907461 0
M  V30 58 H 3.244671 -2.072187 -16.642403 0
M  V30 59 H 3.050753 -1.244824 -14.306173 0
M  V30 60 H 5.619610 0.710162 -12.777211 0
M  V30 61 H 6.861704 0.721476 -14.688276 0
M  V30 62 H 7.685166 2.318140 -18.438000 0
M  V30 63 H 7.555661 2.351253 -16.694393 0
M  V30 64 H 9.222133 3.976091 -17.426844 0
M  V30 65 H 10.115052 2.765216 -18.330727 0
M  V30 66 H 9.610045 2.674820 -15.459304 0
M  V30 END ATOM
M  V30 BEGIN BOND
M  V30 1 2 2 1
M  V30 2 1 3 2
M  V30 3 2 4 3
M  V30 4 1 5 4
M  V30 5 1 6 5
M  V30 6 2 7 6
M  V30 7 1 8 7
M  V30 8 1 9 8
M  V30 9 2 10 8
M  V30 10 1 11 10
M  V30 11 2 12 5
M  V30 12 1 12 10
M  V30 13 1 13 2
M  V30 14 1 14 13
M  V30 15 1 15 14
M  V30 16 1 16 15
M  V30 17 1 17 16
M  V30 18 1 18 17
M  V30 19 1 19 18
M  V30 20 1 20 19
M  V30 21 1 21 20
M  V30 22 1 22 21
M  V30 23 1 23 22
M  V30 24 2 24 23
M  V30 25 1 25 24
M  V30 26 1 26 25
M  V30 27 1 27 26
M  V30 28 2 28 27
M  V30 29 1 29 28
M  V30 30 1 30 29
M  V30 31 2 31 29
M  V30 32 1 32 23
M  V30 33 2 32 26
M  V30 34 1 32 31
M  V30 35 1 33 22
M  V30 36 1 34 19
M  V30 37 1 34 33
M  V30 38 1 35 3
M  V30 39 1 36 4
M  V30 40 1 37 6
M  V30 41 1 38 7
M  V30 42 1 39 12
M  V30 43 1 40 13
M  V30 44 1 41 14
M  V30 45 1 42 14
M  V30 46 1 43 15
M  V30 47 1 44 15
M  V30 48 1 45 16
M  V30 49 1 46 16
M  V30 50 1 47 17
M  V30 51 1 48 17
M  V30 52 1 49 18
M  V30 53 1 50 18
M  V30 54 1 51 20
M  V30 55 1 52 20
M  V30 56 1 53 21
M  V30 57 1 54 21
M  V30 58 1 22 55 CFG=3
M  V30 59 1 56 24
M  V30 60 1 57 25
M  V30 61 1 58 27
M  V30 62 1 59 28
M  V30 63 1 60 30
M  V30 64 1 61 31
M  V30 65 1 62 33
M  V30 66 1 63 33
M  V30 67 1 64 34
M  V30 68 1 65 34
M  V30 69 1 19 66 CFG=1
M  V30 END BOND
M  V30 END CTAB
M  END
>  <b_m_subgroup_collapsed>  (953) 
0

>  <r_i_docking_score>  (953) 
-7.6621937027368103

>  <s_m_subgroup_title>  (953) 
glide-dock_SP_D22_pv

>  <s_m_subgroupid>  (953) 
glide-dock_SP_D22_pv

>  <Molecule ChEMBL ID>  (953) 
CHEMBL432713

>  <Standard Type>  (953) 
Ki

>  <Standard Value>  (953) 
15.85

>  <label>  (953) 
1

$$$$
CHEMBL122758
     RDKit          3D

  0  0  0  0  0  0  0  0  0  0999 V3000
M  V30 BEGIN CTAB
M  V30 COUNTS 52 55 0 0 1
M  V30 BEGIN ATOM
M  V30 1 O 6.769636 6.659714 -12.646052 0
M  V30 2 C 7.319476 5.603403 -11.875553 0 CFG=1
M  V30 3 C 6.600104 4.305161 -12.243476 0
M  V30 4 C 6.940405 3.847365 -13.651218 0
M  V30 5 C 8.422666 3.922907 -13.975236 0
M  V30 6 C 8.887207 3.137344 -15.051102 0
M  V30 7 C 10.241085 3.148412 -15.421865 0
M  V30 8 C 11.145974 3.948667 -14.708178 0
M  V30 9 C 10.692205 4.730189 -13.630756 0
M  V30 10 C 9.325719 4.744594 -13.241798 0
M  V30 11 C 8.881124 5.538518 -11.984831 0 CFG=1
M  V30 12 C 9.542855 6.954556 -11.907916 0
M  V30 13 C 9.485329 7.643137 -10.529818 0
M  V30 14 N 9.976037 6.779446 -9.425939 0 CFG=1 CHG=1
M  V30 15 C 9.949712 7.469274 -8.106711 0
M  V30 16 C 11.171540 7.087316 -7.245178 0
M  V30 17 C 11.285736 7.825172 -5.915035 0
M  V30 18 C 11.103393 9.224635 -5.840739 0
M  V30 19 C 11.285958 9.900072 -4.619263 0
M  V30 20 C 11.685934 9.193084 -3.469702 0
M  V30 21 C 11.878965 7.799881 -3.536305 0
M  V30 22 C 11.663363 7.118484 -4.750196 0
M  V30 23 C 9.300178 5.459139 -9.407912 0
M  V30 24 C 9.431985 4.757236 -10.775891 0
M  V30 25 H 6.484886 7.320234 -12.015501 0
M  V30 26 H 7.026513 5.784197 -10.848029 0
M  V30 27 H 6.880292 3.529842 -11.532681 0
M  V30 28 H 5.521142 4.419784 -12.133476 0
M  V30 29 H 6.576465 2.830592 -13.802861 0
M  V30 30 H 6.399631 4.478598 -14.351775 0
M  V30 31 H 8.195690 2.517891 -15.603232 0
M  V30 32 H 10.585419 2.540864 -16.245920 0
M  V30 33 H 12.191575 3.951436 -14.978188 0
M  V30 34 H 11.440206 5.289727 -13.094843 0
M  V30 35 H 10.600046 6.911376 -12.154671 0
M  V30 36 H 9.109529 7.623260 -12.646647 0
M  V30 37 H 10.099445 8.544224 -10.571631 0
M  V30 38 H 8.489199 7.987495 -10.307302 0
M  V30 39 H 9.961654 8.545488 -8.277964 0
M  V30 40 H 9.015295 7.260908 -7.581026 0
M  V30 41 H 11.163181 6.013684 -7.053034 0
M  V30 42 H 12.086146 7.292137 -7.801832 0
M  V30 43 H 10.842643 9.801084 -6.713964 0
M  V30 44 H 11.143476 10.970820 -4.568585 0
M  V30 45 H 11.841093 9.718472 -2.537364 0
M  V30 46 H 12.181293 7.252791 -2.656045 0
M  V30 47 H 11.815786 6.049375 -4.787367 0
M  V30 48 H 9.762658 4.830932 -8.645039 0
M  V30 49 H 8.257653 5.575001 -9.109798 0
M  V30 50 H 8.994454 3.772475 -10.770166 0
M  V30 51 H 10.478686 4.554571 -10.940657 0
M  V30 52 H 10.947286 6.603471 -9.636445 0
M  V30 END ATOM
M  V30 BEGIN BOND
M  V30 1 1 2 1
M  V30 2 1 3 2
M  V30 3 1 4 3
M  V30 4 1 5 4
M  V30 5 2 6 5
M  V30 6 1 7 6
M  V30 7 2 8 7
M  V30 8 1 9 8
M  V30 9 1 10 5
M  V30 10 2 10 9
M  V30 11 1 11 2
M  V30 12 1 11 10
M  V30 13 1 11 12 CFG=3
M  V30 14 1 13 12
M  V30 15 1 14 13
M  V30 16 1 15 14
M  V30 17 1 16 15
M  V30 18 1 17 16
M  V30 19 2 18 17
M  V30 20 1 19 18
M  V30 21 2 20 19
M  V30 22 1 21 20
M  V30 23 1 22 17
M  V30 24 2 22 21
M  V30 25 1 23 14
M  V30 26 1 24 11
M  V30 27 1 24 23
M  V30 28 1 25 1
M  V30 29 1 2 26 CFG=1
M  V30 30 1 27 3
M  V30 31 1 28 3
M  V30 32 1 29 4
M  V30 33 1 30 4
M  V30 34 1 31 6
M  V30 35 1 32 7
M  V30 36 1 33 8
M  V30 37 1 34 9
M  V30 38 1 35 12
M  V30 39 1 36 12
M  V30 40 1 37 13
M  V30 41 1 38 13
M  V30 42 1 39 15
M  V30 43 1 40 15
M  V30 44 1 41 16
M  V30 45 1 42 16
M  V30 46 1 43 18
M  V30 47 1 44 19
M  V30 48 1 45 20
M  V30 49 1 46 21
M  V30 50 1 47 22
M  V30 51 1 48 23
M  V30 52 1 49 23
M  V30 53 1 50 24
M  V30 54 1 51 24
M  V30 55 1 14 52 CFG=3
M  V30 END BOND
M  V30 END CTAB
M  END
>  <b_m_subgroup_collapsed>  (954) 
0

>  <r_i_docking_score>  (954) 
-7.66073192579685

>  <s_m_subgroup_title>  (954) 
glide-dock_SP_D22_pv

>  <s_m_subgroupid>  (954) 
glide-dock_SP_D22_pv

>  <Molecule ChEMBL ID>  (954) 
CHEMBL122758

>  <Standard Type>  (954) 
Ki

>  <Standard Value>  (954) 
10000.0

>  <label>  (954) 
0

$$$$
CHEMBL91669
     RDKit          3D

  0  0  0  0  0  0  0  0  0  0999 V3000
M  V30 BEGIN CTAB
M  V30 COUNTS 52 55 0 0 1
M  V30 BEGIN ATOM
M  V30 1 C 12.634839 4.744617 -15.241167 0
M  V30 2 N 11.451880 4.879656 -14.390286 0
M  V30 3 C 10.346148 4.034221 -14.413649 0
M  V30 4 C 10.181442 2.813246 -15.228945 0
M  V30 5 C 10.549471 2.786274 -16.593058 0
M  V30 6 C 10.380712 1.609233 -17.350765 0
M  V30 7 C 9.830349 0.458932 -16.755619 0
M  V30 8 C 9.433228 0.489532 -15.406406 0
M  V30 9 C 9.600835 1.664791 -14.647158 0
M  V30 10 C 9.555273 4.444322 -13.421370 0
M  V30 11 N 10.124088 5.541682 -12.794528 0
M  V30 12 C 9.504106 6.168417 -11.600193 0 CFG=1
M  V30 13 C 9.196450 5.109319 -10.513548 0
M  V30 14 C 8.620308 5.724356 -9.228234 0
M  V30 15 N 9.501760 6.774762 -8.668077 0 CFG=2 CHG=1
M  V30 16 C 9.007218 7.274626 -7.354957 0
M  V30 17 C 10.116115 7.852534 -6.485362 0
M  V30 18 C 10.510399 9.193268 -6.649806 0
M  V30 19 C 11.494942 9.765738 -5.818456 0
M  V30 20 C 12.083785 8.997159 -4.797304 0
M  V30 21 C 11.686004 7.656225 -4.619992 0
M  V30 22 C 10.722631 7.081804 -5.471619 0
M  V30 23 C 9.721311 7.853796 -9.668286 0
M  V30 24 C 10.338686 7.309472 -10.964932 0
M  V30 25 C 11.279866 5.825470 -13.446977 0
M  V30 26 O 12.055718 6.752286 -13.213928 0
M  V30 27 H 13.509807 5.207887 -14.782648 0
M  V30 28 H 12.883881 3.698512 -15.417686 0
M  V30 29 H 12.467645 5.233116 -16.200655 0
M  V30 30 H 10.957535 3.663768 -17.071955 0
M  V30 31 H 10.671248 1.592671 -18.390808 0
M  V30 32 H 9.702194 -0.442630 -17.336960 0
M  V30 33 H 8.997318 -0.389113 -14.955615 0
M  V30 34 H 9.286552 1.673872 -13.613096 0
M  V30 35 H 8.625715 4.031565 -13.063916 0
M  V30 36 H 8.554255 6.596183 -11.926836 0
M  V30 37 H 8.471502 4.384079 -10.884653 0
M  V30 38 H 10.089641 4.536574 -10.270172 0
M  V30 39 H 8.450752 4.935746 -8.494395 0
M  V30 40 H 7.656632 6.172097 -9.446286 0
M  V30 41 H 8.224317 8.021182 -7.496013 0
M  V30 42 H 8.540235 6.459326 -6.798367 0
M  V30 43 H 10.039117 9.772186 -7.422452 0
M  V30 44 H 11.788671 10.796523 -5.959717 0
M  V30 45 H 12.832286 9.432769 -4.150967 0
M  V30 46 H 12.131383 7.062913 -3.835202 0
M  V30 47 H 10.426786 6.059562 -5.309386 0
M  V30 48 H 10.396144 8.609789 -9.271837 0
M  V30 49 H 8.780258 8.360868 -9.886662 0
M  V30 50 H 11.349902 6.970312 -10.740295 0
M  V30 51 H 10.437439 8.132313 -11.674174 0
M  V30 52 H 10.395189 6.340031 -8.489715 0
M  V30 END ATOM
M  V30 BEGIN BOND
M  V30 1 1 2 1
M  V30 2 1 3 2
M  V30 3 1 4 3
M  V30 4 2 5 4
M  V30 5 1 6 5
M  V30 6 2 7 6
M  V30 7 1 8 7
M  V30 8 1 9 4
M  V30 9 2 9 8
M  V30 10 2 10 3
M  V30 11 1 11 10
M  V30 12 1 12 11
M  V30 13 1 13 12
M  V30 14 1 14 13
M  V30 15 1 15 14
M  V30 16 1 16 15
M  V30 17 1 17 16
M  V30 18 2 18 17
M  V30 19 1 19 18
M  V30 20 2 20 19
M  V30 21 1 21 20
M  V30 22 1 22 17
M  V30 23 2 22 21
M  V30 24 1 23 15
M  V30 25 1 24 12
M  V30 26 1 24 23
M  V30 27 1 25 2
M  V30 28 1 25 11
M  V30 29 2 26 25
M  V30 30 1 27 1
M  V30 31 1 28 1
M  V30 32 1 29 1
M  V30 33 1 30 5
M  V30 34 1 31 6
M  V30 35 1 32 7
M  V30 36 1 33 8
M  V30 37 1 34 9
M  V30 38 1 35 10
M  V30 39 1 12 36 CFG=3
M  V30 40 1 37 13
M  V30 41 1 38 13
M  V30 42 1 39 14
M  V30 43 1 40 14
M  V30 44 1 41 16
M  V30 45 1 42 16
M  V30 46 1 43 18
M  V30 47 1 44 19
M  V30 48 1 45 20
M  V30 49 1 46 21
M  V30 50 1 47 22
M  V30 51 1 48 23
M  V30 52 1 49 23
M  V30 53 1 50 24
M  V30 54 1 51 24
M  V30 55 1 15 52 CFG=1
M  V30 END BOND
M  V30 END CTAB
M  END
>  <b_m_subgroup_collapsed>  (955) 
0

>  <r_i_docking_score>  (955) 
-7.6598798022526697

>  <s_m_subgroup_title>  (955) 
glide-dock_SP_D22_pv

>  <s_m_subgroupid>  (955) 
glide-dock_SP_D22_pv

>  <Molecule ChEMBL ID>  (955) 
CHEMBL91669

>  <Standard Type>  (955) 
Ki

>  <Standard Value>  (955) 
11.0

>  <label>  (955) 
1

$$$$
CHEMBL5844516
     RDKit          3D

  0  0  0  0  0  0  0  0  0  0999 V3000
M  V30 BEGIN CTAB
M  V30 COUNTS 49 53 0 0 1
M  V30 BEGIN ATOM
M  V30 1 O 10.472692 4.409219 -13.439749 0
M  V30 2 C 9.278891 4.102580 -13.467973 0
M  V30 3 C 8.832574 2.886057 -14.244024 0
M  V30 4 C 9.760386 2.025832 -14.868362 0
M  V30 5 C 9.281227 0.880561 -15.532940 0
M  V30 6 C 7.893226 0.644640 -15.550467 0
M  V30 7 N 6.995968 1.462691 -14.961868 0
M  V30 8 C 7.460843 2.555106 -14.320991 0
M  V30 9 C 6.505622 3.410313 -13.619205 0
M  V30 10 C 6.949585 4.455614 -12.898249 0
M  V30 11 N 8.313227 4.794469 -12.799307 0
M  V30 12 C 8.670729 5.898814 -11.899912 0
M  V30 13 C 9.118103 5.343561 -10.533280 0
M  V30 14 N 9.286716 6.386915 -9.524734 0
M  V30 15 C 9.406787 5.749064 -8.211419 0
M  V30 16 C 9.529904 6.811311 -7.104579 0
M  V30 17 N 10.686646 7.667699 -7.350008 0
M  V30 18 C 10.979700 8.553065 -6.299140 0
M  V30 19 N 10.904404 9.878722 -6.390553 0
M  V30 20 O 11.284309 10.405048 -5.126760 0
M  V30 21 C 11.626469 9.370560 -4.271341 0
M  V30 22 C 12.076402 9.372756 -2.944078 0
M  V30 23 C 12.314456 8.129275 -2.326487 0
M  V30 24 C 12.114256 6.928536 -3.047411 0
M  V30 25 C 11.681577 6.954124 -4.393693 0
M  V30 26 C 11.422900 8.200237 -5.005495 0
M  V30 27 C 10.621476 8.277403 -8.677094 0
M  V30 28 C 10.483017 7.198428 -9.767546 0
M  V30 29 H 10.822031 2.222397 -14.829179 0
M  V30 30 H 9.960777 0.192760 -16.011457 0
M  V30 31 H 7.493171 -0.227284 -16.046619 0
M  V30 32 H 5.453641 3.172568 -13.680459 0
M  V30 33 H 6.282803 5.100044 -12.342821 0
M  V30 34 H 9.453448 6.508024 -12.350734 0
M  V30 35 H 7.822890 6.571625 -11.763994 0
M  V30 36 H 8.344923 4.655375 -10.188046 0
M  V30 37 H 10.037236 4.762114 -10.630188 0
M  V30 38 H 8.522358 5.140294 -8.019578 0
M  V30 39 H 10.268672 5.081488 -8.199066 0
M  V30 40 H 8.623281 7.419123 -7.069278 0
M  V30 41 H 9.612499 6.312995 -6.139187 0
M  V30 42 H 12.201371 10.298068 -2.404922 0
M  V30 43 H 12.643398 8.100235 -1.298713 0
M  V30 44 H 12.296352 5.977758 -2.566383 0
M  V30 45 H 11.543261 6.032525 -4.938833 0
M  V30 46 H 9.778930 8.968844 -8.728246 0
M  V30 47 H 11.525849 8.859455 -8.857324 0
M  V30 48 H 11.372759 6.572183 -9.786235 0
M  V30 49 H 10.414978 7.687509 -10.738543 0
M  V30 END ATOM
M  V30 BEGIN BOND
M  V30 1 2 2 1
M  V30 2 1 3 2
M  V30 3 2 4 3
M  V30 4 1 5 4
M  V30 5 2 6 5
M  V30 6 1 7 6
M  V30 7 1 8 3
M  V30 8 2 8 7
M  V30 9 1 9 8
M  V30 10 2 10 9
M  V30 11 1 11 2
M  V30 12 1 11 10
M  V30 13 1 12 11
M  V30 14 1 13 12
M  V30 15 1 14 13
M  V30 16 1 15 14
M  V30 17 1 16 15
M  V30 18 1 17 16
M  V30 19 1 18 17
M  V30 20 2 19 18
M  V30 21 1 20 19
M  V30 22 1 21 20
M  V30 23 2 22 21
M  V30 24 1 23 22
M  V30 25 2 24 23
M  V30 26 1 25 24
M  V30 27 1 26 18
M  V30 28 1 26 21
M  V30 29 2 26 25
M  V30 30 1 27 17
M  V30 31 1 28 14
M  V30 32 1 28 27
M  V30 33 1 29 4
M  V30 34 1 30 5
M  V30 35 1 31 6
M  V30 36 1 32 9
M  V30 37 1 33 10
M  V30 38 1 34 12
M  V30 39 1 35 12
M  V30 40 1 36 13
M  V30 41 1 37 13
M  V30 42 1 38 15
M  V30 43 1 39 15
M  V30 44 1 40 16
M  V30 45 1 41 16
M  V30 46 1 42 22
M  V30 47 1 43 23
M  V30 48 1 44 24
M  V30 49 1 45 25
M  V30 50 1 46 27
M  V30 51 1 47 27
M  V30 52 1 48 28
M  V30 53 1 49 28
M  V30 END BOND
M  V30 END CTAB
M  END
>  <b_m_subgroup_collapsed>  (956) 
0

>  <r_i_docking_score>  (956) 
-7.6573379588948596

>  <s_m_subgroup_title>  (956) 
glide-dock_SP_D22_pv

>  <s_m_subgroupid>  (956) 
glide-dock_SP_D22_pv

>  <Molecule ChEMBL ID>  (956) 
CHEMBL5844516

>  <Standard Type>  (956) 
Ki

>  <Standard Value>  (956) 
10000.0

>  <label>  (956) 
0

$$$$
CHEMBL5091335
     RDKit          3D

  0  0  0  0  0  0  0  0  0  0999 V3000
M  V30 BEGIN CTAB
M  V30 COUNTS 37 39 0 0 1
M  V30 BEGIN ATOM
M  V30 1 O 12.485984 6.543952 -2.642274 0
M  V30 2 C 12.044952 7.481333 -3.527524 0
M  V30 3 C 11.918489 8.814012 -3.109178 0
M  V30 4 C 11.427870 9.772127 -4.010073 0
M  V30 5 C 11.112313 9.420460 -5.333391 0
M  V30 6 C 11.219896 8.079666 -5.777554 0
M  V30 7 C 10.872265 7.707809 -7.245520 0 CFG=2
M  V30 8 C 10.615829 6.174496 -7.397046 0
M  V30 9 C 10.074880 5.676096 -8.749914 0
M  V30 10 C 9.037971 6.594018 -9.392929 0
M  V30 11 C 9.344407 8.095245 -9.215555 0 CFG=2
M  V30 12 N 10.456017 8.571426 -10.071270 0 CHG=1
M  V30 13 C 11.813885 8.141630 -9.667350 0
M  V30 14 C 12.045971 8.200425 -8.139987 0
M  V30 15 C 9.607574 8.454102 -7.745213 0 CFG=1
M  V30 16 O 8.486382 8.162094 -6.938667 0
M  V30 17 C 11.685694 7.115096 -4.840899 0
M  V30 18 H 12.299261 5.654657 -2.907533 0
M  V30 19 H 12.169645 9.097434 -2.096378 0
M  V30 20 H 11.286844 10.789044 -3.681755 0
M  V30 21 H 10.774272 10.207306 -5.988112 0
M  V30 22 H 11.521431 5.613377 -7.174875 0
M  V30 23 H 9.882634 5.882941 -6.645194 0
M  V30 24 H 10.885841 5.529509 -9.446276 0
M  V30 25 H 9.646104 4.680801 -8.626232 0
M  V30 26 H 8.901224 6.347052 -10.446055 0
M  V30 27 H 8.085269 6.377512 -8.917496 0
M  V30 28 H 8.485973 8.666631 -9.557355 0
M  V30 29 H 10.279006 8.286530 -11.022104 0
M  V30 30 H 12.021052 7.150343 -10.059289 0
M  V30 31 H 12.530551 8.788637 -10.169827 0
M  V30 32 H 12.255731 9.241736 -7.889824 0
M  V30 33 H 12.954401 7.658085 -7.892959 0
M  V30 34 H 9.745108 9.532219 -7.699564 0
M  V30 35 H 7.778088 7.771517 -7.447269 0
M  V30 36 H 11.797386 6.078273 -5.112153 0
M  V30 37 H 10.440388 9.580473 -10.040655 0
M  V30 END ATOM
M  V30 BEGIN BOND
M  V30 1 1 2 1
M  V30 2 1 3 2
M  V30 3 2 4 3
M  V30 4 1 5 4
M  V30 5 2 6 5
M  V30 6 1 7 6 CFG=1
M  V30 7 1 8 7
M  V30 8 1 9 8
M  V30 9 1 10 9
M  V30 10 1 11 10
M  V30 11 1 12 11
M  V30 12 1 13 12
M  V30 13 1 14 7
M  V30 14 1 14 13
M  V30 15 1 15 7
M  V30 16 1 15 11
M  V30 17 1 16 15
M  V30 18 2 17 2
M  V30 19 1 17 6
M  V30 20 1 18 1
M  V30 21 1 19 3
M  V30 22 1 20 4
M  V30 23 1 21 5
M  V30 24 1 22 8
M  V30 25 1 23 8
M  V30 26 1 24 9
M  V30 27 1 25 9
M  V30 28 1 26 10
M  V30 29 1 27 10
M  V30 30 1 11 28 CFG=3
M  V30 31 1 29 12
M  V30 32 1 30 13
M  V30 33 1 31 13
M  V30 34 1 32 14
M  V30 35 1 33 14
M  V30 36 1 15 34 CFG=3
M  V30 37 1 35 16
M  V30 38 1 36 17
M  V30 39 1 37 12
M  V30 END BOND
M  V30 END CTAB
M  END
>  <b_m_subgroup_collapsed>  (957) 
0

>  <r_i_docking_score>  (957) 
-7.6565840352324903

>  <s_m_subgroup_title>  (957) 
glide-dock_SP_D22_pv

>  <s_m_subgroupid>  (957) 
glide-dock_SP_D22_pv

>  <Molecule ChEMBL ID>  (957) 
CHEMBL5091335

>  <Standard Type>  (957) 
Ki

>  <Standard Value>  (957) 
100000.0

>  <label>  (957) 
0

$$$$
CHEMBL3286575
     RDKit          3D

  0  0  0  0  0  0  0  0  0  0999 V3000
M  V30 BEGIN CTAB
M  V30 COUNTS 51 55 0 0 1
M  V30 BEGIN ATOM
M  V30 1 C 12.456988 6.769758 -14.247250 0
M  V30 2 C 12.231753 7.372309 -12.994696 0
M  V30 3 C 11.152835 6.972440 -12.165867 0
M  V30 4 C 10.345129 5.933050 -12.665356 0
M  V30 5 C 9.228438 5.280202 -12.118166 0
M  V30 6 C 8.758498 4.313902 -12.966944 0
M  V30 7 N 9.614211 4.348545 -14.058504 0
M  V30 8 C 10.565381 5.316299 -13.885550 0
M  V30 9 C 11.617517 5.727695 -14.679790 0
M  V30 10 C 8.865701 5.885536 -10.788666 0
M  V30 11 C 10.036654 6.577298 -10.028128 0 CFG=2
M  V30 12 C 9.532015 7.327625 -8.774503 0
M  V30 13 N 10.658122 7.951751 -8.031972 0 CFG=2 CHG=1
M  V30 14 C 10.231124 8.609911 -6.767977 0
M  V30 15 C 11.334113 8.632708 -5.678088 0
M  V30 16 C 11.105588 9.785320 -4.674076 0
M  V30 17 C 12.086116 9.758821 -3.489194 0
M  V30 18 C 12.079468 8.419023 -2.749833 0
M  V30 19 C 12.378827 7.279505 -3.723750 0
M  V30 20 C 11.454062 7.265772 -4.957572 0
M  V30 21 C 11.429378 8.868327 -8.909575 0
M  V30 22 C 11.941125 8.171632 -10.178045 0
M  V30 23 N 10.867331 7.464276 -10.871048 0
M  V30 24 H 13.285701 7.091742 -14.860935 0
M  V30 25 H 12.913019 8.150048 -12.688805 0
M  V30 26 H 7.920333 3.636523 -12.892817 0
M  V30 27 H 9.542113 3.742362 -14.862336 0
M  V30 28 H 11.794459 5.255381 -15.634601 0
M  V30 29 H 8.412149 5.129006 -10.147223 0
M  V30 30 H 8.086343 6.621919 -10.965584 0
M  V30 31 H 10.694801 5.777188 -9.687787 0
M  V30 32 H 9.001014 6.631494 -8.122871 0
M  V30 33 H 8.815094 8.098907 -9.059893 0
M  V30 34 H 9.923587 9.627296 -7.006559 0
M  V30 35 H 9.341350 8.123409 -6.362123 0
M  V30 36 H 12.295369 8.847973 -6.144472 0
M  V30 37 H 11.214845 10.738105 -5.194031 0
M  V30 38 H 10.086051 9.790665 -4.297254 0
M  V30 39 H 13.096691 9.943590 -3.854591 0
M  V30 40 H 11.855131 10.568935 -2.795110 0
M  V30 41 H 12.826022 8.434612 -1.954884 0
M  V30 42 H 11.122468 8.252974 -2.257259 0
M  V30 43 H 13.411386 7.374583 -4.044314 0
M  V30 44 H 12.312062 6.321014 -3.206922 0
M  V30 45 H 10.480037 6.916358 -4.647260 0
M  V30 46 H 11.809088 6.509670 -5.658649 0
M  V30 47 H 12.276689 9.283873 -8.367598 0
M  V30 48 H 10.799321 9.711525 -9.198143 0
M  V30 49 H 12.730988 7.463315 -9.927931 0
M  V30 50 H 12.381758 8.934367 -10.818404 0
M  V30 51 H 11.269862 7.191998 -7.774745 0
M  V30 END ATOM
M  V30 BEGIN BOND
M  V30 1 2 2 1
M  V30 2 1 3 2
M  V30 3 2 4 3
M  V30 4 1 5 4
M  V30 5 2 6 5
M  V30 6 1 7 6
M  V30 7 1 8 4
M  V30 8 1 8 7
M  V30 9 1 9 1
M  V30 10 2 9 8
M  V30 11 1 10 5
M  V30 12 1 11 10
M  V30 13 1 12 11
M  V30 14 1 13 12
M  V30 15 1 14 13
M  V30 16 1 15 14
M  V30 17 1 16 15
M  V30 18 1 17 16
M  V30 19 1 18 17
M  V30 20 1 19 18
M  V30 21 1 20 15
M  V30 22 1 20 19
M  V30 23 1 21 13
M  V30 24 1 22 21
M  V30 25 1 23 3
M  V30 26 1 23 11
M  V30 27 1 23 22
M  V30 28 1 24 1
M  V30 29 1 25 2
M  V30 30 1 26 6
M  V30 31 1 27 7
M  V30 32 1 28 9
M  V30 33 1 29 10
M  V30 34 1 30 10
M  V30 35 1 11 31 CFG=1
M  V30 36 1 32 12
M  V30 37 1 33 12
M  V30 38 1 34 14
M  V30 39 1 35 14
M  V30 40 1 36 15
M  V30 41 1 37 16
M  V30 42 1 38 16
M  V30 43 1 39 17
M  V30 44 1 40 17
M  V30 45 1 41 18
M  V30 46 1 42 18
M  V30 47 1 43 19
M  V30 48 1 44 19
M  V30 49 1 45 20
M  V30 50 1 46 20
M  V30 51 1 47 21
M  V30 52 1 48 21
M  V30 53 1 49 22
M  V30 54 1 50 22
M  V30 55 1 13 51 CFG=1
M  V30 END BOND
M  V30 END CTAB
M  END
>  <b_m_subgroup_collapsed>  (958) 
0

>  <r_i_docking_score>  (958) 
-7.6564318174955401

>  <s_m_subgroup_title>  (958) 
glide-dock_SP_D22_pv

>  <s_m_subgroupid>  (958) 
glide-dock_SP_D22_pv

>  <Molecule ChEMBL ID>  (958) 
CHEMBL3286575

>  <Standard Type>  (958) 
Ki

>  <Standard Value>  (958) 
53.7

>  <label>  (958) 
1

$$$$
CHEMBL231349
     RDKit          3D

  0  0  0  0  0  0  0  0  0  0999 V3000
M  V30 BEGIN CTAB
M  V30 COUNTS 63 66 0 0 1
M  V30 BEGIN ATOM
M  V30 1 C 10.435578 -0.136045 -15.235664 0
M  V30 2 C 9.246651 0.832424 -15.167683 0
M  V30 3 C 8.637285 1.225371 -16.524311 0
M  V30 4 O 9.468575 1.939466 -14.293925 0
M  V30 5 C 10.374352 2.951108 -14.556665 0
M  V30 6 C 11.269545 2.994971 -15.652724 0
M  V30 7 C 12.124945 4.100449 -15.850660 0
M  V30 8 C 12.083194 5.184132 -14.947239 0
M  V30 9 C 11.209647 5.139885 -13.844861 0
M  V30 10 C 10.367542 4.031094 -13.649663 0
M  V30 11 N 9.499742 3.980727 -12.560698 0
M  V30 12 S 8.332363 5.163356 -12.087111 0
M  V30 13 O 7.139948 4.380498 -11.733383 0
M  V30 14 O 8.289777 6.157215 -13.168530 0
M  V30 15 C 9.052135 5.902558 -10.623325 0
M  V30 16 C 8.884780 5.265996 -9.383225 0
M  V30 17 C 9.417771 5.855773 -8.224057 0
M  V30 18 C 10.138444 7.071348 -8.276116 0
M  V30 19 C 10.674512 7.663306 -7.030977 0
M  V30 20 C 11.212672 6.835024 -6.020938 0
M  V30 21 C 11.659426 7.361165 -4.795700 0
M  V30 22 C 11.595291 8.744498 -4.570262 0
M  V30 23 Cl 12.086783 9.373181 -3.046567 0
M  V30 24 C 11.096649 9.596609 -5.573389 0
M  V30 25 C 10.637085 9.055514 -6.792336 0
M  V30 26 C 10.309174 7.690794 -9.537554 0
M  V30 27 C 9.769774 7.113077 -10.707668 0
M  V30 28 C 12.890022 6.441227 -15.192233 0
M  V30 29 C 12.458170 7.107008 -16.504753 0
M  V30 30 N 13.157593 6.563309 -17.694181 0 CFG=2 CHG=1
M  V30 31 C 13.083579 7.506907 -18.835415 0
M  V30 32 C 12.731544 5.194304 -18.090246 0
M  V30 33 C 13.062523 4.109855 -17.047993 0
M  V30 34 H 10.099542 -1.124585 -15.553241 0
M  V30 35 H 11.218067 0.171324 -15.924692 0
M  V30 36 H 10.884882 -0.227802 -14.248313 0
M  V30 37 H 8.462896 0.277310 -14.650316 0
M  V30 38 H 8.344155 0.337104 -17.083736 0
M  V30 39 H 7.742005 1.830697 -16.380671 0
M  V30 40 H 9.318868 1.793121 -17.153233 0
M  V30 41 H 11.309848 2.197991 -16.372126 0
M  V30 42 H 11.166548 5.967055 -13.152136 0
M  V30 43 H 9.157616 3.039277 -12.423624 0
M  V30 44 H 8.321247 4.346935 -9.315416 0
M  V30 45 H 9.246963 5.373874 -7.275454 0
M  V30 46 H 11.277700 5.772319 -6.178286 0
M  V30 47 H 12.043089 6.701139 -4.031684 0
M  V30 48 H 11.041160 10.661149 -5.400977 0
M  V30 49 H 10.224701 9.719238 -7.536308 0
M  V30 50 H 10.853405 8.620788 -9.613603 0
M  V30 51 H 9.894423 7.604908 -11.660975 0
M  V30 52 H 12.722605 7.136329 -14.368094 0
M  V30 53 H 13.958138 6.218233 -15.183801 0
M  V30 54 H 12.661822 8.176367 -16.426973 0
M  V30 55 H 11.380505 6.981341 -16.635611 0
M  V30 56 H 12.053100 7.637480 -19.169060 0
M  V30 57 H 13.475646 8.487288 -18.561819 0
M  V30 58 H 13.672610 7.147980 -19.680149 0
M  V30 59 H 13.260836 4.936010 -19.008894 0
M  V30 60 H 11.667818 5.178006 -18.335987 0
M  V30 61 H 14.089130 4.215904 -16.696871 0
M  V30 62 H 13.022278 3.133904 -17.533651 0
M  V30 63 H 14.135995 6.504889 -17.448990 0
M  V30 END ATOM
M  V30 BEGIN BOND
M  V30 1 1 2 1
M  V30 2 1 3 2
M  V30 3 1 4 2
M  V30 4 1 5 4
M  V30 5 1 6 5
M  V30 6 2 7 6
M  V30 7 1 8 7
M  V30 8 2 9 8
M  V30 9 2 10 5
M  V30 10 1 10 9
M  V30 11 1 11 10
M  V30 12 1 12 11
M  V30 13 2 13 12
M  V30 14 2 14 12
M  V30 15 1 15 12
M  V30 16 1 16 15
M  V30 17 2 17 16
M  V30 18 1 18 17
M  V30 19 1 19 18
M  V30 20 1 20 19
M  V30 21 2 21 20
M  V30 22 1 22 21
M  V30 23 1 23 22
M  V30 24 2 24 22
M  V30 25 2 25 19
M  V30 26 1 25 24
M  V30 27 2 26 18
M  V30 28 2 27 15
M  V30 29 1 27 26
M  V30 30 1 28 8
M  V30 31 1 29 28
M  V30 32 1 30 29
M  V30 33 1 31 30
M  V30 34 1 32 30
M  V30 35 1 33 7
M  V30 36 1 33 32
M  V30 37 1 34 1
M  V30 38 1 35 1
M  V30 39 1 36 1
M  V30 40 1 37 2
M  V30 41 1 38 3
M  V30 42 1 39 3
M  V30 43 1 40 3
M  V30 44 1 41 6
M  V30 45 1 42 9
M  V30 46 1 43 11
M  V30 47 1 44 16
M  V30 48 1 45 17
M  V30 49 1 46 20
M  V30 50 1 47 21
M  V30 51 1 48 24
M  V30 52 1 49 25
M  V30 53 1 50 26
M  V30 54 1 51 27
M  V30 55 1 52 28
M  V30 56 1 53 28
M  V30 57 1 54 29
M  V30 58 1 55 29
M  V30 59 1 56 31
M  V30 60 1 57 31
M  V30 61 1 58 31
M  V30 62 1 59 32
M  V30 63 1 60 32
M  V30 64 1 61 33
M  V30 65 1 62 33
M  V30 66 1 30 63 CFG=1
M  V30 END BOND
M  V30 END CTAB
M  END
>  <b_m_subgroup_collapsed>  (959) 
0

>  <r_i_docking_score>  (959) 
-7.6560823640799898

>  <s_m_subgroup_title>  (959) 
glide-dock_SP_D22_pv

>  <s_m_subgroupid>  (959) 
glide-dock_SP_D22_pv

>  <Molecule ChEMBL ID>  (959) 
CHEMBL231349

>  <Standard Type>  (959) 
Ki

>  <Standard Value>  (959) 
6.31

>  <label>  (959) 
1

$$$$
CHEMBL219179
     RDKit          3D

  0  0  0  0  0  0  0  0  0  0999 V3000
M  V30 BEGIN CTAB
M  V30 COUNTS 42 45 0 0 1
M  V30 BEGIN ATOM
M  V30 1 O 12.488681 8.218473 -1.973455 0 CHG=-1
M  V30 2 C 11.985458 8.189776 -3.239536 0
M  V30 3 C 11.644838 9.379519 -3.905476 0
M  V30 4 C 11.179855 9.321153 -5.236522 0
M  V30 5 C 11.008197 8.063538 -5.860728 0
M  V30 6 N 10.578539 7.961899 -7.196493 0
M  V30 7 C 9.977106 6.713789 -7.650937 0
M  V30 8 C 9.288993 6.935180 -9.013318 0
M  V30 9 N 10.250640 7.412395 -10.018414 0
M  V30 10 C 9.581932 7.673557 -11.299829 0
M  V30 11 C 8.987539 6.470967 -11.969790 0
M  V30 12 N 9.661109 5.652611 -12.779985 0
M  V30 13 C 8.688589 4.737061 -13.156063 0
M  V30 14 C 8.757149 3.626342 -14.027581 0
M  V30 15 C 7.621088 2.815394 -14.240425 0
M  V30 16 C 6.410261 3.094321 -13.568857 0
M  V30 17 C 6.309952 4.211412 -12.718630 0
M  V30 18 C 7.439497 5.022675 -12.530992 0
M  V30 19 N 7.685870 6.171824 -11.807124 0
M  V30 20 C 10.817200 8.679030 -9.540397 0
M  V30 21 C 11.515391 8.491707 -8.179711 0
M  V30 22 N 11.287110 6.943329 -5.152040 0 CHG=1
M  V30 23 C 11.776278 6.964728 -3.891479 0
M  V30 24 H 11.151175 6.032579 -5.591563 0
M  V30 25 H 11.714295 10.320457 -3.384119 0
M  V30 26 H 10.934164 10.232736 -5.760327 0
M  V30 27 H 10.746592 5.943941 -7.734581 0
M  V30 28 H 9.242867 6.369670 -6.920748 0
M  V30 29 H 8.832700 5.999627 -9.337805 0
M  V30 30 H 8.486048 7.662657 -8.901477 0
M  V30 31 H 8.794450 8.416788 -11.164142 0
M  V30 32 H 10.295464 8.107365 -12.003607 0
M  V30 33 H 9.689536 3.395712 -14.520060 0
M  V30 34 H 7.685862 1.960520 -14.898268 0
M  V30 35 H 5.555540 2.451203 -13.715054 0
M  V30 36 H 5.389732 4.444610 -12.205878 0
M  V30 37 H 7.053652 6.726084 -11.208593 0
M  V30 38 H 11.537283 9.058493 -10.266344 0
M  V30 39 H 10.031695 9.430814 -9.451409 0
M  V30 40 H 11.924807 9.439633 -7.838895 0
M  V30 41 H 12.359493 7.807532 -8.279977 0
M  V30 42 H 11.993526 6.011985 -3.434094 0
M  V30 END ATOM
M  V30 BEGIN BOND
M  V30 1 1 2 1
M  V30 2 1 3 2
M  V30 3 2 4 3
M  V30 4 1 5 4
M  V30 5 1 6 5
M  V30 6 1 7 6
M  V30 7 1 8 7
M  V30 8 1 9 8
M  V30 9 1 10 9
M  V30 10 1 11 10
M  V30 11 2 12 11
M  V30 12 1 13 12
M  V30 13 2 14 13
M  V30 14 1 15 14
M  V30 15 2 16 15
M  V30 16 1 17 16
M  V30 17 1 18 13
M  V30 18 2 18 17
M  V30 19 1 19 11
M  V30 20 1 19 18
M  V30 21 1 20 9
M  V30 22 1 21 6
M  V30 23 1 21 20
M  V30 24 2 22 5
M  V30 25 2 23 2
M  V30 26 1 23 22
M  V30 27 1 24 22
M  V30 28 1 25 3
M  V30 29 1 26 4
M  V30 30 1 27 7
M  V30 31 1 28 7
M  V30 32 1 29 8
M  V30 33 1 30 8
M  V30 34 1 31 10
M  V30 35 1 32 10
M  V30 36 1 33 14
M  V30 37 1 34 15
M  V30 38 1 35 16
M  V30 39 1 36 17
M  V30 40 1 37 19
M  V30 41 1 38 20
M  V30 42 1 39 20
M  V30 43 1 40 21
M  V30 44 1 41 21
M  V30 45 1 42 23
M  V30 END BOND
M  V30 END CTAB
M  END
>  <b_m_subgroup_collapsed>  (960) 
0

>  <r_i_docking_score>  (960) 
-7.6549942629655403

>  <s_m_subgroup_title>  (960) 
glide-dock_SP_D22_pv

>  <s_m_subgroupid>  (960) 
glide-dock_SP_D22_pv

>  <Molecule ChEMBL ID>  (960) 
CHEMBL219179

>  <Standard Type>  (960) 
Ki

>  <Standard Value>  (960) 
10000.0

>  <label>  (960) 
0

$$$$
CHEMBL4483472
     RDKit          3D

  0  0  0  0  0  0  0  0  0  0999 V3000
M  V30 BEGIN CTAB
M  V30 COUNTS 50 52 0 0 1
M  V30 BEGIN ATOM
M  V30 1 C 9.459038 4.093111 -13.572890 0
M  V30 2 C 8.434357 5.195867 -13.269218 0
M  V30 3 C 7.712232 5.039890 -11.916082 0
M  V30 4 C 8.613067 5.046741 -10.663719 0
M  V30 5 N 8.886031 6.399309 -10.117319 0 CFG=2 CHG=1
M  V30 6 C 9.774631 7.265025 -10.926429 0
M  V30 7 C 10.754084 7.946647 -9.959086 0
M  V30 8 C 10.210621 7.665586 -8.555425 0 CFG=2
M  V30 9 C 9.287368 8.760413 -7.993173 0
M  V30 10 C 9.310203 8.481423 -6.489081 0
M  V30 11 N 10.571571 7.805856 -6.225542 0
M  V30 12 C 11.276053 8.005012 -5.024774 0
M  V30 13 C 11.686034 6.854216 -4.320557 0
M  V30 14 C 12.273830 6.955240 -3.045442 0
M  V30 15 C 12.468592 8.216491 -2.459397 0
M  V30 16 C 12.081899 9.372464 -3.157186 0
M  V30 17 C 11.495094 9.282462 -4.436268 0
M  V30 18 O 11.140121 10.457737 -5.046284 0
M  V30 19 C 11.915365 10.764918 -6.191379 0
M  V30 20 C 11.285783 7.551047 -7.461033 0
M  V30 21 C 9.443558 6.350698 -8.752010 0
M  V30 22 H 9.831601 4.186401 -14.593053 0
M  V30 23 H 10.322609 4.143527 -12.910460 0
M  V30 24 H 9.016054 3.101506 -13.474981 0
M  V30 25 H 7.684808 5.176746 -14.058456 0
M  V30 26 H 8.906572 6.172242 -13.346670 0
M  V30 27 H 7.176280 4.090003 -11.938270 0
M  V30 28 H 6.936748 5.801540 -11.816617 0
M  V30 29 H 9.542276 4.499867 -10.823435 0
M  V30 30 H 8.085341 4.498178 -9.882679 0
M  V30 31 H 9.165306 7.997664 -11.456885 0
M  V30 32 H 10.335847 6.692929 -11.665754 0
M  V30 33 H 10.874367 9.010943 -10.164963 0
M  V30 34 H 11.737224 7.486905 -10.070116 0
M  V30 35 H 8.278137 8.731121 -8.398514 0
M  V30 36 H 9.669884 9.761165 -8.195630 0
M  V30 37 H 8.494554 7.800542 -6.245104 0
M  V30 38 H 9.183429 9.372149 -5.885226 0
M  V30 39 H 11.511549 5.875307 -4.743727 0
M  V30 40 H 12.559646 6.059608 -2.513036 0
M  V30 41 H 12.903788 8.301198 -1.474821 0
M  V30 42 H 12.224670 10.340764 -2.700960 0
M  V30 43 H 12.085963 11.838007 -6.247621 0
M  V30 44 H 12.885969 10.270085 -6.186073 0
M  V30 45 H 11.388430 10.468918 -7.088626 0
M  V30 46 H 12.068206 8.298110 -7.597191 0
M  V30 47 H 11.760673 6.570473 -7.445682 0
M  V30 48 H 10.135604 5.509318 -8.678576 0
M  V30 49 H 8.657943 6.189210 -8.011860 0
M  V30 50 H 7.988790 6.886171 -10.049942 0
M  V30 END ATOM
M  V30 BEGIN BOND
M  V30 1 1 2 1
M  V30 2 1 3 2
M  V30 3 1 4 3
M  V30 4 1 5 4
M  V30 5 1 6 5
M  V30 6 1 7 6
M  V30 7 1 8 7 CFG=3
M  V30 8 1 9 8
M  V30 9 1 10 9
M  V30 10 1 11 10
M  V30 11 1 12 11
M  V30 12 2 13 12
M  V30 13 1 14 13
M  V30 14 2 15 14
M  V30 15 1 16 15
M  V30 16 1 17 12
M  V30 17 2 17 16
M  V30 18 1 18 17
M  V30 19 1 19 18
M  V30 20 1 20 8
M  V30 21 1 20 11
M  V30 22 1 21 5
M  V30 23 1 21 8
M  V30 24 1 22 1
M  V30 25 1 23 1
M  V30 26 1 24 1
M  V30 27 1 25 2
M  V30 28 1 26 2
M  V30 29 1 27 3
M  V30 30 1 28 3
M  V30 31 1 29 4
M  V30 32 1 30 4
M  V30 33 1 31 6
M  V30 34 1 32 6
M  V30 35 1 33 7
M  V30 36 1 34 7
M  V30 37 1 35 9
M  V30 38 1 36 9
M  V30 39 1 37 10
M  V30 40 1 38 10
M  V30 41 1 39 13
M  V30 42 1 40 14
M  V30 43 1 41 15
M  V30 44 1 42 16
M  V30 45 1 43 19
M  V30 46 1 44 19
M  V30 47 1 45 19
M  V30 48 1 46 20
M  V30 49 1 47 20
M  V30 50 1 48 21
M  V30 51 1 49 21
M  V30 52 1 5 50 CFG=1
M  V30 END BOND
M  V30 END CTAB
M  END
>  <b_m_subgroup_collapsed>  (961) 
0

>  <r_i_docking_score>  (961) 
-7.6546608537334802

>  <s_m_subgroup_title>  (961) 
glide-dock_SP_D22_pv

>  <s_m_subgroupid>  (961) 
glide-dock_SP_D22_pv

>  <Molecule ChEMBL ID>  (961) 
CHEMBL4483472

>  <Standard Type>  (961) 
Ki

>  <Standard Value>  (961) 
26050.0

>  <label>  (961) 
0

$$$$
CHEMBL4288077
     RDKit          3D

  0  0  0  0  0  0  0  0  0  0999 V3000
M  V30 BEGIN CTAB
M  V30 COUNTS 62 65 0 0 1
M  V30 BEGIN ATOM
M  V30 1 C 6.609189 -0.541581 -13.140885 0
M  V30 2 C 6.578336 0.475731 -14.292223 0 CFG=2
M  V30 3 C 5.738628 -0.021926 -15.482552 0
M  V30 4 C 6.166578 0.175506 -16.820810 0
M  V30 5 C 5.410662 -0.318768 -17.901184 0
M  V30 6 C 4.222698 -1.032846 -17.662964 0
M  V30 7 F 3.503646 -1.519394 -18.702061 0
M  V30 8 C 3.786596 -1.236581 -16.342667 0
M  V30 9 C 4.527022 -0.719923 -15.262985 0
M  V30 10 N 7.927372 0.870817 -14.661385 0
M  V30 11 C 8.129169 2.190033 -14.567542 0
M  V30 12 O 9.162751 2.772282 -14.889144 0
M  V30 13 N 7.025119 2.755293 -14.049091 0
M  V30 14 C 6.856076 4.201264 -13.841296 0
M  V30 15 C 6.968048 4.684729 -12.372247 0 CFG=2
M  V30 16 O 6.076382 5.772736 -12.258204 0
M  V30 17 C 8.378730 5.209354 -12.011948 0
M  V30 18 N 8.447146 5.772637 -10.636034 0 CHG=1
M  V30 19 C 8.530792 4.733535 -9.588022 0
M  V30 20 C 8.486197 5.369965 -8.195666 0
M  V30 21 N 9.534457 6.372665 -7.996298 0
M  V30 22 C 9.272254 6.967006 -6.684032 0
M  V30 23 C 10.393229 7.788566 -6.073501 0
M  V30 24 C 11.179076 7.223634 -5.046635 0
M  V30 25 C 12.085782 8.021133 -4.323892 0
M  V30 26 C 12.269683 9.370583 -4.679744 0
M  V30 27 C 11.525740 9.928577 -5.739218 0
M  V30 28 C 10.576972 9.141793 -6.422762 0
M  V30 29 C 9.429251 7.394929 -9.044138 0
M  V30 30 C 9.533781 6.756451 -10.443539 0
M  V30 31 C 6.086288 1.832447 -13.793302 0
M  V30 32 O 5.027809 2.004982 -13.188347 0
M  V30 33 H 5.640051 -0.627562 -12.664301 0
M  V30 34 H 6.892146 -1.536594 -13.481627 0
M  V30 35 H 7.278664 -0.227903 -12.352888 0
M  V30 36 H 7.080612 0.704140 -17.044588 0
M  V30 37 H 5.745642 -0.163021 -18.916584 0
M  V30 38 H 2.885316 -1.800381 -16.156994 0
M  V30 39 H 4.155803 -0.886490 -14.263366 0
M  V30 40 H 8.603270 0.218211 -15.031070 0
M  V30 41 H 5.871557 4.451684 -14.245208 0
M  V30 42 H 7.563526 4.762105 -14.454087 0
M  V30 43 H 6.637855 3.901920 -11.689162 0
M  V30 44 H 5.971515 6.040248 -11.352180 0
M  V30 45 H 9.123194 4.420025 -12.127309 0
M  V30 46 H 8.650023 5.988786 -12.727550 0
M  V30 47 H 7.686809 4.046134 -9.684046 0
M  V30 48 H 9.457567 4.172266 -9.705201 0
M  V30 49 H 7.495214 5.772710 -8.011669 0
M  V30 50 H 8.623972 4.595057 -7.448535 0
M  V30 51 H 8.365415 7.572966 -6.717152 0
M  V30 52 H 9.060190 6.173067 -5.968491 0
M  V30 53 H 11.034681 6.190961 -4.762329 0
M  V30 54 H 12.658780 7.593985 -3.513587 0
M  V30 55 H 12.992199 9.964888 -4.139230 0
M  V30 56 H 11.664790 10.965892 -6.009967 0
M  V30 57 H 9.973401 9.588135 -7.197329 0
M  V30 58 H 8.486706 7.937477 -8.953911 0
M  V30 59 H 10.229621 8.122940 -8.926378 0
M  V30 60 H 10.501903 6.274918 -10.578282 0
M  V30 61 H 9.456853 7.541302 -11.197909 0
M  V30 62 H 7.600163 6.315107 -10.483600 0
M  V30 END ATOM
M  V30 BEGIN BOND
M  V30 1 1 2 1 CFG=1
M  V30 2 1 3 2
M  V30 3 1 4 3
M  V30 4 2 5 4
M  V30 5 1 6 5
M  V30 6 1 7 6
M  V30 7 2 8 6
M  V30 8 2 9 3
M  V30 9 1 9 8
M  V30 10 1 10 2
M  V30 11 1 11 10
M  V30 12 2 12 11
M  V30 13 1 13 11
M  V30 14 1 14 13
M  V30 15 1 15 14
M  V30 16 1 16 15
M  V30 17 1 17 15
M  V30 18 1 18 17
M  V30 19 1 19 18
M  V30 20 1 20 19
M  V30 21 1 21 20
M  V30 22 1 22 21
M  V30 23 1 23 22
M  V30 24 2 24 23
M  V30 25 1 25 24
M  V30 26 2 26 25
M  V30 27 1 27 26
M  V30 28 1 28 23
M  V30 29 2 28 27
M  V30 30 1 29 21
M  V30 31 1 30 18
M  V30 32 1 30 29
M  V30 33 1 31 2
M  V30 34 1 31 13
M  V30 35 2 32 31
M  V30 36 1 33 1
M  V30 37 1 34 1
M  V30 38 1 35 1
M  V30 39 1 36 4
M  V30 40 1 37 5
M  V30 41 1 38 8
M  V30 42 1 39 9
M  V30 43 1 40 10
M  V30 44 1 41 14
M  V30 45 1 42 14
M  V30 46 1 15 43 CFG=1
M  V30 47 1 44 16
M  V30 48 1 45 17
M  V30 49 1 46 17
M  V30 50 1 47 19
M  V30 51 1 48 19
M  V30 52 1 49 20
M  V30 53 1 50 20
M  V30 54 1 51 22
M  V30 55 1 52 22
M  V30 56 1 53 24
M  V30 57 1 54 25
M  V30 58 1 55 26
M  V30 59 1 56 27
M  V30 60 1 57 28
M  V30 61 1 58 29
M  V30 62 1 59 29
M  V30 63 1 60 30
M  V30 64 1 61 30
M  V30 65 1 62 18
M  V30 END BOND
M  V30 END CTAB
M  END
>  <b_m_subgroup_collapsed>  (962) 
0

>  <r_i_docking_score>  (962) 
-7.6538230924692403

>  <s_m_subgroup_title>  (962) 
glide-dock_SP_D22_pv

>  <s_m_subgroupid>  (962) 
glide-dock_SP_D22_pv

>  <Molecule ChEMBL ID>  (962) 
CHEMBL4288077

>  <Standard Type>  (962) 
Ki

>  <Standard Value>  (962) 
20030.0

>  <label>  (962) 
0

$$$$
CHEMBL1081868
     RDKit          3D

  0  0  0  0  0  0  0  0  0  0999 V3000
M  V30 BEGIN CTAB
M  V30 COUNTS 57 61 0 0 1
M  V30 BEGIN ATOM
M  V30 1 C 13.228334 1.402462 -19.046591 0
M  V30 2 C 12.093848 0.577994 -18.521397 0
M  V30 3 N 11.721212 -0.608779 -19.137062 0
M  V30 4 C 10.670918 -1.027796 -18.440634 0
M  V30 5 O 10.351830 -0.234445 -17.391209 0
M  V30 6 C 11.252948 0.794870 -17.454191 0
M  V30 7 C 11.143231 1.869388 -16.470970 0
M  V30 8 N 11.810693 3.020914 -16.601898 0
M  V30 9 N 11.415204 3.813459 -15.551745 0
M  V30 10 C 10.543569 3.076683 -14.862556 0
M  V30 11 S 9.658295 3.637544 -13.446683 0
M  V30 12 C 10.516985 5.192565 -13.098820 0
M  V30 13 C 9.986344 5.759129 -11.779387 0
M  V30 14 C 10.669868 7.062309 -11.320842 0
M  V30 15 N 10.321805 7.477156 -9.934963 0 CFG=1 CHG=1
M  V30 16 C 8.886044 7.588782 -9.621391 0
M  V30 17 C 8.796571 7.529799 -8.118227 0 CFG=1
M  V30 18 C 8.811440 6.238733 -7.333127 0
M  V30 19 C 10.092840 6.986089 -7.612979 0 CFG=2
M  V30 20 C 10.795568 7.796088 -6.574356 0
M  V30 21 C 11.133979 9.129213 -6.872965 0
M  V30 22 C 11.764689 9.934433 -5.918760 0
M  V30 23 F 12.085837 11.204653 -6.246809 0
M  V30 24 C 12.060036 9.414792 -4.645863 0
M  V30 25 C 11.720711 8.084903 -4.325358 0
M  V30 26 C 12.079743 7.531436 -2.958450 0
M  V30 27 F 12.087563 8.489209 -2.031504 0
M  V30 28 F 11.253292 6.572337 -2.565495 0
M  V30 29 F 13.285998 7.004525 -3.046901 0
M  V30 30 C 11.099664 7.271795 -5.299884 0
M  V30 31 C 10.934361 6.700551 -8.835826 0
M  V30 32 N 10.364219 1.839609 -15.365132 0
M  V30 33 C 9.522639 0.762462 -14.858060 0
M  V30 34 H 12.858845 2.284165 -19.569410 0
M  V30 35 H 13.879953 1.745606 -18.245115 0
M  V30 36 H 13.842094 0.835716 -19.746672 0
M  V30 37 H 10.117469 -1.930970 -18.646595 0
M  V30 38 H 11.590308 5.008622 -13.046863 0
M  V30 39 H 10.347087 5.889991 -13.918409 0
M  V30 40 H 8.916593 5.925527 -11.906022 0
M  V30 41 H 10.085804 4.990541 -11.013447 0
M  V30 42 H 11.754600 6.972402 -11.390833 0
M  V30 43 H 10.388219 7.866088 -12.001746 0
M  V30 44 H 8.486088 8.525375 -10.010581 0
M  V30 45 H 8.323877 6.742611 -10.012110 0
M  V30 46 H 8.374512 8.403723 -7.623740 0
M  V30 47 H 8.423613 6.261399 -6.317575 0
M  V30 48 H 8.606561 5.325149 -7.888062 0
M  V30 49 H 10.906356 9.548463 -7.841257 0
M  V30 50 H 12.554463 10.035108 -3.914172 0
M  V30 51 H 10.846401 6.247567 -5.063543 0
M  V30 52 H 10.885983 5.631607 -9.035146 0
M  V30 53 H 11.969500 7.002797 -8.690351 0
M  V30 54 H 9.172944 0.970069 -13.847648 0
M  V30 55 H 8.656796 0.633991 -15.508016 0
M  V30 56 H 10.090645 -0.167929 -14.827124 0
M  V30 57 H 10.686058 8.412578 -9.824683 0
M  V30 END ATOM
M  V30 BEGIN BOND
M  V30 1 1 2 1
M  V30 2 1 3 2
M  V30 3 2 4 3
M  V30 4 1 5 4
M  V30 5 2 6 2
M  V30 6 1 6 5
M  V30 7 1 7 6
M  V30 8 2 8 7
M  V30 9 1 9 8
M  V30 10 2 10 9
M  V30 11 1 11 10
M  V30 12 1 12 11
M  V30 13 1 13 12
M  V30 14 1 14 13
M  V30 15 1 15 14
M  V30 16 1 16 15
M  V30 17 1 17 16
M  V30 18 1 18 17
M  V30 19 1 19 17
M  V30 20 1 19 18
M  V30 21 1 19 20 CFG=1
M  V30 22 2 21 20
M  V30 23 1 22 21
M  V30 24 1 23 22
M  V30 25 2 24 22
M  V30 26 1 25 24
M  V30 27 1 26 25
M  V30 28 1 27 26
M  V30 29 1 28 26
M  V30 30 1 29 26
M  V30 31 1 30 20
M  V30 32 2 30 25
M  V30 33 1 31 15
M  V30 34 1 31 19
M  V30 35 1 32 7
M  V30 36 1 32 10
M  V30 37 1 33 32
M  V30 38 1 34 1
M  V30 39 1 35 1
M  V30 40 1 36 1
M  V30 41 1 37 4
M  V30 42 1 38 12
M  V30 43 1 39 12
M  V30 44 1 40 13
M  V30 45 1 41 13
M  V30 46 1 42 14
M  V30 47 1 43 14
M  V30 48 1 44 16
M  V30 49 1 45 16
M  V30 50 1 17 46 CFG=1
M  V30 51 1 47 18
M  V30 52 1 48 18
M  V30 53 1 49 21
M  V30 54 1 50 24
M  V30 55 1 51 30
M  V30 56 1 52 31
M  V30 57 1 53 31
M  V30 58 1 54 33
M  V30 59 1 55 33
M  V30 60 1 56 33
M  V30 61 1 15 57 CFG=1
M  V30 END BOND
M  V30 END CTAB
M  END
>  <b_m_subgroup_collapsed>  (963) 
0

>  <r_i_docking_score>  (963) 
-7.6533249771495697

>  <s_m_subgroup_title>  (963) 
glide-dock_SP_D22_pv

>  <s_m_subgroupid>  (963) 
glide-dock_SP_D22_pv

>  <Molecule ChEMBL ID>  (963) 
CHEMBL1081868

>  <Standard Type>  (963) 
Ki

>  <Standard Value>  (963) 
31.62

>  <label>  (963) 
1

$$$$
CHEMBL25938
     RDKit          3D

  0  0  0  0  0  0  0  0  0  0999 V3000
M  V30 BEGIN CTAB
M  V30 COUNTS 48 51 0 0 1
M  V30 BEGIN ATOM
M  V30 1 C 11.685119 3.145271 -15.722817 0
M  V30 2 C 10.882925 2.306665 -14.925232 0
M  V30 3 C 9.937006 2.864977 -14.044573 0
M  V30 4 C 9.780257 4.264423 -13.954798 0
M  V30 5 C 8.729934 4.846387 -13.015631 0
M  V30 6 N 9.314059 5.347910 -11.743102 0 CFG=2 CHG=1
M  V30 7 C 8.373354 5.224061 -10.594953 0
M  V30 8 C 8.994184 5.722021 -9.270968 0
M  V30 9 C 9.502092 7.169412 -9.404552 0 CFG=1
M  V30 10 C 10.142737 7.712473 -8.153636 0
M  V30 11 C 10.388008 7.097508 -6.889149 0
M  V30 12 C 10.970590 8.087543 -6.143281 0
M  V30 13 C 11.453564 8.121733 -4.767298 0
M  V30 14 C 11.675126 9.349901 -4.102571 0
M  V30 15 C 12.089772 9.372215 -2.759992 0
M  V30 16 C 12.328126 8.170843 -2.075327 0
M  V30 17 C 12.121894 6.942037 -2.726744 0
M  V30 18 C 11.686191 6.918533 -4.066052 0
M  V30 19 N 11.060255 9.190101 -6.957950 0
M  V30 20 N 10.547316 8.972301 -8.177453 0
M  V30 21 C 10.486225 7.230501 -10.578836 0
M  V30 22 C 9.843229 6.731365 -11.876435 0
M  V30 23 C 10.581967 5.097929 -14.768554 0
M  V30 24 C 11.535196 4.540990 -15.642096 0
M  V30 25 H 12.414988 2.716048 -16.394321 0
M  V30 26 H 10.997968 1.233542 -14.986120 0
M  V30 27 H 9.330505 2.201897 -13.445788 0
M  V30 28 H 8.004504 4.058880 -12.802187 0
M  V30 29 H 8.167443 5.632978 -13.522536 0
M  V30 30 H 8.080526 4.178715 -10.477971 0
M  V30 31 H 7.457671 5.773108 -10.807465 0
M  V30 32 H 9.812273 5.063318 -8.974654 0
M  V30 33 H 8.246353 5.666941 -8.478132 0
M  V30 34 H 8.648224 7.805380 -9.642244 0
M  V30 35 H 10.151524 6.091906 -6.573865 0
M  V30 36 H 11.486981 10.288310 -4.600669 0
M  V30 37 H 12.219317 10.313440 -2.250279 0
M  V30 38 H 12.656504 8.193263 -1.047428 0
M  V30 39 H 12.293849 6.011772 -2.201760 0
M  V30 40 H 11.525154 5.968505 -4.550422 0
M  V30 41 H 11.461453 10.081463 -6.699637 0
M  V30 42 H 10.831861 8.254358 -10.731694 0
M  V30 43 H 11.368555 6.640206 -10.339161 0
M  V30 44 H 10.592772 6.770810 -12.661596 0
M  V30 45 H 9.035531 7.408479 -12.166570 0
M  V30 46 H 10.484892 6.171245 -14.738386 0
M  V30 47 H 12.147429 5.186444 -16.252647 0
M  V30 48 H 10.095192 4.743979 -11.531441 0
M  V30 END ATOM
M  V30 BEGIN BOND
M  V30 1 2 2 1
M  V30 2 1 3 2
M  V30 3 2 4 3
M  V30 4 1 5 4
M  V30 5 1 6 5
M  V30 6 1 7 6
M  V30 7 1 8 7
M  V30 8 1 9 8
M  V30 9 1 10 9
M  V30 10 1 11 10
M  V30 11 2 12 11
M  V30 12 1 13 12
M  V30 13 2 14 13
M  V30 14 1 15 14
M  V30 15 2 16 15
M  V30 16 1 17 16
M  V30 17 1 18 13
M  V30 18 2 18 17
M  V30 19 1 19 12
M  V30 20 2 20 10
M  V30 21 1 20 19
M  V30 22 1 21 9
M  V30 23 1 22 6
M  V30 24 1 22 21
M  V30 25 1 23 4
M  V30 26 1 24 1
M  V30 27 2 24 23
M  V30 28 1 25 1
M  V30 29 1 26 2
M  V30 30 1 27 3
M  V30 31 1 28 5
M  V30 32 1 29 5
M  V30 33 1 30 7
M  V30 34 1 31 7
M  V30 35 1 32 8
M  V30 36 1 33 8
M  V30 37 1 9 34 CFG=3
M  V30 38 1 35 11
M  V30 39 1 36 14
M  V30 40 1 37 15
M  V30 41 1 38 16
M  V30 42 1 39 17
M  V30 43 1 40 18
M  V30 44 1 41 19
M  V30 45 1 42 21
M  V30 46 1 43 21
M  V30 47 1 44 22
M  V30 48 1 45 22
M  V30 49 1 46 23
M  V30 50 1 47 24
M  V30 51 1 6 48 CFG=1
M  V30 END BOND
M  V30 END CTAB
M  END
>  <b_m_subgroup_collapsed>  (964) 
0

>  <r_i_docking_score>  (964) 
-7.6532304103077804

>  <s_m_subgroup_title>  (964) 
glide-dock_SP_D22_pv

>  <s_m_subgroupid>  (964) 
glide-dock_SP_D22_pv

>  <Molecule ChEMBL ID>  (964) 
CHEMBL25938

>  <Standard Type>  (964) 
Ki

>  <Standard Value>  (964) 
66.0

>  <label>  (964) 
1

$$$$
CHEMBL1940406
     RDKit          3D

  0  0  0  0  0  0  0  0  0  0999 V3000
M  V30 BEGIN CTAB
M  V30 COUNTS 48 50 0 0 1
M  V30 BEGIN ATOM
M  V30 1 F 12.735876 8.480995 -1.584075 0
M  V30 2 C 12.214668 8.445642 -2.832990 0
M  V30 3 C 11.800071 9.632282 -3.459442 0
M  V30 4 C 11.261813 9.598174 -4.760226 0
M  V30 5 C 11.098365 8.373930 -5.442522 0
M  V30 6 O 10.502051 8.426407 -6.687797 0
M  V30 7 C 10.347470 7.203490 -7.394123 0
M  V30 8 C 9.513716 7.385109 -8.673879 0
M  V30 9 C 9.496102 6.067778 -9.462440 0
M  V30 10 N 8.479930 6.004083 -10.544424 0 CFG=2 CHG=1
M  V30 11 C 8.057208 4.602635 -10.776436 0
M  V30 12 C 6.903030 4.498132 -11.786530 0
M  V30 13 C 7.315447 5.057006 -13.144328 0 CFG=2
M  V30 14 C 8.258148 4.123576 -13.913514 0
M  V30 15 C 7.794872 2.829034 -14.246608 0
M  V30 16 C 8.609549 1.925910 -14.952536 0
M  V30 17 C 9.898423 2.313148 -15.353968 0
M  V30 18 Cl 10.885069 1.211238 -16.240131 0
M  V30 19 C 10.368720 3.603453 -15.049891 0
M  V30 20 C 9.551219 4.507586 -14.339950 0
M  V30 21 C 7.788713 6.509879 -12.906538 0
M  V30 22 C 8.882257 6.662185 -11.812833 0
M  V30 23 C 11.527626 7.180773 -4.801648 0
M  V30 24 C 12.085783 7.219642 -3.508384 0
M  V30 25 H 11.894498 10.571239 -2.936754 0
M  V30 26 H 10.941755 10.516490 -5.226557 0
M  V30 27 H 11.335540 6.811476 -7.647747 0
M  V30 28 H 9.845663 6.466115 -6.761363 0
M  V30 29 H 8.495655 7.673404 -8.396707 0
M  V30 30 H 9.916773 8.192824 -9.287415 0
M  V30 31 H 10.485809 5.845876 -9.860967 0
M  V30 32 H 9.286202 5.274928 -8.743271 0
M  V30 33 H 8.920135 4.031971 -11.122102 0
M  V30 34 H 7.730179 4.171909 -9.831378 0
M  V30 35 H 6.550607 3.469198 -11.860899 0
M  V30 36 H 6.046503 5.076547 -11.444271 0
M  V30 37 H 6.409403 5.086096 -13.748886 0
M  V30 38 H 6.801962 2.516551 -13.958088 0
M  V30 39 H 8.244302 0.937178 -15.187898 0
M  V30 40 H 11.355747 3.905284 -15.368424 0
M  V30 41 H 9.938468 5.494593 -14.149148 0
M  V30 42 H 8.085743 6.956264 -13.844954 0
M  V30 43 H 6.926005 7.096452 -12.587516 0
M  V30 44 H 9.058162 7.720901 -11.625012 0
M  V30 45 H 9.831239 6.248505 -12.149305 0
M  V30 46 H 11.436069 6.217425 -5.278030 0
M  V30 47 H 12.401595 6.304170 -3.030411 0
M  V30 48 H 7.650821 6.507681 -10.228302 0
M  V30 END ATOM
M  V30 BEGIN BOND
M  V30 1 1 2 1
M  V30 2 1 3 2
M  V30 3 2 4 3
M  V30 4 1 5 4
M  V30 5 1 6 5
M  V30 6 1 7 6
M  V30 7 1 8 7
M  V30 8 1 9 8
M  V30 9 1 10 9
M  V30 10 1 11 10
M  V30 11 1 12 11
M  V30 12 1 13 12
M  V30 13 1 14 13
M  V30 14 1 15 14
M  V30 15 2 16 15
M  V30 16 1 17 16
M  V30 17 1 18 17
M  V30 18 2 19 17
M  V30 19 2 20 14
M  V30 20 1 20 19
M  V30 21 1 21 13
M  V30 22 1 22 10
M  V30 23 1 22 21
M  V30 24 2 23 5
M  V30 25 2 24 2
M  V30 26 1 24 23
M  V30 27 1 25 3
M  V30 28 1 26 4
M  V30 29 1 27 7
M  V30 30 1 28 7
M  V30 31 1 29 8
M  V30 32 1 30 8
M  V30 33 1 31 9
M  V30 34 1 32 9
M  V30 35 1 33 11
M  V30 36 1 34 11
M  V30 37 1 35 12
M  V30 38 1 36 12
M  V30 39 1 13 37 CFG=3
M  V30 40 1 38 15
M  V30 41 1 39 16
M  V30 42 1 40 19
M  V30 43 1 41 20
M  V30 44 1 42 21
M  V30 45 1 43 21
M  V30 46 1 44 22
M  V30 47 1 45 22
M  V30 48 1 46 23
M  V30 49 1 47 24
M  V30 50 1 10 48 CFG=1
M  V30 END BOND
M  V30 END CTAB
M  END
>  <b_m_subgroup_collapsed>  (965) 
0

>  <r_i_docking_score>  (965) 
-7.65311953351606

>  <s_m_subgroup_title>  (965) 
glide-dock_SP_D22_pv

>  <s_m_subgroupid>  (965) 
glide-dock_SP_D22_pv

>  <Molecule ChEMBL ID>  (965) 
CHEMBL1940406

>  <Standard Type>  (965) 
Ki

>  <Standard Value>  (965) 
41.0

>  <label>  (965) 
1

$$$$
CHEMBL281195
     RDKit          3D

  0  0  0  0  0  0  0  0  0  0999 V3000
M  V30 BEGIN CTAB
M  V30 COUNTS 51 54 0 0 1
M  V30 BEGIN ATOM
M  V30 1 C 9.200565 5.756269 -12.768660 0
M  V30 2 C 10.322338 6.576641 -12.188411 0
M  V30 3 C 10.408497 7.103093 -10.861676 0
M  V30 4 C 9.435263 6.893538 -9.714590 0 CFG=1
M  V30 5 C 10.003156 6.002982 -8.599769 0
M  V30 6 C 11.023870 6.748791 -7.723014 0
M  V30 7 N 10.486649 8.017676 -7.148477 0 CFG=1 CHG=1
M  V30 8 C 11.511676 8.765710 -6.375527 0
M  V30 9 C 11.618855 8.459586 -4.885238 0
M  V30 10 C 11.765454 9.548723 -4.001610 0
M  V30 11 C 12.085577 9.337223 -2.650067 0
M  V30 12 C 12.218752 8.032552 -2.154665 0
M  V30 13 C 11.995663 6.936048 -3.004599 0
M  V30 14 C 11.687195 7.145590 -4.361392 0
M  V30 15 C 9.917303 8.906107 -8.199855 0
M  V30 16 C 8.898896 8.186816 -9.080421 0
M  V30 17 N 11.537010 7.776976 -10.671573 0
M  V30 18 N 12.186387 7.699285 -11.842778 0
M  V30 19 C 11.502179 6.960070 -12.775244 0
M  V30 20 C 12.087334 6.658914 -14.078069 0
M  V30 21 C 12.724082 7.664153 -14.839004 0
M  V30 22 C 13.282393 7.366960 -16.097300 0
M  V30 23 C 13.226363 6.051920 -16.598969 0
M  V30 24 C 12.603556 5.040064 -15.844883 0
M  V30 25 C 12.035856 5.345252 -14.592713 0
M  V30 26 H 8.224574 6.133105 -12.463555 0
M  V30 27 H 9.207432 5.764473 -13.857526 0
M  V30 28 H 9.257759 4.716063 -12.450730 0
M  V30 29 H 8.567764 6.370425 -10.117339 0
M  V30 30 H 9.181603 5.659904 -7.969198 0
M  V30 31 H 10.455648 5.106002 -9.026422 0
M  V30 32 H 11.916819 6.973560 -8.300084 0
M  V30 33 H 11.352481 6.060894 -6.954394 0
M  V30 34 H 12.485925 8.659076 -6.848277 0
M  V30 35 H 11.294039 9.832470 -6.452468 0
M  V30 36 H 11.684671 10.560831 -4.365040 0
M  V30 37 H 12.235028 10.174021 -1.987521 0
M  V30 38 H 12.486219 7.882584 -1.121016 0
M  V30 39 H 12.080672 5.929926 -2.620939 0
M  V30 40 H 11.572144 6.268970 -4.968208 0
M  V30 41 H 10.712459 9.342703 -8.803866 0
M  V30 42 H 9.407104 9.737780 -7.716191 0
M  V30 43 H 8.488641 8.856655 -9.837619 0
M  V30 44 H 8.086292 7.915404 -8.413643 0
M  V30 45 H 13.097665 8.114287 -11.981535 0
M  V30 46 H 12.775079 8.676163 -14.466795 0
M  V30 47 H 13.755726 8.147141 -16.676588 0
M  V30 48 H 13.657455 5.821547 -17.562565 0
M  V30 49 H 12.565207 4.029729 -16.226225 0
M  V30 50 H 11.563858 4.560438 -14.019634 0
M  V30 51 H 9.726708 7.781747 -6.525466 0
M  V30 END ATOM
M  V30 BEGIN BOND
M  V30 1 1 2 1
M  V30 2 1 3 2
M  V30 3 1 4 3
M  V30 4 1 5 4
M  V30 5 1 6 5
M  V30 6 1 7 6
M  V30 7 1 8 7
M  V30 8 1 9 8
M  V30 9 2 10 9
M  V30 10 1 11 10
M  V30 11 2 12 11
M  V30 12 1 13 12
M  V30 13 1 14 9
M  V30 14 2 14 13
M  V30 15 1 15 7
M  V30 16 1 16 4
M  V30 17 1 16 15
M  V30 18 2 17 3
M  V30 19 1 18 17
M  V30 20 2 19 2
M  V30 21 1 19 18
M  V30 22 1 20 19
M  V30 23 2 21 20
M  V30 24 1 22 21
M  V30 25 2 23 22
M  V30 26 1 24 23
M  V30 27 1 25 20
M  V30 28 2 25 24
M  V30 29 1 26 1
M  V30 30 1 27 1
M  V30 31 1 28 1
M  V30 32 1 4 29 CFG=3
M  V30 33 1 30 5
M  V30 34 1 31 5
M  V30 35 1 32 6
M  V30 36 1 33 6
M  V30 37 1 34 8
M  V30 38 1 35 8
M  V30 39 1 36 10
M  V30 40 1 37 11
M  V30 41 1 38 12
M  V30 42 1 39 13
M  V30 43 1 40 14
M  V30 44 1 41 15
M  V30 45 1 42 15
M  V30 46 1 43 16
M  V30 47 1 44 16
M  V30 48 1 45 18
M  V30 49 1 46 21
M  V30 50 1 47 22
M  V30 51 1 48 23
M  V30 52 1 49 24
M  V30 53 1 50 25
M  V30 54 1 7 51 CFG=1
M  V30 END BOND
M  V30 END CTAB
M  END
>  <b_m_subgroup_collapsed>  (966) 
0

>  <r_i_docking_score>  (966) 
-7.6529651792897697

>  <s_m_subgroup_title>  (966) 
glide-dock_SP_D22_pv

>  <s_m_subgroupid>  (966) 
glide-dock_SP_D22_pv

>  <Molecule ChEMBL ID>  (966) 
CHEMBL281195

>  <Standard Type>  (966) 
Ki

>  <Standard Value>  (966) 
90.0

>  <label>  (966) 
1

$$$$
CHEMBL4587925
     RDKit          3D

  0  0  0  0  0  0  0  0  0  0999 V3000
M  V30 BEGIN CTAB
M  V30 COUNTS 50 52 0 0 1
M  V30 BEGIN ATOM
M  V30 1 C 12.233573 8.485416 -2.030281 0
M  V30 2 C 11.844843 8.432611 -3.491721 0
M  V30 3 C 11.685826 7.203286 -4.157621 0
M  V30 4 C 11.286027 7.211075 -5.509776 0
M  V30 5 C 11.143629 8.456400 -6.168768 0
M  V30 6 C 10.846581 8.569526 -7.663875 0 CFG=1
M  V30 7 C 11.350509 7.386560 -8.512981 0
M  V30 8 C 10.962070 7.514588 -9.999081 0
M  V30 9 N 9.501524 7.752191 -10.164569 0 CFG=2 CHG=1
M  V30 10 C 9.041950 7.761752 -11.576987 0
M  V30 11 C 8.879421 6.348801 -12.138150 0
M  V30 12 O 9.886428 5.721215 -12.456812 0
M  V30 13 N 7.619841 5.884494 -12.242207 0
M  V30 14 C 7.189027 4.646270 -12.793702 0
M  V30 15 C 5.931921 4.150489 -12.387986 0
M  V30 16 C 5.440741 2.937254 -12.905801 0
M  V30 17 C 6.196177 2.211883 -13.846559 0
M  V30 18 C 7.445268 2.701947 -14.271697 0
M  V30 19 C 8.262844 1.926212 -15.284377 0
M  V30 20 C 7.934309 3.918284 -13.755217 0
M  V30 21 C 9.119289 8.985577 -9.447860 0
M  V30 22 C 9.364448 8.835773 -7.945095 0
M  V30 23 N 11.282382 9.636386 -5.524205 0
M  V30 24 C 11.611527 9.614800 -4.217309 0
M  V30 25 H 11.645680 7.776669 -1.447247 0
M  V30 26 H 13.285913 8.236643 -1.918893 0
M  V30 27 H 12.077217 9.480400 -1.614100 0
M  V30 28 H 11.837873 6.266351 -3.639782 0
M  V30 29 H 11.150496 6.269421 -6.014462 0
M  V30 30 H 11.398155 9.445424 -8.010758 0
M  V30 31 H 12.435825 7.372313 -8.422752 0
M  V30 32 H 10.958405 6.441660 -8.146447 0
M  V30 33 H 11.263958 6.607343 -10.516160 0
M  V30 34 H 11.519206 8.332502 -10.460312 0
M  V30 35 H 8.086187 8.279481 -11.668062 0
M  V30 36 H 9.741043 8.322794 -12.195795 0
M  V30 37 H 6.901708 6.444257 -11.794569 0
M  V30 38 H 5.345261 4.692465 -11.659709 0
M  V30 39 H 4.484360 2.558821 -12.582375 0
M  V30 40 H 5.811281 1.281898 -14.240510 0
M  V30 41 H 9.327401 2.004012 -15.060767 0
M  V30 42 H 7.995123 0.869549 -15.281429 0
M  V30 43 H 8.091923 2.321387 -16.286678 0
M  V30 44 H 8.882861 4.281510 -14.118435 0
M  V30 45 H 8.086172 9.269620 -9.627040 0
M  V30 46 H 9.721249 9.796263 -9.845383 0
M  V30 47 H 8.733219 8.051404 -7.524271 0
M  V30 48 H 9.088030 9.765944 -7.470295 0
M  V30 49 H 11.685882 10.572086 -3.726429 0
M  V30 50 H 8.997475 6.995736 -9.717734 0
M  V30 END ATOM
M  V30 BEGIN BOND
M  V30 1 1 2 1
M  V30 2 1 3 2
M  V30 3 2 4 3
M  V30 4 1 5 4
M  V30 5 1 6 5
M  V30 6 1 7 6
M  V30 7 1 8 7
M  V30 8 1 9 8
M  V30 9 1 10 9
M  V30 10 1 11 10
M  V30 11 2 12 11
M  V30 12 1 13 11
M  V30 13 1 14 13
M  V30 14 2 15 14
M  V30 15 1 16 15
M  V30 16 2 17 16
M  V30 17 1 18 17
M  V30 18 1 19 18
M  V30 19 1 20 14
M  V30 20 2 20 18
M  V30 21 1 21 9
M  V30 22 1 22 6
M  V30 23 1 22 21
M  V30 24 2 23 5
M  V30 25 2 24 2
M  V30 26 1 24 23
M  V30 27 1 25 1
M  V30 28 1 26 1
M  V30 29 1 27 1
M  V30 30 1 28 3
M  V30 31 1 29 4
M  V30 32 1 6 30 CFG=3
M  V30 33 1 31 7
M  V30 34 1 32 7
M  V30 35 1 33 8
M  V30 36 1 34 8
M  V30 37 1 35 10
M  V30 38 1 36 10
M  V30 39 1 37 13
M  V30 40 1 38 15
M  V30 41 1 39 16
M  V30 42 1 40 17
M  V30 43 1 41 19
M  V30 44 1 42 19
M  V30 45 1 43 19
M  V30 46 1 44 20
M  V30 47 1 45 21
M  V30 48 1 46 21
M  V30 49 1 47 22
M  V30 50 1 48 22
M  V30 51 1 49 24
M  V30 52 1 9 50 CFG=1
M  V30 END BOND
M  V30 END CTAB
M  END
>  <b_m_subgroup_collapsed>  (967) 
0

>  <r_i_docking_score>  (967) 
-7.65232248487301

>  <s_m_subgroup_title>  (967) 
glide-dock_SP_D22_pv

>  <s_m_subgroupid>  (967) 
glide-dock_SP_D22_pv

>  <Molecule ChEMBL ID>  (967) 
CHEMBL4587925

>  <Standard Type>  (967) 
Ki

>  <Standard Value>  (967) 
10000.0

>  <label>  (967) 
0

$$$$
CHEMBL476642
     RDKit          3D

  0  0  0  0  0  0  0  0  0  0999 V3000
M  V30 BEGIN CTAB
M  V30 COUNTS 61 64 0 0 1
M  V30 BEGIN ATOM
M  V30 1 C 12.613906 8.696195 -1.839327 0
M  V30 2 O 12.388828 9.513219 -2.972646 0
M  V30 3 C 11.866702 8.922718 -4.098549 0
M  V30 4 C 11.486651 9.785411 -5.139717 0
M  V30 5 C 10.885945 9.291660 -6.305393 0
M  V30 6 C 10.679305 7.904698 -6.481527 0
M  V30 7 N 10.101323 7.393338 -7.660702 0
M  V30 8 C 9.027246 6.412887 -7.531178 0
M  V30 9 C 8.951098 5.535135 -8.790258 0
M  V30 10 N 8.885961 6.330728 -10.047150 0 CHG=1
M  V30 11 C 8.904387 5.439491 -11.235347 0
M  V30 12 C 8.364908 6.103178 -12.516118 0
M  V30 13 C 8.709493 5.321551 -13.801609 0
M  V30 14 N 8.341260 3.899112 -13.787686 0
M  V30 15 C 9.471638 2.958406 -13.773746 0
M  V30 16 C 9.755537 2.333049 -15.151783 0
M  V30 17 C 8.509544 1.942377 -15.964662 0
M  V30 18 C 7.391467 1.332083 -15.132202 0
M  V30 19 C 6.985506 0.007892 -15.402359 0
M  V30 20 C 5.904609 -0.571048 -14.712177 0
M  V30 21 C 5.215508 0.176303 -13.743311 0
M  V30 22 C 5.627839 1.486187 -13.446530 0
M  V30 23 C 6.714139 2.076985 -14.128881 0
M  V30 24 C 7.039974 3.515392 -13.831189 0
M  V30 25 O 6.109359 4.298248 -13.640873 0
M  V30 26 C 9.941955 7.378528 -10.112977 0
M  V30 27 C 9.998746 8.238883 -8.843398 0
M  V30 28 C 11.098386 7.032366 -5.450360 0
M  V30 29 C 11.685379 7.529402 -4.269567 0
M  V30 30 H 13.072505 9.288210 -1.047456 0
M  V30 31 H 11.686111 8.278631 -1.456151 0
M  V30 32 H 13.285986 7.881949 -2.085727 0
M  V30 33 H 11.654914 10.847128 -5.046621 0
M  V30 34 H 10.584526 10.010071 -7.047395 0
M  V30 35 H 8.086586 6.946194 -7.387497 0
M  V30 36 H 9.150212 5.774145 -6.658662 0
M  V30 37 H 8.086204 4.875682 -8.721894 0
M  V30 38 H 9.831773 4.891706 -8.826772 0
M  V30 39 H 8.292811 4.558882 -11.031953 0
M  V30 40 H 9.921028 5.075596 -11.394875 0
M  V30 41 H 8.767868 7.105737 -12.645071 0
M  V30 42 H 7.287326 6.240921 -12.419868 0
M  V30 43 H 9.773161 5.438773 -14.010312 0
M  V30 44 H 8.210443 5.777939 -14.651715 0
M  V30 45 H 10.379358 3.436104 -13.403239 0
M  V30 46 H 9.286198 2.172262 -13.046985 0
M  V30 47 H 10.368380 3.009519 -15.748241 0
M  V30 48 H 10.368450 1.445428 -14.988762 0
M  V30 49 H 8.799882 1.258074 -16.763533 0
M  V30 50 H 8.109374 2.822197 -16.467037 0
M  V30 51 H 7.492368 -0.574895 -16.158567 0
M  V30 52 H 5.597047 -1.582125 -14.941226 0
M  V30 53 H 4.360993 -0.240204 -13.236837 0
M  V30 54 H 5.082336 2.050919 -12.702631 0
M  V30 55 H 10.911359 6.902935 -10.259879 0
M  V30 56 H 9.781700 8.035310 -10.967081 0
M  V30 57 H 9.103851 8.859641 -8.764808 0
M  V30 58 H 10.858700 8.906776 -8.920189 0
M  V30 59 H 10.987792 5.965086 -5.555491 0
M  V30 60 H 11.971971 6.818423 -3.508735 0
M  V30 61 H 7.985131 6.812089 -10.033592 0
M  V30 END ATOM
M  V30 BEGIN BOND
M  V30 1 1 2 1
M  V30 2 1 3 2
M  V30 3 1 4 3
M  V30 4 2 5 4
M  V30 5 1 6 5
M  V30 6 1 7 6
M  V30 7 1 8 7
M  V30 8 1 9 8
M  V30 9 1 10 9
M  V30 10 1 11 10
M  V30 11 1 12 11
M  V30 12 1 13 12
M  V30 13 1 14 13
M  V30 14 1 15 14
M  V30 15 1 16 15
M  V30 16 1 17 16
M  V30 17 1 18 17
M  V30 18 2 19 18
M  V30 19 1 20 19
M  V30 20 2 21 20
M  V30 21 1 22 21
M  V30 22 1 23 18
M  V30 23 2 23 22
M  V30 24 1 24 14
M  V30 25 1 24 23
M  V30 26 2 25 24
M  V30 27 1 26 10
M  V30 28 1 27 7
M  V30 29 1 27 26
M  V30 30 2 28 6
M  V30 31 2 29 3
M  V30 32 1 29 28
M  V30 33 1 30 1
M  V30 34 1 31 1
M  V30 35 1 32 1
M  V30 36 1 33 4
M  V30 37 1 34 5
M  V30 38 1 35 8
M  V30 39 1 36 8
M  V30 40 1 37 9
M  V30 41 1 38 9
M  V30 42 1 39 11
M  V30 43 1 40 11
M  V30 44 1 41 12
M  V30 45 1 42 12
M  V30 46 1 43 13
M  V30 47 1 44 13
M  V30 48 1 45 15
M  V30 49 1 46 15
M  V30 50 1 47 16
M  V30 51 1 48 16
M  V30 52 1 49 17
M  V30 53 1 50 17
M  V30 54 1 51 19
M  V30 55 1 52 20
M  V30 56 1 53 21
M  V30 57 1 54 22
M  V30 58 1 55 26
M  V30 59 1 56 26
M  V30 60 1 57 27
M  V30 61 1 58 27
M  V30 62 1 59 28
M  V30 63 1 60 29
M  V30 64 1 61 10
M  V30 END BOND
M  V30 END CTAB
M  END
>  <b_m_subgroup_collapsed>  (968) 
0

>  <r_i_docking_score>  (968) 
-7.6515010163474404

>  <s_m_subgroup_title>  (968) 
glide-dock_SP_D22_pv

>  <s_m_subgroupid>  (968) 
glide-dock_SP_D22_pv

>  <Molecule ChEMBL ID>  (968) 
CHEMBL476642

>  <Standard Type>  (968) 
Ki

>  <Standard Value>  (968) 
100000.0

>  <label>  (968) 
0

$$$$
CHEMBL5856810
     RDKit          3D

  0  0  0  0  0  0  0  0  0  0999 V3000
M  V30 BEGIN CTAB
M  V30 COUNTS 57 59 0 0 1
M  V30 BEGIN ATOM
M  V30 1 C 12.199204 7.166130 -14.439785 0
M  V30 2 C 11.229803 5.974278 -14.344705 0
M  V30 3 N 10.524965 5.814959 -13.046855 0
M  V30 4 C 10.353676 7.023161 -12.191337 0
M  V30 5 C 9.906132 6.699233 -10.753191 0
M  V30 6 N 9.996489 7.827868 -9.810764 0 CFG=2 CHG=1
M  V30 7 C 11.397805 8.085835 -9.387177 0
M  V30 8 C 11.490197 9.274229 -8.428695 0
M  V30 9 C 10.517036 9.170125 -7.241033 0 CFG=2
M  V30 10 C 11.020524 8.238344 -6.171027 0
M  V30 11 N 11.174397 6.932627 -6.383461 0
M  V30 12 O 11.686027 6.359845 -5.189960 0
M  V30 13 C 11.865583 7.350902 -4.246829 0
M  V30 14 C 12.386692 7.315003 -2.951740 0
M  V30 15 C 12.486037 8.540837 -2.268726 0
M  V30 16 F 13.046090 8.572346 -1.046865 0
M  V30 17 C 12.034982 9.740058 -2.864287 0
M  V30 18 C 11.503268 9.748332 -4.168770 0
M  V30 19 C 11.442253 8.527722 -4.866233 0
M  V30 20 C 9.095998 8.812901 -7.710099 0
M  V30 21 C 9.103879 7.596516 -8.645692 0
M  V30 22 S 9.462647 4.432137 -12.919140 0
M  V30 23 O 9.227673 4.172327 -11.495665 0
M  V30 24 O 10.048303 3.370620 -13.751304 0
M  V30 25 C 7.850489 4.946489 -13.687982 0 CFG=1
M  V30 26 C 7.165571 3.676141 -14.225048 0
M  V30 27 C 6.905317 5.667378 -12.695999 0
M  V30 28 O 7.167286 7.053979 -12.646861 0
M  V30 29 H 12.704879 7.165919 -15.405599 0
M  V30 30 H 11.686045 8.123039 -14.350253 0
M  V30 31 H 12.972172 7.113504 -13.673322 0
M  V30 32 H 11.794578 5.062341 -14.541512 0
M  V30 33 H 10.489007 6.044475 -15.141480 0
M  V30 34 H 11.302056 7.547857 -12.134264 0
M  V30 35 H 9.646489 7.711880 -12.646852 0
M  V30 36 H 8.863219 6.393077 -10.779207 0
M  V30 37 H 10.486052 5.875908 -10.335155 0
M  V30 38 H 11.800496 7.192890 -8.913610 0
M  V30 39 H 12.036721 8.290582 -10.245156 0
M  V30 40 H 12.512506 9.372319 -8.060621 0
M  V30 41 H 11.286009 10.172337 -9.008777 0
M  V30 42 H 10.476185 10.164049 -6.795173 0
M  V30 43 H 12.725622 6.389865 -2.509364 0
M  V30 44 H 12.086038 10.664141 -2.310640 0
M  V30 45 H 11.168729 10.670389 -4.619790 0
M  V30 46 H 8.443959 8.628500 -6.854849 0
M  V30 47 H 8.662516 9.657044 -8.246902 0
M  V30 48 H 8.092717 7.383821 -8.976657 0
M  V30 49 H 9.402166 6.688302 -8.125214 0
M  V30 50 H 8.086062 5.591074 -14.532217 0
M  V30 51 H 6.183484 3.890059 -14.646861 0
M  V30 52 H 7.763185 3.194925 -14.999821 0
M  V30 53 H 7.019377 2.947994 -13.427609 0
M  V30 54 H 6.955590 5.236676 -11.695783 0
M  V30 55 H 5.866553 5.564829 -13.012142 0
M  V30 56 H 6.863605 7.372351 -11.788373 0
M  V30 57 H 9.637839 8.644075 -10.285219 0
M  V30 END ATOM
M  V30 BEGIN BOND
M  V30 1 1 2 1
M  V30 2 1 3 2
M  V30 3 1 4 3
M  V30 4 1 5 4
M  V30 5 1 6 5
M  V30 6 1 7 6
M  V30 7 1 8 7
M  V30 8 1 9 8
M  V30 9 1 10 9
M  V30 10 2 11 10
M  V30 11 1 12 11
M  V30 12 1 13 12
M  V30 13 1 14 13
M  V30 14 2 15 14
M  V30 15 1 16 15
M  V30 16 1 17 15
M  V30 17 2 18 17
M  V30 18 1 19 10
M  V30 19 2 19 13
M  V30 20 1 19 18
M  V30 21 1 20 9
M  V30 22 1 21 6
M  V30 23 1 21 20
M  V30 24 1 22 3
M  V30 25 2 23 22
M  V30 26 2 24 22
M  V30 27 1 25 22
M  V30 28 1 26 25
M  V30 29 1 27 25
M  V30 30 1 28 27
M  V30 31 1 29 1
M  V30 32 1 30 1
M  V30 33 1 31 1
M  V30 34 1 32 2
M  V30 35 1 33 2
M  V30 36 1 34 4
M  V30 37 1 35 4
M  V30 38 1 36 5
M  V30 39 1 37 5
M  V30 40 1 38 7
M  V30 41 1 39 7
M  V30 42 1 40 8
M  V30 43 1 41 8
M  V30 44 1 9 42 CFG=1
M  V30 45 1 43 14
M  V30 46 1 44 17
M  V30 47 1 45 18
M  V30 48 1 46 20
M  V30 49 1 47 20
M  V30 50 1 48 21
M  V30 51 1 49 21
M  V30 52 1 25 50 CFG=3
M  V30 53 1 51 26
M  V30 54 1 52 26
M  V30 55 1 53 26
M  V30 56 1 54 27
M  V30 57 1 55 27
M  V30 58 1 56 28
M  V30 59 1 6 57 CFG=3
M  V30 END BOND
M  V30 END CTAB
M  END
>  <b_m_subgroup_collapsed>  (969) 
0

>  <r_i_docking_score>  (969) 
-7.6478538633670903

>  <s_m_subgroup_title>  (969) 
glide-dock_SP_D22_pv

>  <s_m_subgroupid>  (969) 
glide-dock_SP_D22_pv

>  <Molecule ChEMBL ID>  (969) 
CHEMBL5856810

>  <Standard Type>  (969) 
Ki

>  <Standard Value>  (969) 
10000.0

>  <label>  (969) 
0

$$$$
CHEMBL2335736
     RDKit          3D

  0  0  0  0  0  0  0  0  0  0999 V3000
M  V30 BEGIN CTAB
M  V30 COUNTS 52 55 0 0 1
M  V30 BEGIN ATOM
M  V30 1 C 7.004702 0.129274 -15.276100 0
M  V30 2 O 6.392817 1.222471 -14.606924 0
M  V30 3 C 7.179753 2.296044 -14.246417 0
M  V30 4 C 8.550055 2.413152 -14.588042 0
M  V30 5 C 9.316160 3.507211 -14.136471 0
M  V30 6 C 8.715248 4.520598 -13.350480 0
M  V30 7 C 7.349823 4.410707 -13.016846 0
M  V30 8 C 6.591015 3.306510 -13.448698 0
M  V30 9 O 5.288996 3.207347 -13.047108 0
M  V30 10 C 9.495501 5.758381 -12.904125 0 CFG=1
M  V30 11 C 9.574817 5.937823 -11.365944 0
M  V30 12 C 10.253450 7.276581 -10.965830 0 CFG=1
M  V30 13 O 9.424817 8.301620 -11.480289 0
M  V30 14 C 10.427628 7.488265 -9.451200 0
M  V30 15 C 9.929133 6.582052 -8.485390 0
M  V30 16 C 10.109554 6.829925 -7.108664 0
M  V30 17 C 10.798299 7.970541 -6.652310 0
M  V30 18 O 10.949151 8.114672 -5.286716 0
M  V30 19 C 11.520967 9.228358 -4.747264 0
M  V30 20 F 10.834105 10.355011 -5.060612 0
M  V30 21 F 11.516799 9.129292 -3.396862 0
M  V30 22 F 12.815523 9.372614 -5.119997 0
M  V30 23 C 11.287505 8.883657 -7.613877 0
M  V30 24 C 11.092617 8.648967 -8.988614 0
M  V30 25 C 11.634089 7.375132 -11.668732 0
M  V30 26 C 11.650261 7.037855 -13.174335 0
M  V30 27 N 10.830560 5.859128 -13.568065 0 CFG=1 CHG=1
M  V30 28 C 11.554127 4.576235 -13.644122 0
M  V30 29 C 10.778748 3.601792 -14.534307 0
M  V30 30 H 6.264154 -0.653981 -15.438563 0
M  V30 31 H 7.391090 0.425039 -16.252235 0
M  V30 32 H 7.812144 -0.300721 -14.681464 0
M  V30 33 H 9.040490 1.662178 -15.188689 0
M  V30 34 H 6.880824 5.177548 -12.415998 0
M  V30 35 H 5.043248 3.877468 -12.428185 0
M  V30 36 H 8.885629 6.572283 -13.282675 0
M  V30 37 H 10.085897 5.083532 -10.926168 0
M  V30 38 H 8.566469 5.917037 -10.949529 0
M  V30 39 H 8.581914 8.250704 -11.041840 0
M  V30 40 H 9.390673 5.692263 -8.773438 0
M  V30 41 H 9.710143 6.136201 -6.385466 0
M  V30 42 H 11.817460 9.774588 -7.320364 0
M  V30 43 H 11.465769 9.381387 -9.689453 0
M  V30 44 H 12.363844 6.759619 -11.160480 0
M  V30 45 H 12.049478 8.373140 -11.540610 0
M  V30 46 H 12.680168 6.916615 -13.512526 0
M  V30 47 H 11.286040 7.895096 -13.733727 0
M  V30 48 H 11.636691 4.173148 -12.646887 0
M  V30 49 H 12.564803 4.706867 -14.032846 0
M  V30 50 H 11.236115 2.612539 -14.482947 0
M  V30 51 H 10.831272 3.919365 -15.576475 0
M  V30 52 H 10.607234 6.039137 -14.536744 0
M  V30 END ATOM
M  V30 BEGIN BOND
M  V30 1 1 2 1
M  V30 2 1 3 2
M  V30 3 1 4 3
M  V30 4 2 5 4
M  V30 5 1 6 5
M  V30 6 2 7 6
M  V30 7 2 8 3
M  V30 8 1 8 7
M  V30 9 1 9 8
M  V30 10 1 10 6
M  V30 11 1 11 10
M  V30 12 1 12 11
M  V30 13 1 12 13 CFG=3
M  V30 14 1 14 12
M  V30 15 1 15 14
M  V30 16 2 16 15
M  V30 17 1 17 16
M  V30 18 1 18 17
M  V30 19 1 19 18
M  V30 20 1 20 19
M  V30 21 1 21 19
M  V30 22 1 22 19
M  V30 23 2 23 17
M  V30 24 2 24 14
M  V30 25 1 24 23
M  V30 26 1 25 12
M  V30 27 1 26 25
M  V30 28 1 27 10
M  V30 29 1 27 26
M  V30 30 1 28 27
M  V30 31 1 29 5
M  V30 32 1 29 28
M  V30 33 1 30 1
M  V30 34 1 31 1
M  V30 35 1 32 1
M  V30 36 1 33 4
M  V30 37 1 34 7
M  V30 38 1 35 9
M  V30 39 1 10 36 CFG=3
M  V30 40 1 37 11
M  V30 41 1 38 11
M  V30 42 1 39 13
M  V30 43 1 40 15
M  V30 44 1 41 16
M  V30 45 1 42 23
M  V30 46 1 43 24
M  V30 47 1 44 25
M  V30 48 1 45 25
M  V30 49 1 46 26
M  V30 50 1 47 26
M  V30 51 1 48 28
M  V30 52 1 49 28
M  V30 53 1 50 29
M  V30 54 1 51 29
M  V30 55 1 27 52 CFG=3
M  V30 END BOND
M  V30 END CTAB
M  END
>  <b_m_subgroup_collapsed>  (970) 
0

>  <r_i_docking_score>  (970) 
-7.64678068776686

>  <s_m_subgroup_title>  (970) 
glide-dock_SP_D22_pv

>  <s_m_subgroupid>  (970) 
glide-dock_SP_D22_pv

>  <Molecule ChEMBL ID>  (970) 
CHEMBL2335736

>  <Standard Type>  (970) 
Ki

>  <Standard Value>  (970) 
4.0

>  <label>  (970) 
1

$$$$
CHEMBL108856
     RDKit          3D

  0  0  0  0  0  0  0  0  0  0999 V3000
M  V30 BEGIN CTAB
M  V30 COUNTS 50 54 0 0 1
M  V30 BEGIN ATOM
M  V30 1 C 12.327904 9.368795 -2.316088 0
M  V30 2 C 11.930154 8.594354 -3.518193 0
M  V30 3 N 11.681645 9.072691 -4.735806 0
M  V30 4 C 11.286142 7.933516 -5.367795 0
M  V30 5 C 10.857683 7.942309 -6.775867 0
M  V30 6 C 9.759551 7.163034 -7.208828 0
M  V30 7 C 9.339984 7.188675 -8.552558 0
M  V30 8 C 10.018320 7.996896 -9.489061 0
M  V30 9 C 9.552629 8.050650 -10.929236 0
M  V30 10 S 10.590554 6.972465 -11.965441 0
M  V30 11 C 9.447883 5.713335 -12.465348 0
M  V30 12 N 8.167681 5.695186 -12.097827 0
M  V30 13 C 7.667964 4.584502 -12.732555 0
M  V30 14 C 6.366626 4.035920 -12.723486 0
M  V30 15 C 6.081790 2.874705 -13.472338 0
M  V30 16 C 7.086348 2.256981 -14.247081 0
M  V30 17 C 8.396193 2.779267 -14.248858 0
M  V30 18 C 8.678993 3.934165 -13.494269 0
M  V30 19 N 9.829831 4.688464 -13.272156 0
M  V30 20 C 11.156495 4.406566 -13.803725 0
M  V30 21 C 11.454170 5.187723 -15.070679 0
M  V30 22 C 12.423051 6.213189 -15.058104 0
M  V30 23 C 12.739891 6.903439 -16.245689 0
M  V30 24 C 12.084042 6.568337 -17.447117 0
M  V30 25 Cl 12.484410 7.384417 -18.911070 0
M  V30 26 C 11.101511 5.559113 -17.458084 0
M  V30 27 C 10.787665 4.868988 -16.273067 0
M  V30 28 C 11.123561 8.765366 -9.072047 0
M  V30 29 C 11.534744 8.739656 -7.726619 0
M  V30 30 N 11.286427 6.817586 -4.649354 0
M  V30 31 O 11.741321 7.255704 -3.396007 0
M  V30 32 H 13.395916 9.266695 -2.141020 0
M  V30 33 H 12.086055 10.422217 -2.455484 0
M  V30 34 H 11.791395 9.001047 -1.441909 0
M  V30 35 H 9.216313 6.552278 -6.500978 0
M  V30 36 H 8.485352 6.603532 -8.863028 0
M  V30 37 H 9.664539 9.063499 -11.300797 0
M  V30 38 H 8.487926 7.848471 -10.994249 0
M  V30 39 H 5.602243 4.512118 -12.122930 0
M  V30 40 H 5.081615 2.462539 -13.452179 0
M  V30 41 H 6.855892 1.371205 -14.820964 0
M  V30 42 H 9.173325 2.291167 -14.818701 0
M  V30 43 H 11.234723 3.337677 -14.012505 0
M  V30 44 H 11.908569 4.623092 -13.048188 0
M  V30 45 H 12.936930 6.466029 -14.141782 0
M  V30 46 H 13.486362 7.683861 -16.233198 0
M  V30 47 H 10.593163 5.310201 -18.378036 0
M  V30 48 H 10.045101 4.086632 -16.292847 0
M  V30 49 H 11.654857 9.380717 -9.784629 0
M  V30 50 H 12.379469 9.338696 -7.418948 0
M  V30 END ATOM
M  V30 BEGIN BOND
M  V30 1 1 2 1
M  V30 2 2 3 2
M  V30 3 1 4 3
M  V30 4 1 5 4
M  V30 5 1 6 5
M  V30 6 2 7 6
M  V30 7 1 8 7
M  V30 8 1 9 8
M  V30 9 1 10 9
M  V30 10 1 11 10
M  V30 11 2 12 11
M  V30 12 1 13 12
M  V30 13 2 14 13
M  V30 14 1 15 14
M  V30 15 2 16 15
M  V30 16 1 17 16
M  V30 17 1 18 13
M  V30 18 2 18 17
M  V30 19 1 19 11
M  V30 20 1 19 18
M  V30 21 1 20 19
M  V30 22 1 21 20
M  V30 23 1 22 21
M  V30 24 2 23 22
M  V30 25 1 24 23
M  V30 26 1 25 24
M  V30 27 2 26 24
M  V30 28 2 27 21
M  V30 29 1 27 26
M  V30 30 2 28 8
M  V30 31 2 29 5
M  V30 32 1 29 28
M  V30 33 2 30 4
M  V30 34 1 31 2
M  V30 35 1 31 30
M  V30 36 1 32 1
M  V30 37 1 33 1
M  V30 38 1 34 1
M  V30 39 1 35 6
M  V30 40 1 36 7
M  V30 41 1 37 9
M  V30 42 1 38 9
M  V30 43 1 39 14
M  V30 44 1 40 15
M  V30 45 1 41 16
M  V30 46 1 42 17
M  V30 47 1 43 20
M  V30 48 1 44 20
M  V30 49 1 45 22
M  V30 50 1 46 23
M  V30 51 1 47 26
M  V30 52 1 48 27
M  V30 53 1 49 28
M  V30 54 1 50 29
M  V30 END BOND
M  V30 END CTAB
M  END
>  <b_m_subgroup_collapsed>  (971) 
0

>  <r_i_docking_score>  (971) 
-7.6449028840512003

>  <s_m_subgroup_title>  (971) 
glide-dock_SP_D22_pv

>  <s_m_subgroupid>  (971) 
glide-dock_SP_D22_pv

>  <Molecule ChEMBL ID>  (971) 
CHEMBL108856

>  <Standard Type>  (971) 
Ki

>  <Standard Value>  (971) 
96.0

>  <label>  (971) 
1

$$$$
CHEMBL4089290
     RDKit          3D

  0  0  0  0  0  0  0  0  0  0999 V3000
M  V30 BEGIN CTAB
M  V30 COUNTS 64 68 0 0 1
M  V30 BEGIN ATOM
M  V30 1 C 5.619217 0.992051 -19.702745 0
M  V30 2 O 6.240776 1.187213 -18.437618 0
M  V30 3 C 5.881302 0.375533 -17.377571 0
M  V30 4 C 4.897436 -0.639452 -17.517178 0
M  V30 5 C 4.503670 -1.429617 -16.422806 0
M  V30 6 C 5.097552 -1.222987 -15.171264 0
M  V30 7 C 6.075864 -0.228030 -15.012655 0
M  V30 8 C 6.486001 0.588364 -16.097982 0
M  V30 9 N 7.438487 1.609489 -15.856627 0
M  V30 10 C 8.246285 2.242210 -16.883810 0
M  V30 11 C 9.337602 2.997123 -16.125729 0
M  V30 12 C 8.845161 3.146557 -14.688078 0 CFG=2
M  V30 13 C 8.252793 4.493465 -14.247170 0
M  V30 14 N 8.965236 4.354214 -12.978477 0 CFG=2 CHG=1
M  V30 15 C 9.587211 5.582364 -12.442052 0
M  V30 16 C 8.624599 6.414007 -11.572969 0
M  V30 17 C 9.179778 7.810245 -11.227507 0
M  V30 18 S 10.865637 7.772247 -10.538567 0
M  V30 19 C 10.539988 7.504408 -8.818976 0
M  V30 20 N 9.519776 6.808681 -8.322367 0
M  V30 21 N 9.675003 6.860530 -6.951910 0
M  V30 22 C 10.778506 7.582214 -6.727735 0
M  V30 23 C 11.259936 7.877969 -5.380359 0
M  V30 24 C 11.285976 9.208053 -4.907399 0
M  V30 25 C 11.690951 9.480426 -3.585780 0
M  V30 26 C 12.087556 8.430724 -2.735204 0
M  V30 27 C 12.086205 7.104282 -3.209493 0
M  V30 28 C 11.668389 6.830554 -4.527143 0
M  V30 29 N 11.367591 7.988482 -7.871540 0
M  V30 30 C 12.592457 8.736887 -8.062457 0
M  V30 31 C 9.896066 3.428003 -13.614317 0
M  V30 32 C 7.964999 1.903880 -14.533986 0
M  V30 33 H 6.017183 1.720783 -20.411188 0
M  V30 34 H 5.823926 -0.001255 -20.105669 0
M  V30 35 H 4.540524 1.151011 -19.648687 0
M  V30 36 H 4.408006 -0.832833 -18.457891 0
M  V30 37 H 3.756242 -2.201961 -16.547516 0
M  V30 38 H 4.804979 -1.826710 -14.325177 0
M  V30 39 H 6.501974 -0.108394 -14.031041 0
M  V30 40 H 8.667666 1.509647 -17.574642 0
M  V30 41 H 7.633909 2.943865 -17.449068 0
M  V30 42 H 9.555046 3.954165 -16.600084 0
M  V30 43 H 10.261365 2.417200 -16.144724 0
M  V30 44 H 7.167626 4.503863 -14.132310 0
M  V30 45 H 8.597273 5.335364 -14.853426 0
M  V30 46 H 9.999396 6.172882 -13.260724 0
M  V30 47 H 10.435921 5.277863 -11.836148 0
M  V30 48 H 8.384116 5.873572 -10.657851 0
M  V30 49 H 7.675049 6.552162 -12.092129 0
M  V30 50 H 8.517075 8.341005 -10.543530 0
M  V30 51 H 9.212762 8.410589 -12.138816 0
M  V30 52 H 10.967755 10.017551 -5.545899 0
M  V30 53 H 11.686856 10.496096 -3.214346 0
M  V30 54 H 12.387253 8.644538 -1.718393 0
M  V30 55 H 12.379478 6.294110 -2.556482 0
M  V30 56 H 11.643955 5.808459 -4.877094 0
M  V30 57 H 12.486404 9.371206 -8.937432 0
M  V30 58 H 12.821506 9.357945 -7.197485 0
M  V30 59 H 13.408983 8.043584 -8.247535 0
M  V30 60 H 10.788116 3.919228 -14.007673 0
M  V30 61 H 10.152915 2.572823 -12.996125 0
M  V30 62 H 8.546531 1.055723 -14.170507 0
M  V30 63 H 7.145792 2.073361 -13.834373 0
M  V30 64 H 8.403358 3.875531 -12.287783 0
M  V30 END ATOM
M  V30 BEGIN BOND
M  V30 1 1 2 1
M  V30 2 1 3 2
M  V30 3 2 4 3
M  V30 4 1 5 4
M  V30 5 2 6 5
M  V30 6 1 7 6
M  V30 7 1 8 3
M  V30 8 2 8 7
M  V30 9 1 9 8
M  V30 10 1 10 9
M  V30 11 1 11 10
M  V30 12 1 12 11 CFG=3
M  V30 13 1 13 12
M  V30 14 1 14 13
M  V30 15 1 15 14
M  V30 16 1 16 15
M  V30 17 1 17 16
M  V30 18 1 18 17
M  V30 19 1 19 18
M  V30 20 2 20 19
M  V30 21 1 21 20
M  V30 22 2 22 21
M  V30 23 1 23 22
M  V30 24 2 24 23
M  V30 25 1 25 24
M  V30 26 2 26 25
M  V30 27 1 27 26
M  V30 28 1 28 23
M  V30 29 2 28 27
M  V30 30 1 29 19
M  V30 31 1 29 22
M  V30 32 1 30 29
M  V30 33 1 31 12
M  V30 34 1 31 14
M  V30 35 1 32 9
M  V30 36 1 32 12
M  V30 37 1 33 1
M  V30 38 1 34 1
M  V30 39 1 35 1
M  V30 40 1 36 4
M  V30 41 1 37 5
M  V30 42 1 38 6
M  V30 43 1 39 7
M  V30 44 1 40 10
M  V30 45 1 41 10
M  V30 46 1 42 11
M  V30 47 1 43 11
M  V30 48 1 44 13
M  V30 49 1 45 13
M  V30 50 1 46 15
M  V30 51 1 47 15
M  V30 52 1 48 16
M  V30 53 1 49 16
M  V30 54 1 50 17
M  V30 55 1 51 17
M  V30 56 1 52 24
M  V30 57 1 53 25
M  V30 58 1 54 26
M  V30 59 1 55 27
M  V30 60 1 56 28
M  V30 61 1 57 30
M  V30 62 1 58 30
M  V30 63 1 59 30
M  V30 64 1 60 31
M  V30 65 1 61 31
M  V30 66 1 62 32
M  V30 67 1 63 32
M  V30 68 1 14 64 CFG=1
M  V30 END BOND
M  V30 END CTAB
M  END
>  <b_m_subgroup_collapsed>  (972) 
0

>  <r_i_docking_score>  (972) 
-7.6440528926131499

>  <s_m_subgroup_title>  (972) 
glide-dock_SP_D22_pv

>  <s_m_subgroupid>  (972) 
glide-dock_SP_D22_pv

>  <Molecule ChEMBL ID>  (972) 
CHEMBL4089290

>  <Standard Type>  (972) 
Ki

>  <Standard Value>  (972) 
60152.0

>  <label>  (972) 
0

$$$$
CHEMBL1214891
     RDKit          3D

  0  0  0  0  0  0  0  0  0  0999 V3000
M  V30 BEGIN CTAB
M  V30 COUNTS 56 59 0 0 1
M  V30 BEGIN ATOM
M  V30 1 F 2.887851 -1.027723 -17.181133 0
M  V30 2 C 4.123193 -1.146665 -16.701260 0
M  V30 3 F 4.927551 -0.309191 -17.355667 0
M  V30 4 C 4.121067 -0.845355 -15.198111 0
M  V30 5 C 5.486372 -1.084579 -14.527398 0
M  V30 6 O 6.467765 -0.121185 -14.895429 0
M  V30 7 C 6.485496 1.109504 -14.270672 0
M  V30 8 C 7.518261 1.991882 -14.646525 0
M  V30 9 C 7.605154 3.282795 -14.091209 0
M  V30 10 C 6.651791 3.715384 -13.146849 0
M  V30 11 C 6.694124 5.136006 -12.620033 0
M  V30 12 N 8.008767 5.547606 -12.124014 0
M  V30 13 C 8.072515 5.249316 -10.691333 0
M  V30 14 C 9.390005 5.729214 -10.077158 0
M  V30 15 N 9.543281 7.194462 -10.266735 0 CHG=1
M  V30 16 C 10.787582 7.751338 -9.676408 0
M  V30 17 C 10.842593 7.773873 -8.177614 0
M  V30 18 C 10.982743 6.771431 -7.245138 0
M  V30 19 C 11.185143 7.421951 -5.982681 0
M  V30 20 C 11.451620 7.029494 -4.649468 0
M  V30 21 C 11.686073 7.995666 -3.646446 0
M  V30 22 C 11.625459 9.372611 -3.946821 0
M  V30 23 C 11.327366 9.790410 -5.258440 0
M  V30 24 C 11.126997 8.812626 -6.246833 0
M  V30 25 O 10.892690 9.012527 -7.591689 0
M  V30 26 C 9.446535 7.513565 -11.712368 0
M  V30 27 C 8.126437 6.992910 -12.298851 0
M  V30 28 C 5.624787 2.836407 -12.752206 0
M  V30 29 C 5.542423 1.541544 -13.303689 0
M  V30 30 H 4.449013 -2.166508 -16.910357 0
M  V30 31 H 3.386054 -1.496671 -14.724613 0
M  V30 32 H 3.772590 0.171812 -15.025554 0
M  V30 33 H 5.854447 -2.067994 -14.817210 0
M  V30 34 H 5.392410 -1.124934 -13.446853 0
M  V30 35 H 8.248027 1.676384 -15.377581 0
M  V30 36 H 8.396564 3.947788 -14.405758 0
M  V30 37 H 6.388383 5.770154 -13.446800 0
M  V30 38 H 5.925714 5.281391 -11.857908 0
M  V30 39 H 7.276089 5.772242 -10.171803 0
M  V30 40 H 7.937525 4.177794 -10.525301 0
M  V30 41 H 9.381661 5.482406 -9.017153 0
M  V30 42 H 10.215686 5.189695 -10.530676 0
M  V30 43 H 11.644431 7.195746 -10.059946 0
M  V30 44 H 10.916649 8.773270 -10.037666 0
M  V30 45 H 11.014185 5.706097 -7.412652 0
M  V30 46 H 11.503757 5.978360 -4.404162 0
M  V30 47 H 11.903816 7.677277 -2.637177 0
M  V30 48 H 11.800888 10.104779 -3.170113 0
M  V30 49 H 11.282185 10.839830 -5.508226 0
M  V30 50 H 9.496148 8.593272 -11.857078 0
M  V30 51 H 10.293221 7.081938 -12.249448 0
M  V30 52 H 8.083762 7.219384 -13.362385 0
M  V30 53 H 7.285930 7.506978 -11.850287 0
M  V30 54 H 4.887468 3.158481 -12.033761 0
M  V30 55 H 4.730320 0.909312 -12.983882 0
M  V30 56 H 8.743395 7.633976 -9.824017 0
M  V30 END ATOM
M  V30 BEGIN BOND
M  V30 1 1 2 1
M  V30 2 1 3 2
M  V30 3 1 4 2
M  V30 4 1 5 4
M  V30 5 1 6 5
M  V30 6 1 7 6
M  V30 7 1 8 7
M  V30 8 2 9 8
M  V30 9 1 10 9
M  V30 10 1 11 10
M  V30 11 1 12 11
M  V30 12 1 13 12
M  V30 13 1 14 13
M  V30 14 1 15 14
M  V30 15 1 16 15
M  V30 16 1 17 16
M  V30 17 2 18 17
M  V30 18 1 19 18
M  V30 19 2 20 19
M  V30 20 1 21 20
M  V30 21 2 22 21
M  V30 22 1 23 22
M  V30 23 1 24 19
M  V30 24 2 24 23
M  V30 25 1 25 17
M  V30 26 1 25 24
M  V30 27 1 26 15
M  V30 28 1 27 12
M  V30 29 1 27 26
M  V30 30 2 28 10
M  V30 31 2 29 7
M  V30 32 1 29 28
M  V30 33 1 30 2
M  V30 34 1 31 4
M  V30 35 1 32 4
M  V30 36 1 33 5
M  V30 37 1 34 5
M  V30 38 1 35 8
M  V30 39 1 36 9
M  V30 40 1 37 11
M  V30 41 1 38 11
M  V30 42 1 39 13
M  V30 43 1 40 13
M  V30 44 1 41 14
M  V30 45 1 42 14
M  V30 46 1 43 16
M  V30 47 1 44 16
M  V30 48 1 45 18
M  V30 49 1 46 20
M  V30 50 1 47 21
M  V30 51 1 48 22
M  V30 52 1 49 23
M  V30 53 1 50 26
M  V30 54 1 51 26
M  V30 55 1 52 27
M  V30 56 1 53 27
M  V30 57 1 54 28
M  V30 58 1 55 29
M  V30 59 1 56 15
M  V30 END BOND
M  V30 END CTAB
M  END
>  <b_m_subgroup_collapsed>  (973) 
0

>  <r_i_docking_score>  (973) 
-7.6419837503605699

>  <s_m_subgroup_title>  (973) 
glide-dock_SP_D22_pv

>  <s_m_subgroupid>  (973) 
glide-dock_SP_D22_pv

>  <Molecule ChEMBL ID>  (973) 
CHEMBL1214891

>  <Standard Type>  (973) 
Ki

>  <Standard Value>  (973) 
10000.0

>  <label>  (973) 
0

$$$$
CHEMBL293956
     RDKit          3D

  0  0  0  0  0  0  0  0  0  0999 V3000
M  V30 BEGIN CTAB
M  V30 COUNTS 44 46 0 0 1
M  V30 BEGIN ATOM
M  V30 1 N 9.037991 2.767980 -15.035543 0
M  V30 2 C 8.249274 3.081243 -14.247918 0
M  V30 3 C 7.248711 3.458449 -13.308820 0
M  V30 4 C 6.030103 2.735472 -13.193703 0
M  V30 5 N 5.060649 2.121506 -13.045097 0
M  V30 6 C 7.438190 4.500001 -12.480084 0
M  V30 7 C 8.560923 5.374111 -12.317697 0
M  V30 8 C 9.823436 5.448710 -12.843644 0
M  V30 9 C 10.485560 6.569340 -12.254138 0
M  V30 10 C 9.614947 7.154080 -11.380040 0
M  V30 11 C 9.721231 8.294568 -10.437784 0
M  V30 12 N 9.686944 7.834253 -9.029872 0 CHG=1
M  V30 13 C 10.867406 6.991738 -8.666494 0
M  V30 14 C 10.907003 6.609546 -7.172727 0
M  V30 15 N 10.702228 7.793759 -6.354264 0
M  V30 16 C 11.286552 7.927740 -5.078438 0
M  V30 17 C 11.666683 6.800556 -4.311538 0
M  V30 18 C 12.215345 6.958540 -3.023959 0
M  V30 19 C 12.417048 8.245362 -2.493555 0
M  V30 20 C 12.071293 9.372218 -3.257857 0
M  V30 21 C 11.510153 9.216845 -4.538838 0
M  V30 22 C 9.480360 8.521566 -6.646453 0
M  V30 23 C 9.479908 8.971754 -8.106709 0
M  V30 24 N 8.450275 6.435160 -11.448950 0
M  V30 25 H 6.621890 4.716048 -11.802948 0
M  V30 26 H 10.245649 4.770494 -13.571272 0
M  V30 27 H 11.496017 6.897073 -12.446025 0
M  V30 28 H 10.633401 8.861930 -10.626992 0
M  V30 29 H 8.887377 8.976336 -10.618727 0
M  V30 30 H 10.880629 6.081996 -9.266555 0
M  V30 31 H 11.775627 7.544853 -8.909312 0
M  V30 32 H 10.122970 5.885973 -6.946767 0
M  V30 33 H 11.861659 6.136689 -6.940094 0
M  V30 34 H 11.507588 5.800236 -4.684709 0
M  V30 35 H 12.472357 6.087365 -2.439519 0
M  V30 36 H 12.835814 8.370306 -1.505656 0
M  V30 37 H 12.224957 10.362003 -2.852072 0
M  V30 38 H 11.257291 10.099670 -5.107311 0
M  V30 39 H 8.626179 7.867777 -6.463653 0
M  V30 40 H 9.360233 9.372279 -5.983870 0
M  V30 41 H 10.283371 9.692989 -8.265199 0
M  V30 42 H 8.535385 9.465675 -8.336308 0
M  V30 43 H 7.594651 6.701428 -10.953824 0
M  V30 44 H 8.861278 7.256243 -8.931856 0
M  V30 END ATOM
M  V30 BEGIN BOND
M  V30 1 3 2 1
M  V30 2 1 3 2
M  V30 3 1 4 3
M  V30 4 3 5 4
M  V30 5 2 6 3 CFG=2
M  V30 6 1 7 6
M  V30 7 2 8 7
M  V30 8 1 9 8
M  V30 9 2 10 9
M  V30 10 1 11 10
M  V30 11 1 12 11
M  V30 12 1 13 12
M  V30 13 1 14 13
M  V30 14 1 15 14
M  V30 15 1 16 15
M  V30 16 2 17 16
M  V30 17 1 18 17
M  V30 18 2 19 18
M  V30 19 1 20 19
M  V30 20 1 21 16
M  V30 21 2 21 20
M  V30 22 1 22 15
M  V30 23 1 23 12
M  V30 24 1 23 22
M  V30 25 1 24 7
M  V30 26 1 24 10
M  V30 27 1 25 6
M  V30 28 1 26 8
M  V30 29 1 27 9
M  V30 30 1 28 11
M  V30 31 1 29 11
M  V30 32 1 30 13
M  V30 33 1 31 13
M  V30 34 1 32 14
M  V30 35 1 33 14
M  V30 36 1 34 17
M  V30 37 1 35 18
M  V30 38 1 36 19
M  V30 39 1 37 20
M  V30 40 1 38 21
M  V30 41 1 39 22
M  V30 42 1 40 22
M  V30 43 1 41 23
M  V30 44 1 42 23
M  V30 45 1 43 24
M  V30 46 1 44 12
M  V30 END BOND
M  V30 END CTAB
M  END
>  <b_m_subgroup_collapsed>  (974) 
0

>  <r_i_docking_score>  (974) 
-7.6375509769178596

>  <s_m_subgroup_title>  (974) 
glide-dock_SP_D22_pv

>  <s_m_subgroupid>  (974) 
glide-dock_SP_D22_pv

>  <Molecule ChEMBL ID>  (974) 
CHEMBL293956

>  <Standard Type>  (974) 
Ki

>  <Standard Value>  (974) 
100000.0

>  <label>  (974) 
0

$$$$
CHEMBL443006
     RDKit          3D

  0  0  0  0  0  0  0  0  0  0999 V3000
M  V30 BEGIN CTAB
M  V30 COUNTS 52 55 0 0 1
M  V30 BEGIN ATOM
M  V30 1 C 11.388436 7.589672 -4.183995 0
M  V30 2 S 11.718539 9.373165 -4.463819 0
M  V30 3 O 10.486030 10.172275 -4.410262 0
M  V30 4 O 12.885863 9.761539 -3.668638 0
M  V30 5 N 12.245453 9.386444 -6.104723 0
M  V30 6 C 11.570748 8.919220 -7.234117 0
M  V30 7 C 12.306802 8.572538 -8.385840 0
M  V30 8 C 11.642356 8.208498 -9.571676 0
M  V30 9 C 10.235271 8.165693 -9.600085 0
M  V30 10 C 9.496752 7.806762 -10.867722 0
M  V30 11 C 9.452401 6.289996 -11.069906 0
M  V30 12 N 8.638887 5.931600 -12.250115 0 CFG=2 CHG=1
M  V30 13 C 7.169816 5.973975 -12.044602 0
M  V30 14 C 6.563782 4.905501 -12.977448 0 CFG=2
M  V30 15 C 5.839691 3.784113 -12.216815 0
M  V30 16 O 5.453152 2.733179 -13.092332 0
M  V30 17 C 6.464197 2.181113 -13.846835 0
M  V30 18 C 6.326129 0.845889 -14.270644 0
M  V30 19 C 7.355019 0.224002 -15.001044 0
M  V30 20 C 8.529160 0.935665 -15.319363 0
M  V30 21 C 9.600833 0.288429 -16.056747 0
M  V30 22 N 10.454309 -0.226494 -16.645346 0
M  V30 23 C 8.661035 2.281686 -14.922190 0
M  V30 24 C 7.629897 2.907449 -14.188512 0
M  V30 25 C 7.766604 4.354085 -13.755851 0 CFG=2
M  V30 26 C 8.938725 4.606853 -12.813817 0
M  V30 27 C 9.502393 8.444248 -8.432434 0
M  V30 28 C 10.164705 8.816978 -7.253602 0
M  V30 29 H 11.285975 7.413404 -3.113667 0
M  V30 30 H 12.237718 7.009105 -4.540310 0
M  V30 31 H 10.492459 7.278416 -4.721883 0
M  V30 32 H 13.212236 9.653208 -6.244162 0
M  V30 33 H 13.384165 8.638391 -8.383222 0
M  V30 34 H 12.215863 7.985029 -10.458950 0
M  V30 35 H 8.490600 8.225330 -10.825905 0
M  V30 36 H 9.987081 8.287482 -11.713888 0
M  V30 37 H 10.477234 5.942207 -11.215904 0
M  V30 38 H 9.068902 5.784732 -10.180791 0
M  V30 39 H 6.913459 5.768651 -11.005203 0
M  V30 40 H 6.788000 6.972690 -12.259680 0
M  V30 41 H 5.836643 5.348057 -13.659444 0
M  V30 42 H 6.474935 3.374265 -11.429387 0
M  V30 43 H 4.948471 4.177985 -11.728709 0
M  V30 44 H 5.434467 0.290329 -14.021693 0
M  V30 45 H 7.234954 -0.803865 -15.308207 0
M  V30 46 H 9.555438 2.833335 -15.177294 0
M  V30 47 H 7.917189 4.963050 -14.646845 0
M  V30 48 H 9.902122 4.583547 -13.323463 0
M  V30 49 H 8.959527 3.862806 -12.014879 0
M  V30 50 H 8.425188 8.389469 -8.437605 0
M  V30 51 H 9.568178 9.050152 -6.387139 0
M  V30 52 H 8.850708 6.599743 -12.976941 0
M  V30 END ATOM
M  V30 BEGIN BOND
M  V30 1 1 2 1
M  V30 2 2 3 2
M  V30 3 2 4 2
M  V30 4 1 5 2
M  V30 5 1 6 5
M  V30 6 1 7 6
M  V30 7 2 8 7
M  V30 8 1 9 8
M  V30 9 1 10 9
M  V30 10 1 11 10
M  V30 11 1 12 11
M  V30 12 1 13 12
M  V30 13 1 14 13
M  V30 14 1 15 14
M  V30 15 1 16 15
M  V30 16 1 17 16
M  V30 17 1 18 17
M  V30 18 2 19 18
M  V30 19 1 20 19
M  V30 20 1 21 20
M  V30 21 3 22 21
M  V30 22 2 23 20
M  V30 23 2 24 17
M  V30 24 1 24 23
M  V30 25 1 25 14
M  V30 26 1 25 24
M  V30 27 1 26 12
M  V30 28 1 26 25
M  V30 29 2 27 9
M  V30 30 2 28 6
M  V30 31 1 28 27
M  V30 32 1 29 1
M  V30 33 1 30 1
M  V30 34 1 31 1
M  V30 35 1 32 5
M  V30 36 1 33 7
M  V30 37 1 34 8
M  V30 38 1 35 10
M  V30 39 1 36 10
M  V30 40 1 37 11
M  V30 41 1 38 11
M  V30 42 1 39 13
M  V30 43 1 40 13
M  V30 44 1 14 41 CFG=3
M  V30 45 1 42 15
M  V30 46 1 43 15
M  V30 47 1 44 18
M  V30 48 1 45 19
M  V30 49 1 46 23
M  V30 50 1 25 47 CFG=3
M  V30 51 1 48 26
M  V30 52 1 49 26
M  V30 53 1 50 27
M  V30 54 1 51 28
M  V30 55 1 12 52 CFG=3
M  V30 END BOND
M  V30 END CTAB
M  END
>  <b_m_subgroup_collapsed>  (975) 
0

>  <r_i_docking_score>  (975) 
-7.63715355082687

>  <s_m_subgroup_title>  (975) 
glide-dock_SP_D22_pv

>  <s_m_subgroupid>  (975) 
glide-dock_SP_D22_pv

>  <Molecule ChEMBL ID>  (975) 
CHEMBL443006

>  <Standard Type>  (975) 
Ki

>  <Standard Value>  (975) 
25.12

>  <label>  (975) 
1

$$$$
CHEMBL519201
     RDKit          3D

  0  0  0  0  0  0  0  0  0  0999 V3000
M  V30 BEGIN CTAB
M  V30 COUNTS 47 50 0 0 1
M  V30 BEGIN ATOM
M  V30 1 C 8.736113 4.258508 -13.151580 0
M  V30 2 C 8.995408 5.772331 -13.157411 0
M  V30 3 C 8.477604 6.544527 -11.926587 0
M  V30 4 N 9.076970 6.035475 -10.661059 0 CFG=2 CHG=1
M  V30 5 C 8.120835 5.132787 -9.983857 0
M  V30 6 C 8.756601 4.478502 -8.752773 0
M  V30 7 O 9.091094 5.511991 -7.847301 0
M  V30 8 C 10.067899 6.375133 -8.399918 0 CFG=2
M  V30 9 C 10.617746 7.340068 -7.361720 0
M  V30 10 C 10.839395 6.877515 -6.042056 0
M  V30 11 C 11.363874 7.774010 -5.103014 0
M  V30 12 C 11.636736 9.082234 -5.431609 0
M  V30 13 C 11.450972 9.568540 -6.735022 0
M  V30 14 C 10.967402 8.672126 -7.721692 0
M  V30 15 C 10.810739 9.151999 -9.160589 0
M  V30 16 C 10.613180 8.027187 -10.186460 0
M  V30 17 C 9.522916 7.068079 -9.676526 0 CFG=1
M  V30 18 C 12.166582 9.772264 -4.206119 0
M  V30 19 N 12.175341 8.700522 -3.203063 0
M  V30 20 C 12.628485 8.942578 -1.841839 0
M  V30 21 C 11.750148 7.523887 -3.694523 0
M  V30 22 O 11.686309 6.450050 -3.108641 0
M  V30 23 H 9.053925 3.811918 -14.094383 0
M  V30 24 H 7.675202 4.037922 -13.026916 0
M  V30 25 H 9.287404 3.755291 -12.356552 0
M  V30 26 H 10.061960 5.959144 -13.291108 0
M  V30 27 H 8.495724 6.172316 -14.038937 0
M  V30 28 H 8.681566 7.602598 -12.071446 0
M  V30 29 H 7.387831 6.488383 -11.888257 0
M  V30 30 H 7.286378 5.772231 -9.690005 0
M  V30 31 H 7.729373 4.367910 -10.653069 0
M  V30 32 H 8.079656 3.786418 -8.260835 0
M  V30 33 H 9.637753 3.894893 -9.027599 0
M  V30 34 H 10.907219 5.751060 -8.687438 0
M  V30 35 H 10.627045 5.858823 -5.760160 0
M  V30 36 H 11.685384 10.593624 -6.977151 0
M  V30 37 H 9.919018 9.772342 -9.189692 0
M  V30 38 H 11.659702 9.772360 -9.449096 0
M  V30 39 H 10.371070 8.481549 -11.144917 0
M  V30 40 H 11.548928 7.485139 -10.331993 0
M  V30 41 H 8.647625 7.661596 -9.404181 0
M  V30 42 H 13.170053 10.162953 -4.383543 0
M  V30 43 H 11.492354 10.572236 -3.900924 0
M  V30 44 H 12.486362 8.074791 -1.199603 0
M  V30 45 H 12.086216 9.772355 -1.397402 0
M  V30 46 H 13.685785 9.187811 -1.842107 0
M  V30 47 H 9.887859 5.492743 -10.918122 0
M  V30 END ATOM
M  V30 BEGIN BOND
M  V30 1 1 2 1
M  V30 2 1 3 2
M  V30 3 1 4 3
M  V30 4 1 5 4
M  V30 5 1 6 5
M  V30 6 1 7 6
M  V30 7 1 8 7
M  V30 8 1 9 8
M  V30 9 1 10 9
M  V30 10 2 11 10
M  V30 11 1 12 11
M  V30 12 2 13 12
M  V30 13 2 14 9
M  V30 14 1 14 13
M  V30 15 1 15 14
M  V30 16 1 16 15
M  V30 17 1 17 4
M  V30 18 1 17 8
M  V30 19 1 17 16
M  V30 20 1 18 12
M  V30 21 1 19 18
M  V30 22 1 20 19
M  V30 23 1 21 11
M  V30 24 1 21 19
M  V30 25 2 22 21
M  V30 26 1 23 1
M  V30 27 1 24 1
M  V30 28 1 25 1
M  V30 29 1 26 2
M  V30 30 1 27 2
M  V30 31 1 28 3
M  V30 32 1 29 3
M  V30 33 1 30 5
M  V30 34 1 31 5
M  V30 35 1 32 6
M  V30 36 1 33 6
M  V30 37 1 8 34 CFG=3
M  V30 38 1 35 10
M  V30 39 1 36 13
M  V30 40 1 37 15
M  V30 41 1 38 15
M  V30 42 1 39 16
M  V30 43 1 40 16
M  V30 44 1 17 41 CFG=1
M  V30 45 1 42 18
M  V30 46 1 43 18
M  V30 47 1 44 20
M  V30 48 1 45 20
M  V30 49 1 46 20
M  V30 50 1 4 47 CFG=3
M  V30 END BOND
M  V30 END CTAB
M  END
>  <b_m_subgroup_collapsed>  (976) 
0

>  <r_i_docking_score>  (976) 
-7.6370568636230196

>  <s_m_subgroup_title>  (976) 
glide-dock_SP_D22_pv

>  <s_m_subgroupid>  (976) 
glide-dock_SP_D22_pv

>  <Molecule ChEMBL ID>  (976) 
CHEMBL519201

>  <Standard Type>  (976) 
Ki

>  <Standard Value>  (976) 
10000.0

>  <label>  (976) 
0

$$$$
CHEMBL1214829
     RDKit          3D

  0  0  0  0  0  0  0  0  0  0999 V3000
M  V30 BEGIN CTAB
M  V30 COUNTS 46 49 0 0 1
M  V30 BEGIN ATOM
M  V30 1 C 12.388119 9.246633 -4.260194 0
M  V30 2 C 12.190141 7.867708 -4.059464 0
M  V30 3 C 11.286017 7.161500 -4.875180 0
M  V30 4 C 10.524112 7.846221 -5.846816 0
M  V30 5 C 9.474655 7.101774 -6.645773 0
M  V30 6 N 9.822026 6.843590 -8.040780 0
M  V30 7 C 9.629329 8.076670 -8.813693 0
M  V30 8 C 9.825159 7.832924 -10.307499 0
M  V30 9 N 8.886024 6.796665 -10.778392 0 CHG=1
M  V30 10 C 8.924911 6.672231 -12.249243 0
M  V30 11 C 8.269484 5.447716 -12.792690 0
M  V30 12 C 6.983868 4.971219 -12.692382 0
M  V30 13 C 6.996195 3.692782 -13.345383 0
M  V30 14 C 6.085608 2.634638 -13.563169 0
M  V30 15 C 6.484468 1.463561 -14.246845 0
M  V30 16 C 7.797099 1.331182 -14.745308 0
M  V30 17 C 8.725110 2.370517 -14.548591 0
M  V30 18 C 8.311254 3.515332 -13.847033 0
M  V30 19 O 9.078313 4.606390 -13.507965 0
M  V30 20 C 9.092978 5.543458 -10.011471 0
M  V30 21 C 8.886070 5.824754 -8.519091 0
M  V30 22 C 10.698846 9.232138 -6.013157 0
M  V30 23 C 11.651937 9.921782 -5.253403 0
M  V30 24 H 13.106968 9.778195 -3.654967 0
M  V30 25 H 12.754695 7.345155 -3.301185 0
M  V30 26 H 11.149400 6.100802 -4.724586 0
M  V30 27 H 9.301411 6.165191 -6.125071 0
M  V30 28 H 8.526543 7.640515 -6.580401 0
M  V30 29 H 8.638989 8.499582 -8.632243 0
M  V30 30 H 10.367628 8.819909 -8.524719 0
M  V30 31 H 9.647815 8.762922 -10.849299 0
M  V30 32 H 10.855253 7.533440 -10.509784 0
M  V30 33 H 8.445583 7.557588 -12.667619 0
M  V30 34 H 9.963994 6.694575 -12.583441 0
M  V30 35 H 6.148826 5.426797 -12.176856 0
M  V30 36 H 5.076200 2.717328 -13.188916 0
M  V30 37 H 5.775748 0.661822 -14.396497 0
M  V30 38 H 8.088960 0.430994 -15.268032 0
M  V30 39 H 9.740338 2.282511 -14.904785 0
M  V30 40 H 8.374241 4.778143 -10.302729 0
M  V30 41 H 10.086082 5.136700 -10.199243 0
M  V30 42 H 9.032083 4.901471 -7.956388 0
M  V30 43 H 7.857507 6.140417 -8.346279 0
M  V30 44 H 10.097109 9.779546 -6.719064 0
M  V30 45 H 11.792006 10.973259 -5.444591 0
M  V30 46 H 7.941546 7.121217 -10.548353 0
M  V30 END ATOM
M  V30 BEGIN BOND
M  V30 1 2 2 1
M  V30 2 1 3 2
M  V30 3 2 4 3
M  V30 4 1 5 4
M  V30 5 1 6 5
M  V30 6 1 7 6
M  V30 7 1 8 7
M  V30 8 1 9 8
M  V30 9 1 10 9
M  V30 10 1 11 10
M  V30 11 2 12 11
M  V30 12 1 13 12
M  V30 13 2 14 13
M  V30 14 1 15 14
M  V30 15 2 16 15
M  V30 16 1 17 16
M  V30 17 1 18 13
M  V30 18 2 18 17
M  V30 19 1 19 11
M  V30 20 1 19 18
M  V30 21 1 20 9
M  V30 22 1 21 6
M  V30 23 1 21 20
M  V30 24 1 22 4
M  V30 25 1 23 1
M  V30 26 2 23 22
M  V30 27 1 24 1
M  V30 28 1 25 2
M  V30 29 1 26 3
M  V30 30 1 27 5
M  V30 31 1 28 5
M  V30 32 1 29 7
M  V30 33 1 30 7
M  V30 34 1 31 8
M  V30 35 1 32 8
M  V30 36 1 33 10
M  V30 37 1 34 10
M  V30 38 1 35 12
M  V30 39 1 36 14
M  V30 40 1 37 15
M  V30 41 1 38 16
M  V30 42 1 39 17
M  V30 43 1 40 20
M  V30 44 1 41 20
M  V30 45 1 42 21
M  V30 46 1 43 21
M  V30 47 1 44 22
M  V30 48 1 45 23
M  V30 49 1 46 9
M  V30 END BOND
M  V30 END CTAB
M  END
>  <b_m_subgroup_collapsed>  (977) 
0

>  <r_i_docking_score>  (977) 
-7.6363662701985699

>  <s_m_subgroup_title>  (977) 
glide-dock_SP_D22_pv

>  <s_m_subgroupid>  (977) 
glide-dock_SP_D22_pv

>  <Molecule ChEMBL ID>  (977) 
CHEMBL1214829

>  <Standard Type>  (977) 
Ki

>  <Standard Value>  (977) 
10000.0

>  <label>  (977) 
0

$$$$
CHEMBL4515093
     RDKit          3D

  0  0  0  0  0  0  0  0  0  0999 V3000
M  V30 BEGIN CTAB
M  V30 COUNTS 74 78 0 0 1
M  V30 BEGIN ATOM
M  V30 1 C 6.773082 -1.001106 -17.693533 0
M  V30 2 O 7.921525 -0.185446 -17.513838 0
M  V30 3 C 8.860074 -0.130917 -18.525331 0
M  V30 4 C 8.661450 -0.744747 -19.790476 0
M  V30 5 C 9.623782 -0.624698 -20.810299 0
M  V30 6 C 10.801452 0.104590 -20.581017 0
M  V30 7 C 11.012907 0.713459 -19.331825 0
M  V30 8 C 10.055490 0.601701 -18.298405 0
M  V30 9 N 10.319674 1.252944 -17.080431 0
M  V30 10 C 10.137883 0.590679 -15.791749 0
M  V30 11 C 9.110645 1.350698 -14.930139 0
M  V30 12 C 9.414395 2.868857 -14.814068 0
M  V30 13 C 8.244287 3.544682 -14.058163 0
M  V30 14 C 8.529158 4.999919 -13.637768 0
M  V30 15 N 9.775006 5.075505 -12.827123 0 CHG=1
M  V30 16 C 10.037257 6.418264 -12.248985 0
M  V30 17 C 9.057611 6.796714 -11.120226 0
M  V30 18 C 9.265927 8.223203 -10.597796 0
M  V30 19 S 10.886540 8.464225 -9.822845 0
M  V30 20 C 10.542332 7.909740 -8.178579 0
M  V30 21 N 9.683118 6.955933 -7.845954 0
M  V30 22 C 9.775244 6.869431 -6.462116 0
M  V30 23 C 10.735648 7.736069 -6.001467 0
M  V30 24 C 11.286798 7.928697 -4.662872 0
M  V30 25 C 11.434388 9.215447 -4.093554 0
M  V30 26 C 12.028434 9.379061 -2.830684 0
M  V30 27 C 12.478067 8.256010 -2.114218 0
M  V30 28 C 12.300204 6.968327 -2.655740 0
M  V30 29 C 11.704585 6.804594 -3.918953 0
M  V30 30 N 11.171714 8.438712 -7.115170 0
M  V30 31 C 12.089165 9.547259 -7.165442 0
M  V30 32 C 10.927920 4.567267 -13.611541 0
M  V30 33 C 10.700596 3.095144 -13.980369 0
M  V30 34 C 9.551121 3.435087 -16.255762 0
M  V30 35 C 10.602242 2.682771 -17.094038 0
M  V30 36 H 6.170424 -0.989385 -16.783901 0
M  V30 37 H 6.145113 -0.628082 -18.504944 0
M  V30 38 H 7.048489 -2.038865 -17.892775 0
M  V30 39 H 7.768176 -1.302961 -20.012281 0
M  V30 40 H 9.456621 -1.091544 -21.770102 0
M  V30 41 H 11.543776 0.195925 -21.360641 0
M  V30 42 H 11.925677 1.263963 -19.165226 0
M  V30 43 H 11.101552 0.555661 -15.284417 0
M  V30 44 H 9.830140 -0.446364 -15.923441 0
M  V30 45 H 9.055490 0.890737 -13.941649 0
M  V30 46 H 8.122268 1.217627 -15.371745 0
M  V30 47 H 8.023344 2.975471 -13.157599 0
M  V30 48 H 7.329791 3.497481 -14.647130 0
M  V30 49 H 7.671746 5.357584 -13.072096 0
M  V30 50 H 8.612316 5.643940 -14.512402 0
M  V30 51 H 10.042962 7.150449 -13.046906 0
M  V30 52 H 11.046040 6.451755 -11.845497 0
M  V30 53 H 9.132630 6.077880 -10.304248 0
M  V30 54 H 8.027257 6.736356 -11.463229 0
M  V30 55 H 8.486382 8.498666 -9.885910 0
M  V30 56 H 9.173307 8.924801 -11.426319 0
M  V30 57 H 9.162194 6.185556 -5.901221 0
M  V30 58 H 11.085086 10.091439 -4.621984 0
M  V30 59 H 12.093266 10.368116 -2.394997 0
M  V30 60 H 12.928606 8.384008 -1.138630 0
M  V30 61 H 12.627470 6.097469 -2.102881 0
M  V30 62 H 11.591462 5.800203 -4.315754 0
M  V30 63 H 12.652337 9.674622 -6.242713 0
M  V30 64 H 12.819465 9.371987 -7.961088 0
M  V30 65 H 11.470999 10.430407 -7.352294 0
M  V30 66 H 11.070663 5.178987 -14.501945 0
M  V30 67 H 11.854239 4.648568 -13.047168 0
M  V30 68 H 10.616843 2.536864 -13.051301 0
M  V30 69 H 11.582099 2.700189 -14.485065 0
M  V30 70 H 8.594273 3.350942 -16.769768 0
M  V30 71 H 9.785978 4.499177 -16.249987 0
M  V30 72 H 11.608438 2.851184 -16.709042 0
M  V30 73 H 10.598038 3.071009 -18.115274 0
M  V30 74 H 9.653500 4.443291 -12.046740 0
M  V30 END ATOM
M  V30 BEGIN BOND
M  V30 1 1 2 1
M  V30 2 1 3 2
M  V30 3 2 4 3
M  V30 4 1 5 4
M  V30 5 2 6 5
M  V30 6 1 7 6
M  V30 7 1 8 3
M  V30 8 2 8 7
M  V30 9 1 9 8
M  V30 10 1 10 9
M  V30 11 1 11 10
M  V30 12 1 12 11
M  V30 13 1 13 12
M  V30 14 1 14 13
M  V30 15 1 15 14
M  V30 16 1 16 15
M  V30 17 1 17 16
M  V30 18 1 18 17
M  V30 19 1 19 18
M  V30 20 1 20 19
M  V30 21 2 21 20
M  V30 22 1 22 21
M  V30 23 2 23 22
M  V30 24 1 24 23
M  V30 25 2 25 24
M  V30 26 1 26 25
M  V30 27 2 27 26
M  V30 28 1 28 27
M  V30 29 1 29 24
M  V30 30 2 29 28
M  V30 31 1 30 20
M  V30 32 1 30 23
M  V30 33 1 31 30
M  V30 34 1 32 15
M  V30 35 1 33 12
M  V30 36 1 33 32
M  V30 37 1 34 12
M  V30 38 1 35 9
M  V30 39 1 35 34
M  V30 40 1 36 1
M  V30 41 1 37 1
M  V30 42 1 38 1
M  V30 43 1 39 4
M  V30 44 1 40 5
M  V30 45 1 41 6
M  V30 46 1 42 7
M  V30 47 1 43 10
M  V30 48 1 44 10
M  V30 49 1 45 11
M  V30 50 1 46 11
M  V30 51 1 47 13
M  V30 52 1 48 13
M  V30 53 1 49 14
M  V30 54 1 50 14
M  V30 55 1 51 16
M  V30 56 1 52 16
M  V30 57 1 53 17
M  V30 58 1 54 17
M  V30 59 1 55 18
M  V30 60 1 56 18
M  V30 61 1 57 22
M  V30 62 1 58 25
M  V30 63 1 59 26
M  V30 64 1 60 27
M  V30 65 1 61 28
M  V30 66 1 62 29
M  V30 67 1 63 31
M  V30 68 1 64 31
M  V30 69 1 65 31
M  V30 70 1 66 32
M  V30 71 1 67 32
M  V30 72 1 68 33
M  V30 73 1 69 33
M  V30 74 1 70 34
M  V30 75 1 71 34
M  V30 76 1 72 35
M  V30 77 1 73 35
M  V30 78 1 74 15
M  V30 END BOND
M  V30 END CTAB
M  END
>  <b_m_subgroup_collapsed>  (978) 
0

>  <r_i_docking_score>  (978) 
-7.6328438622391701

>  <s_m_subgroup_title>  (978) 
glide-dock_SP_D22_pv

>  <s_m_subgroupid>  (978) 
glide-dock_SP_D22_pv

>  <Molecule ChEMBL ID>  (978) 
CHEMBL4515093

>  <Standard Type>  (978) 
Ki

>  <Standard Value>  (978) 
35720.0

>  <label>  (978) 
0

$$$$
CHEMBL383102
     RDKit          3D

  0  0  0  0  0  0  0  0  0  0999 V3000
M  V30 BEGIN CTAB
M  V30 COUNTS 43 47 0 0 1
M  V30 BEGIN ATOM
M  V30 1 C 12.225486 8.257738 -3.478851 0
M  V30 2 C 11.670581 9.378556 -4.119579 0
M  V30 3 C 10.925004 9.219929 -5.303504 0
M  V30 4 C 10.701797 7.934104 -5.846378 0
M  V30 5 C 9.771254 7.803301 -7.050791 0 CFG=2
M  V30 6 C 8.848207 6.568490 -7.046927 0
M  V30 7 C 8.884011 5.995872 -8.473858 0
M  V30 8 C 9.448372 7.159971 -9.266268 0 CFG=2
M  V30 9 C 10.081262 6.897053 -10.583189 0
M  V30 10 N 9.630364 6.023297 -11.552069 0
M  V30 11 C 10.460016 6.078467 -12.655825 0
M  V30 12 C 10.463541 5.368887 -13.870063 0
M  V30 13 C 11.449388 5.651949 -14.834085 0
M  V30 14 C 12.414908 6.644689 -14.580306 0
M  V30 15 C 12.410085 7.348074 -13.358312 0
M  V30 16 C 11.440750 7.076478 -12.363369 0
M  V30 17 C 11.178885 7.569013 -11.037970 0
M  V30 18 C 11.906842 8.570138 -10.182014 0
M  V30 19 C 11.110389 8.932311 -8.899912 0
M  V30 20 N 10.458582 7.719733 -8.348996 0 CFG=1 CHG=1
M  V30 21 C 11.286402 6.809846 -5.208264 0
M  V30 22 C 12.039976 6.975649 -4.026663 0
M  V30 23 H 12.790685 8.382364 -2.566986 0
M  V30 24 H 11.787351 10.360393 -3.684969 0
M  V30 25 H 10.487748 10.092465 -5.766491 0
M  V30 26 H 9.125858 8.684425 -7.079468 0
M  V30 27 H 9.155494 5.794052 -6.355065 0
M  V30 28 H 7.841507 6.853486 -6.739618 0
M  V30 29 H 9.560679 5.140745 -8.514874 0
M  V30 30 H 7.906206 5.677569 -8.834631 0
M  V30 31 H 8.657420 7.900125 -9.408466 0
M  V30 32 H 8.801311 5.454128 -11.449132 0
M  V30 33 H 9.714519 4.615501 -14.063039 0
M  V30 34 H 11.462255 5.113068 -15.770423 0
M  V30 35 H 13.171768 6.861298 -15.320185 0
M  V30 36 H 13.171947 8.090405 -13.171639 0
M  V30 37 H 12.883821 8.171882 -9.904946 0
M  V30 38 H 12.095490 9.480555 -10.746371 0
M  V30 39 H 11.777893 9.372027 -8.159125 0
M  V30 40 H 10.342504 9.671550 -9.131765 0
M  V30 41 H 11.163628 5.799148 -5.586637 0
M  V30 42 H 12.477161 6.118087 -3.534189 0
M  V30 43 H 11.173856 7.014643 -8.250364 0
M  V30 END ATOM
M  V30 BEGIN BOND
M  V30 1 2 2 1
M  V30 2 1 3 2
M  V30 3 2 4 3
M  V30 4 1 5 4
M  V30 5 1 6 5
M  V30 6 1 7 6
M  V30 7 1 8 7
M  V30 8 1 9 8
M  V30 9 1 10 9
M  V30 10 1 11 10
M  V30 11 2 12 11
M  V30 12 1 13 12
M  V30 13 2 14 13
M  V30 14 1 15 14
M  V30 15 1 16 11
M  V30 16 2 16 15
M  V30 17 2 17 9
M  V30 18 1 17 16
M  V30 19 1 18 17
M  V30 20 1 19 18
M  V30 21 1 20 5
M  V30 22 1 20 8
M  V30 23 1 20 19
M  V30 24 1 21 4
M  V30 25 1 22 1
M  V30 26 2 22 21
M  V30 27 1 23 1
M  V30 28 1 24 2
M  V30 29 1 25 3
M  V30 30 1 5 26 CFG=3
M  V30 31 1 27 6
M  V30 32 1 28 6
M  V30 33 1 29 7
M  V30 34 1 30 7
M  V30 35 1 8 31 CFG=3
M  V30 36 1 32 10
M  V30 37 1 33 12
M  V30 38 1 34 13
M  V30 39 1 35 14
M  V30 40 1 36 15
M  V30 41 1 37 18
M  V30 42 1 38 18
M  V30 43 1 39 19
M  V30 44 1 40 19
M  V30 45 1 41 21
M  V30 46 1 42 22
M  V30 47 1 20 43 CFG=1
M  V30 END BOND
M  V30 END CTAB
M  END
>  <b_m_subgroup_collapsed>  (979) 
0

>  <r_i_docking_score>  (979) 
-7.6310169714714702

>  <s_m_subgroup_title>  (979) 
glide-dock_SP_D22_pv

>  <s_m_subgroupid>  (979) 
glide-dock_SP_D22_pv

>  <Molecule ChEMBL ID>  (979) 
CHEMBL383102

>  <Standard Type>  (979) 
Ki

>  <Standard Value>  (979) 
10000.0

>  <label>  (979) 
0

$$$$
CHEMBL3289973
     RDKit          3D

  0  0  0  0  0  0  0  0  0  0999 V3000
M  V30 BEGIN CTAB
M  V30 COUNTS 56 59 0 0 1
M  V30 BEGIN ATOM
M  V30 1 O 5.286034 4.504037 -13.847272 0
M  V30 2 S 6.011412 3.427508 -13.162069 0
M  V30 3 O 5.286165 2.267751 -12.619497 0
M  V30 4 N 6.824898 4.164179 -11.847089 0
M  V30 5 C 7.375126 5.512442 -11.891139 0
M  V30 6 C 8.690545 5.519143 -11.111843 0
M  V30 7 C 9.257070 6.928452 -10.858020 0
M  V30 8 N 10.159858 6.919854 -9.715364 0
M  V30 9 C 9.416012 6.809980 -8.448778 0
M  V30 10 C 10.425123 6.576523 -7.319550 0
M  V30 11 N 11.369194 7.678220 -7.276713 0
M  V30 12 C 11.294093 8.570423 -6.205530 0
M  V30 13 N 11.136792 9.884392 -6.322239 0
M  V30 14 O 11.287129 10.415106 -5.012908 0
M  V30 15 C 11.612506 9.399924 -4.122786 0
M  V30 16 C 11.992509 9.418464 -2.775121 0
M  V30 17 C 12.244898 8.184797 -2.140847 0
M  V30 18 C 12.117605 6.972503 -2.860650 0
M  V30 19 C 11.778279 6.982055 -4.233194 0
M  V30 20 C 11.538590 8.224037 -4.864024 0
M  V30 21 C 11.961395 8.097713 -8.545071 0
M  V30 22 C 10.903474 8.182781 -9.660195 0
M  V30 23 C 7.328297 2.787514 -14.218665 0
M  V30 24 C 8.581837 3.427293 -14.308868 0
M  V30 25 C 9.611152 2.860132 -15.081282 0
M  V30 26 C 9.416186 1.647875 -15.770430 0
M  V30 27 O 10.487454 1.178846 -16.501572 0
M  V30 28 C 10.357866 0.111273 -17.333809 0
M  V30 29 F 11.523243 -0.091737 -17.993681 0
M  V30 30 F 10.085712 -1.027834 -16.652782 0
M  V30 31 F 9.402271 0.316639 -18.274467 0
M  V30 32 C 8.157269 1.000767 -15.666044 0
M  V30 33 C 7.121964 1.566800 -14.893978 0
M  V30 34 H 7.212229 3.531384 -11.147186 0
M  V30 35 H 7.502720 5.857855 -12.915256 0
M  V30 36 H 6.638933 6.172259 -11.446764 0
M  V30 37 H 8.500140 4.992409 -10.179588 0
M  V30 38 H 9.443984 4.917867 -11.624677 0
M  V30 39 H 9.786580 7.252686 -11.754471 0
M  V30 40 H 8.486058 7.672138 -10.684203 0
M  V30 41 H 8.821577 7.708405 -8.265544 0
M  V30 42 H 8.710487 5.983388 -8.436410 0
M  V30 43 H 9.896551 6.474732 -6.370713 0
M  V30 44 H 10.969985 5.646616 -7.482446 0
M  V30 45 H 12.085646 10.353889 -2.246990 0
M  V30 46 H 12.530477 8.172352 -1.099868 0
M  V30 47 H 12.304708 6.030855 -2.364456 0
M  V30 48 H 11.726934 6.058801 -4.790441 0
M  V30 49 H 12.474516 9.051180 -8.439710 0
M  V30 50 H 12.726308 7.376992 -8.823320 0
M  V30 51 H 11.404300 8.364788 -10.611666 0
M  V30 52 H 10.226385 9.022921 -9.486425 0
M  V30 53 H 8.783320 4.348719 -13.794608 0
M  V30 54 H 10.565388 3.362477 -15.142820 0
M  V30 55 H 7.962355 0.061528 -16.164457 0
M  V30 56 H 6.171718 1.059320 -14.814426 0
M  V30 END ATOM
M  V30 BEGIN BOND
M  V30 1 2 2 1
M  V30 2 2 3 2
M  V30 3 1 4 2
M  V30 4 1 5 4
M  V30 5 1 6 5
M  V30 6 1 7 6
M  V30 7 1 8 7
M  V30 8 1 9 8
M  V30 9 1 10 9
M  V30 10 1 11 10
M  V30 11 1 12 11
M  V30 12 2 13 12
M  V30 13 1 14 13
M  V30 14 1 15 14
M  V30 15 2 16 15
M  V30 16 1 17 16
M  V30 17 2 18 17
M  V30 18 1 19 18
M  V30 19 1 20 12
M  V30 20 1 20 15
M  V30 21 2 20 19
M  V30 22 1 21 11
M  V30 23 1 22 8
M  V30 24 1 22 21
M  V30 25 1 23 2
M  V30 26 1 24 23
M  V30 27 2 25 24
M  V30 28 1 26 25
M  V30 29 1 27 26
M  V30 30 1 28 27
M  V30 31 1 29 28
M  V30 32 1 30 28
M  V30 33 1 31 28
M  V30 34 2 32 26
M  V30 35 2 33 23
M  V30 36 1 33 32
M  V30 37 1 34 4
M  V30 38 1 35 5
M  V30 39 1 36 5
M  V30 40 1 37 6
M  V30 41 1 38 6
M  V30 42 1 39 7
M  V30 43 1 40 7
M  V30 44 1 41 9
M  V30 45 1 42 9
M  V30 46 1 43 10
M  V30 47 1 44 10
M  V30 48 1 45 16
M  V30 49 1 46 17
M  V30 50 1 47 18
M  V30 51 1 48 19
M  V30 52 1 49 21
M  V30 53 1 50 21
M  V30 54 1 51 22
M  V30 55 1 52 22
M  V30 56 1 53 24
M  V30 57 1 54 25
M  V30 58 1 55 32
M  V30 59 1 56 33
M  V30 END BOND
M  V30 END CTAB
M  END
>  <b_m_subgroup_collapsed>  (980) 
0

>  <r_i_docking_score>  (980) 
-7.63071265118404

>  <s_m_subgroup_title>  (980) 
glide-dock_SP_D22_pv

>  <s_m_subgroupid>  (980) 
glide-dock_SP_D22_pv

>  <Molecule ChEMBL ID>  (980) 
CHEMBL3289973

>  <Standard Type>  (980) 
Ki

>  <Standard Value>  (980) 
63.0

>  <label>  (980) 
1

$$$$
CHEMBL5558071
     RDKit          3D

  0  0  0  0  0  0  0  0  0  0999 V3000
M  V30 BEGIN CTAB
M  V30 COUNTS 55 60 0 0 1
M  V30 BEGIN ATOM
M  V30 1 O 12.131353 -0.627557 -19.309509 0
M  V30 2 C 11.285542 -0.146007 -18.559978 0
M  V30 3 C 11.705276 0.848104 -17.454052 0
M  V30 4 N 10.777345 0.954098 -16.320826 0
M  V30 5 C 9.412444 0.713517 -16.591064 0
M  V30 6 C 9.027424 0.031149 -17.749285 0
M  V30 7 C 7.625047 -0.129764 -17.874174 0
M  V30 8 C 6.731824 0.365882 -16.883711 0
M  V30 9 C 7.207141 1.030649 -15.722714 0
M  V30 10 C 8.594198 1.211010 -15.586588 0
M  V30 11 C 9.511003 1.724790 -14.503023 0 CFG=2
M  V30 12 C 9.018889 2.901500 -13.640591 0
M  V30 13 N 9.202444 4.229024 -14.263392 0 CFG=1 CHG=1
M  V30 14 C 8.681401 5.334657 -13.411100 0
M  V30 15 C 9.626320 5.775581 -12.268052 0
M  V30 16 C 9.060563 6.929316 -11.418427 0
M  V30 17 C 10.094809 7.530803 -10.506721 0
M  V30 18 N 11.140951 8.157929 -11.001112 0
M  V30 19 N 11.870605 8.578803 -9.940517 0
M  V30 20 C 11.306276 8.260314 -8.722696 0
M  V30 21 C 11.685993 8.497886 -7.391040 0
M  V30 22 C 10.867876 8.018865 -6.353498 0
M  V30 23 F 11.220137 8.225971 -5.062716 0
M  V30 24 C 9.678877 7.325622 -6.660687 0
M  V30 25 C 9.294051 7.109499 -8.002373 0
M  V30 26 C 10.113734 7.562494 -9.067618 0
M  V30 27 C 10.585570 4.428929 -14.762603 0
M  V30 28 C 10.920718 3.377582 -15.822601 0
M  V30 29 C 10.837651 1.944854 -15.253704 0 CFG=2
M  V30 30 N 9.983992 -0.461998 -18.661238 0
M  V30 31 H 12.684103 0.572145 -17.070219 0
M  V30 32 H 11.821498 1.826503 -17.920933 0
M  V30 33 H 7.221499 -0.650219 -18.730118 0
M  V30 34 H 5.668903 0.209061 -17.004354 0
M  V30 35 H 6.519635 1.360429 -14.958373 0
M  V30 36 H 9.631007 0.864136 -13.847642 0
M  V30 37 H 7.958060 2.759847 -13.446955 0
M  V30 38 H 9.548855 2.892926 -12.686975 0
M  V30 39 H 8.486126 6.172147 -14.071119 0
M  V30 40 H 7.708332 5.057164 -13.002269 0
M  V30 41 H 9.866159 4.937299 -11.614453 0
M  V30 42 H 10.569083 6.112055 -12.699796 0
M  V30 43 H 8.665213 7.709105 -12.068485 0
M  V30 44 H 8.211319 6.569458 -10.838852 0
M  V30 45 H 12.711987 9.129648 -10.080691 0
M  V30 46 H 12.595742 9.033544 -7.163051 0
M  V30 47 H 9.054697 6.969734 -5.851186 0
M  V30 48 H 8.367774 6.597525 -8.218933 0
M  V30 49 H 10.682052 5.426605 -15.192332 0
M  V30 50 H 11.303952 4.356987 -13.944220 0
M  V30 51 H 10.236868 3.495235 -16.665777 0
M  V30 52 H 11.922029 3.557974 -16.217028 0
M  V30 53 H 11.685686 1.771357 -14.592276 0
M  V30 54 H 9.680647 -1.073650 -19.404631 0
M  V30 55 H 8.613084 4.218362 -15.083549 0
M  V30 END ATOM
M  V30 BEGIN BOND
M  V30 1 2 2 1
M  V30 2 1 3 2
M  V30 3 1 4 3
M  V30 4 1 5 4
M  V30 5 2 6 5
M  V30 6 1 7 6
M  V30 7 2 8 7
M  V30 8 1 9 8
M  V30 9 1 10 5
M  V30 10 2 10 9
M  V30 11 1 11 10
M  V30 12 1 12 11
M  V30 13 1 13 12
M  V30 14 1 14 13
M  V30 15 1 15 14
M  V30 16 1 16 15
M  V30 17 1 17 16
M  V30 18 2 18 17
M  V30 19 1 19 18
M  V30 20 1 20 19
M  V30 21 1 21 20
M  V30 22 2 22 21
M  V30 23 1 23 22
M  V30 24 1 24 22
M  V30 25 2 25 24
M  V30 26 1 26 17
M  V30 27 2 26 20
M  V30 28 1 26 25
M  V30 29 1 27 13
M  V30 30 1 28 27
M  V30 31 1 29 4
M  V30 32 1 29 11
M  V30 33 1 29 28
M  V30 34 1 30 2
M  V30 35 1 30 6
M  V30 36 1 31 3
M  V30 37 1 32 3
M  V30 38 1 33 7
M  V30 39 1 34 8
M  V30 40 1 35 9
M  V30 41 1 11 36 CFG=1
M  V30 42 1 37 12
M  V30 43 1 38 12
M  V30 44 1 39 14
M  V30 45 1 40 14
M  V30 46 1 41 15
M  V30 47 1 42 15
M  V30 48 1 43 16
M  V30 49 1 44 16
M  V30 50 1 45 19
M  V30 51 1 46 21
M  V30 52 1 47 24
M  V30 53 1 48 25
M  V30 54 1 49 27
M  V30 55 1 50 27
M  V30 56 1 51 28
M  V30 57 1 52 28
M  V30 58 1 29 53 CFG=1
M  V30 59 1 54 30
M  V30 60 1 13 55 CFG=3
M  V30 END BOND
M  V30 END CTAB
M  END
>  <b_m_subgroup_collapsed>  (981) 
0

>  <r_i_docking_score>  (981) 
-7.6273940426101499

>  <s_m_subgroup_title>  (981) 
glide-dock_SP_D22_pv

>  <s_m_subgroupid>  (981) 
glide-dock_SP_D22_pv

>  <Molecule ChEMBL ID>  (981) 
CHEMBL5558071

>  <Standard Type>  (981) 
Ki

>  <Standard Value>  (981) 
15.0

>  <label>  (981) 
1

$$$$
CHEMBL4464861
     RDKit          3D

  0  0  0  0  0  0  0  0  0  0999 V3000
M  V30 BEGIN CTAB
M  V30 COUNTS 50 52 0 0 1
M  V30 BEGIN ATOM
M  V30 1 C 9.711440 0.654725 -15.037396 0
M  V30 2 C 10.178863 2.088167 -14.888969 0
M  V30 3 C 11.287379 2.546664 -15.626889 0
M  V30 4 C 11.737000 3.871732 -15.474277 0
M  V30 5 C 11.091092 4.740038 -14.574253 0
M  V30 6 C 9.980412 4.286991 -13.821210 0
M  V30 7 N 9.265206 5.120826 -12.915477 0
M  V30 8 C 9.716793 6.197249 -12.247678 0
M  V30 9 O 10.886989 6.573613 -12.246964 0
M  V30 10 C 8.675279 6.979785 -11.449663 0
M  V30 11 C 9.265589 8.192998 -10.692176 0
M  V30 12 N 9.946204 7.812864 -9.423521 0 CFG=2 CHG=1
M  V30 13 C 8.968485 7.627567 -8.313513 0
M  V30 14 C 9.648289 7.285155 -6.977728 0
M  V30 15 C 10.667700 8.375263 -6.616849 0 CFG=1
M  V30 16 C 11.286803 8.236477 -5.229557 0
M  V30 17 C 11.548520 6.980420 -4.641808 0
M  V30 18 C 12.086022 6.944345 -3.339259 0
M  V30 19 C 12.358061 8.156148 -2.682334 0
M  V30 20 C 12.083741 9.357004 -3.360059 0
M  V30 21 N 11.556853 9.402007 -4.603201 0
M  V30 22 C 11.714596 8.443676 -7.737305 0
M  V30 23 C 11.035778 8.769261 -9.082107 0
M  V30 24 C 9.520973 2.965327 -14.001479 0
M  V30 25 H 8.645799 0.563977 -14.830792 0
M  V30 26 H 9.890052 0.288042 -16.049646 0
M  V30 27 H 10.246990 0.013300 -14.335809 0
M  V30 28 H 11.801588 1.884916 -16.309752 0
M  V30 29 H 12.586041 4.223122 -16.043198 0
M  V30 30 H 11.452999 5.753979 -14.489015 0
M  V30 31 H 8.308517 4.853256 -12.737470 0
M  V30 32 H 8.139030 6.303844 -10.780414 0
M  V30 33 H 7.936271 7.342749 -12.165552 0
M  V30 34 H 8.485816 8.924885 -10.482535 0
M  V30 35 H 9.957264 8.720377 -11.350763 0
M  V30 36 H 8.267441 6.831228 -8.566796 0
M  V30 37 H 8.388608 8.542536 -8.187346 0
M  V30 38 H 10.126641 6.308436 -7.044529 0
M  V30 39 H 8.886676 7.212866 -6.202723 0
M  V30 40 H 10.130396 9.326632 -6.605322 0
M  V30 41 H 11.333465 6.056655 -5.156987 0
M  V30 42 H 12.283601 5.998931 -2.853586 0
M  V30 43 H 12.765233 8.169150 -1.683195 0
M  V30 44 H 12.275953 10.306173 -2.883082 0
M  V30 45 H 12.456509 9.211317 -7.508663 0
M  V30 46 H 12.257781 7.500531 -7.806593 0
M  V30 47 H 11.785283 8.770051 -9.876858 0
M  V30 48 H 10.618866 9.772257 -9.048198 0
M  V30 49 H 8.666508 2.608829 -13.446613 0
M  V30 50 H 10.393264 6.920152 -9.585999 0
M  V30 END ATOM
M  V30 BEGIN BOND
M  V30 1 1 2 1
M  V30 2 1 3 2
M  V30 3 2 4 3
M  V30 4 1 5 4
M  V30 5 2 6 5
M  V30 6 1 7 6
M  V30 7 1 8 7
M  V30 8 2 9 8
M  V30 9 1 10 8
M  V30 10 1 11 10
M  V30 11 1 12 11
M  V30 12 1 13 12
M  V30 13 1 14 13
M  V30 14 1 15 14
M  V30 15 1 16 15
M  V30 16 2 17 16
M  V30 17 1 18 17
M  V30 18 2 19 18
M  V30 19 1 20 19
M  V30 20 1 21 16
M  V30 21 2 21 20
M  V30 22 1 22 15
M  V30 23 1 23 12
M  V30 24 1 23 22
M  V30 25 2 24 2
M  V30 26 1 24 6
M  V30 27 1 25 1
M  V30 28 1 26 1
M  V30 29 1 27 1
M  V30 30 1 28 3
M  V30 31 1 29 4
M  V30 32 1 30 5
M  V30 33 1 31 7
M  V30 34 1 32 10
M  V30 35 1 33 10
M  V30 36 1 34 11
M  V30 37 1 35 11
M  V30 38 1 36 13
M  V30 39 1 37 13
M  V30 40 1 38 14
M  V30 41 1 39 14
M  V30 42 1 15 40 CFG=1
M  V30 43 1 41 17
M  V30 44 1 42 18
M  V30 45 1 43 19
M  V30 46 1 44 20
M  V30 47 1 45 22
M  V30 48 1 46 22
M  V30 49 1 47 23
M  V30 50 1 48 23
M  V30 51 1 49 24
M  V30 52 1 12 50 CFG=3
M  V30 END BOND
M  V30 END CTAB
M  END
>  <b_m_subgroup_collapsed>  (982) 
0

>  <r_i_docking_score>  (982) 
-7.6270149819989701

>  <s_m_subgroup_title>  (982) 
glide-dock_SP_D22_pv

>  <s_m_subgroupid>  (982) 
glide-dock_SP_D22_pv

>  <Molecule ChEMBL ID>  (982) 
CHEMBL4464861

>  <Standard Type>  (982) 
Ki

>  <Standard Value>  (982) 
80.3

>  <label>  (982) 
1

$$$$
CHEMBL111054
     RDKit          3D

  0  0  0  0  0  0  0  0  0  0999 V3000
M  V30 BEGIN CTAB
M  V30 COUNTS 48 51 0 0 1
M  V30 BEGIN ATOM
M  V30 1 C 12.478392 9.178328 -3.275007 0
M  V30 2 O 12.276408 8.956141 -4.661193 0
M  V30 3 C 11.242812 9.546538 -5.292419 0
M  V30 4 O 10.486412 10.353388 -4.755998 0
M  V30 5 C 11.084223 9.069129 -6.690519 0
M  V30 6 C 12.217807 8.869878 -7.496444 0
M  V30 7 C 12.094632 8.366134 -8.804509 0
M  V30 8 C 10.827222 8.051636 -9.347348 0
M  V30 9 C 10.669518 7.504337 -10.712996 0
M  V30 10 C 11.661761 7.372411 -11.619199 0
M  V30 11 C 11.624655 6.822076 -12.979821 0
M  V30 12 N 12.486575 7.332870 -13.852450 0
M  V30 13 C 12.191382 6.668766 -15.017247 0
M  V30 14 C 12.782979 6.799326 -16.291971 0
M  V30 15 C 12.283077 6.068883 -17.388659 0
M  V30 16 C 11.177514 5.213801 -17.220383 0
M  V30 17 C 10.578350 5.068125 -15.953713 0
M  V30 18 C 11.097753 5.772163 -14.841706 0
M  V30 19 N 10.767820 5.877528 -13.473093 0
M  V30 20 C 9.696497 5.211147 -12.724377 0
M  V30 21 C 9.013452 4.031780 -13.402311 0
M  V30 22 C 9.748073 2.900898 -13.824837 0
M  V30 23 C 9.093773 1.828088 -14.460704 0
M  V30 24 C 7.698517 1.863421 -14.646915 0
M  V30 25 Cl 6.889190 0.545975 -15.407910 0
M  V30 26 C 6.959279 2.972322 -14.195180 0
M  V30 27 C 7.615286 4.055322 -13.581797 0
M  V30 28 C 9.685133 8.289707 -8.548875 0
M  V30 29 C 9.809447 8.798736 -7.235787 0
M  V30 30 H 13.185600 8.450861 -2.881990 0
M  V30 31 H 12.880323 10.172550 -3.097087 0
M  V30 32 H 11.547052 9.070608 -2.717136 0
M  V30 33 H 13.203466 9.102092 -7.118366 0
M  V30 34 H 13.003571 8.229403 -9.370448 0
M  V30 35 H 9.665226 7.204803 -10.963216 0
M  V30 36 H 12.650931 7.704263 -11.345641 0
M  V30 37 H 13.613911 7.476193 -16.425943 0
M  V30 38 H 12.736198 6.182271 -18.362417 0
M  V30 39 H 10.780526 4.676182 -18.068497 0
M  V30 40 H 9.711305 4.435896 -15.871425 0
M  V30 41 H 10.086371 4.870944 -11.763975 0
M  V30 42 H 8.932608 5.959081 -12.517063 0
M  V30 43 H 10.817333 2.862777 -13.671291 0
M  V30 44 H 9.662159 0.971133 -14.790390 0
M  V30 45 H 5.887033 2.997211 -14.315816 0
M  V30 46 H 7.035009 4.903611 -13.247162 0
M  V30 47 H 8.699318 8.077156 -8.939550 0
M  V30 48 H 8.918893 8.966070 -6.645927 0
M  V30 END ATOM
M  V30 BEGIN BOND
M  V30 1 1 2 1
M  V30 2 1 3 2
M  V30 3 2 4 3
M  V30 4 1 5 3
M  V30 5 1 6 5
M  V30 6 2 7 6
M  V30 7 1 8 7
M  V30 8 1 9 8
M  V30 9 2 10 9
M  V30 10 1 11 10
M  V30 11 2 12 11
M  V30 12 1 13 12
M  V30 13 2 14 13
M  V30 14 1 15 14
M  V30 15 2 16 15
M  V30 16 1 17 16
M  V30 17 1 18 13
M  V30 18 2 18 17
M  V30 19 1 19 11
M  V30 20 1 19 18
M  V30 21 1 20 19
M  V30 22 1 21 20
M  V30 23 1 22 21
M  V30 24 2 23 22
M  V30 25 1 24 23
M  V30 26 1 25 24
M  V30 27 2 26 24
M  V30 28 2 27 21
M  V30 29 1 27 26
M  V30 30 2 28 8
M  V30 31 2 29 5
M  V30 32 1 29 28
M  V30 33 1 30 1
M  V30 34 1 31 1
M  V30 35 1 32 1
M  V30 36 1 33 6
M  V30 37 1 34 7
M  V30 38 1 35 9
M  V30 39 1 36 10
M  V30 40 1 37 14
M  V30 41 1 38 15
M  V30 42 1 39 16
M  V30 43 1 40 17
M  V30 44 1 41 20
M  V30 45 1 42 20
M  V30 46 1 43 22
M  V30 47 1 44 23
M  V30 48 1 45 26
M  V30 49 1 46 27
M  V30 50 1 47 28
M  V30 51 1 48 29
M  V30 END BOND
M  V30 END CTAB
M  END
>  <b_m_subgroup_collapsed>  (983) 
0

>  <r_i_docking_score>  (983) 
-7.6267417803683104

>  <s_m_subgroup_title>  (983) 
glide-dock_SP_D22_pv

>  <s_m_subgroupid>  (983) 
glide-dock_SP_D22_pv

>  <Molecule ChEMBL ID>  (983) 
CHEMBL111054

>  <Standard Type>  (983) 
Ki

>  <Standard Value>  (983) 
38.0

>  <label>  (983) 
1

$$$$
CHEMBL564741
     RDKit          3D

  0  0  0  0  0  0  0  0  0  0999 V3000
M  V30 BEGIN CTAB
M  V30 COUNTS 54 57 0 0 1
M  V30 BEGIN ATOM
M  V30 1 C 5.913066 5.226697 -12.232961 0
M  V30 2 C 7.307907 4.619193 -11.988310 0 CFG=1
M  V30 3 C 7.872009 3.886005 -13.215101 0
M  V30 4 C 7.051520 2.971056 -13.913626 0
M  V30 5 C 7.550427 2.245531 -15.013925 0
M  V30 6 C 8.877028 2.440272 -15.440139 0
M  V30 7 C 9.717723 3.341098 -14.753328 0
M  V30 8 C 11.144546 3.578051 -15.226003 0
M  V30 9 F 11.157434 4.618746 -16.060678 0
M  V30 10 F 11.946918 3.847780 -14.194788 0
M  V30 11 F 11.623314 2.508739 -15.865151 0
M  V30 12 C 9.214953 4.045573 -13.638269 0
M  V30 13 N 8.197777 5.635193 -11.399910 0
M  V30 14 C 8.466025 6.893424 -12.085423 0
M  V30 15 C 9.435179 7.609701 -11.150840 0
M  V30 16 N 9.598892 6.651450 -10.077184 0
M  V30 17 C 10.553228 6.888807 -9.007002 0
M  V30 18 C 9.929465 7.706839 -7.871592 0
M  V30 19 N 10.931623 7.932279 -6.805337 0 CHG=1
M  V30 20 C 11.167729 6.769183 -5.896350 0
M  V30 21 C 11.564509 7.433012 -4.608318 0
M  V30 22 C 12.086505 6.838901 -3.447365 0
M  V30 23 C 12.389043 7.672391 -2.351355 0
M  V30 24 C 12.157741 9.066121 -2.422863 0
M  V30 25 C 11.609656 9.639628 -3.588091 0
M  V30 26 C 11.326111 8.795043 -4.673625 0
M  V30 27 C 10.724103 9.163936 -5.995447 0
M  V30 28 C 8.879948 5.530155 -10.247817 0
M  V30 29 O 8.886157 4.572487 -9.475401 0
M  V30 30 H 5.166699 4.462806 -12.440493 0
M  V30 31 H 5.566966 5.771871 -11.356137 0
M  V30 32 H 5.918205 5.930007 -13.062691 0
M  V30 33 H 7.163926 3.839450 -11.236799 0
M  V30 34 H 6.032282 2.795451 -13.603030 0
M  V30 35 H 6.913440 1.545270 -15.531838 0
M  V30 36 H 9.245855 1.896563 -16.298595 0
M  V30 37 H 9.884752 4.705196 -13.110858 0
M  V30 38 H 8.925612 6.708587 -13.046885 0
M  V30 39 H 7.555648 7.475738 -12.245590 0
M  V30 40 H 9.007698 8.540908 -10.774713 0
M  V30 41 H 10.385552 7.823521 -11.641095 0
M  V30 42 H 11.428530 7.397690 -9.410998 0
M  V30 43 H 10.897085 5.930435 -8.617353 0
M  V30 44 H 9.039001 7.222082 -7.466995 0
M  V30 45 H 9.605389 8.669971 -8.267153 0
M  V30 46 H 11.953800 6.118518 -6.277113 0
M  V30 47 H 10.263064 6.179653 -5.735497 0
M  V30 48 H 12.255420 5.773558 -3.389560 0
M  V30 49 H 12.798841 7.245112 -1.448092 0
M  V30 50 H 12.387343 9.693006 -1.574752 0
M  V30 51 H 11.391188 10.693698 -3.632978 0
M  V30 52 H 9.662497 9.371189 -5.851643 0
M  V30 53 H 11.207068 10.030933 -6.446608 0
M  V30 54 H 11.811949 8.091184 -7.270679 0
M  V30 END ATOM
M  V30 BEGIN BOND
M  V30 1 1 2 1
M  V30 2 1 3 2
M  V30 3 1 4 3
M  V30 4 2 5 4
M  V30 5 1 6 5
M  V30 6 2 7 6
M  V30 7 1 8 7
M  V30 8 1 9 8
M  V30 9 1 10 8
M  V30 10 1 11 8
M  V30 11 2 12 3
M  V30 12 1 12 7
M  V30 13 1 13 2
M  V30 14 1 14 13
M  V30 15 1 15 14
M  V30 16 1 16 15
M  V30 17 1 17 16
M  V30 18 1 18 17
M  V30 19 1 19 18
M  V30 20 1 20 19
M  V30 21 1 21 20
M  V30 22 2 22 21
M  V30 23 1 23 22
M  V30 24 2 24 23
M  V30 25 1 25 24
M  V30 26 1 26 21
M  V30 27 2 26 25
M  V30 28 1 27 19
M  V30 29 1 27 26
M  V30 30 1 28 13
M  V30 31 1 28 16
M  V30 32 2 29 28
M  V30 33 1 30 1
M  V30 34 1 31 1
M  V30 35 1 32 1
M  V30 36 1 2 33 CFG=1
M  V30 37 1 34 4
M  V30 38 1 35 5
M  V30 39 1 36 6
M  V30 40 1 37 12
M  V30 41 1 38 14
M  V30 42 1 39 14
M  V30 43 1 40 15
M  V30 44 1 41 15
M  V30 45 1 42 17
M  V30 46 1 43 17
M  V30 47 1 44 18
M  V30 48 1 45 18
M  V30 49 1 46 20
M  V30 50 1 47 20
M  V30 51 1 48 22
M  V30 52 1 49 23
M  V30 53 1 50 24
M  V30 54 1 51 25
M  V30 55 1 52 27
M  V30 56 1 53 27
M  V30 57 1 54 19
M  V30 END BOND
M  V30 END CTAB
M  END
>  <b_m_subgroup_collapsed>  (984) 
0

>  <r_i_docking_score>  (984) 
-7.6227135470185603

>  <s_m_subgroup_title>  (984) 
glide-dock_SP_D22_pv

>  <s_m_subgroupid>  (984) 
glide-dock_SP_D22_pv

>  <Molecule ChEMBL ID>  (984) 
CHEMBL564741

>  <Standard Type>  (984) 
Ki

>  <Standard Value>  (984) 
10000.0

>  <label>  (984) 
0

$$$$
CHEMBL252539
     RDKit          3D

  0  0  0  0  0  0  0  0  0  0999 V3000
M  V30 BEGIN CTAB
M  V30 COUNTS 65 68 0 0 1
M  V30 BEGIN ATOM
M  V30 1 C 13.114274 7.093971 -14.768091 0
M  V30 2 C 12.511811 6.306864 -13.595513 0
M  V30 3 C 10.988923 6.412265 -13.620348 0
M  V30 4 N 10.254846 5.596894 -12.610742 0 CFG=1 CHG=1
M  V30 5 C 9.099319 6.310089 -11.970977 0
M  V30 6 C 9.448971 7.584674 -11.174324 0
M  V30 7 N 10.276861 7.282667 -10.007763 0
M  V30 8 C 11.061252 8.471513 -9.653735 0
M  V30 9 C 12.010943 8.139023 -8.489467 0
M  V30 10 N 11.264600 7.639869 -7.341359 0
M  V30 11 C 11.204686 8.404457 -6.160817 0
M  V30 12 C 10.886105 9.770011 -6.216282 0
M  V30 13 C 10.886233 10.556783 -5.046891 0
M  V30 14 C 11.286690 10.000128 -3.826927 0
M  V30 15 C 11.637650 8.651932 -3.756043 0
M  V30 16 Cl 12.125675 7.981569 -2.246524 0
M  V30 17 C 11.508293 7.849023 -4.899945 0
M  V30 18 Cl 11.686020 6.172361 -4.715295 0
M  V30 19 C 10.286263 6.593250 -7.618653 0
M  V30 20 C 9.425508 6.954987 -8.850718 0
M  V30 21 C 9.889955 4.207841 -13.080694 0 CFG=2
M  V30 22 C 10.966022 3.525251 -13.970428 0
M  V30 23 C 10.621082 2.129231 -14.503040 0
M  V30 24 C 9.139750 1.820470 -14.628028 0
M  V30 25 C 8.749236 0.535383 -15.058244 0
M  V30 26 O 9.686622 -0.375050 -15.447288 0
M  V30 27 C 7.390213 0.172632 -15.065157 0
M  V30 28 C 6.416518 1.088084 -14.642409 0
M  V30 29 C 6.792048 2.385324 -14.252538 0
M  V30 30 C 8.151480 2.758691 -14.250373 0
M  V30 31 C 8.525990 4.155073 -13.804060 0
M  V30 32 H 14.193790 6.971773 -14.809914 0
M  V30 33 H 12.718642 6.745297 -15.721921 0
M  V30 34 H 12.901343 8.159941 -14.687548 0
M  V30 35 H 12.884910 6.711864 -12.654392 0
M  V30 36 H 12.881387 5.289094 -13.651634 0
M  V30 37 H 10.597223 6.172411 -14.611007 0
M  V30 38 H 10.886000 7.477477 -13.446878 0
M  V30 39 H 8.389113 6.604624 -12.744458 0
M  V30 40 H 8.569676 5.621592 -11.310742 0
M  V30 41 H 9.941684 8.311470 -11.816874 0
M  V30 42 H 8.517459 8.072077 -10.864139 0
M  V30 43 H 11.655967 8.795320 -10.508955 0
M  V30 44 H 10.401983 9.300532 -9.392282 0
M  V30 45 H 12.720446 7.375085 -8.801820 0
M  V30 46 H 12.607167 9.009627 -8.217960 0
M  V30 47 H 10.610504 10.172325 -7.169267 0
M  V30 48 H 10.618279 11.595818 -5.046915 0
M  V30 49 H 11.331906 10.601566 -2.933982 0
M  V30 50 H 10.818545 5.658566 -7.795741 0
M  V30 51 H 9.640617 6.433102 -6.754213 0
M  V30 52 H 8.773623 7.796937 -8.609527 0
M  V30 53 H 8.769596 6.117230 -9.087923 0
M  V30 54 H 9.791765 3.604360 -12.175916 0
M  V30 55 H 11.915219 3.449830 -13.447312 0
M  V30 56 H 11.145743 4.122953 -14.862334 0
M  V30 57 H 11.052936 1.376009 -13.847367 0
M  V30 58 H 11.100392 1.977926 -15.471453 0
M  V30 59 H 9.299142 -1.232726 -15.555087 0
M  V30 60 H 7.080378 -0.811022 -15.382461 0
M  V30 61 H 5.375925 0.799017 -14.637233 0
M  V30 62 H 6.029982 3.087670 -13.948029 0
M  V30 63 H 8.530062 4.805268 -14.679373 0
M  V30 64 H 7.719887 4.499948 -13.157135 0
M  V30 65 H 10.900923 5.474946 -11.845459 0
M  V30 END ATOM
M  V30 BEGIN BOND
M  V30 1 1 2 1
M  V30 2 1 3 2
M  V30 3 1 4 3
M  V30 4 1 5 4
M  V30 5 1 6 5
M  V30 6 1 7 6
M  V30 7 1 8 7
M  V30 8 1 9 8
M  V30 9 1 10 9
M  V30 10 1 11 10
M  V30 11 2 12 11
M  V30 12 1 13 12
M  V30 13 2 14 13
M  V30 14 1 15 14
M  V30 15 1 16 15
M  V30 16 1 17 11
M  V30 17 2 17 15
M  V30 18 1 18 17
M  V30 19 1 19 10
M  V30 20 1 20 7
M  V30 21 1 20 19
M  V30 22 1 21 4
M  V30 23 1 22 21
M  V30 24 1 23 22
M  V30 25 1 24 23
M  V30 26 2 25 24
M  V30 27 1 26 25
M  V30 28 1 27 25
M  V30 29 2 28 27
M  V30 30 1 29 28
M  V30 31 1 30 24
M  V30 32 2 30 29
M  V30 33 1 31 21
M  V30 34 1 31 30
M  V30 35 1 32 1
M  V30 36 1 33 1
M  V30 37 1 34 1
M  V30 38 1 35 2
M  V30 39 1 36 2
M  V30 40 1 37 3
M  V30 41 1 38 3
M  V30 42 1 39 5
M  V30 43 1 40 5
M  V30 44 1 41 6
M  V30 45 1 42 6
M  V30 46 1 43 8
M  V30 47 1 44 8
M  V30 48 1 45 9
M  V30 49 1 46 9
M  V30 50 1 47 12
M  V30 51 1 48 13
M  V30 52 1 49 14
M  V30 53 1 50 19
M  V30 54 1 51 19
M  V30 55 1 52 20
M  V30 56 1 53 20
M  V30 57 1 21 54 CFG=1
M  V30 58 1 55 22
M  V30 59 1 56 22
M  V30 60 1 57 23
M  V30 61 1 58 23
M  V30 62 1 59 26
M  V30 63 1 60 27
M  V30 64 1 61 28
M  V30 65 1 62 29
M  V30 66 1 63 31
M  V30 67 1 64 31
M  V30 68 1 4 65 CFG=1
M  V30 END BOND
M  V30 END CTAB
M  END
>  <b_m_subgroup_collapsed>  (985) 
0

>  <r_i_docking_score>  (985) 
-7.6213908233916001

>  <s_m_subgroup_title>  (985) 
glide-dock_SP_D22_pv

>  <s_m_subgroupid>  (985) 
glide-dock_SP_D22_pv

>  <Molecule ChEMBL ID>  (985) 
CHEMBL252539

>  <Standard Type>  (985) 
Ki

>  <Standard Value>  (985) 
14.6

>  <label>  (985) 
1

$$$$
CHEMBL540028
     RDKit          3D

  0  0  0  0  0  0  0  0  0  0999 V3000
M  V30 BEGIN CTAB
M  V30 COUNTS 46 49 0 0 1
M  V30 BEGIN ATOM
M  V30 1 O 12.486203 8.170172 -8.061456 0
M  V30 2 C 11.279015 8.182179 -7.831088 0
M  V30 3 C 10.612439 8.382118 -6.567278 0
M  V30 4 C 11.208446 8.434258 -5.231127 0
M  V30 5 C 11.685887 7.242177 -4.644804 0
M  V30 6 C 12.214774 7.262528 -3.339679 0
M  V30 7 C 12.284854 8.475611 -2.629409 0
M  V30 8 C 11.823681 9.664898 -3.223672 0
M  V30 9 C 11.285950 9.651505 -4.525515 0
M  V30 10 C 9.329141 8.570104 -6.890874 0
M  V30 11 O 9.021548 8.435882 -8.217693 0
M  V30 12 C 10.203340 8.014289 -8.893728 0 CFG=1
M  V30 13 C 10.501433 8.865164 -10.128790 0
M  V30 14 C 9.476024 8.572604 -11.231055 0
M  V30 15 C 9.472524 7.096894 -11.592643 0
M  V30 16 N 9.127306 6.293748 -10.397465 0 CFG=1 CHG=1
M  V30 17 C 9.033054 4.847798 -10.687916 0
M  V30 18 C 8.155652 4.513366 -11.877378 0
M  V30 19 C 6.791637 4.863502 -11.858251 0
M  V30 20 C 5.937988 4.431365 -12.885384 0
M  V30 21 C 6.455636 3.672719 -13.944907 0
M  V30 22 C 7.829656 3.373140 -14.007787 0
M  V30 23 C 8.685205 3.796583 -12.974929 0
M  V30 24 C 10.061131 6.529908 -9.263760 0
M  V30 25 H 11.626938 6.306756 -5.182637 0
M  V30 26 H 12.561816 6.345733 -2.885428 0
M  V30 27 H 12.693290 8.497274 -1.628419 0
M  V30 28 H 11.879866 10.589135 -2.667425 0
M  V30 29 H 10.924292 10.567717 -4.970158 0
M  V30 30 H 8.485574 8.766783 -6.247763 0
M  V30 31 H 10.494544 9.915265 -9.846852 0
M  V30 32 H 11.503682 8.656564 -10.508795 0
M  V30 33 H 8.485347 8.883342 -10.900025 0
M  V30 34 H 9.685385 9.150347 -12.128827 0
M  V30 35 H 8.742438 6.952138 -12.389526 0
M  V30 36 H 10.442899 6.791866 -11.986877 0
M  V30 37 H 10.033607 4.440152 -10.853960 0
M  V30 38 H 8.629021 4.337989 -9.810153 0
M  V30 39 H 6.388193 5.450259 -11.047158 0
M  V30 40 H 4.886333 4.672396 -12.864467 0
M  V30 41 H 5.793132 3.353908 -14.730428 0
M  V30 42 H 8.220202 2.801597 -14.838228 0
M  V30 43 H 9.730025 3.525755 -13.007596 0
M  V30 44 H 11.048628 6.169300 -9.549586 0
M  V30 45 H 9.739902 5.949785 -8.395754 0
M  V30 46 H 8.205745 6.614549 -10.110268 0
M  V30 END ATOM
M  V30 BEGIN BOND
M  V30 1 2 2 1
M  V30 2 1 3 2
M  V30 3 1 4 3
M  V30 4 2 5 4
M  V30 5 1 6 5
M  V30 6 2 7 6
M  V30 7 1 8 7
M  V30 8 1 9 4
M  V30 9 2 9 8
M  V30 10 2 10 3
M  V30 11 1 11 10
M  V30 12 1 12 2
M  V30 13 1 12 11 CFG=1
M  V30 14 1 13 12
M  V30 15 1 14 13
M  V30 16 1 15 14
M  V30 17 1 16 15
M  V30 18 1 17 16
M  V30 19 1 18 17
M  V30 20 2 19 18
M  V30 21 1 20 19
M  V30 22 2 21 20
M  V30 23 1 22 21
M  V30 24 1 23 18
M  V30 25 2 23 22
M  V30 26 1 24 12
M  V30 27 1 24 16
M  V30 28 1 25 5
M  V30 29 1 26 6
M  V30 30 1 27 7
M  V30 31 1 28 8
M  V30 32 1 29 9
M  V30 33 1 30 10
M  V30 34 1 31 13
M  V30 35 1 32 13
M  V30 36 1 33 14
M  V30 37 1 34 14
M  V30 38 1 35 15
M  V30 39 1 36 15
M  V30 40 1 37 17
M  V30 41 1 38 17
M  V30 42 1 39 19
M  V30 43 1 40 20
M  V30 44 1 41 21
M  V30 45 1 42 22
M  V30 46 1 43 23
M  V30 47 1 44 24
M  V30 48 1 45 24
M  V30 49 1 16 46 CFG=1
M  V30 END BOND
M  V30 END CTAB
M  END
>  <b_m_subgroup_collapsed>  (986) 
0

>  <r_i_docking_score>  (986) 
-7.6205166942672502

>  <s_m_subgroup_title>  (986) 
glide-dock_SP_D22_pv

>  <s_m_subgroupid>  (986) 
glide-dock_SP_D22_pv

>  <Molecule ChEMBL ID>  (986) 
CHEMBL540028

>  <Standard Type>  (986) 
Ki

>  <Standard Value>  (986) 
10000.0

>  <label>  (986) 
0

$$$$
CHEMBL1215037
     RDKit          3D

  0  0  0  0  0  0  0  0  0  0999 V3000
M  V30 BEGIN CTAB
M  V30 COUNTS 56 59 0 0 1
M  V30 BEGIN ATOM
M  V30 1 C 4.083797 -0.708222 -14.283339 0
M  V30 2 C 4.916460 0.452272 -13.723667 0
M  V30 3 C 6.285359 0.575380 -14.403369 0
M  V30 4 O 6.886641 1.818745 -14.052537 0
M  V30 5 C 8.202846 2.043549 -14.411263 0
M  V30 6 C 9.010709 1.069638 -15.058437 0
M  V30 7 C 10.345204 1.353626 -15.402555 0
M  V30 8 C 10.890084 2.614659 -15.118804 0
M  V30 9 C 10.102820 3.591593 -14.482235 0
M  V30 10 C 8.767364 3.311499 -14.111538 0
M  V30 11 C 7.909566 4.390045 -13.449094 0
M  V30 12 N 8.648751 5.474767 -12.795056 0
M  V30 13 C 9.222039 5.032010 -11.519736 0
M  V30 14 C 10.037362 6.178580 -10.883677 0
M  V30 15 N 9.183171 7.370388 -10.655478 0 CHG=1
M  V30 16 C 9.869608 8.508117 -9.994707 0
M  V30 17 C 10.276288 8.278198 -8.567954 0
M  V30 18 C 10.173367 7.204864 -7.709147 0
M  V30 19 C 10.796931 7.617418 -6.481421 0
M  V30 20 C 11.079189 7.041894 -5.221292 0
M  V30 21 C 11.712779 7.794636 -4.207454 0
M  V30 22 C 12.084782 9.136177 -4.432696 0
M  V30 23 C 11.832842 9.730415 -5.685810 0
M  V30 24 C 11.201757 8.960212 -6.677705 0
M  V30 25 O 10.887036 9.346490 -7.960829 0
M  V30 26 C 8.559863 7.767507 -11.940004 0
M  V30 27 C 7.750353 6.595583 -12.519884 0
M  V30 28 H 3.143526 -0.816778 -13.743346 0
M  V30 29 H 3.838827 -0.540150 -15.333506 0
M  V30 30 H 4.626013 -1.652192 -14.224483 0
M  V30 31 H 5.061077 0.325546 -12.651369 0
M  V30 32 H 4.353864 1.373616 -13.845997 0
M  V30 33 H 6.178877 0.520433 -15.487221 0
M  V30 34 H 6.900451 -0.265856 -14.079915 0
M  V30 35 H 8.633632 0.091791 -15.308152 0
M  V30 36 H 10.948545 0.602814 -15.889409 0
M  V30 37 H 11.911377 2.839490 -15.392706 0
M  V30 38 H 10.536146 4.562244 -14.287970 0
M  V30 39 H 7.290791 4.808270 -14.244791 0
M  V30 40 H 7.222541 3.932234 -12.733767 0
M  V30 41 H 8.432872 4.700722 -10.842869 0
M  V30 42 H 9.873958 4.173577 -11.687395 0
M  V30 43 H 10.474217 5.828641 -9.952271 0
M  V30 44 H 10.867256 6.460265 -11.536975 0
M  V30 45 H 10.742572 8.790878 -10.582266 0
M  V30 46 H 9.200731 9.368945 -10.010677 0
M  V30 47 H 9.729265 6.237910 -7.891551 0
M  V30 48 H 10.795091 6.018557 -5.024645 0
M  V30 49 H 11.909174 7.337422 -3.245321 0
M  V30 50 H 12.569098 9.704740 -3.650693 0
M  V30 51 H 12.125966 10.749127 -5.887542 0
M  V30 52 H 7.903142 8.630471 -11.812998 0
M  V30 53 H 9.332735 8.078546 -12.644427 0
M  V30 54 H 7.284704 6.928271 -13.446781 0
M  V30 55 H 6.943877 6.295929 -11.846742 0
M  V30 56 H 8.398551 7.116477 -10.063196 0
M  V30 END ATOM
M  V30 BEGIN BOND
M  V30 1 1 2 1
M  V30 2 1 3 2
M  V30 3 1 4 3
M  V30 4 1 5 4
M  V30 5 2 6 5
M  V30 6 1 7 6
M  V30 7 2 8 7
M  V30 8 1 9 8
M  V30 9 1 10 5
M  V30 10 2 10 9
M  V30 11 1 11 10
M  V30 12 1 12 11
M  V30 13 1 13 12
M  V30 14 1 14 13
M  V30 15 1 15 14
M  V30 16 1 16 15
M  V30 17 1 17 16
M  V30 18 2 18 17
M  V30 19 1 19 18
M  V30 20 2 20 19
M  V30 21 1 21 20
M  V30 22 2 22 21
M  V30 23 1 23 22
M  V30 24 1 24 19
M  V30 25 2 24 23
M  V30 26 1 25 17
M  V30 27 1 25 24
M  V30 28 1 26 15
M  V30 29 1 27 12
M  V30 30 1 27 26
M  V30 31 1 28 1
M  V30 32 1 29 1
M  V30 33 1 30 1
M  V30 34 1 31 2
M  V30 35 1 32 2
M  V30 36 1 33 3
M  V30 37 1 34 3
M  V30 38 1 35 6
M  V30 39 1 36 7
M  V30 40 1 37 8
M  V30 41 1 38 9
M  V30 42 1 39 11
M  V30 43 1 40 11
M  V30 44 1 41 13
M  V30 45 1 42 13
M  V30 46 1 43 14
M  V30 47 1 44 14
M  V30 48 1 45 16
M  V30 49 1 46 16
M  V30 50 1 47 18
M  V30 51 1 48 20
M  V30 52 1 49 21
M  V30 53 1 50 22
M  V30 54 1 51 23
M  V30 55 1 52 26
M  V30 56 1 53 26
M  V30 57 1 54 27
M  V30 58 1 55 27
M  V30 59 1 56 15
M  V30 END BOND
M  V30 END CTAB
M  END
>  <b_m_subgroup_collapsed>  (987) 
0

>  <r_i_docking_score>  (987) 
-7.6204927986333901

>  <s_m_subgroup_title>  (987) 
glide-dock_SP_D22_pv

>  <s_m_subgroupid>  (987) 
glide-dock_SP_D22_pv

>  <Molecule ChEMBL ID>  (987) 
CHEMBL1215037

>  <Standard Type>  (987) 
Ki

>  <Standard Value>  (987) 
10000.0

>  <label>  (987) 
0

$$$$
CHEMBL3897499
     RDKit          3D

  0  0  0  0  0  0  0  0  0  0999 V3000
M  V30 BEGIN CTAB
M  V30 COUNTS 62 66 0 0 1
M  V30 BEGIN ATOM
M  V30 1 C 7.684061 -0.154437 -14.248155 0
M  V30 2 C 7.180358 0.995204 -15.122977 0
M  V30 3 C 8.286331 2.003340 -15.506006 0
M  V30 4 N 8.815626 2.861910 -14.397041 0 CFG=2 CHG=1
M  V30 5 C 7.726247 3.613635 -13.716723 0
M  V30 6 C 8.236259 4.453827 -12.551365 0
M  V30 7 C 9.296190 5.474726 -13.002686 0 CFG=1
M  V30 8 C 9.835051 6.339984 -11.864334 0
M  V30 9 C 9.126727 6.470506 -10.648733 0
M  V30 10 C 9.710235 7.150458 -9.569276 0
M  V30 11 C 9.045294 7.190478 -8.330861 0
M  V30 12 C 9.613998 7.872422 -7.246162 0
M  V30 13 C 10.861355 8.506074 -7.394848 0
M  V30 14 C 11.463386 9.223577 -6.198480 0
M  V30 15 F 12.767060 9.385738 -6.368205 0
M  V30 16 F 10.894007 10.417785 -6.047347 0
M  V30 17 F 11.276177 8.515439 -5.084630 0
M  V30 18 C 11.528617 8.453938 -8.644360 0
M  V30 19 C 10.970140 7.767116 -9.744446 0
M  V30 20 N 11.633925 7.666019 -10.917586 0
M  V30 21 C 11.101072 6.972369 -11.954819 0
M  V30 22 C 12.066701 6.692231 -13.123063 0 CFG=2
M  V30 23 C 12.687662 7.946567 -13.810497 0
M  V30 24 C 13.686085 8.773954 -12.958586 0
M  V30 25 C 11.538800 5.679683 -14.186806 0 CFG=1
M  V30 26 C 12.706532 4.856823 -14.777239 0
M  V30 27 C 12.237140 3.951756 -15.914124 0
M  V30 28 C 11.121942 3.010744 -15.449834 0
M  V30 29 C 9.920364 3.782855 -14.841440 0 CFG=2
M  V30 30 C 10.437537 4.704969 -13.686167 0 CFG=2
M  V30 31 H 6.914813 -0.917413 -14.125031 0
M  V30 32 H 7.983878 0.173926 -13.255854 0
M  V30 33 H 8.545682 -0.627664 -14.716195 0
M  V30 34 H 6.808270 0.553508 -16.048273 0
M  V30 35 H 6.305539 1.465375 -14.679319 0
M  V30 36 H 9.084219 1.404421 -15.939004 0
M  V30 37 H 7.919622 2.640562 -16.310688 0
M  V30 38 H 7.210705 4.254045 -14.429683 0
M  V30 39 H 6.976946 2.938954 -13.308570 0
M  V30 40 H 7.368157 4.956761 -12.124772 0
M  V30 41 H 8.643050 3.797361 -11.780050 0
M  V30 42 H 8.832573 6.152567 -13.720384 0
M  V30 43 H 8.154388 6.027650 -10.495638 0
M  V30 44 H 8.086383 6.706114 -8.209334 0
M  V30 45 H 9.087891 7.904723 -6.302400 0
M  V30 46 H 12.490471 8.932258 -8.770085 0
M  V30 47 H 12.885969 6.173283 -12.638502 0
M  V30 48 H 13.261353 7.621746 -14.676679 0
M  V30 49 H 11.909401 8.571256 -14.246781 0
M  V30 50 H 14.085963 9.615646 -13.519883 0
M  V30 51 H 14.534173 8.172465 -12.646274 0
M  V30 52 H 13.272923 9.201628 -12.051059 0
M  V30 53 H 11.086653 6.263813 -14.990016 0
M  V30 54 H 13.496733 5.504611 -15.154758 0
M  V30 55 H 13.167490 4.250532 -13.996386 0
M  V30 56 H 11.882703 4.562654 -16.745319 0
M  V30 57 H 13.077233 3.370276 -16.295206 0
M  V30 58 H 10.836125 2.432729 -16.325958 0
M  V30 59 H 11.518510 2.304519 -14.718789 0
M  V30 60 H 9.504033 4.426672 -15.619934 0
M  V30 61 H 10.886098 4.060364 -12.929038 0
M  V30 62 H 9.214836 2.240391 -13.705013 0
M  V30 END ATOM
M  V30 BEGIN BOND
M  V30 1 1 2 1
M  V30 2 1 3 2
M  V30 3 1 4 3
M  V30 4 1 5 4
M  V30 5 1 6 5
M  V30 6 1 7 6
M  V30 7 1 8 7
M  V30 8 1 9 8
M  V30 9 2 10 9
M  V30 10 1 11 10
M  V30 11 2 12 11
M  V30 12 1 13 12
M  V30 13 1 14 13
M  V30 14 1 15 14
M  V30 15 1 16 14
M  V30 16 1 17 14
M  V30 17 2 18 13
M  V30 18 1 19 10
M  V30 19 1 19 18
M  V30 20 2 20 19
M  V30 21 2 21 8
M  V30 22 1 21 20
M  V30 23 1 22 21
M  V30 24 1 23 22
M  V30 25 1 24 23
M  V30 26 1 25 22
M  V30 27 1 26 25
M  V30 28 1 27 26
M  V30 29 1 28 27
M  V30 30 1 29 4
M  V30 31 1 29 28
M  V30 32 1 30 7
M  V30 33 1 30 25
M  V30 34 1 30 29
M  V30 35 1 31 1
M  V30 36 1 32 1
M  V30 37 1 33 1
M  V30 38 1 34 2
M  V30 39 1 35 2
M  V30 40 1 36 3
M  V30 41 1 37 3
M  V30 42 1 38 5
M  V30 43 1 39 5
M  V30 44 1 40 6
M  V30 45 1 41 6
M  V30 46 1 7 42 CFG=3
M  V30 47 1 43 9
M  V30 48 1 44 11
M  V30 49 1 45 12
M  V30 50 1 46 18
M  V30 51 1 22 47 CFG=1
M  V30 52 1 48 23
M  V30 53 1 49 23
M  V30 54 1 50 24
M  V30 55 1 51 24
M  V30 56 1 52 24
M  V30 57 1 25 53 CFG=3
M  V30 58 1 54 26
M  V30 59 1 55 26
M  V30 60 1 56 27
M  V30 61 1 57 27
M  V30 62 1 58 28
M  V30 63 1 59 28
M  V30 64 1 29 60 CFG=3
M  V30 65 1 30 61 CFG=1
M  V30 66 1 4 62 CFG=1
M  V30 END BOND
M  V30 END CTAB
M  END
>  <b_m_subgroup_collapsed>  (988) 
0

>  <r_i_docking_score>  (988) 
-7.6196568635873101

>  <s_m_subgroup_title>  (988) 
glide-dock_SP_D22_pv

>  <s_m_subgroupid>  (988) 
glide-dock_SP_D22_pv

>  <Molecule ChEMBL ID>  (988) 
CHEMBL3897499

>  <Standard Type>  (988) 
Ki

>  <Standard Value>  (988) 
10000.0

>  <label>  (988) 
0

$$$$
CHEMBL381912
     RDKit          3D

  0  0  0  0  0  0  0  0  0  0999 V3000
M  V30 BEGIN CTAB
M  V30 COUNTS 46 50 0 0 1
M  V30 BEGIN ATOM
M  V30 1 C 12.284101 4.874709 -14.428964 0
M  V30 2 C 12.321451 6.209775 -13.997142 0
M  V30 3 C 11.286350 6.724382 -13.196133 0
M  V30 4 C 10.175213 5.931429 -12.813923 0
M  V30 5 C 8.985918 6.557982 -12.030962 0 CFG=1
M  V30 6 C 7.786857 5.608904 -11.846920 0
M  V30 7 C 8.093400 4.572328 -10.761110 0
M  V30 8 C 8.493962 5.203548 -9.424288 0
M  V30 9 C 9.668503 6.141352 -9.648017 0 CFG=2
M  V30 10 C 10.129695 6.814573 -8.388000 0
M  V30 11 N 10.436270 6.175620 -7.204556 0
M  V30 12 C 10.868604 7.083003 -6.257532 0
M  V30 13 C 11.286096 6.925115 -4.925428 0
M  V30 14 C 11.694345 8.049852 -4.190158 0
M  V30 15 C 11.678050 9.319975 -4.793449 0
M  V30 16 C 11.254570 9.474310 -6.130983 0
M  V30 17 C 10.837849 8.358297 -6.896455 0
M  V30 18 C 10.366306 8.149578 -8.239090 0
M  V30 19 C 10.136151 9.090848 -9.368056 0
M  V30 20 C 10.191126 8.325896 -10.696833 0
M  V30 21 N 9.292991 7.145394 -10.686593 0 CFG=1 CHG=1
M  V30 22 C 10.145000 4.594192 -13.296056 0
M  V30 23 C 11.190005 4.068279 -14.079464 0
M  V30 24 H 13.081315 4.477642 -15.040667 0
M  V30 25 H 13.148767 6.843043 -14.283662 0
M  V30 26 H 11.338934 7.770608 -12.950337 0
M  V30 27 H 8.624863 7.380890 -12.647867 0
M  V30 28 H 6.909456 6.172233 -11.532599 0
M  V30 29 H 7.495266 5.139130 -12.786281 0
M  V30 30 H 7.256598 3.891506 -10.642973 0
M  V30 31 H 8.926373 3.942497 -11.060246 0
M  V30 32 H 7.684230 5.773937 -8.984044 0
M  V30 33 H 8.749725 4.421049 -8.708720 0
M  V30 34 H 10.486206 5.548266 -10.038280 0
M  V30 35 H 10.336282 5.181455 -7.062027 0
M  V30 36 H 11.292961 5.945504 -4.469865 0
M  V30 37 H 12.018319 7.939970 -3.165236 0
M  V30 38 H 11.994347 10.172315 -4.216066 0
M  V30 39 H 11.249994 10.457084 -6.578115 0
M  V30 40 H 9.163204 9.569469 -9.258267 0
M  V30 41 H 10.889181 9.878963 -9.373622 0
M  V30 42 H 9.914590 8.973188 -11.523484 0
M  V30 43 H 11.220373 8.001428 -10.846167 0
M  V30 44 H 9.312985 3.933908 -13.116759 0
M  V30 45 H 11.141367 3.046591 -14.427486 0
M  V30 46 H 8.389074 7.498709 -10.374562 0
M  V30 END ATOM
M  V30 BEGIN BOND
M  V30 1 2 2 1
M  V30 2 1 3 2
M  V30 3 2 4 3
M  V30 4 1 5 4
M  V30 5 1 6 5
M  V30 6 1 7 6
M  V30 7 1 8 7
M  V30 8 1 9 8
M  V30 9 1 10 9
M  V30 10 1 11 10
M  V30 11 1 12 11
M  V30 12 2 13 12
M  V30 13 1 14 13
M  V30 14 2 15 14
M  V30 15 1 16 15
M  V30 16 1 17 12
M  V30 17 2 17 16
M  V30 18 2 18 10
M  V30 19 1 18 17
M  V30 20 1 19 18
M  V30 21 1 20 19
M  V30 22 1 21 5
M  V30 23 1 21 9
M  V30 24 1 21 20
M  V30 25 1 22 4
M  V30 26 1 23 1
M  V30 27 2 23 22
M  V30 28 1 24 1
M  V30 29 1 25 2
M  V30 30 1 26 3
M  V30 31 1 5 27 CFG=3
M  V30 32 1 28 6
M  V30 33 1 29 6
M  V30 34 1 30 7
M  V30 35 1 31 7
M  V30 36 1 32 8
M  V30 37 1 33 8
M  V30 38 1 9 34 CFG=3
M  V30 39 1 35 11
M  V30 40 1 36 13
M  V30 41 1 37 14
M  V30 42 1 38 15
M  V30 43 1 39 16
M  V30 44 1 40 19
M  V30 45 1 41 19
M  V30 46 1 42 20
M  V30 47 1 43 20
M  V30 48 1 44 22
M  V30 49 1 45 23
M  V30 50 1 21 46 CFG=1
M  V30 END BOND
M  V30 END CTAB
M  END
>  <b_m_subgroup_collapsed>  (989) 
0

>  <r_i_docking_score>  (989) 
-7.61905783807092

>  <s_m_subgroup_title>  (989) 
glide-dock_SP_D22_pv

>  <s_m_subgroupid>  (989) 
glide-dock_SP_D22_pv

>  <Molecule ChEMBL ID>  (989) 
CHEMBL381912

>  <Standard Type>  (989) 
Ki

>  <Standard Value>  (989) 
10000.0

>  <label>  (989) 
0

$$$$
CHEMBL5904436
     RDKit          3D

  0  0  0  0  0  0  0  0  0  0999 V3000
M  V30 BEGIN CTAB
M  V30 COUNTS 76 81 0 0 1
M  V30 BEGIN ATOM
M  V30 1 C 4.887043 -3.589613 -17.732033 0
M  V30 2 N 5.900279 -2.749529 -18.325691 0
M  V30 3 C 6.392771 -1.544319 -17.847298 0
M  V30 4 C 7.354248 -1.148648 -18.763062 0
M  V30 5 C 8.197350 -0.018217 -18.819065 0
M  V30 6 C 8.169861 1.042673 -17.762161 0
M  V30 7 O 8.086199 2.229598 -18.079922 0
M  V30 8 N 8.248966 0.598714 -16.493021 0
M  V30 9 C 8.141855 1.386774 -15.261568 0 CFG=1
M  V30 10 C 9.245416 2.454433 -15.145434 0
M  V30 11 C 9.116482 3.242152 -13.835532 0
M  V30 12 C 7.737462 3.933245 -13.712560 0 CFG=2
M  V30 13 C 7.586205 4.715715 -12.389006 0
M  V30 14 C 8.458869 5.989476 -12.332576 0
M  V30 15 N 8.486124 6.671712 -11.013570 0 CFG=1 CHG=1
M  V30 16 C 9.173399 5.879644 -9.959453 0
M  V30 17 C 9.094398 6.556715 -8.583064 0
M  V30 18 C 9.510280 8.037128 -8.578389 0 CFG=1
M  V30 19 C 10.977813 8.195590 -8.416962 0
M  V30 20 N 11.754508 7.773216 -9.404958 0
M  V30 21 O 13.045765 8.134606 -9.052855 0
M  V30 22 C 12.970008 8.728259 -7.847295 0
M  V30 23 C 11.707567 8.810530 -7.362118 0
M  V30 24 C 11.279913 9.437034 -6.056406 0
M  V30 25 F 11.191667 10.752767 -6.245565 0
M  V30 26 F 10.088790 8.978014 -5.690905 0
M  V30 27 C 12.287530 9.191183 -4.939422 0
M  V30 28 C 11.913379 9.354536 -3.484318 0
M  V30 29 C 12.184202 7.977541 -4.039192 0
M  V30 30 C 9.064200 8.839492 -9.805288 0
M  V30 31 C 9.089099 8.034184 -11.129780 0
M  V30 32 C 6.587263 2.910856 -13.879757 0
M  V30 33 C 6.739131 2.003566 -15.113808 0
M  V30 34 C 9.037947 0.116404 -19.951088 0
M  V30 35 C 9.052826 -0.873481 -20.963087 0
M  V30 36 C 8.214499 -2.006132 -20.867945 0
M  V30 37 C 7.370959 -2.116460 -19.749937 0
M  V30 38 N 6.502956 -3.118261 -19.512278 0
M  V30 39 H 4.485958 -3.095262 -16.846415 0
M  V30 40 H 4.076263 -3.759586 -18.439632 0
M  V30 41 H 5.319062 -4.546916 -17.442562 0
M  V30 42 H 6.014527 -1.123852 -16.927635 0
M  V30 43 H 8.335018 -0.401968 -16.371500 0
M  V30 44 H 8.282169 0.683373 -14.439625 0
M  V30 45 H 9.200739 3.155742 -15.978182 0
M  V30 46 H 10.227169 1.981377 -15.193532 0
M  V30 47 H 9.920596 3.975207 -13.801401 0
M  V30 48 H 9.289505 2.573317 -12.994200 0
M  V30 49 H 7.666552 4.650769 -14.529531 0
M  V30 50 H 7.808907 4.035802 -11.570982 0
M  V30 51 H 6.544971 5.011270 -12.251345 0
M  V30 52 H 8.064739 6.691607 -13.065443 0
M  V30 53 H 9.487018 5.778430 -12.625940 0
M  V30 54 H 8.730187 4.891049 -9.858946 0
M  V30 55 H 10.212413 5.724280 -10.245143 0
M  V30 56 H 9.682933 5.998351 -7.853404 0
M  V30 57 H 8.081137 6.483957 -8.219357 0
M  V30 58 H 9.021276 8.497066 -7.722549 0
M  V30 59 H 13.930070 8.995621 -7.446794 0
M  V30 60 H 13.291441 9.534723 -5.176926 0
M  V30 61 H 12.659766 9.772171 -2.812227 0
M  V30 62 H 10.885520 9.621736 -3.253064 0
M  V30 63 H 11.333757 7.312483 -4.175972 0
M  V30 64 H 13.109729 7.492433 -3.733773 0
M  V30 65 H 8.084557 9.236269 -9.622213 0
M  V30 66 H 9.656377 9.755924 -9.856356 0
M  V30 67 H 8.552803 8.605882 -11.888479 0
M  V30 68 H 10.113435 7.941003 -11.490146 0
M  V30 69 H 6.486123 2.282605 -12.997052 0
M  V30 70 H 5.639162 3.443701 -13.949449 0
M  V30 71 H 6.487138 2.572813 -16.005001 0
M  V30 72 H 6.009521 1.196316 -15.052399 0
M  V30 73 H 9.681600 0.979993 -20.046387 0
M  V30 74 H 9.705431 -0.761855 -21.816528 0
M  V30 75 H 8.216754 -2.766568 -21.634533 0
M  V30 76 H 7.525307 6.862656 -10.703059 0
M  V30 END ATOM
M  V30 BEGIN BOND
M  V30 1 1 2 1
M  V30 2 1 3 2
M  V30 3 2 4 3
M  V30 4 1 5 4
M  V30 5 1 6 5
M  V30 6 2 7 6
M  V30 7 1 8 6
M  V30 8 1 9 8
M  V30 9 1 10 9
M  V30 10 1 11 10
M  V30 11 1 12 11
M  V30 12 1 13 12
M  V30 13 1 14 13
M  V30 14 1 15 14
M  V30 15 1 16 15
M  V30 16 1 17 16
M  V30 17 1 18 17
M  V30 18 1 19 18
M  V30 19 2 20 19
M  V30 20 1 21 20
M  V30 21 1 22 21
M  V30 22 1 23 19
M  V30 23 2 23 22
M  V30 24 1 24 23
M  V30 25 1 25 24
M  V30 26 1 26 24
M  V30 27 1 27 24
M  V30 28 1 28 27
M  V30 29 1 29 27
M  V30 30 1 29 28
M  V30 31 1 30 18
M  V30 32 1 31 15
M  V30 33 1 31 30
M  V30 34 1 32 12
M  V30 35 1 33 9
M  V30 36 1 33 32
M  V30 37 2 34 5
M  V30 38 1 35 34
M  V30 39 2 36 35
M  V30 40 1 37 4
M  V30 41 1 37 36
M  V30 42 1 38 2
M  V30 43 2 38 37
M  V30 44 1 39 1
M  V30 45 1 40 1
M  V30 46 1 41 1
M  V30 47 1 42 3
M  V30 48 1 43 8
M  V30 49 1 9 44 CFG=1
M  V30 50 1 45 10
M  V30 51 1 46 10
M  V30 52 1 47 11
M  V30 53 1 48 11
M  V30 54 1 12 49 CFG=3
M  V30 55 1 50 13
M  V30 56 1 51 13
M  V30 57 1 52 14
M  V30 58 1 53 14
M  V30 59 1 54 16
M  V30 60 1 55 16
M  V30 61 1 56 17
M  V30 62 1 57 17
M  V30 63 1 18 58 CFG=1
M  V30 64 1 59 22
M  V30 65 1 60 27
M  V30 66 1 61 28
M  V30 67 1 62 28
M  V30 68 1 63 29
M  V30 69 1 64 29
M  V30 70 1 65 30
M  V30 71 1 66 30
M  V30 72 1 67 31
M  V30 73 1 68 31
M  V30 74 1 69 32
M  V30 75 1 70 32
M  V30 76 1 71 33
M  V30 77 1 72 33
M  V30 78 1 73 34
M  V30 79 1 74 35
M  V30 80 1 75 36
M  V30 81 1 15 76 CFG=1
M  V30 END BOND
M  V30 END CTAB
M  END
>  <b_m_subgroup_collapsed>  (990) 
0

>  <r_i_docking_score>  (990) 
-7.6183317642024599

>  <s_m_subgroup_title>  (990) 
glide-dock_SP_D22_pv

>  <s_m_subgroupid>  (990) 
glide-dock_SP_D22_pv

>  <Molecule ChEMBL ID>  (990) 
CHEMBL5904436

>  <Standard Type>  (990) 
Ki

>  <Standard Value>  (990) 
45.0

>  <label>  (990) 
1

$$$$
CHEMBL4100699
     RDKit          3D

  0  0  0  0  0  0  0  0  0  0999 V3000
M  V30 BEGIN CTAB
M  V30 COUNTS 73 77 0 0 1
M  V30 BEGIN ATOM
M  V30 1 C 13.004153 8.852931 -1.507157 0
M  V30 2 O 12.483929 7.713964 -2.163441 0
M  V30 3 C 11.966513 7.905766 -3.422446 0
M  V30 4 C 11.689099 9.174024 -3.988493 0
M  V30 5 C 11.151711 9.273188 -5.286181 0
M  V30 6 C 10.877690 8.112264 -6.047464 0
M  V30 7 N 10.307831 8.198478 -7.333193 0
M  V30 8 C 9.529421 7.107894 -7.911243 0
M  V30 9 C 10.242042 6.590456 -9.169277 0
M  V30 10 C 10.458983 7.714745 -10.228802 0
M  V30 11 C 9.138821 8.197040 -10.862780 0
M  V30 12 C 8.405116 7.062662 -11.609844 0
M  V30 13 N 9.229223 6.403995 -12.646857 0 CHG=1
M  V30 14 C 8.535696 5.221980 -13.222728 0
M  V30 15 C 9.256255 4.611570 -14.443085 0
M  V30 16 C 10.161187 3.403471 -14.127846 0
M  V30 17 S 10.892166 2.693708 -15.633965 0
M  V30 18 C 9.412733 2.083426 -16.370916 0
M  V30 19 N 8.854056 2.640658 -17.442623 0
M  V30 20 N 7.685744 1.946688 -17.642290 0
M  V30 21 C 7.623863 1.020878 -16.676044 0
M  V30 22 C 6.463671 0.131837 -16.557386 0
M  V30 23 C 5.843042 -0.365797 -17.726135 0
M  V30 24 C 4.698102 -1.182149 -17.638544 0
M  V30 25 C 4.163090 -1.511819 -16.379894 0
M  V30 26 C 4.776266 -1.026644 -15.210396 0
M  V30 27 C 5.918295 -0.206053 -15.296814 0
M  V30 28 N 8.716866 1.042218 -15.873377 0
M  V30 29 C 9.075935 0.172605 -14.765232 0
M  V30 30 C 10.595625 6.084928 -12.193912 0
M  V30 31 C 11.285832 7.231919 -11.427672 0
M  V30 32 C 11.226832 8.866884 -9.529696 0
M  V30 33 C 10.570055 9.325331 -8.216025 0
M  V30 34 C 11.168779 6.855206 -5.475001 0
M  V30 35 C 11.685992 6.753487 -4.173887 0
M  V30 36 H 13.592068 8.546800 -0.646879 0
M  V30 37 H 13.686009 9.372289 -2.172702 0
M  V30 38 H 12.213714 9.527138 -1.174687 0
M  V30 39 H 11.861687 10.086631 -3.438668 0
M  V30 40 H 10.921546 10.254861 -5.669269 0
M  V30 41 H 8.539201 7.486076 -8.167354 0
M  V30 42 H 9.342671 6.297053 -7.209682 0
M  V30 43 H 9.680843 5.743709 -9.560133 0
M  V30 44 H 11.206861 6.185894 -8.867647 0
M  V30 45 H 9.335416 9.003322 -11.568299 0
M  V30 46 H 8.486124 8.628553 -10.106355 0
M  V30 47 H 7.527767 7.470306 -12.113360 0
M  V30 48 H 8.043102 6.315757 -10.902835 0
M  V30 49 H 7.540864 5.542229 -13.531154 0
M  V30 50 H 8.370567 4.462649 -12.457127 0
M  V30 51 H 9.805332 5.373704 -14.997869 0
M  V30 52 H 8.486066 4.262578 -15.121243 0
M  V30 53 H 9.598037 2.635161 -13.599369 0
M  V30 54 H 10.982445 3.678621 -13.470618 0
M  V30 55 H 6.238762 -0.116026 -18.699425 0
M  V30 56 H 4.227564 -1.555991 -18.536339 0
M  V30 57 H 3.289450 -2.145562 -16.312216 0
M  V30 58 H 4.365075 -1.282535 -14.246597 0
M  V30 59 H 6.353433 0.177342 -14.388051 0
M  V30 60 H 10.138477 0.246677 -14.537393 0
M  V30 61 H 8.508605 0.433390 -13.873202 0
M  V30 62 H 8.877894 -0.855285 -15.046980 0
M  V30 63 H 10.486008 5.195652 -11.574776 0
M  V30 64 H 11.222095 5.826981 -13.046329 0
M  V30 65 H 11.447455 8.055977 -12.116534 0
M  V30 66 H 12.290369 6.972335 -11.101372 0
M  V30 67 H 12.243338 8.539879 -9.301018 0
M  V30 68 H 11.337761 9.718500 -10.201876 0
M  V30 69 H 9.601520 9.772313 -8.429694 0
M  V30 70 H 11.215883 10.069756 -7.750307 0
M  V30 71 H 11.008821 5.941499 -6.022522 0
M  V30 72 H 11.890151 5.775552 -3.758942 0
M  V30 73 H 9.326804 7.083610 -13.385732 0
M  V30 END ATOM
M  V30 BEGIN BOND
M  V30 1 1 2 1
M  V30 2 1 3 2
M  V30 3 1 4 3
M  V30 4 2 5 4
M  V30 5 1 6 5
M  V30 6 1 7 6
M  V30 7 1 8 7
M  V30 8 1 9 8
M  V30 9 1 10 9
M  V30 10 1 11 10
M  V30 11 1 12 11
M  V30 12 1 13 12
M  V30 13 1 14 13
M  V30 14 1 15 14
M  V30 15 1 16 15
M  V30 16 1 17 16
M  V30 17 1 18 17
M  V30 18 2 19 18
M  V30 19 1 20 19
M  V30 20 2 21 20
M  V30 21 1 22 21
M  V30 22 2 23 22
M  V30 23 1 24 23
M  V30 24 2 25 24
M  V30 25 1 26 25
M  V30 26 1 27 22
M  V30 27 2 27 26
M  V30 28 1 28 18
M  V30 29 1 28 21
M  V30 30 1 29 28
M  V30 31 1 30 13
M  V30 32 1 31 10
M  V30 33 1 31 30
M  V30 34 1 32 10
M  V30 35 1 33 7
M  V30 36 1 33 32
M  V30 37 2 34 6
M  V30 38 2 35 3
M  V30 39 1 35 34
M  V30 40 1 36 1
M  V30 41 1 37 1
M  V30 42 1 38 1
M  V30 43 1 39 4
M  V30 44 1 40 5
M  V30 45 1 41 8
M  V30 46 1 42 8
M  V30 47 1 43 9
M  V30 48 1 44 9
M  V30 49 1 45 11
M  V30 50 1 46 11
M  V30 51 1 47 12
M  V30 52 1 48 12
M  V30 53 1 49 14
M  V30 54 1 50 14
M  V30 55 1 51 15
M  V30 56 1 52 15
M  V30 57 1 53 16
M  V30 58 1 54 16
M  V30 59 1 55 23
M  V30 60 1 56 24
M  V30 61 1 57 25
M  V30 62 1 58 26
M  V30 63 1 59 27
M  V30 64 1 60 29
M  V30 65 1 61 29
M  V30 66 1 62 29
M  V30 67 1 63 30
M  V30 68 1 64 30
M  V30 69 1 65 31
M  V30 70 1 66 31
M  V30 71 1 67 32
M  V30 72 1 68 32
M  V30 73 1 69 33
M  V30 74 1 70 33
M  V30 75 1 71 34
M  V30 76 1 72 35
M  V30 77 1 73 13
M  V30 END BOND
M  V30 END CTAB
M  END
>  <b_m_subgroup_collapsed>  (991) 
0

>  <r_i_docking_score>  (991) 
-7.6177755662790503

>  <s_m_subgroup_title>  (991) 
glide-dock_SP_D22_pv

>  <s_m_subgroupid>  (991) 
glide-dock_SP_D22_pv

>  <Molecule ChEMBL ID>  (991) 
CHEMBL4100699

>  <Standard Type>  (991) 
Ki

>  <Standard Value>  (991) 
104847.0

>  <label>  (991) 
0

$$$$
CHEMBL246439
     RDKit          3D

  0  0  0  0  0  0  0  0  0  0999 V3000
M  V30 BEGIN CTAB
M  V30 COUNTS 49 52 0 0 1
M  V30 BEGIN ATOM
M  V30 1 C 12.293427 7.979787 -10.592240 0
M  V30 2 C 11.800867 8.000001 -9.179907 0
M  V30 3 N 12.315434 8.972324 -8.367710 0
M  V30 4 C 11.931715 8.818227 -7.064049 0
M  V30 5 C 12.263522 9.520658 -5.892242 0
M  V30 6 C 11.951449 8.954240 -4.646856 0
M  V30 7 C 11.286022 7.715786 -4.608544 0
M  V30 8 C 10.828850 7.098720 -5.789971 0
M  V30 9 C 11.156398 7.627645 -7.058877 0
M  V30 10 C 10.953264 7.208768 -8.426743 0
M  V30 11 C 10.183874 5.979970 -8.833699 0
M  V30 12 N 9.052745 6.151880 -9.789165 0 CFG=2 CHG=1
M  V30 13 C 8.461052 4.826617 -10.080854 0
M  V30 14 C 7.286022 4.950042 -11.046891 0
M  V30 15 C 7.663040 5.488832 -12.414203 0 CFG=2
M  V30 16 O 6.403515 5.778515 -12.983422 0
M  V30 17 C 8.410354 4.457906 -13.281250 0
M  V30 18 C 7.681237 3.372325 -13.827230 0
M  V30 19 C 8.317784 2.375949 -14.590689 0
M  V30 20 C 9.700781 2.450995 -14.827222 0
M  V30 21 Cl 10.486021 1.209958 -15.732329 0
M  V30 22 C 10.436080 3.540765 -14.325109 0
M  V30 23 C 9.794946 4.541789 -13.567138 0
M  V30 24 C 8.372203 6.838429 -12.148993 0
M  V30 25 C 9.440733 6.836685 -11.044716 0
M  V30 26 H 11.659186 8.572309 -11.246849 0
M  V30 27 H 13.292086 8.412510 -10.658014 0
M  V30 28 H 12.374089 6.972325 -10.983073 0
M  V30 29 H 12.971797 9.658642 -8.727303 0
M  V30 30 H 12.851192 10.425158 -5.945096 0
M  V30 31 H 12.264832 9.436802 -3.731786 0
M  V30 32 H 11.103648 7.239482 -3.657171 0
M  V30 33 H 10.280519 6.172318 -5.717752 0
M  V30 34 H 9.785113 5.496015 -7.941459 0
M  V30 35 H 10.885903 5.268457 -9.248122 0
M  V30 36 H 8.115373 4.367898 -9.153046 0
M  V30 37 H 9.223043 4.172324 -10.504302 0
M  V30 38 H 6.611896 5.709405 -10.646871 0
M  V30 39 H 6.744109 4.005970 -11.123509 0
M  V30 40 H 5.957133 6.388053 -12.410458 0
M  V30 41 H 6.620456 3.286223 -13.640893 0
M  V30 42 H 7.746434 1.546363 -14.980741 0
M  V30 43 H 11.495906 3.609533 -14.522375 0
M  V30 44 H 10.395630 5.365389 -13.225677 0
M  V30 45 H 8.800734 7.238557 -13.046865 0
M  V30 46 H 7.649662 7.588840 -11.846929 0
M  V30 47 H 9.646385 7.878491 -10.809955 0
M  V30 48 H 10.346996 6.374789 -11.418009 0
M  V30 49 H 8.328910 6.716396 -9.354947 0
M  V30 END ATOM
M  V30 BEGIN BOND
M  V30 1 1 2 1
M  V30 2 1 3 2
M  V30 3 1 4 3
M  V30 4 2 5 4
M  V30 5 1 6 5
M  V30 6 2 7 6
M  V30 7 1 8 7
M  V30 8 1 9 4
M  V30 9 2 9 8
M  V30 10 2 10 2
M  V30 11 1 10 9
M  V30 12 1 11 10
M  V30 13 1 12 11
M  V30 14 1 13 12
M  V30 15 1 14 13
M  V30 16 1 15 14
M  V30 17 1 15 16 CFG=3
M  V30 18 1 17 15
M  V30 19 1 18 17
M  V30 20 2 19 18
M  V30 21 1 20 19
M  V30 22 1 21 20
M  V30 23 2 22 20
M  V30 24 2 23 17
M  V30 25 1 23 22
M  V30 26 1 24 15
M  V30 27 1 25 12
M  V30 28 1 25 24
M  V30 29 1 26 1
M  V30 30 1 27 1
M  V30 31 1 28 1
M  V30 32 1 29 3
M  V30 33 1 30 5
M  V30 34 1 31 6
M  V30 35 1 32 7
M  V30 36 1 33 8
M  V30 37 1 34 11
M  V30 38 1 35 11
M  V30 39 1 36 13
M  V30 40 1 37 13
M  V30 41 1 38 14
M  V30 42 1 39 14
M  V30 43 1 40 16
M  V30 44 1 41 18
M  V30 45 1 42 19
M  V30 46 1 43 22
M  V30 47 1 44 23
M  V30 48 1 45 24
M  V30 49 1 46 24
M  V30 50 1 47 25
M  V30 51 1 48 25
M  V30 52 1 12 49 CFG=1
M  V30 END BOND
M  V30 END CTAB
M  END
>  <b_m_subgroup_collapsed>  (992) 
0

>  <r_i_docking_score>  (992) 
-7.6166315475509103

>  <s_m_subgroup_title>  (992) 
glide-dock_SP_D22_pv

>  <s_m_subgroupid>  (992) 
glide-dock_SP_D22_pv

>  <Molecule ChEMBL ID>  (992) 
CHEMBL246439

>  <Standard Type>  (992) 
Ki

>  <Standard Value>  (992) 
15.4

>  <label>  (992) 
1

$$$$
CHEMBL4591118
     RDKit          3D

  0  0  0  0  0  0  0  0  0  0999 V3000
M  V30 BEGIN CTAB
M  V30 COUNTS 42 44 0 0 1
M  V30 BEGIN ATOM
M  V30 1 O 9.870786 5.612814 -12.543859 0
M  V30 2 C 8.908786 6.248435 -12.118747 0
M  V30 3 C 9.172468 7.593196 -11.440808 0
M  V30 4 N 9.285987 7.493921 -9.961671 0 CHG=1
M  V30 5 C 10.374482 6.597969 -9.486798 0
M  V30 6 C 10.410384 6.506848 -7.956198 0
M  V30 7 N 10.459678 7.832439 -7.348266 0
M  V30 8 C 10.919575 7.956772 -6.018165 0
M  V30 9 C 11.209819 6.823275 -5.219923 0
M  V30 10 C 11.691197 6.998782 -3.912086 0
M  V30 11 C 11.892956 8.304112 -3.439822 0
M  V30 12 Cl 12.485991 8.573079 -1.846748 0
M  V30 13 C 11.575924 9.376884 -4.291609 0
M  V30 14 N 11.096973 9.212887 -5.543619 0
M  V30 15 C 9.427675 8.765398 -7.800126 0
M  V30 16 C 9.359545 8.836290 -9.335235 0
M  V30 17 N 7.630292 5.833003 -12.177417 0
M  V30 18 C 7.136054 4.624745 -12.747520 0
M  V30 19 C 5.862069 4.171574 -12.350313 0
M  V30 20 C 5.350457 2.985468 -12.910214 0
M  V30 21 C 6.136376 2.291362 -13.846822 0
M  V30 22 N 7.347315 2.718619 -14.252766 0
M  V30 23 C 7.831535 3.858167 -13.717027 0
M  V30 24 H 10.087036 8.023890 -11.850689 0
M  V30 25 H 8.365166 8.278162 -11.705073 0
M  V30 26 H 10.248832 5.588570 -9.876995 0
M  V30 27 H 11.330635 6.970507 -9.859279 0
M  V30 28 H 9.531898 5.976419 -7.585423 0
M  V30 29 H 11.286346 5.921177 -7.678354 0
M  V30 30 H 11.061980 5.813255 -5.567074 0
M  V30 31 H 11.909101 6.146196 -3.285984 0
M  V30 32 H 11.686488 10.395114 -3.952220 0
M  V30 33 H 8.466279 8.451204 -7.390673 0
M  V30 34 H 9.618368 9.772002 -7.434135 0
M  V30 35 H 10.238269 9.361544 -9.712868 0
M  V30 36 H 8.485350 9.416749 -9.631324 0
M  V30 37 H 6.948309 6.410628 -11.693048 0
M  V30 38 H 5.284990 4.723113 -11.622548 0
M  V30 39 H 4.375929 2.609850 -12.640121 0
M  V30 40 H 5.776923 1.373918 -14.289452 0
M  V30 41 H 8.790808 4.155281 -14.109106 0
M  V30 42 H 8.400755 7.104684 -9.650575 0
M  V30 END ATOM
M  V30 BEGIN BOND
M  V30 1 2 2 1
M  V30 2 1 3 2
M  V30 3 1 4 3
M  V30 4 1 5 4
M  V30 5 1 6 5
M  V30 6 1 7 6
M  V30 7 1 8 7
M  V30 8 1 9 8
M  V30 9 2 10 9
M  V30 10 1 11 10
M  V30 11 1 12 11
M  V30 12 2 13 11
M  V30 13 2 14 8
M  V30 14 1 14 13
M  V30 15 1 15 7
M  V30 16 1 16 4
M  V30 17 1 16 15
M  V30 18 1 17 2
M  V30 19 1 18 17
M  V30 20 2 19 18
M  V30 21 1 20 19
M  V30 22 2 21 20
M  V30 23 1 22 21
M  V30 24 1 23 18
M  V30 25 2 23 22
M  V30 26 1 24 3
M  V30 27 1 25 3
M  V30 28 1 26 5
M  V30 29 1 27 5
M  V30 30 1 28 6
M  V30 31 1 29 6
M  V30 32 1 30 9
M  V30 33 1 31 10
M  V30 34 1 32 13
M  V30 35 1 33 15
M  V30 36 1 34 15
M  V30 37 1 35 16
M  V30 38 1 36 16
M  V30 39 1 37 17
M  V30 40 1 38 19
M  V30 41 1 39 20
M  V30 42 1 40 21
M  V30 43 1 41 23
M  V30 44 1 42 4
M  V30 END BOND
M  V30 END CTAB
M  END
>  <b_m_subgroup_collapsed>  (993) 
0

>  <r_i_docking_score>  (993) 
-7.6166011347614999

>  <s_m_subgroup_title>  (993) 
glide-dock_SP_D22_pv

>  <s_m_subgroupid>  (993) 
glide-dock_SP_D22_pv

>  <Molecule ChEMBL ID>  (993) 
CHEMBL4591118

>  <Standard Type>  (993) 
Ki

>  <Standard Value>  (993) 
50000.0

>  <label>  (993) 
0

$$$$
CHEMBL1771111
     RDKit          3D

  0  0  0  0  0  0  0  0  0  0999 V3000
M  V30 BEGIN CTAB
M  V30 COUNTS 71 75 0 0 1
M  V30 BEGIN ATOM
M  V30 1 C 5.240483 2.112808 -12.414508 0
M  V30 2 O 6.085665 1.534995 -13.396733 0
M  V30 3 C 5.581972 0.572352 -14.244434 0
M  V30 4 C 4.228422 0.145075 -14.188232 0
M  V30 5 C 3.719381 -0.761651 -15.133732 0
M  V30 6 C 4.556222 -1.258742 -16.144569 0
M  V30 7 C 5.901132 -0.846627 -16.207184 0
M  V30 8 C 6.438618 0.049273 -15.254519 0
M  V30 9 N 7.805194 0.402697 -15.343815 0
M  V30 10 C 8.641098 0.554583 -14.159816 0
M  V30 11 C 9.101264 2.017527 -14.029808 0
M  V30 12 N 9.780663 2.450182 -15.275752 0 CHG=1
M  V30 13 C 10.449867 3.774456 -15.171851 0
M  V30 14 C 9.570817 4.906296 -14.584120 0
M  V30 15 C 9.972469 5.321480 -13.152916 0
M  V30 16 C 8.908731 6.167949 -12.419229 0
M  V30 17 N 9.419117 6.722633 -11.155376 0
M  V30 18 C 9.766744 8.151263 -11.158224 0
M  V30 19 C 11.282749 8.394860 -10.993804 0
M  V30 20 C 11.979947 7.627321 -9.883443 0
M  V30 21 C 11.106128 7.406904 -8.675673 0
M  V30 22 C 11.530774 7.943113 -7.446208 0
M  V30 23 C 10.837706 7.633945 -6.264052 0
M  V30 24 C 11.331335 8.056609 -4.970282 0
M  V30 25 C 11.686137 7.267405 -3.905102 0
M  V30 26 C 12.115149 8.026684 -2.780702 0
M  V30 27 C 12.085907 9.376165 -3.012797 0
M  V30 28 S 11.512414 9.752958 -4.614928 0
M  V30 29 C 9.685689 6.838008 -6.341165 0
M  V30 30 C 9.221549 6.343703 -7.567523 0
M  V30 31 C 9.933595 6.609007 -8.751086 0
M  V30 32 C 9.455324 5.968590 -10.029821 0
M  V30 33 O 9.102323 4.787896 -10.008002 0
M  V30 34 C 8.922874 2.284832 -16.480715 0
M  V30 35 C 8.377663 0.845096 -16.608335 0
M  V30 36 H 5.795806 2.864190 -11.852902 0
M  V30 37 H 4.382634 2.614206 -12.865203 0
M  V30 38 H 4.891281 1.362072 -11.703072 0
M  V30 39 H 3.541161 0.526524 -13.450375 0
M  V30 40 H 2.682817 -1.060552 -15.092169 0
M  V30 41 H 4.168256 -1.962282 -16.867567 0
M  V30 42 H 6.533408 -1.258569 -16.979385 0
M  V30 43 H 9.511506 -0.094354 -14.272024 0
M  V30 44 H 8.123257 0.201398 -13.266147 0
M  V30 45 H 9.767804 2.172445 -13.183401 0
M  V30 46 H 8.232802 2.645710 -13.844940 0
M  V30 47 H 10.808183 4.062738 -16.160822 0
M  V30 48 H 11.348389 3.658171 -14.565856 0
M  V30 49 H 8.510146 4.666690 -14.638926 0
M  V30 50 H 9.687097 5.772300 -15.229774 0
M  V30 51 H 10.913673 5.870895 -13.195048 0
M  V30 52 H 10.173717 4.431903 -12.555551 0
M  V30 53 H 8.027897 5.554995 -12.222392 0
M  V30 54 H 8.533685 6.970479 -13.048701 0
M  V30 55 H 9.213024 8.648871 -10.360992 0
M  V30 56 H 9.430887 8.644632 -12.071263 0
M  V30 57 H 11.431953 9.449788 -10.774527 0
M  V30 58 H 11.814354 8.171977 -11.913071 0
M  V30 59 H 12.907517 8.131095 -9.610799 0
M  V30 60 H 12.273448 6.651381 -10.246871 0
M  V30 61 H 12.429957 8.541923 -7.397726 0
M  V30 62 H 11.646730 6.187783 -3.895342 0
M  V30 63 H 12.428504 7.565786 -1.856231 0
M  V30 64 H 12.362152 10.172040 -2.337626 0
M  V30 65 H 9.160602 6.570028 -5.445596 0
M  V30 66 H 8.328007 5.736746 -7.590782 0
M  V30 67 H 8.085703 2.972252 -16.413038 0
M  V30 68 H 9.481091 2.546413 -17.380693 0
M  V30 69 H 9.180272 0.159470 -16.881544 0
M  V30 70 H 7.643642 0.798969 -17.412210 0
M  V30 71 H 10.529359 1.785038 -15.404839 0
M  V30 END ATOM
M  V30 BEGIN BOND
M  V30 1 1 2 1
M  V30 2 1 3 2
M  V30 3 2 4 3
M  V30 4 1 5 4
M  V30 5 2 6 5
M  V30 6 1 7 6
M  V30 7 1 8 3
M  V30 8 2 8 7
M  V30 9 1 9 8
M  V30 10 1 10 9
M  V30 11 1 11 10
M  V30 12 1 12 11
M  V30 13 1 13 12
M  V30 14 1 14 13
M  V30 15 1 15 14
M  V30 16 1 16 15
M  V30 17 1 17 16
M  V30 18 1 18 17
M  V30 19 1 19 18
M  V30 20 1 20 19
M  V30 21 1 21 20
M  V30 22 1 22 21
M  V30 23 2 23 22
M  V30 24 1 24 23
M  V30 25 2 25 24
M  V30 26 1 26 25
M  V30 27 2 27 26
M  V30 28 1 28 24
M  V30 29 1 28 27
M  V30 30 1 29 23
M  V30 31 2 30 29
M  V30 32 2 31 21
M  V30 33 1 31 30
M  V30 34 1 32 17
M  V30 35 1 32 31
M  V30 36 2 33 32
M  V30 37 1 34 12
M  V30 38 1 35 9
M  V30 39 1 35 34
M  V30 40 1 36 1
M  V30 41 1 37 1
M  V30 42 1 38 1
M  V30 43 1 39 4
M  V30 44 1 40 5
M  V30 45 1 41 6
M  V30 46 1 42 7
M  V30 47 1 43 10
M  V30 48 1 44 10
M  V30 49 1 45 11
M  V30 50 1 46 11
M  V30 51 1 47 13
M  V30 52 1 48 13
M  V30 53 1 49 14
M  V30 54 1 50 14
M  V30 55 1 51 15
M  V30 56 1 52 15
M  V30 57 1 53 16
M  V30 58 1 54 16
M  V30 59 1 55 18
M  V30 60 1 56 18
M  V30 61 1 57 19
M  V30 62 1 58 19
M  V30 63 1 59 20
M  V30 64 1 60 20
M  V30 65 1 61 22
M  V30 66 1 62 25
M  V30 67 1 63 26
M  V30 68 1 64 27
M  V30 69 1 65 29
M  V30 70 1 66 30
M  V30 71 1 67 34
M  V30 72 1 68 34
M  V30 73 1 69 35
M  V30 74 1 70 35
M  V30 75 1 71 12
M  V30 END BOND
M  V30 END CTAB
M  END
>  <b_m_subgroup_collapsed>  (994) 
0

>  <r_i_docking_score>  (994) 
-7.6131051572388202

>  <s_m_subgroup_title>  (994) 
glide-dock_SP_D22_pv

>  <s_m_subgroupid>  (994) 
glide-dock_SP_D22_pv

>  <Molecule ChEMBL ID>  (994) 
CHEMBL1771111

>  <Standard Type>  (994) 
Ki

>  <Standard Value>  (994) 
2.1

>  <label>  (994) 
1

$$$$
CHEMBL5957512
     RDKit          3D

  0  0  0  0  0  0  0  0  0  0999 V3000
M  V30 BEGIN CTAB
M  V30 COUNTS 75 80 0 0 1
M  V30 BEGIN ATOM
M  V30 1 O 11.686077 6.004723 -7.042954 0
M  V30 2 C 10.889007 6.930255 -7.010137 0
M  V30 3 N 9.902560 7.082680 -7.907278 0
M  V30 4 C 9.803052 6.338955 -9.153784 0 CFG=1
M  V30 5 C 8.617297 5.373996 -9.096106 0
M  V30 6 C 8.542738 4.575382 -10.396483 0
M  V30 7 C 8.402507 5.490665 -11.624815 0 CFG=2
M  V30 8 C 8.244169 4.650442 -12.907467 0
M  V30 9 C 9.525126 3.944732 -13.424394 0
M  V30 10 N 9.271566 2.619928 -14.052628 0 CFG=1 CHG=1
M  V30 11 C 8.198744 2.617006 -15.081778 0
M  V30 12 C 7.841597 1.178586 -15.466797 0
M  V30 13 C 9.051698 0.426587 -16.045446 0 CFG=1
M  V30 14 C 9.352322 0.845634 -17.474714 0
M  V30 15 N 10.470106 1.503181 -17.753464 0
M  V30 16 O 10.445301 1.796712 -19.122404 0
M  V30 17 C 9.279263 1.335631 -19.634804 0
M  V30 18 C 8.542000 0.744478 -18.649250 0
M  V30 19 C 7.173846 0.205176 -18.800886 0
M  V30 20 C 6.727654 -0.937151 -18.097147 0
M  V30 21 C 5.403447 -1.401654 -18.225119 0
M  V30 22 C 4.501720 -0.736927 -19.076031 0
M  V30 23 C 4.937857 0.380801 -19.808048 0
M  V30 24 F 4.086906 1.018202 -20.641920 0
M  V30 25 C 6.260701 0.843100 -19.672922 0
M  V30 26 C 10.244622 0.539114 -15.059608 0
M  V30 27 C 10.510701 1.983941 -14.574930 0
M  V30 28 C 9.541203 6.531184 -11.681771 0
M  V30 29 C 9.683288 7.299429 -10.353620 0
M  V30 30 C 11.022617 8.019795 -5.991814 0
M  V30 31 C 10.767867 9.327498 -6.439309 0
M  V30 32 C 10.886077 10.394938 -5.559248 0
M  V30 33 C 11.285905 10.172483 -4.243667 0
M  V30 34 C 11.678222 8.931821 -3.788876 0
M  V30 35 N 12.157091 8.863755 -2.534516 0
M  V30 36 C 12.486135 7.666066 -2.052258 0
M  V30 37 C 12.300963 6.489901 -2.782441 0
M  V30 38 C 11.788958 6.572253 -4.091940 0
M  V30 39 C 11.498513 7.825223 -4.654768 0
M  V30 40 H 9.233369 7.825786 -7.766897 0
M  V30 41 H 10.709142 5.752333 -9.305413 0
M  V30 42 H 8.719933 4.694245 -8.249557 0
M  V30 43 H 7.687578 5.923270 -8.945802 0
M  V30 44 H 9.448924 3.976674 -10.489057 0
M  V30 45 H 7.685995 3.905004 -10.345498 0
M  V30 46 H 7.469458 6.043227 -11.493900 0
M  V30 47 H 7.467412 3.914931 -12.694956 0
M  V30 48 H 7.844031 5.280483 -13.702672 0
M  V30 49 H 10.040839 4.598985 -14.128574 0
M  V30 50 H 10.219384 3.774726 -12.601437 0
M  V30 51 H 7.286757 3.088236 -14.720216 0
M  V30 52 H 8.523295 3.184455 -15.955097 0
M  V30 53 H 7.003757 1.174562 -16.164886 0
M  V30 54 H 7.486822 0.654653 -14.577245 0
M  V30 55 H 8.797033 -0.627603 -16.071798 0
M  V30 56 H 9.112524 1.519820 -20.685480 0
M  V30 57 H 7.395064 -1.478209 -17.447025 0
M  V30 58 H 5.079386 -2.269417 -17.669588 0
M  V30 59 H 3.484067 -1.087677 -19.173687 0
M  V30 60 H 6.565158 1.706599 -20.246502 0
M  V30 61 H 11.150093 0.111611 -15.493136 0
M  V30 62 H 10.022727 -0.074851 -14.186379 0
M  V30 63 H 10.915306 2.595139 -15.382356 0
M  V30 64 H 11.279108 1.962294 -13.800215 0
M  V30 65 H 10.486629 6.041348 -11.905038 0
M  V30 66 H 9.360153 7.235087 -12.494397 0
M  V30 67 H 8.823674 7.954953 -10.218895 0
M  V30 68 H 10.557391 7.950541 -10.400678 0
M  V30 69 H 10.462482 9.528387 -7.456238 0
M  V30 70 H 10.643413 11.372316 -5.906631 0
M  V30 71 H 11.321163 10.972307 -3.533299 0
M  V30 72 H 12.886238 7.649106 -1.051013 0
M  V30 73 H 12.550458 5.536924 -2.344087 0
M  V30 74 H 11.642206 5.670964 -4.654032 0
M  V30 75 H 8.956566 2.023041 -13.298759 0
M  V30 END ATOM
M  V30 BEGIN BOND
M  V30 1 2 2 1
M  V30 2 1 3 2
M  V30 3 1 4 3
M  V30 4 1 5 4
M  V30 5 1 6 5
M  V30 6 1 7 6
M  V30 7 1 8 7
M  V30 8 1 9 8
M  V30 9 1 10 9
M  V30 10 1 11 10
M  V30 11 1 12 11
M  V30 12 1 13 12
M  V30 13 1 14 13
M  V30 14 2 15 14
M  V30 15 1 16 15
M  V30 16 1 17 16
M  V30 17 1 18 14
M  V30 18 2 18 17
M  V30 19 1 19 18
M  V30 20 2 20 19
M  V30 21 1 21 20
M  V30 22 2 22 21
M  V30 23 1 23 22
M  V30 24 1 24 23
M  V30 25 1 25 19
M  V30 26 2 25 23
M  V30 27 1 26 13
M  V30 28 1 27 10
M  V30 29 1 27 26
M  V30 30 1 28 7
M  V30 31 1 29 4
M  V30 32 1 29 28
M  V30 33 1 30 2
M  V30 34 1 31 30
M  V30 35 2 32 31
M  V30 36 1 33 32
M  V30 37 2 34 33
M  V30 38 1 35 34
M  V30 39 2 36 35
M  V30 40 1 37 36
M  V30 41 2 38 37
M  V30 42 2 39 30
M  V30 43 1 39 34
M  V30 44 1 39 38
M  V30 45 1 40 3
M  V30 46 1 4 41 CFG=3
M  V30 47 1 42 5
M  V30 48 1 43 5
M  V30 49 1 44 6
M  V30 50 1 45 6
M  V30 51 1 7 46 CFG=1
M  V30 52 1 47 8
M  V30 53 1 48 8
M  V30 54 1 49 9
M  V30 55 1 50 9
M  V30 56 1 51 11
M  V30 57 1 52 11
M  V30 58 1 53 12
M  V30 59 1 54 12
M  V30 60 1 13 55 CFG=3
M  V30 61 1 56 17
M  V30 62 1 57 20
M  V30 63 1 58 21
M  V30 64 1 59 22
M  V30 65 1 60 25
M  V30 66 1 61 26
M  V30 67 1 62 26
M  V30 68 1 63 27
M  V30 69 1 64 27
M  V30 70 1 65 28
M  V30 71 1 66 28
M  V30 72 1 67 29
M  V30 73 1 68 29
M  V30 74 1 69 31
M  V30 75 1 70 32
M  V30 76 1 71 33
M  V30 77 1 72 36
M  V30 78 1 73 37
M  V30 79 1 74 38
M  V30 80 1 10 75 CFG=1
M  V30 END BOND
M  V30 END CTAB
M  END
>  <b_m_subgroup_collapsed>  (995) 
0

>  <r_i_docking_score>  (995) 
-7.61302587863032

>  <s_m_subgroup_title>  (995) 
glide-dock_SP_D22_pv

>  <s_m_subgroupid>  (995) 
glide-dock_SP_D22_pv

>  <Molecule ChEMBL ID>  (995) 
CHEMBL5957512

>  <Standard Type>  (995) 
Ki

>  <Standard Value>  (995) 
36.0

>  <label>  (995) 
1

$$$$
CHEMBL5403404
     RDKit          3D

  0  0  0  0  0  0  0  0  0  0999 V3000
M  V30 BEGIN CTAB
M  V30 COUNTS 67 70 0 0 1
M  V30 BEGIN ATOM
M  V30 1 C 10.252107 6.972414 -5.960879 0
M  V30 2 C 10.279048 6.653957 -7.457739 0
M  V30 3 C 8.888061 6.797464 -8.109943 0
M  V30 4 N 8.884701 6.587379 -9.579661 0 CHG=1
M  V30 5 C 9.106227 5.178499 -10.009130 0
M  V30 6 C 8.972581 4.998449 -11.536824 0
M  V30 7 N 9.691791 6.049643 -12.247637 0
M  V30 8 C 10.566047 5.772288 -13.320957 0
M  V30 9 C 11.686383 6.596905 -13.560528 0
M  V30 10 C 12.527416 6.363162 -14.660471 0
M  V30 11 C 12.297588 5.277892 -15.526962 0
M  V30 12 C 11.200590 4.415644 -15.281535 0
M  V30 13 C 10.344230 4.676334 -14.188317 0
M  V30 14 C 10.955710 3.177216 -16.143648 0 CFG=1
M  V30 15 N 9.748099 3.225522 -17.008986 0
M  V30 16 C 9.554781 4.408961 -17.856050 0
M  V30 17 C 8.805102 2.190075 -17.103987 0
M  V30 18 O 7.836578 2.172663 -17.867395 0
M  V30 19 O 9.035913 1.232907 -16.180122 0
M  V30 20 C 8.024533 0.296165 -15.828431 0
M  V30 21 C 6.996391 0.836356 -14.838576 0
M  V30 22 C 7.060936 2.158504 -14.337052 0
M  V30 23 C 6.086801 2.637721 -13.445997 0
M  V30 24 C 5.040431 1.793223 -13.039385 0
M  V30 25 C 4.965942 0.474988 -13.526367 0
M  V30 26 C 5.944131 -0.003746 -14.420843 0
M  V30 27 C 12.186333 2.746797 -16.961100 0
M  V30 28 C 12.899590 3.921878 -17.642912 0
M  V30 29 C 13.272121 5.057802 -16.677019 0
M  V30 30 C 9.408438 7.422556 -11.844562 0
M  V30 31 C 9.677484 7.579704 -10.344696 0
M  V30 32 H 11.234105 6.811255 -5.515169 0
M  V30 33 H 9.976647 8.013223 -5.791518 0
M  V30 34 H 9.535779 6.343082 -5.435035 0
M  V30 35 H 10.657185 5.642281 -7.596114 0
M  V30 36 H 10.999096 7.322664 -7.927590 0
M  V30 37 H 8.487471 7.793193 -7.909506 0
M  V30 38 H 8.184201 6.102390 -7.651509 0
M  V30 39 H 8.397282 4.522553 -9.501304 0
M  V30 40 H 10.097892 4.859078 -9.698916 0
M  V30 41 H 7.921321 5.043071 -11.824759 0
M  V30 42 H 9.335141 4.008362 -11.808537 0
M  V30 43 H 11.918013 7.424747 -12.908772 0
M  V30 44 H 13.375312 7.009470 -14.825455 0
M  V30 45 H 9.507469 4.020139 -14.018928 0
M  V30 46 H 10.847382 2.401949 -15.386490 0
M  V30 47 H 8.519671 4.746515 -17.846754 0
M  V30 48 H 10.172062 5.254392 -17.553171 0
M  V30 49 H 9.802732 4.168592 -18.890860 0
M  V30 50 H 8.514750 -0.560203 -15.366311 0
M  V30 51 H 7.518506 -0.079855 -16.719475 0
M  V30 52 H 7.844772 2.828077 -14.641533 0
M  V30 53 H 6.143761 3.652270 -13.078257 0
M  V30 54 H 4.291371 2.171713 -12.363783 0
M  V30 55 H 4.147848 -0.164817 -13.233840 0
M  V30 56 H 5.878703 -1.013412 -14.799521 0
M  V30 57 H 12.886519 2.270382 -16.279587 0
M  V30 58 H 11.921960 1.980244 -17.690479 0
M  V30 59 H 12.244779 4.322803 -18.416399 0
M  V30 60 H 13.788451 3.577137 -18.171486 0
M  V30 61 H 13.367455 5.987936 -17.238844 0
M  V30 62 H 14.255937 4.875172 -16.248940 0
M  V30 63 H 9.974006 8.158606 -12.411764 0
M  V30 64 H 8.359931 7.635880 -12.054029 0
M  V30 65 H 9.415174 8.590576 -10.027338 0
M  V30 66 H 10.743197 7.445812 -10.156254 0
M  V30 67 H 7.924490 6.805734 -9.848375 0
M  V30 END ATOM
M  V30 BEGIN BOND
M  V30 1 1 2 1
M  V30 2 1 3 2
M  V30 3 1 4 3
M  V30 4 1 5 4
M  V30 5 1 6 5
M  V30 6 1 7 6
M  V30 7 1 8 7
M  V30 8 1 9 8
M  V30 9 2 10 9
M  V30 10 1 11 10
M  V30 11 2 12 11
M  V30 12 2 13 8
M  V30 13 1 13 12
M  V30 14 1 14 12
M  V30 15 1 15 14
M  V30 16 1 16 15
M  V30 17 1 17 15
M  V30 18 2 18 17
M  V30 19 1 19 17
M  V30 20 1 20 19
M  V30 21 1 21 20
M  V30 22 2 22 21
M  V30 23 1 23 22
M  V30 24 2 24 23
M  V30 25 1 25 24
M  V30 26 1 26 21
M  V30 27 2 26 25
M  V30 28 1 27 14
M  V30 29 1 28 27
M  V30 30 1 29 11
M  V30 31 1 29 28
M  V30 32 1 30 7
M  V30 33 1 31 4
M  V30 34 1 31 30
M  V30 35 1 32 1
M  V30 36 1 33 1
M  V30 37 1 34 1
M  V30 38 1 35 2
M  V30 39 1 36 2
M  V30 40 1 37 3
M  V30 41 1 38 3
M  V30 42 1 39 5
M  V30 43 1 40 5
M  V30 44 1 41 6
M  V30 45 1 42 6
M  V30 46 1 43 9
M  V30 47 1 44 10
M  V30 48 1 45 13
M  V30 49 1 14 46 CFG=1
M  V30 50 1 47 16
M  V30 51 1 48 16
M  V30 52 1 49 16
M  V30 53 1 50 20
M  V30 54 1 51 20
M  V30 55 1 52 22
M  V30 56 1 53 23
M  V30 57 1 54 24
M  V30 58 1 55 25
M  V30 59 1 56 26
M  V30 60 1 57 27
M  V30 61 1 58 27
M  V30 62 1 59 28
M  V30 63 1 60 28
M  V30 64 1 61 29
M  V30 65 1 62 29
M  V30 66 1 63 30
M  V30 67 1 64 30
M  V30 68 1 65 31
M  V30 69 1 66 31
M  V30 70 1 67 4
M  V30 END BOND
M  V30 END CTAB
M  END
>  <b_m_subgroup_collapsed>  (996) 
0

>  <r_i_docking_score>  (996) 
-7.6088633544813602

>  <s_m_subgroup_title>  (996) 
glide-dock_SP_D22_pv

>  <s_m_subgroupid>  (996) 
glide-dock_SP_D22_pv

>  <Molecule ChEMBL ID>  (996) 
CHEMBL5403404

>  <Standard Type>  (996) 
Ki

>  <Standard Value>  (996) 
10000.0

>  <label>  (996) 
0

$$$$
CHEMBL486337
     RDKit          3D

  0  0  0  0  0  0  0  0  0  0999 V3000
M  V30 BEGIN CTAB
M  V30 COUNTS 70 73 0 0 1
M  V30 BEGIN ATOM
M  V30 1 C 12.161423 5.678713 -13.847448 0
M  V30 2 O 12.741904 5.033338 -14.971227 0
M  V30 3 C 11.969100 4.141121 -15.681232 0
M  V30 4 C 12.567142 3.533976 -16.804974 0
M  V30 5 C 11.858344 2.599623 -17.583405 0
M  V30 6 C 10.533360 2.270881 -17.252407 0
M  V30 7 C 9.914126 2.874740 -16.138523 0
M  V30 8 C 8.481600 2.526826 -15.791664 0
M  V30 9 C 8.377859 1.248032 -14.948324 0
M  V30 10 C 6.948068 0.791549 -14.680580 0
M  V30 11 C 6.486020 -0.407922 -15.261261 0
M  V30 12 C 5.206926 -0.913372 -14.969698 0
M  V30 13 C 4.370449 -0.212297 -14.087168 0
M  V30 14 C 4.811860 0.999234 -13.527279 0
M  V30 15 C 6.085916 1.538386 -13.847222 0
M  V30 16 O 6.511945 2.783616 -13.435471 0
M  V30 17 C 5.643323 3.577700 -12.637248 0
M  V30 18 C 6.382718 4.855956 -12.216519 0
M  V30 19 C 7.598696 4.556470 -11.322158 0
M  V30 20 N 8.156156 5.772327 -10.680493 0 CFG=2 CHG=1
M  V30 21 C 9.043418 6.547279 -11.579920 0
M  V30 22 C 9.361569 7.923563 -10.977003 0
M  V30 23 C 9.797215 7.840570 -9.523655 0
M  V30 24 C 10.411859 8.946343 -8.906949 0
M  V30 25 C 10.774360 8.915997 -7.544469 0
M  V30 26 O 11.286867 10.074084 -7.007799 0
M  V30 27 C 12.477986 9.985473 -6.247350 0
M  V30 28 C 10.533321 7.750035 -6.779233 0
M  V30 29 O 10.886964 7.763976 -5.448142 0
M  V30 30 C 10.886944 6.539196 -4.738110 0
M  V30 31 C 9.898067 6.647771 -7.404242 0
M  V30 32 C 9.526439 6.682969 -8.764690 0
M  V30 33 C 8.832681 5.474236 -9.388570 0
M  V30 34 C 10.633315 3.803744 -15.353210 0
M  V30 35 H 12.885286 6.370599 -13.418208 0
M  V30 36 H 11.282255 6.258626 -14.129873 0
M  V30 37 H 11.888151 4.958455 -13.075645 0
M  V30 38 H 13.586471 3.777450 -17.062944 0
M  V30 39 H 12.334392 2.136754 -18.436949 0
M  V30 40 H 9.991569 1.554971 -17.854284 0
M  V30 41 H 7.907792 2.416573 -16.712605 0
M  V30 42 H 8.056368 3.371813 -15.253213 0
M  V30 43 H 8.879390 1.395204 -13.990353 0
M  V30 44 H 8.916982 0.440269 -15.444899 0
M  V30 45 H 7.118382 -0.961603 -15.936561 0
M  V30 46 H 4.871841 -1.838417 -15.420851 0
M  V30 47 H 3.379078 -0.584505 -13.871593 0
M  V30 48 H 4.116461 1.554304 -12.921792 0
M  V30 49 H 4.753669 3.837734 -13.211372 0
M  V30 50 H 5.323148 3.035047 -11.747123 0
M  V30 51 H 6.687242 5.410385 -13.102878 0
M  V30 52 H 5.685640 5.499135 -11.674948 0
M  V30 53 H 7.285981 3.855944 -10.549852 0
M  V30 54 H 8.376163 4.041872 -11.889219 0
M  V30 55 H 9.965145 5.986206 -11.740346 0
M  V30 56 H 8.581639 6.682445 -12.558497 0
M  V30 57 H 8.486002 8.569836 -11.033117 0
M  V30 58 H 10.143241 8.410156 -11.561114 0
M  V30 59 H 10.594474 9.840303 -9.481874 0
M  V30 60 H 12.883883 10.988381 -6.183865 0
M  V30 61 H 12.321257 9.644149 -5.223988 0
M  V30 62 H 13.224764 9.367336 -6.740188 0
M  V30 63 H 11.292832 6.704908 -3.740775 0
M  V30 64 H 9.869835 6.172348 -4.622833 0
M  V30 65 H 11.497437 5.774835 -5.223561 0
M  V30 66 H 9.658419 5.769972 -6.833831 0
M  V30 67 H 8.100150 5.081562 -8.683249 0
M  V30 68 H 9.581511 4.696083 -9.541099 0
M  V30 69 H 10.137280 4.245972 -14.503090 0
M  V30 70 H 7.379316 6.396957 -10.449634 0
M  V30 END ATOM
M  V30 BEGIN BOND
M  V30 1 1 2 1
M  V30 2 1 3 2
M  V30 3 2 4 3
M  V30 4 1 5 4
M  V30 5 2 6 5
M  V30 6 1 7 6
M  V30 7 1 8 7
M  V30 8 1 9 8
M  V30 9 1 10 9
M  V30 10 2 11 10
M  V30 11 1 12 11
M  V30 12 2 13 12
M  V30 13 1 14 13
M  V30 14 1 15 10
M  V30 15 2 15 14
M  V30 16 1 16 15
M  V30 17 1 17 16
M  V30 18 1 18 17
M  V30 19 1 19 18
M  V30 20 1 20 19
M  V30 21 1 21 20
M  V30 22 1 22 21
M  V30 23 1 23 22
M  V30 24 2 24 23
M  V30 25 1 25 24
M  V30 26 1 26 25
M  V30 27 1 27 26
M  V30 28 2 28 25
M  V30 29 1 29 28
M  V30 30 1 30 29
M  V30 31 1 31 28
M  V30 32 1 32 23
M  V30 33 2 32 31
M  V30 34 1 33 20
M  V30 35 1 33 32
M  V30 36 1 34 3
M  V30 37 2 34 7
M  V30 38 1 35 1
M  V30 39 1 36 1
M  V30 40 1 37 1
M  V30 41 1 38 4
M  V30 42 1 39 5
M  V30 43 1 40 6
M  V30 44 1 41 8
M  V30 45 1 42 8
M  V30 46 1 43 9
M  V30 47 1 44 9
M  V30 48 1 45 11
M  V30 49 1 46 12
M  V30 50 1 47 13
M  V30 51 1 48 14
M  V30 52 1 49 17
M  V30 53 1 50 17
M  V30 54 1 51 18
M  V30 55 1 52 18
M  V30 56 1 53 19
M  V30 57 1 54 19
M  V30 58 1 55 21
M  V30 59 1 56 21
M  V30 60 1 57 22
M  V30 61 1 58 22
M  V30 62 1 59 24
M  V30 63 1 60 27
M  V30 64 1 61 27
M  V30 65 1 62 27
M  V30 66 1 63 30
M  V30 67 1 64 30
M  V30 68 1 65 30
M  V30 69 1 66 31
M  V30 70 1 67 33
M  V30 71 1 68 33
M  V30 72 1 69 34
M  V30 73 1 20 70 CFG=1
M  V30 END BOND
M  V30 END CTAB
M  END
>  <b_m_subgroup_collapsed>  (997) 
0

>  <r_i_docking_score>  (997) 
-7.6074381405831204

>  <s_m_subgroup_title>  (997) 
glide-dock_SP_D22_pv

>  <s_m_subgroupid>  (997) 
glide-dock_SP_D22_pv

>  <Molecule ChEMBL ID>  (997) 
CHEMBL486337

>  <Standard Type>  (997) 
Ki

>  <Standard Value>  (997) 
1000000.0

>  <label>  (997) 
0

$$$$
CHEMBL46596
     RDKit          3D

  0  0  0  0  0  0  0  0  0  0999 V3000
M  V30 BEGIN CTAB
M  V30 COUNTS 47 49 0 0 1
M  V30 BEGIN ATOM
M  V30 1 O 11.394535 6.953980 -1.848373 0
M  V30 2 N 12.071852 7.861658 -2.314595 0 CHG=1
M  V30 3 O 12.823297 8.572632 -1.654643 0 CHG=-1
M  V30 4 C 11.945971 8.120784 -3.755093 0
M  V30 5 C 11.421958 7.132545 -4.615074 0
M  V30 6 C 11.285561 7.384372 -5.989165 0
M  V30 7 C 11.685946 8.629425 -6.539059 0
M  V30 8 O 11.657856 8.931287 -7.884670 0
M  V30 9 C 11.224931 7.922673 -8.787745 0
M  V30 10 C 9.683910 7.860560 -8.785941 0 CFG=1
M  V30 11 C 9.097493 8.855699 -9.797067 0
M  V30 12 C 9.118145 8.312518 -11.236544 0
M  V30 13 N 8.486135 6.971482 -11.327753 0 CFG=1 CHG=1
M  V30 14 C 8.356017 6.536252 -12.730662 0
M  V30 15 C 7.612052 5.231157 -12.951595 0
M  V30 16 C 6.278970 5.083850 -12.514914 0
M  V30 17 C 5.586090 3.884062 -12.767739 0
M  V30 18 C 6.215357 2.831692 -13.457561 0
M  V30 19 F 5.558935 1.667816 -13.671073 0
M  V30 20 C 7.535340 2.986876 -13.920477 0
M  V30 21 C 8.237075 4.178473 -13.656111 0
M  V30 22 C 9.162293 5.983795 -10.452788 0
M  V30 23 C 9.120295 6.441455 -8.991196 0
M  V30 24 C 12.177863 9.621930 -5.671280 0
M  V30 25 C 12.316542 9.368276 -4.293344 0
M  V30 26 H 11.119654 6.170669 -4.226151 0
M  V30 27 H 10.885352 6.586849 -6.593219 0
M  V30 28 H 11.685908 6.967921 -8.551207 0
M  V30 29 H 11.602503 8.170686 -9.779216 0
M  V30 30 H 9.337777 8.173399 -7.800441 0
M  V30 31 H 8.086334 9.141746 -9.507376 0
M  V30 32 H 9.673841 9.773955 -9.752883 0
M  V30 33 H 10.141840 8.259685 -11.608718 0
M  V30 34 H 8.585895 9.013094 -11.881786 0
M  V30 35 H 9.370228 6.443184 -13.114929 0
M  V30 36 H 7.834928 7.312107 -13.288861 0
M  V30 37 H 5.783258 5.887969 -11.988082 0
M  V30 38 H 4.565948 3.770485 -12.439872 0
M  V30 39 H 8.016835 2.181348 -14.455739 0
M  V30 40 H 9.252725 4.280297 -14.011218 0
M  V30 41 H 8.674176 5.010972 -10.525171 0
M  V30 42 H 10.192653 5.846585 -10.781621 0
M  V30 43 H 8.086173 6.424774 -8.651731 0
M  V30 44 H 9.642645 5.720742 -8.361559 0
M  V30 45 H 12.486375 10.573547 -6.077748 0
M  V30 46 H 12.707635 10.138418 -3.644200 0
M  V30 47 H 7.543991 7.126564 -10.941580 0
M  V30 END ATOM
M  V30 BEGIN BOND
M  V30 1 2 2 1
M  V30 2 1 3 2
M  V30 3 1 4 2
M  V30 4 1 5 4
M  V30 5 2 6 5
M  V30 6 1 7 6
M  V30 7 1 8 7
M  V30 8 1 9 8
M  V30 9 1 10 9
M  V30 10 1 11 10
M  V30 11 1 12 11
M  V30 12 1 13 12
M  V30 13 1 14 13
M  V30 14 1 15 14
M  V30 15 1 16 15
M  V30 16 2 17 16
M  V30 17 1 18 17
M  V30 18 1 19 18
M  V30 19 2 20 18
M  V30 20 2 21 15
M  V30 21 1 21 20
M  V30 22 1 22 13
M  V30 23 1 23 10
M  V30 24 1 23 22
M  V30 25 2 24 7
M  V30 26 2 25 4
M  V30 27 1 25 24
M  V30 28 1 26 5
M  V30 29 1 27 6
M  V30 30 1 28 9
M  V30 31 1 29 9
M  V30 32 1 10 30 CFG=1
M  V30 33 1 31 11
M  V30 34 1 32 11
M  V30 35 1 33 12
M  V30 36 1 34 12
M  V30 37 1 35 14
M  V30 38 1 36 14
M  V30 39 1 37 16
M  V30 40 1 38 17
M  V30 41 1 39 20
M  V30 42 1 40 21
M  V30 43 1 41 22
M  V30 44 1 42 22
M  V30 45 1 43 23
M  V30 46 1 44 23
M  V30 47 1 45 24
M  V30 48 1 46 25
M  V30 49 1 13 47 CFG=1
M  V30 END BOND
M  V30 END CTAB
M  END
>  <b_m_subgroup_collapsed>  (998) 
0

>  <r_i_docking_score>  (998) 
-7.6053531303460202

>  <s_m_subgroup_title>  (998) 
glide-dock_SP_D22_pv

>  <s_m_subgroupid>  (998) 
glide-dock_SP_D22_pv

>  <Molecule ChEMBL ID>  (998) 
CHEMBL46596

>  <Standard Type>  (998) 
Ki

>  <Standard Value>  (998) 
10000.0

>  <label>  (998) 
0

$$$$
CHEMBL111884
     RDKit          3D

  0  0  0  0  0  0  0  0  0  0999 V3000
M  V30 BEGIN CTAB
M  V30 COUNTS 62 65 0 0 1
M  V30 BEGIN ATOM
M  V30 1 C 8.856639 4.584059 -8.668844 0
M  V30 2 C 10.008956 5.470419 -9.155233 0
M  V30 3 N 9.582156 6.897572 -9.265260 0 CFG=1 CHG=1
M  V30 4 C 10.556617 7.918237 -8.790555 0 CFG=2
M  V30 5 C 10.845007 8.021779 -7.284257 0
M  V30 6 C 10.586370 6.972164 -6.374674 0
M  V30 7 C 11.031662 7.047950 -5.044777 0
M  V30 8 C 11.684280 8.201303 -4.574363 0
M  V30 9 C 11.887979 9.283652 -5.445900 0
M  V30 10 C 11.480963 9.186397 -6.789992 0
M  V30 11 C 10.044133 9.237927 -9.389299 0
M  V30 12 C 9.085602 8.869135 -10.522457 0
M  V30 13 C 9.174628 7.340809 -10.630980 0 CFG=1
M  V30 14 C 10.158835 6.943296 -11.701144 0
M  V30 15 C 11.422871 7.372377 -11.993984 0
M  V30 16 C 11.910580 6.618724 -13.097106 0
M  V30 17 C 10.936397 5.736258 -13.484962 0
M  V30 18 C 10.840175 4.739510 -14.563786 0
M  V30 19 C 9.756513 3.827266 -14.574856 0
M  V30 20 C 9.586720 2.919689 -15.634398 0
M  V30 21 S 8.173583 1.816793 -15.650095 0
M  V30 22 O 7.220113 2.282950 -14.631371 0
M  V30 23 O 7.737976 1.696720 -17.050465 0
M  V30 24 C 8.832904 0.184320 -15.100951 0
M  V30 25 C 9.844924 -0.396556 -16.097143 0
M  V30 26 C 10.516544 2.874078 -16.683212 0
M  V30 27 C 11.621655 3.740174 -16.667969 0
M  V30 28 C 11.793657 4.684011 -15.621858 0
M  V30 29 O 12.850488 5.570104 -15.602221 0
M  V30 30 C 13.809013 5.533038 -16.649853 0
M  V30 31 N 9.877050 5.952416 -12.620521 0
M  V30 32 H 9.203562 3.571991 -8.456654 0
M  V30 33 H 8.382429 4.975763 -7.771271 0
M  V30 34 H 8.086062 4.506886 -9.436934 0
M  V30 35 H 10.352811 5.061355 -10.099669 0
M  V30 36 H 10.878210 5.371330 -8.501893 0
M  V30 37 H 11.516059 7.684996 -9.253275 0
M  V30 38 H 10.073148 6.070820 -6.659425 0
M  V30 39 H 10.857670 6.216481 -4.374715 0
M  V30 40 H 12.018364 8.258067 -3.548279 0
M  V30 41 H 12.385555 10.172607 -5.088662 0
M  V30 42 H 11.685934 10.014989 -7.445781 0
M  V30 43 H 9.463799 9.772066 -8.637229 0
M  V30 44 H 10.865934 9.875567 -9.716403 0
M  V30 45 H 8.087330 9.191906 -10.227400 0
M  V30 46 H 9.288234 9.371466 -11.470154 0
M  V30 47 H 8.208410 6.905304 -10.884396 0
M  V30 48 H 11.955898 8.152009 -11.468978 0
M  V30 49 H 12.887015 6.730053 -13.544450 0
M  V30 50 H 9.024090 3.830919 -13.782232 0
M  V30 51 H 9.269170 0.303677 -14.109035 0
M  V30 52 H 7.980935 -0.488681 -15.010883 0
M  V30 53 H 10.087349 -1.427632 -15.846868 0
M  V30 54 H 9.445434 -0.394791 -17.111542 0
M  V30 55 H 10.777801 0.166872 -16.096903 0
M  V30 56 H 10.385475 2.180489 -17.500692 0
M  V30 57 H 12.318411 3.669838 -17.489420 0
M  V30 58 H 14.573558 6.286865 -16.460108 0
M  V30 59 H 14.311114 4.565934 -16.703983 0
M  V30 60 H 13.355412 5.763830 -17.614880 0
M  V30 61 H 8.997951 5.457791 -12.668976 0
M  V30 62 H 8.756959 7.012197 -8.688689 0
M  V30 END ATOM
M  V30 BEGIN BOND
M  V30 1 1 2 1
M  V30 2 1 3 2
M  V30 3 1 4 3
M  V30 4 1 5 4
M  V30 5 2 6 5
M  V30 6 1 7 6
M  V30 7 2 8 7
M  V30 8 1 9 8
M  V30 9 1 10 5
M  V30 10 2 10 9
M  V30 11 1 11 4
M  V30 12 1 12 11
M  V30 13 1 13 3
M  V30 14 1 13 12
M  V30 15 1 14 13
M  V30 16 2 15 14
M  V30 17 1 16 15
M  V30 18 2 17 16
M  V30 19 1 18 17
M  V30 20 1 19 18
M  V30 21 2 20 19
M  V30 22 1 21 20
M  V30 23 2 22 21
M  V30 24 2 23 21
M  V30 25 1 24 21
M  V30 26 1 25 24
M  V30 27 1 26 20
M  V30 28 2 27 26
M  V30 29 2 28 18
M  V30 30 1 28 27
M  V30 31 1 29 28
M  V30 32 1 30 29
M  V30 33 1 31 14
M  V30 34 1 31 17
M  V30 35 1 32 1
M  V30 36 1 33 1
M  V30 37 1 34 1
M  V30 38 1 35 2
M  V30 39 1 36 2
M  V30 40 1 4 37 CFG=3
M  V30 41 1 38 6
M  V30 42 1 39 7
M  V30 43 1 40 8
M  V30 44 1 41 9
M  V30 45 1 42 10
M  V30 46 1 43 11
M  V30 47 1 44 11
M  V30 48 1 45 12
M  V30 49 1 46 12
M  V30 50 1 13 47 CFG=3
M  V30 51 1 48 15
M  V30 52 1 49 16
M  V30 53 1 50 19
M  V30 54 1 51 24
M  V30 55 1 52 24
M  V30 56 1 53 25
M  V30 57 1 54 25
M  V30 58 1 55 25
M  V30 59 1 56 26
M  V30 60 1 57 27
M  V30 61 1 58 30
M  V30 62 1 59 30
M  V30 63 1 60 30
M  V30 64 1 61 31
M  V30 65 1 3 62 CFG=1
M  V30 END BOND
M  V30 END CTAB
M  END
>  <b_m_subgroup_collapsed>  (999) 
0

>  <r_i_docking_score>  (999) 
-7.6029797469445901

>  <s_m_subgroup_title>  (999) 
glide-dock_SP_D22_pv

>  <s_m_subgroupid>  (999) 
glide-dock_SP_D22_pv

>  <Molecule ChEMBL ID>  (999) 
CHEMBL111884

>  <Standard Type>  (999) 
Ki

>  <Standard Value>  (999) 
39.81

>  <label>  (999) 
1

$$$$
CHEMBL3898054
     RDKit          3D

  0  0  0  0  0  0  0  0  0  0999 V3000
M  V30 BEGIN CTAB
M  V30 COUNTS 59 62 0 0 1
M  V30 BEGIN ATOM
M  V30 1 O 4.467721 -0.227917 -13.472143 0
M  V30 2 C 4.814666 -0.407465 -14.639711 0
M  V30 3 N 4.114432 -1.194418 -15.472732 0
M  V30 4 C 4.382140 -1.379836 -16.896538 0
M  V30 5 C 5.871723 -1.221728 -17.254824 0
M  V30 6 C 6.538073 -0.102356 -16.472540 0
M  V30 7 C 7.665008 0.553260 -17.003241 0
M  V30 8 C 8.268629 1.604085 -16.289984 0
M  V30 9 C 7.754955 2.025299 -15.047915 0
M  V30 10 O 8.419697 3.064490 -14.437126 0
M  V30 11 C 7.766564 3.889647 -13.475534 0
M  V30 12 C 8.913058 4.530867 -12.688478 0
M  V30 13 C 8.516661 5.575243 -11.630447 0
M  V30 14 C 9.779619 5.964112 -10.843922 0
M  V30 15 N 9.642822 7.124852 -9.930341 0 CFG=2 CHG=1
M  V30 16 C 10.977073 7.707231 -9.608560 0
M  V30 17 C 10.877357 8.973258 -8.748421 0
M  V30 18 C 10.036379 8.779347 -7.475776 0 CFG=2
M  V30 19 C 10.796998 8.258191 -6.247945 0
M  V30 20 C 11.115826 6.894223 -6.129317 0
M  V30 21 C 11.686056 6.404364 -4.946686 0
M  V30 22 C 11.986495 7.233627 -3.866178 0
M  V30 23 C 11.723772 8.596590 -3.985630 0
M  V30 24 Cl 12.085999 9.608000 -2.647407 0
M  V30 25 C 11.153540 9.108849 -5.169063 0
M  V30 26 Cl 10.886053 10.791033 -5.251137 0
M  V30 27 C 8.733876 8.021721 -7.780056 0
M  V30 28 C 8.885480 6.792009 -8.701447 0
M  V30 29 C 6.639321 1.345223 -14.502670 0
M  V30 30 C 6.028434 0.281988 -15.210078 0
M  V30 31 H 3.308646 -1.676418 -15.102034 0
M  V30 32 H 4.008274 -2.351869 -17.219603 0
M  V30 33 H 3.799003 -0.630589 -17.434040 0
M  V30 34 H 5.975705 -1.044012 -18.325502 0
M  V30 35 H 6.407550 -2.147380 -17.044653 0
M  V30 36 H 8.066800 0.255231 -17.960835 0
M  V30 37 H 9.130142 2.103372 -16.706278 0
M  V30 38 H 7.110819 3.369519 -12.782748 0
M  V30 39 H 7.174650 4.647291 -13.987600 0
M  V30 40 H 9.603273 4.992718 -13.397800 0
M  V30 41 H 9.473147 3.728860 -12.204213 0
M  V30 42 H 7.760007 5.163714 -10.961168 0
M  V30 43 H 8.074286 6.448195 -12.112521 0
M  V30 44 H 10.553711 6.198433 -11.575605 0
M  V30 45 H 10.119874 5.098941 -10.274875 0
M  V30 46 H 11.504665 7.957654 -10.529744 0
M  V30 47 H 11.589887 6.970168 -9.093081 0
M  V30 48 H 10.413500 9.751369 -9.358404 0
M  V30 49 H 11.869349 9.349466 -8.496138 0
M  V30 50 H 9.689106 9.772483 -7.222330 0
M  V30 51 H 10.937037 6.194172 -6.923809 0
M  V30 52 H 11.952209 5.372539 -4.871096 0
M  V30 53 H 12.428107 6.828384 -2.967234 0
M  V30 54 H 8.207638 7.760281 -6.860018 0
M  V30 55 H 8.085986 8.733042 -8.289109 0
M  V30 56 H 7.906238 6.418905 -8.989013 0
M  V30 57 H 9.348060 5.955864 -8.184543 0
M  V30 58 H 6.233824 1.624939 -13.543049 0
M  V30 59 H 9.099874 7.826295 -10.416986 0
M  V30 END ATOM
M  V30 BEGIN BOND
M  V30 1 2 2 1
M  V30 2 1 3 2
M  V30 3 1 4 3
M  V30 4 1 5 4
M  V30 5 1 6 5
M  V30 6 1 7 6
M  V30 7 2 8 7
M  V30 8 1 9 8
M  V30 9 1 10 9
M  V30 10 1 11 10
M  V30 11 1 12 11
M  V30 12 1 13 12
M  V30 13 1 14 13
M  V30 14 1 15 14
M  V30 15 1 16 15
M  V30 16 1 17 16
M  V30 17 1 18 17
M  V30 18 1 19 18
M  V30 19 2 20 19
M  V30 20 1 21 20
M  V30 21 2 22 21
M  V30 22 1 23 22
M  V30 23 1 24 23
M  V30 24 1 25 19
M  V30 25 2 25 23
M  V30 26 1 26 25
M  V30 27 1 27 18
M  V30 28 1 28 15
M  V30 29 1 28 27
M  V30 30 2 29 9
M  V30 31 1 30 2
M  V30 32 2 30 6
M  V30 33 1 30 29
M  V30 34 1 31 3
M  V30 35 1 32 4
M  V30 36 1 33 4
M  V30 37 1 34 5
M  V30 38 1 35 5
M  V30 39 1 36 7
M  V30 40 1 37 8
M  V30 41 1 38 11
M  V30 42 1 39 11
M  V30 43 1 40 12
M  V30 44 1 41 12
M  V30 45 1 42 13
M  V30 46 1 43 13
M  V30 47 1 44 14
M  V30 48 1 45 14
M  V30 49 1 46 16
M  V30 50 1 47 16
M  V30 51 1 48 17
M  V30 52 1 49 17
M  V30 53 1 18 50 CFG=1
M  V30 54 1 51 20
M  V30 55 1 52 21
M  V30 56 1 53 22
M  V30 57 1 54 27
M  V30 58 1 55 27
M  V30 59 1 56 28
M  V30 60 1 57 28
M  V30 61 1 58 29
M  V30 62 1 15 59 CFG=3
M  V30 END BOND
M  V30 END CTAB
M  END
>  <b_m_subgroup_collapsed>  (1000) 
0

>  <r_i_docking_score>  (1000) 
-7.60051345148855

>  <s_m_subgroup_title>  (1000) 
glide-dock_SP_D22_pv

>  <s_m_subgroupid>  (1000) 
glide-dock_SP_D22_pv

>  <Molecule ChEMBL ID>  (1000) 
CHEMBL3898054

>  <Standard Type>  (1000) 
Ki

>  <Standard Value>  (1000) 
20.0

>  <label>  (1000) 
1

$$$$
CHEMBL4288077
     RDKit          3D

  0  0  0  0  0  0  0  0  0  0999 V3000
M  V30 BEGIN CTAB
M  V30 COUNTS 62 65 0 0 1
M  V30 BEGIN ATOM
M  V30 1 C 11.050251 2.266438 -14.521542 0
M  V30 2 C 9.787204 2.860036 -15.163141 0 CFG=1
M  V30 3 C 9.959384 3.127802 -16.668589 0
M  V30 4 C 10.992056 3.984919 -17.119345 0
M  V30 5 C 11.158254 4.256088 -18.490772 0
M  V30 6 C 10.297074 3.666231 -19.433971 0
M  V30 7 F 10.452483 3.927518 -20.752981 0
M  V30 8 C 9.273361 2.804233 -19.003210 0
M  V30 9 C 9.104202 2.535581 -17.631546 0
M  V30 10 N 8.628127 2.043059 -14.847091 0
M  V30 11 C 7.650715 2.731732 -14.246997 0
M  V30 12 O 6.529095 2.290561 -14.006954 0
M  V30 13 N 8.106834 3.969055 -13.981565 0
M  V30 14 C 7.292696 5.047116 -13.405588 0
M  V30 15 C 7.239528 5.099773 -11.865319 0 CFG=1
M  V30 16 O 6.486044 3.984921 -11.446895 0
M  V30 17 C 8.610213 5.157260 -11.150157 0
M  V30 18 N 8.668287 6.172215 -10.059534 0 CHG=1
M  V30 19 C 8.907388 5.582499 -8.715681 0
M  V30 20 C 9.022228 6.674423 -7.625832 0
M  V30 21 N 10.109020 7.611485 -7.945147 0
M  V30 22 C 10.207255 8.674786 -6.937689 0
M  V30 23 C 10.947145 8.403323 -5.628284 0
M  V30 24 C 11.285766 7.108657 -5.169922 0
M  V30 25 C 11.885910 6.938668 -3.905868 0
M  V30 26 C 12.186528 8.053319 -3.102671 0
M  V30 27 C 11.898990 9.346794 -3.571310 0
M  V30 28 C 11.284781 9.517838 -4.826689 0
M  V30 29 C 9.725465 8.256908 -9.205206 0
M  V30 30 C 9.678101 7.221766 -10.337691 0
M  V30 31 C 9.353100 4.130432 -14.441441 0
M  V30 32 O 10.058661 5.132749 -14.322823 0
M  V30 33 H 11.921566 2.904546 -14.672295 0
M  V30 34 H 10.911829 2.160796 -13.446548 0
M  V30 35 H 11.280667 1.284084 -14.934098 0
M  V30 36 H 11.661403 4.451773 -16.412355 0
M  V30 37 H 11.945145 4.918322 -18.821186 0
M  V30 38 H 8.615939 2.348648 -19.729021 0
M  V30 39 H 8.306283 1.868991 -17.340410 0
M  V30 40 H 8.531999 1.085214 -15.150577 0
M  V30 41 H 6.278101 4.974105 -13.804002 0
M  V30 42 H 7.687785 6.003293 -13.752724 0
M  V30 43 H 6.658640 5.985781 -11.606050 0
M  V30 44 H 6.125344 4.172022 -10.573809 0
M  V30 45 H 8.901526 4.172367 -10.788122 0
M  V30 46 H 9.376056 5.406867 -11.881377 0
M  V30 47 H 8.089849 4.903725 -8.469485 0
M  V30 48 H 9.821251 4.985256 -8.730583 0
M  V30 49 H 8.086183 7.219243 -7.529710 0
M  V30 50 H 9.183908 6.195958 -6.662047 0
M  V30 51 H 10.717665 9.530772 -7.381402 0
M  V30 52 H 9.200169 9.008113 -6.686781 0
M  V30 53 H 11.081307 6.231997 -5.763076 0
M  V30 54 H 12.112748 5.944526 -3.551160 0
M  V30 55 H 12.642544 7.917505 -2.133324 0
M  V30 56 H 12.132496 10.204626 -2.957212 0
M  V30 57 H 11.046216 10.515925 -5.164590 0
M  V30 58 H 8.764240 8.766139 -9.109073 0
M  V30 59 H 10.461584 9.017754 -9.468971 0
M  V30 60 H 10.663761 6.770589 -10.466622 0
M  V30 61 H 9.428288 7.719660 -11.276270 0
M  V30 62 H 7.772625 6.661356 -10.027218 0
M  V30 END ATOM
M  V30 BEGIN BOND
M  V30 1 1 2 1 CFG=1
M  V30 2 1 3 2
M  V30 3 1 4 3
M  V30 4 2 5 4
M  V30 5 1 6 5
M  V30 6 1 7 6
M  V30 7 2 8 6
M  V30 8 2 9 3
M  V30 9 1 9 8
M  V30 10 1 10 2
M  V30 11 1 11 10
M  V30 12 2 12 11
M  V30 13 1 13 11
M  V30 14 1 14 13
M  V30 15 1 15 14
M  V30 16 1 16 15
M  V30 17 1 17 15
M  V30 18 1 18 17
M  V30 19 1 19 18
M  V30 20 1 20 19
M  V30 21 1 21 20
M  V30 22 1 22 21
M  V30 23 1 23 22
M  V30 24 2 24 23
M  V30 25 1 25 24
M  V30 26 2 26 25
M  V30 27 1 27 26
M  V30 28 1 28 23
M  V30 29 2 28 27
M  V30 30 1 29 21
M  V30 31 1 30 18
M  V30 32 1 30 29
M  V30 33 1 31 2
M  V30 34 1 31 13
M  V30 35 2 32 31
M  V30 36 1 33 1
M  V30 37 1 34 1
M  V30 38 1 35 1
M  V30 39 1 36 4
M  V30 40 1 37 5
M  V30 41 1 38 8
M  V30 42 1 39 9
M  V30 43 1 40 10
M  V30 44 1 41 14
M  V30 45 1 42 14
M  V30 46 1 15 43 CFG=3
M  V30 47 1 44 16
M  V30 48 1 45 17
M  V30 49 1 46 17
M  V30 50 1 47 19
M  V30 51 1 48 19
M  V30 52 1 49 20
M  V30 53 1 50 20
M  V30 54 1 51 22
M  V30 55 1 52 22
M  V30 56 1 53 24
M  V30 57 1 54 25
M  V30 58 1 55 26
M  V30 59 1 56 27
M  V30 60 1 57 28
M  V30 61 1 58 29
M  V30 62 1 59 29
M  V30 63 1 60 30
M  V30 64 1 61 30
M  V30 65 1 62 18
M  V30 END BOND
M  V30 END CTAB
M  END
>  <b_m_subgroup_collapsed>  (1001) 
0

>  <r_i_docking_score>  (1001) 
-7.5998716766458596

>  <s_m_subgroup_title>  (1001) 
glide-dock_SP_D22_pv

>  <s_m_subgroupid>  (1001) 
glide-dock_SP_D22_pv

>  <Molecule ChEMBL ID>  (1001) 
CHEMBL4288077

>  <Standard Type>  (1001) 
Ki

>  <Standard Value>  (1001) 
20030.0

>  <label>  (1001) 
0

$$$$
CHEMBL5274285
     RDKit          3D

  0  0  0  0  0  0  0  0  0  0999 V3000
M  V30 BEGIN CTAB
M  V30 COUNTS 54 58 0 0 1
M  V30 BEGIN ATOM
M  V30 1 F 12.269946 2.885235 -18.584969 0
M  V30 2 C 11.791993 3.224110 -17.364023 0
M  V30 3 C 11.658414 4.581803 -17.012857 0
M  V30 4 C 11.168651 4.938932 -15.741907 0
M  V30 5 C 10.814029 3.935393 -14.816929 0
M  V30 6 C 10.294478 4.314231 -13.444724 0
M  V30 7 N 8.888704 4.718206 -13.457402 0
M  V30 8 C 7.986431 3.631086 -13.846469 0
M  V30 9 C 6.617444 4.003778 -13.261491 0
M  V30 10 C 6.846823 5.373683 -12.646916 0
M  V30 11 C 8.325412 5.351982 -12.254406 0 CFG=1
M  V30 12 C 8.558311 4.572462 -10.949819 0
M  V30 13 C 8.881124 5.622910 -9.900059 0
M  V30 14 N 9.535051 6.720678 -10.634737 0 CFG=2 CHG=1
M  V30 15 C 9.512639 8.033732 -9.944182 0
M  V30 16 C 10.245728 8.097761 -8.640724 0
M  V30 17 C 11.226492 8.983684 -8.293754 0
M  V30 18 C 11.480470 8.807520 -6.894604 0
M  V30 19 C 12.267026 9.484651 -5.936210 0
M  V30 20 C 12.386444 9.002184 -4.618285 0
M  V30 21 C 11.732284 7.814979 -4.238179 0
M  V30 22 Cl 11.982122 7.171838 -2.655916 0
M  V30 23 C 10.889318 7.154301 -5.154445 0
M  V30 24 C 10.747500 7.669264 -6.455858 0
M  V30 25 N 9.963915 7.304261 -7.534513 0
M  V30 26 C 8.896970 6.759072 -11.972630 0
M  V30 27 C 10.934858 2.576348 -15.174388 0
M  V30 28 C 11.425718 2.220925 -16.445438 0
M  V30 29 F 11.548905 0.914404 -16.778698 0
M  V30 30 H 11.935028 5.349482 -17.719912 0
M  V30 31 H 11.062640 5.981201 -15.479268 0
M  V30 32 H 10.446520 3.463803 -12.781628 0
M  V30 33 H 10.909456 5.128932 -13.060344 0
M  V30 34 H 7.964912 3.537277 -14.932536 0
M  V30 35 H 8.324078 2.674421 -13.448493 0
M  V30 36 H 5.818790 4.023013 -14.000448 0
M  V30 37 H 6.332044 3.284061 -12.492375 0
M  V30 38 H 6.695657 6.111018 -13.433381 0
M  V30 39 H 6.172484 5.599957 -11.819408 0
M  V30 40 H 7.687294 3.991354 -10.648168 0
M  V30 41 H 9.399612 3.886830 -11.026471 0
M  V30 42 H 7.957520 5.985256 -9.447491 0
M  V30 43 H 9.512657 5.215608 -9.111746 0
M  V30 44 H 9.939567 8.772436 -10.623340 0
M  V30 45 H 8.486975 8.355451 -9.778873 0
M  V30 46 H 11.667022 9.738980 -8.927745 0
M  V30 47 H 12.822130 10.363856 -6.229861 0
M  V30 48 H 13.016874 9.519901 -3.909795 0
M  V30 49 H 10.356517 6.262397 -4.857048 0
M  V30 50 H 9.227673 6.612385 -7.513716 0
M  V30 51 H 9.621946 7.068200 -12.725003 0
M  V30 52 H 8.090206 7.495767 -11.977119 0
M  V30 53 H 10.657762 1.799727 -14.474835 0
M  V30 54 H 10.498567 6.454160 -10.771447 0
M  V30 END ATOM
M  V30 BEGIN BOND
M  V30 1 1 2 1
M  V30 2 1 3 2
M  V30 3 2 4 3
M  V30 4 1 5 4
M  V30 5 1 6 5
M  V30 6 1 7 6
M  V30 7 1 8 7
M  V30 8 1 9 8
M  V30 9 1 10 9
M  V30 10 1 11 7 CFG=3
M  V30 11 1 11 10
M  V30 12 1 12 11
M  V30 13 1 13 12
M  V30 14 1 14 13
M  V30 15 1 15 14
M  V30 16 1 16 15
M  V30 17 2 17 16
M  V30 18 1 18 17
M  V30 19 1 19 18
M  V30 20 2 20 19
M  V30 21 1 21 20
M  V30 22 1 22 21
M  V30 23 2 23 21
M  V30 24 2 24 18
M  V30 25 1 24 23
M  V30 26 1 25 16
M  V30 27 1 25 24
M  V30 28 1 26 11
M  V30 29 1 26 14
M  V30 30 2 27 5
M  V30 31 2 28 2
M  V30 32 1 28 27
M  V30 33 1 29 28
M  V30 34 1 30 3
M  V30 35 1 31 4
M  V30 36 1 32 6
M  V30 37 1 33 6
M  V30 38 1 34 8
M  V30 39 1 35 8
M  V30 40 1 36 9
M  V30 41 1 37 9
M  V30 42 1 38 10
M  V30 43 1 39 10
M  V30 44 1 40 12
M  V30 45 1 41 12
M  V30 46 1 42 13
M  V30 47 1 43 13
M  V30 48 1 44 15
M  V30 49 1 45 15
M  V30 50 1 46 17
M  V30 51 1 47 19
M  V30 52 1 48 20
M  V30 53 1 49 23
M  V30 54 1 50 25
M  V30 55 1 51 26
M  V30 56 1 52 26
M  V30 57 1 53 27
M  V30 58 1 14 54 CFG=3
M  V30 END BOND
M  V30 END CTAB
M  END
>  <b_m_subgroup_collapsed>  (1002) 
0

>  <r_i_docking_score>  (1002) 
-7.5989400891531096

>  <s_m_subgroup_title>  (1002) 
glide-dock_SP_D22_pv

>  <s_m_subgroupid>  (1002) 
glide-dock_SP_D22_pv

>  <Molecule ChEMBL ID>  (1002) 
CHEMBL5274285

>  <Standard Type>  (1002) 
Ki

>  <Standard Value>  (1002) 
10000.0

>  <label>  (1002) 
0

$$$$
CHEMBL5957512
     RDKit          3D

  0  0  0  0  0  0  0  0  0  0999 V3000
M  V30 BEGIN CTAB
M  V30 COUNTS 75 80 0 0 1
M  V30 BEGIN ATOM
M  V30 1 O 11.685703 6.018780 -7.046598 0
M  V30 2 C 10.878232 6.931436 -6.973059 0
M  V30 3 N 9.847866 7.076454 -7.812902 0
M  V30 4 C 9.790556 6.460471 -9.122789 0 CFG=1
M  V30 5 C 8.606322 5.507189 -9.206879 0
M  V30 6 C 8.581221 4.831390 -10.576793 0
M  V30 7 C 8.572392 5.837015 -11.757065 0 CFG=2
M  V30 8 C 8.799105 5.112970 -13.095999 0
M  V30 9 C 7.763435 4.018444 -13.411057 0
M  V30 10 N 8.142532 3.138146 -14.543039 0 CFG=1 CHG=1
M  V30 11 C 9.396776 2.368559 -14.325373 0
M  V30 12 C 9.749120 1.536773 -15.561942 0
M  V30 13 C 8.621057 0.560305 -15.954432 0 CFG=2
M  V30 14 C 9.004535 -0.231581 -17.191265 0
M  V30 15 N 10.227544 -0.745355 -17.241379 0
M  V30 16 O 10.351207 -1.413529 -18.461815 0
M  V30 17 C 9.166790 -1.330229 -19.111198 0
M  V30 18 C 8.271170 -0.647720 -18.345566 0
M  V30 19 C 6.861688 -0.442052 -18.695021 0
M  V30 20 C 5.831114 -1.120559 -18.007107 0
M  V30 21 C 4.481208 -0.936842 -18.371574 0
M  V30 22 C 4.154431 -0.086660 -19.445835 0
M  V30 23 C 5.177623 0.572085 -20.151907 0
M  V30 24 F 4.885459 1.372074 -21.202253 0
M  V30 25 C 6.521118 0.397955 -19.774166 0
M  V30 26 C 7.323571 1.380001 -16.120445 0
M  V30 27 C 7.017069 2.232273 -14.881856 0
M  V30 28 C 9.665482 6.919883 -11.594895 0
M  V30 29 C 9.688626 7.550197 -10.199141 0
M  V30 30 C 11.034724 8.023139 -5.968225 0
M  V30 31 C 10.769859 9.328429 -6.415846 0
M  V30 32 C 10.885919 10.395990 -5.536281 0
M  V30 33 C 11.286171 10.172417 -4.221025 0
M  V30 34 C 11.681972 8.931095 -3.769974 0
M  V30 35 N 12.144334 8.858694 -2.512237 0
M  V30 36 C 12.485832 7.662414 -2.040505 0
M  V30 37 C 12.339228 6.486458 -2.780821 0
M  V30 38 C 11.839059 6.571988 -4.092269 0
M  V30 39 C 11.521386 7.824955 -4.641282 0
M  V30 40 H 9.166249 7.796924 -7.620158 0
M  V30 41 H 10.699074 5.886755 -9.312428 0
M  V30 42 H 8.658998 4.753418 -8.420551 0
M  V30 43 H 7.686717 6.063570 -9.048025 0
M  V30 44 H 9.446976 4.172442 -10.660056 0
M  V30 45 H 7.694588 4.198504 -10.600233 0
M  V30 46 H 7.601277 6.333042 -11.776344 0
M  V30 47 H 8.809058 5.830172 -13.915805 0
M  V30 48 H 9.804856 4.706474 -13.047556 0
M  V30 49 H 7.580619 3.372552 -12.559757 0
M  V30 50 H 6.810342 4.505997 -13.626274 0
M  V30 51 H 10.248042 3.017851 -14.135060 0
M  V30 52 H 9.289558 1.734390 -13.447859 0
M  V30 53 H 10.668572 0.987318 -15.351826 0
M  V30 54 H 9.974189 2.200315 -16.399206 0
M  V30 55 H 8.477029 -0.142576 -15.131837 0
M  V30 56 H 9.105439 -1.825455 -20.067631 0
M  V30 57 H 6.074389 -1.789625 -17.194195 0
M  V30 58 H 3.700291 -1.458031 -17.837704 0
M  V30 59 H 3.122119 0.052794 -19.732698 0
M  V30 60 H 7.295266 0.906643 -20.329327 0
M  V30 61 H 6.478384 0.716154 -16.273369 0
M  V30 62 H 7.391392 2.021058 -17.001204 0
M  V30 63 H 6.799072 1.580899 -14.033521 0
M  V30 64 H 6.119273 2.827863 -15.055895 0
M  V30 65 H 10.647237 6.490479 -11.794877 0
M  V30 66 H 9.521661 7.702655 -12.339188 0
M  V30 67 H 8.791888 8.151587 -10.049539 0
M  V30 68 H 10.534657 8.235475 -10.122210 0
M  V30 69 H 10.458239 9.528877 -7.430867 0
M  V30 70 H 10.639103 11.372227 -5.881630 0
M  V30 71 H 11.334765 10.972281 -3.511309 0
M  V30 72 H 12.886275 7.642667 -1.044620 0
M  V30 73 H 12.610437 5.536652 -2.349163 0
M  V30 74 H 11.724834 5.671457 -4.662574 0
M  V30 75 H 8.303242 3.737677 -15.340274 0
M  V30 END ATOM
M  V30 BEGIN BOND
M  V30 1 2 2 1
M  V30 2 1 3 2
M  V30 3 1 4 3
M  V30 4 1 5 4
M  V30 5 1 6 5
M  V30 6 1 7 6
M  V30 7 1 8 7
M  V30 8 1 9 8
M  V30 9 1 10 9
M  V30 10 1 11 10
M  V30 11 1 12 11
M  V30 12 1 13 12
M  V30 13 1 14 13
M  V30 14 2 15 14
M  V30 15 1 16 15
M  V30 16 1 17 16
M  V30 17 1 18 14
M  V30 18 2 18 17
M  V30 19 1 19 18
M  V30 20 2 20 19
M  V30 21 1 21 20
M  V30 22 2 22 21
M  V30 23 1 23 22
M  V30 24 1 24 23
M  V30 25 1 25 19
M  V30 26 2 25 23
M  V30 27 1 26 13
M  V30 28 1 27 10
M  V30 29 1 27 26
M  V30 30 1 28 7
M  V30 31 1 29 4
M  V30 32 1 29 28
M  V30 33 1 30 2
M  V30 34 1 31 30
M  V30 35 2 32 31
M  V30 36 1 33 32
M  V30 37 2 34 33
M  V30 38 1 35 34
M  V30 39 2 36 35
M  V30 40 1 37 36
M  V30 41 2 38 37
M  V30 42 2 39 30
M  V30 43 1 39 34
M  V30 44 1 39 38
M  V30 45 1 40 3
M  V30 46 1 4 41 CFG=3
M  V30 47 1 42 5
M  V30 48 1 43 5
M  V30 49 1 44 6
M  V30 50 1 45 6
M  V30 51 1 7 46 CFG=3
M  V30 52 1 47 8
M  V30 53 1 48 8
M  V30 54 1 49 9
M  V30 55 1 50 9
M  V30 56 1 51 11
M  V30 57 1 52 11
M  V30 58 1 53 12
M  V30 59 1 54 12
M  V30 60 1 13 55 CFG=1
M  V30 61 1 56 17
M  V30 62 1 57 20
M  V30 63 1 58 21
M  V30 64 1 59 22
M  V30 65 1 60 25
M  V30 66 1 61 26
M  V30 67 1 62 26
M  V30 68 1 63 27
M  V30 69 1 64 27
M  V30 70 1 65 28
M  V30 71 1 66 28
M  V30 72 1 67 29
M  V30 73 1 68 29
M  V30 74 1 69 31
M  V30 75 1 70 32
M  V30 76 1 71 33
M  V30 77 1 72 36
M  V30 78 1 73 37
M  V30 79 1 74 38
M  V30 80 1 10 75 CFG=3
M  V30 END BOND
M  V30 END CTAB
M  END
>  <b_m_subgroup_collapsed>  (1003) 
0

>  <r_i_docking_score>  (1003) 
-7.5973803042560499

>  <s_m_subgroup_title>  (1003) 
glide-dock_SP_D22_pv

>  <s_m_subgroupid>  (1003) 
glide-dock_SP_D22_pv

>  <Molecule ChEMBL ID>  (1003) 
CHEMBL5957512

>  <Standard Type>  (1003) 
Ki

>  <Standard Value>  (1003) 
36.0

>  <label>  (1003) 
1

$$$$
CHEMBL5845180
     RDKit          3D

  0  0  0  0  0  0  0  0  0  0999 V3000
M  V30 BEGIN CTAB
M  V30 COUNTS 66 70 0 0 1
M  V30 BEGIN ATOM
M  V30 1 C 12.123441 6.423382 -15.823160 0
M  V30 2 N 11.120316 5.439526 -16.195034 0
M  V30 3 C 10.428217 4.600379 -15.399244 0
M  V30 4 S 10.544431 4.629910 -13.640097 0
M  V30 5 C 8.772099 4.838820 -13.269315 0
M  V30 6 C 8.435230 4.384927 -11.842381 0
M  V30 7 C 8.083737 5.467008 -10.820254 0
M  V30 8 N 9.250999 6.244053 -10.358310 0 CFG=1 CHG=1
M  V30 9 C 9.553965 7.433588 -11.175480 0
M  V30 10 C 10.388816 8.332366 -10.272299 0 CFG=2
M  V30 11 C 11.903851 8.128811 -10.360766 0
M  V30 12 C 12.337578 8.309700 -8.912384 0
M  V30 13 N 11.265203 7.703621 -8.138312 0
M  V30 14 C 11.286054 7.951509 -6.759630 0
M  V30 15 C 11.398773 9.257139 -6.228055 0
M  V30 16 C 11.593113 9.441630 -4.845371 0
M  V30 17 C 11.686069 8.328991 -3.988738 0
M  V30 18 F 11.912176 8.506214 -2.666237 0
M  V30 19 C 11.509809 7.031145 -4.505715 0
M  V30 20 C 11.285996 6.847697 -5.884183 0
M  V30 21 C 10.014258 7.953641 -8.837282 0 CFG=2
M  V30 22 C 9.147702 6.695295 -8.952612 0
M  V30 23 N 9.618299 3.777908 -16.066360 0
M  V30 24 N 9.708138 4.158930 -17.379864 0
M  V30 25 C 10.592647 5.159827 -17.408758 0
M  V30 26 C 10.909355 5.957618 -18.650997 0
M  V30 27 C 11.448991 5.099426 -19.817350 0
M  V30 28 C 10.344820 4.356477 -20.594482 0
M  V30 29 C 9.233695 5.314420 -21.054813 0
M  V30 30 C 8.642339 6.094861 -19.872355 0
M  V30 31 C 9.734375 6.856616 -19.101263 0
M  V30 32 H 11.686655 7.416174 -15.850337 0
M  V30 33 H 12.507081 6.234202 -14.819989 0
M  V30 34 H 12.966430 6.378367 -16.513414 0
M  V30 35 H 8.193330 4.222269 -13.958198 0
M  V30 36 H 8.462264 5.866723 -13.457850 0
M  V30 37 H 9.227532 3.750637 -11.448837 0
M  V30 38 H 7.540752 3.771952 -11.915792 0
M  V30 39 H 7.686039 4.943925 -9.952365 0
M  V30 40 H 7.285636 6.109630 -11.189885 0
M  V30 41 H 8.627251 7.949734 -11.433817 0
M  V30 42 H 10.067589 7.184149 -12.104309 0
M  V30 43 H 10.149593 9.372227 -10.446563 0
M  V30 44 H 12.395813 8.828895 -11.037724 0
M  V30 45 H 12.139915 7.117056 -10.691025 0
M  V30 46 H 12.434179 9.371519 -8.688373 0
M  V30 47 H 13.294855 7.829786 -8.712330 0
M  V30 48 H 11.373604 10.120741 -6.875020 0
M  V30 49 H 11.684836 10.439089 -4.443810 0
M  V30 50 H 11.554004 6.176673 -3.845641 0
M  V30 51 H 11.199354 5.845994 -6.278059 0
M  V30 52 H 9.452826 8.755895 -8.352264 0
M  V30 53 H 8.114161 6.953633 -8.725792 0
M  V30 54 H 9.439174 5.902784 -8.262712 0
M  V30 55 H 11.717963 6.639040 -18.392607 0
M  V30 56 H 11.961409 5.757568 -20.521448 0
M  V30 57 H 12.203763 4.398929 -19.455004 0
M  V30 58 H 10.778970 3.853543 -21.459335 0
M  V30 59 H 9.914434 3.567374 -19.977133 0
M  V30 60 H 9.634498 6.014918 -21.789402 0
M  V30 61 H 8.445124 4.754952 -21.559675 0
M  V30 62 H 7.889398 6.797427 -20.233328 0
M  V30 63 H 8.118292 5.409824 -19.206963 0
M  V30 64 H 9.296150 7.371457 -18.246794 0
M  V30 65 H 10.123931 7.637258 -19.755255 0
M  V30 66 H 10.061925 5.643593 -10.390535 0
M  V30 END ATOM
M  V30 BEGIN BOND
M  V30 1 1 2 1
M  V30 2 1 3 2
M  V30 3 1 4 3
M  V30 4 1 5 4
M  V30 5 1 6 5
M  V30 6 1 7 6
M  V30 7 1 8 7
M  V30 8 1 9 8
M  V30 9 1 10 9
M  V30 10 1 11 10
M  V30 11 1 12 11
M  V30 12 1 13 12
M  V30 13 1 14 13
M  V30 14 1 15 14
M  V30 15 2 16 15
M  V30 16 1 17 16
M  V30 17 1 18 17
M  V30 18 2 19 17
M  V30 19 2 20 14
M  V30 20 1 20 19
M  V30 21 1 21 10
M  V30 22 1 21 13
M  V30 23 1 22 8
M  V30 24 1 22 21
M  V30 25 2 23 3
M  V30 26 1 24 23
M  V30 27 1 25 2
M  V30 28 2 25 24
M  V30 29 1 26 25
M  V30 30 1 27 26
M  V30 31 1 28 27
M  V30 32 1 29 28
M  V30 33 1 30 29
M  V30 34 1 31 26
M  V30 35 1 31 30
M  V30 36 1 32 1
M  V30 37 1 33 1
M  V30 38 1 34 1
M  V30 39 1 35 5
M  V30 40 1 36 5
M  V30 41 1 37 6
M  V30 42 1 38 6
M  V30 43 1 39 7
M  V30 44 1 40 7
M  V30 45 1 41 9
M  V30 46 1 42 9
M  V30 47 1 10 43 CFG=3
M  V30 48 1 44 11
M  V30 49 1 45 11
M  V30 50 1 46 12
M  V30 51 1 47 12
M  V30 52 1 48 15
M  V30 53 1 49 16
M  V30 54 1 50 19
M  V30 55 1 51 20
M  V30 56 1 21 52 CFG=1
M  V30 57 1 53 22
M  V30 58 1 54 22
M  V30 59 1 55 26
M  V30 60 1 56 27
M  V30 61 1 57 27
M  V30 62 1 58 28
M  V30 63 1 59 28
M  V30 64 1 60 29
M  V30 65 1 61 29
M  V30 66 1 62 30
M  V30 67 1 63 30
M  V30 68 1 64 31
M  V30 69 1 65 31
M  V30 70 1 8 66 CFG=1
M  V30 END BOND
M  V30 END CTAB
M  END
>  <b_m_subgroup_collapsed>  (1004) 
0

>  <r_i_docking_score>  (1004) 
-7.5966835527679297

>  <s_m_subgroup_title>  (1004) 
glide-dock_SP_D22_pv

>  <s_m_subgroupid>  (1004) 
glide-dock_SP_D22_pv

>  <Molecule ChEMBL ID>  (1004) 
CHEMBL5845180

>  <Standard Type>  (1004) 
Ki

>  <Standard Value>  (1004) 
43.7

>  <label>  (1004) 
1

$$$$
CHEMBL201748
     RDKit          3D

  0  0  0  0  0  0  0  0  0  0999 V3000
M  V30 BEGIN CTAB
M  V30 COUNTS 43 47 0 0 1
M  V30 BEGIN ATOM
M  V30 1 C 12.085469 8.051304 -3.100543 0
M  V30 2 C 11.692197 6.915937 -3.832390 0
M  V30 3 C 11.117655 7.058949 -5.109075 0
M  V30 4 C 10.885457 8.343599 -5.648539 0
M  V30 5 C 10.225886 8.538371 -7.011137 0 CFG=2
M  V30 6 C 9.389338 7.381169 -7.614854 0
M  V30 7 C 10.218019 6.947063 -8.820148 0 CFG=1
M  V30 8 C 9.574199 6.283288 -9.990823 0
M  V30 9 N 8.487322 5.425419 -9.999604 0
M  V30 10 C 8.236175 4.993845 -11.291697 0
M  V30 11 C 7.238486 4.172400 -11.847306 0
M  V30 12 C 7.298861 3.832376 -13.212235 0
M  V30 13 C 8.352737 4.320971 -14.006970 0
M  V30 14 C 9.307964 5.199225 -13.461230 0
M  V30 15 C 9.266986 5.558827 -12.097579 0
M  V30 16 C 10.043738 6.427768 -11.266889 0
M  V30 17 C 11.141860 7.381190 -11.627777 0
M  V30 18 C 11.814532 8.008851 -10.376730 0
M  V30 19 N 10.815250 8.207146 -9.296337 0 CFG=2 CHG=1
M  V30 20 C 11.261157 8.906838 -8.085466 0
M  V30 21 C 11.281507 9.479418 -4.905634 0
M  V30 22 C 11.880079 9.334411 -3.637670 0
M  V30 23 H 12.530409 7.941048 -2.122954 0
M  V30 24 H 11.845473 5.931532 -3.416802 0
M  V30 25 H 10.849243 6.169269 -5.654236 0
M  V30 26 H 9.537895 9.372422 -6.892489 0
M  V30 27 H 9.118631 6.575727 -6.934612 0
M  V30 28 H 8.455632 7.805511 -7.979507 0
M  V30 29 H 11.014564 6.297510 -8.458838 0
M  V30 30 H 7.916111 5.226159 -9.190001 0
M  V30 31 H 6.460486 3.774088 -11.214949 0
M  V30 32 H 6.557808 3.171477 -13.637527 0
M  V30 33 H 8.429066 4.036781 -15.046150 0
M  V30 34 H 10.089027 5.596163 -14.091928 0
M  V30 35 H 11.890458 6.903409 -12.259989 0
M  V30 36 H 10.694941 8.172023 -12.225698 0
M  V30 37 H 12.607550 7.364203 -10.000370 0
M  V30 38 H 12.285701 8.956553 -10.639104 0
M  V30 39 H 11.287176 9.979516 -8.251657 0
M  V30 40 H 12.260828 8.559950 -7.813676 0
M  V30 41 H 11.112978 10.471034 -5.301048 0
M  V30 42 H 12.164512 10.205062 -3.065156 0
M  V30 43 H 10.048720 8.737214 -9.685513 0
M  V30 END ATOM
M  V30 BEGIN BOND
M  V30 1 2 2 1
M  V30 2 1 3 2
M  V30 3 2 4 3
M  V30 4 1 5 4
M  V30 5 1 6 5
M  V30 6 1 7 6
M  V30 7 1 8 7
M  V30 8 1 9 8
M  V30 9 1 10 9
M  V30 10 2 11 10
M  V30 11 1 12 11
M  V30 12 2 13 12
M  V30 13 1 14 13
M  V30 14 1 15 10
M  V30 15 2 15 14
M  V30 16 2 16 8
M  V30 17 1 16 15
M  V30 18 1 17 16
M  V30 19 1 18 17
M  V30 20 1 19 7
M  V30 21 1 19 18
M  V30 22 1 20 5
M  V30 23 1 20 19
M  V30 24 1 21 4
M  V30 25 1 22 1
M  V30 26 2 22 21
M  V30 27 1 23 1
M  V30 28 1 24 2
M  V30 29 1 25 3
M  V30 30 1 5 26 CFG=1
M  V30 31 1 27 6
M  V30 32 1 28 6
M  V30 33 1 7 29 CFG=1
M  V30 34 1 30 9
M  V30 35 1 31 11
M  V30 36 1 32 12
M  V30 37 1 33 13
M  V30 38 1 34 14
M  V30 39 1 35 17
M  V30 40 1 36 17
M  V30 41 1 37 18
M  V30 42 1 38 18
M  V30 43 1 39 20
M  V30 44 1 40 20
M  V30 45 1 41 21
M  V30 46 1 42 22
M  V30 47 1 19 43 CFG=3
M  V30 END BOND
M  V30 END CTAB
M  END
>  <b_m_subgroup_collapsed>  (1005) 
0

>  <r_i_docking_score>  (1005) 
-7.5945828221167204

>  <s_m_subgroup_title>  (1005) 
glide-dock_SP_D22_pv

>  <s_m_subgroupid>  (1005) 
glide-dock_SP_D22_pv

>  <Molecule ChEMBL ID>  (1005) 
CHEMBL201748

>  <Standard Type>  (1005) 
Ki

>  <Standard Value>  (1005) 
10000.0

>  <label>  (1005) 
0

$$$$
CHEMBL3764597
     RDKit          3D

  0  0  0  0  0  0  0  0  0  0999 V3000
M  V30 BEGIN CTAB
M  V30 COUNTS 61 64 0 0 1
M  V30 BEGIN ATOM
M  V30 1 C 8.854228 8.858915 -8.653522 0
M  V30 2 N 10.099824 8.406229 -9.229671 0
M  V30 3 C 10.422955 8.110940 -10.504591 0
M  V30 4 S 9.285321 8.172293 -11.843522 0
M  V30 5 C 8.420094 6.590750 -11.579115 0
M  V30 6 C 9.235863 5.348330 -11.971583 0
M  V30 7 C 9.718556 5.377692 -13.435169 0
M  V30 8 N 10.137675 4.090523 -13.986992 0
M  V30 9 C 10.909525 4.274748 -15.212489 0
M  V30 10 C 11.321772 2.933139 -15.841962 0
M  V30 11 O 10.162183 2.150694 -16.109346 0
M  V30 12 C 9.374617 1.905385 -14.945744 0 CFG=2
M  V30 13 C 8.131066 1.079783 -15.243264 0
M  V30 14 C 7.643425 0.213681 -14.245093 0
M  V30 15 C 6.473505 -0.537606 -14.451670 0
M  V30 16 C 5.777962 -0.441409 -15.672894 0
M  V30 17 C 4.533716 -1.285009 -15.883255 0
M  V30 18 F 4.885469 -2.568347 -15.847637 0
M  V30 19 F 3.663630 -1.039706 -14.902589 0
M  V30 20 F 3.945654 -1.028253 -17.052452 0
M  V30 21 C 6.257182 0.429942 -16.675167 0
M  V30 22 C 7.416242 1.200992 -16.458328 0
M  V30 23 F 7.816150 2.065947 -17.421719 0
M  V30 24 C 8.984543 3.245032 -14.292854 0
M  V30 25 N 11.701768 7.771143 -10.661087 0
M  V30 26 N 12.235929 7.774359 -9.393726 0
M  V30 27 C 11.239558 8.127681 -8.577593 0
M  V30 28 C 11.374455 8.155088 -7.132276 0
M  V30 29 C 11.845885 9.309085 -6.479270 0
M  V30 30 C 12.066871 9.292995 -5.090305 0
M  V30 31 C 11.795893 8.127919 -4.335652 0
M  V30 32 C 12.116532 8.066610 -2.871261 0
M  V30 33 N 12.086258 9.225731 -2.217177 0
M  V30 34 O 12.367124 7.003828 -2.308834 0
M  V30 35 C 11.286213 6.985550 -4.993035 0
M  V30 36 C 11.072929 6.999900 -6.384139 0
M  V30 37 H 8.331896 8.000988 -8.235023 0
M  V30 38 H 9.044638 9.569579 -7.850610 0
M  V30 39 H 8.234860 9.346888 -9.406432 0
M  V30 40 H 8.106019 6.516474 -10.537598 0
M  V30 41 H 7.501657 6.617785 -12.166457 0
M  V30 42 H 10.085761 5.235243 -11.302131 0
M  V30 43 H 8.607867 4.476793 -11.790725 0
M  V30 44 H 8.930082 5.787934 -14.066899 0
M  V30 45 H 10.547573 6.085200 -13.492114 0
M  V30 46 H 10.326385 4.845973 -15.937068 0
M  V30 47 H 11.804583 4.861189 -15.001471 0
M  V30 48 H 11.862272 3.099589 -16.773676 0
M  V30 49 H 11.990108 2.386662 -15.177387 0
M  V30 50 H 9.992109 1.337567 -14.246717 0
M  V30 51 H 8.168481 0.130662 -13.306213 0
M  V30 52 H 6.118824 -1.206440 -13.680799 0
M  V30 53 H 5.730066 0.524784 -17.612492 0
M  V30 54 H 8.418137 3.038254 -13.386676 0
M  V30 55 H 8.308907 3.775057 -14.964786 0
M  V30 56 H 12.079538 10.192967 -7.045754 0
M  V30 57 H 12.481750 10.172069 -4.624335 0
M  V30 58 H 11.868812 10.081338 -2.703812 0
M  V30 59 H 12.279601 9.239003 -1.227833 0
M  V30 60 H 11.078524 6.083454 -4.434843 0
M  V30 61 H 10.706045 6.113192 -6.880107 0
M  V30 END ATOM
M  V30 BEGIN BOND
M  V30 1 1 2 1
M  V30 2 1 3 2
M  V30 3 1 4 3
M  V30 4 1 5 4
M  V30 5 1 6 5
M  V30 6 1 7 6
M  V30 7 1 8 7
M  V30 8 1 9 8
M  V30 9 1 10 9
M  V30 10 1 11 10
M  V30 11 1 12 11
M  V30 12 1 13 12
M  V30 13 1 14 13
M  V30 14 2 15 14
M  V30 15 1 16 15
M  V30 16 1 17 16
M  V30 17 1 18 17
M  V30 18 1 19 17
M  V30 19 1 20 17
M  V30 20 2 21 16
M  V30 21 2 22 13
M  V30 22 1 22 21
M  V30 23 1 23 22
M  V30 24 1 24 8
M  V30 25 1 24 12
M  V30 26 2 25 3
M  V30 27 1 26 25
M  V30 28 1 27 2
M  V30 29 2 27 26
M  V30 30 1 28 27
M  V30 31 1 29 28
M  V30 32 2 30 29
M  V30 33 1 31 30
M  V30 34 1 32 31
M  V30 35 1 33 32
M  V30 36 2 34 32
M  V30 37 2 35 31
M  V30 38 2 36 28
M  V30 39 1 36 35
M  V30 40 1 37 1
M  V30 41 1 38 1
M  V30 42 1 39 1
M  V30 43 1 40 5
M  V30 44 1 41 5
M  V30 45 1 42 6
M  V30 46 1 43 6
M  V30 47 1 44 7
M  V30 48 1 45 7
M  V30 49 1 46 9
M  V30 50 1 47 9
M  V30 51 1 48 10
M  V30 52 1 49 10
M  V30 53 1 12 50 CFG=1
M  V30 54 1 51 14
M  V30 55 1 52 15
M  V30 56 1 53 21
M  V30 57 1 54 24
M  V30 58 1 55 24
M  V30 59 1 56 29
M  V30 60 1 57 30
M  V30 61 1 58 33
M  V30 62 1 59 33
M  V30 63 1 60 35
M  V30 64 1 61 36
M  V30 END BOND
M  V30 END CTAB
M  END
>  <b_m_subgroup_collapsed>  (1006) 
0

>  <r_i_docking_score>  (1006) 
-7.59279558800998

>  <s_m_subgroup_title>  (1006) 
glide-dock_SP_D22_pv

>  <s_m_subgroupid>  (1006) 
glide-dock_SP_D22_pv

>  <Molecule ChEMBL ID>  (1006) 
CHEMBL3764597

>  <Standard Type>  (1006) 
Ki

>  <Standard Value>  (1006) 
14454.0

>  <label>  (1006) 
0

$$$$
CHEMBL378455
     RDKit          3D

  0  0  0  0  0  0  0  0  0  0999 V3000
M  V30 BEGIN CTAB
M  V30 COUNTS 45 48 0 0 1
M  V30 BEGIN ATOM
M  V30 1 C 11.617819 7.320381 -12.310632 0
M  V30 2 C 11.226818 6.272685 -13.065921 0
M  V30 3 C 11.885504 5.963236 -14.352020 0
M  V30 4 C 12.489998 6.980516 -15.126945 0
M  V30 5 C 13.111569 6.670242 -16.350794 0
M  V30 6 C 13.141325 5.339150 -16.808908 0
M  V30 7 C 12.542993 4.319984 -16.041567 0
M  V30 8 C 11.923673 4.628854 -14.815646 0
M  V30 9 C 10.031118 5.450333 -12.602027 0
M  V30 10 C 9.210899 6.142525 -11.496162 0
M  V30 11 N 10.095989 6.649415 -10.446840 0
M  V30 12 C 9.286118 7.150389 -9.335770 0
M  V30 13 C 10.075973 7.728941 -8.188730 0
M  V30 14 C 10.765270 8.972728 -8.173412 0
M  V30 15 N 11.327096 9.243843 -7.015795 0
M  V30 16 N 11.029897 8.184834 -6.234351 0
M  V30 17 C 11.465023 8.165433 -4.889216 0
M  V30 18 C 11.685957 6.944105 -4.219034 0
M  V30 19 C 12.099257 6.937054 -2.871944 0
M  V30 20 C 12.305786 8.151333 -2.192000 0
M  V30 21 C 12.086017 9.371611 -2.853950 0
M  V30 22 C 11.675229 9.379325 -4.197158 0
M  V30 23 C 10.279292 7.246809 -6.925285 0
M  V30 24 C 10.962028 7.698813 -11.000134 0
M  V30 25 H 12.454573 7.933024 -12.607605 0
M  V30 26 H 12.468806 8.011229 -14.805071 0
M  V30 27 H 13.566242 7.454937 -16.937130 0
M  V30 28 H 13.618357 5.100383 -17.747932 0
M  V30 29 H 12.567788 3.297027 -16.390514 0
M  V30 30 H 11.480737 3.831778 -14.238308 0
M  V30 31 H 9.375143 5.275269 -13.455213 0
M  V30 32 H 10.381521 4.474539 -12.262652 0
M  V30 33 H 8.620915 6.962919 -11.910285 0
M  V30 34 H 8.499846 5.427696 -11.076600 0
M  V30 35 H 8.593659 7.900855 -9.718869 0
M  V30 36 H 8.652755 6.334668 -8.978450 0
M  V30 37 H 10.863336 9.694665 -8.971878 0
M  V30 38 H 11.532471 6.003546 -4.729620 0
M  V30 39 H 12.255337 5.996391 -2.363940 0
M  V30 40 H 12.620427 8.154006 -1.159061 0
M  V30 41 H 12.223605 10.301794 -2.326762 0
M  V30 42 H 11.501539 10.325782 -4.688145 0
M  V30 43 H 9.928388 6.336996 -6.462636 0
M  V30 44 H 11.763706 7.915718 -10.295399 0
M  V30 45 H 10.392906 8.617038 -11.158185 0
M  V30 END ATOM
M  V30 BEGIN BOND
M  V30 1 2 2 1
M  V30 2 1 3 2
M  V30 3 2 4 3
M  V30 4 1 5 4
M  V30 5 2 6 5
M  V30 6 1 7 6
M  V30 7 1 8 3
M  V30 8 2 8 7
M  V30 9 1 9 2
M  V30 10 1 10 9
M  V30 11 1 11 10
M  V30 12 1 12 11
M  V30 13 1 13 12
M  V30 14 1 14 13
M  V30 15 2 15 14
M  V30 16 1 16 15
M  V30 17 1 17 16
M  V30 18 2 18 17
M  V30 19 1 19 18
M  V30 20 2 20 19
M  V30 21 1 21 20
M  V30 22 1 22 17
M  V30 23 2 22 21
M  V30 24 2 23 13
M  V30 25 1 23 16
M  V30 26 1 24 1
M  V30 27 1 24 11
M  V30 28 1 25 1
M  V30 29 1 26 4
M  V30 30 1 27 5
M  V30 31 1 28 6
M  V30 32 1 29 7
M  V30 33 1 30 8
M  V30 34 1 31 9
M  V30 35 1 32 9
M  V30 36 1 33 10
M  V30 37 1 34 10
M  V30 38 1 35 12
M  V30 39 1 36 12
M  V30 40 1 37 14
M  V30 41 1 38 18
M  V30 42 1 39 19
M  V30 43 1 40 20
M  V30 44 1 41 21
M  V30 45 1 42 22
M  V30 46 1 43 23
M  V30 47 1 44 24
M  V30 48 1 45 24
M  V30 END BOND
M  V30 END CTAB
M  END
>  <b_m_subgroup_collapsed>  (1007) 
0

>  <r_i_docking_score>  (1007) 
-7.5922139854960298

>  <s_m_subgroup_title>  (1007) 
glide-dock_SP_D22_pv

>  <s_m_subgroupid>  (1007) 
glide-dock_SP_D22_pv

>  <Molecule ChEMBL ID>  (1007) 
CHEMBL378455

>  <Standard Type>  (1007) 
Ki

>  <Standard Value>  (1007) 
28.0

>  <label>  (1007) 
1

$$$$
CHEMBL3765267
     RDKit          3D

  0  0  0  0  0  0  0  0  0  0999 V3000
M  V30 BEGIN CTAB
M  V30 COUNTS 62 65 0 0 1
M  V30 BEGIN ATOM
M  V30 1 C 12.337685 9.772155 -2.889495 0
M  V30 2 C 12.084975 8.363441 -3.399344 0
M  V30 3 O 12.222852 7.417500 -2.625080 0
M  V30 4 C 11.668619 8.221025 -4.819998 0
M  V30 5 C 11.283679 6.948134 -5.286041 0
M  V30 6 C 10.900002 6.759281 -6.624187 0
M  V30 7 C 10.890702 7.835253 -7.534695 0
M  V30 8 C 10.525295 7.624786 -8.939988 0
M  V30 9 N 11.183883 8.237720 -9.933359 0
M  V30 10 N 10.633583 7.771888 -11.104629 0
M  V30 11 C 9.675662 6.924286 -10.736030 0
M  V30 12 S 8.679935 6.020546 -11.882851 0
M  V30 13 C 10.001475 5.047614 -12.651335 0
M  V30 14 C 9.467449 4.110987 -13.738914 0
M  V30 15 C 10.609400 3.389987 -14.476374 0
M  V30 16 N 10.178287 2.471813 -15.524115 0
M  V30 17 C 9.552135 1.266865 -14.983299 0
M  V30 18 C 9.144445 0.287233 -16.094004 0
M  V30 19 O 10.275598 -0.033011 -16.895464 0
M  V30 20 C 10.882810 1.108822 -17.501659 0 CFG=2
M  V30 21 C 12.056672 0.726856 -18.397547 0
M  V30 22 C 12.363955 -0.627958 -18.647161 0
M  V30 23 C 13.464645 -0.977994 -19.453939 0
M  V30 24 C 14.267554 0.026017 -20.034874 0
M  V30 25 C 15.479196 -0.359229 -20.873644 0
M  V30 26 F 15.842371 0.633099 -21.686522 0
M  V30 27 F 16.490082 -0.628507 -20.055265 0
M  V30 28 F 15.218163 -1.434254 -21.615904 0
M  V30 29 C 13.950829 1.380957 -19.804939 0
M  V30 30 C 12.850164 1.728965 -18.999292 0
M  V30 31 C 11.298461 2.085299 -16.376585 0
M  V30 32 N 9.553287 6.798517 -9.398505 0
M  V30 33 C 8.607000 5.972253 -8.664719 0
M  V30 34 C 11.276028 9.113183 -7.071610 0
M  V30 35 C 11.657411 9.308464 -5.727300 0
M  V30 36 H 13.227098 10.170910 -3.373810 0
M  V30 37 H 11.490893 10.421243 -3.104822 0
M  V30 38 H 12.494649 9.770730 -1.810648 0
M  V30 39 H 11.285758 6.093804 -4.621133 0
M  V30 40 H 10.631402 5.772006 -6.951931 0
M  V30 41 H 10.747596 5.724253 -13.066745 0
M  V30 42 H 10.485028 4.459108 -11.875040 0
M  V30 43 H 8.784347 3.398294 -13.279981 0
M  V30 44 H 8.880580 4.684705 -14.457592 0
M  V30 45 H 11.245767 4.158397 -14.917405 0
M  V30 46 H 11.235872 2.859589 -13.758429 0
M  V30 47 H 10.238090 0.766805 -14.294960 0
M  V30 48 H 8.664331 1.525551 -14.404761 0
M  V30 49 H 8.745712 -0.625675 -15.653981 0
M  V30 50 H 8.357368 0.714391 -16.715866 0
M  V30 51 H 10.140921 1.593543 -18.141327 0
M  V30 52 H 11.760503 -1.413889 -18.214493 0
M  V30 53 H 13.698030 -2.021098 -19.620802 0
M  V30 54 H 14.555143 2.161844 -20.243834 0
M  V30 55 H 12.624547 2.771417 -18.839117 0
M  V30 56 H 11.734933 2.983130 -16.813694 0
M  V30 57 H 12.083549 1.619756 -15.778418 0
M  V30 58 H 7.686918 5.852026 -9.230862 0
M  V30 59 H 9.038026 4.986975 -8.481182 0
M  V30 60 H 8.354686 6.447115 -7.715518 0
M  V30 61 H 11.285988 9.948469 -7.755095 0
M  V30 62 H 11.950243 10.300631 -5.420757 0
M  V30 END ATOM
M  V30 BEGIN BOND
M  V30 1 1 2 1
M  V30 2 2 3 2
M  V30 3 1 4 2
M  V30 4 1 5 4
M  V30 5 2 6 5
M  V30 6 1 7 6
M  V30 7 1 8 7
M  V30 8 2 9 8
M  V30 9 1 10 9
M  V30 10 2 11 10
M  V30 11 1 12 11
M  V30 12 1 13 12
M  V30 13 1 14 13
M  V30 14 1 15 14
M  V30 15 1 16 15
M  V30 16 1 17 16
M  V30 17 1 18 17
M  V30 18 1 19 18
M  V30 19 1 20 19
M  V30 20 1 21 20
M  V30 21 1 22 21
M  V30 22 2 23 22
M  V30 23 1 24 23
M  V30 24 1 25 24
M  V30 25 1 26 25
M  V30 26 1 27 25
M  V30 27 1 28 25
M  V30 28 2 29 24
M  V30 29 2 30 21
M  V30 30 1 30 29
M  V30 31 1 31 16
M  V30 32 1 31 20
M  V30 33 1 32 8
M  V30 34 1 32 11
M  V30 35 1 33 32
M  V30 36 2 34 7
M  V30 37 2 35 4
M  V30 38 1 35 34
M  V30 39 1 36 1
M  V30 40 1 37 1
M  V30 41 1 38 1
M  V30 42 1 39 5
M  V30 43 1 40 6
M  V30 44 1 41 13
M  V30 45 1 42 13
M  V30 46 1 43 14
M  V30 47 1 44 14
M  V30 48 1 45 15
M  V30 49 1 46 15
M  V30 50 1 47 17
M  V30 51 1 48 17
M  V30 52 1 49 18
M  V30 53 1 50 18
M  V30 54 1 20 51 CFG=3
M  V30 55 1 52 22
M  V30 56 1 53 23
M  V30 57 1 54 29
M  V30 58 1 55 30
M  V30 59 1 56 31
M  V30 60 1 57 31
M  V30 61 1 58 33
M  V30 62 1 59 33
M  V30 63 1 60 33
M  V30 64 1 61 34
M  V30 65 1 62 35
M  V30 END BOND
M  V30 END CTAB
M  END
>  <b_m_subgroup_collapsed>  (1008) 
0

>  <r_i_docking_score>  (1008) 
-7.5894829284759204

>  <s_m_subgroup_title>  (1008) 
glide-dock_SP_D22_pv

>  <s_m_subgroupid>  (1008) 
glide-dock_SP_D22_pv

>  <Molecule ChEMBL ID>  (1008) 
CHEMBL3765267

>  <Standard Type>  (1008) 
Ki

>  <Standard Value>  (1008) 
19952.62

>  <label>  (1008) 
0

$$$$
CHEMBL336652
     RDKit          3D

  0  0  0  0  0  0  0  0  0  0999 V3000
M  V30 BEGIN CTAB
M  V30 COUNTS 35 36 0 0 1
M  V30 BEGIN ATOM
M  V30 1 C 9.420990 4.139393 -12.204683 0
M  V30 2 C 8.531818 4.854198 -11.175681 0
M  V30 3 C 9.354475 5.451299 -10.030238 0
M  V30 4 N 8.496954 6.181653 -9.069392 0 CHG=1
M  V30 5 C 9.195268 7.085446 -8.112427 0 CFG=2
M  V30 6 C 10.078655 8.143278 -8.790572 0
M  V30 7 C 10.532659 9.187874 -7.767503 0
M  V30 8 C 11.054811 8.617805 -6.465182 0
M  V30 9 C 11.762409 9.462207 -5.580895 0
M  V30 10 C 12.227914 8.972847 -4.345672 0
M  V30 11 C 11.995300 7.631009 -3.993279 0
M  V30 12 O 12.441324 7.143947 -2.797705 0
M  V30 13 C 11.286343 6.792548 -4.875072 0
M  V30 14 C 10.798315 7.273970 -6.107002 0
M  V30 15 C 9.999438 6.347215 -7.026159 0
M  V30 16 H 8.816454 3.624690 -12.953057 0
M  V30 17 H 10.057381 4.852147 -12.732680 0
M  V30 18 H 10.079651 3.402133 -11.738814 0
M  V30 19 H 7.783407 4.172400 -10.773156 0
M  V30 20 H 7.972770 5.644375 -11.679272 0
M  V30 21 H 10.091152 6.117004 -10.476586 0
M  V30 22 H 9.901974 4.666528 -9.507070 0
M  V30 23 H 7.931751 5.524628 -8.550747 0
M  V30 24 H 8.398557 7.623614 -7.599761 0
M  V30 25 H 10.968522 7.681804 -9.219459 0
M  V30 26 H 9.546646 8.633871 -9.607491 0
M  V30 27 H 9.661797 9.772438 -7.492062 0
M  V30 28 H 11.282512 9.842451 -8.208795 0
M  V30 29 H 11.946346 10.493686 -5.845850 0
M  V30 30 H 12.767049 9.622592 -3.670974 0
M  V30 31 H 12.159153 6.255174 -2.633809 0
M  V30 32 H 11.091746 5.772645 -4.592505 0
M  V30 33 H 10.705786 5.647950 -7.474937 0
M  V30 34 H 9.304585 5.775345 -6.420224 0
M  V30 35 H 7.848248 6.771357 -9.592798 0
M  V30 END ATOM
M  V30 BEGIN BOND
M  V30 1 1 2 1
M  V30 2 1 3 2
M  V30 3 1 4 3
M  V30 4 1 5 4
M  V30 5 1 6 5
M  V30 6 1 7 6
M  V30 7 1 8 7
M  V30 8 1 9 8
M  V30 9 2 10 9
M  V30 10 1 11 10
M  V30 11 1 12 11
M  V30 12 2 13 11
M  V30 13 2 14 8
M  V30 14 1 14 13
M  V30 15 1 15 5
M  V30 16 1 15 14
M  V30 17 1 16 1
M  V30 18 1 17 1
M  V30 19 1 18 1
M  V30 20 1 19 2
M  V30 21 1 20 2
M  V30 22 1 21 3
M  V30 23 1 22 3
M  V30 24 1 23 4
M  V30 25 1 5 24 CFG=1
M  V30 26 1 25 6
M  V30 27 1 26 6
M  V30 28 1 27 7
M  V30 29 1 28 7
M  V30 30 1 29 9
M  V30 31 1 30 10
M  V30 32 1 31 12
M  V30 33 1 32 13
M  V30 34 1 33 15
M  V30 35 1 34 15
M  V30 36 1 35 4
M  V30 END BOND
M  V30 END CTAB
M  END
>  <b_m_subgroup_collapsed>  (1009) 
0

>  <r_i_docking_score>  (1009) 
-7.58798359113585

>  <s_m_subgroup_title>  (1009) 
glide-dock_SP_D22_pv

>  <s_m_subgroupid>  (1009) 
glide-dock_SP_D22_pv

>  <Molecule ChEMBL ID>  (1009) 
CHEMBL336652

>  <Standard Type>  (1009) 
Ki

>  <Standard Value>  (1009) 
3.8

>  <label>  (1009) 
1

$$$$
CHEMBL5723023
     RDKit          3D

  0  0  0  0  0  0  0  0  0  0999 V3000
M  V30 BEGIN CTAB
M  V30 COUNTS 43 45 0 0 1
M  V30 BEGIN ATOM
M  V30 1 N 8.886067 6.753920 -7.937433 0
M  V30 2 C 10.215603 6.796275 -7.847656 0
M  V30 3 O 10.883630 5.772457 -7.845957 0
M  V30 4 C 10.897862 8.169398 -7.768098 0 CFG=2
M  V30 5 C 10.476035 8.956634 -6.499871 0
M  V30 6 C 11.137407 8.594893 -5.167717 0
M  V30 7 C 11.488815 9.641512 -4.288943 0
M  V30 8 C 12.085662 9.365680 -3.044386 0
M  V30 9 C 12.323715 8.035529 -2.654805 0
M  V30 10 C 11.963529 6.981171 -3.513038 0
M  V30 11 C 11.367290 7.258180 -4.760225 0
M  V30 12 N 10.625454 8.972281 -8.982019 0
M  V30 13 C 11.556619 8.728334 -10.089779 0
M  V30 14 C 11.098740 7.713564 -11.130096 0
M  V30 15 C 11.872168 7.372175 -12.183846 0
M  V30 16 C 11.409754 6.383793 -13.184464 0
M  V30 17 O 12.086208 6.103917 -14.173184 0
M  V30 18 C 10.083888 5.751496 -12.915650 0
M  V30 19 C 9.571315 4.743876 -13.761597 0
M  V30 20 C 8.320717 4.157468 -13.484495 0
M  V30 21 F 7.834105 3.188929 -14.294250 0
M  V30 22 C 7.576436 4.572392 -12.363447 0
M  V30 23 C 8.086373 5.568173 -11.512115 0
M  V30 24 C 9.330877 6.165261 -11.790415 0
M  V30 25 N 9.839428 7.164443 -10.957831 0
M  V30 26 H 8.421543 5.862011 -8.002995 0
M  V30 27 H 8.321341 7.593871 -7.953591 0
M  V30 28 H 11.974985 8.014140 -7.682523 0
M  V30 29 H 9.395474 8.911502 -6.358409 0
M  V30 30 H 10.690841 10.012147 -6.673689 0
M  V30 31 H 11.286008 10.666862 -4.562413 0
M  V30 32 H 12.347939 10.172609 -2.378506 0
M  V30 33 H 12.770879 7.826598 -1.694174 0
M  V30 34 H 12.131392 5.957926 -3.213193 0
M  V30 35 H 11.087938 6.419981 -5.377073 0
M  V30 36 H 10.658942 9.957545 -8.772437 0
M  V30 37 H 11.685933 9.670651 -10.623314 0
M  V30 38 H 12.553434 8.467518 -9.731242 0
M  V30 39 H 12.850513 7.811103 -12.320604 0
M  V30 40 H 10.132745 4.413088 -14.622545 0
M  V30 41 H 6.620186 4.119763 -12.147863 0
M  V30 42 H 7.515316 5.869900 -10.647079 0
M  V30 43 H 9.298613 7.451072 -10.149971 0
M  V30 END ATOM
M  V30 BEGIN BOND
M  V30 1 1 2 1
M  V30 2 2 3 2
M  V30 3 1 4 2
M  V30 4 1 5 4
M  V30 5 1 6 5
M  V30 6 2 7 6
M  V30 7 1 8 7
M  V30 8 2 9 8
M  V30 9 1 10 9
M  V30 10 1 11 6
M  V30 11 2 11 10
M  V30 12 1 12 4
M  V30 13 1 13 12
M  V30 14 1 14 13
M  V30 15 2 15 14
M  V30 16 1 16 15
M  V30 17 2 17 16
M  V30 18 1 18 16
M  V30 19 2 19 18
M  V30 20 1 20 19
M  V30 21 1 21 20
M  V30 22 2 22 20
M  V30 23 1 23 22
M  V30 24 1 24 18
M  V30 25 2 24 23
M  V30 26 1 25 14
M  V30 27 1 25 24
M  V30 28 1 26 1
M  V30 29 1 27 1
M  V30 30 1 4 28 CFG=1
M  V30 31 1 29 5
M  V30 32 1 30 5
M  V30 33 1 31 7
M  V30 34 1 32 8
M  V30 35 1 33 9
M  V30 36 1 34 10
M  V30 37 1 35 11
M  V30 38 1 36 12
M  V30 39 1 37 13
M  V30 40 1 38 13
M  V30 41 1 39 15
M  V30 42 1 40 19
M  V30 43 1 41 22
M  V30 44 1 42 23
M  V30 45 1 43 25
M  V30 END BOND
M  V30 END CTAB
M  END
>  <b_m_subgroup_collapsed>  (1010) 
0

>  <r_i_docking_score>  (1010) 
-7.5879446198204299

>  <s_m_subgroup_title>  (1010) 
glide-dock_SP_D22_pv

>  <s_m_subgroupid>  (1010) 
glide-dock_SP_D22_pv

>  <Molecule ChEMBL ID>  (1010) 
CHEMBL5723023

>  <Standard Type>  (1010) 
Ki

>  <Standard Value>  (1010) 
10000.0

>  <label>  (1010) 
0

$$$$
CHEMBL4451063
     RDKit          3D

  0  0  0  0  0  0  0  0  0  0999 V3000
M  V30 BEGIN CTAB
M  V30 COUNTS 61 65 0 0 1
M  V30 BEGIN ATOM
M  V30 1 C 11.152707 4.462009 -16.266184 0
M  V30 2 C 9.833200 3.776250 -15.875850 0 CFG=1
M  V30 3 C 9.363539 2.830972 -17.006666 0
M  V30 4 O 8.137471 2.195520 -16.655153 0
M  V30 5 C 8.241777 1.376083 -15.495044 0 CFG=2
M  V30 6 C 6.915815 0.669451 -15.222005 0
M  V30 7 C 6.395118 -0.227603 -16.177607 0
M  V30 8 C 5.148332 -0.831969 -15.937550 0
M  V30 9 C 4.468885 -0.511391 -14.749763 0
M  V30 10 N 3.212327 -1.027411 -14.500172 0
M  V30 11 N 4.956438 0.317710 -13.813510 0
M  V30 12 C 6.154608 0.886342 -14.045075 0
M  V30 13 C 8.697446 2.263581 -14.324123 0
M  V30 14 N 9.947556 2.998916 -14.611393 0 CFG=2 CHG=1
M  V30 15 C 10.422574 3.742188 -13.411673 0
M  V30 16 C 9.552976 4.919887 -12.973291 0 CFG=1
M  V30 17 C 8.262525 4.762198 -12.197991 0
M  V30 18 C 9.496829 5.246928 -11.485124 0 CFG=2
M  V30 19 C 9.555954 6.667548 -10.976448 0
M  V30 20 N 9.900939 6.775631 -9.564780 0
M  V30 21 C 10.275629 7.921606 -8.988850 0
M  V30 22 O 10.337168 8.983793 -9.606783 0
M  V30 23 C 10.614887 7.865721 -7.555275 0
M  V30 24 C 10.907954 6.842897 -6.684792 0
M  V30 25 C 11.274016 7.452482 -5.432949 0
M  V30 26 C 11.713826 6.972558 -4.176395 0
M  V30 27 C 12.056052 7.861315 -3.131065 0
M  V30 28 C 11.903142 9.251896 -3.302437 0
M  V30 29 C 11.425455 9.754251 -4.527866 0
M  V30 30 C 11.149863 8.863542 -5.576986 0
M  V30 31 N 10.743444 9.065516 -6.877280 0
M  V30 32 H 11.054737 4.973327 -17.222895 0
M  V30 33 H 11.450324 5.220067 -15.543513 0
M  V30 34 H 11.966696 3.744186 -16.358120 0
M  V30 35 H 9.074116 4.550373 -15.742116 0
M  V30 36 H 10.118792 2.074881 -17.228525 0
M  V30 37 H 9.203088 3.395261 -17.927160 0
M  V30 38 H 8.990027 0.599065 -15.670225 0
M  V30 39 H 6.940120 -0.441841 -17.086983 0
M  V30 40 H 4.720752 -1.515511 -16.656960 0
M  V30 41 H 2.752691 -1.580447 -15.210058 0
M  V30 42 H 2.599664 -0.560483 -13.842995 0
M  V30 43 H 6.479187 1.550461 -13.260806 0
M  V30 44 H 7.915740 2.990116 -14.101508 0
M  V30 45 H 8.861880 1.639600 -13.447093 0
M  V30 46 H 10.479701 3.028388 -12.592536 0
M  V30 47 H 11.442302 4.095620 -13.565729 0
M  V30 48 H 9.585012 5.770512 -13.652271 0
M  V30 49 H 7.469609 5.485065 -12.394444 0
M  V30 50 H 7.914591 3.772272 -11.923117 0
M  V30 51 H 9.979018 4.525832 -10.825607 0
M  V30 52 H 10.292400 7.207940 -11.574005 0
M  V30 53 H 8.594506 7.157938 -11.141978 0
M  V30 54 H 9.821005 5.951032 -8.988334 0
M  V30 55 H 10.908449 5.781657 -6.897043 0
M  V30 56 H 11.814863 5.908546 -4.024268 0
M  V30 57 H 12.408583 7.471736 -2.188275 0
M  V30 58 H 12.141271 9.929674 -2.493791 0
M  V30 59 H 11.286040 10.815360 -4.669435 0
M  V30 60 H 10.586591 9.950514 -7.336827 0
M  V30 61 H 10.646267 2.288637 -14.781273 0
M  V30 END ATOM
M  V30 BEGIN BOND
M  V30 1 1 2 1
M  V30 2 1 3 2
M  V30 3 1 4 3
M  V30 4 1 5 4
M  V30 5 1 6 5
M  V30 6 1 7 6
M  V30 7 2 8 7
M  V30 8 1 9 8
M  V30 9 1 10 9
M  V30 10 2 11 9
M  V30 11 2 12 6
M  V30 12 1 12 11
M  V30 13 1 13 5
M  V30 14 1 14 2
M  V30 15 1 14 13
M  V30 16 1 15 14
M  V30 17 1 16 15
M  V30 18 1 17 16
M  V30 19 1 18 16
M  V30 20 1 18 17
M  V30 21 1 19 18
M  V30 22 1 20 19
M  V30 23 1 21 20
M  V30 24 2 22 21
M  V30 25 1 23 21
M  V30 26 2 24 23
M  V30 27 1 25 24
M  V30 28 2 26 25
M  V30 29 1 27 26
M  V30 30 2 28 27
M  V30 31 1 29 28
M  V30 32 1 30 25
M  V30 33 2 30 29
M  V30 34 1 31 23
M  V30 35 1 31 30
M  V30 36 1 32 1
M  V30 37 1 33 1
M  V30 38 1 34 1
M  V30 39 1 2 35 CFG=1
M  V30 40 1 36 3
M  V30 41 1 37 3
M  V30 42 1 5 38 CFG=3
M  V30 43 1 39 7
M  V30 44 1 40 8
M  V30 45 1 41 10
M  V30 46 1 42 10
M  V30 47 1 43 12
M  V30 48 1 44 13
M  V30 49 1 45 13
M  V30 50 1 46 15
M  V30 51 1 47 15
M  V30 52 1 16 48 CFG=3
M  V30 53 1 49 17
M  V30 54 1 50 17
M  V30 55 1 18 51 CFG=1
M  V30 56 1 52 19
M  V30 57 1 53 19
M  V30 58 1 54 20
M  V30 59 1 55 24
M  V30 60 1 56 26
M  V30 61 1 57 27
M  V30 62 1 58 28
M  V30 63 1 59 29
M  V30 64 1 60 31
M  V30 65 1 14 61 CFG=3
M  V30 END BOND
M  V30 END CTAB
M  END
>  <b_m_subgroup_collapsed>  (1011) 
0

>  <r_i_docking_score>  (1011) 
-7.5861793292172504

>  <s_m_subgroup_title>  (1011) 
glide-dock_SP_D22_pv

>  <s_m_subgroupid>  (1011) 
glide-dock_SP_D22_pv

>  <Molecule ChEMBL ID>  (1011) 
CHEMBL4451063

>  <Standard Type>  (1011) 
Ki

>  <Standard Value>  (1011) 
14100.0

>  <label>  (1011) 
0

$$$$
CHEMBL3322999
     RDKit          3D

  0  0  0  0  0  0  0  0  0  0999 V3000
M  V30 BEGIN CTAB
M  V30 COUNTS 64 68 0 0 1
M  V30 BEGIN ATOM
M  V30 1 O 9.286782 8.972361 -8.075871 0
M  V30 2 C 10.366495 8.461318 -7.787426 0
M  V30 3 N 11.224410 7.965980 -8.689236 0
M  V30 4 C 11.045183 8.047851 -10.132904 0
M  V30 5 C 10.080437 6.970798 -10.655577 0
M  V30 6 C 9.808542 7.125562 -12.157329 0
M  V30 7 C 8.942294 5.990308 -12.731018 0
M  V30 8 N 9.755056 4.925543 -13.383211 0 CHG=1
M  V30 9 C 10.078545 5.239710 -14.804703 0
M  V30 10 C 10.868892 4.116408 -15.496477 0
M  V30 11 N 10.163324 2.854580 -15.325481 0
M  V30 12 C 10.240150 1.865125 -16.326836 0
M  V30 13 C 11.442716 1.680564 -17.046270 0
M  V30 14 C 11.493268 0.722006 -18.079664 0
M  V30 15 C 12.736670 0.525374 -18.943342 0
M  V30 16 F 13.226144 -0.702889 -18.767319 0
M  V30 17 F 12.416316 0.676808 -20.230125 0
M  V30 18 F 13.684749 1.415619 -18.654312 0
M  V30 19 N 10.439557 -0.059327 -18.391922 0
M  V30 20 C 9.271813 0.114607 -17.740658 0
M  V30 21 C 8.161155 -0.661821 -18.128529 0
M  V30 22 C 6.908641 -0.504861 -17.510731 0
M  V30 23 C 6.749759 0.448549 -16.493929 0
M  V30 24 C 7.843570 1.238694 -16.095181 0
M  V30 25 C 9.116457 1.073760 -16.697495 0
M  V30 26 C 9.923894 2.470824 -13.940269 0
M  V30 27 C 9.138696 3.583722 -13.214653 0
M  V30 28 C 10.868923 8.378889 -6.395597 0
M  V30 29 C 11.269437 7.231124 -5.767532 0
M  V30 30 N 11.652742 7.597533 -4.492929 0
M  V30 31 C 12.085961 6.846913 -3.445225 0
M  V30 32 C 12.442901 7.465594 -2.274185 0
M  V30 33 C 12.324917 8.867466 -2.142615 0
M  V30 34 C 11.833003 9.622880 -3.180442 0
M  V30 35 C 11.490490 9.003067 -4.409773 0
M  V30 36 N 10.998472 9.478534 -5.550869 0
M  V30 37 H 12.095721 7.594643 -8.341393 0
M  V30 38 H 12.021173 7.941842 -10.608889 0
M  V30 39 H 10.680042 9.041145 -10.400127 0
M  V30 40 H 9.131952 7.033069 -10.118987 0
M  V30 41 H 10.482059 5.981243 -10.439908 0
M  V30 42 H 10.744555 7.223465 -12.705347 0
M  V30 43 H 9.278811 8.069056 -12.294752 0
M  V30 44 H 8.223172 6.390457 -13.448087 0
M  V30 45 H 8.331496 5.573754 -11.925549 0
M  V30 46 H 10.639385 6.172063 -14.871070 0
M  V30 47 H 9.146427 5.378244 -15.353529 0
M  V30 48 H 11.870570 4.033644 -15.070711 0
M  V30 49 H 10.986671 4.347493 -16.556732 0
M  V30 50 H 12.318851 2.269950 -16.820618 0
M  V30 51 H 8.276276 -1.392804 -18.914938 0
M  V30 52 H 6.071239 -1.117173 -17.815359 0
M  V30 53 H 5.786242 0.572807 -16.020102 0
M  V30 54 H 7.678855 1.975738 -15.325527 0
M  V30 55 H 9.391770 1.520933 -13.872695 0
M  V30 56 H 10.885935 2.312440 -13.451104 0
M  V30 57 H 9.082705 3.371950 -12.148553 0
M  V30 58 H 8.114213 3.611344 -13.592293 0
M  V30 59 H 11.295126 6.195971 -6.076622 0
M  V30 60 H 12.140389 5.772372 -3.591649 0
M  V30 61 H 12.812578 6.865647 -1.451378 0
M  V30 62 H 12.595350 9.354402 -1.211069 0
M  V30 63 H 11.690572 10.691030 -3.059792 0
M  V30 64 H 10.635460 4.879679 -12.891128 0
M  V30 END ATOM
M  V30 BEGIN BOND
M  V30 1 2 2 1
M  V30 2 1 3 2
M  V30 3 1 4 3
M  V30 4 1 5 4
M  V30 5 1 6 5
M  V30 6 1 7 6
M  V30 7 1 8 7
M  V30 8 1 9 8
M  V30 9 1 10 9
M  V30 10 1 11 10
M  V30 11 1 12 11
M  V30 12 2 13 12
M  V30 13 1 14 13
M  V30 14 1 15 14
M  V30 15 1 16 15
M  V30 16 1 17 15
M  V30 17 1 18 15
M  V30 18 2 19 14
M  V30 19 1 20 19
M  V30 20 2 21 20
M  V30 21 1 22 21
M  V30 22 2 23 22
M  V30 23 1 24 23
M  V30 24 1 25 12
M  V30 25 1 25 20
M  V30 26 2 25 24
M  V30 27 1 26 11
M  V30 28 1 27 8
M  V30 29 1 27 26
M  V30 30 1 28 2
M  V30 31 2 29 28
M  V30 32 1 30 29
M  V30 33 1 31 30
M  V30 34 2 32 31
M  V30 35 1 33 32
M  V30 36 2 34 33
M  V30 37 1 35 30
M  V30 38 1 35 34
M  V30 39 1 36 28
M  V30 40 2 36 35
M  V30 41 1 37 3
M  V30 42 1 38 4
M  V30 43 1 39 4
M  V30 44 1 40 5
M  V30 45 1 41 5
M  V30 46 1 42 6
M  V30 47 1 43 6
M  V30 48 1 44 7
M  V30 49 1 45 7
M  V30 50 1 46 9
M  V30 51 1 47 9
M  V30 52 1 48 10
M  V30 53 1 49 10
M  V30 54 1 50 13
M  V30 55 1 51 21
M  V30 56 1 52 22
M  V30 57 1 53 23
M  V30 58 1 54 24
M  V30 59 1 55 26
M  V30 60 1 56 26
M  V30 61 1 57 27
M  V30 62 1 58 27
M  V30 63 1 59 29
M  V30 64 1 60 31
M  V30 65 1 61 32
M  V30 66 1 62 33
M  V30 67 1 63 34
M  V30 68 1 64 8
M  V30 END BOND
M  V30 END CTAB
M  END
>  <b_m_subgroup_collapsed>  (1012) 
0

>  <r_i_docking_score>  (1012) 
-7.5835751901839803

>  <s_m_subgroup_title>  (1012) 
glide-dock_SP_D22_pv

>  <s_m_subgroupid>  (1012) 
glide-dock_SP_D22_pv

>  <Molecule ChEMBL ID>  (1012) 
CHEMBL3322999

>  <Standard Type>  (1012) 
Ki

>  <Standard Value>  (1012) 
13567.0

>  <label>  (1012) 
0

$$$$
CHEMBL4169834
     RDKit          3D

  0  0  0  0  0  0  0  0  0  0999 V3000
M  V30 BEGIN CTAB
M  V30 COUNTS 47 49 0 0 1
M  V30 BEGIN ATOM
M  V30 1 C 5.855210 3.991655 -13.720864 0
M  V30 2 N 6.970622 4.181378 -12.771740 0 CHG=1
M  V30 3 C 6.757930 5.327114 -11.860971 0
M  V30 4 C 7.815872 5.299199 -10.748765 0
M  V30 5 N 9.160737 5.260331 -11.306018 0
M  V30 6 C 10.084067 6.300087 -11.043774 0
M  V30 7 C 10.855877 6.788815 -12.127471 0
M  V30 8 C 11.909192 7.688483 -11.918015 0
M  V30 9 C 12.127348 8.222471 -10.646790 0
M  V30 10 C 11.340752 7.804825 -9.570716 0
M  V30 11 C 10.342587 6.812739 -9.730345 0
M  V30 12 C 9.625544 6.291236 -8.475824 0
M  V30 13 N 10.301625 6.581114 -7.212667 0
M  V30 14 C 10.107654 7.697767 -6.488997 0
M  V30 15 O 9.294943 8.568227 -6.799945 0
M  V30 16 C 11.006413 7.857174 -5.291664 0
M  V30 17 C 11.286129 6.732936 -4.482539 0
M  V30 18 C 12.017145 6.850096 -3.287259 0
M  V30 19 C 12.485957 8.108219 -2.884542 0
M  V30 20 C 12.250010 9.228923 -3.695969 0
M  V30 21 C 11.518363 9.121783 -4.896939 0
M  V30 22 Cl 11.290071 10.552528 -5.846660 0
M  V30 23 C 9.418370 4.249983 -12.335264 0
M  V30 24 C 8.310511 4.243552 -13.408060 0
M  V30 25 H 5.626482 4.914581 -14.246993 0
M  V30 26 H 6.085899 3.216779 -14.451989 0
M  V30 27 H 4.952232 3.687504 -13.187799 0
M  V30 28 H 5.751120 5.291747 -11.445992 0
M  V30 29 H 6.825278 6.264503 -12.415939 0
M  V30 30 H 7.686116 4.424623 -10.111084 0
M  V30 31 H 7.684253 6.172448 -10.128413 0
M  V30 32 H 10.688366 6.441396 -13.135271 0
M  V30 33 H 12.518257 8.010504 -12.750542 0
M  V30 34 H 12.886880 8.970001 -10.500072 0
M  V30 35 H 11.558924 8.250499 -8.614550 0
M  V30 36 H 9.519449 5.209581 -8.544935 0
M  V30 37 H 8.621470 6.710189 -8.421455 0
M  V30 38 H 10.987832 5.916387 -6.889843 0
M  V30 39 H 10.888156 5.772226 -4.747294 0
M  V30 40 H 12.194499 5.979488 -2.671452 0
M  V30 41 H 13.036232 8.217888 -1.962578 0
M  V30 42 H 12.649415 10.173336 -3.378565 0
M  V30 43 H 10.398004 4.360098 -12.799043 0
M  V30 44 H 9.453212 3.277949 -11.846807 0
M  V30 45 H 8.450505 3.390403 -14.072533 0
M  V30 46 H 8.378346 5.140246 -14.026162 0
M  V30 47 H 6.983700 3.361327 -12.182357 0
M  V30 END ATOM
M  V30 BEGIN BOND
M  V30 1 1 2 1
M  V30 2 1 3 2
M  V30 3 1 4 3
M  V30 4 1 5 4
M  V30 5 1 6 5
M  V30 6 2 7 6
M  V30 7 1 8 7
M  V30 8 2 9 8
M  V30 9 1 10 9
M  V30 10 1 11 6
M  V30 11 2 11 10
M  V30 12 1 12 11
M  V30 13 1 13 12
M  V30 14 1 14 13
M  V30 15 2 15 14
M  V30 16 1 16 14
M  V30 17 2 17 16
M  V30 18 1 18 17
M  V30 19 2 19 18
M  V30 20 1 20 19
M  V30 21 1 21 16
M  V30 22 2 21 20
M  V30 23 1 22 21
M  V30 24 1 23 5
M  V30 25 1 24 2
M  V30 26 1 24 23
M  V30 27 1 25 1
M  V30 28 1 26 1
M  V30 29 1 27 1
M  V30 30 1 28 3
M  V30 31 1 29 3
M  V30 32 1 30 4
M  V30 33 1 31 4
M  V30 34 1 32 7
M  V30 35 1 33 8
M  V30 36 1 34 9
M  V30 37 1 35 10
M  V30 38 1 36 12
M  V30 39 1 37 12
M  V30 40 1 38 13
M  V30 41 1 39 17
M  V30 42 1 40 18
M  V30 43 1 41 19
M  V30 44 1 42 20
M  V30 45 1 43 23
M  V30 46 1 44 23
M  V30 47 1 45 24
M  V30 48 1 46 24
M  V30 49 1 47 2
M  V30 END BOND
M  V30 END CTAB
M  END
>  <b_m_subgroup_collapsed>  (1013) 
0

>  <r_i_docking_score>  (1013) 
-7.5819444436936099

>  <s_m_subgroup_title>  (1013) 
glide-dock_SP_D22_pv

>  <s_m_subgroupid>  (1013) 
glide-dock_SP_D22_pv

>  <Molecule ChEMBL ID>  (1013) 
CHEMBL4169834

>  <Standard Type>  (1013) 
Ki

>  <Standard Value>  (1013) 
10000.0

>  <label>  (1013) 
0

$$$$
CHEMBL1632158
     RDKit          3D

  0  0  0  0  0  0  0  0  0  0999 V3000
M  V30 BEGIN CTAB
M  V30 COUNTS 68 71 0 0 1
M  V30 BEGIN ATOM
M  V30 1 C 12.885164 8.735765 -1.527478 0
M  V30 2 O 12.485954 7.737290 -2.445327 0
M  V30 3 C 11.920177 8.095954 -3.600440 0
M  V30 4 O 11.691756 9.253393 -3.946604 0
M  V30 5 C 11.586358 6.871417 -4.461600 0
M  V30 6 C 10.457715 6.974761 -5.505471 0
M  V30 7 C 10.433433 8.189035 -6.451785 0
M  V30 8 C 9.347388 8.075579 -7.535873 0
M  V30 9 C 9.494695 6.781907 -8.363042 0
M  V30 10 N 8.886039 6.842347 -9.710492 0 CFG=2 CHG=1
M  V30 11 C 8.677842 5.479248 -10.263961 0
M  V30 12 C 7.971097 5.533017 -11.627937 0
M  V30 13 C 8.734863 6.415527 -12.636744 0 CFG=2
M  V30 14 C 10.039963 5.757997 -13.141838 0
M  V30 15 N 9.757740 4.587067 -13.958402 0
M  V30 16 C 10.689974 3.729181 -14.392338 0
M  V30 17 O 11.888550 3.880619 -14.164154 0
M  V30 18 C 10.177261 2.616843 -15.240619 0
M  V30 19 C 10.841395 1.974124 -16.251587 0
M  V30 20 N 10.023813 0.961693 -16.756741 0
M  V30 21 C 8.809719 0.967850 -16.083746 0
M  V30 22 C 7.657529 0.172347 -16.237003 0
M  V30 23 C 6.560498 0.355066 -15.377175 0
M  V30 24 C 6.613985 1.342631 -14.378959 0
M  V30 25 C 7.759399 2.152275 -14.247489 0
M  V30 26 C 8.886744 1.993075 -15.093983 0
M  V30 27 C 10.392873 0.059306 -17.834034 0
M  V30 28 C 11.875949 0.209339 -18.194447 0
M  V30 29 C 12.303782 1.677773 -18.085251 0
M  V30 30 O 12.086440 2.160494 -16.763248 0
M  V30 31 C 8.975595 7.799622 -12.003093 0
M  V30 32 C 9.665833 7.696715 -10.640615 0
M  V30 33 H 13.309137 8.260429 -0.647139 0
M  V30 34 H 13.653129 9.371897 -1.966229 0
M  V30 35 H 12.043012 9.357525 -1.217519 0
M  V30 36 H 11.359308 6.042486 -3.791563 0
M  V30 37 H 12.486248 6.575183 -4.985726 0
M  V30 38 H 9.485005 6.853987 -5.046844 0
M  V30 39 H 10.574044 6.079777 -6.108470 0
M  V30 40 H 11.409531 8.309116 -6.922975 0
M  V30 41 H 10.243073 9.105874 -5.894790 0
M  V30 42 H 9.404499 8.967468 -8.156483 0
M  V30 43 H 8.356161 8.101745 -7.078200 0
M  V30 44 H 9.031296 5.970883 -7.797380 0
M  V30 45 H 10.548941 6.516642 -8.475095 0
M  V30 46 H 8.084002 4.885566 -9.569627 0
M  V30 47 H 9.636153 4.964306 -10.349428 0
M  V30 48 H 6.963744 5.929054 -11.490220 0
M  V30 49 H 7.837077 4.523348 -12.008156 0
M  V30 50 H 8.086071 6.564552 -13.500211 0
M  V30 51 H 10.668660 5.468779 -12.303063 0
M  V30 52 H 10.640910 6.454923 -13.727755 0
M  V30 53 H 8.799834 4.425435 -14.231769 0
M  V30 54 H 7.624952 -0.601481 -16.988678 0
M  V30 55 H 5.683163 -0.270643 -15.479746 0
M  V30 56 H 5.776876 1.478859 -13.710973 0
M  V30 57 H 7.773637 2.888841 -13.459213 0
M  V30 58 H 10.165618 -0.966867 -17.541727 0
M  V30 59 H 9.771137 0.302375 -18.696157 0
M  V30 60 H 12.482332 -0.380187 -17.508848 0
M  V30 61 H 12.066502 -0.180534 -19.195608 0
M  V30 62 H 13.361549 1.779645 -18.323671 0
M  V30 63 H 11.753966 2.294721 -18.797525 0
M  V30 64 H 9.579242 8.434618 -12.646515 0
M  V30 65 H 8.021609 8.316148 -11.882603 0
M  V30 66 H 9.777145 8.704817 -10.245429 0
M  V30 67 H 10.675335 7.299782 -10.753639 0
M  V30 68 H 7.950626 7.253018 -9.643469 0
M  V30 END ATOM
M  V30 BEGIN BOND
M  V30 1 1 2 1
M  V30 2 1 3 2
M  V30 3 2 4 3
M  V30 4 1 5 3
M  V30 5 1 6 5
M  V30 6 1 7 6
M  V30 7 1 8 7
M  V30 8 1 9 8
M  V30 9 1 10 9
M  V30 10 1 11 10
M  V30 11 1 12 11
M  V30 12 1 13 12
M  V30 13 1 14 13
M  V30 14 1 15 14
M  V30 15 1 16 15
M  V30 16 2 17 16
M  V30 17 1 18 16
M  V30 18 2 19 18
M  V30 19 1 20 19
M  V30 20 1 21 20
M  V30 21 2 22 21
M  V30 22 1 23 22
M  V30 23 2 24 23
M  V30 24 1 25 24
M  V30 25 1 26 18
M  V30 26 1 26 21
M  V30 27 2 26 25
M  V30 28 1 27 20
M  V30 29 1 28 27
M  V30 30 1 29 28
M  V30 31 1 30 19
M  V30 32 1 30 29
M  V30 33 1 31 13
M  V30 34 1 32 10
M  V30 35 1 32 31
M  V30 36 1 33 1
M  V30 37 1 34 1
M  V30 38 1 35 1
M  V30 39 1 36 5
M  V30 40 1 37 5
M  V30 41 1 38 6
M  V30 42 1 39 6
M  V30 43 1 40 7
M  V30 44 1 41 7
M  V30 45 1 42 8
M  V30 46 1 43 8
M  V30 47 1 44 9
M  V30 48 1 45 9
M  V30 49 1 46 11
M  V30 50 1 47 11
M  V30 51 1 48 12
M  V30 52 1 49 12
M  V30 53 1 13 50 CFG=3
M  V30 54 1 51 14
M  V30 55 1 52 14
M  V30 56 1 53 15
M  V30 57 1 54 22
M  V30 58 1 55 23
M  V30 59 1 56 24
M  V30 60 1 57 25
M  V30 61 1 58 27
M  V30 62 1 59 27
M  V30 63 1 60 28
M  V30 64 1 61 28
M  V30 65 1 62 29
M  V30 66 1 63 29
M  V30 67 1 64 31
M  V30 68 1 65 31
M  V30 69 1 66 32
M  V30 70 1 67 32
M  V30 71 1 10 68 CFG=1
M  V30 END BOND
M  V30 END CTAB
M  END
>  <b_m_subgroup_collapsed>  (1014) 
0

>  <r_i_docking_score>  (1014) 
-7.5813587980140298

>  <s_m_subgroup_title>  (1014) 
glide-dock_SP_D22_pv

>  <s_m_subgroupid>  (1014) 
glide-dock_SP_D22_pv

>  <Molecule ChEMBL ID>  (1014) 
CHEMBL1632158

>  <Standard Type>  (1014) 
Ki

>  <Standard Value>  (1014) 
10000.0

>  <label>  (1014) 
0

$$$$
CHEMBL104273
     RDKit          3D

  0  0  0  0  0  0  0  0  0  0999 V3000
M  V30 BEGIN CTAB
M  V30 COUNTS 58 61 0 0 1
M  V30 BEGIN ATOM
M  V30 1 C 12.869487 9.591094 -3.632013 0
M  V30 2 C 11.969019 8.926413 -4.648566 0
M  V30 3 C 11.685958 7.550576 -4.552094 0
M  V30 4 C 10.774096 6.960030 -5.446999 0
M  V30 5 C 10.118982 7.734146 -6.426091 0
M  V30 6 C 9.008606 7.139485 -7.274667 0
M  V30 7 N 9.492664 6.627553 -8.579839 0 CFG=2 CHG=1
M  V30 8 C 9.790014 7.708826 -9.558890 0
M  V30 9 C 10.338819 7.142457 -10.877460 0
M  V30 10 C 9.395888 6.091256 -11.489134 0 CFG=1
M  V30 11 C 9.969037 5.516852 -12.804768 0
M  V30 12 C 8.999383 4.601446 -13.573399 0
M  V30 13 O 7.793772 4.815103 -13.447266 0
M  V30 14 N 9.498743 3.618028 -14.369307 0
M  V30 15 C 8.752917 2.508786 -14.854610 0
M  V30 16 C 7.393529 2.169954 -14.653670 0
M  V30 17 C 6.892593 0.993195 -15.250477 0
M  V30 18 C 7.733186 0.172257 -16.033674 0
M  V30 19 C 9.093308 0.502674 -16.210028 0
M  V30 20 C 9.575447 1.675149 -15.604483 0
M  V30 21 C 10.976275 2.201421 -15.665197 0
M  V30 22 C 10.909612 3.499462 -14.820722 0 CFG=1
M  V30 23 C 11.392140 4.703149 -15.657291 0
M  V30 24 C 9.101810 5.006846 -10.434917 0
M  V30 25 C 8.547719 5.641964 -9.154295 0
M  V30 26 C 10.458946 9.091077 -6.560635 0
M  V30 27 C 11.384408 9.680407 -5.686596 0
M  V30 28 F 11.686352 10.982621 -5.846907 0
M  V30 29 H 13.285090 8.867248 -2.930810 0
M  V30 30 H 13.684463 10.117121 -4.131831 0
M  V30 31 H 12.293710 10.309278 -3.047566 0
M  V30 32 H 12.137073 6.949774 -3.775216 0
M  V30 33 H 10.540952 5.914069 -5.329896 0
M  V30 34 H 8.221251 7.880377 -7.423913 0
M  V30 35 H 8.550580 6.332417 -6.700256 0
M  V30 36 H 10.528854 8.397710 -9.153090 0
M  V30 37 H 8.886148 8.289229 -9.751802 0
M  V30 38 H 11.317110 6.705618 -10.693671 0
M  V30 39 H 10.495157 7.959178 -11.583571 0
M  V30 40 H 8.457594 6.602034 -11.717778 0
M  V30 41 H 10.889359 4.981079 -12.596710 0
M  V30 42 H 10.237007 6.349782 -13.446813 0
M  V30 43 H 6.725420 2.774786 -14.060789 0
M  V30 44 H 5.858471 0.716511 -15.108086 0
M  V30 45 H 7.331654 -0.720772 -16.489391 0
M  V30 46 H 9.743396 -0.128856 -16.796589 0
M  V30 47 H 11.683925 1.481416 -15.253945 0
M  V30 48 H 11.247917 2.388667 -16.704449 0
M  V30 49 H 11.556240 3.366890 -13.952431 0
M  V30 50 H 12.374202 4.501569 -16.087030 0
M  V30 51 H 10.708737 4.910411 -16.482027 0
M  V30 52 H 11.495873 5.613905 -15.072603 0
M  V30 53 H 8.368098 4.296098 -10.816645 0
M  V30 54 H 10.002172 4.433856 -10.210540 0
M  V30 55 H 8.310755 4.861480 -8.429624 0
M  V30 56 H 7.627658 6.170667 -9.385037 0
M  V30 57 H 9.980968 9.702573 -7.310755 0
M  V30 58 H 10.352895 6.132115 -8.397382 0
M  V30 END ATOM
M  V30 BEGIN BOND
M  V30 1 1 2 1
M  V30 2 1 3 2
M  V30 3 2 4 3
M  V30 4 1 5 4
M  V30 5 1 6 5
M  V30 6 1 7 6
M  V30 7 1 8 7
M  V30 8 1 9 8
M  V30 9 1 10 9
M  V30 10 1 11 10
M  V30 11 1 12 11
M  V30 12 2 13 12
M  V30 13 1 14 12
M  V30 14 1 15 14
M  V30 15 2 16 15
M  V30 16 1 17 16
M  V30 17 2 18 17
M  V30 18 1 19 18
M  V30 19 1 20 15
M  V30 20 2 20 19
M  V30 21 1 21 20
M  V30 22 1 22 14
M  V30 23 1 22 21
M  V30 24 1 23 22
M  V30 25 1 24 10
M  V30 26 1 25 7
M  V30 27 1 25 24
M  V30 28 2 26 5
M  V30 29 2 27 2
M  V30 30 1 27 26
M  V30 31 1 28 27
M  V30 32 1 29 1
M  V30 33 1 30 1
M  V30 34 1 31 1
M  V30 35 1 32 3
M  V30 36 1 33 4
M  V30 37 1 34 6
M  V30 38 1 35 6
M  V30 39 1 36 8
M  V30 40 1 37 8
M  V30 41 1 38 9
M  V30 42 1 39 9
M  V30 43 1 10 40 CFG=3
M  V30 44 1 41 11
M  V30 45 1 42 11
M  V30 46 1 43 16
M  V30 47 1 44 17
M  V30 48 1 45 18
M  V30 49 1 46 19
M  V30 50 1 47 21
M  V30 51 1 48 21
M  V30 52 1 22 49 CFG=1
M  V30 53 1 50 23
M  V30 54 1 51 23
M  V30 55 1 52 23
M  V30 56 1 53 24
M  V30 57 1 54 24
M  V30 58 1 55 25
M  V30 59 1 56 25
M  V30 60 1 57 26
M  V30 61 1 7 58 CFG=1
M  V30 END BOND
M  V30 END CTAB
M  END
>  <b_m_subgroup_collapsed>  (1015) 
0

>  <r_i_docking_score>  (1015) 
-7.5803277825040896

>  <s_m_subgroup_title>  (1015) 
glide-dock_SP_D22_pv

>  <s_m_subgroupid>  (1015) 
glide-dock_SP_D22_pv

>  <Molecule ChEMBL ID>  (1015) 
CHEMBL104273

>  <Standard Type>  (1015) 
Ki

>  <Standard Value>  (1015) 
23.0

>  <label>  (1015) 
1

$$$$
CHEMBL1076586
     RDKit          3D

  0  0  0  0  0  0  0  0  0  0999 V3000
M  V30 BEGIN CTAB
M  V30 COUNTS 54 58 0 0 1
M  V30 BEGIN ATOM
M  V30 1 O 11.697206 7.274822 -13.000360 0
M  V30 2 C 10.749683 6.572273 -12.646396 0
M  V30 3 C 10.456643 5.330938 -13.445606 0
M  V30 4 C 9.152959 5.007565 -13.880527 0
M  V30 5 C 8.923251 3.852186 -14.649425 0
M  V30 6 C 9.988435 3.021813 -15.063776 0
M  V30 7 C 9.756163 1.848367 -15.935882 0
M  V30 8 C 8.527002 1.149033 -15.906037 0
M  V30 9 C 8.290195 0.060658 -16.765287 0
M  V30 10 C 9.289130 -0.367266 -17.657820 0
M  V30 11 C 10.523358 0.303660 -17.692188 0
M  V30 12 C 10.748881 1.403677 -16.843521 0
M  V30 13 C 11.289354 3.370892 -14.643553 0
M  V30 14 C 11.525778 4.506692 -13.848012 0
M  V30 15 N 10.007361 6.859944 -11.544537 0
M  V30 16 C 10.302991 8.022693 -10.694543 0
M  V30 17 C 10.991588 7.522592 -9.415220 0
M  V30 18 N 10.055381 6.638927 -8.710855 0
M  V30 19 C 9.611718 6.785528 -7.445006 0
M  V30 20 O 8.635661 6.172379 -7.024652 0
M  V30 21 C 10.408579 7.603025 -6.467434 0
M  V30 22 C 10.398332 9.012815 -6.500460 0
M  V30 23 C 10.974499 9.759781 -5.449855 0
M  V30 24 C 11.557578 9.117280 -4.331241 0
M  V30 25 C 12.087276 9.553578 -3.071088 0
M  V30 26 C 12.485846 8.433940 -2.390067 0
M  V30 27 N 12.216511 7.321608 -3.167605 0
M  V30 28 C 11.622906 7.695375 -4.355981 0
M  V30 29 C 11.065503 6.948775 -5.405560 0
M  V30 30 C 9.596242 5.507823 -9.534708 0
M  V30 31 C 9.025846 5.987148 -10.879290 0
M  V30 32 H 8.317918 5.643802 -13.624137 0
M  V30 33 H 7.914565 3.626683 -14.952280 0
M  V30 34 H 7.746864 1.437816 -15.217651 0
M  V30 35 H 7.345721 -0.462922 -16.725262 0
M  V30 36 H 9.109238 -1.210394 -18.308538 0
M  V30 37 H 11.294752 -0.018037 -18.375780 0
M  V30 38 H 11.698400 1.913057 -16.912117 0
M  V30 39 H 12.128523 2.761519 -14.933475 0
M  V30 40 H 12.537525 4.746059 -13.551156 0
M  V30 41 H 10.945414 8.752809 -11.179404 0
M  V30 42 H 9.378219 8.551121 -10.454353 0
M  V30 43 H 11.897147 6.973155 -9.669222 0
M  V30 44 H 11.315493 8.377031 -8.826153 0
M  V30 45 H 9.886877 9.524339 -7.303012 0
M  V30 46 H 10.912351 10.837703 -5.466807 0
M  V30 47 H 12.141677 10.572830 -2.722352 0
M  V30 48 H 12.921592 8.344783 -1.405794 0
M  V30 49 H 12.379946 6.372718 -2.861779 0
M  V30 50 H 11.068686 5.870016 -5.350656 0
M  V30 51 H 10.449744 4.852598 -9.698833 0
M  V30 52 H 8.846120 4.885387 -9.044128 0
M  V30 53 H 8.094986 6.536716 -10.725178 0
M  V30 54 H 8.750468 5.098942 -11.438154 0
M  V30 END ATOM
M  V30 BEGIN BOND
M  V30 1 2 2 1
M  V30 2 1 3 2
M  V30 3 1 4 3
M  V30 4 2 5 4
M  V30 5 1 6 5
M  V30 6 1 7 6
M  V30 7 2 8 7
M  V30 8 1 9 8
M  V30 9 2 10 9
M  V30 10 1 11 10
M  V30 11 1 12 7
M  V30 12 2 12 11
M  V30 13 2 13 6
M  V30 14 2 14 3
M  V30 15 1 14 13
M  V30 16 1 15 2
M  V30 17 1 16 15
M  V30 18 1 17 16
M  V30 19 1 18 17
M  V30 20 1 19 18
M  V30 21 2 20 19
M  V30 22 1 21 19
M  V30 23 2 22 21
M  V30 24 1 23 22
M  V30 25 2 24 23
M  V30 26 1 25 24
M  V30 27 2 26 25
M  V30 28 1 27 26
M  V30 29 1 28 24
M  V30 30 1 28 27
M  V30 31 1 29 21
M  V30 32 2 29 28
M  V30 33 1 30 18
M  V30 34 1 31 15
M  V30 35 1 31 30
M  V30 36 1 32 4
M  V30 37 1 33 5
M  V30 38 1 34 8
M  V30 39 1 35 9
M  V30 40 1 36 10
M  V30 41 1 37 11
M  V30 42 1 38 12
M  V30 43 1 39 13
M  V30 44 1 40 14
M  V30 45 1 41 16
M  V30 46 1 42 16
M  V30 47 1 43 17
M  V30 48 1 44 17
M  V30 49 1 45 22
M  V30 50 1 46 23
M  V30 51 1 47 25
M  V30 52 1 48 26
M  V30 53 1 49 27
M  V30 54 1 50 29
M  V30 55 1 51 30
M  V30 56 1 52 30
M  V30 57 1 53 31
M  V30 58 1 54 31
M  V30 END BOND
M  V30 END CTAB
M  END
>  <b_m_subgroup_collapsed>  (1016) 
0

>  <r_i_docking_score>  (1016) 
-7.5790903477743701

>  <s_m_subgroup_title>  (1016) 
glide-dock_SP_D22_pv

>  <s_m_subgroupid>  (1016) 
glide-dock_SP_D22_pv

>  <Molecule ChEMBL ID>  (1016) 
CHEMBL1076586

>  <Standard Type>  (1016) 
Ki

>  <Standard Value>  (1016) 
10000.0

>  <label>  (1016) 
0

$$$$
CHEMBL134808
     RDKit          3D

  0  0  0  0  0  0  0  0  0  0999 V3000
M  V30 BEGIN CTAB
M  V30 COUNTS 44 47 0 0 1
M  V30 BEGIN ATOM
M  V30 1 O 10.887055 2.505193 -14.601674 0
M  V30 2 C 10.730971 3.704319 -13.970596 0
M  V30 3 C 11.469851 4.829037 -14.383194 0
M  V30 4 C 11.296748 6.060737 -13.721468 0
M  V30 5 C 10.388775 6.167973 -12.646602 0
M  V30 6 C 9.668909 5.027496 -12.207845 0
M  V30 7 C 9.837080 3.810174 -12.890424 0
M  V30 8 O 8.789292 5.057523 -11.144081 0
M  V30 9 C 8.795036 6.201384 -10.284840 0 CFG=1
M  V30 10 C 9.917993 6.032025 -9.233638 0
M  V30 11 N 9.955858 7.067403 -8.158439 0 CFG=2 CHG=1
M  V30 12 C 10.782747 8.252301 -8.504729 0
M  V30 13 C 10.624920 9.346907 -7.451071 0
M  V30 14 C 10.984296 8.836396 -6.079902 0
M  V30 15 C 11.452905 9.728994 -5.093205 0
M  V30 16 C 11.863088 9.237779 -3.838873 0
M  V30 17 C 11.800448 7.856399 -3.574345 0
M  V30 18 C 11.302464 6.970896 -4.553029 0
M  V30 19 C 10.885572 7.456409 -5.807640 0
M  V30 20 C 10.391436 6.470644 -6.863589 0
M  V30 21 C 8.886243 7.473217 -11.145458 0
M  V30 22 C 10.170969 7.499390 -11.965149 0
M  V30 23 H 10.418721 1.804723 -14.172355 0
M  V30 24 H 12.162271 4.751284 -15.208916 0
M  V30 25 H 11.853765 6.928080 -14.049380 0
M  V30 26 H 9.286242 2.945885 -12.563339 0
M  V30 27 H 7.841695 6.172315 -9.758515 0
M  V30 28 H 9.758898 5.054453 -8.775146 0
M  V30 29 H 10.886383 5.966480 -9.716092 0
M  V30 30 H 11.830204 7.952138 -8.579354 0
M  V30 31 H 10.523333 8.689131 -9.462337 0
M  V30 32 H 9.607697 9.735227 -7.447575 0
M  V30 33 H 11.287039 10.171984 -7.695950 0
M  V30 34 H 11.514247 10.785872 -5.305648 0
M  V30 35 H 12.231619 9.918200 -3.083029 0
M  V30 36 H 12.121400 7.474910 -2.615112 0
M  V30 37 H 11.250548 5.914689 -4.334352 0
M  V30 38 H 9.556252 5.900393 -6.460398 0
M  V30 39 H 11.210683 5.773900 -7.043814 0
M  V30 40 H 8.048494 7.461690 -11.846365 0
M  V30 41 H 8.747749 8.382791 -10.564391 0
M  V30 42 H 11.047137 7.710707 -11.356115 0
M  V30 43 H 10.086316 8.307495 -12.680515 0
M  V30 44 H 9.005133 7.384615 -8.014093 0
M  V30 END ATOM
M  V30 BEGIN BOND
M  V30 1 1 2 1
M  V30 2 1 3 2
M  V30 3 2 4 3
M  V30 4 1 5 4
M  V30 5 2 6 5
M  V30 6 2 7 2
M  V30 7 1 7 6
M  V30 8 1 8 6
M  V30 9 1 9 8
M  V30 10 1 10 9
M  V30 11 1 11 10
M  V30 12 1 12 11
M  V30 13 1 13 12
M  V30 14 1 14 13
M  V30 15 2 15 14
M  V30 16 1 16 15
M  V30 17 2 17 16
M  V30 18 1 18 17
M  V30 19 1 19 14
M  V30 20 2 19 18
M  V30 21 1 20 11
M  V30 22 1 20 19
M  V30 23 1 21 9
M  V30 24 1 22 5
M  V30 25 1 22 21
M  V30 26 1 23 1
M  V30 27 1 24 3
M  V30 28 1 25 4
M  V30 29 1 26 7
M  V30 30 1 9 27 CFG=1
M  V30 31 1 28 10
M  V30 32 1 29 10
M  V30 33 1 30 12
M  V30 34 1 31 12
M  V30 35 1 32 13
M  V30 36 1 33 13
M  V30 37 1 34 15
M  V30 38 1 35 16
M  V30 39 1 36 17
M  V30 40 1 37 18
M  V30 41 1 38 20
M  V30 42 1 39 20
M  V30 43 1 40 21
M  V30 44 1 41 21
M  V30 45 1 42 22
M  V30 46 1 43 22
M  V30 47 1 11 44 CFG=1
M  V30 END BOND
M  V30 END CTAB
M  END
>  <b_m_subgroup_collapsed>  (1017) 
0

>  <r_i_docking_score>  (1017) 
-7.5785338130067101

>  <s_m_subgroup_title>  (1017) 
glide-dock_SP_D22_pv

>  <s_m_subgroupid>  (1017) 
glide-dock_SP_D22_pv

>  <Molecule ChEMBL ID>  (1017) 
CHEMBL134808

>  <Standard Type>  (1017) 
Ki

>  <Standard Value>  (1017) 
4.3

>  <label>  (1017) 
1

$$$$
CHEMBL2029920
     RDKit          3D

  0  0  0  0  0  0  0  0  0  0999 V3000
M  V30 BEGIN CTAB
M  V30 COUNTS 57 60 0 0 1
M  V30 BEGIN ATOM
M  V30 1 O 5.859581 3.154860 -13.445700 0
M  V30 2 C 6.884358 2.617628 -13.862128 0
M  V30 3 N 8.104392 3.194903 -13.895790 0
M  V30 4 C 8.537808 4.417355 -13.307031 0
M  V30 5 C 9.928629 4.661696 -13.243689 0
M  V30 6 C 10.429517 5.855508 -12.679159 0
M  V30 7 C 9.542836 6.817530 -12.160547 0
M  V30 8 C 10.048599 8.138396 -11.595936 0
M  V30 9 C 9.509315 8.474999 -10.193681 0
M  V30 10 N 10.241609 7.857681 -9.092241 0
M  V30 11 C 11.317425 8.774690 -8.685262 0
M  V30 12 C 12.011057 8.281961 -7.406192 0
M  V30 13 N 11.022240 8.119916 -6.349775 0
M  V30 14 C 11.475116 8.122246 -5.025920 0
M  V30 15 C 11.691341 9.361189 -4.390988 0
M  V30 16 C 12.086355 9.406352 -3.041805 0
M  V30 17 C 12.286620 8.212312 -2.323636 0
M  V30 18 C 12.087613 6.968584 -2.954106 0
M  V30 19 C 11.686296 6.925817 -4.303252 0
M  V30 20 C 9.978842 7.178112 -6.718286 0
M  V30 21 C 9.283189 7.697315 -7.985708 0
M  V30 22 C 8.158038 6.582038 -12.247596 0
M  V30 23 C 7.654477 5.397938 -12.803294 0
M  V30 24 N 6.927353 1.370587 -14.366550 0
M  V30 25 C 5.839253 0.483912 -14.572985 0
M  V30 26 C 6.016841 -0.438075 -15.626966 0
M  V30 27 C 4.965425 -1.305609 -15.976389 0
M  V30 28 C 3.758268 -1.220415 -15.265450 0
M  V30 29 C 3.674711 -0.299765 -14.208073 0
M  V30 30 N 4.692998 0.509295 -13.846859 0
M  V30 31 H 8.850209 2.631671 -14.272957 0
M  V30 32 H 10.623751 3.930912 -13.628771 0
M  V30 33 H 11.492811 6.043633 -12.648835 0
M  V30 34 H 11.137613 8.172152 -11.613042 0
M  V30 35 H 9.686323 8.905659 -12.282666 0
M  V30 36 H 9.455263 9.552573 -10.034541 0
M  V30 37 H 8.486133 8.141993 -10.155287 0
M  V30 38 H 12.048617 8.868729 -9.489139 0
M  V30 39 H 10.918877 9.771565 -8.496970 0
M  V30 40 H 12.486191 7.321022 -7.597555 0
M  V30 41 H 12.790720 8.980839 -7.102300 0
M  V30 42 H 11.529796 10.280301 -4.935034 0
M  V30 43 H 12.227930 10.360585 -2.558836 0
M  V30 44 H 12.587689 8.254883 -1.288099 0
M  V30 45 H 12.234179 6.050095 -2.404623 0
M  V30 46 H 11.527135 5.968437 -4.776739 0
M  V30 47 H 10.406879 6.190334 -6.895175 0
M  V30 48 H 9.258120 7.079828 -5.906075 0
M  V30 49 H 8.791085 8.647873 -7.769193 0
M  V30 50 H 8.498364 6.997420 -8.279634 0
M  V30 51 H 7.464901 7.312255 -11.863366 0
M  V30 52 H 6.583342 5.287297 -12.830009 0
M  V30 53 H 7.808424 1.056559 -14.737891 0
M  V30 54 H 6.939697 -0.477272 -16.186676 0
M  V30 55 H 5.079101 -2.010794 -16.786694 0
M  V30 56 H 2.925637 -1.862135 -15.515600 0
M  V30 57 H 2.772921 -0.226340 -13.619284 0
M  V30 END ATOM
M  V30 BEGIN BOND
M  V30 1 2 2 1
M  V30 2 1 3 2
M  V30 3 1 4 3
M  V30 4 1 5 4
M  V30 5 2 6 5
M  V30 6 1 7 6
M  V30 7 1 8 7
M  V30 8 1 9 8
M  V30 9 1 10 9
M  V30 10 1 11 10
M  V30 11 1 12 11
M  V30 12 1 13 12
M  V30 13 1 14 13
M  V30 14 2 15 14
M  V30 15 1 16 15
M  V30 16 2 17 16
M  V30 17 1 18 17
M  V30 18 1 19 14
M  V30 19 2 19 18
M  V30 20 1 20 13
M  V30 21 1 21 10
M  V30 22 1 21 20
M  V30 23 2 22 7
M  V30 24 2 23 4
M  V30 25 1 23 22
M  V30 26 1 24 2
M  V30 27 1 25 24
M  V30 28 2 26 25
M  V30 29 1 27 26
M  V30 30 2 28 27
M  V30 31 1 29 28
M  V30 32 1 30 25
M  V30 33 2 30 29
M  V30 34 1 31 3
M  V30 35 1 32 5
M  V30 36 1 33 6
M  V30 37 1 34 8
M  V30 38 1 35 8
M  V30 39 1 36 9
M  V30 40 1 37 9
M  V30 41 1 38 11
M  V30 42 1 39 11
M  V30 43 1 40 12
M  V30 44 1 41 12
M  V30 45 1 42 15
M  V30 46 1 43 16
M  V30 47 1 44 17
M  V30 48 1 45 18
M  V30 49 1 46 19
M  V30 50 1 47 20
M  V30 51 1 48 20
M  V30 52 1 49 21
M  V30 53 1 50 21
M  V30 54 1 51 22
M  V30 55 1 52 23
M  V30 56 1 53 24
M  V30 57 1 54 26
M  V30 58 1 55 27
M  V30 59 1 56 28
M  V30 60 1 57 29
M  V30 END BOND
M  V30 END CTAB
M  END
>  <b_m_subgroup_collapsed>  (1018) 
0

>  <r_i_docking_score>  (1018) 
-7.5768003875948899

>  <s_m_subgroup_title>  (1018) 
glide-dock_SP_D22_pv

>  <s_m_subgroupid>  (1018) 
glide-dock_SP_D22_pv

>  <Molecule ChEMBL ID>  (1018) 
CHEMBL2029920

>  <Standard Type>  (1018) 
Ki

>  <Standard Value>  (1018) 
14.2

>  <label>  (1018) 
1

$$$$
CHEMBL4063235
     RDKit          3D

  0  0  0  0  0  0  0  0  0  0999 V3000
M  V30 BEGIN CTAB
M  V30 COUNTS 58 61 0 0 1
M  V30 BEGIN ATOM
M  V30 1 C 11.881032 10.692580 -6.246570 0
M  V30 2 O 10.961576 10.357269 -5.225171 0
M  V30 3 C 11.294847 9.188802 -4.594037 0
M  V30 4 C 11.884117 9.290806 -3.318015 0
M  V30 5 C 12.275174 8.135727 -2.621423 0
M  V30 6 C 12.085918 6.871744 -3.204432 0
M  V30 7 C 11.501872 6.762627 -4.482621 0
M  V30 8 C 11.082443 7.912855 -5.193022 0
M  V30 9 N 10.447004 7.790608 -6.446874 0
M  V30 10 C 10.653955 6.635050 -7.306068 0
M  V30 11 C 10.501324 7.038985 -8.789582 0
M  V30 12 N 9.286202 7.862067 -9.069722 0 CHG=1
M  V30 13 C 9.247405 8.388602 -10.460559 0
M  V30 14 C 8.898477 7.302958 -11.489285 0
M  V30 15 C 10.118812 6.739417 -12.230852 0
M  V30 16 C 9.773025 5.429383 -12.942509 0
M  V30 17 O 10.870782 5.015847 -13.737590 0
M  V30 18 C 10.725355 3.869315 -14.488191 0
M  V30 19 C 11.727735 3.615819 -15.457165 0
M  V30 20 C 11.685863 2.495291 -16.254782 0
M  V30 21 N 10.663877 1.614032 -16.097157 0
M  V30 22 N 10.494421 0.447547 -16.810188 0
M  V30 23 C 9.376522 -0.058391 -16.335564 0
M  V30 24 C 8.802254 0.735743 -15.318006 0
M  V30 25 C 7.597722 0.466709 -14.614318 0
M  V30 26 N 6.620026 0.256431 -14.032122 0
M  V30 27 C 9.628653 1.809361 -15.158542 0
M  V30 28 C 9.677176 2.972700 -14.342722 0
M  V30 29 C 9.066337 8.950055 -8.084202 0
M  V30 30 C 9.161396 8.441612 -6.646134 0
M  V30 31 H 11.679768 11.684318 -6.646689 0
M  V30 32 H 12.890062 10.691283 -5.847630 0
M  V30 33 H 11.846956 9.977876 -7.064620 0
M  V30 34 H 12.039427 10.261579 -2.871325 0
M  V30 35 H 12.718964 8.222844 -1.638890 0
M  V30 36 H 12.378430 5.979801 -2.669849 0
M  V30 37 H 11.344279 5.774818 -4.889064 0
M  V30 38 H 9.925158 5.867765 -7.047371 0
M  V30 39 H 11.643537 6.206437 -7.143428 0
M  V30 40 H 10.483839 6.134002 -9.395939 0
M  V30 41 H 11.383890 7.606612 -9.086099 0
M  V30 42 H 10.176803 8.902386 -10.713451 0
M  V30 43 H 8.471196 9.150669 -10.516359 0
M  V30 44 H 8.217014 7.723998 -12.228900 0
M  V30 45 H 8.336612 6.501842 -11.007603 0
M  V30 46 H 10.946057 6.572699 -11.544781 0
M  V30 47 H 10.488228 7.474113 -12.947424 0
M  V30 48 H 8.892265 5.569920 -13.572697 0
M  V30 49 H 9.541667 4.671581 -12.190519 0
M  V30 50 H 12.549219 4.315154 -15.572102 0
M  V30 51 H 12.438475 2.257349 -16.999527 0
M  V30 52 H 9.000898 -0.990012 -16.736057 0
M  V30 53 H 8.886770 3.110430 -13.615966 0
M  V30 54 H 9.807432 9.727674 -8.243238 0
M  V30 55 H 8.085788 9.395803 -8.246521 0
M  V30 56 H 8.363137 7.725161 -6.451708 0
M  V30 57 H 9.015020 9.259616 -5.949186 0
M  V30 58 H 8.472078 7.265643 -8.973164 0
M  V30 END ATOM
M  V30 BEGIN BOND
M  V30 1 1 2 1
M  V30 2 1 3 2
M  V30 3 2 4 3
M  V30 4 1 5 4
M  V30 5 2 6 5
M  V30 6 1 7 6
M  V30 7 1 8 3
M  V30 8 2 8 7
M  V30 9 1 9 8
M  V30 10 1 10 9
M  V30 11 1 11 10
M  V30 12 1 12 11
M  V30 13 1 13 12
M  V30 14 1 14 13
M  V30 15 1 15 14
M  V30 16 1 16 15
M  V30 17 1 17 16
M  V30 18 1 18 17
M  V30 19 1 19 18
M  V30 20 2 20 19
M  V30 21 1 21 20
M  V30 22 1 22 21
M  V30 23 2 23 22
M  V30 24 1 24 23
M  V30 25 1 25 24
M  V30 26 3 26 25
M  V30 27 1 27 21
M  V30 28 2 27 24
M  V30 29 2 28 18
M  V30 30 1 28 27
M  V30 31 1 29 12
M  V30 32 1 30 9
M  V30 33 1 30 29
M  V30 34 1 31 1
M  V30 35 1 32 1
M  V30 36 1 33 1
M  V30 37 1 34 4
M  V30 38 1 35 5
M  V30 39 1 36 6
M  V30 40 1 37 7
M  V30 41 1 38 10
M  V30 42 1 39 10
M  V30 43 1 40 11
M  V30 44 1 41 11
M  V30 45 1 42 13
M  V30 46 1 43 13
M  V30 47 1 44 14
M  V30 48 1 45 14
M  V30 49 1 46 15
M  V30 50 1 47 15
M  V30 51 1 48 16
M  V30 52 1 49 16
M  V30 53 1 50 19
M  V30 54 1 51 20
M  V30 55 1 52 23
M  V30 56 1 53 28
M  V30 57 1 54 29
M  V30 58 1 55 29
M  V30 59 1 56 30
M  V30 60 1 57 30
M  V30 61 1 58 12
M  V30 END BOND
M  V30 END CTAB
M  END
>  <b_m_subgroup_collapsed>  (1019) 
0

>  <r_i_docking_score>  (1019) 
-7.5763085793256604

>  <s_m_subgroup_title>  (1019) 
glide-dock_SP_D22_pv

>  <s_m_subgroupid>  (1019) 
glide-dock_SP_D22_pv

>  <Molecule ChEMBL ID>  (1019) 
CHEMBL4063235

>  <Standard Type>  (1019) 
Ki

>  <Standard Value>  (1019) 
0.16

>  <label>  (1019) 
1

$$$$
CHEMBL219261
     RDKit          3D

  0  0  0  0  0  0  0  0  0  0999 V3000
M  V30 BEGIN CTAB
M  V30 COUNTS 47 49 0 0 1
M  V30 BEGIN ATOM
M  V30 1 C 5.865352 5.477233 -12.637495 0
M  V30 2 C 7.048696 4.617396 -13.042760 0
M  V30 3 C 6.820021 3.477798 -13.844976 0
M  V30 4 C 7.892581 2.662946 -14.247907 0
M  V30 5 F 7.662931 1.573881 -15.019122 0
M  V30 6 C 9.202100 2.978717 -13.846879 0
M  V30 7 C 9.435584 4.105488 -13.035829 0
M  V30 8 C 8.365570 4.948929 -12.639716 0
M  V30 9 N 8.564138 6.105002 -11.826839 0
M  V30 10 C 9.670413 6.865625 -11.738084 0
M  V30 11 O 10.714581 6.657800 -12.356138 0
M  V30 12 C 9.603876 8.086864 -10.822701 0
M  V30 13 N 10.287520 7.880366 -9.526073 0
M  V30 14 C 10.635631 9.185189 -8.964519 0
M  V30 15 C 11.402703 9.017449 -7.645625 0
M  V30 16 C 10.524968 8.292176 -6.614727 0
M  V30 17 C 11.178262 8.224303 -5.228251 0
M  V30 18 C 11.590734 7.000251 -4.646783 0
M  V30 19 C 12.116884 6.972006 -3.345903 0
M  V30 20 C 12.260108 8.176935 -2.646180 0
M  V30 21 C 11.849484 9.374014 -3.256621 0
M  V30 22 N 11.300380 9.396629 -4.508283 0 CHG=1
M  V30 23 O 10.885944 10.521029 -4.980017 0 CHG=-1
M  V30 24 C 10.123580 6.934372 -7.232121 0
M  V30 25 C 9.430282 7.129186 -8.595026 0
M  V30 26 H 4.969708 5.160264 -13.173069 0
M  V30 27 H 5.680508 5.394634 -11.566273 0
M  V30 28 H 6.042492 6.526218 -12.875645 0
M  V30 29 H 5.819175 3.223279 -14.158579 0
M  V30 30 H 10.025236 2.345377 -14.143479 0
M  V30 31 H 10.449431 4.295644 -12.720519 0
M  V30 32 H 7.754165 6.443742 -11.316803 0
M  V30 33 H 8.572474 8.412558 -10.675526 0
M  V30 34 H 10.086523 8.892854 -11.375360 0
M  V30 35 H 9.723483 9.761700 -8.810432 0
M  V30 36 H 11.261244 9.743155 -9.664642 0
M  V30 37 H 11.685623 10.003260 -7.279202 0
M  V30 38 H 12.332471 8.471575 -7.813313 0
M  V30 39 H 9.605668 8.867150 -6.483553 0
M  V30 40 H 11.490387 6.065328 -5.177128 0
M  V30 41 H 12.414431 6.034610 -2.895766 0
M  V30 42 H 12.672828 8.189810 -1.648453 0
M  V30 43 H 11.913262 10.342023 -2.776223 0
M  V30 44 H 11.000661 6.299638 -7.370223 0
M  V30 45 H 9.449140 6.403698 -6.558969 0
M  V30 46 H 8.486018 7.656868 -8.446695 0
M  V30 47 H 9.181259 6.152239 -9.011238 0
M  V30 END ATOM
M  V30 BEGIN BOND
M  V30 1 1 2 1
M  V30 2 1 3 2
M  V30 3 2 4 3
M  V30 4 1 5 4
M  V30 5 1 6 4
M  V30 6 2 7 6
M  V30 7 2 8 2
M  V30 8 1 8 7
M  V30 9 1 9 8
M  V30 10 1 10 9
M  V30 11 2 11 10
M  V30 12 1 12 10
M  V30 13 1 13 12
M  V30 14 1 14 13
M  V30 15 1 15 14
M  V30 16 1 16 15
M  V30 17 1 17 16
M  V30 18 2 18 17
M  V30 19 1 19 18
M  V30 20 2 20 19
M  V30 21 1 21 20
M  V30 22 1 22 17
M  V30 23 2 22 21
M  V30 24 1 23 22
M  V30 25 1 24 16
M  V30 26 1 25 13
M  V30 27 1 25 24
M  V30 28 1 26 1
M  V30 29 1 27 1
M  V30 30 1 28 1
M  V30 31 1 29 3
M  V30 32 1 30 6
M  V30 33 1 31 7
M  V30 34 1 32 9
M  V30 35 1 33 12
M  V30 36 1 34 12
M  V30 37 1 35 14
M  V30 38 1 36 14
M  V30 39 1 37 15
M  V30 40 1 38 15
M  V30 41 1 39 16
M  V30 42 1 40 18
M  V30 43 1 41 19
M  V30 44 1 42 20
M  V30 45 1 43 21
M  V30 46 1 44 24
M  V30 47 1 45 24
M  V30 48 1 46 25
M  V30 49 1 47 25
M  V30 END BOND
M  V30 END CTAB
M  END
>  <b_m_subgroup_collapsed>  (1020) 
0

>  <r_i_docking_score>  (1020) 
-7.5759284219677401

>  <s_m_subgroup_title>  (1020) 
glide-dock_SP_D22_pv

>  <s_m_subgroupid>  (1020) 
glide-dock_SP_D22_pv

>  <Molecule ChEMBL ID>  (1020) 
CHEMBL219261

>  <Standard Type>  (1020) 
Ki

>  <Standard Value>  (1020) 
10000.0

>  <label>  (1020) 
0

$$$$
CHEMBL5903085
     RDKit          3D

  0  0  0  0  0  0  0  0  0  0999 V3000
M  V30 BEGIN CTAB
M  V30 COUNTS 51 53 0 0 1
M  V30 BEGIN ATOM
M  V30 1 C 10.428716 2.562108 -14.020524 0
M  V30 2 C 9.872802 3.678319 -13.112365 0 CFG=1
M  V30 3 O 10.567579 4.859363 -13.467211 0
M  V30 4 C 8.350657 3.875259 -13.292232 0
M  V30 5 O 7.848196 3.439172 -14.325906 0
M  V30 6 N 7.552649 4.424105 -12.332754 0
M  V30 7 C 6.092511 4.283523 -12.506725 0
M  V30 8 C 5.640443 2.882494 -12.580682 0
M  V30 9 N 5.285853 1.782257 -12.639634 0
M  V30 10 C 7.901580 5.095119 -11.060746 0
M  V30 11 C 9.206090 5.917245 -11.014281 0
M  V30 12 N 9.288219 6.939348 -9.934850 0 CFG=1 CHG=1
M  V30 13 C 8.720694 6.584867 -8.609385 0
M  V30 14 C 8.689034 7.865433 -7.730977 0
M  V30 15 C 10.057389 8.536718 -7.545301 0 CFG=1
M  V30 16 C 10.846655 7.859427 -6.462004 0
M  V30 17 N 11.150765 6.572396 -6.560786 0
M  V30 18 O 11.687180 6.172528 -5.310270 0
M  V30 19 C 11.778481 7.260073 -4.466790 0
M  V30 20 C 12.266262 7.381195 -3.160963 0
M  V30 21 C 12.258484 8.665930 -2.586139 0
M  V30 22 F 12.746932 8.842690 -1.339489 0
M  V30 23 C 11.751098 9.771196 -3.309818 0
M  V30 24 C 11.257638 9.620528 -4.625963 0
M  V30 25 C 11.285753 8.335211 -5.207501 0
M  V30 26 C 10.774366 8.690521 -8.900324 0
M  V30 27 C 10.682835 7.439506 -9.791386 0
M  V30 28 H 9.913128 1.616820 -13.848347 0
M  V30 29 H 10.311381 2.807497 -15.077223 0
M  V30 30 H 11.490531 2.390805 -13.847014 0
M  V30 31 H 10.084626 3.405689 -12.078567 0
M  V30 32 H 11.495596 4.677545 -13.457675 0
M  V30 33 H 5.512375 4.733105 -11.701206 0
M  V30 34 H 5.773787 4.791982 -13.416443 0
M  V30 35 H 7.088347 5.772738 -10.816601 0
M  V30 36 H 7.909351 4.341214 -10.272146 0
M  V30 37 H 10.058761 5.248719 -10.897565 0
M  V30 38 H 9.325534 6.460469 -11.952044 0
M  V30 39 H 7.710241 6.172372 -8.699665 0
M  V30 40 H 9.308355 5.789401 -8.153076 0
M  V30 41 H 8.206578 7.674353 -6.770870 0
M  V30 42 H 8.086096 8.613776 -8.234678 0
M  V30 43 H 9.861801 9.548059 -7.191176 0
M  V30 44 H 12.647389 6.524585 -2.624921 0
M  V30 45 H 11.747173 10.743298 -2.840699 0
M  V30 46 H 10.869813 10.470875 -5.167651 0
M  V30 47 H 11.813346 8.992044 -8.757310 0
M  V30 48 H 10.296625 9.504270 -9.444538 0
M  V30 49 H 11.296755 6.640775 -9.376109 0
M  V30 50 H 11.095882 7.674157 -10.773598 0
M  V30 51 H 8.697124 7.699951 -10.251367 0
M  V30 END ATOM
M  V30 BEGIN BOND
M  V30 1 1 2 1
M  V30 2 1 3 2
M  V30 3 1 4 2
M  V30 4 2 5 4
M  V30 5 1 6 4
M  V30 6 1 7 6
M  V30 7 1 8 7
M  V30 8 3 9 8
M  V30 9 1 10 6
M  V30 10 1 11 10
M  V30 11 1 12 11
M  V30 12 1 13 12
M  V30 13 1 14 13
M  V30 14 1 15 14
M  V30 15 1 16 15
M  V30 16 2 17 16
M  V30 17 1 18 17
M  V30 18 1 19 18
M  V30 19 1 20 19
M  V30 20 2 21 20
M  V30 21 1 22 21
M  V30 22 1 23 21
M  V30 23 2 24 23
M  V30 24 1 25 16
M  V30 25 2 25 19
M  V30 26 1 25 24
M  V30 27 1 26 15
M  V30 28 1 27 12
M  V30 29 1 27 26
M  V30 30 1 28 1
M  V30 31 1 29 1
M  V30 32 1 30 1
M  V30 33 1 2 31 CFG=1
M  V30 34 1 32 3
M  V30 35 1 33 7
M  V30 36 1 34 7
M  V30 37 1 35 10
M  V30 38 1 36 10
M  V30 39 1 37 11
M  V30 40 1 38 11
M  V30 41 1 39 13
M  V30 42 1 40 13
M  V30 43 1 41 14
M  V30 44 1 42 14
M  V30 45 1 15 43 CFG=1
M  V30 46 1 44 20
M  V30 47 1 45 23
M  V30 48 1 46 24
M  V30 49 1 47 26
M  V30 50 1 48 26
M  V30 51 1 49 27
M  V30 52 1 50 27
M  V30 53 1 12 51 CFG=3
M  V30 END BOND
M  V30 END CTAB
M  END
>  <b_m_subgroup_collapsed>  (1021) 
0

>  <r_i_docking_score>  (1021) 
-7.5751455456780699

>  <s_m_subgroup_title>  (1021) 
glide-dock_SP_D22_pv

>  <s_m_subgroupid>  (1021) 
glide-dock_SP_D22_pv

>  <Molecule ChEMBL ID>  (1021) 
CHEMBL5903085

>  <Standard Type>  (1021) 
Ki

>  <Standard Value>  (1021) 
10000.0

>  <label>  (1021) 
0

$$$$
CHEMBL113229
     RDKit          3D

  0  0  0  0  0  0  0  0  0  0999 V3000
M  V30 BEGIN CTAB
M  V30 COUNTS 61 64 0 0 1
M  V30 BEGIN ATOM
M  V30 1 C 12.508530 7.915358 -9.088678 0
M  V30 2 C 11.285970 6.972314 -9.070948 0
M  V30 3 N 10.004179 7.721324 -9.238908 0 CFG=2 CHG=1
M  V30 4 C 9.223248 7.863931 -7.974514 0
M  V30 5 C 10.109674 8.138999 -6.761025 0
M  V30 6 C 10.724613 9.400127 -6.600654 0
M  V30 7 C 11.612540 9.653764 -5.538139 0
M  V30 8 C 11.848648 8.625648 -4.623209 0
M  V30 9 C 11.285974 7.380813 -4.784248 0
M  V30 10 C 10.399245 7.105892 -5.839229 0
M  V30 11 O 11.683586 6.571872 -3.774694 0
M  V30 12 C 12.550092 7.339623 -2.986385 0
M  V30 13 O 12.609636 8.641485 -3.504336 0
M  V30 14 C 9.153337 7.291505 -10.392762 0
M  V30 15 C 9.907495 6.855893 -11.622452 0
M  V30 16 C 11.046675 7.331875 -12.209327 0
M  V30 17 C 11.400746 6.471989 -13.285704 0
M  V30 18 C 10.467895 5.471798 -13.364038 0
M  V30 19 C 10.299948 4.316900 -14.260898 0
M  V30 20 C 9.089865 3.583459 -14.224182 0
M  V30 21 C 8.869564 2.507797 -15.102065 0
M  V30 22 S 7.318880 1.627237 -15.046580 0
M  V30 23 O 6.431971 2.330231 -14.107757 0
M  V30 24 O 6.886274 1.401958 -16.434116 0
M  V30 25 C 7.742175 0.000311 -14.307050 0
M  V30 26 C 6.474714 -0.758247 -13.898603 0
M  V30 27 C 9.854889 2.117851 -16.019920 0
M  V30 28 C 11.067957 2.822698 -16.060526 0
M  V30 29 C 11.302577 3.923710 -15.193140 0
M  V30 30 O 12.495781 4.614417 -15.218473 0
M  V30 31 C 13.260033 4.590324 -16.417473 0
M  V30 32 N 9.561564 5.731069 -12.345999 0
M  V30 33 H 13.445341 7.372587 -9.205862 0
M  V30 34 H 12.461946 8.637545 -9.901850 0
M  V30 35 H 12.604781 8.482966 -8.165919 0
M  V30 36 H 11.285365 6.354305 -8.175535 0
M  V30 37 H 11.392148 6.222826 -9.844431 0
M  V30 38 H 8.647555 6.956666 -7.792554 0
M  V30 39 H 8.496390 8.669417 -8.084764 0
M  V30 40 H 10.555199 10.172261 -7.322627 0
M  V30 41 H 12.112882 10.595366 -5.445520 0
M  V30 42 H 9.946255 6.133192 -5.936409 0
M  V30 43 H 13.544168 6.898098 -3.046876 0
M  V30 44 H 12.207380 7.357083 -1.954084 0
M  V30 45 H 8.492022 6.483245 -10.073445 0
M  V30 46 H 8.510406 8.130789 -10.660700 0
M  V30 47 H 11.610288 8.172298 -11.850096 0
M  V30 48 H 12.263923 6.590899 -13.924915 0
M  V30 49 H 8.303880 3.854193 -13.538159 0
M  V30 50 H 8.312601 -0.566259 -15.043729 0
M  V30 51 H 8.384922 0.177188 -13.446820 0
M  V30 52 H 6.716734 -1.718514 -13.444610 0
M  V30 53 H 5.890204 -0.189469 -13.175551 0
M  V30 54 H 5.840207 -0.947623 -14.763986 0
M  V30 55 H 9.679626 1.288497 -16.689175 0
M  V30 56 H 11.812827 2.491512 -16.768852 0
M  V30 57 H 14.087330 5.294238 -16.324631 0
M  V30 58 H 13.686177 3.608161 -16.616045 0
M  V30 59 H 12.656654 4.897344 -17.273098 0
M  V30 60 H 8.755493 5.155968 -12.145265 0
M  V30 61 H 10.300423 8.654559 -9.480058 0
M  V30 END ATOM
M  V30 BEGIN BOND
M  V30 1 1 2 1
M  V30 2 1 3 2
M  V30 3 1 4 3
M  V30 4 1 5 4
M  V30 5 1 6 5
M  V30 6 2 7 6
M  V30 7 1 8 7
M  V30 8 2 9 8
M  V30 9 2 10 5
M  V30 10 1 10 9
M  V30 11 1 11 9
M  V30 12 1 12 11
M  V30 13 1 13 8
M  V30 14 1 13 12
M  V30 15 1 14 3
M  V30 16 1 15 14
M  V30 17 2 16 15
M  V30 18 1 17 16
M  V30 19 2 18 17
M  V30 20 1 19 18
M  V30 21 1 20 19
M  V30 22 2 21 20
M  V30 23 1 22 21
M  V30 24 2 23 22
M  V30 25 2 24 22
M  V30 26 1 25 22
M  V30 27 1 26 25
M  V30 28 1 27 21
M  V30 29 2 28 27
M  V30 30 2 29 19
M  V30 31 1 29 28
M  V30 32 1 30 29
M  V30 33 1 31 30
M  V30 34 1 32 15
M  V30 35 1 32 18
M  V30 36 1 33 1
M  V30 37 1 34 1
M  V30 38 1 35 1
M  V30 39 1 36 2
M  V30 40 1 37 2
M  V30 41 1 38 4
M  V30 42 1 39 4
M  V30 43 1 40 6
M  V30 44 1 41 7
M  V30 45 1 42 10
M  V30 46 1 43 12
M  V30 47 1 44 12
M  V30 48 1 45 14
M  V30 49 1 46 14
M  V30 50 1 47 16
M  V30 51 1 48 17
M  V30 52 1 49 20
M  V30 53 1 50 25
M  V30 54 1 51 25
M  V30 55 1 52 26
M  V30 56 1 53 26
M  V30 57 1 54 26
M  V30 58 1 55 27
M  V30 59 1 56 28
M  V30 60 1 57 31
M  V30 61 1 58 31
M  V30 62 1 59 31
M  V30 63 1 60 32
M  V30 64 1 3 61 CFG=3
M  V30 END BOND
M  V30 END CTAB
M  END
>  <b_m_subgroup_collapsed>  (1022) 
0

>  <r_i_docking_score>  (1022) 
-7.57409092737318

>  <s_m_subgroup_title>  (1022) 
glide-dock_SP_D22_pv

>  <s_m_subgroupid>  (1022) 
glide-dock_SP_D22_pv

>  <Molecule ChEMBL ID>  (1022) 
CHEMBL113229

>  <Standard Type>  (1022) 
Ki

>  <Standard Value>  (1022) 
3.162

>  <label>  (1022) 
1

$$$$
CHEMBL3780438
     RDKit          3D

  0  0  0  0  0  0  0  0  0  0999 V3000
M  V30 BEGIN CTAB
M  V30 COUNTS 47 48 0 0 1
M  V30 BEGIN ATOM
M  V30 1 C 11.294607 6.520916 -2.243097 0
M  V30 2 O 12.121346 6.672355 -3.378262 0
M  V30 3 C 11.685950 7.611001 -4.273678 0
M  V30 4 C 11.285946 7.167757 -5.550427 0
M  V30 5 C 10.911786 8.094965 -6.540235 0
M  V30 6 C 10.628040 7.638360 -7.953346 0
M  V30 7 C 9.130549 7.672516 -8.331710 0
M  V30 8 N 8.886153 7.333351 -9.759800 0 CFG=1 CHG=1
M  V30 9 C 9.271947 8.425000 -10.684591 0
M  V30 10 C 9.438343 6.007201 -10.137924 0
M  V30 11 C 9.000109 5.483804 -11.495667 0
M  V30 12 C 7.820967 4.728086 -11.549557 0
M  V30 13 C 7.404792 4.133718 -12.747167 0
M  V30 14 C 8.226451 4.222247 -13.877829 0
M  V30 15 C 9.415938 4.976010 -13.849475 0
M  V30 16 O 10.139459 5.024722 -15.007792 0
M  V30 17 C 9.799608 5.659781 -12.654499 0
M  V30 18 O 10.887211 6.501359 -12.510180 0
M  V30 19 C 11.955781 6.481412 -13.444010 0
M  V30 20 C 10.889186 9.467408 -6.236854 0
M  V30 21 C 11.271820 9.916230 -4.959957 0
M  V30 22 C 11.687852 8.995733 -3.980005 0
M  V30 23 O 12.110106 9.452482 -2.763173 0
M  V30 24 H 11.738427 5.772496 -1.591670 0
M  V30 25 H 11.186692 7.434601 -1.662889 0
M  V30 26 H 10.301434 6.172230 -2.520527 0
M  V30 27 H 11.320348 6.112249 -5.775535 0
M  V30 28 H 11.207135 8.272964 -8.624917 0
M  V30 29 H 11.031719 6.631080 -8.057755 0
M  V30 30 H 8.575661 6.972771 -7.703893 0
M  V30 31 H 8.702925 8.656349 -8.123649 0
M  V30 32 H 10.353995 8.535816 -10.758319 0
M  V30 33 H 8.877616 8.240531 -11.684737 0
M  V30 34 H 8.851026 9.373543 -10.350852 0
M  V30 35 H 10.524422 6.036905 -10.120300 0
M  V30 36 H 9.146689 5.275420 -9.381226 0
M  V30 37 H 7.260638 4.570928 -10.646990 0
M  V30 38 H 6.496709 3.549824 -12.774157 0
M  V30 39 H 7.932261 3.702474 -14.775062 0
M  V30 40 H 9.782673 4.488495 -15.697786 0
M  V30 41 H 12.785753 7.058196 -13.035120 0
M  V30 42 H 12.320856 5.468671 -13.619721 0
M  V30 43 H 11.681583 6.949024 -14.389847 0
M  V30 44 H 10.604684 10.172865 -6.998667 0
M  V30 45 H 11.266024 10.972972 -4.748955 0
M  V30 46 H 12.210619 10.391229 -2.700919 0
M  V30 47 H 7.862807 7.304806 -9.849078 0
M  V30 END ATOM
M  V30 BEGIN BOND
M  V30 1 1 2 1
M  V30 2 1 3 2
M  V30 3 1 4 3
M  V30 4 2 5 4
M  V30 5 1 6 5
M  V30 6 1 7 6
M  V30 7 1 8 7
M  V30 8 1 9 8
M  V30 9 1 10 8
M  V30 10 1 11 10
M  V30 11 2 12 11
M  V30 12 1 13 12
M  V30 13 2 14 13
M  V30 14 1 15 14
M  V30 15 1 16 15
M  V30 16 1 17 11
M  V30 17 2 17 15
M  V30 18 1 18 17
M  V30 19 1 19 18
M  V30 20 1 20 5
M  V30 21 2 21 20
M  V30 22 2 22 3
M  V30 23 1 22 21
M  V30 24 1 23 22
M  V30 25 1 24 1
M  V30 26 1 25 1
M  V30 27 1 26 1
M  V30 28 1 27 4
M  V30 29 1 28 6
M  V30 30 1 29 6
M  V30 31 1 30 7
M  V30 32 1 31 7
M  V30 33 1 32 9
M  V30 34 1 33 9
M  V30 35 1 34 9
M  V30 36 1 35 10
M  V30 37 1 36 10
M  V30 38 1 37 12
M  V30 39 1 38 13
M  V30 40 1 39 14
M  V30 41 1 40 16
M  V30 42 1 41 19
M  V30 43 1 42 19
M  V30 44 1 43 19
M  V30 45 1 44 20
M  V30 46 1 45 21
M  V30 47 1 46 23
M  V30 48 1 8 47 CFG=1
M  V30 END BOND
M  V30 END CTAB
M  END
>  <b_m_subgroup_collapsed>  (1023) 
0

>  <r_i_docking_score>  (1023) 
-7.5734182967485202

>  <s_m_subgroup_title>  (1023) 
glide-dock_SP_D22_pv

>  <s_m_subgroupid>  (1023) 
glide-dock_SP_D22_pv

>  <Molecule ChEMBL ID>  (1023) 
CHEMBL3780438

>  <Standard Type>  (1023) 
Ki

>  <Standard Value>  (1023) 
10000.0

>  <label>  (1023) 
0

$$$$
CHEMBL271989
     RDKit          3D

  0  0  0  0  0  0  0  0  0  0999 V3000
M  V30 BEGIN CTAB
M  V30 COUNTS 60 63 0 0 1
M  V30 BEGIN ATOM
M  V30 1 C 9.677197 0.543367 -14.957445 0
M  V30 2 O 8.747409 1.469929 -14.420064 0
M  V30 3 C 7.427131 1.100171 -14.246921 0
M  V30 4 C 6.993977 -0.227744 -14.475636 0
M  V30 5 C 5.667948 -0.623401 -14.244556 0
M  V30 6 C 4.756853 0.299234 -13.715835 0
M  V30 7 C 5.176111 1.613763 -13.446889 0
M  V30 8 C 6.485273 2.057602 -13.762416 0
M  V30 9 N 6.816619 3.417066 -13.531609 0
M  V30 10 C 6.218428 4.171276 -12.429071 0
M  V30 11 C 7.301826 4.654418 -11.447298 0
M  V30 12 N 8.428652 5.322027 -12.132693 0 CHG=1
M  V30 13 C 9.431666 5.829546 -11.172915 0
M  V30 14 C 9.725402 7.315880 -11.410904 0
M  V30 15 C 10.358186 7.989337 -10.186954 0
M  V30 16 C 9.334412 8.197778 -9.058283 0
M  V30 17 N 9.890458 8.972535 -7.967377 0
M  V30 18 C 10.512709 8.405098 -6.858047 0
M  V30 19 C 10.842772 7.038859 -6.777159 0
M  V30 20 C 11.431988 6.572418 -5.591723 0
M  V30 21 C 11.682235 7.472863 -4.541884 0
M  V30 22 C 12.234176 7.019618 -3.327138 0
M  V30 23 C 12.459430 7.931968 -2.282645 0
M  V30 24 C 12.127177 9.285530 -2.454744 0
M  V30 25 C 11.567184 9.728847 -3.667017 0
M  V30 26 C 11.332523 8.835147 -4.725523 0
M  V30 27 N 10.763860 9.279335 -5.864678 0
M  V30 28 C 9.009523 4.490011 -13.217010 0
M  V30 29 C 7.914855 4.092826 -14.214415 0
M  V30 30 H 10.618809 1.056149 -15.147455 0
M  V30 31 H 9.882158 -0.252877 -14.245921 0
M  V30 32 H 9.337906 0.121628 -15.905440 0
M  V30 33 H 7.673848 -0.985651 -14.818312 0
M  V30 34 H 5.365373 -1.642027 -14.441824 0
M  V30 35 H 3.736603 0.007520 -13.523582 0
M  V30 36 H 4.434827 2.294455 -13.057852 0
M  V30 37 H 5.683347 5.025706 -12.847328 0
M  V30 38 H 5.492260 3.595529 -11.857683 0
M  V30 39 H 6.886212 5.371642 -10.742857 0
M  V30 40 H 7.680991 3.810678 -10.871905 0
M  V30 41 H 9.072255 5.679575 -10.154936 0
M  V30 42 H 10.342819 5.242759 -11.239361 0
M  V30 43 H 10.382319 7.420340 -12.275681 0
M  V30 44 H 8.805279 7.846881 -11.664453 0
M  V30 45 H 11.209682 7.406343 -9.833656 0
M  V30 46 H 10.755558 8.960035 -10.488170 0
M  V30 47 H 8.486221 8.760983 -9.448720 0
M  V30 48 H 8.921500 7.260638 -8.686221 0
M  V30 49 H 9.595699 9.933100 -7.880310 0
M  V30 50 H 10.648097 6.353340 -7.587875 0
M  V30 51 H 11.706188 5.538602 -5.496613 0
M  V30 52 H 12.477235 5.976583 -3.186264 0
M  V30 53 H 12.885818 7.599868 -1.349211 0
M  V30 54 H 12.299597 9.983879 -1.650425 0
M  V30 55 H 11.286081 10.762849 -3.780523 0
M  V30 56 H 9.791939 5.049923 -13.730853 0
M  V30 57 H 9.473652 3.595616 -12.793923 0
M  V30 58 H 8.312115 3.545781 -15.063957 0
M  V30 59 H 7.506624 4.993557 -14.646784 0
M  V30 60 H 8.020100 6.134033 -12.572257 0
M  V30 END ATOM
M  V30 BEGIN BOND
M  V30 1 1 2 1
M  V30 2 1 3 2
M  V30 3 2 4 3
M  V30 4 1 5 4
M  V30 5 2 6 5
M  V30 6 1 7 6
M  V30 7 1 8 3
M  V30 8 2 8 7
M  V30 9 1 9 8
M  V30 10 1 10 9
M  V30 11 1 11 10
M  V30 12 1 12 11
M  V30 13 1 13 12
M  V30 14 1 14 13
M  V30 15 1 15 14
M  V30 16 1 16 15
M  V30 17 1 17 16
M  V30 18 1 18 17
M  V30 19 1 19 18
M  V30 20 2 20 19
M  V30 21 1 21 20
M  V30 22 2 22 21
M  V30 23 1 23 22
M  V30 24 2 24 23
M  V30 25 1 25 24
M  V30 26 1 26 21
M  V30 27 2 26 25
M  V30 28 2 27 18
M  V30 29 1 27 26
M  V30 30 1 28 12
M  V30 31 1 29 9
M  V30 32 1 29 28
M  V30 33 1 30 1
M  V30 34 1 31 1
M  V30 35 1 32 1
M  V30 36 1 33 4
M  V30 37 1 34 5
M  V30 38 1 35 6
M  V30 39 1 36 7
M  V30 40 1 37 10
M  V30 41 1 38 10
M  V30 42 1 39 11
M  V30 43 1 40 11
M  V30 44 1 41 13
M  V30 45 1 42 13
M  V30 46 1 43 14
M  V30 47 1 44 14
M  V30 48 1 45 15
M  V30 49 1 46 15
M  V30 50 1 47 16
M  V30 51 1 48 16
M  V30 52 1 49 17
M  V30 53 1 50 19
M  V30 54 1 51 20
M  V30 55 1 52 22
M  V30 56 1 53 23
M  V30 57 1 54 24
M  V30 58 1 55 25
M  V30 59 1 56 28
M  V30 60 1 57 28
M  V30 61 1 58 29
M  V30 62 1 59 29
M  V30 63 1 60 12
M  V30 END BOND
M  V30 END CTAB
M  END
>  <b_m_subgroup_collapsed>  (1024) 
0

>  <r_i_docking_score>  (1024) 
-7.5731331293892099

>  <s_m_subgroup_title>  (1024) 
glide-dock_SP_D22_pv

>  <s_m_subgroupid>  (1024) 
glide-dock_SP_D22_pv

>  <Molecule ChEMBL ID>  (1024) 
CHEMBL271989

>  <Standard Type>  (1024) 
Ki

>  <Standard Value>  (1024) 
5.6

>  <label>  (1024) 
1

$$$$
CHEMBL559873
     RDKit          3D

  0  0  0  0  0  0  0  0  0  0999 V3000
M  V30 BEGIN CTAB
M  V30 COUNTS 48 51 0 0 1
M  V30 BEGIN ATOM
M  V30 1 O 11.264181 7.497519 -9.336041 0
M  V30 2 C 10.337887 7.024458 -8.676643 0
M  V30 3 N 9.439483 6.130837 -9.123423 0
M  V30 4 C 9.399337 5.444836 -10.412702 0
M  V30 5 C 8.114939 5.800773 -11.181441 0
M  V30 6 N 7.816976 4.836897 -12.266955 0 CFG=1 CHG=1
M  V30 7 C 6.350723 4.713286 -12.494888 0
M  V30 8 C 5.942344 3.916209 -13.749619 0
M  V30 9 C 6.641578 2.562808 -13.930176 0
M  V30 10 C 8.103758 2.647111 -14.260362 0
M  V30 11 S 8.899761 1.265270 -14.974199 0
M  V30 12 C 10.420033 2.105543 -15.014845 0
M  V30 13 C 10.305764 3.372329 -14.510658 0
M  V30 14 C 8.980929 3.697309 -14.083615 0
M  V30 15 C 8.620330 5.032978 -13.495141 0
M  V30 16 C 8.542938 5.683176 -8.078315 0
M  V30 17 C 8.847600 6.639250 -6.944088 0
M  V30 18 N 10.073016 7.272613 -7.379039 0
M  V30 19 C 10.895324 7.953030 -6.450941 0
M  V30 20 C 11.379581 9.246151 -6.732113 0
M  V30 21 C 12.088945 9.953115 -5.746322 0
M  V30 22 C 12.328056 9.371936 -4.483391 0
M  V30 23 C 11.854848 8.079221 -4.203943 0
M  V30 24 Cl 12.096910 7.376424 -2.648297 0
M  V30 25 C 11.155373 7.366317 -5.191175 0
M  V30 26 H 9.459779 4.370903 -10.231490 0
M  V30 27 H 10.270007 5.715364 -11.008988 0
M  V30 28 H 8.148611 6.822220 -11.564229 0
M  V30 29 H 7.283425 5.771594 -10.486754 0
M  V30 30 H 5.912107 4.239855 -11.614986 0
M  V30 31 H 5.909945 5.710309 -12.557580 0
M  V30 32 H 4.870981 3.742954 -13.683150 0
M  V30 33 H 6.072092 4.512895 -14.646743 0
M  V30 34 H 6.141675 2.024529 -14.734710 0
M  V30 35 H 6.480428 1.947741 -13.046838 0
M  V30 36 H 11.300944 1.615871 -15.405200 0
M  V30 37 H 11.124775 4.073478 -14.438969 0
M  V30 38 H 9.535099 5.576046 -13.254025 0
M  V30 39 H 8.090437 5.660284 -14.212064 0
M  V30 40 H 7.502548 5.772194 -8.358149 0
M  V30 41 H 8.759403 4.641189 -7.846797 0
M  V30 42 H 8.898554 6.168096 -5.968448 0
M  V30 43 H 8.085992 7.416366 -6.879585 0
M  V30 44 H 11.184895 9.710457 -7.688027 0
M  V30 45 H 12.451775 10.946903 -5.962221 0
M  V30 46 H 12.867087 9.918717 -3.723503 0
M  V30 47 H 10.800929 6.373185 -4.957170 0
M  V30 48 H 8.106890 3.936280 -11.912610 0
M  V30 END ATOM
M  V30 BEGIN BOND
M  V30 1 2 2 1
M  V30 2 1 3 2
M  V30 3 1 4 3
M  V30 4 1 5 4
M  V30 5 1 6 5
M  V30 6 1 7 6
M  V30 7 1 8 7
M  V30 8 1 9 8
M  V30 9 1 10 9
M  V30 10 1 11 10
M  V30 11 1 12 11
M  V30 12 2 13 12
M  V30 13 2 14 10
M  V30 14 1 14 13
M  V30 15 1 15 6
M  V30 16 1 15 14
M  V30 17 1 16 3
M  V30 18 1 17 16
M  V30 19 1 18 2
M  V30 20 1 18 17
M  V30 21 1 19 18
M  V30 22 2 20 19
M  V30 23 1 21 20
M  V30 24 2 22 21
M  V30 25 1 23 22
M  V30 26 1 24 23
M  V30 27 1 25 19
M  V30 28 2 25 23
M  V30 29 1 26 4
M  V30 30 1 27 4
M  V30 31 1 28 5
M  V30 32 1 29 5
M  V30 33 1 30 7
M  V30 34 1 31 7
M  V30 35 1 32 8
M  V30 36 1 33 8
M  V30 37 1 34 9
M  V30 38 1 35 9
M  V30 39 1 36 12
M  V30 40 1 37 13
M  V30 41 1 38 15
M  V30 42 1 39 15
M  V30 43 1 40 16
M  V30 44 1 41 16
M  V30 45 1 42 17
M  V30 46 1 43 17
M  V30 47 1 44 20
M  V30 48 1 45 21
M  V30 49 1 46 22
M  V30 50 1 47 25
M  V30 51 1 6 48 CFG=1
M  V30 END BOND
M  V30 END CTAB
M  END
>  <b_m_subgroup_collapsed>  (1025) 
0

>  <r_i_docking_score>  (1025) 
-7.5729661377872999

>  <s_m_subgroup_title>  (1025) 
glide-dock_SP_D22_pv

>  <s_m_subgroupid>  (1025) 
glide-dock_SP_D22_pv

>  <Molecule ChEMBL ID>  (1025) 
CHEMBL559873

>  <Standard Type>  (1025) 
Ki

>  <Standard Value>  (1025) 
3.162

>  <label>  (1025) 
1

$$$$
CHEMBL4291172
     RDKit          3D

  0  0  0  0  0  0  0  0  0  0999 V3000
M  V30 BEGIN CTAB
M  V30 COUNTS 53 55 0 0 1
M  V30 BEGIN ATOM
M  V30 1 C 6.043113 -1.029911 -16.831318 0
M  V30 2 O 5.535815 -0.984847 -15.505839 0
M  V30 3 C 5.761012 0.171199 -14.793764 0
M  V30 4 C 6.910849 0.974435 -14.977637 0
M  V30 5 C 7.077290 2.165600 -14.247422 0
M  V30 6 C 6.085806 2.572314 -13.321989 0
M  V30 7 C 4.954417 1.760201 -13.111813 0
M  V30 8 C 4.793333 0.560299 -13.840098 0
M  V30 9 O 3.685498 -0.222744 -13.666359 0
M  V30 10 C 6.233462 3.866008 -12.530893 0
M  V30 11 N 7.632567 4.360097 -12.491526 0 CFG=2 CHG=1
M  V30 12 C 7.747356 5.641160 -11.755047 0
M  V30 13 C 9.206175 5.984305 -11.413791 0
M  V30 14 C 9.300527 6.924285 -10.209968 0
M  V30 15 C 10.742813 7.338758 -9.881367 0
M  V30 16 N 10.971075 7.511341 -8.453135 0
M  V30 17 C 10.264789 8.293450 -7.627355 0
M  V30 18 O 9.299262 8.972262 -7.968100 0
M  V30 19 C 10.796552 8.348406 -6.230690 0
M  V30 20 C 10.885479 9.587551 -5.560499 0
M  V30 21 C 11.379576 9.645954 -4.246552 0
M  V30 22 C 11.795911 8.469535 -3.602423 0
M  V30 23 Br 12.486357 8.569348 -1.842088 0
M  V30 24 C 11.687803 7.225007 -4.250218 0
M  V30 25 C 11.187914 7.164194 -5.562691 0
M  V30 26 C 8.245708 4.376243 -13.841162 0
M  V30 27 C 8.365186 2.953524 -14.391624 0
M  V30 28 H 5.699678 -1.945395 -17.310955 0
M  V30 29 H 5.672502 -0.187098 -17.417080 0
M  V30 30 H 7.132699 -1.028527 -16.864344 0
M  V30 31 H 7.693376 0.675375 -15.658915 0
M  V30 32 H 4.198997 2.091843 -12.418887 0
M  V30 33 H 2.905801 0.242443 -13.402588 0
M  V30 34 H 5.587154 4.623312 -12.977157 0
M  V30 35 H 5.882257 3.703144 -11.508369 0
M  V30 36 H 7.279552 6.455063 -12.311065 0
M  V30 37 H 7.193090 5.545100 -10.822124 0
M  V30 38 H 9.750667 5.069271 -11.170174 0
M  V30 39 H 9.708926 6.432635 -12.276218 0
M  V30 40 H 8.711296 7.824744 -10.393063 0
M  V30 41 H 8.836918 6.429949 -9.351295 0
M  V30 42 H 11.436807 6.574751 -10.219732 0
M  V30 43 H 11.007663 8.254042 -10.413824 0
M  V30 44 H 11.756042 7.016283 -8.053799 0
M  V30 45 H 10.574724 10.495174 -6.054495 0
M  V30 46 H 11.437357 10.586823 -3.723636 0
M  V30 47 H 11.988549 6.320302 -3.740172 0
M  V30 48 H 11.095798 6.200699 -6.045263 0
M  V30 49 H 9.232256 4.834064 -13.836687 0
M  V30 50 H 7.631345 4.973414 -14.506778 0
M  V30 51 H 9.152939 2.417375 -13.858921 0
M  V30 52 H 8.662096 2.985030 -15.441722 0
M  V30 53 H 8.152773 3.680733 -11.952710 0
M  V30 END ATOM
M  V30 BEGIN BOND
M  V30 1 1 2 1
M  V30 2 1 3 2
M  V30 3 2 4 3
M  V30 4 1 5 4
M  V30 5 2 6 5
M  V30 6 1 7 6
M  V30 7 1 8 3
M  V30 8 2 8 7
M  V30 9 1 9 8
M  V30 10 1 10 6
M  V30 11 1 11 10
M  V30 12 1 12 11
M  V30 13 1 13 12
M  V30 14 1 14 13
M  V30 15 1 15 14
M  V30 16 1 16 15
M  V30 17 1 17 16
M  V30 18 2 18 17
M  V30 19 1 19 17
M  V30 20 1 20 19
M  V30 21 2 21 20
M  V30 22 1 22 21
M  V30 23 1 23 22
M  V30 24 2 24 22
M  V30 25 2 25 19
M  V30 26 1 25 24
M  V30 27 1 26 11
M  V30 28 1 27 5
M  V30 29 1 27 26
M  V30 30 1 28 1
M  V30 31 1 29 1
M  V30 32 1 30 1
M  V30 33 1 31 4
M  V30 34 1 32 7
M  V30 35 1 33 9
M  V30 36 1 34 10
M  V30 37 1 35 10
M  V30 38 1 36 12
M  V30 39 1 37 12
M  V30 40 1 38 13
M  V30 41 1 39 13
M  V30 42 1 40 14
M  V30 43 1 41 14
M  V30 44 1 42 15
M  V30 45 1 43 15
M  V30 46 1 44 16
M  V30 47 1 45 20
M  V30 48 1 46 21
M  V30 49 1 47 24
M  V30 50 1 48 25
M  V30 51 1 49 26
M  V30 52 1 50 26
M  V30 53 1 51 27
M  V30 54 1 52 27
M  V30 55 1 11 53 CFG=1
M  V30 END BOND
M  V30 END CTAB
M  END
>  <b_m_subgroup_collapsed>  (1026) 
0

>  <r_i_docking_score>  (1026) 
-7.5729560976001897

>  <s_m_subgroup_title>  (1026) 
glide-dock_SP_D22_pv

>  <s_m_subgroupid>  (1026) 
glide-dock_SP_D22_pv

>  <Molecule ChEMBL ID>  (1026) 
CHEMBL4291172

>  <Standard Type>  (1026) 
Ki

>  <Standard Value>  (1026) 
10000.0

>  <label>  (1026) 
0

$$$$
CHEMBL4451063
     RDKit          3D

  0  0  0  0  0  0  0  0  0  0999 V3000
M  V30 BEGIN CTAB
M  V30 COUNTS 61 65 0 0 1
M  V30 BEGIN ATOM
M  V30 1 C 11.938352 3.352701 -15.751307 0
M  V30 2 C 10.547544 2.693212 -15.661115 0 CFG=1
M  V30 3 C 10.586086 1.248464 -15.122918 0
M  V30 4 O 9.293274 0.668870 -15.247544 0
M  V30 5 C 8.303601 1.351527 -14.483685 0 CFG=2
M  V30 6 C 6.946347 0.671394 -14.567884 0
M  V30 7 C 6.641594 -0.227423 -15.611654 0
M  V30 8 C 5.365625 -0.817430 -15.653501 0
M  V30 9 C 4.445980 -0.483206 -14.646618 0
M  V30 10 N 3.174457 -1.027659 -14.657726 0
M  V30 11 N 4.715079 0.370641 -13.643740 0
M  V30 12 C 5.937567 0.938531 -13.615140 0
M  V30 13 C 8.219220 2.818974 -14.961154 0
M  V30 14 N 9.538997 3.502581 -14.914208 0 CFG=1 CHG=1
M  V30 15 C 9.936787 3.933641 -13.542953 0
M  V30 16 C 9.064013 5.054106 -13.001585 0 CFG=1
M  V30 17 C 8.041272 4.817204 -11.914849 0
M  V30 18 C 9.330622 5.535188 -11.591270 0 CFG=2
M  V30 19 C 9.327803 7.016971 -11.229976 0
M  V30 20 N 9.753863 7.397162 -9.875058 0
M  V30 21 C 9.671630 6.662121 -8.752345 0
M  V30 22 O 9.200182 5.528152 -8.708400 0
M  V30 23 C 10.311085 7.215133 -7.540847 0
M  V30 24 C 11.045629 6.572299 -6.582901 0
M  V30 25 C 11.285940 7.499341 -5.523053 0
M  V30 26 C 11.893899 7.408570 -4.246960 0
M  V30 27 C 12.001754 8.536789 -3.414548 0
M  V30 28 C 11.491626 9.772243 -3.846114 0
M  V30 29 C 10.886900 9.897950 -5.110208 0
M  V30 30 C 10.769590 8.764065 -5.931874 0
M  V30 31 N 10.181191 8.546319 -7.171082 0
M  V30 32 H 12.577965 2.803920 -16.445080 0
M  V30 33 H 11.869183 4.376634 -16.117817 0
M  V30 34 H 12.459009 3.372605 -14.795579 0
M  V30 35 H 10.181872 2.632797 -16.688793 0
M  V30 36 H 10.917933 1.214924 -14.084356 0
M  V30 37 H 11.286885 0.647477 -15.702202 0
M  V30 38 H 8.616169 1.304677 -13.446964 0
M  V30 39 H 7.368450 -0.467306 -16.373814 0
M  V30 40 H 5.107121 -1.512047 -16.439104 0
M  V30 41 H 2.888325 -1.659981 -15.393848 0
M  V30 42 H 2.444863 -0.664141 -14.059207 0
M  V30 43 H 6.090212 1.634449 -12.803346 0
M  V30 44 H 7.874419 2.821285 -15.994926 0
M  V30 45 H 7.479796 3.375428 -14.384902 0
M  V30 46 H 9.941496 3.094121 -12.844942 0
M  V30 47 H 10.950936 4.331588 -13.545051 0
M  V30 48 H 8.829630 5.829980 -13.727728 0
M  V30 49 H 7.129049 5.411256 -11.934505 0
M  V30 50 H 7.921872 3.807133 -11.530260 0
M  V30 51 H 10.085476 4.956321 -11.068256 0
M  V30 52 H 10.007882 7.519628 -11.917991 0
M  V30 53 H 8.343452 7.437662 -11.443483 0
M  V30 54 H 10.199660 8.297684 -9.787420 0
M  V30 55 H 11.331757 5.534761 -6.595033 0
M  V30 56 H 12.275730 6.456192 -3.909481 0
M  V30 57 H 12.458786 8.448387 -2.441573 0
M  V30 58 H 11.560064 10.623730 -3.186035 0
M  V30 59 H 10.488977 10.850241 -5.431510 0
M  V30 60 H 9.633449 9.211982 -7.697953 0
M  V30 61 H 9.437827 4.361268 -15.436994 0
M  V30 END ATOM
M  V30 BEGIN BOND
M  V30 1 1 2 1
M  V30 2 1 3 2
M  V30 3 1 4 3
M  V30 4 1 5 4
M  V30 5 1 6 5
M  V30 6 1 7 6
M  V30 7 2 8 7
M  V30 8 1 9 8
M  V30 9 1 10 9
M  V30 10 2 11 9
M  V30 11 2 12 6
M  V30 12 1 12 11
M  V30 13 1 13 5
M  V30 14 1 14 2
M  V30 15 1 14 13
M  V30 16 1 15 14
M  V30 17 1 16 15
M  V30 18 1 17 16
M  V30 19 1 18 16
M  V30 20 1 18 17
M  V30 21 1 19 18
M  V30 22 1 20 19
M  V30 23 1 21 20
M  V30 24 2 22 21
M  V30 25 1 23 21
M  V30 26 2 24 23
M  V30 27 1 25 24
M  V30 28 2 26 25
M  V30 29 1 27 26
M  V30 30 2 28 27
M  V30 31 1 29 28
M  V30 32 1 30 25
M  V30 33 2 30 29
M  V30 34 1 31 23
M  V30 35 1 31 30
M  V30 36 1 32 1
M  V30 37 1 33 1
M  V30 38 1 34 1
M  V30 39 1 2 35 CFG=3
M  V30 40 1 36 3
M  V30 41 1 37 3
M  V30 42 1 5 38 CFG=1
M  V30 43 1 39 7
M  V30 44 1 40 8
M  V30 45 1 41 10
M  V30 46 1 42 10
M  V30 47 1 43 12
M  V30 48 1 44 13
M  V30 49 1 45 13
M  V30 50 1 46 15
M  V30 51 1 47 15
M  V30 52 1 16 48 CFG=3
M  V30 53 1 49 17
M  V30 54 1 50 17
M  V30 55 1 18 51 CFG=1
M  V30 56 1 52 19
M  V30 57 1 53 19
M  V30 58 1 54 20
M  V30 59 1 55 24
M  V30 60 1 56 26
M  V30 61 1 57 27
M  V30 62 1 58 28
M  V30 63 1 59 29
M  V30 64 1 60 31
M  V30 65 1 14 61 CFG=3
M  V30 END BOND
M  V30 END CTAB
M  END
>  <b_m_subgroup_collapsed>  (1027) 
0

>  <r_i_docking_score>  (1027) 
-7.57270107878578

>  <s_m_subgroup_title>  (1027) 
glide-dock_SP_D22_pv

>  <s_m_subgroupid>  (1027) 
glide-dock_SP_D22_pv

>  <Molecule ChEMBL ID>  (1027) 
CHEMBL4451063

>  <Standard Type>  (1027) 
Ki

>  <Standard Value>  (1027) 
14100.0

>  <label>  (1027) 
0

$$$$
CHEMBL541826
     RDKit          3D

  0  0  0  0  0  0  0  0  0  0999 V3000
M  V30 BEGIN CTAB
M  V30 COUNTS 60 63 0 0 1
M  V30 BEGIN ATOM
M  V30 1 C 12.404265 8.153287 -3.038782 0
M  V30 2 C 12.029886 9.373993 -3.622501 0
M  V30 3 C 11.286278 9.391888 -4.820123 0
M  V30 4 C 10.884361 8.183522 -5.440165 0
M  V30 5 N 10.044028 8.194330 -6.574656 0
M  V30 6 C 10.157756 9.212032 -7.601876 0
M  V30 7 C 10.437350 8.557678 -8.957791 0
M  V30 8 N 9.522972 7.423060 -9.293204 0 CHG=1
M  V30 9 C 10.024367 6.777328 -10.531232 0
M  V30 10 C 9.065513 5.852859 -11.287429 0
M  V30 11 C 9.712942 5.499434 -12.648623 0
M  V30 12 C 9.533099 4.052809 -13.110730 0
M  V30 13 C 8.115993 3.776305 -13.601743 0
M  V30 14 N 8.049922 2.460198 -14.247521 0
M  V30 15 C 7.015007 1.604810 -14.186350 0
M  V30 16 N 7.075556 0.482352 -14.919753 0 CHG=1
M  V30 17 C 5.849972 -0.188469 -15.172319 0
M  V30 18 C 5.708522 -0.984387 -16.322977 0
M  V30 19 C 4.475696 -1.610321 -16.567326 0
M  V30 20 C 3.414944 -1.427501 -15.663611 0
M  V30 21 C 3.562912 -0.632882 -14.513325 0
M  V30 22 C 4.787642 0.010281 -14.270025 0
M  V30 23 O 4.914248 0.826314 -13.179972 0
M  V30 24 C 5.789599 1.928880 -13.367682 0
M  V30 25 C 9.354904 6.453013 -8.171624 0
M  V30 26 C 9.060841 7.150136 -6.832216 0
M  V30 27 C 11.286569 6.962258 -4.850675 0
M  V30 28 C 12.040887 6.946756 -3.659825 0
M  V30 29 H 12.961530 8.146834 -2.114536 0
M  V30 30 H 12.296005 10.295829 -3.127733 0
M  V30 31 H 10.979168 10.346178 -5.221655 0
M  V30 32 H 9.225831 9.770625 -7.657577 0
M  V30 33 H 10.955210 9.920959 -7.377397 0
M  V30 34 H 10.388754 9.317142 -9.739291 0
M  V30 35 H 11.464643 8.189544 -8.947306 0
M  V30 36 H 10.354236 7.556003 -11.220995 0
M  V30 37 H 10.890577 6.178792 -10.262648 0
M  V30 38 H 8.891200 4.952460 -10.698939 0
M  V30 39 H 8.095738 6.329314 -11.439062 0
M  V30 40 H 9.340504 6.173042 -13.420271 0
M  V30 41 H 10.789990 5.678456 -12.613628 0
M  V30 42 H 10.238942 3.857470 -13.920677 0
M  V30 43 H 9.799278 3.365723 -12.302980 0
M  V30 44 H 7.428723 3.853507 -12.762192 0
M  V30 45 H 7.809326 4.529947 -14.327748 0
M  V30 46 H 8.841550 2.223123 -14.826678 0
M  V30 47 H 6.530388 -1.127718 -17.009420 0
M  V30 48 H 4.340495 -2.242101 -17.434324 0
M  V30 49 H 2.486070 -1.929080 -15.848726 0
M  V30 50 H 2.729799 -0.501432 -13.837930 0
M  V30 51 H 6.082177 2.257600 -12.371222 0
M  V30 52 H 5.257685 2.754400 -13.840072 0
M  V30 53 H 8.545744 5.763073 -8.410085 0
M  V30 54 H 10.263272 5.858215 -8.060130 0
M  V30 55 H 9.001698 6.426610 -6.021214 0
M  V30 56 H 8.083858 7.630892 -6.873021 0
M  V30 57 H 11.012943 6.019097 -5.295111 0
M  V30 58 H 12.326161 6.004721 -3.214191 0
M  V30 59 H 7.898656 0.273329 -15.464040 0
M  V30 60 H 8.601419 7.803217 -9.483538 0
M  V30 END ATOM
M  V30 BEGIN BOND
M  V30 1 2 2 1
M  V30 2 1 3 2
M  V30 3 2 4 3
M  V30 4 1 5 4
M  V30 5 1 6 5
M  V30 6 1 7 6
M  V30 7 1 8 7
M  V30 8 1 9 8
M  V30 9 1 10 9
M  V30 10 1 11 10
M  V30 11 1 12 11
M  V30 12 1 13 12
M  V30 13 1 14 13
M  V30 14 1 15 14
M  V30 15 2 16 15
M  V30 16 1 17 16
M  V30 17 2 18 17
M  V30 18 1 19 18
M  V30 19 2 20 19
M  V30 20 1 21 20
M  V30 21 1 22 17
M  V30 22 2 22 21
M  V30 23 1 23 22
M  V30 24 1 24 15
M  V30 25 1 24 23
M  V30 26 1 25 8
M  V30 27 1 26 5
M  V30 28 1 26 25
M  V30 29 1 27 4
M  V30 30 1 28 1
M  V30 31 2 28 27
M  V30 32 1 29 1
M  V30 33 1 30 2
M  V30 34 1 31 3
M  V30 35 1 32 6
M  V30 36 1 33 6
M  V30 37 1 34 7
M  V30 38 1 35 7
M  V30 39 1 36 9
M  V30 40 1 37 9
M  V30 41 1 38 10
M  V30 42 1 39 10
M  V30 43 1 40 11
M  V30 44 1 41 11
M  V30 45 1 42 12
M  V30 46 1 43 12
M  V30 47 1 44 13
M  V30 48 1 45 13
M  V30 49 1 46 14
M  V30 50 1 47 18
M  V30 51 1 48 19
M  V30 52 1 49 20
M  V30 53 1 50 21
M  V30 54 1 51 24
M  V30 55 1 52 24
M  V30 56 1 53 25
M  V30 57 1 54 25
M  V30 58 1 55 26
M  V30 59 1 56 26
M  V30 60 1 57 27
M  V30 61 1 58 28
M  V30 62 1 59 16
M  V30 63 1 60 8
M  V30 END BOND
M  V30 END CTAB
M  END
>  <b_m_subgroup_collapsed>  (1028) 
0

>  <r_i_docking_score>  (1028) 
-7.57256025527081

>  <s_m_subgroup_title>  (1028) 
glide-dock_SP_D22_pv

>  <s_m_subgroupid>  (1028) 
glide-dock_SP_D22_pv

>  <Molecule ChEMBL ID>  (1028) 
CHEMBL541826

>  <Standard Type>  (1028) 
Ki

>  <Standard Value>  (1028) 
94.0

>  <label>  (1028) 
1

$$$$
CHEMBL5761193
     RDKit          3D

  0  0  0  0  0  0  0  0  0  0999 V3000
M  V30 BEGIN CTAB
M  V30 COUNTS 56 60 0 0 1
M  V30 BEGIN ATOM
M  V30 1 C 10.185923 -0.256837 -16.334461 0
M  V30 2 N 10.264417 1.116748 -15.877461 0
M  V30 3 N 11.286119 1.893047 -16.308826 0
M  V30 4 C 11.081451 3.077215 -15.753901 0
M  V30 5 C 9.920959 3.065517 -14.937221 0
M  V30 6 C 9.396872 1.807569 -15.047364 0
M  V30 7 C 8.147139 1.211018 -14.477045 0
M  V30 8 C 6.966748 2.193875 -14.537247 0
M  V30 9 C 7.009659 3.368600 -13.532958 0
M  V30 10 C 8.398327 3.844301 -13.038699 0 CFG=2
M  V30 11 C 8.253332 4.935374 -11.944291 0
M  V30 12 C 9.539036 5.123513 -11.123129 0
M  V30 13 N 9.282220 5.732703 -9.817197 0
M  V30 14 C 9.275652 7.198055 -9.908904 0
M  V30 15 C 9.055546 7.826023 -8.510661 0
M  V30 16 N 10.073140 7.376478 -7.557799 0
M  V30 17 C 10.734254 8.248919 -6.658058 0
M  V30 18 N 10.905665 9.495242 -7.035518 0
M  V30 19 S 11.677926 10.371099 -5.848518 0
M  V30 20 C 11.826305 9.050167 -4.729260 0
M  V30 21 C 12.393344 9.046448 -3.443236 0
M  V30 22 C 12.417213 7.858863 -2.698121 0
M  V30 23 C 11.861459 6.692368 -3.249333 0
M  V30 24 C 11.286248 6.714348 -4.537610 0
M  V30 25 C 11.251560 7.889369 -5.332835 0
M  V30 26 C 10.198396 5.934353 -7.516650 0
M  V30 27 C 10.377060 5.372211 -8.928135 0
M  V30 28 C 9.375038 4.207807 -14.169438 0
M  V30 29 O 9.723427 5.371549 -14.356130 0
M  V30 30 H 10.236776 -0.929912 -15.478373 0
M  V30 31 H 9.245174 -0.417089 -16.859234 0
M  V30 32 H 11.004146 -0.482319 -17.018147 0
M  V30 33 H 11.770795 3.886033 -15.950186 0
M  V30 34 H 7.874007 0.318817 -15.039913 0
M  V30 35 H 8.324697 0.867773 -13.456663 0
M  V30 36 H 6.044649 1.639029 -14.362365 0
M  V30 37 H 6.882320 2.572579 -15.555985 0
M  V30 38 H 6.442826 3.057828 -12.654890 0
M  V30 39 H 6.454555 4.212841 -13.944230 0
M  V30 40 H 8.886341 2.994568 -12.565248 0
M  V30 41 H 7.929775 5.883998 -12.375103 0
M  V30 42 H 7.456976 4.636598 -11.260068 0
M  V30 43 H 9.960744 4.130243 -10.964713 0
M  V30 44 H 10.286290 5.688285 -11.683254 0
M  V30 45 H 10.213798 7.559594 -10.332579 0
M  V30 46 H 8.486149 7.515973 -10.589635 0
M  V30 47 H 9.028767 8.911823 -8.597561 0
M  V30 48 H 8.086414 7.525806 -8.118712 0
M  V30 49 H 12.813778 9.954048 -3.035456 0
M  V30 50 H 12.857987 7.845752 -1.712522 0
M  V30 51 H 11.867060 5.773616 -2.679781 0
M  V30 52 H 10.847808 5.801450 -4.899540 0
M  V30 53 H 11.083083 5.659398 -6.949960 0
M  V30 54 H 9.316548 5.502471 -7.046578 0
M  V30 55 H 10.482968 4.288200 -8.876482 0
M  V30 56 H 11.285991 5.779044 -9.353813 0
M  V30 END ATOM
M  V30 BEGIN BOND
M  V30 1 1 2 1
M  V30 2 1 3 2
M  V30 3 2 4 3
M  V30 4 1 5 4
M  V30 5 1 6 2
M  V30 6 2 6 5
M  V30 7 1 7 6
M  V30 8 1 8 7
M  V30 9 1 9 8
M  V30 10 1 10 9
M  V30 11 1 11 10
M  V30 12 1 12 11
M  V30 13 1 13 12
M  V30 14 1 14 13
M  V30 15 1 15 14
M  V30 16 1 16 15
M  V30 17 1 17 16
M  V30 18 2 18 17
M  V30 19 1 19 18
M  V30 20 1 20 19
M  V30 21 2 21 20
M  V30 22 1 22 21
M  V30 23 2 23 22
M  V30 24 1 24 23
M  V30 25 1 25 17
M  V30 26 1 25 20
M  V30 27 2 25 24
M  V30 28 1 26 16
M  V30 29 1 27 13
M  V30 30 1 27 26
M  V30 31 1 28 5
M  V30 32 1 28 10
M  V30 33 2 29 28
M  V30 34 1 30 1
M  V30 35 1 31 1
M  V30 36 1 32 1
M  V30 37 1 33 4
M  V30 38 1 34 7
M  V30 39 1 35 7
M  V30 40 1 36 8
M  V30 41 1 37 8
M  V30 42 1 38 9
M  V30 43 1 39 9
M  V30 44 1 10 40 CFG=1
M  V30 45 1 41 11
M  V30 46 1 42 11
M  V30 47 1 43 12
M  V30 48 1 44 12
M  V30 49 1 45 14
M  V30 50 1 46 14
M  V30 51 1 47 15
M  V30 52 1 48 15
M  V30 53 1 49 21
M  V30 54 1 50 22
M  V30 55 1 51 23
M  V30 56 1 52 24
M  V30 57 1 53 26
M  V30 58 1 54 26
M  V30 59 1 55 27
M  V30 60 1 56 27
M  V30 END BOND
M  V30 END CTAB
M  END
>  <b_m_subgroup_collapsed>  (1029) 
0

>  <r_i_docking_score>  (1029) 
-7.5716563205079801

>  <s_m_subgroup_title>  (1029) 
glide-dock_SP_D22_pv

>  <s_m_subgroupid>  (1029) 
glide-dock_SP_D22_pv

>  <Molecule ChEMBL ID>  (1029) 
CHEMBL5761193

>  <Standard Type>  (1029) 
Ki

>  <Standard Value>  (1029) 
99.0

>  <label>  (1029) 
1

$$$$
CHEMBL166252
     RDKit          3D

  0  0  0  0  0  0  0  0  0  0999 V3000
M  V30 BEGIN CTAB
M  V30 COUNTS 55 58 0 0 1
M  V30 BEGIN ATOM
M  V30 1 C 5.256865 -0.953072 -17.062412 0
M  V30 2 C 5.800019 0.002762 -17.941204 0
M  V30 3 N 6.606650 0.993246 -17.509687 0
M  V30 4 C 6.869673 1.020574 -16.203495 0
M  V30 5 N 7.643157 2.083182 -15.794897 0
M  V30 6 C 7.737849 2.563066 -14.424448 0 CFG=1
M  V30 7 C 8.925019 3.528875 -14.287659 0
M  V30 8 C 9.050555 4.059435 -12.856456 0
M  V30 9 C 7.759991 4.770174 -12.392576 0 CFG=2
M  V30 10 C 7.864052 5.286459 -10.947291 0
M  V30 11 C 9.000259 6.297600 -10.707968 0
M  V30 12 N 8.886146 6.978245 -9.394517 0 CHG=1
M  V30 13 C 9.733904 8.192896 -9.322530 0
M  V30 14 C 9.622730 8.889183 -7.957479 0
M  V30 15 N 9.947407 7.978308 -6.859601 0
M  V30 16 C 10.885276 8.197033 -5.847951 0
M  V30 17 N 11.268932 7.274508 -4.959243 0
M  V30 18 C 12.086505 7.799626 -3.956450 0
M  V30 19 C 12.371907 9.131290 -4.128983 0
M  V30 20 S 11.616261 9.773541 -5.560875 0
M  V30 21 C 9.023171 6.848452 -6.901622 0
M  V30 22 C 9.106240 6.079040 -8.230116 0
M  V30 23 C 6.519543 3.859721 -12.554975 0
M  V30 24 C 6.426290 3.239717 -13.958314 0
M  V30 25 N 6.413081 0.172466 -15.279369 0
M  V30 26 C 5.613268 -0.824284 -15.706918 0
M  V30 27 H 4.606486 -1.745711 -17.404182 0
M  V30 28 H 5.579937 -0.025823 -18.999884 0
M  V30 29 H 7.963595 2.690623 -16.531382 0
M  V30 30 H 7.933488 1.691192 -13.799567 0
M  V30 31 H 8.809089 4.368349 -14.977192 0
M  V30 32 H 9.848110 3.021233 -14.568812 0
M  V30 33 H 9.896933 4.744371 -12.819989 0
M  V30 34 H 9.302274 3.239203 -12.184324 0
M  V30 35 H 7.613484 5.634438 -13.042192 0
M  V30 36 H 7.966028 4.437398 -10.269352 0
M  V30 37 H 6.919777 5.771400 -10.702419 0
M  V30 38 H 8.957215 7.052363 -11.492620 0
M  V30 39 H 9.976486 5.815538 -10.780725 0
M  V30 40 H 9.436968 8.889435 -10.106845 0
M  V30 41 H 10.775693 7.923481 -9.513615 0
M  V30 42 H 8.613077 9.281250 -7.814952 0
M  V30 43 H 10.293382 9.743152 -7.941313 0
M  V30 44 H 12.431533 7.151593 -3.164457 0
M  V30 45 H 12.982044 9.770741 -3.506055 0
M  V30 46 H 9.224396 6.172298 -6.071530 0
M  V30 47 H 8.010628 7.219802 -6.738451 0
M  V30 48 H 8.361857 5.283390 -8.218174 0
M  V30 49 H 10.084617 5.602471 -8.316453 0
M  V30 50 H 6.489480 3.071994 -11.803350 0
M  V30 51 H 5.619890 4.447717 -12.368254 0
M  V30 52 H 6.140903 4.031661 -14.646209 0
M  V30 53 H 5.607853 2.518453 -13.969258 0
M  V30 54 H 5.243895 -1.516740 -14.963889 0
M  V30 55 H 7.920289 7.306189 -9.349688 0
M  V30 END ATOM
M  V30 BEGIN BOND
M  V30 1 2 2 1
M  V30 2 1 3 2
M  V30 3 2 4 3
M  V30 4 1 5 4
M  V30 5 1 6 5
M  V30 6 1 7 6
M  V30 7 1 8 7
M  V30 8 1 9 8
M  V30 9 1 10 9
M  V30 10 1 11 10
M  V30 11 1 12 11
M  V30 12 1 13 12
M  V30 13 1 14 13
M  V30 14 1 15 14
M  V30 15 1 16 15
M  V30 16 2 17 16
M  V30 17 1 18 17
M  V30 18 2 19 18
M  V30 19 1 20 16
M  V30 20 1 20 19
M  V30 21 1 21 15
M  V30 22 1 22 12
M  V30 23 1 22 21
M  V30 24 1 23 9
M  V30 25 1 24 6
M  V30 26 1 24 23
M  V30 27 1 25 4
M  V30 28 1 26 1
M  V30 29 2 26 25
M  V30 30 1 27 1
M  V30 31 1 28 2
M  V30 32 1 29 5
M  V30 33 1 6 30 CFG=1
M  V30 34 1 31 7
M  V30 35 1 32 7
M  V30 36 1 33 8
M  V30 37 1 34 8
M  V30 38 1 9 35 CFG=3
M  V30 39 1 36 10
M  V30 40 1 37 10
M  V30 41 1 38 11
M  V30 42 1 39 11
M  V30 43 1 40 13
M  V30 44 1 41 13
M  V30 45 1 42 14
M  V30 46 1 43 14
M  V30 47 1 44 18
M  V30 48 1 45 19
M  V30 49 1 46 21
M  V30 50 1 47 21
M  V30 51 1 48 22
M  V30 52 1 49 22
M  V30 53 1 50 23
M  V30 54 1 51 23
M  V30 55 1 52 24
M  V30 56 1 53 24
M  V30 57 1 54 26
M  V30 58 1 55 12
M  V30 END BOND
M  V30 END CTAB
M  END
>  <b_m_subgroup_collapsed>  (1030) 
0

>  <r_i_docking_score>  (1030) 
-7.5701492926915703

>  <s_m_subgroup_title>  (1030) 
glide-dock_SP_D22_pv

>  <s_m_subgroupid>  (1030) 
glide-dock_SP_D22_pv

>  <Molecule ChEMBL ID>  (1030) 
CHEMBL166252

>  <Standard Type>  (1030) 
Ki

>  <Standard Value>  (1030) 
46.0

>  <label>  (1030) 
1

$$$$
CHEMBL1082210
     RDKit          3D

  0  0  0  0  0  0  0  0  0  0999 V3000
M  V30 BEGIN CTAB
M  V30 COUNTS 57 61 0 0 1
M  V30 BEGIN ATOM
M  V30 1 C 10.136797 4.543208 -17.763950 0
M  V30 2 C 11.233347 3.593956 -17.237747 0 CFG=1
M  V30 3 C 12.320570 4.313620 -16.408880 0
M  V30 4 N 11.793067 4.769576 -15.110769 0
M  V30 5 C 11.880198 6.076438 -14.732890 0
M  V30 6 O 12.335306 6.942385 -15.482929 0
M  V30 7 C 11.496512 6.508027 -13.338311 0
M  V30 8 C 12.358913 7.371403 -12.628132 0
M  V30 9 C 12.060753 7.772285 -11.311840 0
M  V30 10 C 10.856105 7.371862 -10.683453 0
M  V30 11 C 10.585838 7.682551 -9.258942 0
M  V30 12 C 9.685125 6.897223 -8.494749 0
M  V30 13 C 9.466083 7.152187 -7.128789 0
M  V30 14 C 10.154397 8.199185 -6.494817 0
M  V30 15 C 11.041081 8.998397 -7.230319 0
M  V30 16 F 11.686615 10.021613 -6.622448 0
M  V30 17 C 11.252562 8.741473 -8.597680 0
M  V30 18 C 9.941244 6.608798 -11.449905 0
M  V30 19 C 10.256557 6.172191 -12.750706 0
M  V30 20 C 11.284494 3.619303 -14.343186 0
M  V30 21 C 10.164342 2.913474 -15.132242 0
M  V30 22 N 10.663741 2.475273 -16.453362 0
M  V30 23 C 10.751511 1.153620 -16.778500 0
M  V30 24 O 10.485418 0.252573 -15.980224 0
M  V30 25 C 11.205538 0.752309 -18.161478 0
M  V30 26 C 10.553267 1.226266 -19.322258 0
M  V30 27 C 10.986635 0.828502 -20.605610 0
M  V30 28 C 12.066943 -0.070232 -20.772934 0
M  V30 29 C 12.740413 -0.650329 -21.903860 0
M  V30 30 C 13.724339 -1.466388 -21.405876 0
M  V30 31 N 13.686019 -1.425741 -20.022799 0
M  V30 32 C 12.688391 -0.567263 -19.591314 0
M  V30 33 C 12.259892 -0.174340 -18.312645 0
M  V30 34 H 10.564793 5.295776 -18.426617 0
M  V30 35 H 9.375416 4.006035 -18.328859 0
M  V30 36 H 9.632074 5.077533 -16.958626 0
M  V30 37 H 11.759781 3.222243 -18.115074 0
M  V30 38 H 12.748123 5.118839 -17.007280 0
M  V30 39 H 13.151958 3.629951 -16.221958 0
M  V30 40 H 13.289075 7.690126 -13.074328 0
M  V30 41 H 12.795172 8.368866 -10.790120 0
M  V30 42 H 9.151910 6.069838 -8.937271 0
M  V30 43 H 8.771414 6.541587 -6.569848 0
M  V30 44 H 10.005540 8.394715 -5.446808 0
M  V30 45 H 11.945685 9.372005 -9.130773 0
M  V30 46 H 8.980590 6.326766 -11.044314 0
M  V30 47 H 9.527440 5.592744 -13.298733 0
M  V30 48 H 12.086012 2.904972 -14.186939 0
M  V30 49 H 10.944138 3.855047 -13.341011 0
M  V30 50 H 9.779662 2.084738 -14.535022 0
M  V30 51 H 9.316132 3.583816 -15.264183 0
M  V30 52 H 9.715573 1.902965 -19.236504 0
M  V30 53 H 10.483088 1.214568 -21.478416 0
M  V30 54 H 12.507228 -0.468767 -22.942717 0
M  V30 55 H 14.447202 -2.079823 -21.924435 0
M  V30 56 H 14.325345 -1.960812 -19.446939 0
M  V30 57 H 12.760246 -0.577693 -17.451084 0
M  V30 END ATOM
M  V30 BEGIN BOND
M  V30 1 1 2 1
M  V30 2 1 3 2
M  V30 3 1 4 3
M  V30 4 1 5 4
M  V30 5 2 6 5
M  V30 6 1 7 5
M  V30 7 1 8 7
M  V30 8 2 9 8
M  V30 9 1 10 9
M  V30 10 1 11 10
M  V30 11 2 12 11
M  V30 12 1 13 12
M  V30 13 2 14 13
M  V30 14 1 15 14
M  V30 15 1 16 15
M  V30 16 1 17 11
M  V30 17 2 17 15
M  V30 18 2 18 10
M  V30 19 2 19 7
M  V30 20 1 19 18
M  V30 21 1 20 4
M  V30 22 1 21 20
M  V30 23 1 22 2
M  V30 24 1 22 21
M  V30 25 1 23 22
M  V30 26 2 24 23
M  V30 27 1 25 23
M  V30 28 2 26 25
M  V30 29 1 27 26
M  V30 30 2 28 27
M  V30 31 1 29 28
M  V30 32 2 30 29
M  V30 33 1 31 30
M  V30 34 1 32 28
M  V30 35 1 32 31
M  V30 36 1 33 25
M  V30 37 2 33 32
M  V30 38 1 34 1
M  V30 39 1 35 1
M  V30 40 1 36 1
M  V30 41 1 2 37 CFG=3
M  V30 42 1 38 3
M  V30 43 1 39 3
M  V30 44 1 40 8
M  V30 45 1 41 9
M  V30 46 1 42 12
M  V30 47 1 43 13
M  V30 48 1 44 14
M  V30 49 1 45 17
M  V30 50 1 46 18
M  V30 51 1 47 19
M  V30 52 1 48 20
M  V30 53 1 49 20
M  V30 54 1 50 21
M  V30 55 1 51 21
M  V30 56 1 52 26
M  V30 57 1 53 27
M  V30 58 1 54 29
M  V30 59 1 55 30
M  V30 60 1 56 31
M  V30 61 1 57 33
M  V30 END BOND
M  V30 END CTAB
M  END
>  <b_m_subgroup_collapsed>  (1031) 
0

>  <r_i_docking_score>  (1031) 
-7.5663978408637798

>  <s_m_subgroup_title>  (1031) 
glide-dock_SP_D22_pv

>  <s_m_subgroupid>  (1031) 
glide-dock_SP_D22_pv

>  <Molecule ChEMBL ID>  (1031) 
CHEMBL1082210

>  <Standard Type>  (1031) 
Ki

>  <Standard Value>  (1031) 
10000.0

>  <label>  (1031) 
0

$$$$
CHEMBL5828332
     RDKit          3D

  0  0  0  0  0  0  0  0  0  0999 V3000
M  V30 BEGIN CTAB
M  V30 COUNTS 64 67 0 0 1
M  V30 BEGIN ATOM
M  V30 1 C 6.794223 4.232077 -13.100529 0
M  V30 2 C 8.012365 5.078881 -12.668135 0 CFG=1
M  V30 3 C 9.090378 4.906841 -13.768395 0
M  V30 4 O 8.886384 5.372303 -14.881950 0
M  V30 5 N 10.197948 4.193626 -13.495793 0
M  V30 6 C 11.200607 3.740307 -14.460976 0 CFG=1
M  V30 7 C 10.595488 2.719508 -15.432782 0
M  V30 8 C 10.487409 1.367929 -15.036517 0
M  V30 9 C 9.907414 0.411547 -15.891080 0
M  V30 10 C 9.419324 0.801536 -17.151712 0
M  V30 11 F 8.867759 -0.117601 -17.978420 0
M  V30 12 C 9.503048 2.149751 -17.550358 0
M  V30 13 C 10.082891 3.105151 -16.693615 0
M  V30 14 C 12.051709 4.853189 -15.094421 0
M  V30 15 C 12.885830 4.578480 -16.201187 0
M  V30 16 C 13.655705 5.619494 -16.750645 0
M  V30 17 C 13.574471 6.898188 -16.171410 0
M  V30 18 C 12.744667 7.072571 -15.048980 0
M  V30 19 N 12.011600 6.075433 -14.510506 0
M  V30 20 C 7.556834 6.552557 -12.507156 0
M  V30 21 C 8.597408 7.452352 -11.826863 0
M  V30 22 N 8.886314 6.932765 -10.471590 0 CFG=2 CHG=1
M  V30 23 C 9.684590 7.891186 -9.658536 0
M  V30 24 C 9.865861 7.464239 -8.189120 0
M  V30 25 O 10.380225 8.567183 -7.447612 0
M  V30 26 C 10.907973 8.340586 -6.191496 0
M  V30 27 C 11.394006 9.461791 -5.484457 0
M  V30 28 C 11.970391 9.315950 -4.205523 0
M  V30 29 C 12.085923 8.043573 -3.623058 0
M  V30 30 C 11.605960 6.917898 -4.314013 0
M  V30 31 C 11.004652 7.064385 -5.580581 0
M  V30 32 C 9.455554 5.562984 -10.562452 0
M  V30 33 C 8.500220 4.588059 -11.287550 0
M  V30 34 H 5.993811 4.280024 -12.360207 0
M  V30 35 H 6.375525 4.571676 -14.047210 0
M  V30 36 H 7.059187 3.181409 -13.223041 0
M  V30 37 H 10.293769 3.831912 -12.560190 0
M  V30 38 H 11.918427 3.186854 -13.853325 0
M  V30 39 H 10.862115 1.057842 -14.072081 0
M  V30 40 H 9.833213 -0.620323 -15.579192 0
M  V30 41 H 9.121904 2.450917 -18.513689 0
M  V30 42 H 10.125044 4.139005 -17.004980 0
M  V30 43 H 12.936896 3.588151 -16.628767 0
M  V30 44 H 14.297510 5.441700 -17.601076 0
M  V30 45 H 14.143848 7.725044 -16.569527 0
M  V30 46 H 12.668086 8.037058 -14.569390 0
M  V30 47 H 7.286238 7.007171 -13.446792 0
M  V30 48 H 6.635485 6.572090 -11.922956 0
M  V30 49 H 8.199759 8.465977 -11.761426 0
M  V30 50 H 9.514779 7.510167 -12.414485 0
M  V30 51 H 10.657351 8.056832 -10.124465 0
M  V30 52 H 9.164480 8.850932 -9.669588 0
M  V30 53 H 8.918578 7.146166 -7.750986 0
M  V30 54 H 10.561636 6.626314 -8.160076 0
M  V30 55 H 11.324555 10.444728 -5.926597 0
M  V30 56 H 12.334825 10.172256 -3.663219 0
M  V30 57 H 12.536036 7.931779 -2.647501 0
M  V30 58 H 11.682087 5.939666 -3.865460 0
M  V30 59 H 10.631823 6.172825 -6.060301 0
M  V30 60 H 9.666770 5.156415 -9.574430 0
M  V30 61 H 10.404985 5.636347 -11.091241 0
M  V30 62 H 7.644685 4.388554 -10.643087 0
M  V30 63 H 8.995177 3.634815 -11.446800 0
M  V30 64 H 7.961028 6.894566 -10.040656 0
M  V30 END ATOM
M  V30 BEGIN BOND
M  V30 1 1 2 1 CFG=3
M  V30 2 1 3 2
M  V30 3 2 4 3
M  V30 4 1 5 3
M  V30 5 1 6 5
M  V30 6 1 7 6
M  V30 7 1 8 7
M  V30 8 2 9 8
M  V30 9 1 10 9
M  V30 10 1 11 10
M  V30 11 2 12 10
M  V30 12 2 13 7
M  V30 13 1 13 12
M  V30 14 1 14 6
M  V30 15 2 15 14
M  V30 16 1 16 15
M  V30 17 2 17 16
M  V30 18 1 18 17
M  V30 19 1 19 14
M  V30 20 2 19 18
M  V30 21 1 20 2
M  V30 22 1 21 20
M  V30 23 1 22 21
M  V30 24 1 23 22
M  V30 25 1 24 23
M  V30 26 1 25 24
M  V30 27 1 26 25
M  V30 28 2 27 26
M  V30 29 1 28 27
M  V30 30 2 29 28
M  V30 31 1 30 29
M  V30 32 1 31 26
M  V30 33 2 31 30
M  V30 34 1 32 22
M  V30 35 1 33 2
M  V30 36 1 33 32
M  V30 37 1 34 1
M  V30 38 1 35 1
M  V30 39 1 36 1
M  V30 40 1 37 5
M  V30 41 1 6 38 CFG=1
M  V30 42 1 39 8
M  V30 43 1 40 9
M  V30 44 1 41 12
M  V30 45 1 42 13
M  V30 46 1 43 15
M  V30 47 1 44 16
M  V30 48 1 45 17
M  V30 49 1 46 18
M  V30 50 1 47 20
M  V30 51 1 48 20
M  V30 52 1 49 21
M  V30 53 1 50 21
M  V30 54 1 51 23
M  V30 55 1 52 23
M  V30 56 1 53 24
M  V30 57 1 54 24
M  V30 58 1 55 27
M  V30 59 1 56 28
M  V30 60 1 57 29
M  V30 61 1 58 30
M  V30 62 1 59 31
M  V30 63 1 60 32
M  V30 64 1 61 32
M  V30 65 1 62 33
M  V30 66 1 63 33
M  V30 67 1 22 64 CFG=1
M  V30 END BOND
M  V30 END CTAB
M  END
>  <b_m_subgroup_collapsed>  (1032) 
0

>  <r_i_docking_score>  (1032) 
-7.5637986103320598

>  <s_m_subgroup_title>  (1032) 
glide-dock_SP_D22_pv

>  <s_m_subgroupid>  (1032) 
glide-dock_SP_D22_pv

>  <Molecule ChEMBL ID>  (1032) 
CHEMBL5828332

>  <Standard Type>  (1032) 
Ki

>  <Standard Value>  (1032) 
55.0

>  <label>  (1032) 
1

$$$$
CHEMBL4093971
     RDKit          3D

  0  0  0  0  0  0  0  0  0  0999 V3000
M  V30 BEGIN CTAB
M  V30 COUNTS 66 70 0 0 1
M  V30 BEGIN ATOM
M  V30 1 O 9.468824 4.150705 -17.546104 0
M  V30 2 S 9.282701 2.837834 -16.911610 0
M  V30 3 O 7.970217 2.177107 -17.006578 0
M  V30 4 C 10.503845 1.655793 -17.511589 0
M  V30 5 C 10.141712 0.295556 -17.413866 0
M  V30 6 N 10.886095 -0.716691 -17.900389 0
M  V30 7 C 12.036517 -0.403816 -18.524904 0
M  V30 8 C 12.511717 0.914089 -18.661575 0
M  V30 9 C 13.734495 1.152914 -19.323408 0
M  V30 10 C 14.220098 2.466099 -19.447273 0
M  V30 11 C 13.485757 3.535105 -18.905621 0
M  V30 12 C 12.259395 3.297279 -18.254673 0
M  V30 13 C 11.742828 1.984120 -18.129711 0
M  V30 14 N 9.680617 2.995126 -15.227468 0
M  V30 15 C 10.725553 3.935120 -14.785402 0
M  V30 16 C 10.104890 5.158490 -14.079982 0
M  V30 17 C 9.188517 4.723703 -12.915687 0
M  V30 18 C 8.602904 5.895325 -12.086168 0
M  V30 19 C 9.714141 6.772598 -11.462886 0
M  V30 20 N 9.407392 7.470269 -10.182324 0 CHG=1
M  V30 21 C 9.036959 6.549719 -9.066442 0
M  V30 22 C 8.895108 7.291191 -7.724291 0
M  V30 23 N 10.067975 8.097826 -7.444912 0
M  V30 24 C 10.779193 7.903420 -6.246595 0
M  V30 25 C 11.079199 6.585986 -5.880592 0
M  V30 26 C 11.686048 6.331501 -4.646705 0
M  V30 27 C 12.015458 7.324435 -3.745497 0
M  V30 28 C 11.736602 8.630434 -4.098139 0
M  V30 29 Cl 12.086017 9.783401 -2.899880 0
M  V30 30 C 11.160673 8.937902 -5.351692 0
M  V30 31 Cl 10.886072 10.572344 -5.727639 0
M  V30 32 C 10.427852 9.050318 -8.473102 0
M  V30 33 C 10.571397 8.341662 -9.828059 0
M  V30 34 C 8.101901 3.796836 -13.489999 0
M  V30 35 C 8.737076 2.570426 -14.176567 0
M  V30 36 H 9.215075 -0.000602 -16.944727 0
M  V30 37 H 12.603040 -1.236727 -18.915176 0
M  V30 38 H 14.305940 0.332001 -19.732595 0
M  V30 39 H 15.154084 2.654239 -19.957090 0
M  V30 40 H 13.860362 4.544510 -18.995176 0
M  V30 41 H 11.745522 4.154466 -17.859999 0
M  V30 42 H 11.396185 3.412208 -14.102447 0
M  V30 43 H 11.333534 4.249839 -15.631430 0
M  V30 44 H 10.912937 5.795225 -13.721225 0
M  V30 45 H 9.541787 5.756939 -14.797642 0
M  V30 46 H 9.789083 4.123723 -12.228873 0
M  V30 47 H 7.947073 6.513874 -12.700697 0
M  V30 48 H 7.961020 5.462807 -11.321330 0
M  V30 49 H 10.601311 6.172114 -11.288261 0
M  V30 50 H 10.008060 7.515167 -12.206504 0
M  V30 51 H 8.086842 6.059475 -9.274335 0
M  V30 52 H 9.790820 5.766263 -8.973301 0
M  V30 53 H 8.086041 8.008235 -7.777665 0
M  V30 54 H 8.651761 6.603097 -6.913483 0
M  V30 55 H 10.847820 5.772410 -6.547926 0
M  V30 56 H 11.984505 5.372329 -4.347862 0
M  V30 57 H 12.473404 7.083680 -2.796962 0
M  V30 58 H 9.616721 9.772288 -8.534225 0
M  V30 59 H 11.345017 9.582954 -8.224166 0
M  V30 60 H 11.475269 7.729970 -9.794203 0
M  V30 61 H 10.732082 9.082155 -10.611232 0
M  V30 62 H 7.429782 3.467182 -12.697678 0
M  V30 63 H 7.484601 4.341250 -14.206208 0
M  V30 64 H 7.968589 1.913373 -14.581051 0
M  V30 65 H 9.285887 1.975745 -13.446900 0
M  V30 66 H 8.592066 8.056546 -10.325886 0
M  V30 END ATOM
M  V30 BEGIN BOND
M  V30 1 2 2 1
M  V30 2 2 3 2
M  V30 3 1 4 2
M  V30 4 2 5 4
M  V30 5 1 6 5
M  V30 6 2 7 6
M  V30 7 1 8 7
M  V30 8 2 9 8
M  V30 9 1 10 9
M  V30 10 2 11 10
M  V30 11 1 12 11
M  V30 12 1 13 4
M  V30 13 1 13 8
M  V30 14 2 13 12
M  V30 15 1 14 2
M  V30 16 1 15 14
M  V30 17 1 16 15
M  V30 18 1 17 16
M  V30 19 1 18 17
M  V30 20 1 19 18
M  V30 21 1 20 19
M  V30 22 1 21 20
M  V30 23 1 22 21
M  V30 24 1 23 22
M  V30 25 1 24 23
M  V30 26 2 25 24
M  V30 27 1 26 25
M  V30 28 2 27 26
M  V30 29 1 28 27
M  V30 30 1 29 28
M  V30 31 1 30 24
M  V30 32 2 30 28
M  V30 33 1 31 30
M  V30 34 1 32 23
M  V30 35 1 33 20
M  V30 36 1 33 32
M  V30 37 1 34 17
M  V30 38 1 35 14
M  V30 39 1 35 34
M  V30 40 1 36 5
M  V30 41 1 37 7
M  V30 42 1 38 9
M  V30 43 1 39 10
M  V30 44 1 40 11
M  V30 45 1 41 12
M  V30 46 1 42 15
M  V30 47 1 43 15
M  V30 48 1 44 16
M  V30 49 1 45 16
M  V30 50 1 46 17
M  V30 51 1 47 18
M  V30 52 1 48 18
M  V30 53 1 49 19
M  V30 54 1 50 19
M  V30 55 1 51 21
M  V30 56 1 52 21
M  V30 57 1 53 22
M  V30 58 1 54 22
M  V30 59 1 55 25
M  V30 60 1 56 26
M  V30 61 1 57 27
M  V30 62 1 58 32
M  V30 63 1 59 32
M  V30 64 1 60 33
M  V30 65 1 61 33
M  V30 66 1 62 34
M  V30 67 1 63 34
M  V30 68 1 64 35
M  V30 69 1 65 35
M  V30 70 1 66 20
M  V30 END BOND
M  V30 END CTAB
M  END
>  <b_m_subgroup_collapsed>  (1033) 
0

>  <r_i_docking_score>  (1033) 
-7.5635763969147902

>  <s_m_subgroup_title>  (1033) 
glide-dock_SP_D22_pv

>  <s_m_subgroupid>  (1033) 
glide-dock_SP_D22_pv

>  <Molecule ChEMBL ID>  (1033) 
CHEMBL4093971

>  <Standard Type>  (1033) 
Ki

>  <Standard Value>  (1033) 
30.0

>  <label>  (1033) 
1

$$$$
CHEMBL7617
     RDKit          3D

  0  0  0  0  0  0  0  0  0  0999 V3000
M  V30 BEGIN CTAB
M  V30 COUNTS 45 48 0 0 1
M  V30 BEGIN ATOM
M  V30 1 C 8.967134 7.599568 -6.963372 0
M  V30 2 N 8.886606 7.291920 -8.409785 0 CHG=1
M  V30 3 C 9.324803 5.912788 -8.723230 0
M  V30 4 C 9.104577 5.615076 -10.209287 0
M  V30 5 N 9.773280 6.583790 -11.088276 0
M  V30 6 C 10.280994 6.250231 -12.354259 0
M  V30 7 C 11.371527 6.883718 -12.854098 0
M  V30 8 C 12.066673 6.654783 -14.139071 0
M  V30 9 C 12.589019 7.772374 -14.819936 0
M  V30 10 C 13.198591 7.635254 -16.081409 0
M  V30 11 C 13.307307 6.364737 -16.674639 0
M  V30 12 C 12.805740 5.237168 -16.001122 0
M  V30 13 C 12.185658 5.380416 -14.741326 0
M  V30 14 C 11.714382 4.154167 -14.003273 0
M  V30 15 C 10.212116 4.141181 -13.809484 0
M  V30 16 C 9.469724 3.086143 -14.385263 0
M  V30 17 C 8.071019 3.035096 -14.247129 0
M  V30 18 C 7.404142 4.068303 -13.568648 0
M  V30 19 Cl 5.690084 4.028849 -13.391829 0
M  V30 20 C 8.138274 5.134377 -13.022535 0
M  V30 21 C 9.554125 5.159861 -13.070483 0
M  V30 22 C 9.484014 7.978506 -10.747311 0
M  V30 23 C 9.610754 8.284088 -9.242098 0
M  V30 24 H 10.003724 7.656036 -6.628044 0
M  V30 25 H 8.484725 8.554417 -6.749103 0
M  V30 26 H 8.468743 6.832307 -6.373055 0
M  V30 27 H 8.757699 5.198416 -8.124445 0
M  V30 28 H 10.375622 5.787441 -8.460848 0
M  V30 29 H 8.032458 5.625769 -10.406930 0
M  V30 30 H 9.458017 4.606837 -10.427971 0
M  V30 31 H 11.838947 7.636412 -12.237954 0
M  V30 32 H 12.505615 8.754762 -14.381845 0
M  V30 33 H 13.581558 8.505498 -16.594748 0
M  V30 34 H 13.779122 6.256620 -17.640841 0
M  V30 35 H 12.907651 4.261739 -16.453482 0
M  V30 36 H 12.220497 4.164884 -13.046787 0
M  V30 37 H 12.045956 3.250603 -14.516092 0
M  V30 38 H 9.973134 2.299906 -14.930248 0
M  V30 39 H 7.511251 2.216655 -14.675534 0
M  V30 40 H 7.597998 5.924487 -12.521677 0
M  V30 41 H 10.138249 8.653027 -11.296607 0
M  V30 42 H 8.484019 8.207588 -11.096002 0
M  V30 43 H 9.224030 9.284020 -9.040237 0
M  V30 44 H 10.663830 8.286998 -8.958840 0
M  V30 45 H 7.901211 7.352317 -8.663012 0
M  V30 END ATOM
M  V30 BEGIN BOND
M  V30 1 1 2 1
M  V30 2 1 3 2
M  V30 3 1 4 3
M  V30 4 1 5 4
M  V30 5 1 6 5
M  V30 6 2 7 6
M  V30 7 1 8 7
M  V30 8 2 9 8
M  V30 9 1 10 9
M  V30 10 2 11 10
M  V30 11 1 12 11
M  V30 12 1 13 8
M  V30 13 2 13 12
M  V30 14 1 14 13
M  V30 15 1 15 14
M  V30 16 1 16 15
M  V30 17 2 17 16
M  V30 18 1 18 17
M  V30 19 1 19 18
M  V30 20 2 20 18
M  V30 21 1 21 6
M  V30 22 2 21 15
M  V30 23 1 21 20
M  V30 24 1 22 5
M  V30 25 1 23 2
M  V30 26 1 23 22
M  V30 27 1 24 1
M  V30 28 1 25 1
M  V30 29 1 26 1
M  V30 30 1 27 3
M  V30 31 1 28 3
M  V30 32 1 29 4
M  V30 33 1 30 4
M  V30 34 1 31 7
M  V30 35 1 32 9
M  V30 36 1 33 10
M  V30 37 1 34 11
M  V30 38 1 35 12
M  V30 39 1 36 14
M  V30 40 1 37 14
M  V30 41 1 38 16
M  V30 42 1 39 17
M  V30 43 1 40 20
M  V30 44 1 41 22
M  V30 45 1 42 22
M  V30 46 1 43 23
M  V30 47 1 44 23
M  V30 48 1 45 2
M  V30 END BOND
M  V30 END CTAB
M  END
>  <b_m_subgroup_collapsed>  (1034) 
0

>  <r_i_docking_score>  (1034) 
-7.5626969885186597

>  <s_m_subgroup_title>  (1034) 
glide-dock_SP_D22_pv

>  <s_m_subgroupid>  (1034) 
glide-dock_SP_D22_pv

>  <Molecule ChEMBL ID>  (1034) 
CHEMBL7617

>  <Standard Type>  (1034) 
Ki

>  <Standard Value>  (1034) 
1.0

>  <label>  (1034) 
1

$$$$
CHEMBL3298828
     RDKit          3D

  0  0  0  0  0  0  0  0  0  0999 V3000
M  V30 BEGIN CTAB
M  V30 COUNTS 71 74 0 0 1
M  V30 BEGIN ATOM
M  V30 1 C 2.158954 -5.107662 -19.188023 0
M  V30 2 O 2.781591 -4.660549 -20.386225 0
M  V30 3 C 3.736489 -3.665818 -20.299450 0
M  V30 4 N 3.972061 -3.110007 -19.087885 0
M  V30 5 C 4.909343 -2.124597 -19.057573 0
M  V30 6 S 5.306241 -1.295719 -17.562643 0
M  V30 7 C 6.484585 -0.310141 -18.384706 0
M  V30 8 C 7.161405 0.718781 -17.565903 0
M  V30 9 O 7.430672 1.814577 -18.060547 0
M  V30 10 N 7.483541 0.397127 -16.301718 0
M  V30 11 C 8.070912 1.330896 -15.341868 0
M  V30 12 C 6.996991 2.281517 -14.790116 0
M  V30 13 C 7.534881 3.392874 -13.877481 0
M  V30 14 C 6.404106 4.209651 -13.225252 0
M  V30 15 C 6.830153 4.914966 -11.932895 0
M  V30 16 C 8.002244 5.905042 -12.106196 0
M  V30 17 N 8.486026 6.434664 -10.808745 0 CFG=2 CHG=1
M  V30 18 C 9.291320 7.672420 -10.954645 0
M  V30 19 C 9.685986 8.261913 -9.586970 0
M  V30 20 C 10.460908 7.242608 -8.714346 0 CFG=1
M  V30 21 C 10.878675 7.788913 -7.337115 0
M  V30 22 C 11.302271 9.126919 -7.183101 0
M  V30 23 C 11.686074 9.631428 -5.922078 0
M  V30 24 C 11.671589 8.789632 -4.796187 0
M  V30 25 Cl 12.091103 9.373832 -3.231389 0
M  V30 26 C 11.285985 7.450006 -4.937714 0
M  V30 27 C 10.885057 6.962002 -6.190550 0
M  V30 28 C 9.614797 5.955694 -8.627313 0
M  V30 29 C 9.203304 5.417637 -9.996953 0
M  V30 30 C 6.574797 -0.565734 -19.738279 0
M  V30 31 N 7.427817 0.097621 -20.636736 0
M  V30 32 C 5.666367 -1.622370 -20.164406 0
M  V30 33 C 5.377724 -2.244603 -21.415596 0
M  V30 34 C 6.108575 -1.786441 -22.670710 0
M  V30 35 C 4.403380 -3.273080 -21.477926 0
M  V30 36 Cl 3.990448 -4.055071 -22.967396 0
M  V30 37 H 1.385017 -5.836376 -19.427900 0
M  V30 38 H 2.887294 -5.589036 -18.533998 0
M  V30 39 H 1.686033 -4.285065 -18.650719 0
M  V30 40 H 7.277609 -0.537612 -15.977174 0
M  V30 41 H 8.874997 1.896344 -15.818919 0
M  V30 42 H 8.526040 0.764538 -14.528383 0
M  V30 43 H 6.245862 1.693479 -14.257880 0
M  V30 44 H 6.486019 2.751846 -15.625622 0
M  V30 45 H 8.181504 4.055187 -14.455124 0
M  V30 46 H 8.180661 2.972434 -13.106456 0
M  V30 47 H 5.574614 3.545196 -12.971736 0
M  V30 48 H 5.992039 4.930733 -13.928919 0
M  V30 49 H 7.074727 4.131509 -11.218413 0
M  V30 50 H 5.976382 5.444295 -11.511984 0
M  V30 51 H 7.660025 6.732920 -12.729913 0
M  V30 52 H 8.844171 5.444581 -12.626148 0
M  V30 53 H 8.712812 8.415754 -11.506909 0
M  V30 54 H 10.182257 7.460859 -11.547257 0
M  V30 55 H 8.792860 8.595161 -9.055029 0
M  V30 56 H 10.287531 9.149841 -9.776181 0
M  V30 57 H 11.389470 7.002857 -9.234579 0
M  V30 58 H 11.343396 9.779850 -8.036596 0
M  V30 59 H 11.996559 10.662407 -5.826629 0
M  V30 60 H 11.282778 6.793182 -4.080684 0
M  V30 61 H 10.592623 5.927424 -6.233196 0
M  V30 62 H 10.175011 5.158338 -8.143359 0
M  V30 63 H 8.720095 6.137086 -8.027149 0
M  V30 64 H 8.585952 4.540004 -9.825181 0
M  V30 65 H 10.085728 5.074362 -10.542763 0
M  V30 66 H 7.322055 -0.019995 -21.634117 0
M  V30 67 H 7.924817 0.928357 -20.343039 0
M  V30 68 H 5.877413 -0.739610 -22.875982 0
M  V30 69 H 7.186130 -1.884930 -22.534081 0
M  V30 70 H 5.849098 -2.353021 -23.563044 0
M  V30 71 H 7.643415 6.747864 -10.311034 0
M  V30 END ATOM
M  V30 BEGIN BOND
M  V30 1 1 2 1
M  V30 2 1 3 2
M  V30 3 2 4 3
M  V30 4 1 5 4
M  V30 5 1 6 5
M  V30 6 1 7 6
M  V30 7 1 8 7
M  V30 8 2 9 8
M  V30 9 1 10 8
M  V30 10 1 11 10
M  V30 11 1 12 11
M  V30 12 1 13 12
M  V30 13 1 14 13
M  V30 14 1 15 14
M  V30 15 1 16 15
M  V30 16 1 17 16
M  V30 17 1 18 17
M  V30 18 1 19 18
M  V30 19 1 20 19
M  V30 20 1 21 20
M  V30 21 1 22 21
M  V30 22 2 23 22
M  V30 23 1 24 23
M  V30 24 1 25 24
M  V30 25 2 26 24
M  V30 26 2 27 21
M  V30 27 1 27 26
M  V30 28 1 28 20
M  V30 29 1 29 17
M  V30 30 1 29 28
M  V30 31 2 30 7
M  V30 32 1 31 30
M  V30 33 2 32 5
M  V30 34 1 32 30
M  V30 35 1 33 32
M  V30 36 1 34 33
M  V30 37 1 35 3
M  V30 38 2 35 33
M  V30 39 1 36 35
M  V30 40 1 37 1
M  V30 41 1 38 1
M  V30 42 1 39 1
M  V30 43 1 40 10
M  V30 44 1 41 11
M  V30 45 1 42 11
M  V30 46 1 43 12
M  V30 47 1 44 12
M  V30 48 1 45 13
M  V30 49 1 46 13
M  V30 50 1 47 14
M  V30 51 1 48 14
M  V30 52 1 49 15
M  V30 53 1 50 15
M  V30 54 1 51 16
M  V30 55 1 52 16
M  V30 56 1 53 18
M  V30 57 1 54 18
M  V30 58 1 55 19
M  V30 59 1 56 19
M  V30 60 1 20 57 CFG=3
M  V30 61 1 58 22
M  V30 62 1 59 23
M  V30 63 1 60 26
M  V30 64 1 61 27
M  V30 65 1 62 28
M  V30 66 1 63 28
M  V30 67 1 64 29
M  V30 68 1 65 29
M  V30 69 1 66 31
M  V30 70 1 67 31
M  V30 71 1 68 34
M  V30 72 1 69 34
M  V30 73 1 70 34
M  V30 74 1 17 71 CFG=1
M  V30 END BOND
M  V30 END CTAB
M  END
>  <b_m_subgroup_collapsed>  (1035) 
0

>  <r_i_docking_score>  (1035) 
-7.5624692779202798

>  <s_m_subgroup_title>  (1035) 
glide-dock_SP_D22_pv

>  <s_m_subgroupid>  (1035) 
glide-dock_SP_D22_pv

>  <Molecule ChEMBL ID>  (1035) 
CHEMBL3298828

>  <Standard Type>  (1035) 
Ki

>  <Standard Value>  (1035) 
0.6166

>  <label>  (1035) 
1

$$$$
CHEMBL592377
     RDKit          3D

  0  0  0  0  0  0  0  0  0  0999 V3000
M  V30 BEGIN CTAB
M  V30 COUNTS 42 44 0 0 1
M  V30 BEGIN ATOM
M  V30 1 O 10.292703 2.579841 -13.846807 0
M  V30 2 C 10.477769 3.888503 -13.493373 0
M  V30 3 C 11.530340 4.612829 -14.080285 0
M  V30 4 C 11.754563 5.949471 -13.707798 0
M  V30 5 C 10.927064 6.568629 -12.751944 0
M  V30 6 C 9.852874 5.862120 -12.155132 0
M  V30 7 C 8.890925 6.546070 -11.165002 0 CFG=1
M  V30 8 C 8.546559 5.714082 -9.908646 0
M  V30 9 C 9.664388 5.687082 -8.859261 0
M  V30 10 N 10.129030 7.049278 -8.464151 0 CFG=1 CHG=1
M  V30 11 C 11.251897 6.974160 -7.482636 0
M  V30 12 C 11.233091 7.957527 -6.318421 0
M  V30 13 C 11.479951 7.473794 -5.012564 0
M  V30 14 C 11.685148 8.367846 -3.942717 0
M  V30 15 C 11.561221 9.752806 -4.154161 0
M  V30 16 C 11.286041 10.241069 -5.445108 0
M  V30 17 C 11.133830 9.351253 -6.524083 0
M  V30 18 C 10.484401 7.862131 -9.663355 0
M  V30 19 C 9.325028 7.945617 -10.670791 0
M  V30 20 C 9.640406 4.513681 -12.542887 0
M  V30 21 H 10.011876 2.024154 -13.128791 0
M  V30 22 H 12.173500 4.141319 -14.809282 0
M  V30 23 H 12.567935 6.502261 -14.156775 0
M  V30 24 H 11.138823 7.598592 -12.515450 0
M  V30 25 H 7.968505 6.674725 -11.732278 0
M  V30 26 H 7.686335 6.170946 -9.427232 0
M  V30 27 H 8.226171 4.703931 -10.160062 0
M  V30 28 H 10.487205 5.100165 -9.255790 0
M  V30 29 H 9.305333 5.160460 -7.973550 0
M  V30 30 H 11.299927 5.969026 -7.061021 0
M  V30 31 H 12.202963 7.113671 -7.991020 0
M  V30 32 H 11.583351 6.412765 -4.832544 0
M  V30 33 H 11.904520 7.989200 -2.954418 0
M  V30 34 H 11.685776 10.438406 -3.327374 0
M  V30 35 H 11.222665 11.307528 -5.608612 0
M  V30 36 H 10.975728 9.768789 -7.502647 0
M  V30 37 H 11.363289 7.430828 -10.141329 0
M  V30 38 H 10.765027 8.872404 -9.379107 0
M  V30 39 H 9.559733 8.609221 -11.502225 0
M  V30 40 H 8.486704 8.430280 -10.171491 0
M  V30 41 H 8.819318 3.949252 -12.126198 0
M  V30 42 H 9.345510 7.494964 -8.005433 0
M  V30 END ATOM
M  V30 BEGIN BOND
M  V30 1 1 2 1
M  V30 2 1 3 2
M  V30 3 2 4 3
M  V30 4 1 5 4
M  V30 5 2 6 5
M  V30 6 1 7 6
M  V30 7 1 8 7
M  V30 8 1 9 8
M  V30 9 1 10 9
M  V30 10 1 11 10
M  V30 11 1 12 11
M  V30 12 2 13 12
M  V30 13 1 14 13
M  V30 14 2 15 14
M  V30 15 1 16 15
M  V30 16 1 17 12
M  V30 17 2 17 16
M  V30 18 1 18 10
M  V30 19 1 19 7
M  V30 20 1 19 18
M  V30 21 2 20 2
M  V30 22 1 20 6
M  V30 23 1 21 1
M  V30 24 1 22 3
M  V30 25 1 23 4
M  V30 26 1 24 5
M  V30 27 1 7 25 CFG=3
M  V30 28 1 26 8
M  V30 29 1 27 8
M  V30 30 1 28 9
M  V30 31 1 29 9
M  V30 32 1 30 11
M  V30 33 1 31 11
M  V30 34 1 32 13
M  V30 35 1 33 14
M  V30 36 1 34 15
M  V30 37 1 35 16
M  V30 38 1 36 17
M  V30 39 1 37 18
M  V30 40 1 38 18
M  V30 41 1 39 19
M  V30 42 1 40 19
M  V30 43 1 41 20
M  V30 44 1 10 42 CFG=1
M  V30 END BOND
M  V30 END CTAB
M  END
>  <b_m_subgroup_collapsed>  (1036) 
0

>  <r_i_docking_score>  (1036) 
-7.5623741167618501

>  <s_m_subgroup_title>  (1036) 
glide-dock_SP_D22_pv

>  <s_m_subgroupid>  (1036) 
glide-dock_SP_D22_pv

>  <Molecule ChEMBL ID>  (1036) 
CHEMBL592377

>  <Standard Type>  (1036) 
Ki

>  <Standard Value>  (1036) 
35.0

>  <label>  (1036) 
1

$$$$
CHEMBL1215038
     RDKit          3D

  0  0  0  0  0  0  0  0  0  0999 V3000
M  V30 BEGIN CTAB
M  V30 COUNTS 56 59 0 0 1
M  V30 BEGIN ATOM
M  V30 1 F 3.286155 -0.870019 -13.516250 0
M  V30 2 C 4.373923 -0.719593 -14.269676 0
M  V30 3 C 5.184387 0.483291 -13.770429 0
M  V30 4 C 6.497026 0.656070 -14.544737 0
M  V30 5 O 7.056611 1.920909 -14.217350 0
M  V30 6 C 8.371017 2.175394 -14.546559 0
M  V30 7 C 9.191937 1.254366 -15.245426 0
M  V30 8 C 10.530563 1.570786 -15.538593 0
M  V30 9 C 11.063435 2.813887 -15.152787 0
M  V30 10 C 10.255890 3.740125 -14.470778 0
M  V30 11 C 8.911338 3.426717 -14.154035 0
M  V30 12 C 8.012618 4.451639 -13.463590 0
M  V30 13 N 8.698720 5.554303 -12.788424 0
M  V30 14 C 9.252566 5.122463 -11.501398 0
M  V30 15 C 10.026752 6.292890 -10.851701 0
M  V30 16 N 9.139497 7.470539 -10.659580 0 CHG=1
M  V30 17 C 9.774030 8.629877 -9.991236 0
M  V30 18 C 10.208003 8.382690 -8.578627 0
M  V30 19 C 9.939692 7.377816 -7.677335 0
M  V30 20 C 10.672034 7.706089 -6.487530 0
M  V30 21 C 10.892236 7.129845 -5.213637 0
M  V30 22 C 11.686234 7.787864 -4.248365 0
M  V30 23 C 12.273362 9.039283 -4.531643 0
M  V30 24 C 12.085643 9.625976 -5.796789 0
M  V30 25 C 11.299608 8.950307 -6.743973 0
M  V30 26 O 11.016621 9.346995 -8.032374 0
M  V30 27 C 8.516091 7.839848 -11.950255 0
M  V30 28 C 7.751669 6.636554 -12.519511 0
M  V30 29 H 4.041963 -0.579011 -15.299530 0
M  V30 30 H 4.950020 -1.644475 -14.225494 0
M  V30 31 H 5.411084 0.366183 -12.708491 0
M  V30 32 H 4.573724 1.383819 -13.846837 0
M  V30 33 H 6.319370 0.604751 -15.620438 0
M  V30 34 H 7.163907 -0.164048 -14.270373 0
M  V30 35 H 8.817435 0.294276 -15.573168 0
M  V30 36 H 11.149935 0.861280 -16.070028 0
M  V30 37 H 12.092924 3.054578 -15.385617 0
M  V30 38 H 10.680854 4.694715 -14.203758 0
M  V30 39 H 7.372033 4.860823 -14.245291 0
M  V30 40 H 7.347064 3.952471 -12.758986 0
M  V30 41 H 8.457459 4.774946 -10.837992 0
M  V30 42 H 9.923513 4.274839 -11.649501 0
M  V30 43 H 10.442874 5.951303 -9.903446 0
M  V30 44 H 10.867770 6.575313 -11.486919 0
M  V30 45 H 10.626085 8.971292 -10.583958 0
M  V30 46 H 9.058553 9.454256 -9.984573 0
M  V30 47 H 9.314617 6.506358 -7.809826 0
M  V30 48 H 10.443557 6.173133 -4.982531 0
M  V30 49 H 11.836963 7.325419 -3.282281 0
M  V30 50 H 12.879422 9.531568 -3.785989 0
M  V30 51 H 12.549334 10.570504 -6.044625 0
M  V30 52 H 7.827871 8.680165 -11.843903 0
M  V30 53 H 9.283725 8.176987 -12.646037 0
M  V30 54 H 7.282375 6.947147 -13.444296 0
M  V30 55 H 6.956015 6.309535 -11.846852 0
M  V30 56 H 8.347512 7.201696 -10.083548 0
M  V30 END ATOM
M  V30 BEGIN BOND
M  V30 1 1 2 1
M  V30 2 1 3 2
M  V30 3 1 4 3
M  V30 4 1 5 4
M  V30 5 1 6 5
M  V30 6 2 7 6
M  V30 7 1 8 7
M  V30 8 2 9 8
M  V30 9 1 10 9
M  V30 10 1 11 6
M  V30 11 2 11 10
M  V30 12 1 12 11
M  V30 13 1 13 12
M  V30 14 1 14 13
M  V30 15 1 15 14
M  V30 16 1 16 15
M  V30 17 1 17 16
M  V30 18 1 18 17
M  V30 19 2 19 18
M  V30 20 1 20 19
M  V30 21 2 21 20
M  V30 22 1 22 21
M  V30 23 2 23 22
M  V30 24 1 24 23
M  V30 25 1 25 20
M  V30 26 2 25 24
M  V30 27 1 26 18
M  V30 28 1 26 25
M  V30 29 1 27 16
M  V30 30 1 28 13
M  V30 31 1 28 27
M  V30 32 1 29 2
M  V30 33 1 30 2
M  V30 34 1 31 3
M  V30 35 1 32 3
M  V30 36 1 33 4
M  V30 37 1 34 4
M  V30 38 1 35 7
M  V30 39 1 36 8
M  V30 40 1 37 9
M  V30 41 1 38 10
M  V30 42 1 39 12
M  V30 43 1 40 12
M  V30 44 1 41 14
M  V30 45 1 42 14
M  V30 46 1 43 15
M  V30 47 1 44 15
M  V30 48 1 45 17
M  V30 49 1 46 17
M  V30 50 1 47 19
M  V30 51 1 48 21
M  V30 52 1 49 22
M  V30 53 1 50 23
M  V30 54 1 51 24
M  V30 55 1 52 27
M  V30 56 1 53 27
M  V30 57 1 54 28
M  V30 58 1 55 28
M  V30 59 1 56 16
M  V30 END BOND
M  V30 END CTAB
M  END
>  <b_m_subgroup_collapsed>  (1037) 
0

>  <r_i_docking_score>  (1037) 
-7.5604452792245196

>  <s_m_subgroup_title>  (1037) 
glide-dock_SP_D22_pv

>  <s_m_subgroupid>  (1037) 
glide-dock_SP_D22_pv

>  <Molecule ChEMBL ID>  (1037) 
CHEMBL1215038

>  <Standard Type>  (1037) 
Ki

>  <Standard Value>  (1037) 
10000.0

>  <label>  (1037) 
0

$$$$
CHEMBL3698026
     RDKit          3D

  0  0  0  0  0  0  0  0  0  0999 V3000
M  V30 BEGIN CTAB
M  V30 COUNTS 70 74 0 0 1
M  V30 BEGIN ATOM
M  V30 1 O 9.758749 -0.227791 -15.478002 0
M  V30 2 S 8.345672 0.172392 -15.578366 0
M  V30 3 O 7.356503 -0.226661 -14.564134 0
M  V30 4 N 8.308969 1.872270 -15.710901 0
M  V30 5 C 8.426991 2.643467 -14.486676 0 CFG=1
M  V30 6 C 9.322804 3.856763 -14.756568 0
M  V30 7 C 9.456813 4.701153 -13.491623 0
M  V30 8 C 8.071624 5.186454 -13.028525 0 CFG=2
M  V30 9 C 8.121055 6.102392 -11.799936 0
M  V30 10 C 9.033070 5.596150 -10.665855 0
M  V30 11 N 8.885705 6.340232 -9.396084 0 CHG=1
M  V30 12 C 9.385780 7.739904 -9.452681 0
M  V30 13 C 9.148188 8.435534 -8.106116 0
M  V30 14 N 9.819334 7.686784 -7.046888 0
M  V30 15 C 10.845634 8.242590 -6.247115 0
M  V30 16 C 11.486485 9.436705 -6.662664 0
M  V30 17 C 12.434040 10.080160 -5.852405 0
M  V30 18 C 12.807609 9.549453 -4.608757 0
M  V30 19 C 12.205689 8.358966 -4.207455 0
M  V30 20 C 11.285643 7.702646 -5.005665 0
M  V30 21 O 10.911308 6.572367 -4.350348 0
M  V30 22 C 11.611528 6.557345 -3.132149 0
M  V30 23 O 12.413137 7.690438 -3.049561 0
M  V30 24 C 9.380935 6.309826 -6.926141 0
M  V30 25 C 9.477873 5.572912 -8.268498 0
M  V30 26 C 7.079533 4.021901 -12.811845 0
M  V30 27 C 7.023642 3.046163 -13.995010 0
M  V30 28 N 7.747146 -0.227448 -17.152388 0
M  V30 29 C 6.316010 -0.032149 -17.437090 0
M  V30 30 C 6.074057 1.328271 -18.118246 0
M  V30 31 O 6.885406 1.434637 -19.281450 0
M  V30 32 C 8.272397 1.362493 -18.986185 0
M  V30 33 C 8.606536 0.010643 -18.324940 0
M  V30 34 H 9.005090 2.180022 -16.387909 0
M  V30 35 H 8.907992 2.026483 -13.725191 0
M  V30 36 H 8.897963 4.463919 -15.557735 0
M  V30 37 H 10.311672 3.532863 -15.085742 0
M  V30 38 H 10.111182 5.551975 -13.684256 0
M  V30 39 H 9.941154 4.097790 -12.720861 0
M  V30 40 H 7.682143 5.782324 -13.845542 0
M  V30 41 H 7.096864 6.173865 -11.440747 0
M  V30 42 H 8.422833 7.103203 -12.109731 0
M  V30 43 H 10.081045 5.626253 -10.969134 0
M  V30 44 H 8.794741 4.548681 -10.476517 0
M  V30 45 H 8.882052 8.301304 -10.236812 0
M  V30 46 H 10.449919 7.743521 -9.696959 0
M  V30 47 H 8.086306 8.436018 -7.875428 0
M  V30 48 H 9.408556 9.487010 -8.161218 0
M  V30 49 H 11.283378 9.892875 -7.614521 0
M  V30 50 H 12.883503 10.988451 -6.215799 0
M  V30 51 H 13.532989 10.045728 -3.983377 0
M  V30 52 H 10.911758 6.526645 -2.295533 0
M  V30 53 H 12.264104 5.691318 -3.087395 0
M  V30 54 H 9.994560 5.772364 -6.220609 0
M  V30 55 H 8.356291 6.293660 -6.553550 0
M  V30 56 H 8.989787 4.602519 -8.182916 0
M  V30 57 H 10.527275 5.380191 -8.489532 0
M  V30 58 H 7.329356 3.483116 -11.904947 0
M  V30 59 H 6.076951 4.417724 -12.636731 0
M  V30 60 H 6.454439 3.500161 -14.802697 0
M  V30 61 H 6.456837 2.159719 -13.708557 0
M  V30 62 H 5.978530 -0.832588 -18.098122 0
M  V30 63 H 5.728572 -0.117767 -16.522058 0
M  V30 64 H 5.026882 1.414182 -18.410322 0
M  V30 65 H 6.274715 2.166849 -17.446281 0
M  V30 66 H 8.832520 1.467998 -19.915678 0
M  V30 67 H 8.561488 2.202052 -18.354502 0
M  V30 68 H 9.658333 -0.030329 -18.040693 0
M  V30 69 H 8.445763 -0.792613 -19.044510 0
M  V30 70 H 7.890896 6.428819 -9.215246 0
M  V30 END ATOM
M  V30 BEGIN BOND
M  V30 1 2 2 1
M  V30 2 2 3 2
M  V30 3 1 4 2
M  V30 4 1 5 4
M  V30 5 1 6 5
M  V30 6 1 7 6
M  V30 7 1 8 7
M  V30 8 1 9 8
M  V30 9 1 10 9
M  V30 10 1 11 10
M  V30 11 1 12 11
M  V30 12 1 13 12
M  V30 13 1 14 13
M  V30 14 1 15 14
M  V30 15 2 16 15
M  V30 16 1 17 16
M  V30 17 2 18 17
M  V30 18 1 19 18
M  V30 19 1 20 15
M  V30 20 2 20 19
M  V30 21 1 21 20
M  V30 22 1 22 21
M  V30 23 1 23 19
M  V30 24 1 23 22
M  V30 25 1 24 14
M  V30 26 1 25 11
M  V30 27 1 25 24
M  V30 28 1 26 8
M  V30 29 1 27 5
M  V30 30 1 27 26
M  V30 31 1 28 2
M  V30 32 1 29 28
M  V30 33 1 30 29
M  V30 34 1 31 30
M  V30 35 1 32 31
M  V30 36 1 33 28
M  V30 37 1 33 32
M  V30 38 1 34 4
M  V30 39 1 5 35 CFG=1
M  V30 40 1 36 6
M  V30 41 1 37 6
M  V30 42 1 38 7
M  V30 43 1 39 7
M  V30 44 1 8 40 CFG=3
M  V30 45 1 41 9
M  V30 46 1 42 9
M  V30 47 1 43 10
M  V30 48 1 44 10
M  V30 49 1 45 12
M  V30 50 1 46 12
M  V30 51 1 47 13
M  V30 52 1 48 13
M  V30 53 1 49 16
M  V30 54 1 50 17
M  V30 55 1 51 18
M  V30 56 1 52 22
M  V30 57 1 53 22
M  V30 58 1 54 24
M  V30 59 1 55 24
M  V30 60 1 56 25
M  V30 61 1 57 25
M  V30 62 1 58 26
M  V30 63 1 59 26
M  V30 64 1 60 27
M  V30 65 1 61 27
M  V30 66 1 62 29
M  V30 67 1 63 29
M  V30 68 1 64 30
M  V30 69 1 65 30
M  V30 70 1 66 32
M  V30 71 1 67 32
M  V30 72 1 68 33
M  V30 73 1 69 33
M  V30 74 1 70 11
M  V30 END BOND
M  V30 END CTAB
M  END
>  <b_m_subgroup_collapsed>  (1038) 
0

>  <r_i_docking_score>  (1038) 
-7.5601367116161002

>  <s_m_subgroup_title>  (1038) 
glide-dock_SP_D22_pv

>  <s_m_subgroupid>  (1038) 
glide-dock_SP_D22_pv

>  <Molecule ChEMBL ID>  (1038) 
CHEMBL3698026

>  <Standard Type>  (1038) 
Ki

>  <Standard Value>  (1038) 
62.99

>  <label>  (1038) 
1

$$$$
CHEMBL381912
     RDKit          3D

  0  0  0  0  0  0  0  0  0  0999 V3000
M  V30 BEGIN CTAB
M  V30 COUNTS 46 50 0 0 1
M  V30 BEGIN ATOM
M  V30 1 C 11.307111 3.705774 -14.317504 0
M  V30 2 C 11.601600 5.039250 -13.982609 0
M  V30 3 C 10.720646 5.772324 -13.164357 0
M  V30 4 C 9.545721 5.177027 -12.645246 0
M  V30 5 C 8.514404 5.959111 -11.816669 0 CFG=2
M  V30 6 C 7.998739 7.212641 -12.541621 0
M  V30 7 C 8.799079 8.506820 -12.246865 0
M  V30 8 C 9.286021 8.630869 -10.809873 0
M  V30 9 C 9.908770 7.358949 -10.289739 0 CFG=1
M  V30 10 C 10.366384 7.561755 -8.886213 0
M  V30 11 N 11.175082 8.601668 -8.462266 0
M  V30 12 C 11.378155 8.525659 -7.101701 0
M  V30 13 C 12.061490 9.372327 -6.206776 0
M  V30 14 C 12.163047 9.007215 -4.852882 0
M  V30 15 C 11.608857 7.789369 -4.420728 0
M  V30 16 C 10.886023 6.972320 -5.318075 0
M  V30 17 C 10.731023 7.320358 -6.681124 0
M  V30 18 C 10.042923 6.769828 -7.830905 0
M  V30 19 C 9.095569 5.621982 -8.045628 0
M  V30 20 C 9.104383 5.139042 -9.508643 0
M  V30 21 N 8.886017 6.288474 -10.412026 0 CFG=2 CHG=1
M  V30 22 C 9.264583 3.838683 -12.995663 0
M  V30 23 C 10.133036 3.106879 -13.828499 0
M  V30 24 H 11.977967 3.145084 -14.952368 0
M  V30 25 H 12.498253 5.505858 -14.365085 0
M  V30 26 H 10.964490 6.802523 -12.968493 0
M  V30 27 H 7.643574 5.306632 -11.731615 0
M  V30 28 H 7.926837 6.990354 -13.601876 0
M  V30 29 H 6.965871 7.391016 -12.246865 0
M  V30 30 H 9.679232 8.572556 -12.877422 0
M  V30 31 H 8.193759 9.372622 -12.511886 0
M  V30 32 H 10.065832 9.372324 -10.757558 0
M  V30 33 H 8.486026 8.968051 -10.152984 0
M  V30 34 H 10.790229 7.095393 -10.867520 0
M  V30 35 H 11.538209 9.317361 -9.076297 0
M  V30 36 H 12.527880 10.280423 -6.557313 0
M  V30 37 H 12.696284 9.639066 -4.156826 0
M  V30 38 H 11.705068 7.493758 -3.385763 0
M  V30 39 H 10.432149 6.066915 -4.949637 0
M  V30 40 H 9.336001 4.764990 -7.446865 0
M  V30 41 H 8.086020 5.922350 -7.760925 0
M  V30 42 H 10.053992 4.659539 -9.751572 0
M  V30 43 H 8.320089 4.394298 -9.649511 0
M  V30 44 H 8.357177 3.372328 -12.646869 0
M  V30 45 H 9.899947 2.083377 -14.084242 0
M  V30 46 H 8.035433 6.727230 -10.060491 0
M  V30 END ATOM
M  V30 BEGIN BOND
M  V30 1 2 2 1
M  V30 2 1 3 2
M  V30 3 2 4 3
M  V30 4 1 5 4
M  V30 5 1 6 5
M  V30 6 1 7 6
M  V30 7 1 8 7
M  V30 8 1 9 8
M  V30 9 1 10 9
M  V30 10 1 11 10
M  V30 11 1 12 11
M  V30 12 2 13 12
M  V30 13 1 14 13
M  V30 14 2 15 14
M  V30 15 1 16 15
M  V30 16 1 17 12
M  V30 17 2 17 16
M  V30 18 2 18 10
M  V30 19 1 18 17
M  V30 20 1 19 18
M  V30 21 1 20 19
M  V30 22 1 21 5
M  V30 23 1 21 9
M  V30 24 1 21 20
M  V30 25 1 22 4
M  V30 26 1 23 1
M  V30 27 2 23 22
M  V30 28 1 24 1
M  V30 29 1 25 2
M  V30 30 1 26 3
M  V30 31 1 5 27 CFG=1
M  V30 32 1 28 6
M  V30 33 1 29 6
M  V30 34 1 30 7
M  V30 35 1 31 7
M  V30 36 1 32 8
M  V30 37 1 33 8
M  V30 38 1 9 34 CFG=3
M  V30 39 1 35 11
M  V30 40 1 36 13
M  V30 41 1 37 14
M  V30 42 1 38 15
M  V30 43 1 39 16
M  V30 44 1 40 19
M  V30 45 1 41 19
M  V30 46 1 42 20
M  V30 47 1 43 20
M  V30 48 1 44 22
M  V30 49 1 45 23
M  V30 50 1 21 46 CFG=1
M  V30 END BOND
M  V30 END CTAB
M  END
>  <b_m_subgroup_collapsed>  (1039) 
0

>  <r_i_docking_score>  (1039) 
-7.5601116861044897

>  <s_m_subgroup_title>  (1039) 
glide-dock_SP_D22_pv

>  <s_m_subgroupid>  (1039) 
glide-dock_SP_D22_pv

>  <Molecule ChEMBL ID>  (1039) 
CHEMBL381912

>  <Standard Type>  (1039) 
Ki

>  <Standard Value>  (1039) 
10000.0

>  <label>  (1039) 
0

$$$$
CHEMBL4079642
     RDKit          3D

  0  0  0  0  0  0  0  0  0  0999 V3000
M  V30 BEGIN CTAB
M  V30 COUNTS 61 65 0 0 1
M  V30 BEGIN ATOM
M  V30 1 C 6.497570 1.142347 -19.006763 0
M  V30 2 O 7.286159 1.724465 -17.976006 0
M  V30 3 C 7.190435 1.212132 -16.695320 0
M  V30 4 C 6.145353 0.316346 -16.340231 0
M  V30 5 C 6.052423 -0.217827 -15.046794 0
M  V30 6 C 7.025188 0.116847 -14.099598 0
M  V30 7 C 8.067538 0.990349 -14.452761 0
M  V30 8 C 8.177373 1.593699 -15.730379 0
M  V30 9 N 9.313086 2.438988 -15.977347 0
M  V30 10 C 9.410030 3.258476 -17.177074 0
M  V30 11 C 10.340026 4.148011 -16.353104 0
M  V30 12 C 9.698729 3.545218 -15.095846 0 CFG=2
M  V30 13 C 10.500860 3.339869 -13.819223 0
M  V30 14 N 9.326959 3.768086 -13.051026 0 CFG=1 CHG=1
M  V30 15 C 9.652786 4.645988 -11.902845 0
M  V30 16 C 8.458687 5.348586 -11.242338 0
M  V30 17 C 8.926828 6.188478 -10.037532 0
M  V30 18 S 9.685813 7.765021 -10.542341 0
M  V30 19 C 10.622426 8.133734 -9.093324 0
M  V30 20 N 11.932282 8.361530 -9.163205 0
M  V30 21 N 12.340468 8.570591 -7.870646 0
M  V30 22 C 11.252237 8.420658 -7.113701 0
M  V30 23 C 11.338516 8.430426 -5.663384 0
M  V30 24 C 11.453527 9.645606 -4.958188 0
M  V30 25 C 11.685746 9.627645 -3.569287 0
M  V30 26 C 11.821521 8.401962 -2.887857 0
M  V30 27 C 11.686078 7.187532 -3.587921 0
M  V30 28 C 11.428558 7.202634 -4.972565 0
M  V30 29 N 10.132916 8.206200 -7.832935 0
M  V30 30 C 8.775175 8.079865 -7.338682 0
M  V30 31 C 8.741145 4.385344 -14.242152 0
M  V30 32 H 6.801339 1.558066 -19.967541 0
M  V30 33 H 6.637431 0.061611 -19.062178 0
M  V30 34 H 5.437315 1.365371 -18.873075 0
M  V30 35 H 5.382319 0.022377 -17.044737 0
M  V30 36 H 5.251417 -0.898835 -14.795496 0
M  V30 37 H 6.987791 -0.315932 -13.110098 0
M  V30 38 H 8.826980 1.167987 -13.711880 0
M  V30 39 H 9.885423 2.760859 -18.023346 0
M  V30 40 H 8.485809 3.767854 -17.449120 0
M  V30 41 H 10.167806 5.216869 -16.487719 0
M  V30 42 H 11.395297 3.891848 -16.467299 0
M  V30 43 H 11.351522 4.020899 -13.752887 0
M  V30 44 H 10.803199 2.309758 -13.625864 0
M  V30 45 H 10.398310 5.386094 -12.198038 0
M  V30 46 H 10.093780 4.000250 -11.147239 0
M  V30 47 H 7.745086 4.599521 -10.896425 0
M  V30 48 H 7.925162 5.983639 -11.951094 0
M  V30 49 H 9.630095 5.619709 -9.427068 0
M  V30 50 H 8.085694 6.414232 -9.392565 0
M  V30 51 H 11.396289 10.587859 -5.484205 0
M  V30 52 H 11.780541 10.556671 -3.026210 0
M  V30 53 H 12.012349 8.395958 -1.825045 0
M  V30 54 H 11.779962 6.245621 -3.065973 0
M  V30 55 H 11.349835 6.267770 -5.510212 0
M  V30 56 H 8.086414 8.563041 -8.029043 0
M  V30 57 H 8.508482 7.029669 -7.221927 0
M  V30 58 H 8.675106 8.572039 -6.371876 0
M  V30 59 H 7.682823 4.153293 -14.365052 0
M  V30 60 H 8.933123 5.458030 -14.308694 0
M  V30 61 H 8.785724 2.961960 -12.771606 0
M  V30 END ATOM
M  V30 BEGIN BOND
M  V30 1 1 2 1
M  V30 2 1 3 2
M  V30 3 2 4 3
M  V30 4 1 5 4
M  V30 5 2 6 5
M  V30 6 1 7 6
M  V30 7 1 8 3
M  V30 8 2 8 7
M  V30 9 1 9 8
M  V30 10 1 10 9
M  V30 11 1 11 10
M  V30 12 1 12 9 CFG=1
M  V30 13 1 12 11
M  V30 14 1 13 12
M  V30 15 1 14 13
M  V30 16 1 15 14
M  V30 17 1 16 15
M  V30 18 1 17 16
M  V30 19 1 18 17
M  V30 20 1 19 18
M  V30 21 2 20 19
M  V30 22 1 21 20
M  V30 23 2 22 21
M  V30 24 1 23 22
M  V30 25 2 24 23
M  V30 26 1 25 24
M  V30 27 2 26 25
M  V30 28 1 27 26
M  V30 29 1 28 23
M  V30 30 2 28 27
M  V30 31 1 29 19
M  V30 32 1 29 22
M  V30 33 1 30 29
M  V30 34 1 31 12
M  V30 35 1 31 14
M  V30 36 1 32 1
M  V30 37 1 33 1
M  V30 38 1 34 1
M  V30 39 1 35 4
M  V30 40 1 36 5
M  V30 41 1 37 6
M  V30 42 1 38 7
M  V30 43 1 39 10
M  V30 44 1 40 10
M  V30 45 1 41 11
M  V30 46 1 42 11
M  V30 47 1 43 13
M  V30 48 1 44 13
M  V30 49 1 45 15
M  V30 50 1 46 15
M  V30 51 1 47 16
M  V30 52 1 48 16
M  V30 53 1 49 17
M  V30 54 1 50 17
M  V30 55 1 51 24
M  V30 56 1 52 25
M  V30 57 1 53 26
M  V30 58 1 54 27
M  V30 59 1 55 28
M  V30 60 1 56 30
M  V30 61 1 57 30
M  V30 62 1 58 30
M  V30 63 1 59 31
M  V30 64 1 60 31
M  V30 65 1 14 61 CFG=1
M  V30 END BOND
M  V30 END CTAB
M  END
>  <b_m_subgroup_collapsed>  (1040) 
0

>  <r_i_docking_score>  (1040) 
-7.5600954628923898

>  <s_m_subgroup_title>  (1040) 
glide-dock_SP_D22_pv

>  <s_m_subgroupid>  (1040) 
glide-dock_SP_D22_pv

>  <Molecule ChEMBL ID>  (1040) 
CHEMBL4079642

>  <Standard Type>  (1040) 
Ki

>  <Standard Value>  (1040) 
114945.0

>  <label>  (1040) 
0

$$$$
CHEMBL5723012
     RDKit          3D

  0  0  0  0  0  0  0  0  0  0999 V3000
M  V30 BEGIN CTAB
M  V30 COUNTS 42 43 0 0 1
M  V30 BEGIN ATOM
M  V30 1 C 6.510501 4.051414 -12.415236 0
M  V30 2 C 7.829139 4.530776 -13.037360 0
M  V30 3 C 9.111457 4.209162 -12.233305 0
M  V30 4 C 9.165221 4.710963 -10.764264 0
M  V30 5 C 8.875810 6.200941 -10.495717 0 CFG=1
M  V30 6 N 9.253646 6.626165 -9.119347 0
M  V30 7 C 10.643069 7.047460 -8.935169 0
M  V30 8 C 10.868882 7.748889 -7.605886 0
M  V30 9 C 11.130968 9.070230 -7.531715 0
M  V30 10 C 11.459437 9.724170 -6.246865 0
M  V30 11 O 11.686019 10.931263 -6.189191 0
M  V30 12 C 11.542786 8.825922 -5.059758 0
M  V30 13 C 11.915347 9.314123 -3.785324 0
M  V30 14 C 12.089762 8.429324 -2.704168 0
M  V30 15 F 12.486021 8.899131 -1.498081 0
M  V30 16 C 11.868742 7.052964 -2.882288 0
M  V30 17 C 11.456912 6.572324 -4.138247 0
M  V30 18 C 11.286022 7.443442 -5.226153 0
M  V30 19 N 10.911963 6.944098 -6.480384 0
M  V30 20 C 9.328567 7.190027 -11.591337 0
M  V30 21 N 8.486022 8.187329 -11.846865 0
M  V30 22 O 10.415749 7.085718 -12.156745 0
M  V30 23 H 5.669420 4.317352 -13.055906 0
M  V30 24 H 6.486022 2.972324 -12.281993 0
M  V30 25 H 6.334273 4.515656 -11.446864 0
M  V30 26 H 7.757086 5.602904 -13.213685 0
M  V30 27 H 7.925653 4.085548 -14.027954 0
M  V30 28 H 9.964247 4.614818 -12.777333 0
M  V30 29 H 9.286021 3.133948 -12.246863 0
M  V30 30 H 10.107540 4.423017 -10.317936 0
M  V30 31 H 8.418420 4.172325 -10.185111 0
M  V30 32 H 7.786141 6.183767 -10.521285 0
M  V30 33 H 8.634780 7.372328 -8.826535 0
M  V30 34 H 10.989499 7.735057 -9.704814 0
M  V30 35 H 11.285639 6.172326 -8.997587 0
M  V30 36 H 11.134106 9.681669 -8.422071 0
M  V30 37 H 12.086020 10.363244 -3.617816 0
M  V30 38 H 12.002305 6.367167 -2.058373 0
M  V30 39 H 11.277841 5.522834 -4.269338 0
M  V30 40 H 10.715453 5.956590 -6.576251 0
M  V30 41 H 7.603347 8.183863 -11.312853 0
M  V30 42 H 8.697263 8.892859 -12.533411 0
M  V30 END ATOM
M  V30 BEGIN BOND
M  V30 1 1 2 1
M  V30 2 1 3 2
M  V30 3 1 4 3
M  V30 4 1 5 4
M  V30 5 1 6 5
M  V30 6 1 7 6
M  V30 7 1 8 7
M  V30 8 2 9 8
M  V30 9 1 10 9
M  V30 10 2 11 10
M  V30 11 1 12 10
M  V30 12 2 13 12
M  V30 13 1 14 13
M  V30 14 1 15 14
M  V30 15 2 16 14
M  V30 16 1 17 16
M  V30 17 1 18 12
M  V30 18 2 18 17
M  V30 19 1 19 8
M  V30 20 1 19 18
M  V30 21 1 20 5
M  V30 22 1 21 20
M  V30 23 2 22 20
M  V30 24 1 23 1
M  V30 25 1 24 1
M  V30 26 1 25 1
M  V30 27 1 26 2
M  V30 28 1 27 2
M  V30 29 1 28 3
M  V30 30 1 29 3
M  V30 31 1 30 4
M  V30 32 1 31 4
M  V30 33 1 5 32 CFG=1
M  V30 34 1 33 6
M  V30 35 1 34 7
M  V30 36 1 35 7
M  V30 37 1 36 9
M  V30 38 1 37 13
M  V30 39 1 38 16
M  V30 40 1 39 17
M  V30 41 1 40 19
M  V30 42 1 41 21
M  V30 43 1 42 21
M  V30 END BOND
M  V30 END CTAB
M  END
>  <b_m_subgroup_collapsed>  (1041) 
0

>  <r_i_docking_score>  (1041) 
-7.5586540074938204

>  <s_m_subgroup_title>  (1041) 
glide-dock_SP_D22_pv

>  <s_m_subgroupid>  (1041) 
glide-dock_SP_D22_pv

>  <Molecule ChEMBL ID>  (1041) 
CHEMBL5723012

>  <Standard Type>  (1041) 
Ki

>  <Standard Value>  (1041) 
10000.0

>  <label>  (1041) 
0

$$$$
CHEMBL543587
     RDKit          3D

  0  0  0  0  0  0  0  0  0  0999 V3000
M  V30 BEGIN CTAB
M  V30 COUNTS 47 48 0 0 1
M  V30 BEGIN ATOM
M  V30 1 C 6.025093 5.723916 -12.291268 0
M  V30 2 C 7.489222 6.190404 -12.355911 0
M  V30 3 N 8.202234 6.130666 -11.049657 0 CHG=1
M  V30 4 C 8.316221 4.745464 -10.510508 0
M  V30 5 C 8.650351 4.710744 -9.010127 0
M  V30 6 C 9.513169 6.832026 -11.115167 0
M  V30 7 C 9.422280 8.324578 -10.732692 0
M  V30 8 C 9.582931 8.663333 -9.229980 0
M  V30 9 C 10.950475 8.304852 -8.587450 0 CFG=2
M  V30 10 C 12.158596 8.572220 -9.503149 0
M  V30 11 O 10.937132 6.922955 -8.260333 0
M  V30 12 C 11.130990 6.790071 -6.915585 0
M  V30 13 C 11.280866 7.920115 -6.216896 0
M  V30 14 C 11.575304 8.035200 -4.771018 0
M  V30 15 C 11.729935 6.862722 -3.998645 0
M  V30 16 C 12.086407 6.944129 -2.641835 0
M  V30 17 C 12.277478 8.199547 -2.039762 0
M  V30 18 C 12.086162 9.372165 -2.787517 0
M  V30 19 C 11.735541 9.293826 -4.144915 0
M  V30 20 C 11.166110 8.961917 -7.219840 0
M  V30 21 O 11.289124 10.171865 -7.046602 0
M  V30 22 H 5.490652 6.009473 -13.196542 0
M  V30 23 H 5.935725 4.641251 -12.206878 0
M  V30 24 H 5.493381 6.166935 -11.448103 0
M  V30 25 H 7.490717 7.227264 -12.693831 0
M  V30 26 H 8.031520 5.616138 -13.109370 0
M  V30 27 H 7.383442 4.202497 -10.646827 0
M  V30 28 H 9.058425 4.179193 -11.075023 0
M  V30 29 H 8.417780 3.736603 -8.584713 0
M  V30 30 H 9.709868 4.879817 -8.829846 0
M  V30 31 H 8.083094 5.454697 -8.449441 0
M  V30 32 H 9.902740 6.750091 -12.132092 0
M  V30 33 H 10.264304 6.331967 -10.508829 0
M  V30 34 H 8.486150 8.746510 -11.093564 0
M  V30 35 H 10.187079 8.865296 -11.290239 0
M  V30 36 H 8.777909 8.193552 -8.662118 0
M  V30 37 H 9.421103 9.735976 -9.127335 0
M  V30 38 H 12.085877 9.558957 -9.958288 0
M  V30 39 H 13.105680 8.522915 -8.959756 0
M  V30 40 H 12.216544 7.840736 -10.307136 0
M  V30 41 H 11.170071 5.771984 -6.572626 0
M  V30 42 H 11.598557 5.882875 -4.430056 0
M  V30 43 H 12.213949 6.039975 -2.062327 0
M  V30 44 H 12.560646 8.269254 -1.002800 0
M  V30 45 H 12.194619 10.335999 -2.315611 0
M  V30 46 H 11.603956 10.216623 -4.684121 0
M  V30 47 H 7.600590 6.675421 -10.424240 0
M  V30 END ATOM
M  V30 BEGIN BOND
M  V30 1 1 2 1
M  V30 2 1 3 2
M  V30 3 1 4 3
M  V30 4 1 5 4
M  V30 5 1 6 3
M  V30 6 1 7 6
M  V30 7 1 8 7
M  V30 8 1 9 8 CFG=3
M  V30 9 1 10 9
M  V30 10 1 11 9
M  V30 11 1 12 11
M  V30 12 2 13 12
M  V30 13 1 14 13
M  V30 14 2 15 14
M  V30 15 1 16 15
M  V30 16 2 17 16
M  V30 17 1 18 17
M  V30 18 1 19 14
M  V30 19 2 19 18
M  V30 20 1 20 9
M  V30 21 1 20 13
M  V30 22 2 21 20
M  V30 23 1 22 1
M  V30 24 1 23 1
M  V30 25 1 24 1
M  V30 26 1 25 2
M  V30 27 1 26 2
M  V30 28 1 27 4
M  V30 29 1 28 4
M  V30 30 1 29 5
M  V30 31 1 30 5
M  V30 32 1 31 5
M  V30 33 1 32 6
M  V30 34 1 33 6
M  V30 35 1 34 7
M  V30 36 1 35 7
M  V30 37 1 36 8
M  V30 38 1 37 8
M  V30 39 1 38 10
M  V30 40 1 39 10
M  V30 41 1 40 10
M  V30 42 1 41 12
M  V30 43 1 42 15
M  V30 44 1 43 16
M  V30 45 1 44 17
M  V30 46 1 45 18
M  V30 47 1 46 19
M  V30 48 1 47 3
M  V30 END BOND
M  V30 END CTAB
M  END
>  <b_m_subgroup_collapsed>  (1042) 
0

>  <r_i_docking_score>  (1042) 
-7.5553792096271

>  <s_m_subgroup_title>  (1042) 
glide-dock_SP_D22_pv

>  <s_m_subgroupid>  (1042) 
glide-dock_SP_D22_pv

>  <Molecule ChEMBL ID>  (1042) 
CHEMBL543587

>  <Standard Type>  (1042) 
Ki

>  <Standard Value>  (1042) 
10000.0

>  <label>  (1042) 
0

$$$$
CHEMBL5722979
     RDKit          3D

  0  0  0  0  0  0  0  0  0  0999 V3000
M  V30 BEGIN CTAB
M  V30 COUNTS 44 46 0 0 1
M  V30 BEGIN ATOM
M  V30 1 O 11.728045 3.942740 -14.559143 0
M  V30 2 C 10.524120 3.863440 -14.319532 0
M  V30 3 C 9.797459 4.972326 -13.670487 0
M  V30 4 C 8.495935 4.855907 -13.321290 0
M  V30 5 C 7.703086 5.970640 -12.646864 0
M  V30 6 N 8.086028 6.172324 -11.231918 0 CHG=1
M  V30 7 C 9.455444 6.705685 -11.029136 0
M  V30 8 C 9.617558 7.565468 -9.759506 0
M  V30 9 O 8.886021 8.764541 -9.981656 0
M  V30 10 C 11.101873 7.971820 -9.597553 0
M  V30 11 C 11.376732 8.752236 -8.299201 0
M  V30 12 C 10.884888 7.988729 -7.061100 0
M  V30 13 C 9.400474 7.623234 -7.197476 0
M  V30 14 C 9.145506 6.821209 -8.485027 0
M  V30 15 N 7.768834 3.716060 -13.632339 0
M  V30 16 C 8.339262 2.625049 -14.301847 0
M  V30 17 C 7.558859 1.497768 -14.629698 0
M  V30 18 C 8.150984 0.399406 -15.282922 0
M  V30 19 C 9.519163 0.426563 -15.615705 0
M  V30 20 F 10.086031 -0.627598 -16.246801 0
M  V30 21 C 10.299703 1.553323 -15.300362 0
M  V30 22 C 9.713691 2.658647 -14.646608 0
M  V30 23 H 10.357841 5.873013 -13.476650 0
M  V30 24 H 6.637345 5.738008 -12.671941 0
M  V30 25 H 7.823983 6.902256 -13.201144 0
M  V30 26 H 7.971053 5.312305 -10.714901 0
M  V30 27 H 9.746325 7.315871 -11.885749 0
M  V30 28 H 10.137420 5.856575 -10.995282 0
M  V30 29 H 7.944816 8.572321 -10.076303 0
M  V30 30 H 11.718108 7.072845 -9.596378 0
M  V30 31 H 11.432333 8.562243 -10.453821 0
M  V30 32 H 12.444310 8.957026 -8.209582 0
M  V30 33 H 10.885761 9.723763 -8.348503 0
M  V30 34 H 11.475488 7.080853 -6.930463 0
M  V30 35 H 11.039817 8.590864 -6.165241 0
M  V30 36 H 9.078922 7.043903 -6.331167 0
M  V30 37 H 8.791572 8.528874 -7.201206 0
M  V30 38 H 8.086043 6.572602 -8.547892 0
M  V30 39 H 9.668468 5.866708 -8.409745 0
M  V30 40 H 6.787746 3.663171 -13.393909 0
M  V30 41 H 6.509772 1.464002 -14.374849 0
M  V30 42 H 7.556918 -0.469423 -15.528009 0
M  V30 43 H 11.347338 1.562149 -15.566123 0
M  V30 44 H 7.422368 6.849989 -10.833957 0
M  V30 END ATOM
M  V30 BEGIN BOND
M  V30 1 2 2 1
M  V30 2 1 3 2
M  V30 3 2 4 3
M  V30 4 1 5 4
M  V30 5 1 6 5
M  V30 6 1 7 6
M  V30 7 1 8 7
M  V30 8 1 9 8
M  V30 9 1 10 8
M  V30 10 1 11 10
M  V30 11 1 12 11
M  V30 12 1 13 12
M  V30 13 1 14 8
M  V30 14 1 14 13
M  V30 15 1 15 4
M  V30 16 1 16 15
M  V30 17 2 17 16
M  V30 18 1 18 17
M  V30 19 2 19 18
M  V30 20 1 20 19
M  V30 21 1 21 19
M  V30 22 1 22 2
M  V30 23 1 22 16
M  V30 24 2 22 21
M  V30 25 1 23 3
M  V30 26 1 24 5
M  V30 27 1 25 5
M  V30 28 1 26 6
M  V30 29 1 27 7
M  V30 30 1 28 7
M  V30 31 1 29 9
M  V30 32 1 30 10
M  V30 33 1 31 10
M  V30 34 1 32 11
M  V30 35 1 33 11
M  V30 36 1 34 12
M  V30 37 1 35 12
M  V30 38 1 36 13
M  V30 39 1 37 13
M  V30 40 1 38 14
M  V30 41 1 39 14
M  V30 42 1 40 15
M  V30 43 1 41 17
M  V30 44 1 42 18
M  V30 45 1 43 21
M  V30 46 1 44 6
M  V30 END BOND
M  V30 END CTAB
M  END
>  <b_m_subgroup_collapsed>  (1043) 
0

>  <r_i_docking_score>  (1043) 
-7.5549282565807498

>  <s_m_subgroup_title>  (1043) 
glide-dock_SP_D22_pv

>  <s_m_subgroupid>  (1043) 
glide-dock_SP_D22_pv

>  <Molecule ChEMBL ID>  (1043) 
CHEMBL5722979

>  <Standard Type>  (1043) 
Ki

>  <Standard Value>  (1043) 
10000.0

>  <label>  (1043) 
0

$$$$
CHEMBL3289952
     RDKit          3D

  0  0  0  0  0  0  0  0  0  0999 V3000
M  V30 BEGIN CTAB
M  V30 COUNTS 55 59 0 0 1
M  V30 BEGIN ATOM
M  V30 1 O 5.977213 4.531566 -13.412424 0
M  V30 2 S 7.322939 4.982315 -13.026603 0
M  V30 3 O 7.686078 6.406662 -13.046894 0
M  V30 4 N 7.616839 4.420390 -11.447232 0
M  V30 5 C 8.815889 4.842012 -10.737931 0
M  V30 6 C 8.599061 6.202535 -10.097999 0
M  V30 7 N 9.772977 6.464175 -9.288990 0
M  V30 8 C 10.177111 7.866539 -9.343006 0
M  V30 9 C 11.525799 7.977441 -8.616271 0
M  V30 10 N 11.400111 7.518678 -7.231838 0
M  V30 11 C 11.282115 8.445887 -6.181554 0
M  V30 12 N 10.885622 9.672985 -6.442152 0
M  V30 13 S 10.887685 10.572225 -5.046688 0
M  V30 14 C 11.610706 9.333279 -4.040721 0
M  V30 15 C 12.070949 9.383862 -2.712801 0
M  V30 16 C 12.485810 8.208862 -2.072123 0
M  V30 17 C 12.475856 6.994660 -2.776866 0
M  V30 18 C 12.085677 6.970583 -4.127670 0
M  V30 19 C 11.660374 8.137911 -4.809579 0
M  V30 20 C 10.803820 6.194302 -7.102852 0
M  V30 21 C 9.496946 6.105027 -7.899410 0
M  V30 22 C 8.517037 4.054364 -13.978826 0
M  V30 23 C 9.747439 4.643463 -14.329787 0
M  V30 24 C 10.674505 3.913629 -15.099018 0
M  V30 25 C 10.368745 2.602001 -15.518291 0
M  V30 26 C 11.284438 1.877121 -16.309305 0
M  V30 27 C 10.969200 0.572175 -16.734993 0
M  V30 28 C 9.749348 -0.020640 -16.358599 0
M  V30 29 C 8.833506 0.695878 -15.565184 0
M  V30 30 C 9.133843 2.009869 -15.149411 0
M  V30 31 C 8.208585 2.739270 -14.378115 0
M  V30 32 H 7.338355 3.456218 -11.287756 0
M  V30 33 H 9.675053 4.840653 -11.408775 0
M  V30 34 H 9.030554 4.149854 -9.935561 0
M  V30 35 H 7.686346 6.172307 -9.498528 0
M  V30 36 H 8.485045 6.972353 -10.859764 0
M  V30 37 H 9.420750 8.511628 -8.891641 0
M  V30 38 H 10.299242 8.182304 -10.379542 0
M  V30 39 H 11.896031 9.002486 -8.662510 0
M  V30 40 H 12.275411 7.372344 -9.124064 0
M  V30 41 H 12.085691 10.321085 -2.180073 0
M  V30 42 H 12.809929 8.242121 -1.045805 0
M  V30 43 H 12.789172 6.081841 -2.290069 0
M  V30 44 H 12.117717 6.029016 -4.651433 0
M  V30 45 H 11.513766 5.442830 -7.445846 0
M  V30 46 H 10.572256 5.971394 -6.064517 0
M  V30 47 H 8.734822 6.764346 -7.477368 0
M  V30 48 H 9.107889 5.088952 -7.845230 0
M  V30 49 H 9.978525 5.650632 -14.017436 0
M  V30 50 H 11.616311 4.368466 -15.372952 0
M  V30 51 H 12.227825 2.318119 -16.597862 0
M  V30 52 H 11.672757 0.022380 -17.343760 0
M  V30 53 H 9.514832 -1.025425 -16.680344 0
M  V30 54 H 7.898720 0.232532 -15.283221 0
M  V30 55 H 7.262267 2.299331 -14.100337 0
M  V30 END ATOM
M  V30 BEGIN BOND
M  V30 1 2 2 1
M  V30 2 2 3 2
M  V30 3 1 4 2
M  V30 4 1 5 4
M  V30 5 1 6 5
M  V30 6 1 7 6
M  V30 7 1 8 7
M  V30 8 1 9 8
M  V30 9 1 10 9
M  V30 10 1 11 10
M  V30 11 2 12 11
M  V30 12 1 13 12
M  V30 13 1 14 13
M  V30 14 2 15 14
M  V30 15 1 16 15
M  V30 16 2 17 16
M  V30 17 1 18 17
M  V30 18 1 19 11
M  V30 19 1 19 14
M  V30 20 2 19 18
M  V30 21 1 20 10
M  V30 22 1 21 7
M  V30 23 1 21 20
M  V30 24 1 22 2
M  V30 25 1 23 22
M  V30 26 2 24 23
M  V30 27 1 25 24
M  V30 28 2 26 25
M  V30 29 1 27 26
M  V30 30 2 28 27
M  V30 31 1 29 28
M  V30 32 1 30 25
M  V30 33 2 30 29
M  V30 34 2 31 22
M  V30 35 1 31 30
M  V30 36 1 32 4
M  V30 37 1 33 5
M  V30 38 1 34 5
M  V30 39 1 35 6
M  V30 40 1 36 6
M  V30 41 1 37 8
M  V30 42 1 38 8
M  V30 43 1 39 9
M  V30 44 1 40 9
M  V30 45 1 41 15
M  V30 46 1 42 16
M  V30 47 1 43 17
M  V30 48 1 44 18
M  V30 49 1 45 20
M  V30 50 1 46 20
M  V30 51 1 47 21
M  V30 52 1 48 21
M  V30 53 1 49 23
M  V30 54 1 50 24
M  V30 55 1 51 26
M  V30 56 1 52 27
M  V30 57 1 53 28
M  V30 58 1 54 29
M  V30 59 1 55 31
M  V30 END BOND
M  V30 END CTAB
M  END
>  <b_m_subgroup_collapsed>  (1044) 
0

>  <r_i_docking_score>  (1044) 
-7.5541569474783001

>  <s_m_subgroup_title>  (1044) 
glide-dock_SP_D22_pv

>  <s_m_subgroupid>  (1044) 
glide-dock_SP_D22_pv

>  <Molecule ChEMBL ID>  (1044) 
CHEMBL3289952

>  <Standard Type>  (1044) 
Ki

>  <Standard Value>  (1044) 
18.0

>  <label>  (1044) 
1

$$$$
CHEMBL4876260
     RDKit          3D

  0  0  0  0  0  0  0  0  0  0999 V3000
M  V30 BEGIN CTAB
M  V30 COUNTS 54 57 0 0 1
M  V30 BEGIN ATOM
M  V30 1 O 11.091918 5.105610 -16.217863 0
M  V30 2 C 11.068192 3.935774 -15.836167 0
M  V30 3 N 10.738822 3.567184 -14.588210 0
M  V30 4 C 10.269814 4.479563 -13.548412 0
M  V30 5 C 8.750812 4.496894 -13.337224 0
M  V30 6 C 7.969533 3.429358 -13.846864 0
M  V30 7 C 6.580854 3.379569 -13.636707 0
M  V30 8 C 5.949066 4.399746 -12.910501 0
M  V30 9 C 6.702595 5.473480 -12.406693 0
M  V30 10 C 8.099673 5.539235 -12.609757 0
M  V30 11 C 8.839846 6.753327 -12.038788 0
M  V30 12 N 8.886032 6.852475 -10.552958 0 CFG=1 CHG=1
M  V30 13 C 9.100893 5.568175 -9.842689 0
M  V30 14 C 8.916079 5.746328 -8.332505 0
M  V30 15 C 9.740232 6.894509 -7.780933 0
M  V30 16 C 10.080356 6.936499 -6.413805 0
M  V30 17 C 10.889289 7.965300 -5.904912 0
M  V30 18 O 11.286107 7.933857 -4.599799 0
M  V30 19 C 11.319299 9.000450 -6.753860 0
M  V30 20 O 12.086170 10.011374 -6.247137 0
M  V30 21 C 10.962263 8.975185 -8.118103 0
M  V30 22 C 10.170792 7.929832 -8.637528 0
M  V30 23 C 9.828316 7.923445 -10.121662 0
M  V30 24 C 11.460708 2.822004 -16.759136 0
M  V30 25 C 12.515308 3.010204 -17.679979 0
M  V30 26 C 12.863457 1.988747 -18.585449 0
M  V30 27 C 12.147359 0.776973 -18.587885 0
M  V30 28 C 11.085233 0.588609 -17.683743 0
M  V30 29 Br 10.086051 -1.027665 -17.719067 0
M  V30 30 C 10.745960 1.602226 -16.767202 0
M  V30 31 H 10.789206 2.586720 -14.353292 0
M  V30 32 H 10.644233 5.475457 -13.778290 0
M  V30 33 H 10.737051 4.175779 -12.612328 0
M  V30 34 H 8.422307 2.615453 -14.392026 0
M  V30 35 H 6.003678 2.553393 -14.024427 0
M  V30 36 H 4.885835 4.356307 -12.738955 0
M  V30 37 H 6.196809 6.249283 -11.848255 0
M  V30 38 H 8.343455 7.649705 -12.414146 0
M  V30 39 H 9.853423 6.813427 -12.421210 0
M  V30 40 H 8.395278 4.805134 -10.171783 0
M  V30 41 H 10.096181 5.191715 -10.067989 0
M  V30 42 H 9.203013 4.816375 -7.846403 0
M  V30 43 H 7.867132 5.913289 -8.090685 0
M  V30 44 H 9.728246 6.172170 -5.743940 0
M  V30 45 H 11.050233 7.132472 -4.159035 0
M  V30 46 H 12.716186 10.360017 -6.858294 0
M  V30 47 H 11.289796 9.768615 -8.774400 0
M  V30 48 H 9.408986 8.891984 -10.397293 0
M  V30 49 H 10.774485 7.822180 -10.655686 0
M  V30 50 H 13.063964 3.941702 -17.694580 0
M  V30 51 H 13.674276 2.138905 -19.282682 0
M  V30 52 H 12.405801 -0.002593 -19.289494 0
M  V30 53 H 9.916940 1.442843 -16.093164 0
M  V30 54 H 7.948672 7.166285 -10.272625 0
M  V30 END ATOM
M  V30 BEGIN BOND
M  V30 1 2 2 1
M  V30 2 1 3 2
M  V30 3 1 4 3
M  V30 4 1 5 4
M  V30 5 2 6 5
M  V30 6 1 7 6
M  V30 7 2 8 7
M  V30 8 1 9 8
M  V30 9 1 10 5
M  V30 10 2 10 9
M  V30 11 1 11 10
M  V30 12 1 12 11
M  V30 13 1 13 12
M  V30 14 1 14 13
M  V30 15 1 15 14
M  V30 16 1 16 15
M  V30 17 2 17 16
M  V30 18 1 18 17
M  V30 19 1 19 17
M  V30 20 1 20 19
M  V30 21 2 21 19
M  V30 22 2 22 15
M  V30 23 1 22 21
M  V30 24 1 23 12
M  V30 25 1 23 22
M  V30 26 1 24 2
M  V30 27 2 25 24
M  V30 28 1 26 25
M  V30 29 2 27 26
M  V30 30 1 28 27
M  V30 31 1 29 28
M  V30 32 1 30 24
M  V30 33 2 30 28
M  V30 34 1 31 3
M  V30 35 1 32 4
M  V30 36 1 33 4
M  V30 37 1 34 6
M  V30 38 1 35 7
M  V30 39 1 36 8
M  V30 40 1 37 9
M  V30 41 1 38 11
M  V30 42 1 39 11
M  V30 43 1 40 13
M  V30 44 1 41 13
M  V30 45 1 42 14
M  V30 46 1 43 14
M  V30 47 1 44 16
M  V30 48 1 45 18
M  V30 49 1 46 20
M  V30 50 1 47 21
M  V30 51 1 48 23
M  V30 52 1 49 23
M  V30 53 1 50 25
M  V30 54 1 51 26
M  V30 55 1 52 27
M  V30 56 1 53 30
M  V30 57 1 12 54 CFG=1
M  V30 END BOND
M  V30 END CTAB
M  END
>  <b_m_subgroup_collapsed>  (1045) 
0

>  <r_i_docking_score>  (1045) 
-7.5534291436641503

>  <s_m_subgroup_title>  (1045) 
glide-dock_SP_D22_pv

>  <s_m_subgroupid>  (1045) 
glide-dock_SP_D22_pv

>  <Molecule ChEMBL ID>  (1045) 
CHEMBL4876260

>  <Standard Type>  (1045) 
Ki

>  <Standard Value>  (1045) 
56.0

>  <label>  (1045) 
1

$$$$
CHEMBL1204203
     RDKit          3D

  0  0  0  0  0  0  0  0  0  0999 V3000
M  V30 BEGIN CTAB
M  V30 COUNTS 66 69 0 0 1
M  V30 BEGIN ATOM
M  V30 1 C 12.518679 8.656968 -2.035206 0
M  V30 2 C 12.119192 7.980431 -3.349573 0
M  V30 3 S 11.680936 9.240459 -4.614487 0
M  V30 4 O 12.936075 9.772304 -5.140610 0
M  V30 5 O 10.662188 10.164747 -4.100179 0
M  V30 6 N 10.897459 8.319272 -5.868276 0
M  V30 7 C 11.159705 8.197819 -7.241912 0
M  V30 8 C 12.381806 8.572265 -7.847016 0
M  V30 9 C 12.603101 8.325045 -9.209546 0
M  V30 10 C 11.599308 7.772291 -10.011946 0
M  V30 11 C 10.368270 7.412486 -9.434675 0
M  V30 12 N 9.400396 6.785093 -10.228428 0
M  V30 13 C 9.025935 7.330772 -11.529635 0
M  V30 14 C 8.810751 6.183230 -12.523714 0
M  V30 15 N 7.877411 5.166603 -11.977919 0 CHG=1
M  V30 16 C 7.595339 4.105674 -12.973968 0
M  V30 17 C 6.241101 3.428072 -12.739632 0
M  V30 18 C 5.907719 2.409521 -13.837870 0
M  V30 19 C 6.650750 1.060266 -13.780921 0
M  V30 20 N 6.190537 0.178479 -14.858058 0
M  V30 21 C 6.696842 0.186666 -16.103167 0
M  V30 22 O 7.618164 0.882922 -16.531254 0
M  V30 23 C 5.914237 -0.807912 -16.938845 0 CFG=2
M  V30 24 C 5.182145 -0.346889 -18.204193 0
M  V30 25 C 3.892442 -1.181805 -18.148970 0
M  V30 26 C 3.561007 -1.269081 -16.652803 0
M  V30 27 N 4.844950 -1.065151 -16.015047 0
M  V30 28 C 5.069887 -0.567800 -14.795332 0
M  V30 29 O 4.290948 -0.627594 -13.846760 0
M  V30 30 C 8.364148 4.630141 -10.682382 0
M  V30 31 C 8.568535 5.742539 -9.652391 0
M  V30 32 C 10.156846 7.625523 -8.051928 0
M  V30 33 H 12.862482 7.928959 -1.302992 0
M  V30 34 H 13.323110 9.371963 -2.199558 0
M  V30 35 H 11.685869 9.203520 -1.598449 0
M  V30 36 H 11.286220 7.303411 -3.198217 0
M  V30 37 H 12.941381 7.386009 -3.746334 0
M  V30 38 H 9.985686 7.971618 -5.610153 0
M  V30 39 H 13.200013 8.998336 -7.294439 0
M  V30 40 H 13.557252 8.572187 -9.647237 0
M  V30 41 H 11.800667 7.591168 -11.055645 0
M  V30 42 H 8.098644 7.899344 -11.446082 0
M  V30 43 H 9.774197 8.022459 -11.911854 0
M  V30 44 H 8.397038 6.572920 -13.448735 0
M  V30 45 H 9.764534 5.714835 -12.767432 0
M  V30 46 H 7.578570 4.542441 -13.972824 0
M  V30 47 H 8.407230 3.377044 -12.982750 0
M  V30 48 H 6.175019 2.970454 -11.753812 0
M  V30 49 H 5.467700 4.197349 -12.750247 0
M  V30 50 H 4.844359 2.198850 -13.774337 0
M  V30 51 H 6.086165 2.873437 -14.808490 0
M  V30 52 H 7.731241 1.207881 -13.847911 0
M  V30 53 H 6.477942 0.571718 -12.820438 0
M  V30 54 H 6.486701 -1.722461 -17.105927 0
M  V30 55 H 5.756186 -0.532766 -19.109953 0
M  V30 56 H 4.952675 0.718844 -18.159334 0
M  V30 57 H 4.085108 -2.183154 -18.537979 0
M  V30 58 H 3.080330 -0.750480 -18.735554 0
M  V30 59 H 3.138805 -2.227569 -16.379320 0
M  V30 60 H 2.853435 -0.509274 -16.331203 0
M  V30 61 H 7.667451 3.899385 -10.281857 0
M  V30 62 H 9.317412 4.130097 -10.847892 0
M  V30 63 H 9.029664 5.317877 -8.759541 0
M  V30 64 H 7.622164 6.172222 -9.344978 0
M  V30 65 H 9.213117 7.341701 -7.607568 0
M  V30 66 H 7.014071 5.655758 -11.778402 0
M  V30 END ATOM
M  V30 BEGIN BOND
M  V30 1 1 2 1
M  V30 2 1 3 2
M  V30 3 2 4 3
M  V30 4 2 5 3
M  V30 5 1 6 3
M  V30 6 1 7 6
M  V30 7 1 8 7
M  V30 8 2 9 8
M  V30 9 1 10 9
M  V30 10 2 11 10
M  V30 11 1 12 11
M  V30 12 1 13 12
M  V30 13 1 14 13
M  V30 14 1 15 14
M  V30 15 1 16 15
M  V30 16 1 17 16
M  V30 17 1 18 17
M  V30 18 1 19 18
M  V30 19 1 20 19
M  V30 20 1 21 20
M  V30 21 2 22 21
M  V30 22 1 23 21
M  V30 23 1 24 23
M  V30 24 1 25 24
M  V30 25 1 26 25
M  V30 26 1 27 23
M  V30 27 1 27 26
M  V30 28 1 28 20
M  V30 29 1 28 27
M  V30 30 2 29 28
M  V30 31 1 30 15
M  V30 32 1 31 12
M  V30 33 1 31 30
M  V30 34 2 32 7
M  V30 35 1 32 11
M  V30 36 1 33 1
M  V30 37 1 34 1
M  V30 38 1 35 1
M  V30 39 1 36 2
M  V30 40 1 37 2
M  V30 41 1 38 6
M  V30 42 1 39 8
M  V30 43 1 40 9
M  V30 44 1 41 10
M  V30 45 1 42 13
M  V30 46 1 43 13
M  V30 47 1 44 14
M  V30 48 1 45 14
M  V30 49 1 46 16
M  V30 50 1 47 16
M  V30 51 1 48 17
M  V30 52 1 49 17
M  V30 53 1 50 18
M  V30 54 1 51 18
M  V30 55 1 52 19
M  V30 56 1 53 19
M  V30 57 1 23 54 CFG=3
M  V30 58 1 55 24
M  V30 59 1 56 24
M  V30 60 1 57 25
M  V30 61 1 58 25
M  V30 62 1 59 26
M  V30 63 1 60 26
M  V30 64 1 61 30
M  V30 65 1 62 30
M  V30 66 1 63 31
M  V30 67 1 64 31
M  V30 68 1 65 32
M  V30 69 1 66 15
M  V30 END BOND
M  V30 END CTAB
M  END
>  <b_m_subgroup_collapsed>  (1046) 
0

>  <r_i_docking_score>  (1046) 
-7.5522014808899298

>  <s_m_subgroup_title>  (1046) 
glide-dock_SP_D22_pv

>  <s_m_subgroupid>  (1046) 
glide-dock_SP_D22_pv

>  <Molecule ChEMBL ID>  (1046) 
CHEMBL1204203

>  <Standard Type>  (1046) 
Ki

>  <Standard Value>  (1046) 
22.0

>  <label>  (1046) 
1

$$$$
CHEMBL5188923
     RDKit          3D

  0  0  0  0  0  0  0  0  0  0999 V3000
M  V30 BEGIN CTAB
M  V30 COUNTS 61 64 0 0 1
M  V30 BEGIN ATOM
M  V30 1 O 11.684385 10.505074 -6.068341 0
M  V30 2 C 11.423903 9.325940 -5.814223 0
M  V30 3 C 11.689327 8.806803 -4.419151 0
M  V30 4 C 12.085662 7.467234 -4.163663 0
M  V30 5 C 12.464268 7.092726 -2.862500 0
M  V30 6 C 12.485991 8.074385 -1.859968 0
M  V30 7 C 12.088285 9.372708 -2.203684 0
M  V30 8 N 11.685766 9.732276 -3.436373 0
M  V30 9 N 10.963062 8.480318 -6.766725 0
M  V30 10 C 11.209504 8.750558 -8.190907 0
M  V30 11 C 9.898880 8.737289 -8.992554 0
M  V30 12 N 9.178936 7.491903 -8.771217 0
M  V30 13 C 9.738880 6.335033 -9.451721 0
M  V30 14 C 8.871415 6.037140 -10.677225 0
M  V30 15 C 9.477998 4.897547 -11.498037 0
M  V30 16 N 8.703346 4.492215 -12.695073 0 CHG=1
M  V30 17 C 9.438350 3.404707 -13.400530 0
M  V30 18 C 8.704248 2.890635 -14.639719 0
M  V30 19 N 7.327405 2.568600 -14.305652 0
M  V30 20 C 6.713838 1.384560 -14.765346 0
M  V30 21 C 5.908286 0.663926 -13.853239 0
M  V30 22 C 5.220907 -0.493213 -14.258676 0
M  V30 23 C 5.337372 -0.960381 -15.576999 0
M  V30 24 C 6.139822 -0.263466 -16.497852 0
M  V30 25 Cl 6.240324 -0.850768 -18.119888 0
M  V30 26 C 6.832451 0.907039 -16.104914 0
M  V30 27 Cl 7.721292 1.772152 -17.314583 0
M  V30 28 C 6.534604 3.598539 -13.642012 0
M  V30 29 C 7.270453 4.172579 -12.415998 0
M  V30 30 C 8.885841 7.282225 -7.359693 0
M  V30 31 C 10.177873 7.257529 -6.532225 0
M  V30 32 H 12.139932 6.725907 -4.945415 0
M  V30 33 H 12.784940 6.082562 -2.652823 0
M  V30 34 H 12.872208 7.855013 -0.876963 0
M  V30 35 H 12.126393 10.163707 -1.471687 0
M  V30 36 H 11.686361 9.712412 -8.364862 0
M  V30 37 H 11.911745 8.007172 -8.570427 0
M  V30 38 H 9.261017 9.561949 -8.674678 0
M  V30 39 H 10.089936 8.880431 -10.056612 0
M  V30 40 H 10.774198 6.505883 -9.744019 0
M  V30 41 H 9.740018 5.462460 -8.795788 0
M  V30 42 H 7.872504 5.774557 -10.321402 0
M  V30 43 H 8.763371 6.929308 -11.296598 0
M  V30 44 H 10.454419 5.224799 -11.846945 0
M  V30 45 H 9.646636 4.031352 -10.857985 0
M  V30 46 H 10.427847 3.758051 -13.694118 0
M  V30 47 H 9.604300 2.573395 -12.715566 0
M  V30 48 H 8.719229 3.646780 -15.426126 0
M  V30 49 H 9.223414 2.010937 -15.023161 0
M  V30 50 H 5.801752 1.000470 -12.831331 0
M  V30 51 H 4.594580 -1.024513 -13.562576 0
M  V30 52 H 4.808253 -1.851782 -15.884577 0
M  V30 53 H 6.350226 4.399483 -14.353974 0
M  V30 54 H 5.552711 3.229307 -13.347577 0
M  V30 55 H 7.191582 3.479609 -11.580517 0
M  V30 56 H 6.743784 5.075281 -12.104493 0
M  V30 57 H 8.241200 8.090640 -7.010254 0
M  V30 58 H 8.316732 6.361022 -7.223841 0
M  V30 59 H 10.779864 6.382635 -6.781152 0
M  V30 60 H 9.871058 7.150356 -5.492472 0
M  V30 61 H 8.687386 5.282054 -13.322978 0
M  V30 END ATOM
M  V30 BEGIN BOND
M  V30 1 2 2 1
M  V30 2 1 3 2
M  V30 3 2 4 3
M  V30 4 1 5 4
M  V30 5 2 6 5
M  V30 6 1 7 6
M  V30 7 1 8 3
M  V30 8 2 8 7
M  V30 9 1 9 2
M  V30 10 1 10 9
M  V30 11 1 11 10
M  V30 12 1 12 11
M  V30 13 1 13 12
M  V30 14 1 14 13
M  V30 15 1 15 14
M  V30 16 1 16 15
M  V30 17 1 17 16
M  V30 18 1 18 17
M  V30 19 1 19 18
M  V30 20 1 20 19
M  V30 21 2 21 20
M  V30 22 1 22 21
M  V30 23 2 23 22
M  V30 24 1 24 23
M  V30 25 1 25 24
M  V30 26 1 26 20
M  V30 27 2 26 24
M  V30 28 1 27 26
M  V30 29 1 28 19
M  V30 30 1 29 16
M  V30 31 1 29 28
M  V30 32 1 30 12
M  V30 33 1 31 9
M  V30 34 1 31 30
M  V30 35 1 32 4
M  V30 36 1 33 5
M  V30 37 1 34 6
M  V30 38 1 35 7
M  V30 39 1 36 10
M  V30 40 1 37 10
M  V30 41 1 38 11
M  V30 42 1 39 11
M  V30 43 1 40 13
M  V30 44 1 41 13
M  V30 45 1 42 14
M  V30 46 1 43 14
M  V30 47 1 44 15
M  V30 48 1 45 15
M  V30 49 1 46 17
M  V30 50 1 47 17
M  V30 51 1 48 18
M  V30 52 1 49 18
M  V30 53 1 50 21
M  V30 54 1 51 22
M  V30 55 1 52 23
M  V30 56 1 53 28
M  V30 57 1 54 28
M  V30 58 1 55 29
M  V30 59 1 56 29
M  V30 60 1 57 30
M  V30 61 1 58 30
M  V30 62 1 59 31
M  V30 63 1 60 31
M  V30 64 1 61 16
M  V30 END BOND
M  V30 END CTAB
M  END
>  <b_m_subgroup_collapsed>  (1047) 
0

>  <r_i_docking_score>  (1047) 
-7.5514091287004899

>  <s_m_subgroup_title>  (1047) 
glide-dock_SP_D22_pv

>  <s_m_subgroupid>  (1047) 
glide-dock_SP_D22_pv

>  <Molecule ChEMBL ID>  (1047) 
CHEMBL5188923

>  <Standard Type>  (1047) 
Ki

>  <Standard Value>  (1047) 
82.0

>  <label>  (1047) 
1

$$$$
CHEMBL4442321
     RDKit          3D

  0  0  0  0  0  0  0  0  0  0999 V3000
M  V30 BEGIN CTAB
M  V30 COUNTS 60 63 0 0 1
M  V30 BEGIN ATOM
M  V30 1 O 9.143652 2.643171 -14.259010 0
M  V30 2 C 7.926527 2.567885 -14.425675 0
M  V30 3 N 7.017712 3.371330 -13.849633 0
M  V30 4 C 7.243460 4.338074 -12.785767 0
M  V30 5 C 8.323941 5.399759 -13.091385 0
M  V30 6 C 8.454089 6.453714 -11.979169 0
M  V30 7 C 8.843564 5.839194 -10.622682 0
M  V30 8 N 8.886044 6.809239 -9.503089 0 CHG=1
M  V30 9 C 8.769863 6.074368 -8.211956 0
M  V30 10 C 8.920109 6.991817 -7.000976 0
M  V30 11 N 10.164101 7.731096 -7.123061 0
M  V30 12 C 10.846785 7.993040 -5.927700 0
M  V30 13 C 11.281056 6.894752 -5.153440 0
M  V30 14 C 11.832042 7.087699 -3.878772 0
M  V30 15 C 11.959329 8.388844 -3.370067 0
M  V30 16 Cl 12.495057 8.594244 -1.753339 0
M  V30 17 C 11.588850 9.498365 -4.155366 0
M  V30 18 C 11.042766 9.304748 -5.442158 0
M  V30 19 C 10.246408 8.589309 -8.293185 0
M  V30 20 C 10.065182 7.730474 -9.566102 0
M  V30 21 C 7.334608 1.542029 -15.336652 0
M  V30 22 C 6.319621 0.677584 -14.871487 0
M  V30 23 C 5.706077 -0.228298 -15.753496 0
M  V30 24 C 6.110291 -0.304589 -17.107431 0
M  V30 25 C 5.433476 -1.202825 -18.056551 0
M  V30 26 C 4.665511 -2.331291 -17.622129 0
M  V30 27 C 4.085853 -3.030534 -18.646778 0
M  V30 28 S 4.485834 -2.348327 -20.193893 0
M  V30 29 C 5.423882 -1.096075 -19.427921 0
M  V30 30 C 7.170486 0.520890 -17.546482 0
M  V30 31 C 7.783569 1.433484 -16.667274 0
M  V30 32 H 6.055446 3.219572 -14.116018 0
M  V30 33 H 6.292199 4.831762 -12.577327 0
M  V30 34 H 7.497585 3.771849 -11.891891 0
M  V30 35 H 9.296777 4.928788 -13.230482 0
M  V30 36 H 8.088568 5.894938 -14.031694 0
M  V30 37 H 9.192273 7.195424 -12.281354 0
M  V30 38 H 7.506658 6.980026 -11.886165 0
M  V30 39 H 8.094227 5.097243 -10.356313 0
M  V30 40 H 9.790607 5.305386 -10.699148 0
M  V30 41 H 7.804827 5.568035 -8.157002 0
M  V30 42 H 9.535951 5.299970 -8.167956 0
M  V30 43 H 8.087062 7.697716 -6.953172 0
M  V30 44 H 8.884855 6.402956 -6.083991 0
M  V30 45 H 11.152951 5.888459 -5.521448 0
M  V30 46 H 12.116341 6.235336 -3.278411 0
M  V30 47 H 11.674897 10.492645 -3.746511 0
M  V30 48 H 10.718229 10.160530 -6.016124 0
M  V30 49 H 9.468067 9.352821 -8.236933 0
M  V30 50 H 11.206469 9.107550 -8.322290 0
M  V30 51 H 10.965457 7.131437 -9.711051 0
M  V30 52 H 9.979212 8.382629 -10.437747 0
M  V30 53 H 5.985307 0.728254 -13.846643 0
M  V30 54 H 4.903068 -0.843973 -15.378828 0
M  V30 55 H 4.544676 -2.610996 -16.586187 0
M  V30 56 H 3.455194 -3.906233 -18.562958 0
M  V30 57 H 5.903254 -0.349029 -20.040688 0
M  V30 58 H 7.519889 0.467422 -18.566357 0
M  V30 59 H 8.581002 2.068738 -17.025221 0
M  V30 60 H 8.032144 7.369162 -9.582751 0
M  V30 END ATOM
M  V30 BEGIN BOND
M  V30 1 2 2 1
M  V30 2 1 3 2
M  V30 3 1 4 3
M  V30 4 1 5 4
M  V30 5 1 6 5
M  V30 6 1 7 6
M  V30 7 1 8 7
M  V30 8 1 9 8
M  V30 9 1 10 9
M  V30 10 1 11 10
M  V30 11 1 12 11
M  V30 12 1 13 12
M  V30 13 2 14 13
M  V30 14 1 15 14
M  V30 15 1 16 15
M  V30 16 2 17 15
M  V30 17 2 18 12
M  V30 18 1 18 17
M  V30 19 1 19 11
M  V30 20 1 20 8
M  V30 21 1 20 19
M  V30 22 1 21 2
M  V30 23 1 22 21
M  V30 24 2 23 22
M  V30 25 1 24 23
M  V30 26 1 25 24
M  V30 27 1 26 25
M  V30 28 2 27 26
M  V30 29 1 28 27
M  V30 30 2 29 25
M  V30 31 1 29 28
M  V30 32 2 30 24
M  V30 33 2 31 21
M  V30 34 1 31 30
M  V30 35 1 32 3
M  V30 36 1 33 4
M  V30 37 1 34 4
M  V30 38 1 35 5
M  V30 39 1 36 5
M  V30 40 1 37 6
M  V30 41 1 38 6
M  V30 42 1 39 7
M  V30 43 1 40 7
M  V30 44 1 41 9
M  V30 45 1 42 9
M  V30 46 1 43 10
M  V30 47 1 44 10
M  V30 48 1 45 13
M  V30 49 1 46 14
M  V30 50 1 47 17
M  V30 51 1 48 18
M  V30 52 1 49 19
M  V30 53 1 50 19
M  V30 54 1 51 20
M  V30 55 1 52 20
M  V30 56 1 53 22
M  V30 57 1 54 23
M  V30 58 1 55 26
M  V30 59 1 56 27
M  V30 60 1 57 29
M  V30 61 1 58 30
M  V30 62 1 59 31
M  V30 63 1 60 8
M  V30 END BOND
M  V30 END CTAB
M  END
>  <b_m_subgroup_collapsed>  (1048) 
0

>  <r_i_docking_score>  (1048) 
-7.5511684799480498

>  <s_m_subgroup_title>  (1048) 
glide-dock_SP_D22_pv

>  <s_m_subgroupid>  (1048) 
glide-dock_SP_D22_pv

>  <Molecule ChEMBL ID>  (1048) 
CHEMBL4442321

>  <Standard Type>  (1048) 
Ki

>  <Standard Value>  (1048) 
27359.0

>  <label>  (1048) 
0

$$$$
CHEMBL52096
     RDKit          3D

  0  0  0  0  0  0  0  0  0  0999 V3000
M  V30 BEGIN CTAB
M  V30 COUNTS 54 57 0 0 1
M  V30 BEGIN ATOM
M  V30 1 C 8.150869 0.008329 -16.630255 0
M  V30 2 C 7.338349 0.609046 -15.493478 0
M  V30 3 C 6.262354 -0.020208 -14.985643 0
M  V30 4 C 5.427183 0.572504 -13.916899 0
M  V30 5 O 4.458998 -0.020234 -13.447709 0
M  V30 6 O 5.770618 1.843709 -13.515086 0
M  V30 7 C 6.887519 2.507300 -13.987842 0
M  V30 8 C 7.219280 3.766900 -13.438183 0
M  V30 9 C 8.433743 4.407944 -13.789409 0
M  V30 10 O 8.888955 5.590030 -13.247998 0
M  V30 11 C 8.338463 6.068522 -12.025691 0
M  V30 12 C 9.502048 6.520185 -11.135213 0
M  V30 13 C 8.989879 7.239912 -9.881505 0
M  V30 14 N 10.050349 7.640495 -8.962156 0
M  V30 15 C 9.473262 8.621215 -8.034241 0
M  V30 16 C 10.536376 9.104435 -7.031174 0
M  V30 17 N 11.075093 7.962535 -6.307402 0
M  V30 18 C 11.492113 8.061159 -4.966256 0
M  V30 19 C 11.685985 6.893159 -4.191892 0
M  V30 20 C 12.085332 6.971983 -2.844896 0
M  V30 21 C 12.285953 8.226597 -2.245786 0
M  V30 22 C 12.086056 9.395566 -2.999534 0
M  V30 23 C 11.701378 9.316982 -4.349009 0
M  V30 24 C 11.604413 6.932610 -7.192821 0
M  V30 25 C 10.501080 6.488463 -8.170795 0
M  V30 26 C 9.263385 3.809747 -14.755944 0
M  V30 27 C 8.916235 2.581158 -15.345102 0
M  V30 28 C 7.732036 1.918550 -14.956659 0
M  V30 29 H 7.711902 -0.926875 -16.980755 0
M  V30 30 H 8.182991 0.690679 -17.479874 0
M  V30 31 H 9.171267 -0.200360 -16.307688 0
M  V30 32 H 5.966001 -0.986470 -15.369650 0
M  V30 33 H 6.540966 4.195531 -12.716593 0
M  V30 34 H 7.773438 5.327057 -11.462904 0
M  V30 35 H 7.668868 6.901611 -12.245583 0
M  V30 36 H 10.163917 7.185575 -11.689501 0
M  V30 37 H 10.085938 5.642067 -10.868629 0
M  V30 38 H 8.244822 6.630172 -9.363163 0
M  V30 39 H 8.486058 8.141883 -10.228168 0
M  V30 40 H 8.624523 8.186163 -7.501258 0
M  V30 41 H 9.086917 9.473486 -8.594457 0
M  V30 42 H 10.086014 9.815334 -6.345398 0
M  V30 43 H 11.344124 9.623704 -7.548551 0
M  V30 44 H 11.501775 5.916770 -4.611239 0
M  V30 45 H 12.222476 6.068004 -2.269412 0
M  V30 46 H 12.584794 8.298024 -1.210674 0
M  V30 47 H 12.229877 10.362681 -2.542053 0
M  V30 48 H 11.576773 10.238126 -4.895725 0
M  V30 49 H 12.443801 7.363539 -7.745500 0
M  V30 50 H 11.990505 6.068674 -6.654228 0
M  V30 51 H 9.666225 6.049403 -7.619638 0
M  V30 52 H 10.885631 5.710413 -8.826303 0
M  V30 53 H 10.183433 4.296162 -15.041570 0
M  V30 54 H 9.583263 2.150017 -16.075577 0
M  V30 END ATOM
M  V30 BEGIN BOND
M  V30 1 1 2 1
M  V30 2 2 3 2
M  V30 3 1 4 3
M  V30 4 2 5 4
M  V30 5 1 6 4
M  V30 6 1 7 6
M  V30 7 1 8 7
M  V30 8 2 9 8
M  V30 9 1 10 9
M  V30 10 1 11 10
M  V30 11 1 12 11
M  V30 12 1 13 12
M  V30 13 1 14 13
M  V30 14 1 15 14
M  V30 15 1 16 15
M  V30 16 1 17 16
M  V30 17 1 18 17
M  V30 18 2 19 18
M  V30 19 1 20 19
M  V30 20 2 21 20
M  V30 21 1 22 21
M  V30 22 1 23 18
M  V30 23 2 23 22
M  V30 24 1 24 17
M  V30 25 1 25 14
M  V30 26 1 25 24
M  V30 27 1 26 9
M  V30 28 2 27 26
M  V30 29 1 28 2
M  V30 30 2 28 7
M  V30 31 1 28 27
M  V30 32 1 29 1
M  V30 33 1 30 1
M  V30 34 1 31 1
M  V30 35 1 32 3
M  V30 36 1 33 8
M  V30 37 1 34 11
M  V30 38 1 35 11
M  V30 39 1 36 12
M  V30 40 1 37 12
M  V30 41 1 38 13
M  V30 42 1 39 13
M  V30 43 1 40 15
M  V30 44 1 41 15
M  V30 45 1 42 16
M  V30 46 1 43 16
M  V30 47 1 44 19
M  V30 48 1 45 20
M  V30 49 1 46 21
M  V30 50 1 47 22
M  V30 51 1 48 23
M  V30 52 1 49 24
M  V30 53 1 50 24
M  V30 54 1 51 25
M  V30 55 1 52 25
M  V30 56 1 53 26
M  V30 57 1 54 27
M  V30 END BOND
M  V30 END CTAB
M  END
>  <b_m_subgroup_collapsed>  (1049) 
0

>  <r_i_docking_score>  (1049) 
-7.5502007700078204

>  <s_m_subgroup_title>  (1049) 
glide-dock_SP_D22_pv

>  <s_m_subgroupid>  (1049) 
glide-dock_SP_D22_pv

>  <Molecule ChEMBL ID>  (1049) 
CHEMBL52096

>  <Standard Type>  (1049) 
Ki

>  <Standard Value>  (1049) 
10.8

>  <label>  (1049) 
1

$$$$
CHEMBL46596
     RDKit          3D

  0  0  0  0  0  0  0  0  0  0999 V3000
M  V30 BEGIN CTAB
M  V30 COUNTS 47 49 0 0 1
M  V30 BEGIN ATOM
M  V30 1 O 12.086387 9.772240 -2.144535 0
M  V30 2 N 12.159267 8.631239 -2.546083 0 CHG=1
M  V30 3 O 12.485640 7.682334 -1.847080 0 CHG=-1
M  V30 4 C 11.814575 8.378492 -3.945128 0
M  V30 5 C 11.670460 7.052444 -4.380175 0
M  V30 6 C 11.285639 6.796421 -5.696384 0
M  V30 7 C 11.081896 7.834362 -6.631395 0
M  V30 8 O 10.742497 7.592100 -7.943847 0
M  V30 9 C 10.363681 6.256097 -8.262746 0
M  V30 10 C 10.013783 6.122648 -9.740907 0 CFG=1
M  V30 11 C 9.551932 4.687014 -10.065019 0
M  V30 12 C 9.176739 4.572480 -11.548169 0
M  V30 13 N 8.057821 5.504000 -11.829790 0 CFG=2 CHG=1
M  V30 14 C 7.409217 5.323501 -13.148570 0
M  V30 15 C 6.928513 3.904145 -13.409784 0
M  V30 16 C 7.669455 3.038191 -14.246762 0
M  V30 17 C 7.233773 1.715909 -14.464012 0
M  V30 18 C 6.055454 1.254381 -13.846659 0
M  V30 19 F 5.637802 -0.018618 -14.040564 0
M  V30 20 C 5.304707 2.122419 -13.031446 0
M  V30 21 C 5.738051 3.443424 -12.809564 0
M  V30 22 C 8.486419 6.905940 -11.599504 0
M  V30 23 C 8.912722 7.101265 -10.134091 0
M  V30 24 C 11.244532 9.164423 -6.198770 0
M  V30 25 C 11.593793 9.436796 -4.860358 0
M  V30 26 H 11.817058 6.219726 -3.705782 0
M  V30 27 H 11.173451 5.772300 -5.965209 0
M  V30 28 H 9.508656 5.958448 -7.652914 0
M  V30 29 H 11.180165 5.568026 -8.051562 0
M  V30 30 H 10.889862 6.367564 -10.333566 0
M  V30 31 H 10.311029 3.952776 -9.800554 0
M  V30 32 H 8.684759 4.432039 -9.453096 0
M  V30 33 H 8.912145 3.546008 -11.787454 0
M  V30 34 H 10.033211 4.813333 -12.180373 0
M  V30 35 H 8.086105 5.641611 -13.944280 0
M  V30 36 H 6.539167 5.979568 -13.165563 0
M  V30 37 H 8.581592 3.379387 -14.714546 0
M  V30 38 H 7.805707 1.050986 -15.095143 0
M  V30 39 H 4.393691 1.772626 -12.577113 0
M  V30 40 H 5.159505 4.095785 -12.171099 0
M  V30 41 H 9.316525 7.150570 -12.263881 0
M  V30 42 H 7.686172 7.598003 -11.856421 0
M  V30 43 H 9.231511 8.131914 -9.979760 0
M  V30 44 H 8.087292 6.926460 -9.446443 0
M  V30 45 H 11.088688 9.978979 -6.889633 0
M  V30 46 H 11.685660 10.462885 -4.540816 0
M  V30 47 H 7.340137 5.316260 -11.140299 0
M  V30 END ATOM
M  V30 BEGIN BOND
M  V30 1 2 2 1
M  V30 2 1 3 2
M  V30 3 1 4 2
M  V30 4 1 5 4
M  V30 5 2 6 5
M  V30 6 1 7 6
M  V30 7 1 8 7
M  V30 8 1 9 8
M  V30 9 1 10 9
M  V30 10 1 11 10
M  V30 11 1 12 11
M  V30 12 1 13 12
M  V30 13 1 14 13
M  V30 14 1 15 14
M  V30 15 1 16 15
M  V30 16 2 17 16
M  V30 17 1 18 17
M  V30 18 1 19 18
M  V30 19 2 20 18
M  V30 20 2 21 15
M  V30 21 1 21 20
M  V30 22 1 22 13
M  V30 23 1 23 10
M  V30 24 1 23 22
M  V30 25 2 24 7
M  V30 26 2 25 4
M  V30 27 1 25 24
M  V30 28 1 26 5
M  V30 29 1 27 6
M  V30 30 1 28 9
M  V30 31 1 29 9
M  V30 32 1 10 30 CFG=3
M  V30 33 1 31 11
M  V30 34 1 32 11
M  V30 35 1 33 12
M  V30 36 1 34 12
M  V30 37 1 35 14
M  V30 38 1 36 14
M  V30 39 1 37 16
M  V30 40 1 38 17
M  V30 41 1 39 20
M  V30 42 1 40 21
M  V30 43 1 41 22
M  V30 44 1 42 22
M  V30 45 1 43 23
M  V30 46 1 44 23
M  V30 47 1 45 24
M  V30 48 1 46 25
M  V30 49 1 13 47 CFG=1
M  V30 END BOND
M  V30 END CTAB
M  END
>  <b_m_subgroup_collapsed>  (1050) 
0

>  <r_i_docking_score>  (1050) 
-7.5485409206847498

>  <s_m_subgroup_title>  (1050) 
glide-dock_SP_D22_pv

>  <s_m_subgroupid>  (1050) 
glide-dock_SP_D22_pv

>  <Molecule ChEMBL ID>  (1050) 
CHEMBL46596

>  <Standard Type>  (1050) 
Ki

>  <Standard Value>  (1050) 
10000.0

>  <label>  (1050) 
0

$$$$
CHEMBL305392
     RDKit          3D

  0  0  0  0  0  0  0  0  0  0999 V3000
M  V30 BEGIN CTAB
M  V30 COUNTS 43 46 0 0 1
M  V30 BEGIN ATOM
M  V30 1 N 13.612564 5.141109 -16.910872 0
M  V30 2 C 12.871676 5.081074 -16.023935 0
M  V30 3 C 11.940554 5.007960 -14.909336 0
M  V30 4 C 11.278364 3.799107 -14.613835 0
M  V30 5 C 10.372079 3.739615 -13.537690 0
M  V30 6 C 10.125755 4.884309 -12.751328 0
M  V30 7 C 10.787847 6.097751 -13.045010 0
M  V30 8 C 11.694701 6.152631 -14.124432 0
M  V30 9 C 10.529228 7.355341 -12.217875 0 CFG=2
M  V30 10 C 11.654946 7.663590 -11.225338 0
M  V30 11 N 11.086122 7.633958 -9.862359 0 CFG=1 CHG=1
M  V30 12 C 11.779860 8.572302 -8.947165 0
M  V30 13 C 11.486644 8.391489 -7.466388 0
M  V30 14 C 11.532472 9.522409 -6.622227 0
M  V30 15 C 11.445600 9.378810 -5.225721 0
M  V30 16 C 11.305072 8.098729 -4.663092 0
M  V30 17 C 11.194937 6.972245 -5.498589 0
M  V30 18 C 11.286101 7.113258 -6.897908 0
M  V30 19 C 9.625289 7.815425 -9.973485 0
M  V30 20 C 9.225167 7.386426 -11.396585 0 CFG=2
M  V30 21 C 8.366405 6.106943 -11.467512 0
M  V30 22 C 9.173898 4.816119 -11.578726 0
M  V30 23 H 11.460769 2.915295 -15.210301 0
M  V30 24 H 9.874198 2.806268 -13.311096 0
M  V30 25 H 12.203007 7.078973 -14.352070 0
M  V30 26 H 10.486135 8.172029 -12.933110 0
M  V30 27 H 12.484908 6.972723 -11.309458 0
M  V30 28 H 12.075685 8.644478 -11.440347 0
M  V30 29 H 12.858579 8.452628 -9.066196 0
M  V30 30 H 11.552651 9.596007 -9.249044 0
M  V30 31 H 11.685671 10.507247 -7.035466 0
M  V30 32 H 11.514644 10.245396 -4.584900 0
M  V30 33 H 11.285952 7.982094 -3.589082 0
M  V30 34 H 11.075199 5.992260 -5.060174 0
M  V30 35 H 11.253014 6.224999 -7.511179 0
M  V30 36 H 9.098203 7.262650 -9.194426 0
M  V30 37 H 9.374394 8.868971 -9.838313 0
M  V30 38 H 8.589782 8.183351 -11.790796 0
M  V30 39 H 7.685283 6.047256 -10.618004 0
M  V30 40 H 7.723856 6.175519 -12.345884 0
M  V30 41 H 8.496583 3.969120 -11.695955 0
M  V30 42 H 9.740845 4.643573 -10.663941 0
M  V30 43 H 11.225652 6.695979 -9.516095 0
M  V30 END ATOM
M  V30 BEGIN BOND
M  V30 1 3 2 1
M  V30 2 1 3 2
M  V30 3 1 4 3
M  V30 4 2 5 4
M  V30 5 1 6 5
M  V30 6 2 7 6
M  V30 7 2 8 3
M  V30 8 1 8 7
M  V30 9 1 9 7
M  V30 10 1 10 9
M  V30 11 1 11 10
M  V30 12 1 12 11
M  V30 13 1 13 12
M  V30 14 2 14 13
M  V30 15 1 15 14
M  V30 16 2 16 15
M  V30 17 1 17 16
M  V30 18 1 18 13
M  V30 19 2 18 17
M  V30 20 1 19 11
M  V30 21 1 20 9
M  V30 22 1 20 19
M  V30 23 1 21 20
M  V30 24 1 22 6
M  V30 25 1 22 21
M  V30 26 1 23 4
M  V30 27 1 24 5
M  V30 28 1 25 8
M  V30 29 1 9 26 CFG=3
M  V30 30 1 27 10
M  V30 31 1 28 10
M  V30 32 1 29 12
M  V30 33 1 30 12
M  V30 34 1 31 14
M  V30 35 1 32 15
M  V30 36 1 33 16
M  V30 37 1 34 17
M  V30 38 1 35 18
M  V30 39 1 36 19
M  V30 40 1 37 19
M  V30 41 1 20 38 CFG=3
M  V30 42 1 39 21
M  V30 43 1 40 21
M  V30 44 1 41 22
M  V30 45 1 42 22
M  V30 46 1 11 43 CFG=1
M  V30 END BOND
M  V30 END CTAB
M  END
>  <b_m_subgroup_collapsed>  (1051) 
0

>  <r_i_docking_score>  (1051) 
-7.5471322469956004

>  <s_m_subgroup_title>  (1051) 
glide-dock_SP_D22_pv

>  <s_m_subgroupid>  (1051) 
glide-dock_SP_D22_pv

>  <Molecule ChEMBL ID>  (1051) 
CHEMBL305392

>  <Standard Type>  (1051) 
Ki

>  <Standard Value>  (1051) 
10.0

>  <label>  (1051) 
1

$$$$
CHEMBL381325
     RDKit          3D

  0  0  0  0  0  0  0  0  0  0999 V3000
M  V30 BEGIN CTAB
M  V30 COUNTS 50 52 0 0 1
M  V30 BEGIN ATOM
M  V30 1 O 9.686046 4.230490 -9.046742 0
M  V30 2 C 8.886124 5.037290 -9.518532 0
M  V30 3 C 8.205648 4.763236 -10.868131 0
M  V30 4 C 9.174712 4.276093 -11.968386 0
M  V30 5 C 10.015265 5.404269 -12.598214 0
M  V30 6 C 11.107647 4.925379 -13.577147 0 CFG=2
M  V30 7 O 11.828291 6.061246 -14.007067 0
M  V30 8 C 10.577017 4.087439 -14.733421 0
M  V30 9 C 10.522359 2.678976 -14.616378 0
M  V30 10 C 10.055223 1.890182 -15.683842 0
M  V30 11 C 9.637501 2.502236 -16.880951 0
M  V30 12 C 9.685984 3.905508 -17.005201 0
M  V30 13 C 10.148250 4.694060 -15.934114 0
M  V30 14 N 8.547913 6.172414 -8.895535 0
M  V30 15 C 9.087084 6.641738 -7.622767 0
M  V30 16 C 10.581879 7.001051 -7.728503 0
M  V30 17 C 10.996528 8.085789 -6.754919 0
M  V30 18 C 11.225478 9.371211 -7.050750 0
M  V30 19 C 11.663336 10.192412 -5.854933 0
M  V30 20 C 11.686796 9.112103 -4.799228 0
M  V30 21 C 12.086280 9.225565 -3.456740 0
M  V30 22 C 12.085995 8.060501 -2.659223 0
M  V30 23 C 11.686041 6.819133 -3.206772 0
M  V30 24 C 11.286177 6.719014 -4.559729 0
M  V30 25 C 11.286137 7.887271 -5.339618 0
M  V30 26 H 7.668714 5.652346 -11.206780 0
M  V30 27 H 7.439655 4.006162 -10.698177 0
M  V30 28 H 8.590841 3.791243 -12.750412 0
M  V30 29 H 9.835080 3.504973 -11.572530 0
M  V30 30 H 10.485447 5.980825 -11.801158 0
M  V30 31 H 9.346071 6.098325 -13.108302 0
M  V30 32 H 11.825657 4.302866 -13.046866 0
M  V30 33 H 12.613441 5.771496 -14.446974 0
M  V30 34 H 10.838058 2.197201 -13.701711 0
M  V30 35 H 10.016567 0.814162 -15.583987 0
M  V30 36 H 9.284311 1.897710 -17.703802 0
M  V30 37 H 9.367896 4.376962 -17.922787 0
M  V30 38 H 10.183594 5.768579 -16.042961 0
M  V30 39 H 7.827170 6.755148 -9.321604 0
M  V30 40 H 8.506079 7.521714 -7.341426 0
M  V30 41 H 8.922205 5.899753 -6.842407 0
M  V30 42 H 11.219179 6.124176 -7.618069 0
M  V30 43 H 10.770802 7.391684 -8.729978 0
M  V30 44 H 11.124265 9.773092 -8.045503 0
M  V30 45 H 12.652225 10.622540 -6.008326 0
M  V30 46 H 10.938333 10.971002 -5.617437 0
M  V30 47 H 12.401112 10.172176 -3.046628 0
M  V30 48 H 12.389974 8.119903 -1.623482 0
M  V30 49 H 11.690115 5.933675 -2.588233 0
M  V30 50 H 10.990803 5.773653 -4.983898 0
M  V30 END ATOM
M  V30 BEGIN BOND
M  V30 1 2 2 1
M  V30 2 1 3 2
M  V30 3 1 4 3
M  V30 4 1 5 4
M  V30 5 1 6 5
M  V30 6 1 7 6
M  V30 7 1 8 6
M  V30 8 2 9 8
M  V30 9 1 10 9
M  V30 10 2 11 10
M  V30 11 1 12 11
M  V30 12 1 13 8
M  V30 13 2 13 12
M  V30 14 1 14 2
M  V30 15 1 15 14
M  V30 16 1 16 15
M  V30 17 1 17 16
M  V30 18 2 18 17
M  V30 19 1 19 18
M  V30 20 1 20 19
M  V30 21 2 21 20
M  V30 22 1 22 21
M  V30 23 2 23 22
M  V30 24 1 24 23
M  V30 25 1 25 17
M  V30 26 1 25 20
M  V30 27 2 25 24
M  V30 28 1 26 3
M  V30 29 1 27 3
M  V30 30 1 28 4
M  V30 31 1 29 4
M  V30 32 1 30 5
M  V30 33 1 31 5
M  V30 34 1 6 32 CFG=1
M  V30 35 1 33 7
M  V30 36 1 34 9
M  V30 37 1 35 10
M  V30 38 1 36 11
M  V30 39 1 37 12
M  V30 40 1 38 13
M  V30 41 1 39 14
M  V30 42 1 40 15
M  V30 43 1 41 15
M  V30 44 1 42 16
M  V30 45 1 43 16
M  V30 46 1 44 18
M  V30 47 1 45 19
M  V30 48 1 46 19
M  V30 49 1 47 21
M  V30 50 1 48 22
M  V30 51 1 49 23
M  V30 52 1 50 24
M  V30 END BOND
M  V30 END CTAB
M  END
>  <b_m_subgroup_collapsed>  (1052) 
0

>  <r_i_docking_score>  (1052) 
-7.5427304764392904

>  <s_m_subgroup_title>  (1052) 
glide-dock_SP_D22_pv

>  <s_m_subgroupid>  (1052) 
glide-dock_SP_D22_pv

>  <Molecule ChEMBL ID>  (1052) 
CHEMBL381325

>  <Standard Type>  (1052) 
Ki

>  <Standard Value>  (1052) 
10000.0

>  <label>  (1052) 
0

$$$$
CHEMBL3321791
     RDKit          3D

  0  0  0  0  0  0  0  0  0  0999 V3000
M  V30 BEGIN CTAB
M  V30 COUNTS 53 56 0 0 1
M  V30 BEGIN ATOM
M  V30 1 O 10.577812 9.372371 -7.553922 0
M  V30 2 C 10.665489 8.074082 -7.052991 0 CFG=1
M  V30 3 C 11.108891 8.154009 -5.587437 0
M  V30 4 C 11.468111 6.993147 -4.862753 0
M  V30 5 C 12.003555 7.104553 -3.563049 0
M  V30 6 C 12.144464 8.375680 -2.975011 0
M  V30 7 Cl 12.885516 8.572292 -1.446877 0
M  V30 8 C 11.714038 9.523173 -3.645897 0
M  V30 9 C 11.212063 9.416035 -4.946085 0
M  V30 10 C 9.271313 7.435446 -7.253306 0
M  V30 11 C 8.965859 7.066421 -8.737796 0 CFG=1
M  V30 12 C 9.090331 8.254539 -9.725003 0
M  V30 13 C 10.570910 8.226830 -10.156654 0
M  V30 14 C 11.147833 7.020482 -9.381721 0 CFG=1
M  V30 15 C 11.702229 7.372378 -7.962599 0
M  V30 16 N 9.981514 6.118842 -9.234025 0 CFG=2 CHG=1
M  V30 17 C 9.685954 5.344209 -10.494545 0
M  V30 18 C 8.217117 5.224364 -10.999654 0
M  V30 19 C 7.984281 5.847218 -12.390491 0
M  V30 20 S 8.485870 4.750553 -13.749434 0
M  V30 21 C 7.371826 3.372583 -13.806977 0
M  V30 22 C 6.178655 3.348072 -13.046856 0
M  V30 23 C 5.366059 2.196749 -13.046814 0
M  V30 24 C 5.720888 1.082985 -13.835456 0
M  V30 25 C 6.886127 1.124043 -14.625725 0
M  V30 26 F 7.218313 0.064547 -15.398277 0
M  V30 27 C 7.712096 2.263575 -14.607564 0
M  V30 28 H 10.260003 9.332022 -8.443531 0
M  V30 29 H 11.379438 6.015649 -5.311200 0
M  V30 30 H 12.319252 6.219698 -3.030991 0
M  V30 31 H 11.801857 10.490500 -3.172953 0
M  V30 32 H 10.927486 10.335791 -5.434251 0
M  V30 33 H 9.205965 6.522745 -6.658971 0
M  V30 34 H 8.491525 8.090712 -6.858148 0
M  V30 35 H 7.999917 6.595343 -8.700616 0
M  V30 36 H 8.749067 9.203094 -9.308880 0
M  V30 37 H 8.486848 8.084918 -10.613125 0
M  V30 38 H 11.113873 9.156300 -9.983569 0
M  V30 39 H 10.627412 8.047199 -11.231476 0
M  V30 40 H 11.942287 6.577352 -9.971953 0
M  V30 41 H 12.602073 7.984482 -8.052744 0
M  V30 42 H 12.019405 6.459926 -7.454208 0
M  V30 43 H 10.280190 5.738726 -11.318625 0
M  V30 44 H 10.085953 4.341008 -10.341104 0
M  V30 45 H 7.946988 4.172131 -11.029758 0
M  V30 46 H 7.468627 5.647476 -10.344728 0
M  V30 47 H 6.933715 6.108693 -12.519855 0
M  V30 48 H 8.527934 6.786649 -12.488957 0
M  V30 49 H 5.882977 4.183205 -12.431859 0
M  V30 50 H 4.468784 2.172296 -12.447671 0
M  V30 51 H 5.095446 0.203046 -13.848482 0
M  V30 52 H 8.617209 2.277015 -15.196963 0
M  V30 53 H 10.162069 5.438516 -8.509974 0
M  V30 END ATOM
M  V30 BEGIN BOND
M  V30 1 1 2 1 CFG=3
M  V30 2 1 3 2
M  V30 3 1 4 3
M  V30 4 2 5 4
M  V30 5 1 6 5
M  V30 6 1 7 6
M  V30 7 2 8 6
M  V30 8 2 9 3
M  V30 9 1 9 8
M  V30 10 1 10 2
M  V30 11 1 11 10
M  V30 12 1 12 11
M  V30 13 1 13 12
M  V30 14 1 14 13
M  V30 15 1 15 2
M  V30 16 1 15 14
M  V30 17 1 16 11
M  V30 18 1 16 14
M  V30 19 1 17 16
M  V30 20 1 18 17
M  V30 21 1 19 18
M  V30 22 1 20 19
M  V30 23 1 21 20
M  V30 24 2 22 21
M  V30 25 1 23 22
M  V30 26 2 24 23
M  V30 27 1 25 24
M  V30 28 1 26 25
M  V30 29 1 27 21
M  V30 30 2 27 25
M  V30 31 1 28 1
M  V30 32 1 29 4
M  V30 33 1 30 5
M  V30 34 1 31 8
M  V30 35 1 32 9
M  V30 36 1 33 10
M  V30 37 1 34 10
M  V30 38 1 11 35 CFG=1
M  V30 39 1 36 12
M  V30 40 1 37 12
M  V30 41 1 38 13
M  V30 42 1 39 13
M  V30 43 1 14 40 CFG=3
M  V30 44 1 41 15
M  V30 45 1 42 15
M  V30 46 1 43 17
M  V30 47 1 44 17
M  V30 48 1 45 18
M  V30 49 1 46 18
M  V30 50 1 47 19
M  V30 51 1 48 19
M  V30 52 1 49 22
M  V30 53 1 50 23
M  V30 54 1 51 24
M  V30 55 1 52 27
M  V30 56 1 16 53 CFG=1
M  V30 END BOND
M  V30 END CTAB
M  END
>  <b_m_subgroup_collapsed>  (1053) 
0

>  <r_i_docking_score>  (1053) 
-7.54260558604072

>  <s_m_subgroup_title>  (1053) 
glide-dock_SP_D22_pv

>  <s_m_subgroupid>  (1053) 
glide-dock_SP_D22_pv

>  <Molecule ChEMBL ID>  (1053) 
CHEMBL3321791

>  <Standard Type>  (1053) 
Ki

>  <Standard Value>  (1053) 
27.0

>  <label>  (1053) 
1

$$$$
CHEMBL541817
     RDKit          3D

  0  0  0  0  0  0  0  0  0  0999 V3000
M  V30 BEGIN CTAB
M  V30 COUNTS 33 35 0 0 1
M  V30 BEGIN ATOM
M  V30 1 O 8.825953 8.569378 -6.660088 0
M  V30 2 C 9.691065 7.772301 -6.996178 0
M  V30 3 C 10.896444 7.457361 -6.272925 0
M  V30 4 C 11.286715 7.891434 -4.930083 0
M  V30 5 C 11.286754 9.262242 -4.599150 0
M  V30 6 C 11.686616 9.666631 -3.311810 0
M  V30 7 C 12.088043 8.711218 -2.358824 0
M  V30 8 C 12.087491 7.343709 -2.689228 0
M  V30 9 C 11.693870 6.935872 -3.976933 0
M  V30 10 C 11.521473 6.572338 -7.046471 0
M  V30 11 O 10.933262 6.306992 -8.251123 0
M  V30 12 C 9.697876 6.981411 -8.301083 0
M  V30 13 C 8.680273 5.827154 -8.363997 0
M  V30 14 C 8.671461 5.162822 -9.751774 0
M  V30 15 N 8.484207 6.172407 -10.815810 0 CHG=1
M  V30 16 C 9.579813 7.162034 -10.847474 0
M  V30 17 C 9.637257 7.928980 -9.519554 0
M  V30 18 H 10.979959 10.002478 -5.323411 0
M  V30 19 H 11.686038 10.711918 -3.045722 0
M  V30 20 H 12.389023 9.032387 -1.372091 0
M  V30 21 H 12.388993 6.605347 -1.960442 0
M  V30 22 H 11.693621 5.883648 -4.225406 0
M  V30 23 H 12.439585 6.036516 -6.856994 0
M  V30 24 H 8.917357 5.078277 -7.609647 0
M  V30 25 H 7.686197 6.172189 -8.114450 0
M  V30 26 H 9.605002 4.623926 -9.921915 0
M  V30 27 H 7.871526 4.425805 -9.817060 0
M  V30 28 H 8.411795 5.710659 -11.710268 0
M  V30 29 H 10.526207 6.655321 -11.037712 0
M  V30 30 H 9.411806 7.853073 -11.673779 0
M  V30 31 H 8.753126 8.565307 -9.442602 0
M  V30 32 H 10.494613 8.604687 -9.518944 0
M  V30 33 H 7.612679 6.685457 -10.639832 0
M  V30 END ATOM
M  V30 BEGIN BOND
M  V30 1 2 2 1
M  V30 2 1 3 2
M  V30 3 1 4 3
M  V30 4 2 5 4
M  V30 5 1 6 5
M  V30 6 2 7 6
M  V30 7 1 8 7
M  V30 8 1 9 4
M  V30 9 2 9 8
M  V30 10 2 10 3
M  V30 11 1 11 10
M  V30 12 1 12 2
M  V30 13 1 12 11
M  V30 14 1 13 12
M  V30 15 1 14 13
M  V30 16 1 15 14
M  V30 17 1 16 15
M  V30 18 1 17 12
M  V30 19 1 17 16
M  V30 20 1 18 5
M  V30 21 1 19 6
M  V30 22 1 20 7
M  V30 23 1 21 8
M  V30 24 1 22 9
M  V30 25 1 23 10
M  V30 26 1 24 13
M  V30 27 1 25 13
M  V30 28 1 26 14
M  V30 29 1 27 14
M  V30 30 1 28 15
M  V30 31 1 29 16
M  V30 32 1 30 16
M  V30 33 1 31 17
M  V30 34 1 32 17
M  V30 35 1 33 15
M  V30 END BOND
M  V30 END CTAB
M  END
>  <b_m_subgroup_collapsed>  (1054) 
0

>  <r_i_docking_score>  (1054) 
-7.5412555283272003

>  <s_m_subgroup_title>  (1054) 
glide-dock_SP_D22_pv

>  <s_m_subgroupid>  (1054) 
glide-dock_SP_D22_pv

>  <Molecule ChEMBL ID>  (1054) 
CHEMBL541817

>  <Standard Type>  (1054) 
Ki

>  <Standard Value>  (1054) 
10000.0

>  <label>  (1054) 
0

$$$$
CHEMBL5199228
     RDKit          3D

  0  0  0  0  0  0  0  0  0  0999 V3000
M  V30 BEGIN CTAB
M  V30 COUNTS 58 61 0 0 1
M  V30 BEGIN ATOM
M  V30 1 O 11.223223 10.576287 -5.800725 0
M  V30 2 C 11.307975 9.385024 -5.517366 0
M  V30 3 N 11.047118 8.327716 -6.300823 0
M  V30 4 C 10.662272 8.358499 -7.711551 0
M  V30 5 C 9.674165 7.234264 -8.096961 0
M  V30 6 C 9.292134 7.259719 -9.581411 0
M  V30 7 C 10.378059 6.709786 -10.519633 0
M  V30 8 C 10.231168 7.250881 -11.948620 0
M  V30 9 C 11.186254 6.610460 -12.982617 0
M  V30 10 N 10.785648 5.249265 -13.439809 0 CHG=1
M  V30 11 C 11.859982 4.613226 -14.254360 0
M  V30 12 C 11.500055 3.178932 -14.689723 0
M  V30 13 N 10.147171 3.129861 -15.221660 0
M  V30 14 C 9.913307 2.599688 -16.498594 0
M  V30 15 C 9.513151 3.446084 -17.553034 0
M  V30 16 C 9.295551 2.921132 -18.843107 0
M  V30 17 C 9.473850 1.544470 -19.081158 0
M  V30 18 C 9.862524 0.689305 -18.031307 0
M  V30 19 Cl 10.073550 -0.999590 -18.342194 0
M  V30 20 C 10.070489 1.216572 -16.739132 0
M  V30 21 Cl 10.485460 0.167229 -15.436475 0
M  V30 22 C 9.073290 3.754886 -14.478189 0
M  V30 23 C 9.463962 5.196855 -14.128292 0
M  V30 24 N 11.285787 7.132213 -5.697532 0
M  V30 25 C 11.684060 7.472764 -4.522826 0
M  V30 26 C 12.086745 6.699577 -3.374359 0
M  V30 27 C 12.486011 7.320269 -2.247082 0
M  V30 28 C 12.485705 8.769207 -2.130216 0
M  V30 29 C 12.085268 9.494885 -3.188937 0
M  V30 30 N 11.698783 8.846683 -4.368165 0
M  V30 31 H 11.573787 8.291658 -8.304491 0
M  V30 32 H 10.212165 9.324152 -7.946267 0
M  V30 33 H 8.767737 7.347435 -7.500728 0
M  V30 34 H 10.077313 6.252650 -7.852669 0
M  V30 35 H 9.004829 8.274577 -9.860806 0
M  V30 36 H 8.400854 6.647536 -9.718103 0
M  V30 37 H 10.312803 5.621751 -10.509780 0
M  V30 38 H 11.371225 6.969306 -10.151153 0
M  V30 39 H 10.455120 8.315643 -11.887132 0
M  V30 40 H 9.188672 7.207928 -12.264440 0
M  V30 41 H 12.189212 6.572347 -12.549795 0
M  V30 42 H 11.286171 7.261413 -13.851755 0
M  V30 43 H 12.797802 4.599419 -13.696244 0
M  V30 44 H 12.033773 5.221882 -15.141536 0
M  V30 45 H 11.560517 2.491062 -13.846403 0
M  V30 46 H 12.213723 2.824775 -15.435719 0
M  V30 47 H 9.383932 4.505402 -17.383196 0
M  V30 48 H 8.997166 3.574769 -19.650066 0
M  V30 49 H 9.312130 1.143535 -20.071165 0
M  V30 50 H 8.142703 3.729552 -15.045651 0
M  V30 51 H 8.898808 3.176872 -13.568270 0
M  V30 52 H 8.667648 5.621293 -13.520925 0
M  V30 53 H 9.516370 5.772249 -15.047904 0
M  V30 54 H 12.131732 5.626848 -3.403748 0
M  V30 55 H 12.845013 6.706546 -1.445610 0
M  V30 56 H 12.772150 9.255935 -1.209744 0
M  V30 57 H 12.012394 10.571075 -3.192639 0
M  V30 58 H 10.684636 4.679673 -12.611953 0
M  V30 END ATOM
M  V30 BEGIN BOND
M  V30 1 2 2 1
M  V30 2 1 3 2
M  V30 3 1 4 3
M  V30 4 1 5 4
M  V30 5 1 6 5
M  V30 6 1 7 6
M  V30 7 1 8 7
M  V30 8 1 9 8
M  V30 9 1 10 9
M  V30 10 1 11 10
M  V30 11 1 12 11
M  V30 12 1 13 12
M  V30 13 1 14 13
M  V30 14 2 15 14
M  V30 15 1 16 15
M  V30 16 2 17 16
M  V30 17 1 18 17
M  V30 18 1 19 18
M  V30 19 1 20 14
M  V30 20 2 20 18
M  V30 21 1 21 20
M  V30 22 1 22 13
M  V30 23 1 23 10
M  V30 24 1 23 22
M  V30 25 1 24 3
M  V30 26 2 25 24
M  V30 27 1 26 25
M  V30 28 2 27 26
M  V30 29 1 28 27
M  V30 30 2 29 28
M  V30 31 1 30 2
M  V30 32 1 30 25
M  V30 33 1 30 29
M  V30 34 1 31 4
M  V30 35 1 32 4
M  V30 36 1 33 5
M  V30 37 1 34 5
M  V30 38 1 35 6
M  V30 39 1 36 6
M  V30 40 1 37 7
M  V30 41 1 38 7
M  V30 42 1 39 8
M  V30 43 1 40 8
M  V30 44 1 41 9
M  V30 45 1 42 9
M  V30 46 1 43 11
M  V30 47 1 44 11
M  V30 48 1 45 12
M  V30 49 1 46 12
M  V30 50 1 47 15
M  V30 51 1 48 16
M  V30 52 1 49 17
M  V30 53 1 50 22
M  V30 54 1 51 22
M  V30 55 1 52 23
M  V30 56 1 53 23
M  V30 57 1 54 26
M  V30 58 1 55 27
M  V30 59 1 56 28
M  V30 60 1 57 29
M  V30 61 1 58 10
M  V30 END BOND
M  V30 END CTAB
M  END
>  <b_m_subgroup_collapsed>  (1055) 
0

>  <r_i_docking_score>  (1055) 
-7.53929512069507

>  <s_m_subgroup_title>  (1055) 
glide-dock_SP_D22_pv

>  <s_m_subgroupid>  (1055) 
glide-dock_SP_D22_pv

>  <Molecule ChEMBL ID>  (1055) 
CHEMBL5199228

>  <Standard Type>  (1055) 
Ki

>  <Standard Value>  (1055) 
9.0

>  <label>  (1055) 
1

$$$$
CHEMBL4878587
     RDKit          3D

  0  0  0  0  0  0  0  0  0  0999 V3000
M  V30 BEGIN CTAB
M  V30 COUNTS 61 64 0 0 1
M  V30 BEGIN ATOM
M  V30 1 C 11.309713 6.635650 -4.345782 0
M  V30 2 O 11.125924 7.857115 -5.045771 0
M  V30 3 C 10.629284 7.801507 -6.327594 0
M  V30 4 C 9.996650 6.651375 -6.852466 0
M  V30 5 C 9.504161 6.628659 -8.167476 0
M  V30 6 C 9.684278 7.742848 -9.007792 0
M  V30 7 C 10.268632 8.907937 -8.477163 0
M  V30 8 C 10.716478 8.957539 -7.140468 0
M  V30 9 O 11.181456 10.162400 -6.670029 0
M  V30 10 C 12.431539 10.159050 -6.016785 0
M  V30 11 C 9.287023 7.699649 -10.480812 0
M  V30 12 N 8.486305 6.511822 -10.895539 0 CFG=1 CHG=1
M  V30 13 C 8.480403 6.364881 -12.374036 0
M  V30 14 C 7.695058 5.163436 -12.887676 0
M  V30 15 C 6.284314 5.245498 -12.904799 0
M  V30 16 C 5.507684 4.176911 -13.388968 0
M  V30 17 C 6.132563 3.008720 -13.846304 0
M  V30 18 C 7.531220 2.923429 -13.849609 0
M  V30 19 C 8.326998 3.973097 -13.348354 0
M  V30 20 C 9.827327 3.712821 -13.258242 0
M  V30 21 N 10.669553 4.469124 -14.172619 0
M  V30 22 C 10.726660 4.282623 -15.499275 0
M  V30 23 O 9.912195 3.614975 -16.135458 0
M  V30 24 C 11.970847 4.820209 -16.141802 0
M  V30 25 C 12.583036 4.100609 -17.190935 0
M  V30 26 C 13.796947 4.546341 -17.747335 0
M  V30 27 C 14.407336 5.719193 -17.259598 0
M  V30 28 C 15.697486 6.135775 -17.781099 0
M  V30 29 N 16.728947 6.460296 -18.193106 0
M  V30 30 C 13.775651 6.467589 -16.246675 0
M  V30 31 C 12.559451 6.025749 -15.694752 0
M  V30 32 C 8.870377 5.270193 -10.173236 0
M  V30 33 C 8.735446 5.429272 -8.662681 0
M  V30 34 H 11.831356 6.827828 -3.408717 0
M  V30 35 H 10.357498 6.172325 -4.097082 0
M  V30 36 H 11.918452 5.934420 -4.916726 0
M  V30 37 H 9.857470 5.772586 -6.247533 0
M  V30 38 H 10.385495 9.772688 -9.110178 0
M  V30 39 H 12.886250 11.120645 -6.237699 0
M  V30 40 H 12.321174 10.073531 -4.936293 0
M  V30 41 H 13.095431 9.373786 -6.383783 0
M  V30 42 H 10.217012 7.728730 -11.050437 0
M  V30 43 H 8.734742 8.604291 -10.734601 0
M  V30 44 H 9.505254 6.325746 -12.737700 0
M  V30 45 H 8.042444 7.265654 -12.807718 0
M  V30 46 H 5.788997 6.141852 -12.555685 0
M  V30 47 H 4.432256 4.247978 -13.435767 0
M  V30 48 H 5.546898 2.178976 -14.210122 0
M  V30 49 H 7.994090 2.014945 -14.208063 0
M  V30 50 H 10.166645 3.903674 -12.244046 0
M  V30 51 H 10.025675 2.650800 -13.415254 0
M  V30 52 H 11.419875 5.002615 -13.761578 0
M  V30 53 H 12.144020 3.180153 -17.552662 0
M  V30 54 H 14.267774 3.967842 -18.527203 0
M  V30 55 H 14.228642 7.371749 -15.870915 0
M  V30 56 H 12.103964 6.610689 -14.907025 0
M  V30 57 H 8.251015 4.427842 -10.476923 0
M  V30 58 H 9.906740 5.029071 -10.408773 0
M  V30 59 H 9.084787 4.524201 -8.165862 0
M  V30 60 H 7.689503 5.561426 -8.383583 0
M  V30 61 H 7.529943 6.762723 -10.616682 0
M  V30 END ATOM
M  V30 BEGIN BOND
M  V30 1 1 2 1
M  V30 2 1 3 2
M  V30 3 1 4 3
M  V30 4 2 5 4
M  V30 5 1 6 5
M  V30 6 2 7 6
M  V30 7 2 8 3
M  V30 8 1 8 7
M  V30 9 1 9 8
M  V30 10 1 10 9
M  V30 11 1 11 6
M  V30 12 1 12 11
M  V30 13 1 13 12
M  V30 14 1 14 13
M  V30 15 2 15 14
M  V30 16 1 16 15
M  V30 17 2 17 16
M  V30 18 1 18 17
M  V30 19 1 19 14
M  V30 20 2 19 18
M  V30 21 1 20 19
M  V30 22 1 21 20
M  V30 23 1 22 21
M  V30 24 2 23 22
M  V30 25 1 24 22
M  V30 26 1 25 24
M  V30 27 2 26 25
M  V30 28 1 27 26
M  V30 29 1 28 27
M  V30 30 3 29 28
M  V30 31 2 30 27
M  V30 32 2 31 24
M  V30 33 1 31 30
M  V30 34 1 32 12
M  V30 35 1 33 5
M  V30 36 1 33 32
M  V30 37 1 34 1
M  V30 38 1 35 1
M  V30 39 1 36 1
M  V30 40 1 37 4
M  V30 41 1 38 7
M  V30 42 1 39 10
M  V30 43 1 40 10
M  V30 44 1 41 10
M  V30 45 1 42 11
M  V30 46 1 43 11
M  V30 47 1 44 13
M  V30 48 1 45 13
M  V30 49 1 46 15
M  V30 50 1 47 16
M  V30 51 1 48 17
M  V30 52 1 49 18
M  V30 53 1 50 20
M  V30 54 1 51 20
M  V30 55 1 52 21
M  V30 56 1 53 25
M  V30 57 1 54 26
M  V30 58 1 55 30
M  V30 59 1 56 31
M  V30 60 1 57 32
M  V30 61 1 58 32
M  V30 62 1 59 33
M  V30 63 1 60 33
M  V30 64 1 12 61 CFG=1
M  V30 END BOND
M  V30 END CTAB
M  END
>  <b_m_subgroup_collapsed>  (1056) 
0

>  <r_i_docking_score>  (1056) 
-7.5391800155062301

>  <s_m_subgroup_title>  (1056) 
glide-dock_SP_D22_pv

>  <s_m_subgroupid>  (1056) 
glide-dock_SP_D22_pv

>  <Molecule ChEMBL ID>  (1056) 
CHEMBL4878587

>  <Standard Type>  (1056) 
Ki

>  <Standard Value>  (1056) 
50.0

>  <label>  (1056) 
1

$$$$
CHEMBL443006
     RDKit          3D

  0  0  0  0  0  0  0  0  0  0999 V3000
M  V30 BEGIN CTAB
M  V30 COUNTS 52 55 0 0 1
M  V30 BEGIN ATOM
M  V30 1 C 12.210373 8.910309 -2.458609 0
M  V30 2 S 11.979375 9.371357 -4.217266 0
M  V30 3 O 10.842271 10.290446 -4.348747 0
M  V30 4 O 13.285162 9.680504 -4.809980 0
M  V30 5 N 11.462939 7.885859 -4.921425 0
M  V30 6 C 10.877855 7.691564 -6.173288 0
M  V30 7 C 11.421882 8.231908 -7.358912 0
M  V30 8 C 10.851804 7.896922 -8.605842 0
M  V30 9 C 9.722822 7.047978 -8.665627 0
M  V30 10 C 9.152196 6.581333 -9.985910 0
M  V30 11 C 9.348728 5.067769 -10.169661 0
M  V30 12 N 9.007166 4.554336 -11.517935 0 CFG=2 CHG=1
M  V30 13 C 9.832941 5.062326 -12.631780 0
M  V30 14 C 8.871677 5.307919 -13.804294 0 CFG=1
M  V30 15 C 9.502792 4.899492 -15.141994 0
M  V30 16 O 9.737079 3.492333 -15.187079 0
M  V30 17 C 8.672960 2.685286 -14.854290 0
M  V30 18 C 8.664044 1.354887 -15.325117 0
M  V30 19 C 7.567390 0.508796 -15.060928 0
M  V30 20 C 6.464549 0.997911 -14.333046 0
M  V30 21 C 5.299182 0.171820 -14.069345 0
M  V30 22 N 4.364666 -0.473966 -13.852532 0
M  V30 23 C 6.483663 2.315494 -13.845961 0
M  V30 24 C 7.595130 3.149317 -14.060462 0
M  V30 25 C 7.594030 4.545716 -13.458777 0 CFG=1
M  V30 26 C 7.586451 4.610386 -11.922021 0
M  V30 27 C 9.138908 6.581007 -7.477511 0
M  V30 28 C 9.724322 6.894276 -6.246441 0
M  V30 29 H 12.485943 9.794032 -1.887288 0
M  V30 30 H 13.006230 8.173608 -2.380720 0
M  V30 31 H 11.285966 8.501524 -2.055091 0
M  V30 32 H 11.155493 7.210204 -4.241860 0
M  V30 33 H 12.303256 8.857348 -7.322263 0
M  V30 34 H 11.298252 8.275047 -9.513494 0
M  V30 35 H 8.086110 6.764075 -9.970394 0
M  V30 36 H 9.570596 7.176628 -10.795712 0
M  V30 37 H 10.382771 4.818355 -9.951626 0
M  V30 38 H 8.748379 4.529340 -9.434279 0
M  V30 39 H 10.402354 5.958680 -12.393618 0
M  V30 40 H 10.562858 4.287643 -12.867248 0
M  V30 41 H 8.580987 6.353447 -13.797494 0
M  V30 42 H 8.885677 5.210743 -15.983283 0
M  V30 43 H 10.453767 5.414154 -15.273694 0
M  V30 44 H 9.495850 0.987253 -15.908737 0
M  V30 45 H 7.568459 -0.504663 -15.433835 0
M  V30 46 H 5.642941 2.690159 -13.276964 0
M  V30 47 H 6.707201 5.044992 -13.846684 0
M  V30 48 H 6.985959 3.831116 -11.450823 0
M  V30 49 H 7.160522 5.567955 -11.622805 0
M  V30 50 H 8.255167 5.957423 -7.505686 0
M  V30 51 H 9.287399 6.488690 -5.347144 0
M  V30 52 H 9.216013 3.565629 -11.487360 0
M  V30 END ATOM
M  V30 BEGIN BOND
M  V30 1 1 2 1
M  V30 2 2 3 2
M  V30 3 2 4 2
M  V30 4 1 5 2
M  V30 5 1 6 5
M  V30 6 1 7 6
M  V30 7 2 8 7
M  V30 8 1 9 8
M  V30 9 1 10 9
M  V30 10 1 11 10
M  V30 11 1 12 11
M  V30 12 1 13 12
M  V30 13 1 14 13
M  V30 14 1 15 14
M  V30 15 1 16 15
M  V30 16 1 17 16
M  V30 17 1 18 17
M  V30 18 2 19 18
M  V30 19 1 20 19
M  V30 20 1 21 20
M  V30 21 3 22 21
M  V30 22 2 23 20
M  V30 23 2 24 17
M  V30 24 1 24 23
M  V30 25 1 25 14
M  V30 26 1 25 24
M  V30 27 1 26 12
M  V30 28 1 26 25
M  V30 29 2 27 9
M  V30 30 2 28 6
M  V30 31 1 28 27
M  V30 32 1 29 1
M  V30 33 1 30 1
M  V30 34 1 31 1
M  V30 35 1 32 5
M  V30 36 1 33 7
M  V30 37 1 34 8
M  V30 38 1 35 10
M  V30 39 1 36 10
M  V30 40 1 37 11
M  V30 41 1 38 11
M  V30 42 1 39 13
M  V30 43 1 40 13
M  V30 44 1 14 41 CFG=3
M  V30 45 1 42 15
M  V30 46 1 43 15
M  V30 47 1 44 18
M  V30 48 1 45 19
M  V30 49 1 46 23
M  V30 50 1 25 47 CFG=3
M  V30 51 1 48 26
M  V30 52 1 49 26
M  V30 53 1 50 27
M  V30 54 1 51 28
M  V30 55 1 12 52 CFG=1
M  V30 END BOND
M  V30 END CTAB
M  END
>  <b_m_subgroup_collapsed>  (1057) 
0

>  <r_i_docking_score>  (1057) 
-7.5388858290878904

>  <s_m_subgroup_title>  (1057) 
glide-dock_SP_D22_pv

>  <s_m_subgroupid>  (1057) 
glide-dock_SP_D22_pv

>  <Molecule ChEMBL ID>  (1057) 
CHEMBL443006

>  <Standard Type>  (1057) 
Ki

>  <Standard Value>  (1057) 
25.12

>  <label>  (1057) 
1

$$$$
CHEMBL383102
     RDKit          3D

  0  0  0  0  0  0  0  0  0  0999 V3000
M  V30 BEGIN CTAB
M  V30 COUNTS 43 47 0 0 1
M  V30 BEGIN ATOM
M  V30 1 C 12.130505 8.480476 -3.467998 0
M  V30 2 C 11.592003 9.598651 -4.126561 0
M  V30 3 C 10.902064 9.446013 -5.344923 0
M  V30 4 C 10.709120 8.161255 -5.900842 0
M  V30 5 C 9.785593 8.000483 -7.112486 0 CFG=2
M  V30 6 C 8.857446 6.768079 -7.048564 0
M  V30 7 C 8.826365 6.196663 -8.469733 0
M  V30 8 C 10.177716 6.589481 -9.000136 0 CFG=1
M  V30 9 C 10.388668 6.653779 -10.471787 0
M  V30 10 N 9.813656 5.850155 -11.443118 0
M  V30 11 C 10.483831 6.018264 -12.645796 0
M  V30 12 C 10.377243 5.367413 -13.887968 0
M  V30 13 C 11.264694 5.707780 -14.927064 0
M  V30 14 C 12.228195 6.713519 -14.724731 0
M  V30 15 C 12.317020 7.372412 -13.482434 0
M  V30 16 C 11.460102 7.036636 -12.408031 0
M  V30 17 C 11.326135 7.468979 -11.039418 0
M  V30 18 C 12.039557 8.537947 -10.239765 0
M  V30 19 C 11.803576 8.405975 -8.701651 0
M  V30 20 N 10.416574 7.935092 -8.453090 0 CFG=2 CHG=1
M  V30 21 C 11.287890 7.045747 -5.249822 0
M  V30 22 C 11.988417 7.203866 -4.037234 0
M  V30 23 H 12.652178 8.603946 -2.529852 0
M  V30 24 H 11.685891 10.571593 -3.673731 0
M  V30 25 H 10.486083 10.320410 -5.821673 0
M  V30 26 H 9.144963 8.883760 -7.144129 0
M  V30 27 H 9.238469 5.991658 -6.397539 0
M  V30 28 H 7.871606 7.017745 -6.652414 0
M  V30 29 H 8.625779 5.125551 -8.514513 0
M  V30 30 H 8.085759 6.711744 -9.065822 0
M  V30 31 H 10.903621 5.902573 -8.565652 0
M  V30 32 H 9.080565 5.179694 -11.255215 0
M  V30 33 H 9.638568 4.593702 -14.036263 0
M  V30 34 H 11.201345 5.203482 -15.880380 0
M  V30 35 H 12.906494 6.977431 -15.523233 0
M  V30 36 H 13.074881 8.128300 -13.339400 0
M  V30 37 H 13.108520 8.542917 -10.454671 0
M  V30 38 H 11.681056 9.514210 -10.563358 0
M  V30 39 H 12.505199 7.693490 -8.266282 0
M  V30 40 H 11.980299 9.364386 -8.212124 0
M  V30 41 H 11.195857 6.049881 -5.652826 0
M  V30 42 H 12.404430 6.341186 -3.536514 0
M  V30 43 H 9.829645 8.526912 -9.024715 0
M  V30 END ATOM
M  V30 BEGIN BOND
M  V30 1 2 2 1
M  V30 2 1 3 2
M  V30 3 2 4 3
M  V30 4 1 5 4
M  V30 5 1 6 5
M  V30 6 1 7 6
M  V30 7 1 8 7
M  V30 8 1 9 8
M  V30 9 1 10 9
M  V30 10 1 11 10
M  V30 11 2 12 11
M  V30 12 1 13 12
M  V30 13 2 14 13
M  V30 14 1 15 14
M  V30 15 1 16 11
M  V30 16 2 16 15
M  V30 17 2 17 9
M  V30 18 1 17 16
M  V30 19 1 18 17
M  V30 20 1 19 18
M  V30 21 1 20 5
M  V30 22 1 20 8
M  V30 23 1 20 19
M  V30 24 1 21 4
M  V30 25 1 22 1
M  V30 26 2 22 21
M  V30 27 1 23 1
M  V30 28 1 24 2
M  V30 29 1 25 3
M  V30 30 1 5 26 CFG=3
M  V30 31 1 27 6
M  V30 32 1 28 6
M  V30 33 1 29 7
M  V30 34 1 30 7
M  V30 35 1 8 31 CFG=1
M  V30 36 1 32 10
M  V30 37 1 33 12
M  V30 38 1 34 13
M  V30 39 1 35 14
M  V30 40 1 36 15
M  V30 41 1 37 18
M  V30 42 1 38 18
M  V30 43 1 39 19
M  V30 44 1 40 19
M  V30 45 1 41 21
M  V30 46 1 42 22
M  V30 47 1 20 43 CFG=3
M  V30 END BOND
M  V30 END CTAB
M  END
>  <b_m_subgroup_collapsed>  (1058) 
0

>  <r_i_docking_score>  (1058) 
-7.53578914450227

>  <s_m_subgroup_title>  (1058) 
glide-dock_SP_D22_pv

>  <s_m_subgroupid>  (1058) 
glide-dock_SP_D22_pv

>  <Molecule ChEMBL ID>  (1058) 
CHEMBL383102

>  <Standard Type>  (1058) 
Ki

>  <Standard Value>  (1058) 
10000.0

>  <label>  (1058) 
0

$$$$
CHEMBL27162
     RDKit          3D

  0  0  0  0  0  0  0  0  0  0999 V3000
M  V30 BEGIN CTAB
M  V30 COUNTS 23 24 0 0 1
M  V30 BEGIN ATOM
M  V30 1 N 11.707870 9.300658 -3.776937 0
M  V30 2 C 11.521138 8.937751 -4.858715 0
M  V30 3 C 11.284304 8.483449 -6.219018 0
M  V30 4 C 12.086141 8.972562 -7.264129 0
M  V30 5 C 11.857490 8.572726 -8.593268 0
M  V30 6 C 10.806811 7.687100 -8.888480 0
M  V30 7 C 10.019766 7.158209 -7.837200 0
M  V30 8 C 10.258219 7.560379 -6.505737 0
M  V30 9 C 8.925395 6.146876 -8.123807 0
M  V30 10 N 8.485971 6.171334 -9.534336 0 CHG=1
M  V30 11 C 9.600034 6.124842 -10.492290 0
M  V30 12 C 10.483297 7.369978 -10.339870 0
M  V30 13 H 12.885446 9.667768 -7.047413 0
M  V30 14 H 12.472750 8.973197 -9.387314 0
M  V30 15 H 9.648362 7.161471 -5.707355 0
M  V30 16 H 9.299831 5.152073 -7.877755 0
M  V30 17 H 8.080792 6.334528 -7.466261 0
M  V30 18 H 7.877211 5.380039 -9.689692 0
M  V30 19 H 10.162084 5.212456 -10.298712 0
M  V30 20 H 9.213126 6.053628 -11.508761 0
M  V30 21 H 9.971103 8.236680 -10.759336 0
M  V30 22 H 11.405224 7.245759 -10.908272 0
M  V30 23 H 7.910758 6.999452 -9.703899 0
M  V30 END ATOM
M  V30 BEGIN BOND
M  V30 1 3 2 1
M  V30 2 1 3 2
M  V30 3 1 4 3
M  V30 4 2 5 4
M  V30 5 1 6 5
M  V30 6 2 7 6
M  V30 7 2 8 3
M  V30 8 1 8 7
M  V30 9 1 9 7
M  V30 10 1 10 9
M  V30 11 1 11 10
M  V30 12 1 12 6
M  V30 13 1 12 11
M  V30 14 1 13 4
M  V30 15 1 14 5
M  V30 16 1 15 8
M  V30 17 1 16 9
M  V30 18 1 17 9
M  V30 19 1 18 10
M  V30 20 1 19 11
M  V30 21 1 20 11
M  V30 22 1 21 12
M  V30 23 1 22 12
M  V30 24 1 23 10
M  V30 END BOND
M  V30 END CTAB
M  END
>  <b_m_subgroup_collapsed>  (1059) 
0

>  <r_i_docking_score>  (1059) 
-7.53554934999931

>  <s_m_subgroup_title>  (1059) 
glide-dock_SP_D22_pv

>  <s_m_subgroupid>  (1059) 
glide-dock_SP_D22_pv

>  <Molecule ChEMBL ID>  (1059) 
CHEMBL27162

>  <Standard Type>  (1059) 
Ki

>  <Standard Value>  (1059) 
11400.0

>  <label>  (1059) 
0

$$$$
CHEMBL2037525
     RDKit          3D

  0  0  0  0  0  0  0  0  0  0999 V3000
M  V30 BEGIN CTAB
M  V30 COUNTS 49 52 0 0 1
M  V30 BEGIN ATOM
M  V30 1 O 5.962989 5.375896 -12.402518 0
M  V30 2 C 7.165115 5.315021 -12.646842 0
M  V30 3 C 8.105289 6.454354 -12.261895 0
M  V30 4 C 8.786625 6.211503 -10.906672 0
M  V30 5 C 9.385382 7.510192 -10.339936 0
M  V30 6 N 10.199207 7.306173 -9.139187 0
M  V30 7 C 10.729857 8.615571 -8.733223 0
M  V30 8 C 11.607085 8.493633 -7.470095 0
M  V30 9 N 10.842839 7.878330 -6.392058 0
M  V30 10 C 11.308529 8.060113 -5.080440 0
M  V30 11 C 11.380966 9.366647 -4.549634 0
M  V30 12 C 11.773279 9.572101 -3.213393 0
M  V30 13 C 12.099013 8.476494 -2.394224 0
M  V30 14 C 12.080325 7.173342 -2.924481 0
M  V30 15 C 11.686314 6.969342 -4.260089 0
M  V30 16 C 10.256420 6.598489 -6.771483 0
M  V30 17 C 9.389530 6.776957 -8.030779 0
M  V30 18 C 7.743223 4.149055 -13.362548 0
M  V30 19 N 9.034103 3.990840 -13.689802 0
M  V30 20 C 9.216590 2.777641 -14.344858 0
M  V30 21 C 10.435541 2.256782 -14.835939 0
M  V30 22 C 10.484736 1.006274 -15.482516 0
M  V30 23 C 9.309346 0.251135 -15.652696 0
M  V30 24 C 8.079944 0.746941 -15.182014 0
M  V30 25 C 8.035661 1.998070 -14.539124 0
M  V30 26 S 6.649694 2.844943 -13.851403 0
M  V30 27 H 7.517231 7.374008 -12.229176 0
M  V30 28 H 8.852145 6.588086 -13.043716 0
M  V30 29 H 9.563761 5.453141 -11.016156 0
M  V30 30 H 8.046723 5.810039 -10.212603 0
M  V30 31 H 8.589232 8.228946 -10.136701 0
M  V30 32 H 10.018951 7.959623 -11.107413 0
M  V30 33 H 9.908002 9.309921 -8.540699 0
M  V30 34 H 11.323794 9.040945 -9.543389 0
M  V30 35 H 11.971273 9.478744 -7.180168 0
M  V30 36 H 12.484065 7.884177 -7.688653 0
M  V30 37 H 11.100240 10.217851 -5.152411 0
M  V30 38 H 11.809422 10.571803 -2.805341 0
M  V30 39 H 12.384907 8.640512 -1.365674 0
M  V30 40 H 12.346089 6.328556 -2.304683 0
M  V30 41 H 11.659131 5.958167 -4.638728 0
M  V30 42 H 11.048415 5.871810 -6.961824 0
M  V30 43 H 9.642135 6.201995 -5.960879 0
M  V30 44 H 8.542194 7.435050 -7.822009 0
M  V30 45 H 8.976473 5.803860 -8.292875 0
M  V30 46 H 11.342844 2.825369 -14.702595 0
M  V30 47 H 11.428445 0.624939 -15.845960 0
M  V30 48 H 9.350175 -0.708157 -16.147114 0
M  V30 49 H 7.177226 0.167755 -15.311192 0
M  V30 END ATOM
M  V30 BEGIN BOND
M  V30 1 2 2 1
M  V30 2 1 3 2
M  V30 3 1 4 3
M  V30 4 1 5 4
M  V30 5 1 6 5
M  V30 6 1 7 6
M  V30 7 1 8 7
M  V30 8 1 9 8
M  V30 9 1 10 9
M  V30 10 2 11 10
M  V30 11 1 12 11
M  V30 12 2 13 12
M  V30 13 1 14 13
M  V30 14 1 15 10
M  V30 15 2 15 14
M  V30 16 1 16 9
M  V30 17 1 17 6
M  V30 18 1 17 16
M  V30 19 1 18 2
M  V30 20 2 19 18
M  V30 21 1 20 19
M  V30 22 2 21 20
M  V30 23 1 22 21
M  V30 24 2 23 22
M  V30 25 1 24 23
M  V30 26 1 25 20
M  V30 27 2 25 24
M  V30 28 1 26 18
M  V30 29 1 26 25
M  V30 30 1 27 3
M  V30 31 1 28 3
M  V30 32 1 29 4
M  V30 33 1 30 4
M  V30 34 1 31 5
M  V30 35 1 32 5
M  V30 36 1 33 7
M  V30 37 1 34 7
M  V30 38 1 35 8
M  V30 39 1 36 8
M  V30 40 1 37 11
M  V30 41 1 38 12
M  V30 42 1 39 13
M  V30 43 1 40 14
M  V30 44 1 41 15
M  V30 45 1 42 16
M  V30 46 1 43 16
M  V30 47 1 44 17
M  V30 48 1 45 17
M  V30 49 1 46 21
M  V30 50 1 47 22
M  V30 51 1 48 23
M  V30 52 1 49 24
M  V30 END BOND
M  V30 END CTAB
M  END
>  <b_m_subgroup_collapsed>  (1060) 
0

>  <r_i_docking_score>  (1060) 
-7.5354286598795301

>  <s_m_subgroup_title>  (1060) 
glide-dock_SP_D22_pv

>  <s_m_subgroupid>  (1060) 
glide-dock_SP_D22_pv

>  <Molecule ChEMBL ID>  (1060) 
CHEMBL2037525

>  <Standard Type>  (1060) 
Ki

>  <Standard Value>  (1060) 
10000.0

>  <label>  (1060) 
0

$$$$
CHEMBL458991
     RDKit          3D

  0  0  0  0  0  0  0  0  0  0999 V3000
M  V30 BEGIN CTAB
M  V30 COUNTS 77 80 0 0 1
M  V30 BEGIN ATOM
M  V30 1 C 13.290755 4.092323 -17.411173 0
M  V30 2 O 13.441282 2.981853 -18.282301 0
M  V30 3 C 12.612124 1.895777 -18.093891 0
M  V30 4 C 12.737904 0.829928 -19.006762 0
M  V30 5 C 11.932215 -0.317337 -18.884676 0
M  V30 6 C 10.986080 -0.411321 -17.848379 0
M  V30 7 C 10.850599 0.645269 -16.924530 0
M  V30 8 C 9.808969 0.568790 -15.825166 0
M  V30 9 C 8.499150 1.226369 -16.274937 0
M  V30 10 C 7.405845 1.164721 -15.222408 0
M  V30 11 C 6.600137 0.009051 -15.149110 0
M  V30 12 C 5.551667 -0.069787 -14.216176 0
M  V30 13 C 5.293953 1.018867 -13.367702 0
M  V30 14 C 6.084631 2.180240 -13.447218 0
M  V30 15 C 7.171276 2.259858 -14.354651 0
M  V30 16 O 8.022127 3.346418 -14.442440 0
M  V30 17 C 7.744215 4.530065 -13.696939 0
M  V30 18 C 8.148958 4.390862 -12.217150 0
M  V30 19 C 8.061656 5.692378 -11.418137 0
M  V30 20 C 9.242422 6.646279 -11.669919 0
M  V30 21 C 9.314177 7.839545 -10.698347 0
M  V30 22 N 9.286845 7.433686 -9.272013 0 CHG=1
M  V30 23 C 9.100822 8.592334 -8.362597 0
M  V30 24 C 8.967492 8.117333 -6.908797 0
M  V30 25 N 10.098326 7.272117 -6.543949 0
M  V30 26 C 10.940370 7.577485 -5.456787 0
M  V30 27 C 11.284315 6.574742 -4.525507 0
M  V30 28 C 12.050911 6.864943 -3.380427 0
M  V30 29 C 12.484701 8.178744 -3.156646 0
M  V30 30 C 12.188396 9.180192 -4.096943 0
M  V30 31 C 11.440317 8.886910 -5.268963 0
M  V30 32 O 11.193645 9.803624 -6.267491 0
M  V30 33 C 11.786496 11.070328 -6.138945 0
M  V30 34 C 10.385787 6.141215 -7.407732 0
M  V30 35 C 10.448174 6.585826 -8.879065 0
M  V30 36 C 11.661056 1.792479 -17.046839 0
M  V30 37 H 13.995928 4.872602 -17.695251 0
M  V30 38 H 12.287063 4.514699 -17.478699 0
M  V30 39 H 13.498369 3.821669 -16.375198 0
M  V30 40 H 13.457561 0.895758 -19.808506 0
M  V30 41 H 12.040466 -1.123089 -19.595009 0
M  V30 42 H 10.366150 -1.291040 -17.766066 0
M  V30 43 H 10.188687 1.062466 -14.929424 0
M  V30 44 H 9.639933 -0.474550 -15.557717 0
M  V30 45 H 8.134376 0.738283 -17.178902 0
M  V30 46 H 8.681522 2.262420 -16.557838 0
M  V30 47 H 6.784074 -0.826285 -15.810286 0
M  V30 48 H 4.941504 -0.959440 -14.165016 0
M  V30 49 H 4.488789 0.970723 -12.654962 0
M  V30 50 H 5.833335 2.997149 -12.789190 0
M  V30 51 H 6.700712 4.830072 -13.801957 0
M  V30 52 H 8.331124 5.324407 -14.155212 0
M  V30 53 H 9.148642 3.959551 -12.135313 0
M  V30 54 H 7.477823 3.705785 -11.717888 0
M  V30 55 H 8.023437 5.418261 -10.364511 0
M  V30 56 H 7.108743 6.175025 -11.628805 0
M  V30 57 H 9.168127 7.040074 -12.678060 0
M  V30 58 H 10.180141 6.090713 -11.646253 0
M  V30 59 H 8.486029 8.516453 -10.903131 0
M  V30 60 H 10.222309 8.415084 -10.893955 0
M  V30 61 H 8.214678 9.159582 -8.646632 0
M  V30 62 H 9.949009 9.269734 -8.464831 0
M  V30 63 H 8.057658 7.532703 -6.791222 0
M  V30 64 H 8.865362 8.972701 -6.246884 0
M  V30 65 H 10.893048 5.582114 -4.647566 0
M  V30 66 H 12.272958 6.086855 -2.664743 0
M  V30 67 H 13.058563 8.418616 -2.271532 0
M  V30 68 H 12.565467 10.166631 -3.891119 0
M  V30 69 H 11.684774 11.660556 -7.046278 0
M  V30 70 H 11.286883 11.594611 -5.319560 0
M  V30 71 H 12.855649 10.972855 -5.953434 0
M  V30 72 H 11.326882 5.671110 -7.127560 0
M  V30 73 H 9.603015 5.393317 -7.281053 0
M  V30 74 H 10.485554 5.688428 -9.495316 0
M  V30 75 H 11.368950 7.145621 -9.053135 0
M  V30 76 H 11.530886 2.586761 -16.327606 0
M  V30 77 H 8.440229 6.884247 -9.164036 0
M  V30 END ATOM
M  V30 BEGIN BOND
M  V30 1 1 2 1
M  V30 2 1 3 2
M  V30 3 2 4 3
M  V30 4 1 5 4
M  V30 5 2 6 5
M  V30 6 1 7 6
M  V30 7 1 8 7
M  V30 8 1 9 8
M  V30 9 1 10 9
M  V30 10 2 11 10
M  V30 11 1 12 11
M  V30 12 2 13 12
M  V30 13 1 14 13
M  V30 14 1 15 10
M  V30 15 2 15 14
M  V30 16 1 16 15
M  V30 17 1 17 16
M  V30 18 1 18 17
M  V30 19 1 19 18
M  V30 20 1 20 19
M  V30 21 1 21 20
M  V30 22 1 22 21
M  V30 23 1 23 22
M  V30 24 1 24 23
M  V30 25 1 25 24
M  V30 26 1 26 25
M  V30 27 2 27 26
M  V30 28 1 28 27
M  V30 29 2 29 28
M  V30 30 1 30 29
M  V30 31 1 31 26
M  V30 32 2 31 30
M  V30 33 1 32 31
M  V30 34 1 33 32
M  V30 35 1 34 25
M  V30 36 1 35 22
M  V30 37 1 35 34
M  V30 38 1 36 3
M  V30 39 2 36 7
M  V30 40 1 37 1
M  V30 41 1 38 1
M  V30 42 1 39 1
M  V30 43 1 40 4
M  V30 44 1 41 5
M  V30 45 1 42 6
M  V30 46 1 43 8
M  V30 47 1 44 8
M  V30 48 1 45 9
M  V30 49 1 46 9
M  V30 50 1 47 11
M  V30 51 1 48 12
M  V30 52 1 49 13
M  V30 53 1 50 14
M  V30 54 1 51 17
M  V30 55 1 52 17
M  V30 56 1 53 18
M  V30 57 1 54 18
M  V30 58 1 55 19
M  V30 59 1 56 19
M  V30 60 1 57 20
M  V30 61 1 58 20
M  V30 62 1 59 21
M  V30 63 1 60 21
M  V30 64 1 61 23
M  V30 65 1 62 23
M  V30 66 1 63 24
M  V30 67 1 64 24
M  V30 68 1 65 27
M  V30 69 1 66 28
M  V30 70 1 67 29
M  V30 71 1 68 30
M  V30 72 1 69 33
M  V30 73 1 70 33
M  V30 74 1 71 33
M  V30 75 1 72 34
M  V30 76 1 73 34
M  V30 77 1 74 35
M  V30 78 1 75 35
M  V30 79 1 76 36
M  V30 80 1 77 22
M  V30 END BOND
M  V30 END CTAB
M  END
>  <b_m_subgroup_collapsed>  (1061) 
0

>  <r_i_docking_score>  (1061) 
-7.5298636719344101

>  <s_m_subgroup_title>  (1061) 
glide-dock_SP_D22_pv

>  <s_m_subgroupid>  (1061) 
glide-dock_SP_D22_pv

>  <Molecule ChEMBL ID>  (1061) 
CHEMBL458991

>  <Standard Type>  (1061) 
Ki

>  <Standard Value>  (1061) 
1000000.0

>  <label>  (1061) 
0

$$$$
CHEMBL268799
     RDKit          3D

  0  0  0  0  0  0  0  0  0  0999 V3000
M  V30 BEGIN CTAB
M  V30 COUNTS 44 47 0 0 1
M  V30 BEGIN ATOM
M  V30 1 Cl 12.484828 8.586475 -2.502308 0
M  V30 2 C 11.787414 8.313651 -4.057486 0
M  V30 3 C 11.685990 7.007533 -4.563853 0
M  V30 4 C 11.138907 6.785500 -5.842420 0
M  V30 5 C 10.652126 7.850143 -6.638375 0
M  V30 6 N 10.107412 7.597899 -7.925115 0
M  V30 7 C 9.723225 8.728948 -8.762901 0
M  V30 8 C 9.688753 8.343730 -10.246564 0
M  V30 9 N 8.886069 7.125276 -10.516071 0 CHG=1
M  V30 10 C 8.908320 6.818075 -11.970343 0
M  V30 11 C 8.040757 5.674966 -12.415132 0
M  V30 12 C 6.684133 5.549651 -12.246477 0
M  V30 13 N 6.249025 4.397456 -12.873839 0
M  V30 14 C 7.302860 3.747530 -13.478661 0
M  V30 15 C 7.371437 2.571421 -14.247047 0
M  V30 16 C 8.618314 2.134570 -14.729991 0
M  V30 17 C 9.778365 2.881659 -14.449444 0
M  V30 18 C 9.696920 4.066059 -13.688845 0
M  V30 19 C 8.458361 4.529095 -13.181851 0
M  V30 20 C 9.272611 5.992396 -9.634334 0
M  V30 21 C 9.288342 6.400888 -8.144361 0
M  V30 22 C 10.765383 9.162294 -6.104782 0
M  V30 23 C 11.322370 9.391505 -4.830495 0
M  V30 24 H 12.045249 6.172044 -3.981044 0
M  V30 25 H 11.129226 5.772382 -6.205230 0
M  V30 26 H 8.748831 9.100922 -8.440629 0
M  V30 27 H 10.439804 9.543501 -8.669385 0
M  V30 28 H 9.282073 9.176003 -10.820834 0
M  V30 29 H 10.710891 8.185268 -10.594957 0
M  V30 30 H 8.595401 7.712651 -12.510913 0
M  V30 31 H 9.940989 6.635979 -12.270866 0
M  V30 32 H 5.984189 6.187012 -11.724757 0
M  V30 33 H 5.285758 4.095968 -12.870034 0
M  V30 34 H 6.478715 2.001450 -14.456157 0
M  V30 35 H 8.686271 1.226848 -15.312341 0
M  V30 36 H 10.735947 2.543573 -14.819012 0
M  V30 37 H 10.598308 4.626134 -13.492468 0
M  V30 38 H 8.581399 5.160433 -9.774331 0
M  V30 39 H 10.262060 5.635504 -9.922092 0
M  V30 40 H 9.620613 5.546548 -7.560492 0
M  V30 41 H 8.271358 6.613946 -7.810446 0
M  V30 42 H 10.427051 10.028963 -6.648059 0
M  V30 43 H 11.389753 10.398361 -4.446029 0
M  V30 44 H 7.913035 7.372016 -10.284933 0
M  V30 END ATOM
M  V30 BEGIN BOND
M  V30 1 1 2 1
M  V30 2 1 3 2
M  V30 3 2 4 3
M  V30 4 1 5 4
M  V30 5 1 6 5
M  V30 6 1 7 6
M  V30 7 1 8 7
M  V30 8 1 9 8
M  V30 9 1 10 9
M  V30 10 1 11 10
M  V30 11 2 12 11
M  V30 12 1 13 12
M  V30 13 1 14 13
M  V30 14 2 15 14
M  V30 15 1 16 15
M  V30 16 2 17 16
M  V30 17 1 18 17
M  V30 18 1 19 11
M  V30 19 1 19 14
M  V30 20 2 19 18
M  V30 21 1 20 9
M  V30 22 1 21 6
M  V30 23 1 21 20
M  V30 24 2 22 5
M  V30 25 2 23 2
M  V30 26 1 23 22
M  V30 27 1 24 3
M  V30 28 1 25 4
M  V30 29 1 26 7
M  V30 30 1 27 7
M  V30 31 1 28 8
M  V30 32 1 29 8
M  V30 33 1 30 10
M  V30 34 1 31 10
M  V30 35 1 32 12
M  V30 36 1 33 13
M  V30 37 1 34 15
M  V30 38 1 35 16
M  V30 39 1 36 17
M  V30 40 1 37 18
M  V30 41 1 38 20
M  V30 42 1 39 20
M  V30 43 1 40 21
M  V30 44 1 41 21
M  V30 45 1 42 22
M  V30 46 1 43 23
M  V30 47 1 44 9
M  V30 END BOND
M  V30 END CTAB
M  END
>  <b_m_subgroup_collapsed>  (1062) 
0

>  <r_i_docking_score>  (1062) 
-7.5296348993292703

>  <s_m_subgroup_title>  (1062) 
glide-dock_SP_D22_pv

>  <s_m_subgroupid>  (1062) 
glide-dock_SP_D22_pv

>  <Molecule ChEMBL ID>  (1062) 
CHEMBL268799

>  <Standard Type>  (1062) 
Ki

>  <Standard Value>  (1062) 
71.0

>  <label>  (1062) 
1

$$$$
CHEMBL126656
     RDKit          3D

  0  0  0  0  0  0  0  0  0  0999 V3000
M  V30 BEGIN CTAB
M  V30 COUNTS 62 65 0 0 1
M  V30 BEGIN ATOM
M  V30 1 C 11.884469 10.647720 -6.245788 0
M  V30 2 O 10.985267 10.307456 -5.205326 0
M  V30 3 C 11.381425 9.192567 -4.506730 0
M  V30 4 C 11.904711 9.372210 -3.210307 0
M  V30 5 C 12.315960 8.264410 -2.447949 0
M  V30 6 C 12.204806 6.969321 -2.982436 0
M  V30 7 C 11.686242 6.780791 -4.277102 0
M  V30 8 C 11.265810 7.885421 -5.049638 0
M  V30 9 N 10.691381 7.678013 -6.314198 0
M  V30 10 C 9.333760 8.117186 -6.593145 0
M  V30 11 C 9.271263 8.735611 -7.995602 0
M  V30 12 N 9.787609 7.807469 -9.007067 0
M  V30 13 C 9.709375 8.492501 -10.294205 0
M  V30 14 C 9.957138 7.566241 -11.493016 0
M  V30 15 C 9.064333 6.313589 -11.475994 0
M  V30 16 N 8.885654 5.765646 -12.812217 0
M  V30 17 C 9.806291 5.076731 -13.499668 0
M  V30 18 O 10.909523 4.785965 -13.047023 0
M  V30 19 C 9.439479 4.679568 -14.928236 0
M  V30 20 C 9.412999 3.162583 -15.078048 0
M  V30 21 C 10.540928 2.526000 -15.643369 0
M  V30 22 C 10.572537 1.129559 -15.805679 0
M  V30 23 C 9.478332 0.351390 -15.397299 0
M  V30 24 C 8.346862 0.966937 -14.825799 0
M  V30 25 C 7.255749 0.170148 -14.421329 0
M  V30 26 C 6.120919 0.761408 -13.842467 0
M  V30 27 C 6.077524 2.154801 -13.666185 0
M  V30 28 C 7.150890 2.960536 -14.084187 0
M  V30 29 C 8.303466 2.378210 -14.662991 0
M  V30 30 C 11.165436 7.410910 -8.686407 0
M  V30 31 C 11.235653 6.751585 -7.290965 0
M  V30 32 H 11.685110 11.637346 -6.647388 0
M  V30 33 H 12.888114 10.661749 -5.846532 0
M  V30 34 H 11.864961 9.923777 -7.054150 0
M  V30 35 H 11.985897 10.366333 -2.795810 0
M  V30 36 H 12.708639 8.411882 -1.451525 0
M  V30 37 H 12.510510 6.115096 -2.396363 0
M  V30 38 H 11.587475 5.776113 -4.666176 0
M  V30 39 H 8.655470 7.264713 -6.526086 0
M  V30 40 H 9.004439 8.847529 -5.862212 0
M  V30 41 H 8.236746 8.994640 -8.222911 0
M  V30 42 H 9.840399 9.662946 -8.015816 0
M  V30 43 H 8.708340 8.914353 -10.405422 0
M  V30 44 H 10.402876 9.333155 -10.311054 0
M  V30 45 H 9.752322 8.146544 -12.392306 0
M  V30 46 H 11.006155 7.279226 -11.557578 0
M  V30 47 H 9.466649 5.556153 -10.801187 0
M  V30 48 H 8.081537 6.568960 -11.087575 0
M  V30 49 H 7.998846 5.955526 -13.253348 0
M  V30 50 H 8.488235 5.125781 -15.214932 0
M  V30 51 H 10.181575 5.107582 -15.603208 0
M  V30 52 H 11.394343 3.111747 -15.951166 0
M  V30 53 H 11.442595 0.655309 -16.239342 0
M  V30 54 H 9.512958 -0.720473 -15.520453 0
M  V30 55 H 7.281918 -0.901827 -14.554171 0
M  V30 56 H 5.288816 0.146412 -13.532990 0
M  V30 57 H 5.206016 2.612205 -13.220150 0
M  V30 58 H 7.067717 4.024360 -13.935907 0
M  V30 59 H 11.522385 6.708453 -9.436506 0
M  V30 60 H 11.824459 8.277966 -8.724515 0
M  V30 61 H 12.261827 6.486681 -7.045238 0
M  V30 62 H 10.655481 5.828868 -7.276564 0
M  V30 END ATOM
M  V30 BEGIN BOND
M  V30 1 1 2 1
M  V30 2 1 3 2
M  V30 3 2 4 3
M  V30 4 1 5 4
M  V30 5 2 6 5
M  V30 6 1 7 6
M  V30 7 1 8 3
M  V30 8 2 8 7
M  V30 9 1 9 8
M  V30 10 1 10 9
M  V30 11 1 11 10
M  V30 12 1 12 11
M  V30 13 1 13 12
M  V30 14 1 14 13
M  V30 15 1 15 14
M  V30 16 1 16 15
M  V30 17 1 17 16
M  V30 18 2 18 17
M  V30 19 1 19 17
M  V30 20 1 20 19
M  V30 21 2 21 20
M  V30 22 1 22 21
M  V30 23 2 23 22
M  V30 24 1 24 23
M  V30 25 2 25 24
M  V30 26 1 26 25
M  V30 27 2 27 26
M  V30 28 1 28 27
M  V30 29 1 29 20
M  V30 30 1 29 24
M  V30 31 2 29 28
M  V30 32 1 30 12
M  V30 33 1 31 9
M  V30 34 1 31 30
M  V30 35 1 32 1
M  V30 36 1 33 1
M  V30 37 1 34 1
M  V30 38 1 35 4
M  V30 39 1 36 5
M  V30 40 1 37 6
M  V30 41 1 38 7
M  V30 42 1 39 10
M  V30 43 1 40 10
M  V30 44 1 41 11
M  V30 45 1 42 11
M  V30 46 1 43 13
M  V30 47 1 44 13
M  V30 48 1 45 14
M  V30 49 1 46 14
M  V30 50 1 47 15
M  V30 51 1 48 15
M  V30 52 1 49 16
M  V30 53 1 50 19
M  V30 54 1 51 19
M  V30 55 1 52 21
M  V30 56 1 53 22
M  V30 57 1 54 23
M  V30 58 1 55 25
M  V30 59 1 56 26
M  V30 60 1 57 27
M  V30 61 1 58 28
M  V30 62 1 59 30
M  V30 63 1 60 30
M  V30 64 1 61 31
M  V30 65 1 62 31
M  V30 END BOND
M  V30 END CTAB
M  END
>  <b_m_subgroup_collapsed>  (1063) 
0

>  <r_i_docking_score>  (1063) 
-7.5267851724066999

>  <s_m_subgroup_title>  (1063) 
glide-dock_SP_D22_pv

>  <s_m_subgroupid>  (1063) 
glide-dock_SP_D22_pv

>  <Molecule ChEMBL ID>  (1063) 
CHEMBL126656

>  <Standard Type>  (1063) 
Ki

>  <Standard Value>  (1063) 
44.0

>  <label>  (1063) 
1

$$$$
CHEMBL592377
     RDKit          3D

  0  0  0  0  0  0  0  0  0  0999 V3000
M  V30 BEGIN CTAB
M  V30 COUNTS 42 44 0 0 1
M  V30 BEGIN ATOM
M  V30 1 O 11.499894 6.572452 -3.816082 0
M  V30 2 C 11.288857 7.399740 -4.878171 0
M  V30 3 C 11.489905 8.783153 -4.720992 0
M  V30 4 C 11.313760 9.638704 -5.821135 0
M  V30 5 C 10.948590 9.102915 -7.069861 0
M  V30 6 C 10.731433 7.717405 -7.246370 0
M  V30 7 C 10.382914 7.127626 -8.622551 0 CFG=1
M  V30 8 C 9.225678 6.099930 -8.593086 0
M  V30 9 C 8.942995 5.505066 -9.991781 0
M  V30 10 N 8.683267 6.572286 -10.993918 0 CFG=2 CHG=1
M  V30 11 C 8.248754 6.094014 -12.333053 0
M  V30 12 C 9.195949 5.110383 -13.020523 0
M  V30 13 C 8.791988 3.772579 -13.193420 0
M  V30 14 C 9.630867 2.849975 -13.847925 0
M  V30 15 C 10.885644 3.256830 -14.336626 0
M  V30 16 C 11.293592 4.594052 -14.182714 0
M  V30 17 C 10.449537 5.516254 -13.533885 0
M  V30 18 C 9.794160 7.553330 -11.056533 0
M  V30 19 C 10.055677 8.192829 -9.693626 0
M  V30 20 C 10.911731 6.872535 -6.130462 0
M  V30 21 H 11.286360 5.666278 -3.990731 0
M  V30 22 H 11.786499 9.186118 -3.762975 0
M  V30 23 H 11.477085 10.701076 -5.714991 0
M  V30 24 H 10.862932 9.773256 -7.901040 0
M  V30 25 H 11.283635 6.603551 -8.945370 0
M  V30 26 H 9.449820 5.278247 -7.914478 0
M  V30 27 H 8.323752 6.574945 -8.206535 0
M  V30 28 H 8.084561 4.835626 -9.938689 0
M  V30 29 H 9.791140 4.899035 -10.311639 0
M  V30 30 H 7.271190 5.624238 -12.212666 0
M  V30 31 H 8.082303 6.946984 -12.992771 0
M  V30 32 H 7.830541 3.442612 -12.828038 0
M  V30 33 H 9.314250 1.823961 -13.963427 0
M  V30 34 H 11.530983 2.545663 -14.832497 0
M  V30 35 H 12.251009 4.915537 -14.567812 0
M  V30 36 H 10.776326 6.540068 -13.455193 0
M  V30 37 H 9.566046 8.332064 -11.786139 0
M  V30 38 H 10.713302 7.063287 -11.373632 0
M  V30 39 H 9.190192 8.785115 -9.390305 0
M  V30 40 H 10.892959 8.879656 -9.821370 0
M  V30 41 H 10.796187 5.806237 -6.236772 0
M  V30 42 H 7.872477 7.091353 -10.646066 0
M  V30 END ATOM
M  V30 BEGIN BOND
M  V30 1 1 2 1
M  V30 2 1 3 2
M  V30 3 2 4 3
M  V30 4 1 5 4
M  V30 5 2 6 5
M  V30 6 1 7 6
M  V30 7 1 8 7
M  V30 8 1 9 8
M  V30 9 1 10 9
M  V30 10 1 11 10
M  V30 11 1 12 11
M  V30 12 2 13 12
M  V30 13 1 14 13
M  V30 14 2 15 14
M  V30 15 1 16 15
M  V30 16 1 17 12
M  V30 17 2 17 16
M  V30 18 1 18 10
M  V30 19 1 19 7
M  V30 20 1 19 18
M  V30 21 2 20 2
M  V30 22 1 20 6
M  V30 23 1 21 1
M  V30 24 1 22 3
M  V30 25 1 23 4
M  V30 26 1 24 5
M  V30 27 1 7 25 CFG=3
M  V30 28 1 26 8
M  V30 29 1 27 8
M  V30 30 1 28 9
M  V30 31 1 29 9
M  V30 32 1 30 11
M  V30 33 1 31 11
M  V30 34 1 32 13
M  V30 35 1 33 14
M  V30 36 1 34 15
M  V30 37 1 35 16
M  V30 38 1 36 17
M  V30 39 1 37 18
M  V30 40 1 38 18
M  V30 41 1 39 19
M  V30 42 1 40 19
M  V30 43 1 41 20
M  V30 44 1 10 42 CFG=1
M  V30 END BOND
M  V30 END CTAB
M  END
>  <b_m_subgroup_collapsed>  (1064) 
0

>  <r_i_docking_score>  (1064) 
-7.52603385462068

>  <s_m_subgroup_title>  (1064) 
glide-dock_SP_D22_pv

>  <s_m_subgroupid>  (1064) 
glide-dock_SP_D22_pv

>  <Molecule ChEMBL ID>  (1064) 
CHEMBL592377

>  <Standard Type>  (1064) 
Ki

>  <Standard Value>  (1064) 
35.0

>  <label>  (1064) 
1

$$$$
CHEMBL94811
     RDKit          3D

  0  0  0  0  0  0  0  0  0  0999 V3000
M  V30 BEGIN CTAB
M  V30 COUNTS 48 50 0 0 1
M  V30 BEGIN ATOM
M  V30 1 N 10.172477 0.604007 -15.485821 0
M  V30 2 C 10.316969 1.660993 -15.036942 0
M  V30 3 C 10.499172 2.988016 -14.468734 0
M  V30 4 C 11.686535 3.706527 -14.712085 0
M  V30 5 C 11.868197 4.974856 -14.133092 0
M  V30 6 C 10.860740 5.533618 -13.324119 0
M  V30 7 C 9.652115 4.836873 -13.087008 0
M  V30 8 C 8.508855 5.406511 -12.236006 0 CFG=2
M  V30 9 C 8.076833 6.841650 -12.577431 0
M  V30 10 C 8.939968 7.930682 -11.910771 0
M  V30 11 C 9.299579 7.647533 -10.436116 0
M  V30 12 N 9.685950 6.233563 -10.158920 0 CFG=1 CHG=1
M  V30 13 C 9.906089 5.932086 -8.712937 0
M  V30 14 C 10.577641 7.049537 -7.889370 0
M  V30 15 C 10.807569 6.631410 -6.424379 0
M  V30 16 C 11.193455 7.742978 -5.452466 0
M  V30 17 C 11.747513 7.379503 -4.205705 0
M  V30 18 C 12.081151 8.362832 -3.253293 0
M  V30 19 C 11.836230 9.721104 -3.530521 0
M  V30 20 C 11.285933 10.094995 -4.771549 0
M  V30 21 C 10.972284 9.113861 -5.730221 0
M  V30 22 C 8.710416 5.263070 -10.720848 0
M  V30 23 C 9.490087 3.555736 -13.663506 0
M  V30 24 H 12.466238 3.284740 -15.331215 0
M  V30 25 H 12.786090 5.519143 -14.304485 0
M  V30 26 H 11.053973 6.496077 -12.887876 0
M  V30 27 H 7.642970 4.788086 -12.478086 0
M  V30 28 H 7.047506 6.976803 -12.245580 0
M  V30 29 H 8.032108 6.969223 -13.652907 0
M  V30 30 H 8.408379 8.881686 -11.965155 0
M  V30 31 H 9.847623 8.102570 -12.482141 0
M  V30 32 H 8.486128 7.927460 -9.775713 0
M  V30 33 H 10.125835 8.308549 -10.173553 0
M  V30 34 H 10.486662 5.011534 -8.641716 0
M  V30 35 H 8.941200 5.718165 -8.247403 0
M  V30 36 H 9.899339 7.899261 -7.899691 0
M  V30 37 H 11.517308 7.369790 -8.341247 0
M  V30 38 H 11.577258 5.858659 -6.392049 0
M  V30 39 H 9.898405 6.173616 -6.031740 0
M  V30 40 H 11.913477 6.337408 -3.971781 0
M  V30 41 H 12.503690 8.074010 -2.302261 0
M  V30 42 H 12.076789 10.473462 -2.792530 0
M  V30 43 H 11.100230 11.135284 -4.993996 0
M  V30 44 H 10.546681 9.447648 -6.662384 0
M  V30 45 H 9.020582 4.243339 -10.488896 0
M  V30 46 H 7.747824 5.417436 -10.228089 0
M  V30 47 H 8.582632 2.995979 -13.486011 0
M  V30 48 H 10.560390 6.077141 -10.637220 0
M  V30 END ATOM
M  V30 BEGIN BOND
M  V30 1 3 2 1
M  V30 2 1 3 2
M  V30 3 1 4 3
M  V30 4 2 5 4
M  V30 5 1 6 5
M  V30 6 2 7 6
M  V30 7 1 8 7
M  V30 8 1 9 8
M  V30 9 1 10 9
M  V30 10 1 11 10
M  V30 11 1 12 11
M  V30 12 1 13 12
M  V30 13 1 14 13
M  V30 14 1 15 14
M  V30 15 1 16 15
M  V30 16 2 17 16
M  V30 17 1 18 17
M  V30 18 2 19 18
M  V30 19 1 20 19
M  V30 20 1 21 16
M  V30 21 2 21 20
M  V30 22 1 22 8
M  V30 23 1 22 12
M  V30 24 2 23 3
M  V30 25 1 23 7
M  V30 26 1 24 4
M  V30 27 1 25 5
M  V30 28 1 26 6
M  V30 29 1 8 27 CFG=3
M  V30 30 1 28 9
M  V30 31 1 29 9
M  V30 32 1 30 10
M  V30 33 1 31 10
M  V30 34 1 32 11
M  V30 35 1 33 11
M  V30 36 1 34 13
M  V30 37 1 35 13
M  V30 38 1 36 14
M  V30 39 1 37 14
M  V30 40 1 38 15
M  V30 41 1 39 15
M  V30 42 1 40 17
M  V30 43 1 41 18
M  V30 44 1 42 19
M  V30 45 1 43 20
M  V30 46 1 44 21
M  V30 47 1 45 22
M  V30 48 1 46 22
M  V30 49 1 47 23
M  V30 50 1 12 48 CFG=3
M  V30 END BOND
M  V30 END CTAB
M  END
>  <b_m_subgroup_collapsed>  (1065) 
0

>  <r_i_docking_score>  (1065) 
-7.5258608627894201

>  <s_m_subgroup_title>  (1065) 
glide-dock_SP_D22_pv

>  <s_m_subgroupid>  (1065) 
glide-dock_SP_D22_pv

>  <Molecule ChEMBL ID>  (1065) 
CHEMBL94811

>  <Standard Type>  (1065) 
Ki

>  <Standard Value>  (1065) 
29.0

>  <label>  (1065) 
1

$$$$
CHEMBL76849
     RDKit          3D

  0  0  0  0  0  0  0  0  0  0999 V3000
M  V30 BEGIN CTAB
M  V30 COUNTS 52 54 0 0 1
M  V30 BEGIN ATOM
M  V30 1 C 11.648367 8.916837 -7.320616 0
M  V30 2 C 11.265928 8.025113 -6.391311 0
M  V30 3 C 11.560393 8.117908 -4.961678 0
M  V30 4 C 11.776374 9.361601 -4.329464 0
M  V30 5 C 12.087751 9.406370 -2.960262 0
M  V30 6 C 12.223755 8.219025 -2.221805 0
M  V30 7 C 12.025667 6.977579 -2.849089 0
M  V30 8 C 11.685657 6.929671 -4.212887 0
M  V30 9 C 11.272579 8.816826 -8.781487 0
M  V30 10 O 10.013615 8.177162 -8.919201 0
M  V30 11 C 9.617694 7.937757 -10.257836 0
M  V30 12 C 10.164986 6.575914 -10.742154 0 CFG=1
M  V30 13 C 9.525820 5.361876 -10.038257 0
M  V30 14 C 8.075204 5.110194 -10.476638 0
M  V30 15 N 7.932970 5.043815 -11.955125 0 CFG=1 CHG=1
M  V30 16 C 6.544354 4.753717 -12.404441 0
M  V30 17 C 6.469901 3.399472 -13.095608 0
M  V30 18 C 7.332129 3.095105 -14.173365 0
M  V30 19 C 7.309989 1.816519 -14.764565 0
M  V30 20 C 6.410889 0.837900 -14.296612 0
M  V30 21 C 5.530208 1.145950 -13.243909 0
M  V30 22 C 5.557020 2.420923 -12.646309 0
M  V30 23 C 8.518538 6.222208 -12.642839 0
M  V30 24 C 9.996849 6.407136 -12.256684 0
M  V30 25 H 12.268554 9.758472 -7.047862 0
M  V30 26 H 10.667792 7.181076 -6.699976 0
M  V30 27 H 11.681696 10.283525 -4.885212 0
M  V30 28 H 12.221815 10.362344 -2.476190 0
M  V30 29 H 12.473673 8.264794 -1.173265 0
M  V30 30 H 12.118929 6.061928 -2.283352 0
M  V30 31 H 11.535008 5.970231 -4.685397 0
M  V30 32 H 11.221389 9.819010 -9.206978 0
M  V30 33 H 12.060509 8.280619 -9.309872 0
M  V30 34 H 8.527946 7.957011 -10.296412 0
M  V30 35 H 9.956342 8.754480 -10.901014 0
M  V30 36 H 11.234302 6.575486 -10.528328 0
M  V30 37 H 10.086048 4.456769 -10.269228 0
M  V30 38 H 9.574430 5.477885 -8.954955 0
M  V30 39 H 7.432754 5.888792 -10.076263 0
M  V30 40 H 7.720075 4.172598 -10.042703 0
M  V30 41 H 5.855124 4.773297 -11.557836 0
M  V30 42 H 6.180291 5.519194 -13.092700 0
M  V30 43 H 8.034823 3.828175 -14.538892 0
M  V30 44 H 7.980686 1.584981 -15.578187 0
M  V30 45 H 6.399738 -0.143798 -14.746432 0
M  V30 46 H 4.836703 0.397495 -12.890058 0
M  V30 47 H 4.889127 2.634497 -11.828920 0
M  V30 48 H 7.941405 7.115312 -12.397481 0
M  V30 49 H 8.445849 6.088017 -13.725220 0
M  V30 50 H 10.436151 7.265137 -12.766390 0
M  V30 51 H 10.565202 5.541104 -12.593741 0
M  V30 52 H 8.480791 4.247859 -12.244921 0
M  V30 END ATOM
M  V30 BEGIN BOND
M  V30 1 2 2 1
M  V30 2 1 3 2
M  V30 3 2 4 3
M  V30 4 1 5 4
M  V30 5 2 6 5
M  V30 6 1 7 6
M  V30 7 1 8 3
M  V30 8 2 8 7
M  V30 9 1 9 1
M  V30 10 1 10 9
M  V30 11 1 11 10
M  V30 12 1 12 11
M  V30 13 1 13 12
M  V30 14 1 14 13
M  V30 15 1 15 14
M  V30 16 1 16 15
M  V30 17 1 17 16
M  V30 18 2 18 17
M  V30 19 1 19 18
M  V30 20 2 20 19
M  V30 21 1 21 20
M  V30 22 1 22 17
M  V30 23 2 22 21
M  V30 24 1 23 15
M  V30 25 1 24 12
M  V30 26 1 24 23
M  V30 27 1 25 1
M  V30 28 1 26 2
M  V30 29 1 27 4
M  V30 30 1 28 5
M  V30 31 1 29 6
M  V30 32 1 30 7
M  V30 33 1 31 8
M  V30 34 1 32 9
M  V30 35 1 33 9
M  V30 36 1 34 11
M  V30 37 1 35 11
M  V30 38 1 12 36 CFG=3
M  V30 39 1 37 13
M  V30 40 1 38 13
M  V30 41 1 39 14
M  V30 42 1 40 14
M  V30 43 1 41 16
M  V30 44 1 42 16
M  V30 45 1 43 18
M  V30 46 1 44 19
M  V30 47 1 45 20
M  V30 48 1 46 21
M  V30 49 1 47 22
M  V30 50 1 48 23
M  V30 51 1 49 23
M  V30 52 1 50 24
M  V30 53 1 51 24
M  V30 54 1 15 52 CFG=3
M  V30 END BOND
M  V30 END CTAB
M  END
>  <b_m_subgroup_collapsed>  (1066) 
0

>  <r_i_docking_score>  (1066) 
-7.5233589420749798

>  <s_m_subgroup_title>  (1066) 
glide-dock_SP_D22_pv

>  <s_m_subgroupid>  (1066) 
glide-dock_SP_D22_pv

>  <Molecule ChEMBL ID>  (1066) 
CHEMBL76849

>  <Standard Type>  (1066) 
Ki

>  <Standard Value>  (1066) 
10000.0

>  <label>  (1066) 
0

$$$$
CHEMBL4998385
     RDKit          3D

  0  0  0  0  0  0  0  0  0  0999 V3000
M  V30 BEGIN CTAB
M  V30 COUNTS 36 37 0 0 1
M  V30 BEGIN ATOM
M  V30 1 C 6.009672 5.103525 -12.751548 0
M  V30 2 N 7.356189 4.616124 -12.989769 0
M  V30 3 N 7.534801 3.590328 -13.846865 0
M  V30 4 C 8.838953 3.372408 -13.846864 0
M  V30 5 C 9.535933 4.252512 -12.973936 0
M  V30 6 C 8.555165 5.043047 -12.443508 0
M  V30 7 C 8.646519 6.161507 -11.457369 0
M  V30 8 N 8.086021 5.772325 -10.149602 0 CHG=1
M  V30 9 C 9.056382 5.503378 -9.073582 0
M  V30 10 C 9.586206 6.801085 -8.442966 0
M  V30 11 N 10.509828 6.505091 -7.360271 0
M  V30 12 C 10.886021 7.509951 -6.462134 0
M  V30 13 C 10.886031 8.883389 -6.800219 0
M  V30 14 C 11.286389 9.845744 -5.850870 0
M  V30 15 C 11.686022 9.441614 -4.562413 0
M  V30 16 C 11.686022 8.077607 -4.224638 0
M  V30 17 Br 12.157006 7.533075 -2.468247 0
M  V30 18 C 11.286021 7.116551 -5.169671 0
M  V30 19 H 5.609353 4.645963 -11.846858 0
M  V30 20 H 6.011708 6.187193 -12.632079 0
M  V30 21 H 5.360209 4.850535 -13.591053 0
M  V30 22 H 9.237009 2.582412 -14.466862 0
M  V30 23 H 10.596031 4.294018 -12.773749 0
M  V30 24 H 9.678806 6.498459 -11.357105 0
M  V30 25 H 8.086020 7.020099 -11.828702 0
M  V30 26 H 7.467060 6.533889 -9.860389 0
M  V30 27 H 8.541244 4.919549 -8.309210 0
M  V30 28 H 9.869358 4.880490 -9.450920 0
M  V30 29 H 10.099357 7.405774 -9.191360 0
M  V30 30 H 8.753742 7.393831 -8.058137 0
M  V30 31 H 10.467092 5.570540 -6.977201 0
M  V30 32 H 10.589003 9.212396 -7.784841 0
M  V30 33 H 11.286219 10.894138 -6.111381 0
M  V30 34 H 11.981175 10.172318 -3.824587 0
M  V30 35 H 11.282773 6.073285 -4.889706 0
M  V30 36 H 7.497883 4.959370 -10.276281 0
M  V30 END ATOM
M  V30 BEGIN BOND
M  V30 1 1 2 1
M  V30 2 1 3 2
M  V30 3 2 4 3
M  V30 4 1 5 4
M  V30 5 1 6 2
M  V30 6 2 6 5
M  V30 7 1 7 6
M  V30 8 1 8 7
M  V30 9 1 9 8
M  V30 10 1 10 9
M  V30 11 1 11 10
M  V30 12 1 12 11
M  V30 13 2 13 12
M  V30 14 1 14 13
M  V30 15 2 15 14
M  V30 16 1 16 15
M  V30 17 1 17 16
M  V30 18 1 18 12
M  V30 19 2 18 16
M  V30 20 1 19 1
M  V30 21 1 20 1
M  V30 22 1 21 1
M  V30 23 1 22 4
M  V30 24 1 23 5
M  V30 25 1 24 7
M  V30 26 1 25 7
M  V30 27 1 26 8
M  V30 28 1 27 9
M  V30 29 1 28 9
M  V30 30 1 29 10
M  V30 31 1 30 10
M  V30 32 1 31 11
M  V30 33 1 32 13
M  V30 34 1 33 14
M  V30 35 1 34 15
M  V30 36 1 35 18
M  V30 37 1 36 8
M  V30 END BOND
M  V30 END CTAB
M  END
>  <b_m_subgroup_collapsed>  (1067) 
0

>  <r_i_docking_score>  (1067) 
-7.5223306358182001

>  <s_m_subgroup_title>  (1067) 
glide-dock_SP_D22_pv

>  <s_m_subgroupid>  (1067) 
glide-dock_SP_D22_pv

>  <Molecule ChEMBL ID>  (1067) 
CHEMBL4998385

>  <Standard Type>  (1067) 
Ki

>  <Standard Value>  (1067) 
10000.0

>  <label>  (1067) 
0

$$$$
CHEMBL5903085
     RDKit          3D

  0  0  0  0  0  0  0  0  0  0999 V3000
M  V30 BEGIN CTAB
M  V30 COUNTS 51 53 0 0 1
M  V30 BEGIN ATOM
M  V30 1 C 5.680148 4.383402 -12.845068 0
M  V30 2 C 6.946205 5.166110 -12.457787 0 CFG=2
M  V30 3 O 6.703750 6.549970 -12.646660 0
M  V30 4 C 8.211058 4.694483 -13.224027 0
M  V30 5 O 8.086323 3.820803 -14.083137 0
M  V30 6 N 9.442230 5.182995 -12.918647 0
M  V30 7 C 10.625347 4.607399 -13.571293 0
M  V30 8 C 10.769329 5.033688 -14.973806 0
M  V30 9 N 10.885615 5.370425 -16.074404 0
M  V30 10 C 9.710340 6.333121 -12.042033 0
M  V30 11 C 9.663444 5.966876 -10.547703 0
M  V30 12 N 9.672312 7.171623 -9.688353 0 CFG=1 CHG=1
M  V30 13 C 8.922256 6.936772 -8.434115 0
M  V30 14 C 8.835917 8.223515 -7.587404 0
M  V30 15 C 10.229171 8.798969 -7.281303 0 CFG=1
M  V30 16 C 10.935050 8.004021 -6.209416 0
M  V30 17 N 11.161014 6.699425 -6.339386 0
M  V30 18 O 11.686357 6.226924 -5.109699 0
M  V30 19 C 11.864405 7.288975 -4.246409 0
M  V30 20 C 12.383135 7.352602 -2.949273 0
M  V30 21 C 12.462999 8.622953 -2.349363 0
M  V30 22 F 12.963727 8.743324 -1.100815 0
M  V30 23 C 12.016953 9.772038 -3.045327 0
M  V30 24 C 11.468040 9.678143 -4.341361 0
M  V30 25 C 11.408853 8.408279 -4.947213 0
M  V30 26 C 11.020540 8.982874 -8.590137 0
M  V30 27 C 11.041100 7.712057 -9.453837 0
M  V30 28 H 5.853179 3.306449 -12.834384 0
M  V30 29 H 4.886205 4.571967 -12.125461 0
M  V30 30 H 5.319638 4.656276 -13.837679 0
M  V30 31 H 7.087547 4.980893 -11.398981 0
M  V30 32 H 6.453551 6.934152 -11.805524 0
M  V30 33 H 11.545980 4.873334 -13.054574 0
M  V30 34 H 10.585002 3.515634 -13.552067 0
M  V30 35 H 10.688203 6.751561 -12.283361 0
M  V30 36 H 9.023281 7.147139 -12.261645 0
M  V30 37 H 8.780857 5.377590 -10.326587 0
M  V30 38 H 10.485913 5.316396 -10.264066 0
M  V30 39 H 7.934796 6.571718 -8.689909 0
M  V30 40 H 9.366186 6.109184 -7.888179 0
M  V30 41 H 8.280219 8.038337 -6.665906 0
M  V30 42 H 8.260706 8.970171 -8.136474 0
M  V30 43 H 10.085502 9.795509 -6.871241 0
M  V30 44 H 12.718114 6.463125 -2.436662 0
M  V30 45 H 12.085196 10.738873 -2.570464 0
M  V30 46 H 11.122457 10.561945 -4.858817 0
M  V30 47 H 12.031565 9.337481 -8.382056 0
M  V30 48 H 10.549705 9.771514 -9.177792 0
M  V30 49 H 11.662931 6.964905 -8.967777 0
M  V30 50 H 11.518489 7.937816 -10.407458 0
M  V30 51 H 9.132920 7.872936 -10.180134 0
M  V30 END ATOM
M  V30 BEGIN BOND
M  V30 1 1 2 1
M  V30 2 1 3 2
M  V30 3 1 4 2
M  V30 4 2 5 4
M  V30 5 1 6 4
M  V30 6 1 7 6
M  V30 7 1 8 7
M  V30 8 3 9 8
M  V30 9 1 10 6
M  V30 10 1 11 10
M  V30 11 1 12 11
M  V30 12 1 13 12
M  V30 13 1 14 13
M  V30 14 1 15 14
M  V30 15 1 16 15
M  V30 16 2 17 16
M  V30 17 1 18 17
M  V30 18 1 19 18
M  V30 19 1 20 19
M  V30 20 2 21 20
M  V30 21 1 22 21
M  V30 22 1 23 21
M  V30 23 2 24 23
M  V30 24 1 25 16
M  V30 25 2 25 19
M  V30 26 1 25 24
M  V30 27 1 26 15
M  V30 28 1 27 12
M  V30 29 1 27 26
M  V30 30 1 28 1
M  V30 31 1 29 1
M  V30 32 1 30 1
M  V30 33 1 2 31 CFG=1
M  V30 34 1 32 3
M  V30 35 1 33 7
M  V30 36 1 34 7
M  V30 37 1 35 10
M  V30 38 1 36 10
M  V30 39 1 37 11
M  V30 40 1 38 11
M  V30 41 1 39 13
M  V30 42 1 40 13
M  V30 43 1 41 14
M  V30 44 1 42 14
M  V30 45 1 15 43 CFG=1
M  V30 46 1 44 20
M  V30 47 1 45 23
M  V30 48 1 46 24
M  V30 49 1 47 26
M  V30 50 1 48 26
M  V30 51 1 49 27
M  V30 52 1 50 27
M  V30 53 1 12 51 CFG=3
M  V30 END BOND
M  V30 END CTAB
M  END
>  <b_m_subgroup_collapsed>  (1068) 
0

>  <r_i_docking_score>  (1068) 
-7.5218309487240296

>  <s_m_subgroup_title>  (1068) 
glide-dock_SP_D22_pv

>  <s_m_subgroupid>  (1068) 
glide-dock_SP_D22_pv

>  <Molecule ChEMBL ID>  (1068) 
CHEMBL5903085

>  <Standard Type>  (1068) 
Ki

>  <Standard Value>  (1068) 
10000.0

>  <label>  (1068) 
0

$$$$
CHEMBL325772
     RDKit          3D

  0  0  0  0  0  0  0  0  0  0999 V3000
M  V30 BEGIN CTAB
M  V30 COUNTS 52 55 0 0 1
M  V30 BEGIN ATOM
M  V30 1 C 12.317948 4.178843 -13.995103 0
M  V30 2 O 11.232086 4.930519 -14.518147 0
M  V30 3 C 9.987625 4.584246 -14.043423 0
M  V30 4 C 9.358811 5.340456 -13.010434 0
M  V30 5 C 10.073917 6.472338 -12.296450 0
M  V30 6 O 11.184422 6.867050 -12.651673 0
M  V30 7 N 9.445209 6.994355 -11.231002 0
M  V30 8 C 9.987102 7.968121 -10.289876 0 CFG=2
M  V30 9 C 11.453444 7.754334 -9.881255 0
M  V30 10 C 11.509313 8.326064 -8.476415 0
M  V30 11 N 10.214134 7.942618 -7.884850 0 CFG=1 CHG=1
M  V30 12 C 9.815602 8.718275 -6.698408 0
M  V30 13 C 10.742621 8.471772 -5.522426 0
M  V30 14 C 11.327760 9.560701 -4.840607 0
M  V30 15 C 12.085280 9.337035 -3.674124 0
M  V30 16 C 12.267227 8.027248 -3.191930 0
M  V30 17 C 11.696387 6.939049 -3.879163 0
M  V30 18 C 10.943041 7.157215 -5.047366 0
M  V30 19 C 9.205593 7.901343 -8.966879 0
M  V30 20 C 8.026259 5.012160 -12.655200 0
M  V30 21 C 7.340426 3.947176 -13.262022 0
M  V30 22 I 5.365431 3.586658 -12.654767 0
M  V30 23 C 7.982610 3.164470 -14.246909 0
M  V30 24 C 7.325586 2.063610 -14.846133 0
M  V30 25 C 7.962286 1.306206 -15.845398 0
M  V30 26 C 9.256665 1.652046 -16.267124 0
M  V30 27 C 9.918179 2.745156 -15.678643 0
M  V30 28 C 9.301856 3.499422 -14.651603 0
M  V30 29 H 13.158127 4.234534 -14.686895 0
M  V30 30 H 12.649627 4.594075 -13.046721 0
M  V30 31 H 12.079673 3.125836 -13.849179 0
M  V30 32 H 8.505272 6.673500 -11.040433 0
M  V30 33 H 9.877894 8.969848 -10.714076 0
M  V30 34 H 12.162626 8.238024 -10.555993 0
M  V30 35 H 11.685316 6.689478 -9.846048 0
M  V30 36 H 11.592160 9.414020 -8.524127 0
M  V30 37 H 12.353888 7.945193 -7.901671 0
M  V30 38 H 8.798828 8.450724 -6.404458 0
M  V30 39 H 9.813137 9.771941 -6.967859 0
M  V30 40 H 11.171507 10.572754 -5.186128 0
M  V30 41 H 12.513760 10.169084 -3.135022 0
M  V30 42 H 12.841405 7.858766 -2.292760 0
M  V30 43 H 11.831050 5.933716 -3.506082 0
M  V30 44 H 10.486586 6.312796 -5.542616 0
M  V30 45 H 8.598452 6.998078 -8.866596 0
M  V30 46 H 8.521529 8.750037 -8.902496 0
M  V30 47 H 7.489225 5.570908 -11.902742 0
M  V30 48 H 6.327441 1.777813 -14.553888 0
M  V30 49 H 7.454821 0.463793 -16.292667 0
M  V30 50 H 9.744081 1.078475 -17.041475 0
M  V30 51 H 10.911695 2.989224 -16.023634 0
M  V30 52 H 10.316183 6.984129 -7.583856 0
M  V30 END ATOM
M  V30 BEGIN BOND
M  V30 1 1 2 1
M  V30 2 1 3 2
M  V30 3 2 4 3
M  V30 4 1 5 4
M  V30 5 2 6 5
M  V30 6 1 7 5
M  V30 7 1 8 7
M  V30 8 1 9 8
M  V30 9 1 10 9
M  V30 10 1 11 10
M  V30 11 1 12 11
M  V30 12 1 13 12
M  V30 13 2 14 13
M  V30 14 1 15 14
M  V30 15 2 16 15
M  V30 16 1 17 16
M  V30 17 1 18 13
M  V30 18 2 18 17
M  V30 19 1 19 8
M  V30 20 1 19 11
M  V30 21 1 20 4
M  V30 22 2 21 20
M  V30 23 1 22 21
M  V30 24 1 23 21
M  V30 25 2 24 23
M  V30 26 1 25 24
M  V30 27 2 26 25
M  V30 28 1 27 26
M  V30 29 1 28 3
M  V30 30 1 28 23
M  V30 31 2 28 27
M  V30 32 1 29 1
M  V30 33 1 30 1
M  V30 34 1 31 1
M  V30 35 1 32 7
M  V30 36 1 8 33 CFG=3
M  V30 37 1 34 9
M  V30 38 1 35 9
M  V30 39 1 36 10
M  V30 40 1 37 10
M  V30 41 1 38 12
M  V30 42 1 39 12
M  V30 43 1 40 14
M  V30 44 1 41 15
M  V30 45 1 42 16
M  V30 46 1 43 17
M  V30 47 1 44 18
M  V30 48 1 45 19
M  V30 49 1 46 19
M  V30 50 1 47 20
M  V30 51 1 48 24
M  V30 52 1 49 25
M  V30 53 1 50 26
M  V30 54 1 51 27
M  V30 55 1 11 52 CFG=1
M  V30 END BOND
M  V30 END CTAB
M  END
>  <b_m_subgroup_collapsed>  (1069) 
0

>  <r_i_docking_score>  (1069) 
-7.5209166894980699

>  <s_m_subgroup_title>  (1069) 
glide-dock_SP_D22_pv

>  <s_m_subgroupid>  (1069) 
glide-dock_SP_D22_pv

>  <Molecule ChEMBL ID>  (1069) 
CHEMBL325772

>  <Standard Type>  (1069) 
Ki

>  <Standard Value>  (1069) 
70.0

>  <label>  (1069) 
1

$$$$
CHEMBL5722960
     RDKit          3D

  0  0  0  0  0  0  0  0  0  0999 V3000
M  V30 BEGIN CTAB
M  V30 COUNTS 38 40 0 0 1
M  V30 BEGIN ATOM
M  V30 1 C 12.301517 8.298872 -10.686749 0
M  V30 2 C 11.578928 7.372381 -11.617814 0
M  V30 3 C 12.085797 6.974660 -12.893014 0
M  V30 4 C 11.274719 6.092777 -13.550864 0
M  V30 5 S 9.822298 5.772539 -12.646779 0
M  V30 6 C 10.361732 6.799202 -11.336672 0
M  V30 7 C 9.540185 6.975898 -10.097098 0
M  V30 8 N 9.786802 5.981006 -9.046613 0
M  V30 9 C 9.214135 4.696481 -9.439917 0
M  V30 10 C 9.130132 6.406714 -7.811758 0
M  V30 11 C 10.033402 7.261217 -6.938677 0
M  V30 12 C 10.107059 8.603557 -7.047322 0
M  V30 13 C 10.887280 9.378001 -6.086780 0
M  V30 14 O 11.120857 10.572689 -6.246637 0
M  V30 15 N 11.309332 8.691362 -4.985699 0
M  V30 16 C 11.800521 9.417542 -3.875609 0
M  V30 17 C 12.320611 8.816017 -2.795069 0
M  V30 18 C 12.412039 7.378571 -2.785631 0
M  V30 19 C 11.931053 6.652727 -3.811543 0
M  V30 20 C 11.286043 7.265681 -4.959149 0
M  V30 21 N 10.706656 6.603590 -5.908984 0
M  V30 22 H 13.284582 8.571601 -11.070862 0
M  V30 23 H 11.743298 9.223795 -10.538545 0
M  V30 24 H 12.447006 7.841164 -9.708031 0
M  V30 25 H 13.032211 7.333066 -13.271957 0
M  V30 26 H 11.428596 5.632401 -14.515746 0
M  V30 27 H 9.736252 7.971757 -9.704838 0
M  V30 28 H 8.485927 6.972191 -10.364637 0
M  V30 29 H 9.712957 4.292317 -10.319228 0
M  V30 30 H 9.341472 3.959568 -8.646641 0
M  V30 31 H 8.147703 4.781439 -9.655498 0
M  V30 32 H 8.197033 6.929774 -8.021143 0
M  V30 33 H 8.849870 5.540125 -7.214075 0
M  V30 34 H 9.547878 9.120810 -7.812776 0
M  V30 35 H 11.685334 10.491200 -3.919938 0
M  V30 36 H 12.662011 9.396441 -1.949448 0
M  V30 37 H 12.883852 6.875743 -1.954216 0
M  V30 38 H 12.045211 5.587653 -3.749066 0
M  V30 END ATOM
M  V30 BEGIN BOND
M  V30 1 1 2 1
M  V30 2 1 3 2
M  V30 3 2 4 3
M  V30 4 1 5 4
M  V30 5 2 6 2
M  V30 6 1 6 5
M  V30 7 1 7 6
M  V30 8 1 8 7
M  V30 9 1 9 8
M  V30 10 1 10 8
M  V30 11 1 11 10
M  V30 12 2 12 11
M  V30 13 1 13 12
M  V30 14 2 14 13
M  V30 15 1 15 13
M  V30 16 1 16 15
M  V30 17 2 17 16
M  V30 18 1 18 17
M  V30 19 2 19 18
M  V30 20 1 20 15
M  V30 21 1 20 19
M  V30 22 1 21 11
M  V30 23 2 21 20
M  V30 24 1 22 1
M  V30 25 1 23 1
M  V30 26 1 24 1
M  V30 27 1 25 3
M  V30 28 1 26 4
M  V30 29 1 27 7
M  V30 30 1 28 7
M  V30 31 1 29 9
M  V30 32 1 30 9
M  V30 33 1 31 9
M  V30 34 1 32 10
M  V30 35 1 33 10
M  V30 36 1 34 12
M  V30 37 1 35 16
M  V30 38 1 36 17
M  V30 39 1 37 18
M  V30 40 1 38 19
M  V30 END BOND
M  V30 END CTAB
M  END
>  <b_m_subgroup_collapsed>  (1070) 
0

>  <r_i_docking_score>  (1070) 
-7.5207308774596697

>  <s_m_subgroup_title>  (1070) 
glide-dock_SP_D22_pv

>  <s_m_subgroupid>  (1070) 
glide-dock_SP_D22_pv

>  <Molecule ChEMBL ID>  (1070) 
CHEMBL5722960

>  <Standard Type>  (1070) 
Ki

>  <Standard Value>  (1070) 
10000.0

>  <label>  (1070) 
0

$$$$
CHEMBL5828332
     RDKit          3D

  0  0  0  0  0  0  0  0  0  0999 V3000
M  V30 BEGIN CTAB
M  V30 COUNTS 64 67 0 0 1
M  V30 BEGIN ATOM
M  V30 1 C 10.384152 5.012723 -13.437916 0
M  V30 2 C 8.936241 4.790938 -12.916803 0 CFG=1
M  V30 3 C 8.184932 3.772885 -13.826136 0
M  V30 4 O 6.954849 3.771165 -13.851844 0
M  V30 5 N 8.922236 2.919798 -14.564857 0
M  V30 6 C 8.469040 2.061466 -15.668765 0 CFG=1
M  V30 7 C 9.659321 1.497675 -16.460497 0
M  V30 8 C 10.792443 2.311305 -16.705103 0
M  V30 9 C 11.880021 1.823385 -17.457298 0
M  V30 10 C 11.844714 0.519817 -17.984116 0
M  V30 11 F 12.886521 0.050678 -18.712524 0
M  V30 12 C 10.724771 -0.298228 -17.753601 0
M  V30 13 C 9.640886 0.185501 -16.997395 0
M  V30 14 C 7.442556 0.999939 -15.268544 0
M  V30 15 C 7.528636 0.321038 -14.039237 0
M  V30 16 C 6.549123 -0.634622 -13.720695 0
M  V30 17 C 5.544391 -0.918011 -14.664172 0
M  V30 18 C 5.570299 -0.226768 -15.889098 0
M  V30 19 N 6.486054 0.721521 -16.183977 0
M  V30 20 C 8.939987 4.245546 -11.476467 0
M  V30 21 C 9.426917 5.235849 -10.401284 0
M  V30 22 N 8.790933 6.572141 -10.474561 0 CFG=1 CHG=1
M  V30 23 C 9.315892 7.529561 -9.460211 0
M  V30 24 C 8.869150 7.176375 -8.024544 0
M  V30 25 O 9.944557 6.665330 -7.239548 0
M  V30 26 C 10.575278 7.528918 -6.368092 0
M  V30 27 C 10.659866 8.929280 -6.567185 0
M  V30 28 C 11.288370 9.750790 -5.608843 0
M  V30 29 C 11.838157 9.183269 -4.443248 0
M  V30 30 C 11.779559 7.792363 -4.247689 0
M  V30 31 C 11.162125 6.972383 -5.212471 0
M  V30 32 C 8.762606 7.135659 -11.849023 0
M  V30 33 C 8.158290 6.132083 -12.855167 0
M  V30 34 H 10.936832 5.741693 -12.850368 0
M  V30 35 H 10.975289 4.096502 -13.402137 0
M  V30 36 H 10.384594 5.371148 -14.468607 0
M  V30 37 H 9.921210 2.942254 -14.422156 0
M  V30 38 H 7.966249 2.722199 -16.374178 0
M  V30 39 H 10.833399 3.323881 -16.334707 0
M  V30 40 H 12.739730 2.451006 -17.635786 0
M  V30 41 H 10.694571 -1.299657 -18.160070 0
M  V30 42 H 8.798981 -0.473592 -16.849504 0
M  V30 43 H 8.340571 0.533058 -13.364183 0
M  V30 44 H 6.584244 -1.164137 -12.779765 0
M  V30 45 H 4.790496 -1.665527 -14.470535 0
M  V30 46 H 4.819464 -0.421838 -16.642832 0
M  V30 47 H 7.934573 3.913645 -11.209047 0
M  V30 48 H 9.592138 3.372835 -11.446810 0
M  V30 49 H 10.485245 5.394646 -10.501771 0
M  V30 50 H 9.274359 4.800163 -9.414701 0
M  V30 51 H 10.401394 7.616389 -9.528100 0
M  V30 52 H 8.911711 8.515985 -9.689758 0
M  V30 53 H 8.399930 8.035543 -7.543808 0
M  V30 54 H 8.086613 6.415448 -8.043103 0
M  V30 55 H 10.250107 9.389196 -7.452901 0
M  V30 56 H 11.343889 10.818624 -5.766514 0
M  V30 57 H 12.309306 9.812988 -3.701464 0
M  V30 58 H 12.203896 7.353806 -3.356661 0
M  V30 59 H 11.114766 5.906531 -5.046021 0
M  V30 60 H 9.759838 7.454050 -12.149362 0
M  V30 61 H 8.145356 8.035649 -11.847072 0
M  V30 62 H 8.086237 6.571612 -13.847137 0
M  V30 63 H 7.125446 5.951066 -12.551007 0
M  V30 64 H 7.805403 6.473004 -10.246474 0
M  V30 END ATOM
M  V30 BEGIN BOND
M  V30 1 1 2 1 CFG=3
M  V30 2 1 3 2
M  V30 3 2 4 3
M  V30 4 1 5 3
M  V30 5 1 6 5
M  V30 6 1 7 6
M  V30 7 1 8 7
M  V30 8 2 9 8
M  V30 9 1 10 9
M  V30 10 1 11 10
M  V30 11 2 12 10
M  V30 12 2 13 7
M  V30 13 1 13 12
M  V30 14 1 14 6
M  V30 15 2 15 14
M  V30 16 1 16 15
M  V30 17 2 17 16
M  V30 18 1 18 17
M  V30 19 1 19 14
M  V30 20 2 19 18
M  V30 21 1 20 2
M  V30 22 1 21 20
M  V30 23 1 22 21
M  V30 24 1 23 22
M  V30 25 1 24 23
M  V30 26 1 25 24
M  V30 27 1 26 25
M  V30 28 2 27 26
M  V30 29 1 28 27
M  V30 30 2 29 28
M  V30 31 1 30 29
M  V30 32 1 31 26
M  V30 33 2 31 30
M  V30 34 1 32 22
M  V30 35 1 33 2
M  V30 36 1 33 32
M  V30 37 1 34 1
M  V30 38 1 35 1
M  V30 39 1 36 1
M  V30 40 1 37 5
M  V30 41 1 6 38 CFG=3
M  V30 42 1 39 8
M  V30 43 1 40 9
M  V30 44 1 41 12
M  V30 45 1 42 13
M  V30 46 1 43 15
M  V30 47 1 44 16
M  V30 48 1 45 17
M  V30 49 1 46 18
M  V30 50 1 47 20
M  V30 51 1 48 20
M  V30 52 1 49 21
M  V30 53 1 50 21
M  V30 54 1 51 23
M  V30 55 1 52 23
M  V30 56 1 53 24
M  V30 57 1 54 24
M  V30 58 1 55 27
M  V30 59 1 56 28
M  V30 60 1 57 29
M  V30 61 1 58 30
M  V30 62 1 59 31
M  V30 63 1 60 32
M  V30 64 1 61 32
M  V30 65 1 62 33
M  V30 66 1 63 33
M  V30 67 1 22 64 CFG=1
M  V30 END BOND
M  V30 END CTAB
M  END
>  <b_m_subgroup_collapsed>  (1071) 
0

>  <r_i_docking_score>  (1071) 
-7.5190901686814602

>  <s_m_subgroup_title>  (1071) 
glide-dock_SP_D22_pv

>  <s_m_subgroupid>  (1071) 
glide-dock_SP_D22_pv

>  <Molecule ChEMBL ID>  (1071) 
CHEMBL5828332

>  <Standard Type>  (1071) 
Ki

>  <Standard Value>  (1071) 
55.0

>  <label>  (1071) 
1

$$$$
CHEMBL19215
     RDKit          3D

  0  0  0  0  0  0  0  0  0  0999 V3000
M  V30 BEGIN CTAB
M  V30 COUNTS 60 64 0 0 1
M  V30 BEGIN ATOM
M  V30 1 C 12.484612 6.077045 -13.588694 0
M  V30 2 N 11.067262 6.323160 -13.235352 0 CFG=2 CHG=1
M  V30 3 C 10.917462 7.132582 -11.996703 0
M  V30 4 C 9.469390 7.613609 -11.807353 0 CFG=2
M  V30 5 C 9.306005 8.495225 -10.549350 0
M  V30 6 N 9.286028 7.747732 -9.296532 0
M  V30 7 C 10.414894 7.503426 -8.535492 0
M  V30 8 O 11.577315 7.772395 -8.849412 0
M  V30 9 O 10.043626 6.949593 -7.371803 0
M  V30 10 C 11.019604 6.647332 -6.379756 0
M  V30 11 C 11.264352 7.760692 -5.371692 0
M  V30 12 C 11.711508 7.418797 -4.078428 0
M  V30 13 C 11.952151 8.421667 -3.117728 0
M  V30 14 C 11.719663 9.772183 -3.443022 0
M  V30 15 C 11.277901 10.119732 -4.732869 0
M  V30 16 C 11.058248 9.120368 -5.694994 0
M  V30 17 C 8.489395 6.423261 -11.857188 0
M  V30 18 C 8.698217 5.562225 -13.118585 0 CFG=2
M  V30 19 C 7.692512 4.419727 -13.221935 0
M  V30 20 C 6.375831 4.356882 -12.719287 0
M  V30 21 C 5.580938 3.234230 -13.010657 0
M  V30 22 C 6.109438 2.188956 -13.792418 0
M  V30 23 C 7.405732 2.250226 -14.282125 0
M  V30 24 C 8.191550 3.360710 -14.006134 0
M  V30 25 C 9.417413 3.103032 -14.657366 0
M  V30 26 C 9.390601 1.887677 -15.284797 0
M  V30 27 N 8.124336 1.369498 -15.052370 0
M  V30 28 C 7.598803 0.109515 -15.535434 0
M  V30 29 C 10.394417 4.234975 -14.508276 0
M  V30 30 C 10.182168 5.119640 -13.248093 0 CFG=1
M  V30 31 H 12.885823 5.249375 -13.012226 0
M  V30 32 H 13.087752 6.972239 -13.422313 0
M  V30 33 H 12.585570 5.827967 -14.643845 0
M  V30 34 H 11.235300 6.572331 -11.124939 0
M  V30 35 H 11.582031 7.994403 -12.030963 0
M  V30 36 H 9.231763 8.266376 -12.646591 0
M  V30 37 H 10.093965 9.247045 -10.506961 0
M  V30 38 H 8.376091 9.058121 -10.615876 0
M  V30 39 H 8.390149 7.472955 -8.909722 0
M  V30 40 H 10.657576 5.787584 -5.823112 0
M  V30 41 H 11.968107 6.346253 -6.829831 0
M  V30 42 H 11.874751 6.381176 -3.817748 0
M  V30 43 H 12.293609 8.156249 -2.128731 0
M  V30 44 H 11.889585 10.538455 -2.698636 0
M  V30 45 H 11.104247 11.153730 -4.990592 0
M  V30 46 H 10.720432 9.420657 -6.674255 0
M  V30 47 H 8.595259 5.798501 -10.969899 0
M  V30 48 H 7.471506 6.812636 -11.846864 0
M  V30 49 H 8.468173 6.172414 -13.988400 0
M  V30 50 H 5.967113 5.161405 -12.124828 0
M  V30 51 H 4.567449 3.176238 -12.645658 0
M  V30 52 H 5.491482 1.329719 -14.010390 0
M  V30 53 H 10.134457 1.369328 -15.870725 0
M  V30 54 H 8.315735 -0.362893 -16.208246 0
M  V30 55 H 6.667811 0.277299 -16.079115 0
M  V30 56 H 7.409126 -0.559240 -14.694654 0
M  V30 57 H 11.400469 3.815021 -14.502049 0
M  V30 58 H 10.335539 4.860901 -15.399776 0
M  V30 59 H 10.428292 4.510758 -12.378458 0
M  V30 60 H 10.724730 6.915564 -13.977411 0
M  V30 END ATOM
M  V30 BEGIN BOND
M  V30 1 1 2 1
M  V30 2 1 3 2
M  V30 3 1 4 3
M  V30 4 1 5 4
M  V30 5 1 6 5
M  V30 6 1 7 6
M  V30 7 2 8 7
M  V30 8 1 9 7
M  V30 9 1 10 9
M  V30 10 1 11 10
M  V30 11 2 12 11
M  V30 12 1 13 12
M  V30 13 2 14 13
M  V30 14 1 15 14
M  V30 15 1 16 11
M  V30 16 2 16 15
M  V30 17 1 17 4
M  V30 18 1 18 17
M  V30 19 1 19 18
M  V30 20 1 20 19
M  V30 21 2 21 20
M  V30 22 1 22 21
M  V30 23 2 23 22
M  V30 24 2 24 19
M  V30 25 1 24 23
M  V30 26 1 25 24
M  V30 27 2 26 25
M  V30 28 1 27 23
M  V30 29 1 27 26
M  V30 30 1 28 27
M  V30 31 1 29 25
M  V30 32 1 30 2
M  V30 33 1 30 18
M  V30 34 1 30 29
M  V30 35 1 31 1
M  V30 36 1 32 1
M  V30 37 1 33 1
M  V30 38 1 34 3
M  V30 39 1 35 3
M  V30 40 1 4 36 CFG=3
M  V30 41 1 37 5
M  V30 42 1 38 5
M  V30 43 1 39 6
M  V30 44 1 40 10
M  V30 45 1 41 10
M  V30 46 1 42 12
M  V30 47 1 43 13
M  V30 48 1 44 14
M  V30 49 1 45 15
M  V30 50 1 46 16
M  V30 51 1 47 17
M  V30 52 1 48 17
M  V30 53 1 18 49 CFG=3
M  V30 54 1 50 20
M  V30 55 1 51 21
M  V30 56 1 52 22
M  V30 57 1 53 26
M  V30 58 1 54 28
M  V30 59 1 55 28
M  V30 60 1 56 28
M  V30 61 1 57 29
M  V30 62 1 58 29
M  V30 63 1 30 59 CFG=1
M  V30 64 1 2 60 CFG=3
M  V30 END BOND
M  V30 END CTAB
M  END
>  <b_m_subgroup_collapsed>  (1072) 
0

>  <r_i_docking_score>  (1072) 
-7.5167276889589303

>  <s_m_subgroup_title>  (1072) 
glide-dock_SP_D22_pv

>  <s_m_subgroupid>  (1072) 
glide-dock_SP_D22_pv

>  <Molecule ChEMBL ID>  (1072) 
CHEMBL19215

>  <Standard Type>  (1072) 
Ki

>  <Standard Value>  (1072) 
21.0

>  <label>  (1072) 
1

$$$$
CHEMBL381912
     RDKit          3D

  0  0  0  0  0  0  0  0  0  0999 V3000
M  V30 BEGIN CTAB
M  V30 COUNTS 46 50 0 0 1
M  V30 BEGIN ATOM
M  V30 1 C 12.087669 4.570641 -14.696097 0
M  V30 2 C 12.180838 5.888503 -14.214808 0
M  V30 3 C 11.285836 6.347368 -13.229777 0
M  V30 4 C 10.275075 5.496170 -12.723055 0
M  V30 5 C 9.248709 5.978590 -11.697589 0 CFG=2
M  V30 6 C 8.354291 7.108312 -12.246875 0
M  V30 7 C 8.859264 8.532533 -11.942109 0
M  V30 8 C 9.306314 8.664395 -10.484150 0
M  V30 9 C 10.364443 7.631411 -10.127113 0 CFG=1
M  V30 10 C 10.775470 7.854476 -8.706385 0
M  V30 11 N 11.448155 8.966305 -8.225766 0
M  V30 12 C 11.580293 8.889057 -6.850031 0
M  V30 13 C 12.141296 9.759059 -5.897717 0
M  V30 14 C 12.192543 9.365780 -4.546835 0
M  V30 15 C 11.686055 8.110094 -4.163677 0
M  V30 16 C 11.090446 7.259748 -5.117831 0
M  V30 17 C 11.007753 7.635169 -6.478244 0
M  V30 18 C 10.455863 7.044273 -7.663131 0
M  V30 19 C 9.695642 5.785647 -7.871352 0
M  V30 20 C 8.946347 5.790096 -9.218530 0
M  V30 21 N 9.827765 6.242587 -10.337682 0 CFG=1 CHG=1
M  V30 22 C 10.188909 4.173119 -13.217551 0
M  V30 23 C 11.088646 3.714100 -14.199338 0
M  V30 24 H 12.779522 4.217412 -15.447046 0
M  V30 25 H 12.947152 6.547591 -14.598199 0
M  V30 26 H 11.377800 7.367033 -12.895732 0
M  V30 27 H 8.576129 5.127120 -11.583468 0
M  V30 28 H 8.183778 6.971037 -13.314401 0
M  V30 29 H 7.353573 6.977004 -11.846905 0
M  V30 30 H 9.682799 8.786695 -12.605993 0
M  V30 31 H 8.068653 9.253601 -12.152839 0
M  V30 32 H 9.669966 9.659706 -10.246686 0
M  V30 33 H 8.484977 8.548461 -9.795815 0
M  V30 34 H 11.238397 7.772261 -10.760053 0
M  V30 35 H 11.785635 9.713852 -8.816607 0
M  V30 36 H 12.559062 10.705908 -6.205536 0
M  V30 37 H 12.635004 10.010868 -3.801353 0
M  V30 38 H 11.736904 7.805573 -3.127892 0
M  V30 39 H 10.681904 6.308381 -4.807359 0
M  V30 40 H 10.408160 4.972471 -7.861313 0
M  V30 41 H 8.993354 5.629554 -7.053583 0
M  V30 42 H 8.555390 4.789186 -9.404775 0
M  V30 43 H 8.085896 6.450212 -9.151532 0
M  V30 44 H 9.429046 3.495359 -12.854280 0
M  V30 45 H 11.013503 2.701775 -14.569317 0
M  V30 46 H 10.625259 5.628474 -10.269836 0
M  V30 END ATOM
M  V30 BEGIN BOND
M  V30 1 2 2 1
M  V30 2 1 3 2
M  V30 3 2 4 3
M  V30 4 1 5 4
M  V30 5 1 6 5
M  V30 6 1 7 6
M  V30 7 1 8 7
M  V30 8 1 9 8
M  V30 9 1 10 9
M  V30 10 1 11 10
M  V30 11 1 12 11
M  V30 12 2 13 12
M  V30 13 1 14 13
M  V30 14 2 15 14
M  V30 15 1 16 15
M  V30 16 1 17 12
M  V30 17 2 17 16
M  V30 18 2 18 10
M  V30 19 1 18 17
M  V30 20 1 19 18
M  V30 21 1 20 19
M  V30 22 1 21 5
M  V30 23 1 21 9
M  V30 24 1 21 20
M  V30 25 1 22 4
M  V30 26 1 23 1
M  V30 27 2 23 22
M  V30 28 1 24 1
M  V30 29 1 25 2
M  V30 30 1 26 3
M  V30 31 1 5 27 CFG=1
M  V30 32 1 28 6
M  V30 33 1 29 6
M  V30 34 1 30 7
M  V30 35 1 31 7
M  V30 36 1 32 8
M  V30 37 1 33 8
M  V30 38 1 9 34 CFG=3
M  V30 39 1 35 11
M  V30 40 1 36 13
M  V30 41 1 37 14
M  V30 42 1 38 15
M  V30 43 1 39 16
M  V30 44 1 40 19
M  V30 45 1 41 19
M  V30 46 1 42 20
M  V30 47 1 43 20
M  V30 48 1 44 22
M  V30 49 1 45 23
M  V30 50 1 21 46 CFG=3
M  V30 END BOND
M  V30 END CTAB
M  END
>  <b_m_subgroup_collapsed>  (1073) 
0

>  <r_i_docking_score>  (1073) 
-7.5146133272519302

>  <s_m_subgroup_title>  (1073) 
glide-dock_SP_D22_pv

>  <s_m_subgroupid>  (1073) 
glide-dock_SP_D22_pv

>  <Molecule ChEMBL ID>  (1073) 
CHEMBL381912

>  <Standard Type>  (1073) 
Ki

>  <Standard Value>  (1073) 
10000.0

>  <label>  (1073) 
0

$$$$
CHEMBL457891
     RDKit          3D

  0  0  0  0  0  0  0  0  0  0999 V3000
M  V30 BEGIN CTAB
M  V30 COUNTS 66 69 0 0 1
M  V30 BEGIN ATOM
M  V30 1 C 13.092811 1.854968 -18.700127 0
M  V30 2 O 13.596895 3.155480 -18.431166 0
M  V30 3 C 13.118718 3.812198 -17.317741 0
M  V30 4 C 13.712920 5.051770 -17.002590 0
M  V30 5 C 13.308392 5.779295 -15.867034 0
M  V30 6 C 12.287987 5.279988 -15.040081 0
M  V30 7 C 11.668777 4.051440 -15.349303 0
M  V30 8 C 10.527673 3.551090 -14.484131 0
M  V30 9 C 9.181452 4.074775 -15.009215 0
M  V30 10 C 8.012741 3.806890 -14.074229 0
M  V30 11 C 7.223201 2.651216 -14.248199 0
M  V30 12 C 6.084778 2.447883 -13.446712 0
M  V30 13 C 5.751589 3.380220 -12.446904 0
M  V30 14 C 6.547792 4.523950 -12.248087 0
M  V30 15 C 7.671024 4.748442 -13.074110 0
M  V30 16 O 8.386094 5.913377 -12.971707 0
M  V30 17 C 9.363864 5.930052 -11.943377 0
M  V30 18 C 8.835569 6.663696 -10.706594 0
M  V30 19 N 9.891817 6.686921 -9.702759 0
M  V30 20 C 10.447261 8.034694 -9.553421 0
M  V30 21 C 11.654445 7.981233 -8.596837 0
M  V30 22 N 11.274415 7.369505 -7.323156 0
M  V30 23 C 11.286046 8.074887 -6.111686 0
M  V30 24 C 11.082793 9.470285 -6.082005 0
M  V30 25 C 11.171735 10.171881 -4.870977 0
M  V30 26 C 11.497599 9.498358 -3.680177 0
M  V30 27 C 11.686476 8.102094 -3.686388 0
M  V30 28 C 12.007055 7.359651 -2.397276 0
M  V30 29 F 12.603725 8.174095 -1.525986 0
M  V30 30 F 10.887643 6.887052 -1.847108 0
M  V30 31 F 12.821245 6.336507 -2.646605 0
M  V30 32 C 11.557104 7.395930 -4.899607 0
M  V30 33 C 10.555546 6.107917 -7.430003 0
M  V30 34 C 9.376871 6.243673 -8.407551 0
M  V30 35 C 12.084315 3.320328 -16.481155 0
M  V30 36 H 13.593243 1.450488 -19.579922 0
M  V30 37 H 13.283959 1.175484 -17.866695 0
M  V30 38 H 12.023084 1.875537 -18.913099 0
M  V30 39 H 14.500181 5.439752 -17.631737 0
M  V30 40 H 13.781302 6.722330 -15.631745 0
M  V30 41 H 11.976377 5.846704 -14.173044 0
M  V30 42 H 10.696836 3.885454 -13.460998 0
M  V30 43 H 10.531295 2.458873 -14.451902 0
M  V30 44 H 8.973354 3.628563 -15.982565 0
M  V30 45 H 9.242978 5.149327 -15.183718 0
M  V30 46 H 7.471101 1.931406 -15.013785 0
M  V30 47 H 5.469749 1.570740 -13.593010 0
M  V30 48 H 4.886170 3.214171 -11.827209 0
M  V30 49 H 6.275078 5.236640 -11.479380 0
M  V30 50 H 9.678610 4.919367 -11.672995 0
M  V30 51 H 10.246110 6.440566 -12.331531 0
M  V30 52 H 8.487949 7.665174 -10.968502 0
M  V30 53 H 7.956292 6.143533 -10.325889 0
M  V30 54 H 10.768271 8.414171 -10.524276 0
M  V30 55 H 9.685158 8.719479 -9.176102 0
M  V30 56 H 12.439936 7.372426 -9.047219 0
M  V30 57 H 12.087481 8.972260 -8.463738 0
M  V30 58 H 10.850107 10.014530 -6.985002 0
M  V30 59 H 11.004504 11.237196 -4.863899 0
M  V30 60 H 11.582169 10.057281 -2.760525 0
M  V30 61 H 11.713103 6.325542 -4.903533 0
M  V30 62 H 11.249479 5.348083 -7.782377 0
M  V30 63 H 10.178416 5.772350 -6.465415 0
M  V30 64 H 8.625814 6.939373 -8.027820 0
M  V30 65 H 8.889619 5.273557 -8.513970 0
M  V30 66 H 11.592172 2.382931 -16.690407 0
M  V30 END ATOM
M  V30 BEGIN BOND
M  V30 1 1 2 1
M  V30 2 1 3 2
M  V30 3 2 4 3
M  V30 4 1 5 4
M  V30 5 2 6 5
M  V30 6 1 7 6
M  V30 7 1 8 7
M  V30 8 1 9 8
M  V30 9 1 10 9
M  V30 10 2 11 10
M  V30 11 1 12 11
M  V30 12 2 13 12
M  V30 13 1 14 13
M  V30 14 1 15 10
M  V30 15 2 15 14
M  V30 16 1 16 15
M  V30 17 1 17 16
M  V30 18 1 18 17
M  V30 19 1 19 18
M  V30 20 1 20 19
M  V30 21 1 21 20
M  V30 22 1 22 21
M  V30 23 1 23 22
M  V30 24 1 24 23
M  V30 25 2 25 24
M  V30 26 1 26 25
M  V30 27 2 27 26
M  V30 28 1 28 27
M  V30 29 1 29 28
M  V30 30 1 30 28
M  V30 31 1 31 28
M  V30 32 2 32 23
M  V30 33 1 32 27
M  V30 34 1 33 22
M  V30 35 1 34 19
M  V30 36 1 34 33
M  V30 37 1 35 3
M  V30 38 2 35 7
M  V30 39 1 36 1
M  V30 40 1 37 1
M  V30 41 1 38 1
M  V30 42 1 39 4
M  V30 43 1 40 5
M  V30 44 1 41 6
M  V30 45 1 42 8
M  V30 46 1 43 8
M  V30 47 1 44 9
M  V30 48 1 45 9
M  V30 49 1 46 11
M  V30 50 1 47 12
M  V30 51 1 48 13
M  V30 52 1 49 14
M  V30 53 1 50 17
M  V30 54 1 51 17
M  V30 55 1 52 18
M  V30 56 1 53 18
M  V30 57 1 54 20
M  V30 58 1 55 20
M  V30 59 1 56 21
M  V30 60 1 57 21
M  V30 61 1 58 24
M  V30 62 1 59 25
M  V30 63 1 60 26
M  V30 64 1 61 32
M  V30 65 1 62 33
M  V30 66 1 63 33
M  V30 67 1 64 34
M  V30 68 1 65 34
M  V30 69 1 66 35
M  V30 END BOND
M  V30 END CTAB
M  END
>  <b_m_subgroup_collapsed>  (1074) 
0

>  <r_i_docking_score>  (1074) 
-7.5141014198669902

>  <s_m_subgroup_title>  (1074) 
glide-dock_SP_D22_pv

>  <s_m_subgroupid>  (1074) 
glide-dock_SP_D22_pv

>  <Molecule ChEMBL ID>  (1074) 
CHEMBL457891

>  <Standard Type>  (1074) 
Ki

>  <Standard Value>  (1074) 
1000000.0

>  <label>  (1074) 
0

$$$$
CHEMBL601635
     RDKit          3D

  0  0  0  0  0  0  0  0  0  0999 V3000
M  V30 BEGIN CTAB
M  V30 COUNTS 70 75 0 0 1
M  V30 BEGIN ATOM
M  V30 1 C 9.001460 -0.552846 -17.808512 0
M  V30 2 N 9.089528 0.853049 -17.339155 0 CFG=1 CHG=1
M  V30 3 C 9.172389 1.795761 -18.489511 0
M  V30 4 C 9.099653 3.285242 -18.098650 0
M  V30 5 C 10.065820 3.645269 -16.980696 0
M  V30 6 C 11.117785 4.545031 -17.266397 0
M  V30 7 C 12.068299 4.884330 -16.286030 0
M  V30 8 Cl 13.328619 6.008979 -16.652197 0
M  V30 9 C 11.985179 4.296119 -15.012048 0
M  V30 10 O 12.885393 4.605228 -14.035229 0
M  V30 11 C 10.953134 3.390385 -14.723162 0
M  V30 12 C 9.957463 3.083977 -15.678370 0
M  V30 13 C 8.829047 2.143339 -15.215468 0 CFG=1
M  V30 14 C 7.806324 2.771127 -14.256989 0
M  V30 15 C 8.027785 4.032490 -13.648135 0
M  V30 16 C 7.119144 4.559630 -12.709850 0
M  V30 17 C 7.372759 5.917877 -12.066384 0
M  V30 18 N 8.618210 5.990303 -11.249324 0 CHG=1
M  V30 19 C 9.211958 7.358402 -11.249265 0
M  V30 20 C 10.484453 7.468146 -10.381206 0
M  V30 21 N 10.277607 6.884347 -9.056936 0
M  V30 22 C 10.692978 7.541436 -7.876425 0
M  V30 23 C 10.891499 6.838017 -6.661075 0
M  V30 24 C 11.283446 7.535748 -5.503205 0
M  V30 25 C 11.483003 8.922428 -5.585295 0
M  V30 26 C 11.284061 9.539199 -6.831554 0
M  V30 27 N 10.897386 8.878489 -7.944488 0
M  V30 28 C 9.706882 5.536612 -9.036410 0
M  V30 29 C 8.416749 5.489558 -9.865965 0
M  V30 30 C 5.946395 3.839710 -12.411772 0
M  V30 31 C 5.686422 2.607138 -13.040479 0
M  V30 32 C 6.622076 2.050100 -13.940150 0
M  V30 33 C 6.342871 0.666991 -14.526241 0
M  V30 34 C 7.379029 0.148566 -15.548280 0
M  V30 35 C 8.110796 1.291409 -16.293053 0 CFG=2
M  V30 36 H 8.011794 -0.790688 -18.201288 0
M  V30 37 H 9.723823 -0.736532 -18.605656 0
M  V30 38 H 9.248694 -1.251745 -17.013386 0
M  V30 39 H 8.380120 1.577704 -19.206882 0
M  V30 40 H 10.116392 1.610940 -19.005102 0
M  V30 41 H 8.086316 3.588657 -17.842642 0
M  V30 42 H 9.338293 3.879311 -18.982313 0
M  V30 43 H 11.207346 4.988223 -18.248228 0
M  V30 44 H 13.493068 5.294752 -14.272242 0
M  V30 45 H 10.899362 2.952306 -13.737997 0
M  V30 46 H 9.361006 1.426031 -14.585569 0
M  V30 47 H 8.898946 4.625105 -13.884356 0
M  V30 48 H 7.403662 6.653160 -12.872498 0
M  V30 49 H 6.507477 6.171314 -11.454638 0
M  V30 50 H 9.446647 7.660179 -12.272177 0
M  V30 51 H 8.486185 8.078938 -10.880440 0
M  V30 52 H 11.311677 6.944464 -10.857287 0
M  V30 53 H 10.786304 8.513809 -10.333256 0
M  V30 54 H 10.766266 5.773838 -6.587337 0
M  V30 55 H 11.436736 7.011971 -4.570328 0
M  V30 56 H 11.791332 9.497589 -4.724206 0
M  V30 57 H 11.432395 10.603117 -6.933701 0
M  V30 58 H 10.436211 4.828557 -9.426527 0
M  V30 59 H 9.451362 5.212068 -8.029248 0
M  V30 60 H 7.685375 6.125716 -9.372022 0
M  V30 61 H 8.020794 4.473638 -9.883562 0
M  V30 62 H 5.237778 4.232728 -11.698955 0
M  V30 63 H 4.780970 2.070302 -12.798384 0
M  V30 64 H 5.359303 0.678226 -14.995651 0
M  V30 65 H 6.259173 -0.047204 -13.705962 0
M  V30 66 H 6.869596 -0.534129 -16.229256 0
M  V30 67 H 8.113544 -0.455157 -15.012546 0
M  V30 68 H 7.323795 1.869681 -16.776896 0
M  V30 69 H 9.986672 0.918411 -16.878292 0
M  V30 70 H 9.289093 5.383693 -11.692658 0
M  V30 END ATOM
M  V30 BEGIN BOND
M  V30 1 1 2 1
M  V30 2 1 3 2
M  V30 3 1 4 3
M  V30 4 1 5 4
M  V30 5 1 6 5
M  V30 6 2 7 6
M  V30 7 1 8 7
M  V30 8 1 9 7
M  V30 9 1 10 9
M  V30 10 2 11 9
M  V30 11 2 12 5
M  V30 12 1 12 11
M  V30 13 1 13 12
M  V30 14 1 14 13
M  V30 15 1 15 14
M  V30 16 2 16 15
M  V30 17 1 17 16
M  V30 18 1 18 17
M  V30 19 1 19 18
M  V30 20 1 20 19
M  V30 21 1 21 20
M  V30 22 1 22 21
M  V30 23 2 23 22
M  V30 24 1 24 23
M  V30 25 2 25 24
M  V30 26 1 26 25
M  V30 27 1 27 22
M  V30 28 2 27 26
M  V30 29 1 28 21
M  V30 30 1 29 18
M  V30 31 1 29 28
M  V30 32 1 30 16
M  V30 33 2 31 30
M  V30 34 2 32 14
M  V30 35 1 32 31
M  V30 36 1 33 32
M  V30 37 1 34 33
M  V30 38 1 35 2
M  V30 39 1 35 13
M  V30 40 1 35 34
M  V30 41 1 36 1
M  V30 42 1 37 1
M  V30 43 1 38 1
M  V30 44 1 39 3
M  V30 45 1 40 3
M  V30 46 1 41 4
M  V30 47 1 42 4
M  V30 48 1 43 6
M  V30 49 1 44 10
M  V30 50 1 45 11
M  V30 51 1 13 46 CFG=1
M  V30 52 1 47 15
M  V30 53 1 48 17
M  V30 54 1 49 17
M  V30 55 1 50 19
M  V30 56 1 51 19
M  V30 57 1 52 20
M  V30 58 1 53 20
M  V30 59 1 54 23
M  V30 60 1 55 24
M  V30 61 1 56 25
M  V30 62 1 57 26
M  V30 63 1 58 28
M  V30 64 1 59 28
M  V30 65 1 60 29
M  V30 66 1 61 29
M  V30 67 1 62 30
M  V30 68 1 63 31
M  V30 69 1 64 33
M  V30 70 1 65 33
M  V30 71 1 66 34
M  V30 72 1 67 34
M  V30 73 1 35 68 CFG=3
M  V30 74 1 2 69 CFG=1
M  V30 75 1 70 18
M  V30 END BOND
M  V30 END CTAB
M  END
>  <b_m_subgroup_collapsed>  (1075) 
0

>  <r_i_docking_score>  (1075) 
-7.5133104163224997

>  <s_m_subgroup_title>  (1075) 
glide-dock_SP_D22_pv

>  <s_m_subgroupid>  (1075) 
glide-dock_SP_D22_pv

>  <Molecule ChEMBL ID>  (1075) 
CHEMBL601635

>  <Standard Type>  (1075) 
Ki

>  <Standard Value>  (1075) 
1.3

>  <label>  (1075) 
1

$$$$
CHEMBL1774062
     RDKit          3D

  0  0  0  0  0  0  0  0  0  0999 V3000
M  V30 BEGIN CTAB
M  V30 COUNTS 59 62 0 0 1
M  V30 BEGIN ATOM
M  V30 1 O 12.886016 5.776550 -1.846951 0
M  V30 2 C 12.486006 6.782592 -2.417579 0
M  V30 3 C 12.456621 8.139441 -1.692100 0
M  V30 4 C 12.427718 9.362719 -2.617009 0
M  V30 5 C 11.767321 9.101731 -3.946151 0
M  V30 6 C 11.286489 10.168513 -4.720025 0
M  V30 7 C 10.823663 9.897223 -6.005868 0
M  V30 8 C 10.759655 8.561082 -6.418002 0
M  V30 9 C 10.211452 8.214525 -7.759935 0
M  V30 10 C 11.290393 8.327496 -8.839015 0
M  V30 11 C 10.805398 7.725132 -10.148793 0
M  V30 12 C 9.435749 8.288090 -10.551486 0
M  V30 13 C 9.000874 7.912576 -11.954157 0
M  V30 14 N 8.499245 6.517399 -12.024265 0 CHG=1
M  V30 15 C 7.311314 6.437887 -12.896414 0
M  V30 16 C 6.758983 5.006719 -13.025010 0
M  V30 17 N 7.825050 4.088585 -13.401568 0
M  V30 18 C 7.583138 2.887760 -14.101034 0
M  V30 19 C 8.540474 2.510535 -15.070311 0
M  V30 20 C 8.422906 1.302438 -15.779860 0
M  V30 21 C 7.342900 0.443360 -15.521997 0
M  V30 22 C 6.380487 0.793949 -14.558908 0
M  V30 23 Cl 5.070365 -0.292957 -14.255719 0
M  V30 24 C 6.485223 2.013561 -13.849285 0
M  V30 25 Cl 5.286031 2.354391 -12.646472 0
M  V30 26 C 9.001539 4.118823 -12.544211 0
M  V30 27 C 9.547555 5.549481 -12.459299 0
M  V30 28 N 11.184359 7.527222 -5.678444 0
M  V30 29 C 11.682421 7.789165 -4.462917 0
M  V30 30 N 12.085743 6.708910 -3.681152 0
M  V30 31 H 13.285544 8.217511 -0.990287 0
M  V30 32 H 11.557449 8.172087 -1.087028 0
M  V30 33 H 13.427554 9.734693 -2.814295 0
M  V30 34 H 11.902874 10.172265 -2.121438 0
M  V30 35 H 11.285835 11.179378 -4.358118 0
M  V30 36 H 10.486664 10.693819 -6.645865 0
M  V30 37 H 9.801678 7.202920 -7.728748 0
M  V30 38 H 9.375106 8.886695 -7.955725 0
M  V30 39 H 11.570966 9.372076 -8.978724 0
M  V30 40 H 12.193210 7.802859 -8.523217 0
M  V30 41 H 11.546239 7.906919 -10.928365 0
M  V30 42 H 10.740767 6.648036 -10.007479 0
M  V30 43 H 8.662593 7.966319 -9.855596 0
M  V30 44 H 9.466676 9.372246 -10.479124 0
M  V30 45 H 8.208728 8.609124 -12.236586 0
M  V30 46 H 9.820468 8.086989 -12.646876 0
M  V30 47 H 6.524474 7.114109 -12.558467 0
M  V30 48 H 7.686043 6.801222 -13.846759 0
M  V30 49 H 6.342249 4.707340 -12.062240 0
M  V30 50 H 5.952228 4.972700 -13.758352 0
M  V30 51 H 9.384133 3.154155 -15.273890 0
M  V30 52 H 9.166124 1.029838 -16.515158 0
M  V30 53 H 7.257414 -0.492842 -16.055738 0
M  V30 54 H 8.721089 3.772488 -11.549477 0
M  V30 55 H 9.777939 3.441834 -12.903148 0
M  V30 56 H 9.922260 5.841232 -13.441810 0
M  V30 57 H 10.406283 5.563227 -11.797742 0
M  V30 58 H 12.054483 5.798305 -4.114429 0
M  V30 59 H 8.174078 6.271402 -11.097643 0
M  V30 END ATOM
M  V30 BEGIN BOND
M  V30 1 2 2 1
M  V30 2 1 3 2
M  V30 3 1 4 3
M  V30 4 1 5 4
M  V30 5 1 6 5
M  V30 6 2 7 6
M  V30 7 1 8 7
M  V30 8 1 9 8
M  V30 9 1 10 9
M  V30 10 1 11 10
M  V30 11 1 12 11
M  V30 12 1 13 12
M  V30 13 1 14 13
M  V30 14 1 15 14
M  V30 15 1 16 15
M  V30 16 1 17 16
M  V30 17 1 18 17
M  V30 18 2 19 18
M  V30 19 1 20 19
M  V30 20 2 21 20
M  V30 21 1 22 21
M  V30 22 1 23 22
M  V30 23 1 24 18
M  V30 24 2 24 22
M  V30 25 1 25 24
M  V30 26 1 26 17
M  V30 27 1 27 14
M  V30 28 1 27 26
M  V30 29 2 28 8
M  V30 30 2 29 5
M  V30 31 1 29 28
M  V30 32 1 30 2
M  V30 33 1 30 29
M  V30 34 1 31 3
M  V30 35 1 32 3
M  V30 36 1 33 4
M  V30 37 1 34 4
M  V30 38 1 35 6
M  V30 39 1 36 7
M  V30 40 1 37 9
M  V30 41 1 38 9
M  V30 42 1 39 10
M  V30 43 1 40 10
M  V30 44 1 41 11
M  V30 45 1 42 11
M  V30 46 1 43 12
M  V30 47 1 44 12
M  V30 48 1 45 13
M  V30 49 1 46 13
M  V30 50 1 47 15
M  V30 51 1 48 15
M  V30 52 1 49 16
M  V30 53 1 50 16
M  V30 54 1 51 19
M  V30 55 1 52 20
M  V30 56 1 53 21
M  V30 57 1 54 26
M  V30 58 1 55 26
M  V30 59 1 56 27
M  V30 60 1 57 27
M  V30 61 1 58 30
M  V30 62 1 59 14
M  V30 END BOND
M  V30 END CTAB
M  END
>  <b_m_subgroup_collapsed>  (1076) 
0

>  <r_i_docking_score>  (1076) 
-7.5122541360957502

>  <s_m_subgroup_title>  (1076) 
glide-dock_SP_D22_pv

>  <s_m_subgroupid>  (1076) 
glide-dock_SP_D22_pv

>  <Molecule ChEMBL ID>  (1076) 
CHEMBL1774062

>  <Standard Type>  (1076) 
Ki

>  <Standard Value>  (1076) 
2.6

>  <label>  (1076) 
1

$$$$
CHEMBL4777055
     RDKit          3D

  0  0  0  0  0  0  0  0  0  0999 V3000
M  V30 BEGIN CTAB
M  V30 COUNTS 55 58 0 0 1
M  V30 BEGIN ATOM
M  V30 1 C 5.093667 -2.281436 -15.887035 0
M  V30 2 C 5.012597 -1.020433 -15.038560 0
M  V30 3 O 3.926347 -0.676960 -14.568275 0
M  V30 4 N 6.178512 -0.385093 -14.826265 0
M  V30 5 C 6.387025 0.917613 -14.292862 0
M  V30 6 C 5.463976 1.575569 -13.444787 0
M  V30 7 C 5.687851 2.905173 -13.045929 0
M  V30 8 C 6.848246 3.596052 -13.452338 0
M  V30 9 O 6.952214 4.909151 -13.046842 0
M  V30 10 C 8.126597 5.658383 -13.345486 0
M  V30 11 C 9.177524 5.488421 -12.238820 0
M  V30 12 C 8.618988 5.964228 -10.888327 0
M  V30 13 N 9.667852 6.158868 -9.889540 0
M  V30 14 C 10.150797 7.539883 -9.985895 0
M  V30 15 C 11.310136 7.736116 -9.007775 0
M  V30 16 N 10.895281 7.448503 -7.638576 0
M  V30 17 C 11.073558 8.380162 -6.591659 0
M  V30 18 N 10.975839 9.662260 -6.863644 0
M  V30 19 S 11.285447 10.571575 -5.504956 0
M  V30 20 C 11.631282 9.219145 -4.464916 0
M  V30 21 C 12.028763 9.207404 -3.115819 0
M  V30 22 C 12.254707 7.979994 -2.476050 0
M  V30 23 C 12.085876 6.780519 -3.189235 0
M  V30 24 C 11.685056 6.807012 -4.540907 0
M  V30 25 C 11.438191 8.025568 -5.223586 0
M  V30 26 C 10.211400 6.172788 -7.472598 0
M  V30 27 C 9.109914 5.993843 -8.541913 0
M  V30 28 C 7.803958 2.914564 -14.246194 0
M  V30 29 C 7.573011 1.587394 -14.658631 0
M  V30 30 H 5.611574 -2.081692 -16.825508 0
M  V30 31 H 5.627412 -3.073949 -15.361221 0
M  V30 32 H 4.087378 -2.627612 -16.122009 0
M  V30 33 H 6.986471 -0.823551 -15.252675 0
M  V30 34 H 4.555308 1.097769 -13.110923 0
M  V30 35 H 4.959391 3.410880 -12.425781 0
M  V30 36 H 8.534512 5.443462 -14.333684 0
M  V30 37 H 7.828567 6.706835 -13.388069 0
M  V30 38 H 9.497928 4.447053 -12.164678 0
M  V30 39 H 10.058630 6.070281 -12.508903 0
M  V30 40 H 8.089577 6.901960 -11.042323 0
M  V30 41 H 7.884401 5.236232 -10.541942 0
M  V30 42 H 10.500484 7.747852 -10.997149 0
M  V30 43 H 9.350313 8.252007 -9.772059 0
M  V30 44 H 12.093034 7.041274 -9.290612 0
M  V30 45 H 11.727428 8.737217 -9.105405 0
M  V30 46 H 12.160888 10.134805 -2.580035 0
M  V30 47 H 12.552781 7.956894 -1.438012 0
M  V30 48 H 12.254031 5.829929 -2.700009 0
M  V30 49 H 11.577633 5.874235 -5.070380 0
M  V30 50 H 10.948472 5.373382 -7.543092 0
M  V30 51 H 9.755545 6.125226 -6.483321 0
M  V30 52 H 8.302513 6.710738 -8.378871 0
M  V30 53 H 8.673669 5.000603 -8.441958 0
M  V30 54 H 8.720505 3.387618 -14.560953 0
M  V30 55 H 8.301321 1.098701 -15.289511 0
M  V30 END ATOM
M  V30 BEGIN BOND
M  V30 1 1 2 1
M  V30 2 2 3 2
M  V30 3 1 4 2
M  V30 4 1 5 4
M  V30 5 1 6 5
M  V30 6 2 7 6
M  V30 7 1 8 7
M  V30 8 1 9 8
M  V30 9 1 10 9
M  V30 10 1 11 10
M  V30 11 1 12 11
M  V30 12 1 13 12
M  V30 13 1 14 13
M  V30 14 1 15 14
M  V30 15 1 16 15
M  V30 16 1 17 16
M  V30 17 2 18 17
M  V30 18 1 19 18
M  V30 19 1 20 19
M  V30 20 2 21 20
M  V30 21 1 22 21
M  V30 22 2 23 22
M  V30 23 1 24 23
M  V30 24 1 25 17
M  V30 25 1 25 20
M  V30 26 2 25 24
M  V30 27 1 26 16
M  V30 28 1 27 13
M  V30 29 1 27 26
M  V30 30 2 28 8
M  V30 31 2 29 5
M  V30 32 1 29 28
M  V30 33 1 30 1
M  V30 34 1 31 1
M  V30 35 1 32 1
M  V30 36 1 33 4
M  V30 37 1 34 6
M  V30 38 1 35 7
M  V30 39 1 36 10
M  V30 40 1 37 10
M  V30 41 1 38 11
M  V30 42 1 39 11
M  V30 43 1 40 12
M  V30 44 1 41 12
M  V30 45 1 42 14
M  V30 46 1 43 14
M  V30 47 1 44 15
M  V30 48 1 45 15
M  V30 49 1 46 21
M  V30 50 1 47 22
M  V30 51 1 48 23
M  V30 52 1 49 24
M  V30 53 1 50 26
M  V30 54 1 51 26
M  V30 55 1 52 27
M  V30 56 1 53 27
M  V30 57 1 54 28
M  V30 58 1 55 29
M  V30 END BOND
M  V30 END CTAB
M  END
>  <b_m_subgroup_collapsed>  (1077) 
0

>  <r_i_docking_score>  (1077) 
-7.51027034611948

>  <s_m_subgroup_title>  (1077) 
glide-dock_SP_D22_pv

>  <s_m_subgroupid>  (1077) 
glide-dock_SP_D22_pv

>  <Molecule ChEMBL ID>  (1077) 
CHEMBL4777055

>  <Standard Type>  (1077) 
Ki

>  <Standard Value>  (1077) 
79.1

>  <label>  (1077) 
1

$$$$
CHEMBL275379
     RDKit          3D

  0  0  0  0  0  0  0  0  0  0999 V3000
M  V30 BEGIN CTAB
M  V30 COUNTS 40 43 0 0 1
M  V30 BEGIN ATOM
M  V30 1 C 12.838643 6.046546 -15.415545 0
M  V30 2 C 11.855710 6.048724 -14.262380 0
M  V30 3 C 11.943753 7.021618 -13.249202 0
M  V30 4 N 11.068216 7.105537 -12.225142 0
M  V30 5 C 10.086023 6.183921 -12.152828 0
M  V30 6 C 9.945176 5.128710 -13.079209 0
M  V30 7 C 10.828415 5.089869 -14.182328 0
M  V30 8 C 8.816785 4.138730 -12.816535 0 CFG=2
M  V30 9 C 8.582399 3.021059 -13.846873 0
M  V30 10 C 9.650555 2.179397 -14.246927 0
M  V30 11 C 9.439479 1.076740 -15.099669 0
M  V30 12 O 10.485887 0.272188 -15.456170 0
M  V30 13 C 8.141109 0.811422 -15.574945 0
M  V30 14 O 7.882060 -0.227673 -16.420109 0
M  V30 15 C 7.072277 1.618438 -15.158404 0
M  V30 16 C 7.269991 2.695650 -14.272424 0
M  V30 17 C 6.049960 3.441522 -13.755183 0
M  V30 18 C 6.291537 4.127850 -12.405686 0
M  V30 19 C 7.561326 4.979031 -12.463821 0 CFG=1
M  V30 20 N 7.761135 5.772321 -11.219606 0 CHG=1
M  V30 21 C 9.128870 6.303042 -10.968926 0
M  V30 22 H 12.729321 5.153168 -16.032337 0
M  V30 23 H 13.863993 6.078807 -15.046894 0
M  V30 24 H 12.677316 6.920007 -16.048119 0
M  V30 25 H 12.719815 7.772202 -13.274413 0
M  V30 26 H 10.740309 4.353741 -14.964687 0
M  V30 27 H 9.115520 3.597772 -11.917864 0
M  V30 28 H 10.640960 2.356430 -13.854712 0
M  V30 29 H 11.324182 0.590681 -15.158768 0
M  V30 30 H 8.086338 -1.088556 -16.062044 0
M  V30 31 H 6.086038 1.369887 -15.505430 0
M  V30 32 H 5.747882 4.172967 -14.504470 0
M  V30 33 H 5.221144 2.740138 -13.651189 0
M  V30 34 H 5.426187 4.735988 -12.139961 0
M  V30 35 H 6.390207 3.374141 -11.622794 0
M  V30 36 H 7.412658 5.702790 -13.267400 0
M  V30 37 H 7.126692 6.574311 -11.178107 0
M  V30 38 H 9.560846 5.756278 -10.129006 0
M  V30 39 H 9.042918 7.345206 -10.654515 0
M  V30 40 H 7.514775 5.190701 -10.429827 0
M  V30 END ATOM
M  V30 BEGIN BOND
M  V30 1 1 2 1
M  V30 2 1 3 2
M  V30 3 2 4 3
M  V30 4 1 5 4
M  V30 5 2 6 5
M  V30 6 2 7 2
M  V30 7 1 7 6
M  V30 8 1 8 6
M  V30 9 1 9 8
M  V30 10 1 10 9
M  V30 11 2 11 10
M  V30 12 1 12 11
M  V30 13 1 13 11
M  V30 14 1 14 13
M  V30 15 2 15 13
M  V30 16 2 16 9
M  V30 17 1 16 15
M  V30 18 1 17 16
M  V30 19 1 18 17
M  V30 20 1 19 8
M  V30 21 1 19 18
M  V30 22 1 20 19
M  V30 23 1 21 5
M  V30 24 1 21 20
M  V30 25 1 22 1
M  V30 26 1 23 1
M  V30 27 1 24 1
M  V30 28 1 25 3
M  V30 29 1 26 7
M  V30 30 1 8 27 CFG=1
M  V30 31 1 28 10
M  V30 32 1 29 12
M  V30 33 1 30 14
M  V30 34 1 31 15
M  V30 35 1 32 17
M  V30 36 1 33 17
M  V30 37 1 34 18
M  V30 38 1 35 18
M  V30 39 1 19 36 CFG=3
M  V30 40 1 37 20
M  V30 41 1 38 21
M  V30 42 1 39 21
M  V30 43 1 40 20
M  V30 END BOND
M  V30 END CTAB
M  END
>  <b_m_subgroup_collapsed>  (1078) 
0

>  <r_i_docking_score>  (1078) 
-7.5097279820046596

>  <s_m_subgroup_title>  (1078) 
glide-dock_SP_D22_pv

>  <s_m_subgroupid>  (1078) 
glide-dock_SP_D22_pv

>  <Molecule ChEMBL ID>  (1078) 
CHEMBL275379

>  <Standard Type>  (1078) 
Ki

>  <Standard Value>  (1078) 
12000.0

>  <label>  (1078) 
0

$$$$
CHEMBL68191
     RDKit          3D

  0  0  0  0  0  0  0  0  0  0999 V3000
M  V30 BEGIN CTAB
M  V30 COUNTS 54 57 0 0 1
M  V30 BEGIN ATOM
M  V30 1 C 10.484912 0.642690 -14.666265 0
M  V30 2 C 9.654451 1.654208 -15.469220 0
M  V30 3 N 8.698420 2.398039 -14.620543 0
M  V30 4 C 9.122309 3.573387 -14.084377 0
M  V30 5 O 10.311076 3.906490 -14.071620 0
M  V30 6 C 8.072838 4.554384 -13.519356 0 CFG=2
M  V30 7 N 8.654299 5.655183 -12.697021 0
M  V30 8 C 9.224444 5.241924 -11.401577 0
M  V30 9 C 9.944947 6.429454 -10.730141 0
M  V30 10 N 8.996477 7.559371 -10.578229 0 CHG=1
M  V30 11 C 9.454430 8.716529 -9.780153 0
M  V30 12 C 9.980988 8.371338 -8.397421 0
M  V30 13 C 9.291825 7.498776 -7.526980 0
M  V30 14 C 9.825268 7.209892 -6.254742 0
M  V30 15 C 11.022400 7.818774 -5.829540 0
M  V30 16 Cl 11.686110 7.463288 -4.274744 0
M  V30 17 C 11.685994 8.719349 -6.682118 0
M  V30 18 C 11.176712 8.972585 -7.966664 0
M  V30 19 C 8.485106 7.955474 -11.905349 0
M  V30 20 C 7.721922 6.767317 -12.504369 0
M  V30 21 C 6.867666 3.854814 -12.855388 0
M  V30 22 C 6.485972 2.529991 -13.476261 0
M  V30 23 C 5.269365 1.929463 -13.092470 0
M  V30 24 C 4.923899 0.652796 -13.570845 0
M  V30 25 C 5.804416 -0.032232 -14.423098 0
M  V30 26 C 7.029588 0.553595 -14.790310 0
M  V30 27 C 7.399722 1.842031 -14.321635 0
M  V30 28 H 11.238192 0.171321 -15.298747 0
M  V30 29 H 11.004374 1.139304 -13.847207 0
M  V30 30 H 9.861338 -0.144089 -14.242911 0
M  V30 31 H 9.146817 1.166306 -16.299650 0
M  V30 32 H 10.338032 2.339771 -15.974018 0
M  V30 33 H 7.688162 5.009220 -14.429711 0
M  V30 34 H 8.447361 4.881802 -10.727134 0
M  V30 35 H 9.930405 4.421244 -11.529431 0
M  V30 36 H 10.325624 6.106380 -9.761284 0
M  V30 37 H 10.807290 6.743034 -11.320658 0
M  V30 38 H 10.228786 9.243501 -10.337732 0
M  V30 39 H 8.619786 9.406887 -9.656792 0
M  V30 40 H 8.362288 7.037157 -7.827827 0
M  V30 41 H 9.305396 6.527373 -5.599352 0
M  V30 42 H 12.595801 9.205404 -6.360089 0
M  V30 43 H 11.685946 9.661284 -8.620667 0
M  V30 44 H 7.809737 8.809242 -11.829569 0
M  V30 45 H 9.305596 8.269223 -12.552111 0
M  V30 46 H 7.288948 7.084887 -13.446813 0
M  V30 47 H 6.891967 6.471122 -11.860488 0
M  V30 48 H 5.997288 4.509958 -12.911737 0
M  V30 49 H 7.031114 3.674556 -11.795483 0
M  V30 50 H 4.595837 2.447656 -12.426336 0
M  V30 51 H 3.983525 0.200107 -13.296664 0
M  V30 52 H 5.548028 -1.015773 -14.790494 0
M  V30 53 H 7.677691 -0.040503 -15.414703 0
M  V30 54 H 8.166649 7.225323 -10.097341 0
M  V30 END ATOM
M  V30 BEGIN BOND
M  V30 1 1 2 1
M  V30 2 1 3 2
M  V30 3 1 4 3
M  V30 4 2 5 4
M  V30 5 1 6 4
M  V30 6 1 7 6
M  V30 7 1 8 7
M  V30 8 1 9 8
M  V30 9 1 10 9
M  V30 10 1 11 10
M  V30 11 1 12 11
M  V30 12 1 13 12
M  V30 13 2 14 13
M  V30 14 1 15 14
M  V30 15 1 16 15
M  V30 16 2 17 15
M  V30 17 2 18 12
M  V30 18 1 18 17
M  V30 19 1 19 10
M  V30 20 1 20 7
M  V30 21 1 20 19
M  V30 22 1 21 6
M  V30 23 1 22 21
M  V30 24 2 23 22
M  V30 25 1 24 23
M  V30 26 2 25 24
M  V30 27 1 26 25
M  V30 28 1 27 3
M  V30 29 1 27 22
M  V30 30 2 27 26
M  V30 31 1 28 1
M  V30 32 1 29 1
M  V30 33 1 30 1
M  V30 34 1 31 2
M  V30 35 1 32 2
M  V30 36 1 6 33 CFG=3
M  V30 37 1 34 8
M  V30 38 1 35 8
M  V30 39 1 36 9
M  V30 40 1 37 9
M  V30 41 1 38 11
M  V30 42 1 39 11
M  V30 43 1 40 13
M  V30 44 1 41 14
M  V30 45 1 42 17
M  V30 46 1 43 18
M  V30 47 1 44 19
M  V30 48 1 45 19
M  V30 49 1 46 20
M  V30 50 1 47 20
M  V30 51 1 48 21
M  V30 52 1 49 21
M  V30 53 1 50 23
M  V30 54 1 51 24
M  V30 55 1 52 25
M  V30 56 1 53 26
M  V30 57 1 54 10
M  V30 END BOND
M  V30 END CTAB
M  END
>  <b_m_subgroup_collapsed>  (1079) 
0

>  <r_i_docking_score>  (1079) 
-7.5096922930387704

>  <s_m_subgroup_title>  (1079) 
glide-dock_SP_D22_pv

>  <s_m_subgroupid>  (1079) 
glide-dock_SP_D22_pv

>  <Molecule ChEMBL ID>  (1079) 
CHEMBL68191

>  <Standard Type>  (1079) 
Ki

>  <Standard Value>  (1079) 
21.0

>  <label>  (1079) 
1

$$$$
CHEMBL267930
     RDKit          3D

  0  0  0  0  0  0  0  0  0  0999 V3000
M  V30 BEGIN CTAB
M  V30 COUNTS 56 59 0 0 1
M  V30 BEGIN ATOM
M  V30 1 O 10.358981 8.896466 -7.103991 0
M  V30 2 C 10.535121 7.924629 -6.369746 0
M  V30 3 C 9.895431 6.569155 -6.729551 0
M  V30 4 C 9.302944 6.517411 -8.152200 0
M  V30 5 C 8.522591 5.214296 -8.464536 0
M  V30 6 N 8.484376 4.800394 -9.914019 0 CFG=1 CHG=1
M  V30 7 C 7.774158 5.747000 -10.815943 0
M  V30 8 C 7.932847 5.514220 -12.341787 0
M  V30 9 C 9.339874 5.103923 -12.834257 0 CFG=1
M  V30 10 C 9.855103 4.007456 -11.903412 0
M  V30 11 C 9.814765 4.404088 -10.414021 0
M  V30 12 C 9.301554 4.486977 -14.234982 0
M  V30 13 O 8.483362 3.651217 -14.609965 0
M  V30 14 N 10.306429 4.963474 -14.964773 0
M  V30 15 C 11.132112 5.906075 -14.235512 0
M  V30 16 N 10.328520 6.174407 -13.046646 0
M  V30 17 C 10.725652 7.180201 -12.136631 0
M  V30 18 C 9.790915 8.030432 -11.512912 0
M  V30 19 C 10.156876 8.808231 -10.398991 0
M  V30 20 C 11.501227 8.866095 -9.997366 0
M  V30 21 C 12.474894 8.172509 -10.731583 0
M  V30 22 C 12.086242 7.370239 -11.816956 0
M  V30 23 C 11.274922 8.035857 -5.077945 0
M  V30 24 C 11.666611 6.902053 -4.327214 0
M  V30 25 C 12.221930 7.054513 -3.042951 0
M  V30 26 C 12.410779 8.340869 -2.508262 0
M  V30 27 F 12.886053 8.494250 -1.254263 0
M  V30 28 C 12.085052 9.472951 -3.270844 0
M  V30 29 C 11.529649 9.324588 -4.554182 0
M  V30 30 H 9.118123 6.358164 -5.996642 0
M  V30 31 H 10.638528 5.775734 -6.643945 0
M  V30 32 H 10.138976 6.657280 -8.828223 0
M  V30 33 H 8.637605 7.366740 -8.315859 0
M  V30 34 H 7.514832 5.365853 -8.090404 0
M  V30 35 H 8.919829 4.401814 -7.849273 0
M  V30 36 H 6.707247 5.771404 -10.648017 0
M  V30 37 H 8.086637 6.718213 -10.502113 0
M  V30 38 H 7.578517 6.387085 -12.890112 0
M  V30 39 H 7.231798 4.718215 -12.599318 0
M  V30 40 H 9.297975 3.086233 -12.052131 0
M  V30 41 H 10.861976 3.774049 -12.243811 0
M  V30 42 H 10.175804 3.582258 -9.795949 0
M  V30 43 H 10.485914 5.239316 -10.268017 0
M  V30 44 H 10.492127 4.690765 -15.918649 0
M  V30 45 H 11.296454 6.808764 -14.824350 0
M  V30 46 H 12.092593 5.451239 -13.988265 0
M  V30 47 H 8.768741 8.064270 -11.856116 0
M  V30 48 H 9.408863 9.384829 -9.874546 0
M  V30 49 H 11.791930 9.474422 -9.156382 0
M  V30 50 H 13.515847 8.256058 -10.455898 0
M  V30 51 H 12.850636 6.808828 -12.332437 0
M  V30 52 H 11.499050 5.900575 -4.692462 0
M  V30 53 H 12.476243 6.182529 -2.457630 0
M  V30 54 H 12.226789 10.458781 -2.853178 0
M  V30 55 H 11.249057 10.210526 -5.107208 0
M  V30 56 H 7.913778 3.966474 -9.938961 0
M  V30 END ATOM
M  V30 BEGIN BOND
M  V30 1 2 2 1
M  V30 2 1 3 2
M  V30 3 1 4 3
M  V30 4 1 5 4
M  V30 5 1 6 5
M  V30 6 1 7 6
M  V30 7 1 8 7
M  V30 8 1 9 8
M  V30 9 1 10 9
M  V30 10 1 11 6
M  V30 11 1 11 10
M  V30 12 1 12 9
M  V30 13 2 13 12
M  V30 14 1 14 12
M  V30 15 1 15 14
M  V30 16 1 9 16 CFG=3
M  V30 17 1 16 15
M  V30 18 1 17 16
M  V30 19 2 18 17
M  V30 20 1 19 18
M  V30 21 2 20 19
M  V30 22 1 21 20
M  V30 23 1 22 17
M  V30 24 2 22 21
M  V30 25 1 23 2
M  V30 26 1 24 23
M  V30 27 2 25 24
M  V30 28 1 26 25
M  V30 29 1 27 26
M  V30 30 2 28 26
M  V30 31 2 29 23
M  V30 32 1 29 28
M  V30 33 1 30 3
M  V30 34 1 31 3
M  V30 35 1 32 4
M  V30 36 1 33 4
M  V30 37 1 34 5
M  V30 38 1 35 5
M  V30 39 1 36 7
M  V30 40 1 37 7
M  V30 41 1 38 8
M  V30 42 1 39 8
M  V30 43 1 40 10
M  V30 44 1 41 10
M  V30 45 1 42 11
M  V30 46 1 43 11
M  V30 47 1 44 14
M  V30 48 1 45 15
M  V30 49 1 46 15
M  V30 50 1 47 18
M  V30 51 1 48 19
M  V30 52 1 49 20
M  V30 53 1 50 21
M  V30 54 1 51 22
M  V30 55 1 52 24
M  V30 56 1 53 25
M  V30 57 1 54 28
M  V30 58 1 55 29
M  V30 59 1 6 56 CFG=1
M  V30 END BOND
M  V30 END CTAB
M  END
>  <b_m_subgroup_collapsed>  (1080) 
0

>  <r_i_docking_score>  (1080) 
-7.5096509002705902

>  <s_m_subgroup_title>  (1080) 
glide-dock_SP_D22_pv

>  <s_m_subgroupid>  (1080) 
glide-dock_SP_D22_pv

>  <Molecule ChEMBL ID>  (1080) 
CHEMBL267930

>  <Standard Type>  (1080) 
Ki

>  <Standard Value>  (1080) 
0.06

>  <label>  (1080) 
1

$$$$
CHEMBL4464377
     RDKit          3D

  0  0  0  0  0  0  0  0  0  0999 V3000
M  V30 BEGIN CTAB
M  V30 COUNTS 29 31 0 0 1
M  V30 BEGIN ATOM
M  V30 1 C 11.833436 10.726632 -6.247780 0
M  V30 2 C 10.991413 10.251034 -5.078123 0
M  V30 3 N 11.423472 8.952766 -4.620797 0
M  V30 4 C 12.056849 8.691417 -3.467161 0
M  V30 5 N 12.244081 7.402113 -3.227518 0
M  V30 6 C 11.688650 6.779689 -4.342521 0
M  V30 7 C 11.234851 7.717385 -5.235531 0
M  V30 8 C 10.559134 7.540003 -6.517145 0
M  V30 9 C 9.266827 7.113255 -6.647168 0
M  V30 10 N 8.886138 7.113158 -7.969564 0
M  V30 11 C 9.953546 7.436647 -8.768919 0
M  V30 12 C 10.085434 7.518781 -10.165023 0
M  V30 13 C 11.326780 7.871793 -10.718605 0
M  V30 14 C 12.407889 8.172471 -9.871274 0
M  V30 15 C 12.259888 8.105421 -8.471289 0
M  V30 16 C 11.033274 7.718116 -7.874754 0
M  V30 17 H 11.686524 11.773305 -6.456571 0
M  V30 18 H 12.886219 10.567115 -6.056419 0
M  V30 19 H 11.561193 10.201661 -7.155504 0
M  V30 20 H 9.951970 10.172446 -5.375292 0
M  V30 21 H 11.044118 10.959456 -4.250926 0
M  V30 22 H 12.352830 9.462024 -2.769094 0
M  V30 23 H 11.682085 5.710972 -4.433299 0
M  V30 24 H 8.560008 6.842477 -5.884101 0
M  V30 25 H 7.919483 6.970848 -8.263885 0
M  V30 26 H 9.235900 7.305532 -10.799673 0
M  V30 27 H 11.445608 7.924385 -11.790728 0
M  V30 28 H 13.353786 8.475370 -10.296072 0
M  V30 29 H 13.103494 8.355785 -7.847167 0
M  V30 END ATOM
M  V30 BEGIN BOND
M  V30 1 1 2 1
M  V30 2 1 3 2
M  V30 3 1 4 3
M  V30 4 2 5 4
M  V30 5 1 6 5
M  V30 6 1 7 3
M  V30 7 2 7 6
M  V30 8 1 8 7
M  V30 9 2 9 8
M  V30 10 1 10 9
M  V30 11 1 11 10
M  V30 12 2 12 11
M  V30 13 1 13 12
M  V30 14 2 14 13
M  V30 15 1 15 14
M  V30 16 1 16 8
M  V30 17 1 16 11
M  V30 18 2 16 15
M  V30 19 1 17 1
M  V30 20 1 18 1
M  V30 21 1 19 1
M  V30 22 1 20 2
M  V30 23 1 21 2
M  V30 24 1 22 4
M  V30 25 1 23 6
M  V30 26 1 24 9
M  V30 27 1 25 10
M  V30 28 1 26 12
M  V30 29 1 27 13
M  V30 30 1 28 14
M  V30 31 1 29 15
M  V30 END BOND
M  V30 END CTAB
M  END
>  <b_m_subgroup_collapsed>  (1081) 
0

>  <r_i_docking_score>  (1081) 
-7.5080666200964101

>  <s_m_subgroup_title>  (1081) 
glide-dock_SP_D22_pv

>  <s_m_subgroupid>  (1081) 
glide-dock_SP_D22_pv

>  <Molecule ChEMBL ID>  (1081) 
CHEMBL4464377

>  <Standard Type>  (1081) 
Ki

>  <Standard Value>  (1081) 
10000.0

>  <label>  (1081) 
0

$$$$
CHEMBL542942
     RDKit          3D

  0  0  0  0  0  0  0  0  0  0999 V3000
M  V30 BEGIN CTAB
M  V30 COUNTS 52 55 0 0 1
M  V30 BEGIN ATOM
M  V30 1 O 11.864392 7.370899 -11.688659 0
M  V30 2 C 10.692113 6.997082 -12.392861 0 CFG=1
M  V30 3 C 10.849324 5.788624 -13.324120 0
M  V30 4 C 12.086585 5.554108 -13.958605 0
M  V30 5 C 12.261048 4.460306 -14.825476 0
M  V30 6 C 11.189558 3.585660 -15.074598 0
M  V30 7 C 9.939590 3.825850 -14.476291 0
M  V30 8 C 9.758802 4.930348 -13.617710 0
M  V30 9 C 8.379916 5.172289 -13.034383 0
M  V30 10 C 8.208476 6.577067 -12.439888 0
M  V30 11 C 9.390422 7.016932 -11.542828 0 CFG=2
M  V30 12 C 9.135484 8.470758 -11.071407 0
M  V30 13 C 9.922232 8.873408 -9.814454 0
M  V30 14 N 9.831370 7.886883 -8.711993 0 CFG=2 CHG=1
M  V30 15 C 10.604364 8.353857 -7.533547 0
M  V30 16 C 10.231195 7.613732 -6.243482 0
M  V30 17 C 11.053299 8.050683 -5.046770 0
M  V30 18 C 11.686083 7.074458 -4.246632 0
M  V30 19 C 12.342594 7.443523 -3.056918 0
M  V30 20 C 12.354845 8.790960 -2.650651 0
M  V30 21 C 11.722472 9.768783 -3.441554 0
M  V30 22 C 11.094392 9.406675 -4.648155 0
M  V30 23 C 10.252094 6.537611 -9.153055 0
M  V30 24 C 9.409929 6.053601 -10.328744 0
M  V30 25 H 12.552468 7.524163 -12.319675 0
M  V30 26 H 10.595275 7.845988 -13.046933 0
M  V30 27 H 12.915770 6.220552 -13.790860 0
M  V30 28 H 13.217629 4.291303 -15.298496 0
M  V30 29 H 11.322893 2.740834 -15.734511 0
M  V30 30 H 9.113571 3.161556 -14.685794 0
M  V30 31 H 7.627480 5.009451 -13.806879 0
M  V30 32 H 8.195397 4.415498 -12.271111 0
M  V30 33 H 8.085945 7.294248 -13.248739 0
M  V30 34 H 7.269158 6.602683 -11.886904 0
M  V30 35 H 9.351613 9.174995 -11.873541 0
M  V30 36 H 8.086040 8.650920 -10.900496 0
M  V30 37 H 9.498793 9.797335 -9.448105 0
M  V30 38 H 10.966420 9.078589 -10.051787 0
M  V30 39 H 11.673299 8.255590 -7.731864 0
M  V30 40 H 10.415741 9.417591 -7.389128 0
M  V30 41 H 9.177057 7.774322 -6.015511 0
M  V30 42 H 10.352880 6.538037 -6.355033 0
M  V30 43 H 11.649187 6.030989 -4.524405 0
M  V30 44 H 12.814411 6.687859 -2.446139 0
M  V30 45 H 12.835646 9.076809 -1.726273 0
M  V30 46 H 11.697827 10.790539 -3.094261 0
M  V30 47 H 10.586703 10.166729 -5.223438 0
M  V30 48 H 10.141934 5.810163 -8.350910 0
M  V30 49 H 11.307269 6.552087 -9.407918 0
M  V30 50 H 8.390298 5.910866 -9.963768 0
M  V30 51 H 9.761196 5.065917 -10.628051 0
M  V30 52 H 8.852090 7.827688 -8.455819 0
M  V30 END ATOM
M  V30 BEGIN BOND
M  V30 1 1 2 1
M  V30 2 1 3 2
M  V30 3 2 4 3
M  V30 4 1 5 4
M  V30 5 2 6 5
M  V30 6 1 7 6
M  V30 7 1 8 3
M  V30 8 2 8 7
M  V30 9 1 9 8
M  V30 10 1 10 9
M  V30 11 1 11 2
M  V30 12 1 11 10 CFG=3
M  V30 13 1 12 11
M  V30 14 1 13 12
M  V30 15 1 14 13
M  V30 16 1 15 14
M  V30 17 1 16 15
M  V30 18 1 17 16
M  V30 19 2 18 17
M  V30 20 1 19 18
M  V30 21 2 20 19
M  V30 22 1 21 20
M  V30 23 1 22 17
M  V30 24 2 22 21
M  V30 25 1 23 14
M  V30 26 1 24 11
M  V30 27 1 24 23
M  V30 28 1 25 1
M  V30 29 1 2 26 CFG=3
M  V30 30 1 27 4
M  V30 31 1 28 5
M  V30 32 1 29 6
M  V30 33 1 30 7
M  V30 34 1 31 9
M  V30 35 1 32 9
M  V30 36 1 33 10
M  V30 37 1 34 10
M  V30 38 1 35 12
M  V30 39 1 36 12
M  V30 40 1 37 13
M  V30 41 1 38 13
M  V30 42 1 39 15
M  V30 43 1 40 15
M  V30 44 1 41 16
M  V30 45 1 42 16
M  V30 46 1 43 18
M  V30 47 1 44 19
M  V30 48 1 45 20
M  V30 49 1 46 21
M  V30 50 1 47 22
M  V30 51 1 48 23
M  V30 52 1 49 23
M  V30 53 1 50 24
M  V30 54 1 51 24
M  V30 55 1 14 52 CFG=1
M  V30 END BOND
M  V30 END CTAB
M  END
>  <b_m_subgroup_collapsed>  (1082) 
0

>  <r_i_docking_score>  (1082) 
-7.5076273295470601

>  <s_m_subgroup_title>  (1082) 
glide-dock_SP_D22_pv

>  <s_m_subgroupid>  (1082) 
glide-dock_SP_D22_pv

>  <Molecule ChEMBL ID>  (1082) 
CHEMBL542942

>  <Standard Type>  (1082) 
Ki

>  <Standard Value>  (1082) 
10000.0

>  <label>  (1082) 
0

$$$$
CHEMBL392401
     RDKit          3D

  0  0  0  0  0  0  0  0  0  0999 V3000
M  V30 BEGIN CTAB
M  V30 COUNTS 37 40 0 0 1
M  V30 BEGIN ATOM
M  V30 1 O 10.556521 4.383720 -14.781974 0
M  V30 2 C 10.895090 5.372321 -13.905089 0
M  V30 3 C 12.086028 6.090575 -14.093075 0
M  V30 4 C 12.445401 7.096394 -13.179518 0
M  V30 5 C 11.625521 7.372331 -12.070225 0
M  V30 6 C 10.395115 6.708324 -11.895720 0
M  V30 7 C 9.427584 7.153916 -10.787853 0 CFG=1
M  V30 8 N 8.324707 6.172322 -10.648642 0 CHG=1
M  V30 9 C 8.661034 4.997360 -9.811370 0
M  V30 10 C 8.928941 5.422316 -8.360579 0
M  V30 11 C 9.797528 6.643268 -8.311322 0
M  V30 12 C 10.020530 7.423720 -9.414241 0
M  V30 13 N 10.756074 8.539973 -9.016611 0
M  V30 14 C 11.026711 8.494093 -7.652109 0
M  V30 15 C 11.678905 9.372317 -6.754536 0
M  V30 16 C 11.809316 9.031579 -5.398769 0
M  V30 17 C 11.286022 7.816034 -4.937807 0
M  V30 18 C 10.587386 6.972274 -5.821054 0
M  V30 19 C 10.448810 7.273679 -7.195444 0
M  V30 20 C 10.047107 5.691494 -12.827581 0
M  V30 21 H 9.760034 3.925775 -14.563093 0
M  V30 22 H 12.731243 5.866520 -14.930176 0
M  V30 23 H 13.360970 7.650601 -13.323248 0
M  V30 24 H 11.927666 8.155623 -11.391755 0
M  V30 25 H 8.965902 8.074926 -11.146680 0
M  V30 26 H 7.535089 6.696033 -10.246863 0
M  V30 27 H 9.546073 4.510166 -10.223466 0
M  V30 28 H 7.855394 4.264735 -9.853200 0
M  V30 29 H 9.389777 4.585526 -7.846865 0
M  V30 30 H 7.985337 5.624924 -7.852034 0
M  V30 31 H 11.021856 9.286788 -9.642377 0
M  V30 32 H 12.086015 10.320522 -7.046865 0
M  V30 33 H 12.317471 9.698439 -4.716997 0
M  V30 34 H 11.383546 7.545488 -3.896342 0
M  V30 35 H 10.142012 6.075447 -5.429695 0
M  V30 36 H 9.121243 5.143201 -12.755362 0
M  V30 37 H 8.032898 5.875518 -11.565258 0
M  V30 END ATOM
M  V30 BEGIN BOND
M  V30 1 1 2 1
M  V30 2 1 3 2
M  V30 3 2 4 3
M  V30 4 1 5 4
M  V30 5 2 6 5
M  V30 6 1 7 6
M  V30 7 1 8 7
M  V30 8 1 9 8
M  V30 9 1 10 9
M  V30 10 1 11 10
M  V30 11 1 12 7
M  V30 12 2 12 11
M  V30 13 1 13 12
M  V30 14 1 14 13
M  V30 15 2 15 14
M  V30 16 1 16 15
M  V30 17 2 17 16
M  V30 18 1 18 17
M  V30 19 1 19 11
M  V30 20 1 19 14
M  V30 21 2 19 18
M  V30 22 2 20 2
M  V30 23 1 20 6
M  V30 24 1 21 1
M  V30 25 1 22 3
M  V30 26 1 23 4
M  V30 27 1 24 5
M  V30 28 1 7 25 CFG=3
M  V30 29 1 26 8
M  V30 30 1 27 9
M  V30 31 1 28 9
M  V30 32 1 29 10
M  V30 33 1 30 10
M  V30 34 1 31 13
M  V30 35 1 32 15
M  V30 36 1 33 16
M  V30 37 1 34 17
M  V30 38 1 35 18
M  V30 39 1 36 20
M  V30 40 1 37 8
M  V30 END BOND
M  V30 END CTAB
M  END
>  <b_m_subgroup_collapsed>  (1083) 
0

>  <r_i_docking_score>  (1083) 
-7.5068123029446499

>  <s_m_subgroup_title>  (1083) 
glide-dock_SP_D22_pv

>  <s_m_subgroupid>  (1083) 
glide-dock_SP_D22_pv

>  <Molecule ChEMBL ID>  (1083) 
CHEMBL392401

>  <Standard Type>  (1083) 
Ki

>  <Standard Value>  (1083) 
88000.0

>  <label>  (1083) 
0

$$$$
CHEMBL405260
     RDKit          3D

  0  0  0  0  0  0  0  0  0  0999 V3000
M  V30 BEGIN CTAB
M  V30 COUNTS 50 53 0 0 1
M  V30 BEGIN ATOM
M  V30 1 F 11.281772 1.702588 -15.815194 0
M  V30 2 C 10.893037 2.134387 -14.615472 0
M  V30 3 C 10.833934 3.668305 -14.612811 0
M  V30 4 O 10.315701 4.172126 -13.386625 0
M  V30 5 C 8.945577 4.237703 -13.207995 0
M  V30 6 C 8.011306 3.641605 -14.090785 0
M  V30 7 C 6.629034 3.735327 -13.846272 0
M  V30 8 C 6.153186 4.463030 -12.746100 0
M  V30 9 C 7.067752 5.065931 -11.871541 0
M  V30 10 C 8.457038 4.923203 -12.068330 0
M  V30 11 N 9.356073 5.427451 -11.119986 0
M  V30 12 C 10.004504 6.702327 -11.399273 0
M  V30 13 C 9.506510 7.799156 -10.441108 0
M  V30 14 N 9.556216 7.331320 -9.030393 0 CHG=1
M  V30 15 C 9.272513 8.395739 -8.041941 0
M  V30 16 C 10.165423 8.284739 -6.834067 0
M  V30 17 C 10.704308 7.106542 -6.239464 0
M  V30 18 C 11.285900 7.530165 -5.075228 0
M  V30 19 C 11.911909 6.914970 -3.958858 0
M  V30 20 C 12.325413 7.698811 -2.905191 0
M  V30 21 C 12.123687 9.101727 -2.925913 0
M  V30 22 C 11.518670 9.700681 -4.006850 0
M  V30 23 N 11.127198 8.926338 -5.051019 0
M  V30 24 N 10.485720 9.373265 -6.169033 0
M  V30 25 C 8.733738 6.112525 -8.827056 0
M  V30 26 C 9.214535 4.983392 -9.738044 0
M  V30 27 H 11.608784 1.774747 -13.878068 0
M  V30 28 H 9.934073 1.668115 -14.395148 0
M  V30 29 H 10.276825 4.054726 -15.467192 0
M  V30 30 H 11.845671 4.059025 -14.724881 0
M  V30 31 H 8.324117 3.097545 -14.967525 0
M  V30 32 H 5.932182 3.271410 -14.526321 0
M  V30 33 H 5.092041 4.563011 -12.573060 0
M  V30 34 H 6.686912 5.642342 -11.046400 0
M  V30 35 H 11.080102 6.573394 -11.289659 0
M  V30 36 H 9.834980 7.001272 -12.433217 0
M  V30 37 H 10.130159 8.684288 -10.570832 0
M  V30 38 H 8.486567 8.084525 -10.702481 0
M  V30 39 H 9.417047 9.372131 -8.505717 0
M  V30 40 H 8.222400 8.373293 -7.745514 0
M  V30 41 H 10.605939 6.083004 -6.565106 0
M  V30 42 H 12.031820 5.834785 -3.935312 0
M  V30 43 H 12.790245 7.231686 -2.044152 0
M  V30 44 H 12.438154 9.711855 -2.083109 0
M  V30 45 H 11.286464 10.758011 -4.065444 0
M  V30 46 H 8.758028 5.787726 -7.788230 0
M  V30 47 H 7.687685 6.308047 -9.048572 0
M  V30 48 H 8.493318 4.171970 -9.676848 0
M  V30 49 H 10.169938 4.592751 -9.392131 0
M  V30 50 H 10.513643 7.061348 -8.858956 0
M  V30 END ATOM
M  V30 BEGIN BOND
M  V30 1 1 2 1
M  V30 2 1 3 2
M  V30 3 1 4 3
M  V30 4 1 5 4
M  V30 5 2 6 5
M  V30 6 1 7 6
M  V30 7 2 8 7
M  V30 8 1 9 8
M  V30 9 1 10 5
M  V30 10 2 10 9
M  V30 11 1 11 10
M  V30 12 1 12 11
M  V30 13 1 13 12
M  V30 14 1 14 13
M  V30 15 1 15 14
M  V30 16 1 16 15
M  V30 17 1 17 16
M  V30 18 2 18 17
M  V30 19 1 19 18
M  V30 20 2 20 19
M  V30 21 1 21 20
M  V30 22 2 22 21
M  V30 23 1 23 18
M  V30 24 1 23 22
M  V30 25 2 24 16
M  V30 26 1 24 23
M  V30 27 1 25 14
M  V30 28 1 26 11
M  V30 29 1 26 25
M  V30 30 1 27 2
M  V30 31 1 28 2
M  V30 32 1 29 3
M  V30 33 1 30 3
M  V30 34 1 31 6
M  V30 35 1 32 7
M  V30 36 1 33 8
M  V30 37 1 34 9
M  V30 38 1 35 12
M  V30 39 1 36 12
M  V30 40 1 37 13
M  V30 41 1 38 13
M  V30 42 1 39 15
M  V30 43 1 40 15
M  V30 44 1 41 17
M  V30 45 1 42 19
M  V30 46 1 43 20
M  V30 47 1 44 21
M  V30 48 1 45 22
M  V30 49 1 46 25
M  V30 50 1 47 25
M  V30 51 1 48 26
M  V30 52 1 49 26
M  V30 53 1 50 14
M  V30 END BOND
M  V30 END CTAB
M  END
>  <b_m_subgroup_collapsed>  (1084) 
0

>  <r_i_docking_score>  (1084) 
-7.50389230363173

>  <s_m_subgroup_title>  (1084) 
glide-dock_SP_D22_pv

>  <s_m_subgroupid>  (1084) 
glide-dock_SP_D22_pv

>  <Molecule ChEMBL ID>  (1084) 
CHEMBL405260

>  <Standard Type>  (1084) 
Ki

>  <Standard Value>  (1084) 
46.0

>  <label>  (1084) 
1

$$$$
CHEMBL4846561
     RDKit          3D

  0  0  0  0  0  0  0  0  0  0999 V3000
M  V30 BEGIN CTAB
M  V30 COUNTS 79 82 0 0 1
M  V30 BEGIN ATOM
M  V30 1 C 14.705875 10.308070 -18.241871 0
M  V30 2 C 15.109843 8.864876 -18.577204 0
M  V30 3 C 13.914461 7.920403 -18.646193 0
M  V30 4 C 12.918788 8.172191 -19.606436 0
M  V30 5 C 11.782784 7.355615 -19.691088 0
M  V30 6 Cl 10.578732 7.726208 -20.874556 0
M  V30 7 C 11.631801 6.250803 -18.825132 0
M  V30 8 O 10.509822 5.468017 -18.960855 0
M  V30 9 C 9.381045 5.946870 -18.247238 0
M  V30 10 C 12.646071 5.949439 -17.868401 0
M  V30 11 C 12.506352 4.771354 -16.927731 0
M  V30 12 O 12.958375 4.815431 -15.782597 0
M  V30 13 N 11.893736 3.683475 -17.419992 0
M  V30 14 C 11.533849 2.478594 -16.675655 0
M  V30 15 C 10.053827 2.520948 -16.223761 0 CFG=2
M  V30 16 C 9.771377 3.612531 -15.165349 0
M  V30 17 C 9.490511 2.864157 -13.871885 0 CFG=1
M  V30 18 O 8.581163 3.591475 -13.063082 0
M  V30 19 C 9.197458 4.391391 -12.071582 0
M  V30 20 C 8.081531 5.041074 -11.245512 0
M  V30 21 C 8.562502 5.597239 -9.899714 0
M  V30 22 C 9.446079 6.846750 -10.016449 0
M  V30 23 N 9.910458 7.226501 -8.692904 0
M  V30 24 C 10.391446 8.422258 -8.334787 0
M  V30 25 O 10.513258 9.371442 -9.107705 0
M  V30 26 C 10.768489 8.532498 -6.911590 0
M  V30 27 C 10.985183 9.627469 -6.101560 0
M  V30 28 C 11.357543 9.117038 -4.812579 0
M  V30 29 C 11.704624 9.635459 -3.542573 0
M  V30 30 C 12.086663 8.782751 -2.484593 0
M  V30 31 C 12.085206 7.384069 -2.658389 0
M  V30 32 C 11.690893 6.839443 -3.893560 0
M  V30 33 C 11.346549 7.708362 -4.938975 0
M  V30 34 O 10.968144 7.363544 -6.214392 0
M  V30 35 C 8.858932 1.578322 -14.381264 0
M  V30 36 N 9.606786 1.236723 -15.609576 0 CFG=1 CHG=1
M  V30 37 C 8.835195 0.325732 -16.495012 0
M  V30 38 C 9.722579 -0.468329 -17.461102 0
M  V30 39 C 13.779008 6.809400 -17.776091 0
M  V30 40 O 14.757360 6.572037 -16.847334 0
M  V30 41 H 15.581314 10.938382 -18.095547 0
M  V30 42 H 14.110224 10.754458 -19.038403 0
M  V30 43 H 14.112070 10.350756 -17.329115 0
M  V30 44 H 15.843263 8.522738 -17.849159 0
M  V30 45 H 15.618990 8.845743 -19.541533 0
M  V30 46 H 13.013245 9.013324 -20.277382 0
M  V30 47 H 8.488902 5.408772 -18.570036 0
M  V30 48 H 9.510473 5.771632 -17.179449 0
M  V30 49 H 9.206591 7.011568 -18.407145 0
M  V30 50 H 11.567332 3.752032 -18.374735 0
M  V30 51 H 11.716546 1.631079 -17.334421 0
M  V30 52 H 12.196754 2.338066 -15.823059 0
M  V30 53 H 9.435785 2.735319 -17.098465 0
M  V30 54 H 10.566974 4.339502 -15.025191 0
M  V30 55 H 8.886165 4.176085 -15.457754 0
M  V30 56 H 10.420225 2.611658 -13.357288 0
M  V30 57 H 9.816546 3.764223 -11.430068 0
M  V30 58 H 9.840586 5.145234 -12.527177 0
M  V30 59 H 7.582894 5.820591 -11.823319 0
M  V30 60 H 7.319643 4.287197 -11.043101 0
M  V30 61 H 7.686823 5.843832 -9.297493 0
M  V30 62 H 9.089068 4.814694 -9.352366 0
M  V30 63 H 10.314094 6.653584 -10.647014 0
M  V30 64 H 8.885188 7.664975 -10.472376 0
M  V30 65 H 9.836913 6.534866 -7.961198 0
M  V30 66 H 10.901544 10.666438 -6.381405 0
M  V30 67 H 11.685771 10.698323 -3.371490 0
M  V30 68 H 12.362136 9.208939 -1.530203 0
M  V30 69 H 12.368247 6.729265 -1.847295 0
M  V30 70 H 11.666472 5.773014 -4.046576 0
M  V30 71 H 8.885805 0.770423 -13.648866 0
M  V30 72 H 7.812032 1.764969 -14.628024 0
M  V30 73 H 8.302533 -0.391208 -15.868399 0
M  V30 74 H 8.065714 0.876346 -17.039625 0
M  V30 75 H 9.125189 -1.191201 -18.018351 0
M  V30 76 H 10.207490 0.175327 -18.193924 0
M  V30 77 H 10.489923 -1.027630 -16.926291 0
M  V30 78 H 14.485174 5.926119 -16.205622 0
M  V30 79 H 10.434866 0.745805 -15.302770 0
M  V30 END ATOM
M  V30 BEGIN BOND
M  V30 1 1 2 1
M  V30 2 1 3 2
M  V30 3 1 4 3
M  V30 4 2 5 4
M  V30 5 1 6 5
M  V30 6 1 7 5
M  V30 7 1 8 7
M  V30 8 1 9 8
M  V30 9 2 10 7
M  V30 10 1 11 10
M  V30 11 2 12 11
M  V30 12 1 13 11
M  V30 13 1 14 13
M  V30 14 1 15 14
M  V30 15 1 16 15
M  V30 16 1 17 16
M  V30 17 1 18 17
M  V30 18 1 19 18
M  V30 19 1 20 19
M  V30 20 1 21 20
M  V30 21 1 22 21
M  V30 22 1 23 22
M  V30 23 1 24 23
M  V30 24 2 25 24
M  V30 25 1 26 24
M  V30 26 2 27 26
M  V30 27 1 28 27
M  V30 28 2 29 28
M  V30 29 1 30 29
M  V30 30 2 31 30
M  V30 31 1 32 31
M  V30 32 1 33 28
M  V30 33 2 33 32
M  V30 34 1 34 26
M  V30 35 1 34 33
M  V30 36 1 35 17
M  V30 37 1 36 15
M  V30 38 1 36 35
M  V30 39 1 37 36
M  V30 40 1 38 37
M  V30 41 2 39 3
M  V30 42 1 39 10
M  V30 43 1 40 39
M  V30 44 1 41 1
M  V30 45 1 42 1
M  V30 46 1 43 1
M  V30 47 1 44 2
M  V30 48 1 45 2
M  V30 49 1 46 4
M  V30 50 1 47 9
M  V30 51 1 48 9
M  V30 52 1 49 9
M  V30 53 1 50 13
M  V30 54 1 51 14
M  V30 55 1 52 14
M  V30 56 1 15 53 CFG=3
M  V30 57 1 54 16
M  V30 58 1 55 16
M  V30 59 1 17 56 CFG=1
M  V30 60 1 57 19
M  V30 61 1 58 19
M  V30 62 1 59 20
M  V30 63 1 60 20
M  V30 64 1 61 21
M  V30 65 1 62 21
M  V30 66 1 63 22
M  V30 67 1 64 22
M  V30 68 1 65 23
M  V30 69 1 66 27
M  V30 70 1 67 29
M  V30 71 1 68 30
M  V30 72 1 69 31
M  V30 73 1 70 32
M  V30 74 1 71 35
M  V30 75 1 72 35
M  V30 76 1 73 37
M  V30 77 1 74 37
M  V30 78 1 75 38
M  V30 79 1 76 38
M  V30 80 1 77 38
M  V30 81 1 78 40
M  V30 82 1 36 79 CFG=1
M  V30 END BOND
M  V30 END CTAB
M  END
>  <b_m_subgroup_collapsed>  (1085) 
0

>  <r_i_docking_score>  (1085) 
-7.5032733621280903

>  <s_m_subgroup_title>  (1085) 
glide-dock_SP_D22_pv

>  <s_m_subgroupid>  (1085) 
glide-dock_SP_D22_pv

>  <Molecule ChEMBL ID>  (1085) 
CHEMBL4846561

>  <Standard Type>  (1085) 
Ki

>  <Standard Value>  (1085) 
0.947

>  <label>  (1085) 
1

$$$$
CHEMBL543587
     RDKit          3D

  0  0  0  0  0  0  0  0  0  0999 V3000
M  V30 BEGIN CTAB
M  V30 COUNTS 47 48 0 0 1
M  V30 BEGIN ATOM
M  V30 1 C 8.554870 8.446433 -12.246899 0
M  V30 2 C 9.057693 7.001484 -12.080304 0
M  V30 3 N 8.085996 6.172323 -11.315454 0 CHG=1
M  V30 4 C 6.954351 5.643861 -12.125256 0
M  V30 5 C 7.347233 4.577194 -13.163387 0
M  V30 6 C 8.651188 5.182671 -10.356550 0
M  V30 7 C 9.688869 5.754277 -9.368595 0
M  V30 8 C 9.342010 7.118086 -8.724103 0
M  V30 9 C 10.560541 7.917442 -8.206012 0 CFG=1
M  V30 10 C 11.622060 8.252370 -9.275987 0
M  V30 11 O 10.100647 9.178345 -7.732405 0
M  V30 12 C 10.485943 9.308416 -6.429474 0
M  V30 13 C 11.080397 8.248481 -5.881786 0
M  V30 14 C 11.596924 8.162566 -4.510789 0
M  V30 15 C 11.838290 9.347462 -3.783999 0
M  V30 16 C 12.285217 9.273618 -2.456231 0
M  V30 17 C 12.485997 8.028065 -1.846961 0
M  V30 18 C 12.215079 6.842895 -2.555125 0
M  V30 19 C 11.764506 6.909975 -3.883770 0
M  V30 20 C 11.181494 7.292043 -6.963069 0
M  V30 21 O 11.685962 6.172394 -6.931650 0
M  V30 22 H 9.284212 9.053422 -12.782314 0
M  V30 23 H 7.620065 8.489075 -12.805413 0
M  V30 24 H 8.386289 8.935173 -11.287646 0
M  V30 25 H 10.020409 7.056720 -11.579070 0
M  V30 26 H 9.270533 6.552245 -13.046660 0
M  V30 27 H 6.208211 5.229461 -11.446910 0
M  V30 28 H 6.454344 6.473426 -12.624969 0
M  V30 29 H 6.458171 4.201775 -13.670171 0
M  V30 30 H 8.006668 4.971313 -13.936110 0
M  V30 31 H 7.839895 3.723658 -12.701737 0
M  V30 32 H 9.109045 4.358780 -10.904341 0
M  V30 33 H 7.830744 4.750639 -9.786119 0
M  V30 34 H 10.636898 5.822100 -9.887625 0
M  V30 35 H 9.865063 5.018303 -8.582743 0
M  V30 36 H 8.622375 6.958941 -7.918565 0
M  V30 37 H 8.828080 7.765691 -9.426682 0
M  V30 38 H 12.144385 7.372327 -9.646125 0
M  V30 39 H 11.170277 8.760427 -10.127589 0
M  V30 40 H 12.384558 8.921351 -8.874237 0
M  V30 41 H 10.255989 10.256253 -5.973941 0
M  V30 42 H 11.685798 10.317294 -4.230062 0
M  V30 43 H 12.485977 10.172285 -1.898583 0
M  V30 44 H 12.884122 7.987550 -0.844298 0
M  V30 45 H 12.358860 5.881330 -2.082484 0
M  V30 46 H 11.546548 5.990527 -4.407514 0
M  V30 47 H 7.591362 6.844656 -10.717113 0
M  V30 END ATOM
M  V30 BEGIN BOND
M  V30 1 1 2 1
M  V30 2 1 3 2
M  V30 3 1 4 3
M  V30 4 1 5 4
M  V30 5 1 6 3
M  V30 6 1 7 6
M  V30 7 1 8 7
M  V30 8 1 9 8 CFG=3
M  V30 9 1 10 9
M  V30 10 1 11 9
M  V30 11 1 12 11
M  V30 12 2 13 12
M  V30 13 1 14 13
M  V30 14 2 15 14
M  V30 15 1 16 15
M  V30 16 2 17 16
M  V30 17 1 18 17
M  V30 18 1 19 14
M  V30 19 2 19 18
M  V30 20 1 20 9
M  V30 21 1 20 13
M  V30 22 2 21 20
M  V30 23 1 22 1
M  V30 24 1 23 1
M  V30 25 1 24 1
M  V30 26 1 25 2
M  V30 27 1 26 2
M  V30 28 1 27 4
M  V30 29 1 28 4
M  V30 30 1 29 5
M  V30 31 1 30 5
M  V30 32 1 31 5
M  V30 33 1 32 6
M  V30 34 1 33 6
M  V30 35 1 34 7
M  V30 36 1 35 7
M  V30 37 1 36 8
M  V30 38 1 37 8
M  V30 39 1 38 10
M  V30 40 1 39 10
M  V30 41 1 40 10
M  V30 42 1 41 12
M  V30 43 1 42 15
M  V30 44 1 43 16
M  V30 45 1 44 17
M  V30 46 1 45 18
M  V30 47 1 46 19
M  V30 48 1 47 3
M  V30 END BOND
M  V30 END CTAB
M  END
>  <b_m_subgroup_collapsed>  (1086) 
0

>  <r_i_docking_score>  (1086) 
-7.50191643516456

>  <s_m_subgroup_title>  (1086) 
glide-dock_SP_D22_pv

>  <s_m_subgroupid>  (1086) 
glide-dock_SP_D22_pv

>  <Molecule ChEMBL ID>  (1086) 
CHEMBL543587

>  <Standard Type>  (1086) 
Ki

>  <Standard Value>  (1086) 
10000.0

>  <label>  (1086) 
0

$$$$
CHEMBL5272829
     RDKit          3D

  0  0  0  0  0  0  0  0  0  0999 V3000
M  V30 BEGIN CTAB
M  V30 COUNTS 51 52 0 0 1
M  V30 BEGIN ATOM
M  V30 1 C 11.997787 9.576234 -3.117587 0
M  V30 2 C 12.505625 9.282499 -4.529923 0
M  V30 3 S 11.284417 9.768980 -5.783587 0
M  V30 4 C 11.448396 8.415453 -6.988331 0 CFG=1
M  V30 5 C 11.061713 7.041856 -6.402928 0
M  V30 6 C 10.004473 6.455293 -7.341395 0
M  V30 7 C 10.206941 7.187403 -8.673014 0 CFG=1
M  V30 8 N 9.037506 7.111169 -9.595349 0 CFG=2 CHG=1
M  V30 9 C 8.429775 5.759927 -9.687778 0
M  V30 10 C 9.259643 7.759237 -10.921852 0
M  V30 11 C 10.218450 7.007849 -11.846878 0
M  V30 12 O 11.392208 7.366504 -11.922108 0
M  V30 13 N 9.674327 5.976775 -12.517769 0
M  V30 14 C 10.279049 5.075768 -13.427443 0
M  V30 15 C 9.731622 3.779444 -13.507774 0
M  V30 16 C 10.227551 2.855340 -14.444627 0
M  V30 17 C 11.263243 3.222165 -15.328373 0
M  V30 18 C 11.737359 2.221920 -16.367708 0
M  V30 19 C 11.822033 4.521177 -15.246751 0
M  V30 20 C 12.922364 4.958318 -16.195942 0
M  V30 21 C 11.332685 5.441947 -14.293433 0
M  V30 22 C 10.541421 8.612076 -8.211691 0
M  V30 23 H 12.767536 9.371998 -2.372155 0
M  V30 24 H 11.688083 10.615197 -3.014310 0
M  V30 25 H 11.135452 8.955283 -2.881579 0
M  V30 26 H 12.720881 8.218689 -4.606702 0
M  V30 27 H 13.443739 9.805045 -4.724225 0
M  V30 28 H 12.481974 8.386529 -7.335161 0
M  V30 29 H 10.669573 7.109161 -5.386743 0
M  V30 30 H 11.935370 6.388915 -6.369368 0
M  V30 31 H 9.012696 6.670799 -6.937864 0
M  V30 32 H 10.099931 5.373363 -7.446917 0
M  V30 33 H 11.079894 6.753738 -9.161672 0
M  V30 34 H 9.156781 5.002413 -9.985402 0
M  V30 35 H 8.002471 5.454785 -8.733636 0
M  V30 36 H 7.612511 5.761631 -10.409629 0
M  V30 37 H 9.618330 8.779276 -10.786413 0
M  V30 38 H 8.309295 7.862463 -11.446609 0
M  V30 39 H 8.709782 5.773274 -12.301854 0
M  V30 40 H 8.921599 3.484956 -12.855559 0
M  V30 41 H 9.795517 1.866722 -14.491401 0
M  V30 42 H 11.214026 1.269039 -16.268980 0
M  V30 43 H 11.556250 2.601601 -17.373112 0
M  V30 44 H 12.803276 2.025517 -16.259092 0
M  V30 45 H 13.394763 5.883194 -15.861360 0
M  V30 46 H 13.694788 4.193805 -16.260799 0
M  V30 47 H 12.517147 5.120483 -17.196617 0
M  V30 48 H 11.745377 6.438404 -14.259905 0
M  V30 49 H 11.033094 9.204563 -8.984276 0
M  V30 50 H 9.627101 9.134500 -7.922857 0
M  V30 51 H 8.289840 7.659115 -9.180532 0
M  V30 END ATOM
M  V30 BEGIN BOND
M  V30 1 1 2 1
M  V30 2 1 3 2
M  V30 3 1 4 3
M  V30 4 1 5 4
M  V30 5 1 6 5
M  V30 6 1 7 6
M  V30 7 1 8 7
M  V30 8 1 9 8
M  V30 9 1 10 8
M  V30 10 1 11 10
M  V30 11 2 12 11
M  V30 12 1 13 11
M  V30 13 1 14 13
M  V30 14 1 15 14
M  V30 15 2 16 15
M  V30 16 1 17 16
M  V30 17 1 18 17
M  V30 18 2 19 17
M  V30 19 1 20 19
M  V30 20 2 21 14
M  V30 21 1 21 19
M  V30 22 1 22 4
M  V30 23 1 22 7
M  V30 24 1 23 1
M  V30 25 1 24 1
M  V30 26 1 25 1
M  V30 27 1 26 2
M  V30 28 1 27 2
M  V30 29 1 4 28 CFG=3
M  V30 30 1 29 5
M  V30 31 1 30 5
M  V30 32 1 31 6
M  V30 33 1 32 6
M  V30 34 1 7 33 CFG=3
M  V30 35 1 34 9
M  V30 36 1 35 9
M  V30 37 1 36 9
M  V30 38 1 37 10
M  V30 39 1 38 10
M  V30 40 1 39 13
M  V30 41 1 40 15
M  V30 42 1 41 16
M  V30 43 1 42 18
M  V30 44 1 43 18
M  V30 45 1 44 18
M  V30 46 1 45 20
M  V30 47 1 46 20
M  V30 48 1 47 20
M  V30 49 1 48 21
M  V30 50 1 49 22
M  V30 51 1 50 22
M  V30 52 1 8 51 CFG=1
M  V30 END BOND
M  V30 END CTAB
M  END
>  <b_m_subgroup_collapsed>  (1087) 
0

>  <r_i_docking_score>  (1087) 
-7.50101552138696

>  <s_m_subgroup_title>  (1087) 
glide-dock_SP_D22_pv

>  <s_m_subgroupid>  (1087) 
glide-dock_SP_D22_pv

>  <Molecule ChEMBL ID>  (1087) 
CHEMBL5272829

>  <Standard Type>  (1087) 
Ki

>  <Standard Value>  (1087) 
10000.0

>  <label>  (1087) 
0

$$$$
CHEMBL3335535
     RDKit          3D

  0  0  0  0  0  0  0  0  0  0999 V3000
M  V30 BEGIN CTAB
M  V30 COUNTS 47 50 0 0 1
M  V30 BEGIN ATOM
M  V30 1 C 7.068142 2.445271 -14.586702 0
M  V30 2 C 8.413126 2.832862 -14.446759 0
M  V30 3 C 8.772510 3.772249 -13.463738 0
M  V30 4 C 7.785567 4.345252 -12.629974 0
M  V30 5 C 8.176927 5.287681 -11.508299 0
M  V30 6 C 9.029775 6.485584 -11.961697 0
M  V30 7 C 9.980970 6.951125 -10.856605 0 CFG=2
M  V30 8 C 9.290143 7.732685 -9.725343 0
M  V30 9 N 10.260658 8.069233 -8.690722 0
M  V30 10 C 9.644590 8.731731 -7.547022 0
M  V30 11 C 10.485288 8.637175 -6.310876 0
M  V30 12 N 10.866001 9.664927 -5.544629 0
M  V30 13 C 11.459615 9.024812 -4.464920 0
M  V30 14 C 11.980042 9.526737 -3.250408 0
M  V30 15 C 12.484746 8.657691 -2.263070 0
M  V30 16 C 12.486002 7.266517 -2.477939 0
M  V30 17 C 11.986262 6.743263 -3.679515 0
M  V30 18 C 11.467834 7.612957 -4.646989 0
M  V30 19 N 10.851507 7.423282 -5.866052 0
M  V30 20 C 11.341575 8.860757 -9.277582 0
M  V30 21 C 11.986555 8.151862 -10.482336 0
M  V30 22 O 10.992664 7.772512 -11.429612 0
M  V30 23 C 6.437927 3.966401 -12.783349 0
M  V30 24 C 6.085521 3.010211 -13.751648 0
M  V30 25 H 6.789783 1.709493 -15.327304 0
M  V30 26 H 9.171955 2.393162 -15.077612 0
M  V30 27 H 9.813622 4.027863 -13.336739 0
M  V30 28 H 7.290420 5.648768 -10.984574 0
M  V30 29 H 8.718815 4.684373 -10.780810 0
M  V30 30 H 9.653462 6.200564 -12.806641 0
M  V30 31 H 8.397776 7.298573 -12.318885 0
M  V30 32 H 10.472090 6.073276 -10.431870 0
M  V30 33 H 8.825909 8.636578 -10.120522 0
M  V30 34 H 8.487108 7.127705 -9.298520 0
M  V30 35 H 9.423086 9.772196 -7.777788 0
M  V30 36 H 8.687290 8.260359 -7.315899 0
M  V30 37 H 11.961179 10.581101 -3.047211 0
M  V30 38 H 12.867669 9.066963 -1.338488 0
M  V30 39 H 12.872655 6.596895 -1.722648 0
M  V30 40 H 11.974556 5.684311 -3.851666 0
M  V30 41 H 10.631103 6.558188 -6.340172 0
M  V30 42 H 12.107418 9.063629 -8.527883 0
M  V30 43 H 10.954193 9.827402 -9.602107 0
M  V30 44 H 12.521754 7.262845 -10.152371 0
M  V30 45 H 12.714492 8.800892 -10.968640 0
M  V30 46 H 5.677467 4.378996 -12.135038 0
M  V30 47 H 5.056461 2.700783 -13.843659 0
M  V30 END ATOM
M  V30 BEGIN BOND
M  V30 1 2 2 1
M  V30 2 1 3 2
M  V30 3 2 4 3
M  V30 4 1 5 4
M  V30 5 1 6 5
M  V30 6 1 7 6
M  V30 7 1 8 7
M  V30 8 1 9 8
M  V30 9 1 10 9
M  V30 10 1 11 10
M  V30 11 2 12 11
M  V30 12 1 13 12
M  V30 13 2 14 13
M  V30 14 1 15 14
M  V30 15 2 16 15
M  V30 16 1 17 16
M  V30 17 1 18 13
M  V30 18 2 18 17
M  V30 19 1 19 11
M  V30 20 1 19 18
M  V30 21 1 20 9
M  V30 22 1 21 20
M  V30 23 1 22 7
M  V30 24 1 22 21
M  V30 25 1 23 4
M  V30 26 1 24 1
M  V30 27 2 24 23
M  V30 28 1 25 1
M  V30 29 1 26 2
M  V30 30 1 27 3
M  V30 31 1 28 5
M  V30 32 1 29 5
M  V30 33 1 30 6
M  V30 34 1 31 6
M  V30 35 1 7 32 CFG=1
M  V30 36 1 33 8
M  V30 37 1 34 8
M  V30 38 1 35 10
M  V30 39 1 36 10
M  V30 40 1 37 14
M  V30 41 1 38 15
M  V30 42 1 39 16
M  V30 43 1 40 17
M  V30 44 1 41 19
M  V30 45 1 42 20
M  V30 46 1 43 20
M  V30 47 1 44 21
M  V30 48 1 45 21
M  V30 49 1 46 23
M  V30 50 1 47 24
M  V30 END BOND
M  V30 END CTAB
M  END
>  <b_m_subgroup_collapsed>  (1088) 
0

>  <r_i_docking_score>  (1088) 
-7.5006812540713499

>  <s_m_subgroup_title>  (1088) 
glide-dock_SP_D22_pv

>  <s_m_subgroupid>  (1088) 
glide-dock_SP_D22_pv

>  <Molecule ChEMBL ID>  (1088) 
CHEMBL3335535

>  <Standard Type>  (1088) 
Ki

>  <Standard Value>  (1088) 
100000.0

>  <label>  (1088) 
0

$$$$
CHEMBL3335537
     RDKit          3D

  0  0  0  0  0  0  0  0  0  0999 V3000
M  V30 BEGIN CTAB
M  V30 COUNTS 47 50 0 0 1
M  V30 BEGIN ATOM
M  V30 1 C 7.068142 2.445271 -14.586702 0
M  V30 2 C 8.413126 2.832862 -14.446759 0
M  V30 3 C 8.772510 3.772249 -13.463738 0
M  V30 4 C 7.785567 4.345252 -12.629974 0
M  V30 5 C 8.176927 5.287681 -11.508299 0
M  V30 6 C 9.029775 6.485584 -11.961697 0
M  V30 7 C 9.980970 6.951125 -10.856605 0 CFG=2
M  V30 8 C 9.290143 7.732685 -9.725343 0
M  V30 9 N 10.260658 8.069233 -8.690722 0
M  V30 10 C 9.644590 8.731731 -7.547022 0
M  V30 11 C 10.485288 8.637175 -6.310876 0
M  V30 12 N 10.866001 9.664927 -5.544629 0
M  V30 13 C 11.459615 9.024812 -4.464920 0
M  V30 14 C 11.980042 9.526737 -3.250408 0
M  V30 15 C 12.484746 8.657691 -2.263070 0
M  V30 16 C 12.486002 7.266517 -2.477939 0
M  V30 17 C 11.986262 6.743263 -3.679515 0
M  V30 18 C 11.467834 7.612957 -4.646989 0
M  V30 19 N 10.851507 7.423282 -5.866052 0
M  V30 20 C 11.341575 8.860757 -9.277582 0
M  V30 21 C 11.986555 8.151862 -10.482336 0
M  V30 22 O 10.992664 7.772512 -11.429612 0
M  V30 23 C 6.437927 3.966401 -12.783349 0
M  V30 24 C 6.085521 3.010211 -13.751648 0
M  V30 25 H 6.789783 1.709493 -15.327304 0
M  V30 26 H 9.171955 2.393162 -15.077612 0
M  V30 27 H 9.813622 4.027863 -13.336739 0
M  V30 28 H 7.290420 5.648768 -10.984574 0
M  V30 29 H 8.718815 4.684373 -10.780810 0
M  V30 30 H 9.653462 6.200564 -12.806641 0
M  V30 31 H 8.397776 7.298573 -12.318885 0
M  V30 32 H 10.472090 6.073276 -10.431870 0
M  V30 33 H 8.825909 8.636578 -10.120522 0
M  V30 34 H 8.487108 7.127705 -9.298520 0
M  V30 35 H 9.423086 9.772196 -7.777788 0
M  V30 36 H 8.687290 8.260359 -7.315899 0
M  V30 37 H 11.961179 10.581101 -3.047211 0
M  V30 38 H 12.867669 9.066963 -1.338488 0
M  V30 39 H 12.872655 6.596895 -1.722648 0
M  V30 40 H 11.974556 5.684311 -3.851666 0
M  V30 41 H 10.631103 6.558188 -6.340172 0
M  V30 42 H 12.107418 9.063629 -8.527883 0
M  V30 43 H 10.954193 9.827402 -9.602107 0
M  V30 44 H 12.521754 7.262845 -10.152371 0
M  V30 45 H 12.714492 8.800892 -10.968640 0
M  V30 46 H 5.677467 4.378996 -12.135038 0
M  V30 47 H 5.056461 2.700783 -13.843659 0
M  V30 END ATOM
M  V30 BEGIN BOND
M  V30 1 2 2 1
M  V30 2 1 3 2
M  V30 3 2 4 3
M  V30 4 1 5 4
M  V30 5 1 6 5
M  V30 6 1 7 6
M  V30 7 1 8 7
M  V30 8 1 9 8
M  V30 9 1 10 9
M  V30 10 1 11 10
M  V30 11 2 12 11
M  V30 12 1 13 12
M  V30 13 2 14 13
M  V30 14 1 15 14
M  V30 15 2 16 15
M  V30 16 1 17 16
M  V30 17 1 18 13
M  V30 18 2 18 17
M  V30 19 1 19 11
M  V30 20 1 19 18
M  V30 21 1 20 9
M  V30 22 1 21 20
M  V30 23 1 22 7
M  V30 24 1 22 21
M  V30 25 1 23 4
M  V30 26 1 24 1
M  V30 27 2 24 23
M  V30 28 1 25 1
M  V30 29 1 26 2
M  V30 30 1 27 3
M  V30 31 1 28 5
M  V30 32 1 29 5
M  V30 33 1 30 6
M  V30 34 1 31 6
M  V30 35 1 7 32 CFG=1
M  V30 36 1 33 8
M  V30 37 1 34 8
M  V30 38 1 35 10
M  V30 39 1 36 10
M  V30 40 1 37 14
M  V30 41 1 38 15
M  V30 42 1 39 16
M  V30 43 1 40 17
M  V30 44 1 41 19
M  V30 45 1 42 20
M  V30 46 1 43 20
M  V30 47 1 44 21
M  V30 48 1 45 21
M  V30 49 1 46 23
M  V30 50 1 47 24
M  V30 END BOND
M  V30 END CTAB
M  END
>  <b_m_subgroup_collapsed>  (1089) 
0

>  <r_i_docking_score>  (1089) 
-7.5006812540713499

>  <s_m_subgroup_title>  (1089) 
glide-dock_SP_D22_pv

>  <s_m_subgroupid>  (1089) 
glide-dock_SP_D22_pv

>  <Molecule ChEMBL ID>  (1089) 
CHEMBL3335537

>  <Standard Type>  (1089) 
Ki

>  <Standard Value>  (1089) 
100000.0

>  <label>  (1089) 
0

$$$$
CHEMBL5403610
     RDKit          3D

  0  0  0  0  0  0  0  0  0  0999 V3000
M  V30 BEGIN CTAB
M  V30 COUNTS 49 52 0 0 1
M  V30 BEGIN ATOM
M  V30 1 C 8.655567 -0.041618 -16.006195 0
M  V30 2 C 8.423252 1.246311 -15.249197 0
M  V30 3 C 7.116090 1.667387 -14.933389 0
M  V30 4 C 6.907524 2.878568 -14.243457 0
M  V30 5 C 7.994468 3.690611 -13.846906 0
M  V30 6 N 7.931368 4.908803 -13.175858 0
M  V30 7 C 9.167448 5.387982 -12.987145 0
M  V30 8 C 9.442370 6.690925 -12.315760 0
M  V30 9 C 9.490869 6.607572 -10.785797 0
M  V30 10 C 10.450256 7.659683 -10.203582 0
M  V30 11 N 10.247704 7.933812 -8.782919 0
M  V30 12 C 10.323845 6.721397 -7.958430 0
M  V30 13 C 10.110943 7.080091 -6.478016 0
M  V30 14 N 11.126478 8.039686 -6.058359 0
M  V30 15 C 11.510556 8.090211 -4.705606 0
M  V30 16 C 11.729206 6.897722 -3.980212 0
M  V30 17 C 12.164223 6.973128 -2.646766 0
M  V30 18 C 12.368453 8.240015 -2.074738 0
M  V30 19 C 12.095394 9.372380 -2.860534 0
M  V30 20 N 11.684907 9.307534 -4.141891 0
M  V30 21 C 11.127422 9.248136 -6.875190 0
M  V30 22 C 11.293821 8.871300 -8.358309 0
M  V30 23 S 10.493817 4.385587 -13.580767 0
M  V30 24 C 9.306450 3.235408 -14.169232 0
M  V30 25 C 9.523255 2.031616 -14.860159 0
M  V30 26 H 9.406502 -0.643046 -15.493903 0
M  V30 27 H 7.738759 -0.627287 -16.082378 0
M  V30 28 H 9.011102 0.170071 -17.014904 0
M  V30 29 H 6.267579 1.065140 -15.224504 0
M  V30 30 H 5.902971 3.198878 -14.011497 0
M  V30 31 H 8.699412 7.424344 -12.633251 0
M  V30 32 H 10.403856 7.047221 -12.686846 0
M  V30 33 H 9.831053 5.615889 -10.486238 0
M  V30 34 H 8.486226 6.720839 -10.382603 0
M  V30 35 H 10.309623 8.598848 -10.740191 0
M  V30 36 H 11.479249 7.346533 -10.386642 0
M  V30 37 H 11.285053 6.224715 -8.095188 0
M  V30 38 H 9.547838 6.014706 -8.252541 0
M  V30 39 H 10.122439 6.172316 -5.880953 0
M  V30 40 H 9.123153 7.523886 -6.339623 0
M  V30 41 H 11.606823 5.925622 -4.432691 0
M  V30 42 H 12.348942 6.073446 -2.077502 0
M  V30 43 H 12.698631 8.347733 -1.052513 0
M  V30 44 H 12.195467 10.363692 -2.448826 0
M  V30 45 H 10.190070 9.781787 -6.720504 0
M  V30 46 H 11.938394 9.916457 -6.584377 0
M  V30 47 H 12.280422 8.431128 -8.516320 0
M  V30 48 H 11.248806 9.772044 -8.971000 0
M  V30 49 H 10.531027 1.717357 -15.089219 0
M  V30 END ATOM
M  V30 BEGIN BOND
M  V30 1 1 2 1
M  V30 2 1 3 2
M  V30 3 2 4 3
M  V30 4 1 5 4
M  V30 5 1 6 5
M  V30 6 2 7 6
M  V30 7 1 8 7
M  V30 8 1 9 8
M  V30 9 1 10 9
M  V30 10 1 11 10
M  V30 11 1 12 11
M  V30 12 1 13 12
M  V30 13 1 14 13
M  V30 14 1 15 14
M  V30 15 2 16 15
M  V30 16 1 17 16
M  V30 17 2 18 17
M  V30 18 1 19 18
M  V30 19 1 20 15
M  V30 20 2 20 19
M  V30 21 1 21 14
M  V30 22 1 22 11
M  V30 23 1 22 21
M  V30 24 1 23 7
M  V30 25 2 24 5
M  V30 26 1 24 23
M  V30 27 2 25 2
M  V30 28 1 25 24
M  V30 29 1 26 1
M  V30 30 1 27 1
M  V30 31 1 28 1
M  V30 32 1 29 3
M  V30 33 1 30 4
M  V30 34 1 31 8
M  V30 35 1 32 8
M  V30 36 1 33 9
M  V30 37 1 34 9
M  V30 38 1 35 10
M  V30 39 1 36 10
M  V30 40 1 37 12
M  V30 41 1 38 12
M  V30 42 1 39 13
M  V30 43 1 40 13
M  V30 44 1 41 16
M  V30 45 1 42 17
M  V30 46 1 43 18
M  V30 47 1 44 19
M  V30 48 1 45 21
M  V30 49 1 46 21
M  V30 50 1 47 22
M  V30 51 1 48 22
M  V30 52 1 49 25
M  V30 END BOND
M  V30 END CTAB
M  END
>  <b_m_subgroup_collapsed>  (1090) 
0

>  <r_i_docking_score>  (1090) 
-7.5000891820542996

>  <s_m_subgroup_title>  (1090) 
glide-dock_SP_D22_pv

>  <s_m_subgroupid>  (1090) 
glide-dock_SP_D22_pv

>  <Molecule ChEMBL ID>  (1090) 
CHEMBL5403610

>  <Standard Type>  (1090) 
Ki

>  <Standard Value>  (1090) 
49800.0

>  <label>  (1090) 
0

$$$$
CHEMBL194510
     RDKit          3D

  0  0  0  0  0  0  0  0  0  0999 V3000
M  V30 BEGIN CTAB
M  V30 COUNTS 56 60 0 0 1
M  V30 BEGIN ATOM
M  V30 1 Cl 12.336730 6.572793 -2.805099 0
M  V30 2 C 11.790534 7.822349 -3.860730 0
M  V30 3 C 11.760245 9.148033 -3.410451 0
M  V30 4 C 11.286030 10.149865 -4.270807 0
M  V30 5 C 10.854226 9.860880 -5.573679 0
M  V30 6 C 10.840699 8.535043 -6.044961 0
M  V30 7 C 10.385675 7.894492 -7.247406 0
M  V30 8 C 9.669062 8.489015 -8.414752 0
M  V30 9 C 10.533504 8.493625 -9.685771 0
M  V30 10 C 9.699035 8.466014 -10.976329 0
M  V30 11 N 8.886023 7.234703 -11.139560 0 CHG=1
M  V30 12 C 9.665591 5.969578 -11.255054 0
M  V30 13 C 8.761781 4.740372 -11.493345 0
M  V30 14 N 7.793107 4.986270 -12.557161 0
M  V30 15 C 7.159534 3.832460 -13.044488 0
M  V30 16 C 5.854962 3.480435 -12.627211 0
M  V30 17 C 5.286026 2.259007 -13.029357 0
M  V30 18 C 6.014833 1.377216 -13.846877 0
M  V30 19 C 7.301918 1.727433 -14.296036 0
M  V30 20 C 7.871448 2.972276 -13.914121 0
M  V30 21 O 9.131082 3.332266 -14.345517 0
M  V30 22 C 9.633473 2.566886 -15.433568 0
M  V30 23 C 9.389585 1.075117 -15.168492 0
M  V30 24 O 7.990724 0.834855 -15.084785 0
M  V30 25 C 6.975616 6.165505 -12.333395 0
M  V30 26 C 7.906356 7.377776 -12.246871 0
M  V30 27 C 10.705050 6.572262 -7.117311 0
M  V30 28 N 11.285978 6.367443 -5.882400 0
M  V30 29 C 11.344403 7.533841 -5.164301 0
M  V30 30 H 12.095301 9.398286 -2.413645 0
M  V30 31 H 11.286021 11.158835 -3.930939 0
M  V30 32 H 10.496487 10.656458 -6.208930 0
M  V30 33 H 9.324965 9.497334 -8.189296 0
M  V30 34 H 8.757421 7.912983 -8.575741 0
M  V30 35 H 11.222936 7.650150 -9.685699 0
M  V30 36 H 11.174905 9.376044 -9.675134 0
M  V30 37 H 10.348101 8.572285 -11.843269 0
M  V30 38 H 9.029936 9.328475 -10.973807 0
M  V30 39 H 10.246562 5.797069 -10.350655 0
M  V30 40 H 10.372089 6.063396 -12.081263 0
M  V30 41 H 8.214543 4.504881 -10.578842 0
M  V30 42 H 9.376877 3.869255 -11.724844 0
M  V30 43 H 5.295555 4.119073 -11.959319 0
M  V30 44 H 4.295437 1.992975 -12.694282 0
M  V30 45 H 5.583289 0.431288 -14.140223 0
M  V30 46 H 9.151036 2.881255 -16.360182 0
M  V30 47 H 10.700256 2.764214 -15.540392 0
M  V30 48 H 9.803484 0.471381 -15.976268 0
M  V30 49 H 9.878170 0.757000 -14.246865 0
M  V30 50 H 6.247036 6.292188 -13.129580 0
M  V30 51 H 6.397361 6.050360 -11.419709 0
M  V30 52 H 7.336103 8.306927 -12.210122 0
M  V30 53 H 8.486021 7.420523 -13.143962 0
M  V30 54 H 10.534770 5.746970 -7.793309 0
M  V30 55 H 11.542470 5.452256 -5.535458 0
M  V30 56 H 8.285479 7.168939 -10.322686 0
M  V30 END ATOM
M  V30 BEGIN BOND
M  V30 1 1 2 1
M  V30 2 1 3 2
M  V30 3 2 4 3
M  V30 4 1 5 4
M  V30 5 2 6 5
M  V30 6 1 7 6
M  V30 7 1 8 7
M  V30 8 1 9 8
M  V30 9 1 10 9
M  V30 10 1 11 10
M  V30 11 1 12 11
M  V30 12 1 13 12
M  V30 13 1 14 13
M  V30 14 1 15 14
M  V30 15 2 16 15
M  V30 16 1 17 16
M  V30 17 2 18 17
M  V30 18 1 19 18
M  V30 19 1 20 15
M  V30 20 2 20 19
M  V30 21 1 21 20
M  V30 22 1 22 21
M  V30 23 1 23 22
M  V30 24 1 24 19
M  V30 25 1 24 23
M  V30 26 1 25 14
M  V30 27 1 26 11
M  V30 28 1 26 25
M  V30 29 2 27 7
M  V30 30 1 28 27
M  V30 31 2 29 2
M  V30 32 1 29 6
M  V30 33 1 29 28
M  V30 34 1 30 3
M  V30 35 1 31 4
M  V30 36 1 32 5
M  V30 37 1 33 8
M  V30 38 1 34 8
M  V30 39 1 35 9
M  V30 40 1 36 9
M  V30 41 1 37 10
M  V30 42 1 38 10
M  V30 43 1 39 12
M  V30 44 1 40 12
M  V30 45 1 41 13
M  V30 46 1 42 13
M  V30 47 1 43 16
M  V30 48 1 44 17
M  V30 49 1 45 18
M  V30 50 1 46 22
M  V30 51 1 47 22
M  V30 52 1 48 23
M  V30 53 1 49 23
M  V30 54 1 50 25
M  V30 55 1 51 25
M  V30 56 1 52 26
M  V30 57 1 53 26
M  V30 58 1 54 27
M  V30 59 1 55 28
M  V30 60 1 56 11
M  V30 END BOND
M  V30 END CTAB
M  END
>  <b_m_subgroup_collapsed>  (1091) 
0

>  <r_i_docking_score>  (1091) 
-7.5000563689416602

>  <s_m_subgroup_title>  (1091) 
glide-dock_SP_D22_pv

>  <s_m_subgroupid>  (1091) 
glide-dock_SP_D22_pv

>  <Molecule ChEMBL ID>  (1091) 
CHEMBL194510

>  <Standard Type>  (1091) 
Ki

>  <Standard Value>  (1091) 
15.5

>  <label>  (1091) 
1

$$$$
CHEMBL5760252
     RDKit          3D

  0  0  0  0  0  0  0  0  0  0999 V3000
M  V30 BEGIN CTAB
M  V30 COUNTS 60 64 0 0 1
M  V30 BEGIN ATOM
M  V30 1 C 3.180902 -0.484592 -14.048879 0
M  V30 2 N 4.481791 -0.265744 -14.645386 0
M  V30 3 C 5.471728 0.572348 -14.247237 0
M  V30 4 S 5.286052 1.686791 -12.877494 0
M  V30 5 C 6.163559 3.125657 -13.588078 0
M  V30 6 C 6.199217 4.377488 -12.689796 0
M  V30 7 C 7.319729 4.322635 -11.633763 0
M  V30 8 N 7.858825 5.651579 -11.249321 0 CFG=2 CHG=1
M  V30 9 C 8.668117 6.280893 -12.315827 0
M  V30 10 C 9.664700 7.194473 -11.614614 0 CFG=1
M  V30 11 C 9.171145 8.624091 -11.430487 0
M  V30 12 C 9.687557 8.997005 -10.046033 0
M  V30 13 N 9.690465 7.760552 -9.285111 0
M  V30 14 C 10.190414 7.738540 -7.965445 0
M  V30 15 C 10.093101 8.895011 -7.162156 0
M  V30 16 C 10.592317 8.931746 -5.847611 0
M  V30 17 C 11.186637 7.783138 -5.289527 0
M  V30 18 C 11.692665 7.771681 -3.853205 0
M  V30 19 F 11.286473 8.848399 -3.177852 0
M  V30 20 F 11.287094 6.673182 -3.215189 0
M  V30 21 F 13.012198 7.772235 -3.846223 0
M  V30 22 C 11.285761 6.622208 -6.078978 0
M  V30 23 C 10.789567 6.590936 -7.398198 0
M  V30 24 C 9.813804 6.636200 -10.198045 0 CFG=1
M  V30 25 C 8.686696 5.609007 -10.020573 0
M  V30 26 N 6.544641 0.601392 -15.040171 0
M  V30 27 C 6.195034 -0.250755 -16.068155 0
M  V30 28 C 6.872670 -0.575836 -17.267193 0
M  V30 29 C 6.302779 -1.485732 -18.183372 0
M  V30 30 C 5.053746 -2.083328 -17.912691 0
M  V30 31 C 4.355289 -1.758581 -16.734909 0
M  V30 32 C 4.920916 -0.837245 -15.834871 0
M  V30 33 H 2.437055 -0.614518 -14.835298 0
M  V30 34 H 2.886013 0.373735 -13.451932 0
M  V30 35 H 3.196867 -1.387369 -13.442214 0
M  V30 36 H 7.184086 2.839982 -13.849803 0
M  V30 37 H 5.686005 3.382523 -14.531009 0
M  V30 38 H 6.354457 5.237132 -13.341678 0
M  V30 39 H 5.236407 4.542101 -12.208043 0
M  V30 40 H 6.968846 3.772821 -10.759964 0
M  V30 41 H 8.174066 3.772204 -12.021455 0
M  V30 42 H 9.227871 5.520607 -12.866193 0
M  V30 43 H 8.046382 6.812532 -13.036706 0
M  V30 44 H 10.625660 7.207140 -12.128534 0
M  V30 45 H 9.507302 9.294673 -12.218486 0
M  V30 46 H 8.083997 8.658748 -11.445234 0
M  V30 47 H 10.708534 9.375242 -10.100028 0
M  V30 48 H 9.047356 9.756187 -9.600794 0
M  V30 49 H 9.604563 9.770652 -7.544531 0
M  V30 50 H 10.492802 9.837118 -5.268334 0
M  V30 51 H 11.760095 5.756310 -5.656474 0
M  V30 52 H 10.884723 5.674535 -7.957223 0
M  V30 53 H 10.792463 6.172642 -10.092507 0
M  V30 54 H 8.073462 5.802070 -9.139127 0
M  V30 55 H 9.132902 4.620231 -9.894071 0
M  V30 56 H 7.835848 -0.134201 -17.471933 0
M  V30 57 H 6.829057 -1.738201 -19.092554 0
M  V30 58 H 4.626080 -2.791575 -18.608032 0
M  V30 59 H 3.395793 -2.214964 -16.536407 0
M  V30 60 H 7.101923 6.300660 -11.017265 0
M  V30 END ATOM
M  V30 BEGIN BOND
M  V30 1 1 2 1
M  V30 2 1 3 2
M  V30 3 1 4 3
M  V30 4 1 5 4
M  V30 5 1 6 5
M  V30 6 1 7 6
M  V30 7 1 8 7
M  V30 8 1 9 8
M  V30 9 1 10 9
M  V30 10 1 11 10
M  V30 11 1 12 11
M  V30 12 1 13 12
M  V30 13 1 14 13
M  V30 14 1 15 14
M  V30 15 2 16 15
M  V30 16 1 17 16
M  V30 17 1 18 17
M  V30 18 1 19 18
M  V30 19 1 20 18
M  V30 20 1 21 18
M  V30 21 2 22 17
M  V30 22 2 23 14
M  V30 23 1 23 22
M  V30 24 1 24 10
M  V30 25 1 24 13
M  V30 26 1 25 8
M  V30 27 1 25 24
M  V30 28 2 26 3
M  V30 29 1 27 26
M  V30 30 2 28 27
M  V30 31 1 29 28
M  V30 32 2 30 29
M  V30 33 1 31 30
M  V30 34 1 32 2
M  V30 35 1 32 27
M  V30 36 2 32 31
M  V30 37 1 33 1
M  V30 38 1 34 1
M  V30 39 1 35 1
M  V30 40 1 36 5
M  V30 41 1 37 5
M  V30 42 1 38 6
M  V30 43 1 39 6
M  V30 44 1 40 7
M  V30 45 1 41 7
M  V30 46 1 42 9
M  V30 47 1 43 9
M  V30 48 1 10 44 CFG=3
M  V30 49 1 45 11
M  V30 50 1 46 11
M  V30 51 1 47 12
M  V30 52 1 48 12
M  V30 53 1 49 15
M  V30 54 1 50 16
M  V30 55 1 51 22
M  V30 56 1 52 23
M  V30 57 1 24 53 CFG=3
M  V30 58 1 54 25
M  V30 59 1 55 25
M  V30 60 1 56 28
M  V30 61 1 57 29
M  V30 62 1 58 30
M  V30 63 1 59 31
M  V30 64 1 8 60 CFG=1
M  V30 END BOND
M  V30 END CTAB
M  END
>  <b_m_subgroup_collapsed>  (1092) 
0

>  <r_i_docking_score>  (1092) 
-7.49818023707466

>  <s_m_subgroup_title>  (1092) 
glide-dock_SP_D22_pv

>  <s_m_subgroupid>  (1092) 
glide-dock_SP_D22_pv

>  <Molecule ChEMBL ID>  (1092) 
CHEMBL5760252

>  <Standard Type>  (1092) 
Ki

>  <Standard Value>  (1092) 
57.5

>  <label>  (1092) 
1

$$$$
CHEMBL125525
     RDKit          3D

  0  0  0  0  0  0  0  0  0  0999 V3000
M  V30 BEGIN CTAB
M  V30 COUNTS 62 65 0 0 1
M  V30 BEGIN ATOM
M  V30 1 C 3.572128 -0.761445 -14.403166 0
M  V30 2 O 4.913186 -0.289184 -14.378454 0
M  V30 3 C 5.597555 -0.226410 -15.579611 0
M  V30 4 C 5.185258 -0.986409 -16.706781 0
M  V30 5 C 5.884182 -0.913844 -17.925415 0
M  V30 6 C 7.008937 -0.083153 -18.038774 0
M  V30 7 C 7.437110 0.667904 -16.930214 0
M  V30 8 C 6.749342 0.610722 -15.692072 0
M  V30 9 N 7.213620 1.424484 -14.630324 0
M  V30 10 C 6.284832 2.123135 -13.749448 0
M  V30 11 C 6.682411 3.600585 -13.552760 0
M  V30 12 N 8.130376 3.772250 -13.252549 0 CHG=1
M  V30 13 C 8.495093 5.189804 -13.000503 0
M  V30 14 C 9.784539 5.330583 -12.162170 0
M  V30 15 C 10.039565 6.774614 -11.694149 0
M  V30 16 C 9.117193 7.212274 -10.539236 0
M  V30 17 N 9.768408 7.151639 -9.235533 0
M  V30 18 C 10.502460 8.139860 -8.688980 0
M  V30 19 O 10.755501 9.166713 -9.320654 0
M  V30 20 C 10.906319 7.890265 -7.298008 0
M  V30 21 C 11.067429 6.614570 -6.865694 0
M  V30 22 O 11.503220 6.244013 -5.617155 0
M  V30 23 C 11.685931 7.203081 -4.654724 0
M  V30 24 C 12.084402 6.812982 -3.362419 0
M  V30 25 C 12.296975 7.779519 -2.365307 0
M  V30 26 C 12.088089 9.139430 -2.645527 0
M  V30 27 C 11.702187 9.530191 -3.936779 0
M  V30 28 C 11.540236 8.571227 -4.954023 0
M  V30 29 C 11.231497 8.982800 -6.340304 0
M  V30 30 O 11.251122 10.172572 -6.647272 0
M  V30 31 C 8.997203 3.090024 -14.253162 0
M  V30 32 C 8.641173 1.596667 -14.376353 0
M  V30 33 H 3.114847 -0.610985 -13.426222 0
M  V30 34 H 2.967671 -0.219638 -15.131884 0
M  V30 35 H 3.518994 -1.827371 -14.625171 0
M  V30 36 H 4.332475 -1.647098 -16.666050 0
M  V30 37 H 5.551438 -1.496559 -18.772429 0
M  V30 38 H 7.543087 -0.022009 -18.975260 0
M  V30 39 H 8.294304 1.311931 -17.056576 0
M  V30 40 H 6.220812 1.595794 -12.797427 0
M  V30 41 H 5.284779 2.098162 -14.168179 0
M  V30 42 H 6.080448 4.027007 -12.747887 0
M  V30 43 H 6.434655 4.163125 -14.451752 0
M  V30 44 H 7.674110 5.667617 -12.463770 0
M  V30 45 H 8.585029 5.728580 -13.946507 0
M  V30 46 H 10.639566 5.004820 -12.755841 0
M  V30 47 H 9.744479 4.672656 -11.293496 0
M  V30 48 H 9.902374 7.450912 -12.538464 0
M  V30 49 H 11.082730 6.895543 -11.400399 0
M  V30 50 H 8.234698 6.572565 -10.486916 0
M  V30 51 H 8.748122 8.224504 -10.719273 0
M  V30 52 H 9.527185 6.364829 -8.651940 0
M  V30 53 H 10.907284 5.738172 -7.475640 0
M  V30 54 H 12.233870 5.771585 -3.132076 0
M  V30 55 H 12.628626 7.476777 -1.388379 0
M  V30 56 H 12.237202 9.878265 -1.872035 0
M  V30 57 H 11.546888 10.572435 -4.146210 0
M  V30 58 H 8.886180 3.579353 -15.221946 0
M  V30 59 H 10.045417 3.178453 -13.970844 0
M  V30 60 H 8.885278 1.080894 -13.447302 0
M  V30 61 H 9.257967 1.121602 -15.137333 0
M  V30 62 H 8.280714 3.288336 -12.379780 0
M  V30 END ATOM
M  V30 BEGIN BOND
M  V30 1 1 2 1
M  V30 2 1 3 2
M  V30 3 2 4 3
M  V30 4 1 5 4
M  V30 5 2 6 5
M  V30 6 1 7 6
M  V30 7 1 8 3
M  V30 8 2 8 7
M  V30 9 1 9 8
M  V30 10 1 10 9
M  V30 11 1 11 10
M  V30 12 1 12 11
M  V30 13 1 13 12
M  V30 14 1 14 13
M  V30 15 1 15 14
M  V30 16 1 16 15
M  V30 17 1 17 16
M  V30 18 1 18 17
M  V30 19 2 19 18
M  V30 20 1 20 18
M  V30 21 2 21 20
M  V30 22 1 22 21
M  V30 23 1 23 22
M  V30 24 2 24 23
M  V30 25 1 25 24
M  V30 26 2 26 25
M  V30 27 1 27 26
M  V30 28 1 28 23
M  V30 29 2 28 27
M  V30 30 1 29 20
M  V30 31 1 29 28
M  V30 32 2 30 29
M  V30 33 1 31 12
M  V30 34 1 32 9
M  V30 35 1 32 31
M  V30 36 1 33 1
M  V30 37 1 34 1
M  V30 38 1 35 1
M  V30 39 1 36 4
M  V30 40 1 37 5
M  V30 41 1 38 6
M  V30 42 1 39 7
M  V30 43 1 40 10
M  V30 44 1 41 10
M  V30 45 1 42 11
M  V30 46 1 43 11
M  V30 47 1 44 13
M  V30 48 1 45 13
M  V30 49 1 46 14
M  V30 50 1 47 14
M  V30 51 1 48 15
M  V30 52 1 49 15
M  V30 53 1 50 16
M  V30 54 1 51 16
M  V30 55 1 52 17
M  V30 56 1 53 21
M  V30 57 1 54 24
M  V30 58 1 55 25
M  V30 59 1 56 26
M  V30 60 1 57 27
M  V30 61 1 58 31
M  V30 62 1 59 31
M  V30 63 1 60 32
M  V30 64 1 61 32
M  V30 65 1 62 12
M  V30 END BOND
M  V30 END CTAB
M  END
>  <b_m_subgroup_collapsed>  (1093) 
0

>  <r_i_docking_score>  (1093) 
-7.4933953821004398

>  <s_m_subgroup_title>  (1093) 
glide-dock_SP_D22_pv

>  <s_m_subgroupid>  (1093) 
glide-dock_SP_D22_pv

>  <Molecule ChEMBL ID>  (1093) 
CHEMBL125525

>  <Standard Type>  (1093) 
Ki

>  <Standard Value>  (1093) 
47.0

>  <label>  (1093) 
1

$$$$
CHEMBL345349
     RDKit          3D

  0  0  0  0  0  0  0  0  0  0999 V3000
M  V30 BEGIN CTAB
M  V30 COUNTS 36 39 0 0 1
M  V30 BEGIN ATOM
M  V30 1 C 12.256650 9.045849 -4.646792 0
M  V30 2 C 11.684370 7.804178 -4.312674 0
M  V30 3 C 10.890456 7.108354 -5.252469 0
M  V30 4 C 10.692091 7.607926 -6.562136 0
M  V30 5 C 9.981955 7.167271 -7.736006 0
M  V30 6 C 10.256529 8.061120 -8.729053 0
M  V30 7 N 11.062967 9.061998 -8.222885 0
M  V30 8 C 11.332713 8.841918 -6.886530 0
M  V30 9 C 12.085982 9.565107 -5.943276 0
M  V30 10 C 9.878787 7.918159 -10.172189 0 CFG=1
M  V30 11 C 11.166134 7.707944 -11.003725 0
M  V30 12 C 10.906517 7.264708 -12.446555 0
M  V30 13 C 9.934587 6.083729 -12.505287 0
M  V30 14 C 8.636045 6.449345 -11.774347 0
M  V30 15 N 8.886098 6.804432 -10.354486 0 CFG=1 CHG=1
M  V30 16 C 9.124398 5.613304 -9.490322 0
M  V30 17 C 9.118765 5.974761 -7.994554 0
M  V30 18 H 12.846997 9.585079 -3.919388 0
M  V30 19 H 11.826464 7.395839 -3.322671 0
M  V30 20 H 10.432902 6.172301 -4.970914 0
M  V30 21 H 11.437474 9.809638 -8.788915 0
M  V30 22 H 12.558729 10.494809 -6.220356 0
M  V30 23 H 9.391361 8.834008 -10.510519 0
M  V30 24 H 11.758326 8.624486 -11.008137 0
M  V30 25 H 11.798274 6.972005 -10.511990 0
M  V30 26 H 10.486108 8.104133 -12.997513 0
M  V30 27 H 11.845913 7.008210 -12.939307 0
M  V30 28 H 9.715898 5.829046 -13.542816 0
M  V30 29 H 10.386185 5.191580 -12.070312 0
M  V30 30 H 8.164718 7.304101 -12.262499 0
M  V30 31 H 7.915116 5.632198 -11.833913 0
M  V30 32 H 8.366319 4.849889 -9.677423 0
M  V30 33 H 10.085714 5.169745 -9.749735 0
M  V30 34 H 9.474817 5.109628 -7.446798 0
M  V30 35 H 8.099011 6.170010 -7.658818 0
M  V30 36 H 7.982626 7.184020 -10.050365 0
M  V30 END ATOM
M  V30 BEGIN BOND
M  V30 1 2 2 1
M  V30 2 1 3 2
M  V30 3 2 4 3
M  V30 4 1 5 4
M  V30 5 2 6 5
M  V30 6 1 7 6
M  V30 7 1 8 4
M  V30 8 1 8 7
M  V30 9 1 9 1
M  V30 10 2 9 8
M  V30 11 1 10 6
M  V30 12 1 11 10
M  V30 13 1 12 11
M  V30 14 1 13 12
M  V30 15 1 14 13
M  V30 16 1 15 10
M  V30 17 1 15 14
M  V30 18 1 16 15
M  V30 19 1 17 5
M  V30 20 1 17 16
M  V30 21 1 18 1
M  V30 22 1 19 2
M  V30 23 1 20 3
M  V30 24 1 21 7
M  V30 25 1 22 9
M  V30 26 1 10 23 CFG=3
M  V30 27 1 24 11
M  V30 28 1 25 11
M  V30 29 1 26 12
M  V30 30 1 27 12
M  V30 31 1 28 13
M  V30 32 1 29 13
M  V30 33 1 30 14
M  V30 34 1 31 14
M  V30 35 1 32 16
M  V30 36 1 33 16
M  V30 37 1 34 17
M  V30 38 1 35 17
M  V30 39 1 15 36 CFG=1
M  V30 END BOND
M  V30 END CTAB
M  END
>  <b_m_subgroup_collapsed>  (1094) 
0

>  <r_i_docking_score>  (1094) 
-7.4929352616153304

>  <s_m_subgroup_title>  (1094) 
glide-dock_SP_D22_pv

>  <s_m_subgroupid>  (1094) 
glide-dock_SP_D22_pv

>  <Molecule ChEMBL ID>  (1094) 
CHEMBL345349

>  <Standard Type>  (1094) 
Ki

>  <Standard Value>  (1094) 
10000.0

>  <label>  (1094) 
0

$$$$
CHEMBL106660
     RDKit          3D

  0  0  0  0  0  0  0  0  0  0999 V3000
M  V30 BEGIN CTAB
M  V30 COUNTS 65 69 0 0 1
M  V30 BEGIN ATOM
M  V30 1 Cl 11.723122 7.372380 -19.108496 0
M  V30 2 C 11.940682 6.557648 -17.604149 0
M  V30 3 C 13.107327 6.770459 -16.845533 0
M  V30 4 C 13.287862 6.084493 -15.629219 0
M  V30 5 C 12.305198 5.184643 -15.172264 0
M  V30 6 C 11.125267 4.981794 -15.919896 0
M  V30 7 C 10.062164 4.006444 -15.432514 0 CFG=2
M  V30 8 O 9.977972 4.002372 -14.007462 0
M  V30 9 C 9.066463 4.927557 -13.434604 0 CFG=1
M  V30 10 C 8.037918 4.130412 -12.618484 0
M  V30 11 C 7.212679 5.023904 -11.651136 0 CFG=2
M  V30 12 C 6.541926 6.172566 -12.408648 0
M  V30 13 C 7.641116 7.266965 -12.454858 0
M  V30 14 C 8.802357 6.700292 -11.620705 0 CFG=2
M  V30 15 C 9.803326 5.912207 -12.510078 0
M  V30 16 N 8.086143 5.772300 -10.724892 0 CFG=2 CHG=1
M  V30 17 C 8.857203 4.991985 -9.717893 0
M  V30 18 C 9.783160 5.856536 -8.836785 0
M  V30 19 C 9.044992 6.880288 -7.958375 0
M  V30 20 C 9.991862 7.677586 -7.079021 0
M  V30 21 C 10.430637 8.956500 -7.480271 0
M  V30 22 C 11.286015 9.705196 -6.646931 0
M  V30 23 C 11.706710 9.180775 -5.411213 0
M  V30 24 C 11.286360 7.896726 -5.018040 0
M  V30 25 C 10.433189 7.147805 -5.849644 0
M  V30 26 C 10.259394 2.598957 -15.981456 0
M  V30 27 C 10.261902 2.371563 -17.376881 0
M  V30 28 C 10.379825 1.065160 -17.889593 0
M  V30 29 C 10.486063 -0.027507 -17.010126 0
M  V30 30 C 10.485926 0.192867 -15.621142 0
M  V30 31 C 10.378978 1.496938 -15.106899 0
M  V30 32 C 10.946841 5.677994 -17.134951 0
M  V30 33 H 13.865909 7.454196 -17.198673 0
M  V30 34 H 14.184487 6.243761 -15.047996 0
M  V30 35 H 12.458619 4.653742 -14.243585 0
M  V30 36 H 9.105446 4.312143 -15.856247 0
M  V30 37 H 8.545358 5.489528 -14.209933 0
M  V30 38 H 8.583364 3.372825 -12.062813 0
M  V30 39 H 7.374015 3.588448 -13.293131 0
M  V30 40 H 6.486971 4.410648 -11.119935 0
M  V30 41 H 6.177607 5.850596 -13.383252 0
M  V30 42 H 5.682531 6.541204 -11.847301 0
M  V30 43 H 7.971142 7.472788 -13.446871 0
M  V30 44 H 7.286582 8.232501 -12.096870 0
M  V30 45 H 9.303802 7.492730 -11.064512 0
M  V30 46 H 10.427094 6.576765 -13.102910 0
M  V30 47 H 10.486014 5.357453 -11.875626 0
M  V30 48 H 9.463625 4.227834 -10.202996 0
M  V30 49 H 8.148692 4.455415 -9.084779 0
M  V30 50 H 10.528217 6.362594 -9.450662 0
M  V30 51 H 10.351950 5.189236 -8.190435 0
M  V30 52 H 8.311232 6.378421 -7.325602 0
M  V30 53 H 8.486174 7.575682 -8.583469 0
M  V30 54 H 10.105512 9.372335 -8.423426 0
M  V30 55 H 11.615846 10.686975 -6.949594 0
M  V30 56 H 12.360272 9.757932 -4.773355 0
M  V30 57 H 11.616220 7.486375 -4.074613 0
M  V30 58 H 10.102683 6.172328 -5.529708 0
M  V30 59 H 10.159431 3.195360 -18.066498 0
M  V30 60 H 10.376407 0.901331 -18.957138 0
M  V30 61 H 10.564937 -1.031403 -17.400490 0
M  V30 62 H 10.559046 -0.635181 -14.937767 0
M  V30 63 H 10.372570 1.635548 -14.035334 0
M  V30 64 H 10.049973 5.531075 -17.718765 0
M  V30 65 H 7.449648 6.386684 -10.216572 0
M  V30 END ATOM
M  V30 BEGIN BOND
M  V30 1 1 2 1
M  V30 2 1 3 2
M  V30 3 2 4 3
M  V30 4 1 5 4
M  V30 5 2 6 5
M  V30 6 1 7 6
M  V30 7 1 8 7
M  V30 8 1 9 8
M  V30 9 1 10 9
M  V30 10 1 11 10
M  V30 11 1 12 11
M  V30 12 1 13 12
M  V30 13 1 14 13
M  V30 14 1 15 9
M  V30 15 1 15 14
M  V30 16 1 16 11
M  V30 17 1 16 14
M  V30 18 1 17 16
M  V30 19 1 18 17
M  V30 20 1 19 18
M  V30 21 1 20 19
M  V30 22 2 21 20
M  V30 23 1 22 21
M  V30 24 2 23 22
M  V30 25 1 24 23
M  V30 26 1 25 20
M  V30 27 2 25 24
M  V30 28 1 26 7
M  V30 29 2 27 26
M  V30 30 1 28 27
M  V30 31 2 29 28
M  V30 32 1 30 29
M  V30 33 1 31 26
M  V30 34 2 31 30
M  V30 35 2 32 2
M  V30 36 1 32 6
M  V30 37 1 33 3
M  V30 38 1 34 4
M  V30 39 1 35 5
M  V30 40 1 7 36 CFG=3
M  V30 41 1 9 37 CFG=3
M  V30 42 1 38 10
M  V30 43 1 39 10
M  V30 44 1 11 40 CFG=1
M  V30 45 1 41 12
M  V30 46 1 42 12
M  V30 47 1 43 13
M  V30 48 1 44 13
M  V30 49 1 14 45 CFG=1
M  V30 50 1 46 15
M  V30 51 1 47 15
M  V30 52 1 48 17
M  V30 53 1 49 17
M  V30 54 1 50 18
M  V30 55 1 51 18
M  V30 56 1 52 19
M  V30 57 1 53 19
M  V30 58 1 54 21
M  V30 59 1 55 22
M  V30 60 1 56 23
M  V30 61 1 57 24
M  V30 62 1 58 25
M  V30 63 1 59 27
M  V30 64 1 60 28
M  V30 65 1 61 29
M  V30 66 1 62 30
M  V30 67 1 63 31
M  V30 68 1 64 32
M  V30 69 1 16 65 CFG=1
M  V30 END BOND
M  V30 END CTAB
M  END
>  <b_m_subgroup_collapsed>  (1095) 
0

>  <r_i_docking_score>  (1095) 
-7.4929347093970202

>  <s_m_subgroup_title>  (1095) 
glide-dock_SP_D22_pv

>  <s_m_subgroupid>  (1095) 
glide-dock_SP_D22_pv

>  <Molecule ChEMBL ID>  (1095) 
CHEMBL106660

>  <Standard Type>  (1095) 
Ki

>  <Standard Value>  (1095) 
59.0

>  <label>  (1095) 
1

$$$$
CHEMBL305392
     RDKit          3D

  0  0  0  0  0  0  0  0  0  0999 V3000
M  V30 BEGIN CTAB
M  V30 COUNTS 43 46 0 0 1
M  V30 BEGIN ATOM
M  V30 1 N 5.286747 3.182852 -13.046885 0
M  V30 2 C 6.302813 3.729764 -12.966719 0
M  V30 3 C 7.578696 4.416221 -12.854821 0
M  V30 4 C 8.546428 4.337727 -13.877017 0
M  V30 5 C 9.745286 5.073762 -13.774127 0
M  V30 6 C 9.992298 5.886041 -12.646031 0
M  V30 7 C 9.050021 5.891937 -11.585856 0
M  V30 8 C 7.843256 5.178750 -11.705670 0
M  V30 9 C 9.285991 6.762584 -10.372411 0 CFG=1
M  V30 10 C 8.885933 6.251950 -8.994574 0
M  V30 11 N 9.517286 7.240156 -8.079023 0 CFG=1 CHG=1
M  V30 12 C 9.846153 6.667945 -6.751796 0
M  V30 13 C 10.616743 7.572326 -5.796846 0
M  V30 14 C 11.378074 6.972127 -4.770608 0
M  V30 15 C 12.086724 7.763423 -3.846053 0
M  V30 16 C 12.044992 9.166111 -3.943694 0
M  V30 17 C 11.285506 9.773594 -4.961381 0
M  V30 18 C 10.565907 8.982259 -5.877312 0
M  V30 19 C 10.656451 7.860032 -8.822875 0
M  V30 20 C 10.737926 7.079276 -10.130075 0 CFG=2
M  V30 21 C 11.331607 7.715662 -11.380095 0
M  V30 22 C 11.244713 6.774090 -12.610428 0
M  V30 23 H 8.362350 3.738604 -14.756918 0
M  V30 24 H 10.460706 5.042016 -14.583214 0
M  V30 25 H 7.097106 5.249296 -10.928862 0
M  V30 26 H 8.743826 7.689697 -10.570101 0
M  V30 27 H 7.808471 6.172565 -8.856419 0
M  V30 28 H 9.304093 5.255486 -8.837599 0
M  V30 29 H 8.923212 6.351069 -6.263849 0
M  V30 30 H 10.447892 5.772703 -6.908836 0
M  V30 31 H 11.415283 5.895628 -4.678916 0
M  V30 32 H 12.663939 7.292881 -3.063352 0
M  V30 33 H 12.589832 9.774061 -3.235531 0
M  V30 34 H 11.244900 10.850945 -5.033813 0
M  V30 35 H 9.978572 9.471053 -6.638391 0
M  V30 36 H 10.423553 8.908956 -9.014028 0
M  V30 37 H 11.606105 7.819916 -8.287220 0
M  V30 38 H 11.282267 6.172342 -9.891620 0
M  V30 39 H 10.700091 8.572377 -11.578133 0
M  V30 40 H 12.347502 8.079771 -11.223044 0
M  V30 41 H 12.124702 6.133226 -12.647038 0
M  V30 42 H 11.286931 7.370840 -13.521591 0
M  V30 43 H 8.824593 7.963006 -7.932553 0
M  V30 END ATOM
M  V30 BEGIN BOND
M  V30 1 3 2 1
M  V30 2 1 3 2
M  V30 3 1 4 3
M  V30 4 2 5 4
M  V30 5 1 6 5
M  V30 6 2 7 6
M  V30 7 2 8 3
M  V30 8 1 8 7
M  V30 9 1 9 7
M  V30 10 1 10 9
M  V30 11 1 11 10
M  V30 12 1 12 11
M  V30 13 1 13 12
M  V30 14 2 14 13
M  V30 15 1 15 14
M  V30 16 2 16 15
M  V30 17 1 17 16
M  V30 18 1 18 13
M  V30 19 2 18 17
M  V30 20 1 19 11
M  V30 21 1 20 9
M  V30 22 1 20 19
M  V30 23 1 21 20
M  V30 24 1 22 6
M  V30 25 1 22 21
M  V30 26 1 23 4
M  V30 27 1 24 5
M  V30 28 1 25 8
M  V30 29 1 9 26 CFG=3
M  V30 30 1 27 10
M  V30 31 1 28 10
M  V30 32 1 29 12
M  V30 33 1 30 12
M  V30 34 1 31 14
M  V30 35 1 32 15
M  V30 36 1 33 16
M  V30 37 1 34 17
M  V30 38 1 35 18
M  V30 39 1 36 19
M  V30 40 1 37 19
M  V30 41 1 20 38 CFG=1
M  V30 42 1 39 21
M  V30 43 1 40 21
M  V30 44 1 41 22
M  V30 45 1 42 22
M  V30 46 1 11 43 CFG=1
M  V30 END BOND
M  V30 END CTAB
M  END
>  <b_m_subgroup_collapsed>  (1096) 
0

>  <r_i_docking_score>  (1096) 
-7.4924407831700002

>  <s_m_subgroup_title>  (1096) 
glide-dock_SP_D22_pv

>  <s_m_subgroupid>  (1096) 
glide-dock_SP_D22_pv

>  <Molecule ChEMBL ID>  (1096) 
CHEMBL305392

>  <Standard Type>  (1096) 
Ki

>  <Standard Value>  (1096) 
10.0

>  <label>  (1096) 
1

$$$$
CHEMBL5975498
     RDKit          3D

  0  0  0  0  0  0  0  0  0  0999 V3000
M  V30 BEGIN CTAB
M  V30 COUNTS 51 55 0 0 1
M  V30 BEGIN ATOM
M  V30 1 O 10.320565 4.241121 -13.070614 0
M  V30 2 C 9.139560 3.940048 -13.259922 0
M  V30 3 C 8.781798 2.839259 -14.229163 0
M  V30 4 N 9.788021 2.313506 -14.967937 0
M  V30 5 C 9.520574 1.277494 -15.788385 0
M  V30 6 C 8.241984 0.710993 -15.921760 0
M  V30 7 C 7.189117 1.255537 -15.165865 0
M  V30 8 C 7.457461 2.342227 -14.308146 0
M  V30 9 C 6.351466 2.942334 -13.463421 0
M  V30 10 C 6.694981 4.342545 -12.926481 0
M  V30 11 N 8.118968 4.563391 -12.617524 0
M  V30 12 C 8.388724 5.643499 -11.657888 0
M  V30 13 C 8.890824 5.109653 -10.300762 0
M  V30 14 N 9.170746 6.205760 -9.375761 0
M  V30 15 C 9.189894 5.706402 -8.002112 0
M  V30 16 C 9.404200 6.862588 -7.007935 0
M  V30 17 N 10.652036 7.556595 -7.301853 0
M  V30 18 C 10.960203 8.539203 -6.350455 0
M  V30 19 N 10.885879 9.845853 -6.582191 0
M  V30 20 O 11.237854 10.504285 -5.374691 0
M  V30 21 C 11.567799 9.564725 -4.412927 0
M  V30 22 C 11.991842 9.711664 -3.086141 0
M  V30 23 C 12.296096 8.543859 -2.360874 0
M  V30 24 C 12.152432 7.271283 -2.961965 0
M  V30 25 F 12.484572 6.172762 -2.251602 0
M  V30 26 C 11.686307 7.145806 -4.295053 0
M  V30 27 C 11.397340 8.321188 -5.024130 0
M  V30 28 C 10.666759 8.030423 -8.686268 0
M  V30 29 C 10.451195 6.865536 -9.661265 0
M  V30 30 H 10.355468 0.885559 -16.350620 0
M  V30 31 H 8.073744 -0.127815 -16.581039 0
M  V30 32 H 6.192237 0.840527 -15.238281 0
M  V30 33 H 5.437228 3.003149 -14.052858 0
M  V30 34 H 6.119190 2.263245 -12.643840 0
M  V30 35 H 6.426136 5.070228 -13.690081 0
M  V30 36 H 6.064532 4.564930 -12.064178 0
M  V30 37 H 9.105331 6.336584 -12.101066 0
M  V30 38 H 7.485422 6.231071 -11.487027 0
M  V30 39 H 8.096919 4.482334 -9.886254 0
M  V30 40 H 9.772073 4.474446 -10.408361 0
M  V30 41 H 8.242335 5.211347 -7.780978 0
M  V30 42 H 9.985632 4.972992 -7.890649 0
M  V30 43 H 8.566542 7.561834 -7.063998 0
M  V30 44 H 9.419774 6.469819 -5.991110 0
M  V30 45 H 12.085764 10.691374 -2.645029 0
M  V30 46 H 12.642613 8.623397 -1.341000 0
M  V30 47 H 11.573881 6.172417 -4.751853 0
M  V30 48 H 9.889040 8.782185 -8.833669 0
M  V30 49 H 11.622809 8.508254 -8.899770 0
M  V30 50 H 11.284013 6.172292 -9.578760 0
M  V30 51 H 10.460447 7.253135 -10.678792 0
M  V30 END ATOM
M  V30 BEGIN BOND
M  V30 1 2 2 1
M  V30 2 1 3 2
M  V30 3 2 4 3
M  V30 4 1 5 4
M  V30 5 2 6 5
M  V30 6 1 7 6
M  V30 7 1 8 3
M  V30 8 2 8 7
M  V30 9 1 9 8
M  V30 10 1 10 9
M  V30 11 1 11 2
M  V30 12 1 11 10
M  V30 13 1 12 11
M  V30 14 1 13 12
M  V30 15 1 14 13
M  V30 16 1 15 14
M  V30 17 1 16 15
M  V30 18 1 17 16
M  V30 19 1 18 17
M  V30 20 2 19 18
M  V30 21 1 20 19
M  V30 22 1 21 20
M  V30 23 1 22 21
M  V30 24 2 23 22
M  V30 25 1 24 23
M  V30 26 1 25 24
M  V30 27 2 26 24
M  V30 28 1 27 18
M  V30 29 2 27 21
M  V30 30 1 27 26
M  V30 31 1 28 17
M  V30 32 1 29 14
M  V30 33 1 29 28
M  V30 34 1 30 5
M  V30 35 1 31 6
M  V30 36 1 32 7
M  V30 37 1 33 9
M  V30 38 1 34 9
M  V30 39 1 35 10
M  V30 40 1 36 10
M  V30 41 1 37 12
M  V30 42 1 38 12
M  V30 43 1 39 13
M  V30 44 1 40 13
M  V30 45 1 41 15
M  V30 46 1 42 15
M  V30 47 1 43 16
M  V30 48 1 44 16
M  V30 49 1 45 22
M  V30 50 1 46 23
M  V30 51 1 47 26
M  V30 52 1 48 28
M  V30 53 1 49 28
M  V30 54 1 50 29
M  V30 55 1 51 29
M  V30 END BOND
M  V30 END CTAB
M  END
>  <b_m_subgroup_collapsed>  (1097) 
0

>  <r_i_docking_score>  (1097) 
-7.4919109973515701

>  <s_m_subgroup_title>  (1097) 
glide-dock_SP_D22_pv

>  <s_m_subgroupid>  (1097) 
glide-dock_SP_D22_pv

>  <Molecule ChEMBL ID>  (1097) 
CHEMBL5975498

>  <Standard Type>  (1097) 
Ki

>  <Standard Value>  (1097) 
10000.0

>  <label>  (1097) 
0

$$$$
CHEMBL5758623
     RDKit          3D

  0  0  0  0  0  0  0  0  0  0999 V3000
M  V30 BEGIN CTAB
M  V30 COUNTS 60 62 0 0 1
M  V30 BEGIN ATOM
M  V30 1 C 10.310390 0.169257 -15.343139 0
M  V30 2 C 9.068076 0.687481 -16.078167 0
M  V30 3 C 8.043180 1.309409 -15.141640 0
M  V30 4 C 6.902777 0.564222 -14.775249 0
M  V30 5 C 5.928827 1.125288 -13.928990 0
M  V30 6 C 6.085593 2.438072 -13.446604 0
M  V30 7 C 7.245950 3.177668 -13.763040 0
M  V30 8 N 7.495604 4.412047 -13.142105 0
M  V30 9 C 6.440905 5.398293 -13.015631 0
M  V30 10 C 7.107857 6.786099 -12.946738 0
M  V30 11 N 8.087586 6.886288 -11.847113 0 CHG=1
M  V30 12 C 8.762334 8.207340 -11.833605 0
M  V30 13 C 9.285854 8.465731 -10.445352 0
M  V30 14 C 10.582346 8.480483 -10.097139 0
M  V30 15 C 11.098420 8.636453 -8.681367 0
M  V30 16 C 9.991146 8.614185 -7.609320 0
M  V30 17 N 10.544844 8.456597 -6.280766 0
M  V30 18 C 11.171405 9.408313 -5.574332 0
M  V30 19 O 11.288310 10.573670 -5.944610 0
M  V30 20 C 11.696206 8.949967 -4.259001 0
M  V30 21 N 12.085587 9.694283 -3.227534 0
M  V30 22 C 12.477401 8.786689 -2.241591 0
M  V30 23 C 12.300531 7.506160 -2.709905 0
M  V30 24 C 12.508080 6.168312 -2.111483 0
M  V30 25 N 11.824812 7.644115 -3.993092 0
M  V30 26 C 9.056624 5.750827 -11.802680 0
M  V30 27 C 8.386994 4.380102 -11.991376 0
M  V30 28 C 8.219173 2.617723 -14.628416 0
M  V30 29 Cl 9.626644 3.541705 -15.049225 0
M  V30 30 H 11.033524 -0.227760 -16.054224 0
M  V30 31 H 10.806755 0.957434 -14.777297 0
M  V30 32 H 10.050969 -0.625787 -14.646531 0
M  V30 33 H 8.605044 -0.134917 -16.625208 0
M  V30 34 H 9.358100 1.417879 -16.833832 0
M  V30 35 H 6.769425 -0.442183 -15.147131 0
M  V30 36 H 5.054730 0.552032 -13.658339 0
M  V30 37 H 5.341156 2.847140 -12.779530 0
M  V30 38 H 5.868014 5.211078 -12.105185 0
M  V30 39 H 5.738752 5.329166 -13.846479 0
M  V30 40 H 6.352650 7.568420 -12.854007 0
M  V30 41 H 7.686064 6.971728 -13.846788 0
M  V30 42 H 8.054801 9.003783 -12.068864 0
M  V30 43 H 9.562835 8.252613 -12.572422 0
M  V30 44 H 8.512441 8.618155 -9.706710 0
M  V30 45 H 11.339358 8.351700 -10.857540 0
M  V30 46 H 11.792442 7.814166 -8.503135 0
M  V30 47 H 11.681969 9.553071 -8.615008 0
M  V30 48 H 9.369329 9.507808 -7.662512 0
M  V30 49 H 9.329452 7.760622 -7.763079 0
M  V30 50 H 10.426744 7.550162 -5.857683 0
M  V30 51 H 12.834831 9.127047 -1.280504 0
M  V30 52 H 13.222131 6.172550 -1.292238 0
M  V30 53 H 11.563420 5.776345 -1.740111 0
M  V30 54 H 12.887364 5.478592 -2.864501 0
M  V30 55 H 9.791745 5.886217 -12.597663 0
M  V30 56 H 9.607812 5.759309 -10.861817 0
M  V30 57 H 7.802117 4.136084 -11.102818 0
M  V30 58 H 9.144628 3.601101 -12.100022 0
M  V30 59 H 7.505410 6.889798 -11.006316 0
M  V30 60 H 11.616320 6.882015 -4.620270 0
M  V30 END ATOM
M  V30 BEGIN BOND
M  V30 1 1 2 1
M  V30 2 1 3 2
M  V30 3 1 4 3
M  V30 4 2 5 4
M  V30 5 1 6 5
M  V30 6 2 7 6
M  V30 7 1 8 7
M  V30 8 1 9 8
M  V30 9 1 10 9
M  V30 10 1 11 10
M  V30 11 1 12 11
M  V30 12 1 13 12
M  V30 13 2 14 13
M  V30 14 1 15 14
M  V30 15 1 16 15
M  V30 16 1 17 16
M  V30 17 1 18 17
M  V30 18 2 19 18
M  V30 19 1 20 18
M  V30 20 2 21 20
M  V30 21 1 22 21
M  V30 22 2 23 22
M  V30 23 1 24 23
M  V30 24 1 25 20
M  V30 25 1 25 23
M  V30 26 1 26 11
M  V30 27 1 27 8
M  V30 28 1 27 26
M  V30 29 2 28 3
M  V30 30 1 28 7
M  V30 31 1 29 28
M  V30 32 1 30 1
M  V30 33 1 31 1
M  V30 34 1 32 1
M  V30 35 1 33 2
M  V30 36 1 34 2
M  V30 37 1 35 4
M  V30 38 1 36 5
M  V30 39 1 37 6
M  V30 40 1 38 9
M  V30 41 1 39 9
M  V30 42 1 40 10
M  V30 43 1 41 10
M  V30 44 1 42 12
M  V30 45 1 43 12
M  V30 46 1 44 13
M  V30 47 1 45 14
M  V30 48 1 46 15
M  V30 49 1 47 15
M  V30 50 1 48 16
M  V30 51 1 49 16
M  V30 52 1 50 17
M  V30 53 1 51 22
M  V30 54 1 52 24
M  V30 55 1 53 24
M  V30 56 1 54 24
M  V30 57 1 55 26
M  V30 58 1 56 26
M  V30 59 1 57 27
M  V30 60 1 58 27
M  V30 61 1 59 11
M  V30 62 1 60 25
M  V30 END BOND
M  V30 END CTAB
M  END
>  <b_m_subgroup_collapsed>  (1098) 
0

>  <r_i_docking_score>  (1098) 
-7.4913140505683504

>  <s_m_subgroup_title>  (1098) 
glide-dock_SP_D22_pv

>  <s_m_subgroupid>  (1098) 
glide-dock_SP_D22_pv

>  <Molecule ChEMBL ID>  (1098) 
CHEMBL5758623

>  <Standard Type>  (1098) 
Ki

>  <Standard Value>  (1098) 
16.1

>  <label>  (1098) 
1

$$$$
CHEMBL544761
     RDKit          3D

  0  0  0  0  0  0  0  0  0  0999 V3000
M  V30 BEGIN CTAB
M  V30 COUNTS 46 49 0 0 1
M  V30 BEGIN ATOM
M  V30 1 O 8.886156 9.119356 -8.959292 0
M  V30 2 C 9.696034 8.560957 -8.231969 0
M  V30 3 C 10.050901 8.908644 -6.893674 0
M  V30 4 C 10.872155 7.966281 -6.435782 0
M  V30 5 C 11.443922 7.986658 -5.077649 0
M  V30 6 C 11.656372 9.217504 -4.413519 0
M  V30 7 C 12.088961 9.234018 -3.074704 0
M  V30 8 C 12.312346 8.025832 -2.392154 0
M  V30 9 C 12.109389 6.797546 -3.050370 0
M  V30 10 C 11.684011 6.777941 -4.394890 0
M  V30 11 O 11.197869 7.022577 -7.389640 0
M  V30 12 C 10.532070 7.356357 -8.627178 0 CFG=2
M  V30 13 C 11.560870 7.764340 -9.700493 0
M  V30 14 C 10.877850 8.038897 -11.047733 0
M  V30 15 C 9.953602 6.903361 -11.511641 0
M  V30 16 N 9.010156 6.433172 -10.457986 0 CFG=1 CHG=1
M  V30 17 C 8.086419 5.327197 -10.864672 0
M  V30 18 C 8.379766 4.535720 -12.146498 0
M  V30 19 C 9.589754 3.823727 -12.309792 0
M  V30 20 C 9.813331 3.026432 -13.448234 0
M  V30 21 C 8.801959 2.876566 -14.411895 0
M  V30 22 C 7.572423 3.536406 -14.239763 0
M  V30 23 C 7.371355 4.384298 -13.127663 0
M  V30 24 C 9.678645 6.165596 -9.144979 0
M  V30 25 H 9.686671 9.767479 -6.362682 0
M  V30 26 H 11.477990 10.158674 -4.916375 0
M  V30 27 H 12.243946 10.174590 -2.566347 0
M  V30 28 H 12.636218 8.045537 -1.363238 0
M  V30 29 H 12.277006 5.868354 -2.525234 0
M  V30 30 H 11.505696 5.832252 -4.885190 0
M  V30 31 H 12.131869 8.639409 -9.383008 0
M  V30 32 H 12.289063 6.972858 -9.846477 0
M  V30 33 H 10.321319 8.971504 -11.016356 0
M  V30 34 H 11.652594 8.172077 -11.801716 0
M  V30 35 H 9.383729 7.227995 -12.384794 0
M  V30 36 H 10.601476 6.099818 -11.847448 0
M  V30 37 H 7.983894 4.602901 -10.054540 0
M  V30 38 H 7.097572 5.772693 -10.970164 0
M  V30 39 H 10.347633 3.869066 -11.546044 0
M  V30 40 H 10.742911 2.487628 -13.559370 0
M  V30 41 H 8.955991 2.230031 -15.261477 0
M  V30 42 H 6.773393 3.371888 -14.949958 0
M  V30 43 H 6.417896 4.877880 -13.006014 0
M  V30 44 H 10.307690 5.278983 -9.236105 0
M  V30 45 H 8.916990 5.926601 -8.401595 0
M  V30 46 H 8.369647 7.207054 -10.277368 0
M  V30 END ATOM
M  V30 BEGIN BOND
M  V30 1 2 2 1
M  V30 2 1 3 2
M  V30 3 2 4 3
M  V30 4 1 5 4
M  V30 5 2 6 5
M  V30 6 1 7 6
M  V30 7 2 8 7
M  V30 8 1 9 8
M  V30 9 1 10 5
M  V30 10 2 10 9
M  V30 11 1 11 4
M  V30 12 1 12 2
M  V30 13 1 12 11 CFG=1
M  V30 14 1 13 12
M  V30 15 1 14 13
M  V30 16 1 15 14
M  V30 17 1 16 15
M  V30 18 1 17 16
M  V30 19 1 18 17
M  V30 20 2 19 18
M  V30 21 1 20 19
M  V30 22 2 21 20
M  V30 23 1 22 21
M  V30 24 1 23 18
M  V30 25 2 23 22
M  V30 26 1 24 12
M  V30 27 1 24 16
M  V30 28 1 25 3
M  V30 29 1 26 6
M  V30 30 1 27 7
M  V30 31 1 28 8
M  V30 32 1 29 9
M  V30 33 1 30 10
M  V30 34 1 31 13
M  V30 35 1 32 13
M  V30 36 1 33 14
M  V30 37 1 34 14
M  V30 38 1 35 15
M  V30 39 1 36 15
M  V30 40 1 37 17
M  V30 41 1 38 17
M  V30 42 1 39 19
M  V30 43 1 40 20
M  V30 44 1 41 21
M  V30 45 1 42 22
M  V30 46 1 43 23
M  V30 47 1 44 24
M  V30 48 1 45 24
M  V30 49 1 16 46 CFG=1
M  V30 END BOND
M  V30 END CTAB
M  END
>  <b_m_subgroup_collapsed>  (1099) 
0

>  <r_i_docking_score>  (1099) 
-7.4902544905200301

>  <s_m_subgroup_title>  (1099) 
glide-dock_SP_D22_pv

>  <s_m_subgroupid>  (1099) 
glide-dock_SP_D22_pv

>  <Molecule ChEMBL ID>  (1099) 
CHEMBL544761

>  <Standard Type>  (1099) 
Ki

>  <Standard Value>  (1099) 
10000.0

>  <label>  (1099) 
0

$$$$
CHEMBL418802
     RDKit          3D

  0  0  0  0  0  0  0  0  0  0999 V3000
M  V30 BEGIN CTAB
M  V30 COUNTS 60 65 0 0 1
M  V30 BEGIN ATOM
M  V30 1 C 5.014424 1.417049 -13.291831 0
M  V30 2 O 6.086039 2.333038 -13.438818 0
M  V30 3 C 7.113454 2.032928 -14.248432 0
M  V30 4 O 7.162168 1.048576 -14.988405 0
M  V30 5 C 8.196098 3.010031 -14.167647 0
M  V30 6 C 8.392688 4.071352 -13.318609 0
M  V30 7 C 9.649508 4.669551 -13.685022 0
M  V30 8 C 10.399645 5.766506 -13.201161 0
M  V30 9 C 11.606599 6.160352 -13.844747 0
M  V30 10 C 12.087913 5.433828 -14.948655 0
M  V30 11 C 11.383693 4.308168 -15.415431 0
M  V30 12 C 10.175210 3.945819 -14.793886 0
M  V30 13 N 9.269631 2.929730 -15.038173 0
M  V30 14 O 12.313528 7.261236 -13.423771 0
M  V30 15 C 12.024377 7.640172 -12.088169 0
M  V30 16 C 10.494660 7.718791 -11.886474 0 CFG=2
M  V30 17 C 9.998558 8.343599 -10.571898 0
M  V30 18 N 10.041991 7.475115 -9.394428 0
M  V30 19 C 11.398001 7.427725 -8.843356 0
M  V30 20 C 11.462286 6.573769 -7.572433 0
M  V30 21 C 10.470509 7.026920 -6.510821 0
M  V30 22 N 11.003530 8.109103 -5.677385 0
M  V30 23 C 11.206493 9.421709 -5.950033 0
M  V30 24 O 11.222628 9.966763 -7.039272 0
M  V30 25 N 11.504660 10.049353 -4.806625 0
M  V30 26 C 11.770440 9.100229 -3.836481 0
M  V30 27 C 12.263436 9.224998 -2.538886 0
M  V30 28 C 12.485898 8.038980 -1.821049 0
M  V30 29 C 12.195513 6.772975 -2.380756 0
M  V30 30 C 11.686350 6.681899 -3.689728 0
M  V30 31 C 11.487956 7.877086 -4.391078 0
M  V30 32 C 9.079057 7.289206 -7.103794 0
M  V30 33 C 9.112573 8.061690 -8.423301 0
M  V30 34 O 9.916116 6.440816 -12.102108 0
M  V30 35 H 4.164874 1.924890 -12.835120 0
M  V30 36 H 4.689529 1.003555 -14.247507 0
M  V30 37 H 5.309732 0.592280 -12.641697 0
M  V30 38 H 7.750878 4.401215 -12.516169 0
M  V30 39 H 13.009574 5.735921 -15.426936 0
M  V30 40 H 11.759271 3.740981 -16.252806 0
M  V30 41 H 9.343889 2.206040 -15.737898 0
M  V30 42 H 12.521341 8.574664 -11.842607 0
M  V30 43 H 12.484241 6.890353 -11.464428 0
M  V30 44 H 10.085575 8.371060 -12.650511 0
M  V30 45 H 10.512919 9.284974 -10.368713 0
M  V30 46 H 8.954839 8.608128 -10.754041 0
M  V30 47 H 12.082209 6.973119 -9.543473 0
M  V30 48 H 11.789530 8.426552 -8.680605 0
M  V30 49 H 11.227056 5.541717 -7.844061 0
M  V30 50 H 12.484324 6.571702 -7.183972 0
M  V30 51 H 10.315588 6.174142 -5.853504 0
M  V30 52 H 12.485749 10.174783 -2.095548 0
M  V30 53 H 12.886670 8.105816 -0.821711 0
M  V30 54 H 12.374248 5.870488 -1.813777 0
M  V30 55 H 11.462171 5.732499 -4.133321 0
M  V30 56 H 8.594513 6.331064 -7.297482 0
M  V30 57 H 8.442233 7.804782 -6.383475 0
M  V30 58 H 9.342983 9.111078 -8.250955 0
M  V30 59 H 8.102146 8.043686 -8.826603 0
M  V30 60 H 11.719283 11.030227 -4.712668 0
M  V30 END ATOM
M  V30 BEGIN BOND
M  V30 1 1 2 1
M  V30 2 1 3 2
M  V30 3 2 4 3
M  V30 4 1 5 3
M  V30 5 2 6 5
M  V30 6 1 7 6
M  V30 7 1 8 7
M  V30 8 2 9 8
M  V30 9 1 10 9
M  V30 10 2 11 10
M  V30 11 2 12 7
M  V30 12 1 12 11
M  V30 13 1 13 5
M  V30 14 1 13 12
M  V30 15 1 14 9
M  V30 16 1 15 14
M  V30 17 1 16 15
M  V30 18 1 17 16
M  V30 19 1 18 17
M  V30 20 1 19 18
M  V30 21 1 20 19
M  V30 22 1 21 20
M  V30 23 1 22 21
M  V30 24 1 23 22
M  V30 25 2 24 23
M  V30 26 1 25 23
M  V30 27 1 26 25
M  V30 28 2 27 26
M  V30 29 1 28 27
M  V30 30 2 29 28
M  V30 31 1 30 29
M  V30 32 1 31 22
M  V30 33 1 31 26
M  V30 34 2 31 30
M  V30 35 1 32 21
M  V30 36 1 33 18
M  V30 37 1 33 32
M  V30 38 1 34 8
M  V30 39 1 34 16
M  V30 40 1 35 1
M  V30 41 1 36 1
M  V30 42 1 37 1
M  V30 43 1 38 6
M  V30 44 1 39 10
M  V30 45 1 40 11
M  V30 46 1 41 13
M  V30 47 1 42 15
M  V30 48 1 43 15
M  V30 49 1 16 44 CFG=3
M  V30 50 1 45 17
M  V30 51 1 46 17
M  V30 52 1 47 19
M  V30 53 1 48 19
M  V30 54 1 49 20
M  V30 55 1 50 20
M  V30 56 1 51 21
M  V30 57 1 52 27
M  V30 58 1 53 28
M  V30 59 1 54 29
M  V30 60 1 55 30
M  V30 61 1 56 32
M  V30 62 1 57 32
M  V30 63 1 58 33
M  V30 64 1 59 33
M  V30 65 1 60 25
M  V30 END BOND
M  V30 END CTAB
M  END
>  <b_m_subgroup_collapsed>  (1100) 
0

>  <r_i_docking_score>  (1100) 
-7.4888812836451297

>  <s_m_subgroup_title>  (1100) 
glide-dock_SP_D22_pv

>  <s_m_subgroupid>  (1100) 
glide-dock_SP_D22_pv

>  <Molecule ChEMBL ID>  (1100) 
CHEMBL418802

>  <Standard Type>  (1100) 
Ki

>  <Standard Value>  (1100) 
6.7

>  <label>  (1100) 
1

$$$$
CHEMBL3764212
     RDKit          3D

  0  0  0  0  0  0  0  0  0  0999 V3000
M  V30 BEGIN CTAB
M  V30 COUNTS 61 64 0 0 1
M  V30 BEGIN ATOM
M  V30 1 C 8.462664 0.172351 -14.494143 0
M  V30 2 N 8.220332 0.991080 -15.668826 0
M  V30 3 C 8.974275 1.979523 -16.196899 0
M  V30 4 S 10.507265 2.525652 -15.519081 0
M  V30 5 C 9.991165 3.035990 -13.852746 0
M  V30 6 C 9.431054 4.461267 -13.771864 0
M  V30 7 C 9.223226 4.864513 -12.300047 0
M  V30 8 N 9.373834 6.290026 -12.046647 0
M  V30 9 C 8.205516 7.076425 -12.422187 0
M  V30 10 C 8.442616 8.585634 -12.184827 0
M  V30 11 O 8.886062 8.849756 -10.854775 0
M  V30 12 C 9.995441 8.052901 -10.455438 0 CFG=1
M  V30 13 C 10.393940 8.334102 -9.024721 0
M  V30 14 C 9.466426 8.170756 -7.977906 0
M  V30 15 C 9.854959 8.406423 -6.646847 0
M  V30 16 C 11.168641 8.824308 -6.347921 0
M  V30 17 C 11.575000 9.103589 -4.909224 0
M  V30 18 F 12.875034 9.372456 -4.792759 0
M  V30 19 F 10.886058 10.146335 -4.443688 0
M  V30 20 F 11.307618 8.033838 -4.165563 0
M  V30 21 C 12.093274 8.972310 -7.400029 0
M  V30 22 C 11.713153 8.721146 -8.728980 0
M  V30 23 C 9.653036 6.566946 -10.649570 0
M  V30 24 N 8.485715 2.469446 -17.335941 0
M  V30 25 N 7.322815 1.772614 -17.564796 0
M  V30 26 C 7.192807 0.917976 -16.544960 0
M  V30 27 C 6.043728 0.023141 -16.442043 0
M  V30 28 C 5.391639 -0.182052 -15.205016 0
M  V30 29 C 4.247236 -0.991950 -15.135649 0
M  V30 30 C 3.764371 -1.614129 -16.297672 0
M  V30 31 C 4.419018 -1.455142 -17.537271 0
M  V30 32 C 3.901715 -2.115999 -18.785694 0
M  V30 33 N 3.292786 -3.296324 -18.646887 0
M  V30 34 O 4.089317 -1.612907 -19.888866 0
M  V30 35 C 5.552824 -0.618619 -17.600849 0
M  V30 36 H 9.531911 0.067661 -14.308938 0
M  V30 37 H 7.977499 0.607276 -13.621938 0
M  V30 38 H 8.038546 -0.814080 -14.646899 0
M  V30 39 H 9.285975 2.340753 -13.413309 0
M  V30 40 H 10.885986 2.977608 -13.239935 0
M  V30 41 H 10.144378 5.141321 -14.241039 0
M  V30 42 H 8.498130 4.549648 -14.331402 0
M  V30 43 H 8.262065 4.503111 -11.930672 0
M  V30 44 H 9.973162 4.337702 -11.707935 0
M  V30 45 H 7.953905 6.903251 -13.465334 0
M  V30 46 H 7.337876 6.746621 -11.847298 0
M  V30 47 H 9.183687 8.973146 -12.883849 0
M  V30 48 H 7.520697 9.139192 -12.349134 0
M  V30 49 H 10.837593 8.307243 -11.102114 0
M  V30 50 H 8.459304 7.851561 -8.196521 0
M  V30 51 H 9.137951 8.261640 -5.854149 0
M  V30 52 H 13.105333 9.291457 -7.198892 0
M  V30 53 H 12.439185 8.846754 -9.519906 0
M  V30 54 H 8.794809 6.291568 -10.033013 0
M  V30 55 H 10.486212 5.958223 -10.304088 0
M  V30 56 H 5.737576 0.315309 -14.311901 0
M  V30 57 H 3.730470 -1.130599 -14.198456 0
M  V30 58 H 2.885921 -2.227637 -16.220848 0
M  V30 59 H 3.147262 -3.704068 -17.714325 0
M  V30 60 H 2.954528 -3.781074 -19.463161 0
M  V30 61 H 6.049708 -0.461842 -18.548380 0
M  V30 END ATOM
M  V30 BEGIN BOND
M  V30 1 1 2 1
M  V30 2 1 3 2
M  V30 3 1 4 3
M  V30 4 1 5 4
M  V30 5 1 6 5
M  V30 6 1 7 6
M  V30 7 1 8 7
M  V30 8 1 9 8
M  V30 9 1 10 9
M  V30 10 1 11 10
M  V30 11 1 12 11
M  V30 12 1 13 12
M  V30 13 1 14 13
M  V30 14 2 15 14
M  V30 15 1 16 15
M  V30 16 1 17 16
M  V30 17 1 18 17
M  V30 18 1 19 17
M  V30 19 1 20 17
M  V30 20 2 21 16
M  V30 21 2 22 13
M  V30 22 1 22 21
M  V30 23 1 23 8
M  V30 24 1 23 12
M  V30 25 2 24 3
M  V30 26 1 25 24
M  V30 27 1 26 2
M  V30 28 2 26 25
M  V30 29 1 27 26
M  V30 30 2 28 27
M  V30 31 1 29 28
M  V30 32 2 30 29
M  V30 33 1 31 30
M  V30 34 1 32 31
M  V30 35 1 33 32
M  V30 36 2 34 32
M  V30 37 1 35 27
M  V30 38 2 35 31
M  V30 39 1 36 1
M  V30 40 1 37 1
M  V30 41 1 38 1
M  V30 42 1 39 5
M  V30 43 1 40 5
M  V30 44 1 41 6
M  V30 45 1 42 6
M  V30 46 1 43 7
M  V30 47 1 44 7
M  V30 48 1 45 9
M  V30 49 1 46 9
M  V30 50 1 47 10
M  V30 51 1 48 10
M  V30 52 1 12 49 CFG=3
M  V30 53 1 50 14
M  V30 54 1 51 15
M  V30 55 1 52 21
M  V30 56 1 53 22
M  V30 57 1 54 23
M  V30 58 1 55 23
M  V30 59 1 56 28
M  V30 60 1 57 29
M  V30 61 1 58 30
M  V30 62 1 59 33
M  V30 63 1 60 33
M  V30 64 1 61 35
M  V30 END BOND
M  V30 END CTAB
M  END
>  <b_m_subgroup_collapsed>  (1101) 
0

>  <r_i_docking_score>  (1101) 
-7.4885363673607204

>  <s_m_subgroup_title>  (1101) 
glide-dock_SP_D22_pv

>  <s_m_subgroupid>  (1101) 
glide-dock_SP_D22_pv

>  <Molecule ChEMBL ID>  (1101) 
CHEMBL3764212

>  <Standard Type>  (1101) 
Ki

>  <Standard Value>  (1101) 
15136.0

>  <label>  (1101) 
0

$$$$
CHEMBL3759819
     RDKit          3D

  0  0  0  0  0  0  0  0  0  0999 V3000
M  V30 BEGIN CTAB
M  V30 COUNTS 64 68 0 0 1
M  V30 BEGIN ATOM
M  V30 1 O 10.894253 1.452063 -15.738242 0
M  V30 2 S 10.033472 2.638221 -15.643373 0
M  V30 3 O 8.611105 2.560919 -16.012890 0
M  V30 4 N 10.121696 3.218184 -14.022476 0
M  V30 5 C 9.224968 4.314213 -13.646259 0 CFG=1
M  V30 6 C 8.227213 3.814742 -12.600391 0
M  V30 7 C 7.464660 4.902646 -11.815184 0 CFG=2
M  V30 8 C 6.705648 5.841525 -12.732886 0
M  V30 9 C 7.813568 6.802826 -13.205806 0
M  V30 10 C 9.049489 6.499951 -12.348057 0 CFG=2
M  V30 11 C 10.005634 5.531643 -13.101640 0
M  V30 12 N 8.424279 5.829796 -11.201396 0 CFG=2 CHG=1
M  V30 13 C 9.291464 5.317928 -10.121618 0
M  V30 14 C 8.484260 5.392044 -8.825845 0
M  V30 15 O 9.292996 5.581942 -7.699015 0
M  V30 16 C 9.881183 6.803195 -7.496739 0
M  V30 17 C 9.939478 7.859619 -8.435132 0
M  V30 18 C 10.713905 8.991952 -8.155237 0
M  V30 19 C 11.328349 9.139853 -6.900548 0
M  V30 20 C 11.181614 8.140563 -5.915242 0
M  V30 21 C 11.685473 8.311477 -4.550807 0
M  V30 22 C 11.685939 9.593136 -3.973851 0
M  V30 23 C 12.086022 9.770720 -2.646809 0
M  V30 24 C 12.486045 8.671874 -1.867742 0
M  V30 25 C 12.485307 7.384153 -2.429255 0
M  V30 26 C 12.086042 7.207364 -3.763438 0
M  V30 27 C 10.484619 6.968263 -6.246842 0
M  V30 28 C 10.786641 3.993937 -16.535170 0
M  V30 29 C 10.079980 4.642442 -17.568205 0
M  V30 30 C 10.651867 5.762192 -18.203348 0
M  V30 31 C 11.919125 6.230480 -17.800987 0
M  V30 32 C 12.619928 5.579452 -16.766014 0
M  V30 33 Cl 14.159576 6.171822 -16.260630 0
M  V30 34 C 12.056124 4.454964 -16.133224 0
M  V30 35 H 10.086643 2.446730 -13.351858 0
M  V30 36 H 8.668708 4.604037 -14.536039 0
M  V30 37 H 8.853125 3.371341 -11.850072 0
M  V30 38 H 7.553124 3.079328 -13.046832 0
M  V30 39 H 6.816947 4.448646 -11.066969 0
M  V30 40 H 6.195636 5.310564 -13.534945 0
M  V30 41 H 5.949125 6.391675 -12.170732 0
M  V30 42 H 8.086009 6.572361 -14.235229 0
M  V30 43 H 7.493496 7.841770 -13.115628 0
M  V30 44 H 9.567663 7.409590 -12.041097 0
M  V30 45 H 10.501422 6.047727 -13.924209 0
M  V30 46 H 10.804126 5.203537 -12.440504 0
M  V30 47 H 10.185317 5.935238 -10.082125 0
M  V30 48 H 9.686501 4.315106 -10.260834 0
M  V30 49 H 7.963789 4.446596 -8.687194 0
M  V30 50 H 7.722737 6.171787 -8.856606 0
M  V30 51 H 9.436807 7.822048 -9.387833 0
M  V30 52 H 10.810162 9.769557 -8.897918 0
M  V30 53 H 11.891103 10.037920 -6.692616 0
M  V30 54 H 11.352337 10.453549 -4.534970 0
M  V30 55 H 12.086018 10.770185 -2.246801 0
M  V30 56 H 12.799536 8.823068 -0.848285 0
M  V30 57 H 12.784647 6.528068 -1.842752 0
M  V30 58 H 12.085894 6.207510 -4.171836 0
M  V30 59 H 10.370358 6.172811 -5.525265 0
M  V30 60 H 9.100497 4.295728 -17.864042 0
M  V30 61 H 10.115632 6.269360 -18.992237 0
M  V30 62 H 12.350211 7.096838 -18.282192 0
M  V30 63 H 12.583370 3.960437 -15.330192 0
M  V30 64 H 7.843288 6.545856 -10.767897 0
M  V30 END ATOM
M  V30 BEGIN BOND
M  V30 1 2 2 1
M  V30 2 2 3 2
M  V30 3 1 4 2
M  V30 4 1 5 4
M  V30 5 1 6 5
M  V30 6 1 7 6
M  V30 7 1 8 7
M  V30 8 1 9 8
M  V30 9 1 10 9
M  V30 10 1 11 5
M  V30 11 1 11 10
M  V30 12 1 12 7
M  V30 13 1 12 10
M  V30 14 1 13 12
M  V30 15 1 14 13
M  V30 16 1 15 14
M  V30 17 1 16 15
M  V30 18 1 17 16
M  V30 19 2 18 17
M  V30 20 1 19 18
M  V30 21 2 20 19
M  V30 22 1 21 20
M  V30 23 2 22 21
M  V30 24 1 23 22
M  V30 25 2 24 23
M  V30 26 1 25 24
M  V30 27 1 26 21
M  V30 28 2 26 25
M  V30 29 2 27 16
M  V30 30 1 27 20
M  V30 31 1 28 2
M  V30 32 2 29 28
M  V30 33 1 30 29
M  V30 34 2 31 30
M  V30 35 1 32 31
M  V30 36 1 33 32
M  V30 37 1 34 28
M  V30 38 2 34 32
M  V30 39 1 35 4
M  V30 40 1 5 36 CFG=3
M  V30 41 1 37 6
M  V30 42 1 38 6
M  V30 43 1 7 39 CFG=1
M  V30 44 1 40 8
M  V30 45 1 41 8
M  V30 46 1 42 9
M  V30 47 1 43 9
M  V30 48 1 10 44 CFG=1
M  V30 49 1 45 11
M  V30 50 1 46 11
M  V30 51 1 47 13
M  V30 52 1 48 13
M  V30 53 1 49 14
M  V30 54 1 50 14
M  V30 55 1 51 17
M  V30 56 1 52 18
M  V30 57 1 53 19
M  V30 58 1 54 22
M  V30 59 1 55 23
M  V30 60 1 56 24
M  V30 61 1 57 25
M  V30 62 1 58 26
M  V30 63 1 59 27
M  V30 64 1 60 29
M  V30 65 1 61 30
M  V30 66 1 62 31
M  V30 67 1 63 34
M  V30 68 1 12 64 CFG=1
M  V30 END BOND
M  V30 END CTAB
M  END
>  <b_m_subgroup_collapsed>  (1102) 
0

>  <r_i_docking_score>  (1102) 
-7.4857211675007198

>  <s_m_subgroup_title>  (1102) 
glide-dock_SP_D22_pv

>  <s_m_subgroupid>  (1102) 
glide-dock_SP_D22_pv

>  <Molecule ChEMBL ID>  (1102) 
CHEMBL3759819

>  <Standard Type>  (1102) 
Ki

>  <Standard Value>  (1102) 
94.0

>  <label>  (1102) 
1

$$$$
CHEMBL5830831
     RDKit          3D

  0  0  0  0  0  0  0  0  0  0999 V3000
M  V30 BEGIN CTAB
M  V30 COUNTS 65 68 0 0 1
M  V30 BEGIN ATOM
M  V30 1 C 11.482079 3.849844 -14.222353 0
M  V30 2 N 10.151878 3.614760 -13.638986 0
M  V30 3 C 9.951425 4.848683 -12.850968 0
M  V30 4 C 8.832735 4.903209 -11.781849 0 CFG=1
M  V30 5 C 9.285963 4.748995 -10.316265 0
M  V30 6 C 9.944100 6.007175 -9.734609 0
M  V30 7 N 9.138629 7.226888 -9.957852 0 CFG=1 CHG=1
M  V30 8 C 9.721354 8.413923 -9.284859 0
M  V30 9 C 9.173593 8.580286 -7.857384 0
M  V30 10 O 10.085988 9.372169 -7.099180 0
M  V30 11 C 10.746982 8.821951 -6.023108 0
M  V30 12 C 11.283921 9.731942 -5.086782 0
M  V30 13 C 11.943824 9.273503 -3.930126 0
M  V30 14 C 12.086058 7.891464 -3.704890 0
M  V30 15 C 11.580812 6.973972 -4.645162 0
M  V30 16 C 10.915593 7.432270 -5.797202 0
M  V30 17 C 8.858555 7.428782 -11.401962 0
M  V30 18 C 8.057365 6.228879 -11.949599 0
M  V30 19 C 9.132799 3.407419 -14.717196 0 CFG=1
M  V30 20 C 9.616608 2.546268 -15.896897 0
M  V30 21 C 10.292695 1.319000 -15.692285 0
M  V30 22 C 10.742803 0.562275 -16.789841 0
M  V30 23 C 10.512435 1.011199 -18.101561 0
M  V30 24 Cl 11.067085 0.071123 -19.438278 0
M  V30 25 C 9.835535 2.225903 -18.316854 0
M  V30 26 C 9.392778 2.990395 -17.220383 0
M  V30 27 C 7.748983 2.899069 -14.247971 0
M  V30 28 C 7.401521 1.522668 -14.246853 0
M  V30 29 C 6.148354 1.126591 -13.739887 0
M  V30 30 C 5.286513 2.112506 -13.228849 0
M  V30 31 C 5.684570 3.457509 -13.327657 0
M  V30 32 N 6.860807 3.845703 -13.856663 0
M  V30 33 H 12.227145 4.069679 -13.456496 0
M  V30 34 H 11.878527 2.980575 -14.741690 0
M  V30 35 H 11.470463 4.683333 -14.928338 0
M  V30 36 H 10.867905 5.108197 -12.325970 0
M  V30 37 H 9.819757 5.665055 -13.565025 0
M  V30 38 H 8.172774 4.056646 -11.897303 0
M  V30 39 H 8.411502 4.512760 -9.707301 0
M  V30 40 H 9.964657 3.897412 -10.219732 0
M  V30 41 H 10.893915 6.172071 -10.218851 0
M  V30 42 H 10.136930 5.861004 -8.671195 0
M  V30 43 H 10.809694 8.332390 -9.271638 0
M  V30 44 H 9.496136 9.323749 -9.843691 0
M  V30 45 H 8.225486 9.117296 -7.902344 0
M  V30 46 H 8.917539 7.627428 -7.398382 0
M  V30 47 H 11.171708 10.792723 -5.250186 0
M  V30 48 H 12.338413 9.981296 -3.212296 0
M  V30 49 H 12.590603 7.537181 -2.818007 0
M  V30 50 H 11.696399 5.913192 -4.475023 0
M  V30 51 H 10.558392 6.689347 -6.491147 0
M  V30 52 H 9.788917 7.569043 -11.954317 0
M  V30 53 H 8.271122 8.338637 -11.540498 0
M  V30 54 H 7.806195 6.396808 -12.997845 0
M  V30 55 H 7.093244 6.170954 -11.445477 0
M  V30 56 H 8.955326 4.392834 -15.150142 0
M  V30 57 H 10.476377 0.963712 -14.687476 0
M  V30 58 H 11.275771 -0.359163 -16.625818 0
M  V30 59 H 9.660251 2.577193 -19.322897 0
M  V30 60 H 8.886023 3.927133 -17.402107 0
M  V30 61 H 8.078691 0.754394 -14.581599 0
M  V30 62 H 5.869904 0.082380 -13.709854 0
M  V30 63 H 4.324929 1.849943 -12.812412 0
M  V30 64 H 5.030404 4.244925 -12.983536 0
M  V30 65 H 8.211905 7.091156 -9.563772 0
M  V30 END ATOM
M  V30 BEGIN BOND
M  V30 1 1 2 1
M  V30 2 1 3 2
M  V30 3 1 4 3
M  V30 4 1 5 4
M  V30 5 1 6 5
M  V30 6 1 7 6
M  V30 7 1 8 7
M  V30 8 1 9 8
M  V30 9 1 10 9
M  V30 10 1 11 10
M  V30 11 2 12 11
M  V30 12 1 13 12
M  V30 13 2 14 13
M  V30 14 1 15 14
M  V30 15 1 16 11
M  V30 16 2 16 15
M  V30 17 1 17 7
M  V30 18 1 18 4
M  V30 19 1 18 17
M  V30 20 1 19 2
M  V30 21 1 20 19
M  V30 22 1 21 20
M  V30 23 2 22 21
M  V30 24 1 23 22
M  V30 25 1 24 23
M  V30 26 2 25 23
M  V30 27 2 26 20
M  V30 28 1 26 25
M  V30 29 1 27 19
M  V30 30 2 28 27
M  V30 31 1 29 28
M  V30 32 2 30 29
M  V30 33 1 31 30
M  V30 34 1 32 27
M  V30 35 2 32 31
M  V30 36 1 33 1
M  V30 37 1 34 1
M  V30 38 1 35 1
M  V30 39 1 36 3
M  V30 40 1 37 3
M  V30 41 1 4 38 CFG=3
M  V30 42 1 39 5
M  V30 43 1 40 5
M  V30 44 1 41 6
M  V30 45 1 42 6
M  V30 46 1 43 8
M  V30 47 1 44 8
M  V30 48 1 45 9
M  V30 49 1 46 9
M  V30 50 1 47 12
M  V30 51 1 48 13
M  V30 52 1 49 14
M  V30 53 1 50 15
M  V30 54 1 51 16
M  V30 55 1 52 17
M  V30 56 1 53 17
M  V30 57 1 54 18
M  V30 58 1 55 18
M  V30 59 1 19 56 CFG=3
M  V30 60 1 57 21
M  V30 61 1 58 22
M  V30 62 1 59 25
M  V30 63 1 60 26
M  V30 64 1 61 28
M  V30 65 1 62 29
M  V30 66 1 63 30
M  V30 67 1 64 31
M  V30 68 1 7 65 CFG=1
M  V30 END BOND
M  V30 END CTAB
M  END
>  <b_m_subgroup_collapsed>  (1103) 
0

>  <r_i_docking_score>  (1103) 
-7.4841700155312898

>  <s_m_subgroup_title>  (1103) 
glide-dock_SP_D22_pv

>  <s_m_subgroupid>  (1103) 
glide-dock_SP_D22_pv

>  <Molecule ChEMBL ID>  (1103) 
CHEMBL5830831

>  <Standard Type>  (1103) 
Ki

>  <Standard Value>  (1103) 
55.0

>  <label>  (1103) 
1

$$$$
CHEMBL6053631
     RDKit          3D

  0  0  0  0  0  0  0  0  0  0999 V3000
M  V30 BEGIN CTAB
M  V30 COUNTS 51 55 0 0 1
M  V30 BEGIN ATOM
M  V30 1 C 10.803690 1.710011 -15.110240 0
M  V30 2 C 9.321297 1.905583 -14.978312 0
M  V30 3 N 8.468637 1.116109 -15.629980 0
M  V30 4 O 7.164474 1.537047 -15.291323 0
M  V30 5 C 7.287963 2.573858 -14.426781 0
M  V30 6 C 8.587022 2.852489 -14.223621 0
M  V30 7 C 9.035883 3.966931 -13.339557 0
M  V30 8 O 10.225084 4.279122 -13.276662 0
M  V30 9 N 8.038554 4.575684 -12.638680 0
M  V30 10 C 8.349372 5.667582 -11.710696 0
M  V30 11 C 8.892500 5.128993 -10.372819 0
M  V30 12 N 9.142467 6.211219 -9.425293 0
M  V30 13 C 9.201221 5.669295 -8.067833 0
M  V30 14 C 9.387223 6.803824 -7.047328 0
M  V30 15 N 10.621360 7.526694 -7.330869 0
M  V30 16 C 10.950832 8.458770 -6.338723 0
M  V30 17 N 10.887098 9.776300 -6.496851 0
M  V30 18 O 11.284443 10.360757 -5.262461 0
M  V30 19 C 11.623958 9.363835 -4.360734 0
M  V30 20 C 12.085529 9.419683 -3.039668 0
M  V30 21 C 12.347887 8.202972 -2.377169 0
M  V30 22 C 12.141265 6.972266 -3.043983 0
M  V30 23 C 11.683325 6.941598 -4.381744 0
M  V30 24 C 11.409803 8.162107 -5.038080 0
M  V30 25 C 10.619711 8.044215 -8.698097 0
M  V30 26 C 10.403840 6.901731 -9.708551 0
M  V30 27 C 6.609550 4.146550 -12.632520 0
M  V30 28 C 6.134980 3.286896 -13.838844 0
M  V30 29 H 11.243597 2.480642 -15.743372 0
M  V30 30 H 11.286457 1.766783 -14.135161 0
M  V30 31 H 11.046256 0.739720 -15.545401 0
M  V30 32 H 7.453413 6.254449 -11.515877 0
M  V30 33 H 9.054364 6.355497 -12.179022 0
M  V30 34 H 9.790840 4.526358 -10.513790 0
M  V30 35 H 8.132988 4.465554 -9.956793 0
M  V30 36 H 10.032700 4.972000 -7.991038 0
M  V30 37 H 8.281998 5.125412 -7.844896 0
M  V30 38 H 9.409040 6.390889 -6.039330 0
M  V30 39 H 8.536649 7.487906 -7.090457 0
M  V30 40 H 12.231197 10.368378 -2.547105 0
M  V30 41 H 12.712586 8.213881 -1.360267 0
M  V30 42 H 12.339846 6.042434 -2.529233 0
M  V30 43 H 11.534897 6.000176 -4.888848 0
M  V30 44 H 9.833777 8.792958 -8.811643 0
M  V30 45 H 11.569358 8.540278 -8.903289 0
M  V30 46 H 11.234505 6.199973 -9.653971 0
M  V30 47 H 10.394067 7.312881 -10.716880 0
M  V30 48 H 6.486356 3.552027 -11.725822 0
M  V30 49 H 5.938902 4.998916 -12.515615 0
M  V30 50 H 5.693611 3.931325 -14.599602 0
M  V30 51 H 5.359390 2.585183 -13.530667 0
M  V30 END ATOM
M  V30 BEGIN BOND
M  V30 1 1 2 1
M  V30 2 2 3 2
M  V30 3 1 4 3
M  V30 4 1 5 4
M  V30 5 1 6 2
M  V30 6 2 6 5
M  V30 7 1 7 6
M  V30 8 2 8 7
M  V30 9 1 9 7
M  V30 10 1 10 9
M  V30 11 1 11 10
M  V30 12 1 12 11
M  V30 13 1 13 12
M  V30 14 1 14 13
M  V30 15 1 15 14
M  V30 16 1 16 15
M  V30 17 2 17 16
M  V30 18 1 18 17
M  V30 19 1 19 18
M  V30 20 2 20 19
M  V30 21 1 21 20
M  V30 22 2 22 21
M  V30 23 1 23 22
M  V30 24 1 24 16
M  V30 25 1 24 19
M  V30 26 2 24 23
M  V30 27 1 25 15
M  V30 28 1 26 12
M  V30 29 1 26 25
M  V30 30 1 27 9
M  V30 31 1 28 5
M  V30 32 1 28 27
M  V30 33 1 29 1
M  V30 34 1 30 1
M  V30 35 1 31 1
M  V30 36 1 32 10
M  V30 37 1 33 10
M  V30 38 1 34 11
M  V30 39 1 35 11
M  V30 40 1 36 13
M  V30 41 1 37 13
M  V30 42 1 38 14
M  V30 43 1 39 14
M  V30 44 1 40 20
M  V30 45 1 41 21
M  V30 46 1 42 22
M  V30 47 1 43 23
M  V30 48 1 44 25
M  V30 49 1 45 25
M  V30 50 1 46 26
M  V30 51 1 47 26
M  V30 52 1 48 27
M  V30 53 1 49 27
M  V30 54 1 50 28
M  V30 55 1 51 28
M  V30 END BOND
M  V30 END CTAB
M  END
>  <b_m_subgroup_collapsed>  (1104) 
0

>  <r_i_docking_score>  (1104) 
-7.4833444253464698

>  <s_m_subgroup_title>  (1104) 
glide-dock_SP_D22_pv

>  <s_m_subgroupid>  (1104) 
glide-dock_SP_D22_pv

>  <Molecule ChEMBL ID>  (1104) 
CHEMBL6053631

>  <Standard Type>  (1104) 
Ki

>  <Standard Value>  (1104) 
48923.0

>  <label>  (1104) 
0

$$$$
CHEMBL5722961
     RDKit          3D

  0  0  0  0  0  0  0  0  0  0999 V3000
M  V30 BEGIN CTAB
M  V30 COUNTS 43 46 0 0 1
M  V30 BEGIN ATOM
M  V30 1 C 12.730705 8.647234 -1.609064 0
M  V30 2 C 12.202743 8.241753 -2.965493 0
M  V30 3 C 11.761027 6.928712 -3.197986 0
M  V30 4 C 11.286022 6.572324 -4.472532 0
M  V30 5 C 11.244209 7.495710 -5.523907 0
M  V30 6 N 10.779431 7.119918 -6.793375 0
M  V30 7 C 10.800848 7.996113 -7.867637 0
M  V30 8 C 10.228234 7.490308 -9.183608 0
M  V30 9 N 11.259247 7.372359 -10.206845 0
M  V30 10 C 10.682153 7.302510 -11.548655 0
M  V30 11 C 9.790927 6.170838 -11.985867 0
M  V30 12 C 8.486014 5.971969 -11.619703 0
M  V30 13 S 7.789354 4.572328 -12.378419 0
M  V30 14 C 9.331420 4.276807 -13.184794 0
M  V30 15 C 9.514314 3.114465 -14.073786 0
M  V30 16 N 8.468439 2.297652 -14.247149 0
M  V30 17 C 8.637772 1.216019 -15.031333 0
M  V30 18 C 9.859165 0.955420 -15.672952 0
M  V30 19 C 10.886023 1.886386 -15.445806 0
M  V30 20 N 10.712779 2.956135 -14.646536 0
M  V30 21 N 10.252133 5.207325 -12.891211 0
M  V30 22 C 11.240207 9.261638 -7.722506 0
M  V30 23 C 11.660123 9.787174 -6.406107 0
M  V30 24 O 11.938736 10.972296 -6.246864 0
M  V30 25 C 11.686021 8.814990 -5.289928 0
M  V30 26 C 12.162546 9.179503 -4.011552 0
M  V30 27 H 12.886020 7.772413 -0.983560 0
M  V30 28 H 13.686021 9.156772 -1.712781 0
M  V30 29 H 12.036713 9.320807 -1.107346 0
M  V30 30 H 11.778190 6.190573 -2.408663 0
M  V30 31 H 10.932440 5.574638 -4.646808 0
M  V30 32 H 10.421824 6.183464 -6.923250 0
M  V30 33 H 9.455600 8.192496 -9.502635 0
M  V30 34 H 9.741225 6.524302 -9.042485 0
M  V30 35 H 11.845182 8.194701 -10.172282 0
M  V30 36 H 11.530437 7.349577 -12.232494 0
M  V30 37 H 10.148643 8.239224 -11.714652 0
M  V30 38 H 7.882842 6.572323 -10.957922 0
M  V30 39 H 7.790839 0.556726 -15.151705 0
M  V30 40 H 9.997987 0.092026 -16.305641 0
M  V30 41 H 11.858072 1.767588 -15.901222 0
M  V30 42 H 11.258079 9.930229 -8.568073 0
M  V30 43 H 12.522791 10.172324 -3.820169 0
M  V30 END ATOM
M  V30 BEGIN BOND
M  V30 1 1 2 1
M  V30 2 2 3 2
M  V30 3 1 4 3
M  V30 4 2 5 4
M  V30 5 1 6 5
M  V30 6 1 7 6
M  V30 7 1 8 7
M  V30 8 1 9 8
M  V30 9 1 10 9
M  V30 10 1 11 10
M  V30 11 2 12 11
M  V30 12 1 13 12
M  V30 13 1 14 13
M  V30 14 1 15 14
M  V30 15 2 16 15
M  V30 16 1 17 16
M  V30 17 2 18 17
M  V30 18 1 19 18
M  V30 19 1 20 15
M  V30 20 2 20 19
M  V30 21 1 21 11
M  V30 22 2 21 14
M  V30 23 2 22 7
M  V30 24 1 23 22
M  V30 25 2 24 23
M  V30 26 1 25 5
M  V30 27 1 25 23
M  V30 28 1 26 2
M  V30 29 2 26 25
M  V30 30 1 27 1
M  V30 31 1 28 1
M  V30 32 1 29 1
M  V30 33 1 30 3
M  V30 34 1 31 4
M  V30 35 1 32 6
M  V30 36 1 33 8
M  V30 37 1 34 8
M  V30 38 1 35 9
M  V30 39 1 36 10
M  V30 40 1 37 10
M  V30 41 1 38 12
M  V30 42 1 39 17
M  V30 43 1 40 18
M  V30 44 1 41 19
M  V30 45 1 42 22
M  V30 46 1 43 26
M  V30 END BOND
M  V30 END CTAB
M  END
>  <b_m_subgroup_collapsed>  (1105) 
0

>  <r_i_docking_score>  (1105) 
-7.4832055679603204

>  <s_m_subgroup_title>  (1105) 
glide-dock_SP_D22_pv

>  <s_m_subgroupid>  (1105) 
glide-dock_SP_D22_pv

>  <Molecule ChEMBL ID>  (1105) 
CHEMBL5722961

>  <Standard Type>  (1105) 
Ki

>  <Standard Value>  (1105) 
10000.0

>  <label>  (1105) 
0

$$$$
CHEMBL106660
     RDKit          3D

  0  0  0  0  0  0  0  0  0  0999 V3000
M  V30 BEGIN CTAB
M  V30 COUNTS 65 69 0 0 1
M  V30 BEGIN ATOM
M  V30 1 Cl 12.089871 7.661820 -19.042877 0
M  V30 2 C 12.252669 6.713553 -17.609154 0
M  V30 3 C 13.503447 6.602910 -16.974375 0
M  V30 4 C 13.641774 5.777372 -15.843031 0
M  V30 5 C 12.534827 5.060601 -15.347859 0
M  V30 6 C 11.262004 5.197437 -15.949595 0
M  V30 7 C 10.050292 4.378134 -15.484802 0 CFG=2
M  V30 8 O 9.437840 4.752128 -14.234938 0
M  V30 9 C 10.213975 4.782088 -13.039297 0 CFG=1
M  V30 10 C 10.639918 6.244192 -12.743468 0
M  V30 11 C 9.626919 7.015153 -11.846435 0 CFG=1
M  V30 12 C 8.186571 7.096339 -12.401603 0
M  V30 13 C 7.509884 5.795979 -11.962162 0
M  V30 14 C 8.554776 5.144120 -11.050884 0 CFG=1
M  V30 15 C 9.409129 4.151854 -11.864129 0
M  V30 16 N 9.449192 6.235496 -10.606456 0 CFG=2 CHG=1
M  V30 17 C 8.975295 7.026329 -9.438595 0
M  V30 18 C 10.134587 7.380308 -8.493816 0
M  V30 19 C 9.679252 8.268846 -7.318641 0
M  V30 20 C 10.635807 8.229391 -6.138038 0
M  V30 21 C 10.814939 7.015567 -5.446838 0
M  V30 22 C 11.639549 6.944423 -4.308325 0
M  V30 23 C 12.289055 8.099405 -3.847114 0
M  V30 24 C 12.135682 9.309481 -4.545310 0
M  V30 25 C 11.311532 9.383946 -5.688544 0
M  V30 26 C 10.211364 2.878598 -15.741009 0
M  V30 27 C 9.984581 1.905473 -14.743034 0
M  V30 28 C 10.085598 0.534088 -15.046624 0
M  V30 29 C 10.419430 0.118255 -16.347885 0
M  V30 30 C 10.666977 1.077809 -17.345163 0
M  V30 31 C 10.561046 2.448125 -17.042002 0
M  V30 32 C 11.138216 6.027860 -17.087648 0
M  V30 33 H 14.360054 7.131991 -17.366463 0
M  V30 34 H 14.607682 5.674591 -15.371108 0
M  V30 35 H 12.688850 4.391972 -14.516314 0
M  V30 36 H 9.259091 4.637202 -16.187218 0
M  V30 37 H 11.090025 4.153124 -13.175680 0
M  V30 38 H 10.886102 6.778914 -13.659286 0
M  V30 39 H 11.603182 6.222911 -12.247080 0
M  V30 40 H 10.024301 8.010093 -11.637680 0
M  V30 41 H 8.086329 7.221077 -13.466458 0
M  V30 42 H 7.684727 7.953878 -11.954605 0
M  V30 43 H 7.256386 5.164003 -12.813884 0
M  V30 44 H 6.574304 5.984775 -11.439913 0
M  V30 45 H 8.087214 4.622128 -10.214500 0
M  V30 46 H 10.086199 3.648956 -11.177081 0
M  V30 47 H 8.760966 3.373516 -12.252564 0
M  V30 48 H 8.226121 6.460905 -8.880927 0
M  V30 49 H 8.486408 7.945268 -9.760053 0
M  V30 50 H 10.941659 7.879476 -9.031811 0
M  V30 51 H 10.550347 6.444848 -8.118214 0
M  V30 52 H 8.705229 7.933853 -6.956163 0
M  V30 53 H 9.535509 9.295248 -7.658093 0
M  V30 54 H 10.275388 6.145814 -5.775006 0
M  V30 55 H 11.749505 6.010266 -3.777408 0
M  V30 56 H 12.906223 8.055602 -2.962995 0
M  V30 57 H 12.661210 10.172201 -4.182752 0
M  V30 58 H 11.190570 10.325016 -6.204827 0
M  V30 59 H 9.719336 2.182119 -13.739300 0
M  V30 60 H 9.900269 -0.200017 -14.276067 0
M  V30 61 H 10.484031 -0.934291 -16.579792 0
M  V30 62 H 10.928231 0.763272 -18.345156 0
M  V30 63 H 10.737369 3.172404 -17.823288 0
M  V30 64 H 10.186390 6.121547 -17.589821 0
M  V30 65 H 10.328806 5.824593 -10.332858 0
M  V30 END ATOM
M  V30 BEGIN BOND
M  V30 1 1 2 1
M  V30 2 1 3 2
M  V30 3 2 4 3
M  V30 4 1 5 4
M  V30 5 2 6 5
M  V30 6 1 7 6
M  V30 7 1 8 7
M  V30 8 1 9 8
M  V30 9 1 10 9
M  V30 10 1 11 10
M  V30 11 1 12 11
M  V30 12 1 13 12
M  V30 13 1 14 13
M  V30 14 1 15 9
M  V30 15 1 15 14
M  V30 16 1 16 11
M  V30 17 1 16 14
M  V30 18 1 17 16
M  V30 19 1 18 17
M  V30 20 1 19 18
M  V30 21 1 20 19
M  V30 22 2 21 20
M  V30 23 1 22 21
M  V30 24 2 23 22
M  V30 25 1 24 23
M  V30 26 1 25 20
M  V30 27 2 25 24
M  V30 28 1 26 7
M  V30 29 2 27 26
M  V30 30 1 28 27
M  V30 31 2 29 28
M  V30 32 1 30 29
M  V30 33 1 31 26
M  V30 34 2 31 30
M  V30 35 2 32 2
M  V30 36 1 32 6
M  V30 37 1 33 3
M  V30 38 1 34 4
M  V30 39 1 35 5
M  V30 40 1 7 36 CFG=3
M  V30 41 1 9 37 CFG=3
M  V30 42 1 38 10
M  V30 43 1 39 10
M  V30 44 1 11 40 CFG=1
M  V30 45 1 41 12
M  V30 46 1 42 12
M  V30 47 1 43 13
M  V30 48 1 44 13
M  V30 49 1 14 45 CFG=1
M  V30 50 1 46 15
M  V30 51 1 47 15
M  V30 52 1 48 17
M  V30 53 1 49 17
M  V30 54 1 50 18
M  V30 55 1 51 18
M  V30 56 1 52 19
M  V30 57 1 53 19
M  V30 58 1 54 21
M  V30 59 1 55 22
M  V30 60 1 56 23
M  V30 61 1 57 24
M  V30 62 1 58 25
M  V30 63 1 59 27
M  V30 64 1 60 28
M  V30 65 1 61 29
M  V30 66 1 62 30
M  V30 67 1 63 31
M  V30 68 1 64 32
M  V30 69 1 16 65 CFG=1
M  V30 END BOND
M  V30 END CTAB
M  END
>  <b_m_subgroup_collapsed>  (1106) 
0

>  <r_i_docking_score>  (1106) 
-7.4793632364338603

>  <s_m_subgroup_title>  (1106) 
glide-dock_SP_D22_pv

>  <s_m_subgroupid>  (1106) 
glide-dock_SP_D22_pv

>  <Molecule ChEMBL ID>  (1106) 
CHEMBL106660

>  <Standard Type>  (1106) 
Ki

>  <Standard Value>  (1106) 
59.0

>  <label>  (1106) 
1

$$$$
CHEMBL5280364
     RDKit          3D

  0  0  0  0  0  0  0  0  0  0999 V3000
M  V30 BEGIN CTAB
M  V30 COUNTS 53 56 0 0 1
M  V30 BEGIN ATOM
M  V30 1 C 13.082899 7.369407 -16.568790 0
M  V30 2 C 13.312802 6.971565 -15.109952 0
M  V30 3 O 12.148453 6.369977 -14.578869 0
M  V30 4 C 11.742243 6.634828 -13.320680 0
M  V30 5 O 12.318455 7.373967 -12.520240 0
M  V30 6 C 10.452472 6.008101 -13.042272 0
M  V30 7 N 10.121840 4.849139 -13.721094 0
M  V30 8 C 8.824376 4.485390 -13.463632 0
M  V30 9 C 8.029924 3.442911 -13.967728 0
M  V30 10 C 6.688925 3.350272 -13.561980 0
M  V30 11 C 6.171617 4.280124 -12.645837 0
M  V30 12 F 4.886031 4.172307 -12.256788 0
M  V30 13 C 6.979826 5.317743 -12.139561 0
M  V30 14 C 8.331741 5.450475 -12.534861 0
M  V30 15 C 9.391181 6.388585 -12.246123 0
M  V30 16 C 9.290919 7.629334 -11.391656 0
M  V30 17 N 9.286142 7.390913 -9.922482 0 CHG=1
M  V30 18 C 9.289784 8.676115 -9.178172 0
M  V30 19 C 9.220162 8.433964 -7.666302 0
M  V30 20 N 10.365676 7.642207 -7.251249 0
M  V30 21 C 10.904329 7.863757 -5.962365 0
M  V30 22 C 11.285243 6.791928 -5.121558 0
M  V30 23 C 11.805985 7.016738 -3.832886 0
M  V30 24 C 11.956877 8.330013 -3.356137 0
M  V30 25 C 11.589967 9.410018 -4.176990 0
M  V30 26 C 11.085331 9.181058 -5.471851 0
M  V30 27 C 10.400549 6.333364 -7.895232 0
M  V30 28 C 10.347990 6.463568 -9.437928 0
M  V30 29 H 13.996378 7.769285 -17.006817 0
M  V30 30 H 12.770069 6.514298 -17.167337 0
M  V30 31 H 12.318900 8.138873 -16.649530 0
M  V30 32 H 13.614284 7.849618 -14.538962 0
M  V30 33 H 14.132462 6.255694 -15.047423 0
M  V30 34 H 10.750276 4.411401 -14.381008 0
M  V30 35 H 8.438330 2.731047 -14.669668 0
M  V30 36 H 6.057529 2.562296 -13.945291 0
M  V30 37 H 6.548593 6.026536 -11.446880 0
M  V30 38 H 8.376049 8.164536 -11.651697 0
M  V30 39 H 10.099218 8.319433 -11.629819 0
M  V30 40 H 8.442521 9.287778 -9.490230 0
M  V30 41 H 10.191285 9.241809 -9.418787 0
M  V30 42 H 8.305265 7.893775 -7.415910 0
M  V30 43 H 9.153533 9.371924 -7.134664 0
M  V30 44 H 11.168664 5.773450 -5.444572 0
M  V30 45 H 12.078452 6.178274 -3.208228 0
M  V30 46 H 12.342645 8.507884 -2.362656 0
M  V30 47 H 11.684540 10.418616 -3.805955 0
M  V30 48 H 10.840216 10.038018 -6.079349 0
M  V30 49 H 11.298426 5.783734 -7.616926 0
M  V30 50 H 9.548644 5.751681 -7.542781 0
M  V30 51 H 10.204821 5.473571 -9.870467 0
M  V30 52 H 11.310006 6.831110 -9.794648 0
M  V30 53 H 8.385255 6.970568 -9.715322 0
M  V30 END ATOM
M  V30 BEGIN BOND
M  V30 1 1 2 1
M  V30 2 1 3 2
M  V30 3 1 4 3
M  V30 4 2 5 4
M  V30 5 1 6 4
M  V30 6 1 7 6
M  V30 7 1 8 7
M  V30 8 1 9 8
M  V30 9 2 10 9
M  V30 10 1 11 10
M  V30 11 1 12 11
M  V30 12 2 13 11
M  V30 13 2 14 8
M  V30 14 1 14 13
M  V30 15 2 15 6
M  V30 16 1 15 14
M  V30 17 1 16 15
M  V30 18 1 17 16
M  V30 19 1 18 17
M  V30 20 1 19 18
M  V30 21 1 20 19
M  V30 22 1 21 20
M  V30 23 2 22 21
M  V30 24 1 23 22
M  V30 25 2 24 23
M  V30 26 1 25 24
M  V30 27 1 26 21
M  V30 28 2 26 25
M  V30 29 1 27 20
M  V30 30 1 28 17
M  V30 31 1 28 27
M  V30 32 1 29 1
M  V30 33 1 30 1
M  V30 34 1 31 1
M  V30 35 1 32 2
M  V30 36 1 33 2
M  V30 37 1 34 7
M  V30 38 1 35 9
M  V30 39 1 36 10
M  V30 40 1 37 13
M  V30 41 1 38 16
M  V30 42 1 39 16
M  V30 43 1 40 18
M  V30 44 1 41 18
M  V30 45 1 42 19
M  V30 46 1 43 19
M  V30 47 1 44 22
M  V30 48 1 45 23
M  V30 49 1 46 24
M  V30 50 1 47 25
M  V30 51 1 48 26
M  V30 52 1 49 27
M  V30 53 1 50 27
M  V30 54 1 51 28
M  V30 55 1 52 28
M  V30 56 1 53 17
M  V30 END BOND
M  V30 END CTAB
M  END
>  <b_m_subgroup_collapsed>  (1107) 
0

>  <r_i_docking_score>  (1107) 
-7.4785396991409501

>  <s_m_subgroup_title>  (1107) 
glide-dock_SP_D22_pv

>  <s_m_subgroupid>  (1107) 
glide-dock_SP_D22_pv

>  <Molecule ChEMBL ID>  (1107) 
CHEMBL5280364

>  <Standard Type>  (1107) 
Ki

>  <Standard Value>  (1107) 
22000.0

>  <label>  (1107) 
0

$$$$
CHEMBL116367
     RDKit          3D

  0  0  0  0  0  0  0  0  0  0999 V3000
M  V30 BEGIN CTAB
M  V30 COUNTS 37 40 0 0 1
M  V30 BEGIN ATOM
M  V30 1 C 12.961457 6.811820 -16.301378 0
M  V30 2 C 12.086021 6.365258 -15.142196 0
M  V30 3 C 11.266628 5.235536 -15.298781 0
M  V30 4 C 10.439135 4.828840 -14.244478 0
M  V30 5 C 10.439608 5.538114 -13.027799 0
M  V30 6 C 11.277458 6.667574 -12.816833 0
M  V30 7 C 12.086321 7.075215 -13.917965 0
M  V30 8 O 12.886023 8.172324 -13.846866 0
M  V30 9 C 11.279766 7.300395 -11.453562 0
M  V30 10 C 12.368191 8.038388 -10.915216 0
M  V30 11 C 12.433758 8.443201 -9.567495 0
M  V30 12 C 11.400245 8.153199 -8.677620 0
M  V30 13 C 10.294104 7.434216 -9.136416 0
M  V30 14 C 10.251160 7.038916 -10.503916 0
M  V30 15 C 9.058627 6.236138 -11.046872 0 CFG=1
M  V30 16 C 9.510347 5.067965 -11.928934 0
M  V30 17 N 8.086021 5.772324 -10.043930 0 CHG=1
M  V30 18 C 8.593335 5.628491 -8.678361 0
M  V30 19 C 9.162412 6.969076 -8.244869 0
M  V30 20 H 14.012909 6.799258 -16.011978 0
M  V30 21 H 12.695706 7.822637 -16.613602 0
M  V30 22 H 12.845181 6.155380 -17.164230 0
M  V30 23 H 11.259575 4.684843 -16.228117 0
M  V30 24 H 9.801432 3.966342 -14.374626 0
M  V30 25 H 13.405339 8.285115 -14.627257 0
M  V30 26 H 13.234504 8.259883 -11.516087 0
M  V30 27 H 13.296059 8.972322 -9.195012 0
M  V30 28 H 11.471869 8.456219 -7.643198 0
M  V30 29 H 8.499604 6.924726 -11.683309 0
M  V30 30 H 8.643875 4.570928 -12.368051 0
M  V30 31 H 10.036865 4.320817 -11.333181 0
M  V30 32 H 7.374271 6.508516 -10.003982 0
M  V30 33 H 7.778207 5.336675 -8.015622 0
M  V30 34 H 9.350764 4.844093 -8.638162 0
M  V30 35 H 9.528656 6.887900 -7.220714 0
M  V30 36 H 8.401979 7.746791 -8.232618 0
M  V30 37 H 7.620740 4.927165 -10.342556 0
M  V30 END ATOM
M  V30 BEGIN BOND
M  V30 1 1 2 1
M  V30 2 1 3 2
M  V30 3 2 4 3
M  V30 4 1 5 4
M  V30 5 2 6 5
M  V30 6 2 7 2
M  V30 7 1 7 6
M  V30 8 1 8 7
M  V30 9 1 9 6
M  V30 10 2 10 9
M  V30 11 1 11 10
M  V30 12 2 12 11
M  V30 13 1 13 12
M  V30 14 1 14 9
M  V30 15 2 14 13
M  V30 16 1 15 14
M  V30 17 1 16 5
M  V30 18 1 16 15
M  V30 19 1 17 15
M  V30 20 1 18 17
M  V30 21 1 19 13
M  V30 22 1 19 18
M  V30 23 1 20 1
M  V30 24 1 21 1
M  V30 25 1 22 1
M  V30 26 1 23 3
M  V30 27 1 24 4
M  V30 28 1 25 8
M  V30 29 1 26 10
M  V30 30 1 27 11
M  V30 31 1 28 12
M  V30 32 1 15 29 CFG=3
M  V30 33 1 30 16
M  V30 34 1 31 16
M  V30 35 1 32 17
M  V30 36 1 33 18
M  V30 37 1 34 18
M  V30 38 1 35 19
M  V30 39 1 36 19
M  V30 40 1 37 17
M  V30 END BOND
M  V30 END CTAB
M  END
>  <b_m_subgroup_collapsed>  (1108) 
0

>  <r_i_docking_score>  (1108) 
-7.47747749546176

>  <s_m_subgroup_title>  (1108) 
glide-dock_SP_D22_pv

>  <s_m_subgroupid>  (1108) 
glide-dock_SP_D22_pv

>  <Molecule ChEMBL ID>  (1108) 
CHEMBL116367

>  <Standard Type>  (1108) 
Ki

>  <Standard Value>  (1108) 
10000.0

>  <label>  (1108) 
0

$$$$
CHEMBL93958
     RDKit          3D

  0  0  0  0  0  0  0  0  0  0999 V3000
M  V30 BEGIN CTAB
M  V30 COUNTS 49 52 0 0 1
M  V30 BEGIN ATOM
M  V30 1 O 12.085831 7.372181 -12.809730 0
M  V30 2 C 11.032087 6.864406 -12.436378 0
M  V30 3 N 10.376790 5.864979 -13.046764 0
M  V30 4 C 9.200336 5.583686 -12.378341 0
M  V30 5 C 8.156785 4.648748 -12.836240 0
M  V30 6 C 8.433027 3.699590 -13.846167 0
M  V30 7 C 7.437062 2.785973 -14.246726 0
M  V30 8 C 6.164536 2.818402 -13.642542 0
M  V30 9 C 5.879954 3.773371 -12.650351 0
M  V30 10 C 6.872385 4.685748 -12.246121 0
M  V30 11 C 9.174283 6.404342 -11.329782 0
M  V30 12 N 10.323578 7.181581 -11.334174 0
M  V30 13 C 10.602471 8.288947 -10.405478 0 CFG=1
M  V30 14 C 9.387867 8.770689 -9.599959 0
M  V30 15 C 9.153808 8.001857 -8.298667 0
M  V30 16 N 10.374664 7.999899 -7.464216 0 CFG=1 CHG=1
M  V30 17 C 10.115069 7.368206 -6.155399 0
M  V30 18 C 11.065439 7.802708 -5.047360 0
M  V30 19 C 11.686055 6.823072 -4.243833 0
M  V30 20 C 12.392586 7.191242 -3.082752 0
M  V30 21 C 12.485908 8.546812 -2.719394 0
M  V30 22 C 11.896564 9.531241 -3.532716 0
M  V30 23 C 11.207307 9.166720 -4.706139 0
M  V30 24 C 11.500929 7.372073 -8.183491 0
M  V30 25 C 11.831208 8.091543 -9.497505 0
M  V30 26 H 10.647197 5.416571 -13.908136 0
M  V30 27 H 9.409297 3.650350 -14.305618 0
M  V30 28 H 7.653088 2.051116 -15.008426 0
M  V30 29 H 5.406689 2.105886 -13.930770 0
M  V30 30 H 4.903463 3.802830 -12.191349 0
M  V30 31 H 6.632243 5.405911 -11.475827 0
M  V30 32 H 8.404003 6.547426 -10.589117 0
M  V30 33 H 10.867786 9.122846 -11.046894 0
M  V30 34 H 9.600968 9.778749 -9.300149 0
M  V30 35 H 8.487315 8.831016 -10.211424 0
M  V30 36 H 8.829963 6.978144 -8.488620 0
M  V30 37 H 8.339480 8.487967 -7.758461 0
M  V30 38 H 9.107435 7.636979 -5.843552 0
M  V30 39 H 10.112187 6.281694 -6.256676 0
M  V30 40 H 11.575085 5.774850 -4.481082 0
M  V30 41 H 12.835945 6.428704 -2.459051 0
M  V30 42 H 13.005884 8.834458 -1.816722 0
M  V30 43 H 11.948210 10.567659 -3.231239 0
M  V30 44 H 10.718946 9.933621 -5.289506 0
M  V30 45 H 11.235717 6.334439 -8.394158 0
M  V30 46 H 12.385435 7.356507 -7.547535 0
M  V30 47 H 12.627997 7.570177 -10.028324 0
M  V30 48 H 12.239725 9.071544 -9.250921 0
M  V30 49 H 10.616200 8.963440 -7.287732 0
M  V30 END ATOM
M  V30 BEGIN BOND
M  V30 1 2 2 1
M  V30 2 1 3 2
M  V30 3 1 4 3
M  V30 4 1 5 4
M  V30 5 2 6 5
M  V30 6 1 7 6
M  V30 7 2 8 7
M  V30 8 1 9 8
M  V30 9 1 10 5
M  V30 10 2 10 9
M  V30 11 2 11 4
M  V30 12 1 12 2
M  V30 13 1 12 11
M  V30 14 1 13 12
M  V30 15 1 14 13
M  V30 16 1 15 14
M  V30 17 1 16 15
M  V30 18 1 17 16
M  V30 19 1 18 17
M  V30 20 2 19 18
M  V30 21 1 20 19
M  V30 22 2 21 20
M  V30 23 1 22 21
M  V30 24 1 23 18
M  V30 25 2 23 22
M  V30 26 1 24 16
M  V30 27 1 25 13
M  V30 28 1 25 24
M  V30 29 1 26 3
M  V30 30 1 27 6
M  V30 31 1 28 7
M  V30 32 1 29 8
M  V30 33 1 30 9
M  V30 34 1 31 10
M  V30 35 1 32 11
M  V30 36 1 13 33 CFG=3
M  V30 37 1 34 14
M  V30 38 1 35 14
M  V30 39 1 36 15
M  V30 40 1 37 15
M  V30 41 1 38 17
M  V30 42 1 39 17
M  V30 43 1 40 19
M  V30 44 1 41 20
M  V30 45 1 42 21
M  V30 46 1 43 22
M  V30 47 1 44 23
M  V30 48 1 45 24
M  V30 49 1 46 24
M  V30 50 1 47 25
M  V30 51 1 48 25
M  V30 52 1 16 49 CFG=1
M  V30 END BOND
M  V30 END CTAB
M  END
>  <b_m_subgroup_collapsed>  (1109) 
0

>  <r_i_docking_score>  (1109) 
-7.47461167748245

>  <s_m_subgroup_title>  (1109) 
glide-dock_SP_D22_pv

>  <s_m_subgroupid>  (1109) 
glide-dock_SP_D22_pv

>  <Molecule ChEMBL ID>  (1109) 
CHEMBL93958

>  <Standard Type>  (1109) 
Ki

>  <Standard Value>  (1109) 
82.0

>  <label>  (1109) 
1

$$$$
CHEMBL3929237
     RDKit          3D

  0  0  0  0  0  0  0  0  0  0999 V3000
M  V30 BEGIN CTAB
M  V30 COUNTS 57 61 0 0 1
M  V30 BEGIN ATOM
M  V30 1 O 4.486035 0.166918 -13.446865 0
M  V30 2 C 5.411257 0.275863 -14.246864 0
M  V30 3 N 5.579779 -0.588677 -15.259993 0
M  V30 4 C 6.611672 -0.465412 -16.287046 0
M  V30 5 C 7.918669 0.114895 -15.711505 0
M  V30 6 C 7.629220 1.331080 -14.853008 0
M  V30 7 C 8.570788 2.371605 -14.748610 0
M  V30 8 C 8.270278 3.524037 -13.999963 0
M  V30 9 C 7.012372 3.658501 -13.359878 0
M  V30 10 O 6.622149 4.765919 -12.637324 0
M  V30 11 C 7.574670 5.779019 -12.319246 0
M  V30 12 C 8.393054 5.411051 -11.065681 0
M  V30 13 C 9.383776 6.525192 -10.661194 0
M  V30 14 N 9.906236 6.373409 -9.297356 0
M  V30 15 C 8.886015 6.842409 -8.345453 0
M  V30 16 C 9.363082 6.797765 -6.881431 0
M  V30 17 N 10.664689 7.422354 -6.742388 0
M  V30 18 C 10.956944 8.295977 -5.700096 0
M  V30 19 C 10.666814 9.645720 -5.920904 0
M  V30 20 C 10.886023 10.572324 -4.901381 0
M  V30 21 C 11.428775 10.172325 -3.676949 0
M  V30 22 C 11.765829 8.844678 -3.470742 0
M  V30 23 S 12.486021 8.172325 -2.028206 0
M  V30 24 C 12.400670 6.589761 -2.720242 0
M  V30 25 C 11.897776 6.564402 -3.997793 0
M  V30 26 C 11.528755 7.861221 -4.474022 0
M  V30 27 C 11.680152 7.105459 -7.713173 0
M  V30 28 C 11.089169 7.228351 -9.136929 0
M  V30 29 C 6.086026 2.594752 -13.446875 0
M  V30 30 C 6.389681 1.422750 -14.179210 0
M  V30 31 H 4.937049 -1.363829 -15.336433 0
M  V30 32 H 6.779485 -1.427675 -16.769869 0
M  V30 33 H 6.226909 0.202890 -17.058649 0
M  V30 34 H 8.606481 0.370699 -16.518013 0
M  V30 35 H 8.418173 -0.627560 -15.087958 0
M  V30 36 H 9.524342 2.294514 -15.250264 0
M  V30 37 H 9.024404 4.292455 -13.948703 0
M  V30 38 H 6.997818 6.678643 -12.115908 0
M  V30 39 H 8.207714 6.050869 -13.162560 0
M  V30 40 H 8.939053 4.481371 -11.226768 0
M  V30 41 H 7.686026 5.208001 -10.263766 0
M  V30 42 H 8.913200 7.504696 -10.767596 0
M  V30 43 H 10.210206 6.507107 -11.372792 0
M  V30 44 H 8.001090 6.214942 -8.424264 0
M  V30 45 H 8.578401 7.859923 -8.592617 0
M  V30 46 H 9.441295 5.772329 -6.545362 0
M  V30 47 H 8.629124 7.293204 -6.246866 0
M  V30 48 H 10.253514 9.958918 -6.867967 0
M  V30 49 H 10.658136 11.610203 -5.046862 0
M  V30 50 H 11.635392 10.893970 -2.899883 0
M  V30 51 H 12.740907 5.749426 -2.135080 0
M  V30 52 H 11.770223 5.689215 -4.608753 0
M  V30 53 H 12.511618 7.800870 -7.616375 0
M  V30 54 H 12.043045 6.112535 -7.446864 0
M  V30 55 H 11.849004 6.968876 -9.873335 0
M  V30 56 H 10.819124 8.268060 -9.331522 0
M  V30 57 H 5.135042 2.684876 -12.941518 0
M  V30 END ATOM
M  V30 BEGIN BOND
M  V30 1 2 2 1
M  V30 2 1 3 2
M  V30 3 1 4 3
M  V30 4 1 5 4
M  V30 5 1 6 5
M  V30 6 1 7 6
M  V30 7 2 8 7
M  V30 8 1 9 8
M  V30 9 1 10 9
M  V30 10 1 11 10
M  V30 11 1 12 11
M  V30 12 1 13 12
M  V30 13 1 14 13
M  V30 14 1 15 14
M  V30 15 1 16 15
M  V30 16 1 17 16
M  V30 17 1 18 17
M  V30 18 1 19 18
M  V30 19 2 20 19
M  V30 20 1 21 20
M  V30 21 2 22 21
M  V30 22 1 23 22
M  V30 23 1 24 23
M  V30 24 2 25 24
M  V30 25 2 26 18
M  V30 26 1 26 22
M  V30 27 1 26 25
M  V30 28 1 27 17
M  V30 29 1 28 14
M  V30 30 1 28 27
M  V30 31 2 29 9
M  V30 32 1 30 2
M  V30 33 2 30 6
M  V30 34 1 30 29
M  V30 35 1 31 3
M  V30 36 1 32 4
M  V30 37 1 33 4
M  V30 38 1 34 5
M  V30 39 1 35 5
M  V30 40 1 36 7
M  V30 41 1 37 8
M  V30 42 1 38 11
M  V30 43 1 39 11
M  V30 44 1 40 12
M  V30 45 1 41 12
M  V30 46 1 42 13
M  V30 47 1 43 13
M  V30 48 1 44 15
M  V30 49 1 45 15
M  V30 50 1 46 16
M  V30 51 1 47 16
M  V30 52 1 48 19
M  V30 53 1 49 20
M  V30 54 1 50 21
M  V30 55 1 51 24
M  V30 56 1 52 25
M  V30 57 1 53 27
M  V30 58 1 54 27
M  V30 59 1 55 28
M  V30 60 1 56 28
M  V30 61 1 57 29
M  V30 END BOND
M  V30 END CTAB
M  END
>  <b_m_subgroup_collapsed>  (1110) 
0

>  <r_i_docking_score>  (1110) 
-7.4745890084120399

>  <s_m_subgroup_title>  (1110) 
glide-dock_SP_D22_pv

>  <s_m_subgroupid>  (1110) 
glide-dock_SP_D22_pv

>  <Molecule ChEMBL ID>  (1110) 
CHEMBL3929237

>  <Standard Type>  (1110) 
Ki

>  <Standard Value>  (1110) 
35.2

>  <label>  (1110) 
1

$$$$
CHEMBL3590084
     RDKit          3D

  0  0  0  0  0  0  0  0  0  0999 V3000
M  V30 BEGIN CTAB
M  V30 COUNTS 55 57 0 0 1
M  V30 BEGIN ATOM
M  V30 1 C 5.425000 3.574844 -13.142838 0
M  V30 2 C 6.582254 4.453911 -12.656604 0
M  V30 3 C 7.897687 4.085548 -13.360560 0
M  V30 4 N 9.014999 5.057005 -13.156896 0 CFG=1 CHG=1
M  V30 5 C 9.430450 5.207295 -11.732192 0
M  V30 6 C 8.716599 6.351843 -10.990452 0
M  V30 7 N 9.206429 6.460895 -9.618282 0
M  V30 8 C 10.087754 7.369372 -9.178226 0
M  V30 9 O 10.632629 8.187140 -9.921882 0
M  V30 10 C 10.319319 7.233131 -7.749746 0
M  V30 11 C 10.925523 8.217071 -7.053615 0
M  V30 12 C 11.285983 8.178093 -5.626175 0
M  V30 13 C 11.670010 9.377514 -4.984667 0
M  V30 14 C 12.064674 9.371325 -3.630754 0
M  V30 15 C 12.086050 8.169374 -2.905520 0
M  V30 16 F 12.487213 8.171762 -1.612782 0
M  V30 17 C 11.691527 6.972034 -3.529904 0
M  V30 18 C 11.285764 6.975899 -4.880187 0
M  V30 19 C 10.195382 4.803908 -14.053745 0
M  V30 20 C 10.809259 3.386225 -13.849286 0
M  V30 21 C 10.402266 2.627018 -15.080559 0
M  V30 22 C 10.485559 1.239876 -15.292088 0
M  V30 23 C 10.038498 0.725079 -16.529951 0
M  V30 24 C 9.514663 1.589820 -17.521481 0
M  V30 25 C 9.427795 2.981197 -17.285160 0
M  V30 26 C 9.878948 3.474736 -16.048027 0
M  V30 27 C 9.845878 4.902312 -15.569885 0
M  V30 28 H 4.491892 3.841418 -12.648996 0
M  V30 29 H 5.286240 3.698530 -14.217170 0
M  V30 30 H 5.616790 2.520095 -12.943576 0
M  V30 31 H 6.682240 4.331011 -11.578922 0
M  V30 32 H 6.332067 5.500353 -12.842168 0
M  V30 33 H 7.678964 4.007451 -14.423356 0
M  V30 34 H 8.206120 3.089297 -13.051664 0
M  V30 35 H 10.486017 5.455992 -11.698689 0
M  V30 36 H 9.322821 4.260072 -11.197932 0
M  V30 37 H 7.648697 6.172009 -10.932551 0
M  V30 38 H 8.832665 7.297941 -11.525660 0
M  V30 39 H 8.754676 5.874606 -8.931718 0
M  V30 40 H 10.008586 6.327534 -7.251076 0
M  V30 41 H 11.204563 9.122801 -7.575374 0
M  V30 42 H 11.670448 10.307500 -5.533598 0
M  V30 43 H 12.357029 10.283976 -3.133502 0
M  V30 44 H 11.700603 6.047709 -2.971468 0
M  V30 45 H 11.006195 6.038499 -5.334051 0
M  V30 46 H 10.942516 5.568237 -13.835244 0
M  V30 47 H 11.899173 3.438597 -13.838673 0
M  V30 48 H 10.485555 2.877972 -12.941512 0
M  V30 49 H 10.884032 0.583627 -14.531042 0
M  V30 50 H 10.094354 -0.338113 -16.716825 0
M  V30 51 H 9.175974 1.181571 -18.463928 0
M  V30 52 H 9.020648 3.645704 -18.033154 0
M  V30 53 H 8.885971 5.372256 -15.767519 0
M  V30 54 H 10.610529 5.463665 -16.108044 0
M  V30 55 H 8.659986 5.961447 -13.433511 0
M  V30 END ATOM
M  V30 BEGIN BOND
M  V30 1 1 2 1
M  V30 2 1 3 2
M  V30 3 1 4 3
M  V30 4 1 5 4
M  V30 5 1 6 5
M  V30 6 1 7 6
M  V30 7 1 8 7
M  V30 8 2 9 8
M  V30 9 1 10 8
M  V30 10 2 11 10
M  V30 11 1 12 11
M  V30 12 1 13 12
M  V30 13 2 14 13
M  V30 14 1 15 14
M  V30 15 1 16 15
M  V30 16 2 17 15
M  V30 17 2 18 12
M  V30 18 1 18 17
M  V30 19 1 19 4
M  V30 20 1 20 19
M  V30 21 1 21 20
M  V30 22 2 22 21
M  V30 23 1 23 22
M  V30 24 2 24 23
M  V30 25 1 25 24
M  V30 26 1 26 21
M  V30 27 2 26 25
M  V30 28 1 27 19
M  V30 29 1 27 26
M  V30 30 1 28 1
M  V30 31 1 29 1
M  V30 32 1 30 1
M  V30 33 1 31 2
M  V30 34 1 32 2
M  V30 35 1 33 3
M  V30 36 1 34 3
M  V30 37 1 35 5
M  V30 38 1 36 5
M  V30 39 1 37 6
M  V30 40 1 38 6
M  V30 41 1 39 7
M  V30 42 1 40 10
M  V30 43 1 41 11
M  V30 44 1 42 13
M  V30 45 1 43 14
M  V30 46 1 44 17
M  V30 47 1 45 18
M  V30 48 1 46 19
M  V30 49 1 47 20
M  V30 50 1 48 20
M  V30 51 1 49 22
M  V30 52 1 50 23
M  V30 53 1 51 24
M  V30 54 1 52 25
M  V30 55 1 53 27
M  V30 56 1 54 27
M  V30 57 1 4 55 CFG=3
M  V30 END BOND
M  V30 END CTAB
M  END
>  <b_m_subgroup_collapsed>  (1111) 
0

>  <r_i_docking_score>  (1111) 
-7.4729623761358699

>  <s_m_subgroup_title>  (1111) 
glide-dock_SP_D22_pv

>  <s_m_subgroupid>  (1111) 
glide-dock_SP_D22_pv

>  <Molecule ChEMBL ID>  (1111) 
CHEMBL3590084

>  <Standard Type>  (1111) 
Ki

>  <Standard Value>  (1111) 
13.0

>  <label>  (1111) 
1

$$$$
CHEMBL126313
     RDKit          3D

  0  0  0  0  0  0  0  0  0  0999 V3000
M  V30 BEGIN CTAB
M  V30 COUNTS 60 63 0 0 1
M  V30 BEGIN ATOM
M  V30 1 C 8.575701 2.039380 -17.945965 0
M  V30 2 O 8.075246 2.397589 -16.665771 0
M  V30 3 C 7.297210 1.487490 -15.974197 0
M  V30 4 C 6.872196 0.264784 -16.552782 0
M  V30 5 C 6.060462 -0.627814 -15.834381 0
M  V30 6 C 5.675574 -0.328974 -14.519901 0
M  V30 7 C 6.085439 0.878186 -13.931810 0
M  V30 8 C 6.886240 1.805838 -14.646965 0
M  V30 9 N 7.249029 3.036763 -14.053903 0
M  V30 10 C 8.682557 3.261796 -13.875712 0
M  V30 11 C 8.970839 4.748404 -13.615718 0
M  V30 12 N 8.168329 5.263326 -12.477172 0 CHG=1
M  V30 13 C 8.432352 6.688245 -12.172297 0
M  V30 14 C 9.817575 6.968125 -11.561510 0
M  V30 15 C 9.892006 8.392404 -10.968939 0
M  V30 16 C 11.251218 8.748741 -10.308999 0
M  V30 17 N 11.208266 8.850077 -8.851668 0
M  V30 18 C 10.914573 7.843390 -8.021763 0
M  V30 19 O 10.486036 6.762969 -8.428084 0
M  V30 20 C 11.218669 8.047097 -6.586169 0
M  V30 21 S 11.229918 6.572364 -5.692063 0
M  V30 22 C 11.728614 7.353437 -4.228511 0
M  V30 23 C 12.085157 6.750693 -3.012984 0
M  V30 24 C 12.486046 7.550516 -1.938059 0
M  V30 25 C 12.466425 8.941591 -2.049829 0
M  V30 26 C 12.086227 9.516590 -3.268986 0
M  V30 27 C 11.769514 8.760622 -4.414750 0
M  V30 28 C 11.511794 9.131723 -5.790790 0
M  V30 29 Cl 11.684638 10.748369 -6.246915 0
M  V30 30 C 6.710344 5.024085 -12.656356 0
M  V30 31 C 6.388302 3.561915 -12.991564 0
M  V30 32 H 9.209644 2.842915 -18.320494 0
M  V30 33 H 9.184234 1.135481 -17.898445 0
M  V30 34 H 7.769641 1.895215 -18.665730 0
M  V30 35 H 7.149378 -0.017104 -17.556570 0
M  V30 36 H 5.749890 -1.559035 -16.286606 0
M  V30 37 H 5.067357 -1.028441 -13.966020 0
M  V30 38 H 5.768561 1.070949 -12.918763 0
M  V30 39 H 9.045017 2.656685 -13.047043 0
M  V30 40 H 9.259689 2.937674 -14.739050 0
M  V30 41 H 10.034586 4.874459 -13.415203 0
M  V30 42 H 8.744021 5.329674 -14.511452 0
M  V30 43 H 8.248722 7.311439 -13.046812 0
M  V30 44 H 7.686111 6.972668 -11.446903 0
M  V30 45 H 10.024514 6.228027 -10.790670 0
M  V30 46 H 10.593859 6.850796 -12.318023 0
M  V30 47 H 9.686695 9.081039 -11.787140 0
M  V30 48 H 9.077669 8.545940 -10.257921 0
M  V30 49 H 12.027055 8.040248 -10.603223 0
M  V30 50 H 11.598028 9.724503 -10.647218 0
M  V30 51 H 11.557665 9.702550 -8.438493 0
M  V30 52 H 12.088323 5.678955 -2.917488 0
M  V30 53 H 12.886042 7.096320 -1.046906 0
M  V30 54 H 12.762691 9.563619 -1.217392 0
M  V30 55 H 12.082627 10.572344 -3.338295 0
M  V30 56 H 6.172277 5.308091 -11.749912 0
M  V30 57 H 6.328952 5.665797 -13.446580 0
M  V30 58 H 5.343781 3.488358 -13.297901 0
M  V30 59 H 6.486115 2.970341 -12.083783 0
M  V30 60 H 8.435904 4.734673 -11.659031 0
M  V30 END ATOM
M  V30 BEGIN BOND
M  V30 1 1 2 1
M  V30 2 1 3 2
M  V30 3 2 4 3
M  V30 4 1 5 4
M  V30 5 2 6 5
M  V30 6 1 7 6
M  V30 7 1 8 3
M  V30 8 2 8 7
M  V30 9 1 9 8
M  V30 10 1 10 9
M  V30 11 1 11 10
M  V30 12 1 12 11
M  V30 13 1 13 12
M  V30 14 1 14 13
M  V30 15 1 15 14
M  V30 16 1 16 15
M  V30 17 1 17 16
M  V30 18 1 18 17
M  V30 19 2 19 18
M  V30 20 1 20 18
M  V30 21 1 21 20
M  V30 22 1 22 21
M  V30 23 2 23 22
M  V30 24 1 24 23
M  V30 25 2 25 24
M  V30 26 1 26 25
M  V30 27 1 27 22
M  V30 28 2 27 26
M  V30 29 2 28 20
M  V30 30 1 28 27
M  V30 31 1 29 28
M  V30 32 1 30 12
M  V30 33 1 31 9
M  V30 34 1 31 30
M  V30 35 1 32 1
M  V30 36 1 33 1
M  V30 37 1 34 1
M  V30 38 1 35 4
M  V30 39 1 36 5
M  V30 40 1 37 6
M  V30 41 1 38 7
M  V30 42 1 39 10
M  V30 43 1 40 10
M  V30 44 1 41 11
M  V30 45 1 42 11
M  V30 46 1 43 13
M  V30 47 1 44 13
M  V30 48 1 45 14
M  V30 49 1 46 14
M  V30 50 1 47 15
M  V30 51 1 48 15
M  V30 52 1 49 16
M  V30 53 1 50 16
M  V30 54 1 51 17
M  V30 55 1 52 23
M  V30 56 1 53 24
M  V30 57 1 54 25
M  V30 58 1 55 26
M  V30 59 1 56 30
M  V30 60 1 57 30
M  V30 61 1 58 31
M  V30 62 1 59 31
M  V30 63 1 60 12
M  V30 END BOND
M  V30 END CTAB
M  END
>  <b_m_subgroup_collapsed>  (1112) 
0

>  <r_i_docking_score>  (1112) 
-7.4723146984295497

>  <s_m_subgroup_title>  (1112) 
glide-dock_SP_D22_pv

>  <s_m_subgroupid>  (1112) 
glide-dock_SP_D22_pv

>  <Molecule ChEMBL ID>  (1112) 
CHEMBL126313

>  <Standard Type>  (1112) 
Ki

>  <Standard Value>  (1112) 
71.9

>  <label>  (1112) 
1

$$$$
CHEMBL1813593
     RDKit          3D

  0  0  0  0  0  0  0  0  0  0999 V3000
M  V30 BEGIN CTAB
M  V30 COUNTS 65 68 0 0 1
M  V30 BEGIN ATOM
M  V30 1 C 11.807539 11.074103 -6.177484 0
M  V30 2 O 11.267119 9.799285 -6.398056 0
M  V30 3 C 11.389231 8.883464 -5.374584 0
M  V30 4 C 11.963219 9.188567 -4.112399 0
M  V30 5 C 12.117997 8.213413 -3.116366 0
M  V30 6 C 12.682529 8.605783 -1.765898 0
M  V30 7 C 11.752953 6.890232 -3.399237 0
M  V30 8 C 11.186450 6.580328 -4.648878 0
M  V30 9 C 10.942512 7.568805 -5.627849 0
M  V30 10 N 10.278278 7.269005 -6.837206 0
M  V30 11 C 10.359473 5.959022 -7.460365 0
M  V30 12 C 10.333292 6.080638 -8.998113 0
M  V30 13 N 9.276113 6.999453 -9.493679 0 CHG=1
M  V30 14 C 9.232936 7.094283 -10.974871 0
M  V30 15 C 8.272732 6.053158 -11.599583 0
M  V30 16 C 8.819120 5.412251 -12.884673 0
M  V30 17 C 9.762763 4.236611 -12.591885 0
M  V30 18 O 10.508370 3.856591 -13.739604 0
M  V30 19 C 9.997707 2.904140 -14.594510 0
M  V30 20 C 8.665824 2.420784 -14.564421 0
M  V30 21 C 8.240549 1.437011 -15.478500 0
M  V30 22 C 9.143326 0.920838 -16.427731 0
M  V30 23 C 10.472231 1.392058 -16.460752 0
M  V30 24 C 10.886896 2.386955 -15.556351 0
M  V30 25 N 11.389951 0.874859 -17.408438 0
M  V30 26 C 11.173344 -0.228531 -18.142025 0
M  V30 27 O 11.983725 -0.627541 -18.973532 0
M  V30 28 C 9.885318 -1.019992 -17.874773 0
M  V30 29 C 8.713170 -0.112600 -17.451880 0
M  V30 30 C 9.294900 8.312623 -8.802201 0
M  V30 31 C 9.162301 8.094761 -7.288334 0
M  V30 32 H 11.685804 11.722060 -7.041962 0
M  V30 33 H 11.286052 11.533487 -5.336233 0
M  V30 34 H 12.874696 10.972507 -5.981444 0
M  V30 35 H 12.305583 10.172332 -3.866489 0
M  V30 36 H 12.745209 7.768200 -1.077666 0
M  V30 37 H 13.687505 9.000513 -1.874989 0
M  V30 38 H 12.066907 9.377925 -1.305761 0
M  V30 39 H 11.879788 6.113036 -2.659098 0
M  V30 40 H 10.885930 5.569444 -4.816162 0
M  V30 41 H 9.504838 5.372833 -7.126458 0
M  V30 42 H 11.269578 5.441077 -7.152343 0
M  V30 43 H 10.213795 5.093818 -9.444124 0
M  V30 44 H 11.286148 6.476115 -9.340283 0
M  V30 45 H 10.243421 6.999992 -11.375968 0
M  V30 46 H 8.891692 8.085788 -11.277226 0
M  V30 47 H 7.335628 6.558487 -11.846609 0
M  V30 48 H 8.007586 5.271757 -10.886093 0
M  V30 49 H 9.345467 6.170133 -13.461208 0
M  V30 50 H 7.991832 5.075768 -13.508380 0
M  V30 51 H 9.248439 3.391438 -12.138070 0
M  V30 52 H 10.485790 4.552121 -11.848079 0
M  V30 53 H 7.947239 2.789439 -13.852095 0
M  V30 54 H 7.219974 1.082759 -15.451037 0
M  V30 55 H 11.904798 2.748645 -15.581134 0
M  V30 56 H 12.273042 1.350201 -17.519863 0
M  V30 57 H 9.616952 -1.611334 -18.751064 0
M  V30 58 H 10.103094 -1.726598 -17.074034 0
M  V30 59 H 7.899555 -0.715812 -17.048059 0
M  V30 60 H 8.314125 0.410008 -18.321802 0
M  V30 61 H 10.223614 8.840650 -9.029769 0
M  V30 62 H 8.482284 8.944142 -9.158466 0
M  V30 63 H 8.229408 7.575224 -7.064645 0
M  V30 64 H 9.095724 9.039978 -6.758777 0
M  V30 65 H 8.378302 6.612485 -9.228419 0
M  V30 END ATOM
M  V30 BEGIN BOND
M  V30 1 1 2 1
M  V30 2 1 3 2
M  V30 3 1 4 3
M  V30 4 2 5 4
M  V30 5 1 6 5
M  V30 6 1 7 5
M  V30 7 2 8 7
M  V30 8 2 9 3
M  V30 9 1 9 8
M  V30 10 1 10 9
M  V30 11 1 11 10
M  V30 12 1 12 11
M  V30 13 1 13 12
M  V30 14 1 14 13
M  V30 15 1 15 14
M  V30 16 1 16 15
M  V30 17 1 17 16
M  V30 18 1 18 17
M  V30 19 1 19 18
M  V30 20 1 20 19
M  V30 21 2 21 20
M  V30 22 1 22 21
M  V30 23 2 23 22
M  V30 24 2 24 19
M  V30 25 1 24 23
M  V30 26 1 25 23
M  V30 27 1 26 25
M  V30 28 2 27 26
M  V30 29 1 28 26
M  V30 30 1 29 22
M  V30 31 1 29 28
M  V30 32 1 30 13
M  V30 33 1 31 10
M  V30 34 1 31 30
M  V30 35 1 32 1
M  V30 36 1 33 1
M  V30 37 1 34 1
M  V30 38 1 35 4
M  V30 39 1 36 6
M  V30 40 1 37 6
M  V30 41 1 38 6
M  V30 42 1 39 7
M  V30 43 1 40 8
M  V30 44 1 41 11
M  V30 45 1 42 11
M  V30 46 1 43 12
M  V30 47 1 44 12
M  V30 48 1 45 14
M  V30 49 1 46 14
M  V30 50 1 47 15
M  V30 51 1 48 15
M  V30 52 1 49 16
M  V30 53 1 50 16
M  V30 54 1 51 17
M  V30 55 1 52 17
M  V30 56 1 53 20
M  V30 57 1 54 21
M  V30 58 1 55 24
M  V30 59 1 56 25
M  V30 60 1 57 28
M  V30 61 1 58 28
M  V30 62 1 59 29
M  V30 63 1 60 29
M  V30 64 1 61 30
M  V30 65 1 62 30
M  V30 66 1 63 31
M  V30 67 1 64 31
M  V30 68 1 65 13
M  V30 END BOND
M  V30 END CTAB
M  END
>  <b_m_subgroup_collapsed>  (1113) 
0

>  <r_i_docking_score>  (1113) 
-7.4702707838770799

>  <s_m_subgroup_title>  (1113) 
glide-dock_SP_D22_pv

>  <s_m_subgroupid>  (1113) 
glide-dock_SP_D22_pv

>  <Molecule ChEMBL ID>  (1113) 
CHEMBL1813593

>  <Standard Type>  (1113) 
Ki

>  <Standard Value>  (1113) 
4.6

>  <label>  (1113) 
1

$$$$
CHEMBL550222
     RDKit          3D

  0  0  0  0  0  0  0  0  0  0999 V3000
M  V30 BEGIN CTAB
M  V30 COUNTS 60 63 0 0 1
M  V30 BEGIN ATOM
M  V30 1 C 3.797062 -0.566302 -14.338089 0
M  V30 2 S 5.469461 -0.043716 -13.848046 0
M  V30 3 C 6.315850 0.441072 -15.332673 0
M  V30 4 C 6.093104 -0.326376 -16.497702 0
M  V30 5 C 6.757386 -0.021602 -17.698957 0
M  V30 6 C 7.648863 1.059844 -17.745625 0
M  V30 7 C 7.873052 1.833076 -16.592567 0
M  V30 8 C 7.216529 1.547174 -15.372190 0
M  V30 9 N 7.482629 2.383748 -14.262678 0
M  V30 10 C 8.860370 2.750639 -13.945300 0
M  V30 11 C 8.979338 4.267016 -13.745763 0
M  V30 12 N 7.992128 4.775998 -12.752738 0 CHG=1
M  V30 13 C 8.096606 6.241164 -12.514070 0
M  V30 14 C 9.464786 6.726180 -11.987781 0
M  V30 15 C 9.832625 6.269973 -10.566643 0
M  V30 16 C 8.885744 6.837562 -9.495873 0
M  V30 17 N 9.550112 7.019555 -8.213975 0
M  V30 18 C 10.304974 8.090112 -7.926561 0
M  V30 19 O 10.558411 8.977481 -8.739569 0
M  V30 20 C 10.781273 8.130672 -6.523034 0
M  V30 21 C 11.178534 6.972445 -5.801698 0
M  V30 22 C 11.583036 7.429477 -4.584785 0
M  V30 23 C 12.086477 6.846824 -3.397303 0
M  V30 24 C 12.406062 7.657770 -2.335082 0
M  V30 25 C 12.203790 9.055849 -2.409649 0
M  V30 26 C 11.685894 9.622071 -3.550191 0
M  V30 27 N 11.408077 8.824910 -4.615244 0
M  V30 28 N 10.917163 9.240423 -5.822150 0
M  V30 29 C 6.593933 4.407364 -13.112805 0
M  V30 30 C 6.402692 2.918627 -13.437954 0
M  V30 31 H 3.176915 -0.735191 -13.455774 0
M  V30 32 H 3.318279 0.203022 -14.947188 0
M  V30 33 H 3.825192 -1.495796 -14.910750 0
M  V30 34 H 5.429639 -1.177963 -16.476591 0
M  V30 35 H 6.585543 -0.626530 -18.577385 0
M  V30 36 H 8.163574 1.294642 -18.666210 0
M  V30 37 H 8.545660 2.673504 -16.667917 0
M  V30 38 H 9.194568 2.231007 -13.047360 0
M  V30 39 H 9.554134 2.428253 -14.719958 0
M  V30 40 H 9.998930 4.475330 -13.421852 0
M  V30 41 H 8.834467 4.780696 -14.696698 0
M  V30 42 H 7.884259 6.758129 -13.446762 0
M  V30 43 H 7.304585 6.558121 -11.838072 0
M  V30 44 H 10.267936 6.469132 -12.674447 0
M  V30 45 H 9.449707 7.816016 -11.994342 0
M  V30 46 H 9.868233 5.180954 -10.498079 0
M  V30 47 H 10.847922 6.611255 -10.370831 0
M  V30 48 H 8.486040 7.801472 -9.813376 0
M  V30 49 H 8.032408 6.172309 -9.362283 0
M  V30 50 H 9.346972 6.367138 -7.470712 0
M  V30 51 H 11.176913 5.950992 -6.147285 0
M  V30 52 H 12.219200 5.772434 -3.341202 0
M  V30 53 H 12.818998 7.213566 -1.438348 0
M  V30 54 H 12.454532 9.689178 -1.562377 0
M  V30 55 H 11.481302 10.677334 -3.653868 0
M  V30 56 H 5.915843 4.698668 -12.309674 0
M  V30 57 H 6.291516 4.972228 -13.991030 0
M  V30 58 H 5.447597 2.799415 -13.945942 0
M  V30 59 H 6.313907 2.346175 -12.519049 0
M  V30 60 H 8.190307 4.314386 -11.874560 0
M  V30 END ATOM
M  V30 BEGIN BOND
M  V30 1 1 2 1
M  V30 2 1 3 2
M  V30 3 2 4 3
M  V30 4 1 5 4
M  V30 5 2 6 5
M  V30 6 1 7 6
M  V30 7 1 8 3
M  V30 8 2 8 7
M  V30 9 1 9 8
M  V30 10 1 10 9
M  V30 11 1 11 10
M  V30 12 1 12 11
M  V30 13 1 13 12
M  V30 14 1 14 13
M  V30 15 1 15 14
M  V30 16 1 16 15
M  V30 17 1 17 16
M  V30 18 1 18 17
M  V30 19 2 19 18
M  V30 20 1 20 18
M  V30 21 1 21 20
M  V30 22 2 22 21
M  V30 23 1 23 22
M  V30 24 2 24 23
M  V30 25 1 25 24
M  V30 26 2 26 25
M  V30 27 1 27 22
M  V30 28 1 27 26
M  V30 29 2 28 20
M  V30 30 1 28 27
M  V30 31 1 29 12
M  V30 32 1 30 9
M  V30 33 1 30 29
M  V30 34 1 31 1
M  V30 35 1 32 1
M  V30 36 1 33 1
M  V30 37 1 34 4
M  V30 38 1 35 5
M  V30 39 1 36 6
M  V30 40 1 37 7
M  V30 41 1 38 10
M  V30 42 1 39 10
M  V30 43 1 40 11
M  V30 44 1 41 11
M  V30 45 1 42 13
M  V30 46 1 43 13
M  V30 47 1 44 14
M  V30 48 1 45 14
M  V30 49 1 46 15
M  V30 50 1 47 15
M  V30 51 1 48 16
M  V30 52 1 49 16
M  V30 53 1 50 17
M  V30 54 1 51 21
M  V30 55 1 52 23
M  V30 56 1 53 24
M  V30 57 1 54 25
M  V30 58 1 55 26
M  V30 59 1 56 29
M  V30 60 1 57 29
M  V30 61 1 58 30
M  V30 62 1 59 30
M  V30 63 1 60 12
M  V30 END BOND
M  V30 END CTAB
M  END
>  <b_m_subgroup_collapsed>  (1114) 
0

>  <r_i_docking_score>  (1114) 
-7.47004085349199

>  <s_m_subgroup_title>  (1114) 
glide-dock_SP_D22_pv

>  <s_m_subgroupid>  (1114) 
glide-dock_SP_D22_pv

>  <Molecule ChEMBL ID>  (1114) 
CHEMBL550222

>  <Standard Type>  (1114) 
Ki

>  <Standard Value>  (1114) 
16.0

>  <label>  (1114) 
1

$$$$
CHEMBL424458
     RDKit          3D

  0  0  0  0  0  0  0  0  0  0999 V3000
M  V30 BEGIN CTAB
M  V30 COUNTS 66 68 0 0 1
M  V30 BEGIN ATOM
M  V30 1 C 11.486605 -0.123054 -17.983534 0
M  V30 2 C 11.330296 1.357901 -18.336617 0
M  V30 3 C 10.652832 2.147759 -17.205622 0
M  V30 4 N 10.639598 3.608612 -17.483835 0 CHG=1
M  V30 5 C 9.529758 4.010698 -18.395695 0
M  V30 6 C 9.858537 5.272149 -19.218327 0
M  V30 7 C 8.760989 5.608015 -20.234793 0
M  V30 8 C 10.759212 4.473027 -16.271935 0 CFG=2
M  V30 9 C 12.185711 4.459738 -15.697014 0
M  V30 10 C 12.363054 5.463657 -14.545075 0
M  V30 11 C 11.109301 5.752535 -13.718959 0
M  V30 12 C 9.873520 5.130077 -14.014426 0
M  V30 13 C 8.730904 5.436924 -13.253153 0
M  V30 14 C 8.819613 6.347640 -12.187854 0
M  V30 15 C 10.055216 6.931407 -11.840627 0
M  V30 16 C 10.108642 7.718801 -10.535163 0
M  V30 17 C 10.961246 6.979578 -9.492967 0
M  V30 18 C 11.003556 7.598491 -8.111098 0
M  V30 19 C 10.701680 6.816058 -6.976201 0
M  V30 20 C 10.887998 7.344413 -5.683365 0
M  V30 21 C 11.386129 8.655957 -5.518442 0
M  V30 22 C 11.707618 9.219359 -4.145787 0
M  V30 23 F 10.833027 10.172278 -3.847180 0
M  V30 24 F 11.685782 8.284005 -3.196206 0
M  V30 25 F 12.918837 9.766516 -4.167247 0
M  V30 26 C 11.636064 9.449683 -6.654500 0
M  V30 27 C 11.447359 8.923621 -7.946074 0
M  V30 28 C 11.208334 6.646452 -12.628491 0
M  V30 29 O 12.485278 6.972279 -12.238163 0
M  V30 30 C 12.934988 8.302126 -12.223034 0
M  V30 31 C 9.763927 4.132626 -15.146525 0
M  V30 32 H 11.992767 -0.667135 -18.780899 0
M  V30 33 H 12.080519 -0.228297 -17.075733 0
M  V30 34 H 10.520438 -0.599576 -17.811644 0
M  V30 35 H 10.766677 1.449503 -19.265083 0
M  V30 36 H 12.320186 1.773103 -18.532818 0
M  V30 37 H 11.203922 1.937144 -16.289124 0
M  V30 38 H 9.635859 1.787278 -17.033361 0
M  V30 39 H 9.332363 3.204698 -19.101318 0
M  V30 40 H 8.606599 4.151387 -17.834921 0
M  V30 41 H 9.997026 6.137552 -18.573505 0
M  V30 42 H 10.799667 5.132440 -19.748322 0
M  V30 43 H 9.013645 6.512944 -20.788721 0
M  V30 44 H 8.631804 4.803875 -20.957962 0
M  V30 45 H 7.801117 5.779952 -19.746889 0
M  V30 46 H 10.565376 5.500591 -16.577520 0
M  V30 47 H 12.929832 4.653977 -16.469530 0
M  V30 48 H 12.409911 3.468318 -15.306885 0
M  V30 49 H 12.705977 6.415431 -14.950455 0
M  V30 50 H 13.150626 5.108510 -13.883047 0
M  V30 51 H 7.780712 4.972914 -13.475187 0
M  V30 52 H 7.939714 6.551286 -11.594580 0
M  V30 53 H 9.097520 7.835715 -10.140515 0
M  V30 54 H 10.464911 8.729702 -10.720639 0
M  V30 55 H 11.991091 6.953232 -9.843039 0
M  V30 56 H 10.623528 5.945745 -9.415115 0
M  V30 57 H 10.368558 5.790931 -7.087667 0
M  V30 58 H 10.685563 6.719293 -4.825609 0
M  V30 59 H 12.012589 10.454309 -6.535179 0
M  V30 60 H 11.686348 9.521415 -8.812691 0
M  V30 61 H 13.994376 8.278799 -11.973316 0
M  V30 62 H 12.886014 8.739046 -13.220704 0
M  V30 63 H 12.475540 8.917994 -11.447082 0
M  V30 64 H 9.962530 3.145287 -14.727611 0
M  V30 65 H 8.736321 4.114962 -15.490150 0
M  V30 66 H 11.486257 3.782207 -18.008024 0
M  V30 END ATOM
M  V30 BEGIN BOND
M  V30 1 1 2 1
M  V30 2 1 3 2
M  V30 3 1 4 3
M  V30 4 1 5 4
M  V30 5 1 6 5
M  V30 6 1 7 6
M  V30 7 1 8 4
M  V30 8 1 9 8
M  V30 9 1 10 9
M  V30 10 1 11 10
M  V30 11 2 12 11
M  V30 12 1 13 12
M  V30 13 2 14 13
M  V30 14 1 15 14
M  V30 15 1 16 15
M  V30 16 1 17 16
M  V30 17 1 18 17
M  V30 18 1 19 18
M  V30 19 2 20 19
M  V30 20 1 21 20
M  V30 21 1 22 21
M  V30 22 1 23 22
M  V30 23 1 24 22
M  V30 24 1 25 22
M  V30 25 2 26 21
M  V30 26 2 27 18
M  V30 27 1 27 26
M  V30 28 1 28 11
M  V30 29 2 28 15
M  V30 30 1 29 28
M  V30 31 1 30 29
M  V30 32 1 31 8
M  V30 33 1 31 12
M  V30 34 1 32 1
M  V30 35 1 33 1
M  V30 36 1 34 1
M  V30 37 1 35 2
M  V30 38 1 36 2
M  V30 39 1 37 3
M  V30 40 1 38 3
M  V30 41 1 39 5
M  V30 42 1 40 5
M  V30 43 1 41 6
M  V30 44 1 42 6
M  V30 45 1 43 7
M  V30 46 1 44 7
M  V30 47 1 45 7
M  V30 48 1 8 46 CFG=3
M  V30 49 1 47 9
M  V30 50 1 48 9
M  V30 51 1 49 10
M  V30 52 1 50 10
M  V30 53 1 51 13
M  V30 54 1 52 14
M  V30 55 1 53 16
M  V30 56 1 54 16
M  V30 57 1 55 17
M  V30 58 1 56 17
M  V30 59 1 57 19
M  V30 60 1 58 20
M  V30 61 1 59 26
M  V30 62 1 60 27
M  V30 63 1 61 30
M  V30 64 1 62 30
M  V30 65 1 63 30
M  V30 66 1 64 31
M  V30 67 1 65 31
M  V30 68 1 66 4
M  V30 END BOND
M  V30 END CTAB
M  END
>  <b_m_subgroup_collapsed>  (1115) 
0

>  <r_i_docking_score>  (1115) 
-7.4691059424495201

>  <s_m_subgroup_title>  (1115) 
glide-dock_SP_D22_pv

>  <s_m_subgroupid>  (1115) 
glide-dock_SP_D22_pv

>  <Molecule ChEMBL ID>  (1115) 
CHEMBL424458

>  <Standard Type>  (1115) 
Ki

>  <Standard Value>  (1115) 
100.0

>  <label>  (1115) 
1

$$$$
CHEMBL487760
     RDKit          3D

  0  0  0  0  0  0  0  0  0  0999 V3000
M  V30 BEGIN CTAB
M  V30 COUNTS 67 70 0 0 1
M  V30 BEGIN ATOM
M  V30 1 C 3.054646 -0.868127 -14.205338 0
M  V30 2 O 4.325321 -0.356485 -13.846587 0
M  V30 3 C 5.270567 -0.227232 -14.838834 0
M  V30 4 C 5.082691 -0.646196 -16.179932 0
M  V30 5 C 6.098439 -0.446335 -17.134705 0
M  V30 6 C 7.302504 0.179994 -16.765808 0
M  V30 7 C 7.496649 0.608391 -15.436366 0
M  V30 8 C 8.775823 1.327920 -15.053962 0
M  V30 9 C 8.750882 2.793435 -15.513275 0
M  V30 10 C 10.051027 3.523672 -15.226467 0
M  V30 11 C 11.119716 3.378678 -16.135937 0
M  V30 12 C 12.336811 4.044030 -15.916894 0
M  V30 13 C 12.493937 4.847078 -14.776469 0
M  V30 14 C 11.437430 4.981422 -13.856744 0
M  V30 15 C 10.194379 4.334725 -14.074226 0
M  V30 16 O 9.101246 4.454623 -13.235785 0
M  V30 17 C 9.215010 5.154946 -12.000219 0
M  V30 18 C 9.171742 6.686272 -12.178289 0
M  V30 19 C 9.198659 7.448801 -10.847054 0
M  V30 20 C 10.597458 7.548975 -10.208663 0
M  V30 21 N 10.533247 8.133668 -8.870982 0
M  V30 22 C 10.055815 7.128765 -7.910048 0
M  V30 23 C 9.956439 7.738280 -6.505208 0
M  V30 24 N 11.251930 8.265978 -6.098193 0
M  V30 25 C 11.640321 8.204232 -4.776245 0
M  V30 26 N 11.686768 6.983622 -4.237637 0
M  V30 27 C 12.086489 6.891268 -2.957308 0
M  V30 28 C 12.410855 8.032468 -2.208332 0
M  V30 29 C 12.286096 9.262954 -2.869792 0
M  V30 30 N 11.919338 9.356107 -4.161721 0
M  V30 31 C 11.838808 9.202054 -7.047402 0
M  V30 32 C 11.871967 8.571920 -8.457330 0
M  V30 33 C 6.483427 0.393454 -14.480048 0
M  V30 34 H 2.478369 -1.027311 -13.295980 0
M  V30 35 H 2.508320 -0.174264 -14.846434 0
M  V30 36 H 3.141004 -1.827376 -14.705561 0
M  V30 37 H 4.171406 -1.122424 -16.505947 0
M  V30 38 H 5.952040 -0.776804 -18.152472 0
M  V30 39 H 8.074173 0.334259 -17.505337 0
M  V30 40 H 9.621071 0.801813 -15.500805 0
M  V30 41 H 8.914931 1.277453 -13.973127 0
M  V30 42 H 7.914885 3.313276 -15.046001 0
M  V30 43 H 8.566128 2.837209 -16.588072 0
M  V30 44 H 11.006183 2.754231 -17.010666 0
M  V30 45 H 13.152423 3.932564 -16.617008 0
M  V30 46 H 13.428962 5.359818 -14.607789 0
M  V30 47 H 11.613405 5.606411 -12.999307 0
M  V30 48 H 10.087769 4.823608 -11.441978 0
M  V30 49 H 8.360845 4.852736 -11.393507 0
M  V30 50 H 8.255399 6.942355 -12.710412 0
M  V30 51 H 9.993843 7.038344 -12.791722 0
M  V30 52 H 8.486024 6.972835 -10.178782 0
M  V30 53 H 8.819997 8.459343 -11.007641 0
M  V30 54 H 11.218406 8.175708 -10.851398 0
M  V30 55 H 11.079524 6.572535 -10.162964 0
M  V30 56 H 10.724970 6.266980 -7.897416 0
M  V30 57 H 9.070657 6.757019 -8.185350 0
M  V30 58 H 9.604548 6.978658 -5.805718 0
M  V30 59 H 9.218784 8.544415 -6.494081 0
M  V30 60 H 12.134145 5.902922 -2.523257 0
M  V30 61 H 12.724756 7.976460 -1.177119 0
M  V30 62 H 12.485922 10.174834 -2.342817 0
M  V30 63 H 11.276411 10.134225 -7.047511 0
M  V30 64 H 12.854332 9.449361 -6.737660 0
M  V30 65 H 12.564774 7.731901 -8.473064 0
M  V30 66 H 12.246813 9.305283 -9.172773 0
M  V30 67 H 6.625833 0.731659 -13.462763 0
M  V30 END ATOM
M  V30 BEGIN BOND
M  V30 1 1 2 1
M  V30 2 1 3 2
M  V30 3 2 4 3
M  V30 4 1 5 4
M  V30 5 2 6 5
M  V30 6 1 7 6
M  V30 7 1 8 7
M  V30 8 1 9 8
M  V30 9 1 10 9
M  V30 10 2 11 10
M  V30 11 1 12 11
M  V30 12 2 13 12
M  V30 13 1 14 13
M  V30 14 1 15 10
M  V30 15 2 15 14
M  V30 16 1 16 15
M  V30 17 1 17 16
M  V30 18 1 18 17
M  V30 19 1 19 18
M  V30 20 1 20 19
M  V30 21 1 21 20
M  V30 22 1 22 21
M  V30 23 1 23 22
M  V30 24 1 24 23
M  V30 25 1 25 24
M  V30 26 2 26 25
M  V30 27 1 27 26
M  V30 28 2 28 27
M  V30 29 1 29 28
M  V30 30 1 30 25
M  V30 31 2 30 29
M  V30 32 1 31 24
M  V30 33 1 32 21
M  V30 34 1 32 31
M  V30 35 1 33 3
M  V30 36 2 33 7
M  V30 37 1 34 1
M  V30 38 1 35 1
M  V30 39 1 36 1
M  V30 40 1 37 4
M  V30 41 1 38 5
M  V30 42 1 39 6
M  V30 43 1 40 8
M  V30 44 1 41 8
M  V30 45 1 42 9
M  V30 46 1 43 9
M  V30 47 1 44 11
M  V30 48 1 45 12
M  V30 49 1 46 13
M  V30 50 1 47 14
M  V30 51 1 48 17
M  V30 52 1 49 17
M  V30 53 1 50 18
M  V30 54 1 51 18
M  V30 55 1 52 19
M  V30 56 1 53 19
M  V30 57 1 54 20
M  V30 58 1 55 20
M  V30 59 1 56 22
M  V30 60 1 57 22
M  V30 61 1 58 23
M  V30 62 1 59 23
M  V30 63 1 60 27
M  V30 64 1 61 28
M  V30 65 1 62 29
M  V30 66 1 63 31
M  V30 67 1 64 31
M  V30 68 1 65 32
M  V30 69 1 66 32
M  V30 70 1 67 33
M  V30 END BOND
M  V30 END CTAB
M  END
>  <b_m_subgroup_collapsed>  (1116) 
0

>  <r_i_docking_score>  (1116) 
-7.4678849009682802

>  <s_m_subgroup_title>  (1116) 
glide-dock_SP_D22_pv

>  <s_m_subgroupid>  (1116) 
glide-dock_SP_D22_pv

>  <Molecule ChEMBL ID>  (1116) 
CHEMBL487760

>  <Standard Type>  (1116) 
Ki

>  <Standard Value>  (1116) 
854000.0

>  <label>  (1116) 
0

$$$$
CHEMBL5804691
     RDKit          3D

  0  0  0  0  0  0  0  0  0  0999 V3000
M  V30 BEGIN CTAB
M  V30 COUNTS 54 58 0 0 1
M  V30 BEGIN ATOM
M  V30 1 C 8.957138 -0.626756 -17.446705 0
M  V30 2 O 7.943750 0.066080 -16.722811 0
M  V30 3 C 8.319682 1.005377 -15.826462 0
M  V30 4 N 9.624234 1.216536 -15.610731 0
M  V30 5 C 9.949986 2.211887 -14.761614 0
M  V30 6 C 8.964048 2.999307 -14.135468 0
M  V30 7 C 7.628232 2.663244 -14.414949 0
M  V30 8 N 7.306155 1.669195 -15.266997 0
M  V30 9 C 6.494638 3.446353 -13.785672 0
M  V30 10 C 6.929922 4.172807 -12.495954 0
M  V30 11 N 8.305195 4.704640 -12.530643 0
M  V30 12 C 8.576193 5.824995 -11.624057 0
M  V30 13 C 9.063432 5.307925 -10.258277 0
M  V30 14 N 9.789976 6.325947 -9.504568 0
M  V30 15 C 8.910840 7.417178 -9.076840 0
M  V30 16 C 9.684229 8.469519 -8.256295 0
M  V30 17 N 10.395710 7.845697 -7.141969 0
M  V30 18 C 10.902629 8.700970 -6.151380 0
M  V30 19 N 10.885998 10.030089 -6.245661 0
M  V30 20 O 11.285959 10.544188 -4.985875 0
M  V30 21 C 11.633664 9.490763 -4.147747 0
M  V30 22 C 12.085844 9.474047 -2.823124 0
M  V30 23 C 12.329629 8.225527 -2.218112 0
M  V30 24 C 12.085912 7.029075 -2.929712 0
M  V30 25 C 11.611876 7.068083 -4.259615 0
M  V30 26 C 11.395346 8.324285 -4.879572 0
M  V30 27 C 11.222816 6.731691 -7.578916 0
M  V30 28 C 10.326542 5.708144 -8.294887 0
M  V30 29 C 9.314075 4.157062 -13.252234 0
M  V30 30 O 10.478571 4.556837 -13.209680 0
M  V30 31 H 8.495164 -1.380217 -18.084009 0
M  V30 32 H 9.515924 0.054243 -18.089752 0
M  V30 33 H 9.656446 -1.138533 -16.783531 0
M  V30 34 H 11.004844 2.387494 -14.605665 0
M  V30 35 H 6.135490 4.170263 -14.515258 0
M  V30 36 H 5.656212 2.781654 -13.573655 0
M  V30 37 H 6.885244 3.467614 -11.665001 0
M  V30 38 H 6.205185 4.953262 -12.258696 0
M  V30 39 H 9.321835 6.490317 -12.063891 0
M  V30 40 H 7.686058 6.439787 -11.500301 0
M  V30 41 H 8.223199 4.921813 -9.678263 0
M  V30 42 H 9.739241 4.467854 -10.422488 0
M  V30 43 H 8.486563 7.911075 -9.948491 0
M  V30 44 H 8.091427 7.009129 -8.486586 0
M  V30 45 H 10.396514 8.993476 -8.894818 0
M  V30 46 H 8.978339 9.211970 -7.882261 0
M  V30 47 H 12.222424 10.395343 -2.280679 0
M  V30 48 H 12.681447 8.185503 -1.198910 0
M  V30 49 H 12.246792 6.074866 -2.448601 0
M  V30 50 H 11.386876 6.140949 -4.761302 0
M  V30 51 H 11.987661 7.113986 -8.255607 0
M  V30 52 H 11.750648 6.250225 -6.762574 0
M  V30 53 H 9.519417 5.376667 -7.638425 0
M  V30 54 H 10.886013 4.816275 -8.561403 0
M  V30 END ATOM
M  V30 BEGIN BOND
M  V30 1 1 2 1
M  V30 2 1 3 2
M  V30 3 1 4 3
M  V30 4 2 5 4
M  V30 5 1 6 5
M  V30 6 2 7 6
M  V30 7 2 8 3
M  V30 8 1 8 7
M  V30 9 1 9 7
M  V30 10 1 10 9
M  V30 11 1 11 10
M  V30 12 1 12 11
M  V30 13 1 13 12
M  V30 14 1 14 13
M  V30 15 1 15 14
M  V30 16 1 16 15
M  V30 17 1 17 16
M  V30 18 1 18 17
M  V30 19 2 19 18
M  V30 20 1 20 19
M  V30 21 1 21 20
M  V30 22 2 22 21
M  V30 23 1 23 22
M  V30 24 2 24 23
M  V30 25 1 25 24
M  V30 26 1 26 18
M  V30 27 1 26 21
M  V30 28 2 26 25
M  V30 29 1 27 17
M  V30 30 1 28 14
M  V30 31 1 28 27
M  V30 32 1 29 6
M  V30 33 1 29 11
M  V30 34 2 30 29
M  V30 35 1 31 1
M  V30 36 1 32 1
M  V30 37 1 33 1
M  V30 38 1 34 5
M  V30 39 1 35 9
M  V30 40 1 36 9
M  V30 41 1 37 10
M  V30 42 1 38 10
M  V30 43 1 39 12
M  V30 44 1 40 12
M  V30 45 1 41 13
M  V30 46 1 42 13
M  V30 47 1 43 15
M  V30 48 1 44 15
M  V30 49 1 45 16
M  V30 50 1 46 16
M  V30 51 1 47 22
M  V30 52 1 48 23
M  V30 53 1 49 24
M  V30 54 1 50 25
M  V30 55 1 51 27
M  V30 56 1 52 27
M  V30 57 1 53 28
M  V30 58 1 54 28
M  V30 END BOND
M  V30 END CTAB
M  END
>  <b_m_subgroup_collapsed>  (1117) 
0

>  <r_i_docking_score>  (1117) 
-7.4673766263435004

>  <s_m_subgroup_title>  (1117) 
glide-dock_SP_D22_pv

>  <s_m_subgroupid>  (1117) 
glide-dock_SP_D22_pv

>  <Molecule ChEMBL ID>  (1117) 
CHEMBL5804691

>  <Standard Type>  (1117) 
Ki

>  <Standard Value>  (1117) 
10000.0

>  <label>  (1117) 
0

$$$$
CHEMBL4068455
     RDKit          3D

  0  0  0  0  0  0  0  0  0  0999 V3000
M  V30 BEGIN CTAB
M  V30 COUNTS 73 77 0 0 1
M  V30 BEGIN ATOM
M  V30 1 C 6.087960 -0.842285 -14.438192 0
M  V30 2 C 6.951228 -0.228442 -15.548218 0
M  V30 3 C 8.451457 -0.160016 -15.160601 0
M  V30 4 N 9.199508 0.984269 -15.678782 0
M  V30 5 C 8.972774 1.291229 -17.098698 0
M  V30 6 C 9.399000 0.137448 -18.028234 0
M  V30 7 C 10.916466 -0.089353 -18.042370 0
M  V30 8 C 9.177689 2.103782 -14.733118 0 CFG=2
M  V30 9 C 7.767578 2.705562 -14.507500 0
M  V30 10 C 7.738028 3.938435 -13.631394 0
M  V30 11 C 6.649705 4.530748 -12.961445 0
M  V30 12 C 6.843421 5.739114 -12.247076 0
M  V30 13 C 8.113265 6.374268 -12.187851 0
M  V30 14 C 9.206289 5.772042 -12.842632 0
M  V30 15 C 8.959100 4.603323 -13.514883 0
M  V30 16 N 10.171755 4.249900 -14.107698 0
M  V30 17 C 11.106783 5.183084 -13.846087 0
M  V30 18 O 12.241865 5.210178 -14.319925 0
M  V30 19 N 10.545686 6.123438 -13.046847 0
M  V30 20 C 11.063637 7.473520 -12.876493 0
M  V30 21 C 12.246350 7.541496 -11.914637 0
M  V30 22 C 11.853951 7.480879 -10.437816 0
M  V30 23 C 11.036980 8.693502 -9.952504 0
M  V30 24 N 10.973307 8.723361 -8.502786 0
M  V30 25 C 10.457573 7.757343 -7.730516 0
M  V30 26 O 9.802931 6.806338 -8.152076 0
M  V30 27 C 10.886976 7.815590 -6.331688 0
M  V30 28 C 11.285886 6.828686 -5.471305 0
M  V30 29 C 11.685997 7.469072 -4.256023 0
M  V30 30 C 12.204378 7.020908 -3.021530 0
M  V30 31 C 12.485729 7.932754 -1.986968 0
M  V30 32 C 12.221510 9.301030 -2.153685 0
M  V30 33 C 11.686203 9.772107 -3.362356 0
M  V30 34 C 11.451771 8.867892 -4.404365 0
M  V30 35 N 10.970766 9.037230 -5.683273 0
M  V30 36 C 10.271926 3.145758 -15.043245 0
M  V30 37 H 5.052766 -0.946472 -14.763968 0
M  V30 38 H 6.449709 -1.828182 -14.155386 0
M  V30 39 H 6.095166 -0.221148 -13.542804 0
M  V30 40 H 6.534068 0.745359 -15.793122 0
M  V30 41 H 6.843253 -0.822659 -16.456078 0
M  V30 42 H 8.983945 -1.027630 -15.531110 0
M  V30 43 H 8.557104 -0.204713 -14.076845 0
M  V30 44 H 7.928929 1.546545 -17.274019 0
M  V30 45 H 9.542582 2.167127 -17.401117 0
M  V30 46 H 8.884720 -0.788621 -17.773430 0
M  V30 47 H 9.078303 0.374622 -19.043333 0
M  V30 48 H 11.183554 -0.911982 -18.706842 0
M  V30 49 H 11.444722 0.802001 -18.382851 0
M  V30 50 H 11.285403 -0.333317 -17.047018 0
M  V30 51 H 9.477533 1.690904 -13.769192 0
M  V30 52 H 7.119334 1.980944 -14.018188 0
M  V30 53 H 7.302349 2.968043 -15.453103 0
M  V30 54 H 5.670581 4.074764 -12.995276 0
M  V30 55 H 6.004774 6.171862 -11.721762 0
M  V30 56 H 8.227786 7.299343 -11.640005 0
M  V30 57 H 10.267266 8.159642 -12.590125 0
M  V30 58 H 11.410289 7.816281 -13.852962 0
M  V30 59 H 12.846156 8.435508 -12.095488 0
M  V30 60 H 12.886059 6.702466 -12.162467 0
M  V30 61 H 12.766688 7.399719 -9.847121 0
M  V30 62 H 11.285316 6.572324 -10.252354 0
M  V30 63 H 10.025947 8.685293 -10.363386 0
M  V30 64 H 11.513673 9.619567 -10.274022 0
M  V30 65 H 11.545490 9.414289 -8.042245 0
M  V30 66 H 11.332334 5.772464 -5.678555 0
M  V30 67 H 12.381684 5.965289 -2.872589 0
M  V30 68 H 12.886310 7.585344 -1.047037 0
M  V30 69 H 12.427415 9.984793 -1.343754 0
M  V30 70 H 11.458578 10.817626 -3.479010 0
M  V30 71 H 10.690488 9.908967 -6.105685 0
M  V30 72 H 10.168151 3.578244 -16.036402 0
M  V30 73 H 11.260852 2.688775 -14.987205 0
M  V30 END ATOM
M  V30 BEGIN BOND
M  V30 1 1 2 1
M  V30 2 1 3 2
M  V30 3 1 4 3
M  V30 4 1 5 4
M  V30 5 1 6 5
M  V30 6 1 7 6
M  V30 7 1 8 4
M  V30 8 1 9 8
M  V30 9 1 10 9
M  V30 10 1 11 10
M  V30 11 2 12 11
M  V30 12 1 13 12
M  V30 13 2 14 13
M  V30 14 2 15 10
M  V30 15 1 15 14
M  V30 16 1 16 15
M  V30 17 1 17 16
M  V30 18 2 18 17
M  V30 19 1 19 14
M  V30 20 1 19 17
M  V30 21 1 20 19
M  V30 22 1 21 20
M  V30 23 1 22 21
M  V30 24 1 23 22
M  V30 25 1 24 23
M  V30 26 1 25 24
M  V30 27 2 26 25
M  V30 28 1 27 25
M  V30 29 2 28 27
M  V30 30 1 29 28
M  V30 31 2 30 29
M  V30 32 1 31 30
M  V30 33 2 32 31
M  V30 34 1 33 32
M  V30 35 1 34 29
M  V30 36 2 34 33
M  V30 37 1 35 27
M  V30 38 1 35 34
M  V30 39 1 36 8
M  V30 40 1 36 16
M  V30 41 1 37 1
M  V30 42 1 38 1
M  V30 43 1 39 1
M  V30 44 1 40 2
M  V30 45 1 41 2
M  V30 46 1 42 3
M  V30 47 1 43 3
M  V30 48 1 44 5
M  V30 49 1 45 5
M  V30 50 1 46 6
M  V30 51 1 47 6
M  V30 52 1 48 7
M  V30 53 1 49 7
M  V30 54 1 50 7
M  V30 55 1 8 51 CFG=1
M  V30 56 1 52 9
M  V30 57 1 53 9
M  V30 58 1 54 11
M  V30 59 1 55 12
M  V30 60 1 56 13
M  V30 61 1 57 20
M  V30 62 1 58 20
M  V30 63 1 59 21
M  V30 64 1 60 21
M  V30 65 1 61 22
M  V30 66 1 62 22
M  V30 67 1 63 23
M  V30 68 1 64 23
M  V30 69 1 65 24
M  V30 70 1 66 28
M  V30 71 1 67 30
M  V30 72 1 68 31
M  V30 73 1 69 32
M  V30 74 1 70 33
M  V30 75 1 71 35
M  V30 76 1 72 36
M  V30 77 1 73 36
M  V30 END BOND
M  V30 END CTAB
M  END
>  <b_m_subgroup_collapsed>  (1118) 
0

>  <r_i_docking_score>  (1118) 
-7.4658571148105102

>  <s_m_subgroup_title>  (1118) 
glide-dock_SP_D22_pv

>  <s_m_subgroupid>  (1118) 
glide-dock_SP_D22_pv

>  <Molecule ChEMBL ID>  (1118) 
CHEMBL4068455

>  <Standard Type>  (1118) 
Ki

>  <Standard Value>  (1118) 
86.8

>  <label>  (1118) 
1

$$$$
CHEMBL3323005
     RDKit          3D

  0  0  0  0  0  0  0  0  0  0999 V3000
M  V30 BEGIN CTAB
M  V30 COUNTS 59 62 0 0 1
M  V30 BEGIN ATOM
M  V30 1 C 13.732644 3.891571 -19.008362 0
M  V30 2 C 12.836173 3.015097 -18.160683 0
M  V30 3 N 12.468557 3.510405 -16.981621 0
M  V30 4 C 11.674195 2.747251 -16.201653 0
M  V30 5 N 11.294577 3.263017 -14.949635 0
M  V30 6 C 10.183148 2.721471 -14.178771 0
M  V30 7 C 9.217779 3.849966 -13.791648 0
M  V30 8 N 9.924406 4.902510 -13.050856 0
M  V30 9 C 8.967580 5.949788 -12.700009 0
M  V30 10 C 8.137550 5.579663 -11.455071 0
M  V30 11 C 8.873482 5.751958 -10.114622 0
M  V30 12 C 9.358252 7.188189 -9.872382 0
M  V30 13 N 9.893159 7.337094 -8.532703 0
M  V30 14 C 10.599939 8.400117 -8.130569 0
M  V30 15 O 10.893481 9.342196 -8.864779 0
M  V30 16 C 10.975873 8.347227 -6.697844 0
M  V30 17 C 11.252293 7.200296 -6.005220 0
M  V30 18 N 11.577063 7.587714 -4.721683 0
M  V30 19 C 11.933453 6.849664 -3.639164 0
M  V30 20 C 12.203334 7.483328 -2.452458 0
M  V30 21 C 12.102860 8.890073 -2.356521 0
M  V30 22 C 11.735474 9.637987 -3.448807 0
M  V30 23 C 11.473248 9.000113 -4.689194 0
M  V30 24 N 11.118917 9.466530 -5.882833 0
M  V30 25 C 10.956015 5.471571 -13.926107 0
M  V30 26 C 11.978735 4.390405 -14.319136 0
M  V30 27 C 11.250602 1.474772 -16.638180 0
M  V30 28 C 11.689537 1.054121 -17.908688 0
M  V30 29 C 11.302545 -0.300719 -18.488716 0
M  V30 30 F 10.674265 -0.137522 -19.654850 0
M  V30 31 F 12.398520 -1.026704 -18.687950 0
M  V30 32 F 10.490991 -0.971182 -17.667917 0
M  V30 33 N 12.490390 1.834846 -18.668188 0
M  V30 34 H 14.340183 3.293508 -19.686861 0
M  V30 35 H 13.130346 4.579949 -19.599737 0
M  V30 36 H 14.404103 4.476474 -18.380219 0
M  V30 37 H 9.615232 1.973739 -14.725533 0
M  V30 38 H 10.577687 2.235855 -13.288619 0
M  V30 39 H 8.760072 4.262849 -14.692650 0
M  V30 40 H 8.411819 3.430820 -13.189812 0
M  V30 41 H 9.482368 6.893231 -12.520574 0
M  V30 42 H 8.301825 6.138525 -13.545981 0
M  V30 43 H 7.249686 6.206469 -11.445774 0
M  V30 44 H 7.753878 4.564395 -11.525811 0
M  V30 45 H 8.185452 5.468931 -9.315547 0
M  V30 46 H 9.714748 5.057862 -10.060033 0
M  V30 47 H 10.131454 7.450359 -10.595017 0
M  V30 48 H 8.544665 7.903440 -9.995029 0
M  V30 49 H 9.650400 6.640290 -7.843760 0
M  V30 50 H 11.264958 6.156637 -6.281813 0
M  V30 51 H 11.976423 5.773325 -3.767562 0
M  V30 52 H 12.488597 6.890949 -1.590764 0
M  V30 53 H 12.314021 9.390493 -1.416899 0
M  V30 54 H 11.637155 10.713328 -3.372659 0
M  V30 55 H 10.505310 5.897199 -14.823961 0
M  V30 56 H 11.471442 6.281503 -13.405966 0
M  V30 57 H 12.494778 4.032144 -13.429296 0
M  V30 58 H 12.747277 4.830659 -14.952619 0
M  V30 59 H 10.638651 0.822608 -16.035704 0
M  V30 END ATOM
M  V30 BEGIN BOND
M  V30 1 1 2 1
M  V30 2 2 3 2
M  V30 3 1 4 3
M  V30 4 1 5 4
M  V30 5 1 6 5
M  V30 6 1 7 6
M  V30 7 1 8 7
M  V30 8 1 9 8
M  V30 9 1 10 9
M  V30 10 1 11 10
M  V30 11 1 12 11
M  V30 12 1 13 12
M  V30 13 1 14 13
M  V30 14 2 15 14
M  V30 15 1 16 14
M  V30 16 2 17 16
M  V30 17 1 18 17
M  V30 18 1 19 18
M  V30 19 2 20 19
M  V30 20 1 21 20
M  V30 21 2 22 21
M  V30 22 1 23 18
M  V30 23 1 23 22
M  V30 24 1 24 16
M  V30 25 2 24 23
M  V30 26 1 25 8
M  V30 27 1 26 5
M  V30 28 1 26 25
M  V30 29 2 27 4
M  V30 30 1 28 27
M  V30 31 1 29 28
M  V30 32 1 30 29
M  V30 33 1 31 29
M  V30 34 1 32 29
M  V30 35 1 33 2
M  V30 36 2 33 28
M  V30 37 1 34 1
M  V30 38 1 35 1
M  V30 39 1 36 1
M  V30 40 1 37 6
M  V30 41 1 38 6
M  V30 42 1 39 7
M  V30 43 1 40 7
M  V30 44 1 41 9
M  V30 45 1 42 9
M  V30 46 1 43 10
M  V30 47 1 44 10
M  V30 48 1 45 11
M  V30 49 1 46 11
M  V30 50 1 47 12
M  V30 51 1 48 12
M  V30 52 1 49 13
M  V30 53 1 50 17
M  V30 54 1 51 19
M  V30 55 1 52 20
M  V30 56 1 53 21
M  V30 57 1 54 22
M  V30 58 1 55 25
M  V30 59 1 56 25
M  V30 60 1 57 26
M  V30 61 1 58 26
M  V30 62 1 59 27
M  V30 END BOND
M  V30 END CTAB
M  END
>  <b_m_subgroup_collapsed>  (1119) 
0

>  <r_i_docking_score>  (1119) 
-7.46492711589101

>  <s_m_subgroup_title>  (1119) 
glide-dock_SP_D22_pv

>  <s_m_subgroupid>  (1119) 
glide-dock_SP_D22_pv

>  <Molecule ChEMBL ID>  (1119) 
CHEMBL3323005

>  <Standard Type>  (1119) 
Ki

>  <Standard Value>  (1119) 
24938.0

>  <label>  (1119) 
0

$$$$
CHEMBL328925
     RDKit          3D

  0  0  0  0  0  0  0  0  0  0999 V3000
M  V30 BEGIN CTAB
M  V30 COUNTS 46 49 0 0 1
M  V30 BEGIN ATOM
M  V30 1 O 12.486382 4.840541 -13.846647 0
M  V30 2 C 11.337684 5.652329 -13.744104 0
M  V30 3 C 10.144209 4.753334 -13.890701 0
M  V30 4 C 10.073857 3.581657 -14.691383 0
M  V30 5 N 8.908939 2.977785 -14.681938 0
M  V30 6 N 8.152161 3.749367 -13.845740 0
M  V30 7 C 6.847430 3.508305 -13.543779 0
M  V30 8 C 6.192353 4.364767 -12.694944 0
M  V30 9 C 6.867242 5.482625 -12.152016 0
M  V30 10 C 8.191051 5.728529 -12.450038 0
M  V30 11 C 8.852274 6.962349 -11.853209 0
M  V30 12 N 9.790276 6.709006 -10.763648 0
M  V30 13 C 9.093602 6.236951 -9.557007 0
M  V30 14 C 10.085435 6.011189 -8.396270 0
M  V30 15 N 10.884431 7.212621 -8.183505 0
M  V30 16 C 11.148473 7.719792 -6.900570 0
M  V30 17 C 11.292209 9.109894 -6.699489 0
M  V30 18 C 11.579612 9.625601 -5.423280 0
M  V30 19 C 11.734327 8.749740 -4.331426 0
M  V30 20 Cl 12.086674 9.371154 -2.764415 0
M  V30 21 C 11.598026 7.362201 -4.518223 0
M  V30 22 C 11.286448 6.853903 -5.793148 0
M  V30 23 C 11.504842 7.774006 -9.376473 0
M  V30 24 C 10.435857 7.988188 -10.450828 0
M  V30 25 C 8.885618 4.846500 -13.334705 0
M  V30 26 H 13.246543 5.372295 -13.649784 0
M  V30 27 H 11.361985 6.157274 -12.782537 0
M  V30 28 H 11.355149 6.415593 -14.521894 0
M  V30 29 H 10.870831 3.170709 -15.293022 0
M  V30 30 H 6.385548 2.638192 -13.998096 0
M  V30 31 H 5.153963 4.181942 -12.439775 0
M  V30 32 H 6.336650 6.162080 -11.486028 0
M  V30 33 H 9.390797 7.468028 -12.647078 0
M  V30 34 H 8.086573 7.667621 -11.527947 0
M  V30 35 H 8.345499 6.967524 -9.250107 0
M  V30 36 H 8.560654 5.308735 -9.768528 0
M  V30 37 H 9.523286 5.750025 -7.499119 0
M  V30 38 H 10.745820 5.173795 -8.622545 0
M  V30 39 H 11.172618 9.794755 -7.523510 0
M  V30 40 H 11.682693 10.690801 -5.289718 0
M  V30 41 H 11.717197 6.688132 -3.682938 0
M  V30 42 H 11.192451 5.787038 -5.919088 0
M  V30 43 H 12.033409 8.705961 -9.176414 0
M  V30 44 H 12.250177 7.079829 -9.760817 0
M  V30 45 H 10.913172 8.388041 -11.345448 0
M  V30 46 H 9.700176 8.724326 -10.117892 0
M  V30 END ATOM
M  V30 BEGIN BOND
M  V30 1 1 2 1
M  V30 2 1 3 2
M  V30 3 1 4 3
M  V30 4 2 5 4
M  V30 5 1 6 5
M  V30 6 1 7 6
M  V30 7 2 8 7
M  V30 8 1 9 8
M  V30 9 2 10 9
M  V30 10 1 11 10
M  V30 11 1 12 11
M  V30 12 1 13 12
M  V30 13 1 14 13
M  V30 14 1 15 14
M  V30 15 1 16 15
M  V30 16 1 17 16
M  V30 17 2 18 17
M  V30 18 1 19 18
M  V30 19 1 20 19
M  V30 20 2 21 19
M  V30 21 2 22 16
M  V30 22 1 22 21
M  V30 23 1 23 15
M  V30 24 1 24 12
M  V30 25 1 24 23
M  V30 26 2 25 3
M  V30 27 1 25 6
M  V30 28 1 25 10
M  V30 29 1 26 1
M  V30 30 1 27 2
M  V30 31 1 28 2
M  V30 32 1 29 4
M  V30 33 1 30 7
M  V30 34 1 31 8
M  V30 35 1 32 9
M  V30 36 1 33 11
M  V30 37 1 34 11
M  V30 38 1 35 13
M  V30 39 1 36 13
M  V30 40 1 37 14
M  V30 41 1 38 14
M  V30 42 1 39 17
M  V30 43 1 40 18
M  V30 44 1 41 21
M  V30 45 1 42 22
M  V30 46 1 43 23
M  V30 47 1 44 23
M  V30 48 1 45 24
M  V30 49 1 46 24
M  V30 END BOND
M  V30 END CTAB
M  END
>  <b_m_subgroup_collapsed>  (1120) 
0

>  <r_i_docking_score>  (1120) 
-7.4639261942238297

>  <s_m_subgroup_title>  (1120) 
glide-dock_SP_D22_pv

>  <s_m_subgroupid>  (1120) 
glide-dock_SP_D22_pv

>  <Molecule ChEMBL ID>  (1120) 
CHEMBL328925

>  <Standard Type>  (1120) 
Ki

>  <Standard Value>  (1120) 
39000.0

>  <label>  (1120) 
0

$$$$
CHEMBL443006
     RDKit          3D

  0  0  0  0  0  0  0  0  0  0999 V3000
M  V30 BEGIN CTAB
M  V30 COUNTS 52 55 0 0 1
M  V30 BEGIN ATOM
M  V30 1 C 11.963311 7.074531 -4.080780 0
M  V30 2 S 12.059924 8.909938 -4.037404 0
M  V30 3 O 11.685919 9.398369 -2.705481 0
M  V30 4 O 13.286127 9.372549 -4.668748 0
M  V30 5 N 10.855070 9.406733 -5.144771 0
M  V30 6 C 10.713680 8.987720 -6.470952 0
M  V30 7 C 11.797848 8.971958 -7.379244 0
M  V30 8 C 11.613322 8.533118 -8.708541 0
M  V30 9 C 10.342229 8.100051 -9.142706 0
M  V30 10 C 10.093281 7.664155 -10.581555 0
M  V30 11 C 9.293561 6.342109 -10.719795 0
M  V30 12 N 9.006036 6.001843 -12.137977 0 CFG=1 CHG=1
M  V30 13 C 10.207751 5.768385 -12.965026 0
M  V30 14 C 9.784339 4.898524 -14.158707 0 CFG=1
M  V30 15 C 10.730709 3.707987 -14.382065 0
M  V30 16 O 10.190836 2.789875 -15.316695 0
M  V30 17 C 8.964703 2.274924 -14.970244 0
M  V30 18 C 8.648645 0.965796 -15.377462 0
M  V30 19 C 7.422637 0.386098 -15.007964 0
M  V30 20 C 6.493114 1.122774 -14.247233 0
M  V30 21 C 5.245211 0.498939 -13.846727 0
M  V30 22 N 4.252162 -0.002142 -13.536473 0
M  V30 23 C 6.780466 2.453927 -13.878623 0
M  V30 24 C 8.022469 3.028059 -14.224865 0
M  V30 25 C 8.354333 4.458564 -13.822354 0 CFG=1
M  V30 26 C 8.189283 4.784572 -12.330324 0
M  V30 27 C 9.277588 8.119917 -8.227695 0
M  V30 28 C 9.448758 8.569482 -6.911561 0
M  V30 29 H 12.747178 6.666098 -3.445574 0
M  V30 30 H 12.085979 6.720152 -5.102843 0
M  V30 31 H 10.997451 6.739343 -3.708432 0
M  V30 32 H 9.998235 9.700347 -4.704284 0
M  V30 33 H 12.776549 9.313287 -7.075545 0
M  V30 34 H 12.449303 8.552120 -9.392258 0
M  V30 35 H 9.554009 8.470423 -11.081470 0
M  V30 36 H 11.057275 7.580102 -11.083721 0
M  V30 37 H 9.838296 5.526074 -10.240082 0
M  V30 38 H 8.333666 6.416648 -10.208073 0
M  V30 39 H 10.716021 6.685180 -13.258896 0
M  V30 40 H 10.886086 5.193735 -12.345860 0
M  V30 41 H 9.759950 5.491138 -15.074815 0
M  V30 42 H 11.701604 4.053913 -14.737217 0
M  V30 43 H 10.906392 3.172285 -13.447897 0
M  V30 44 H 9.357553 0.392246 -15.955662 0
M  V30 45 H 7.204186 -0.627761 -15.308945 0
M  V30 46 H 6.059128 3.021615 -13.307509 0
M  V30 47 H 7.685965 5.111935 -14.375077 0
M  V30 48 H 8.600698 3.973657 -11.728131 0
M  V30 49 H 7.148820 4.934217 -12.035730 0
M  V30 50 H 8.292224 7.810116 -8.531029 0
M  V30 51 H 8.595790 8.574376 -6.247223 0
M  V30 52 H 8.483985 6.770906 -12.537398 0
M  V30 END ATOM
M  V30 BEGIN BOND
M  V30 1 1 2 1
M  V30 2 2 3 2
M  V30 3 2 4 2
M  V30 4 1 5 2
M  V30 5 1 6 5
M  V30 6 1 7 6
M  V30 7 2 8 7
M  V30 8 1 9 8
M  V30 9 1 10 9
M  V30 10 1 11 10
M  V30 11 1 12 11
M  V30 12 1 13 12
M  V30 13 1 14 13
M  V30 14 1 15 14
M  V30 15 1 16 15
M  V30 16 1 17 16
M  V30 17 1 18 17
M  V30 18 2 19 18
M  V30 19 1 20 19
M  V30 20 1 21 20
M  V30 21 3 22 21
M  V30 22 2 23 20
M  V30 23 2 24 17
M  V30 24 1 24 23
M  V30 25 1 25 14
M  V30 26 1 25 24
M  V30 27 1 26 12
M  V30 28 1 26 25
M  V30 29 2 27 9
M  V30 30 2 28 6
M  V30 31 1 28 27
M  V30 32 1 29 1
M  V30 33 1 30 1
M  V30 34 1 31 1
M  V30 35 1 32 5
M  V30 36 1 33 7
M  V30 37 1 34 8
M  V30 38 1 35 10
M  V30 39 1 36 10
M  V30 40 1 37 11
M  V30 41 1 38 11
M  V30 42 1 39 13
M  V30 43 1 40 13
M  V30 44 1 14 41 CFG=3
M  V30 45 1 42 15
M  V30 46 1 43 15
M  V30 47 1 44 18
M  V30 48 1 45 19
M  V30 49 1 46 23
M  V30 50 1 25 47 CFG=3
M  V30 51 1 48 26
M  V30 52 1 49 26
M  V30 53 1 50 27
M  V30 54 1 51 28
M  V30 55 1 12 52 CFG=3
M  V30 END BOND
M  V30 END CTAB
M  END
>  <b_m_subgroup_collapsed>  (1121) 
0

>  <r_i_docking_score>  (1121) 
-7.4627102506445704

>  <s_m_subgroup_title>  (1121) 
glide-dock_SP_D22_pv

>  <s_m_subgroupid>  (1121) 
glide-dock_SP_D22_pv

>  <Molecule ChEMBL ID>  (1121) 
CHEMBL443006

>  <Standard Type>  (1121) 
Ki

>  <Standard Value>  (1121) 
25.12

>  <label>  (1121) 
1

$$$$
CHEMBL3588916
     RDKit          3D

  0  0  0  0  0  0  0  0  0  0999 V3000
M  V30 BEGIN CTAB
M  V30 COUNTS 64 68 0 0 1
M  V30 BEGIN ATOM
M  V30 1 C 11.922798 10.815685 -6.248076 0
M  V30 2 O 10.958220 10.457953 -5.276218 0
M  V30 3 C 11.313187 9.348070 -4.557525 0
M  V30 4 C 11.718845 9.555405 -3.225193 0
M  V30 5 C 12.108594 8.476640 -2.414397 0
M  V30 6 C 12.090043 7.173411 -2.936548 0
M  V30 7 C 11.686003 6.958865 -4.266295 0
M  V30 8 C 11.286007 8.030800 -5.099689 0
M  V30 9 N 10.831569 7.753843 -6.410815 0
M  V30 10 C 9.710500 8.477171 -7.011088 0
M  V30 11 C 8.745096 7.541691 -7.762547 0
M  V30 12 N 9.443765 6.550453 -8.624034 0 CHG=1
M  V30 13 C 8.511852 5.620811 -9.310103 0
M  V30 14 C 9.131836 4.862319 -10.498582 0
M  V30 15 C 9.554919 5.783200 -11.661945 0
M  V30 16 C 9.848256 5.051122 -12.988613 0
M  V30 17 C 8.711218 4.189502 -13.458039 0
M  V30 18 C 8.727838 2.921576 -13.968439 0
M  V30 19 N 7.391201 2.648464 -14.190155 0
M  V30 20 C 6.797442 1.473789 -14.689054 0
M  V30 21 C 5.739004 0.854414 -13.984962 0
M  V30 22 C 5.046548 -0.229361 -14.562229 0
M  V30 23 C 5.417544 -0.693876 -15.840974 0
M  V30 24 C 4.727056 -1.746077 -16.478153 0
M  V30 25 N 5.047236 -2.196690 -17.709429 0
M  V30 26 C 6.083313 -1.622600 -18.352312 0
M  V30 27 C 6.840428 -0.567784 -17.808481 0
M  V30 28 C 6.499372 -0.095440 -16.527382 0
M  V30 29 C 7.200883 0.976625 -15.944418 0
M  V30 30 N 6.610311 3.699849 -13.846761 0
M  V30 31 N 7.395362 4.644842 -13.446712 0
M  V30 32 C 10.443954 5.818109 -7.829880 0
M  V30 33 C 11.496058 6.757604 -7.237074 0
M  V30 34 H 11.686062 11.772286 -6.704067 0
M  V30 35 H 12.919570 10.905298 -5.846615 0
M  V30 36 H 11.986670 10.083788 -7.046838 0
M  V30 37 H 11.731731 10.557036 -2.819541 0
M  V30 38 H 12.413486 8.652530 -1.393081 0
M  V30 39 H 12.376645 6.335057 -2.317598 0
M  V30 40 H 11.647991 5.941527 -4.625402 0
M  V30 41 H 10.091279 9.222206 -7.708348 0
M  V30 42 H 9.141995 9.001010 -6.246778 0
M  V30 43 H 8.090685 8.159860 -8.369212 0
M  V30 44 H 8.111941 7.016128 -7.045641 0
M  V30 45 H 7.671565 6.172298 -9.702727 0
M  V30 46 H 8.096642 4.915586 -8.588811 0
M  V30 47 H 8.363885 4.173357 -10.846800 0
M  V30 48 H 9.963026 4.226072 -10.197623 0
M  V30 49 H 10.427331 6.369389 -11.373257 0
M  V30 50 H 8.757722 6.507097 -11.845035 0
M  V30 51 H 10.738308 4.436207 -12.859646 0
M  V30 52 H 10.099074 5.778604 -13.759314 0
M  V30 53 H 9.522925 2.214253 -14.151462 0
M  V30 54 H 5.428447 1.238374 -13.023453 0
M  V30 55 H 4.215718 -0.683461 -14.042433 0
M  V30 56 H 3.888688 -2.227915 -15.996635 0
M  V30 57 H 6.310229 -2.011478 -19.333410 0
M  V30 58 H 7.657749 -0.139585 -18.367319 0
M  V30 59 H 8.007543 1.453196 -16.480265 0
M  V30 60 H 9.889458 5.372326 -7.016294 0
M  V30 61 H 10.886000 5.008549 -8.398544 0
M  V30 62 H 12.045995 7.269859 -8.027884 0
M  V30 63 H 12.227245 6.172976 -6.679985 0
M  V30 64 H 9.925829 7.074163 -9.339428 0
M  V30 END ATOM
M  V30 BEGIN BOND
M  V30 1 1 2 1
M  V30 2 1 3 2
M  V30 3 2 4 3
M  V30 4 1 5 4
M  V30 5 2 6 5
M  V30 6 1 7 6
M  V30 7 1 8 3
M  V30 8 2 8 7
M  V30 9 1 9 8
M  V30 10 1 10 9
M  V30 11 1 11 10
M  V30 12 1 12 11
M  V30 13 1 13 12
M  V30 14 1 14 13
M  V30 15 1 15 14
M  V30 16 1 16 15
M  V30 17 1 17 16
M  V30 18 2 18 17
M  V30 19 1 19 18
M  V30 20 1 20 19
M  V30 21 2 21 20
M  V30 22 1 22 21
M  V30 23 2 23 22
M  V30 24 1 24 23
M  V30 25 2 25 24
M  V30 26 1 26 25
M  V30 27 2 27 26
M  V30 28 1 28 23
M  V30 29 1 28 27
M  V30 30 1 29 20
M  V30 31 2 29 28
M  V30 32 1 30 19
M  V30 33 1 31 17
M  V30 34 2 31 30
M  V30 35 1 32 12
M  V30 36 1 33 9
M  V30 37 1 33 32
M  V30 38 1 34 1
M  V30 39 1 35 1
M  V30 40 1 36 1
M  V30 41 1 37 4
M  V30 42 1 38 5
M  V30 43 1 39 6
M  V30 44 1 40 7
M  V30 45 1 41 10
M  V30 46 1 42 10
M  V30 47 1 43 11
M  V30 48 1 44 11
M  V30 49 1 45 13
M  V30 50 1 46 13
M  V30 51 1 47 14
M  V30 52 1 48 14
M  V30 53 1 49 15
M  V30 54 1 50 15
M  V30 55 1 51 16
M  V30 56 1 52 16
M  V30 57 1 53 18
M  V30 58 1 54 21
M  V30 59 1 55 22
M  V30 60 1 56 24
M  V30 61 1 57 26
M  V30 62 1 58 27
M  V30 63 1 59 29
M  V30 64 1 60 32
M  V30 65 1 61 32
M  V30 66 1 62 33
M  V30 67 1 63 33
M  V30 68 1 64 12
M  V30 END BOND
M  V30 END CTAB
M  END
>  <b_m_subgroup_collapsed>  (1122) 
0

>  <r_i_docking_score>  (1122) 
-7.4626500139702596

>  <s_m_subgroup_title>  (1122) 
glide-dock_SP_D22_pv

>  <s_m_subgroupid>  (1122) 
glide-dock_SP_D22_pv

>  <Molecule ChEMBL ID>  (1122) 
CHEMBL3588916

>  <Standard Type>  (1122) 
Ki

>  <Standard Value>  (1122) 
83.4

>  <label>  (1122) 
1

$$$$
CHEMBL5435054
     RDKit          3D

  0  0  0  0  0  0  0  0  0  0999 V3000
M  V30 BEGIN CTAB
M  V30 COUNTS 62 64 0 0 1
M  V30 BEGIN ATOM
M  V30 1 C 3.742358 -0.821522 -14.623792 0
M  V30 2 C 5.233015 -0.639847 -14.932237 0
M  V30 3 O 5.672550 0.574726 -14.337895 0
M  V30 4 C 6.917088 1.062320 -14.679790 0
M  V30 5 C 7.875607 0.354092 -15.440512 0
M  V30 6 C 9.134517 0.923008 -15.720454 0
M  V30 7 C 9.452440 2.217883 -15.264450 0
M  V30 8 C 8.513916 2.966028 -14.520957 0
M  V30 9 C 8.460201 4.269283 -13.927518 0
M  V30 10 C 7.219646 4.362015 -13.335625 0
M  V30 11 C 6.548663 5.454278 -12.570345 0
M  V30 12 N 7.454792 6.572405 -12.246838 0 CHG=1
M  V30 13 C 8.486159 6.262681 -11.233546 0
M  V30 14 C 9.146934 7.548031 -10.695232 0
M  V30 15 C 9.431159 7.470818 -9.181771 0 CFG=1
M  V30 16 C 10.632939 6.565854 -8.867534 0
M  V30 17 C 10.849051 6.452116 -7.353365 0
M  V30 18 C 11.080112 7.835421 -6.724112 0 CFG=2
M  V30 19 N 11.285970 7.670497 -5.289827 0
M  V30 20 C 11.757090 8.607237 -4.452148 0
M  V30 21 O 11.950551 9.771988 -4.801757 0
M  V30 22 N 11.961491 8.166567 -3.188316 0
M  V30 23 C 11.967672 6.751886 -2.791984 0
M  V30 24 C 12.271667 9.116821 -2.122550 0
M  V30 25 C 9.894596 8.770402 -7.041946 0
M  V30 26 C 9.639092 8.862097 -8.556865 0
M  V30 27 O 6.481708 3.226053 -13.518810 0
M  V30 28 C 7.263643 2.354190 -14.246917 0
M  V30 29 H 3.368262 -1.755136 -15.046431 0
M  V30 30 H 3.557921 -0.842379 -13.550194 0
M  V30 31 H 3.154768 -0.005170 -15.044607 0
M  V30 32 H 5.368992 -0.612935 -16.014296 0
M  V30 33 H 5.804807 -1.481087 -14.536755 0
M  V30 34 H 7.666685 -0.627793 -15.821908 0
M  V30 35 H 9.858235 0.361936 -16.294313 0
M  V30 36 H 10.418517 2.643326 -15.491562 0
M  V30 37 H 9.249364 5.004746 -13.960268 0
M  V30 38 H 5.709244 5.842716 -13.146873 0
M  V30 39 H 6.120197 5.056889 -11.648940 0
M  V30 40 H 7.857594 6.977953 -13.076874 0
M  V30 41 H 7.988593 5.736663 -10.416885 0
M  V30 42 H 9.241746 5.580557 -11.621917 0
M  V30 43 H 10.056045 7.774912 -11.253631 0
M  V30 44 H 8.486109 8.397772 -10.868999 0
M  V30 45 H 8.547492 7.049376 -8.697304 0
M  V30 46 H 10.480534 5.570723 -9.286300 0
M  V30 47 H 11.529145 6.972217 -9.338528 0
M  V30 48 H 11.689629 5.792094 -7.140717 0
M  V30 49 H 9.974195 5.983854 -6.900717 0
M  V30 50 H 11.988529 8.265687 -7.151757 0
M  V30 51 H 11.122501 6.751419 -4.907928 0
M  V30 52 H 12.484137 6.129748 -3.522727 0
M  V30 53 H 12.485845 6.599380 -1.845391 0
M  V30 54 H 10.950150 6.376399 -2.677318 0
M  V30 55 H 11.698450 10.037241 -2.246866 0
M  V30 56 H 12.037213 8.718953 -1.135690 0
M  V30 57 H 13.330201 9.370502 -2.142249 0
M  V30 58 H 10.086594 9.769634 -6.652427 0
M  V30 59 H 8.991604 8.410102 -6.545441 0
M  V30 60 H 10.471430 9.372004 -9.043022 0
M  V30 61 H 8.752625 9.472288 -8.729451 0
M  V30 62 H 6.886336 7.264702 -11.750029 0
M  V30 END ATOM
M  V30 BEGIN BOND
M  V30 1 1 2 1
M  V30 2 1 3 2
M  V30 3 1 4 3
M  V30 4 1 5 4
M  V30 5 2 6 5
M  V30 6 1 7 6
M  V30 7 2 8 7
M  V30 8 1 9 8
M  V30 9 2 10 9
M  V30 10 1 11 10
M  V30 11 1 12 11
M  V30 12 1 13 12
M  V30 13 1 14 13
M  V30 14 1 15 14
M  V30 15 1 16 15
M  V30 16 1 17 16
M  V30 17 1 18 17
M  V30 18 1 19 18
M  V30 19 1 20 19
M  V30 20 2 21 20
M  V30 21 1 22 20
M  V30 22 1 23 22
M  V30 23 1 24 22
M  V30 24 1 25 18
M  V30 25 1 26 15
M  V30 26 1 26 25
M  V30 27 1 27 10
M  V30 28 2 28 4
M  V30 29 1 28 8
M  V30 30 1 28 27
M  V30 31 1 29 1
M  V30 32 1 30 1
M  V30 33 1 31 1
M  V30 34 1 32 2
M  V30 35 1 33 2
M  V30 36 1 34 5
M  V30 37 1 35 6
M  V30 38 1 36 7
M  V30 39 1 37 9
M  V30 40 1 38 11
M  V30 41 1 39 11
M  V30 42 1 40 12
M  V30 43 1 41 13
M  V30 44 1 42 13
M  V30 45 1 43 14
M  V30 46 1 44 14
M  V30 47 1 15 45 CFG=1
M  V30 48 1 46 16
M  V30 49 1 47 16
M  V30 50 1 48 17
M  V30 51 1 49 17
M  V30 52 1 18 50 CFG=3
M  V30 53 1 51 19
M  V30 54 1 52 23
M  V30 55 1 53 23
M  V30 56 1 54 23
M  V30 57 1 55 24
M  V30 58 1 56 24
M  V30 59 1 57 24
M  V30 60 1 58 25
M  V30 61 1 59 25
M  V30 62 1 60 26
M  V30 63 1 61 26
M  V30 64 1 62 12
M  V30 END BOND
M  V30 END CTAB
M  END
>  <b_m_subgroup_collapsed>  (1123) 
0

>  <r_i_docking_score>  (1123) 
-7.4624098844319198

>  <s_m_subgroup_title>  (1123) 
glide-dock_SP_D22_pv

>  <s_m_subgroupid>  (1123) 
glide-dock_SP_D22_pv

>  <Molecule ChEMBL ID>  (1123) 
CHEMBL5435054

>  <Standard Type>  (1123) 
Ki

>  <Standard Value>  (1123) 
100.0

>  <label>  (1123) 
1

$$$$
CHEMBL381472
     RDKit          3D

  0  0  0  0  0  0  0  0  0  0999 V3000
M  V30 BEGIN CTAB
M  V30 COUNTS 44 46 0 0 1
M  V30 BEGIN ATOM
M  V30 1 O 10.024534 6.714966 -10.297445 0
M  V30 2 C 9.238651 5.886329 -9.837090 0
M  V30 3 C 8.613021 4.830756 -10.745572 0
M  V30 4 C 7.962122 5.447488 -11.999973 0
M  V30 5 C 8.148978 4.570540 -13.240136 0
M  V30 6 O 7.168641 3.979015 -13.693135 0
M  V30 7 C 9.517376 4.447191 -13.822902 0
M  V30 8 C 10.570416 5.321148 -13.462273 0
M  V30 9 C 11.846109 5.185610 -14.047166 0
M  V30 10 C 12.083444 4.173905 -14.994946 0
M  V30 11 C 11.044611 3.296706 -15.361325 0
M  V30 12 C 9.768233 3.437272 -14.782117 0
M  V30 13 N 8.881192 5.843974 -8.547438 0
M  V30 14 C 9.200006 6.870231 -7.567206 0
M  V30 15 C 10.681087 6.845865 -7.159334 0
M  V30 16 C 11.009198 7.961496 -6.219739 0
M  V30 17 C 10.958743 9.296612 -6.517776 0
M  V30 18 N 11.326801 10.025225 -5.400105 0
M  V30 19 C 11.650347 9.178857 -4.358113 0
M  V30 20 C 12.085936 9.412841 -3.042008 0
M  V30 21 C 12.326681 8.323085 -2.186691 0
M  V30 22 C 12.119679 7.010042 -2.646816 0
M  V30 23 C 11.686699 6.785882 -3.968287 0
M  V30 24 C 11.442462 7.860162 -4.855156 0
M  V30 25 H 7.867129 4.252528 -10.200438 0
M  V30 26 H 9.412127 4.136518 -11.009319 0
M  V30 27 H 8.350992 6.443977 -12.210929 0
M  V30 28 H 6.893858 5.585984 -11.822659 0
M  V30 29 H 10.424092 6.117548 -12.750471 0
M  V30 30 H 12.643567 5.861327 -13.769076 0
M  V30 31 H 13.060288 4.070110 -15.445763 0
M  V30 32 H 11.226223 2.516826 -16.086531 0
M  V30 33 H 8.982723 2.755224 -15.077399 0
M  V30 34 H 8.204184 5.147665 -8.271224 0
M  V30 35 H 8.926373 7.842963 -7.979816 0
M  V30 36 H 8.567671 6.719134 -6.690916 0
M  V30 37 H 10.924317 5.883148 -6.710380 0
M  V30 38 H 11.315980 6.932328 -8.041953 0
M  V30 39 H 10.684723 9.772861 -7.446415 0
M  V30 40 H 11.372879 11.033171 -5.387590 0
M  V30 41 H 12.222816 10.421169 -2.679729 0
M  V30 42 H 12.656745 8.500467 -1.173283 0
M  V30 43 H 12.294310 6.169802 -1.989372 0
M  V30 44 H 11.530886 5.772428 -4.308385 0
M  V30 END ATOM
M  V30 BEGIN BOND
M  V30 1 2 2 1
M  V30 2 1 3 2
M  V30 3 1 4 3
M  V30 4 1 5 4
M  V30 5 2 6 5
M  V30 6 1 7 5
M  V30 7 2 8 7
M  V30 8 1 9 8
M  V30 9 2 10 9
M  V30 10 1 11 10
M  V30 11 1 12 7
M  V30 12 2 12 11
M  V30 13 1 13 2
M  V30 14 1 14 13
M  V30 15 1 15 14
M  V30 16 1 16 15
M  V30 17 2 17 16
M  V30 18 1 18 17
M  V30 19 1 19 18
M  V30 20 2 20 19
M  V30 21 1 21 20
M  V30 22 2 22 21
M  V30 23 1 23 22
M  V30 24 1 24 16
M  V30 25 1 24 19
M  V30 26 2 24 23
M  V30 27 1 25 3
M  V30 28 1 26 3
M  V30 29 1 27 4
M  V30 30 1 28 4
M  V30 31 1 29 8
M  V30 32 1 30 9
M  V30 33 1 31 10
M  V30 34 1 32 11
M  V30 35 1 33 12
M  V30 36 1 34 13
M  V30 37 1 35 14
M  V30 38 1 36 14
M  V30 39 1 37 15
M  V30 40 1 38 15
M  V30 41 1 39 17
M  V30 42 1 40 18
M  V30 43 1 41 20
M  V30 44 1 42 21
M  V30 45 1 43 22
M  V30 46 1 44 23
M  V30 END BOND
M  V30 END CTAB
M  END
>  <b_m_subgroup_collapsed>  (1124) 
0

>  <r_i_docking_score>  (1124) 
-7.4613298063112197

>  <s_m_subgroup_title>  (1124) 
glide-dock_SP_D22_pv

>  <s_m_subgroupid>  (1124) 
glide-dock_SP_D22_pv

>  <Molecule ChEMBL ID>  (1124) 
CHEMBL381472

>  <Standard Type>  (1124) 
Ki

>  <Standard Value>  (1124) 
10000.0

>  <label>  (1124) 
0

$$$$
CHEMBL221129
     RDKit          3D

  0  0  0  0  0  0  0  0  0  0999 V3000
M  V30 BEGIN CTAB
M  V30 COUNTS 78 81 0 0 1
M  V30 BEGIN ATOM
M  V30 1 C 5.682232 0.775789 -13.418876 0
M  V30 2 C 6.934465 0.345870 -14.190062 0
M  V30 3 C 7.171592 1.182791 -15.455849 0
M  V30 4 C 8.417316 0.785018 -16.191071 0
M  V30 5 C 9.717354 1.226472 -16.155544 0
M  V30 6 C 10.293487 2.346691 -15.360464 0
M  V30 7 O 11.295287 2.966954 -15.717893 0
M  V30 8 N 9.668383 2.572326 -14.196474 0
M  V30 9 C 10.093496 3.507630 -13.168428 0
M  V30 10 C 9.177409 4.740886 -13.089232 0
M  V30 11 C 9.627793 5.665828 -11.950334 0
M  V30 12 C 8.729805 6.891791 -11.724064 0
M  V30 13 C 9.286724 7.939980 -10.732985 0
M  V30 14 N 9.296489 7.497110 -9.308343 0 CHG=1
M  V30 15 C 10.550833 6.788443 -8.912450 0
M  V30 16 C 10.452591 6.219569 -7.487092 0
M  V30 17 N 10.085524 7.277991 -6.565114 0
M  V30 18 C 10.926113 7.592551 -5.477444 0
M  V30 19 C 11.283781 6.588162 -4.553619 0
M  V30 20 C 12.053663 6.874621 -3.410356 0
M  V30 21 C 12.485575 8.185225 -3.182365 0
M  V30 22 C 12.179528 9.187911 -4.117234 0
M  V30 23 C 11.420732 8.902364 -5.286412 0
M  V30 24 O 11.163802 9.825950 -6.275199 0
M  V30 25 C 11.774042 11.085507 -6.143313 0
M  V30 26 C 8.934698 8.111399 -6.911545 0
M  V30 27 C 9.026059 8.612359 -8.365075 0
M  V30 28 N 10.470730 0.464952 -17.050734 0
M  V30 29 N 9.707718 -0.409229 -17.621397 0
M  V30 30 N 8.458006 -0.227084 -17.136234 0
M  V30 31 C 7.371993 -1.057003 -17.636673 0
M  V30 32 C 6.534469 -0.339556 -18.684311 0
M  V30 33 C 7.183686 0.237655 -19.799036 0
M  V30 34 C 6.445983 0.893201 -20.798494 0
M  V30 35 C 5.047718 0.970564 -20.693773 0
M  V30 36 C 4.387017 0.394237 -19.594316 0
M  V30 37 C 5.119709 -0.261087 -18.587597 0
M  V30 38 Br 4.161867 -1.027684 -17.125820 0
M  V30 39 H 5.555577 0.173811 -12.519204 0
M  V30 40 H 5.748873 1.819266 -13.107496 0
M  V30 41 H 4.784063 0.660632 -14.028244 0
M  V30 42 H 6.843656 -0.708771 -14.457424 0
M  V30 43 H 7.799553 0.413246 -13.530868 0
M  V30 44 H 7.209560 2.242626 -15.202604 0
M  V30 45 H 6.312284 1.081983 -16.118668 0
M  V30 46 H 8.884979 1.972514 -13.977292 0
M  V30 47 H 10.081470 2.972528 -12.218136 0
M  V30 48 H 11.127684 3.821054 -13.327481 0
M  V30 49 H 9.191479 5.274835 -14.038686 0
M  V30 50 H 8.149478 4.422142 -12.920831 0
M  V30 51 H 9.649141 5.064862 -11.043700 0
M  V30 52 H 10.645905 5.998788 -12.151029 0
M  V30 53 H 8.587103 7.395071 -12.678050 0
M  V30 54 H 7.731778 6.571600 -11.430011 0
M  V30 55 H 10.275704 8.282280 -11.034148 0
M  V30 56 H 8.635254 8.811880 -10.818162 0
M  V30 57 H 10.799495 5.982886 -9.590336 0
M  V30 58 H 11.384931 7.489452 -8.964615 0
M  V30 59 H 9.697854 5.432299 -7.445061 0
M  V30 60 H 11.405885 5.770718 -7.198955 0
M  V30 61 H 10.890984 5.598497 -4.672249 0
M  V30 62 H 12.281426 6.091524 -2.701283 0
M  V30 63 H 13.065143 8.424947 -2.300500 0
M  V30 64 H 12.561728 10.170961 -3.904085 0
M  V30 65 H 11.683455 11.683922 -7.046523 0
M  V30 66 H 11.287787 11.609296 -5.319193 0
M  V30 67 H 12.843845 10.972218 -5.964646 0
M  V30 68 H 8.037916 7.510834 -6.773072 0
M  V30 69 H 8.832417 8.965714 -6.247214 0
M  V30 70 H 9.820224 9.356308 -8.452001 0
M  V30 71 H 8.104917 9.129616 -8.623529 0
M  V30 72 H 6.774210 -1.378456 -16.787579 0
M  V30 73 H 7.785366 -1.961671 -18.083858 0
M  V30 74 H 8.258393 0.179495 -19.898542 0
M  V30 75 H 6.949843 1.329593 -21.648397 0
M  V30 76 H 4.486313 1.473278 -21.462263 0
M  V30 77 H 3.309401 0.448652 -19.525101 0
M  V30 78 H 8.512671 6.865661 -9.205191 0
M  V30 END ATOM
M  V30 BEGIN BOND
M  V30 1 1 2 1
M  V30 2 1 3 2
M  V30 3 1 4 3
M  V30 4 2 5 4
M  V30 5 1 6 5
M  V30 6 2 7 6
M  V30 7 1 8 6
M  V30 8 1 9 8
M  V30 9 1 10 9
M  V30 10 1 11 10
M  V30 11 1 12 11
M  V30 12 1 13 12
M  V30 13 1 14 13
M  V30 14 1 15 14
M  V30 15 1 16 15
M  V30 16 1 17 16
M  V30 17 1 18 17
M  V30 18 2 19 18
M  V30 19 1 20 19
M  V30 20 2 21 20
M  V30 21 1 22 21
M  V30 22 1 23 18
M  V30 23 2 23 22
M  V30 24 1 24 23
M  V30 25 1 25 24
M  V30 26 1 26 17
M  V30 27 1 27 14
M  V30 28 1 27 26
M  V30 29 1 28 5
M  V30 30 2 29 28
M  V30 31 1 30 4
M  V30 32 1 30 29
M  V30 33 1 31 30
M  V30 34 1 32 31
M  V30 35 2 33 32
M  V30 36 1 34 33
M  V30 37 2 35 34
M  V30 38 1 36 35
M  V30 39 1 37 32
M  V30 40 2 37 36
M  V30 41 1 38 37
M  V30 42 1 39 1
M  V30 43 1 40 1
M  V30 44 1 41 1
M  V30 45 1 42 2
M  V30 46 1 43 2
M  V30 47 1 44 3
M  V30 48 1 45 3
M  V30 49 1 46 8
M  V30 50 1 47 9
M  V30 51 1 48 9
M  V30 52 1 49 10
M  V30 53 1 50 10
M  V30 54 1 51 11
M  V30 55 1 52 11
M  V30 56 1 53 12
M  V30 57 1 54 12
M  V30 58 1 55 13
M  V30 59 1 56 13
M  V30 60 1 57 15
M  V30 61 1 58 15
M  V30 62 1 59 16
M  V30 63 1 60 16
M  V30 64 1 61 19
M  V30 65 1 62 20
M  V30 66 1 63 21
M  V30 67 1 64 22
M  V30 68 1 65 25
M  V30 69 1 66 25
M  V30 70 1 67 25
M  V30 71 1 68 26
M  V30 72 1 69 26
M  V30 73 1 70 27
M  V30 74 1 71 27
M  V30 75 1 72 31
M  V30 76 1 73 31
M  V30 77 1 74 33
M  V30 78 1 75 34
M  V30 79 1 76 35
M  V30 80 1 77 36
M  V30 81 1 78 14
M  V30 END BOND
M  V30 END CTAB
M  END
>  <b_m_subgroup_collapsed>  (1125) 
0

>  <r_i_docking_score>  (1125) 
-7.4611985059102404

>  <s_m_subgroup_title>  (1125) 
glide-dock_SP_D22_pv

>  <s_m_subgroupid>  (1125) 
glide-dock_SP_D22_pv

>  <Molecule ChEMBL ID>  (1125) 
CHEMBL221129

>  <Standard Type>  (1125) 
Ki

>  <Standard Value>  (1125) 
0.91

>  <label>  (1125) 
1

$$$$
CHEMBL540538
     RDKit          3D

  0  0  0  0  0  0  0  0  0  0999 V3000
M  V30 BEGIN CTAB
M  V30 COUNTS 44 45 0 0 1
M  V30 BEGIN ATOM
M  V30 1 C 8.870494 8.386471 -12.095286 0
M  V30 2 C 8.601754 6.877333 -12.250251 0
M  V30 3 N 8.319220 6.172423 -10.963213 0 CHG=1
M  V30 4 C 7.843534 4.775140 -11.147956 0
M  V30 5 C 6.494370 4.679528 -11.881043 0
M  V30 6 C 9.435551 6.270173 -9.976436 0
M  V30 7 C 9.286276 7.496883 -9.043476 0
M  V30 8 C 10.585266 8.063618 -8.418132 0 CFG=1
M  V30 9 C 11.783951 8.247994 -9.376264 0
M  V30 10 O 10.272512 9.369699 -7.959934 0
M  V30 11 C 10.589642 9.452970 -6.636935 0
M  V30 12 C 11.019262 8.332760 -6.057543 0
M  V30 13 C 11.510428 8.206107 -4.674582 0
M  V30 14 C 11.780340 9.372929 -3.928561 0
M  V30 15 C 12.249459 9.277235 -2.610924 0
M  V30 16 C 12.474664 8.020037 -2.032398 0
M  V30 17 C 12.175028 6.850448 -2.752701 0
M  V30 18 C 11.686472 6.942601 -4.069040 0
M  V30 19 C 11.002559 7.360190 -7.133291 0
M  V30 20 O 11.286264 6.172130 -7.074016 0
M  V30 21 H 8.917781 8.904487 -13.046709 0
M  V30 22 H 8.082415 8.884327 -11.532523 0
M  V30 23 H 9.819182 8.575449 -11.601637 0
M  V30 24 H 9.437395 6.395957 -12.759529 0
M  V30 25 H 7.743541 6.780139 -12.913789 0
M  V30 26 H 8.602396 4.183951 -11.665252 0
M  V30 27 H 7.704010 4.315742 -10.168504 0
M  V30 28 H 6.092573 3.669813 -11.795468 0
M  V30 29 H 5.761528 5.363425 -11.449508 0
M  V30 30 H 6.578914 4.896900 -12.945683 0
M  V30 31 H 10.370746 6.280898 -10.532301 0
M  V30 32 H 9.486807 5.379023 -9.348416 0
M  V30 33 H 8.573034 7.243440 -8.255957 0
M  V30 34 H 8.805562 8.323767 -9.554786 0
M  V30 35 H 12.128664 7.309576 -9.807534 0
M  V30 36 H 11.540454 8.928640 -10.191552 0
M  V30 37 H 12.638632 8.681990 -8.854281 0
M  V30 38 H 10.486607 10.441830 -6.216102 0
M  V30 39 H 11.645713 10.355286 -4.351171 0
M  V30 40 H 12.440340 10.171767 -2.042782 0
M  V30 41 H 12.869064 7.959646 -1.031641 0
M  V30 42 H 12.322351 5.879862 -2.302021 0
M  V30 43 H 11.456778 6.032046 -4.600126 0
M  V30 44 H 7.532062 6.694667 -10.557850 0
M  V30 END ATOM
M  V30 BEGIN BOND
M  V30 1 1 2 1
M  V30 2 1 3 2
M  V30 3 1 4 3
M  V30 4 1 5 4
M  V30 5 1 6 3
M  V30 6 1 7 6
M  V30 7 1 8 7 CFG=3
M  V30 8 1 9 8
M  V30 9 1 10 8
M  V30 10 1 11 10
M  V30 11 2 12 11
M  V30 12 1 13 12
M  V30 13 2 14 13
M  V30 14 1 15 14
M  V30 15 2 16 15
M  V30 16 1 17 16
M  V30 17 1 18 13
M  V30 18 2 18 17
M  V30 19 1 19 8
M  V30 20 1 19 12
M  V30 21 2 20 19
M  V30 22 1 21 1
M  V30 23 1 22 1
M  V30 24 1 23 1
M  V30 25 1 24 2
M  V30 26 1 25 2
M  V30 27 1 26 4
M  V30 28 1 27 4
M  V30 29 1 28 5
M  V30 30 1 29 5
M  V30 31 1 30 5
M  V30 32 1 31 6
M  V30 33 1 32 6
M  V30 34 1 33 7
M  V30 35 1 34 7
M  V30 36 1 35 9
M  V30 37 1 36 9
M  V30 38 1 37 9
M  V30 39 1 38 11
M  V30 40 1 39 14
M  V30 41 1 40 15
M  V30 42 1 41 16
M  V30 43 1 42 17
M  V30 44 1 43 18
M  V30 45 1 44 3
M  V30 END BOND
M  V30 END CTAB
M  END
>  <b_m_subgroup_collapsed>  (1126) 
0

>  <r_i_docking_score>  (1126) 
-7.45967220114591

>  <s_m_subgroup_title>  (1126) 
glide-dock_SP_D22_pv

>  <s_m_subgroupid>  (1126) 
glide-dock_SP_D22_pv

>  <Molecule ChEMBL ID>  (1126) 
CHEMBL540538

>  <Standard Type>  (1126) 
Ki

>  <Standard Value>  (1126) 
10000.0

>  <label>  (1126) 
0

$$$$
CHEMBL2207495
     RDKit          3D

  0  0  0  0  0  0  0  0  0  0999 V3000
M  V30 BEGIN CTAB
M  V30 COUNTS 41 43 0 0 1
M  V30 BEGIN ATOM
M  V30 1 C 6.259728 4.327975 -12.620629 0
M  V30 2 C 6.896650 5.290237 -11.610855 0
M  V30 3 C 7.863431 4.584023 -10.646867 0
M  V30 4 N 8.535676 5.553216 -9.732186 0 CFG=2 CHG=1
M  V30 5 C 9.980285 5.628364 -10.028006 0
M  V30 6 C 10.625504 6.769027 -9.256929 0
M  V30 7 C 10.484151 6.611090 -7.716282 0 CFG=1
M  V30 8 N 11.015683 7.746831 -6.928413 0
M  V30 9 C 11.295444 8.979734 -7.402229 0
M  V30 10 O 11.286021 9.372326 -8.564412 0
M  V30 11 C 11.681655 9.846395 -6.208139 0
M  V30 12 O 11.927620 11.043798 -6.246865 0
M  V30 13 C 11.691287 8.957355 -5.068857 0
M  V30 14 C 12.086021 9.193995 -3.739915 0
M  V30 15 C 12.086020 8.098593 -2.851987 0
M  V30 16 C 11.686277 6.819618 -3.304648 0
M  V30 17 C 11.285985 6.621426 -4.646869 0
M  V30 18 C 11.286080 7.711047 -5.529985 0
M  V30 19 C 8.991050 6.426296 -7.411085 0
M  V30 20 C 8.333241 5.329907 -8.272261 0
M  V30 21 H 5.579029 4.859579 -13.286367 0
M  V30 22 H 7.015873 3.841573 -13.237372 0
M  V30 23 H 5.687074 3.550906 -12.113022 0
M  V30 24 H 6.100331 5.772324 -11.046870 0
M  V30 25 H 7.417815 6.084348 -12.146996 0
M  V30 26 H 8.610266 4.073906 -11.256849 0
M  V30 27 H 7.349091 3.782169 -10.113651 0
M  V30 28 H 10.125128 5.786831 -11.097963 0
M  V30 29 H 10.444194 4.680948 -9.757387 0
M  V30 30 H 10.099128 7.655549 -9.609571 0
M  V30 31 H 11.671071 6.883512 -9.545087 0
M  V30 32 H 11.029331 5.716134 -7.416411 0
M  V30 33 H 12.402418 10.172323 -3.409685 0
M  V30 34 H 12.388186 8.239425 -1.824420 0
M  V30 35 H 11.686017 5.984914 -2.618325 0
M  V30 36 H 10.979539 5.657356 -4.988273 0
M  V30 37 H 8.844251 6.195713 -6.355393 0
M  V30 38 H 8.476578 7.372306 -7.585415 0
M  V30 39 H 7.286022 5.372324 -8.014681 0
M  V30 40 H 8.702948 4.342481 -7.993951 0
M  V30 41 H 8.118788 6.457312 -9.933156 0
M  V30 END ATOM
M  V30 BEGIN BOND
M  V30 1 1 2 1
M  V30 2 1 3 2
M  V30 3 1 4 3
M  V30 4 1 5 4
M  V30 5 1 6 5
M  V30 6 1 7 6
M  V30 7 1 8 7
M  V30 8 1 9 8
M  V30 9 2 10 9
M  V30 10 1 11 9
M  V30 11 2 12 11
M  V30 12 1 13 11
M  V30 13 2 14 13
M  V30 14 1 15 14
M  V30 15 2 16 15
M  V30 16 1 17 16
M  V30 17 1 18 8
M  V30 18 1 18 13
M  V30 19 2 18 17
M  V30 20 1 19 7
M  V30 21 1 20 4
M  V30 22 1 20 19
M  V30 23 1 21 1
M  V30 24 1 22 1
M  V30 25 1 23 1
M  V30 26 1 24 2
M  V30 27 1 25 2
M  V30 28 1 26 3
M  V30 29 1 27 3
M  V30 30 1 28 5
M  V30 31 1 29 5
M  V30 32 1 30 6
M  V30 33 1 31 6
M  V30 34 1 7 32 CFG=1
M  V30 35 1 33 14
M  V30 36 1 34 15
M  V30 37 1 35 16
M  V30 38 1 36 17
M  V30 39 1 37 19
M  V30 40 1 38 19
M  V30 41 1 39 20
M  V30 42 1 40 20
M  V30 43 1 4 41 CFG=3
M  V30 END BOND
M  V30 END CTAB
M  END
>  <b_m_subgroup_collapsed>  (1127) 
0

>  <r_i_docking_score>  (1127) 
-7.4596163010675198

>  <s_m_subgroup_title>  (1127) 
glide-dock_SP_D22_pv

>  <s_m_subgroupid>  (1127) 
glide-dock_SP_D22_pv

>  <Molecule ChEMBL ID>  (1127) 
CHEMBL2207495

>  <Standard Type>  (1127) 
Ki

>  <Standard Value>  (1127) 
12160.0

>  <label>  (1127) 
0

$$$$
CHEMBL230069
     RDKit          3D

  0  0  0  0  0  0  0  0  0  0999 V3000
M  V30 BEGIN CTAB
M  V30 COUNTS 56 59 0 0 1
M  V30 BEGIN ATOM
M  V30 1 C 8.743728 6.988599 -6.568248 0
M  V30 2 C 9.702466 7.532211 -7.595709 0
M  V30 3 C 9.349231 7.449698 -8.948211 0
M  V30 4 C 10.226856 7.927470 -9.931764 0
M  V30 5 S 9.779603 7.772219 -11.646285 0
M  V30 6 O 8.961516 8.927792 -12.048310 0
M  V30 7 O 10.976842 7.372355 -12.401843 0
M  V30 8 N 8.689638 6.431395 -11.633489 0
M  V30 9 C 8.642709 5.294226 -12.439252 0
M  V30 10 C 9.778969 4.721765 -13.049123 0
M  V30 11 C 9.638539 3.616365 -13.903356 0
M  V30 12 C 8.369624 3.052865 -14.148896 0
M  V30 13 C 7.240146 3.581107 -13.476202 0
M  V30 14 C 7.387586 4.699214 -12.633080 0
M  V30 15 C 5.844720 3.031127 -13.662177 0
M  V30 16 C 5.673088 1.515876 -13.405434 0
M  V30 17 N 6.225232 0.625413 -14.459656 0 CFG=2 CHG=1
M  V30 18 C 5.688435 -0.753305 -14.354577 0
M  V30 19 C 7.704171 0.611964 -14.546362 0
M  V30 20 C 8.273275 1.905260 -15.136759 0
M  V30 21 C 11.467485 8.486311 -9.571593 0
M  V30 22 C 11.814301 8.572410 -8.209174 0
M  V30 23 C 10.930457 8.110086 -7.209406 0
M  V30 24 C 11.289995 8.225644 -5.793531 0
M  V30 25 C 11.318913 9.487389 -5.165447 0
M  V30 26 C 11.686410 9.596353 -3.812684 0
M  V30 27 C 12.042757 8.444069 -3.091295 0
M  V30 28 Cl 12.489631 8.572657 -1.446910 0
M  V30 29 C 12.011669 7.180614 -3.701399 0
M  V30 30 C 11.626260 7.075007 -5.047021 0
M  V30 31 H 7.837260 6.599132 -7.030514 0
M  V30 32 H 9.202909 6.172221 -6.015663 0
M  V30 33 H 8.486183 7.772554 -5.853290 0
M  V30 34 H 8.403225 7.007035 -9.214222 0
M  V30 35 H 7.805207 6.676845 -11.194139 0
M  V30 36 H 10.770773 5.111475 -12.889325 0
M  V30 37 H 10.519852 3.213017 -14.378771 0
M  V30 38 H 6.524487 5.125359 -12.140900 0
M  V30 39 H 5.175574 3.549114 -12.973030 0
M  V30 40 H 5.537667 3.366055 -14.646840 0
M  V30 41 H 6.076558 1.238385 -12.429527 0
M  V30 42 H 4.599345 1.329803 -13.346522 0
M  V30 43 H 6.044395 -1.241533 -13.447490 0
M  V30 44 H 4.597767 -0.756726 -14.343349 0
M  V30 45 H 6.004440 -1.363522 -15.202538 0
M  V30 46 H 8.160422 0.378997 -13.581698 0
M  V30 47 H 7.993361 -0.197401 -15.218719 0
M  V30 48 H 7.689147 2.224887 -16.001734 0
M  V30 49 H 9.272254 1.693591 -15.521427 0
M  V30 50 H 12.147082 8.843783 -10.331965 0
M  V30 51 H 12.768554 8.992992 -7.929959 0
M  V30 52 H 11.055240 10.373919 -5.724176 0
M  V30 53 H 11.687119 10.560878 -3.325275 0
M  V30 54 H 12.273896 6.294942 -3.139611 0
M  V30 55 H 11.609085 6.102704 -5.516295 0
M  V30 56 H 5.889056 0.982046 -15.343422 0
M  V30 END ATOM
M  V30 BEGIN BOND
M  V30 1 1 2 1
M  V30 2 1 3 2
M  V30 3 2 4 3
M  V30 4 1 5 4
M  V30 5 2 6 5
M  V30 6 2 7 5
M  V30 7 1 8 5
M  V30 8 1 9 8
M  V30 9 1 10 9
M  V30 10 2 11 10
M  V30 11 1 12 11
M  V30 12 2 13 12
M  V30 13 2 14 9
M  V30 14 1 14 13
M  V30 15 1 15 13
M  V30 16 1 16 15
M  V30 17 1 17 16
M  V30 18 1 18 17
M  V30 19 1 19 17
M  V30 20 1 20 12
M  V30 21 1 20 19
M  V30 22 1 21 4
M  V30 23 2 22 21
M  V30 24 2 23 2
M  V30 25 1 23 22
M  V30 26 1 24 23
M  V30 27 1 25 24
M  V30 28 2 26 25
M  V30 29 1 27 26
M  V30 30 1 28 27
M  V30 31 2 29 27
M  V30 32 2 30 24
M  V30 33 1 30 29
M  V30 34 1 31 1
M  V30 35 1 32 1
M  V30 36 1 33 1
M  V30 37 1 34 3
M  V30 38 1 35 8
M  V30 39 1 36 10
M  V30 40 1 37 11
M  V30 41 1 38 14
M  V30 42 1 39 15
M  V30 43 1 40 15
M  V30 44 1 41 16
M  V30 45 1 42 16
M  V30 46 1 43 18
M  V30 47 1 44 18
M  V30 48 1 45 18
M  V30 49 1 46 19
M  V30 50 1 47 19
M  V30 51 1 48 20
M  V30 52 1 49 20
M  V30 53 1 50 21
M  V30 54 1 51 22
M  V30 55 1 52 25
M  V30 56 1 53 26
M  V30 57 1 54 29
M  V30 58 1 55 30
M  V30 59 1 17 56 CFG=3
M  V30 END BOND
M  V30 END CTAB
M  END
>  <b_m_subgroup_collapsed>  (1128) 
0

>  <r_i_docking_score>  (1128) 
-7.4587120120473802

>  <s_m_subgroup_title>  (1128) 
glide-dock_SP_D22_pv

>  <s_m_subgroupid>  (1128) 
glide-dock_SP_D22_pv

>  <Molecule ChEMBL ID>  (1128) 
CHEMBL230069

>  <Standard Type>  (1128) 
Ki

>  <Standard Value>  (1128) 
31.62

>  <label>  (1128) 
1

$$$$
CHEMBL300555
     RDKit          3D

  0  0  0  0  0  0  0  0  0  0999 V3000
M  V30 BEGIN CTAB
M  V30 COUNTS 54 58 0 0 1
M  V30 BEGIN ATOM
M  V30 1 O 6.505077 4.268127 -13.178546 0
M  V30 2 C 7.731709 4.202415 -13.212193 0
M  V30 3 N 8.439575 3.307355 -13.889297 0
M  V30 4 C 9.862865 3.459532 -13.672041 0
M  V30 5 N 9.978579 4.808701 -13.102269 0
M  V30 6 C 10.819921 5.710990 -13.789434 0
M  V30 7 C 11.685737 6.560515 -13.066049 0
M  V30 8 C 12.590644 7.401563 -13.737798 0
M  V30 9 C 12.664581 7.397979 -15.141168 0
M  V30 10 C 11.809650 6.563355 -15.878693 0
M  V30 11 C 10.887691 5.737813 -15.206647 0
M  V30 12 C 8.681743 5.145819 -12.475162 0 CFG=2
M  V30 13 C 8.701842 4.729986 -10.993039 0
M  V30 14 C 9.431274 5.724922 -10.086416 0
M  V30 15 N 8.917475 7.116288 -10.186640 0 CFG=1 CHG=1
M  V30 16 C 9.711697 8.036912 -9.315728 0
M  V30 17 C 9.006925 8.407320 -7.997472 0 CFG=1
M  V30 18 C 8.655722 7.219017 -7.078987 0
M  V30 19 O 9.838628 6.633791 -6.562992 0
M  V30 20 C 10.602628 7.544577 -5.883505 0
M  V30 21 C 11.377183 7.118425 -4.787479 0
M  V30 22 C 12.087452 8.060015 -4.016686 0
M  V30 23 C 12.044443 9.424287 -4.361390 0
M  V30 24 C 11.300373 9.846170 -5.481658 0
M  V30 25 C 10.572827 8.913877 -6.245382 0
M  V30 26 O 9.804966 9.366902 -7.297009 0
M  V30 27 C 8.858197 7.601954 -11.592771 0
M  V30 28 C 8.150088 6.606966 -12.538945 0
M  V30 29 H 8.039604 2.560532 -14.438127 0
M  V30 30 H 10.416776 3.283903 -14.593689 0
M  V30 31 H 10.208601 2.717567 -12.950627 0
M  V30 32 H 11.683280 6.573236 -11.990283 0
M  V30 33 H 13.254063 8.036279 -13.168945 0
M  V30 34 H 13.372478 8.036084 -15.649860 0
M  V30 35 H 11.852664 6.562929 -16.959040 0
M  V30 36 H 10.231549 5.118983 -15.799996 0
M  V30 37 H 7.688562 4.584423 -10.617707 0
M  V30 38 H 9.217752 3.775620 -10.909494 0
M  V30 39 H 10.485131 5.730983 -10.342341 0
M  V30 40 H 9.380980 5.370486 -9.058039 0
M  V30 41 H 10.702233 7.627829 -9.106711 0
M  V30 42 H 9.896303 8.971268 -9.847499 0
M  V30 43 H 8.087803 8.931433 -8.246973 0
M  V30 44 H 8.045077 7.570253 -6.247962 0
M  V30 45 H 8.086288 6.453098 -7.598613 0
M  V30 46 H 11.393340 6.074401 -4.512327 0
M  V30 47 H 12.661261 7.733507 -3.160789 0
M  V30 48 H 12.570765 10.163278 -3.768575 0
M  V30 49 H 11.266186 10.894683 -5.738733 0
M  V30 50 H 9.848337 7.857159 -11.953345 0
M  V30 51 H 8.305779 8.543018 -11.588862 0
M  V30 52 H 8.084013 6.968003 -13.558361 0
M  V30 53 H 7.101832 6.608483 -12.233277 0
M  V30 54 H 7.937900 7.151713 -9.887506 0
M  V30 END ATOM
M  V30 BEGIN BOND
M  V30 1 2 2 1
M  V30 2 1 3 2
M  V30 3 1 4 3
M  V30 4 1 5 4
M  V30 5 1 6 5
M  V30 6 2 7 6
M  V30 7 1 8 7
M  V30 8 2 9 8
M  V30 9 1 10 9
M  V30 10 1 11 6
M  V30 11 2 11 10
M  V30 12 1 12 2
M  V30 13 1 12 5 CFG=3
M  V30 14 1 13 12
M  V30 15 1 14 13
M  V30 16 1 15 14
M  V30 17 1 16 15
M  V30 18 1 17 16
M  V30 19 1 18 17
M  V30 20 1 19 18
M  V30 21 1 20 19
M  V30 22 2 21 20
M  V30 23 1 22 21
M  V30 24 2 23 22
M  V30 25 1 24 23
M  V30 26 1 25 20
M  V30 27 2 25 24
M  V30 28 1 26 17
M  V30 29 1 26 25
M  V30 30 1 27 15
M  V30 31 1 28 12
M  V30 32 1 28 27
M  V30 33 1 29 3
M  V30 34 1 30 4
M  V30 35 1 31 4
M  V30 36 1 32 7
M  V30 37 1 33 8
M  V30 38 1 34 9
M  V30 39 1 35 10
M  V30 40 1 36 11
M  V30 41 1 37 13
M  V30 42 1 38 13
M  V30 43 1 39 14
M  V30 44 1 40 14
M  V30 45 1 41 16
M  V30 46 1 42 16
M  V30 47 1 17 43 CFG=3
M  V30 48 1 44 18
M  V30 49 1 45 18
M  V30 50 1 46 21
M  V30 51 1 47 22
M  V30 52 1 48 23
M  V30 53 1 49 24
M  V30 54 1 50 27
M  V30 55 1 51 27
M  V30 56 1 52 28
M  V30 57 1 53 28
M  V30 58 1 15 54 CFG=1
M  V30 END BOND
M  V30 END CTAB
M  END
>  <b_m_subgroup_collapsed>  (1129) 
0

>  <r_i_docking_score>  (1129) 
-7.4583924694283601

>  <s_m_subgroup_title>  (1129) 
glide-dock_SP_D22_pv

>  <s_m_subgroupid>  (1129) 
glide-dock_SP_D22_pv

>  <Molecule ChEMBL ID>  (1129) 
CHEMBL300555

>  <Standard Type>  (1129) 
Ki

>  <Standard Value>  (1129) 
6.711

>  <label>  (1129) 
1

$$$$
CHEMBL4462915
     RDKit          3D

  0  0  0  0  0  0  0  0  0  0999 V3000
M  V30 BEGIN CTAB
M  V30 COUNTS 58 61 0 0 1
M  V30 BEGIN ATOM
M  V30 1 C 11.810187 11.091773 -6.217090 0
M  V30 2 O 11.220006 9.825938 -6.378016 0
M  V30 3 C 11.452838 8.904704 -5.378255 0
M  V30 4 C 12.195118 9.191865 -4.199268 0
M  V30 5 C 12.468367 8.196638 -3.246684 0
M  V30 6 C 12.018840 6.889176 -3.470307 0
M  V30 7 C 11.273891 6.600947 -4.626298 0
M  V30 8 C 10.946794 7.598435 -5.568290 0
M  V30 9 N 10.111742 7.292985 -6.660917 0
M  V30 10 C 8.977383 8.136925 -7.007014 0
M  V30 11 C 9.092924 8.624460 -8.460988 0
M  V30 12 N 9.286407 7.483434 -9.396913 0 CHG=1
M  V30 13 C 9.320543 7.924226 -10.819704 0
M  V30 14 C 8.697815 6.920009 -11.815512 0
M  V30 15 C 9.588722 5.722727 -12.195041 0
M  V30 16 C 9.142973 4.972482 -13.456635 0
M  V30 17 O 7.806391 4.519191 -13.278625 0
M  V30 18 C 7.415170 3.325839 -13.846887 0
M  V30 19 C 8.170836 2.595093 -14.799240 0
M  V30 20 C 7.707289 1.354731 -15.272980 0
M  V30 21 C 6.489504 0.840112 -14.800209 0
M  V30 22 S 5.681702 -0.663060 -15.228267 0
M  V30 23 C 4.385982 -0.216380 -14.121194 0
M  V30 24 N 3.284028 -1.026682 -13.968075 0
M  V30 25 N 4.528383 0.925036 -13.447437 0
M  V30 26 C 5.705932 1.548658 -13.845586 0
M  V30 27 C 6.179917 2.805960 -13.413301 0
M  V30 28 C 10.456436 6.645921 -9.002917 0
M  V30 29 C 10.387033 6.171840 -7.538865 0
M  V30 30 H 11.685467 11.755002 -7.061141 0
M  V30 31 H 11.330529 11.567397 -5.358223 0
M  V30 32 H 12.879525 10.973166 -6.060175 0
M  V30 33 H 12.585102 10.172066 -3.990871 0
M  V30 34 H 13.027496 8.435887 -2.354934 0
M  V30 35 H 12.220356 6.111627 -2.750399 0
M  V30 36 H 10.886323 5.611744 -4.745969 0
M  V30 37 H 8.082475 7.527512 -6.890268 0
M  V30 38 H 8.869458 8.971368 -6.315839 0
M  V30 39 H 8.198026 9.189917 -8.722546 0
M  V30 40 H 9.934838 9.311023 -8.562564 0
M  V30 41 H 8.734715 8.840891 -10.909222 0
M  V30 42 H 10.334689 8.197669 -11.115890 0
M  V30 43 H 7.732144 6.569900 -11.447238 0
M  V30 44 H 8.469224 7.471872 -12.726169 0
M  V30 45 H 10.614799 6.062050 -12.343035 0
M  V30 46 H 9.603773 4.999681 -11.381100 0
M  V30 47 H 9.196672 5.609539 -14.339733 0
M  V30 48 H 9.849918 4.153466 -13.590731 0
M  V30 49 H 9.107665 2.960593 -15.187160 0
M  V30 50 H 8.283464 0.794310 -15.995735 0
M  V30 51 H 2.429327 -0.594579 -13.637076 0
M  V30 52 H 3.130273 -1.741489 -14.668107 0
M  V30 53 H 5.601137 3.363884 -12.692320 0
M  V30 54 H 10.536893 5.771791 -9.640762 0
M  V30 55 H 11.370269 7.228553 -9.149493 0
M  V30 56 H 11.320991 5.682590 -7.259223 0
M  V30 57 H 9.590868 5.434546 -7.430007 0
M  V30 58 H 8.440455 6.932707 -9.298126 0
M  V30 END ATOM
M  V30 BEGIN BOND
M  V30 1 1 2 1
M  V30 2 1 3 2
M  V30 3 2 4 3
M  V30 4 1 5 4
M  V30 5 2 6 5
M  V30 6 1 7 6
M  V30 7 1 8 3
M  V30 8 2 8 7
M  V30 9 1 9 8
M  V30 10 1 10 9
M  V30 11 1 11 10
M  V30 12 1 12 11
M  V30 13 1 13 12
M  V30 14 1 14 13
M  V30 15 1 15 14
M  V30 16 1 16 15
M  V30 17 1 17 16
M  V30 18 1 18 17
M  V30 19 1 19 18
M  V30 20 2 20 19
M  V30 21 1 21 20
M  V30 22 1 22 21
M  V30 23 1 23 22
M  V30 24 1 24 23
M  V30 25 2 25 23
M  V30 26 2 26 21
M  V30 27 1 26 25
M  V30 28 2 27 18
M  V30 29 1 27 26
M  V30 30 1 28 12
M  V30 31 1 29 9
M  V30 32 1 29 28
M  V30 33 1 30 1
M  V30 34 1 31 1
M  V30 35 1 32 1
M  V30 36 1 33 4
M  V30 37 1 34 5
M  V30 38 1 35 6
M  V30 39 1 36 7
M  V30 40 1 37 10
M  V30 41 1 38 10
M  V30 42 1 39 11
M  V30 43 1 40 11
M  V30 44 1 41 13
M  V30 45 1 42 13
M  V30 46 1 43 14
M  V30 47 1 44 14
M  V30 48 1 45 15
M  V30 49 1 46 15
M  V30 50 1 47 16
M  V30 51 1 48 16
M  V30 52 1 49 19
M  V30 53 1 50 20
M  V30 54 1 51 24
M  V30 55 1 52 24
M  V30 56 1 53 27
M  V30 57 1 54 28
M  V30 58 1 55 28
M  V30 59 1 56 29
M  V30 60 1 57 29
M  V30 61 1 58 12
M  V30 END BOND
M  V30 END CTAB
M  END
>  <b_m_subgroup_collapsed>  (1130) 
0

>  <r_i_docking_score>  (1130) 
-7.4560505186587704

>  <s_m_subgroup_title>  (1130) 
glide-dock_SP_D22_pv

>  <s_m_subgroupid>  (1130) 
glide-dock_SP_D22_pv

>  <Molecule ChEMBL ID>  (1130) 
CHEMBL4462915

>  <Standard Type>  (1130) 
Ki

>  <Standard Value>  (1130) 
2.818

>  <label>  (1130) 
1

$$$$
CHEMBL4586990
     RDKit          3D

  0  0  0  0  0  0  0  0  0  0999 V3000
M  V30 BEGIN CTAB
M  V30 COUNTS 60 64 0 0 1
M  V30 BEGIN ATOM
M  V30 1 C 4.121787 0.021743 -13.981494 0
M  V30 2 O 4.889423 1.091840 -13.447431 0
M  V30 3 C 6.086884 1.399027 -14.064273 0
M  V30 4 C 6.704608 0.572960 -15.032051 0
M  V30 5 C 7.929034 0.958758 -15.599731 0
M  V30 6 C 8.564463 2.142691 -15.178456 0
M  V30 7 C 7.981325 3.006712 -14.198646 0
M  V30 8 C 6.712788 2.611049 -13.696339 0
M  V30 9 C 8.938360 4.071926 -13.968535 0
M  V30 10 C 8.930036 5.198993 -12.998874 0
M  V30 11 N 10.111314 5.739066 -12.522314 0
M  V30 12 C 9.860937 6.722770 -11.578802 0
M  V30 13 N 10.774498 7.371274 -10.920778 0
M  V30 14 C 10.411902 8.364349 -10.012814 0
M  V30 15 O 9.316339 8.908637 -9.853082 0
M  V30 16 C 11.593854 8.844162 -9.165278 0
M  V30 17 C 11.423644 8.561107 -7.672929 0
M  V30 18 C 11.474422 9.613980 -6.729278 0
M  V30 19 C 11.407663 9.351580 -5.349251 0
M  V30 20 C 11.287770 8.028605 -4.895150 0
M  V30 21 C 11.213046 6.971986 -5.822492 0
M  V30 22 C 11.280984 7.234559 -7.204739 0
M  V30 23 N 8.485871 6.783801 -11.512995 0
M  V30 24 C 7.941348 5.840964 -12.357896 0
M  V30 25 C 6.436377 5.703915 -12.453735 0
M  V30 26 C 9.987844 3.877958 -14.825839 0
M  V30 27 N 9.774658 2.716401 -15.548705 0
M  V30 28 S 10.864122 2.106148 -16.736517 0
M  V30 29 O 12.084272 2.921181 -16.621061 0
M  V30 30 O 10.899920 0.647310 -16.544914 0
M  V30 31 C 10.032220 2.506488 -18.269142 0
M  V30 32 C 9.439077 1.488939 -19.046196 0
M  V30 33 C 8.767026 1.826778 -20.235714 0
M  V30 34 C 8.690037 3.172458 -20.645319 0
M  V30 35 C 9.283343 4.187250 -19.865585 0
M  V30 36 C 9.953576 3.855175 -18.673004 0
M  V30 37 H 3.165291 -0.028534 -13.463351 0
M  V30 38 H 3.913523 0.164953 -15.041618 0
M  V30 39 H 4.617482 -0.938771 -13.846684 0
M  V30 40 H 6.266199 -0.362450 -15.347874 0
M  V30 41 H 8.389781 0.314100 -16.334183 0
M  V30 42 H 6.225947 3.196607 -12.937611 0
M  V30 43 H 11.014580 5.405687 -12.812634 0
M  V30 44 H 11.685693 9.908213 -9.350337 0
M  V30 45 H 11.590405 10.638234 -7.046309 0
M  V30 46 H 11.465603 10.164268 -4.640183 0
M  V30 47 H 11.282894 7.818345 -3.836485 0
M  V30 48 H 11.120636 5.956071 -5.469234 0
M  V30 49 H 11.243391 6.411194 -7.902563 0
M  V30 50 H 6.130004 5.376353 -13.447337 0
M  V30 51 H 6.075881 4.990663 -11.716444 0
M  V30 52 H 5.950244 6.658536 -12.250442 0
M  V30 53 H 10.884981 4.463443 -14.969518 0
M  V30 54 H 9.491809 0.457615 -18.727428 0
M  V30 55 H 8.308102 1.053475 -20.834146 0
M  V30 56 H 8.170857 3.430132 -21.558737 0
M  V30 57 H 9.216057 5.217735 -20.180809 0
M  V30 58 H 10.399589 4.630020 -18.067564 0
M  V30 59 H 12.526151 8.394173 -9.507199 0
M  V30 60 H 7.888770 7.364457 -10.905271 0
M  V30 END ATOM
M  V30 BEGIN BOND
M  V30 1 1 2 1
M  V30 2 1 3 2
M  V30 3 1 4 3
M  V30 4 2 5 4
M  V30 5 1 6 5
M  V30 6 2 7 6
M  V30 7 2 8 3
M  V30 8 1 8 7
M  V30 9 1 9 7
M  V30 10 1 10 9
M  V30 11 1 11 10
M  V30 12 1 12 11
M  V30 13 2 13 12
M  V30 14 1 14 13
M  V30 15 2 15 14
M  V30 16 1 16 14
M  V30 17 1 17 16
M  V30 18 2 18 17
M  V30 19 1 19 18
M  V30 20 2 20 19
M  V30 21 1 21 20
M  V30 22 1 22 17
M  V30 23 2 22 21
M  V30 24 1 23 12
M  V30 25 2 24 10
M  V30 26 1 24 23
M  V30 27 1 25 24
M  V30 28 2 26 9
M  V30 29 1 27 6
M  V30 30 1 27 26
M  V30 31 1 28 27
M  V30 32 2 29 28
M  V30 33 2 30 28
M  V30 34 1 31 28
M  V30 35 2 32 31
M  V30 36 1 33 32
M  V30 37 2 34 33
M  V30 38 1 35 34
M  V30 39 1 36 31
M  V30 40 2 36 35
M  V30 41 1 37 1
M  V30 42 1 38 1
M  V30 43 1 39 1
M  V30 44 1 40 4
M  V30 45 1 41 5
M  V30 46 1 42 8
M  V30 47 1 43 11
M  V30 48 1 44 16
M  V30 49 1 45 18
M  V30 50 1 46 19
M  V30 51 1 47 20
M  V30 52 1 48 21
M  V30 53 1 49 22
M  V30 54 1 50 25
M  V30 55 1 51 25
M  V30 56 1 52 25
M  V30 57 1 53 26
M  V30 58 1 54 32
M  V30 59 1 55 33
M  V30 60 1 56 34
M  V30 61 1 57 35
M  V30 62 1 58 36
M  V30 63 1 59 16
M  V30 64 1 60 23
M  V30 END BOND
M  V30 END CTAB
M  END
>  <b_m_subgroup_collapsed>  (1131) 
0

>  <r_i_docking_score>  (1131) 
-7.4543607972157098

>  <s_m_subgroup_title>  (1131) 
glide-dock_SP_D22_pv

>  <s_m_subgroupid>  (1131) 
glide-dock_SP_D22_pv

>  <Molecule ChEMBL ID>  (1131) 
CHEMBL4586990

>  <Standard Type>  (1131) 
Ki

>  <Standard Value>  (1131) 
10000.0

>  <label>  (1131) 
0

$$$$
CHEMBL91669
     RDKit          3D

  0  0  0  0  0  0  0  0  0  0999 V3000
M  V30 BEGIN CTAB
M  V30 COUNTS 52 55 0 0 1
M  V30 BEGIN ATOM
M  V30 1 C 11.005751 5.437169 -14.327384 0
M  V30 2 N 10.586717 6.027705 -13.056275 0
M  V30 3 C 9.373546 5.801208 -12.402503 0
M  V30 4 C 8.257949 4.922388 -12.828880 0
M  V30 5 C 6.945626 5.211563 -12.387890 0
M  V30 6 C 5.876127 4.360670 -12.722582 0
M  V30 7 C 6.095345 3.227650 -13.523026 0
M  V30 8 C 7.393959 2.934735 -13.972570 0
M  V30 9 C 8.472978 3.759786 -13.603925 0
M  V30 10 C 9.356157 6.653848 -11.376064 0
M  V30 11 N 10.540296 7.369997 -11.356799 0
M  V30 12 C 10.897292 8.432301 -10.406527 0 CFG=1
M  V30 13 C 9.699715 9.135689 -9.731812 0
M  V30 14 C 9.197733 8.451058 -8.447550 0
M  V30 15 N 10.323962 8.159147 -7.530736 0 CFG=1 CHG=1
M  V30 16 C 9.865293 7.654555 -6.222084 0
M  V30 17 C 10.887189 7.879222 -5.116578 0
M  V30 18 C 11.389028 6.773371 -4.400272 0
M  V30 19 C 12.176534 6.964579 -3.249216 0
M  V30 20 C 12.486472 8.265279 -2.816377 0
M  V30 21 C 12.028708 9.372068 -3.550869 0
M  V30 22 C 11.247101 9.184776 -4.708446 0
M  V30 23 C 11.327760 7.279857 -8.171248 0
M  V30 24 C 11.955241 7.991935 -9.376323 0
M  V30 25 C 11.285783 6.972370 -12.402649 0
M  V30 26 O 12.403126 7.388384 -12.700541 0
M  V30 27 H 11.768488 6.041451 -14.820286 0
M  V30 28 H 11.432850 4.447602 -14.166739 0
M  V30 29 H 10.170874 5.364140 -15.024179 0
M  V30 30 H 6.741254 6.078620 -11.775801 0
M  V30 31 H 4.885647 4.572311 -12.355453 0
M  V30 32 H 5.275378 2.573993 -13.777711 0
M  V30 33 H 7.570848 2.050583 -14.566340 0
M  V30 34 H 9.460516 3.460693 -13.910151 0
M  V30 35 H 8.575534 6.848858 -10.658832 0
M  V30 36 H 11.384756 9.190862 -11.019047 0
M  V30 37 H 10.046791 10.125902 -9.449595 0
M  V30 38 H 8.878199 9.293741 -10.433375 0
M  V30 39 H 8.656323 7.529733 -8.657300 0
M  V30 40 H 8.484206 9.114449 -7.957195 0
M  V30 41 H 8.950912 8.170609 -5.930692 0
M  V30 42 H 9.598541 6.598001 -6.299888 0
M  V30 43 H 11.117545 5.772223 -4.691154 0
M  V30 44 H 12.523789 6.108928 -2.687461 0
M  V30 45 H 13.069500 8.419821 -1.920279 0
M  V30 46 H 12.245852 10.366250 -3.190181 0
M  V30 47 H 10.861358 10.048705 -5.230186 0
M  V30 48 H 10.861507 6.342058 -8.479598 0
M  V30 49 H 12.106007 7.023003 -7.452346 0
M  V30 50 H 12.717340 7.372398 -9.847473 0
M  V30 51 H 12.485639 8.875601 -9.018847 0
M  V30 52 H 10.779176 9.040382 -7.345437 0
M  V30 END ATOM
M  V30 BEGIN BOND
M  V30 1 1 2 1
M  V30 2 1 3 2
M  V30 3 1 4 3
M  V30 4 2 5 4
M  V30 5 1 6 5
M  V30 6 2 7 6
M  V30 7 1 8 7
M  V30 8 1 9 4
M  V30 9 2 9 8
M  V30 10 2 10 3
M  V30 11 1 11 10
M  V30 12 1 12 11
M  V30 13 1 13 12
M  V30 14 1 14 13
M  V30 15 1 15 14
M  V30 16 1 16 15
M  V30 17 1 17 16
M  V30 18 2 18 17
M  V30 19 1 19 18
M  V30 20 2 20 19
M  V30 21 1 21 20
M  V30 22 1 22 17
M  V30 23 2 22 21
M  V30 24 1 23 15
M  V30 25 1 24 12
M  V30 26 1 24 23
M  V30 27 1 25 2
M  V30 28 1 25 11
M  V30 29 2 26 25
M  V30 30 1 27 1
M  V30 31 1 28 1
M  V30 32 1 29 1
M  V30 33 1 30 5
M  V30 34 1 31 6
M  V30 35 1 32 7
M  V30 36 1 33 8
M  V30 37 1 34 9
M  V30 38 1 35 10
M  V30 39 1 12 36 CFG=3
M  V30 40 1 37 13
M  V30 41 1 38 13
M  V30 42 1 39 14
M  V30 43 1 40 14
M  V30 44 1 41 16
M  V30 45 1 42 16
M  V30 46 1 43 18
M  V30 47 1 44 19
M  V30 48 1 45 20
M  V30 49 1 46 21
M  V30 50 1 47 22
M  V30 51 1 48 23
M  V30 52 1 49 23
M  V30 53 1 50 24
M  V30 54 1 51 24
M  V30 55 1 15 52 CFG=1
M  V30 END BOND
M  V30 END CTAB
M  END
>  <b_m_subgroup_collapsed>  (1132) 
0

>  <r_i_docking_score>  (1132) 
-7.4537145020315299

>  <s_m_subgroup_title>  (1132) 
glide-dock_SP_D22_pv

>  <s_m_subgroupid>  (1132) 
glide-dock_SP_D22_pv

>  <Molecule ChEMBL ID>  (1132) 
CHEMBL91669

>  <Standard Type>  (1132) 
Ki

>  <Standard Value>  (1132) 
11.0

>  <label>  (1132) 
1

$$$$
CHEMBL279925
     RDKit          3D

  0  0  0  0  0  0  0  0  0  0999 V3000
M  V30 BEGIN CTAB
M  V30 COUNTS 73 77 0 0 1
M  V30 BEGIN ATOM
M  V30 1 C 12.210318 8.315813 -2.396051 0
M  V30 2 C 11.703001 8.921013 -3.657505 0
M  V30 3 N 11.284709 10.172155 -3.840971 0
M  V30 4 N 10.885921 10.252870 -5.151231 0
M  V30 5 C 11.103312 9.044847 -5.668429 0
M  V30 6 C 10.945995 8.618263 -7.041098 0
M  V30 7 C 9.690468 8.265208 -7.572199 0
M  V30 8 C 9.598515 7.811659 -8.904673 0
M  V30 9 C 10.747699 7.705986 -9.726957 0
M  V30 10 C 10.697565 7.112757 -11.085650 0
M  V30 11 C 11.728763 7.372360 -12.018113 0
M  V30 12 C 11.792701 6.713856 -13.253609 0
M  V30 13 C 10.818677 5.756718 -13.596352 0
M  V30 14 C 10.915728 5.022135 -14.899956 0
M  V30 15 O 9.914658 4.738645 -15.557444 0
M  V30 16 N 12.168740 4.694821 -15.253444 0
M  V30 17 C 12.589648 4.120993 -16.523130 0
M  V30 18 C 12.069982 2.690896 -16.735155 0
M  V30 19 C 12.643811 2.067143 -18.015642 0
M  V30 20 C 11.964126 0.747554 -18.421490 0
M  V30 21 N 10.515232 0.895310 -18.719666 0 CFG=1 CHG=1
M  V30 22 C 10.216354 1.711895 -19.924162 0
M  V30 23 C 8.724812 2.067984 -19.955458 0
M  V30 24 C 7.851301 0.837143 -19.810993 0
M  V30 25 C 6.513090 0.866082 -20.256956 0
M  V30 26 C 5.706352 -0.281446 -20.140915 0
M  V30 27 C 6.233088 -1.455869 -19.567907 0
M  V30 28 O 5.473147 -2.586882 -19.492651 0
M  V30 29 S 4.486750 -2.780998 -18.134203 0
M  V30 30 O 4.755333 -1.667154 -17.207575 0
M  V30 31 O 3.132877 -3.023825 -18.653658 0
M  V30 32 C 5.233495 -4.344513 -17.475540 0
M  V30 33 F 5.287726 -4.270223 -16.146097 0
M  V30 34 F 4.486092 -5.382635 -17.847109 0
M  V30 35 F 6.469174 -4.483640 -17.954266 0
M  V30 36 C 7.563166 -1.482085 -19.107918 0
M  V30 37 C 8.378514 -0.340237 -19.227114 0
M  V30 38 C 9.830440 -0.421259 -18.771809 0
M  V30 39 C 9.742730 5.528695 -12.711540 0
M  V30 40 C 9.685830 6.199224 -11.471261 0
M  V30 41 C 11.985355 8.127658 -9.181628 0
M  V30 42 C 12.085328 8.572370 -7.856415 0
M  V30 43 O 11.626193 8.160552 -4.777937 0
M  V30 44 H 12.001150 8.972289 -1.550665 0
M  V30 45 H 11.731136 7.352118 -2.221570 0
M  V30 46 H 13.286057 8.170592 -2.465077 0
M  V30 47 H 8.799817 8.315750 -6.960599 0
M  V30 48 H 8.625544 7.525327 -9.278468 0
M  V30 49 H 12.508121 8.086212 -11.800141 0
M  V30 50 H 12.609533 6.943758 -13.923186 0
M  V30 51 H 12.903275 4.960684 -14.613370 0
M  V30 52 H 13.680626 4.126673 -16.545408 0
M  V30 53 H 12.257052 4.769882 -17.335821 0
M  V30 54 H 10.981874 2.714070 -16.787588 0
M  V30 55 H 12.322838 2.068169 -15.876605 0
M  V30 56 H 13.702459 1.873851 -17.855373 0
M  V30 57 H 12.612873 2.787008 -18.831371 0
M  V30 58 H 12.091424 0.032229 -17.606899 0
M  V30 59 H 12.471587 0.319254 -19.287880 0
M  V30 60 H 10.783431 2.640460 -19.939276 0
M  V30 61 H 10.497356 1.156333 -20.820782 0
M  V30 62 H 8.484730 2.583111 -20.886871 0
M  V30 63 H 8.489306 2.758122 -19.144012 0
M  V30 64 H 6.103128 1.760982 -20.702635 0
M  V30 65 H 4.685998 -0.263367 -20.499165 0
M  V30 66 H 7.961126 -2.390951 -18.680098 0
M  V30 67 H 9.870928 -0.890257 -17.787182 0
M  V30 68 H 10.359952 -1.079600 -19.462286 0
M  V30 69 H 8.970590 4.816695 -12.965193 0
M  V30 70 H 8.871538 5.965408 -10.800572 0
M  V30 71 H 12.901555 8.073457 -9.748394 0
M  V30 72 H 13.046010 8.874654 -7.464463 0
M  V30 73 H 10.110027 1.389154 -17.936310 0
M  V30 END ATOM
M  V30 BEGIN BOND
M  V30 1 1 2 1
M  V30 2 2 3 2
M  V30 3 1 4 3
M  V30 4 2 5 4
M  V30 5 1 6 5
M  V30 6 1 7 6
M  V30 7 2 8 7
M  V30 8 1 9 8
M  V30 9 1 10 9
M  V30 10 1 11 10
M  V30 11 2 12 11
M  V30 12 1 13 12
M  V30 13 1 14 13
M  V30 14 2 15 14
M  V30 15 1 16 14
M  V30 16 1 17 16
M  V30 17 1 18 17
M  V30 18 1 19 18
M  V30 19 1 20 19
M  V30 20 1 21 20
M  V30 21 1 22 21
M  V30 22 1 23 22
M  V30 23 1 24 23
M  V30 24 1 25 24
M  V30 25 2 26 25
M  V30 26 1 27 26
M  V30 27 1 28 27
M  V30 28 1 29 28
M  V30 29 2 30 29
M  V30 30 2 31 29
M  V30 31 1 32 29
M  V30 32 1 33 32
M  V30 33 1 34 32
M  V30 34 1 35 32
M  V30 35 2 36 27
M  V30 36 2 37 24
M  V30 37 1 37 36
M  V30 38 1 38 21
M  V30 39 1 38 37
M  V30 40 2 39 13
M  V30 41 2 40 10
M  V30 42 1 40 39
M  V30 43 2 41 9
M  V30 44 2 42 6
M  V30 45 1 42 41
M  V30 46 1 43 2
M  V30 47 1 43 5
M  V30 48 1 44 1
M  V30 49 1 45 1
M  V30 50 1 46 1
M  V30 51 1 47 7
M  V30 52 1 48 8
M  V30 53 1 49 11
M  V30 54 1 50 12
M  V30 55 1 51 16
M  V30 56 1 52 17
M  V30 57 1 53 17
M  V30 58 1 54 18
M  V30 59 1 55 18
M  V30 60 1 56 19
M  V30 61 1 57 19
M  V30 62 1 58 20
M  V30 63 1 59 20
M  V30 64 1 60 22
M  V30 65 1 61 22
M  V30 66 1 62 23
M  V30 67 1 63 23
M  V30 68 1 64 25
M  V30 69 1 65 26
M  V30 70 1 66 36
M  V30 71 1 67 38
M  V30 72 1 68 38
M  V30 73 1 69 39
M  V30 74 1 70 40
M  V30 75 1 71 41
M  V30 76 1 72 42
M  V30 77 1 21 73 CFG=1
M  V30 END BOND
M  V30 END CTAB
M  END
>  <b_m_subgroup_collapsed>  (1133) 
0

>  <r_i_docking_score>  (1133) 
-7.4536717515740101

>  <s_m_subgroup_title>  (1133) 
glide-dock_SP_D22_pv

>  <s_m_subgroupid>  (1133) 
glide-dock_SP_D22_pv

>  <Molecule ChEMBL ID>  (1133) 
CHEMBL279925

>  <Standard Type>  (1133) 
Ki

>  <Standard Value>  (1133) 
100.0

>  <label>  (1133) 
1

$$$$
CHEMBL4846561
     RDKit          3D

  0  0  0  0  0  0  0  0  0  0999 V3000
M  V30 BEGIN CTAB
M  V30 COUNTS 79 82 0 0 1
M  V30 BEGIN ATOM
M  V30 1 C 3.070062 -0.970455 -14.438977 0
M  V30 2 C 4.576254 -0.701833 -14.379488 0
M  V30 3 C 5.271089 -0.547587 -15.730487 0
M  V30 4 C 4.629155 -0.917963 -16.932104 0
M  V30 5 C 5.276690 -0.750881 -18.165300 0
M  V30 6 Cl 4.449427 -1.224784 -19.607521 0
M  V30 7 C 6.574414 -0.196852 -18.223396 0
M  V30 8 O 7.169509 -0.045509 -19.451910 0
M  V30 9 C 6.864611 1.183440 -20.094139 0
M  V30 10 C 7.245155 0.172892 -17.025850 0
M  V30 11 C 8.628475 0.777601 -17.091555 0
M  V30 12 O 9.468843 0.402084 -17.907789 0
M  V30 13 N 8.825381 1.808337 -16.256302 0
M  V30 14 C 9.967036 2.710459 -16.223270 0
M  V30 15 C 10.401876 3.028344 -14.773255 0 CFG=2
M  V30 16 C 9.265614 3.569839 -13.894649 0
M  V30 17 C 9.286676 5.083568 -14.131848 0 CFG=1
M  V30 18 O 9.219683 5.766360 -12.898033 0
M  V30 19 C 8.080381 6.585070 -12.728986 0
M  V30 20 C 8.529457 7.797967 -11.924078 0
M  V30 21 C 9.039592 7.410022 -10.533068 0
M  V30 22 C 9.035061 8.631007 -9.619375 0
M  V30 23 N 9.405461 8.267557 -8.259526 0
M  V30 24 C 10.537227 8.727584 -7.731304 0
M  V30 25 O 11.286071 9.451374 -8.359637 0
M  V30 26 C 10.890965 8.353553 -6.369439 0
M  V30 27 C 11.045238 7.117691 -5.797480 0
M  V30 28 C 11.605377 7.358963 -4.507103 0
M  V30 29 C 12.058711 6.573649 -3.436842 0
M  V30 30 C 12.486287 7.171558 -2.244458 0
M  V30 31 C 12.485463 8.571584 -2.086574 0
M  V30 32 C 12.085314 9.384375 -3.159109 0
M  V30 33 C 11.675585 8.763447 -4.348202 0
M  V30 34 O 11.250175 9.362387 -5.508795 0
M  V30 35 C 10.663603 5.394431 -14.726230 0
M  V30 36 N 11.399498 4.120090 -14.695437 0 CFG=2 CHG=1
M  V30 37 C 12.640553 4.022838 -15.500741 0
M  V30 38 C 12.602528 4.660773 -16.903875 0
M  V30 39 C 6.586452 -0.029765 -15.776943 0
M  V30 40 O 7.207593 0.256857 -14.586901 0
M  V30 41 H 2.640634 -1.050689 -13.440774 0
M  V30 42 H 2.527762 -0.181809 -14.962832 0
M  V30 43 H 2.886163 -1.909727 -14.957289 0
M  V30 44 H 5.072869 -1.512959 -13.849172 0
M  V30 45 H 4.735166 0.203768 -13.790931 0
M  V30 46 H 3.633877 -1.338646 -16.940752 0
M  V30 47 H 7.239576 1.162856 -21.117708 0
M  V30 48 H 5.788092 1.366062 -20.134073 0
M  V30 49 H 7.345875 2.012634 -19.578056 0
M  V30 50 H 8.090627 1.956905 -15.578111 0
M  V30 51 H 10.803706 2.277159 -16.777004 0
M  V30 52 H 9.669156 3.620555 -16.744822 0
M  V30 53 H 10.811785 2.122593 -14.320217 0
M  V30 54 H 8.284903 3.129410 -14.078148 0
M  V30 55 H 9.502726 3.367543 -12.848209 0
M  V30 56 H 8.507257 5.366362 -14.837811 0
M  V30 57 H 7.686252 6.957527 -13.669946 0
M  V30 58 H 7.283123 6.027807 -12.230867 0
M  V30 59 H 9.308238 8.342894 -12.458098 0
M  V30 60 H 7.692825 8.490541 -11.846799 0
M  V30 61 H 8.440745 6.608897 -10.102550 0
M  V30 62 H 10.047113 7.002403 -10.614402 0
M  V30 63 H 9.691902 9.372473 -10.070304 0
M  V30 64 H 8.086066 9.145911 -9.575710 0
M  V30 65 H 8.768649 7.696538 -7.720738 0
M  V30 66 H 10.854288 6.156382 -6.250624 0
M  V30 67 H 12.073039 5.504983 -3.533284 0
M  V30 68 H 12.826194 6.530834 -1.447211 0
M  V30 69 H 12.814569 9.022670 -1.161034 0
M  V30 70 H 12.086010 10.459137 -3.054343 0
M  V30 71 H 10.526527 5.760386 -15.742519 0
M  V30 72 H 11.202767 6.163179 -14.171565 0
M  V30 73 H 13.443458 4.493969 -14.930433 0
M  V30 74 H 12.885652 2.970136 -15.569093 0
M  V30 75 H 13.535396 4.450240 -17.428896 0
M  V30 76 H 11.793704 4.280694 -17.524878 0
M  V30 77 H 12.511653 5.746627 -16.854088 0
M  V30 78 H 6.764665 -0.128761 -13.846282 0
M  V30 79 H 11.720442 4.051055 -13.739709 0
M  V30 END ATOM
M  V30 BEGIN BOND
M  V30 1 1 2 1
M  V30 2 1 3 2
M  V30 3 1 4 3
M  V30 4 2 5 4
M  V30 5 1 6 5
M  V30 6 1 7 5
M  V30 7 1 8 7
M  V30 8 1 9 8
M  V30 9 2 10 7
M  V30 10 1 11 10
M  V30 11 2 12 11
M  V30 12 1 13 11
M  V30 13 1 14 13
M  V30 14 1 15 14
M  V30 15 1 16 15
M  V30 16 1 17 16
M  V30 17 1 18 17
M  V30 18 1 19 18
M  V30 19 1 20 19
M  V30 20 1 21 20
M  V30 21 1 22 21
M  V30 22 1 23 22
M  V30 23 1 24 23
M  V30 24 2 25 24
M  V30 25 1 26 24
M  V30 26 2 27 26
M  V30 27 1 28 27
M  V30 28 2 29 28
M  V30 29 1 30 29
M  V30 30 2 31 30
M  V30 31 1 32 31
M  V30 32 1 33 28
M  V30 33 2 33 32
M  V30 34 1 34 26
M  V30 35 1 34 33
M  V30 36 1 35 17
M  V30 37 1 36 15
M  V30 38 1 36 35
M  V30 39 1 37 36
M  V30 40 1 38 37
M  V30 41 2 39 3
M  V30 42 1 39 10
M  V30 43 1 40 39
M  V30 44 1 41 1
M  V30 45 1 42 1
M  V30 46 1 43 1
M  V30 47 1 44 2
M  V30 48 1 45 2
M  V30 49 1 46 4
M  V30 50 1 47 9
M  V30 51 1 48 9
M  V30 52 1 49 9
M  V30 53 1 50 13
M  V30 54 1 51 14
M  V30 55 1 52 14
M  V30 56 1 15 53 CFG=1
M  V30 57 1 54 16
M  V30 58 1 55 16
M  V30 59 1 17 56 CFG=3
M  V30 60 1 57 19
M  V30 61 1 58 19
M  V30 62 1 59 20
M  V30 63 1 60 20
M  V30 64 1 61 21
M  V30 65 1 62 21
M  V30 66 1 63 22
M  V30 67 1 64 22
M  V30 68 1 65 23
M  V30 69 1 66 27
M  V30 70 1 67 29
M  V30 71 1 68 30
M  V30 72 1 69 31
M  V30 73 1 70 32
M  V30 74 1 71 35
M  V30 75 1 72 35
M  V30 76 1 73 37
M  V30 77 1 74 37
M  V30 78 1 75 38
M  V30 79 1 76 38
M  V30 80 1 77 38
M  V30 81 1 78 40
M  V30 82 1 36 79 CFG=1
M  V30 END BOND
M  V30 END CTAB
M  END
>  <b_m_subgroup_collapsed>  (1134) 
0

>  <r_i_docking_score>  (1134) 
-7.4528994490779397

>  <s_m_subgroup_title>  (1134) 
glide-dock_SP_D22_pv

>  <s_m_subgroupid>  (1134) 
glide-dock_SP_D22_pv

>  <Molecule ChEMBL ID>  (1134) 
CHEMBL4846561

>  <Standard Type>  (1134) 
Ki

>  <Standard Value>  (1134) 
0.947

>  <label>  (1134) 
1

$$$$
CHEMBL3409233
     RDKit          3D

  0  0  0  0  0  0  0  0  0  0999 V3000
M  V30 BEGIN CTAB
M  V30 COUNTS 74 79 0 0 1
M  V30 BEGIN ATOM
M  V30 1 O 12.486052 9.372405 -1.286282 0
M  V30 2 C 12.086023 8.791455 -2.281060 0
M  V30 3 C 11.944957 7.270869 -2.246274 0
M  V30 4 C 12.415472 6.710032 -3.576259 0
M  V30 5 C 11.672843 7.368186 -4.715693 0
M  V30 6 C 11.286088 6.651580 -5.857900 0
M  V30 7 C 10.570777 7.287800 -6.881682 0
M  V30 8 C 10.277325 8.668839 -6.789443 0
M  V30 9 O 9.566228 9.363761 -7.738178 0
M  V30 10 C 9.190441 8.735622 -8.951449 0
M  V30 11 C 10.408982 8.625529 -9.879997 0
M  V30 12 C 10.087464 8.008705 -11.246001 0
M  V30 13 C 9.741848 6.506821 -11.150867 0
M  V30 14 N 9.609676 5.823815 -12.465549 0 CFG=1 CHG=1
M  V30 15 C 10.833122 5.893172 -13.313889 0
M  V30 16 C 10.704205 5.058635 -14.577041 0
M  V30 17 C 9.784499 4.094099 -14.758878 0
M  V30 18 C 9.667786 3.411997 -16.054464 0
M  V30 19 C 9.467710 2.070717 -16.215178 0
M  V30 20 N 9.390545 1.795527 -17.574892 0
M  V30 21 S 9.151313 0.210261 -18.201611 0
M  V30 22 O 9.798860 0.183140 -19.522196 0
M  V30 23 O 9.591181 -0.699921 -17.131971 0
M  V30 24 C 7.372170 0.108178 -18.400761 0
M  V30 25 C 6.574624 -0.413610 -17.362026 0
M  V30 26 C 5.177891 -0.496463 -17.529345 0
M  V30 27 C 4.582785 -0.053253 -18.727482 0
M  V30 28 C 5.381966 0.476894 -19.759714 0
M  V30 29 C 6.780181 0.558406 -19.598907 0
M  V30 30 C 9.517818 2.975727 -18.306780 0
M  V30 31 C 9.472824 3.251347 -19.688650 0
M  V30 32 C 9.630896 4.571225 -20.147284 0
M  V30 33 C 9.840494 5.612479 -19.226568 0
M  V30 34 C 9.887533 5.337036 -17.847189 0
M  V30 35 C 9.720433 4.020993 -17.352819 0
M  V30 36 C 8.754272 3.816993 -13.675109 0
M  V30 37 C 9.134117 4.426631 -12.313933 0
M  V30 38 C 10.717044 9.396789 -5.660549 0
M  V30 39 C 11.383003 8.741001 -4.607915 0
M  V30 40 N 11.748448 9.428035 -3.419382 0
M  V30 41 H 12.555960 6.856624 -1.447195 0
M  V30 42 H 10.903896 7.003527 -2.047585 0
M  V30 43 H 12.320380 5.630585 -3.605076 0
M  V30 44 H 13.464878 6.972879 -3.667162 0
M  V30 45 H 11.564889 5.618485 -5.963307 0
M  V30 46 H 10.267998 6.693521 -7.729085 0
M  V30 47 H 8.441343 9.370998 -9.424187 0
M  V30 48 H 8.695024 7.782596 -8.770462 0
M  V30 49 H 11.203718 8.045819 -9.411186 0
M  V30 50 H 10.829773 9.620785 -10.020692 0
M  V30 51 H 10.977242 8.169127 -11.850046 0
M  V30 52 H 9.277663 8.556690 -11.731389 0
M  V30 53 H 8.794707 6.403294 -10.619735 0
M  V30 54 H 10.485949 5.988613 -10.546951 0
M  V30 55 H 11.713144 5.558643 -12.772287 0
M  V30 56 H 11.031685 6.918435 -13.616917 0
M  V30 57 H 11.423491 5.270065 -15.355694 0
M  V30 58 H 9.380245 1.284142 -15.479500 0
M  V30 59 H 7.029253 -0.758045 -16.444662 0
M  V30 60 H 4.562462 -0.905519 -16.740662 0
M  V30 61 H 3.511270 -0.123840 -18.855259 0
M  V30 62 H 4.921841 0.813152 -20.677633 0
M  V30 63 H 7.392427 0.956510 -20.394920 0
M  V30 64 H 9.322562 2.459726 -20.405893 0
M  V30 65 H 9.595288 4.784411 -21.206331 0
M  V30 66 H 9.966147 6.626055 -19.581141 0
M  V30 67 H 10.049907 6.151270 -17.158859 0
M  V30 68 H 7.790936 4.204678 -14.011104 0
M  V30 69 H 8.637113 2.739405 -13.557235 0
M  V30 70 H 8.270488 4.384967 -11.649473 0
M  V30 71 H 9.917730 3.828287 -11.846053 0
M  V30 72 H 10.487918 10.449996 -5.586248 0
M  V30 73 H 11.747408 10.436471 -3.421520 0
M  V30 74 H 8.878195 6.311506 -12.961391 0
M  V30 END ATOM
M  V30 BEGIN BOND
M  V30 1 2 2 1
M  V30 2 1 3 2
M  V30 3 1 4 3
M  V30 4 1 5 4
M  V30 5 1 6 5
M  V30 6 2 7 6
M  V30 7 1 8 7
M  V30 8 1 9 8
M  V30 9 1 10 9
M  V30 10 1 11 10
M  V30 11 1 12 11
M  V30 12 1 13 12
M  V30 13 1 14 13
M  V30 14 1 15 14
M  V30 15 1 16 15
M  V30 16 2 17 16
M  V30 17 1 18 17
M  V30 18 2 19 18
M  V30 19 1 20 19
M  V30 20 1 21 20
M  V30 21 2 22 21
M  V30 22 2 23 21
M  V30 23 1 24 21
M  V30 24 2 25 24
M  V30 25 1 26 25
M  V30 26 2 27 26
M  V30 27 1 28 27
M  V30 28 1 29 24
M  V30 29 2 29 28
M  V30 30 1 30 20
M  V30 31 2 31 30
M  V30 32 1 32 31
M  V30 33 2 33 32
M  V30 34 1 34 33
M  V30 35 1 35 18
M  V30 36 1 35 30
M  V30 37 2 35 34
M  V30 38 1 36 17
M  V30 39 1 37 14
M  V30 40 1 37 36
M  V30 41 2 38 8
M  V30 42 2 39 5
M  V30 43 1 39 38
M  V30 44 1 40 2
M  V30 45 1 40 39
M  V30 46 1 41 3
M  V30 47 1 42 3
M  V30 48 1 43 4
M  V30 49 1 44 4
M  V30 50 1 45 6
M  V30 51 1 46 7
M  V30 52 1 47 10
M  V30 53 1 48 10
M  V30 54 1 49 11
M  V30 55 1 50 11
M  V30 56 1 51 12
M  V30 57 1 52 12
M  V30 58 1 53 13
M  V30 59 1 54 13
M  V30 60 1 55 15
M  V30 61 1 56 15
M  V30 62 1 57 16
M  V30 63 1 58 19
M  V30 64 1 59 25
M  V30 65 1 60 26
M  V30 66 1 61 27
M  V30 67 1 62 28
M  V30 68 1 63 29
M  V30 69 1 64 31
M  V30 70 1 65 32
M  V30 71 1 66 33
M  V30 72 1 67 34
M  V30 73 1 68 36
M  V30 74 1 69 36
M  V30 75 1 70 37
M  V30 76 1 71 37
M  V30 77 1 72 38
M  V30 78 1 73 40
M  V30 79 1 14 74 CFG=3
M  V30 END BOND
M  V30 END CTAB
M  END
>  <b_m_subgroup_collapsed>  (1135) 
0

>  <r_i_docking_score>  (1135) 
-7.4521799639033697

>  <s_m_subgroup_title>  (1135) 
glide-dock_SP_D22_pv

>  <s_m_subgroupid>  (1135) 
glide-dock_SP_D22_pv

>  <Molecule ChEMBL ID>  (1135) 
CHEMBL3409233

>  <Standard Type>  (1135) 
Ki

>  <Standard Value>  (1135) 
40.0

>  <label>  (1135) 
1

$$$$
CHEMBL1928136
     RDKit          3D

  0  0  0  0  0  0  0  0  0  0999 V3000
M  V30 BEGIN CTAB
M  V30 COUNTS 77 80 0 0 1
M  V30 BEGIN ATOM
M  V30 1 C 12.899381 4.840808 -17.900358 0
M  V30 2 C 13.094632 3.395278 -17.441332 0
M  V30 3 O 11.959462 2.634368 -17.820686 0
M  V30 4 C 12.070455 1.265838 -17.465870 0
M  V30 5 C 10.754795 0.547511 -17.787243 0
M  V30 6 O 9.813332 0.882595 -16.782270 0
M  V30 7 C 8.522780 0.329943 -16.995964 0
M  V30 8 C 7.577165 0.712148 -15.872732 0
M  V30 9 C 6.588680 -0.205399 -15.424857 0
M  V30 10 C 5.773700 0.108580 -14.364924 0
M  V30 11 N 5.913192 1.321351 -13.765186 0
M  V30 12 N 5.195029 1.749523 -12.676386 0
M  V30 13 C 5.659929 2.955117 -12.442150 0
M  V30 14 C 6.660636 3.364137 -13.352242 0
M  V30 15 C 7.460411 4.608760 -13.375301 0
M  V30 16 O 8.486143 4.741192 -14.041863 0
M  V30 17 N 6.921138 5.597624 -12.646833 0
M  V30 18 C 7.428764 6.957358 -12.578933 0
M  V30 19 C 8.632167 7.040332 -11.631592 0
M  V30 20 C 9.062732 8.482613 -11.324106 0
M  V30 21 C 10.297227 8.514181 -10.411638 0
M  V30 22 N 10.059193 7.875382 -9.092574 0 CHG=1
M  V30 23 C 11.321164 7.289030 -8.579293 0
M  V30 24 C 11.137494 6.613930 -7.215588 0
M  V30 25 N 10.564795 7.578203 -6.297503 0
M  V30 26 C 11.192822 7.856568 -5.061806 0
M  V30 27 C 11.685820 6.788293 -4.278712 0
M  V30 28 C 12.260701 7.014380 -3.014810 0
M  V30 29 C 12.373927 8.325511 -2.520151 0
M  V30 30 C 11.910656 9.401986 -3.297717 0
M  V30 31 C 11.329184 9.179683 -4.561497 0
M  V30 32 O 10.939035 10.277963 -5.284263 0
M  V30 33 C 11.899228 10.629599 -6.264124 0
M  V30 34 C 9.296135 8.175729 -6.697721 0
M  V30 35 C 9.386282 8.776455 -8.115095 0
M  V30 36 C 6.843117 2.295381 -14.194729 0
M  V30 37 C 7.686040 1.955127 -15.284894 0
M  V30 38 H 13.755473 5.456521 -17.623827 0
M  V30 39 H 12.780758 4.895003 -18.982922 0
M  V30 40 H 12.010336 5.277207 -17.443947 0
M  V30 41 H 13.221663 3.368596 -16.359350 0
M  V30 42 H 13.997690 2.979486 -17.890583 0
M  V30 43 H 12.307224 1.158156 -16.407524 0
M  V30 44 H 12.885987 0.816585 -18.035124 0
M  V30 45 H 10.911963 -0.532310 -17.780912 0
M  V30 46 H 10.395336 0.826954 -18.779387 0
M  V30 47 H 8.594640 -0.756870 -17.056059 0
M  V30 48 H 8.112049 0.686576 -17.941370 0
M  V30 49 H 6.486969 -1.178416 -15.897279 0
M  V30 50 H 5.019676 -0.562385 -13.969555 0
M  V30 51 H 5.286198 3.512765 -11.595469 0
M  V30 52 H 6.085543 5.413074 -12.114008 0
M  V30 53 H 7.686228 7.317402 -13.567151 0
M  V30 54 H 6.617637 7.600310 -12.246894 0
M  V30 55 H 8.372645 6.529712 -10.702931 0
M  V30 56 H 9.470387 6.488933 -12.060614 0
M  V30 57 H 9.290586 8.989534 -12.262432 0
M  V30 58 H 8.243967 9.043820 -10.876989 0
M  V30 59 H 11.099077 8.000337 -10.944520 0
M  V30 60 H 10.664790 9.524705 -10.246929 0
M  V30 61 H 11.684840 6.572849 -9.314105 0
M  V30 62 H 12.078819 8.070694 -8.505434 0
M  V30 63 H 10.458686 5.765404 -7.304591 0
M  V30 64 H 12.090380 6.226576 -6.857464 0
M  V30 65 H 11.585985 5.773625 -4.628979 0
M  V30 66 H 12.605901 6.177707 -2.424736 0
M  V30 67 H 12.815495 8.507129 -1.552180 0
M  V30 68 H 12.010171 10.409012 -2.916646 0
M  V30 69 H 11.680889 11.600512 -6.704998 0
M  V30 70 H 12.895087 10.694179 -5.845954 0
M  V30 71 H 11.941635 9.879170 -7.049509 0
M  V30 72 H 8.530206 7.398436 -6.674826 0
M  V30 73 H 8.976102 8.943054 -5.999294 0
M  V30 74 H 9.947944 9.701338 -8.053580 0
M  V30 75 H 8.390738 9.044727 -8.469799 0
M  V30 76 H 8.431572 2.669062 -15.622167 0
M  V30 77 H 9.426239 7.101532 -9.244990 0
M  V30 END ATOM
M  V30 BEGIN BOND
M  V30 1 1 2 1
M  V30 2 1 3 2
M  V30 3 1 4 3
M  V30 4 1 5 4
M  V30 5 1 6 5
M  V30 6 1 7 6
M  V30 7 1 8 7
M  V30 8 1 9 8
M  V30 9 2 10 9
M  V30 10 1 11 10
M  V30 11 1 12 11
M  V30 12 2 13 12
M  V30 13 1 14 13
M  V30 14 1 15 14
M  V30 15 2 16 15
M  V30 16 1 17 15
M  V30 17 1 18 17
M  V30 18 1 19 18
M  V30 19 1 20 19
M  V30 20 1 21 20
M  V30 21 1 22 21
M  V30 22 1 23 22
M  V30 23 1 24 23
M  V30 24 1 25 24
M  V30 25 1 26 25
M  V30 26 2 27 26
M  V30 27 1 28 27
M  V30 28 2 29 28
M  V30 29 1 30 29
M  V30 30 1 31 26
M  V30 31 2 31 30
M  V30 32 1 32 31
M  V30 33 1 33 32
M  V30 34 1 34 25
M  V30 35 1 35 22
M  V30 36 1 35 34
M  V30 37 1 36 11
M  V30 38 2 36 14
M  V30 39 2 37 8
M  V30 40 1 37 36
M  V30 41 1 38 1
M  V30 42 1 39 1
M  V30 43 1 40 1
M  V30 44 1 41 2
M  V30 45 1 42 2
M  V30 46 1 43 4
M  V30 47 1 44 4
M  V30 48 1 45 5
M  V30 49 1 46 5
M  V30 50 1 47 7
M  V30 51 1 48 7
M  V30 52 1 49 9
M  V30 53 1 50 10
M  V30 54 1 51 13
M  V30 55 1 52 17
M  V30 56 1 53 18
M  V30 57 1 54 18
M  V30 58 1 55 19
M  V30 59 1 56 19
M  V30 60 1 57 20
M  V30 61 1 58 20
M  V30 62 1 59 21
M  V30 63 1 60 21
M  V30 64 1 61 23
M  V30 65 1 62 23
M  V30 66 1 63 24
M  V30 67 1 64 24
M  V30 68 1 65 27
M  V30 69 1 66 28
M  V30 70 1 67 29
M  V30 71 1 68 30
M  V30 72 1 69 33
M  V30 73 1 70 33
M  V30 74 1 71 33
M  V30 75 1 72 34
M  V30 76 1 73 34
M  V30 77 1 74 35
M  V30 78 1 75 35
M  V30 79 1 76 37
M  V30 80 1 77 22
M  V30 END BOND
M  V30 END CTAB
M  END
>  <b_m_subgroup_collapsed>  (1136) 
0

>  <r_i_docking_score>  (1136) 
-7.4519838106202601

>  <s_m_subgroup_title>  (1136) 
glide-dock_SP_D22_pv

>  <s_m_subgroupid>  (1136) 
glide-dock_SP_D22_pv

>  <Molecule ChEMBL ID>  (1136) 
CHEMBL1928136

>  <Standard Type>  (1136) 
Ki

>  <Standard Value>  (1136) 
12.0

>  <label>  (1136) 
1

$$$$
CHEMBL2159479
     RDKit          3D

  0  0  0  0  0  0  0  0  0  0999 V3000
M  V30 BEGIN CTAB
M  V30 COUNTS 47 49 0 0 1
M  V30 BEGIN ATOM
M  V30 1 O 8.886539 4.970263 -14.727802 0
M  V30 2 S 9.205215 3.778054 -13.929988 0
M  V30 3 O 10.393386 2.973337 -14.251348 0
M  V30 4 N 9.375433 4.267064 -12.273494 0
M  V30 5 C 8.575850 5.353239 -11.679619 0 CFG=2
M  V30 6 C 8.954866 6.709132 -12.291908 0
M  V30 7 C 9.407326 7.597562 -11.137521 0
M  V30 8 N 8.886038 6.966010 -9.915500 0 CFG=2 CHG=1
M  V30 9 C 9.627548 7.358249 -8.694913 0
M  V30 10 C 8.878367 7.011206 -7.395025 0
M  V30 11 O 9.809192 6.600255 -6.403098 0
M  V30 12 C 10.533372 7.540565 -5.705512 0
M  V30 13 C 11.346887 7.055385 -4.658727 0
M  V30 14 C 12.086553 7.938075 -3.849296 0
M  V30 15 C 12.034334 9.324448 -4.087906 0
M  V30 16 C 11.239960 9.819757 -5.137813 0
M  V30 17 C 10.488493 8.937224 -5.940253 0
M  V30 18 C 8.846416 5.509287 -10.177863 0
M  V30 19 C 7.776562 2.687355 -13.915490 0
M  V30 20 C 7.948375 1.329551 -14.270731 0
M  V30 21 C 6.878917 0.421320 -14.128694 0
M  V30 22 C 5.644398 0.867277 -13.615520 0
M  V30 23 F 4.622512 -0.005612 -13.447599 0
M  V30 24 C 5.466873 2.224966 -13.284908 0
M  V30 25 C 6.520231 3.144441 -13.455274 0
M  V30 26 H 9.597522 3.491852 -11.646855 0
M  V30 27 H 7.514980 5.172081 -11.813528 0
M  V30 28 H 8.089900 7.142996 -12.796328 0
M  V30 29 H 9.760341 6.617963 -13.021394 0
M  V30 30 H 9.053797 8.623847 -11.238369 0
M  V30 31 H 10.498945 7.618906 -11.105472 0
M  V30 32 H 9.817821 8.430020 -8.728074 0
M  V30 33 H 10.607121 6.878445 -8.706294 0
M  V30 34 H 8.211843 6.163379 -7.544121 0
M  V30 35 H 8.238616 7.825299 -7.051143 0
M  V30 36 H 11.386828 5.993612 -4.464166 0
M  V30 37 H 12.693192 7.551063 -3.045205 0
M  V30 38 H 12.598012 9.999263 -3.460923 0
M  V30 39 H 11.192647 10.882633 -5.319170 0
M  V30 40 H 9.877338 9.363354 -6.718966 0
M  V30 41 H 9.809501 5.066396 -9.921249 0
M  V30 42 H 8.085808 5.012980 -9.574309 0
M  V30 43 H 8.905692 0.971489 -14.617856 0
M  V30 44 H 7.012952 -0.619779 -14.385888 0
M  V30 45 H 4.511281 2.562391 -12.912105 0
M  V30 46 H 6.355273 4.184276 -13.225896 0
M  V30 47 H 7.913206 7.293033 -9.848475 0
M  V30 END ATOM
M  V30 BEGIN BOND
M  V30 1 2 2 1
M  V30 2 2 3 2
M  V30 3 1 4 2
M  V30 4 1 5 4
M  V30 5 1 6 5
M  V30 6 1 7 6
M  V30 7 1 8 7
M  V30 8 1 9 8
M  V30 9 1 10 9
M  V30 10 1 11 10
M  V30 11 1 12 11
M  V30 12 2 13 12
M  V30 13 1 14 13
M  V30 14 2 15 14
M  V30 15 1 16 15
M  V30 16 1 17 12
M  V30 17 2 17 16
M  V30 18 1 18 5
M  V30 19 1 18 8
M  V30 20 1 19 2
M  V30 21 1 20 19
M  V30 22 2 21 20
M  V30 23 1 22 21
M  V30 24 1 23 22
M  V30 25 2 24 22
M  V30 26 2 25 19
M  V30 27 1 25 24
M  V30 28 1 26 4
M  V30 29 1 5 27 CFG=1
M  V30 30 1 28 6
M  V30 31 1 29 6
M  V30 32 1 30 7
M  V30 33 1 31 7
M  V30 34 1 32 9
M  V30 35 1 33 9
M  V30 36 1 34 10
M  V30 37 1 35 10
M  V30 38 1 36 13
M  V30 39 1 37 14
M  V30 40 1 38 15
M  V30 41 1 39 16
M  V30 42 1 40 17
M  V30 43 1 41 18
M  V30 44 1 42 18
M  V30 45 1 43 20
M  V30 46 1 44 21
M  V30 47 1 45 24
M  V30 48 1 46 25
M  V30 49 1 8 47 CFG=1
M  V30 END BOND
M  V30 END CTAB
M  END
>  <b_m_subgroup_collapsed>  (1137) 
0

>  <r_i_docking_score>  (1137) 
-7.4515213082053702

>  <s_m_subgroup_title>  (1137) 
glide-dock_SP_D22_pv

>  <s_m_subgroupid>  (1137) 
glide-dock_SP_D22_pv

>  <Molecule ChEMBL ID>  (1137) 
CHEMBL2159479

>  <Standard Type>  (1137) 
Ki

>  <Standard Value>  (1137) 
11.0

>  <label>  (1137) 
1

$$$$
CHEMBL135954
     RDKit          3D

  0  0  0  0  0  0  0  0  0  0999 V3000
M  V30 BEGIN CTAB
M  V30 COUNTS 48 50 0 0 1
M  V30 BEGIN ATOM
M  V30 1 C 8.492068 3.922699 -8.646205 0
M  V30 2 C 9.510354 4.989254 -9.035803 0
M  V30 3 C 8.821522 6.360752 -8.994090 0
M  V30 4 N 9.719258 7.530426 -9.145571 0 CFG=2 CHG=1
M  V30 5 C 10.427063 7.593492 -10.460585 0
M  V30 6 C 9.509008 7.685632 -11.703679 0
M  V30 7 C 9.004486 6.382091 -12.247498 0
M  V30 8 C 7.713337 5.914769 -12.277217 0
M  V30 9 C 7.588381 4.633895 -12.888065 0
M  V30 10 C 8.783105 4.148652 -13.347607 0
M  V30 11 S 10.085035 5.263448 -13.044415 0
M  V30 12 C 10.620345 7.823903 -7.978678 0 CFG=1
M  V30 13 C 10.761472 9.346448 -7.803424 0
M  V30 14 C 11.709127 9.781825 -6.670184 0
M  V30 15 C 11.699591 8.882176 -5.449217 0
M  V30 16 C 12.431668 9.254152 -4.305146 0
M  V30 17 C 12.519907 8.401938 -3.192447 0
M  V30 18 C 11.997705 7.106052 -3.272889 0
M  V30 19 O 12.179420 6.233011 -2.246925 0
M  V30 20 C 11.285919 6.721395 -4.417922 0
M  V30 21 C 11.070590 7.623352 -5.476375 0
M  V30 22 C 10.161325 7.236295 -6.622612 0
M  V30 23 H 8.966015 2.979709 -8.369261 0
M  V30 24 H 7.908522 4.252776 -7.797823 0
M  V30 25 H 7.770378 3.772389 -9.448467 0
M  V30 26 H 9.899065 4.771436 -10.029644 0
M  V30 27 H 10.367092 4.951174 -8.367009 0
M  V30 28 H 8.222560 6.473266 -8.091546 0
M  V30 29 H 8.085908 6.394469 -9.781078 0
M  V30 30 H 11.041451 8.492503 -10.468200 0
M  V30 31 H 11.132643 6.769901 -10.559103 0
M  V30 32 H 8.670745 8.353886 -11.499498 0
M  V30 33 H 10.074590 8.168260 -12.500137 0
M  V30 34 H 6.860461 6.438338 -11.868121 0
M  V30 35 H 6.639521 4.123579 -12.967616 0
M  V30 36 H 8.978273 3.208984 -13.843662 0
M  V30 37 H 11.601903 7.398623 -8.196761 0
M  V30 38 H 11.093941 9.799627 -8.733871 0
M  V30 39 H 9.770219 9.749064 -7.589494 0
M  V30 40 H 11.498059 10.810104 -6.373158 0
M  V30 41 H 12.733393 9.771990 -7.044863 0
M  V30 42 H 12.980289 10.172322 -4.288984 0
M  V30 43 H 13.076748 8.709851 -2.318952 0
M  V30 44 H 11.702916 5.417980 -2.338283 0
M  V30 45 H 10.833467 5.750673 -4.458843 0
M  V30 46 H 10.102843 6.152293 -6.637409 0
M  V30 47 H 9.163546 7.599196 -6.369702 0
M  V30 48 H 9.061361 8.298135 -9.161431 0
M  V30 END ATOM
M  V30 BEGIN BOND
M  V30 1 1 2 1
M  V30 2 1 3 2
M  V30 3 1 4 3
M  V30 4 1 5 4
M  V30 5 1 6 5
M  V30 6 1 7 6
M  V30 7 2 8 7
M  V30 8 1 9 8
M  V30 9 2 10 9
M  V30 10 1 11 7
M  V30 11 1 11 10
M  V30 12 1 12 4
M  V30 13 1 13 12
M  V30 14 1 14 13
M  V30 15 1 15 14
M  V30 16 1 16 15
M  V30 17 2 17 16
M  V30 18 1 18 17
M  V30 19 1 19 18
M  V30 20 2 20 18
M  V30 21 2 21 15
M  V30 22 1 21 20
M  V30 23 1 22 12
M  V30 24 1 22 21
M  V30 25 1 23 1
M  V30 26 1 24 1
M  V30 27 1 25 1
M  V30 28 1 26 2
M  V30 29 1 27 2
M  V30 30 1 28 3
M  V30 31 1 29 3
M  V30 32 1 30 5
M  V30 33 1 31 5
M  V30 34 1 32 6
M  V30 35 1 33 6
M  V30 36 1 34 8
M  V30 37 1 35 9
M  V30 38 1 36 10
M  V30 39 1 12 37 CFG=3
M  V30 40 1 38 13
M  V30 41 1 39 13
M  V30 42 1 40 14
M  V30 43 1 41 14
M  V30 44 1 42 16
M  V30 45 1 43 17
M  V30 46 1 44 19
M  V30 47 1 45 20
M  V30 48 1 46 22
M  V30 49 1 47 22
M  V30 50 1 4 48 CFG=3
M  V30 END BOND
M  V30 END CTAB
M  END
>  <b_m_subgroup_collapsed>  (1138) 
0

>  <r_i_docking_score>  (1138) 
-7.4513125771393902

>  <s_m_subgroup_title>  (1138) 
glide-dock_SP_D22_pv

>  <s_m_subgroupid>  (1138) 
glide-dock_SP_D22_pv

>  <Molecule ChEMBL ID>  (1138) 
CHEMBL135954

>  <Standard Type>  (1138) 
Ki

>  <Standard Value>  (1138) 
0.76

>  <label>  (1138) 
1

$$$$
CHEMBL444128
     RDKit          3D

  0  0  0  0  0  0  0  0  0  0999 V3000
M  V30 BEGIN CTAB
M  V30 COUNTS 50 51 0 0 1
M  V30 BEGIN ATOM
M  V30 1 C 10.470518 -0.564638 -17.046049 0
M  V30 2 C 9.650431 0.501987 -16.313251 0
M  V30 3 C 10.255448 0.881980 -14.950342 0
M  V30 4 N 9.456306 1.906574 -14.246985 0 CHG=1
M  V30 5 C 9.645297 3.288284 -14.743587 0
M  V30 6 C 8.737909 4.291017 -14.009261 0
M  V30 7 C 9.251385 4.688430 -12.617377 0
M  V30 8 C 8.357822 5.754193 -11.955531 0
M  V30 9 N 8.886365 6.172200 -10.664559 0
M  V30 10 C 9.797120 7.141467 -10.477168 0
M  V30 11 O 10.326391 7.750362 -11.410892 0
M  V30 12 C 10.189638 7.422677 -9.047815 0
M  V30 13 C 11.276242 8.281454 -8.768227 0
M  V30 14 C 11.678607 8.524846 -7.439639 0
M  V30 15 C 11.012447 7.905464 -6.357664 0
M  V30 16 C 11.465044 8.091562 -4.964884 0
M  V30 17 C 11.685303 6.965382 -4.139750 0
M  V30 18 C 12.088074 7.105414 -2.798913 0
M  V30 19 C 12.290170 8.390093 -2.262074 0
M  V30 20 C 12.085622 9.520555 -3.072731 0
M  V30 21 C 11.686112 9.372598 -4.417387 0
M  V30 22 C 9.912045 7.071311 -6.640265 0
M  V30 23 C 9.487917 6.847123 -7.963134 0
M  V30 24 H 10.034621 -0.785023 -18.020620 0
M  V30 25 H 11.494045 -0.230327 -17.207743 0
M  V30 26 H 10.485761 -1.493541 -16.478737 0
M  V30 27 H 8.629782 0.138414 -16.176844 0
M  V30 28 H 9.582346 1.379902 -16.958689 0
M  V30 29 H 11.285926 1.224120 -15.061893 0
M  V30 30 H 10.292983 -0.006971 -14.317083 0
M  V30 31 H 9.717035 1.876483 -13.265497 0
M  V30 32 H 9.405483 3.319380 -15.805786 0
M  V30 33 H 10.692801 3.579737 -14.649653 0
M  V30 34 H 7.720865 3.904725 -13.943768 0
M  V30 35 H 8.673952 5.195613 -14.618438 0
M  V30 36 H 10.267469 5.074470 -12.703003 0
M  V30 37 H 9.307163 3.809438 -11.972898 0
M  V30 38 H 7.353550 5.358666 -11.797381 0
M  V30 39 H 8.246723 6.622695 -12.606566 0
M  V30 40 H 8.453464 5.770115 -9.845549 0
M  V30 41 H 11.825442 8.749542 -9.574472 0
M  V30 42 H 12.527029 9.167633 -7.253860 0
M  V30 43 H 11.529656 5.973085 -4.533923 0
M  V30 44 H 12.234960 6.229377 -2.184066 0
M  V30 45 H 12.587461 8.509454 -1.230492 0
M  V30 46 H 12.224175 10.504882 -2.648263 0
M  V30 47 H 11.524063 10.250462 -5.024347 0
M  V30 48 H 9.371850 6.594635 -5.835180 0
M  V30 49 H 8.626890 6.213164 -8.116551 0
M  V30 50 H 8.480791 1.657450 -14.315118 0
M  V30 END ATOM
M  V30 BEGIN BOND
M  V30 1 1 2 1
M  V30 2 1 3 2
M  V30 3 1 4 3
M  V30 4 1 5 4
M  V30 5 1 6 5
M  V30 6 1 7 6
M  V30 7 1 8 7
M  V30 8 1 9 8
M  V30 9 1 10 9
M  V30 10 2 11 10
M  V30 11 1 12 10
M  V30 12 1 13 12
M  V30 13 2 14 13
M  V30 14 1 15 14
M  V30 15 1 16 15
M  V30 16 2 17 16
M  V30 17 1 18 17
M  V30 18 2 19 18
M  V30 19 1 20 19
M  V30 20 1 21 16
M  V30 21 2 21 20
M  V30 22 2 22 15
M  V30 23 2 23 12
M  V30 24 1 23 22
M  V30 25 1 24 1
M  V30 26 1 25 1
M  V30 27 1 26 1
M  V30 28 1 27 2
M  V30 29 1 28 2
M  V30 30 1 29 3
M  V30 31 1 30 3
M  V30 32 1 31 4
M  V30 33 1 32 5
M  V30 34 1 33 5
M  V30 35 1 34 6
M  V30 36 1 35 6
M  V30 37 1 36 7
M  V30 38 1 37 7
M  V30 39 1 38 8
M  V30 40 1 39 8
M  V30 41 1 40 9
M  V30 42 1 41 13
M  V30 43 1 42 14
M  V30 44 1 43 17
M  V30 45 1 44 18
M  V30 46 1 45 19
M  V30 47 1 46 20
M  V30 48 1 47 21
M  V30 49 1 48 22
M  V30 50 1 49 23
M  V30 51 1 50 4
M  V30 END BOND
M  V30 END CTAB
M  END
>  <b_m_subgroup_collapsed>  (1139) 
0

>  <r_i_docking_score>  (1139) 
-7.4488055123308996

>  <s_m_subgroup_title>  (1139) 
glide-dock_SP_D22_pv

>  <s_m_subgroupid>  (1139) 
glide-dock_SP_D22_pv

>  <Molecule ChEMBL ID>  (1139) 
CHEMBL444128

>  <Standard Type>  (1139) 
Ki

>  <Standard Value>  (1139) 
21000.0

>  <label>  (1139) 
0

$$$$
CHEMBL3764639
     RDKit          3D

  0  0  0  0  0  0  0  0  0  0999 V3000
M  V30 BEGIN CTAB
M  V30 COUNTS 58 61 0 0 1
M  V30 BEGIN ATOM
M  V30 1 C 9.205002 5.140843 -9.470731 0
M  V30 2 N 9.324286 6.434789 -10.128765 0
M  V30 3 C 8.991504 6.747997 -11.397146 0
M  V30 4 S 8.263690 5.587672 -12.501750 0
M  V30 5 C 9.797437 4.964790 -13.235895 0
M  V30 6 C 9.506728 3.774140 -14.149281 0
M  V30 7 C 10.754431 3.280502 -14.895177 0
M  V30 8 N 10.471923 2.251841 -15.889504 0
M  V30 9 C 10.086960 0.978512 -15.291706 0
M  V30 10 C 9.775029 -0.074338 -16.363482 0
M  V30 11 O 10.886097 -0.226631 -17.240662 0
M  V30 12 C 11.289312 0.990279 -17.872700 0 CFG=2
M  V30 13 C 12.470148 0.780349 -18.808632 0
M  V30 14 C 12.982046 -0.514188 -19.047197 0
M  V30 15 C 14.101787 -0.695810 -19.878572 0
M  V30 16 C 14.725478 0.415554 -20.485872 0
M  V30 17 C 15.962476 0.238070 -21.343868 0
M  V30 18 F 16.084606 -1.027491 -21.747482 0
M  V30 19 F 15.898104 1.020449 -22.424984 0
M  V30 20 F 17.040533 0.572675 -20.629730 0
M  V30 21 C 14.202682 1.706682 -20.268227 0
M  V30 22 C 13.077565 1.886596 -19.442871 0
M  V30 23 C 11.607382 2.034410 -16.777864 0
M  V30 24 N 9.284664 8.000925 -11.739723 0
M  V30 25 N 9.793956 8.572041 -10.600467 0
M  V30 26 C 9.783866 7.620218 -9.657420 0
M  V30 27 C 10.262440 7.894310 -8.298254 0
M  V30 28 C 9.725911 7.230353 -7.173480 0
M  V30 29 C 10.228948 7.485713 -5.885751 0
M  V30 30 C 11.227876 8.459706 -5.689560 0
M  V30 31 C 11.705661 8.760387 -4.349351 0
M  V30 32 N 12.085843 8.999291 -3.283433 0
M  V30 33 C 11.751119 9.147879 -6.800676 0
M  V30 34 C 11.284467 8.851758 -8.097349 0
M  V30 35 H 9.296082 4.335284 -10.195537 0
M  V30 36 H 10.001698 5.015364 -8.737714 0
M  V30 37 H 8.233321 5.067696 -8.979891 0
M  V30 38 H 10.272120 5.772996 -13.793302 0
M  V30 39 H 10.485578 4.670959 -12.444715 0
M  V30 40 H 9.078341 2.973998 -13.549541 0
M  V30 41 H 8.749796 4.059485 -14.878267 0
M  V30 42 H 11.201456 4.140532 -15.396885 0
M  V30 43 H 11.501143 2.922502 -14.184033 0
M  V30 44 H 10.885721 0.613651 -14.647747 0
M  V30 45 H 9.207761 1.101719 -14.659568 0
M  V30 46 H 9.574798 -1.028055 -15.885295 0
M  V30 47 H 8.885231 0.202358 -16.932287 0
M  V30 48 H 10.460863 1.350892 -18.484570 0
M  V30 49 H 12.532694 -1.379173 -18.580662 0
M  V30 50 H 14.486105 -1.693265 -20.035009 0
M  V30 51 H 14.671609 2.563631 -20.731651 0
M  V30 52 H 12.692597 2.883658 -19.292578 0
M  V30 53 H 11.881506 2.982667 -17.241291 0
M  V30 54 H 12.480951 1.709453 -16.208513 0
M  V30 55 H 8.918816 6.521420 -7.280991 0
M  V30 56 H 9.819753 6.939928 -5.047594 0
M  V30 57 H 12.522221 9.893615 -6.660788 0
M  V30 58 H 11.714035 9.372384 -8.942161 0
M  V30 END ATOM
M  V30 BEGIN BOND
M  V30 1 1 2 1
M  V30 2 1 3 2
M  V30 3 1 4 3
M  V30 4 1 5 4
M  V30 5 1 6 5
M  V30 6 1 7 6
M  V30 7 1 8 7
M  V30 8 1 9 8
M  V30 9 1 10 9
M  V30 10 1 11 10
M  V30 11 1 12 11
M  V30 12 1 13 12
M  V30 13 1 14 13
M  V30 14 2 15 14
M  V30 15 1 16 15
M  V30 16 1 17 16
M  V30 17 1 18 17
M  V30 18 1 19 17
M  V30 19 1 20 17
M  V30 20 2 21 16
M  V30 21 2 22 13
M  V30 22 1 22 21
M  V30 23 1 23 8
M  V30 24 1 23 12
M  V30 25 2 24 3
M  V30 26 1 25 24
M  V30 27 1 26 2
M  V30 28 2 26 25
M  V30 29 1 27 26
M  V30 30 1 28 27
M  V30 31 2 29 28
M  V30 32 1 30 29
M  V30 33 1 31 30
M  V30 34 3 32 31
M  V30 35 2 33 30
M  V30 36 2 34 27
M  V30 37 1 34 33
M  V30 38 1 35 1
M  V30 39 1 36 1
M  V30 40 1 37 1
M  V30 41 1 38 5
M  V30 42 1 39 5
M  V30 43 1 40 6
M  V30 44 1 41 6
M  V30 45 1 42 7
M  V30 46 1 43 7
M  V30 47 1 44 9
M  V30 48 1 45 9
M  V30 49 1 46 10
M  V30 50 1 47 10
M  V30 51 1 12 48 CFG=3
M  V30 52 1 49 14
M  V30 53 1 50 15
M  V30 54 1 51 21
M  V30 55 1 52 22
M  V30 56 1 53 23
M  V30 57 1 54 23
M  V30 58 1 55 28
M  V30 59 1 56 29
M  V30 60 1 57 33
M  V30 61 1 58 34
M  V30 END BOND
M  V30 END CTAB
M  END
>  <b_m_subgroup_collapsed>  (1140) 
0

>  <r_i_docking_score>  (1140) 
-7.4470528445869002

>  <s_m_subgroup_title>  (1140) 
glide-dock_SP_D22_pv

>  <s_m_subgroupid>  (1140) 
glide-dock_SP_D22_pv

>  <Molecule ChEMBL ID>  (1140) 
CHEMBL3764639

>  <Standard Type>  (1140) 
Ki

>  <Standard Value>  (1140) 
10000.0

>  <label>  (1140) 
0

$$$$
CHEMBL3970746
     RDKit          3D

  0  0  0  0  0  0  0  0  0  0999 V3000
M  V30 BEGIN CTAB
M  V30 COUNTS 64 68 0 0 1
M  V30 BEGIN ATOM
M  V30 1 O 11.285501 10.451107 -5.639206 0
M  V30 2 C 11.403931 9.249440 -5.396046 0
M  V30 3 N 11.147093 8.279313 -6.285532 0
M  V30 4 C 10.750887 8.466423 -7.673476 0 CFG=1
M  V30 5 C 11.976645 8.301750 -8.593996 0
M  V30 6 C 11.600053 8.316500 -10.087406 0
M  V30 7 C 10.483553 7.298562 -10.423166 0 CFG=2
M  V30 8 C 10.051716 7.374208 -11.903550 0
M  V30 9 C 10.888604 6.499852 -12.873664 0
M  V30 10 N 10.342697 5.132164 -13.100395 0 CHG=1
M  V30 11 C 9.013330 5.101979 -13.770744 0
M  V30 12 C 8.458423 3.673672 -13.754862 0
M  V30 13 N 9.390414 2.756487 -14.399971 0
M  V30 14 C 8.961298 1.913290 -15.449428 0
M  V30 15 N 9.693186 1.798037 -16.538397 0
M  V30 16 S 8.912961 0.817796 -17.653074 0
M  V30 17 C 7.520415 0.490048 -16.643902 0
M  V30 18 C 6.365712 -0.263852 -16.919256 0
M  V30 19 C 5.367587 -0.416060 -15.932334 0
M  V30 20 N 4.117404 -1.144490 -16.226202 0 CHG=1
M  V30 21 O 3.286124 -1.240221 -15.329832 0
M  V30 22 O 3.957164 -1.581842 -17.359938 0 CHG=-1
M  V30 23 C 5.576827 0.172188 -14.664946 0
M  V30 24 C 6.722283 0.952828 -14.412821 0
M  V30 25 C 7.720192 1.152603 -15.397253 0
M  V30 26 C 10.792002 2.818739 -13.992125 0
M  V30 27 C 11.300482 4.269571 -13.847350 0
M  V30 28 C 9.276299 7.538420 -9.499156 0
M  V30 29 C 9.658434 7.443822 -8.018679 0
M  V30 30 C 11.847280 8.772537 -4.072119 0
M  V30 31 C 12.084861 7.503391 -3.609126 0
M  V30 32 C 12.485764 7.634246 -2.253129 0
M  V30 33 C 12.485871 8.971727 -1.987339 0
M  V30 34 O 12.086118 9.679461 -3.080679 0
M  V30 35 H 11.242874 7.325876 -5.969906 0
M  V30 36 H 10.333036 9.462693 -7.813406 0
M  V30 37 H 12.708449 9.082686 -8.388592 0
M  V30 38 H 12.486497 7.372333 -8.356129 0
M  V30 39 H 11.270180 9.324594 -10.345084 0
M  V30 40 H 12.488846 8.122655 -10.689631 0
M  V30 41 H 10.849882 6.293949 -10.210803 0
M  V30 42 H 8.991858 7.141168 -11.970592 0
M  V30 43 H 10.086308 8.412547 -12.225026 0
M  V30 44 H 10.983257 6.972063 -13.846722 0
M  V30 45 H 11.913508 6.443893 -12.505016 0
M  V30 46 H 8.278347 5.742700 -13.292168 0
M  V30 47 H 9.107156 5.452462 -14.799444 0
M  V30 48 H 8.292312 3.372590 -12.722667 0
M  V30 49 H 7.489986 3.657469 -14.252768 0
M  V30 50 H 6.252548 -0.721822 -17.890224 0
M  V30 51 H 4.835709 0.067956 -13.885242 0
M  V30 52 H 6.833138 1.414687 -13.445634 0
M  V30 53 H 10.885081 2.292074 -13.046968 0
M  V30 54 H 11.427896 2.276998 -14.691691 0
M  V30 55 H 11.456741 4.695184 -14.840891 0
M  V30 56 H 12.274380 4.265584 -13.357514 0
M  V30 57 H 8.847995 8.522395 -9.700854 0
M  V30 58 H 8.487984 6.811280 -9.706692 0
M  V30 59 H 9.998243 6.429853 -7.795719 0
M  V30 60 H 8.772055 7.619000 -7.405874 0
M  V30 61 H 11.980258 6.586374 -4.169791 0
M  V30 62 H 12.753624 6.843564 -1.567895 0
M  V30 63 H 12.719428 9.567820 -1.116891 0
M  V30 64 H 10.214309 4.711120 -12.190895 0
M  V30 END ATOM
M  V30 BEGIN BOND
M  V30 1 2 2 1
M  V30 2 1 3 2
M  V30 3 1 4 3
M  V30 4 1 5 4
M  V30 5 1 6 5
M  V30 6 1 7 6
M  V30 7 1 8 7
M  V30 8 1 9 8
M  V30 9 1 10 9
M  V30 10 1 11 10
M  V30 11 1 12 11
M  V30 12 1 13 12
M  V30 13 1 14 13
M  V30 14 2 15 14
M  V30 15 1 16 15
M  V30 16 1 17 16
M  V30 17 1 18 17
M  V30 18 2 19 18
M  V30 19 1 20 19
M  V30 20 2 21 20
M  V30 21 1 22 20
M  V30 22 1 23 19
M  V30 23 2 24 23
M  V30 24 1 25 14
M  V30 25 2 25 17
M  V30 26 1 25 24
M  V30 27 1 26 13
M  V30 28 1 27 10
M  V30 29 1 27 26
M  V30 30 1 28 7
M  V30 31 1 29 4
M  V30 32 1 29 28
M  V30 33 1 30 2
M  V30 34 2 31 30
M  V30 35 1 32 31
M  V30 36 2 33 32
M  V30 37 1 34 30
M  V30 38 1 34 33
M  V30 39 1 35 3
M  V30 40 1 4 36 CFG=1
M  V30 41 1 37 5
M  V30 42 1 38 5
M  V30 43 1 39 6
M  V30 44 1 40 6
M  V30 45 1 7 41 CFG=1
M  V30 46 1 42 8
M  V30 47 1 43 8
M  V30 48 1 44 9
M  V30 49 1 45 9
M  V30 50 1 46 11
M  V30 51 1 47 11
M  V30 52 1 48 12
M  V30 53 1 49 12
M  V30 54 1 50 18
M  V30 55 1 51 23
M  V30 56 1 52 24
M  V30 57 1 53 26
M  V30 58 1 54 26
M  V30 59 1 55 27
M  V30 60 1 56 27
M  V30 61 1 57 28
M  V30 62 1 58 28
M  V30 63 1 59 29
M  V30 64 1 60 29
M  V30 65 1 61 31
M  V30 66 1 62 32
M  V30 67 1 63 33
M  V30 68 1 64 10
M  V30 END BOND
M  V30 END CTAB
M  END
>  <b_m_subgroup_collapsed>  (1141) 
0

>  <r_i_docking_score>  (1141) 
-7.4460375140217696

>  <s_m_subgroup_title>  (1141) 
glide-dock_SP_D22_pv

>  <s_m_subgroupid>  (1141) 
glide-dock_SP_D22_pv

>  <Molecule ChEMBL ID>  (1141) 
CHEMBL3970746

>  <Standard Type>  (1141) 
Ki

>  <Standard Value>  (1141) 
26.0

>  <label>  (1141) 
1

$$$$
CHEMBL3765422
     RDKit          3D

  0  0  0  0  0  0  0  0  0  0999 V3000
M  V30 BEGIN CTAB
M  V30 COUNTS 60 63 0 0 1
M  V30 BEGIN ATOM
M  V30 1 C 8.461945 0.189672 -14.327954 0
M  V30 2 N 8.212393 0.979611 -15.517935 0
M  V30 3 C 8.933403 2.024723 -15.965778 0
M  V30 4 S 10.310959 2.671512 -15.067474 0
M  V30 5 C 9.666852 4.347385 -14.757796 0
M  V30 6 C 8.473610 4.362049 -13.780934 0
M  V30 7 C 8.831365 4.787459 -12.339972 0
M  V30 8 N 9.180016 6.200795 -12.149525 0
M  V30 9 C 8.058441 7.095480 -12.436831 0
M  V30 10 C 8.385215 8.580829 -12.170555 0
M  V30 11 O 8.888991 8.768916 -10.856611 0
M  V30 12 C 9.987069 7.925258 -10.533118 0 CFG=1
M  V30 13 C 10.431801 8.190224 -9.105766 0
M  V30 14 C 9.527318 8.049924 -8.031388 0
M  V30 15 C 9.929626 8.366429 -6.717820 0
M  V30 16 C 11.230989 8.850923 -6.465513 0
M  V30 17 C 11.646790 9.247880 -5.055606 0
M  V30 18 F 10.806470 10.167214 -4.581245 0
M  V30 19 F 11.622375 8.180419 -4.258881 0
M  V30 20 F 12.876693 9.759947 -5.029892 0
M  V30 21 C 12.134656 8.969604 -7.540657 0
M  V30 22 C 11.745362 8.624975 -8.848367 0
M  V30 23 C 9.603087 6.448313 -10.771529 0
M  V30 24 N 8.487123 2.524163 -17.118834 0
M  V30 25 N 7.377533 1.771450 -17.435646 0
M  V30 26 C 7.227187 0.887069 -16.442442 0
M  V30 27 C 6.084657 -0.025012 -16.406120 0
M  V30 28 C 5.339260 -0.228039 -15.225045 0
M  V30 29 N 4.242488 -1.009069 -15.156974 0
M  V30 30 C 3.840761 -1.630150 -16.286777 0
M  V30 31 C 4.510253 -1.514475 -17.525703 0
M  V30 32 C 4.004242 -2.179034 -18.775089 0
M  V30 33 N 3.370692 -3.347618 -18.646860 0
M  V30 34 O 4.220712 -1.684729 -19.877224 0
M  V30 35 C 5.652602 -0.685741 -17.575829 0
M  V30 36 H 8.380355 0.821560 -13.447048 0
M  V30 37 H 7.751274 -0.627833 -14.246649 0
M  V30 38 H 9.470527 -0.222373 -14.371314 0
M  V30 39 H 10.476310 4.975811 -14.384938 0
M  V30 40 H 9.367316 4.778830 -15.713233 0
M  V30 41 H 7.684376 4.990625 -14.187356 0
M  V30 42 H 8.022890 3.371231 -13.735525 0
M  V30 43 H 7.991152 4.539471 -11.688687 0
M  V30 44 H 9.657905 4.161525 -11.999816 0
M  V30 45 H 7.739498 6.997266 -13.469039 0
M  V30 46 H 7.195663 6.794938 -11.847059 0
M  V30 47 H 9.105354 8.973248 -12.889074 0
M  V30 48 H 7.480476 9.179999 -12.259196 0
M  V30 49 H 10.809749 8.180356 -11.203451 0
M  V30 50 H 8.514778 7.717887 -8.217295 0
M  V30 51 H 9.227364 8.253910 -5.906371 0
M  V30 52 H 13.138640 9.333365 -7.376224 0
M  V30 53 H 12.451158 8.743795 -9.658179 0
M  V30 54 H 8.799682 6.168675 -10.087109 0
M  V30 55 H 10.454507 5.814399 -10.525053 0
M  V30 56 H 5.606780 0.278208 -14.309183 0
M  V30 57 H 2.946820 -2.226617 -16.190117 0
M  V30 58 H 3.191004 -3.755842 -17.719801 0
M  V30 59 H 3.042420 -3.823674 -19.472431 0
M  V30 60 H 6.186545 -0.544156 -18.504927 0
M  V30 END ATOM
M  V30 BEGIN BOND
M  V30 1 1 2 1
M  V30 2 1 3 2
M  V30 3 1 4 3
M  V30 4 1 5 4
M  V30 5 1 6 5
M  V30 6 1 7 6
M  V30 7 1 8 7
M  V30 8 1 9 8
M  V30 9 1 10 9
M  V30 10 1 11 10
M  V30 11 1 12 11
M  V30 12 1 13 12
M  V30 13 1 14 13
M  V30 14 2 15 14
M  V30 15 1 16 15
M  V30 16 1 17 16
M  V30 17 1 18 17
M  V30 18 1 19 17
M  V30 19 1 20 17
M  V30 20 2 21 16
M  V30 21 2 22 13
M  V30 22 1 22 21
M  V30 23 1 23 8
M  V30 24 1 23 12
M  V30 25 2 24 3
M  V30 26 1 25 24
M  V30 27 1 26 2
M  V30 28 2 26 25
M  V30 29 1 27 26
M  V30 30 2 28 27
M  V30 31 1 29 28
M  V30 32 2 30 29
M  V30 33 1 31 30
M  V30 34 1 32 31
M  V30 35 1 33 32
M  V30 36 2 34 32
M  V30 37 1 35 27
M  V30 38 2 35 31
M  V30 39 1 36 1
M  V30 40 1 37 1
M  V30 41 1 38 1
M  V30 42 1 39 5
M  V30 43 1 40 5
M  V30 44 1 41 6
M  V30 45 1 42 6
M  V30 46 1 43 7
M  V30 47 1 44 7
M  V30 48 1 45 9
M  V30 49 1 46 9
M  V30 50 1 47 10
M  V30 51 1 48 10
M  V30 52 1 12 49 CFG=3
M  V30 53 1 50 14
M  V30 54 1 51 15
M  V30 55 1 52 21
M  V30 56 1 53 22
M  V30 57 1 54 23
M  V30 58 1 55 23
M  V30 59 1 56 28
M  V30 60 1 57 30
M  V30 61 1 58 33
M  V30 62 1 59 33
M  V30 63 1 60 35
M  V30 END BOND
M  V30 END CTAB
M  END
>  <b_m_subgroup_collapsed>  (1142) 
0

>  <r_i_docking_score>  (1142) 
-7.4449627556064302

>  <s_m_subgroup_title>  (1142) 
glide-dock_SP_D22_pv

>  <s_m_subgroupid>  (1142) 
glide-dock_SP_D22_pv

>  <Molecule ChEMBL ID>  (1142) 
CHEMBL3765422

>  <Standard Type>  (1142) 
Ki

>  <Standard Value>  (1142) 
15848.93

>  <label>  (1142) 
0

$$$$
CHEMBL88289
     RDKit          3D

  0  0  0  0  0  0  0  0  0  0999 V3000
M  V30 BEGIN CTAB
M  V30 COUNTS 46 49 0 0 1
M  V30 BEGIN ATOM
M  V30 1 F 12.707336 6.559304 -15.550513 0
M  V30 2 C 12.295475 5.298070 -15.412414 0
M  V30 3 F 13.286083 4.579778 -14.889659 0
M  V30 4 F 12.014616 4.810096 -16.624170 0
M  V30 5 C 11.096620 5.230587 -14.517927 0
M  V30 6 N 11.044996 5.772402 -13.300550 0
M  V30 7 C 9.760989 5.463948 -12.866850 0
M  V30 8 C 9.082305 5.764033 -11.650316 0
M  V30 9 N 9.682435 6.436619 -10.562643 0
M  V30 10 C 9.539305 5.862036 -9.228104 0
M  V30 11 C 9.393038 6.984416 -8.195344 0
M  V30 12 N 10.540317 7.924817 -8.276743 0 CHG=1
M  V30 13 C 10.497885 8.971545 -7.223833 0
M  V30 14 C 11.033998 8.589397 -5.845434 0
M  V30 15 C 11.286963 9.635519 -4.930429 0
M  V30 16 C 11.800657 9.361811 -3.648270 0
M  V30 17 C 12.054916 8.033750 -3.259914 0
M  V30 18 C 11.778101 6.981504 -4.153599 0
M  V30 19 C 11.285858 7.254984 -5.444870 0
M  V30 20 C 10.645148 8.516742 -9.643251 0
M  V30 21 C 10.717767 7.445915 -10.750319 0
M  V30 22 C 7.729400 5.365505 -11.522427 0
M  V30 23 C 7.069273 4.618865 -12.515591 0
M  V30 24 C 7.748534 4.266577 -13.691136 0
M  V30 25 C 9.068648 4.708602 -13.864304 0
M  V30 26 N 9.982222 4.578011 -14.893720 0
M  V30 27 H 10.424464 5.265296 -9.008989 0
M  V30 28 H 8.690561 5.183017 -9.152852 0
M  V30 29 H 9.272394 6.560972 -7.199356 0
M  V30 30 H 8.483992 7.543339 -8.396981 0
M  V30 31 H 9.486127 9.366088 -7.127200 0
M  V30 32 H 11.122129 9.802605 -7.550468 0
M  V30 33 H 11.096474 10.661115 -5.212780 0
M  V30 34 H 11.998899 10.172066 -2.961166 0
M  V30 35 H 12.446168 7.823761 -2.275024 0
M  V30 36 H 11.963997 5.960022 -3.855320 0
M  V30 37 H 11.124725 6.419236 -6.105986 0
M  V30 38 H 9.775476 9.151794 -9.819216 0
M  V30 39 H 11.522409 9.161225 -9.711926 0
M  V30 40 H 11.698489 6.972859 -10.740357 0
M  V30 41 H 10.603120 7.925399 -11.723382 0
M  V30 42 H 7.166628 5.650130 -10.647097 0
M  V30 43 H 6.040814 4.324321 -12.367244 0
M  V30 44 H 7.252828 3.685180 -14.453899 0
M  V30 45 H 9.872808 4.102432 -15.777120 0
M  V30 46 H 11.381936 7.388292 -8.132380 0
M  V30 END ATOM
M  V30 BEGIN BOND
M  V30 1 1 2 1
M  V30 2 1 3 2
M  V30 3 1 4 2
M  V30 4 1 5 2
M  V30 5 2 6 5
M  V30 6 1 7 6
M  V30 7 2 8 7
M  V30 8 1 9 8
M  V30 9 1 10 9
M  V30 10 1 11 10
M  V30 11 1 12 11
M  V30 12 1 13 12
M  V30 13 1 14 13
M  V30 14 2 15 14
M  V30 15 1 16 15
M  V30 16 2 17 16
M  V30 17 1 18 17
M  V30 18 1 19 14
M  V30 19 2 19 18
M  V30 20 1 20 12
M  V30 21 1 21 9
M  V30 22 1 21 20
M  V30 23 1 22 8
M  V30 24 2 23 22
M  V30 25 1 24 23
M  V30 26 1 25 7
M  V30 27 2 25 24
M  V30 28 1 26 5
M  V30 29 1 26 25
M  V30 30 1 27 10
M  V30 31 1 28 10
M  V30 32 1 29 11
M  V30 33 1 30 11
M  V30 34 1 31 13
M  V30 35 1 32 13
M  V30 36 1 33 15
M  V30 37 1 34 16
M  V30 38 1 35 17
M  V30 39 1 36 18
M  V30 40 1 37 19
M  V30 41 1 38 20
M  V30 42 1 39 20
M  V30 43 1 40 21
M  V30 44 1 41 21
M  V30 45 1 42 22
M  V30 46 1 43 23
M  V30 47 1 44 24
M  V30 48 1 45 26
M  V30 49 1 46 12
M  V30 END BOND
M  V30 END CTAB
M  END
>  <b_m_subgroup_collapsed>  (1143) 
0

>  <r_i_docking_score>  (1143) 
-7.4425558856030696

>  <s_m_subgroup_title>  (1143) 
glide-dock_SP_D22_pv

>  <s_m_subgroupid>  (1143) 
glide-dock_SP_D22_pv

>  <Molecule ChEMBL ID>  (1143) 
CHEMBL88289

>  <Standard Type>  (1143) 
Ki

>  <Standard Value>  (1143) 
4.1

>  <label>  (1143) 
1

$$$$
CHEMBL70866
     RDKit          3D

  0  0  0  0  0  0  0  0  0  0999 V3000
M  V30 BEGIN CTAB
M  V30 COUNTS 61 63 0 0 1
M  V30 BEGIN ATOM
M  V30 1 C 3.002193 -0.895718 -14.164118 0
M  V30 2 O 4.045093 -0.233242 -13.466805 0
M  V30 3 C 5.117806 0.203475 -14.206737 0
M  V30 4 C 5.542245 -0.366181 -15.425006 0
M  V30 5 C 6.625925 0.195656 -16.122499 0
M  V30 6 C 7.291918 1.355119 -15.641091 0
M  V30 7 O 8.301946 1.976771 -16.348587 0
M  V30 8 C 8.784787 1.357020 -17.534351 0
M  V30 9 C 6.878855 1.916788 -14.399800 0
M  V30 10 N 7.444262 3.087470 -13.847254 0
M  V30 11 C 8.861550 3.398228 -13.992954 0
M  V30 12 C 9.402993 4.083861 -12.722356 0
M  V30 13 N 8.524583 5.203094 -12.282398 0 CHG=1
M  V30 14 C 9.072601 5.948732 -11.127152 0
M  V30 15 C 10.060511 7.044518 -11.580154 0
M  V30 16 C 10.787683 7.700734 -10.399336 0
M  V30 17 C 9.870817 8.567872 -9.515197 0
M  V30 18 N 10.388117 8.665762 -8.163620 0
M  V30 19 C 10.258743 7.691766 -7.252136 0
M  V30 20 O 9.758333 6.593158 -7.496437 0
M  V30 21 C 10.838747 7.992695 -5.904872 0
M  V30 22 C 10.896380 9.318853 -5.413839 0
M  V30 23 C 11.402379 9.568871 -4.126164 0
M  V30 24 C 11.856781 8.503039 -3.331162 0
M  V30 25 Br 12.486693 8.840184 -1.582019 0
M  V30 26 C 11.806759 7.183440 -3.808891 0
M  V30 27 C 11.287865 6.931558 -5.089874 0
M  V30 28 C 7.122208 4.762647 -12.071871 0
M  V30 29 C 6.564565 4.151408 -13.365605 0
M  V30 30 C 5.816575 1.307395 -13.693576 0
M  V30 31 H 2.214227 -1.141184 -13.450950 0
M  V30 32 H 2.572742 -0.256653 -14.938671 0
M  V30 33 H 3.331259 -1.827863 -14.618265 0
M  V30 34 H 5.054945 -1.235080 -15.840914 0
M  V30 35 H 6.908154 -0.274410 -17.050915 0
M  V30 36 H 9.613874 1.941411 -17.935104 0
M  V30 37 H 9.158937 0.350498 -17.336014 0
M  V30 38 H 8.012213 1.312736 -18.305391 0
M  V30 39 H 8.992082 4.048242 -14.858471 0
M  V30 40 H 9.436189 2.489255 -14.179235 0
M  V30 41 H 10.415799 4.441763 -12.908732 0
M  V30 42 H 9.478386 3.351618 -11.915234 0
M  V30 43 H 9.541883 5.254786 -10.424951 0
M  V30 44 H 8.251396 6.413209 -10.580975 0
M  V30 45 H 9.538684 7.803543 -12.165851 0
M  V30 46 H 10.814173 6.612873 -12.240489 0
M  V30 47 H 11.612067 8.315125 -10.763000 0
M  V30 48 H 11.249396 6.906899 -9.811137 0
M  V30 49 H 8.860806 8.169511 -9.463214 0
M  V30 50 H 9.771795 9.573256 -9.916749 0
M  V30 51 H 10.854033 9.519239 -7.897301 0
M  V30 52 H 10.533446 10.149625 -6.000317 0
M  V30 53 H 11.420812 10.572696 -3.732715 0
M  V30 54 H 12.143190 6.364529 -3.189830 0
M  V30 55 H 11.239629 5.912677 -5.444308 0
M  V30 56 H 7.080003 4.036021 -11.258557 0
M  V30 57 H 6.499763 5.609126 -11.776076 0
M  V30 58 H 6.509580 4.922122 -14.135190 0
M  V30 59 H 5.539378 3.817803 -13.208341 0
M  V30 60 H 5.494778 1.709935 -12.744472 0
M  V30 61 H 8.481933 5.860459 -13.047126 0
M  V30 END ATOM
M  V30 BEGIN BOND
M  V30 1 1 2 1
M  V30 2 1 3 2
M  V30 3 1 4 3
M  V30 4 2 5 4
M  V30 5 1 6 5
M  V30 6 1 7 6
M  V30 7 1 8 7
M  V30 8 2 9 6
M  V30 9 1 10 9
M  V30 10 1 11 10
M  V30 11 1 12 11
M  V30 12 1 13 12
M  V30 13 1 14 13
M  V30 14 1 15 14
M  V30 15 1 16 15
M  V30 16 1 17 16
M  V30 17 1 18 17
M  V30 18 1 19 18
M  V30 19 2 20 19
M  V30 20 1 21 19
M  V30 21 1 22 21
M  V30 22 2 23 22
M  V30 23 1 24 23
M  V30 24 1 25 24
M  V30 25 2 26 24
M  V30 26 2 27 21
M  V30 27 1 27 26
M  V30 28 1 28 13
M  V30 29 1 29 10
M  V30 30 1 29 28
M  V30 31 2 30 3
M  V30 32 1 30 9
M  V30 33 1 31 1
M  V30 34 1 32 1
M  V30 35 1 33 1
M  V30 36 1 34 4
M  V30 37 1 35 5
M  V30 38 1 36 8
M  V30 39 1 37 8
M  V30 40 1 38 8
M  V30 41 1 39 11
M  V30 42 1 40 11
M  V30 43 1 41 12
M  V30 44 1 42 12
M  V30 45 1 43 14
M  V30 46 1 44 14
M  V30 47 1 45 15
M  V30 48 1 46 15
M  V30 49 1 47 16
M  V30 50 1 48 16
M  V30 51 1 49 17
M  V30 52 1 50 17
M  V30 53 1 51 18
M  V30 54 1 52 22
M  V30 55 1 53 23
M  V30 56 1 54 26
M  V30 57 1 55 27
M  V30 58 1 56 28
M  V30 59 1 57 28
M  V30 60 1 58 29
M  V30 61 1 59 29
M  V30 62 1 60 30
M  V30 63 1 61 13
M  V30 END BOND
M  V30 END CTAB
M  END
>  <b_m_subgroup_collapsed>  (1144) 
0

>  <r_i_docking_score>  (1144) 
-7.4425251849611902

>  <s_m_subgroup_title>  (1144) 
glide-dock_SP_D22_pv

>  <s_m_subgroupid>  (1144) 
glide-dock_SP_D22_pv

>  <Molecule ChEMBL ID>  (1144) 
CHEMBL70866

>  <Standard Type>  (1144) 
Ki

>  <Standard Value>  (1144) 
100.0

>  <label>  (1144) 
1

$$$$
CHEMBL3676920
     RDKit          3D

  0  0  0  0  0  0  0  0  0  0999 V3000
M  V30 BEGIN CTAB
M  V30 COUNTS 70 74 0 0 1
M  V30 BEGIN ATOM
M  V30 1 C 3.382402 -1.827785 -17.370295 0
M  V30 2 S 5.154639 -2.212096 -17.117289 0
M  V30 3 O 5.863348 -2.008621 -18.391432 0
M  V30 4 O 5.286241 -3.476336 -16.380861 0
M  V30 5 C 5.692390 -0.935206 -16.010853 0
M  V30 6 C 5.375469 -0.813847 -14.684943 0
M  V30 7 C 5.989981 0.322456 -14.075392 0
M  V30 8 C 6.746081 1.056894 -14.955874 0
M  V30 9 C 7.528686 2.294909 -14.793322 0
M  V30 10 O 8.483088 2.552360 -15.527736 0
M  V30 11 N 7.086043 3.137528 -13.847255 0
M  V30 12 C 7.624996 4.469187 -13.597288 0 CFG=1
M  V30 13 C 6.550323 5.371904 -12.972567 0
M  V30 14 C 7.081132 6.800127 -12.720856 0
M  V30 15 C 8.371179 6.789685 -11.886301 0 CFG=2
M  V30 16 C 8.896952 8.235860 -11.714539 0
M  V30 17 C 10.121890 8.337376 -10.801000 0
M  V30 18 N 9.882419 7.646990 -9.519680 0 CFG=2 CHG=1
M  V30 19 C 9.038622 8.432182 -8.585070 0
M  V30 20 C 8.745329 7.633421 -7.305990 0
M  V30 21 C 10.014206 7.064914 -6.649753 0 CFG=2
M  V30 22 C 10.818179 8.090496 -5.902498 0
M  V30 23 C 11.063020 9.418003 -6.192647 0
M  V30 24 O 11.680854 10.066445 -5.170112 0
M  V30 25 C 11.893710 9.122561 -4.197324 0
M  V30 26 C 12.415148 9.337104 -2.923566 0
M  V30 27 C 12.533405 8.247053 -2.047031 0
M  V30 28 C 12.203097 6.951378 -2.494812 0
M  V30 29 C 11.684327 6.759313 -3.789557 0
M  V30 30 C 11.463918 7.858434 -4.647798 0
M  V30 31 C 10.849566 6.301121 -7.677216 0
M  V30 32 C 11.141789 7.171864 -8.905099 0
M  V30 33 C 9.424058 5.816874 -12.479132 0
M  V30 34 C 8.855503 4.407562 -12.684065 0
M  V30 35 S 6.757792 0.332944 -16.545437 0
M  V30 36 H 2.940537 -2.596777 -18.002333 0
M  V30 37 H 2.886623 -1.838677 -16.400984 0
M  V30 38 H 3.275879 -0.849456 -17.837299 0
M  V30 39 H 4.741885 -1.499627 -14.146742 0
M  V30 40 H 5.848699 0.561943 -13.031593 0
M  V30 41 H 6.284102 2.857097 -13.304058 0
M  V30 42 H 7.926947 4.911077 -14.549037 0
M  V30 43 H 5.659496 5.391378 -13.601123 0
M  V30 44 H 6.225022 4.947610 -12.021257 0
M  V30 45 H 7.289667 7.371230 -13.621014 0
M  V30 46 H 6.289602 7.377020 -12.246990 0
M  V30 47 H 8.086458 6.395883 -10.910517 0
M  V30 48 H 9.155599 8.665696 -12.678052 0
M  V30 49 H 8.095192 8.872416 -11.336632 0
M  V30 50 H 10.973508 7.896467 -11.321758 0
M  V30 51 H 10.400166 9.371698 -10.610730 0
M  V30 52 H 9.522980 9.373725 -8.375542 0
M  V30 53 H 8.102693 8.726503 -9.050990 0
M  V30 54 H 8.176918 8.236929 -6.598405 0
M  V30 55 H 8.091182 6.797599 -7.561821 0
M  V30 56 H 9.669019 6.334760 -5.917984 0
M  V30 57 H 10.827596 10.076221 -7.007693 0
M  V30 58 H 12.646896 10.343195 -2.646659 0
M  V30 59 H 12.910248 8.402523 -1.046624 0
M  V30 60 H 12.316934 6.097547 -1.845281 0
M  V30 61 H 11.377427 5.772957 -4.103550 0
M  V30 62 H 11.768229 5.941440 -7.214509 0
M  V30 63 H 10.304709 5.411008 -7.997737 0
M  V30 64 H 11.683393 6.576890 -9.641074 0
M  V30 65 H 11.777986 8.019466 -8.645370 0
M  V30 66 H 9.794175 6.173030 -13.440701 0
M  V30 67 H 10.292626 5.750283 -11.826828 0
M  V30 68 H 8.589035 3.971062 -11.721243 0
M  V30 69 H 9.620287 3.763726 -13.119124 0
M  V30 70 H 9.347808 6.820937 -9.748659 0
M  V30 END ATOM
M  V30 BEGIN BOND
M  V30 1 1 2 1
M  V30 2 2 3 2
M  V30 3 2 4 2
M  V30 4 1 5 2
M  V30 5 2 6 5
M  V30 6 1 7 6
M  V30 7 2 8 7
M  V30 8 1 9 8
M  V30 9 2 10 9
M  V30 10 1 11 9
M  V30 11 1 12 11
M  V30 12 1 13 12
M  V30 13 1 14 13
M  V30 14 1 15 14
M  V30 15 1 16 15
M  V30 16 1 17 16
M  V30 17 1 18 17
M  V30 18 1 19 18
M  V30 19 1 20 19
M  V30 20 1 21 20
M  V30 21 1 22 21
M  V30 22 2 23 22
M  V30 23 1 24 23
M  V30 24 1 25 24
M  V30 25 2 26 25
M  V30 26 1 27 26
M  V30 27 2 28 27
M  V30 28 1 29 28
M  V30 29 1 30 22
M  V30 30 1 30 25
M  V30 31 2 30 29
M  V30 32 1 31 21
M  V30 33 1 32 18
M  V30 34 1 32 31
M  V30 35 1 33 15
M  V30 36 1 34 12
M  V30 37 1 34 33
M  V30 38 1 35 5
M  V30 39 1 35 8
M  V30 40 1 36 1
M  V30 41 1 37 1
M  V30 42 1 38 1
M  V30 43 1 39 6
M  V30 44 1 40 7
M  V30 45 1 41 11
M  V30 46 1 12 42 CFG=3
M  V30 47 1 43 13
M  V30 48 1 44 13
M  V30 49 1 45 14
M  V30 50 1 46 14
M  V30 51 1 15 47 CFG=1
M  V30 52 1 48 16
M  V30 53 1 49 16
M  V30 54 1 50 17
M  V30 55 1 51 17
M  V30 56 1 52 19
M  V30 57 1 53 19
M  V30 58 1 54 20
M  V30 59 1 55 20
M  V30 60 1 21 56 CFG=1
M  V30 61 1 57 23
M  V30 62 1 58 26
M  V30 63 1 59 27
M  V30 64 1 60 28
M  V30 65 1 61 29
M  V30 66 1 62 31
M  V30 67 1 63 31
M  V30 68 1 64 32
M  V30 69 1 65 32
M  V30 70 1 66 33
M  V30 71 1 67 33
M  V30 72 1 68 34
M  V30 73 1 69 34
M  V30 74 1 18 70 CFG=3
M  V30 END BOND
M  V30 END CTAB
M  END
>  <b_m_subgroup_collapsed>  (1145) 
0

>  <r_i_docking_score>  (1145) 
-7.4379736162123802

>  <s_m_subgroup_title>  (1145) 
glide-dock_SP_D22_pv

>  <s_m_subgroupid>  (1145) 
glide-dock_SP_D22_pv

>  <Molecule ChEMBL ID>  (1145) 
CHEMBL3676920

>  <Standard Type>  (1145) 
Ki

>  <Standard Value>  (1145) 
60.84

>  <label>  (1145) 
1

$$$$
CHEMBL4459784
     RDKit          3D

  0  0  0  0  0  0  0  0  0  0999 V3000
M  V30 BEGIN CTAB
M  V30 COUNTS 73 77 0 0 1
M  V30 BEGIN ATOM
M  V30 1 C 5.465361 1.104215 -20.147675 0
M  V30 2 O 6.644687 1.135889 -19.354925 0
M  V30 3 C 7.796676 0.567427 -19.863623 0
M  V30 4 C 7.887162 0.071200 -21.192892 0
M  V30 5 C 9.073396 -0.520224 -21.662634 0
M  V30 6 F 9.140290 -0.990136 -22.930355 0
M  V30 7 C 10.189473 -0.626869 -20.817293 0
M  V30 8 C 10.116290 -0.144215 -19.498280 0
M  V30 9 C 8.932858 0.457265 -19.014488 0
M  V30 10 N 8.916395 0.947459 -17.698017 0
M  V30 11 C 9.281188 0.081469 -16.582808 0
M  V30 12 C 10.291355 0.792140 -15.659719 0
M  V30 13 C 9.814928 2.203735 -15.217913 0
M  V30 14 C 8.604165 2.083420 -14.263609 0
M  V30 15 C 8.175072 3.434217 -13.668621 0
M  V30 16 N 9.284127 4.081671 -12.921201 0 CHG=1
M  V30 17 C 8.817241 5.353638 -12.300474 0
M  V30 18 C 9.825545 5.987431 -11.328766 0
M  V30 19 C 9.278130 7.268084 -10.691757 0
M  V30 20 S 10.588905 8.249733 -9.909431 0
M  V30 21 C 10.533193 7.664046 -8.239945 0
M  V30 22 N 9.814136 6.631780 -7.801386 0
M  V30 23 N 10.045054 6.578167 -6.446154 0
M  V30 24 C 10.886749 7.580563 -6.165609 0
M  V30 25 C 11.375326 7.853503 -4.809874 0
M  V30 26 C 11.686378 6.777382 -3.954330 0
M  V30 27 C 12.175830 6.997984 -2.653734 0
M  V30 28 C 12.384554 8.315562 -2.203185 0
M  V30 29 C 12.070654 9.398880 -3.042847 0
M  V30 30 C 11.556975 9.172907 -4.334092 0
M  V30 31 N 11.249064 8.262651 -7.269835 0
M  V30 32 C 12.168671 9.370522 -7.401403 0
M  V30 33 C 10.499762 4.234517 -13.773427 0
M  V30 34 C 10.936426 2.895726 -14.410040 0
M  V30 35 C 9.486449 3.012069 -16.505440 0
M  V30 36 C 8.468637 2.305123 -17.416445 0
M  V30 37 H 4.629061 1.483226 -19.562080 0
M  V30 38 H 5.568058 1.741233 -21.026676 0
M  V30 39 H 5.212804 0.090488 -20.458277 0
M  V30 40 H 7.056421 0.133611 -21.878519 0
M  V30 41 H 11.103613 -1.064387 -21.185280 0
M  V30 42 H 10.983918 -0.220856 -18.859991 0
M  V30 43 H 9.692802 -0.864987 -16.934874 0
M  V30 44 H 8.373539 -0.171751 -16.031919 0
M  V30 45 H 11.241277 0.880069 -16.189919 0
M  V30 46 H 10.493497 0.164255 -14.790585 0
M  V30 47 H 8.876301 1.405413 -13.451444 0
M  V30 48 H 7.748497 1.625286 -14.758349 0
M  V30 49 H 7.320480 3.287740 -13.007092 0
M  V30 50 H 7.822777 4.103572 -14.453033 0
M  V30 51 H 7.894669 5.156164 -11.750574 0
M  V30 52 H 8.558920 6.063767 -13.089265 0
M  V30 53 H 10.744654 6.242764 -11.855323 0
M  V30 54 H 10.085753 5.277303 -10.543137 0
M  V30 55 H 8.486384 7.037375 -9.983619 0
M  V30 56 H 8.828709 7.898935 -11.459025 0
M  V30 57 H 11.537018 5.773013 -4.304192 0
M  V30 58 H 12.395936 6.160039 -2.011203 0
M  V30 59 H 12.769308 8.495980 -1.210374 0
M  V30 60 H 12.203234 10.408957 -2.684898 0
M  V30 61 H 11.303561 10.020047 -4.951182 0
M  V30 62 H 12.672997 9.323558 -8.365061 0
M  V30 63 H 11.604492 10.296174 -7.314295 0
M  V30 64 H 12.932526 9.350486 -6.625267 0
M  V30 65 H 10.318126 4.985123 -14.544640 0
M  V30 66 H 11.334024 4.602240 -13.176319 0
M  V30 67 H 11.271392 2.222762 -13.619998 0
M  V30 68 H 11.808794 3.062374 -15.045588 0
M  V30 69 H 9.129849 4.015543 -16.281639 0
M  V30 70 H 10.406625 3.156877 -17.074316 0
M  V30 71 H 8.362609 2.870591 -18.344088 0
M  V30 72 H 7.483922 2.267375 -16.949749 0
M  V30 73 H 9.529395 3.454163 -12.166101 0
M  V30 END ATOM
M  V30 BEGIN BOND
M  V30 1 1 2 1
M  V30 2 1 3 2
M  V30 3 1 4 3
M  V30 4 2 5 4
M  V30 5 1 6 5
M  V30 6 1 7 5
M  V30 7 2 8 7
M  V30 8 2 9 3
M  V30 9 1 9 8
M  V30 10 1 10 9
M  V30 11 1 11 10
M  V30 12 1 12 11
M  V30 13 1 13 12
M  V30 14 1 14 13
M  V30 15 1 15 14
M  V30 16 1 16 15
M  V30 17 1 17 16
M  V30 18 1 18 17
M  V30 19 1 19 18
M  V30 20 1 20 19
M  V30 21 1 21 20
M  V30 22 2 22 21
M  V30 23 1 23 22
M  V30 24 2 24 23
M  V30 25 1 25 24
M  V30 26 2 26 25
M  V30 27 1 27 26
M  V30 28 2 28 27
M  V30 29 1 29 28
M  V30 30 1 30 25
M  V30 31 2 30 29
M  V30 32 1 31 21
M  V30 33 1 31 24
M  V30 34 1 32 31
M  V30 35 1 33 16
M  V30 36 1 34 13
M  V30 37 1 34 33
M  V30 38 1 35 13
M  V30 39 1 36 10
M  V30 40 1 36 35
M  V30 41 1 37 1
M  V30 42 1 38 1
M  V30 43 1 39 1
M  V30 44 1 40 4
M  V30 45 1 41 7
M  V30 46 1 42 8
M  V30 47 1 43 11
M  V30 48 1 44 11
M  V30 49 1 45 12
M  V30 50 1 46 12
M  V30 51 1 47 14
M  V30 52 1 48 14
M  V30 53 1 49 15
M  V30 54 1 50 15
M  V30 55 1 51 17
M  V30 56 1 52 17
M  V30 57 1 53 18
M  V30 58 1 54 18
M  V30 59 1 55 19
M  V30 60 1 56 19
M  V30 61 1 57 26
M  V30 62 1 58 27
M  V30 63 1 59 28
M  V30 64 1 60 29
M  V30 65 1 61 30
M  V30 66 1 62 32
M  V30 67 1 63 32
M  V30 68 1 64 32
M  V30 69 1 65 33
M  V30 70 1 66 33
M  V30 71 1 67 34
M  V30 72 1 68 34
M  V30 73 1 69 35
M  V30 74 1 70 35
M  V30 75 1 71 36
M  V30 76 1 72 36
M  V30 77 1 73 16
M  V30 END BOND
M  V30 END CTAB
M  END
>  <b_m_subgroup_collapsed>  (1146) 
0

>  <r_i_docking_score>  (1146) 
-7.4375511188338104

>  <s_m_subgroup_title>  (1146) 
glide-dock_SP_D22_pv

>  <s_m_subgroupid>  (1146) 
glide-dock_SP_D22_pv

>  <Molecule ChEMBL ID>  (1146) 
CHEMBL4459784

>  <Standard Type>  (1146) 
Ki

>  <Standard Value>  (1146) 
19634.0

>  <label>  (1146) 
0

$$$$
CHEMBL240024
     RDKit          3D

  0  0  0  0  0  0  0  0  0  0999 V3000
M  V30 BEGIN CTAB
M  V30 COUNTS 56 60 0 0 1
M  V30 BEGIN ATOM
M  V30 1 C 6.004780 -0.385102 -15.107569 0
M  V30 2 O 7.205300 0.188542 -15.605424 0
M  V30 3 C 7.656952 1.360514 -15.036049 0
M  V30 4 C 6.841872 2.210369 -14.246802 0
M  V30 5 C 7.379087 3.372878 -13.656315 0
M  V30 6 C 8.730563 3.698205 -13.859678 0
M  V30 7 C 9.535951 2.883435 -14.677900 0
M  V30 8 C 9.007731 1.707964 -15.268945 0
M  V30 9 O 9.748183 0.852016 -16.059027 0
M  V30 10 C 11.091559 1.201327 -16.355186 0
M  V30 11 C 9.316529 4.924581 -13.189748 0
M  V30 12 N 8.708688 5.265627 -11.887195 0 CHG=1
M  V30 13 C 9.455725 5.982684 -11.020978 0
M  V30 14 N 9.083061 6.275679 -9.760167 0
M  V30 15 C 9.870436 7.200948 -8.995231 0
M  V30 16 C 10.338968 8.381282 -9.616309 0
M  V30 17 C 10.992301 9.372322 -8.852585 0
M  V30 18 C 11.165265 9.168368 -7.467041 0
M  V30 19 C 10.780303 7.962829 -6.896969 0
M  V30 20 C 10.107474 6.961303 -7.624314 0
M  V30 21 C 11.041584 8.012513 -5.429298 0 CFG=1
M  V30 22 S 11.686020 6.527611 -4.705011 0
M  V30 23 C 12.582785 7.105450 -3.236305 0
M  V30 24 C 11.869941 8.252385 -2.513007 0
M  V30 25 S 11.686156 9.772842 -3.503119 0
M  V30 26 C 11.947172 9.205326 -5.198368 0 CFG=2
M  V30 27 C 11.663601 10.140189 -6.393456 0
M  V30 28 C 7.331999 4.822412 -11.559258 0
M  V30 29 C 6.539120 4.266191 -12.761936 0
M  V30 30 H 5.900124 -1.394248 -15.505983 0
M  V30 31 H 5.128136 0.180523 -15.420893 0
M  V30 32 H 6.016480 -0.463785 -14.019706 0
M  V30 33 H 5.804403 1.972722 -14.067863 0
M  V30 34 H 10.566360 3.168803 -14.824234 0
M  V30 35 H 11.543302 0.420614 -16.967123 0
M  V30 36 H 11.685895 1.292669 -15.447100 0
M  V30 37 H 11.144428 2.135772 -16.915295 0
M  V30 38 H 10.385535 4.766994 -13.042652 0
M  V30 39 H 9.208253 5.772423 -13.864661 0
M  V30 40 H 10.417486 6.344205 -11.367156 0
M  V30 41 H 10.146219 8.563111 -10.663367 0
M  V30 42 H 11.286022 10.291962 -9.332751 0
M  V30 43 H 9.746818 6.068181 -7.134741 0
M  V30 44 H 10.086019 8.216114 -4.994308 0
M  V30 45 H 12.689935 6.255500 -2.561506 0
M  V30 46 H 13.594295 7.380798 -3.525647 0
M  V30 47 H 10.886067 7.909513 -2.210164 0
M  V30 48 H 12.399429 8.508051 -1.594897 0
M  V30 49 H 13.004008 8.972242 -5.288752 0
M  V30 50 H 12.560573 10.698420 -6.646852 0
M  V30 51 H 10.872573 10.851799 -6.158072 0
M  V30 52 H 7.413909 4.046141 -10.799111 0
M  V30 53 H 6.780264 5.646674 -11.105644 0
M  V30 54 H 6.143212 5.087431 -13.360214 0
M  V30 55 H 5.676879 3.707428 -12.395376 0
M  V30 56 H 8.344748 5.737369 -9.326806 0
M  V30 END ATOM
M  V30 BEGIN BOND
M  V30 1 1 2 1
M  V30 2 1 3 2
M  V30 3 1 4 3
M  V30 4 2 5 4
M  V30 5 1 6 5
M  V30 6 2 7 6
M  V30 7 2 8 3
M  V30 8 1 8 7
M  V30 9 1 9 8
M  V30 10 1 10 9
M  V30 11 1 11 6
M  V30 12 1 12 11
M  V30 13 2 13 12 CFG=2
M  V30 14 1 14 13
M  V30 15 1 15 14
M  V30 16 1 16 15
M  V30 17 2 17 16
M  V30 18 1 18 17
M  V30 19 2 19 18
M  V30 20 2 20 15
M  V30 21 1 20 19
M  V30 22 1 21 19
M  V30 23 1 22 21
M  V30 24 1 23 22
M  V30 25 1 24 23
M  V30 26 1 25 24
M  V30 27 1 26 21
M  V30 28 1 26 25
M  V30 29 1 27 18
M  V30 30 1 27 26
M  V30 31 1 28 12
M  V30 32 1 29 5
M  V30 33 1 29 28
M  V30 34 1 30 1
M  V30 35 1 31 1
M  V30 36 1 32 1
M  V30 37 1 33 4
M  V30 38 1 34 7
M  V30 39 1 35 10
M  V30 40 1 36 10
M  V30 41 1 37 10
M  V30 42 1 38 11
M  V30 43 1 39 11
M  V30 44 1 40 13
M  V30 45 1 41 16
M  V30 46 1 42 17
M  V30 47 1 43 20
M  V30 48 1 21 44 CFG=1
M  V30 49 1 45 23
M  V30 50 1 46 23
M  V30 51 1 47 24
M  V30 52 1 48 24
M  V30 53 1 26 49 CFG=1
M  V30 54 1 50 27
M  V30 55 1 51 27
M  V30 56 1 52 28
M  V30 57 1 53 28
M  V30 58 1 54 29
M  V30 59 1 55 29
M  V30 60 1 56 14
M  V30 END BOND
M  V30 END CTAB
M  END
>  <b_m_subgroup_collapsed>  (1147) 
0

>  <r_i_docking_score>  (1147) 
-7.4359176260991102

>  <s_m_subgroup_title>  (1147) 
glide-dock_SP_D22_pv

>  <s_m_subgroupid>  (1147) 
glide-dock_SP_D22_pv

>  <Molecule ChEMBL ID>  (1147) 
CHEMBL240024

>  <Standard Type>  (1147) 
Ki

>  <Standard Value>  (1147) 
100000.0

>  <label>  (1147) 
0

$$$$
CHEMBL540538
     RDKit          3D

  0  0  0  0  0  0  0  0  0  0999 V3000
M  V30 BEGIN CTAB
M  V30 COUNTS 44 45 0 0 1
M  V30 BEGIN ATOM
M  V30 1 C 8.724889 8.494465 -12.148441 0
M  V30 2 C 8.372251 7.029635 -12.472222 0
M  V30 3 N 8.085998 6.172396 -11.287693 0 CHG=1
M  V30 4 C 7.425401 4.887934 -11.649818 0
M  V30 5 C 8.148345 4.094591 -12.758500 0
M  V30 6 C 9.212699 6.054888 -10.330403 0
M  V30 7 C 9.185998 7.161169 -9.237429 0
M  V30 8 C 10.541532 7.351743 -8.545311 0 CFG=2
M  V30 9 C 11.668088 7.854565 -9.477324 0
M  V30 10 O 10.886105 6.081803 -8.031435 0
M  V30 11 C 11.286100 6.247673 -6.739988 0
M  V30 12 C 11.115592 7.460885 -6.211464 0
M  V30 13 C 11.464376 7.856033 -4.833987 0
M  V30 14 C 11.686254 6.848764 -3.868762 0
M  V30 15 C 12.086552 7.182360 -2.565305 0
M  V30 16 C 12.265472 8.530540 -2.209932 0
M  V30 17 C 12.035108 9.539484 -3.161320 0
M  V30 18 C 11.645923 9.209657 -4.474053 0
M  V30 19 C 10.509237 8.220775 -7.287215 0
M  V30 20 O 10.085939 9.372169 -7.250665 0
M  V30 21 H 8.789588 9.101188 -13.046908 0
M  V30 22 H 7.974645 8.971548 -11.518060 0
M  V30 23 H 9.693743 8.572867 -11.658858 0
M  V30 24 H 9.181567 6.577512 -13.046720 0
M  V30 25 H 7.486825 7.033631 -13.107344 0
M  V30 26 H 7.302731 4.264269 -10.763701 0
M  V30 27 H 6.414752 5.121262 -11.987624 0
M  V30 28 H 7.573571 3.214313 -13.046529 0
M  V30 29 H 8.264565 4.665516 -13.678741 0
M  V30 30 H 9.136130 3.765288 -12.434258 0
M  V30 31 H 10.139499 6.058691 -10.899992 0
M  V30 32 H 9.186045 5.086273 -9.829098 0
M  V30 33 H 8.433573 6.897515 -8.493991 0
M  V30 34 H 8.875758 8.127416 -9.621673 0
M  V30 35 H 11.385789 8.783865 -9.973320 0
M  V30 36 H 12.587288 8.054848 -8.923682 0
M  V30 37 H 11.925902 7.128831 -10.246210 0
M  V30 38 H 11.734838 5.373098 -6.298436 0
M  V30 39 H 11.555006 5.805024 -4.111564 0
M  V30 40 H 12.256478 6.395593 -1.846262 0
M  V30 41 H 12.566659 8.795146 -1.206813 0
M  V30 42 H 12.153588 10.572408 -2.875483 0
M  V30 43 H 11.495619 10.001325 -5.193124 0
M  V30 44 H 7.374617 6.706115 -10.770730 0
M  V30 END ATOM
M  V30 BEGIN BOND
M  V30 1 1 2 1
M  V30 2 1 3 2
M  V30 3 1 4 3
M  V30 4 1 5 4
M  V30 5 1 6 3
M  V30 6 1 7 6
M  V30 7 1 8 7 CFG=3
M  V30 8 1 9 8
M  V30 9 1 10 8
M  V30 10 1 11 10
M  V30 11 2 12 11
M  V30 12 1 13 12
M  V30 13 2 14 13
M  V30 14 1 15 14
M  V30 15 2 16 15
M  V30 16 1 17 16
M  V30 17 1 18 13
M  V30 18 2 18 17
M  V30 19 1 19 8
M  V30 20 1 19 12
M  V30 21 2 20 19
M  V30 22 1 21 1
M  V30 23 1 22 1
M  V30 24 1 23 1
M  V30 25 1 24 2
M  V30 26 1 25 2
M  V30 27 1 26 4
M  V30 28 1 27 4
M  V30 29 1 28 5
M  V30 30 1 29 5
M  V30 31 1 30 5
M  V30 32 1 31 6
M  V30 33 1 32 6
M  V30 34 1 33 7
M  V30 35 1 34 7
M  V30 36 1 35 9
M  V30 37 1 36 9
M  V30 38 1 37 9
M  V30 39 1 38 11
M  V30 40 1 39 14
M  V30 41 1 40 15
M  V30 42 1 41 16
M  V30 43 1 42 17
M  V30 44 1 43 18
M  V30 45 1 44 3
M  V30 END BOND
M  V30 END CTAB
M  END
>  <b_m_subgroup_collapsed>  (1148) 
0

>  <r_i_docking_score>  (1148) 
-7.4348174734371497

>  <s_m_subgroup_title>  (1148) 
glide-dock_SP_D22_pv

>  <s_m_subgroupid>  (1148) 
glide-dock_SP_D22_pv

>  <Molecule ChEMBL ID>  (1148) 
CHEMBL540538

>  <Standard Type>  (1148) 
Ki

>  <Standard Value>  (1148) 
10000.0

>  <label>  (1148) 
0

$$$$
CHEMBL425208
     RDKit          3D

  0  0  0  0  0  0  0  0  0  0999 V3000
M  V30 BEGIN CTAB
M  V30 COUNTS 56 60 0 0 1
M  V30 BEGIN ATOM
M  V30 1 C 8.633242 0.500850 -15.637975 0
M  V30 2 C 8.877172 1.997164 -15.365914 0 CFG=2
M  V30 3 C 10.325925 2.211953 -14.871229 0
M  V30 4 C 10.586382 3.659489 -14.439163 0
M  V30 5 O 11.708864 4.146114 -14.542002 0
M  V30 6 N 9.561824 4.337178 -13.903108 0
M  V30 7 C 8.270168 3.793529 -13.683043 0
M  V30 8 C 7.390075 4.393078 -12.743651 0
M  V30 9 C 7.811406 5.555620 -11.845497 0
M  V30 10 C 9.089540 5.247073 -11.037429 0
M  V30 11 N 9.106508 5.884735 -9.727551 0
M  V30 12 C 10.244859 5.391250 -8.968371 0
M  V30 13 C 10.152183 5.864746 -7.513912 0
M  V30 14 N 10.062913 7.314787 -7.436696 0
M  V30 15 C 10.886198 8.139935 -6.683635 0
M  V30 16 N 11.268955 9.312430 -7.069130 0
M  V30 17 S 12.151073 10.137204 -5.971263 0
M  V30 18 O 11.250937 11.239141 -5.446862 0
M  V30 19 C 12.007975 8.865150 -4.756349 0
M  V30 20 C 12.485855 8.916594 -3.440686 0
M  V30 21 C 12.316084 7.769165 -2.646810 0
M  V30 22 C 11.686062 6.628919 -3.192345 0
M  V30 23 C 11.200051 6.626016 -4.523364 0
M  V30 24 C 11.337061 7.789304 -5.301611 0
M  V30 25 C 9.056005 7.866478 -8.338965 0
M  V30 26 C 9.240563 7.339900 -9.777515 0
M  V30 27 C 6.105591 3.840379 -12.555080 0
M  V30 28 C 5.705123 2.697067 -13.267916 0
M  V30 29 F 4.486054 2.154960 -13.044150 0
M  V30 30 C 6.581656 2.097655 -14.190367 0
M  V30 31 C 7.875136 2.631994 -14.396745 0
M  V30 32 H 7.682823 0.328992 -16.142653 0
M  V30 33 H 9.410272 0.091722 -16.284700 0
M  V30 34 H 8.638093 -0.078739 -14.712936 0
M  V30 35 H 8.763819 2.525815 -16.313902 0
M  V30 36 H 11.042975 1.924016 -15.641270 0
M  V30 37 H 10.522085 1.578318 -14.006703 0
M  V30 38 H 9.743066 5.267984 -13.561211 0
M  V30 39 H 6.993267 5.772245 -11.156461 0
M  V30 40 H 7.943676 6.457983 -12.443892 0
M  V30 41 H 9.988371 5.500017 -11.599213 0
M  V30 42 H 9.120053 4.172542 -10.865992 0
M  V30 43 H 11.156302 5.772543 -9.420620 0
M  V30 44 H 10.279652 4.300320 -8.991734 0
M  V30 45 H 11.046738 5.515059 -7.000136 0
M  V30 46 H 9.273670 5.425753 -7.046896 0
M  V30 47 H 12.976309 9.795155 -3.051212 0
M  V30 48 H 12.664430 7.761391 -1.624316 0
M  V30 49 H 11.544591 5.771789 -2.556023 0
M  V30 50 H 10.671059 5.772641 -4.899413 0
M  V30 51 H 8.086396 7.572670 -7.952083 0
M  V30 52 H 9.065763 8.957958 -8.343289 0
M  V30 53 H 10.207809 7.640535 -10.183185 0
M  V30 54 H 8.488790 7.770851 -10.433891 0
M  V30 55 H 5.427408 4.271078 -11.831188 0
M  V30 56 H 6.249139 1.215695 -14.716382 0
M  V30 END ATOM
M  V30 BEGIN BOND
M  V30 1 1 2 1
M  V30 2 1 3 2
M  V30 3 1 4 3
M  V30 4 2 5 4
M  V30 5 1 6 4
M  V30 6 1 7 6
M  V30 7 2 8 7
M  V30 8 1 9 8
M  V30 9 1 10 9
M  V30 10 1 11 10
M  V30 11 1 12 11
M  V30 12 1 13 12
M  V30 13 1 14 13
M  V30 14 1 15 14
M  V30 15 2 16 15
M  V30 16 1 17 16 CFG=3
M  V30 17 2 18 17
M  V30 18 1 19 17
M  V30 19 2 20 19
M  V30 20 1 21 20
M  V30 21 2 22 21
M  V30 22 1 23 22
M  V30 23 1 24 15
M  V30 24 1 24 19
M  V30 25 2 24 23
M  V30 26 1 25 14
M  V30 27 1 26 11
M  V30 28 1 26 25
M  V30 29 1 27 8
M  V30 30 2 28 27
M  V30 31 1 29 28
M  V30 32 1 30 28
M  V30 33 1 31 2
M  V30 34 1 31 7
M  V30 35 2 31 30
M  V30 36 1 32 1
M  V30 37 1 33 1
M  V30 38 1 34 1
M  V30 39 1 2 35 CFG=3
M  V30 40 1 36 3
M  V30 41 1 37 3
M  V30 42 1 38 6
M  V30 43 1 39 9
M  V30 44 1 40 9
M  V30 45 1 41 10
M  V30 46 1 42 10
M  V30 47 1 43 12
M  V30 48 1 44 12
M  V30 49 1 45 13
M  V30 50 1 46 13
M  V30 51 1 47 20
M  V30 52 1 48 21
M  V30 53 1 49 22
M  V30 54 1 50 23
M  V30 55 1 51 25
M  V30 56 1 52 25
M  V30 57 1 53 26
M  V30 58 1 54 26
M  V30 59 1 55 27
M  V30 60 1 56 30
M  V30 END BOND
M  V30 END CTAB
M  END
>  <b_m_subgroup_collapsed>  (1149) 
0

>  <r_i_docking_score>  (1149) 
-7.4329755538323798

>  <s_m_subgroup_title>  (1149) 
glide-dock_SP_D22_pv

>  <s_m_subgroupid>  (1149) 
glide-dock_SP_D22_pv

>  <Molecule ChEMBL ID>  (1149) 
CHEMBL425208

>  <Standard Type>  (1149) 
Ki

>  <Standard Value>  (1149) 
92.0

>  <label>  (1149) 
1

$$$$
CHEMBL391192
     RDKit          3D

  0  0  0  0  0  0  0  0  0  0999 V3000
M  V30 BEGIN CTAB
M  V30 COUNTS 51 54 0 0 1
M  V30 BEGIN ATOM
M  V30 1 C 11.286286 10.171905 -3.333799 0
M  V30 2 O 12.007317 10.050701 -4.543396 0
M  V30 3 C 11.532727 9.075882 -5.358904 0
M  V30 4 C 10.885391 9.438245 -6.549121 0
M  V30 5 C 10.331544 8.452818 -7.389361 0
M  V30 6 C 10.490981 7.091536 -7.053720 0
M  V30 7 C 11.166348 6.747237 -5.863374 0
M  V30 8 C 11.685287 7.729543 -4.998553 0
M  V30 9 O 12.391567 7.455672 -3.846655 0
M  V30 10 C 12.068902 6.270831 -3.150451 0
M  V30 11 C 9.967747 5.986850 -7.960769 0
M  V30 12 N 9.293891 6.428714 -9.194536 0 CHG=1
M  V30 13 C 8.686808 5.488194 -9.946177 0
M  V30 14 N 7.971675 5.772377 -11.046877 0
M  V30 15 C 7.947685 4.838725 -12.127259 0
M  V30 16 C 6.724853 4.540032 -12.773215 0
M  V30 17 C 6.706242 3.619453 -13.846245 0
M  V30 18 C 7.923911 3.037502 -14.247002 0
M  V30 19 C 9.123587 3.360606 -13.620577 0
M  V30 20 C 9.164370 4.256752 -12.540358 0
M  V30 21 C 10.283257 2.613487 -14.223136 0 CFG=2
M  V30 22 O 11.102596 3.454587 -15.005787 0
M  V30 23 C 9.596187 1.563362 -15.130380 0
M  V30 24 C 8.132241 2.022816 -15.337604 0
M  V30 25 C 9.564816 7.783034 -9.720364 0
M  V30 26 C 9.559999 8.858389 -8.630651 0
M  V30 27 H 11.706270 10.969004 -2.725559 0
M  V30 28 H 10.257584 10.433751 -3.569224 0
M  V30 29 H 11.285726 9.270978 -2.721818 0
M  V30 30 H 10.801741 10.487398 -6.781529 0
M  V30 31 H 11.309720 5.718914 -5.616673 0
M  V30 32 H 12.499611 6.307635 -2.149918 0
M  V30 33 H 10.987678 6.171242 -3.041220 0
M  V30 34 H 12.485412 5.402794 -3.654486 0
M  V30 35 H 9.263822 5.376711 -7.397221 0
M  V30 36 H 10.800130 5.340236 -8.237321 0
M  V30 37 H 8.774269 4.449379 -9.647139 0
M  V30 38 H 5.806032 5.002501 -12.441361 0
M  V30 39 H 5.777829 3.368393 -14.339164 0
M  V30 40 H 10.097061 4.490262 -12.048984 0
M  V30 41 H 10.885335 2.143770 -13.446916 0
M  V30 42 H 11.456569 4.133593 -14.453264 0
M  V30 43 H 10.126063 1.360965 -16.061909 0
M  V30 44 H 9.568573 0.623230 -14.578496 0
M  V30 45 H 7.422723 1.197008 -15.263943 0
M  V30 46 H 8.007731 2.510073 -16.304789 0
M  V30 47 H 10.549664 7.752492 -10.188109 0
M  V30 48 H 8.860822 8.061910 -10.501891 0
M  V30 49 H 8.534627 9.095663 -8.343005 0
M  V30 50 H 9.991491 9.769901 -9.044092 0
M  V30 51 H 7.256395 6.493647 -10.927996 0
M  V30 END ATOM
M  V30 BEGIN BOND
M  V30 1 1 2 1
M  V30 2 1 3 2
M  V30 3 1 4 3
M  V30 4 2 5 4
M  V30 5 1 6 5
M  V30 6 2 7 6
M  V30 7 2 8 3
M  V30 8 1 8 7
M  V30 9 1 9 8
M  V30 10 1 10 9
M  V30 11 1 11 6
M  V30 12 1 12 11
M  V30 13 2 13 12 CFG=2
M  V30 14 1 14 13
M  V30 15 1 15 14
M  V30 16 1 16 15
M  V30 17 2 17 16
M  V30 18 1 18 17
M  V30 19 2 19 18
M  V30 20 2 20 15
M  V30 21 1 20 19
M  V30 22 1 21 19
M  V30 23 1 22 21
M  V30 24 1 23 21
M  V30 25 1 24 18
M  V30 26 1 24 23
M  V30 27 1 25 12
M  V30 28 1 26 5
M  V30 29 1 26 25
M  V30 30 1 27 1
M  V30 31 1 28 1
M  V30 32 1 29 1
M  V30 33 1 30 4
M  V30 34 1 31 7
M  V30 35 1 32 10
M  V30 36 1 33 10
M  V30 37 1 34 10
M  V30 38 1 35 11
M  V30 39 1 36 11
M  V30 40 1 37 13
M  V30 41 1 38 16
M  V30 42 1 39 17
M  V30 43 1 40 20
M  V30 44 1 21 41 CFG=1
M  V30 45 1 42 22
M  V30 46 1 43 23
M  V30 47 1 44 23
M  V30 48 1 45 24
M  V30 49 1 46 24
M  V30 50 1 47 25
M  V30 51 1 48 25
M  V30 52 1 49 26
M  V30 53 1 50 26
M  V30 54 1 51 14
M  V30 END BOND
M  V30 END CTAB
M  END
>  <b_m_subgroup_collapsed>  (1150) 
0

>  <r_i_docking_score>  (1150) 
-7.4310027605730404

>  <s_m_subgroup_title>  (1150) 
glide-dock_SP_D22_pv

>  <s_m_subgroupid>  (1150) 
glide-dock_SP_D22_pv

>  <Molecule ChEMBL ID>  (1150) 
CHEMBL391192

>  <Standard Type>  (1150) 
Ki

>  <Standard Value>  (1150) 
300000.0

>  <label>  (1150) 
0

$$$$
CHEMBL575788
     RDKit          3D

  0  0  0  0  0  0  0  0  0  0999 V3000
M  V30 BEGIN CTAB
M  V30 COUNTS 60 65 0 0 1
M  V30 BEGIN ATOM
M  V30 1 O 11.754121 6.220922 -14.026652 0
M  V30 2 C 10.694914 5.753347 -13.619786 0
M  V30 3 C 10.015577 6.359986 -12.381326 0
M  V30 4 C 9.424511 5.234428 -11.509093 0 CFG=1
M  V30 5 C 8.891913 5.536896 -10.088941 0
M  V30 6 N 9.384437 6.722729 -9.335608 0 CFG=2 CHG=1
M  V30 7 C 10.849371 6.969074 -9.205322 0
M  V30 8 C 11.101686 8.361619 -8.578763 0
M  V30 9 C 10.362123 8.559134 -7.235419 0 CFG=2
M  V30 10 C 11.045321 7.873272 -6.083494 0
M  V30 11 N 11.278606 6.571950 -6.118925 0
M  V30 12 O 11.780831 6.172384 -4.858956 0
M  V30 13 C 11.929049 7.279732 -4.064731 0
M  V30 14 C 12.427889 7.413486 -2.769102 0
M  V30 15 C 12.486192 8.713597 -2.249080 0
M  V30 16 F 13.046870 8.929697 -1.046946 0
M  V30 17 C 12.019466 9.808692 -3.005264 0
M  V30 18 C 11.487240 9.647544 -4.299730 0
M  V30 19 C 11.471004 8.350929 -4.836590 0
M  V30 20 C 8.895241 8.095467 -7.344474 0
M  V30 21 C 8.812440 6.692089 -7.973365 0
M  V30 22 C 8.307729 4.568973 -12.339408 0
M  V30 23 C 8.836737 4.053297 -13.666794 0
M  V30 24 N 8.162702 3.040660 -14.245667 0
M  V30 25 C 8.619400 2.572385 -15.412965 0
M  V30 26 C 7.828095 1.508603 -16.070986 0
M  V30 27 C 7.980738 1.237458 -17.451811 0
M  V30 28 C 7.195564 0.254126 -18.082514 0
M  V30 29 C 6.249416 -0.475808 -17.339588 0
M  V30 30 C 6.096892 -0.228012 -15.963926 0
M  V30 31 C 6.881286 0.757386 -15.333302 0
M  V30 32 N 9.700614 3.039340 -16.050379 0
M  V30 33 C 10.384437 4.055237 -15.482229 0
M  V30 34 C 9.975947 4.626134 -14.261812 0
M  V30 35 H 10.760618 6.982980 -11.907270 0
M  V30 36 H 9.217970 7.041416 -12.667967 0
M  V30 37 H 10.193768 4.479799 -11.366411 0
M  V30 38 H 7.809452 5.669495 -10.155414 0
M  V30 39 H 9.037642 4.643721 -9.475710 0
M  V30 40 H 11.285766 6.175004 -8.604371 0
M  V30 41 H 11.406291 6.914370 -10.129244 0
M  V30 42 H 12.172136 8.536441 -8.450063 0
M  V30 43 H 10.754315 9.120228 -9.283239 0
M  V30 44 H 10.353055 9.628111 -7.021588 0
M  V30 45 H 12.780579 6.558605 -2.212705 0
M  V30 46 H 12.085615 10.799226 -2.587510 0
M  V30 47 H 11.138334 10.498553 -4.866263 0
M  V30 48 H 8.409925 8.112276 -6.368359 0
M  V30 49 H 8.342165 8.797143 -7.968826 0
M  V30 50 H 7.789230 6.326178 -8.002248 0
M  V30 51 H 9.297049 5.925261 -7.374636 0
M  V30 52 H 7.517468 5.291529 -12.551243 0
M  V30 53 H 7.835389 3.771699 -11.775299 0
M  V30 54 H 8.697083 1.790144 -18.042215 0
M  V30 55 H 7.319618 0.055858 -19.137695 0
M  V30 56 H 5.648396 -1.232479 -17.820780 0
M  V30 57 H 5.379415 -0.800115 -15.392865 0
M  V30 58 H 6.740781 0.931556 -14.275159 0
M  V30 59 H 11.251241 4.416457 -16.016241 0
M  V30 60 H 8.972989 7.519871 -9.805556 0
M  V30 END ATOM
M  V30 BEGIN BOND
M  V30 1 2 2 1
M  V30 2 1 3 2
M  V30 3 1 4 3
M  V30 4 1 5 4
M  V30 5 1 6 5
M  V30 6 1 7 6
M  V30 7 1 8 7
M  V30 8 1 9 8
M  V30 9 1 10 9
M  V30 10 2 11 10
M  V30 11 1 12 11
M  V30 12 1 13 12
M  V30 13 1 14 13
M  V30 14 2 15 14
M  V30 15 1 16 15
M  V30 16 1 17 15
M  V30 17 2 18 17
M  V30 18 1 19 10
M  V30 19 2 19 13
M  V30 20 1 19 18
M  V30 21 1 20 9
M  V30 22 1 21 6
M  V30 23 1 21 20
M  V30 24 1 22 4
M  V30 25 1 23 22
M  V30 26 1 24 23
M  V30 27 2 25 24
M  V30 28 1 26 25
M  V30 29 2 27 26
M  V30 30 1 28 27
M  V30 31 2 29 28
M  V30 32 1 30 29
M  V30 33 1 31 26
M  V30 34 2 31 30
M  V30 35 1 32 25
M  V30 36 2 33 32
M  V30 37 1 34 2
M  V30 38 2 34 23
M  V30 39 1 34 33
M  V30 40 1 35 3
M  V30 41 1 36 3
M  V30 42 1 4 37 CFG=1
M  V30 43 1 38 5
M  V30 44 1 39 5
M  V30 45 1 40 7
M  V30 46 1 41 7
M  V30 47 1 42 8
M  V30 48 1 43 8
M  V30 49 1 9 44 CFG=1
M  V30 50 1 45 14
M  V30 51 1 46 17
M  V30 52 1 47 18
M  V30 53 1 48 20
M  V30 54 1 49 20
M  V30 55 1 50 21
M  V30 56 1 51 21
M  V30 57 1 52 22
M  V30 58 1 53 22
M  V30 59 1 54 27
M  V30 60 1 55 28
M  V30 61 1 56 29
M  V30 62 1 57 30
M  V30 63 1 58 31
M  V30 64 1 59 33
M  V30 65 1 6 60 CFG=3
M  V30 END BOND
M  V30 END CTAB
M  END
>  <b_m_subgroup_collapsed>  (1151) 
0

>  <r_i_docking_score>  (1151) 
-7.4301675043837401

>  <s_m_subgroup_title>  (1151) 
glide-dock_SP_D22_pv

>  <s_m_subgroupid>  (1151) 
glide-dock_SP_D22_pv

>  <Molecule ChEMBL ID>  (1151) 
CHEMBL575788

>  <Standard Type>  (1151) 
Ki

>  <Standard Value>  (1151) 
33.88

>  <label>  (1151) 
1

$$$$
CHEMBL443006
     RDKit          3D

  0  0  0  0  0  0  0  0  0  0999 V3000
M  V30 BEGIN CTAB
M  V30 COUNTS 52 55 0 0 1
M  V30 BEGIN ATOM
M  V30 1 C 11.161902 7.452768 -4.706410 0
M  V30 2 S 11.698897 9.215582 -4.739219 0
M  V30 3 O 10.555424 10.132141 -4.612048 0
M  V30 4 O 12.885942 9.371311 -3.890151 0
M  V30 5 N 12.260353 9.375075 -6.359512 0
M  V30 6 C 11.611768 8.972380 -7.526584 0
M  V30 7 C 12.371022 8.572084 -8.644369 0
M  V30 8 C 11.728666 8.172482 -9.830532 0
M  V30 9 C 10.321739 8.169019 -9.898950 0
M  V30 10 C 9.612051 7.749533 -11.165023 0
M  V30 11 C 8.806934 6.456284 -10.978195 0
M  V30 12 N 8.102129 6.123479 -12.237213 0 CFG=2 CHG=1
M  V30 13 C 6.724567 5.581862 -12.063725 0
M  V30 14 C 6.822158 4.149990 -12.571412 0 CFG=1
M  V30 15 C 5.584148 3.405971 -13.060850 0
M  V30 16 O 5.945656 2.103491 -13.537636 0
M  V30 17 C 7.126940 1.952529 -14.246716 0
M  V30 18 C 7.395490 0.700376 -14.832094 0
M  V30 19 C 8.587311 0.487198 -15.550530 0
M  V30 20 C 9.526996 1.529211 -15.688499 0
M  V30 21 C 10.729947 1.317449 -16.474424 0
M  V30 22 N 11.684511 1.152005 -17.103392 0
M  V30 23 C 9.283856 2.779076 -15.087280 0
M  V30 24 C 8.091330 2.986591 -14.362514 0
M  V30 25 C 7.768989 4.319957 -13.728352 0 CFG=2
M  V30 26 C 8.859451 5.188046 -13.116262 0
M  V30 27 C 9.564288 8.572201 -8.784241 0
M  V30 28 C 10.205140 8.970752 -7.602898 0
M  V30 29 H 10.895566 7.148356 -3.697410 0
M  V30 30 H 11.982430 6.820198 -5.048347 0
M  V30 31 H 10.305126 7.303588 -5.364013 0
M  V30 32 H 13.245231 9.590896 -6.449857 0
M  V30 33 H 13.449973 8.578199 -8.602247 0
M  V30 34 H 12.322965 7.875182 -10.680927 0
M  V30 35 H 8.945963 8.561504 -11.463354 0
M  V30 36 H 10.336616 7.630308 -11.972750 0
M  V30 37 H 9.455558 5.640788 -10.655831 0
M  V30 38 H 8.087543 6.572629 -10.164925 0
M  V30 39 H 6.342259 5.645942 -11.047400 0
M  V30 40 H 6.045291 6.165617 -12.685684 0
M  V30 41 H 7.285314 3.561903 -11.781519 0
M  V30 42 H 4.885678 3.284888 -12.238340 0
M  V30 43 H 5.072841 3.963877 -13.846189 0
M  V30 44 H 6.681370 -0.105562 -14.733370 0
M  V30 45 H 8.768807 -0.476271 -16.002146 0
M  V30 46 H 10.004147 3.578014 -15.194757 0
M  V30 47 H 7.286114 4.910973 -14.500049 0
M  V30 48 H 9.445782 5.731358 -13.858812 0
M  V30 49 H 9.539445 4.556522 -12.539806 0
M  V30 50 H 8.486128 8.580821 -8.832543 0
M  V30 51 H 9.601250 9.278422 -6.764706 0
M  V30 52 H 7.972907 6.998754 -12.724324 0
M  V30 END ATOM
M  V30 BEGIN BOND
M  V30 1 1 2 1
M  V30 2 2 3 2
M  V30 3 2 4 2
M  V30 4 1 5 2
M  V30 5 1 6 5
M  V30 6 1 7 6
M  V30 7 2 8 7
M  V30 8 1 9 8
M  V30 9 1 10 9
M  V30 10 1 11 10
M  V30 11 1 12 11
M  V30 12 1 13 12
M  V30 13 1 14 13
M  V30 14 1 15 14
M  V30 15 1 16 15
M  V30 16 1 17 16
M  V30 17 1 18 17
M  V30 18 2 19 18
M  V30 19 1 20 19
M  V30 20 1 21 20
M  V30 21 3 22 21
M  V30 22 2 23 20
M  V30 23 2 24 17
M  V30 24 1 24 23
M  V30 25 1 25 14
M  V30 26 1 25 24
M  V30 27 1 26 12
M  V30 28 1 26 25
M  V30 29 2 27 9
M  V30 30 2 28 6
M  V30 31 1 28 27
M  V30 32 1 29 1
M  V30 33 1 30 1
M  V30 34 1 31 1
M  V30 35 1 32 5
M  V30 36 1 33 7
M  V30 37 1 34 8
M  V30 38 1 35 10
M  V30 39 1 36 10
M  V30 40 1 37 11
M  V30 41 1 38 11
M  V30 42 1 39 13
M  V30 43 1 40 13
M  V30 44 1 14 41 CFG=1
M  V30 45 1 42 15
M  V30 46 1 43 15
M  V30 47 1 44 18
M  V30 48 1 45 19
M  V30 49 1 46 23
M  V30 50 1 25 47 CFG=3
M  V30 51 1 48 26
M  V30 52 1 49 26
M  V30 53 1 50 27
M  V30 54 1 51 28
M  V30 55 1 12 52 CFG=3
M  V30 END BOND
M  V30 END CTAB
M  END
>  <b_m_subgroup_collapsed>  (1152) 
0

>  <r_i_docking_score>  (1152) 
-7.4289696504497398

>  <s_m_subgroup_title>  (1152) 
glide-dock_SP_D22_pv

>  <s_m_subgroupid>  (1152) 
glide-dock_SP_D22_pv

>  <Molecule ChEMBL ID>  (1152) 
CHEMBL443006

>  <Standard Type>  (1152) 
Ki

>  <Standard Value>  (1152) 
25.12

>  <label>  (1152) 
1

$$$$
CHEMBL3590081
     RDKit          3D

  0  0  0  0  0  0  0  0  0  0999 V3000
M  V30 BEGIN CTAB
M  V30 COUNTS 59 61 0 0 1
M  V30 BEGIN ATOM
M  V30 1 C 12.246002 3.550576 -16.096493 0
M  V30 2 C 10.878561 3.914838 -15.506711 0
M  V30 3 C 10.677002 3.322278 -14.098461 0
M  V30 4 N 9.350744 3.627402 -13.474642 0 CFG=1 CHG=1
M  V30 5 C 9.128057 5.079731 -13.198882 0
M  V30 6 C 10.152122 5.661706 -12.210712 0
M  V30 7 C 9.902919 7.118757 -11.804338 0
M  V30 8 C 8.912852 7.268274 -10.650688 0
M  V30 9 N 9.515329 7.043026 -9.341938 0
M  V30 10 C 10.220590 7.978919 -8.695539 0
M  V30 11 O 10.585577 9.043683 -9.200891 0
M  V30 12 N 10.528427 7.633197 -7.272478 0
M  V30 13 N 10.839754 8.629333 -6.593022 0
M  V30 14 C 11.286851 8.438438 -5.270943 0
M  V30 15 C 11.505123 9.599346 -4.506569 0
M  V30 16 C 12.023663 9.503205 -3.203320 0
M  V30 17 C 12.325992 8.245902 -2.656895 0
M  V30 18 F 12.861115 8.172956 -1.421141 0
M  V30 19 C 12.086006 7.074602 -3.400534 0
M  V30 20 C 11.563443 7.167166 -4.707326 0
M  V30 21 C 8.196384 2.982722 -14.166740 0
M  V30 22 C 6.817345 3.116463 -13.451336 0
M  V30 23 C 6.134505 1.811836 -13.771935 0
M  V30 24 C 4.825825 1.438289 -13.445379 0
M  V30 25 C 4.349442 0.172208 -13.850733 0
M  V30 26 C 5.193264 -0.701034 -14.572987 0
M  V30 27 C 6.523956 -0.327428 -14.854819 0
M  V30 28 C 6.980080 0.931774 -14.429872 0
M  V30 29 C 8.369596 1.484284 -14.545783 0
M  V30 30 H 12.365211 3.979989 -17.091269 0
M  V30 31 H 13.058394 3.928146 -15.473100 0
M  V30 32 H 12.365079 2.469184 -16.187916 0
M  V30 33 H 10.106394 3.557810 -16.187895 0
M  V30 34 H 10.798931 5.002540 -15.481517 0
M  V30 35 H 11.475083 3.664889 -13.447063 0
M  V30 36 H 10.828665 2.243074 -14.133854 0
M  V30 37 H 9.123073 5.650532 -14.128104 0
M  V30 38 H 8.140868 5.225789 -12.760193 0
M  V30 39 H 10.158649 5.041162 -11.313663 0
M  V30 40 H 11.146786 5.627025 -12.650050 0
M  V30 41 H 10.848071 7.595124 -11.541333 0
M  V30 42 H 9.521981 7.688321 -12.646852 0
M  V30 43 H 8.486044 8.273541 -10.677064 0
M  V30 44 H 8.086313 6.571742 -10.777765 0
M  V30 45 H 9.225783 6.220030 -8.831631 0
M  V30 46 H 11.289823 10.572304 -4.924639 0
M  V30 47 H 12.196714 10.400377 -2.628780 0
M  V30 48 H 12.311170 6.107935 -2.974476 0
M  V30 49 H 11.398581 6.258619 -5.268612 0
M  V30 50 H 8.084782 3.499212 -15.116615 0
M  V30 51 H 6.243240 3.950840 -13.857262 0
M  V30 52 H 6.885751 3.266377 -12.375692 0
M  V30 53 H 4.182277 2.121117 -12.908453 0
M  V30 54 H 3.331920 -0.118018 -13.630693 0
M  V30 55 H 4.825319 -1.666352 -14.896099 0
M  V30 56 H 7.178096 -1.004850 -15.377951 0
M  V30 57 H 9.002875 0.940287 -13.846623 0
M  V30 58 H 8.772882 1.349850 -15.551174 0
M  V30 59 H 9.385985 3.180134 -12.567277 0
M  V30 END ATOM
M  V30 BEGIN BOND
M  V30 1 1 2 1
M  V30 2 1 3 2
M  V30 3 1 4 3
M  V30 4 1 5 4
M  V30 5 1 6 5
M  V30 6 1 7 6
M  V30 7 1 8 7
M  V30 8 1 9 8
M  V30 9 1 10 9
M  V30 10 2 11 10
M  V30 11 1 12 10
M  V30 12 2 13 12
M  V30 13 1 14 13
M  V30 14 1 15 14
M  V30 15 2 16 15
M  V30 16 1 17 16
M  V30 17 1 18 17
M  V30 18 2 19 17
M  V30 19 2 20 14
M  V30 20 1 20 19
M  V30 21 1 21 4
M  V30 22 1 22 21
M  V30 23 1 23 22
M  V30 24 2 24 23
M  V30 25 1 25 24
M  V30 26 2 26 25
M  V30 27 1 27 26
M  V30 28 1 28 23
M  V30 29 2 28 27
M  V30 30 1 29 21
M  V30 31 1 29 28
M  V30 32 1 30 1
M  V30 33 1 31 1
M  V30 34 1 32 1
M  V30 35 1 33 2
M  V30 36 1 34 2
M  V30 37 1 35 3
M  V30 38 1 36 3
M  V30 39 1 37 5
M  V30 40 1 38 5
M  V30 41 1 39 6
M  V30 42 1 40 6
M  V30 43 1 41 7
M  V30 44 1 42 7
M  V30 45 1 43 8
M  V30 46 1 44 8
M  V30 47 1 45 9
M  V30 48 1 46 15
M  V30 49 1 47 16
M  V30 50 1 48 19
M  V30 51 1 49 20
M  V30 52 1 50 21
M  V30 53 1 51 22
M  V30 54 1 52 22
M  V30 55 1 53 24
M  V30 56 1 54 25
M  V30 57 1 55 26
M  V30 58 1 56 27
M  V30 59 1 57 29
M  V30 60 1 58 29
M  V30 61 1 4 59 CFG=1
M  V30 END BOND
M  V30 END CTAB
M  END
>  <b_m_subgroup_collapsed>  (1153) 
0

>  <r_i_docking_score>  (1153) 
-7.4277539391734502

>  <s_m_subgroup_title>  (1153) 
glide-dock_SP_D22_pv

>  <s_m_subgroupid>  (1153) 
glide-dock_SP_D22_pv

>  <Molecule ChEMBL ID>  (1153) 
CHEMBL3590081

>  <Standard Type>  (1153) 
Ki

>  <Standard Value>  (1153) 
23.0

>  <label>  (1153) 
1

$$$$
CHEMBL4534566
     RDKit          3D

  0  0  0  0  0  0  0  0  0  0999 V3000
M  V30 BEGIN CTAB
M  V30 COUNTS 67 70 0 0 1
M  V30 BEGIN ATOM
M  V30 1 C 6.545951 0.947921 -19.921236 0
M  V30 2 C 7.637296 0.917149 -18.838781 0
M  V30 3 C 7.080383 0.846125 -17.425940 0
M  V30 4 C 6.162716 -0.160582 -17.072962 0
M  V30 5 C 5.660535 -0.229387 -15.762633 0
M  V30 6 Cl 4.483114 -1.427371 -15.376221 0
M  V30 7 C 6.086624 0.693565 -14.783701 0
M  V30 8 O 5.655096 0.537289 -13.494308 0
M  V30 9 C 6.492733 -0.355185 -12.781922 0
M  V30 10 C 6.958648 1.757861 -15.140552 0
M  V30 11 N 7.297739 2.799068 -14.246607 0
M  V30 12 C 8.697853 3.115734 -13.999862 0
M  V30 13 C 8.867089 4.627579 -13.778645 0
M  V30 14 N 7.946310 5.150389 -12.727375 0 CHG=1
M  V30 15 C 8.078863 6.614124 -12.504168 0
M  V30 16 C 9.458201 7.073668 -11.984006 0 CFG=1
M  V30 17 F 9.478212 8.402877 -12.018308 0
M  V30 18 C 9.864255 6.620789 -10.570334 0
M  V30 19 C 8.972970 7.190647 -9.448613 0
M  V30 20 N 9.685014 7.313251 -8.180576 0
M  V30 21 C 10.537641 8.312608 -7.893678 0
M  V30 22 O 10.881109 9.164348 -8.711522 0
M  V30 23 C 10.989099 8.401172 -6.496014 0
M  V30 24 C 11.274421 9.478331 -5.692148 0
M  V30 25 C 11.690281 8.951716 -4.421415 0
M  V30 26 C 12.085994 9.504835 -3.181843 0
M  V30 27 C 12.485787 8.690198 -2.105998 0
M  V30 28 C 12.485083 7.292336 -2.246949 0
M  V30 29 C 12.082899 6.713432 -3.454229 0
M  V30 30 C 11.685257 7.530992 -4.518372 0
M  V30 31 N 11.228930 7.237207 -5.783184 0
M  V30 32 C 6.526209 4.792342 -12.995293 0
M  V30 33 C 6.335979 3.289618 -13.264112 0
M  V30 34 C 7.469997 1.794721 -16.458611 0
M  V30 35 H 6.987935 1.068296 -20.910831 0
M  V30 36 H 5.970156 0.022588 -19.935720 0
M  V30 37 H 5.845221 1.769914 -19.767866 0
M  V30 38 H 8.266790 1.801319 -18.938486 0
M  V30 39 H 8.292555 0.058433 -18.995377 0
M  V30 40 H 5.838037 -0.888141 -17.803823 0
M  V30 41 H 6.340349 -0.227662 -11.712364 0
M  V30 42 H 6.287143 -1.394610 -13.047233 0
M  V30 43 H 7.546155 -0.172906 -13.002919 0
M  V30 44 H 9.032297 2.575989 -13.109199 0
M  V30 45 H 9.335327 2.784009 -14.819290 0
M  V30 46 H 9.905889 4.808886 -13.506431 0
M  V30 47 H 8.682254 5.157670 -14.714347 0
M  V30 48 H 7.871683 7.121623 -13.441639 0
M  V30 49 H 7.287989 6.965842 -11.849988 0
M  V30 50 H 10.246644 6.790008 -12.677998 0
M  V30 51 H 9.886642 5.533253 -10.505414 0
M  V30 52 H 10.894250 6.946942 -10.418956 0
M  V30 53 H 8.599595 8.181343 -9.716227 0
M  V30 54 H 8.093511 6.557796 -9.308249 0
M  V30 55 H 9.388161 6.707440 -7.429775 0
M  V30 56 H 11.191875 10.523338 -5.956388 0
M  V30 57 H 12.085977 10.572411 -3.047072 0
M  V30 58 H 12.795700 9.144901 -1.176060 0
M  V30 59 H 12.814166 6.651609 -1.447134 0
M  V30 60 H 12.085390 5.644689 -3.565397 0
M  V30 61 H 11.116229 6.311870 -6.172679 0
M  V30 62 H 5.909036 5.082343 -12.142975 0
M  V30 63 H 6.163824 5.372036 -13.845676 0
M  V30 64 H 5.313723 3.103574 -13.597101 0
M  V30 65 H 6.477814 2.746869 -12.331524 0
M  V30 66 H 8.144225 2.586040 -16.747120 0
M  V30 67 H 8.190298 4.693146 -11.858484 0
M  V30 END ATOM
M  V30 BEGIN BOND
M  V30 1 1 2 1
M  V30 2 1 3 2
M  V30 3 2 4 3
M  V30 4 1 5 4
M  V30 5 1 6 5
M  V30 6 2 7 5
M  V30 7 1 8 7
M  V30 8 1 9 8
M  V30 9 1 10 7
M  V30 10 1 11 10
M  V30 11 1 12 11
M  V30 12 1 13 12
M  V30 13 1 14 13
M  V30 14 1 15 14
M  V30 15 1 16 15
M  V30 16 1 17 16
M  V30 17 1 18 16
M  V30 18 1 19 18
M  V30 19 1 20 19
M  V30 20 1 21 20
M  V30 21 2 22 21
M  V30 22 1 23 21
M  V30 23 2 24 23
M  V30 24 1 25 24
M  V30 25 2 26 25
M  V30 26 1 27 26
M  V30 27 2 28 27
M  V30 28 1 29 28
M  V30 29 1 30 25
M  V30 30 2 30 29
M  V30 31 1 31 23
M  V30 32 1 31 30
M  V30 33 1 32 14
M  V30 34 1 33 11
M  V30 35 1 33 32
M  V30 36 1 34 3
M  V30 37 2 34 10
M  V30 38 1 35 1
M  V30 39 1 36 1
M  V30 40 1 37 1
M  V30 41 1 38 2
M  V30 42 1 39 2
M  V30 43 1 40 4
M  V30 44 1 41 9
M  V30 45 1 42 9
M  V30 46 1 43 9
M  V30 47 1 44 12
M  V30 48 1 45 12
M  V30 49 1 46 13
M  V30 50 1 47 13
M  V30 51 1 48 15
M  V30 52 1 49 15
M  V30 53 1 16 50 CFG=3
M  V30 54 1 51 18
M  V30 55 1 52 18
M  V30 56 1 53 19
M  V30 57 1 54 19
M  V30 58 1 55 20
M  V30 59 1 56 24
M  V30 60 1 57 26
M  V30 61 1 58 27
M  V30 62 1 59 28
M  V30 63 1 60 29
M  V30 64 1 61 31
M  V30 65 1 62 32
M  V30 66 1 63 32
M  V30 67 1 64 33
M  V30 68 1 65 33
M  V30 69 1 66 34
M  V30 70 1 67 14
M  V30 END BOND
M  V30 END CTAB
M  END
>  <b_m_subgroup_collapsed>  (1154) 
0

>  <r_i_docking_score>  (1154) 
-7.4251382072931698

>  <s_m_subgroup_title>  (1154) 
glide-dock_SP_D22_pv

>  <s_m_subgroupid>  (1154) 
glide-dock_SP_D22_pv

>  <Molecule ChEMBL ID>  (1154) 
CHEMBL4534566

>  <Standard Type>  (1154) 
Ki

>  <Standard Value>  (1154) 
20800.0

>  <label>  (1154) 
0

$$$$
CHEMBL4527078
     RDKit          3D

  0  0  0  0  0  0  0  0  0  0999 V3000
M  V30 BEGIN CTAB
M  V30 COUNTS 67 70 0 0 1
M  V30 BEGIN ATOM
M  V30 1 C 6.545951 0.947921 -19.921236 0
M  V30 2 C 7.637296 0.917149 -18.838781 0
M  V30 3 C 7.080383 0.846125 -17.425940 0
M  V30 4 C 6.162716 -0.160582 -17.072962 0
M  V30 5 C 5.660535 -0.229387 -15.762633 0
M  V30 6 Cl 4.483114 -1.427371 -15.376221 0
M  V30 7 C 6.086624 0.693565 -14.783701 0
M  V30 8 O 5.655096 0.537289 -13.494308 0
M  V30 9 C 6.492733 -0.355185 -12.781922 0
M  V30 10 C 6.958648 1.757861 -15.140552 0
M  V30 11 N 7.297739 2.799068 -14.246607 0
M  V30 12 C 8.697853 3.115734 -13.999862 0
M  V30 13 C 8.867089 4.627579 -13.778645 0
M  V30 14 N 7.946310 5.150389 -12.727375 0 CHG=1
M  V30 15 C 8.078863 6.614124 -12.504168 0
M  V30 16 C 9.458201 7.073668 -11.984006 0 CFG=1
M  V30 17 F 9.478212 8.402877 -12.018308 0
M  V30 18 C 9.864255 6.620789 -10.570334 0
M  V30 19 C 8.972970 7.190647 -9.448613 0
M  V30 20 N 9.685014 7.313251 -8.180576 0
M  V30 21 C 10.537641 8.312608 -7.893678 0
M  V30 22 O 10.881109 9.164348 -8.711522 0
M  V30 23 C 10.989099 8.401172 -6.496014 0
M  V30 24 C 11.274421 9.478331 -5.692148 0
M  V30 25 C 11.690281 8.951716 -4.421415 0
M  V30 26 C 12.085994 9.504835 -3.181843 0
M  V30 27 C 12.485787 8.690198 -2.105998 0
M  V30 28 C 12.485083 7.292336 -2.246949 0
M  V30 29 C 12.082899 6.713432 -3.454229 0
M  V30 30 C 11.685257 7.530992 -4.518372 0
M  V30 31 N 11.228930 7.237207 -5.783184 0
M  V30 32 C 6.526209 4.792342 -12.995293 0
M  V30 33 C 6.335979 3.289618 -13.264112 0
M  V30 34 C 7.469997 1.794721 -16.458611 0
M  V30 35 H 6.987935 1.068296 -20.910831 0
M  V30 36 H 5.970156 0.022588 -19.935720 0
M  V30 37 H 5.845221 1.769914 -19.767866 0
M  V30 38 H 8.266790 1.801319 -18.938486 0
M  V30 39 H 8.292555 0.058433 -18.995377 0
M  V30 40 H 5.838037 -0.888141 -17.803823 0
M  V30 41 H 6.340349 -0.227662 -11.712364 0
M  V30 42 H 6.287143 -1.394610 -13.047233 0
M  V30 43 H 7.546155 -0.172906 -13.002919 0
M  V30 44 H 9.032297 2.575989 -13.109199 0
M  V30 45 H 9.335327 2.784009 -14.819290 0
M  V30 46 H 9.905889 4.808886 -13.506431 0
M  V30 47 H 8.682254 5.157670 -14.714347 0
M  V30 48 H 7.871683 7.121623 -13.441639 0
M  V30 49 H 7.287989 6.965842 -11.849988 0
M  V30 50 H 10.246644 6.790008 -12.677998 0
M  V30 51 H 9.886642 5.533253 -10.505414 0
M  V30 52 H 10.894250 6.946942 -10.418956 0
M  V30 53 H 8.599595 8.181343 -9.716227 0
M  V30 54 H 8.093511 6.557796 -9.308249 0
M  V30 55 H 9.388161 6.707440 -7.429775 0
M  V30 56 H 11.191875 10.523338 -5.956388 0
M  V30 57 H 12.085977 10.572411 -3.047072 0
M  V30 58 H 12.795700 9.144901 -1.176060 0
M  V30 59 H 12.814166 6.651609 -1.447134 0
M  V30 60 H 12.085390 5.644689 -3.565397 0
M  V30 61 H 11.116229 6.311870 -6.172679 0
M  V30 62 H 5.909036 5.082343 -12.142975 0
M  V30 63 H 6.163824 5.372036 -13.845676 0
M  V30 64 H 5.313723 3.103574 -13.597101 0
M  V30 65 H 6.477814 2.746869 -12.331524 0
M  V30 66 H 8.144225 2.586040 -16.747120 0
M  V30 67 H 8.190298 4.693146 -11.858484 0
M  V30 END ATOM
M  V30 BEGIN BOND
M  V30 1 1 2 1
M  V30 2 1 3 2
M  V30 3 2 4 3
M  V30 4 1 5 4
M  V30 5 1 6 5
M  V30 6 2 7 5
M  V30 7 1 8 7
M  V30 8 1 9 8
M  V30 9 1 10 7
M  V30 10 1 11 10
M  V30 11 1 12 11
M  V30 12 1 13 12
M  V30 13 1 14 13
M  V30 14 1 15 14
M  V30 15 1 16 15
M  V30 16 1 17 16
M  V30 17 1 18 16
M  V30 18 1 19 18
M  V30 19 1 20 19
M  V30 20 1 21 20
M  V30 21 2 22 21
M  V30 22 1 23 21
M  V30 23 2 24 23
M  V30 24 1 25 24
M  V30 25 2 26 25
M  V30 26 1 27 26
M  V30 27 2 28 27
M  V30 28 1 29 28
M  V30 29 1 30 25
M  V30 30 2 30 29
M  V30 31 1 31 23
M  V30 32 1 31 30
M  V30 33 1 32 14
M  V30 34 1 33 11
M  V30 35 1 33 32
M  V30 36 1 34 3
M  V30 37 2 34 10
M  V30 38 1 35 1
M  V30 39 1 36 1
M  V30 40 1 37 1
M  V30 41 1 38 2
M  V30 42 1 39 2
M  V30 43 1 40 4
M  V30 44 1 41 9
M  V30 45 1 42 9
M  V30 46 1 43 9
M  V30 47 1 44 12
M  V30 48 1 45 12
M  V30 49 1 46 13
M  V30 50 1 47 13
M  V30 51 1 48 15
M  V30 52 1 49 15
M  V30 53 1 16 50 CFG=3
M  V30 54 1 51 18
M  V30 55 1 52 18
M  V30 56 1 53 19
M  V30 57 1 54 19
M  V30 58 1 55 20
M  V30 59 1 56 24
M  V30 60 1 57 26
M  V30 61 1 58 27
M  V30 62 1 59 28
M  V30 63 1 60 29
M  V30 64 1 61 31
M  V30 65 1 62 32
M  V30 66 1 63 32
M  V30 67 1 64 33
M  V30 68 1 65 33
M  V30 69 1 66 34
M  V30 70 1 67 14
M  V30 END BOND
M  V30 END CTAB
M  END
>  <b_m_subgroup_collapsed>  (1155) 
0

>  <r_i_docking_score>  (1155) 
-7.4251382072931698

>  <s_m_subgroup_title>  (1155) 
glide-dock_SP_D22_pv

>  <s_m_subgroupid>  (1155) 
glide-dock_SP_D22_pv

>  <Molecule ChEMBL ID>  (1155) 
CHEMBL4527078

>  <Standard Type>  (1155) 
Ki

>  <Standard Value>  (1155) 
18900.0

>  <label>  (1155) 
0

$$$$
CHEMBL3335472
     RDKit          3D

  0  0  0  0  0  0  0  0  0  0999 V3000
M  V30 BEGIN CTAB
M  V30 COUNTS 60 62 0 0 1
M  V30 BEGIN ATOM
M  V30 1 N 3.561949 -0.743478 -13.963488 0
M  V30 2 C 4.557309 -0.229091 -14.246977 0
M  V30 3 C 5.800995 0.431089 -14.596115 0
M  V30 4 C 6.117854 1.645510 -13.961951 0
M  V30 5 C 7.220838 2.421118 -14.393065 0
M  V30 6 N 7.458843 3.699373 -13.846418 0
M  V30 7 C 6.391741 4.488138 -13.233075 0
M  V30 8 C 6.800748 4.922267 -11.822453 0
M  V30 9 N 8.122297 5.602380 -11.823499 0 CHG=1
M  V30 10 C 8.537683 6.021624 -10.468570 0
M  V30 11 C 9.320791 7.346878 -10.494921 0
M  V30 12 C 9.928417 7.741293 -9.136558 0 CFG=1
M  V30 13 C 8.887245 7.996715 -8.033580 0
M  V30 14 C 9.557894 8.417324 -6.722721 0
M  V30 15 C 10.610397 7.387058 -6.263557 0 CFG=2
M  V30 16 N 11.285869 7.758807 -5.006894 0
M  V30 17 S 11.705482 9.372437 -4.547991 0
M  V30 18 N 12.485597 9.886985 -5.971649 0
M  V30 19 O 10.486468 10.174857 -4.415451 0
M  V30 20 O 12.697289 9.299232 -3.468184 0
M  V30 21 C 11.642590 7.100827 -7.369853 0
M  V30 22 C 10.949903 6.697250 -8.669854 0
M  V30 23 C 9.181186 4.794700 -12.491588 0
M  V30 24 C 8.769023 4.340708 -13.897402 0
M  V30 25 C 8.049443 1.893264 -15.410672 0
M  V30 26 C 7.771785 0.648434 -16.012970 0
M  V30 27 C 8.693220 0.127305 -17.106092 0
M  V30 28 F 9.056417 1.126326 -17.912493 0
M  V30 29 F 9.788452 -0.392057 -16.551311 0
M  V30 30 F 8.102520 -0.808475 -17.848633 0
M  V30 31 C 6.632567 -0.078720 -15.609906 0
M  V30 32 H 5.464388 1.986045 -13.173677 0
M  V30 33 H 6.235028 5.372250 -13.845713 0
M  V30 34 H 5.422328 3.995097 -13.216139 0
M  V30 35 H 6.037929 5.600757 -11.436955 0
M  V30 36 H 6.846138 4.053434 -11.162179 0
M  V30 37 H 7.683240 6.145990 -9.814416 0
M  V30 38 H 9.109421 5.210762 -10.024205 0
M  V30 39 H 10.127667 7.285556 -11.225822 0
M  V30 40 H 8.667857 8.146833 -10.847733 0
M  V30 41 H 10.464043 8.680560 -9.297762 0
M  V30 42 H 8.190146 8.775700 -8.342446 0
M  V30 43 H 8.307751 7.092984 -7.844439 0
M  V30 44 H 8.784520 8.524473 -5.968560 0
M  V30 45 H 10.002284 9.397608 -6.871971 0
M  V30 46 H 10.079487 6.453807 -6.064304 0
M  V30 47 H 11.945679 7.062475 -4.664514 0
M  V30 48 H 11.977625 10.649713 -6.416891 0
M  V30 49 H 13.482836 10.085622 -5.843808 0
M  V30 50 H 12.302147 6.294349 -7.046949 0
M  V30 51 H 12.269016 7.965107 -7.573252 0
M  V30 52 H 10.484164 5.726611 -8.500509 0
M  V30 53 H 11.677664 6.572724 -9.464367 0
M  V30 54 H 10.110810 5.362342 -12.548276 0
M  V30 55 H 9.391395 3.908821 -11.888383 0
M  V30 56 H 9.550636 3.684227 -14.275510 0
M  V30 57 H 8.716635 5.196520 -14.571550 0
M  V30 58 H 8.899129 2.443786 -15.779136 0
M  V30 59 H 6.390339 -1.020453 -16.086729 0
M  V30 60 H 7.984695 6.446912 -12.357587 0
M  V30 END ATOM
M  V30 BEGIN BOND
M  V30 1 3 2 1
M  V30 2 1 3 2
M  V30 3 2 4 3
M  V30 4 1 5 4
M  V30 5 1 6 5
M  V30 6 1 7 6
M  V30 7 1 8 7
M  V30 8 1 9 8
M  V30 9 1 10 9
M  V30 10 1 11 10
M  V30 11 1 12 11
M  V30 12 1 13 12
M  V30 13 1 14 13
M  V30 14 1 15 14
M  V30 15 1 16 15
M  V30 16 1 17 16
M  V30 17 1 18 17
M  V30 18 2 19 17
M  V30 19 2 20 17
M  V30 20 1 21 15
M  V30 21 1 22 12
M  V30 22 1 22 21
M  V30 23 1 23 9
M  V30 24 1 24 6
M  V30 25 1 24 23
M  V30 26 2 25 5
M  V30 27 1 26 25
M  V30 28 1 27 26
M  V30 29 1 28 27
M  V30 30 1 29 27
M  V30 31 1 30 27
M  V30 32 1 31 3
M  V30 33 2 31 26
M  V30 34 1 32 4
M  V30 35 1 33 7
M  V30 36 1 34 7
M  V30 37 1 35 8
M  V30 38 1 36 8
M  V30 39 1 37 10
M  V30 40 1 38 10
M  V30 41 1 39 11
M  V30 42 1 40 11
M  V30 43 1 12 41 CFG=3
M  V30 44 1 42 13
M  V30 45 1 43 13
M  V30 46 1 44 14
M  V30 47 1 45 14
M  V30 48 1 15 46 CFG=1
M  V30 49 1 47 16
M  V30 50 1 48 18
M  V30 51 1 49 18
M  V30 52 1 50 21
M  V30 53 1 51 21
M  V30 54 1 52 22
M  V30 55 1 53 22
M  V30 56 1 54 23
M  V30 57 1 55 23
M  V30 58 1 56 24
M  V30 59 1 57 24
M  V30 60 1 58 25
M  V30 61 1 59 31
M  V30 62 1 60 9
M  V30 END BOND
M  V30 END CTAB
M  END
>  <b_m_subgroup_collapsed>  (1156) 
0

>  <r_i_docking_score>  (1156) 
-7.4243849399517297

>  <s_m_subgroup_title>  (1156) 
glide-dock_SP_D22_pv

>  <s_m_subgroupid>  (1156) 
glide-dock_SP_D22_pv

>  <Molecule ChEMBL ID>  (1156) 
CHEMBL3335472

>  <Standard Type>  (1156) 
Ki

>  <Standard Value>  (1156) 
37.0

>  <label>  (1156) 
1

$$$$
CHEMBL3409233
     RDKit          3D

  0  0  0  0  0  0  0  0  0  0999 V3000
M  V30 BEGIN CTAB
M  V30 COUNTS 74 79 0 0 1
M  V30 BEGIN ATOM
M  V30 1 O 5.617793 0.172146 -13.049635 0
M  V30 2 C 5.259598 -0.140324 -14.181589 0
M  V30 3 C 3.763491 -0.299046 -14.490199 0
M  V30 4 C 3.465459 -1.172230 -15.724224 0
M  V30 5 C 4.483909 -1.022425 -16.833498 0
M  V30 6 C 4.142603 -1.328212 -18.166452 0
M  V30 7 C 5.134001 -1.294125 -19.166069 0
M  V30 8 C 6.471914 -0.983074 -18.849895 0
M  V30 9 O 7.386215 -1.059446 -19.878992 0
M  V30 10 C 8.769006 -1.185927 -19.565186 0
M  V30 11 C 9.456606 0.187948 -19.586386 0
M  V30 12 C 10.969585 0.131687 -19.301758 0
M  V30 13 C 11.330447 -0.190686 -17.839783 0
M  V30 14 N 10.854383 0.870705 -16.918358 0 CFG=2 CHG=1
M  V30 15 C 11.781454 2.026537 -16.794477 0
M  V30 16 C 11.251207 3.060598 -15.812184 0
M  V30 17 C 10.234339 2.843180 -14.955048 0
M  V30 18 C 9.771990 3.910768 -14.045698 0
M  V30 19 C 10.541518 4.920823 -13.522987 0
M  V30 20 N 9.731564 5.735071 -12.734170 0
M  V30 21 S 10.260653 7.162438 -11.901335 0
M  V30 22 O 11.683818 7.315312 -12.248273 0
M  V30 23 O 9.291364 8.212248 -12.246665 0
M  V30 24 C 10.135937 6.859673 -10.142708 0
M  V30 25 C 9.434077 5.754282 -9.622405 0
M  V30 26 C 9.282901 5.624495 -8.233948 0
M  V30 27 C 9.856062 6.573609 -7.360742 0
M  V30 28 C 10.590384 7.657944 -7.882214 0
M  V30 29 C 10.725863 7.803470 -9.275792 0
M  V30 30 C 8.428160 5.257179 -12.766834 0
M  V30 31 C 7.261152 5.700791 -12.131708 0
M  V30 32 C 6.066945 4.986424 -12.277451 0
M  V30 33 C 6.015523 3.866951 -13.123476 0
M  V30 34 C 7.176072 3.439916 -13.792491 0
M  V30 35 C 8.420921 4.097738 -13.602327 0
M  V30 36 C 9.593777 1.459791 -14.891539 0
M  V30 37 C 10.420887 0.373644 -15.593159 0
M  V30 38 C 6.793519 -0.626402 -17.514664 0
M  V30 39 C 5.801524 -0.639815 -16.512316 0
M  V30 40 N 6.142743 -0.308023 -15.177627 0
M  V30 41 H 3.236986 -0.691316 -13.619662 0
M  V30 42 H 3.364229 0.699256 -14.647731 0
M  V30 43 H 2.485935 -0.919864 -16.115416 0
M  V30 44 H 3.426915 -2.227697 -15.445262 0
M  V30 45 H 3.131536 -1.616635 -18.417614 0
M  V30 46 H 4.870014 -1.552562 -20.180225 0
M  V30 47 H 9.213835 -1.817738 -20.333998 0
M  V30 48 H 8.928383 -1.717995 -18.627192 0
M  V30 49 H 8.961370 0.869716 -18.896608 0
M  V30 50 H 9.309416 0.617072 -20.578564 0
M  V30 51 H 11.421584 1.082434 -19.589746 0
M  V30 52 H 11.429499 -0.611751 -19.958292 0
M  V30 53 H 12.409320 -0.314185 -17.735453 0
M  V30 54 H 10.891945 -1.154472 -17.574726 0
M  V30 55 H 11.901004 2.503334 -17.768415 0
M  V30 56 H 12.769236 1.705724 -16.471010 0
M  V30 57 H 11.736851 4.026320 -15.844813 0
M  V30 58 H 11.593672 5.136342 -13.640079 0
M  V30 59 H 8.987066 5.009833 -10.257067 0
M  V30 60 H 8.714158 4.792986 -7.847210 0
M  V30 61 H 9.729323 6.468791 -6.293273 0
M  V30 62 H 11.032618 8.385716 -7.215968 0
M  V30 63 H 11.263554 8.647246 -9.684235 0
M  V30 64 H 7.291054 6.554714 -11.471508 0
M  V30 65 H 5.205267 5.304507 -11.713967 0
M  V30 66 H 5.087669 3.324281 -13.246610 0
M  V30 67 H 7.093081 2.573621 -14.425876 0
M  V30 68 H 9.437787 1.180164 -13.847015 0
M  V30 69 H 8.617286 1.507734 -15.368048 0
M  V30 70 H 11.285955 0.100401 -14.993836 0
M  V30 71 H 9.810784 -0.525569 -15.689409 0
M  V30 72 H 7.801174 -0.361080 -17.238308 0
M  V30 73 H 7.120637 -0.199439 -14.957735 0
M  V30 74 H 10.011972 1.232329 -17.341202 0
M  V30 END ATOM
M  V30 BEGIN BOND
M  V30 1 2 2 1
M  V30 2 1 3 2
M  V30 3 1 4 3
M  V30 4 1 5 4
M  V30 5 1 6 5
M  V30 6 2 7 6
M  V30 7 1 8 7
M  V30 8 1 9 8
M  V30 9 1 10 9
M  V30 10 1 11 10
M  V30 11 1 12 11
M  V30 12 1 13 12
M  V30 13 1 14 13
M  V30 14 1 15 14
M  V30 15 1 16 15
M  V30 16 2 17 16
M  V30 17 1 18 17
M  V30 18 2 19 18
M  V30 19 1 20 19
M  V30 20 1 21 20
M  V30 21 2 22 21
M  V30 22 2 23 21
M  V30 23 1 24 21
M  V30 24 2 25 24
M  V30 25 1 26 25
M  V30 26 2 27 26
M  V30 27 1 28 27
M  V30 28 1 29 24
M  V30 29 2 29 28
M  V30 30 1 30 20
M  V30 31 2 31 30
M  V30 32 1 32 31
M  V30 33 2 33 32
M  V30 34 1 34 33
M  V30 35 1 35 18
M  V30 36 1 35 30
M  V30 37 2 35 34
M  V30 38 1 36 17
M  V30 39 1 37 14
M  V30 40 1 37 36
M  V30 41 2 38 8
M  V30 42 2 39 5
M  V30 43 1 39 38
M  V30 44 1 40 2
M  V30 45 1 40 39
M  V30 46 1 41 3
M  V30 47 1 42 3
M  V30 48 1 43 4
M  V30 49 1 44 4
M  V30 50 1 45 6
M  V30 51 1 46 7
M  V30 52 1 47 10
M  V30 53 1 48 10
M  V30 54 1 49 11
M  V30 55 1 50 11
M  V30 56 1 51 12
M  V30 57 1 52 12
M  V30 58 1 53 13
M  V30 59 1 54 13
M  V30 60 1 55 15
M  V30 61 1 56 15
M  V30 62 1 57 16
M  V30 63 1 58 19
M  V30 64 1 59 25
M  V30 65 1 60 26
M  V30 66 1 61 27
M  V30 67 1 62 28
M  V30 68 1 63 29
M  V30 69 1 64 31
M  V30 70 1 65 32
M  V30 71 1 66 33
M  V30 72 1 67 34
M  V30 73 1 68 36
M  V30 74 1 69 36
M  V30 75 1 70 37
M  V30 76 1 71 37
M  V30 77 1 72 38
M  V30 78 1 73 40
M  V30 79 1 14 74 CFG=3
M  V30 END BOND
M  V30 END CTAB
M  END
>  <b_m_subgroup_collapsed>  (1157) 
0

>  <r_i_docking_score>  (1157) 
-7.4220989385829199

>  <s_m_subgroup_title>  (1157) 
glide-dock_SP_D22_pv

>  <s_m_subgroupid>  (1157) 
glide-dock_SP_D22_pv

>  <Molecule ChEMBL ID>  (1157) 
CHEMBL3409233

>  <Standard Type>  (1157) 
Ki

>  <Standard Value>  (1157) 
40.0

>  <label>  (1157) 
1

$$$$
CHEMBL64043
     RDKit          3D

  0  0  0  0  0  0  0  0  0  0999 V3000
M  V30 BEGIN CTAB
M  V30 COUNTS 49 52 0 0 1
M  V30 BEGIN ATOM
M  V30 1 C 12.307251 7.852725 -3.063426 0
M  V30 2 C 12.112074 9.183146 -3.477273 0
M  V30 3 C 11.417344 9.452882 -4.670962 0
M  V30 4 C 10.903779 8.393018 -5.449978 0
M  V30 5 C 10.042475 8.702538 -6.655881 0
M  V30 6 N 10.442449 7.943792 -7.864981 0 CHG=1
M  V30 7 C 10.880260 8.834139 -8.970039 0
M  V30 8 C 11.187443 8.048963 -10.253265 0
M  V30 9 N 9.997041 7.293913 -10.638511 0
M  V30 10 C 10.178580 6.695768 -11.955470 0
M  V30 11 C 9.150272 5.752561 -12.503118 0
M  V30 12 C 7.787652 5.814907 -12.358933 0
M  V30 13 S 6.999697 4.422635 -13.047142 0
M  V30 14 C 8.576879 3.826967 -13.580842 0
M  V30 15 C 8.743764 2.578807 -14.329626 0
M  V30 16 C 10.042053 2.158645 -14.702868 0
M  V30 17 C 10.231430 0.963747 -15.421768 0
M  V30 18 C 9.123294 0.172861 -15.771894 0
M  V30 19 C 7.826705 0.574490 -15.400229 0
M  V30 20 C 7.635551 1.774963 -14.687449 0
M  V30 21 N 9.578061 4.631981 -13.213886 0
M  V30 22 C 9.753346 6.291164 -9.600986 0
M  V30 23 C 9.365461 7.029730 -8.314826 0
M  V30 24 C 11.121094 7.057760 -5.046438 0
M  V30 25 C 11.813207 6.793429 -3.848118 0
M  V30 26 H 12.830730 7.645072 -2.142235 0
M  V30 27 H 12.486542 9.996725 -2.872437 0
M  V30 28 H 11.250833 10.480019 -4.962265 0
M  V30 29 H 10.089948 9.773609 -6.852675 0
M  V30 30 H 9.003535 8.502510 -6.385293 0
M  V30 31 H 11.772703 9.372521 -8.655322 0
M  V30 32 H 10.105771 9.573005 -9.182041 0
M  V30 33 H 12.042724 7.385499 -10.113020 0
M  V30 34 H 11.456880 8.751108 -11.042071 0
M  V30 35 H 11.150219 6.206707 -11.988126 0
M  V30 36 H 10.272681 7.531813 -12.646705 0
M  V30 37 H 7.208908 6.571383 -11.846648 0
M  V30 38 H 10.907263 2.749005 -14.437458 0
M  V30 39 H 11.228793 0.655186 -15.699301 0
M  V30 40 H 9.267128 -0.744240 -16.322754 0
M  V30 41 H 6.978355 -0.040415 -15.665144 0
M  V30 42 H 6.629951 2.060481 -14.416926 0
M  V30 43 H 8.926441 5.638923 -9.882442 0
M  V30 44 H 10.624264 5.654619 -9.447411 0
M  V30 45 H 9.122264 6.314239 -7.528171 0
M  V30 46 H 8.471715 7.618679 -8.502625 0
M  V30 47 H 10.719439 6.230507 -5.614700 0
M  V30 48 H 11.958511 5.772580 -3.524532 0
M  V30 49 H 11.232776 7.368798 -7.613057 0
M  V30 END ATOM
M  V30 BEGIN BOND
M  V30 1 2 2 1
M  V30 2 1 3 2
M  V30 3 2 4 3
M  V30 4 1 5 4
M  V30 5 1 6 5
M  V30 6 1 7 6
M  V30 7 1 8 7
M  V30 8 1 9 8
M  V30 9 1 10 9
M  V30 10 1 11 10
M  V30 11 2 12 11
M  V30 12 1 13 12
M  V30 13 1 14 13
M  V30 14 1 15 14
M  V30 15 2 16 15
M  V30 16 1 17 16
M  V30 17 2 18 17
M  V30 18 1 19 18
M  V30 19 1 20 15
M  V30 20 2 20 19
M  V30 21 1 21 11
M  V30 22 2 21 14
M  V30 23 1 22 9
M  V30 24 1 23 6
M  V30 25 1 23 22
M  V30 26 1 24 4
M  V30 27 1 25 1
M  V30 28 2 25 24
M  V30 29 1 26 1
M  V30 30 1 27 2
M  V30 31 1 28 3
M  V30 32 1 29 5
M  V30 33 1 30 5
M  V30 34 1 31 7
M  V30 35 1 32 7
M  V30 36 1 33 8
M  V30 37 1 34 8
M  V30 38 1 35 10
M  V30 39 1 36 10
M  V30 40 1 37 12
M  V30 41 1 38 16
M  V30 42 1 39 17
M  V30 43 1 40 18
M  V30 44 1 41 19
M  V30 45 1 42 20
M  V30 46 1 43 22
M  V30 47 1 44 22
M  V30 48 1 45 23
M  V30 49 1 46 23
M  V30 50 1 47 24
M  V30 51 1 48 25
M  V30 52 1 49 6
M  V30 END BOND
M  V30 END CTAB
M  END
>  <b_m_subgroup_collapsed>  (1158) 
0

>  <r_i_docking_score>  (1158) 
-7.4208790326320404

>  <s_m_subgroup_title>  (1158) 
glide-dock_SP_D22_pv

>  <s_m_subgroupid>  (1158) 
glide-dock_SP_D22_pv

>  <Molecule ChEMBL ID>  (1158) 
CHEMBL64043

>  <Standard Type>  (1158) 
Ki

>  <Standard Value>  (1158) 
19500.0

>  <label>  (1158) 
0

$$$$
CHEMBL282927
     RDKit          3D

  0  0  0  0  0  0  0  0  0  0999 V3000
M  V30 BEGIN CTAB
M  V30 COUNTS 57 60 0 0 1
M  V30 BEGIN ATOM
M  V30 1 N 11.744935 8.437105 -3.543067 0
M  V30 2 C 11.339203 9.031681 -4.665302 0
M  V30 3 O 10.885720 10.173050 -4.655209 0
M  V30 4 C 11.478624 8.236782 -5.971836 0 CFG=2
M  V30 5 C 12.014868 9.076294 -7.135937 0
M  V30 6 C 11.245230 8.563946 -8.339039 0
M  V30 7 C 10.362465 7.419189 -7.808504 0 CFG=2
M  V30 8 C 8.959770 7.286945 -8.457341 0
M  V30 9 N 8.886028 6.752274 -9.854479 0 CHG=1
M  V30 10 C 9.875077 7.318015 -10.797920 0
M  V30 11 C 9.558027 6.956909 -12.247406 0
M  V30 12 C 9.341812 5.460602 -12.484243 0
M  V30 13 C 9.823147 4.778794 -13.567337 0
M  V30 14 C 9.362249 3.419402 -13.931179 0
M  V30 15 C 7.984397 3.144774 -14.093649 0
M  V30 16 C 7.549946 1.877689 -14.530554 0
M  V30 17 C 8.491133 0.870672 -14.816950 0
M  V30 18 C 9.866076 1.138707 -14.679832 0
M  V30 19 C 10.298200 2.407816 -14.246775 0
M  V30 20 C 10.777826 5.372435 -14.534127 0
M  V30 21 C 12.006514 5.928295 -14.112741 0
M  V30 22 C 12.886436 6.508070 -15.046942 0
M  V30 23 C 12.576068 6.500869 -16.417307 0
M  V30 24 F 13.430645 7.052190 -17.310762 0
M  V30 25 C 11.376093 5.914990 -16.855326 0
M  V30 26 C 10.485552 5.357247 -15.918048 0
M  V30 27 C 8.419772 4.860102 -11.418808 0
M  V30 28 C 8.814956 5.274894 -9.979076 0
M  V30 29 O 10.209654 7.795492 -6.440647 0
M  V30 30 H 11.685222 8.942408 -2.670805 0
M  V30 31 H 12.099510 7.492822 -3.565939 0
M  V30 32 H 12.085120 7.345218 -5.806761 0
M  V30 33 H 11.813039 10.140593 -7.007073 0
M  V30 34 H 13.092643 8.972241 -7.262167 0
M  V30 35 H 11.929492 8.242664 -9.123351 0
M  V30 36 H 10.631730 9.372150 -8.736733 0
M  V30 37 H 10.897917 6.469068 -7.847943 0
M  V30 38 H 8.486115 8.269347 -8.455372 0
M  V30 39 H 8.330698 6.667529 -7.816347 0
M  V30 40 H 10.869556 6.941215 -10.560098 0
M  V30 41 H 9.891088 8.404373 -10.710820 0
M  V30 42 H 10.348590 7.374392 -12.863331 0
M  V30 43 H 8.639892 7.466170 -12.544697 0
M  V30 44 H 7.251450 3.913104 -13.896157 0
M  V30 45 H 6.494219 1.679640 -14.648385 0
M  V30 46 H 8.160721 -0.103513 -15.148147 0
M  V30 47 H 10.591249 0.371056 -14.905899 0
M  V30 48 H 11.357401 2.602107 -14.159070 0
M  V30 49 H 12.273955 5.929760 -13.066134 0
M  V30 50 H 13.808785 6.954784 -14.708402 0
M  V30 51 H 11.134195 5.903300 -17.907848 0
M  V30 52 H 9.561018 4.923831 -16.270050 0
M  V30 53 H 7.401159 5.194127 -11.622750 0
M  V30 54 H 8.407844 3.773464 -11.480162 0
M  V30 55 H 9.778051 4.837900 -9.710565 0
M  V30 56 H 8.085893 4.876419 -9.274323 0
M  V30 57 H 7.964808 7.082856 -10.162428 0
M  V30 END ATOM
M  V30 BEGIN BOND
M  V30 1 1 2 1
M  V30 2 2 3 2
M  V30 3 1 4 2
M  V30 4 1 5 4
M  V30 5 1 6 5
M  V30 6 1 7 6
M  V30 7 1 8 7
M  V30 8 1 9 8
M  V30 9 1 10 9
M  V30 10 1 11 10
M  V30 11 1 12 11
M  V30 12 2 13 12
M  V30 13 1 14 13
M  V30 14 2 15 14
M  V30 15 1 16 15
M  V30 16 2 17 16
M  V30 17 1 18 17
M  V30 18 1 19 14
M  V30 19 2 19 18
M  V30 20 1 20 13
M  V30 21 1 21 20
M  V30 22 2 22 21
M  V30 23 1 23 22
M  V30 24 1 24 23
M  V30 25 2 25 23
M  V30 26 2 26 20
M  V30 27 1 26 25
M  V30 28 1 27 12
M  V30 29 1 28 9
M  V30 30 1 28 27
M  V30 31 1 29 4
M  V30 32 1 29 7
M  V30 33 1 30 1
M  V30 34 1 31 1
M  V30 35 1 4 32 CFG=1
M  V30 36 1 33 5
M  V30 37 1 34 5
M  V30 38 1 35 6
M  V30 39 1 36 6
M  V30 40 1 7 37 CFG=1
M  V30 41 1 38 8
M  V30 42 1 39 8
M  V30 43 1 40 10
M  V30 44 1 41 10
M  V30 45 1 42 11
M  V30 46 1 43 11
M  V30 47 1 44 15
M  V30 48 1 45 16
M  V30 49 1 46 17
M  V30 50 1 47 18
M  V30 51 1 48 19
M  V30 52 1 49 21
M  V30 53 1 50 22
M  V30 54 1 51 25
M  V30 55 1 52 26
M  V30 56 1 53 27
M  V30 57 1 54 27
M  V30 58 1 55 28
M  V30 59 1 56 28
M  V30 60 1 57 9
M  V30 END BOND
M  V30 END CTAB
M  END
>  <b_m_subgroup_collapsed>  (1159) 
0

>  <r_i_docking_score>  (1159) 
-7.4205734140907902

>  <s_m_subgroup_title>  (1159) 
glide-dock_SP_D22_pv

>  <s_m_subgroupid>  (1159) 
glide-dock_SP_D22_pv

>  <Molecule ChEMBL ID>  (1159) 
CHEMBL282927

>  <Standard Type>  (1159) 
Ki

>  <Standard Value>  (1159) 
100.0

>  <label>  (1159) 
1

$$$$
CHEMBL443006
     RDKit          3D

  0  0  0  0  0  0  0  0  0  0999 V3000
M  V30 BEGIN CTAB
M  V30 COUNTS 52 55 0 0 1
M  V30 BEGIN ATOM
M  V30 1 C 11.960350 8.375081 -2.536601 0
M  V30 2 S 11.899719 9.111550 -4.209739 0
M  V30 3 O 10.884648 10.171436 -4.247525 0
M  V30 4 O 13.271305 9.372582 -4.656271 0
M  V30 5 N 11.285604 7.809890 -5.182546 0
M  V30 6 C 10.901165 7.857415 -6.527323 0
M  V30 7 C 9.736814 7.178197 -6.940539 0
M  V30 8 C 9.311755 7.239098 -8.282795 0
M  V30 9 C 10.061394 7.960042 -9.236219 0
M  V30 10 C 9.556250 8.118741 -10.664774 0
M  V30 11 C 9.863420 6.955898 -11.628428 0
M  V30 12 N 9.169695 5.685153 -11.305653 0 CFG=1 CHG=1
M  V30 13 C 7.678805 5.771967 -11.300640 0
M  V30 14 C 7.212571 4.513719 -12.008603 0 CFG=1
M  V30 15 C 5.831996 4.417976 -12.654791 0
M  V30 16 O 5.675855 3.111506 -13.227433 0
M  V30 17 C 6.759874 2.534719 -13.871078 0
M  V30 18 C 6.566022 1.310807 -14.543149 0
M  V30 19 C 7.632661 0.683775 -15.216667 0
M  V30 20 C 8.912622 1.277286 -15.226979 0
M  V30 21 C 10.005517 0.659125 -15.960441 0
M  V30 22 N 10.876043 0.173116 -16.546841 0
M  V30 23 C 9.129390 2.483906 -14.531561 0
M  V30 24 C 8.062702 3.100106 -13.847033 0
M  V30 25 C 8.265943 4.376162 -13.070461 0 CFG=2
M  V30 26 C 9.531393 4.578543 -12.237353 0
M  V30 27 C 11.247007 8.612267 -8.829532 0
M  V30 28 C 11.658269 8.570250 -7.481322 0
M  V30 29 H 12.307159 9.131866 -1.831484 0
M  V30 30 H 12.650139 7.531930 -2.536595 0
M  V30 31 H 10.968705 8.037838 -2.244863 0
M  V30 32 H 10.798841 7.099841 -4.657885 0
M  V30 33 H 9.139900 6.632128 -6.225129 0
M  V30 34 H 8.387018 6.757978 -8.560836 0
M  V30 35 H 8.491129 8.349739 -10.645422 0
M  V30 36 H 10.028556 8.999753 -11.085676 0
M  V30 37 H 9.592780 7.248048 -12.646650 0
M  V30 38 H 10.940163 6.782116 -11.637331 0
M  V30 39 H 7.286390 5.772901 -10.285611 0
M  V30 40 H 7.323558 6.647926 -11.847812 0
M  V30 41 H 7.285728 3.707931 -11.281844 0
M  V30 42 H 5.057601 4.569458 -11.902828 0
M  V30 43 H 5.695536 5.178002 -13.424660 0
M  V30 44 H 5.587842 0.852480 -14.547113 0
M  V30 45 H 7.459708 -0.249667 -15.733158 0
M  V30 46 H 10.110826 2.934044 -14.526662 0
M  V30 47 H 8.179173 5.193624 -13.789978 0
M  V30 48 H 10.409191 4.786293 -12.851630 0
M  V30 49 H 9.746302 3.684696 -11.647884 0
M  V30 50 H 11.829901 9.180541 -9.540549 0
M  V30 51 H 12.558084 9.092251 -7.187215 0
M  V30 52 H 9.464570 5.411425 -10.378715 0
M  V30 END ATOM
M  V30 BEGIN BOND
M  V30 1 1 2 1
M  V30 2 2 3 2
M  V30 3 2 4 2
M  V30 4 1 5 2
M  V30 5 1 6 5
M  V30 6 1 7 6
M  V30 7 2 8 7
M  V30 8 1 9 8
M  V30 9 1 10 9
M  V30 10 1 11 10
M  V30 11 1 12 11
M  V30 12 1 13 12
M  V30 13 1 14 13
M  V30 14 1 15 14
M  V30 15 1 16 15
M  V30 16 1 17 16
M  V30 17 1 18 17
M  V30 18 2 19 18
M  V30 19 1 20 19
M  V30 20 1 21 20
M  V30 21 3 22 21
M  V30 22 2 23 20
M  V30 23 2 24 17
M  V30 24 1 24 23
M  V30 25 1 25 14
M  V30 26 1 25 24
M  V30 27 1 26 12
M  V30 28 1 26 25
M  V30 29 2 27 9
M  V30 30 2 28 6
M  V30 31 1 28 27
M  V30 32 1 29 1
M  V30 33 1 30 1
M  V30 34 1 31 1
M  V30 35 1 32 5
M  V30 36 1 33 7
M  V30 37 1 34 8
M  V30 38 1 35 10
M  V30 39 1 36 10
M  V30 40 1 37 11
M  V30 41 1 38 11
M  V30 42 1 39 13
M  V30 43 1 40 13
M  V30 44 1 14 41 CFG=1
M  V30 45 1 42 15
M  V30 46 1 43 15
M  V30 47 1 44 18
M  V30 48 1 45 19
M  V30 49 1 46 23
M  V30 50 1 25 47 CFG=3
M  V30 51 1 48 26
M  V30 52 1 49 26
M  V30 53 1 50 27
M  V30 54 1 51 28
M  V30 55 1 12 52 CFG=1
M  V30 END BOND
M  V30 END CTAB
M  END
>  <b_m_subgroup_collapsed>  (1160) 
0

>  <r_i_docking_score>  (1160) 
-7.4185291110410398

>  <s_m_subgroup_title>  (1160) 
glide-dock_SP_D22_pv

>  <s_m_subgroupid>  (1160) 
glide-dock_SP_D22_pv

>  <Molecule ChEMBL ID>  (1160) 
CHEMBL443006

>  <Standard Type>  (1160) 
Ki

>  <Standard Value>  (1160) 
25.12

>  <label>  (1160) 
1

$$$$
CHEMBL210101
     RDKit          3D

  0  0  0  0  0  0  0  0  0  0999 V3000
M  V30 BEGIN CTAB
M  V30 COUNTS 50 52 0 0 1
M  V30 BEGIN ATOM
M  V30 1 C 12.503324 8.365024 -11.270720 0
M  V30 2 O 11.320081 8.395236 -10.494028 0
M  V30 3 N 11.688116 8.572686 -9.151305 0
M  V30 4 C 10.782508 8.192862 -8.342145 0
M  V30 5 C 9.409886 7.709206 -8.810041 0
M  V30 6 C 9.486353 6.308198 -9.454550 0
M  V30 7 N 8.485746 6.095810 -10.529340 0 CFG=2 CHG=1
M  V30 8 C 8.215817 4.650040 -10.740870 0
M  V30 9 C 7.105554 4.429325 -11.781991 0
M  V30 10 C 7.486305 5.021924 -13.145040 0 CFG=2
M  V30 11 C 8.572708 4.209618 -13.863639 0
M  V30 12 C 9.828652 4.739698 -14.243937 0
M  V30 13 C 10.761814 3.894476 -14.873215 0
M  V30 14 C 10.408522 2.556668 -15.118724 0
M  V30 15 C 9.123023 2.127953 -14.743652 0
M  V30 16 N 8.221554 2.936076 -14.147137 0
M  V30 17 C 7.792657 6.514079 -12.909984 0
M  V30 18 C 8.839384 6.777572 -11.801046 0
M  V30 19 C 11.032930 8.180874 -6.886946 0
M  V30 20 C 11.452991 9.346853 -6.208112 0
M  V30 21 C 11.770996 9.291363 -4.836670 0
M  V30 22 C 11.690944 8.075347 -4.137014 0
M  V30 23 Cl 12.103449 8.009727 -2.463868 0
M  V30 24 C 11.282750 6.911058 -4.807317 0
M  V30 25 C 10.935459 6.967215 -6.170497 0
M  V30 26 H 12.296570 7.912827 -12.241236 0
M  V30 27 H 12.886714 9.370558 -11.446381 0
M  V30 28 H 13.283043 7.774456 -10.794311 0
M  V30 29 H 9.003446 8.451108 -9.496899 0
M  V30 30 H 8.710265 7.692873 -7.972034 0
M  V30 31 H 9.334186 5.575699 -8.660519 0
M  V30 32 H 10.477462 6.090350 -9.857217 0
M  V30 33 H 7.924944 4.179080 -9.801461 0
M  V30 34 H 9.139425 4.166955 -11.061747 0
M  V30 35 H 6.187178 4.908772 -11.442225 0
M  V30 36 H 6.861517 3.372359 -11.873444 0
M  V30 37 H 6.607913 4.963239 -13.789232 0
M  V30 38 H 10.096789 5.770997 -14.085769 0
M  V30 39 H 11.732730 4.267563 -15.165547 0
M  V30 40 H 11.102099 1.878033 -15.593447 0
M  V30 41 H 8.809123 1.110750 -14.927359 0
M  V30 42 H 8.084814 6.969854 -13.846375 0
M  V30 43 H 6.866383 7.015061 -12.622017 0
M  V30 44 H 8.903535 7.852950 -11.638423 0
M  V30 45 H 9.835594 6.458690 -12.101044 0
M  V30 46 H 11.550840 10.283220 -6.738691 0
M  V30 47 H 12.102391 10.171307 -4.315149 0
M  V30 48 H 11.225194 5.973454 -4.274212 0
M  V30 49 H 10.632165 6.059257 -6.669371 0
M  V30 50 H 7.606679 6.527952 -10.239661 0
M  V30 END ATOM
M  V30 BEGIN BOND
M  V30 1 1 2 1
M  V30 2 1 3 2
M  V30 3 2 4 3
M  V30 4 1 5 4
M  V30 5 1 6 5
M  V30 6 1 7 6
M  V30 7 1 8 7
M  V30 8 1 9 8
M  V30 9 1 10 9
M  V30 10 1 11 10
M  V30 11 2 12 11
M  V30 12 1 13 12
M  V30 13 2 14 13
M  V30 14 1 15 14
M  V30 15 1 16 11
M  V30 16 2 16 15
M  V30 17 1 17 10
M  V30 18 1 18 7
M  V30 19 1 18 17
M  V30 20 1 19 4
M  V30 21 1 20 19
M  V30 22 2 21 20
M  V30 23 1 22 21
M  V30 24 1 23 22
M  V30 25 2 24 22
M  V30 26 2 25 19
M  V30 27 1 25 24
M  V30 28 1 26 1
M  V30 29 1 27 1
M  V30 30 1 28 1
M  V30 31 1 29 5
M  V30 32 1 30 5
M  V30 33 1 31 6
M  V30 34 1 32 6
M  V30 35 1 33 8
M  V30 36 1 34 8
M  V30 37 1 35 9
M  V30 38 1 36 9
M  V30 39 1 10 37 CFG=3
M  V30 40 1 38 12
M  V30 41 1 39 13
M  V30 42 1 40 14
M  V30 43 1 41 15
M  V30 44 1 42 17
M  V30 45 1 43 17
M  V30 46 1 44 18
M  V30 47 1 45 18
M  V30 48 1 46 20
M  V30 49 1 47 21
M  V30 50 1 48 24
M  V30 51 1 49 25
M  V30 52 1 7 50 CFG=1
M  V30 END BOND
M  V30 END CTAB
M  END
>  <b_m_subgroup_collapsed>  (1161) 
0

>  <r_i_docking_score>  (1161) 
-7.4176882704157299

>  <s_m_subgroup_title>  (1161) 
glide-dock_SP_D22_pv

>  <s_m_subgroupid>  (1161) 
glide-dock_SP_D22_pv

>  <Molecule ChEMBL ID>  (1161) 
CHEMBL210101

>  <Standard Type>  (1161) 
Ki

>  <Standard Value>  (1161) 
25.3

>  <label>  (1161) 
1

$$$$
CHEMBL515853
     RDKit          3D

  0  0  0  0  0  0  0  0  0  0999 V3000
M  V30 BEGIN CTAB
M  V30 COUNTS 63 66 0 0 1
M  V30 BEGIN ATOM
M  V30 1 C 6.707500 0.678036 -19.537283 0
M  V30 2 O 7.338866 1.772100 -18.888512 0
M  V30 3 C 8.416287 1.509836 -18.069828 0
M  V30 4 C 8.982127 0.222316 -17.889648 0
M  V30 5 C 10.070792 0.039333 -17.015274 0
M  V30 6 C 10.597980 1.132146 -16.302143 0
M  V30 7 C 10.033383 2.415402 -16.457924 0
M  V30 8 C 10.537825 3.574264 -15.609834 0
M  V30 9 C 10.136460 3.488183 -14.117033 0
M  V30 10 C 8.630789 3.483788 -13.847300 0
M  V30 11 C 7.866134 2.363811 -14.246940 0
M  V30 12 C 6.486413 2.304380 -13.993657 0
M  V30 13 C 5.850557 3.368991 -13.335704 0
M  V30 14 C 6.599628 4.481912 -12.920067 0
M  V30 15 C 8.000897 4.554981 -13.152833 0
M  V30 16 O 8.775808 5.616735 -12.713568 0
M  V30 17 C 8.135425 6.600462 -11.904135 0
M  V30 18 C 9.097550 7.690905 -11.389768 0
M  V30 19 N 10.025043 7.273900 -10.330288 0
M  V30 20 C 10.831072 8.449801 -9.973006 0
M  V30 21 C 11.887762 8.089078 -8.913622 0
M  V30 22 N 11.259391 7.488118 -7.741653 0
M  V30 23 C 11.285170 8.111642 -6.482774 0
M  V30 24 C 11.201681 9.515983 -6.369154 0
M  V30 25 C 11.324990 10.142782 -5.115506 0
M  V30 26 C 11.603545 9.372843 -3.969618 0
M  V30 27 C 11.686019 7.970128 -4.071483 0
M  V30 28 Cl 12.066967 7.025491 -2.677968 0
M  V30 29 C 11.465851 7.339203 -5.313067 0
M  V30 30 C 10.323668 6.407429 -8.017670 0
M  V30 31 C 9.320806 6.832426 -9.112835 0
M  V30 32 C 8.963190 2.597066 -17.359964 0
M  V30 33 H 5.852598 1.041979 -20.107460 0
M  V30 34 H 7.384776 0.185496 -20.236162 0
M  V30 35 H 6.337793 -0.050783 -18.815283 0
M  V30 36 H 8.594759 -0.643067 -18.402811 0
M  V30 37 H 10.487073 -0.947225 -16.878511 0
M  V30 38 H 11.416049 0.979616 -15.616104 0
M  V30 39 H 10.174137 4.514608 -16.027544 0
M  V30 40 H 11.624171 3.609347 -15.692293 0
M  V30 41 H 10.616896 4.302618 -13.577053 0
M  V30 42 H 10.548738 2.575594 -13.685560 0
M  V30 43 H 8.335561 1.518739 -14.729046 0
M  V30 44 H 5.919390 1.436324 -14.295795 0
M  V30 45 H 4.789672 3.325919 -13.134560 0
M  V30 46 H 6.062664 5.265581 -12.407538 0
M  V30 47 H 7.382785 7.100926 -12.517139 0
M  V30 48 H 7.605174 6.135030 -11.077013 0
M  V30 49 H 9.665976 8.079642 -12.236093 0
M  V30 50 H 8.493263 8.521351 -11.021103 0
M  V30 51 H 11.338934 8.833238 -10.859106 0
M  V30 52 H 10.189737 9.250048 -9.601302 0
M  V30 53 H 12.591681 7.374386 -9.338099 0
M  V30 54 H 12.473460 8.968330 -8.647010 0
M  V30 55 H 11.046979 10.126542 -7.244119 0
M  V30 56 H 11.251059 11.217087 -5.045974 0
M  V30 57 H 11.749226 9.856160 -3.014422 0
M  V30 58 H 11.534879 6.263674 -5.379000 0
M  V30 59 H 10.884544 5.529323 -8.337683 0
M  V30 60 H 9.780046 6.123698 -7.114731 0
M  V30 61 H 8.669301 7.626639 -8.744345 0
M  V30 62 H 8.684573 5.974732 -9.322967 0
M  V30 63 H 8.527068 3.577970 -17.482038 0
M  V30 END ATOM
M  V30 BEGIN BOND
M  V30 1 1 2 1
M  V30 2 1 3 2
M  V30 3 2 4 3
M  V30 4 1 5 4
M  V30 5 2 6 5
M  V30 6 1 7 6
M  V30 7 1 8 7
M  V30 8 1 9 8
M  V30 9 1 10 9
M  V30 10 2 11 10
M  V30 11 1 12 11
M  V30 12 2 13 12
M  V30 13 1 14 13
M  V30 14 1 15 10
M  V30 15 2 15 14
M  V30 16 1 16 15
M  V30 17 1 17 16
M  V30 18 1 18 17
M  V30 19 1 19 18
M  V30 20 1 20 19
M  V30 21 1 21 20
M  V30 22 1 22 21
M  V30 23 1 23 22
M  V30 24 2 24 23
M  V30 25 1 25 24
M  V30 26 2 26 25
M  V30 27 1 27 26
M  V30 28 1 28 27
M  V30 29 1 29 23
M  V30 30 2 29 27
M  V30 31 1 30 22
M  V30 32 1 31 19
M  V30 33 1 31 30
M  V30 34 1 32 3
M  V30 35 2 32 7
M  V30 36 1 33 1
M  V30 37 1 34 1
M  V30 38 1 35 1
M  V30 39 1 36 4
M  V30 40 1 37 5
M  V30 41 1 38 6
M  V30 42 1 39 8
M  V30 43 1 40 8
M  V30 44 1 41 9
M  V30 45 1 42 9
M  V30 46 1 43 11
M  V30 47 1 44 12
M  V30 48 1 45 13
M  V30 49 1 46 14
M  V30 50 1 47 17
M  V30 51 1 48 17
M  V30 52 1 49 18
M  V30 53 1 50 18
M  V30 54 1 51 20
M  V30 55 1 52 20
M  V30 56 1 53 21
M  V30 57 1 54 21
M  V30 58 1 55 24
M  V30 59 1 56 25
M  V30 60 1 57 26
M  V30 61 1 58 29
M  V30 62 1 59 30
M  V30 63 1 60 30
M  V30 64 1 61 31
M  V30 65 1 62 31
M  V30 66 1 63 32
M  V30 END BOND
M  V30 END CTAB
M  END
>  <b_m_subgroup_collapsed>  (1162) 
0

>  <r_i_docking_score>  (1162) 
-7.4175792064778596

>  <s_m_subgroup_title>  (1162) 
glide-dock_SP_D22_pv

>  <s_m_subgroupid>  (1162) 
glide-dock_SP_D22_pv

>  <Molecule ChEMBL ID>  (1162) 
CHEMBL515853

>  <Standard Type>  (1162) 
Ki

>  <Standard Value>  (1162) 
1000000.0

>  <label>  (1162) 
0

$$$$
CHEMBL596866
     RDKit          3D

  0  0  0  0  0  0  0  0  0  0999 V3000
M  V30 BEGIN CTAB
M  V30 COUNTS 53 56 0 0 1
M  V30 BEGIN ATOM
M  V30 1 C 12.485906 9.124447 -3.512213 0
M  V30 2 C 12.135317 8.495927 -4.646945 0
M  V30 3 C 11.720131 7.027377 -4.618223 0
M  V30 4 C 12.141501 9.234858 -5.993096 0
M  V30 5 C 11.319542 8.598716 -7.114821 0
M  V30 6 C 9.977475 8.314670 -6.821646 0
M  V30 7 C 9.186300 7.656878 -7.757454 0
M  V30 8 C 9.699508 7.370314 -9.030766 0
M  V30 9 C 11.005058 7.729702 -9.424333 0
M  V30 10 C 11.838701 8.308468 -8.411906 0
M  V30 11 O 13.157780 8.572229 -8.646533 0
M  V30 12 C 11.374469 7.455595 -10.856127 0
M  V30 13 C 12.485888 8.054066 -11.496684 0
M  V30 14 C 12.853821 7.772382 -12.827914 0
M  V30 15 C 12.121023 6.864069 -13.600815 0
M  V30 16 C 11.008211 6.224322 -13.044737 0
M  V30 17 C 10.635005 6.572443 -11.712364 0
M  V30 18 C 9.454079 5.859138 -11.052341 0 CFG=1
M  V30 19 C 8.779852 6.756985 -10.034839 0
M  V30 20 N 8.484510 5.229684 -11.992727 0 CFG=1 CHG=1
M  V30 21 C 7.526564 6.130836 -12.704535 0
M  V30 22 C 6.062109 5.719413 -12.491652 0
M  V30 23 C 5.700521 4.359088 -13.107413 0
M  V30 24 C 9.228070 4.338526 -12.902820 0
M  V30 25 C 10.188419 5.160518 -13.772762 0
M  V30 26 H 12.480431 8.609855 -2.562436 0
M  V30 27 H 12.782821 10.162215 -3.506907 0
M  V30 28 H 12.100956 6.476455 -5.475936 0
M  V30 29 H 10.636863 6.924403 -4.642059 0
M  V30 30 H 12.077501 6.531827 -3.714323 0
M  V30 31 H 11.759558 10.244066 -5.833413 0
M  V30 32 H 13.177560 9.372438 -6.299393 0
M  V30 33 H 9.562446 8.557233 -5.854939 0
M  V30 34 H 8.167976 7.405415 -7.501076 0
M  V30 35 H 13.324790 9.238402 -9.306786 0
M  V30 36 H 13.091002 8.785991 -10.995775 0
M  V30 37 H 13.702893 8.272620 -13.263102 0
M  V30 38 H 12.429541 6.644681 -14.612788 0
M  V30 39 H 9.894236 5.037544 -10.484038 0
M  V30 40 H 7.938317 6.252794 -9.556203 0
M  V30 41 H 8.485914 7.658145 -10.558462 0
M  V30 42 H 7.652441 7.174663 -12.425234 0
M  V30 43 H 7.700175 6.116914 -13.775764 0
M  V30 44 H 5.816695 5.727845 -11.433855 0
M  V30 45 H 5.421965 6.479986 -12.942167 0
M  V30 46 H 4.631172 4.164783 -13.021770 0
M  V30 47 H 6.220522 3.541824 -12.607848 0
M  V30 48 H 5.951416 4.323277 -14.168240 0
M  V30 49 H 9.789249 3.612183 -12.311767 0
M  V30 50 H 8.546031 3.759481 -13.526066 0
M  V30 51 H 9.657050 5.648981 -14.588563 0
M  V30 52 H 10.884883 4.477275 -14.260650 0
M  V30 53 H 7.900302 4.644032 -11.411970 0
M  V30 END ATOM
M  V30 BEGIN BOND
M  V30 1 2 2 1
M  V30 2 1 3 2
M  V30 3 1 4 2
M  V30 4 1 5 4
M  V30 5 1 6 5
M  V30 6 2 7 6
M  V30 7 1 8 7
M  V30 8 2 9 8
M  V30 9 2 10 5
M  V30 10 1 10 9
M  V30 11 1 11 10
M  V30 12 1 12 9
M  V30 13 2 13 12
M  V30 14 1 14 13
M  V30 15 2 15 14
M  V30 16 1 16 15
M  V30 17 1 17 12
M  V30 18 2 17 16
M  V30 19 1 18 17
M  V30 20 1 19 8
M  V30 21 1 19 18
M  V30 22 1 20 18
M  V30 23 1 21 20
M  V30 24 1 22 21
M  V30 25 1 23 22
M  V30 26 1 24 20
M  V30 27 1 25 16
M  V30 28 1 25 24
M  V30 29 1 26 1
M  V30 30 1 27 1
M  V30 31 1 28 3
M  V30 32 1 29 3
M  V30 33 1 30 3
M  V30 34 1 31 4
M  V30 35 1 32 4
M  V30 36 1 33 6
M  V30 37 1 34 7
M  V30 38 1 35 11
M  V30 39 1 36 13
M  V30 40 1 37 14
M  V30 41 1 38 15
M  V30 42 1 18 39 CFG=1
M  V30 43 1 40 19
M  V30 44 1 41 19
M  V30 45 1 42 21
M  V30 46 1 43 21
M  V30 47 1 44 22
M  V30 48 1 45 22
M  V30 49 1 46 23
M  V30 50 1 47 23
M  V30 51 1 48 23
M  V30 52 1 49 24
M  V30 53 1 50 24
M  V30 54 1 51 25
M  V30 55 1 52 25
M  V30 56 1 20 53 CFG=1
M  V30 END BOND
M  V30 END CTAB
M  END
>  <b_m_subgroup_collapsed>  (1163) 
0

>  <r_i_docking_score>  (1163) 
-7.4171368231363601

>  <s_m_subgroup_title>  (1163) 
glide-dock_SP_D22_pv

>  <s_m_subgroupid>  (1163) 
glide-dock_SP_D22_pv

>  <Molecule ChEMBL ID>  (1163) 
CHEMBL596866

>  <Standard Type>  (1163) 
Ki

>  <Standard Value>  (1163) 
10000.0

>  <label>  (1163) 
0

$$$$
CHEMBL346398
     RDKit          3D

  0  0  0  0  0  0  0  0  0  0999 V3000
M  V30 BEGIN CTAB
M  V30 COUNTS 50 53 0 0 1
M  V30 BEGIN ATOM
M  V30 1 C 11.839379 2.757844 -16.148489 0
M  V30 2 C 10.981406 3.551594 -15.184361 0
M  V30 3 C 9.606529 3.271025 -15.069757 0
M  V30 4 C 8.794195 4.048261 -14.222187 0
M  V30 5 C 9.337819 5.113192 -13.468054 0
M  V30 6 C 8.390258 5.987095 -12.631323 0 CFG=1
M  V30 7 C 7.578660 5.184461 -11.592753 0
M  V30 8 C 8.415443 4.842464 -10.352801 0
M  V30 9 N 8.956186 6.063694 -9.700140 0 CFG=1 CHG=1
M  V30 10 C 9.637027 5.704551 -8.423684 0
M  V30 11 C 10.121202 6.842629 -7.525565 0
M  V30 12 C 9.755226 8.185724 -7.720222 0
M  V30 13 C 10.287107 9.163168 -6.865810 0
M  V30 14 C 11.025989 8.846051 -5.723855 0
M  V30 15 C 11.286360 7.500928 -5.457716 0
M  V30 16 C 10.932415 6.536201 -6.411499 0
M  V30 17 N 11.915524 7.152428 -4.246453 0
M  V30 18 C 12.086047 8.036563 -3.255685 0
M  V30 19 O 12.486482 7.698339 -2.147156 0
M  V30 20 C 11.674758 9.498946 -3.514608 0
M  V30 21 O 11.508827 9.831187 -4.898539 0
M  V30 22 C 9.819121 6.805256 -10.658319 0
M  V30 23 C 9.036898 7.201173 -11.925453 0
M  V30 24 C 10.726487 5.372080 -13.576190 0
M  V30 25 C 11.541367 4.595466 -14.422277 0
M  V30 26 H 12.847848 3.168120 -16.202875 0
M  V30 27 H 11.904685 1.713906 -15.845531 0
M  V30 28 H 11.410899 2.794966 -17.150488 0
M  V30 29 H 9.166854 2.473041 -15.650237 0
M  V30 30 H 7.736041 3.834131 -14.180120 0
M  V30 31 H 7.678397 6.386682 -13.355002 0
M  V30 32 H 6.717916 5.772657 -11.274764 0
M  V30 33 H 7.156406 4.277289 -12.024549 0
M  V30 34 H 9.241767 4.187827 -10.636337 0
M  V30 35 H 7.803831 4.277544 -9.650487 0
M  V30 36 H 10.485155 5.055667 -8.646759 0
M  V30 37 H 8.944909 5.110251 -7.827369 0
M  V30 38 H 9.104746 8.493048 -8.526024 0
M  V30 39 H 10.085519 10.177405 -7.047894 0
M  V30 40 H 11.265439 5.527801 -6.257783 0
M  V30 41 H 12.127617 6.180898 -4.073868 0
M  V30 42 H 12.399114 10.168949 -3.048913 0
M  V30 43 H 10.718122 9.685705 -3.046233 0
M  V30 44 H 10.248808 7.702351 -10.219975 0
M  V30 45 H 10.664512 6.172503 -10.910749 0
M  V30 46 H 8.245901 7.894186 -11.634587 0
M  V30 47 H 9.666726 7.767850 -12.610079 0
M  V30 48 H 11.195504 6.187476 -13.049905 0
M  V30 49 H 12.593806 4.826978 -14.504483 0
M  V30 50 H 8.161357 6.656291 -9.478275 0
M  V30 END ATOM
M  V30 BEGIN BOND
M  V30 1 1 2 1
M  V30 2 1 3 2
M  V30 3 2 4 3
M  V30 4 1 5 4
M  V30 5 1 6 5
M  V30 6 1 7 6
M  V30 7 1 8 7
M  V30 8 1 9 8
M  V30 9 1 10 9
M  V30 10 1 11 10
M  V30 11 1 12 11
M  V30 12 2 13 12
M  V30 13 1 14 13
M  V30 14 2 15 14
M  V30 15 2 16 11
M  V30 16 1 16 15
M  V30 17 1 17 15
M  V30 18 1 18 17
M  V30 19 2 19 18
M  V30 20 1 20 18
M  V30 21 1 21 14
M  V30 22 1 21 20
M  V30 23 1 22 9
M  V30 24 1 23 6
M  V30 25 1 23 22
M  V30 26 2 24 5
M  V30 27 2 25 2
M  V30 28 1 25 24
M  V30 29 1 26 1
M  V30 30 1 27 1
M  V30 31 1 28 1
M  V30 32 1 29 3
M  V30 33 1 30 4
M  V30 34 1 6 31 CFG=3
M  V30 35 1 32 7
M  V30 36 1 33 7
M  V30 37 1 34 8
M  V30 38 1 35 8
M  V30 39 1 36 10
M  V30 40 1 37 10
M  V30 41 1 38 12
M  V30 42 1 39 13
M  V30 43 1 40 16
M  V30 44 1 41 17
M  V30 45 1 42 20
M  V30 46 1 43 20
M  V30 47 1 44 22
M  V30 48 1 45 22
M  V30 49 1 46 23
M  V30 50 1 47 23
M  V30 51 1 48 24
M  V30 52 1 49 25
M  V30 53 1 9 50 CFG=1
M  V30 END BOND
M  V30 END CTAB
M  END
>  <b_m_subgroup_collapsed>  (1164) 
0

>  <r_i_docking_score>  (1164) 
-7.4167110718296998

>  <s_m_subgroup_title>  (1164) 
glide-dock_SP_D22_pv

>  <s_m_subgroupid>  (1164) 
glide-dock_SP_D22_pv

>  <Molecule ChEMBL ID>  (1164) 
CHEMBL346398

>  <Standard Type>  (1164) 
Ki

>  <Standard Value>  (1164) 
52.5

>  <label>  (1164) 
1

$$$$
CHEMBL1258833
     RDKit          3D

  0  0  0  0  0  0  0  0  0  0999 V3000
M  V30 BEGIN CTAB
M  V30 COUNTS 57 61 0 0 1
M  V30 BEGIN ATOM
M  V30 1 C 5.293207 0.588059 -12.858673 0
M  V30 2 C 5.877693 0.430058 -14.224328 0
M  V30 3 N 5.384838 -0.523876 -15.101232 0
M  V30 4 C 6.132087 -0.391052 -16.193041 0
M  V30 5 O 7.072947 0.586482 -16.101879 0
M  V30 6 C 6.906000 1.102220 -14.842812 0
M  V30 7 C 7.761929 2.216472 -14.445408 0
M  V30 8 N 9.084279 2.206536 -14.647381 0
M  V30 9 N 9.552665 3.416200 -14.179807 0
M  V30 10 C 8.471241 4.067601 -13.754746 0
M  V30 11 S 8.489386 5.691628 -13.079392 0
M  V30 12 C 8.267118 5.247663 -11.348143 0
M  V30 13 C 9.623112 4.908297 -10.723739 0
M  V30 14 C 9.550235 4.347010 -9.295946 0
M  V30 15 N 9.553246 5.349693 -8.222440 0 CFG=2 CHG=1
M  V30 16 C 8.358876 6.172730 -8.046898 0
M  V30 17 C 8.759293 7.093789 -6.920851 0
M  V30 18 C 10.211960 7.426091 -7.272438 0 CFG=1
M  V30 19 C 10.319622 8.709540 -8.142560 0
M  V30 20 C 11.490735 9.522297 -7.570596 0
M  V30 21 C 11.686776 8.968884 -6.210039 0
M  V30 22 C 12.425936 9.544339 -5.171863 0
M  V30 23 C 12.486323 8.853379 -3.945767 0
M  V30 24 C 11.906988 7.570413 -3.835092 0
M  V30 25 Br 12.091995 6.575348 -2.247328 0
M  V30 26 C 11.178652 7.005801 -4.895656 0
M  V30 27 C 11.034238 7.762495 -6.064543 0
M  V30 28 C 10.748106 6.180148 -7.998842 0
M  V30 29 N 7.328223 3.376248 -13.903177 0
M  V30 30 C 5.979305 3.808158 -13.594369 0
M  V30 31 H 4.729559 1.513186 -12.763777 0
M  V30 32 H 4.599003 -0.220032 -12.648458 0
M  V30 33 H 6.066530 0.576425 -12.092286 0
M  V30 34 H 6.022130 -0.986486 -17.087133 0
M  V30 35 H 7.796647 6.102176 -10.873518 0
M  V30 36 H 7.571113 4.414387 -11.253964 0
M  V30 37 H 10.085834 4.141016 -11.344824 0
M  V30 38 H 10.278882 5.775124 -10.784901 0
M  V30 39 H 8.640636 3.773024 -9.140600 0
M  V30 40 H 10.387136 3.668871 -9.119037 0
M  V30 41 H 8.152131 6.764154 -8.931964 0
M  V30 42 H 7.491812 5.564798 -7.800643 0
M  V30 43 H 8.101799 7.955434 -6.797542 0
M  V30 44 H 8.723245 6.519580 -5.998357 0
M  V30 45 H 10.406330 8.525264 -9.213423 0
M  V30 46 H 9.418325 9.310684 -8.011958 0
M  V30 47 H 11.286163 10.572416 -7.451263 0
M  V30 48 H 12.400613 9.371407 -8.151925 0
M  V30 49 H 12.931293 10.483059 -5.334783 0
M  V30 50 H 13.028958 9.278105 -3.113957 0
M  V30 51 H 10.708974 6.041408 -4.782959 0
M  V30 52 H 11.437529 5.612454 -7.374388 0
M  V30 53 H 11.281442 6.441739 -8.912212 0
M  V30 54 H 5.865292 4.877420 -13.769888 0
M  V30 55 H 5.285439 3.291682 -14.246206 0
M  V30 56 H 5.743570 3.590397 -12.552865 0
M  V30 57 H 9.528008 4.786071 -7.385701 0
M  V30 END ATOM
M  V30 BEGIN BOND
M  V30 1 1 2 1
M  V30 2 1 3 2
M  V30 3 2 4 3
M  V30 4 1 5 4
M  V30 5 2 6 2
M  V30 6 1 6 5
M  V30 7 1 7 6
M  V30 8 2 8 7
M  V30 9 1 9 8
M  V30 10 2 10 9
M  V30 11 1 11 10
M  V30 12 1 12 11
M  V30 13 1 13 12
M  V30 14 1 14 13
M  V30 15 1 15 14
M  V30 16 1 16 15
M  V30 17 1 17 16
M  V30 18 1 18 17 CFG=1
M  V30 19 1 19 18
M  V30 20 1 20 19
M  V30 21 1 21 20
M  V30 22 1 22 21
M  V30 23 2 23 22
M  V30 24 1 24 23
M  V30 25 1 25 24
M  V30 26 2 26 24
M  V30 27 1 27 18
M  V30 28 2 27 21
M  V30 29 1 27 26
M  V30 30 1 28 15
M  V30 31 1 28 18
M  V30 32 1 29 7
M  V30 33 1 29 10
M  V30 34 1 30 29
M  V30 35 1 31 1
M  V30 36 1 32 1
M  V30 37 1 33 1
M  V30 38 1 34 4
M  V30 39 1 35 12
M  V30 40 1 36 12
M  V30 41 1 37 13
M  V30 42 1 38 13
M  V30 43 1 39 14
M  V30 44 1 40 14
M  V30 45 1 41 16
M  V30 46 1 42 16
M  V30 47 1 43 17
M  V30 48 1 44 17
M  V30 49 1 45 19
M  V30 50 1 46 19
M  V30 51 1 47 20
M  V30 52 1 48 20
M  V30 53 1 49 22
M  V30 54 1 50 23
M  V30 55 1 51 26
M  V30 56 1 52 28
M  V30 57 1 53 28
M  V30 58 1 54 30
M  V30 59 1 55 30
M  V30 60 1 56 30
M  V30 61 1 15 57 CFG=1
M  V30 END BOND
M  V30 END CTAB
M  END
>  <b_m_subgroup_collapsed>  (1165) 
0

>  <r_i_docking_score>  (1165) 
-7.4129809366124997

>  <s_m_subgroup_title>  (1165) 
glide-dock_SP_D22_pv

>  <s_m_subgroupid>  (1165) 
glide-dock_SP_D22_pv

>  <Molecule ChEMBL ID>  (1165) 
CHEMBL1258833

>  <Standard Type>  (1165) 
Ki

>  <Standard Value>  (1165) 
39.81

>  <label>  (1165) 
1

$$$$
CHEMBL104497
     RDKit          3D

  0  0  0  0  0  0  0  0  0  0999 V3000
M  V30 BEGIN CTAB
M  V30 COUNTS 57 60 0 0 1
M  V30 BEGIN ATOM
M  V30 1 C 7.382539 2.117393 -15.014659 0
M  V30 2 C 8.799989 2.073978 -14.409638 0 CFG=1
M  V30 3 C 9.759544 1.276079 -15.318101 0
M  V30 4 C 10.747850 2.310456 -15.756507 0
M  V30 5 C 11.744866 2.138552 -16.731640 0
M  V30 6 C 12.568062 3.237603 -17.046638 0
M  V30 7 C 12.386709 4.471534 -16.386003 0
M  V30 8 C 11.374931 4.629183 -15.414789 0
M  V30 9 C 10.546159 3.524170 -15.101626 0
M  V30 10 N 9.419369 3.410995 -14.231186 0
M  V30 11 C 8.977607 4.279340 -13.277738 0
M  V30 12 O 7.873180 4.150853 -12.749471 0
M  V30 13 C 9.841265 5.465944 -12.818873 0
M  V30 14 C 9.328499 6.226580 -11.570771 0 CFG=1
M  V30 15 C 9.445503 5.423116 -10.262057 0
M  V30 16 C 8.877048 6.218064 -9.081935 0
M  V30 17 N 9.564633 7.534090 -8.930387 0 CFG=2 CHG=1
M  V30 18 C 9.109491 8.302202 -7.742934 0
M  V30 19 C 10.105671 8.215295 -6.594541 0
M  V30 20 C 10.375263 6.971993 -5.997011 0
M  V30 21 C 11.179217 6.874886 -4.852026 0
M  V30 22 C 11.691728 8.036075 -4.240982 0
M  V30 23 N 12.370734 7.941168 -2.934336 0 CHG=1
M  V30 24 O 12.757479 8.972536 -2.399228 0
M  V30 25 O 12.485966 6.831944 -2.424854 0 CHG=-1
M  V30 26 C 11.492525 9.280713 -4.880982 0
M  V30 27 C 10.717959 9.370056 -6.058640 0
M  V30 28 C 9.513252 8.339507 -10.177651 0
M  V30 29 C 10.071575 7.559481 -11.381069 0
M  V30 30 H 6.983166 1.108140 -15.124968 0
M  V30 31 H 6.677212 2.667500 -14.392278 0
M  V30 32 H 7.390500 2.572108 -16.007341 0
M  V30 33 H 8.763753 1.566833 -13.447155 0
M  V30 34 H 9.262711 0.824560 -16.178892 0
M  V30 35 H 10.272444 0.488184 -14.761944 0
M  V30 36 H 11.877894 1.188639 -17.227396 0
M  V30 37 H 13.348368 3.131568 -17.786253 0
M  V30 38 H 13.024459 5.307089 -16.631920 0
M  V30 39 H 11.269936 5.602253 -14.974818 0
M  V30 40 H 10.865204 5.135461 -12.650527 0
M  V30 41 H 9.833125 6.172280 -13.640702 0
M  V30 42 H 8.273381 6.467577 -11.727368 0
M  V30 43 H 8.913703 4.475975 -10.341386 0
M  V30 44 H 10.485850 5.183994 -10.054033 0
M  V30 45 H 8.979274 5.618384 -8.182263 0
M  V30 46 H 7.806825 6.344778 -9.222877 0
M  V30 47 H 8.956838 9.353258 -7.994662 0
M  V30 48 H 8.139544 7.944418 -7.393698 0
M  V30 49 H 9.922864 6.069484 -6.366423 0
M  V30 50 H 11.319730 5.904068 -4.398993 0
M  V30 51 H 11.903951 10.174322 -4.440653 0
M  V30 52 H 10.543463 10.336719 -6.507050 0
M  V30 53 H 10.095993 9.252315 -10.041810 0
M  V30 54 H 8.486155 8.648370 -10.378509 0
M  V30 55 H 11.138344 7.375057 -11.242090 0
M  V30 56 H 9.979837 8.172070 -12.277220 0
M  V30 57 H 10.540128 7.330990 -8.769705 0
M  V30 END ATOM
M  V30 BEGIN BOND
M  V30 1 1 2 1
M  V30 2 1 3 2
M  V30 3 1 4 3
M  V30 4 2 5 4
M  V30 5 1 6 5
M  V30 6 2 7 6
M  V30 7 1 8 7
M  V30 8 1 9 4
M  V30 9 2 9 8
M  V30 10 1 10 2
M  V30 11 1 10 9
M  V30 12 1 11 10
M  V30 13 2 12 11
M  V30 14 1 13 11
M  V30 15 1 14 13
M  V30 16 1 15 14
M  V30 17 1 16 15
M  V30 18 1 17 16
M  V30 19 1 18 17
M  V30 20 1 19 18
M  V30 21 1 20 19
M  V30 22 2 21 20
M  V30 23 1 22 21
M  V30 24 1 23 22
M  V30 25 2 24 23
M  V30 26 1 25 23
M  V30 27 2 26 22
M  V30 28 2 27 19
M  V30 29 1 27 26
M  V30 30 1 28 17
M  V30 31 1 29 14
M  V30 32 1 29 28
M  V30 33 1 30 1
M  V30 34 1 31 1
M  V30 35 1 32 1
M  V30 36 1 2 33 CFG=1
M  V30 37 1 34 3
M  V30 38 1 35 3
M  V30 39 1 36 5
M  V30 40 1 37 6
M  V30 41 1 38 7
M  V30 42 1 39 8
M  V30 43 1 40 13
M  V30 44 1 41 13
M  V30 45 1 14 42 CFG=3
M  V30 46 1 43 15
M  V30 47 1 44 15
M  V30 48 1 45 16
M  V30 49 1 46 16
M  V30 50 1 47 18
M  V30 51 1 48 18
M  V30 52 1 49 20
M  V30 53 1 50 21
M  V30 54 1 51 26
M  V30 55 1 52 27
M  V30 56 1 53 28
M  V30 57 1 54 28
M  V30 58 1 55 29
M  V30 59 1 56 29
M  V30 60 1 17 57 CFG=1
M  V30 END BOND
M  V30 END CTAB
M  END
>  <b_m_subgroup_collapsed>  (1166) 
0

>  <r_i_docking_score>  (1166) 
-7.4123856424389496

>  <s_m_subgroup_title>  (1166) 
glide-dock_SP_D22_pv

>  <s_m_subgroupid>  (1166) 
glide-dock_SP_D22_pv

>  <Molecule ChEMBL ID>  (1166) 
CHEMBL104497

>  <Standard Type>  (1166) 
Ki

>  <Standard Value>  (1166) 
10000.0

>  <label>  (1166) 
0

$$$$
CHEMBL169193
     RDKit          3D

  0  0  0  0  0  0  0  0  0  0999 V3000
M  V30 BEGIN CTAB
M  V30 COUNTS 57 59 0 0 1
M  V30 BEGIN ATOM
M  V30 1 C 5.562375 0.018318 -14.251356 0
M  V30 2 N 6.778971 0.402826 -14.950233 0
M  V30 3 C 7.481828 1.539414 -14.518401 0
M  V30 4 C 6.823510 2.646736 -13.931813 0
M  V30 5 C 7.548327 3.769475 -13.448737 0
M  V30 6 O 6.926836 4.853563 -12.865855 0
M  V30 7 C 5.624112 4.671401 -12.338609 0
M  V30 8 C 8.964075 3.774904 -13.569433 0
M  V30 9 C 9.812361 4.918982 -13.078835 0
M  V30 10 O 10.851514 5.213632 -13.671039 0
M  V30 11 N 9.417238 5.551299 -11.959581 0
M  V30 12 C 10.085845 6.751112 -11.475180 0
M  V30 13 C 9.567125 7.291344 -10.125455 0 CFG=1
M  V30 14 C 9.797213 6.434125 -8.859278 0
M  V30 15 N 10.319404 7.357929 -7.814409 0 CFG=2 CHG=1
M  V30 16 C 9.917930 7.073066 -6.419949 0
M  V30 17 C 10.879518 7.661256 -5.383111 0
M  V30 18 C 10.886888 9.042507 -5.083498 0
M  V30 19 C 11.674860 9.529717 -4.020992 0
M  V30 20 C 12.448324 8.660251 -3.236286 0
M  V30 21 C 12.450570 7.288958 -3.529568 0
M  V30 22 C 11.685925 6.802106 -4.607710 0
M  V30 23 C 10.003472 8.722858 -8.266053 0
M  V30 24 C 10.181503 8.655099 -9.770608 0 CFG=1
M  V30 25 C 11.679668 8.806589 -10.117729 0
M  V30 26 C 9.609682 2.689150 -14.202837 0
M  V30 27 C 8.885052 1.576221 -14.663591 0
M  V30 28 Cl 9.743967 0.255438 -15.380094 0
M  V30 29 H 5.372169 -1.044142 -14.405701 0
M  V30 30 H 5.648809 0.191206 -13.177794 0
M  V30 31 H 4.704070 0.572492 -14.630658 0
M  V30 32 H 7.336604 -0.363743 -15.310703 0
M  V30 33 H 5.748064 2.621764 -13.854357 0
M  V30 34 H 5.357674 5.542600 -11.739384 0
M  V30 35 H 4.886046 4.575685 -13.135880 0
M  V30 36 H 5.570679 3.796299 -11.689135 0
M  V30 37 H 8.534065 5.283494 -11.545361 0
M  V30 38 H 9.947624 7.523301 -12.234533 0
M  V30 39 H 11.157988 6.572437 -11.420436 0
M  V30 40 H 8.487216 7.432032 -10.217560 0
M  V30 41 H 10.502822 5.621824 -9.031210 0
M  V30 42 H 8.851805 5.986610 -8.545547 0
M  V30 43 H 9.888638 5.993865 -6.287769 0
M  V30 44 H 8.901189 7.427348 -6.241268 0
M  V30 45 H 10.255915 9.731145 -5.624346 0
M  V30 46 H 11.672851 10.572656 -3.770795 0
M  V30 47 H 13.029684 9.046369 -2.411152 0
M  V30 48 H 13.035682 6.605815 -2.931647 0
M  V30 49 H 11.686438 5.748630 -4.810459 0
M  V30 50 H 8.968047 8.973688 -8.022402 0
M  V30 51 H 10.654900 9.467838 -7.811218 0
M  V30 52 H 9.606224 9.443368 -10.246889 0
M  V30 53 H 12.293901 8.043817 -9.638713 0
M  V30 54 H 11.873222 8.744910 -11.184623 0
M  V30 55 H 12.051921 9.772137 -9.790523 0
M  V30 56 H 10.684812 2.689983 -14.312691 0
M  V30 57 H 11.324496 7.272176 -7.852457 0
M  V30 END ATOM
M  V30 BEGIN BOND
M  V30 1 1 2 1
M  V30 2 1 3 2
M  V30 3 2 4 3
M  V30 4 1 5 4
M  V30 5 1 6 5
M  V30 6 1 7 6
M  V30 7 2 8 5
M  V30 8 1 9 8
M  V30 9 2 10 9
M  V30 10 1 11 9
M  V30 11 1 12 11
M  V30 12 1 13 12
M  V30 13 1 14 13
M  V30 14 1 15 14
M  V30 15 1 16 15
M  V30 16 1 17 16
M  V30 17 2 18 17
M  V30 18 1 19 18
M  V30 19 2 20 19
M  V30 20 1 21 20
M  V30 21 1 22 17
M  V30 22 2 22 21
M  V30 23 1 23 15
M  V30 24 1 24 13
M  V30 25 1 24 23
M  V30 26 1 25 24
M  V30 27 1 26 8
M  V30 28 1 27 3
M  V30 29 2 27 26
M  V30 30 1 28 27
M  V30 31 1 29 1
M  V30 32 1 30 1
M  V30 33 1 31 1
M  V30 34 1 32 2
M  V30 35 1 33 4
M  V30 36 1 34 7
M  V30 37 1 35 7
M  V30 38 1 36 7
M  V30 39 1 37 11
M  V30 40 1 38 12
M  V30 41 1 39 12
M  V30 42 1 13 40 CFG=3
M  V30 43 1 41 14
M  V30 44 1 42 14
M  V30 45 1 43 16
M  V30 46 1 44 16
M  V30 47 1 45 18
M  V30 48 1 46 19
M  V30 49 1 47 20
M  V30 50 1 48 21
M  V30 51 1 49 22
M  V30 52 1 50 23
M  V30 53 1 51 23
M  V30 54 1 24 52 CFG=3
M  V30 55 1 53 25
M  V30 56 1 54 25
M  V30 57 1 55 25
M  V30 58 1 56 26
M  V30 59 1 15 57 CFG=1
M  V30 END BOND
M  V30 END CTAB
M  END
>  <b_m_subgroup_collapsed>  (1167) 
0

>  <r_i_docking_score>  (1167) 
-7.4118804846176998

>  <s_m_subgroup_title>  (1167) 
glide-dock_SP_D22_pv

>  <s_m_subgroupid>  (1167) 
glide-dock_SP_D22_pv

>  <Molecule ChEMBL ID>  (1167) 
CHEMBL169193

>  <Standard Type>  (1167) 
Ki

>  <Standard Value>  (1167) 
79.0

>  <label>  (1167) 
1

$$$$
CHEMBL3084523
     RDKit          3D

  0  0  0  0  0  0  0  0  0  0999 V3000
M  V30 BEGIN CTAB
M  V30 COUNTS 55 60 0 0 1
M  V30 BEGIN ATOM
M  V30 1 O 11.850145 7.549067 -9.700235 0
M  V30 2 C 10.550587 7.371804 -9.175441 0 CFG=1
M  V30 3 C 10.705125 7.629239 -7.670721 0
M  V30 4 C 10.809540 6.579099 -6.734582 0
M  V30 5 C 11.167303 6.842722 -5.395223 0
M  V30 6 C 11.430422 8.159681 -4.974000 0
M  V30 7 Cl 11.983964 8.470629 -3.367875 0
M  V30 8 C 11.286355 9.220192 -5.883635 0
M  V30 9 C 10.932863 8.951306 -7.218668 0
M  V30 10 C 9.561981 8.377396 -9.820899 0
M  V30 11 C 9.126591 7.983410 -11.250668 0 CFG=1
M  V30 12 C 10.324785 7.774899 -12.148590 0
M  V30 13 C 10.556683 6.292775 -12.246673 0
M  V30 14 C 9.636577 5.762979 -11.105242 0 CFG=1
M  V30 15 C 10.085764 5.938163 -9.597660 0
M  V30 16 N 8.485901 6.656409 -11.284273 0 CFG=2 CHG=1
M  V30 17 C 7.673499 6.463935 -12.526276 0
M  V30 18 C 6.951891 5.152097 -12.611254 0
M  V30 19 C 5.760285 4.826420 -12.015854 0
M  V30 20 O 5.282982 3.568198 -12.302744 0
M  V30 21 C 6.172820 3.020125 -13.188859 0
M  V30 22 C 7.199351 3.960483 -13.352180 0
M  V30 23 C 8.279696 3.632863 -14.205047 0
M  V30 24 C 8.286929 2.384519 -14.873102 0
M  V30 25 C 7.218387 1.467670 -14.711780 0
M  V30 26 C 7.191398 0.247144 -15.416171 0
M  V30 27 C 6.094594 -0.627613 -15.270618 0
M  V30 28 C 5.035352 -0.310611 -14.401053 0
M  V30 29 C 5.065102 0.895245 -13.678768 0
M  V30 30 C 6.144170 1.784579 -13.846875 0
M  V30 31 H 12.167727 8.404190 -9.447632 0
M  V30 32 H 10.672039 5.558169 -7.048092 0
M  V30 33 H 11.276657 6.023335 -4.699379 0
M  V30 34 H 11.492604 10.233683 -5.572119 0
M  V30 35 H 10.901888 9.772142 -7.912581 0
M  V30 36 H 8.665215 8.442025 -9.202039 0
M  V30 37 H 9.981935 9.381639 -9.844436 0
M  V30 38 H 8.456985 8.754344 -11.637094 0
M  V30 39 H 11.224750 8.258819 -11.804726 0
M  V30 40 H 10.086939 8.290273 -13.046861 0
M  V30 41 H 11.634021 6.163167 -12.246856 0
M  V30 42 H 10.245581 5.909528 -13.216208 0
M  V30 43 H 9.360942 4.721643 -11.277023 0
M  V30 44 H 10.845985 5.218260 -9.324021 0
M  V30 45 H 9.224728 5.669058 -8.982818 0
M  V30 46 H 6.909121 7.242234 -12.550283 0
M  V30 47 H 8.235235 6.592353 -13.446895 0
M  V30 48 H 5.124243 5.387664 -11.348768 0
M  V30 49 H 9.089694 4.327736 -14.361825 0
M  V30 50 H 9.109739 2.142224 -15.529858 0
M  V30 51 H 7.998974 -0.020748 -16.081869 0
M  V30 52 H 6.074769 -1.555716 -15.823785 0
M  V30 53 H 4.198316 -0.986286 -14.302773 0
M  V30 54 H 4.234582 1.162184 -13.046718 0
M  V30 55 H 7.827931 6.624030 -10.510151 0
M  V30 END ATOM
M  V30 BEGIN BOND
M  V30 1 1 2 1 CFG=3
M  V30 2 1 3 2
M  V30 3 1 4 3
M  V30 4 2 5 4
M  V30 5 1 6 5
M  V30 6 1 7 6
M  V30 7 2 8 6
M  V30 8 2 9 3
M  V30 9 1 9 8
M  V30 10 1 10 2
M  V30 11 1 11 10
M  V30 12 1 12 11
M  V30 13 1 13 12
M  V30 14 1 14 13
M  V30 15 1 15 2
M  V30 16 1 15 14
M  V30 17 1 16 11
M  V30 18 1 16 14
M  V30 19 1 17 16
M  V30 20 1 18 17
M  V30 21 2 19 18
M  V30 22 1 20 19
M  V30 23 1 21 20
M  V30 24 1 22 18
M  V30 25 2 22 21
M  V30 26 1 23 22
M  V30 27 2 24 23
M  V30 28 1 25 24
M  V30 29 2 26 25
M  V30 30 1 27 26
M  V30 31 2 28 27
M  V30 32 1 29 28
M  V30 33 1 30 21
M  V30 34 1 30 25
M  V30 35 2 30 29
M  V30 36 1 31 1
M  V30 37 1 32 4
M  V30 38 1 33 5
M  V30 39 1 34 8
M  V30 40 1 35 9
M  V30 41 1 36 10
M  V30 42 1 37 10
M  V30 43 1 11 38 CFG=3
M  V30 44 1 39 12
M  V30 45 1 40 12
M  V30 46 1 41 13
M  V30 47 1 42 13
M  V30 48 1 14 43 CFG=3
M  V30 49 1 44 15
M  V30 50 1 45 15
M  V30 51 1 46 17
M  V30 52 1 47 17
M  V30 53 1 48 19
M  V30 54 1 49 23
M  V30 55 1 50 24
M  V30 56 1 51 26
M  V30 57 1 52 27
M  V30 58 1 53 28
M  V30 59 1 54 29
M  V30 60 1 16 55 CFG=1
M  V30 END BOND
M  V30 END CTAB
M  END
>  <b_m_subgroup_collapsed>  (1168) 
0

>  <r_i_docking_score>  (1168) 
-7.4083496399403304

>  <s_m_subgroup_title>  (1168) 
glide-dock_SP_D22_pv

>  <s_m_subgroupid>  (1168) 
glide-dock_SP_D22_pv

>  <Molecule ChEMBL ID>  (1168) 
CHEMBL3084523

>  <Standard Type>  (1168) 
Ki

>  <Standard Value>  (1168) 
5.6

>  <label>  (1168) 
1

$$$$
CHEMBL3322994
     RDKit          3D

  0  0  0  0  0  0  0  0  0  0999 V3000
M  V30 BEGIN CTAB
M  V30 COUNTS 56 59 0 0 1
M  V30 BEGIN ATOM
M  V30 1 O 11.686070 8.603722 -8.850057 0
M  V30 2 C 10.924201 8.014850 -8.086030 0
M  V30 3 N 9.912467 7.228009 -8.486708 0
M  V30 4 C 9.612625 6.854652 -9.867528 0
M  V30 5 C 9.312235 8.070397 -10.760724 0
M  V30 6 C 9.108006 7.757839 -12.246862 0
M  V30 7 C 7.814861 7.027960 -12.691110 0
M  V30 8 N 7.822663 5.539755 -12.600412 0 CHG=1
M  V30 9 C 8.815368 4.932894 -13.538909 0
M  V30 10 C 8.743073 3.400498 -13.592659 0
M  V30 11 N 7.373853 2.972325 -13.846866 0
M  V30 12 C 7.125993 1.918268 -14.757257 0
M  V30 13 C 7.754527 1.982822 -16.024645 0
M  V30 14 C 7.512800 1.014030 -17.014111 0
M  V30 15 C 6.624178 -0.040640 -16.755569 0
M  V30 16 C 6.001585 -0.139727 -15.499516 0
M  V30 17 Cl 4.886019 -1.427675 -15.226237 0
M  V30 18 C 6.262465 0.814028 -14.488448 0
M  V30 19 Cl 5.512541 0.572327 -12.945855 0
M  V30 20 C 6.367323 3.468955 -12.913057 0
M  V30 21 C 6.440824 4.995833 -12.783674 0
M  V30 22 C 11.092618 8.088854 -6.617007 0
M  V30 23 C 11.286021 6.999739 -5.815062 0
M  V30 24 N 11.637650 7.492890 -4.576063 0
M  V30 25 C 12.024004 6.847398 -3.446836 0
M  V30 26 C 12.328980 7.568870 -2.325264 0
M  V30 27 C 12.199533 8.972324 -2.323199 0
M  V30 28 C 11.792286 9.629969 -3.458893 0
M  V30 29 C 11.535294 8.902874 -4.652329 0
M  V30 30 N 11.208576 9.271295 -5.890000 0
M  V30 31 H 9.325788 6.831928 -7.765997 0
M  V30 32 H 8.751225 6.186350 -9.852268 0
M  V30 33 H 10.452294 6.285752 -10.268885 0
M  V30 34 H 10.153279 8.760185 -10.729524 0
M  V30 35 H 8.486022 8.646270 -10.359059 0
M  V30 36 H 10.004165 7.286930 -12.646859 0
M  V30 37 H 9.075859 8.740132 -12.719366 0
M  V30 38 H 7.686022 7.253198 -13.742180 0
M  V30 39 H 6.926439 7.465023 -12.246864 0
M  V30 40 H 9.828557 5.215247 -13.257090 0
M  V30 41 H 8.646770 5.323359 -14.544079 0
M  V30 42 H 9.082281 2.980755 -12.646864 0
M  V30 43 H 9.438796 3.022661 -14.341359 0
M  V30 44 H 8.415239 2.801892 -16.267277 0
M  V30 45 H 7.997282 1.088232 -17.976725 0
M  V30 46 H 6.421205 -0.778872 -17.517963 0
M  V30 47 H 5.367909 3.209376 -13.263698 0
M  V30 48 H 6.486022 3.005517 -11.934185 0
M  V30 49 H 5.800454 5.333346 -11.966622 0
M  V30 50 H 6.000171 5.372324 -13.701172 0
M  V30 51 H 11.301968 5.938133 -6.011083 0
M  V30 52 H 12.086023 5.771072 -3.492164 0
M  V30 53 H 12.670695 7.042324 -1.446864 0
M  V30 54 H 12.425852 9.542022 -1.426785 0
M  V30 55 H 11.686009 10.705277 -3.450018 0
M  V30 56 H 8.094066 5.291994 -11.659536 0
M  V30 END ATOM
M  V30 BEGIN BOND
M  V30 1 2 2 1
M  V30 2 1 3 2
M  V30 3 1 4 3
M  V30 4 1 5 4
M  V30 5 1 6 5
M  V30 6 1 7 6
M  V30 7 1 8 7
M  V30 8 1 9 8
M  V30 9 1 10 9
M  V30 10 1 11 10
M  V30 11 1 12 11
M  V30 12 2 13 12
M  V30 13 1 14 13
M  V30 14 2 15 14
M  V30 15 1 16 15
M  V30 16 1 17 16
M  V30 17 1 18 12
M  V30 18 2 18 16
M  V30 19 1 19 18
M  V30 20 1 20 11
M  V30 21 1 21 8
M  V30 22 1 21 20
M  V30 23 1 22 2
M  V30 24 2 23 22
M  V30 25 1 24 23
M  V30 26 1 25 24
M  V30 27 2 26 25
M  V30 28 1 27 26
M  V30 29 2 28 27
M  V30 30 1 29 24
M  V30 31 1 29 28
M  V30 32 1 30 22
M  V30 33 2 30 29
M  V30 34 1 31 3
M  V30 35 1 32 4
M  V30 36 1 33 4
M  V30 37 1 34 5
M  V30 38 1 35 5
M  V30 39 1 36 6
M  V30 40 1 37 6
M  V30 41 1 38 7
M  V30 42 1 39 7
M  V30 43 1 40 9
M  V30 44 1 41 9
M  V30 45 1 42 10
M  V30 46 1 43 10
M  V30 47 1 44 13
M  V30 48 1 45 14
M  V30 49 1 46 15
M  V30 50 1 47 20
M  V30 51 1 48 20
M  V30 52 1 49 21
M  V30 53 1 50 21
M  V30 54 1 51 23
M  V30 55 1 52 25
M  V30 56 1 53 26
M  V30 57 1 54 27
M  V30 58 1 55 28
M  V30 59 1 56 8
M  V30 END BOND
M  V30 END CTAB
M  END
>  <b_m_subgroup_collapsed>  (1169) 
0

>  <r_i_docking_score>  (1169) 
-7.4069156234015399

>  <s_m_subgroup_title>  (1169) 
glide-dock_SP_D22_pv

>  <s_m_subgroupid>  (1169) 
glide-dock_SP_D22_pv

>  <Molecule ChEMBL ID>  (1169) 
CHEMBL3322994

>  <Standard Type>  (1169) 
Ki

>  <Standard Value>  (1169) 
12.0

>  <label>  (1169) 
1

$$$$
CHEMBL485719
     RDKit          3D

  0  0  0  0  0  0  0  0  0  0999 V3000
M  V30 BEGIN CTAB
M  V30 COUNTS 66 68 0 0 1
M  V30 BEGIN ATOM
M  V30 1 C 3.860256 -1.018613 -14.521311 0
M  V30 2 O 4.308912 -0.204555 -13.447230 0
M  V30 3 C 5.295240 0.709164 -13.742603 0
M  V30 4 C 5.284292 1.935941 -13.046371 0
M  V30 5 C 6.191229 2.959382 -13.377638 0
M  V30 6 C 7.158091 2.737906 -14.372615 0
M  V30 7 C 7.212646 1.502496 -15.047178 0
M  V30 8 C 8.223573 1.299278 -16.156290 0
M  V30 9 C 9.464351 0.504232 -15.726132 0
M  V30 10 C 10.454986 0.435950 -16.875328 0
M  V30 11 C 10.331320 -0.599544 -17.821543 0
M  V30 12 C 11.170318 -0.628909 -18.948668 0
M  V30 13 C 12.141910 0.369141 -19.131887 0
M  V30 14 C 12.270316 1.405765 -18.188513 0
M  V30 15 C 11.428485 1.448688 -17.049284 0
M  V30 16 O 11.506292 2.427607 -16.085270 0
M  V30 17 C 12.137238 3.658508 -16.406593 0
M  V30 18 C 12.054667 4.568192 -15.174797 0
M  V30 19 C 10.618153 4.786942 -14.665844 0
M  V30 20 C 10.596231 5.533234 -13.327034 0
M  V30 21 C 9.236063 5.500497 -12.617551 0
M  V30 22 N 9.438201 5.867299 -11.219567 0
M  V30 23 C 8.388777 5.309022 -10.369296 0
M  V30 24 C 8.774114 5.554909 -8.899849 0
M  V30 25 N 8.886061 7.008172 -8.647018 0 CHG=1
M  V30 26 C 9.132242 7.337665 -7.228167 0
M  V30 27 C 9.842228 7.643429 -9.583025 0
M  V30 28 C 9.457623 7.321033 -11.039660 0
M  V30 29 C 6.286790 0.486756 -14.729777 0
M  V30 30 H 2.895615 -1.450202 -14.258444 0
M  V30 31 H 3.719252 -0.441957 -15.436902 0
M  V30 32 H 4.561552 -1.828054 -14.717843 0
M  V30 33 H 4.536794 2.117971 -12.289683 0
M  V30 34 H 6.148317 3.908342 -12.862957 0
M  V30 35 H 7.844244 3.528053 -14.638225 0
M  V30 36 H 8.529914 2.276958 -16.532766 0
M  V30 37 H 7.729771 0.796953 -16.989689 0
M  V30 38 H 9.182209 -0.507255 -15.427366 0
M  V30 39 H 9.930655 0.962419 -14.852158 0
M  V30 40 H 9.577025 -1.363094 -17.697290 0
M  V30 41 H 11.061673 -1.427626 -19.667072 0
M  V30 42 H 12.787585 0.343591 -19.997749 0
M  V30 43 H 13.029099 2.153344 -18.358530 0
M  V30 44 H 13.188334 3.505211 -16.653301 0
M  V30 45 H 11.646003 4.125986 -17.262077 0
M  V30 46 H 12.653586 4.120571 -14.381423 0
M  V30 47 H 12.518327 5.529791 -15.398359 0
M  V30 48 H 10.026618 5.321892 -15.408570 0
M  V30 49 H 10.139511 3.817895 -14.528919 0
M  V30 50 H 11.307214 5.049519 -12.662320 0
M  V30 51 H 10.942797 6.558896 -13.460933 0
M  V30 52 H 8.495957 6.135461 -13.106134 0
M  V30 53 H 8.858212 4.477796 -12.661036 0
M  V30 54 H 7.420895 5.754772 -10.607843 0
M  V30 55 H 8.297747 4.236421 -10.542857 0
M  V30 56 H 8.013456 5.128420 -8.245799 0
M  V30 57 H 9.715920 5.056004 -8.661638 0
M  V30 58 H 10.102376 6.962149 -6.898602 0
M  V30 59 H 9.104858 8.416389 -7.072189 0
M  V30 60 H 8.357712 6.896899 -6.600338 0
M  V30 61 H 9.840094 8.724413 -9.435624 0
M  V30 62 H 10.854848 7.293109 -9.373526 0
M  V30 63 H 10.187953 7.775543 -11.709011 0
M  V30 64 H 8.486444 7.751459 -11.292704 0
M  V30 65 H 6.332807 -0.447922 -15.269868 0
M  V30 66 H 7.962829 7.371519 -8.877081 0
M  V30 END ATOM
M  V30 BEGIN BOND
M  V30 1 1 2 1
M  V30 2 1 3 2
M  V30 3 2 4 3
M  V30 4 1 5 4
M  V30 5 2 6 5
M  V30 6 1 7 6
M  V30 7 1 8 7
M  V30 8 1 9 8
M  V30 9 1 10 9
M  V30 10 2 11 10
M  V30 11 1 12 11
M  V30 12 2 13 12
M  V30 13 1 14 13
M  V30 14 1 15 10
M  V30 15 2 15 14
M  V30 16 1 16 15
M  V30 17 1 17 16
M  V30 18 1 18 17
M  V30 19 1 19 18
M  V30 20 1 20 19
M  V30 21 1 21 20
M  V30 22 1 22 21
M  V30 23 1 23 22
M  V30 24 1 24 23
M  V30 25 1 25 24
M  V30 26 1 26 25
M  V30 27 1 27 25
M  V30 28 1 28 22
M  V30 29 1 28 27
M  V30 30 1 29 3
M  V30 31 2 29 7
M  V30 32 1 30 1
M  V30 33 1 31 1
M  V30 34 1 32 1
M  V30 35 1 33 4
M  V30 36 1 34 5
M  V30 37 1 35 6
M  V30 38 1 36 8
M  V30 39 1 37 8
M  V30 40 1 38 9
M  V30 41 1 39 9
M  V30 42 1 40 11
M  V30 43 1 41 12
M  V30 44 1 42 13
M  V30 45 1 43 14
M  V30 46 1 44 17
M  V30 47 1 45 17
M  V30 48 1 46 18
M  V30 49 1 47 18
M  V30 50 1 48 19
M  V30 51 1 49 19
M  V30 52 1 50 20
M  V30 53 1 51 20
M  V30 54 1 52 21
M  V30 55 1 53 21
M  V30 56 1 54 23
M  V30 57 1 55 23
M  V30 58 1 56 24
M  V30 59 1 57 24
M  V30 60 1 58 26
M  V30 61 1 59 26
M  V30 62 1 60 26
M  V30 63 1 61 27
M  V30 64 1 62 27
M  V30 65 1 63 28
M  V30 66 1 64 28
M  V30 67 1 65 29
M  V30 68 1 66 25
M  V30 END BOND
M  V30 END CTAB
M  END
>  <b_m_subgroup_collapsed>  (1170) 
0

>  <r_i_docking_score>  (1170) 
-7.4068077294988504

>  <s_m_subgroup_title>  (1170) 
glide-dock_SP_D22_pv

>  <s_m_subgroupid>  (1170) 
glide-dock_SP_D22_pv

>  <Molecule ChEMBL ID>  (1170) 
CHEMBL485719

>  <Standard Type>  (1170) 
Ki

>  <Standard Value>  (1170) 
1000000.0

>  <label>  (1170) 
0

$$$$
CHEMBL4088639
     RDKit          3D

  0  0  0  0  0  0  0  0  0  0999 V3000
M  V30 BEGIN CTAB
M  V30 COUNTS 58 61 0 0 1
M  V30 BEGIN ATOM
M  V30 1 C 11.937618 10.634744 -6.246752 0
M  V30 2 O 11.035806 10.298354 -5.209256 0
M  V30 3 C 11.422429 9.185683 -4.509755 0
M  V30 4 C 11.980986 9.371988 -3.228228 0
M  V30 5 C 12.388681 8.269422 -2.459624 0
M  V30 6 C 12.241667 6.970248 -2.974365 0
M  V30 7 C 11.686024 6.778407 -4.252330 0
M  V30 8 C 11.270082 7.875852 -5.036539 0
M  V30 9 N 10.645814 7.636659 -6.275549 0
M  V30 10 C 9.396274 8.273335 -6.676713 0
M  V30 11 C 9.544502 8.893702 -8.079699 0
M  V30 12 N 10.016935 7.901737 -9.054728 0
M  V30 13 C 10.206610 8.556201 -10.349614 0
M  V30 14 C 10.217732 7.527959 -11.495969 0
M  V30 15 C 8.792111 7.143229 -11.912532 0
M  V30 16 C 8.699796 5.816604 -12.647587 0
M  V30 17 O 9.676571 5.372526 -13.250536 0
M  V30 18 N 7.487479 5.237880 -12.578334 0
M  V30 19 C 7.053735 3.977182 -13.060214 0
M  V30 20 C 5.767529 3.543668 -12.646365 0
M  V30 21 C 5.286592 2.314863 -13.027062 0
M  V30 22 N 6.061247 1.515177 -13.803163 0
M  V30 23 N 5.714298 0.266085 -14.250103 0
M  V30 24 C 6.757623 -0.115026 -14.954878 0
M  V30 25 C 7.815403 0.823469 -14.961843 0
M  V30 26 C 9.138727 0.753925 -15.556718 0
M  V30 27 O 9.613801 -0.216164 -16.142233 0
M  V30 28 C 7.342938 1.888984 -14.247106 0
M  V30 29 C 7.826891 3.167078 -13.873652 0
M  V30 30 C 11.288465 7.320361 -8.597926 0
M  V30 31 C 11.136971 6.647295 -7.219763 0
M  V30 32 H 11.547147 11.465382 -6.826271 0
M  V30 33 H 12.886756 10.961671 -5.847285 0
M  V30 34 H 12.137165 9.804419 -6.922754 0
M  V30 35 H 12.089026 10.369245 -2.829526 0
M  V30 36 H 12.808346 8.422492 -1.475516 0
M  V30 37 H 12.542152 6.116077 -2.385797 0
M  V30 38 H 11.556276 5.772285 -4.619836 0
M  V30 39 H 9.096942 9.032297 -5.961260 0
M  V30 40 H 8.598888 7.525578 -6.685002 0
M  V30 41 H 10.234130 9.732888 -8.048542 0
M  V30 42 H 8.580494 9.292921 -8.400735 0
M  V30 43 H 11.128977 9.141472 -10.344155 0
M  V30 44 H 9.393091 9.261388 -10.531415 0
M  V30 45 H 10.799926 6.643271 -11.236533 0
M  V30 46 H 10.715769 7.954033 -12.362250 0
M  V30 47 H 8.332783 7.933618 -12.507962 0
M  V30 48 H 8.176699 7.023070 -11.030066 0
M  V30 49 H 6.814554 5.746190 -12.019908 0
M  V30 50 H 5.161461 4.174906 -12.002718 0
M  V30 51 H 4.314247 1.933819 -12.737561 0
M  V30 52 H 6.739287 -1.067522 -15.454587 0
M  V30 53 H 9.721137 1.666844 -15.435388 0
M  V30 54 H 8.812513 3.451175 -14.218657 0
M  V30 55 H 11.625926 6.573225 -9.311710 0
M  V30 56 H 12.063744 8.087440 -8.550879 0
M  V30 57 H 12.091660 6.235648 -6.896087 0
M  V30 58 H 10.433078 5.815697 -7.274708 0
M  V30 END ATOM
M  V30 BEGIN BOND
M  V30 1 1 2 1
M  V30 2 1 3 2
M  V30 3 2 4 3
M  V30 4 1 5 4
M  V30 5 2 6 5
M  V30 6 1 7 6
M  V30 7 1 8 3
M  V30 8 2 8 7
M  V30 9 1 9 8
M  V30 10 1 10 9
M  V30 11 1 11 10
M  V30 12 1 12 11
M  V30 13 1 13 12
M  V30 14 1 14 13
M  V30 15 1 15 14
M  V30 16 1 16 15
M  V30 17 2 17 16
M  V30 18 1 18 16
M  V30 19 1 19 18
M  V30 20 1 20 19
M  V30 21 2 21 20
M  V30 22 1 22 21
M  V30 23 1 23 22
M  V30 24 2 24 23
M  V30 25 1 25 24
M  V30 26 1 26 25
M  V30 27 2 27 26
M  V30 28 1 28 22
M  V30 29 2 28 25
M  V30 30 2 29 19
M  V30 31 1 29 28
M  V30 32 1 30 12
M  V30 33 1 31 9
M  V30 34 1 31 30
M  V30 35 1 32 1
M  V30 36 1 33 1
M  V30 37 1 34 1
M  V30 38 1 35 4
M  V30 39 1 36 5
M  V30 40 1 37 6
M  V30 41 1 38 7
M  V30 42 1 39 10
M  V30 43 1 40 10
M  V30 44 1 41 11
M  V30 45 1 42 11
M  V30 46 1 43 13
M  V30 47 1 44 13
M  V30 48 1 45 14
M  V30 49 1 46 14
M  V30 50 1 47 15
M  V30 51 1 48 15
M  V30 52 1 49 18
M  V30 53 1 50 20
M  V30 54 1 51 21
M  V30 55 1 52 24
M  V30 56 1 53 26
M  V30 57 1 54 29
M  V30 58 1 55 30
M  V30 59 1 56 30
M  V30 60 1 57 31
M  V30 61 1 58 31
M  V30 END BOND
M  V30 END CTAB
M  END
>  <b_m_subgroup_collapsed>  (1171) 
0

>  <r_i_docking_score>  (1171) 
-7.4053035185003298

>  <s_m_subgroup_title>  (1171) 
glide-dock_SP_D22_pv

>  <s_m_subgroupid>  (1171) 
glide-dock_SP_D22_pv

>  <Molecule ChEMBL ID>  (1171) 
CHEMBL4088639

>  <Standard Type>  (1171) 
Ki

>  <Standard Value>  (1171) 
1.4

>  <label>  (1171) 
1

$$$$
CHEMBL1774543
     RDKit          3D

  0  0  0  0  0  0  0  0  0  0999 V3000
M  V30 BEGIN CTAB
M  V30 COUNTS 70 73 0 0 1
M  V30 BEGIN ATOM
M  V30 1 C 5.222538 3.534578 -13.332551 0
M  V30 2 C 6.414319 4.176218 -12.633755 0
M  V30 3 C 7.584764 4.333261 -13.620400 0
M  V30 4 N 8.821434 4.910193 -13.031997 0 CFG=2 CHG=1
M  V30 5 C 8.564713 6.261891 -12.456639 0
M  V30 6 C 9.803956 6.935175 -11.861994 0
M  V30 7 C 9.465019 8.304631 -11.256769 0
M  V30 8 C 10.525287 8.715904 -10.237330 0
M  V30 9 N 10.311297 7.941279 -9.023173 0
M  V30 10 C 9.521968 8.717332 -8.053949 0
M  V30 11 C 9.401622 7.998671 -6.698678 0
M  V30 12 N 10.704396 7.509272 -6.257622 0
M  V30 13 C 11.276686 7.844805 -5.019359 0
M  V30 14 C 11.697809 6.794042 -4.178327 0
M  V30 15 C 12.200953 7.051903 -2.889992 0
M  V30 16 C 12.287703 8.376803 -2.425683 0
M  V30 17 C 11.860682 9.433700 -3.250881 0
M  V30 18 C 11.349383 9.181893 -4.542932 0
M  V30 19 O 10.930723 10.253794 -5.286307 0
M  V30 20 C 11.885787 10.670898 -6.246254 0
M  V30 21 C 11.416029 6.698598 -7.225832 0
M  V30 22 C 11.607664 7.541914 -8.492994 0
M  V30 23 C 9.987799 4.899797 -13.973575 0
M  V30 24 C 10.128954 3.646073 -14.800948 0
M  V30 25 C 10.410463 2.409417 -14.268205 0
M  V30 26 S 10.478531 1.110567 -15.419809 0
M  V30 27 C 10.151639 2.223979 -16.733927 0
M  V30 28 C 10.043277 1.912979 -18.103559 0
M  V30 29 C 9.777896 2.931760 -19.035156 0
M  V30 30 C 9.627420 4.256289 -18.592598 0
M  V30 31 C 9.734865 4.559651 -17.222075 0
M  V30 32 C 9.995574 3.563545 -16.248146 0
M  V30 33 H 4.386688 3.404710 -12.646914 0
M  V30 34 H 4.885999 4.172336 -14.152956 0
M  V30 35 H 5.474931 2.552190 -13.739966 0
M  V30 36 H 6.710042 3.577650 -11.773092 0
M  V30 37 H 6.081378 5.139962 -12.244310 0
M  V30 38 H 7.286570 4.969951 -14.448083 0
M  V30 39 H 7.776665 3.342920 -14.029871 0
M  V30 40 H 8.107680 6.907625 -13.208002 0
M  V30 41 H 7.842511 6.172920 -11.646564 0
M  V30 42 H 10.216469 6.273041 -11.099165 0
M  V30 43 H 10.587657 7.087852 -12.605229 0
M  V30 44 H 9.389173 9.041159 -12.056176 0
M  V30 45 H 8.486528 8.290800 -10.774864 0
M  V30 46 H 11.512815 8.547900 -10.673527 0
M  V30 47 H 10.477802 9.772248 -9.997874 0
M  V30 48 H 9.969006 9.693912 -7.894916 0
M  V30 49 H 8.523922 8.898164 -8.453353 0
M  V30 50 H 8.963904 8.675950 -5.971469 0
M  V30 51 H 8.721563 7.149532 -6.786067 0
M  V30 52 H 11.615313 5.772610 -4.516489 0
M  V30 53 H 12.506265 6.231077 -2.256492 0
M  V30 54 H 12.667078 8.583901 -1.437718 0
M  V30 55 H 11.917147 10.448541 -2.885223 0
M  V30 56 H 11.686009 11.681942 -6.599094 0
M  V30 57 H 12.892677 10.654562 -5.846239 0
M  V30 58 H 11.876028 10.008025 -7.099161 0
M  V30 59 H 12.372242 6.347566 -6.841624 0
M  V30 60 H 10.822619 5.810198 -7.445082 0
M  V30 61 H 12.086099 6.972476 -9.281063 0
M  V30 62 H 12.251289 8.397455 -8.311430 0
M  V30 63 H 10.904797 5.027224 -13.395844 0
M  V30 64 H 9.919702 5.772102 -14.625577 0
M  V30 65 H 10.562302 2.172506 -13.226694 0
M  V30 66 H 10.165492 0.891553 -18.435646 0
M  V30 67 H 9.696733 2.697879 -20.085852 0
M  V30 68 H 9.428230 5.043544 -19.307352 0
M  V30 69 H 9.617884 5.588699 -16.917473 0
M  V30 70 H 9.074701 4.305626 -12.263101 0
M  V30 END ATOM
M  V30 BEGIN BOND
M  V30 1 1 2 1
M  V30 2 1 3 2
M  V30 3 1 4 3
M  V30 4 1 5 4
M  V30 5 1 6 5
M  V30 6 1 7 6
M  V30 7 1 8 7
M  V30 8 1 9 8
M  V30 9 1 10 9
M  V30 10 1 11 10
M  V30 11 1 12 11
M  V30 12 1 13 12
M  V30 13 2 14 13
M  V30 14 1 15 14
M  V30 15 2 16 15
M  V30 16 1 17 16
M  V30 17 1 18 13
M  V30 18 2 18 17
M  V30 19 1 19 18
M  V30 20 1 20 19
M  V30 21 1 21 12
M  V30 22 1 22 9
M  V30 23 1 22 21
M  V30 24 1 23 4
M  V30 25 1 24 23
M  V30 26 2 25 24
M  V30 27 1 26 25
M  V30 28 1 27 26
M  V30 29 2 28 27
M  V30 30 1 29 28
M  V30 31 2 30 29
M  V30 32 1 31 30
M  V30 33 1 32 24
M  V30 34 1 32 27
M  V30 35 2 32 31
M  V30 36 1 33 1
M  V30 37 1 34 1
M  V30 38 1 35 1
M  V30 39 1 36 2
M  V30 40 1 37 2
M  V30 41 1 38 3
M  V30 42 1 39 3
M  V30 43 1 40 5
M  V30 44 1 41 5
M  V30 45 1 42 6
M  V30 46 1 43 6
M  V30 47 1 44 7
M  V30 48 1 45 7
M  V30 49 1 46 8
M  V30 50 1 47 8
M  V30 51 1 48 10
M  V30 52 1 49 10
M  V30 53 1 50 11
M  V30 54 1 51 11
M  V30 55 1 52 14
M  V30 56 1 53 15
M  V30 57 1 54 16
M  V30 58 1 55 17
M  V30 59 1 56 20
M  V30 60 1 57 20
M  V30 61 1 58 20
M  V30 62 1 59 21
M  V30 63 1 60 21
M  V30 64 1 61 22
M  V30 65 1 62 22
M  V30 66 1 63 23
M  V30 67 1 64 23
M  V30 68 1 65 25
M  V30 69 1 66 28
M  V30 70 1 67 29
M  V30 71 1 68 30
M  V30 72 1 69 31
M  V30 73 1 4 70 CFG=1
M  V30 END BOND
M  V30 END CTAB
M  END
>  <b_m_subgroup_collapsed>  (1172) 
0

>  <r_i_docking_score>  (1172) 
-7.4036005579648902

>  <s_m_subgroup_title>  (1172) 
glide-dock_SP_D22_pv

>  <s_m_subgroupid>  (1172) 
glide-dock_SP_D22_pv

>  <Molecule ChEMBL ID>  (1172) 
CHEMBL1774543

>  <Standard Type>  (1172) 
Ki

>  <Standard Value>  (1172) 
69.9

>  <label>  (1172) 
1

$$$$
CHEMBL4473583
     RDKit          3D

  0  0  0  0  0  0  0  0  0  0999 V3000
M  V30 BEGIN CTAB
M  V30 COUNTS 47 49 0 0 1
M  V30 BEGIN ATOM
M  V30 1 C 12.486384 9.429946 -7.046934 0
M  V30 2 N 11.449190 8.424440 -7.006941 0
M  V30 3 C 10.731969 7.916877 -8.025019 0
M  V30 4 S 10.980871 8.448594 -9.688976 0
M  V30 5 C 9.286160 8.265102 -10.301337 0
M  V30 6 C 8.932003 6.803224 -10.638801 0
M  V30 7 C 8.614591 6.628048 -12.129438 0
M  V30 8 N 8.017567 5.304232 -12.429875 0 CHG=1
M  V30 9 C 6.542657 5.308367 -12.255013 0
M  V30 10 C 5.967744 3.898727 -12.439286 0
M  V30 11 C 6.328606 3.338577 -13.822127 0
M  V30 12 C 7.845356 3.396284 -14.060925 0
M  V30 13 C 8.419853 4.794819 -13.769899 0
M  V30 14 N 9.850060 6.994955 -7.639671 0
M  V30 15 N 9.993705 6.899818 -6.278085 0
M  V30 16 C 10.955573 7.763382 -5.945733 0
M  V30 17 C 11.424440 7.934664 -4.580716 0
M  V30 18 C 11.698906 6.798413 -3.794066 0
M  V30 19 C 12.182013 6.946785 -2.483594 0
M  V30 20 C 12.390319 8.231587 -1.951105 0
M  V30 21 C 12.087523 9.368904 -2.719786 0
M  V30 22 C 11.607710 9.223412 -4.031637 0
M  V30 23 H 13.099977 9.310046 -7.941855 0
M  V30 24 H 12.006407 10.405609 -7.046778 0
M  V30 25 H 13.147549 9.372573 -6.183277 0
M  V30 26 H 8.593002 8.665482 -9.559495 0
M  V30 27 H 9.181048 8.903408 -11.179423 0
M  V30 28 H 9.746370 6.132118 -10.362964 0
M  V30 29 H 8.086919 6.492849 -10.023253 0
M  V30 30 H 7.948514 7.419489 -12.483261 0
M  V30 31 H 9.559570 6.751950 -12.658538 0
M  V30 32 H 6.283364 5.686912 -11.265188 0
M  V30 33 H 6.086507 5.995289 -12.968726 0
M  V30 34 H 6.342399 3.242707 -11.653903 0
M  V30 35 H 4.884317 3.926188 -12.325278 0
M  V30 36 H 5.972291 2.311145 -13.915476 0
M  V30 37 H 5.814577 3.914880 -14.593441 0
M  V30 38 H 8.352237 2.653735 -13.447310 0
M  V30 39 H 8.069679 3.111160 -15.088266 0
M  V30 40 H 8.091845 5.496957 -14.535492 0
M  V30 41 H 9.507209 4.753991 -13.834007 0
M  V30 42 H 11.546736 5.807350 -4.199933 0
M  V30 43 H 12.392894 6.071236 -1.886290 0
M  V30 44 H 12.767531 8.348907 -0.948847 0
M  V30 45 H 12.210960 10.355625 -2.301893 0
M  V30 46 H 11.370035 10.103939 -4.609345 0
M  V30 47 H 8.390231 4.658017 -11.749682 0
M  V30 END ATOM
M  V30 BEGIN BOND
M  V30 1 1 2 1
M  V30 2 1 3 2
M  V30 3 1 4 3
M  V30 4 1 5 4
M  V30 5 1 6 5
M  V30 6 1 7 6
M  V30 7 1 8 7
M  V30 8 1 9 8
M  V30 9 1 10 9
M  V30 10 1 11 10
M  V30 11 1 12 11
M  V30 12 1 13 8
M  V30 13 1 13 12
M  V30 14 2 14 3
M  V30 15 1 15 14
M  V30 16 1 16 2
M  V30 17 2 16 15
M  V30 18 1 17 16
M  V30 19 2 18 17
M  V30 20 1 19 18
M  V30 21 2 20 19
M  V30 22 1 21 20
M  V30 23 1 22 17
M  V30 24 2 22 21
M  V30 25 1 23 1
M  V30 26 1 24 1
M  V30 27 1 25 1
M  V30 28 1 26 5
M  V30 29 1 27 5
M  V30 30 1 28 6
M  V30 31 1 29 6
M  V30 32 1 30 7
M  V30 33 1 31 7
M  V30 34 1 32 9
M  V30 35 1 33 9
M  V30 36 1 34 10
M  V30 37 1 35 10
M  V30 38 1 36 11
M  V30 39 1 37 11
M  V30 40 1 38 12
M  V30 41 1 39 12
M  V30 42 1 40 13
M  V30 43 1 41 13
M  V30 44 1 42 18
M  V30 45 1 43 19
M  V30 46 1 44 20
M  V30 47 1 45 21
M  V30 48 1 46 22
M  V30 49 1 47 8
M  V30 END BOND
M  V30 END CTAB
M  END
>  <b_m_subgroup_collapsed>  (1173) 
0

>  <r_i_docking_score>  (1173) 
-7.4026420680967204

>  <s_m_subgroup_title>  (1173) 
glide-dock_SP_D22_pv

>  <s_m_subgroupid>  (1173) 
glide-dock_SP_D22_pv

>  <Molecule ChEMBL ID>  (1173) 
CHEMBL4473583

>  <Standard Type>  (1173) 
Ki

>  <Standard Value>  (1173) 
98462.0

>  <label>  (1173) 
0

$$$$
CHEMBL377756
     RDKit          3D

  0  0  0  0  0  0  0  0  0  0999 V3000
M  V30 BEGIN CTAB
M  V30 COUNTS 62 66 0 0 1
M  V30 BEGIN ATOM
M  V30 1 C 4.675174 -1.521659 -15.996149 0
M  V30 2 N 5.904902 -0.949858 -15.400082 0 CHG=1
M  V30 3 C 5.607451 -0.109345 -14.217965 0
M  V30 4 C 6.854890 0.583825 -13.631496 0
M  V30 5 N 7.660902 1.265244 -14.655499 0
M  V30 6 C 8.359023 2.484121 -14.495901 0
M  V30 7 N 9.580853 2.548059 -14.924474 0
M  V30 8 C 10.431551 3.654476 -15.031522 0
M  V30 9 C 11.411484 3.513302 -16.040743 0
M  V30 10 C 12.404129 4.485781 -16.249041 0
M  V30 11 Cl 13.571674 4.281132 -17.502234 0
M  V30 12 C 12.441590 5.621455 -15.429407 0
M  V30 13 C 11.479853 5.775340 -14.417799 0
M  V30 14 C 10.463024 4.811710 -14.206099 0
M  V30 15 N 9.542263 5.045741 -13.177222 0
M  V30 16 N 10.059045 5.339108 -11.904971 0
M  V30 17 C 10.057903 6.561320 -11.329532 0
M  V30 18 O 10.086730 7.621804 -11.952455 0
M  V30 19 C 9.918859 6.533203 -9.827885 0
M  V30 20 C 8.914449 5.716305 -9.225420 0
M  V30 21 N 8.086023 4.846393 -9.939517 0
M  V30 22 C 8.688268 5.772413 -7.846992 0
M  V30 23 C 9.452770 6.612257 -7.028079 0
M  V30 24 C 10.463901 7.398533 -7.595604 0
M  V30 25 C 10.712943 7.371918 -8.986703 0
M  V30 26 C 11.826097 8.280339 -9.504961 0
M  V30 27 F 12.727322 8.505535 -8.547498 0
M  V30 28 F 12.485918 7.772363 -10.542764 0
M  V30 29 F 11.286413 9.444461 -9.847020 0
M  V30 30 C 8.160138 4.795304 -13.253545 0
M  V30 31 C 7.293641 5.761073 -12.672697 0
M  V30 32 C 5.906772 5.602221 -12.659030 0
M  V30 33 C 5.341613 4.521337 -13.342387 0
M  V30 34 C 6.177180 3.573033 -13.937565 0
M  V30 35 C 7.590815 3.642778 -13.874391 0
M  V30 36 C 7.994176 0.366861 -15.764429 0
M  V30 37 C 6.732472 -0.237785 -16.401520 0
M  V30 38 H 4.133937 -0.775974 -16.579939 0
M  V30 39 H 4.915841 -2.359952 -16.651772 0
M  V30 40 H 3.995091 -1.875391 -15.222002 0
M  V30 41 H 5.144135 -0.723873 -13.448037 0
M  V30 42 H 4.864071 0.634711 -14.500041 0
M  V30 43 H 7.483761 -0.147822 -13.123164 0
M  V30 44 H 6.485830 1.267431 -12.868735 0
M  V30 45 H 11.411313 2.633173 -16.667534 0
M  V30 46 H 13.202289 6.374803 -15.573191 0
M  V30 47 H 11.528670 6.663654 -13.807852 0
M  V30 48 H 10.041759 4.538590 -11.285922 0
M  V30 49 H 7.193489 4.591794 -9.502489 0
M  V30 50 H 7.933947 5.071476 -10.912774 0
M  V30 51 H 7.887873 5.184220 -7.429124 0
M  V30 52 H 9.260879 6.652735 -5.966055 0
M  V30 53 H 11.040467 8.043051 -6.948231 0
M  V30 54 H 7.660913 6.667547 -12.219635 0
M  V30 55 H 5.285558 6.353251 -12.191397 0
M  V30 56 H 4.272221 4.418865 -13.447077 0
M  V30 57 H 5.687840 2.776463 -14.464297 0
M  V30 58 H 8.553123 0.889624 -16.542723 0
M  V30 59 H 8.648988 -0.421955 -15.391966 0
M  V30 60 H 7.015700 -0.929602 -17.195486 0
M  V30 61 H 6.143965 0.555987 -16.865223 0
M  V30 62 H 6.468454 -1.729604 -15.081253 0
M  V30 END ATOM
M  V30 BEGIN BOND
M  V30 1 1 2 1
M  V30 2 1 3 2
M  V30 3 1 4 3
M  V30 4 1 5 4
M  V30 5 1 6 5
M  V30 6 2 7 6
M  V30 7 1 8 7
M  V30 8 1 9 8
M  V30 9 2 10 9
M  V30 10 1 11 10
M  V30 11 1 12 10
M  V30 12 2 13 12
M  V30 13 2 14 8
M  V30 14 1 14 13
M  V30 15 1 15 14
M  V30 16 1 16 15
M  V30 17 1 17 16
M  V30 18 2 18 17
M  V30 19 1 19 17
M  V30 20 2 20 19
M  V30 21 1 21 20
M  V30 22 1 22 20
M  V30 23 2 23 22
M  V30 24 1 24 23
M  V30 25 1 25 19
M  V30 26 2 25 24
M  V30 27 1 26 25
M  V30 28 1 27 26
M  V30 29 1 28 26
M  V30 30 1 29 26
M  V30 31 1 30 15
M  V30 32 2 31 30
M  V30 33 1 32 31
M  V30 34 2 33 32
M  V30 35 1 34 33
M  V30 36 1 35 6
M  V30 37 1 35 30
M  V30 38 2 35 34
M  V30 39 1 36 5
M  V30 40 1 37 2
M  V30 41 1 37 36
M  V30 42 1 38 1
M  V30 43 1 39 1
M  V30 44 1 40 1
M  V30 45 1 41 3
M  V30 46 1 42 3
M  V30 47 1 43 4
M  V30 48 1 44 4
M  V30 49 1 45 9
M  V30 50 1 46 12
M  V30 51 1 47 13
M  V30 52 1 48 16
M  V30 53 1 49 21
M  V30 54 1 50 21
M  V30 55 1 51 22
M  V30 56 1 52 23
M  V30 57 1 53 24
M  V30 58 1 54 31
M  V30 59 1 55 32
M  V30 60 1 56 33
M  V30 61 1 57 34
M  V30 62 1 58 36
M  V30 63 1 59 36
M  V30 64 1 60 37
M  V30 65 1 61 37
M  V30 66 1 62 2
M  V30 END BOND
M  V30 END CTAB
M  END
>  <b_m_subgroup_collapsed>  (1174) 
0

>  <r_i_docking_score>  (1174) 
-7.4025641258616401

>  <s_m_subgroup_title>  (1174) 
glide-dock_SP_D22_pv

>  <s_m_subgroupid>  (1174) 
glide-dock_SP_D22_pv

>  <Molecule ChEMBL ID>  (1174) 
CHEMBL377756

>  <Standard Type>  (1174) 
Ki

>  <Standard Value>  (1174) 
92.0

>  <label>  (1174) 
1

$$$$
CHEMBL1223682
     RDKit          3D

  0  0  0  0  0  0  0  0  0  0999 V3000
M  V30 BEGIN CTAB
M  V30 COUNTS 56 58 0 0 1
M  V30 BEGIN ATOM
M  V30 1 C 10.526642 1.358168 -15.665514 0
M  V30 2 C 9.282017 1.938350 -15.017255 0
M  V30 3 C 8.052715 1.294358 -15.248368 0
M  V30 4 C 6.877221 1.779469 -14.655234 0
M  V30 5 C 6.915984 2.931445 -13.847865 0
M  V30 6 C 8.138935 3.589439 -13.592155 0
M  V30 7 N 8.136259 4.691551 -12.720944 0
M  V30 8 C 8.602339 5.998700 -13.142161 0
M  V30 9 C 9.470074 6.648795 -12.043406 0
M  V30 10 N 8.878818 6.531450 -10.675476 0 CHG=1
M  V30 11 C 9.765999 7.021986 -9.596979 0
M  V30 12 C 10.114024 8.510880 -9.718534 0
M  V30 13 C 10.928199 9.017423 -8.525891 0
M  V30 14 C 10.107907 9.125247 -7.236441 0
M  V30 15 N 10.886033 9.702317 -6.148011 0
M  V30 16 C 11.291851 8.937592 -5.050318 0
M  V30 17 C 11.285668 7.523554 -5.048310 0
M  V30 18 C 11.687537 6.851562 -3.880634 0
M  V30 19 C 12.094523 7.601844 -2.765595 0
M  V30 20 C 12.085556 9.005422 -2.869202 0
M  V30 21 N 11.682706 9.658164 -3.980430 0
M  V30 22 C 8.397064 5.159837 -10.365750 0
M  V30 23 C 7.442996 4.639291 -11.447305 0
M  V30 24 C 9.341037 3.078529 -14.169997 0
M  V30 25 C 10.696856 3.696893 -13.844518 0
M  V30 26 H 11.132853 2.142527 -16.120350 0
M  V30 27 H 11.131920 0.836631 -14.923305 0
M  V30 28 H 10.270808 0.643423 -16.448008 0
M  V30 29 H 8.004112 0.413692 -15.870956 0
M  V30 30 H 5.944747 1.265542 -14.819392 0
M  V30 31 H 5.999801 3.293506 -13.405677 0
M  V30 32 H 7.731988 6.619065 -13.345004 0
M  V30 33 H 9.155015 5.910990 -14.075871 0
M  V30 34 H 9.621789 7.697431 -12.294173 0
M  V30 35 H 10.458523 6.187914 -12.034042 0
M  V30 36 H 10.677326 6.423216 -9.568839 0
M  V30 37 H 9.255058 6.853096 -8.651213 0
M  V30 38 H 9.202110 9.101715 -9.824379 0
M  V30 39 H 10.705467 8.684500 -10.617137 0
M  V30 40 H 11.286756 10.011509 -8.783316 0
M  V30 41 H 11.812382 8.396144 -8.370402 0
M  V30 42 H 9.666240 8.174358 -6.950265 0
M  V30 43 H 9.259752 9.769009 -7.446938 0
M  V30 44 H 10.880282 10.703932 -6.028322 0
M  V30 45 H 10.993389 6.943679 -5.909240 0
M  V30 46 H 11.688701 5.774496 -3.848366 0
M  V30 47 H 12.416429 7.115880 -1.858612 0
M  V30 48 H 12.394366 9.619558 -2.034488 0
M  V30 49 H 9.252002 4.488667 -10.273174 0
M  V30 50 H 7.895267 5.163714 -9.398993 0
M  V30 51 H 6.550634 5.262740 -11.494478 0
M  V30 52 H 7.109972 3.630876 -11.208011 0
M  V30 53 H 11.495739 2.958688 -13.853580 0
M  V30 54 H 10.943973 4.479459 -14.561373 0
M  V30 55 H 10.703362 4.120988 -12.842536 0
M  V30 56 H 8.029812 7.101012 -10.649219 0
M  V30 END ATOM
M  V30 BEGIN BOND
M  V30 1 1 2 1
M  V30 2 1 3 2
M  V30 3 2 4 3
M  V30 4 1 5 4
M  V30 5 2 6 5
M  V30 6 1 7 6
M  V30 7 1 8 7
M  V30 8 1 9 8
M  V30 9 1 10 9
M  V30 10 1 11 10
M  V30 11 1 12 11
M  V30 12 1 13 12
M  V30 13 1 14 13
M  V30 14 1 15 14
M  V30 15 1 16 15
M  V30 16 2 17 16
M  V30 17 1 18 17
M  V30 18 2 19 18
M  V30 19 1 20 19
M  V30 20 1 21 16
M  V30 21 2 21 20
M  V30 22 1 22 10
M  V30 23 1 23 7
M  V30 24 1 23 22
M  V30 25 2 24 2
M  V30 26 1 24 6
M  V30 27 1 25 24
M  V30 28 1 26 1
M  V30 29 1 27 1
M  V30 30 1 28 1
M  V30 31 1 29 3
M  V30 32 1 30 4
M  V30 33 1 31 5
M  V30 34 1 32 8
M  V30 35 1 33 8
M  V30 36 1 34 9
M  V30 37 1 35 9
M  V30 38 1 36 11
M  V30 39 1 37 11
M  V30 40 1 38 12
M  V30 41 1 39 12
M  V30 42 1 40 13
M  V30 43 1 41 13
M  V30 44 1 42 14
M  V30 45 1 43 14
M  V30 46 1 44 15
M  V30 47 1 45 17
M  V30 48 1 46 18
M  V30 49 1 47 19
M  V30 50 1 48 20
M  V30 51 1 49 22
M  V30 52 1 50 22
M  V30 53 1 51 23
M  V30 54 1 52 23
M  V30 55 1 53 25
M  V30 56 1 54 25
M  V30 57 1 55 25
M  V30 58 1 56 10
M  V30 END BOND
M  V30 END CTAB
M  END
>  <b_m_subgroup_collapsed>  (1175) 
0

>  <r_i_docking_score>  (1175) 
-7.4014578446104604

>  <s_m_subgroup_title>  (1175) 
glide-dock_SP_D22_pv

>  <s_m_subgroupid>  (1175) 
glide-dock_SP_D22_pv

>  <Molecule ChEMBL ID>  (1175) 
CHEMBL1223682

>  <Standard Type>  (1175) 
Ki

>  <Standard Value>  (1175) 
12.0

>  <label>  (1175) 
1

$$$$
CHEMBL135954
     RDKit          3D

  0  0  0  0  0  0  0  0  0  0999 V3000
M  V30 BEGIN CTAB
M  V30 COUNTS 48 50 0 0 1
M  V30 BEGIN ATOM
M  V30 1 C 11.685214 8.949173 -10.261089 0
M  V30 2 C 10.440792 8.244473 -10.824317 0
M  V30 3 C 9.286197 7.981542 -9.826137 0
M  V30 4 N 9.591451 7.106119 -8.648651 0 CFG=1 CHG=1
M  V30 5 C 10.068170 5.751387 -9.060374 0
M  V30 6 C 8.970525 4.814375 -9.577658 0
M  V30 7 C 8.593144 4.955954 -11.017126 0
M  V30 8 C 7.393584 5.372604 -11.528409 0
M  V30 9 C 7.307799 5.256442 -12.937626 0
M  V30 10 C 8.466206 4.801586 -13.507433 0
M  V30 11 S 9.676799 4.475201 -12.299784 0
M  V30 12 C 10.416453 7.746737 -7.558736 0 CFG=1
M  V30 13 C 9.860375 9.096820 -7.060053 0
M  V30 14 C 10.871005 9.805448 -6.144168 0
M  V30 15 C 11.286354 8.926244 -4.989492 0
M  V30 16 C 11.701606 9.502695 -3.771353 0
M  V30 17 C 12.117332 8.686640 -2.702878 0
M  V30 18 C 12.108873 7.289271 -2.858569 0
M  V30 19 O 12.485952 6.468602 -1.846918 0
M  V30 20 C 11.685041 6.717857 -4.062343 0
M  V30 21 C 11.245320 7.521906 -5.120679 0
M  V30 22 C 10.660944 6.831270 -6.338977 0
M  V30 23 H 12.299314 9.372246 -11.047064 0
M  V30 24 H 11.424675 9.765951 -9.587778 0
M  V30 25 H 12.348607 8.252695 -9.752274 0
M  V30 26 H 10.736239 7.332538 -11.341690 0
M  V30 27 H 10.024343 8.876551 -11.607890 0
M  V30 28 H 8.486048 7.505533 -10.385344 0
M  V30 29 H 8.822867 8.919273 -9.532962 0
M  V30 30 H 10.885727 5.823418 -9.767621 0
M  V30 31 H 10.482870 5.206970 -8.222187 0
M  V30 32 H 9.332778 3.798473 -9.427596 0
M  V30 33 H 8.085984 4.896251 -8.945728 0
M  V30 34 H 6.564762 5.760699 -10.955494 0
M  V30 35 H 6.396089 5.518561 -13.446842 0
M  V30 36 H 8.680340 4.629637 -14.551611 0
M  V30 37 H 11.411117 7.935025 -7.941869 0
M  V30 38 H 9.643439 9.772291 -7.874321 0
M  V30 39 H 8.917281 8.938109 -6.534767 0
M  V30 40 H 10.486079 10.751026 -5.766239 0
M  V30 41 H 11.768564 10.056925 -6.710554 0
M  V30 42 H 11.686491 10.572833 -3.641475 0
M  V30 43 H 12.431441 9.132066 -1.769697 0
M  V30 44 H 12.245465 5.562942 -1.986427 0
M  V30 45 H 11.655046 5.651012 -4.171460 0
M  V30 46 H 11.371026 6.040953 -6.578574 0
M  V30 47 H 9.726318 6.358253 -6.033141 0
M  V30 48 H 8.685479 6.952082 -8.222336 0
M  V30 END ATOM
M  V30 BEGIN BOND
M  V30 1 1 2 1
M  V30 2 1 3 2
M  V30 3 1 4 3
M  V30 4 1 5 4
M  V30 5 1 6 5
M  V30 6 1 7 6
M  V30 7 2 8 7
M  V30 8 1 9 8
M  V30 9 2 10 9
M  V30 10 1 11 7
M  V30 11 1 11 10
M  V30 12 1 12 4
M  V30 13 1 13 12
M  V30 14 1 14 13
M  V30 15 1 15 14
M  V30 16 1 16 15
M  V30 17 2 17 16
M  V30 18 1 18 17
M  V30 19 1 19 18
M  V30 20 2 20 18
M  V30 21 2 21 15
M  V30 22 1 21 20
M  V30 23 1 22 12
M  V30 24 1 22 21
M  V30 25 1 23 1
M  V30 26 1 24 1
M  V30 27 1 25 1
M  V30 28 1 26 2
M  V30 29 1 27 2
M  V30 30 1 28 3
M  V30 31 1 29 3
M  V30 32 1 30 5
M  V30 33 1 31 5
M  V30 34 1 32 6
M  V30 35 1 33 6
M  V30 36 1 34 8
M  V30 37 1 35 9
M  V30 38 1 36 10
M  V30 39 1 12 37 CFG=3
M  V30 40 1 38 13
M  V30 41 1 39 13
M  V30 42 1 40 14
M  V30 43 1 41 14
M  V30 44 1 42 16
M  V30 45 1 43 17
M  V30 46 1 44 19
M  V30 47 1 45 20
M  V30 48 1 46 22
M  V30 49 1 47 22
M  V30 50 1 4 48 CFG=1
M  V30 END BOND
M  V30 END CTAB
M  END
>  <b_m_subgroup_collapsed>  (1176) 
0

>  <r_i_docking_score>  (1176) 
-7.4000123231733204

>  <s_m_subgroup_title>  (1176) 
glide-dock_SP_D22_pv

>  <s_m_subgroupid>  (1176) 
glide-dock_SP_D22_pv

>  <Molecule ChEMBL ID>  (1176) 
CHEMBL135954

>  <Standard Type>  (1176) 
Ki

>  <Standard Value>  (1176) 
0.76

>  <label>  (1176) 
1

$$$$
CHEMBL4534566
     RDKit          3D

  0  0  0  0  0  0  0  0  0  0999 V3000
M  V30 BEGIN CTAB
M  V30 COUNTS 67 70 0 0 1
M  V30 BEGIN ATOM
M  V30 1 C 9.119493 0.238756 -19.502357 0
M  V30 2 C 7.834808 1.038840 -19.258669 0
M  V30 3 C 7.220308 0.735174 -17.905602 0
M  V30 4 C 6.418083 -0.409081 -17.737814 0
M  V30 5 C 5.868841 -0.706712 -16.478754 0
M  V30 6 Cl 4.885814 -2.112570 -16.295361 0
M  V30 7 C 6.124655 0.129477 -15.371904 0
M  V30 8 O 5.625278 -0.242104 -14.148724 0
M  V30 9 C 6.615309 -0.766985 -13.276133 0
M  V30 10 C 6.880418 1.323161 -15.543257 0
M  V30 11 N 7.019628 2.280742 -14.517670 0
M  V30 12 C 8.354455 2.752263 -14.191285 0
M  V30 13 C 8.313886 4.198050 -13.670206 0
M  V30 14 N 7.261593 4.441222 -12.635242 0 CHG=1
M  V30 15 C 7.099326 5.864082 -12.229308 0
M  V30 16 C 8.362245 6.610675 -11.766240 0 CFG=2
M  V30 17 F 9.355662 6.551816 -12.646482 0
M  V30 18 C 8.896866 6.235629 -10.381439 0
M  V30 19 C 10.052114 7.180180 -10.029035 0
M  V30 20 N 10.351661 7.175667 -8.609138 0
M  V30 21 C 10.756167 8.268176 -7.952680 0
M  V30 22 O 10.886848 9.371463 -8.481014 0
M  V30 23 C 11.036024 8.088491 -6.526443 0
M  V30 24 C 11.284931 6.978516 -5.762286 0
M  V30 25 C 11.671002 7.455859 -4.467326 0
M  V30 26 C 12.102057 6.839418 -3.276860 0
M  V30 27 C 12.480680 7.603558 -2.161392 0
M  V30 28 C 12.327393 8.997470 -2.167892 0
M  V30 29 C 11.838370 9.637385 -3.318437 0
M  V30 30 C 11.565219 8.875822 -4.464172 0
M  V30 31 N 11.175554 9.218179 -5.738602 0
M  V30 32 C 5.931462 3.908754 -13.035036 0
M  V30 33 C 5.991161 2.452962 -13.494947 0
M  V30 34 C 7.437380 1.598791 -16.813732 0
M  V30 35 H 9.544353 0.469002 -20.479380 0
M  V30 36 H 9.874144 0.467643 -18.749571 0
M  V30 37 H 8.929040 -0.834650 -19.468685 0
M  V30 38 H 7.105819 0.811992 -20.037666 0
M  V30 39 H 8.046840 2.105271 -19.337385 0
M  V30 40 H 6.228806 -1.069143 -18.571634 0
M  V30 41 H 6.308735 -0.619899 -12.242235 0
M  V30 42 H 6.728009 -1.835102 -13.443498 0
M  V30 43 H 7.589943 -0.291463 -13.396537 0
M  V30 44 H 8.788364 2.086776 -13.447071 0
M  V30 45 H 9.025627 2.700227 -15.048084 0
M  V30 46 H 9.304091 4.387957 -13.261922 0
M  V30 47 H 8.162687 4.883829 -14.505606 0
M  V30 48 H 6.661545 6.428995 -13.047544 0
M  V30 49 H 6.350995 5.902677 -11.439224 0
M  V30 50 H 8.089802 7.667439 -11.749235 0
M  V30 51 H 8.097324 6.328382 -9.644482 0
M  V30 52 H 9.228834 5.197462 -10.356853 0
M  V30 53 H 10.950889 6.909710 -10.583173 0
M  V30 54 H 9.791363 8.191371 -10.346957 0
M  V30 55 H 10.239888 6.315217 -8.094543 0
M  V30 56 H 11.272901 5.946414 -6.078718 0
M  V30 57 H 12.199126 5.768613 -3.239640 0
M  V30 58 H 12.885534 7.114138 -1.290472 0
M  V30 59 H 12.577653 9.577165 -1.291074 0
M  V30 60 H 11.685899 10.703418 -3.316585 0
M  V30 61 H 11.059196 10.149339 -6.111998 0
M  V30 62 H 5.231623 3.995342 -12.202342 0
M  V30 63 H 5.528926 4.515689 -13.848006 0
M  V30 64 H 5.005534 2.156771 -13.847249 0
M  V30 65 H 6.191264 1.807269 -12.647881 0
M  V30 66 H 8.011491 2.499951 -16.970814 0
M  V30 67 H 7.543158 3.929969 -11.811232 0
M  V30 END ATOM
M  V30 BEGIN BOND
M  V30 1 1 2 1
M  V30 2 1 3 2
M  V30 3 2 4 3
M  V30 4 1 5 4
M  V30 5 1 6 5
M  V30 6 2 7 5
M  V30 7 1 8 7
M  V30 8 1 9 8
M  V30 9 1 10 7
M  V30 10 1 11 10
M  V30 11 1 12 11
M  V30 12 1 13 12
M  V30 13 1 14 13
M  V30 14 1 15 14
M  V30 15 1 16 15
M  V30 16 1 17 16
M  V30 17 1 18 16
M  V30 18 1 19 18
M  V30 19 1 20 19
M  V30 20 1 21 20
M  V30 21 2 22 21
M  V30 22 1 23 21
M  V30 23 2 24 23
M  V30 24 1 25 24
M  V30 25 2 26 25
M  V30 26 1 27 26
M  V30 27 2 28 27
M  V30 28 1 29 28
M  V30 29 1 30 25
M  V30 30 2 30 29
M  V30 31 1 31 23
M  V30 32 1 31 30
M  V30 33 1 32 14
M  V30 34 1 33 11
M  V30 35 1 33 32
M  V30 36 1 34 3
M  V30 37 2 34 10
M  V30 38 1 35 1
M  V30 39 1 36 1
M  V30 40 1 37 1
M  V30 41 1 38 2
M  V30 42 1 39 2
M  V30 43 1 40 4
M  V30 44 1 41 9
M  V30 45 1 42 9
M  V30 46 1 43 9
M  V30 47 1 44 12
M  V30 48 1 45 12
M  V30 49 1 46 13
M  V30 50 1 47 13
M  V30 51 1 48 15
M  V30 52 1 49 15
M  V30 53 1 16 50 CFG=1
M  V30 54 1 51 18
M  V30 55 1 52 18
M  V30 56 1 53 19
M  V30 57 1 54 19
M  V30 58 1 55 20
M  V30 59 1 56 24
M  V30 60 1 57 26
M  V30 61 1 58 27
M  V30 62 1 59 28
M  V30 63 1 60 29
M  V30 64 1 61 31
M  V30 65 1 62 32
M  V30 66 1 63 32
M  V30 67 1 64 33
M  V30 68 1 65 33
M  V30 69 1 66 34
M  V30 70 1 67 14
M  V30 END BOND
M  V30 END CTAB
M  END
>  <b_m_subgroup_collapsed>  (1177) 
0

>  <r_i_docking_score>  (1177) 
-7.3992062393826501

>  <s_m_subgroup_title>  (1177) 
glide-dock_SP_D22_pv

>  <s_m_subgroupid>  (1177) 
glide-dock_SP_D22_pv

>  <Molecule ChEMBL ID>  (1177) 
CHEMBL4534566

>  <Standard Type>  (1177) 
Ki

>  <Standard Value>  (1177) 
20800.0

>  <label>  (1177) 
0

$$$$
CHEMBL4436317
     RDKit          3D

  0  0  0  0  0  0  0  0  0  0999 V3000
M  V30 BEGIN CTAB
M  V30 COUNTS 67 70 0 0 1
M  V30 BEGIN ATOM
M  V30 1 C 9.119493 0.238756 -19.502357 0
M  V30 2 C 7.834808 1.038840 -19.258669 0
M  V30 3 C 7.220308 0.735174 -17.905602 0
M  V30 4 C 6.418083 -0.409081 -17.737814 0
M  V30 5 C 5.868841 -0.706712 -16.478754 0
M  V30 6 Cl 4.885814 -2.112570 -16.295361 0
M  V30 7 C 6.124655 0.129477 -15.371904 0
M  V30 8 O 5.625278 -0.242104 -14.148724 0
M  V30 9 C 6.615309 -0.766985 -13.276133 0
M  V30 10 C 6.880418 1.323161 -15.543257 0
M  V30 11 N 7.019628 2.280742 -14.517670 0
M  V30 12 C 8.354455 2.752263 -14.191285 0
M  V30 13 C 8.313886 4.198050 -13.670206 0
M  V30 14 N 7.261593 4.441222 -12.635242 0 CHG=1
M  V30 15 C 7.099326 5.864082 -12.229308 0
M  V30 16 C 8.362245 6.610675 -11.766240 0 CFG=2
M  V30 17 F 9.355662 6.551816 -12.646482 0
M  V30 18 C 8.896866 6.235629 -10.381439 0
M  V30 19 C 10.052114 7.180180 -10.029035 0
M  V30 20 N 10.351661 7.175667 -8.609138 0
M  V30 21 C 10.756167 8.268176 -7.952680 0
M  V30 22 O 10.886848 9.371463 -8.481014 0
M  V30 23 C 11.036024 8.088491 -6.526443 0
M  V30 24 C 11.284931 6.978516 -5.762286 0
M  V30 25 C 11.671002 7.455859 -4.467326 0
M  V30 26 C 12.102057 6.839418 -3.276860 0
M  V30 27 C 12.480680 7.603558 -2.161392 0
M  V30 28 C 12.327393 8.997470 -2.167892 0
M  V30 29 C 11.838370 9.637385 -3.318437 0
M  V30 30 C 11.565219 8.875822 -4.464172 0
M  V30 31 N 11.175554 9.218179 -5.738602 0
M  V30 32 C 5.931462 3.908754 -13.035036 0
M  V30 33 C 5.991161 2.452962 -13.494947 0
M  V30 34 C 7.437380 1.598791 -16.813732 0
M  V30 35 H 9.544353 0.469002 -20.479380 0
M  V30 36 H 9.874144 0.467643 -18.749571 0
M  V30 37 H 8.929040 -0.834650 -19.468685 0
M  V30 38 H 7.105819 0.811992 -20.037666 0
M  V30 39 H 8.046840 2.105271 -19.337385 0
M  V30 40 H 6.228806 -1.069143 -18.571634 0
M  V30 41 H 6.308735 -0.619899 -12.242235 0
M  V30 42 H 6.728009 -1.835102 -13.443498 0
M  V30 43 H 7.589943 -0.291463 -13.396537 0
M  V30 44 H 8.788364 2.086776 -13.447071 0
M  V30 45 H 9.025627 2.700227 -15.048084 0
M  V30 46 H 9.304091 4.387957 -13.261922 0
M  V30 47 H 8.162687 4.883829 -14.505606 0
M  V30 48 H 6.661545 6.428995 -13.047544 0
M  V30 49 H 6.350995 5.902677 -11.439224 0
M  V30 50 H 8.089802 7.667439 -11.749235 0
M  V30 51 H 8.097324 6.328382 -9.644482 0
M  V30 52 H 9.228834 5.197462 -10.356853 0
M  V30 53 H 10.950889 6.909710 -10.583173 0
M  V30 54 H 9.791363 8.191371 -10.346957 0
M  V30 55 H 10.239888 6.315217 -8.094543 0
M  V30 56 H 11.272901 5.946414 -6.078718 0
M  V30 57 H 12.199126 5.768613 -3.239640 0
M  V30 58 H 12.885534 7.114138 -1.290472 0
M  V30 59 H 12.577653 9.577165 -1.291074 0
M  V30 60 H 11.685899 10.703418 -3.316585 0
M  V30 61 H 11.059196 10.149339 -6.111998 0
M  V30 62 H 5.231623 3.995342 -12.202342 0
M  V30 63 H 5.528926 4.515689 -13.848006 0
M  V30 64 H 5.005534 2.156771 -13.847249 0
M  V30 65 H 6.191264 1.807269 -12.647881 0
M  V30 66 H 8.011491 2.499951 -16.970814 0
M  V30 67 H 7.543158 3.929969 -11.811232 0
M  V30 END ATOM
M  V30 BEGIN BOND
M  V30 1 1 2 1
M  V30 2 1 3 2
M  V30 3 2 4 3
M  V30 4 1 5 4
M  V30 5 1 6 5
M  V30 6 2 7 5
M  V30 7 1 8 7
M  V30 8 1 9 8
M  V30 9 1 10 7
M  V30 10 1 11 10
M  V30 11 1 12 11
M  V30 12 1 13 12
M  V30 13 1 14 13
M  V30 14 1 15 14
M  V30 15 1 16 15
M  V30 16 1 17 16
M  V30 17 1 18 16
M  V30 18 1 19 18
M  V30 19 1 20 19
M  V30 20 1 21 20
M  V30 21 2 22 21
M  V30 22 1 23 21
M  V30 23 2 24 23
M  V30 24 1 25 24
M  V30 25 2 26 25
M  V30 26 1 27 26
M  V30 27 2 28 27
M  V30 28 1 29 28
M  V30 29 1 30 25
M  V30 30 2 30 29
M  V30 31 1 31 23
M  V30 32 1 31 30
M  V30 33 1 32 14
M  V30 34 1 33 11
M  V30 35 1 33 32
M  V30 36 1 34 3
M  V30 37 2 34 10
M  V30 38 1 35 1
M  V30 39 1 36 1
M  V30 40 1 37 1
M  V30 41 1 38 2
M  V30 42 1 39 2
M  V30 43 1 40 4
M  V30 44 1 41 9
M  V30 45 1 42 9
M  V30 46 1 43 9
M  V30 47 1 44 12
M  V30 48 1 45 12
M  V30 49 1 46 13
M  V30 50 1 47 13
M  V30 51 1 48 15
M  V30 52 1 49 15
M  V30 53 1 16 50 CFG=1
M  V30 54 1 51 18
M  V30 55 1 52 18
M  V30 56 1 53 19
M  V30 57 1 54 19
M  V30 58 1 55 20
M  V30 59 1 56 24
M  V30 60 1 57 26
M  V30 61 1 58 27
M  V30 62 1 59 28
M  V30 63 1 60 29
M  V30 64 1 61 31
M  V30 65 1 62 32
M  V30 66 1 63 32
M  V30 67 1 64 33
M  V30 68 1 65 33
M  V30 69 1 66 34
M  V30 70 1 67 14
M  V30 END BOND
M  V30 END CTAB
M  END
>  <b_m_subgroup_collapsed>  (1178) 
0

>  <r_i_docking_score>  (1178) 
-7.3992062393826501

>  <s_m_subgroup_title>  (1178) 
glide-dock_SP_D22_pv

>  <s_m_subgroupid>  (1178) 
glide-dock_SP_D22_pv

>  <Molecule ChEMBL ID>  (1178) 
CHEMBL4436317

>  <Standard Type>  (1178) 
Ki

>  <Standard Value>  (1178) 
21400.0

>  <label>  (1178) 
0

$$$$
CHEMBL2159469
     RDKit          3D

  0  0  0  0  0  0  0  0  0  0999 V3000
M  V30 BEGIN CTAB
M  V30 COUNTS 61 65 0 0 1
M  V30 BEGIN ATOM
M  V30 1 O 9.278096 9.357034 -9.812543 0
M  V30 2 C 9.989547 8.396113 -9.534874 0
M  V30 3 N 10.486618 7.557514 -10.460025 0
M  V30 4 C 10.207430 7.572475 -11.895082 0 CFG=1
M  V30 5 C 11.456761 7.137468 -12.690132 0
M  V30 6 C 11.062339 5.859310 -13.427921 0
M  V30 7 N 9.850829 5.353339 -12.748964 0 CFG=2 CHG=1
M  V30 8 C 9.046386 4.393345 -13.544653 0
M  V30 9 C 9.703656 2.996772 -13.558996 0
M  V30 10 O 8.887174 2.031242 -14.207847 0
M  V30 11 C 8.766286 2.024526 -15.580830 0
M  V30 12 C 9.728751 2.621559 -16.436882 0
M  V30 13 C 9.585040 2.557636 -17.832827 0
M  V30 14 C 8.479652 1.900341 -18.391598 0
M  V30 15 C 7.517497 1.314984 -17.551191 0
M  V30 16 C 7.640630 1.358878 -16.141935 0
M  V30 17 C 6.559898 0.760025 -15.315439 0
M  V30 18 C 5.905346 -0.424779 -15.731269 0
M  V30 19 C 4.772064 -0.909011 -15.050413 0
M  V30 20 C 4.279588 -0.227506 -13.924451 0
M  V30 21 C 4.960391 0.906926 -13.446753 0
M  V30 22 C 6.085995 1.393254 -14.139134 0
M  V30 23 C 9.121778 6.537206 -12.247366 0
M  V30 24 C 10.439219 8.111962 -8.122896 0
M  V30 25 C 10.807773 6.798761 -7.751780 0
M  V30 26 C 11.260534 6.572422 -6.446501 0
M  V30 27 C 11.286154 7.634150 -5.533798 0
M  V30 28 C 11.742989 7.411086 -4.218329 0
M  V30 29 C 11.837901 8.489660 -3.322826 0
M  V30 30 C 11.456899 9.772332 -3.744150 0
M  V30 31 C 10.983128 9.984519 -5.055785 0
M  V30 32 C 10.897239 8.922333 -5.977993 0
M  V30 33 N 10.485460 9.142399 -7.245545 0
M  V30 34 H 11.107659 6.843866 -10.114233 0
M  V30 35 H 9.880587 8.569511 -12.200521 0
M  V30 36 H 12.312328 6.967188 -12.034779 0
M  V30 37 H 11.773585 7.880759 -13.422780 0
M  V30 38 H 11.867422 5.123638 -13.441660 0
M  V30 39 H 10.833688 6.125270 -14.462904 0
M  V30 40 H 8.883997 4.774021 -14.555279 0
M  V30 41 H 8.059832 4.300458 -13.083645 0
M  V30 42 H 9.799989 2.671637 -12.525484 0
M  V30 43 H 10.722164 3.010609 -13.948503 0
M  V30 44 H 10.602490 3.125462 -16.054636 0
M  V30 45 H 10.328787 3.010249 -18.473600 0
M  V30 46 H 8.371261 1.847201 -19.465681 0
M  V30 47 H 6.665734 0.832865 -18.006420 0
M  V30 48 H 6.248660 -0.958250 -16.605270 0
M  V30 49 H 4.265739 -1.793280 -15.412554 0
M  V30 50 H 3.384212 -0.577456 -13.433100 0
M  V30 51 H 4.594626 1.442485 -12.584948 0
M  V30 52 H 6.536610 2.309987 -13.792390 0
M  V30 53 H 8.483503 6.930504 -13.040424 0
M  V30 54 H 8.470337 6.290701 -11.406237 0
M  V30 55 H 10.759387 5.964774 -8.436419 0
M  V30 56 H 11.605680 5.595617 -6.150555 0
M  V30 57 H 12.036163 6.420823 -3.896194 0
M  V30 58 H 12.195936 8.333395 -2.314678 0
M  V30 59 H 11.525514 10.594187 -3.047488 0
M  V30 60 H 10.695891 10.972737 -5.371837 0
M  V30 61 H 10.156388 4.870012 -11.917129 0
M  V30 END ATOM
M  V30 BEGIN BOND
M  V30 1 2 2 1
M  V30 2 1 3 2
M  V30 3 1 4 3
M  V30 4 1 5 4
M  V30 5 1 6 5
M  V30 6 1 7 6
M  V30 7 1 8 7
M  V30 8 1 9 8
M  V30 9 1 10 9
M  V30 10 1 11 10
M  V30 11 2 12 11
M  V30 12 1 13 12
M  V30 13 2 14 13
M  V30 14 1 15 14
M  V30 15 1 16 11
M  V30 16 2 16 15
M  V30 17 1 17 16
M  V30 18 2 18 17
M  V30 19 1 19 18
M  V30 20 2 20 19
M  V30 21 1 21 20
M  V30 22 1 22 17
M  V30 23 2 22 21
M  V30 24 1 23 4
M  V30 25 1 23 7
M  V30 26 1 24 2
M  V30 27 1 25 24
M  V30 28 2 26 25
M  V30 29 1 27 26
M  V30 30 2 28 27
M  V30 31 1 29 28
M  V30 32 2 30 29
M  V30 33 1 31 30
M  V30 34 1 32 27
M  V30 35 2 32 31
M  V30 36 2 33 24
M  V30 37 1 33 32
M  V30 38 1 34 3
M  V30 39 1 4 35 CFG=3
M  V30 40 1 36 5
M  V30 41 1 37 5
M  V30 42 1 38 6
M  V30 43 1 39 6
M  V30 44 1 40 8
M  V30 45 1 41 8
M  V30 46 1 42 9
M  V30 47 1 43 9
M  V30 48 1 44 12
M  V30 49 1 45 13
M  V30 50 1 46 14
M  V30 51 1 47 15
M  V30 52 1 48 18
M  V30 53 1 49 19
M  V30 54 1 50 20
M  V30 55 1 51 21
M  V30 56 1 52 22
M  V30 57 1 53 23
M  V30 58 1 54 23
M  V30 59 1 55 25
M  V30 60 1 56 26
M  V30 61 1 57 28
M  V30 62 1 58 29
M  V30 63 1 59 30
M  V30 64 1 60 31
M  V30 65 1 7 61 CFG=1
M  V30 END BOND
M  V30 END CTAB
M  END
>  <b_m_subgroup_collapsed>  (1179) 
0

>  <r_i_docking_score>  (1179) 
-7.3990694617389003

>  <s_m_subgroup_title>  (1179) 
glide-dock_SP_D22_pv

>  <s_m_subgroupid>  (1179) 
glide-dock_SP_D22_pv

>  <Molecule ChEMBL ID>  (1179) 
CHEMBL2159469

>  <Standard Type>  (1179) 
Ki

>  <Standard Value>  (1179) 
24.0

>  <label>  (1179) 
1

$$$$
CHEMBL134808
     RDKit          3D

  0  0  0  0  0  0  0  0  0  0999 V3000
M  V30 BEGIN CTAB
M  V30 COUNTS 44 47 0 0 1
M  V30 BEGIN ATOM
M  V30 1 O 8.416976 0.171973 -15.514054 0
M  V30 2 C 7.653461 1.041680 -14.792948 0
M  V30 3 C 6.459428 0.597394 -14.194813 0
M  V30 4 C 5.675537 1.495069 -13.447098 0
M  V30 5 C 6.085999 2.835301 -13.286109 0
M  V30 6 C 7.298191 3.281853 -13.863419 0
M  V30 7 C 8.062524 2.382581 -14.637871 0
M  V30 8 O 7.755653 4.574022 -13.714082 0
M  V30 9 C 7.235097 5.343060 -12.626946 0 CFG=2
M  V30 10 C 7.973568 4.978766 -11.311585 0
M  V30 11 N 8.486014 6.172144 -10.585081 0 CFG=2 CHG=1
M  V30 12 C 9.656431 6.782382 -11.256115 0
M  V30 13 C 10.005988 8.132488 -10.627428 0
M  V30 14 C 10.173385 8.023302 -9.128784 0
M  V30 15 C 10.954959 8.971992 -8.443250 0
M  V30 16 C 11.080507 8.911732 -7.043412 0
M  V30 17 C 10.416942 7.897927 -6.327131 0
M  V30 18 C 9.640658 6.943423 -7.011828 0
M  V30 19 C 9.524322 6.987799 -8.416786 0
M  V30 20 C 8.731297 5.901056 -9.141836 0
M  V30 21 C 5.706793 5.229867 -12.548093 0
M  V30 22 C 5.239017 3.776281 -12.463654 0
M  V30 23 H 8.088849 -0.719967 -15.511711 0
M  V30 24 H 6.139785 -0.428679 -14.310266 0
M  V30 25 H 4.754473 1.153045 -12.998398 0
M  V30 26 H 8.983918 2.716986 -15.092123 0
M  V30 27 H 7.444245 6.380737 -12.884021 0
M  V30 28 H 7.312120 4.405759 -10.661581 0
M  V30 29 H 8.813484 4.313922 -11.519726 0
M  V30 30 H 10.486122 6.088902 -11.169015 0
M  V30 31 H 9.484143 6.926923 -12.321693 0
M  V30 32 H 9.217211 8.858442 -10.831734 0
M  V30 33 H 10.923820 8.522189 -11.068194 0
M  V30 34 H 11.448270 9.760187 -8.992523 0
M  V30 35 H 11.677279 9.644921 -6.520389 0
M  V30 36 H 10.502213 7.851343 -5.251749 0
M  V30 37 H 9.136763 6.172251 -6.448278 0
M  V30 38 H 7.772197 5.771633 -8.639584 0
M  V30 39 H 9.278338 4.962895 -9.033885 0
M  V30 40 H 5.313058 5.806615 -11.710449 0
M  V30 41 H 5.285968 5.676392 -13.447335 0
M  V30 42 H 4.200652 3.699842 -12.785193 0
M  V30 43 H 5.286298 3.430939 -11.435136 0
M  V30 44 H 7.736928 6.870381 -10.584125 0
M  V30 END ATOM
M  V30 BEGIN BOND
M  V30 1 1 2 1
M  V30 2 1 3 2
M  V30 3 2 4 3
M  V30 4 1 5 4
M  V30 5 2 6 5
M  V30 6 2 7 2
M  V30 7 1 7 6
M  V30 8 1 8 6
M  V30 9 1 9 8
M  V30 10 1 10 9
M  V30 11 1 11 10
M  V30 12 1 12 11
M  V30 13 1 13 12
M  V30 14 1 14 13
M  V30 15 2 15 14
M  V30 16 1 16 15
M  V30 17 2 17 16
M  V30 18 1 18 17
M  V30 19 1 19 14
M  V30 20 2 19 18
M  V30 21 1 20 11
M  V30 22 1 20 19
M  V30 23 1 21 9
M  V30 24 1 22 5
M  V30 25 1 22 21
M  V30 26 1 23 1
M  V30 27 1 24 3
M  V30 28 1 25 4
M  V30 29 1 26 7
M  V30 30 1 9 27 CFG=3
M  V30 31 1 28 10
M  V30 32 1 29 10
M  V30 33 1 30 12
M  V30 34 1 31 12
M  V30 35 1 32 13
M  V30 36 1 33 13
M  V30 37 1 34 15
M  V30 38 1 35 16
M  V30 39 1 36 17
M  V30 40 1 37 18
M  V30 41 1 38 20
M  V30 42 1 39 20
M  V30 43 1 40 21
M  V30 44 1 41 21
M  V30 45 1 42 22
M  V30 46 1 43 22
M  V30 47 1 11 44 CFG=1
M  V30 END BOND
M  V30 END CTAB
M  END
>  <b_m_subgroup_collapsed>  (1180) 
0

>  <r_i_docking_score>  (1180) 
-7.3973499558446401

>  <s_m_subgroup_title>  (1180) 
glide-dock_SP_D22_pv

>  <s_m_subgroupid>  (1180) 
glide-dock_SP_D22_pv

>  <Molecule ChEMBL ID>  (1180) 
CHEMBL134808

>  <Standard Type>  (1180) 
Ki

>  <Standard Value>  (1180) 
4.3

>  <label>  (1180) 
1

$$$$
CHEMBL26120
     RDKit          3D

  0  0  0  0  0  0  0  0  0  0999 V3000
M  V30 BEGIN CTAB
M  V30 COUNTS 52 55 0 0 1
M  V30 BEGIN ATOM
M  V30 1 C 12.309894 4.549870 -14.864972 0
M  V30 2 C 10.965748 4.085734 -14.381144 0
M  V30 3 N 10.390656 4.736860 -13.380322 0
M  V30 4 N 9.228457 4.083301 -13.137692 0
M  V30 5 C 8.325139 4.503692 -12.070501 0 CFG=1
M  V30 6 C 9.046232 4.699132 -10.722582 0
M  V30 7 C 9.757347 6.056000 -10.585590 0
M  V30 8 N 8.885428 7.191498 -10.958081 0 CFG=1 CHG=1
M  V30 9 C 9.448071 8.546900 -10.753281 0
M  V30 10 C 10.490742 8.610641 -9.657106 0
M  V30 11 C 11.823641 8.283597 -9.980450 0
M  V30 12 C 12.813535 8.325985 -8.992794 0
M  V30 13 C 12.486382 8.796768 -7.713591 0
M  V30 14 C 11.164656 9.111560 -7.369890 0
M  V30 15 C 10.918910 9.655052 -6.045574 0
M  V30 16 N 10.742133 10.096268 -4.991558 0
M  V30 17 C 10.145310 8.972005 -8.335392 0
M  V30 18 C 8.318639 7.028262 -12.320492 0
M  V30 19 C 7.493755 5.743337 -12.431973 0
M  V30 20 C 9.048936 3.035154 -14.014807 0
M  V30 21 C 10.155342 2.992533 -14.810337 0
M  V30 22 C 10.423944 1.994925 -15.863312 0
M  V30 23 C 11.154849 2.316135 -17.029968 0
M  V30 24 C 11.404839 1.343939 -18.015913 0
M  V30 25 C 10.910455 0.036742 -17.859970 0
M  V30 26 C 10.167627 -0.293232 -16.713057 0
M  V30 27 C 9.933412 0.677974 -15.721366 0
M  V30 28 H 12.904008 3.718050 -15.239170 0
M  V30 29 H 12.203523 5.275301 -15.671885 0
M  V30 30 H 12.880148 5.026721 -14.066611 0
M  V30 31 H 7.606006 3.698493 -11.941858 0
M  V30 32 H 8.310876 4.610662 -9.920805 0
M  V30 33 H 9.774698 3.901019 -10.560850 0
M  V30 34 H 10.633600 6.160418 -11.220959 0
M  V30 35 H 10.091934 6.127041 -9.550770 0
M  V30 36 H 9.911384 8.889383 -11.678015 0
M  V30 37 H 8.635913 9.243963 -10.541837 0
M  V30 38 H 12.094460 8.000848 -10.987622 0
M  V30 39 H 13.838849 8.102416 -9.246510 0
M  V30 40 H 13.283817 8.972877 -7.008199 0
M  V30 41 H 9.121103 9.218998 -8.088494 0
M  V30 42 H 9.124457 6.977087 -13.045826 0
M  V30 43 H 7.696506 7.886775 -12.580791 0
M  V30 44 H 7.094426 5.639522 -13.442004 0
M  V30 45 H 6.632564 5.809783 -11.764329 0
M  V30 46 H 8.169449 2.406630 -13.985157 0
M  V30 47 H 11.523251 3.318567 -17.185839 0
M  V30 48 H 11.970453 1.606739 -18.898598 0
M  V30 49 H 11.098623 -0.708630 -18.620127 0
M  V30 50 H 9.789798 -1.295251 -16.583086 0
M  V30 51 H 9.375381 0.398532 -14.838982 0
M  V30 52 H 8.054541 7.170981 -10.360851 0
M  V30 END ATOM
M  V30 BEGIN BOND
M  V30 1 1 2 1
M  V30 2 2 3 2
M  V30 3 1 4 3
M  V30 4 1 5 4
M  V30 5 1 6 5
M  V30 6 1 7 6
M  V30 7 1 8 7
M  V30 8 1 9 8
M  V30 9 1 10 9
M  V30 10 2 11 10
M  V30 11 1 12 11
M  V30 12 2 13 12
M  V30 13 1 14 13
M  V30 14 1 15 14
M  V30 15 3 16 15
M  V30 16 1 17 10
M  V30 17 2 17 14
M  V30 18 1 18 8
M  V30 19 1 19 5
M  V30 20 1 19 18
M  V30 21 1 20 4
M  V30 22 1 21 2
M  V30 23 2 21 20
M  V30 24 1 22 21
M  V30 25 2 23 22
M  V30 26 1 24 23
M  V30 27 2 25 24
M  V30 28 1 26 25
M  V30 29 1 27 22
M  V30 30 2 27 26
M  V30 31 1 28 1
M  V30 32 1 29 1
M  V30 33 1 30 1
M  V30 34 1 5 31 CFG=1
M  V30 35 1 32 6
M  V30 36 1 33 6
M  V30 37 1 34 7
M  V30 38 1 35 7
M  V30 39 1 36 9
M  V30 40 1 37 9
M  V30 41 1 38 11
M  V30 42 1 39 12
M  V30 43 1 40 13
M  V30 44 1 41 17
M  V30 45 1 42 18
M  V30 46 1 43 18
M  V30 47 1 44 19
M  V30 48 1 45 19
M  V30 49 1 46 20
M  V30 50 1 47 23
M  V30 51 1 48 24
M  V30 52 1 49 25
M  V30 53 1 50 26
M  V30 54 1 51 27
M  V30 55 1 8 52 CFG=1
M  V30 END BOND
M  V30 END CTAB
M  END
>  <b_m_subgroup_collapsed>  (1181) 
0

>  <r_i_docking_score>  (1181) 
-7.3960031508701096

>  <s_m_subgroup_title>  (1181) 
glide-dock_SP_D22_pv

>  <s_m_subgroupid>  (1181) 
glide-dock_SP_D22_pv

>  <Molecule ChEMBL ID>  (1181) 
CHEMBL26120

>  <Standard Type>  (1181) 
Ki

>  <Standard Value>  (1181) 
15.0

>  <label>  (1181) 
1

$$$$
CHEMBL109787
     RDKit          3D

  0  0  0  0  0  0  0  0  0  0999 V3000
M  V30 BEGIN CTAB
M  V30 COUNTS 66 70 0 0 1
M  V30 BEGIN ATOM
M  V30 1 C 12.142551 7.908711 -11.279389 0
M  V30 2 C 10.901773 7.408837 -12.040915 0
M  V30 3 C 9.528080 7.912394 -11.516445 0
M  V30 4 N 8.886031 7.063651 -10.459765 0 CFG=1 CHG=1
M  V30 5 C 8.448254 5.731746 -10.991011 0
M  V30 6 C 7.250477 5.827318 -11.967944 0
M  V30 7 C 6.976215 4.518542 -12.671453 0
M  V30 8 C 7.794111 4.148178 -13.752283 0
M  V30 9 C 7.564833 2.938926 -14.424594 0
M  V30 10 C 6.527619 2.068078 -14.019024 0
M  V30 11 N 6.304808 0.831362 -14.646024 0
M  V30 12 C 6.953121 0.340701 -15.792487 0
M  V30 13 C 6.165626 -0.006563 -16.904696 0
M  V30 14 C 6.763085 -0.454771 -18.091352 0
M  V30 15 C 8.165483 -0.561744 -18.202616 0
M  V30 16 N 8.760990 -1.027728 -19.468248 0 CHG=1
M  V30 17 O 9.887382 -0.647216 -19.766911 0
M  V30 18 O 8.086315 -1.769393 -20.174408 0 CHG=-1
M  V30 19 C 8.957261 -0.248478 -17.092527 0
M  V30 20 N 10.284290 -0.293020 -16.928766 0
M  V30 21 O 10.485193 0.090778 -15.600052 0
M  V30 22 N 9.286891 0.362529 -14.937142 0
M  V30 23 C 8.342345 0.174485 -15.865843 0
M  V30 24 C 5.686030 2.461897 -12.955152 0
M  V30 25 C 5.914011 3.679412 -12.278872 0
M  V30 26 C 9.645454 7.055848 -9.161254 0 CFG=2
M  V30 27 C 8.962437 6.302686 -8.006442 0
M  V30 28 C 9.902095 6.172383 -6.808647 0
M  V30 29 C 10.606741 7.443356 -6.396154 0
M  V30 30 C 11.269497 7.532987 -5.145261 0
M  V30 31 O 11.286314 6.496059 -4.266136 0
M  V30 32 C 11.950658 8.705487 -4.780027 0
M  V30 33 C 11.976476 9.785042 -5.670785 0
M  V30 34 C 11.286088 9.714244 -6.885388 0
M  V30 35 C 10.616549 8.544074 -7.274875 0
M  V30 36 C 9.931599 8.492267 -8.633925 0
M  V30 37 H 13.036551 7.771871 -11.887710 0
M  V30 38 H 12.082419 8.972227 -11.046875 0
M  V30 39 H 12.309326 7.375271 -10.346024 0
M  V30 40 H 10.938915 6.328256 -12.150888 0
M  V30 41 H 11.007002 7.772144 -13.060034 0
M  V30 42 H 8.857100 7.986510 -12.366895 0
M  V30 43 H 9.596096 8.951807 -11.201537 0
M  V30 44 H 9.282114 5.210262 -11.455885 0
M  V30 45 H 8.111120 5.067675 -10.202645 0
M  V30 46 H 6.346206 6.139541 -11.446842 0
M  V30 47 H 7.401650 6.563846 -12.752851 0
M  V30 48 H 8.599800 4.791391 -14.074658 0
M  V30 49 H 8.204618 2.707547 -15.259615 0
M  V30 50 H 5.388616 0.443527 -14.473394 0
M  V30 51 H 5.089659 0.087964 -16.859394 0
M  V30 52 H 6.132334 -0.706730 -18.932514 0
M  V30 53 H 4.879469 1.820239 -12.632764 0
M  V30 54 H 5.286055 3.960106 -11.447009 0
M  V30 55 H 10.585843 6.539711 -9.345949 0
M  V30 56 H 8.631216 5.297796 -8.252815 0
M  V30 57 H 8.086060 6.857263 -7.688071 0
M  V30 58 H 10.669459 5.436397 -7.046983 0
M  V30 59 H 9.316872 5.840062 -5.962061 0
M  V30 60 H 10.859229 5.713584 -4.584876 0
M  V30 61 H 12.473673 8.765279 -3.836549 0
M  V30 62 H 12.533527 10.672799 -5.446858 0
M  V30 63 H 11.286241 10.572279 -7.522610 0
M  V30 64 H 8.997030 9.050638 -8.555213 0
M  V30 65 H 10.572219 9.050812 -9.311453 0
M  V30 66 H 7.977537 7.501225 -10.247182 0
M  V30 END ATOM
M  V30 BEGIN BOND
M  V30 1 1 2 1
M  V30 2 1 3 2
M  V30 3 1 4 3
M  V30 4 1 5 4
M  V30 5 1 6 5
M  V30 6 1 7 6
M  V30 7 1 8 7
M  V30 8 2 9 8
M  V30 9 1 10 9
M  V30 10 1 11 10
M  V30 11 1 12 11
M  V30 12 2 13 12
M  V30 13 1 14 13
M  V30 14 2 15 14
M  V30 15 1 16 15
M  V30 16 2 17 16
M  V30 17 1 18 16
M  V30 18 1 19 15
M  V30 19 2 20 19
M  V30 20 1 21 20
M  V30 21 1 22 21
M  V30 22 1 23 12
M  V30 23 1 23 19
M  V30 24 2 23 22
M  V30 25 2 24 10
M  V30 26 2 25 7
M  V30 27 1 25 24
M  V30 28 1 26 4
M  V30 29 1 27 26
M  V30 30 1 28 27
M  V30 31 1 29 28
M  V30 32 2 30 29
M  V30 33 1 31 30
M  V30 34 1 32 30
M  V30 35 2 33 32
M  V30 36 1 34 33
M  V30 37 1 35 29
M  V30 38 2 35 34
M  V30 39 1 36 26
M  V30 40 1 36 35
M  V30 41 1 37 1
M  V30 42 1 38 1
M  V30 43 1 39 1
M  V30 44 1 40 2
M  V30 45 1 41 2
M  V30 46 1 42 3
M  V30 47 1 43 3
M  V30 48 1 44 5
M  V30 49 1 45 5
M  V30 50 1 46 6
M  V30 51 1 47 6
M  V30 52 1 48 8
M  V30 53 1 49 9
M  V30 54 1 50 11
M  V30 55 1 51 13
M  V30 56 1 52 14
M  V30 57 1 53 24
M  V30 58 1 54 25
M  V30 59 1 26 55 CFG=3
M  V30 60 1 56 27
M  V30 61 1 57 27
M  V30 62 1 58 28
M  V30 63 1 59 28
M  V30 64 1 60 31
M  V30 65 1 61 32
M  V30 66 1 62 33
M  V30 67 1 63 34
M  V30 68 1 64 36
M  V30 69 1 65 36
M  V30 70 1 4 66 CFG=1
M  V30 END BOND
M  V30 END CTAB
M  END
>  <b_m_subgroup_collapsed>  (1182) 
0

>  <r_i_docking_score>  (1182) 
-7.39565468672546

>  <s_m_subgroup_title>  (1182) 
glide-dock_SP_D22_pv

>  <s_m_subgroupid>  (1182) 
glide-dock_SP_D22_pv

>  <Molecule ChEMBL ID>  (1182) 
CHEMBL109787

>  <Standard Type>  (1182) 
Ki

>  <Standard Value>  (1182) 
0.45

>  <label>  (1182) 
1

$$$$
CHEMBL238875
     RDKit          3D

  0  0  0  0  0  0  0  0  0  0999 V3000
M  V30 BEGIN CTAB
M  V30 COUNTS 71 74 0 0 1
M  V30 BEGIN ATOM
M  V30 1 C 7.773642 1.397163 -19.614370 0
M  V30 2 O 8.819838 1.845798 -18.765350 0
M  V30 3 C 8.852900 1.377828 -17.467228 0
M  V30 4 C 7.809806 0.614663 -16.882725 0
M  V30 5 C 7.904862 0.173426 -15.549180 0
M  V30 6 C 9.040917 0.490730 -14.784444 0
M  V30 7 C 10.096377 1.218519 -15.357574 0
M  V30 8 C 9.999426 1.677410 -16.687981 0
M  V30 9 N 11.082014 2.413267 -17.250937 0
M  V30 10 C 12.036033 1.753108 -17.963268 0
M  V30 11 C 11.997427 0.222037 -18.040512 0
M  V30 12 O 12.929053 2.332278 -18.584810 0
M  V30 13 C 11.065639 3.903410 -17.226212 0 CFG=1
M  V30 14 C 9.771375 4.571461 -16.697557 0
M  V30 15 C 9.659996 4.636188 -15.156477 0
M  V30 16 N 10.879335 5.207858 -14.528090 0 CFG=1 CHG=1
M  V30 17 C 10.837329 5.259976 -13.043715 0
M  V30 18 C 9.628136 5.986427 -12.411832 0
M  V30 19 C 9.736648 6.147153 -10.878843 0
M  V30 20 C 10.770142 7.205339 -10.442464 0
M  V30 21 N 10.887340 7.315013 -8.989688 0
M  V30 22 C 10.247986 8.234857 -8.253433 0
M  V30 23 O 9.374109 8.972247 -8.706525 0
M  V30 24 C 10.766014 8.441429 -6.859169 0
M  V30 25 C 10.886202 9.757963 -6.378920 0
M  V30 26 C 11.285318 10.031256 -5.064927 0
M  V30 27 C 11.650361 8.974599 -4.218422 0
M  V30 28 C 12.086004 9.239573 -2.905917 0
M  V30 29 C 12.441282 8.176474 -2.056853 0
M  V30 30 C 12.340962 6.849802 -2.518192 0
M  V30 31 C 11.898762 6.588032 -3.827196 0
M  V30 32 C 11.555165 7.641898 -4.688529 0
M  V30 33 C 11.098401 7.371722 -5.999422 0
M  V30 34 C 12.111712 4.504760 -14.971641 0
M  V30 35 C 12.274689 4.530647 -16.494686 0
M  V30 36 H 7.931402 1.791475 -20.617308 0
M  V30 37 H 7.754154 0.307931 -19.687054 0
M  V30 38 H 6.801697 1.754568 -19.271315 0
M  V30 39 H 6.920860 0.354270 -17.436827 0
M  V30 40 H 7.103652 -0.406742 -15.113734 0
M  V30 41 H 9.108032 0.166661 -13.758938 0
M  V30 42 H 10.973991 1.431314 -14.765996 0
M  V30 43 H 11.959105 -0.224198 -17.048285 0
M  V30 44 H 11.128115 -0.113166 -18.606377 0
M  V30 45 H 12.887976 -0.157968 -18.541842 0
M  V30 46 H 11.137733 4.202416 -18.274490 0
M  V30 47 H 9.753181 5.596592 -17.072311 0
M  V30 48 H 8.886120 4.103487 -17.127110 0
M  V30 49 H 9.457952 3.655487 -14.732993 0
M  V30 50 H 8.799196 5.255938 -14.908779 0
M  V30 51 H 10.886176 4.244009 -12.647818 0
M  V30 52 H 11.746383 5.772676 -12.732200 0
M  V30 53 H 9.493433 6.971606 -12.850273 0
M  V30 54 H 8.716053 5.427408 -12.625174 0
M  V30 55 H 8.758307 6.441639 -10.491826 0
M  V30 56 H 9.962367 5.184262 -10.419087 0
M  V30 57 H 11.761944 6.972364 -10.824406 0
M  V30 58 H 10.512027 8.174388 -10.876182 0
M  V30 59 H 11.598643 6.763772 -8.533126 0
M  V30 60 H 10.657980 10.572155 -7.032915 0
M  V30 61 H 11.286065 11.053087 -4.719956 0
M  V30 62 H 12.144695 10.255999 -2.545175 0
M  V30 63 H 12.776489 8.378914 -1.049573 0
M  V30 64 H 12.602734 6.027623 -1.865604 0
M  V30 65 H 11.832767 5.576540 -4.183409 0
M  V30 66 H 10.998119 6.349855 -6.337478 0
M  V30 67 H 12.097092 3.472831 -14.618106 0
M  V30 68 H 12.986141 4.975916 -14.518631 0
M  V30 69 H 13.213032 4.047432 -16.765295 0
M  V30 70 H 12.384878 5.566545 -16.819416 0
M  V30 71 H 10.954138 6.160371 -14.853978 0
M  V30 END ATOM
M  V30 BEGIN BOND
M  V30 1 1 2 1
M  V30 2 1 3 2
M  V30 3 2 4 3
M  V30 4 1 5 4
M  V30 5 2 6 5
M  V30 6 1 7 6
M  V30 7 1 8 3
M  V30 8 2 8 7
M  V30 9 1 9 8
M  V30 10 1 10 9
M  V30 11 1 11 10
M  V30 12 2 12 10
M  V30 13 1 13 9
M  V30 14 1 14 13
M  V30 15 1 15 14
M  V30 16 1 16 15
M  V30 17 1 17 16
M  V30 18 1 18 17
M  V30 19 1 19 18
M  V30 20 1 20 19
M  V30 21 1 21 20
M  V30 22 1 22 21
M  V30 23 2 23 22
M  V30 24 1 24 22
M  V30 25 1 25 24
M  V30 26 2 26 25
M  V30 27 1 27 26
M  V30 28 2 28 27
M  V30 29 1 29 28
M  V30 30 2 30 29
M  V30 31 1 31 30
M  V30 32 1 32 27
M  V30 33 2 32 31
M  V30 34 2 33 24
M  V30 35 1 33 32
M  V30 36 1 34 16
M  V30 37 1 35 13
M  V30 38 1 35 34
M  V30 39 1 36 1
M  V30 40 1 37 1
M  V30 41 1 38 1
M  V30 42 1 39 4
M  V30 43 1 40 5
M  V30 44 1 41 6
M  V30 45 1 42 7
M  V30 46 1 43 11
M  V30 47 1 44 11
M  V30 48 1 45 11
M  V30 49 1 13 46 CFG=3
M  V30 50 1 47 14
M  V30 51 1 48 14
M  V30 52 1 49 15
M  V30 53 1 50 15
M  V30 54 1 51 17
M  V30 55 1 52 17
M  V30 56 1 53 18
M  V30 57 1 54 18
M  V30 58 1 55 19
M  V30 59 1 56 19
M  V30 60 1 57 20
M  V30 61 1 58 20
M  V30 62 1 59 21
M  V30 63 1 60 25
M  V30 64 1 61 26
M  V30 65 1 62 28
M  V30 66 1 63 29
M  V30 67 1 64 30
M  V30 68 1 65 31
M  V30 69 1 66 33
M  V30 70 1 67 34
M  V30 71 1 68 34
M  V30 72 1 69 35
M  V30 73 1 70 35
M  V30 74 1 16 71 CFG=3
M  V30 END BOND
M  V30 END CTAB
M  END
>  <b_m_subgroup_collapsed>  (1183) 
0

>  <r_i_docking_score>  (1183) 
-7.3926672730766301

>  <s_m_subgroup_title>  (1183) 
glide-dock_SP_D22_pv

>  <s_m_subgroupid>  (1183) 
glide-dock_SP_D22_pv

>  <Molecule ChEMBL ID>  (1183) 
CHEMBL238875

>  <Standard Type>  (1183) 
Ki

>  <Standard Value>  (1183) 
13350.0

>  <label>  (1183) 
0

$$$$
CHEMBL3764251
     RDKit          3D

  0  0  0  0  0  0  0  0  0  0999 V3000
M  V30 BEGIN CTAB
M  V30 COUNTS 57 60 0 0 1
M  V30 BEGIN ATOM
M  V30 1 C 9.246910 0.908290 -15.759863 0
M  V30 2 N 10.135082 0.589746 -16.863977 0
M  V30 3 C 10.321045 -0.625079 -17.396372 0
M  V30 4 N 11.218935 -0.674645 -18.371025 0
M  V30 5 C 11.632921 0.648518 -18.502512 0
M  V30 6 C 10.966100 1.445053 -17.596062 0
M  V30 7 C 11.044270 2.889757 -17.364820 0
M  V30 8 N 9.972493 3.627240 -17.054647 0
M  V30 9 N 10.418473 4.918786 -16.914680 0
M  V30 10 C 11.732572 4.861177 -17.123051 0
M  V30 11 S 12.803870 6.260265 -17.036390 0
M  V30 12 C 13.104339 6.258052 -15.244314 0
M  V30 13 C 11.893314 6.789150 -14.467222 0
M  V30 14 C 12.107095 6.815647 -12.949410 0
M  V30 15 N 10.903975 7.074658 -12.146652 0
M  V30 16 C 9.968939 5.946368 -12.175424 0
M  V30 17 C 8.773574 6.133556 -11.226232 0
M  V30 18 O 9.258917 6.371899 -9.912334 0
M  V30 19 C 10.047424 7.554594 -9.825467 0 CFG=1
M  V30 20 C 10.479966 7.850385 -8.394904 0
M  V30 21 C 10.081502 7.038035 -7.310658 0
M  V30 22 C 10.483413 7.352206 -5.997683 0
M  V30 23 C 11.285053 8.488187 -5.747112 0
M  V30 24 C 11.702939 8.859923 -4.332618 0
M  V30 25 F 12.927124 9.371645 -4.344339 0
M  V30 26 F 10.885859 9.787452 -3.848611 0
M  V30 27 F 11.690731 7.801196 -3.526408 0
M  V30 28 C 11.679791 9.301029 -6.827183 0
M  V30 29 C 11.285225 8.976232 -8.139587 0
M  V30 30 C 11.265280 7.373792 -10.757868 0
M  V30 31 N 12.178060 3.624537 -17.414486 0
M  V30 32 C 13.538274 3.212255 -17.714754 0
M  V30 33 H 9.766714 1.533544 -15.030048 0
M  V30 34 H 8.369303 1.439102 -16.132761 0
M  V30 35 H 8.916457 -0.005597 -15.261872 0
M  V30 36 H 9.797720 -1.501311 -17.047272 0
M  V30 37 H 12.371229 0.925089 -19.242598 0
M  V30 38 H 13.360868 5.248177 -14.920706 0
M  V30 39 H 13.973316 6.884137 -15.047285 0
M  V30 40 H 11.684716 7.798211 -14.812938 0
M  V30 41 H 11.028108 6.177833 -14.709415 0
M  V30 42 H 12.553274 5.869424 -12.646903 0
M  V30 43 H 12.856478 7.579188 -12.735500 0
M  V30 44 H 9.576146 5.804506 -13.182707 0
M  V30 45 H 10.485036 5.026027 -11.913569 0
M  V30 46 H 8.144345 6.961666 -11.548563 0
M  V30 47 H 8.147492 5.242506 -11.214646 0
M  V30 48 H 9.443268 8.399943 -10.163689 0
M  V30 49 H 9.455724 6.174487 -7.473282 0
M  V30 50 H 10.165455 6.720214 -5.181783 0
M  V30 51 H 12.279884 10.183447 -6.649794 0
M  V30 52 H 11.579282 9.616195 -8.957484 0
M  V30 53 H 11.873343 6.573145 -10.337185 0
M  V30 54 H 11.882657 8.271929 -10.741768 0
M  V30 55 H 14.252180 3.808359 -17.144224 0
M  V30 56 H 13.684358 2.170074 -17.447437 0
M  V30 57 H 13.738853 3.343860 -18.778273 0
M  V30 END ATOM
M  V30 BEGIN BOND
M  V30 1 1 2 1
M  V30 2 1 3 2
M  V30 3 2 4 3
M  V30 4 1 5 4
M  V30 5 1 6 2
M  V30 6 2 6 5
M  V30 7 1 7 6
M  V30 8 2 8 7
M  V30 9 1 9 8
M  V30 10 2 10 9
M  V30 11 1 11 10
M  V30 12 1 12 11
M  V30 13 1 13 12
M  V30 14 1 14 13
M  V30 15 1 15 14
M  V30 16 1 16 15
M  V30 17 1 17 16
M  V30 18 1 18 17
M  V30 19 1 19 18
M  V30 20 1 20 19
M  V30 21 1 21 20
M  V30 22 2 22 21
M  V30 23 1 23 22
M  V30 24 1 24 23
M  V30 25 1 25 24
M  V30 26 1 26 24
M  V30 27 1 27 24
M  V30 28 2 28 23
M  V30 29 2 29 20
M  V30 30 1 29 28
M  V30 31 1 30 15
M  V30 32 1 30 19
M  V30 33 1 31 7
M  V30 34 1 31 10
M  V30 35 1 32 31
M  V30 36 1 33 1
M  V30 37 1 34 1
M  V30 38 1 35 1
M  V30 39 1 36 3
M  V30 40 1 37 5
M  V30 41 1 38 12
M  V30 42 1 39 12
M  V30 43 1 40 13
M  V30 44 1 41 13
M  V30 45 1 42 14
M  V30 46 1 43 14
M  V30 47 1 44 16
M  V30 48 1 45 16
M  V30 49 1 46 17
M  V30 50 1 47 17
M  V30 51 1 19 48 CFG=3
M  V30 52 1 49 21
M  V30 53 1 50 22
M  V30 54 1 51 28
M  V30 55 1 52 29
M  V30 56 1 53 30
M  V30 57 1 54 30
M  V30 58 1 55 32
M  V30 59 1 56 32
M  V30 60 1 57 32
M  V30 END BOND
M  V30 END CTAB
M  END
>  <b_m_subgroup_collapsed>  (1184) 
0

>  <r_i_docking_score>  (1184) 
-7.3916996363663898

>  <s_m_subgroup_title>  (1184) 
glide-dock_SP_D22_pv

>  <s_m_subgroupid>  (1184) 
glide-dock_SP_D22_pv

>  <Molecule ChEMBL ID>  (1184) 
CHEMBL3764251

>  <Standard Type>  (1184) 
Ki

>  <Standard Value>  (1184) 
10000.0

>  <label>  (1184) 
0

$$$$
CHEMBL569322
     RDKit          3D

  0  0  0  0  0  0  0  0  0  0999 V3000
M  V30 BEGIN CTAB
M  V30 COUNTS 71 75 0 0 1
M  V30 BEGIN ATOM
M  V30 1 C 5.832861 6.491763 -12.646852 0
M  V30 2 C 5.965631 5.025793 -13.083451 0
M  V30 3 C 7.088934 4.270386 -12.364335 0
M  V30 4 N 8.427949 4.810048 -12.732203 0 CFG=1 CHG=1
M  V30 5 C 9.339613 4.989684 -11.567459 0
M  V30 6 C 8.996754 6.239336 -10.728932 0
M  V30 7 N 10.006212 6.413785 -9.681560 0
M  V30 8 C 10.451271 7.805489 -9.591133 0
M  V30 9 C 11.637619 7.894136 -8.609023 0
M  V30 10 N 11.285803 7.345181 -7.291166 0
M  V30 11 C 11.254490 8.190429 -6.164831 0
M  V30 12 N 10.885099 9.456247 -6.426440 0 CHG=1
M  V30 13 C 10.886030 10.431338 -5.517240 0
M  V30 14 C 11.283124 10.172459 -4.207157 0
M  V30 15 C 11.683804 8.896609 -3.852236 0
M  V30 16 C 12.111612 8.692964 -2.533215 0
M  V30 17 C 12.485991 7.412296 -2.135708 0
M  V30 18 C 12.405315 6.355565 -3.047156 0
M  V30 19 C 11.981353 6.573512 -4.377456 0
M  V30 20 C 11.629164 7.860718 -4.819006 0
M  V30 21 C 10.560749 6.084436 -7.290467 0
M  V30 22 C 9.457933 6.041112 -8.372517 0
M  V30 23 C 9.040867 4.143352 -13.928578 0 CFG=2
M  V30 24 C 9.862002 2.880390 -13.626637 0
M  V30 25 C 10.323360 2.182209 -14.908674 0
M  V30 26 C 11.017502 3.130879 -15.866323 0
M  V30 27 C 11.906875 2.609938 -16.828930 0
M  V30 28 C 12.570246 3.470783 -17.722731 0
M  V30 29 C 12.344272 4.858751 -17.662184 0
M  V30 30 O 12.995527 5.689732 -18.526754 0
M  V30 31 C 11.450823 5.383552 -16.706909 0
M  V30 32 C 10.784883 4.526435 -15.805412 0
M  V30 33 C 9.862768 5.139634 -14.761109 0
M  V30 34 H 5.285991 7.072402 -13.387354 0
M  V30 35 H 5.286292 6.571131 -11.705795 0
M  V30 36 H 6.796414 6.984576 -12.525477 0
M  V30 37 H 6.129612 4.964712 -14.156052 0
M  V30 38 H 5.015762 4.518430 -12.907584 0
M  V30 39 H 7.018373 3.221598 -12.647293 0
M  V30 40 H 6.919074 4.317055 -11.287659 0
M  V30 41 H 9.351862 4.094124 -10.948450 0
M  V30 42 H 10.356579 5.120205 -11.933956 0
M  V30 43 H 8.984024 7.107883 -11.388323 0
M  V30 44 H 7.995346 6.171933 -10.301718 0
M  V30 45 H 10.777596 8.154845 -10.571428 0
M  V30 46 H 9.628506 8.451555 -9.278770 0
M  V30 47 H 12.500383 7.372325 -9.011186 0
M  V30 48 H 11.976170 8.928178 -8.545527 0
M  V30 49 H 10.547451 11.372283 -5.879105 0
M  V30 50 H 11.286202 10.968766 -3.478162 0
M  V30 51 H 12.169057 9.512411 -1.830355 0
M  V30 52 H 12.886004 7.250748 -1.144238 0
M  V30 53 H 12.715751 5.372338 -2.734181 0
M  V30 54 H 11.981608 5.752925 -5.070045 0
M  V30 55 H 11.285220 5.290392 -7.451880 0
M  V30 56 H 10.099331 5.917174 -6.318297 0
M  V30 57 H 8.635380 6.708652 -8.103646 0
M  V30 58 H 9.040998 5.034582 -8.419469 0
M  V30 59 H 8.223619 3.825012 -14.577969 0
M  V30 60 H 10.743309 3.141507 -13.047276 0
M  V30 61 H 9.285911 2.172324 -13.046838 0
M  V30 62 H 9.468330 1.742627 -15.423491 0
M  V30 63 H 10.994345 1.359100 -14.658212 0
M  V30 64 H 12.093932 1.547152 -16.877872 0
M  V30 65 H 13.255939 3.064003 -18.451744 0
M  V30 66 H 12.771667 6.601077 -18.418634 0
M  V30 67 H 11.282305 6.449871 -16.656527 0
M  V30 68 H 10.476274 5.776637 -14.124245 0
M  V30 69 H 9.156557 5.772305 -15.283298 0
M  V30 70 H 8.227959 5.752304 -13.034739 0
M  V30 71 H 10.593131 9.685020 -7.377023 0
M  V30 END ATOM
M  V30 BEGIN BOND
M  V30 1 1 2 1
M  V30 2 1 3 2
M  V30 3 1 4 3
M  V30 4 1 5 4
M  V30 5 1 6 5
M  V30 6 1 7 6
M  V30 7 1 8 7
M  V30 8 1 9 8
M  V30 9 1 10 9
M  V30 10 1 11 10
M  V30 11 2 12 11
M  V30 12 1 13 12
M  V30 13 2 14 13
M  V30 14 1 15 14
M  V30 15 2 16 15
M  V30 16 1 17 16
M  V30 17 2 18 17
M  V30 18 1 19 18
M  V30 19 1 20 11
M  V30 20 1 20 15
M  V30 21 2 20 19
M  V30 22 1 21 10
M  V30 23 1 22 7
M  V30 24 1 22 21
M  V30 25 1 23 4
M  V30 26 1 24 23
M  V30 27 1 25 24
M  V30 28 1 26 25
M  V30 29 1 27 26
M  V30 30 2 28 27
M  V30 31 1 29 28
M  V30 32 1 30 29
M  V30 33 2 31 29
M  V30 34 2 32 26
M  V30 35 1 32 31
M  V30 36 1 33 23
M  V30 37 1 33 32
M  V30 38 1 34 1
M  V30 39 1 35 1
M  V30 40 1 36 1
M  V30 41 1 37 2
M  V30 42 1 38 2
M  V30 43 1 39 3
M  V30 44 1 40 3
M  V30 45 1 41 5
M  V30 46 1 42 5
M  V30 47 1 43 6
M  V30 48 1 44 6
M  V30 49 1 45 8
M  V30 50 1 46 8
M  V30 51 1 47 9
M  V30 52 1 48 9
M  V30 53 1 49 13
M  V30 54 1 50 14
M  V30 55 1 51 16
M  V30 56 1 52 17
M  V30 57 1 53 18
M  V30 58 1 54 19
M  V30 59 1 55 21
M  V30 60 1 56 21
M  V30 61 1 57 22
M  V30 62 1 58 22
M  V30 63 1 23 59 CFG=3
M  V30 64 1 60 24
M  V30 65 1 61 24
M  V30 66 1 62 25
M  V30 67 1 63 25
M  V30 68 1 64 27
M  V30 69 1 65 28
M  V30 70 1 66 30
M  V30 71 1 67 31
M  V30 72 1 68 33
M  V30 73 1 69 33
M  V30 74 1 4 70 CFG=3
M  V30 75 1 71 12
M  V30 END BOND
M  V30 END CTAB
M  END
>  <b_m_subgroup_collapsed>  (1185) 
0

>  <r_i_docking_score>  (1185) 
-7.3915014285879703

>  <s_m_subgroup_title>  (1185) 
glide-dock_SP_D22_pv

>  <s_m_subgroupid>  (1185) 
glide-dock_SP_D22_pv

>  <Molecule ChEMBL ID>  (1185) 
CHEMBL569322

>  <Standard Type>  (1185) 
Ki

>  <Standard Value>  (1185) 
21.7

>  <label>  (1185) 
1

$$$$
CHEMBL5856810
     RDKit          3D

  0  0  0  0  0  0  0  0  0  0999 V3000
M  V30 BEGIN CTAB
M  V30 COUNTS 57 59 0 0 1
M  V30 BEGIN ATOM
M  V30 1 C 5.958401 6.436702 -12.646878 0
M  V30 2 C 7.462121 6.760683 -12.620253 0
M  V30 3 N 8.303896 5.568800 -12.411801 0
M  V30 4 C 8.170394 4.979197 -11.070908 0
M  V30 5 C 9.411221 5.280475 -10.222564 0
M  V30 6 N 9.362807 6.622904 -9.581989 0 CFG=2 CHG=1
M  V30 7 C 10.714529 7.248291 -9.503852 0
M  V30 8 C 10.737913 8.606359 -8.773528 0
M  V30 9 C 10.048503 8.561690 -7.396754 0 CFG=2
M  V30 10 C 10.828103 7.869893 -6.298784 0
M  V30 11 N 11.123080 6.575135 -6.386749 0
M  V30 12 O 11.686243 6.172487 -5.151568 0
M  V30 13 C 11.806490 7.264034 -4.319444 0
M  V30 14 C 12.339012 7.382716 -3.032030 0
M  V30 15 C 12.354364 8.665369 -2.455416 0
M  V30 16 F 12.884045 8.837612 -1.224978 0
M  V30 17 C 11.826314 9.772304 -3.160840 0
M  V30 18 C 11.284802 9.624434 -4.460207 0
M  V30 19 C 11.287117 8.339890 -5.046437 0
M  V30 20 C 8.649553 7.956952 -7.578061 0
M  V30 21 C 8.682042 6.570430 -8.265781 0
M  V30 22 S 8.600986 4.515744 -13.770198 0
M  V30 23 O 8.886039 5.372270 -14.926452 0
M  V30 24 O 7.494593 3.549145 -13.828691 0
M  V30 25 C 10.185674 3.649557 -13.376836 0 CFG=2
M  V30 26 C 11.338395 4.670884 -13.447062 0
M  V30 27 C 10.457676 2.522672 -14.397607 0
M  V30 28 O 9.593604 1.418844 -14.246853 0
M  V30 29 H 5.389667 7.332025 -12.898780 0
M  V30 30 H 5.717889 5.672743 -13.386449 0
M  V30 31 H 5.585677 6.093541 -11.683183 0
M  V30 32 H 7.686009 7.494024 -11.846952 0
M  V30 33 H 7.729915 7.240895 -13.549963 0
M  V30 34 H 7.286035 5.347190 -10.565346 0
M  V30 35 H 8.027360 3.905970 -11.177996 0
M  V30 36 H 9.544996 4.508601 -9.463039 0
M  V30 37 H 10.279368 5.207481 -10.863323 0
M  V30 38 H 11.384159 6.572032 -8.986694 0
M  V30 39 H 11.114472 7.373189 -10.511226 0
M  V30 40 H 11.762456 8.967862 -8.673605 0
M  V30 41 H 10.222591 9.337135 -9.398957 0
M  V30 42 H 9.915018 9.596231 -7.083634 0
M  V30 43 H 12.735474 6.523827 -2.510919 0
M  V30 44 H 11.843722 10.743275 -2.688220 0
M  V30 45 H 10.885561 10.477774 -4.988669 0
M  V30 46 H 8.118443 7.899884 -6.628079 0
M  V30 47 H 8.086123 8.650334 -8.198466 0
M  V30 48 H 7.686087 6.171801 -8.421660 0
M  V30 49 H 9.149074 5.825169 -7.626934 0
M  V30 50 H 10.084991 3.228064 -12.377148 0
M  V30 51 H 12.273836 4.252136 -13.077195 0
M  V30 52 H 11.513375 4.992690 -14.474463 0
M  V30 53 H 11.123528 5.571847 -12.874921 0
M  V30 54 H 11.477983 2.156207 -14.283456 0
M  V30 55 H 10.372706 2.901061 -15.417153 0
M  V30 56 H 9.688341 1.092014 -13.354773 0
M  V30 57 H 8.783262 7.209170 -10.171948 0
M  V30 END ATOM
M  V30 BEGIN BOND
M  V30 1 1 2 1
M  V30 2 1 3 2
M  V30 3 1 4 3
M  V30 4 1 5 4
M  V30 5 1 6 5
M  V30 6 1 7 6
M  V30 7 1 8 7
M  V30 8 1 9 8
M  V30 9 1 10 9
M  V30 10 2 11 10
M  V30 11 1 12 11
M  V30 12 1 13 12
M  V30 13 1 14 13
M  V30 14 2 15 14
M  V30 15 1 16 15
M  V30 16 1 17 15
M  V30 17 2 18 17
M  V30 18 1 19 10
M  V30 19 2 19 13
M  V30 20 1 19 18
M  V30 21 1 20 9
M  V30 22 1 21 6
M  V30 23 1 21 20
M  V30 24 1 22 3
M  V30 25 2 23 22
M  V30 26 2 24 22
M  V30 27 1 25 22
M  V30 28 1 26 25
M  V30 29 1 27 25
M  V30 30 1 28 27
M  V30 31 1 29 1
M  V30 32 1 30 1
M  V30 33 1 31 1
M  V30 34 1 32 2
M  V30 35 1 33 2
M  V30 36 1 34 4
M  V30 37 1 35 4
M  V30 38 1 36 5
M  V30 39 1 37 5
M  V30 40 1 38 7
M  V30 41 1 39 7
M  V30 42 1 40 8
M  V30 43 1 41 8
M  V30 44 1 9 42 CFG=1
M  V30 45 1 43 14
M  V30 46 1 44 17
M  V30 47 1 45 18
M  V30 48 1 46 20
M  V30 49 1 47 20
M  V30 50 1 48 21
M  V30 51 1 49 21
M  V30 52 1 25 50 CFG=1
M  V30 53 1 51 26
M  V30 54 1 52 26
M  V30 55 1 53 26
M  V30 56 1 54 27
M  V30 57 1 55 27
M  V30 58 1 56 28
M  V30 59 1 6 57 CFG=3
M  V30 END BOND
M  V30 END CTAB
M  END
>  <b_m_subgroup_collapsed>  (1186) 
0

>  <r_i_docking_score>  (1186) 
-7.3884127241827402

>  <s_m_subgroup_title>  (1186) 
glide-dock_SP_D22_pv

>  <s_m_subgroupid>  (1186) 
glide-dock_SP_D22_pv

>  <Molecule ChEMBL ID>  (1186) 
CHEMBL5856810

>  <Standard Type>  (1186) 
Ki

>  <Standard Value>  (1186) 
10000.0

>  <label>  (1186) 
0

$$$$
CHEMBL3298828
     RDKit          3D

  0  0  0  0  0  0  0  0  0  0999 V3000
M  V30 BEGIN CTAB
M  V30 COUNTS 71 74 0 0 1
M  V30 BEGIN ATOM
M  V30 1 C 15.172752 10.155214 -18.369137 0
M  V30 2 O 14.490655 9.404338 -19.362610 0
M  V30 3 C 13.680176 8.364887 -18.959312 0
M  V30 4 N 13.694592 8.013096 -17.652010 0
M  V30 5 C 12.861477 6.992857 -17.308527 0
M  V30 6 S 12.746493 6.439622 -15.651235 0
M  V30 7 C 11.530568 5.271769 -16.087078 0
M  V30 8 C 10.964166 4.513800 -14.948873 0
M  V30 9 O 11.522285 4.465856 -13.850884 0
M  V30 10 N 9.755805 3.980689 -15.179378 0
M  V30 11 C 8.845270 3.522089 -14.143042 0
M  V30 12 C 7.983565 4.707869 -13.663868 0
M  V30 13 C 7.618414 4.677991 -12.179955 0
M  V30 14 C 8.833411 4.867364 -11.259078 0
M  V30 15 C 8.401576 4.906470 -9.796950 0
M  V30 16 C 9.550694 5.089546 -8.812465 0
M  V30 17 N 9.679560 6.523093 -8.493924 0 CFG=2 CHG=1
M  V30 18 C 11.084547 7.002970 -8.458483 0
M  V30 19 C 11.172926 8.512054 -8.175198 0
M  V30 20 C 10.308048 8.955266 -6.982221 0 CFG=2
M  V30 21 C 10.946618 8.753856 -5.614754 0
M  V30 22 C 11.144611 9.900836 -4.823189 0
M  V30 23 C 11.687070 9.782176 -3.540972 0
M  V30 24 C 12.056240 8.540422 -3.036546 0
M  V30 25 Cl 12.665438 8.502920 -1.446773 0
M  V30 26 C 11.886873 7.379848 -3.809291 0
M  V30 27 C 11.322430 7.488834 -5.096792 0
M  V30 28 C 8.885137 8.393874 -7.102282 0
M  V30 29 C 8.892020 6.880679 -7.290886 0
M  V30 30 C 11.269959 5.222542 -17.442232 0
M  V30 31 N 10.398940 4.324383 -18.088181 0
M  V30 32 C 11.994974 6.254713 -18.177038 0
M  V30 33 C 12.025673 6.665631 -19.541794 0
M  V30 34 C 11.133729 5.971080 -20.562510 0
M  V30 35 C 12.878443 7.729813 -19.930458 0
M  V30 36 Cl 12.956704 8.285298 -21.568100 0
M  V30 37 H 15.684752 10.971936 -18.865295 0
M  V30 38 H 14.487384 10.587595 -17.638285 0
M  V30 39 H 15.922847 9.553458 -17.854607 0
M  V30 40 H 9.388730 4.095134 -16.114697 0
M  V30 41 H 9.409364 3.057903 -13.333609 0
M  V30 42 H 8.204951 2.734539 -14.544540 0
M  V30 43 H 7.062629 4.719502 -14.243870 0
M  V30 44 H 8.476029 5.659491 -13.868720 0
M  V30 45 H 7.092835 3.757395 -11.939305 0
M  V30 46 H 6.903896 5.479891 -11.985828 0
M  V30 47 H 9.349430 5.792475 -11.516060 0
M  V30 48 H 9.554489 4.061707 -11.397421 0
M  V30 49 H 7.858787 3.997545 -9.549074 0
M  V30 50 H 7.686288 5.716408 -9.670547 0
M  V30 51 H 10.482015 4.668025 -9.196509 0
M  V30 52 H 9.313106 4.545574 -7.898713 0
M  V30 53 H 11.544251 6.807862 -9.428659 0
M  V30 54 H 11.658169 6.441399 -7.724545 0
M  V30 55 H 10.819342 9.039480 -9.062228 0
M  V30 56 H 12.210206 8.822336 -8.039955 0
M  V30 57 H 10.200027 10.032334 -7.054684 0
M  V30 58 H 10.865300 10.882174 -5.178220 0
M  V30 59 H 11.807990 10.659709 -2.924863 0
M  V30 60 H 12.166297 6.415294 -3.412147 0
M  V30 61 H 11.205705 6.578786 -5.657633 0
M  V30 62 H 8.277404 8.662571 -6.246917 0
M  V30 63 H 8.397187 8.848972 -7.964901 0
M  V30 64 H 7.877854 6.507083 -7.391817 0
M  V30 65 H 9.269504 6.374000 -6.406824 0
M  V30 66 H 10.397563 4.318431 -19.098057 0
M  V30 67 H 10.316866 3.395128 -17.700127 0
M  V30 68 H 11.443206 4.931865 -20.683733 0
M  V30 69 H 10.097399 5.991933 -20.224609 0
M  V30 70 H 11.148367 6.435469 -21.548475 0
M  V30 71 H 9.234340 7.009563 -9.261518 0
M  V30 END ATOM
M  V30 BEGIN BOND
M  V30 1 1 2 1
M  V30 2 1 3 2
M  V30 3 2 4 3
M  V30 4 1 5 4
M  V30 5 1 6 5
M  V30 6 1 7 6
M  V30 7 1 8 7
M  V30 8 2 9 8
M  V30 9 1 10 8
M  V30 10 1 11 10
M  V30 11 1 12 11
M  V30 12 1 13 12
M  V30 13 1 14 13
M  V30 14 1 15 14
M  V30 15 1 16 15
M  V30 16 1 17 16
M  V30 17 1 18 17
M  V30 18 1 19 18
M  V30 19 1 20 19
M  V30 20 1 21 20
M  V30 21 1 22 21
M  V30 22 2 23 22
M  V30 23 1 24 23
M  V30 24 1 25 24
M  V30 25 2 26 24
M  V30 26 2 27 21
M  V30 27 1 27 26
M  V30 28 1 28 20
M  V30 29 1 29 17
M  V30 30 1 29 28
M  V30 31 2 30 7
M  V30 32 1 31 30
M  V30 33 2 32 5
M  V30 34 1 32 30
M  V30 35 1 33 32
M  V30 36 1 34 33
M  V30 37 1 35 3
M  V30 38 2 35 33
M  V30 39 1 36 35
M  V30 40 1 37 1
M  V30 41 1 38 1
M  V30 42 1 39 1
M  V30 43 1 40 10
M  V30 44 1 41 11
M  V30 45 1 42 11
M  V30 46 1 43 12
M  V30 47 1 44 12
M  V30 48 1 45 13
M  V30 49 1 46 13
M  V30 50 1 47 14
M  V30 51 1 48 14
M  V30 52 1 49 15
M  V30 53 1 50 15
M  V30 54 1 51 16
M  V30 55 1 52 16
M  V30 56 1 53 18
M  V30 57 1 54 18
M  V30 58 1 55 19
M  V30 59 1 56 19
M  V30 60 1 20 57 CFG=3
M  V30 61 1 58 22
M  V30 62 1 59 23
M  V30 63 1 60 26
M  V30 64 1 61 27
M  V30 65 1 62 28
M  V30 66 1 63 28
M  V30 67 1 64 29
M  V30 68 1 65 29
M  V30 69 1 66 31
M  V30 70 1 67 31
M  V30 71 1 68 34
M  V30 72 1 69 34
M  V30 73 1 70 34
M  V30 74 1 17 71 CFG=3
M  V30 END BOND
M  V30 END CTAB
M  END
>  <b_m_subgroup_collapsed>  (1187) 
0

>  <r_i_docking_score>  (1187) 
-7.3878907872981898

>  <s_m_subgroup_title>  (1187) 
glide-dock_SP_D22_pv

>  <s_m_subgroupid>  (1187) 
glide-dock_SP_D22_pv

>  <Molecule ChEMBL ID>  (1187) 
CHEMBL3298828

>  <Standard Type>  (1187) 
Ki

>  <Standard Value>  (1187) 
0.6166

>  <label>  (1187) 
1

$$$$
CHEMBL422959
     RDKit          3D

  0  0  0  0  0  0  0  0  0  0999 V3000
M  V30 BEGIN CTAB
M  V30 COUNTS 41 43 0 0 1
M  V30 BEGIN ATOM
M  V30 1 O 12.486314 8.827973 -1.733050 0
M  V30 2 C 12.086032 9.372149 -2.760823 0
M  V30 3 C 11.721593 8.600371 -3.956715 0
M  V30 4 C 11.686046 7.193803 -4.155540 0
M  V30 5 C 11.286187 6.971834 -5.440195 0
M  V30 6 N 11.065277 8.195613 -6.050446 0
M  V30 7 C 10.684292 8.404191 -7.439674 0 CFG=1
M  V30 8 C 11.914186 8.316272 -8.360968 0
M  V30 9 C 11.536083 8.456849 -9.848067 0
M  V30 10 N 10.489498 7.477894 -10.251375 0 CFG=2 CHG=1
M  V30 11 C 10.178557 7.560312 -11.703655 0
M  V30 12 C 9.407803 6.359060 -12.233691 0
M  V30 13 C 7.999606 6.372272 -12.246937 0
M  V30 14 C 7.273546 5.267419 -12.726527 0
M  V30 15 C 7.957280 4.146604 -13.229536 0
M  V30 16 C 9.365130 4.130493 -13.242771 0
M  V30 17 C 10.086030 5.234791 -12.749038 0
M  V30 18 C 9.286039 7.603683 -9.390522 0
M  V30 19 C 9.616590 7.400729 -7.908446 0
M  V30 20 C 11.341608 9.194095 -5.130146 0
M  V30 21 H 11.976089 10.453063 -2.851365 0
M  V30 22 H 11.931414 6.426006 -3.435928 0
M  V30 23 H 11.155878 6.041299 -5.970899 0
M  V30 24 H 10.259587 9.405316 -7.516656 0
M  V30 25 H 12.637679 9.084607 -8.088949 0
M  V30 26 H 12.427476 7.372331 -8.202840 0
M  V30 27 H 12.428451 8.317122 -10.459536 0
M  V30 28 H 11.180773 9.470695 -10.041591 0
M  V30 29 H 9.621776 8.476336 -11.913446 0
M  V30 30 H 11.108249 7.630594 -12.270117 0
M  V30 31 H 7.466481 7.231300 -11.873096 0
M  V30 32 H 6.193596 5.286726 -12.714931 0
M  V30 33 H 7.402908 3.297756 -13.601831 0
M  V30 34 H 9.890518 3.268277 -13.629548 0
M  V30 35 H 11.165051 5.213622 -12.778466 0
M  V30 36 H 8.533542 6.866299 -9.669751 0
M  V30 37 H 8.829230 8.582962 -9.541216 0
M  V30 38 H 9.951379 6.372455 -7.771450 0
M  V30 39 H 8.709573 7.512067 -7.310755 0
M  V30 40 H 11.249791 10.236736 -5.397963 0
M  V30 41 H 10.863481 6.552485 -10.091326 0
M  V30 END ATOM
M  V30 BEGIN BOND
M  V30 1 2 2 1
M  V30 2 1 3 2
M  V30 3 1 4 3
M  V30 4 2 5 4
M  V30 5 1 6 5
M  V30 6 1 7 6
M  V30 7 1 8 7
M  V30 8 1 9 8
M  V30 9 1 10 9
M  V30 10 1 11 10
M  V30 11 1 12 11
M  V30 12 2 13 12
M  V30 13 1 14 13
M  V30 14 2 15 14
M  V30 15 1 16 15
M  V30 16 1 17 12
M  V30 17 2 17 16
M  V30 18 1 18 10
M  V30 19 1 19 7
M  V30 20 1 19 18
M  V30 21 2 20 3
M  V30 22 1 20 6
M  V30 23 1 21 2
M  V30 24 1 22 4
M  V30 25 1 23 5
M  V30 26 1 7 24 CFG=1
M  V30 27 1 25 8
M  V30 28 1 26 8
M  V30 29 1 27 9
M  V30 30 1 28 9
M  V30 31 1 29 11
M  V30 32 1 30 11
M  V30 33 1 31 13
M  V30 34 1 32 14
M  V30 35 1 33 15
M  V30 36 1 34 16
M  V30 37 1 35 17
M  V30 38 1 36 18
M  V30 39 1 37 18
M  V30 40 1 38 19
M  V30 41 1 39 19
M  V30 42 1 40 20
M  V30 43 1 10 41 CFG=3
M  V30 END BOND
M  V30 END CTAB
M  END
>  <b_m_subgroup_collapsed>  (1188) 
0

>  <r_i_docking_score>  (1188) 
-7.3872377396503799

>  <s_m_subgroup_title>  (1188) 
glide-dock_SP_D22_pv

>  <s_m_subgroupid>  (1188) 
glide-dock_SP_D22_pv

>  <Molecule ChEMBL ID>  (1188) 
CHEMBL422959

>  <Standard Type>  (1188) 
Ki

>  <Standard Value>  (1188) 
49000.0

>  <label>  (1188) 
0

$$$$
CHEMBL2031877
     RDKit          3D

  0  0  0  0  0  0  0  0  0  0999 V3000
M  V30 BEGIN CTAB
M  V30 COUNTS 66 70 0 0 1
M  V30 BEGIN ATOM
M  V30 1 C 11.137037 10.215551 -5.894058 0
M  V30 2 C 11.711397 8.812312 -6.128871 0 CFG=1
M  V30 3 C 11.719957 8.015924 -4.819714 0
M  V30 4 C 11.505434 6.572423 -5.233541 0
M  V30 5 C 10.689820 6.669127 -6.518463 0
M  V30 6 N 10.995975 7.971822 -7.116820 0
M  V30 7 C 10.874683 8.307362 -8.429511 0
M  V30 8 O 11.286127 9.381196 -8.845639 0
M  V30 9 C 10.351938 7.344950 -9.467538 0
M  V30 10 C 10.879291 7.409875 -10.780177 0
M  V30 11 C 10.394691 6.572443 -11.805230 0
M  V30 12 C 9.393966 5.612669 -11.534411 0
M  V30 13 C 8.957877 4.632964 -12.547860 0
M  V30 14 C 9.892071 3.987836 -13.391299 0
M  V30 15 C 9.492301 2.954138 -14.261896 0
M  V30 16 C 8.143312 2.537398 -14.308319 0
M  V30 17 C 7.200869 3.221121 -13.508370 0
M  V30 18 C 7.602223 4.257441 -12.647352 0
M  V30 19 C 5.768666 2.767360 -13.507887 0
M  V30 20 C 5.645117 1.268099 -13.847103 0
M  V30 21 N 6.486343 0.849964 -14.985888 0
M  V30 22 C 5.838278 -0.029466 -15.987073 0
M  V30 23 C 5.220077 -1.343220 -15.426826 0
M  V30 24 N 4.578551 -2.224874 -16.452681 0 CHG=1
M  V30 25 C 3.710873 -1.574688 -17.455780 0
M  V30 26 C 3.447497 -2.653321 -18.503267 0
M  V30 27 C 4.681737 -3.566242 -18.437132 0
M  V30 28 C 5.487473 -3.102884 -17.211702 0
M  V30 29 C 7.710886 1.398935 -15.209913 0
M  V30 30 O 8.456659 1.031207 -16.119204 0
M  V30 31 C 8.841175 5.580566 -10.235604 0
M  V30 32 C 9.284995 6.452460 -9.223459 0
M  V30 33 H 11.642672 10.685244 -5.053069 0
M  V30 34 H 11.285363 10.871076 -6.750748 0
M  V30 35 H 10.086128 10.171943 -5.641761 0
M  V30 36 H 12.733390 8.972391 -6.481555 0
M  V30 37 H 10.888106 8.331851 -4.190718 0
M  V30 38 H 12.633835 8.159605 -4.242571 0
M  V30 39 H 11.006976 5.990357 -4.459518 0
M  V30 40 H 12.456761 6.090693 -5.446197 0
M  V30 41 H 9.626004 6.630826 -6.275510 0
M  V30 42 H 10.928379 5.832711 -7.177325 0
M  V30 43 H 11.668503 8.109066 -11.012852 0
M  V30 44 H 10.829225 6.641550 -12.788981 0
M  V30 45 H 10.938099 4.252090 -13.340124 0
M  V30 46 H 10.237895 2.459988 -14.870648 0
M  V30 47 H 6.867156 4.741252 -12.017402 0
M  V30 48 H 5.296537 2.982445 -12.548866 0
M  V30 49 H 5.285343 3.393732 -14.247754 0
M  V30 50 H 5.968500 0.686138 -12.982028 0
M  V30 51 H 4.594464 1.023061 -14.002782 0
M  V30 52 H 5.068971 0.572236 -16.467571 0
M  V30 53 H 6.533065 -0.296473 -16.783604 0
M  V30 54 H 5.976576 -1.912919 -14.883453 0
M  V30 55 H 4.445107 -1.103557 -14.699864 0
M  V30 56 H 2.804663 -1.170025 -17.006334 0
M  V30 57 H 4.230833 -0.758970 -17.955648 0
M  V30 58 H 2.553313 -3.222431 -18.247808 0
M  V30 59 H 3.287482 -2.232443 -19.497761 0
M  V30 60 H 4.367145 -4.603471 -18.317240 0
M  V30 61 H 5.279703 -3.505551 -19.346727 0
M  V30 62 H 6.366165 -2.541114 -17.536024 0
M  V30 63 H 5.827036 -3.939412 -16.598965 0
M  V30 64 H 8.057118 4.876437 -9.995933 0
M  V30 65 H 8.778348 6.426223 -8.271774 0
M  V30 66 H 3.962446 -2.878551 -15.974386 0
M  V30 END ATOM
M  V30 BEGIN BOND
M  V30 1 1 2 1
M  V30 2 1 3 2
M  V30 3 1 4 3
M  V30 4 1 5 4
M  V30 5 1 6 2
M  V30 6 1 6 5
M  V30 7 1 7 6
M  V30 8 2 8 7
M  V30 9 1 9 7
M  V30 10 1 10 9
M  V30 11 2 11 10
M  V30 12 1 12 11
M  V30 13 1 13 12
M  V30 14 1 14 13
M  V30 15 2 15 14
M  V30 16 1 16 15
M  V30 17 2 17 16
M  V30 18 2 18 13
M  V30 19 1 18 17
M  V30 20 1 19 17
M  V30 21 1 20 19
M  V30 22 1 21 20
M  V30 23 1 22 21
M  V30 24 1 23 22
M  V30 25 1 24 23
M  V30 26 1 25 24
M  V30 27 1 26 25
M  V30 28 1 27 26
M  V30 29 1 28 24
M  V30 30 1 28 27
M  V30 31 1 29 16
M  V30 32 1 29 21
M  V30 33 2 30 29
M  V30 34 2 31 12
M  V30 35 2 32 9
M  V30 36 1 32 31
M  V30 37 1 33 1
M  V30 38 1 34 1
M  V30 39 1 35 1
M  V30 40 1 2 36 CFG=3
M  V30 41 1 37 3
M  V30 42 1 38 3
M  V30 43 1 39 4
M  V30 44 1 40 4
M  V30 45 1 41 5
M  V30 46 1 42 5
M  V30 47 1 43 10
M  V30 48 1 44 11
M  V30 49 1 45 14
M  V30 50 1 46 15
M  V30 51 1 47 18
M  V30 52 1 48 19
M  V30 53 1 49 19
M  V30 54 1 50 20
M  V30 55 1 51 20
M  V30 56 1 52 22
M  V30 57 1 53 22
M  V30 58 1 54 23
M  V30 59 1 55 23
M  V30 60 1 56 25
M  V30 61 1 57 25
M  V30 62 1 58 26
M  V30 63 1 59 26
M  V30 64 1 60 27
M  V30 65 1 61 27
M  V30 66 1 62 28
M  V30 67 1 63 28
M  V30 68 1 64 31
M  V30 69 1 65 32
M  V30 70 1 66 24
M  V30 END BOND
M  V30 END CTAB
M  END
>  <b_m_subgroup_collapsed>  (1189) 
0

>  <r_i_docking_score>  (1189) 
-7.3869253235420302

>  <s_m_subgroup_title>  (1189) 
glide-dock_SP_D22_pv

>  <s_m_subgroupid>  (1189) 
glide-dock_SP_D22_pv

>  <Molecule ChEMBL ID>  (1189) 
CHEMBL2031877

>  <Standard Type>  (1189) 
Ki

>  <Standard Value>  (1189) 
10000.0

>  <label>  (1189) 
0

$$$$
CHEMBL3765169
     RDKit          3D

  0  0  0  0  0  0  0  0  0  0999 V3000
M  V30 BEGIN CTAB
M  V30 COUNTS 55 58 0 0 1
M  V30 BEGIN ATOM
M  V30 1 C 9.390599 0.007846 -15.153589 0
M  V30 2 N 8.761659 0.878977 -16.135195 0
M  V30 3 C 9.295656 1.938754 -16.776661 0
M  V30 4 S 10.904218 2.574706 -16.449404 0
M  V30 5 C 10.715040 3.000809 -14.689376 0
M  V30 6 C 9.486944 3.883488 -14.389770 0
M  V30 7 C 9.519717 4.464085 -12.962959 0
M  V30 8 N 10.039728 5.826667 -12.854262 0
M  V30 9 C 11.372307 5.968962 -13.446932 0
M  V30 10 C 11.959602 7.365644 -13.254393 0
M  V30 11 O 11.982962 7.659922 -11.866489 0
M  V30 12 C 10.701851 7.656358 -11.232289 0 CFG=2
M  V30 13 C 10.843714 8.013669 -9.751270 0
M  V30 14 C 9.716163 8.196776 -8.918037 0
M  V30 15 C 9.878699 8.572453 -7.563901 0
M  V30 16 C 11.171134 8.782262 -7.028723 0
M  V30 17 C 11.381358 9.221812 -5.583541 0
M  V30 18 F 12.582501 9.769042 -5.413404 0
M  V30 19 F 10.485933 10.133512 -5.219475 0
M  V30 20 F 11.286064 8.164860 -4.777805 0
M  V30 21 C 12.288593 8.572563 -7.856760 0
M  V30 22 C 12.129810 8.189529 -9.197279 0
M  V30 23 C 10.019430 6.283828 -11.457151 0
M  V30 24 N 8.484849 2.488238 -17.677536 0
M  V30 25 N 7.316786 1.771797 -17.596199 0
M  V30 26 C 7.508042 0.843105 -16.651463 0
M  V30 27 C 6.408492 -0.025893 -16.231445 0
M  V30 28 C 6.094739 -0.213244 -14.863471 0
M  V30 29 N 5.003160 -0.906050 -14.466354 0
M  V30 30 C 4.230010 -1.427355 -15.446520 0
M  V30 31 C 4.544941 -1.258918 -16.811153 0
M  V30 32 N 5.627325 -0.552744 -17.207514 0
M  V30 33 H 10.464412 0.180130 -15.104334 0
M  V30 34 H 8.956698 0.172394 -14.166837 0
M  V30 35 H 9.279668 -1.027624 -15.455011 0
M  V30 36 H 10.682640 2.103856 -14.075353 0
M  V30 37 H 11.636791 3.502333 -14.405258 0
M  V30 38 H 9.382393 4.681698 -15.126145 0
M  V30 39 H 8.585861 3.277803 -14.484735 0
M  V30 40 H 8.499463 4.461375 -12.576546 0
M  V30 41 H 10.078815 3.793892 -12.308113 0
M  V30 42 H 12.060333 5.227091 -13.047000 0
M  V30 43 H 11.323432 5.783920 -14.519246 0
M  V30 44 H 12.979524 7.400427 -13.638271 0
M  V30 45 H 11.388558 8.105947 -13.815781 0
M  V30 46 H 10.090083 8.432026 -11.697076 0
M  V30 47 H 8.720891 8.058705 -9.316270 0
M  V30 48 H 9.005281 8.714777 -6.942982 0
M  V30 49 H 13.286106 8.744101 -7.484348 0
M  V30 50 H 13.018457 8.069347 -9.799357 0
M  V30 51 H 8.985723 6.342736 -11.114070 0
M  V30 52 H 10.485903 5.542851 -10.813277 0
M  V30 53 H 6.687156 0.236669 -14.081428 0
M  V30 54 H 3.351265 -1.978159 -15.142594 0
M  V30 55 H 3.920252 -1.682700 -17.584017 0
M  V30 END ATOM
M  V30 BEGIN BOND
M  V30 1 1 2 1
M  V30 2 1 3 2
M  V30 3 1 4 3
M  V30 4 1 5 4
M  V30 5 1 6 5
M  V30 6 1 7 6
M  V30 7 1 8 7
M  V30 8 1 9 8
M  V30 9 1 10 9
M  V30 10 1 11 10
M  V30 11 1 12 11
M  V30 12 1 13 12
M  V30 13 1 14 13
M  V30 14 2 15 14
M  V30 15 1 16 15
M  V30 16 1 17 16
M  V30 17 1 18 17
M  V30 18 1 19 17
M  V30 19 1 20 17
M  V30 20 2 21 16
M  V30 21 2 22 13
M  V30 22 1 22 21
M  V30 23 1 23 8
M  V30 24 1 23 12
M  V30 25 2 24 3
M  V30 26 1 25 24
M  V30 27 1 26 2
M  V30 28 2 26 25
M  V30 29 1 27 26
M  V30 30 1 28 27
M  V30 31 2 29 28
M  V30 32 1 30 29
M  V30 33 2 31 30
M  V30 34 2 32 27
M  V30 35 1 32 31
M  V30 36 1 33 1
M  V30 37 1 34 1
M  V30 38 1 35 1
M  V30 39 1 36 5
M  V30 40 1 37 5
M  V30 41 1 38 6
M  V30 42 1 39 6
M  V30 43 1 40 7
M  V30 44 1 41 7
M  V30 45 1 42 9
M  V30 46 1 43 9
M  V30 47 1 44 10
M  V30 48 1 45 10
M  V30 49 1 12 46 CFG=3
M  V30 50 1 47 14
M  V30 51 1 48 15
M  V30 52 1 49 21
M  V30 53 1 50 22
M  V30 54 1 51 23
M  V30 55 1 52 23
M  V30 56 1 53 28
M  V30 57 1 54 30
M  V30 58 1 55 31
M  V30 END BOND
M  V30 END CTAB
M  END
>  <b_m_subgroup_collapsed>  (1190) 
0

>  <r_i_docking_score>  (1190) 
-7.3867139269341404

>  <s_m_subgroup_title>  (1190) 
glide-dock_SP_D22_pv

>  <s_m_subgroupid>  (1190) 
glide-dock_SP_D22_pv

>  <Molecule ChEMBL ID>  (1190) 
CHEMBL3765169

>  <Standard Type>  (1190) 
Ki

>  <Standard Value>  (1190) 
10000.0

>  <label>  (1190) 
0

$$$$
CHEMBL3971039
     RDKit          3D

  0  0  0  0  0  0  0  0  0  0999 V3000
M  V30 BEGIN CTAB
M  V30 COUNTS 46 49 0 0 1
M  V30 BEGIN ATOM
M  V30 1 C 8.966946 4.839617 -9.594927 0
M  V30 2 N 8.085999 5.767948 -10.339471 0 CHG=1
M  V30 3 C 8.498588 6.292199 -11.662441 0 CFG=2
M  V30 4 C 9.217544 5.346626 -12.587830 0
M  V30 5 C 9.073102 4.173740 -13.326446 0
M  V30 6 C 10.185913 3.843995 -14.153980 0
M  V30 7 C 11.360980 4.701568 -14.254852 0
M  V30 8 C 12.249816 4.118169 -15.208162 0
M  V30 9 C 11.684960 2.937570 -15.602309 0
M  V30 10 N 10.456363 2.749418 -14.982247 0
M  V30 11 S 9.517897 1.302354 -15.207301 0
M  V30 12 O 10.485968 0.195218 -15.172006 0
M  V30 13 O 8.407997 1.357941 -14.246731 0
M  V30 14 C 8.829906 1.396658 -16.857868 0
M  V30 15 C 7.429697 1.394996 -17.025095 0
M  V30 16 C 6.882890 1.371994 -18.322165 0
M  V30 17 C 7.731151 1.371479 -19.447119 0
M  V30 18 C 9.130096 1.379960 -19.276739 0
M  V30 19 C 9.682492 1.382132 -17.980671 0
M  V30 20 C 11.461805 5.893880 -13.473652 0
M  V30 21 C 10.375199 6.172310 -12.647038 0
M  V30 22 C 9.821039 7.211761 -11.695368 0 CFG=2
M  V30 23 C 10.666815 7.440083 -10.441745 0
M  V30 24 C 11.829662 8.406343 -10.637308 0
M  V30 25 O 12.486884 8.572259 -9.402408 0
M  V30 26 H 8.351463 4.217335 -8.944760 0
M  V30 27 H 9.655856 5.371646 -8.942183 0
M  V30 28 H 9.532207 4.172619 -10.246309 0
M  V30 29 H 7.231997 5.252276 -10.508418 0
M  V30 30 H 7.662809 6.769526 -12.175908 0
M  V30 31 H 8.180221 3.571227 -13.269425 0
M  V30 32 H 13.205874 4.517274 -15.514854 0
M  V30 33 H 12.087698 2.186086 -16.265163 0
M  V30 34 H 6.772546 1.385208 -16.167587 0
M  V30 35 H 5.809891 1.362140 -18.453300 0
M  V30 36 H 7.309607 1.357000 -20.442177 0
M  V30 37 H 9.779536 1.368776 -20.140814 0
M  V30 38 H 10.753671 1.352465 -17.855623 0
M  V30 39 H 12.320962 6.545833 -13.536929 0
M  V30 40 H 9.619385 8.132868 -12.245061 0
M  V30 41 H 10.029706 7.841258 -9.651960 0
M  V30 42 H 11.072543 6.505469 -10.068027 0
M  V30 43 H 12.532519 8.042356 -11.387449 0
M  V30 44 H 11.459943 9.372304 -10.960295 0
M  V30 45 H 13.142488 9.256697 -9.514319 0
M  V30 46 H 7.801426 6.560049 -9.770112 0
M  V30 END ATOM
M  V30 BEGIN BOND
M  V30 1 1 2 1
M  V30 2 1 3 2
M  V30 3 1 4 3
M  V30 4 1 5 4
M  V30 5 2 6 5
M  V30 6 1 7 6
M  V30 7 1 8 7
M  V30 8 2 9 8
M  V30 9 1 10 6
M  V30 10 1 10 9
M  V30 11 1 11 10
M  V30 12 2 12 11
M  V30 13 2 13 11
M  V30 14 1 14 11
M  V30 15 2 15 14
M  V30 16 1 16 15
M  V30 17 2 17 16
M  V30 18 1 18 17
M  V30 19 1 19 14
M  V30 20 2 19 18
M  V30 21 2 20 7
M  V30 22 2 21 4
M  V30 23 1 21 20
M  V30 24 1 22 3
M  V30 25 1 22 21
M  V30 26 1 23 22
M  V30 27 1 24 23
M  V30 28 1 25 24
M  V30 29 1 26 1
M  V30 30 1 27 1
M  V30 31 1 28 1
M  V30 32 1 29 2
M  V30 33 1 3 30 CFG=3
M  V30 34 1 31 5
M  V30 35 1 32 8
M  V30 36 1 33 9
M  V30 37 1 34 15
M  V30 38 1 35 16
M  V30 39 1 36 17
M  V30 40 1 37 18
M  V30 41 1 38 19
M  V30 42 1 39 20
M  V30 43 1 22 40 CFG=3
M  V30 44 1 41 23
M  V30 45 1 42 23
M  V30 46 1 43 24
M  V30 47 1 44 24
M  V30 48 1 45 25
M  V30 49 1 46 2
M  V30 END BOND
M  V30 END CTAB
M  END
>  <b_m_subgroup_collapsed>  (1191) 
0

>  <r_i_docking_score>  (1191) 
-7.3842224945062203

>  <s_m_subgroup_title>  (1191) 
glide-dock_SP_D22_pv

>  <s_m_subgroupid>  (1191) 
glide-dock_SP_D22_pv

>  <Molecule ChEMBL ID>  (1191) 
CHEMBL3971039

>  <Standard Type>  (1191) 
Ki

>  <Standard Value>  (1191) 
10000.0

>  <label>  (1191) 
0

$$$$
CHEMBL2414991
     RDKit          3D

  0  0  0  0  0  0  0  0  0  0999 V3000
M  V30 BEGIN CTAB
M  V30 COUNTS 38 41 0 0 1
M  V30 BEGIN ATOM
M  V30 1 C 11.493264 4.771353 -16.283609 0
M  V30 2 N 11.642802 4.000874 -15.020893 0 CFG=1 CHG=1
M  V30 3 C 12.659203 4.572319 -14.120550 0
M  V30 4 C 12.194843 5.924419 -13.594915 0
M  V30 5 C 10.775476 5.964696 -13.046862 0
M  V30 6 C 10.297563 7.010112 -12.247192 0
M  V30 7 C 8.924379 7.130950 -12.021345 0
M  V30 8 O 8.486022 8.285771 -11.446864 0
M  V30 9 C 8.026920 6.124027 -12.451354 0
M  V30 10 O 6.690917 6.336513 -12.246865 0
M  V30 11 C 8.475739 4.941987 -13.119052 0
M  V30 12 C 9.862749 4.952421 -13.459002 0
M  V30 13 C 10.380692 3.746480 -14.272574 0 CFG=1
M  V30 14 C 9.310006 3.090509 -15.167420 0
M  V30 15 C 8.023945 2.839930 -14.420280 0
M  V30 16 C 7.279074 1.673733 -14.698476 0
M  V30 17 C 6.086026 1.413713 -14.003700 0
M  V30 18 C 5.631912 2.334897 -13.046865 0
M  V30 19 C 6.382629 3.492707 -12.768899 0
M  V30 20 C 7.599180 3.775306 -13.446865 0
M  V30 21 H 10.927671 5.691903 -16.131390 0
M  V30 22 H 10.985293 4.182863 -17.047352 0
M  V30 23 H 12.468362 5.037428 -16.693642 0
M  V30 24 H 12.824237 3.896998 -13.283936 0
M  V30 25 H 13.616952 4.669189 -14.633574 0
M  V30 26 H 12.874639 6.261984 -12.812724 0
M  V30 27 H 12.266019 6.675478 -14.382469 0
M  V30 28 H 10.965737 7.796790 -11.930620 0
M  V30 29 H 7.637105 8.172325 -10.985336 0
M  V30 30 H 6.486022 6.933252 -11.523793 0
M  V30 31 H 10.629318 3.002011 -13.513273 0
M  V30 32 H 9.043382 3.740586 -16.000107 0
M  V30 33 H 9.688130 2.160200 -15.593669 0
M  V30 34 H 7.622692 0.967339 -15.440376 0
M  V30 35 H 5.517947 0.518899 -14.212705 0
M  V30 36 H 4.717369 2.145154 -12.504734 0
M  V30 37 H 6.017569 4.121221 -11.973232 0
M  V30 38 H 11.994732 3.094853 -15.297729 0
M  V30 END ATOM
M  V30 BEGIN BOND
M  V30 1 1 2 1
M  V30 2 1 3 2
M  V30 3 1 4 3
M  V30 4 1 5 4
M  V30 5 1 6 5
M  V30 6 2 7 6
M  V30 7 1 8 7
M  V30 8 1 9 7
M  V30 9 1 10 9
M  V30 10 2 11 9
M  V30 11 2 12 5
M  V30 12 1 12 11
M  V30 13 1 13 2
M  V30 14 1 13 12
M  V30 15 1 14 13
M  V30 16 1 15 14
M  V30 17 2 16 15
M  V30 18 1 17 16
M  V30 19 2 18 17
M  V30 20 1 19 18
M  V30 21 1 20 11
M  V30 22 1 20 15
M  V30 23 2 20 19
M  V30 24 1 21 1
M  V30 25 1 22 1
M  V30 26 1 23 1
M  V30 27 1 24 3
M  V30 28 1 25 3
M  V30 29 1 26 4
M  V30 30 1 27 4
M  V30 31 1 28 6
M  V30 32 1 29 8
M  V30 33 1 30 10
M  V30 34 1 13 31 CFG=1
M  V30 35 1 32 14
M  V30 36 1 33 14
M  V30 37 1 34 16
M  V30 38 1 35 17
M  V30 39 1 36 18
M  V30 40 1 37 19
M  V30 41 1 2 38 CFG=3
M  V30 END BOND
M  V30 END CTAB
M  END
>  <b_m_subgroup_collapsed>  (1192) 
0

>  <r_i_docking_score>  (1192) 
-7.3831151353782003

>  <s_m_subgroup_title>  (1192) 
glide-dock_SP_D22_pv

>  <s_m_subgroupid>  (1192) 
glide-dock_SP_D22_pv

>  <Molecule ChEMBL ID>  (1192) 
CHEMBL2414991

>  <Standard Type>  (1192) 
Ki

>  <Standard Value>  (1192) 
38.9

>  <label>  (1192) 
1

$$$$
CHEMBL3286575
     RDKit          3D

  0  0  0  0  0  0  0  0  0  0999 V3000
M  V30 BEGIN CTAB
M  V30 COUNTS 51 55 0 0 1
M  V30 BEGIN ATOM
M  V30 1 C 12.037942 6.313435 -14.493016 0
M  V30 2 C 11.935292 6.915842 -13.223989 0
M  V30 3 C 10.883288 6.572334 -12.336169 0
M  V30 4 C 9.964619 5.613568 -12.797675 0
M  V30 5 C 8.846967 5.024351 -12.181623 0
M  V30 6 C 8.208086 4.172057 -13.041856 0
M  V30 7 N 8.978884 4.181273 -14.196280 0
M  V30 8 C 10.036084 5.034770 -14.052937 0
M  V30 9 C 11.074919 5.372056 -14.899392 0
M  V30 10 C 8.731333 5.464128 -10.744420 0
M  V30 11 C 9.394037 6.830994 -10.394373 0 CFG=1
M  V30 12 C 9.485921 7.019156 -8.859625 0
M  V30 13 N 10.130129 8.315794 -8.544856 0 CFG=1 CHG=1
M  V30 14 C 10.004223 8.790524 -7.141431 0
M  V30 15 C 11.088933 8.321913 -6.142742 0
M  V30 16 C 11.384421 9.418406 -5.093979 0
M  V30 17 C 12.476878 8.982011 -4.111730 0
M  V30 18 C 12.085987 7.690892 -3.388175 0
M  V30 19 C 11.641750 6.578822 -4.357435 0
M  V30 20 C 10.672617 7.012476 -5.459775 0
M  V30 21 C 11.490315 8.416324 -9.124164 0
M  V30 22 C 11.428894 8.273271 -10.640986 0
M  V30 23 N 10.711673 7.062125 -11.023869 0
M  V30 24 H 12.852612 6.577503 -15.151756 0
M  V30 25 H 12.699196 7.626058 -12.951049 0
M  V30 26 H 7.331553 3.551978 -12.920339 0
M  V30 27 H 8.794839 3.614687 -15.011303 0
M  V30 28 H 11.147943 4.916678 -15.876380 0
M  V30 29 H 9.178999 4.689353 -10.120794 0
M  V30 30 H 7.681050 5.498603 -10.453114 0
M  V30 31 H 8.741685 7.608121 -10.796285 0
M  V30 32 H 10.058302 6.205788 -8.413137 0
M  V30 33 H 8.485994 6.983531 -8.424774 0
M  V30 34 H 10.084475 9.869119 -7.204045 0
M  V30 35 H 8.997993 8.604440 -6.761293 0
M  V30 36 H 12.037448 8.155001 -6.645772 0
M  V30 37 H 11.707703 10.333606 -5.592858 0
M  V30 38 H 10.486466 9.675611 -4.536702 0
M  V30 39 H 13.412697 8.839705 -4.646992 0
M  V30 40 H 12.661474 9.771415 -3.381299 0
M  V30 41 H 12.916813 7.336617 -2.779207 0
M  V30 42 H 11.285741 7.911179 -2.684377 0
M  V30 43 H 12.485971 6.151123 -4.871873 0
M  V30 44 H 11.199856 5.772343 -3.780209 0
M  V30 45 H 9.678076 7.111444 -5.046938 0
M  V30 46 H 10.597869 6.211520 -6.194397 0
M  V30 47 H 12.131195 7.628860 -8.727605 0
M  V30 48 H 11.944513 9.372509 -8.865004 0
M  V30 49 H 12.448014 8.290018 -11.022666 0
M  V30 50 H 10.904460 9.133812 -11.046605 0
M  V30 51 H 9.571513 8.971156 -9.072813 0
M  V30 END ATOM
M  V30 BEGIN BOND
M  V30 1 2 2 1
M  V30 2 1 3 2
M  V30 3 2 4 3
M  V30 4 1 5 4
M  V30 5 2 6 5
M  V30 6 1 7 6
M  V30 7 1 8 4
M  V30 8 1 8 7
M  V30 9 1 9 1
M  V30 10 2 9 8
M  V30 11 1 10 5
M  V30 12 1 11 10
M  V30 13 1 12 11
M  V30 14 1 13 12
M  V30 15 1 14 13
M  V30 16 1 15 14
M  V30 17 1 16 15
M  V30 18 1 17 16
M  V30 19 1 18 17
M  V30 20 1 19 18
M  V30 21 1 20 15
M  V30 22 1 20 19
M  V30 23 1 21 13
M  V30 24 1 22 21
M  V30 25 1 23 3
M  V30 26 1 23 11
M  V30 27 1 23 22
M  V30 28 1 24 1
M  V30 29 1 25 2
M  V30 30 1 26 6
M  V30 31 1 27 7
M  V30 32 1 28 9
M  V30 33 1 29 10
M  V30 34 1 30 10
M  V30 35 1 11 31 CFG=3
M  V30 36 1 32 12
M  V30 37 1 33 12
M  V30 38 1 34 14
M  V30 39 1 35 14
M  V30 40 1 36 15
M  V30 41 1 37 16
M  V30 42 1 38 16
M  V30 43 1 39 17
M  V30 44 1 40 17
M  V30 45 1 41 18
M  V30 46 1 42 18
M  V30 47 1 43 19
M  V30 48 1 44 19
M  V30 49 1 45 20
M  V30 50 1 46 20
M  V30 51 1 47 21
M  V30 52 1 48 21
M  V30 53 1 49 22
M  V30 54 1 50 22
M  V30 55 1 13 51 CFG=3
M  V30 END BOND
M  V30 END CTAB
M  END
>  <b_m_subgroup_collapsed>  (1193) 
0

>  <r_i_docking_score>  (1193) 
-7.3799667809514

>  <s_m_subgroup_title>  (1193) 
glide-dock_SP_D22_pv

>  <s_m_subgroupid>  (1193) 
glide-dock_SP_D22_pv

>  <Molecule ChEMBL ID>  (1193) 
CHEMBL3286575

>  <Standard Type>  (1193) 
Ki

>  <Standard Value>  (1193) 
53.7

>  <label>  (1193) 
1

$$$$
CHEMBL164979
     RDKit          3D

  0  0  0  0  0  0  0  0  0  0999 V3000
M  V30 BEGIN CTAB
M  V30 COUNTS 56 58 0 0 1
M  V30 BEGIN ATOM
M  V30 1 C 7.026381 7.092741 -12.747996 0
M  V30 2 N 7.518326 6.022180 -11.859950 0 CFG=1 CHG=1
M  V30 3 C 7.491340 4.661140 -12.453526 0
M  V30 4 C 6.097216 4.210814 -12.935152 0
M  V30 5 C 6.091827 2.783635 -13.455217 0
M  V30 6 C 7.032667 2.360979 -14.421460 0
M  V30 7 C 7.033591 1.030558 -14.884109 0
M  V30 8 C 6.083211 0.115466 -14.395707 0
M  V30 9 C 5.131574 0.535296 -13.447397 0
M  V30 10 C 5.143721 1.860863 -12.973543 0
M  V30 11 C 8.849679 6.376160 -11.329878 0
M  V30 12 C 9.030225 5.832409 -9.914057 0
M  V30 13 C 9.967865 6.710464 -9.083231 0 CFG=1
M  V30 14 C 9.288635 8.030563 -8.653945 0
M  V30 15 C 10.195255 8.873060 -7.756017 0
M  V30 16 C 10.627457 8.063770 -6.526674 0 CFG=2
M  V30 17 N 11.429648 8.897685 -5.649530 0
M  V30 18 C 11.686105 8.581820 -4.336815 0
M  V30 19 N 11.688897 7.299734 -3.978872 0
M  V30 20 C 12.109531 7.013728 -2.736801 0
M  V30 21 C 12.485611 8.032627 -1.846900 0
M  V30 22 C 12.308618 9.348600 -2.295990 0
M  V30 23 N 11.929831 9.626246 -3.554253 0
M  V30 24 C 11.357323 6.783551 -6.986845 0
M  V30 25 C 10.414345 5.937336 -7.842621 0
M  V30 26 H 7.681703 7.152324 -13.614394 0
M  V30 27 H 5.994217 6.925060 -13.046990 0
M  V30 28 H 7.045642 8.062632 -12.247847 0
M  V30 29 H 8.205687 4.627834 -13.276555 0
M  V30 30 H 7.846464 3.953155 -11.705288 0
M  V30 31 H 5.379195 4.306598 -12.120102 0
M  V30 32 H 5.739414 4.843097 -13.746955 0
M  V30 33 H 7.763384 3.049495 -14.817243 0
M  V30 34 H 7.760189 0.713448 -15.616843 0
M  V30 35 H 6.080458 -0.904128 -14.755275 0
M  V30 36 H 4.388422 -0.158188 -13.088480 0
M  V30 37 H 4.411092 2.171705 -12.246742 0
M  V30 38 H 8.949304 7.461178 -11.311356 0
M  V30 39 H 9.648032 6.031158 -11.989409 0
M  V30 40 H 9.410505 4.811578 -9.976203 0
M  V30 41 H 8.070415 5.766465 -9.400988 0
M  V30 42 H 10.854483 6.939569 -9.676550 0
M  V30 43 H 8.978580 8.630668 -9.509452 0
M  V30 44 H 8.381479 7.804151 -8.098052 0
M  V30 45 H 9.666159 9.771608 -7.447173 0
M  V30 46 H 11.068879 9.205376 -8.318714 0
M  V30 47 H 9.736816 7.774019 -5.968313 0
M  V30 48 H 11.457534 9.882876 -5.858847 0
M  V30 49 H 12.175139 5.971704 -2.460235 0
M  V30 50 H 12.885978 7.822276 -0.865909 0
M  V30 51 H 12.486020 10.172107 -1.628085 0
M  V30 52 H 12.250381 7.046166 -7.553986 0
M  V30 53 H 11.693348 6.172523 -6.152805 0
M  V30 54 H 10.886048 5.003603 -8.143672 0
M  V30 55 H 9.542550 5.659543 -7.249161 0
M  V30 56 H 6.886359 6.055144 -11.063743 0
M  V30 END ATOM
M  V30 BEGIN BOND
M  V30 1 1 2 1
M  V30 2 1 3 2
M  V30 3 1 4 3
M  V30 4 1 5 4
M  V30 5 2 6 5
M  V30 6 1 7 6
M  V30 7 2 8 7
M  V30 8 1 9 8
M  V30 9 1 10 5
M  V30 10 2 10 9
M  V30 11 1 11 2
M  V30 12 1 12 11
M  V30 13 1 13 12
M  V30 14 1 14 13
M  V30 15 1 15 14
M  V30 16 1 16 15
M  V30 17 1 17 16
M  V30 18 1 18 17
M  V30 19 2 19 18
M  V30 20 1 20 19
M  V30 21 2 21 20
M  V30 22 1 22 21
M  V30 23 1 23 18
M  V30 24 2 23 22
M  V30 25 1 24 16
M  V30 26 1 25 13
M  V30 27 1 25 24
M  V30 28 1 26 1
M  V30 29 1 27 1
M  V30 30 1 28 1
M  V30 31 1 29 3
M  V30 32 1 30 3
M  V30 33 1 31 4
M  V30 34 1 32 4
M  V30 35 1 33 6
M  V30 36 1 34 7
M  V30 37 1 35 8
M  V30 38 1 36 9
M  V30 39 1 37 10
M  V30 40 1 38 11
M  V30 41 1 39 11
M  V30 42 1 40 12
M  V30 43 1 41 12
M  V30 44 1 13 42 CFG=3
M  V30 45 1 43 14
M  V30 46 1 44 14
M  V30 47 1 45 15
M  V30 48 1 46 15
M  V30 49 1 16 47 CFG=1
M  V30 50 1 48 17
M  V30 51 1 49 20
M  V30 52 1 50 21
M  V30 53 1 51 22
M  V30 54 1 52 24
M  V30 55 1 53 24
M  V30 56 1 54 25
M  V30 57 1 55 25
M  V30 58 1 2 56 CFG=1
M  V30 END BOND
M  V30 END CTAB
M  END
>  <b_m_subgroup_collapsed>  (1194) 
0

>  <r_i_docking_score>  (1194) 
-7.3798177545068704

>  <s_m_subgroup_title>  (1194) 
glide-dock_SP_D22_pv

>  <s_m_subgroupid>  (1194) 
glide-dock_SP_D22_pv

>  <Molecule ChEMBL ID>  (1194) 
CHEMBL164979

>  <Standard Type>  (1194) 
Ki

>  <Standard Value>  (1194) 
39.0

>  <label>  (1194) 
1

$$$$
CHEMBL4079642
     RDKit          3D

  0  0  0  0  0  0  0  0  0  0999 V3000
M  V30 BEGIN CTAB
M  V30 COUNTS 61 65 0 0 1
M  V30 BEGIN ATOM
M  V30 1 C 5.724910 0.902326 -18.628605 0
M  V30 2 O 6.785135 1.244310 -17.745035 0
M  V30 3 C 6.764791 0.767414 -16.447178 0
M  V30 4 C 5.735337 -0.108122 -16.002785 0
M  V30 5 C 5.711384 -0.596864 -14.689109 0
M  V30 6 C 6.730409 -0.227963 -13.805732 0
M  V30 7 C 7.758597 0.621073 -14.246986 0
M  V30 8 C 7.812307 1.165613 -15.553692 0
M  V30 9 N 8.942227 1.994508 -15.876318 0
M  V30 10 C 9.004413 2.728738 -17.133076 0
M  V30 11 C 9.867981 3.736817 -16.382746 0
M  V30 12 C 9.290050 3.174534 -15.077982 0 CFG=1
M  V30 13 C 8.288784 3.990338 -14.251327 0
M  V30 14 N 9.135949 3.824812 -13.068237 0 CFG=2 CHG=1
M  V30 15 C 9.644245 5.078252 -12.465455 0
M  V30 16 C 8.651843 5.826943 -11.562284 0
M  V30 17 C 9.133687 7.262125 -11.251603 0
M  V30 18 S 10.837657 7.372541 -10.621389 0
M  V30 19 C 10.562137 7.179091 -8.884816 0
M  V30 20 N 9.600218 6.438635 -8.336556 0
M  V30 21 N 9.763777 6.580466 -6.976669 0
M  V30 22 C 10.812370 7.392717 -6.806799 0
M  V30 23 C 11.275443 7.794753 -5.480265 0
M  V30 24 C 11.285809 9.155509 -5.103673 0
M  V30 25 C 11.686049 9.525547 -3.804285 0
M  V30 26 C 12.086205 8.543549 -2.878170 0
M  V30 27 C 12.085876 7.186434 -3.251756 0
M  V30 28 C 11.683371 6.816155 -4.549364 0
M  V30 29 N 11.364205 7.772319 -7.980231 0
M  V30 30 C 12.531076 8.592939 -8.241879 0
M  V30 31 C 10.161865 3.109049 -13.831048 0
M  V30 32 H 5.898090 1.371331 -19.596825 0
M  V30 33 H 5.671278 -0.174556 -18.795990 0
M  V30 34 H 4.764518 1.262259 -18.257195 0
M  V30 35 H 4.936971 -0.426981 -16.654583 0
M  V30 36 H 4.926141 -1.267850 -14.371863 0
M  V30 37 H 6.740237 -0.617963 -12.798145 0
M  V30 38 H 8.545089 0.839834 -13.544902 0
M  V30 39 H 9.515812 2.199990 -17.938515 0
M  V30 40 H 8.065004 3.176727 -17.450569 0
M  V30 41 H 9.614085 4.777937 -16.583544 0
M  V30 42 H 10.937668 3.552611 -16.499710 0
M  V30 43 H 7.310876 3.523437 -14.132099 0
M  V30 44 H 8.194943 5.025357 -14.582142 0
M  V30 45 H 10.024117 5.738403 -13.247560 0
M  V30 46 H 10.485960 4.793959 -11.847021 0
M  V30 47 H 8.495419 5.269571 -10.638027 0
M  V30 48 H 7.675142 5.892360 -12.043360 0
M  V30 49 H 8.486108 7.752392 -10.531900 0
M  V30 50 H 9.082673 7.860765 -12.161440 0
M  V30 51 H 10.964707 9.913957 -5.802939 0
M  V30 52 H 11.673099 10.563396 -3.506518 0
M  V30 53 H 12.386559 8.832845 -1.881446 0
M  V30 54 H 12.386170 6.426806 -2.543799 0
M  V30 55 H 11.670238 5.772176 -4.826144 0
M  V30 56 H 12.268133 9.370986 -8.957489 0
M  V30 57 H 12.900800 9.061502 -7.331252 0
M  V30 58 H 13.321421 7.975990 -8.667985 0
M  V30 59 H 11.098904 3.657754 -13.941923 0
M  V30 60 H 10.348042 2.107901 -13.451257 0
M  V30 61 H 8.713820 3.212768 -12.384339 0
M  V30 END ATOM
M  V30 BEGIN BOND
M  V30 1 1 2 1
M  V30 2 1 3 2
M  V30 3 2 4 3
M  V30 4 1 5 4
M  V30 5 2 6 5
M  V30 6 1 7 6
M  V30 7 1 8 3
M  V30 8 2 8 7
M  V30 9 1 9 8
M  V30 10 1 10 9
M  V30 11 1 11 10
M  V30 12 1 12 9 CFG=3
M  V30 13 1 12 11
M  V30 14 1 13 12
M  V30 15 1 14 13
M  V30 16 1 15 14
M  V30 17 1 16 15
M  V30 18 1 17 16
M  V30 19 1 18 17
M  V30 20 1 19 18
M  V30 21 2 20 19
M  V30 22 1 21 20
M  V30 23 2 22 21
M  V30 24 1 23 22
M  V30 25 2 24 23
M  V30 26 1 25 24
M  V30 27 2 26 25
M  V30 28 1 27 26
M  V30 29 1 28 23
M  V30 30 2 28 27
M  V30 31 1 29 19
M  V30 32 1 29 22
M  V30 33 1 30 29
M  V30 34 1 31 12
M  V30 35 1 31 14
M  V30 36 1 32 1
M  V30 37 1 33 1
M  V30 38 1 34 1
M  V30 39 1 35 4
M  V30 40 1 36 5
M  V30 41 1 37 6
M  V30 42 1 38 7
M  V30 43 1 39 10
M  V30 44 1 40 10
M  V30 45 1 41 11
M  V30 46 1 42 11
M  V30 47 1 43 13
M  V30 48 1 44 13
M  V30 49 1 45 15
M  V30 50 1 46 15
M  V30 51 1 47 16
M  V30 52 1 48 16
M  V30 53 1 49 17
M  V30 54 1 50 17
M  V30 55 1 51 24
M  V30 56 1 52 25
M  V30 57 1 53 26
M  V30 58 1 54 27
M  V30 59 1 55 28
M  V30 60 1 56 30
M  V30 61 1 57 30
M  V30 62 1 58 30
M  V30 63 1 59 31
M  V30 64 1 60 31
M  V30 65 1 14 61 CFG=1
M  V30 END BOND
M  V30 END CTAB
M  END
>  <b_m_subgroup_collapsed>  (1195) 
0

>  <r_i_docking_score>  (1195) 
-7.3794984708359399

>  <s_m_subgroup_title>  (1195) 
glide-dock_SP_D22_pv

>  <s_m_subgroupid>  (1195) 
glide-dock_SP_D22_pv

>  <Molecule ChEMBL ID>  (1195) 
CHEMBL4079642

>  <Standard Type>  (1195) 
Ki

>  <Standard Value>  (1195) 
114945.0

>  <label>  (1195) 
0

$$$$
CHEMBL4451865
     RDKit          3D

  0  0  0  0  0  0  0  0  0  0999 V3000
M  V30 BEGIN CTAB
M  V30 COUNTS 79 83 0 0 1
M  V30 BEGIN ATOM
M  V30 1 C 12.008830 10.840361 -6.188340 0
M  V30 2 O 11.182057 10.537348 -5.073173 0
M  V30 3 C 11.524424 9.389503 -4.396921 0
M  V30 4 C 11.987755 9.518843 -3.072716 0
M  V30 5 C 12.312936 8.381718 -2.309707 0
M  V30 6 C 12.163986 7.099448 -2.868287 0
M  V30 7 C 11.699855 6.962424 -4.190784 0
M  V30 8 C 11.379210 8.098077 -4.963915 0
M  V30 9 N 10.878011 7.920512 -6.259288 0
M  V30 10 C 11.511963 7.025885 -7.215428 0
M  V30 11 C 10.465881 6.089594 -7.816015 0
M  V30 12 C 9.203074 6.797771 -8.339822 0
M  V30 13 C 9.463882 7.687497 -9.580283 0
M  V30 14 C 9.924014 6.887748 -10.801406 0
M  V30 15 N 9.033301 5.737098 -11.118593 0 CHG=1
M  V30 16 C 9.558345 4.938109 -12.250725 0
M  V30 17 C 8.560029 4.895753 -13.403037 0
M  V30 18 C 9.104612 4.120322 -14.605523 0
M  V30 19 S 9.046448 2.320770 -14.362731 0
M  V30 20 C 8.266236 1.848129 -15.876907 0
M  V30 21 N 8.583170 2.363014 -17.068151 0
M  V30 22 N 7.728190 1.771367 -17.968250 0
M  V30 23 C 6.963810 0.945394 -17.247185 0
M  V30 24 C 5.911973 0.057878 -17.846912 0
M  V30 25 C 4.962083 0.833732 -18.785061 0
M  V30 26 C 3.878633 -0.089615 -19.362238 0
M  V30 27 C 4.495759 -1.292081 -20.091558 0
M  V30 28 C 5.439742 -2.071167 -19.160900 0
M  V30 29 C 6.525963 -1.157930 -18.568535 0
M  V30 30 N 7.275824 0.933249 -15.931077 0
M  V30 31 C 6.682538 0.150236 -14.858488 0
M  V30 32 C 8.689769 4.876041 -9.954835 0
M  V30 33 C 8.210316 5.703921 -8.758499 0
M  V30 34 C 8.644664 7.653671 -7.176607 0
M  V30 35 C 9.682356 8.640827 -6.666299 0
M  V30 36 H 11.686515 11.770709 -6.647490 0
M  V30 37 H 13.024897 10.972266 -5.847991 0
M  V30 38 H 12.023873 10.082926 -6.967408 0
M  V30 39 H 12.085669 10.502695 -2.640074 0
M  V30 40 H 12.666661 8.495455 -1.293854 0
M  V30 41 H 12.395874 6.217741 -2.286376 0
M  V30 42 H 11.574346 5.970079 -4.601362 0
M  V30 43 H 11.988769 7.624708 -7.993417 0
M  V30 44 H 12.288084 6.421323 -6.750530 0
M  V30 45 H 10.892372 5.474123 -8.593756 0
M  V30 46 H 10.158164 5.395180 -7.044594 0
M  V30 47 H 8.557923 8.241204 -9.830829 0
M  V30 48 H 10.219434 8.446619 -9.372656 0
M  V30 49 H 9.954807 7.552960 -11.663680 0
M  V30 50 H 10.947297 6.562327 -10.636387 0
M  V30 51 H 10.492062 5.363491 -12.619700 0
M  V30 52 H 9.805440 3.924838 -11.934358 0
M  V30 53 H 7.610466 4.465594 -13.080159 0
M  V30 54 H 8.341991 5.917485 -13.718921 0
M  V30 55 H 8.490060 4.390051 -15.450022 0
M  V30 56 H 10.121680 4.423029 -14.854318 0
M  V30 57 H 5.291148 -0.324492 -17.035936 0
M  V30 58 H 4.493595 1.656200 -18.247238 0
M  V30 59 H 5.523369 1.281097 -19.608633 0
M  V30 60 H 3.250945 -0.451095 -18.548283 0
M  V30 61 H 3.233849 0.471806 -20.037849 0
M  V30 62 H 3.706898 -1.950637 -20.455383 0
M  V30 63 H 5.042034 -0.947977 -20.971931 0
M  V30 64 H 4.862267 -2.523042 -18.352631 0
M  V30 65 H 5.901432 -2.895240 -19.704994 0
M  V30 66 H 7.190686 -0.819103 -19.362890 0
M  V30 67 H 7.139971 -1.727368 -17.870459 0
M  V30 68 H 5.681694 0.526484 -14.641566 0
M  V30 69 H 6.613693 -0.897544 -15.155259 0
M  V30 70 H 7.284125 0.204832 -13.950459 0
M  V30 71 H 7.905232 4.173545 -10.253217 0
M  V30 72 H 9.541816 4.253035 -9.682153 0
M  V30 73 H 7.980426 5.047086 -7.917784 0
M  V30 74 H 7.286462 6.170100 -9.047575 0
M  V30 75 H 7.779494 8.249128 -7.446894 0
M  V30 76 H 8.332280 7.004960 -6.359692 0
M  V30 77 H 9.261662 9.213220 -5.846870 0
M  V30 78 H 9.921821 9.372274 -7.435833 0
M  V30 79 H 8.155892 6.156355 -11.404513 0
M  V30 END ATOM
M  V30 BEGIN BOND
M  V30 1 1 2 1
M  V30 2 1 3 2
M  V30 3 2 4 3
M  V30 4 1 5 4
M  V30 5 2 6 5
M  V30 6 1 7 6
M  V30 7 1 8 3
M  V30 8 2 8 7
M  V30 9 1 9 8
M  V30 10 1 10 9
M  V30 11 1 11 10
M  V30 12 1 12 11
M  V30 13 1 13 12
M  V30 14 1 14 13
M  V30 15 1 15 14
M  V30 16 1 16 15
M  V30 17 1 17 16
M  V30 18 1 18 17
M  V30 19 1 19 18
M  V30 20 1 20 19
M  V30 21 2 21 20
M  V30 22 1 22 21
M  V30 23 2 23 22
M  V30 24 1 24 23
M  V30 25 1 25 24
M  V30 26 1 26 25
M  V30 27 1 27 26
M  V30 28 1 28 27
M  V30 29 1 29 24
M  V30 30 1 29 28
M  V30 31 1 30 20
M  V30 32 1 30 23
M  V30 33 1 31 30
M  V30 34 1 32 15
M  V30 35 1 33 12
M  V30 36 1 33 32
M  V30 37 1 34 12
M  V30 38 1 35 9
M  V30 39 1 35 34
M  V30 40 1 36 1
M  V30 41 1 37 1
M  V30 42 1 38 1
M  V30 43 1 39 4
M  V30 44 1 40 5
M  V30 45 1 41 6
M  V30 46 1 42 7
M  V30 47 1 43 10
M  V30 48 1 44 10
M  V30 49 1 45 11
M  V30 50 1 46 11
M  V30 51 1 47 13
M  V30 52 1 48 13
M  V30 53 1 49 14
M  V30 54 1 50 14
M  V30 55 1 51 16
M  V30 56 1 52 16
M  V30 57 1 53 17
M  V30 58 1 54 17
M  V30 59 1 55 18
M  V30 60 1 56 18
M  V30 61 1 57 24
M  V30 62 1 58 25
M  V30 63 1 59 25
M  V30 64 1 60 26
M  V30 65 1 61 26
M  V30 66 1 62 27
M  V30 67 1 63 27
M  V30 68 1 64 28
M  V30 69 1 65 28
M  V30 70 1 66 29
M  V30 71 1 67 29
M  V30 72 1 68 31
M  V30 73 1 69 31
M  V30 74 1 70 31
M  V30 75 1 71 32
M  V30 76 1 72 32
M  V30 77 1 73 33
M  V30 78 1 74 33
M  V30 79 1 75 34
M  V30 80 1 76 34
M  V30 81 1 77 35
M  V30 82 1 78 35
M  V30 83 1 79 15
M  V30 END BOND
M  V30 END CTAB
M  END
>  <b_m_subgroup_collapsed>  (1196) 
0

>  <r_i_docking_score>  (1196) 
-7.3767681843161901

>  <s_m_subgroup_title>  (1196) 
glide-dock_SP_D22_pv

>  <s_m_subgroupid>  (1196) 
glide-dock_SP_D22_pv

>  <Molecule ChEMBL ID>  (1196) 
CHEMBL4451865

>  <Standard Type>  (1196) 
Ki

>  <Standard Value>  (1196) 
12584.0

>  <label>  (1196) 
0

$$$$
CHEMBL1169728
     RDKit          3D

  0  0  0  0  0  0  0  0  0  0999 V3000
M  V30 BEGIN CTAB
M  V30 COUNTS 54 58 0 0 1
M  V30 BEGIN ATOM
M  V30 1 C 12.885864 7.633267 -13.363794 0
M  V30 2 N 12.004530 7.372422 -12.235334 0
M  V30 3 C 12.140709 8.109215 -10.985820 0
M  V30 4 N 10.919432 7.782364 -10.259377 0
M  V30 5 C 10.752207 8.191510 -8.912704 0
M  V30 6 C 11.874596 8.590620 -8.144278 0
M  V30 7 C 11.740391 8.992919 -6.804249 0
M  V30 8 C 10.483346 8.967801 -6.185804 0
M  V30 9 C 9.355141 8.572450 -6.926344 0
M  V30 10 C 9.485091 8.225123 -8.281086 0
M  V30 11 C 9.996085 6.997193 -11.090449 0 CFG=2
M  V30 12 C 8.846819 7.849388 -11.667118 0
M  V30 13 C 7.795547 7.017449 -12.458132 0
M  V30 14 N 7.353183 5.769995 -11.771350 0 CFG=1 CHG=1
M  V30 15 C 6.375794 4.963879 -12.569283 0
M  V30 16 C 6.976430 3.886834 -13.463871 0
M  V30 17 C 8.100874 4.036968 -14.246695 0
M  V30 18 S 8.636671 2.611935 -15.078348 0
M  V30 19 C 7.243400 1.731787 -14.508187 0
M  V30 20 C 6.913207 0.398651 -14.814008 0
M  V30 21 C 5.745449 -0.170720 -14.286979 0
M  V30 22 C 4.927359 0.597663 -13.444334 0
M  V30 23 C 5.284173 1.918612 -13.106520 0
M  V30 24 C 6.435418 2.544931 -13.644432 0
M  V30 25 C 8.436652 4.940532 -11.169795 0
M  V30 26 C 9.424496 5.761889 -10.341616 0
M  V30 27 C 10.887783 6.647234 -12.284524 0
M  V30 28 O 10.587171 5.864488 -13.182933 0
M  V30 29 H 12.351801 8.170861 -14.146748 0
M  V30 30 H 13.732084 8.244628 -13.049644 0
M  V30 31 H 13.275189 6.714714 -13.805760 0
M  V30 32 H 13.034611 7.772063 -10.470062 0
M  V30 33 H 12.226027 9.188385 -11.097671 0
M  V30 34 H 12.871287 8.617208 -8.555167 0
M  V30 35 H 12.608882 9.317939 -6.248731 0
M  V30 36 H 10.387978 9.262215 -5.152645 0
M  V30 37 H 8.376822 8.562066 -6.466331 0
M  V30 38 H 8.575337 7.985186 -8.804399 0
M  V30 39 H 9.243397 8.613845 -12.337311 0
M  V30 40 H 8.401259 8.443699 -10.879897 0
M  V30 41 H 8.171641 6.769610 -13.444468 0
M  V30 42 H 6.922074 7.643956 -12.645726 0
M  V30 43 H 5.730558 5.627656 -13.146525 0
M  V30 44 H 5.714092 4.490389 -11.843746 0
M  V30 45 H 8.704641 4.918708 -14.374395 0
M  V30 46 H 7.551124 -0.185236 -15.462654 0
M  V30 47 H 5.479041 -1.190606 -14.531180 0
M  V30 48 H 4.021920 0.165501 -13.048585 0
M  V30 49 H 4.635091 2.476431 -12.449939 0
M  V30 50 H 7.973783 4.186986 -10.530450 0
M  V30 51 H 9.005438 4.383588 -11.908570 0
M  V30 52 H 10.232863 5.116763 -9.998808 0
M  V30 53 H 8.891910 6.036294 -9.436304 0
M  V30 54 H 6.832620 6.142330 -10.982121 0
M  V30 END ATOM
M  V30 BEGIN BOND
M  V30 1 1 2 1
M  V30 2 1 3 2
M  V30 3 1 4 3
M  V30 4 1 5 4
M  V30 5 2 6 5
M  V30 6 1 7 6
M  V30 7 2 8 7
M  V30 8 1 9 8
M  V30 9 1 10 5
M  V30 10 2 10 9
M  V30 11 1 11 4 CFG=1
M  V30 12 1 12 11
M  V30 13 1 13 12
M  V30 14 1 14 13
M  V30 15 1 15 14
M  V30 16 1 16 15
M  V30 17 2 17 16
M  V30 18 1 18 17
M  V30 19 1 19 18
M  V30 20 2 20 19
M  V30 21 1 21 20
M  V30 22 2 22 21
M  V30 23 1 23 22
M  V30 24 1 24 16
M  V30 25 1 24 19
M  V30 26 2 24 23
M  V30 27 1 25 14
M  V30 28 1 26 11
M  V30 29 1 26 25
M  V30 30 1 27 2
M  V30 31 1 27 11
M  V30 32 2 28 27
M  V30 33 1 29 1
M  V30 34 1 30 1
M  V30 35 1 31 1
M  V30 36 1 32 3
M  V30 37 1 33 3
M  V30 38 1 34 6
M  V30 39 1 35 7
M  V30 40 1 36 8
M  V30 41 1 37 9
M  V30 42 1 38 10
M  V30 43 1 39 12
M  V30 44 1 40 12
M  V30 45 1 41 13
M  V30 46 1 42 13
M  V30 47 1 43 15
M  V30 48 1 44 15
M  V30 49 1 45 17
M  V30 50 1 46 20
M  V30 51 1 47 21
M  V30 52 1 48 22
M  V30 53 1 49 23
M  V30 54 1 50 25
M  V30 55 1 51 25
M  V30 56 1 52 26
M  V30 57 1 53 26
M  V30 58 1 14 54 CFG=1
M  V30 END BOND
M  V30 END CTAB
M  END
>  <b_m_subgroup_collapsed>  (1197) 
0

>  <r_i_docking_score>  (1197) 
-7.3757181447206799

>  <s_m_subgroup_title>  (1197) 
glide-dock_SP_D22_pv

>  <s_m_subgroupid>  (1197) 
glide-dock_SP_D22_pv

>  <Molecule ChEMBL ID>  (1197) 
CHEMBL1169728

>  <Standard Type>  (1197) 
Ki

>  <Standard Value>  (1197) 
71.4

>  <label>  (1197) 
1

$$$$
CHEMBL1087300
     RDKit          3D

  0  0  0  0  0  0  0  0  0  0999 V3000
M  V30 BEGIN CTAB
M  V30 COUNTS 45 48 0 0 1
M  V30 BEGIN ATOM
M  V30 1 C 8.600632 7.147900 -12.037234 0
M  V30 2 N 9.294288 6.114401 -12.843902 0 CFG=1 CHG=1
M  V30 3 C 10.777053 6.298040 -12.857502 0
M  V30 4 C 11.630711 5.239640 -13.606919 0
M  V30 5 C 11.275662 5.003550 -15.074378 0
M  V30 6 C 11.510563 6.059007 -15.981730 0
M  V30 7 C 11.232989 5.906926 -17.351803 0
M  V30 8 C 10.726389 4.689665 -17.832962 0
M  V30 9 C 10.506956 3.622016 -16.944632 0
M  V30 10 C 10.775918 3.760527 -15.564360 0
M  V30 11 C 10.551581 2.558173 -14.645945 0
M  V30 12 C 9.450010 1.593619 -14.992951 0
M  V30 13 C 9.519895 0.345728 -15.542345 0
M  V30 14 N 8.298450 -0.227600 -15.280252 0
M  V30 15 C 7.488879 0.641396 -14.618168 0
M  V30 16 C 6.219475 0.412032 -14.114093 0
M  V30 17 C 5.511210 1.421224 -13.447131 0
M  V30 18 C 6.085949 2.693250 -13.348845 0
M  V30 19 C 7.385083 2.926091 -13.846960 0
M  V30 20 C 8.134933 1.872445 -14.460151 0
M  V30 21 C 8.005284 4.304458 -13.873245 0
M  V30 22 C 8.751347 4.754329 -12.601436 0
M  V30 23 H 8.740999 6.975877 -10.969293 0
M  V30 24 H 7.530598 7.137289 -12.248125 0
M  V30 25 H 8.967527 8.148148 -12.270051 0
M  V30 26 H 10.981674 7.268584 -13.307706 0
M  V30 27 H 11.135351 6.398215 -11.838762 0
M  V30 28 H 12.660805 5.598221 -13.602204 0
M  V30 29 H 11.699538 4.316078 -13.047237 0
M  V30 30 H 11.907907 6.999723 -15.631496 0
M  V30 31 H 11.416663 6.724801 -18.034054 0
M  V30 32 H 10.517673 4.569782 -18.885916 0
M  V30 33 H 10.137769 2.687102 -17.338545 0
M  V30 34 H 11.492742 2.010849 -14.667110 0
M  V30 35 H 10.440101 2.815779 -13.605729 0
M  V30 36 H 10.341859 -0.203619 -15.977168 0
M  V30 37 H 8.086000 -1.214039 -15.447018 0
M  V30 38 H 5.768149 -0.560747 -14.237700 0
M  V30 39 H 4.518288 1.237478 -13.061914 0
M  V30 40 H 5.524900 3.496044 -12.891344 0
M  V30 41 H 8.568622 4.456636 -14.783085 0
M  V30 42 H 7.157816 4.973945 -13.999143 0
M  V30 43 H 9.526944 4.069668 -12.272831 0
M  V30 44 H 8.041975 4.767130 -11.771938 0
M  V30 45 H 9.027449 6.308522 -13.799139 0
M  V30 END ATOM
M  V30 BEGIN BOND
M  V30 1 1 2 1
M  V30 2 1 3 2
M  V30 3 1 4 3
M  V30 4 1 5 4
M  V30 5 2 6 5
M  V30 6 1 7 6
M  V30 7 2 8 7
M  V30 8 1 9 8
M  V30 9 1 10 5
M  V30 10 2 10 9
M  V30 11 1 11 10
M  V30 12 1 12 11
M  V30 13 2 13 12
M  V30 14 1 14 13
M  V30 15 1 15 14
M  V30 16 2 16 15
M  V30 17 1 17 16
M  V30 18 2 18 17
M  V30 19 1 19 18
M  V30 20 1 20 12
M  V30 21 1 20 15
M  V30 22 2 20 19
M  V30 23 1 21 19
M  V30 24 1 22 2
M  V30 25 1 22 21
M  V30 26 1 23 1
M  V30 27 1 24 1
M  V30 28 1 25 1
M  V30 29 1 26 3
M  V30 30 1 27 3
M  V30 31 1 28 4
M  V30 32 1 29 4
M  V30 33 1 30 6
M  V30 34 1 31 7
M  V30 35 1 32 8
M  V30 36 1 33 9
M  V30 37 1 34 11
M  V30 38 1 35 11
M  V30 39 1 36 13
M  V30 40 1 37 14
M  V30 41 1 38 16
M  V30 42 1 39 17
M  V30 43 1 40 18
M  V30 44 1 41 21
M  V30 45 1 42 21
M  V30 46 1 43 22
M  V30 47 1 44 22
M  V30 48 1 2 45 CFG=3
M  V30 END BOND
M  V30 END CTAB
M  END
>  <b_m_subgroup_collapsed>  (1198) 
0

>  <r_i_docking_score>  (1198) 
-7.3755298766361097

>  <s_m_subgroup_title>  (1198) 
glide-dock_SP_D22_pv

>  <s_m_subgroupid>  (1198) 
glide-dock_SP_D22_pv

>  <Molecule ChEMBL ID>  (1198) 
CHEMBL1087300

>  <Standard Type>  (1198) 
Ki

>  <Standard Value>  (1198) 
4.0

>  <label>  (1198) 
1

$$$$
CHEMBL382780
     RDKit          3D

  0  0  0  0  0  0  0  0  0  0999 V3000
M  V30 BEGIN CTAB
M  V30 COUNTS 46 49 0 0 1
M  V30 BEGIN ATOM
M  V30 1 O 10.950022 7.654350 -11.076653 0
M  V30 2 C 10.086505 6.778358 -11.001701 0
M  V30 3 C 9.721666 5.945340 -12.273899 0 CFG=1
M  V30 4 C 10.877119 5.700369 -13.286159 0
M  V30 5 C 11.101430 4.413885 -13.844945 0
M  V30 6 C 12.086400 4.203749 -14.828287 0
M  V30 7 C 12.872498 5.275162 -15.283963 0
M  V30 8 C 12.665622 6.559479 -14.752993 0
M  V30 9 C 11.685837 6.764677 -13.763645 0
M  V30 10 C 8.933074 4.663634 -11.921658 0
M  V30 11 C 7.848721 4.937690 -10.888980 0
M  V30 12 C 8.484748 5.464052 -9.602476 0
M  V30 13 N 9.415782 6.572386 -9.835955 0
M  V30 14 C 9.588707 7.469239 -8.681574 0
M  V30 15 C 10.814944 7.093586 -7.824995 0
M  V30 16 C 11.127076 8.126274 -6.780312 0
M  V30 17 C 11.303098 9.461287 -7.025527 0
M  V30 18 N 11.600876 10.117635 -5.846295 0
M  V30 19 C 11.688253 9.216841 -4.806149 0
M  V30 20 C 12.021100 9.371940 -3.448058 0
M  V30 21 C 12.085431 8.239777 -2.617785 0
M  V30 22 C 11.791609 6.969934 -3.148120 0
M  V30 23 C 11.438005 6.826957 -4.506627 0
M  V30 24 C 11.383072 7.942723 -5.373998 0
M  V30 25 H 9.018633 6.583971 -12.809234 0
M  V30 26 H 10.520112 3.555289 -13.547646 0
M  V30 27 H 12.235560 3.216169 -15.238915 0
M  V30 28 H 13.626628 5.113819 -16.040302 0
M  V30 29 H 13.260241 7.390444 -15.102631 0
M  V30 30 H 11.536117 7.771920 -13.411287 0
M  V30 31 H 8.465255 4.251578 -12.816195 0
M  V30 32 H 9.605501 3.899236 -11.528802 0
M  V30 33 H 7.286164 4.028589 -10.675553 0
M  V30 34 H 7.134219 5.666535 -11.275112 0
M  V30 35 H 9.029598 4.662116 -9.102848 0
M  V30 36 H 7.687031 5.769127 -8.924167 0
M  V30 37 H 9.678652 8.493395 -9.047493 0
M  V30 38 H 8.696357 7.482816 -8.054467 0
M  V30 39 H 10.646890 6.122105 -7.360077 0
M  V30 40 H 11.685616 6.971548 -8.468225 0
M  V30 41 H 11.260628 9.989656 -7.964938 0
M  V30 42 H 11.782027 11.109271 -5.796174 0
M  V30 43 H 12.239443 10.347793 -3.042013 0
M  V30 44 H 12.348009 8.349519 -1.575337 0
M  V30 45 H 11.830226 6.096995 -2.511479 0
M  V30 46 H 11.222577 5.843405 -4.896492 0
M  V30 END ATOM
M  V30 BEGIN BOND
M  V30 1 2 2 1
M  V30 2 1 3 2
M  V30 3 1 4 3
M  V30 4 2 5 4
M  V30 5 1 6 5
M  V30 6 2 7 6
M  V30 7 1 8 7
M  V30 8 1 9 4
M  V30 9 2 9 8
M  V30 10 1 10 3
M  V30 11 1 11 10
M  V30 12 1 12 11
M  V30 13 1 13 2
M  V30 14 1 13 12
M  V30 15 1 14 13
M  V30 16 1 15 14
M  V30 17 1 16 15
M  V30 18 2 17 16
M  V30 19 1 18 17
M  V30 20 1 19 18
M  V30 21 2 20 19
M  V30 22 1 21 20
M  V30 23 2 22 21
M  V30 24 1 23 22
M  V30 25 1 24 16
M  V30 26 1 24 19
M  V30 27 2 24 23
M  V30 28 1 3 25 CFG=3
M  V30 29 1 26 5
M  V30 30 1 27 6
M  V30 31 1 28 7
M  V30 32 1 29 8
M  V30 33 1 30 9
M  V30 34 1 31 10
M  V30 35 1 32 10
M  V30 36 1 33 11
M  V30 37 1 34 11
M  V30 38 1 35 12
M  V30 39 1 36 12
M  V30 40 1 37 14
M  V30 41 1 38 14
M  V30 42 1 39 15
M  V30 43 1 40 15
M  V30 44 1 41 17
M  V30 45 1 42 18
M  V30 46 1 43 20
M  V30 47 1 44 21
M  V30 48 1 45 22
M  V30 49 1 46 23
M  V30 END BOND
M  V30 END CTAB
M  END
>  <b_m_subgroup_collapsed>  (1199) 
0

>  <r_i_docking_score>  (1199) 
-7.3740747889081604

>  <s_m_subgroup_title>  (1199) 
glide-dock_SP_D22_pv

>  <s_m_subgroupid>  (1199) 
glide-dock_SP_D22_pv

>  <Molecule ChEMBL ID>  (1199) 
CHEMBL382780

>  <Standard Type>  (1199) 
Ki

>  <Standard Value>  (1199) 
10000.0

>  <label>  (1199) 
0

$$$$
CHEMBL542877
     RDKit          3D

  0  0  0  0  0  0  0  0  0  0999 V3000
M  V30 BEGIN CTAB
M  V30 COUNTS 43 46 0 0 1
M  V30 BEGIN ATOM
M  V30 1 O 9.238526 6.891918 -6.920670 0
M  V30 2 C 10.185819 7.540192 -7.357019 0
M  V30 3 C 11.286193 8.120119 -6.615234 0
M  V30 4 C 11.498990 8.155476 -5.163517 0
M  V30 5 C 11.803079 9.370458 -4.518403 0
M  V30 6 C 12.086170 9.378065 -3.139400 0
M  V30 7 C 12.086046 8.176924 -2.406765 0
M  V30 8 C 11.789813 6.962780 -3.051761 0
M  V30 9 C 11.492704 6.952543 -4.428516 0
M  V30 10 C 12.058153 8.702897 -7.539131 0
M  V30 11 O 11.667763 8.540814 -8.838741 0
M  V30 12 C 10.421938 7.847949 -8.832449 0 CFG=2
M  V30 13 C 9.380940 8.759202 -9.474611 0
M  V30 14 C 9.263550 8.227921 -10.901074 0
M  V30 15 N 9.414029 6.769184 -10.760598 0 CFG=1 CHG=1
M  V30 16 C 9.690316 6.056730 -12.034833 0
M  V30 17 C 8.534875 5.245357 -12.591694 0
M  V30 18 C 8.827172 4.048942 -13.281119 0
M  V30 19 C 7.794648 3.281821 -13.848691 0
M  V30 20 C 6.459447 3.702198 -13.727471 0
M  V30 21 C 6.161360 4.895842 -13.046777 0
M  V30 22 C 7.192556 5.666174 -12.476413 0
M  V30 23 C 10.464578 6.599429 -9.728889 0
M  V30 24 H 11.821794 10.293289 -5.077960 0
M  V30 25 H 12.312162 10.309524 -2.643455 0
M  V30 26 H 12.308893 8.189585 -1.350830 0
M  V30 27 H 11.786597 6.038313 -2.491865 0
M  V30 28 H 11.272289 6.015110 -4.918161 0
M  V30 29 H 12.971642 9.265338 -7.403850 0
M  V30 30 H 8.431858 8.685472 -8.950618 0
M  V30 31 H 9.688872 9.797829 -9.454932 0
M  V30 32 H 8.328756 8.508637 -11.387119 0
M  V30 33 H 10.080558 8.627457 -11.502240 0
M  V30 34 H 10.067861 6.733810 -12.800093 0
M  V30 35 H 10.483953 5.335973 -11.861439 0
M  V30 36 H 9.848358 3.710519 -13.385594 0
M  V30 37 H 8.028207 2.368899 -14.376066 0
M  V30 38 H 5.668470 3.113667 -14.166594 0
M  V30 39 H 5.138927 5.223685 -12.968378 0
M  V30 40 H 6.934832 6.575497 -11.955527 0
M  V30 41 H 11.444307 6.572535 -10.202527 0
M  V30 42 H 10.326370 5.661384 -9.189026 0
M  V30 43 H 8.541718 6.423115 -10.377619 0
M  V30 END ATOM
M  V30 BEGIN BOND
M  V30 1 2 2 1
M  V30 2 1 3 2
M  V30 3 1 4 3
M  V30 4 2 5 4
M  V30 5 1 6 5
M  V30 6 2 7 6
M  V30 7 1 8 7
M  V30 8 1 9 4
M  V30 9 2 9 8
M  V30 10 2 10 3
M  V30 11 1 11 10
M  V30 12 1 12 2
M  V30 13 1 12 11 CFG=1
M  V30 14 1 13 12
M  V30 15 1 14 13
M  V30 16 1 15 14
M  V30 17 1 16 15
M  V30 18 1 17 16
M  V30 19 2 18 17
M  V30 20 1 19 18
M  V30 21 2 20 19
M  V30 22 1 21 20
M  V30 23 1 22 17
M  V30 24 2 22 21
M  V30 25 1 23 12
M  V30 26 1 23 15
M  V30 27 1 24 5
M  V30 28 1 25 6
M  V30 29 1 26 7
M  V30 30 1 27 8
M  V30 31 1 28 9
M  V30 32 1 29 10
M  V30 33 1 30 13
M  V30 34 1 31 13
M  V30 35 1 32 14
M  V30 36 1 33 14
M  V30 37 1 34 16
M  V30 38 1 35 16
M  V30 39 1 36 18
M  V30 40 1 37 19
M  V30 41 1 38 20
M  V30 42 1 39 21
M  V30 43 1 40 22
M  V30 44 1 41 23
M  V30 45 1 42 23
M  V30 46 1 15 43 CFG=1
M  V30 END BOND
M  V30 END CTAB
M  END
>  <b_m_subgroup_collapsed>  (1200) 
0

>  <r_i_docking_score>  (1200) 
-7.3723900313683401

>  <s_m_subgroup_title>  (1200) 
glide-dock_SP_D22_pv

>  <s_m_subgroupid>  (1200) 
glide-dock_SP_D22_pv

>  <Molecule ChEMBL ID>  (1200) 
CHEMBL542877

>  <Standard Type>  (1200) 
Ki

>  <Standard Value>  (1200) 
20000.0

>  <label>  (1200) 
0

$$$$
CHEMBL5870352
     RDKit          3D

  0  0  0  0  0  0  0  0  0  0999 V3000
M  V30 BEGIN CTAB
M  V30 COUNTS 72 77 0 0 1
M  V30 BEGIN ATOM
M  V30 1 C 16.370993 2.519925 -20.649950 0
M  V30 2 N 15.244790 1.821258 -20.047419 0
M  V30 3 C 14.231890 2.546644 -19.262377 0
M  V30 4 C 13.229121 1.465080 -18.938641 0
M  V30 5 C 12.031566 1.516494 -18.191208 0
M  V30 6 C 11.536226 2.791888 -17.571493 0
M  V30 7 O 11.788328 3.888985 -18.063982 0
M  V30 8 N 10.850750 2.631631 -16.426371 0
M  V30 9 C 10.322894 3.707989 -15.604054 0 CFG=1
M  V30 10 C 9.094329 3.215237 -14.817769 0
M  V30 11 C 8.552067 4.308327 -13.880811 0
M  V30 12 C 9.639355 4.810800 -12.911704 0 CFG=2
M  V30 13 C 9.078930 5.879061 -11.950603 0
M  V30 14 C 10.086978 6.245810 -10.850774 0
M  V30 15 N 9.522363 7.063845 -9.763276 0 CFG=1 CHG=1
M  V30 16 C 8.671074 6.294863 -8.825889 0
M  V30 17 C 8.684132 7.091266 -7.553898 0 CFG=2
M  V30 18 C 8.485602 8.587824 -7.542298 0
M  V30 19 C 9.859951 8.005056 -7.612996 0 CFG=1
M  V30 20 C 10.764555 8.226027 -6.448418 0
M  V30 21 C 10.969865 7.350208 -5.354074 0
M  V30 22 C 11.777327 8.067509 -4.524455 0
M  V30 23 C 12.425498 7.731763 -3.228555 0
M  V30 24 C 12.408155 8.903279 -2.240341 0
M  V30 25 F 11.812898 6.708699 -2.632501 0
M  V30 26 F 13.685937 7.372185 -3.442925 0
M  V30 27 O 12.083635 9.269334 -5.084586 0
M  V30 28 N 11.405954 9.370848 -6.303542 0
M  V30 29 C 10.541485 7.771616 -8.939386 0
M  V30 30 C 10.873350 5.299029 -13.706584 0
M  V30 31 C 11.413991 4.208680 -14.641318 0
M  V30 32 C 11.291692 0.311657 -18.068186 0
M  V30 33 C 11.758211 -0.889349 -18.646639 0
M  V30 34 C 12.975804 -0.921619 -19.367599 0
M  V30 35 C 13.686265 0.280588 -19.494209 0
M  V30 36 C 14.967739 0.511226 -20.200356 0
M  V30 37 O 15.621916 -0.339666 -20.801542 0
M  V30 38 H 17.306814 1.985725 -20.470812 0
M  V30 39 H 16.228315 2.600111 -21.728781 0
M  V30 40 H 16.469955 3.530488 -20.249382 0
M  V30 41 H 13.774857 3.341563 -19.852671 0
M  V30 42 H 14.661361 2.968546 -18.352821 0
M  V30 43 H 10.723402 1.690220 -16.088701 0
M  V30 44 H 10.008746 4.534462 -16.244394 0
M  V30 45 H 9.359476 2.336286 -14.227528 0
M  V30 46 H 8.310741 2.900370 -15.507749 0
M  V30 47 H 7.704722 3.913308 -13.320549 0
M  V30 48 H 8.165982 5.140473 -14.471792 0
M  V30 49 H 9.950945 3.955773 -12.307624 0
M  V30 50 H 8.167570 5.494096 -11.494005 0
M  V30 51 H 8.787997 6.772893 -12.503189 0
M  V30 52 H 10.919874 6.791698 -11.293015 0
M  V30 53 H 10.486020 5.340775 -10.398372 0
M  V30 54 H 9.084991 5.306216 -8.621507 0
M  V30 55 H 7.671875 6.172253 -9.221474 0
M  V30 56 H 8.457231 6.552837 -6.638035 0
M  V30 57 H 8.092425 8.972055 -6.606195 0
M  V30 58 H 8.103701 9.081458 -8.432392 0
M  V30 59 H 10.578434 6.356624 -5.185333 0
M  V30 60 H 12.888050 8.639642 -1.295993 0
M  V30 61 H 12.928457 9.771774 -2.645743 0
M  V30 62 H 11.385422 9.210564 -2.026409 0
M  V30 63 H 10.861728 8.710163 -9.391239 0
M  V30 64 H 11.412217 7.132826 -8.786946 0
M  V30 65 H 10.611477 6.171587 -14.301193 0
M  V30 66 H 11.680601 5.607585 -13.046890 0
M  V30 67 H 11.798942 3.378639 -14.047417 0
M  V30 68 H 12.262785 4.602001 -15.204904 0
M  V30 69 H 10.354124 0.289059 -17.530975 0
M  V30 70 H 11.172647 -1.791001 -18.537283 0
M  V30 71 H 13.348517 -1.836996 -19.807720 0
M  V30 72 H 8.917796 7.771355 -10.167778 0
M  V30 END ATOM
M  V30 BEGIN BOND
M  V30 1 1 2 1
M  V30 2 1 3 2
M  V30 3 1 4 3
M  V30 4 2 5 4
M  V30 5 1 6 5
M  V30 6 2 7 6
M  V30 7 1 8 6
M  V30 8 1 9 8
M  V30 9 1 10 9
M  V30 10 1 11 10
M  V30 11 1 12 11
M  V30 12 1 13 12
M  V30 13 1 14 13
M  V30 14 1 15 14
M  V30 15 1 16 15
M  V30 16 1 17 16
M  V30 17 1 18 17
M  V30 18 1 19 17
M  V30 19 1 19 18
M  V30 20 1 19 20 CFG=1
M  V30 21 1 21 20
M  V30 22 2 22 21
M  V30 23 1 23 22
M  V30 24 1 24 23
M  V30 25 1 25 23
M  V30 26 1 26 23
M  V30 27 1 27 22
M  V30 28 2 28 20
M  V30 29 1 28 27
M  V30 30 1 29 15
M  V30 31 1 29 19
M  V30 32 1 30 12
M  V30 33 1 31 9
M  V30 34 1 31 30
M  V30 35 1 32 5
M  V30 36 2 33 32
M  V30 37 1 34 33
M  V30 38 1 35 4
M  V30 39 2 35 34
M  V30 40 1 36 2
M  V30 41 1 36 35
M  V30 42 2 37 36
M  V30 43 1 38 1
M  V30 44 1 39 1
M  V30 45 1 40 1
M  V30 46 1 41 3
M  V30 47 1 42 3
M  V30 48 1 43 8
M  V30 49 1 9 44 CFG=3
M  V30 50 1 45 10
M  V30 51 1 46 10
M  V30 52 1 47 11
M  V30 53 1 48 11
M  V30 54 1 12 49 CFG=1
M  V30 55 1 50 13
M  V30 56 1 51 13
M  V30 57 1 52 14
M  V30 58 1 53 14
M  V30 59 1 54 16
M  V30 60 1 55 16
M  V30 61 1 17 56 CFG=1
M  V30 62 1 57 18
M  V30 63 1 58 18
M  V30 64 1 59 21
M  V30 65 1 60 24
M  V30 66 1 61 24
M  V30 67 1 62 24
M  V30 68 1 63 29
M  V30 69 1 64 29
M  V30 70 1 65 30
M  V30 71 1 66 30
M  V30 72 1 67 31
M  V30 73 1 68 31
M  V30 74 1 69 32
M  V30 75 1 70 33
M  V30 76 1 71 34
M  V30 77 1 15 72 CFG=3
M  V30 END BOND
M  V30 END CTAB
M  END
>  <b_m_subgroup_collapsed>  (1201) 
0

>  <r_i_docking_score>  (1201) 
-7.3686934252729097

>  <s_m_subgroup_title>  (1201) 
glide-dock_SP_D22_pv

>  <s_m_subgroupid>  (1201) 
glide-dock_SP_D22_pv

>  <Molecule ChEMBL ID>  (1201) 
CHEMBL5870352

>  <Standard Type>  (1201) 
Ki

>  <Standard Value>  (1201) 
86.0

>  <label>  (1201) 
1

$$$$
CHEMBL413483
     RDKit          3D

  0  0  0  0  0  0  0  0  0  0999 V3000
M  V30 BEGIN CTAB
M  V30 COUNTS 41 42 0 0 1
M  V30 BEGIN ATOM
M  V30 1 C 11.842130 7.509748 -11.432674 0
M  V30 2 C 10.445852 7.385051 -12.060604 0
M  V30 3 C 9.294020 8.122961 -11.316812 0 CFG=1
M  V30 4 C 8.100064 8.360933 -12.254208 0
M  V30 5 N 8.887681 7.528782 -10.003326 0 CFG=1 CHG=1
M  V30 6 C 8.916555 6.042073 -9.952507 0
M  V30 7 C 8.509145 5.516208 -8.576965 0
M  V30 8 C 9.406611 6.086543 -7.483317 0
M  V30 9 C 9.439820 7.618164 -7.475337 0 CFG=1
M  V30 10 C 10.469892 8.168371 -6.462285 0
M  V30 11 C 11.054002 9.444289 -6.636426 0
M  V30 12 C 11.947914 9.977306 -5.695963 0
M  V30 13 C 12.280102 9.249988 -4.541533 0
M  V30 14 C 11.739989 7.963421 -4.360402 0
M  V30 15 C 12.086478 7.192193 -3.181947 0
M  V30 16 N 12.364042 6.574951 -2.246894 0
M  V30 17 C 10.867309 7.419536 -5.325555 0
M  V30 18 C 9.664885 8.175598 -8.900137 0
M  V30 19 H 12.593014 7.097751 -12.107873 0
M  V30 20 H 12.109178 8.550720 -11.249727 0
M  V30 21 H 11.926164 6.972502 -10.491484 0
M  V30 22 H 10.203710 6.341386 -12.254923 0
M  V30 23 H 10.544391 7.824175 -13.045646 0
M  V30 24 H 9.657559 9.125991 -11.119213 0
M  V30 25 H 8.452855 8.965649 -13.076441 0
M  V30 26 H 7.682216 7.432489 -12.639732 0
M  V30 27 H 7.293716 8.965352 -11.845183 0
M  V30 28 H 9.915389 5.664864 -10.165219 0
M  V30 29 H 8.245672 5.641634 -10.714742 0
M  V30 30 H 8.557093 4.426904 -8.565319 0
M  V30 31 H 7.478787 5.772286 -8.360114 0
M  V30 32 H 10.417389 5.685803 -7.591629 0
M  V30 33 H 9.008943 5.772599 -6.524456 0
M  V30 34 H 8.458894 7.962211 -7.141275 0
M  V30 35 H 10.840016 10.055958 -7.490234 0
M  V30 36 H 12.378001 10.953068 -5.865383 0
M  V30 37 H 12.956458 9.673779 -3.811708 0
M  V30 38 H 10.470273 6.432930 -5.137012 0
M  V30 39 H 9.409299 9.236356 -8.905722 0
M  V30 40 H 10.726985 8.107375 -9.117079 0
M  V30 41 H 7.890471 7.772045 -9.894134 0
M  V30 END ATOM
M  V30 BEGIN BOND
M  V30 1 1 2 1
M  V30 2 1 3 2
M  V30 3 1 4 3
M  V30 4 1 5 3
M  V30 5 1 6 5
M  V30 6 1 7 6
M  V30 7 1 8 7
M  V30 8 1 9 8
M  V30 9 1 10 9
M  V30 10 2 11 10
M  V30 11 1 12 11
M  V30 12 2 13 12
M  V30 13 1 14 13
M  V30 14 1 15 14
M  V30 15 3 16 15
M  V30 16 1 17 10
M  V30 17 2 17 14
M  V30 18 1 18 5
M  V30 19 1 18 9
M  V30 20 1 19 1
M  V30 21 1 20 1
M  V30 22 1 21 1
M  V30 23 1 22 2
M  V30 24 1 23 2
M  V30 25 1 3 24 CFG=1
M  V30 26 1 25 4
M  V30 27 1 26 4
M  V30 28 1 27 4
M  V30 29 1 28 6
M  V30 30 1 29 6
M  V30 31 1 30 7
M  V30 32 1 31 7
M  V30 33 1 32 8
M  V30 34 1 33 8
M  V30 35 1 9 34 CFG=1
M  V30 36 1 35 11
M  V30 37 1 36 12
M  V30 38 1 37 13
M  V30 39 1 38 17
M  V30 40 1 39 18
M  V30 41 1 40 18
M  V30 42 1 5 41 CFG=1
M  V30 END BOND
M  V30 END CTAB
M  END
>  <b_m_subgroup_collapsed>  (1202) 
0

>  <r_i_docking_score>  (1202) 
-7.3663214867248596

>  <s_m_subgroup_title>  (1202) 
glide-dock_SP_D22_pv

>  <s_m_subgroupid>  (1202) 
glide-dock_SP_D22_pv

>  <Molecule ChEMBL ID>  (1202) 
CHEMBL413483

>  <Standard Type>  (1202) 
Ki

>  <Standard Value>  (1202) 
98.0

>  <label>  (1202) 
1

$$$$
CHEMBL5201074
     RDKit          3D

  0  0  0  0  0  0  0  0  0  0999 V3000
M  V30 BEGIN CTAB
M  V30 COUNTS 45 46 0 0 1
M  V30 BEGIN ATOM
M  V30 1 C 11.656809 10.825048 -6.113472 0
M  V30 2 C 10.741343 9.712991 -5.573577 0 CFG=1
M  V30 3 N 10.117410 8.933603 -6.651583 0
M  V30 4 C 10.731316 8.478409 -7.755545 0
M  V30 5 O 11.943800 8.544385 -7.958784 0
M  V30 6 N 9.833792 7.909441 -8.724056 0 CHG=1
M  V30 7 C 10.182918 7.510770 -9.970448 0
M  V30 8 N 11.403182 7.718564 -10.504271 0
M  V30 9 N 9.246658 6.883389 -10.702812 0
M  V30 10 C 9.442508 6.267759 -12.024031 0
M  V30 11 C 8.650422 4.968077 -12.169294 0
M  V30 12 C 7.183674 5.208586 -12.540406 0
M  V30 13 C 6.471156 3.925431 -12.772177 0
M  V30 14 N 6.590810 3.156208 -13.846950 0
M  V30 15 C 5.834876 2.083767 -13.461895 0
M  V30 16 N 5.283530 2.167895 -12.255507 0
M  V30 17 N 5.686053 3.388127 -11.846877 0
M  V30 18 C 11.402504 8.903519 -4.464396 0
M  V30 19 C 11.565351 7.502625 -4.549181 0
M  V30 20 C 12.086004 6.789204 -3.455944 0
M  V30 21 C 12.486016 7.457689 -2.288586 0
M  V30 22 C 12.366445 8.853479 -2.210333 0
M  V30 23 C 11.814095 9.567388 -3.288513 0
M  V30 24 H 11.686006 11.673816 -5.446876 0
M  V30 25 H 12.676107 10.473518 -6.273681 0
M  V30 26 H 11.286070 11.223900 -7.046860 0
M  V30 27 H 9.912132 10.207586 -5.068522 0
M  V30 28 H 9.119365 8.794450 -6.569737 0
M  V30 29 H 12.103416 8.214336 -9.965064 0
M  V30 30 H 11.609595 7.435421 -11.450051 0
M  V30 31 H 8.278124 6.944709 -10.391811 0
M  V30 32 H 10.494823 6.034180 -12.175659 0
M  V30 33 H 9.157797 6.974813 -12.797008 0
M  V30 34 H 8.709208 4.385306 -11.248832 0
M  V30 35 H 9.120355 4.356863 -12.941339 0
M  V30 36 H 7.122719 5.803668 -13.446816 0
M  V30 37 H 6.674628 5.770563 -11.755704 0
M  V30 38 H 5.694795 1.214356 -14.087474 0
M  V30 39 H 5.480718 3.771731 -10.927090 0
M  V30 40 H 11.259151 6.950881 -5.424747 0
M  V30 41 H 12.184421 5.720848 -3.515711 0
M  V30 42 H 12.883793 6.896197 -1.456292 0
M  V30 43 H 12.671893 9.373125 -1.314180 0
M  V30 44 H 11.685961 10.633100 -3.190181 0
M  V30 45 H 8.847944 7.788490 -8.527446 0
M  V30 END ATOM
M  V30 BEGIN BOND
M  V30 1 1 2 1
M  V30 2 1 3 2
M  V30 3 1 4 3
M  V30 4 2 5 4
M  V30 5 1 6 4
M  V30 6 2 7 6
M  V30 7 1 8 7
M  V30 8 1 9 7
M  V30 9 1 10 9
M  V30 10 1 11 10
M  V30 11 1 12 11
M  V30 12 1 13 12
M  V30 13 2 14 13
M  V30 14 1 15 14
M  V30 15 2 16 15
M  V30 16 1 17 13
M  V30 17 1 17 16
M  V30 18 1 18 2
M  V30 19 2 19 18
M  V30 20 1 20 19
M  V30 21 2 21 20
M  V30 22 1 22 21
M  V30 23 1 23 18
M  V30 24 2 23 22
M  V30 25 1 24 1
M  V30 26 1 25 1
M  V30 27 1 26 1
M  V30 28 1 2 27 CFG=1
M  V30 29 1 28 3
M  V30 30 1 29 8
M  V30 31 1 30 8
M  V30 32 1 31 9
M  V30 33 1 32 10
M  V30 34 1 33 10
M  V30 35 1 34 11
M  V30 36 1 35 11
M  V30 37 1 36 12
M  V30 38 1 37 12
M  V30 39 1 38 15
M  V30 40 1 39 17
M  V30 41 1 40 19
M  V30 42 1 41 20
M  V30 43 1 42 21
M  V30 44 1 43 22
M  V30 45 1 44 23
M  V30 46 1 45 6
M  V30 END BOND
M  V30 END CTAB
M  END
>  <b_m_subgroup_collapsed>  (1203) 
0

>  <r_i_docking_score>  (1203) 
-7.3656153035810403

>  <s_m_subgroup_title>  (1203) 
glide-dock_SP_D22_pv

>  <s_m_subgroupid>  (1203) 
glide-dock_SP_D22_pv

>  <Molecule ChEMBL ID>  (1203) 
CHEMBL5201074

>  <Standard Type>  (1203) 
Ki

>  <Standard Value>  (1203) 
10000.0

>  <label>  (1203) 
0

$$$$
CHEMBL1085672
     RDKit          3D

  0  0  0  0  0  0  0  0  0  0999 V3000
M  V30 BEGIN CTAB
M  V30 COUNTS 41 43 0 0 1
M  V30 BEGIN ATOM
M  V30 1 O 11.202319 8.223440 -9.584589 0
M  V30 2 C 10.384082 7.461338 -9.071617 0
M  V30 3 N 9.575836 6.648605 -9.769302 0
M  V30 4 C 9.570319 6.559367 -11.237348 0
M  V30 5 C 8.711859 5.413109 -11.817566 0 CFG=2
M  V30 6 C 9.054317 5.075674 -13.277643 0
M  V30 7 C 8.243992 3.852645 -13.743103 0
M  V30 8 C 6.734927 4.061142 -13.514132 0
M  V30 9 C 6.424322 4.563418 -12.090897 0
M  V30 10 N 7.266425 5.727502 -11.740239 0 CHG=1
M  V30 11 C 8.716331 5.858832 -8.902991 0
M  V30 12 C 9.196596 6.227968 -7.511369 0
M  V30 13 N 10.169117 7.281373 -7.750751 0
M  V30 14 C 10.833566 7.947391 -6.672673 0
M  V30 15 C 11.257185 9.289687 -6.797984 0
M  V30 16 C 11.889523 9.947690 -5.729458 0
M  V30 17 C 12.122255 9.267908 -4.521223 0
M  V30 18 C 11.720204 7.926958 -4.384159 0
M  V30 19 Cl 12.077404 7.070803 -2.926856 0
M  V30 20 C 11.065073 7.275048 -5.447181 0
M  V30 21 H 9.247147 7.514701 -11.648572 0
M  V30 22 H 10.602017 6.426980 -11.562333 0
M  V30 23 H 8.913646 4.510826 -11.240911 0
M  V30 24 H 8.841352 5.928930 -13.919430 0
M  V30 25 H 10.121528 4.863482 -13.376100 0
M  V30 26 H 8.443933 3.651774 -14.797392 0
M  V30 27 H 8.585016 2.971711 -13.197777 0
M  V30 28 H 6.353556 4.772815 -14.242196 0
M  V30 29 H 6.199982 3.130163 -13.704451 0
M  V30 30 H 5.372480 4.837196 -12.000308 0
M  V30 31 H 6.601024 3.768708 -11.364409 0
M  V30 32 H 7.028934 6.046772 -10.804239 0
M  V30 33 H 7.686157 6.171270 -9.045540 0
M  V30 34 H 8.793301 4.782303 -9.066612 0
M  V30 35 H 9.680665 5.373696 -7.047253 0
M  V30 36 H 8.380614 6.572093 -6.872581 0
M  V30 37 H 11.091974 9.831192 -7.712555 0
M  V30 38 H 12.205970 10.971951 -5.847841 0
M  V30 39 H 12.626157 9.770934 -3.706045 0
M  V30 40 H 10.770205 6.246584 -5.316073 0
M  V30 41 H 7.057559 6.496875 -12.359523 0
M  V30 END ATOM
M  V30 BEGIN BOND
M  V30 1 2 2 1
M  V30 2 1 3 2
M  V30 3 1 4 3
M  V30 4 1 5 4
M  V30 5 1 6 5
M  V30 6 1 7 6
M  V30 7 1 8 7
M  V30 8 1 9 8
M  V30 9 1 10 5
M  V30 10 1 10 9
M  V30 11 1 11 3
M  V30 12 1 12 11
M  V30 13 1 13 2
M  V30 14 1 13 12
M  V30 15 1 14 13
M  V30 16 2 15 14
M  V30 17 1 16 15
M  V30 18 2 17 16
M  V30 19 1 18 17
M  V30 20 1 19 18
M  V30 21 1 20 14
M  V30 22 2 20 18
M  V30 23 1 21 4
M  V30 24 1 22 4
M  V30 25 1 5 23 CFG=1
M  V30 26 1 24 6
M  V30 27 1 25 6
M  V30 28 1 26 7
M  V30 29 1 27 7
M  V30 30 1 28 8
M  V30 31 1 29 8
M  V30 32 1 30 9
M  V30 33 1 31 9
M  V30 34 1 32 10
M  V30 35 1 33 11
M  V30 36 1 34 11
M  V30 37 1 35 12
M  V30 38 1 36 12
M  V30 39 1 37 15
M  V30 40 1 38 16
M  V30 41 1 39 17
M  V30 42 1 40 20
M  V30 43 1 41 10
M  V30 END BOND
M  V30 END CTAB
M  END
>  <b_m_subgroup_collapsed>  (1204) 
0

>  <r_i_docking_score>  (1204) 
-7.3646110144066004

>  <s_m_subgroup_title>  (1204) 
glide-dock_SP_D22_pv

>  <s_m_subgroupid>  (1204) 
glide-dock_SP_D22_pv

>  <Molecule ChEMBL ID>  (1204) 
CHEMBL1085672

>  <Standard Type>  (1204) 
Ki

>  <Standard Value>  (1204) 
79.43

>  <label>  (1204) 
1

$$$$
CHEMBL10289
     RDKit          3D

  0  0  0  0  0  0  0  0  0  0999 V3000
M  V30 BEGIN CTAB
M  V30 COUNTS 37 39 0 0 1
M  V30 BEGIN ATOM
M  V30 1 C 11.203440 6.972334 -12.324966 0
M  V30 2 C 10.993567 7.800031 -11.289705 0
M  V30 3 C 9.618836 8.194078 -10.762833 0
M  V30 4 N 9.286021 7.650702 -9.420324 0 CFG=1 CHG=1
M  V30 5 C 9.420245 6.190389 -9.253690 0
M  V30 6 C 10.068824 5.981733 -7.891511 0
M  V30 7 C 9.767543 7.255548 -7.094076 0 CFG=1
M  V30 8 C 10.711972 7.496385 -5.905202 0
M  V30 9 C 10.763649 6.572325 -4.855265 0
M  V30 10 C 11.598083 6.715996 -3.732860 0
M  V30 11 C 12.396181 7.854736 -3.630324 0
M  V30 12 C 12.381827 8.780940 -4.681776 0
M  V30 13 O 13.286022 9.772324 -4.646863 0
M  V30 14 C 11.557133 8.615420 -5.819669 0
M  V30 15 C 11.609065 9.599443 -6.962967 0
M  V30 16 C 11.185586 8.972325 -8.300207 0
M  V30 17 C 9.788100 8.334865 -8.191185 0 CFG=1
M  V30 18 H 10.382048 6.516121 -12.858322 0
M  V30 19 H 12.206078 6.738912 -12.655060 0
M  V30 20 H 11.854363 8.227845 -10.799684 0
M  V30 21 H 9.509529 9.277002 -10.749886 0
M  V30 22 H 8.861732 7.825785 -11.457225 0
M  V30 23 H 8.416511 5.761774 -9.267653 0
M  V30 24 H 9.990850 5.698193 -10.040792 0
M  V30 25 H 9.685812 5.070003 -7.446846 0
M  V30 26 H 11.146182 5.870331 -8.011741 0
M  V30 27 H 8.749633 7.183016 -6.704463 0
M  V30 28 H 10.071812 5.772325 -4.882969 0
M  V30 29 H 11.587921 5.981894 -2.940392 0
M  V30 30 H 13.045231 7.993795 -2.778485 0
M  V30 31 H 13.570453 10.081453 -5.497964 0
M  V30 32 H 10.976149 10.448798 -6.703709 0
M  V30 33 H 12.627299 9.969813 -7.046865 0
M  V30 34 H 11.208334 9.740982 -9.073052 0
M  V30 35 H 11.922217 8.216660 -8.574834 0
M  V30 36 H 9.083673 9.127855 -7.933478 0
M  V30 37 H 8.275845 7.772350 -9.377817 0
M  V30 END ATOM
M  V30 BEGIN BOND
M  V30 1 2 2 1
M  V30 2 1 3 2
M  V30 3 1 4 3
M  V30 4 1 5 4
M  V30 5 1 6 5
M  V30 6 1 7 6
M  V30 7 1 8 7
M  V30 8 2 9 8
M  V30 9 1 10 9
M  V30 10 2 11 10
M  V30 11 1 12 11
M  V30 12 1 13 12
M  V30 13 1 14 8
M  V30 14 2 14 12
M  V30 15 1 15 14
M  V30 16 1 16 15
M  V30 17 1 17 4
M  V30 18 1 17 7
M  V30 19 1 17 16
M  V30 20 1 18 1
M  V30 21 1 19 1
M  V30 22 1 20 2
M  V30 23 1 21 3
M  V30 24 1 22 3
M  V30 25 1 23 5
M  V30 26 1 24 5
M  V30 27 1 25 6
M  V30 28 1 26 6
M  V30 29 1 7 27 CFG=1
M  V30 30 1 28 9
M  V30 31 1 29 10
M  V30 32 1 30 11
M  V30 33 1 31 13
M  V30 34 1 32 15
M  V30 35 1 33 15
M  V30 36 1 34 16
M  V30 37 1 35 16
M  V30 38 1 17 36 CFG=1
M  V30 39 1 4 37 CFG=1
M  V30 END BOND
M  V30 END CTAB
M  END
>  <b_m_subgroup_collapsed>  (1205) 
0

>  <r_i_docking_score>  (1205) 
-7.3645711727727496

>  <s_m_subgroup_title>  (1205) 
glide-dock_SP_D22_pv

>  <s_m_subgroupid>  (1205) 
glide-dock_SP_D22_pv

>  <Molecule ChEMBL ID>  (1205) 
CHEMBL10289

>  <Standard Type>  (1205) 
Ki

>  <Standard Value>  (1205) 
75.0

>  <label>  (1205) 
1

$$$$
CHEMBL2325932
     RDKit          3D

  0  0  0  0  0  0  0  0  0  0999 V3000
M  V30 BEGIN CTAB
M  V30 COUNTS 54 58 0 0 1
M  V30 BEGIN ATOM
M  V30 1 C 9.408209 6.454158 -9.112904 0
M  V30 2 N 8.486655 6.167302 -10.232825 0 CFG=2 CHG=1
M  V30 3 C 8.300808 4.715792 -10.476991 0
M  V30 4 C 7.167650 4.478393 -11.496209 0
M  V30 5 C 7.437694 5.185000 -12.832046 0 CFG=2
M  V30 6 C 8.457000 4.453939 -13.658971 0
M  V30 7 C 9.678090 4.892803 -14.091936 0
M  V30 8 N 10.273724 3.947042 -14.915086 0
M  V30 9 C 11.462341 4.190617 -15.643878 0
M  V30 10 C 12.477443 4.998613 -15.085492 0
M  V30 11 C 13.588366 5.375742 -15.863495 0
M  V30 12 C 13.710720 4.924319 -17.190115 0
M  V30 13 F 14.788032 5.277914 -17.930124 0
M  V30 14 C 12.712905 4.100596 -17.745604 0
M  V30 15 C 11.587766 3.743716 -16.978567 0
M  V30 16 C 9.466596 2.812084 -14.953775 0
M  V30 17 C 9.597149 1.551114 -15.567702 0
M  V30 18 C 8.514984 0.649326 -15.546282 0
M  V30 19 C 7.289860 0.998718 -14.930120 0
M  V30 20 C 6.087013 0.147733 -15.051882 0
M  V30 21 C 5.078790 0.110807 -14.059774 0
M  V30 22 C 3.900190 -0.627087 -14.288315 0
M  V30 23 C 3.775219 -1.320141 -15.506820 0
M  V30 24 N 4.730019 -1.319271 -16.455009 0
M  V30 25 C 5.850923 -0.610282 -16.221664 0
M  V30 26 C 7.215234 2.233577 -14.250251 0
M  V30 27 C 8.286501 3.154265 -14.233232 0
M  V30 28 C 7.754061 6.671202 -12.550466 0
M  V30 29 C 8.836685 6.889039 -11.474478 0
M  V30 30 H 10.412444 6.086263 -9.329176 0
M  V30 31 H 9.466734 7.526875 -8.926702 0
M  V30 32 H 9.055549 5.982991 -8.194110 0
M  V30 33 H 8.076574 4.217164 -9.534335 0
M  V30 34 H 9.234649 4.280980 -10.839100 0
M  V30 35 H 6.254156 4.912906 -11.107076 0
M  V30 36 H 6.955390 3.412013 -11.623764 0
M  V30 37 H 6.511893 5.168029 -13.412499 0
M  V30 38 H 10.153240 5.847058 -13.930275 0
M  V30 39 H 12.404189 5.356739 -14.069736 0
M  V30 40 H 14.357211 6.005140 -15.439268 0
M  V30 41 H 12.796566 3.764224 -18.767971 0
M  V30 42 H 10.805072 3.157378 -17.437832 0
M  V30 43 H 10.509244 1.286655 -16.082584 0
M  V30 44 H 8.618550 -0.301716 -16.050274 0
M  V30 45 H 5.186445 0.665630 -13.139387 0
M  V30 46 H 3.094089 -0.643235 -13.569256 0
M  V30 47 H 2.885760 -1.885005 -15.732211 0
M  V30 48 H 6.565195 -0.612271 -17.030556 0
M  V30 49 H 6.295364 2.528196 -13.768877 0
M  V30 50 H 8.036846 7.196180 -13.447030 0
M  V30 51 H 6.827825 7.161164 -12.250417 0
M  V30 52 H 8.924428 7.956546 -11.265496 0
M  V30 53 H 9.813365 6.559777 -11.826734 0
M  V30 54 H 7.577325 6.553601 -9.969494 0
M  V30 END ATOM
M  V30 BEGIN BOND
M  V30 1 1 2 1
M  V30 2 1 3 2
M  V30 3 1 4 3
M  V30 4 1 5 4
M  V30 5 1 6 5
M  V30 6 2 7 6
M  V30 7 1 8 7
M  V30 8 1 9 8
M  V30 9 1 10 9
M  V30 10 2 11 10
M  V30 11 1 12 11
M  V30 12 1 13 12
M  V30 13 2 14 12
M  V30 14 2 15 9
M  V30 15 1 15 14
M  V30 16 1 16 8
M  V30 17 1 17 16
M  V30 18 2 18 17
M  V30 19 1 19 18
M  V30 20 1 20 19
M  V30 21 2 21 20
M  V30 22 1 22 21
M  V30 23 2 23 22
M  V30 24 1 24 23
M  V30 25 1 25 20
M  V30 26 2 25 24
M  V30 27 2 26 19
M  V30 28 1 27 6
M  V30 29 2 27 16
M  V30 30 1 27 26
M  V30 31 1 28 5
M  V30 32 1 29 2
M  V30 33 1 29 28
M  V30 34 1 30 1
M  V30 35 1 31 1
M  V30 36 1 32 1
M  V30 37 1 33 3
M  V30 38 1 34 3
M  V30 39 1 35 4
M  V30 40 1 36 4
M  V30 41 1 5 37 CFG=3
M  V30 42 1 38 7
M  V30 43 1 39 10
M  V30 44 1 40 11
M  V30 45 1 41 14
M  V30 46 1 42 15
M  V30 47 1 43 17
M  V30 48 1 44 18
M  V30 49 1 45 21
M  V30 50 1 46 22
M  V30 51 1 47 23
M  V30 52 1 48 25
M  V30 53 1 49 26
M  V30 54 1 50 28
M  V30 55 1 51 28
M  V30 56 1 52 29
M  V30 57 1 53 29
M  V30 58 1 2 54 CFG=1
M  V30 END BOND
M  V30 END CTAB
M  END
>  <b_m_subgroup_collapsed>  (1206) 
0

>  <r_i_docking_score>  (1206) 
-7.3610559492000602

>  <s_m_subgroup_title>  (1206) 
glide-dock_SP_D22_pv

>  <s_m_subgroupid>  (1206) 
glide-dock_SP_D22_pv

>  <Molecule ChEMBL ID>  (1206) 
CHEMBL2325932

>  <Standard Type>  (1206) 
Ki

>  <Standard Value>  (1206) 
76.0

>  <label>  (1206) 
1

$$$$
CHEMBL3765754
     RDKit          3D

  0  0  0  0  0  0  0  0  0  0999 V3000
M  V30 BEGIN CTAB
M  V30 COUNTS 53 56 0 0 1
M  V30 BEGIN ATOM
M  V30 1 C 9.874673 -0.271040 -15.530004 0
M  V30 2 C 10.697051 0.661941 -16.361565 0
M  V30 3 N 11.284922 0.233231 -17.543993 0
M  V30 4 C 11.953288 1.293932 -17.988363 0
M  V30 5 O 11.844430 2.387494 -17.190826 0
M  V30 6 C 11.046945 1.976008 -16.153791 0
M  V30 7 C 10.741343 2.952351 -15.112626 0
M  V30 8 N 11.680148 3.773130 -14.628059 0
M  V30 9 N 11.051207 4.566416 -13.696386 0
M  V30 10 C 9.778549 4.169399 -13.698097 0
M  V30 11 S 8.519560 4.861602 -12.678826 0
M  V30 12 C 9.447623 4.999001 -11.125682 0
M  V30 13 C 8.485660 5.088533 -9.941644 0
M  V30 14 C 9.155831 5.251737 -8.564790 0
M  V30 15 N 9.826774 6.528220 -8.302482 0
M  V30 16 C 8.907876 7.646602 -8.437320 0
M  V30 17 C 9.578134 8.980993 -8.143728 0
M  V30 18 O 10.055556 8.969352 -6.807830 0
M  V30 19 C 10.986629 7.923019 -6.539433 0 CFG=1
M  V30 20 C 11.437709 8.013197 -5.082636 0
M  V30 21 C 11.646260 9.289996 -4.516591 0
M  V30 22 C 12.087417 9.418860 -3.187959 0
M  V30 23 C 12.356755 8.274663 -2.419885 0
M  V30 24 F 12.838726 8.408797 -1.164739 0
M  V30 25 C 12.143707 6.996275 -2.966584 0
M  V30 26 C 11.686110 6.866364 -4.292336 0
M  V30 27 C 10.368467 6.555772 -6.941401 0
M  V30 28 N 9.521840 3.179263 -14.575028 0
M  V30 29 C 8.251078 2.532918 -14.856440 0
M  V30 30 H 10.073170 -0.138404 -14.466130 0
M  V30 31 H 8.808403 -0.120274 -15.695322 0
M  V30 32 H 10.086423 -1.310245 -15.779593 0
M  V30 33 H 12.535670 1.312404 -18.897614 0
M  V30 34 H 10.085923 4.123673 -11.007953 0
M  V30 35 H 10.086866 5.880484 -11.171338 0
M  V30 36 H 7.741906 5.863183 -10.117780 0
M  V30 37 H 7.901476 4.172760 -9.917552 0
M  V30 38 H 8.381571 5.095673 -7.813423 0
M  V30 39 H 9.869910 4.440235 -8.438324 0
M  V30 40 H 8.486685 7.696193 -9.439564 0
M  V30 41 H 8.086069 7.517063 -7.737463 0
M  V30 42 H 10.389497 9.188370 -8.843563 0
M  V30 43 H 8.839715 9.771962 -8.248126 0
M  V30 44 H 11.870651 8.097790 -7.155700 0
M  V30 45 H 11.465411 10.179664 -5.102255 0
M  V30 46 H 12.237952 10.397473 -2.756940 0
M  V30 47 H 12.339973 6.114324 -2.373824 0
M  V30 48 H 11.541286 5.872512 -4.688408 0
M  V30 49 H 9.572824 6.315594 -6.234323 0
M  V30 50 H 11.120352 5.772565 -6.848292 0
M  V30 51 H 7.421307 3.210828 -14.657423 0
M  V30 52 H 8.202004 2.235566 -15.904144 0
M  V30 53 H 8.141580 1.653068 -14.221146 0
M  V30 END ATOM
M  V30 BEGIN BOND
M  V30 1 1 2 1
M  V30 2 1 3 2
M  V30 3 2 4 3
M  V30 4 1 5 4
M  V30 5 2 6 2
M  V30 6 1 6 5
M  V30 7 1 7 6
M  V30 8 2 8 7
M  V30 9 1 9 8
M  V30 10 2 10 9
M  V30 11 1 11 10
M  V30 12 1 12 11
M  V30 13 1 13 12
M  V30 14 1 14 13
M  V30 15 1 15 14
M  V30 16 1 16 15
M  V30 17 1 17 16
M  V30 18 1 18 17
M  V30 19 1 19 18
M  V30 20 1 20 19
M  V30 21 1 21 20
M  V30 22 2 22 21
M  V30 23 1 23 22
M  V30 24 1 24 23
M  V30 25 2 25 23
M  V30 26 2 26 20
M  V30 27 1 26 25
M  V30 28 1 27 15
M  V30 29 1 27 19
M  V30 30 1 28 7
M  V30 31 1 28 10
M  V30 32 1 29 28
M  V30 33 1 30 1
M  V30 34 1 31 1
M  V30 35 1 32 1
M  V30 36 1 33 4
M  V30 37 1 34 12
M  V30 38 1 35 12
M  V30 39 1 36 13
M  V30 40 1 37 13
M  V30 41 1 38 14
M  V30 42 1 39 14
M  V30 43 1 40 16
M  V30 44 1 41 16
M  V30 45 1 42 17
M  V30 46 1 43 17
M  V30 47 1 19 44 CFG=3
M  V30 48 1 45 21
M  V30 49 1 46 22
M  V30 50 1 47 25
M  V30 51 1 48 26
M  V30 52 1 49 27
M  V30 53 1 50 27
M  V30 54 1 51 29
M  V30 55 1 52 29
M  V30 56 1 53 29
M  V30 END BOND
M  V30 END CTAB
M  END
>  <b_m_subgroup_collapsed>  (1207) 
0

>  <r_i_docking_score>  (1207) 
-7.3599172765204202

>  <s_m_subgroup_title>  (1207) 
glide-dock_SP_D22_pv

>  <s_m_subgroupid>  (1207) 
glide-dock_SP_D22_pv

>  <Molecule ChEMBL ID>  (1207) 
CHEMBL3765754

>  <Standard Type>  (1207) 
Ki

>  <Standard Value>  (1207) 
10000.0

>  <label>  (1207) 
0

$$$$
CHEMBL5751323
     RDKit          3D

  0  0  0  0  0  0  0  0  0  0999 V3000
M  V30 BEGIN CTAB
M  V30 COUNTS 53 56 0 0 1
M  V30 BEGIN ATOM
M  V30 1 C 9.874673 -0.271040 -15.530004 0
M  V30 2 C 10.697051 0.661941 -16.361565 0
M  V30 3 N 11.284922 0.233231 -17.543993 0
M  V30 4 C 11.953288 1.293932 -17.988363 0
M  V30 5 O 11.844430 2.387494 -17.190826 0
M  V30 6 C 11.046945 1.976008 -16.153791 0
M  V30 7 C 10.741343 2.952351 -15.112626 0
M  V30 8 N 11.680148 3.773130 -14.628059 0
M  V30 9 N 11.051207 4.566416 -13.696386 0
M  V30 10 C 9.778549 4.169399 -13.698097 0
M  V30 11 S 8.519560 4.861602 -12.678826 0
M  V30 12 C 9.447623 4.999001 -11.125682 0
M  V30 13 C 8.485660 5.088533 -9.941644 0
M  V30 14 C 9.155831 5.251737 -8.564790 0
M  V30 15 N 9.826774 6.528220 -8.302482 0
M  V30 16 C 8.907876 7.646602 -8.437320 0
M  V30 17 C 9.578134 8.980993 -8.143728 0
M  V30 18 O 10.055556 8.969352 -6.807830 0
M  V30 19 C 10.986629 7.923019 -6.539433 0 CFG=1
M  V30 20 C 11.437709 8.013197 -5.082636 0
M  V30 21 C 11.646260 9.289996 -4.516591 0
M  V30 22 C 12.087417 9.418860 -3.187959 0
M  V30 23 C 12.356755 8.274663 -2.419885 0
M  V30 24 F 12.838726 8.408797 -1.164739 0
M  V30 25 C 12.143707 6.996275 -2.966584 0
M  V30 26 C 11.686110 6.866364 -4.292336 0
M  V30 27 C 10.368467 6.555772 -6.941401 0
M  V30 28 N 9.521840 3.179263 -14.575028 0
M  V30 29 C 8.251078 2.532918 -14.856440 0
M  V30 30 H 10.073170 -0.138404 -14.466130 0
M  V30 31 H 8.808403 -0.120274 -15.695322 0
M  V30 32 H 10.086423 -1.310245 -15.779593 0
M  V30 33 H 12.535670 1.312404 -18.897614 0
M  V30 34 H 10.085923 4.123673 -11.007953 0
M  V30 35 H 10.086866 5.880484 -11.171338 0
M  V30 36 H 7.741906 5.863183 -10.117780 0
M  V30 37 H 7.901476 4.172760 -9.917552 0
M  V30 38 H 8.381571 5.095673 -7.813423 0
M  V30 39 H 9.869910 4.440235 -8.438324 0
M  V30 40 H 8.486685 7.696193 -9.439564 0
M  V30 41 H 8.086069 7.517063 -7.737463 0
M  V30 42 H 10.389497 9.188370 -8.843563 0
M  V30 43 H 8.839715 9.771962 -8.248126 0
M  V30 44 H 11.870651 8.097790 -7.155700 0
M  V30 45 H 11.465411 10.179664 -5.102255 0
M  V30 46 H 12.237952 10.397473 -2.756940 0
M  V30 47 H 12.339973 6.114324 -2.373824 0
M  V30 48 H 11.541286 5.872512 -4.688408 0
M  V30 49 H 9.572824 6.315594 -6.234323 0
M  V30 50 H 11.120352 5.772565 -6.848292 0
M  V30 51 H 7.421307 3.210828 -14.657423 0
M  V30 52 H 8.202004 2.235566 -15.904144 0
M  V30 53 H 8.141580 1.653068 -14.221146 0
M  V30 END ATOM
M  V30 BEGIN BOND
M  V30 1 1 2 1
M  V30 2 1 3 2
M  V30 3 2 4 3
M  V30 4 1 5 4
M  V30 5 2 6 2
M  V30 6 1 6 5
M  V30 7 1 7 6
M  V30 8 2 8 7
M  V30 9 1 9 8
M  V30 10 2 10 9
M  V30 11 1 11 10
M  V30 12 1 12 11
M  V30 13 1 13 12
M  V30 14 1 14 13
M  V30 15 1 15 14
M  V30 16 1 16 15
M  V30 17 1 17 16
M  V30 18 1 18 17
M  V30 19 1 19 18
M  V30 20 1 20 19
M  V30 21 1 21 20
M  V30 22 2 22 21
M  V30 23 1 23 22
M  V30 24 1 24 23
M  V30 25 2 25 23
M  V30 26 2 26 20
M  V30 27 1 26 25
M  V30 28 1 27 15
M  V30 29 1 27 19
M  V30 30 1 28 7
M  V30 31 1 28 10
M  V30 32 1 29 28
M  V30 33 1 30 1
M  V30 34 1 31 1
M  V30 35 1 32 1
M  V30 36 1 33 4
M  V30 37 1 34 12
M  V30 38 1 35 12
M  V30 39 1 36 13
M  V30 40 1 37 13
M  V30 41 1 38 14
M  V30 42 1 39 14
M  V30 43 1 40 16
M  V30 44 1 41 16
M  V30 45 1 42 17
M  V30 46 1 43 17
M  V30 47 1 19 44 CFG=3
M  V30 48 1 45 21
M  V30 49 1 46 22
M  V30 50 1 47 25
M  V30 51 1 48 26
M  V30 52 1 49 27
M  V30 53 1 50 27
M  V30 54 1 51 29
M  V30 55 1 52 29
M  V30 56 1 53 29
M  V30 END BOND
M  V30 END CTAB
M  END
>  <b_m_subgroup_collapsed>  (1208) 
0

>  <r_i_docking_score>  (1208) 
-7.3599172765204202

>  <s_m_subgroup_title>  (1208) 
glide-dock_SP_D22_pv

>  <s_m_subgroupid>  (1208) 
glide-dock_SP_D22_pv

>  <Molecule ChEMBL ID>  (1208) 
CHEMBL5751323

>  <Standard Type>  (1208) 
Ki

>  <Standard Value>  (1208) 
10000.0

>  <label>  (1208) 
0

$$$$
CHEMBL593394
     RDKit          3D

  0  0  0  0  0  0  0  0  0  0999 V3000
M  V30 BEGIN CTAB
M  V30 COUNTS 45 47 0 0 1
M  V30 BEGIN ATOM
M  V30 1 C 3.876243 -1.031903 -14.550766 0
M  V30 2 O 4.261867 -0.227561 -13.446983 0
M  V30 3 C 5.346188 0.583324 -13.663480 0
M  V30 4 C 6.485187 0.182093 -14.395050 0
M  V30 5 C 7.505489 1.111651 -14.667747 0
M  V30 6 C 7.386395 2.454405 -14.249882 0
M  V30 7 C 6.251831 2.854244 -13.494705 0
M  V30 8 C 5.276445 1.893604 -13.164268 0
M  V30 9 C 5.970670 4.295350 -13.093339 0
M  V30 10 C 6.511932 4.714270 -11.714628 0
M  V30 11 N 7.985294 4.871797 -11.586032 0 CFG=2 CHG=1
M  V30 12 C 8.432357 4.994655 -10.176456 0
M  V30 13 C 8.532489 5.978722 -12.396461 0
M  V30 14 C 9.983711 5.782865 -12.831419 0
M  V30 15 C 10.850547 6.883430 -12.646709 0
M  V30 16 C 12.085934 6.928446 -13.311313 0
M  V30 17 C 12.485935 5.851303 -14.120053 0
M  V30 18 C 11.699036 4.692101 -14.194148 0
M  V30 19 C 10.450550 4.637538 -13.543509 0
M  V30 20 C 9.664342 3.339305 -13.639623 0
M  V30 21 C 8.493959 3.423600 -14.619986 0
M  V30 22 H 2.889488 -1.449267 -14.358164 0
M  V30 23 H 4.570160 -1.856521 -14.707320 0
M  V30 24 H 3.810671 -0.446307 -15.469327 0
M  V30 25 H 6.584317 -0.829050 -14.763057 0
M  V30 26 H 8.370175 0.794817 -15.232867 0
M  V30 27 H 4.396256 2.187602 -12.612252 0
M  V30 28 H 6.247784 4.972313 -13.887095 0
M  V30 29 H 4.885896 4.403855 -13.055155 0
M  V30 30 H 6.027782 5.643745 -11.410514 0
M  V30 31 H 6.197085 3.917549 -11.046941 0
M  V30 32 H 8.063622 5.918406 -9.726886 0
M  V30 33 H 9.522022 5.003210 -10.117037 0
M  V30 34 H 8.082784 4.171964 -9.558655 0
M  V30 35 H 7.958696 6.144553 -13.303615 0
M  V30 36 H 8.419845 6.912909 -11.841451 0
M  V30 37 H 10.528514 7.750806 -12.087999 0
M  V30 38 H 12.722231 7.796273 -13.221211 0
M  V30 39 H 13.430133 5.893896 -14.644053 0
M  V30 40 H 12.054904 3.849567 -14.769655 0
M  V30 41 H 10.321782 2.521632 -13.939129 0
M  V30 42 H 9.334064 3.046353 -12.646539 0
M  V30 43 H 8.846409 3.221827 -15.632480 0
M  V30 44 H 8.112501 4.435180 -14.654942 0
M  V30 45 H 8.383579 4.019539 -11.950332 0
M  V30 END ATOM
M  V30 BEGIN BOND
M  V30 1 1 2 1
M  V30 2 1 3 2
M  V30 3 1 4 3
M  V30 4 2 5 4
M  V30 5 1 6 5
M  V30 6 2 7 6
M  V30 7 2 8 3
M  V30 8 1 8 7
M  V30 9 1 9 7
M  V30 10 1 10 9
M  V30 11 1 11 10
M  V30 12 1 12 11
M  V30 13 1 13 11
M  V30 14 1 14 13
M  V30 15 2 15 14
M  V30 16 1 16 15
M  V30 17 2 17 16
M  V30 18 1 18 17
M  V30 19 1 19 14
M  V30 20 2 19 18
M  V30 21 1 20 19
M  V30 22 1 21 6
M  V30 23 1 21 20
M  V30 24 1 22 1
M  V30 25 1 23 1
M  V30 26 1 24 1
M  V30 27 1 25 4
M  V30 28 1 26 5
M  V30 29 1 27 8
M  V30 30 1 28 9
M  V30 31 1 29 9
M  V30 32 1 30 10
M  V30 33 1 31 10
M  V30 34 1 32 12
M  V30 35 1 33 12
M  V30 36 1 34 12
M  V30 37 1 35 13
M  V30 38 1 36 13
M  V30 39 1 37 15
M  V30 40 1 38 16
M  V30 41 1 39 17
M  V30 42 1 40 18
M  V30 43 1 41 20
M  V30 44 1 42 20
M  V30 45 1 43 21
M  V30 46 1 44 21
M  V30 47 1 11 45 CFG=3
M  V30 END BOND
M  V30 END CTAB
M  END
>  <b_m_subgroup_collapsed>  (1209) 
0

>  <r_i_docking_score>  (1209) 
-7.35955421445514

>  <s_m_subgroup_title>  (1209) 
glide-dock_SP_D22_pv

>  <s_m_subgroupid>  (1209) 
glide-dock_SP_D22_pv

>  <Molecule ChEMBL ID>  (1209) 
CHEMBL593394

>  <Standard Type>  (1209) 
Ki

>  <Standard Value>  (1209) 
10000.0

>  <label>  (1209) 
0

$$$$
CHEMBL381912
     RDKit          3D

  0  0  0  0  0  0  0  0  0  0999 V3000
M  V30 BEGIN CTAB
M  V30 COUNTS 46 50 0 0 1
M  V30 BEGIN ATOM
M  V30 1 C 6.040550 3.181491 -13.260038 0
M  V30 2 C 7.311854 3.069708 -13.847012 0
M  V30 3 C 8.312207 4.012133 -13.541617 0
M  V30 4 C 8.045623 5.101382 -12.670911 0
M  V30 5 C 9.095449 6.171365 -12.350606 0 CFG=2
M  V30 6 C 10.490148 5.852135 -12.931420 0
M  V30 7 C 11.488104 6.991618 -12.727965 0
M  V30 8 C 11.462993 7.578300 -11.308526 0
M  V30 9 C 10.062340 7.721655 -10.658399 0 CFG=2
M  V30 10 C 10.262081 7.940886 -9.191051 0
M  V30 11 N 10.945777 9.009150 -8.645284 0
M  V30 12 C 11.115857 8.835222 -7.286558 0
M  V30 13 C 11.748343 9.621402 -6.305385 0
M  V30 14 C 11.834549 9.142778 -4.986006 0
M  V30 15 C 11.288491 7.885659 -4.666144 0
M  V30 16 C 10.621630 7.122637 -5.647378 0
M  V30 17 C 10.515823 7.576269 -6.982093 0
M  V30 18 C 9.942735 7.060216 -8.199029 0
M  V30 19 C 9.207978 5.792617 -8.497848 0
M  V30 20 C 9.443389 5.391654 -9.969249 0
M  V30 21 N 9.178975 6.531563 -10.900244 0 CFG=2 CHG=1
M  V30 22 C 6.754926 5.214472 -12.115950 0
M  V30 23 C 5.772903 4.248037 -12.386686 0
M  V30 24 H 5.277873 2.445470 -13.467796 0
M  V30 25 H 7.528223 2.247162 -14.511376 0
M  V30 26 H 9.275987 3.868786 -14.004780 0
M  V30 27 H 8.720576 7.064660 -12.848833 0
M  V30 28 H 10.879963 4.921950 -12.518626 0
M  V30 29 H 10.419770 5.695930 -14.009042 0
M  V30 30 H 12.493732 6.647290 -12.968282 0
M  V30 31 H 11.284817 7.772532 -13.452961 0
M  V30 32 H 12.092646 6.972386 -10.663432 0
M  V30 33 H 11.965687 8.546225 -11.311171 0
M  V30 34 H 9.558908 8.587801 -11.089680 0
M  V30 35 H 11.321325 9.768207 -9.194868 0
M  V30 36 H 12.189837 10.571787 -6.564091 0
M  V30 37 H 12.334611 9.725854 -4.225928 0
M  V30 38 H 11.363670 7.509827 -3.657053 0
M  V30 39 H 10.189149 6.172457 -5.375412 0
M  V30 40 H 9.538182 4.988230 -7.843547 0
M  V30 41 H 8.139946 5.928155 -8.315317 0
M  V30 42 H 10.482900 5.081336 -10.083091 0
M  V30 43 H 8.815246 4.532934 -10.206426 0
M  V30 44 H 6.509240 6.027754 -11.447813 0
M  V30 45 H 4.817618 4.327898 -11.904139 0
M  V30 46 H 8.247690 6.850323 -10.647247 0
M  V30 END ATOM
M  V30 BEGIN BOND
M  V30 1 2 2 1
M  V30 2 1 3 2
M  V30 3 2 4 3
M  V30 4 1 5 4
M  V30 5 1 6 5
M  V30 6 1 7 6
M  V30 7 1 8 7
M  V30 8 1 9 8
M  V30 9 1 10 9
M  V30 10 1 11 10
M  V30 11 1 12 11
M  V30 12 2 13 12
M  V30 13 1 14 13
M  V30 14 2 15 14
M  V30 15 1 16 15
M  V30 16 1 17 12
M  V30 17 2 17 16
M  V30 18 2 18 10
M  V30 19 1 18 17
M  V30 20 1 19 18
M  V30 21 1 20 19
M  V30 22 1 21 5
M  V30 23 1 21 9
M  V30 24 1 21 20
M  V30 25 1 22 4
M  V30 26 1 23 1
M  V30 27 2 23 22
M  V30 28 1 24 1
M  V30 29 1 25 2
M  V30 30 1 26 3
M  V30 31 1 5 27 CFG=3
M  V30 32 1 28 6
M  V30 33 1 29 6
M  V30 34 1 30 7
M  V30 35 1 31 7
M  V30 36 1 32 8
M  V30 37 1 33 8
M  V30 38 1 9 34 CFG=3
M  V30 39 1 35 11
M  V30 40 1 36 13
M  V30 41 1 37 14
M  V30 42 1 38 15
M  V30 43 1 39 16
M  V30 44 1 40 19
M  V30 45 1 41 19
M  V30 46 1 42 20
M  V30 47 1 43 20
M  V30 48 1 44 22
M  V30 49 1 45 23
M  V30 50 1 21 46 CFG=1
M  V30 END BOND
M  V30 END CTAB
M  END
>  <b_m_subgroup_collapsed>  (1210) 
0

>  <r_i_docking_score>  (1210) 
-7.3592855373033403

>  <s_m_subgroup_title>  (1210) 
glide-dock_SP_D22_pv

>  <s_m_subgroupid>  (1210) 
glide-dock_SP_D22_pv

>  <Molecule ChEMBL ID>  (1210) 
CHEMBL381912

>  <Standard Type>  (1210) 
Ki

>  <Standard Value>  (1210) 
10000.0

>  <label>  (1210) 
0

$$$$
CHEMBL382773
     RDKit          3D

  0  0  0  0  0  0  0  0  0  0999 V3000
M  V30 BEGIN CTAB
M  V30 COUNTS 64 66 0 0 1
M  V30 BEGIN ATOM
M  V30 1 C 12.228470 7.956832 -2.364122 0
M  V30 2 C 11.796600 8.079968 -3.808734 0
M  V30 3 C 11.372521 6.914986 -4.557974 0
M  V30 4 C 10.886969 7.076131 -5.796208 0
M  V30 5 N 10.810996 8.340815 -6.409810 0
M  V30 6 C 10.174548 8.370612 -7.739451 0
M  V30 7 C 11.113611 7.828521 -8.840373 0
M  V30 8 C 10.427209 7.578796 -10.202415 0
M  V30 9 C 9.446173 6.385400 -10.182469 0
M  V30 10 N 8.921565 6.039337 -11.508554 0
M  V30 11 C 7.714049 5.220525 -11.327898 0
M  V30 12 C 7.077631 4.852913 -12.683515 0
M  V30 13 N 8.049706 4.158857 -13.525349 0
M  V30 14 C 7.773422 2.972223 -14.245472 0
M  V30 15 C 6.657465 2.156190 -13.953943 0
M  V30 16 C 6.567385 0.934771 -14.652553 0
M  V30 17 C 5.494630 -0.099049 -14.343365 0
M  V30 18 F 4.829878 -0.430698 -15.451253 0
M  V30 19 F 6.085562 -1.184279 -13.846900 0
M  V30 20 F 4.613631 0.355489 -13.447887 0
M  V30 21 N 7.466886 0.596641 -15.598494 0
M  V30 22 C 8.453100 1.453991 -15.852022 0
M  V30 23 C 9.560511 0.977730 -16.804827 0
M  V30 24 C 10.637850 0.237071 -15.995218 0
M  V30 25 C 8.995062 0.035319 -17.893454 0
M  V30 26 C 10.189627 2.173450 -17.553549 0
M  V30 27 N 8.658183 2.596678 -15.196379 0
M  V30 28 C 9.317305 4.876914 -13.669605 0
M  V30 29 C 9.884584 5.243323 -12.281348 0
M  V30 30 C 11.282308 9.465216 -5.789046 0
M  V30 31 O 11.288267 10.570878 -6.324506 0
M  V30 32 C 11.752117 9.286733 -4.410714 0
M  V30 33 H 13.289339 8.174251 -2.274286 0
M  V30 34 H 11.690455 8.667905 -1.739950 0
M  V30 35 H 12.047217 6.951236 -1.979134 0
M  V30 36 H 11.423910 5.928722 -4.115994 0
M  V30 37 H 10.527791 6.249045 -6.397826 0
M  V30 38 H 9.840095 9.373068 -8.012569 0
M  V30 39 H 9.261592 7.770498 -7.686768 0
M  V30 40 H 11.580276 6.899501 -8.510794 0
M  V30 41 H 11.932756 8.537564 -8.983196 0
M  V30 42 H 11.208873 7.404054 -10.944375 0
M  V30 43 H 9.896343 8.475343 -10.525975 0
M  V30 44 H 8.606921 6.657504 -9.541136 0
M  V30 45 H 9.904742 5.503369 -9.730346 0
M  V30 46 H 6.986657 5.771403 -10.736102 0
M  V30 47 H 7.957460 4.317522 -10.764293 0
M  V30 48 H 6.753146 5.764346 -13.187652 0
M  V30 49 H 6.177456 4.273612 -12.494161 0
M  V30 50 H 5.941399 2.389921 -13.180444 0
M  V30 51 H 11.085535 0.888796 -15.244601 0
M  V30 52 H 10.220359 -0.625935 -15.474811 0
M  V30 53 H 11.436488 -0.116437 -16.647038 0
M  V30 54 H 8.205384 0.520759 -18.468788 0
M  V30 55 H 9.772085 -0.270704 -18.594421 0
M  V30 56 H 8.577963 -0.876781 -17.463209 0
M  V30 57 H 10.675261 2.870917 -16.869867 0
M  V30 58 H 10.950019 1.841193 -18.261383 0
M  V30 59 H 9.437007 2.729575 -18.115116 0
M  V30 60 H 10.071065 4.293302 -14.197115 0
M  V30 61 H 9.148190 5.772068 -14.264571 0
M  V30 62 H 10.811831 5.798255 -12.415601 0
M  V30 63 H 10.126178 4.331869 -11.733506 0
M  V30 64 H 12.044312 10.165968 -3.855773 0
M  V30 END ATOM
M  V30 BEGIN BOND
M  V30 1 1 2 1
M  V30 2 1 3 2
M  V30 3 2 4 3
M  V30 4 1 5 4
M  V30 5 1 6 5
M  V30 6 1 7 6
M  V30 7 1 8 7
M  V30 8 1 9 8
M  V30 9 1 10 9
M  V30 10 1 11 10
M  V30 11 1 12 11
M  V30 12 1 13 12
M  V30 13 1 14 13
M  V30 14 2 15 14
M  V30 15 1 16 15
M  V30 16 1 17 16
M  V30 17 1 18 17
M  V30 18 1 19 17
M  V30 19 1 20 17
M  V30 20 2 21 16
M  V30 21 1 22 21
M  V30 22 1 23 22
M  V30 23 1 24 23
M  V30 24 1 25 23
M  V30 25 1 26 23
M  V30 26 1 27 14
M  V30 27 2 27 22
M  V30 28 1 28 13
M  V30 29 1 29 10
M  V30 30 1 29 28
M  V30 31 1 30 5
M  V30 32 2 31 30
M  V30 33 2 32 2
M  V30 34 1 32 30
M  V30 35 1 33 1
M  V30 36 1 34 1
M  V30 37 1 35 1
M  V30 38 1 36 3
M  V30 39 1 37 4
M  V30 40 1 38 6
M  V30 41 1 39 6
M  V30 42 1 40 7
M  V30 43 1 41 7
M  V30 44 1 42 8
M  V30 45 1 43 8
M  V30 46 1 44 9
M  V30 47 1 45 9
M  V30 48 1 46 11
M  V30 49 1 47 11
M  V30 50 1 48 12
M  V30 51 1 49 12
M  V30 52 1 50 15
M  V30 53 1 51 24
M  V30 54 1 52 24
M  V30 55 1 53 24
M  V30 56 1 54 25
M  V30 57 1 55 25
M  V30 58 1 56 25
M  V30 59 1 57 26
M  V30 60 1 58 26
M  V30 61 1 59 26
M  V30 62 1 60 28
M  V30 63 1 61 28
M  V30 64 1 62 29
M  V30 65 1 63 29
M  V30 66 1 64 32
M  V30 END BOND
M  V30 END CTAB
M  END
>  <b_m_subgroup_collapsed>  (1211) 
0

>  <r_i_docking_score>  (1211) 
-7.3573799766935597

>  <s_m_subgroup_title>  (1211) 
glide-dock_SP_D22_pv

>  <s_m_subgroupid>  (1211) 
glide-dock_SP_D22_pv

>  <Molecule ChEMBL ID>  (1211) 
CHEMBL382773

>  <Standard Type>  (1211) 
Ki

>  <Standard Value>  (1211) 
62.6

>  <label>  (1211) 
1

$$$$
CHEMBL2159472
     RDKit          3D

  0  0  0  0  0  0  0  0  0  0999 V3000
M  V30 BEGIN CTAB
M  V30 COUNTS 54 57 0 0 1
M  V30 BEGIN ATOM
M  V30 1 O 10.886244 10.878625 -5.446359 0
M  V30 2 S 11.351276 9.546716 -5.850022 0
M  V30 3 O 12.485867 9.372341 -6.764629 0
M  V30 4 N 10.018409 8.694847 -6.523544 0
M  V30 5 C 10.252394 7.561537 -7.420100 0 CFG=1
M  V30 6 C 9.083252 6.582036 -7.347212 0
M  V30 7 C 8.932281 6.086868 -8.775480 0
M  V30 8 N 9.280789 7.250906 -9.616638 0 CFG=2 CHG=1
M  V30 9 C 9.577731 6.930271 -11.033665 0
M  V30 10 C 8.317804 6.480895 -11.798278 0
M  V30 11 O 8.727666 5.711310 -12.921853 0
M  V30 12 C 7.958759 4.617424 -13.260930 0
M  V30 13 C 6.573723 4.533822 -12.971141 0
M  V30 14 C 5.845240 3.377786 -13.295726 0
M  V30 15 C 6.485834 2.300696 -13.930636 0
M  V30 16 C 7.855148 2.375363 -14.254604 0
M  V30 17 C 8.593685 3.542383 -13.928334 0
M  V30 18 C 10.082782 3.639731 -14.245889 0
M  V30 19 C 10.569571 2.609428 -15.274120 0
M  V30 20 C 10.032528 1.212893 -14.955658 0
M  V30 21 C 8.497966 1.191040 -14.966307 0
M  V30 22 C 10.340211 7.993494 -8.898548 0
M  V30 23 C 11.751906 8.680389 -4.353156 0
M  V30 24 C 12.086022 9.240500 -3.148766 0
M  V30 25 C 12.310890 8.265894 -2.133610 0
M  V30 26 C 12.121135 6.982165 -2.575935 0
M  V30 27 S 11.686059 6.946003 -4.258528 0
M  V30 28 H 9.249434 9.304720 -6.801901 0
M  V30 29 H 11.172301 7.046978 -7.138774 0
M  V30 30 H 9.263368 5.772384 -6.645480 0
M  V30 31 H 8.163809 7.086779 -7.043257 0
M  V30 32 H 9.628332 5.266537 -8.960286 0
M  V30 33 H 7.921146 5.725746 -8.958613 0
M  V30 34 H 10.005213 7.801257 -11.532287 0
M  V30 35 H 10.338543 6.150000 -11.065763 0
M  V30 36 H 7.687580 5.891969 -11.133349 0
M  V30 37 H 7.730439 7.337864 -12.131189 0
M  V30 38 H 6.048484 5.348081 -12.493807 0
M  V30 39 H 4.793205 3.318449 -13.058348 0
M  V30 40 H 5.917987 1.415682 -14.179749 0
M  V30 41 H 10.320219 4.642704 -14.602225 0
M  V30 42 H 10.625854 3.503816 -13.310280 0
M  V30 43 H 10.227944 2.900362 -16.268570 0
M  V30 44 H 11.659514 2.602806 -15.310769 0
M  V30 45 H 10.423478 0.476507 -15.658449 0
M  V30 46 H 10.393194 0.916888 -13.971622 0
M  V30 47 H 8.142258 0.260163 -14.522247 0
M  V30 48 H 8.144893 1.197745 -15.998121 0
M  V30 49 H 10.205624 9.067202 -9.039844 0
M  V30 50 H 11.323982 7.733552 -9.294669 0
M  V30 51 H 12.169332 10.300684 -2.961398 0
M  V30 52 H 12.582834 8.541943 -1.125078 0
M  V30 53 H 12.205291 6.056580 -2.022641 0
M  V30 54 H 8.436639 7.819552 -9.616781 0
M  V30 END ATOM
M  V30 BEGIN BOND
M  V30 1 2 2 1
M  V30 2 2 3 2
M  V30 3 1 4 2
M  V30 4 1 5 4
M  V30 5 1 6 5
M  V30 6 1 7 6
M  V30 7 1 8 7
M  V30 8 1 9 8
M  V30 9 1 10 9
M  V30 10 1 11 10
M  V30 11 1 12 11
M  V30 12 2 13 12
M  V30 13 1 14 13
M  V30 14 2 15 14
M  V30 15 1 16 15
M  V30 16 1 17 12
M  V30 17 2 17 16
M  V30 18 1 18 17
M  V30 19 1 19 18
M  V30 20 1 20 19
M  V30 21 1 21 16
M  V30 22 1 21 20
M  V30 23 1 22 5
M  V30 24 1 22 8
M  V30 25 1 23 2
M  V30 26 2 24 23
M  V30 27 1 25 24
M  V30 28 2 26 25
M  V30 29 1 27 23
M  V30 30 1 27 26
M  V30 31 1 28 4
M  V30 32 1 5 29 CFG=1
M  V30 33 1 30 6
M  V30 34 1 31 6
M  V30 35 1 32 7
M  V30 36 1 33 7
M  V30 37 1 34 9
M  V30 38 1 35 9
M  V30 39 1 36 10
M  V30 40 1 37 10
M  V30 41 1 38 13
M  V30 42 1 39 14
M  V30 43 1 40 15
M  V30 44 1 41 18
M  V30 45 1 42 18
M  V30 46 1 43 19
M  V30 47 1 44 19
M  V30 48 1 45 20
M  V30 49 1 46 20
M  V30 50 1 47 21
M  V30 51 1 48 21
M  V30 52 1 49 22
M  V30 53 1 50 22
M  V30 54 1 51 24
M  V30 55 1 52 25
M  V30 56 1 53 26
M  V30 57 1 8 54 CFG=3
M  V30 END BOND
M  V30 END CTAB
M  END
>  <b_m_subgroup_collapsed>  (1212) 
0

>  <r_i_docking_score>  (1212) 
-7.3563136278274204

>  <s_m_subgroup_title>  (1212) 
glide-dock_SP_D22_pv

>  <s_m_subgroupid>  (1212) 
glide-dock_SP_D22_pv

>  <Molecule ChEMBL ID>  (1212) 
CHEMBL2159472

>  <Standard Type>  (1212) 
Ki

>  <Standard Value>  (1212) 
72.0

>  <label>  (1212) 
1

$$$$
CHEMBL5722983
     RDKit          3D

  0  0  0  0  0  0  0  0  0  0999 V3000
M  V30 BEGIN CTAB
M  V30 COUNTS 47 50 0 0 1
M  V30 BEGIN ATOM
M  V30 1 C 12.520162 8.970195 -1.415001 0
M  V30 2 C 12.086524 8.448554 -2.760895 0
M  V30 3 C 11.856904 7.071277 -2.934182 0
M  V30 4 C 11.441121 6.589759 -4.186777 0
M  V30 5 C 11.287086 7.467811 -5.272402 0
M  V30 6 N 10.953498 6.967334 -6.530684 0
M  V30 7 C 10.980055 7.760370 -7.662840 0
M  V30 8 C 10.710894 7.028595 -8.956117 0
M  V30 9 N 9.655154 7.687444 -9.709233 0
M  V30 10 C 9.348313 6.971489 -10.937134 0
M  V30 11 C 8.579485 5.671722 -10.647832 0
M  V30 12 C 8.190403 4.951853 -11.888029 0
M  V30 13 N 9.000957 4.172326 -12.595211 0
M  V30 14 C 8.114057 3.704878 -13.521624 0
M  V30 15 C 8.492224 2.619326 -14.453265 0
M  V30 16 C 7.528584 1.940643 -15.231557 0
M  V30 17 C 7.924135 0.875999 -16.063812 0
M  V30 18 C 9.283208 0.517388 -16.091696 0
M  V30 19 N 10.224892 1.154486 -15.370616 0
M  V30 20 C 9.830986 2.174135 -14.575849 0
M  V30 21 N 6.866323 4.169755 -13.447731 0
M  V30 22 N 6.949421 4.992032 -12.377315 0
M  V30 23 C 11.228211 9.082804 -7.598405 0
M  V30 24 C 11.493937 9.746161 -6.305665 0
M  V30 25 O 11.685989 10.959529 -6.245643 0
M  V30 26 C 11.551396 8.849465 -5.112924 0
M  V30 27 C 11.916542 9.336299 -3.840246 0
M  V30 28 H 11.859706 8.572584 -0.646845 0
M  V30 29 H 13.538796 8.654386 -1.191020 0
M  V30 30 H 12.485536 10.056221 -1.366959 0
M  V30 31 H 11.984179 6.383909 -2.109931 0
M  V30 32 H 11.257496 5.540936 -4.319493 0
M  V30 33 H 10.752434 5.979665 -6.615875 0
M  V30 34 H 10.455356 5.993851 -8.730114 0
M  V30 35 H 11.627316 7.014556 -9.549551 0
M  V30 36 H 8.800917 7.749537 -9.164131 0
M  V30 37 H 10.259952 6.772368 -11.502948 0
M  V30 38 H 8.726371 7.623422 -11.552091 0
M  V30 39 H 7.686020 5.871496 -10.056956 0
M  V30 40 H 9.179939 4.978873 -10.060975 0
M  V30 41 H 6.486079 2.217151 -15.183912 0
M  V30 42 H 7.198772 0.336252 -16.652952 0
M  V30 43 H 9.620795 -0.300064 -16.710878 0
M  V30 44 H 10.622879 2.636264 -14.005189 0
M  V30 45 H 6.166202 5.511885 -12.001659 0
M  V30 46 H 11.240554 9.684729 -8.496587 0
M  V30 47 H 12.085711 10.385554 -3.679209 0
M  V30 END ATOM
M  V30 BEGIN BOND
M  V30 1 1 2 1
M  V30 2 2 3 2
M  V30 3 1 4 3
M  V30 4 2 5 4
M  V30 5 1 6 5
M  V30 6 1 7 6
M  V30 7 1 8 7
M  V30 8 1 9 8
M  V30 9 1 10 9
M  V30 10 1 11 10
M  V30 11 1 12 11
M  V30 12 2 13 12
M  V30 13 1 14 13
M  V30 14 1 15 14
M  V30 15 2 16 15
M  V30 16 1 17 16
M  V30 17 2 18 17
M  V30 18 1 19 18
M  V30 19 1 20 15
M  V30 20 2 20 19
M  V30 21 2 21 14
M  V30 22 1 22 12
M  V30 23 1 22 21
M  V30 24 2 23 7
M  V30 25 1 24 23
M  V30 26 2 25 24
M  V30 27 1 26 5
M  V30 28 1 26 24
M  V30 29 1 27 2
M  V30 30 2 27 26
M  V30 31 1 28 1
M  V30 32 1 29 1
M  V30 33 1 30 1
M  V30 34 1 31 3
M  V30 35 1 32 4
M  V30 36 1 33 6
M  V30 37 1 34 8
M  V30 38 1 35 8
M  V30 39 1 36 9
M  V30 40 1 37 10
M  V30 41 1 38 10
M  V30 42 1 39 11
M  V30 43 1 40 11
M  V30 44 1 41 16
M  V30 45 1 42 17
M  V30 46 1 43 18
M  V30 47 1 44 20
M  V30 48 1 45 22
M  V30 49 1 46 23
M  V30 50 1 47 27
M  V30 END BOND
M  V30 END CTAB
M  END
>  <b_m_subgroup_collapsed>  (1213) 
0

>  <r_i_docking_score>  (1213) 
-7.3546491927094104

>  <s_m_subgroup_title>  (1213) 
glide-dock_SP_D22_pv

>  <s_m_subgroupid>  (1213) 
glide-dock_SP_D22_pv

>  <Molecule ChEMBL ID>  (1213) 
CHEMBL5722983

>  <Standard Type>  (1213) 
Ki

>  <Standard Value>  (1213) 
10000.0

>  <label>  (1213) 
0

$$$$
CHEMBL420016
     RDKit          3D

  0  0  0  0  0  0  0  0  0  0999 V3000
M  V30 BEGIN CTAB
M  V30 COUNTS 54 58 0 0 1
M  V30 BEGIN ATOM
M  V30 1 N 8.885939 4.803274 -8.248591 0
M  V30 2 C 9.419538 5.773613 -7.915249 0
M  V30 3 C 10.094911 7.002567 -7.517783 0
M  V30 4 C 10.223901 7.280422 -6.141349 0
M  V30 5 C 10.886064 8.442150 -5.703293 0
M  V30 6 C 11.406824 9.343196 -6.645663 0
M  V30 7 C 11.282697 9.063795 -8.018516 0
M  V30 8 C 10.642642 7.895039 -8.481771 0
M  V30 9 C 10.633892 7.622224 -9.935762 0
M  V30 10 C 11.820779 7.772118 -10.686828 0
M  V30 11 C 11.868938 7.372295 -12.033924 0
M  V30 12 C 10.727032 6.828279 -12.646798 0
M  V30 13 C 9.510639 6.726310 -11.934773 0
M  V30 14 C 8.218396 6.229536 -12.581709 0
M  V30 15 N 8.094702 4.753740 -12.745594 0 CHG=1
M  V30 16 C 6.676682 4.385355 -13.042080 0
M  V30 17 C 6.444156 2.919546 -13.451040 0
M  V30 18 N 7.478232 2.425313 -14.353737 0
M  V30 19 C 7.190995 1.400757 -15.287676 0
M  V30 20 C 7.962469 1.283287 -16.476574 0
M  V30 21 C 7.662511 0.318982 -17.471529 0
M  V30 22 C 6.568151 -0.558001 -17.318859 0
M  V30 23 C 5.822091 -0.436237 -16.139973 0
M  V30 24 N 4.689171 -1.121137 -15.729081 0
M  V30 25 C 4.271168 -0.618587 -14.507805 0
M  V30 26 O 3.290013 -0.951532 -13.846828 0
M  V30 27 O 5.181830 0.348344 -14.153324 0
M  V30 28 C 6.114620 0.483837 -15.149214 0
M  V30 29 C 8.865929 2.709892 -13.990245 0
M  V30 30 C 9.056052 4.210321 -13.744781 0
M  V30 31 C 9.473690 7.163942 -10.600018 0
M  V30 32 H 9.816226 6.594351 -5.412014 0
M  V30 33 H 10.982856 8.646379 -4.647030 0
M  V30 34 H 11.908700 10.242483 -6.317875 0
M  V30 35 H 11.685627 9.760955 -8.737209 0
M  V30 36 H 12.720119 8.147544 -10.219973 0
M  V30 37 H 12.789639 7.466742 -12.592909 0
M  V30 38 H 10.796224 6.522966 -13.679649 0
M  V30 39 H 7.386000 6.573179 -11.965067 0
M  V30 40 H 8.085974 6.719266 -13.543539 0
M  V30 41 H 6.042241 4.635085 -12.189680 0
M  V30 42 H 6.322730 4.986083 -13.872068 0
M  V30 43 H 6.381236 2.277648 -12.580042 0
M  V30 44 H 5.467398 2.859891 -13.930785 0
M  V30 45 H 8.782297 1.959410 -16.665693 0
M  V30 46 H 8.267284 0.265763 -18.364967 0
M  V30 47 H 6.315445 -1.287168 -18.074392 0
M  V30 48 H 9.138693 2.172981 -13.079197 0
M  V30 49 H 9.572132 2.374208 -14.747629 0
M  V30 50 H 8.946778 4.750459 -14.686707 0
M  V30 51 H 10.077265 4.362276 -13.400161 0
M  V30 52 H 8.535481 7.110945 -10.063316 0
M  V30 53 H 4.210166 -1.864544 -16.220736 0
M  V30 54 H 8.319932 4.332876 -11.854448 0
M  V30 END ATOM
M  V30 BEGIN BOND
M  V30 1 3 2 1
M  V30 2 1 3 2
M  V30 3 2 4 3
M  V30 4 1 5 4
M  V30 5 2 6 5
M  V30 6 1 7 6
M  V30 7 1 8 3
M  V30 8 2 8 7
M  V30 9 1 9 8
M  V30 10 2 10 9
M  V30 11 1 11 10
M  V30 12 2 12 11
M  V30 13 1 13 12
M  V30 14 1 14 13
M  V30 15 1 15 14
M  V30 16 1 16 15
M  V30 17 1 17 16
M  V30 18 1 18 17
M  V30 19 1 19 18
M  V30 20 1 20 19
M  V30 21 2 21 20
M  V30 22 1 22 21
M  V30 23 2 23 22
M  V30 24 1 24 23
M  V30 25 1 25 24
M  V30 26 2 26 25
M  V30 27 1 27 25
M  V30 28 2 28 19
M  V30 29 1 28 23
M  V30 30 1 28 27
M  V30 31 1 29 18
M  V30 32 1 30 15
M  V30 33 1 30 29
M  V30 34 1 31 9
M  V30 35 2 31 13
M  V30 36 1 32 4
M  V30 37 1 33 5
M  V30 38 1 34 6
M  V30 39 1 35 7
M  V30 40 1 36 10
M  V30 41 1 37 11
M  V30 42 1 38 12
M  V30 43 1 39 14
M  V30 44 1 40 14
M  V30 45 1 41 16
M  V30 46 1 42 16
M  V30 47 1 43 17
M  V30 48 1 44 17
M  V30 49 1 45 20
M  V30 50 1 46 21
M  V30 51 1 47 22
M  V30 52 1 48 29
M  V30 53 1 49 29
M  V30 54 1 50 30
M  V30 55 1 51 30
M  V30 56 1 52 31
M  V30 57 1 53 24
M  V30 58 1 54 15
M  V30 END BOND
M  V30 END CTAB
M  END
>  <b_m_subgroup_collapsed>  (1214) 
0

>  <r_i_docking_score>  (1214) 
-7.3541652403958704

>  <s_m_subgroup_title>  (1214) 
glide-dock_SP_D22_pv

>  <s_m_subgroupid>  (1214) 
glide-dock_SP_D22_pv

>  <Molecule ChEMBL ID>  (1214) 
CHEMBL420016

>  <Standard Type>  (1214) 
Ki

>  <Standard Value>  (1214) 
2.0

>  <label>  (1214) 
1

$$$$
CHEMBL3764246
     RDKit          3D

  0  0  0  0  0  0  0  0  0  0999 V3000
M  V30 BEGIN CTAB
M  V30 COUNTS 65 69 0 0 1
M  V30 BEGIN ATOM
M  V30 1 C 12.514359 8.742229 -1.449062 0
M  V30 2 C 12.090233 8.525265 -2.884783 0
M  V30 3 C 11.691934 9.625897 -3.663344 0
M  V30 4 C 11.281627 9.445989 -4.996240 0
M  V30 5 C 11.226391 8.151002 -5.551196 0
M  V30 6 C 10.636477 7.942423 -6.939039 0 CFG=2
M  V30 7 C 11.648609 8.093404 -8.101032 0
M  V30 8 N 11.015387 7.846026 -9.403893 0
M  V30 9 C 11.956320 7.966898 -10.515770 0
M  V30 10 C 11.420449 7.510405 -11.896152 0
M  V30 11 C 12.557970 7.465019 -12.937555 0
M  V30 12 S 12.086883 7.114934 -14.665007 0
M  V30 13 C 11.436970 5.471756 -14.578927 0
M  V30 14 N 11.607769 4.645531 -13.549845 0
M  V30 15 N 10.871013 3.525084 -13.847370 0
M  V30 16 C 10.325157 3.746050 -15.044029 0
M  V30 17 C 9.387403 2.805578 -15.651089 0
M  V30 18 C 9.507243 2.417331 -17.001005 0
M  V30 19 C 8.542587 1.574610 -17.583845 0
M  V30 20 C 7.443487 1.088315 -16.835197 0
M  V30 21 C 6.416368 0.224564 -17.460127 0
M  V30 22 N 6.390036 0.018888 -18.772373 0
M  V30 23 O 5.299847 -0.848847 -18.927551 0
M  V30 24 C 4.815343 -1.065911 -17.679201 0
M  V30 25 C 3.681386 -2.011717 -17.509542 0
M  V30 26 N 5.457013 -0.398066 -16.721601 0
M  V30 27 C 7.356481 1.456362 -15.472294 0
M  V30 28 C 8.314568 2.304667 -14.885676 0
M  V30 29 N 10.689233 4.937393 -15.569420 0
M  V30 30 C 10.328351 5.501112 -16.860619 0
M  V30 31 C 9.875050 8.744925 -9.556373 0
M  V30 32 C 8.893316 8.631290 -8.385349 0
M  V30 33 O 9.574751 8.865305 -7.162774 0
M  V30 34 C 11.645371 7.047354 -4.774541 0
M  V30 35 C 12.085969 7.233425 -3.447870 0
M  V30 36 H 13.286057 8.043661 -1.154905 0
M  V30 37 H 12.885390 9.753651 -1.283915 0
M  V30 38 H 11.685899 8.575809 -0.771575 0
M  V30 39 H 11.684803 10.609416 -3.224773 0
M  V30 40 H 10.959215 10.299446 -5.574328 0
M  V30 41 H 10.221256 6.932432 -6.959371 0
M  V30 42 H 12.475888 7.400698 -7.951780 0
M  V30 43 H 12.079515 9.095211 -8.081578 0
M  V30 44 H 12.837626 7.373351 -10.278187 0
M  V30 45 H 12.311752 8.995629 -10.588992 0
M  V30 46 H 10.626155 8.170938 -12.238698 0
M  V30 47 H 10.951900 6.533340 -11.798898 0
M  V30 48 H 13.284201 6.727799 -12.644172 0
M  V30 49 H 13.095912 8.413445 -12.938006 0
M  V30 50 H 10.332527 2.769873 -17.601498 0
M  V30 51 H 8.655067 1.304705 -18.623480 0
M  V30 52 H 3.288775 -1.958317 -16.494595 0
M  V30 53 H 2.883097 -1.772645 -18.213831 0
M  V30 54 H 4.028069 -3.027139 -17.696768 0
M  V30 55 H 6.537459 1.097275 -14.866286 0
M  V30 56 H 8.212174 2.587834 -13.846940 0
M  V30 57 H 10.492678 6.573515 -16.882500 0
M  V30 58 H 10.936772 5.046198 -17.641541 0
M  V30 59 H 9.275717 5.314145 -17.070145 0
M  V30 60 H 10.226923 9.772185 -9.630759 0
M  V30 61 H 9.334949 8.525949 -10.476875 0
M  V30 62 H 8.087664 9.359492 -8.490582 0
M  V30 63 H 8.457398 7.633294 -8.367387 0
M  V30 64 H 11.603370 6.049339 -5.186006 0
M  V30 65 H 12.386161 6.377710 -2.859246 0
M  V30 END ATOM
M  V30 BEGIN BOND
M  V30 1 1 2 1
M  V30 2 1 3 2
M  V30 3 2 4 3
M  V30 4 1 5 4
M  V30 5 1 6 5
M  V30 6 1 7 6
M  V30 7 1 8 7
M  V30 8 1 9 8
M  V30 9 1 10 9
M  V30 10 1 11 10
M  V30 11 1 12 11
M  V30 12 1 13 12
M  V30 13 2 14 13
M  V30 14 1 15 14
M  V30 15 2 16 15
M  V30 16 1 17 16
M  V30 17 1 18 17
M  V30 18 2 19 18
M  V30 19 1 20 19
M  V30 20 1 21 20
M  V30 21 2 22 21
M  V30 22 1 23 22
M  V30 23 1 24 23
M  V30 24 1 25 24
M  V30 25 1 26 21
M  V30 26 2 26 24
M  V30 27 2 27 20
M  V30 28 2 28 17
M  V30 29 1 28 27
M  V30 30 1 29 13
M  V30 31 1 29 16
M  V30 32 1 30 29
M  V30 33 1 31 8
M  V30 34 1 32 31
M  V30 35 1 33 6
M  V30 36 1 33 32
M  V30 37 2 34 5
M  V30 38 2 35 2
M  V30 39 1 35 34
M  V30 40 1 36 1
M  V30 41 1 37 1
M  V30 42 1 38 1
M  V30 43 1 39 3
M  V30 44 1 40 4
M  V30 45 1 6 41 CFG=1
M  V30 46 1 42 7
M  V30 47 1 43 7
M  V30 48 1 44 9
M  V30 49 1 45 9
M  V30 50 1 46 10
M  V30 51 1 47 10
M  V30 52 1 48 11
M  V30 53 1 49 11
M  V30 54 1 50 18
M  V30 55 1 51 19
M  V30 56 1 52 25
M  V30 57 1 53 25
M  V30 58 1 54 25
M  V30 59 1 55 27
M  V30 60 1 56 28
M  V30 61 1 57 30
M  V30 62 1 58 30
M  V30 63 1 59 30
M  V30 64 1 60 31
M  V30 65 1 61 31
M  V30 66 1 62 32
M  V30 67 1 63 32
M  V30 68 1 64 34
M  V30 69 1 65 35
M  V30 END BOND
M  V30 END CTAB
M  END
>  <b_m_subgroup_collapsed>  (1215) 
0

>  <r_i_docking_score>  (1215) 
-7.3527945302843003

>  <s_m_subgroup_title>  (1215) 
glide-dock_SP_D22_pv

>  <s_m_subgroupid>  (1215) 
glide-dock_SP_D22_pv

>  <Molecule ChEMBL ID>  (1215) 
CHEMBL3764246

>  <Standard Type>  (1215) 
Ki

>  <Standard Value>  (1215) 
25118.86

>  <label>  (1215) 
0

$$$$
CHEMBL5723033
     RDKit          3D

  0  0  0  0  0  0  0  0  0  0999 V3000
M  V30 BEGIN CTAB
M  V30 COUNTS 48 50 0 0 1
M  V30 BEGIN ATOM
M  V30 1 C 12.287778 7.942814 -3.567157 0
M  V30 2 C 11.876854 8.899010 -4.702255 0
M  V30 3 C 11.126787 10.107131 -4.123945 0
M  V30 4 C 11.062239 8.221653 -5.778525 0
M  V30 5 C 10.486233 6.972508 -5.753515 0
M  V30 6 S 9.594110 6.623880 -7.210100 0
M  V30 7 C 10.055122 8.198350 -7.823888 0
M  V30 8 C 9.676711 8.690503 -9.176465 0
M  V30 9 C 10.626169 8.203843 -10.281815 0
M  V30 10 N 10.187023 6.950486 -10.882913 0
M  V30 11 C 9.169322 7.193578 -11.895705 0
M  V30 12 C 8.778105 5.903348 -12.585726 0
M  V30 13 C 9.594724 5.256635 -13.445232 0
M  V30 14 C 9.163393 4.012528 -14.116551 0
M  V30 15 O 9.889706 3.432774 -14.923701 0
M  V30 16 C 7.804916 3.509267 -13.754516 0
M  V30 17 C 7.336029 2.266982 -14.246902 0
M  V30 18 C 6.086033 1.751167 -13.817485 0
M  V30 19 C 5.635072 0.359328 -14.180855 0
M  V30 20 N 6.245816 -0.227814 -15.209352 0
M  V30 21 O 4.722048 -0.194505 -13.569973 0
M  V30 22 C 5.286022 2.533452 -12.953184 0
M  V30 23 C 5.738183 3.777823 -12.476214 0
M  V30 24 C 7.006812 4.254526 -12.850922 0
M  V30 25 N 7.500570 5.446772 -12.305646 0
M  V30 26 N 10.828255 8.892034 -6.981827 0
M  V30 27 H 12.883059 7.109342 -3.941036 0
M  V30 28 H 12.888033 8.461897 -2.820514 0
M  V30 29 H 11.419161 7.532971 -3.051516 0
M  V30 30 H 12.795597 9.277406 -5.153181 0
M  V30 31 H 10.938184 10.864831 -4.885516 0
M  V30 32 H 10.167171 9.810708 -3.713420 0
M  V30 33 H 11.687788 10.572416 -3.313408 0
M  V30 34 H 10.513744 6.234830 -4.964367 0
M  V30 35 H 8.636934 8.431542 -9.373411 0
M  V30 36 H 9.710482 9.772608 -9.152970 0
M  V30 37 H 10.713663 8.966739 -11.050950 0
M  V30 38 H 11.631074 8.079350 -9.873926 0
M  V30 39 H 9.805408 6.344104 -10.169887 0
M  V30 40 H 8.289797 7.655931 -11.447195 0
M  V30 41 H 9.543377 7.889994 -12.646319 0
M  V30 42 H 10.583413 5.636389 -13.657450 0
M  V30 43 H 7.977481 1.689550 -14.896779 0
M  V30 44 H 6.979391 0.249435 -15.706922 0
M  V30 45 H 5.991857 -1.173008 -15.460655 0
M  V30 46 H 4.323510 2.171928 -12.625879 0
M  V30 47 H 5.132402 4.343321 -11.784381 0
M  V30 48 H 6.928582 5.961101 -11.641143 0
M  V30 END ATOM
M  V30 BEGIN BOND
M  V30 1 1 2 1
M  V30 2 1 3 2
M  V30 3 1 4 2
M  V30 4 2 5 4
M  V30 5 1 6 5
M  V30 6 1 7 6
M  V30 7 1 8 7
M  V30 8 1 9 8
M  V30 9 1 10 9
M  V30 10 1 11 10
M  V30 11 1 12 11
M  V30 12 2 13 12
M  V30 13 1 14 13
M  V30 14 2 15 14
M  V30 15 1 16 14
M  V30 16 2 17 16
M  V30 17 1 18 17
M  V30 18 1 19 18
M  V30 19 1 20 19
M  V30 20 2 21 19
M  V30 21 2 22 18
M  V30 22 1 23 22
M  V30 23 1 24 16
M  V30 24 2 24 23
M  V30 25 1 25 12
M  V30 26 1 25 24
M  V30 27 1 26 4
M  V30 28 2 26 7
M  V30 29 1 27 1
M  V30 30 1 28 1
M  V30 31 1 29 1
M  V30 32 1 30 2
M  V30 33 1 31 3
M  V30 34 1 32 3
M  V30 35 1 33 3
M  V30 36 1 34 5
M  V30 37 1 35 8
M  V30 38 1 36 8
M  V30 39 1 37 9
M  V30 40 1 38 9
M  V30 41 1 39 10
M  V30 42 1 40 11
M  V30 43 1 41 11
M  V30 44 1 42 13
M  V30 45 1 43 17
M  V30 46 1 44 20
M  V30 47 1 45 20
M  V30 48 1 46 22
M  V30 49 1 47 23
M  V30 50 1 48 25
M  V30 END BOND
M  V30 END CTAB
M  END
>  <b_m_subgroup_collapsed>  (1216) 
0

>  <r_i_docking_score>  (1216) 
-7.3520071236732596

>  <s_m_subgroup_title>  (1216) 
glide-dock_SP_D22_pv

>  <s_m_subgroupid>  (1216) 
glide-dock_SP_D22_pv

>  <Molecule ChEMBL ID>  (1216) 
CHEMBL5723033

>  <Standard Type>  (1216) 
Ki

>  <Standard Value>  (1216) 
10000.0

>  <label>  (1216) 
0

$$$$
CHEMBL5407845
     RDKit          3D

  0  0  0  0  0  0  0  0  0  0999 V3000
M  V30 BEGIN CTAB
M  V30 COUNTS 63 65 0 0 1
M  V30 BEGIN ATOM
M  V30 1 C 12.887837 7.208097 -14.160998 0
M  V30 2 C 11.653979 6.332786 -13.908167 0
M  V30 3 C 11.071483 5.545138 -15.134276 0
M  V30 4 C 11.383621 6.300971 -16.457403 0
M  V30 5 C 10.618010 5.853764 -17.713018 0
M  V30 6 C 9.548097 5.197228 -14.936417 0
M  V30 7 C 9.274033 4.134838 -13.863709 0 CFG=1
M  V30 8 O 9.659115 4.790140 -12.646710 0
M  V30 9 C 9.390266 4.185536 -11.391454 0
M  V30 10 C 9.487172 5.296713 -10.338250 0
M  V30 11 C 9.134854 4.811874 -8.922195 0
M  V30 12 N 9.359297 5.853714 -7.894572 0 CHG=1
M  V30 13 C 10.791134 6.081537 -7.592697 0
M  V30 14 C 11.015490 7.031568 -6.425779 0
M  V30 15 C 11.341099 6.571898 -5.132890 0
M  V30 16 C 11.686270 7.446031 -4.091399 0
M  V30 17 C 11.684696 8.823434 -4.333364 0
M  V30 18 C 11.312140 9.294506 -5.602839 0
M  V30 19 Cl 11.286115 10.972311 -5.847165 0
M  V30 20 C 10.977882 8.411718 -6.652319 0
M  V30 21 Cl 10.534989 8.972997 -8.224620 0
M  V30 22 C 7.789977 3.730376 -13.829554 0
M  V30 23 C 7.342660 2.451874 -14.246844 0
M  V30 24 C 6.076601 2.018577 -13.829161 0
M  V30 25 C 5.286022 2.880940 -13.047136 0
M  V30 26 C 5.763503 4.176566 -12.792282 0
M  V30 27 N 6.973053 4.604646 -13.197592 0
M  V30 28 C 10.178688 2.938218 -14.181121 0
M  V30 29 C 11.632480 3.312023 -14.378119 0
M  V30 30 O 11.789729 4.329967 -15.349697 0
M  V30 31 H 13.284135 7.588708 -13.219790 0
M  V30 32 H 13.682970 6.641606 -14.647481 0
M  V30 33 H 12.666008 8.078443 -14.774836 0
M  V30 34 H 10.887322 6.973091 -13.473686 0
M  V30 35 H 11.910242 5.659251 -13.095867 0
M  V30 36 H 11.285920 7.370927 -16.321058 0
M  V30 37 H 12.444899 6.175082 -16.679674 0
M  V30 38 H 11.026260 6.335621 -18.601032 0
M  V30 39 H 10.690418 4.775768 -17.859268 0
M  V30 40 H 9.564425 6.124157 -17.660994 0
M  V30 41 H 9.128197 4.822856 -15.867710 0
M  V30 42 H 8.953638 6.059799 -14.647077 0
M  V30 43 H 8.388578 3.774289 -11.338109 0
M  V30 44 H 10.086047 3.372692 -11.197021 0
M  V30 45 H 10.485706 5.727739 -10.374804 0
M  V30 46 H 8.807251 6.104856 -10.612010 0
M  V30 47 H 8.085963 4.523679 -8.893166 0
M  V30 48 H 9.699327 3.915321 -8.667015 0
M  V30 49 H 8.927725 6.715827 -8.205519 0
M  V30 50 H 11.308571 5.142654 -7.431061 0
M  V30 51 H 11.285956 6.490482 -8.472437 0
M  V30 52 H 11.374485 5.521165 -4.922938 0
M  V30 53 H 11.950080 7.061494 -3.117742 0
M  V30 54 H 11.945929 9.515172 -3.545538 0
M  V30 55 H 7.962123 1.745589 -14.775133 0
M  V30 56 H 5.728388 1.026316 -14.072710 0
M  V30 57 H 4.320560 2.566049 -12.682070 0
M  V30 58 H 5.190277 4.878519 -12.209587 0
M  V30 59 H 10.083180 2.172006 -13.421944 0
M  V30 60 H 9.876980 2.490283 -15.127169 0
M  V30 61 H 12.129763 3.561803 -13.446946 0
M  V30 62 H 12.088223 2.417459 -14.779168 0
M  V30 63 H 8.898760 5.569077 -7.043105 0
M  V30 END ATOM
M  V30 BEGIN BOND
M  V30 1 1 2 1
M  V30 2 1 3 2
M  V30 3 1 4 3
M  V30 4 1 5 4
M  V30 5 1 6 3
M  V30 6 1 7 6
M  V30 7 1 7 8 CFG=1
M  V30 8 1 9 8
M  V30 9 1 10 9
M  V30 10 1 11 10
M  V30 11 1 12 11
M  V30 12 1 13 12
M  V30 13 1 14 13
M  V30 14 2 15 14
M  V30 15 1 16 15
M  V30 16 2 17 16
M  V30 17 1 18 17
M  V30 18 1 19 18
M  V30 19 1 20 14
M  V30 20 2 20 18
M  V30 21 1 21 20
M  V30 22 1 22 7
M  V30 23 2 23 22
M  V30 24 1 24 23
M  V30 25 2 25 24
M  V30 26 1 26 25
M  V30 27 1 27 22
M  V30 28 2 27 26
M  V30 29 1 28 7
M  V30 30 1 29 28
M  V30 31 1 30 3
M  V30 32 1 30 29
M  V30 33 1 31 1
M  V30 34 1 32 1
M  V30 35 1 33 1
M  V30 36 1 34 2
M  V30 37 1 35 2
M  V30 38 1 36 4
M  V30 39 1 37 4
M  V30 40 1 38 5
M  V30 41 1 39 5
M  V30 42 1 40 5
M  V30 43 1 41 6
M  V30 44 1 42 6
M  V30 45 1 43 9
M  V30 46 1 44 9
M  V30 47 1 45 10
M  V30 48 1 46 10
M  V30 49 1 47 11
M  V30 50 1 48 11
M  V30 51 1 49 12
M  V30 52 1 50 13
M  V30 53 1 51 13
M  V30 54 1 52 15
M  V30 55 1 53 16
M  V30 56 1 54 17
M  V30 57 1 55 23
M  V30 58 1 56 24
M  V30 59 1 57 25
M  V30 60 1 58 26
M  V30 61 1 59 28
M  V30 62 1 60 28
M  V30 63 1 61 29
M  V30 64 1 62 29
M  V30 65 1 63 12
M  V30 END BOND
M  V30 END CTAB
M  END
>  <b_m_subgroup_collapsed>  (1217) 
0

>  <r_i_docking_score>  (1217) 
-7.3508926312741698

>  <s_m_subgroup_title>  (1217) 
glide-dock_SP_D22_pv

>  <s_m_subgroupid>  (1217) 
glide-dock_SP_D22_pv

>  <Molecule ChEMBL ID>  (1217) 
CHEMBL5407845

>  <Standard Type>  (1217) 
Ki

>  <Standard Value>  (1217) 
13400.0

>  <label>  (1217) 
0

$$$$
CHEMBL336851
     RDKit          3D

  0  0  0  0  0  0  0  0  0  0999 V3000
M  V30 BEGIN CTAB
M  V30 COUNTS 41 42 0 0 1
M  V30 BEGIN ATOM
M  V30 1 C 8.557067 4.454545 -8.737447 0
M  V30 2 C 9.702327 5.432194 -8.987651 0
M  V30 3 C 9.221344 6.900020 -9.051169 0
M  V30 4 N 10.271940 7.912372 -8.876146 0
M  V30 5 C 11.507254 7.744285 -9.651562 0
M  V30 6 C 11.359205 7.372999 -11.114650 0
M  V30 7 C 12.309385 7.639390 -12.023288 0
M  V30 8 I 12.086149 6.972441 -14.056808 0
M  V30 9 C 10.470137 8.316237 -7.468670 0 CFG=2
M  V30 10 C 11.474144 9.464135 -7.351035 0
M  V30 11 C 11.417489 10.119325 -5.972091 0
M  V30 12 C 11.569764 9.087478 -4.872284 0
M  V30 13 C 12.012776 9.500662 -3.602299 0
M  V30 14 C 12.327434 8.556222 -2.614986 0
M  V30 15 O 12.885971 8.971465 -1.446941 0
M  V30 16 C 12.103561 7.189826 -2.853065 0
M  V30 17 C 11.600735 6.779306 -4.100234 0
M  V30 18 C 11.331885 7.712461 -5.118791 0
M  V30 19 C 10.865980 7.198902 -6.478582 0
M  V30 20 H 8.937157 3.444577 -8.589143 0
M  V30 21 H 7.993792 4.733175 -7.847264 0
M  V30 22 H 7.881472 4.433218 -9.591577 0
M  V30 23 H 10.183001 5.154798 -9.922206 0
M  V30 24 H 10.451301 5.284357 -8.216042 0
M  V30 25 H 8.455226 7.070273 -8.294896 0
M  V30 26 H 8.721520 7.068844 -10.005478 0
M  V30 27 H 12.113848 8.648679 -9.628825 0
M  V30 28 H 12.086059 6.972512 -9.167868 0
M  V30 29 H 10.471214 6.844508 -11.425673 0
M  V30 30 H 13.224704 8.169588 -11.801644 0
M  V30 31 H 9.507517 8.710698 -7.137674 0
M  V30 32 H 11.286041 10.172340 -8.143958 0
M  V30 33 H 12.488970 9.092293 -7.504385 0
M  V30 34 H 10.486049 10.658082 -5.829568 0
M  V30 35 H 12.216253 10.856928 -5.891501 0
M  V30 36 H 12.137261 10.548018 -3.384876 0
M  V30 37 H 13.146539 9.887809 -1.447413 0
M  V30 38 H 12.331177 6.455659 -2.093860 0
M  V30 39 H 11.430206 5.736803 -4.287880 0
M  V30 40 H 11.686268 6.608290 -6.885902 0
M  V30 41 H 10.024991 6.523429 -6.317675 0
M  V30 END ATOM
M  V30 BEGIN BOND
M  V30 1 1 2 1
M  V30 2 1 3 2
M  V30 3 1 4 3
M  V30 4 1 5 4
M  V30 5 1 6 5
M  V30 6 2 7 6
M  V30 7 1 8 7
M  V30 8 1 9 4
M  V30 9 1 10 9
M  V30 10 1 11 10
M  V30 11 1 12 11
M  V30 12 1 13 12
M  V30 13 2 14 13
M  V30 14 1 15 14
M  V30 15 1 16 14
M  V30 16 2 17 16
M  V30 17 2 18 12
M  V30 18 1 18 17
M  V30 19 1 19 9
M  V30 20 1 19 18
M  V30 21 1 20 1
M  V30 22 1 21 1
M  V30 23 1 22 1
M  V30 24 1 23 2
M  V30 25 1 24 2
M  V30 26 1 25 3
M  V30 27 1 26 3
M  V30 28 1 27 5
M  V30 29 1 28 5
M  V30 30 1 29 6
M  V30 31 1 30 7
M  V30 32 1 9 31 CFG=1
M  V30 33 1 32 10
M  V30 34 1 33 10
M  V30 35 1 34 11
M  V30 36 1 35 11
M  V30 37 1 36 13
M  V30 38 1 37 15
M  V30 39 1 38 16
M  V30 40 1 39 17
M  V30 41 1 40 19
M  V30 42 1 41 19
M  V30 END BOND
M  V30 END CTAB
M  END
>  <b_m_subgroup_collapsed>  (1218) 
0

>  <r_i_docking_score>  (1218) 
-7.34975706629172

>  <s_m_subgroup_title>  (1218) 
glide-dock_SP_D22_pv

>  <s_m_subgroupid>  (1218) 
glide-dock_SP_D22_pv

>  <Molecule ChEMBL ID>  (1218) 
CHEMBL336851

>  <Standard Type>  (1218) 
Ki

>  <Standard Value>  (1218) 
9.7

>  <label>  (1218) 
1

$$$$
CHEMBL1644980
     RDKit          3D

  0  0  0  0  0  0  0  0  0  0999 V3000
M  V30 BEGIN CTAB
M  V30 COUNTS 64 67 0 0 1
M  V30 BEGIN ATOM
M  V30 1 O 8.883956 8.680608 -10.212053 0
M  V30 2 C 9.685707 7.594897 -9.767308 0 CFG=1
M  V30 3 C 10.007463 7.686994 -8.262341 0
M  V30 4 C 9.867605 6.572821 -7.403278 0
M  V30 5 C 10.370576 6.618735 -6.093439 0
M  V30 6 C 10.985264 7.762732 -5.590470 0
M  V30 7 Cl 11.686162 7.687770 -4.007785 0
M  V30 8 C 11.040895 8.921222 -6.386629 0
M  V30 9 C 11.640723 10.174932 -5.787102 0
M  V30 10 F 11.687036 11.178893 -6.647293 0
M  V30 11 F 10.904427 10.569691 -4.744840 0
M  V30 12 F 12.885894 9.908446 -5.397824 0
M  V30 13 C 10.567183 8.873854 -7.722727 0
M  V30 14 C 8.990442 6.264143 -10.182942 0
M  V30 15 C 8.895367 6.070438 -11.706558 0
M  V30 16 N 10.253696 6.131416 -12.298334 0 CFG=1 CHG=1
M  V30 17 C 10.332912 5.731784 -13.722434 0
M  V30 18 C 11.069410 4.392300 -13.878703 0
M  V30 19 C 11.358636 4.028611 -15.346820 0
M  V30 20 C 10.101608 3.708342 -16.186682 0
M  V30 21 C 9.381878 2.467902 -15.673889 0
M  V30 22 C 9.941480 1.187195 -15.868443 0
M  V30 23 C 9.265873 0.046286 -15.404098 0
M  V30 24 C 8.026550 0.172261 -14.747121 0
M  V30 25 C 7.471534 1.445019 -14.534941 0
M  V30 26 C 8.154702 2.588628 -14.983755 0
M  V30 27 C 10.371031 3.638038 -17.688978 0
M  V30 28 C 9.410246 4.151721 -18.590183 0
M  V30 29 C 9.634536 4.101696 -19.978802 0
M  V30 30 C 10.823183 3.539627 -20.479874 0
M  V30 31 C 11.785074 3.022901 -19.590815 0
M  V30 32 C 11.561027 3.071176 -18.201603 0
M  V30 33 C 10.889481 7.434858 -12.039842 0
M  V30 34 C 11.024730 7.702863 -10.534424 0
M  V30 35 H 7.946414 8.425575 -10.235076 0
M  V30 36 H 9.422389 5.645558 -7.725943 0
M  V30 37 H 10.315692 5.771691 -5.439223 0
M  V30 38 H 10.673185 9.738860 -8.359913 0
M  V30 39 H 9.571304 5.416192 -9.819625 0
M  V30 40 H 8.005405 6.172779 -9.723298 0
M  V30 41 H 8.448166 5.098577 -11.919427 0
M  V30 42 H 8.245420 6.825340 -12.153984 0
M  V30 43 H 9.332921 5.685548 -14.154550 0
M  V30 44 H 10.886202 6.475615 -14.298328 0
M  V30 45 H 12.028042 4.455261 -13.362412 0
M  V30 46 H 10.514904 3.591584 -13.387498 0
M  V30 47 H 11.899743 4.856091 -15.807486 0
M  V30 48 H 12.041787 3.179028 -15.362999 0
M  V30 49 H 9.416040 4.547512 -16.072159 0
M  V30 50 H 10.887167 1.070826 -16.375147 0
M  V30 51 H 9.690168 -0.934894 -15.558361 0
M  V30 52 H 7.500717 -0.706470 -14.404881 0
M  V30 53 H 6.527703 1.543758 -14.019221 0
M  V30 54 H 7.725381 3.558980 -14.787884 0
M  V30 55 H 8.491460 4.586159 -18.223270 0
M  V30 56 H 8.895348 4.497659 -20.659307 0
M  V30 57 H 10.996692 3.505045 -21.545620 0
M  V30 58 H 12.697050 2.589465 -19.974592 0
M  V30 59 H 12.310762 2.666098 -17.538944 0
M  V30 60 H 11.877178 7.475937 -12.503396 0
M  V30 61 H 10.263380 8.182255 -12.517211 0
M  V30 62 H 11.476007 8.685333 -10.384837 0
M  V30 63 H 11.733287 6.984548 -10.119311 0
M  V30 64 H 10.801747 5.446246 -11.800879 0
M  V30 END ATOM
M  V30 BEGIN BOND
M  V30 1 1 2 1 CFG=3
M  V30 2 1 3 2
M  V30 3 1 4 3
M  V30 4 2 5 4
M  V30 5 1 6 5
M  V30 6 1 7 6
M  V30 7 2 8 6
M  V30 8 1 9 8
M  V30 9 1 10 9
M  V30 10 1 11 9
M  V30 11 1 12 9
M  V30 12 2 13 3
M  V30 13 1 13 8
M  V30 14 1 14 2
M  V30 15 1 15 14
M  V30 16 1 16 15
M  V30 17 1 17 16
M  V30 18 1 18 17
M  V30 19 1 19 18
M  V30 20 1 20 19
M  V30 21 1 21 20
M  V30 22 2 22 21
M  V30 23 1 23 22
M  V30 24 2 24 23
M  V30 25 1 25 24
M  V30 26 1 26 21
M  V30 27 2 26 25
M  V30 28 1 27 20
M  V30 29 2 28 27
M  V30 30 1 29 28
M  V30 31 2 30 29
M  V30 32 1 31 30
M  V30 33 1 32 27
M  V30 34 2 32 31
M  V30 35 1 33 16
M  V30 36 1 34 2
M  V30 37 1 34 33
M  V30 38 1 35 1
M  V30 39 1 36 4
M  V30 40 1 37 5
M  V30 41 1 38 13
M  V30 42 1 39 14
M  V30 43 1 40 14
M  V30 44 1 41 15
M  V30 45 1 42 15
M  V30 46 1 43 17
M  V30 47 1 44 17
M  V30 48 1 45 18
M  V30 49 1 46 18
M  V30 50 1 47 19
M  V30 51 1 48 19
M  V30 52 1 49 20
M  V30 53 1 50 22
M  V30 54 1 51 23
M  V30 55 1 52 24
M  V30 56 1 53 25
M  V30 57 1 54 26
M  V30 58 1 55 28
M  V30 59 1 56 29
M  V30 60 1 57 30
M  V30 61 1 58 31
M  V30 62 1 59 32
M  V30 63 1 60 33
M  V30 64 1 61 33
M  V30 65 1 62 34
M  V30 66 1 63 34
M  V30 67 1 16 64 CFG=1
M  V30 END BOND
M  V30 END CTAB
M  END
>  <b_m_subgroup_collapsed>  (1219) 
0

>  <r_i_docking_score>  (1219) 
-7.3491171773603501

>  <s_m_subgroup_title>  (1219) 
glide-dock_SP_D22_pv

>  <s_m_subgroupid>  (1219) 
glide-dock_SP_D22_pv

>  <Molecule ChEMBL ID>  (1219) 
CHEMBL1644980

>  <Standard Type>  (1219) 
Ki

>  <Standard Value>  (1219) 
38.0

>  <label>  (1219) 
1

$$$$
CHEMBL2335737
     RDKit          3D

  0  0  0  0  0  0  0  0  0  0999 V3000
M  V30 BEGIN CTAB
M  V30 COUNTS 47 50 0 0 1
M  V30 BEGIN ATOM
M  V30 1 C 6.065311 1.502298 -14.165626 0
M  V30 2 C 6.908212 2.721948 -13.846552 0
M  V30 3 C 8.194974 2.831934 -14.403368 0
M  V30 4 C 9.063134 3.866103 -13.999813 0
M  V30 5 C 8.645726 4.817057 -13.035246 0
M  V30 6 C 7.339198 4.726934 -12.512445 0
M  V30 7 C 6.487391 3.675511 -12.888819 0
M  V30 8 O 5.286584 3.568838 -12.252623 0
M  V30 9 C 9.556743 5.969855 -12.599294 0 CFG=1
M  V30 10 C 9.616457 6.204488 -11.065824 0
M  V30 11 C 10.369418 7.517054 -10.706238 0 CFG=1
M  V30 12 O 9.567583 8.566401 -11.210775 0
M  V30 13 C 10.572401 7.723912 -9.194886 0
M  V30 14 C 11.442846 8.743953 -8.746133 0
M  V30 15 C 11.657781 8.969717 -7.374839 0
M  V30 16 C 10.995176 8.182874 -6.421444 0
M  V30 17 Cl 11.289518 8.458191 -4.744029 0
M  V30 18 C 10.099564 7.182840 -6.844151 0
M  V30 19 C 9.887924 6.953838 -8.220223 0
M  V30 20 C 11.741084 7.561141 -11.449157 0
M  V30 21 C 11.714980 7.096243 -12.920381 0
M  V30 22 N 10.947685 5.846222 -13.115551 0 CFG=2 CHG=1
M  V30 23 C 11.026513 5.348564 -14.507004 0
M  V30 24 C 10.457047 3.931595 -14.586042 0
M  V30 25 H 6.101515 1.265601 -15.230753 0
M  V30 26 H 6.445683 0.640014 -13.612766 0
M  V30 27 H 5.021980 1.637007 -13.873620 0
M  V30 28 H 8.532439 2.091507 -15.113082 0
M  V30 29 H 6.986530 5.451238 -11.790681 0
M  V30 30 H 5.225662 4.154685 -11.509553 0
M  V30 31 H 9.089665 6.844000 -13.046687 0
M  V30 32 H 10.085618 5.343304 -10.587280 0
M  V30 33 H 8.608244 6.267985 -10.653716 0
M  V30 34 H 8.720497 8.533892 -10.777492 0
M  V30 35 H 11.963125 9.374201 -9.447959 0
M  V30 36 H 12.336542 9.747507 -7.048973 0
M  V30 37 H 9.575111 6.587234 -6.112320 0
M  V30 38 H 9.184323 6.187402 -8.501041 0
M  V30 39 H 12.481757 6.972335 -10.905930 0
M  V30 40 H 12.150643 8.570983 -11.437869 0
M  V30 41 H 12.740775 6.957500 -13.266270 0
M  V30 42 H 11.286453 7.860822 -13.564156 0
M  V30 43 H 12.066228 5.332054 -14.841750 0
M  V30 44 H 10.485168 6.018525 -15.175684 0
M  V30 45 H 11.092607 3.231556 -14.041922 0
M  V30 46 H 10.438153 3.596013 -15.623862 0
M  V30 47 H 11.392940 5.132540 -12.557182 0
M  V30 END ATOM
M  V30 BEGIN BOND
M  V30 1 1 2 1
M  V30 2 2 3 2
M  V30 3 1 4 3
M  V30 4 2 5 4
M  V30 5 1 6 5
M  V30 6 1 7 2
M  V30 7 2 7 6
M  V30 8 1 8 7
M  V30 9 1 9 5
M  V30 10 1 10 9
M  V30 11 1 11 10
M  V30 12 1 11 12 CFG=3
M  V30 13 1 13 11
M  V30 14 1 14 13
M  V30 15 2 15 14
M  V30 16 1 16 15
M  V30 17 1 17 16
M  V30 18 2 18 16
M  V30 19 2 19 13
M  V30 20 1 19 18
M  V30 21 1 20 11
M  V30 22 1 21 20
M  V30 23 1 22 9
M  V30 24 1 22 21
M  V30 25 1 23 22
M  V30 26 1 24 4
M  V30 27 1 24 23
M  V30 28 1 25 1
M  V30 29 1 26 1
M  V30 30 1 27 1
M  V30 31 1 28 3
M  V30 32 1 29 6
M  V30 33 1 30 8
M  V30 34 1 9 31 CFG=3
M  V30 35 1 32 10
M  V30 36 1 33 10
M  V30 37 1 34 12
M  V30 38 1 35 14
M  V30 39 1 36 15
M  V30 40 1 37 18
M  V30 41 1 38 19
M  V30 42 1 39 20
M  V30 43 1 40 20
M  V30 44 1 41 21
M  V30 45 1 42 21
M  V30 46 1 43 23
M  V30 47 1 44 23
M  V30 48 1 45 24
M  V30 49 1 46 24
M  V30 50 1 22 47 CFG=1
M  V30 END BOND
M  V30 END CTAB
M  END
>  <b_m_subgroup_collapsed>  (1220) 
0

>  <r_i_docking_score>  (1220) 
-7.3472892224636404

>  <s_m_subgroup_title>  (1220) 
glide-dock_SP_D22_pv

>  <s_m_subgroupid>  (1220) 
glide-dock_SP_D22_pv

>  <Molecule ChEMBL ID>  (1220) 
CHEMBL2335737

>  <Standard Type>  (1220) 
Ki

>  <Standard Value>  (1220) 
12.3

>  <label>  (1220) 
1

$$$$
CHEMBL5289958
     RDKit          3D

  0  0  0  0  0  0  0  0  0  0999 V3000
M  V30 BEGIN CTAB
M  V30 COUNTS 58 62 0 0 1
M  V30 BEGIN ATOM
M  V30 1 F 13.004871 7.779044 -17.805002 0
M  V30 2 C 12.484837 6.886641 -16.929976 0
M  V30 3 C 11.776093 5.765528 -17.405073 0
M  V30 4 C 11.226690 4.837309 -16.498085 0
M  V30 5 C 11.394893 5.023031 -15.109758 0
M  V30 6 C 10.821711 4.029014 -14.118937 0
M  V30 7 N 9.696573 4.640783 -13.372004 0 CFG=1 CHG=1
M  V30 8 C 8.393379 4.524346 -14.050674 0
M  V30 9 C 7.333447 5.345726 -13.301981 0
M  V30 10 C 7.255688 5.044453 -11.807712 0
M  V30 11 C 8.644508 5.081338 -11.147724 0 CFG=2
M  V30 12 C 8.574827 4.572325 -9.696362 0
M  V30 13 C 8.654749 5.793946 -8.830536 0
M  V30 14 N 9.598187 6.653925 -9.560712 0 CFG=2 CHG=1
M  V30 15 C 9.757435 8.028258 -9.028184 0
M  V30 16 C 10.394578 7.974921 -7.672375 0
M  V30 17 C 10.962100 6.892085 -7.051846 0
M  V30 18 C 11.234371 7.277488 -5.714112 0
M  V30 19 C 11.686167 6.572506 -4.586766 0
M  V30 20 C 12.003725 7.233329 -3.396880 0
M  V30 21 C 11.822675 8.619032 -3.310226 0
M  V30 22 Cl 12.259350 9.371945 -1.846580 0
M  V30 23 C 11.291105 9.354701 -4.390762 0
M  V30 24 C 11.001994 8.674045 -5.587923 0
M  V30 25 N 10.479264 9.060727 -6.809931 0
M  V30 26 C 9.227331 6.521718 -10.983657 0
M  V30 27 C 9.566470 4.172337 -11.977547 0
M  V30 28 C 12.105213 6.147861 -14.637300 0
M  V30 29 C 12.638308 7.083327 -15.544200 0
M  V30 30 F 13.285954 8.176827 -15.078730 0
M  V30 31 H 11.653367 5.620497 -18.468468 0
M  V30 32 H 10.685908 3.981646 -16.875849 0
M  V30 33 H 10.512527 3.104016 -14.609121 0
M  V30 34 H 11.636267 3.764372 -13.446861 0
M  V30 35 H 8.486172 4.897329 -15.068251 0
M  V30 36 H 8.092859 3.476662 -14.113573 0
M  V30 37 H 7.546572 6.406241 -13.444758 0
M  V30 38 H 6.354489 5.153279 -13.744072 0
M  V30 39 H 6.576149 5.746768 -11.321606 0
M  V30 40 H 6.812676 4.055735 -11.675524 0
M  V30 41 H 7.686374 3.975834 -9.485601 0
M  V30 42 H 9.437129 3.949359 -9.450750 0
M  V30 43 H 7.686042 6.262984 -8.801683 0
M  V30 44 H 8.924776 5.543353 -7.807320 0
M  V30 45 H 10.385103 8.609600 -9.704572 0
M  V30 46 H 8.786492 8.524721 -8.979180 0
M  V30 47 H 11.096923 5.890192 -7.431178 0
M  V30 48 H 11.863189 5.515802 -4.659597 0
M  V30 49 H 12.392694 6.678096 -2.555246 0
M  V30 50 H 11.130526 10.418685 -4.302909 0
M  V30 51 H 10.155412 9.986893 -7.047176 0
M  V30 52 H 10.097023 6.713768 -11.612478 0
M  V30 53 H 8.485061 7.280155 -11.230515 0
M  V30 54 H 9.285972 3.124407 -11.982664 0
M  V30 55 H 10.486139 4.177129 -11.456106 0
M  V30 56 H 12.248914 6.303440 -13.577992 0
M  V30 57 H 9.913343 5.625401 -13.329919 0
M  V30 58 H 10.501349 6.216169 -9.457429 0
M  V30 END ATOM
M  V30 BEGIN BOND
M  V30 1 1 2 1
M  V30 2 1 3 2
M  V30 3 2 4 3
M  V30 4 1 5 4
M  V30 5 1 6 5
M  V30 6 1 7 6
M  V30 7 1 8 7
M  V30 8 1 9 8
M  V30 9 1 10 9
M  V30 10 1 11 10 CFG=3
M  V30 11 1 12 11
M  V30 12 1 13 12
M  V30 13 1 14 13
M  V30 14 1 15 14
M  V30 15 1 16 15
M  V30 16 2 17 16
M  V30 17 1 18 17
M  V30 18 1 19 18
M  V30 19 2 20 19
M  V30 20 1 21 20
M  V30 21 1 22 21
M  V30 22 2 23 21
M  V30 23 2 24 18
M  V30 24 1 24 23
M  V30 25 1 25 16
M  V30 26 1 25 24
M  V30 27 1 26 11
M  V30 28 1 26 14
M  V30 29 1 27 7
M  V30 30 1 27 11
M  V30 31 2 28 5
M  V30 32 2 29 2
M  V30 33 1 29 28
M  V30 34 1 30 29
M  V30 35 1 31 3
M  V30 36 1 32 4
M  V30 37 1 33 6
M  V30 38 1 34 6
M  V30 39 1 35 8
M  V30 40 1 36 8
M  V30 41 1 37 9
M  V30 42 1 38 9
M  V30 43 1 39 10
M  V30 44 1 40 10
M  V30 45 1 41 12
M  V30 46 1 42 12
M  V30 47 1 43 13
M  V30 48 1 44 13
M  V30 49 1 45 15
M  V30 50 1 46 15
M  V30 51 1 47 17
M  V30 52 1 48 19
M  V30 53 1 49 20
M  V30 54 1 50 23
M  V30 55 1 51 25
M  V30 56 1 52 26
M  V30 57 1 53 26
M  V30 58 1 54 27
M  V30 59 1 55 27
M  V30 60 1 56 28
M  V30 61 1 7 57 CFG=1
M  V30 62 1 14 58 CFG=3
M  V30 END BOND
M  V30 END CTAB
M  END
>  <b_m_subgroup_collapsed>  (1221) 
0

>  <r_i_docking_score>  (1221) 
-7.3456990922365097

>  <s_m_subgroup_title>  (1221) 
glide-dock_SP_D22_pv

>  <s_m_subgroupid>  (1221) 
glide-dock_SP_D22_pv

>  <Molecule ChEMBL ID>  (1221) 
CHEMBL5289958

>  <Standard Type>  (1221) 
Ki

>  <Standard Value>  (1221) 
10000.0

>  <label>  (1221) 
0

$$$$
CHEMBL104800
     RDKit          3D

  0  0  0  0  0  0  0  0  0  0999 V3000
M  V30 BEGIN CTAB
M  V30 COUNTS 52 55 0 0 1
M  V30 BEGIN ATOM
M  V30 1 O 10.224037 3.346656 -16.696815 0
M  V30 2 S 10.155370 2.843468 -15.315551 0
M  V30 3 O 11.265142 2.984081 -14.357782 0
M  V30 4 C 9.455626 1.140503 -15.263917 0
M  V30 5 C 8.077513 1.336300 -14.647364 0
M  V30 6 C 7.183267 0.279264 -14.392288 0
M  V30 7 C 5.941250 0.559937 -13.787719 0
M  V30 8 C 5.598539 1.885527 -13.443826 0
M  V30 9 C 6.487490 2.948865 -13.710974 0
M  V30 10 C 7.736137 2.658869 -14.305882 0
M  V30 11 N 8.765398 3.555241 -14.603662 0
M  V30 12 C 8.859420 4.782096 -13.817705 0
M  V30 13 C 9.318018 4.485293 -12.380318 0
M  V30 14 N 8.966674 5.543125 -11.440587 0
M  V30 15 C 9.849365 6.703566 -11.565091 0
M  V30 16 C 9.485319 7.774774 -10.516837 0
M  V30 17 N 9.567904 7.227148 -9.137697 0 CHG=1
M  V30 18 C 9.245324 8.233076 -8.089951 0
M  V30 19 C 10.172969 8.164087 -6.881959 0
M  V30 20 C 10.918809 9.298433 -6.490759 0
M  V30 21 C 11.663265 9.290102 -5.294897 0
M  V30 22 C 11.687012 8.136477 -4.490256 0
M  V30 23 Cl 12.486012 8.151779 -2.962847 0
M  V30 24 C 11.027999 6.972887 -4.919340 0
M  V30 25 C 10.250799 6.999417 -6.089077 0
M  V30 26 C 8.727774 6.009128 -9.036449 0
M  V30 27 C 9.095654 4.981468 -10.099055 0
M  V30 28 H 10.085686 0.507858 -14.640287 0
M  V30 29 H 9.395650 0.737832 -16.274345 0
M  V30 30 H 7.440871 -0.737285 -14.648610 0
M  V30 31 H 5.249700 -0.245905 -13.588585 0
M  V30 32 H 4.643908 2.092104 -12.981766 0
M  V30 33 H 6.205583 3.955796 -13.442608 0
M  V30 34 H 9.569139 5.452993 -14.303308 0
M  V30 35 H 7.902589 5.304806 -13.831781 0
M  V30 36 H 8.825458 3.568534 -12.056338 0
M  V30 37 H 10.388080 4.276594 -12.344733 0
M  V30 38 H 10.886274 6.402364 -11.446327 0
M  V30 39 H 9.757289 7.132451 -12.563447 0
M  V30 40 H 10.170938 8.616912 -10.612819 0
M  V30 41 H 8.486299 8.159621 -10.713746 0
M  V30 42 H 9.306799 9.239791 -8.508018 0
M  V30 43 H 8.215753 8.127733 -7.745808 0
M  V30 44 H 10.886765 10.201410 -7.074518 0
M  V30 45 H 12.196032 10.173054 -4.979418 0
M  V30 46 H 11.047478 6.082643 -4.306900 0
M  V30 47 H 9.679248 6.123213 -6.320169 0
M  V30 48 H 8.801279 5.535073 -8.065503 0
M  V30 49 H 7.685974 6.256690 -9.160495 0
M  V30 50 H 8.379398 4.172265 -9.999575 0
M  V30 51 H 10.088706 4.568653 -9.925656 0
M  V30 52 H 10.524734 6.948641 -8.987707 0
M  V30 END ATOM
M  V30 BEGIN BOND
M  V30 1 2 2 1
M  V30 2 2 3 2
M  V30 3 1 4 2
M  V30 4 1 5 4
M  V30 5 2 6 5
M  V30 6 1 7 6
M  V30 7 2 8 7
M  V30 8 1 9 8
M  V30 9 1 10 5
M  V30 10 2 10 9
M  V30 11 1 11 2
M  V30 12 1 11 10
M  V30 13 1 12 11
M  V30 14 1 13 12
M  V30 15 1 14 13
M  V30 16 1 15 14
M  V30 17 1 16 15
M  V30 18 1 17 16
M  V30 19 1 18 17
M  V30 20 1 19 18
M  V30 21 1 20 19
M  V30 22 2 21 20
M  V30 23 1 22 21
M  V30 24 1 23 22
M  V30 25 2 24 22
M  V30 26 2 25 19
M  V30 27 1 25 24
M  V30 28 1 26 17
M  V30 29 1 27 14
M  V30 30 1 27 26
M  V30 31 1 28 4
M  V30 32 1 29 4
M  V30 33 1 30 6
M  V30 34 1 31 7
M  V30 35 1 32 8
M  V30 36 1 33 9
M  V30 37 1 34 12
M  V30 38 1 35 12
M  V30 39 1 36 13
M  V30 40 1 37 13
M  V30 41 1 38 15
M  V30 42 1 39 15
M  V30 43 1 40 16
M  V30 44 1 41 16
M  V30 45 1 42 18
M  V30 46 1 43 18
M  V30 47 1 44 20
M  V30 48 1 45 21
M  V30 49 1 46 24
M  V30 50 1 47 25
M  V30 51 1 48 26
M  V30 52 1 49 26
M  V30 53 1 50 27
M  V30 54 1 51 27
M  V30 55 1 52 17
M  V30 END BOND
M  V30 END CTAB
M  END
>  <b_m_subgroup_collapsed>  (1222) 
0

>  <r_i_docking_score>  (1222) 
-7.3449029115289797

>  <s_m_subgroup_title>  (1222) 
glide-dock_SP_D22_pv

>  <s_m_subgroupid>  (1222) 
glide-dock_SP_D22_pv

>  <Molecule ChEMBL ID>  (1222) 
CHEMBL104800

>  <Standard Type>  (1222) 
Ki

>  <Standard Value>  (1222) 
10000.0

>  <label>  (1222) 
0

$$$$
CHEMBL109787
     RDKit          3D

  0  0  0  0  0  0  0  0  0  0999 V3000
M  V30 BEGIN CTAB
M  V30 COUNTS 66 70 0 0 1
M  V30 BEGIN ATOM
M  V30 1 C 10.788880 4.882699 -16.746527 0
M  V30 2 C 11.247911 4.208878 -15.446476 0
M  V30 3 C 10.290861 3.101883 -14.962322 0
M  V30 4 N 8.902519 3.565486 -14.641319 0 CFG=2 CHG=1
M  V30 5 C 8.861882 4.697594 -13.654578 0
M  V30 6 C 9.465366 4.343168 -12.279111 0
M  V30 7 C 9.557630 5.482532 -11.270679 0
M  V30 8 C 9.100720 5.289114 -9.948627 0
M  V30 9 C 9.397985 6.231030 -8.943432 0
M  V30 10 C 10.168927 7.376873 -9.242393 0
M  V30 11 N 10.577609 8.288131 -8.253869 0
M  V30 12 C 10.961712 8.039047 -6.921025 0
M  V30 13 C 11.285248 6.755849 -6.449569 0
M  V30 14 C 11.684051 6.571630 -5.117850 0
M  V30 15 C 11.740729 7.627831 -4.193560 0
M  V30 16 N 12.175772 7.362959 -2.803587 0 CHG=1
M  V30 17 O 12.236517 8.289472 -2.004240 0
M  V30 18 O 12.486629 6.212850 -2.509996 0 CHG=-1
M  V30 19 C 11.392879 8.899832 -4.646080 0
M  V30 20 N 11.286265 10.060566 -3.997483 0
M  V30 21 O 10.886203 10.967080 -4.981244 0
M  V30 22 N 10.885981 10.400336 -6.246909 0
M  V30 23 C 11.061173 9.103477 -6.027158 0
M  V30 24 C 10.534942 7.619564 -10.583092 0
M  V30 25 C 10.233767 6.680413 -11.591620 0
M  V30 26 C 7.958883 2.414829 -14.396047 0 CFG=1
M  V30 27 C 6.604321 2.805772 -13.757554 0
M  V30 28 C 5.721417 1.584996 -13.440476 0
M  V30 29 C 5.649501 0.554649 -14.559509 0
M  V30 30 C 4.625368 -0.424747 -14.557416 0
M  V30 31 O 3.689934 -0.462394 -13.564989 0
M  V30 32 C 4.533821 -1.364225 -15.600647 0
M  V30 33 C 5.446937 -1.318600 -16.667501 0
M  V30 34 C 6.462340 -0.344091 -16.681536 0
M  V30 35 C 6.578570 0.586784 -15.628135 0
M  V30 36 C 7.676824 1.638255 -15.708906 0
M  V30 37 H 11.516109 5.627031 -17.070614 0
M  V30 38 H 10.681211 4.155379 -17.552019 0
M  V30 39 H 9.832884 5.389932 -16.624750 0
M  V30 40 H 11.423882 4.955185 -14.672201 0
M  V30 41 H 12.225293 3.757545 -15.624779 0
M  V30 42 H 10.721078 2.590492 -14.100684 0
M  V30 43 H 10.267753 2.354079 -15.751265 0
M  V30 44 H 9.395193 5.544241 -14.081264 0
M  V30 45 H 7.849132 5.080336 -13.538045 0
M  V30 46 H 8.905339 3.519307 -11.847370 0
M  V30 47 H 10.485263 3.980151 -12.394548 0
M  V30 48 H 8.560775 4.393031 -9.680615 0
M  V30 49 H 9.049376 6.052794 -7.936537 0
M  V30 50 H 10.663218 9.249651 -8.555067 0
M  V30 51 H 11.270852 5.900669 -7.108558 0
M  V30 52 H 11.962204 5.582050 -4.801803 0
M  V30 53 H 11.100163 8.505161 -10.835909 0
M  V30 54 H 10.596963 6.856005 -12.593314 0
M  V30 55 H 8.457777 1.726614 -13.713225 0
M  V30 56 H 6.069038 3.464246 -14.443066 0
M  V30 57 H 6.726768 3.359299 -12.827154 0
M  V30 58 H 4.718318 1.936838 -13.197432 0
M  V30 59 H 6.085959 1.073228 -12.550052 0
M  V30 60 H 3.414538 0.399400 -13.294700 0
M  V30 61 H 3.751557 -2.111618 -15.596247 0
M  V30 62 H 5.369228 -2.034856 -17.471756 0
M  V30 63 H 7.158217 -0.320963 -17.507366 0
M  V30 64 H 8.570591 1.121611 -16.054829 0
M  V30 65 H 7.393351 2.334826 -16.498446 0
M  V30 66 H 8.568341 3.986034 -15.495559 0
M  V30 END ATOM
M  V30 BEGIN BOND
M  V30 1 1 2 1
M  V30 2 1 3 2
M  V30 3 1 4 3
M  V30 4 1 5 4
M  V30 5 1 6 5
M  V30 6 1 7 6
M  V30 7 1 8 7
M  V30 8 2 9 8
M  V30 9 1 10 9
M  V30 10 1 11 10
M  V30 11 1 12 11
M  V30 12 2 13 12
M  V30 13 1 14 13
M  V30 14 2 15 14
M  V30 15 1 16 15
M  V30 16 2 17 16
M  V30 17 1 18 16
M  V30 18 1 19 15
M  V30 19 2 20 19
M  V30 20 1 21 20
M  V30 21 1 22 21
M  V30 22 1 23 12
M  V30 23 1 23 19
M  V30 24 2 23 22
M  V30 25 2 24 10
M  V30 26 2 25 7
M  V30 27 1 25 24
M  V30 28 1 26 4
M  V30 29 1 27 26
M  V30 30 1 28 27
M  V30 31 1 29 28
M  V30 32 2 30 29
M  V30 33 1 31 30
M  V30 34 1 32 30
M  V30 35 2 33 32
M  V30 36 1 34 33
M  V30 37 1 35 29
M  V30 38 2 35 34
M  V30 39 1 36 26
M  V30 40 1 36 35
M  V30 41 1 37 1
M  V30 42 1 38 1
M  V30 43 1 39 1
M  V30 44 1 40 2
M  V30 45 1 41 2
M  V30 46 1 42 3
M  V30 47 1 43 3
M  V30 48 1 44 5
M  V30 49 1 45 5
M  V30 50 1 46 6
M  V30 51 1 47 6
M  V30 52 1 48 8
M  V30 53 1 49 9
M  V30 54 1 50 11
M  V30 55 1 51 13
M  V30 56 1 52 14
M  V30 57 1 53 24
M  V30 58 1 54 25
M  V30 59 1 26 55 CFG=1
M  V30 60 1 56 27
M  V30 61 1 57 27
M  V30 62 1 58 28
M  V30 63 1 59 28
M  V30 64 1 60 31
M  V30 65 1 61 32
M  V30 66 1 62 33
M  V30 67 1 63 34
M  V30 68 1 64 36
M  V30 69 1 65 36
M  V30 70 1 4 66 CFG=3
M  V30 END BOND
M  V30 END CTAB
M  END
>  <b_m_subgroup_collapsed>  (1223) 
0

>  <r_i_docking_score>  (1223) 
-7.3418687337055504

>  <s_m_subgroup_title>  (1223) 
glide-dock_SP_D22_pv

>  <s_m_subgroupid>  (1223) 
glide-dock_SP_D22_pv

>  <Molecule ChEMBL ID>  (1223) 
CHEMBL109787

>  <Standard Type>  (1223) 
Ki

>  <Standard Value>  (1223) 
0.45

>  <label>  (1223) 
1

$$$$
CHEMBL553500
     RDKit          3D

  0  0  0  0  0  0  0  0  0  0999 V3000
M  V30 BEGIN CTAB
M  V30 COUNTS 45 48 0 0 1
M  V30 BEGIN ATOM
M  V30 1 O 8.885933 9.053123 -8.379457 0
M  V30 2 C 9.776777 8.576946 -7.687819 0
M  V30 3 C 10.140727 8.964387 -6.361839 0
M  V30 4 C 11.095055 8.132653 -5.955572 0
M  V30 5 C 11.673815 8.166928 -4.611431 0
M  V30 6 C 11.686252 9.372437 -3.880602 0
M  V30 7 C 12.093043 9.370202 -2.537708 0
M  V30 8 C 12.486154 8.171494 -1.920256 0
M  V30 9 C 12.485034 6.968672 -2.650584 0
M  V30 10 C 12.076960 6.967810 -3.996058 0
M  V30 11 O 11.512523 7.256462 -6.928486 0
M  V30 12 C 10.735744 7.476198 -8.113692 0
M  V30 13 C 11.616924 7.959579 -9.284640 0
M  V30 14 C 10.850402 7.939690 -10.622911 0
M  V30 15 N 10.219146 6.642866 -10.899733 0
M  V30 16 C 9.494227 6.799767 -12.158435 0
M  V30 17 C 8.799958 5.562284 -12.698197 0
M  V30 18 C 7.407753 5.410870 -12.529167 0
M  V30 19 C 6.742102 4.307571 -13.100323 0
M  V30 20 C 7.466974 3.357805 -13.846823 0
M  V30 21 C 8.860996 3.493206 -13.993797 0
M  V30 22 C 9.529202 4.592781 -13.418380 0
M  V30 23 C 9.286830 6.276000 -9.830486 0
M  V30 24 C 10.021263 6.166500 -8.485402 0
M  V30 25 H 9.686049 9.752818 -5.793335 0
M  V30 26 H 11.364919 10.299603 -4.331532 0
M  V30 27 H 12.103755 10.288730 -1.975751 0
M  V30 28 H 12.805935 8.174338 -0.890816 0
M  V30 29 H 12.781204 6.043024 -2.175889 0
M  V30 30 H 12.043155 6.037943 -4.544841 0
M  V30 31 H 11.972189 8.972592 -9.093109 0
M  V30 32 H 12.524685 7.372273 -9.366032 0
M  V30 33 H 10.095003 8.727559 -10.622733 0
M  V30 34 H 11.545702 8.176982 -11.430031 0
M  V30 35 H 8.760632 7.605100 -12.075796 0
M  V30 36 H 10.216035 7.105724 -12.914503 0
M  V30 37 H 6.845707 6.145808 -11.968103 0
M  V30 38 H 5.674925 4.200511 -12.975732 0
M  V30 39 H 6.957149 2.516319 -14.292182 0
M  V30 40 H 9.420481 2.759046 -14.554418 0
M  V30 41 H 10.595817 4.702762 -13.545135 0
M  V30 42 H 8.486092 7.009830 -9.770073 0
M  V30 43 H 8.815888 5.318341 -10.051972 0
M  V30 44 H 10.749126 5.357862 -8.534829 0
M  V30 45 H 9.312339 5.886165 -7.704353 0
M  V30 END ATOM
M  V30 BEGIN BOND
M  V30 1 2 2 1
M  V30 2 1 3 2
M  V30 3 2 4 3
M  V30 4 1 5 4
M  V30 5 2 6 5
M  V30 6 1 7 6
M  V30 7 2 8 7
M  V30 8 1 9 8
M  V30 9 1 10 5
M  V30 10 2 10 9
M  V30 11 1 11 4
M  V30 12 1 12 2
M  V30 13 1 12 11
M  V30 14 1 13 12
M  V30 15 1 14 13
M  V30 16 1 15 14
M  V30 17 1 16 15
M  V30 18 1 17 16
M  V30 19 2 18 17
M  V30 20 1 19 18
M  V30 21 2 20 19
M  V30 22 1 21 20
M  V30 23 1 22 17
M  V30 24 2 22 21
M  V30 25 1 23 15
M  V30 26 1 24 12
M  V30 27 1 24 23
M  V30 28 1 25 3
M  V30 29 1 26 6
M  V30 30 1 27 7
M  V30 31 1 28 8
M  V30 32 1 29 9
M  V30 33 1 30 10
M  V30 34 1 31 13
M  V30 35 1 32 13
M  V30 36 1 33 14
M  V30 37 1 34 14
M  V30 38 1 35 16
M  V30 39 1 36 16
M  V30 40 1 37 18
M  V30 41 1 38 19
M  V30 42 1 39 20
M  V30 43 1 40 21
M  V30 44 1 41 22
M  V30 45 1 42 23
M  V30 46 1 43 23
M  V30 47 1 44 24
M  V30 48 1 45 24
M  V30 END BOND
M  V30 END CTAB
M  END
>  <b_m_subgroup_collapsed>  (1224) 
0

>  <r_i_docking_score>  (1224) 
-7.3414134383223804

>  <s_m_subgroup_title>  (1224) 
glide-dock_SP_D22_pv

>  <s_m_subgroupid>  (1224) 
glide-dock_SP_D22_pv

>  <Molecule ChEMBL ID>  (1224) 
CHEMBL553500

>  <Standard Type>  (1224) 
Ki

>  <Standard Value>  (1224) 
10000.0

>  <label>  (1224) 
0

$$$$
CHEMBL3597639
     RDKit          3D

  0  0  0  0  0  0  0  0  0  0999 V3000
M  V30 BEGIN CTAB
M  V30 COUNTS 58 61 0 0 1
M  V30 BEGIN ATOM
M  V30 1 O 9.897108 5.373397 -8.646055 0
M  V30 2 C 10.071700 6.585330 -8.771371 0
M  V30 3 N 9.991584 7.222300 -9.948930 0
M  V30 4 C 9.655255 6.641241 -11.243014 0
M  V30 5 C 8.367436 5.793448 -11.240071 0
M  V30 6 C 7.654456 5.811998 -12.598209 0
M  V30 7 C 8.264293 4.850045 -13.640824 0
M  V30 8 N 7.823090 3.433036 -13.515521 0 CHG=1
M  V30 9 C 6.349982 3.245316 -13.682290 0
M  V30 10 C 5.935555 1.771148 -13.578901 0
M  V30 11 N 6.731103 0.974531 -14.493868 0
M  V30 12 C 6.081988 0.141377 -15.426392 0
M  V30 13 C 5.103636 -0.756590 -14.947289 0
M  V30 14 C 4.364976 -1.560415 -15.833688 0
M  V30 15 C 4.601646 -1.483174 -17.215765 0
M  V30 16 C 5.572815 -0.595278 -17.713303 0
M  V30 17 Cl 5.814696 -0.496945 -19.422632 0
M  V30 18 C 6.313223 0.222503 -16.827440 0
M  V30 19 Cl 7.422113 1.375402 -17.493177 0
M  V30 20 C 8.177469 1.070471 -14.386347 0
M  V30 21 C 8.621282 2.548957 -14.416903 0
M  V30 22 C 10.463868 7.431511 -7.591686 0
M  V30 23 C 10.317512 8.834723 -7.567688 0
M  V30 24 N 10.661366 9.601131 -6.509570 0
M  V30 25 C 11.125045 9.005656 -5.390676 0
M  V30 26 C 11.436236 9.772326 -4.254956 0
M  V30 27 C 11.929656 9.177635 -3.076260 0
M  V30 28 C 12.072601 7.779920 -3.006464 0
M  V30 29 F 12.486090 7.197068 -1.861974 0
M  V30 30 C 11.744791 6.987430 -4.120812 0
M  V30 31 C 11.284800 7.601834 -5.304080 0
M  V30 32 C 10.962921 6.823721 -6.427684 0
M  V30 33 H 10.164031 8.215864 -9.945429 0
M  V30 34 H 9.546825 7.486335 -11.922894 0
M  V30 35 H 10.485885 6.049681 -11.621556 0
M  V30 36 H 8.586460 4.770139 -10.933181 0
M  V30 37 H 7.685825 6.171016 -10.484108 0
M  V30 38 H 6.592124 5.648275 -12.444002 0
M  V30 39 H 7.697037 6.825544 -12.995868 0
M  V30 40 H 8.034367 5.200138 -14.645544 0
M  V30 41 H 9.350922 4.894774 -13.569597 0
M  V30 42 H 5.785577 3.778600 -12.923862 0
M  V30 43 H 6.045242 3.648299 -14.646752 0
M  V30 44 H 6.083973 1.397175 -12.565437 0
M  V30 45 H 4.870103 1.671809 -13.791493 0
M  V30 46 H 4.909529 -0.833431 -13.890302 0
M  V30 47 H 3.613129 -2.238199 -15.454042 0
M  V30 48 H 4.030326 -2.104043 -17.891624 0
M  V30 49 H 8.481319 0.606760 -13.448017 0
M  V30 50 H 8.670554 0.499595 -15.175735 0
M  V30 51 H 8.531652 2.928800 -15.433487 0
M  V30 52 H 9.676542 2.611302 -14.154652 0
M  V30 53 H 9.917668 9.370739 -8.416959 0
M  V30 54 H 11.286306 10.840240 -4.293256 0
M  V30 55 H 12.169450 9.785511 -2.215194 0
M  V30 56 H 11.838400 5.913517 -4.059112 0
M  V30 57 H 11.098242 5.765981 -6.389705 0
M  V30 58 H 8.040254 3.143438 -12.573407 0
M  V30 END ATOM
M  V30 BEGIN BOND
M  V30 1 2 2 1
M  V30 2 1 3 2
M  V30 3 1 4 3
M  V30 4 1 5 4
M  V30 5 1 6 5
M  V30 6 1 7 6
M  V30 7 1 8 7
M  V30 8 1 9 8
M  V30 9 1 10 9
M  V30 10 1 11 10
M  V30 11 1 12 11
M  V30 12 2 13 12
M  V30 13 1 14 13
M  V30 14 2 15 14
M  V30 15 1 16 15
M  V30 16 1 17 16
M  V30 17 1 18 12
M  V30 18 2 18 16
M  V30 19 1 19 18
M  V30 20 1 20 11
M  V30 21 1 21 8
M  V30 22 1 21 20
M  V30 23 1 22 2
M  V30 24 2 23 22
M  V30 25 1 24 23
M  V30 26 2 25 24
M  V30 27 1 26 25
M  V30 28 2 27 26
M  V30 29 1 28 27
M  V30 30 1 29 28
M  V30 31 2 30 28
M  V30 32 1 31 25
M  V30 33 1 31 30
M  V30 34 1 32 22
M  V30 35 2 32 31
M  V30 36 1 33 3
M  V30 37 1 34 4
M  V30 38 1 35 4
M  V30 39 1 36 5
M  V30 40 1 37 5
M  V30 41 1 38 6
M  V30 42 1 39 6
M  V30 43 1 40 7
M  V30 44 1 41 7
M  V30 45 1 42 9
M  V30 46 1 43 9
M  V30 47 1 44 10
M  V30 48 1 45 10
M  V30 49 1 46 13
M  V30 50 1 47 14
M  V30 51 1 48 15
M  V30 52 1 49 20
M  V30 53 1 50 20
M  V30 54 1 51 21
M  V30 55 1 52 21
M  V30 56 1 53 23
M  V30 57 1 54 26
M  V30 58 1 55 27
M  V30 59 1 56 30
M  V30 60 1 57 32
M  V30 61 1 58 8
M  V30 END BOND
M  V30 END CTAB
M  END
>  <b_m_subgroup_collapsed>  (1225) 
0

>  <r_i_docking_score>  (1225) 
-7.3413782757540798

>  <s_m_subgroup_title>  (1225) 
glide-dock_SP_D22_pv

>  <s_m_subgroupid>  (1225) 
glide-dock_SP_D22_pv

>  <Molecule ChEMBL ID>  (1225) 
CHEMBL3597639

>  <Standard Type>  (1225) 
Ki

>  <Standard Value>  (1225) 
39.2

>  <label>  (1225) 
1

$$$$
CHEMBL4084690
     RDKit          3D

  0  0  0  0  0  0  0  0  0  0999 V3000
M  V30 BEGIN CTAB
M  V30 COUNTS 67 71 0 0 1
M  V30 BEGIN ATOM
M  V30 1 O 11.210755 9.156955 -5.837955 0
M  V30 2 C 10.862501 8.735427 -6.938057 0
M  V30 3 C 9.377431 8.455217 -7.222976 0
M  V30 4 C 9.196782 7.322381 -8.249468 0
M  V30 5 C 10.100197 7.525738 -9.447993 0
M  V30 6 C 9.703036 7.149587 -10.744349 0
M  V30 7 C 10.601840 7.286446 -11.820993 0
M  V30 8 C 11.917768 7.767085 -11.604071 0
M  V30 9 O 12.886775 7.847940 -12.585689 0
M  V30 10 C 12.554463 7.751255 -13.973669 0
M  V30 11 C 12.443301 6.307763 -14.492610 0
M  V30 12 C 12.388515 6.227542 -16.031775 0
M  V30 13 C 12.813672 4.867740 -16.640926 0
M  V30 14 N 11.771707 3.804256 -16.662132 0 CFG=2 CHG=1
M  V30 15 C 10.564433 4.173045 -17.446465 0
M  V30 16 C 9.901091 2.927351 -18.060673 0
M  V30 17 C 8.851442 2.262426 -17.159796 0
M  V30 18 N 9.252584 2.182272 -15.759080 0
M  V30 19 C 8.283134 2.576756 -14.817783 0
M  V30 20 C 8.356775 3.861434 -14.234951 0
M  V30 21 C 7.359212 4.312317 -13.356282 0
M  V30 22 C 6.254423 3.494317 -13.072393 0
M  V30 23 O 5.286974 3.953776 -12.234841 0
M  V30 24 C 6.151163 2.208872 -13.643228 0
M  V30 25 O 5.059522 1.420286 -13.330311 0
M  V30 26 C 4.855262 0.172464 -13.849694 0
M  V30 27 O 3.831636 -0.466767 -13.619563 0
M  V30 28 C 5.932281 -0.352267 -14.717601 0
M  V30 29 C 7.010352 0.387352 -15.022066 0
M  V30 30 C 7.175167 1.746177 -14.504977 0
M  V30 31 C 10.631017 1.933897 -15.337942 0
M  V30 32 C 11.513178 3.202054 -15.326350 0
M  V30 33 C 12.288902 8.172437 -10.303857 0
M  V30 34 C 11.378115 8.082028 -9.233859 0
M  V30 35 N 11.740040 8.542573 -7.941058 0
M  V30 36 H 8.849942 8.217672 -6.298886 0
M  V30 37 H 8.934294 9.372092 -7.614620 0
M  V30 38 H 8.161298 7.247950 -8.572042 0
M  V30 39 H 9.443432 6.365092 -7.788548 0
M  V30 40 H 8.712287 6.750114 -10.911410 0
M  V30 41 H 10.262418 6.983886 -12.796558 0
M  V30 42 H 13.363278 8.247450 -14.503717 0
M  V30 43 H 11.678946 8.326485 -14.246423 0
M  V30 44 H 11.561348 5.849211 -14.059899 0
M  V30 45 H 13.285878 5.726439 -14.133929 0
M  V30 46 H 13.092879 6.965194 -16.420383 0
M  V30 47 H 11.413198 6.553108 -16.395901 0
M  V30 48 H 13.710747 4.492660 -16.148214 0
M  V30 49 H 13.114174 5.040112 -17.675974 0
M  V30 50 H 10.867934 4.822412 -18.269365 0
M  V30 51 H 9.861649 4.753138 -16.846012 0
M  V30 52 H 10.663456 2.202108 -18.347233 0
M  V30 53 H 9.408543 3.208920 -18.991457 0
M  V30 54 H 8.626940 1.260066 -17.530281 0
M  V30 55 H 7.922471 2.829773 -17.233112 0
M  V30 56 H 9.143547 4.551215 -14.483652 0
M  V30 57 H 7.428753 5.300161 -12.925616 0
M  V30 58 H 5.560359 4.674666 -11.687648 0
M  V30 59 H 5.830441 -1.356264 -15.105514 0
M  V30 60 H 7.784982 -0.027684 -15.649574 0
M  V30 61 H 10.611784 1.498330 -14.337733 0
M  V30 62 H 11.071352 1.175293 -15.987357 0
M  V30 63 H 12.485265 2.971596 -14.895367 0
M  V30 64 H 11.082496 3.922555 -14.651757 0
M  V30 65 H 13.279029 8.571008 -10.139198 0
M  V30 66 H 12.704013 8.799459 -7.783815 0
M  V30 67 H 12.199583 3.058609 -17.192146 0
M  V30 END ATOM
M  V30 BEGIN BOND
M  V30 1 2 2 1
M  V30 2 1 3 2
M  V30 3 1 4 3
M  V30 4 1 5 4
M  V30 5 1 6 5
M  V30 6 2 7 6
M  V30 7 1 8 7
M  V30 8 1 9 8
M  V30 9 1 10 9
M  V30 10 1 11 10
M  V30 11 1 12 11
M  V30 12 1 13 12
M  V30 13 1 14 13
M  V30 14 1 15 14
M  V30 15 1 16 15
M  V30 16 1 17 16
M  V30 17 1 18 17
M  V30 18 1 19 18
M  V30 19 1 20 19
M  V30 20 2 21 20
M  V30 21 1 22 21
M  V30 22 1 23 22
M  V30 23 2 24 22
M  V30 24 1 25 24
M  V30 25 1 26 25
M  V30 26 2 27 26
M  V30 27 1 28 26
M  V30 28 2 29 28
M  V30 29 2 30 19
M  V30 30 1 30 24
M  V30 31 1 30 29
M  V30 32 1 31 18
M  V30 33 1 32 14
M  V30 34 1 32 31
M  V30 35 2 33 8
M  V30 36 2 34 5
M  V30 37 1 34 33
M  V30 38 1 35 2
M  V30 39 1 35 34
M  V30 40 1 36 3
M  V30 41 1 37 3
M  V30 42 1 38 4
M  V30 43 1 39 4
M  V30 44 1 40 6
M  V30 45 1 41 7
M  V30 46 1 42 10
M  V30 47 1 43 10
M  V30 48 1 44 11
M  V30 49 1 45 11
M  V30 50 1 46 12
M  V30 51 1 47 12
M  V30 52 1 48 13
M  V30 53 1 49 13
M  V30 54 1 50 15
M  V30 55 1 51 15
M  V30 56 1 52 16
M  V30 57 1 53 16
M  V30 58 1 54 17
M  V30 59 1 55 17
M  V30 60 1 56 20
M  V30 61 1 57 21
M  V30 62 1 58 23
M  V30 63 1 59 28
M  V30 64 1 60 29
M  V30 65 1 61 31
M  V30 66 1 62 31
M  V30 67 1 63 32
M  V30 68 1 64 32
M  V30 69 1 65 33
M  V30 70 1 66 35
M  V30 71 1 14 67 CFG=3
M  V30 END BOND
M  V30 END CTAB
M  END
>  <b_m_subgroup_collapsed>  (1226) 
0

>  <r_i_docking_score>  (1226) 
-7.3390948287641704

>  <s_m_subgroup_title>  (1226) 
glide-dock_SP_D22_pv

>  <s_m_subgroupid>  (1226) 
glide-dock_SP_D22_pv

>  <Molecule ChEMBL ID>  (1226) 
CHEMBL4084690

>  <Standard Type>  (1226) 
Ki

>  <Standard Value>  (1226) 
37.0

>  <label>  (1226) 
1

$$$$
CHEMBL519201
     RDKit          3D

  0  0  0  0  0  0  0  0  0  0999 V3000
M  V30 BEGIN CTAB
M  V30 COUNTS 47 50 0 0 1
M  V30 BEGIN ATOM
M  V30 1 C 10.395769 4.959921 -14.420231 0
M  V30 2 C 9.353437 5.327848 -13.357981 0
M  V30 3 C 9.997940 5.690154 -12.006594 0
M  V30 4 N 8.997150 6.239382 -11.047798 0 CFG=1 CHG=1
M  V30 5 C 8.088551 5.219362 -10.481433 0
M  V30 6 C 8.685287 4.551371 -9.221855 0
M  V30 7 O 9.037267 5.521585 -8.248660 0
M  V30 8 C 10.045815 6.392109 -8.736950 0 CFG=2
M  V30 9 C 10.559957 7.338399 -7.648055 0
M  V30 10 C 10.820789 6.830491 -6.349285 0
M  V30 11 C 11.286895 7.725214 -5.367347 0
M  V30 12 C 11.497442 9.058276 -5.640890 0
M  V30 13 C 11.273198 9.585512 -6.913436 0
M  V30 14 C 10.811122 8.715688 -7.931843 0
M  V30 15 C 10.541071 9.295551 -9.311841 0
M  V30 16 C 10.441976 8.249575 -10.421060 0
M  V30 17 C 9.484147 7.143792 -9.965264 0 CFG=1
M  V30 18 C 12.010367 9.747073 -4.407389 0
M  V30 19 N 12.080345 8.641490 -3.444175 0
M  V30 20 C 12.502968 8.869969 -2.070092 0
M  V30 21 C 11.692793 7.457399 -3.966497 0
M  V30 22 O 11.685854 6.367121 -3.409416 0
M  V30 23 H 9.910616 4.706611 -15.364178 0
M  V30 24 H 10.989532 4.099065 -14.109052 0
M  V30 25 H 11.078371 5.788646 -14.613883 0
M  V30 26 H 8.748392 6.161314 -13.720064 0
M  V30 27 H 8.670530 4.485517 -13.244695 0
M  V30 28 H 10.485991 4.806927 -11.592793 0
M  V30 29 H 10.782732 6.417659 -12.209536 0
M  V30 30 H 7.186026 5.772257 -10.246863 0
M  V30 31 H 7.793276 4.467154 -11.212506 0
M  V30 32 H 7.977963 3.854836 -8.775698 0
M  V30 33 H 9.567343 3.961767 -9.477556 0
M  V30 34 H 10.890150 5.781243 -9.045296 0
M  V30 35 H 10.672475 5.784096 -6.120927 0
M  V30 36 H 11.448428 10.634985 -7.077599 0
M  V30 37 H 9.566664 9.772360 -9.248542 0
M  V30 38 H 11.285149 10.054922 -9.559118 0
M  V30 39 H 10.086565 8.717908 -11.339234 0
M  V30 40 H 11.433945 7.841950 -10.622032 0
M  V30 41 H 8.581198 7.648411 -9.614785 0
M  V30 42 H 12.999863 10.169735 -4.589995 0
M  V30 43 H 11.318502 10.524923 -4.077047 0
M  V30 44 H 12.197580 8.044729 -1.429621 0
M  V30 45 H 12.062552 9.779763 -1.671421 0
M  V30 46 H 13.582937 8.969515 -2.003823 0
M  V30 47 H 8.396918 6.835403 -11.604566 0
M  V30 END ATOM
M  V30 BEGIN BOND
M  V30 1 1 2 1
M  V30 2 1 3 2
M  V30 3 1 4 3
M  V30 4 1 5 4
M  V30 5 1 6 5
M  V30 6 1 7 6
M  V30 7 1 8 7
M  V30 8 1 9 8
M  V30 9 1 10 9
M  V30 10 2 11 10
M  V30 11 1 12 11
M  V30 12 2 13 12
M  V30 13 2 14 9
M  V30 14 1 14 13
M  V30 15 1 15 14
M  V30 16 1 16 15
M  V30 17 1 17 4
M  V30 18 1 17 8
M  V30 19 1 17 16
M  V30 20 1 18 12
M  V30 21 1 19 18
M  V30 22 1 20 19
M  V30 23 1 21 11
M  V30 24 1 21 19
M  V30 25 2 22 21
M  V30 26 1 23 1
M  V30 27 1 24 1
M  V30 28 1 25 1
M  V30 29 1 26 2
M  V30 30 1 27 2
M  V30 31 1 28 3
M  V30 32 1 29 3
M  V30 33 1 30 5
M  V30 34 1 31 5
M  V30 35 1 32 6
M  V30 36 1 33 6
M  V30 37 1 8 34 CFG=3
M  V30 38 1 35 10
M  V30 39 1 36 13
M  V30 40 1 37 15
M  V30 41 1 38 15
M  V30 42 1 39 16
M  V30 43 1 40 16
M  V30 44 1 17 41 CFG=1
M  V30 45 1 42 18
M  V30 46 1 43 18
M  V30 47 1 44 20
M  V30 48 1 45 20
M  V30 49 1 46 20
M  V30 50 1 4 47 CFG=3
M  V30 END BOND
M  V30 END CTAB
M  END
>  <b_m_subgroup_collapsed>  (1227) 
0

>  <r_i_docking_score>  (1227) 
-7.3382640736114899

>  <s_m_subgroup_title>  (1227) 
glide-dock_SP_D22_pv

>  <s_m_subgroupid>  (1227) 
glide-dock_SP_D22_pv

>  <Molecule ChEMBL ID>  (1227) 
CHEMBL519201

>  <Standard Type>  (1227) 
Ki

>  <Standard Value>  (1227) 
10000.0

>  <label>  (1227) 
0

$$$$
CHEMBL201577
     RDKit          3D

  0  0  0  0  0  0  0  0  0  0999 V3000
M  V30 BEGIN CTAB
M  V30 COUNTS 47 49 0 0 1
M  V30 BEGIN ATOM
M  V30 1 O 10.039211 6.755278 -10.450867 0
M  V30 2 C 9.357154 5.860368 -9.948790 0
M  V30 3 C 9.061653 4.572716 -10.718932 0
M  V30 4 C 9.309261 4.634143 -12.243836 0
M  V30 5 C 8.202979 5.336782 -13.063880 0
M  V30 6 C 6.837577 4.630853 -13.034405 0
M  V30 7 O 5.856550 5.257132 -12.636059 0
M  V30 8 C 6.755260 3.218335 -13.493005 0
M  V30 9 C 7.706149 2.656240 -14.378488 0
M  V30 10 C 7.603470 1.310065 -14.777286 0
M  V30 11 C 6.541292 0.510306 -14.308872 0
M  V30 12 C 5.578911 1.064901 -13.446610 0
M  V30 13 C 5.684500 2.412965 -13.044363 0
M  V30 14 N 8.888187 5.904278 -8.692385 0
M  V30 15 C 9.158262 6.972771 -7.739204 0
M  V30 16 C 10.584794 6.853960 -7.167790 0
M  V30 17 C 10.932671 7.964702 -6.229194 0
M  V30 18 C 10.886262 9.300874 -6.520449 0
M  V30 19 N 11.286066 10.025209 -5.408278 0
M  V30 20 C 11.624897 9.174800 -4.372705 0
M  V30 21 C 12.085749 9.405737 -3.064697 0
M  V30 22 C 12.348194 8.314008 -2.218675 0
M  V30 23 C 12.142903 7.002467 -2.685030 0
M  V30 24 C 11.685975 6.783580 -4.000254 0
M  V30 25 C 11.406620 7.859412 -4.875811 0
M  V30 26 H 8.046643 4.240188 -10.503401 0
M  V30 27 H 9.728771 3.819073 -10.303513 0
M  V30 28 H 9.453808 3.615181 -12.602771 0
M  V30 29 H 10.258832 5.133645 -12.443816 0
M  V30 30 H 8.517233 5.433963 -14.103332 0
M  V30 31 H 8.069103 6.355987 -12.695524 0
M  V30 32 H 8.526115 3.247771 -14.758046 0
M  V30 33 H 8.340840 0.886304 -15.442874 0
M  V30 34 H 6.470709 -0.526716 -14.613285 0
M  V30 35 H 4.760259 0.458771 -13.090818 0
M  V30 36 H 4.939260 2.818778 -12.375634 0
M  V30 37 H 8.282544 5.157529 -8.385937 0
M  V30 38 H 9.003970 7.936871 -8.227636 0
M  V30 39 H 8.423572 6.913041 -6.934103 0
M  V30 40 H 10.690817 5.893242 -6.665002 0
M  V30 41 H 11.306609 6.842639 -7.985088 0
M  V30 42 H 10.594904 9.773535 -7.445263 0
M  V30 43 H 11.335351 11.035102 -5.394943 0
M  V30 44 H 12.227307 10.412296 -2.700845 0
M  V30 45 H 12.695776 8.485238 -1.210980 0
M  V30 46 H 12.338092 6.157946 -2.040325 0
M  V30 47 H 11.529922 5.772870 -4.347115 0
M  V30 END ATOM
M  V30 BEGIN BOND
M  V30 1 2 2 1
M  V30 2 1 3 2
M  V30 3 1 4 3
M  V30 4 1 5 4
M  V30 5 1 6 5
M  V30 6 2 7 6
M  V30 7 1 8 6
M  V30 8 2 9 8
M  V30 9 1 10 9
M  V30 10 2 11 10
M  V30 11 1 12 11
M  V30 12 1 13 8
M  V30 13 2 13 12
M  V30 14 1 14 2
M  V30 15 1 15 14
M  V30 16 1 16 15
M  V30 17 1 17 16
M  V30 18 2 18 17
M  V30 19 1 19 18
M  V30 20 1 20 19
M  V30 21 2 21 20
M  V30 22 1 22 21
M  V30 23 2 23 22
M  V30 24 1 24 23
M  V30 25 1 25 17
M  V30 26 1 25 20
M  V30 27 2 25 24
M  V30 28 1 26 3
M  V30 29 1 27 3
M  V30 30 1 28 4
M  V30 31 1 29 4
M  V30 32 1 30 5
M  V30 33 1 31 5
M  V30 34 1 32 9
M  V30 35 1 33 10
M  V30 36 1 34 11
M  V30 37 1 35 12
M  V30 38 1 36 13
M  V30 39 1 37 14
M  V30 40 1 38 15
M  V30 41 1 39 15
M  V30 42 1 40 16
M  V30 43 1 41 16
M  V30 44 1 42 18
M  V30 45 1 43 19
M  V30 46 1 44 21
M  V30 47 1 45 22
M  V30 48 1 46 23
M  V30 49 1 47 24
M  V30 END BOND
M  V30 END CTAB
M  END
>  <b_m_subgroup_collapsed>  (1228) 
0

>  <r_i_docking_score>  (1228) 
-7.3382035247558104

>  <s_m_subgroup_title>  (1228) 
glide-dock_SP_D22_pv

>  <s_m_subgroupid>  (1228) 
glide-dock_SP_D22_pv

>  <Molecule ChEMBL ID>  (1228) 
CHEMBL201577

>  <Standard Type>  (1228) 
Ki

>  <Standard Value>  (1228) 
10000.0

>  <label>  (1228) 
0

$$$$
CHEMBL5855629
     RDKit          3D

  0  0  0  0  0  0  0  0  0  0999 V3000
M  V30 BEGIN CTAB
M  V30 COUNTS 61 64 0 0 1
M  V30 BEGIN ATOM
M  V30 1 C 8.621898 6.172371 -8.658957 0
M  V30 2 N 9.688951 6.902043 -9.325363 0
M  V30 3 C 9.912560 7.046789 -10.648514 0
M  V30 4 S 8.867125 6.361689 -11.890166 0
M  V30 5 C 9.983570 5.112380 -12.582486 0
M  V30 6 C 10.994485 5.677061 -13.609729 0
M  V30 7 C 12.079573 4.669325 -14.046844 0
M  V30 8 N 11.760633 3.770809 -15.161298 0
M  V30 9 C 11.773686 4.405701 -16.471104 0
M  V30 10 C 11.551130 3.366163 -17.584820 0
M  V30 11 O 10.327911 2.666086 -17.361334 0
M  V30 12 C 10.268421 1.989719 -16.102089 0 CFG=2
M  V30 13 C 8.926641 1.295236 -15.886500 0
M  V30 14 C 7.944225 1.255333 -16.901775 0
M  V30 15 C 6.694701 0.645866 -16.663931 0
M  V30 16 C 6.406165 0.079335 -15.402369 0
M  V30 17 C 5.069199 -0.583587 -15.107734 0
M  V30 18 F 5.285264 -1.827344 -14.685908 0
M  V30 19 F 4.439710 0.087221 -14.142161 0
M  V30 20 F 4.282309 -0.628002 -16.183002 0
M  V30 21 C 7.385275 0.120143 -14.391380 0
M  V30 22 C 8.641109 0.700866 -14.639430 0
M  V30 23 C 10.526239 3.021939 -14.984722 0
M  V30 24 N 10.992127 7.773706 -10.930847 0
M  V30 25 N 11.505537 8.153001 -9.717433 0
M  V30 26 C 10.701135 7.622613 -8.788638 0
M  V30 27 C 10.958561 7.842351 -7.366692 0
M  V30 28 C 10.943693 6.780950 -6.438519 0
M  V30 29 C 11.286044 7.010628 -5.090054 0
M  V30 30 C 11.655455 8.303277 -4.648626 0
M  V30 31 C 12.109422 8.512808 -3.229627 0
M  V30 32 N 12.085835 9.765367 -2.772734 0
M  V30 33 O 12.468649 7.573413 -2.524163 0
M  V30 34 C 11.642817 9.368937 -5.579664 0
M  V30 35 C 11.286592 9.138668 -6.920805 0
M  V30 36 H 8.933104 5.142600 -8.483755 0
M  V30 37 H 8.382548 6.641720 -7.705443 0
M  V30 38 H 7.718275 6.169065 -9.269568 0
M  V30 39 H 10.485720 4.600482 -11.766886 0
M  V30 40 H 9.337232 4.365876 -13.034794 0
M  V30 41 H 10.483338 6.083406 -14.479742 0
M  V30 42 H 11.512586 6.521791 -13.160487 0
M  V30 43 H 12.976324 5.231354 -14.311994 0
M  V30 44 H 12.376996 4.081266 -13.181252 0
M  V30 45 H 10.998142 5.170154 -16.528530 0
M  V30 46 H 12.726816 4.910651 -16.631083 0
M  V30 47 H 11.507832 3.855921 -18.557409 0
M  V30 48 H 12.379568 2.657132 -17.619137 0
M  V30 49 H 11.046935 1.224985 -16.080229 0
M  V30 50 H 8.140046 1.694329 -17.868835 0
M  V30 51 H 5.957800 0.622361 -17.452913 0
M  V30 52 H 7.178382 -0.318665 -13.426197 0
M  V30 53 H 9.375488 0.702275 -13.848548 0
M  V30 54 H 10.542799 2.533820 -14.010324 0
M  V30 55 H 9.682586 3.710773 -14.994067 0
M  V30 56 H 10.705265 5.777068 -6.761228 0
M  V30 57 H 11.290827 6.176162 -4.402177 0
M  V30 58 H 11.745964 10.514297 -3.353999 0
M  V30 59 H 12.438048 9.962905 -1.846472 0
M  V30 60 H 11.929441 10.369399 -5.294357 0
M  V30 61 H 11.292525 9.959733 -7.621263 0
M  V30 END ATOM
M  V30 BEGIN BOND
M  V30 1 1 2 1
M  V30 2 1 3 2
M  V30 3 1 4 3
M  V30 4 1 5 4
M  V30 5 1 6 5
M  V30 6 1 7 6
M  V30 7 1 8 7
M  V30 8 1 9 8
M  V30 9 1 10 9
M  V30 10 1 11 10
M  V30 11 1 12 11
M  V30 12 1 13 12
M  V30 13 1 14 13
M  V30 14 2 15 14
M  V30 15 1 16 15
M  V30 16 1 17 16
M  V30 17 1 18 17
M  V30 18 1 19 17
M  V30 19 1 20 17
M  V30 20 2 21 16
M  V30 21 2 22 13
M  V30 22 1 22 21
M  V30 23 1 23 8
M  V30 24 1 23 12
M  V30 25 2 24 3
M  V30 26 1 25 24
M  V30 27 1 26 2
M  V30 28 2 26 25
M  V30 29 1 27 26
M  V30 30 1 28 27
M  V30 31 2 29 28
M  V30 32 1 30 29
M  V30 33 1 31 30
M  V30 34 1 32 31
M  V30 35 2 33 31
M  V30 36 2 34 30
M  V30 37 2 35 27
M  V30 38 1 35 34
M  V30 39 1 36 1
M  V30 40 1 37 1
M  V30 41 1 38 1
M  V30 42 1 39 5
M  V30 43 1 40 5
M  V30 44 1 41 6
M  V30 45 1 42 6
M  V30 46 1 43 7
M  V30 47 1 44 7
M  V30 48 1 45 9
M  V30 49 1 46 9
M  V30 50 1 47 10
M  V30 51 1 48 10
M  V30 52 1 12 49 CFG=3
M  V30 53 1 50 14
M  V30 54 1 51 15
M  V30 55 1 52 21
M  V30 56 1 53 22
M  V30 57 1 54 23
M  V30 58 1 55 23
M  V30 59 1 56 28
M  V30 60 1 57 29
M  V30 61 1 58 32
M  V30 62 1 59 32
M  V30 63 1 60 34
M  V30 64 1 61 35
M  V30 END BOND
M  V30 END CTAB
M  END
>  <b_m_subgroup_collapsed>  (1229) 
0

>  <r_i_docking_score>  (1229) 
-7.3377480267259996

>  <s_m_subgroup_title>  (1229) 
glide-dock_SP_D22_pv

>  <s_m_subgroupid>  (1229) 
glide-dock_SP_D22_pv

>  <Molecule ChEMBL ID>  (1229) 
CHEMBL5855629

>  <Standard Type>  (1229) 
Ki

>  <Standard Value>  (1229) 
13804.0

>  <label>  (1229) 
0

$$$$
CHEMBL3765426
     RDKit          3D

  0  0  0  0  0  0  0  0  0  0999 V3000
M  V30 BEGIN CTAB
M  V30 COUNTS 61 64 0 0 1
M  V30 BEGIN ATOM
M  V30 1 C 8.621898 6.172371 -8.658957 0
M  V30 2 N 9.688951 6.902043 -9.325363 0
M  V30 3 C 9.912560 7.046789 -10.648514 0
M  V30 4 S 8.867125 6.361689 -11.890166 0
M  V30 5 C 9.983570 5.112380 -12.582486 0
M  V30 6 C 10.994485 5.677061 -13.609729 0
M  V30 7 C 12.079573 4.669325 -14.046844 0
M  V30 8 N 11.760633 3.770809 -15.161298 0
M  V30 9 C 11.773686 4.405701 -16.471104 0
M  V30 10 C 11.551130 3.366163 -17.584820 0
M  V30 11 O 10.327911 2.666086 -17.361334 0
M  V30 12 C 10.268421 1.989719 -16.102089 0 CFG=2
M  V30 13 C 8.926641 1.295236 -15.886500 0
M  V30 14 C 7.944225 1.255333 -16.901775 0
M  V30 15 C 6.694701 0.645866 -16.663931 0
M  V30 16 C 6.406165 0.079335 -15.402369 0
M  V30 17 C 5.069199 -0.583587 -15.107734 0
M  V30 18 F 5.285264 -1.827344 -14.685908 0
M  V30 19 F 4.439710 0.087221 -14.142161 0
M  V30 20 F 4.282309 -0.628002 -16.183002 0
M  V30 21 C 7.385275 0.120143 -14.391380 0
M  V30 22 C 8.641109 0.700866 -14.639430 0
M  V30 23 C 10.526239 3.021939 -14.984722 0
M  V30 24 N 10.992127 7.773706 -10.930847 0
M  V30 25 N 11.505537 8.153001 -9.717433 0
M  V30 26 C 10.701135 7.622613 -8.788638 0
M  V30 27 C 10.958561 7.842351 -7.366692 0
M  V30 28 C 10.943693 6.780950 -6.438519 0
M  V30 29 C 11.286044 7.010628 -5.090054 0
M  V30 30 C 11.655455 8.303277 -4.648626 0
M  V30 31 C 12.109422 8.512808 -3.229627 0
M  V30 32 N 12.085835 9.765367 -2.772734 0
M  V30 33 O 12.468649 7.573413 -2.524163 0
M  V30 34 C 11.642817 9.368937 -5.579664 0
M  V30 35 C 11.286592 9.138668 -6.920805 0
M  V30 36 H 8.933104 5.142600 -8.483755 0
M  V30 37 H 8.382548 6.641720 -7.705443 0
M  V30 38 H 7.718275 6.169065 -9.269568 0
M  V30 39 H 10.485720 4.600482 -11.766886 0
M  V30 40 H 9.337232 4.365876 -13.034794 0
M  V30 41 H 10.483338 6.083406 -14.479742 0
M  V30 42 H 11.512586 6.521791 -13.160487 0
M  V30 43 H 12.976324 5.231354 -14.311994 0
M  V30 44 H 12.376996 4.081266 -13.181252 0
M  V30 45 H 10.998142 5.170154 -16.528530 0
M  V30 46 H 12.726816 4.910651 -16.631083 0
M  V30 47 H 11.507832 3.855921 -18.557409 0
M  V30 48 H 12.379568 2.657132 -17.619137 0
M  V30 49 H 11.046935 1.224985 -16.080229 0
M  V30 50 H 8.140046 1.694329 -17.868835 0
M  V30 51 H 5.957800 0.622361 -17.452913 0
M  V30 52 H 7.178382 -0.318665 -13.426197 0
M  V30 53 H 9.375488 0.702275 -13.848548 0
M  V30 54 H 10.542799 2.533820 -14.010324 0
M  V30 55 H 9.682586 3.710773 -14.994067 0
M  V30 56 H 10.705265 5.777068 -6.761228 0
M  V30 57 H 11.290827 6.176162 -4.402177 0
M  V30 58 H 11.745964 10.514297 -3.353999 0
M  V30 59 H 12.438048 9.962905 -1.846472 0
M  V30 60 H 11.929441 10.369399 -5.294357 0
M  V30 61 H 11.292525 9.959733 -7.621263 0
M  V30 END ATOM
M  V30 BEGIN BOND
M  V30 1 1 2 1
M  V30 2 1 3 2
M  V30 3 1 4 3
M  V30 4 1 5 4
M  V30 5 1 6 5
M  V30 6 1 7 6
M  V30 7 1 8 7
M  V30 8 1 9 8
M  V30 9 1 10 9
M  V30 10 1 11 10
M  V30 11 1 12 11
M  V30 12 1 13 12
M  V30 13 1 14 13
M  V30 14 2 15 14
M  V30 15 1 16 15
M  V30 16 1 17 16
M  V30 17 1 18 17
M  V30 18 1 19 17
M  V30 19 1 20 17
M  V30 20 2 21 16
M  V30 21 2 22 13
M  V30 22 1 22 21
M  V30 23 1 23 8
M  V30 24 1 23 12
M  V30 25 2 24 3
M  V30 26 1 25 24
M  V30 27 1 26 2
M  V30 28 2 26 25
M  V30 29 1 27 26
M  V30 30 1 28 27
M  V30 31 2 29 28
M  V30 32 1 30 29
M  V30 33 1 31 30
M  V30 34 1 32 31
M  V30 35 2 33 31
M  V30 36 2 34 30
M  V30 37 2 35 27
M  V30 38 1 35 34
M  V30 39 1 36 1
M  V30 40 1 37 1
M  V30 41 1 38 1
M  V30 42 1 39 5
M  V30 43 1 40 5
M  V30 44 1 41 6
M  V30 45 1 42 6
M  V30 46 1 43 7
M  V30 47 1 44 7
M  V30 48 1 45 9
M  V30 49 1 46 9
M  V30 50 1 47 10
M  V30 51 1 48 10
M  V30 52 1 12 49 CFG=3
M  V30 53 1 50 14
M  V30 54 1 51 15
M  V30 55 1 52 21
M  V30 56 1 53 22
M  V30 57 1 54 23
M  V30 58 1 55 23
M  V30 59 1 56 28
M  V30 60 1 57 29
M  V30 61 1 58 32
M  V30 62 1 59 32
M  V30 63 1 60 34
M  V30 64 1 61 35
M  V30 END BOND
M  V30 END CTAB
M  END
>  <b_m_subgroup_collapsed>  (1230) 
0

>  <r_i_docking_score>  (1230) 
-7.3377480267259996

>  <s_m_subgroup_title>  (1230) 
glide-dock_SP_D22_pv

>  <s_m_subgroupid>  (1230) 
glide-dock_SP_D22_pv

>  <Molecule ChEMBL ID>  (1230) 
CHEMBL3765426

>  <Standard Type>  (1230) 
Ki

>  <Standard Value>  (1230) 
10000.0

>  <label>  (1230) 
0

$$$$
CHEMBL405345
     RDKit          3D

  0  0  0  0  0  0  0  0  0  0999 V3000
M  V30 BEGIN CTAB
M  V30 COUNTS 47 50 0 0 1
M  V30 BEGIN ATOM
M  V30 1 C 5.286019 3.413985 -12.477336 0
M  V30 2 C 5.905482 4.422669 -13.446840 0
M  V30 3 C 6.960805 5.313104 -12.765133 0
M  V30 4 N 8.123588 4.572329 -12.193823 0 CFG=1 CHG=1
M  V30 5 C 8.748690 3.570491 -13.085358 0
M  V30 6 C 9.420056 4.264614 -14.259766 0
M  V30 7 C 10.417890 5.335579 -13.859232 0
M  V30 8 C 11.444541 5.788034 -14.697611 0
M  V30 9 C 12.287221 6.832337 -14.271066 0
M  V30 10 O 13.286017 7.378538 -15.045397 0
M  V30 11 C 13.508365 6.840838 -16.340096 0
M  V30 12 C 12.108498 7.372325 -12.982292 0
M  V30 13 C 11.098074 6.972210 -12.072330 0
M  V30 14 C 10.257831 5.939888 -12.580688 0
M  V30 15 C 9.180906 5.432768 -11.599521 0 CFG=1
M  V30 16 C 8.605786 6.572080 -10.748031 0
M  V30 17 C 9.694245 7.338562 -10.040820 0
M  V30 18 C 9.453984 7.826889 -8.739945 0
M  V30 19 C 10.478254 8.459806 -8.023063 0
M  V30 20 C 11.748567 8.572328 -8.605496 0
M  V30 21 C 11.984013 8.092789 -9.909166 0
M  V30 22 O 13.261543 8.172325 -10.362891 0
M  V30 23 C 10.945618 7.498752 -10.679977 0
M  V30 24 H 4.472902 2.864893 -12.951417 0
M  V30 25 H 4.886487 3.935800 -11.608875 0
M  V30 26 H 6.011249 2.683196 -12.122161 0
M  V30 27 H 6.307950 3.911995 -14.320222 0
M  V30 28 H 5.110188 5.061805 -13.831980 0
M  V30 29 H 7.328887 6.075534 -13.446864 0
M  V30 30 H 6.446114 5.850351 -11.967260 0
M  V30 31 H 9.497352 3.007254 -12.524687 0
M  V30 32 H 8.034220 2.832728 -13.446866 0
M  V30 33 H 9.938318 3.519226 -14.864339 0
M  V30 34 H 8.678992 4.720233 -14.916378 0
M  V30 35 H 11.546914 5.340772 -15.674537 0
M  V30 36 H 14.335308 7.372111 -16.811064 0
M  V30 37 H 12.632081 6.962938 -16.978218 0
M  V30 38 H 13.779705 5.785321 -16.291849 0
M  V30 39 H 12.788909 8.162175 -12.707353 0
M  V30 40 H 9.718492 4.775863 -10.912860 0
M  V30 41 H 8.086043 7.284863 -11.391979 0
M  V30 42 H 7.898389 6.172322 -10.019288 0
M  V30 43 H 8.486022 7.697883 -8.278757 0
M  V30 44 H 10.298595 8.823525 -7.022112 0
M  V30 45 H 12.556417 9.009275 -8.036954 0
M  V30 46 H 13.632634 9.046982 -10.230331 0
M  V30 47 H 7.732028 4.055309 -11.418457 0
M  V30 END ATOM
M  V30 BEGIN BOND
M  V30 1 1 2 1
M  V30 2 1 3 2
M  V30 3 1 4 3
M  V30 4 1 5 4
M  V30 5 1 6 5
M  V30 6 1 7 6
M  V30 7 1 8 7
M  V30 8 2 9 8
M  V30 9 1 10 9
M  V30 10 1 11 10
M  V30 11 1 12 9
M  V30 12 2 13 12
M  V30 13 2 14 7
M  V30 14 1 14 13
M  V30 15 1 15 4
M  V30 16 1 15 14
M  V30 17 1 16 15
M  V30 18 1 17 16
M  V30 19 2 18 17
M  V30 20 1 19 18
M  V30 21 2 20 19
M  V30 22 1 21 20
M  V30 23 1 22 21
M  V30 24 1 23 13
M  V30 25 1 23 17
M  V30 26 2 23 21
M  V30 27 1 24 1
M  V30 28 1 25 1
M  V30 29 1 26 1
M  V30 30 1 27 2
M  V30 31 1 28 2
M  V30 32 1 29 3
M  V30 33 1 30 3
M  V30 34 1 31 5
M  V30 35 1 32 5
M  V30 36 1 33 6
M  V30 37 1 34 6
M  V30 38 1 35 8
M  V30 39 1 36 11
M  V30 40 1 37 11
M  V30 41 1 38 11
M  V30 42 1 39 12
M  V30 43 1 15 40 CFG=1
M  V30 44 1 41 16
M  V30 45 1 42 16
M  V30 46 1 43 18
M  V30 47 1 44 19
M  V30 48 1 45 20
M  V30 49 1 46 22
M  V30 50 1 4 47 CFG=1
M  V30 END BOND
M  V30 END CTAB
M  END
>  <b_m_subgroup_collapsed>  (1231) 
0

>  <r_i_docking_score>  (1231) 
-7.3352171497049499

>  <s_m_subgroup_title>  (1231) 
glide-dock_SP_D22_pv

>  <s_m_subgroupid>  (1231) 
glide-dock_SP_D22_pv

>  <Molecule ChEMBL ID>  (1231) 
CHEMBL405345

>  <Standard Type>  (1231) 
Ki

>  <Standard Value>  (1231) 
44.0

>  <label>  (1231) 
1

$$$$
CHEMBL2397477
     RDKit          3D

  0  0  0  0  0  0  0  0  0  0999 V3000
M  V30 BEGIN CTAB
M  V30 COUNTS 88 90 0 0 1
M  V30 BEGIN ATOM
M  V30 1 C 12.863770 8.572517 -1.657154 0
M  V30 2 C 12.427676 8.403154 -2.785263 0
M  V30 3 C 11.948271 8.267047 -4.124404 0
M  V30 4 C 11.649364 7.057508 -4.626229 0
M  V30 5 C 11.154353 6.819491 -6.044127 0
M  V30 6 C 10.766373 8.108136 -6.816004 0 CFG=2
M  V30 7 N 10.573218 7.812852 -8.290730 0 CFG=2 CHG=1
M  V30 8 C 11.208035 8.762753 -9.263772 0
M  V30 9 C 11.800479 8.083970 -10.516601 0
M  V30 10 C 10.821765 7.772434 -11.651995 0
M  V30 11 C 9.143683 7.544223 -8.640797 0
M  V30 12 C 8.736358 6.060110 -8.504218 0
M  V30 13 C 8.940893 5.191859 -9.753693 0
M  V30 14 C 8.003546 5.518559 -10.936358 0
M  V30 15 N 8.295276 4.637285 -12.059374 0
M  V30 16 C 7.418629 4.289849 -13.013876 0
M  V30 17 O 6.241287 4.653028 -13.030998 0
M  V30 18 C 7.948667 3.349808 -14.056559 0
M  V30 19 C 7.084323 2.409198 -14.646710 0
M  V30 20 C 7.539191 1.579782 -15.684770 0
M  V30 21 C 8.873431 1.669848 -16.143806 0
M  V30 22 O 9.367010 0.908442 -17.182371 0
M  V30 23 C 8.470226 0.509044 -18.213514 0
M  V30 24 C 7.986148 -0.934035 -18.014952 0
M  V30 25 C 7.071033 -1.398770 -19.158712 0
M  V30 26 C 6.731520 -2.856017 -19.085405 0
M  V30 27 C 7.286000 -3.914614 -19.847372 0
M  V30 28 N 6.728598 -5.051294 -19.519339 0
M  V30 29 N 5.830383 -4.672024 -18.576281 0
M  V30 30 C 4.913226 -5.616898 -17.968458 0
M  V30 31 C 5.284825 -5.989664 -16.523933 0
M  V30 32 C 6.704608 -6.554869 -16.357904 0
M  V30 33 C 6.984032 -7.031418 -14.928352 0
M  V30 34 N 5.816454 -3.343919 -18.283953 0
M  V30 35 C 9.764595 2.576705 -15.525082 0
M  V30 36 O 11.060520 2.603597 -16.000685 0
M  V30 37 C 11.964373 3.542029 -15.439287 0
M  V30 38 C 9.289030 3.424902 -14.494404 0
M  V30 39 C 11.762652 9.242459 -6.463458 0
M  V30 40 C 11.828430 9.529555 -4.953970 0
M  V30 41 H 13.257847 8.740755 -0.676924 0
M  V30 42 H 11.766574 6.170804 -4.015329 0
M  V30 43 H 11.922512 6.258174 -6.579265 0
M  V30 44 H 10.286753 6.172455 -5.944267 0
M  V30 45 H 9.815416 8.448743 -6.402643 0
M  V30 46 H 10.527472 9.574409 -9.523196 0
M  V30 47 H 12.083902 9.249963 -8.849757 0
M  V30 48 H 12.536021 8.774361 -10.932337 0
M  V30 49 H 12.365123 7.190800 -10.245661 0
M  V30 50 H 11.356174 7.636254 -12.591941 0
M  V30 51 H 10.292697 6.845681 -11.473378 0
M  V30 52 H 10.087296 8.567330 -11.791999 0
M  V30 53 H 8.485971 8.157924 -8.027509 0
M  V30 54 H 8.919520 7.875874 -9.654059 0
M  V30 55 H 9.254330 5.586540 -7.677546 0
M  V30 56 H 7.686107 5.996969 -8.231914 0
M  V30 57 H 9.987490 5.217012 -10.053538 0
M  V30 58 H 8.752216 4.164955 -9.456774 0
M  V30 59 H 6.958657 5.419993 -10.648807 0
M  V30 60 H 8.105226 6.549652 -11.273321 0
M  V30 61 H 9.222874 4.244671 -12.111652 0
M  V30 62 H 6.059929 2.335058 -14.314511 0
M  V30 63 H 6.842493 0.881111 -16.122179 0
M  V30 64 H 7.631456 1.199819 -18.318356 0
M  V30 65 H 9.021242 0.572543 -19.151392 0
M  V30 66 H 8.856468 -1.588154 -17.959238 0
M  V30 67 H 7.463759 -1.028607 -17.062813 0
M  V30 68 H 6.157189 -0.802805 -19.158962 0
M  V30 69 H 7.556791 -1.194832 -20.114155 0
M  V30 70 H 8.054168 -3.874428 -20.602856 0
M  V30 71 H 3.910903 -5.191130 -18.001703 0
M  V30 72 H 4.881227 -6.516335 -18.582739 0
M  V30 73 H 5.163026 -5.115679 -15.881214 0
M  V30 74 H 4.558740 -6.725909 -16.177629 0
M  V30 75 H 6.846891 -7.387609 -17.046150 0
M  V30 76 H 7.436652 -5.793738 -16.631674 0
M  V30 77 H 7.992858 -7.427501 -14.830190 0
M  V30 78 H 6.887676 -6.211075 -14.216739 0
M  V30 79 H 6.287431 -7.815501 -14.630103 0
M  V30 80 H 12.937389 3.425239 -15.914636 0
M  V30 81 H 11.632518 4.566567 -15.610549 0
M  V30 82 H 12.094868 3.377009 -14.368588 0
M  V30 83 H 9.944815 4.152498 -14.041015 0
M  V30 84 H 12.761641 8.974218 -6.804708 0
M  V30 85 H 11.484064 10.172626 -6.959473 0
M  V30 86 H 10.939571 10.075542 -4.631740 0
M  V30 87 H 12.685278 10.171269 -4.759477 0
M  V30 88 H 11.061003 6.944170 -8.450236 0
M  V30 END ATOM
M  V30 BEGIN BOND
M  V30 1 3 2 1
M  V30 2 1 3 2
M  V30 3 2 4 3
M  V30 4 1 5 4
M  V30 5 1 6 5
M  V30 6 1 7 6
M  V30 7 1 8 7
M  V30 8 1 9 8
M  V30 9 1 10 9
M  V30 10 1 11 7
M  V30 11 1 12 11
M  V30 12 1 13 12
M  V30 13 1 14 13
M  V30 14 1 15 14
M  V30 15 1 16 15
M  V30 16 2 17 16
M  V30 17 1 18 16
M  V30 18 1 19 18
M  V30 19 2 20 19
M  V30 20 1 21 20
M  V30 21 1 22 21
M  V30 22 1 23 22
M  V30 23 1 24 23
M  V30 24 1 25 24
M  V30 25 1 26 25
M  V30 26 1 27 26
M  V30 27 2 28 27
M  V30 28 1 29 28
M  V30 29 1 30 29
M  V30 30 1 31 30
M  V30 31 1 32 31
M  V30 32 1 33 32
M  V30 33 2 34 26
M  V30 34 1 34 29
M  V30 35 2 35 21
M  V30 36 1 36 35
M  V30 37 1 37 36
M  V30 38 2 38 18
M  V30 39 1 38 35
M  V30 40 1 39 6
M  V30 41 1 40 3
M  V30 42 1 40 39
M  V30 43 1 41 1
M  V30 44 1 42 4
M  V30 45 1 43 5
M  V30 46 1 44 5
M  V30 47 1 6 45 CFG=1
M  V30 48 1 46 8
M  V30 49 1 47 8
M  V30 50 1 48 9
M  V30 51 1 49 9
M  V30 52 1 50 10
M  V30 53 1 51 10
M  V30 54 1 52 10
M  V30 55 1 53 11
M  V30 56 1 54 11
M  V30 57 1 55 12
M  V30 58 1 56 12
M  V30 59 1 57 13
M  V30 60 1 58 13
M  V30 61 1 59 14
M  V30 62 1 60 14
M  V30 63 1 61 15
M  V30 64 1 62 19
M  V30 65 1 63 20
M  V30 66 1 64 23
M  V30 67 1 65 23
M  V30 68 1 66 24
M  V30 69 1 67 24
M  V30 70 1 68 25
M  V30 71 1 69 25
M  V30 72 1 70 27
M  V30 73 1 71 30
M  V30 74 1 72 30
M  V30 75 1 73 31
M  V30 76 1 74 31
M  V30 77 1 75 32
M  V30 78 1 76 32
M  V30 79 1 77 33
M  V30 80 1 78 33
M  V30 81 1 79 33
M  V30 82 1 80 37
M  V30 83 1 81 37
M  V30 84 1 82 37
M  V30 85 1 83 38
M  V30 86 1 84 39
M  V30 87 1 85 39
M  V30 88 1 86 40
M  V30 89 1 87 40
M  V30 90 1 7 88 CFG=1
M  V30 END BOND
M  V30 END CTAB
M  END
>  <b_m_subgroup_collapsed>  (1232) 
0

>  <r_i_docking_score>  (1232) 
-7.3345158987497401

>  <s_m_subgroup_title>  (1232) 
glide-dock_SP_D22_pv

>  <s_m_subgroupid>  (1232) 
glide-dock_SP_D22_pv

>  <Molecule ChEMBL ID>  (1232) 
CHEMBL2397477

>  <Standard Type>  (1232) 
Ki

>  <Standard Value>  (1232) 
4.2

>  <label>  (1232) 
1

$$$$
CHEMBL331172
     RDKit          3D

  0  0  0  0  0  0  0  0  0  0999 V3000
M  V30 BEGIN CTAB
M  V30 COUNTS 50 53 0 0 1
M  V30 BEGIN ATOM
M  V30 1 O 6.587376 4.551512 -13.446327 0
M  V30 2 C 7.802836 4.360126 -13.442380 0
M  V30 3 C 8.382668 3.133570 -14.126244 0
M  V30 4 C 9.382032 3.572429 -15.190328 0
M  V30 5 C 10.389114 4.580775 -14.675583 0
M  V30 6 C 11.573256 4.732668 -15.426928 0
M  V30 7 C 12.554081 5.652981 -15.034054 0
M  V30 8 C 12.366187 6.391294 -13.858130 0
M  V30 9 C 11.204203 6.216292 -13.087676 0
M  V30 10 C 10.152810 5.358928 -13.499475 0
M  V30 11 C 8.808935 5.284185 -12.702518 0 CFG=2
M  V30 12 C 8.981937 4.659818 -11.297963 0
M  V30 13 C 9.535384 5.584947 -10.201859 0
M  V30 14 N 8.886065 6.917182 -10.104947 0 CFG=1 CHG=1
M  V30 15 C 9.555271 7.780951 -9.088535 0
M  V30 16 C 9.548629 7.213045 -7.638720 0
M  V30 17 C 10.444558 7.943219 -6.639006 0
M  V30 18 C 10.878718 9.265969 -6.860538 0
M  V30 19 C 11.686160 9.928873 -5.916468 0
M  V30 20 C 12.085714 9.264848 -4.741565 0
M  V30 21 C 11.685968 7.933286 -4.522938 0
M  V30 22 C 10.869359 7.277355 -5.466606 0
M  V30 23 C 8.763342 7.598392 -11.428453 0
M  V30 24 C 8.133640 6.678784 -12.497228 0
M  V30 25 H 8.888448 2.523406 -13.379910 0
M  V30 26 H 7.588758 2.525440 -14.560966 0
M  V30 27 H 9.914639 2.692301 -15.553742 0
M  V30 28 H 8.886101 4.005001 -16.057074 0
M  V30 29 H 11.728580 4.145555 -16.320795 0
M  V30 30 H 13.455967 5.775310 -15.616189 0
M  V30 31 H 13.131173 7.080319 -13.531777 0
M  V30 32 H 11.167576 6.770564 -12.172476 0
M  V30 33 H 8.013208 4.309696 -10.932500 0
M  V30 34 H 9.612205 3.772244 -11.365434 0
M  V30 35 H 10.591936 5.772187 -10.322022 0
M  V30 36 H 9.425310 5.034580 -9.270178 0
M  V30 37 H 9.060204 8.753481 -9.090248 0
M  V30 38 H 10.584317 7.951138 -9.410137 0
M  V30 39 H 9.889626 6.181379 -7.610400 0
M  V30 40 H 8.527797 7.208779 -7.251946 0
M  V30 41 H 10.596690 9.772309 -7.764680 0
M  V30 42 H 12.006213 10.944807 -6.098670 0
M  V30 43 H 12.707088 9.771120 -4.017200 0
M  V30 44 H 11.996194 7.416378 -3.626949 0
M  V30 45 H 10.559409 6.259125 -5.279322 0
M  V30 46 H 8.114590 8.470845 -11.328691 0
M  V30 47 H 9.701258 8.037700 -11.749989 0
M  V30 48 H 7.101395 6.547400 -12.167688 0
M  V30 49 H 8.050509 7.200953 -13.446807 0
M  V30 50 H 7.915035 6.807508 -9.814972 0
M  V30 END ATOM
M  V30 BEGIN BOND
M  V30 1 2 2 1
M  V30 2 1 3 2
M  V30 3 1 4 3
M  V30 4 1 5 4
M  V30 5 2 6 5
M  V30 6 1 7 6
M  V30 7 2 8 7
M  V30 8 1 9 8
M  V30 9 1 10 5
M  V30 10 2 10 9
M  V30 11 1 11 2
M  V30 12 1 11 10
M  V30 13 1 11 12 CFG=1
M  V30 14 1 13 12
M  V30 15 1 14 13
M  V30 16 1 15 14
M  V30 17 1 16 15
M  V30 18 1 17 16
M  V30 19 2 18 17
M  V30 20 1 19 18
M  V30 21 2 20 19
M  V30 22 1 21 20
M  V30 23 1 22 17
M  V30 24 2 22 21
M  V30 25 1 23 14
M  V30 26 1 24 11
M  V30 27 1 24 23
M  V30 28 1 25 3
M  V30 29 1 26 3
M  V30 30 1 27 4
M  V30 31 1 28 4
M  V30 32 1 29 6
M  V30 33 1 30 7
M  V30 34 1 31 8
M  V30 35 1 32 9
M  V30 36 1 33 12
M  V30 37 1 34 12
M  V30 38 1 35 13
M  V30 39 1 36 13
M  V30 40 1 37 15
M  V30 41 1 38 15
M  V30 42 1 39 16
M  V30 43 1 40 16
M  V30 44 1 41 18
M  V30 45 1 42 19
M  V30 46 1 43 20
M  V30 47 1 44 21
M  V30 48 1 45 22
M  V30 49 1 46 23
M  V30 50 1 47 23
M  V30 51 1 48 24
M  V30 52 1 49 24
M  V30 53 1 14 50 CFG=1
M  V30 END BOND
M  V30 END CTAB
M  END
>  <b_m_subgroup_collapsed>  (1233) 
0

>  <r_i_docking_score>  (1233) 
-7.33339543234991

>  <s_m_subgroup_title>  (1233) 
glide-dock_SP_D22_pv

>  <s_m_subgroupid>  (1233) 
glide-dock_SP_D22_pv

>  <Molecule ChEMBL ID>  (1233) 
CHEMBL331172

>  <Standard Type>  (1233) 
Ki

>  <Standard Value>  (1233) 
10000.0

>  <label>  (1233) 
0

$$$$
CHEMBL7806
     RDKit          3D

  0  0  0  0  0  0  0  0  0  0999 V3000
M  V30 BEGIN CTAB
M  V30 COUNTS 48 50 0 0 1
M  V30 BEGIN ATOM
M  V30 1 C 8.982813 4.179944 -8.987565 0
M  V30 2 C 9.001986 5.619383 -8.478626 0
M  V30 3 C 10.368029 6.283541 -8.704325 0
M  V30 4 N 10.313128 7.742041 -8.415214 0 CFG=1 CHG=1
M  V30 5 C 11.126878 8.138433 -7.241067 0
M  V30 6 C 10.519761 7.585345 -5.942229 0
M  V30 7 C 11.286042 7.963171 -4.716856 0
M  V30 8 C 11.551525 9.304664 -4.304861 0
M  V30 9 C 12.184075 9.372388 -3.094118 0
M  V30 10 S 12.485835 7.796404 -2.433490 0
M  V30 11 C 11.751781 7.040810 -3.814952 0
M  V30 12 C 10.417504 8.682055 -9.578262 0 CFG=1
M  V30 13 C 11.794973 8.781370 -10.242669 0
M  V30 14 C 12.076417 7.764055 -11.361180 0
M  V30 15 C 10.888842 7.115780 -12.067314 0
M  V30 16 C 11.097389 6.115605 -13.050038 0
M  V30 17 O 12.344805 5.806880 -13.512078 0
M  V30 18 C 10.010818 5.372355 -13.552969 0
M  V30 19 C 8.704588 5.640608 -13.108509 0
M  V30 20 C 8.485951 6.668231 -12.176269 0
M  V30 21 C 9.572134 7.398000 -11.648799 0
M  V30 22 C 9.310058 8.458427 -10.603317 0
M  V30 23 H 8.085960 3.664024 -8.646716 0
M  V30 24 H 8.993782 4.172351 -10.078234 0
M  V30 25 H 9.844696 3.609062 -8.647328 0
M  V30 26 H 8.747589 5.637619 -7.419930 0
M  V30 27 H 8.207954 6.168383 -8.985262 0
M  V30 28 H 10.710420 6.080315 -9.709921 0
M  V30 29 H 11.100918 5.791593 -8.064539 0
M  V30 30 H 12.150459 7.791316 -7.374985 0
M  V30 31 H 11.172676 9.226099 -7.172153 0
M  V30 32 H 9.492031 7.938273 -5.849182 0
M  V30 33 H 10.447433 6.499312 -5.989701 0
M  V30 34 H 11.249736 10.164445 -4.885048 0
M  V30 35 H 12.485975 10.249749 -2.542994 0
M  V30 36 H 11.678166 5.962823 -3.857183 0
M  V30 37 H 10.208452 9.660560 -9.145585 0
M  V30 38 H 12.600917 8.771379 -9.509116 0
M  V30 39 H 11.850245 9.772474 -10.675440 0
M  V30 40 H 12.517091 6.943142 -10.829319 0
M  V30 41 H 12.813947 8.141253 -12.070992 0
M  V30 42 H 13.068957 6.275203 -13.120881 0
M  V30 43 H 10.179811 4.595144 -14.283987 0
M  V30 44 H 7.871078 5.072822 -13.494780 0
M  V30 45 H 7.478685 6.878952 -11.846850 0
M  V30 46 H 9.018978 9.372349 -11.113424 0
M  V30 47 H 8.486014 8.146904 -10.003411 0
M  V30 48 H 9.358977 7.878611 -8.108099 0
M  V30 END ATOM
M  V30 BEGIN BOND
M  V30 1 1 2 1
M  V30 2 1 3 2
M  V30 3 1 4 3
M  V30 4 1 5 4
M  V30 5 1 6 5
M  V30 6 1 7 6
M  V30 7 1 8 7
M  V30 8 2 9 8
M  V30 9 1 10 9
M  V30 10 2 11 7
M  V30 11 1 11 10
M  V30 12 1 12 4
M  V30 13 1 13 12
M  V30 14 1 14 13
M  V30 15 1 15 14
M  V30 16 2 16 15
M  V30 17 1 17 16
M  V30 18 1 18 16
M  V30 19 2 19 18
M  V30 20 1 20 19
M  V30 21 1 21 15
M  V30 22 2 21 20
M  V30 23 1 22 12
M  V30 24 1 22 21
M  V30 25 1 23 1
M  V30 26 1 24 1
M  V30 27 1 25 1
M  V30 28 1 26 2
M  V30 29 1 27 2
M  V30 30 1 28 3
M  V30 31 1 29 3
M  V30 32 1 30 5
M  V30 33 1 31 5
M  V30 34 1 32 6
M  V30 35 1 33 6
M  V30 36 1 34 8
M  V30 37 1 35 9
M  V30 38 1 36 11
M  V30 39 1 12 37 CFG=1
M  V30 40 1 38 13
M  V30 41 1 39 13
M  V30 42 1 40 14
M  V30 43 1 41 14
M  V30 44 1 42 17
M  V30 45 1 43 18
M  V30 46 1 44 19
M  V30 47 1 45 20
M  V30 48 1 46 22
M  V30 49 1 47 22
M  V30 50 1 4 48 CFG=1
M  V30 END BOND
M  V30 END CTAB
M  END
>  <b_m_subgroup_collapsed>  (1234) 
0

>  <r_i_docking_score>  (1234) 
-7.3330834348334601

>  <s_m_subgroup_title>  (1234) 
glide-dock_SP_D22_pv

>  <s_m_subgroupid>  (1234) 
glide-dock_SP_D22_pv

>  <Molecule ChEMBL ID>  (1234) 
CHEMBL7806

>  <Standard Type>  (1234) 
Ki

>  <Standard Value>  (1234) 
0.14

>  <label>  (1234) 
1

$$$$
CHEMBL104201
     RDKit          3D

  0  0  0  0  0  0  0  0  0  0999 V3000
M  V30 BEGIN CTAB
M  V30 COUNTS 45 47 0 0 1
M  V30 BEGIN ATOM
M  V30 1 N 7.175399 1.984876 -14.247005 0
M  V30 2 C 8.250668 1.832031 -14.651325 0
M  V30 3 C 9.551756 1.634617 -15.196852 0
M  V30 4 C 9.834701 0.486618 -15.991416 0
M  V30 5 N 10.086034 -0.440295 -16.635126 0
M  V30 6 C 10.550138 2.519450 -15.004209 0
M  V30 7 C 10.541486 3.748709 -14.193439 0
M  V30 8 C 11.448770 4.823848 -14.379589 0
M  V30 9 C 11.137636 5.772321 -13.446809 0
M  V30 10 N 10.085835 5.304697 -12.662533 0
M  V30 11 C 9.457997 5.983413 -11.521656 0 CFG=1
M  V30 12 C 9.184933 4.980671 -10.379501 0
M  V30 13 C 8.653425 5.654262 -9.112418 0
M  V30 14 N 9.546492 6.731330 -8.625482 0 CFG=2 CHG=1
M  V30 15 C 9.057492 7.298417 -7.343132 0
M  V30 16 C 10.166387 7.889617 -6.490397 0
M  V30 17 C 10.579415 9.217102 -6.692413 0
M  V30 18 C 11.537413 9.810615 -5.847156 0
M  V30 19 C 12.083226 9.070930 -4.782090 0
M  V30 20 C 11.686325 7.735659 -4.582267 0
M  V30 21 C 10.746902 7.144051 -5.446752 0
M  V30 22 C 9.747530 7.760495 -9.682758 0
M  V30 23 C 10.314620 7.151824 -10.975830 0
M  V30 24 C 9.683744 4.082117 -13.183624 0
M  V30 25 H 11.499156 2.305086 -15.476701 0
M  V30 26 H 12.243375 4.897109 -15.107773 0
M  V30 27 H 11.602695 6.728729 -13.262002 0
M  V30 28 H 8.504533 6.385732 -11.866067 0
M  V30 29 H 8.450187 4.242085 -10.696925 0
M  V30 30 H 10.085947 4.420697 -10.136412 0
M  V30 31 H 8.503865 4.902106 -8.337902 0
M  V30 32 H 7.685991 6.092054 -9.325564 0
M  V30 33 H 8.291021 8.053359 -7.526932 0
M  V30 34 H 8.564554 6.525060 -6.752059 0
M  V30 35 H 10.129800 9.772261 -7.494218 0
M  V30 36 H 11.841254 10.836080 -6.006512 0
M  V30 37 H 12.808842 9.525383 -4.121023 0
M  V30 38 H 12.104127 7.163927 -3.765621 0
M  V30 39 H 10.428762 6.133768 -5.258976 0
M  V30 40 H 10.439757 8.525464 -9.335699 0
M  V30 41 H 8.804136 8.263499 -9.896052 0
M  V30 42 H 11.330054 6.814541 -10.778193 0
M  V30 43 H 10.390839 7.936318 -11.729388 0
M  V30 44 H 8.854049 3.545637 -12.752007 0
M  V30 45 H 10.440231 6.305207 -8.432802 0
M  V30 END ATOM
M  V30 BEGIN BOND
M  V30 1 3 2 1
M  V30 2 1 3 2
M  V30 3 1 4 3
M  V30 4 3 5 4
M  V30 5 2 6 3
M  V30 6 1 7 6
M  V30 7 1 8 7
M  V30 8 2 9 8
M  V30 9 1 10 9
M  V30 10 1 11 10
M  V30 11 1 12 11
M  V30 12 1 13 12
M  V30 13 1 14 13
M  V30 14 1 15 14
M  V30 15 1 16 15
M  V30 16 2 17 16
M  V30 17 1 18 17
M  V30 18 2 19 18
M  V30 19 1 20 19
M  V30 20 1 21 16
M  V30 21 2 21 20
M  V30 22 1 22 14
M  V30 23 1 23 11
M  V30 24 1 23 22
M  V30 25 2 24 7
M  V30 26 1 24 10
M  V30 27 1 25 6
M  V30 28 1 26 8
M  V30 29 1 27 9
M  V30 30 1 11 28 CFG=3
M  V30 31 1 29 12
M  V30 32 1 30 12
M  V30 33 1 31 13
M  V30 34 1 32 13
M  V30 35 1 33 15
M  V30 36 1 34 15
M  V30 37 1 35 17
M  V30 38 1 36 18
M  V30 39 1 37 19
M  V30 40 1 38 20
M  V30 41 1 39 21
M  V30 42 1 40 22
M  V30 43 1 41 22
M  V30 44 1 42 23
M  V30 45 1 43 23
M  V30 46 1 44 24
M  V30 47 1 14 45 CFG=1
M  V30 END BOND
M  V30 END CTAB
M  END
>  <b_m_subgroup_collapsed>  (1235) 
0

>  <r_i_docking_score>  (1235) 
-7.3304233548527096

>  <s_m_subgroup_title>  (1235) 
glide-dock_SP_D22_pv

>  <s_m_subgroupid>  (1235) 
glide-dock_SP_D22_pv

>  <Molecule ChEMBL ID>  (1235) 
CHEMBL104201

>  <Standard Type>  (1235) 
Ki

>  <Standard Value>  (1235) 
13000.0

>  <label>  (1235) 
0

$$$$
CHEMBL6026273
     RDKit          3D

  0  0  0  0  0  0  0  0  0  0999 V3000
M  V30 BEGIN CTAB
M  V30 COUNTS 65 68 0 0 1
M  V30 BEGIN ATOM
M  V30 1 C 11.510195 6.546663 -2.250153 0
M  V30 2 C 12.224197 6.709817 -3.594841 0
M  V30 3 C 11.690712 7.839606 -4.452611 0
M  V30 4 C 11.684092 9.128626 -3.898284 0
M  V30 5 C 11.285995 10.211122 -4.686733 0
M  V30 6 C 10.882780 10.041684 -6.012371 0
M  V30 7 C 10.790963 8.752048 -6.550392 0
M  V30 8 N 10.129256 8.542435 -7.768718 0
M  V30 9 C 8.864220 7.825992 -7.746060 0
M  V30 10 C 8.876406 6.653092 -8.742999 0
M  V30 11 N 9.324541 7.085087 -10.092632 0 CHG=1
M  V30 12 C 9.308943 5.932307 -11.028996 0
M  V30 13 C 9.475686 6.308519 -12.515684 0
M  V30 14 C 9.952808 5.128385 -13.374935 0
M  V30 15 C 8.860115 4.102626 -13.700809 0
M  V30 16 C 9.447574 2.858243 -14.381642 0
M  V30 17 N 8.398927 2.067108 -15.008282 0
M  V30 18 C 8.169237 2.001663 -16.326731 0
M  V30 19 O 8.845002 2.609045 -17.156830 0
M  V30 20 C 6.984201 1.184389 -16.722414 0
M  V30 21 N 6.378733 1.358106 -17.967577 0
M  V30 22 C 5.460248 0.433803 -17.986284 0
M  V30 23 S 4.210446 -0.210244 -19.048985 0
M  V30 24 C 3.686385 -1.430779 -17.911871 0
M  V30 25 C 4.456067 -1.318604 -16.787998 0
M  V30 26 N 5.394670 -0.330137 -16.836111 0
M  V30 27 C 6.389242 0.166328 -16.000689 0
M  V30 28 C 6.659775 -0.409660 -14.643750 0
M  V30 29 C 10.650943 7.782134 -10.034950 0
M  V30 30 C 10.666472 8.964481 -9.047279 0
M  V30 31 C 11.285333 7.663166 -5.802021 0
M  V30 32 Cl 11.511600 6.172349 -6.627274 0
M  V30 33 H 12.004647 5.774687 -1.662127 0
M  V30 34 H 11.506505 7.466696 -1.667958 0
M  V30 35 H 10.480680 6.221763 -2.386728 0
M  V30 36 H 12.159331 5.771492 -4.132748 0
M  V30 37 H 13.280078 6.916576 -3.418933 0
M  V30 38 H 12.007605 9.301785 -2.882779 0
M  V30 39 H 11.281875 11.195085 -4.257614 0
M  V30 40 H 10.547071 10.896153 -6.575998 0
M  V30 41 H 8.086082 8.539485 -8.006402 0
M  V30 42 H 8.628759 7.463749 -6.743618 0
M  V30 43 H 7.890865 6.191700 -8.802267 0
M  V30 44 H 9.538366 5.864226 -8.389863 0
M  V30 45 H 8.361957 5.399723 -10.922882 0
M  V30 46 H 10.083939 5.229944 -10.723362 0
M  V30 47 H 10.217116 7.093846 -12.644548 0
M  V30 48 H 8.540735 6.718244 -12.904922 0
M  V30 49 H 10.797141 4.637930 -12.889202 0
M  V30 50 H 10.342325 5.519735 -14.316311 0
M  V30 51 H 8.118821 4.573756 -14.347697 0
M  V30 52 H 8.335926 3.797405 -12.794758 0
M  V30 53 H 9.963438 2.239120 -13.645807 0
M  V30 54 H 10.205697 3.147825 -15.114061 0
M  V30 55 H 7.788138 1.534734 -14.404774 0
M  V30 56 H 2.885991 -2.121877 -18.139116 0
M  V30 57 H 4.374056 -1.950228 -15.913354 0
M  V30 58 H 6.359837 0.283264 -13.858738 0
M  V30 59 H 6.120620 -1.343788 -14.482678 0
M  V30 60 H 7.721836 -0.627574 -14.523697 0
M  V30 61 H 11.411840 7.057796 -9.741340 0
M  V30 62 H 10.943977 8.168182 -11.008367 0
M  V30 63 H 10.051812 9.773110 -9.440743 0
M  V30 64 H 11.680055 9.349265 -8.931243 0
M  V30 65 H 8.617916 7.743587 -10.404390 0
M  V30 END ATOM
M  V30 BEGIN BOND
M  V30 1 1 2 1
M  V30 2 1 3 2
M  V30 3 1 4 3
M  V30 4 2 5 4
M  V30 5 1 6 5
M  V30 6 2 7 6
M  V30 7 1 8 7
M  V30 8 1 9 8
M  V30 9 1 10 9
M  V30 10 1 11 10
M  V30 11 1 12 11
M  V30 12 1 13 12
M  V30 13 1 14 13
M  V30 14 1 15 14
M  V30 15 1 16 15
M  V30 16 1 17 16
M  V30 17 1 18 17
M  V30 18 2 19 18
M  V30 19 1 20 18
M  V30 20 1 21 20
M  V30 21 2 22 21
M  V30 22 1 23 22
M  V30 23 1 24 23
M  V30 24 2 25 24
M  V30 25 1 26 22
M  V30 26 1 26 25
M  V30 27 2 27 20
M  V30 28 1 27 26
M  V30 29 1 28 27
M  V30 30 1 29 11
M  V30 31 1 30 8
M  V30 32 1 30 29
M  V30 33 2 31 3
M  V30 34 1 31 7
M  V30 35 1 32 31
M  V30 36 1 33 1
M  V30 37 1 34 1
M  V30 38 1 35 1
M  V30 39 1 36 2
M  V30 40 1 37 2
M  V30 41 1 38 4
M  V30 42 1 39 5
M  V30 43 1 40 6
M  V30 44 1 41 9
M  V30 45 1 42 9
M  V30 46 1 43 10
M  V30 47 1 44 10
M  V30 48 1 45 12
M  V30 49 1 46 12
M  V30 50 1 47 13
M  V30 51 1 48 13
M  V30 52 1 49 14
M  V30 53 1 50 14
M  V30 54 1 51 15
M  V30 55 1 52 15
M  V30 56 1 53 16
M  V30 57 1 54 16
M  V30 58 1 55 17
M  V30 59 1 56 24
M  V30 60 1 57 25
M  V30 61 1 58 28
M  V30 62 1 59 28
M  V30 63 1 60 28
M  V30 64 1 61 29
M  V30 65 1 62 29
M  V30 66 1 63 30
M  V30 67 1 64 30
M  V30 68 1 65 11
M  V30 END BOND
M  V30 END CTAB
M  END
>  <b_m_subgroup_collapsed>  (1236) 
0

>  <r_i_docking_score>  (1236) 
-7.33008067178167

>  <s_m_subgroup_title>  (1236) 
glide-dock_SP_D22_pv

>  <s_m_subgroupid>  (1236) 
glide-dock_SP_D22_pv

>  <Molecule ChEMBL ID>  (1236) 
CHEMBL6026273

>  <Standard Type>  (1236) 
Ki

>  <Standard Value>  (1236) 
4.65

>  <label>  (1236) 
1

$$$$
CHEMBL5938222
     RDKit          3D

  0  0  0  0  0  0  0  0  0  0999 V3000
M  V30 BEGIN CTAB
M  V30 COUNTS 51 55 0 0 1
M  V30 BEGIN ATOM
M  V30 1 O 10.213059 4.262453 -13.165635 0
M  V30 2 C 9.021929 3.975356 -13.287595 0
M  V30 3 C 8.608766 2.886826 -14.239684 0
M  V30 4 C 9.549468 2.278473 -15.100955 0
M  V30 5 C 9.136940 1.210453 -15.919036 0
M  V30 6 C 7.797283 0.784311 -15.842356 0
M  V30 7 N 6.888494 1.360292 -15.028378 0
M  V30 8 C 7.288714 2.387059 -14.247259 0
M  V30 9 C 6.235125 2.973977 -13.327548 0
M  V30 10 C 6.602307 4.381034 -12.826588 0
M  V30 11 N 8.040113 4.598837 -12.592241 0
M  V30 12 C 8.352156 5.684513 -11.649499 0
M  V30 13 C 8.866407 5.152660 -10.300920 0
M  V30 14 N 9.112379 6.258478 -9.377228 0
M  V30 15 C 9.032978 5.780302 -7.993724 0
M  V30 16 C 9.294222 6.930230 -6.999652 0
M  V30 17 N 10.582810 7.559520 -7.265456 0
M  V30 18 C 10.948413 8.489250 -6.284471 0
M  V30 19 N 10.887111 9.810544 -6.427208 0
M  V30 20 O 11.287860 10.375447 -5.186369 0
M  V30 21 C 11.635624 9.367188 -4.299279 0
M  V30 22 C 12.084574 9.402588 -2.971984 0
M  V30 23 C 12.327462 8.176226 -2.324484 0
M  V30 24 C 12.128822 6.955165 -3.015149 0
M  V30 25 C 11.685532 6.947158 -4.356895 0
M  V30 26 C 11.421783 8.177277 -4.994125 0
M  V30 27 C 10.642990 8.047888 -8.640872 0
M  V30 28 C 10.419622 6.880491 -9.615727 0
M  V30 29 H 10.576651 2.610367 -15.129087 0
M  V30 30 H 9.832342 0.721562 -16.585743 0
M  V30 31 H 7.447342 -0.035406 -16.453211 0
M  V30 32 H 5.277786 3.014354 -13.845387 0
M  V30 33 H 6.085179 2.300522 -12.485288 0
M  V30 34 H 6.014521 4.609647 -11.936117 0
M  V30 35 H 6.294991 5.106282 -13.582171 0
M  V30 36 H 9.069900 6.365828 -12.105950 0
M  V30 37 H 7.463848 6.283658 -11.461424 0
M  V30 38 H 8.088032 4.506813 -9.888413 0
M  V30 39 H 9.760798 4.540237 -10.418970 0
M  V30 40 H 8.036664 5.376086 -7.814692 0
M  V30 41 H 9.742827 4.971662 -7.836845 0
M  V30 42 H 8.498941 7.677886 -7.077600 0
M  V30 43 H 9.267167 6.547804 -5.978996 0
M  V30 44 H 12.214814 10.343840 -2.462052 0
M  V30 45 H 12.656976 8.170482 -1.294786 0
M  V30 46 H 12.309414 6.019538 -2.510278 0
M  V30 47 H 11.534306 6.015067 -4.880570 0
M  V30 48 H 9.889862 8.822299 -8.802973 0
M  V30 49 H 11.618816 8.501157 -8.827933 0
M  V30 50 H 11.222853 6.158278 -9.478039 0
M  V30 51 H 10.485028 7.249286 -10.638649 0
M  V30 END ATOM
M  V30 BEGIN BOND
M  V30 1 2 2 1
M  V30 2 1 3 2
M  V30 3 2 4 3
M  V30 4 1 5 4
M  V30 5 2 6 5
M  V30 6 1 7 6
M  V30 7 1 8 3
M  V30 8 2 8 7
M  V30 9 1 9 8
M  V30 10 1 10 9
M  V30 11 1 11 2
M  V30 12 1 11 10
M  V30 13 1 12 11
M  V30 14 1 13 12
M  V30 15 1 14 13
M  V30 16 1 15 14
M  V30 17 1 16 15
M  V30 18 1 17 16
M  V30 19 1 18 17
M  V30 20 2 19 18
M  V30 21 1 20 19
M  V30 22 1 21 20
M  V30 23 2 22 21
M  V30 24 1 23 22
M  V30 25 2 24 23
M  V30 26 1 25 24
M  V30 27 1 26 18
M  V30 28 1 26 21
M  V30 29 2 26 25
M  V30 30 1 27 17
M  V30 31 1 28 14
M  V30 32 1 28 27
M  V30 33 1 29 4
M  V30 34 1 30 5
M  V30 35 1 31 6
M  V30 36 1 32 9
M  V30 37 1 33 9
M  V30 38 1 34 10
M  V30 39 1 35 10
M  V30 40 1 36 12
M  V30 41 1 37 12
M  V30 42 1 38 13
M  V30 43 1 39 13
M  V30 44 1 40 15
M  V30 45 1 41 15
M  V30 46 1 42 16
M  V30 47 1 43 16
M  V30 48 1 44 22
M  V30 49 1 45 23
M  V30 50 1 46 24
M  V30 51 1 47 25
M  V30 52 1 48 27
M  V30 53 1 49 27
M  V30 54 1 50 28
M  V30 55 1 51 28
M  V30 END BOND
M  V30 END CTAB
M  END
>  <b_m_subgroup_collapsed>  (1237) 
0

>  <r_i_docking_score>  (1237) 
-7.3299878970614696

>  <s_m_subgroup_title>  (1237) 
glide-dock_SP_D22_pv

>  <s_m_subgroupid>  (1237) 
glide-dock_SP_D22_pv

>  <Molecule ChEMBL ID>  (1237) 
CHEMBL5938222

>  <Standard Type>  (1237) 
Ki

>  <Standard Value>  (1237) 
10000.0

>  <label>  (1237) 
0

$$$$
CHEMBL2030630
     RDKit          3D

  0  0  0  0  0  0  0  0  0  0999 V3000
M  V30 BEGIN CTAB
M  V30 COUNTS 38 40 0 0 1
M  V30 BEGIN ATOM
M  V30 1 F 12.486021 7.409638 -2.513137 0
M  V30 2 C 11.957730 7.948277 -3.636480 0
M  V30 3 C 11.867249 9.346229 -3.772930 0
M  V30 4 C 11.286022 9.900267 -4.929412 0
M  V30 5 C 10.803047 9.061916 -5.950820 0
M  V30 6 C 10.886022 7.655818 -5.820808 0
M  V30 7 C 10.340440 6.705876 -6.881356 0
M  V30 8 C 9.877750 7.364089 -8.193193 0
M  V30 9 C 9.516630 6.343194 -9.286366 0
M  V30 10 N 8.886023 6.990668 -10.465710 0 CFG=1 CHG=1
M  V30 11 C 9.622066 8.034660 -11.187762 0 CFG=1
M  V30 12 C 10.713118 7.249218 -11.945530 0
M  V30 13 C 9.987090 5.931139 -12.283056 0
M  V30 14 C 8.605170 6.154344 -11.639089 0 CFG=2
M  V30 15 C 7.837293 7.153055 -12.522816 0
M  V30 16 C 8.543562 8.488991 -12.186519 0
M  V30 17 C 11.468850 7.108278 -4.656379 0
M  V30 18 H 12.234296 9.990720 -2.986938 0
M  V30 19 H 11.210402 10.972323 -5.035788 0
M  V30 20 H 10.357007 9.521343 -6.819434 0
M  V30 21 H 11.110163 5.962924 -7.095577 0
M  V30 22 H 9.499372 6.172324 -6.439142 0
M  V30 23 H 9.016258 8.003997 -7.992820 0
M  V30 24 H 10.677814 8.004648 -8.564773 0
M  V30 25 H 10.405361 5.778823 -9.568472 0
M  V30 26 H 8.802712 5.619959 -8.888985 0
M  V30 27 H 9.999884 8.855346 -10.577934 0
M  V30 28 H 11.578331 7.065076 -11.307755 0
M  V30 29 H 11.062556 7.772284 -12.835997 0
M  V30 30 H 10.486014 5.068402 -11.846865 0
M  V30 31 H 9.922023 5.755899 -13.357734 0
M  V30 32 H 8.048020 5.239937 -11.429704 0
M  V30 33 H 7.889086 6.888067 -13.574201 0
M  V30 34 H 6.782832 7.190441 -12.246869 0
M  V30 35 H 7.842642 9.179235 -11.714135 0
M  V30 36 H 8.967067 9.000847 -13.046865 0
M  V30 37 H 11.529182 6.036585 -4.534269 0
M  V30 38 H 7.971544 7.372324 -10.188566 0
M  V30 END ATOM
M  V30 BEGIN BOND
M  V30 1 1 2 1
M  V30 2 1 3 2
M  V30 3 2 4 3
M  V30 4 1 5 4
M  V30 5 2 6 5
M  V30 6 1 7 6
M  V30 7 1 8 7
M  V30 8 1 9 8
M  V30 9 1 10 9
M  V30 10 1 11 10
M  V30 11 1 12 11
M  V30 12 1 13 12
M  V30 13 1 14 10
M  V30 14 1 14 13
M  V30 15 1 15 14
M  V30 16 1 16 11
M  V30 17 1 16 15
M  V30 18 2 17 2
M  V30 19 1 17 6
M  V30 20 1 18 3
M  V30 21 1 19 4
M  V30 22 1 20 5
M  V30 23 1 21 7
M  V30 24 1 22 7
M  V30 25 1 23 8
M  V30 26 1 24 8
M  V30 27 1 25 9
M  V30 28 1 26 9
M  V30 29 1 11 27 CFG=1
M  V30 30 1 28 12
M  V30 31 1 29 12
M  V30 32 1 30 13
M  V30 33 1 31 13
M  V30 34 1 14 32 CFG=1
M  V30 35 1 33 15
M  V30 36 1 34 15
M  V30 37 1 35 16
M  V30 38 1 36 16
M  V30 39 1 37 17
M  V30 40 1 10 38 CFG=1
M  V30 END BOND
M  V30 END CTAB
M  END
>  <b_m_subgroup_collapsed>  (1238) 
0

>  <r_i_docking_score>  (1238) 
-7.3291735943984504

>  <s_m_subgroup_title>  (1238) 
glide-dock_SP_D22_pv

>  <s_m_subgroupid>  (1238) 
glide-dock_SP_D22_pv

>  <Molecule ChEMBL ID>  (1238) 
CHEMBL2030630

>  <Standard Type>  (1238) 
Ki

>  <Standard Value>  (1238) 
10000.0

>  <label>  (1238) 
0

$$$$
CHEMBL372222
     RDKit          3D

  0  0  0  0  0  0  0  0  0  0999 V3000
M  V30 BEGIN CTAB
M  V30 COUNTS 58 62 0 0 1
M  V30 BEGIN ATOM
M  V30 1 C 4.488590 -2.096409 -17.001245 0
M  V30 2 C 5.359279 -1.000337 -16.427305 0
M  V30 3 C 6.259921 -0.305182 -17.260403 0
M  V30 4 C 7.073104 0.715020 -16.728704 0
M  V30 5 C 6.972752 1.053972 -15.363166 0
M  V30 6 C 7.782227 2.142100 -14.798600 0
M  V30 7 C 9.023098 2.527432 -15.176849 0
M  V30 8 C 9.356258 3.700260 -14.369543 0
M  V30 9 N 10.416615 4.402463 -14.335107 0
M  V30 10 C 10.489639 5.495526 -13.446532 0
M  V30 11 O 11.509465 6.186048 -13.416163 0
M  V30 12 N 9.416270 5.788166 -12.620049 0
M  V30 13 C 9.548608 6.938260 -11.669322 0
M  V30 14 C 10.473640 6.572156 -10.494475 0
M  V30 15 N 10.232724 7.355375 -9.278757 0
M  V30 16 C 11.462354 8.060133 -8.887490 0
M  V30 17 C 11.297985 8.779229 -7.537306 0
M  V30 18 N 10.860093 7.833137 -6.517579 0
M  V30 19 C 11.287251 7.895843 -5.176134 0
M  V30 20 C 11.624078 6.699169 -4.515022 0
M  V30 21 C 12.085994 6.702240 -3.183433 0
M  V30 22 C 12.239893 7.916702 -2.494606 0
M  V30 23 C 11.907262 9.120403 -3.135698 0
M  V30 24 C 11.415466 9.105524 -4.455314 0
M  V30 25 Cl 10.886029 10.582030 -5.126717 0
M  V30 26 C 9.633034 7.130475 -6.860057 0
M  V30 27 C 9.817970 6.423970 -8.215811 0
M  V30 28 C 8.230277 4.981803 -12.669360 0
M  V30 29 O 7.374646 5.372866 -11.846303 0 CHG=-1
M  V30 30 C 8.206028 3.945169 -13.562396 0
M  V30 31 N 7.252134 3.004035 -13.848047 0
M  V30 32 C 6.087086 0.343314 -14.525078 0
M  V30 33 C 5.280649 -0.679871 -15.056871 0
M  V30 34 H 3.897729 -2.566955 -16.217009 0
M  V30 35 H 3.804357 -1.691751 -17.747007 0
M  V30 36 H 5.100245 -2.866845 -17.470747 0
M  V30 37 H 6.328586 -0.554913 -18.308813 0
M  V30 38 H 7.755148 1.246610 -17.375431 0
M  V30 39 H 9.689277 2.106251 -15.914182 0
M  V30 40 H 8.600129 7.314739 -11.284920 0
M  V30 41 H 9.957053 7.804181 -12.192786 0
M  V30 42 H 11.502544 6.702978 -10.825054 0
M  V30 43 H 10.355884 5.507101 -10.287055 0
M  V30 44 H 11.719247 8.786688 -9.659907 0
M  V30 45 H 12.302142 7.373119 -8.817257 0
M  V30 46 H 10.555918 9.570895 -7.637575 0
M  V30 47 H 12.241940 9.242987 -7.248340 0
M  V30 48 H 11.533572 5.772286 -5.050776 0
M  V30 49 H 12.333528 5.772702 -2.694112 0
M  V30 50 H 12.598279 7.926966 -1.475832 0
M  V30 51 H 11.997763 10.056385 -2.603062 0
M  V30 52 H 9.368303 6.405375 -6.090390 0
M  V30 53 H 8.809862 7.844868 -6.918096 0
M  V30 54 H 8.880977 5.944536 -8.505989 0
M  V30 55 H 10.562030 5.633502 -8.102623 0
M  V30 56 H 6.336548 2.950716 -13.425134 0
M  V30 57 H 6.019087 0.581600 -13.474013 0
M  V30 58 H 4.602092 -1.217568 -14.411544 0
M  V30 END ATOM
M  V30 BEGIN BOND
M  V30 1 1 2 1
M  V30 2 1 3 2
M  V30 3 2 4 3
M  V30 4 1 5 4
M  V30 5 1 6 5
M  V30 6 2 7 6
M  V30 7 1 8 7
M  V30 8 2 9 8
M  V30 9 1 10 9
M  V30 10 2 11 10
M  V30 11 1 12 10
M  V30 12 1 13 12
M  V30 13 1 14 13
M  V30 14 1 15 14
M  V30 15 1 16 15
M  V30 16 1 17 16
M  V30 17 1 18 17
M  V30 18 1 19 18
M  V30 19 2 20 19
M  V30 20 1 21 20
M  V30 21 2 22 21
M  V30 22 1 23 22
M  V30 23 1 24 19
M  V30 24 2 24 23
M  V30 25 1 25 24
M  V30 26 1 26 18
M  V30 27 1 27 15
M  V30 28 1 27 26
M  V30 29 1 28 12
M  V30 30 1 29 28
M  V30 31 1 30 8
M  V30 32 2 30 28
M  V30 33 1 31 6
M  V30 34 1 31 30
M  V30 35 2 32 5
M  V30 36 2 33 2
M  V30 37 1 33 32
M  V30 38 1 34 1
M  V30 39 1 35 1
M  V30 40 1 36 1
M  V30 41 1 37 3
M  V30 42 1 38 4
M  V30 43 1 39 7
M  V30 44 1 40 13
M  V30 45 1 41 13
M  V30 46 1 42 14
M  V30 47 1 43 14
M  V30 48 1 44 16
M  V30 49 1 45 16
M  V30 50 1 46 17
M  V30 51 1 47 17
M  V30 52 1 48 20
M  V30 53 1 49 21
M  V30 54 1 50 22
M  V30 55 1 51 23
M  V30 56 1 52 26
M  V30 57 1 53 26
M  V30 58 1 54 27
M  V30 59 1 55 27
M  V30 60 1 56 31
M  V30 61 1 57 32
M  V30 62 1 58 33
M  V30 END BOND
M  V30 END CTAB
M  END
>  <b_m_subgroup_collapsed>  (1239) 
0

>  <r_i_docking_score>  (1239) 
-7.3289812028897501

>  <s_m_subgroup_title>  (1239) 
glide-dock_SP_D22_pv

>  <s_m_subgroupid>  (1239) 
glide-dock_SP_D22_pv

>  <Molecule ChEMBL ID>  (1239) 
CHEMBL372222

>  <Standard Type>  (1239) 
Ki

>  <Standard Value>  (1239) 
10000.0

>  <label>  (1239) 
0

$$$$
CHEMBL331172
     RDKit          3D

  0  0  0  0  0  0  0  0  0  0999 V3000
M  V30 BEGIN CTAB
M  V30 COUNTS 50 53 0 0 1
M  V30 BEGIN ATOM
M  V30 1 O 11.105696 6.782404 -12.915619 0
M  V30 2 C 10.485527 5.729072 -13.047021 0
M  V30 3 C 11.153888 4.567998 -13.765160 0
M  V30 4 C 10.246906 4.061853 -14.874537 0
M  V30 5 C 8.869424 3.711457 -14.347448 0
M  V30 6 C 8.178671 2.646011 -14.960645 0
M  V30 7 C 6.885925 2.306272 -14.539033 0
M  V30 8 C 6.268465 3.045093 -13.514208 0
M  V30 9 C 6.963181 4.093464 -12.883226 0
M  V30 10 C 8.287986 4.432589 -13.262886 0
M  V30 11 C 9.083901 5.469802 -12.426543 0 CFG=2
M  V30 12 C 8.281312 6.796758 -12.219836 0
M  V30 13 C 8.886773 7.754178 -11.158485 0
M  V30 14 N 9.049649 7.058899 -9.852321 0 CFG=2 CHG=1
M  V30 15 C 9.577178 7.947390 -8.789211 0
M  V30 16 C 9.294800 7.417177 -7.364738 0
M  V30 17 C 10.244104 7.997773 -6.331641 0
M  V30 18 C 10.544278 9.372555 -6.327749 0
M  V30 19 C 11.442983 9.909733 -5.391437 0
M  V30 20 C 12.018655 9.076263 -4.414004 0
M  V30 21 C 11.704899 7.703720 -4.395854 0
M  V30 22 C 10.849414 7.160258 -5.374017 0
M  V30 23 C 9.884030 5.843528 -9.997534 0
M  V30 24 C 9.286228 4.862423 -11.015648 0
M  V30 25 H 12.122459 4.872721 -14.160224 0
M  V30 26 H 11.320963 3.772416 -13.046999 0
M  V30 27 H 10.142478 4.817965 -15.654015 0
M  V30 28 H 10.703757 3.185226 -15.339486 0
M  V30 29 H 8.636666 2.090247 -15.766023 0
M  V30 30 H 6.362188 1.488405 -15.011046 0
M  V30 31 H 5.267606 2.791718 -13.195768 0
M  V30 32 H 6.476004 4.595545 -12.060861 0
M  V30 33 H 8.093831 7.314027 -13.158138 0
M  V30 34 H 7.282466 6.569551 -11.854720 0
M  V30 35 H 8.239100 8.623852 -11.050510 0
M  V30 36 H 9.838485 8.180888 -11.463587 0
M  V30 37 H 9.131542 8.940331 -8.887105 0
M  V30 38 H 10.651906 8.076308 -8.945945 0
M  V30 39 H 9.359791 6.331507 -7.305557 0
M  V30 40 H 8.270904 7.662524 -7.075690 0
M  V30 41 H 10.088143 10.031448 -7.046693 0
M  V30 42 H 11.682699 10.962651 -5.437130 0
M  V30 43 H 12.698699 9.487682 -3.681372 0
M  V30 44 H 12.144519 7.059685 -3.647705 0
M  V30 45 H 10.629822 6.104732 -5.353520 0
M  V30 46 H 10.884928 6.172249 -10.279268 0
M  V30 47 H 9.997147 5.317432 -9.052053 0
M  V30 48 H 9.904463 3.964753 -11.069873 0
M  V30 49 H 8.332332 4.524123 -10.609591 0
M  V30 50 H 8.105471 6.804852 -9.582766 0
M  V30 END ATOM
M  V30 BEGIN BOND
M  V30 1 2 2 1
M  V30 2 1 3 2
M  V30 3 1 4 3
M  V30 4 1 5 4
M  V30 5 2 6 5
M  V30 6 1 7 6
M  V30 7 2 8 7
M  V30 8 1 9 8
M  V30 9 1 10 5
M  V30 10 2 10 9
M  V30 11 1 11 2
M  V30 12 1 11 10
M  V30 13 1 11 12 CFG=1
M  V30 14 1 13 12
M  V30 15 1 14 13
M  V30 16 1 15 14
M  V30 17 1 16 15
M  V30 18 1 17 16
M  V30 19 2 18 17
M  V30 20 1 19 18
M  V30 21 2 20 19
M  V30 22 1 21 20
M  V30 23 1 22 17
M  V30 24 2 22 21
M  V30 25 1 23 14
M  V30 26 1 24 11
M  V30 27 1 24 23
M  V30 28 1 25 3
M  V30 29 1 26 3
M  V30 30 1 27 4
M  V30 31 1 28 4
M  V30 32 1 29 6
M  V30 33 1 30 7
M  V30 34 1 31 8
M  V30 35 1 32 9
M  V30 36 1 33 12
M  V30 37 1 34 12
M  V30 38 1 35 13
M  V30 39 1 36 13
M  V30 40 1 37 15
M  V30 41 1 38 15
M  V30 42 1 39 16
M  V30 43 1 40 16
M  V30 44 1 41 18
M  V30 45 1 42 19
M  V30 46 1 43 20
M  V30 47 1 44 21
M  V30 48 1 45 22
M  V30 49 1 46 23
M  V30 50 1 47 23
M  V30 51 1 48 24
M  V30 52 1 49 24
M  V30 53 1 14 50 CFG=1
M  V30 END BOND
M  V30 END CTAB
M  END
>  <b_m_subgroup_collapsed>  (1240) 
0

>  <r_i_docking_score>  (1240) 
-7.3282926369703496

>  <s_m_subgroup_title>  (1240) 
glide-dock_SP_D22_pv

>  <s_m_subgroupid>  (1240) 
glide-dock_SP_D22_pv

>  <Molecule ChEMBL ID>  (1240) 
CHEMBL331172

>  <Standard Type>  (1240) 
Ki

>  <Standard Value>  (1240) 
10000.0

>  <label>  (1240) 
0

$$$$
CHEMBL3800165
     RDKit          3D

  0  0  0  0  0  0  0  0  0  0999 V3000
M  V30 BEGIN CTAB
M  V30 COUNTS 44 46 0 0 1
M  V30 BEGIN ATOM
M  V30 1 C 9.976187 7.130215 -6.634307 0
M  V30 2 C 9.304565 7.156529 -8.013079 0
M  V30 3 C 8.776147 5.772634 -8.427339 0
M  V30 4 N 8.086038 5.772314 -9.738591 0 CHG=1
M  V30 5 C 8.879827 5.364840 -10.918802 0 CFG=2
M  V30 6 C 9.742241 6.522813 -11.479127 0
M  V30 7 C 10.510247 6.145778 -12.737959 0
M  V30 8 C 11.716948 6.660787 -13.261951 0
M  V30 9 C 12.252382 6.133328 -14.469801 0
M  V30 10 C 11.600394 5.086740 -15.175182 0
M  V30 11 C 10.394377 4.573471 -14.656598 0
M  V30 12 C 9.926489 5.122048 -13.488440 0
M  V30 13 N 8.740543 4.443100 -13.201377 0
M  V30 14 C 8.481156 3.537138 -14.175358 0
M  V30 15 O 7.486902 2.816134 -14.246220 0
M  V30 16 N 9.497686 3.583707 -15.069564 0
M  V30 17 C 9.651875 2.788219 -16.286587 0
M  V30 18 C 10.642696 1.623113 -16.104719 0
M  V30 19 C 10.161684 0.549689 -15.119397 0
M  V30 20 C 7.961454 4.755984 -12.006966 0
M  V30 21 H 10.320465 8.124727 -6.350612 0
M  V30 22 H 9.286743 6.786792 -5.862706 0
M  V30 23 H 10.839892 6.465011 -6.628243 0
M  V30 24 H 10.021242 7.534611 -8.737689 0
M  V30 25 H 8.485891 7.875348 -7.994232 0
M  V30 26 H 8.042034 5.454515 -7.686441 0
M  V30 27 H 9.571010 5.026070 -8.404031 0
M  V30 28 H 7.592854 6.659969 -9.890409 0
M  V30 29 H 9.554478 4.564798 -10.608241 0
M  V30 30 H 10.476086 6.845205 -10.743586 0
M  V30 31 H 9.114378 7.385800 -11.706391 0
M  V30 32 H 12.240063 7.451258 -12.744072 0
M  V30 33 H 13.179897 6.533125 -14.853609 0
M  V30 34 H 12.020545 4.694561 -16.089684 0
M  V30 35 H 8.682668 2.406057 -16.611467 0
M  V30 36 H 9.999404 3.442627 -17.086695 0
M  V30 37 H 10.815311 1.153875 -17.073771 0
M  V30 38 H 11.611603 2.006032 -15.781336 0
M  V30 39 H 10.885910 -0.260362 -15.046623 0
M  V30 40 H 10.026035 0.959950 -14.120193 0
M  V30 41 H 9.211203 0.118761 -15.435464 0
M  V30 42 H 7.175956 5.461438 -12.283375 0
M  V30 43 H 7.468831 3.854127 -11.636887 0
M  V30 44 H 7.354249 5.076018 -9.653633 0
M  V30 END ATOM
M  V30 BEGIN BOND
M  V30 1 1 2 1
M  V30 2 1 3 2
M  V30 3 1 4 3
M  V30 4 1 5 4
M  V30 5 1 6 5
M  V30 6 1 7 6
M  V30 7 1 8 7
M  V30 8 2 9 8
M  V30 9 1 10 9
M  V30 10 2 11 10
M  V30 11 2 12 7
M  V30 12 1 12 11
M  V30 13 1 13 12
M  V30 14 1 14 13
M  V30 15 2 15 14
M  V30 16 1 16 11
M  V30 17 1 16 14
M  V30 18 1 17 16
M  V30 19 1 18 17
M  V30 20 1 19 18
M  V30 21 1 20 5
M  V30 22 1 20 13
M  V30 23 1 21 1
M  V30 24 1 22 1
M  V30 25 1 23 1
M  V30 26 1 24 2
M  V30 27 1 25 2
M  V30 28 1 26 3
M  V30 29 1 27 3
M  V30 30 1 28 4
M  V30 31 1 5 29 CFG=1
M  V30 32 1 30 6
M  V30 33 1 31 6
M  V30 34 1 32 8
M  V30 35 1 33 9
M  V30 36 1 34 10
M  V30 37 1 35 17
M  V30 38 1 36 17
M  V30 39 1 37 18
M  V30 40 1 38 18
M  V30 41 1 39 19
M  V30 42 1 40 19
M  V30 43 1 41 19
M  V30 44 1 42 20
M  V30 45 1 43 20
M  V30 46 1 44 4
M  V30 END BOND
M  V30 END CTAB
M  END
>  <b_m_subgroup_collapsed>  (1241) 
0

>  <r_i_docking_score>  (1241) 
-7.3274130417080299

>  <s_m_subgroup_title>  (1241) 
glide-dock_SP_D22_pv

>  <s_m_subgroupid>  (1241) 
glide-dock_SP_D22_pv

>  <Molecule ChEMBL ID>  (1241) 
CHEMBL3800165

>  <Standard Type>  (1241) 
Ki

>  <Standard Value>  (1241) 
8.08

>  <label>  (1241) 
1

$$$$
CHEMBL64508
     RDKit          3D

  0  0  0  0  0  0  0  0  0  0999 V3000
M  V30 BEGIN CTAB
M  V30 COUNTS 36 37 0 0 1
M  V30 BEGIN ATOM
M  V30 1 O 12.486021 7.634864 -2.911701 0
M  V30 2 C 11.852252 8.010222 -4.059717 0
M  V30 3 C 11.742544 9.372325 -4.392073 0
M  V30 4 C 11.070638 9.757339 -5.568858 0
M  V30 5 C 10.486019 8.782421 -6.403522 0
M  V30 6 C 10.578326 7.410450 -6.064184 0
M  V30 7 O 10.017094 6.384661 -6.787624 0
M  V30 8 C 8.951223 6.644670 -7.689518 0
M  V30 9 C 9.495448 6.663346 -9.125704 0
M  V30 10 N 8.486022 6.172325 -10.085604 0 CHG=1
M  V30 11 C 8.870108 6.291433 -11.503560 0
M  V30 12 C 8.090843 5.299754 -12.344619 0
M  V30 13 C 6.680177 5.346381 -12.375203 0
M  V30 14 C 5.958697 4.389112 -13.113506 0
M  V30 15 C 6.641464 3.400615 -13.846865 0
M  V30 16 C 8.048923 3.372325 -13.846865 0
M  V30 17 C 8.772434 4.311333 -13.086927 0
M  V30 18 C 11.286022 7.036704 -4.903924 0
M  V30 19 H 12.443699 6.704050 -2.752988 0
M  V30 20 H 12.169687 10.120947 -3.740641 0
M  V30 21 H 10.994008 10.803763 -5.825622 0
M  V30 22 H 9.972168 9.107203 -7.295636 0
M  V30 23 H 8.253631 5.814145 -7.570962 0
M  V30 24 H 8.383398 7.543489 -7.448181 0
M  V30 25 H 9.822180 7.669391 -9.391634 0
M  V30 26 H 10.367625 6.011642 -9.197954 0
M  V30 27 H 8.265362 5.207434 -9.883888 0
M  V30 28 H 8.680689 7.308224 -11.850636 0
M  V30 29 H 9.938722 6.102692 -11.617596 0
M  V30 30 H 6.143737 6.105093 -11.821828 0
M  V30 31 H 4.880494 4.417118 -13.125171 0
M  V30 32 H 6.086025 2.670580 -14.416756 0
M  V30 33 H 8.573905 2.615756 -14.411800 0
M  V30 34 H 9.851788 4.263059 -13.076452 0
M  V30 35 H 11.358495 5.989943 -4.646801 0
M  V30 36 H 7.626058 6.726789 -9.981527 0
M  V30 END ATOM
M  V30 BEGIN BOND
M  V30 1 1 2 1
M  V30 2 1 3 2
M  V30 3 2 4 3
M  V30 4 1 5 4
M  V30 5 2 6 5
M  V30 6 1 7 6
M  V30 7 1 8 7
M  V30 8 1 9 8
M  V30 9 1 10 9
M  V30 10 1 11 10
M  V30 11 1 12 11
M  V30 12 2 13 12
M  V30 13 1 14 13
M  V30 14 2 15 14
M  V30 15 1 16 15
M  V30 16 1 17 12
M  V30 17 2 17 16
M  V30 18 2 18 2
M  V30 19 1 18 6
M  V30 20 1 19 1
M  V30 21 1 20 3
M  V30 22 1 21 4
M  V30 23 1 22 5
M  V30 24 1 23 8
M  V30 25 1 24 8
M  V30 26 1 25 9
M  V30 27 1 26 9
M  V30 28 1 27 10
M  V30 29 1 28 11
M  V30 30 1 29 11
M  V30 31 1 30 13
M  V30 32 1 31 14
M  V30 33 1 32 15
M  V30 34 1 33 16
M  V30 35 1 34 17
M  V30 36 1 35 18
M  V30 37 1 36 10
M  V30 END BOND
M  V30 END CTAB
M  END
>  <b_m_subgroup_collapsed>  (1242) 
0

>  <r_i_docking_score>  (1242) 
-7.3237371924140797

>  <s_m_subgroup_title>  (1242) 
glide-dock_SP_D22_pv

>  <s_m_subgroupid>  (1242) 
glide-dock_SP_D22_pv

>  <Molecule ChEMBL ID>  (1242) 
CHEMBL64508

>  <Standard Type>  (1242) 
Ki

>  <Standard Value>  (1242) 
75.8

>  <label>  (1242) 
1

$$$$
CHEMBL4453069
     RDKit          3D

  0  0  0  0  0  0  0  0  0  0999 V3000
M  V30 BEGIN CTAB
M  V30 COUNTS 40 42 0 0 1
M  V30 BEGIN ATOM
M  V30 1 O 10.247288 6.172379 -12.172726 0
M  V30 2 C 9.340268 6.654089 -11.498812 0
M  V30 3 C 9.612329 7.911494 -10.663746 0
M  V30 4 N 10.429441 7.732715 -9.436817 0
M  V30 5 C 9.844542 6.777386 -8.484748 0
M  V30 6 C 10.699858 6.680170 -7.197597 0
M  V30 7 N 10.877176 7.994669 -6.587551 0
M  V30 8 C 11.288668 8.099644 -5.242793 0
M  V30 9 C 11.685719 6.971749 -4.483371 0
M  V30 10 C 12.086806 7.144283 -3.145221 0
M  V30 11 C 12.090419 8.441996 -2.604365 0
M  V30 12 C 11.688375 9.507028 -3.427545 0
M  V30 13 N 11.295308 9.344488 -4.706260 0
M  V30 14 C 11.409190 8.977146 -7.527963 0
M  V30 15 C 10.521842 9.042443 -8.779870 0
M  V30 16 N 8.086226 6.172448 -11.450469 0
M  V30 17 C 7.489571 5.167334 -12.261666 0
M  V30 18 C 6.087399 5.036385 -12.244560 0
M  V30 19 N 5.445410 4.098894 -12.968182 0
M  V30 20 C 6.204229 3.301562 -13.714210 0
M  V30 21 N 7.527409 3.347733 -13.845646 0
M  V30 22 C 8.181705 4.270403 -13.108262 0
M  V30 23 H 10.118341 8.615828 -11.326154 0
M  V30 24 H 8.658298 8.380429 -10.412643 0
M  V30 25 H 8.825054 7.074990 -8.233515 0
M  V30 26 H 9.781054 5.785196 -8.931386 0
M  V30 27 H 10.189540 6.018190 -6.499525 0
M  V30 28 H 11.680486 6.246861 -7.408389 0
M  V30 29 H 11.688134 5.976250 -4.899583 0
M  V30 30 H 12.388710 6.295368 -2.547740 0
M  V30 31 H 12.387687 8.622542 -1.582153 0
M  V30 32 H 11.680380 10.519323 -3.046648 0
M  V30 33 H 11.454199 9.971441 -7.082789 0
M  V30 34 H 12.433096 8.706476 -7.797456 0
M  V30 35 H 10.943334 9.773871 -9.469541 0
M  V30 36 H 9.525298 9.393889 -8.504649 0
M  V30 37 H 7.438107 6.724514 -10.878191 0
M  V30 38 H 5.476578 5.680728 -11.630877 0
M  V30 39 H 5.691083 2.522087 -14.252635 0
M  V30 40 H 9.254277 4.256722 -13.206114 0
M  V30 END ATOM
M  V30 BEGIN BOND
M  V30 1 2 2 1
M  V30 2 1 3 2
M  V30 3 1 4 3
M  V30 4 1 5 4
M  V30 5 1 6 5
M  V30 6 1 7 6
M  V30 7 1 8 7
M  V30 8 2 9 8
M  V30 9 1 10 9
M  V30 10 2 11 10
M  V30 11 1 12 11
M  V30 12 1 13 8
M  V30 13 2 13 12
M  V30 14 1 14 7
M  V30 15 1 15 4
M  V30 16 1 15 14
M  V30 17 1 16 2
M  V30 18 1 17 16
M  V30 19 2 18 17
M  V30 20 1 19 18
M  V30 21 2 20 19
M  V30 22 1 21 20
M  V30 23 1 22 17
M  V30 24 2 22 21
M  V30 25 1 23 3
M  V30 26 1 24 3
M  V30 27 1 25 5
M  V30 28 1 26 5
M  V30 29 1 27 6
M  V30 30 1 28 6
M  V30 31 1 29 9
M  V30 32 1 30 10
M  V30 33 1 31 11
M  V30 34 1 32 12
M  V30 35 1 33 14
M  V30 36 1 34 14
M  V30 37 1 35 15
M  V30 38 1 36 15
M  V30 39 1 37 16
M  V30 40 1 38 18
M  V30 41 1 39 20
M  V30 42 1 40 22
M  V30 END BOND
M  V30 END CTAB
M  END
>  <b_m_subgroup_collapsed>  (1243) 
0

>  <r_i_docking_score>  (1243) 
-7.3231959550316796

>  <s_m_subgroup_title>  (1243) 
glide-dock_SP_D22_pv

>  <s_m_subgroupid>  (1243) 
glide-dock_SP_D22_pv

>  <Molecule ChEMBL ID>  (1243) 
CHEMBL4453069

>  <Standard Type>  (1243) 
Ki

>  <Standard Value>  (1243) 
50000.0

>  <label>  (1243) 
0

$$$$
CHEMBL4228054
     RDKit          3D

  0  0  0  0  0  0  0  0  0  0999 V3000
M  V30 BEGIN CTAB
M  V30 COUNTS 41 42 0 0 1
M  V30 BEGIN ATOM
M  V30 1 C 5.372800 4.289446 -13.282074 0
M  V30 2 C 6.878327 4.529118 -13.166387 0
M  V30 3 C 7.235269 5.773079 -12.339100 0
M  V30 4 C 8.757705 5.964269 -12.269894 0
M  V30 5 C 9.236852 7.114525 -11.363409 0
M  V30 6 N 8.886176 6.971646 -9.925156 0 CFG=1 CHG=1
M  V30 7 C 9.073146 5.631293 -9.322500 0
M  V30 8 C 9.465067 5.845781 -7.854031 0
M  V30 9 C 9.460121 7.362190 -7.632532 0 CFG=1
M  V30 10 C 10.456605 7.903428 -6.600448 0
M  V30 11 C 11.017657 9.188553 -6.757729 0
M  V30 12 C 11.885301 9.724641 -5.787471 0
M  V30 13 C 12.212935 8.972316 -4.644664 0
M  V30 14 C 11.685677 7.677247 -4.484916 0
M  V30 15 O 12.020812 6.942307 -3.384273 0
M  V30 16 C 10.805956 7.150698 -5.454539 0
M  V30 17 C 9.601844 7.921944 -9.051918 0
M  V30 18 H 5.178030 3.378927 -13.847081 0
M  V30 19 H 4.912095 4.173411 -12.300828 0
M  V30 20 H 4.885484 5.114882 -13.799579 0
M  V30 21 H 7.304852 4.611838 -14.166102 0
M  V30 22 H 7.338568 3.651430 -12.711760 0
M  V30 23 H 6.820450 5.665411 -11.336893 0
M  V30 24 H 6.768292 6.662007 -12.765975 0
M  V30 25 H 9.120080 6.165576 -13.278581 0
M  V30 26 H 9.234542 5.027845 -11.979444 0
M  V30 27 H 8.830745 8.061480 -11.722837 0
M  V30 28 H 10.321009 7.186562 -11.461754 0
M  V30 29 H 9.874240 5.086104 -9.822588 0
M  V30 30 H 8.158545 5.044916 -9.415464 0
M  V30 31 H 10.447151 5.400798 -7.683249 0
M  V30 32 H 8.755984 5.372989 -7.179709 0
M  V30 33 H 8.466973 7.638326 -7.273903 0
M  V30 34 H 10.780863 9.772502 -7.629400 0
M  V30 35 H 12.305391 10.710411 -5.922802 0
M  V30 36 H 12.882325 9.381098 -3.901722 0
M  V30 37 H 11.628017 6.081738 -3.366849 0
M  V30 38 H 10.379120 6.172085 -5.305062 0
M  V30 39 H 9.198330 8.930751 -9.150079 0
M  V30 40 H 10.656656 7.945532 -9.331792 0
M  V30 41 H 7.889183 7.204815 -9.846355 0
M  V30 END ATOM
M  V30 BEGIN BOND
M  V30 1 1 2 1
M  V30 2 1 3 2
M  V30 3 1 4 3
M  V30 4 1 5 4
M  V30 5 1 6 5
M  V30 6 1 7 6
M  V30 7 1 8 7
M  V30 8 1 9 8
M  V30 9 1 10 9
M  V30 10 2 11 10
M  V30 11 1 12 11
M  V30 12 2 13 12
M  V30 13 1 14 13
M  V30 14 1 15 14
M  V30 15 1 16 10
M  V30 16 2 16 14
M  V30 17 1 17 6
M  V30 18 1 17 9
M  V30 19 1 18 1
M  V30 20 1 19 1
M  V30 21 1 20 1
M  V30 22 1 21 2
M  V30 23 1 22 2
M  V30 24 1 23 3
M  V30 25 1 24 3
M  V30 26 1 25 4
M  V30 27 1 26 4
M  V30 28 1 27 5
M  V30 29 1 28 5
M  V30 30 1 29 7
M  V30 31 1 30 7
M  V30 32 1 31 8
M  V30 33 1 32 8
M  V30 34 1 9 33 CFG=1
M  V30 35 1 34 11
M  V30 36 1 35 12
M  V30 37 1 36 13
M  V30 38 1 37 15
M  V30 39 1 38 16
M  V30 40 1 39 17
M  V30 41 1 40 17
M  V30 42 1 6 41 CFG=3
M  V30 END BOND
M  V30 END CTAB
M  END
>  <b_m_subgroup_collapsed>  (1244) 
0

>  <r_i_docking_score>  (1244) 
-7.3220089988282302

>  <s_m_subgroup_title>  (1244) 
glide-dock_SP_D22_pv

>  <s_m_subgroupid>  (1244) 
glide-dock_SP_D22_pv

>  <Molecule ChEMBL ID>  (1244) 
CHEMBL4228054

>  <Standard Type>  (1244) 
Ki

>  <Standard Value>  (1244) 
10000.0

>  <label>  (1244) 
0

$$$$
CHEMBL2326481
     RDKit          3D

  0  0  0  0  0  0  0  0  0  0999 V3000
M  V30 BEGIN CTAB
M  V30 COUNTS 52 55 0 0 1
M  V30 BEGIN ATOM
M  V30 1 C 3.685799 -0.109603 -14.386776 0
M  V30 2 N 5.062461 -0.532196 -14.682776 0
M  V30 3 C 5.154639 -1.842225 -15.325232 0
M  V30 4 C 6.200754 0.175391 -14.461946 0
M  V30 5 O 7.315634 -0.227441 -14.787892 0
M  V30 6 C 6.130517 1.546462 -13.861699 0
M  V30 7 C 6.912715 2.573918 -14.431726 0
M  V30 8 C 6.932976 3.857763 -13.859234 0
M  V30 9 C 6.157179 4.135749 -12.726461 0
M  V30 10 C 6.227408 5.492871 -12.057456 0
M  V30 11 N 7.555387 5.772897 -11.446984 0 CFG=2 CHG=1
M  V30 12 C 8.455658 6.592007 -12.305885 0
M  V30 13 C 9.153755 7.731810 -11.519887 0
M  V30 14 C 9.665350 7.442007 -10.104971 0
M  V30 15 C 9.915803 8.545781 -9.256127 0
M  V30 16 C 10.308312 8.382920 -7.906808 0
M  V30 17 N 10.603222 9.378230 -6.984344 0
M  V30 18 C 10.929243 8.835753 -5.810925 0
M  V30 19 N 11.284837 9.593058 -4.709981 0
M  V30 20 S 10.886501 7.078322 -5.714088 0
M  V30 21 C 10.427260 7.058268 -7.413075 0
M  V30 22 C 10.199769 5.958702 -8.243615 0
M  V30 23 C 9.847925 6.135404 -9.589246 0
M  V30 24 C 9.685593 4.891564 -10.432621 0
M  V30 25 C 8.231870 4.616970 -10.798905 0
M  V30 26 C 5.407528 3.104640 -12.144757 0
M  V30 27 C 5.404429 1.810331 -12.684862 0
M  V30 28 H 3.563552 0.962714 -14.249026 0
M  V30 29 H 3.325367 -0.603481 -13.484581 0
M  V30 30 H 3.010876 -0.380191 -15.199959 0
M  V30 31 H 5.657221 -2.555578 -14.670083 0
M  V30 32 H 5.724700 -1.785733 -16.253086 0
M  V30 33 H 4.173633 -2.238933 -15.579525 0
M  V30 34 H 7.516217 2.374927 -15.306361 0
M  V30 35 H 7.556972 4.625766 -14.288659 0
M  V30 36 H 5.929895 6.266073 -12.766278 0
M  V30 37 H 5.471795 5.550109 -11.275990 0
M  V30 38 H 9.169170 5.961773 -12.834585 0
M  V30 39 H 7.891584 7.073053 -13.104594 0
M  V30 40 H 9.985095 8.118165 -12.111258 0
M  V30 41 H 8.448188 8.558675 -11.435181 0
M  V30 42 H 9.789234 9.548606 -9.631907 0
M  V30 43 H 11.489451 10.573049 -4.838155 0
M  V30 44 H 11.726780 9.152223 -3.915905 0
M  V30 45 H 10.320584 4.972348 -7.846562 0
M  V30 46 H 10.294686 4.964307 -11.329633 0
M  V30 47 H 10.078859 4.024814 -9.899327 0
M  V30 48 H 7.686231 4.303440 -9.912020 0
M  V30 49 H 8.268023 3.772390 -11.476075 0
M  V30 50 H 4.887562 3.299636 -11.224928 0
M  V30 51 H 4.885998 1.015853 -12.173348 0
M  V30 52 H 7.307976 6.425813 -10.700163 0
M  V30 END ATOM
M  V30 BEGIN BOND
M  V30 1 1 2 1
M  V30 2 1 3 2
M  V30 3 1 4 2
M  V30 4 2 5 4
M  V30 5 1 6 4
M  V30 6 1 7 6
M  V30 7 2 8 7
M  V30 8 1 9 8
M  V30 9 1 10 9
M  V30 10 1 11 10
M  V30 11 1 12 11
M  V30 12 1 13 12
M  V30 13 1 14 13
M  V30 14 2 15 14
M  V30 15 1 16 15
M  V30 16 1 17 16
M  V30 17 2 18 17
M  V30 18 1 19 18
M  V30 19 1 20 18
M  V30 20 2 21 16
M  V30 21 1 21 20
M  V30 22 1 22 21
M  V30 23 1 23 14
M  V30 24 2 23 22
M  V30 25 1 24 23
M  V30 26 1 25 11
M  V30 27 1 25 24
M  V30 28 2 26 9
M  V30 29 2 27 6
M  V30 30 1 27 26
M  V30 31 1 28 1
M  V30 32 1 29 1
M  V30 33 1 30 1
M  V30 34 1 31 3
M  V30 35 1 32 3
M  V30 36 1 33 3
M  V30 37 1 34 7
M  V30 38 1 35 8
M  V30 39 1 36 10
M  V30 40 1 37 10
M  V30 41 1 38 12
M  V30 42 1 39 12
M  V30 43 1 40 13
M  V30 44 1 41 13
M  V30 45 1 42 15
M  V30 46 1 43 19
M  V30 47 1 44 19
M  V30 48 1 45 22
M  V30 49 1 46 24
M  V30 50 1 47 24
M  V30 51 1 48 25
M  V30 52 1 49 25
M  V30 53 1 50 26
M  V30 54 1 51 27
M  V30 55 1 11 52 CFG=1
M  V30 END BOND
M  V30 END CTAB
M  END
>  <b_m_subgroup_collapsed>  (1245) 
0

>  <r_i_docking_score>  (1245) 
-7.3211893709687903

>  <s_m_subgroup_title>  (1245) 
glide-dock_SP_D22_pv

>  <s_m_subgroupid>  (1245) 
glide-dock_SP_D22_pv

>  <Molecule ChEMBL ID>  (1245) 
CHEMBL2326481

>  <Standard Type>  (1245) 
Ki

>  <Standard Value>  (1245) 
42.0

>  <label>  (1245) 
1

$$$$
CHEMBL4758966
     RDKit          3D

  0  0  0  0  0  0  0  0  0  0999 V3000
M  V30 BEGIN CTAB
M  V30 COUNTS 52 55 0 0 1
M  V30 BEGIN ATOM
M  V30 1 C 6.607902 -0.102517 -13.277433 0
M  V30 2 C 6.162450 0.955422 -14.300493 0
M  V30 3 O 6.680558 2.257260 -14.016055 0
M  V30 4 C 8.016451 2.526686 -14.246972 0
M  V30 5 C 8.912211 1.634091 -14.877493 0
M  V30 6 C 10.256266 1.999803 -15.052848 0
M  V30 7 C 10.735451 3.240160 -14.588097 0
M  V30 8 C 9.877070 4.136278 -13.897797 0
M  V30 9 C 8.508910 3.770380 -13.797542 0
M  V30 10 C 10.373277 5.400922 -13.238699 0
M  V30 11 C 9.834588 5.831876 -11.893768 0
M  V30 12 C 10.111185 7.059422 -11.389137 0
M  V30 13 C 9.753548 7.571244 -9.996735 0 CFG=2
M  V30 14 C 11.052957 7.963985 -9.260673 0
M  V30 15 N 8.886141 6.619424 -9.231541 0 CFG=2 CHG=1
M  V30 16 C 8.807894 6.879917 -7.774833 0
M  V30 17 C 9.149037 5.192288 -9.528126 0
M  V30 18 C 8.986325 4.908168 -11.025563 0
M  V30 19 N 11.285813 6.159460 -13.729033 0
M  V30 20 C 12.032092 5.993714 -14.903507 0
M  V30 21 C 12.485988 7.173138 -15.532287 0
M  V30 22 C 13.297364 7.118895 -16.681110 0
M  V30 23 Cl 13.799532 8.570935 -17.450760 0
M  V30 24 C 13.705028 5.878465 -17.195810 0
M  V30 25 C 13.285448 4.696436 -16.565445 0
M  V30 26 C 12.453014 4.746988 -15.430870 0
M  V30 27 N 12.066206 3.539769 -14.865931 0
M  V30 28 H 6.171704 -1.074331 -13.512632 0
M  V30 29 H 7.688009 -0.227552 -13.263989 0
M  V30 30 H 6.288206 0.167049 -12.271231 0
M  V30 31 H 5.075980 1.025501 -14.247128 0
M  V30 32 H 6.390373 0.653865 -15.324549 0
M  V30 33 H 8.594083 0.668990 -15.240108 0
M  V30 34 H 10.921515 1.316421 -15.561132 0
M  V30 35 H 7.800578 4.442289 -13.344627 0
M  V30 36 H 10.693006 7.766812 -11.961951 0
M  V30 37 H 9.163293 8.479484 -10.134524 0
M  V30 38 H 11.648812 8.644873 -9.868175 0
M  V30 39 H 10.857410 8.486860 -8.324427 0
M  V30 40 H 11.680092 7.096865 -9.045976 0
M  V30 41 H 9.755099 6.680206 -7.272150 0
M  V30 42 H 8.516891 7.914211 -7.581686 0
M  V30 43 H 8.059131 6.241208 -7.309542 0
M  V30 44 H 8.451522 4.567740 -8.970509 0
M  V30 45 H 10.150851 4.925203 -9.193638 0
M  V30 46 H 7.936018 5.030766 -11.289805 0
M  V30 47 H 9.264861 3.872156 -11.216221 0
M  V30 48 H 12.199742 8.135044 -15.135509 0
M  V30 49 H 14.338118 5.834373 -18.067947 0
M  V30 50 H 13.609377 3.744540 -16.963318 0
M  V30 51 H 12.582267 2.755354 -15.238667 0
M  V30 52 H 7.944710 6.809774 -9.576601 0
M  V30 END ATOM
M  V30 BEGIN BOND
M  V30 1 1 2 1
M  V30 2 1 3 2
M  V30 3 1 4 3
M  V30 4 1 5 4
M  V30 5 2 6 5
M  V30 6 1 7 6
M  V30 7 2 8 7
M  V30 8 2 9 4
M  V30 9 1 9 8
M  V30 10 1 10 8
M  V30 11 1 11 10
M  V30 12 2 12 11
M  V30 13 1 13 12
M  V30 14 1 14 13
M  V30 15 1 15 13
M  V30 16 1 16 15
M  V30 17 1 17 15
M  V30 18 1 18 11
M  V30 19 1 18 17
M  V30 20 2 19 10
M  V30 21 1 20 19
M  V30 22 1 21 20
M  V30 23 2 22 21
M  V30 24 1 23 22
M  V30 25 1 24 22
M  V30 26 2 25 24
M  V30 27 2 26 20
M  V30 28 1 26 25
M  V30 29 1 27 7
M  V30 30 1 27 26
M  V30 31 1 28 1
M  V30 32 1 29 1
M  V30 33 1 30 1
M  V30 34 1 31 2
M  V30 35 1 32 2
M  V30 36 1 33 5
M  V30 37 1 34 6
M  V30 38 1 35 9
M  V30 39 1 36 12
M  V30 40 1 13 37 CFG=3
M  V30 41 1 38 14
M  V30 42 1 39 14
M  V30 43 1 40 14
M  V30 44 1 41 16
M  V30 45 1 42 16
M  V30 46 1 43 16
M  V30 47 1 44 17
M  V30 48 1 45 17
M  V30 49 1 46 18
M  V30 50 1 47 18
M  V30 51 1 48 21
M  V30 52 1 49 24
M  V30 53 1 50 25
M  V30 54 1 51 27
M  V30 55 1 15 52 CFG=3
M  V30 END BOND
M  V30 END CTAB
M  END
>  <b_m_subgroup_collapsed>  (1246) 
0

>  <r_i_docking_score>  (1246) 
-7.3201778277570302

>  <s_m_subgroup_title>  (1246) 
glide-dock_SP_D22_pv

>  <s_m_subgroupid>  (1246) 
glide-dock_SP_D22_pv

>  <Molecule ChEMBL ID>  (1246) 
CHEMBL4758966

>  <Standard Type>  (1246) 
Ki

>  <Standard Value>  (1246) 
47.0

>  <label>  (1246) 
1

$$$$
CHEMBL382780
     RDKit          3D

  0  0  0  0  0  0  0  0  0  0999 V3000
M  V30 BEGIN CTAB
M  V30 COUNTS 46 49 0 0 1
M  V30 BEGIN ATOM
M  V30 1 O 9.024117 5.296263 -9.358950 0
M  V30 2 C 9.669520 6.263966 -9.768894 0
M  V30 3 C 9.324753 6.868448 -11.146582 0 CFG=2
M  V30 4 C 8.828308 5.790581 -12.112740 0
M  V30 5 C 7.439532 5.577050 -12.259012 0
M  V30 6 C 6.955709 4.570909 -13.115524 0
M  V30 7 C 7.858222 3.769469 -13.839617 0
M  V30 8 C 9.244286 3.968244 -13.695846 0
M  V30 9 C 9.727822 4.971807 -12.833955 0
M  V30 10 C 10.431501 7.771952 -11.726354 0
M  V30 11 C 10.998160 8.698202 -10.646362 0
M  V30 12 C 11.576145 7.865865 -9.507409 0
M  V30 13 N 10.646503 6.840330 -9.023210 0
M  V30 14 C 10.950656 6.345534 -7.682317 0
M  V30 15 C 9.984936 6.915890 -6.639442 0
M  V30 16 C 10.581181 8.062823 -5.908434 0
M  V30 17 C 10.528779 9.373710 -6.279789 0
M  V30 18 N 11.085653 10.149120 -5.276041 0
M  V30 19 C 11.530294 9.348538 -4.241720 0
M  V30 20 C 12.088487 9.629643 -2.985316 0
M  V30 21 C 12.483527 8.572578 -2.145086 0
M  V30 22 C 12.286513 7.241371 -2.557172 0
M  V30 23 C 11.686965 6.968262 -3.800106 0
M  V30 24 C 11.286150 8.012214 -4.662988 0
M  V30 25 H 8.486193 7.532333 -10.948448 0
M  V30 26 H 6.735389 6.172477 -11.696045 0
M  V30 27 H 5.891499 4.413291 -13.213093 0
M  V30 28 H 7.487287 2.994888 -14.494348 0
M  V30 29 H 9.938376 3.343373 -14.238414 0
M  V30 30 H 10.794321 5.094042 -12.724044 0
M  V30 31 H 11.247165 7.182675 -12.143263 0
M  V30 32 H 10.018453 8.356408 -12.547289 0
M  V30 33 H 10.216999 9.352966 -10.255116 0
M  V30 34 H 11.783997 9.338812 -11.046249 0
M  V30 35 H 11.871459 8.528823 -8.693441 0
M  V30 36 H 12.486886 7.372557 -9.846743 0
M  V30 37 H 10.877254 5.263540 -7.701095 0
M  V30 38 H 11.985420 6.548476 -7.400963 0
M  V30 39 H 9.030248 7.195805 -7.088652 0
M  V30 40 H 9.731783 6.158245 -5.906974 0
M  V30 41 H 10.093942 9.797636 -7.170253 0
M  V30 42 H 11.137386 11.156378 -5.315328 0
M  V30 43 H 12.214399 10.647594 -2.652737 0
M  V30 44 H 12.923706 8.786907 -1.181959 0
M  V30 45 H 12.571877 6.423629 -1.910653 0
M  V30 46 H 11.505011 5.943614 -4.090442 0
M  V30 END ATOM
M  V30 BEGIN BOND
M  V30 1 2 2 1
M  V30 2 1 3 2
M  V30 3 1 4 3
M  V30 4 2 5 4
M  V30 5 1 6 5
M  V30 6 2 7 6
M  V30 7 1 8 7
M  V30 8 1 9 4
M  V30 9 2 9 8
M  V30 10 1 10 3
M  V30 11 1 11 10
M  V30 12 1 12 11
M  V30 13 1 13 2
M  V30 14 1 13 12
M  V30 15 1 14 13
M  V30 16 1 15 14
M  V30 17 1 16 15
M  V30 18 2 17 16
M  V30 19 1 18 17
M  V30 20 1 19 18
M  V30 21 2 20 19
M  V30 22 1 21 20
M  V30 23 2 22 21
M  V30 24 1 23 22
M  V30 25 1 24 16
M  V30 26 1 24 19
M  V30 27 2 24 23
M  V30 28 1 3 25 CFG=1
M  V30 29 1 26 5
M  V30 30 1 27 6
M  V30 31 1 28 7
M  V30 32 1 29 8
M  V30 33 1 30 9
M  V30 34 1 31 10
M  V30 35 1 32 10
M  V30 36 1 33 11
M  V30 37 1 34 11
M  V30 38 1 35 12
M  V30 39 1 36 12
M  V30 40 1 37 14
M  V30 41 1 38 14
M  V30 42 1 39 15
M  V30 43 1 40 15
M  V30 44 1 41 17
M  V30 45 1 42 18
M  V30 46 1 43 20
M  V30 47 1 44 21
M  V30 48 1 45 22
M  V30 49 1 46 23
M  V30 END BOND
M  V30 END CTAB
M  END
>  <b_m_subgroup_collapsed>  (1247) 
0

>  <r_i_docking_score>  (1247) 
-7.31898601562468

>  <s_m_subgroup_title>  (1247) 
glide-dock_SP_D22_pv

>  <s_m_subgroupid>  (1247) 
glide-dock_SP_D22_pv

>  <Molecule ChEMBL ID>  (1247) 
CHEMBL382780

>  <Standard Type>  (1247) 
Ki

>  <Standard Value>  (1247) 
10000.0

>  <label>  (1247) 
0

$$$$
CHEMBL3289964
     RDKit          3D

  0  0  0  0  0  0  0  0  0  0999 V3000
M  V30 BEGIN CTAB
M  V30 COUNTS 59 63 0 0 1
M  V30 BEGIN ATOM
M  V30 1 O 5.594142 0.226737 -14.020067 0
M  V30 2 S 6.843618 0.752313 -14.590318 0
M  V30 3 O 8.150916 0.173164 -14.251631 0
M  V30 4 N 6.885071 2.440291 -14.246839 0
M  V30 5 C 8.076827 3.184332 -13.847073 0
M  V30 6 C 7.664989 4.171573 -12.746910 0
M  V30 7 C 8.824096 4.727744 -11.906384 0
M  V30 8 C 8.267698 5.374178 -10.629747 0
M  V30 9 N 9.320068 5.867339 -9.712383 0 CHG=1
M  V30 10 C 9.764453 7.248940 -10.017584 0
M  V30 11 C 10.964491 7.636034 -9.134653 0
M  V30 12 N 10.697832 7.392263 -7.713248 0
M  V30 13 C 10.998815 8.347720 -6.713928 0
M  V30 14 N 10.922177 9.615089 -7.040151 0
M  V30 15 S 11.286066 10.572306 -5.733922 0
M  V30 16 C 11.616922 9.264263 -4.636207 0
M  V30 17 C 12.022776 9.314006 -3.290447 0
M  V30 18 C 12.253519 8.119544 -2.592062 0
M  V30 19 C 12.086083 6.891911 -3.253937 0
M  V30 20 C 11.678404 6.857638 -4.604163 0
M  V30 21 C 11.413596 8.041282 -5.342864 0
M  V30 22 C 10.111050 6.112149 -7.366337 0
M  V30 23 C 8.935095 5.747771 -8.284205 0
M  V30 24 C 6.691606 0.726349 -16.360685 0
M  V30 25 C 7.279375 1.562763 -17.265364 0
M  V30 26 N 6.806224 1.315609 -18.544655 0
M  V30 27 C 5.939337 0.307098 -18.424448 0
M  V30 28 C 5.127960 -0.359191 -19.383709 0
M  V30 29 C 4.305802 -1.389241 -18.990469 0
M  V30 30 C 4.273039 -1.800221 -17.638189 0
M  V30 31 C 5.046142 -1.162348 -16.697573 0
M  V30 32 N 5.852246 -0.123750 -17.072084 0
M  V30 33 H 6.001014 2.943614 -14.321131 0
M  V30 34 H 8.833076 2.491596 -13.473461 0
M  V30 35 H 8.502891 3.698438 -14.707676 0
M  V30 36 H 7.097225 4.995790 -13.182860 0
M  V30 37 H 6.969381 3.666262 -12.074180 0
M  V30 38 H 9.504994 3.920090 -11.632764 0
M  V30 39 H 9.400071 5.443600 -12.494351 0
M  V30 40 H 7.575569 6.172317 -10.885078 0
M  V30 41 H 7.686039 4.612565 -10.114852 0
M  V30 42 H 10.040494 7.335767 -11.068829 0
M  V30 43 H 8.932996 7.940031 -9.849260 0
M  V30 44 H 11.832597 7.046145 -9.425306 0
M  V30 45 H 11.235906 8.675458 -9.325409 0
M  V30 46 H 12.155021 10.264906 -2.793602 0
M  V30 47 H 12.559596 8.145291 -1.556157 0
M  V30 48 H 12.265866 5.966152 -2.726189 0
M  V30 49 H 11.578731 5.894134 -5.081004 0
M  V30 50 H 10.905030 5.372373 -7.432490 0
M  V30 51 H 9.748837 6.132795 -6.339331 0
M  V30 52 H 8.086062 6.400455 -8.081017 0
M  V30 53 H 8.609799 4.731131 -8.061126 0
M  V30 54 H 7.986292 2.358339 -17.081221 0
M  V30 55 H 5.164926 -0.044711 -20.421547 0
M  V30 56 H 3.687965 -1.895111 -19.726044 0
M  V30 57 H 3.636090 -2.627573 -17.334883 0
M  V30 58 H 5.046920 -1.461722 -15.655648 0
M  V30 59 H 10.117232 5.259600 -9.834330 0
M  V30 END ATOM
M  V30 BEGIN BOND
M  V30 1 2 2 1
M  V30 2 2 3 2
M  V30 3 1 4 2
M  V30 4 1 5 4
M  V30 5 1 6 5
M  V30 6 1 7 6
M  V30 7 1 8 7
M  V30 8 1 9 8
M  V30 9 1 10 9
M  V30 10 1 11 10
M  V30 11 1 12 11
M  V30 12 1 13 12
M  V30 13 2 14 13
M  V30 14 1 15 14
M  V30 15 1 16 15
M  V30 16 2 17 16
M  V30 17 1 18 17
M  V30 18 2 19 18
M  V30 19 1 20 19
M  V30 20 1 21 13
M  V30 21 1 21 16
M  V30 22 2 21 20
M  V30 23 1 22 12
M  V30 24 1 23 9
M  V30 25 1 23 22
M  V30 26 1 24 2
M  V30 27 2 25 24
M  V30 28 1 26 25
M  V30 29 2 27 26
M  V30 30 1 28 27
M  V30 31 2 29 28
M  V30 32 1 30 29
M  V30 33 2 31 30
M  V30 34 1 32 24
M  V30 35 1 32 27
M  V30 36 1 32 31
M  V30 37 1 33 4
M  V30 38 1 34 5
M  V30 39 1 35 5
M  V30 40 1 36 6
M  V30 41 1 37 6
M  V30 42 1 38 7
M  V30 43 1 39 7
M  V30 44 1 40 8
M  V30 45 1 41 8
M  V30 46 1 42 10
M  V30 47 1 43 10
M  V30 48 1 44 11
M  V30 49 1 45 11
M  V30 50 1 46 17
M  V30 51 1 47 18
M  V30 52 1 48 19
M  V30 53 1 49 20
M  V30 54 1 50 22
M  V30 55 1 51 22
M  V30 56 1 52 23
M  V30 57 1 53 23
M  V30 58 1 54 25
M  V30 59 1 55 28
M  V30 60 1 56 29
M  V30 61 1 57 30
M  V30 62 1 58 31
M  V30 63 1 59 9
M  V30 END BOND
M  V30 END CTAB
M  END
>  <b_m_subgroup_collapsed>  (1248) 
0

>  <r_i_docking_score>  (1248) 
-7.3184430592460101

>  <s_m_subgroup_title>  (1248) 
glide-dock_SP_D22_pv

>  <s_m_subgroupid>  (1248) 
glide-dock_SP_D22_pv

>  <Molecule ChEMBL ID>  (1248) 
CHEMBL3289964

>  <Standard Type>  (1248) 
Ki

>  <Standard Value>  (1248) 
46.0

>  <label>  (1248) 
1

$$$$
CHEMBL241101
     RDKit          3D

  0  0  0  0  0  0  0  0  0  0999 V3000
M  V30 BEGIN CTAB
M  V30 COUNTS 55 58 0 0 1
M  V30 BEGIN ATOM
M  V30 1 C 4.930216 1.287857 -13.313378 0
M  V30 2 O 6.119731 1.890440 -13.793052 0
M  V30 3 C 6.886624 1.241067 -14.682178 0
M  V30 4 O 6.570785 0.160126 -15.179220 0
M  V30 5 N 8.059132 1.948670 -14.975668 0
M  V30 6 C 8.953903 1.461320 -16.033976 0
M  V30 7 C 10.154677 2.430911 -16.056385 0
M  V30 8 C 9.868941 3.353075 -14.906357 0
M  V30 9 C 10.706734 4.377366 -14.431482 0
M  V30 10 C 10.294920 5.103681 -13.295801 0
M  V30 11 C 9.063056 4.797691 -12.672776 0
M  V30 12 N 8.705042 5.484637 -11.467666 0
M  V30 13 C 9.047650 6.778036 -11.354316 0
M  V30 14 N 9.286345 7.391633 -10.179160 0 CHG=1
M  V30 15 C 9.565649 8.830343 -10.186851 0
M  V30 16 C 10.853601 9.127315 -9.412341 0
M  V30 17 C 10.799298 8.552896 -8.008265 0
M  V30 18 C 11.466751 9.179611 -6.933395 0
M  V30 19 C 11.483104 8.600399 -5.649140 0
M  V30 20 O 12.146699 9.297102 -4.669303 0
M  V30 21 C 11.300309 9.908580 -3.709502 0
M  V30 22 C 10.862754 7.332639 -5.447025 0
M  V30 23 O 10.904245 6.576342 -4.291848 0
M  V30 24 C 12.038954 6.708015 -3.435508 0
M  V30 25 C 10.120360 6.772099 -6.505017 0
M  V30 26 C 10.076180 7.363619 -7.777542 0
M  V30 27 C 9.263953 6.690044 -8.879599 0
M  V30 28 C 8.212657 3.793422 -13.178833 0
M  V30 29 C 8.646215 3.057404 -14.306297 0
M  V30 30 H 4.377966 2.003915 -12.705038 0
M  V30 31 H 4.285465 0.964994 -14.132152 0
M  V30 32 H 5.164365 0.421226 -12.693975 0
M  V30 33 H 9.283588 0.446206 -15.801807 0
M  V30 34 H 8.442593 1.438921 -16.997974 0
M  V30 35 H 10.200495 2.995522 -16.987820 0
M  V30 36 H 11.102327 1.911083 -15.910827 0
M  V30 37 H 11.653304 4.585637 -14.908603 0
M  V30 38 H 10.939085 5.872468 -12.894364 0
M  V30 39 H 9.128324 7.362235 -12.263925 0
M  V30 40 H 9.642795 9.175188 -11.215809 0
M  V30 41 H 8.718620 9.349943 -9.736494 0
M  V30 42 H 11.050517 10.193182 -9.400371 0
M  V30 43 H 11.703734 8.678557 -9.927968 0
M  V30 44 H 11.983341 10.117415 -7.065826 0
M  V30 45 H 11.882458 10.573252 -3.071991 0
M  V30 46 H 10.507355 10.491823 -4.180222 0
M  V30 47 H 10.856819 9.168703 -3.052591 0
M  V30 48 H 11.784420 7.258778 -2.531702 0
M  V30 49 H 12.393071 5.734847 -3.110144 0
M  V30 50 H 12.901434 7.174468 -3.906073 0
M  V30 51 H 9.597089 5.843080 -6.346878 0
M  V30 52 H 8.228125 6.585610 -8.553590 0
M  V30 53 H 9.658382 5.682178 -9.012580 0
M  V30 54 H 7.286771 3.588419 -12.666922 0
M  V30 55 H 8.023321 5.111771 -10.818727 0
M  V30 END ATOM
M  V30 BEGIN BOND
M  V30 1 1 2 1
M  V30 2 1 3 2
M  V30 3 2 4 3
M  V30 4 1 5 3
M  V30 5 1 6 5
M  V30 6 1 7 6
M  V30 7 1 8 7
M  V30 8 1 9 8
M  V30 9 2 10 9
M  V30 10 1 11 10
M  V30 11 1 12 11
M  V30 12 1 13 12
M  V30 13 2 14 13 CFG=2
M  V30 14 1 15 14
M  V30 15 1 16 15
M  V30 16 1 17 16
M  V30 17 2 18 17
M  V30 18 1 19 18
M  V30 19 1 20 19
M  V30 20 1 21 20
M  V30 21 2 22 19
M  V30 22 1 23 22
M  V30 23 1 24 23
M  V30 24 1 25 22
M  V30 25 1 26 17
M  V30 26 2 26 25
M  V30 27 1 27 14
M  V30 28 1 27 26
M  V30 29 2 28 11
M  V30 30 1 29 5
M  V30 31 2 29 8
M  V30 32 1 29 28
M  V30 33 1 30 1
M  V30 34 1 31 1
M  V30 35 1 32 1
M  V30 36 1 33 6
M  V30 37 1 34 6
M  V30 38 1 35 7
M  V30 39 1 36 7
M  V30 40 1 37 9
M  V30 41 1 38 10
M  V30 42 1 39 13
M  V30 43 1 40 15
M  V30 44 1 41 15
M  V30 45 1 42 16
M  V30 46 1 43 16
M  V30 47 1 44 18
M  V30 48 1 45 21
M  V30 49 1 46 21
M  V30 50 1 47 21
M  V30 51 1 48 24
M  V30 52 1 49 24
M  V30 53 1 50 24
M  V30 54 1 51 25
M  V30 55 1 52 27
M  V30 56 1 53 27
M  V30 57 1 54 28
M  V30 58 1 55 12
M  V30 END BOND
M  V30 END CTAB
M  END
>  <b_m_subgroup_collapsed>  (1249) 
0

>  <r_i_docking_score>  (1249) 
-7.3180259077975602

>  <s_m_subgroup_title>  (1249) 
glide-dock_SP_D22_pv

>  <s_m_subgroupid>  (1249) 
glide-dock_SP_D22_pv

>  <Molecule ChEMBL ID>  (1249) 
CHEMBL241101

>  <Standard Type>  (1249) 
Ki

>  <Standard Value>  (1249) 
14000.0

>  <label>  (1249) 
0

$$$$
CHEMBL3759819
     RDKit          3D

  0  0  0  0  0  0  0  0  0  0999 V3000
M  V30 BEGIN CTAB
M  V30 COUNTS 64 68 0 0 1
M  V30 BEGIN ATOM
M  V30 1 O 8.486636 3.785698 -18.372974 0
M  V30 2 S 9.880061 3.559333 -17.966017 0
M  V30 3 O 10.990573 4.206776 -18.678326 0
M  V30 4 N 10.030564 3.982928 -16.302359 0
M  V30 5 C 9.010673 3.680298 -15.283015 0 CFG=1
M  V30 6 C 9.542689 2.707006 -14.216847 0
M  V30 7 C 10.230504 3.446641 -13.048897 0 CFG=1
M  V30 8 C 11.414700 4.300375 -13.566697 0
M  V30 9 C 10.794188 5.689771 -13.789666 0
M  V30 10 C 9.305142 5.494505 -13.437576 0 CFG=1
M  V30 11 C 8.487494 4.994213 -14.646916 0
M  V30 12 N 9.294342 4.415154 -12.438243 0 CFG=2 CHG=1
M  V30 13 C 9.670044 4.849092 -11.060198 0
M  V30 14 C 8.498792 5.450729 -10.261785 0
M  V30 15 O 8.885550 5.685257 -8.906785 0
M  V30 16 C 9.661232 6.784268 -8.588614 0
M  V30 17 C 10.071660 7.775337 -9.515493 0
M  V30 18 C 10.882964 8.844442 -9.096591 0
M  V30 19 C 11.279397 8.947662 -7.750921 0
M  V30 20 C 10.870304 7.987617 -6.801202 0
M  V30 21 C 11.285872 8.109745 -5.389855 0
M  V30 22 C 11.305460 9.368849 -4.747454 0
M  V30 23 C 11.698909 9.486314 -3.400814 0
M  V30 24 C 12.089190 8.345906 -2.675205 0
M  V30 25 C 12.085383 7.086141 -3.302188 0
M  V30 26 C 11.679299 6.972068 -4.644975 0
M  V30 27 C 10.063779 6.913882 -7.241111 0
M  V30 28 C 10.154701 1.803813 -17.954895 0
M  V30 29 C 9.108600 0.972813 -17.520931 0
M  V30 30 C 9.277714 -0.419899 -17.533499 0
M  V30 31 C 10.485805 -0.978249 -17.998705 0
M  V30 32 C 11.529279 -0.137368 -18.443689 0
M  V30 33 Cl 12.997162 -0.812147 -19.047087 0
M  V30 34 C 11.371396 1.260807 -18.410770 0
M  V30 35 H 10.991857 3.915696 -15.969628 0
M  V30 36 H 8.187768 3.175776 -15.787190 0
M  V30 37 H 10.217944 1.974178 -14.662370 0
M  V30 38 H 8.709377 2.124163 -13.824270 0
M  V30 39 H 10.486007 2.696812 -12.321568 0
M  V30 40 H 11.863013 3.889769 -14.470742 0
M  V30 41 H 12.239305 4.369193 -12.866048 0
M  V30 42 H 10.942136 6.067508 -14.802952 0
M  V30 43 H 11.253818 6.415772 -13.116182 0
M  V30 44 H 8.857876 6.410145 -13.046853 0
M  V30 45 H 7.458724 4.854577 -14.315525 0
M  V30 46 H 8.485856 5.767083 -15.407848 0
M  V30 47 H 10.476560 5.575458 -11.103436 0
M  V30 48 H 10.048903 3.989705 -10.505018 0
M  V30 49 H 7.686388 4.726460 -10.244987 0
M  V30 50 H 8.090669 6.344436 -10.731857 0
M  V30 51 H 9.777884 7.740566 -10.552494 0
M  V30 52 H 11.203339 9.593206 -9.806474 0
M  V30 53 H 11.903477 9.771616 -7.446088 0
M  V30 54 H 11.003062 10.258470 -5.283017 0
M  V30 55 H 11.695911 10.455920 -2.919824 0
M  V30 56 H 12.388569 8.440151 -1.642489 0
M  V30 57 H 12.379285 6.203821 -2.751535 0
M  V30 58 H 11.679204 5.997982 -5.112335 0
M  V30 59 H 9.733688 6.172210 -6.529068 0
M  V30 60 H 8.170979 1.395388 -17.194185 0
M  V30 61 H 8.462947 -1.035517 -17.193203 0
M  V30 62 H 10.607583 -2.050698 -18.021873 0
M  V30 63 H 12.168219 1.906364 -18.753252 0
M  V30 64 H 8.376328 3.998680 -12.388061 0
M  V30 END ATOM
M  V30 BEGIN BOND
M  V30 1 2 2 1
M  V30 2 2 3 2
M  V30 3 1 4 2
M  V30 4 1 5 4
M  V30 5 1 6 5
M  V30 6 1 7 6
M  V30 7 1 8 7
M  V30 8 1 9 8
M  V30 9 1 10 9
M  V30 10 1 11 5
M  V30 11 1 11 10
M  V30 12 1 12 7
M  V30 13 1 12 10
M  V30 14 1 13 12
M  V30 15 1 14 13
M  V30 16 1 15 14
M  V30 17 1 16 15
M  V30 18 1 17 16
M  V30 19 2 18 17
M  V30 20 1 19 18
M  V30 21 2 20 19
M  V30 22 1 21 20
M  V30 23 2 22 21
M  V30 24 1 23 22
M  V30 25 2 24 23
M  V30 26 1 25 24
M  V30 27 1 26 21
M  V30 28 2 26 25
M  V30 29 2 27 16
M  V30 30 1 27 20
M  V30 31 1 28 2
M  V30 32 2 29 28
M  V30 33 1 30 29
M  V30 34 2 31 30
M  V30 35 1 32 31
M  V30 36 1 33 32
M  V30 37 1 34 28
M  V30 38 2 34 32
M  V30 39 1 35 4
M  V30 40 1 5 36 CFG=3
M  V30 41 1 37 6
M  V30 42 1 38 6
M  V30 43 1 7 39 CFG=1
M  V30 44 1 40 8
M  V30 45 1 41 8
M  V30 46 1 42 9
M  V30 47 1 43 9
M  V30 48 1 10 44 CFG=1
M  V30 49 1 45 11
M  V30 50 1 46 11
M  V30 51 1 47 13
M  V30 52 1 48 13
M  V30 53 1 49 14
M  V30 54 1 50 14
M  V30 55 1 51 17
M  V30 56 1 52 18
M  V30 57 1 53 19
M  V30 58 1 54 22
M  V30 59 1 55 23
M  V30 60 1 56 24
M  V30 61 1 57 25
M  V30 62 1 58 26
M  V30 63 1 59 27
M  V30 64 1 60 29
M  V30 65 1 61 30
M  V30 66 1 62 31
M  V30 67 1 63 34
M  V30 68 1 12 64 CFG=1
M  V30 END BOND
M  V30 END CTAB
M  END
>  <b_m_subgroup_collapsed>  (1250) 
0

>  <r_i_docking_score>  (1250) 
-7.3151503470268704

>  <s_m_subgroup_title>  (1250) 
glide-dock_SP_D22_pv

>  <s_m_subgroupid>  (1250) 
glide-dock_SP_D22_pv

>  <Molecule ChEMBL ID>  (1250) 
CHEMBL3759819

>  <Standard Type>  (1250) 
Ki

>  <Standard Value>  (1250) 
94.0

>  <label>  (1250) 
1

$$$$
CHEMBL601635
     RDKit          3D

  0  0  0  0  0  0  0  0  0  0999 V3000
M  V30 BEGIN CTAB
M  V30 COUNTS 70 75 0 0 1
M  V30 BEGIN ATOM
M  V30 1 C 10.408850 0.009826 -14.741405 0
M  V30 2 N 9.786895 0.594687 -15.946248 0 CFG=2 CHG=1
M  V30 3 C 10.760621 0.712892 -17.064938 0
M  V30 4 C 11.845884 1.788668 -16.858425 0
M  V30 5 C 11.311985 3.162409 -17.199469 0
M  V30 6 C 11.791875 3.792261 -18.368904 0
M  V30 7 C 11.203578 4.975456 -18.840857 0
M  V30 8 Cl 11.775331 5.685258 -20.309423 0
M  V30 9 C 10.127206 5.544374 -18.133011 0
M  V30 10 O 9.485644 6.640869 -18.637518 0
M  V30 11 C 9.696621 4.947980 -16.926411 0
M  V30 12 C 10.275113 3.756810 -16.439251 0
M  V30 13 C 9.698367 3.043735 -15.199854 0 CFG=1
M  V30 14 C 8.914945 3.947954 -14.224574 0
M  V30 15 C 9.580603 5.004974 -13.559034 0
M  V30 16 C 8.884240 5.857355 -12.670040 0
M  V30 17 C 9.573488 7.059550 -12.041872 0
M  V30 18 N 9.272785 7.222486 -10.589910 0 CHG=1
M  V30 19 C 9.890483 6.177531 -9.726691 0
M  V30 20 C 9.552172 6.362142 -8.230549 0
M  V30 21 N 9.802901 7.738518 -7.814118 0
M  V30 22 C 10.581126 8.089957 -6.685668 0
M  V30 23 C 10.902748 7.156609 -5.669663 0
M  V30 24 C 11.677026 7.573846 -4.567684 0
M  V30 25 C 12.084253 8.914538 -4.493384 0
M  V30 26 C 11.729760 9.771719 -5.548879 0
M  V30 27 N 11.007221 9.372607 -6.612164 0
M  V30 28 C 9.161744 8.761757 -8.634430 0
M  V30 29 C 9.554869 8.596889 -10.109221 0
M  V30 30 C 7.511731 5.641737 -12.433853 0
M  V30 31 C 6.849705 4.568917 -13.047172 0
M  V30 32 C 7.543839 3.725295 -13.934633 0
M  V30 33 C 6.789683 2.592083 -14.594081 0
M  V30 34 C 7.698788 1.393333 -14.813695 0
M  V30 35 C 8.918748 1.775463 -15.674826 0 CFG=2
M  V30 36 H 11.152651 0.662125 -14.293285 0
M  V30 37 H 9.687842 -0.227463 -13.966600 0
M  V30 38 H 10.885118 -0.914420 -15.047160 0
M  V30 39 H 10.227997 0.885786 -18.000750 0
M  V30 40 H 11.250667 -0.254118 -17.187967 0
M  V30 41 H 12.689607 1.563157 -17.512911 0
M  V30 42 H 12.255466 1.788643 -15.850475 0
M  V30 43 H 12.584119 3.339087 -18.948395 0
M  V30 44 H 8.740417 6.919926 -18.124960 0
M  V30 45 H 8.880664 5.373620 -16.379980 0
M  V30 46 H 10.549110 2.737007 -14.593938 0
M  V30 47 H 10.627630 5.182029 -13.761517 0
M  V30 48 H 10.653839 6.992094 -12.183156 0
M  V30 49 H 9.241451 7.927946 -12.620646 0
M  V30 50 H 9.575961 5.185048 -10.054220 0
M  V30 51 H 10.970725 6.227036 -9.846456 0
M  V30 52 H 8.499489 6.136253 -8.051386 0
M  V30 53 H 10.130322 5.642255 -7.656382 0
M  V30 54 H 10.557640 6.138614 -5.695988 0
M  V30 55 H 11.930337 6.875274 -3.781903 0
M  V30 56 H 12.665547 9.276393 -3.657393 0
M  V30 57 H 12.031219 10.807738 -5.547020 0
M  V30 58 H 8.086079 8.660251 -8.514009 0
M  V30 59 H 9.384466 9.768246 -8.305789 0
M  V30 60 H 10.614848 8.822309 -10.240604 0
M  V30 61 H 8.989965 9.314584 -10.707364 0
M  V30 62 H 6.946660 6.300157 -11.794872 0
M  V30 63 H 5.798866 4.413435 -12.849229 0
M  V30 64 H 6.398460 2.951237 -15.543300 0
M  V30 65 H 5.934892 2.301348 -13.984252 0
M  V30 66 H 7.136134 0.587863 -15.287667 0
M  V30 67 H 7.999583 1.031390 -13.835214 0
M  V30 68 H 8.470227 2.034093 -16.635794 0
M  V30 69 H 9.137921 -0.115920 -16.256500 0
M  V30 70 H 8.266478 7.132049 -10.489182 0
M  V30 END ATOM
M  V30 BEGIN BOND
M  V30 1 1 2 1
M  V30 2 1 3 2
M  V30 3 1 4 3
M  V30 4 1 5 4
M  V30 5 1 6 5
M  V30 6 2 7 6
M  V30 7 1 8 7
M  V30 8 1 9 7
M  V30 9 1 10 9
M  V30 10 2 11 9
M  V30 11 2 12 5
M  V30 12 1 12 11
M  V30 13 1 13 12
M  V30 14 1 14 13
M  V30 15 1 15 14
M  V30 16 2 16 15
M  V30 17 1 17 16
M  V30 18 1 18 17
M  V30 19 1 19 18
M  V30 20 1 20 19
M  V30 21 1 21 20
M  V30 22 1 22 21
M  V30 23 2 23 22
M  V30 24 1 24 23
M  V30 25 2 25 24
M  V30 26 1 26 25
M  V30 27 1 27 22
M  V30 28 2 27 26
M  V30 29 1 28 21
M  V30 30 1 29 18
M  V30 31 1 29 28
M  V30 32 1 30 16
M  V30 33 2 31 30
M  V30 34 2 32 14
M  V30 35 1 32 31
M  V30 36 1 33 32
M  V30 37 1 34 33
M  V30 38 1 35 2
M  V30 39 1 35 13
M  V30 40 1 35 34
M  V30 41 1 36 1
M  V30 42 1 37 1
M  V30 43 1 38 1
M  V30 44 1 39 3
M  V30 45 1 40 3
M  V30 46 1 41 4
M  V30 47 1 42 4
M  V30 48 1 43 6
M  V30 49 1 44 10
M  V30 50 1 45 11
M  V30 51 1 13 46 CFG=1
M  V30 52 1 47 15
M  V30 53 1 48 17
M  V30 54 1 49 17
M  V30 55 1 50 19
M  V30 56 1 51 19
M  V30 57 1 52 20
M  V30 58 1 53 20
M  V30 59 1 54 23
M  V30 60 1 55 24
M  V30 61 1 56 25
M  V30 62 1 57 26
M  V30 63 1 58 28
M  V30 64 1 59 28
M  V30 65 1 60 29
M  V30 66 1 61 29
M  V30 67 1 62 30
M  V30 68 1 63 31
M  V30 69 1 64 33
M  V30 70 1 65 33
M  V30 71 1 66 34
M  V30 72 1 67 34
M  V30 73 1 35 68 CFG=3
M  V30 74 1 2 69 CFG=3
M  V30 75 1 70 18
M  V30 END BOND
M  V30 END CTAB
M  END
>  <b_m_subgroup_collapsed>  (1251) 
0

>  <r_i_docking_score>  (1251) 
-7.3147196219862201

>  <s_m_subgroup_title>  (1251) 
glide-dock_SP_D22_pv

>  <s_m_subgroupid>  (1251) 
glide-dock_SP_D22_pv

>  <Molecule ChEMBL ID>  (1251) 
CHEMBL601635

>  <Standard Type>  (1251) 
Ki

>  <Standard Value>  (1251) 
1.3

>  <label>  (1251) 
1

$$$$
CHEMBL438980
     RDKit          3D

  0  0  0  0  0  0  0  0  0  0999 V3000
M  V30 BEGIN CTAB
M  V30 COUNTS 62 67 0 0 1
M  V30 BEGIN ATOM
M  V30 1 O 4.918895 1.977445 -12.874648 0
M  V30 2 C 5.978369 2.222980 -13.446898 0
M  V30 3 C 6.610898 1.185221 -14.384261 0
M  V30 4 C 7.361419 1.857936 -15.551338 0 CFG=2
M  V30 5 C 8.026475 0.831843 -16.468971 0
M  V30 6 C 9.276523 0.252818 -16.144878 0
M  V30 7 C 9.908659 -0.626462 -17.044920 0
M  V30 8 C 9.275098 -0.977768 -18.251421 0
M  V30 9 C 8.013267 -0.437638 -18.564768 0
M  V30 10 C 7.393985 0.465461 -17.677542 0
M  V30 11 C 8.278772 2.972225 -15.040972 0
M  V30 12 C 9.452666 3.353426 -15.730969 0
M  V30 13 C 10.240090 4.413337 -15.256298 0
M  V30 14 C 9.856285 5.106636 -14.098396 0
M  V30 15 C 8.671619 4.766425 -13.409651 0
M  V30 16 C 8.327518 5.541148 -12.144272 0
M  V30 17 C 9.407985 5.297195 -11.082567 0
M  V30 18 N 9.145340 5.943902 -9.801190 0
M  V30 19 C 10.177445 5.476557 -8.882283 0
M  V30 20 C 10.040250 6.092267 -7.486283 0
M  V30 21 N 10.048365 7.536438 -7.568759 0
M  V30 22 C 10.741185 8.372986 -6.669002 0
M  V30 23 N 10.939062 9.615182 -7.044689 0
M  V30 24 S 11.686110 10.478466 -5.846915 0
M  V30 25 C 11.850531 9.133231 -4.743427 0
M  V30 26 C 12.427258 9.098570 -3.461520 0
M  V30 27 C 12.443727 7.895099 -2.734927 0
M  V30 28 C 11.879119 6.737398 -3.300421 0
M  V30 29 C 11.286862 6.797090 -4.577363 0
M  V30 30 C 11.262390 7.985709 -5.356411 0
M  V30 31 C 9.078212 8.051811 -8.530244 0
M  V30 32 C 9.285149 7.400757 -9.908727 0
M  V30 33 C 7.873577 3.697462 -13.889302 0
M  V30 34 N 6.645368 3.372440 -13.256051 0
M  V30 35 H 5.839709 0.514143 -14.765601 0
M  V30 36 H 7.300309 0.577188 -13.795833 0
M  V30 37 H 6.617472 2.377849 -16.157074 0
M  V30 38 H 9.771471 0.511071 -15.218466 0
M  V30 39 H 10.882283 -1.027005 -16.816011 0
M  V30 40 H 9.755505 -1.659500 -18.936731 0
M  V30 41 H 7.524389 -0.707728 -19.488672 0
M  V30 42 H 6.430018 0.876787 -17.933838 0
M  V30 43 H 9.755708 2.849930 -16.636526 0
M  V30 44 H 11.140193 4.696563 -15.783421 0
M  V30 45 H 10.475251 5.918453 -13.744983 0
M  V30 46 H 8.268335 6.597340 -12.409470 0
M  V30 47 H 7.351795 5.275092 -11.739431 0
M  V30 48 H 9.484698 4.219244 -10.924373 0
M  V30 49 H 10.374650 5.629715 -11.460921 0
M  V30 50 H 10.158433 4.389001 -8.810162 0
M  V30 51 H 11.143808 5.772594 -9.282489 0
M  V30 52 H 9.131418 5.769576 -6.980062 0
M  V30 53 H 10.908837 5.768337 -6.923273 0
M  V30 54 H 12.861102 9.995070 -3.045023 0
M  V30 55 H 12.884675 7.862288 -1.748478 0
M  V30 56 H 11.883337 5.790264 -2.763097 0
M  V30 57 H 10.826250 5.890343 -4.931378 0
M  V30 58 H 8.087829 7.824028 -8.143321 0
M  V30 59 H 9.119532 9.136217 -8.630765 0
M  V30 60 H 10.265566 7.669605 -10.305960 0
M  V30 61 H 8.542924 7.801435 -10.597188 0
M  V30 62 H 6.282533 4.023266 -12.573639 0
M  V30 END ATOM
M  V30 BEGIN BOND
M  V30 1 2 2 1
M  V30 2 1 3 2
M  V30 3 1 4 3
M  V30 4 1 5 4
M  V30 5 2 6 5
M  V30 6 1 7 6
M  V30 7 2 8 7
M  V30 8 1 9 8
M  V30 9 1 10 5
M  V30 10 2 10 9
M  V30 11 1 11 4
M  V30 12 2 12 11
M  V30 13 1 13 12
M  V30 14 2 14 13
M  V30 15 1 15 14
M  V30 16 1 16 15
M  V30 17 1 17 16
M  V30 18 1 18 17
M  V30 19 1 19 18
M  V30 20 1 20 19
M  V30 21 1 21 20
M  V30 22 1 22 21
M  V30 23 2 23 22
M  V30 24 1 24 23
M  V30 25 1 25 24
M  V30 26 2 26 25
M  V30 27 1 27 26
M  V30 28 2 28 27
M  V30 29 1 29 28
M  V30 30 1 30 22
M  V30 31 1 30 25
M  V30 32 2 30 29
M  V30 33 1 31 21
M  V30 34 1 32 18
M  V30 35 1 32 31
M  V30 36 1 33 11
M  V30 37 2 33 15
M  V30 38 1 34 2
M  V30 39 1 34 33
M  V30 40 1 35 3
M  V30 41 1 36 3
M  V30 42 1 4 37 CFG=3
M  V30 43 1 38 6
M  V30 44 1 39 7
M  V30 45 1 40 8
M  V30 46 1 41 9
M  V30 47 1 42 10
M  V30 48 1 43 12
M  V30 49 1 44 13
M  V30 50 1 45 14
M  V30 51 1 46 16
M  V30 52 1 47 16
M  V30 53 1 48 17
M  V30 54 1 49 17
M  V30 55 1 50 19
M  V30 56 1 51 19
M  V30 57 1 52 20
M  V30 58 1 53 20
M  V30 59 1 54 26
M  V30 60 1 55 27
M  V30 61 1 56 28
M  V30 62 1 57 29
M  V30 63 1 58 31
M  V30 64 1 59 31
M  V30 65 1 60 32
M  V30 66 1 61 32
M  V30 67 1 62 34
M  V30 END BOND
M  V30 END CTAB
M  END
>  <b_m_subgroup_collapsed>  (1252) 
0

>  <r_i_docking_score>  (1252) 
-7.3140983334915299

>  <s_m_subgroup_title>  (1252) 
glide-dock_SP_D22_pv

>  <s_m_subgroupid>  (1252) 
glide-dock_SP_D22_pv

>  <Molecule ChEMBL ID>  (1252) 
CHEMBL438980

>  <Standard Type>  (1252) 
Ki

>  <Standard Value>  (1252) 
15.0

>  <label>  (1252) 
1

$$$$
CHEMBL556969
     RDKit          3D

  0  0  0  0  0  0  0  0  0  0999 V3000
M  V30 BEGIN CTAB
M  V30 COUNTS 45 48 0 0 1
M  V30 BEGIN ATOM
M  V30 1 C 10.270939 7.920021 -6.403822 0
M  V30 2 C 8.886256 7.954302 -7.086766 0
M  V30 3 N 8.887287 7.527142 -8.509246 0 CFG=2 CHG=1
M  V30 4 C 9.072587 6.061193 -8.686569 0
M  V30 5 C 9.410325 5.672546 -10.115521 0
M  V30 6 C 9.686372 6.539198 -11.111818 0
M  V30 7 C 10.086275 6.026755 -12.418140 0
M  V30 8 C 11.189708 6.563697 -12.996034 0
M  V30 9 C 11.827330 6.192019 -14.266359 0
M  V30 10 C 12.487606 7.192826 -15.009051 0
M  V30 11 C 13.102492 6.885346 -16.238638 0
M  V30 12 C 13.060278 5.569384 -16.734127 0
M  V30 13 C 12.398351 4.566440 -16.002800 0
M  V30 14 C 11.777165 4.875516 -14.775950 0
M  V30 15 O 11.181923 3.873934 -14.064366 0
M  V30 16 C 9.829494 3.964113 -13.882698 0
M  V30 17 C 9.013886 2.973763 -14.465497 0
M  V30 18 C 7.624371 2.973971 -14.247684 0
M  V30 19 C 7.046967 3.965603 -13.437623 0
M  V30 20 C 7.860547 4.951828 -12.848682 0
M  V30 21 C 9.261057 4.973046 -13.066014 0
M  V30 22 C 9.573748 8.031425 -10.850656 0
M  V30 23 C 9.761360 8.364007 -9.368393 0
M  V30 24 H 10.181005 8.208511 -5.359057 0
M  V30 25 H 10.721053 6.927327 -6.421516 0
M  V30 26 H 10.972358 8.618024 -6.863048 0
M  V30 27 H 8.487425 8.969067 -7.034183 0
M  V30 28 H 8.181992 7.323762 -6.543643 0
M  V30 29 H 8.160860 5.546141 -8.376984 0
M  V30 30 H 9.884053 5.692258 -8.059142 0
M  V30 31 H 9.488144 4.609224 -10.295761 0
M  V30 32 H 11.734944 7.318110 -12.450479 0
M  V30 33 H 12.524989 8.205791 -14.637278 0
M  V30 34 H 13.607008 7.659977 -16.798145 0
M  V30 35 H 13.536664 5.328947 -17.672911 0
M  V30 36 H 12.372001 3.553735 -16.376869 0
M  V30 37 H 9.461668 2.199673 -15.072197 0
M  V30 38 H 7.008419 2.208539 -14.695993 0
M  V30 39 H 5.980820 3.968569 -13.261203 0
M  V30 40 H 7.391091 5.705301 -12.230714 0
M  V30 41 H 10.284347 8.598879 -11.445619 0
M  V30 42 H 8.581285 8.348223 -11.173158 0
M  V30 43 H 9.540497 9.418559 -9.203720 0
M  V30 44 H 10.807477 8.208407 -9.099840 0
M  V30 45 H 7.940827 7.691181 -8.847281 0
M  V30 END ATOM
M  V30 BEGIN BOND
M  V30 1 1 2 1
M  V30 2 1 3 2
M  V30 3 1 4 3
M  V30 4 1 5 4
M  V30 5 2 6 5
M  V30 6 1 7 6
M  V30 7 2 8 7
M  V30 8 1 9 8
M  V30 9 2 10 9
M  V30 10 1 11 10
M  V30 11 2 12 11
M  V30 12 1 13 12
M  V30 13 1 14 9
M  V30 14 2 14 13
M  V30 15 1 15 14
M  V30 16 1 16 15
M  V30 17 2 17 16
M  V30 18 1 18 17
M  V30 19 2 19 18
M  V30 20 1 20 19
M  V30 21 1 21 7
M  V30 22 1 21 16
M  V30 23 2 21 20
M  V30 24 1 22 6
M  V30 25 1 23 3
M  V30 26 1 23 22
M  V30 27 1 24 1
M  V30 28 1 25 1
M  V30 29 1 26 1
M  V30 30 1 27 2
M  V30 31 1 28 2
M  V30 32 1 29 4
M  V30 33 1 30 4
M  V30 34 1 31 5
M  V30 35 1 32 8
M  V30 36 1 33 10
M  V30 37 1 34 11
M  V30 38 1 35 12
M  V30 39 1 36 13
M  V30 40 1 37 17
M  V30 41 1 38 18
M  V30 42 1 39 19
M  V30 43 1 40 20
M  V30 44 1 41 22
M  V30 45 1 42 22
M  V30 46 1 43 23
M  V30 47 1 44 23
M  V30 48 1 3 45 CFG=3
M  V30 END BOND
M  V30 END CTAB
M  END
>  <b_m_subgroup_collapsed>  (1253) 
0

>  <r_i_docking_score>  (1253) 
-7.3111552133804096

>  <s_m_subgroup_title>  (1253) 
glide-dock_SP_D22_pv

>  <s_m_subgroupid>  (1253) 
glide-dock_SP_D22_pv

>  <Molecule ChEMBL ID>  (1253) 
CHEMBL556969

>  <Standard Type>  (1253) 
Ki

>  <Standard Value>  (1253) 
61.0

>  <label>  (1253) 
1

$$$$
CHEMBL2420775
     RDKit          3D

  0  0  0  0  0  0  0  0  0  0999 V3000
M  V30 BEGIN CTAB
M  V30 COUNTS 37 39 0 0 1
M  V30 BEGIN ATOM
M  V30 1 F 12.348079 8.680861 -2.388325 0
M  V30 2 C 11.851341 8.479788 -3.631500 0
M  V30 3 C 11.395955 9.566790 -4.396757 0
M  V30 4 C 10.884243 9.356155 -5.692355 0
M  V30 5 C 10.800280 8.051625 -6.247459 0
M  V30 6 N 10.293100 7.822475 -7.551075 0
M  V30 7 C 9.448329 6.652536 -7.804820 0
M  V30 8 C 9.544288 6.206401 -9.280523 0
M  V30 9 N 9.285999 7.326807 -10.225257 0 CHG=1
M  V30 10 C 9.472338 6.973477 -11.657928 0
M  V30 11 C 8.627675 5.852684 -12.180913 0
M  V30 12 C 7.259032 5.772243 -12.243756 0
M  V30 13 C 6.790985 4.592064 -12.893132 0
M  V30 14 C 7.810513 3.794247 -13.338944 0
M  V30 15 S 9.367426 4.458234 -12.927660 0
M  V30 16 C 10.073038 8.544968 -9.898073 0
M  V30 17 C 9.997083 8.953917 -8.421535 0
M  V30 18 C 11.267327 6.972721 -5.457427 0
M  V30 19 C 11.777590 7.180436 -4.161111 0
M  V30 20 H 11.429790 10.564305 -3.984773 0
M  V30 21 H 10.534078 10.222935 -6.229550 0
M  V30 22 H 8.417195 6.920298 -7.568564 0
M  V30 23 H 9.690253 5.806692 -7.165331 0
M  V30 24 H 8.831455 5.400689 -9.461758 0
M  V30 25 H 10.536923 5.797694 -9.468851 0
M  V30 26 H 10.525117 6.743612 -11.830119 0
M  V30 27 H 9.258220 7.859853 -12.256314 0
M  V30 28 H 6.579907 6.514154 -11.847642 0
M  V30 29 H 5.738544 4.380786 -13.016184 0
M  V30 30 H 7.745126 2.851053 -13.861738 0
M  V30 31 H 11.118887 8.375662 -10.160779 0
M  V30 32 H 9.720824 9.372175 -10.511457 0
M  V30 33 H 9.003758 9.338997 -8.183167 0
M  V30 34 H 10.710386 9.766732 -8.274908 0
M  V30 35 H 11.265187 5.963223 -5.835790 0
M  V30 36 H 12.122599 6.339666 -3.577053 0
M  V30 37 H 8.300172 7.565647 -10.115747 0
M  V30 END ATOM
M  V30 BEGIN BOND
M  V30 1 1 2 1
M  V30 2 1 3 2
M  V30 3 2 4 3
M  V30 4 1 5 4
M  V30 5 1 6 5
M  V30 6 1 7 6
M  V30 7 1 8 7
M  V30 8 1 9 8
M  V30 9 1 10 9
M  V30 10 1 11 10
M  V30 11 2 12 11
M  V30 12 1 13 12
M  V30 13 2 14 13
M  V30 14 1 15 11
M  V30 15 1 15 14
M  V30 16 1 16 9
M  V30 17 1 17 6
M  V30 18 1 17 16
M  V30 19 2 18 5
M  V30 20 2 19 2
M  V30 21 1 19 18
M  V30 22 1 20 3
M  V30 23 1 21 4
M  V30 24 1 22 7
M  V30 25 1 23 7
M  V30 26 1 24 8
M  V30 27 1 25 8
M  V30 28 1 26 10
M  V30 29 1 27 10
M  V30 30 1 28 12
M  V30 31 1 29 13
M  V30 32 1 30 14
M  V30 33 1 31 16
M  V30 34 1 32 16
M  V30 35 1 33 17
M  V30 36 1 34 17
M  V30 37 1 35 18
M  V30 38 1 36 19
M  V30 39 1 37 9
M  V30 END BOND
M  V30 END CTAB
M  END
>  <b_m_subgroup_collapsed>  (1254) 
0

>  <r_i_docking_score>  (1254) 
-7.3109102328240603

>  <s_m_subgroup_title>  (1254) 
glide-dock_SP_D22_pv

>  <s_m_subgroupid>  (1254) 
glide-dock_SP_D22_pv

>  <Molecule ChEMBL ID>  (1254) 
CHEMBL2420775

>  <Standard Type>  (1254) 
Ki

>  <Standard Value>  (1254) 
10000.0

>  <label>  (1254) 
0

$$$$
CHEMBL1442422
     RDKit          3D

  0  0  0  0  0  0  0  0  0  0999 V3000
M  V30 BEGIN CTAB
M  V30 COUNTS 44 46 0 0 1
M  V30 BEGIN ATOM
M  V30 1 C 8.646577 6.119876 -7.444872 0
M  V30 2 N 8.886033 7.114828 -8.507838 0 CHG=1
M  V30 3 C 9.526823 8.342489 -7.982497 0
M  V30 4 C 9.551387 6.514844 -9.687016 0
M  V30 5 C 9.629404 7.476384 -10.890387 0
M  V30 6 N 10.003849 6.749248 -12.129566 0
M  V30 7 C 11.274363 6.972231 -12.585007 0
M  V30 8 O 12.130674 7.523299 -11.887064 0
M  V30 9 C 11.695910 6.572547 -13.973104 0
M  V30 10 C 12.485922 7.487864 -14.708603 0
M  V30 11 C 12.994940 7.154701 -15.975364 0
M  V30 12 C 12.739778 5.885375 -16.514654 0
M  V30 13 C 11.973716 4.957884 -15.786716 0
M  V30 14 C 11.441232 5.290888 -14.516341 0
M  V30 15 N 10.654593 4.372905 -13.810941 0
M  V30 16 C 11.009705 2.964165 -13.957197 0
M  V30 17 C 9.336355 4.659751 -13.429152 0
M  V30 18 C 8.304183 3.761403 -13.810297 0
M  V30 19 C 6.967847 3.978742 -13.447186 0
M  V30 20 C 6.635962 5.129383 -12.727836 0
M  V30 21 C 7.639783 6.045611 -12.380793 0
M  V30 22 C 9.014561 5.832995 -12.681878 0
M  V30 23 H 9.589276 5.772580 -7.020986 0
M  V30 24 H 8.044701 6.554483 -6.646896 0
M  V30 25 H 8.097092 5.261510 -7.835264 0
M  V30 26 H 10.564843 8.155109 -7.704979 0
M  V30 27 H 9.501014 9.148205 -8.715197 0
M  V30 28 H 8.998057 8.704093 -7.099117 0
M  V30 29 H 8.990377 5.620895 -9.963695 0
M  V30 30 H 10.552634 6.175398 -9.415623 0
M  V30 31 H 10.317580 8.285318 -10.646005 0
M  V30 32 H 8.705066 8.032336 -11.023120 0
M  V30 33 H 12.713374 8.460639 -14.297857 0
M  V30 34 H 13.586619 7.870871 -16.527147 0
M  V30 35 H 13.130691 5.619466 -17.486061 0
M  V30 36 H 11.787958 3.992761 -16.232189 0
M  V30 37 H 10.539497 2.367030 -13.177297 0
M  V30 38 H 10.696780 2.565519 -14.922129 0
M  V30 39 H 12.085985 2.834568 -13.865836 0
M  V30 40 H 8.517344 2.877803 -14.392064 0
M  V30 41 H 6.201005 3.274047 -13.735031 0
M  V30 42 H 5.609960 5.321819 -12.448291 0
M  V30 43 H 7.286468 6.909461 -11.848461 0
M  V30 44 H 7.949804 7.374550 -8.817611 0
M  V30 END ATOM
M  V30 BEGIN BOND
M  V30 1 1 2 1
M  V30 2 1 3 2
M  V30 3 1 4 2
M  V30 4 1 5 4
M  V30 5 1 6 5
M  V30 6 1 7 6
M  V30 7 2 8 7
M  V30 8 1 9 7
M  V30 9 2 10 9
M  V30 10 1 11 10
M  V30 11 2 12 11
M  V30 12 1 13 12
M  V30 13 1 14 9
M  V30 14 2 14 13
M  V30 15 1 15 14
M  V30 16 1 16 15
M  V30 17 1 17 15
M  V30 18 2 18 17
M  V30 19 1 19 18
M  V30 20 2 20 19
M  V30 21 1 21 20
M  V30 22 1 22 6
M  V30 23 1 22 17
M  V30 24 2 22 21
M  V30 25 1 23 1
M  V30 26 1 24 1
M  V30 27 1 25 1
M  V30 28 1 26 3
M  V30 29 1 27 3
M  V30 30 1 28 3
M  V30 31 1 29 4
M  V30 32 1 30 4
M  V30 33 1 31 5
M  V30 34 1 32 5
M  V30 35 1 33 10
M  V30 36 1 34 11
M  V30 37 1 35 12
M  V30 38 1 36 13
M  V30 39 1 37 16
M  V30 40 1 38 16
M  V30 41 1 39 16
M  V30 42 1 40 18
M  V30 43 1 41 19
M  V30 44 1 42 20
M  V30 45 1 43 21
M  V30 46 1 44 2
M  V30 END BOND
M  V30 END CTAB
M  END
>  <b_m_subgroup_collapsed>  (1255) 
0

>  <r_i_docking_score>  (1255) 
-7.3107189362568903

>  <s_m_subgroup_title>  (1255) 
glide-dock_SP_D22_pv

>  <s_m_subgroupid>  (1255) 
glide-dock_SP_D22_pv

>  <Molecule ChEMBL ID>  (1255) 
CHEMBL1442422

>  <Standard Type>  (1255) 
Ki

>  <Standard Value>  (1255) 
30200.0

>  <label>  (1255) 
0

$$$$
CHEMBL5207313
     RDKit          3D

  0  0  0  0  0  0  0  0  0  0999 V3000
M  V30 BEGIN CTAB
M  V30 COUNTS 48 51 0 0 1
M  V30 BEGIN ATOM
M  V30 1 C 11.681002 3.928037 -15.000459 0
M  V30 2 C 12.098701 5.032325 -14.238688 0
M  V30 3 C 11.173371 5.739328 -13.447267 0
M  V30 4 C 9.808095 5.355824 -13.395908 0
M  V30 5 N 8.859973 6.047082 -12.601571 0
M  V30 6 C 9.266198 7.197419 -11.793393 0
M  V30 7 C 9.858140 6.741225 -10.439124 0
M  V30 8 N 8.885957 5.924932 -9.705304 0
M  V30 9 C 9.391661 5.450100 -8.421659 0
M  V30 10 C 9.556114 6.584916 -7.395303 0
M  V30 11 C 11.023077 6.990088 -7.202417 0
M  V30 12 N 11.171558 8.046802 -6.224246 0
M  V30 13 C 11.067132 9.372128 -6.433816 0
M  V30 14 N 11.299861 10.172564 -5.396659 0
M  V30 15 C 11.604576 9.257913 -4.402927 0
M  V30 16 C 11.990916 9.451013 -3.058244 0
M  V30 17 C 12.238445 8.346220 -2.218318 0
M  V30 18 C 12.084800 7.030232 -2.700568 0
M  V30 19 C 11.693072 6.813708 -4.035335 0
M  V30 20 C 11.485340 7.918566 -4.878957 0
M  V30 21 C 8.506654 4.776029 -10.528280 0
M  V30 22 C 7.885671 5.253080 -11.853477 0
M  V30 23 C 9.404089 4.254252 -14.191224 0
M  V30 24 C 10.329935 3.541899 -14.977706 0
M  V30 25 H 12.392409 3.383291 -15.603761 0
M  V30 26 H 13.134449 5.339163 -14.253876 0
M  V30 27 H 11.550103 6.571618 -12.874291 0
M  V30 28 H 9.959096 7.843152 -12.330712 0
M  V30 29 H 8.386063 7.815155 -11.610124 0
M  V30 30 H 10.775395 6.173589 -10.584469 0
M  V30 31 H 10.108161 7.627770 -9.858334 0
M  V30 32 H 8.659853 4.748060 -8.018521 0
M  V30 33 H 10.318447 4.889581 -8.554024 0
M  V30 34 H 8.939894 7.444347 -7.666187 0
M  V30 35 H 9.168098 6.240816 -6.435729 0
M  V30 36 H 11.611874 6.130907 -6.878575 0
M  V30 37 H 11.466662 7.328858 -8.138078 0
M  V30 38 H 10.820608 9.770307 -7.407691 0
M  V30 39 H 12.085169 10.454625 -2.668487 0
M  V30 40 H 12.530310 8.514495 -1.191735 0
M  V30 41 H 12.258192 6.186186 -2.047485 0
M  V30 42 H 11.576241 5.809272 -4.414461 0
M  V30 43 H 9.380618 4.152976 -10.720330 0
M  V30 44 H 7.774859 4.172147 -9.992045 0
M  V30 45 H 7.011339 5.872508 -11.642890 0
M  V30 46 H 7.509928 4.399981 -12.413139 0
M  V30 47 H 8.372684 3.941176 -14.224861 0
M  V30 48 H 10.000109 2.701333 -15.569586 0
M  V30 END ATOM
M  V30 BEGIN BOND
M  V30 1 2 2 1
M  V30 2 1 3 2
M  V30 3 2 4 3
M  V30 4 1 5 4
M  V30 5 1 6 5
M  V30 6 1 7 6
M  V30 7 1 8 7
M  V30 8 1 9 8
M  V30 9 1 10 9
M  V30 10 1 11 10
M  V30 11 1 12 11
M  V30 12 1 13 12
M  V30 13 2 14 13
M  V30 14 1 15 14
M  V30 15 2 16 15
M  V30 16 1 17 16
M  V30 17 2 18 17
M  V30 18 1 19 18
M  V30 19 1 20 12
M  V30 20 1 20 15
M  V30 21 2 20 19
M  V30 22 1 21 8
M  V30 23 1 22 5
M  V30 24 1 22 21
M  V30 25 1 23 4
M  V30 26 1 24 1
M  V30 27 2 24 23
M  V30 28 1 25 1
M  V30 29 1 26 2
M  V30 30 1 27 3
M  V30 31 1 28 6
M  V30 32 1 29 6
M  V30 33 1 30 7
M  V30 34 1 31 7
M  V30 35 1 32 9
M  V30 36 1 33 9
M  V30 37 1 34 10
M  V30 38 1 35 10
M  V30 39 1 36 11
M  V30 40 1 37 11
M  V30 41 1 38 13
M  V30 42 1 39 16
M  V30 43 1 40 17
M  V30 44 1 41 18
M  V30 45 1 42 19
M  V30 46 1 43 21
M  V30 47 1 44 21
M  V30 48 1 45 22
M  V30 49 1 46 22
M  V30 50 1 47 23
M  V30 51 1 48 24
M  V30 END BOND
M  V30 END CTAB
M  END
>  <b_m_subgroup_collapsed>  (1256) 
0

>  <r_i_docking_score>  (1256) 
-7.3088376962865

>  <s_m_subgroup_title>  (1256) 
glide-dock_SP_D22_pv

>  <s_m_subgroupid>  (1256) 
glide-dock_SP_D22_pv

>  <Molecule ChEMBL ID>  (1256) 
CHEMBL5207313

>  <Standard Type>  (1256) 
Ki

>  <Standard Value>  (1256) 
12022.64

>  <label>  (1256) 
0

$$$$
CHEMBL3817911
     RDKit          3D

  0  0  0  0  0  0  0  0  0  0999 V3000
M  V30 BEGIN CTAB
M  V30 COUNTS 54 57 0 0 1
M  V30 BEGIN ATOM
M  V30 1 O 6.340715 4.435317 -13.448307 0
M  V30 2 C 6.983806 3.462973 -13.846272 0
M  V30 3 C 6.485072 2.072005 -13.849472 0
M  V30 4 C 5.247100 1.549172 -13.446360 0
M  V30 5 C 5.024739 0.172658 -13.682238 0
M  V30 6 C 6.040284 -0.635738 -14.257278 0
M  V30 7 C 7.287316 -0.075029 -14.620299 0
M  V30 8 C 7.465419 1.289698 -14.394637 0
M  V30 9 C 8.623015 2.156817 -14.701781 0
M  V30 10 O 9.690353 1.776190 -15.182395 0
M  V30 11 N 8.242041 3.416200 -14.371020 0
M  V30 12 C 9.078522 4.585654 -14.670370 0
M  V30 13 C 9.808240 5.150375 -13.449013 0
M  V30 14 C 8.868808 5.772779 -12.404490 0
M  V30 15 C 9.667609 6.534627 -11.357511 0
M  V30 16 N 8.886049 6.956975 -10.166333 0 CFG=1 CHG=1
M  V30 17 C 8.500060 5.838729 -9.262317 0
M  V30 18 C 9.685800 5.287759 -8.456609 0
M  V30 19 C 10.518818 6.381234 -7.753335 0 CFG=2
M  V30 20 C 9.848716 6.964374 -6.493134 0
M  V30 21 C 10.717425 8.070596 -5.870607 0
M  V30 22 C 11.067993 9.182578 -6.866488 0
M  V30 23 C 11.730132 8.597296 -8.117824 0
M  V30 24 C 10.873635 7.498068 -8.759070 0 CFG=2
M  V30 25 C 9.587197 8.037791 -9.432948 0
M  V30 26 H 4.480116 2.182640 -13.024464 0
M  V30 27 H 4.062895 -0.255300 -13.443241 0
M  V30 28 H 5.858213 -1.686513 -14.435666 0
M  V30 29 H 8.078830 -0.639790 -15.080673 0
M  V30 30 H 9.821407 4.330853 -15.428757 0
M  V30 31 H 8.486022 5.373349 -15.126766 0
M  V30 32 H 10.415648 4.368633 -12.988637 0
M  V30 33 H 10.509872 5.909457 -13.797786 0
M  V30 34 H 8.147415 6.442958 -12.875625 0
M  V30 35 H 8.306783 4.973174 -11.929562 0
M  V30 36 H 10.486012 5.900126 -11.037034 0
M  V30 37 H 10.118455 7.404626 -11.840156 0
M  V30 38 H 7.733504 6.172259 -8.567896 0
M  V30 39 H 8.032801 5.028064 -9.817824 0
M  V30 40 H 9.286258 4.572130 -7.745943 0
M  V30 41 H 10.335970 4.709431 -9.112599 0
M  V30 42 H 11.447886 5.915398 -7.422380 0
M  V30 43 H 8.857551 7.359111 -6.720812 0
M  V30 44 H 9.690867 6.175298 -5.758300 0
M  V30 45 H 10.184173 8.520438 -5.046113 0
M  V30 46 H 11.631716 7.636773 -5.463167 0
M  V30 47 H 10.165860 9.730372 -7.137202 0
M  V30 48 H 11.735116 9.907515 -6.398025 0
M  V30 49 H 11.933387 9.372456 -8.853738 0
M  V30 50 H 12.701320 8.181830 -7.846221 0
M  V30 51 H 11.516141 7.067401 -9.526760 0
M  V30 52 H 9.823687 8.855775 -10.114204 0
M  V30 53 H 8.898293 8.460132 -8.702149 0
M  V30 54 H 7.987625 7.357142 -10.466900 0
M  V30 END ATOM
M  V30 BEGIN BOND
M  V30 1 2 2 1
M  V30 2 1 3 2
M  V30 3 2 4 3
M  V30 4 1 5 4
M  V30 5 2 6 5
M  V30 6 1 7 6
M  V30 7 1 8 3
M  V30 8 2 8 7
M  V30 9 1 9 8
M  V30 10 2 10 9
M  V30 11 1 11 2
M  V30 12 1 11 9
M  V30 13 1 12 11
M  V30 14 1 13 12
M  V30 15 1 14 13
M  V30 16 1 15 14
M  V30 17 1 16 15
M  V30 18 1 17 16
M  V30 19 1 18 17
M  V30 20 1 19 18
M  V30 21 1 20 19
M  V30 22 1 21 20
M  V30 23 1 22 21
M  V30 24 1 23 22
M  V30 25 1 24 19
M  V30 26 1 24 23
M  V30 27 1 25 16
M  V30 28 1 25 24
M  V30 29 1 26 4
M  V30 30 1 27 5
M  V30 31 1 28 6
M  V30 32 1 29 7
M  V30 33 1 30 12
M  V30 34 1 31 12
M  V30 35 1 32 13
M  V30 36 1 33 13
M  V30 37 1 34 14
M  V30 38 1 35 14
M  V30 39 1 36 15
M  V30 40 1 37 15
M  V30 41 1 38 17
M  V30 42 1 39 17
M  V30 43 1 40 18
M  V30 44 1 41 18
M  V30 45 1 19 42 CFG=1
M  V30 46 1 43 20
M  V30 47 1 44 20
M  V30 48 1 45 21
M  V30 49 1 46 21
M  V30 50 1 47 22
M  V30 51 1 48 22
M  V30 52 1 49 23
M  V30 53 1 50 23
M  V30 54 1 24 51 CFG=3
M  V30 55 1 52 25
M  V30 56 1 53 25
M  V30 57 1 16 54 CFG=3
M  V30 END BOND
M  V30 END CTAB
M  END
>  <b_m_subgroup_collapsed>  (1257) 
0

>  <r_i_docking_score>  (1257) 
-7.3083888473417398

>  <s_m_subgroup_title>  (1257) 
glide-dock_SP_D22_pv

>  <s_m_subgroupid>  (1257) 
glide-dock_SP_D22_pv

>  <Molecule ChEMBL ID>  (1257) 
CHEMBL3817911

>  <Standard Type>  (1257) 
Ki

>  <Standard Value>  (1257) 
10000.0

>  <label>  (1257) 
0

$$$$
CHEMBL1259071
     RDKit          3D

  0  0  0  0  0  0  0  0  0  0999 V3000
M  V30 BEGIN CTAB
M  V30 COUNTS 47 49 0 0 1
M  V30 BEGIN ATOM
M  V30 1 C 6.486024 -0.627678 -14.837861 0
M  V30 2 C 6.372495 0.755631 -14.237907 0
M  V30 3 C 7.194307 1.810459 -14.679916 0
M  V30 4 C 7.035149 3.080196 -14.094428 0
M  V30 5 C 6.060703 3.239691 -13.088787 0
M  V30 6 C 5.864954 4.575295 -12.405014 0
M  V30 7 N 6.957960 4.806666 -11.446869 0 CHG=1
M  V30 8 C 7.853409 5.929199 -11.774854 0
M  V30 9 C 9.043936 6.004966 -10.795290 0
M  V30 10 F 9.686025 4.852839 -10.969184 0
M  V30 11 C 9.960380 7.176289 -11.189509 0
M  V30 12 C 11.143932 7.367741 -10.230834 0
M  V30 13 N 10.715052 7.426744 -8.823283 0
M  V30 14 C 11.004297 8.528684 -8.096394 0
M  V30 15 O 11.286020 9.568580 -8.678205 0
M  V30 16 C 11.124237 8.497921 -6.610291 0
M  V30 17 C 11.286022 7.495649 -5.679769 0
M  V30 18 C 11.649576 8.011972 -4.398392 0
M  V30 19 Br 12.086021 6.915273 -2.909667 0
M  V30 20 C 11.665195 9.372323 -4.306213 0
M  V30 21 S 11.286019 10.078225 -5.846865 0
M  V30 22 C 9.942696 6.255887 -8.391206 0
M  V30 23 C 8.697785 6.098228 -9.287957 0
M  V30 24 N 5.286015 2.227524 -12.646861 0
M  V30 25 C 5.436513 1.014982 -13.218958 0
M  V30 26 H 7.146210 -0.627674 -15.705641 0
M  V30 27 H 6.885963 -1.325604 -14.101743 0
M  V30 28 H 5.508048 -0.989501 -15.156806 0
M  V30 29 H 7.930996 1.653738 -15.454381 0
M  V30 30 H 7.653898 3.906562 -14.410835 0
M  V30 31 H 5.793199 5.372309 -13.146418 0
M  V30 32 H 4.925449 4.572312 -11.851479 0
M  V30 33 H 6.536510 4.969623 -10.533055 0
M  V30 34 H 8.245172 5.759781 -12.779003 0
M  V30 35 H 7.296670 6.862791 -11.846867 0
M  V30 36 H 10.330995 7.042545 -12.206505 0
M  V30 37 H 9.375360 8.097726 -11.197470 0
M  V30 38 H 11.865561 6.572327 -10.303226 0
M  V30 39 H 11.706482 8.240394 -10.566756 0
M  V30 40 H 11.268465 6.434488 -5.879141 0
M  V30 41 H 11.890265 9.992214 -3.449937 0
M  V30 42 H 10.568106 5.364300 -8.436533 0
M  V30 43 H 9.594170 6.349687 -7.364057 0
M  V30 44 H 8.086022 6.972322 -9.103423 0
M  V30 45 H 8.116452 5.234874 -8.963653 0
M  V30 46 H 4.795322 0.228432 -12.849421 0
M  V30 47 H 7.508433 3.962240 -11.383663 0
M  V30 END ATOM
M  V30 BEGIN BOND
M  V30 1 1 2 1
M  V30 2 1 3 2
M  V30 3 2 4 3
M  V30 4 1 5 4
M  V30 5 1 6 5
M  V30 6 1 7 6
M  V30 7 1 8 7
M  V30 8 1 9 8
M  V30 9 1 10 9
M  V30 10 1 11 9
M  V30 11 1 12 11
M  V30 12 1 13 12
M  V30 13 1 14 13
M  V30 14 2 15 14
M  V30 15 1 16 14
M  V30 16 2 17 16
M  V30 17 1 18 17
M  V30 18 1 19 18
M  V30 19 2 20 18
M  V30 20 1 21 16
M  V30 21 1 21 20
M  V30 22 1 22 13
M  V30 23 1 23 9
M  V30 24 1 23 22
M  V30 25 2 24 5
M  V30 26 2 25 2
M  V30 27 1 25 24
M  V30 28 1 26 1
M  V30 29 1 27 1
M  V30 30 1 28 1
M  V30 31 1 29 3
M  V30 32 1 30 4
M  V30 33 1 31 6
M  V30 34 1 32 6
M  V30 35 1 33 7
M  V30 36 1 34 8
M  V30 37 1 35 8
M  V30 38 1 36 11
M  V30 39 1 37 11
M  V30 40 1 38 12
M  V30 41 1 39 12
M  V30 42 1 40 17
M  V30 43 1 41 20
M  V30 44 1 42 22
M  V30 45 1 43 22
M  V30 46 1 44 23
M  V30 47 1 45 23
M  V30 48 1 46 25
M  V30 49 1 47 7
M  V30 END BOND
M  V30 END CTAB
M  END
>  <b_m_subgroup_collapsed>  (1258) 
0

>  <r_i_docking_score>  (1258) 
-7.3080907971345104

>  <s_m_subgroup_title>  (1258) 
glide-dock_SP_D22_pv

>  <s_m_subgroupid>  (1258) 
glide-dock_SP_D22_pv

>  <Molecule ChEMBL ID>  (1258) 
CHEMBL1259071

>  <Standard Type>  (1258) 
Ki

>  <Standard Value>  (1258) 
73000.0

>  <label>  (1258) 
0

$$$$
CHEMBL87187
     RDKit          3D

  0  0  0  0  0  0  0  0  0  0999 V3000
M  V30 BEGIN CTAB
M  V30 COUNTS 58 62 0 0 1
M  V30 BEGIN ATOM
M  V30 1 N 12.485266 6.248516 -2.400948 0
M  V30 2 C 12.088726 7.394425 -3.072785 0
M  V30 3 C 12.123019 8.639502 -2.426655 0
M  V30 4 C 11.710480 9.771693 -3.146616 0
M  V30 5 C 11.286016 9.613304 -4.480758 0
M  V30 6 C 11.288779 8.317293 -5.046681 0
M  V30 7 C 10.884665 8.059691 -6.442600 0
M  V30 8 C 10.156936 6.902809 -6.797420 0
M  V30 9 C 9.805244 6.648752 -8.138455 0
M  V30 10 C 10.194914 7.541171 -9.161825 0
M  V30 11 C 9.916761 7.269184 -10.635686 0
M  V30 12 C 9.231623 5.919809 -10.948971 0
M  V30 13 N 9.180652 5.648966 -12.386807 0
M  V30 14 C 10.474271 5.130517 -12.850958 0
M  V30 15 C 10.452982 4.848080 -14.362041 0
M  V30 16 N 9.370135 3.926613 -14.698871 0
M  V30 17 C 9.633389 2.627275 -15.201738 0
M  V30 18 C 8.939892 1.522947 -14.647642 0
M  V30 19 C 9.162663 0.211766 -15.102238 0
M  V30 20 C 10.086301 -0.023111 -16.128965 0
M  V30 21 C 10.776682 1.056735 -16.707283 0
M  V30 22 C 11.685760 0.803114 -17.755100 0
M  V30 23 C 12.363362 1.882667 -18.343769 0
M  V30 24 C 12.091375 3.175014 -17.868824 0
M  V30 25 N 11.214796 3.421287 -16.876986 0
M  V30 26 C 10.563431 2.396472 -16.266682 0
M  V30 27 C 8.074807 4.309806 -14.141304 0
M  V30 28 C 8.182251 4.603290 -12.631007 0
M  V30 29 C 10.904326 8.704267 -8.811754 0
M  V30 30 C 11.234413 8.965981 -7.467257 0
M  V30 31 N 11.685973 7.230524 -4.344718 0
M  V30 32 H 12.567255 6.258777 -1.396831 0
M  V30 33 H 12.198011 5.360934 -2.788532 0
M  V30 34 H 12.451962 8.736773 -1.403072 0
M  V30 35 H 11.714448 10.737620 -2.664967 0
M  V30 36 H 10.962548 10.468993 -5.053793 0
M  V30 37 H 9.877181 6.176059 -6.045159 0
M  V30 38 H 9.250989 5.749046 -8.357780 0
M  V30 39 H 10.871652 7.346874 -11.154818 0
M  V30 40 H 9.294779 8.081735 -11.016709 0
M  V30 41 H 8.216101 5.963295 -10.548054 0
M  V30 42 H 9.734401 5.092745 -10.445159 0
M  V30 43 H 10.720123 4.212018 -12.318090 0
M  V30 44 H 11.268179 5.846977 -12.646775 0
M  V30 45 H 11.427667 4.442780 -14.629461 0
M  V30 46 H 10.322745 5.772127 -14.924214 0
M  V30 47 H 8.231121 1.665623 -13.847607 0
M  V30 48 H 8.613177 -0.618444 -14.675736 0
M  V30 49 H 10.246722 -1.033746 -16.476509 0
M  V30 50 H 11.867800 -0.204285 -18.103388 0
M  V30 51 H 13.071803 1.728928 -19.141592 0
M  V30 52 H 12.583179 4.035211 -18.298683 0
M  V30 53 H 7.742676 5.213926 -14.645662 0
M  V30 54 H 7.307071 3.560862 -14.335664 0
M  V30 55 H 8.450834 3.702982 -12.080511 0
M  V30 56 H 7.208187 4.928157 -12.260352 0
M  V30 57 H 11.214020 9.401024 -9.576800 0
M  V30 58 H 11.795866 9.852291 -7.223033 0
M  V30 END ATOM
M  V30 BEGIN BOND
M  V30 1 1 2 1
M  V30 2 1 3 2
M  V30 3 2 4 3
M  V30 4 1 5 4
M  V30 5 2 6 5
M  V30 6 1 7 6
M  V30 7 1 8 7
M  V30 8 2 9 8
M  V30 9 1 10 9
M  V30 10 1 11 10
M  V30 11 1 12 11
M  V30 12 1 13 12
M  V30 13 1 14 13
M  V30 14 1 15 14
M  V30 15 1 16 15
M  V30 16 1 17 16
M  V30 17 2 18 17
M  V30 18 1 19 18
M  V30 19 2 20 19
M  V30 20 1 21 20
M  V30 21 2 22 21
M  V30 22 1 23 22
M  V30 23 2 24 23
M  V30 24 1 25 24
M  V30 25 1 26 17
M  V30 26 1 26 21
M  V30 27 2 26 25
M  V30 28 1 27 16
M  V30 29 1 28 13
M  V30 30 1 28 27
M  V30 31 2 29 10
M  V30 32 2 30 7
M  V30 33 1 30 29
M  V30 34 2 31 2
M  V30 35 1 31 6
M  V30 36 1 32 1
M  V30 37 1 33 1
M  V30 38 1 34 3
M  V30 39 1 35 4
M  V30 40 1 36 5
M  V30 41 1 37 8
M  V30 42 1 38 9
M  V30 43 1 39 11
M  V30 44 1 40 11
M  V30 45 1 41 12
M  V30 46 1 42 12
M  V30 47 1 43 14
M  V30 48 1 44 14
M  V30 49 1 45 15
M  V30 50 1 46 15
M  V30 51 1 47 18
M  V30 52 1 48 19
M  V30 53 1 49 20
M  V30 54 1 50 22
M  V30 55 1 51 23
M  V30 56 1 52 24
M  V30 57 1 53 27
M  V30 58 1 54 27
M  V30 59 1 55 28
M  V30 60 1 56 28
M  V30 61 1 57 29
M  V30 62 1 58 30
M  V30 END BOND
M  V30 END CTAB
M  END
>  <b_m_subgroup_collapsed>  (1259) 
0

>  <r_i_docking_score>  (1259) 
-7.3030448662841696

>  <s_m_subgroup_title>  (1259) 
glide-dock_SP_D22_pv

>  <s_m_subgroupid>  (1259) 
glide-dock_SP_D22_pv

>  <Molecule ChEMBL ID>  (1259) 
CHEMBL87187

>  <Standard Type>  (1259) 
Ki

>  <Standard Value>  (1259) 
11.0

>  <label>  (1259) 
1

$$$$
CHEMBL303979
     RDKit          3D

  0  0  0  0  0  0  0  0  0  0999 V3000
M  V30 BEGIN CTAB
M  V30 COUNTS 40 43 0 0 1
M  V30 BEGIN ATOM
M  V30 1 F 7.290648 3.870415 -12.841958 0
M  V30 2 C 8.332346 4.711547 -12.629193 0
M  V30 3 C 9.339917 4.838896 -13.605065 0
M  V30 4 C 10.413608 5.728284 -13.401775 0
M  V30 5 C 10.486025 6.506576 -12.229208 0
M  V30 6 C 9.488913 6.342399 -11.231968 0
M  V30 7 C 8.409732 5.456521 -11.437535 0
M  V30 8 C 9.618033 7.164761 -9.971446 0 CFG=1
M  V30 9 C 9.207836 6.589493 -8.617753 0
M  V30 10 N 9.894739 7.476834 -7.632951 0 CFG=1 CHG=1
M  V30 11 C 10.363935 6.753860 -6.425774 0
M  V30 12 C 10.998976 7.618354 -5.338790 0
M  V30 13 C 11.685836 6.972855 -4.286018 0
M  V30 14 C 12.227228 7.717896 -3.221379 0
M  V30 15 C 12.086344 9.117389 -3.198310 0
M  V30 16 C 11.414148 9.771170 -4.245893 0
M  V30 17 C 10.886482 9.029187 -5.317720 0
M  V30 18 C 10.976194 8.197041 -8.366016 0
M  V30 19 C 11.063565 7.481753 -9.701652 0 CFG=2
M  V30 20 C 11.666035 8.172478 -10.904334 0
M  V30 21 O 11.575475 7.352627 -12.076402 0
M  V30 22 H 9.284592 4.259327 -14.513473 0
M  V30 23 H 11.180065 5.825012 -14.156650 0
M  V30 24 H 7.633272 5.355146 -10.691186 0
M  V30 25 H 9.057821 8.087169 -10.144872 0
M  V30 26 H 8.126860 6.572258 -8.475697 0
M  V30 27 H 9.571113 5.564101 -8.528203 0
M  V30 28 H 9.517424 6.223575 -5.984607 0
M  V30 29 H 11.086634 5.993389 -6.728249 0
M  V30 30 H 11.779423 5.896395 -4.280237 0
M  V30 31 H 12.739758 7.211202 -2.417316 0
M  V30 32 H 12.486328 9.687440 -2.373459 0
M  V30 33 H 11.285871 10.842439 -4.223619 0
M  V30 34 H 10.351154 9.563491 -6.087409 0
M  V30 35 H 10.674739 9.236794 -8.507752 0
M  V30 36 H 11.938743 8.195262 -7.852654 0
M  V30 37 H 11.628818 6.571550 -9.547133 0
M  V30 38 H 11.147917 9.116920 -11.046839 0
M  V30 39 H 12.713904 8.410374 -10.720866 0
M  V30 40 H 9.213045 8.161803 -7.337770 0
M  V30 END ATOM
M  V30 BEGIN BOND
M  V30 1 1 2 1
M  V30 2 1 3 2
M  V30 3 2 4 3
M  V30 4 1 5 4
M  V30 5 2 6 5
M  V30 6 2 7 2
M  V30 7 1 7 6
M  V30 8 1 8 6
M  V30 9 1 9 8
M  V30 10 1 10 9
M  V30 11 1 11 10
M  V30 12 1 12 11
M  V30 13 2 13 12
M  V30 14 1 14 13
M  V30 15 2 15 14
M  V30 16 1 16 15
M  V30 17 1 17 12
M  V30 18 2 17 16
M  V30 19 1 18 10
M  V30 20 1 19 8
M  V30 21 1 19 18
M  V30 22 1 20 19
M  V30 23 1 21 5
M  V30 24 1 21 20
M  V30 25 1 22 3
M  V30 26 1 23 4
M  V30 27 1 24 7
M  V30 28 1 8 25 CFG=3
M  V30 29 1 26 9
M  V30 30 1 27 9
M  V30 31 1 28 11
M  V30 32 1 29 11
M  V30 33 1 30 13
M  V30 34 1 31 14
M  V30 35 1 32 15
M  V30 36 1 33 16
M  V30 37 1 34 17
M  V30 38 1 35 18
M  V30 39 1 36 18
M  V30 40 1 19 37 CFG=1
M  V30 41 1 38 20
M  V30 42 1 39 20
M  V30 43 1 10 40 CFG=1
M  V30 END BOND
M  V30 END CTAB
M  END
>  <b_m_subgroup_collapsed>  (1260) 
0

>  <r_i_docking_score>  (1260) 
-7.3016296797296798

>  <s_m_subgroup_title>  (1260) 
glide-dock_SP_D22_pv

>  <s_m_subgroupid>  (1260) 
glide-dock_SP_D22_pv

>  <Molecule ChEMBL ID>  (1260) 
CHEMBL303979

>  <Standard Type>  (1260) 
Ki

>  <Standard Value>  (1260) 
25.12

>  <label>  (1260) 
1

$$$$
CHEMBL93570
     RDKit          3D

  0  0  0  0  0  0  0  0  0  0999 V3000
M  V30 BEGIN CTAB
M  V30 COUNTS 42 44 0 0 1
M  V30 BEGIN ATOM
M  V30 1 C 7.368671 4.824465 -12.907381 0
M  V30 2 C 8.805879 4.361242 -12.642828 0
M  V30 3 C 9.792056 5.478969 -12.485206 0
M  V30 4 S 10.977160 5.656795 -13.756885 0
M  V30 5 C 11.685973 7.029852 -12.978484 0
M  V30 6 C 11.039478 7.344600 -11.814406 0
M  V30 7 C 9.981607 6.423913 -11.483888 0
M  V30 8 N 9.286373 6.556531 -10.121913 0 CFG=1 CHG=1
M  V30 9 C 8.862456 5.231455 -9.590953 0
M  V30 10 C 8.252198 5.278208 -8.194547 0
M  V30 11 C 9.148413 5.976173 -7.199125 0
M  V30 12 C 9.546192 7.365490 -7.670584 0 CFG=1
M  V30 13 C 10.508908 8.036682 -6.674750 0
M  V30 14 C 11.029312 9.312593 -6.970039 0
M  V30 15 C 11.870970 9.981050 -6.059474 0
M  V30 16 C 12.216937 9.372239 -4.840388 0
M  V30 17 C 11.722779 8.093982 -4.532421 0
M  V30 18 C 12.085788 7.467371 -3.271042 0
M  V30 19 N 12.372571 6.971037 -2.266140 0
M  V30 20 C 10.884789 7.427868 -5.446875 0
M  V30 21 C 10.118433 7.294101 -9.110656 0
M  V30 22 H 6.693863 3.971565 -12.980132 0
M  V30 23 H 7.314284 5.370137 -13.846621 0
M  V30 24 H 6.993485 5.480608 -12.120159 0
M  V30 25 H 8.865624 3.683256 -11.799979 0
M  V30 26 H 9.105699 3.740103 -13.487399 0
M  V30 27 H 12.532725 7.526244 -13.430983 0
M  V30 28 H 11.354759 8.176505 -11.204846 0
M  V30 29 H 8.078675 4.821898 -10.216983 0
M  V30 30 H 9.707616 4.541041 -9.606676 0
M  V30 31 H 7.287961 5.772262 -8.216560 0
M  V30 32 H 8.077015 4.261684 -7.847629 0
M  V30 33 H 8.622789 6.060069 -6.247838 0
M  V30 34 H 10.043289 5.373323 -7.051089 0
M  V30 35 H 8.641242 7.977444 -7.696708 0
M  V30 36 H 10.777456 9.772384 -7.907545 0
M  V30 37 H 12.260130 10.959558 -6.296643 0
M  V30 38 H 12.869751 9.877934 -4.144143 0
M  V30 39 H 10.526555 6.449654 -5.161436 0
M  V30 40 H 11.110589 6.838596 -9.073382 0
M  V30 41 H 10.232928 8.319668 -9.456825 0
M  V30 42 H 8.420329 7.082398 -10.234932 0
M  V30 END ATOM
M  V30 BEGIN BOND
M  V30 1 1 2 1
M  V30 2 1 3 2
M  V30 3 1 4 3
M  V30 4 1 5 4
M  V30 5 2 6 5
M  V30 6 2 7 3
M  V30 7 1 7 6
M  V30 8 1 8 7
M  V30 9 1 9 8
M  V30 10 1 10 9
M  V30 11 1 11 10
M  V30 12 1 12 11
M  V30 13 1 13 12
M  V30 14 2 14 13
M  V30 15 1 15 14
M  V30 16 2 16 15
M  V30 17 1 17 16
M  V30 18 1 18 17
M  V30 19 3 19 18
M  V30 20 1 20 13
M  V30 21 2 20 17
M  V30 22 1 21 8
M  V30 23 1 21 12
M  V30 24 1 22 1
M  V30 25 1 23 1
M  V30 26 1 24 1
M  V30 27 1 25 2
M  V30 28 1 26 2
M  V30 29 1 27 5
M  V30 30 1 28 6
M  V30 31 1 29 9
M  V30 32 1 30 9
M  V30 33 1 31 10
M  V30 34 1 32 10
M  V30 35 1 33 11
M  V30 36 1 34 11
M  V30 37 1 12 35 CFG=3
M  V30 38 1 36 14
M  V30 39 1 37 15
M  V30 40 1 38 16
M  V30 41 1 39 20
M  V30 42 1 40 21
M  V30 43 1 41 21
M  V30 44 1 8 42 CFG=3
M  V30 END BOND
M  V30 END CTAB
M  END
>  <b_m_subgroup_collapsed>  (1261) 
0

>  <r_i_docking_score>  (1261) 
-7.3016195786724696

>  <s_m_subgroup_title>  (1261) 
glide-dock_SP_D22_pv

>  <s_m_subgroupid>  (1261) 
glide-dock_SP_D22_pv

>  <Molecule ChEMBL ID>  (1261) 
CHEMBL93570

>  <Standard Type>  (1261) 
Ki

>  <Standard Value>  (1261) 
11.0

>  <label>  (1261) 
1

$$$$
CHEMBL201375
     RDKit          3D

  0  0  0  0  0  0  0  0  0  0999 V3000
M  V30 BEGIN CTAB
M  V30 COUNTS 48 51 0 0 1
M  V30 BEGIN ATOM
M  V30 1 C 13.076184 8.234154 -9.522264 0
M  V30 2 N 11.782002 8.144565 -8.809833 0 CFG=2 CHG=1
M  V30 3 C 10.805106 9.148693 -9.269599 0
M  V30 4 C 10.072001 8.572150 -10.469869 0
M  V30 5 C 9.565800 7.170234 -10.274831 0
M  V30 6 C 9.014633 6.550830 -9.167850 0
M  V30 7 N 8.486061 5.340491 -9.587622 0
M  V30 8 C 8.680638 5.146919 -10.935863 0
M  V30 9 C 8.211223 4.186934 -11.847425 0
M  V30 10 C 8.701400 4.179995 -13.164846 0
M  V30 11 C 9.635840 5.154962 -13.558455 0
M  V30 12 C 10.018011 6.172008 -12.659536 0
M  V30 13 C 9.516303 6.213998 -11.341855 0
M  V30 14 C 8.755144 7.006209 -7.756711 0
M  V30 15 C 9.867800 6.783646 -6.716338 0
M  V30 16 C 10.764631 8.011477 -6.432645 0 CFG=1
M  V30 17 C 11.286756 8.057409 -4.999173 0
M  V30 18 C 11.444705 9.308828 -4.361337 0
M  V30 19 C 11.974836 9.383647 -3.059254 0
M  V30 20 C 12.344841 8.212334 -2.375926 0
M  V30 21 C 12.195646 6.963225 -3.004212 0
M  V30 22 C 11.685295 6.886693 -4.314391 0
M  V30 23 C 11.993379 8.064817 -7.355482 0
M  V30 24 H 13.711989 8.972322 -9.046728 0
M  V30 25 H 12.962870 8.478553 -10.578955 0
M  V30 26 H 13.662105 7.336232 -9.446749 0
M  V30 27 H 10.050138 9.372975 -8.526257 0
M  V30 28 H 11.285773 10.098262 -9.508635 0
M  V30 29 H 9.232774 9.221887 -10.723354 0
M  V30 30 H 10.732673 8.592566 -11.334340 0
M  V30 31 H 7.880099 4.776839 -9.006917 0
M  V30 32 H 7.465028 3.476604 -11.529743 0
M  V30 33 H 8.363971 3.432320 -13.867896 0
M  V30 34 H 10.021333 5.154278 -14.567707 0
M  V30 35 H 10.678015 6.952930 -13.004128 0
M  V30 36 H 8.401649 8.036375 -7.744138 0
M  V30 37 H 7.914986 6.420769 -7.384171 0
M  V30 38 H 9.337854 6.571952 -5.786509 0
M  V30 39 H 10.441445 5.881028 -6.928267 0
M  V30 40 H 10.159963 8.912842 -6.516295 0
M  V30 41 H 11.166049 10.221214 -4.868498 0
M  V30 42 H 12.084649 10.345509 -2.579882 0
M  V30 43 H 12.740668 8.275209 -1.373004 0
M  V30 44 H 12.478894 6.058887 -2.484479 0
M  V30 45 H 11.594986 5.917931 -4.782892 0
M  V30 46 H 12.486006 7.105811 -7.229315 0
M  V30 47 H 12.654852 8.878385 -7.047348 0
M  V30 48 H 11.352752 7.265474 -9.070001 0
M  V30 END ATOM
M  V30 BEGIN BOND
M  V30 1 1 2 1
M  V30 2 1 3 2
M  V30 3 1 4 3
M  V30 4 1 5 4
M  V30 5 2 6 5
M  V30 6 1 7 6
M  V30 7 1 8 7
M  V30 8 2 9 8
M  V30 9 1 10 9
M  V30 10 2 11 10
M  V30 11 1 12 11
M  V30 12 1 13 5
M  V30 13 1 13 8
M  V30 14 2 13 12
M  V30 15 1 14 6
M  V30 16 1 15 14
M  V30 17 1 16 15
M  V30 18 1 17 16
M  V30 19 2 18 17
M  V30 20 1 19 18
M  V30 21 2 20 19
M  V30 22 1 21 20
M  V30 23 1 22 17
M  V30 24 2 22 21
M  V30 25 1 23 2
M  V30 26 1 23 16
M  V30 27 1 24 1
M  V30 28 1 25 1
M  V30 29 1 26 1
M  V30 30 1 27 3
M  V30 31 1 28 3
M  V30 32 1 29 4
M  V30 33 1 30 4
M  V30 34 1 31 7
M  V30 35 1 32 9
M  V30 36 1 33 10
M  V30 37 1 34 11
M  V30 38 1 35 12
M  V30 39 1 36 14
M  V30 40 1 37 14
M  V30 41 1 38 15
M  V30 42 1 39 15
M  V30 43 1 16 40 CFG=3
M  V30 44 1 41 18
M  V30 45 1 42 19
M  V30 46 1 43 20
M  V30 47 1 44 21
M  V30 48 1 45 22
M  V30 49 1 46 23
M  V30 50 1 47 23
M  V30 51 1 2 48 CFG=3
M  V30 END BOND
M  V30 END CTAB
M  END
>  <b_m_subgroup_collapsed>  (1262) 
0

>  <r_i_docking_score>  (1262) 
-7.3008630423387704

>  <s_m_subgroup_title>  (1262) 
glide-dock_SP_D22_pv

>  <s_m_subgroupid>  (1262) 
glide-dock_SP_D22_pv

>  <Molecule ChEMBL ID>  (1262) 
CHEMBL201375

>  <Standard Type>  (1262) 
Ki

>  <Standard Value>  (1262) 
10000.0

>  <label>  (1262) 
0

$$$$
CHEMBL544055
     RDKit          3D

  0  0  0  0  0  0  0  0  0  0999 V3000
M  V30 BEGIN CTAB
M  V30 COUNTS 39 41 0 0 1
M  V30 BEGIN ATOM
M  V30 1 C 6.666193 5.268502 -11.977463 0
M  V30 2 N 8.030934 5.769867 -11.699379 0 CFG=2 CHG=1
M  V30 3 C 8.382697 5.630898 -10.263590 0
M  V30 4 C 9.806361 6.120177 -9.988181 0
M  V30 5 C 10.001661 7.596681 -10.419102 0 CFG=2
M  V30 6 C 9.641747 7.694673 -11.914686 0
M  V30 7 C 8.245642 7.140882 -12.235255 0
M  V30 8 C 11.434160 8.116387 -10.218428 0
M  V30 9 C 11.766939 8.215396 -8.739051 0
M  V30 10 O 12.941708 8.172272 -8.399745 0
M  V30 11 C 10.659259 8.410550 -7.788435 0
M  V30 12 C 10.917516 8.478445 -6.341652 0
M  V30 13 C 11.285753 7.302239 -5.651972 0
M  V30 14 C 11.685979 7.367799 -4.302208 0
M  V30 15 C 11.693776 8.606190 -3.633150 0
M  V30 16 F 12.087794 8.674015 -2.339410 0
M  V30 17 C 11.286058 9.772555 -4.308097 0
M  V30 18 C 10.904673 9.715149 -5.663680 0
M  V30 19 C 9.429840 8.583256 -8.319104 0
M  V30 20 O 9.129424 8.441258 -9.659026 0
M  V30 21 H 5.913740 5.852987 -11.447080 0
M  V30 22 H 6.444449 5.317289 -13.043885 0
M  V30 23 H 6.564836 4.229435 -11.662235 0
M  V30 24 H 8.298597 4.582129 -9.975524 0
M  V30 25 H 7.686169 6.172337 -9.629846 0
M  V30 26 H 10.485924 5.486349 -10.544715 0
M  V30 27 H 10.041004 5.961502 -8.936183 0
M  V30 28 H 9.685205 8.733048 -12.241632 0
M  V30 29 H 10.383853 7.153373 -12.503257 0
M  V30 30 H 8.085708 7.116622 -13.312094 0
M  V30 31 H 7.521198 7.846646 -11.850474 0
M  V30 32 H 11.546426 9.111135 -10.649899 0
M  V30 33 H 12.154953 7.464520 -10.712189 0
M  V30 34 H 11.304071 6.351946 -6.166952 0
M  V30 35 H 11.987255 6.469528 -3.783313 0
M  V30 36 H 11.285528 10.715120 -3.783867 0
M  V30 37 H 10.636912 10.621415 -6.186269 0
M  V30 38 H 8.540970 8.763709 -7.731107 0
M  V30 39 H 8.665853 5.166283 -12.200467 0
M  V30 END ATOM
M  V30 BEGIN BOND
M  V30 1 1 2 1
M  V30 2 1 3 2
M  V30 3 1 4 3
M  V30 4 1 5 4
M  V30 5 1 6 5
M  V30 6 1 7 2
M  V30 7 1 7 6
M  V30 8 1 8 5
M  V30 9 1 9 8
M  V30 10 2 10 9
M  V30 11 1 11 9
M  V30 12 1 12 11
M  V30 13 1 13 12
M  V30 14 2 14 13
M  V30 15 1 15 14
M  V30 16 1 16 15
M  V30 17 2 17 15
M  V30 18 2 18 12
M  V30 19 1 18 17
M  V30 20 2 19 11
M  V30 21 1 5 20 CFG=1
M  V30 22 1 20 19
M  V30 23 1 21 1
M  V30 24 1 22 1
M  V30 25 1 23 1
M  V30 26 1 24 3
M  V30 27 1 25 3
M  V30 28 1 26 4
M  V30 29 1 27 4
M  V30 30 1 28 6
M  V30 31 1 29 6
M  V30 32 1 30 7
M  V30 33 1 31 7
M  V30 34 1 32 8
M  V30 35 1 33 8
M  V30 36 1 34 13
M  V30 37 1 35 14
M  V30 38 1 36 17
M  V30 39 1 37 18
M  V30 40 1 38 19
M  V30 41 1 2 39 CFG=3
M  V30 END BOND
M  V30 END CTAB
M  END
>  <b_m_subgroup_collapsed>  (1263) 
0

>  <r_i_docking_score>  (1263) 
-7.3003571946412196

>  <s_m_subgroup_title>  (1263) 
glide-dock_SP_D22_pv

>  <s_m_subgroupid>  (1263) 
glide-dock_SP_D22_pv

>  <Molecule ChEMBL ID>  (1263) 
CHEMBL544055

>  <Standard Type>  (1263) 
Ki

>  <Standard Value>  (1263) 
100000.0

>  <label>  (1263) 
0

$$$$
CHEMBL3695362
     RDKit          3D

  0  0  0  0  0  0  0  0  0  0999 V3000
M  V30 BEGIN CTAB
M  V30 COUNTS 63 66 0 0 1
M  V30 BEGIN ATOM
M  V30 1 C 4.822308 -1.826411 -16.335064 0
M  V30 2 C 5.792186 -0.649878 -16.538485 0
M  V30 3 C 6.088156 0.125221 -15.251474 0
M  V30 4 O 5.599440 -0.229083 -14.176401 0
M  V30 5 N 6.887928 1.200575 -15.374104 0
M  V30 6 C 7.287770 2.053641 -14.258263 0 CFG=1
M  V30 7 C 8.595307 2.813843 -14.558905 0
M  V30 8 C 9.006581 3.730887 -13.387829 0
M  V30 9 C 7.876703 4.713832 -13.007948 0 CFG=2
M  V30 10 C 8.267388 5.728593 -11.906364 0
M  V30 11 C 8.550004 5.127426 -10.509066 0
M  V30 12 N 8.867879 6.152775 -9.475904 0 CFG=2 CHG=1
M  V30 13 C 10.257121 6.648417 -9.621018 0
M  V30 14 C 10.645232 7.674068 -8.547606 0
M  V30 15 C 10.457381 7.098823 -7.126808 0 CFG=1
M  V30 16 C 10.839796 8.063147 -6.003907 0
M  V30 17 C 10.599285 9.442144 -6.149981 0
M  V30 18 C 10.890102 10.339087 -5.110085 0
M  V30 19 C 11.451229 9.893721 -3.906477 0
M  V30 20 C 11.686152 8.532495 -3.764355 0
M  V30 21 O 12.170300 7.900980 -2.642349 0
M  V30 22 C 12.135125 6.572236 -2.921574 0
M  V30 23 C 11.685965 6.328888 -4.196133 0
M  V30 24 C 11.373830 7.587080 -4.775914 0
M  V30 25 C 9.000480 6.638340 -6.999700 0
M  V30 26 C 8.629693 5.630517 -8.101253 0
M  V30 27 C 6.568676 3.957668 -12.696155 0
M  V30 28 C 6.158322 3.028685 -13.850828 0
M  V30 29 H 4.633572 -2.343303 -17.275457 0
M  V30 30 H 5.227477 -2.560343 -15.636668 0
M  V30 31 H 3.858578 -1.492828 -15.946876 0
M  V30 32 H 5.376925 0.039770 -17.274422 0
M  V30 33 H 6.733936 -1.021830 -16.944723 0
M  V30 34 H 7.257108 1.420353 -16.286709 0
M  V30 35 H 7.488627 1.363992 -13.447132 0
M  V30 36 H 8.485586 3.414615 -15.461347 0
M  V30 37 H 9.397745 2.103066 -14.761401 0
M  V30 38 H 9.902090 4.287463 -13.665015 0
M  V30 39 H 9.286310 3.116029 -12.532879 0
M  V30 40 H 7.685589 5.312766 -13.898936 0
M  V30 41 H 7.466859 6.465267 -11.825226 0
M  V30 42 H 9.136958 6.283751 -12.256068 0
M  V30 43 H 9.361650 4.401300 -10.564683 0
M  V30 44 H 7.686087 4.561596 -10.175732 0
M  V30 45 H 10.421955 7.073851 -10.610463 0
M  V30 46 H 10.886895 5.774177 -9.526180 0
M  V30 47 H 10.027768 8.557303 -8.707966 0
M  V30 48 H 11.682058 7.982981 -8.689770 0
M  V30 49 H 11.106183 6.226188 -7.030628 0
M  V30 50 H 10.150937 9.833482 -7.046979 0
M  V30 51 H 10.664495 11.372516 -5.241145 0
M  V30 52 H 11.673507 10.572454 -3.095529 0
M  V30 53 H 12.461135 5.919021 -2.124338 0
M  V30 54 H 11.554844 5.373815 -4.668340 0
M  V30 55 H 8.850530 6.173810 -6.025304 0
M  V30 56 H 8.327494 7.496838 -7.041716 0
M  V30 57 H 7.582933 5.372389 -7.980849 0
M  V30 58 H 9.197868 4.709723 -7.962907 0
M  V30 59 H 6.671219 3.372327 -11.784374 0
M  V30 60 H 5.765434 4.670511 -12.503087 0
M  V30 61 H 5.871828 3.642153 -14.703492 0
M  V30 62 H 5.267172 2.471696 -13.560244 0
M  V30 63 H 8.216125 6.922307 -9.611186 0
M  V30 END ATOM
M  V30 BEGIN BOND
M  V30 1 1 2 1
M  V30 2 1 3 2
M  V30 3 2 4 3
M  V30 4 1 5 3
M  V30 5 1 6 5
M  V30 6 1 7 6
M  V30 7 1 8 7
M  V30 8 1 9 8
M  V30 9 1 10 9
M  V30 10 1 11 10
M  V30 11 1 12 11
M  V30 12 1 13 12
M  V30 13 1 14 13
M  V30 14 1 15 14
M  V30 15 1 16 15
M  V30 16 1 17 16
M  V30 17 2 18 17
M  V30 18 1 19 18
M  V30 19 2 20 19
M  V30 20 1 21 20
M  V30 21 1 22 21
M  V30 22 2 23 22
M  V30 23 2 24 16
M  V30 24 1 24 20
M  V30 25 1 24 23
M  V30 26 1 25 15
M  V30 27 1 26 12
M  V30 28 1 26 25
M  V30 29 1 27 9
M  V30 30 1 28 6
M  V30 31 1 28 27
M  V30 32 1 29 1
M  V30 33 1 30 1
M  V30 34 1 31 1
M  V30 35 1 32 2
M  V30 36 1 33 2
M  V30 37 1 34 5
M  V30 38 1 6 35 CFG=1
M  V30 39 1 36 7
M  V30 40 1 37 7
M  V30 41 1 38 8
M  V30 42 1 39 8
M  V30 43 1 9 40 CFG=3
M  V30 44 1 41 10
M  V30 45 1 42 10
M  V30 46 1 43 11
M  V30 47 1 44 11
M  V30 48 1 45 13
M  V30 49 1 46 13
M  V30 50 1 47 14
M  V30 51 1 48 14
M  V30 52 1 15 49 CFG=3
M  V30 53 1 50 17
M  V30 54 1 51 18
M  V30 55 1 52 19
M  V30 56 1 53 22
M  V30 57 1 54 23
M  V30 58 1 55 25
M  V30 59 1 56 25
M  V30 60 1 57 26
M  V30 61 1 58 26
M  V30 62 1 59 27
M  V30 63 1 60 27
M  V30 64 1 61 28
M  V30 65 1 62 28
M  V30 66 1 12 63 CFG=3
M  V30 END BOND
M  V30 END CTAB
M  END
>  <b_m_subgroup_collapsed>  (1264) 
0

>  <r_i_docking_score>  (1264) 
-7.2997581559803102

>  <s_m_subgroup_title>  (1264) 
glide-dock_SP_D22_pv

>  <s_m_subgroupid>  (1264) 
glide-dock_SP_D22_pv

>  <Molecule ChEMBL ID>  (1264) 
CHEMBL3695362

>  <Standard Type>  (1264) 
Ki

>  <Standard Value>  (1264) 
91.9

>  <label>  (1264) 
1

$$$$
CHEMBL4104013
     RDKit          3D

  0  0  0  0  0  0  0  0  0  0999 V3000
M  V30 BEGIN CTAB
M  V30 COUNTS 54 58 0 0 1
M  V30 BEGIN ATOM
M  V30 1 O 11.269622 9.099857 -8.260769 0
M  V30 2 C 11.305215 9.089333 -7.029459 0
M  V30 3 C 11.788021 10.350305 -6.290742 0
M  V30 4 O 11.286653 10.399828 -4.961126 0
M  V30 5 C 11.553426 9.260728 -4.252001 0
M  V30 6 C 11.968516 9.347408 -2.911808 0
M  V30 7 C 12.235795 8.173243 -2.187432 0
M  V30 8 C 12.087069 6.918437 -2.805370 0
M  V30 9 C 11.685950 6.831076 -4.153665 0
M  V30 10 C 11.408182 8.006330 -4.892363 0
M  V30 11 N 11.016107 8.000027 -6.272727 0
M  V30 12 C 10.466817 6.792494 -6.918672 0
M  V30 13 C 9.089853 7.026874 -7.585708 0
M  V30 14 C 8.667432 5.926519 -8.578648 0
M  V30 15 N 8.886057 6.343067 -9.964899 0
M  V30 16 C 10.276756 6.172138 -10.344147 0
M  V30 17 C 10.521644 6.666582 -11.780697 0
M  V30 18 N 9.669226 5.932150 -12.708424 0
M  V30 19 C 10.198782 4.988443 -13.624467 0
M  V30 20 C 11.518856 5.143406 -14.135588 0
M  V30 21 C 12.084150 4.229086 -15.059422 0
M  V30 22 C 11.345459 3.120925 -15.517642 0
M  V30 23 C 10.046542 2.986048 -15.018897 0
M  V30 24 N 9.089172 2.025914 -15.296673 0
M  V30 25 C 7.939635 2.309403 -14.580758 0
M  V30 26 O 6.882339 1.687185 -14.575318 0
M  V30 27 O 8.206476 3.437489 -13.850387 0
M  V30 28 C 9.479915 3.866046 -14.113546 0
M  V30 29 C 8.260805 6.041216 -12.340010 0
M  V30 30 C 8.050789 5.562299 -10.889607 0
M  V30 31 H 11.468865 11.251320 -6.809851 0
M  V30 32 H 12.879483 10.360351 -6.266423 0
M  V30 33 H 12.084987 10.311572 -2.440814 0
M  V30 34 H 12.552225 8.239628 -1.157256 0
M  V30 35 H 12.291160 6.014751 -2.248380 0
M  V30 36 H 11.617537 5.847167 -4.591407 0
M  V30 37 H 11.207612 6.419257 -7.622527 0
M  V30 38 H 10.321872 5.986837 -6.209717 0
M  V30 39 H 8.344996 7.073836 -6.790387 0
M  V30 40 H 9.011294 7.994350 -8.080254 0
M  V30 41 H 9.139703 4.967462 -8.359227 0
M  V30 42 H 7.601646 5.772464 -8.439325 0
M  V30 43 H 10.933234 6.725074 -9.676383 0
M  V30 44 H 10.485975 5.110008 -10.247891 0
M  V30 45 H 10.288608 7.730383 -11.850822 0
M  V30 46 H 11.579421 6.574597 -12.005311 0
M  V30 47 H 12.130768 5.987037 -13.856508 0
M  V30 48 H 13.088598 4.385581 -15.422177 0
M  V30 49 H 11.760922 2.416610 -16.222759 0
M  V30 50 H 9.179822 1.237561 -15.918389 0
M  V30 51 H 7.977565 7.093709 -12.402168 0
M  V30 52 H 7.592738 5.532853 -13.029808 0
M  V30 53 H 8.262768 4.495979 -10.800150 0
M  V30 54 H 7.001181 5.710653 -10.646995 0
M  V30 END ATOM
M  V30 BEGIN BOND
M  V30 1 2 2 1
M  V30 2 1 3 2
M  V30 3 1 4 3
M  V30 4 1 5 4
M  V30 5 2 6 5
M  V30 6 1 7 6
M  V30 7 2 8 7
M  V30 8 1 9 8
M  V30 9 1 10 5
M  V30 10 2 10 9
M  V30 11 1 11 2
M  V30 12 1 11 10
M  V30 13 1 12 11
M  V30 14 1 13 12
M  V30 15 1 14 13
M  V30 16 1 15 14
M  V30 17 1 16 15
M  V30 18 1 17 16
M  V30 19 1 18 17
M  V30 20 1 19 18
M  V30 21 1 20 19
M  V30 22 2 21 20
M  V30 23 1 22 21
M  V30 24 2 23 22
M  V30 25 1 24 23
M  V30 26 1 25 24
M  V30 27 2 26 25
M  V30 28 1 27 25
M  V30 29 2 28 19
M  V30 30 1 28 23
M  V30 31 1 28 27
M  V30 32 1 29 18
M  V30 33 1 30 15
M  V30 34 1 30 29
M  V30 35 1 31 3
M  V30 36 1 32 3
M  V30 37 1 33 6
M  V30 38 1 34 7
M  V30 39 1 35 8
M  V30 40 1 36 9
M  V30 41 1 37 12
M  V30 42 1 38 12
M  V30 43 1 39 13
M  V30 44 1 40 13
M  V30 45 1 41 14
M  V30 46 1 42 14
M  V30 47 1 43 16
M  V30 48 1 44 16
M  V30 49 1 45 17
M  V30 50 1 46 17
M  V30 51 1 47 20
M  V30 52 1 48 21
M  V30 53 1 49 22
M  V30 54 1 50 24
M  V30 55 1 51 29
M  V30 56 1 52 29
M  V30 57 1 53 30
M  V30 58 1 54 30
M  V30 END BOND
M  V30 END CTAB
M  END
>  <b_m_subgroup_collapsed>  (1265) 
0

>  <r_i_docking_score>  (1265) 
-7.2975261730898504

>  <s_m_subgroup_title>  (1265) 
glide-dock_SP_D22_pv

>  <s_m_subgroupid>  (1265) 
glide-dock_SP_D22_pv

>  <Molecule ChEMBL ID>  (1265) 
CHEMBL4104013

>  <Standard Type>  (1265) 
Ki

>  <Standard Value>  (1265) 
1.738

>  <label>  (1265) 
1

$$$$
CHEMBL240023
     RDKit          3D

  0  0  0  0  0  0  0  0  0  0999 V3000
M  V30 BEGIN CTAB
M  V30 COUNTS 63 66 0 0 1
M  V30 BEGIN ATOM
M  V30 1 C 13.319264 5.713459 -15.548014 0
M  V30 2 C 12.638895 4.343254 -15.646577 0
M  V30 3 C 11.124455 4.453917 -15.887164 0
M  V30 4 O 10.537685 3.172038 -16.073837 0
M  V30 5 C 10.249070 2.426195 -14.893821 0 CFG=2
M  V30 6 C 10.339631 0.943441 -15.285096 0
M  V30 7 C 9.164896 0.540501 -16.182838 0
M  V30 8 C 7.813726 0.742923 -15.482059 0
M  V30 9 C 7.730651 1.996779 -14.619881 0
M  V30 10 C 6.485920 2.334294 -14.045125 0
M  V30 11 C 6.365437 3.426212 -13.164724 0
M  V30 12 C 7.512884 4.172325 -12.848438 0
M  V30 13 N 7.452240 5.189925 -11.849074 0
M  V30 14 C 8.218711 6.276522 -12.022396 0
M  V30 15 N 8.886628 6.872133 -11.018543 0 CHG=1
M  V30 16 C 9.521189 8.175642 -11.274662 0
M  V30 17 C 10.876767 8.294558 -10.571597 0
M  V30 18 C 10.758393 7.962056 -9.102980 0
M  V30 19 C 11.553684 8.645989 -8.169086 0
M  V30 20 C 11.400990 8.420529 -6.791161 0
M  V30 21 O 12.113042 9.221062 -5.932776 0
M  V30 22 C 11.348038 9.939951 -4.974300 0
M  V30 23 C 10.553102 7.371726 -6.355954 0
M  V30 24 O 10.485781 6.972369 -5.047429 0
M  V30 25 C 11.705410 6.566646 -4.458034 0
M  V30 26 C 9.737783 6.702115 -7.291583 0
M  V30 27 C 9.820517 7.006107 -8.664179 0
M  V30 28 C 8.918603 6.288393 -9.656252 0
M  V30 29 C 8.758762 3.866641 -13.429708 0
M  V30 30 C 8.878592 2.777062 -14.318865 0
M  V30 31 H 14.399201 5.605164 -15.444074 0
M  V30 32 H 13.133842 6.312851 -16.440020 0
M  V30 33 H 12.956709 6.272923 -14.685374 0
M  V30 34 H 12.840473 3.783504 -14.734489 0
M  V30 35 H 13.091837 3.775350 -16.460062 0
M  V30 36 H 10.954132 5.020687 -16.803789 0
M  V30 37 H 10.635327 5.013244 -15.090834 0
M  V30 38 H 11.006490 2.610769 -14.131408 0
M  V30 39 H 11.287120 0.744482 -15.786471 0
M  V30 40 H 10.330158 0.326457 -14.385323 0
M  V30 41 H 9.192557 1.151542 -17.085789 0
M  V30 42 H 9.263438 -0.494510 -16.511889 0
M  V30 43 H 7.625192 -0.111514 -14.829647 0
M  V30 44 H 7.009751 0.750220 -16.219540 0
M  V30 45 H 5.617035 1.725307 -14.246865 0
M  V30 46 H 5.413771 3.650648 -12.705083 0
M  V30 47 H 8.302027 6.687180 -13.022223 0
M  V30 48 H 9.641739 8.332163 -12.345725 0
M  V30 49 H 8.842952 8.951053 -10.915487 0
M  V30 50 H 11.263522 9.309541 -10.666563 0
M  V30 51 H 11.607978 7.629160 -11.031943 0
M  V30 52 H 12.268604 9.372322 -8.512557 0
M  V30 53 H 11.979728 10.172202 -4.117736 0
M  V30 54 H 10.995153 10.878393 -5.403121 0
M  V30 55 H 10.486254 9.397913 -4.593544 0
M  V30 56 H 11.506843 6.169811 -3.463099 0
M  V30 57 H 12.147904 5.772307 -5.055953 0
M  V30 58 H 12.425135 7.375311 -4.343784 0
M  V30 59 H 9.051528 5.941085 -6.950372 0
M  V30 60 H 7.907634 6.230386 -9.253918 0
M  V30 61 H 9.273301 5.260768 -9.738126 0
M  V30 62 H 9.634935 4.432613 -13.150416 0
M  V30 63 H 6.735724 5.208936 -11.131115 0
M  V30 END ATOM
M  V30 BEGIN BOND
M  V30 1 1 2 1
M  V30 2 1 3 2
M  V30 3 1 4 3
M  V30 4 1 5 4
M  V30 5 1 6 5
M  V30 6 1 7 6
M  V30 7 1 8 7
M  V30 8 1 9 8
M  V30 9 1 10 9
M  V30 10 2 11 10
M  V30 11 1 12 11
M  V30 12 1 13 12
M  V30 13 1 14 13
M  V30 14 2 15 14 CFG=2
M  V30 15 1 16 15
M  V30 16 1 17 16
M  V30 17 1 18 17
M  V30 18 2 19 18
M  V30 19 1 20 19
M  V30 20 1 21 20
M  V30 21 1 22 21
M  V30 22 2 23 20
M  V30 23 1 24 23
M  V30 24 1 25 24
M  V30 25 1 26 23
M  V30 26 1 27 18
M  V30 27 2 27 26
M  V30 28 1 28 15
M  V30 29 1 28 27
M  V30 30 2 29 12
M  V30 31 1 30 5
M  V30 32 2 30 9
M  V30 33 1 30 29
M  V30 34 1 31 1
M  V30 35 1 32 1
M  V30 36 1 33 1
M  V30 37 1 34 2
M  V30 38 1 35 2
M  V30 39 1 36 3
M  V30 40 1 37 3
M  V30 41 1 5 38 CFG=1
M  V30 42 1 39 6
M  V30 43 1 40 6
M  V30 44 1 41 7
M  V30 45 1 42 7
M  V30 46 1 43 8
M  V30 47 1 44 8
M  V30 48 1 45 10
M  V30 49 1 46 11
M  V30 50 1 47 14
M  V30 51 1 48 16
M  V30 52 1 49 16
M  V30 53 1 50 17
M  V30 54 1 51 17
M  V30 55 1 52 19
M  V30 56 1 53 22
M  V30 57 1 54 22
M  V30 58 1 55 22
M  V30 59 1 56 25
M  V30 60 1 57 25
M  V30 61 1 58 25
M  V30 62 1 59 26
M  V30 63 1 60 28
M  V30 64 1 61 28
M  V30 65 1 62 29
M  V30 66 1 63 13
M  V30 END BOND
M  V30 END CTAB
M  END
>  <b_m_subgroup_collapsed>  (1266) 
0

>  <r_i_docking_score>  (1266) 
-7.2969986297945404

>  <s_m_subgroup_title>  (1266) 
glide-dock_SP_D22_pv

>  <s_m_subgroupid>  (1266) 
glide-dock_SP_D22_pv

>  <Molecule ChEMBL ID>  (1266) 
CHEMBL240023

>  <Standard Type>  (1266) 
Ki

>  <Standard Value>  (1266) 
42000.0

>  <label>  (1266) 
0

$$$$
CHEMBL164604
     RDKit          3D

  0  0  0  0  0  0  0  0  0  0999 V3000
M  V30 BEGIN CTAB
M  V30 COUNTS 58 61 0 0 1
M  V30 BEGIN ATOM
M  V30 1 C 9.696340 6.464778 -7.678415 0
M  V30 2 C 10.196045 7.705395 -7.511622 0
M  V30 3 C 10.785196 8.124517 -6.217220 0
M  V30 4 C 10.826065 9.495747 -5.881985 0
M  V30 5 C 11.293670 9.910240 -4.623515 0
M  V30 6 C 11.792223 8.969913 -3.704014 0
M  V30 7 C 11.792261 7.603028 -4.039723 0
M  V30 8 C 11.282282 7.182032 -5.283669 0
M  V30 9 C 10.186805 8.649447 -8.705562 0
M  V30 10 C 10.104928 7.910983 -10.050674 0
M  V30 11 N 9.028224 6.889414 -10.081935 0 CFG=1 CHG=1
M  V30 12 C 8.955067 6.251907 -11.420752 0
M  V30 13 C 7.800035 5.243787 -11.555943 0
M  V30 14 C 7.696514 4.555128 -12.930063 0 CFG=1
M  V30 15 C 8.965304 3.748989 -13.310927 0
M  V30 16 C 8.776989 2.912335 -14.590441 0
M  V30 17 C 7.541214 1.997942 -14.517357 0 CFG=2
M  V30 18 N 7.373823 1.249128 -15.755424 0
M  V30 19 C 6.499772 0.197212 -15.937214 0
M  V30 20 N 6.359045 -0.193980 -17.204004 0
M  V30 21 C 5.499326 -1.206216 -17.433508 0
M  V30 22 C 4.778174 -1.817246 -16.394527 0
M  V30 23 C 5.016063 -1.321619 -15.101425 0
M  V30 24 N 5.875161 -0.306637 -14.871589 0
M  V30 25 C 6.293743 2.837806 -14.204386 0
M  V30 26 C 6.447355 3.656053 -12.922673 0
M  V30 27 C 9.130960 5.901382 -8.970285 0
M  V30 28 H 9.683040 5.772583 -6.853656 0
M  V30 29 H 10.479472 10.243854 -6.574751 0
M  V30 30 H 11.282636 10.959435 -4.370699 0
M  V30 31 H 12.169722 9.296661 -2.744037 0
M  V30 32 H 12.177011 6.876310 -3.338100 0
M  V30 33 H 11.297415 6.125943 -5.503702 0
M  V30 34 H 9.367950 9.362670 -8.592626 0
M  V30 35 H 11.109636 9.230872 -8.707198 0
M  V30 36 H 9.949045 8.634943 -10.852976 0
M  V30 37 H 11.059102 7.420078 -10.249889 0
M  V30 38 H 8.834237 7.027109 -12.178564 0
M  V30 39 H 9.908082 5.760592 -11.621210 0
M  V30 40 H 7.886720 4.463702 -10.799234 0
M  V30 41 H 6.864789 5.763647 -11.349208 0
M  V30 42 H 7.553200 5.325933 -13.688848 0
M  V30 43 H 9.801720 4.431225 -13.470052 0
M  V30 44 H 9.272779 3.097942 -12.492860 0
M  V30 45 H 9.671928 2.313654 -14.761102 0
M  V30 46 H 8.692533 3.584118 -15.445135 0
M  V30 47 H 7.697000 1.268110 -13.722686 0
M  V30 48 H 7.826828 1.592090 -16.588806 0
M  V30 49 H 5.378716 -1.529788 -18.457809 0
M  V30 50 H 4.082460 -2.626839 -16.577124 0
M  V30 51 H 4.504877 -1.734446 -14.245315 0
M  V30 52 H 5.423612 2.194069 -14.079395 0
M  V30 53 H 6.079438 3.494021 -15.043699 0
M  V30 54 H 6.484468 2.974128 -12.071803 0
M  V30 55 H 5.555842 4.267660 -12.776584 0
M  V30 56 H 9.769078 5.068840 -9.267082 0
M  V30 57 H 8.139287 5.496817 -8.759617 0
M  V30 58 H 8.140962 7.374218 -9.951241 0
M  V30 END ATOM
M  V30 BEGIN BOND
M  V30 1 2 2 1
M  V30 2 1 3 2
M  V30 3 2 4 3
M  V30 4 1 5 4
M  V30 5 2 6 5
M  V30 6 1 7 6
M  V30 7 1 8 3
M  V30 8 2 8 7
M  V30 9 1 9 2
M  V30 10 1 10 9
M  V30 11 1 11 10
M  V30 12 1 12 11
M  V30 13 1 13 12
M  V30 14 1 14 13
M  V30 15 1 15 14
M  V30 16 1 16 15
M  V30 17 1 17 16
M  V30 18 1 18 17
M  V30 19 1 19 18
M  V30 20 2 20 19
M  V30 21 1 21 20
M  V30 22 2 22 21
M  V30 23 1 23 22
M  V30 24 1 24 19
M  V30 25 2 24 23
M  V30 26 1 25 17
M  V30 27 1 26 14
M  V30 28 1 26 25
M  V30 29 1 27 1
M  V30 30 1 27 11
M  V30 31 1 28 1
M  V30 32 1 29 4
M  V30 33 1 30 5
M  V30 34 1 31 6
M  V30 35 1 32 7
M  V30 36 1 33 8
M  V30 37 1 34 9
M  V30 38 1 35 9
M  V30 39 1 36 10
M  V30 40 1 37 10
M  V30 41 1 38 12
M  V30 42 1 39 12
M  V30 43 1 40 13
M  V30 44 1 41 13
M  V30 45 1 14 42 CFG=3
M  V30 46 1 43 15
M  V30 47 1 44 15
M  V30 48 1 45 16
M  V30 49 1 46 16
M  V30 50 1 17 47 CFG=1
M  V30 51 1 48 18
M  V30 52 1 49 21
M  V30 53 1 50 22
M  V30 54 1 51 23
M  V30 55 1 52 25
M  V30 56 1 53 25
M  V30 57 1 54 26
M  V30 58 1 55 26
M  V30 59 1 56 27
M  V30 60 1 57 27
M  V30 61 1 11 58 CFG=1
M  V30 END BOND
M  V30 END CTAB
M  END
>  <b_m_subgroup_collapsed>  (1267) 
0

>  <r_i_docking_score>  (1267) 
-7.2966629399223404

>  <s_m_subgroup_title>  (1267) 
glide-dock_SP_D22_pv

>  <s_m_subgroupid>  (1267) 
glide-dock_SP_D22_pv

>  <Molecule ChEMBL ID>  (1267) 
CHEMBL164604

>  <Standard Type>  (1267) 
Ki

>  <Standard Value>  (1267) 
4.7

>  <label>  (1267) 
1

$$$$
CHEMBL195927
     RDKit          3D

  0  0  0  0  0  0  0  0  0  0999 V3000
M  V30 BEGIN CTAB
M  V30 COUNTS 67 70 0 0 1
M  V30 BEGIN ATOM
M  V30 1 C 11.692945 11.239032 -6.182983 0
M  V30 2 O 10.919737 10.087957 -6.429108 0
M  V30 3 C 11.199468 9.021215 -5.615066 0
M  V30 4 C 11.473857 9.202249 -4.234912 0
M  V30 5 C 11.723562 8.099771 -3.402178 0
M  V30 6 C 11.686265 6.805687 -3.942040 0
M  V30 7 C 11.428772 6.626324 -5.313418 0
M  V30 8 C 11.194033 7.716969 -6.173851 0
M  V30 9 N 11.024174 7.484998 -7.557678 0
M  V30 10 C 11.655045 8.337647 -8.557600 0
M  V30 11 C 10.580522 8.911457 -9.501766 0
M  V30 12 C 9.734527 7.797319 -10.174403 0
M  V30 13 C 10.492428 7.076929 -11.310512 0
M  V30 14 O 11.670114 7.372384 -11.508307 0
M  V30 15 N 9.809710 6.182715 -12.062067 0
M  V30 16 C 10.266232 5.413259 -13.188209 0
M  V30 17 C 11.495602 5.642299 -13.850205 0
M  V30 18 C 11.882005 4.858215 -14.950017 0
M  V30 19 C 11.043295 3.830467 -15.445706 0
M  V30 20 O 11.409889 3.020139 -16.501789 0
M  V30 21 C 12.571504 3.354365 -17.247072 0
M  V30 22 C 9.792178 3.608962 -14.813271 0
M  V30 23 N 8.888780 2.617123 -15.250058 0
M  V30 24 C 8.933732 1.379334 -14.489600 0
M  V30 25 C 7.617486 0.599302 -14.650855 0
M  V30 26 N 7.295332 0.385212 -16.085320 0 CHG=1
M  V30 27 C 6.043412 -0.384203 -16.275530 0
M  V30 28 C 7.312666 1.652831 -16.867153 0
M  V30 29 C 8.631698 2.422826 -16.673161 0
M  V30 30 C 9.426438 4.392861 -13.687910 0
M  V30 31 C 9.183623 6.860841 -9.067812 0
M  V30 32 C 10.238532 6.362060 -8.063488 0
M  V30 33 H 11.686041 11.903033 -7.047131 0
M  V30 34 H 11.286183 11.763305 -5.318956 0
M  V30 35 H 12.734763 10.971359 -5.997269 0
M  V30 36 H 11.472907 10.182878 -3.786812 0
M  V30 37 H 11.923113 8.246624 -2.350497 0
M  V30 38 H 11.880835 5.950195 -3.311893 0
M  V30 39 H 11.484673 5.641823 -5.731281 0
M  V30 40 H 12.251115 9.128205 -8.107545 0
M  V30 41 H 12.368408 7.733894 -9.115369 0
M  V30 42 H 9.913795 9.562234 -8.935744 0
M  V30 43 H 11.060406 9.548293 -10.246383 0
M  V30 44 H 8.884218 8.280588 -10.657933 0
M  V30 45 H 8.853888 6.021812 -11.775671 0
M  V30 46 H 12.184127 6.414590 -13.548778 0
M  V30 47 H 12.840458 5.070133 -15.396177 0
M  V30 48 H 12.676162 2.660278 -18.080416 0
M  V30 49 H 12.500823 4.360218 -17.662769 0
M  V30 50 H 13.476166 3.278420 -16.646801 0
M  V30 51 H 9.777672 0.777415 -14.831075 0
M  V30 52 H 9.116553 1.603969 -13.446777 0
M  V30 53 H 7.686231 -0.361779 -14.140391 0
M  V30 54 H 6.805531 1.153278 -14.174663 0
M  V30 55 H 5.181166 0.171746 -15.906806 0
M  V30 56 H 5.882478 -0.599240 -17.332369 0
M  V30 57 H 6.085729 -1.336883 -15.746256 0
M  V30 58 H 7.159932 1.437923 -17.925489 0
M  V30 59 H 6.485606 2.285997 -16.546391 0
M  V30 60 H 8.593988 3.381925 -17.188906 0
M  V30 61 H 9.440142 1.845382 -17.119894 0
M  V30 62 H 8.476013 4.207623 -13.207616 0
M  V30 63 H 8.462148 7.434327 -8.491538 0
M  V30 64 H 8.632631 6.021748 -9.493367 0
M  V30 65 H 10.889044 5.636794 -8.546311 0
M  V30 66 H 9.736867 5.839998 -7.248689 0
M  V30 67 H 8.042403 -0.189624 -16.450596 0
M  V30 END ATOM
M  V30 BEGIN BOND
M  V30 1 1 2 1
M  V30 2 1 3 2
M  V30 3 2 4 3
M  V30 4 1 5 4
M  V30 5 2 6 5
M  V30 6 1 7 6
M  V30 7 1 8 3
M  V30 8 2 8 7
M  V30 9 1 9 8
M  V30 10 1 10 9
M  V30 11 1 11 10
M  V30 12 1 12 11
M  V30 13 1 13 12
M  V30 14 2 14 13
M  V30 15 1 15 13
M  V30 16 1 16 15
M  V30 17 1 17 16
M  V30 18 2 18 17
M  V30 19 1 19 18
M  V30 20 1 20 19
M  V30 21 1 21 20
M  V30 22 2 22 19
M  V30 23 1 23 22
M  V30 24 1 24 23
M  V30 25 1 25 24
M  V30 26 1 26 25
M  V30 27 1 27 26
M  V30 28 1 28 26
M  V30 29 1 29 23
M  V30 30 1 29 28
M  V30 31 2 30 16
M  V30 32 1 30 22
M  V30 33 1 31 12
M  V30 34 1 32 9
M  V30 35 1 32 31
M  V30 36 1 33 1
M  V30 37 1 34 1
M  V30 38 1 35 1
M  V30 39 1 36 4
M  V30 40 1 37 5
M  V30 41 1 38 6
M  V30 42 1 39 7
M  V30 43 1 40 10
M  V30 44 1 41 10
M  V30 45 1 42 11
M  V30 46 1 43 11
M  V30 47 1 44 12
M  V30 48 1 45 15
M  V30 49 1 46 17
M  V30 50 1 47 18
M  V30 51 1 48 21
M  V30 52 1 49 21
M  V30 53 1 50 21
M  V30 54 1 51 24
M  V30 55 1 52 24
M  V30 56 1 53 25
M  V30 57 1 54 25
M  V30 58 1 55 27
M  V30 59 1 56 27
M  V30 60 1 57 27
M  V30 61 1 58 28
M  V30 62 1 59 28
M  V30 63 1 60 29
M  V30 64 1 61 29
M  V30 65 1 62 30
M  V30 66 1 63 31
M  V30 67 1 64 31
M  V30 68 1 65 32
M  V30 69 1 66 32
M  V30 70 1 67 26
M  V30 END BOND
M  V30 END CTAB
M  END
>  <b_m_subgroup_collapsed>  (1268) 
0

>  <r_i_docking_score>  (1268) 
-7.29619024728835

>  <s_m_subgroup_title>  (1268) 
glide-dock_SP_D22_pv

>  <s_m_subgroupid>  (1268) 
glide-dock_SP_D22_pv

>  <Molecule ChEMBL ID>  (1268) 
CHEMBL195927

>  <Standard Type>  (1268) 
Ki

>  <Standard Value>  (1268) 
10000.0

>  <label>  (1268) 
0

$$$$
CHEMBL3286575
     RDKit          3D

  0  0  0  0  0  0  0  0  0  0999 V3000
M  V30 BEGIN CTAB
M  V30 COUNTS 51 55 0 0 1
M  V30 BEGIN ATOM
M  V30 1 C 9.942475 3.307765 -13.869438 0
M  V30 2 C 9.463428 3.900973 -12.685409 0
M  V30 3 C 9.950865 5.149543 -12.239574 0
M  V30 4 C 10.890069 5.773019 -13.075641 0
M  V30 5 C 11.536533 7.009523 -12.961327 0
M  V30 6 C 12.437914 7.193879 -13.978231 0
M  V30 7 N 12.324028 6.052244 -14.760699 0
M  V30 8 C 11.393099 5.201692 -14.230157 0
M  V30 9 C 10.924846 3.965621 -14.631783 0
M  V30 10 C 10.964524 7.772312 -11.794773 0
M  V30 11 C 10.448189 6.930093 -10.614058 0 CFG=1
M  V30 12 C 9.702679 7.798241 -9.580617 0
M  V30 13 N 9.250995 7.009095 -8.401270 0 CFG=2 CHG=1
M  V30 14 C 10.308877 6.721718 -7.392859 0
M  V30 15 C 10.435304 7.770977 -6.252774 0
M  V30 16 C 11.236122 7.137125 -5.087058 0
M  V30 17 C 11.714804 8.120777 -3.996423 0
M  V30 18 C 12.376053 9.371817 -4.571411 0
M  V30 19 C 11.437067 10.047257 -5.576117 0
M  V30 20 C 11.086612 9.092653 -6.726227 0
M  V30 21 C 8.486136 5.802900 -8.823295 0
M  V30 22 C 9.192752 4.954573 -9.891418 0
M  V30 23 N 9.618995 5.781303 -11.015940 0
M  V30 24 H 9.566892 2.342524 -14.178319 0
M  V30 25 H 8.722317 3.372709 -12.116477 0
M  V30 26 H 13.099669 8.012540 -14.222178 0
M  V30 27 H 12.852772 5.884329 -15.604541 0
M  V30 28 H 11.306832 3.506630 -15.531791 0
M  V30 29 H 10.120221 8.363810 -12.158028 0
M  V30 30 H 11.704507 8.481909 -11.422794 0
M  V30 31 H 11.335375 6.544436 -10.119973 0
M  V30 32 H 8.825946 8.242417 -10.051619 0
M  V30 33 H 10.332533 8.632356 -9.285316 0
M  V30 34 H 10.063498 5.772523 -6.919609 0
M  V30 35 H 11.272120 6.554903 -7.874854 0
M  V30 36 H 9.439796 8.001363 -5.871160 0
M  V30 37 H 10.633227 6.357662 -4.619231 0
M  V30 38 H 12.087123 6.608626 -5.500278 0
M  V30 39 H 10.886103 8.454769 -3.375658 0
M  V30 40 H 12.405098 7.611794 -3.322423 0
M  V30 41 H 12.614830 10.047898 -3.751439 0
M  V30 42 H 13.323193 9.120346 -5.047516 0
M  V30 43 H 10.526849 10.374611 -5.072182 0
M  V30 44 H 11.908888 10.945823 -5.975485 0
M  V30 45 H 11.989442 8.879754 -7.300516 0
M  V30 46 H 10.404822 9.621424 -7.389070 0
M  V30 47 H 7.577323 6.172060 -9.283568 0
M  V30 48 H 8.174147 5.199732 -7.969846 0
M  V30 49 H 8.500742 4.176915 -10.210070 0
M  V30 50 H 10.061965 4.451694 -9.465055 0
M  V30 51 H 8.561346 7.576372 -7.925032 0
M  V30 END ATOM
M  V30 BEGIN BOND
M  V30 1 2 2 1
M  V30 2 1 3 2
M  V30 3 2 4 3
M  V30 4 1 5 4
M  V30 5 2 6 5
M  V30 6 1 7 6
M  V30 7 1 8 4
M  V30 8 1 8 7
M  V30 9 1 9 1
M  V30 10 2 9 8
M  V30 11 1 10 5
M  V30 12 1 11 10
M  V30 13 1 12 11
M  V30 14 1 13 12
M  V30 15 1 14 13
M  V30 16 1 15 14
M  V30 17 1 16 15
M  V30 18 1 17 16
M  V30 19 1 18 17
M  V30 20 1 19 18
M  V30 21 1 20 15
M  V30 22 1 20 19
M  V30 23 1 21 13
M  V30 24 1 22 21
M  V30 25 1 23 3
M  V30 26 1 23 11
M  V30 27 1 23 22
M  V30 28 1 24 1
M  V30 29 1 25 2
M  V30 30 1 26 6
M  V30 31 1 27 7
M  V30 32 1 28 9
M  V30 33 1 29 10
M  V30 34 1 30 10
M  V30 35 1 11 31 CFG=1
M  V30 36 1 32 12
M  V30 37 1 33 12
M  V30 38 1 34 14
M  V30 39 1 35 14
M  V30 40 1 36 15
M  V30 41 1 37 16
M  V30 42 1 38 16
M  V30 43 1 39 17
M  V30 44 1 40 17
M  V30 45 1 41 18
M  V30 46 1 42 18
M  V30 47 1 43 19
M  V30 48 1 44 19
M  V30 49 1 45 20
M  V30 50 1 46 20
M  V30 51 1 47 21
M  V30 52 1 48 21
M  V30 53 1 49 22
M  V30 54 1 50 22
M  V30 55 1 13 51 CFG=1
M  V30 END BOND
M  V30 END CTAB
M  END
>  <b_m_subgroup_collapsed>  (1269) 
0

>  <r_i_docking_score>  (1269) 
-7.2958854468948902

>  <s_m_subgroup_title>  (1269) 
glide-dock_SP_D22_pv

>  <s_m_subgroupid>  (1269) 
glide-dock_SP_D22_pv

>  <Molecule ChEMBL ID>  (1269) 
CHEMBL3286575

>  <Standard Type>  (1269) 
Ki

>  <Standard Value>  (1269) 
53.7

>  <label>  (1269) 
1

$$$$
CHEMBL282927
     RDKit          3D

  0  0  0  0  0  0  0  0  0  0999 V3000
M  V30 BEGIN CTAB
M  V30 COUNTS 57 60 0 0 1
M  V30 BEGIN ATOM
M  V30 1 N 11.687434 9.061412 -3.314152 0
M  V30 2 C 11.286442 9.459593 -4.521833 0
M  V30 3 O 10.760787 10.554185 -4.699106 0
M  V30 4 C 11.530433 8.504288 -5.691492 0 CFG=2
M  V30 5 C 12.208605 9.182016 -6.868903 0
M  V30 6 C 11.957609 8.166010 -7.953541 0
M  V30 7 C 10.564594 7.605199 -7.613410 0 CFG=2
M  V30 8 C 9.426212 8.110408 -8.527497 0
M  V30 9 N 9.285928 7.431588 -9.849438 0 CHG=1
M  V30 10 C 8.875369 6.011205 -9.806447 0
M  V30 11 C 8.358338 5.572284 -11.191704 0
M  V30 12 C 9.351534 5.844088 -12.329256 0
M  V30 13 C 9.556115 4.991419 -13.376013 0
M  V30 14 C 10.571009 5.228953 -14.433209 0
M  V30 15 C 10.185990 5.181482 -15.793456 0
M  V30 16 C 11.126887 5.368258 -16.823299 0
M  V30 17 C 12.478175 5.588426 -16.505407 0
M  V30 18 C 12.881459 5.613137 -15.158841 0
M  V30 19 C 11.937945 5.426260 -14.128554 0
M  V30 20 C 8.702351 3.800834 -13.604415 0
M  V30 21 C 7.289948 3.894261 -13.575235 0
M  V30 22 C 6.485960 2.779268 -13.879365 0
M  V30 23 C 7.084103 1.559846 -14.246922 0
M  V30 24 F 6.312038 0.489364 -14.547003 0
M  V30 25 C 8.487463 1.453993 -14.285334 0
M  V30 26 C 9.289638 2.568112 -13.964882 0
M  V30 27 C 9.973003 7.241988 -12.232894 0
M  V30 28 C 10.392087 7.643424 -10.810083 0
M  V30 29 O 10.309399 8.073595 -6.281521 0
M  V30 30 H 11.562678 9.679461 -2.525341 0
M  V30 31 H 12.110204 8.153596 -3.191045 0
M  V30 32 H 12.085433 7.626289 -5.357995 0
M  V30 33 H 11.712873 10.125616 -7.104509 0
M  V30 34 H 13.267085 9.372773 -6.705832 0
M  V30 35 H 12.696626 7.372208 -7.856116 0
M  V30 36 H 12.054446 8.606619 -8.942854 0
M  V30 37 H 10.589693 6.515590 -7.588482 0
M  V30 38 H 9.518229 9.186280 -8.680857 0
M  V30 39 H 8.483150 7.976055 -7.998036 0
M  V30 40 H 8.083909 5.878270 -9.067713 0
M  V30 41 H 9.712479 5.384197 -9.496266 0
M  V30 42 H 7.435107 6.108264 -11.418650 0
M  V30 43 H 8.100541 4.515818 -11.129094 0
M  V30 44 H 9.153973 5.009562 -16.057093 0
M  V30 45 H 10.811034 5.340488 -17.855810 0
M  V30 46 H 13.205082 5.731139 -17.291788 0
M  V30 47 H 13.923013 5.772777 -14.925056 0
M  V30 48 H 12.272366 5.435687 -13.102221 0
M  V30 49 H 6.808777 4.832183 -13.338771 0
M  V30 50 H 5.410106 2.863890 -13.847184 0
M  V30 51 H 8.949025 0.515948 -14.557684 0
M  V30 52 H 10.364861 2.469953 -14.005718 0
M  V30 53 H 10.818050 7.380976 -12.903097 0
M  V30 54 H 9.209289 7.943903 -12.571031 0
M  V30 55 H 10.682840 8.694526 -10.811583 0
M  V30 56 H 11.263792 7.063019 -10.505621 0
M  V30 57 H 8.454662 7.868400 -10.246444 0
M  V30 END ATOM
M  V30 BEGIN BOND
M  V30 1 1 2 1
M  V30 2 2 3 2
M  V30 3 1 4 2
M  V30 4 1 5 4
M  V30 5 1 6 5
M  V30 6 1 7 6
M  V30 7 1 8 7
M  V30 8 1 9 8
M  V30 9 1 10 9
M  V30 10 1 11 10
M  V30 11 1 12 11
M  V30 12 2 13 12
M  V30 13 1 14 13
M  V30 14 2 15 14
M  V30 15 1 16 15
M  V30 16 2 17 16
M  V30 17 1 18 17
M  V30 18 1 19 14
M  V30 19 2 19 18
M  V30 20 1 20 13
M  V30 21 1 21 20
M  V30 22 2 22 21
M  V30 23 1 23 22
M  V30 24 1 24 23
M  V30 25 2 25 23
M  V30 26 2 26 20
M  V30 27 1 26 25
M  V30 28 1 27 12
M  V30 29 1 28 9
M  V30 30 1 28 27
M  V30 31 1 29 4
M  V30 32 1 29 7
M  V30 33 1 30 1
M  V30 34 1 31 1
M  V30 35 1 4 32 CFG=1
M  V30 36 1 33 5
M  V30 37 1 34 5
M  V30 38 1 35 6
M  V30 39 1 36 6
M  V30 40 1 7 37 CFG=1
M  V30 41 1 38 8
M  V30 42 1 39 8
M  V30 43 1 40 10
M  V30 44 1 41 10
M  V30 45 1 42 11
M  V30 46 1 43 11
M  V30 47 1 44 15
M  V30 48 1 45 16
M  V30 49 1 46 17
M  V30 50 1 47 18
M  V30 51 1 48 19
M  V30 52 1 49 21
M  V30 53 1 50 22
M  V30 54 1 51 25
M  V30 55 1 52 26
M  V30 56 1 53 27
M  V30 57 1 54 27
M  V30 58 1 55 28
M  V30 59 1 56 28
M  V30 60 1 57 9
M  V30 END BOND
M  V30 END CTAB
M  END
>  <b_m_subgroup_collapsed>  (1270) 
0

>  <r_i_docking_score>  (1270) 
-7.29588521427966

>  <s_m_subgroup_title>  (1270) 
glide-dock_SP_D22_pv

>  <s_m_subgroupid>  (1270) 
glide-dock_SP_D22_pv

>  <Molecule ChEMBL ID>  (1270) 
CHEMBL282927

>  <Standard Type>  (1270) 
Ki

>  <Standard Value>  (1270) 
100.0

>  <label>  (1270) 
1

$$$$
CHEMBL1080389
     RDKit          3D

  0  0  0  0  0  0  0  0  0  0999 V3000
M  V30 BEGIN CTAB
M  V30 COUNTS 57 61 0 0 1
M  V30 BEGIN ATOM
M  V30 1 C 10.084980 4.650904 -17.525658 0
M  V30 2 C 10.786745 3.503973 -16.776310 0 CFG=1
M  V30 3 C 11.972724 3.982439 -15.902540 0
M  V30 4 N 11.496967 4.603844 -14.658361 0
M  V30 5 C 11.680397 5.927871 -14.400202 0
M  V30 6 O 12.209275 6.678991 -15.220394 0
M  V30 7 C 11.342134 6.506225 -13.047009 0
M  V30 8 C 12.273517 7.372060 -12.444149 0
M  V30 9 C 12.053012 7.890879 -11.158347 0
M  V30 10 C 10.889318 7.574507 -10.422678 0
M  V30 11 C 10.713184 8.038815 -9.022280 0
M  V30 12 C 9.417116 8.172069 -8.465472 0
M  V30 13 C 9.228143 8.572291 -7.130539 0
M  V30 14 C 10.334062 8.900036 -6.329707 0
M  V30 15 C 11.627234 8.785319 -6.857475 0
M  V30 16 C 11.817689 8.336251 -8.177862 0
M  V30 17 F 13.092156 8.172322 -8.600742 0
M  V30 18 C 9.904572 6.796109 -11.082458 0
M  V30 19 C 10.111821 6.291832 -12.382432 0
M  V30 20 C 10.714207 3.615181 -13.911464 0
M  V30 21 C 9.431153 3.363975 -14.722284 0
M  V30 22 N 9.803818 2.707755 -15.993378 0
M  V30 23 C 9.344033 1.516237 -16.472763 0
M  V30 24 O 9.839337 0.971604 -17.461771 0
M  V30 25 C 8.107362 0.875142 -15.895882 0
M  V30 26 C 7.995597 0.496914 -14.537310 0
M  V30 27 C 6.819204 -0.117900 -14.053510 0
M  V30 28 C 5.745123 -0.430569 -14.920478 0
M  V30 29 C 4.447171 -1.028023 -14.763888 0
M  V30 30 C 3.895688 -1.126124 -16.012148 0
M  V30 31 N 4.774469 -0.579926 -16.930641 0
M  V30 32 C 5.912935 -0.118277 -16.299700 0
M  V30 33 C 7.062212 0.532206 -16.780386 0
M  V30 34 H 10.791443 5.193292 -18.155331 0
M  V30 35 H 9.291834 4.273778 -18.172373 0
M  V30 36 H 9.639866 5.374150 -16.843134 0
M  V30 37 H 11.249082 2.890396 -17.551435 0
M  V30 38 H 12.627389 4.633962 -16.483730 0
M  V30 39 H 12.592242 3.122668 -15.644322 0
M  V30 40 H 13.194420 7.616522 -12.955366 0
M  V30 41 H 12.808996 8.550035 -10.760236 0
M  V30 42 H 8.533413 7.966153 -9.051970 0
M  V30 43 H 8.225469 8.637196 -6.732137 0
M  V30 44 H 10.193949 9.232451 -5.313040 0
M  V30 45 H 12.482523 9.019718 -6.241972 0
M  V30 46 H 8.974361 6.552150 -10.591931 0
M  V30 47 H 9.323261 5.719452 -12.846071 0
M  V30 48 H 11.278269 2.684771 -13.826475 0
M  V30 49 H 10.499061 3.886836 -12.881351 0
M  V30 50 H 8.728411 2.813057 -14.108441 0
M  V30 51 H 8.920762 4.304127 -14.933867 0
M  V30 52 H 8.814071 0.667629 -13.852104 0
M  V30 53 H 6.744782 -0.377269 -13.007848 0
M  V30 54 H 4.004254 -1.377454 -13.846768 0
M  V30 55 H 2.952178 -1.555423 -16.323284 0
M  V30 56 H 4.582222 -0.544603 -17.921188 0
M  V30 57 H 7.149201 0.751148 -17.834423 0
M  V30 END ATOM
M  V30 BEGIN BOND
M  V30 1 1 2 1
M  V30 2 1 3 2
M  V30 3 1 4 3
M  V30 4 1 5 4
M  V30 5 2 6 5
M  V30 6 1 7 5
M  V30 7 1 8 7
M  V30 8 2 9 8
M  V30 9 1 10 9
M  V30 10 1 11 10
M  V30 11 2 12 11
M  V30 12 1 13 12
M  V30 13 2 14 13
M  V30 14 1 15 14
M  V30 15 1 16 11
M  V30 16 2 16 15
M  V30 17 1 17 16
M  V30 18 2 18 10
M  V30 19 2 19 7
M  V30 20 1 19 18
M  V30 21 1 20 4
M  V30 22 1 21 20
M  V30 23 1 22 2
M  V30 24 1 22 21
M  V30 25 1 23 22
M  V30 26 2 24 23
M  V30 27 1 25 23
M  V30 28 2 26 25
M  V30 29 1 27 26
M  V30 30 2 28 27
M  V30 31 1 29 28
M  V30 32 2 30 29
M  V30 33 1 31 30
M  V30 34 1 32 28
M  V30 35 1 32 31
M  V30 36 1 33 25
M  V30 37 2 33 32
M  V30 38 1 34 1
M  V30 39 1 35 1
M  V30 40 1 36 1
M  V30 41 1 2 37 CFG=3
M  V30 42 1 38 3
M  V30 43 1 39 3
M  V30 44 1 40 8
M  V30 45 1 41 9
M  V30 46 1 42 12
M  V30 47 1 43 13
M  V30 48 1 44 14
M  V30 49 1 45 15
M  V30 50 1 46 18
M  V30 51 1 47 19
M  V30 52 1 48 20
M  V30 53 1 49 20
M  V30 54 1 50 21
M  V30 55 1 51 21
M  V30 56 1 52 26
M  V30 57 1 53 27
M  V30 58 1 54 29
M  V30 59 1 55 30
M  V30 60 1 56 31
M  V30 61 1 57 33
M  V30 END BOND
M  V30 END CTAB
M  END
>  <b_m_subgroup_collapsed>  (1271) 
0

>  <r_i_docking_score>  (1271) 
-7.2928553740486803

>  <s_m_subgroup_title>  (1271) 
glide-dock_SP_D22_pv

>  <s_m_subgroupid>  (1271) 
glide-dock_SP_D22_pv

>  <Molecule ChEMBL ID>  (1271) 
CHEMBL1080389

>  <Standard Type>  (1271) 
Ki

>  <Standard Value>  (1271) 
10000.0

>  <label>  (1271) 
0

$$$$
CHEMBL434
     RDKit          3D

  0  0  0  0  0  0  0  0  0  0999 V3000
M  V30 BEGIN CTAB
M  V30 COUNTS 33 33 0 0 1
M  V30 BEGIN ATOM
M  V30 1 C 9.286180 6.438819 -10.927764 0
M  V30 2 C 9.549905 6.168066 -9.438316 0
M  V30 3 C 9.126152 4.750793 -9.046545 0
M  V30 4 N 8.886155 7.169120 -8.562212 0 CHG=1
M  V30 5 C 9.427121 8.555063 -8.589575 0
M  V30 6 C 10.864193 8.748098 -8.021096 0 CFG=2
M  V30 7 O 11.857172 8.228638 -8.882700 0
M  V30 8 C 11.074471 8.328479 -6.571499 0
M  V30 9 C 11.024966 6.969059 -6.206111 0
M  V30 10 C 11.308135 6.572752 -4.888059 0
M  V30 11 C 11.686132 7.515982 -3.923854 0
M  V30 12 O 11.999935 7.119893 -2.653567 0
M  V30 13 C 11.724165 8.875267 -4.272723 0
M  V30 14 O 12.074270 9.772288 -3.315798 0
M  V30 15 C 11.413372 9.287054 -5.586470 0
M  V30 16 H 9.731998 5.661952 -11.548564 0
M  V30 17 H 8.216951 6.459610 -11.144549 0
M  V30 18 H 9.710577 7.389044 -11.252509 0
M  V30 19 H 10.623910 6.188648 -9.277040 0
M  V30 20 H 9.718872 4.007730 -9.581053 0
M  V30 21 H 9.268497 4.571147 -7.981845 0
M  V30 22 H 8.082382 4.564552 -9.280606 0
M  V30 23 H 8.926275 6.843719 -7.607410 0
M  V30 24 H 8.741687 9.162211 -7.996253 0
M  V30 25 H 9.362377 8.955375 -9.600960 0
M  V30 26 H 11.061982 9.812576 -8.043960 0
M  V30 27 H 11.943475 8.796405 -9.636960 0
M  V30 28 H 10.809910 6.203881 -6.934011 0
M  V30 29 H 11.272738 5.533464 -4.626445 0
M  V30 30 H 11.883780 6.190938 -2.514207 0
M  V30 31 H 12.263315 9.323632 -2.502655 0
M  V30 32 H 11.473329 10.335175 -5.840526 0
M  V30 33 H 7.902917 7.216395 -8.827728 0
M  V30 END ATOM
M  V30 BEGIN BOND
M  V30 1 1 2 1
M  V30 2 1 3 2
M  V30 3 1 4 2
M  V30 4 1 5 4
M  V30 5 1 6 5
M  V30 6 1 7 6
M  V30 7 1 8 6
M  V30 8 1 9 8
M  V30 9 2 10 9
M  V30 10 1 11 10
M  V30 11 1 12 11
M  V30 12 2 13 11
M  V30 13 1 14 13
M  V30 14 2 15 8
M  V30 15 1 15 13
M  V30 16 1 16 1
M  V30 17 1 17 1
M  V30 18 1 18 1
M  V30 19 1 19 2
M  V30 20 1 20 3
M  V30 21 1 21 3
M  V30 22 1 22 3
M  V30 23 1 23 4
M  V30 24 1 24 5
M  V30 25 1 25 5
M  V30 26 1 6 26 CFG=1
M  V30 27 1 27 7
M  V30 28 1 28 9
M  V30 29 1 29 10
M  V30 30 1 30 12
M  V30 31 1 31 14
M  V30 32 1 32 15
M  V30 33 1 33 4
M  V30 END BOND
M  V30 END CTAB
M  END
>  <b_m_subgroup_collapsed>  (1272) 
0

>  <r_i_docking_score>  (1272) 
-7.2928067694660399

>  <s_m_subgroup_title>  (1272) 
glide-dock_SP_D22_pv

>  <s_m_subgroupid>  (1272) 
glide-dock_SP_D22_pv

>  <Molecule ChEMBL ID>  (1272) 
CHEMBL434

>  <Standard Type>  (1272) 
Ki

>  <Standard Value>  (1272) 
12000.0

>  <label>  (1272) 
0

$$$$
CHEMBL596865
     RDKit          3D

  0  0  0  0  0  0  0  0  0  0999 V3000
M  V30 BEGIN CTAB
M  V30 COUNTS 50 53 0 0 1
M  V30 BEGIN ATOM
M  V30 1 C 11.611017 9.769866 -4.118589 0
M  V30 2 C 12.046282 8.974551 -5.107324 0
M  V30 3 C 12.146531 9.393289 -6.566428 0
M  V30 4 C 11.260530 8.591598 -7.518696 0
M  V30 5 C 9.944227 8.304738 -7.113971 0
M  V30 6 C 9.085346 7.602122 -7.962952 0
M  V30 7 C 9.504038 7.251929 -9.257923 0
M  V30 8 C 10.797488 7.559101 -9.727019 0
M  V30 9 C 11.701561 8.173179 -8.805017 0
M  V30 10 O 13.022923 8.320142 -9.121089 0
M  V30 11 C 11.101082 7.189984 -11.141887 0
M  V30 12 C 12.160395 7.771628 -11.882781 0
M  V30 13 C 12.485031 7.375600 -13.192616 0
M  V30 14 C 11.766249 6.362556 -13.836778 0
M  V30 15 C 10.688389 5.749962 -13.178823 0
M  V30 16 C 10.367111 6.192166 -11.862651 0
M  V30 17 C 9.227560 5.523758 -11.077287 0 CFG=1
M  V30 18 C 8.543739 6.547960 -10.182833 0
M  V30 19 N 8.257230 4.744639 -11.898798 0 CFG=1 CHG=1
M  V30 20 C 7.181682 5.537988 -12.575069 0
M  V30 21 C 6.120185 4.668905 -13.284322 0
M  V30 22 C 5.370249 3.739220 -12.321527 0
M  V30 23 C 9.011753 3.835308 -12.788176 0
M  V30 24 C 9.828075 4.651741 -13.792235 0
M  V30 25 H 11.285383 10.780938 -4.315903 0
M  V30 26 H 11.572280 9.421769 -3.095857 0
M  V30 27 H 12.353784 7.967014 -4.865108 0
M  V30 28 H 11.847919 10.438579 -6.643232 0
M  V30 29 H 13.195067 9.367087 -6.862193 0
M  V30 30 H 9.584017 8.609110 -6.143301 0
M  V30 31 H 8.086246 7.369990 -7.625502 0
M  V30 32 H 13.274631 9.203088 -9.379675 0
M  V30 33 H 12.750951 8.568995 -11.460026 0
M  V30 34 H 13.309413 7.852018 -13.706008 0
M  V30 35 H 12.040272 6.058216 -14.838077 0
M  V30 36 H 9.707964 4.799324 -10.417430 0
M  V30 37 H 7.703273 6.119083 -9.632555 0
M  V30 38 H 8.197572 7.310483 -10.877076 0
M  V30 39 H 6.635537 6.139947 -11.847288 0
M  V30 40 H 7.629834 6.244735 -13.275825 0
M  V30 41 H 5.383896 5.329244 -13.749178 0
M  V30 42 H 6.550871 4.098300 -14.108071 0
M  V30 43 H 4.573547 3.205684 -12.842685 0
M  V30 44 H 4.917435 4.315326 -11.512423 0
M  V30 45 H 6.033060 2.996760 -11.875813 0
M  V30 46 H 9.687094 3.224288 -12.184615 0
M  V30 47 H 8.359549 3.135048 -13.310511 0
M  V30 48 H 9.175402 5.104771 -14.538673 0
M  V30 49 H 10.484860 3.975068 -14.341735 0
M  V30 50 H 7.761325 4.160895 -11.237790 0
M  V30 END ATOM
M  V30 BEGIN BOND
M  V30 1 2 2 1
M  V30 2 1 3 2
M  V30 3 1 4 3
M  V30 4 1 5 4
M  V30 5 2 6 5
M  V30 6 1 7 6
M  V30 7 2 8 7
M  V30 8 2 9 4
M  V30 9 1 9 8
M  V30 10 1 10 9
M  V30 11 1 11 8
M  V30 12 2 12 11
M  V30 13 1 13 12
M  V30 14 2 14 13
M  V30 15 1 15 14
M  V30 16 1 16 11
M  V30 17 2 16 15
M  V30 18 1 17 16
M  V30 19 1 18 7
M  V30 20 1 18 17
M  V30 21 1 19 17
M  V30 22 1 20 19
M  V30 23 1 21 20
M  V30 24 1 22 21
M  V30 25 1 23 19
M  V30 26 1 24 15
M  V30 27 1 24 23
M  V30 28 1 25 1
M  V30 29 1 26 1
M  V30 30 1 27 2
M  V30 31 1 28 3
M  V30 32 1 29 3
M  V30 33 1 30 5
M  V30 34 1 31 6
M  V30 35 1 32 10
M  V30 36 1 33 12
M  V30 37 1 34 13
M  V30 38 1 35 14
M  V30 39 1 17 36 CFG=1
M  V30 40 1 37 18
M  V30 41 1 38 18
M  V30 42 1 39 20
M  V30 43 1 40 20
M  V30 44 1 41 21
M  V30 45 1 42 21
M  V30 46 1 43 22
M  V30 47 1 44 22
M  V30 48 1 45 22
M  V30 49 1 46 23
M  V30 50 1 47 23
M  V30 51 1 48 24
M  V30 52 1 49 24
M  V30 53 1 19 50 CFG=1
M  V30 END BOND
M  V30 END CTAB
M  END
>  <b_m_subgroup_collapsed>  (1273) 
0

>  <r_i_docking_score>  (1273) 
-7.2927988196352302

>  <s_m_subgroup_title>  (1273) 
glide-dock_SP_D22_pv

>  <s_m_subgroupid>  (1273) 
glide-dock_SP_D22_pv

>  <Molecule ChEMBL ID>  (1273) 
CHEMBL596865

>  <Standard Type>  (1273) 
Ki

>  <Standard Value>  (1273) 
10000.0

>  <label>  (1273) 
0

$$$$
CHEMBL514747
     RDKit          3D

  0  0  0  0  0  0  0  0  0  0999 V3000
M  V30 BEGIN CTAB
M  V30 COUNTS 44 48 0 0 1
M  V30 BEGIN ATOM
M  V30 1 Cl 12.397437 5.186651 -16.808041 0
M  V30 2 C 11.898918 5.714913 -15.244132 0
M  V30 3 C 10.884614 5.025363 -14.556099 0
M  V30 4 C 10.484900 5.457950 -13.277296 0
M  V30 5 C 11.095031 6.579609 -12.665479 0
M  V30 6 N 10.675625 6.972278 -11.380179 0
M  V30 7 C 11.320911 7.990718 -10.550858 0
M  V30 8 C 10.116173 8.573971 -9.777291 0 CFG=1
M  V30 9 C 9.090042 8.573541 -10.901339 0
M  V30 10 C 9.249617 7.071824 -11.092788 0 CFG=2
M  V30 11 C 9.021396 6.515927 -9.672567 0
M  V30 12 N 9.575799 7.578557 -8.796019 0 CFG=1 CHG=1
M  V30 13 C 10.485621 7.035850 -7.740792 0
M  V30 14 C 11.055346 8.036136 -6.761253 0
M  V30 15 C 11.563490 9.279143 -7.039918 0
M  V30 16 N 11.979689 9.897734 -5.878395 0
M  V30 17 C 11.852617 9.040437 -4.815482 0
M  V30 18 N 12.220778 9.291002 -3.528600 0
M  V30 19 C 12.118190 8.230303 -2.700769 0
M  V30 20 C 11.687656 6.951743 -3.107404 0
M  V30 21 C 11.285988 6.751226 -4.445069 0
M  V30 22 C 11.338771 7.827404 -5.358426 0
M  V30 23 C 12.126449 7.251062 -13.360229 0
M  V30 24 C 12.512673 6.830579 -14.647410 0
M  V30 25 H 10.414247 4.163869 -15.007030 0
M  V30 26 H 9.712303 4.906141 -12.761942 0
M  V30 27 H 12.087461 7.563123 -9.906168 0
M  V30 28 H 11.795411 8.776655 -11.131680 0
M  V30 29 H 10.251040 9.578775 -9.390537 0
M  V30 30 H 8.108209 8.960535 -10.602108 0
M  V30 31 H 9.395022 9.135184 -11.785737 0
M  V30 32 H 8.589025 6.650249 -11.850973 0
M  V30 33 H 7.971384 6.355052 -9.444571 0
M  V30 34 H 9.520341 5.552800 -9.546496 0
M  V30 35 H 9.909537 6.296422 -7.182059 0
M  V30 36 H 11.286729 6.467621 -8.204564 0
M  V30 37 H 11.685991 9.775253 -7.980883 0
M  V30 38 H 12.393178 10.817552 -5.846330 0
M  V30 39 H 12.407675 8.403812 -1.674617 0
M  V30 40 H 11.644302 6.137014 -2.397603 0
M  V30 41 H 10.939448 5.779367 -4.764240 0
M  V30 42 H 12.644951 8.092222 -12.928450 0
M  V30 43 H 13.300465 7.354069 -15.169242 0
M  V30 44 H 8.779512 8.002953 -8.338404 0
M  V30 END ATOM
M  V30 BEGIN BOND
M  V30 1 1 2 1
M  V30 2 1 3 2
M  V30 3 2 4 3
M  V30 4 1 5 4
M  V30 5 1 6 5
M  V30 6 1 7 6
M  V30 7 1 8 7
M  V30 8 1 9 8
M  V30 9 1 10 6
M  V30 10 1 10 9
M  V30 11 1 11 10
M  V30 12 1 12 8
M  V30 13 1 12 11
M  V30 14 1 13 12
M  V30 15 1 14 13
M  V30 16 2 15 14
M  V30 17 1 16 15
M  V30 18 1 17 16
M  V30 19 2 18 17
M  V30 20 1 19 18
M  V30 21 2 20 19
M  V30 22 1 21 20
M  V30 23 1 22 14
M  V30 24 1 22 17
M  V30 25 2 22 21
M  V30 26 2 23 5
M  V30 27 2 24 2
M  V30 28 1 24 23
M  V30 29 1 25 3
M  V30 30 1 26 4
M  V30 31 1 27 7
M  V30 32 1 28 7
M  V30 33 1 8 29 CFG=1
M  V30 34 1 30 9
M  V30 35 1 31 9
M  V30 36 1 10 32 CFG=3
M  V30 37 1 33 11
M  V30 38 1 34 11
M  V30 39 1 35 13
M  V30 40 1 36 13
M  V30 41 1 37 15
M  V30 42 1 38 16
M  V30 43 1 39 19
M  V30 44 1 40 20
M  V30 45 1 41 21
M  V30 46 1 42 23
M  V30 47 1 43 24
M  V30 48 1 12 44 CFG=1
M  V30 END BOND
M  V30 END CTAB
M  END
>  <b_m_subgroup_collapsed>  (1274) 
0

>  <r_i_docking_score>  (1274) 
-7.2922983319537904

>  <s_m_subgroup_title>  (1274) 
glide-dock_SP_D22_pv

>  <s_m_subgroupid>  (1274) 
glide-dock_SP_D22_pv

>  <Molecule ChEMBL ID>  (1274) 
CHEMBL514747

>  <Standard Type>  (1274) 
Ki

>  <Standard Value>  (1274) 
62.0

>  <label>  (1274) 
1

$$$$
CHEMBL5883189
     RDKit          3D

  0  0  0  0  0  0  0  0  0  0999 V3000
M  V30 BEGIN CTAB
M  V30 COUNTS 57 60 0 0 1
M  V30 BEGIN ATOM
M  V30 1 C 6.974012 0.547642 -17.807362 0
M  V30 2 N 8.322981 0.116844 -17.483543 0
M  V30 3 N 8.884215 -0.848214 -18.246532 0
M  V30 4 C 10.086989 -1.027391 -17.734781 0
M  V30 5 C 10.340865 -0.176931 -16.625267 0
M  V30 6 C 9.188380 0.548886 -16.485058 0
M  V30 7 C 8.853695 1.608475 -15.524055 0
M  V30 8 N 7.601739 1.860403 -15.120396 0
M  V30 9 N 7.679109 2.916977 -14.246766 0
M  V30 10 C 8.974279 3.226497 -14.179762 0
M  V30 11 S 9.654242 4.499172 -13.160017 0
M  V30 12 C 8.159123 5.474436 -12.816502 0
M  V30 13 C 8.505705 6.784522 -12.097040 0
M  V30 14 C 8.969900 6.581247 -10.649796 0
M  V30 15 N 9.811239 7.655976 -10.124680 0
M  V30 16 C 11.148746 7.617786 -10.712017 0
M  V30 17 C 12.085547 8.661017 -10.099017 0
M  V30 18 O 12.179748 8.433659 -8.701249 0
M  V30 19 C 10.922812 8.505189 -8.038295 0 CFG=2
M  V30 20 C 11.130411 8.275301 -6.551399 0
M  V30 21 C 11.530541 9.342368 -5.711895 0
M  V30 22 C 11.815978 9.107699 -4.349027 0
M  V30 23 C 11.703934 7.799767 -3.829854 0
M  V30 24 C 12.005467 7.436100 -2.395695 0
M  V30 25 F 12.482456 8.463909 -1.690076 0
M  V30 26 F 10.886056 6.972400 -1.846866 0
M  V30 27 F 12.886022 6.439925 -2.385333 0
M  V30 28 C 11.286116 6.756195 -4.662167 0
M  V30 29 C 11.002568 6.980019 -6.008170 0
M  V30 30 C 9.943832 7.494850 -8.687099 0
M  V30 31 N 9.748643 2.464345 -14.976821 0
M  V30 32 C 11.185863 2.553810 -15.180250 0
M  V30 33 H 6.282112 0.183510 -17.046652 0
M  V30 34 H 6.928607 1.636516 -17.842123 0
M  V30 35 H 6.665549 0.153526 -18.776680 0
M  V30 36 H 10.737068 -1.766742 -18.179081 0
M  V30 37 H 11.237731 -0.113704 -16.026384 0
M  V30 38 H 7.685981 5.701357 -13.770050 0
M  V30 39 H 7.450265 4.886853 -12.230954 0
M  V30 40 H 9.277061 7.306961 -12.646872 0
M  V30 41 H 7.649821 7.455445 -12.112899 0
M  V30 42 H 8.086063 6.460633 -10.024243 0
M  V30 43 H 9.505658 5.635735 -10.561992 0
M  V30 44 H 11.583253 6.634017 -10.550835 0
M  V30 45 H 11.114627 7.772710 -11.788534 0
M  V30 46 H 13.077929 8.572165 -10.542559 0
M  V30 47 H 11.715203 9.670731 -10.289692 0
M  V30 48 H 10.521559 9.510121 -8.165133 0
M  V30 49 H 11.644261 10.335798 -6.119396 0
M  V30 50 H 12.132932 9.920739 -3.712153 0
M  V30 51 H 11.185923 5.771666 -4.247924 0
M  V30 52 H 10.713611 6.124742 -6.594419 0
M  V30 53 H 8.963897 7.579653 -8.212929 0
M  V30 54 H 10.289528 6.477993 -8.515535 0
M  V30 55 H 11.685570 1.866355 -14.500664 0
M  V30 56 H 11.442135 2.304724 -16.209665 0
M  V30 57 H 11.542089 3.565141 -14.988093 0
M  V30 END ATOM
M  V30 BEGIN BOND
M  V30 1 1 2 1
M  V30 2 1 3 2
M  V30 3 2 4 3
M  V30 4 1 5 4
M  V30 5 1 6 2
M  V30 6 2 6 5
M  V30 7 1 7 6
M  V30 8 2 8 7
M  V30 9 1 9 8
M  V30 10 2 10 9
M  V30 11 1 11 10
M  V30 12 1 12 11
M  V30 13 1 13 12
M  V30 14 1 14 13
M  V30 15 1 15 14
M  V30 16 1 16 15
M  V30 17 1 17 16
M  V30 18 1 18 17
M  V30 19 1 19 18
M  V30 20 1 20 19
M  V30 21 1 21 20
M  V30 22 2 22 21
M  V30 23 1 23 22
M  V30 24 1 24 23
M  V30 25 1 25 24
M  V30 26 1 26 24
M  V30 27 1 27 24
M  V30 28 2 28 23
M  V30 29 2 29 20
M  V30 30 1 29 28
M  V30 31 1 30 15
M  V30 32 1 30 19
M  V30 33 1 31 7
M  V30 34 1 31 10
M  V30 35 1 32 31
M  V30 36 1 33 1
M  V30 37 1 34 1
M  V30 38 1 35 1
M  V30 39 1 36 4
M  V30 40 1 37 5
M  V30 41 1 38 12
M  V30 42 1 39 12
M  V30 43 1 40 13
M  V30 44 1 41 13
M  V30 45 1 42 14
M  V30 46 1 43 14
M  V30 47 1 44 16
M  V30 48 1 45 16
M  V30 49 1 46 17
M  V30 50 1 47 17
M  V30 51 1 19 48 CFG=1
M  V30 52 1 49 21
M  V30 53 1 50 22
M  V30 54 1 51 28
M  V30 55 1 52 29
M  V30 56 1 53 30
M  V30 57 1 54 30
M  V30 58 1 55 32
M  V30 59 1 56 32
M  V30 60 1 57 32
M  V30 END BOND
M  V30 END CTAB
M  END
>  <b_m_subgroup_collapsed>  (1275) 
0

>  <r_i_docking_score>  (1275) 
-7.2922261983873797

>  <s_m_subgroup_title>  (1275) 
glide-dock_SP_D22_pv

>  <s_m_subgroupid>  (1275) 
glide-dock_SP_D22_pv

>  <Molecule ChEMBL ID>  (1275) 
CHEMBL5883189

>  <Standard Type>  (1275) 
Ki

>  <Standard Value>  (1275) 
10000.0

>  <label>  (1275) 
0

$$$$
CHEMBL1201343
     RDKit          3D

  0  0  0  0  0  0  0  0  0  0999 V3000
M  V30 BEGIN CTAB
M  V30 COUNTS 35 36 0 0 1
M  V30 BEGIN ATOM
M  V30 1 C 12.196880 7.849856 -2.191443 0
M  V30 2 C 12.248112 8.024342 -3.710603 0
M  V30 3 C 11.571024 9.324905 -4.188614 0
M  V30 4 N 11.686014 9.555981 -5.651335 0 CHG=1
M  V30 5 C 11.295815 8.435418 -6.545597 0 CFG=1
M  V30 6 C 9.851793 7.948270 -6.334588 0
M  V30 7 C 9.585927 6.682038 -7.153736 0
M  V30 8 C 9.942057 6.832597 -8.639846 0 CFG=1
M  V30 9 N 8.886023 7.455167 -9.426618 0 CHG=1
M  V30 10 C 9.273995 8.104321 -10.526209 0
M  V30 11 N 8.486025 8.664683 -11.446866 0
M  V30 12 S 11.044689 8.172325 -10.646865 0
M  V30 13 C 11.234362 7.619799 -8.944131 0 CFG=1
M  V30 14 C 11.476433 8.823583 -8.017519 0
M  V30 15 H 12.706342 6.933955 -1.890484 0
M  V30 16 H 11.166829 7.772316 -1.846861 0
M  V30 17 H 12.669861 8.685381 -1.673545 0
M  V30 18 H 13.286022 8.008123 -4.037278 0
M  V30 19 H 11.771043 7.151286 -4.156041 0
M  V30 20 H 10.520968 9.346959 -3.899661 0
M  V30 21 H 12.029812 10.172324 -3.679523 0
M  V30 22 H 11.129824 10.365953 -5.885443 0
M  V30 23 H 11.968716 7.602558 -6.351658 0
M  V30 24 H 9.686039 7.682037 -5.297805 0
M  V30 25 H 9.131156 8.727172 -6.589709 0
M  V30 26 H 10.168379 5.858726 -6.739830 0
M  V30 27 H 8.539527 6.391053 -7.043622 0
M  V30 28 H 10.047828 5.831551 -9.060798 0
M  V30 29 H 7.480239 8.540915 -11.256540 0
M  V30 30 H 8.830878 9.116640 -12.279908 0
M  V30 31 H 12.086021 6.972327 -8.888629 0
M  V30 32 H 10.796212 9.635732 -8.273539 0
M  V30 33 H 12.487455 9.195673 -8.185987 0
M  V30 34 H 7.892261 7.294917 -9.254039 0
M  V30 35 H 12.654024 9.775305 -5.848757 0
M  V30 END ATOM
M  V30 BEGIN BOND
M  V30 1 1 2 1
M  V30 2 1 3 2
M  V30 3 1 4 3
M  V30 4 1 5 4
M  V30 5 1 6 5
M  V30 6 1 7 6
M  V30 7 1 8 7
M  V30 8 1 9 8
M  V30 9 2 10 9
M  V30 10 1 11 10
M  V30 11 1 12 10
M  V30 12 1 13 8
M  V30 13 1 13 12
M  V30 14 1 14 5
M  V30 15 1 14 13
M  V30 16 1 15 1
M  V30 17 1 16 1
M  V30 18 1 17 1
M  V30 19 1 18 2
M  V30 20 1 19 2
M  V30 21 1 20 3
M  V30 22 1 21 3
M  V30 23 1 22 4
M  V30 24 1 5 23 CFG=1
M  V30 25 1 24 6
M  V30 26 1 25 6
M  V30 27 1 26 7
M  V30 28 1 27 7
M  V30 29 1 8 28 CFG=3
M  V30 30 1 29 11
M  V30 31 1 30 11
M  V30 32 1 13 31 CFG=3
M  V30 33 1 32 14
M  V30 34 1 33 14
M  V30 35 1 34 9
M  V30 36 1 35 4
M  V30 END BOND
M  V30 END CTAB
M  END
>  <b_m_subgroup_collapsed>  (1276) 
0

>  <r_i_docking_score>  (1276) 
-7.2917543408704102

>  <s_m_subgroup_title>  (1276) 
glide-dock_SP_D22_pv

>  <s_m_subgroupid>  (1276) 
glide-dock_SP_D22_pv

>  <Molecule ChEMBL ID>  (1276) 
CHEMBL1201343

>  <Standard Type>  (1276) 
Ki

>  <Standard Value>  (1276) 
3.9

>  <label>  (1276) 
1

$$$$
CHEMBL3588921
     RDKit          3D

  0  0  0  0  0  0  0  0  0  0999 V3000
M  V30 BEGIN CTAB
M  V30 COUNTS 70 75 0 0 1
M  V30 BEGIN ATOM
M  V30 1 C 3.650183 -1.793586 -16.761003 0
M  V30 2 O 4.950151 -1.239159 -16.867182 0
M  V30 3 C 5.266902 -0.488946 -17.983673 0
M  V30 4 C 4.407284 -0.392780 -19.106960 0
M  V30 5 C 4.791587 0.335526 -20.246721 0
M  V30 6 C 6.039584 0.974722 -20.282398 0
M  V30 7 C 6.896307 0.903504 -19.167944 0
M  V30 8 C 6.520341 0.187129 -18.007952 0
M  V30 9 N 7.383745 0.173618 -16.892782 0
M  V30 10 C 8.835045 0.078818 -17.038496 0
M  V30 11 C 9.533278 1.236117 -16.298794 0
M  V30 12 N 9.024736 1.361472 -14.906561 0 CHG=1
M  V30 13 C 9.747481 2.347268 -14.066627 0
M  V30 14 C 9.757353 3.777939 -14.646908 0
M  V30 15 C 10.069067 4.845626 -13.594673 0
M  V30 16 C 8.859008 5.155932 -12.693730 0
M  V30 17 N 9.198575 6.118520 -11.669662 0
M  V30 18 C 9.449844 5.897669 -10.335967 0
M  V30 19 C 9.763467 7.141312 -9.856552 0
M  V30 20 C 10.169730 7.564075 -8.520382 0
M  V30 21 C 10.126839 8.934980 -8.170271 0
M  V30 22 C 10.556800 9.372361 -6.902138 0
M  V30 23 C 11.021408 8.417911 -5.994122 0
M  V30 24 C 11.055642 7.064218 -6.327533 0
M  V30 25 C 10.628279 6.608325 -7.583393 0
M  V30 26 C 11.612072 6.237284 -5.190004 0
M  V30 27 C 11.902369 7.307539 -4.173520 0
M  V30 28 C 12.390049 7.114992 -2.871552 0
M  V30 29 C 12.486168 8.244549 -2.037922 0
M  V30 30 C 12.086095 9.511765 -2.509416 0
M  V30 31 C 11.611414 9.695580 -3.821430 0
M  V30 32 C 11.528996 8.566882 -4.645958 0
M  V30 33 N 9.686512 8.045599 -10.918314 0
M  V30 34 N 9.326330 7.424622 -11.990930 0
M  V30 35 C 7.547852 1.522277 -14.853731 0
M  V30 36 C 6.847115 0.354065 -15.549501 0
M  V30 37 H 3.529845 -2.226798 -15.770530 0
M  V30 38 H 2.885092 -1.028153 -16.877922 0
M  V30 39 H 3.492928 -2.585516 -17.493753 0
M  V30 40 H 3.446156 -0.885406 -19.129053 0
M  V30 41 H 4.126713 0.395008 -21.094717 0
M  V30 42 H 6.339895 1.528536 -21.157959 0
M  V30 43 H 7.840945 1.425283 -19.210638 0
M  V30 44 H 9.157560 -0.873604 -16.616346 0
M  V30 45 H 9.141300 0.057316 -18.083475 0
M  V30 46 H 10.611996 1.073063 -16.289410 0
M  V30 47 H 9.355578 2.168081 -16.840189 0
M  V30 48 H 9.295869 2.340655 -13.075081 0
M  V30 49 H 10.774197 2.005265 -13.919799 0
M  V30 50 H 10.501402 3.832117 -15.443066 0
M  V30 51 H 8.805976 4.031510 -15.107713 0
M  V30 52 H 10.926088 4.537144 -12.993942 0
M  V30 53 H 10.374227 5.761317 -14.100976 0
M  V30 54 H 8.033430 5.556684 -13.282394 0
M  V30 55 H 8.485811 4.258232 -12.199870 0
M  V30 56 H 9.396828 4.928169 -9.862309 0
M  V30 57 H 9.763098 9.658899 -8.884949 0
M  V30 58 H 10.532368 10.420167 -6.637429 0
M  V30 59 H 10.674563 5.558889 -7.831226 0
M  V30 60 H 10.853762 5.614244 -4.741568 0
M  V30 61 H 12.484896 5.667699 -5.490755 0
M  V30 62 H 12.656226 6.128286 -2.515168 0
M  V30 63 H 12.850816 8.142090 -1.028269 0
M  V30 64 H 12.115993 10.357200 -1.849113 0
M  V30 65 H 11.286002 10.662271 -4.172160 0
M  V30 66 H 7.204790 1.583835 -13.823397 0
M  V30 67 H 7.254683 2.454310 -15.338394 0
M  V30 68 H 5.778580 0.568884 -15.569239 0
M  V30 69 H 6.978438 -0.570807 -14.984993 0
M  V30 70 H 9.201634 0.464650 -14.475120 0
M  V30 END ATOM
M  V30 BEGIN BOND
M  V30 1 1 2 1
M  V30 2 1 3 2
M  V30 3 2 4 3
M  V30 4 1 5 4
M  V30 5 2 6 5
M  V30 6 1 7 6
M  V30 7 1 8 3
M  V30 8 2 8 7
M  V30 9 1 9 8
M  V30 10 1 10 9
M  V30 11 1 11 10
M  V30 12 1 12 11
M  V30 13 1 13 12
M  V30 14 1 14 13
M  V30 15 1 15 14
M  V30 16 1 16 15
M  V30 17 1 17 16
M  V30 18 1 18 17
M  V30 19 2 19 18
M  V30 20 1 20 19
M  V30 21 2 21 20
M  V30 22 1 22 21
M  V30 23 2 23 22
M  V30 24 1 24 23
M  V30 25 1 25 20
M  V30 26 2 25 24
M  V30 27 1 26 24
M  V30 28 1 27 26
M  V30 29 2 28 27
M  V30 30 1 29 28
M  V30 31 2 30 29
M  V30 32 1 31 30
M  V30 33 1 32 23
M  V30 34 1 32 27
M  V30 35 2 32 31
M  V30 36 1 33 19
M  V30 37 1 34 17
M  V30 38 2 34 33
M  V30 39 1 35 12
M  V30 40 1 36 9
M  V30 41 1 36 35
M  V30 42 1 37 1
M  V30 43 1 38 1
M  V30 44 1 39 1
M  V30 45 1 40 4
M  V30 46 1 41 5
M  V30 47 1 42 6
M  V30 48 1 43 7
M  V30 49 1 44 10
M  V30 50 1 45 10
M  V30 51 1 46 11
M  V30 52 1 47 11
M  V30 53 1 48 13
M  V30 54 1 49 13
M  V30 55 1 50 14
M  V30 56 1 51 14
M  V30 57 1 52 15
M  V30 58 1 53 15
M  V30 59 1 54 16
M  V30 60 1 55 16
M  V30 61 1 56 18
M  V30 62 1 57 21
M  V30 63 1 58 22
M  V30 64 1 59 25
M  V30 65 1 60 26
M  V30 66 1 61 26
M  V30 67 1 62 28
M  V30 68 1 63 29
M  V30 69 1 64 30
M  V30 70 1 65 31
M  V30 71 1 66 35
M  V30 72 1 67 35
M  V30 73 1 68 36
M  V30 74 1 69 36
M  V30 75 1 70 12
M  V30 END BOND
M  V30 END CTAB
M  END
>  <b_m_subgroup_collapsed>  (1277) 
0

>  <r_i_docking_score>  (1277) 
-7.2916054073233099

>  <s_m_subgroup_title>  (1277) 
glide-dock_SP_D22_pv

>  <s_m_subgroupid>  (1277) 
glide-dock_SP_D22_pv

>  <Molecule ChEMBL ID>  (1277) 
CHEMBL3588921

>  <Standard Type>  (1277) 
Ki

>  <Standard Value>  (1277) 
50.1

>  <label>  (1277) 
1

$$$$
CHEMBL91310
     RDKit          3D

  0  0  0  0  0  0  0  0  0  0999 V3000
M  V30 BEGIN CTAB
M  V30 COUNTS 46 49 0 0 1
M  V30 BEGIN ATOM
M  V30 1 C 10.703535 1.867794 -14.606981 0
M  V30 2 C 10.264597 3.137858 -14.499714 0
M  V30 3 C 11.069817 4.210184 -15.108380 0
M  V30 4 C 11.695138 3.993186 -16.360779 0
M  V30 5 C 12.523777 4.971860 -16.938604 0
M  V30 6 C 12.741199 6.185709 -16.267311 0
M  V30 7 C 12.124433 6.412133 -15.024987 0
M  V30 8 C 11.289069 5.436094 -14.437739 0
M  V30 9 C 10.676293 5.787736 -13.152069 0
M  V30 10 C 9.493670 5.434004 -12.602660 0
M  V30 11 N 9.141163 5.937348 -11.335593 0
M  V30 12 C 8.288600 5.224396 -10.377235 0
M  V30 13 C 8.788114 5.337765 -8.935761 0
M  V30 14 N 8.886196 6.765188 -8.571677 0 CHG=1
M  V30 15 C 9.171610 6.977113 -7.137282 0
M  V30 16 C 9.824729 7.476181 -9.472357 0
M  V30 17 C 9.391864 7.331403 -10.943740 0
M  V30 18 C 8.509208 4.506656 -13.248349 0
M  V30 19 C 7.123886 4.750187 -13.047159 0
M  V30 20 C 6.138963 3.845089 -13.473232 0
M  V30 21 C 6.518252 2.701529 -14.186935 0
M  V30 22 C 7.867097 2.512816 -14.523476 0
M  V30 23 C 8.873958 3.407517 -14.080911 0
M  V30 24 H 10.116299 1.028866 -14.263716 0
M  V30 25 H 11.677431 1.643893 -15.015642 0
M  V30 26 H 11.543319 3.065365 -16.892635 0
M  V30 27 H 12.993012 4.789802 -17.894157 0
M  V30 28 H 13.375533 6.942934 -16.704369 0
M  V30 29 H 12.293676 7.352940 -14.521396 0
M  V30 30 H 11.334624 6.332160 -12.493680 0
M  V30 31 H 7.286121 5.646486 -10.431229 0
M  V30 32 H 8.209538 4.172533 -10.642855 0
M  V30 33 H 8.087167 4.832150 -8.269833 0
M  V30 34 H 9.756137 4.847444 -8.822733 0
M  V30 35 H 10.152741 6.583607 -6.866418 0
M  V30 36 H 9.142531 8.039387 -6.891457 0
M  V30 37 H 8.420989 6.477842 -6.523615 0
M  V30 38 H 9.862724 8.533539 -9.207740 0
M  V30 39 H 10.831320 7.076448 -9.338977 0
M  V30 40 H 10.138306 7.803782 -11.580255 0
M  V30 41 H 8.485873 7.905361 -11.113614 0
M  V30 42 H 6.795514 5.631571 -12.517201 0
M  V30 43 H 5.097813 4.030865 -13.253661 0
M  V30 44 H 5.780026 1.980387 -14.500088 0
M  V30 45 H 8.119644 1.657209 -15.132003 0
M  V30 46 H 7.958998 7.150849 -8.742867 0
M  V30 END ATOM
M  V30 BEGIN BOND
M  V30 1 2 2 1
M  V30 2 1 3 2
M  V30 3 2 4 3
M  V30 4 1 5 4
M  V30 5 2 6 5
M  V30 6 1 7 6
M  V30 7 1 8 3
M  V30 8 2 8 7
M  V30 9 1 9 8
M  V30 10 2 10 9
M  V30 11 1 11 10
M  V30 12 1 12 11
M  V30 13 1 13 12
M  V30 14 1 14 13
M  V30 15 1 15 14
M  V30 16 1 16 14
M  V30 17 1 17 11
M  V30 18 1 17 16
M  V30 19 1 18 10
M  V30 20 2 19 18
M  V30 21 1 20 19
M  V30 22 2 21 20
M  V30 23 1 22 21
M  V30 24 1 23 2
M  V30 25 1 23 18
M  V30 26 2 23 22
M  V30 27 1 24 1
M  V30 28 1 25 1
M  V30 29 1 26 4
M  V30 30 1 27 5
M  V30 31 1 28 6
M  V30 32 1 29 7
M  V30 33 1 30 9
M  V30 34 1 31 12
M  V30 35 1 32 12
M  V30 36 1 33 13
M  V30 37 1 34 13
M  V30 38 1 35 15
M  V30 39 1 36 15
M  V30 40 1 37 15
M  V30 41 1 38 16
M  V30 42 1 39 16
M  V30 43 1 40 17
M  V30 44 1 41 17
M  V30 45 1 42 19
M  V30 46 1 43 20
M  V30 47 1 44 21
M  V30 48 1 45 22
M  V30 49 1 46 14
M  V30 END BOND
M  V30 END CTAB
M  END
>  <b_m_subgroup_collapsed>  (1278) 
0

>  <r_i_docking_score>  (1278) 
-7.2910567225943499

>  <s_m_subgroup_title>  (1278) 
glide-dock_SP_D22_pv

>  <s_m_subgroupid>  (1278) 
glide-dock_SP_D22_pv

>  <Molecule ChEMBL ID>  (1278) 
CHEMBL91310

>  <Standard Type>  (1278) 
Ki

>  <Standard Value>  (1278) 
57.0

>  <label>  (1278) 
1

$$$$
CHEMBL80784
     RDKit          3D

  0  0  0  0  0  0  0  0  0  0999 V3000
M  V30 BEGIN CTAB
M  V30 COUNTS 53 55 0 0 1
M  V30 BEGIN ATOM
M  V30 1 C 9.904470 4.640395 -12.766140 0
M  V30 2 C 9.852058 3.494074 -13.646788 0
M  V30 3 C 10.678703 3.336614 -14.696152 0
M  V30 4 C 10.669662 2.208120 -15.643988 0
M  V30 5 C 9.703935 1.175936 -15.584908 0
M  V30 6 C 9.721253 0.125285 -16.520668 0
M  V30 7 C 10.712371 0.081082 -17.517618 0
M  V30 8 C 11.683113 1.097504 -17.579712 0
M  V30 9 C 11.660641 2.154676 -16.648518 0
M  V30 10 C 9.083156 4.739417 -11.702492 0
M  V30 11 O 9.018044 5.739568 -10.762523 0
M  V30 12 C 9.955865 6.809076 -10.805490 0
M  V30 13 C 10.307139 7.150766 -9.350962 0 CFG=1
M  V30 14 C 11.490995 8.126321 -9.263137 0
M  V30 15 C 11.830750 8.391967 -7.793562 0
M  V30 16 N 10.659107 8.974513 -7.095662 0 CFG=2 CHG=1
M  V30 17 C 10.965997 9.638286 -5.797853 0
M  V30 18 C 11.485792 8.811285 -4.621248 0
M  V30 19 C 11.828819 9.517423 -3.448455 0
M  V30 20 C 12.344225 8.860214 -2.317051 0
M  V30 21 C 12.482707 7.464706 -2.331452 0
M  V30 22 C 12.086149 6.742697 -3.467901 0
M  V30 23 C 11.614957 7.403311 -4.616191 0
M  V30 24 C 9.455416 8.099151 -7.126382 0
M  V30 25 C 9.102588 7.723933 -8.578093 0
M  V30 26 H 10.623356 5.410027 -12.998066 0
M  V30 27 H 9.108771 2.740621 -13.436068 0
M  V30 28 H 11.421025 4.100654 -14.882238 0
M  V30 29 H 8.927314 1.174235 -14.836549 0
M  V30 30 H 8.963575 -0.640652 -16.471886 0
M  V30 31 H 10.725996 -0.727335 -18.233744 0
M  V30 32 H 12.448114 1.066733 -18.341597 0
M  V30 33 H 12.414704 2.925955 -16.709299 0
M  V30 34 H 8.349698 3.979040 -11.477311 0
M  V30 35 H 10.885466 6.571811 -11.316062 0
M  V30 36 H 9.514238 7.664304 -11.318342 0
M  V30 37 H 10.608969 6.219875 -8.866808 0
M  V30 38 H 12.363072 7.709520 -9.768630 0
M  V30 39 H 11.255257 9.061573 -9.774553 0
M  V30 40 H 12.692747 9.056658 -7.723735 0
M  V30 41 H 12.106307 7.448750 -7.331188 0
M  V30 42 H 11.707309 10.413981 -5.998115 0
M  V30 43 H 10.086243 10.171804 -5.449750 0
M  V30 44 H 11.687528 10.583047 -3.404994 0
M  V30 45 H 12.614075 9.424532 -1.436236 0
M  V30 46 H 12.861650 6.940471 -1.467456 0
M  V30 47 H 12.179962 5.672012 -3.468570 0
M  V30 48 H 11.352713 6.789120 -5.459246 0
M  V30 49 H 8.607950 8.617041 -6.674373 0
M  V30 50 H 9.600916 7.190392 -6.546651 0
M  V30 51 H 8.713388 8.600224 -9.099066 0
M  V30 52 H 8.297237 6.988467 -8.571436 0
M  V30 53 H 10.392042 9.746428 -7.689188 0
M  V30 END ATOM
M  V30 BEGIN BOND
M  V30 1 1 2 1
M  V30 2 2 3 2
M  V30 3 1 4 3
M  V30 4 2 5 4
M  V30 5 1 6 5
M  V30 6 2 7 6
M  V30 7 1 8 7
M  V30 8 1 9 4
M  V30 9 2 9 8
M  V30 10 2 10 1
M  V30 11 1 11 10
M  V30 12 1 12 11
M  V30 13 1 13 12
M  V30 14 1 14 13
M  V30 15 1 15 14
M  V30 16 1 16 15
M  V30 17 1 17 16
M  V30 18 1 18 17
M  V30 19 2 19 18
M  V30 20 1 20 19
M  V30 21 2 21 20
M  V30 22 1 22 21
M  V30 23 1 23 18
M  V30 24 2 23 22
M  V30 25 1 24 16
M  V30 26 1 25 13
M  V30 27 1 25 24
M  V30 28 1 26 1
M  V30 29 1 27 2
M  V30 30 1 28 3
M  V30 31 1 29 5
M  V30 32 1 30 6
M  V30 33 1 31 7
M  V30 34 1 32 8
M  V30 35 1 33 9
M  V30 36 1 34 10
M  V30 37 1 35 12
M  V30 38 1 36 12
M  V30 39 1 13 37 CFG=1
M  V30 40 1 38 14
M  V30 41 1 39 14
M  V30 42 1 40 15
M  V30 43 1 41 15
M  V30 44 1 42 17
M  V30 45 1 43 17
M  V30 46 1 44 19
M  V30 47 1 45 20
M  V30 48 1 46 21
M  V30 49 1 47 22
M  V30 50 1 48 23
M  V30 51 1 49 24
M  V30 52 1 50 24
M  V30 53 1 51 25
M  V30 54 1 52 25
M  V30 55 1 16 53 CFG=3
M  V30 END BOND
M  V30 END CTAB
M  END
>  <b_m_subgroup_collapsed>  (1279) 
0

>  <r_i_docking_score>  (1279) 
-7.2900974902913296

>  <s_m_subgroup_title>  (1279) 
glide-dock_SP_D22_pv

>  <s_m_subgroupid>  (1279) 
glide-dock_SP_D22_pv

>  <Molecule ChEMBL ID>  (1279) 
CHEMBL80784

>  <Standard Type>  (1279) 
Ki

>  <Standard Value>  (1279) 
10000.0

>  <label>  (1279) 
0

$$$$
CHEMBL2207487
     RDKit          3D

  0  0  0  0  0  0  0  0  0  0999 V3000
M  V30 BEGIN CTAB
M  V30 COUNTS 40 42 0 0 1
M  V30 BEGIN ATOM
M  V30 1 C 12.025187 7.634340 -12.025831 0
M  V30 2 C 10.486022 7.701646 -11.909566 0
M  V30 3 C 9.960521 8.470008 -10.686476 0
M  V30 4 N 9.682103 7.606792 -9.517258 0 CFG=2 CHG=1
M  V30 5 C 9.009158 8.377570 -8.443940 0
M  V30 6 C 8.772908 7.524686 -7.186303 0
M  V30 7 C 10.056582 6.868096 -6.666783 0 CFG=2
M  V30 8 C 10.999700 7.869578 -6.062980 0
M  V30 9 C 11.503381 8.990147 -6.678896 0
M  V30 10 S 12.086021 10.172322 -5.595270 0
M  V30 11 C 12.065371 9.022706 -4.280993 0
M  V30 12 C 12.486022 9.213969 -2.957561 0
M  V30 13 C 12.486022 8.141719 -2.055400 0
M  V30 14 C 12.035309 6.882494 -2.482187 0
M  V30 15 C 11.546851 6.721862 -3.788864 0
M  V30 16 C 11.531509 7.778775 -4.721506 0
M  V30 17 C 10.661208 6.037168 -7.791352 0
M  V30 18 C 10.886023 6.863533 -9.061949 0
M  V30 19 H 12.326059 7.290261 -13.015964 0
M  V30 20 H 12.497606 8.594568 -11.846864 0
M  V30 21 H 12.486006 6.972325 -11.304096 0
M  V30 22 H 10.046568 6.705166 -11.973077 0
M  V30 23 H 10.098185 8.235062 -12.769984 0
M  V30 24 H 9.023901 8.956068 -10.967772 0
M  V30 25 H 10.650698 9.267907 -10.406675 0
M  V30 26 H 8.086022 8.761514 -8.836003 0
M  V30 27 H 9.521030 9.303843 -8.216936 0
M  V30 28 H 8.086022 6.719982 -7.436720 0
M  V30 29 H 8.289971 8.117377 -6.408505 0
M  V30 30 H 9.751374 6.172623 -5.885214 0
M  V30 31 H 11.456860 9.297398 -7.707910 0
M  V30 32 H 12.855572 10.172324 -2.646865 0
M  V30 33 H 12.842103 8.285025 -1.046865 0
M  V30 34 H 12.031977 6.038817 -1.808445 0
M  V30 35 H 11.147638 5.772324 -4.090650 0
M  V30 36 H 11.589454 5.581079 -7.446864 0
M  V30 37 H 9.984270 5.215357 -8.029380 0
M  V30 38 H 11.153593 6.172325 -9.846864 0
M  V30 39 H 11.736615 7.532618 -8.944284 0
M  V30 40 H 8.998572 6.922523 -9.815691 0
M  V30 END ATOM
M  V30 BEGIN BOND
M  V30 1 1 2 1
M  V30 2 1 3 2
M  V30 3 1 4 3
M  V30 4 1 5 4
M  V30 5 1 6 5
M  V30 6 1 7 6
M  V30 7 1 8 7
M  V30 8 2 9 8
M  V30 9 1 10 9
M  V30 10 1 11 10
M  V30 11 2 12 11
M  V30 12 1 13 12
M  V30 13 2 14 13
M  V30 14 1 15 14
M  V30 15 1 16 8
M  V30 16 1 16 11
M  V30 17 2 16 15
M  V30 18 1 17 7
M  V30 19 1 18 4
M  V30 20 1 18 17
M  V30 21 1 19 1
M  V30 22 1 20 1
M  V30 23 1 21 1
M  V30 24 1 22 2
M  V30 25 1 23 2
M  V30 26 1 24 3
M  V30 27 1 25 3
M  V30 28 1 26 5
M  V30 29 1 27 5
M  V30 30 1 28 6
M  V30 31 1 29 6
M  V30 32 1 7 30 CFG=1
M  V30 33 1 31 9
M  V30 34 1 32 12
M  V30 35 1 33 13
M  V30 36 1 34 14
M  V30 37 1 35 15
M  V30 38 1 36 17
M  V30 39 1 37 17
M  V30 40 1 38 18
M  V30 41 1 39 18
M  V30 42 1 4 40 CFG=3
M  V30 END BOND
M  V30 END CTAB
M  END
>  <b_m_subgroup_collapsed>  (1280) 
0

>  <r_i_docking_score>  (1280) 
-7.2894930083942899

>  <s_m_subgroup_title>  (1280) 
glide-dock_SP_D22_pv

>  <s_m_subgroupid>  (1280) 
glide-dock_SP_D22_pv

>  <Molecule ChEMBL ID>  (1280) 
CHEMBL2207487

>  <Standard Type>  (1280) 
Ki

>  <Standard Value>  (1280) 
26.0

>  <label>  (1280) 
1

$$$$
CHEMBL1257735
     RDKit          3D

  0  0  0  0  0  0  0  0  0  0999 V3000
M  V30 BEGIN CTAB
M  V30 COUNTS 63 67 0 0 1
M  V30 BEGIN ATOM
M  V30 1 O 12.351076 6.367536 -2.246896 0
M  V30 2 C 12.204609 7.469137 -2.763283 0
M  V30 3 N 12.490817 8.669017 -2.237538 0
M  V30 4 C 12.319765 9.772651 -3.188244 0
M  V30 5 C 11.735047 9.082979 -4.389287 0
M  V30 6 C 11.277412 9.610567 -5.606288 0
M  V30 7 C 10.716095 8.706649 -6.539454 0
M  V30 8 C 10.620711 7.311971 -6.244490 0
M  V30 9 O 10.013052 6.370246 -7.043825 0
M  V30 10 C 9.278783 6.796589 -8.172391 0
M  V30 11 C 10.208405 6.794528 -9.387547 0
M  V30 12 C 9.557964 7.510368 -10.568551 0
M  V30 13 C 10.076143 7.067370 -11.935968 0
M  V30 14 N 9.566813 5.726708 -12.341963 0 CHG=1
M  V30 15 C 10.450961 5.052746 -13.328891 0
M  V30 16 C 9.999325 3.601635 -13.539397 0
M  V30 17 N 8.603345 3.573762 -13.956252 0
M  V30 18 C 8.212830 2.594070 -14.894254 0
M  V30 19 C 8.919091 2.548720 -16.118290 0
M  V30 20 C 8.603014 1.603644 -17.108194 0
M  V30 21 C 7.579058 0.672954 -16.879873 0
M  V30 22 C 6.865707 0.693897 -15.667298 0
M  V30 23 C 7.158263 1.663994 -14.667903 0
M  V30 24 O 6.475921 1.680578 -13.463066 0
M  V30 25 C 5.286160 0.903488 -13.353685 0
M  V30 26 C 5.458351 -0.491215 -13.963048 0
M  V30 27 C 5.789598 -0.351597 -15.444091 0
M  V30 28 C 7.646130 4.296944 -13.121794 0
M  V30 29 C 8.150779 5.725653 -12.810019 0
M  V30 30 C 11.150526 6.820157 -5.034597 0
M  V30 31 C 11.686127 7.732889 -4.122401 0
M  V30 32 H 12.864366 8.806128 -1.311115 0
M  V30 33 H 13.293505 10.172286 -3.448144 0
M  V30 34 H 11.677117 10.562482 -2.798021 0
M  V30 35 H 11.332500 10.669831 -5.814119 0
M  V30 36 H 10.349125 9.109735 -7.470312 0
M  V30 37 H 8.780781 7.754391 -8.020694 0
M  V30 38 H 8.473480 6.079967 -8.336252 0
M  V30 39 H 10.445322 5.759479 -9.635517 0
M  V30 40 H 11.157118 7.277037 -9.152858 0
M  V30 41 H 9.712166 8.583644 -10.447819 0
M  V30 42 H 8.486137 7.369323 -10.530012 0
M  V30 43 H 11.167685 7.083241 -11.923592 0
M  V30 44 H 9.766875 7.828300 -12.646844 0
M  V30 45 H 11.493001 5.064288 -13.013703 0
M  V30 46 H 10.418587 5.594718 -14.276244 0
M  V30 47 H 10.086562 3.035690 -12.609684 0
M  V30 48 H 10.653437 3.107513 -14.258343 0
M  V30 49 H 9.709583 3.256279 -16.316666 0
M  V30 50 H 9.151813 1.588924 -18.037172 0
M  V30 51 H 7.345223 -0.063269 -17.635815 0
M  V30 52 H 4.462744 1.425346 -13.838019 0
M  V30 53 H 5.029536 0.820255 -12.297248 0
M  V30 54 H 4.558076 -1.092169 -13.846756 0
M  V30 55 H 6.265951 -1.012549 -13.448511 0
M  V30 56 H 4.899023 -0.048082 -15.996247 0
M  V30 57 H 6.101066 -1.315097 -15.850267 0
M  V30 58 H 6.675508 4.342807 -13.617262 0
M  V30 59 H 7.500371 3.760371 -12.184505 0
M  V30 60 H 7.487651 6.178701 -12.072571 0
M  V30 61 H 8.084174 6.337581 -13.710006 0
M  V30 62 H 11.088399 5.772743 -4.784960 0
M  V30 63 H 9.589140 5.150517 -11.513328 0
M  V30 END ATOM
M  V30 BEGIN BOND
M  V30 1 2 2 1
M  V30 2 1 3 2
M  V30 3 1 4 3
M  V30 4 1 5 4
M  V30 5 1 6 5
M  V30 6 2 7 6
M  V30 7 1 8 7
M  V30 8 1 9 8
M  V30 9 1 10 9
M  V30 10 1 11 10
M  V30 11 1 12 11
M  V30 12 1 13 12
M  V30 13 1 14 13
M  V30 14 1 15 14
M  V30 15 1 16 15
M  V30 16 1 17 16
M  V30 17 1 18 17
M  V30 18 2 19 18
M  V30 19 1 20 19
M  V30 20 2 21 20
M  V30 21 1 22 21
M  V30 22 1 23 18
M  V30 23 2 23 22
M  V30 24 1 24 23
M  V30 25 1 25 24
M  V30 26 1 26 25
M  V30 27 1 27 22
M  V30 28 1 27 26
M  V30 29 1 28 17
M  V30 30 1 29 14
M  V30 31 1 29 28
M  V30 32 2 30 8
M  V30 33 1 31 2
M  V30 34 2 31 5
M  V30 35 1 31 30
M  V30 36 1 32 3
M  V30 37 1 33 4
M  V30 38 1 34 4
M  V30 39 1 35 6
M  V30 40 1 36 7
M  V30 41 1 37 10
M  V30 42 1 38 10
M  V30 43 1 39 11
M  V30 44 1 40 11
M  V30 45 1 41 12
M  V30 46 1 42 12
M  V30 47 1 43 13
M  V30 48 1 44 13
M  V30 49 1 45 15
M  V30 50 1 46 15
M  V30 51 1 47 16
M  V30 52 1 48 16
M  V30 53 1 49 19
M  V30 54 1 50 20
M  V30 55 1 51 21
M  V30 56 1 52 25
M  V30 57 1 53 25
M  V30 58 1 54 26
M  V30 59 1 55 26
M  V30 60 1 56 27
M  V30 61 1 57 27
M  V30 62 1 58 28
M  V30 63 1 59 28
M  V30 64 1 60 29
M  V30 65 1 61 29
M  V30 66 1 62 30
M  V30 67 1 63 14
M  V30 END BOND
M  V30 END CTAB
M  END
>  <b_m_subgroup_collapsed>  (1281) 
0

>  <r_i_docking_score>  (1281) 
-7.2892785300156397

>  <s_m_subgroup_title>  (1281) 
glide-dock_SP_D22_pv

>  <s_m_subgroupid>  (1281) 
glide-dock_SP_D22_pv

>  <Molecule ChEMBL ID>  (1281) 
CHEMBL1257735

>  <Standard Type>  (1281) 
Ki

>  <Standard Value>  (1281) 
0.5754

>  <label>  (1281) 
1

$$$$
CHEMBL2062855
     RDKit          3D

  0  0  0  0  0  0  0  0  0  0999 V3000
M  V30 BEGIN CTAB
M  V30 COUNTS 52 55 0 0 1
M  V30 BEGIN ATOM
M  V30 1 C 8.426546 6.348815 -7.036028 0
M  V30 2 C 9.731835 6.695345 -7.695141 0 CFG=1
M  V30 3 C 9.510296 7.417885 -8.992888 0 CFG=1
M  V30 4 C 10.490645 8.565161 -9.056521 0 CFG=1
M  V30 5 C 11.396435 8.381840 -7.837372 0
M  V30 6 N 10.556215 7.612417 -6.877811 0 CFG=2 CHG=1
M  V30 7 C 11.276155 6.889357 -5.804763 0
M  V30 8 C 11.673615 7.686606 -4.576455 0
M  V30 9 C 11.521461 9.087572 -4.464405 0
M  V30 10 C 11.839304 9.725748 -3.250110 0
M  V30 11 C 12.338274 8.984453 -2.163080 0
M  V30 12 C 12.485377 7.595502 -2.273464 0
M  V30 13 C 12.136469 6.951579 -3.467344 0
M  V30 14 C 10.827545 8.146715 -10.504522 0 CFG=1
M  V30 15 C 12.278929 8.188432 -10.949197 0
M  V30 16 O 12.459593 7.522819 -12.183126 0
M  V30 17 C 10.131686 6.809353 -10.240825 0 CFG=2
M  V30 18 N 9.121517 6.399391 -11.245658 0 CHG=1
M  V30 19 C 9.699359 5.861319 -12.482467 0
M  V30 20 C 8.556512 5.131644 -13.194819 0
M  V30 21 C 7.532649 4.833191 -12.094289 0
M  V30 22 C 8.165176 5.369589 -10.805455 0
M  V30 23 H 7.782868 5.763210 -7.693730 0
M  V30 24 H 8.557819 5.778681 -6.126509 0
M  V30 25 H 7.885786 7.249433 -6.742857 0
M  V30 26 H 10.289499 5.772482 -7.867745 0
M  V30 27 H 8.497356 7.792553 -9.148029 0
M  V30 28 H 9.957975 9.515982 -9.037720 0
M  V30 29 H 12.288327 7.805431 -8.083993 0
M  V30 30 H 11.723952 9.333613 -7.419757 0
M  V30 31 H 10.598619 6.143468 -5.398966 0
M  V30 32 H 12.103013 6.316088 -6.213070 0
M  V30 33 H 11.133490 9.686436 -5.273230 0
M  V30 34 H 11.686097 10.787433 -3.135181 0
M  V30 35 H 12.588257 9.484529 -1.238616 0
M  V30 36 H 12.861915 7.015345 -1.446623 0
M  V30 37 H 12.231973 5.876794 -3.526299 0
M  V30 38 H 10.205041 8.736416 -11.180743 0
M  V30 39 H 12.952559 7.769533 -10.205676 0
M  V30 40 H 12.536922 9.238851 -11.054977 0
M  V30 41 H 13.370150 7.564660 -12.439388 0
M  V30 42 H 10.865567 6.042791 -10.001952 0
M  V30 43 H 10.149740 6.665715 -13.049129 0
M  V30 44 H 10.486037 5.144760 -12.244186 0
M  V30 45 H 8.110353 5.767565 -13.958507 0
M  V30 46 H 8.906725 4.222007 -13.681999 0
M  V30 47 H 6.602843 5.364857 -12.302217 0
M  V30 48 H 7.293278 3.772708 -12.017653 0
M  V30 49 H 8.698005 4.571690 -10.285930 0
M  V30 50 H 7.417507 5.772394 -10.126256 0
M  V30 51 H 8.559465 7.207195 -11.481173 0
M  V30 52 H 9.910857 8.259239 -6.445961 0
M  V30 END ATOM
M  V30 BEGIN BOND
M  V30 1 1 2 1
M  V30 2 1 3 2
M  V30 3 1 4 3
M  V30 4 1 5 4
M  V30 5 1 6 2
M  V30 6 1 6 5
M  V30 7 1 7 6
M  V30 8 1 8 7
M  V30 9 2 9 8
M  V30 10 1 10 9
M  V30 11 2 11 10
M  V30 12 1 12 11
M  V30 13 1 13 8
M  V30 14 2 13 12
M  V30 15 1 14 4
M  V30 16 1 15 14
M  V30 17 1 16 15
M  V30 18 1 17 3
M  V30 19 1 17 14
M  V30 20 1 18 17
M  V30 21 1 19 18
M  V30 22 1 20 19
M  V30 23 1 21 20
M  V30 24 1 22 18
M  V30 25 1 22 21
M  V30 26 1 23 1
M  V30 27 1 24 1
M  V30 28 1 25 1
M  V30 29 1 2 26 CFG=3
M  V30 30 1 3 27 CFG=3
M  V30 31 1 4 28 CFG=3
M  V30 32 1 29 5
M  V30 33 1 30 5
M  V30 34 1 31 7
M  V30 35 1 32 7
M  V30 36 1 33 9
M  V30 37 1 34 10
M  V30 38 1 35 11
M  V30 39 1 36 12
M  V30 40 1 37 13
M  V30 41 1 14 38 CFG=3
M  V30 42 1 39 15
M  V30 43 1 40 15
M  V30 44 1 41 16
M  V30 45 1 17 42 CFG=1
M  V30 46 1 43 19
M  V30 47 1 44 19
M  V30 48 1 45 20
M  V30 49 1 46 20
M  V30 50 1 47 21
M  V30 51 1 48 21
M  V30 52 1 49 22
M  V30 53 1 50 22
M  V30 54 1 51 18
M  V30 55 1 6 52 CFG=1
M  V30 END BOND
M  V30 END CTAB
M  END
>  <b_m_subgroup_collapsed>  (1282) 
0

>  <r_i_docking_score>  (1282) 
-7.2890178906445202

>  <s_m_subgroup_title>  (1282) 
glide-dock_SP_D22_pv

>  <s_m_subgroupid>  (1282) 
glide-dock_SP_D22_pv

>  <Molecule ChEMBL ID>  (1282) 
CHEMBL2062855

>  <Standard Type>  (1282) 
Ki

>  <Standard Value>  (1282) 
16000.0

>  <label>  (1282) 
0

$$$$
CHEMBL5288831
     RDKit          3D

  0  0  0  0  0  0  0  0  0  0999 V3000
M  V30 BEGIN CTAB
M  V30 COUNTS 67 71 0 0 1
M  V30 BEGIN ATOM
M  V30 1 C 9.870546 5.341464 -18.244558 0
M  V30 2 C 9.794746 3.911638 -17.679764 0 CFG=1
M  V30 3 C 9.595573 2.922162 -18.849503 0
M  V30 4 O 9.482959 1.582055 -18.376942 0
M  V30 5 C 10.569580 1.139128 -17.566628 0 CFG=1
M  V30 6 C 11.819036 0.765002 -18.365019 0
M  V30 7 C 12.769692 1.713000 -18.809572 0
M  V30 8 C 13.920426 1.263408 -19.484634 0
M  V30 9 C 14.079743 -0.119593 -19.684359 0
M  V30 10 N 15.220823 -0.627108 -20.292299 0
M  V30 11 N 13.176576 -1.027732 -19.279650 0
M  V30 12 C 12.071702 -0.588958 -18.646952 0
M  V30 13 C 10.813432 2.143051 -16.421570 0
M  V30 14 N 10.965368 3.523106 -16.877861 0
M  V30 15 C 11.299631 4.425059 -15.774529 0
M  V30 16 C 10.210095 4.573784 -14.726049 0
M  V30 17 C 10.280803 5.395416 -13.668712 0
M  V30 18 C 11.433046 6.318117 -13.332592 0
M  V30 19 C 10.958996 7.109246 -12.105697 0
M  V30 20 C 9.905796 6.215208 -11.439310 0 CFG=1
M  V30 21 C 8.919410 6.951364 -10.521104 0
M  V30 22 N 9.560475 7.437078 -9.305691 0
M  V30 23 C 9.834929 6.660438 -8.250649 0
M  V30 24 O 9.681422 5.438569 -8.250758 0
M  V30 25 C 10.379720 7.350666 -7.070573 0
M  V30 26 C 10.516380 8.672937 -6.723815 0
M  V30 27 C 11.087158 8.697325 -5.405436 0
M  V30 28 C 11.447577 9.713565 -4.492033 0
M  V30 29 C 11.992047 9.396393 -3.227568 0
M  V30 30 C 12.176429 8.055795 -2.841681 0
M  V30 31 C 11.822774 7.023756 -3.726719 0
M  V30 32 C 11.287082 7.349966 -4.983586 0
M  V30 33 N 10.851668 6.572371 -6.029667 0
M  V30 34 C 9.214282 5.512024 -12.610794 0
M  V30 35 H 9.016177 5.551563 -18.886103 0
M  V30 36 H 9.861423 6.089707 -17.454935 0
M  V30 37 H 10.775729 5.484543 -18.834761 0
M  V30 38 H 8.898254 3.851926 -17.060537 0
M  V30 39 H 10.415945 2.997892 -19.563635 0
M  V30 40 H 8.686129 3.163456 -19.399628 0
M  V30 41 H 10.225174 0.216486 -17.099136 0
M  V30 42 H 12.640045 2.770545 -18.637796 0
M  V30 43 H 14.667137 1.967213 -19.825211 0
M  V30 44 H 15.997124 -0.031386 -20.543158 0
M  V30 45 H 15.396992 -1.623756 -20.250261 0
M  V30 46 H 11.380601 -1.356809 -18.328085 0
M  V30 47 H 11.688837 1.831522 -15.847290 0
M  V30 48 H 9.967422 2.078229 -15.740070 0
M  V30 49 H 11.560440 5.411150 -16.157196 0
M  V30 50 H 12.195901 4.059920 -15.269121 0
M  V30 51 H 9.331370 3.957181 -14.833877 0
M  V30 52 H 12.309661 5.718916 -13.086683 0
M  V30 53 H 11.691516 6.970087 -14.168067 0
M  V30 54 H 11.776023 7.373303 -11.433895 0
M  V30 55 H 10.484856 8.034142 -12.432830 0
M  V30 56 H 10.433699 5.459906 -10.854635 0
M  V30 57 H 8.486050 7.800081 -11.047259 0
M  V30 58 H 8.098582 6.284341 -10.256748 0
M  V30 59 H 9.709834 8.430017 -9.222032 0
M  V30 60 H 10.232872 9.535070 -7.308932 0
M  V30 61 H 11.290722 10.746339 -4.763446 0
M  V30 62 H 12.258347 10.186362 -2.541368 0
M  V30 63 H 12.578650 7.824445 -1.866741 0
M  V30 64 H 11.948862 5.989873 -3.440438 0
M  V30 65 H 10.801985 5.560238 -6.053648 0
M  V30 66 H 8.402593 6.125067 -13.002327 0
M  V30 67 H 8.801894 4.541638 -12.330681 0
M  V30 END ATOM
M  V30 BEGIN BOND
M  V30 1 1 2 1
M  V30 2 1 3 2
M  V30 3 1 4 3
M  V30 4 1 5 4
M  V30 5 1 6 5
M  V30 6 1 7 6
M  V30 7 2 8 7
M  V30 8 1 9 8
M  V30 9 1 10 9
M  V30 10 2 11 9
M  V30 11 2 12 6
M  V30 12 1 12 11
M  V30 13 1 13 5
M  V30 14 1 14 2
M  V30 15 1 14 13
M  V30 16 1 15 14
M  V30 17 1 16 15
M  V30 18 2 17 16
M  V30 19 1 18 17
M  V30 20 1 19 18
M  V30 21 1 20 19
M  V30 22 1 21 20
M  V30 23 1 22 21
M  V30 24 1 23 22
M  V30 25 2 24 23
M  V30 26 1 25 23
M  V30 27 2 26 25
M  V30 28 1 27 26
M  V30 29 2 28 27
M  V30 30 1 29 28
M  V30 31 2 30 29
M  V30 32 1 31 30
M  V30 33 1 32 27
M  V30 34 2 32 31
M  V30 35 1 33 25
M  V30 36 1 33 32
M  V30 37 1 34 17
M  V30 38 1 34 20
M  V30 39 1 35 1
M  V30 40 1 36 1
M  V30 41 1 37 1
M  V30 42 1 2 38 CFG=1
M  V30 43 1 39 3
M  V30 44 1 40 3
M  V30 45 1 5 41 CFG=1
M  V30 46 1 42 7
M  V30 47 1 43 8
M  V30 48 1 44 10
M  V30 49 1 45 10
M  V30 50 1 46 12
M  V30 51 1 47 13
M  V30 52 1 48 13
M  V30 53 1 49 15
M  V30 54 1 50 15
M  V30 55 1 51 16
M  V30 56 1 52 18
M  V30 57 1 53 18
M  V30 58 1 54 19
M  V30 59 1 55 19
M  V30 60 1 20 56 CFG=1
M  V30 61 1 57 21
M  V30 62 1 58 21
M  V30 63 1 59 22
M  V30 64 1 60 26
M  V30 65 1 61 28
M  V30 66 1 62 29
M  V30 67 1 63 30
M  V30 68 1 64 31
M  V30 69 1 65 33
M  V30 70 1 66 34
M  V30 71 1 67 34
M  V30 END BOND
M  V30 END CTAB
M  END
>  <b_m_subgroup_collapsed>  (1283) 
0

>  <r_i_docking_score>  (1283) 
-7.2888835833510104

>  <s_m_subgroup_title>  (1283) 
glide-dock_SP_D22_pv

>  <s_m_subgroupid>  (1283) 
glide-dock_SP_D22_pv

>  <Molecule ChEMBL ID>  (1283) 
CHEMBL5288831

>  <Standard Type>  (1283) 
Ki

>  <Standard Value>  (1283) 
55.9

>  <label>  (1283) 
1

$$$$
CHEMBL109787
     RDKit          3D

  0  0  0  0  0  0  0  0  0  0999 V3000
M  V30 BEGIN CTAB
M  V30 COUNTS 66 70 0 0 1
M  V30 BEGIN ATOM
M  V30 1 C 5.404090 2.431064 -12.935336 0
M  V30 2 C 5.973754 3.822949 -13.241739 0
M  V30 3 C 7.179263 3.810218 -14.204306 0
M  V30 4 N 8.462654 3.359082 -13.603517 0 CFG=2 CHG=1
M  V30 5 C 8.952039 4.149606 -12.441166 0
M  V30 6 C 8.982616 5.672097 -12.661770 0
M  V30 7 C 9.512424 6.417239 -11.460528 0
M  V30 8 C 8.957729 6.192177 -10.182962 0
M  V30 9 C 9.429622 6.915493 -9.076935 0
M  V30 10 C 10.455273 7.867634 -9.244681 0
M  V30 11 N 10.912415 8.632245 -8.175528 0
M  V30 12 C 11.084073 8.231038 -6.847070 0
M  V30 13 C 11.286476 6.889196 -6.483162 0
M  V30 14 C 11.613753 6.572094 -5.157690 0
M  V30 15 C 11.686808 7.547975 -4.152812 0
M  V30 16 N 12.084139 7.164149 -2.785163 0 CHG=1
M  V30 17 O 11.690372 7.841012 -1.847487 0
M  V30 18 O 12.791147 6.172653 -2.646792 0 CHG=-1
M  V30 19 C 11.380032 8.861799 -4.495865 0
M  V30 20 N 11.286214 9.958661 -3.749454 0
M  V30 21 O 10.885995 10.946893 -4.650658 0
M  V30 22 N 10.886186 10.507015 -5.967630 0
M  V30 23 C 11.102091 9.201158 -5.858531 0
M  V30 24 C 11.005727 8.097546 -10.518447 0
M  V30 25 C 10.539599 7.368768 -11.625069 0
M  V30 26 C 9.520035 2.944008 -14.578554 0 CFG=2
M  V30 27 C 9.756662 3.927191 -15.739150 0
M  V30 28 C 10.998851 3.517222 -16.538908 0
M  V30 29 C 10.979773 2.052575 -16.960472 0
M  V30 30 C 11.798583 1.614750 -18.029453 0
M  V30 31 O 12.659934 2.469170 -18.655239 0
M  V30 32 C 11.735436 0.279774 -18.471090 0
M  V30 33 C 10.869635 -0.630848 -17.843670 0
M  V30 34 C 10.088685 -0.216148 -16.748838 0
M  V30 35 C 10.140261 1.119084 -16.296328 0
M  V30 36 C 9.249902 1.524134 -15.126672 0
M  V30 37 H 4.485963 2.515158 -12.357428 0
M  V30 38 H 5.167923 1.882752 -13.846803 0
M  V30 39 H 6.085990 1.821797 -12.349915 0
M  V30 40 H 6.194247 4.355392 -12.316618 0
M  V30 41 H 5.178922 4.400071 -13.716301 0
M  V30 42 H 7.334312 4.806790 -14.606109 0
M  V30 43 H 6.922797 3.170413 -15.046743 0
M  V30 44 H 8.298004 3.918132 -11.602640 0
M  V30 45 H 9.936071 3.795923 -12.131082 0
M  V30 46 H 9.602185 5.919606 -13.518405 0
M  V30 47 H 7.986501 6.067028 -12.861053 0
M  V30 48 H 8.137951 5.503518 -10.040532 0
M  V30 49 H 8.966994 6.763082 -8.111897 0
M  V30 50 H 11.166715 9.587155 -8.387433 0
M  V30 51 H 11.279020 6.105658 -7.226723 0
M  V30 52 H 11.842628 5.551938 -4.907733 0
M  V30 53 H 11.786018 8.833797 -10.648930 0
M  V30 54 H 10.965825 7.554259 -12.600672 0
M  V30 55 H 10.462490 2.868887 -14.032434 0
M  V30 56 H 9.883966 4.951043 -15.397273 0
M  V30 57 H 8.893487 3.926206 -16.405952 0
M  V30 58 H 11.897731 3.688093 -15.945079 0
M  V30 59 H 11.075610 4.156116 -17.419771 0
M  V30 60 H 12.682646 3.329706 -18.267574 0
M  V30 61 H 12.353333 -0.045879 -19.294796 0
M  V30 62 H 10.820093 -1.654165 -18.186117 0
M  V30 63 H 9.438604 -0.926988 -16.261135 0
M  V30 64 H 8.222023 1.429628 -15.476709 0
M  V30 65 H 9.367951 0.792469 -14.324792 0
M  V30 66 H 8.228917 2.476927 -13.170082 0
M  V30 END ATOM
M  V30 BEGIN BOND
M  V30 1 1 2 1
M  V30 2 1 3 2
M  V30 3 1 4 3
M  V30 4 1 5 4
M  V30 5 1 6 5
M  V30 6 1 7 6
M  V30 7 1 8 7
M  V30 8 2 9 8
M  V30 9 1 10 9
M  V30 10 1 11 10
M  V30 11 1 12 11
M  V30 12 2 13 12
M  V30 13 1 14 13
M  V30 14 2 15 14
M  V30 15 1 16 15
M  V30 16 2 17 16
M  V30 17 1 18 16
M  V30 18 1 19 15
M  V30 19 2 20 19
M  V30 20 1 21 20
M  V30 21 1 22 21
M  V30 22 1 23 12
M  V30 23 1 23 19
M  V30 24 2 23 22
M  V30 25 2 24 10
M  V30 26 2 25 7
M  V30 27 1 25 24
M  V30 28 1 26 4
M  V30 29 1 27 26
M  V30 30 1 28 27
M  V30 31 1 29 28
M  V30 32 2 30 29
M  V30 33 1 31 30
M  V30 34 1 32 30
M  V30 35 2 33 32
M  V30 36 1 34 33
M  V30 37 1 35 29
M  V30 38 2 35 34
M  V30 39 1 36 26
M  V30 40 1 36 35
M  V30 41 1 37 1
M  V30 42 1 38 1
M  V30 43 1 39 1
M  V30 44 1 40 2
M  V30 45 1 41 2
M  V30 46 1 42 3
M  V30 47 1 43 3
M  V30 48 1 44 5
M  V30 49 1 45 5
M  V30 50 1 46 6
M  V30 51 1 47 6
M  V30 52 1 48 8
M  V30 53 1 49 9
M  V30 54 1 50 11
M  V30 55 1 51 13
M  V30 56 1 52 14
M  V30 57 1 53 24
M  V30 58 1 54 25
M  V30 59 1 26 55 CFG=1
M  V30 60 1 56 27
M  V30 61 1 57 27
M  V30 62 1 58 28
M  V30 63 1 59 28
M  V30 64 1 60 31
M  V30 65 1 61 32
M  V30 66 1 62 33
M  V30 67 1 63 34
M  V30 68 1 64 36
M  V30 69 1 65 36
M  V30 70 1 4 66 CFG=1
M  V30 END BOND
M  V30 END CTAB
M  END
>  <b_m_subgroup_collapsed>  (1284) 
0

>  <r_i_docking_score>  (1284) 
-7.2882111554546203

>  <s_m_subgroup_title>  (1284) 
glide-dock_SP_D22_pv

>  <s_m_subgroupid>  (1284) 
glide-dock_SP_D22_pv

>  <Molecule ChEMBL ID>  (1284) 
CHEMBL109787

>  <Standard Type>  (1284) 
Ki

>  <Standard Value>  (1284) 
0.45

>  <label>  (1284) 
1

$$$$
CHEMBL1081489
     RDKit          3D

  0  0  0  0  0  0  0  0  0  0999 V3000
M  V30 BEGIN CTAB
M  V30 COUNTS 47 49 0 0 1
M  V30 BEGIN ATOM
M  V30 1 O 9.299363 6.572247 -6.797824 0
M  V30 2 C 9.992908 7.424429 -7.350277 0
M  V30 3 N 9.923626 7.741676 -8.650541 0
M  V30 4 C 8.919564 7.248855 -9.589438 0
M  V30 5 C 9.526381 6.290898 -10.625385 0
M  V30 6 N 8.518978 5.614163 -11.488635 0 CHG=1
M  V30 7 C 7.738085 6.508571 -12.384727 0
M  V30 8 C 6.251439 6.097056 -12.411730 0
M  V30 9 C 5.923175 4.804616 -13.176681 0
M  V30 10 C 6.778871 3.591314 -12.803407 0
M  V30 11 C 8.242809 3.769129 -13.234347 0
M  V30 12 C 9.139653 4.458788 -12.193042 0
M  V30 13 C 10.813642 8.823208 -9.020561 0
M  V30 14 C 11.500276 9.149110 -7.700368 0
M  V30 15 N 10.925893 8.195066 -6.759923 0
M  V30 16 C 11.292484 8.179887 -5.378250 0
M  V30 17 C 11.686809 9.376569 -4.735277 0
M  V30 18 C 12.080445 9.371954 -3.383348 0
M  V30 19 C 12.093310 8.167669 -2.656895 0
M  V30 20 C 11.722833 6.966432 -3.288158 0
M  V30 21 C 11.325528 6.972542 -4.640696 0
M  V30 22 H 8.111368 6.747290 -9.049144 0
M  V30 23 H 8.490712 8.124962 -10.070249 0
M  V30 24 H 10.248914 6.817791 -11.249260 0
M  V30 25 H 10.086167 5.526797 -10.083648 0
M  V30 26 H 7.788378 7.539339 -12.039603 0
M  V30 27 H 8.158162 6.531727 -13.390666 0
M  V30 28 H 5.876378 5.999068 -11.395785 0
M  V30 29 H 5.677143 6.912487 -12.852812 0
M  V30 30 H 4.881463 4.551683 -12.996746 0
M  V30 31 H 5.994643 4.972304 -14.246855 0
M  V30 32 H 6.692568 3.373072 -11.738142 0
M  V30 33 H 6.367426 2.721694 -13.317678 0
M  V30 34 H 8.673611 2.788663 -13.448279 0
M  V30 35 H 8.284924 4.301062 -14.185665 0
M  V30 36 H 10.055272 4.781792 -12.689312 0
M  V30 37 H 9.445426 3.730544 -11.444578 0
M  V30 38 H 11.530279 8.492340 -9.774347 0
M  V30 39 H 10.260724 9.677507 -9.414548 0
M  V30 40 H 11.286162 10.173423 -7.404872 0
M  V30 41 H 12.582180 9.016241 -7.761931 0
M  V30 42 H 11.683205 10.318018 -5.262639 0
M  V30 43 H 12.365745 10.291986 -2.896279 0
M  V30 44 H 12.386183 8.166842 -1.618261 0
M  V30 45 H 11.738551 6.039023 -2.734949 0
M  V30 46 H 11.059815 6.030800 -5.099113 0
M  V30 47 H 7.833188 5.234404 -10.848833 0
M  V30 END ATOM
M  V30 BEGIN BOND
M  V30 1 2 2 1
M  V30 2 1 3 2
M  V30 3 1 4 3
M  V30 4 1 5 4
M  V30 5 1 6 5
M  V30 6 1 7 6
M  V30 7 1 8 7
M  V30 8 1 9 8
M  V30 9 1 10 9
M  V30 10 1 11 10
M  V30 11 1 12 6
M  V30 12 1 12 11
M  V30 13 1 13 3
M  V30 14 1 14 13
M  V30 15 1 15 2
M  V30 16 1 15 14
M  V30 17 1 16 15
M  V30 18 2 17 16
M  V30 19 1 18 17
M  V30 20 2 19 18
M  V30 21 1 20 19
M  V30 22 1 21 16
M  V30 23 2 21 20
M  V30 24 1 22 4
M  V30 25 1 23 4
M  V30 26 1 24 5
M  V30 27 1 25 5
M  V30 28 1 26 7
M  V30 29 1 27 7
M  V30 30 1 28 8
M  V30 31 1 29 8
M  V30 32 1 30 9
M  V30 33 1 31 9
M  V30 34 1 32 10
M  V30 35 1 33 10
M  V30 36 1 34 11
M  V30 37 1 35 11
M  V30 38 1 36 12
M  V30 39 1 37 12
M  V30 40 1 38 13
M  V30 41 1 39 13
M  V30 42 1 40 14
M  V30 43 1 41 14
M  V30 44 1 42 17
M  V30 45 1 43 18
M  V30 46 1 44 19
M  V30 47 1 45 20
M  V30 48 1 46 21
M  V30 49 1 47 6
M  V30 END BOND
M  V30 END CTAB
M  END
>  <b_m_subgroup_collapsed>  (1285) 
0

>  <r_i_docking_score>  (1285) 
-7.28683077155166

>  <s_m_subgroup_title>  (1285) 
glide-dock_SP_D22_pv

>  <s_m_subgroupid>  (1285) 
glide-dock_SP_D22_pv

>  <Molecule ChEMBL ID>  (1285) 
CHEMBL1081489

>  <Standard Type>  (1285) 
Ki

>  <Standard Value>  (1285) 
7.943

>  <label>  (1285) 
1

$$$$
CHEMBL103772
     RDKit          3D

  0  0  0  0  0  0  0  0  0  0999 V3000
M  V30 BEGIN CTAB
M  V30 COUNTS 44 47 0 0 1
M  V30 BEGIN ATOM
M  V30 1 C 6.086211 2.258740 -13.846860 0
M  V30 2 C 7.416937 2.299880 -14.297297 0
M  V30 3 C 8.274760 3.324847 -13.854991 0
M  V30 4 C 7.811076 4.314552 -12.958505 0
M  V30 5 C 8.732989 5.337695 -12.471808 0
M  V30 6 N 8.486055 6.215064 -11.485748 0
M  V30 7 C 9.605482 7.007091 -11.309386 0
M  V30 8 C 9.687622 8.118409 -10.323747 0
M  V30 9 N 10.550565 7.840595 -9.175823 0
M  V30 10 C 10.772241 9.108996 -8.491749 0
M  V30 11 C 11.695837 8.938837 -7.281020 0
M  V30 12 N 11.119454 7.999583 -6.323661 0
M  V30 13 C 11.505754 8.063678 -4.985384 0
M  V30 14 N 11.685966 6.911504 -4.334428 0
M  V30 15 C 12.086333 6.973013 -3.050479 0
M  V30 16 C 12.311307 8.200451 -2.406199 0
M  V30 17 C 12.085170 9.352054 -3.176681 0
M  V30 18 N 11.684862 9.279741 -4.460942 0
M  V30 19 C 10.750142 6.732719 -6.962622 0
M  V30 20 C 9.875487 6.953163 -8.222390 0
M  V30 21 C 10.508596 6.571993 -12.246168 0
M  V30 22 N 9.960480 5.512866 -12.962297 0
M  V30 23 C 6.466191 4.279831 -12.527598 0
M  V30 24 C 5.607241 3.255523 -12.974628 0
M  V30 25 H 5.430527 1.467593 -14.178895 0
M  V30 26 H 7.784918 1.539495 -14.971555 0
M  V30 27 H 9.300135 3.331253 -14.198106 0
M  V30 28 H 8.690665 8.412665 -9.992796 0
M  V30 29 H 10.090178 8.973671 -10.863047 0
M  V30 30 H 9.818449 9.533040 -8.174820 0
M  V30 31 H 11.232390 9.815753 -9.181242 0
M  V30 32 H 11.859529 9.918592 -6.833167 0
M  V30 33 H 12.673911 8.575787 -7.601021 0
M  V30 34 H 12.226092 6.035601 -2.534158 0
M  V30 35 H 12.625591 8.263375 -1.376831 0
M  V30 36 H 12.213638 10.337631 -2.754986 0
M  V30 37 H 11.654459 6.179972 -7.221111 0
M  V30 38 H 10.188024 6.121997 -6.256110 0
M  V30 39 H 8.909981 7.371283 -7.933800 0
M  V30 40 H 9.670987 5.992949 -8.696959 0
M  V30 41 H 11.504332 6.935112 -12.454903 0
M  V30 42 H 6.084980 5.026747 -11.845074 0
M  V30 43 H 4.579774 3.231737 -12.647039 0
M  V30 44 H 7.610927 6.339064 -10.984865 0
M  V30 END ATOM
M  V30 BEGIN BOND
M  V30 1 2 2 1
M  V30 2 1 3 2
M  V30 3 2 4 3
M  V30 4 1 5 4
M  V30 5 1 6 5
M  V30 6 1 7 6
M  V30 7 1 8 7
M  V30 8 1 9 8
M  V30 9 1 10 9
M  V30 10 1 11 10
M  V30 11 1 12 11
M  V30 12 1 13 12
M  V30 13 2 14 13
M  V30 14 1 15 14
M  V30 15 2 16 15
M  V30 16 1 17 16
M  V30 17 1 18 13
M  V30 18 2 18 17
M  V30 19 1 19 12
M  V30 20 1 20 9
M  V30 21 1 20 19
M  V30 22 2 21 7
M  V30 23 2 22 5
M  V30 24 1 22 21
M  V30 25 1 23 4
M  V30 26 1 24 1
M  V30 27 2 24 23
M  V30 28 1 25 1
M  V30 29 1 26 2
M  V30 30 1 27 3
M  V30 31 1 28 8
M  V30 32 1 29 8
M  V30 33 1 30 10
M  V30 34 1 31 10
M  V30 35 1 32 11
M  V30 36 1 33 11
M  V30 37 1 34 15
M  V30 38 1 35 16
M  V30 39 1 36 17
M  V30 40 1 37 19
M  V30 41 1 38 19
M  V30 42 1 39 20
M  V30 43 1 40 20
M  V30 44 1 41 21
M  V30 45 1 42 23
M  V30 46 1 43 24
M  V30 47 1 44 6
M  V30 END BOND
M  V30 END CTAB
M  END
>  <b_m_subgroup_collapsed>  (1286) 
0

>  <r_i_docking_score>  (1286) 
-7.2862845313887501

>  <s_m_subgroup_title>  (1286) 
glide-dock_SP_D22_pv

>  <s_m_subgroupid>  (1286) 
glide-dock_SP_D22_pv

>  <Molecule ChEMBL ID>  (1286) 
CHEMBL103772

>  <Standard Type>  (1286) 
Ki

>  <Standard Value>  (1286) 
36.1

>  <label>  (1286) 
1

$$$$
CHEMBL336851
     RDKit          3D

  0  0  0  0  0  0  0  0  0  0999 V3000
M  V30 BEGIN CTAB
M  V30 COUNTS 41 42 0 0 1
M  V30 BEGIN ATOM
M  V30 1 C 8.355708 5.065159 -8.860880 0
M  V30 2 C 9.764323 5.600145 -9.071124 0
M  V30 3 C 9.792563 7.133813 -9.044527 0
M  V30 4 N 11.178892 7.585260 -8.897366 0
M  V30 5 C 11.570393 8.476878 -9.989157 0
M  V30 6 C 11.865799 7.693967 -11.248866 0
M  V30 7 C 10.991367 7.372593 -12.210957 0
M  V30 8 I 11.686268 6.170034 -13.856990 0
M  V30 9 C 11.529283 8.089952 -7.559890 0 CFG=1
M  V30 10 C 10.982128 9.488319 -7.254168 0
M  V30 11 C 11.510155 10.056055 -5.928010 0
M  V30 12 C 11.675704 9.028784 -4.820369 0
M  V30 13 C 12.075303 9.462873 -3.543853 0
M  V30 14 C 12.352945 8.535262 -2.530193 0
M  V30 15 O 12.885689 8.972068 -1.362114 0
M  V30 16 C 12.123807 7.166132 -2.738277 0
M  V30 17 C 11.685599 6.731540 -3.999087 0
M  V30 18 C 11.504141 7.644194 -5.051987 0
M  V30 19 C 11.164620 7.106104 -6.428388 0
M  V30 20 H 8.334850 3.976977 -8.888238 0
M  V30 21 H 7.954968 5.383485 -7.898186 0
M  V30 22 H 7.691113 5.438870 -9.639586 0
M  V30 23 H 10.139894 5.243902 -10.028666 0
M  V30 24 H 10.415177 5.181077 -8.306721 0
M  V30 25 H 9.162598 7.523932 -8.244955 0
M  V30 26 H 9.336804 7.508121 -9.960787 0
M  V30 27 H 10.803024 9.230917 -10.173344 0
M  V30 28 H 12.486115 9.003898 -9.727796 0
M  V30 29 H 12.885789 7.371739 -11.353414 0
M  V30 30 H 9.948150 7.654165 -12.217245 0
M  V30 31 H 12.614637 8.183298 -7.565655 0
M  V30 32 H 9.892192 9.454732 -7.233113 0
M  V30 33 H 11.285723 10.171906 -8.041249 0
M  V30 34 H 10.866592 10.867446 -5.585581 0
M  V30 35 H 12.492039 10.496701 -6.102349 0
M  V30 36 H 12.192975 10.513041 -3.336055 0
M  V30 37 H 13.171838 9.879643 -1.402805 0
M  V30 38 H 12.314179 6.448507 -1.953345 0
M  V30 39 H 11.530788 5.685715 -4.181036 0
M  V30 40 H 11.690909 6.163023 -6.580885 0
M  V30 41 H 10.100335 6.875303 -6.410928 0
M  V30 END ATOM
M  V30 BEGIN BOND
M  V30 1 1 2 1
M  V30 2 1 3 2
M  V30 3 1 4 3
M  V30 4 1 5 4
M  V30 5 1 6 5
M  V30 6 2 7 6
M  V30 7 1 8 7
M  V30 8 1 9 4
M  V30 9 1 10 9
M  V30 10 1 11 10
M  V30 11 1 12 11
M  V30 12 1 13 12
M  V30 13 2 14 13
M  V30 14 1 15 14
M  V30 15 1 16 14
M  V30 16 2 17 16
M  V30 17 2 18 12
M  V30 18 1 18 17
M  V30 19 1 19 9
M  V30 20 1 19 18
M  V30 21 1 20 1
M  V30 22 1 21 1
M  V30 23 1 22 1
M  V30 24 1 23 2
M  V30 25 1 24 2
M  V30 26 1 25 3
M  V30 27 1 26 3
M  V30 28 1 27 5
M  V30 29 1 28 5
M  V30 30 1 29 6
M  V30 31 1 30 7
M  V30 32 1 9 31 CFG=3
M  V30 33 1 32 10
M  V30 34 1 33 10
M  V30 35 1 34 11
M  V30 36 1 35 11
M  V30 37 1 36 13
M  V30 38 1 37 15
M  V30 39 1 38 16
M  V30 40 1 39 17
M  V30 41 1 40 19
M  V30 42 1 41 19
M  V30 END BOND
M  V30 END CTAB
M  END
>  <b_m_subgroup_collapsed>  (1287) 
0

>  <r_i_docking_score>  (1287) 
-7.2846282674797802

>  <s_m_subgroup_title>  (1287) 
glide-dock_SP_D22_pv

>  <s_m_subgroupid>  (1287) 
glide-dock_SP_D22_pv

>  <Molecule ChEMBL ID>  (1287) 
CHEMBL336851

>  <Standard Type>  (1287) 
Ki

>  <Standard Value>  (1287) 
9.7

>  <label>  (1287) 
1

$$$$
CHEMBL5722986
     RDKit          3D

  0  0  0  0  0  0  0  0  0  0999 V3000
M  V30 BEGIN CTAB
M  V30 COUNTS 43 46 0 0 1
M  V30 BEGIN ATOM
M  V30 1 O 11.285682 10.933260 -5.568942 0
M  V30 2 C 11.285704 9.708806 -5.649516 0
M  V30 3 C 10.884528 9.026258 -6.895997 0
M  V30 4 C 10.846521 7.681223 -6.968404 0
M  V30 5 C 10.496947 6.940680 -8.241439 0
M  V30 6 N 9.255101 6.195205 -8.123790 0
M  V30 7 C 9.042135 5.327694 -9.280457 0
M  V30 8 C 9.026600 6.089087 -10.623051 0
M  V30 9 C 8.428809 5.278317 -11.730725 0
M  V30 10 C 7.096613 5.215826 -12.045903 0
M  V30 11 S 6.786757 4.101800 -13.344160 0
M  V30 12 C 8.522483 3.776081 -13.445490 0
M  V30 13 C 9.062855 2.805856 -14.415789 0
M  V30 14 N 8.184676 2.043785 -15.078732 0
M  V30 15 C 8.670499 1.141861 -15.953367 0
M  V30 16 C 10.048215 1.020256 -16.197979 0
M  V30 17 C 10.883346 1.889183 -15.476513 0
M  V30 18 N 10.389820 2.773582 -14.588407 0
M  V30 19 N 9.230902 4.468596 -12.541910 0
M  V30 20 N 11.209160 6.884267 -5.896535 0
M  V30 21 C 11.649456 7.422823 -4.683210 0
M  V30 22 C 12.061683 6.575051 -3.641464 0
M  V30 23 C 12.481160 7.113895 -2.417408 0
M  V30 24 C 12.485553 8.506004 -2.231896 0
M  V30 25 F 12.891349 9.010333 -1.049821 0
M  V30 26 C 12.085144 9.367039 -3.270617 0
M  V30 27 C 11.684170 8.828448 -4.513414 0
M  V30 28 H 10.627093 9.633512 -7.749933 0
M  V30 29 H 11.289564 6.233662 -8.467385 0
M  V30 30 H 10.447029 7.653455 -9.065229 0
M  V30 31 H 8.460560 6.823025 -8.036855 0
M  V30 32 H 8.085094 4.830708 -9.130519 0
M  V30 33 H 9.795809 4.539577 -9.304049 0
M  V30 34 H 10.043993 6.371132 -10.895551 0
M  V30 35 H 8.486842 7.027635 -10.517796 0
M  V30 36 H 6.284567 5.744271 -11.562910 0
M  V30 37 H 7.953401 0.519501 -16.468946 0
M  V30 38 H 10.441942 0.305438 -16.904234 0
M  V30 39 H 11.954370 1.872186 -15.611150 0
M  V30 40 H 11.128625 5.880044 -5.991727 0
M  V30 41 H 12.074232 5.510588 -3.784813 0
M  V30 42 H 12.798134 6.458063 -1.619131 0
M  V30 43 H 12.087070 10.433500 -3.096666 0
M  V30 END ATOM
M  V30 BEGIN BOND
M  V30 1 2 2 1
M  V30 2 1 3 2
M  V30 3 2 4 3
M  V30 4 1 5 4
M  V30 5 1 6 5
M  V30 6 1 7 6
M  V30 7 1 8 7
M  V30 8 1 9 8
M  V30 9 2 10 9
M  V30 10 1 11 10
M  V30 11 1 12 11
M  V30 12 1 13 12
M  V30 13 2 14 13
M  V30 14 1 15 14
M  V30 15 2 16 15
M  V30 16 1 17 16
M  V30 17 1 18 13
M  V30 18 2 18 17
M  V30 19 1 19 9
M  V30 20 2 19 12
M  V30 21 1 20 4
M  V30 22 1 21 20
M  V30 23 2 22 21
M  V30 24 1 23 22
M  V30 25 2 24 23
M  V30 26 1 25 24
M  V30 27 1 26 24
M  V30 28 1 27 2
M  V30 29 1 27 21
M  V30 30 2 27 26
M  V30 31 1 28 3
M  V30 32 1 29 5
M  V30 33 1 30 5
M  V30 34 1 31 6
M  V30 35 1 32 7
M  V30 36 1 33 7
M  V30 37 1 34 8
M  V30 38 1 35 8
M  V30 39 1 36 10
M  V30 40 1 37 15
M  V30 41 1 38 16
M  V30 42 1 39 17
M  V30 43 1 40 20
M  V30 44 1 41 22
M  V30 45 1 42 23
M  V30 46 1 43 26
M  V30 END BOND
M  V30 END CTAB
M  END
>  <b_m_subgroup_collapsed>  (1288) 
0

>  <r_i_docking_score>  (1288) 
-7.2842721205390104

>  <s_m_subgroup_title>  (1288) 
glide-dock_SP_D22_pv

>  <s_m_subgroupid>  (1288) 
glide-dock_SP_D22_pv

>  <Molecule ChEMBL ID>  (1288) 
CHEMBL5722986

>  <Standard Type>  (1288) 
Ki

>  <Standard Value>  (1288) 
10000.0

>  <label>  (1288) 
0

$$$$
CHEMBL540028
     RDKit          3D

  0  0  0  0  0  0  0  0  0  0999 V3000
M  V30 BEGIN CTAB
M  V30 COUNTS 46 49 0 0 1
M  V30 BEGIN ATOM
M  V30 1 O 9.686351 5.677295 -10.012260 0
M  V30 2 C 9.398376 6.630345 -10.737123 0
M  V30 3 C 8.623200 6.616838 -11.956966 0
M  V30 4 C 7.987220 5.467222 -12.607203 0
M  V30 5 C 6.580865 5.362192 -12.621797 0
M  V30 6 C 5.966139 4.251800 -13.232124 0
M  V30 7 C 6.756806 3.261635 -13.847995 0
M  V30 8 C 8.160239 3.374454 -13.846337 0
M  V30 9 C 8.779582 4.470132 -13.212673 0
M  V30 10 C 8.423452 7.908071 -12.246745 0
M  V30 11 O 9.021295 8.810748 -11.409691 0
M  V30 12 C 9.779992 8.084801 -10.442624 0 CFG=2
M  V30 13 C 11.254951 8.415933 -10.708297 0
M  V30 14 C 12.167789 7.774239 -9.686971 0
M  V30 15 C 11.778329 8.205922 -8.264029 0
M  V30 16 N 10.342609 7.933784 -7.982016 0 CFG=1 CHG=1
M  V30 17 C 9.881237 8.334313 -6.629214 0
M  V30 18 C 10.885961 8.225184 -5.488081 0
M  V30 19 C 11.354456 9.393203 -4.844712 0
M  V30 20 C 12.148071 9.291162 -3.687151 0
M  V30 21 C 12.485963 8.030486 -3.169630 0
M  V30 22 C 12.045354 6.865837 -3.820133 0
M  V30 23 C 11.255044 6.961890 -4.982662 0
M  V30 24 C 9.434546 8.519129 -9.009080 0
M  V30 25 H 5.976205 6.123206 -12.147190 0
M  V30 26 H 4.889894 4.165663 -13.231257 0
M  V30 27 H 6.288370 2.411913 -14.321843 0
M  V30 28 H 8.765472 2.611171 -14.314484 0
M  V30 29 H 9.857355 4.544955 -13.198080 0
M  V30 30 H 7.822457 8.338473 -13.036134 0
M  V30 31 H 11.546586 8.108086 -11.711791 0
M  V30 32 H 11.400938 9.493900 -10.647790 0
M  V30 33 H 12.074268 6.703912 -9.845109 0
M  V30 34 H 13.206362 8.039656 -9.886595 0
M  V30 35 H 12.409243 7.664263 -7.559523 0
M  V30 36 H 11.984176 9.266918 -8.121676 0
M  V30 37 H 9.559092 9.372120 -6.668717 0
M  V30 38 H 8.992291 7.754423 -6.375119 0
M  V30 39 H 11.077370 10.371425 -5.207582 0
M  V30 40 H 12.491937 10.172565 -3.171858 0
M  V30 41 H 13.076680 7.960268 -2.269002 0
M  V30 42 H 12.294794 5.896704 -3.415923 0
M  V30 43 H 10.889719 6.062180 -5.452298 0
M  V30 44 H 9.462991 9.607032 -8.952012 0
M  V30 45 H 8.419107 8.225342 -8.766069 0
M  V30 46 H 10.231939 6.930125 -8.041172 0
M  V30 END ATOM
M  V30 BEGIN BOND
M  V30 1 2 2 1
M  V30 2 1 3 2
M  V30 3 1 4 3
M  V30 4 2 5 4
M  V30 5 1 6 5
M  V30 6 2 7 6
M  V30 7 1 8 7
M  V30 8 1 9 4
M  V30 9 2 9 8
M  V30 10 2 10 3
M  V30 11 1 11 10
M  V30 12 1 12 2
M  V30 13 1 12 11 CFG=3
M  V30 14 1 13 12
M  V30 15 1 14 13
M  V30 16 1 15 14
M  V30 17 1 16 15
M  V30 18 1 17 16
M  V30 19 1 18 17
M  V30 20 2 19 18
M  V30 21 1 20 19
M  V30 22 2 21 20
M  V30 23 1 22 21
M  V30 24 1 23 18
M  V30 25 2 23 22
M  V30 26 1 24 12
M  V30 27 1 24 16
M  V30 28 1 25 5
M  V30 29 1 26 6
M  V30 30 1 27 7
M  V30 31 1 28 8
M  V30 32 1 29 9
M  V30 33 1 30 10
M  V30 34 1 31 13
M  V30 35 1 32 13
M  V30 36 1 33 14
M  V30 37 1 34 14
M  V30 38 1 35 15
M  V30 39 1 36 15
M  V30 40 1 37 17
M  V30 41 1 38 17
M  V30 42 1 39 19
M  V30 43 1 40 20
M  V30 44 1 41 21
M  V30 45 1 42 22
M  V30 46 1 43 23
M  V30 47 1 44 24
M  V30 48 1 45 24
M  V30 49 1 16 46 CFG=1
M  V30 END BOND
M  V30 END CTAB
M  END
>  <b_m_subgroup_collapsed>  (1289) 
0

>  <r_i_docking_score>  (1289) 
-7.2840082661741796

>  <s_m_subgroup_title>  (1289) 
glide-dock_SP_D22_pv

>  <s_m_subgroupid>  (1289) 
glide-dock_SP_D22_pv

>  <Molecule ChEMBL ID>  (1289) 
CHEMBL540028

>  <Standard Type>  (1289) 
Ki

>  <Standard Value>  (1289) 
10000.0

>  <label>  (1289) 
0

$$$$
CHEMBL5949172
     RDKit          3D

  0  0  0  0  0  0  0  0  0  0999 V3000
M  V30 BEGIN CTAB
M  V30 COUNTS 51 55 0 0 1
M  V30 BEGIN ATOM
M  V30 1 C 5.247833 -1.951589 -15.289598 0
M  V30 2 N 5.532774 -0.646231 -14.738153 0
M  V30 3 C 6.611496 0.173221 -15.026173 0
M  V30 4 C 6.388315 1.295318 -14.291641 0
M  V30 5 C 5.204877 1.085460 -13.567645 0
M  V30 6 N 4.670991 -0.095648 -13.836782 0
M  V30 7 C 4.611999 2.124346 -12.671071 0
M  V30 8 C 5.130000 3.522329 -13.051578 0
M  V30 9 N 6.522825 3.568377 -13.548383 0
M  V30 10 C 7.139467 4.865039 -13.317376 0
M  V30 11 C 7.689754 4.945194 -11.888676 0
M  V30 12 N 8.308327 6.244569 -11.545175 0 CFG=2 CHG=1
M  V30 13 C 7.999058 7.442713 -12.358935 0
M  V30 14 C 9.029947 8.473707 -11.888551 0
M  V30 15 C 10.272990 7.625916 -11.547382 0 CFG=1
M  V30 16 C 11.053101 8.056127 -10.332448 0
M  V30 17 N 12.378917 8.150452 -10.391238 0
M  V30 18 O 12.836589 8.482465 -9.085072 0
M  V30 19 C 11.760145 8.597233 -8.226130 0
M  V30 20 C 11.681538 8.935406 -6.868467 0
M  V30 21 C 10.411904 8.920075 -6.263522 0
M  V30 22 C 9.267460 8.571310 -7.020861 0
M  V30 23 C 9.369863 8.265409 -8.394572 0
M  V30 24 C 10.641349 8.300543 -9.004084 0
M  V30 25 C 9.769422 6.188937 -11.378147 0
M  V30 26 C 7.148164 2.575287 -14.238353 0
M  V30 27 O 8.256368 2.678091 -14.761988 0
M  V30 28 H 5.681695 -2.038857 -16.285410 0
M  V30 29 H 5.684100 -2.714868 -14.647255 0
M  V30 30 H 4.170491 -2.104398 -15.370239 0
M  V30 31 H 7.391701 -0.099102 -15.722109 0
M  V30 32 H 3.526918 2.172177 -12.734282 0
M  V30 33 H 4.884767 1.899204 -11.641053 0
M  V30 34 H 4.977712 4.181956 -12.197577 0
M  V30 35 H 4.509055 3.949421 -13.838870 0
M  V30 36 H 6.372816 5.628579 -13.446869 0
M  V30 37 H 7.922827 5.064620 -14.050528 0
M  V30 38 H 8.394363 4.131922 -11.708727 0
M  V30 39 H 6.886611 4.793149 -11.170633 0
M  V30 40 H 6.973277 7.791216 -12.247163 0
M  V30 41 H 8.100905 7.238326 -13.421547 0
M  V30 42 H 8.639475 8.971232 -11.001343 0
M  V30 43 H 9.226650 9.255147 -12.624251 0
M  V30 44 H 10.929949 7.640304 -12.418827 0
M  V30 45 H 12.567879 9.192061 -6.307371 0
M  V30 46 H 10.316984 9.172563 -5.219832 0
M  V30 47 H 8.294928 8.549692 -6.550698 0
M  V30 48 H 8.485870 8.007813 -8.956195 0
M  V30 49 H 10.214321 5.554600 -12.146814 0
M  V30 50 H 10.016852 5.755561 -10.407323 0
M  V30 51 H 7.916888 6.495618 -10.642574 0
M  V30 END ATOM
M  V30 BEGIN BOND
M  V30 1 1 2 1
M  V30 2 1 3 2
M  V30 3 2 4 3
M  V30 4 1 5 4
M  V30 5 1 6 2
M  V30 6 2 6 5
M  V30 7 1 7 5
M  V30 8 1 8 7
M  V30 9 1 9 8
M  V30 10 1 10 9
M  V30 11 1 11 10
M  V30 12 1 12 11
M  V30 13 1 13 12
M  V30 14 1 14 13
M  V30 15 1 15 14
M  V30 16 1 16 15
M  V30 17 2 17 16
M  V30 18 1 18 17
M  V30 19 1 19 18
M  V30 20 2 20 19
M  V30 21 1 21 20
M  V30 22 2 22 21
M  V30 23 1 23 22
M  V30 24 1 24 16
M  V30 25 1 24 19
M  V30 26 2 24 23
M  V30 27 1 25 12
M  V30 28 1 25 15
M  V30 29 1 26 4
M  V30 30 1 26 9
M  V30 31 2 27 26
M  V30 32 1 28 1
M  V30 33 1 29 1
M  V30 34 1 30 1
M  V30 35 1 31 3
M  V30 36 1 32 7
M  V30 37 1 33 7
M  V30 38 1 34 8
M  V30 39 1 35 8
M  V30 40 1 36 10
M  V30 41 1 37 10
M  V30 42 1 38 11
M  V30 43 1 39 11
M  V30 44 1 40 13
M  V30 45 1 41 13
M  V30 46 1 42 14
M  V30 47 1 43 14
M  V30 48 1 15 44 CFG=3
M  V30 49 1 45 20
M  V30 50 1 46 21
M  V30 51 1 47 22
M  V30 52 1 48 23
M  V30 53 1 49 25
M  V30 54 1 50 25
M  V30 55 1 12 51 CFG=1
M  V30 END BOND
M  V30 END CTAB
M  END
>  <b_m_subgroup_collapsed>  (1290) 
0

>  <r_i_docking_score>  (1290) 
-7.2816906351517101

>  <s_m_subgroup_title>  (1290) 
glide-dock_SP_D22_pv

>  <s_m_subgroupid>  (1290) 
glide-dock_SP_D22_pv

>  <Molecule ChEMBL ID>  (1290) 
CHEMBL5949172

>  <Standard Type>  (1290) 
Ki

>  <Standard Value>  (1290) 
10000.0

>  <label>  (1290) 
0

$$$$
CHEMBL201748
     RDKit          3D

  0  0  0  0  0  0  0  0  0  0999 V3000
M  V30 BEGIN CTAB
M  V30 COUNTS 43 47 0 0 1
M  V30 BEGIN ATOM
M  V30 1 C 12.086692 7.852126 -3.276007 0
M  V30 2 C 11.686129 6.789182 -4.107557 0
M  V30 3 C 11.086864 7.044439 -5.357635 0
M  V30 4 C 10.880998 8.376156 -5.781958 0
M  V30 5 C 10.301865 8.721720 -7.149428 0 CFG=2
M  V30 6 C 9.397654 7.689765 -7.839643 0
M  V30 7 C 10.304658 6.971891 -8.840419 0 CFG=1
M  V30 8 C 9.650640 6.434691 -10.076011 0
M  V30 9 N 8.486353 5.687593 -10.136274 0
M  V30 10 C 8.261497 5.253173 -11.433339 0
M  V30 11 C 7.248878 4.474072 -12.020721 0
M  V30 12 C 7.351763 4.113049 -13.376674 0
M  V30 13 C 8.461049 4.538453 -14.131347 0
M  V30 14 C 9.436568 5.371851 -13.556379 0
M  V30 15 C 9.355234 5.752955 -12.198980 0
M  V30 16 C 10.153016 6.565800 -11.336488 0
M  V30 17 C 11.367655 7.372321 -11.624070 0
M  V30 18 C 11.491229 8.454697 -10.541259 0
M  V30 19 N 11.432297 7.902874 -9.154062 0 CFG=1 CHG=1
M  V30 20 C 11.442188 8.972836 -8.139287 0
M  V30 21 C 11.286140 9.437907 -4.941059 0
M  V30 22 C 11.881482 9.179453 -3.692713 0
M  V30 23 H 12.538045 7.646580 -2.316501 0
M  V30 24 H 11.839773 5.772808 -3.781772 0
M  V30 25 H 10.793425 6.209014 -5.974339 0
M  V30 26 H 9.701937 9.625344 -7.029814 0
M  V30 27 H 8.860669 7.025033 -7.160991 0
M  V30 28 H 8.636389 8.232992 -8.403292 0
M  V30 29 H 10.762074 6.131715 -8.318762 0
M  V30 30 H 7.863350 5.537479 -9.353209 0
M  V30 31 H 6.414252 4.128608 -11.430237 0
M  V30 32 H 6.590867 3.495040 -13.831009 0
M  V30 33 H 8.558052 4.238168 -15.163177 0
M  V30 34 H 10.269432 5.710698 -14.155500 0
M  V30 35 H 12.269208 6.765309 -11.643598 0
M  V30 36 H 11.298415 7.773093 -12.630427 0
M  V30 37 H 12.424479 9.001930 -10.676769 0
M  V30 38 H 10.673594 9.166404 -10.654465 0
M  V30 39 H 11.285818 9.942246 -8.609197 0
M  V30 40 H 12.420392 9.013820 -7.658296 0
M  V30 41 H 11.145023 10.463139 -5.251575 0
M  V30 42 H 12.182652 9.997977 -3.054669 0
M  V30 43 H 12.277718 7.368318 -9.029931 0
M  V30 END ATOM
M  V30 BEGIN BOND
M  V30 1 2 2 1
M  V30 2 1 3 2
M  V30 3 2 4 3
M  V30 4 1 5 4
M  V30 5 1 6 5
M  V30 6 1 7 6
M  V30 7 1 8 7
M  V30 8 1 9 8
M  V30 9 1 10 9
M  V30 10 2 11 10
M  V30 11 1 12 11
M  V30 12 2 13 12
M  V30 13 1 14 13
M  V30 14 1 15 10
M  V30 15 2 15 14
M  V30 16 2 16 8
M  V30 17 1 16 15
M  V30 18 1 17 16
M  V30 19 1 18 17
M  V30 20 1 19 7
M  V30 21 1 19 18
M  V30 22 1 20 5
M  V30 23 1 20 19
M  V30 24 1 21 4
M  V30 25 1 22 1
M  V30 26 2 22 21
M  V30 27 1 23 1
M  V30 28 1 24 2
M  V30 29 1 25 3
M  V30 30 1 5 26 CFG=1
M  V30 31 1 27 6
M  V30 32 1 28 6
M  V30 33 1 7 29 CFG=1
M  V30 34 1 30 9
M  V30 35 1 31 11
M  V30 36 1 32 12
M  V30 37 1 33 13
M  V30 38 1 34 14
M  V30 39 1 35 17
M  V30 40 1 36 17
M  V30 41 1 37 18
M  V30 42 1 38 18
M  V30 43 1 39 20
M  V30 44 1 40 20
M  V30 45 1 41 21
M  V30 46 1 42 22
M  V30 47 1 19 43 CFG=1
M  V30 END BOND
M  V30 END CTAB
M  END
>  <b_m_subgroup_collapsed>  (1291) 
0

>  <r_i_docking_score>  (1291) 
-7.2806363821101598

>  <s_m_subgroup_title>  (1291) 
glide-dock_SP_D22_pv

>  <s_m_subgroupid>  (1291) 
glide-dock_SP_D22_pv

>  <Molecule ChEMBL ID>  (1291) 
CHEMBL201748

>  <Standard Type>  (1291) 
Ki

>  <Standard Value>  (1291) 
10000.0

>  <label>  (1291) 
0

$$$$
CHEMBL4451063
     RDKit          3D

  0  0  0  0  0  0  0  0  0  0999 V3000
M  V30 BEGIN CTAB
M  V30 COUNTS 61 65 0 0 1
M  V30 BEGIN ATOM
M  V30 1 C 13.332860 6.972483 -15.143466 0
M  V30 2 C 11.886371 6.493392 -15.375489 0 CFG=1
M  V30 3 C 11.758616 5.634005 -16.642988 0
M  V30 4 O 12.367938 4.361639 -16.439816 0
M  V30 5 C 11.817270 3.601730 -15.363489 0 CFG=2
M  V30 6 C 10.436483 3.013108 -15.666905 0
M  V30 7 C 9.622800 2.465776 -14.648325 0
M  V30 8 C 8.410435 1.842268 -14.997051 0
M  V30 9 C 8.058462 1.773230 -16.356586 0
M  V30 10 N 6.885970 1.143309 -16.750187 0
M  V30 11 N 8.818439 2.285836 -17.341145 0
M  V30 12 C 9.984466 2.872324 -16.999466 0
M  V30 13 C 11.926647 4.434500 -14.059492 0
M  V30 14 N 11.296442 5.768147 -14.217383 0 CFG=1 CHG=1
M  V30 15 C 11.231381 6.572299 -12.965843 0
M  V30 16 C 10.109349 6.114567 -12.043199 0 CFG=2
M  V30 17 C 8.775104 6.816236 -12.044319 0
M  V30 18 C 9.692790 6.966198 -10.855214 0 CFG=1
M  V30 19 C 9.255196 6.352086 -9.534093 0
M  V30 20 N 9.999061 6.765133 -8.349417 0
M  V30 21 C 9.983028 7.996987 -7.810425 0
M  V30 22 O 9.461106 8.969251 -8.355431 0
M  V30 23 C 10.649700 8.159571 -6.498915 0
M  V30 24 C 10.955855 9.289856 -5.780853 0
M  V30 25 C 11.516360 8.858689 -4.530267 0
M  V30 26 C 11.963395 9.503668 -3.354639 0
M  V30 27 C 12.452164 8.781097 -2.249832 0
M  V30 28 C 12.485998 7.378225 -2.293437 0
M  V30 29 C 12.059525 6.706542 -3.448221 0
M  V30 30 C 11.576448 7.438057 -4.544213 0
M  V30 31 N 11.044119 7.051450 -5.756146 0
M  V30 32 H 13.675174 7.579187 -15.982474 0
M  V30 33 H 13.418088 7.590975 -14.250398 0
M  V30 34 H 14.032979 6.142919 -15.047092 0
M  V30 35 H 11.286075 7.379240 -15.541330 0
M  V30 36 H 12.241299 6.125837 -17.488049 0
M  V30 37 H 10.708640 5.519788 -16.914059 0
M  V30 38 H 12.465844 2.734948 -15.267561 0
M  V30 39 H 9.917782 2.487519 -13.610105 0
M  V30 40 H 7.779630 1.409219 -14.234628 0
M  V30 41 H 6.381505 0.564694 -16.093939 0
M  V30 42 H 6.749901 0.915898 -17.723993 0
M  V30 43 H 10.578895 3.228580 -17.827475 0
M  V30 44 H 11.487419 3.904524 -13.219995 0
M  V30 45 H 12.976991 4.565422 -13.798010 0
M  V30 46 H 12.185469 6.542895 -12.438249 0
M  V30 47 H 11.065902 7.623650 -13.199942 0
M  V30 48 H 10.085121 5.041795 -11.864063 0
M  V30 49 H 8.637076 7.710305 -12.646656 0
M  V30 50 H 7.881648 6.207614 -11.913930 0
M  V30 51 H 10.154510 7.948061 -10.765214 0
M  V30 52 H 8.198901 6.572413 -9.372667 0
M  V30 53 H 9.316063 5.266194 -9.609098 0
M  V30 54 H 10.490559 6.040241 -7.854000 0
M  V30 55 H 10.771517 10.312103 -6.076078 0
M  V30 56 H 11.902371 10.572360 -3.280874 0
M  V30 57 H 12.781473 9.308799 -1.365900 0
M  V30 58 H 12.854506 6.814218 -1.449164 0
M  V30 59 H 12.086926 5.634079 -3.486044 0
M  V30 60 H 10.878755 6.096605 -6.035991 0
M  V30 61 H 10.333869 5.594138 -14.473311 0
M  V30 END ATOM
M  V30 BEGIN BOND
M  V30 1 1 2 1
M  V30 2 1 3 2
M  V30 3 1 4 3
M  V30 4 1 5 4
M  V30 5 1 6 5
M  V30 6 1 7 6
M  V30 7 2 8 7
M  V30 8 1 9 8
M  V30 9 1 10 9
M  V30 10 2 11 9
M  V30 11 2 12 6
M  V30 12 1 12 11
M  V30 13 1 13 5
M  V30 14 1 14 2
M  V30 15 1 14 13
M  V30 16 1 15 14
M  V30 17 1 16 15
M  V30 18 1 17 16
M  V30 19 1 18 16
M  V30 20 1 18 17
M  V30 21 1 19 18
M  V30 22 1 20 19
M  V30 23 1 21 20
M  V30 24 2 22 21
M  V30 25 1 23 21
M  V30 26 2 24 23
M  V30 27 1 25 24
M  V30 28 2 26 25
M  V30 29 1 27 26
M  V30 30 2 28 27
M  V30 31 1 29 28
M  V30 32 1 30 25
M  V30 33 2 30 29
M  V30 34 1 31 23
M  V30 35 1 31 30
M  V30 36 1 32 1
M  V30 37 1 33 1
M  V30 38 1 34 1
M  V30 39 1 2 35 CFG=3
M  V30 40 1 36 3
M  V30 41 1 37 3
M  V30 42 1 5 38 CFG=1
M  V30 43 1 39 7
M  V30 44 1 40 8
M  V30 45 1 41 10
M  V30 46 1 42 10
M  V30 47 1 43 12
M  V30 48 1 44 13
M  V30 49 1 45 13
M  V30 50 1 46 15
M  V30 51 1 47 15
M  V30 52 1 16 48 CFG=1
M  V30 53 1 49 17
M  V30 54 1 50 17
M  V30 55 1 18 51 CFG=1
M  V30 56 1 52 19
M  V30 57 1 53 19
M  V30 58 1 54 20
M  V30 59 1 55 24
M  V30 60 1 56 26
M  V30 61 1 57 27
M  V30 62 1 58 28
M  V30 63 1 59 29
M  V30 64 1 60 31
M  V30 65 1 14 61 CFG=3
M  V30 END BOND
M  V30 END CTAB
M  END
>  <b_m_subgroup_collapsed>  (1292) 
0

>  <r_i_docking_score>  (1292) 
-7.2731721488538597

>  <s_m_subgroup_title>  (1292) 
glide-dock_SP_D22_pv

>  <s_m_subgroupid>  (1292) 
glide-dock_SP_D22_pv

>  <Molecule ChEMBL ID>  (1292) 
CHEMBL4451063

>  <Standard Type>  (1292) 
Ki

>  <Standard Value>  (1292) 
14100.0

>  <label>  (1292) 
0

$$$$
CHEMBL563563
     RDKit          3D

  0  0  0  0  0  0  0  0  0  0999 V3000
M  V30 BEGIN CTAB
M  V30 COUNTS 57 60 0 0 1
M  V30 BEGIN ATOM
M  V30 1 C 9.238131 2.404152 -14.470061 0
M  V30 2 C 9.054173 3.833135 -13.912197 0
M  V30 3 C 9.691540 4.776254 -14.954371 0
M  V30 4 C 9.824436 3.965381 -12.567868 0
M  V30 5 C 9.116270 4.733671 -11.429746 0 CFG=2
M  V30 6 C 7.643253 4.396950 -11.305741 0
M  V30 7 C 7.111115 5.029461 -12.577225 0 CFG=1
M  V30 8 C 5.596306 5.194633 -12.542120 0
M  V30 9 C 7.837933 6.384038 -12.602164 0
M  V30 10 N 8.951200 6.182124 -11.652761 0 CFG=2 CHG=1
M  V30 11 C 10.106234 7.091662 -11.655472 0
M  V30 12 C 9.854291 8.199695 -10.620334 0
M  V30 13 N 9.933565 7.747503 -9.219646 0
M  V30 14 C 9.116974 6.682021 -8.656475 0
M  V30 15 C 9.246235 6.864542 -7.156939 0
M  V30 16 N 10.264189 7.887803 -7.061756 0
M  V30 17 C 10.841000 8.254934 -5.826457 0
M  V30 18 C 10.870173 9.610104 -5.440217 0
M  V30 19 C 11.322199 9.955938 -4.160066 0
M  V30 20 C 11.845389 8.987616 -3.295003 0
M  V30 21 C 11.854454 7.644647 -3.694041 0
M  V30 22 Cl 12.486021 6.477246 -2.615333 0
M  V30 23 C 11.324315 7.264870 -4.943029 0
M  V30 24 C 10.577249 8.415421 -8.255365 0
M  V30 25 O 11.318081 9.372322 -8.442348 0
M  V30 26 C 7.525309 4.097666 -13.736766 0
M  V30 27 H 10.292712 2.156419 -14.599044 0
M  V30 28 H 8.814192 1.648324 -13.809150 0
M  V30 29 H 8.753643 2.291729 -15.440778 0
M  V30 30 H 10.678036 4.420794 -15.255205 0
M  V30 31 H 9.092369 4.856251 -15.860932 0
M  V30 32 H 9.850099 5.772324 -14.562084 0
M  V30 33 H 10.010493 2.972322 -12.171801 0
M  V30 34 H 10.821951 4.374499 -12.731863 0
M  V30 35 H 9.651276 4.511589 -10.512178 0
M  V30 36 H 7.286022 4.913577 -10.423050 0
M  V30 37 H 7.325191 3.372325 -11.206062 0
M  V30 38 H 5.286024 5.798645 -11.687289 0
M  V30 39 H 5.244277 5.688880 -13.446865 0
M  V30 40 H 5.091608 4.230654 -12.465143 0
M  V30 41 H 7.210534 7.201503 -12.246865 0
M  V30 42 H 8.137247 6.637346 -13.610367 0
M  V30 43 H 10.242973 7.518755 -12.646864 0
M  V30 44 H 11.028772 6.572324 -11.408012 0
M  V30 45 H 8.886016 8.675263 -10.785686 0
M  V30 46 H 10.601026 8.972325 -10.799109 0
M  V30 47 H 8.086022 6.702888 -8.996474 0
M  V30 48 H 9.557135 5.720316 -8.886532 0
M  V30 49 H 9.532222 5.939139 -6.658988 0
M  V30 50 H 8.314015 7.225184 -6.717741 0
M  V30 51 H 10.486032 10.380060 -6.093131 0
M  V30 52 H 11.286021 10.972325 -3.832336 0
M  V30 53 H 12.220418 9.273923 -2.322655 0
M  V30 54 H 11.310289 6.220464 -5.219260 0
M  V30 55 H 7.015104 3.144924 -13.583714 0
M  V30 56 H 7.097965 4.485116 -14.646864 0
M  V30 57 H 8.503498 6.455704 -10.786448 0
M  V30 END ATOM
M  V30 BEGIN BOND
M  V30 1 1 2 1
M  V30 2 1 3 2
M  V30 3 1 4 2
M  V30 4 1 5 4
M  V30 5 1 6 5
M  V30 6 1 7 6
M  V30 7 1 7 8 CFG=1
M  V30 8 1 9 7
M  V30 9 1 10 5
M  V30 10 1 10 9
M  V30 11 1 11 10
M  V30 12 1 12 11
M  V30 13 1 13 12
M  V30 14 1 14 13
M  V30 15 1 15 14
M  V30 16 1 16 15
M  V30 17 1 17 16
M  V30 18 2 18 17
M  V30 19 1 19 18
M  V30 20 2 20 19
M  V30 21 1 21 20
M  V30 22 1 22 21
M  V30 23 1 23 17
M  V30 24 2 23 21
M  V30 25 1 24 13
M  V30 26 1 24 16
M  V30 27 2 25 24
M  V30 28 1 26 2
M  V30 29 1 26 7
M  V30 30 1 27 1
M  V30 31 1 28 1
M  V30 32 1 29 1
M  V30 33 1 30 3
M  V30 34 1 31 3
M  V30 35 1 32 3
M  V30 36 1 33 4
M  V30 37 1 34 4
M  V30 38 1 5 35 CFG=1
M  V30 39 1 36 6
M  V30 40 1 37 6
M  V30 41 1 38 8
M  V30 42 1 39 8
M  V30 43 1 40 8
M  V30 44 1 41 9
M  V30 45 1 42 9
M  V30 46 1 43 11
M  V30 47 1 44 11
M  V30 48 1 45 12
M  V30 49 1 46 12
M  V30 50 1 47 14
M  V30 51 1 48 14
M  V30 52 1 49 15
M  V30 53 1 50 15
M  V30 54 1 51 18
M  V30 55 1 52 19
M  V30 56 1 53 20
M  V30 57 1 54 23
M  V30 58 1 55 26
M  V30 59 1 56 26
M  V30 60 1 10 57 CFG=1
M  V30 END BOND
M  V30 END CTAB
M  END
>  <b_m_subgroup_collapsed>  (1293) 
0

>  <r_i_docking_score>  (1293) 
-7.2728317416688801

>  <s_m_subgroup_title>  (1293) 
glide-dock_SP_D22_pv

>  <s_m_subgroupid>  (1293) 
glide-dock_SP_D22_pv

>  <Molecule ChEMBL ID>  (1293) 
CHEMBL563563

>  <Standard Type>  (1293) 
Ki

>  <Standard Value>  (1293) 
100.0

>  <label>  (1293) 
1

$$$$
CHEMBL487761
     RDKit          3D

  0  0  0  0  0  0  0  0  0  0999 V3000
M  V30 BEGIN CTAB
M  V30 COUNTS 70 73 0 0 1
M  V30 BEGIN ATOM
M  V30 1 C 13.791723 -0.934286 -20.154102 0
M  V30 2 O 12.566504 -1.027559 -19.446072 0
M  V30 3 C 12.202222 0.026944 -18.640406 0
M  V30 4 C 12.845874 1.291290 -18.647873 0
M  V30 5 C 12.432888 2.299736 -17.757559 0
M  V30 6 C 11.383566 2.060754 -16.848866 0
M  V30 7 C 10.727972 0.812953 -16.841341 0
M  V30 8 C 9.605597 0.547858 -15.852194 0
M  V30 9 C 8.320594 1.301432 -16.223404 0
M  V30 10 C 7.148040 0.956931 -15.316472 0
M  V30 11 C 6.425492 -0.225751 -15.575031 0
M  V30 12 C 5.312858 -0.573030 -14.790593 0
M  V30 13 C 4.919436 0.273337 -13.740020 0
M  V30 14 C 5.644881 1.446459 -13.458944 0
M  V30 15 C 6.773298 1.806887 -14.246856 0
M  V30 16 O 7.536060 2.939831 -14.031572 0
M  V30 17 C 7.169328 3.853730 -13.003577 0
M  V30 18 C 8.428520 4.567119 -12.494298 0
M  V30 19 C 8.098346 5.597088 -11.403383 0
M  V30 20 C 9.315108 6.007706 -10.564832 0
M  V30 21 C 8.920269 6.999690 -9.455020 0
M  V30 22 N 10.045798 7.372338 -8.599400 0
M  V30 23 C 9.651421 8.541835 -7.802408 0
M  V30 24 C 10.818912 8.998612 -6.901596 0
M  V30 25 N 11.261721 7.902293 -6.037803 0
M  V30 26 C 11.615258 8.073445 -4.701994 0
M  V30 27 N 11.779704 6.972346 -3.965000 0
M  V30 28 C 12.086268 7.125223 -2.660292 0
M  V30 29 C 12.256441 8.398494 -2.093092 0
M  V30 30 C 12.060863 9.488816 -2.958277 0
M  V30 31 N 11.734504 9.325379 -4.250656 0
M  V30 32 C 11.549852 6.682408 -6.789859 0
M  V30 33 C 10.349984 6.286241 -7.663252 0
M  V30 34 C 11.126481 -0.186697 -17.753202 0
M  V30 35 H 13.990155 -1.879781 -20.656725 0
M  V30 36 H 13.751283 -0.155997 -20.917973 0
M  V30 37 H 14.628670 -0.737704 -19.480513 0
M  V30 38 H 13.664307 1.504076 -19.319447 0
M  V30 39 H 12.931428 3.257850 -17.760813 0
M  V30 40 H 11.087200 2.834257 -16.156233 0
M  V30 41 H 9.935888 0.837073 -14.854738 0
M  V30 42 H 9.409173 -0.524358 -15.812433 0
M  V30 43 H 8.038746 1.056317 -17.248014 0
M  V30 44 H 8.497675 2.378001 -16.214531 0
M  V30 45 H 6.721088 -0.875954 -16.385168 0
M  V30 46 H 4.758019 -1.472556 -15.003960 0
M  V30 47 H 4.050756 0.023814 -13.150203 0
M  V30 48 H 5.282903 2.059029 -12.648911 0
M  V30 49 H 6.717949 3.372359 -12.139735 0
M  V30 50 H 6.446942 4.571616 -13.396270 0
M  V30 51 H 8.952059 5.050202 -13.320383 0
M  V30 52 H 9.109993 3.813392 -12.098311 0
M  V30 53 H 7.350358 5.178485 -10.729751 0
M  V30 54 H 7.636642 6.477277 -11.855444 0
M  V30 55 H 10.076535 6.454590 -11.205403 0
M  V30 56 H 9.753448 5.106503 -10.135920 0
M  V30 57 H 8.106285 6.590619 -8.852844 0
M  V30 58 H 8.530416 7.898945 -9.934590 0
M  V30 59 H 8.775437 8.307281 -7.194857 0
M  V30 60 H 9.365976 9.361081 -8.463638 0
M  V30 61 H 10.492985 9.860830 -6.319273 0
M  V30 62 H 11.660829 9.335026 -7.510002 0
M  V30 63 H 12.203545 6.224961 -2.074978 0
M  V30 64 H 12.494747 8.536384 -1.050198 0
M  V30 65 H 12.119333 10.508199 -2.603246 0
M  V30 66 H 12.413176 6.864554 -7.434070 0
M  V30 67 H 11.808493 5.849663 -6.135379 0
M  V30 68 H 9.482403 6.055991 -7.041369 0
M  V30 69 H 10.606922 5.376354 -8.204216 0
M  V30 70 H 10.630437 -1.148342 -17.751850 0
M  V30 END ATOM
M  V30 BEGIN BOND
M  V30 1 1 2 1
M  V30 2 1 3 2
M  V30 3 2 4 3
M  V30 4 1 5 4
M  V30 5 2 6 5
M  V30 6 1 7 6
M  V30 7 1 8 7
M  V30 8 1 9 8
M  V30 9 1 10 9
M  V30 10 2 11 10
M  V30 11 1 12 11
M  V30 12 2 13 12
M  V30 13 1 14 13
M  V30 14 1 15 10
M  V30 15 2 15 14
M  V30 16 1 16 15
M  V30 17 1 17 16
M  V30 18 1 18 17
M  V30 19 1 19 18
M  V30 20 1 20 19
M  V30 21 1 21 20
M  V30 22 1 22 21
M  V30 23 1 23 22
M  V30 24 1 24 23
M  V30 25 1 25 24
M  V30 26 1 26 25
M  V30 27 2 27 26
M  V30 28 1 28 27
M  V30 29 2 29 28
M  V30 30 1 30 29
M  V30 31 1 31 26
M  V30 32 2 31 30
M  V30 33 1 32 25
M  V30 34 1 33 22
M  V30 35 1 33 32
M  V30 36 1 34 3
M  V30 37 2 34 7
M  V30 38 1 35 1
M  V30 39 1 36 1
M  V30 40 1 37 1
M  V30 41 1 38 4
M  V30 42 1 39 5
M  V30 43 1 40 6
M  V30 44 1 41 8
M  V30 45 1 42 8
M  V30 46 1 43 9
M  V30 47 1 44 9
M  V30 48 1 45 11
M  V30 49 1 46 12
M  V30 50 1 47 13
M  V30 51 1 48 14
M  V30 52 1 49 17
M  V30 53 1 50 17
M  V30 54 1 51 18
M  V30 55 1 52 18
M  V30 56 1 53 19
M  V30 57 1 54 19
M  V30 58 1 55 20
M  V30 59 1 56 20
M  V30 60 1 57 21
M  V30 61 1 58 21
M  V30 62 1 59 23
M  V30 63 1 60 23
M  V30 64 1 61 24
M  V30 65 1 62 24
M  V30 66 1 63 28
M  V30 67 1 64 29
M  V30 68 1 65 30
M  V30 69 1 66 32
M  V30 70 1 67 32
M  V30 71 1 68 33
M  V30 72 1 69 33
M  V30 73 1 70 34
M  V30 END BOND
M  V30 END CTAB
M  END
>  <b_m_subgroup_collapsed>  (1294) 
0

>  <r_i_docking_score>  (1294) 
-7.2715859825476503

>  <s_m_subgroup_title>  (1294) 
glide-dock_SP_D22_pv

>  <s_m_subgroupid>  (1294) 
glide-dock_SP_D22_pv

>  <Molecule ChEMBL ID>  (1294) 
CHEMBL487761

>  <Standard Type>  (1294) 
Ki

>  <Standard Value>  (1294) 
1000000.0

>  <label>  (1294) 
0

$$$$
CHEMBL282927
     RDKit          3D

  0  0  0  0  0  0  0  0  0  0999 V3000
M  V30 BEGIN CTAB
M  V30 COUNTS 57 60 0 0 1
M  V30 BEGIN ATOM
M  V30 1 N 11.716879 7.160913 -3.956102 0
M  V30 2 C 11.685960 8.345284 -4.570501 0
M  V30 3 O 12.155304 9.357999 -4.056897 0
M  V30 4 C 11.007318 8.401504 -5.947575 0 CFG=1
M  V30 5 C 11.811754 9.171803 -7.002944 0
M  V30 6 C 11.905711 8.213032 -8.176167 0
M  V30 7 C 10.852943 7.126509 -7.892409 0 CFG=2
M  V30 8 C 9.423840 7.419177 -8.426319 0
M  V30 9 N 9.157741 6.948661 -9.817926 0 CHG=1
M  V30 10 C 10.143194 7.425453 -10.816921 0
M  V30 11 C 9.716479 7.098691 -12.247356 0
M  V30 12 C 9.365380 5.625243 -12.462114 0
M  V30 13 C 9.778071 4.878665 -13.531573 0
M  V30 14 C 9.192333 3.555731 -13.862818 0
M  V30 15 C 7.789714 3.372655 -13.912102 0
M  V30 16 C 7.235843 2.137573 -14.302852 0
M  V30 17 C 8.079258 1.070075 -14.665941 0
M  V30 18 C 9.475496 1.245618 -14.647027 0
M  V30 19 C 10.026960 2.479688 -14.246857 0
M  V30 20 C 10.778036 5.372449 -14.509997 0
M  V30 21 C 12.050263 5.832139 -14.100309 0
M  V30 22 C 12.972188 6.322133 -15.046926 0
M  V30 23 C 12.655140 6.325756 -16.415440 0
M  V30 24 F 13.549884 6.791738 -17.317904 0
M  V30 25 C 11.407795 5.839420 -16.841034 0
M  V30 26 C 10.478465 5.370744 -15.892510 0
M  V30 27 C 8.404387 5.138316 -11.374413 0
M  V30 28 C 8.893066 5.492816 -9.951084 0
M  V30 29 O 10.854378 7.081151 -6.471113 0
M  V30 30 H 12.133924 7.075369 -3.042339 0
M  V30 31 H 11.313375 6.360070 -4.425284 0
M  V30 32 H 10.018320 8.848567 -5.843862 0
M  V30 33 H 11.285771 10.083572 -7.281459 0
M  V30 34 H 12.807826 9.464363 -6.665752 0
M  V30 35 H 12.899234 7.765847 -8.188614 0
M  V30 36 H 11.785472 8.730030 -9.125307 0
M  V30 37 H 11.185865 6.153543 -8.248612 0
M  V30 38 H 9.214950 8.488468 -8.372901 0
M  V30 39 H 8.685538 6.953808 -7.771277 0
M  V30 40 H 11.117697 6.975410 -10.628126 0
M  V30 41 H 10.253308 8.508060 -10.729529 0
M  V30 42 H 10.486002 7.460684 -12.924475 0
M  V30 43 H 8.820456 7.675420 -12.481022 0
M  V30 44 H 7.124855 4.187496 -13.664035 0
M  V30 45 H 6.163066 2.009509 -14.328122 0
M  V30 46 H 7.657618 0.120104 -14.964533 0
M  V30 47 H 10.125555 0.430573 -14.930957 0
M  V30 48 H 11.101629 2.595350 -14.237902 0
M  V30 49 H 12.320694 5.827308 -13.054871 0
M  V30 50 H 13.933319 6.689720 -14.721840 0
M  V30 51 H 11.160003 5.836732 -17.892193 0
M  V30 52 H 9.518387 5.013112 -16.235191 0
M  V30 53 H 7.428585 5.597098 -11.547891 0
M  V30 54 H 8.256370 4.061793 -11.425690 0
M  V30 55 H 9.796694 4.927688 -9.714839 0
M  V30 56 H 8.133420 5.194024 -9.227471 0
M  V30 57 H 8.261020 7.373085 -10.058489 0
M  V30 END ATOM
M  V30 BEGIN BOND
M  V30 1 1 2 1
M  V30 2 2 3 2
M  V30 3 1 4 2
M  V30 4 1 5 4
M  V30 5 1 6 5
M  V30 6 1 7 6
M  V30 7 1 8 7
M  V30 8 1 9 8
M  V30 9 1 10 9
M  V30 10 1 11 10
M  V30 11 1 12 11
M  V30 12 2 13 12
M  V30 13 1 14 13
M  V30 14 2 15 14
M  V30 15 1 16 15
M  V30 16 2 17 16
M  V30 17 1 18 17
M  V30 18 1 19 14
M  V30 19 2 19 18
M  V30 20 1 20 13
M  V30 21 1 21 20
M  V30 22 2 22 21
M  V30 23 1 23 22
M  V30 24 1 24 23
M  V30 25 2 25 23
M  V30 26 2 26 20
M  V30 27 1 26 25
M  V30 28 1 27 12
M  V30 29 1 28 9
M  V30 30 1 28 27
M  V30 31 1 29 4
M  V30 32 1 29 7
M  V30 33 1 30 1
M  V30 34 1 31 1
M  V30 35 1 4 32 CFG=1
M  V30 36 1 33 5
M  V30 37 1 34 5
M  V30 38 1 35 6
M  V30 39 1 36 6
M  V30 40 1 7 37 CFG=3
M  V30 41 1 38 8
M  V30 42 1 39 8
M  V30 43 1 40 10
M  V30 44 1 41 10
M  V30 45 1 42 11
M  V30 46 1 43 11
M  V30 47 1 44 15
M  V30 48 1 45 16
M  V30 49 1 46 17
M  V30 50 1 47 18
M  V30 51 1 48 19
M  V30 52 1 49 21
M  V30 53 1 50 22
M  V30 54 1 51 25
M  V30 55 1 52 26
M  V30 56 1 53 27
M  V30 57 1 54 27
M  V30 58 1 55 28
M  V30 59 1 56 28
M  V30 60 1 57 9
M  V30 END BOND
M  V30 END CTAB
M  END
>  <b_m_subgroup_collapsed>  (1295) 
0

>  <r_i_docking_score>  (1295) 
-7.2711278430714197

>  <s_m_subgroup_title>  (1295) 
glide-dock_SP_D22_pv

>  <s_m_subgroupid>  (1295) 
glide-dock_SP_D22_pv

>  <Molecule ChEMBL ID>  (1295) 
CHEMBL282927

>  <Standard Type>  (1295) 
Ki

>  <Standard Value>  (1295) 
100.0

>  <label>  (1295) 
1

$$$$
CHEMBL328119
     RDKit          3D

  0  0  0  0  0  0  0  0  0  0999 V3000
M  V30 BEGIN CTAB
M  V30 COUNTS 51 53 0 0 1
M  V30 BEGIN ATOM
M  V30 1 O 8.775496 2.537583 -15.827580 0
M  V30 2 S 10.210391 2.221988 -15.922375 0
M  V30 3 O 11.071496 2.917561 -16.891314 0
M  V30 4 O 10.885438 2.450756 -14.395066 0
M  V30 5 C 10.867749 3.729039 -13.914651 0
M  V30 6 C 11.977026 4.571538 -14.116819 0
M  V30 7 C 11.976603 5.868253 -13.574607 0
M  V30 8 C 10.870675 6.323257 -12.831659 0
M  V30 9 C 9.729927 5.501872 -12.655330 0
M  V30 10 C 8.470528 5.972414 -11.916261 0 CFG=2
M  V30 11 C 7.820340 7.229311 -12.520684 0
M  V30 12 C 8.518622 8.534046 -12.078096 0
M  V30 13 C 8.911306 8.600912 -10.582636 0
M  V30 14 N 9.452981 7.325860 -10.023069 0 CFG=1 CHG=1
M  V30 15 C 9.641579 7.392516 -8.548594 0
M  V30 16 C 10.828681 8.283393 -8.133321 0
M  V30 17 C 11.066506 8.322006 -6.631106 0
M  V30 18 C 11.285869 7.128099 -5.907761 0
M  V30 19 C 11.613065 7.177412 -4.538162 0
M  V30 20 C 11.686247 8.417088 -3.874170 0
M  V30 21 C 11.418978 9.606112 -4.578331 0
M  V30 22 C 11.122777 9.560259 -5.954384 0
M  V30 23 C 8.657220 6.127212 -10.397144 0
M  V30 24 C 9.751277 4.195086 -13.192221 0
M  V30 25 C 10.436803 0.393010 -16.090982 0
M  V30 26 F 9.265363 -0.165929 -16.391243 0
M  V30 27 F 11.321698 0.151462 -17.056919 0
M  V30 28 F 10.880991 -0.105269 -14.939463 0
M  V30 29 H 12.832935 4.219311 -14.674850 0
M  V30 30 H 12.836172 6.508420 -13.716078 0
M  V30 31 H 10.925868 7.312750 -12.413899 0
M  V30 32 H 7.736329 5.175338 -12.044029 0
M  V30 33 H 6.769026 7.272127 -12.246899 0
M  V30 34 H 7.750451 7.137151 -13.597275 0
M  V30 35 H 7.863607 9.372540 -12.307314 0
M  V30 36 H 9.406566 8.712062 -12.673555 0
M  V30 37 H 8.086058 8.972841 -9.981847 0
M  V30 38 H 9.671911 9.370309 -10.473112 0
M  V30 39 H 9.819980 6.383976 -8.174482 0
M  V30 40 H 8.719710 7.731275 -8.070434 0
M  V30 41 H 10.679594 9.304393 -8.483525 0
M  V30 42 H 11.744526 7.928241 -8.607629 0
M  V30 43 H 11.254899 6.168107 -6.402326 0
M  V30 44 H 11.803482 6.261877 -3.996425 0
M  V30 45 H 11.925035 8.454074 -2.821289 0
M  V30 46 H 11.450737 10.554609 -4.063138 0
M  V30 47 H 10.952536 10.484777 -6.486822 0
M  V30 48 H 9.138866 5.227245 -10.011620 0
M  V30 49 H 7.686196 6.172187 -9.906831 0
M  V30 50 H 8.906228 3.535609 -13.056411 0
M  V30 51 H 10.360390 7.181525 -10.439024 0
M  V30 END ATOM
M  V30 BEGIN BOND
M  V30 1 2 2 1
M  V30 2 2 3 2
M  V30 3 1 4 2
M  V30 4 1 5 4
M  V30 5 1 6 5
M  V30 6 2 7 6
M  V30 7 1 8 7
M  V30 8 2 9 8
M  V30 9 1 10 9
M  V30 10 1 11 10
M  V30 11 1 12 11
M  V30 12 1 13 12
M  V30 13 1 14 13
M  V30 14 1 15 14
M  V30 15 1 16 15
M  V30 16 1 17 16
M  V30 17 2 18 17
M  V30 18 1 19 18
M  V30 19 2 20 19
M  V30 20 1 21 20
M  V30 21 1 22 17
M  V30 22 2 22 21
M  V30 23 1 23 10
M  V30 24 1 23 14
M  V30 25 2 24 5
M  V30 26 1 24 9
M  V30 27 1 25 2
M  V30 28 1 26 25
M  V30 29 1 27 25
M  V30 30 1 28 25
M  V30 31 1 29 6
M  V30 32 1 30 7
M  V30 33 1 31 8
M  V30 34 1 10 32 CFG=1
M  V30 35 1 33 11
M  V30 36 1 34 11
M  V30 37 1 35 12
M  V30 38 1 36 12
M  V30 39 1 37 13
M  V30 40 1 38 13
M  V30 41 1 39 15
M  V30 42 1 40 15
M  V30 43 1 41 16
M  V30 44 1 42 16
M  V30 45 1 43 18
M  V30 46 1 44 19
M  V30 47 1 45 20
M  V30 48 1 46 21
M  V30 49 1 47 22
M  V30 50 1 48 23
M  V30 51 1 49 23
M  V30 52 1 50 24
M  V30 53 1 14 51 CFG=3
M  V30 END BOND
M  V30 END CTAB
M  END
>  <b_m_subgroup_collapsed>  (1296) 
0

>  <r_i_docking_score>  (1296) 
-7.2705853731354901

>  <s_m_subgroup_title>  (1296) 
glide-dock_SP_D22_pv

>  <s_m_subgroupid>  (1296) 
glide-dock_SP_D22_pv

>  <Molecule ChEMBL ID>  (1296) 
CHEMBL328119

>  <Standard Type>  (1296) 
Ki

>  <Standard Value>  (1296) 
73.0

>  <label>  (1296) 
1

$$$$
CHEMBL352925
     RDKit          3D

  0  0  0  0  0  0  0  0  0  0999 V3000
M  V30 BEGIN CTAB
M  V30 COUNTS 53 56 0 0 1
M  V30 BEGIN ATOM
M  V30 1 C 10.123020 0.583420 -16.135519 0
M  V30 2 C 8.815983 0.311792 -15.686777 0
M  V30 3 C 8.121616 1.258840 -14.910986 0
M  V30 4 C 8.732141 2.489640 -14.580719 0
M  V30 5 C 8.021811 3.456677 -13.741912 0
M  V30 6 N 6.690116 3.655483 -13.847065 0 CHG=1
M  V30 7 C 5.907611 4.589834 -13.019183 0
M  V30 8 C 6.803826 5.730946 -12.525089 0
M  V30 9 C 8.046231 5.127354 -11.856571 0 CFG=2
M  V30 10 C 9.087898 6.189155 -11.451535 0
M  V30 11 N 8.886107 6.822277 -10.120655 0 CHG=1
M  V30 12 C 9.058263 5.858349 -8.991559 0
M  V30 13 C 9.080949 6.536028 -7.608830 0
M  V30 14 N 10.050003 7.624901 -7.589797 0
M  V30 15 C 10.616483 8.006391 -6.353083 0
M  V30 16 C 11.122863 7.025883 -5.466846 0
M  V30 17 C 11.692021 7.391423 -4.230587 0
M  V30 18 C 11.762811 8.745208 -3.857120 0
M  V30 19 C 11.268748 9.731976 -4.728238 0
M  V30 20 C 10.718920 9.366153 -5.970128 0
M  V30 21 C 9.807611 8.632978 -8.612055 0
M  V30 22 C 9.788651 8.000665 -10.008358 0
M  V30 23 N 8.672343 4.172435 -12.797257 0
M  V30 24 C 10.040928 2.762652 -15.039619 0
M  V30 25 C 10.733943 1.809377 -15.813000 0
M  V30 26 H 10.654023 -0.146602 -16.728966 0
M  V30 27 H 8.340906 -0.627035 -15.933125 0
M  V30 28 H 7.124819 1.020822 -14.562768 0
M  V30 29 H 5.070785 4.979653 -13.598398 0
M  V30 30 H 5.490811 4.047943 -12.168553 0
M  V30 31 H 7.117235 6.371428 -13.347257 0
M  V30 32 H 6.237222 6.363452 -11.846477 0
M  V30 33 H 7.736119 4.540642 -10.992362 0
M  V30 34 H 10.086711 5.753376 -11.470160 0
M  V30 35 H 9.094168 6.970861 -12.213140 0
M  V30 36 H 8.257665 5.120501 -8.998978 0
M  V30 37 H 9.995413 5.313886 -9.123890 0
M  V30 38 H 8.089355 6.932092 -7.374105 0
M  V30 39 H 9.291095 5.780776 -6.854727 0
M  V30 40 H 11.099884 5.980422 -5.728016 0
M  V30 41 H 12.069652 6.629536 -3.566274 0
M  V30 42 H 12.187775 9.026262 -2.902438 0
M  V30 43 H 11.286189 10.771708 -4.439342 0
M  V30 44 H 10.359235 10.157092 -6.606628 0
M  V30 45 H 8.865445 9.147163 -8.409351 0
M  V30 46 H 10.604647 9.375428 -8.601250 0
M  V30 47 H 10.808148 7.694083 -10.251744 0
M  V30 48 H 9.506321 8.753305 -10.745774 0
M  V30 49 H 9.626372 3.899317 -12.610754 0
M  V30 50 H 10.526589 3.698631 -14.802114 0
M  V30 51 H 11.737085 2.016823 -16.158882 0
M  V30 52 H 6.184030 3.132586 -14.548184 0
M  V30 53 H 7.925714 7.185793 -10.077624 0
M  V30 END ATOM
M  V30 BEGIN BOND
M  V30 1 2 2 1
M  V30 2 1 3 2
M  V30 3 2 4 3
M  V30 4 1 5 4
M  V30 5 2 6 5
M  V30 6 1 7 6
M  V30 7 1 8 7
M  V30 8 1 9 8
M  V30 9 1 10 9
M  V30 10 1 11 10
M  V30 11 1 12 11
M  V30 12 1 13 12
M  V30 13 1 14 13
M  V30 14 1 15 14
M  V30 15 2 16 15
M  V30 16 1 17 16
M  V30 17 2 18 17
M  V30 18 1 19 18
M  V30 19 1 20 15
M  V30 20 2 20 19
M  V30 21 1 21 14
M  V30 22 1 22 11
M  V30 23 1 22 21
M  V30 24 1 23 5
M  V30 25 1 23 9
M  V30 26 1 24 4
M  V30 27 1 25 1
M  V30 28 2 25 24
M  V30 29 1 26 1
M  V30 30 1 27 2
M  V30 31 1 28 3
M  V30 32 1 29 7
M  V30 33 1 30 7
M  V30 34 1 31 8
M  V30 35 1 32 8
M  V30 36 1 9 33 CFG=1
M  V30 37 1 34 10
M  V30 38 1 35 10
M  V30 39 1 36 12
M  V30 40 1 37 12
M  V30 41 1 38 13
M  V30 42 1 39 13
M  V30 43 1 40 16
M  V30 44 1 41 17
M  V30 45 1 42 18
M  V30 46 1 43 19
M  V30 47 1 44 20
M  V30 48 1 45 21
M  V30 49 1 46 21
M  V30 50 1 47 22
M  V30 51 1 48 22
M  V30 52 1 49 23
M  V30 53 1 50 24
M  V30 54 1 51 25
M  V30 55 1 52 6
M  V30 56 1 53 11
M  V30 END BOND
M  V30 END CTAB
M  END
>  <b_m_subgroup_collapsed>  (1297) 
0

>  <r_i_docking_score>  (1297) 
-7.2699841167534904

>  <s_m_subgroup_title>  (1297) 
glide-dock_SP_D22_pv

>  <s_m_subgroupid>  (1297) 
glide-dock_SP_D22_pv

>  <Molecule ChEMBL ID>  (1297) 
CHEMBL352925

>  <Standard Type>  (1297) 
Ki

>  <Standard Value>  (1297) 
25000.0

>  <label>  (1297) 
0

$$$$
CHEMBL93432
     RDKit          3D

  0  0  0  0  0  0  0  0  0  0999 V3000
M  V30 BEGIN CTAB
M  V30 COUNTS 62 66 0 0 1
M  V30 BEGIN ATOM
M  V30 1 C 12.059099 6.141768 -13.453572 0
M  V30 2 C 10.641865 5.692209 -13.131369 0
M  V30 3 C 9.978445 4.644955 -13.639122 0
M  V30 4 C 10.471880 3.713571 -14.668797 0
M  V30 5 C 10.513366 2.328206 -14.413511 0
M  V30 6 C 10.885795 1.432091 -15.433830 0
M  V30 7 C 11.263433 1.921859 -16.698610 0
M  V30 8 C 11.250366 3.307096 -16.947561 0
M  V30 9 C 10.845579 4.202904 -15.938608 0
M  V30 10 N 8.650002 4.785114 -13.234674 0
M  V30 11 C 7.571474 3.839104 -13.381376 0
M  V30 12 C 7.480635 2.926413 -14.462114 0
M  V30 13 C 6.499852 1.915489 -14.483492 0
M  V30 14 C 5.560561 1.820765 -13.446450 0
M  V30 15 C 5.586542 2.766632 -12.409570 0
M  V30 16 C 6.568062 3.772321 -12.380690 0
M  V30 17 C 8.529128 5.989788 -12.646857 0
M  V30 18 O 7.462941 6.572072 -12.494256 0
M  V30 19 N 9.768306 6.458480 -12.352231 0
M  V30 20 C 10.093112 7.781753 -11.741489 0 CFG=1
M  V30 21 C 9.035380 8.376373 -10.807198 0
M  V30 22 C 8.914427 7.599604 -9.484170 0
M  V30 23 N 10.148471 7.694980 -8.700083 0 CFG=1 CHG=1
M  V30 24 C 10.004306 7.026993 -7.378422 0
M  V30 25 C 10.690866 7.778599 -6.250007 0
M  V30 26 C 10.690789 9.190848 -6.211911 0
M  V30 27 C 11.288007 9.872736 -5.134079 0
M  V30 28 C 11.893222 9.150644 -4.089700 0
M  V30 29 C 11.889535 7.742089 -4.116515 0
M  V30 30 C 11.286013 7.059773 -5.190561 0
M  V30 31 C 11.306649 7.244361 -9.495493 0
M  V30 32 C 11.401334 7.896410 -10.893223 0
M  V30 33 H 12.427405 5.685685 -14.370337 0
M  V30 34 H 12.114296 7.221727 -13.600687 0
M  V30 35 H 12.743952 5.844100 -12.658381 0
M  V30 36 H 10.217986 1.953523 -13.446886 0
M  V30 37 H 10.887692 0.369809 -15.241552 0
M  V30 38 H 11.564067 1.234299 -17.475447 0
M  V30 39 H 11.534863 3.683814 -17.917389 0
M  V30 40 H 10.806011 5.262347 -16.150993 0
M  V30 41 H 8.156693 2.972253 -15.298212 0
M  V30 42 H 6.475221 1.210278 -15.302931 0
M  V30 43 H 4.814738 1.039753 -13.456205 0
M  V30 44 H 4.886254 2.697122 -11.597268 0
M  V30 45 H 6.575373 4.435640 -11.527797 0
M  V30 46 H 10.086174 8.462728 -12.592595 0
M  V30 47 H 9.330791 9.379047 -10.540215 0
M  V30 48 H 8.086117 8.530520 -11.316037 0
M  V30 49 H 8.617787 6.562553 -9.651055 0
M  V30 50 H 8.153704 8.065041 -8.863788 0
M  V30 51 H 8.952509 6.961995 -7.089962 0
M  V30 52 H 10.359960 5.995904 -7.431190 0
M  V30 53 H 10.218083 9.765422 -6.993060 0
M  V30 54 H 11.284199 10.953260 -5.109566 0
M  V30 55 H 12.354111 9.676397 -3.263390 0
M  V30 56 H 12.344047 7.185202 -3.310112 0
M  V30 57 H 11.274778 5.978782 -5.190780 0
M  V30 58 H 11.238695 6.171724 -9.620163 0
M  V30 59 H 12.221072 7.441565 -8.934493 0
M  V30 60 H 12.290222 7.535124 -11.394931 0
M  V30 61 H 11.617278 8.956026 -10.738492 0
M  V30 62 H 10.278295 8.677946 -8.514252 0
M  V30 END ATOM
M  V30 BEGIN BOND
M  V30 1 1 2 1
M  V30 2 2 3 2
M  V30 3 1 4 3
M  V30 4 2 5 4
M  V30 5 1 6 5
M  V30 6 2 7 6
M  V30 7 1 8 7
M  V30 8 1 9 4
M  V30 9 2 9 8
M  V30 10 1 10 3
M  V30 11 1 11 10
M  V30 12 2 12 11
M  V30 13 1 13 12
M  V30 14 2 14 13
M  V30 15 1 15 14
M  V30 16 1 16 11
M  V30 17 2 16 15
M  V30 18 1 17 10
M  V30 19 2 18 17
M  V30 20 1 19 2
M  V30 21 1 19 17
M  V30 22 1 20 19
M  V30 23 1 21 20
M  V30 24 1 22 21
M  V30 25 1 23 22
M  V30 26 1 24 23
M  V30 27 1 25 24
M  V30 28 2 26 25
M  V30 29 1 27 26
M  V30 30 2 28 27
M  V30 31 1 29 28
M  V30 32 1 30 25
M  V30 33 2 30 29
M  V30 34 1 31 23
M  V30 35 1 32 20
M  V30 36 1 32 31
M  V30 37 1 33 1
M  V30 38 1 34 1
M  V30 39 1 35 1
M  V30 40 1 36 5
M  V30 41 1 37 6
M  V30 42 1 38 7
M  V30 43 1 39 8
M  V30 44 1 40 9
M  V30 45 1 41 12
M  V30 46 1 42 13
M  V30 47 1 43 14
M  V30 48 1 44 15
M  V30 49 1 45 16
M  V30 50 1 20 46 CFG=3
M  V30 51 1 47 21
M  V30 52 1 48 21
M  V30 53 1 49 22
M  V30 54 1 50 22
M  V30 55 1 51 24
M  V30 56 1 52 24
M  V30 57 1 53 26
M  V30 58 1 54 27
M  V30 59 1 55 28
M  V30 60 1 56 29
M  V30 61 1 57 30
M  V30 62 1 58 31
M  V30 63 1 59 31
M  V30 64 1 60 32
M  V30 65 1 61 32
M  V30 66 1 23 62 CFG=1
M  V30 END BOND
M  V30 END CTAB
M  END
>  <b_m_subgroup_collapsed>  (1298) 
0

>  <r_i_docking_score>  (1298) 
-7.2693282692066203

>  <s_m_subgroup_title>  (1298) 
glide-dock_SP_D22_pv

>  <s_m_subgroupid>  (1298) 
glide-dock_SP_D22_pv

>  <Molecule ChEMBL ID>  (1298) 
CHEMBL93432

>  <Standard Type>  (1298) 
Ki

>  <Standard Value>  (1298) 
8.8

>  <label>  (1298) 
1

$$$$
CHEMBL433121
     RDKit          3D

  0  0  0  0  0  0  0  0  0  0999 V3000
M  V30 BEGIN CTAB
M  V30 COUNTS 53 55 0 0 1
M  V30 BEGIN ATOM
M  V30 1 C 6.307251 8.151856 -12.646868 0
M  V30 2 C 7.839946 8.254266 -12.677679 0
M  V30 3 C 8.706601 8.338559 -11.397581 0
M  V30 4 N 8.886025 7.071035 -10.620479 0 CFG=1 CHG=1
M  V30 5 C 9.077025 5.817235 -11.414457 0
M  V30 6 C 10.063013 5.842955 -12.589417 0
M  V30 7 C 11.203622 6.677325 -12.626319 0
M  V30 8 C 12.086044 6.640603 -13.721558 0
M  V30 9 C 11.862075 5.756905 -14.799576 0
M  V30 10 N 12.806529 5.697312 -15.932077 0 CHG=1
M  V30 11 O 12.641543 4.823394 -16.777136 0
M  V30 12 O 13.712399 6.524328 -15.978083 0 CHG=-1
M  V30 13 C 10.720729 4.924509 -14.764955 0
M  V30 14 C 9.831184 4.970811 -13.674180 0
M  V30 15 C 9.750900 7.127785 -9.389978 0 CFG=2
M  V30 16 C 9.161288 6.262894 -8.262118 0
M  V30 17 C 10.089209 6.172327 -7.039675 0
M  V30 18 C 10.700107 7.477495 -6.580090 0
M  V30 19 C 10.692194 8.574701 -7.462897 0
M  V30 20 C 11.285960 9.767298 -7.046472 0
M  V30 21 C 11.820395 9.928065 -5.766796 0
M  V30 22 C 11.820404 8.847747 -4.882748 0
M  V30 23 C 11.281377 7.600535 -5.284085 0
M  V30 24 O 11.285660 6.508324 -4.445354 0
M  V30 25 C 11.808761 6.678856 -3.130564 0
M  V30 26 C 9.998423 8.544249 -8.823387 0
M  V30 27 H 5.905318 8.172293 -13.659455 0
M  V30 28 H 5.974835 7.196285 -12.246835 0
M  V30 29 H 5.843987 8.971719 -12.093987 0
M  V30 30 H 8.086134 9.180969 -13.195237 0
M  V30 31 H 8.124584 7.424859 -13.313869 0
M  V30 32 H 8.275868 9.113594 -10.764932 0
M  V30 33 H 9.686110 8.715325 -11.683492 0
M  V30 34 H 9.355837 4.985931 -10.767525 0
M  V30 35 H 8.094880 5.548146 -11.806012 0
M  V30 36 H 11.432915 7.341699 -11.807582 0
M  V30 37 H 12.955208 7.282887 -13.715143 0
M  V30 38 H 10.520353 4.238280 -15.574981 0
M  V30 39 H 8.970521 4.317322 -13.669031 0
M  V30 40 H 10.727616 6.716835 -9.649672 0
M  V30 41 H 8.211177 6.695329 -7.946568 0
M  V30 42 H 8.927243 5.253137 -8.598216 0
M  V30 43 H 10.909816 5.486794 -7.252158 0
M  V30 44 H 9.510721 5.772410 -6.217368 0
M  V30 45 H 11.286025 10.572332 -7.731366 0
M  V30 46 H 12.221887 10.877096 -5.459126 0
M  V30 47 H 12.256854 9.008411 -3.909142 0
M  V30 48 H 11.683716 5.772274 -2.548587 0
M  V30 49 H 12.876192 6.902946 -3.153907 0
M  V30 50 H 11.286300 7.465598 -2.584827 0
M  V30 51 H 9.047596 9.059508 -8.680116 0
M  V30 52 H 10.583845 9.138161 -9.526609 0
M  V30 53 H 7.936321 7.001454 -10.246524 0
M  V30 END ATOM
M  V30 BEGIN BOND
M  V30 1 1 2 1
M  V30 2 1 3 2
M  V30 3 1 4 3
M  V30 4 1 5 4
M  V30 5 1 6 5
M  V30 6 1 7 6
M  V30 7 2 8 7
M  V30 8 1 9 8
M  V30 9 1 10 9
M  V30 10 2 11 10
M  V30 11 1 12 10
M  V30 12 2 13 9
M  V30 13 2 14 6
M  V30 14 1 14 13
M  V30 15 1 15 4
M  V30 16 1 16 15
M  V30 17 1 17 16
M  V30 18 1 18 17
M  V30 19 2 19 18
M  V30 20 1 20 19
M  V30 21 2 21 20
M  V30 22 1 22 21
M  V30 23 1 23 18
M  V30 24 2 23 22
M  V30 25 1 24 23
M  V30 26 1 25 24
M  V30 27 1 26 15
M  V30 28 1 26 19
M  V30 29 1 27 1
M  V30 30 1 28 1
M  V30 31 1 29 1
M  V30 32 1 30 2
M  V30 33 1 31 2
M  V30 34 1 32 3
M  V30 35 1 33 3
M  V30 36 1 34 5
M  V30 37 1 35 5
M  V30 38 1 36 7
M  V30 39 1 37 8
M  V30 40 1 38 13
M  V30 41 1 39 14
M  V30 42 1 15 40 CFG=3
M  V30 43 1 41 16
M  V30 44 1 42 16
M  V30 45 1 43 17
M  V30 46 1 44 17
M  V30 47 1 45 20
M  V30 48 1 46 21
M  V30 49 1 47 22
M  V30 50 1 48 25
M  V30 51 1 49 25
M  V30 52 1 50 25
M  V30 53 1 51 26
M  V30 54 1 52 26
M  V30 55 1 4 53 CFG=1
M  V30 END BOND
M  V30 END CTAB
M  END
>  <b_m_subgroup_collapsed>  (1299) 
0

>  <r_i_docking_score>  (1299) 
-7.2679884322273303

>  <s_m_subgroup_title>  (1299) 
glide-dock_SP_D22_pv

>  <s_m_subgroupid>  (1299) 
glide-dock_SP_D22_pv

>  <Molecule ChEMBL ID>  (1299) 
CHEMBL433121

>  <Standard Type>  (1299) 
Ki

>  <Standard Value>  (1299) 
59.2

>  <label>  (1299) 
1

$$$$
CHEMBL1258999
     RDKit          3D

  0  0  0  0  0  0  0  0  0  0999 V3000
M  V30 BEGIN CTAB
M  V30 COUNTS 53 56 0 0 1
M  V30 BEGIN ATOM
M  V30 1 C 12.279943 9.358664 -5.597769 0
M  V30 2 C 11.481490 8.792644 -6.752083 0
M  V30 3 C 10.126327 8.485275 -6.566210 0
M  V30 4 C 9.367771 8.033444 -7.657701 0
M  V30 5 C 10.018821 7.878902 -8.897849 0
M  V30 6 C 9.237178 7.475149 -10.129158 0
M  V30 7 N 8.486386 6.220634 -9.902150 0 CHG=1
M  V30 8 C 9.070193 5.010828 -10.497965 0
M  V30 9 C 8.723276 4.825083 -11.993255 0
M  V30 10 F 8.813951 5.999658 -12.619334 0
M  V30 11 C 9.759213 3.905303 -12.677794 0
M  V30 12 C 9.371868 3.594801 -14.134780 0
M  V30 13 N 8.040336 2.973650 -14.150967 0
M  V30 14 C 7.857300 1.694199 -14.580742 0
M  V30 15 O 8.753058 1.057110 -15.134551 0
M  V30 16 C 6.531170 1.041236 -14.359017 0
M  V30 17 C 5.719248 1.021923 -13.249486 0
M  V30 18 O 4.617037 0.239193 -13.446750 0
M  V30 19 C 4.714854 -0.273565 -14.723910 0
M  V30 20 C 3.795370 -1.113768 -15.369221 0
M  V30 21 C 4.086877 -1.552017 -16.674040 0
M  V30 22 C 5.277832 -1.139236 -17.307140 0
M  V30 23 C 6.182661 -0.282803 -16.642542 0
M  V30 24 C 5.918242 0.173742 -15.329081 0
M  V30 25 C 7.014056 3.912365 -13.664193 0
M  V30 26 C 7.278537 4.301830 -12.196895 0
M  V30 27 N 11.336653 8.118549 -9.077284 0
M  V30 28 C 12.049566 8.572776 -8.024207 0
M  V30 29 H 11.792504 10.251782 -5.207535 0
M  V30 30 H 12.360044 8.629609 -4.789991 0
M  V30 31 H 13.281457 9.634231 -5.909688 0
M  V30 32 H 9.684205 8.628693 -5.597733 0
M  V30 33 H 8.309748 7.841429 -7.538022 0
M  V30 34 H 8.527136 8.273540 -10.354668 0
M  V30 35 H 9.900513 7.403520 -10.991510 0
M  V30 36 H 8.410758 6.104775 -8.901747 0
M  V30 37 H 10.143405 5.039392 -10.337833 0
M  V30 38 H 8.701160 4.172541 -9.915844 0
M  V30 39 H 10.758314 4.351836 -12.647318 0
M  V30 40 H 9.835202 2.973403 -12.121222 0
M  V30 41 H 9.359036 4.506806 -14.732635 0
M  V30 42 H 10.143448 2.965149 -14.579330 0
M  V30 43 H 5.778801 1.485869 -12.276027 0
M  V30 44 H 2.888525 -1.428086 -14.874569 0
M  V30 45 H 3.402860 -2.220663 -17.179399 0
M  V30 46 H 5.498682 -1.485332 -18.306307 0
M  V30 47 H 7.091204 0.023360 -17.138710 0
M  V30 48 H 7.078084 4.826610 -14.247195 0
M  V30 49 H 5.993577 3.559392 -13.804961 0
M  V30 50 H 7.071902 3.451842 -11.550611 0
M  V30 51 H 6.564569 5.069514 -11.894096 0
M  V30 52 H 13.092910 8.784611 -8.208698 0
M  V30 53 H 7.543013 6.395786 -10.243783 0
M  V30 END ATOM
M  V30 BEGIN BOND
M  V30 1 1 2 1
M  V30 2 1 3 2
M  V30 3 2 4 3
M  V30 4 1 5 4
M  V30 5 1 6 5
M  V30 6 1 7 6
M  V30 7 1 8 7
M  V30 8 1 9 8
M  V30 9 1 10 9
M  V30 10 1 11 9
M  V30 11 1 12 11
M  V30 12 1 13 12
M  V30 13 1 14 13
M  V30 14 2 15 14
M  V30 15 1 16 14
M  V30 16 2 17 16
M  V30 17 1 18 17
M  V30 18 1 19 18
M  V30 19 2 20 19
M  V30 20 1 21 20
M  V30 21 2 22 21
M  V30 22 1 23 22
M  V30 23 1 24 16
M  V30 24 1 24 19
M  V30 25 2 24 23
M  V30 26 1 25 13
M  V30 27 1 26 9
M  V30 28 1 26 25
M  V30 29 2 27 5
M  V30 30 2 28 2
M  V30 31 1 28 27
M  V30 32 1 29 1
M  V30 33 1 30 1
M  V30 34 1 31 1
M  V30 35 1 32 3
M  V30 36 1 33 4
M  V30 37 1 34 6
M  V30 38 1 35 6
M  V30 39 1 36 7
M  V30 40 1 37 8
M  V30 41 1 38 8
M  V30 42 1 39 11
M  V30 43 1 40 11
M  V30 44 1 41 12
M  V30 45 1 42 12
M  V30 46 1 43 17
M  V30 47 1 44 20
M  V30 48 1 45 21
M  V30 49 1 46 22
M  V30 50 1 47 23
M  V30 51 1 48 25
M  V30 52 1 49 25
M  V30 53 1 50 26
M  V30 54 1 51 26
M  V30 55 1 52 28
M  V30 56 1 53 7
M  V30 END BOND
M  V30 END CTAB
M  END
>  <b_m_subgroup_collapsed>  (1300) 
0

>  <r_i_docking_score>  (1300) 
-7.2678982843879103

>  <s_m_subgroup_title>  (1300) 
glide-dock_SP_D22_pv

>  <s_m_subgroupid>  (1300) 
glide-dock_SP_D22_pv

>  <Molecule ChEMBL ID>  (1300) 
CHEMBL1258999

>  <Standard Type>  (1300) 
Ki

>  <Standard Value>  (1300) 
27000.0

>  <label>  (1300) 
0

$$$$
CHEMBL3780812
     RDKit          3D

  0  0  0  0  0  0  0  0  0  0999 V3000
M  V30 BEGIN CTAB
M  V30 COUNTS 50 51 0 0 1
M  V30 BEGIN ATOM
M  V30 1 C 8.234891 8.901936 -12.239118 0
M  V30 2 C 9.376606 8.056569 -11.661977 0
M  V30 3 N 8.886424 7.219478 -10.538754 0 CFG=2 CHG=1
M  V30 4 C 9.252715 7.723993 -9.188333 0
M  V30 5 C 10.729591 7.503994 -8.800034 0
M  V30 6 C 11.023051 8.007095 -7.399509 0
M  V30 7 C 11.283926 9.371112 -7.175957 0
M  V30 8 C 11.517419 9.839705 -5.871872 0
M  V30 9 C 11.519365 8.949055 -4.781282 0
M  V30 10 O 11.687059 9.489058 -3.539235 0
M  V30 11 C 11.305954 7.557317 -5.000769 0
M  V30 12 O 11.312297 6.574468 -4.030931 0
M  V30 13 C 12.115248 6.747738 -2.873397 0
M  V30 14 C 11.029987 7.113459 -6.310236 0
M  V30 15 C 9.076850 5.757114 -10.702513 0
M  V30 16 C 8.320467 5.151290 -11.878572 0
M  V30 17 C 6.911612 5.146492 -11.848071 0
M  V30 18 C 6.174132 4.463378 -12.828732 0
M  V30 19 C 6.849585 3.771986 -13.846977 0
M  V30 20 C 8.255255 3.809389 -13.919513 0
M  V30 21 O 8.876912 3.099398 -14.905189 0
M  V30 22 C 9.001952 4.534532 -12.957628 0
M  V30 23 O 10.374622 4.616368 -13.015368 0
M  V30 24 C 10.926709 5.115106 -14.227867 0
M  V30 25 H 8.585414 9.557235 -13.036394 0
M  V30 26 H 7.445572 8.269594 -12.646947 0
M  V30 27 H 7.785958 9.529017 -11.468506 0
M  V30 28 H 10.175253 8.717896 -11.328506 0
M  V30 29 H 9.807807 7.436521 -12.448611 0
M  V30 30 H 8.608622 7.230622 -8.458542 0
M  V30 31 H 9.001179 8.783910 -9.130491 0
M  V30 32 H 11.398062 8.007515 -9.498878 0
M  V30 33 H 10.983284 6.445354 -8.839604 0
M  V30 34 H 11.286303 10.062504 -8.003428 0
M  V30 35 H 11.685116 10.894091 -5.704879 0
M  V30 36 H 11.639000 8.850895 -2.845682 0
M  V30 37 H 12.322831 5.776027 -2.429857 0
M  V30 38 H 13.076234 7.208256 -3.105814 0
M  V30 39 H 11.596349 7.337212 -2.118037 0
M  V30 40 H 10.836914 6.064568 -6.477185 0
M  V30 41 H 10.137991 5.538025 -10.777464 0
M  V30 42 H 8.723616 5.247511 -9.803363 0
M  V30 43 H 6.389327 5.647754 -11.047100 0
M  V30 44 H 5.095689 4.444267 -12.782228 0
M  V30 45 H 6.286900 3.210250 -14.579238 0
M  V30 46 H 9.803240 3.007083 -14.746514 0
M  V30 47 H 11.813593 5.706065 -14.001089 0
M  V30 48 H 11.236044 4.299634 -14.880691 0
M  V30 49 H 10.232718 5.758012 -14.771957 0
M  V30 50 H 7.868423 7.363561 -10.543367 0
M  V30 END ATOM
M  V30 BEGIN BOND
M  V30 1 1 2 1
M  V30 2 1 3 2
M  V30 3 1 4 3
M  V30 4 1 5 4
M  V30 5 1 6 5
M  V30 6 1 7 6
M  V30 7 2 8 7
M  V30 8 1 9 8
M  V30 9 1 10 9
M  V30 10 2 11 9
M  V30 11 1 12 11
M  V30 12 1 13 12
M  V30 13 2 14 6
M  V30 14 1 14 11
M  V30 15 1 15 3
M  V30 16 1 16 15
M  V30 17 2 17 16
M  V30 18 1 18 17
M  V30 19 2 19 18
M  V30 20 1 20 19
M  V30 21 1 21 20
M  V30 22 1 22 16
M  V30 23 2 22 20
M  V30 24 1 23 22
M  V30 25 1 24 23
M  V30 26 1 25 1
M  V30 27 1 26 1
M  V30 28 1 27 1
M  V30 29 1 28 2
M  V30 30 1 29 2
M  V30 31 1 30 4
M  V30 32 1 31 4
M  V30 33 1 32 5
M  V30 34 1 33 5
M  V30 35 1 34 7
M  V30 36 1 35 8
M  V30 37 1 36 10
M  V30 38 1 37 13
M  V30 39 1 38 13
M  V30 40 1 39 13
M  V30 41 1 40 14
M  V30 42 1 41 15
M  V30 43 1 42 15
M  V30 44 1 43 17
M  V30 45 1 44 18
M  V30 46 1 45 19
M  V30 47 1 46 21
M  V30 48 1 47 24
M  V30 49 1 48 24
M  V30 50 1 49 24
M  V30 51 1 3 50 CFG=1
M  V30 END BOND
M  V30 END CTAB
M  END
>  <b_m_subgroup_collapsed>  (1301) 
0

>  <r_i_docking_score>  (1301) 
-7.26568719709842

>  <s_m_subgroup_title>  (1301) 
glide-dock_SP_D22_pv

>  <s_m_subgroupid>  (1301) 
glide-dock_SP_D22_pv

>  <Molecule ChEMBL ID>  (1301) 
CHEMBL3780812

>  <Standard Type>  (1301) 
Ki

>  <Standard Value>  (1301) 
10000.0

>  <label>  (1301) 
0

$$$$
CHEMBL134343
     RDKit          3D

  0  0  0  0  0  0  0  0  0  0999 V3000
M  V30 BEGIN CTAB
M  V30 COUNTS 40 42 0 0 1
M  V30 BEGIN ATOM
M  V30 1 O 8.272660 0.172243 -15.484899 0
M  V30 2 C 7.544079 1.086500 -14.778388 0
M  V30 3 C 8.031519 2.400863 -14.620628 0
M  V30 4 C 7.323839 3.345890 -13.846929 0
M  V30 5 C 6.089074 2.972064 -13.260619 0
M  V30 6 C 5.590922 1.665287 -13.443148 0
M  V30 7 C 6.315844 0.721512 -14.192154 0
M  V30 8 Cl 5.686133 -0.874051 -14.382369 0
M  V30 9 C 5.326768 3.951953 -12.399123 0
M  V30 10 C 5.864699 5.383884 -12.530139 0
M  V30 11 C 7.401968 5.419541 -12.622651 0 CFG=1
M  V30 12 C 8.140308 5.014207 -11.324401 0
M  V30 13 N 8.486012 6.172306 -10.464248 0 CHG=1
M  V30 14 C 9.083121 5.772700 -9.176140 0
M  V30 15 C 9.806805 6.931985 -8.527924 0
M  V30 16 C 11.026278 7.385603 -9.073545 0
M  V30 17 C 11.739880 8.426048 -8.449209 0
M  V30 18 C 11.237072 9.010527 -7.271613 0
M  V30 19 C 10.009501 8.573609 -6.738555 0
M  V30 20 C 9.287344 7.541027 -7.366975 0
M  V30 21 O 7.860666 4.607097 -13.705517 0
M  V30 22 H 7.913885 -0.708528 -15.451713 0
M  V30 23 H 8.974693 2.677171 -15.069618 0
M  V30 24 H 4.651849 1.377633 -12.993370 0
M  V30 25 H 4.269876 3.900873 -12.649434 0
M  V30 26 H 5.411980 3.613481 -11.369524 0
M  V30 27 H 5.459408 5.816479 -13.446161 0
M  V30 28 H 5.504910 6.005135 -11.709943 0
M  V30 29 H 7.701043 6.435675 -12.881875 0
M  V30 30 H 7.562924 4.282431 -10.756871 0
M  V30 31 H 9.079054 4.519619 -11.586889 0
M  V30 32 H 9.139016 6.767686 -10.953291 0
M  V30 33 H 8.303862 5.382734 -8.518883 0
M  V30 34 H 9.802547 4.966052 -9.327647 0
M  V30 35 H 11.427032 6.932789 -9.968401 0
M  V30 36 H 12.676018 8.768216 -8.866269 0
M  V30 37 H 11.787692 9.804375 -6.786458 0
M  V30 38 H 9.622833 9.037507 -5.846957 0
M  V30 39 H 8.344460 7.214894 -6.947115 0
M  V30 40 H 7.644221 6.729528 -10.264044 0
M  V30 END ATOM
M  V30 BEGIN BOND
M  V30 1 1 2 1
M  V30 2 2 3 2
M  V30 3 1 4 3
M  V30 4 2 5 4
M  V30 5 1 6 5
M  V30 6 1 7 2
M  V30 7 2 7 6
M  V30 8 1 8 7
M  V30 9 1 9 5
M  V30 10 1 10 9
M  V30 11 1 11 10
M  V30 12 1 12 11
M  V30 13 1 13 12
M  V30 14 1 14 13
M  V30 15 1 15 14
M  V30 16 2 16 15
M  V30 17 1 17 16
M  V30 18 2 18 17
M  V30 19 1 19 18
M  V30 20 1 20 15
M  V30 21 2 20 19
M  V30 22 1 21 4
M  V30 23 1 21 11
M  V30 24 1 22 1
M  V30 25 1 23 3
M  V30 26 1 24 6
M  V30 27 1 25 9
M  V30 28 1 26 9
M  V30 29 1 27 10
M  V30 30 1 28 10
M  V30 31 1 11 29 CFG=3
M  V30 32 1 30 12
M  V30 33 1 31 12
M  V30 34 1 32 13
M  V30 35 1 33 14
M  V30 36 1 34 14
M  V30 37 1 35 16
M  V30 38 1 36 17
M  V30 39 1 37 18
M  V30 40 1 38 19
M  V30 41 1 39 20
M  V30 42 1 40 13
M  V30 END BOND
M  V30 END CTAB
M  END
>  <b_m_subgroup_collapsed>  (1302) 
0

>  <r_i_docking_score>  (1302) 
-7.2645033791337097

>  <s_m_subgroup_title>  (1302) 
glide-dock_SP_D22_pv

>  <s_m_subgroupid>  (1302) 
glide-dock_SP_D22_pv

>  <Molecule ChEMBL ID>  (1302) 
CHEMBL134343

>  <Standard Type>  (1302) 
Ki

>  <Standard Value>  (1302) 
77.0

>  <label>  (1302) 
1

$$$$
CHEMBL305392
     RDKit          3D

  0  0  0  0  0  0  0  0  0  0999 V3000
M  V30 BEGIN CTAB
M  V30 COUNTS 43 46 0 0 1
M  V30 BEGIN ATOM
M  V30 1 N 5.394109 3.255924 -12.646512 0
M  V30 2 C 6.414894 3.798413 -12.577410 0
M  V30 3 C 7.698756 4.479468 -12.494965 0
M  V30 4 C 8.479789 4.637352 -13.656254 0
M  V30 5 C 9.677902 5.372465 -13.604504 0
M  V30 6 C 10.088874 5.992331 -12.403849 0
M  V30 7 C 9.358731 5.741437 -11.216268 0
M  V30 8 C 8.169601 4.984049 -11.264863 0
M  V30 9 C 9.906994 6.297167 -9.916674 0 CFG=2
M  V30 10 C 8.991375 6.489295 -8.721862 0
M  V30 11 N 9.720941 7.431201 -7.836736 0 CFG=1 CHG=1
M  V30 12 C 10.188850 6.790401 -6.584138 0
M  V30 13 C 10.886064 7.707118 -5.588246 0
M  V30 14 C 10.704914 9.107594 -5.603929 0
M  V30 15 C 11.286486 9.906232 -4.605376 0
M  V30 16 C 12.071341 9.323388 -3.592842 0
M  V30 17 C 12.274108 7.930879 -3.581426 0
M  V30 18 C 11.684364 7.127557 -4.576830 0
M  V30 19 C 10.795840 8.068250 -8.652038 0
M  V30 20 C 10.505442 7.672322 -10.100388 0 CFG=1
M  V30 21 C 11.686360 7.595293 -11.069345 0
M  V30 22 C 11.276080 6.971406 -12.428579 0
M  V30 23 H 8.148054 4.226546 -14.599163 0
M  V30 24 H 10.241287 5.529112 -14.513969 0
M  V30 25 H 7.609221 4.812363 -10.360366 0
M  V30 26 H 10.686370 5.610885 -9.592465 0
M  V30 27 H 8.086045 6.977387 -9.046247 0
M  V30 28 H 8.708079 5.550174 -8.243111 0
M  V30 29 H 9.328845 6.352631 -6.075375 0
M  V30 30 H 10.858983 5.966794 -6.834271 0
M  V30 31 H 10.088102 9.586766 -6.347579 0
M  V30 32 H 11.122754 10.972506 -4.613693 0
M  V30 33 H 12.507767 9.942794 -2.822651 0
M  V30 34 H 12.872742 7.477515 -2.805343 0
M  V30 35 H 11.824375 6.056562 -4.544005 0
M  V30 36 H 10.811219 9.151051 -8.528616 0
M  V30 37 H 11.773905 7.688026 -8.351621 0
M  V30 38 H 9.746375 8.343390 -10.507442 0
M  V30 39 H 12.147208 8.572617 -11.213141 0
M  V30 40 H 12.459269 6.972848 -10.619710 0
M  V30 41 H 12.138350 6.491333 -12.893424 0
M  V30 42 H 10.982899 7.772270 -13.098388 0
M  V30 43 H 9.049540 8.141541 -7.579274 0
M  V30 END ATOM
M  V30 BEGIN BOND
M  V30 1 3 2 1
M  V30 2 1 3 2
M  V30 3 1 4 3
M  V30 4 2 5 4
M  V30 5 1 6 5
M  V30 6 2 7 6
M  V30 7 2 8 3
M  V30 8 1 8 7
M  V30 9 1 9 7
M  V30 10 1 10 9
M  V30 11 1 11 10
M  V30 12 1 12 11
M  V30 13 1 13 12
M  V30 14 2 14 13
M  V30 15 1 15 14
M  V30 16 2 16 15
M  V30 17 1 17 16
M  V30 18 1 18 13
M  V30 19 2 18 17
M  V30 20 1 19 11
M  V30 21 1 20 9
M  V30 22 1 20 19
M  V30 23 1 21 20
M  V30 24 1 22 6
M  V30 25 1 22 21
M  V30 26 1 23 4
M  V30 27 1 24 5
M  V30 28 1 25 8
M  V30 29 1 9 26 CFG=1
M  V30 30 1 27 10
M  V30 31 1 28 10
M  V30 32 1 29 12
M  V30 33 1 30 12
M  V30 34 1 31 14
M  V30 35 1 32 15
M  V30 36 1 33 16
M  V30 37 1 34 17
M  V30 38 1 35 18
M  V30 39 1 36 19
M  V30 40 1 37 19
M  V30 41 1 20 38 CFG=3
M  V30 42 1 39 21
M  V30 43 1 40 21
M  V30 44 1 41 22
M  V30 45 1 42 22
M  V30 46 1 11 43 CFG=1
M  V30 END BOND
M  V30 END CTAB
M  END
>  <b_m_subgroup_collapsed>  (1303) 
0

>  <r_i_docking_score>  (1303) 
-7.2642249917705204

>  <s_m_subgroup_title>  (1303) 
glide-dock_SP_D22_pv

>  <s_m_subgroupid>  (1303) 
glide-dock_SP_D22_pv

>  <Molecule ChEMBL ID>  (1303) 
CHEMBL305392

>  <Standard Type>  (1303) 
Ki

>  <Standard Value>  (1303) 
10.0

>  <label>  (1303) 
1

$$$$
CHEMBL5420316
     RDKit          3D

  0  0  0  0  0  0  0  0  0  0999 V3000
M  V30 BEGIN CTAB
M  V30 COUNTS 59 61 0 0 1
M  V30 BEGIN ATOM
M  V30 1 C 12.059936 6.568785 -3.116820 0
M  V30 2 N 12.167531 8.027213 -2.979628 0
M  V30 3 C 12.734783 8.454240 -1.695791 0
M  V30 4 C 11.686030 9.001961 -3.799727 0
M  V30 5 O 11.683532 10.171116 -3.419104 0
M  V30 6 N 11.312559 8.720788 -5.076307 0
M  V30 7 C 10.937626 9.826945 -5.963378 0
M  V30 8 C 10.536781 9.219882 -7.302742 0
M  V30 9 C 10.119053 7.800628 -6.961940 0 CFG=1
M  V30 10 O 8.747731 7.764175 -6.647116 0
M  V30 11 C 10.373183 6.786363 -8.077041 0
M  V30 12 C 9.432286 6.940195 -9.274460 0
M  V30 13 C 9.933075 6.090340 -10.432988 0
M  V30 14 N 8.866922 5.824851 -11.416699 0 CHG=1
M  V30 15 C 9.416391 5.665986 -12.782039 0
M  V30 16 C 8.297331 5.376000 -13.803707 0
M  V30 17 N 7.429339 4.284825 -13.364814 0
M  V30 18 C 7.430623 2.978233 -13.917079 0
M  V30 19 C 6.209590 2.261902 -13.845110 0
M  V30 20 C 6.105157 0.930125 -14.277857 0
M  V30 21 C 7.223576 0.290634 -14.831035 0
M  V30 22 C 8.442367 0.980817 -14.945443 0
M  V30 23 Cl 9.799884 0.158976 -15.631830 0
M  V30 24 C 8.561284 2.317489 -14.496305 0
M  V30 25 Cl 10.125899 3.047792 -14.639065 0
M  V30 26 C 6.893367 4.445917 -12.013428 0
M  V30 27 C 8.051497 4.650591 -11.032796 0
M  V30 28 C 10.893848 7.456955 -5.688787 0
M  V30 29 H 12.480422 6.216939 -4.051814 0
M  V30 30 H 12.603495 6.019374 -2.348242 0
M  V30 31 H 11.021688 6.246279 -3.043154 0
M  V30 32 H 12.068277 9.129526 -1.156669 0
M  V30 33 H 12.909440 7.615443 -1.037502 0
M  V30 34 H 13.682479 8.972328 -1.845567 0
M  V30 35 H 10.088880 10.341863 -5.510005 0
M  V30 36 H 11.747035 10.549271 -6.082729 0
M  V30 37 H 11.406156 9.211820 -7.962343 0
M  V30 38 H 9.742944 9.771734 -7.803735 0
M  V30 39 H 8.220172 7.785525 -7.435220 0
M  V30 40 H 11.407856 6.883016 -8.406325 0
M  V30 41 H 10.274708 5.773469 -7.679827 0
M  V30 42 H 8.428061 6.636038 -8.980235 0
M  V30 43 H 9.360480 7.981985 -9.591300 0
M  V30 44 H 10.773033 6.609836 -10.897049 0
M  V30 45 H 10.322996 5.141729 -10.061471 0
M  V30 46 H 9.957605 6.570388 -13.050179 0
M  V30 47 H 10.153600 4.865973 -12.759065 0
M  V30 48 H 7.687466 6.276696 -13.845776 0
M  V30 49 H 8.678514 5.220965 -14.812432 0
M  V30 50 H 5.324996 2.734311 -13.443237 0
M  V30 51 H 5.163923 0.405154 -14.202452 0
M  V30 52 H 7.143466 -0.730232 -15.173370 0
M  V30 53 H 6.220180 5.305060 -11.989647 0
M  V30 54 H 6.308053 3.587692 -11.684072 0
M  V30 55 H 8.695774 3.773090 -11.055720 0
M  V30 56 H 7.688397 4.755757 -10.013553 0
M  V30 57 H 10.282684 6.834283 -5.037018 0
M  V30 58 H 11.784065 6.892396 -5.960386 0
M  V30 59 H 8.245970 6.626020 -11.419813 0
M  V30 END ATOM
M  V30 BEGIN BOND
M  V30 1 1 2 1
M  V30 2 1 3 2
M  V30 3 1 4 2
M  V30 4 2 5 4
M  V30 5 1 6 4
M  V30 6 1 7 6
M  V30 7 1 8 7
M  V30 8 1 9 8
M  V30 9 1 9 10 CFG=1
M  V30 10 1 11 9
M  V30 11 1 12 11
M  V30 12 1 13 12
M  V30 13 1 14 13
M  V30 14 1 15 14
M  V30 15 1 16 15
M  V30 16 1 17 16
M  V30 17 1 18 17
M  V30 18 2 19 18
M  V30 19 1 20 19
M  V30 20 2 21 20
M  V30 21 1 22 21
M  V30 22 1 23 22
M  V30 23 1 24 18
M  V30 24 2 24 22
M  V30 25 1 25 24
M  V30 26 1 26 17
M  V30 27 1 27 14
M  V30 28 1 27 26
M  V30 29 1 28 6
M  V30 30 1 28 9
M  V30 31 1 29 1
M  V30 32 1 30 1
M  V30 33 1 31 1
M  V30 34 1 32 3
M  V30 35 1 33 3
M  V30 36 1 34 3
M  V30 37 1 35 7
M  V30 38 1 36 7
M  V30 39 1 37 8
M  V30 40 1 38 8
M  V30 41 1 39 10
M  V30 42 1 40 11
M  V30 43 1 41 11
M  V30 44 1 42 12
M  V30 45 1 43 12
M  V30 46 1 44 13
M  V30 47 1 45 13
M  V30 48 1 46 15
M  V30 49 1 47 15
M  V30 50 1 48 16
M  V30 51 1 49 16
M  V30 52 1 50 19
M  V30 53 1 51 20
M  V30 54 1 52 21
M  V30 55 1 53 26
M  V30 56 1 54 26
M  V30 57 1 55 27
M  V30 58 1 56 27
M  V30 59 1 57 28
M  V30 60 1 58 28
M  V30 61 1 59 14
M  V30 END BOND
M  V30 END CTAB
M  END
>  <b_m_subgroup_collapsed>  (1304) 
0

>  <r_i_docking_score>  (1304) 
-7.2639697849828098

>  <s_m_subgroup_title>  (1304) 
glide-dock_SP_D22_pv

>  <s_m_subgroupid>  (1304) 
glide-dock_SP_D22_pv

>  <Molecule ChEMBL ID>  (1304) 
CHEMBL5420316

>  <Standard Type>  (1304) 
Ki

>  <Standard Value>  (1304) 
89.8

>  <label>  (1304) 
1

$$$$
CHEMBL87478
     RDKit          3D

  0  0  0  0  0  0  0  0  0  0999 V3000
M  V30 BEGIN CTAB
M  V30 COUNTS 69 73 0 0 1
M  V30 BEGIN ATOM
M  V30 1 C 4.032136 -1.295249 -17.634312 0
M  V30 2 C 5.064748 -0.189265 -17.371748 0
M  V30 3 C 6.456275 -0.520267 -17.928011 0
M  V30 4 S 7.641003 0.813568 -17.577299 0
M  V30 5 C 9.220432 0.313767 -18.217585 0
M  V30 6 C 9.272557 -0.297708 -19.489651 0
M  V30 7 C 10.509071 -0.627305 -20.074341 0
M  V30 8 C 11.705774 -0.353588 -19.388649 0
M  V30 9 C 11.664426 0.250045 -18.121216 0
M  V30 10 C 10.431242 0.582614 -17.520828 0
M  V30 11 N 10.459420 1.207027 -16.263798 0
M  V30 12 C 9.844023 0.633253 -15.079380 0
M  V30 13 C 8.969436 1.695789 -14.381916 0
M  V30 14 N 9.717488 2.933887 -14.115945 0
M  V30 15 C 8.796099 3.890474 -13.501525 0
M  V30 16 C 9.529232 5.059628 -12.826054 0
M  V30 17 C 8.559234 6.173869 -12.403179 0
M  V30 18 O 9.302518 7.279182 -11.905313 0
M  V30 19 C 9.686183 7.303148 -10.584148 0
M  V30 20 C 10.514239 8.374796 -10.204762 0
M  V30 21 C 10.909693 8.542970 -8.867908 0
M  V30 22 C 10.480452 7.629869 -7.885222 0
M  V30 23 C 10.889789 7.822636 -6.505498 0
M  V30 24 N 10.952668 9.030114 -5.936080 0
M  V30 25 C 11.427930 8.753025 -4.671041 0
M  V30 26 C 11.685900 9.608327 -3.582074 0
M  V30 27 C 12.217041 9.099079 -2.381716 0
M  V30 28 C 12.456762 7.719985 -2.242779 0
M  V30 29 C 12.141831 6.835128 -3.287739 0
M  V30 30 C 11.654893 7.360922 -4.493681 0
M  V30 31 N 11.271317 6.811380 -5.699680 0
M  V30 32 C 9.687346 6.526043 -8.259706 0
M  V30 33 C 9.292994 6.360181 -9.600461 0
M  V30 34 C 10.238423 3.466341 -15.386835 0
M  V30 35 C 11.179265 2.452536 -16.064386 0
M  V30 36 H 3.054057 -1.026102 -17.233534 0
M  V30 37 H 3.910094 -1.476794 -18.703571 0
M  V30 38 H 4.328482 -2.234903 -17.163702 0
M  V30 39 H 5.133096 -0.011196 -16.297064 0
M  V30 40 H 4.713997 0.742228 -17.819412 0
M  V30 41 H 6.390112 -0.673884 -19.005430 0
M  V30 42 H 6.829103 -1.446721 -17.488386 0
M  V30 43 H 8.368413 -0.486341 -20.046240 0
M  V30 44 H 10.537468 -1.083255 -21.053148 0
M  V30 45 H 12.656320 -0.606813 -19.837315 0
M  V30 46 H 12.587109 0.458164 -17.602674 0
M  V30 47 H 9.246944 -0.242208 -15.339478 0
M  V30 48 H 10.628490 0.290695 -14.404195 0
M  V30 49 H 8.096325 1.919426 -14.998927 0
M  V30 50 H 8.598717 1.278976 -13.446890 0
M  V30 51 H 8.084593 4.254517 -14.246242 0
M  V30 52 H 8.206960 3.388871 -12.733789 0
M  V30 53 H 10.085467 4.691561 -11.962157 0
M  V30 54 H 10.265734 5.502949 -13.496408 0
M  V30 55 H 8.020495 6.528848 -13.282938 0
M  V30 56 H 7.789998 5.824440 -11.713162 0
M  V30 57 H 10.842118 9.079865 -10.953218 0
M  V30 58 H 11.539152 9.375197 -8.599432 0
M  V30 59 H 11.474421 10.658692 -3.673057 0
M  V30 60 H 12.436164 9.771845 -1.566095 0
M  V30 61 H 12.878501 7.338739 -1.323843 0
M  V30 62 H 12.294973 5.772391 -3.171839 0
M  V30 63 H 11.267088 5.834901 -5.963535 0
M  V30 64 H 9.352182 5.817276 -7.515271 0
M  V30 65 H 8.659369 5.517985 -9.835931 0
M  V30 66 H 9.410799 3.708377 -16.057966 0
M  V30 67 H 10.788691 4.391372 -15.220130 0
M  V30 68 H 12.061775 2.271852 -15.447258 0
M  V30 69 H 11.528472 2.853826 -17.015129 0
M  V30 END ATOM
M  V30 BEGIN BOND
M  V30 1 1 2 1
M  V30 2 1 3 2
M  V30 3 1 4 3
M  V30 4 1 5 4
M  V30 5 2 6 5
M  V30 6 1 7 6
M  V30 7 2 8 7
M  V30 8 1 9 8
M  V30 9 1 10 5
M  V30 10 2 10 9
M  V30 11 1 11 10
M  V30 12 1 12 11
M  V30 13 1 13 12
M  V30 14 1 14 13
M  V30 15 1 15 14
M  V30 16 1 16 15
M  V30 17 1 17 16
M  V30 18 1 18 17
M  V30 19 1 19 18
M  V30 20 1 20 19
M  V30 21 2 21 20
M  V30 22 1 22 21
M  V30 23 1 23 22
M  V30 24 2 24 23
M  V30 25 1 25 24
M  V30 26 2 26 25
M  V30 27 1 27 26
M  V30 28 2 28 27
M  V30 29 1 29 28
M  V30 30 1 30 25
M  V30 31 2 30 29
M  V30 32 1 31 23
M  V30 33 1 31 30
M  V30 34 2 32 22
M  V30 35 2 33 19
M  V30 36 1 33 32
M  V30 37 1 34 14
M  V30 38 1 35 11
M  V30 39 1 35 34
M  V30 40 1 36 1
M  V30 41 1 37 1
M  V30 42 1 38 1
M  V30 43 1 39 2
M  V30 44 1 40 2
M  V30 45 1 41 3
M  V30 46 1 42 3
M  V30 47 1 43 6
M  V30 48 1 44 7
M  V30 49 1 45 8
M  V30 50 1 46 9
M  V30 51 1 47 12
M  V30 52 1 48 12
M  V30 53 1 49 13
M  V30 54 1 50 13
M  V30 55 1 51 15
M  V30 56 1 52 15
M  V30 57 1 53 16
M  V30 58 1 54 16
M  V30 59 1 55 17
M  V30 60 1 56 17
M  V30 61 1 57 20
M  V30 62 1 58 21
M  V30 63 1 59 26
M  V30 64 1 60 27
M  V30 65 1 61 28
M  V30 66 1 62 29
M  V30 67 1 63 31
M  V30 68 1 64 32
M  V30 69 1 65 33
M  V30 70 1 66 34
M  V30 71 1 67 34
M  V30 72 1 68 35
M  V30 73 1 69 35
M  V30 END BOND
M  V30 END CTAB
M  END
>  <b_m_subgroup_collapsed>  (1305) 
0

>  <r_i_docking_score>  (1305) 
-7.2633373116747704

>  <s_m_subgroup_title>  (1305) 
glide-dock_SP_D22_pv

>  <s_m_subgroupid>  (1305) 
glide-dock_SP_D22_pv

>  <Molecule ChEMBL ID>  (1305) 
CHEMBL87478

>  <Standard Type>  (1305) 
Ki

>  <Standard Value>  (1305) 
8.0

>  <label>  (1305) 
1

$$$$
CHEMBL5789483
     RDKit          3D

  0  0  0  0  0  0  0  0  0  0999 V3000
M  V30 BEGIN CTAB
M  V30 COUNTS 58 60 0 0 1
M  V30 BEGIN ATOM
M  V30 1 C 12.485508 4.704264 -14.108023 0
M  V30 2 C 11.095768 5.279011 -14.398554 0
M  V30 3 N 10.009386 4.357816 -14.012710 0
M  V30 4 C 9.623472 4.307170 -12.591700 0
M  V30 5 C 8.719196 5.485823 -12.208958 0
M  V30 6 C 8.379882 5.517318 -10.704701 0
M  V30 7 N 9.471527 5.955914 -9.824860 0
M  V30 8 C 9.741368 7.391376 -10.004649 0
M  V30 9 C 10.848701 7.873314 -9.045469 0
M  V30 10 N 10.485222 7.579659 -7.663574 0
M  V30 11 C 10.876414 8.451356 -6.629907 0
M  V30 12 N 10.886368 9.770969 -6.784525 0
M  V30 13 O 11.297024 10.346702 -5.552791 0
M  V30 14 C 11.595632 9.341378 -4.650652 0
M  V30 15 C 12.083385 9.399566 -3.338483 0
M  V30 16 C 12.334373 8.185149 -2.675978 0
M  V30 17 F 12.828638 8.199831 -1.419753 0
M  V30 18 C 12.083461 6.956236 -3.325515 0
M  V30 19 C 11.579036 6.922570 -4.646329 0
M  V30 20 C 11.326346 8.140840 -5.319225 0
M  V30 21 C 10.066245 6.210561 -7.411503 0
M  V30 22 C 9.007595 5.770020 -8.442826 0
M  V30 23 S 9.285601 3.266793 -15.156921 0
M  V30 24 O 9.439436 3.857602 -16.494761 0
M  V30 25 O 7.937557 2.962637 -14.648921 0
M  V30 26 C 10.327047 1.726227 -15.046303 0 CFG=1
M  V30 27 C 9.446433 0.532699 -14.642865 0
M  V30 28 C 11.032508 1.410186 -16.380713 0
M  V30 29 O 12.086058 2.302566 -16.659410 0
M  V30 30 H 13.258525 5.396081 -14.440956 0
M  V30 31 H 12.639444 4.534424 -13.046927 0
M  V30 32 H 12.648703 3.766004 -14.627524 0
M  V30 33 H 11.010461 5.521197 -15.457170 0
M  V30 34 H 10.979485 6.222733 -13.868220 0
M  V30 35 H 9.109987 3.372101 -12.384689 0
M  V30 36 H 10.499160 4.300031 -11.957787 0
M  V30 37 H 9.142022 6.432985 -12.536767 0
M  V30 38 H 7.785101 5.385319 -12.764992 0
M  V30 39 H 7.525371 6.172229 -10.559795 0
M  V30 40 H 8.046616 4.523160 -10.404179 0
M  V30 41 H 10.065500 7.593215 -11.023685 0
M  V30 42 H 8.833535 7.973343 -9.840399 0
M  V30 43 H 11.789078 7.373306 -9.278356 0
M  V30 44 H 11.017953 8.940239 -9.194852 0
M  V30 45 H 12.273031 10.344533 -2.851804 0
M  V30 46 H 12.282367 6.029014 -2.807537 0
M  V30 47 H 11.414803 5.969109 -5.123609 0
M  V30 48 H 10.934604 5.552294 -7.448677 0
M  V30 49 H 9.626727 6.149478 -6.416391 0
M  V30 50 H 8.087521 6.333401 -8.281997 0
M  V30 51 H 8.764495 4.719874 -8.274335 0
M  V30 52 H 11.057167 1.889344 -14.254833 0
M  V30 53 H 10.057159 -0.353001 -14.467186 0
M  V30 54 H 8.887513 0.731386 -13.730026 0
M  V30 55 H 8.721618 0.291749 -15.421488 0
M  V30 56 H 10.319429 1.433450 -17.205704 0
M  V30 57 H 11.455289 0.405829 -16.359728 0
M  V30 58 H 12.807092 2.120131 -16.073689 0
M  V30 END ATOM
M  V30 BEGIN BOND
M  V30 1 1 2 1
M  V30 2 1 3 2
M  V30 3 1 4 3
M  V30 4 1 5 4
M  V30 5 1 6 5
M  V30 6 1 7 6
M  V30 7 1 8 7
M  V30 8 1 9 8
M  V30 9 1 10 9
M  V30 10 1 11 10
M  V30 11 2 12 11
M  V30 12 1 13 12
M  V30 13 1 14 13
M  V30 14 1 15 14
M  V30 15 2 16 15
M  V30 16 1 17 16
M  V30 17 1 18 16
M  V30 18 2 19 18
M  V30 19 1 20 11
M  V30 20 2 20 14
M  V30 21 1 20 19
M  V30 22 1 21 10
M  V30 23 1 22 7
M  V30 24 1 22 21
M  V30 25 1 23 3
M  V30 26 2 24 23
M  V30 27 2 25 23
M  V30 28 1 26 23
M  V30 29 1 27 26
M  V30 30 1 28 26
M  V30 31 1 29 28
M  V30 32 1 30 1
M  V30 33 1 31 1
M  V30 34 1 32 1
M  V30 35 1 33 2
M  V30 36 1 34 2
M  V30 37 1 35 4
M  V30 38 1 36 4
M  V30 39 1 37 5
M  V30 40 1 38 5
M  V30 41 1 39 6
M  V30 42 1 40 6
M  V30 43 1 41 8
M  V30 44 1 42 8
M  V30 45 1 43 9
M  V30 46 1 44 9
M  V30 47 1 45 15
M  V30 48 1 46 18
M  V30 49 1 47 19
M  V30 50 1 48 21
M  V30 51 1 49 21
M  V30 52 1 50 22
M  V30 53 1 51 22
M  V30 54 1 26 52 CFG=1
M  V30 55 1 53 27
M  V30 56 1 54 27
M  V30 57 1 55 27
M  V30 58 1 56 28
M  V30 59 1 57 28
M  V30 60 1 58 29
M  V30 END BOND
M  V30 END CTAB
M  END
>  <b_m_subgroup_collapsed>  (1306) 
0

>  <r_i_docking_score>  (1306) 
-7.2631633981715202

>  <s_m_subgroup_title>  (1306) 
glide-dock_SP_D22_pv

>  <s_m_subgroupid>  (1306) 
glide-dock_SP_D22_pv

>  <Molecule ChEMBL ID>  (1306) 
CHEMBL5789483

>  <Standard Type>  (1306) 
Ki

>  <Standard Value>  (1306) 
78.0

>  <label>  (1306) 
1

$$$$
CHEMBL2031884
     RDKit          3D

  0  0  0  0  0  0  0  0  0  0999 V3000
M  V30 BEGIN CTAB
M  V30 COUNTS 62 65 0 0 1
M  V30 BEGIN ATOM
M  V30 1 C 12.279353 8.031775 -2.391027 0
M  V30 2 C 12.306332 9.299375 -3.251566 0
M  V30 3 N 12.035006 8.975348 -4.648250 0
M  V30 4 C 11.151302 9.610170 -5.430992 0
M  V30 5 O 10.486214 10.571305 -5.047079 0
M  V30 6 C 10.973200 9.024240 -6.804637 0
M  V30 7 C 12.086021 8.744780 -7.623245 0
M  V30 8 C 11.918956 8.178074 -8.903075 0
M  V30 9 C 10.633305 7.886693 -9.416926 0
M  V30 10 C 10.466721 7.223110 -10.736938 0
M  V30 11 C 9.369620 6.360342 -10.979386 0
M  V30 12 C 9.249084 5.641324 -12.185686 0
M  V30 13 C 10.230469 5.757636 -13.192697 0
M  V30 14 C 11.322349 6.627542 -12.973536 0
M  V30 15 C 11.421958 7.372015 -11.773786 0
M  V30 16 C 12.400302 6.729102 -14.031829 0
M  V30 17 C 11.839752 6.492830 -15.437214 0
M  V30 18 N 10.904713 5.359692 -15.514182 0
M  V30 19 C 10.841601 4.728232 -16.839941 0
M  V30 20 C 9.912079 5.514204 -17.786066 0
M  V30 21 N 9.957208 4.991929 -19.173895 0 CFG=1 CHG=1
M  V30 22 C 9.298769 3.684591 -19.394115 0
M  V30 23 C 8.850194 3.665410 -20.864378 0
M  V30 24 C 9.360551 4.980459 -21.461309 0
M  V30 25 C 9.518376 5.909618 -20.254438 0 CFG=1
M  V30 26 C 8.208225 6.668245 -19.950832 0
M  V30 27 C 10.112143 4.972340 -14.481030 0
M  V30 28 O 9.286789 4.063179 -14.582730 0
M  V30 29 C 9.520776 8.206790 -8.601918 0
M  V30 30 C 9.685622 8.762134 -7.315423 0
M  V30 31 H 12.547708 8.261309 -1.359791 0
M  V30 32 H 11.286306 7.583515 -2.381152 0
M  V30 33 H 12.976192 7.281417 -2.763964 0
M  V30 34 H 13.285843 9.771570 -3.192926 0
M  V30 35 H 11.588902 10.020845 -2.854853 0
M  V30 36 H 12.511188 8.176536 -5.038820 0
M  V30 37 H 13.084611 8.972278 -7.278260 0
M  V30 38 H 12.802646 7.956930 -9.482264 0
M  V30 39 H 8.607042 6.216679 -10.226523 0
M  V30 40 H 8.398802 4.987960 -12.320978 0
M  V30 41 H 12.270594 8.026149 -11.637515 0
M  V30 42 H 12.912846 7.690288 -13.975131 0
M  V30 43 H 13.137499 5.951219 -13.843871 0
M  V30 44 H 11.288250 7.372269 -15.754776 0
M  V30 45 H 12.668097 6.385221 -16.138668 0
M  V30 46 H 11.844465 4.669328 -17.264851 0
M  V30 47 H 10.510318 3.691215 -16.757179 0
M  V30 48 H 8.887160 5.506374 -17.414171 0
M  V30 49 H 10.234806 6.555351 -17.809500 0
M  V30 50 H 9.991966 2.873935 -19.168669 0
M  V30 51 H 8.436625 3.572630 -18.736216 0
M  V30 52 H 9.241829 2.801508 -21.404522 0
M  V30 53 H 7.760537 3.622770 -20.922827 0
M  V30 54 H 10.335092 4.816061 -21.925175 0
M  V30 55 H 8.699760 5.379566 -22.231792 0
M  V30 56 H 10.305065 6.643311 -20.440990 0
M  V30 57 H 7.964756 7.347999 -20.768105 0
M  V30 58 H 7.362090 5.991271 -19.846487 0
M  V30 59 H 8.274624 7.275726 -19.047590 0
M  V30 60 H 8.516720 8.018394 -8.955021 0
M  V30 61 H 8.809934 8.971602 -6.717106 0
M  V30 62 H 10.933818 4.831630 -19.376698 0
M  V30 END ATOM
M  V30 BEGIN BOND
M  V30 1 1 2 1
M  V30 2 1 3 2
M  V30 3 1 4 3
M  V30 4 2 5 4
M  V30 5 1 6 4
M  V30 6 1 7 6
M  V30 7 2 8 7
M  V30 8 1 9 8
M  V30 9 1 10 9
M  V30 10 1 11 10
M  V30 11 2 12 11
M  V30 12 1 13 12
M  V30 13 2 14 13
M  V30 14 2 15 10
M  V30 15 1 15 14
M  V30 16 1 16 14
M  V30 17 1 17 16
M  V30 18 1 18 17
M  V30 19 1 19 18
M  V30 20 1 20 19
M  V30 21 1 21 20
M  V30 22 1 22 21
M  V30 23 1 23 22
M  V30 24 1 24 23
M  V30 25 1 25 21
M  V30 26 1 25 24
M  V30 27 1 26 25
M  V30 28 1 27 13
M  V30 29 1 27 18
M  V30 30 2 28 27
M  V30 31 2 29 9
M  V30 32 2 30 6
M  V30 33 1 30 29
M  V30 34 1 31 1
M  V30 35 1 32 1
M  V30 36 1 33 1
M  V30 37 1 34 2
M  V30 38 1 35 2
M  V30 39 1 36 3
M  V30 40 1 37 7
M  V30 41 1 38 8
M  V30 42 1 39 11
M  V30 43 1 40 12
M  V30 44 1 41 15
M  V30 45 1 42 16
M  V30 46 1 43 16
M  V30 47 1 44 17
M  V30 48 1 45 17
M  V30 49 1 46 19
M  V30 50 1 47 19
M  V30 51 1 48 20
M  V30 52 1 49 20
M  V30 53 1 50 22
M  V30 54 1 51 22
M  V30 55 1 52 23
M  V30 56 1 53 23
M  V30 57 1 54 24
M  V30 58 1 55 24
M  V30 59 1 25 56 CFG=3
M  V30 60 1 57 26
M  V30 61 1 58 26
M  V30 62 1 59 26
M  V30 63 1 60 29
M  V30 64 1 61 30
M  V30 65 1 21 62 CFG=3
M  V30 END BOND
M  V30 END CTAB
M  END
>  <b_m_subgroup_collapsed>  (1307) 
0

>  <r_i_docking_score>  (1307) 
-7.2628640538928897

>  <s_m_subgroup_title>  (1307) 
glide-dock_SP_D22_pv

>  <s_m_subgroupid>  (1307) 
glide-dock_SP_D22_pv

>  <Molecule ChEMBL ID>  (1307) 
CHEMBL2031884

>  <Standard Type>  (1307) 
Ki

>  <Standard Value>  (1307) 
10000.0

>  <label>  (1307) 
0

$$$$
CHEMBL110888
     RDKit          3D

  0  0  0  0  0  0  0  0  0  0999 V3000
M  V30 BEGIN CTAB
M  V30 COUNTS 44 45 0 0 1
M  V30 BEGIN ATOM
M  V30 1 C 8.718373 4.170805 -8.720240 0
M  V30 2 C 9.687859 5.328712 -8.806034 0
M  V30 3 C 8.965523 6.663757 -8.595793 0
M  V30 4 N 9.918932 7.806367 -8.663444 0 CHG=1
M  V30 5 C 9.445495 8.850994 -9.618436 0
M  V30 6 C 9.386811 8.361966 -11.083739 0
M  V30 7 C 10.713181 7.775135 -11.589096 0
M  V30 8 C 10.319454 8.312843 -7.303804 0 CFG=2
M  V30 9 C 11.456222 9.363392 -7.321977 0
M  V30 10 C 11.677734 9.990582 -5.933375 0
M  V30 11 C 11.765510 8.957780 -4.826518 0
M  V30 12 N 12.259901 9.381397 -3.646697 0
M  V30 13 C 12.398001 8.484408 -2.651771 0
M  V30 14 N 12.886106 8.972324 -1.452316 0
M  V30 15 C 12.085564 7.123100 -2.785670 0
M  V30 16 C 11.562573 6.693848 -4.015259 0
M  V30 17 C 11.366479 7.624918 -5.048136 0
M  V30 18 C 10.793116 7.166488 -6.371458 0
M  V30 19 H 9.255109 3.225483 -8.646851 0
M  V30 20 H 8.083378 4.251266 -7.846876 0
M  V30 21 H 8.076457 4.172233 -9.600387 0
M  V30 22 H 10.163538 5.298151 -9.783376 0
M  V30 23 H 10.478256 5.174345 -8.079444 0
M  V30 24 H 8.409462 6.676372 -7.657507 0
M  V30 25 H 8.187406 6.723637 -9.352170 0
M  V30 26 H 8.472943 9.223652 -9.298427 0
M  V30 27 H 10.106381 9.710092 -9.621162 0
M  V30 28 H 8.588853 7.636480 -11.239035 0
M  V30 29 H 9.108251 9.205112 -11.715987 0
M  V30 30 H 10.676757 7.613862 -12.665056 0
M  V30 31 H 11.552991 8.436176 -11.375312 0
M  V30 32 H 10.924229 6.813736 -11.132710 0
M  V30 33 H 9.434138 8.775143 -6.861715 0
M  V30 34 H 12.380591 8.885654 -7.651385 0
M  V30 35 H 11.285937 10.171914 -8.017321 0
M  V30 36 H 10.859224 10.671134 -5.695887 0
M  V30 37 H 12.590982 10.585987 -5.941307 0
M  V30 38 H 13.134960 8.362261 -0.690412 0
M  V30 39 H 13.271355 9.915111 -1.438258 0
M  V30 40 H 12.218959 6.424568 -1.972652 0
M  V30 41 H 11.286255 5.669678 -4.167666 0
M  V30 42 H 11.587194 6.598586 -6.857365 0
M  V30 43 H 9.985146 6.471844 -6.142332 0
M  V30 44 H 10.758578 7.436233 -9.083752 0
M  V30 END ATOM
M  V30 BEGIN BOND
M  V30 1 1 2 1
M  V30 2 1 3 2
M  V30 3 1 4 3
M  V30 4 1 5 4
M  V30 5 1 6 5
M  V30 6 1 7 6
M  V30 7 1 8 4
M  V30 8 1 9 8
M  V30 9 1 10 9
M  V30 10 1 11 10
M  V30 11 1 12 11
M  V30 12 2 13 12
M  V30 13 1 14 13
M  V30 14 1 15 13
M  V30 15 2 16 15
M  V30 16 2 17 11
M  V30 17 1 17 16
M  V30 18 1 18 8
M  V30 19 1 18 17
M  V30 20 1 19 1
M  V30 21 1 20 1
M  V30 22 1 21 1
M  V30 23 1 22 2
M  V30 24 1 23 2
M  V30 25 1 24 3
M  V30 26 1 25 3
M  V30 27 1 26 5
M  V30 28 1 27 5
M  V30 29 1 28 6
M  V30 30 1 29 6
M  V30 31 1 30 7
M  V30 32 1 31 7
M  V30 33 1 32 7
M  V30 34 1 8 33 CFG=1
M  V30 35 1 34 9
M  V30 36 1 35 9
M  V30 37 1 36 10
M  V30 38 1 37 10
M  V30 39 1 38 14
M  V30 40 1 39 14
M  V30 41 1 40 15
M  V30 42 1 41 16
M  V30 43 1 42 18
M  V30 44 1 43 18
M  V30 45 1 44 4
M  V30 END BOND
M  V30 END CTAB
M  END
>  <b_m_subgroup_collapsed>  (1308) 
0

>  <r_i_docking_score>  (1308) 
-7.2621520314869104

>  <s_m_subgroup_title>  (1308) 
glide-dock_SP_D22_pv

>  <s_m_subgroupid>  (1308) 
glide-dock_SP_D22_pv

>  <Molecule ChEMBL ID>  (1308) 
CHEMBL110888

>  <Standard Type>  (1308) 
Ki

>  <Standard Value>  (1308) 
5.0

>  <label>  (1308) 
1

$$$$
CHEMBL2159486
     RDKit          3D

  0  0  0  0  0  0  0  0  0  0999 V3000
M  V30 BEGIN CTAB
M  V30 COUNTS 51 53 0 0 1
M  V30 BEGIN ATOM
M  V30 1 C 10.398252 1.704454 -15.185418 0
M  V30 2 S 9.660497 3.349683 -14.976744 0
M  V30 3 C 8.060886 3.130942 -14.245334 0
M  V30 4 C 7.341664 1.934826 -14.455425 0
M  V30 5 C 6.087145 1.747180 -13.847027 0
M  V30 6 C 5.540304 2.762645 -13.043423 0
M  V30 7 C 6.248684 3.961481 -12.837124 0
M  V30 8 C 7.521289 4.157641 -13.432838 0
M  V30 9 O 8.270894 5.306646 -13.270898 0
M  V30 10 C 8.063973 6.119118 -12.119442 0
M  V30 11 C 8.597558 5.406484 -10.861634 0
M  V30 12 N 8.486128 6.248351 -9.649125 0 CFG=1 CHG=1
M  V30 13 C 8.596004 5.501136 -8.382617 0
M  V30 14 C 8.965454 6.547776 -7.346708 0
M  V30 15 C 9.940228 7.437900 -8.115782 0 CFG=2
M  V30 16 N 9.995865 8.786829 -7.527926 0
M  V30 17 S 11.468835 9.372891 -6.818286 0
M  V30 18 O 12.565485 8.968223 -7.707148 0
M  V30 19 O 11.285998 10.783059 -6.457442 0
M  V30 20 C 11.629115 8.498302 -5.280468 0
M  V30 21 C 11.546484 7.104315 -5.268448 0
M  V30 22 C 11.686288 6.427289 -4.062832 0
M  V30 23 C 11.974964 7.085211 -2.869777 0
M  V30 24 C 12.086780 8.476018 -2.894042 0
M  V30 25 Cl 12.485965 9.266665 -1.446757 0
M  V30 26 C 11.885520 9.196124 -4.085171 0
M  V30 27 C 9.421323 7.401834 -9.564475 0
M  V30 28 H 11.442429 1.800214 -15.484766 0
M  V30 29 H 10.358953 1.145747 -14.250617 0
M  V30 30 H 9.874081 1.138869 -15.955218 0
M  V30 31 H 7.742956 1.148662 -15.076191 0
M  V30 32 H 5.541106 0.828824 -14.007463 0
M  V30 33 H 4.571139 2.622085 -12.588619 0
M  V30 34 H 5.788164 4.713892 -12.216164 0
M  V30 35 H 8.623089 7.040904 -12.281070 0
M  V30 36 H 7.024531 6.426003 -12.013345 0
M  V30 37 H 8.018376 4.497951 -10.695930 0
M  V30 38 H 9.632587 5.092719 -11.006053 0
M  V30 39 H 7.685957 4.971512 -8.124976 0
M  V30 40 H 9.397244 4.764184 -8.460056 0
M  V30 41 H 8.085576 7.118836 -7.054445 0
M  V30 42 H 9.365220 6.107158 -6.438791 0
M  V30 43 H 10.933458 6.989542 -8.136541 0
M  V30 44 H 9.154325 9.055511 -7.017785 0
M  V30 45 H 11.440952 6.526959 -6.166656 0
M  V30 46 H 11.621968 5.372409 -4.079364 0
M  V30 47 H 12.118781 6.524956 -1.957774 0
M  V30 48 H 11.958941 10.265272 -4.079003 0
M  V30 49 H 10.254114 7.306147 -10.263170 0
M  V30 50 H 8.883639 8.314547 -9.823664 0
M  V30 51 H 7.558908 6.686163 -9.669086 0
M  V30 END ATOM
M  V30 BEGIN BOND
M  V30 1 1 2 1
M  V30 2 1 3 2
M  V30 3 2 4 3
M  V30 4 1 5 4
M  V30 5 2 6 5
M  V30 6 1 7 6
M  V30 7 1 8 3
M  V30 8 2 8 7
M  V30 9 1 9 8
M  V30 10 1 10 9
M  V30 11 1 11 10
M  V30 12 1 12 11
M  V30 13 1 13 12
M  V30 14 1 14 13
M  V30 15 1 15 14
M  V30 16 1 16 15
M  V30 17 1 17 16
M  V30 18 2 18 17
M  V30 19 2 19 17
M  V30 20 1 20 17
M  V30 21 2 21 20
M  V30 22 1 22 21
M  V30 23 2 23 22
M  V30 24 1 24 23
M  V30 25 1 25 24
M  V30 26 1 26 20
M  V30 27 2 26 24
M  V30 28 1 27 12
M  V30 29 1 27 15
M  V30 30 1 28 1
M  V30 31 1 29 1
M  V30 32 1 30 1
M  V30 33 1 31 4
M  V30 34 1 32 5
M  V30 35 1 33 6
M  V30 36 1 34 7
M  V30 37 1 35 10
M  V30 38 1 36 10
M  V30 39 1 37 11
M  V30 40 1 38 11
M  V30 41 1 39 13
M  V30 42 1 40 13
M  V30 43 1 41 14
M  V30 44 1 42 14
M  V30 45 1 15 43 CFG=3
M  V30 46 1 44 16
M  V30 47 1 45 21
M  V30 48 1 46 22
M  V30 49 1 47 23
M  V30 50 1 48 26
M  V30 51 1 49 27
M  V30 52 1 50 27
M  V30 53 1 12 51 CFG=1
M  V30 END BOND
M  V30 END CTAB
M  END
>  <b_m_subgroup_collapsed>  (1309) 
0

>  <r_i_docking_score>  (1309) 
-7.2615852651408597

>  <s_m_subgroup_title>  (1309) 
glide-dock_SP_D22_pv

>  <s_m_subgroupid>  (1309) 
glide-dock_SP_D22_pv

>  <Molecule ChEMBL ID>  (1309) 
CHEMBL2159486

>  <Standard Type>  (1309) 
Ki

>  <Standard Value>  (1309) 
36.0

>  <label>  (1309) 
1

$$$$
CHEMBL3289643
     RDKit          3D

  0  0  0  0  0  0  0  0  0  0999 V3000
M  V30 BEGIN CTAB
M  V30 COUNTS 48 51 0 0 1
M  V30 BEGIN ATOM
M  V30 1 O 11.205185 10.452246 -6.194633 0
M  V30 2 C 11.275080 9.279126 -5.832863 0
M  V30 3 C 11.684347 8.780717 -4.519706 0
M  V30 4 C 12.040131 9.496384 -3.362332 0
M  V30 5 C 12.454437 8.775955 -2.223732 0
M  V30 6 C 12.484313 7.364902 -2.254841 0
M  V30 7 C 12.085775 6.665086 -3.404668 0
M  V30 8 C 11.685588 7.395360 -4.532165 0
M  V30 9 C 11.222947 6.829308 -5.841240 0
M  V30 10 C 10.967432 8.070605 -6.738154 0 CFG=1
M  V30 11 C 9.541982 8.114456 -7.332122 0
M  V30 12 C 9.145388 6.855884 -8.134456 0
M  V30 13 N 9.289147 7.011468 -9.578860 0
M  V30 14 C 8.641552 5.864670 -10.225863 0
M  V30 15 C 8.641973 6.064551 -11.748098 0
M  V30 16 N 10.018289 6.165157 -12.213505 0
M  V30 17 C 10.528851 5.346760 -13.241665 0
M  V30 18 C 11.556528 5.814011 -14.097181 0
M  V30 19 C 12.043958 5.009682 -15.144649 0
M  V30 20 C 11.519654 3.718513 -15.346052 0
M  V30 21 Cl 12.085397 2.741560 -16.650972 0
M  V30 22 C 10.522822 3.228629 -14.481447 0
M  V30 23 C 10.030165 4.036356 -13.441244 0
M  V30 24 C 10.800369 7.202740 -11.550550 0
M  V30 25 C 10.687717 7.068385 -10.013686 0
M  V30 26 H 11.998937 10.572205 -3.333723 0
M  V30 27 H 12.754823 9.305706 -1.331691 0
M  V30 28 H 12.852357 6.801851 -1.420239 0
M  V30 29 H 12.122391 5.592561 -3.426234 0
M  V30 30 H 11.975473 6.167817 -6.270758 0
M  V30 31 H 10.315821 6.250127 -5.664420 0
M  V30 32 H 11.708030 8.084615 -7.535539 0
M  V30 33 H 8.832675 8.219446 -6.508193 0
M  V30 34 H 9.401178 9.011164 -7.940037 0
M  V30 35 H 9.680511 5.966963 -7.800990 0
M  V30 36 H 8.090631 6.660738 -7.926215 0
M  V30 37 H 9.146682 4.932561 -9.960491 0
M  V30 38 H 7.612514 5.771926 -9.883858 0
M  V30 39 H 8.081725 5.268601 -12.236396 0
M  V30 40 H 8.116572 6.987435 -11.998103 0
M  V30 41 H 11.962145 6.808002 -13.986556 0
M  V30 42 H 12.815634 5.387313 -15.800868 0
M  V30 43 H 10.128839 2.231754 -14.617846 0
M  V30 44 H 9.280665 3.617238 -12.785963 0
M  V30 45 H 11.851089 7.160356 -11.832708 0
M  V30 46 H 10.421203 8.172810 -11.865169 0
M  V30 47 H 11.183500 7.925018 -9.562910 0
M  V30 48 H 11.208047 6.176555 -9.669552 0
M  V30 END ATOM
M  V30 BEGIN BOND
M  V30 1 2 2 1
M  V30 2 1 3 2
M  V30 3 2 4 3
M  V30 4 1 5 4
M  V30 5 2 6 5
M  V30 6 1 7 6
M  V30 7 1 8 3
M  V30 8 2 8 7
M  V30 9 1 9 8
M  V30 10 1 10 2
M  V30 11 1 10 9
M  V30 12 1 11 10
M  V30 13 1 12 11
M  V30 14 1 13 12
M  V30 15 1 14 13
M  V30 16 1 15 14
M  V30 17 1 16 15
M  V30 18 1 17 16
M  V30 19 1 18 17
M  V30 20 2 19 18
M  V30 21 1 20 19
M  V30 22 1 21 20
M  V30 23 2 22 20
M  V30 24 2 23 17
M  V30 25 1 23 22
M  V30 26 1 24 16
M  V30 27 1 25 13
M  V30 28 1 25 24
M  V30 29 1 26 4
M  V30 30 1 27 5
M  V30 31 1 28 6
M  V30 32 1 29 7
M  V30 33 1 30 9
M  V30 34 1 31 9
M  V30 35 1 10 32 CFG=3
M  V30 36 1 33 11
M  V30 37 1 34 11
M  V30 38 1 35 12
M  V30 39 1 36 12
M  V30 40 1 37 14
M  V30 41 1 38 14
M  V30 42 1 39 15
M  V30 43 1 40 15
M  V30 44 1 41 18
M  V30 45 1 42 19
M  V30 46 1 43 22
M  V30 47 1 44 23
M  V30 48 1 45 24
M  V30 49 1 46 24
M  V30 50 1 47 25
M  V30 51 1 48 25
M  V30 END BOND
M  V30 END CTAB
M  END
>  <b_m_subgroup_collapsed>  (1310) 
0

>  <r_i_docking_score>  (1310) 
-7.2612740979229704

>  <s_m_subgroup_title>  (1310) 
glide-dock_SP_D22_pv

>  <s_m_subgroupid>  (1310) 
glide-dock_SP_D22_pv

>  <Molecule ChEMBL ID>  (1310) 
CHEMBL3289643

>  <Standard Type>  (1310) 
Ki

>  <Standard Value>  (1310) 
10000.0

>  <label>  (1310) 
0

$$$$
CHEMBL4564507
     RDKit          3D

  0  0  0  0  0  0  0  0  0  0999 V3000
M  V30 BEGIN CTAB
M  V30 COUNTS 57 59 0 0 1
M  V30 BEGIN ATOM
M  V30 1 C 11.283684 7.831392 -5.108917 0
M  V30 2 C 11.438179 8.965804 -6.135693 0
M  V30 3 C 11.530836 8.478127 -7.578159 0
M  V30 4 C 12.765469 8.571955 -8.246813 0
M  V30 5 C 12.882979 8.172215 -9.585004 0
M  V30 6 C 11.770814 7.662817 -10.267174 0
M  V30 7 C 10.534113 7.509983 -9.611926 0
M  V30 8 N 9.500231 6.926047 -10.363822 0
M  V30 9 C 8.732666 5.806826 -9.820989 0
M  V30 10 C 8.127093 4.967118 -10.960620 0
M  V30 11 N 7.318398 5.839951 -11.847471 0 CHG=1
M  V30 12 C 6.551831 5.161048 -12.927428 0
M  V30 13 C 5.860389 3.855221 -12.580471 0
M  V30 14 C 6.009191 2.736142 -13.314506 0
M  V30 15 C 5.260213 1.436774 -13.097573 0
M  V30 16 N 5.406622 0.554187 -14.247268 0
M  V30 17 C 4.529774 -0.396761 -14.598076 0
M  V30 18 O 3.663722 -0.847010 -13.846774 0
M  V30 19 C 4.643020 -0.814706 -16.023531 0
M  V30 20 N 3.912840 -1.822474 -16.520815 0
M  V30 21 C 4.179829 -1.917287 -17.875328 0
M  V30 22 C 3.549304 -2.941267 -18.755659 0
M  V30 23 C 5.095120 -0.925576 -18.139833 0
M  V30 24 N 5.385555 -0.231587 -16.965334 0
M  V30 25 C 8.145377 6.931678 -12.430657 0
M  V30 26 C 8.886848 7.774033 -11.379889 0
M  V30 27 C 10.406150 7.956496 -8.264486 0
M  V30 28 Cl 8.885905 7.941464 -7.448842 0
M  V30 29 H 11.293345 8.227130 -4.093365 0
M  V30 30 H 10.345325 7.291108 -5.235926 0
M  V30 31 H 12.084666 7.099062 -5.187564 0
M  V30 32 H 12.331720 9.545015 -5.896313 0
M  V30 33 H 10.604904 9.663831 -6.046568 0
M  V30 34 H 13.636164 8.967851 -7.743024 0
M  V30 35 H 13.830915 8.267905 -10.091865 0
M  V30 36 H 11.881789 7.355500 -11.296909 0
M  V30 37 H 7.920160 6.172303 -9.192708 0
M  V30 38 H 9.371897 5.186884 -9.191553 0
M  V30 39 H 7.508893 4.177330 -10.537719 0
M  V30 40 H 8.915375 4.479845 -11.536913 0
M  V30 41 H 7.212712 4.973854 -13.776002 0
M  V30 42 H 5.779594 5.851666 -13.267794 0
M  V30 43 H 5.202116 3.864198 -11.724142 0
M  V30 44 H 6.694493 2.749898 -14.150649 0
M  V30 45 H 5.581418 0.941501 -12.179962 0
M  V30 46 H 4.201140 1.689462 -13.027965 0
M  V30 47 H 6.083257 0.805264 -14.954512 0
M  V30 48 H 3.782882 -2.754426 -19.803141 0
M  V30 49 H 3.904332 -3.939310 -18.500303 0
M  V30 50 H 2.465208 -2.935031 -18.644697 0
M  V30 51 H 5.564807 -0.661691 -19.076231 0
M  V30 52 H 8.884440 6.477500 -13.090446 0
M  V30 53 H 7.524466 7.588682 -13.041595 0
M  V30 54 H 8.218307 8.508183 -10.931732 0
M  V30 55 H 9.655245 8.363146 -11.882405 0
M  V30 56 H 6.665855 6.322146 -11.229336 0
M  V30 57 H 3.290750 -2.441212 -16.007421 0
M  V30 END ATOM
M  V30 BEGIN BOND
M  V30 1 1 2 1
M  V30 2 1 3 2
M  V30 3 1 4 3
M  V30 4 2 5 4
M  V30 5 1 6 5
M  V30 6 2 7 6
M  V30 7 1 8 7
M  V30 8 1 9 8
M  V30 9 1 10 9
M  V30 10 1 11 10
M  V30 11 1 12 11
M  V30 12 1 13 12
M  V30 13 2 14 13
M  V30 14 1 15 14
M  V30 15 1 16 15
M  V30 16 1 17 16
M  V30 17 2 18 17
M  V30 18 1 19 17
M  V30 19 1 20 19
M  V30 20 1 21 20
M  V30 21 1 22 21
M  V30 22 2 23 21
M  V30 23 2 24 19
M  V30 24 1 24 23
M  V30 25 1 25 11
M  V30 26 1 26 8
M  V30 27 1 26 25
M  V30 28 2 27 3
M  V30 29 1 27 7
M  V30 30 1 28 27
M  V30 31 1 29 1
M  V30 32 1 30 1
M  V30 33 1 31 1
M  V30 34 1 32 2
M  V30 35 1 33 2
M  V30 36 1 34 4
M  V30 37 1 35 5
M  V30 38 1 36 6
M  V30 39 1 37 9
M  V30 40 1 38 9
M  V30 41 1 39 10
M  V30 42 1 40 10
M  V30 43 1 41 12
M  V30 44 1 42 12
M  V30 45 1 43 13
M  V30 46 1 44 14
M  V30 47 1 45 15
M  V30 48 1 46 15
M  V30 49 1 47 16
M  V30 50 1 48 22
M  V30 51 1 49 22
M  V30 52 1 50 22
M  V30 53 1 51 23
M  V30 54 1 52 25
M  V30 55 1 53 25
M  V30 56 1 54 26
M  V30 57 1 55 26
M  V30 58 1 56 11
M  V30 59 1 57 20
M  V30 END BOND
M  V30 END CTAB
M  END
>  <b_m_subgroup_collapsed>  (1311) 
0

>  <r_i_docking_score>  (1311) 
-7.2604850527381197

>  <s_m_subgroup_title>  (1311) 
glide-dock_SP_D22_pv

>  <s_m_subgroupid>  (1311) 
glide-dock_SP_D22_pv

>  <Molecule ChEMBL ID>  (1311) 
CHEMBL4564507

>  <Standard Type>  (1311) 
Ki

>  <Standard Value>  (1311) 
16.1

>  <label>  (1311) 
1

$$$$
CHEMBL4446597
     RDKit          3D

  0  0  0  0  0  0  0  0  0  0999 V3000
M  V30 BEGIN CTAB
M  V30 COUNTS 50 52 0 0 1
M  V30 BEGIN ATOM
M  V30 1 O 10.063774 5.281487 -12.941173 0
M  V30 2 C 8.853541 5.425123 -12.766579 0
M  V30 3 C 8.364388 6.747487 -12.164507 0
M  V30 4 C 9.112073 7.131908 -10.874786 0
M  V30 5 C 8.757692 6.212686 -9.682584 0
M  V30 6 N 9.357769 6.616344 -8.386112 0 CFG=2 CHG=1
M  V30 7 C 9.142073 8.032627 -7.987095 0
M  V30 8 C 9.663654 8.307506 -6.561680 0
M  V30 9 C 11.134004 7.893975 -6.362560 0 CFG=1
M  V30 10 O 11.930091 8.738880 -7.175722 0
M  V30 11 C 11.524847 8.066298 -4.889780 0
M  V30 12 C 11.720725 6.968482 -4.012421 0
M  V30 13 C 12.087216 7.172284 -2.671089 0
M  V30 14 C 12.255994 8.478741 -2.180615 0
M  V30 15 C 12.044807 9.573886 -3.032247 0
M  V30 16 C 11.685743 9.372558 -4.375479 0
M  V30 17 C 11.306911 6.444315 -6.865938 0
M  V30 18 C 10.780244 6.230623 -8.290329 0
M  V30 19 C 7.858042 4.383431 -13.146512 0
M  V30 20 C 6.530093 4.366039 -12.649518 0
M  V30 21 C 5.648793 3.329098 -13.011755 0
M  V30 22 C 6.084297 2.286102 -13.846526 0
M  V30 23 C 7.396710 2.295936 -14.350628 0
M  V30 24 C 8.275065 3.339228 -14.003726 0
M  V30 25 H 7.295750 6.745749 -11.972971 0
M  V30 26 H 8.508062 7.526550 -12.909542 0
M  V30 27 H 8.846980 8.163591 -10.650710 0
M  V30 28 H 10.187355 7.129635 -11.053186 0
M  V30 29 H 9.043719 5.183115 -9.904761 0
M  V30 30 H 7.685363 6.171910 -9.544082 0
M  V30 31 H 8.086071 8.276684 -8.025171 0
M  V30 32 H 9.643326 8.703359 -8.684218 0
M  V30 33 H 9.042633 7.761040 -5.849886 0
M  V30 34 H 9.538902 9.363515 -6.324656 0
M  V30 35 H 11.714107 8.617532 -8.085563 0
M  V30 36 H 11.606815 5.948344 -4.338030 0
M  V30 37 H 12.242586 6.324978 -2.020817 0
M  V30 38 H 12.534191 8.645340 -1.150830 0
M  V30 39 H 12.141953 10.576942 -2.646334 0
M  V30 40 H 11.535545 10.227852 -5.017495 0
M  V30 41 H 12.345649 6.122900 -6.796022 0
M  V30 42 H 10.730364 5.774467 -6.233221 0
M  V30 43 H 10.885307 5.175065 -8.546891 0
M  V30 44 H 11.363000 6.799277 -9.012359 0
M  V30 45 H 6.155444 5.118357 -11.974697 0
M  V30 46 H 4.632793 3.326248 -12.646379 0
M  V30 47 H 5.411912 1.480570 -14.107141 0
M  V30 48 H 7.733059 1.499433 -14.998420 0
M  V30 49 H 9.282669 3.322459 -14.397504 0
M  V30 50 H 8.862251 6.066328 -7.698083 0
M  V30 END ATOM
M  V30 BEGIN BOND
M  V30 1 2 2 1
M  V30 2 1 3 2
M  V30 3 1 4 3
M  V30 4 1 5 4
M  V30 5 1 6 5
M  V30 6 1 7 6
M  V30 7 1 8 7
M  V30 8 1 9 8
M  V30 9 1 9 10 CFG=3
M  V30 10 1 11 9
M  V30 11 2 12 11
M  V30 12 1 13 12
M  V30 13 2 14 13
M  V30 14 1 15 14
M  V30 15 1 16 11
M  V30 16 2 16 15
M  V30 17 1 17 9
M  V30 18 1 18 6
M  V30 19 1 18 17
M  V30 20 1 19 2
M  V30 21 2 20 19
M  V30 22 1 21 20
M  V30 23 2 22 21
M  V30 24 1 23 22
M  V30 25 1 24 19
M  V30 26 2 24 23
M  V30 27 1 25 3
M  V30 28 1 26 3
M  V30 29 1 27 4
M  V30 30 1 28 4
M  V30 31 1 29 5
M  V30 32 1 30 5
M  V30 33 1 31 7
M  V30 34 1 32 7
M  V30 35 1 33 8
M  V30 36 1 34 8
M  V30 37 1 35 10
M  V30 38 1 36 12
M  V30 39 1 37 13
M  V30 40 1 38 14
M  V30 41 1 39 15
M  V30 42 1 40 16
M  V30 43 1 41 17
M  V30 44 1 42 17
M  V30 45 1 43 18
M  V30 46 1 44 18
M  V30 47 1 45 20
M  V30 48 1 46 21
M  V30 49 1 47 22
M  V30 50 1 48 23
M  V30 51 1 49 24
M  V30 52 1 6 50 CFG=1
M  V30 END BOND
M  V30 END CTAB
M  END
>  <b_m_subgroup_collapsed>  (1312) 
0

>  <r_i_docking_score>  (1312) 
-7.2580740135697903

>  <s_m_subgroup_title>  (1312) 
glide-dock_SP_D22_pv

>  <s_m_subgroupid>  (1312) 
glide-dock_SP_D22_pv

>  <Molecule ChEMBL ID>  (1312) 
CHEMBL4446597

>  <Standard Type>  (1312) 
Ki

>  <Standard Value>  (1312) 
32.36

>  <label>  (1312) 
1

$$$$
CHEMBL4287055
     RDKit          3D

  0  0  0  0  0  0  0  0  0  0999 V3000
M  V30 BEGIN CTAB
M  V30 COUNTS 57 60 0 0 1
M  V30 BEGIN ATOM
M  V30 1 O 11.390825 3.172642 -14.647478 0
M  V30 2 C 11.218399 4.342903 -14.984382 0
M  V30 3 N 10.097674 5.023522 -14.698506 0
M  V30 4 C 8.892914 4.461143 -14.103087 0
M  V30 5 C 8.985278 4.260307 -12.581835 0
M  V30 6 C 9.166015 5.552217 -11.763601 0
M  V30 7 C 9.061137 5.250447 -10.258448 0
M  V30 8 N 9.195637 6.435655 -9.369573 0 CHG=1
M  V30 9 C 10.574590 7.017997 -9.376000 0
M  V30 10 C 10.767746 8.156831 -8.347548 0
M  V30 11 N 10.244998 7.755940 -7.052743 0
M  V30 12 C 10.960957 7.878556 -5.847271 0
M  V30 13 C 11.145062 6.734592 -5.042795 0
M  V30 14 C 11.686133 6.833794 -3.746712 0
M  V30 15 C 12.050590 8.093629 -3.246020 0
M  V30 16 Cl 12.487175 8.312061 -1.606029 0
M  V30 17 C 11.968699 9.219758 -4.065792 0
M  V30 18 C 11.428771 9.121896 -5.355676 0
M  V30 19 Cl 11.286410 10.572404 -6.247099 0
M  V30 20 C 8.885955 7.243050 -7.013645 0
M  V30 21 C 8.731513 6.084077 -8.000734 0
M  V30 22 C 12.219898 5.045462 -15.818727 0
M  V30 23 C 13.284068 4.572140 -16.547144 0
M  V30 24 C 13.882709 5.692260 -17.214270 0
M  V30 25 C 14.966132 5.862688 -18.109201 0
M  V30 26 C 15.296804 7.134862 -18.620689 0
M  V30 27 C 14.549244 8.268059 -18.245459 0
M  V30 28 C 13.474785 8.126245 -17.348322 0
M  V30 29 C 13.151969 6.855736 -16.847641 0
M  V30 30 N 12.164248 6.424255 -15.987810 0
M  V30 31 H 10.022012 5.964505 -15.049619 0
M  V30 32 H 8.658437 3.510542 -14.587653 0
M  V30 33 H 8.068933 5.132972 -14.333267 0
M  V30 34 H 9.789260 3.559003 -12.351032 0
M  V30 35 H 8.064215 3.772807 -12.260655 0
M  V30 36 H 8.399058 6.275723 -12.044078 0
M  V30 37 H 10.128436 5.999670 -12.009148 0
M  V30 38 H 9.800656 4.498878 -9.975165 0
M  V30 39 H 8.086613 4.792977 -10.079923 0
M  V30 40 H 10.824430 7.391136 -10.368690 0
M  V30 41 H 11.285842 6.224312 -9.150394 0
M  V30 42 H 10.236217 9.051213 -8.676893 0
M  V30 43 H 11.823251 8.424157 -8.272622 0
M  V30 44 H 10.814041 5.775666 -5.397714 0
M  V30 45 H 11.752682 5.957289 -3.118937 0
M  V30 46 H 12.265242 10.172112 -3.664093 0
M  V30 47 H 8.636941 6.895421 -6.015223 0
M  V30 48 H 8.190689 8.049602 -7.252100 0
M  V30 49 H 7.687910 5.772307 -8.025929 0
M  V30 50 H 9.305996 5.228958 -7.641673 0
M  V30 51 H 13.604811 3.543818 -16.631502 0
M  V30 52 H 15.535345 4.998888 -18.415218 0
M  V30 53 H 16.121458 7.241311 -19.311516 0
M  V30 54 H 14.798058 9.241600 -18.643354 0
M  V30 55 H 12.886210 8.979904 -17.055826 0
M  V30 56 H 11.490621 7.021829 -15.536592 0
M  V30 57 H 8.548072 7.141848 -9.702483 0
M  V30 END ATOM
M  V30 BEGIN BOND
M  V30 1 2 2 1
M  V30 2 1 3 2
M  V30 3 1 4 3
M  V30 4 1 5 4
M  V30 5 1 6 5
M  V30 6 1 7 6
M  V30 7 1 8 7
M  V30 8 1 9 8
M  V30 9 1 10 9
M  V30 10 1 11 10
M  V30 11 1 12 11
M  V30 12 1 13 12
M  V30 13 2 14 13
M  V30 14 1 15 14
M  V30 15 1 16 15
M  V30 16 2 17 15
M  V30 17 2 18 12
M  V30 18 1 18 17
M  V30 19 1 19 18
M  V30 20 1 20 11
M  V30 21 1 21 8
M  V30 22 1 21 20
M  V30 23 1 22 2
M  V30 24 2 23 22
M  V30 25 1 24 23
M  V30 26 2 25 24
M  V30 27 1 26 25
M  V30 28 2 27 26
M  V30 29 1 28 27
M  V30 30 1 29 24
M  V30 31 2 29 28
M  V30 32 1 30 22
M  V30 33 1 30 29
M  V30 34 1 31 3
M  V30 35 1 32 4
M  V30 36 1 33 4
M  V30 37 1 34 5
M  V30 38 1 35 5
M  V30 39 1 36 6
M  V30 40 1 37 6
M  V30 41 1 38 7
M  V30 42 1 39 7
M  V30 43 1 40 9
M  V30 44 1 41 9
M  V30 45 1 42 10
M  V30 46 1 43 10
M  V30 47 1 44 13
M  V30 48 1 45 14
M  V30 49 1 46 17
M  V30 50 1 47 20
M  V30 51 1 48 20
M  V30 52 1 49 21
M  V30 53 1 50 21
M  V30 54 1 51 23
M  V30 55 1 52 25
M  V30 56 1 53 26
M  V30 57 1 54 27
M  V30 58 1 55 28
M  V30 59 1 56 30
M  V30 60 1 57 8
M  V30 END BOND
M  V30 END CTAB
M  END
>  <b_m_subgroup_collapsed>  (1313) 
0

>  <r_i_docking_score>  (1313) 
-7.2578558454192201

>  <s_m_subgroup_title>  (1313) 
glide-dock_SP_D22_pv

>  <s_m_subgroupid>  (1313) 
glide-dock_SP_D22_pv

>  <Molecule ChEMBL ID>  (1313) 
CHEMBL4287055

>  <Standard Type>  (1313) 
Ki

>  <Standard Value>  (1313) 
23889.0

>  <label>  (1313) 
0

$$$$
CHEMBL339960
     RDKit          3D

  0  0  0  0  0  0  0  0  0  0999 V3000
M  V30 BEGIN CTAB
M  V30 COUNTS 57 60 0 0 1
M  V30 BEGIN ATOM
M  V30 1 O 11.390825 3.172642 -14.647478 0
M  V30 2 C 11.218399 4.342903 -14.984382 0
M  V30 3 N 10.097674 5.023522 -14.698506 0
M  V30 4 C 8.892914 4.461143 -14.103087 0
M  V30 5 C 8.985278 4.260307 -12.581835 0
M  V30 6 C 9.166015 5.552217 -11.763601 0
M  V30 7 C 9.061137 5.250447 -10.258448 0
M  V30 8 N 9.195637 6.435655 -9.369573 0 CHG=1
M  V30 9 C 10.574590 7.017997 -9.376000 0
M  V30 10 C 10.767746 8.156831 -8.347548 0
M  V30 11 N 10.244998 7.755940 -7.052743 0
M  V30 12 C 10.960957 7.878556 -5.847271 0
M  V30 13 C 11.145062 6.734592 -5.042795 0
M  V30 14 C 11.686133 6.833794 -3.746712 0
M  V30 15 C 12.050590 8.093629 -3.246020 0
M  V30 16 Cl 12.487175 8.312061 -1.606029 0
M  V30 17 C 11.968699 9.219758 -4.065792 0
M  V30 18 C 11.428771 9.121896 -5.355676 0
M  V30 19 Cl 11.286410 10.572404 -6.247099 0
M  V30 20 C 8.885955 7.243050 -7.013645 0
M  V30 21 C 8.731513 6.084077 -8.000734 0
M  V30 22 C 12.219898 5.045462 -15.818727 0
M  V30 23 C 13.284068 4.572140 -16.547144 0
M  V30 24 C 13.882709 5.692260 -17.214270 0
M  V30 25 C 14.966132 5.862688 -18.109201 0
M  V30 26 C 15.296804 7.134862 -18.620689 0
M  V30 27 C 14.549244 8.268059 -18.245459 0
M  V30 28 C 13.474785 8.126245 -17.348322 0
M  V30 29 C 13.151969 6.855736 -16.847641 0
M  V30 30 N 12.164248 6.424255 -15.987810 0
M  V30 31 H 10.022012 5.964505 -15.049619 0
M  V30 32 H 8.658437 3.510542 -14.587653 0
M  V30 33 H 8.068933 5.132972 -14.333267 0
M  V30 34 H 9.789260 3.559003 -12.351032 0
M  V30 35 H 8.064215 3.772807 -12.260655 0
M  V30 36 H 8.399058 6.275723 -12.044078 0
M  V30 37 H 10.128436 5.999670 -12.009148 0
M  V30 38 H 9.800656 4.498878 -9.975165 0
M  V30 39 H 8.086613 4.792977 -10.079923 0
M  V30 40 H 10.824430 7.391136 -10.368690 0
M  V30 41 H 11.285842 6.224312 -9.150394 0
M  V30 42 H 10.236217 9.051213 -8.676893 0
M  V30 43 H 11.823251 8.424157 -8.272622 0
M  V30 44 H 10.814041 5.775666 -5.397714 0
M  V30 45 H 11.752682 5.957289 -3.118937 0
M  V30 46 H 12.265242 10.172112 -3.664093 0
M  V30 47 H 8.636941 6.895421 -6.015223 0
M  V30 48 H 8.190689 8.049602 -7.252100 0
M  V30 49 H 7.687910 5.772307 -8.025929 0
M  V30 50 H 9.305996 5.228958 -7.641673 0
M  V30 51 H 13.604811 3.543818 -16.631502 0
M  V30 52 H 15.535345 4.998888 -18.415218 0
M  V30 53 H 16.121458 7.241311 -19.311516 0
M  V30 54 H 14.798058 9.241600 -18.643354 0
M  V30 55 H 12.886210 8.979904 -17.055826 0
M  V30 56 H 11.490621 7.021829 -15.536592 0
M  V30 57 H 8.548072 7.141848 -9.702483 0
M  V30 END ATOM
M  V30 BEGIN BOND
M  V30 1 2 2 1
M  V30 2 1 3 2
M  V30 3 1 4 3
M  V30 4 1 5 4
M  V30 5 1 6 5
M  V30 6 1 7 6
M  V30 7 1 8 7
M  V30 8 1 9 8
M  V30 9 1 10 9
M  V30 10 1 11 10
M  V30 11 1 12 11
M  V30 12 1 13 12
M  V30 13 2 14 13
M  V30 14 1 15 14
M  V30 15 1 16 15
M  V30 16 2 17 15
M  V30 17 2 18 12
M  V30 18 1 18 17
M  V30 19 1 19 18
M  V30 20 1 20 11
M  V30 21 1 21 8
M  V30 22 1 21 20
M  V30 23 1 22 2
M  V30 24 2 23 22
M  V30 25 1 24 23
M  V30 26 2 25 24
M  V30 27 1 26 25
M  V30 28 2 27 26
M  V30 29 1 28 27
M  V30 30 1 29 24
M  V30 31 2 29 28
M  V30 32 1 30 22
M  V30 33 1 30 29
M  V30 34 1 31 3
M  V30 35 1 32 4
M  V30 36 1 33 4
M  V30 37 1 34 5
M  V30 38 1 35 5
M  V30 39 1 36 6
M  V30 40 1 37 6
M  V30 41 1 38 7
M  V30 42 1 39 7
M  V30 43 1 40 9
M  V30 44 1 41 9
M  V30 45 1 42 10
M  V30 46 1 43 10
M  V30 47 1 44 13
M  V30 48 1 45 14
M  V30 49 1 46 17
M  V30 50 1 47 20
M  V30 51 1 48 20
M  V30 52 1 49 21
M  V30 53 1 50 21
M  V30 54 1 51 23
M  V30 55 1 52 25
M  V30 56 1 53 26
M  V30 57 1 54 27
M  V30 58 1 55 28
M  V30 59 1 56 30
M  V30 60 1 57 8
M  V30 END BOND
M  V30 END CTAB
M  END
>  <b_m_subgroup_collapsed>  (1314) 
0

>  <r_i_docking_score>  (1314) 
-7.2578558454192201

>  <s_m_subgroup_title>  (1314) 
glide-dock_SP_D22_pv

>  <s_m_subgroupid>  (1314) 
glide-dock_SP_D22_pv

>  <Molecule ChEMBL ID>  (1314) 
CHEMBL339960

>  <Standard Type>  (1314) 
Ki

>  <Standard Value>  (1314) 
23890.0

>  <label>  (1314) 
0

$$$$
CHEMBL1625084
     RDKit          3D

  0  0  0  0  0  0  0  0  0  0999 V3000
M  V30 BEGIN CTAB
M  V30 COUNTS 40 41 0 0 1
M  V30 BEGIN ATOM
M  V30 1 Cl 10.896752 10.572309 -5.334839 0
M  V30 2 C 11.471910 9.206704 -4.462976 0
M  V30 3 C 12.080802 9.372191 -3.204157 0
M  V30 4 C 12.485500 8.244020 -2.468032 0
M  V30 5 C 12.285184 6.955283 -2.997474 0
M  V30 6 C 11.686090 6.792721 -4.262645 0
M  V30 7 C 11.285920 7.922737 -5.006589 0
M  V30 8 O 10.591504 7.812660 -6.184252 0
M  V30 9 C 11.205528 7.093955 -7.240016 0
M  V30 10 C 11.968595 8.075039 -8.153376 0
M  V30 11 C 11.812596 7.771420 -9.654239 0
M  V30 12 C 10.501107 8.323004 -10.239744 0
M  V30 13 N 9.806658 7.355210 -11.091479 0
M  V30 14 C 8.813491 8.092431 -11.880520 0
M  V30 15 C 7.959387 7.129998 -12.727324 0
M  V30 16 N 7.284436 6.172276 -11.846878 0 CHG=1
M  V30 17 C 8.266895 5.399000 -11.072059 0
M  V30 18 C 9.121085 6.369045 -10.238855 0
M  V30 19 H 12.205780 10.360506 -2.786417 0
M  V30 20 H 12.932296 8.370584 -1.492795 0
M  V30 21 H 12.576978 6.085185 -2.426299 0
M  V30 22 H 11.502675 5.797978 -4.642604 0
M  V30 23 H 11.854136 6.284737 -6.902250 0
M  V30 24 H 10.390109 6.619096 -7.778692 0
M  V30 25 H 11.635321 9.096923 -7.968794 0
M  V30 26 H 13.023879 8.068759 -7.883719 0
M  V30 27 H 12.641458 8.231082 -10.193865 0
M  V30 28 H 11.900497 6.706203 -9.846900 0
M  V30 29 H 9.830090 8.670973 -9.451433 0
M  V30 30 H 10.759427 9.206774 -10.821424 0
M  V30 31 H 8.173031 8.691640 -11.230999 0
M  V30 32 H 9.322112 8.793865 -12.542794 0
M  V30 33 H 7.207387 7.692070 -13.280553 0
M  V30 34 H 8.558051 6.572176 -13.444977 0
M  V30 35 H 6.766175 6.753538 -11.170041 0
M  V30 36 H 7.733276 4.708681 -10.417745 0
M  V30 37 H 8.888661 4.800005 -11.739085 0
M  V30 38 H 9.853765 5.783737 -9.686397 0
M  V30 39 H 8.486238 6.873698 -9.506021 0
M  V30 40 H 6.654179 5.570459 -12.354211 0
M  V30 END ATOM
M  V30 BEGIN BOND
M  V30 1 1 2 1
M  V30 2 2 3 2
M  V30 3 1 4 3
M  V30 4 2 5 4
M  V30 5 1 6 5
M  V30 6 1 7 2
M  V30 7 2 7 6
M  V30 8 1 8 7
M  V30 9 1 9 8
M  V30 10 1 10 9
M  V30 11 1 11 10
M  V30 12 1 12 11
M  V30 13 1 13 12
M  V30 14 1 14 13
M  V30 15 1 15 14
M  V30 16 1 16 15
M  V30 17 1 17 16
M  V30 18 1 18 13
M  V30 19 1 18 17
M  V30 20 1 19 3
M  V30 21 1 20 4
M  V30 22 1 21 5
M  V30 23 1 22 6
M  V30 24 1 23 9
M  V30 25 1 24 9
M  V30 26 1 25 10
M  V30 27 1 26 10
M  V30 28 1 27 11
M  V30 29 1 28 11
M  V30 30 1 29 12
M  V30 31 1 30 12
M  V30 32 1 31 14
M  V30 33 1 32 14
M  V30 34 1 33 15
M  V30 35 1 34 15
M  V30 36 1 35 16
M  V30 37 1 36 17
M  V30 38 1 37 17
M  V30 39 1 38 18
M  V30 40 1 39 18
M  V30 41 1 40 16
M  V30 END BOND
M  V30 END CTAB
M  END
>  <b_m_subgroup_collapsed>  (1315) 
0

>  <r_i_docking_score>  (1315) 
-7.2574844399764604

>  <s_m_subgroup_title>  (1315) 
glide-dock_SP_D22_pv

>  <s_m_subgroupid>  (1315) 
glide-dock_SP_D22_pv

>  <Molecule ChEMBL ID>  (1315) 
CHEMBL1625084

>  <Standard Type>  (1315) 
Ki

>  <Standard Value>  (1315) 
10000.0

>  <label>  (1315) 
0

$$$$
CHEMBL1171630
     RDKit          3D

  0  0  0  0  0  0  0  0  0  0999 V3000
M  V30 BEGIN CTAB
M  V30 COUNTS 66 71 0 0 1
M  V30 BEGIN ATOM
M  V30 1 O 10.064769 4.653081 -13.337860 0
M  V30 2 C 10.451674 5.730417 -12.911554 0
M  V30 3 N 11.573978 6.317320 -13.302098 0
M  V30 4 C 12.501617 5.805211 -14.310996 0
M  V30 5 C 11.887166 5.651546 -15.674074 0
M  V30 6 C 11.768673 6.572242 -16.673861 0
M  V30 7 N 11.070563 5.897158 -17.653723 0
M  V30 8 C 10.620934 6.382961 -18.945028 0
M  V30 9 C 9.103827 6.618610 -18.974110 0
M  V30 10 F 8.731155 7.059496 -20.175465 0
M  V30 11 N 10.810852 4.619732 -17.287064 0
M  V30 12 N 11.305054 4.456646 -16.100933 0
M  V30 13 C 12.007528 7.264291 -12.303282 0
M  V30 14 N 10.870597 7.403528 -11.374885 0
M  V30 15 C 11.025121 7.956329 -10.077287 0
M  V30 16 C 9.915760 8.299870 -9.260311 0
M  V30 17 C 10.083659 8.731125 -7.932543 0
M  V30 18 C 11.374157 8.857298 -7.394929 0
M  V30 19 C 12.486302 8.572626 -8.204492 0
M  V30 20 C 12.315302 8.163394 -9.536406 0
M  V30 21 C 9.775532 6.507349 -11.770739 0 CFG=2
M  V30 22 C 9.270771 5.529600 -10.670520 0
M  V30 23 C 8.117850 4.613250 -11.134471 0
M  V30 24 N 7.023409 5.323083 -11.864937 0 CFG=2 CHG=1
M  V30 25 C 6.029150 4.397476 -12.490196 0
M  V30 26 C 6.575970 3.326722 -13.428259 0
M  V30 27 C 7.632499 3.372271 -14.310862 0
M  V30 28 O 7.851958 2.202337 -14.979181 0
M  V30 29 C 6.847771 1.355044 -14.595589 0
M  V30 30 C 6.598021 0.057897 -15.071684 0
M  V30 31 C 5.435289 -0.603709 -14.638643 0
M  V30 32 C 4.567357 0.040900 -13.733690 0
M  V30 33 C 4.885584 1.315633 -13.216953 0
M  V30 34 C 6.022877 2.017665 -13.651963 0
M  V30 35 C 7.445573 6.391634 -12.809564 0
M  V30 36 C 8.537479 7.301704 -12.247049 0
M  V30 37 H 13.345593 6.489717 -14.374063 0
M  V30 38 H 12.904717 4.852493 -13.963116 0
M  V30 39 H 12.086860 7.601107 -16.760702 0
M  V30 40 H 11.147173 7.311153 -19.170769 0
M  V30 41 H 10.908460 5.659580 -19.709362 0
M  V30 42 H 8.544147 5.702880 -18.777447 0
M  V30 43 H 8.797933 7.370874 -18.246962 0
M  V30 44 H 12.885943 6.834580 -11.846835 0
M  V30 45 H 12.320994 8.172312 -12.794633 0
M  V30 46 H 8.902166 8.221471 -9.609660 0
M  V30 47 H 9.217514 8.965128 -7.329192 0
M  V30 48 H 11.511354 9.193156 -6.377993 0
M  V30 49 H 13.486058 8.714034 -7.825490 0
M  V30 50 H 13.211541 7.986870 -10.106684 0
M  V30 51 H 10.086047 4.912814 -10.294793 0
M  V30 52 H 8.890864 6.064066 -9.804426 0
M  V30 53 H 7.685845 4.166336 -10.243245 0
M  V30 54 H 8.511236 3.778824 -11.712996 0
M  V30 55 H 5.283619 4.993587 -13.015476 0
M  V30 56 H 5.491825 3.914165 -11.673797 0
M  V30 57 H 8.298923 4.144234 -14.645533 0
M  V30 58 H 7.262866 -0.409679 -15.783572 0
M  V30 59 H 5.197412 -1.588340 -15.018256 0
M  V30 60 H 3.642742 -0.440201 -13.446648 0
M  V30 61 H 4.200074 1.818647 -12.559276 0
M  V30 62 H 7.784945 5.976008 -13.750687 0
M  V30 63 H 6.573600 7.002692 -13.045896 0
M  V30 64 H 8.797097 8.068116 -12.969319 0
M  V30 65 H 8.088647 7.874730 -11.447101 0
M  V30 66 H 6.528556 5.842564 -11.145415 0
M  V30 END ATOM
M  V30 BEGIN BOND
M  V30 1 2 2 1
M  V30 2 1 3 2
M  V30 3 1 4 3
M  V30 4 1 5 4
M  V30 5 2 6 5
M  V30 6 1 7 6
M  V30 7 1 8 7
M  V30 8 1 9 8
M  V30 9 1 10 9
M  V30 10 1 11 7
M  V30 11 1 12 5
M  V30 12 2 12 11
M  V30 13 1 13 3
M  V30 14 1 14 13
M  V30 15 1 15 14
M  V30 16 2 16 15
M  V30 17 1 17 16
M  V30 18 2 18 17
M  V30 19 1 19 18
M  V30 20 1 20 15
M  V30 21 2 20 19
M  V30 22 1 21 2
M  V30 23 1 21 14 CFG=1
M  V30 24 1 22 21
M  V30 25 1 23 22
M  V30 26 1 24 23
M  V30 27 1 25 24
M  V30 28 1 26 25
M  V30 29 2 27 26
M  V30 30 1 28 27
M  V30 31 1 29 28
M  V30 32 2 30 29
M  V30 33 1 31 30
M  V30 34 2 32 31
M  V30 35 1 33 32
M  V30 36 1 34 26
M  V30 37 1 34 29
M  V30 38 2 34 33
M  V30 39 1 35 24
M  V30 40 1 36 21
M  V30 41 1 36 35
M  V30 42 1 37 4
M  V30 43 1 38 4
M  V30 44 1 39 6
M  V30 45 1 40 8
M  V30 46 1 41 8
M  V30 47 1 42 9
M  V30 48 1 43 9
M  V30 49 1 44 13
M  V30 50 1 45 13
M  V30 51 1 46 16
M  V30 52 1 47 17
M  V30 53 1 48 18
M  V30 54 1 49 19
M  V30 55 1 50 20
M  V30 56 1 51 22
M  V30 57 1 52 22
M  V30 58 1 53 23
M  V30 59 1 54 23
M  V30 60 1 55 25
M  V30 61 1 56 25
M  V30 62 1 57 27
M  V30 63 1 58 30
M  V30 64 1 59 31
M  V30 65 1 60 32
M  V30 66 1 61 33
M  V30 67 1 62 35
M  V30 68 1 63 35
M  V30 69 1 64 36
M  V30 70 1 65 36
M  V30 71 1 24 66 CFG=1
M  V30 END BOND
M  V30 END CTAB
M  END
>  <b_m_subgroup_collapsed>  (1316) 
0

>  <r_i_docking_score>  (1316) 
-7.2570230903192998

>  <s_m_subgroup_title>  (1316) 
glide-dock_SP_D22_pv

>  <s_m_subgroupid>  (1316) 
glide-dock_SP_D22_pv

>  <Molecule ChEMBL ID>  (1316) 
CHEMBL1171630

>  <Standard Type>  (1316) 
Ki

>  <Standard Value>  (1316) 
2.0

>  <label>  (1316) 
1

$$$$
CHEMBL5273758
     RDKit          3D

  0  0  0  0  0  0  0  0  0  0999 V3000
M  V30 BEGIN CTAB
M  V30 COUNTS 43 46 0 0 1
M  V30 BEGIN ATOM
M  V30 1 C 7.154286 5.349550 -11.449216 0
M  V30 2 N 8.440399 4.801863 -10.948813 0 CFG=1 CHG=1
M  V30 3 C 9.312245 4.368277 -12.072492 0
M  V30 4 C 9.865398 5.563125 -12.905097 0
M  V30 5 C 10.179231 6.876830 -12.126774 0 CFG=2
M  V30 6 C 11.607541 7.370950 -12.182850 0
M  V30 7 C 12.211651 8.019103 -11.169967 0
M  V30 8 O 13.403754 8.572184 -11.439252 0
M  V30 9 C 11.566517 8.162327 -9.864041 0
M  V30 10 O 12.261888 8.670906 -8.840437 0
M  V30 11 C 10.311160 7.687264 -9.679984 0
M  V30 12 C 9.473549 7.473873 -8.418662 0 CFG=2
M  V30 13 C 10.177770 7.682551 -7.079757 0
M  V30 14 C 10.195208 8.975641 -6.526062 0
M  V30 15 C 10.888615 9.253718 -5.332591 0
M  V30 16 C 11.537741 8.211310 -4.647776 0
M  V30 17 C 11.503584 6.907480 -5.175667 0
M  V30 18 C 10.868311 6.656857 -6.408799 0
M  V30 19 C 8.770406 6.088593 -8.663420 0
M  V30 20 C 9.248584 5.687224 -10.074015 0 CFG=2
M  V30 21 C 9.529324 6.999341 -10.751464 0 CFG=2
M  V30 22 H 7.288652 6.138103 -12.190409 0
M  V30 23 H 6.570621 5.772334 -10.647164 0
M  V30 24 H 6.559170 4.558253 -11.907371 0
M  V30 25 H 10.139732 3.791463 -11.663735 0
M  V30 26 H 8.772542 3.677383 -12.721154 0
M  V30 27 H 10.741549 5.235704 -13.465660 0
M  V30 28 H 9.122108 5.795686 -13.668203 0
M  V30 29 H 9.669397 7.679276 -12.646770 0
M  V30 30 H 12.102551 7.301003 -13.141548 0
M  V30 31 H 13.595363 9.247999 -10.796765 0
M  V30 32 H 13.084877 8.997453 -9.170600 0
M  V30 33 H 8.681149 8.223574 -8.468966 0
M  V30 34 H 9.695848 9.770622 -7.051788 0
M  V30 35 H 10.905703 10.258701 -4.935968 0
M  V30 36 H 12.054068 8.409055 -3.720013 0
M  V30 37 H 11.998446 6.101508 -4.655326 0
M  V30 38 H 10.920912 5.673636 -6.839650 0
M  V30 39 H 9.040754 5.324204 -7.936478 0
M  V30 40 H 7.686979 6.176458 -8.627618 0
M  V30 41 H 10.195854 5.174289 -9.903300 0
M  V30 42 H 8.595356 7.555591 -10.861691 0
M  V30 43 H 8.207499 3.985469 -10.400873 0
M  V30 END ATOM
M  V30 BEGIN BOND
M  V30 1 1 2 1
M  V30 2 1 3 2
M  V30 3 1 4 3
M  V30 4 1 5 4
M  V30 5 1 6 5
M  V30 6 2 7 6
M  V30 7 1 8 7
M  V30 8 1 9 7
M  V30 9 1 10 9
M  V30 10 2 11 9
M  V30 11 1 12 11
M  V30 12 1 13 12
M  V30 13 2 14 13
M  V30 14 1 15 14
M  V30 15 2 16 15
M  V30 16 1 17 16
M  V30 17 1 18 13
M  V30 18 2 18 17
M  V30 19 1 19 12
M  V30 20 1 20 2
M  V30 21 1 20 19
M  V30 22 1 21 5
M  V30 23 1 21 11
M  V30 24 1 21 20
M  V30 25 1 22 1
M  V30 26 1 23 1
M  V30 27 1 24 1
M  V30 28 1 25 3
M  V30 29 1 26 3
M  V30 30 1 27 4
M  V30 31 1 28 4
M  V30 32 1 5 29 CFG=3
M  V30 33 1 30 6
M  V30 34 1 31 8
M  V30 35 1 32 10
M  V30 36 1 12 33 CFG=3
M  V30 37 1 34 14
M  V30 38 1 35 15
M  V30 39 1 36 16
M  V30 40 1 37 17
M  V30 41 1 38 18
M  V30 42 1 39 19
M  V30 43 1 40 19
M  V30 44 1 20 41 CFG=1
M  V30 45 1 21 42 CFG=3
M  V30 46 1 2 43 CFG=1
M  V30 END BOND
M  V30 END CTAB
M  END
>  <b_m_subgroup_collapsed>  (1317) 
0

>  <r_i_docking_score>  (1317) 
-7.2560242332620799

>  <s_m_subgroup_title>  (1317) 
glide-dock_SP_D22_pv

>  <s_m_subgroupid>  (1317) 
glide-dock_SP_D22_pv

>  <Molecule ChEMBL ID>  (1317) 
CHEMBL5273758

>  <Standard Type>  (1317) 
Ki

>  <Standard Value>  (1317) 
12.88

>  <label>  (1317) 
1

$$$$
CHEMBL3290021
     RDKit          3D

  0  0  0  0  0  0  0  0  0  0999 V3000
M  V30 BEGIN CTAB
M  V30 COUNTS 59 63 0 0 1
M  V30 BEGIN ATOM
M  V30 1 O 9.910510 1.435046 -15.123597 0
M  V30 2 S 9.129352 2.638013 -15.446567 0
M  V30 3 O 8.826399 2.972179 -16.846045 0
M  V30 4 N 9.982119 3.993711 -14.784156 0
M  V30 5 C 10.772950 3.875453 -13.556709 0
M  V30 6 C 9.932193 3.981265 -12.270340 0
M  V30 7 C 9.638255 5.414627 -11.792799 0
M  V30 8 C 9.220231 5.407058 -10.306726 0
M  V30 9 N 9.286739 6.722716 -9.613553 0 CFG=2 CHG=1
M  V30 10 C 10.672105 7.267225 -9.508857 0
M  V30 11 C 10.757166 8.601818 -8.736467 0
M  V30 12 C 10.056790 8.561975 -7.364737 0 CFG=2
M  V30 13 C 10.829796 7.868047 -6.267196 0
M  V30 14 N 11.122478 6.574603 -6.358170 0
M  V30 15 O 11.686030 6.172803 -5.123266 0
M  V30 16 C 11.808597 7.263141 -4.290037 0
M  V30 17 C 12.340005 7.381908 -3.002101 0
M  V30 18 C 12.356812 8.664135 -2.425627 0
M  V30 19 F 12.886344 8.836573 -1.195361 0
M  V30 20 C 11.830146 9.772106 -3.131095 0
M  V30 21 C 11.286415 9.623591 -4.428991 0
M  V30 22 C 11.288810 8.338284 -5.015005 0
M  V30 23 C 8.653028 7.968299 -7.541913 0
M  V30 24 C 8.674367 6.603480 -8.270109 0
M  V30 25 C 7.577488 2.595902 -14.538505 0
M  V30 26 C 7.127821 3.745755 -13.846870 0
M  V30 27 C 5.999335 3.683513 -13.013445 0
M  V30 28 C 5.285907 2.479865 -12.912354 0
M  V30 29 C 5.664104 1.373275 -13.689306 0
M  V30 30 S 4.820652 -0.161727 -13.857769 0
M  V30 31 C 6.080619 -0.657531 -14.977171 0
M  V30 32 N 7.064165 0.213319 -15.221903 0
M  V30 33 C 6.827967 1.392831 -14.518158 0
M  V30 34 H 9.557899 4.900748 -14.971246 0
M  V30 35 H 11.283657 2.912495 -13.578036 0
M  V30 36 H 11.561923 4.628640 -13.565623 0
M  V30 37 H 9.037705 3.373286 -12.316594 0
M  V30 38 H 10.485961 3.488895 -11.483325 0
M  V30 39 H 10.533443 6.008670 -11.950830 0
M  V30 40 H 8.863284 5.880302 -12.400668 0
M  V30 41 H 8.202764 5.015331 -10.250166 0
M  V30 42 H 9.841781 4.709276 -9.742053 0
M  V30 43 H 11.285976 6.519254 -9.015553 0
M  V30 44 H 11.107239 7.428096 -10.493286 0
M  V30 45 H 11.796861 8.912076 -8.623058 0
M  V30 46 H 10.280562 9.371877 -9.345564 0
M  V30 47 H 9.931959 9.598523 -7.053448 0
M  V30 48 H 12.739252 6.523784 -2.481591 0
M  V30 49 H 11.850460 10.744182 -2.662311 0
M  V30 50 H 10.884307 10.476002 -4.956728 0
M  V30 51 H 8.134387 7.887576 -6.587048 0
M  V30 52 H 8.086239 8.680346 -8.135864 0
M  V30 53 H 7.686033 6.171835 -8.378645 0
M  V30 54 H 9.198943 5.849426 -7.688776 0
M  V30 55 H 7.665603 4.676600 -13.918315 0
M  V30 56 H 5.686706 4.549623 -12.448838 0
M  V30 57 H 4.419593 2.412355 -12.276911 0
M  V30 58 H 6.086382 -1.624778 -15.461463 0
M  V30 59 H 8.700666 7.371710 -10.128112 0
M  V30 END ATOM
M  V30 BEGIN BOND
M  V30 1 2 2 1
M  V30 2 2 3 2
M  V30 3 1 4 2
M  V30 4 1 5 4
M  V30 5 1 6 5
M  V30 6 1 7 6
M  V30 7 1 8 7
M  V30 8 1 9 8
M  V30 9 1 10 9
M  V30 10 1 11 10
M  V30 11 1 12 11
M  V30 12 1 13 12
M  V30 13 2 14 13
M  V30 14 1 15 14
M  V30 15 1 16 15
M  V30 16 1 17 16
M  V30 17 2 18 17
M  V30 18 1 19 18
M  V30 19 1 20 18
M  V30 20 2 21 20
M  V30 21 1 22 13
M  V30 22 2 22 16
M  V30 23 1 22 21
M  V30 24 1 23 12
M  V30 25 1 24 9
M  V30 26 1 24 23
M  V30 27 1 25 2
M  V30 28 1 26 25
M  V30 29 2 27 26
M  V30 30 1 28 27
M  V30 31 2 29 28
M  V30 32 1 30 29
M  V30 33 1 31 30
M  V30 34 2 32 31
M  V30 35 2 33 25
M  V30 36 1 33 29
M  V30 37 1 33 32
M  V30 38 1 34 4
M  V30 39 1 35 5
M  V30 40 1 36 5
M  V30 41 1 37 6
M  V30 42 1 38 6
M  V30 43 1 39 7
M  V30 44 1 40 7
M  V30 45 1 41 8
M  V30 46 1 42 8
M  V30 47 1 43 10
M  V30 48 1 44 10
M  V30 49 1 45 11
M  V30 50 1 46 11
M  V30 51 1 12 47 CFG=1
M  V30 52 1 48 17
M  V30 53 1 49 20
M  V30 54 1 50 21
M  V30 55 1 51 23
M  V30 56 1 52 23
M  V30 57 1 53 24
M  V30 58 1 54 24
M  V30 59 1 55 26
M  V30 60 1 56 27
M  V30 61 1 57 28
M  V30 62 1 58 31
M  V30 63 1 9 59 CFG=3
M  V30 END BOND
M  V30 END CTAB
M  END
>  <b_m_subgroup_collapsed>  (1318) 
0

>  <r_i_docking_score>  (1318) 
-7.2559247866632504

>  <s_m_subgroup_title>  (1318) 
glide-dock_SP_D22_pv

>  <s_m_subgroupid>  (1318) 
glide-dock_SP_D22_pv

>  <Molecule ChEMBL ID>  (1318) 
CHEMBL3290021

>  <Standard Type>  (1318) 
Ki

>  <Standard Value>  (1318) 
25.0

>  <label>  (1318) 
1

$$$$
CHEMBL270406
     RDKit          3D

  0  0  0  0  0  0  0  0  0  0999 V3000
M  V30 BEGIN CTAB
M  V30 COUNTS 59 61 0 0 1
M  V30 BEGIN ATOM
M  V30 1 C 5.626589 4.550243 -12.532385 0
M  V30 2 O 6.856165 3.999530 -12.973948 0
M  V30 3 C 7.998447 4.749985 -12.799387 0
M  V30 4 C 8.075664 5.871421 -11.939024 0
M  V30 5 C 9.261104 6.624337 -11.825907 0
M  V30 6 C 9.314910 7.811541 -10.861513 0
M  V30 7 N 9.286061 7.405651 -9.431487 0 CHG=1
M  V30 8 C 9.119202 8.572101 -8.523037 0
M  V30 9 C 8.989132 8.113029 -7.061115 0
M  V30 10 N 10.128958 7.279972 -6.702268 0
M  V30 11 C 10.925513 7.580539 -5.579136 0
M  V30 12 C 11.251342 6.573022 -4.646225 0
M  V30 13 C 11.957800 6.859527 -3.463587 0
M  V30 14 C 12.365192 8.174131 -3.202989 0
M  V30 15 C 12.090438 9.180992 -4.142191 0
M  V30 16 C 11.395424 8.894586 -5.349120 0
M  V30 17 O 11.176609 9.828915 -6.339588 0
M  V30 18 C 11.778121 11.088448 -6.166548 0
M  V30 19 C 10.397018 6.129734 -7.551132 0
M  V30 20 C 10.443997 6.550660 -9.036285 0
M  V30 21 C 10.379550 6.284536 -12.616675 0
M  V30 22 O 11.473623 7.117268 -12.528914 0
M  V30 23 C 12.550970 6.962860 -13.437207 0
M  V30 24 C 12.245737 7.495921 -14.840273 0
M  V30 25 F 13.285913 7.281419 -15.643458 0
M  V30 26 C 10.318497 5.134951 -13.443207 0
M  V30 27 C 9.141138 4.353675 -13.522944 0
M  V30 28 O 9.028057 3.220113 -14.300909 0
M  V30 29 C 10.215041 2.642755 -14.826247 0
M  V30 30 H 4.810291 3.907813 -12.861610 0
M  V30 31 H 5.579171 4.607252 -11.447077 0
M  V30 32 H 5.456943 5.541832 -12.955065 0
M  V30 33 H 7.222459 6.171854 -11.352189 0
M  V30 34 H 8.480574 8.470433 -11.083222 0
M  V30 35 H 10.198454 8.425484 -11.031429 0
M  V30 36 H 8.244428 9.155393 -8.806793 0
M  V30 37 H 9.976021 9.238494 -8.629999 0
M  V30 38 H 8.085874 7.516556 -6.942124 0
M  V30 39 H 8.881314 8.964314 -6.389344 0
M  V30 40 H 10.891250 5.576933 -4.794327 0
M  V30 41 H 12.160008 6.072964 -2.749991 0
M  V30 42 H 12.891789 8.414636 -2.291530 0
M  V30 43 H 12.438807 10.171044 -3.902508 0
M  V30 44 H 11.685738 11.718180 -7.046672 0
M  V30 45 H 11.286031 11.586168 -5.328805 0
M  V30 46 H 12.846138 10.972284 -5.978570 0
M  V30 47 H 11.338115 5.655890 -7.270079 0
M  V30 48 H 9.610458 5.387786 -7.404065 0
M  V30 49 H 10.486008 5.652782 -9.652172 0
M  V30 50 H 11.366001 7.103216 -9.225604 0
M  V30 51 H 13.370309 7.549462 -13.026936 0
M  V30 52 H 12.886014 5.927070 -13.462460 0
M  V30 53 H 11.384048 7.010205 -15.295885 0
M  V30 54 H 12.086142 8.571996 -14.812162 0
M  V30 55 H 11.170455 4.852229 -14.036802 0
M  V30 56 H 9.973950 1.683626 -15.286360 0
M  V30 57 H 10.660265 3.274772 -15.594729 0
M  V30 58 H 10.949757 2.455842 -14.041692 0
M  V30 59 H 8.437212 6.862567 -9.318098 0
M  V30 END ATOM
M  V30 BEGIN BOND
M  V30 1 1 2 1
M  V30 2 1 3 2
M  V30 3 1 4 3
M  V30 4 2 5 4
M  V30 5 1 6 5
M  V30 6 1 7 6
M  V30 7 1 8 7
M  V30 8 1 9 8
M  V30 9 1 10 9
M  V30 10 1 11 10
M  V30 11 2 12 11
M  V30 12 1 13 12
M  V30 13 2 14 13
M  V30 14 1 15 14
M  V30 15 1 16 11
M  V30 16 2 16 15
M  V30 17 1 17 16
M  V30 18 1 18 17
M  V30 19 1 19 10
M  V30 20 1 20 7
M  V30 21 1 20 19
M  V30 22 1 21 5
M  V30 23 1 22 21
M  V30 24 1 23 22
M  V30 25 1 24 23
M  V30 26 1 25 24
M  V30 27 2 26 21
M  V30 28 2 27 3
M  V30 29 1 27 26
M  V30 30 1 28 27
M  V30 31 1 29 28
M  V30 32 1 30 1
M  V30 33 1 31 1
M  V30 34 1 32 1
M  V30 35 1 33 4
M  V30 36 1 34 6
M  V30 37 1 35 6
M  V30 38 1 36 8
M  V30 39 1 37 8
M  V30 40 1 38 9
M  V30 41 1 39 9
M  V30 42 1 40 12
M  V30 43 1 41 13
M  V30 44 1 42 14
M  V30 45 1 43 15
M  V30 46 1 44 18
M  V30 47 1 45 18
M  V30 48 1 46 18
M  V30 49 1 47 19
M  V30 50 1 48 19
M  V30 51 1 49 20
M  V30 52 1 50 20
M  V30 53 1 51 23
M  V30 54 1 52 23
M  V30 55 1 53 24
M  V30 56 1 54 24
M  V30 57 1 55 26
M  V30 58 1 56 29
M  V30 59 1 57 29
M  V30 60 1 58 29
M  V30 61 1 59 7
M  V30 END BOND
M  V30 END CTAB
M  END
>  <b_m_subgroup_collapsed>  (1319) 
0

>  <r_i_docking_score>  (1319) 
-7.2551763074514897

>  <s_m_subgroup_title>  (1319) 
glide-dock_SP_D22_pv

>  <s_m_subgroupid>  (1319) 
glide-dock_SP_D22_pv

>  <Molecule ChEMBL ID>  (1319) 
CHEMBL270406

>  <Standard Type>  (1319) 
Ki

>  <Standard Value>  (1319) 
94.0

>  <label>  (1319) 
1

$$$$
CHEMBL111884
     RDKit          3D

  0  0  0  0  0  0  0  0  0  0999 V3000
M  V30 BEGIN CTAB
M  V30 COUNTS 62 65 0 0 1
M  V30 BEGIN ATOM
M  V30 1 C 8.496278 8.911826 -12.035790 0
M  V30 2 C 9.322447 8.658026 -10.757225 0
M  V30 3 N 8.937392 7.404058 -10.058134 0 CFG=2 CHG=1
M  V30 4 C 8.964718 7.401601 -8.570918 0 CFG=2
M  V30 5 C 10.097666 8.128154 -7.846402 0
M  V30 6 C 11.397820 8.321589 -8.366873 0
M  V30 7 C 12.376430 8.971982 -7.592141 0
M  V30 8 C 12.085793 9.410108 -6.289787 0
M  V30 9 C 10.801067 9.217570 -5.763114 0
M  V30 10 C 9.819891 8.573903 -6.540772 0
M  V30 11 C 8.894104 5.919488 -8.153007 0
M  V30 12 C 9.066502 5.120828 -9.447592 0
M  V30 13 C 9.637748 6.151387 -10.422557 0 CFG=1
M  V30 14 C 9.666575 5.751670 -11.863296 0
M  V30 15 C 10.482905 6.159550 -12.883284 0
M  V30 16 C 10.208467 5.344225 -14.021124 0
M  V30 17 C 9.242454 4.437116 -13.673562 0
M  V30 18 C 8.697485 3.258084 -14.347162 0
M  V30 19 C 9.550591 2.547508 -15.220428 0
M  V30 20 C 9.150207 1.321804 -15.781332 0
M  V30 21 S 10.263968 0.450590 -16.884130 0
M  V30 22 O 11.598635 1.049868 -16.747391 0
M  V30 23 O 10.085933 -0.990807 -16.658485 0
M  V30 24 C 9.658534 0.850224 -18.578609 0
M  V30 25 C 8.297047 0.209784 -18.880934 0
M  V30 26 C 7.877590 0.797087 -15.496984 0
M  V30 27 C 6.999372 1.518809 -14.665832 0
M  V30 28 C 7.392341 2.755146 -14.089292 0
M  V30 29 O 6.563612 3.493783 -13.267914 0
M  V30 30 C 5.417721 2.873293 -12.698215 0
M  V30 31 N 8.897289 4.726924 -12.371582 0
M  V30 32 H 8.887286 9.761451 -12.598810 0
M  V30 33 H 8.502940 8.045880 -12.688037 0
M  V30 34 H 7.447496 9.132373 -11.842556 0
M  V30 35 H 9.160139 9.499775 -10.085830 0
M  V30 36 H 10.382767 8.643441 -11.004552 0
M  V30 37 H 8.086123 7.932200 -8.236385 0
M  V30 38 H 11.679749 7.979451 -9.348281 0
M  V30 39 H 13.370370 9.111444 -7.991883 0
M  V30 40 H 12.849123 9.899364 -5.702888 0
M  V30 41 H 10.567866 9.553580 -4.762834 0
M  V30 42 H 8.831614 8.415764 -6.135496 0
M  V30 43 H 9.687057 5.672603 -7.445954 0
M  V30 44 H 7.944236 5.687741 -7.667657 0
M  V30 45 H 9.709435 4.247954 -9.327212 0
M  V30 46 H 8.086817 4.774995 -9.780348 0
M  V30 47 H 10.681591 6.277351 -10.139218 0
M  V30 48 H 11.230497 6.935319 -12.812845 0
M  V30 49 H 10.710050 5.381378 -14.977560 0
M  V30 50 H 10.543766 2.922327 -15.422917 0
M  V30 51 H 9.622419 1.934810 -18.678360 0
M  V30 52 H 10.407241 0.480784 -19.280478 0
M  V30 53 H 8.012896 0.387427 -19.917700 0
M  V30 54 H 8.322830 -0.869973 -18.722429 0
M  V30 55 H 7.511675 0.625212 -18.251104 0
M  V30 56 H 7.574524 -0.151561 -15.917540 0
M  V30 57 H 6.023349 1.098724 -14.480739 0
M  V30 58 H 4.909003 3.600678 -12.066630 0
M  V30 59 H 4.700256 2.545959 -13.447047 0
M  V30 60 H 5.687862 2.020360 -12.074409 0
M  V30 61 H 8.213273 4.198450 -11.846601 0
M  V30 62 H 7.932982 7.315824 -10.248237 0
M  V30 END ATOM
M  V30 BEGIN BOND
M  V30 1 1 2 1
M  V30 2 1 3 2
M  V30 3 1 4 3
M  V30 4 1 5 4
M  V30 5 2 6 5
M  V30 6 1 7 6
M  V30 7 2 8 7
M  V30 8 1 9 8
M  V30 9 1 10 5
M  V30 10 2 10 9
M  V30 11 1 11 4
M  V30 12 1 12 11
M  V30 13 1 13 3
M  V30 14 1 13 12
M  V30 15 1 14 13
M  V30 16 2 15 14
M  V30 17 1 16 15
M  V30 18 2 17 16
M  V30 19 1 18 17
M  V30 20 1 19 18
M  V30 21 2 20 19
M  V30 22 1 21 20
M  V30 23 2 22 21
M  V30 24 2 23 21
M  V30 25 1 24 21
M  V30 26 1 25 24
M  V30 27 1 26 20
M  V30 28 2 27 26
M  V30 29 2 28 18
M  V30 30 1 28 27
M  V30 31 1 29 28
M  V30 32 1 30 29
M  V30 33 1 31 14
M  V30 34 1 31 17
M  V30 35 1 32 1
M  V30 36 1 33 1
M  V30 37 1 34 1
M  V30 38 1 35 2
M  V30 39 1 36 2
M  V30 40 1 4 37 CFG=1
M  V30 41 1 38 6
M  V30 42 1 39 7
M  V30 43 1 40 8
M  V30 44 1 41 9
M  V30 45 1 42 10
M  V30 46 1 43 11
M  V30 47 1 44 11
M  V30 48 1 45 12
M  V30 49 1 46 12
M  V30 50 1 13 47 CFG=1
M  V30 51 1 48 15
M  V30 52 1 49 16
M  V30 53 1 50 19
M  V30 54 1 51 24
M  V30 55 1 52 24
M  V30 56 1 53 25
M  V30 57 1 54 25
M  V30 58 1 55 25
M  V30 59 1 56 26
M  V30 60 1 57 27
M  V30 61 1 58 30
M  V30 62 1 59 30
M  V30 63 1 60 30
M  V30 64 1 61 31
M  V30 65 1 3 62 CFG=1
M  V30 END BOND
M  V30 END CTAB
M  END
>  <b_m_subgroup_collapsed>  (1320) 
0

>  <r_i_docking_score>  (1320) 
-7.25418743176626

>  <s_m_subgroup_title>  (1320) 
glide-dock_SP_D22_pv

>  <s_m_subgroupid>  (1320) 
glide-dock_SP_D22_pv

>  <Molecule ChEMBL ID>  (1320) 
CHEMBL111884

>  <Standard Type>  (1320) 
Ki

>  <Standard Value>  (1320) 
39.81

>  <label>  (1320) 
1

$$$$
CHEMBL1242950
     RDKit          3D

  0  0  0  0  0  0  0  0  0  0999 V3000
M  V30 BEGIN CTAB
M  V30 COUNTS 54 55 0 0 1
M  V30 BEGIN ATOM
M  V30 1 C 11.820280 9.482536 -3.342031 0
M  V30 2 C 11.122737 9.812473 -4.667391 0
M  V30 3 C 10.981806 8.596345 -5.594019 0
M  V30 4 C 10.292876 8.953582 -6.923062 0
M  V30 5 C 10.127448 7.776075 -7.902921 0 CFG=1
M  V30 6 C 9.071581 6.765109 -7.419264 0
M  V30 7 C 8.850559 5.639820 -8.440953 0
M  V30 8 N 8.486032 6.171075 -9.781814 0 CFG=2 CHG=1
M  V30 9 C 8.176103 5.082569 -10.743979 0
M  V30 10 C 7.216724 5.520113 -11.870483 0
M  V30 11 C 7.086112 4.456166 -12.983551 0
M  V30 12 C 8.351707 4.316209 -13.845238 0
M  V30 13 O 9.043783 5.315853 -14.029996 0
M  V30 14 C 8.675396 2.960552 -14.393788 0
M  V30 15 C 7.619845 2.047750 -14.648567 0
M  V30 16 C 7.879934 0.760876 -15.153708 0
M  V30 17 C 9.198631 0.368752 -15.435968 0
M  V30 18 C 10.255343 1.269146 -15.219907 0
M  V30 19 C 10.008836 2.561998 -14.709083 0
M  V30 20 C 11.210230 3.473455 -14.495481 0
M  V30 21 C 9.508848 7.122309 -10.286386 0
M  V30 22 C 9.723306 8.283128 -9.301764 0
M  V30 23 H 11.881960 10.362255 -2.702126 0
M  V30 24 H 11.286300 8.712236 -2.788266 0
M  V30 25 H 12.836034 9.126773 -3.510072 0
M  V30 26 H 11.686769 10.588374 -5.183769 0
M  V30 27 H 10.138659 10.236081 -4.461329 0
M  V30 28 H 10.428005 7.813187 -5.077834 0
M  V30 29 H 11.969540 8.185369 -5.796824 0
M  V30 30 H 10.868702 9.744927 -7.403022 0
M  V30 31 H 9.309468 9.370991 -6.721632 0
M  V30 32 H 11.089198 7.268404 -7.994274 0
M  V30 33 H 9.370730 6.325396 -6.468384 0
M  V30 34 H 8.125145 7.275275 -7.230578 0
M  V30 35 H 8.065377 4.978015 -8.075762 0
M  V30 36 H 9.754571 5.034566 -8.529158 0
M  V30 37 H 7.688974 4.256228 -10.224201 0
M  V30 38 H 9.111840 4.685564 -11.140737 0
M  V30 39 H 7.529500 6.469498 -12.308235 0
M  V30 40 H 6.233471 5.718138 -11.446877 0
M  V30 41 H 6.261463 4.719282 -13.646462 0
M  V30 42 H 6.835485 3.497108 -12.533256 0
M  V30 43 H 6.590972 2.323120 -14.461713 0
M  V30 44 H 7.065259 0.072331 -15.330741 0
M  V30 45 H 9.395061 -0.621842 -15.820817 0
M  V30 46 H 11.267206 0.956484 -15.446695 0
M  V30 47 H 11.141572 4.357583 -15.130122 0
M  V30 48 H 11.274613 3.789233 -13.453393 0
M  V30 49 H 12.140224 2.972257 -14.751740 0
M  V30 50 H 10.450256 6.595765 -10.451579 0
M  V30 51 H 9.200352 7.528662 -11.248671 0
M  V30 52 H 10.490500 8.952894 -9.693274 0
M  V30 53 H 8.807464 8.874949 -9.231957 0
M  V30 54 H 7.623254 6.714860 -9.680973 0
M  V30 END ATOM
M  V30 BEGIN BOND
M  V30 1 1 2 1
M  V30 2 1 3 2
M  V30 3 1 4 3
M  V30 4 1 5 4
M  V30 5 1 6 5
M  V30 6 1 7 6
M  V30 7 1 8 7
M  V30 8 1 9 8
M  V30 9 1 10 9
M  V30 10 1 11 10
M  V30 11 1 12 11
M  V30 12 2 13 12
M  V30 13 1 14 12
M  V30 14 2 15 14
M  V30 15 1 16 15
M  V30 16 2 17 16
M  V30 17 1 18 17
M  V30 18 1 19 14
M  V30 19 2 19 18
M  V30 20 1 20 19
M  V30 21 1 21 8
M  V30 22 1 22 5
M  V30 23 1 22 21
M  V30 24 1 23 1
M  V30 25 1 24 1
M  V30 26 1 25 1
M  V30 27 1 26 2
M  V30 28 1 27 2
M  V30 29 1 28 3
M  V30 30 1 29 3
M  V30 31 1 30 4
M  V30 32 1 31 4
M  V30 33 1 5 32 CFG=3
M  V30 34 1 33 6
M  V30 35 1 34 6
M  V30 36 1 35 7
M  V30 37 1 36 7
M  V30 38 1 37 9
M  V30 39 1 38 9
M  V30 40 1 39 10
M  V30 41 1 40 10
M  V30 42 1 41 11
M  V30 43 1 42 11
M  V30 44 1 43 15
M  V30 45 1 44 16
M  V30 46 1 45 17
M  V30 47 1 46 18
M  V30 48 1 47 20
M  V30 49 1 48 20
M  V30 50 1 49 20
M  V30 51 1 50 21
M  V30 52 1 51 21
M  V30 53 1 52 22
M  V30 54 1 53 22
M  V30 55 1 8 54 CFG=1
M  V30 END BOND
M  V30 END CTAB
M  END
>  <b_m_subgroup_collapsed>  (1321) 
0

>  <r_i_docking_score>  (1321) 
-7.2535416257844103

>  <s_m_subgroup_title>  (1321) 
glide-dock_SP_D22_pv

>  <s_m_subgroupid>  (1321) 
glide-dock_SP_D22_pv

>  <Molecule ChEMBL ID>  (1321) 
CHEMBL1242950

>  <Standard Type>  (1321) 
Ki

>  <Standard Value>  (1321) 
77.0

>  <label>  (1321) 
1

$$$$
CHEMBL3765267
     RDKit          3D

  0  0  0  0  0  0  0  0  0  0999 V3000
M  V30 BEGIN CTAB
M  V30 COUNTS 62 65 0 0 1
M  V30 BEGIN ATOM
M  V30 1 C 12.364364 7.456857 -2.495918 0
M  V30 2 C 12.036338 8.635702 -3.406219 0
M  V30 3 O 12.085654 9.772216 -2.950390 0
M  V30 4 C 11.653031 8.335297 -4.811421 0
M  V30 5 C 11.282805 7.030029 -5.211865 0
M  V30 6 C 10.912732 6.776143 -6.542827 0
M  V30 7 C 10.902092 7.802655 -7.502421 0
M  V30 8 C 10.553269 7.520001 -8.897917 0
M  V30 9 N 11.237275 8.064891 -9.912030 0
M  V30 10 N 10.696571 7.544360 -11.062250 0
M  V30 11 C 9.721375 6.726953 -10.661429 0
M  V30 12 S 8.736118 5.770635 -11.775073 0
M  V30 13 C 10.072184 4.898225 -12.643026 0
M  V30 14 C 9.579166 4.228748 -13.929070 0
M  V30 15 C 10.739566 3.648590 -14.760703 0
M  V30 16 N 10.350296 3.012265 -16.022326 0
M  V30 17 C 9.767532 3.963611 -16.964430 0
M  V30 18 C 9.360632 3.287556 -18.279600 0
M  V30 19 O 10.506512 2.687540 -18.865353 0
M  V30 20 C 11.141342 1.724724 -18.024700 0 CFG=1
M  V30 21 C 12.374880 1.173223 -18.721691 0
M  V30 22 C 13.349901 2.070191 -19.205404 0
M  V30 23 C 14.494032 1.590191 -19.864304 0
M  V30 24 C 14.676457 0.204954 -20.054485 0
M  V30 25 C 15.928292 -0.304500 -20.761284 0
M  V30 26 F 16.870499 -0.540818 -19.846165 0
M  V30 27 F 15.683938 -1.426602 -21.443083 0
M  V30 28 F 16.397526 0.604293 -21.620760 0
M  V30 29 C 13.701757 -0.695777 -19.569752 0
M  V30 30 C 12.556372 -0.215003 -18.902674 0
M  V30 31 C 11.499681 2.372450 -16.663458 0
M  V30 32 N 9.571491 6.685151 -9.321039 0
M  V30 33 C 8.603501 5.922223 -8.551554 0
M  V30 34 C 11.267253 9.106282 -7.105286 0
M  V30 35 C 11.624593 9.375626 -5.767406 0
M  V30 36 H 11.458259 6.904232 -2.248772 0
M  V30 37 H 13.064240 6.781271 -2.986907 0
M  V30 38 H 12.815615 7.808488 -1.567000 0
M  V30 39 H 11.275546 6.204753 -4.512539 0
M  V30 40 H 10.654428 5.772836 -6.830667 0
M  V30 41 H 10.866354 5.605791 -12.887146 0
M  V30 42 H 10.484666 4.153681 -11.960623 0
M  V30 43 H 8.862006 3.442849 -13.686603 0
M  V30 44 H 9.039353 4.980444 -14.499836 0
M  V30 45 H 11.465026 4.438510 -14.963984 0
M  V30 46 H 11.261061 2.914750 -14.142787 0
M  V30 47 H 8.887260 4.434021 -16.537558 0
M  V30 48 H 10.477042 4.765098 -17.171993 0
M  V30 49 H 8.592358 2.532353 -18.105984 0
M  V30 50 H 8.946018 4.019441 -18.971006 0
M  V30 51 H 10.441363 0.906174 -17.853344 0
M  V30 52 H 13.215395 3.134879 -19.073925 0
M  V30 53 H 15.234668 2.291461 -20.223665 0
M  V30 54 H 13.842112 -1.760224 -19.693846 0
M  V30 55 H 11.818329 -0.912548 -18.533855 0
M  V30 56 H 12.285470 3.115974 -16.810928 0
M  V30 57 H 11.915030 1.611831 -16.000912 0
M  V30 58 H 7.687615 5.791291 -9.124740 0
M  V30 59 H 9.010179 4.939467 -8.310544 0
M  V30 60 H 8.349387 6.449197 -7.630796 0
M  V30 61 H 11.284920 9.905478 -7.830067 0
M  V30 62 H 11.894384 10.382867 -5.489205 0
M  V30 END ATOM
M  V30 BEGIN BOND
M  V30 1 1 2 1
M  V30 2 2 3 2
M  V30 3 1 4 2
M  V30 4 1 5 4
M  V30 5 2 6 5
M  V30 6 1 7 6
M  V30 7 1 8 7
M  V30 8 2 9 8
M  V30 9 1 10 9
M  V30 10 2 11 10
M  V30 11 1 12 11
M  V30 12 1 13 12
M  V30 13 1 14 13
M  V30 14 1 15 14
M  V30 15 1 16 15
M  V30 16 1 17 16
M  V30 17 1 18 17
M  V30 18 1 19 18
M  V30 19 1 20 19
M  V30 20 1 21 20
M  V30 21 1 22 21
M  V30 22 2 23 22
M  V30 23 1 24 23
M  V30 24 1 25 24
M  V30 25 1 26 25
M  V30 26 1 27 25
M  V30 27 1 28 25
M  V30 28 2 29 24
M  V30 29 2 30 21
M  V30 30 1 30 29
M  V30 31 1 31 16
M  V30 32 1 31 20
M  V30 33 1 32 8
M  V30 34 1 32 11
M  V30 35 1 33 32
M  V30 36 2 34 7
M  V30 37 2 35 4
M  V30 38 1 35 34
M  V30 39 1 36 1
M  V30 40 1 37 1
M  V30 41 1 38 1
M  V30 42 1 39 5
M  V30 43 1 40 6
M  V30 44 1 41 13
M  V30 45 1 42 13
M  V30 46 1 43 14
M  V30 47 1 44 14
M  V30 48 1 45 15
M  V30 49 1 46 15
M  V30 50 1 47 17
M  V30 51 1 48 17
M  V30 52 1 49 18
M  V30 53 1 50 18
M  V30 54 1 20 51 CFG=1
M  V30 55 1 52 22
M  V30 56 1 53 23
M  V30 57 1 54 29
M  V30 58 1 55 30
M  V30 59 1 56 31
M  V30 60 1 57 31
M  V30 61 1 58 33
M  V30 62 1 59 33
M  V30 63 1 60 33
M  V30 64 1 61 34
M  V30 65 1 62 35
M  V30 END BOND
M  V30 END CTAB
M  END
>  <b_m_subgroup_collapsed>  (1322) 
0

>  <r_i_docking_score>  (1322) 
-7.2528487880095804

>  <s_m_subgroup_title>  (1322) 
glide-dock_SP_D22_pv

>  <s_m_subgroupid>  (1322) 
glide-dock_SP_D22_pv

>  <Molecule ChEMBL ID>  (1322) 
CHEMBL3765267

>  <Standard Type>  (1322) 
Ki

>  <Standard Value>  (1322) 
19952.62

>  <label>  (1322) 
0

$$$$
CHEMBL305392
     RDKit          3D

  0  0  0  0  0  0  0  0  0  0999 V3000
M  V30 BEGIN CTAB
M  V30 COUNTS 43 46 0 0 1
M  V30 BEGIN ATOM
M  V30 1 N 12.886014 7.815883 -14.919356 0
M  V30 2 C 12.224165 7.371899 -14.084186 0
M  V30 3 C 11.372641 6.820016 -13.047052 0
M  V30 4 C 10.508821 5.757355 -13.373599 0
M  V30 5 C 9.608747 5.264895 -12.415400 0
M  V30 6 C 9.580898 5.818110 -11.121185 0
M  V30 7 C 10.463942 6.879374 -10.781451 0
M  V30 8 C 11.362899 7.372391 -11.749176 0
M  V30 9 C 10.523421 7.346503 -9.336794 0 CFG=1
M  V30 10 C 10.692852 8.823591 -8.984625 0
M  V30 11 N 10.414172 8.850121 -7.516875 0 CFG=2 CHG=1
M  V30 12 C 11.686983 8.761959 -6.765445 0
M  V30 13 C 11.627026 8.506725 -5.264523 0
M  V30 14 C 11.685982 7.190583 -4.747003 0
M  V30 15 C 11.889023 6.972418 -3.371212 0
M  V30 16 C 12.032483 8.069528 -2.504249 0
M  V30 17 C 11.924456 9.378340 -3.006904 0
M  V30 18 C 11.701118 9.595626 -4.378882 0
M  V30 19 C 9.451249 7.744595 -7.242909 0
M  V30 20 C 9.250233 7.069138 -8.590473 0 CFG=2
M  V30 21 C 8.885659 5.593329 -8.647730 0
M  V30 22 C 8.585698 5.247344 -10.114617 0
M  V30 23 H 10.511157 5.334446 -14.368360 0
M  V30 24 H 8.937576 4.459274 -12.676196 0
M  V30 25 H 12.048520 8.168324 -11.494728 0
M  V30 26 H 11.326604 6.769697 -8.880554 0
M  V30 27 H 11.674680 9.217369 -9.253268 0
M  V30 28 H 9.946406 9.428379 -9.502829 0
M  V30 29 H 12.286987 7.968354 -7.207775 0
M  V30 30 H 12.252667 9.679448 -6.937025 0
M  V30 31 H 11.653832 6.335850 -5.407780 0
M  V30 32 H 11.963425 5.965393 -2.986207 0
M  V30 33 H 12.209747 7.909587 -1.453115 0
M  V30 34 H 12.031827 10.218841 -2.337302 0
M  V30 35 H 11.661255 10.600081 -4.765844 0
M  V30 36 H 9.814438 7.012351 -6.527864 0
M  V30 37 H 8.509143 8.136490 -6.855348 0
M  V30 38 H 8.484979 7.632793 -9.110639 0
M  V30 39 H 9.711694 4.986450 -8.274614 0
M  V30 40 H 8.019135 5.376536 -8.022429 0
M  V30 41 H 7.609210 5.651305 -10.380905 0
M  V30 42 H 8.514706 4.172358 -10.233665 0
M  V30 43 H 9.970544 9.725820 -7.280799 0
M  V30 END ATOM
M  V30 BEGIN BOND
M  V30 1 3 2 1
M  V30 2 1 3 2
M  V30 3 1 4 3
M  V30 4 2 5 4
M  V30 5 1 6 5
M  V30 6 2 7 6
M  V30 7 2 8 3
M  V30 8 1 8 7
M  V30 9 1 9 7
M  V30 10 1 10 9
M  V30 11 1 11 10
M  V30 12 1 12 11
M  V30 13 1 13 12
M  V30 14 2 14 13
M  V30 15 1 15 14
M  V30 16 2 16 15
M  V30 17 1 17 16
M  V30 18 1 18 13
M  V30 19 2 18 17
M  V30 20 1 19 11
M  V30 21 1 20 9
M  V30 22 1 20 19
M  V30 23 1 21 20
M  V30 24 1 22 6
M  V30 25 1 22 21
M  V30 26 1 23 4
M  V30 27 1 24 5
M  V30 28 1 25 8
M  V30 29 1 9 26 CFG=1
M  V30 30 1 27 10
M  V30 31 1 28 10
M  V30 32 1 29 12
M  V30 33 1 30 12
M  V30 34 1 31 14
M  V30 35 1 32 15
M  V30 36 1 33 16
M  V30 37 1 34 17
M  V30 38 1 35 18
M  V30 39 1 36 19
M  V30 40 1 37 19
M  V30 41 1 20 38 CFG=3
M  V30 42 1 39 21
M  V30 43 1 40 21
M  V30 44 1 41 22
M  V30 45 1 42 22
M  V30 46 1 11 43 CFG=3
M  V30 END BOND
M  V30 END CTAB
M  END
>  <b_m_subgroup_collapsed>  (1323) 
0

>  <r_i_docking_score>  (1323) 
-7.2527541857161202

>  <s_m_subgroup_title>  (1323) 
glide-dock_SP_D22_pv

>  <s_m_subgroupid>  (1323) 
glide-dock_SP_D22_pv

>  <Molecule ChEMBL ID>  (1323) 
CHEMBL305392

>  <Standard Type>  (1323) 
Ki

>  <Standard Value>  (1323) 
10.0

>  <label>  (1323) 
1

$$$$
CHEMBL4534961
     RDKit          3D

  0  0  0  0  0  0  0  0  0  0999 V3000
M  V30 BEGIN CTAB
M  V30 COUNTS 73 77 0 0 1
M  V30 BEGIN ATOM
M  V30 1 C 4.853084 1.056109 -18.987484 0
M  V30 2 O 6.265872 0.974178 -18.881435 0
M  V30 3 C 6.927835 0.017888 -19.628565 0
M  V30 4 C 6.297896 -0.697327 -20.680134 0
M  V30 5 C 7.019628 -1.628685 -21.447613 0
M  V30 6 C 8.378968 -1.852980 -21.184710 0
M  V30 7 C 9.015630 -1.151470 -20.145605 0
M  V30 8 C 8.302463 -0.222426 -19.352348 0
M  V30 9 N 8.976939 0.432640 -18.302389 0
M  V30 10 C 10.309477 0.987546 -18.487619 0
M  V30 11 C 10.326015 2.464873 -18.047935 0
M  V30 12 C 9.752439 2.697205 -16.623390 0
M  V30 13 C 10.729779 2.159816 -15.549599 0
M  V30 14 C 10.293846 2.514598 -14.116461 0
M  V30 15 N 10.091669 3.976007 -13.924620 0 CHG=1
M  V30 16 C 9.667109 4.306117 -12.537060 0
M  V30 17 C 9.918242 5.782676 -12.180947 0
M  V30 18 C 9.680802 6.086989 -10.695354 0
M  V30 19 S 10.490017 7.639580 -10.215140 0
M  V30 20 C 10.333334 7.493905 -8.464072 0
M  V30 21 N 9.337065 6.858332 -7.853395 0
M  V30 22 N 9.600891 6.971363 -6.512174 0
M  V30 23 C 10.737449 7.663675 -6.409733 0
M  V30 24 C 11.319343 7.951241 -5.104955 0
M  V30 25 C 11.686047 6.880260 -4.265645 0
M  V30 26 C 12.190619 7.121963 -2.971748 0
M  V30 27 C 12.336911 8.444765 -2.515587 0
M  V30 28 C 11.978044 9.517790 -3.353093 0
M  V30 29 C 11.467517 9.279205 -4.644234 0
M  V30 30 F 11.097466 10.324635 -5.421550 0
M  V30 31 N 11.248709 8.003953 -7.615613 0
M  V30 32 C 12.476147 8.704420 -7.948630 0
M  V30 33 C 9.181158 4.555805 -14.942842 0
M  V30 34 C 9.633525 4.218355 -16.374893 0
M  V30 35 C 8.353558 2.016116 -16.544756 0
M  V30 36 C 8.385426 0.539519 -16.974798 0
M  V30 37 H 4.485859 1.768273 -18.248167 0
M  V30 38 H 4.547286 1.417948 -19.968660 0
M  V30 39 H 4.377062 0.095582 -18.788965 0
M  V30 40 H 5.257577 -0.543147 -20.926798 0
M  V30 41 H 6.524916 -2.165788 -22.243103 0
M  V30 42 H 8.934046 -2.568254 -21.772758 0
M  V30 43 H 10.056325 -1.349019 -19.942780 0
M  V30 44 H 10.621947 0.920464 -19.529715 0
M  V30 45 H 11.018918 0.403019 -17.902769 0
M  V30 46 H 9.733213 3.037098 -18.764399 0
M  V30 47 H 11.342118 2.855583 -18.120718 0
M  V30 48 H 11.726754 2.570279 -15.723910 0
M  V30 49 H 10.847698 1.078875 -15.631001 0
M  V30 50 H 11.077566 2.168719 -13.446802 0
M  V30 51 H 9.387434 1.971197 -13.842653 0
M  V30 52 H 10.228993 3.686991 -11.840204 0
M  V30 53 H 8.618690 4.045587 -12.387290 0
M  V30 54 H 9.280706 6.444020 -12.766150 0
M  V30 55 H 10.944715 6.042151 -12.440573 0
M  V30 56 H 10.086205 5.287886 -10.076146 0
M  V30 57 H 8.612061 6.151009 -10.479707 0
M  V30 58 H 11.563119 5.861845 -4.605581 0
M  V30 59 H 12.452051 6.291172 -2.331747 0
M  V30 60 H 12.712010 8.639075 -1.521076 0
M  V30 61 H 12.079300 10.530923 -2.991080 0
M  V30 62 H 12.296779 9.368545 -8.792245 0
M  V30 63 H 12.833404 9.298389 -7.106420 0
M  V30 64 H 13.240026 7.986689 -8.246500 0
M  V30 65 H 8.168378 4.203453 -14.747710 0
M  V30 66 H 9.151342 5.639035 -14.838853 0
M  V30 67 H 10.595999 4.696073 -16.563313 0
M  V30 68 H 8.941740 4.662403 -17.091843 0
M  V30 69 H 7.919832 2.077628 -15.547893 0
M  V30 70 H 7.661569 2.550168 -17.196730 0
M  V30 71 H 7.389469 0.101383 -16.938725 0
M  V30 72 H 8.987258 -0.048237 -16.282156 0
M  V30 73 H 10.995701 4.404486 -14.063826 0
M  V30 END ATOM
M  V30 BEGIN BOND
M  V30 1 1 2 1
M  V30 2 1 3 2
M  V30 3 2 4 3
M  V30 4 1 5 4
M  V30 5 2 6 5
M  V30 6 1 7 6
M  V30 7 1 8 3
M  V30 8 2 8 7
M  V30 9 1 9 8
M  V30 10 1 10 9
M  V30 11 1 11 10
M  V30 12 1 12 11
M  V30 13 1 13 12
M  V30 14 1 14 13
M  V30 15 1 15 14
M  V30 16 1 16 15
M  V30 17 1 17 16
M  V30 18 1 18 17
M  V30 19 1 19 18
M  V30 20 1 20 19
M  V30 21 2 21 20
M  V30 22 1 22 21
M  V30 23 2 23 22
M  V30 24 1 24 23
M  V30 25 2 25 24
M  V30 26 1 26 25
M  V30 27 2 27 26
M  V30 28 1 28 27
M  V30 29 1 29 24
M  V30 30 2 29 28
M  V30 31 1 30 29
M  V30 32 1 31 20
M  V30 33 1 31 23
M  V30 34 1 32 31
M  V30 35 1 33 15
M  V30 36 1 34 12
M  V30 37 1 34 33
M  V30 38 1 35 12
M  V30 39 1 36 9
M  V30 40 1 36 35
M  V30 41 1 37 1
M  V30 42 1 38 1
M  V30 43 1 39 1
M  V30 44 1 40 4
M  V30 45 1 41 5
M  V30 46 1 42 6
M  V30 47 1 43 7
M  V30 48 1 44 10
M  V30 49 1 45 10
M  V30 50 1 46 11
M  V30 51 1 47 11
M  V30 52 1 48 13
M  V30 53 1 49 13
M  V30 54 1 50 14
M  V30 55 1 51 14
M  V30 56 1 52 16
M  V30 57 1 53 16
M  V30 58 1 54 17
M  V30 59 1 55 17
M  V30 60 1 56 18
M  V30 61 1 57 18
M  V30 62 1 58 25
M  V30 63 1 59 26
M  V30 64 1 60 27
M  V30 65 1 61 28
M  V30 66 1 62 32
M  V30 67 1 63 32
M  V30 68 1 64 32
M  V30 69 1 65 33
M  V30 70 1 66 33
M  V30 71 1 67 34
M  V30 72 1 68 34
M  V30 73 1 69 35
M  V30 74 1 70 35
M  V30 75 1 71 36
M  V30 76 1 72 36
M  V30 77 1 73 15
M  V30 END BOND
M  V30 END CTAB
M  END
>  <b_m_subgroup_collapsed>  (1324) 
0

>  <r_i_docking_score>  (1324) 
-7.2500778770172003

>  <s_m_subgroup_title>  (1324) 
glide-dock_SP_D22_pv

>  <s_m_subgroupid>  (1324) 
glide-dock_SP_D22_pv

>  <Molecule ChEMBL ID>  (1324) 
CHEMBL4534961

>  <Standard Type>  (1324) 
Ki

>  <Standard Value>  (1324) 
19655.0

>  <label>  (1324) 
0

$$$$
CHEMBL552373
     RDKit          3D

  0  0  0  0  0  0  0  0  0  0999 V3000
M  V30 BEGIN CTAB
M  V30 COUNTS 48 50 0 0 1
M  V30 BEGIN ATOM
M  V30 1 N 4.526988 -1.091298 -14.937223 0
M  V30 2 C 5.427608 -0.365975 -14.967486 0
M  V30 3 C 6.550549 0.553787 -14.998094 0
M  V30 4 C 7.693787 0.275348 -15.770685 0
M  V30 5 C 8.773684 1.179125 -15.781363 0
M  V30 6 C 8.709414 2.363668 -15.023827 0
M  V30 7 C 7.562583 2.658376 -14.246890 0
M  V30 8 N 7.458014 3.861038 -13.481920 0
M  V30 9 C 6.168923 4.461612 -13.160318 0
M  V30 10 C 6.537627 5.733217 -12.410619 0
M  V30 11 N 7.969474 5.591589 -12.249480 0
M  V30 12 C 8.722394 6.496973 -11.387980 0
M  V30 13 C 8.768748 5.944330 -9.946983 0
M  V30 14 N 9.601034 6.772581 -9.039393 0 CFG=2 CHG=1
M  V30 15 C 10.134883 5.994427 -7.889670 0
M  V30 16 C 11.110281 6.834366 -7.041783 0
M  V30 17 C 10.459077 8.143641 -6.558655 0 CFG=1
M  V30 18 C 11.425346 9.023163 -5.734303 0
M  V30 19 F 12.484334 9.373004 -6.465135 0
M  V30 20 F 10.806519 10.128468 -5.319861 0
M  V30 21 F 11.838511 8.352247 -4.658305 0
M  V30 22 C 9.889779 8.888290 -7.779180 0
M  V30 23 C 8.915318 8.000443 -8.565306 0
M  V30 24 C 8.465949 4.509048 -12.862585 0
M  V30 25 O 9.650636 4.174359 -12.828626 0
M  V30 26 C 6.485987 1.742526 -14.246537 0
M  V30 27 H 7.747646 -0.627738 -16.360983 0
M  V30 28 H 9.649261 0.965608 -16.375687 0
M  V30 29 H 9.547618 3.045126 -15.061110 0
M  V30 30 H 5.579842 4.658392 -14.055066 0
M  V30 31 H 5.593628 3.805948 -12.505448 0
M  V30 32 H 6.031625 5.778130 -11.446347 0
M  V30 33 H 6.298514 6.634969 -12.976562 0
M  V30 34 H 9.735549 6.619092 -11.778420 0
M  V30 35 H 8.261726 7.484311 -11.443306 0
M  V30 36 H 7.762816 5.838454 -9.537556 0
M  V30 37 H 9.182319 4.935130 -9.986893 0
M  V30 38 H 9.300224 5.653475 -7.275283 0
M  V30 39 H 10.646905 5.101965 -8.248346 0
M  V30 40 H 11.446227 6.244132 -6.187585 0
M  V30 41 H 12.002318 7.060599 -7.626816 0
M  V30 42 H 9.625092 7.881286 -5.906119 0
M  V30 43 H 9.358232 9.772232 -7.447618 0
M  V30 44 H 10.694729 9.231169 -8.429635 0
M  V30 45 H 8.488864 8.560538 -9.399179 0
M  V30 46 H 8.088283 7.723020 -7.910906 0
M  V30 47 H 5.598246 1.935479 -13.664198 0
M  V30 48 H 10.397449 7.068728 -9.584540 0
M  V30 END ATOM
M  V30 BEGIN BOND
M  V30 1 3 2 1
M  V30 2 1 3 2
M  V30 3 1 4 3
M  V30 4 2 5 4
M  V30 5 1 6 5
M  V30 6 2 7 6
M  V30 7 1 8 7
M  V30 8 1 9 8
M  V30 9 1 10 9
M  V30 10 1 11 10
M  V30 11 1 12 11
M  V30 12 1 13 12
M  V30 13 1 14 13
M  V30 14 1 15 14
M  V30 15 1 16 15
M  V30 16 1 17 16
M  V30 17 1 18 17
M  V30 18 1 19 18
M  V30 19 1 20 18
M  V30 20 1 21 18
M  V30 21 1 22 17
M  V30 22 1 23 14
M  V30 23 1 23 22
M  V30 24 1 24 8
M  V30 25 1 24 11
M  V30 26 2 25 24
M  V30 27 2 26 3
M  V30 28 1 26 7
M  V30 29 1 27 4
M  V30 30 1 28 5
M  V30 31 1 29 6
M  V30 32 1 30 9
M  V30 33 1 31 9
M  V30 34 1 32 10
M  V30 35 1 33 10
M  V30 36 1 34 12
M  V30 37 1 35 12
M  V30 38 1 36 13
M  V30 39 1 37 13
M  V30 40 1 38 15
M  V30 41 1 39 15
M  V30 42 1 40 16
M  V30 43 1 41 16
M  V30 44 1 17 42 CFG=1
M  V30 45 1 43 22
M  V30 46 1 44 22
M  V30 47 1 45 23
M  V30 48 1 46 23
M  V30 49 1 47 26
M  V30 50 1 14 48 CFG=3
M  V30 END BOND
M  V30 END CTAB
M  END
>  <b_m_subgroup_collapsed>  (1325) 
0

>  <r_i_docking_score>  (1325) 
-7.2492910707935296

>  <s_m_subgroup_title>  (1325) 
glide-dock_SP_D22_pv

>  <s_m_subgroupid>  (1325) 
glide-dock_SP_D22_pv

>  <Molecule ChEMBL ID>  (1325) 
CHEMBL552373

>  <Standard Type>  (1325) 
Ki

>  <Standard Value>  (1325) 
100.0

>  <label>  (1325) 
1

$$$$
CHEMBL5413237
     RDKit          3D

  0  0  0  0  0  0  0  0  0  0999 V3000
M  V30 BEGIN CTAB
M  V30 COUNTS 65 67 0 0 1
M  V30 BEGIN ATOM
M  V30 1 C 13.064121 7.428186 -15.879797 0
M  V30 2 C 12.110518 6.398811 -16.520893 0
M  V30 3 C 12.580010 4.908249 -16.548479 0
M  V30 4 C 13.574555 4.620736 -17.707747 0
M  V30 5 C 14.883328 5.421234 -17.730099 0
M  V30 6 C 11.391240 3.907648 -16.741852 0
M  V30 7 C 10.491657 3.632837 -15.507953 0 CFG=1
M  V30 8 O 9.711023 4.812004 -15.303823 0
M  V30 9 C 8.842440 4.881356 -14.176827 0
M  V30 10 C 9.490582 5.733045 -13.071578 0
M  V30 11 C 8.540091 6.686610 -12.321244 0
M  V30 12 N 8.086057 6.172265 -11.016491 0 CHG=1
M  V30 13 C 9.107002 5.788265 -10.009491 0
M  V30 14 C 10.115478 6.866198 -9.615938 0
M  V30 15 C 11.109605 7.347757 -10.501409 0
M  V30 16 C 12.114067 8.193260 -10.003928 0
M  V30 17 C 12.085826 8.549564 -8.646324 0
M  V30 18 C 11.037867 8.056818 -7.846347 0
M  V30 19 C 10.898427 8.453342 -6.389648 0
M  V30 20 F 11.798608 9.369232 -6.025382 0
M  V30 21 F 9.686024 8.972047 -6.246874 0
M  V30 22 F 11.019730 7.388687 -5.596328 0
M  V30 23 N 10.083307 7.225598 -8.318181 0
M  V30 24 C 9.567826 2.430005 -15.793097 0
M  V30 25 C 9.543819 1.270861 -14.979449 0
M  V30 26 C 8.614331 0.256043 -15.265217 0
M  V30 27 C 7.748597 0.414814 -16.358521 0
M  V30 28 C 7.846945 1.592226 -17.118820 0
M  V30 29 N 8.724754 2.576627 -16.842466 0
M  V30 30 C 11.444745 3.379880 -14.320047 0
M  V30 31 C 12.518548 4.462374 -14.165929 0
M  V30 32 O 13.285958 4.572099 -15.354248 0
M  V30 33 H 12.580444 8.404082 -15.829293 0
M  V30 34 H 13.336558 7.152557 -14.860987 0
M  V30 35 H 13.988870 7.569883 -16.431330 0
M  V30 36 H 11.861196 6.717301 -17.533190 0
M  V30 37 H 11.182808 6.488077 -15.965950 0
M  V30 38 H 13.855600 3.566586 -17.667522 0
M  V30 39 H 13.068955 4.753148 -18.665110 0
M  V30 40 H 15.592557 4.967686 -18.422249 0
M  V30 41 H 14.717947 6.438959 -18.081409 0
M  V30 42 H 15.353788 5.455164 -16.746290 0
M  V30 43 H 11.805600 2.941862 -17.034967 0
M  V30 44 H 10.779237 4.227268 -17.586542 0
M  V30 45 H 7.941374 5.372041 -14.534485 0
M  V30 46 H 8.529282 3.905409 -13.803648 0
M  V30 47 H 10.063493 5.093673 -12.407313 0
M  V30 48 H 10.247093 6.366337 -13.521690 0
M  V30 49 H 9.022593 7.650705 -12.160854 0
M  V30 50 H 7.661453 6.916923 -12.923309 0
M  V30 51 H 7.472264 6.896020 -10.609628 0
M  V30 52 H 8.555861 5.483906 -9.117997 0
M  V30 53 H 9.647744 4.894756 -10.318913 0
M  V30 54 H 11.166868 7.032566 -11.528328 0
M  V30 55 H 12.899749 8.558826 -10.648084 0
M  V30 56 H 12.850678 9.192421 -8.236896 0
M  V30 57 H 10.195713 1.145094 -14.129171 0
M  V30 58 H 8.557755 -0.626103 -14.647459 0
M  V30 59 H 7.026276 -0.349199 -16.605167 0
M  V30 60 H 7.196548 1.753091 -17.965801 0
M  V30 61 H 10.887183 3.245553 -13.394320 0
M  V30 62 H 11.971520 2.443702 -14.492256 0
M  V30 63 H 12.105688 5.428839 -13.899074 0
M  V30 64 H 13.192368 4.182385 -13.356318 0
M  V30 65 H 7.498682 5.367092 -11.173002 0
M  V30 END ATOM
M  V30 BEGIN BOND
M  V30 1 1 2 1
M  V30 2 1 3 2
M  V30 3 1 4 3
M  V30 4 1 5 4
M  V30 5 1 6 3
M  V30 6 1 7 6
M  V30 7 1 7 8 CFG=1
M  V30 8 1 9 8
M  V30 9 1 10 9
M  V30 10 1 11 10
M  V30 11 1 12 11
M  V30 12 1 13 12
M  V30 13 1 14 13
M  V30 14 1 15 14
M  V30 15 2 16 15
M  V30 16 1 17 16
M  V30 17 2 18 17
M  V30 18 1 19 18
M  V30 19 1 20 19
M  V30 20 1 21 19
M  V30 21 1 22 19
M  V30 22 2 23 14
M  V30 23 1 23 18
M  V30 24 1 24 7
M  V30 25 2 25 24
M  V30 26 1 26 25
M  V30 27 2 27 26
M  V30 28 1 28 27
M  V30 29 1 29 24
M  V30 30 2 29 28
M  V30 31 1 30 7
M  V30 32 1 31 30
M  V30 33 1 32 3
M  V30 34 1 32 31
M  V30 35 1 33 1
M  V30 36 1 34 1
M  V30 37 1 35 1
M  V30 38 1 36 2
M  V30 39 1 37 2
M  V30 40 1 38 4
M  V30 41 1 39 4
M  V30 42 1 40 5
M  V30 43 1 41 5
M  V30 44 1 42 5
M  V30 45 1 43 6
M  V30 46 1 44 6
M  V30 47 1 45 9
M  V30 48 1 46 9
M  V30 49 1 47 10
M  V30 50 1 48 10
M  V30 51 1 49 11
M  V30 52 1 50 11
M  V30 53 1 51 12
M  V30 54 1 52 13
M  V30 55 1 53 13
M  V30 56 1 54 15
M  V30 57 1 55 16
M  V30 58 1 56 17
M  V30 59 1 57 25
M  V30 60 1 58 26
M  V30 61 1 59 27
M  V30 62 1 60 28
M  V30 63 1 61 30
M  V30 64 1 62 30
M  V30 65 1 63 31
M  V30 66 1 64 31
M  V30 67 1 65 12
M  V30 END BOND
M  V30 END CTAB
M  END
>  <b_m_subgroup_collapsed>  (1326) 
0

>  <r_i_docking_score>  (1326) 
-7.2489635092171802

>  <s_m_subgroup_title>  (1326) 
glide-dock_SP_D22_pv

>  <s_m_subgroupid>  (1326) 
glide-dock_SP_D22_pv

>  <Molecule ChEMBL ID>  (1326) 
CHEMBL5413237

>  <Standard Type>  (1326) 
Ki

>  <Standard Value>  (1326) 
100000.0

>  <label>  (1326) 
0

$$$$
CHEMBL5722980
     RDKit          3D

  0  0  0  0  0  0  0  0  0  0999 V3000
M  V30 BEGIN CTAB
M  V30 COUNTS 42 44 0 0 1
M  V30 BEGIN ATOM
M  V30 1 C 12.789201 8.776457 -1.560527 0
M  V30 2 C 12.235740 8.297864 -2.883706 0
M  V30 3 C 11.810379 6.972049 -3.043357 0
M  V30 4 C 11.286551 6.568916 -4.281936 0
M  V30 5 C 11.169664 7.446682 -5.364617 0
M  V30 6 N 10.649403 7.008942 -6.588574 0
M  V30 7 C 10.595353 7.831741 -7.700920 0
M  V30 8 C 10.115990 7.190279 -9.000367 0
M  V30 9 N 9.287056 5.998427 -8.810508 0
M  V30 10 C 9.119002 5.251192 -10.060009 0
M  V30 11 C 8.116764 5.914598 -11.022499 0
M  V30 12 S 8.292024 5.369874 -12.753156 0
M  V30 13 C 7.099995 4.074334 -12.879380 0
M  V30 14 N 7.119489 3.160530 -13.846874 0
M  V30 15 C 6.082419 2.362927 -13.455366 0
M  V30 16 C 5.740823 1.082416 -14.137972 0
M  V30 17 N 5.403013 2.769014 -12.387080 0
M  V30 18 N 6.086283 3.878584 -12.029061 0
M  V30 19 C 10.967258 9.127556 -7.623187 0
M  V30 20 C 11.442813 9.721965 -6.349433 0
M  V30 21 O 11.686210 10.923116 -6.246876 0
M  V30 22 C 11.586441 8.782596 -5.206157 0
M  V30 23 C 12.135421 9.185169 -3.969168 0
M  V30 24 H 12.057879 9.397812 -1.047064 0
M  V30 25 H 13.043388 7.941032 -0.911956 0
M  V30 26 H 13.685985 9.370762 -1.717417 0
M  V30 27 H 11.873570 6.264214 -2.229715 0
M  V30 28 H 10.948030 5.558417 -4.401109 0
M  V30 29 H 10.342716 6.050345 -6.695114 0
M  V30 30 H 9.553221 7.934988 -9.562840 0
M  V30 31 H 10.999926 6.941863 -9.589229 0
M  V30 32 H 8.375719 6.286367 -8.466855 0
M  V30 33 H 10.085881 5.122576 -10.544216 0
M  V30 34 H 8.762810 4.250537 -9.815122 0
M  V30 35 H 7.102316 5.772313 -10.658218 0
M  V30 36 H 8.292097 6.986116 -11.056205 0
M  V30 37 H 4.659845 0.971430 -14.227990 0
M  V30 38 H 6.176805 1.050505 -15.136289 0
M  V30 39 H 6.130218 0.240075 -13.565717 0
M  V30 40 H 5.862003 4.422487 -11.202450 0
M  V30 41 H 10.926457 9.767061 -8.493008 0
M  V30 42 H 12.507162 10.172339 -3.832618 0
M  V30 END ATOM
M  V30 BEGIN BOND
M  V30 1 1 2 1
M  V30 2 2 3 2
M  V30 3 1 4 3
M  V30 4 2 5 4
M  V30 5 1 6 5
M  V30 6 1 7 6
M  V30 7 1 8 7
M  V30 8 1 9 8
M  V30 9 1 10 9
M  V30 10 1 11 10
M  V30 11 1 12 11
M  V30 12 1 13 12
M  V30 13 2 14 13
M  V30 14 1 15 14
M  V30 15 1 16 15
M  V30 16 2 17 15
M  V30 17 1 18 13
M  V30 18 1 18 17
M  V30 19 2 19 7
M  V30 20 1 20 19
M  V30 21 2 21 20
M  V30 22 1 22 5
M  V30 23 1 22 20
M  V30 24 1 23 2
M  V30 25 2 23 22
M  V30 26 1 24 1
M  V30 27 1 25 1
M  V30 28 1 26 1
M  V30 29 1 27 3
M  V30 30 1 28 4
M  V30 31 1 29 6
M  V30 32 1 30 8
M  V30 33 1 31 8
M  V30 34 1 32 9
M  V30 35 1 33 10
M  V30 36 1 34 10
M  V30 37 1 35 11
M  V30 38 1 36 11
M  V30 39 1 37 16
M  V30 40 1 38 16
M  V30 41 1 39 16
M  V30 42 1 40 18
M  V30 43 1 41 19
M  V30 44 1 42 23
M  V30 END BOND
M  V30 END CTAB
M  END
>  <b_m_subgroup_collapsed>  (1327) 
0

>  <r_i_docking_score>  (1327) 
-7.2483254734214304

>  <s_m_subgroup_title>  (1327) 
glide-dock_SP_D22_pv

>  <s_m_subgroupid>  (1327) 
glide-dock_SP_D22_pv

>  <Molecule ChEMBL ID>  (1327) 
CHEMBL5722980

>  <Standard Type>  (1327) 
Ki

>  <Standard Value>  (1327) 
10000.0

>  <label>  (1327) 
0

$$$$
CHEMBL3084505
     RDKit          3D

  0  0  0  0  0  0  0  0  0  0999 V3000
M  V30 BEGIN CTAB
M  V30 COUNTS 50 54 0 0 1
M  V30 BEGIN ATOM
M  V30 1 O 9.900776 6.572286 -6.186445 0
M  V30 2 C 10.604556 7.714817 -6.568642 0 CFG=1
M  V30 3 C 11.252964 8.220908 -5.270902 0
M  V30 4 C 11.252663 9.576791 -4.877709 0
M  V30 5 C 11.685390 9.926806 -3.581434 0
M  V30 6 C 12.134198 8.952268 -2.680214 0
M  V30 7 F 12.487186 9.304115 -1.426752 0
M  V30 8 C 12.201800 7.610977 -3.079434 0
M  V30 9 C 11.770476 7.255332 -4.366140 0
M  V30 10 C 11.652088 7.372200 -7.665407 0
M  V30 11 C 11.053239 7.030857 -9.073176 0 CFG=1
M  V30 12 C 10.068676 5.850608 -9.006791 0
M  V30 13 C 8.734083 6.551598 -8.736627 0
M  V30 14 C 9.086641 8.066095 -8.636351 0 CFG=1
M  V30 15 C 9.496169 8.576459 -7.217961 0
M  V30 16 N 10.235897 8.164722 -9.548746 0 CFG=2 CHG=1
M  V30 17 C 9.812410 8.173285 -10.992622 0
M  V30 18 C 10.536252 7.253908 -11.942647 0
M  V30 19 C 11.827658 7.371971 -12.393863 0
M  V30 20 N 12.086802 6.358131 -13.299110 0
M  V30 21 C 10.984744 5.544549 -13.453990 0
M  V30 22 C 10.758713 4.393881 -14.230715 0
M  V30 23 C 9.499303 3.768302 -14.186794 0
M  V30 24 C 8.480848 4.304142 -13.374929 0
M  V30 25 C 8.717741 5.458053 -12.599990 0
M  V30 26 C 9.978902 6.102777 -12.611831 0
M  V30 27 H 9.201901 6.818397 -5.597759 0
M  V30 28 H 10.874906 10.349422 -5.528553 0
M  V30 29 H 11.654166 10.956563 -3.248418 0
M  V30 30 H 12.552090 6.852760 -2.395438 0
M  V30 31 H 11.796916 6.209217 -4.637964 0
M  V30 32 H 12.316647 8.229262 -7.787525 0
M  V30 33 H 12.283512 6.564446 -7.309286 0
M  V30 34 H 11.871837 6.850191 -9.765089 0
M  V30 35 H 10.337764 5.118670 -8.246053 0
M  V30 36 H 10.026370 5.309542 -9.950974 0
M  V30 37 H 8.180467 6.169327 -7.879519 0
M  V30 38 H 8.085159 6.366729 -9.590281 0
M  V30 39 H 8.280963 8.709088 -8.984189 0
M  V30 40 H 8.615818 8.636098 -6.574630 0
M  V30 41 H 9.850161 9.598537 -7.335044 0
M  V30 42 H 8.743319 7.974044 -11.077832 0
M  V30 43 H 9.896626 9.192461 -11.349433 0
M  V30 44 H 12.590140 8.099099 -12.152348 0
M  V30 45 H 12.991354 6.227901 -13.738288 0
M  V30 46 H 11.543354 3.993631 -14.855820 0
M  V30 47 H 9.312603 2.881479 -14.775170 0
M  V30 48 H 7.512117 3.826981 -13.340601 0
M  V30 49 H 7.921341 5.847044 -11.980559 0
M  V30 50 H 10.738798 9.023246 -9.378065 0
M  V30 END ATOM
M  V30 BEGIN BOND
M  V30 1 1 2 1 CFG=1
M  V30 2 1 3 2
M  V30 3 1 4 3
M  V30 4 2 5 4
M  V30 5 1 6 5
M  V30 6 1 7 6
M  V30 7 2 8 6
M  V30 8 2 9 3
M  V30 9 1 9 8
M  V30 10 1 10 2
M  V30 11 1 11 10
M  V30 12 1 12 11
M  V30 13 1 13 12
M  V30 14 1 14 13
M  V30 15 1 15 2
M  V30 16 1 15 14
M  V30 17 1 16 11
M  V30 18 1 16 14
M  V30 19 1 17 16
M  V30 20 1 18 17
M  V30 21 2 19 18
M  V30 22 1 20 19
M  V30 23 1 21 20
M  V30 24 2 22 21
M  V30 25 1 23 22
M  V30 26 2 24 23
M  V30 27 1 25 24
M  V30 28 1 26 18
M  V30 29 1 26 21
M  V30 30 2 26 25
M  V30 31 1 27 1
M  V30 32 1 28 4
M  V30 33 1 29 5
M  V30 34 1 30 8
M  V30 35 1 31 9
M  V30 36 1 32 10
M  V30 37 1 33 10
M  V30 38 1 11 34 CFG=3
M  V30 39 1 35 12
M  V30 40 1 36 12
M  V30 41 1 37 13
M  V30 42 1 38 13
M  V30 43 1 14 39 CFG=3
M  V30 44 1 40 15
M  V30 45 1 41 15
M  V30 46 1 42 17
M  V30 47 1 43 17
M  V30 48 1 44 19
M  V30 49 1 45 20
M  V30 50 1 46 22
M  V30 51 1 47 23
M  V30 52 1 48 24
M  V30 53 1 49 25
M  V30 54 1 16 50 CFG=1
M  V30 END BOND
M  V30 END CTAB
M  END
>  <b_m_subgroup_collapsed>  (1328) 
0

>  <r_i_docking_score>  (1328) 
-7.2479088139940204

>  <s_m_subgroup_title>  (1328) 
glide-dock_SP_D22_pv

>  <s_m_subgroupid>  (1328) 
glide-dock_SP_D22_pv

>  <Molecule ChEMBL ID>  (1328) 
CHEMBL3084505

>  <Standard Type>  (1328) 
Ki

>  <Standard Value>  (1328) 
41.4

>  <label>  (1328) 
1

$$$$
CHEMBL554914
     RDKit          3D

  0  0  0  0  0  0  0  0  0  0999 V3000
M  V30 BEGIN CTAB
M  V30 COUNTS 48 51 0 0 1
M  V30 BEGIN ATOM
M  V30 1 O 10.373125 6.169763 -12.276581 0
M  V30 2 C 9.285991 5.592831 -12.320813 0
M  V30 3 N 8.450044 5.404730 -11.287336 0
M  V30 4 C 8.652761 5.730089 -9.874797 0
M  V30 5 C 9.354852 7.076223 -9.614028 0
M  V30 6 N 9.285909 7.449115 -8.183825 0 CHG=1
M  V30 7 C 9.972974 6.499793 -7.259341 0
M  V30 8 C 10.618086 7.391053 -6.239175 0
M  V30 9 C 11.285982 7.010645 -5.061286 0
M  V30 10 C 11.816516 8.030557 -4.241579 0
M  V30 11 C 11.676987 9.390636 -4.607115 0
M  V30 12 C 11.009140 9.751490 -5.799625 0
M  V30 13 C 10.484968 8.721009 -6.601194 0
M  V30 14 C 9.743619 8.841217 -7.905529 0
M  V30 15 C 7.236493 4.705032 -11.672368 0
M  V30 16 C 7.427466 4.465048 -13.165427 0
M  V30 17 N 8.737479 5.041433 -13.413575 0
M  V30 18 C 9.311188 5.034580 -14.757485 0
M  V30 19 C 9.853487 3.695968 -15.246405 0
M  V30 20 C 9.986610 2.572134 -14.398057 0
M  V30 21 C 10.485600 1.356186 -14.903211 0
M  V30 22 C 10.877380 1.255584 -16.250994 0
M  V30 23 C 10.756503 2.372085 -17.098852 0
M  V30 24 C 10.244992 3.585137 -16.597832 0
M  V30 25 H 7.685930 5.751956 -9.379594 0
M  V30 26 H 9.210753 4.910594 -9.421274 0
M  V30 27 H 10.402429 7.038015 -9.914453 0
M  V30 28 H 8.884641 7.861814 -10.206294 0
M  V30 29 H 9.253046 5.822042 -6.803030 0
M  V30 30 H 10.744820 5.916825 -7.764276 0
M  V30 31 H 11.384372 5.970775 -4.785148 0
M  V30 32 H 12.330163 7.770581 -3.327558 0
M  V30 33 H 12.084120 10.158782 -3.966050 0
M  V30 34 H 10.905476 10.788692 -6.083519 0
M  V30 35 H 10.427921 9.204950 -8.673982 0
M  V30 36 H 8.890600 9.517110 -7.846406 0
M  V30 37 H 7.127482 3.772746 -11.117371 0
M  V30 38 H 6.362470 5.328356 -11.475578 0
M  V30 39 H 6.661775 4.970404 -13.754269 0
M  V30 40 H 7.406423 3.402204 -13.409773 0
M  V30 41 H 10.114102 5.769837 -14.831833 0
M  V30 42 H 8.535975 5.372153 -15.443759 0
M  V30 43 H 9.711856 2.620249 -13.354485 0
M  V30 44 H 10.583210 0.504190 -14.246579 0
M  V30 45 H 11.271491 0.325107 -16.632385 0
M  V30 46 H 11.055792 2.298853 -18.133345 0
M  V30 47 H 10.156406 4.436960 -17.256384 0
M  V30 48 H 8.302372 7.425294 -7.933184 0
M  V30 END ATOM
M  V30 BEGIN BOND
M  V30 1 2 2 1
M  V30 2 1 3 2
M  V30 3 1 4 3
M  V30 4 1 5 4
M  V30 5 1 6 5
M  V30 6 1 7 6
M  V30 7 1 8 7
M  V30 8 2 9 8
M  V30 9 1 10 9
M  V30 10 2 11 10
M  V30 11 1 12 11
M  V30 12 1 13 8
M  V30 13 2 13 12
M  V30 14 1 14 6
M  V30 15 1 14 13
M  V30 16 1 15 3
M  V30 17 1 16 15
M  V30 18 1 17 2
M  V30 19 1 17 16
M  V30 20 1 18 17
M  V30 21 1 19 18
M  V30 22 2 20 19
M  V30 23 1 21 20
M  V30 24 2 22 21
M  V30 25 1 23 22
M  V30 26 1 24 19
M  V30 27 2 24 23
M  V30 28 1 25 4
M  V30 29 1 26 4
M  V30 30 1 27 5
M  V30 31 1 28 5
M  V30 32 1 29 7
M  V30 33 1 30 7
M  V30 34 1 31 9
M  V30 35 1 32 10
M  V30 36 1 33 11
M  V30 37 1 34 12
M  V30 38 1 35 14
M  V30 39 1 36 14
M  V30 40 1 37 15
M  V30 41 1 38 15
M  V30 42 1 39 16
M  V30 43 1 40 16
M  V30 44 1 41 18
M  V30 45 1 42 18
M  V30 46 1 43 20
M  V30 47 1 44 21
M  V30 48 1 45 22
M  V30 49 1 46 23
M  V30 50 1 47 24
M  V30 51 1 48 6
M  V30 END BOND
M  V30 END CTAB
M  END
>  <b_m_subgroup_collapsed>  (1329) 
0

>  <r_i_docking_score>  (1329) 
-7.2456262218100997

>  <s_m_subgroup_title>  (1329) 
glide-dock_SP_D22_pv

>  <s_m_subgroupid>  (1329) 
glide-dock_SP_D22_pv

>  <Molecule ChEMBL ID>  (1329) 
CHEMBL554914

>  <Standard Type>  (1329) 
Ki

>  <Standard Value>  (1329) 
10000.0

>  <label>  (1329) 
0

$$$$
CHEMBL553238
     RDKit          3D

  0  0  0  0  0  0  0  0  0  0999 V3000
M  V30 BEGIN CTAB
M  V30 COUNTS 48 51 0 0 1
M  V30 BEGIN ATOM
M  V30 1 O 9.060488 4.640003 -10.346691 0
M  V30 2 C 8.777696 5.619865 -11.033782 0
M  V30 3 N 9.285906 6.851367 -10.869653 0
M  V30 4 C 10.221317 7.266026 -9.829725 0
M  V30 5 C 9.592592 7.183321 -8.428024 0
M  V30 6 N 10.593436 7.544268 -7.396595 0 CHG=1
M  V30 7 C 10.711993 6.574650 -6.273705 0
M  V30 8 C 11.206946 7.425027 -5.144879 0
M  V30 9 C 11.714897 7.005459 -3.903492 0
M  V30 10 C 12.087921 8.002065 -2.974896 0
M  V30 11 C 11.944040 9.373035 -3.297463 0
M  V30 12 C 11.418427 9.771619 -4.547828 0
M  V30 13 C 11.063189 8.766115 -5.460167 0
M  V30 14 C 10.489642 8.923857 -6.843003 0
M  V30 15 C 8.821652 7.792680 -11.870344 0
M  V30 16 C 7.827436 6.955412 -12.674039 0
M  V30 17 N 7.947324 5.638841 -12.085608 0
M  V30 18 C 7.185161 4.518560 -12.635665 0
M  V30 19 C 7.939179 3.592626 -13.589909 0
M  V30 20 C 7.213204 2.574439 -14.246917 0
M  V30 21 C 7.875808 1.618777 -15.041506 0
M  V30 22 C 9.272563 1.681198 -15.198796 0
M  V30 23 Cl 10.092958 0.477161 -16.124378 0
M  V30 24 C 10.001283 2.717817 -14.585440 0
M  V30 25 C 9.339299 3.670409 -13.785702 0
M  V30 26 H 10.558149 8.283933 -10.030771 0
M  V30 27 H 11.103868 6.628849 -9.885530 0
M  V30 28 H 9.241200 6.166744 -8.247454 0
M  V30 29 H 8.708215 7.819212 -8.363687 0
M  V30 30 H 11.405200 5.772615 -6.516115 0
M  V30 31 H 9.737932 6.172219 -5.996215 0
M  V30 32 H 11.810321 5.956470 -3.663251 0
M  V30 33 H 12.478389 7.715935 -2.008873 0
M  V30 34 H 12.224760 10.124883 -2.574175 0
M  V30 35 H 11.285404 10.815127 -4.793086 0
M  V30 36 H 9.452070 9.247015 -6.764822 0
M  V30 37 H 11.049407 9.642260 -7.443960 0
M  V30 38 H 8.343527 8.660297 -11.413786 0
M  V30 39 H 9.653558 8.137338 -12.483938 0
M  V30 40 H 8.085718 6.890606 -13.726215 0
M  V30 41 H 6.807745 7.331905 -12.582022 0
M  V30 42 H 6.798115 3.920558 -11.808918 0
M  V30 43 H 6.310052 4.910321 -13.155921 0
M  V30 44 H 6.144316 2.500447 -14.109085 0
M  V30 45 H 7.313296 0.826081 -15.512499 0
M  V30 46 H 11.072977 2.769125 -14.709885 0
M  V30 47 H 9.930452 4.434530 -13.306821 0
M  V30 48 H 11.495143 7.508299 -7.847762 0
M  V30 END ATOM
M  V30 BEGIN BOND
M  V30 1 2 2 1
M  V30 2 1 3 2
M  V30 3 1 4 3
M  V30 4 1 5 4
M  V30 5 1 6 5
M  V30 6 1 7 6
M  V30 7 1 8 7
M  V30 8 2 9 8
M  V30 9 1 10 9
M  V30 10 2 11 10
M  V30 11 1 12 11
M  V30 12 1 13 8
M  V30 13 2 13 12
M  V30 14 1 14 6
M  V30 15 1 14 13
M  V30 16 1 15 3
M  V30 17 1 16 15
M  V30 18 1 17 2
M  V30 19 1 17 16
M  V30 20 1 18 17
M  V30 21 1 19 18
M  V30 22 1 20 19
M  V30 23 2 21 20
M  V30 24 1 22 21
M  V30 25 1 23 22
M  V30 26 2 24 22
M  V30 27 2 25 19
M  V30 28 1 25 24
M  V30 29 1 26 4
M  V30 30 1 27 4
M  V30 31 1 28 5
M  V30 32 1 29 5
M  V30 33 1 30 7
M  V30 34 1 31 7
M  V30 35 1 32 9
M  V30 36 1 33 10
M  V30 37 1 34 11
M  V30 38 1 35 12
M  V30 39 1 36 14
M  V30 40 1 37 14
M  V30 41 1 38 15
M  V30 42 1 39 15
M  V30 43 1 40 16
M  V30 44 1 41 16
M  V30 45 1 42 18
M  V30 46 1 43 18
M  V30 47 1 44 20
M  V30 48 1 45 21
M  V30 49 1 46 24
M  V30 50 1 47 25
M  V30 51 1 48 6
M  V30 END BOND
M  V30 END CTAB
M  END
>  <b_m_subgroup_collapsed>  (1330) 
0

>  <r_i_docking_score>  (1330) 
-7.2451953242641602

>  <s_m_subgroup_title>  (1330) 
glide-dock_SP_D22_pv

>  <s_m_subgroupid>  (1330) 
glide-dock_SP_D22_pv

>  <Molecule ChEMBL ID>  (1330) 
CHEMBL553238

>  <Standard Type>  (1330) 
Ki

>  <Standard Value>  (1330) 
10000.0

>  <label>  (1330) 
0

$$$$
CHEMBL3745815
     RDKit          3D

  0  0  0  0  0  0  0  0  0  0999 V3000
M  V30 BEGIN CTAB
M  V30 COUNTS 63 66 0 0 1
M  V30 BEGIN ATOM
M  V30 1 C 8.824577 8.715367 -6.830973 0
M  V30 2 N 10.061522 8.541085 -7.577329 0
M  V30 3 C 10.048818 7.697737 -8.788242 0 CFG=1
M  V30 4 C 9.111977 6.476563 -8.681975 0
M  V30 5 C 9.093314 5.688985 -9.997776 0
M  V30 6 N 8.686980 6.555521 -11.139467 0 CFG=2 CHG=1
M  V30 7 C 8.605276 5.816977 -12.425505 0
M  V30 8 C 7.449234 4.810628 -12.516386 0
M  V30 9 O 7.680579 4.098770 -13.722327 0
M  V30 10 C 7.068748 2.879119 -13.890531 0
M  V30 11 C 5.815349 2.601587 -13.289400 0
M  V30 12 C 5.208731 1.344432 -13.446774 0
M  V30 13 C 5.837118 0.357684 -14.218435 0
M  V30 14 C 7.067471 0.634863 -14.834238 0
M  V30 15 C 7.716464 1.887580 -14.687080 0
M  V30 16 C 9.035724 2.088993 -15.353619 0
M  V30 17 C 9.900371 0.983894 -15.560226 0
M  V30 18 C 11.120568 1.119213 -16.246317 0
M  V30 19 C 11.537616 2.377698 -16.709236 0
M  V30 20 C 10.715233 3.495528 -16.496634 0
M  V30 21 C 9.480957 3.347972 -15.835860 0
M  V30 22 C 9.583802 7.733322 -11.277374 0
M  V30 23 C 9.639179 8.559300 -9.987719 0
M  V30 24 S 11.516047 9.245466 -6.966771 0
M  V30 25 O 12.622693 8.835317 -7.846611 0
M  V30 26 O 11.286021 10.656970 -6.646873 0
M  V30 27 C 11.686021 8.446671 -5.406121 0
M  V30 28 C 12.264857 9.165532 -4.344402 0
M  V30 29 C 12.485972 8.543736 -3.105206 0
M  V30 30 C 12.160726 7.188118 -2.966698 0
M  V30 31 F 12.486079 6.519813 -1.846821 0
M  V30 32 C 11.542724 6.504344 -4.021791 0
M  V30 33 C 11.286303 7.115840 -5.249506 0
M  V30 34 H 8.086064 9.169536 -7.480539 0
M  V30 35 H 8.447382 7.769244 -6.444543 0
M  V30 36 H 9.010053 9.367137 -5.979013 0
M  V30 37 H 11.055223 7.317993 -8.959861 0
M  V30 38 H 9.424792 5.823784 -7.866390 0
M  V30 39 H 8.086156 6.774117 -8.467621 0
M  V30 40 H 8.403745 4.855171 -9.880558 0
M  V30 41 H 10.078660 5.260130 -10.192035 0
M  V30 42 H 9.553998 5.304924 -12.597874 0
M  V30 43 H 8.484588 6.526458 -13.245498 0
M  V30 44 H 6.488145 5.327512 -12.540518 0
M  V30 45 H 7.449700 4.119639 -11.675390 0
M  V30 46 H 5.292533 3.348728 -12.711260 0
M  V30 47 H 4.227798 1.153374 -13.045964 0
M  V30 48 H 5.365581 -0.603274 -14.364696 0
M  V30 49 H 7.500788 -0.144182 -15.443900 0
M  V30 50 H 9.634976 0.000163 -15.200889 0
M  V30 51 H 11.743447 0.253342 -16.406172 0
M  V30 52 H 12.481863 2.483357 -17.223881 0
M  V30 53 H 11.025374 4.468009 -16.851120 0
M  V30 54 H 8.885752 4.236700 -15.723494 0
M  V30 55 H 10.587831 7.400482 -11.547022 0
M  V30 56 H 9.233239 8.372246 -12.089466 0
M  V30 57 H 10.353921 9.372140 -10.108099 0
M  V30 58 H 8.665293 9.018782 -9.811137 0
M  V30 59 H 12.591868 10.172282 -4.499074 0
M  V30 60 H 12.960285 9.080814 -2.297316 0
M  V30 61 H 11.287230 5.474867 -3.908844 0
M  V30 62 H 10.850299 6.551106 -6.059205 0
M  V30 63 H 7.765351 6.934795 -10.910772 0
M  V30 END ATOM
M  V30 BEGIN BOND
M  V30 1 1 2 1
M  V30 2 1 3 2
M  V30 3 1 4 3
M  V30 4 1 5 4
M  V30 5 1 6 5
M  V30 6 1 7 6
M  V30 7 1 8 7
M  V30 8 1 9 8
M  V30 9 1 10 9
M  V30 10 2 11 10
M  V30 11 1 12 11
M  V30 12 2 13 12
M  V30 13 1 14 13
M  V30 14 1 15 10
M  V30 15 2 15 14
M  V30 16 1 16 15
M  V30 17 2 17 16
M  V30 18 1 18 17
M  V30 19 2 19 18
M  V30 20 1 20 19
M  V30 21 1 21 16
M  V30 22 2 21 20
M  V30 23 1 22 6
M  V30 24 1 23 3
M  V30 25 1 23 22
M  V30 26 1 24 2
M  V30 27 2 25 24
M  V30 28 2 26 24
M  V30 29 1 27 24
M  V30 30 1 28 27
M  V30 31 2 29 28
M  V30 32 1 30 29
M  V30 33 1 31 30
M  V30 34 2 32 30
M  V30 35 2 33 27
M  V30 36 1 33 32
M  V30 37 1 34 1
M  V30 38 1 35 1
M  V30 39 1 36 1
M  V30 40 1 3 37 CFG=3
M  V30 41 1 38 4
M  V30 42 1 39 4
M  V30 43 1 40 5
M  V30 44 1 41 5
M  V30 45 1 42 7
M  V30 46 1 43 7
M  V30 47 1 44 8
M  V30 48 1 45 8
M  V30 49 1 46 11
M  V30 50 1 47 12
M  V30 51 1 48 13
M  V30 52 1 49 14
M  V30 53 1 50 17
M  V30 54 1 51 18
M  V30 55 1 52 19
M  V30 56 1 53 20
M  V30 57 1 54 21
M  V30 58 1 55 22
M  V30 59 1 56 22
M  V30 60 1 57 23
M  V30 61 1 58 23
M  V30 62 1 59 28
M  V30 63 1 60 29
M  V30 64 1 61 32
M  V30 65 1 62 33
M  V30 66 1 6 63 CFG=1
M  V30 END BOND
M  V30 END CTAB
M  END
>  <b_m_subgroup_collapsed>  (1331) 
0

>  <r_i_docking_score>  (1331) 
-7.2450958396911798

>  <s_m_subgroup_title>  (1331) 
glide-dock_SP_D22_pv

>  <s_m_subgroupid>  (1331) 
glide-dock_SP_D22_pv

>  <Molecule ChEMBL ID>  (1331) 
CHEMBL3745815

>  <Standard Type>  (1331) 
Ki

>  <Standard Value>  (1331) 
54.0

>  <label>  (1331) 
1

$$$$
CHEMBL2325932
     RDKit          3D

  0  0  0  0  0  0  0  0  0  0999 V3000
M  V30 BEGIN CTAB
M  V30 COUNTS 54 58 0 0 1
M  V30 BEGIN ATOM
M  V30 1 C 8.947991 8.907719 -8.122869 0
M  V30 2 N 8.888677 7.974685 -9.266979 0 CFG=2 CHG=1
M  V30 3 C 9.588205 6.698192 -8.993889 0
M  V30 4 C 9.322322 5.690734 -10.120739 0
M  V30 5 C 9.716618 6.243953 -11.511397 0 CFG=1
M  V30 6 C 9.356128 5.277391 -12.613123 0
M  V30 7 C 8.288070 4.420909 -12.599216 0
M  V30 8 N 8.267510 3.630373 -13.739208 0
M  V30 9 C 7.349115 2.572306 -13.939004 0
M  V30 10 C 6.039557 2.672984 -13.425063 0
M  V30 11 C 5.180642 1.557713 -13.446634 0
M  V30 12 C 5.602009 0.351199 -14.035021 0
M  V30 13 F 4.754334 -0.703117 -14.078279 0
M  V30 14 C 6.893294 0.251407 -14.581282 0
M  V30 15 C 7.769849 1.351791 -14.524657 0
M  V30 16 C 9.309651 4.021319 -14.567730 0
M  V30 17 C 9.714453 3.590998 -15.844949 0
M  V30 18 C 10.850523 4.155854 -16.444368 0
M  V30 19 C 11.590365 5.155991 -15.779918 0
M  V30 20 C 12.750165 5.766251 -16.447828 0
M  V30 21 C 12.887370 7.167367 -16.537693 0
M  V30 22 C 13.980187 7.711603 -17.236172 0
M  V30 23 C 14.913820 6.830857 -17.809649 0
M  V30 24 N 14.811841 5.488798 -17.724117 0
M  V30 25 C 13.750438 4.978879 -17.062649 0
M  V30 26 C 11.175920 5.575135 -14.495168 0
M  V30 27 C 10.028577 5.036843 -13.864320 0
M  V30 28 C 9.053294 7.616264 -11.724714 0
M  V30 29 C 9.313127 8.578279 -10.549973 0
M  V30 30 H 9.966436 9.250545 -7.939980 0
M  V30 31 H 8.313972 9.770729 -8.315422 0
M  V30 32 H 8.569378 8.429772 -7.217682 0
M  V30 33 H 9.231969 6.282660 -8.049592 0
M  V30 34 H 10.659676 6.874373 -8.883014 0
M  V30 35 H 8.258497 5.451583 -10.095705 0
M  V30 36 H 9.852360 4.759231 -9.918209 0
M  V30 37 H 10.795178 6.398850 -11.521049 0
M  V30 38 H 7.545471 4.278121 -11.826992 0
M  V30 39 H 5.696518 3.588834 -12.967434 0
M  V30 40 H 4.183661 1.639303 -13.045001 0
M  V30 41 H 7.220987 -0.677506 -15.025123 0
M  V30 42 H 8.778651 1.233253 -14.885782 0
M  V30 43 H 9.152190 2.836956 -16.376913 0
M  V30 44 H 11.144042 3.824842 -17.431459 0
M  V30 45 H 12.148455 7.817682 -16.093517 0
M  V30 46 H 14.092922 8.780762 -17.334864 0
M  V30 47 H 15.765694 7.211232 -18.352514 0
M  V30 48 H 13.693888 3.901500 -17.029602 0
M  V30 49 H 11.737035 6.343774 -13.982092 0
M  V30 50 H 9.415282 8.067569 -12.646589 0
M  V30 51 H 7.979359 7.484481 -11.853795 0
M  V30 52 H 8.745337 9.493944 -10.709440 0
M  V30 53 H 10.370055 8.850851 -10.502308 0
M  V30 54 H 7.895885 7.772293 -9.415319 0
M  V30 END ATOM
M  V30 BEGIN BOND
M  V30 1 1 2 1
M  V30 2 1 3 2
M  V30 3 1 4 3
M  V30 4 1 5 4
M  V30 5 1 6 5
M  V30 6 2 7 6
M  V30 7 1 8 7
M  V30 8 1 9 8
M  V30 9 1 10 9
M  V30 10 2 11 10
M  V30 11 1 12 11
M  V30 12 1 13 12
M  V30 13 2 14 12
M  V30 14 2 15 9
M  V30 15 1 15 14
M  V30 16 1 16 8
M  V30 17 1 17 16
M  V30 18 2 18 17
M  V30 19 1 19 18
M  V30 20 1 20 19
M  V30 21 2 21 20
M  V30 22 1 22 21
M  V30 23 2 23 22
M  V30 24 1 24 23
M  V30 25 1 25 20
M  V30 26 2 25 24
M  V30 27 2 26 19
M  V30 28 1 27 6
M  V30 29 2 27 16
M  V30 30 1 27 26
M  V30 31 1 28 5
M  V30 32 1 29 2
M  V30 33 1 29 28
M  V30 34 1 30 1
M  V30 35 1 31 1
M  V30 36 1 32 1
M  V30 37 1 33 3
M  V30 38 1 34 3
M  V30 39 1 35 4
M  V30 40 1 36 4
M  V30 41 1 5 37 CFG=1
M  V30 42 1 38 7
M  V30 43 1 39 10
M  V30 44 1 40 11
M  V30 45 1 41 14
M  V30 46 1 42 15
M  V30 47 1 43 17
M  V30 48 1 44 18
M  V30 49 1 45 21
M  V30 50 1 46 22
M  V30 51 1 47 23
M  V30 52 1 48 25
M  V30 53 1 49 26
M  V30 54 1 50 28
M  V30 55 1 51 28
M  V30 56 1 52 29
M  V30 57 1 53 29
M  V30 58 1 2 54 CFG=3
M  V30 END BOND
M  V30 END CTAB
M  END
>  <b_m_subgroup_collapsed>  (1332) 
0

>  <r_i_docking_score>  (1332) 
-7.2447598217717903

>  <s_m_subgroup_title>  (1332) 
glide-dock_SP_D22_pv

>  <s_m_subgroupid>  (1332) 
glide-dock_SP_D22_pv

>  <Molecule ChEMBL ID>  (1332) 
CHEMBL2325932

>  <Standard Type>  (1332) 
Ki

>  <Standard Value>  (1332) 
76.0

>  <label>  (1332) 
1

$$$$
CHEMBL2159472
     RDKit          3D

  0  0  0  0  0  0  0  0  0  0999 V3000
M  V30 BEGIN CTAB
M  V30 COUNTS 54 57 0 0 1
M  V30 BEGIN ATOM
M  V30 1 O 10.486051 10.603039 -5.046845 0
M  V30 2 S 11.257304 9.506350 -5.637598 0
M  V30 3 O 12.472217 9.772109 -6.416610 0
M  V30 4 N 10.171888 8.551376 -6.596307 0
M  V30 5 C 10.670012 7.625330 -7.622224 0 CFG=2
M  V30 6 C 11.273519 8.413832 -8.795055 0
M  V30 7 C 10.699542 7.778067 -10.050656 0
M  V30 8 N 9.392555 7.216460 -9.654111 0 CFG=1 CHG=1
M  V30 9 C 8.887360 6.171078 -10.576347 0
M  V30 10 C 8.618595 6.736431 -11.986394 0
M  V30 11 O 8.001737 5.760410 -12.817129 0
M  V30 12 C 8.767399 4.734438 -13.335445 0
M  V30 13 C 10.171849 4.818261 -13.513122 0
M  V30 14 C 10.887897 3.745728 -14.070158 0
M  V30 15 C 10.217250 2.570410 -14.442555 0
M  V30 16 C 8.823791 2.463073 -14.268850 0
M  V30 17 C 8.092883 3.550519 -13.722930 0
M  V30 18 C 6.578146 3.466729 -13.528627 0
M  V30 19 C 5.978933 2.061915 -13.708175 0
M  V30 20 C 6.637665 1.310512 -14.870327 0
M  V30 21 C 8.143544 1.156048 -14.644723 0
M  V30 22 C 9.527888 6.788277 -8.242707 0
M  V30 23 C 11.747140 8.520244 -4.255317 0
M  V30 24 C 12.148462 9.011603 -3.042848 0
M  V30 25 C 12.429138 7.983411 -2.101891 0
M  V30 26 C 12.218867 6.727905 -2.610932 0
M  V30 27 S 11.685898 6.785529 -4.265942 0
M  V30 28 H 9.334334 8.252404 -6.096532 0
M  V30 29 H 11.416414 6.961720 -7.183469 0
M  V30 30 H 10.963506 9.459412 -8.761190 0
M  V30 31 H 12.364358 8.401395 -8.791320 0
M  V30 32 H 10.610394 8.499306 -10.864211 0
M  V30 33 H 11.359120 6.973763 -10.382073 0
M  V30 34 H 9.589085 5.337228 -10.622127 0
M  V30 35 H 7.954319 5.773871 -10.172492 0
M  V30 36 H 7.952181 7.590791 -11.910479 0
M  V30 37 H 9.512922 7.152688 -12.444477 0
M  V30 38 H 10.736795 5.696302 -13.248925 0
M  V30 39 H 11.957072 3.822288 -14.205006 0
M  V30 40 H 10.779372 1.743856 -14.852727 0
M  V30 41 H 6.313434 3.844736 -12.539944 0
M  V30 42 H 6.120435 4.145999 -14.248270 0
M  V30 43 H 6.099987 1.483327 -12.792860 0
M  V30 44 H 4.901089 2.133192 -13.845233 0
M  V30 45 H 6.174762 0.333188 -15.010642 0
M  V30 46 H 6.486715 1.867899 -15.795156 0
M  V30 47 H 8.609151 0.743942 -15.540921 0
M  V30 48 H 8.325560 0.439626 -13.842746 0
M  V30 49 H 9.796868 5.731143 -8.201452 0
M  V30 50 H 8.575421 6.899202 -7.720762 0
M  V30 51 H 12.243382 10.060685 -2.801898 0
M  V30 52 H 12.758204 8.200112 -1.096174 0
M  V30 53 H 12.334617 5.773736 -2.115854 0
M  V30 54 H 8.704643 7.961421 -9.655494 0
M  V30 END ATOM
M  V30 BEGIN BOND
M  V30 1 2 2 1
M  V30 2 2 3 2
M  V30 3 1 4 2
M  V30 4 1 5 4
M  V30 5 1 6 5
M  V30 6 1 7 6
M  V30 7 1 8 7
M  V30 8 1 9 8
M  V30 9 1 10 9
M  V30 10 1 11 10
M  V30 11 1 12 11
M  V30 12 2 13 12
M  V30 13 1 14 13
M  V30 14 2 15 14
M  V30 15 1 16 15
M  V30 16 1 17 12
M  V30 17 2 17 16
M  V30 18 1 18 17
M  V30 19 1 19 18
M  V30 20 1 20 19
M  V30 21 1 21 16
M  V30 22 1 21 20
M  V30 23 1 22 5
M  V30 24 1 22 8
M  V30 25 1 23 2
M  V30 26 2 24 23
M  V30 27 1 25 24
M  V30 28 2 26 25
M  V30 29 1 27 23
M  V30 30 1 27 26
M  V30 31 1 28 4
M  V30 32 1 5 29 CFG=1
M  V30 33 1 30 6
M  V30 34 1 31 6
M  V30 35 1 32 7
M  V30 36 1 33 7
M  V30 37 1 34 9
M  V30 38 1 35 9
M  V30 39 1 36 10
M  V30 40 1 37 10
M  V30 41 1 38 13
M  V30 42 1 39 14
M  V30 43 1 40 15
M  V30 44 1 41 18
M  V30 45 1 42 18
M  V30 46 1 43 19
M  V30 47 1 44 19
M  V30 48 1 45 20
M  V30 49 1 46 20
M  V30 50 1 47 21
M  V30 51 1 48 21
M  V30 52 1 49 22
M  V30 53 1 50 22
M  V30 54 1 51 24
M  V30 55 1 52 25
M  V30 56 1 53 26
M  V30 57 1 8 54 CFG=1
M  V30 END BOND
M  V30 END CTAB
M  END
>  <b_m_subgroup_collapsed>  (1333) 
0

>  <r_i_docking_score>  (1333) 
-7.2446697264374196

>  <s_m_subgroup_title>  (1333) 
glide-dock_SP_D22_pv

>  <s_m_subgroupid>  (1333) 
glide-dock_SP_D22_pv

>  <Molecule ChEMBL ID>  (1333) 
CHEMBL2159472

>  <Standard Type>  (1333) 
Ki

>  <Standard Value>  (1333) 
72.0

>  <label>  (1333) 
1

$$$$
CHEMBL456233
     RDKit          3D

  0  0  0  0  0  0  0  0  0  0999 V3000
M  V30 BEGIN CTAB
M  V30 COUNTS 67 70 0 0 1
M  V30 BEGIN ATOM
M  V30 1 O 9.592031 7.152244 -11.848737 0
M  V30 2 C 10.677086 7.391156 -11.323233 0
M  V30 3 N 11.844895 7.372005 -11.987629 0
M  V30 4 C 12.050210 7.041557 -13.394217 0
M  V30 5 C 12.126238 5.524958 -13.687135 0
M  V30 6 C 10.784896 4.769009 -13.584043 0
M  V30 7 C 10.826860 3.381876 -14.262646 0
M  V30 8 N 9.585849 2.572099 -14.100852 0 CHG=1
M  V30 9 C 8.358339 3.245977 -14.610690 0
M  V30 10 C 7.097010 2.376820 -14.447290 0
M  V30 11 N 7.304968 1.048596 -15.007387 0
M  V30 12 C 6.177907 0.224181 -15.202101 0
M  V30 13 C 5.132693 0.172987 -14.247918 0
M  V30 14 C 3.995927 -0.626799 -14.473203 0
M  V30 15 C 3.904398 -1.398449 -15.643510 0
M  V30 16 C 4.942525 -1.367198 -16.591377 0
M  V30 17 C 6.085814 -0.553606 -16.384584 0
M  V30 18 O 7.124209 -0.455539 -17.290165 0
M  V30 19 C 7.117656 -1.301693 -18.429132 0
M  V30 20 C 8.431321 -1.083314 -19.184229 0
M  V30 21 F 8.464395 -1.827335 -20.289566 0
M  V30 22 C 8.485211 0.351069 -14.517692 0
M  V30 23 C 9.746956 1.215830 -14.694381 0
M  V30 24 C 10.797873 7.639236 -9.844353 0
M  V30 25 C 9.831386 7.126882 -8.945588 0
M  V30 26 C 9.975099 7.316070 -7.553604 0
M  V30 27 C 11.080145 8.034336 -7.053597 0
M  V30 28 N 11.285946 8.184570 -5.668520 0
M  V30 29 C 11.424307 7.258912 -4.647314 0
M  V30 30 C 11.688677 8.005057 -3.518669 0
M  V30 31 N 11.685674 9.366971 -3.833094 0
M  V30 32 C 11.441464 9.402758 -5.136020 0
M  V30 33 C 12.026901 8.572194 -7.945306 0
M  V30 34 C 11.880329 8.388484 -9.329751 0
M  V30 35 H 12.674486 7.589017 -11.457458 0
M  V30 36 H 11.289607 7.518263 -14.007809 0
M  V30 37 H 12.995393 7.499048 -13.689149 0
M  V30 38 H 12.500848 5.417971 -14.706029 0
M  V30 39 H 12.879815 5.053939 -13.051583 0
M  V30 40 H 10.492124 4.663300 -12.538837 0
M  V30 41 H 10.023358 5.385963 -14.059712 0
M  V30 42 H 11.036077 3.504668 -15.326865 0
M  V30 43 H 11.662653 2.815037 -13.851202 0
M  V30 44 H 8.187410 4.190406 -14.095357 0
M  V30 45 H 8.506417 3.474195 -15.665806 0
M  V30 46 H 6.836046 2.294772 -13.395197 0
M  V30 47 H 6.253686 2.859342 -14.942367 0
M  V30 48 H 5.186593 0.753090 -13.339994 0
M  V30 49 H 3.189516 -0.646244 -13.754893 0
M  V30 50 H 3.037967 -2.020213 -15.820179 0
M  V30 51 H 4.828673 -1.974302 -17.475979 0
M  V30 52 H 7.035593 -2.348512 -18.133038 0
M  V30 53 H 6.272343 -1.057806 -19.074701 0
M  V30 54 H 8.545895 -0.042508 -19.488605 0
M  V30 55 H 9.291526 -1.360710 -18.574028 0
M  V30 56 H 8.338175 0.120252 -13.463176 0
M  V30 57 H 8.611187 -0.597516 -15.042588 0
M  V30 58 H 9.967154 1.313598 -15.758576 0
M  V30 59 H 10.601791 0.709392 -14.244862 0
M  V30 60 H 8.978726 6.574524 -9.317571 0
M  V30 61 H 9.241392 6.906363 -6.873750 0
M  V30 62 H 11.345417 6.190925 -4.799140 0
M  V30 63 H 11.867908 7.670295 -2.507166 0
M  V30 64 H 11.387888 10.324298 -5.699063 0
M  V30 65 H 12.880226 9.116081 -7.565943 0
M  V30 66 H 12.621591 8.822410 -9.984030 0
M  V30 67 H 9.454470 2.422753 -13.108921 0
M  V30 END ATOM
M  V30 BEGIN BOND
M  V30 1 2 2 1
M  V30 2 1 3 2
M  V30 3 1 4 3
M  V30 4 1 5 4
M  V30 5 1 6 5
M  V30 6 1 7 6
M  V30 7 1 8 7
M  V30 8 1 9 8
M  V30 9 1 10 9
M  V30 10 1 11 10
M  V30 11 1 12 11
M  V30 12 2 13 12
M  V30 13 1 14 13
M  V30 14 2 15 14
M  V30 15 1 16 15
M  V30 16 1 17 12
M  V30 17 2 17 16
M  V30 18 1 18 17
M  V30 19 1 19 18
M  V30 20 1 20 19
M  V30 21 1 21 20
M  V30 22 1 22 11
M  V30 23 1 23 8
M  V30 24 1 23 22
M  V30 25 1 24 2
M  V30 26 1 25 24
M  V30 27 2 26 25
M  V30 28 1 27 26
M  V30 29 1 28 27
M  V30 30 1 29 28
M  V30 31 2 30 29
M  V30 32 1 31 30
M  V30 33 1 32 28
M  V30 34 2 32 31
M  V30 35 2 33 27
M  V30 36 2 34 24
M  V30 37 1 34 33
M  V30 38 1 35 3
M  V30 39 1 36 4
M  V30 40 1 37 4
M  V30 41 1 38 5
M  V30 42 1 39 5
M  V30 43 1 40 6
M  V30 44 1 41 6
M  V30 45 1 42 7
M  V30 46 1 43 7
M  V30 47 1 44 9
M  V30 48 1 45 9
M  V30 49 1 46 10
M  V30 50 1 47 10
M  V30 51 1 48 13
M  V30 52 1 49 14
M  V30 53 1 50 15
M  V30 54 1 51 16
M  V30 55 1 52 19
M  V30 56 1 53 19
M  V30 57 1 54 20
M  V30 58 1 55 20
M  V30 59 1 56 22
M  V30 60 1 57 22
M  V30 61 1 58 23
M  V30 62 1 59 23
M  V30 63 1 60 25
M  V30 64 1 61 26
M  V30 65 1 62 29
M  V30 66 1 63 30
M  V30 67 1 64 32
M  V30 68 1 65 33
M  V30 69 1 66 34
M  V30 70 1 67 8
M  V30 END BOND
M  V30 END CTAB
M  END
>  <b_m_subgroup_collapsed>  (1334) 
0

>  <r_i_docking_score>  (1334) 
-7.2445258853875698

>  <s_m_subgroup_title>  (1334) 
glide-dock_SP_D22_pv

>  <s_m_subgroupid>  (1334) 
glide-dock_SP_D22_pv

>  <Molecule ChEMBL ID>  (1334) 
CHEMBL456233

>  <Standard Type>  (1334) 
Ki

>  <Standard Value>  (1334) 
5.92

>  <label>  (1334) 
1

$$$$
CHEMBL2420774
     RDKit          3D

  0  0  0  0  0  0  0  0  0  0999 V3000
M  V30 BEGIN CTAB
M  V30 COUNTS 38 40 0 0 1
M  V30 BEGIN ATOM
M  V30 1 O 10.885880 10.572095 -4.647810 0
M  V30 2 C 11.394746 9.382778 -4.208076 0
M  V30 3 C 11.992577 9.372412 -2.932186 0
M  V30 4 C 12.420848 8.166800 -2.354566 0
M  V30 5 C 12.244695 6.962539 -3.055505 0
M  V30 6 C 11.686867 6.972351 -4.348386 0
M  V30 7 C 11.285986 8.179565 -4.961540 0
M  V30 8 N 10.797153 8.138701 -6.285183 0
M  V30 9 C 11.013617 9.255488 -7.183402 0
M  V30 10 C 11.291354 8.755196 -8.603070 0
M  V30 11 N 10.270514 7.788942 -9.089119 0 CHG=1
M  V30 12 C 10.653772 7.298665 -10.436749 0
M  V30 13 C 9.536371 6.694013 -11.212571 0
M  V30 14 C 8.621450 7.343657 -11.996936 0
M  V30 15 C 7.685732 6.464200 -12.612103 0
M  V30 16 C 7.913543 5.148818 -12.311709 0
M  V30 17 S 9.281380 4.970069 -11.250723 0
M  V30 18 C 10.005946 6.686182 -8.116854 0
M  V30 19 C 9.753797 7.200430 -6.683277 0
M  V30 20 H 11.164422 11.288164 -4.095085 0
M  V30 21 H 12.086661 10.287185 -2.365670 0
M  V30 22 H 12.856817 8.165784 -1.366558 0
M  V30 23 H 12.552523 6.027864 -2.608959 0
M  V30 24 H 11.602712 6.036636 -4.880874 0
M  V30 25 H 10.117423 9.870698 -7.158275 0
M  V30 26 H 11.852796 9.869849 -6.856072 0
M  V30 27 H 11.344263 9.608111 -9.281377 0
M  V30 28 H 12.272956 8.278126 -8.621713 0
M  V30 29 H 11.063787 8.120924 -11.025646 0
M  V30 30 H 11.459111 6.573612 -10.328489 0
M  V30 31 H 8.567616 8.414247 -12.127941 0
M  V30 32 H 6.867944 6.837605 -13.202149 0
M  V30 33 H 7.349504 4.282002 -12.622851 0
M  V30 34 H 9.146262 6.101537 -8.445674 0
M  V30 35 H 10.861192 6.008790 -8.101428 0
M  V30 36 H 9.677967 6.362650 -5.990865 0
M  V30 37 H 8.792869 7.716660 -6.641958 0
M  V30 38 H 9.401555 8.296579 -9.189286 0
M  V30 END ATOM
M  V30 BEGIN BOND
M  V30 1 1 2 1
M  V30 2 2 3 2
M  V30 3 1 4 3
M  V30 4 2 5 4
M  V30 5 1 6 5
M  V30 6 1 7 2
M  V30 7 2 7 6
M  V30 8 1 8 7
M  V30 9 1 9 8
M  V30 10 1 10 9
M  V30 11 1 11 10
M  V30 12 1 12 11
M  V30 13 1 13 12
M  V30 14 2 14 13
M  V30 15 1 15 14
M  V30 16 2 16 15
M  V30 17 1 17 13
M  V30 18 1 17 16
M  V30 19 1 18 11
M  V30 20 1 19 8
M  V30 21 1 19 18
M  V30 22 1 20 1
M  V30 23 1 21 3
M  V30 24 1 22 4
M  V30 25 1 23 5
M  V30 26 1 24 6
M  V30 27 1 25 9
M  V30 28 1 26 9
M  V30 29 1 27 10
M  V30 30 1 28 10
M  V30 31 1 29 12
M  V30 32 1 30 12
M  V30 33 1 31 14
M  V30 34 1 32 15
M  V30 35 1 33 16
M  V30 36 1 34 18
M  V30 37 1 35 18
M  V30 38 1 36 19
M  V30 39 1 37 19
M  V30 40 1 38 11
M  V30 END BOND
M  V30 END CTAB
M  END
>  <b_m_subgroup_collapsed>  (1335) 
0

>  <r_i_docking_score>  (1335) 
-7.24417778775911

>  <s_m_subgroup_title>  (1335) 
glide-dock_SP_D22_pv

>  <s_m_subgroupid>  (1335) 
glide-dock_SP_D22_pv

>  <Molecule ChEMBL ID>  (1335) 
CHEMBL2420774

>  <Standard Type>  (1335) 
Ki

>  <Standard Value>  (1335) 
10000.0

>  <label>  (1335) 
0

$$$$
CHEMBL564108
     RDKit          3D

  0  0  0  0  0  0  0  0  0  0999 V3000
M  V30 BEGIN CTAB
M  V30 COUNTS 53 55 0 0 1
M  V30 BEGIN ATOM
M  V30 1 C 12.076322 6.575697 -2.522433 0
M  V30 2 C 12.488926 7.759698 -3.410710 0
M  V30 3 C 12.694135 8.991529 -2.512790 0
M  V30 4 N 11.517509 8.027017 -4.518197 0 CHG=1
M  V30 5 C 11.197048 6.845482 -5.367527 0
M  V30 6 C 10.077005 7.170124 -6.373641 0
M  V30 7 N 10.415343 8.315769 -7.211087 0
M  V30 8 C 11.376172 8.019021 -8.271082 0
M  V30 9 C 11.025221 8.850088 -9.523939 0
M  V30 10 N 10.541353 7.978937 -10.593114 0
M  V30 11 C 9.139657 7.632339 -10.663362 0
M  V30 12 C 9.122662 6.555019 -11.739063 0
M  V30 13 N 10.483549 6.569504 -12.265634 0
M  V30 14 C 10.895757 5.722357 -13.346861 0
M  V30 15 C 11.965850 6.081186 -14.206542 0
M  V30 16 C 12.360245 5.231181 -15.254395 0
M  V30 17 C 11.698724 4.007317 -15.464417 0
M  V30 18 F 12.095289 3.198625 -16.478827 0
M  V30 19 C 10.630029 3.637639 -14.625650 0
M  V30 20 C 9.949181 2.368240 -14.831245 0
M  V30 21 N 9.407141 1.359015 -14.996822 0
M  V30 22 C 10.226718 4.496831 -13.580641 0
M  V30 23 C 11.276714 7.382222 -11.536059 0
M  V30 24 O 12.485252 7.564610 -11.687726 0
M  V30 25 C 10.748139 9.477137 -6.389745 0
M  V30 26 C 11.873028 9.185146 -5.384185 0
M  V30 27 H 12.757214 6.457765 -1.677962 0
M  V30 28 H 11.067289 6.688389 -2.123478 0
M  V30 29 H 12.132483 5.644205 -3.069721 0
M  V30 30 H 13.448751 7.498858 -3.850911 0
M  V30 31 H 13.286282 8.750915 -1.629543 0
M  V30 32 H 13.241172 9.772233 -3.037255 0
M  V30 33 H 11.745894 9.400876 -2.164222 0
M  V30 34 H 10.838679 6.019442 -4.755759 0
M  V30 35 H 12.085410 6.484877 -5.885353 0
M  V30 36 H 9.150583 7.397535 -5.846544 0
M  V30 37 H 9.856646 6.300423 -6.995749 0
M  V30 38 H 11.342231 6.955759 -8.518398 0
M  V30 39 H 12.398550 8.217742 -7.948497 0
M  V30 40 H 11.913977 9.380735 -9.869576 0
M  V30 41 H 10.277085 9.615973 -9.320416 0
M  V30 42 H 8.767339 7.261887 -9.707012 0
M  V30 43 H 8.552980 8.502142 -10.962200 0
M  V30 44 H 8.387981 6.770518 -12.516895 0
M  V30 45 H 8.890816 5.585028 -11.294760 0
M  V30 46 H 12.494308 7.014263 -14.083488 0
M  V30 47 H 13.178256 5.516726 -15.900497 0
M  V30 48 H 9.408176 4.190305 -12.945933 0
M  V30 49 H 11.014533 10.319704 -7.027309 0
M  V30 50 H 9.857281 9.771612 -5.838683 0
M  V30 51 H 11.995751 10.089959 -4.792296 0
M  V30 52 H 12.823158 9.020885 -5.891772 0
M  V30 53 H 10.650204 8.279978 -4.070626 0
M  V30 END ATOM
M  V30 BEGIN BOND
M  V30 1 1 2 1
M  V30 2 1 3 2
M  V30 3 1 4 2
M  V30 4 1 5 4
M  V30 5 1 6 5
M  V30 6 1 7 6
M  V30 7 1 8 7
M  V30 8 1 9 8
M  V30 9 1 10 9
M  V30 10 1 11 10
M  V30 11 1 12 11
M  V30 12 1 13 12
M  V30 13 1 14 13
M  V30 14 1 15 14
M  V30 15 2 16 15
M  V30 16 1 17 16
M  V30 17 1 18 17
M  V30 18 2 19 17
M  V30 19 1 20 19
M  V30 20 3 21 20
M  V30 21 2 22 14
M  V30 22 1 22 19
M  V30 23 1 23 10
M  V30 24 1 23 13
M  V30 25 2 24 23
M  V30 26 1 25 7
M  V30 27 1 26 4
M  V30 28 1 26 25
M  V30 29 1 27 1
M  V30 30 1 28 1
M  V30 31 1 29 1
M  V30 32 1 30 2
M  V30 33 1 31 3
M  V30 34 1 32 3
M  V30 35 1 33 3
M  V30 36 1 34 5
M  V30 37 1 35 5
M  V30 38 1 36 6
M  V30 39 1 37 6
M  V30 40 1 38 8
M  V30 41 1 39 8
M  V30 42 1 40 9
M  V30 43 1 41 9
M  V30 44 1 42 11
M  V30 45 1 43 11
M  V30 46 1 44 12
M  V30 47 1 45 12
M  V30 48 1 46 15
M  V30 49 1 47 16
M  V30 50 1 48 22
M  V30 51 1 49 25
M  V30 52 1 50 25
M  V30 53 1 51 26
M  V30 54 1 52 26
M  V30 55 1 53 4
M  V30 END BOND
M  V30 END CTAB
M  END
>  <b_m_subgroup_collapsed>  (1336) 
0

>  <r_i_docking_score>  (1336) 
-7.2440825448918904

>  <s_m_subgroup_title>  (1336) 
glide-dock_SP_D22_pv

>  <s_m_subgroupid>  (1336) 
glide-dock_SP_D22_pv

>  <Molecule ChEMBL ID>  (1336) 
CHEMBL564108

>  <Standard Type>  (1336) 
Ki

>  <Standard Value>  (1336) 
10000.0

>  <label>  (1336) 
0

$$$$
CHEMBL282927
     RDKit          3D

  0  0  0  0  0  0  0  0  0  0999 V3000
M  V30 BEGIN CTAB
M  V30 COUNTS 57 60 0 0 1
M  V30 BEGIN ATOM
M  V30 1 N 11.745841 8.916678 -3.098780 0
M  V30 2 C 11.286451 9.464100 -4.224562 0
M  V30 3 O 10.765300 10.572090 -4.247372 0
M  V30 4 C 11.422318 8.667748 -5.515044 0 CFG=2
M  V30 5 C 12.213170 9.434227 -6.558786 0
M  V30 6 C 11.761143 8.743337 -7.811299 0
M  V30 7 C 10.271413 8.449325 -7.545619 0 CFG=1
M  V30 8 C 9.770417 7.060439 -8.004034 0
M  V30 9 N 9.546877 6.909413 -9.470404 0 CHG=1
M  V30 10 C 10.768643 7.168069 -10.270516 0
M  V30 11 C 10.620880 6.947675 -11.775805 0
M  V30 12 C 9.877612 5.685729 -12.195380 0
M  V30 13 C 10.165264 4.934417 -13.307265 0
M  V30 14 C 9.159643 3.906333 -13.704657 0
M  V30 15 C 9.486461 2.539832 -13.847188 0
M  V30 16 C 8.522292 1.592338 -14.246917 0
M  V30 17 C 7.187187 1.986384 -14.441072 0
M  V30 18 C 6.827775 3.330239 -14.243177 0
M  V30 19 C 7.811290 4.280894 -13.907977 0
M  V30 20 C 11.255700 5.253483 -14.311721 0
M  V30 21 C 11.690950 6.571935 -14.622516 0
M  V30 22 C 12.693041 6.838540 -15.574873 0
M  V30 23 C 13.295327 5.783942 -16.272259 0
M  V30 24 F 14.260455 6.029701 -17.189070 0
M  V30 25 C 12.886643 4.470592 -16.005051 0
M  V30 26 C 11.902348 4.213976 -15.032491 0
M  V30 27 C 8.679389 5.420941 -11.267442 0
M  V30 28 C 8.998364 5.571147 -9.777598 0
M  V30 29 O 10.144135 8.514243 -6.125489 0
M  V30 30 H 11.667085 9.432803 -2.234117 0
M  V30 31 H 12.159881 7.996767 -3.110721 0
M  V30 32 H 11.853309 7.681149 -5.333741 0
M  V30 33 H 11.932839 10.488738 -6.590793 0
M  V30 34 H 13.285900 9.372490 -6.404458 0
M  V30 35 H 12.329039 7.820097 -7.933031 0
M  V30 36 H 11.938497 9.372254 -8.681253 0
M  V30 37 H 9.643987 9.239198 -7.961971 0
M  V30 38 H 8.814036 6.874961 -7.510697 0
M  V30 39 H 10.448961 6.284468 -7.645999 0
M  V30 40 H 11.592844 6.572391 -9.882589 0
M  V30 41 H 11.047250 8.211976 -10.182259 0
M  V30 42 H 11.640410 6.953616 -12.151984 0
M  V30 43 H 10.092023 7.797700 -12.210038 0
M  V30 44 H 10.474418 2.179855 -13.607860 0
M  V30 45 H 8.800365 0.554077 -14.356123 0
M  V30 46 H 6.440823 1.257468 -14.721205 0
M  V30 47 H 5.802600 3.641657 -14.380061 0
M  V30 48 H 7.519389 5.314206 -13.798229 0
M  V30 49 H 11.286088 7.445784 -14.150515 0
M  V30 50 H 12.995371 7.856512 -15.773458 0
M  V30 51 H 13.347991 3.649922 -16.534477 0
M  V30 52 H 11.674387 3.177971 -14.878720 0
M  V30 53 H 7.879724 6.114894 -11.531404 0
M  V30 54 H 8.276217 4.416394 -11.384901 0
M  V30 55 H 9.706363 4.799316 -9.470189 0
M  V30 56 H 8.085717 5.411265 -9.201122 0
M  V30 57 H 8.825833 7.568863 -9.745233 0
M  V30 END ATOM
M  V30 BEGIN BOND
M  V30 1 1 2 1
M  V30 2 2 3 2
M  V30 3 1 4 2
M  V30 4 1 5 4
M  V30 5 1 6 5
M  V30 6 1 7 6
M  V30 7 1 8 7
M  V30 8 1 9 8
M  V30 9 1 10 9
M  V30 10 1 11 10
M  V30 11 1 12 11
M  V30 12 2 13 12
M  V30 13 1 14 13
M  V30 14 2 15 14
M  V30 15 1 16 15
M  V30 16 2 17 16
M  V30 17 1 18 17
M  V30 18 1 19 14
M  V30 19 2 19 18
M  V30 20 1 20 13
M  V30 21 1 21 20
M  V30 22 2 22 21
M  V30 23 1 23 22
M  V30 24 1 24 23
M  V30 25 2 25 23
M  V30 26 2 26 20
M  V30 27 1 26 25
M  V30 28 1 27 12
M  V30 29 1 28 9
M  V30 30 1 28 27
M  V30 31 1 29 4
M  V30 32 1 29 7
M  V30 33 1 30 1
M  V30 34 1 31 1
M  V30 35 1 4 32 CFG=1
M  V30 36 1 33 5
M  V30 37 1 34 5
M  V30 38 1 35 6
M  V30 39 1 36 6
M  V30 40 1 7 37 CFG=3
M  V30 41 1 38 8
M  V30 42 1 39 8
M  V30 43 1 40 10
M  V30 44 1 41 10
M  V30 45 1 42 11
M  V30 46 1 43 11
M  V30 47 1 44 15
M  V30 48 1 45 16
M  V30 49 1 46 17
M  V30 50 1 47 18
M  V30 51 1 48 19
M  V30 52 1 49 21
M  V30 53 1 50 22
M  V30 54 1 51 25
M  V30 55 1 52 26
M  V30 56 1 53 27
M  V30 57 1 54 27
M  V30 58 1 55 28
M  V30 59 1 56 28
M  V30 60 1 57 9
M  V30 END BOND
M  V30 END CTAB
M  END
>  <b_m_subgroup_collapsed>  (1337) 
0

>  <r_i_docking_score>  (1337) 
-7.2435505998949496

>  <s_m_subgroup_title>  (1337) 
glide-dock_SP_D22_pv

>  <s_m_subgroupid>  (1337) 
glide-dock_SP_D22_pv

>  <Molecule ChEMBL ID>  (1337) 
CHEMBL282927

>  <Standard Type>  (1337) 
Ki

>  <Standard Value>  (1337) 
100.0

>  <label>  (1337) 
1

$$$$
CHEMBL3780184
     RDKit          3D

  0  0  0  0  0  0  0  0  0  0999 V3000
M  V30 BEGIN CTAB
M  V30 COUNTS 56 60 0 0 1
M  V30 BEGIN ATOM
M  V30 1 C 11.693579 7.269456 -3.888911 0
M  V30 2 O 11.287237 8.395027 -4.659925 0
M  V30 3 C 10.943810 8.159280 -5.973782 0
M  V30 4 C 10.380711 6.948307 -6.423154 0
M  V30 5 C 10.082801 6.750025 -7.787375 0
M  V30 6 C 10.317843 7.770264 -8.728857 0
M  V30 7 C 10.867079 8.985983 -8.276652 0
M  V30 8 C 11.163261 9.183755 -6.910854 0
M  V30 9 O 11.684433 10.363960 -6.473808 0
M  V30 10 C 10.037179 7.552770 -10.222903 0 CFG=1
M  V30 11 C 11.388323 7.541112 -10.981923 0
M  V30 12 C 11.325923 6.972271 -12.382679 0
M  V30 13 C 12.243667 7.372451 -13.371591 0
M  V30 14 C 12.218931 6.784044 -14.648405 0
M  V30 15 C 11.285103 5.762918 -14.946503 0
M  V30 16 O 11.161695 5.189534 -16.192978 0
M  V30 17 C 11.684115 5.897671 -17.307138 0
M  V30 18 C 11.000550 5.384843 -18.555973 0
M  V30 19 C 9.599993 5.846764 -18.896473 0
M  V30 20 C 10.766519 6.293564 -19.741671 0
M  V30 21 C 10.411272 5.314219 -13.926794 0
M  V30 22 O 9.527827 4.289021 -14.158723 0
M  V30 23 C 10.137941 3.012718 -14.291378 0
M  V30 24 C 10.419397 5.934692 -12.656343 0
M  V30 25 C 9.543678 5.402268 -11.541169 0
M  V30 26 N 9.103594 6.407974 -10.540055 0 CFG=1 CHG=1
M  V30 27 C 8.484258 5.723774 -9.380540 0
M  V30 28 C 9.484145 5.453718 -8.264659 0
M  V30 29 H 12.092194 7.614532 -2.934701 0
M  V30 30 H 10.885857 6.573895 -3.671034 0
M  V30 31 H 12.484956 6.717893 -4.395664 0
M  V30 32 H 10.159927 6.170795 -5.714985 0
M  V30 33 H 11.070933 9.774192 -8.985020 0
M  V30 34 H 11.869508 10.322485 -5.546994 0
M  V30 35 H 9.486384 8.431082 -10.564430 0
M  V30 36 H 12.126954 6.972723 -10.422052 0
M  V30 37 H 11.788495 8.555147 -11.025267 0
M  V30 38 H 12.977040 8.136194 -13.155946 0
M  V30 39 H 12.928793 7.128231 -15.385628 0
M  V30 40 H 11.495496 6.967947 -17.221930 0
M  V30 41 H 12.760477 5.741969 -17.389065 0
M  V30 42 H 11.220258 4.342589 -18.780445 0
M  V30 43 H 8.918338 5.113073 -19.322990 0
M  V30 44 H 9.137528 6.588457 -18.246935 0
M  V30 45 H 11.079412 7.332862 -19.656054 0
M  V30 46 H 10.862226 5.858610 -20.734516 0
M  V30 47 H 9.369097 2.240370 -14.274570 0
M  V30 48 H 10.683887 2.914558 -15.229183 0
M  V30 49 H 10.823809 2.813515 -13.466927 0
M  V30 50 H 10.085668 4.596881 -11.046650 0
M  V30 51 H 8.645782 4.947948 -11.962915 0
M  V30 52 H 8.015046 4.789808 -9.690839 0
M  V30 53 H 7.686113 6.343672 -8.996657 0
M  V30 54 H 10.276459 4.783487 -8.599737 0
M  V30 55 H 8.960881 4.972265 -7.446887 0
M  V30 56 H 8.311457 6.870633 -10.974020 0
M  V30 END ATOM
M  V30 BEGIN BOND
M  V30 1 1 2 1
M  V30 2 1 3 2
M  V30 3 1 4 3
M  V30 4 2 5 4
M  V30 5 1 6 5
M  V30 6 2 7 6
M  V30 7 2 8 3
M  V30 8 1 8 7
M  V30 9 1 9 8
M  V30 10 1 10 6
M  V30 11 1 11 10
M  V30 12 1 12 11
M  V30 13 1 13 12
M  V30 14 2 14 13
M  V30 15 1 15 14
M  V30 16 1 16 15
M  V30 17 1 17 16
M  V30 18 1 18 17
M  V30 19 1 19 18
M  V30 20 1 20 18
M  V30 21 1 20 19
M  V30 22 2 21 15
M  V30 23 1 22 21
M  V30 24 1 23 22
M  V30 25 2 24 12
M  V30 26 1 24 21
M  V30 27 1 25 24
M  V30 28 1 26 10
M  V30 29 1 26 25
M  V30 30 1 27 26
M  V30 31 1 28 5
M  V30 32 1 28 27
M  V30 33 1 29 1
M  V30 34 1 30 1
M  V30 35 1 31 1
M  V30 36 1 32 4
M  V30 37 1 33 7
M  V30 38 1 34 9
M  V30 39 1 10 35 CFG=3
M  V30 40 1 36 11
M  V30 41 1 37 11
M  V30 42 1 38 13
M  V30 43 1 39 14
M  V30 44 1 40 17
M  V30 45 1 41 17
M  V30 46 1 42 18
M  V30 47 1 43 19
M  V30 48 1 44 19
M  V30 49 1 45 20
M  V30 50 1 46 20
M  V30 51 1 47 23
M  V30 52 1 48 23
M  V30 53 1 49 23
M  V30 54 1 50 25
M  V30 55 1 51 25
M  V30 56 1 52 27
M  V30 57 1 53 27
M  V30 58 1 54 28
M  V30 59 1 55 28
M  V30 60 1 26 56 CFG=3
M  V30 END BOND
M  V30 END CTAB
M  END
>  <b_m_subgroup_collapsed>  (1338) 
0

>  <r_i_docking_score>  (1338) 
-7.2425567211834601

>  <s_m_subgroup_title>  (1338) 
glide-dock_SP_D22_pv

>  <s_m_subgroupid>  (1338) 
glide-dock_SP_D22_pv

>  <Molecule ChEMBL ID>  (1338) 
CHEMBL3780184

>  <Standard Type>  (1338) 
Ki

>  <Standard Value>  (1338) 
54.0

>  <label>  (1338) 
1

$$$$
CHEMBL4470847
     RDKit          3D

  0  0  0  0  0  0  0  0  0  0999 V3000
M  V30 BEGIN CTAB
M  V30 COUNTS 44 46 0 0 1
M  V30 BEGIN ATOM
M  V30 1 C 11.825560 10.972324 -6.055180 0
M  V30 2 O 11.398461 9.641520 -6.170143 0
M  V30 3 C 11.632586 8.806664 -5.100858 0
M  V30 4 C 12.285006 9.188766 -3.899152 0
M  V30 5 C 12.486022 8.279629 -2.847475 0
M  V30 6 C 12.055271 6.955668 -2.991801 0
M  V30 7 C 11.415335 6.572325 -4.181581 0
M  V30 8 C 11.196143 7.476600 -5.230538 0
M  V30 9 N 10.523587 7.036982 -6.376687 0
M  V30 10 C 9.170967 7.511240 -6.626700 0
M  V30 11 C 9.104558 8.297626 -7.928261 0
M  V30 12 C 9.619802 7.472254 -9.117395 0
M  V30 13 C 8.769971 6.168727 -9.276476 0
M  V30 14 C 8.821727 5.545212 -10.673001 0
M  V30 15 N 8.486021 6.572325 -11.671532 0 CHG=1
M  V30 16 C 9.495546 7.644955 -11.702755 0
M  V30 17 C 9.486104 8.389666 -10.364429 0
M  V30 18 C 11.102774 7.148911 -8.799060 0
M  V30 19 C 11.286022 6.410316 -7.446864 0
M  V30 20 H 11.685999 11.522751 -6.982909 0
M  V30 21 H 11.286021 11.468498 -5.250196 0
M  V30 22 H 12.886085 10.972325 -5.846963 0
M  V30 23 H 12.666633 10.172324 -3.742981 0
M  V30 24 H 12.980005 8.599346 -1.941243 0
M  V30 25 H 12.201227 6.237627 -2.197709 0
M  V30 26 H 11.059400 5.566308 -4.288270 0
M  V30 27 H 8.481554 6.666722 -6.637959 0
M  V30 28 H 8.833490 8.176799 -5.846865 0
M  V30 29 H 8.086021 8.627296 -8.087653 0
M  V30 30 H 9.678279 9.218921 -7.840743 0
M  V30 31 H 9.051922 5.411291 -8.547396 0
M  V30 32 H 7.726730 6.367872 -9.046865 0
M  V30 33 H 9.805740 5.122549 -10.878949 0
M  V30 34 H 8.101238 4.729039 -10.740623 0
M  V30 35 H 8.387043 6.152150 -12.583467 0
M  V30 36 H 10.481680 7.229592 -11.915042 0
M  V30 37 H 9.257015 8.338985 -12.509235 0
M  V30 38 H 8.546400 8.943870 -10.312841 0
M  V30 39 H 10.269238 9.148046 -10.355114 0
M  V30 40 H 11.539346 6.572325 -9.612394 0
M  V30 41 H 11.672763 8.078418 -8.754499 0
M  V30 42 H 12.337757 6.390502 -7.164081 0
M  V30 43 H 10.973739 5.372325 -7.531438 0
M  V30 44 H 7.599320 6.985474 -11.377895 0
M  V30 END ATOM
M  V30 BEGIN BOND
M  V30 1 1 2 1
M  V30 2 1 3 2
M  V30 3 2 4 3
M  V30 4 1 5 4
M  V30 5 2 6 5
M  V30 6 1 7 6
M  V30 7 1 8 3
M  V30 8 2 8 7
M  V30 9 1 9 8
M  V30 10 1 10 9
M  V30 11 1 11 10
M  V30 12 1 12 11
M  V30 13 1 13 12
M  V30 14 1 14 13
M  V30 15 1 15 14
M  V30 16 1 16 15
M  V30 17 1 17 12
M  V30 18 1 17 16
M  V30 19 1 18 12
M  V30 20 1 19 9
M  V30 21 1 19 18
M  V30 22 1 20 1
M  V30 23 1 21 1
M  V30 24 1 22 1
M  V30 25 1 23 4
M  V30 26 1 24 5
M  V30 27 1 25 6
M  V30 28 1 26 7
M  V30 29 1 27 10
M  V30 30 1 28 10
M  V30 31 1 29 11
M  V30 32 1 30 11
M  V30 33 1 31 13
M  V30 34 1 32 13
M  V30 35 1 33 14
M  V30 36 1 34 14
M  V30 37 1 35 15
M  V30 38 1 36 16
M  V30 39 1 37 16
M  V30 40 1 38 17
M  V30 41 1 39 17
M  V30 42 1 40 18
M  V30 43 1 41 18
M  V30 44 1 42 19
M  V30 45 1 43 19
M  V30 46 1 44 15
M  V30 END BOND
M  V30 END CTAB
M  END
>  <b_m_subgroup_collapsed>  (1339) 
0

>  <r_i_docking_score>  (1339) 
-7.2412272034822296

>  <s_m_subgroup_title>  (1339) 
glide-dock_SP_D22_pv

>  <s_m_subgroupid>  (1339) 
glide-dock_SP_D22_pv

>  <Molecule ChEMBL ID>  (1339) 
CHEMBL4470847

>  <Standard Type>  (1339) 
Ki

>  <Standard Value>  (1339) 
99379.0

>  <label>  (1339) 
0

$$$$
CHEMBL458792
     RDKit          3D

  0  0  0  0  0  0  0  0  0  0999 V3000
M  V30 BEGIN CTAB
M  V30 COUNTS 66 69 0 0 1
M  V30 BEGIN ATOM
M  V30 1 C 17.947206 7.067313 -19.207294 0
M  V30 2 O 17.154142 6.174607 -18.438671 0
M  V30 3 C 15.911534 6.610257 -18.024361 0
M  V30 4 C 15.364199 7.883651 -18.323376 0
M  V30 5 C 14.085748 8.237753 -17.848005 0
M  V30 6 C 13.336729 7.330404 -17.076214 0
M  V30 7 C 13.865912 6.056571 -16.783363 0
M  V30 8 C 13.062323 5.047660 -15.982852 0
M  V30 9 C 11.767591 4.623585 -16.696114 0
M  V30 10 C 11.166558 3.360070 -16.100002 0
M  V30 11 C 11.318151 2.140816 -16.796280 0
M  V30 12 C 10.786283 0.947811 -16.276939 0
M  V30 13 C 10.100880 0.965849 -15.051858 0
M  V30 14 C 9.954679 2.175151 -14.347197 0
M  V30 15 C 10.477217 3.389838 -14.862147 0
M  V30 16 O 10.345516 4.606699 -14.220701 0
M  V30 17 C 9.760150 4.620945 -12.926608 0
M  V30 18 C 9.515448 6.064902 -12.488441 0
M  V30 19 C 8.798413 6.149441 -11.130332 0
M  V30 20 N 9.726539 6.334755 -10.016284 0
M  V30 21 C 10.116232 7.750928 -9.939742 0
M  V30 22 C 11.079515 7.981658 -8.762766 0
M  V30 23 N 10.443602 7.559063 -7.521363 0
M  V30 24 C 10.884842 8.131265 -6.315501 0
M  V30 25 C 10.895887 9.537807 -6.189999 0
M  V30 26 C 11.286635 10.149840 -4.989264 0
M  V30 27 C 11.689362 9.362666 -3.894379 0
M  V30 28 C 11.686062 7.957918 -4.005902 0
M  V30 29 Cl 12.100631 6.982662 -2.647404 0
M  V30 30 C 11.284773 7.345479 -5.209706 0
M  V30 31 C 9.942271 6.191449 -7.551224 0
M  V30 32 C 9.021884 5.991550 -8.773131 0
M  V30 33 C 15.148080 5.709930 -17.257257 0
M  V30 34 H 18.897438 6.590147 -19.446737 0
M  V30 35 H 17.458265 7.321784 -20.148733 0
M  V30 36 H 18.166466 7.980338 -18.653379 0
M  V30 37 H 15.905298 8.606358 -18.913002 0
M  V30 38 H 13.684022 9.214964 -18.075579 0
M  V30 39 H 12.356142 7.610358 -16.720427 0
M  V30 40 H 12.842337 5.454238 -14.993433 0
M  V30 41 H 13.683233 4.168830 -15.821690 0
M  V30 42 H 11.980498 4.439928 -17.750202 0
M  V30 43 H 11.032776 5.427900 -16.672745 0
M  V30 44 H 11.852086 2.113981 -17.735037 0
M  V30 45 H 10.905452 0.021657 -16.819206 0
M  V30 46 H 9.693013 0.052314 -14.646528 0
M  V30 47 H 9.430230 2.136833 -13.407194 0
M  V30 48 H 8.797278 4.109119 -12.928916 0
M  V30 49 H 10.426437 4.114793 -12.225516 0
M  V30 50 H 10.449457 6.627261 -12.503809 0
M  V30 51 H 8.863415 6.536528 -13.223426 0
M  V30 52 H 8.086302 6.972951 -11.149220 0
M  V30 53 H 8.202116 5.247139 -10.983548 0
M  V30 54 H 10.606762 8.060918 -10.862600 0
M  V30 55 H 9.232877 8.381876 -9.823613 0
M  V30 56 H 11.996228 7.412004 -8.908531 0
M  V30 57 H 11.369818 9.030859 -8.732789 0
M  V30 58 H 10.577362 10.161956 -7.009577 0
M  V30 59 H 11.284936 11.225985 -4.917686 0
M  V30 60 H 11.986330 9.833407 -2.969252 0
M  V30 61 H 11.280436 6.265799 -5.266757 0
M  V30 62 H 10.781212 5.495471 -7.589379 0
M  V30 63 H 9.375479 5.980370 -6.643797 0
M  V30 64 H 8.119241 6.594639 -8.667515 0
M  V30 65 H 8.697427 4.951116 -8.811692 0
M  V30 66 H 15.556700 4.734519 -17.034946 0
M  V30 END ATOM
M  V30 BEGIN BOND
M  V30 1 1 2 1
M  V30 2 1 3 2
M  V30 3 2 4 3
M  V30 4 1 5 4
M  V30 5 2 6 5
M  V30 6 1 7 6
M  V30 7 1 8 7
M  V30 8 1 9 8
M  V30 9 1 10 9
M  V30 10 2 11 10
M  V30 11 1 12 11
M  V30 12 2 13 12
M  V30 13 1 14 13
M  V30 14 1 15 10
M  V30 15 2 15 14
M  V30 16 1 16 15
M  V30 17 1 17 16
M  V30 18 1 18 17
M  V30 19 1 19 18
M  V30 20 1 20 19
M  V30 21 1 21 20
M  V30 22 1 22 21
M  V30 23 1 23 22
M  V30 24 1 24 23
M  V30 25 2 25 24
M  V30 26 1 26 25
M  V30 27 2 27 26
M  V30 28 1 28 27
M  V30 29 1 29 28
M  V30 30 1 30 24
M  V30 31 2 30 28
M  V30 32 1 31 23
M  V30 33 1 32 20
M  V30 34 1 32 31
M  V30 35 1 33 3
M  V30 36 2 33 7
M  V30 37 1 34 1
M  V30 38 1 35 1
M  V30 39 1 36 1
M  V30 40 1 37 4
M  V30 41 1 38 5
M  V30 42 1 39 6
M  V30 43 1 40 8
M  V30 44 1 41 8
M  V30 45 1 42 9
M  V30 46 1 43 9
M  V30 47 1 44 11
M  V30 48 1 45 12
M  V30 49 1 46 13
M  V30 50 1 47 14
M  V30 51 1 48 17
M  V30 52 1 49 17
M  V30 53 1 50 18
M  V30 54 1 51 18
M  V30 55 1 52 19
M  V30 56 1 53 19
M  V30 57 1 54 21
M  V30 58 1 55 21
M  V30 59 1 56 22
M  V30 60 1 57 22
M  V30 61 1 58 25
M  V30 62 1 59 26
M  V30 63 1 60 27
M  V30 64 1 61 30
M  V30 65 1 62 31
M  V30 66 1 63 31
M  V30 67 1 64 32
M  V30 68 1 65 32
M  V30 69 1 66 33
M  V30 END BOND
M  V30 END CTAB
M  END
>  <b_m_subgroup_collapsed>  (1340) 
0

>  <r_i_docking_score>  (1340) 
-7.23898987420346

>  <s_m_subgroup_title>  (1340) 
glide-dock_SP_D22_pv

>  <s_m_subgroupid>  (1340) 
glide-dock_SP_D22_pv

>  <Molecule ChEMBL ID>  (1340) 
CHEMBL458792

>  <Standard Type>  (1340) 
Ki

>  <Standard Value>  (1340) 
298000.0

>  <label>  (1340) 
0

$$$$
CHEMBL134571
     RDKit          3D

  0  0  0  0  0  0  0  0  0  0999 V3000
M  V30 BEGIN CTAB
M  V30 COUNTS 35 36 0 0 1
M  V30 BEGIN ATOM
M  V30 1 C 8.135110 5.128181 -10.472461 0
M  V30 2 C 8.777719 5.697792 -9.196091 0
M  V30 3 N 9.379751 7.049466 -9.364223 0 CFG=2 CHG=1
M  V30 4 C 10.416809 7.095014 -10.430758 0
M  V30 5 C 9.803953 7.688811 -8.065904 0 CFG=2
M  V30 6 C 10.724154 8.916812 -8.255487 0
M  V30 7 C 10.980962 9.658945 -6.943187 0
M  V30 8 C 11.286064 8.772873 -5.765490 0
M  V30 9 C 11.799382 9.372442 -4.601911 0
M  V30 10 C 12.085560 8.603501 -3.463262 0
M  V30 11 C 11.829531 7.223664 -3.483626 0
M  V30 12 O 12.086299 6.485289 -2.367170 0
M  V30 13 C 11.287724 6.626207 -4.642069 0
M  V30 14 C 11.016872 7.389028 -5.796200 0
M  V30 15 C 10.457148 6.713481 -7.045816 0
M  V30 16 H 7.679738 4.170856 -10.246283 0
M  V30 17 H 7.350512 5.772991 -10.867031 0
M  V30 18 H 8.852506 4.923771 -11.265746 0
M  V30 19 H 9.530395 4.988071 -8.848480 0
M  V30 20 H 8.012383 5.759684 -8.421107 0
M  V30 21 H 11.314704 6.572626 -10.109036 0
M  V30 22 H 10.082300 6.655956 -11.367785 0
M  V30 23 H 10.690568 8.115921 -10.692986 0
M  V30 24 H 8.879930 8.048561 -7.607940 0
M  V30 25 H 11.692348 8.594075 -8.640158 0
M  V30 26 H 10.307078 9.610749 -8.986368 0
M  V30 27 H 10.086102 10.176782 -6.653181 0
M  V30 28 H 11.759779 10.411532 -7.046782 0
M  V30 29 H 11.955378 10.436278 -4.584918 0
M  V30 30 H 12.481762 9.073388 -2.574136 0
M  V30 31 H 11.775663 5.591073 -2.420714 0
M  V30 32 H 11.077755 5.574211 -4.645148 0
M  V30 33 H 11.276145 6.168275 -7.516509 0
M  V30 34 H 9.728575 5.973743 -6.713933 0
M  V30 35 H 8.610064 7.616810 -9.707105 0
M  V30 END ATOM
M  V30 BEGIN BOND
M  V30 1 1 2 1
M  V30 2 1 3 2
M  V30 3 1 4 3
M  V30 4 1 5 3
M  V30 5 1 6 5
M  V30 6 1 7 6
M  V30 7 1 8 7
M  V30 8 1 9 8
M  V30 9 2 10 9
M  V30 10 1 11 10
M  V30 11 1 12 11
M  V30 12 2 13 11
M  V30 13 2 14 8
M  V30 14 1 14 13
M  V30 15 1 15 5
M  V30 16 1 15 14
M  V30 17 1 16 1
M  V30 18 1 17 1
M  V30 19 1 18 1
M  V30 20 1 19 2
M  V30 21 1 20 2
M  V30 22 1 21 4
M  V30 23 1 22 4
M  V30 24 1 23 4
M  V30 25 1 5 24 CFG=1
M  V30 26 1 25 6
M  V30 27 1 26 6
M  V30 28 1 27 7
M  V30 29 1 28 7
M  V30 30 1 29 9
M  V30 31 1 30 10
M  V30 32 1 31 12
M  V30 33 1 32 13
M  V30 34 1 33 15
M  V30 35 1 34 15
M  V30 36 1 3 35 CFG=3
M  V30 END BOND
M  V30 END CTAB
M  END
>  <b_m_subgroup_collapsed>  (1341) 
0

>  <r_i_docking_score>  (1341) 
-7.2383515443348401

>  <s_m_subgroup_title>  (1341) 
glide-dock_SP_D22_pv

>  <s_m_subgroupid>  (1341) 
glide-dock_SP_D22_pv

>  <Molecule ChEMBL ID>  (1341) 
CHEMBL134571

>  <Standard Type>  (1341) 
Ki

>  <Standard Value>  (1341) 
2.5

>  <label>  (1341) 
1

$$$$
CHEMBL544055
     RDKit          3D

  0  0  0  0  0  0  0  0  0  0999 V3000
M  V30 BEGIN CTAB
M  V30 COUNTS 39 41 0 0 1
M  V30 BEGIN ATOM
M  V30 1 C 7.062630 5.109090 -11.787281 0
M  V30 2 N 8.376720 5.532796 -11.253432 0 CFG=2 CHG=1
M  V30 3 C 8.414681 5.486948 -9.770656 0
M  V30 4 C 9.806027 5.844732 -9.244245 0
M  V30 5 C 10.267138 7.248975 -9.728236 0 CFG=1
M  V30 6 C 10.198519 7.256305 -11.267097 0
M  V30 7 C 8.809765 6.849031 -11.792059 0
M  V30 8 C 9.469521 8.421520 -9.126045 0
M  V30 9 C 9.655563 8.419816 -7.619589 0
M  V30 10 O 8.697065 8.572159 -6.875781 0
M  V30 11 C 11.017789 8.196719 -7.140349 0
M  V30 12 C 11.347090 8.296777 -5.706309 0
M  V30 13 C 11.685482 7.129877 -4.985042 0
M  V30 14 C 12.071395 7.218115 -3.632073 0
M  V30 15 C 12.086041 8.467319 -2.985739 0
M  V30 16 F 12.476597 8.555932 -1.692581 0
M  V30 17 C 11.688581 9.622578 -3.685439 0
M  V30 18 C 11.322933 9.543832 -5.045367 0
M  V30 19 C 11.913638 7.772208 -8.063665 0
M  V30 20 O 11.638740 7.448558 -9.377235 0
M  V30 21 H 6.266327 5.773148 -11.448503 0
M  V30 22 H 7.065614 5.106537 -12.878095 0
M  V30 23 H 6.821814 4.098931 -11.452840 0
M  V30 24 H 8.138101 4.487933 -9.428741 0
M  V30 25 H 7.685795 6.172086 -9.350776 0
M  V30 26 H 10.485998 5.078518 -9.597436 0
M  V30 27 H 9.818003 5.757084 -8.157888 0
M  V30 28 H 10.462428 8.242706 -11.647724 0
M  V30 29 H 10.945470 6.572240 -11.670245 0
M  V30 30 H 8.829309 6.795898 -12.880426 0
M  V30 31 H 8.086154 7.620028 -11.536468 0
M  V30 32 H 8.419111 8.358015 -9.365780 0
M  V30 33 H 9.828261 9.372359 -9.520581 0
M  V30 34 H 11.683299 6.168513 -5.476334 0
M  V30 35 H 12.355614 6.327302 -3.090324 0
M  V30 36 H 11.684666 10.572341 -3.172569 0
M  V30 37 H 11.043292 10.441050 -5.579010 0
M  V30 38 H 12.945638 7.555964 -7.846893 0
M  V30 39 H 9.049149 4.852477 -11.576791 0
M  V30 END ATOM
M  V30 BEGIN BOND
M  V30 1 1 2 1
M  V30 2 1 3 2
M  V30 3 1 4 3
M  V30 4 1 5 4
M  V30 5 1 6 5
M  V30 6 1 7 2
M  V30 7 1 7 6
M  V30 8 1 8 5
M  V30 9 1 9 8
M  V30 10 2 10 9
M  V30 11 1 11 9
M  V30 12 1 12 11
M  V30 13 1 13 12
M  V30 14 2 14 13
M  V30 15 1 15 14
M  V30 16 1 16 15
M  V30 17 2 17 15
M  V30 18 2 18 12
M  V30 19 1 18 17
M  V30 20 2 19 11
M  V30 21 1 5 20 CFG=3
M  V30 22 1 20 19
M  V30 23 1 21 1
M  V30 24 1 22 1
M  V30 25 1 23 1
M  V30 26 1 24 3
M  V30 27 1 25 3
M  V30 28 1 26 4
M  V30 29 1 27 4
M  V30 30 1 28 6
M  V30 31 1 29 6
M  V30 32 1 30 7
M  V30 33 1 31 7
M  V30 34 1 32 8
M  V30 35 1 33 8
M  V30 36 1 34 13
M  V30 37 1 35 14
M  V30 38 1 36 17
M  V30 39 1 37 18
M  V30 40 1 38 19
M  V30 41 1 2 39 CFG=3
M  V30 END BOND
M  V30 END CTAB
M  END
>  <b_m_subgroup_collapsed>  (1342) 
0

>  <r_i_docking_score>  (1342) 
-7.2366383387603896

>  <s_m_subgroup_title>  (1342) 
glide-dock_SP_D22_pv

>  <s_m_subgroupid>  (1342) 
glide-dock_SP_D22_pv

>  <Molecule ChEMBL ID>  (1342) 
CHEMBL544055

>  <Standard Type>  (1342) 
Ki

>  <Standard Value>  (1342) 
100000.0

>  <label>  (1342) 
0

$$$$
CHEMBL26751
     RDKit          3D

  0  0  0  0  0  0  0  0  0  0999 V3000
M  V30 BEGIN CTAB
M  V30 COUNTS 38 42 0 0 1
M  V30 BEGIN ATOM
M  V30 1 C 6.922634 5.543692 -11.874757 0
M  V30 2 N 7.996207 4.596168 -11.474425 0 CFG=1 CHG=1
M  V30 3 C 8.665473 3.974607 -12.647112 0
M  V30 4 C 9.435341 5.015896 -13.487185 0
M  V30 5 C 10.325152 5.952830 -12.677934 0
M  V30 6 C 11.462333 6.681532 -13.112450 0
M  V30 7 C 12.175103 7.529684 -12.221207 0
M  V30 8 C 11.715388 7.708549 -10.895679 0
M  V30 9 C 10.620151 6.972324 -10.471929 0
M  V30 10 C 9.954815 6.104129 -11.329066 0
M  V30 11 C 9.027513 5.159877 -10.562347 0 CFG=1
M  V30 12 C 8.487818 5.636882 -9.185088 0
M  V30 13 C 9.436589 6.452284 -8.320725 0
M  V30 14 C 9.398083 6.720514 -6.936121 0
M  V30 15 C 10.346150 7.601793 -6.352000 0
M  V30 16 C 11.332355 8.245196 -7.140973 0
M  V30 17 C 11.360162 7.985527 -8.523614 0
M  V30 18 C 10.415684 7.117408 -9.053859 0
M  V30 19 C 12.243475 8.442329 -9.675313 0 CFG=1
M  V30 20 O 13.605874 8.172325 -9.446864 0
M  V30 21 H 7.323637 6.487409 -12.246860 0
M  V30 22 H 6.258764 5.772324 -11.046865 0
M  V30 23 H 6.298190 5.111875 -12.657368 0
M  V30 24 H 9.366454 3.216517 -12.294428 0
M  V30 25 H 7.937127 3.450192 -13.267007 0
M  V30 26 H 10.051000 4.502580 -14.226528 0
M  V30 27 H 8.735325 5.630176 -14.054539 0
M  V30 28 H 11.804299 6.579962 -14.132279 0
M  V30 29 H 13.061028 8.047678 -12.558990 0
M  V30 30 H 9.686020 4.327006 -10.307098 0
M  V30 31 H 7.686022 6.321908 -9.360324 0
M  V30 32 H 8.086022 4.802947 -8.609893 0
M  V30 33 H 8.636093 6.264267 -6.321111 0
M  V30 34 H 10.309932 7.791257 -5.290229 0
M  V30 35 H 12.052912 8.913836 -6.693333 0
M  V30 36 H 12.086021 9.509659 -9.824251 0
M  V30 37 H 14.057716 8.997363 -9.622969 0
M  V30 38 H 7.533360 3.857625 -10.962967 0
M  V30 END ATOM
M  V30 BEGIN BOND
M  V30 1 1 2 1
M  V30 2 1 3 2
M  V30 3 1 4 3
M  V30 4 1 5 4
M  V30 5 1 6 5
M  V30 6 2 7 6
M  V30 7 1 8 7
M  V30 8 2 9 8
M  V30 9 2 10 5
M  V30 10 1 10 9
M  V30 11 1 11 2
M  V30 12 1 11 10
M  V30 13 1 12 11
M  V30 14 1 13 12
M  V30 15 1 14 13
M  V30 16 2 15 14
M  V30 17 1 16 15
M  V30 18 2 17 16
M  V30 19 1 18 9
M  V30 20 2 18 13
M  V30 21 1 18 17
M  V30 22 1 19 8
M  V30 23 1 19 17
M  V30 24 1 20 19
M  V30 25 1 21 1
M  V30 26 1 22 1
M  V30 27 1 23 1
M  V30 28 1 24 3
M  V30 29 1 25 3
M  V30 30 1 26 4
M  V30 31 1 27 4
M  V30 32 1 28 6
M  V30 33 1 29 7
M  V30 34 1 11 30 CFG=1
M  V30 35 1 31 12
M  V30 36 1 32 12
M  V30 37 1 33 14
M  V30 38 1 34 15
M  V30 39 1 35 16
M  V30 40 1 19 36 CFG=3
M  V30 41 1 37 20
M  V30 42 1 2 38 CFG=1
M  V30 END BOND
M  V30 END CTAB
M  END
>  <b_m_subgroup_collapsed>  (1343) 
0

>  <r_i_docking_score>  (1343) 
-7.2363020197654802

>  <s_m_subgroup_title>  (1343) 
glide-dock_SP_D22_pv

>  <s_m_subgroupid>  (1343) 
glide-dock_SP_D22_pv

>  <Molecule ChEMBL ID>  (1343) 
CHEMBL26751

>  <Standard Type>  (1343) 
Ki

>  <Standard Value>  (1343) 
23.8

>  <label>  (1343) 
1

$$$$
CHEMBL184770
     RDKit          3D

  0  0  0  0  0  0  0  0  0  0999 V3000
M  V30 BEGIN CTAB
M  V30 COUNTS 50 53 0 0 1
M  V30 BEGIN ATOM
M  V30 1 C 7.363984 2.435268 -14.473023 0
M  V30 2 C 8.586574 3.278789 -14.145288 0
M  V30 3 C 9.837600 2.860711 -14.639324 0
M  V30 4 C 11.000204 3.576805 -14.320237 0
M  V30 5 C 10.921271 4.698739 -13.479431 0
M  V30 6 C 9.683013 5.135441 -12.956092 0
M  V30 7 N 9.689468 6.220659 -12.052917 0
M  V30 8 C 10.514388 7.413869 -12.237787 0
M  V30 9 C 11.310081 7.742179 -10.950632 0
M  V30 10 N 10.408943 7.869383 -9.800158 0
M  V30 11 C 11.179255 8.192714 -8.599896 0
M  V30 12 C 10.285406 8.697018 -7.444783 0
M  V30 13 C 10.898393 8.409328 -6.088128 0
M  V30 14 C 11.136051 7.067051 -5.715156 0
M  V30 15 C 11.685415 6.754928 -4.459699 0
M  V30 16 C 11.978072 7.774487 -3.539026 0
M  V30 17 N 12.471199 7.730061 -2.247863 0
M  V30 18 N 12.515244 8.943552 -1.795741 0
M  V30 19 N 12.086129 9.774523 -2.777999 0
M  V30 20 C 11.716066 9.106946 -3.920720 0
M  V30 21 C 11.201326 9.450781 -5.183492 0
M  V30 22 C 9.739182 6.570793 -9.618134 0
M  V30 23 C 8.881556 6.216772 -10.844223 0
M  V30 24 C 8.492103 4.443644 -13.336997 0
M  V30 25 C 7.105842 4.935632 -12.917921 0
M  V30 26 H 7.643245 1.513822 -14.984151 0
M  V30 27 H 6.844070 2.154832 -13.556896 0
M  V30 28 H 6.667113 2.972763 -15.112094 0
M  V30 29 H 9.912984 1.978769 -15.259140 0
M  V30 30 H 11.956083 3.249779 -14.697280 0
M  V30 31 H 11.836803 5.202785 -13.211054 0
M  V30 32 H 11.193051 7.309532 -13.082594 0
M  V30 33 H 9.849273 8.244660 -12.473489 0
M  V30 34 H 12.059333 6.972554 -10.762795 0
M  V30 35 H 11.853669 8.677403 -11.080007 0
M  V30 36 H 11.744206 7.308132 -8.302181 0
M  V30 37 H 11.922705 8.962949 -8.818194 0
M  V30 38 H 10.109473 9.770786 -7.547531 0
M  V30 39 H 9.297554 8.238029 -7.453584 0
M  V30 40 H 10.893067 6.263621 -6.396538 0
M  V30 41 H 11.870865 5.733098 -4.183491 0
M  V30 42 H 11.015007 10.483186 -5.440536 0
M  V30 43 H 10.476689 5.785166 -9.443619 0
M  V30 44 H 9.087792 6.586985 -8.744792 0
M  V30 45 H 8.087519 6.945632 -10.974138 0
M  V30 46 H 8.415475 5.244613 -10.681153 0
M  V30 47 H 6.363205 4.743237 -13.690662 0
M  V30 48 H 6.776065 4.440208 -12.005682 0
M  V30 49 H 7.089207 6.013232 -12.757579 0
M  V30 50 H 12.069790 10.773376 -2.626952 0
M  V30 END ATOM
M  V30 BEGIN BOND
M  V30 1 1 2 1
M  V30 2 1 3 2
M  V30 3 2 4 3
M  V30 4 1 5 4
M  V30 5 2 6 5
M  V30 6 1 7 6
M  V30 7 1 8 7
M  V30 8 1 9 8
M  V30 9 1 10 9
M  V30 10 1 11 10
M  V30 11 1 12 11
M  V30 12 1 13 12
M  V30 13 1 14 13
M  V30 14 2 15 14
M  V30 15 1 16 15
M  V30 16 1 17 16
M  V30 17 2 18 17
M  V30 18 1 19 18
M  V30 19 2 20 16
M  V30 20 1 20 19
M  V30 21 2 21 13
M  V30 22 1 21 20
M  V30 23 1 22 10
M  V30 24 1 23 7
M  V30 25 1 23 22
M  V30 26 2 24 2
M  V30 27 1 24 6
M  V30 28 1 25 24
M  V30 29 1 26 1
M  V30 30 1 27 1
M  V30 31 1 28 1
M  V30 32 1 29 3
M  V30 33 1 30 4
M  V30 34 1 31 5
M  V30 35 1 32 8
M  V30 36 1 33 8
M  V30 37 1 34 9
M  V30 38 1 35 9
M  V30 39 1 36 11
M  V30 40 1 37 11
M  V30 41 1 38 12
M  V30 42 1 39 12
M  V30 43 1 40 14
M  V30 44 1 41 15
M  V30 45 1 42 21
M  V30 46 1 43 22
M  V30 47 1 44 22
M  V30 48 1 45 23
M  V30 49 1 46 23
M  V30 50 1 47 25
M  V30 51 1 48 25
M  V30 52 1 49 25
M  V30 53 1 50 19
M  V30 END BOND
M  V30 END CTAB
M  END
>  <b_m_subgroup_collapsed>  (1344) 
0

>  <r_i_docking_score>  (1344) 
-7.2353953219650604

>  <s_m_subgroup_title>  (1344) 
glide-dock_SP_D22_pv

>  <s_m_subgroupid>  (1344) 
glide-dock_SP_D22_pv

>  <Molecule ChEMBL ID>  (1344) 
CHEMBL184770

>  <Standard Type>  (1344) 
Ki

>  <Standard Value>  (1344) 
51.29

>  <label>  (1344) 
1

$$$$
CHEMBL2031876
     RDKit          3D

  0  0  0  0  0  0  0  0  0  0999 V3000
M  V30 BEGIN CTAB
M  V30 COUNTS 66 70 0 0 1
M  V30 BEGIN ATOM
M  V30 1 C 12.958797 9.689348 -4.698311 0
M  V30 2 C 11.711841 8.838986 -4.408286 0 CFG=2
M  V30 3 C 11.988914 7.883893 -3.241090 0
M  V30 4 C 11.579060 6.500840 -3.707350 0
M  V30 5 C 11.284013 6.607155 -5.204521 0
M  V30 6 N 11.285822 8.023143 -5.557112 0
M  V30 7 C 10.885715 8.559970 -6.739218 0
M  V30 8 O 10.885863 9.772373 -6.927732 0
M  V30 9 C 10.450348 7.679674 -7.882821 0
M  V30 10 C 9.354954 6.799541 -7.762461 0
M  V30 11 C 8.899407 6.072917 -8.878662 0
M  V30 12 C 9.479851 6.235625 -10.157733 0
M  V30 13 C 8.935697 5.489089 -11.315889 0
M  V30 14 C 7.543675 5.318213 -11.445967 0
M  V30 15 C 6.983031 4.495656 -12.431703 0
M  V30 16 C 7.820830 3.806416 -13.325522 0
M  V30 17 C 9.213815 4.023451 -13.272718 0
M  V30 18 C 9.757294 4.879048 -12.289614 0
M  V30 19 C 10.113840 3.281077 -14.240123 0
M  V30 20 C 9.365868 2.893290 -15.530889 0
M  V30 21 N 8.005511 2.382874 -15.290023 0
M  V30 22 C 7.435876 1.530530 -16.339985 0
M  V30 23 C 7.268372 0.069272 -15.859871 0
M  V30 24 N 6.485941 -0.806769 -16.767536 0 CHG=1
M  V30 25 C 5.036365 -0.540092 -16.843361 0
M  V30 26 C 4.544137 -1.340767 -18.053583 0
M  V30 27 C 5.801550 -1.644588 -18.886333 0
M  V30 28 C 6.959558 -0.954126 -18.155825 0
M  V30 29 C 7.236696 2.779860 -14.247248 0
M  V30 30 O 6.094643 2.357963 -14.049129 0
M  V30 31 C 10.565145 7.132518 -10.277202 0
M  V30 32 C 11.043608 7.845154 -9.155901 0
M  V30 33 H 13.288476 10.172287 -3.781211 0
M  V30 34 H 13.787941 9.080056 -5.046898 0
M  V30 35 H 12.782850 10.462794 -5.445576 0
M  V30 36 H 10.886250 9.497605 -4.133289 0
M  V30 37 H 11.443151 8.181258 -2.342759 0
M  V30 38 H 13.047581 7.876705 -2.978318 0
M  V30 39 H 10.690783 6.172372 -3.167596 0
M  V30 40 H 12.360572 5.772302 -3.496098 0
M  V30 41 H 10.307398 6.172102 -5.389918 0
M  V30 42 H 12.026359 6.070016 -5.796816 0
M  V30 43 H 8.817603 6.704257 -6.830674 0
M  V30 44 H 8.058305 5.409127 -8.749394 0
M  V30 45 H 6.884097 5.772183 -10.727337 0
M  V30 46 H 5.912363 4.351046 -12.444019 0
M  V30 47 H 10.825212 5.014318 -12.247738 0
M  V30 48 H 10.990831 3.885748 -14.478930 0
M  V30 49 H 10.474757 2.381831 -13.739591 0
M  V30 50 H 9.272621 3.774729 -16.166599 0
M  V30 51 H 9.963711 2.170717 -16.087084 0
M  V30 52 H 6.486110 1.962748 -16.651434 0
M  V30 53 H 8.072129 1.561631 -17.223509 0
M  V30 54 H 8.258000 -0.369310 -15.724786 0
M  V30 55 H 6.789113 0.022638 -14.880930 0
M  V30 56 H 4.521844 -0.814671 -15.921152 0
M  V30 57 H 4.866851 0.521378 -17.025015 0
M  V30 58 H 4.070778 -2.271028 -17.730211 0
M  V30 59 H 3.799433 -0.780635 -18.622482 0
M  V30 60 H 5.966297 -2.722427 -18.916838 0
M  V30 61 H 5.706319 -1.298404 -19.916521 0
M  V30 62 H 7.132302 0.022459 -18.607891 0
M  V30 63 H 7.888202 -1.523939 -18.207335 0
M  V30 64 H 11.025896 7.292786 -11.240571 0
M  V30 65 H 11.856503 8.547872 -9.283895 0
M  V30 66 H 6.582164 -1.733472 -16.364080 0
M  V30 END ATOM
M  V30 BEGIN BOND
M  V30 1 1 2 1
M  V30 2 1 3 2
M  V30 3 1 4 3
M  V30 4 1 5 4
M  V30 5 1 6 2
M  V30 6 1 6 5
M  V30 7 1 7 6
M  V30 8 2 8 7
M  V30 9 1 9 7
M  V30 10 1 10 9
M  V30 11 2 11 10
M  V30 12 1 12 11
M  V30 13 1 13 12
M  V30 14 1 14 13
M  V30 15 2 15 14
M  V30 16 1 16 15
M  V30 17 2 17 16
M  V30 18 2 18 13
M  V30 19 1 18 17
M  V30 20 1 19 17
M  V30 21 1 20 19
M  V30 22 1 21 20
M  V30 23 1 22 21
M  V30 24 1 23 22
M  V30 25 1 24 23
M  V30 26 1 25 24
M  V30 27 1 26 25
M  V30 28 1 27 26
M  V30 29 1 28 24
M  V30 30 1 28 27
M  V30 31 1 29 16
M  V30 32 1 29 21
M  V30 33 2 30 29
M  V30 34 2 31 12
M  V30 35 2 32 9
M  V30 36 1 32 31
M  V30 37 1 33 1
M  V30 38 1 34 1
M  V30 39 1 35 1
M  V30 40 1 2 36 CFG=1
M  V30 41 1 37 3
M  V30 42 1 38 3
M  V30 43 1 39 4
M  V30 44 1 40 4
M  V30 45 1 41 5
M  V30 46 1 42 5
M  V30 47 1 43 10
M  V30 48 1 44 11
M  V30 49 1 45 14
M  V30 50 1 46 15
M  V30 51 1 47 18
M  V30 52 1 48 19
M  V30 53 1 49 19
M  V30 54 1 50 20
M  V30 55 1 51 20
M  V30 56 1 52 22
M  V30 57 1 53 22
M  V30 58 1 54 23
M  V30 59 1 55 23
M  V30 60 1 56 25
M  V30 61 1 57 25
M  V30 62 1 58 26
M  V30 63 1 59 26
M  V30 64 1 60 27
M  V30 65 1 61 27
M  V30 66 1 62 28
M  V30 67 1 63 28
M  V30 68 1 64 31
M  V30 69 1 65 32
M  V30 70 1 66 24
M  V30 END BOND
M  V30 END CTAB
M  END
>  <b_m_subgroup_collapsed>  (1345) 
0

>  <r_i_docking_score>  (1345) 
-7.2353455740963701

>  <s_m_subgroup_title>  (1345) 
glide-dock_SP_D22_pv

>  <s_m_subgroupid>  (1345) 
glide-dock_SP_D22_pv

>  <Molecule ChEMBL ID>  (1345) 
CHEMBL2031876

>  <Standard Type>  (1345) 
Ki

>  <Standard Value>  (1345) 
10000.0

>  <label>  (1345) 
0

$$$$
CHEMBL2062854
     RDKit          3D

  0  0  0  0  0  0  0  0  0  0999 V3000
M  V30 BEGIN CTAB
M  V30 COUNTS 52 55 0 0 1
M  V30 BEGIN ATOM
M  V30 1 C 11.912806 8.670813 -10.081123 0
M  V30 2 C 11.122247 7.372250 -10.152430 0 CFG=2
M  V30 3 C 10.334784 7.231614 -11.472815 0 CFG=2
M  V30 4 C 8.892952 7.133120 -11.046960 0 CFG=2
M  V30 5 C 8.930866 6.619879 -9.621336 0
M  V30 6 N 10.112146 7.276133 -9.051132 0 CFG=1 CHG=1
M  V30 7 C 10.514443 6.665008 -7.754612 0
M  V30 8 C 10.912151 7.645137 -6.655418 0
M  V30 9 C 11.286032 7.118722 -5.399716 0
M  V30 10 C 11.686023 7.970577 -4.351034 0
M  V30 11 C 11.685792 9.364791 -4.539265 0
M  V30 12 C 11.286114 9.901952 -5.777380 0
M  V30 13 C 10.897529 9.048859 -6.829479 0
M  V30 14 C 8.590150 6.229529 -12.241193 0 CFG=2
M  V30 15 C 7.513562 5.154034 -12.124888 0
M  V30 16 O 6.252190 5.772625 -12.246864 0
M  V30 17 C 10.086015 5.881369 -12.214625 0 CFG=1
M  V30 18 N 10.655972 5.772323 -13.581662 0 CHG=1
M  V30 19 C 12.086027 6.103476 -13.730490 0
M  V30 20 C 12.493452 5.460133 -15.050934 0
M  V30 21 C 11.689322 4.162559 -15.066245 0
M  V30 22 C 10.427540 4.467575 -14.246975 0
M  V30 23 H 12.609421 8.745538 -10.916821 0
M  V30 24 H 11.263942 9.545545 -10.118695 0
M  V30 25 H 12.504555 8.729094 -9.167224 0
M  V30 26 H 11.837996 6.572326 -10.063771 0
M  V30 27 H 10.469460 8.060031 -12.170808 0
M  V30 28 H 8.458426 8.127633 -11.131529 0
M  V30 29 H 8.086021 6.909197 -9.019497 0
M  V30 30 H 9.029300 5.533992 -9.578091 0
M  V30 31 H 9.662605 6.120178 -7.341939 0
M  V30 32 H 11.285985 5.912561 -7.896929 0
M  V30 33 H 11.286992 6.050608 -5.237419 0
M  V30 34 H 11.983541 7.553683 -3.399600 0
M  V30 35 H 11.983449 10.019111 -3.732295 0
M  V30 36 H 11.278866 10.972241 -5.920591 0
M  V30 37 H 10.593804 9.497612 -7.761011 0
M  V30 38 H 8.381529 6.872996 -13.096103 0
M  V30 39 H 7.564279 4.620793 -11.175311 0
M  V30 40 H 7.614419 4.411160 -12.916296 0
M  V30 41 H 6.155177 6.412320 -11.544338 0
M  V30 42 H 10.287009 5.008728 -11.593138 0
M  V30 43 H 12.263184 7.179589 -13.719958 0
M  V30 44 H 12.662256 5.658902 -12.921330 0
M  V30 45 H 12.191944 6.096113 -15.884789 0
M  V30 46 H 13.569193 5.294892 -15.126825 0
M  V30 47 H 11.462976 3.824918 -16.078373 0
M  V30 48 H 12.259934 3.372380 -14.577265 0
M  V30 49 H 10.245720 3.668452 -13.526059 0
M  V30 50 H 9.546098 4.541474 -14.884940 0
M  V30 51 H 10.175766 6.452225 -14.153784 0
M  V30 52 H 9.800125 8.214876 -8.849444 0
M  V30 END ATOM
M  V30 BEGIN BOND
M  V30 1 1 2 1
M  V30 2 1 3 2
M  V30 3 1 4 3
M  V30 4 1 5 4
M  V30 5 1 6 2
M  V30 6 1 6 5
M  V30 7 1 7 6
M  V30 8 1 8 7
M  V30 9 2 9 8
M  V30 10 1 10 9
M  V30 11 2 11 10
M  V30 12 1 12 11
M  V30 13 1 13 8
M  V30 14 2 13 12
M  V30 15 1 14 4
M  V30 16 1 15 14
M  V30 17 1 16 15
M  V30 18 1 17 3
M  V30 19 1 17 14
M  V30 20 1 18 17
M  V30 21 1 19 18
M  V30 22 1 20 19
M  V30 23 1 21 20
M  V30 24 1 22 18
M  V30 25 1 22 21
M  V30 26 1 23 1
M  V30 27 1 24 1
M  V30 28 1 25 1
M  V30 29 1 2 26 CFG=1
M  V30 30 1 3 27 CFG=3
M  V30 31 1 4 28 CFG=1
M  V30 32 1 29 5
M  V30 33 1 30 5
M  V30 34 1 31 7
M  V30 35 1 32 7
M  V30 36 1 33 9
M  V30 37 1 34 10
M  V30 38 1 35 11
M  V30 39 1 36 12
M  V30 40 1 37 13
M  V30 41 1 14 38 CFG=3
M  V30 42 1 39 15
M  V30 43 1 40 15
M  V30 44 1 41 16
M  V30 45 1 17 42 CFG=1
M  V30 46 1 43 19
M  V30 47 1 44 19
M  V30 48 1 45 20
M  V30 49 1 46 20
M  V30 50 1 47 21
M  V30 51 1 48 21
M  V30 52 1 49 22
M  V30 53 1 50 22
M  V30 54 1 51 18
M  V30 55 1 6 52 CFG=1
M  V30 END BOND
M  V30 END CTAB
M  END
>  <b_m_subgroup_collapsed>  (1346) 
0

>  <r_i_docking_score>  (1346) 
-7.2329460028777204

>  <s_m_subgroup_title>  (1346) 
glide-dock_SP_D22_pv

>  <s_m_subgroupid>  (1346) 
glide-dock_SP_D22_pv

>  <Molecule ChEMBL ID>  (1346) 
CHEMBL2062854

>  <Standard Type>  (1346) 
Ki

>  <Standard Value>  (1346) 
66000.0

>  <label>  (1346) 
0

$$$$
CHEMBL5830481
     RDKit          3D

  0  0  0  0  0  0  0  0  0  0999 V3000
M  V30 BEGIN CTAB
M  V30 COUNTS 59 63 0 0 1
M  V30 BEGIN ATOM
M  V30 1 C 11.346613 10.143147 -6.583927 0
M  V30 2 N 11.066384 8.739116 -6.728941 0
M  V30 3 C 10.611711 8.075955 -7.818226 0
M  V30 4 S 10.215919 8.875079 -9.348455 0
M  V30 5 C 10.563725 7.550808 -10.549532 0
M  V30 6 C 9.347500 6.645388 -10.820690 0
M  V30 7 C 9.581527 5.698273 -12.014878 0
M  V30 8 N 8.473407 4.737134 -12.241495 0 CFG=1 CHG=1
M  V30 9 C 7.210860 5.333878 -12.713993 0
M  V30 10 C 6.456173 4.187518 -13.396646 0
M  V30 11 C 7.508306 3.175412 -13.812023 0 CFG=1
M  V30 12 C 7.144958 1.698364 -13.847056 0
M  V30 13 C 7.455517 2.405288 -15.130389 0 CFG=2
M  V30 14 C 8.686584 2.100333 -15.944110 0
M  V30 15 C 9.310867 3.129621 -16.680838 0
M  V30 16 C 10.421354 2.857334 -17.503254 0
M  V30 17 C 10.929987 1.546558 -17.604088 0
M  V30 18 C 12.095867 1.258119 -18.537485 0
M  V30 19 F 12.487833 -0.014090 -18.460592 0
M  V30 20 F 11.722865 1.507353 -19.792168 0
M  V30 21 F 13.126882 2.046191 -18.236200 0
M  V30 22 C 10.325901 0.517314 -16.853411 0
M  V30 23 C 9.215977 0.791453 -16.033644 0
M  V30 24 F 8.655488 -0.227662 -15.347163 0
M  V30 25 C 8.814511 3.669123 -13.209654 0
M  V30 26 N 10.496940 6.767814 -7.620823 0
M  V30 27 N 10.891325 6.572095 -6.324156 0
M  V30 28 C 11.216795 7.760319 -5.815454 0
M  V30 29 C 11.685745 7.901892 -4.427568 0
M  V30 30 C 11.860709 6.755158 -3.633861 0
M  V30 31 C 12.265102 6.944567 -2.308659 0
M  V30 32 N 12.485977 8.172313 -1.811308 0
M  V30 33 C 12.285078 9.193948 -2.635515 0
M  V30 34 N 11.900049 9.129690 -3.906509 0
M  V30 35 H 11.286063 10.572398 -7.558158 0
M  V30 36 H 10.618732 10.611976 -5.921422 0
M  V30 37 H 12.360798 10.298664 -6.212226 0
M  V30 38 H 10.857018 8.041828 -11.478242 0
M  V30 39 H 11.428286 6.970858 -10.225522 0
M  V30 40 H 9.098868 6.072165 -9.925185 0
M  V30 41 H 8.486160 7.280009 -11.030316 0
M  V30 42 H 9.755235 6.276483 -12.923654 0
M  V30 43 H 10.485540 5.118023 -11.846559 0
M  V30 44 H 6.643243 5.783732 -11.897152 0
M  V30 45 H 7.433525 6.113908 -13.441780 0
M  V30 46 H 5.773236 3.717422 -12.688464 0
M  V30 47 H 5.864473 4.527361 -14.245949 0
M  V30 48 H 7.867758 0.980176 -13.461561 0
M  V30 49 H 6.104839 1.439088 -13.660989 0
M  V30 50 H 6.609145 2.572108 -15.793906 0
M  V30 51 H 8.926448 4.136817 -16.631256 0
M  V30 52 H 10.876669 3.654082 -18.075092 0
M  V30 53 H 10.691368 -0.496813 -16.912855 0
M  V30 54 H 9.434862 4.080724 -14.007470 0
M  V30 55 H 9.374399 2.866399 -12.731956 0
M  V30 56 H 11.680254 5.771825 -4.027216 0
M  V30 57 H 12.431686 6.103724 -1.652020 0
M  V30 58 H 12.454740 10.172908 -2.227313 0
M  V30 59 H 8.266282 4.282500 -11.361673 0
M  V30 END ATOM
M  V30 BEGIN BOND
M  V30 1 1 2 1
M  V30 2 1 3 2
M  V30 3 1 4 3
M  V30 4 1 5 4
M  V30 5 1 6 5
M  V30 6 1 7 6
M  V30 7 1 8 7
M  V30 8 1 9 8
M  V30 9 1 10 9
M  V30 10 1 11 10 CFG=3
M  V30 11 1 12 11
M  V30 12 1 13 11
M  V30 13 1 13 12
M  V30 14 1 14 13
M  V30 15 1 15 14
M  V30 16 2 16 15
M  V30 17 1 17 16
M  V30 18 1 18 17
M  V30 19 1 19 18
M  V30 20 1 20 18
M  V30 21 1 21 18
M  V30 22 2 22 17
M  V30 23 2 23 14
M  V30 24 1 23 22
M  V30 25 1 24 23
M  V30 26 1 25 8
M  V30 27 1 25 11
M  V30 28 2 26 3
M  V30 29 1 27 26
M  V30 30 1 28 2
M  V30 31 2 28 27
M  V30 32 1 29 28
M  V30 33 1 30 29
M  V30 34 2 31 30
M  V30 35 1 32 31
M  V30 36 2 33 32
M  V30 37 2 34 29
M  V30 38 1 34 33
M  V30 39 1 35 1
M  V30 40 1 36 1
M  V30 41 1 37 1
M  V30 42 1 38 5
M  V30 43 1 39 5
M  V30 44 1 40 6
M  V30 45 1 41 6
M  V30 46 1 42 7
M  V30 47 1 43 7
M  V30 48 1 44 9
M  V30 49 1 45 9
M  V30 50 1 46 10
M  V30 51 1 47 10
M  V30 52 1 48 12
M  V30 53 1 49 12
M  V30 54 1 13 50 CFG=3
M  V30 55 1 51 15
M  V30 56 1 52 16
M  V30 57 1 53 22
M  V30 58 1 54 25
M  V30 59 1 55 25
M  V30 60 1 56 30
M  V30 61 1 57 31
M  V30 62 1 58 33
M  V30 63 1 8 59 CFG=1
M  V30 END BOND
M  V30 END CTAB
M  END
>  <b_m_subgroup_collapsed>  (1347) 
0

>  <r_i_docking_score>  (1347) 
-7.2317702065960203

>  <s_m_subgroup_title>  (1347) 
glide-dock_SP_D22_pv

>  <s_m_subgroupid>  (1347) 
glide-dock_SP_D22_pv

>  <Molecule ChEMBL ID>  (1347) 
CHEMBL5830481

>  <Standard Type>  (1347) 
Ki

>  <Standard Value>  (1347) 
81.3

>  <label>  (1347) 
1

$$$$
CHEMBL5976926
     RDKit          3D

  0  0  0  0  0  0  0  0  0  0999 V3000
M  V30 BEGIN CTAB
M  V30 COUNTS 41 43 0 0 1
M  V30 BEGIN ATOM
M  V30 1 C 9.522342 5.530520 -12.803007 0
M  V30 2 C 8.565214 6.306706 -11.880309 0 CFG=1
M  V30 3 O 7.510776 6.840706 -12.647053 0
M  V30 4 C 7.906322 5.358977 -10.865043 0
M  V30 5 C 8.790508 5.076576 -9.644342 0
M  V30 6 N 9.284563 6.330132 -9.018278 0 CFG=1 CHG=1
M  V30 7 C 9.977866 6.021727 -7.739197 0
M  V30 8 C 10.674620 7.191599 -7.025125 0 CFG=1
M  V30 9 C 9.744497 8.379770 -6.718451 0
M  V30 10 O 10.486579 9.372251 -6.022485 0
M  V30 11 C 11.172140 8.890033 -4.934219 0
M  V30 12 C 11.518094 9.772154 -3.897197 0
M  V30 13 C 12.129412 9.287145 -2.726861 0
M  V30 14 C 12.411243 7.915862 -2.594539 0
M  V30 15 C 12.085930 7.029132 -3.636686 0
M  V30 16 C 11.474198 7.512263 -4.810487 0
M  V30 17 O 11.147842 6.624701 -5.805491 0
M  V30 18 C 10.089520 7.124561 -9.985033 0
M  V30 19 C 9.242016 7.516039 -11.200197 0
M  V30 20 H 10.314052 5.044362 -12.233088 0
M  V30 21 H 8.993475 4.750311 -13.352341 0
M  V30 22 H 10.001926 6.172045 -13.538183 0
M  V30 23 H 6.912492 7.270689 -12.039071 0
M  V30 24 H 6.959606 5.772207 -10.535321 0
M  V30 25 H 7.634892 4.417835 -11.345460 0
M  V30 26 H 8.214405 4.501376 -8.917642 0
M  V30 27 H 9.639245 4.454051 -9.933338 0
M  V30 28 H 9.247520 5.595956 -7.048491 0
M  V30 29 H 10.727606 5.253226 -7.926125 0
M  V30 30 H 11.539355 7.529490 -7.598458 0
M  V30 31 H 9.350179 8.825279 -7.631185 0
M  V30 32 H 8.885003 8.059959 -6.130780 0
M  V30 33 H 11.276698 10.819631 -3.985512 0
M  V30 34 H 12.375230 9.965213 -1.923436 0
M  V30 35 H 12.871386 7.545670 -1.690989 0
M  V30 36 H 12.293712 5.974719 -3.529968 0
M  V30 37 H 10.451114 8.045675 -9.531354 0
M  V30 38 H 10.973421 6.570837 -10.295532 0
M  V30 39 H 9.850057 8.063504 -11.921957 0
M  V30 40 H 8.488215 8.228117 -10.861715 0
M  V30 41 H 8.458055 6.877792 -8.798627 0
M  V30 END ATOM
M  V30 BEGIN BOND
M  V30 1 1 2 1
M  V30 2 1 2 3 CFG=3
M  V30 3 1 4 2
M  V30 4 1 5 4
M  V30 5 1 6 5
M  V30 6 1 7 6
M  V30 7 1 8 7
M  V30 8 1 9 8
M  V30 9 1 10 9
M  V30 10 1 11 10
M  V30 11 2 12 11
M  V30 12 1 13 12
M  V30 13 2 14 13
M  V30 14 1 15 14
M  V30 15 1 16 11
M  V30 16 2 16 15
M  V30 17 1 17 8
M  V30 18 1 17 16
M  V30 19 1 18 6
M  V30 20 1 19 2
M  V30 21 1 19 18
M  V30 22 1 20 1
M  V30 23 1 21 1
M  V30 24 1 22 1
M  V30 25 1 23 3
M  V30 26 1 24 4
M  V30 27 1 25 4
M  V30 28 1 26 5
M  V30 29 1 27 5
M  V30 30 1 28 7
M  V30 31 1 29 7
M  V30 32 1 8 30 CFG=3
M  V30 33 1 31 9
M  V30 34 1 32 9
M  V30 35 1 33 12
M  V30 36 1 34 13
M  V30 37 1 35 14
M  V30 38 1 36 15
M  V30 39 1 37 18
M  V30 40 1 38 18
M  V30 41 1 39 19
M  V30 42 1 40 19
M  V30 43 1 6 41 CFG=1
M  V30 END BOND
M  V30 END CTAB
M  END
>  <b_m_subgroup_collapsed>  (1348) 
0

>  <r_i_docking_score>  (1348) 
-7.2312122126637401

>  <s_m_subgroup_title>  (1348) 
glide-dock_SP_D22_pv

>  <s_m_subgroupid>  (1348) 
glide-dock_SP_D22_pv

>  <Molecule ChEMBL ID>  (1348) 
CHEMBL5976926

>  <Standard Type>  (1348) 
Ki

>  <Standard Value>  (1348) 
20000.0

>  <label>  (1348) 
0

$$$$
CHEMBL593626
     RDKit          3D

  0  0  0  0  0  0  0  0  0  0999 V3000
M  V30 BEGIN CTAB
M  V30 COUNTS 37 40 0 0 1
M  V30 BEGIN ATOM
M  V30 1 O 13.321292 5.589121 -15.090693 0
M  V30 2 C 12.035443 5.272812 -14.778284 0
M  V30 3 C 11.209476 4.672017 -15.743827 0
M  V30 4 C 9.881247 4.339579 -15.422435 0
M  V30 5 C 9.372393 4.558304 -14.120514 0
M  V30 6 C 10.196295 5.216329 -13.173995 0
M  V30 7 C 11.521749 5.566868 -13.502056 0
M  V30 8 C 9.630347 5.609158 -11.824821 0
M  V30 9 C 8.129190 5.878815 -11.933420 0
M  V30 10 N 7.452399 4.670825 -12.446800 0 CFG=1 CHG=1
M  V30 11 C 5.977839 4.775408 -12.426443 0
M  V30 12 C 5.335583 3.391909 -12.630523 0
M  V30 13 C 6.132183 2.429881 -13.499580 0
M  V30 14 C 5.640597 1.117133 -13.666631 0
M  V30 15 C 6.402807 0.150741 -14.343458 0
M  V30 16 C 7.676268 0.487106 -14.831069 0
M  V30 17 C 8.181849 1.789007 -14.655820 0
M  V30 18 C 7.409165 2.787653 -14.013541 0
M  V30 19 C 7.906167 4.224916 -13.793674 0 CFG=2
M  V30 20 H 13.840234 5.886677 -14.353163 0
M  V30 21 H 11.589561 4.473297 -16.735903 0
M  V30 22 H 9.255253 3.904979 -16.186405 0
M  V30 23 H 12.144132 6.079211 -12.782100 0
M  V30 24 H 9.822803 4.803455 -11.113471 0
M  V30 25 H 10.141567 6.496505 -11.448179 0
M  V30 26 H 7.733110 6.142399 -10.951849 0
M  V30 27 H 7.933748 6.722060 -12.597092 0
M  V30 28 H 5.632754 5.202865 -11.482447 0
M  V30 29 H 5.655658 5.462448 -13.208758 0
M  V30 30 H 5.237686 2.916195 -11.654500 0
M  V30 31 H 4.331029 3.500415 -13.041607 0
M  V30 32 H 4.678406 0.845412 -13.257751 0
M  V30 33 H 6.023320 -0.853256 -14.469977 0
M  V30 34 H 8.272381 -0.260576 -15.334253 0
M  V30 35 H 9.178868 1.976474 -15.014359 0
M  V30 36 H 7.368320 4.835567 -14.513351 0
M  V30 37 H 7.700626 3.930982 -11.803166 0
M  V30 END ATOM
M  V30 BEGIN BOND
M  V30 1 1 2 1
M  V30 2 1 3 2
M  V30 3 2 4 3
M  V30 4 1 5 4
M  V30 5 2 6 5
M  V30 6 2 7 2
M  V30 7 1 7 6
M  V30 8 1 8 6
M  V30 9 1 9 8
M  V30 10 1 10 9
M  V30 11 1 11 10
M  V30 12 1 12 11
M  V30 13 1 13 12
M  V30 14 2 14 13
M  V30 15 1 15 14
M  V30 16 2 16 15
M  V30 17 1 17 16
M  V30 18 1 18 13
M  V30 19 2 18 17
M  V30 20 1 19 5
M  V30 21 1 19 10
M  V30 22 1 19 18
M  V30 23 1 20 1
M  V30 24 1 21 3
M  V30 25 1 22 4
M  V30 26 1 23 7
M  V30 27 1 24 8
M  V30 28 1 25 8
M  V30 29 1 26 9
M  V30 30 1 27 9
M  V30 31 1 28 11
M  V30 32 1 29 11
M  V30 33 1 30 12
M  V30 34 1 31 12
M  V30 35 1 32 14
M  V30 36 1 33 15
M  V30 37 1 34 16
M  V30 38 1 35 17
M  V30 39 1 19 36 CFG=3
M  V30 40 1 10 37 CFG=1
M  V30 END BOND
M  V30 END CTAB
M  END
>  <b_m_subgroup_collapsed>  (1349) 
0

>  <r_i_docking_score>  (1349) 
-7.2292973457978897

>  <s_m_subgroup_title>  (1349) 
glide-dock_SP_D22_pv

>  <s_m_subgroupid>  (1349) 
glide-dock_SP_D22_pv

>  <Molecule ChEMBL ID>  (1349) 
CHEMBL593626

>  <Standard Type>  (1349) 
Ki

>  <Standard Value>  (1349) 
10000.0

>  <label>  (1349) 
0

$$$$
CHEMBL3664887
     RDKit          3D

  0  0  0  0  0  0  0  0  0  0999 V3000
M  V30 BEGIN CTAB
M  V30 COUNTS 65 68 0 0 1
M  V30 BEGIN ATOM
M  V30 1 C 6.552940 0.292367 -17.712328 0
M  V30 2 N 6.089187 -0.136793 -16.386112 0
M  V30 3 C 5.157774 -1.269736 -16.380688 0
M  V30 4 C 6.482583 0.436640 -15.222605 0
M  V30 5 O 6.187114 -0.016010 -14.116610 0
M  V30 6 N 7.153078 1.594773 -15.367802 0
M  V30 7 C 7.533057 2.467696 -14.260738 0 CFG=1
M  V30 8 C 8.792097 3.288057 -14.573926 0
M  V30 9 C 9.178383 4.176896 -13.379228 0
M  V30 10 C 8.020969 5.118154 -12.982096 0 CFG=2
M  V30 11 C 8.411052 6.113481 -11.866427 0
M  V30 12 C 8.463997 5.484014 -10.462198 0
M  V30 13 N 8.928449 6.406896 -9.393012 0 CFG=2 CHG=1
M  V30 14 C 10.383644 6.682311 -9.503186 0
M  V30 15 C 10.898529 7.631350 -8.411182 0
M  V30 16 C 10.573379 7.100127 -7.002378 0 CFG=1
M  V30 17 C 11.016718 8.026946 -5.879292 0
M  V30 18 C 10.884046 9.431273 -6.002568 0
M  V30 19 C 11.210114 10.283056 -4.930664 0
M  V30 20 C 11.686525 9.762934 -3.707346 0
M  V30 21 C 11.828024 8.377237 -3.600989 0
M  V30 22 C 11.504133 7.533818 -4.646046 0
M  V30 23 O 11.687266 6.251922 -4.234004 0
M  V30 24 C 12.064875 6.321304 -2.875251 0
M  V30 25 O 12.224835 7.662847 -2.519014 0
M  V30 26 C 9.066133 6.838836 -6.919659 0
M  V30 27 C 8.590207 5.893118 -8.035970 0
M  V30 28 C 6.741857 4.306623 -12.670703 0
M  V30 29 C 6.356041 3.366676 -13.819728 0
M  V30 30 H 7.635946 0.415697 -17.733259 0
M  V30 31 H 6.306660 -0.433474 -18.487803 0
M  V30 32 H 6.093222 1.242550 -17.987782 0
M  V30 33 H 4.380383 -1.146349 -15.624757 0
M  V30 34 H 4.642902 -1.386451 -17.338184 0
M  V30 35 H 5.685994 -2.200040 -16.162689 0
M  V30 36 H 7.366437 1.900602 -16.303631 0
M  V30 37 H 7.811195 1.812137 -13.446950 0
M  V30 38 H 8.635988 3.910968 -15.448729 0
M  V30 39 H 9.620105 2.620739 -14.817250 0
M  V30 40 H 10.065126 4.758961 -13.635736 0
M  V30 41 H 9.461396 3.541484 -12.539152 0
M  V30 42 H 7.808592 5.742056 -13.846922 0
M  V30 43 H 7.689095 6.931170 -11.847861 0
M  V30 44 H 9.360074 6.573207 -12.141394 0
M  V30 45 H 9.061532 4.573021 -10.454188 0
M  V30 46 H 7.443706 5.190810 -10.247037 0
M  V30 47 H 10.637843 7.103038 -10.476287 0
M  V30 48 H 10.886320 5.723121 -9.427525 0
M  V30 49 H 10.436065 8.601130 -8.589093 0
M  V30 50 H 11.975652 7.773080 -8.515999 0
M  V30 51 H 11.104551 6.156636 -6.871138 0
M  V30 52 H 10.496199 9.879177 -6.902956 0
M  V30 53 H 11.088974 11.351530 -5.045775 0
M  V30 54 H 11.929663 10.411933 -2.876486 0
M  V30 55 H 12.985457 5.775525 -2.663225 0
M  V30 56 H 11.273213 5.894663 -2.258526 0
M  V30 57 H 8.839592 6.400554 -5.949401 0
M  V30 58 H 8.513515 7.777846 -6.976788 0
M  V30 59 H 7.515548 5.771143 -7.948336 0
M  V30 60 H 9.030421 4.905249 -7.882290 0
M  V30 61 H 6.885428 3.702424 -11.778644 0
M  V30 62 H 5.912801 4.983849 -12.457151 0
M  V30 63 H 6.004465 3.976951 -14.646898 0
M  V30 64 H 5.507677 2.752500 -13.517342 0
M  V30 65 H 8.405801 7.267731 -9.517175 0
M  V30 END ATOM
M  V30 BEGIN BOND
M  V30 1 1 2 1
M  V30 2 1 3 2
M  V30 3 1 4 2
M  V30 4 2 5 4
M  V30 5 1 6 4
M  V30 6 1 7 6
M  V30 7 1 8 7
M  V30 8 1 9 8
M  V30 9 1 10 9
M  V30 10 1 11 10
M  V30 11 1 12 11
M  V30 12 1 13 12
M  V30 13 1 14 13
M  V30 14 1 15 14
M  V30 15 1 16 15
M  V30 16 1 17 16
M  V30 17 2 18 17
M  V30 18 1 19 18
M  V30 19 2 20 19
M  V30 20 1 21 20
M  V30 21 1 22 17
M  V30 22 2 22 21
M  V30 23 1 23 22
M  V30 24 1 24 23
M  V30 25 1 25 21
M  V30 26 1 25 24
M  V30 27 1 26 16
M  V30 28 1 27 13
M  V30 29 1 27 26
M  V30 30 1 28 10
M  V30 31 1 29 7
M  V30 32 1 29 28
M  V30 33 1 30 1
M  V30 34 1 31 1
M  V30 35 1 32 1
M  V30 36 1 33 3
M  V30 37 1 34 3
M  V30 38 1 35 3
M  V30 39 1 36 6
M  V30 40 1 7 37 CFG=1
M  V30 41 1 38 8
M  V30 42 1 39 8
M  V30 43 1 40 9
M  V30 44 1 41 9
M  V30 45 1 10 42 CFG=3
M  V30 46 1 43 11
M  V30 47 1 44 11
M  V30 48 1 45 12
M  V30 49 1 46 12
M  V30 50 1 47 14
M  V30 51 1 48 14
M  V30 52 1 49 15
M  V30 53 1 50 15
M  V30 54 1 16 51 CFG=1
M  V30 55 1 52 18
M  V30 56 1 53 19
M  V30 57 1 54 20
M  V30 58 1 55 24
M  V30 59 1 56 24
M  V30 60 1 57 26
M  V30 61 1 58 26
M  V30 62 1 59 27
M  V30 63 1 60 27
M  V30 64 1 61 28
M  V30 65 1 62 28
M  V30 66 1 63 29
M  V30 67 1 64 29
M  V30 68 1 13 65 CFG=3
M  V30 END BOND
M  V30 END CTAB
M  END
>  <b_m_subgroup_collapsed>  (1350) 
0

>  <r_i_docking_score>  (1350) 
-7.2277835955053904

>  <s_m_subgroup_title>  (1350) 
glide-dock_SP_D22_pv

>  <s_m_subgroupid>  (1350) 
glide-dock_SP_D22_pv

>  <Molecule ChEMBL ID>  (1350) 
CHEMBL3664887

>  <Standard Type>  (1350) 
Ki

>  <Standard Value>  (1350) 
52.74

>  <label>  (1350) 
1

$$$$
CHEMBL5191370
     RDKit          3D

  0  0  0  0  0  0  0  0  0  0999 V3000
M  V30 BEGIN CTAB
M  V30 COUNTS 30 31 0 0 1
M  V30 BEGIN ATOM
M  V30 1 N 8.085952 6.572203 -11.846819 0
M  V30 2 C 8.951523 5.852095 -11.137953 0
M  V30 3 O 9.287139 4.724337 -11.489912 0
M  V30 4 N 9.285975 6.414194 -9.959739 0
M  V30 5 C 9.528632 5.575355 -8.779986 0
M  V30 6 C 9.517347 6.419827 -7.495907 0
M  V30 7 N 10.544038 7.453989 -7.551692 0
M  V30 8 C 10.907813 8.090402 -6.349647 0
M  V30 9 C 10.905643 9.498537 -6.231616 0
M  V30 10 C 11.286110 10.121803 -5.030975 0
M  V30 11 C 11.686281 9.347406 -3.926650 0
M  V30 12 C 11.686046 7.943055 -4.024395 0
M  V30 13 Cl 12.099123 6.981359 -2.652277 0
M  V30 14 C 11.286186 7.320274 -5.224496 0
M  V30 15 C 10.837548 8.050280 -8.856946 0
M  V30 16 C 9.686068 7.833850 -9.861588 0
M  V30 17 H 7.724819 6.198866 -12.707627 0
M  V30 18 H 7.561572 7.291431 -11.330781 0
M  V30 19 H 10.483493 5.059082 -8.887857 0
M  V30 20 H 8.757337 4.805882 -8.709985 0
M  V30 21 H 9.665319 5.772342 -6.637415 0
M  V30 22 H 8.541680 6.892807 -7.366749 0
M  V30 23 H 10.590465 10.126718 -7.046891 0
M  V30 24 H 11.274549 11.198808 -4.966232 0
M  V30 25 H 11.974735 9.829082 -3.003234 0
M  V30 26 H 11.295771 6.241319 -5.277487 0
M  V30 27 H 11.072455 9.110742 -8.796110 0
M  V30 28 H 11.738562 7.570593 -9.240509 0
M  V30 29 H 9.988655 8.223872 -10.834960 0
M  V30 30 H 8.817047 8.415079 -9.551551 0
M  V30 END ATOM
M  V30 BEGIN BOND
M  V30 1 1 2 1
M  V30 2 2 3 2
M  V30 3 1 4 2
M  V30 4 1 5 4
M  V30 5 1 6 5
M  V30 6 1 7 6
M  V30 7 1 8 7
M  V30 8 2 9 8
M  V30 9 1 10 9
M  V30 10 2 11 10
M  V30 11 1 12 11
M  V30 12 1 13 12
M  V30 13 1 14 8
M  V30 14 2 14 12
M  V30 15 1 15 7
M  V30 16 1 16 4
M  V30 17 1 16 15
M  V30 18 1 17 1
M  V30 19 1 18 1
M  V30 20 1 19 5
M  V30 21 1 20 5
M  V30 22 1 21 6
M  V30 23 1 22 6
M  V30 24 1 23 9
M  V30 25 1 24 10
M  V30 26 1 25 11
M  V30 27 1 26 14
M  V30 28 1 27 15
M  V30 29 1 28 15
M  V30 30 1 29 16
M  V30 31 1 30 16
M  V30 END BOND
M  V30 END CTAB
M  END
>  <b_m_subgroup_collapsed>  (1351) 
0

>  <r_i_docking_score>  (1351) 
-7.2273856454607097

>  <s_m_subgroup_title>  (1351) 
glide-dock_SP_D22_pv

>  <s_m_subgroupid>  (1351) 
glide-dock_SP_D22_pv

>  <Molecule ChEMBL ID>  (1351) 
CHEMBL5191370

>  <Standard Type>  (1351) 
Ki

>  <Standard Value>  (1351) 
115900.0

>  <label>  (1351) 
0

$$$$
CHEMBL5647307
     RDKit          3D

  0  0  0  0  0  0  0  0  0  0999 V3000
M  V30 BEGIN CTAB
M  V30 COUNTS 78 81 0 0 1
M  V30 BEGIN ATOM
M  V30 1 C 5.958474 1.001689 -13.853140 0
M  V30 2 C 7.165272 1.037839 -14.439780 0
M  V30 3 C 7.753870 2.241229 -15.149826 0
M  V30 4 N 8.797395 2.852338 -14.296205 0 CFG=2 CHG=1
M  V30 5 C 8.320143 3.822868 -13.302883 0
M  V30 6 C 9.621519 4.298331 -12.656063 0 CFG=2
M  V30 7 O 9.528551 5.598882 -12.092847 0
M  V30 8 C 9.290277 5.720235 -10.779162 0
M  V30 9 O 8.912551 4.795568 -10.059520 0
M  V30 10 N 9.619069 7.009735 -10.389954 0
M  V30 11 C 9.955956 7.380549 -9.065296 0
M  V30 12 C 10.996884 8.312947 -8.874916 0
M  V30 13 C 11.433387 8.631133 -7.573546 0
M  V30 14 C 10.832747 8.017109 -6.454987 0
M  V30 15 C 11.322568 8.284189 -5.108232 0
M  V30 16 C 11.685674 7.211824 -4.233670 0
M  V30 17 C 12.108546 7.637442 -3.004486 0
M  V30 18 S 12.086082 9.372244 -2.889313 0
M  V30 19 C 11.507157 9.510252 -4.524684 0
M  V30 20 C 9.752648 7.133790 -6.645864 0
M  V30 21 C 9.299803 6.830750 -7.940682 0
M  V30 22 C 10.656459 4.248393 -13.792413 0
M  V30 23 C 9.971727 3.480630 -14.945912 0 CFG=2
M  V30 24 C 9.604238 4.445514 -16.101871 0
M  V30 25 N 10.807250 4.871186 -16.810551 0
M  V30 26 C 11.316824 4.233487 -17.876324 0
M  V30 27 O 10.779035 3.237645 -18.361422 0
M  V30 28 C 12.614236 4.787068 -18.415884 0
M  V30 29 C 12.869942 6.175715 -18.322245 0
M  V30 30 C 14.055540 6.723851 -18.841562 0
M  V30 31 C 14.339115 8.208568 -18.708879 0
M  V30 32 C 13.931938 8.989020 -19.964863 0
M  V30 33 C 14.426502 10.438812 -19.947544 0
M  V30 34 F 15.757893 10.471217 -19.961582 0
M  V30 35 C 14.981999 5.892916 -19.495663 0
M  V30 36 C 14.748154 4.502391 -19.622816 0
M  V30 37 O 15.644711 3.654028 -20.243355 0
M  V30 38 C 16.749472 4.216422 -20.938902 0
M  V30 39 C 13.561551 3.947415 -19.068472 0
M  V30 40 O 13.328151 2.589713 -19.109526 0
M  V30 41 C 13.377688 1.970365 -20.387989 0
M  V30 42 H 5.304407 1.861546 -13.844294 0
M  V30 43 H 5.607709 0.103276 -13.365678 0
M  V30 44 H 7.783917 0.152388 -14.411683 0
M  V30 45 H 8.182885 1.891993 -16.090494 0
M  V30 46 H 6.977862 2.970569 -15.388544 0
M  V30 47 H 7.813030 4.649837 -13.802009 0
M  V30 48 H 7.611980 3.372890 -12.613141 0
M  V30 49 H 9.929787 3.565158 -11.908293 0
M  V30 50 H 9.906811 7.622098 -11.137775 0
M  V30 51 H 11.491882 8.760736 -9.723734 0
M  V30 52 H 12.255775 9.319185 -7.438746 0
M  V30 53 H 11.616397 6.175374 -4.532052 0
M  V30 54 H 12.429002 7.038633 -2.165725 0
M  V30 55 H 11.320148 10.484843 -4.950441 0
M  V30 56 H 9.268443 6.677488 -5.795611 0
M  V30 57 H 8.462277 6.157578 -8.052828 0
M  V30 58 H 10.963358 5.249373 -14.095789 0
M  V30 59 H 11.554893 3.738071 -13.449086 0
M  V30 60 H 10.615447 2.684875 -15.324178 0
M  V30 61 H 8.891578 3.998405 -16.800133 0
M  V30 62 H 9.116961 5.343615 -15.716190 0
M  V30 63 H 11.304119 5.677644 -16.462271 0
M  V30 64 H 12.158394 6.841042 -17.854021 0
M  V30 65 H 13.822355 8.610556 -17.836796 0
M  V30 66 H 15.404839 8.337925 -18.516775 0
M  V30 67 H 14.331279 8.498144 -20.852444 0
M  V30 68 H 12.846357 8.967934 -20.063105 0
M  V30 69 H 14.090109 10.972282 -20.834463 0
M  V30 70 H 14.087285 10.979734 -19.063643 0
M  V30 71 H 15.876336 6.350802 -19.890310 0
M  V30 72 H 17.303640 3.419213 -21.434889 0
M  V30 73 H 16.423937 4.919006 -21.707729 0
M  V30 74 H 17.437267 4.717060 -20.255772 0
M  V30 75 H 12.645712 1.164715 -20.419857 0
M  V30 76 H 13.144509 2.663920 -21.197874 0
M  V30 77 H 14.357375 1.528460 -20.571743 0
M  V30 78 H 9.185472 2.085790 -13.759257 0
M  V30 END ATOM
M  V30 BEGIN BOND
M  V30 1 2 2 1
M  V30 2 1 3 2
M  V30 3 1 4 3
M  V30 4 1 5 4
M  V30 5 1 6 5
M  V30 6 1 7 6
M  V30 7 1 8 7
M  V30 8 2 9 8
M  V30 9 1 10 8
M  V30 10 1 11 10
M  V30 11 1 12 11
M  V30 12 2 13 12
M  V30 13 1 14 13
M  V30 14 1 15 14
M  V30 15 1 16 15
M  V30 16 2 17 16
M  V30 17 1 18 17
M  V30 18 2 19 15
M  V30 19 1 19 18
M  V30 20 2 20 14
M  V30 21 2 21 11
M  V30 22 1 21 20
M  V30 23 1 22 6
M  V30 24 1 23 4
M  V30 25 1 23 22
M  V30 26 1 24 23
M  V30 27 1 25 24
M  V30 28 1 26 25
M  V30 29 2 27 26
M  V30 30 1 28 26
M  V30 31 2 29 28
M  V30 32 1 30 29
M  V30 33 1 31 30
M  V30 34 1 32 31
M  V30 35 1 33 32
M  V30 36 1 34 33
M  V30 37 2 35 30
M  V30 38 1 36 35
M  V30 39 1 37 36
M  V30 40 1 38 37
M  V30 41 1 39 28
M  V30 42 2 39 36
M  V30 43 1 40 39
M  V30 44 1 41 40
M  V30 45 1 42 1
M  V30 46 1 43 1
M  V30 47 1 44 2
M  V30 48 1 45 3
M  V30 49 1 46 3
M  V30 50 1 47 5
M  V30 51 1 48 5
M  V30 52 1 6 49 CFG=1
M  V30 53 1 50 10
M  V30 54 1 51 12
M  V30 55 1 52 13
M  V30 56 1 53 16
M  V30 57 1 54 17
M  V30 58 1 55 19
M  V30 59 1 56 20
M  V30 60 1 57 21
M  V30 61 1 58 22
M  V30 62 1 59 22
M  V30 63 1 23 60 CFG=3
M  V30 64 1 61 24
M  V30 65 1 62 24
M  V30 66 1 63 25
M  V30 67 1 64 29
M  V30 68 1 65 31
M  V30 69 1 66 31
M  V30 70 1 67 32
M  V30 71 1 68 32
M  V30 72 1 69 33
M  V30 73 1 70 33
M  V30 74 1 71 35
M  V30 75 1 72 38
M  V30 76 1 73 38
M  V30 77 1 74 38
M  V30 78 1 75 41
M  V30 79 1 76 41
M  V30 80 1 77 41
M  V30 81 1 4 78 CFG=1
M  V30 END BOND
M  V30 END CTAB
M  END
>  <b_m_subgroup_collapsed>  (1352) 
0

>  <r_i_docking_score>  (1352) 
-7.2253842953858696

>  <s_m_subgroup_title>  (1352) 
glide-dock_SP_D22_pv

>  <s_m_subgroupid>  (1352) 
glide-dock_SP_D22_pv

>  <Molecule ChEMBL ID>  (1352) 
CHEMBL5647307

>  <Standard Type>  (1352) 
Ki

>  <Standard Value>  (1352) 
41000.0

>  <label>  (1352) 
0

$$$$
CHEMBL4089290
     RDKit          3D

  0  0  0  0  0  0  0  0  0  0999 V3000
M  V30 BEGIN CTAB
M  V30 COUNTS 64 68 0 0 1
M  V30 BEGIN ATOM
M  V30 1 C 7.314711 1.691415 -20.243633 0
M  V30 2 O 6.886101 1.371165 -18.926481 0
M  V30 3 C 5.909516 0.407835 -18.759155 0
M  V30 4 C 5.162238 -0.086565 -19.858555 0
M  V30 5 C 4.205427 -1.099554 -19.690170 0
M  V30 6 C 3.962940 -1.629027 -18.416159 0
M  V30 7 C 4.683762 -1.142845 -17.311432 0
M  V30 8 C 5.661879 -0.125698 -17.459238 0
M  V30 9 N 6.387783 0.310589 -16.319839 0
M  V30 10 C 6.136552 -0.264942 -15.012775 0
M  V30 11 C 6.985066 0.565247 -14.066004 0
M  V30 12 C 7.013198 1.965343 -14.677219 0 CFG=2
M  V30 13 C 8.134421 2.910170 -14.242706 0
M  V30 14 N 7.221956 3.442496 -13.235980 0 CFG=1 CHG=1
M  V30 15 C 7.354209 4.875083 -12.917599 0
M  V30 16 C 8.688421 5.190952 -12.219374 0
M  V30 17 C 8.807143 6.690017 -11.904070 0
M  V30 18 S 10.470518 7.179424 -11.362383 0
M  V30 19 C 10.291253 6.979236 -9.612282 0
M  V30 20 N 9.537575 6.050205 -9.020141 0
M  V30 21 N 9.683090 6.270296 -7.668875 0
M  V30 22 C 10.512489 7.313028 -7.546782 0
M  V30 23 C 10.893820 7.857358 -6.242370 0
M  V30 24 C 11.285859 6.988160 -5.199885 0
M  V30 25 C 11.691890 7.508738 -3.955203 0
M  V30 26 C 11.689988 8.900173 -3.737082 0
M  V30 27 C 11.285596 9.771665 -4.765201 0
M  V30 28 C 10.885995 9.251450 -6.011221 0
M  V30 29 N 10.949771 7.770168 -8.742081 0
M  V30 30 C 11.888250 8.839957 -9.037019 0
M  V30 31 C 6.087798 3.025718 -14.052427 0
M  V30 32 C 6.885693 1.672801 -16.175598 0
M  V30 33 H 8.148421 2.389053 -20.191050 0
M  V30 34 H 7.662294 0.803290 -20.774790 0
M  V30 35 H 6.520278 2.172110 -20.817327 0
M  V30 36 H 5.307270 0.280802 -20.859865 0
M  V30 37 H 3.667906 -1.478090 -20.547691 0
M  V30 38 H 3.231195 -2.413700 -18.274935 0
M  V30 39 H 4.466937 -1.595502 -16.355099 0
M  V30 40 H 5.082227 -0.161487 -14.758304 0
M  V30 41 H 6.406358 -1.319318 -14.971745 0
M  V30 42 H 7.995134 0.154561 -14.018103 0
M  V30 43 H 6.579460 0.541752 -13.051776 0
M  V30 44 H 8.408788 3.642590 -15.003896 0
M  V30 45 H 9.015948 2.424390 -13.818810 0
M  V30 46 H 6.517276 5.174541 -12.282018 0
M  V30 47 H 7.288548 5.433554 -13.846742 0
M  V30 48 H 9.520920 4.898392 -12.863563 0
M  V30 49 H 8.780721 4.607851 -11.299312 0
M  V30 50 H 8.086246 6.972362 -11.141252 0
M  V30 51 H 8.556140 7.274965 -12.789454 0
M  V30 52 H 11.291435 5.919151 -5.359208 0
M  V30 53 H 11.993509 6.834910 -3.166053 0
M  V30 54 H 11.994560 9.297108 -2.778770 0
M  V30 55 H 11.275922 10.836007 -4.598617 0
M  V30 56 H 10.572332 9.928466 -6.791595 0
M  V30 57 H 12.476637 8.594561 -9.921789 0
M  V30 58 H 11.346577 9.768075 -9.213320 0
M  V30 59 H 12.585988 8.972218 -8.210022 0
M  V30 60 H 5.252194 2.629527 -13.470375 0
M  V30 61 H 5.754196 3.794215 -14.750026 0
M  V30 62 H 6.222675 2.385594 -16.670773 0
M  V30 63 H 7.856831 1.744426 -16.661491 0
M  V30 64 H 7.263976 2.880929 -12.397236 0
M  V30 END ATOM
M  V30 BEGIN BOND
M  V30 1 1 2 1
M  V30 2 1 3 2
M  V30 3 2 4 3
M  V30 4 1 5 4
M  V30 5 2 6 5
M  V30 6 1 7 6
M  V30 7 1 8 3
M  V30 8 2 8 7
M  V30 9 1 9 8
M  V30 10 1 10 9
M  V30 11 1 11 10
M  V30 12 1 12 11 CFG=1
M  V30 13 1 13 12
M  V30 14 1 14 13
M  V30 15 1 15 14
M  V30 16 1 16 15
M  V30 17 1 17 16
M  V30 18 1 18 17
M  V30 19 1 19 18
M  V30 20 2 20 19
M  V30 21 1 21 20
M  V30 22 2 22 21
M  V30 23 1 23 22
M  V30 24 2 24 23
M  V30 25 1 25 24
M  V30 26 2 26 25
M  V30 27 1 27 26
M  V30 28 1 28 23
M  V30 29 2 28 27
M  V30 30 1 29 19
M  V30 31 1 29 22
M  V30 32 1 30 29
M  V30 33 1 31 12
M  V30 34 1 31 14
M  V30 35 1 32 9
M  V30 36 1 32 12
M  V30 37 1 33 1
M  V30 38 1 34 1
M  V30 39 1 35 1
M  V30 40 1 36 4
M  V30 41 1 37 5
M  V30 42 1 38 6
M  V30 43 1 39 7
M  V30 44 1 40 10
M  V30 45 1 41 10
M  V30 46 1 42 11
M  V30 47 1 43 11
M  V30 48 1 44 13
M  V30 49 1 45 13
M  V30 50 1 46 15
M  V30 51 1 47 15
M  V30 52 1 48 16
M  V30 53 1 49 16
M  V30 54 1 50 17
M  V30 55 1 51 17
M  V30 56 1 52 24
M  V30 57 1 53 25
M  V30 58 1 54 26
M  V30 59 1 55 27
M  V30 60 1 56 28
M  V30 61 1 57 30
M  V30 62 1 58 30
M  V30 63 1 59 30
M  V30 64 1 60 31
M  V30 65 1 61 31
M  V30 66 1 62 32
M  V30 67 1 63 32
M  V30 68 1 14 64 CFG=1
M  V30 END BOND
M  V30 END CTAB
M  END
>  <b_m_subgroup_collapsed>  (1353) 
0

>  <r_i_docking_score>  (1353) 
-7.2229970183813501

>  <s_m_subgroup_title>  (1353) 
glide-dock_SP_D22_pv

>  <s_m_subgroupid>  (1353) 
glide-dock_SP_D22_pv

>  <Molecule ChEMBL ID>  (1353) 
CHEMBL4089290

>  <Standard Type>  (1353) 
Ki

>  <Standard Value>  (1353) 
60152.0

>  <label>  (1353) 
0

$$$$
CHEMBL3818478
     RDKit          3D

  0  0  0  0  0  0  0  0  0  0999 V3000
M  V30 BEGIN CTAB
M  V30 COUNTS 61 65 0 0 1
M  V30 BEGIN ATOM
M  V30 1 O 12.048442 6.399273 -14.201040 0
M  V30 2 C 11.053047 5.767249 -14.548413 0
M  V30 3 N 10.771640 5.374718 -15.786292 0
M  V30 4 C 9.501094 4.686938 -15.880061 0
M  V30 5 N 8.916060 4.845535 -14.545148 0
M  V30 6 C 7.863828 3.998581 -14.132627 0
M  V30 7 C 6.762393 4.566156 -13.460649 0
M  V30 8 C 5.699665 3.772605 -12.995189 0
M  V30 9 C 5.690406 2.391443 -13.255267 0
M  V30 10 C 6.741198 1.818681 -14.001045 0
M  V30 11 C 7.834461 2.609400 -14.412190 0
M  V30 12 C 9.946512 5.294669 -13.601530 0 CFG=1
M  V30 13 C 10.563111 4.121490 -12.824529 0
M  V30 14 C 9.855882 3.797182 -11.504266 0
M  V30 15 N 9.676154 4.971120 -10.612912 0 CFG=2 CHG=1
M  V30 16 C 9.063139 4.566543 -9.317993 0
M  V30 17 C 8.816661 5.723502 -8.339986 0
M  V30 18 C 10.076345 6.479316 -7.900616 0
M  V30 19 C 9.648280 7.755879 -7.183671 0
M  V30 20 C 10.738370 8.459379 -6.450771 0
M  V30 21 C 11.341370 9.630292 -6.817639 0
M  V30 22 N 12.084165 10.101247 -5.754689 0
M  V30 23 C 12.015489 9.219228 -4.698212 0
M  V30 24 C 12.487643 9.275512 -3.380499 0
M  V30 25 C 12.356187 8.154059 -2.540645 0
M  V30 26 C 11.771816 6.973681 -3.041421 0
M  V30 27 C 11.285810 6.942801 -4.362635 0
M  V30 28 C 11.314903 8.088030 -5.190148 0
M  V30 29 C 8.899686 6.027474 -11.291032 0
M  V30 30 C 9.506709 6.439028 -12.630622 0
M  V30 31 H 11.353964 5.573843 -16.586870 0
M  V30 32 H 9.654053 3.651680 -16.178209 0
M  V30 33 H 8.886170 5.184942 -16.629719 0
M  V30 34 H 6.714964 5.638937 -13.374955 0
M  V30 35 H 4.885792 4.228921 -12.454921 0
M  V30 36 H 4.878876 1.782415 -12.886102 0
M  V30 37 H 6.734701 0.760275 -14.218214 0
M  V30 38 H 8.644969 2.131260 -14.942739 0
M  V30 39 H 10.571754 3.222821 -13.441962 0
M  V30 40 H 11.615634 4.312975 -12.647326 0
M  V30 41 H 8.888352 3.375881 -11.744862 0
M  V30 42 H 10.447461 3.044641 -10.978230 0
M  V30 43 H 8.094231 4.107934 -9.512950 0
M  V30 44 H 9.684945 3.807321 -8.844226 0
M  V30 45 H 8.088423 6.415799 -8.759296 0
M  V30 46 H 8.317121 5.334457 -7.454108 0
M  V30 47 H 10.674188 5.851809 -7.240690 0
M  V30 48 H 10.707570 6.738623 -8.749837 0
M  V30 49 H 9.183382 8.433949 -7.901889 0
M  V30 50 H 8.858707 7.516718 -6.470378 0
M  V30 51 H 11.282376 10.174522 -7.742076 0
M  V30 52 H 12.608541 10.962736 -5.784320 0
M  V30 53 H 12.965843 10.174856 -3.034384 0
M  V30 54 H 12.720282 8.192597 -1.524810 0
M  V30 55 H 11.683782 6.100130 -2.411004 0
M  V30 56 H 10.791753 6.052517 -4.717149 0
M  V30 57 H 7.866589 5.699870 -11.397120 0
M  V30 58 H 8.862263 6.930421 -10.683073 0
M  V30 59 H 10.354387 7.089823 -12.412702 0
M  V30 60 H 8.739739 7.078590 -13.047520 0
M  V30 61 H 10.587543 5.346873 -10.400105 0
M  V30 END ATOM
M  V30 BEGIN BOND
M  V30 1 2 2 1
M  V30 2 1 3 2
M  V30 3 1 4 3
M  V30 4 1 5 4
M  V30 5 1 6 5
M  V30 6 2 7 6
M  V30 7 1 8 7
M  V30 8 2 9 8
M  V30 9 1 10 9
M  V30 10 1 11 6
M  V30 11 2 11 10
M  V30 12 1 12 2
M  V30 13 1 12 5 CFG=3
M  V30 14 1 13 12
M  V30 15 1 14 13
M  V30 16 1 15 14
M  V30 17 1 16 15
M  V30 18 1 17 16
M  V30 19 1 18 17
M  V30 20 1 19 18
M  V30 21 1 20 19
M  V30 22 2 21 20
M  V30 23 1 22 21
M  V30 24 1 23 22
M  V30 25 2 24 23
M  V30 26 1 25 24
M  V30 27 2 26 25
M  V30 28 1 27 26
M  V30 29 1 28 20
M  V30 30 1 28 23
M  V30 31 2 28 27
M  V30 32 1 29 15
M  V30 33 1 30 12
M  V30 34 1 30 29
M  V30 35 1 31 3
M  V30 36 1 32 4
M  V30 37 1 33 4
M  V30 38 1 34 7
M  V30 39 1 35 8
M  V30 40 1 36 9
M  V30 41 1 37 10
M  V30 42 1 38 11
M  V30 43 1 39 13
M  V30 44 1 40 13
M  V30 45 1 41 14
M  V30 46 1 42 14
M  V30 47 1 43 16
M  V30 48 1 44 16
M  V30 49 1 45 17
M  V30 50 1 46 17
M  V30 51 1 47 18
M  V30 52 1 48 18
M  V30 53 1 49 19
M  V30 54 1 50 19
M  V30 55 1 51 21
M  V30 56 1 52 22
M  V30 57 1 53 24
M  V30 58 1 54 25
M  V30 59 1 55 26
M  V30 60 1 56 27
M  V30 61 1 57 29
M  V30 62 1 58 29
M  V30 63 1 59 30
M  V30 64 1 60 30
M  V30 65 1 15 61 CFG=1
M  V30 END BOND
M  V30 END CTAB
M  END
>  <b_m_subgroup_collapsed>  (1354) 
0

>  <r_i_docking_score>  (1354) 
-7.2211443194725096

>  <s_m_subgroup_title>  (1354) 
glide-dock_SP_D22_pv

>  <s_m_subgroupid>  (1354) 
glide-dock_SP_D22_pv

>  <Molecule ChEMBL ID>  (1354) 
CHEMBL3818478

>  <Standard Type>  (1354) 
Ki

>  <Standard Value>  (1354) 
22.39

>  <label>  (1354) 
1

$$$$
CHEMBL5722994
     RDKit          3D

  0  0  0  0  0  0  0  0  0  0999 V3000
M  V30 BEGIN CTAB
M  V30 COUNTS 40 42 0 0 1
M  V30 BEGIN ATOM
M  V30 1 O 10.899349 4.437297 -14.073874 0
M  V30 2 C 10.064611 5.014053 -13.375233 0
M  V30 3 C 10.428760 6.173492 -12.540155 0
M  V30 4 C 9.501311 6.823387 -11.803939 0
M  V30 5 C 9.870688 7.942687 -10.843270 0
M  V30 6 N 10.759361 7.454989 -9.778529 0
M  V30 7 C 10.119960 6.550206 -8.810754 0
M  V30 8 C 9.410488 7.311548 -7.670540 0 CFG=1
M  V30 9 O 8.485860 6.451463 -7.047258 0
M  V30 10 C 10.392850 7.917948 -6.671532 0
M  V30 11 C 10.835199 7.190225 -5.542539 0
M  V30 12 C 11.686003 7.795406 -4.594138 0
M  V30 13 C 12.101364 9.129758 -4.770079 0
M  V30 14 C 11.694798 9.845309 -5.911527 0
M  V30 15 C 10.851790 9.234650 -6.859476 0
M  V30 16 N 8.160254 6.473318 -11.846173 0
M  V30 17 C 7.716996 5.334147 -12.524741 0
M  V30 18 C 6.376887 4.914510 -12.422345 0
M  V30 19 C 5.955851 3.741136 -13.080349 0
M  V30 20 C 6.872303 2.994159 -13.847080 0
M  V30 21 F 6.484162 1.851936 -14.458445 0
M  V30 22 C 8.207752 3.418129 -13.964961 0
M  V30 23 C 8.638727 4.585276 -13.300141 0
M  V30 24 H 11.469002 6.463871 -12.497173 0
M  V30 25 H 8.969306 8.391216 -10.423406 0
M  V30 26 H 10.370152 8.722252 -11.415262 0
M  V30 27 H 11.159063 8.241628 -9.277746 0
M  V30 28 H 10.873306 5.888593 -8.377572 0
M  V30 29 H 9.411544 5.899035 -9.323902 0
M  V30 30 H 8.811390 8.122107 -8.088203 0
M  V30 31 H 7.617637 6.645923 -7.403324 0
M  V30 32 H 10.505162 6.174527 -5.388146 0
M  V30 33 H 12.008159 7.235932 -3.728344 0
M  V30 34 H 12.749548 9.593805 -4.041195 0
M  V30 35 H 12.028995 10.861911 -6.060687 0
M  V30 36 H 10.534923 9.772320 -7.735996 0
M  V30 37 H 7.494623 6.969028 -11.238620 0
M  V30 38 H 5.681778 5.481015 -11.819797 0
M  V30 39 H 4.932905 3.407811 -12.989677 0
M  V30 40 H 8.900928 2.828191 -14.546553 0
M  V30 END ATOM
M  V30 BEGIN BOND
M  V30 1 2 2 1
M  V30 2 1 3 2
M  V30 3 2 4 3
M  V30 4 1 5 4
M  V30 5 1 6 5
M  V30 6 1 7 6
M  V30 7 1 8 7
M  V30 8 1 9 8
M  V30 9 1 10 8
M  V30 10 2 11 10
M  V30 11 1 12 11
M  V30 12 2 13 12
M  V30 13 1 14 13
M  V30 14 1 15 10
M  V30 15 2 15 14
M  V30 16 1 16 4
M  V30 17 1 17 16
M  V30 18 2 18 17
M  V30 19 1 19 18
M  V30 20 2 20 19
M  V30 21 1 21 20
M  V30 22 1 22 20
M  V30 23 1 23 2
M  V30 24 1 23 17
M  V30 25 2 23 22
M  V30 26 1 24 3
M  V30 27 1 25 5
M  V30 28 1 26 5
M  V30 29 1 27 6
M  V30 30 1 28 7
M  V30 31 1 29 7
M  V30 32 1 8 30 CFG=3
M  V30 33 1 31 9
M  V30 34 1 32 11
M  V30 35 1 33 12
M  V30 36 1 34 13
M  V30 37 1 35 14
M  V30 38 1 36 15
M  V30 39 1 37 16
M  V30 40 1 38 18
M  V30 41 1 39 19
M  V30 42 1 40 22
M  V30 END BOND
M  V30 END CTAB
M  END
>  <b_m_subgroup_collapsed>  (1355) 
0

>  <r_i_docking_score>  (1355) 
-7.2203659974751204

>  <s_m_subgroup_title>  (1355) 
glide-dock_SP_D22_pv

>  <s_m_subgroupid>  (1355) 
glide-dock_SP_D22_pv

>  <Molecule ChEMBL ID>  (1355) 
CHEMBL5722994

>  <Standard Type>  (1355) 
Ki

>  <Standard Value>  (1355) 
10000.0

>  <label>  (1355) 
0

$$$$
CHEMBL520821
     RDKit          3D

  0  0  0  0  0  0  0  0  0  0999 V3000
M  V30 BEGIN CTAB
M  V30 COUNTS 59 63 0 0 1
M  V30 BEGIN ATOM
M  V30 1 C 6.998034 0.524946 -17.453514 0
M  V30 2 C 8.162166 0.941813 -16.578108 0
M  V30 3 C 9.407758 0.300500 -16.721861 0
M  V30 4 C 10.484900 0.668604 -15.897253 0
M  V30 5 C 10.318569 1.674241 -14.927247 0
M  V30 6 C 9.078174 2.334976 -14.774033 0
M  V30 7 C 8.936641 3.388375 -13.666490 0 CFG=2
M  V30 8 C 7.475086 3.831909 -13.370866 0
M  V30 9 N 7.305636 4.958479 -12.407763 0 CFG=1 CHG=1
M  V30 10 C 5.874103 5.279679 -12.200801 0
M  V30 11 C 8.042585 4.878180 -11.120405 0
M  V30 12 C 9.576440 4.806243 -11.273826 0
M  V30 13 C 10.126306 5.373200 -12.598457 0
M  V30 14 C 9.884583 4.593864 -13.762175 0
M  V30 15 C 10.534663 4.923127 -14.966613 0
M  V30 16 C 11.459673 5.975641 -14.998362 0
M  V30 17 O 12.106420 6.261631 -16.165390 0
M  V30 18 C 11.686013 6.769413 -13.855065 0
M  V30 19 O 12.604046 7.772264 -13.975367 0
M  V30 20 C 10.960385 6.540790 -12.646862 0
M  V30 21 C 11.162091 7.372748 -11.419695 0
M  V30 22 C 12.452612 7.772387 -11.009748 0
M  V30 23 C 12.714486 8.172618 -9.690051 0
M  V30 24 C 11.661635 8.340831 -8.779833 0
M  V30 25 C 11.911990 8.751587 -7.454136 0
M  V30 26 C 10.849470 8.859910 -6.537345 0
M  V30 27 C 9.536564 8.572494 -6.954518 0
M  V30 28 C 9.285947 8.218448 -8.292436 0
M  V30 29 C 10.341264 8.101658 -9.214222 0
M  V30 30 C 10.095135 7.687706 -10.541258 0
M  V30 31 C 7.999460 1.954748 -15.610191 0
M  V30 32 H 6.165172 1.224666 -17.374065 0
M  V30 33 H 6.642605 -0.462472 -17.156836 0
M  V30 34 H 7.305162 0.479177 -18.498652 0
M  V30 35 H 9.535590 -0.479935 -17.458031 0
M  V30 36 H 11.439012 0.175517 -16.004616 0
M  V30 37 H 11.152369 1.935797 -14.291352 0
M  V30 38 H 9.285513 2.791802 -12.828920 0
M  V30 39 H 7.024108 4.194831 -14.291077 0
M  V30 40 H 6.884204 2.974521 -13.047230 0
M  V30 41 H 5.357546 4.458151 -11.702597 0
M  V30 42 H 5.374186 5.466665 -13.151895 0
M  V30 43 H 5.749778 6.172430 -11.588606 0
M  V30 44 H 7.793036 5.771621 -10.547395 0
M  V30 45 H 7.684501 4.046372 -10.518009 0
M  V30 46 H 10.053811 5.229817 -10.394807 0
M  V30 47 H 9.909986 3.776260 -11.168605 0
M  V30 48 H 10.362940 4.351574 -15.867048 0
M  V30 49 H 12.520384 7.111258 -16.135052 0
M  V30 50 H 13.467395 7.434247 -14.167482 0
M  V30 51 H 13.285623 7.699387 -11.685143 0
M  V30 52 H 13.728243 8.398968 -9.393607 0
M  V30 53 H 12.919803 8.972775 -7.133597 0
M  V30 54 H 11.042492 9.154053 -5.516228 0
M  V30 55 H 8.715040 8.634442 -6.254564 0
M  V30 56 H 8.276940 8.000866 -8.599983 0
M  V30 57 H 9.078614 7.492414 -10.843739 0
M  V30 58 H 7.027679 2.412911 -15.518528 0
M  V30 59 H 7.704583 5.766317 -12.865717 0
M  V30 END ATOM
M  V30 BEGIN BOND
M  V30 1 1 2 1
M  V30 2 1 3 2
M  V30 3 2 4 3
M  V30 4 1 5 4
M  V30 5 2 6 5
M  V30 6 1 7 6
M  V30 7 1 8 7
M  V30 8 1 9 8
M  V30 9 1 10 9
M  V30 10 1 11 9
M  V30 11 1 12 11
M  V30 12 1 13 12
M  V30 13 1 14 7
M  V30 14 2 14 13
M  V30 15 1 15 14
M  V30 16 2 16 15
M  V30 17 1 17 16
M  V30 18 1 18 16
M  V30 19 1 19 18
M  V30 20 1 20 13
M  V30 21 2 20 18
M  V30 22 1 21 20
M  V30 23 1 22 21
M  V30 24 2 23 22
M  V30 25 1 24 23
M  V30 26 2 25 24
M  V30 27 1 26 25
M  V30 28 2 27 26
M  V30 29 1 28 27
M  V30 30 1 29 24
M  V30 31 2 29 28
M  V30 32 2 30 21
M  V30 33 1 30 29
M  V30 34 2 31 2
M  V30 35 1 31 6
M  V30 36 1 32 1
M  V30 37 1 33 1
M  V30 38 1 34 1
M  V30 39 1 35 3
M  V30 40 1 36 4
M  V30 41 1 37 5
M  V30 42 1 7 38 CFG=1
M  V30 43 1 39 8
M  V30 44 1 40 8
M  V30 45 1 41 10
M  V30 46 1 42 10
M  V30 47 1 43 10
M  V30 48 1 44 11
M  V30 49 1 45 11
M  V30 50 1 46 12
M  V30 51 1 47 12
M  V30 52 1 48 15
M  V30 53 1 49 17
M  V30 54 1 50 19
M  V30 55 1 51 22
M  V30 56 1 52 23
M  V30 57 1 53 25
M  V30 58 1 54 26
M  V30 59 1 55 27
M  V30 60 1 56 28
M  V30 61 1 57 30
M  V30 62 1 58 31
M  V30 63 1 9 59 CFG=3
M  V30 END BOND
M  V30 END CTAB
M  END
>  <b_m_subgroup_collapsed>  (1356) 
0

>  <r_i_docking_score>  (1356) 
-7.2200762350734404

>  <s_m_subgroup_title>  (1356) 
glide-dock_SP_D22_pv

>  <s_m_subgroupid>  (1356) 
glide-dock_SP_D22_pv

>  <Molecule ChEMBL ID>  (1356) 
CHEMBL520821

>  <Standard Type>  (1356) 
Ki

>  <Standard Value>  (1356) 
29.0

>  <label>  (1356) 
1

$$$$
CHEMBL2436555
     RDKit          3D

  0  0  0  0  0  0  0  0  0  0999 V3000
M  V30 BEGIN CTAB
M  V30 COUNTS 21 22 0 0 1
M  V30 BEGIN ATOM
M  V30 1 N 9.276989 8.699524 -10.086039 0
M  V30 2 C 9.725955 8.253781 -8.910349 0
M  V30 3 N 10.819897 8.808639 -8.348429 0 CHG=1
M  V30 4 C 11.100399 8.546449 -6.961566 0
M  V30 5 C 11.909797 9.422295 -6.209615 0
M  V30 6 C 12.188374 9.117474 -4.861537 0
M  V30 7 C 11.693988 7.929757 -4.286650 0
M  V30 8 Cl 12.085447 7.534690 -2.653141 0
M  V30 9 C 10.886150 7.063058 -5.046853 0
M  V30 10 C 10.539639 7.398764 -6.369483 0
M  V30 11 C 9.546356 6.556700 -7.136280 0
M  V30 12 N 9.058728 7.246827 -8.326948 0
M  V30 13 H 9.786436 9.370770 -10.637234 0
M  V30 14 H 8.351269 8.389621 -10.394902 0
M  V30 15 H 12.326532 10.316660 -6.646979 0
M  V30 16 H 12.816736 9.772240 -4.276618 0
M  V30 17 H 10.485445 6.170792 -4.590162 0
M  V30 18 H 10.024706 5.627583 -7.444773 0
M  V30 19 H 8.698445 6.301032 -6.499323 0
M  V30 20 H 8.149702 6.971614 -8.685246 0
M  V30 21 H 11.298731 9.548594 -8.841432 0
M  V30 END ATOM
M  V30 BEGIN BOND
M  V30 1 1 2 1
M  V30 2 2 3 2
M  V30 3 1 4 3
M  V30 4 1 5 4
M  V30 5 2 6 5
M  V30 6 1 7 6
M  V30 7 1 8 7
M  V30 8 2 9 7
M  V30 9 2 10 4
M  V30 10 1 10 9
M  V30 11 1 11 10
M  V30 12 1 12 2
M  V30 13 1 12 11
M  V30 14 1 13 1
M  V30 15 1 14 1
M  V30 16 1 15 5
M  V30 17 1 16 6
M  V30 18 1 17 9
M  V30 19 1 18 11
M  V30 20 1 19 11
M  V30 21 1 20 12
M  V30 22 1 21 3
M  V30 END BOND
M  V30 END CTAB
M  END
>  <b_m_subgroup_collapsed>  (1357) 
0

>  <r_i_docking_score>  (1357) 
-7.2187531309115203

>  <s_m_subgroup_title>  (1357) 
glide-dock_SP_D22_pv

>  <s_m_subgroupid>  (1357) 
glide-dock_SP_D22_pv

>  <Molecule ChEMBL ID>  (1357) 
CHEMBL2436555

>  <Standard Type>  (1357) 
Ki

>  <Standard Value>  (1357) 
10000.0

>  <label>  (1357) 
0

$$$$
CHEMBL5898142
     RDKit          3D

  0  0  0  0  0  0  0  0  0  0999 V3000
M  V30 BEGIN CTAB
M  V30 COUNTS 60 63 0 0 1
M  V30 BEGIN ATOM
M  V30 1 C 13.664268 8.063032 -16.833509 0
M  V30 2 C 13.060587 7.030885 -15.904919 0
M  V30 3 C 13.065263 5.671514 -16.272684 0
M  V30 4 C 12.474095 4.714858 -15.429178 0
M  V30 5 C 11.858488 5.116361 -14.228181 0
M  V30 6 C 11.849387 6.479795 -13.843021 0
M  V30 7 C 12.477077 7.423804 -14.682352 0
M  V30 8 N 11.283374 6.943312 -12.646107 0
M  V30 9 C 10.191472 6.505961 -12.129626 0
M  V30 10 C 9.726593 7.118108 -10.788604 0 CFG=1
M  V30 11 C 9.562269 6.078822 -9.648668 0
M  V30 12 C 9.178363 6.734158 -8.296944 0
M  V30 13 N 10.113948 7.836079 -7.942195 0 CFG=2 CHG=1
M  V30 14 C 9.926770 8.419401 -6.587465 0
M  V30 15 C 11.272535 8.541907 -5.805209 0
M  V30 16 C 11.668894 7.127940 -5.306844 0
M  V30 17 C 12.394411 9.188425 -6.650419 0
M  V30 18 C 11.122748 9.512379 -4.608325 0
M  V30 19 O 10.486036 10.569446 -4.804708 0
M  V30 20 O 11.662558 9.206444 -3.521816 0 CHG=-1
M  V30 21 C 10.137742 8.864690 -9.008367 0
M  V30 22 C 10.661743 8.238946 -10.293073 0
M  V30 23 C 9.327785 5.425270 -12.701754 0
M  V30 24 C 7.916327 5.508906 -12.632839 0
M  V30 25 C 7.103286 4.503317 -13.193235 0
M  V30 26 C 5.600263 4.616157 -13.089092 0
M  V30 27 C 7.691062 3.402368 -13.846288 0
M  V30 28 C 9.090444 3.297563 -13.907194 0
M  V30 29 C 9.902087 4.300704 -13.343289 0
M  V30 30 O 11.257536 4.172829 -13.447680 0
M  V30 31 H 13.684646 9.049666 -16.369755 0
M  V30 32 H 14.684116 7.787557 -17.104404 0
M  V30 33 H 13.073271 8.135383 -17.748617 0
M  V30 34 H 13.517915 5.362843 -17.203529 0
M  V30 35 H 12.476860 3.672149 -15.711855 0
M  V30 36 H 12.482592 8.465628 -14.398065 0
M  V30 37 H 8.757967 7.585936 -10.965534 0
M  V30 38 H 8.798760 5.345603 -9.909640 0
M  V30 39 H 10.486925 5.516854 -9.521427 0
M  V30 40 H 9.186219 5.978270 -7.511449 0
M  V30 41 H 8.163074 7.121124 -8.347841 0
M  V30 42 H 9.418287 9.372176 -6.693808 0
M  V30 43 H 9.236601 7.801804 -6.010787 0
M  V30 44 H 11.908736 6.459985 -6.134519 0
M  V30 45 H 12.532701 7.149331 -4.645402 0
M  V30 46 H 10.861562 6.662057 -4.740645 0
M  V30 47 H 12.698088 8.572184 -7.495567 0
M  V30 48 H 12.085271 10.160885 -7.030555 0
M  V30 49 H 13.285973 9.372029 -6.047165 0
M  V30 50 H 10.786621 9.695946 -8.742929 0
M  V30 51 H 9.137997 9.280887 -9.155355 0
M  V30 52 H 11.672281 7.857515 -10.130317 0
M  V30 53 H 10.747710 9.008499 -11.047661 0
M  V30 54 H 7.431580 6.348697 -12.152701 0
M  V30 55 H 5.098473 3.942485 -13.784554 0
M  V30 56 H 5.279008 4.373135 -12.075854 0
M  V30 57 H 5.287434 5.634699 -13.316050 0
M  V30 58 H 7.075125 2.629205 -14.278320 0
M  V30 59 H 9.547264 2.449093 -14.394212 0
M  V30 60 H 11.033386 7.420048 -7.917757 0
M  V30 END ATOM
M  V30 BEGIN BOND
M  V30 1 1 2 1
M  V30 2 1 3 2
M  V30 3 2 4 3
M  V30 4 1 5 4
M  V30 5 2 6 5
M  V30 6 2 7 2
M  V30 7 1 7 6
M  V30 8 1 8 6
M  V30 9 2 9 8
M  V30 10 1 10 9
M  V30 11 1 11 10
M  V30 12 1 12 11
M  V30 13 1 13 12
M  V30 14 1 14 13
M  V30 15 1 15 14
M  V30 16 1 16 15
M  V30 17 1 17 15
M  V30 18 1 18 15
M  V30 19 2 19 18
M  V30 20 1 20 18
M  V30 21 1 21 13
M  V30 22 1 22 10
M  V30 23 1 22 21
M  V30 24 1 23 9
M  V30 25 1 24 23
M  V30 26 2 25 24
M  V30 27 1 26 25
M  V30 28 1 27 25
M  V30 29 2 28 27
M  V30 30 2 29 23
M  V30 31 1 29 28
M  V30 32 1 30 5
M  V30 33 1 30 29
M  V30 34 1 31 1
M  V30 35 1 32 1
M  V30 36 1 33 1
M  V30 37 1 34 3
M  V30 38 1 35 4
M  V30 39 1 36 7
M  V30 40 1 10 37 CFG=3
M  V30 41 1 38 11
M  V30 42 1 39 11
M  V30 43 1 40 12
M  V30 44 1 41 12
M  V30 45 1 42 14
M  V30 46 1 43 14
M  V30 47 1 44 16
M  V30 48 1 45 16
M  V30 49 1 46 16
M  V30 50 1 47 17
M  V30 51 1 48 17
M  V30 52 1 49 17
M  V30 53 1 50 21
M  V30 54 1 51 21
M  V30 55 1 52 22
M  V30 56 1 53 22
M  V30 57 1 54 24
M  V30 58 1 55 26
M  V30 59 1 56 26
M  V30 60 1 57 26
M  V30 61 1 58 27
M  V30 62 1 59 28
M  V30 63 1 13 60 CFG=1
M  V30 END BOND
M  V30 END CTAB
M  END
>  <b_m_subgroup_collapsed>  (1358) 
0

>  <r_i_docking_score>  (1358) 
-7.2170332931027597

>  <s_m_subgroup_title>  (1358) 
glide-dock_SP_D22_pv

>  <s_m_subgroupid>  (1358) 
glide-dock_SP_D22_pv

>  <Molecule ChEMBL ID>  (1358) 
CHEMBL5898142

>  <Standard Type>  (1358) 
Ki

>  <Standard Value>  (1358) 
60.0

>  <label>  (1358) 
1

$$$$
CHEMBL3115576
     RDKit          3D

  0  0  0  0  0  0  0  0  0  0999 V3000
M  V30 BEGIN CTAB
M  V30 COUNTS 40 42 0 0 1
M  V30 BEGIN ATOM
M  V30 1 O 11.686023 10.172327 -3.046757 0
M  V30 2 C 11.562379 9.265461 -4.044837 0
M  V30 3 C 11.810903 7.914079 -3.753806 0
M  V30 4 C 11.608706 6.943316 -4.744877 0
M  V30 5 C 11.175489 7.329962 -6.027692 0
M  V30 6 C 10.938030 8.695949 -6.329881 0
M  V30 7 C 11.148143 9.664082 -5.330137 0
M  V30 8 O 10.519203 9.114824 -7.576248 0
M  V30 9 C 9.949028 8.114923 -8.415522 0 CFG=1
M  V30 10 C 9.704236 8.669852 -9.823494 0
M  V30 11 N 8.886023 7.692690 -10.562177 0 CHG=1
M  V30 12 C 8.824244 7.813533 -12.021872 0
M  V30 13 C 8.712036 6.408123 -12.587677 0
M  V30 14 C 7.448212 5.779785 -12.614134 0
M  V30 15 C 7.317057 4.465423 -13.098960 0
M  V30 16 C 8.450538 3.772320 -13.562761 0
M  V30 17 C 9.714693 4.390192 -13.534003 0
M  V30 18 C 9.852864 5.704650 -13.046865 0
M  V30 19 I 11.762079 6.572319 -13.046933 0
M  V30 20 C 10.885875 6.898930 -8.470128 0
M  V30 21 C 10.970642 6.272971 -7.085608 0
M  V30 22 H 11.478056 11.069110 -3.271585 0
M  V30 23 H 12.127260 7.619187 -2.763784 0
M  V30 24 H 11.781558 5.901176 -4.518399 0
M  V30 25 H 10.961970 10.705718 -5.547138 0
M  V30 26 H 8.988320 7.828637 -7.980293 0
M  V30 27 H 9.167954 9.617808 -9.783817 0
M  V30 28 H 10.654818 8.848410 -10.328652 0
M  V30 29 H 9.206815 6.760544 -10.348485 0
M  V30 30 H 7.946911 8.402596 -12.293353 0
M  V30 31 H 9.685987 8.347760 -12.416883 0
M  V30 32 H 6.574316 6.301845 -12.247720 0
M  V30 33 H 6.347728 3.988424 -13.111719 0
M  V30 34 H 8.352616 2.762001 -13.932779 0
M  V30 35 H 10.582169 3.851995 -13.887329 0
M  V30 36 H 10.557441 6.145607 -9.186081 0
M  V30 37 H 11.870146 7.239494 -8.793219 0
M  V30 38 H 11.764773 5.527502 -7.046110 0
M  V30 39 H 10.029740 5.772324 -6.862063 0
M  V30 40 H 7.902250 7.771924 -10.246883 0
M  V30 END ATOM
M  V30 BEGIN BOND
M  V30 1 1 2 1
M  V30 2 1 3 2
M  V30 3 2 4 3
M  V30 4 1 5 4
M  V30 5 2 6 5
M  V30 6 2 7 2
M  V30 7 1 7 6
M  V30 8 1 8 6
M  V30 9 1 9 8
M  V30 10 1 10 9
M  V30 11 1 11 10
M  V30 12 1 12 11
M  V30 13 1 13 12
M  V30 14 2 14 13
M  V30 15 1 15 14
M  V30 16 2 16 15
M  V30 17 1 17 16
M  V30 18 1 18 13
M  V30 19 2 18 17
M  V30 20 1 19 18
M  V30 21 1 20 9
M  V30 22 1 21 5
M  V30 23 1 21 20
M  V30 24 1 22 1
M  V30 25 1 23 3
M  V30 26 1 24 4
M  V30 27 1 25 7
M  V30 28 1 9 26 CFG=1
M  V30 29 1 27 10
M  V30 30 1 28 10
M  V30 31 1 29 11
M  V30 32 1 30 12
M  V30 33 1 31 12
M  V30 34 1 32 14
M  V30 35 1 33 15
M  V30 36 1 34 16
M  V30 37 1 35 17
M  V30 38 1 36 20
M  V30 39 1 37 20
M  V30 40 1 38 21
M  V30 41 1 39 21
M  V30 42 1 40 11
M  V30 END BOND
M  V30 END CTAB
M  END
>  <b_m_subgroup_collapsed>  (1359) 
0

>  <r_i_docking_score>  (1359) 
-7.2155666716059796

>  <s_m_subgroup_title>  (1359) 
glide-dock_SP_D22_pv

>  <s_m_subgroupid>  (1359) 
glide-dock_SP_D22_pv

>  <Molecule ChEMBL ID>  (1359) 
CHEMBL3115576

>  <Standard Type>  (1359) 
Ki

>  <Standard Value>  (1359) 
0.1622

>  <label>  (1359) 
1

$$$$
CHEMBL4436479
     RDKit          3D

  0  0  0  0  0  0  0  0  0  0999 V3000
M  V30 BEGIN CTAB
M  V30 COUNTS 48 50 0 0 1
M  V30 BEGIN ATOM
M  V30 1 C 12.141325 7.279951 -3.269716 0
M  V30 2 C 11.648601 7.786373 -4.609390 0
M  V30 3 C 11.687706 9.164545 -4.907543 0
M  V30 4 C 11.210440 9.628822 -6.147876 0
M  V30 5 C 10.684865 8.722979 -7.091499 0
M  V30 6 C 10.644906 7.338333 -6.803051 0
M  V30 7 N 10.112738 6.364518 -7.695448 0
M  V30 8 C 10.085764 6.386567 -9.041858 0
M  V30 9 O 10.496990 7.315940 -9.737024 0
M  V30 10 C 9.556014 5.123560 -9.729882 0
M  V30 11 N 9.309096 5.366351 -11.177222 0 CFG=2 CHG=1
M  V30 12 C 7.895550 5.695707 -11.435336 0
M  V30 13 C 7.620084 6.024796 -12.909980 0
M  V30 14 C 8.097850 4.902027 -13.855752 0 CFG=2
M  V30 15 C 7.243672 3.619779 -13.836679 0
M  V30 16 C 6.059170 3.504389 -13.063640 0
M  V30 17 C 5.318177 2.308403 -13.046958 0
M  V30 18 C 5.729648 1.214433 -13.828779 0
M  V30 19 Cl 4.784063 -0.225873 -13.847025 0
M  V30 20 C 6.886629 1.316808 -14.621693 0
M  V30 21 C 7.635725 2.512290 -14.626457 0
M  V30 22 C 9.584018 4.651005 -13.556194 0
M  V30 23 C 9.811322 4.301503 -12.084287 0
M  V30 24 C 11.118689 6.883695 -5.553326 0
M  V30 25 H 12.981394 7.876178 -2.915121 0
M  V30 26 H 11.342900 7.334753 -2.528029 0
M  V30 27 H 12.467772 6.241325 -3.338798 0
M  V30 28 H 12.086312 9.862442 -4.186181 0
M  V30 29 H 11.242043 10.684616 -6.372585 0
M  V30 30 H 10.304657 9.108039 -8.025518 0
M  V30 31 H 9.804187 5.509314 -7.259226 0
M  V30 32 H 10.284512 4.327772 -9.585158 0
M  V30 33 H 8.646750 4.782184 -9.229741 0
M  V30 34 H 7.258132 4.896825 -11.060397 0
M  V30 35 H 7.690831 6.572163 -10.853073 0
M  V30 36 H 6.564921 6.258582 -13.046850 0
M  V30 37 H 8.146321 6.949268 -13.151984 0
M  V30 38 H 8.085860 5.289999 -14.872409 0
M  V30 39 H 5.684134 4.321894 -12.469090 0
M  V30 40 H 4.423842 2.235965 -12.448451 0
M  V30 41 H 7.198055 0.479829 -15.231815 0
M  V30 42 H 8.517732 2.564162 -15.247425 0
M  V30 43 H 9.994059 3.870112 -14.195756 0
M  V30 44 H 10.153458 5.549945 -13.796431 0
M  V30 45 H 10.884978 4.172274 -11.970435 0
M  V30 46 H 9.333470 3.356385 -11.847061 0
M  V30 47 H 11.086769 5.826200 -5.316832 0
M  V30 48 H 9.839095 6.206244 -11.385417 0
M  V30 END ATOM
M  V30 BEGIN BOND
M  V30 1 1 2 1
M  V30 2 1 3 2
M  V30 3 2 4 3
M  V30 4 1 5 4
M  V30 5 2 6 5
M  V30 6 1 7 6
M  V30 7 1 8 7
M  V30 8 2 9 8
M  V30 9 1 10 8
M  V30 10 1 11 10
M  V30 11 1 12 11
M  V30 12 1 13 12
M  V30 13 1 14 13
M  V30 14 1 15 14
M  V30 15 1 16 15
M  V30 16 2 17 16
M  V30 17 1 18 17
M  V30 18 1 19 18
M  V30 19 2 20 18
M  V30 20 2 21 15
M  V30 21 1 21 20
M  V30 22 1 22 14
M  V30 23 1 23 11
M  V30 24 1 23 22
M  V30 25 2 24 2
M  V30 26 1 24 6
M  V30 27 1 25 1
M  V30 28 1 26 1
M  V30 29 1 27 1
M  V30 30 1 28 3
M  V30 31 1 29 4
M  V30 32 1 30 5
M  V30 33 1 31 7
M  V30 34 1 32 10
M  V30 35 1 33 10
M  V30 36 1 34 12
M  V30 37 1 35 12
M  V30 38 1 36 13
M  V30 39 1 37 13
M  V30 40 1 14 38 CFG=3
M  V30 41 1 39 16
M  V30 42 1 40 17
M  V30 43 1 41 20
M  V30 44 1 42 21
M  V30 45 1 43 22
M  V30 46 1 44 22
M  V30 47 1 45 23
M  V30 48 1 46 23
M  V30 49 1 47 24
M  V30 50 1 11 48 CFG=3
M  V30 END BOND
M  V30 END CTAB
M  END
>  <b_m_subgroup_collapsed>  (1360) 
0

>  <r_i_docking_score>  (1360) 
-7.2135636768554896

>  <s_m_subgroup_title>  (1360) 
glide-dock_SP_D22_pv

>  <s_m_subgroupid>  (1360) 
glide-dock_SP_D22_pv

>  <Molecule ChEMBL ID>  (1360) 
CHEMBL4436479

>  <Standard Type>  (1360) 
Ki

>  <Standard Value>  (1360) 
50000.0

>  <label>  (1360) 
0

$$$$
CHEMBL3895173
     RDKit          3D

  0  0  0  0  0  0  0  0  0  0999 V3000
M  V30 BEGIN CTAB
M  V30 COUNTS 46 49 0 0 1
M  V30 BEGIN ATOM
M  V30 1 C 9.064277 2.157763 -14.123880 0
M  V30 2 N 9.686209 3.077142 -13.150900 0 CHG=1
M  V30 3 C 9.484015 4.501157 -13.470798 0 CFG=1
M  V30 4 C 9.932533 5.438816 -12.382071 0
M  V30 5 C 10.964587 6.010366 -13.183144 0
M  V30 6 C 11.792876 7.047206 -12.751565 0
M  V30 7 C 11.510739 7.526008 -11.442602 0
M  V30 8 C 10.454345 6.972400 -10.644406 0
M  V30 9 C 9.685794 5.916482 -11.109911 0
M  V30 10 C 8.730580 5.486389 -10.175913 0
M  V30 11 C 8.886115 6.367595 -9.129767 0
M  V30 12 N 9.901584 7.288115 -9.405750 0
M  V30 13 S 10.216383 8.709702 -8.464486 0
M  V30 14 O 11.285515 9.429059 -9.169918 0
M  V30 15 O 8.904731 9.341395 -8.248359 0
M  V30 16 C 10.862690 8.279145 -6.856821 0
M  V30 17 C 10.817949 6.974965 -6.329865 0
M  V30 18 C 11.286202 6.756488 -5.018373 0
M  V30 19 C 11.796988 7.818300 -4.246282 0
M  V30 20 C 11.841781 9.117834 -4.781570 0
M  V30 21 C 11.376135 9.346548 -6.088783 0
M  V30 22 C 10.665306 5.135375 -14.378225 0 CFG=1
M  V30 23 C 11.876441 4.305582 -14.835687 0
M  V30 24 C 12.737732 4.976396 -15.921468 0
M  V30 25 O 13.401274 6.127468 -15.446447 0
M  V30 26 H 9.273871 1.123572 -13.849016 0
M  V30 27 H 9.446043 2.325942 -15.129898 0
M  V30 28 H 7.981727 2.290117 -14.140746 0
M  V30 29 H 9.285937 2.880492 -12.244141 0
M  V30 30 H 8.475324 4.752894 -13.804469 0
M  V30 31 H 12.568028 7.474829 -13.370134 0
M  V30 32 H 12.109740 8.342902 -11.072395 0
M  V30 33 H 8.023266 4.686184 -10.333876 0
M  V30 34 H 8.284878 6.468122 -8.235708 0
M  V30 35 H 10.417002 6.152563 -6.902729 0
M  V30 36 H 11.247003 5.772215 -4.587935 0
M  V30 37 H 12.151429 7.635472 -3.240988 0
M  V30 38 H 12.227394 9.935446 -4.189648 0
M  V30 39 H 11.397985 10.346189 -6.498613 0
M  V30 40 H 10.245090 5.753351 -15.174492 0
M  V30 41 H 12.492561 4.008926 -13.985739 0
M  V30 42 H 11.523252 3.375190 -15.278642 0
M  V30 43 H 13.490909 4.276408 -16.283691 0
M  V30 44 H 12.123896 5.251257 -16.779108 0
M  V30 45 H 13.954627 5.896234 -14.712385 0
M  V30 46 H 10.674378 2.885489 -13.091858 0
M  V30 END ATOM
M  V30 BEGIN BOND
M  V30 1 1 2 1
M  V30 2 1 3 2
M  V30 3 1 4 3
M  V30 4 2 5 4
M  V30 5 1 6 5
M  V30 6 2 7 6
M  V30 7 1 8 7
M  V30 8 1 9 4
M  V30 9 2 9 8
M  V30 10 1 10 9
M  V30 11 2 11 10
M  V30 12 1 12 8
M  V30 13 1 12 11
M  V30 14 1 13 12
M  V30 15 2 14 13
M  V30 16 2 15 13
M  V30 17 1 16 13
M  V30 18 2 17 16
M  V30 19 1 18 17
M  V30 20 2 19 18
M  V30 21 1 20 19
M  V30 22 1 21 16
M  V30 23 2 21 20
M  V30 24 1 22 3
M  V30 25 1 22 5
M  V30 26 1 23 22
M  V30 27 1 24 23
M  V30 28 1 25 24
M  V30 29 1 26 1
M  V30 30 1 27 1
M  V30 31 1 28 1
M  V30 32 1 29 2
M  V30 33 1 3 30 CFG=3
M  V30 34 1 31 6
M  V30 35 1 32 7
M  V30 36 1 33 10
M  V30 37 1 34 11
M  V30 38 1 35 17
M  V30 39 1 36 18
M  V30 40 1 37 19
M  V30 41 1 38 20
M  V30 42 1 39 21
M  V30 43 1 22 40 CFG=3
M  V30 44 1 41 23
M  V30 45 1 42 23
M  V30 46 1 43 24
M  V30 47 1 44 24
M  V30 48 1 45 25
M  V30 49 1 46 2
M  V30 END BOND
M  V30 END CTAB
M  END
>  <b_m_subgroup_collapsed>  (1361) 
0

>  <r_i_docking_score>  (1361) 
-7.2132019208119003

>  <s_m_subgroup_title>  (1361) 
glide-dock_SP_D22_pv

>  <s_m_subgroupid>  (1361) 
glide-dock_SP_D22_pv

>  <Molecule ChEMBL ID>  (1361) 
CHEMBL3895173

>  <Standard Type>  (1361) 
Ki

>  <Standard Value>  (1361) 
10000.0

>  <label>  (1361) 
0

$$$$
CHEMBL3182733
     RDKit          3D

  0  0  0  0  0  0  0  0  0  0999 V3000
M  V30 BEGIN CTAB
M  V30 COUNTS 32 33 0 0 1
M  V30 BEGIN ATOM
M  V30 1 C 9.257012 7.956184 -12.094729 0
M  V30 2 C 9.285662 8.070524 -10.568579 0
M  V30 3 C 9.120711 6.706028 -9.869513 0
M  V30 4 N 8.886050 6.811333 -8.410025 0 CHG=1
M  V30 5 C 9.957308 7.470212 -7.621979 0 CFG=1
M  V30 6 C 9.621001 8.949406 -7.314421 0
M  V30 7 C 10.782316 9.661873 -6.584237 0
M  V30 8 C 11.248307 8.838524 -5.429614 0
M  V30 9 N 11.868320 9.401847 -4.313779 0
M  V30 10 C 12.117381 8.489082 -3.376983 0
M  V30 11 N 12.659879 8.772743 -2.138794 0
M  V30 12 S 11.686057 6.851838 -3.845940 0
M  V30 13 C 11.038755 7.489169 -5.334572 0
M  V30 14 C 10.265969 6.679146 -6.327075 0
M  V30 15 H 9.292631 8.942562 -12.558641 0
M  V30 16 H 10.101789 7.374153 -12.463937 0
M  V30 17 H 8.338819 7.473760 -12.432510 0
M  V30 18 H 8.486251 8.745704 -10.264423 0
M  V30 19 H 10.220448 8.544255 -10.268003 0
M  V30 20 H 9.994510 6.079576 -10.054097 0
M  V30 21 H 8.265610 6.175804 -10.292725 0
M  V30 22 H 8.783219 5.867408 -8.068117 0
M  V30 23 H 10.875395 7.461373 -8.212602 0
M  V30 24 H 9.365550 9.496230 -8.219206 0
M  V30 25 H 8.729496 8.972326 -6.685260 0
M  V30 26 H 10.486324 10.655096 -6.248168 0
M  V30 27 H 11.609430 9.806022 -7.279423 0
M  V30 28 H 12.855206 9.729442 -1.869423 0
M  V30 29 H 12.649472 8.087119 -1.400505 0
M  V30 30 H 10.816384 5.772333 -6.574786 0
M  V30 31 H 9.333228 6.367223 -5.855450 0
M  V30 32 H 7.988605 7.271569 -8.259514 0
M  V30 END ATOM
M  V30 BEGIN BOND
M  V30 1 1 2 1
M  V30 2 1 3 2
M  V30 3 1 4 3
M  V30 4 1 5 4
M  V30 5 1 6 5
M  V30 6 1 7 6
M  V30 7 1 8 7
M  V30 8 1 9 8
M  V30 9 2 10 9
M  V30 10 1 11 10
M  V30 11 1 12 10
M  V30 12 2 13 8
M  V30 13 1 13 12
M  V30 14 1 14 5
M  V30 15 1 14 13
M  V30 16 1 15 1
M  V30 17 1 16 1
M  V30 18 1 17 1
M  V30 19 1 18 2
M  V30 20 1 19 2
M  V30 21 1 20 3
M  V30 22 1 21 3
M  V30 23 1 22 4
M  V30 24 1 5 23 CFG=3
M  V30 25 1 24 6
M  V30 26 1 25 6
M  V30 27 1 26 7
M  V30 28 1 27 7
M  V30 29 1 28 11
M  V30 30 1 29 11
M  V30 31 1 30 14
M  V30 32 1 31 14
M  V30 33 1 32 4
M  V30 END BOND
M  V30 END CTAB
M  END
>  <b_m_subgroup_collapsed>  (1362) 
0

>  <r_i_docking_score>  (1362) 
-7.2128093094821901

>  <s_m_subgroup_title>  (1362) 
glide-dock_SP_D22_pv

>  <s_m_subgroupid>  (1362) 
glide-dock_SP_D22_pv

>  <Molecule ChEMBL ID>  (1362) 
CHEMBL3182733

>  <Standard Type>  (1362) 
Ki

>  <Standard Value>  (1362) 
3.9

>  <label>  (1362) 
1

$$$$
CHEMBL573791
     RDKit          3D

  0  0  0  0  0  0  0  0  0  0999 V3000
M  V30 BEGIN CTAB
M  V30 COUNTS 58 61 0 0 1
M  V30 BEGIN ATOM
M  V30 1 C 9.579119 -0.441179 -15.869135 0
M  V30 2 O 10.221303 0.805650 -15.667898 0
M  V30 3 C 11.071513 1.275444 -16.647825 0
M  V30 4 C 11.440619 0.502500 -17.779840 0
M  V30 5 C 12.289581 1.031708 -18.768444 0
M  V30 6 C 12.776662 2.343153 -18.646542 0
M  V30 7 C 12.418482 3.119577 -17.530306 0
M  V30 8 C 11.580463 2.595654 -16.522110 0
M  V30 9 N 11.276121 3.421461 -15.425127 0
M  V30 10 C 11.293474 2.949494 -14.046851 0
M  V30 11 C 9.891278 3.027508 -13.409636 0
M  V30 12 N 9.361583 4.383439 -13.545880 0
M  V30 13 C 8.097775 4.522379 -12.826230 0
M  V30 14 C 7.744343 6.002002 -12.563923 0
M  V30 15 N 8.485950 6.576668 -11.447206 0
M  V30 16 C 9.753836 7.013029 -11.480811 0
M  V30 17 O 10.485923 6.922236 -12.464931 0
M  V30 18 C 10.221128 7.684202 -10.242388 0
M  V30 19 C 9.875813 7.401804 -8.949121 0
M  V30 20 N 10.733693 8.196538 -8.208520 0
M  V30 21 C 10.962564 8.192881 -6.816320 0
M  V30 22 C 10.887109 6.971958 -6.120179 0
M  V30 23 C 11.286005 6.897438 -4.775234 0
M  V30 24 C 11.743724 8.046305 -4.094998 0
M  V30 25 N 12.230819 7.940903 -2.708235 0 CHG=1
M  V30 26 O 12.394739 6.817421 -2.246730 0
M  V30 27 O 12.473641 8.972478 -2.092206 0 CHG=-1
M  V30 28 C 11.752405 9.283459 -4.776686 0
M  V30 29 C 11.372301 9.359003 -6.131573 0
M  V30 30 N 11.502069 8.966659 -9.013489 0
M  V30 31 N 11.225139 8.648208 -10.233194 0
M  V30 32 C 9.225204 4.676258 -14.975314 0
M  V30 33 C 10.614787 4.700052 -15.639145 0
M  V30 34 H 8.888405 -0.625704 -15.047437 0
M  V30 35 H 8.998954 -0.451495 -16.793192 0
M  V30 36 H 10.297512 -1.259787 -15.882024 0
M  V30 37 H 11.086010 -0.507043 -17.915407 0
M  V30 38 H 12.564412 0.430522 -19.622606 0
M  V30 39 H 13.427160 2.754016 -19.404650 0
M  V30 40 H 12.807954 4.122753 -17.437593 0
M  V30 41 H 11.685399 1.935527 -13.981647 0
M  V30 42 H 11.980209 3.589678 -13.491879 0
M  V30 43 H 9.211411 2.301266 -13.856192 0
M  V30 44 H 9.969913 2.792120 -12.349607 0
M  V30 45 H 7.301921 4.034460 -13.390943 0
M  V30 46 H 8.155568 4.008595 -11.865642 0
M  V30 47 H 7.855881 6.629290 -13.446288 0
M  V30 48 H 6.690010 6.063698 -12.292295 0
M  V30 49 H 7.914837 6.853076 -10.649655 0
M  V30 50 H 9.173306 6.700061 -8.521453 0
M  V30 51 H 10.582987 6.069526 -6.629530 0
M  V30 52 H 11.257339 5.938709 -4.277666 0
M  V30 53 H 12.093215 10.171310 -4.270632 0
M  V30 54 H 11.434318 10.306270 -6.647582 0
M  V30 55 H 8.595241 3.921057 -15.446467 0
M  V30 56 H 8.744046 5.639332 -15.120434 0
M  V30 57 H 11.224789 5.495353 -15.209257 0
M  V30 58 H 10.513809 4.913969 -16.703451 0
M  V30 END ATOM
M  V30 BEGIN BOND
M  V30 1 1 2 1
M  V30 2 1 3 2
M  V30 3 2 4 3
M  V30 4 1 5 4
M  V30 5 2 6 5
M  V30 6 1 7 6
M  V30 7 1 8 3
M  V30 8 2 8 7
M  V30 9 1 9 8
M  V30 10 1 10 9
M  V30 11 1 11 10
M  V30 12 1 12 11
M  V30 13 1 13 12
M  V30 14 1 14 13
M  V30 15 1 15 14
M  V30 16 1 16 15
M  V30 17 2 17 16
M  V30 18 1 18 16
M  V30 19 2 19 18
M  V30 20 1 20 19
M  V30 21 1 21 20
M  V30 22 1 22 21
M  V30 23 2 23 22
M  V30 24 1 24 23
M  V30 25 1 25 24
M  V30 26 2 26 25
M  V30 27 1 27 25
M  V30 28 2 28 24
M  V30 29 2 29 21
M  V30 30 1 29 28
M  V30 31 1 30 20
M  V30 32 1 31 18
M  V30 33 2 31 30
M  V30 34 1 32 12
M  V30 35 1 33 9
M  V30 36 1 33 32
M  V30 37 1 34 1
M  V30 38 1 35 1
M  V30 39 1 36 1
M  V30 40 1 37 4
M  V30 41 1 38 5
M  V30 42 1 39 6
M  V30 43 1 40 7
M  V30 44 1 41 10
M  V30 45 1 42 10
M  V30 46 1 43 11
M  V30 47 1 44 11
M  V30 48 1 45 13
M  V30 49 1 46 13
M  V30 50 1 47 14
M  V30 51 1 48 14
M  V30 52 1 49 15
M  V30 53 1 50 19
M  V30 54 1 51 22
M  V30 55 1 52 23
M  V30 56 1 53 28
M  V30 57 1 54 29
M  V30 58 1 55 32
M  V30 59 1 56 32
M  V30 60 1 57 33
M  V30 61 1 58 33
M  V30 END BOND
M  V30 END CTAB
M  END
>  <b_m_subgroup_collapsed>  (1363) 
0

>  <r_i_docking_score>  (1363) 
-7.21235724816942

>  <s_m_subgroup_title>  (1363) 
glide-dock_SP_D22_pv

>  <s_m_subgroupid>  (1363) 
glide-dock_SP_D22_pv

>  <Molecule ChEMBL ID>  (1363) 
CHEMBL573791

>  <Standard Type>  (1363) 
Ki

>  <Standard Value>  (1363) 
6.5

>  <label>  (1363) 
1

$$$$
CHEMBL187420
     RDKit          3D

  0  0  0  0  0  0  0  0  0  0999 V3000
M  V30 BEGIN CTAB
M  V30 COUNTS 46 48 0 0 1
M  V30 BEGIN ATOM
M  V30 1 C 12.455327 8.167838 -2.892403 0
M  V30 2 C 12.084194 6.941317 -3.473304 0
M  V30 3 C 11.303191 6.921629 -4.647588 0
M  V30 4 C 10.886264 8.127048 -5.248768 0
M  V30 5 C 10.012506 8.087704 -6.499660 0
M  V30 6 C 10.804594 8.006166 -7.802576 0
M  V30 7 C 12.098050 8.572241 -7.842488 0
M  V30 8 C 12.877777 8.509512 -8.999594 0
M  V30 9 C 12.352962 7.943639 -10.167891 0
M  V30 10 C 11.071895 7.375700 -10.146507 0
M  V30 11 C 10.284446 7.383879 -8.972763 0
M  V30 12 N 8.993429 6.833646 -8.973029 0
M  V30 13 C 8.608043 5.651280 -9.736996 0
M  V30 14 C 8.359666 5.888637 -11.242356 0
M  V30 15 N 7.359674 4.934803 -11.782349 0 CHG=1
M  V30 16 C 6.075377 5.533786 -12.197831 0
M  V30 17 C 5.427279 4.509493 -13.142557 0
M  V30 18 C 6.540855 3.526656 -13.520758 0
M  V30 19 C 7.815440 4.130545 -12.933331 0
M  V30 20 C 11.284904 9.356851 -4.673128 0
M  V30 21 C 12.058287 9.372866 -3.496329 0
M  V30 22 H 13.038916 8.187859 -1.984528 0
M  V30 23 H 12.390307 6.013645 -3.013537 0
M  V30 24 H 11.016688 5.973462 -5.076884 0
M  V30 25 H 9.338470 7.234309 -6.409451 0
M  V30 26 H 9.377297 8.972450 -6.532603 0
M  V30 27 H 12.527748 9.063142 -6.983769 0
M  V30 28 H 13.856694 8.965856 -9.001775 0
M  V30 29 H 12.923427 7.951725 -11.084207 0
M  V30 30 H 10.718769 6.969417 -11.072540 0
M  V30 31 H 8.283625 7.208233 -8.346691 0
M  V30 32 H 9.341327 4.857168 -9.589247 0
M  V30 33 H 7.686369 5.305555 -9.272217 0
M  V30 34 H 8.083681 6.923073 -11.445748 0
M  V30 35 H 9.286383 5.721744 -11.785785 0
M  V30 36 H 5.443064 5.772845 -11.343738 0
M  V30 37 H 6.254559 6.465640 -12.736732 0
M  V30 38 H 4.617498 3.974976 -12.646563 0
M  V30 39 H 5.001686 4.992182 -14.021669 0
M  V30 40 H 6.341238 2.555631 -13.063994 0
M  V30 41 H 6.618669 3.372718 -14.597333 0
M  V30 42 H 8.276726 4.787421 -13.674139 0
M  V30 43 H 8.549756 3.372704 -12.650188 0
M  V30 44 H 10.980390 10.290465 -5.123281 0
M  V30 45 H 12.337513 10.312938 -3.045630 0
M  V30 46 H 7.129254 4.292571 -11.034446 0
M  V30 END ATOM
M  V30 BEGIN BOND
M  V30 1 2 2 1
M  V30 2 1 3 2
M  V30 3 2 4 3
M  V30 4 1 5 4
M  V30 5 1 6 5
M  V30 6 2 7 6
M  V30 7 1 8 7
M  V30 8 2 9 8
M  V30 9 1 10 9
M  V30 10 1 11 6
M  V30 11 2 11 10
M  V30 12 1 12 11
M  V30 13 1 13 12
M  V30 14 1 14 13
M  V30 15 1 15 14
M  V30 16 1 16 15
M  V30 17 1 17 16
M  V30 18 1 18 17
M  V30 19 1 19 15
M  V30 20 1 19 18
M  V30 21 1 20 4
M  V30 22 1 21 1
M  V30 23 2 21 20
M  V30 24 1 22 1
M  V30 25 1 23 2
M  V30 26 1 24 3
M  V30 27 1 25 5
M  V30 28 1 26 5
M  V30 29 1 27 7
M  V30 30 1 28 8
M  V30 31 1 29 9
M  V30 32 1 30 10
M  V30 33 1 31 12
M  V30 34 1 32 13
M  V30 35 1 33 13
M  V30 36 1 34 14
M  V30 37 1 35 14
M  V30 38 1 36 16
M  V30 39 1 37 16
M  V30 40 1 38 17
M  V30 41 1 39 17
M  V30 42 1 40 18
M  V30 43 1 41 18
M  V30 44 1 42 19
M  V30 45 1 43 19
M  V30 46 1 44 20
M  V30 47 1 45 21
M  V30 48 1 46 15
M  V30 END BOND
M  V30 END CTAB
M  END
>  <b_m_subgroup_collapsed>  (1364) 
0

>  <r_i_docking_score>  (1364) 
-7.21008087342413

>  <s_m_subgroup_title>  (1364) 
glide-dock_SP_D22_pv

>  <s_m_subgroupid>  (1364) 
glide-dock_SP_D22_pv

>  <Molecule ChEMBL ID>  (1364) 
CHEMBL187420

>  <Standard Type>  (1364) 
Ki

>  <Standard Value>  (1364) 
10000.0

>  <label>  (1364) 
0

$$$$
CHEMBL157035
     RDKit          3D

  0  0  0  0  0  0  0  0  0  0999 V3000
M  V30 BEGIN CTAB
M  V30 COUNTS 67 70 0 0 1
M  V30 BEGIN ATOM
M  V30 1 C 6.385896 1.667108 -13.969623 0
M  V30 2 C 7.553486 1.892583 -14.248382 0
M  V30 3 C 8.974724 2.161801 -14.538478 0
M  V30 4 N 9.326569 3.590140 -14.506774 0
M  V30 5 C 9.174129 4.120028 -13.142234 0
M  V30 6 C 8.201739 5.314939 -13.119095 0
M  V30 7 C 8.100913 5.992808 -11.742873 0
M  V30 8 C 9.470268 6.435067 -11.188633 0
M  V30 9 N 9.400641 7.298701 -9.984264 0 CHG=1
M  V30 10 C 8.892064 6.592391 -8.779084 0
M  V30 11 C 8.812810 7.552118 -7.579032 0
M  V30 12 N 10.074822 8.235658 -7.361857 0
M  V30 13 C 10.796516 7.944347 -6.193464 0
M  V30 14 C 11.075686 6.612408 -5.864918 0
M  V30 15 C 11.686456 6.336885 -4.634567 0
M  V30 16 C 12.027626 7.309201 -3.709872 0
M  V30 17 C 11.754211 8.625956 -4.029092 0
M  V30 18 Cl 12.085441 9.772331 -2.813906 0
M  V30 19 C 11.179597 8.949463 -5.276133 0
M  V30 20 Cl 10.886533 10.574280 -5.642165 0
M  V30 21 C 10.700380 8.882915 -8.503525 0
M  V30 22 C 10.721205 7.946610 -9.725274 0
M  V30 23 C 10.693817 3.864416 -15.006559 0 CFG=2
M  V30 24 C 10.931046 5.385234 -15.146235 0
M  V30 25 C 12.379614 5.715859 -15.506063 0
M  V30 26 C 12.916737 4.878223 -16.647581 0
M  V30 27 C 14.080431 5.311525 -17.314444 0
M  V30 28 C 14.629980 4.537827 -18.351759 0
M  V30 29 C 14.025814 3.321912 -18.720711 0
M  V30 30 O 14.584807 2.562798 -19.708157 0
M  V30 31 C 12.851878 2.894466 -18.070236 0
M  V30 32 C 12.289856 3.667746 -17.031376 0
M  V30 33 C 11.008563 3.185153 -16.362700 0
M  V30 34 H 5.363002 1.475055 -13.734972 0
M  V30 35 H 9.595847 1.593231 -13.847015 0
M  V30 36 H 9.119850 1.739901 -15.530365 0
M  V30 37 H 8.811930 3.373852 -12.441315 0
M  V30 38 H 10.148272 4.396674 -12.745238 0
M  V30 39 H 8.489571 6.066557 -13.853191 0
M  V30 40 H 7.210051 4.975547 -13.422453 0
M  V30 41 H 7.454512 6.863770 -11.851208 0
M  V30 42 H 7.602748 5.317763 -11.045429 0
M  V30 43 H 10.076981 5.563742 -10.942637 0
M  V30 44 H 9.995855 6.975072 -11.978337 0
M  V30 45 H 7.905127 6.172161 -8.970551 0
M  V30 46 H 9.547465 5.752804 -8.544185 0
M  V30 47 H 8.085976 8.336209 -7.774400 0
M  V30 48 H 8.474675 7.027343 -6.683227 0
M  V30 49 H 10.827549 5.804204 -6.536358 0
M  V30 50 H 11.982071 5.372363 -4.357368 0
M  V30 51 H 12.485934 7.043339 -2.768335 0
M  V30 52 H 10.121739 9.770399 -8.750308 0
M  V30 53 H 11.710155 9.215241 -8.258826 0
M  V30 54 H 11.469497 7.168521 -9.564445 0
M  V30 55 H 11.041039 8.512641 -10.601215 0
M  V30 56 H 11.408005 3.472035 -14.279179 0
M  V30 57 H 10.268281 5.771699 -15.921356 0
M  V30 58 H 10.702087 5.933197 -14.236161 0
M  V30 59 H 13.019506 5.545341 -14.640069 0
M  V30 60 H 12.465200 6.774154 -15.755415 0
M  V30 61 H 14.561000 6.234568 -17.023417 0
M  V30 62 H 15.521889 4.872817 -18.859018 0
M  V30 63 H 14.052277 1.819985 -19.953695 0
M  V30 64 H 12.379510 1.967359 -18.361591 0
M  V30 65 H 11.106462 2.107550 -16.229275 0
M  V30 66 H 10.189927 3.352960 -17.063425 0
M  V30 67 H 8.718094 8.021575 -10.180908 0
M  V30 END ATOM
M  V30 BEGIN BOND
M  V30 1 3 2 1
M  V30 2 1 3 2
M  V30 3 1 4 3
M  V30 4 1 5 4
M  V30 5 1 6 5
M  V30 6 1 7 6
M  V30 7 1 8 7
M  V30 8 1 9 8
M  V30 9 1 10 9
M  V30 10 1 11 10
M  V30 11 1 12 11
M  V30 12 1 13 12
M  V30 13 2 14 13
M  V30 14 1 15 14
M  V30 15 2 16 15
M  V30 16 1 17 16
M  V30 17 1 18 17
M  V30 18 1 19 13
M  V30 19 2 19 17
M  V30 20 1 20 19
M  V30 21 1 21 12
M  V30 22 1 22 9
M  V30 23 1 22 21
M  V30 24 1 23 4
M  V30 25 1 24 23
M  V30 26 1 25 24
M  V30 27 1 26 25
M  V30 28 1 27 26
M  V30 29 2 28 27
M  V30 30 1 29 28
M  V30 31 1 30 29
M  V30 32 2 31 29
M  V30 33 2 32 26
M  V30 34 1 32 31
M  V30 35 1 33 23
M  V30 36 1 33 32
M  V30 37 1 34 1
M  V30 38 1 35 3
M  V30 39 1 36 3
M  V30 40 1 37 5
M  V30 41 1 38 5
M  V30 42 1 39 6
M  V30 43 1 40 6
M  V30 44 1 41 7
M  V30 45 1 42 7
M  V30 46 1 43 8
M  V30 47 1 44 8
M  V30 48 1 45 10
M  V30 49 1 46 10
M  V30 50 1 47 11
M  V30 51 1 48 11
M  V30 52 1 49 14
M  V30 53 1 50 15
M  V30 54 1 51 16
M  V30 55 1 52 21
M  V30 56 1 53 21
M  V30 57 1 54 22
M  V30 58 1 55 22
M  V30 59 1 23 56 CFG=1
M  V30 60 1 57 24
M  V30 61 1 58 24
M  V30 62 1 59 25
M  V30 63 1 60 25
M  V30 64 1 61 27
M  V30 65 1 62 28
M  V30 66 1 63 30
M  V30 67 1 64 31
M  V30 68 1 65 33
M  V30 69 1 66 33
M  V30 70 1 67 9
M  V30 END BOND
M  V30 END CTAB
M  END
>  <b_m_subgroup_collapsed>  (1365) 
0

>  <r_i_docking_score>  (1365) 
-7.2098809290650197

>  <s_m_subgroup_title>  (1365) 
glide-dock_SP_D22_pv

>  <s_m_subgroupid>  (1365) 
glide-dock_SP_D22_pv

>  <Molecule ChEMBL ID>  (1365) 
CHEMBL157035

>  <Standard Type>  (1365) 
Ki

>  <Standard Value>  (1365) 
7.37

>  <label>  (1365) 
1

$$$$
CHEMBL3287404
     RDKit          3D

  0  0  0  0  0  0  0  0  0  0999 V3000
M  V30 BEGIN CTAB
M  V30 COUNTS 57 60 0 0 1
M  V30 BEGIN ATOM
M  V30 1 O 4.084444 -2.627531 -17.200823 0
M  V30 2 N 4.643009 -1.677669 -16.292038 0
M  V30 3 C 5.618483 -1.134629 -16.891766 0
M  V30 4 C 6.471227 -0.055262 -16.356165 0
M  V30 5 C 7.571059 0.428269 -17.116817 0
M  V30 6 C 8.097104 1.441999 -16.366854 0
M  V30 7 C 9.166821 2.363380 -16.505844 0
M  V30 8 C 9.384708 3.318596 -15.536650 0
M  V30 9 O 10.410813 4.206778 -15.774508 0
M  V30 10 C 10.464458 5.418076 -15.030750 0
M  V30 11 C 11.410934 5.290059 -13.829828 0
M  V30 12 C 11.476342 6.556820 -12.952856 0
M  V30 13 C 10.370502 6.598244 -11.870078 0
M  V30 14 N 10.511280 7.691412 -10.865259 0 CHG=1
M  V30 15 C 9.343584 7.724774 -9.948748 0
M  V30 16 C 9.429636 8.821030 -8.860490 0
M  V30 17 N 10.760759 8.960965 -8.268291 0
M  V30 18 C 11.006704 8.450994 -6.979632 0
M  V30 19 C 10.905984 7.070795 -6.723717 0
M  V30 20 C 11.285694 6.572274 -5.466642 0
M  V30 21 C 11.684816 7.409407 -4.425650 0
M  V30 22 C 11.713835 8.785686 -4.644114 0
M  V30 23 Cl 12.085407 9.772138 -3.288510 0
M  V30 24 C 11.440241 9.304104 -5.932562 0
M  V30 25 Cl 11.686030 10.972127 -6.246846 0
M  V30 26 C 11.883861 8.878632 -9.185838 0
M  V30 27 C 11.758323 7.637747 -10.074300 0
M  V30 28 C 8.544675 3.351237 -14.383203 0
M  V30 29 C 7.505533 2.459399 -14.246901 0
M  V30 30 N 7.301308 1.526426 -15.211630 0
M  V30 31 N 6.319129 0.571673 -15.207276 0
M  V30 32 H 3.539438 -3.204117 -16.646544 0
M  V30 33 H 5.886431 -1.462118 -17.901415 0
M  V30 34 H 7.904974 0.076371 -18.081377 0
M  V30 35 H 9.793005 2.324116 -17.390488 0
M  V30 36 H 10.857408 6.180845 -15.703207 0
M  V30 37 H 9.476094 5.771289 -14.737607 0
M  V30 38 H 11.143285 4.424013 -13.223510 0
M  V30 39 H 12.409493 5.078301 -14.214931 0
M  V30 40 H 12.465730 6.562255 -12.502520 0
M  V30 41 H 11.439967 7.452711 -13.573126 0
M  V30 42 H 9.406134 6.706218 -12.369207 0
M  V30 43 H 10.322167 5.646438 -11.341430 0
M  V30 44 H 8.486215 7.911095 -10.578300 0
M  V30 45 H 9.203048 6.749195 -9.481046 0
M  V30 46 H 9.175464 9.770663 -9.321574 0
M  V30 47 H 8.677240 8.647295 -8.089051 0
M  V30 48 H 10.590919 6.382171 -7.492599 0
M  V30 49 H 11.283675 5.522216 -5.269221 0
M  V30 50 H 11.932663 6.997674 -3.457935 0
M  V30 51 H 11.894618 9.772218 -9.808540 0
M  V30 52 H 12.828495 8.862912 -8.639135 0
M  V30 53 H 11.686486 6.734445 -9.470757 0
M  V30 54 H 12.646955 7.585033 -10.695368 0
M  V30 55 H 8.697403 4.076429 -13.592079 0
M  V30 56 H 6.822674 2.451712 -13.405634 0
M  V30 57 H 10.514111 8.568334 -11.365144 0
M  V30 END ATOM
M  V30 BEGIN BOND
M  V30 1 1 2 1
M  V30 2 2 3 2
M  V30 3 1 4 3
M  V30 4 1 5 4
M  V30 5 2 6 5
M  V30 6 1 7 6
M  V30 7 2 8 7
M  V30 8 1 9 8
M  V30 9 1 10 9
M  V30 10 1 11 10
M  V30 11 1 12 11
M  V30 12 1 13 12
M  V30 13 1 14 13
M  V30 14 1 15 14
M  V30 15 1 16 15
M  V30 16 1 17 16
M  V30 17 1 18 17
M  V30 18 2 19 18
M  V30 19 1 20 19
M  V30 20 2 21 20
M  V30 21 1 22 21
M  V30 22 1 23 22
M  V30 23 1 24 18
M  V30 24 2 24 22
M  V30 25 1 25 24
M  V30 26 1 26 17
M  V30 27 1 27 14
M  V30 28 1 27 26
M  V30 29 1 28 8
M  V30 30 2 29 28
M  V30 31 1 30 6
M  V30 32 1 30 29
M  V30 33 2 31 4
M  V30 34 1 31 30
M  V30 35 1 32 1
M  V30 36 1 33 3
M  V30 37 1 34 5
M  V30 38 1 35 7
M  V30 39 1 36 10
M  V30 40 1 37 10
M  V30 41 1 38 11
M  V30 42 1 39 11
M  V30 43 1 40 12
M  V30 44 1 41 12
M  V30 45 1 42 13
M  V30 46 1 43 13
M  V30 47 1 44 15
M  V30 48 1 45 15
M  V30 49 1 46 16
M  V30 50 1 47 16
M  V30 51 1 48 19
M  V30 52 1 49 20
M  V30 53 1 50 21
M  V30 54 1 51 26
M  V30 55 1 52 26
M  V30 56 1 53 27
M  V30 57 1 54 27
M  V30 58 1 55 28
M  V30 59 1 56 29
M  V30 60 1 57 14
M  V30 END BOND
M  V30 END CTAB
M  END
>  <b_m_subgroup_collapsed>  (1366) 
0

>  <r_i_docking_score>  (1366) 
-7.2088611882955496

>  <s_m_subgroup_title>  (1366) 
glide-dock_SP_D22_pv

>  <s_m_subgroupid>  (1366) 
glide-dock_SP_D22_pv

>  <Molecule ChEMBL ID>  (1366) 
CHEMBL3287404

>  <Standard Type>  (1366) 
Ki

>  <Standard Value>  (1366) 
2.3

>  <label>  (1366) 
1

$$$$
CHEMBL252539
     RDKit          3D

  0  0  0  0  0  0  0  0  0  0999 V3000
M  V30 BEGIN CTAB
M  V30 COUNTS 65 68 0 0 1
M  V30 BEGIN ATOM
M  V30 1 C 12.609895 8.446340 -11.442783 0
M  V30 2 C 11.241052 8.565243 -10.771902 0
M  V30 3 C 10.812492 7.172624 -10.304830 0
M  V30 4 N 9.594788 7.137772 -9.440591 0 CFG=1 CHG=1
M  V30 5 C 8.718361 5.962910 -9.765729 0
M  V30 6 C 8.121469 5.937266 -11.211996 0
M  V30 7 N 8.968296 5.355865 -12.264898 0
M  V30 8 C 8.337431 5.516200 -13.584635 0
M  V30 9 C 9.299011 5.019120 -14.692663 0
M  V30 10 N 9.591915 3.613639 -14.460803 0
M  V30 11 C 10.052755 2.754543 -15.473591 0
M  V30 12 C 9.392491 1.512059 -15.594864 0
M  V30 13 C 9.812737 0.555543 -16.537090 0
M  V30 14 C 10.898005 0.843929 -17.381193 0
M  V30 15 C 11.573878 2.073108 -17.268778 0
M  V30 16 Cl 12.906377 2.382466 -18.322924 0
M  V30 17 C 11.170979 3.028707 -16.305338 0
M  V30 18 Cl 12.090588 4.484673 -16.132275 0
M  V30 19 C 10.171666 3.384754 -13.154042 0
M  V30 20 C 9.232877 3.928051 -12.062181 0
M  V30 21 C 9.890211 7.237895 -7.959278 0 CFG=1
M  V30 22 C 11.012296 6.294700 -7.496062 0
M  V30 23 C 11.141514 6.232152 -5.984912 0
M  V30 24 C 11.209191 7.580230 -5.326976 0
M  V30 25 C 11.687054 7.670182 -3.998464 0
M  V30 26 O 12.085724 6.571857 -3.294114 0
M  V30 27 C 11.731842 8.911104 -3.355921 0
M  V30 28 C 11.286177 10.048988 -4.034551 0
M  V30 29 C 10.827947 9.978161 -5.361258 0
M  V30 30 C 10.751963 8.732734 -6.013064 0
M  V30 31 C 10.210477 8.667723 -7.444498 0
M  V30 32 H 12.984072 9.379889 -11.845948 0
M  V30 33 H 13.308385 8.166211 -10.667282 0
M  V30 34 H 12.627943 7.697487 -12.236682 0
M  V30 35 H 10.482630 8.963971 -11.442458 0
M  V30 36 H 11.332823 9.297725 -9.980890 0
M  V30 37 H 11.639077 6.606177 -9.886137 0
M  V30 38 H 10.656789 6.643334 -11.230764 0
M  V30 39 H 9.227540 5.034658 -9.514501 0
M  V30 40 H 7.858446 5.996759 -9.094016 0
M  V30 41 H 7.180013 5.384292 -11.190671 0
M  V30 42 H 7.865787 6.955163 -11.503759 0
M  V30 43 H 7.397359 4.962361 -13.623938 0
M  V30 44 H 8.085387 6.561039 -13.760122 0
M  V30 45 H 8.884564 5.158446 -15.688871 0
M  V30 46 H 10.216795 5.605433 -14.649755 0
M  V30 47 H 8.559604 1.282021 -14.947605 0
M  V30 48 H 9.304245 -0.396785 -16.609375 0
M  V30 49 H 11.219925 0.115249 -18.109688 0
M  V30 50 H 10.343198 2.316657 -13.047818 0
M  V30 51 H 11.142490 3.877450 -13.083944 0
M  V30 52 H 9.698812 3.750683 -11.096527 0
M  V30 53 H 8.287057 3.391680 -12.091250 0
M  V30 54 H 8.982444 6.938177 -7.431627 0
M  V30 55 H 11.966680 6.683313 -7.843831 0
M  V30 56 H 10.885365 5.293353 -7.902021 0
M  V30 57 H 12.028493 5.656190 -5.723193 0
M  V30 58 H 10.262481 5.772686 -5.555084 0
M  V30 59 H 11.838117 5.750635 -3.691679 0
M  V30 60 H 12.077752 8.990238 -2.335392 0
M  V30 61 H 11.288427 10.972292 -3.499060 0
M  V30 62 H 10.487132 10.875297 -5.856304 0
M  V30 63 H 9.333942 9.308977 -7.542342 0
M  V30 64 H 11.004382 9.124587 -8.019124 0
M  V30 65 H 9.020881 7.934092 -9.685196 0
M  V30 END ATOM
M  V30 BEGIN BOND
M  V30 1 1 2 1
M  V30 2 1 3 2
M  V30 3 1 4 3
M  V30 4 1 5 4
M  V30 5 1 6 5
M  V30 6 1 7 6
M  V30 7 1 8 7
M  V30 8 1 9 8
M  V30 9 1 10 9
M  V30 10 1 11 10
M  V30 11 2 12 11
M  V30 12 1 13 12
M  V30 13 2 14 13
M  V30 14 1 15 14
M  V30 15 1 16 15
M  V30 16 1 17 11
M  V30 17 2 17 15
M  V30 18 1 18 17
M  V30 19 1 19 10
M  V30 20 1 20 7
M  V30 21 1 20 19
M  V30 22 1 21 4
M  V30 23 1 22 21
M  V30 24 1 23 22
M  V30 25 1 24 23
M  V30 26 2 25 24
M  V30 27 1 26 25
M  V30 28 1 27 25
M  V30 29 2 28 27
M  V30 30 1 29 28
M  V30 31 1 30 24
M  V30 32 2 30 29
M  V30 33 1 31 21
M  V30 34 1 31 30
M  V30 35 1 32 1
M  V30 36 1 33 1
M  V30 37 1 34 1
M  V30 38 1 35 2
M  V30 39 1 36 2
M  V30 40 1 37 3
M  V30 41 1 38 3
M  V30 42 1 39 5
M  V30 43 1 40 5
M  V30 44 1 41 6
M  V30 45 1 42 6
M  V30 46 1 43 8
M  V30 47 1 44 8
M  V30 48 1 45 9
M  V30 49 1 46 9
M  V30 50 1 47 12
M  V30 51 1 48 13
M  V30 52 1 49 14
M  V30 53 1 50 19
M  V30 54 1 51 19
M  V30 55 1 52 20
M  V30 56 1 53 20
M  V30 57 1 21 54 CFG=1
M  V30 58 1 55 22
M  V30 59 1 56 22
M  V30 60 1 57 23
M  V30 61 1 58 23
M  V30 62 1 59 26
M  V30 63 1 60 27
M  V30 64 1 61 28
M  V30 65 1 62 29
M  V30 66 1 63 31
M  V30 67 1 64 31
M  V30 68 1 4 65 CFG=3
M  V30 END BOND
M  V30 END CTAB
M  END
>  <b_m_subgroup_collapsed>  (1367) 
0

>  <r_i_docking_score>  (1367) 
-7.2084184061670697

>  <s_m_subgroup_title>  (1367) 
glide-dock_SP_D22_pv

>  <s_m_subgroupid>  (1367) 
glide-dock_SP_D22_pv

>  <Molecule ChEMBL ID>  (1367) 
CHEMBL252539

>  <Standard Type>  (1367) 
Ki

>  <Standard Value>  (1367) 
14.6

>  <label>  (1367) 
1

$$$$
CHEMBL5904436
     RDKit          3D

  0  0  0  0  0  0  0  0  0  0999 V3000
M  V30 BEGIN CTAB
M  V30 COUNTS 76 81 0 0 1
M  V30 BEGIN ATOM
M  V30 1 C 9.493129 -1.045807 -19.784151 0
M  V30 2 N 8.208557 -1.079883 -19.120554 0
M  V30 3 C 7.880522 -0.623543 -17.850199 0
M  V30 4 C 6.527986 -0.905386 -17.688557 0
M  V30 5 C 5.629205 -0.714150 -16.609941 0
M  V30 6 C 6.042952 -0.083414 -15.308891 0
M  V30 7 O 5.569453 -0.463574 -14.237587 0
M  V30 8 N 6.885213 0.956748 -15.418387 0
M  V30 9 C 7.408822 1.754926 -14.317174 0 CFG=1
M  V30 10 C 8.771653 2.338852 -14.721289 0
M  V30 11 C 9.374322 3.199610 -13.603456 0
M  V30 12 C 8.440174 4.324530 -13.114023 0 CFG=2
M  V30 13 C 9.066493 4.950871 -11.845581 0
M  V30 14 C 8.277139 6.141755 -11.278296 0
M  V30 15 N 8.886009 6.801175 -10.089540 0 CFG=1 CHG=1
M  V30 16 C 8.718141 6.076988 -8.807696 0
M  V30 17 C 9.059029 7.000074 -7.623135 0
M  V30 18 C 10.488784 7.549566 -7.735234 0 CFG=2
M  V30 19 C 10.802936 8.499582 -6.596532 0
M  V30 20 N 10.513928 9.772305 -6.735931 0
M  V30 21 O 10.886543 10.430704 -5.565540 0
M  V30 22 C 11.344115 9.494184 -4.715250 0
M  V30 23 C 11.286176 8.248524 -5.281265 0
M  V30 24 C 11.614858 6.931635 -4.649461 0
M  V30 25 F 10.485814 6.381301 -4.237134 0
M  V30 26 F 12.096501 6.107065 -5.568134 0
M  V30 27 C 12.605514 7.091318 -3.503369 0
M  V30 28 C 12.282288 7.778019 -2.189767 0
M  V30 29 C 12.418888 6.284696 -2.239909 0
M  V30 30 C 10.699934 8.206737 -9.124698 0
M  V30 31 C 10.272290 7.284522 -10.276436 0
M  V30 32 C 6.983928 3.841017 -12.877467 0
M  V30 33 C 6.434794 2.894101 -13.965387 0
M  V30 34 C 4.304374 -1.188603 -16.771105 0
M  V30 35 C 3.897565 -1.801594 -17.979462 0
M  V30 36 C 4.807216 -1.962795 -19.045036 0
M  V30 37 C 6.125185 -1.511855 -18.866240 0
M  V30 38 N 7.118938 -1.626148 -19.766260 0
M  V30 39 H 10.286798 -1.216035 -19.057055 0
M  V30 40 H 9.541730 -1.822646 -20.547403 0
M  V30 41 H 9.640351 -0.072585 -20.253109 0
M  V30 42 H 8.635432 -0.181492 -17.217592 0
M  V30 43 H 7.174753 1.213122 -16.349667 0
M  V30 44 H 7.539268 1.099469 -13.453676 0
M  V30 45 H 8.665459 2.942612 -15.624166 0
M  V30 46 H 9.466199 1.534691 -14.967408 0
M  V30 47 H 10.316230 3.625927 -13.951571 0
M  V30 48 H 9.646642 2.572472 -12.758100 0
M  V30 49 H 8.405110 5.080943 -13.899630 0
M  V30 50 H 10.079923 5.266781 -12.095309 0
M  V30 51 H 9.164464 4.181933 -11.075651 0
M  V30 52 H 7.271975 5.811284 -11.019559 0
M  V30 53 H 8.155125 6.901273 -12.052036 0
M  V30 54 H 7.686027 5.756564 -8.706480 0
M  V30 55 H 9.338859 5.178692 -8.790586 0
M  V30 56 H 8.937516 6.455752 -6.685620 0
M  V30 57 H 8.353518 7.830820 -7.586529 0
M  V30 58 H 11.170185 6.701003 -7.686899 0
M  V30 59 H 11.640802 9.865993 -3.745615 0
M  V30 60 H 13.601734 7.371865 -3.842148 0
M  V30 61 H 13.075072 8.345426 -1.703860 0
M  V30 62 H 11.284640 8.181447 -2.058292 0
M  V30 63 H 11.479512 5.772558 -2.074062 0
M  V30 64 H 13.286108 5.803728 -1.798874 0
M  V30 65 H 10.115530 9.126239 -9.201948 0
M  V30 66 H 11.744518 8.498705 -9.250485 0
M  V30 67 H 10.365870 7.803497 -11.231298 0
M  V30 68 H 10.927972 6.419764 -10.308049 0
M  V30 69 H 6.888608 3.372208 -11.899796 0
M  V30 70 H 6.326540 4.709765 -12.826941 0
M  V30 71 H 6.206531 3.460065 -14.868625 0
M  V30 72 H 5.483552 2.479253 -13.631039 0
M  V30 73 H 3.588564 -1.089708 -15.967485 0
M  V30 74 H 2.886063 -2.162024 -18.082306 0
M  V30 75 H 4.503456 -2.438845 -19.965872 0
M  V30 76 H 8.278546 7.612839 -9.980387 0
M  V30 END ATOM
M  V30 BEGIN BOND
M  V30 1 1 2 1
M  V30 2 1 3 2
M  V30 3 2 4 3
M  V30 4 1 5 4
M  V30 5 1 6 5
M  V30 6 2 7 6
M  V30 7 1 8 6
M  V30 8 1 9 8
M  V30 9 1 10 9
M  V30 10 1 11 10
M  V30 11 1 12 11
M  V30 12 1 13 12
M  V30 13 1 14 13
M  V30 14 1 15 14
M  V30 15 1 16 15
M  V30 16 1 17 16
M  V30 17 1 18 17
M  V30 18 1 19 18
M  V30 19 2 20 19
M  V30 20 1 21 20
M  V30 21 1 22 21
M  V30 22 1 23 19
M  V30 23 2 23 22
M  V30 24 1 24 23
M  V30 25 1 25 24
M  V30 26 1 26 24
M  V30 27 1 27 24
M  V30 28 1 28 27
M  V30 29 1 29 27
M  V30 30 1 29 28
M  V30 31 1 30 18
M  V30 32 1 31 15
M  V30 33 1 31 30
M  V30 34 1 32 12
M  V30 35 1 33 9
M  V30 36 1 33 32
M  V30 37 2 34 5
M  V30 38 1 35 34
M  V30 39 2 36 35
M  V30 40 1 37 4
M  V30 41 1 37 36
M  V30 42 1 38 2
M  V30 43 2 38 37
M  V30 44 1 39 1
M  V30 45 1 40 1
M  V30 46 1 41 1
M  V30 47 1 42 3
M  V30 48 1 43 8
M  V30 49 1 9 44 CFG=1
M  V30 50 1 45 10
M  V30 51 1 46 10
M  V30 52 1 47 11
M  V30 53 1 48 11
M  V30 54 1 12 49 CFG=3
M  V30 55 1 50 13
M  V30 56 1 51 13
M  V30 57 1 52 14
M  V30 58 1 53 14
M  V30 59 1 54 16
M  V30 60 1 55 16
M  V30 61 1 56 17
M  V30 62 1 57 17
M  V30 63 1 18 58 CFG=3
M  V30 64 1 59 22
M  V30 65 1 60 27
M  V30 66 1 61 28
M  V30 67 1 62 28
M  V30 68 1 63 29
M  V30 69 1 64 29
M  V30 70 1 65 30
M  V30 71 1 66 30
M  V30 72 1 67 31
M  V30 73 1 68 31
M  V30 74 1 69 32
M  V30 75 1 70 32
M  V30 76 1 71 33
M  V30 77 1 72 33
M  V30 78 1 73 34
M  V30 79 1 74 35
M  V30 80 1 75 36
M  V30 81 1 15 76 CFG=1
M  V30 END BOND
M  V30 END CTAB
M  END
>  <b_m_subgroup_collapsed>  (1368) 
0

>  <r_i_docking_score>  (1368) 
-7.2081667380929604

>  <s_m_subgroup_title>  (1368) 
glide-dock_SP_D22_pv

>  <s_m_subgroupid>  (1368) 
glide-dock_SP_D22_pv

>  <Molecule ChEMBL ID>  (1368) 
CHEMBL5904436

>  <Standard Type>  (1368) 
Ki

>  <Standard Value>  (1368) 
45.0

>  <label>  (1368) 
1

$$$$
CHEMBL4592753
     RDKit          3D

  0  0  0  0  0  0  0  0  0  0999 V3000
M  V30 BEGIN CTAB
M  V30 COUNTS 42 44 0 0 1
M  V30 BEGIN ATOM
M  V30 1 O 10.002537 5.933065 -12.379739 0
M  V30 2 C 9.037041 6.545400 -11.927186 0
M  V30 3 C 9.285111 7.812055 -11.115314 0
M  V30 4 N 9.285950 7.540398 -9.656029 0 CHG=1
M  V30 5 C 9.123077 8.787336 -8.869585 0
M  V30 6 C 8.981017 8.454413 -7.383821 0
M  V30 7 N 10.145082 7.696863 -6.941195 0
M  V30 8 C 10.832973 8.060954 -5.765898 0
M  V30 9 C 11.453830 7.099429 -4.936435 0
M  V30 10 C 12.081577 7.523569 -3.748021 0
M  V30 11 C 12.049095 8.888854 -3.410886 0
M  V30 12 C 11.396481 9.771797 -4.291238 0
M  V30 13 N 10.832364 9.376143 -5.446133 0
M  V30 14 C 10.423441 6.465414 -7.666952 0
M  V30 15 C 10.450558 6.728162 -9.187763 0
M  V30 16 N 7.752709 6.171719 -12.066320 0
M  V30 17 C 7.254883 4.970974 -12.643653 0
M  V30 18 C 7.953308 4.191709 -13.598338 0
M  V30 19 C 7.354601 3.013729 -14.082166 0
M  V30 20 C 6.086741 2.654668 -13.592085 0
M  V30 21 N 5.401308 3.395832 -12.699873 0
M  V30 22 C 5.978234 4.528401 -12.247001 0
M  V30 23 H 8.501029 8.531822 -11.362659 0
M  V30 24 H 10.231410 8.266660 -11.416015 0
M  V30 25 H 8.249727 9.347534 -9.205467 0
M  V30 26 H 9.990002 9.428259 -9.029917 0
M  V30 27 H 8.087011 7.854398 -7.211108 0
M  V30 28 H 8.838099 9.364913 -6.817838 0
M  V30 29 H 11.435960 6.047212 -5.174579 0
M  V30 30 H 12.558292 6.808625 -3.093918 0
M  V30 31 H 12.489789 9.250908 -2.494123 0
M  V30 32 H 11.285783 10.816799 -4.053541 0
M  V30 33 H 11.373212 6.028758 -7.361981 0
M  V30 34 H 9.645151 5.740705 -7.424535 0
M  V30 35 H 10.484780 5.769075 -9.703992 0
M  V30 36 H 11.370265 7.257495 -9.445069 0
M  V30 37 H 7.071126 6.741318 -11.566238 0
M  V30 38 H 8.924268 4.474782 -13.975467 0
M  V30 39 H 7.860574 2.391747 -14.805720 0
M  V30 40 H 5.603703 1.749052 -13.930501 0
M  V30 41 H 5.402325 5.094198 -11.529832 0
M  V30 42 H 8.436377 7.014212 -9.475955 0
M  V30 END ATOM
M  V30 BEGIN BOND
M  V30 1 2 2 1
M  V30 2 1 3 2
M  V30 3 1 4 3
M  V30 4 1 5 4
M  V30 5 1 6 5
M  V30 6 1 7 6
M  V30 7 1 8 7
M  V30 8 2 9 8
M  V30 9 1 10 9
M  V30 10 2 11 10
M  V30 11 1 12 11
M  V30 12 1 13 8
M  V30 13 2 13 12
M  V30 14 1 14 7
M  V30 15 1 15 4
M  V30 16 1 15 14
M  V30 17 1 16 2
M  V30 18 1 17 16
M  V30 19 2 18 17
M  V30 20 1 19 18
M  V30 21 2 20 19
M  V30 22 1 21 20
M  V30 23 1 22 17
M  V30 24 2 22 21
M  V30 25 1 23 3
M  V30 26 1 24 3
M  V30 27 1 25 5
M  V30 28 1 26 5
M  V30 29 1 27 6
M  V30 30 1 28 6
M  V30 31 1 29 9
M  V30 32 1 30 10
M  V30 33 1 31 11
M  V30 34 1 32 12
M  V30 35 1 33 14
M  V30 36 1 34 14
M  V30 37 1 35 15
M  V30 38 1 36 15
M  V30 39 1 37 16
M  V30 40 1 38 18
M  V30 41 1 39 19
M  V30 42 1 40 20
M  V30 43 1 41 22
M  V30 44 1 42 4
M  V30 END BOND
M  V30 END CTAB
M  END
>  <b_m_subgroup_collapsed>  (1369) 
0

>  <r_i_docking_score>  (1369) 
-7.2069675318508697

>  <s_m_subgroup_title>  (1369) 
glide-dock_SP_D22_pv

>  <s_m_subgroupid>  (1369) 
glide-dock_SP_D22_pv

>  <Molecule ChEMBL ID>  (1369) 
CHEMBL4592753

>  <Standard Type>  (1369) 
Ki

>  <Standard Value>  (1369) 
50000.0

>  <label>  (1369) 
0

$$$$
CHEMBL5950738
     RDKit          3D

  0  0  0  0  0  0  0  0  0  0999 V3000
M  V30 BEGIN CTAB
M  V30 COUNTS 55 57 0 0 1
M  V30 BEGIN ATOM
M  V30 1 O 11.287196 10.172588 -6.426840 0
M  V30 2 C 11.065217 9.107652 -5.853559 0
M  V30 3 N 10.101270 8.266532 -6.246386 0
M  V30 4 C 9.252326 8.380758 -7.422164 0
M  V30 5 C 10.063967 8.079432 -8.698977 0
M  V30 6 N 9.285926 7.332151 -9.716053 0 CFG=2 CHG=1
M  V30 7 C 9.107913 5.917952 -9.291374 0
M  V30 8 C 8.229877 5.178800 -10.286475 0
M  V30 9 C 8.886552 5.153888 -11.667366 0 CFG=1
M  V30 10 C 8.111742 4.330015 -12.688635 0
M  V30 11 C 6.710075 4.171395 -12.618137 0
M  V30 12 C 6.089363 3.279645 -13.509256 0
M  V30 13 C 6.885839 2.600006 -14.448855 0
M  V30 14 C 8.267373 2.858838 -14.484192 0
M  V30 15 O 9.023781 2.204138 -15.432934 0
M  V30 16 C 10.382090 2.272850 -15.418025 0
M  V30 17 F 10.886125 1.478655 -16.392998 0
M  V30 18 F 10.832609 3.530488 -15.658307 0
M  V30 19 F 10.889345 1.824040 -14.246905 0
M  V30 20 N 8.868323 3.715666 -13.623344 0
M  V30 21 C 9.122870 6.599065 -12.122231 0
M  V30 22 C 9.902724 7.413627 -11.067329 0
M  V30 23 C 11.921489 8.693219 -4.644481 0
M  V30 24 C 11.542808 9.508724 -3.401129 0
M  V30 25 C 12.340694 9.060534 -2.168427 0
M  V30 26 O 12.144263 7.670013 -1.953428 0
M  V30 27 C 12.623852 6.868553 -3.024744 0
M  V30 28 C 11.851635 7.182134 -4.310480 0
M  V30 29 H 9.970673 7.431599 -5.692655 0
M  V30 30 H 8.803658 9.371410 -7.477297 0
M  V30 31 H 8.416160 7.698956 -7.274808 0
M  V30 32 H 10.969687 7.514723 -8.467788 0
M  V30 33 H 10.404594 9.029704 -9.115244 0
M  V30 34 H 8.634602 5.848549 -8.312675 0
M  V30 35 H 10.075594 5.421349 -9.201323 0
M  V30 36 H 7.285608 5.711088 -10.336110 0
M  V30 37 H 8.028068 4.172083 -9.928300 0
M  V30 38 H 9.859650 4.671350 -11.556465 0
M  V30 39 H 6.114099 4.679683 -11.874694 0
M  V30 40 H 5.023201 3.109982 -13.460048 0
M  V30 41 H 6.451406 1.896092 -15.142253 0
M  V30 42 H 9.691257 6.575252 -13.047248 0
M  V30 43 H 8.167340 7.082661 -12.334263 0
M  V30 44 H 9.952390 8.456592 -11.383798 0
M  V30 45 H 10.930336 7.051063 -11.017401 0
M  V30 46 H 12.951603 8.946578 -4.893285 0
M  V30 47 H 11.686210 10.572428 -3.570326 0
M  V30 48 H 10.486152 9.374397 -3.199379 0
M  V30 49 H 13.400485 9.280575 -2.275074 0
M  V30 50 H 12.009458 9.599911 -1.282288 0
M  V30 51 H 13.685925 7.044381 -3.172138 0
M  V30 52 H 12.507019 5.815395 -2.761671 0
M  V30 53 H 10.828838 6.849690 -4.167683 0
M  V30 54 H 12.234728 6.573822 -5.129711 0
M  V30 55 H 8.351711 7.736370 -9.788627 0
M  V30 END ATOM
M  V30 BEGIN BOND
M  V30 1 2 2 1
M  V30 2 1 3 2
M  V30 3 1 4 3
M  V30 4 1 5 4
M  V30 5 1 6 5
M  V30 6 1 7 6
M  V30 7 1 8 7
M  V30 8 1 9 8
M  V30 9 1 10 9
M  V30 10 2 11 10
M  V30 11 1 12 11
M  V30 12 2 13 12
M  V30 13 1 14 13
M  V30 14 1 15 14
M  V30 15 1 16 15
M  V30 16 1 17 16
M  V30 17 1 18 16
M  V30 18 1 19 16
M  V30 19 1 20 10
M  V30 20 2 20 14
M  V30 21 1 21 9
M  V30 22 1 22 6
M  V30 23 1 22 21
M  V30 24 1 23 2
M  V30 25 1 24 23
M  V30 26 1 25 24
M  V30 27 1 26 25
M  V30 28 1 27 26
M  V30 29 1 28 23
M  V30 30 1 28 27
M  V30 31 1 29 3
M  V30 32 1 30 4
M  V30 33 1 31 4
M  V30 34 1 32 5
M  V30 35 1 33 5
M  V30 36 1 34 7
M  V30 37 1 35 7
M  V30 38 1 36 8
M  V30 39 1 37 8
M  V30 40 1 9 38 CFG=1
M  V30 41 1 39 11
M  V30 42 1 40 12
M  V30 43 1 41 13
M  V30 44 1 42 21
M  V30 45 1 43 21
M  V30 46 1 44 22
M  V30 47 1 45 22
M  V30 48 1 46 23
M  V30 49 1 47 24
M  V30 50 1 48 24
M  V30 51 1 49 25
M  V30 52 1 50 25
M  V30 53 1 51 27
M  V30 54 1 52 27
M  V30 55 1 53 28
M  V30 56 1 54 28
M  V30 57 1 6 55 CFG=3
M  V30 END BOND
M  V30 END CTAB
M  END
>  <b_m_subgroup_collapsed>  (1370) 
0

>  <r_i_docking_score>  (1370) 
-7.2069571931747003

>  <s_m_subgroup_title>  (1370) 
glide-dock_SP_D22_pv

>  <s_m_subgroupid>  (1370) 
glide-dock_SP_D22_pv

>  <Molecule ChEMBL ID>  (1370) 
CHEMBL5950738

>  <Standard Type>  (1370) 
Ki

>  <Standard Value>  (1370) 
28.0

>  <label>  (1370) 
1

$$$$
CHEMBL287198
     RDKit          3D

  0  0  0  0  0  0  0  0  0  0999 V3000
M  V30 BEGIN CTAB
M  V30 COUNTS 56 59 0 0 1
M  V30 BEGIN ATOM
M  V30 1 C 11.944427 5.190001 -15.772141 0
M  V30 2 O 11.845545 4.244995 -14.713692 0
M  V30 3 C 10.634778 3.596308 -14.658709 0
M  V30 4 C 9.600395 4.060552 -13.798009 0
M  V30 5 C 9.775826 5.265243 -12.903142 0
M  V30 6 O 10.584361 6.155710 -13.156466 0
M  V30 7 N 9.020254 5.280683 -11.791623 0
M  V30 8 C 8.928452 6.391421 -10.850191 0
M  V30 9 C 10.239972 6.579073 -10.060453 0
M  V30 10 N 10.191456 7.724666 -9.155690 0
M  V30 11 C 9.385047 7.385617 -7.976306 0
M  V30 12 C 9.334493 8.564749 -6.990148 0
M  V30 13 N 10.673020 9.044827 -6.660810 0
M  V30 14 C 11.177121 8.960291 -5.353130 0
M  V30 15 C 11.220247 10.134550 -4.582796 0
M  V30 16 C 11.686014 10.091238 -3.254911 0
M  V30 17 C 12.089281 8.890244 -2.668515 0
M  V30 18 C 12.055178 7.717587 -3.427696 0
M  V30 19 Cl 12.485995 6.252951 -2.646595 0
M  V30 20 C 11.626706 7.749585 -4.772900 0
M  V30 21 Cl 11.669152 6.308405 -5.703158 0
M  V30 22 C 11.581102 9.252880 -7.776022 0
M  V30 23 C 11.559625 8.042588 -8.728323 0
M  V30 24 C 8.366798 3.371985 -13.791522 0
M  V30 25 C 8.182645 2.184792 -14.518779 0
M  V30 26 Br 6.542233 1.237749 -14.279262 0
M  V30 27 C 9.214279 1.703827 -15.354722 0
M  V30 28 C 9.050268 0.515682 -16.104055 0
M  V30 29 C 10.079727 0.050917 -16.943876 0
M  V30 30 C 11.285747 0.766530 -17.038502 0
M  V30 31 C 11.463423 1.939531 -16.281822 0
M  V30 32 C 10.437655 2.422528 -15.434850 0
M  V30 33 H 12.876337 5.747740 -15.672832 0
M  V30 34 H 11.948798 4.704267 -16.749207 0
M  V30 35 H 11.123020 5.909073 -15.754026 0
M  V30 36 H 8.412894 4.494601 -11.616853 0
M  V30 37 H 8.091777 6.172794 -10.185993 0
M  V30 38 H 8.668987 7.306110 -11.386253 0
M  V30 39 H 11.049445 6.748875 -10.769695 0
M  V30 40 H 10.486180 5.669403 -9.510456 0
M  V30 41 H 9.773754 6.491581 -7.492999 0
M  V30 42 H 8.367153 7.148228 -8.275788 0
M  V30 43 H 8.797272 8.263645 -6.092873 0
M  V30 44 H 8.765860 9.371928 -7.446795 0
M  V30 45 H 10.886910 11.069760 -5.008974 0
M  V30 46 H 11.717456 10.976084 -2.650982 0
M  V30 47 H 12.416234 8.871265 -1.638809 0
M  V30 48 H 11.286001 10.164446 -8.303705 0
M  V30 49 H 12.597670 9.400136 -7.408602 0
M  V30 50 H 12.007917 7.178035 -8.241681 0
M  V30 51 H 12.176381 8.268925 -9.599426 0
M  V30 52 H 7.549061 3.710395 -13.172982 0
M  V30 53 H 8.135887 -0.056578 -16.051233 0
M  V30 54 H 9.943532 -0.857413 -17.511499 0
M  V30 55 H 12.081201 0.407944 -17.674635 0
M  V30 56 H 12.411246 2.453304 -16.349337 0
M  V30 END ATOM
M  V30 BEGIN BOND
M  V30 1 1 2 1
M  V30 2 1 3 2
M  V30 3 2 4 3
M  V30 4 1 5 4
M  V30 5 2 6 5
M  V30 6 1 7 5
M  V30 7 1 8 7
M  V30 8 1 9 8
M  V30 9 1 10 9
M  V30 10 1 11 10
M  V30 11 1 12 11
M  V30 12 1 13 12
M  V30 13 1 14 13
M  V30 14 2 15 14
M  V30 15 1 16 15
M  V30 16 2 17 16
M  V30 17 1 18 17
M  V30 18 1 19 18
M  V30 19 1 20 14
M  V30 20 2 20 18
M  V30 21 1 21 20
M  V30 22 1 22 13
M  V30 23 1 23 10
M  V30 24 1 23 22
M  V30 25 1 24 4
M  V30 26 2 25 24
M  V30 27 1 26 25
M  V30 28 1 27 25
M  V30 29 2 28 27
M  V30 30 1 29 28
M  V30 31 2 30 29
M  V30 32 1 31 30
M  V30 33 1 32 3
M  V30 34 1 32 27
M  V30 35 2 32 31
M  V30 36 1 33 1
M  V30 37 1 34 1
M  V30 38 1 35 1
M  V30 39 1 36 7
M  V30 40 1 37 8
M  V30 41 1 38 8
M  V30 42 1 39 9
M  V30 43 1 40 9
M  V30 44 1 41 11
M  V30 45 1 42 11
M  V30 46 1 43 12
M  V30 47 1 44 12
M  V30 48 1 45 15
M  V30 49 1 46 16
M  V30 50 1 47 17
M  V30 51 1 48 22
M  V30 52 1 49 22
M  V30 53 1 50 23
M  V30 54 1 51 23
M  V30 55 1 52 24
M  V30 56 1 53 28
M  V30 57 1 54 29
M  V30 58 1 55 30
M  V30 59 1 56 31
M  V30 END BOND
M  V30 END CTAB
M  END
>  <b_m_subgroup_collapsed>  (1371) 
0

>  <r_i_docking_score>  (1371) 
-7.2061707742739296

>  <s_m_subgroup_title>  (1371) 
glide-dock_SP_D22_pv

>  <s_m_subgroupid>  (1371) 
glide-dock_SP_D22_pv

>  <Molecule ChEMBL ID>  (1371) 
CHEMBL287198

>  <Standard Type>  (1371) 
Ki

>  <Standard Value>  (1371) 
10000.0

>  <label>  (1371) 
0

$$$$
CHEMBL303979
     RDKit          3D

  0  0  0  0  0  0  0  0  0  0999 V3000
M  V30 BEGIN CTAB
M  V30 COUNTS 40 43 0 0 1
M  V30 BEGIN ATOM
M  V30 1 F 13.249970 7.970876 -14.057508 0
M  V30 2 C 12.228595 7.163917 -13.694268 0
M  V30 3 C 11.812720 6.126343 -14.549337 0
M  V30 4 C 10.727060 5.308691 -14.182020 0
M  V30 5 C 10.040462 5.530907 -12.972914 0
M  V30 6 C 10.478768 6.572227 -12.110148 0
M  V30 7 C 11.581675 7.372237 -12.462929 0
M  V30 8 C 9.724625 6.770987 -10.814213 0 CFG=2
M  V30 9 C 10.442113 7.255367 -9.554042 0
M  V30 10 N 9.528911 6.851089 -8.448547 0 CFG=2 CHG=1
M  V30 11 C 10.195708 6.452212 -7.189232 0
M  V30 12 C 10.710461 7.550032 -6.274088 0
M  V30 13 C 11.287088 7.139183 -5.052688 0
M  V30 14 C 11.779931 8.083625 -4.136629 0
M  V30 15 C 11.686102 9.454992 -4.431136 0
M  V30 16 C 11.106515 9.877861 -5.644032 0
M  V30 17 C 10.612401 8.931029 -6.566046 0
M  V30 18 C 8.656767 5.768109 -8.981042 0
M  V30 19 C 9.187275 5.440902 -10.366246 0 CFG=1
M  V30 20 C 8.239546 4.937462 -11.456862 0
M  V30 21 O 8.989468 4.684429 -12.654635 0
M  V30 22 H 12.322062 5.962696 -15.486481 0
M  V30 23 H 10.412913 4.509820 -14.837045 0
M  V30 24 H 11.918722 8.168338 -11.814329 0
M  V30 25 H 8.896376 7.450580 -11.024055 0
M  V30 26 H 11.400110 6.746562 -9.456890 0
M  V30 27 H 10.633717 8.328655 -9.568100 0
M  V30 28 H 9.464108 5.912468 -6.588071 0
M  V30 29 H 11.001653 5.747961 -7.398010 0
M  V30 30 H 11.351797 6.087521 -4.811911 0
M  V30 31 H 12.215945 7.756369 -3.204983 0
M  V30 32 H 12.058501 10.172120 -3.717252 0
M  V30 33 H 11.031951 10.933619 -5.862898 0
M  V30 34 H 10.159639 9.280523 -7.481525 0
M  V30 35 H 8.592269 4.874624 -8.354959 0
M  V30 36 H 7.662744 6.172343 -9.060544 0
M  V30 37 H 10.004974 4.725343 -10.247559 0
M  V30 38 H 7.743818 4.019219 -11.140153 0
M  V30 39 H 7.450873 5.661757 -11.661669 0
M  V30 40 H 8.905847 7.620026 -8.242060 0
M  V30 END ATOM
M  V30 BEGIN BOND
M  V30 1 1 2 1
M  V30 2 1 3 2
M  V30 3 2 4 3
M  V30 4 1 5 4
M  V30 5 2 6 5
M  V30 6 2 7 2
M  V30 7 1 7 6
M  V30 8 1 8 6
M  V30 9 1 9 8
M  V30 10 1 10 9
M  V30 11 1 11 10
M  V30 12 1 12 11
M  V30 13 2 13 12
M  V30 14 1 14 13
M  V30 15 2 15 14
M  V30 16 1 16 15
M  V30 17 1 17 12
M  V30 18 2 17 16
M  V30 19 1 18 10
M  V30 20 1 19 8
M  V30 21 1 19 18
M  V30 22 1 20 19
M  V30 23 1 21 5
M  V30 24 1 21 20
M  V30 25 1 22 3
M  V30 26 1 23 4
M  V30 27 1 24 7
M  V30 28 1 8 25 CFG=3
M  V30 29 1 26 9
M  V30 30 1 27 9
M  V30 31 1 28 11
M  V30 32 1 29 11
M  V30 33 1 30 13
M  V30 34 1 31 14
M  V30 35 1 32 15
M  V30 36 1 33 16
M  V30 37 1 34 17
M  V30 38 1 35 18
M  V30 39 1 36 18
M  V30 40 1 19 37 CFG=1
M  V30 41 1 38 20
M  V30 42 1 39 20
M  V30 43 1 10 40 CFG=1
M  V30 END BOND
M  V30 END CTAB
M  END
>  <b_m_subgroup_collapsed>  (1372) 
0

>  <r_i_docking_score>  (1372) 
-7.2057275647402204

>  <s_m_subgroup_title>  (1372) 
glide-dock_SP_D22_pv

>  <s_m_subgroupid>  (1372) 
glide-dock_SP_D22_pv

>  <Molecule ChEMBL ID>  (1372) 
CHEMBL303979

>  <Standard Type>  (1372) 
Ki

>  <Standard Value>  (1372) 
25.12

>  <label>  (1372) 
1

$$$$
CHEMBL458342
     RDKit          3D

  0  0  0  0  0  0  0  0  0  0999 V3000
M  V30 BEGIN CTAB
M  V30 COUNTS 49 53 0 0 1
M  V30 BEGIN ATOM
M  V30 1 Cl 12.490601 8.573135 -1.459090 0
M  V30 2 C 12.122236 8.234915 -3.105787 0
M  V30 3 C 12.280217 9.253115 -4.046667 0
M  V30 4 C 11.978141 9.054644 -5.403390 0
M  V30 5 C 11.533909 7.788375 -5.853196 0
M  V30 6 N 11.375855 7.510030 -7.231020 0
M  V30 7 C 12.104325 8.340155 -8.210523 0
M  V30 8 C 12.058577 7.898308 -9.697740 0
M  V30 9 C 10.681438 7.818977 -10.393448 0 CFG=2
M  V30 10 C 9.779617 8.972471 -9.991215 0
M  V30 11 C 9.129239 8.524748 -8.707321 0
M  V30 12 C 9.376250 7.004405 -8.690331 0 CFG=2
M  V30 13 C 10.353868 6.528106 -7.606194 0
M  V30 14 N 9.954993 6.619641 -9.984440 0
M  V30 15 C 8.907843 6.237164 -10.942094 0
M  V30 16 C 9.217694 5.489551 -12.211807 0
M  V30 17 C 10.356937 5.497517 -12.984247 0
M  V30 18 N 10.218709 4.572596 -14.008287 0
M  V30 19 C 8.983061 3.968054 -13.947385 0
M  V30 20 N 8.504169 2.992774 -14.773627 0
M  V30 21 C 7.241591 2.597499 -14.496980 0
M  V30 22 C 6.442374 3.142755 -13.469270 0
M  V30 23 C 6.982088 4.144848 -12.635533 0
M  V30 24 C 8.309540 4.575809 -12.853288 0
M  V30 25 C 11.382584 6.760793 -4.886075 0
M  V30 26 C 11.685924 6.970861 -3.525588 0
M  V30 27 H 12.682851 10.172292 -3.694734 0
M  V30 28 H 12.143888 9.873298 -6.085849 0
M  V30 29 H 11.744883 9.365404 -8.142244 0
M  V30 30 H 13.152804 8.382161 -7.915292 0
M  V30 31 H 12.648478 8.627364 -10.252112 0
M  V30 32 H 12.589680 6.972973 -9.847016 0
M  V30 33 H 10.844540 7.815015 -11.471057 0
M  V30 34 H 10.343431 9.888802 -9.846894 0
M  V30 35 H 9.022928 9.160824 -10.753568 0
M  V30 36 H 9.510760 9.051410 -7.834862 0
M  V30 37 H 8.086001 8.781260 -8.719307 0
M  V30 38 H 8.434127 6.479574 -8.522460 0
M  V30 39 H 10.834741 5.590997 -7.890996 0
M  V30 40 H 9.730011 6.294866 -6.744323 0
M  V30 41 H 8.210853 5.602850 -10.392131 0
M  V30 42 H 8.316051 7.115063 -11.197836 0
M  V30 43 H 11.273894 6.053870 -12.862719 0
M  V30 44 H 10.936385 4.374642 -14.688728 0
M  V30 45 H 6.842243 1.823557 -15.134688 0
M  V30 46 H 5.433990 2.784979 -13.315205 0
M  V30 47 H 6.399952 4.562172 -11.826114 0
M  V30 48 H 11.082022 5.772361 -5.182019 0
M  V30 49 H 11.574797 6.167416 -2.812991 0
M  V30 END ATOM
M  V30 BEGIN BOND
M  V30 1 1 2 1
M  V30 2 1 3 2
M  V30 3 2 4 3
M  V30 4 1 5 4
M  V30 5 1 6 5
M  V30 6 1 7 6
M  V30 7 1 8 7
M  V30 8 1 9 8
M  V30 9 1 10 9
M  V30 10 1 11 10
M  V30 11 1 12 11
M  V30 12 1 13 6
M  V30 13 1 13 12
M  V30 14 1 14 9
M  V30 15 1 14 12
M  V30 16 1 15 14
M  V30 17 1 16 15
M  V30 18 2 17 16
M  V30 19 1 18 17
M  V30 20 1 19 18
M  V30 21 2 20 19
M  V30 22 1 21 20
M  V30 23 2 22 21
M  V30 24 1 23 22
M  V30 25 1 24 16
M  V30 26 1 24 19
M  V30 27 2 24 23
M  V30 28 2 25 5
M  V30 29 2 26 2
M  V30 30 1 26 25
M  V30 31 1 27 3
M  V30 32 1 28 4
M  V30 33 1 29 7
M  V30 34 1 30 7
M  V30 35 1 31 8
M  V30 36 1 32 8
M  V30 37 1 9 33 CFG=3
M  V30 38 1 34 10
M  V30 39 1 35 10
M  V30 40 1 36 11
M  V30 41 1 37 11
M  V30 42 1 12 38 CFG=1
M  V30 43 1 39 13
M  V30 44 1 40 13
M  V30 45 1 41 15
M  V30 46 1 42 15
M  V30 47 1 43 17
M  V30 48 1 44 18
M  V30 49 1 45 21
M  V30 50 1 46 22
M  V30 51 1 47 23
M  V30 52 1 48 25
M  V30 53 1 49 26
M  V30 END BOND
M  V30 END CTAB
M  END
>  <b_m_subgroup_collapsed>  (1373) 
0

>  <r_i_docking_score>  (1373) 
-7.2023754512859597

>  <s_m_subgroup_title>  (1373) 
glide-dock_SP_D22_pv

>  <s_m_subgroupid>  (1373) 
glide-dock_SP_D22_pv

>  <Molecule ChEMBL ID>  (1373) 
CHEMBL458342

>  <Standard Type>  (1373) 
Ki

>  <Standard Value>  (1373) 
10000.0

>  <label>  (1373) 
0

$$$$
CHEMBL3817911
     RDKit          3D

  0  0  0  0  0  0  0  0  0  0999 V3000
M  V30 BEGIN CTAB
M  V30 COUNTS 54 57 0 0 1
M  V30 BEGIN ATOM
M  V30 1 O 6.940543 3.073736 -14.120001 0
M  V30 2 C 8.131062 2.929870 -14.394799 0
M  V30 3 C 8.691374 1.858027 -15.257360 0
M  V30 4 C 8.040753 0.827354 -15.955077 0
M  V30 5 C 8.859713 -0.030343 -16.733467 0
M  V30 6 C 10.264427 0.156865 -16.791349 0
M  V30 7 C 10.886003 1.209985 -16.078131 0
M  V30 8 C 10.050482 2.041856 -15.315352 0
M  V30 9 C 10.373521 3.227325 -14.486498 0
M  V30 10 O 11.503690 3.679659 -14.292988 0
M  V30 11 N 9.188308 3.693033 -14.016973 0
M  V30 12 C 9.074285 4.896922 -13.194057 0
M  V30 13 C 9.116693 4.563699 -11.696683 0
M  V30 14 C 9.346055 5.809296 -10.838348 0
M  V30 15 C 9.431140 5.486058 -9.336498 0
M  V30 16 N 10.019536 6.603788 -8.559005 0 CFG=1 CHG=1
M  V30 17 C 9.134344 7.785827 -8.508075 0
M  V30 18 C 9.850492 8.961684 -7.848295 0
M  V30 19 C 10.283027 8.611325 -6.418062 0 CFG=2
M  V30 20 C 11.058388 9.752861 -5.723818 0
M  V30 21 C 11.395271 9.388350 -4.267926 0
M  V30 22 C 12.129162 8.039435 -4.161430 0
M  V30 23 C 11.450551 6.914005 -4.969933 0
M  V30 24 C 11.137150 7.328632 -6.421523 0 CFG=1
M  V30 25 C 10.447349 6.191483 -7.200857 0
M  V30 26 H 6.969428 0.695750 -15.905489 0
M  V30 27 H 8.402283 -0.841250 -17.283239 0
M  V30 28 H 10.868047 -0.511293 -17.388893 0
M  V30 29 H 11.953510 1.370767 -16.124743 0
M  V30 30 H 9.884230 5.584213 -13.444924 0
M  V30 31 H 8.152885 5.430261 -13.431661 0
M  V30 32 H 8.175752 4.095534 -11.404523 0
M  V30 33 H 9.910038 3.837546 -11.498499 0
M  V30 34 H 10.270426 6.292710 -11.159158 0
M  V30 35 H 8.539616 6.519453 -11.027264 0
M  V30 36 H 8.445191 5.226748 -8.944868 0
M  V30 37 H 10.057934 4.604717 -9.200727 0
M  V30 38 H 8.823009 8.087007 -9.506523 0
M  V30 39 H 8.234040 7.542832 -7.945500 0
M  V30 40 H 10.706431 9.275889 -8.449085 0
M  V30 41 H 9.137452 9.774178 -7.842154 0
M  V30 42 H 9.375317 8.411862 -5.848414 0
M  V30 43 H 11.981932 9.958467 -6.270353 0
M  V30 44 H 10.486418 10.678299 -5.740299 0
M  V30 45 H 12.009847 10.169475 -3.823432 0
M  V30 46 H 10.486034 9.365240 -3.673113 0
M  V30 47 H 13.151581 8.176021 -4.505844 0
M  V30 48 H 12.209294 7.746705 -3.112758 0
M  V30 49 H 12.085723 6.029367 -4.964220 0
M  V30 50 H 10.528951 6.611001 -4.471317 0
M  V30 51 H 12.076686 7.551972 -6.931928 0
M  V30 52 H 9.580526 5.822599 -6.650765 0
M  V30 53 H 11.157018 5.372898 -7.297709 0
M  V30 54 H 10.853412 6.888012 -9.051027 0
M  V30 END ATOM
M  V30 BEGIN BOND
M  V30 1 2 2 1
M  V30 2 1 3 2
M  V30 3 2 4 3
M  V30 4 1 5 4
M  V30 5 2 6 5
M  V30 6 1 7 6
M  V30 7 1 8 3
M  V30 8 2 8 7
M  V30 9 1 9 8
M  V30 10 2 10 9
M  V30 11 1 11 2
M  V30 12 1 11 9
M  V30 13 1 12 11
M  V30 14 1 13 12
M  V30 15 1 14 13
M  V30 16 1 15 14
M  V30 17 1 16 15
M  V30 18 1 17 16
M  V30 19 1 18 17
M  V30 20 1 19 18
M  V30 21 1 20 19
M  V30 22 1 21 20
M  V30 23 1 22 21
M  V30 24 1 23 22
M  V30 25 1 24 19
M  V30 26 1 24 23
M  V30 27 1 25 16
M  V30 28 1 25 24
M  V30 29 1 26 4
M  V30 30 1 27 5
M  V30 31 1 28 6
M  V30 32 1 29 7
M  V30 33 1 30 12
M  V30 34 1 31 12
M  V30 35 1 32 13
M  V30 36 1 33 13
M  V30 37 1 34 14
M  V30 38 1 35 14
M  V30 39 1 36 15
M  V30 40 1 37 15
M  V30 41 1 38 17
M  V30 42 1 39 17
M  V30 43 1 40 18
M  V30 44 1 41 18
M  V30 45 1 19 42 CFG=1
M  V30 46 1 43 20
M  V30 47 1 44 20
M  V30 48 1 45 21
M  V30 49 1 46 21
M  V30 50 1 47 22
M  V30 51 1 48 22
M  V30 52 1 49 23
M  V30 53 1 50 23
M  V30 54 1 24 51 CFG=3
M  V30 55 1 52 25
M  V30 56 1 53 25
M  V30 57 1 16 54 CFG=3
M  V30 END BOND
M  V30 END CTAB
M  END
>  <b_m_subgroup_collapsed>  (1374) 
0

>  <r_i_docking_score>  (1374) 
-7.1980865283250504

>  <s_m_subgroup_title>  (1374) 
glide-dock_SP_D22_pv

>  <s_m_subgroupid>  (1374) 
glide-dock_SP_D22_pv

>  <Molecule ChEMBL ID>  (1374) 
CHEMBL3817911

>  <Standard Type>  (1374) 
Ki

>  <Standard Value>  (1374) 
10000.0

>  <label>  (1374) 
0

$$$$
CHEMBL4453955
     RDKit          3D

  0  0  0  0  0  0  0  0  0  0999 V3000
M  V30 BEGIN CTAB
M  V30 COUNTS 53 55 0 0 1
M  V30 BEGIN ATOM
M  V30 1 C 5.463362 4.580619 -12.832356 0
M  V30 2 C 6.815632 3.900221 -12.598942 0
M  V30 3 C 8.044785 4.745461 -13.000603 0
M  V30 4 C 8.239712 6.094686 -12.270267 0
M  V30 5 N 9.175917 6.030902 -11.110574 0 CFG=1 CHG=1
M  V30 6 C 9.708974 7.376888 -10.759641 0
M  V30 7 C 10.659603 7.349779 -9.541693 0
M  V30 8 C 10.033484 6.652039 -8.311478 0 CFG=2
M  V30 9 C 9.580302 5.254288 -8.760395 0
M  V30 10 C 8.592660 5.338204 -9.932172 0
M  V30 11 C 8.885974 7.465407 -7.700089 0
M  V30 12 C 9.545494 8.437085 -6.739989 0
M  V30 13 N 10.825602 7.842651 -6.391558 0
M  V30 14 C 11.285798 8.034510 -5.071181 0
M  V30 15 C 11.685681 6.939854 -4.268703 0
M  V30 16 C 12.086933 7.124289 -2.933352 0
M  V30 17 C 12.106036 8.415236 -2.378318 0
M  V30 18 C 11.724920 9.515586 -3.164431 0
M  V30 19 C 11.319205 9.339478 -4.501593 0
M  V30 20 O 10.966103 10.462044 -5.208568 0
M  V30 21 C 11.884424 10.783946 -6.239778 0
M  V30 22 C 10.994114 6.590189 -7.111961 0
M  V30 23 H 4.651309 3.871624 -12.672184 0
M  V30 24 H 5.308310 5.410144 -12.141829 0
M  V30 25 H 5.369847 4.961070 -13.846645 0
M  V30 26 H 6.834521 2.981970 -13.187362 0
M  V30 27 H 6.871883 3.579315 -11.560384 0
M  V30 28 H 7.955555 4.954955 -14.067156 0
M  V30 29 H 8.946912 4.139963 -12.904606 0
M  V30 30 H 7.292846 6.548412 -11.973934 0
M  V30 31 H 8.662954 6.775874 -13.014472 0
M  V30 32 H 10.243585 7.787696 -11.616651 0
M  V30 33 H 8.879927 8.057526 -10.571636 0
M  V30 34 H 10.958782 8.367674 -9.287583 0
M  V30 35 H 11.579616 6.837626 -9.823236 0
M  V30 36 H 10.444252 4.654518 -9.045925 0
M  V30 37 H 9.104237 4.727963 -7.933611 0
M  V30 38 H 8.308562 4.323335 -10.195315 0
M  V30 39 H 7.685881 5.852238 -9.621129 0
M  V30 40 H 8.218906 6.815439 -7.133239 0
M  V30 41 H 8.285324 7.997021 -8.428977 0
M  V30 42 H 8.920753 8.607766 -5.867379 0
M  V30 43 H 9.701758 9.392018 -7.238566 0
M  V30 44 H 11.680443 5.928429 -4.647614 0
M  V30 45 H 12.375782 6.272080 -2.333765 0
M  V30 46 H 12.411363 8.564709 -1.353330 0
M  V30 47 H 11.746022 10.507702 -2.738735 0
M  V30 48 H 11.686842 11.772125 -6.645831 0
M  V30 49 H 12.893201 10.783855 -5.850672 0
M  V30 50 H 11.851598 10.082225 -7.068294 0
M  V30 51 H 12.030911 6.438651 -7.408978 0
M  V30 52 H 10.694475 5.772710 -6.465619 0
M  V30 53 H 9.968235 5.480180 -11.405696 0
M  V30 END ATOM
M  V30 BEGIN BOND
M  V30 1 1 2 1
M  V30 2 1 3 2
M  V30 3 1 4 3
M  V30 4 1 5 4
M  V30 5 1 6 5
M  V30 6 1 7 6
M  V30 7 1 8 7 CFG=3
M  V30 8 1 9 8
M  V30 9 1 10 5
M  V30 10 1 10 9
M  V30 11 1 11 8
M  V30 12 1 12 11
M  V30 13 1 13 12
M  V30 14 1 14 13
M  V30 15 2 15 14
M  V30 16 1 16 15
M  V30 17 2 17 16
M  V30 18 1 18 17
M  V30 19 1 19 14
M  V30 20 2 19 18
M  V30 21 1 20 19
M  V30 22 1 21 20
M  V30 23 1 22 8
M  V30 24 1 22 13
M  V30 25 1 23 1
M  V30 26 1 24 1
M  V30 27 1 25 1
M  V30 28 1 26 2
M  V30 29 1 27 2
M  V30 30 1 28 3
M  V30 31 1 29 3
M  V30 32 1 30 4
M  V30 33 1 31 4
M  V30 34 1 32 6
M  V30 35 1 33 6
M  V30 36 1 34 7
M  V30 37 1 35 7
M  V30 38 1 36 9
M  V30 39 1 37 9
M  V30 40 1 38 10
M  V30 41 1 39 10
M  V30 42 1 40 11
M  V30 43 1 41 11
M  V30 44 1 42 12
M  V30 45 1 43 12
M  V30 46 1 44 15
M  V30 47 1 45 16
M  V30 48 1 46 17
M  V30 49 1 47 18
M  V30 50 1 48 21
M  V30 51 1 49 21
M  V30 52 1 50 21
M  V30 53 1 51 22
M  V30 54 1 52 22
M  V30 55 1 5 53 CFG=3
M  V30 END BOND
M  V30 END CTAB
M  END
>  <b_m_subgroup_collapsed>  (1375) 
0

>  <r_i_docking_score>  (1375) 
-7.1969132890459599

>  <s_m_subgroup_title>  (1375) 
glide-dock_SP_D22_pv

>  <s_m_subgroupid>  (1375) 
glide-dock_SP_D22_pv

>  <Molecule ChEMBL ID>  (1375) 
CHEMBL4453955

>  <Standard Type>  (1375) 
Ki

>  <Standard Value>  (1375) 
25823.0

>  <label>  (1375) 
0

$$$$
CHEMBL90476
     RDKit          3D

  0  0  0  0  0  0  0  0  0  0999 V3000
M  V30 BEGIN CTAB
M  V30 COUNTS 44 47 0 0 1
M  V30 BEGIN ATOM
M  V30 1 Br 12.722480 4.668278 -16.639523 0
M  V30 2 C 12.050609 5.459208 -15.044337 0
M  V30 3 C 12.562020 6.681455 -14.593562 0
M  V30 4 C 12.076376 7.240722 -13.399293 0
M  V30 5 C 11.041267 6.627900 -12.647701 0
M  V30 6 N 10.570827 7.288250 -11.487776 0
M  V30 7 C 11.451648 8.052051 -10.607615 0
M  V30 8 C 11.303009 7.581110 -9.146371 0
M  V30 9 N 9.890878 7.483032 -8.699650 0 CHG=1
M  V30 10 C 9.724926 7.038663 -7.286516 0
M  V30 11 C 10.549879 7.808764 -6.255469 0
M  V30 12 C 11.256834 7.114119 -5.246808 0
M  V30 13 C 11.955721 7.820525 -4.246526 0
M  V30 14 C 11.968371 9.228119 -4.256808 0
M  V30 15 C 11.286152 9.925673 -5.271421 0
M  V30 16 C 10.585713 9.219499 -6.267173 0
M  V30 17 C 9.115523 6.629001 -9.634123 0
M  V30 18 C 9.182944 7.197198 -11.062088 0
M  V30 19 C 10.518899 5.369985 -13.088558 0
M  V30 20 C 9.550694 4.419303 -12.591334 0
M  V30 21 C 9.507961 3.372888 -13.473092 0
M  V30 22 N 10.403573 3.615771 -14.493296 0
M  V30 23 C 11.053208 4.816627 -14.295618 0
M  V30 24 H 13.342130 7.180182 -15.149689 0
M  V30 25 H 12.509706 8.172210 -13.080473 0
M  V30 26 H 11.198415 9.109753 -10.681009 0
M  V30 27 H 12.496469 7.955543 -10.902353 0
M  V30 28 H 11.902896 8.217303 -8.496051 0
M  V30 29 H 11.685988 6.572490 -9.071269 0
M  V30 30 H 9.975669 5.978714 -7.217884 0
M  V30 31 H 8.672224 7.124765 -7.008821 0
M  V30 32 H 11.243958 6.034459 -5.215549 0
M  V30 33 H 12.480188 7.281569 -3.470598 0
M  V30 34 H 12.501776 9.771628 -3.489417 0
M  V30 35 H 11.287838 11.005613 -5.285015 0
M  V30 36 H 10.082556 9.772776 -7.042912 0
M  V30 37 H 9.503210 5.609002 -9.614468 0
M  V30 38 H 8.085591 6.571181 -9.299367 0
M  V30 39 H 8.758723 8.202164 -11.069354 0
M  V30 40 H 8.562028 6.629704 -11.751559 0
M  V30 41 H 8.972572 4.499914 -11.684151 0
M  V30 42 H 8.920578 2.465512 -13.449731 0
M  V30 43 H 10.560637 2.979782 -15.262642 0
M  V30 44 H 9.490352 8.407448 -8.766743 0
M  V30 END ATOM
M  V30 BEGIN BOND
M  V30 1 1 2 1
M  V30 2 1 3 2
M  V30 3 2 4 3
M  V30 4 1 5 4
M  V30 5 1 6 5
M  V30 6 1 7 6
M  V30 7 1 8 7
M  V30 8 1 9 8
M  V30 9 1 10 9
M  V30 10 1 11 10
M  V30 11 2 12 11
M  V30 12 1 13 12
M  V30 13 2 14 13
M  V30 14 1 15 14
M  V30 15 1 16 11
M  V30 16 2 16 15
M  V30 17 1 17 9
M  V30 18 1 18 6
M  V30 19 1 18 17
M  V30 20 2 19 5
M  V30 21 1 20 19
M  V30 22 2 21 20
M  V30 23 1 22 21
M  V30 24 2 23 2
M  V30 25 1 23 19
M  V30 26 1 23 22
M  V30 27 1 24 3
M  V30 28 1 25 4
M  V30 29 1 26 7
M  V30 30 1 27 7
M  V30 31 1 28 8
M  V30 32 1 29 8
M  V30 33 1 30 10
M  V30 34 1 31 10
M  V30 35 1 32 12
M  V30 36 1 33 13
M  V30 37 1 34 14
M  V30 38 1 35 15
M  V30 39 1 36 16
M  V30 40 1 37 17
M  V30 41 1 38 17
M  V30 42 1 39 18
M  V30 43 1 40 18
M  V30 44 1 41 20
M  V30 45 1 42 21
M  V30 46 1 43 22
M  V30 47 1 44 9
M  V30 END BOND
M  V30 END CTAB
M  END
>  <b_m_subgroup_collapsed>  (1376) 
0

>  <r_i_docking_score>  (1376) 
-7.1963932514147801

>  <s_m_subgroup_title>  (1376) 
glide-dock_SP_D22_pv

>  <s_m_subgroupid>  (1376) 
glide-dock_SP_D22_pv

>  <Molecule ChEMBL ID>  (1376) 
CHEMBL90476

>  <Standard Type>  (1376) 
Ki

>  <Standard Value>  (1376) 
47.0

>  <label>  (1376) 
1

$$$$
CHEMBL345349
     RDKit          3D

  0  0  0  0  0  0  0  0  0  0999 V3000
M  V30 BEGIN CTAB
M  V30 COUNTS 36 39 0 0 1
M  V30 BEGIN ATOM
M  V30 1 C 11.843269 5.860818 -14.766767 0
M  V30 2 C 10.816216 4.922443 -14.547896 0
M  V30 3 C 10.030813 4.980500 -13.378153 0
M  V30 4 C 10.247694 5.982900 -12.404350 0
M  V30 5 C 9.702750 6.279438 -11.107441 0
M  V30 6 C 10.332341 7.405708 -10.661496 0
M  V30 7 N 11.309792 7.771483 -11.562626 0
M  V30 8 C 11.293449 6.926816 -12.655141 0
M  V30 9 C 12.085897 6.868905 -13.815081 0
M  V30 10 C 10.111668 8.073958 -9.348397 0 CFG=2
M  V30 11 C 11.400878 8.026345 -8.506942 0
M  V30 12 C 11.190440 8.633061 -7.124526 0
M  V30 13 C 10.094314 7.847290 -6.425502 0
M  V30 14 C 8.802703 7.924199 -7.233784 0
M  V30 15 N 8.960156 7.436594 -8.630547 0 CFG=2 CHG=1
M  V30 16 C 8.886112 5.952948 -8.781523 0
M  V30 17 C 8.694445 5.564692 -10.267583 0
M  V30 18 H 12.448096 5.804936 -15.660864 0
M  V30 19 H 10.638492 4.143924 -15.275908 0
M  V30 20 H 9.261739 4.239062 -13.213008 0
M  V30 21 H 11.950409 8.538903 -11.413956 0
M  V30 22 H 12.881584 7.581744 -13.970795 0
M  V30 23 H 9.844907 9.117208 -9.524250 0
M  V30 24 H 11.687616 6.980934 -8.394666 0
M  V30 25 H 12.220230 8.535741 -9.016985 0
M  V30 26 H 12.092115 8.582141 -6.525413 0
M  V30 27 H 10.923480 9.687437 -7.201679 0
M  V30 28 H 10.393582 6.808193 -6.270609 0
M  V30 29 H 9.932834 8.276300 -5.446714 0
M  V30 30 H 8.017756 7.370249 -6.719021 0
M  V30 31 H 8.468316 8.962777 -7.276993 0
M  V30 32 H 9.796512 5.500804 -8.386499 0
M  V30 33 H 8.057144 5.553415 -8.196688 0
M  V30 34 H 7.685558 5.820504 -10.595014 0
M  V30 35 H 8.789680 4.486238 -10.385452 0
M  V30 36 H 8.124389 7.747510 -9.120635 0
M  V30 END ATOM
M  V30 BEGIN BOND
M  V30 1 2 2 1
M  V30 2 1 3 2
M  V30 3 2 4 3
M  V30 4 1 5 4
M  V30 5 2 6 5
M  V30 6 1 7 6
M  V30 7 1 8 4
M  V30 8 1 8 7
M  V30 9 1 9 1
M  V30 10 2 9 8
M  V30 11 1 10 6
M  V30 12 1 11 10
M  V30 13 1 12 11
M  V30 14 1 13 12
M  V30 15 1 14 13
M  V30 16 1 15 10
M  V30 17 1 15 14
M  V30 18 1 16 15
M  V30 19 1 17 5
M  V30 20 1 17 16
M  V30 21 1 18 1
M  V30 22 1 19 2
M  V30 23 1 20 3
M  V30 24 1 21 7
M  V30 25 1 22 9
M  V30 26 1 10 23 CFG=3
M  V30 27 1 24 11
M  V30 28 1 25 11
M  V30 29 1 26 12
M  V30 30 1 27 12
M  V30 31 1 28 13
M  V30 32 1 29 13
M  V30 33 1 30 14
M  V30 34 1 31 14
M  V30 35 1 32 16
M  V30 36 1 33 16
M  V30 37 1 34 17
M  V30 38 1 35 17
M  V30 39 1 15 36 CFG=3
M  V30 END BOND
M  V30 END CTAB
M  END
>  <b_m_subgroup_collapsed>  (1377) 
0

>  <r_i_docking_score>  (1377) 
-7.19602889412048

>  <s_m_subgroup_title>  (1377) 
glide-dock_SP_D22_pv

>  <s_m_subgroupid>  (1377) 
glide-dock_SP_D22_pv

>  <Molecule ChEMBL ID>  (1377) 
CHEMBL345349

>  <Standard Type>  (1377) 
Ki

>  <Standard Value>  (1377) 
10000.0

>  <label>  (1377) 
0

$$$$
CHEMBL3794079
     RDKit          3D

  0  0  0  0  0  0  0  0  0  0999 V3000
M  V30 BEGIN CTAB
M  V30 COUNTS 48 50 0 0 1
M  V30 BEGIN ATOM
M  V30 1 C 9.042716 3.184290 -14.266769 0
M  V30 2 C 9.348064 4.438231 -13.467925 0
M  V30 3 C 8.335523 5.020169 -12.679438 0
M  V30 4 C 8.603040 6.164431 -11.905609 0
M  V30 5 C 9.893057 6.741623 -11.895407 0
M  V30 6 C 10.225054 7.969478 -11.046305 0
M  V30 7 N 10.451664 7.721264 -9.620390 0
M  V30 8 C 9.209003 7.339791 -8.958651 0
M  V30 9 C 9.340899 7.181764 -7.444014 0
M  V30 10 O 9.836688 8.402182 -6.919953 0
M  V30 11 C 11.118806 8.745202 -7.439070 0 CFG=2
M  V30 12 C 11.652265 9.974526 -6.669642 0
M  V30 13 S 10.985911 10.172371 -5.003619 0
M  V30 14 C 11.665933 8.920956 -3.992906 0
M  V30 15 C 11.682257 7.581347 -4.418643 0
M  V30 16 C 12.086013 6.572389 -3.545071 0
M  V30 17 C 12.485941 6.893146 -2.246881 0
M  V30 18 C 12.486076 8.234564 -1.823214 0
M  V30 19 C 12.086191 9.254899 -2.697075 0
M  V30 20 C 10.982147 8.923839 -8.965633 0
M  V30 21 C 10.886389 6.183349 -12.722529 0
M  V30 22 C 10.632053 5.031217 -13.497443 0
M  V30 23 C 11.747669 4.440222 -14.340084 0
M  V30 24 H 9.135751 3.380747 -15.335438 0
M  V30 25 H 9.729617 2.380667 -13.994778 0
M  V30 26 H 8.030253 2.828368 -14.072725 0
M  V30 27 H 7.346222 4.586243 -12.650189 0
M  V30 28 H 7.804397 6.572440 -11.308129 0
M  V30 29 H 9.433890 8.708333 -11.181345 0
M  V30 30 H 11.129531 8.420515 -11.447267 0
M  V30 31 H 8.815532 6.409446 -9.363031 0
M  V30 32 H 8.485948 8.121909 -9.152085 0
M  V30 33 H 10.001985 6.352732 -7.190698 0
M  V30 34 H 8.369270 6.970112 -6.998384 0
M  V30 35 H 11.813786 7.921610 -7.278952 0
M  V30 36 H 11.327766 10.900006 -7.118229 0
M  V30 37 H 12.741624 9.987724 -6.647105 0
M  V30 38 H 11.316298 7.273881 -5.376499 0
M  V30 39 H 12.085701 5.551389 -3.881125 0
M  V30 40 H 12.802643 6.107389 -1.575059 0
M  V30 41 H 12.804910 8.485214 -0.825149 0
M  V30 42 H 12.074221 10.281677 -2.362646 0
M  V30 43 H 10.328076 9.772015 -9.169521 0
M  V30 44 H 11.953585 9.174446 -9.392009 0
M  V30 45 H 11.869721 6.629176 -12.740532 0
M  V30 46 H 12.658699 5.036903 -14.272859 0
M  V30 47 H 11.982892 3.429675 -14.005632 0
M  V30 48 H 11.452845 4.396580 -15.388956 0
M  V30 END ATOM
M  V30 BEGIN BOND
M  V30 1 1 2 1
M  V30 2 1 3 2
M  V30 3 2 4 3
M  V30 4 1 5 4
M  V30 5 1 6 5
M  V30 6 1 7 6
M  V30 7 1 8 7
M  V30 8 1 9 8
M  V30 9 1 10 9
M  V30 10 1 11 10
M  V30 11 1 12 11
M  V30 12 1 13 12
M  V30 13 1 14 13
M  V30 14 2 15 14
M  V30 15 1 16 15
M  V30 16 2 17 16
M  V30 17 1 18 17
M  V30 18 1 19 14
M  V30 19 2 19 18
M  V30 20 1 20 7
M  V30 21 1 20 11
M  V30 22 2 21 5
M  V30 23 2 22 2
M  V30 24 1 22 21
M  V30 25 1 23 22
M  V30 26 1 24 1
M  V30 27 1 25 1
M  V30 28 1 26 1
M  V30 29 1 27 3
M  V30 30 1 28 4
M  V30 31 1 29 6
M  V30 32 1 30 6
M  V30 33 1 31 8
M  V30 34 1 32 8
M  V30 35 1 33 9
M  V30 36 1 34 9
M  V30 37 1 11 35 CFG=3
M  V30 38 1 36 12
M  V30 39 1 37 12
M  V30 40 1 38 15
M  V30 41 1 39 16
M  V30 42 1 40 17
M  V30 43 1 41 18
M  V30 44 1 42 19
M  V30 45 1 43 20
M  V30 46 1 44 20
M  V30 47 1 45 21
M  V30 48 1 46 23
M  V30 49 1 47 23
M  V30 50 1 48 23
M  V30 END BOND
M  V30 END CTAB
M  END
>  <b_m_subgroup_collapsed>  (1378) 
0

>  <r_i_docking_score>  (1378) 
-7.1953922130415897

>  <s_m_subgroup_title>  (1378) 
glide-dock_SP_D22_pv

>  <s_m_subgroupid>  (1378) 
glide-dock_SP_D22_pv

>  <Molecule ChEMBL ID>  (1378) 
CHEMBL3794079

>  <Standard Type>  (1378) 
Ki

>  <Standard Value>  (1378) 
10000.0

>  <label>  (1378) 
0

$$$$
CHEMBL104497
     RDKit          3D

  0  0  0  0  0  0  0  0  0  0999 V3000
M  V30 BEGIN CTAB
M  V30 COUNTS 57 60 0 0 1
M  V30 BEGIN ATOM
M  V30 1 C 11.407158 3.552251 -15.353741 0
M  V30 2 C 10.641225 2.321975 -14.824523 0 CFG=2
M  V30 3 C 10.958097 1.075322 -15.688311 0
M  V30 4 C 9.665752 0.805874 -16.391956 0
M  V30 5 C 9.439800 -0.152023 -17.395292 0
M  V30 6 C 8.142891 -0.250870 -17.941195 0
M  V30 7 C 7.108559 0.596849 -17.483170 0
M  V30 8 C 7.356369 1.553210 -16.474234 0
M  V30 9 C 8.658247 1.645217 -15.928627 0
M  V30 10 N 9.172657 2.503527 -14.914894 0
M  V30 11 C 8.418818 3.236808 -14.050876 0
M  V30 12 O 7.202426 3.371138 -14.180424 0
M  V30 13 C 9.099875 3.919647 -12.843360 0
M  V30 14 C 8.131083 4.512363 -11.782320 0 CFG=1
M  V30 15 C 8.830622 4.752374 -10.426932 0
M  V30 16 C 9.682227 6.017858 -10.428393 0
M  V30 17 N 8.885987 7.204105 -10.817103 0 CFG=1 CHG=1
M  V30 18 C 9.593632 8.491920 -10.626252 0
M  V30 19 C 10.155538 8.660880 -9.219427 0
M  V30 20 C 9.286071 8.712222 -8.113272 0
M  V30 21 C 9.796589 8.912982 -6.819175 0
M  V30 22 C 11.178699 9.089928 -6.597910 0
M  V30 23 N 11.687053 9.426193 -5.251409 0 CHG=1
M  V30 24 O 12.891328 9.372197 -5.048460 0
M  V30 25 O 10.885696 9.772383 -4.392685 0 CHG=-1
M  V30 26 C 12.052626 8.972281 -7.701908 0
M  V30 27 C 11.546514 8.759957 -9.002306 0
M  V30 28 C 8.318273 7.041171 -12.175056 0
M  V30 29 C 7.406317 5.803202 -12.226877 0
M  V30 30 H 12.482804 3.374591 -15.347425 0
M  V30 31 H 11.120248 3.779218 -16.381304 0
M  V30 32 H 11.233386 4.447640 -14.762186 0
M  V30 33 H 10.954185 2.111975 -13.802518 0
M  V30 34 H 11.209262 0.215189 -15.067389 0
M  V30 35 H 11.769025 1.236237 -16.399889 0
M  V30 36 H 10.235986 -0.796140 -17.738457 0
M  V30 37 H 7.937510 -0.981084 -18.710178 0
M  V30 38 H 6.118356 0.508948 -17.906010 0
M  V30 39 H 6.546834 2.187279 -16.149651 0
M  V30 40 H 9.711167 3.166925 -12.347186 0
M  V30 41 H 9.775903 4.695318 -13.192777 0
M  V30 42 H 7.353459 3.772046 -11.596397 0
M  V30 43 H 8.086286 4.826295 -9.633957 0
M  V30 44 H 9.482853 3.922217 -10.156168 0
M  V30 45 H 10.486158 5.912004 -11.148934 0
M  V30 46 H 10.134167 6.125375 -9.442848 0
M  V30 47 H 10.398973 8.571821 -11.357339 0
M  V30 48 H 8.897767 9.309921 -10.821302 0
M  V30 49 H 8.218260 8.619589 -8.244845 0
M  V30 50 H 9.101473 8.969005 -5.999178 0
M  V30 51 H 13.119050 9.086767 -7.566162 0
M  V30 52 H 12.235276 8.711869 -9.834013 0
M  V30 53 H 9.123917 6.947033 -12.899280 0
M  V30 54 H 7.740277 7.927385 -12.441822 0
M  V30 55 H 6.985867 5.697727 -13.224578 0
M  V30 56 H 6.550414 5.964021 -11.570048 0
M  V30 57 H 8.037803 7.262927 -10.245856 0
M  V30 END ATOM
M  V30 BEGIN BOND
M  V30 1 1 2 1
M  V30 2 1 3 2
M  V30 3 1 4 3
M  V30 4 2 5 4
M  V30 5 1 6 5
M  V30 6 2 7 6
M  V30 7 1 8 7
M  V30 8 1 9 4
M  V30 9 2 9 8
M  V30 10 1 10 2
M  V30 11 1 10 9
M  V30 12 1 11 10
M  V30 13 2 12 11
M  V30 14 1 13 11
M  V30 15 1 14 13
M  V30 16 1 15 14
M  V30 17 1 16 15
M  V30 18 1 17 16
M  V30 19 1 18 17
M  V30 20 1 19 18
M  V30 21 1 20 19
M  V30 22 2 21 20
M  V30 23 1 22 21
M  V30 24 1 23 22
M  V30 25 2 24 23
M  V30 26 1 25 23
M  V30 27 2 26 22
M  V30 28 2 27 19
M  V30 29 1 27 26
M  V30 30 1 28 17
M  V30 31 1 29 14
M  V30 32 1 29 28
M  V30 33 1 30 1
M  V30 34 1 31 1
M  V30 35 1 32 1
M  V30 36 1 2 33 CFG=1
M  V30 37 1 34 3
M  V30 38 1 35 3
M  V30 39 1 36 5
M  V30 40 1 37 6
M  V30 41 1 38 7
M  V30 42 1 39 8
M  V30 43 1 40 13
M  V30 44 1 41 13
M  V30 45 1 14 42 CFG=1
M  V30 46 1 43 15
M  V30 47 1 44 15
M  V30 48 1 45 16
M  V30 49 1 46 16
M  V30 50 1 47 18
M  V30 51 1 48 18
M  V30 52 1 49 20
M  V30 53 1 50 21
M  V30 54 1 51 26
M  V30 55 1 52 27
M  V30 56 1 53 28
M  V30 57 1 54 28
M  V30 58 1 55 29
M  V30 59 1 56 29
M  V30 60 1 17 57 CFG=1
M  V30 END BOND
M  V30 END CTAB
M  END
>  <b_m_subgroup_collapsed>  (1379) 
0

>  <r_i_docking_score>  (1379) 
-7.1950800175126401

>  <s_m_subgroup_title>  (1379) 
glide-dock_SP_D22_pv

>  <s_m_subgroupid>  (1379) 
glide-dock_SP_D22_pv

>  <Molecule ChEMBL ID>  (1379) 
CHEMBL104497

>  <Standard Type>  (1379) 
Ki

>  <Standard Value>  (1379) 
10000.0

>  <label>  (1379) 
0

$$$$
CHEMBL5274285
     RDKit          3D

  0  0  0  0  0  0  0  0  0  0999 V3000
M  V30 BEGIN CTAB
M  V30 COUNTS 54 58 0 0 1
M  V30 BEGIN ATOM
M  V30 1 F 13.072137 7.983071 -19.248547 0
M  V30 2 C 12.778301 7.349860 -18.087687 0
M  V30 3 C 13.610520 7.512501 -16.966864 0
M  V30 4 C 13.308015 6.849643 -15.761186 0
M  V30 5 C 12.172728 6.018022 -15.652593 0
M  V30 6 C 11.928531 5.335558 -14.299787 0
M  V30 7 N 11.166080 4.083942 -14.243965 0
M  V30 8 C 11.427369 3.067525 -15.253203 0
M  V30 9 C 10.662483 1.881940 -14.706969 0
M  V30 10 C 9.451006 2.501667 -14.026353 0
M  V30 11 C 9.786880 3.979005 -13.743040 0 CFG=2
M  V30 12 C 8.835703 4.972057 -14.427149 0
M  V30 13 C 8.170048 5.751045 -13.300259 0
M  V30 14 N 9.138981 5.696777 -12.202504 0 CFG=1 CHG=1
M  V30 15 C 8.566173 6.172276 -10.934921 0
M  V30 16 C 9.529508 6.639354 -9.908451 0
M  V30 17 C 10.767104 7.202172 -10.067083 0
M  V30 18 C 11.108700 7.782843 -8.804417 0
M  V30 19 C 12.182417 8.572356 -8.353505 0
M  V30 20 C 12.193642 9.084172 -7.044547 0
M  V30 21 C 11.179162 8.765301 -6.129609 0
M  V30 22 Cl 11.286013 9.372411 -4.517881 0
M  V30 23 C 10.102589 7.959108 -6.543320 0
M  V30 24 C 10.068427 7.496482 -7.872570 0
M  V30 25 N 9.136244 6.776566 -8.586049 0
M  V30 26 C 9.621531 4.314863 -12.241399 0
M  V30 27 C 11.337691 5.870775 -16.787441 0
M  V30 28 C 11.641006 6.527618 -17.996361 0
M  V30 29 F 10.830259 6.368549 -19.069353 0
M  V30 30 H 14.482814 8.144901 -17.037197 0
M  V30 31 H 13.964252 6.973833 -14.911835 0
M  V30 32 H 12.909255 5.098648 -13.886845 0
M  V30 33 H 11.497175 6.064279 -13.615227 0
M  V30 34 H 11.014863 3.337514 -16.221493 0
M  V30 35 H 12.487377 2.865956 -15.381826 0
M  V30 36 H 10.396622 1.157411 -15.477173 0
M  V30 37 H 11.278980 1.372682 -13.965231 0
M  V30 38 H 8.556354 2.377662 -14.636695 0
M  V30 39 H 9.285963 1.972649 -13.092648 0
M  V30 40 H 9.356994 5.691607 -15.045682 0
M  V30 41 H 8.099723 4.472334 -15.046726 0
M  V30 42 H 7.934342 6.781178 -13.562087 0
M  V30 43 H 7.240352 5.260690 -13.003069 0
M  V30 44 H 8.085808 7.094041 -11.233966 0
M  V30 45 H 7.808080 5.498893 -10.529587 0
M  V30 46 H 11.342172 7.295567 -10.976145 0
M  V30 47 H 12.980265 8.832101 -9.034816 0
M  V30 48 H 13.007600 9.715178 -6.723759 0
M  V30 49 H 9.300192 7.717659 -5.861306 0
M  V30 50 H 8.198023 6.557896 -8.266232 0
M  V30 51 H 8.826263 3.707827 -11.813057 0
M  V30 52 H 10.486027 4.144135 -11.623236 0
M  V30 53 H 10.455475 5.254305 -16.769142 0
M  V30 54 H 9.906645 6.305252 -12.443008 0
M  V30 END ATOM
M  V30 BEGIN BOND
M  V30 1 1 2 1
M  V30 2 1 3 2
M  V30 3 2 4 3
M  V30 4 1 5 4
M  V30 5 1 6 5
M  V30 6 1 7 6
M  V30 7 1 8 7
M  V30 8 1 9 8
M  V30 9 1 10 9
M  V30 10 1 11 7 CFG=3
M  V30 11 1 11 10
M  V30 12 1 12 11
M  V30 13 1 13 12
M  V30 14 1 14 13
M  V30 15 1 15 14
M  V30 16 1 16 15
M  V30 17 2 17 16
M  V30 18 1 18 17
M  V30 19 1 19 18
M  V30 20 2 20 19
M  V30 21 1 21 20
M  V30 22 1 22 21
M  V30 23 2 23 21
M  V30 24 2 24 18
M  V30 25 1 24 23
M  V30 26 1 25 16
M  V30 27 1 25 24
M  V30 28 1 26 11
M  V30 29 1 26 14
M  V30 30 2 27 5
M  V30 31 2 28 2
M  V30 32 1 28 27
M  V30 33 1 29 28
M  V30 34 1 30 3
M  V30 35 1 31 4
M  V30 36 1 32 6
M  V30 37 1 33 6
M  V30 38 1 34 8
M  V30 39 1 35 8
M  V30 40 1 36 9
M  V30 41 1 37 9
M  V30 42 1 38 10
M  V30 43 1 39 10
M  V30 44 1 40 12
M  V30 45 1 41 12
M  V30 46 1 42 13
M  V30 47 1 43 13
M  V30 48 1 44 15
M  V30 49 1 45 15
M  V30 50 1 46 17
M  V30 51 1 47 19
M  V30 52 1 48 20
M  V30 53 1 49 23
M  V30 54 1 50 25
M  V30 55 1 51 26
M  V30 56 1 52 26
M  V30 57 1 53 27
M  V30 58 1 14 54 CFG=3
M  V30 END BOND
M  V30 END CTAB
M  END
>  <b_m_subgroup_collapsed>  (1380) 
0

>  <r_i_docking_score>  (1380) 
-7.1937730436385197

>  <s_m_subgroup_title>  (1380) 
glide-dock_SP_D22_pv

>  <s_m_subgroupid>  (1380) 
glide-dock_SP_D22_pv

>  <Molecule ChEMBL ID>  (1380) 
CHEMBL5274285

>  <Standard Type>  (1380) 
Ki

>  <Standard Value>  (1380) 
10000.0

>  <label>  (1380) 
0

$$$$
CHEMBL179649
     RDKit          3D

  0  0  0  0  0  0  0  0  0  0999 V3000
M  V30 BEGIN CTAB
M  V30 COUNTS 59 62 0 0 1
M  V30 BEGIN ATOM
M  V30 1 C 10.578809 6.634563 -7.497483 0
M  V30 2 C 9.175335 7.043555 -7.985542 0
M  V30 3 N 8.886030 6.702757 -9.403869 0 CHG=1
M  V30 4 C 8.800014 5.242165 -9.666987 0
M  V30 5 C 8.340298 4.972680 -11.110502 0
M  V30 6 N 9.223760 5.662937 -12.049728 0
M  V30 7 C 9.817952 4.983478 -13.140259 0
M  V30 8 C 10.838415 5.570532 -13.924150 0
M  V30 9 C 11.359226 4.873789 -15.031497 0
M  V30 10 C 12.302269 5.563319 -15.917164 0
M  V30 11 C 13.685673 5.515885 -15.678372 0
M  V30 12 C 14.590219 6.172846 -16.533112 0
M  V30 13 C 14.111598 6.900766 -17.635715 0
M  V30 14 F 14.978473 7.534101 -18.458664 0
M  V30 15 C 12.727324 6.972461 -17.879177 0
M  V30 16 C 11.829161 6.301489 -17.025372 0
M  V30 17 C 10.915343 3.551979 -15.273343 0
M  V30 18 C 9.893970 3.040195 -14.439641 0
M  V30 19 N 9.358146 3.745568 -13.423066 0
M  V30 20 C 9.248758 1.680895 -14.678058 0
M  V30 21 C 8.089947 1.737403 -15.691610 0
M  V30 22 C 8.485103 1.755593 -17.188423 0 CFG=1
M  V30 23 O 7.274514 1.684350 -17.916199 0
M  V30 24 C 9.217377 3.023963 -17.681107 0
M  V30 25 C 10.750998 2.922481 -17.753275 0
M  V30 26 C 11.489495 2.727581 -16.421646 0
M  V30 27 C 9.328143 7.106822 -11.840095 0
M  V30 28 C 9.753001 7.409905 -10.389003 0
M  V30 29 H 10.700896 6.878453 -6.441027 0
M  V30 30 H 10.755971 5.564918 -7.605519 0
M  V30 31 H 11.365974 7.162547 -8.033176 0
M  V30 32 H 9.036637 8.117795 -7.847488 0
M  V30 33 H 8.422019 6.566775 -7.353805 0
M  V30 34 H 8.097184 4.783118 -8.969475 0
M  V30 35 H 9.772767 4.773151 -9.500334 0
M  V30 36 H 7.323483 5.344635 -11.251505 0
M  V30 37 H 8.299027 3.898798 -11.280401 0
M  V30 38 H 11.221665 6.558585 -13.727669 0
M  V30 39 H 14.058237 4.972246 -14.823822 0
M  V30 40 H 15.651001 6.120707 -16.337767 0
M  V30 41 H 12.354721 7.537789 -18.722610 0
M  V30 42 H 10.765485 6.358190 -17.216192 0
M  V30 43 H 8.851060 1.339049 -13.723722 0
M  V30 44 H 9.974363 0.913989 -14.946519 0
M  V30 45 H 7.434826 2.577321 -15.455977 0
M  V30 46 H 7.488213 0.842104 -15.524693 0
M  V30 47 H 9.067717 0.866700 -17.435751 0
M  V30 48 H 6.833604 0.875310 -17.688753 0
M  V30 49 H 8.894209 3.245505 -18.700508 0
M  V30 50 H 8.909382 3.892557 -17.099291 0
M  V30 51 H 11.105078 3.851348 -18.200035 0
M  V30 52 H 11.043971 2.137316 -18.451134 0
M  V30 53 H 12.543836 2.966035 -16.555250 0
M  V30 54 H 11.506742 1.670254 -16.164558 0
M  V30 55 H 10.003753 7.605739 -12.527323 0
M  V30 56 H 8.344641 7.543380 -12.028150 0
M  V30 57 H 9.705826 8.484428 -10.210194 0
M  V30 58 H 10.788219 7.102286 -10.253417 0
M  V30 59 H 7.942336 7.057234 -9.577977 0
M  V30 END ATOM
M  V30 BEGIN BOND
M  V30 1 1 2 1
M  V30 2 1 3 2
M  V30 3 1 4 3
M  V30 4 1 5 4
M  V30 5 1 6 5
M  V30 6 1 7 6
M  V30 7 2 8 7
M  V30 8 1 9 8
M  V30 9 1 10 9
M  V30 10 1 11 10
M  V30 11 2 12 11
M  V30 12 1 13 12
M  V30 13 1 14 13
M  V30 14 2 15 13
M  V30 15 2 16 10
M  V30 16 1 16 15
M  V30 17 2 17 9
M  V30 18 1 18 17
M  V30 19 1 19 7
M  V30 20 2 19 18
M  V30 21 1 20 18
M  V30 22 1 21 20
M  V30 23 1 22 21
M  V30 24 1 23 22
M  V30 25 1 24 22
M  V30 26 1 25 24
M  V30 27 1 26 17
M  V30 28 1 26 25
M  V30 29 1 27 6
M  V30 30 1 28 3
M  V30 31 1 28 27
M  V30 32 1 29 1
M  V30 33 1 30 1
M  V30 34 1 31 1
M  V30 35 1 32 2
M  V30 36 1 33 2
M  V30 37 1 34 4
M  V30 38 1 35 4
M  V30 39 1 36 5
M  V30 40 1 37 5
M  V30 41 1 38 8
M  V30 42 1 39 11
M  V30 43 1 40 12
M  V30 44 1 41 15
M  V30 45 1 42 16
M  V30 46 1 43 20
M  V30 47 1 44 20
M  V30 48 1 45 21
M  V30 49 1 46 21
M  V30 50 1 22 47 CFG=1
M  V30 51 1 48 23
M  V30 52 1 49 24
M  V30 53 1 50 24
M  V30 54 1 51 25
M  V30 55 1 52 25
M  V30 56 1 53 26
M  V30 57 1 54 26
M  V30 58 1 55 27
M  V30 59 1 56 27
M  V30 60 1 57 28
M  V30 61 1 58 28
M  V30 62 1 59 3
M  V30 END BOND
M  V30 END CTAB
M  END
>  <b_m_subgroup_collapsed>  (1381) 
0

>  <r_i_docking_score>  (1381) 
-7.19264551396956

>  <s_m_subgroup_title>  (1381) 
glide-dock_SP_D22_pv

>  <s_m_subgroupid>  (1381) 
glide-dock_SP_D22_pv

>  <Molecule ChEMBL ID>  (1381) 
CHEMBL179649

>  <Standard Type>  (1381) 
Ki

>  <Standard Value>  (1381) 
11.9

>  <label>  (1381) 
1

$$$$
CHEMBL373873
     RDKit          3D

  0  0  0  0  0  0  0  0  0  0999 V3000
M  V30 BEGIN CTAB
M  V30 COUNTS 65 68 0 0 1
M  V30 BEGIN ATOM
M  V30 1 C 8.854646 8.413643 -8.253907 0
M  V30 2 C 10.334168 8.394585 -8.394051 0
M  V30 3 C 11.156476 7.944694 -9.399265 0
M  V30 4 C 10.796554 7.372458 -10.726317 0
M  V30 5 O 11.517099 7.532063 -11.710748 0
M  V30 6 N 9.685709 6.615810 -10.749110 0
M  V30 7 C 9.126716 5.945182 -11.921276 0
M  V30 8 C 10.090015 4.909075 -12.542530 0
M  V30 9 C 9.486923 4.134404 -13.715953 0
M  V30 10 C 10.553193 3.337948 -14.514809 0
M  V30 11 N 9.988335 2.289590 -15.401000 0 CHG=1
M  V30 12 C 9.606977 1.064382 -14.646443 0
M  V30 13 C 8.961806 -0.012264 -15.533191 0
M  V30 14 N 7.966309 0.564466 -16.420685 0
M  V30 15 C 6.672696 0.020881 -16.540850 0
M  V30 16 C 6.221633 -0.375136 -17.820099 0
M  V30 17 C 4.930952 -0.908588 -17.990683 0
M  V30 18 C 4.069046 -1.032999 -16.887089 0
M  V30 19 C 4.494502 -0.626834 -15.610139 0
M  V30 20 Cl 3.380157 -0.698853 -14.290877 0
M  V30 21 C 5.797977 -0.113469 -15.426729 0
M  V30 22 Cl 6.256770 0.428011 -13.845963 0
M  V30 23 C 8.372263 1.698481 -17.230066 0
M  V30 24 C 8.914431 2.791584 -16.299707 0
M  V30 25 N 12.473816 8.172439 -9.012585 0
M  V30 26 N 12.487832 8.727514 -7.846915 0
M  V30 27 N 11.211190 8.898053 -7.452178 0
M  V30 28 C 10.949817 9.555082 -6.179768 0
M  V30 29 C 11.335979 8.723665 -4.972777 0
M  V30 30 C 11.704573 9.374994 -3.777423 0
M  V30 31 C 12.085868 8.628057 -2.645756 0
M  V30 32 C 12.086119 7.222885 -2.704305 0
M  V30 33 C 11.686431 6.574322 -3.885595 0
M  V30 34 C 11.298985 7.314730 -5.013703 0
M  V30 35 H 8.449265 7.449914 -8.557134 0
M  V30 36 H 8.522076 8.569302 -7.227702 0
M  V30 37 H 8.417924 9.193658 -8.880472 0
M  V30 38 H 9.144367 6.560654 -9.896720 0
M  V30 39 H 8.202239 5.454874 -11.611442 0
M  V30 40 H 8.844884 6.699524 -12.657877 0
M  V30 41 H 10.990988 5.408002 -12.899231 0
M  V30 42 H 10.404620 4.190500 -11.786081 0
M  V30 43 H 8.711380 3.472501 -13.326735 0
M  V30 44 H 8.987700 4.839027 -14.383958 0
M  V30 45 H 11.135534 4.034482 -15.121180 0
M  V30 46 H 11.269568 2.872810 -13.835606 0
M  V30 47 H 10.489012 0.643462 -14.165769 0
M  V30 48 H 8.916554 1.332054 -13.847233 0
M  V30 49 H 9.716987 -0.517064 -16.137159 0
M  V30 50 H 8.503969 -0.763674 -14.901197 0
M  V30 51 H 6.869809 -0.282172 -18.678381 0
M  V30 52 H 4.594842 -1.217769 -18.969767 0
M  V30 53 H 3.072566 -1.428457 -17.022043 0
M  V30 54 H 9.139791 1.378998 -17.938988 0
M  V30 55 H 7.532137 2.082058 -17.810976 0
M  V30 56 H 8.086338 3.130356 -15.682261 0
M  V30 57 H 9.270181 3.644650 -16.877678 0
M  V30 58 H 9.895071 9.772106 -6.084859 0
M  V30 59 H 11.477706 10.511342 -6.167737 0
M  V30 60 H 11.686698 10.453337 -3.717370 0
M  V30 61 H 12.374670 9.138402 -1.737492 0
M  V30 62 H 12.386093 6.637734 -1.847880 0
M  V30 63 H 11.700522 5.504261 -3.943279 0
M  V30 64 H 10.996868 6.790194 -5.908740 0
M  V30 65 H 10.740734 1.998004 -16.009729 0
M  V30 END ATOM
M  V30 BEGIN BOND
M  V30 1 1 2 1
M  V30 2 2 3 2
M  V30 3 1 4 3
M  V30 4 2 5 4
M  V30 5 1 6 4
M  V30 6 1 7 6
M  V30 7 1 8 7
M  V30 8 1 9 8
M  V30 9 1 10 9
M  V30 10 1 11 10
M  V30 11 1 12 11
M  V30 12 1 13 12
M  V30 13 1 14 13
M  V30 14 1 15 14
M  V30 15 2 16 15
M  V30 16 1 17 16
M  V30 17 2 18 17
M  V30 18 1 19 18
M  V30 19 1 20 19
M  V30 20 1 21 15
M  V30 21 2 21 19
M  V30 22 1 22 21
M  V30 23 1 23 14
M  V30 24 1 24 11
M  V30 25 1 24 23
M  V30 26 1 25 3
M  V30 27 2 26 25
M  V30 28 1 27 2
M  V30 29 1 27 26
M  V30 30 1 28 27
M  V30 31 1 29 28
M  V30 32 2 30 29
M  V30 33 1 31 30
M  V30 34 2 32 31
M  V30 35 1 33 32
M  V30 36 1 34 29
M  V30 37 2 34 33
M  V30 38 1 35 1
M  V30 39 1 36 1
M  V30 40 1 37 1
M  V30 41 1 38 6
M  V30 42 1 39 7
M  V30 43 1 40 7
M  V30 44 1 41 8
M  V30 45 1 42 8
M  V30 46 1 43 9
M  V30 47 1 44 9
M  V30 48 1 45 10
M  V30 49 1 46 10
M  V30 50 1 47 12
M  V30 51 1 48 12
M  V30 52 1 49 13
M  V30 53 1 50 13
M  V30 54 1 51 16
M  V30 55 1 52 17
M  V30 56 1 53 18
M  V30 57 1 54 23
M  V30 58 1 55 23
M  V30 59 1 56 24
M  V30 60 1 57 24
M  V30 61 1 58 28
M  V30 62 1 59 28
M  V30 63 1 60 30
M  V30 64 1 61 31
M  V30 65 1 62 32
M  V30 66 1 63 33
M  V30 67 1 64 34
M  V30 68 1 65 11
M  V30 END BOND
M  V30 END CTAB
M  END
>  <b_m_subgroup_collapsed>  (1382) 
0

>  <r_i_docking_score>  (1382) 
-7.1878329328252901

>  <s_m_subgroup_title>  (1382) 
glide-dock_SP_D22_pv

>  <s_m_subgroupid>  (1382) 
glide-dock_SP_D22_pv

>  <Molecule ChEMBL ID>  (1382) 
CHEMBL373873

>  <Standard Type>  (1382) 
Ki

>  <Standard Value>  (1382) 
14.0

>  <label>  (1382) 
1

$$$$
CHEMBL289196
     RDKit          3D

  0  0  0  0  0  0  0  0  0  0999 V3000
M  V30 BEGIN CTAB
M  V30 COUNTS 42 44 0 0 1
M  V30 BEGIN ATOM
M  V30 1 Br 12.687625 8.972324 -1.446875 0
M  V30 2 C 12.086076 8.307328 -3.093994 0
M  V30 3 C 11.755896 6.953634 -3.141427 0
M  V30 4 C 11.347301 6.410816 -4.355978 0
M  V30 5 C 11.286112 7.185544 -5.511045 0
M  V30 6 C 11.588682 8.564463 -5.469884 0
M  V30 7 O 11.544147 9.377513 -6.577644 0
M  V30 8 C 11.135322 8.818048 -7.824918 0
M  V30 9 C 9.598736 8.865390 -7.997615 0 CFG=1
M  V30 10 C 9.197878 8.967741 -9.469976 0
M  V30 11 C 9.323754 7.610969 -10.183225 0
M  V30 12 N 8.488754 6.565772 -9.533230 0 CFG=1 CHG=1
M  V30 13 C 8.561295 5.260729 -10.236287 0
M  V30 14 C 7.860261 5.280120 -11.582540 0
M  V30 15 C 8.608447 5.571153 -12.865823 0
M  V30 16 C 8.123325 4.173906 -12.581479 0
M  V30 17 C 8.775103 6.429605 -8.080441 0
M  V30 18 C 8.743795 7.779921 -7.328546 0
M  V30 19 C 11.988874 9.124519 -4.238329 0
M  V30 20 H 11.821987 6.333343 -2.258936 0
M  V30 21 H 11.093589 5.372381 -4.413582 0
M  V30 22 H 11.020081 6.669251 -6.413076 0
M  V30 23 H 11.588373 9.468965 -8.571265 0
M  V30 24 H 11.565839 7.842008 -8.045602 0
M  V30 25 H 9.286160 9.772328 -7.513922 0
M  V30 26 H 8.178071 9.349046 -9.551359 0
M  V30 27 H 9.822569 9.711000 -9.954856 0
M  V30 28 H 10.366023 7.289868 -10.206202 0
M  V30 29 H 9.009164 7.740408 -11.218506 0
M  V30 30 H 9.601279 4.953512 -10.359465 0
M  V30 31 H 8.086047 4.492187 -9.626922 0
M  V30 32 H 6.830728 5.632655 -11.534339 0
M  V30 33 H 8.086077 6.141626 -13.630591 0
M  V30 34 H 9.680032 5.750490 -12.802942 0
M  V30 35 H 8.886322 3.433698 -12.345770 0
M  V30 36 H 7.277306 3.805964 -13.158636 0
M  V30 37 H 9.746542 5.949867 -7.969755 0
M  V30 38 H 8.043514 5.757481 -7.630431 0
M  V30 39 H 8.978713 7.651362 -6.277660 0
M  V30 40 H 7.731120 8.172286 -7.272537 0
M  V30 41 H 12.239436 10.171841 -4.174392 0
M  V30 42 H 7.528032 6.920134 -9.632967 0
M  V30 END ATOM
M  V30 BEGIN BOND
M  V30 1 1 2 1
M  V30 2 1 3 2
M  V30 3 2 4 3
M  V30 4 1 5 4
M  V30 5 2 6 5
M  V30 6 1 7 6
M  V30 7 1 8 7
M  V30 8 1 9 8
M  V30 9 1 10 9
M  V30 10 1 11 10
M  V30 11 1 12 11
M  V30 12 1 13 12
M  V30 13 1 14 13
M  V30 14 1 15 14
M  V30 15 1 16 14
M  V30 16 1 16 15
M  V30 17 1 17 12
M  V30 18 1 18 9
M  V30 19 1 18 17
M  V30 20 2 19 2
M  V30 21 1 19 6
M  V30 22 1 20 3
M  V30 23 1 21 4
M  V30 24 1 22 5
M  V30 25 1 23 8
M  V30 26 1 24 8
M  V30 27 1 9 25 CFG=1
M  V30 28 1 26 10
M  V30 29 1 27 10
M  V30 30 1 28 11
M  V30 31 1 29 11
M  V30 32 1 30 13
M  V30 33 1 31 13
M  V30 34 1 32 14
M  V30 35 1 33 15
M  V30 36 1 34 15
M  V30 37 1 35 16
M  V30 38 1 36 16
M  V30 39 1 37 17
M  V30 40 1 38 17
M  V30 41 1 39 18
M  V30 42 1 40 18
M  V30 43 1 41 19
M  V30 44 1 12 42 CFG=1
M  V30 END BOND
M  V30 END CTAB
M  END
>  <b_m_subgroup_collapsed>  (1383) 
0

>  <r_i_docking_score>  (1383) 
-7.18764733346433

>  <s_m_subgroup_title>  (1383) 
glide-dock_SP_D22_pv

>  <s_m_subgroupid>  (1383) 
glide-dock_SP_D22_pv

>  <Molecule ChEMBL ID>  (1383) 
CHEMBL289196

>  <Standard Type>  (1383) 
Ki

>  <Standard Value>  (1383) 
10000.0

>  <label>  (1383) 
0

$$$$
CHEMBL345349
     RDKit          3D

  0  0  0  0  0  0  0  0  0  0999 V3000
M  V30 BEGIN CTAB
M  V30 COUNTS 36 39 0 0 1
M  V30 BEGIN ATOM
M  V30 1 C 12.234153 7.758385 -2.865625 0
M  V30 2 C 12.485836 9.048069 -3.367546 0
M  V30 3 C 12.165178 9.372308 -4.701272 0
M  V30 4 C 11.487576 8.451425 -5.526361 0
M  V30 5 C 11.051615 8.428685 -6.888911 0
M  V30 6 C 10.309053 7.305907 -7.076623 0
M  V30 7 N 10.370285 6.572316 -5.912382 0
M  V30 8 C 11.161015 7.189933 -4.965312 0
M  V30 9 C 11.590109 6.812039 -3.679180 0
M  V30 10 C 9.553769 6.968570 -8.334901 0 CFG=2
M  V30 11 C 9.484247 5.465709 -8.655333 0
M  V30 12 C 8.722606 5.232676 -9.967772 0
M  V30 13 C 9.349380 6.023154 -11.120468 0
M  V30 14 C 9.469650 7.511632 -10.769292 0
M  V30 15 N 10.171472 7.713672 -9.477158 0 CFG=1 CHG=1
M  V30 16 C 10.346824 9.154627 -9.164002 0
M  V30 17 C 11.316059 9.371829 -7.986574 0
M  V30 18 H 12.520021 7.502667 -1.855998 0
M  V30 19 H 12.978341 9.772369 -2.737017 0
M  V30 20 H 12.425293 10.332925 -5.112610 0
M  V30 21 H 9.922146 5.672300 -5.796729 0
M  V30 22 H 11.355906 5.831792 -3.289516 0
M  V30 23 H 8.530495 7.333164 -8.215929 0
M  V30 24 H 10.486304 5.043763 -8.725832 0
M  V30 25 H 8.977718 4.935378 -7.849131 0
M  V30 26 H 8.698554 4.172395 -10.209838 0
M  V30 27 H 7.685875 5.547868 -9.846859 0
M  V30 28 H 10.332438 5.621659 -11.357542 0
M  V30 29 H 8.745977 5.903830 -12.021166 0
M  V30 30 H 10.010371 8.025661 -11.565078 0
M  V30 31 H 8.486017 7.972624 -10.723016 0
M  V30 32 H 10.738143 9.687589 -10.028276 0
M  V30 33 H 9.367199 9.576558 -8.934029 0
M  V30 34 H 11.286019 10.379786 -7.584937 0
M  V30 35 H 12.335735 9.214819 -8.339791 0
M  V30 36 H 11.098181 7.331412 -9.590817 0
M  V30 END ATOM
M  V30 BEGIN BOND
M  V30 1 2 2 1
M  V30 2 1 3 2
M  V30 3 2 4 3
M  V30 4 1 5 4
M  V30 5 2 6 5
M  V30 6 1 7 6
M  V30 7 1 8 4
M  V30 8 1 8 7
M  V30 9 1 9 1
M  V30 10 2 9 8
M  V30 11 1 10 6
M  V30 12 1 11 10
M  V30 13 1 12 11
M  V30 14 1 13 12
M  V30 15 1 14 13
M  V30 16 1 15 10
M  V30 17 1 15 14
M  V30 18 1 16 15
M  V30 19 1 17 5
M  V30 20 1 17 16
M  V30 21 1 18 1
M  V30 22 1 19 2
M  V30 23 1 20 3
M  V30 24 1 21 7
M  V30 25 1 22 9
M  V30 26 1 10 23 CFG=1
M  V30 27 1 24 11
M  V30 28 1 25 11
M  V30 29 1 26 12
M  V30 30 1 27 12
M  V30 31 1 28 13
M  V30 32 1 29 13
M  V30 33 1 30 14
M  V30 34 1 31 14
M  V30 35 1 32 16
M  V30 36 1 33 16
M  V30 37 1 34 17
M  V30 38 1 35 17
M  V30 39 1 15 36 CFG=3
M  V30 END BOND
M  V30 END CTAB
M  END
>  <b_m_subgroup_collapsed>  (1384) 
0

>  <r_i_docking_score>  (1384) 
-7.1875588951966396

>  <s_m_subgroup_title>  (1384) 
glide-dock_SP_D22_pv

>  <s_m_subgroupid>  (1384) 
glide-dock_SP_D22_pv

>  <Molecule ChEMBL ID>  (1384) 
CHEMBL345349

>  <Standard Type>  (1384) 
Ki

>  <Standard Value>  (1384) 
10000.0

>  <label>  (1384) 
0

$$$$
CHEMBL308476
     RDKit          3D

  0  0  0  0  0  0  0  0  0  0999 V3000
M  V30 BEGIN CTAB
M  V30 COUNTS 59 63 0 0 1
M  V30 BEGIN ATOM
M  V30 1 C 11.692141 8.111238 -3.791651 0
M  V30 2 C 11.508009 6.848760 -4.383705 0
M  V30 3 C 11.285851 6.745955 -5.769972 0
M  V30 4 C 11.285261 7.891853 -6.588388 0
M  V30 5 C 11.270786 7.769235 -8.052770 0
M  V30 6 C 12.414247 8.205239 -8.749089 0
M  V30 7 C 12.451254 8.187904 -10.147283 0
M  V30 8 C 11.325901 7.772878 -10.866889 0
M  V30 9 C 10.209370 7.219715 -10.208327 0
M  V30 10 C 9.002534 6.743408 -11.023004 0
M  V30 11 N 9.186108 5.534392 -11.887182 0 CHG=1
M  V30 12 C 7.925699 5.243015 -12.631584 0
M  V30 13 C 8.021877 4.022577 -13.578395 0
M  V30 14 N 9.261546 4.007411 -14.341021 0
M  V30 15 C 9.286652 3.734825 -15.720224 0
M  V30 16 C 9.845811 4.718745 -16.566896 0
M  V30 17 C 9.888080 4.540779 -17.957727 0
M  V30 18 C 9.388062 3.359070 -18.524416 0
M  V30 19 C 8.853830 2.347299 -17.703472 0
M  V30 20 C 8.786205 2.527747 -16.291847 0
M  V30 21 C 8.225093 1.398358 -15.417327 0
M  V30 22 C 7.526299 0.288295 -16.217268 0
M  V30 23 C 8.286538 -0.013662 -17.505148 0
M  V30 24 N 8.397758 1.179008 -18.329466 0
M  V30 25 C 10.505208 4.335515 -13.669115 0
M  V30 26 C 10.339355 5.609231 -12.825614 0
M  V30 27 C 10.186921 7.225816 -8.790651 0
M  V30 28 C 11.432120 9.158766 -5.979394 0
M  V30 29 C 11.629907 9.268636 -4.589383 0
M  V30 30 H 11.857549 8.194584 -2.726752 0
M  V30 31 H 11.542193 5.957246 -3.773655 0
M  V30 32 H 11.187946 5.772293 -6.223060 0
M  V30 33 H 13.268604 8.587942 -8.207308 0
M  V30 34 H 13.316126 8.567834 -10.668498 0
M  V30 35 H 11.348031 7.872415 -11.940316 0
M  V30 36 H 8.186568 6.527858 -10.329841 0
M  V30 37 H 8.669732 7.584298 -11.634836 0
M  V30 38 H 7.101832 5.098747 -11.928908 0
M  V30 39 H 7.674990 6.119885 -13.231088 0
M  V30 40 H 7.972701 3.091722 -13.029434 0
M  V30 41 H 7.160198 4.025891 -14.247474 0
M  V30 42 H 10.226600 5.640710 -16.151321 0
M  V30 43 H 10.301021 5.313052 -18.591063 0
M  V30 44 H 9.430201 3.228782 -19.596870 0
M  V30 45 H 9.051969 0.973912 -14.847001 0
M  V30 46 H 7.500247 1.773773 -14.701639 0
M  V30 47 H 7.411053 -0.616316 -15.613665 0
M  V30 48 H 6.517105 0.612579 -16.478428 0
M  V30 49 H 9.285822 -0.385839 -17.275230 0
M  V30 50 H 7.775910 -0.793796 -18.070728 0
M  V30 51 H 8.615455 1.037843 -19.306196 0
M  V30 52 H 10.797318 3.491598 -13.045557 0
M  V30 53 H 11.317386 4.469563 -14.385873 0
M  V30 54 H 10.204711 6.482284 -13.450861 0
M  V30 55 H 11.281501 5.772255 -12.325700 0
M  V30 56 H 9.314356 6.867417 -8.264873 0
M  V30 57 H 11.436084 10.052401 -6.586563 0
M  V30 58 H 11.747793 10.235369 -4.127789 0
M  V30 59 H 9.359431 4.753654 -11.270773 0
M  V30 END ATOM
M  V30 BEGIN BOND
M  V30 1 2 2 1
M  V30 2 1 3 2
M  V30 3 2 4 3
M  V30 4 1 5 4
M  V30 5 2 6 5
M  V30 6 1 7 6
M  V30 7 2 8 7
M  V30 8 1 9 8
M  V30 9 1 10 9
M  V30 10 1 11 10
M  V30 11 1 12 11
M  V30 12 1 13 12
M  V30 13 1 14 13
M  V30 14 1 15 14
M  V30 15 2 16 15
M  V30 16 1 17 16
M  V30 17 2 18 17
M  V30 18 1 19 18
M  V30 19 1 20 15
M  V30 20 2 20 19
M  V30 21 1 21 20
M  V30 22 1 22 21
M  V30 23 1 23 22
M  V30 24 1 24 19
M  V30 25 1 24 23
M  V30 26 1 25 14
M  V30 27 1 26 11
M  V30 28 1 26 25
M  V30 29 1 27 5
M  V30 30 2 27 9
M  V30 31 1 28 4
M  V30 32 1 29 1
M  V30 33 2 29 28
M  V30 34 1 30 1
M  V30 35 1 31 2
M  V30 36 1 32 3
M  V30 37 1 33 6
M  V30 38 1 34 7
M  V30 39 1 35 8
M  V30 40 1 36 10
M  V30 41 1 37 10
M  V30 42 1 38 12
M  V30 43 1 39 12
M  V30 44 1 40 13
M  V30 45 1 41 13
M  V30 46 1 42 16
M  V30 47 1 43 17
M  V30 48 1 44 18
M  V30 49 1 45 21
M  V30 50 1 46 21
M  V30 51 1 47 22
M  V30 52 1 48 22
M  V30 53 1 49 23
M  V30 54 1 50 23
M  V30 55 1 51 24
M  V30 56 1 52 25
M  V30 57 1 53 25
M  V30 58 1 54 26
M  V30 59 1 55 26
M  V30 60 1 56 27
M  V30 61 1 57 28
M  V30 62 1 58 29
M  V30 63 1 59 11
M  V30 END BOND
M  V30 END CTAB
M  END
>  <b_m_subgroup_collapsed>  (1385) 
0

>  <r_i_docking_score>  (1385) 
-7.1865998292731499

>  <s_m_subgroup_title>  (1385) 
glide-dock_SP_D22_pv

>  <s_m_subgroupid>  (1385) 
glide-dock_SP_D22_pv

>  <Molecule ChEMBL ID>  (1385) 
CHEMBL308476

>  <Standard Type>  (1385) 
Ki

>  <Standard Value>  (1385) 
4.0

>  <label>  (1385) 
1

$$$$
CHEMBL1214893
     RDKit          3D

  0  0  0  0  0  0  0  0  0  0999 V3000
M  V30 BEGIN CTAB
M  V30 COUNTS 56 59 0 0 1
M  V30 BEGIN ATOM
M  V30 1 F 4.711880 -0.975918 -17.973713 0
M  V30 2 C 3.908716 -1.502828 -17.049931 0
M  V30 3 C 4.216644 -0.908338 -15.670217 0
M  V30 4 C 5.626469 -1.262538 -15.165530 0
M  V30 5 O 5.836842 -0.767550 -13.847076 0
M  V30 6 C 6.007039 0.587735 -13.677976 0
M  V30 7 C 5.397271 1.176602 -12.556289 0
M  V30 8 C 5.497621 2.560386 -12.312570 0
M  V30 9 C 6.267118 3.372638 -13.161943 0
M  V30 10 C 6.346031 4.870200 -12.912917 0
M  V30 11 N 7.642910 5.355157 -12.435752 0
M  V30 12 C 7.685926 5.172407 -10.987734 0
M  V30 13 C 9.017876 5.655680 -10.405240 0
M  V30 14 N 9.172408 7.109147 -10.655806 0 CHG=1
M  V30 15 C 10.433678 7.684662 -10.118105 0
M  V30 16 C 10.561485 7.725983 -8.622157 0
M  V30 17 C 10.716184 6.735126 -7.677456 0
M  V30 18 C 11.006988 7.402392 -6.440239 0
M  V30 19 C 11.328694 7.025171 -5.115788 0
M  V30 20 C 11.686018 7.997735 -4.153358 0
M  V30 21 C 11.651339 9.371158 -4.474679 0
M  V30 22 C 11.290076 9.777369 -5.774666 0
M  V30 23 C 10.993294 8.789072 -6.730032 0
M  V30 24 O 10.694257 8.972409 -8.064784 0
M  V30 25 C 9.032073 7.377317 -12.108597 0
M  V30 26 C 7.716099 6.799329 -12.665620 0
M  V30 27 C 6.935277 2.776986 -14.254008 0
M  V30 28 C 6.793665 1.398726 -14.527158 0
M  V30 29 H 4.041501 -2.586291 -17.062771 0
M  V30 30 H 2.885764 -1.285260 -17.354656 0
M  V30 31 H 3.479084 -1.276667 -14.956408 0
M  V30 32 H 4.092266 0.172128 -15.707187 0
M  V30 33 H 6.399661 -0.936892 -15.859769 0
M  V30 34 H 5.704829 -2.348624 -15.110980 0
M  V30 35 H 4.886073 0.545498 -11.852632 0
M  V30 36 H 5.021121 2.990965 -11.447054 0
M  V30 37 H 6.091357 5.348258 -13.846792 0
M  V30 38 H 5.553222 5.169866 -12.224443 0
M  V30 39 H 6.885978 5.769681 -10.547667 0
M  V30 40 H 7.517029 4.128092 -10.728216 0
M  V30 41 H 9.006452 5.459215 -9.335246 0
M  V30 42 H 9.849744 5.095429 -10.833412 0
M  V30 43 H 11.277987 7.129627 -10.529133 0
M  V30 44 H 10.540114 8.702101 -10.498500 0
M  V30 45 H 10.698299 5.666212 -7.822690 0
M  V30 46 H 11.349587 5.977948 -4.850936 0
M  V30 47 H 11.959759 7.686621 -3.155460 0
M  V30 48 H 11.902744 10.106163 -3.721203 0
M  V30 49 H 11.269354 10.823488 -6.042883 0
M  V30 50 H 9.050594 8.453091 -12.283977 0
M  V30 51 H 9.881204 6.951827 -12.646283 0
M  V30 52 H 7.692786 6.974547 -13.737720 0
M  V30 53 H 6.850416 7.314289 -12.246879 0
M  V30 54 H 7.558366 3.372873 -14.900741 0
M  V30 55 H 7.312574 0.976267 -15.373173 0
M  V30 56 H 8.370422 7.560432 -10.218143 0
M  V30 END ATOM
M  V30 BEGIN BOND
M  V30 1 1 2 1
M  V30 2 1 3 2
M  V30 3 1 4 3
M  V30 4 1 5 4
M  V30 5 1 6 5
M  V30 6 1 7 6
M  V30 7 2 8 7
M  V30 8 1 9 8
M  V30 9 1 10 9
M  V30 10 1 11 10
M  V30 11 1 12 11
M  V30 12 1 13 12
M  V30 13 1 14 13
M  V30 14 1 15 14
M  V30 15 1 16 15
M  V30 16 2 17 16
M  V30 17 1 18 17
M  V30 18 2 19 18
M  V30 19 1 20 19
M  V30 20 2 21 20
M  V30 21 1 22 21
M  V30 22 1 23 18
M  V30 23 2 23 22
M  V30 24 1 24 16
M  V30 25 1 24 23
M  V30 26 1 25 14
M  V30 27 1 26 11
M  V30 28 1 26 25
M  V30 29 2 27 9
M  V30 30 2 28 6
M  V30 31 1 28 27
M  V30 32 1 29 2
M  V30 33 1 30 2
M  V30 34 1 31 3
M  V30 35 1 32 3
M  V30 36 1 33 4
M  V30 37 1 34 4
M  V30 38 1 35 7
M  V30 39 1 36 8
M  V30 40 1 37 10
M  V30 41 1 38 10
M  V30 42 1 39 12
M  V30 43 1 40 12
M  V30 44 1 41 13
M  V30 45 1 42 13
M  V30 46 1 43 15
M  V30 47 1 44 15
M  V30 48 1 45 17
M  V30 49 1 46 19
M  V30 50 1 47 20
M  V30 51 1 48 21
M  V30 52 1 49 22
M  V30 53 1 50 25
M  V30 54 1 51 25
M  V30 55 1 52 26
M  V30 56 1 53 26
M  V30 57 1 54 27
M  V30 58 1 55 28
M  V30 59 1 56 14
M  V30 END BOND
M  V30 END CTAB
M  END
>  <b_m_subgroup_collapsed>  (1386) 
0

>  <r_i_docking_score>  (1386) 
-7.1852745974130903

>  <s_m_subgroup_title>  (1386) 
glide-dock_SP_D22_pv

>  <s_m_subgroupid>  (1386) 
glide-dock_SP_D22_pv

>  <Molecule ChEMBL ID>  (1386) 
CHEMBL1214893

>  <Standard Type>  (1386) 
Ki

>  <Standard Value>  (1386) 
10000.0

>  <label>  (1386) 
0

$$$$
CHEMBL517407
     RDKit          3D

  0  0  0  0  0  0  0  0  0  0999 V3000
M  V30 BEGIN CTAB
M  V30 COUNTS 76 80 0 0 1
M  V30 BEGIN ATOM
M  V30 1 C 12.381895 4.336489 -14.374492 0
M  V30 2 N 10.916760 4.123435 -14.425611 0 CFG=1 CHG=1
M  V30 3 C 10.466203 2.986868 -13.580791 0
M  V30 4 C 9.247733 2.256623 -14.171659 0
M  V30 5 C 9.568326 1.621831 -15.516828 0
M  V30 6 C 8.780124 0.865234 -16.318392 0
M  V30 7 C 7.436469 0.357245 -15.953235 0
M  V30 8 C 7.129790 -0.115436 -14.655038 0
M  V30 9 C 5.852007 -0.621412 -14.351203 0
M  V30 10 C 4.855837 -0.671025 -15.341725 0
M  V30 11 C 5.150358 -0.229080 -16.643446 0
M  V30 12 C 6.429757 0.276542 -16.948013 0
M  V30 13 S 6.766165 0.762131 -18.614899 0
M  V30 14 C 8.481205 0.356100 -18.748974 0
M  V30 15 C 8.993962 -0.004634 -20.009129 0
M  V30 16 C 10.360146 -0.313818 -20.155064 0
M  V30 17 C 11.209414 -0.266981 -19.034124 0
M  V30 18 Cl 12.888354 -0.627562 -19.203959 0
M  V30 19 C 10.695296 0.084238 -17.772367 0
M  V30 20 C 9.327180 0.410626 -17.614540 0
M  V30 21 C 10.134748 5.372201 -14.256840 0
M  V30 22 C 10.285995 6.036231 -12.894463 0
M  V30 23 C 9.367409 5.784981 -11.853410 0
M  V30 24 C 9.506404 6.443516 -10.613787 0
M  V30 25 C 10.547916 7.368528 -10.394760 0
M  V30 26 O 10.618657 7.949559 -9.146897 0
M  V30 27 C 11.662930 8.872773 -8.855730 0
M  V30 28 C 12.195271 8.568611 -7.460842 0
M  V30 29 C 11.208185 8.869256 -6.326899 0
M  V30 30 N 11.839128 8.596731 -5.013316 0 CHG=1
M  V30 31 C 11.461919 9.579027 -3.970848 0
M  V30 32 C 12.238641 9.349622 -2.673253 0
M  V30 33 C 12.073918 7.915598 -2.163622 0
M  V30 34 C 12.469609 6.926029 -3.263025 0
M  V30 35 C 11.698353 7.183519 -4.571393 0
M  V30 36 C 11.449660 7.630754 -11.455041 0
M  V30 37 C 11.319730 6.972146 -12.687880 0
M  V30 38 H 12.735497 4.479887 -13.352333 0
M  V30 39 H 12.886284 3.472119 -14.801393 0
M  V30 40 H 12.681871 5.203427 -14.964739 0
M  V30 41 H 10.253648 3.316488 -12.563446 0
M  V30 42 H 11.276118 2.257703 -13.496518 0
M  V30 43 H 8.400892 2.933425 -14.286180 0
M  V30 44 H 8.947691 1.506960 -13.447619 0
M  V30 45 H 10.541457 1.889795 -15.898181 0
M  V30 46 H 7.882517 -0.165454 -13.889391 0
M  V30 47 H 5.656625 -0.999296 -13.361236 0
M  V30 48 H 3.878683 -1.072562 -15.115121 0
M  V30 49 H 4.396812 -0.293047 -17.413080 0
M  V30 50 H 8.345235 -0.038308 -20.871943 0
M  V30 51 H 10.756060 -0.582658 -21.124310 0
M  V30 52 H 11.370100 0.111558 -16.929478 0
M  V30 53 H 10.475780 6.071190 -15.024549 0
M  V30 54 H 9.078159 5.186574 -14.457304 0
M  V30 55 H 8.549496 5.093876 -11.997658 0
M  V30 56 H 8.790689 6.243592 -9.826548 0
M  V30 57 H 12.532847 8.800001 -9.499339 0
M  V30 58 H 11.286153 9.889515 -8.931490 0
M  V30 59 H 12.484925 7.517112 -7.447917 0
M  V30 60 H 13.107080 9.148436 -7.311476 0
M  V30 61 H 10.912160 9.918048 -6.401653 0
M  V30 62 H 10.290997 8.286761 -6.439584 0
M  V30 63 H 11.676184 10.572613 -4.344316 0
M  V30 64 H 10.401557 9.547272 -3.774033 0
M  V30 65 H 13.285795 9.552605 -2.852687 0
M  V30 66 H 11.936115 10.055098 -1.902310 0
M  V30 67 H 12.702233 7.771203 -1.284443 0
M  V30 68 H 11.042749 7.735983 -1.852520 0
M  V30 69 H 13.539562 7.023325 -3.444161 0
M  V30 70 H 12.308310 5.901344 -2.926141 0
M  V30 71 H 10.644994 6.927082 -4.455676 0
M  V30 72 H 12.082568 6.516725 -5.341838 0
M  V30 73 H 12.251637 8.349065 -11.384796 0
M  V30 74 H 12.015791 7.199395 -13.481602 0
M  V30 75 H 12.830135 8.750724 -5.151250 0
M  V30 76 H 10.738115 3.834345 -15.376964 0
M  V30 END ATOM
M  V30 BEGIN BOND
M  V30 1 1 2 1
M  V30 2 1 3 2
M  V30 3 1 4 3
M  V30 4 1 5 4
M  V30 5 2 6 5
M  V30 6 1 7 6
M  V30 7 2 8 7
M  V30 8 1 9 8
M  V30 9 2 10 9
M  V30 10 1 11 10
M  V30 11 1 12 7
M  V30 12 2 12 11
M  V30 13 1 13 12
M  V30 14 1 14 13
M  V30 15 1 15 14
M  V30 16 2 16 15
M  V30 17 1 17 16
M  V30 18 1 18 17
M  V30 19 2 19 17
M  V30 20 1 20 6
M  V30 21 2 20 14
M  V30 22 1 20 19
M  V30 23 1 21 2
M  V30 24 1 22 21
M  V30 25 1 23 22
M  V30 26 2 24 23
M  V30 27 1 25 24
M  V30 28 1 26 25
M  V30 29 1 27 26
M  V30 30 1 28 27
M  V30 31 1 29 28
M  V30 32 1 30 29
M  V30 33 1 31 30
M  V30 34 1 32 31
M  V30 35 1 33 32
M  V30 36 1 34 33
M  V30 37 1 35 30
M  V30 38 1 35 34
M  V30 39 2 36 25
M  V30 40 2 37 22
M  V30 41 1 37 36
M  V30 42 1 38 1
M  V30 43 1 39 1
M  V30 44 1 40 1
M  V30 45 1 41 3
M  V30 46 1 42 3
M  V30 47 1 43 4
M  V30 48 1 44 4
M  V30 49 1 45 5
M  V30 50 1 46 8
M  V30 51 1 47 9
M  V30 52 1 48 10
M  V30 53 1 49 11
M  V30 54 1 50 15
M  V30 55 1 51 16
M  V30 56 1 52 19
M  V30 57 1 53 21
M  V30 58 1 54 21
M  V30 59 1 55 23
M  V30 60 1 56 24
M  V30 61 1 57 27
M  V30 62 1 58 27
M  V30 63 1 59 28
M  V30 64 1 60 28
M  V30 65 1 61 29
M  V30 66 1 62 29
M  V30 67 1 63 31
M  V30 68 1 64 31
M  V30 69 1 65 32
M  V30 70 1 66 32
M  V30 71 1 67 33
M  V30 72 1 68 33
M  V30 73 1 69 34
M  V30 74 1 70 34
M  V30 75 1 71 35
M  V30 76 1 72 35
M  V30 77 1 73 36
M  V30 78 1 74 37
M  V30 79 1 75 30
M  V30 80 1 2 76 CFG=3
M  V30 END BOND
M  V30 END CTAB
M  END
>  <b_m_subgroup_collapsed>  (1387) 
0

>  <r_i_docking_score>  (1387) 
-7.1846215802988302

>  <s_m_subgroup_title>  (1387) 
glide-dock_SP_D22_pv

>  <s_m_subgroupid>  (1387) 
glide-dock_SP_D22_pv

>  <Molecule ChEMBL ID>  (1387) 
CHEMBL517407

>  <Standard Type>  (1387) 
Ki

>  <Standard Value>  (1387) 
52.0

>  <label>  (1387) 
1

$$$$
CHEMBL5722962
     RDKit          3D

  0  0  0  0  0  0  0  0  0  0999 V3000
M  V30 BEGIN CTAB
M  V30 COUNTS 42 44 0 0 1
M  V30 BEGIN ATOM
M  V30 1 C 11.726398 7.884020 -2.241665 0
M  V30 2 C 12.408325 6.965199 -3.261159 0
M  V30 3 C 11.527912 6.572549 -4.465088 0
M  V30 4 N 11.271098 7.607748 -5.457552 0
M  V30 5 C 10.633685 7.439776 -6.668532 0
M  V30 6 C 10.669692 8.633086 -7.333899 0
M  V30 7 C 10.140408 8.978475 -8.699456 0
M  V30 8 N 10.127938 7.835215 -9.598022 0
M  V30 9 C 9.607848 8.223077 -10.900606 0
M  V30 10 C 9.398927 6.999640 -11.770753 0
M  V30 11 C 10.389766 6.367460 -12.433444 0
M  V30 12 C 10.109267 5.149134 -13.229424 0
M  V30 13 O 11.002908 4.569525 -13.846377 0
M  V30 14 C 8.693422 4.671794 -13.223999 0
M  V30 15 C 8.318142 3.486090 -13.891567 0
M  V30 16 C 6.980053 3.043628 -13.848174 0
M  V30 17 F 6.629178 1.899100 -14.480799 0
M  V30 18 C 6.010033 3.781820 -13.142679 0
M  V30 19 C 6.376386 4.967181 -12.477831 0
M  V30 20 C 7.712109 5.408824 -12.517450 0
M  V30 21 N 8.085851 6.572748 -11.846811 0
M  V30 22 C 11.320258 9.498368 -6.409330 0
M  V30 23 N 11.683529 8.884482 -5.295297 0
M  V30 24 H 12.420662 8.163960 -1.449545 0
M  V30 25 H 11.358900 8.805603 -2.689629 0
M  V30 26 H 10.884324 7.374504 -1.777484 0
M  V30 27 H 12.703843 6.052893 -2.741606 0
M  V30 28 H 13.337645 7.410933 -3.610592 0
M  V30 29 H 10.572055 6.172758 -4.127208 0
M  V30 30 H 12.030679 5.772048 -4.999157 0
M  V30 31 H 10.229544 6.483500 -6.969870 0
M  V30 32 H 9.124168 9.367694 -8.618999 0
M  V30 33 H 10.738219 9.771796 -9.151501 0
M  V30 34 H 11.066768 7.482481 -9.706743 0
M  V30 35 H 8.652085 8.735591 -10.773340 0
M  V30 36 H 10.284534 8.922923 -11.390750 0
M  V30 37 H 11.409171 6.718400 -12.377670 0
M  V30 38 H 9.052032 2.903791 -14.429806 0
M  V30 39 H 4.987101 3.437012 -13.107856 0
M  V30 40 H 5.639301 5.531209 -11.924294 0
M  V30 41 H 7.392333 7.047971 -11.251276 0
M  V30 42 H 11.551467 10.547493 -6.519269 0
M  V30 END ATOM
M  V30 BEGIN BOND
M  V30 1 1 2 1
M  V30 2 1 3 2
M  V30 3 1 4 3
M  V30 4 1 5 4
M  V30 5 2 6 5
M  V30 6 1 7 6
M  V30 7 1 8 7
M  V30 8 1 9 8
M  V30 9 1 10 9
M  V30 10 2 11 10
M  V30 11 1 12 11
M  V30 12 2 13 12
M  V30 13 1 14 12
M  V30 14 2 15 14
M  V30 15 1 16 15
M  V30 16 1 17 16
M  V30 17 2 18 16
M  V30 18 1 19 18
M  V30 19 1 20 14
M  V30 20 2 20 19
M  V30 21 1 21 10
M  V30 22 1 21 20
M  V30 23 1 22 6
M  V30 24 1 23 4
M  V30 25 2 23 22
M  V30 26 1 24 1
M  V30 27 1 25 1
M  V30 28 1 26 1
M  V30 29 1 27 2
M  V30 30 1 28 2
M  V30 31 1 29 3
M  V30 32 1 30 3
M  V30 33 1 31 5
M  V30 34 1 32 7
M  V30 35 1 33 7
M  V30 36 1 34 8
M  V30 37 1 35 9
M  V30 38 1 36 9
M  V30 39 1 37 11
M  V30 40 1 38 15
M  V30 41 1 39 18
M  V30 42 1 40 19
M  V30 43 1 41 21
M  V30 44 1 42 22
M  V30 END BOND
M  V30 END CTAB
M  END
>  <b_m_subgroup_collapsed>  (1388) 
0

>  <r_i_docking_score>  (1388) 
-7.1842928167142803

>  <s_m_subgroup_title>  (1388) 
glide-dock_SP_D22_pv

>  <s_m_subgroupid>  (1388) 
glide-dock_SP_D22_pv

>  <Molecule ChEMBL ID>  (1388) 
CHEMBL5722962

>  <Standard Type>  (1388) 
Ki

>  <Standard Value>  (1388) 
10000.0

>  <label>  (1388) 
0

$$$$
CHEMBL381912
     RDKit          3D

  0  0  0  0  0  0  0  0  0  0999 V3000
M  V30 BEGIN CTAB
M  V30 COUNTS 46 50 0 0 1
M  V30 BEGIN ATOM
M  V30 1 C 11.925994 9.372308 -4.293688 0
M  V30 2 C 11.280082 10.162432 -5.260522 0
M  V30 3 C 10.619633 9.551696 -6.343782 0
M  V30 4 C 10.605934 8.153651 -6.506866 0
M  V30 5 C 9.775939 7.534491 -7.654746 0 CFG=2
M  V30 6 C 9.241696 6.172043 -7.205695 0
M  V30 7 C 8.485960 5.357402 -8.247293 0
M  V30 8 C 9.260220 5.287496 -9.545625 0
M  V30 9 C 9.646819 6.699924 -9.999817 0 CFG=2
M  V30 10 C 10.342679 6.654826 -11.321045 0
M  V30 11 N 9.994362 5.837223 -12.384593 0
M  V30 12 C 10.886301 5.992711 -13.426713 0
M  V30 13 C 10.990425 5.372395 -14.686202 0
M  V30 14 C 11.994779 5.790619 -15.577350 0
M  V30 15 C 12.878640 6.822426 -15.204357 0
M  V30 16 C 12.775125 7.423313 -13.932693 0
M  V30 17 C 11.790755 7.014160 -13.005357 0
M  V30 18 C 11.452800 7.372350 -11.650105 0
M  V30 19 C 12.113221 8.267672 -10.647461 0
M  V30 20 C 11.153596 8.605473 -9.485522 0
M  V30 21 N 10.501139 7.371577 -8.956063 0 CFG=1 CHG=1
M  V30 22 C 11.285995 7.372590 -5.531991 0
M  V30 23 C 11.922240 7.975547 -4.428325 0
M  V30 24 H 12.420185 9.833311 -3.450936 0
M  V30 25 H 11.271614 11.236936 -5.160696 0
M  V30 26 H 10.089751 10.170728 -7.046863 0
M  V30 27 H 8.919590 8.188638 -7.832011 0
M  V30 28 H 10.090705 5.534918 -6.988836 0
M  V30 29 H 8.647923 6.264350 -6.295294 0
M  V30 30 H 8.302810 4.349822 -7.875271 0
M  V30 31 H 7.504584 5.772445 -8.429078 0
M  V30 32 H 10.144809 4.661769 -9.422660 0
M  V30 33 H 8.634872 4.797072 -10.293432 0
M  V30 34 H 8.740400 7.293212 -10.125193 0
M  V30 35 H 9.204394 5.206997 -12.368509 0
M  V30 36 H 10.297163 4.597622 -14.974331 0
M  V30 37 H 12.083778 5.328812 -16.550205 0
M  V30 38 H 13.648971 7.146290 -15.889662 0
M  V30 39 H 13.473979 8.194320 -13.647606 0
M  V30 40 H 12.993360 7.772587 -10.240231 0
M  V30 41 H 12.483987 9.182011 -11.108823 0
M  V30 42 H 11.731941 9.116424 -8.718257 0
M  V30 43 H 10.381679 9.301231 -9.819144 0
M  V30 44 H 11.328251 6.296413 -5.572613 0
M  V30 45 H 12.418996 7.361554 -3.690536 0
M  V30 46 H 11.255288 6.729321 -8.767488 0
M  V30 END ATOM
M  V30 BEGIN BOND
M  V30 1 2 2 1
M  V30 2 1 3 2
M  V30 3 2 4 3
M  V30 4 1 5 4
M  V30 5 1 6 5
M  V30 6 1 7 6
M  V30 7 1 8 7
M  V30 8 1 9 8
M  V30 9 1 10 9
M  V30 10 1 11 10
M  V30 11 1 12 11
M  V30 12 2 13 12
M  V30 13 1 14 13
M  V30 14 2 15 14
M  V30 15 1 16 15
M  V30 16 1 17 12
M  V30 17 2 17 16
M  V30 18 2 18 10
M  V30 19 1 18 17
M  V30 20 1 19 18
M  V30 21 1 20 19
M  V30 22 1 21 5
M  V30 23 1 21 9
M  V30 24 1 21 20
M  V30 25 1 22 4
M  V30 26 1 23 1
M  V30 27 2 23 22
M  V30 28 1 24 1
M  V30 29 1 25 2
M  V30 30 1 26 3
M  V30 31 1 5 27 CFG=3
M  V30 32 1 28 6
M  V30 33 1 29 6
M  V30 34 1 30 7
M  V30 35 1 31 7
M  V30 36 1 32 8
M  V30 37 1 33 8
M  V30 38 1 9 34 CFG=3
M  V30 39 1 35 11
M  V30 40 1 36 13
M  V30 41 1 37 14
M  V30 42 1 38 15
M  V30 43 1 39 16
M  V30 44 1 40 19
M  V30 45 1 41 19
M  V30 46 1 42 20
M  V30 47 1 43 20
M  V30 48 1 44 22
M  V30 49 1 45 23
M  V30 50 1 21 46 CFG=1
M  V30 END BOND
M  V30 END CTAB
M  END
>  <b_m_subgroup_collapsed>  (1389) 
0

>  <r_i_docking_score>  (1389) 
-7.1836742490683498

>  <s_m_subgroup_title>  (1389) 
glide-dock_SP_D22_pv

>  <s_m_subgroupid>  (1389) 
glide-dock_SP_D22_pv

>  <Molecule ChEMBL ID>  (1389) 
CHEMBL381912

>  <Standard Type>  (1389) 
Ki

>  <Standard Value>  (1389) 
10000.0

>  <label>  (1389) 
0

$$$$
CHEMBL2335739
     RDKit          3D

  0  0  0  0  0  0  0  0  0  0999 V3000
M  V30 BEGIN CTAB
M  V30 COUNTS 47 50 0 0 1
M  V30 BEGIN ATOM
M  V30 1 C 11.683561 9.518465 -5.684445 0
M  V30 2 O 11.253689 8.168202 -5.802907 0
M  V30 3 C 10.774223 7.743897 -7.024472 0
M  V30 4 C 10.358378 6.406607 -7.131439 0
M  V30 5 C 9.849700 5.882463 -8.338278 0
M  V30 6 C 9.734200 6.705737 -9.482841 0
M  V30 7 C 10.148697 8.044395 -9.371113 0
M  V30 8 C 10.667244 8.562841 -8.167804 0
M  V30 9 C 9.984903 8.974042 -10.534093 0
M  V30 10 C 9.460179 8.379295 -11.835266 0
M  V30 11 N 8.489231 7.310253 -11.555655 0 CFG=1 CHG=1
M  V30 12 C 7.784560 6.906496 -12.790534 0
M  V30 13 C 6.775756 5.803232 -12.524179 0
M  V30 14 C 7.494711 4.572030 -11.957890 0 CFG=1
M  V30 15 O 6.448565 3.771544 -11.474160 0
M  V30 16 C 8.269797 3.823306 -13.062299 0
M  V30 17 C 9.681278 3.693900 -13.066629 0
M  V30 18 C 10.336701 2.967297 -14.079376 0
M  V30 19 C 9.595078 2.336889 -15.093240 0
M  V30 20 Cl 10.404008 1.415512 -16.307497 0
M  V30 21 C 8.193493 2.450971 -15.103493 0
M  V30 22 C 7.540154 3.193305 -14.100175 0
M  V30 23 C 8.326911 4.968828 -10.703030 0
M  V30 24 C 9.195231 6.214315 -10.837684 0 CFG=2
M  V30 25 H 12.044033 9.694879 -4.670512 0
M  V30 26 H 12.507363 9.737775 -6.366469 0
M  V30 27 H 10.863484 10.215624 -5.867190 0
M  V30 28 H 10.433703 5.772599 -6.262788 0
M  V30 29 H 9.552695 4.845170 -8.356283 0
M  V30 30 H 10.963335 9.600082 -8.141020 0
M  V30 31 H 10.979636 9.374688 -10.709719 0
M  V30 32 H 9.304838 9.769735 -10.222665 0
M  V30 33 H 10.287293 7.968408 -12.417216 0
M  V30 34 H 9.015016 9.167569 -12.444615 0
M  V30 35 H 8.507967 6.561800 -13.523685 0
M  V30 36 H 7.266731 7.772005 -13.205155 0
M  V30 37 H 6.234259 5.565532 -13.443496 0
M  V30 38 H 6.030579 6.172066 -11.816954 0
M  V30 39 H 6.083538 4.172583 -10.688804 0
M  V30 40 H 10.296594 4.100574 -12.285026 0
M  V30 41 H 11.411644 2.865326 -14.060475 0
M  V30 42 H 7.616714 1.963972 -15.876853 0
M  V30 43 H 6.461514 3.257523 -14.117266 0
M  V30 44 H 7.683976 5.172127 -9.852132 0
M  V30 45 H 8.975172 4.168769 -10.378674 0
M  V30 46 H 10.075911 5.959941 -11.422839 0
M  V30 47 H 7.762992 7.666032 -10.920436 0
M  V30 END ATOM
M  V30 BEGIN BOND
M  V30 1 1 2 1
M  V30 2 1 3 2
M  V30 3 1 4 3
M  V30 4 2 5 4
M  V30 5 1 6 5
M  V30 6 2 7 6
M  V30 7 2 8 3
M  V30 8 1 8 7
M  V30 9 1 9 7
M  V30 10 1 10 9
M  V30 11 1 11 10
M  V30 12 1 12 11
M  V30 13 1 13 12
M  V30 14 1 14 13
M  V30 15 1 14 15 CFG=1
M  V30 16 1 16 14
M  V30 17 1 17 16
M  V30 18 2 18 17
M  V30 19 1 19 18
M  V30 20 1 20 19
M  V30 21 2 21 19
M  V30 22 2 22 16
M  V30 23 1 22 21
M  V30 24 1 23 14
M  V30 25 1 24 6
M  V30 26 1 24 11
M  V30 27 1 24 23
M  V30 28 1 25 1
M  V30 29 1 26 1
M  V30 30 1 27 1
M  V30 31 1 28 4
M  V30 32 1 29 5
M  V30 33 1 30 8
M  V30 34 1 31 9
M  V30 35 1 32 9
M  V30 36 1 33 10
M  V30 37 1 34 10
M  V30 38 1 35 12
M  V30 39 1 36 12
M  V30 40 1 37 13
M  V30 41 1 38 13
M  V30 42 1 39 15
M  V30 43 1 40 17
M  V30 44 1 41 18
M  V30 45 1 42 21
M  V30 46 1 43 22
M  V30 47 1 44 23
M  V30 48 1 45 23
M  V30 49 1 24 46 CFG=3
M  V30 50 1 11 47 CFG=1
M  V30 END BOND
M  V30 END CTAB
M  END
>  <b_m_subgroup_collapsed>  (1390) 
0

>  <r_i_docking_score>  (1390) 
-7.1809850264188402

>  <s_m_subgroup_title>  (1390) 
glide-dock_SP_D22_pv

>  <s_m_subgroupid>  (1390) 
glide-dock_SP_D22_pv

>  <Molecule ChEMBL ID>  (1390) 
CHEMBL2335739

>  <Standard Type>  (1390) 
Ki

>  <Standard Value>  (1390) 
10000.0

>  <label>  (1390) 
0

$$$$
CHEMBL4092015
     RDKit          3D

  0  0  0  0  0  0  0  0  0  0999 V3000
M  V30 BEGIN CTAB
M  V30 COUNTS 67 71 0 0 1
M  V30 BEGIN ATOM
M  V30 1 C 13.523563 7.681547 -19.368786 0
M  V30 2 O 12.922564 6.515124 -18.834124 0
M  V30 3 C 11.588827 6.271841 -19.100910 0
M  V30 4 C 10.809485 7.107418 -19.940697 0
M  V30 5 C 9.461789 6.809285 -20.192282 0
M  V30 6 C 8.889200 5.664232 -19.620140 0
M  V30 7 C 9.661780 4.835026 -18.787479 0
M  V30 8 C 11.018201 5.122446 -18.490431 0
M  V30 9 N 11.823799 4.340473 -17.608000 0
M  V30 10 C 11.600670 2.909905 -17.465153 0
M  V30 11 C 12.173097 3.111395 -16.058331 0
M  V30 12 C 11.739313 4.580725 -16.162167 0 CFG=1
M  V30 13 C 12.727917 5.691444 -15.779857 0
M  V30 14 C 12.663362 6.035893 -14.285291 0
M  V30 15 N 11.286056 6.405308 -13.898156 0 CFG=2 CHG=1
M  V30 16 C 11.185351 6.988672 -12.537436 0
M  V30 17 C 9.876558 7.757465 -12.246627 0
M  V30 18 C 9.852860 8.382124 -10.851683 0
M  V30 19 S 9.686342 7.115005 -9.563886 0
M  V30 20 C 10.447124 7.941454 -8.200355 0
M  V30 21 N 11.318383 8.941886 -8.315742 0
M  V30 22 N 11.762321 9.189154 -7.045363 0
M  V30 23 C 11.135599 8.313287 -6.254850 0
M  V30 24 C 11.472649 8.229702 -4.838959 0
M  V30 25 C 11.692608 6.986678 -4.203695 0
M  V30 26 C 12.086978 6.939444 -2.852893 0
M  V30 27 C 12.294439 8.134400 -2.140526 0
M  V30 28 C 12.084320 9.371490 -2.769786 0
M  V30 29 C 11.664752 9.419611 -4.109390 0
M  V30 30 N 10.242143 7.554070 -6.928719 0
M  V30 31 C 9.286341 6.569603 -6.456490 0
M  V30 32 C 10.347813 5.280573 -14.147938 0
M  V30 33 C 10.331754 4.928384 -15.642821 0
M  V30 34 H 14.556477 7.744047 -19.026941 0
M  V30 35 H 13.532789 7.663671 -20.458033 0
M  V30 36 H 13.007151 8.577306 -19.023962 0
M  V30 37 H 11.224717 7.988634 -20.407511 0
M  V30 38 H 8.873169 7.453138 -20.829956 0
M  V30 39 H 7.853565 5.427532 -19.807556 0
M  V30 40 H 9.179217 3.976494 -18.345829 0
M  V30 41 H 10.555544 2.602551 -17.463924 0
M  V30 42 H 12.219410 2.294436 -18.118809 0
M  V30 43 H 13.256457 2.996093 -16.009996 0
M  V30 44 H 11.670289 2.536385 -15.280515 0
M  V30 45 H 12.511600 6.598183 -16.343662 0
M  V30 46 H 13.747750 5.411471 -16.047026 0
M  V30 47 H 13.317858 6.885007 -14.092853 0
M  V30 48 H 12.999619 5.192713 -13.681252 0
M  V30 49 H 12.032843 7.651643 -12.356721 0
M  V30 50 H 11.268600 6.172595 -11.846498 0
M  V30 51 H 8.998714 7.122655 -12.358113 0
M  V30 52 H 9.766551 8.572904 -12.954811 0
M  V30 53 H 9.009575 9.068329 -10.753427 0
M  V30 54 H 10.758108 8.972150 -10.730790 0
M  V30 55 H 11.586429 6.063241 -4.751678 0
M  V30 56 H 12.246931 5.986079 -2.371475 0
M  V30 57 H 12.611088 8.109733 -1.108762 0
M  V30 58 H 12.229907 10.287852 -2.223268 0
M  V30 59 H 11.506989 10.377560 -4.581338 0
M  V30 60 H 9.235684 5.731962 -7.151485 0
M  V30 61 H 9.542165 6.175250 -5.475471 0
M  V30 62 H 8.302446 7.032968 -6.400924 0
M  V30 63 H 10.641547 4.413836 -13.552687 0
M  V30 64 H 9.335965 5.539587 -13.844877 0
M  V30 65 H 9.917809 5.772358 -16.189163 0
M  V30 66 H 9.637498 4.101436 -15.801991 0
M  V30 67 H 11.017581 7.144646 -14.531545 0
M  V30 END ATOM
M  V30 BEGIN BOND
M  V30 1 1 2 1
M  V30 2 1 3 2
M  V30 3 2 4 3
M  V30 4 1 5 4
M  V30 5 2 6 5
M  V30 6 1 7 6
M  V30 7 1 8 3
M  V30 8 2 8 7
M  V30 9 1 9 8
M  V30 10 1 10 9
M  V30 11 1 11 10
M  V30 12 1 12 9 CFG=3
M  V30 13 1 12 11
M  V30 14 1 13 12
M  V30 15 1 14 13
M  V30 16 1 15 14
M  V30 17 1 16 15
M  V30 18 1 17 16
M  V30 19 1 18 17
M  V30 20 1 19 18
M  V30 21 1 20 19
M  V30 22 2 21 20
M  V30 23 1 22 21
M  V30 24 2 23 22
M  V30 25 1 24 23
M  V30 26 2 25 24
M  V30 27 1 26 25
M  V30 28 2 27 26
M  V30 29 1 28 27
M  V30 30 1 29 24
M  V30 31 2 29 28
M  V30 32 1 30 20
M  V30 33 1 30 23
M  V30 34 1 31 30
M  V30 35 1 32 15
M  V30 36 1 33 12
M  V30 37 1 33 32
M  V30 38 1 34 1
M  V30 39 1 35 1
M  V30 40 1 36 1
M  V30 41 1 37 4
M  V30 42 1 38 5
M  V30 43 1 39 6
M  V30 44 1 40 7
M  V30 45 1 41 10
M  V30 46 1 42 10
M  V30 47 1 43 11
M  V30 48 1 44 11
M  V30 49 1 45 13
M  V30 50 1 46 13
M  V30 51 1 47 14
M  V30 52 1 48 14
M  V30 53 1 49 16
M  V30 54 1 50 16
M  V30 55 1 51 17
M  V30 56 1 52 17
M  V30 57 1 53 18
M  V30 58 1 54 18
M  V30 59 1 55 25
M  V30 60 1 56 26
M  V30 61 1 57 27
M  V30 62 1 58 28
M  V30 63 1 59 29
M  V30 64 1 60 31
M  V30 65 1 61 31
M  V30 66 1 62 31
M  V30 67 1 63 32
M  V30 68 1 64 32
M  V30 69 1 65 33
M  V30 70 1 66 33
M  V30 71 1 15 67 CFG=3
M  V30 END BOND
M  V30 END CTAB
M  END
>  <b_m_subgroup_collapsed>  (1391) 
0

>  <r_i_docking_score>  (1391) 
-7.1807391801054896

>  <s_m_subgroup_title>  (1391) 
glide-dock_SP_D22_pv

>  <s_m_subgroupid>  (1391) 
glide-dock_SP_D22_pv

>  <Molecule ChEMBL ID>  (1391) 
CHEMBL4092015

>  <Standard Type>  (1391) 
Ki

>  <Standard Value>  (1391) 
29300.0

>  <label>  (1391) 
0

$$$$
CHEMBL3792731
     RDKit          3D

  0  0  0  0  0  0  0  0  0  0999 V3000
M  V30 BEGIN CTAB
M  V30 COUNTS 42 44 0 0 1
M  V30 BEGIN ATOM
M  V30 1 Cl 9.720722 3.526654 -14.991879 0
M  V30 2 C 9.968111 4.853538 -13.915689 0
M  V30 3 C 8.902281 5.325874 -13.126102 0
M  V30 4 C 9.100486 6.407024 -12.246362 0
M  V30 5 C 10.375917 7.004455 -12.128032 0
M  V30 6 C 10.626954 8.179606 -11.191462 0
M  V30 7 N 10.593756 7.914986 -9.750307 0
M  V30 8 C 9.223505 7.731306 -9.256656 0
M  V30 9 C 9.130028 7.614566 -7.728449 0
M  V30 10 O 9.766945 8.738210 -7.139986 0
M  V30 11 C 11.142241 8.845743 -7.498318 0 CFG=2
M  V30 12 C 11.803274 9.956343 -6.646907 0
M  V30 13 S 11.035007 10.172289 -5.028283 0
M  V30 14 C 11.663362 8.916939 -3.996318 0
M  V30 15 C 12.086225 9.254824 -2.702897 0
M  V30 16 C 12.486493 8.237572 -1.825997 0
M  V30 17 C 12.485725 6.895605 -2.246922 0
M  V30 18 C 12.084957 6.572401 -3.545889 0
M  V30 19 C 11.663546 7.577124 -4.418738 0
M  V30 20 C 11.226229 9.023129 -9.026542 0
M  V30 21 C 11.428854 6.554420 -12.956264 0
M  V30 22 C 11.229785 5.474430 -13.839041 0
M  V30 23 H 7.928187 4.864779 -13.200613 0
M  V30 24 H 8.258818 6.776400 -11.678425 0
M  V30 25 H 9.918987 8.971231 -11.439968 0
M  V30 26 H 11.612683 8.571870 -11.441587 0
M  V30 27 H 8.782314 6.828295 -9.672208 0
M  V30 28 H 8.599828 8.567476 -9.575923 0
M  V30 29 H 9.596866 6.692274 -7.379859 0
M  V30 30 H 8.087341 7.589824 -7.405231 0
M  V30 31 H 11.652266 7.909147 -7.279049 0
M  V30 32 H 11.683143 10.952168 -7.049726 0
M  V30 33 H 12.877479 9.785482 -6.544191 0
M  V30 34 H 12.084041 10.283270 -2.373892 0
M  V30 35 H 12.807801 8.491038 -0.828925 0
M  V30 36 H 12.805736 6.112840 -1.574745 0
M  V30 37 H 12.085734 5.550851 -3.879769 0
M  V30 38 H 11.280261 7.282955 -5.377628 0
M  V30 39 H 10.765356 9.964379 -9.320956 0
M  V30 40 H 12.275215 9.088723 -9.317878 0
M  V30 41 H 12.403840 7.018116 -12.903343 0
M  V30 42 H 12.042884 5.121857 -14.455614 0
M  V30 END ATOM
M  V30 BEGIN BOND
M  V30 1 1 2 1
M  V30 2 1 3 2
M  V30 3 2 4 3
M  V30 4 1 5 4
M  V30 5 1 6 5
M  V30 6 1 7 6
M  V30 7 1 8 7
M  V30 8 1 9 8
M  V30 9 1 10 9
M  V30 10 1 11 10
M  V30 11 1 12 11
M  V30 12 1 13 12
M  V30 13 1 14 13
M  V30 14 2 15 14
M  V30 15 1 16 15
M  V30 16 2 17 16
M  V30 17 1 18 17
M  V30 18 1 19 14
M  V30 19 2 19 18
M  V30 20 1 20 7
M  V30 21 1 20 11
M  V30 22 2 21 5
M  V30 23 2 22 2
M  V30 24 1 22 21
M  V30 25 1 23 3
M  V30 26 1 24 4
M  V30 27 1 25 6
M  V30 28 1 26 6
M  V30 29 1 27 8
M  V30 30 1 28 8
M  V30 31 1 29 9
M  V30 32 1 30 9
M  V30 33 1 11 31 CFG=3
M  V30 34 1 32 12
M  V30 35 1 33 12
M  V30 36 1 34 15
M  V30 37 1 35 16
M  V30 38 1 36 17
M  V30 39 1 37 18
M  V30 40 1 38 19
M  V30 41 1 39 20
M  V30 42 1 40 20
M  V30 43 1 41 21
M  V30 44 1 42 22
M  V30 END BOND
M  V30 END CTAB
M  END
>  <b_m_subgroup_collapsed>  (1392) 
0

>  <r_i_docking_score>  (1392) 
-7.1787192560640598

>  <s_m_subgroup_title>  (1392) 
glide-dock_SP_D22_pv

>  <s_m_subgroupid>  (1392) 
glide-dock_SP_D22_pv

>  <Molecule ChEMBL ID>  (1392) 
CHEMBL3792731

>  <Standard Type>  (1392) 
Ki

>  <Standard Value>  (1392) 
10000.0

>  <label>  (1392) 
0

$$$$
CHEMBL10289
     RDKit          3D

  0  0  0  0  0  0  0  0  0  0999 V3000
M  V30 BEGIN CTAB
M  V30 COUNTS 37 39 0 0 1
M  V30 BEGIN ATOM
M  V30 1 C 11.744622 8.370003 -2.442839 0
M  V30 2 C 11.839298 7.227415 -3.143878 0
M  V30 3 C 11.342750 6.968545 -4.560547 0
M  V30 4 N 10.885804 8.180050 -5.299855 0 CFG=1 CHG=1
M  V30 5 C 11.940048 9.206913 -5.540026 0
M  V30 6 C 12.132083 9.276978 -7.063326 0
M  V30 7 C 11.504551 7.977568 -7.554894 0 CFG=2
M  V30 8 C 11.169041 7.783754 -9.019927 0
M  V30 9 C 12.120427 8.107974 -10.007438 0
M  V30 10 C 11.882171 7.772339 -11.353294 0
M  V30 11 C 10.653554 7.203286 -11.730935 0
M  V30 12 C 9.686680 6.906376 -10.754338 0
M  V30 13 O 8.486086 6.398288 -11.150376 0
M  V30 14 C 9.962066 7.132142 -9.386843 0
M  V30 15 C 8.972907 6.634984 -8.329034 0
M  V30 16 C 9.521797 6.625233 -6.892972 0
M  V30 17 C 10.305346 7.913221 -6.641547 0 CFG=1
M  V30 18 H 12.134256 8.427258 -1.436452 0
M  V30 19 H 11.287651 9.264876 -2.835564 0
M  V30 20 H 12.308787 6.377423 -2.667544 0
M  V30 21 H 10.520468 6.258638 -4.469791 0
M  V30 22 H 12.125165 6.457489 -5.117357 0
M  V30 23 H 12.880055 8.967005 -5.044903 0
M  V30 24 H 11.614073 10.173453 -5.153567 0
M  V30 25 H 13.177677 9.372188 -7.356982 0
M  V30 26 H 11.579428 10.133856 -7.447705 0
M  V30 27 H 12.169545 7.146249 -7.326615 0
M  V30 28 H 13.057301 8.571051 -9.732891 0
M  V30 29 H 12.628167 7.991980 -12.102995 0
M  V30 30 H 10.455301 6.988909 -12.769629 0
M  V30 31 H 7.750155 6.799962 -10.684174 0
M  V30 32 H 8.097259 7.279324 -8.373010 0
M  V30 33 H 8.625629 5.634101 -8.590272 0
M  V30 34 H 8.701285 6.496848 -6.189616 0
M  V30 35 H 10.186617 5.772325 -6.779352 0
M  V30 36 H 9.636235 8.748490 -6.865261 0
M  V30 37 H 10.160198 8.601532 -4.739417 0
M  V30 END ATOM
M  V30 BEGIN BOND
M  V30 1 2 2 1
M  V30 2 1 3 2
M  V30 3 1 4 3
M  V30 4 1 5 4
M  V30 5 1 6 5
M  V30 6 1 7 6
M  V30 7 1 8 7
M  V30 8 2 9 8
M  V30 9 1 10 9
M  V30 10 2 11 10
M  V30 11 1 12 11
M  V30 12 1 13 12
M  V30 13 1 14 8
M  V30 14 2 14 12
M  V30 15 1 15 14
M  V30 16 1 16 15
M  V30 17 1 17 4
M  V30 18 1 17 7
M  V30 19 1 17 16
M  V30 20 1 18 1
M  V30 21 1 19 1
M  V30 22 1 20 2
M  V30 23 1 21 3
M  V30 24 1 22 3
M  V30 25 1 23 5
M  V30 26 1 24 5
M  V30 27 1 25 6
M  V30 28 1 26 6
M  V30 29 1 7 27 CFG=1
M  V30 30 1 28 9
M  V30 31 1 29 10
M  V30 32 1 30 11
M  V30 33 1 31 13
M  V30 34 1 32 15
M  V30 35 1 33 15
M  V30 36 1 34 16
M  V30 37 1 35 16
M  V30 38 1 17 36 CFG=3
M  V30 39 1 4 37 CFG=1
M  V30 END BOND
M  V30 END CTAB
M  END
>  <b_m_subgroup_collapsed>  (1393) 
0

>  <r_i_docking_score>  (1393) 
-7.1783700997615298

>  <s_m_subgroup_title>  (1393) 
glide-dock_SP_D22_pv

>  <s_m_subgroupid>  (1393) 
glide-dock_SP_D22_pv

>  <Molecule ChEMBL ID>  (1393) 
CHEMBL10289

>  <Standard Type>  (1393) 
Ki

>  <Standard Value>  (1393) 
75.0

>  <label>  (1393) 
1

$$$$
CHEMBL314174
     RDKit          3D

  0  0  0  0  0  0  0  0  0  0999 V3000
M  V30 BEGIN CTAB
M  V30 COUNTS 39 41 0 0 1
M  V30 BEGIN ATOM
M  V30 1 O 10.034721 0.300810 -15.759555 0
M  V30 2 C 9.035561 0.806406 -15.255816 0
M  V30 3 N 8.907449 2.085687 -14.850555 0
M  V30 4 C 7.659337 2.271133 -14.246888 0
M  V30 5 C 7.119907 3.372356 -13.551283 0
M  V30 6 O 7.858851 4.525915 -13.427078 0
M  V30 7 C 7.696927 5.257588 -12.215947 0
M  V30 8 C 8.825665 6.296711 -12.167420 0
M  V30 9 N 8.885695 7.046276 -10.892316 0 CHG=1
M  V30 10 C 9.403159 6.293329 -9.735814 0
M  V30 11 C 10.106285 7.244794 -8.791182 0
M  V30 12 C 11.404203 7.702132 -9.102365 0
M  V30 13 C 12.078856 8.572181 -8.226498 0
M  V30 14 C 11.447752 9.009094 -7.047047 0
M  V30 15 C 10.143666 8.572303 -6.745360 0
M  V30 16 C 9.471711 7.690408 -7.613063 0
M  V30 17 C 5.835136 3.185071 -12.972064 0
M  V30 18 C 5.167911 1.935915 -13.068792 0
M  V30 19 C 5.752989 0.839693 -13.745067 0
M  V30 20 C 7.013338 1.052491 -14.320681 0
M  V30 21 N 7.881611 0.172956 -14.975368 0
M  V30 22 H 7.760601 4.582825 -11.360083 0
M  V30 23 H 6.727004 5.756188 -12.184209 0
M  V30 24 H 8.655634 7.009536 -12.971844 0
M  V30 25 H 9.790749 5.827338 -12.363398 0
M  V30 26 H 7.944588 7.378649 -10.646274 0
M  V30 27 H 10.111680 5.527515 -10.052860 0
M  V30 28 H 8.581370 5.780581 -9.232963 0
M  V30 29 H 11.895653 7.375902 -10.007323 0
M  V30 30 H 13.075512 8.915803 -8.465661 0
M  V30 31 H 11.962028 9.685248 -6.378770 0
M  V30 32 H 9.657263 8.916081 -5.847611 0
M  V30 33 H 8.470129 7.363054 -7.370355 0
M  V30 34 H 5.345123 3.985179 -12.437799 0
M  V30 35 H 4.182834 1.830060 -12.646626 0
M  V30 36 H 5.254425 -0.115990 -13.812452 0
M  V30 37 H 7.686118 -0.805850 -15.149340 0
M  V30 38 H 9.618388 2.799301 -14.901391 0
M  V30 39 H 9.481039 7.851568 -11.021455 0
M  V30 END ATOM
M  V30 BEGIN BOND
M  V30 1 2 2 1
M  V30 2 1 3 2
M  V30 3 1 4 3
M  V30 4 2 5 4
M  V30 5 1 6 5
M  V30 6 1 7 6
M  V30 7 1 8 7
M  V30 8 1 9 8
M  V30 9 1 10 9
M  V30 10 1 11 10
M  V30 11 2 12 11
M  V30 12 1 13 12
M  V30 13 2 14 13
M  V30 14 1 15 14
M  V30 15 1 16 11
M  V30 16 2 16 15
M  V30 17 1 17 5
M  V30 18 2 18 17
M  V30 19 1 19 18
M  V30 20 1 20 4
M  V30 21 2 20 19
M  V30 22 1 21 2
M  V30 23 1 21 20
M  V30 24 1 22 7
M  V30 25 1 23 7
M  V30 26 1 24 8
M  V30 27 1 25 8
M  V30 28 1 26 9
M  V30 29 1 27 10
M  V30 30 1 28 10
M  V30 31 1 29 12
M  V30 32 1 30 13
M  V30 33 1 31 14
M  V30 34 1 32 15
M  V30 35 1 33 16
M  V30 36 1 34 17
M  V30 37 1 35 18
M  V30 38 1 36 19
M  V30 39 1 37 21
M  V30 40 1 38 3
M  V30 41 1 39 9
M  V30 END BOND
M  V30 END CTAB
M  END
>  <b_m_subgroup_collapsed>  (1394) 
0

>  <r_i_docking_score>  (1394) 
-7.1770333336159604

>  <s_m_subgroup_title>  (1394) 
glide-dock_SP_D22_pv

>  <s_m_subgroupid>  (1394) 
glide-dock_SP_D22_pv

>  <Molecule ChEMBL ID>  (1394) 
CHEMBL314174

>  <Standard Type>  (1394) 
Ki

>  <Standard Value>  (1394) 
3.9

>  <label>  (1394) 
1

$$$$
CHEMBL558058
     RDKit          3D

  0  0  0  0  0  0  0  0  0  0999 V3000
M  V30 BEGIN CTAB
M  V30 COUNTS 63 66 0 0 1
M  V30 BEGIN ATOM
M  V30 1 C 8.486001 9.023902 -11.400244 0
M  V30 2 N 9.288315 8.117624 -10.546048 0 CFG=1 CHG=1
M  V30 3 C 10.035546 7.130094 -11.379095 0
M  V30 4 C 9.184775 6.303862 -12.363396 0
M  V30 5 N 10.005375 5.383023 -13.164551 0
M  V30 6 C 11.314685 5.759765 -13.672779 0
M  V30 7 C 11.662697 4.613841 -14.606600 0
M  V30 8 N 10.540723 3.694366 -14.467761 0
M  V30 9 C 10.492324 2.454440 -15.183040 0
M  V30 10 C 9.685626 1.374210 -14.748707 0
M  V30 11 C 9.643126 0.172281 -15.473686 0
M  V30 12 C 10.414101 0.020966 -16.639273 0
M  V30 13 C 11.244738 1.070970 -17.079206 0
M  V30 14 C 12.066879 0.913091 -18.350435 0
M  V30 15 F 12.465050 -0.351324 -18.506998 0
M  V30 16 F 11.316549 1.255145 -19.397387 0
M  V30 17 F 13.147689 1.693988 -18.330235 0
M  V30 18 C 11.280917 2.277936 -16.346800 0
M  V30 19 C 9.566076 4.230648 -13.698787 0
M  V30 20 O 8.438573 3.772648 -13.517159 0
M  V30 21 C 10.151445 8.897499 -9.594849 0
M  V30 22 C 10.571419 8.215900 -8.253769 0 CFG=1
M  V30 23 C 11.738462 7.229825 -8.345994 0
M  V30 24 C 11.585419 6.346154 -7.092865 0
M  V30 25 C 10.473756 7.063763 -6.332856 0 CFG=1
M  V30 26 C 11.076128 8.410350 -5.870235 0
M  V30 27 C 11.066158 9.233229 -7.174992 0
M  V30 28 C 9.501797 7.420204 -7.478520 0
M  V30 29 C 8.335709 8.287811 -7.029834 0
M  V30 30 C 8.884970 6.177436 -8.184818 0
M  V30 31 H 9.081120 9.462951 -12.198701 0
M  V30 32 H 7.671642 8.482593 -11.869001 0
M  V30 33 H 8.013105 9.813999 -10.818894 0
M  V30 34 H 10.486088 6.379549 -10.750324 0
M  V30 35 H 10.835929 7.659768 -11.896665 0
M  V30 36 H 8.625942 6.935201 -13.046659 0
M  V30 37 H 8.438828 5.742901 -11.795348 0
M  V30 38 H 11.286067 6.711602 -14.206286 0
M  V30 39 H 12.048661 5.847966 -12.874624 0
M  V30 40 H 12.600728 4.134715 -14.326109 0
M  V30 41 H 11.748501 4.979060 -15.630455 0
M  V30 42 H 9.093605 1.442195 -13.846605 0
M  V30 43 H 9.004813 -0.627582 -15.132906 0
M  V30 44 H 10.369775 -0.904587 -17.195297 0
M  V30 45 H 11.912271 3.072856 -16.711292 0
M  V30 46 H 11.029324 9.286445 -10.114301 0
M  V30 47 H 9.578781 9.772379 -9.300704 0
M  V30 48 H 11.685791 6.603069 -9.219202 0
M  V30 49 H 12.706740 7.731058 -8.382024 0
M  V30 50 H 11.264120 5.364029 -7.399178 0
M  V30 51 H 12.484488 6.172466 -6.511896 0
M  V30 52 H 10.041301 6.472992 -5.524974 0
M  V30 53 H 10.485334 8.887902 -5.090230 0
M  V30 54 H 12.084792 8.291646 -5.467440 0
M  V30 55 H 12.051703 9.642811 -7.398757 0
M  V30 56 H 10.397787 10.085408 -7.047107 0
M  V30 57 H 7.551746 7.666199 -6.620002 0
M  V30 58 H 8.589375 8.972534 -6.245134 0
M  V30 59 H 7.935890 8.882891 -7.847338 0
M  V30 60 H 8.428309 5.516011 -7.448674 0
M  V30 61 H 8.086226 6.455642 -8.871439 0
M  V30 62 H 9.590060 5.578238 -8.755471 0
M  V30 63 H 8.600420 7.619411 -9.990235 0
M  V30 END ATOM
M  V30 BEGIN BOND
M  V30 1 1 2 1
M  V30 2 1 3 2
M  V30 3 1 4 3
M  V30 4 1 5 4
M  V30 5 1 6 5
M  V30 6 1 7 6
M  V30 7 1 8 7
M  V30 8 1 9 8
M  V30 9 1 10 9
M  V30 10 2 11 10
M  V30 11 1 12 11
M  V30 12 2 13 12
M  V30 13 1 14 13
M  V30 14 1 15 14
M  V30 15 1 16 14
M  V30 16 1 17 14
M  V30 17 2 18 9
M  V30 18 1 18 13
M  V30 19 1 19 5
M  V30 20 1 19 8
M  V30 21 2 20 19
M  V30 22 1 21 2
M  V30 23 1 22 21 CFG=1
M  V30 24 1 23 22
M  V30 25 1 24 23
M  V30 26 1 25 24
M  V30 27 1 26 25
M  V30 28 1 27 22
M  V30 29 1 27 26
M  V30 30 1 28 22
M  V30 31 1 28 25
M  V30 32 1 29 28
M  V30 33 1 30 28
M  V30 34 1 31 1
M  V30 35 1 32 1
M  V30 36 1 33 1
M  V30 37 1 34 3
M  V30 38 1 35 3
M  V30 39 1 36 4
M  V30 40 1 37 4
M  V30 41 1 38 6
M  V30 42 1 39 6
M  V30 43 1 40 7
M  V30 44 1 41 7
M  V30 45 1 42 10
M  V30 46 1 43 11
M  V30 47 1 44 12
M  V30 48 1 45 18
M  V30 49 1 46 21
M  V30 50 1 47 21
M  V30 51 1 48 23
M  V30 52 1 49 23
M  V30 53 1 50 24
M  V30 54 1 51 24
M  V30 55 1 25 52 CFG=3
M  V30 56 1 53 26
M  V30 57 1 54 26
M  V30 58 1 55 27
M  V30 59 1 56 27
M  V30 60 1 57 29
M  V30 61 1 58 29
M  V30 62 1 59 29
M  V30 63 1 60 30
M  V30 64 1 61 30
M  V30 65 1 62 30
M  V30 66 1 2 63 CFG=1
M  V30 END BOND
M  V30 END CTAB
M  END
>  <b_m_subgroup_collapsed>  (1395) 
0

>  <r_i_docking_score>  (1395) 
-7.1761377782515003

>  <s_m_subgroup_title>  (1395) 
glide-dock_SP_D22_pv

>  <s_m_subgroupid>  (1395) 
glide-dock_SP_D22_pv

>  <Molecule ChEMBL ID>  (1395) 
CHEMBL558058

>  <Standard Type>  (1395) 
Ki

>  <Standard Value>  (1395) 
19.95

>  <label>  (1395) 
1

$$$$
CHEMBL10289
     RDKit          3D

  0  0  0  0  0  0  0  0  0  0999 V3000
M  V30 BEGIN CTAB
M  V30 COUNTS 37 39 0 0 1
M  V30 BEGIN ATOM
M  V30 1 C 8.088103 4.883115 -13.718134 0
M  V30 2 C 8.040793 6.009729 -12.990962 0
M  V30 3 C 9.204672 6.572020 -12.200562 0
M  V30 4 N 8.886153 6.571419 -10.756403 0 CFG=1 CHG=1
M  V30 5 C 8.698999 5.217670 -10.167970 0
M  V30 6 C 9.070997 5.328797 -8.675812 0
M  V30 7 C 9.365740 6.818928 -8.513332 0 CFG=1
M  V30 8 C 10.242958 7.296527 -7.379974 0
M  V30 9 C 10.177019 6.641581 -6.147032 0
M  V30 10 C 10.906289 7.108432 -5.047043 0
M  V30 11 C 11.650114 8.293843 -5.157421 0
M  V30 12 C 11.711719 8.971866 -6.389926 0
M  V30 13 O 12.460817 10.107361 -6.451178 0
M  V30 14 C 11.041976 8.456306 -7.530530 0
M  V30 15 C 11.211066 9.088781 -8.918661 0
M  V30 16 C 10.126579 8.690528 -9.950985 0
M  V30 17 C 9.898368 7.183784 -9.875298 0 CFG=2
M  V30 18 H 7.216809 4.529828 -14.245859 0
M  V30 19 H 8.991704 4.295831 -13.795713 0
M  V30 20 H 7.115696 6.567788 -12.941874 0
M  V30 21 H 9.381832 7.592802 -12.536511 0
M  V30 22 H 10.115803 6.003710 -12.394642 0
M  V30 23 H 9.360631 4.497747 -10.652137 0
M  V30 24 H 7.685416 4.865176 -10.316550 0
M  V30 25 H 9.962541 4.733599 -8.477381 0
M  V30 26 H 8.275900 4.989363 -8.012074 0
M  V30 27 H 8.419467 7.335254 -8.363189 0
M  V30 28 H 9.548891 5.775925 -6.050713 0
M  V30 29 H 10.872668 6.573350 -4.109032 0
M  V30 30 H 12.184614 8.673007 -4.298307 0
M  V30 31 H 13.384417 10.004344 -6.244194 0
M  V30 32 H 11.285972 10.171494 -8.845477 0
M  V30 33 H 12.182506 8.762481 -9.291863 0
M  V30 34 H 9.194288 9.222933 -9.745204 0
M  V30 35 H 10.444999 8.972827 -10.953444 0
M  V30 36 H 10.853678 6.681379 -10.045837 0
M  V30 37 H 8.003398 7.073740 -10.623303 0
M  V30 END ATOM
M  V30 BEGIN BOND
M  V30 1 2 2 1
M  V30 2 1 3 2
M  V30 3 1 4 3
M  V30 4 1 5 4
M  V30 5 1 6 5
M  V30 6 1 7 6
M  V30 7 1 8 7
M  V30 8 2 9 8
M  V30 9 1 10 9
M  V30 10 2 11 10
M  V30 11 1 12 11
M  V30 12 1 13 12
M  V30 13 1 14 8
M  V30 14 2 14 12
M  V30 15 1 15 14
M  V30 16 1 16 15
M  V30 17 1 17 4
M  V30 18 1 17 7
M  V30 19 1 17 16
M  V30 20 1 18 1
M  V30 21 1 19 1
M  V30 22 1 20 2
M  V30 23 1 21 3
M  V30 24 1 22 3
M  V30 25 1 23 5
M  V30 26 1 24 5
M  V30 27 1 25 6
M  V30 28 1 26 6
M  V30 29 1 7 27 CFG=1
M  V30 30 1 28 9
M  V30 31 1 29 10
M  V30 32 1 30 11
M  V30 33 1 31 13
M  V30 34 1 32 15
M  V30 35 1 33 15
M  V30 36 1 34 16
M  V30 37 1 35 16
M  V30 38 1 17 36 CFG=3
M  V30 39 1 4 37 CFG=3
M  V30 END BOND
M  V30 END CTAB
M  END
>  <b_m_subgroup_collapsed>  (1396) 
0

>  <r_i_docking_score>  (1396) 
-7.17571585419212

>  <s_m_subgroup_title>  (1396) 
glide-dock_SP_D22_pv

>  <s_m_subgroupid>  (1396) 
glide-dock_SP_D22_pv

>  <Molecule ChEMBL ID>  (1396) 
CHEMBL10289

>  <Standard Type>  (1396) 
Ki

>  <Standard Value>  (1396) 
75.0

>  <label>  (1396) 
1

$$$$
CHEMBL432059
     RDKit          3D

  0  0  0  0  0  0  0  0  0  0999 V3000
M  V30 BEGIN CTAB
M  V30 COUNTS 42 45 0 0 1
M  V30 BEGIN ATOM
M  V30 1 Cl 12.485997 8.622044 -2.026462 0
M  V30 2 C 11.819163 8.424556 -3.605596 0
M  V30 3 C 11.686966 7.135714 -4.150255 0
M  V30 4 C 11.196598 6.970689 -5.456995 0
M  V30 5 C 10.812038 8.082031 -6.237621 0
M  V30 6 N 10.387999 7.892381 -7.568403 0
M  V30 7 C 9.514916 6.783715 -7.945474 0
M  V30 8 C 9.891850 6.274957 -9.352501 0
M  V30 9 N 9.842219 7.363484 -10.340635 0
M  V30 10 C 10.248838 6.909766 -11.670617 0
M  V30 11 C 9.391966 5.811833 -12.286469 0
M  V30 12 C 10.019352 4.783952 -13.038043 0
M  V30 13 C 9.278550 3.775192 -13.608990 0
M  V30 14 C 7.869935 3.776603 -13.448206 0
M  V30 15 C 6.840098 2.971605 -13.847365 0
M  V30 16 C 5.685818 3.583321 -13.304764 0
M  V30 17 N 5.926455 4.690432 -12.643963 0
M  V30 18 N 7.288701 4.823233 -12.702673 0
M  V30 19 C 8.021595 5.820706 -12.139996 0
M  V30 20 C 10.766276 8.421993 -9.924925 0
M  V30 21 C 10.380862 8.971763 -8.541436 0
M  V30 22 C 10.905395 9.372914 -5.660874 0
M  V30 23 C 11.405265 9.542635 -4.354018 0
M  V30 24 H 11.990973 6.271521 -3.576168 0
M  V30 25 H 11.160006 5.972931 -5.864730 0
M  V30 26 H 8.485041 7.142325 -7.951450 0
M  V30 27 H 9.547105 5.958570 -7.235476 0
M  V30 28 H 9.203629 5.478700 -9.635546 0
M  V30 29 H 10.885981 5.833133 -9.328634 0
M  V30 30 H 11.283943 6.572675 -11.641640 0
M  V30 31 H 10.220100 7.760593 -12.351161 0
M  V30 32 H 11.097889 4.778832 -13.159435 0
M  V30 33 H 9.753980 2.977449 -14.170646 0
M  V30 34 H 6.894468 2.063838 -14.429614 0
M  V30 35 H 4.668778 3.231563 -13.388841 0
M  V30 36 H 7.479645 6.572515 -11.574967 0
M  V30 37 H 11.788719 8.042852 -9.899052 0
M  V30 38 H 10.748691 9.234189 -10.649359 0
M  V30 39 H 9.380602 9.407526 -8.577687 0
M  V30 40 H 11.081103 9.766085 -8.271065 0
M  V30 41 H 10.599751 10.249340 -6.211362 0
M  V30 42 H 11.474937 10.532647 -3.929867 0
M  V30 END ATOM
M  V30 BEGIN BOND
M  V30 1 1 2 1
M  V30 2 1 3 2
M  V30 3 2 4 3
M  V30 4 1 5 4
M  V30 5 1 6 5
M  V30 6 1 7 6
M  V30 7 1 8 7
M  V30 8 1 9 8
M  V30 9 1 10 9
M  V30 10 1 11 10
M  V30 11 1 12 11
M  V30 12 2 13 12
M  V30 13 1 14 13
M  V30 14 2 15 14
M  V30 15 1 16 15
M  V30 16 2 17 16
M  V30 17 1 18 14
M  V30 18 1 18 17
M  V30 19 2 19 11
M  V30 20 1 19 18
M  V30 21 1 20 9
M  V30 22 1 21 6
M  V30 23 1 21 20
M  V30 24 2 22 5
M  V30 25 2 23 2
M  V30 26 1 23 22
M  V30 27 1 24 3
M  V30 28 1 25 4
M  V30 29 1 26 7
M  V30 30 1 27 7
M  V30 31 1 28 8
M  V30 32 1 29 8
M  V30 33 1 30 10
M  V30 34 1 31 10
M  V30 35 1 32 12
M  V30 36 1 33 13
M  V30 37 1 34 15
M  V30 38 1 35 16
M  V30 39 1 36 19
M  V30 40 1 37 20
M  V30 41 1 38 20
M  V30 42 1 39 21
M  V30 43 1 40 21
M  V30 44 1 41 22
M  V30 45 1 42 23
M  V30 END BOND
M  V30 END CTAB
M  END
>  <b_m_subgroup_collapsed>  (1397) 
0

>  <r_i_docking_score>  (1397) 
-7.1735688381607003

>  <s_m_subgroup_title>  (1397) 
glide-dock_SP_D22_pv

>  <s_m_subgroupid>  (1397) 
glide-dock_SP_D22_pv

>  <Molecule ChEMBL ID>  (1397) 
CHEMBL432059

>  <Standard Type>  (1397) 
Ki

>  <Standard Value>  (1397) 
13000.0

>  <label>  (1397) 
0

$$$$
CHEMBL3590086
     RDKit          3D

  0  0  0  0  0  0  0  0  0  0999 V3000
M  V30 BEGIN CTAB
M  V30 COUNTS 59 62 0 0 1
M  V30 BEGIN ATOM
M  V30 1 C 6.503042 -0.404605 -19.631544 0
M  V30 2 C 5.836701 -0.477278 -18.272055 0
M  V30 3 C 4.522027 -0.962095 -18.161192 0
M  V30 4 C 3.907459 -1.030215 -16.899927 0
M  V30 5 C 4.591938 -0.604739 -15.744503 0
M  V30 6 Cl 3.739458 -0.712271 -14.246575 0
M  V30 7 C 5.923993 -0.108670 -15.836945 0
M  V30 8 N 6.640086 0.337340 -14.700433 0
M  V30 9 C 8.085017 0.145538 -14.621455 0
M  V30 10 C 8.843800 1.462778 -14.863328 0
M  V30 11 N 8.362311 2.527214 -13.947446 0 CHG=1
M  V30 12 C 9.173484 3.767039 -14.034343 0
M  V30 13 C 8.931723 4.750085 -12.869835 0
M  V30 14 C 9.898772 5.942891 -12.926746 0
M  V30 15 C 9.367416 7.222545 -12.241545 0
M  V30 16 N 9.575577 7.237143 -10.802212 0
M  V30 17 C 10.749920 7.557481 -10.235994 0
M  V30 18 O 11.774061 7.772086 -10.886529 0
M  V30 19 C 10.753595 7.713787 -8.746077 0
M  V30 20 C 9.953772 6.873582 -7.920778 0
M  V30 21 C 10.016787 6.971423 -6.512811 0
M  V30 22 C 10.887036 7.922859 -5.961377 0
M  V30 23 O 11.157179 8.191815 -4.652860 0
M  V30 24 C 12.058970 9.208957 -4.581117 0
M  V30 25 O 12.487625 9.691216 -3.539559 0
M  V30 26 N 12.367313 9.555809 -5.892520 0
M  V30 27 C 11.642015 8.750027 -6.760149 0
M  V30 28 C 11.617652 8.672708 -8.159054 0
M  V30 29 C 6.889311 2.731448 -14.067585 0
M  V30 30 C 6.094820 1.419353 -13.888380 0
M  V30 31 C 6.529593 -0.060804 -17.116547 0
M  V30 32 H 7.579519 -0.556068 -19.546762 0
M  V30 33 H 6.110343 -1.174536 -20.297791 0
M  V30 34 H 6.320188 0.566670 -20.087103 0
M  V30 35 H 3.975900 -1.281868 -19.036770 0
M  V30 36 H 2.896011 -1.403281 -16.816473 0
M  V30 37 H 8.313004 -0.227609 -13.624488 0
M  V30 38 H 8.418144 -0.626498 -15.314711 0
M  V30 39 H 9.908882 1.294035 -14.706107 0
M  V30 40 H 8.723709 1.789872 -15.896621 0
M  V30 41 H 10.229528 3.493072 -14.027001 0
M  V30 42 H 8.987164 4.253943 -14.991491 0
M  V30 43 H 7.910811 5.126077 -12.922223 0
M  V30 44 H 9.028807 4.249640 -11.906732 0
M  V30 45 H 10.881988 5.666215 -12.539587 0
M  V30 46 H 10.083651 6.171399 -13.974329 0
M  V30 47 H 9.867816 8.101421 -12.646976 0
M  V30 48 H 8.305779 7.367245 -12.446049 0
M  V30 49 H 8.749855 7.152985 -10.218964 0
M  V30 50 H 9.298203 6.134049 -8.359374 0
M  V30 51 H 9.415354 6.334352 -5.881547 0
M  V30 52 H 13.088211 10.220051 -6.139367 0
M  V30 53 H 12.242563 9.312426 -8.766458 0
M  V30 54 H 6.532902 3.449970 -13.331264 0
M  V30 55 H 6.663233 3.151419 -15.044197 0
M  V30 56 H 5.055696 1.603103 -14.150729 0
M  V30 57 H 6.094587 1.105836 -12.843845 0
M  V30 58 H 7.535967 0.311748 -17.230398 0
M  V30 59 H 8.527524 2.159874 -13.022086 0
M  V30 END ATOM
M  V30 BEGIN BOND
M  V30 1 1 2 1
M  V30 2 1 3 2
M  V30 3 2 4 3
M  V30 4 1 5 4
M  V30 5 1 6 5
M  V30 6 2 7 5
M  V30 7 1 8 7
M  V30 8 1 9 8
M  V30 9 1 10 9
M  V30 10 1 11 10
M  V30 11 1 12 11
M  V30 12 1 13 12
M  V30 13 1 14 13
M  V30 14 1 15 14
M  V30 15 1 16 15
M  V30 16 1 17 16
M  V30 17 2 18 17
M  V30 18 1 19 17
M  V30 19 1 20 19
M  V30 20 2 21 20
M  V30 21 1 22 21
M  V30 22 1 23 22
M  V30 23 1 24 23
M  V30 24 2 25 24
M  V30 25 1 26 24
M  V30 26 2 27 22
M  V30 27 1 27 26
M  V30 28 2 28 19
M  V30 29 1 28 27
M  V30 30 1 29 11
M  V30 31 1 30 8
M  V30 32 1 30 29
M  V30 33 2 31 2
M  V30 34 1 31 7
M  V30 35 1 32 1
M  V30 36 1 33 1
M  V30 37 1 34 1
M  V30 38 1 35 3
M  V30 39 1 36 4
M  V30 40 1 37 9
M  V30 41 1 38 9
M  V30 42 1 39 10
M  V30 43 1 40 10
M  V30 44 1 41 12
M  V30 45 1 42 12
M  V30 46 1 43 13
M  V30 47 1 44 13
M  V30 48 1 45 14
M  V30 49 1 46 14
M  V30 50 1 47 15
M  V30 51 1 48 15
M  V30 52 1 49 16
M  V30 53 1 50 20
M  V30 54 1 51 21
M  V30 55 1 52 26
M  V30 56 1 53 28
M  V30 57 1 54 29
M  V30 58 1 55 29
M  V30 59 1 56 30
M  V30 60 1 57 30
M  V30 61 1 58 31
M  V30 62 1 59 11
M  V30 END BOND
M  V30 END CTAB
M  END
>  <b_m_subgroup_collapsed>  (1398) 
0

>  <r_i_docking_score>  (1398) 
-7.1721762541021201

>  <s_m_subgroup_title>  (1398) 
glide-dock_SP_D22_pv

>  <s_m_subgroupid>  (1398) 
glide-dock_SP_D22_pv

>  <Molecule ChEMBL ID>  (1398) 
CHEMBL3590086

>  <Standard Type>  (1398) 
Ki

>  <Standard Value>  (1398) 
46.9

>  <label>  (1398) 
1

$$$$
CHEMBL2298799
     RDKit          3D

  0  0  0  0  0  0  0  0  0  0999 V3000
M  V30 BEGIN CTAB
M  V30 COUNTS 46 48 0 0 1
M  V30 BEGIN ATOM
M  V30 1 O 7.619906 2.172626 -15.719977 0
M  V30 2 N 8.560474 2.252885 -14.935081 0 CHG=1
M  V30 3 O 9.505362 1.467370 -14.923708 0 CHG=-1
M  V30 4 C 8.598621 3.373668 -13.974125 0
M  V30 5 C 9.835737 4.018104 -13.741750 0
M  V30 6 C 9.945427 5.074003 -12.816770 0
M  V30 7 C 8.815372 5.498743 -12.085660 0
M  V30 8 C 8.890675 6.574988 -11.009720 0
M  V30 9 C 10.219823 6.612782 -10.234802 0
M  V30 10 N 10.137233 7.494080 -9.068525 0
M  V30 11 C 11.481103 7.934524 -8.676483 0
M  V30 12 C 11.410266 8.887352 -7.470288 0
M  V30 13 N 10.747072 8.202838 -6.374284 0
M  V30 14 C 11.286739 8.189935 -5.082899 0
M  V30 15 C 11.454359 6.970268 -4.396151 0
M  V30 16 C 11.991993 6.950477 -3.093045 0
M  V30 17 C 12.354437 8.154838 -2.464319 0
M  V30 18 C 12.198973 9.372304 -3.148908 0
M  V30 19 C 11.684520 9.390203 -4.460582 0
M  V30 20 C 9.448342 7.618276 -6.675844 0
M  V30 21 C 9.543359 6.749588 -7.943488 0
M  V30 22 C 7.573977 4.887443 -12.341052 0
M  V30 23 C 7.447215 3.829962 -13.269441 0
M  V30 24 N 6.119578 3.212836 -13.420074 0 CHG=1
M  V30 25 O 5.157421 3.970941 -13.446215 0
M  V30 26 O 6.038924 1.989669 -13.445975 0 CHG=-1
M  V30 27 H 10.719387 3.694860 -14.273683 0
M  V30 28 H 10.907128 5.531514 -12.656741 0
M  V30 29 H 8.085790 6.376200 -10.308609 0
M  V30 30 H 8.680005 7.546097 -11.453056 0
M  V30 31 H 11.005689 6.964486 -10.905830 0
M  V30 32 H 10.486308 5.606224 -9.916376 0
M  V30 33 H 11.969055 8.441644 -9.510058 0
M  V30 34 H 12.084459 7.069785 -8.417385 0
M  V30 35 H 10.835948 9.772914 -7.727341 0
M  V30 36 H 12.409553 9.210913 -7.180089 0
M  V30 37 H 11.169003 6.039700 -4.866196 0
M  V30 38 H 12.113402 6.010090 -2.572897 0
M  V30 39 H 12.752937 8.151167 -1.460313 0
M  V30 40 H 12.479379 10.295492 -2.665337 0
M  V30 41 H 11.564449 10.331734 -4.977555 0
M  V30 42 H 9.087509 7.014276 -5.845777 0
M  V30 43 H 8.725183 8.422140 -6.826309 0
M  V30 44 H 8.541290 6.402305 -8.198640 0
M  V30 45 H 10.139146 5.862798 -7.726766 0
M  V30 46 H 6.706941 5.217783 -11.781127 0
M  V30 END ATOM
M  V30 BEGIN BOND
M  V30 1 2 2 1
M  V30 2 1 3 2
M  V30 3 1 4 2
M  V30 4 1 5 4
M  V30 5 2 6 5
M  V30 6 1 7 6
M  V30 7 1 8 7
M  V30 8 1 9 8
M  V30 9 1 10 9
M  V30 10 1 11 10
M  V30 11 1 12 11
M  V30 12 1 13 12
M  V30 13 1 14 13
M  V30 14 2 15 14
M  V30 15 1 16 15
M  V30 16 2 17 16
M  V30 17 1 18 17
M  V30 18 1 19 14
M  V30 19 2 19 18
M  V30 20 1 20 13
M  V30 21 1 21 10
M  V30 22 1 21 20
M  V30 23 2 22 7
M  V30 24 2 23 4
M  V30 25 1 23 22
M  V30 26 1 24 23
M  V30 27 2 25 24
M  V30 28 1 26 24
M  V30 29 1 27 5
M  V30 30 1 28 6
M  V30 31 1 29 8
M  V30 32 1 30 8
M  V30 33 1 31 9
M  V30 34 1 32 9
M  V30 35 1 33 11
M  V30 36 1 34 11
M  V30 37 1 35 12
M  V30 38 1 36 12
M  V30 39 1 37 15
M  V30 40 1 38 16
M  V30 41 1 39 17
M  V30 42 1 40 18
M  V30 43 1 41 19
M  V30 44 1 42 20
M  V30 45 1 43 20
M  V30 46 1 44 21
M  V30 47 1 45 21
M  V30 48 1 46 22
M  V30 END BOND
M  V30 END CTAB
M  END
>  <b_m_subgroup_collapsed>  (1399) 
0

>  <r_i_docking_score>  (1399) 
-7.1701586422828498

>  <s_m_subgroup_title>  (1399) 
glide-dock_SP_D22_pv

>  <s_m_subgroupid>  (1399) 
glide-dock_SP_D22_pv

>  <Molecule ChEMBL ID>  (1399) 
CHEMBL2298799

>  <Standard Type>  (1399) 
Ki

>  <Standard Value>  (1399) 
51.3

>  <label>  (1399) 
1

$$$$
CHEMBL4245622
     RDKit          3D

  0  0  0  0  0  0  0  0  0  0999 V3000
M  V30 BEGIN CTAB
M  V30 COUNTS 66 71 0 0 1
M  V30 BEGIN ATOM
M  V30 1 O 7.192939 1.410060 -18.628906 0
M  V30 2 S 7.565019 0.316730 -17.716814 0
M  V30 3 O 7.271876 -1.076940 -18.083662 0
M  V30 4 C 6.824404 0.693440 -16.104719 0
M  V30 5 C 7.386712 1.779116 -15.408786 0
M  V30 6 C 6.910872 2.146227 -14.142345 0
M  V30 7 C 5.865630 1.421254 -13.549313 0
M  V30 8 C 5.217800 0.386591 -14.247694 0
M  V30 9 N 4.119317 -0.167095 -13.687547 0
M  V30 10 C 3.383772 -1.027410 -14.408751 0
M  V30 11 C 3.741704 -1.427718 -15.702426 0
M  V30 12 C 4.913112 -0.907294 -16.276190 0
M  V30 13 C 5.684881 0.033592 -15.553993 0
M  V30 14 N 9.300342 0.407011 -17.444094 0
M  V30 15 C 10.120661 -0.806535 -17.619326 0
M  V30 16 C 11.451113 -0.337459 -18.218885 0
M  V30 17 C 11.129447 1.037370 -18.799067 0
M  V30 18 C 10.085643 1.597908 -17.829107 0 CFG=2
M  V30 19 C 10.739974 2.264229 -16.589533 0
M  V30 20 C 10.839528 3.796879 -16.732189 0
M  V30 21 N 11.178767 4.493670 -15.463632 0 CFG=2 CHG=1
M  V30 22 C 10.052164 4.492102 -14.490744 0
M  V30 23 C 10.316350 5.372436 -13.281408 0
M  V30 24 C 11.285588 6.304459 -13.193230 0
M  V30 25 C 11.507766 7.114421 -11.963487 0
M  V30 26 C 12.551364 7.990839 -11.845210 0
M  V30 27 N 12.497671 8.572029 -10.595439 0
M  V30 28 C 11.501984 8.027972 -9.834969 0
M  V30 29 C 11.152166 8.265432 -8.495266 0
M  V30 30 C 10.169307 7.466073 -7.900559 0
M  V30 31 C 9.552334 6.467934 -8.670257 0
M  V30 32 Cl 8.485969 5.372397 -7.920486 0
M  V30 33 C 9.837527 6.303285 -10.035551 0
M  V30 34 C 10.849478 7.063033 -10.667694 0
M  V30 35 C 12.201849 6.510618 -14.401129 0
M  V30 36 C 11.682865 5.869123 -15.699460 0
M  V30 37 H 8.158854 2.365959 -15.871153 0
M  V30 38 H 7.351397 2.980967 -13.619239 0
M  V30 39 H 5.503239 1.710924 -12.573775 0
M  V30 40 H 2.502748 -1.425904 -13.922162 0
M  V30 41 H 3.135717 -2.144392 -16.241457 0
M  V30 42 H 5.140892 -1.211965 -17.283398 0
M  V30 43 H 10.250205 -1.323074 -16.669409 0
M  V30 44 H 9.646861 -1.496127 -18.315075 0
M  V30 45 H 12.206903 -0.239041 -17.442965 0
M  V30 46 H 11.838798 -1.026198 -18.970407 0
M  V30 47 H 10.688935 0.922430 -19.789684 0
M  V30 48 H 12.013111 1.668175 -18.898926 0
M  V30 49 H 9.451698 2.316456 -18.343521 0
M  V30 50 H 11.735044 1.853863 -16.415886 0
M  V30 51 H 10.191433 1.988981 -15.691813 0
M  V30 52 H 9.905198 4.208843 -17.115633 0
M  V30 53 H 11.597392 4.014364 -17.486177 0
M  V30 54 H 9.870786 3.481354 -14.125205 0
M  V30 55 H 9.131057 4.840323 -14.966078 0
M  V30 56 H 9.628545 5.208337 -12.476785 0
M  V30 57 H 13.314401 8.282942 -12.552840 0
M  V30 58 H 13.149429 9.288162 -10.264807 0
M  V30 59 H 11.674406 9.011321 -7.915430 0
M  V30 60 H 9.919680 7.582711 -6.856762 0
M  V30 61 H 9.305369 5.521204 -10.546921 0
M  V30 62 H 12.315166 7.579313 -14.582728 0
M  V30 63 H 13.194177 6.124714 -14.175030 0
M  V30 64 H 10.886627 6.481375 -16.123041 0
M  V30 65 H 12.489480 5.856039 -16.435362 0
M  V30 66 H 11.944855 3.989992 -15.038080 0
M  V30 END ATOM
M  V30 BEGIN BOND
M  V30 1 2 2 1
M  V30 2 2 3 2
M  V30 3 1 4 2
M  V30 4 1 5 4
M  V30 5 2 6 5
M  V30 6 1 7 6
M  V30 7 2 8 7
M  V30 8 1 9 8
M  V30 9 2 10 9
M  V30 10 1 11 10
M  V30 11 2 12 11
M  V30 12 2 13 4
M  V30 13 1 13 8
M  V30 14 1 13 12
M  V30 15 1 14 2
M  V30 16 1 15 14
M  V30 17 1 16 15
M  V30 18 1 17 16
M  V30 19 1 18 14
M  V30 20 1 18 17
M  V30 21 1 19 18
M  V30 22 1 20 19
M  V30 23 1 21 20
M  V30 24 1 22 21
M  V30 25 1 23 22
M  V30 26 2 24 23
M  V30 27 1 25 24
M  V30 28 2 26 25
M  V30 29 1 27 26
M  V30 30 1 28 27
M  V30 31 1 29 28
M  V30 32 2 30 29
M  V30 33 1 31 30
M  V30 34 1 32 31
M  V30 35 2 33 31
M  V30 36 1 34 25
M  V30 37 2 34 28
M  V30 38 1 34 33
M  V30 39 1 35 24
M  V30 40 1 36 21
M  V30 41 1 36 35
M  V30 42 1 37 5
M  V30 43 1 38 6
M  V30 44 1 39 7
M  V30 45 1 40 10
M  V30 46 1 41 11
M  V30 47 1 42 12
M  V30 48 1 43 15
M  V30 49 1 44 15
M  V30 50 1 45 16
M  V30 51 1 46 16
M  V30 52 1 47 17
M  V30 53 1 48 17
M  V30 54 1 18 49 CFG=3
M  V30 55 1 50 19
M  V30 56 1 51 19
M  V30 57 1 52 20
M  V30 58 1 53 20
M  V30 59 1 54 22
M  V30 60 1 55 22
M  V30 61 1 56 23
M  V30 62 1 57 26
M  V30 63 1 58 27
M  V30 64 1 59 29
M  V30 65 1 60 30
M  V30 66 1 61 33
M  V30 67 1 62 35
M  V30 68 1 63 35
M  V30 69 1 64 36
M  V30 70 1 65 36
M  V30 71 1 21 66 CFG=1
M  V30 END BOND
M  V30 END CTAB
M  END
>  <b_m_subgroup_collapsed>  (1400) 
0

>  <r_i_docking_score>  (1400) 
-7.1699640144046199

>  <s_m_subgroup_title>  (1400) 
glide-dock_SP_D22_pv

>  <s_m_subgroupid>  (1400) 
glide-dock_SP_D22_pv

>  <Molecule ChEMBL ID>  (1400) 
CHEMBL4245622

>  <Standard Type>  (1400) 
Ki

>  <Standard Value>  (1400) 
15.0

>  <label>  (1400) 
1

$$$$
CHEMBL556969
     RDKit          3D

  0  0  0  0  0  0  0  0  0  0999 V3000
M  V30 BEGIN CTAB
M  V30 COUNTS 45 48 0 0 1
M  V30 BEGIN ATOM
M  V30 1 C 10.254298 8.098083 -6.455409 0
M  V30 2 C 8.886395 8.043834 -7.164752 0
M  V30 3 N 8.916104 7.431244 -8.516170 0 CFG=1 CHG=1
M  V30 4 C 9.558707 8.290439 -9.546079 0
M  V30 5 C 9.686160 7.580476 -10.883735 0
M  V30 6 C 9.503099 6.256688 -11.066619 0
M  V30 7 C 9.687634 5.642551 -12.378033 0
M  V30 8 C 10.833041 5.911835 -13.046913 0
M  V30 9 C 11.273656 5.409892 -14.354831 0
M  V30 10 C 12.087987 6.239939 -15.154805 0
M  V30 11 C 12.519876 5.812558 -16.425226 0
M  V30 12 C 12.133154 4.548412 -16.909002 0
M  V30 13 C 11.321209 3.714079 -16.119209 0
M  V30 14 C 10.884974 4.145593 -14.849485 0
M  V30 15 O 10.141832 3.295749 -14.083653 0
M  V30 16 C 8.866197 3.681338 -13.776542 0
M  V30 17 C 7.809721 2.875941 -14.245945 0
M  V30 18 C 6.486551 3.139315 -13.849675 0
M  V30 19 C 6.210606 4.232597 -13.013672 0
M  V30 20 C 7.261196 5.049214 -12.559424 0
M  V30 21 C 8.605503 4.784276 -12.922482 0
M  V30 22 C 9.140696 5.370839 -9.881155 0
M  V30 23 C 9.416586 6.036453 -8.528579 0
M  V30 24 H 10.161638 8.607104 -5.495980 0
M  V30 25 H 10.644812 7.101191 -6.247966 0
M  V30 26 H 11.002487 8.640910 -7.032697 0
M  V30 27 H 8.470729 9.044881 -7.249817 0
M  V30 28 H 8.180673 7.480669 -6.557121 0
M  V30 29 H 10.558144 8.597210 -9.240219 0
M  V30 30 H 8.961366 9.193104 -9.680049 0
M  V30 31 H 9.954448 8.208113 -11.723033 0
M  V30 32 H 11.557411 6.557924 -12.569051 0
M  V30 33 H 12.388415 7.213449 -14.797020 0
M  V30 34 H 13.144419 6.456367 -17.029184 0
M  V30 35 H 12.467536 4.216795 -17.882885 0
M  V30 36 H 11.037311 2.736261 -16.482565 0
M  V30 37 H 8.020763 2.027091 -14.878583 0
M  V30 38 H 5.686120 2.503908 -14.194431 0
M  V30 39 H 5.195721 4.447702 -12.714329 0
M  V30 40 H 7.017568 5.889724 -11.922751 0
M  V30 41 H 8.082420 5.125308 -9.940907 0
M  V30 42 H 9.681466 4.426644 -9.950250 0
M  V30 43 H 10.490332 6.028781 -8.333097 0
M  V30 44 H 8.941548 5.460222 -7.734006 0
M  V30 45 H 7.937247 7.372546 -8.796148 0
M  V30 END ATOM
M  V30 BEGIN BOND
M  V30 1 1 2 1
M  V30 2 1 3 2
M  V30 3 1 4 3
M  V30 4 1 5 4
M  V30 5 2 6 5
M  V30 6 1 7 6
M  V30 7 2 8 7
M  V30 8 1 9 8
M  V30 9 2 10 9
M  V30 10 1 11 10
M  V30 11 2 12 11
M  V30 12 1 13 12
M  V30 13 1 14 9
M  V30 14 2 14 13
M  V30 15 1 15 14
M  V30 16 1 16 15
M  V30 17 2 17 16
M  V30 18 1 18 17
M  V30 19 2 19 18
M  V30 20 1 20 19
M  V30 21 1 21 7
M  V30 22 1 21 16
M  V30 23 2 21 20
M  V30 24 1 22 6
M  V30 25 1 23 3
M  V30 26 1 23 22
M  V30 27 1 24 1
M  V30 28 1 25 1
M  V30 29 1 26 1
M  V30 30 1 27 2
M  V30 31 1 28 2
M  V30 32 1 29 4
M  V30 33 1 30 4
M  V30 34 1 31 5
M  V30 35 1 32 8
M  V30 36 1 33 10
M  V30 37 1 34 11
M  V30 38 1 35 12
M  V30 39 1 36 13
M  V30 40 1 37 17
M  V30 41 1 38 18
M  V30 42 1 39 19
M  V30 43 1 40 20
M  V30 44 1 41 22
M  V30 45 1 42 22
M  V30 46 1 43 23
M  V30 47 1 44 23
M  V30 48 1 3 45 CFG=3
M  V30 END BOND
M  V30 END CTAB
M  END
>  <b_m_subgroup_collapsed>  (1401) 
0

>  <r_i_docking_score>  (1401) 
-7.1697110459898701

>  <s_m_subgroup_title>  (1401) 
glide-dock_SP_D22_pv

>  <s_m_subgroupid>  (1401) 
glide-dock_SP_D22_pv

>  <Molecule ChEMBL ID>  (1401) 
CHEMBL556969

>  <Standard Type>  (1401) 
Ki

>  <Standard Value>  (1401) 
61.0

>  <label>  (1401) 
1

$$$$
CHEMBL423890
     RDKit          3D

  0  0  0  0  0  0  0  0  0  0999 V3000
M  V30 BEGIN CTAB
M  V30 COUNTS 38 40 0 0 1
M  V30 BEGIN ATOM
M  V30 1 O 11.686552 10.172327 -3.047214 0
M  V30 2 C 11.546735 9.240848 -4.025176 0
M  V30 3 C 11.842654 7.902137 -3.716872 0
M  V30 4 C 11.630561 6.902534 -4.678389 0
M  V30 5 C 11.143334 7.241434 -5.954549 0
M  V30 6 C 10.847961 8.593579 -6.271766 0
M  V30 7 C 11.068327 9.594506 -5.303854 0
M  V30 8 O 10.346501 8.943682 -7.508156 0
M  V30 9 C 9.819174 7.857788 -8.269750 0 CFG=1
M  V30 10 C 9.619777 8.309831 -9.725959 0
M  V30 11 N 8.886023 7.275127 -10.484499 0 CHG=1
M  V30 12 C 8.950764 7.372154 -11.949938 0
M  V30 13 C 8.432557 6.081616 -12.557603 0
M  V30 14 C 9.325958 5.165300 -13.152902 0
M  V30 15 C 8.841690 3.963477 -13.705225 0
M  V30 16 C 7.465351 3.668757 -13.656614 0
M  V30 17 C 6.572685 4.570002 -13.046879 0
M  V30 18 C 7.055070 5.776141 -12.505650 0
M  V30 19 C 10.815331 6.686439 -8.205867 0
M  V30 20 O 10.968497 6.238389 -6.873331 0
M  V30 21 H 11.448939 11.060061 -3.278951 0
M  V30 22 H 12.205284 7.637735 -2.734114 0
M  V30 23 H 11.843679 5.870854 -4.439843 0
M  V30 24 H 10.838391 10.623803 -5.536745 0
M  V30 25 H 8.859395 7.565908 -7.837811 0
M  V30 26 H 9.046250 9.237133 -9.763024 0
M  V30 27 H 10.587729 8.512032 -10.187190 0
M  V30 28 H 9.195197 6.353010 -10.216900 0
M  V30 29 H 8.354263 8.219092 -12.292416 0
M  V30 30 H 9.979968 7.542813 -12.268224 0
M  V30 31 H 10.384501 5.378020 -13.192658 0
M  V30 32 H 9.526661 3.263521 -14.161346 0
M  V30 33 H 7.096166 2.744371 -14.076312 0
M  V30 34 H 5.518167 4.340489 -12.999137 0
M  V30 35 H 6.360687 6.463812 -12.043032 0
M  V30 36 H 10.477842 5.841963 -8.806818 0
M  V30 37 H 11.779737 6.999426 -8.600286 0
M  V30 38 H 7.886601 7.372317 -10.246667 0
M  V30 END ATOM
M  V30 BEGIN BOND
M  V30 1 1 2 1
M  V30 2 1 3 2
M  V30 3 2 4 3
M  V30 4 1 5 4
M  V30 5 2 6 5
M  V30 6 2 7 2
M  V30 7 1 7 6
M  V30 8 1 8 6
M  V30 9 1 9 8
M  V30 10 1 10 9
M  V30 11 1 11 10
M  V30 12 1 12 11
M  V30 13 1 13 12
M  V30 14 2 14 13
M  V30 15 1 15 14
M  V30 16 2 16 15
M  V30 17 1 17 16
M  V30 18 1 18 13
M  V30 19 2 18 17
M  V30 20 1 19 9
M  V30 21 1 20 5
M  V30 22 1 20 19
M  V30 23 1 21 1
M  V30 24 1 22 3
M  V30 25 1 23 4
M  V30 26 1 24 7
M  V30 27 1 9 25 CFG=1
M  V30 28 1 26 10
M  V30 29 1 27 10
M  V30 30 1 28 11
M  V30 31 1 29 12
M  V30 32 1 30 12
M  V30 33 1 31 14
M  V30 34 1 32 15
M  V30 35 1 33 16
M  V30 36 1 34 17
M  V30 37 1 35 18
M  V30 38 1 36 19
M  V30 39 1 37 19
M  V30 40 1 38 11
M  V30 END BOND
M  V30 END CTAB
M  END
>  <b_m_subgroup_collapsed>  (1402) 
0

>  <r_i_docking_score>  (1402) 
-7.1690613441862796

>  <s_m_subgroup_title>  (1402) 
glide-dock_SP_D22_pv

>  <s_m_subgroupid>  (1402) 
glide-dock_SP_D22_pv

>  <Molecule ChEMBL ID>  (1402) 
CHEMBL423890

>  <Standard Type>  (1402) 
Ki

>  <Standard Value>  (1402) 
7.2

>  <label>  (1402) 
1

$$$$
CHEMBL574595
     RDKit          3D

  0  0  0  0  0  0  0  0  0  0999 V3000
M  V30 BEGIN CTAB
M  V30 COUNTS 92 97 0 0 1
M  V30 BEGIN ATOM
M  V30 1 C 7.977230 11.833587 -24.010960 0
M  V30 2 O 7.289739 10.667314 -23.591671 0
M  V30 3 C 5.995614 10.787885 -23.135099 0
M  V30 4 C 5.219755 11.959923 -23.336176 0
M  V30 5 C 3.905192 12.048711 -22.843361 0
M  V30 6 C 3.350918 10.973344 -22.129396 0
M  V30 7 C 4.109046 9.807731 -21.920000 0
M  V30 8 C 5.421686 9.694530 -22.429300 0
M  V30 9 N 6.111828 8.486620 -22.208609 0
M  V30 10 C 6.869299 7.812629 -23.260183 0
M  V30 11 C 8.389571 7.844102 -22.975292 0
M  V30 12 N 8.668054 7.324548 -21.632090 0
M  V30 13 C 10.101576 7.185293 -21.358829 0
M  V30 14 C 10.907048 8.502999 -21.271189 0
M  V30 15 C 12.435003 8.295096 -21.260069 0
M  V30 16 N 12.941176 7.755504 -20.006432 0
M  V30 17 C 12.887786 6.459758 -19.530439 0
M  V30 18 C 13.506201 6.542328 -18.314972 0
M  V30 19 C 13.718254 5.484540 -17.275133 0
M  V30 20 C 12.587253 5.487185 -16.236465 0
M  V30 21 C 12.791468 4.432453 -15.129930 0
M  V30 22 N 11.621558 4.275417 -14.218354 0 CFG=2 CHG=1
M  V30 23 C 10.485422 3.599652 -14.890911 0
M  V30 24 C 9.506474 2.981410 -13.895424 0
M  V30 25 C 8.496487 3.996645 -13.419950 0
M  V30 26 C 7.139931 3.773165 -13.717942 0
M  V30 27 C 6.185406 4.717890 -13.322720 0
M  V30 28 O 4.886095 4.571085 -13.662327 0
M  V30 29 C 6.580629 5.879266 -12.646955 0
M  V30 30 O 5.686097 6.805673 -12.247302 0
M  V30 31 C 7.920331 6.124177 -12.380910 0
M  V30 32 C 8.888580 5.166598 -12.723006 0
M  V30 33 C 10.311343 5.367035 -12.248946 0 CFG=2
M  V30 34 C 10.442715 6.470055 -11.159768 0
M  V30 35 C 11.203083 7.630031 -11.412858 0
M  V30 36 C 11.440390 8.572784 -10.399722 0
M  V30 37 C 10.880573 8.403441 -9.123856 0
M  V30 38 C 10.112429 7.259136 -8.852045 0
M  V30 39 C 9.910369 6.277748 -9.846290 0
M  V30 40 C 9.145158 5.022119 -9.449161 0
M  V30 41 C 11.318840 5.510667 -13.438159 0
M  V30 42 N 13.918818 7.857018 -18.110661 0
M  V30 43 N 13.584694 8.572438 -19.136625 0
M  V30 44 C 7.978872 8.151653 -20.639687 0
M  V30 45 C 6.450934 8.097958 -20.845739 0
M  V30 46 H 9.008666 11.576068 -24.249945 0
M  V30 47 H 7.535445 12.273808 -24.904329 0
M  V30 48 H 7.999254 12.572306 -23.210836 0
M  V30 49 H 5.609538 12.805590 -23.880680 0
M  V30 50 H 3.320114 12.940579 -23.010462 0
M  V30 51 H 2.340668 11.034838 -21.750315 0
M  V30 52 H 3.666233 8.981421 -21.385365 0
M  V30 53 H 6.654451 8.250238 -24.235584 0
M  V30 54 H 6.529463 6.776722 -23.309965 0
M  V30 55 H 8.771924 8.858344 -23.076103 0
M  V30 56 H 8.908977 7.238450 -23.718340 0
M  V30 57 H 10.527982 6.547253 -22.132748 0
M  V30 58 H 10.209728 6.634815 -20.424614 0
M  V30 59 H 10.614095 9.062111 -20.382298 0
M  V30 60 H 10.674932 9.141788 -22.121660 0
M  V30 61 H 12.928890 9.248374 -21.451704 0
M  V30 62 H 12.737223 7.631712 -22.071089 0
M  V30 63 H 12.427768 5.643892 -20.067142 0
M  V30 64 H 14.676734 5.640491 -16.775669 0
M  V30 65 H 13.782288 4.504037 -17.749352 0
M  V30 66 H 11.646447 5.315862 -16.760429 0
M  V30 67 H 12.520214 6.481280 -15.793326 0
M  V30 68 H 13.672961 4.689376 -14.541500 0
M  V30 69 H 13.008884 3.463847 -15.584282 0
M  V30 70 H 9.974629 4.267311 -15.585475 0
M  V30 71 H 10.887383 2.782159 -15.491290 0
M  V30 72 H 10.039125 2.561991 -13.046138 0
M  V30 73 H 8.986345 2.148526 -14.369446 0
M  V30 74 H 6.823695 2.896896 -14.265195 0
M  V30 75 H 4.425275 5.367426 -13.442152 0
M  V30 76 H 6.026900 7.331816 -11.508442 0
M  V30 77 H 8.164477 7.039031 -11.862548 0
M  V30 78 H 10.485982 4.423224 -11.739682 0
M  V30 79 H 11.652025 7.790812 -12.377234 0
M  V30 80 H 12.045960 9.441611 -10.619660 0
M  V30 81 H 11.049090 9.142934 -8.354022 0
M  V30 82 H 9.697678 7.126490 -7.862958 0
M  V30 83 H 8.889507 5.034729 -8.388881 0
M  V30 84 H 8.205163 4.927151 -9.995941 0
M  V30 85 H 9.745469 4.128616 -9.625128 0
M  V30 86 H 10.980212 6.304025 -14.103259 0
M  V30 87 H 12.287523 5.818666 -13.045382 0
M  V30 88 H 8.213989 7.772946 -19.643421 0
M  V30 89 H 8.322647 9.184733 -20.693420 0
M  V30 90 H 5.956615 8.745685 -20.120588 0
M  V30 91 H 6.086000 7.087610 -20.659079 0
M  V30 92 H 11.932785 3.607697 -13.528911 0
M  V30 END ATOM
M  V30 BEGIN BOND
M  V30 1 1 2 1
M  V30 2 1 3 2
M  V30 3 2 4 3
M  V30 4 1 5 4
M  V30 5 2 6 5
M  V30 6 1 7 6
M  V30 7 1 8 3
M  V30 8 2 8 7
M  V30 9 1 9 8
M  V30 10 1 10 9
M  V30 11 1 11 10
M  V30 12 1 12 11
M  V30 13 1 13 12
M  V30 14 1 14 13
M  V30 15 1 15 14
M  V30 16 1 16 15
M  V30 17 1 17 16
M  V30 18 2 18 17
M  V30 19 1 19 18
M  V30 20 1 20 19
M  V30 21 1 21 20
M  V30 22 1 22 21
M  V30 23 1 23 22
M  V30 24 1 24 23
M  V30 25 1 25 24
M  V30 26 1 26 25
M  V30 27 2 27 26
M  V30 28 1 28 27
M  V30 29 1 29 27
M  V30 30 1 30 29
M  V30 31 2 31 29
M  V30 32 2 32 25
M  V30 33 1 32 31
M  V30 34 1 33 32
M  V30 35 1 34 33
M  V30 36 2 35 34
M  V30 37 1 36 35
M  V30 38 2 37 36
M  V30 39 1 38 37
M  V30 40 1 39 34
M  V30 41 2 39 38
M  V30 42 1 40 39
M  V30 43 1 41 22
M  V30 44 1 41 33
M  V30 45 1 42 18
M  V30 46 1 43 16
M  V30 47 2 43 42
M  V30 48 1 44 12
M  V30 49 1 45 9
M  V30 50 1 45 44
M  V30 51 1 46 1
M  V30 52 1 47 1
M  V30 53 1 48 1
M  V30 54 1 49 4
M  V30 55 1 50 5
M  V30 56 1 51 6
M  V30 57 1 52 7
M  V30 58 1 53 10
M  V30 59 1 54 10
M  V30 60 1 55 11
M  V30 61 1 56 11
M  V30 62 1 57 13
M  V30 63 1 58 13
M  V30 64 1 59 14
M  V30 65 1 60 14
M  V30 66 1 61 15
M  V30 67 1 62 15
M  V30 68 1 63 17
M  V30 69 1 64 19
M  V30 70 1 65 19
M  V30 71 1 66 20
M  V30 72 1 67 20
M  V30 73 1 68 21
M  V30 74 1 69 21
M  V30 75 1 70 23
M  V30 76 1 71 23
M  V30 77 1 72 24
M  V30 78 1 73 24
M  V30 79 1 74 26
M  V30 80 1 75 28
M  V30 81 1 76 30
M  V30 82 1 77 31
M  V30 83 1 33 78 CFG=1
M  V30 84 1 79 35
M  V30 85 1 80 36
M  V30 86 1 81 37
M  V30 87 1 82 38
M  V30 88 1 83 40
M  V30 89 1 84 40
M  V30 90 1 85 40
M  V30 91 1 86 41
M  V30 92 1 87 41
M  V30 93 1 88 44
M  V30 94 1 89 44
M  V30 95 1 90 45
M  V30 96 1 91 45
M  V30 97 1 22 92 CFG=1
M  V30 END BOND
M  V30 END CTAB
M  END
>  <b_m_subgroup_collapsed>  (1403) 
0

>  <r_i_docking_score>  (1403) 
-7.1687348729539799

>  <s_m_subgroup_title>  (1403) 
glide-dock_SP_D22_pv

>  <s_m_subgroupid>  (1403) 
glide-dock_SP_D22_pv

>  <Molecule ChEMBL ID>  (1403) 
CHEMBL574595

>  <Standard Type>  (1403) 
Ki

>  <Standard Value>  (1403) 
39.1

>  <label>  (1403) 
1

$$$$
CHEMBL87137
     RDKit          3D

  0  0  0  0  0  0  0  0  0  0999 V3000
M  V30 BEGIN CTAB
M  V30 COUNTS 38 40 0 0 1
M  V30 BEGIN ATOM
M  V30 1 C 10.892217 8.906458 -7.751093 0
M  V30 2 C 9.782353 8.350019 -7.089215 0
M  V30 3 C 9.131581 7.220155 -7.624141 0
M  V30 4 C 9.583364 6.646169 -8.831412 0
M  V30 5 C 8.888502 5.423752 -9.409635 0
M  V30 6 N 8.090713 5.772328 -10.602862 0 CHG=1
M  V30 7 C 7.667348 4.606823 -11.410338 0
M  V30 8 C 6.824218 5.025868 -12.627030 0
M  V30 9 O 6.215708 3.894850 -13.244005 0
M  V30 10 C 7.014175 2.942921 -13.846942 0
M  V30 11 C 8.312750 3.204139 -14.355335 0
M  V30 12 C 9.082579 2.175105 -14.934289 0
M  V30 13 C 8.568591 0.867633 -15.017355 0
M  V30 14 C 7.282042 0.611706 -14.516618 0
M  V30 15 N 6.485960 -0.518566 -14.436399 0
M  V30 16 N 5.283062 -0.299596 -13.847517 0
M  V30 17 C 5.277046 0.973517 -13.528488 0
M  V30 18 C 6.484717 1.630835 -13.927769 0
M  V30 19 C 10.692030 7.213677 -9.496408 0
M  V30 20 C 11.347339 8.339764 -8.956557 0
M  V30 21 H 11.390894 9.771935 -7.338201 0
M  V30 22 H 9.422641 8.790857 -6.172928 0
M  V30 23 H 8.275058 6.808702 -7.108333 0
M  V30 24 H 9.650842 4.687010 -9.670758 0
M  V30 25 H 8.241380 4.961420 -8.660739 0
M  V30 26 H 7.292646 6.345871 -10.309963 0
M  V30 27 H 8.557790 4.068192 -11.734342 0
M  V30 28 H 7.099567 3.915034 -10.785720 0
M  V30 29 H 6.011162 5.675190 -12.295213 0
M  V30 30 H 7.403769 5.612853 -13.338470 0
M  V30 31 H 8.742562 4.193700 -14.321068 0
M  V30 32 H 10.072011 2.389459 -15.314478 0
M  V30 33 H 9.155122 0.072058 -15.453800 0
M  V30 34 H 6.733378 -1.440606 -14.781843 0
M  V30 35 H 4.410691 1.399812 -13.047075 0
M  V30 36 H 11.051183 6.786705 -10.420522 0
M  V30 37 H 12.197717 8.770135 -9.466368 0
M  V30 38 H 8.662244 6.371345 -11.181720 0
M  V30 END ATOM
M  V30 BEGIN BOND
M  V30 1 2 2 1
M  V30 2 1 3 2
M  V30 3 2 4 3
M  V30 4 1 5 4
M  V30 5 1 6 5
M  V30 6 1 7 6
M  V30 7 1 8 7
M  V30 8 1 9 8
M  V30 9 1 10 9
M  V30 10 1 11 10
M  V30 11 2 12 11
M  V30 12 1 13 12
M  V30 13 2 14 13
M  V30 14 1 15 14
M  V30 15 1 16 15
M  V30 16 2 17 16
M  V30 17 2 18 10
M  V30 18 1 18 14
M  V30 19 1 18 17
M  V30 20 1 19 4
M  V30 21 1 20 1
M  V30 22 2 20 19
M  V30 23 1 21 1
M  V30 24 1 22 2
M  V30 25 1 23 3
M  V30 26 1 24 5
M  V30 27 1 25 5
M  V30 28 1 26 6
M  V30 29 1 27 7
M  V30 30 1 28 7
M  V30 31 1 29 8
M  V30 32 1 30 8
M  V30 33 1 31 11
M  V30 34 1 32 12
M  V30 35 1 33 13
M  V30 36 1 34 15
M  V30 37 1 35 17
M  V30 38 1 36 19
M  V30 39 1 37 20
M  V30 40 1 38 6
M  V30 END BOND
M  V30 END CTAB
M  END
>  <b_m_subgroup_collapsed>  (1404) 
0

>  <r_i_docking_score>  (1404) 
-7.1680256830281603

>  <s_m_subgroup_title>  (1404) 
glide-dock_SP_D22_pv

>  <s_m_subgroupid>  (1404) 
glide-dock_SP_D22_pv

>  <Molecule ChEMBL ID>  (1404) 
CHEMBL87137

>  <Standard Type>  (1404) 
Ki

>  <Standard Value>  (1404) 
79.8

>  <label>  (1404) 
1

$$$$
CHEMBL15928
     RDKit          3D

  0  0  0  0  0  0  0  0  0  0999 V3000
M  V30 BEGIN CTAB
M  V30 COUNTS 69 73 0 0 1
M  V30 BEGIN ATOM
M  V30 1 C 9.848248 -1.154338 -18.918222 0
M  V30 2 O 8.666037 -0.757647 -18.243637 0
M  V30 3 C 8.762886 0.194806 -17.250277 0
M  V30 4 C 9.995646 0.739647 -16.814751 0
M  V30 5 C 10.030717 1.716624 -15.803524 0
M  V30 6 C 8.840238 2.171893 -15.203647 0
M  V30 7 N 8.972325 3.169806 -14.195638 0
M  V30 8 C 8.026340 3.898924 -13.576826 0
M  V30 9 O 6.820426 3.862888 -13.824834 0
M  V30 10 C 8.541923 4.756003 -12.464968 0
M  V30 11 C 9.610328 5.656644 -12.645927 0
M  V30 12 C 10.092218 6.411109 -11.553288 0
M  V30 13 C 9.576854 6.253601 -10.243337 0
M  V30 14 C 10.120630 6.916122 -9.019784 0
M  V30 15 C 10.088594 6.186996 -7.806314 0
M  V30 16 C 10.481213 6.753819 -6.580575 0
M  V30 17 C 10.934488 8.080575 -6.511612 0
M  V30 18 C 11.287650 8.707881 -5.226574 0
M  V30 19 N 10.987229 9.973080 -4.968156 0
M  V30 20 O 11.415466 10.123892 -3.641642 0
M  V30 21 C 11.947812 8.928996 -3.281316 0
M  V30 22 C 12.492314 8.770535 -1.904265 0
M  V30 23 N 11.883022 7.998007 -4.229913 0
M  V30 24 C 11.028630 8.799808 -7.714508 0
M  V30 25 C 10.641922 8.241052 -8.951047 0
M  V30 26 C 10.785917 9.128338 -10.161151 0
M  V30 27 C 8.485862 5.371726 -10.104060 0
M  V30 28 C 7.959140 4.654737 -11.192862 0
M  V30 29 C 7.607400 1.600966 -15.608511 0
M  V30 30 C 7.564344 0.628718 -16.630203 0
M  V30 31 N 6.328567 0.100657 -17.034729 0
M  V30 32 C 5.837121 0.359620 -18.379835 0
M  V30 33 C 5.234345 -0.924241 -18.972570 0
M  V30 34 N 4.245851 -1.540214 -18.049927 0 CHG=1
M  V30 35 C 3.614299 -2.736190 -18.646793 0
M  V30 36 C 4.809487 -1.806069 -16.697237 0
M  V30 37 C 5.434645 -0.535742 -16.077839 0
M  V30 38 H 9.579468 -1.827555 -19.731920 0
M  V30 39 H 10.365751 -0.304540 -19.361378 0
M  V30 40 H 10.524426 -1.689748 -18.251362 0
M  V30 41 H 10.936247 0.428105 -17.240381 0
M  V30 42 H 10.986199 2.118711 -15.495784 0
M  V30 43 H 9.915667 3.334613 -13.870347 0
M  V30 44 H 10.071188 5.773111 -13.616037 0
M  V30 45 H 10.939534 7.053876 -11.726794 0
M  V30 46 H 9.735434 5.168245 -7.798938 0
M  V30 47 H 10.405676 6.172234 -5.674130 0
M  V30 48 H 12.438503 7.726535 -1.594961 0
M  V30 49 H 13.533325 9.089444 -1.869745 0
M  V30 50 H 11.919817 9.372312 -1.196465 0
M  V30 51 H 11.393211 9.815328 -7.678545 0
M  V30 52 H 10.884712 10.169273 -9.846721 0
M  V30 53 H 11.690612 8.873456 -10.714555 0
M  V30 54 H 9.914413 9.033611 -10.810314 0
M  V30 55 H 8.016542 5.237201 -9.142384 0
M  V30 56 H 7.122881 3.989262 -11.037332 0
M  V30 57 H 6.675574 1.902670 -15.156163 0
M  V30 58 H 5.074753 1.141658 -18.325716 0
M  V30 59 H 6.632522 0.737912 -19.023977 0
M  V30 60 H 4.761054 -0.694272 -19.929131 0
M  V30 61 H 6.031786 -1.641976 -19.176029 0
M  V30 62 H 4.306017 -3.580588 -18.673847 0
M  V30 63 H 2.739000 -3.027832 -18.074423 0
M  V30 64 H 3.286142 -2.536623 -19.666052 0
M  V30 65 H 4.033120 -2.197346 -16.038977 0
M  V30 66 H 5.575535 -2.578911 -16.774696 0
M  V30 67 H 5.971985 -0.788800 -15.161586 0
M  V30 68 H 4.648630 0.172264 -15.806451 0
M  V30 69 H 3.509663 -0.861372 -17.922512 0
M  V30 END ATOM
M  V30 BEGIN BOND
M  V30 1 1 2 1
M  V30 2 1 3 2
M  V30 3 1 4 3
M  V30 4 2 5 4
M  V30 5 1 6 5
M  V30 6 1 7 6
M  V30 7 1 8 7
M  V30 8 2 9 8
M  V30 9 1 10 8
M  V30 10 1 11 10
M  V30 11 2 12 11
M  V30 12 1 13 12
M  V30 13 1 14 13
M  V30 14 1 15 14
M  V30 15 2 16 15
M  V30 16 1 17 16
M  V30 17 1 18 17
M  V30 18 2 19 18
M  V30 19 1 20 19
M  V30 20 1 21 20
M  V30 21 1 22 21
M  V30 22 1 23 18
M  V30 23 2 23 21
M  V30 24 2 24 17
M  V30 25 2 25 14
M  V30 26 1 25 24
M  V30 27 1 26 25
M  V30 28 2 27 13
M  V30 29 2 28 10
M  V30 30 1 28 27
M  V30 31 2 29 6
M  V30 32 2 30 3
M  V30 33 1 30 29
M  V30 34 1 31 30
M  V30 35 1 32 31
M  V30 36 1 33 32
M  V30 37 1 34 33
M  V30 38 1 35 34
M  V30 39 1 36 34
M  V30 40 1 37 31
M  V30 41 1 37 36
M  V30 42 1 38 1
M  V30 43 1 39 1
M  V30 44 1 40 1
M  V30 45 1 41 4
M  V30 46 1 42 5
M  V30 47 1 43 7
M  V30 48 1 44 11
M  V30 49 1 45 12
M  V30 50 1 46 15
M  V30 51 1 47 16
M  V30 52 1 48 22
M  V30 53 1 49 22
M  V30 54 1 50 22
M  V30 55 1 51 24
M  V30 56 1 52 26
M  V30 57 1 53 26
M  V30 58 1 54 26
M  V30 59 1 55 27
M  V30 60 1 56 28
M  V30 61 1 57 29
M  V30 62 1 58 32
M  V30 63 1 59 32
M  V30 64 1 60 33
M  V30 65 1 61 33
M  V30 66 1 62 35
M  V30 67 1 63 35
M  V30 68 1 64 35
M  V30 69 1 65 36
M  V30 70 1 66 36
M  V30 71 1 67 37
M  V30 72 1 68 37
M  V30 73 1 69 34
M  V30 END BOND
M  V30 END CTAB
M  END
>  <b_m_subgroup_collapsed>  (1405) 
0

>  <r_i_docking_score>  (1405) 
-7.1675984485594002

>  <s_m_subgroup_title>  (1405) 
glide-dock_SP_D22_pv

>  <s_m_subgroupid>  (1405) 
glide-dock_SP_D22_pv

>  <Molecule ChEMBL ID>  (1405) 
CHEMBL15928

>  <Standard Type>  (1405) 
Ki

>  <Standard Value>  (1405) 
10000.0

>  <label>  (1405) 
0

$$$$
CHEMBL3818935
     RDKit          3D

  0  0  0  0  0  0  0  0  0  0999 V3000
M  V30 BEGIN CTAB
M  V30 COUNTS 59 63 0 0 1
M  V30 BEGIN ATOM
M  V30 1 O 7.690863 2.172530 -15.795475 0
M  V30 2 C 8.890708 2.373499 -15.620140 0
M  V30 3 N 9.884376 1.709012 -16.195009 0
M  V30 4 C 11.187899 2.150258 -15.731899 0
M  V30 5 N 10.916847 3.399619 -15.010500 0
M  V30 6 C 11.514066 4.522071 -15.615805 0
M  V30 7 C 12.462319 5.265235 -14.881927 0
M  V30 8 C 13.064400 6.405804 -15.447257 0
M  V30 9 C 12.732841 6.806236 -16.755119 0
M  V30 10 C 11.803377 6.058511 -17.502459 0
M  V30 11 C 11.201358 4.916999 -16.938494 0
M  V30 12 C 9.476951 3.426207 -14.684466 0 CFG=1
M  V30 13 C 8.752507 4.784228 -14.768743 0
M  V30 14 C 9.137310 5.772299 -13.665276 0
M  V30 15 N 9.090699 5.235224 -12.291974 0 CFG=2 CHG=1
M  V30 16 C 9.588865 6.245310 -11.328960 0
M  V30 17 C 9.140496 5.979061 -9.890544 0
M  V30 18 C 9.856172 6.916361 -8.916615 0
M  V30 19 C 9.220862 6.884315 -7.529404 0
M  V30 20 C 10.108483 7.455225 -6.486406 0
M  V30 21 N 10.321324 8.757009 -6.248506 0
M  V30 22 C 11.062307 8.729491 -5.083582 0
M  V30 23 C 11.501601 9.746385 -4.212718 0
M  V30 24 C 12.161322 9.399655 -3.012138 0
M  V30 25 C 12.405893 8.052124 -2.673368 0
M  V30 26 C 11.994499 7.025012 -3.541701 0
M  V30 27 C 11.318639 7.389066 -4.716308 0
M  V30 28 O 10.747390 6.572579 -5.662620 0
M  V30 29 C 9.805145 3.944944 -12.213370 0
M  V30 30 C 9.222857 2.978019 -13.243049 0
M  V30 31 H 9.756168 0.949052 -16.846830 0
M  V30 32 H 11.880404 2.261147 -16.568596 0
M  V30 33 H 11.604055 1.410027 -15.050802 0
M  V30 34 H 12.726995 4.968573 -13.877020 0
M  V30 35 H 13.783652 6.972446 -14.873528 0
M  V30 36 H 13.192782 7.683508 -17.187578 0
M  V30 37 H 11.551286 6.360858 -18.508699 0
M  V30 38 H 10.486034 4.354471 -17.520853 0
M  V30 39 H 8.885555 5.250259 -15.744114 0
M  V30 40 H 7.682515 4.612094 -14.646500 0
M  V30 41 H 10.131955 6.172186 -13.850992 0
M  V30 42 H 8.407572 6.572869 -13.693899 0
M  V30 43 H 10.674776 6.313730 -11.394288 0
M  V30 44 H 9.210645 7.230307 -11.609263 0
M  V30 45 H 8.062247 6.118873 -9.818915 0
M  V30 46 H 9.339160 4.951725 -9.587840 0
M  V30 47 H 10.901305 6.611326 -8.850023 0
M  V30 48 H 9.853657 7.943229 -9.286037 0
M  V30 49 H 8.281226 7.436555 -7.525956 0
M  V30 50 H 8.978377 5.858800 -7.248012 0
M  V30 51 H 11.286344 10.776503 -4.450676 0
M  V30 52 H 12.475703 10.172927 -2.328452 0
M  V30 53 H 12.886292 7.812613 -1.736704 0
M  V30 54 H 12.145078 5.984269 -3.293707 0
M  V30 55 H 10.867209 4.109084 -12.391095 0
M  V30 56 H 9.692013 3.515688 -11.221575 0
M  V30 57 H 8.148070 2.972212 -13.054507 0
M  V30 58 H 9.582817 1.975836 -13.098903 0
M  V30 59 H 8.118344 5.067151 -12.069336 0
M  V30 END ATOM
M  V30 BEGIN BOND
M  V30 1 2 2 1
M  V30 2 1 3 2
M  V30 3 1 4 3
M  V30 4 1 5 4
M  V30 5 1 6 5
M  V30 6 2 7 6
M  V30 7 1 8 7
M  V30 8 2 9 8
M  V30 9 1 10 9
M  V30 10 1 11 6
M  V30 11 2 11 10
M  V30 12 1 12 2
M  V30 13 1 12 5 CFG=1
M  V30 14 1 13 12
M  V30 15 1 14 13
M  V30 16 1 15 14
M  V30 17 1 16 15
M  V30 18 1 17 16
M  V30 19 1 18 17
M  V30 20 1 19 18
M  V30 21 1 20 19
M  V30 22 2 21 20
M  V30 23 1 22 21
M  V30 24 2 23 22
M  V30 25 1 24 23
M  V30 26 2 25 24
M  V30 27 1 26 25
M  V30 28 1 27 22
M  V30 29 2 27 26
M  V30 30 1 28 20
M  V30 31 1 28 27
M  V30 32 1 29 15
M  V30 33 1 30 12
M  V30 34 1 30 29
M  V30 35 1 31 3
M  V30 36 1 32 4
M  V30 37 1 33 4
M  V30 38 1 34 7
M  V30 39 1 35 8
M  V30 40 1 36 9
M  V30 41 1 37 10
M  V30 42 1 38 11
M  V30 43 1 39 13
M  V30 44 1 40 13
M  V30 45 1 41 14
M  V30 46 1 42 14
M  V30 47 1 43 16
M  V30 48 1 44 16
M  V30 49 1 45 17
M  V30 50 1 46 17
M  V30 51 1 47 18
M  V30 52 1 48 18
M  V30 53 1 49 19
M  V30 54 1 50 19
M  V30 55 1 51 23
M  V30 56 1 52 24
M  V30 57 1 53 25
M  V30 58 1 54 26
M  V30 59 1 55 29
M  V30 60 1 56 29
M  V30 61 1 57 30
M  V30 62 1 58 30
M  V30 63 1 15 59 CFG=1
M  V30 END BOND
M  V30 END CTAB
M  END
>  <b_m_subgroup_collapsed>  (1406) 
0

>  <r_i_docking_score>  (1406) 
-7.1674627208149602

>  <s_m_subgroup_title>  (1406) 
glide-dock_SP_D22_pv

>  <s_m_subgroupid>  (1406) 
glide-dock_SP_D22_pv

>  <Molecule ChEMBL ID>  (1406) 
CHEMBL3818935

>  <Standard Type>  (1406) 
Ki

>  <Standard Value>  (1406) 
10.23

>  <label>  (1406) 
1

$$$$
CHEMBL2420770
     RDKit          3D

  0  0  0  0  0  0  0  0  0  0999 V3000
M  V30 BEGIN CTAB
M  V30 COUNTS 37 39 0 0 1
M  V30 BEGIN ATOM
M  V30 1 F 10.952315 10.558372 -4.630360 0
M  V30 2 C 11.432087 9.385483 -4.144106 0
M  V30 3 C 12.028670 9.379992 -2.867895 0
M  V30 4 C 12.454249 8.179258 -2.277839 0
M  V30 5 C 12.264574 6.970666 -2.969331 0
M  V30 6 C 11.689240 6.971126 -4.253573 0
M  V30 7 C 11.286521 8.176106 -4.871833 0
M  V30 8 N 10.759280 8.145188 -6.176927 0
M  V30 9 C 9.777327 7.148238 -6.587986 0
M  V30 10 C 10.074551 6.663121 -8.018685 0
M  V30 11 N 10.300096 7.786930 -8.976251 0 CHG=1
M  V30 12 C 10.722500 7.338990 -10.322461 0
M  V30 13 C 9.646215 6.672822 -11.099733 0
M  V30 14 C 8.844725 7.258315 -12.040359 0
M  V30 15 C 7.950371 6.340440 -12.653815 0
M  V30 16 C 8.057452 5.068315 -12.162670 0
M  V30 17 S 9.284986 4.972331 -10.936538 0
M  V30 18 C 11.259850 8.801238 -8.469801 0
M  V30 19 C 10.896568 9.280239 -7.067495 0
M  V30 20 H 12.119550 10.306634 -2.323345 0
M  V30 21 H 12.886214 8.184376 -1.288466 0
M  V30 22 H 12.568683 6.038380 -2.517433 0
M  V30 23 H 11.587815 6.028160 -4.771578 0
M  V30 24 H 8.791626 7.612065 -6.559195 0
M  V30 25 H 9.734631 6.303852 -5.903454 0
M  V30 26 H 9.237926 6.046989 -8.353144 0
M  V30 27 H 10.954076 6.018839 -8.001018 0
M  V30 28 H 11.586996 6.683537 -10.236190 0
M  V30 29 H 11.064355 8.200018 -10.899852 0
M  V30 30 H 8.875664 8.299897 -12.322563 0
M  V30 31 H 7.284545 6.651530 -13.443252 0
M  V30 32 H 7.497272 4.189134 -12.444145 0
M  V30 33 H 12.267435 8.379130 -8.458757 0
M  V30 34 H 11.284039 9.658451 -9.146055 0
M  V30 35 H 9.934183 9.781121 -7.089395 0
M  V30 36 H 11.655252 9.985806 -6.731473 0
M  V30 37 H 9.405945 8.248437 -9.084479 0
M  V30 END ATOM
M  V30 BEGIN BOND
M  V30 1 1 2 1
M  V30 2 2 3 2
M  V30 3 1 4 3
M  V30 4 2 5 4
M  V30 5 1 6 5
M  V30 6 1 7 2
M  V30 7 2 7 6
M  V30 8 1 8 7
M  V30 9 1 9 8
M  V30 10 1 10 9
M  V30 11 1 11 10
M  V30 12 1 12 11
M  V30 13 1 13 12
M  V30 14 2 14 13
M  V30 15 1 15 14
M  V30 16 2 16 15
M  V30 17 1 17 13
M  V30 18 1 17 16
M  V30 19 1 18 11
M  V30 20 1 19 8
M  V30 21 1 19 18
M  V30 22 1 20 3
M  V30 23 1 21 4
M  V30 24 1 22 5
M  V30 25 1 23 6
M  V30 26 1 24 9
M  V30 27 1 25 9
M  V30 28 1 26 10
M  V30 29 1 27 10
M  V30 30 1 28 12
M  V30 31 1 29 12
M  V30 32 1 30 14
M  V30 33 1 31 15
M  V30 34 1 32 16
M  V30 35 1 33 18
M  V30 36 1 34 18
M  V30 37 1 35 19
M  V30 38 1 36 19
M  V30 39 1 37 11
M  V30 END BOND
M  V30 END CTAB
M  END
>  <b_m_subgroup_collapsed>  (1407) 
0

>  <r_i_docking_score>  (1407) 
-7.1645434394766596

>  <s_m_subgroup_title>  (1407) 
glide-dock_SP_D22_pv

>  <s_m_subgroupid>  (1407) 
glide-dock_SP_D22_pv

>  <Molecule ChEMBL ID>  (1407) 
CHEMBL2420770

>  <Standard Type>  (1407) 
Ki

>  <Standard Value>  (1407) 
10000.0

>  <label>  (1407) 
0

$$$$
CHEMBL2106804
     RDKit          3D

  0  0  0  0  0  0  0  0  0  0999 V3000
M  V30 BEGIN CTAB
M  V30 COUNTS 40 42 0 0 1
M  V30 BEGIN ATOM
M  V30 1 C 11.870913 7.174538 -12.788807 0
M  V30 2 C 10.688025 7.245282 -11.810905 0
M  V30 3 C 11.120810 7.432192 -10.341455 0
M  V30 4 N 9.977355 7.702744 -9.422733 0 CFG=1 CHG=1
M  V30 5 C 9.020863 6.571428 -9.278147 0
M  V30 6 C 9.510069 5.525987 -8.266200 0
M  V30 7 O 9.760651 6.172437 -7.022369 0
M  V30 8 C 10.804732 7.124732 -7.106907 0 CFG=2
M  V30 9 C 11.191422 7.669615 -5.730921 0
M  V30 10 C 11.371411 6.783844 -4.647071 0
M  V30 11 C 11.751913 7.256191 -3.373838 0
M  V30 12 O 11.954640 6.404782 -2.330491 0
M  V30 13 C 11.889426 8.634295 -3.158586 0
M  V30 14 C 11.686711 9.521280 -4.225385 0
M  V30 15 C 11.413502 9.052210 -5.523256 0
M  V30 16 C 11.372442 10.044569 -6.671165 0
M  V30 17 C 11.362633 9.372360 -8.056322 0
M  V30 18 C 10.336692 8.234718 -8.072477 0 CFG=1
M  V30 19 H 11.520131 7.154398 -13.820630 0
M  V30 20 H 12.477465 6.279324 -12.646614 0
M  V30 21 H 12.524523 8.040361 -12.686949 0
M  V30 22 H 10.044266 8.075397 -12.103339 0
M  V30 23 H 10.095235 6.340575 -11.934422 0
M  V30 24 H 11.685669 6.573778 -9.983706 0
M  V30 25 H 11.812160 8.273626 -10.330289 0
M  V30 26 H 8.086135 6.971555 -8.897552 0
M  V30 27 H 8.768196 6.110844 -10.231108 0
M  V30 28 H 8.740703 4.766348 -8.119770 0
M  V30 29 H 10.402174 5.008329 -8.622847 0
M  V30 30 H 11.698404 6.637176 -7.499443 0
M  V30 31 H 11.227053 5.733338 -4.804025 0
M  V30 32 H 11.684831 5.511291 -2.495232 0
M  V30 33 H 12.128808 9.014445 -2.175413 0
M  V30 34 H 11.741379 10.572238 -4.036560 0
M  V30 35 H 10.486251 10.656987 -6.537736 0
M  V30 36 H 12.227487 10.716634 -6.590365 0
M  V30 37 H 11.187113 10.094737 -8.852873 0
M  V30 38 H 12.359302 8.969667 -8.241920 0
M  V30 39 H 9.404613 8.643347 -7.675320 0
M  V30 40 H 9.446891 8.437207 -9.873486 0
M  V30 END ATOM
M  V30 BEGIN BOND
M  V30 1 1 2 1
M  V30 2 1 3 2
M  V30 3 1 4 3
M  V30 4 1 5 4
M  V30 5 1 6 5
M  V30 6 1 7 6
M  V30 7 1 8 7
M  V30 8 1 9 8
M  V30 9 1 10 9
M  V30 10 2 11 10
M  V30 11 1 12 11
M  V30 12 1 13 11
M  V30 13 2 14 13
M  V30 14 2 15 9
M  V30 15 1 15 14
M  V30 16 1 16 15
M  V30 17 1 17 16
M  V30 18 1 18 4
M  V30 19 1 18 8
M  V30 20 1 18 17
M  V30 21 1 19 1
M  V30 22 1 20 1
M  V30 23 1 21 1
M  V30 24 1 22 2
M  V30 25 1 23 2
M  V30 26 1 24 3
M  V30 27 1 25 3
M  V30 28 1 26 5
M  V30 29 1 27 5
M  V30 30 1 28 6
M  V30 31 1 29 6
M  V30 32 1 8 30 CFG=3
M  V30 33 1 31 10
M  V30 34 1 32 12
M  V30 35 1 33 13
M  V30 36 1 34 14
M  V30 37 1 35 16
M  V30 38 1 36 16
M  V30 39 1 37 17
M  V30 40 1 38 17
M  V30 41 1 18 39 CFG=1
M  V30 42 1 4 40 CFG=3
M  V30 END BOND
M  V30 END CTAB
M  END
>  <b_m_subgroup_collapsed>  (1408) 
0

>  <r_i_docking_score>  (1408) 
-7.1639467862965196

>  <s_m_subgroup_title>  (1408) 
glide-dock_SP_D22_pv

>  <s_m_subgroupid>  (1408) 
glide-dock_SP_D22_pv

>  <Molecule ChEMBL ID>  (1408) 
CHEMBL2106804

>  <Standard Type>  (1408) 
Ki

>  <Standard Value>  (1408) 
0.3388

>  <label>  (1408) 
1

$$$$
CHEMBL4476394
     RDKit          3D

  0  0  0  0  0  0  0  0  0  0999 V3000
M  V30 BEGIN CTAB
M  V30 COUNTS 68 71 0 0 1
M  V30 BEGIN ATOM
M  V30 1 C 4.810673 0.759323 -20.232521 0
M  V30 2 C 6.025858 0.134334 -19.531887 0
M  V30 3 C 5.879080 0.107667 -18.020636 0
M  V30 4 C 4.832500 -0.625996 -17.433550 0
M  V30 5 C 4.671114 -0.632915 -16.036692 0
M  V30 6 Cl 3.296833 -1.417605 -15.359383 0
M  V30 7 C 5.589760 0.035889 -15.203770 0
M  V30 8 O 5.447052 -0.074275 -13.842021 0
M  V30 9 C 6.523418 -0.761976 -13.214087 0
M  V30 10 C 6.591740 0.854540 -15.793416 0
M  V30 11 N 7.332710 1.773460 -15.030413 0
M  V30 12 C 6.655388 2.541387 -13.992661 0
M  V30 13 C 7.271535 3.937743 -13.837111 0
M  V30 14 N 8.760284 3.943219 -13.858681 0 CHG=1
M  V30 15 C 9.285215 5.331549 -13.803965 0
M  V30 16 C 10.472604 5.474195 -12.836410 0 CFG=1
M  V30 17 O 11.606960 4.939865 -13.487783 0
M  V30 18 C 10.777397 6.942680 -12.492477 0
M  V30 19 C 9.713820 7.629396 -11.600822 0
M  V30 20 N 9.988866 7.457409 -10.180186 0
M  V30 21 C 10.920938 8.165147 -9.532784 0
M  V30 22 O 11.656026 8.972240 -10.097612 0
M  V30 23 C 10.990410 7.997087 -8.076145 0
M  V30 24 C 10.805829 6.937613 -7.223423 0
M  V30 25 C 11.173833 7.399814 -5.910764 0
M  V30 26 C 11.286633 6.811381 -4.631667 0
M  V30 27 C 11.722995 7.550596 -3.511199 0
M  V30 28 C 12.027506 8.918994 -3.640222 0
M  V30 29 C 11.910659 9.533307 -4.899937 0
M  V30 30 C 11.512990 8.777202 -6.009069 0
M  V30 31 N 11.399068 9.091290 -7.340555 0
M  V30 32 C 9.335920 3.164665 -14.990522 0
M  V30 33 C 8.785230 1.733791 -15.040237 0
M  V30 34 C 6.749853 0.853188 -17.197954 0
M  V30 35 H 4.960782 0.800043 -21.310356 0
M  V30 36 H 3.901461 0.184388 -20.054426 0
M  V30 37 H 4.634513 1.772877 -19.877623 0
M  V30 38 H 6.927561 0.682898 -19.804152 0
M  V30 39 H 6.168933 -0.887501 -19.885019 0
M  V30 40 H 4.128868 -1.165724 -18.051596 0
M  V30 41 H 6.479900 -0.626421 -12.134417 0
M  V30 42 H 6.471355 -1.829877 -13.429718 0
M  V30 43 H 7.503078 -0.411525 -13.531782 0
M  V30 44 H 6.669896 2.007638 -13.046934 0
M  V30 45 H 5.602739 2.658290 -14.246333 0
M  V30 46 H 6.908220 4.391296 -12.911357 0
M  V30 47 H 6.915614 4.569908 -14.645475 0
M  V30 48 H 8.482936 5.993089 -13.480017 0
M  V30 49 H 9.550523 5.685829 -14.802147 0
M  V30 50 H 10.283689 4.917062 -11.918169 0
M  V30 51 H 12.391770 5.235346 -13.047089 0
M  V30 52 H 11.753969 7.014068 -12.014642 0
M  V30 53 H 10.887363 7.504394 -13.416866 0
M  V30 54 H 9.684943 8.697363 -11.824433 0
M  V30 55 H 8.703918 7.275282 -11.793978 0
M  V30 56 H 9.363816 6.873453 -9.641831 0
M  V30 57 H 10.502997 5.932661 -7.479309 0
M  V30 58 H 11.034151 5.772721 -4.510555 0
M  V30 59 H 11.800595 7.069841 -2.546815 0
M  V30 60 H 12.347545 9.491365 -2.780261 0
M  V30 61 H 12.141994 10.572255 -5.046669 0
M  V30 62 H 11.620440 9.973538 -7.778133 0
M  V30 63 H 9.108949 3.669565 -15.930773 0
M  V30 64 H 10.421848 3.126031 -14.909700 0
M  V30 65 H 9.132034 1.170306 -14.171762 0
M  V30 66 H 9.158263 1.214108 -15.923711 0
M  V30 67 H 7.509870 1.471749 -17.650053 0
M  V30 68 H 9.055667 3.475971 -13.013339 0
M  V30 END ATOM
M  V30 BEGIN BOND
M  V30 1 1 2 1
M  V30 2 1 3 2
M  V30 3 2 4 3
M  V30 4 1 5 4
M  V30 5 1 6 5
M  V30 6 2 7 5
M  V30 7 1 8 7
M  V30 8 1 9 8
M  V30 9 1 10 7
M  V30 10 1 11 10
M  V30 11 1 12 11
M  V30 12 1 13 12
M  V30 13 1 14 13
M  V30 14 1 15 14
M  V30 15 1 16 15
M  V30 16 1 17 16
M  V30 17 1 18 16
M  V30 18 1 19 18
M  V30 19 1 20 19
M  V30 20 1 21 20
M  V30 21 2 22 21
M  V30 22 1 23 21
M  V30 23 2 24 23
M  V30 24 1 25 24
M  V30 25 2 26 25
M  V30 26 1 27 26
M  V30 27 2 28 27
M  V30 28 1 29 28
M  V30 29 1 30 25
M  V30 30 2 30 29
M  V30 31 1 31 23
M  V30 32 1 31 30
M  V30 33 1 32 14
M  V30 34 1 33 11
M  V30 35 1 33 32
M  V30 36 1 34 3
M  V30 37 2 34 10
M  V30 38 1 35 1
M  V30 39 1 36 1
M  V30 40 1 37 1
M  V30 41 1 38 2
M  V30 42 1 39 2
M  V30 43 1 40 4
M  V30 44 1 41 9
M  V30 45 1 42 9
M  V30 46 1 43 9
M  V30 47 1 44 12
M  V30 48 1 45 12
M  V30 49 1 46 13
M  V30 50 1 47 13
M  V30 51 1 48 15
M  V30 52 1 49 15
M  V30 53 1 16 50 CFG=1
M  V30 54 1 51 17
M  V30 55 1 52 18
M  V30 56 1 53 18
M  V30 57 1 54 19
M  V30 58 1 55 19
M  V30 59 1 56 20
M  V30 60 1 57 24
M  V30 61 1 58 26
M  V30 62 1 59 27
M  V30 63 1 60 28
M  V30 64 1 61 29
M  V30 65 1 62 31
M  V30 66 1 63 32
M  V30 67 1 64 32
M  V30 68 1 65 33
M  V30 69 1 66 33
M  V30 70 1 67 34
M  V30 71 1 68 14
M  V30 END BOND
M  V30 END CTAB
M  END
>  <b_m_subgroup_collapsed>  (1409) 
0

>  <r_i_docking_score>  (1409) 
-7.1639029695521899

>  <s_m_subgroup_title>  (1409) 
glide-dock_SP_D22_pv

>  <s_m_subgroupid>  (1409) 
glide-dock_SP_D22_pv

>  <Molecule ChEMBL ID>  (1409) 
CHEMBL4476394

>  <Standard Type>  (1409) 
Ki

>  <Standard Value>  (1409) 
11400.0

>  <label>  (1409) 
0

$$$$
CHEMBL4570554
     RDKit          3D

  0  0  0  0  0  0  0  0  0  0999 V3000
M  V30 BEGIN CTAB
M  V30 COUNTS 68 71 0 0 1
M  V30 BEGIN ATOM
M  V30 1 C 4.810673 0.759323 -20.232521 0
M  V30 2 C 6.025858 0.134334 -19.531887 0
M  V30 3 C 5.879080 0.107667 -18.020636 0
M  V30 4 C 4.832500 -0.625996 -17.433550 0
M  V30 5 C 4.671114 -0.632915 -16.036692 0
M  V30 6 Cl 3.296833 -1.417605 -15.359383 0
M  V30 7 C 5.589760 0.035889 -15.203770 0
M  V30 8 O 5.447052 -0.074275 -13.842021 0
M  V30 9 C 6.523418 -0.761976 -13.214087 0
M  V30 10 C 6.591740 0.854540 -15.793416 0
M  V30 11 N 7.332710 1.773460 -15.030413 0
M  V30 12 C 6.655388 2.541387 -13.992661 0
M  V30 13 C 7.271535 3.937743 -13.837111 0
M  V30 14 N 8.760284 3.943219 -13.858681 0 CHG=1
M  V30 15 C 9.285215 5.331549 -13.803965 0
M  V30 16 C 10.472604 5.474195 -12.836410 0 CFG=1
M  V30 17 O 11.606960 4.939865 -13.487783 0
M  V30 18 C 10.777397 6.942680 -12.492477 0
M  V30 19 C 9.713820 7.629396 -11.600822 0
M  V30 20 N 9.988866 7.457409 -10.180186 0
M  V30 21 C 10.920938 8.165147 -9.532784 0
M  V30 22 O 11.656026 8.972240 -10.097612 0
M  V30 23 C 10.990410 7.997087 -8.076145 0
M  V30 24 C 10.805829 6.937613 -7.223423 0
M  V30 25 C 11.173833 7.399814 -5.910764 0
M  V30 26 C 11.286633 6.811381 -4.631667 0
M  V30 27 C 11.722995 7.550596 -3.511199 0
M  V30 28 C 12.027506 8.918994 -3.640222 0
M  V30 29 C 11.910659 9.533307 -4.899937 0
M  V30 30 C 11.512990 8.777202 -6.009069 0
M  V30 31 N 11.399068 9.091290 -7.340555 0
M  V30 32 C 9.335920 3.164665 -14.990522 0
M  V30 33 C 8.785230 1.733791 -15.040237 0
M  V30 34 C 6.749853 0.853188 -17.197954 0
M  V30 35 H 4.960782 0.800043 -21.310356 0
M  V30 36 H 3.901461 0.184388 -20.054426 0
M  V30 37 H 4.634513 1.772877 -19.877623 0
M  V30 38 H 6.927561 0.682898 -19.804152 0
M  V30 39 H 6.168933 -0.887501 -19.885019 0
M  V30 40 H 4.128868 -1.165724 -18.051596 0
M  V30 41 H 6.479900 -0.626421 -12.134417 0
M  V30 42 H 6.471355 -1.829877 -13.429718 0
M  V30 43 H 7.503078 -0.411525 -13.531782 0
M  V30 44 H 6.669896 2.007638 -13.046934 0
M  V30 45 H 5.602739 2.658290 -14.246333 0
M  V30 46 H 6.908220 4.391296 -12.911357 0
M  V30 47 H 6.915614 4.569908 -14.645475 0
M  V30 48 H 8.482936 5.993089 -13.480017 0
M  V30 49 H 9.550523 5.685829 -14.802147 0
M  V30 50 H 10.283689 4.917062 -11.918169 0
M  V30 51 H 12.391770 5.235346 -13.047089 0
M  V30 52 H 11.753969 7.014068 -12.014642 0
M  V30 53 H 10.887363 7.504394 -13.416866 0
M  V30 54 H 9.684943 8.697363 -11.824433 0
M  V30 55 H 8.703918 7.275282 -11.793978 0
M  V30 56 H 9.363816 6.873453 -9.641831 0
M  V30 57 H 10.502997 5.932661 -7.479309 0
M  V30 58 H 11.034151 5.772721 -4.510555 0
M  V30 59 H 11.800595 7.069841 -2.546815 0
M  V30 60 H 12.347545 9.491365 -2.780261 0
M  V30 61 H 12.141994 10.572255 -5.046669 0
M  V30 62 H 11.620440 9.973538 -7.778133 0
M  V30 63 H 9.108949 3.669565 -15.930773 0
M  V30 64 H 10.421848 3.126031 -14.909700 0
M  V30 65 H 9.132034 1.170306 -14.171762 0
M  V30 66 H 9.158263 1.214108 -15.923711 0
M  V30 67 H 7.509870 1.471749 -17.650053 0
M  V30 68 H 9.055667 3.475971 -13.013339 0
M  V30 END ATOM
M  V30 BEGIN BOND
M  V30 1 1 2 1
M  V30 2 1 3 2
M  V30 3 2 4 3
M  V30 4 1 5 4
M  V30 5 1 6 5
M  V30 6 2 7 5
M  V30 7 1 8 7
M  V30 8 1 9 8
M  V30 9 1 10 7
M  V30 10 1 11 10
M  V30 11 1 12 11
M  V30 12 1 13 12
M  V30 13 1 14 13
M  V30 14 1 15 14
M  V30 15 1 16 15
M  V30 16 1 17 16
M  V30 17 1 18 16
M  V30 18 1 19 18
M  V30 19 1 20 19
M  V30 20 1 21 20
M  V30 21 2 22 21
M  V30 22 1 23 21
M  V30 23 2 24 23
M  V30 24 1 25 24
M  V30 25 2 26 25
M  V30 26 1 27 26
M  V30 27 2 28 27
M  V30 28 1 29 28
M  V30 29 1 30 25
M  V30 30 2 30 29
M  V30 31 1 31 23
M  V30 32 1 31 30
M  V30 33 1 32 14
M  V30 34 1 33 11
M  V30 35 1 33 32
M  V30 36 1 34 3
M  V30 37 2 34 10
M  V30 38 1 35 1
M  V30 39 1 36 1
M  V30 40 1 37 1
M  V30 41 1 38 2
M  V30 42 1 39 2
M  V30 43 1 40 4
M  V30 44 1 41 9
M  V30 45 1 42 9
M  V30 46 1 43 9
M  V30 47 1 44 12
M  V30 48 1 45 12
M  V30 49 1 46 13
M  V30 50 1 47 13
M  V30 51 1 48 15
M  V30 52 1 49 15
M  V30 53 1 16 50 CFG=1
M  V30 54 1 51 17
M  V30 55 1 52 18
M  V30 56 1 53 18
M  V30 57 1 54 19
M  V30 58 1 55 19
M  V30 59 1 56 20
M  V30 60 1 57 24
M  V30 61 1 58 26
M  V30 62 1 59 27
M  V30 63 1 60 28
M  V30 64 1 61 29
M  V30 65 1 62 31
M  V30 66 1 63 32
M  V30 67 1 64 32
M  V30 68 1 65 33
M  V30 69 1 66 33
M  V30 70 1 67 34
M  V30 71 1 68 14
M  V30 END BOND
M  V30 END CTAB
M  END
>  <b_m_subgroup_collapsed>  (1410) 
0

>  <r_i_docking_score>  (1410) 
-7.1639029695521899

>  <s_m_subgroup_title>  (1410) 
glide-dock_SP_D22_pv

>  <s_m_subgroupid>  (1410) 
glide-dock_SP_D22_pv

>  <Molecule ChEMBL ID>  (1410) 
CHEMBL4570554

>  <Standard Type>  (1410) 
Ki

>  <Standard Value>  (1410) 
13500.0

>  <label>  (1410) 
0

$$$$
CHEMBL908
     RDKit          3D

  0  0  0  0  0  0  0  0  0  0999 V3000
M  V30 BEGIN CTAB
M  V30 COUNTS 40 42 0 0 1
M  V30 BEGIN ATOM
M  V30 1 C 8.638083 5.694826 -8.078567 0
M  V30 2 N 8.886048 6.992327 -8.746562 0 CHG=1
M  V30 3 C 9.117052 8.077885 -7.768118 0
M  V30 4 C 9.926107 6.922930 -9.802416 0
M  V30 5 C 9.350476 6.363077 -11.111661 0
M  V30 6 C 10.362022 6.333769 -12.247544 0
M  V30 7 C 10.394594 5.519602 -13.334852 0
M  V30 8 C 11.479326 5.706026 -14.336524 0
M  V30 9 C 12.086097 6.969239 -14.559510 0
M  V30 10 C 13.108665 7.131948 -15.512353 0
M  V30 11 C 13.565486 6.026264 -16.247978 0
M  V30 12 C 12.987767 4.763961 -16.031990 0
M  V30 13 C 11.955050 4.603878 -15.087797 0
M  V30 14 S 11.284455 2.989501 -14.869003 0
M  V30 15 C 9.639723 3.334285 -14.344675 0
M  V30 16 C 8.650753 2.372255 -14.633826 0
M  V30 17 C 7.317590 2.585871 -14.246857 0
M  V30 18 C 6.976415 3.772521 -13.576613 0
M  V30 19 Cl 5.356175 4.028584 -13.046819 0
M  V30 20 C 7.959112 4.748559 -13.324162 0
M  V30 21 C 9.318690 4.538538 -13.667357 0
M  V30 22 H 9.519501 5.373061 -7.523386 0
M  V30 23 H 7.805131 5.773181 -7.378097 0
M  V30 24 H 8.379938 4.916400 -8.796325 0
M  V30 25 H 10.044725 7.921109 -7.216003 0
M  V30 26 H 9.171329 9.045644 -8.269203 0
M  V30 27 H 8.295042 8.129615 -7.051437 0
M  V30 28 H 10.776904 6.332654 -9.458082 0
M  V30 29 H 10.305258 7.926997 -10.000302 0
M  V30 30 H 8.518060 7.001116 -11.413155 0
M  V30 31 H 8.960958 5.358943 -10.947257 0
M  V30 32 H 11.151445 7.058663 -12.120798 0
M  V30 33 H 11.751299 7.845200 -14.026791 0
M  V30 34 H 13.542622 8.106914 -15.679003 0
M  V30 35 H 14.355675 6.145252 -16.974569 0
M  V30 36 H 13.343087 3.911469 -16.592886 0
M  V30 37 H 8.918116 1.460415 -15.147894 0
M  V30 38 H 6.564697 1.838473 -14.450954 0
M  V30 39 H 7.635006 5.662158 -12.855053 0
M  V30 40 H 8.009568 7.238232 -9.209586 0
M  V30 END ATOM
M  V30 BEGIN BOND
M  V30 1 1 2 1
M  V30 2 1 3 2
M  V30 3 1 4 2
M  V30 4 1 5 4
M  V30 5 1 6 5
M  V30 6 2 7 6
M  V30 7 1 8 7
M  V30 8 2 9 8
M  V30 9 1 10 9
M  V30 10 2 11 10
M  V30 11 1 12 11
M  V30 12 1 13 8
M  V30 13 2 13 12
M  V30 14 1 14 13
M  V30 15 1 15 14
M  V30 16 1 16 15
M  V30 17 2 17 16
M  V30 18 1 18 17
M  V30 19 1 19 18
M  V30 20 2 20 18
M  V30 21 1 21 7
M  V30 22 2 21 15
M  V30 23 1 21 20
M  V30 24 1 22 1
M  V30 25 1 23 1
M  V30 26 1 24 1
M  V30 27 1 25 3
M  V30 28 1 26 3
M  V30 29 1 27 3
M  V30 30 1 28 4
M  V30 31 1 29 4
M  V30 32 1 30 5
M  V30 33 1 31 5
M  V30 34 1 32 6
M  V30 35 1 33 9
M  V30 36 1 34 10
M  V30 37 1 35 11
M  V30 38 1 36 12
M  V30 39 1 37 16
M  V30 40 1 38 17
M  V30 41 1 39 20
M  V30 42 1 40 2
M  V30 END BOND
M  V30 END CTAB
M  END
>  <b_m_subgroup_collapsed>  (1411) 
0

>  <r_i_docking_score>  (1411) 
-7.16389265372867

>  <s_m_subgroup_title>  (1411) 
glide-dock_SP_D22_pv

>  <s_m_subgroupid>  (1411) 
glide-dock_SP_D22_pv

>  <Molecule ChEMBL ID>  (1411) 
CHEMBL908

>  <Standard Type>  (1411) 
Ki

>  <Standard Value>  (1411) 
2.96

>  <label>  (1411) 
1

$$$$
CHEMBL286080
     RDKit          3D

  0  0  0  0  0  0  0  0  0  0999 V3000
M  V30 BEGIN CTAB
M  V30 COUNTS 37 39 0 0 1
M  V30 BEGIN ATOM
M  V30 1 O 6.479718 -0.632608 -14.639050 0
M  V30 2 C 7.078041 0.583153 -14.499773 0
M  V30 3 C 6.316867 1.643581 -13.985682 0
M  V30 4 C 6.861882 2.938322 -13.846986 0
M  V30 5 C 8.210444 3.177979 -14.215621 0
M  V30 6 C 8.978899 2.084102 -14.705860 0
M  V30 7 C 8.422760 0.796500 -14.858622 0
M  V30 8 O 9.193736 -0.222401 -15.355606 0
M  V30 9 C 8.820155 4.587183 -14.089346 0 CFG=2
M  V30 10 C 10.171391 4.710819 -14.797248 0
M  V30 11 C 10.206120 4.971516 -16.186840 0
M  V30 12 C 11.436195 5.090739 -16.864281 0
M  V30 13 C 12.645498 4.954169 -16.156948 0
M  V30 14 C 12.620317 4.688322 -14.777073 0
M  V30 15 C 11.392700 4.560227 -14.100135 0
M  V30 16 C 8.857898 5.119700 -12.629337 0
M  V30 17 N 7.552630 5.595689 -12.116034 0 CHG=1
M  V30 18 C 6.489510 4.591361 -11.943106 0
M  V30 19 C 5.966804 4.021821 -13.267174 0
M  V30 20 H 6.998724 -1.312990 -15.047641 0
M  V30 21 H 5.288163 1.454013 -13.709545 0
M  V30 22 H 10.015574 2.207794 -14.983357 0
M  V30 23 H 8.759391 -1.060664 -15.446591 0
M  V30 24 H 8.159655 5.251153 -14.646795 0
M  V30 25 H 9.285960 5.074351 -16.744873 0
M  V30 26 H 11.454731 5.289767 -17.926750 0
M  V30 27 H 13.592059 5.046021 -16.672091 0
M  V30 28 H 13.546865 4.575706 -14.234962 0
M  V30 29 H 11.403325 4.341087 -13.046565 0
M  V30 30 H 9.287813 4.378428 -11.953506 0
M  V30 31 H 9.508927 5.991666 -12.588639 0
M  V30 32 H 7.697745 6.018764 -11.207144 0
M  V30 33 H 6.807997 3.795228 -11.265769 0
M  V30 34 H 5.667839 5.108766 -11.446865 0
M  V30 35 H 5.810381 4.808745 -14.003143 0
M  V30 36 H 4.978193 3.596693 -13.085340 0
M  V30 37 H 7.205978 6.329269 -12.715458 0
M  V30 END ATOM
M  V30 BEGIN BOND
M  V30 1 1 2 1
M  V30 2 2 3 2
M  V30 3 1 4 3
M  V30 4 2 5 4
M  V30 5 1 6 5
M  V30 6 1 7 2
M  V30 7 2 7 6
M  V30 8 1 8 7
M  V30 9 1 9 5
M  V30 10 1 10 9
M  V30 11 2 11 10
M  V30 12 1 12 11
M  V30 13 2 13 12
M  V30 14 1 14 13
M  V30 15 1 15 10
M  V30 16 2 15 14
M  V30 17 1 16 9
M  V30 18 1 17 16
M  V30 19 1 18 17
M  V30 20 1 19 4
M  V30 21 1 19 18
M  V30 22 1 20 1
M  V30 23 1 21 3
M  V30 24 1 22 6
M  V30 25 1 23 8
M  V30 26 1 9 24 CFG=3
M  V30 27 1 25 11
M  V30 28 1 26 12
M  V30 29 1 27 13
M  V30 30 1 28 14
M  V30 31 1 29 15
M  V30 32 1 30 16
M  V30 33 1 31 16
M  V30 34 1 32 17
M  V30 35 1 33 18
M  V30 36 1 34 18
M  V30 37 1 35 19
M  V30 38 1 36 19
M  V30 39 1 37 17
M  V30 END BOND
M  V30 END CTAB
M  END
>  <b_m_subgroup_collapsed>  (1412) 
0

>  <r_i_docking_score>  (1412) 
-7.1637135817037096

>  <s_m_subgroup_title>  (1412) 
glide-dock_SP_D22_pv

>  <s_m_subgroupid>  (1412) 
glide-dock_SP_D22_pv

>  <Molecule ChEMBL ID>  (1412) 
CHEMBL286080

>  <Standard Type>  (1412) 
Ki

>  <Standard Value>  (1412) 
720000.0

>  <label>  (1412) 
0

$$$$
CHEMBL2031737
     RDKit          3D

  0  0  0  0  0  0  0  0  0  0999 V3000
M  V30 BEGIN CTAB
M  V30 COUNTS 51 54 0 0 1
M  V30 BEGIN ATOM
M  V30 1 C 6.256946 3.641706 -13.494214 0
M  V30 2 C 6.920668 2.577401 -14.386187 0 CFG=2
M  V30 3 C 6.470350 1.152688 -14.034189 0
M  V30 4 C 7.713122 0.266559 -14.170472 0
M  V30 5 C 8.848376 1.206862 -14.580496 0
M  V30 6 N 8.393850 2.574353 -14.246675 0 CFG=1 CHG=1
M  V30 7 C 9.109465 3.655979 -14.969980 0
M  V30 8 C 10.375535 4.097965 -14.228499 0
M  V30 9 C 10.096370 4.899199 -12.995829 0
M  V30 10 C 10.485887 6.171454 -12.646779 0
M  V30 11 C 10.034065 6.368453 -11.298295 0
M  V30 12 C 10.142715 7.377633 -10.312550 0
M  V30 13 C 9.588960 7.197258 -9.023293 0
M  V30 14 C 9.624872 8.322947 -8.063305 0
M  V30 15 O 9.062380 9.370504 -8.359975 0
M  V30 16 C 10.386317 8.192101 -6.781863 0
M  V30 17 C 10.735422 9.362523 -6.064775 0
M  V30 18 C 11.378530 9.282587 -4.815272 0
M  V30 19 C 11.686078 8.028445 -4.245574 0
M  V30 20 N 12.270460 7.934023 -2.895652 0 CHG=1
M  V30 21 O 12.487482 8.972292 -2.282491 0
M  V30 22 O 12.485742 6.815717 -2.439914 0 CHG=-1
M  V30 23 C 11.367981 6.862467 -4.976470 0
M  V30 24 C 10.746825 6.942488 -6.234708 0
M  V30 25 C 8.886559 6.011718 -8.713083 0
M  V30 26 C 8.758149 4.996539 -9.677040 0
M  V30 27 C 9.335462 5.185520 -10.941801 0
M  V30 28 O 9.371266 4.295321 -11.999701 0
M  V30 29 H 5.170925 3.603600 -13.587403 0
M  V30 30 H 6.502989 3.492714 -12.441971 0
M  V30 31 H 6.568542 4.651450 -13.760601 0
M  V30 32 H 6.672837 2.761590 -15.431890 0
M  V30 33 H 5.660991 0.819212 -14.685579 0
M  V30 34 H 6.093321 1.102620 -13.011014 0
M  V30 35 H 7.566601 -0.524673 -14.907197 0
M  V30 36 H 7.928483 -0.222134 -13.220020 0
M  V30 37 H 9.007485 1.115266 -15.656369 0
M  V30 38 H 9.789677 0.963654 -14.090298 0
M  V30 39 H 8.484902 4.541348 -15.048353 0
M  V30 40 H 9.339503 3.341311 -15.989023 0
M  V30 41 H 10.981973 4.698552 -14.906431 0
M  V30 42 H 10.988927 3.231165 -13.973027 0
M  V30 43 H 11.069532 6.868033 -13.229259 0
M  V30 44 H 10.648631 8.299835 -10.556963 0
M  V30 45 H 10.492063 10.337975 -6.460546 0
M  V30 46 H 11.609864 10.193718 -4.283910 0
M  V30 47 H 11.586135 5.884577 -4.570877 0
M  V30 48 H 10.524345 6.017719 -6.742777 0
M  V30 49 H 8.397176 5.898588 -7.755097 0
M  V30 50 H 8.191978 4.110718 -9.446850 0
M  V30 51 H 8.576542 2.712693 -13.261752 0
M  V30 END ATOM
M  V30 BEGIN BOND
M  V30 1 1 2 1
M  V30 2 1 3 2
M  V30 3 1 4 3
M  V30 4 1 5 4
M  V30 5 1 6 2
M  V30 6 1 6 5
M  V30 7 1 7 6
M  V30 8 1 8 7
M  V30 9 1 9 8
M  V30 10 2 10 9
M  V30 11 1 11 10
M  V30 12 1 12 11
M  V30 13 2 13 12
M  V30 14 1 14 13
M  V30 15 2 15 14
M  V30 16 1 16 14
M  V30 17 1 17 16
M  V30 18 2 18 17
M  V30 19 1 19 18
M  V30 20 1 20 19
M  V30 21 2 21 20
M  V30 22 1 22 20
M  V30 23 2 23 19
M  V30 24 2 24 16
M  V30 25 1 24 23
M  V30 26 1 25 13
M  V30 27 2 26 25
M  V30 28 2 27 11
M  V30 29 1 27 26
M  V30 30 1 28 9
M  V30 31 1 28 27
M  V30 32 1 29 1
M  V30 33 1 30 1
M  V30 34 1 31 1
M  V30 35 1 2 32 CFG=3
M  V30 36 1 33 3
M  V30 37 1 34 3
M  V30 38 1 35 4
M  V30 39 1 36 4
M  V30 40 1 37 5
M  V30 41 1 38 5
M  V30 42 1 39 7
M  V30 43 1 40 7
M  V30 44 1 41 8
M  V30 45 1 42 8
M  V30 46 1 43 10
M  V30 47 1 44 12
M  V30 48 1 45 17
M  V30 49 1 46 18
M  V30 50 1 47 23
M  V30 51 1 48 24
M  V30 52 1 49 25
M  V30 53 1 50 26
M  V30 54 1 6 51 CFG=1
M  V30 END BOND
M  V30 END CTAB
M  END
>  <b_m_subgroup_collapsed>  (1413) 
0

>  <r_i_docking_score>  (1413) 
-7.1624638747609897

>  <s_m_subgroup_title>  (1413) 
glide-dock_SP_D22_pv

>  <s_m_subgroupid>  (1413) 
glide-dock_SP_D22_pv

>  <Molecule ChEMBL ID>  (1413) 
CHEMBL2031737

>  <Standard Type>  (1413) 
Ki

>  <Standard Value>  (1413) 
10000.0

>  <label>  (1413) 
0

$$$$
CHEMBL5172819
     RDKit          3D

  0  0  0  0  0  0  0  0  0  0999 V3000
M  V30 BEGIN CTAB
M  V30 COUNTS 58 61 0 0 1
M  V30 BEGIN ATOM
M  V30 1 O 10.085123 -1.132545 -17.070227 0
M  V30 2 C 10.172601 0.065956 -16.824396 0
M  V30 3 C 11.061737 0.965142 -17.695024 0
M  V30 4 C 11.702780 2.098589 -16.877504 0
M  V30 5 C 10.693516 2.776211 -15.972072 0
M  V30 6 C 10.826271 4.128896 -15.613238 0
M  V30 7 C 9.880237 4.722716 -14.757401 0
M  V30 8 C 8.793138 3.970372 -14.246086 0
M  V30 9 O 7.810913 4.479119 -13.421918 0
M  V30 10 C 7.867220 5.841928 -13.011990 0
M  V30 11 C 8.868398 6.061377 -11.868257 0
M  V30 12 C 8.440044 5.330843 -10.591538 0
M  V30 13 C 9.471344 5.373931 -9.457829 0
M  V30 14 N 9.366598 6.634900 -8.730968 0
M  V30 15 C 10.398178 7.591993 -9.130269 0
M  V30 16 C 10.164720 8.920428 -8.391335 0
M  V30 17 N 10.275002 8.674123 -6.950947 0
M  V30 18 C 11.144408 9.352053 -6.166290 0
M  V30 19 O 11.686340 10.388885 -6.545369 0
M  V30 20 C 11.472345 8.833930 -4.788184 0
M  V30 21 C 11.685943 7.456748 -4.538550 0
M  V30 22 C 12.087568 7.050600 -3.251349 0
M  V30 23 C 12.303042 8.034038 -2.269284 0
M  V30 24 C 12.085790 9.377687 -2.614773 0
M  V30 25 N 11.671199 9.769840 -3.833617 0
M  V30 26 C 9.254218 7.715015 -6.513257 0
M  V30 27 C 9.396069 6.396440 -7.290444 0
M  V30 28 C 8.680364 2.608463 -14.601612 0
M  V30 29 C 9.621038 2.011336 -15.463396 0
M  V30 30 N 9.493844 0.642486 -15.819292 0
M  V30 31 H 11.832599 0.372143 -18.188269 0
M  V30 32 H 10.434244 1.386613 -18.478949 0
M  V30 33 H 12.163671 2.830861 -17.541689 0
M  V30 34 H 12.487596 1.693529 -16.246336 0
M  V30 35 H 11.650691 4.716329 -15.989727 0
M  V30 36 H 10.019229 5.762910 -14.506847 0
M  V30 37 H 6.870610 6.124238 -12.673756 0
M  V30 38 H 8.085446 6.502849 -13.845784 0
M  V30 39 H 8.917360 7.130025 -11.666737 0
M  V30 40 H 9.869270 5.748605 -12.159882 0
M  V30 41 H 8.246781 4.285061 -10.836159 0
M  V30 42 H 7.489189 5.744205 -10.247838 0
M  V30 43 H 10.484781 5.198937 -9.814490 0
M  V30 44 H 9.234818 4.545649 -8.786993 0
M  V30 45 H 10.366226 7.762437 -10.203111 0
M  V30 46 H 11.389720 7.195465 -8.901236 0
M  V30 47 H 9.177911 9.325364 -8.626043 0
M  V30 48 H 10.890804 9.649632 -8.753602 0
M  V30 49 H 11.568658 6.716324 -5.315759 0
M  V30 50 H 12.252436 6.006025 -3.031247 0
M  V30 51 H 12.629942 7.770858 -1.276314 0
M  V30 52 H 12.224533 10.163588 -1.888368 0
M  V30 53 H 9.285525 7.498402 -5.447585 0
M  V30 54 H 8.266386 8.144230 -6.695200 0
M  V30 55 H 8.551306 5.752703 -7.040421 0
M  V30 56 H 10.309073 5.869309 -7.013989 0
M  V30 57 H 7.856055 2.027188 -14.211436 0
M  V30 58 H 8.849648 0.070599 -15.291526 0
M  V30 END ATOM
M  V30 BEGIN BOND
M  V30 1 2 2 1
M  V30 2 1 3 2
M  V30 3 1 4 3
M  V30 4 1 5 4
M  V30 5 1 6 5
M  V30 6 2 7 6
M  V30 7 1 8 7
M  V30 8 1 9 8
M  V30 9 1 10 9
M  V30 10 1 11 10
M  V30 11 1 12 11
M  V30 12 1 13 12
M  V30 13 1 14 13
M  V30 14 1 15 14
M  V30 15 1 16 15
M  V30 16 1 17 16
M  V30 17 1 18 17
M  V30 18 2 19 18
M  V30 19 1 20 18
M  V30 20 2 21 20
M  V30 21 1 22 21
M  V30 22 2 23 22
M  V30 23 1 24 23
M  V30 24 1 25 20
M  V30 25 2 25 24
M  V30 26 1 26 17
M  V30 27 1 27 14
M  V30 28 1 27 26
M  V30 29 2 28 8
M  V30 30 2 29 5
M  V30 31 1 29 28
M  V30 32 1 30 2
M  V30 33 1 30 29
M  V30 34 1 31 3
M  V30 35 1 32 3
M  V30 36 1 33 4
M  V30 37 1 34 4
M  V30 38 1 35 6
M  V30 39 1 36 7
M  V30 40 1 37 10
M  V30 41 1 38 10
M  V30 42 1 39 11
M  V30 43 1 40 11
M  V30 44 1 41 12
M  V30 45 1 42 12
M  V30 46 1 43 13
M  V30 47 1 44 13
M  V30 48 1 45 15
M  V30 49 1 46 15
M  V30 50 1 47 16
M  V30 51 1 48 16
M  V30 52 1 49 21
M  V30 53 1 50 22
M  V30 54 1 51 23
M  V30 55 1 52 24
M  V30 56 1 53 26
M  V30 57 1 54 26
M  V30 58 1 55 27
M  V30 59 1 56 27
M  V30 60 1 57 28
M  V30 61 1 58 30
M  V30 END BOND
M  V30 END CTAB
M  END
>  <b_m_subgroup_collapsed>  (1414) 
0

>  <r_i_docking_score>  (1414) 
-7.1600543495435902

>  <s_m_subgroup_title>  (1414) 
glide-dock_SP_D22_pv

>  <s_m_subgroupid>  (1414) 
glide-dock_SP_D22_pv

>  <Molecule ChEMBL ID>  (1414) 
CHEMBL5172819

>  <Standard Type>  (1414) 
Ki

>  <Standard Value>  (1414) 
9.0

>  <label>  (1414) 
1

$$$$
CHEMBL1744088
     RDKit          3D

  0  0  0  0  0  0  0  0  0  0999 V3000
M  V30 BEGIN CTAB
M  V30 COUNTS 70 73 0 0 1
M  V30 BEGIN ATOM
M  V30 1 C 5.345863 8.218458 -12.647002 0
M  V30 2 C 6.851194 7.966640 -12.646847 0
M  V30 3 C 7.177354 6.460913 -12.586582 0
M  V30 4 N 8.639664 6.169925 -12.671175 0 CFG=1 CHG=1
M  V30 5 C 9.396914 6.577281 -11.460408 0
M  V30 6 C 9.046904 5.766497 -10.192303 0
M  V30 7 C 9.880865 6.217074 -8.999326 0
M  V30 8 C 9.344463 7.516637 -8.375129 0
M  V30 9 N 10.283423 8.032061 -7.367110 0
M  V30 10 C 11.176476 8.981749 -7.726651 0
M  V30 11 O 11.286040 9.370485 -8.890121 0
M  V30 12 C 12.103649 9.621574 -6.678417 0
M  V30 13 C 11.775141 9.304142 -5.207469 0
M  V30 14 C 13.063218 9.415319 -4.392961 0
M  V30 15 C 10.734528 10.297453 -4.643929 0
M  V30 16 C 11.286226 7.853521 -5.082550 0
M  V30 17 C 10.268241 7.461849 -6.142963 0
M  V30 18 O 9.488301 6.572524 -5.848281 0
M  V30 19 C 9.066468 4.825151 -13.184991 0 CFG=2
M  V30 20 C 10.095627 4.961162 -14.317177 0
M  V30 21 C 10.722046 3.599323 -14.666697 0
M  V30 22 C 9.714349 2.459975 -14.751863 0
M  V30 23 C 10.110619 1.237201 -15.330708 0
M  V30 24 C 9.197394 0.172316 -15.427279 0
M  V30 25 C 7.887782 0.331164 -14.939831 0
M  V30 26 N 6.786482 -0.506492 -14.915123 0
M  V30 27 C 5.715283 0.155773 -14.350361 0
M  V30 28 C 4.415536 -0.368002 -14.247548 0
M  V30 29 N 3.344121 -0.793068 -14.159601 0
M  V30 30 C 6.085989 1.400340 -13.930904 0
M  V30 31 C 7.459541 1.547105 -14.331764 0
M  V30 32 C 8.397129 2.601126 -14.247510 0
M  V30 33 C 7.924870 3.899412 -13.633524 0
M  V30 34 H 5.085741 9.253534 -12.446334 0
M  V30 35 H 4.915960 7.957805 -13.610143 0
M  V30 36 H 4.886032 7.631231 -11.855967 0
M  V30 37 H 7.310892 8.526146 -11.847093 0
M  V30 38 H 7.315723 8.471110 -13.446868 0
M  V30 39 H 6.637258 6.019024 -13.415156 0
M  V30 40 H 6.740429 6.005364 -11.699265 0
M  V30 41 H 10.461884 6.475348 -11.672400 0
M  V30 42 H 9.246087 7.640412 -11.283721 0
M  V30 43 H 7.992828 5.854445 -9.931857 0
M  V30 44 H 9.228542 4.703523 -10.340137 0
M  V30 45 H 9.873203 5.425597 -8.248687 0
M  V30 46 H 10.921141 6.336415 -9.301832 0
M  V30 47 H 9.127770 8.264563 -9.138986 0
M  V30 48 H 8.371487 7.325385 -7.923679 0
M  V30 49 H 13.118712 9.314750 -6.931903 0
M  V30 50 H 12.081057 10.703686 -6.794162 0
M  V30 51 H 12.884378 9.402838 -3.316888 0
M  V30 52 H 13.686065 8.572316 -4.641899 0
M  V30 53 H 13.677929 10.272025 -4.646962 0
M  V30 54 H 10.620652 10.175165 -3.566983 0
M  V30 55 H 11.027481 11.330691 -4.825163 0
M  V30 56 H 9.746901 10.172383 -5.075822 0
M  V30 57 H 12.086003 7.128937 -5.194551 0
M  V30 58 H 10.886041 7.670430 -4.089185 0
M  V30 59 H 9.578687 4.289339 -12.387478 0
M  V30 60 H 9.602403 5.369513 -15.200181 0
M  V30 61 H 10.886982 5.662834 -14.051587 0
M  V30 62 H 11.452653 3.329657 -13.903279 0
M  V30 63 H 11.270692 3.674216 -15.606196 0
M  V30 64 H 11.116657 1.115586 -15.707118 0
M  V30 65 H 9.498609 -0.760168 -15.879100 0
M  V30 66 H 6.764432 -1.460730 -15.265725 0
M  V30 67 H 5.468673 2.145542 -13.450329 0
M  V30 68 H 7.327091 4.359200 -14.414672 0
M  V30 69 H 7.266263 3.686751 -12.790251 0
M  V30 70 H 8.952844 6.803586 -13.391274 0
M  V30 END ATOM
M  V30 BEGIN BOND
M  V30 1 1 2 1
M  V30 2 1 3 2
M  V30 3 1 4 3
M  V30 4 1 5 4
M  V30 5 1 6 5
M  V30 6 1 7 6
M  V30 7 1 8 7
M  V30 8 1 9 8
M  V30 9 1 10 9
M  V30 10 2 11 10
M  V30 11 1 12 10
M  V30 12 1 13 12
M  V30 13 1 14 13
M  V30 14 1 15 13
M  V30 15 1 16 13
M  V30 16 1 17 9
M  V30 17 1 17 16
M  V30 18 2 18 17
M  V30 19 1 19 4
M  V30 20 1 20 19
M  V30 21 1 21 20
M  V30 22 1 22 21
M  V30 23 1 23 22
M  V30 24 2 24 23
M  V30 25 1 25 24
M  V30 26 1 26 25
M  V30 27 1 27 26
M  V30 28 1 28 27
M  V30 29 3 29 28
M  V30 30 2 30 27
M  V30 31 2 31 25
M  V30 32 1 31 30
M  V30 33 2 32 22
M  V30 34 1 32 31
M  V30 35 1 33 19
M  V30 36 1 33 32
M  V30 37 1 34 1
M  V30 38 1 35 1
M  V30 39 1 36 1
M  V30 40 1 37 2
M  V30 41 1 38 2
M  V30 42 1 39 3
M  V30 43 1 40 3
M  V30 44 1 41 5
M  V30 45 1 42 5
M  V30 46 1 43 6
M  V30 47 1 44 6
M  V30 48 1 45 7
M  V30 49 1 46 7
M  V30 50 1 47 8
M  V30 51 1 48 8
M  V30 52 1 49 12
M  V30 53 1 50 12
M  V30 54 1 51 14
M  V30 55 1 52 14
M  V30 56 1 53 14
M  V30 57 1 54 15
M  V30 58 1 55 15
M  V30 59 1 56 15
M  V30 60 1 57 16
M  V30 61 1 58 16
M  V30 62 1 19 59 CFG=1
M  V30 63 1 60 20
M  V30 64 1 61 20
M  V30 65 1 62 21
M  V30 66 1 63 21
M  V30 67 1 64 23
M  V30 68 1 65 24
M  V30 69 1 66 26
M  V30 70 1 67 30
M  V30 71 1 68 33
M  V30 72 1 69 33
M  V30 73 1 4 70 CFG=3
M  V30 END BOND
M  V30 END CTAB
M  END
>  <b_m_subgroup_collapsed>  (1415) 
0

>  <r_i_docking_score>  (1415) 
-7.15865548012796

>  <s_m_subgroup_title>  (1415) 
glide-dock_SP_D22_pv

>  <s_m_subgroupid>  (1415) 
glide-dock_SP_D22_pv

>  <Molecule ChEMBL ID>  (1415) 
CHEMBL1744088

>  <Standard Type>  (1415) 
Ki

>  <Standard Value>  (1415) 
44.0

>  <label>  (1415) 
1

$$$$
CHEMBL5859405
     RDKit          3D

  0  0  0  0  0  0  0  0  0  0999 V3000
M  V30 BEGIN CTAB
M  V30 COUNTS 70 73 0 0 1
M  V30 BEGIN ATOM
M  V30 1 C 12.605766 8.487741 -1.511031 0
M  V30 2 C 11.891826 7.320133 -2.219881 0
M  V30 3 C 12.007247 7.317103 -3.756082 0
M  V30 4 F 11.508389 6.175521 -4.226425 0
M  V30 5 F 13.296049 7.372135 -4.016640 0
M  V30 6 C 11.419513 8.484147 -4.495723 0
M  V30 7 C 11.338927 9.776515 -4.065539 0
M  V30 8 O 10.795581 10.572951 -5.002385 0
M  V30 9 N 10.486228 9.774768 -6.097112 0
M  V30 10 C 10.869307 8.550573 -5.814991 0
M  V30 11 C 10.599886 7.495812 -6.864056 0 CFG=1
M  V30 12 C 9.127324 7.058073 -6.852784 0
M  V30 13 C 8.832456 6.017898 -7.946098 0
M  V30 14 N 9.199934 6.478438 -9.314220 0 CFG=2 CHG=1
M  V30 15 C 8.945415 5.386806 -10.302715 0
M  V30 16 C 9.439302 5.668258 -11.741631 0
M  V30 17 C 9.364685 4.442502 -12.676451 0 CFG=1
M  V30 18 C 7.972947 4.299067 -13.326601 0
M  V30 19 C 7.918087 3.134628 -14.331278 0
M  V30 20 C 9.029344 3.250180 -15.387259 0 CFG=2
M  V30 21 N 8.950939 2.113193 -16.292679 0
M  V30 22 C 8.812191 2.187894 -17.624140 0
M  V30 23 O 8.885239 3.239275 -18.257948 0
M  V30 24 C 8.513548 0.879769 -18.351061 0
M  V30 25 C 7.068245 0.558518 -18.135376 0
M  V30 26 N 6.117613 0.838085 -19.034325 0
M  V30 27 N 4.873532 0.361423 -18.643291 0
M  V30 28 C 4.910444 -0.250805 -17.453516 0
M  V30 29 C 3.717948 -0.877198 -16.810938 0
M  V30 30 S 6.481451 -0.230152 -16.675482 0
M  V30 31 C 10.406968 3.317048 -14.716592 0
M  V30 32 C 10.466686 4.512773 -13.757659 0
M  V30 33 C 10.595324 7.002753 -9.370823 0
M  V30 34 C 10.928617 8.016462 -8.276282 0
M  V30 35 H 13.165372 8.136191 -0.648035 0
M  V30 36 H 13.329650 8.983914 -2.156931 0
M  V30 37 H 11.898746 9.240893 -1.164757 0
M  V30 38 H 10.852297 7.278391 -1.904111 0
M  V30 39 H 12.337021 6.390689 -1.863292 0
M  V30 40 H 11.623908 10.288745 -3.160106 0
M  V30 41 H 11.230597 6.627544 -6.668247 0
M  V30 42 H 8.890438 6.632901 -5.878576 0
M  V30 43 H 8.469741 7.919978 -6.985313 0
M  V30 44 H 9.379841 5.102319 -7.720737 0
M  V30 45 H 7.773492 5.763409 -7.922874 0
M  V30 46 H 9.439116 4.481003 -9.945629 0
M  V30 47 H 7.875852 5.170401 -10.320386 0
M  V30 48 H 8.907502 6.518914 -12.172338 0
M  V30 49 H 10.485514 5.956118 -11.718233 0
M  V30 50 H 9.561249 3.543867 -12.089407 0
M  V30 51 H 7.211792 4.153446 -12.558274 0
M  V30 52 H 7.714747 5.222929 -13.844207 0
M  V30 53 H 6.938204 3.112334 -14.810816 0
M  V30 54 H 8.017160 2.180836 -13.814446 0
M  V30 55 H 8.886367 4.181310 -15.938420 0
M  V30 56 H 8.899804 1.200844 -15.865839 0
M  V30 57 H 8.718204 0.978768 -19.417229 0
M  V30 58 H 9.134023 0.069920 -17.967865 0
M  V30 59 H 3.396084 -0.265356 -15.967139 0
M  V30 60 H 2.892906 -0.958738 -17.520803 0
M  V30 61 H 3.958797 -1.878425 -16.453995 0
M  V30 62 H 11.186952 3.411495 -15.473359 0
M  V30 63 H 10.608252 2.394169 -14.170531 0
M  V30 64 H 10.363542 5.435849 -14.328980 0
M  V30 65 H 11.454062 4.545048 -13.293980 0
M  V30 66 H 11.285526 6.170107 -9.307633 0
M  V30 67 H 10.773831 7.506252 -10.320045 0
M  V30 68 H 10.361093 8.922897 -8.493080 0
M  V30 69 H 11.983013 8.291746 -8.335776 0
M  V30 70 H 8.569058 7.239907 -9.544421 0
M  V30 END ATOM
M  V30 BEGIN BOND
M  V30 1 1 2 1
M  V30 2 1 3 2
M  V30 3 1 4 3
M  V30 4 1 5 3
M  V30 5 1 6 3
M  V30 6 2 7 6
M  V30 7 1 8 7
M  V30 8 1 9 8
M  V30 9 1 10 6
M  V30 10 2 10 9
M  V30 11 1 11 10
M  V30 12 1 12 11
M  V30 13 1 13 12
M  V30 14 1 14 13
M  V30 15 1 15 14
M  V30 16 1 16 15
M  V30 17 1 17 16
M  V30 18 1 18 17
M  V30 19 1 19 18
M  V30 20 1 20 19
M  V30 21 1 21 20
M  V30 22 1 22 21
M  V30 23 2 23 22
M  V30 24 1 24 22
M  V30 25 1 25 24
M  V30 26 2 26 25
M  V30 27 1 27 26
M  V30 28 2 28 27
M  V30 29 1 29 28
M  V30 30 1 30 25
M  V30 31 1 30 28
M  V30 32 1 31 20
M  V30 33 1 32 17
M  V30 34 1 32 31
M  V30 35 1 33 14
M  V30 36 1 34 11
M  V30 37 1 34 33
M  V30 38 1 35 1
M  V30 39 1 36 1
M  V30 40 1 37 1
M  V30 41 1 38 2
M  V30 42 1 39 2
M  V30 43 1 40 7
M  V30 44 1 11 41 CFG=1
M  V30 45 1 42 12
M  V30 46 1 43 12
M  V30 47 1 44 13
M  V30 48 1 45 13
M  V30 49 1 46 15
M  V30 50 1 47 15
M  V30 51 1 48 16
M  V30 52 1 49 16
M  V30 53 1 17 50 CFG=1
M  V30 54 1 51 18
M  V30 55 1 52 18
M  V30 56 1 53 19
M  V30 57 1 54 19
M  V30 58 1 20 55 CFG=3
M  V30 59 1 56 21
M  V30 60 1 57 24
M  V30 61 1 58 24
M  V30 62 1 59 29
M  V30 63 1 60 29
M  V30 64 1 61 29
M  V30 65 1 62 31
M  V30 66 1 63 31
M  V30 67 1 64 32
M  V30 68 1 65 32
M  V30 69 1 66 33
M  V30 70 1 67 33
M  V30 71 1 68 34
M  V30 72 1 69 34
M  V30 73 1 14 70 CFG=3
M  V30 END BOND
M  V30 END CTAB
M  END
>  <b_m_subgroup_collapsed>  (1416) 
0

>  <r_i_docking_score>  (1416) 
-7.1584325103852198

>  <s_m_subgroup_title>  (1416) 
glide-dock_SP_D22_pv

>  <s_m_subgroupid>  (1416) 
glide-dock_SP_D22_pv

>  <Molecule ChEMBL ID>  (1416) 
CHEMBL5859405

>  <Standard Type>  (1416) 
Ki

>  <Standard Value>  (1416) 
67.0

>  <label>  (1416) 
1

$$$$
CHEMBL253319
     RDKit          3D

  0  0  0  0  0  0  0  0  0  0999 V3000
M  V30 BEGIN CTAB
M  V30 COUNTS 38 42 0 0 1
M  V30 BEGIN ATOM
M  V30 1 C 10.281588 6.338773 -12.670454 0
M  V30 2 N 8.952410 5.777420 -13.010960 0 CFG=2 CHG=1
M  V30 3 C 8.035231 5.942020 -11.865252 0
M  V30 4 C 6.610685 5.638411 -12.298770 0
M  V30 5 C 6.468993 4.244090 -12.873952 0
M  V30 6 C 5.349723 3.411840 -12.775964 0
M  V30 7 C 5.375431 2.107972 -13.309511 0
M  V30 8 C 6.486094 1.599418 -14.030418 0
M  V30 9 C 6.499958 0.171481 -14.502059 0
M  V30 10 O 5.552045 -0.583070 -14.285811 0
M  V30 11 N 7.610312 -0.227427 -15.128891 0
M  V30 12 C 8.705495 0.616076 -15.410484 0
M  V30 13 C 9.800254 0.122454 -16.150305 0
M  V30 14 C 10.885633 0.947998 -16.494303 0
M  V30 15 C 10.894944 2.299723 -16.107059 0
M  V30 16 C 9.824099 2.825681 -15.358994 0
M  V30 17 C 8.752168 1.974137 -15.005163 0
M  V30 18 C 7.597086 2.471405 -14.201169 0
M  V30 19 C 7.585473 3.736311 -13.563293 0
M  V30 20 C 8.981992 4.375159 -13.525636 0 CFG=1
M  V30 21 C 9.699480 4.256974 -14.879459 0
M  V30 22 H 10.717652 5.778477 -11.847924 0
M  V30 23 H 10.191291 7.377027 -12.350348 0
M  V30 24 H 10.977013 6.330324 -13.507724 0
M  V30 25 H 8.331300 5.280682 -11.047701 0
M  V30 26 H 8.086067 6.962630 -11.480073 0
M  V30 27 H 5.940255 5.747963 -11.446126 0
M  V30 28 H 6.276292 6.359760 -13.042753 0
M  V30 29 H 4.486213 3.769973 -12.250007 0
M  V30 30 H 4.505024 1.482795 -13.165752 0
M  V30 31 H 7.681961 -1.202733 -15.414976 0
M  V30 32 H 9.807527 -0.908678 -16.471828 0
M  V30 33 H 11.712735 0.544727 -17.060011 0
M  V30 34 H 11.728506 2.928799 -16.384216 0
M  V30 35 H 9.550544 3.790540 -12.795128 0
M  V30 36 H 10.711380 4.655663 -14.830673 0
M  V30 37 H 9.175536 4.831192 -15.644279 0
M  V30 38 H 8.572871 6.347441 -13.753984 0
M  V30 END ATOM
M  V30 BEGIN BOND
M  V30 1 1 2 1
M  V30 2 1 3 2
M  V30 3 1 4 3
M  V30 4 1 5 4
M  V30 5 2 6 5
M  V30 6 1 7 6
M  V30 7 2 8 7
M  V30 8 1 9 8
M  V30 9 2 10 9
M  V30 10 1 11 9
M  V30 11 1 12 11
M  V30 12 2 13 12
M  V30 13 1 14 13
M  V30 14 2 15 14
M  V30 15 1 16 15
M  V30 16 1 17 12
M  V30 17 2 17 16
M  V30 18 1 18 8
M  V30 19 1 18 17
M  V30 20 1 19 5
M  V30 21 2 19 18
M  V30 22 1 20 2
M  V30 23 1 20 19
M  V30 24 1 21 16
M  V30 25 1 21 20
M  V30 26 1 22 1
M  V30 27 1 23 1
M  V30 28 1 24 1
M  V30 29 1 25 3
M  V30 30 1 26 3
M  V30 31 1 27 4
M  V30 32 1 28 4
M  V30 33 1 29 6
M  V30 34 1 30 7
M  V30 35 1 31 11
M  V30 36 1 32 13
M  V30 37 1 33 14
M  V30 38 1 34 15
M  V30 39 1 20 35 CFG=1
M  V30 40 1 36 21
M  V30 41 1 37 21
M  V30 42 1 2 38 CFG=3
M  V30 END BOND
M  V30 END CTAB
M  END
>  <b_m_subgroup_collapsed>  (1417) 
0

>  <r_i_docking_score>  (1417) 
-7.1582152153156802

>  <s_m_subgroup_title>  (1417) 
glide-dock_SP_D22_pv

>  <s_m_subgroupid>  (1417) 
glide-dock_SP_D22_pv

>  <Molecule ChEMBL ID>  (1417) 
CHEMBL253319

>  <Standard Type>  (1417) 
Ki

>  <Standard Value>  (1417) 
54.6

>  <label>  (1417) 
1

$$$$
CHEMBL4228054
     RDKit          3D

  0  0  0  0  0  0  0  0  0  0999 V3000
M  V30 BEGIN CTAB
M  V30 COUNTS 41 42 0 0 1
M  V30 BEGIN ATOM
M  V30 1 C 5.440296 4.450347 -13.578381 0
M  V30 2 C 6.926010 4.394046 -13.220721 0
M  V30 3 C 7.199081 4.715244 -11.746297 0
M  V30 4 C 8.699343 4.721066 -11.442742 0
M  V30 5 C 9.046688 4.863843 -9.949279 0
M  V30 6 N 8.885208 6.233972 -9.395812 0 CFG=2 CHG=1
M  V30 7 C 9.589909 7.312071 -10.131034 0
M  V30 8 C 10.174964 8.271112 -9.089932 0
M  V30 9 C 9.629753 7.802168 -7.734173 0 CFG=2
M  V30 10 C 10.555487 8.093825 -6.550530 0
M  V30 11 C 11.224339 9.334756 -6.499345 0
M  V30 12 C 12.085855 9.640078 -5.433871 0
M  V30 13 C 12.268627 8.728694 -4.379992 0
M  V30 14 C 11.637866 7.472435 -4.431890 0
M  V30 15 O 11.850272 6.574965 -3.428132 0
M  V30 16 C 10.781030 7.158055 -5.509531 0
M  V30 17 C 9.313872 6.325000 -7.984048 0
M  V30 18 H 5.286474 4.175443 -14.620793 0
M  V30 19 H 4.858648 3.767432 -12.960906 0
M  V30 20 H 5.042671 5.455564 -13.444053 0
M  V30 21 H 7.471016 5.095424 -13.851491 0
M  V30 22 H 7.313832 3.399834 -13.452555 0
M  V30 23 H 6.703779 3.970146 -11.124218 0
M  V30 24 H 6.763490 5.681380 -11.486746 0
M  V30 25 H 9.197475 5.478075 -12.050283 0
M  V30 26 H 9.111762 3.771409 -11.784299 0
M  V30 27 H 10.082144 4.556468 -9.812820 0
M  V30 28 H 8.441776 4.171864 -9.360102 0
M  V30 29 H 8.884504 7.822773 -10.787311 0
M  V30 30 H 10.395471 6.918260 -10.750801 0
M  V30 31 H 9.917687 9.313523 -9.297869 0
M  V30 32 H 11.265252 8.187638 -9.112528 0
M  V30 33 H 8.684330 8.318863 -7.547293 0
M  V30 34 H 11.097270 10.061588 -7.287622 0
M  V30 35 H 12.620336 10.570536 -5.445920 0
M  V30 36 H 12.920031 8.980949 -3.558411 0
M  V30 37 H 11.378668 5.758862 -3.531368 0
M  V30 38 H 10.289493 6.197091 -5.520336 0
M  V30 39 H 10.219034 5.728962 -7.851788 0
M  V30 40 H 8.550766 5.940832 -7.308606 0
M  V30 41 H 7.899628 6.486705 -9.427363 0
M  V30 END ATOM
M  V30 BEGIN BOND
M  V30 1 1 2 1
M  V30 2 1 3 2
M  V30 3 1 4 3
M  V30 4 1 5 4
M  V30 5 1 6 5
M  V30 6 1 7 6
M  V30 7 1 8 7
M  V30 8 1 9 8
M  V30 9 1 10 9
M  V30 10 2 11 10
M  V30 11 1 12 11
M  V30 12 2 13 12
M  V30 13 1 14 13
M  V30 14 1 15 14
M  V30 15 1 16 10
M  V30 16 2 16 14
M  V30 17 1 17 6
M  V30 18 1 17 9
M  V30 19 1 18 1
M  V30 20 1 19 1
M  V30 21 1 20 1
M  V30 22 1 21 2
M  V30 23 1 22 2
M  V30 24 1 23 3
M  V30 25 1 24 3
M  V30 26 1 25 4
M  V30 27 1 26 4
M  V30 28 1 27 5
M  V30 29 1 28 5
M  V30 30 1 29 7
M  V30 31 1 30 7
M  V30 32 1 31 8
M  V30 33 1 32 8
M  V30 34 1 9 33 CFG=1
M  V30 35 1 34 11
M  V30 36 1 35 12
M  V30 37 1 36 13
M  V30 38 1 37 15
M  V30 39 1 38 16
M  V30 40 1 39 17
M  V30 41 1 40 17
M  V30 42 1 6 41 CFG=1
M  V30 END BOND
M  V30 END CTAB
M  END
>  <b_m_subgroup_collapsed>  (1418) 
0

>  <r_i_docking_score>  (1418) 
-7.15771720804032

>  <s_m_subgroup_title>  (1418) 
glide-dock_SP_D22_pv

>  <s_m_subgroupid>  (1418) 
glide-dock_SP_D22_pv

>  <Molecule ChEMBL ID>  (1418) 
CHEMBL4228054

>  <Standard Type>  (1418) 
Ki

>  <Standard Value>  (1418) 
10000.0

>  <label>  (1418) 
0

$$$$
CHEMBL1082211
     RDKit          3D

  0  0  0  0  0  0  0  0  0  0999 V3000
M  V30 BEGIN CTAB
M  V30 COUNTS 57 61 0 0 1
M  V30 BEGIN ATOM
M  V30 1 C 9.686384 4.393366 -17.166693 0
M  V30 2 C 10.842114 3.489501 -16.712282 0 CFG=1
M  V30 3 C 12.002378 4.270189 -16.061174 0
M  V30 4 N 11.596860 4.790930 -14.747731 0
M  V30 5 C 11.686604 6.109428 -14.442259 0
M  V30 6 O 12.086226 6.947667 -15.252676 0
M  V30 7 C 11.378063 6.578221 -13.046112 0
M  V30 8 C 12.333503 7.372386 -12.392846 0
M  V30 9 C 12.100628 7.864372 -11.098612 0
M  V30 10 C 10.908098 7.579014 -10.396844 0
M  V30 11 C 10.724216 8.064733 -9.003867 0
M  V30 12 C 9.447112 8.113958 -8.395021 0
M  V30 13 C 9.286253 8.551659 -7.067605 0
M  V30 14 C 10.399584 8.972831 -6.319730 0
M  V30 15 C 11.673277 8.953486 -6.905417 0
M  V30 16 C 11.831712 8.490209 -8.224625 0
M  V30 17 C 9.927230 6.813802 -11.080228 0
M  V30 18 C 10.148479 6.332661 -12.390604 0
M  V30 19 C 11.218867 3.693273 -13.851044 0
M  V30 20 C 10.032916 2.921854 -14.453408 0
M  V30 21 N 10.384245 2.416114 -15.796217 0
M  V30 22 C 10.284922 1.091947 -16.098543 0
M  V30 23 O 9.839000 0.251725 -15.314838 0
M  V30 24 C 10.733469 0.620239 -17.452637 0
M  V30 25 C 9.807503 0.012980 -18.329802 0
M  V30 26 C 10.210773 -0.428249 -19.607277 0
M  V30 27 C 11.552353 -0.295017 -20.037601 0
M  V30 28 C 12.268494 -0.627501 -21.239027 0
M  V30 29 C 13.580097 -0.280361 -21.029060 0
M  V30 30 N 13.701735 0.261306 -19.761450 0
M  V30 31 C 12.479528 0.277659 -19.118412 0
M  V30 32 C 12.085597 0.726964 -17.846752 0
M  V30 33 H 10.028013 5.113799 -17.910347 0
M  V30 34 H 8.884394 3.808063 -17.618559 0
M  V30 35 H 9.266360 4.966421 -16.340677 0
M  V30 36 H 11.244567 3.088597 -17.637520 0
M  V30 37 H 12.337280 5.049773 -16.747522 0
M  V30 38 H 12.865751 3.614076 -15.928006 0
M  V30 39 H 13.263144 7.616065 -12.889118 0
M  V30 40 H 12.871826 8.484666 -10.670628 0
M  V30 41 H 8.558147 7.818261 -8.933706 0
M  V30 42 H 8.297274 8.571117 -6.630204 0
M  V30 43 H 10.276903 9.321310 -5.305789 0
M  V30 44 H 12.533744 9.283767 -6.341956 0
M  V30 45 H 12.837827 8.468260 -8.611753 0
M  V30 46 H 8.986426 6.574846 -10.607086 0
M  V30 47 H 9.371772 5.765376 -12.881231 0
M  V30 48 H 12.073826 3.022767 -13.776993 0
M  V30 49 H 10.977041 3.999554 -12.837386 0
M  V30 50 H 9.753530 2.123852 -13.765063 0
M  V30 51 H 9.154509 3.563872 -14.522067 0
M  V30 52 H 8.775622 -0.104376 -18.026255 0
M  V30 53 H 9.485219 -0.877424 -20.269974 0
M  V30 54 H 11.848879 -1.076264 -22.128204 0
M  V30 55 H 14.436845 -0.378505 -21.681911 0
M  V30 56 H 14.577766 0.592847 -19.381792 0
M  V30 57 H 12.817992 1.157281 -17.176626 0
M  V30 END ATOM
M  V30 BEGIN BOND
M  V30 1 1 2 1
M  V30 2 1 3 2
M  V30 3 1 4 3
M  V30 4 1 5 4
M  V30 5 2 6 5
M  V30 6 1 7 5
M  V30 7 1 8 7
M  V30 8 2 9 8
M  V30 9 1 10 9
M  V30 10 1 11 10
M  V30 11 2 12 11
M  V30 12 1 13 12
M  V30 13 2 14 13
M  V30 14 1 15 14
M  V30 15 1 16 11
M  V30 16 2 16 15
M  V30 17 2 17 10
M  V30 18 2 18 7
M  V30 19 1 18 17
M  V30 20 1 19 4
M  V30 21 1 20 19
M  V30 22 1 21 2
M  V30 23 1 21 20
M  V30 24 1 22 21
M  V30 25 2 23 22
M  V30 26 1 24 22
M  V30 27 2 25 24
M  V30 28 1 26 25
M  V30 29 2 27 26
M  V30 30 1 28 27
M  V30 31 2 29 28
M  V30 32 1 30 29
M  V30 33 1 31 27
M  V30 34 1 31 30
M  V30 35 1 32 24
M  V30 36 2 32 31
M  V30 37 1 33 1
M  V30 38 1 34 1
M  V30 39 1 35 1
M  V30 40 1 2 36 CFG=3
M  V30 41 1 37 3
M  V30 42 1 38 3
M  V30 43 1 39 8
M  V30 44 1 40 9
M  V30 45 1 41 12
M  V30 46 1 42 13
M  V30 47 1 43 14
M  V30 48 1 44 15
M  V30 49 1 45 16
M  V30 50 1 46 17
M  V30 51 1 47 18
M  V30 52 1 48 19
M  V30 53 1 49 19
M  V30 54 1 50 20
M  V30 55 1 51 20
M  V30 56 1 52 25
M  V30 57 1 53 26
M  V30 58 1 54 28
M  V30 59 1 55 29
M  V30 60 1 56 30
M  V30 61 1 57 32
M  V30 END BOND
M  V30 END CTAB
M  END
>  <b_m_subgroup_collapsed>  (1419) 
0

>  <r_i_docking_score>  (1419) 
-7.1572201583325503

>  <s_m_subgroup_title>  (1419) 
glide-dock_SP_D22_pv

>  <s_m_subgroupid>  (1419) 
glide-dock_SP_D22_pv

>  <Molecule ChEMBL ID>  (1419) 
CHEMBL1082211

>  <Standard Type>  (1419) 
Ki

>  <Standard Value>  (1419) 
10000.0

>  <label>  (1419) 
0

$$$$
CHEMBL1713
     RDKit          3D

  0  0  0  0  0  0  0  0  0  0999 V3000
M  V30 BEGIN CTAB
M  V30 COUNTS 41 43 0 0 1
M  V30 BEGIN ATOM
M  V30 1 C 8.685539 5.016986 -8.825172 0
M  V30 2 N 8.486032 6.171984 -9.727201 0 CHG=1
M  V30 3 C 9.303899 7.334811 -9.316070 0
M  V30 4 C 8.639264 5.842957 -11.164724 0
M  V30 5 C 7.416126 5.107917 -11.754555 0
M  V30 6 C 7.404193 5.003314 -13.302092 0
M  V30 7 N 8.129393 3.837296 -13.850600 0
M  V30 8 C 7.378533 2.632950 -13.975169 0
M  V30 9 C 6.083483 2.490711 -13.396846 0
M  V30 10 C 5.359426 1.285057 -13.462227 0
M  V30 11 C 5.899315 0.177233 -14.130393 0
M  V30 12 C 7.168075 0.285217 -14.716363 0
M  V30 13 C 7.900555 1.488528 -14.641380 0
M  V30 14 S 9.487722 1.460876 -15.388995 0
M  V30 15 C 10.184822 3.021010 -14.992481 0
M  V30 16 C 11.510036 3.229189 -15.426689 0
M  V30 17 C 12.171329 4.440214 -15.176623 0
M  V30 18 C 11.494689 5.453542 -14.485559 0
M  V30 19 Cl 12.272488 6.962616 -14.174714 0
M  V30 20 C 10.173399 5.243918 -14.051260 0
M  V30 21 C 9.471674 4.029076 -14.287276 0
M  V30 22 H 9.730137 4.700279 -8.817003 0
M  V30 23 H 8.396716 5.279333 -7.806628 0
M  V30 24 H 8.085695 4.163297 -9.128720 0
M  V30 25 H 10.369224 7.131430 -9.437833 0
M  V30 26 H 9.049375 8.214807 -9.908844 0
M  V30 27 H 9.116103 7.584695 -8.270598 0
M  V30 28 H 9.555832 5.270721 -11.318044 0
M  V30 29 H 8.749476 6.782994 -11.706429 0
M  V30 30 H 6.527648 5.669079 -11.458316 0
M  V30 31 H 7.300994 4.121260 -11.306004 0
M  V30 32 H 7.718418 5.941215 -13.748561 0
M  V30 33 H 6.373025 4.973245 -13.649344 0
M  V30 34 H 5.605154 3.282512 -12.842065 0
M  V30 35 H 4.376535 1.220697 -13.024104 0
M  V30 36 H 5.344893 -0.748051 -14.201333 0
M  V30 37 H 7.585542 -0.572534 -15.225634 0
M  V30 38 H 12.029311 2.447032 -15.961041 0
M  V30 39 H 13.186002 4.589050 -15.513910 0
M  V30 40 H 9.726813 6.076310 -13.540926 0
M  V30 41 H 7.524894 6.503595 -9.630479 0
M  V30 END ATOM
M  V30 BEGIN BOND
M  V30 1 1 2 1
M  V30 2 1 3 2
M  V30 3 1 4 2
M  V30 4 1 5 4
M  V30 5 1 6 5
M  V30 6 1 7 6
M  V30 7 1 8 7
M  V30 8 2 9 8
M  V30 9 1 10 9
M  V30 10 2 11 10
M  V30 11 1 12 11
M  V30 12 1 13 8
M  V30 13 2 13 12
M  V30 14 1 14 13
M  V30 15 1 15 14
M  V30 16 1 16 15
M  V30 17 2 17 16
M  V30 18 1 18 17
M  V30 19 1 19 18
M  V30 20 2 20 18
M  V30 21 1 21 7
M  V30 22 2 21 15
M  V30 23 1 21 20
M  V30 24 1 22 1
M  V30 25 1 23 1
M  V30 26 1 24 1
M  V30 27 1 25 3
M  V30 28 1 26 3
M  V30 29 1 27 3
M  V30 30 1 28 4
M  V30 31 1 29 4
M  V30 32 1 30 5
M  V30 33 1 31 5
M  V30 34 1 32 6
M  V30 35 1 33 6
M  V30 36 1 34 9
M  V30 37 1 35 10
M  V30 38 1 36 11
M  V30 39 1 37 12
M  V30 40 1 38 16
M  V30 41 1 39 17
M  V30 42 1 40 20
M  V30 43 1 41 2
M  V30 END BOND
M  V30 END CTAB
M  END
>  <b_m_subgroup_collapsed>  (1420) 
0

>  <r_i_docking_score>  (1420) 
-7.1552955792676602

>  <s_m_subgroup_title>  (1420) 
glide-dock_SP_D22_pv

>  <s_m_subgroupid>  (1420) 
glide-dock_SP_D22_pv

>  <Molecule ChEMBL ID>  (1420) 
CHEMBL1713

>  <Standard Type>  (1420) 
Ki

>  <Standard Value>  (1420) 
3.0

>  <label>  (1420) 
1

$$$$
CHEMBL5817624
     RDKit          3D

  0  0  0  0  0  0  0  0  0  0999 V3000
M  V30 BEGIN CTAB
M  V30 COUNTS 55 58 0 0 1
M  V30 BEGIN ATOM
M  V30 1 C 12.392550 7.101346 -2.696527 0
M  V30 2 C 11.816689 7.953196 -3.805541 0
M  V30 3 C 11.689086 9.349262 -3.661704 0
M  V30 4 C 11.156655 10.080962 -4.737043 0
M  V30 5 C 10.775405 9.398477 -5.902494 0
M  V30 6 C 10.922796 7.998213 -5.948162 0
M  V30 7 C 10.483341 7.183090 -7.153171 0 CFG=1
M  V30 8 C 9.043723 6.680584 -7.006629 0
M  V30 9 C 8.707314 5.722846 -8.157632 0
M  V30 10 N 8.872679 6.365945 -9.490505 0 CFG=2 CHG=1
M  V30 11 C 8.560530 5.410408 -10.582364 0
M  V30 12 C 8.234615 6.103283 -11.921442 0
M  V30 13 N 8.236252 5.142146 -13.019149 0
M  V30 14 C 9.362459 4.633128 -13.546626 0
M  V30 15 O 10.478697 4.966306 -13.149236 0
M  V30 16 C 9.205112 3.569110 -14.642819 0 CFG=2
M  V30 17 C 10.040094 2.304052 -14.393159 0
M  V30 18 C 10.857013 2.194303 -15.685190 0 CFG=2
M  V30 19 C 11.954319 3.266117 -15.771372 0
M  V30 20 C 11.147680 4.510283 -16.128662 0
M  V30 21 C 9.705438 3.983284 -16.048914 0 CFG=1
M  V30 22 O 9.914202 2.699013 -16.613598 0
M  V30 23 C 10.213230 6.984090 -9.660128 0
M  V30 24 C 10.594765 7.918894 -8.501510 0
M  V30 25 N 11.426124 7.289120 -4.914509 0
M  V30 26 H 12.672729 7.711316 -1.835867 0
M  V30 27 H 11.662642 6.359231 -2.370591 0
M  V30 28 H 13.283872 6.578348 -3.045868 0
M  V30 29 H 11.997670 9.851274 -2.754203 0
M  V30 30 H 11.036223 11.152498 -4.671308 0
M  V30 31 H 10.363325 9.954253 -6.730562 0
M  V30 32 H 11.146253 6.316082 -7.191058 0
M  V30 33 H 8.919354 6.173007 -6.050582 0
M  V30 34 H 8.346364 7.521641 -6.993710 0
M  V30 35 H 9.349097 4.842291 -8.099680 0
M  V30 36 H 7.685225 5.374142 -8.038270 0
M  V30 37 H 9.390057 4.707865 -10.679338 0
M  V30 38 H 7.688954 4.811222 -10.309998 0
M  V30 39 H 7.251678 6.569993 -11.852322 0
M  V30 40 H 8.929807 6.908525 -12.161740 0
M  V30 41 H 7.344278 4.821089 -13.363332 0
M  V30 42 H 8.156680 3.279408 -14.711795 0
M  V30 43 H 10.683336 2.348081 -13.514360 0
M  V30 44 H 9.389158 1.438719 -14.276305 0
M  V30 45 H 11.208731 1.183424 -15.897964 0
M  V30 46 H 12.487080 3.377428 -14.828538 0
M  V30 47 H 12.679138 3.036308 -16.551626 0
M  V30 48 H 11.370632 4.814801 -17.150803 0
M  V30 49 H 11.350318 5.366354 -15.484805 0
M  V30 50 H 8.996445 4.593364 -16.607050 0
M  V30 51 H 10.932151 6.176466 -9.733264 0
M  V30 52 H 10.272936 7.540578 -10.593934 0
M  V30 53 H 9.936172 8.787824 -8.530588 0
M  V30 54 H 11.611304 8.288701 -8.646922 0
M  V30 55 H 8.165937 7.094954 -9.542044 0
M  V30 END ATOM
M  V30 BEGIN BOND
M  V30 1 1 2 1
M  V30 2 1 3 2
M  V30 3 2 4 3
M  V30 4 1 5 4
M  V30 5 2 6 5
M  V30 6 1 7 6
M  V30 7 1 8 7
M  V30 8 1 9 8
M  V30 9 1 10 9
M  V30 10 1 11 10
M  V30 11 1 12 11
M  V30 12 1 13 12
M  V30 13 1 14 13
M  V30 14 2 15 14
M  V30 15 1 16 14
M  V30 16 1 17 16
M  V30 17 1 18 17
M  V30 18 1 19 18
M  V30 19 1 20 19
M  V30 20 1 21 16
M  V30 21 1 21 20
M  V30 22 1 22 18
M  V30 23 1 22 21
M  V30 24 1 23 10
M  V30 25 1 24 7
M  V30 26 1 24 23
M  V30 27 2 25 2
M  V30 28 1 25 6
M  V30 29 1 26 1
M  V30 30 1 27 1
M  V30 31 1 28 1
M  V30 32 1 29 3
M  V30 33 1 30 4
M  V30 34 1 31 5
M  V30 35 1 7 32 CFG=3
M  V30 36 1 33 8
M  V30 37 1 34 8
M  V30 38 1 35 9
M  V30 39 1 36 9
M  V30 40 1 37 11
M  V30 41 1 38 11
M  V30 42 1 39 12
M  V30 43 1 40 12
M  V30 44 1 41 13
M  V30 45 1 16 42 CFG=3
M  V30 46 1 43 17
M  V30 47 1 44 17
M  V30 48 1 18 45 CFG=3
M  V30 49 1 46 19
M  V30 50 1 47 19
M  V30 51 1 48 20
M  V30 52 1 49 20
M  V30 53 1 21 50 CFG=3
M  V30 54 1 51 23
M  V30 55 1 52 23
M  V30 56 1 53 24
M  V30 57 1 54 24
M  V30 58 1 10 55 CFG=1
M  V30 END BOND
M  V30 END CTAB
M  END
>  <b_m_subgroup_collapsed>  (1421) 
0

>  <r_i_docking_score>  (1421) 
-7.1524230881498099

>  <s_m_subgroup_title>  (1421) 
glide-dock_SP_D22_pv

>  <s_m_subgroupid>  (1421) 
glide-dock_SP_D22_pv

>  <Molecule ChEMBL ID>  (1421) 
CHEMBL5817624

>  <Standard Type>  (1421) 
Ki

>  <Standard Value>  (1421) 
7.1

>  <label>  (1421) 
1

$$$$
CHEMBL305392
     RDKit          3D

  0  0  0  0  0  0  0  0  0  0999 V3000
M  V30 BEGIN CTAB
M  V30 COUNTS 43 46 0 0 1
M  V30 BEGIN ATOM
M  V30 1 N 6.049553 3.134103 -13.469080 0
M  V30 2 C 6.942151 3.772834 -13.104321 0
M  V30 3 C 8.061875 4.573675 -12.640268 0
M  V30 4 C 9.118993 4.907339 -13.510438 0
M  V30 5 C 10.141392 5.769925 -13.069661 0
M  V30 6 C 10.088428 6.318589 -11.773138 0
M  V30 7 C 9.069901 5.936171 -10.881080 0
M  V30 8 C 8.070865 5.047674 -11.315378 0
M  V30 9 C 8.992576 6.588545 -9.509133 0 CFG=1
M  V30 10 C 9.898738 5.974175 -8.450215 0
M  V30 11 N 10.028492 7.010012 -7.400600 0 CFG=1 CHG=1
M  V30 12 C 11.257890 6.838310 -6.591922 0
M  V30 13 C 11.339584 7.636438 -5.291961 0
M  V30 14 C 11.686388 6.957818 -4.102069 0
M  V30 15 C 11.946774 7.668366 -2.914823 0
M  V30 16 C 11.814882 9.068158 -2.895169 0
M  V30 17 C 11.423907 9.752851 -4.059811 0
M  V30 18 C 11.225996 9.046996 -5.260051 0
M  V30 19 C 9.950303 8.318025 -8.094131 0
M  V30 20 C 9.383265 8.077297 -9.494732 0 CFG=1
M  V30 21 C 10.312854 8.525868 -10.648808 0
M  V30 22 C 11.072650 7.384244 -11.336266 0
M  V30 23 H 9.134191 4.534039 -14.524303 0
M  V30 24 H 10.929083 6.056365 -13.751657 0
M  V30 25 H 7.272646 4.779880 -10.646641 0
M  V30 26 H 7.975400 6.489417 -9.136079 0
M  V30 27 H 9.507082 5.034092 -8.058897 0
M  V30 28 H 10.882138 5.771185 -8.877454 0
M  V30 29 H 11.360504 5.781257 -6.349361 0
M  V30 30 H 12.115697 7.081024 -7.213637 0
M  V30 31 H 11.801292 5.883215 -4.098829 0
M  V30 32 H 12.235701 7.139129 -2.018670 0
M  V30 33 H 11.994875 9.615273 -1.981130 0
M  V30 34 H 11.285797 10.822557 -4.039488 0
M  V30 35 H 10.999489 9.624328 -6.139720 0
M  V30 36 H 9.300797 8.987271 -7.528147 0
M  V30 37 H 10.931664 8.787583 -8.165515 0
M  V30 38 H 8.486331 8.683383 -9.592601 0
M  V30 39 H 9.679257 8.971924 -11.416607 0
M  V30 40 H 11.000608 9.311611 -10.335565 0
M  V30 41 H 11.817353 6.972152 -10.658451 0
M  V30 42 H 11.617439 7.766468 -12.200212 0
M  V30 43 H 9.217811 6.931286 -6.800469 0
M  V30 END ATOM
M  V30 BEGIN BOND
M  V30 1 3 2 1
M  V30 2 1 3 2
M  V30 3 1 4 3
M  V30 4 2 5 4
M  V30 5 1 6 5
M  V30 6 2 7 6
M  V30 7 2 8 3
M  V30 8 1 8 7
M  V30 9 1 9 7
M  V30 10 1 10 9
M  V30 11 1 11 10
M  V30 12 1 12 11
M  V30 13 1 13 12
M  V30 14 2 14 13
M  V30 15 1 15 14
M  V30 16 2 16 15
M  V30 17 1 17 16
M  V30 18 1 18 13
M  V30 19 2 18 17
M  V30 20 1 19 11
M  V30 21 1 20 9
M  V30 22 1 20 19
M  V30 23 1 21 20
M  V30 24 1 22 6
M  V30 25 1 22 21
M  V30 26 1 23 4
M  V30 27 1 24 5
M  V30 28 1 25 8
M  V30 29 1 9 26 CFG=1
M  V30 30 1 27 10
M  V30 31 1 28 10
M  V30 32 1 29 12
M  V30 33 1 30 12
M  V30 34 1 31 14
M  V30 35 1 32 15
M  V30 36 1 33 16
M  V30 37 1 34 17
M  V30 38 1 35 18
M  V30 39 1 36 19
M  V30 40 1 37 19
M  V30 41 1 20 38 CFG=1
M  V30 42 1 39 21
M  V30 43 1 40 21
M  V30 44 1 41 22
M  V30 45 1 42 22
M  V30 46 1 11 43 CFG=1
M  V30 END BOND
M  V30 END CTAB
M  END
>  <b_m_subgroup_collapsed>  (1422) 
0

>  <r_i_docking_score>  (1422) 
-7.1523492187593396

>  <s_m_subgroup_title>  (1422) 
glide-dock_SP_D22_pv

>  <s_m_subgroupid>  (1422) 
glide-dock_SP_D22_pv

>  <Molecule ChEMBL ID>  (1422) 
CHEMBL305392

>  <Standard Type>  (1422) 
Ki

>  <Standard Value>  (1422) 
10.0

>  <label>  (1422) 
1

$$$$
CHEMBL3084520
     RDKit          3D

  0  0  0  0  0  0  0  0  0  0999 V3000
M  V30 BEGIN CTAB
M  V30 COUNTS 53 57 0 0 1
M  V30 BEGIN ATOM
M  V30 1 C 5.762625 4.465709 -12.512988 0
M  V30 2 O 6.736252 3.830638 -13.327628 0
M  V30 3 C 8.017327 4.337390 -13.324541 0
M  V30 4 C 8.974029 3.636702 -14.089685 0
M  V30 5 C 10.301837 4.092561 -14.169835 0
M  V30 6 C 10.654202 5.251245 -13.463675 0
M  V30 7 O 11.882806 5.872615 -13.447241 0
M  V30 8 C 11.752412 6.972318 -12.646581 0
M  V30 9 C 10.495747 7.071992 -12.091542 0
M  V30 10 C 9.998333 8.162803 -11.178281 0
M  V30 11 N 10.277193 8.045547 -9.712850 0 CFG=2 CHG=1
M  V30 12 C 10.964358 6.835694 -9.217798 0 CFG=2
M  V30 13 C 9.889426 5.746969 -9.175583 0
M  V30 14 C 8.604714 6.569239 -9.026051 0
M  V30 15 C 9.058248 8.053599 -8.896018 0 CFG=1
M  V30 16 C 9.438012 8.560432 -7.470086 0
M  V30 17 C 10.429247 7.601252 -6.770666 0 CFG=2
M  V30 18 O 9.582072 6.566288 -6.372325 0
M  V30 19 C 11.112145 8.054804 -5.491088 0
M  V30 20 C 11.134487 9.391448 -5.037178 0
M  V30 21 C 11.686021 9.676756 -3.772179 0
M  V30 22 C 12.229067 8.644990 -2.985817 0
M  V30 23 Cl 12.885878 8.972301 -1.446897 0
M  V30 24 C 12.239351 7.325038 -3.441810 0
M  V30 25 C 11.685492 7.036550 -4.690084 0
M  V30 26 C 11.503316 7.115904 -7.791583 0
M  V30 27 C 9.744299 5.977012 -12.653691 0
M  V30 28 C 8.409693 5.504483 -12.614820 0
M  V30 29 H 4.817012 3.935169 -12.614946 0
M  V30 30 H 6.046607 4.440928 -11.460201 0
M  V30 31 H 5.596869 5.498768 -12.819859 0
M  V30 32 H 8.679656 2.746670 -14.626769 0
M  V30 33 H 11.033212 3.569550 -14.768037 0
M  V30 34 H 12.645900 7.574986 -12.559388 0
M  V30 35 H 8.938316 8.337499 -11.370382 0
M  V30 36 H 10.484133 9.083191 -11.446767 0
M  V30 37 H 11.792766 6.572427 -9.865093 0
M  V30 38 H 10.040263 5.035465 -8.363587 0
M  V30 39 H 9.870373 5.157851 -10.090963 0
M  V30 40 H 7.957400 6.191468 -8.236154 0
M  V30 41 H 8.085123 6.445274 -9.963670 0
M  V30 42 H 8.341781 8.764381 -9.301330 0
M  V30 43 H 8.539536 8.713655 -6.867838 0
M  V30 44 H 9.893023 9.542898 -7.581009 0
M  V30 45 H 8.931272 6.907407 -5.774959 0
M  V30 46 H 10.700459 10.192613 -5.615211 0
M  V30 47 H 11.679376 10.680049 -3.381420 0
M  V30 48 H 12.655262 6.534164 -2.834560 0
M  V30 49 H 11.676798 6.007993 -5.021621 0
M  V30 50 H 12.279568 7.878822 -7.871341 0
M  V30 51 H 12.002932 6.225375 -7.416472 0
M  V30 52 H 7.689196 6.067222 -12.042048 0
M  V30 53 H 10.832273 8.851888 -9.466779 0
M  V30 END ATOM
M  V30 BEGIN BOND
M  V30 1 1 2 1
M  V30 2 1 3 2
M  V30 3 1 4 3
M  V30 4 2 5 4
M  V30 5 1 6 5
M  V30 6 1 7 6
M  V30 7 1 8 7
M  V30 8 2 9 8
M  V30 9 1 10 9
M  V30 10 1 11 10
M  V30 11 1 12 11
M  V30 12 1 13 12
M  V30 13 1 14 13
M  V30 14 1 15 11
M  V30 15 1 15 14
M  V30 16 1 16 15
M  V30 17 1 17 16
M  V30 18 1 17 18 CFG=1
M  V30 19 1 19 17
M  V30 20 1 20 19
M  V30 21 2 21 20
M  V30 22 1 22 21
M  V30 23 1 23 22
M  V30 24 2 24 22
M  V30 25 2 25 19
M  V30 26 1 25 24
M  V30 27 1 26 12
M  V30 28 1 26 17
M  V30 29 2 27 6
M  V30 30 1 27 9
M  V30 31 2 28 3
M  V30 32 1 28 27
M  V30 33 1 29 1
M  V30 34 1 30 1
M  V30 35 1 31 1
M  V30 36 1 32 4
M  V30 37 1 33 5
M  V30 38 1 34 8
M  V30 39 1 35 10
M  V30 40 1 36 10
M  V30 41 1 12 37 CFG=3
M  V30 42 1 38 13
M  V30 43 1 39 13
M  V30 44 1 40 14
M  V30 45 1 41 14
M  V30 46 1 15 42 CFG=3
M  V30 47 1 43 16
M  V30 48 1 44 16
M  V30 49 1 45 18
M  V30 50 1 46 20
M  V30 51 1 47 21
M  V30 52 1 48 24
M  V30 53 1 49 25
M  V30 54 1 50 26
M  V30 55 1 51 26
M  V30 56 1 52 28
M  V30 57 1 11 53 CFG=1
M  V30 END BOND
M  V30 END CTAB
M  END
>  <b_m_subgroup_collapsed>  (1423) 
0

>  <r_i_docking_score>  (1423) 
-7.1509635536920397

>  <s_m_subgroup_title>  (1423) 
glide-dock_SP_D22_pv

>  <s_m_subgroupid>  (1423) 
glide-dock_SP_D22_pv

>  <Molecule ChEMBL ID>  (1423) 
CHEMBL3084520

>  <Standard Type>  (1423) 
Ki

>  <Standard Value>  (1423) 
1.5

>  <label>  (1423) 
1

$$$$
CHEMBL3676933
     RDKit          3D

  0  0  0  0  0  0  0  0  0  0999 V3000
M  V30 BEGIN CTAB
M  V30 COUNTS 80 84 0 0 1
M  V30 BEGIN ATOM
M  V30 1 C 4.351731 -0.900536 -17.809759 0
M  V30 2 C 5.239870 -0.254517 -18.898958 0
M  V30 3 C 4.493145 0.972431 -19.455893 0
M  V30 4 C 5.426833 -1.288546 -20.026365 0
M  V30 5 C 6.616236 0.190086 -18.370573 0
M  V30 6 C 7.051788 -0.104668 -17.053196 0
M  V30 7 C 8.319111 0.310008 -16.601238 0
M  V30 8 C 9.167130 1.027574 -17.465322 0
M  V30 9 S 10.802707 1.509974 -16.930756 0
M  V30 10 O 11.672055 0.332601 -17.047855 0
M  V30 11 O 11.156215 2.770490 -17.601748 0
M  V30 12 N 10.607667 1.845299 -15.248431 0
M  V30 13 C 9.987313 3.107459 -14.844496 0 CFG=1
M  V30 14 C 9.080326 2.899915 -13.628250 0
M  V30 15 C 8.397551 4.204633 -13.201326 0
M  V30 16 C 9.437394 5.300086 -12.881121 0 CFG=2
M  V30 17 C 8.708753 6.604036 -12.476916 0
M  V30 18 C 9.600558 7.745790 -11.918653 0
M  V30 19 N 10.049095 7.570549 -10.506958 0 CFG=2 CHG=1
M  V30 20 C 8.929498 7.671713 -9.543193 0
M  V30 21 C 9.362510 7.406615 -8.109610 0
M  V30 22 C 10.524682 8.298436 -7.641838 0 CFG=1
M  V30 23 C 11.024824 7.769191 -6.329872 0
M  V30 24 C 11.314911 6.449430 -6.114903 0
M  V30 25 O 11.686207 6.172573 -4.835318 0
M  V30 26 C 11.707859 7.379796 -4.183546 0
M  V30 27 C 12.086029 7.596260 -2.851330 0
M  V30 28 C 12.086231 8.912733 -2.366957 0
M  V30 29 C 11.686070 9.962320 -3.215668 0
M  V30 30 C 11.287890 9.724853 -4.549738 0
M  V30 31 C 11.306911 8.414402 -5.074688 0
M  V30 32 C 11.646888 8.309415 -8.701555 0
M  V30 33 C 11.135866 8.521711 -10.141041 0
M  V30 34 C 10.383158 5.463086 -14.098954 0
M  V30 35 C 11.060664 4.151279 -14.509151 0
M  V30 36 C 8.749228 1.344603 -18.769968 0
M  V30 37 C 7.485541 0.918011 -19.219301 0
M  V30 38 H 4.789414 -1.820906 -17.422649 0
M  V30 39 H 4.186930 -0.227580 -16.969173 0
M  V30 40 H 3.368412 -1.162884 -18.202913 0
M  V30 41 H 4.959968 1.371209 -20.356911 0
M  V30 42 H 3.463561 0.725472 -19.717710 0
M  V30 43 H 4.486012 1.772316 -18.715738 0
M  V30 44 H 5.953624 -2.173835 -19.665524 0
M  V30 45 H 4.465821 -1.615494 -20.428070 0
M  V30 46 H 6.001209 -0.883136 -20.859575 0
M  V30 47 H 6.438431 -0.666747 -16.366276 0
M  V30 48 H 8.643216 0.053047 -15.602826 0
M  V30 49 H 11.476056 1.670682 -14.744425 0
M  V30 50 H 9.373517 3.467379 -15.673198 0
M  V30 51 H 8.338023 2.130312 -13.846474 0
M  V30 52 H 9.683724 2.572263 -12.785336 0
M  V30 53 H 7.725198 4.539612 -13.993105 0
M  V30 54 H 7.771716 4.015460 -12.326798 0
M  V30 55 H 10.029813 4.962665 -12.029860 0
M  V30 56 H 8.163311 6.971407 -13.348059 0
M  V30 57 H 7.914452 6.365649 -11.772545 0
M  V30 58 H 10.470931 7.867478 -12.563687 0
M  V30 59 H 9.049977 8.687037 -11.987755 0
M  V30 60 H 8.485920 8.663049 -9.618533 0
M  V30 61 H 8.187915 6.906783 -9.760738 0
M  V30 62 H 8.508386 7.527540 -7.442147 0
M  V30 63 H 9.625606 6.351113 -8.062688 0
M  V30 64 H 10.152715 9.316304 -7.516525 0
M  V30 65 H 11.294441 5.593215 -6.768548 0
M  V30 66 H 12.381987 6.768297 -2.225307 0
M  V30 67 H 12.378887 9.123221 -1.347769 0
M  V30 68 H 11.686042 10.971132 -2.827975 0
M  V30 69 H 10.987550 10.550810 -5.176954 0
M  V30 70 H 12.386559 9.068753 -8.449724 0
M  V30 71 H 12.190969 7.372135 -8.675937 0
M  V30 72 H 11.970993 8.415395 -10.835135 0
M  V30 73 H 10.776694 9.543549 -10.245370 0
M  V30 74 H 9.800215 5.772544 -14.962601 0
M  V30 75 H 11.144684 6.219893 -13.919597 0
M  V30 76 H 11.707522 3.795602 -13.705892 0
M  V30 77 H 11.702279 4.324470 -15.374596 0
M  V30 78 H 9.405152 1.892073 -19.432186 0
M  V30 79 H 7.194366 1.147747 -20.232618 0
M  V30 80 H 10.426213 6.637908 -10.424820 0
M  V30 END ATOM
M  V30 BEGIN BOND
M  V30 1 1 2 1
M  V30 2 1 3 2
M  V30 3 1 4 2
M  V30 4 1 5 2
M  V30 5 1 6 5
M  V30 6 2 7 6
M  V30 7 1 8 7
M  V30 8 1 9 8
M  V30 9 2 10 9
M  V30 10 2 11 9
M  V30 11 1 12 9
M  V30 12 1 13 12
M  V30 13 1 14 13
M  V30 14 1 15 14
M  V30 15 1 16 15
M  V30 16 1 17 16
M  V30 17 1 18 17
M  V30 18 1 19 18
M  V30 19 1 20 19
M  V30 20 1 21 20
M  V30 21 1 22 21
M  V30 22 1 23 22
M  V30 23 2 24 23
M  V30 24 1 25 24
M  V30 25 1 26 25
M  V30 26 2 27 26
M  V30 27 1 28 27
M  V30 28 2 29 28
M  V30 29 1 30 29
M  V30 30 1 31 23
M  V30 31 1 31 26
M  V30 32 2 31 30
M  V30 33 1 32 22
M  V30 34 1 33 19
M  V30 35 1 33 32
M  V30 36 1 34 16
M  V30 37 1 35 13
M  V30 38 1 35 34
M  V30 39 2 36 8
M  V30 40 2 37 5
M  V30 41 1 37 36
M  V30 42 1 38 1
M  V30 43 1 39 1
M  V30 44 1 40 1
M  V30 45 1 41 3
M  V30 46 1 42 3
M  V30 47 1 43 3
M  V30 48 1 44 4
M  V30 49 1 45 4
M  V30 50 1 46 4
M  V30 51 1 47 6
M  V30 52 1 48 7
M  V30 53 1 49 12
M  V30 54 1 13 50 CFG=3
M  V30 55 1 51 14
M  V30 56 1 52 14
M  V30 57 1 53 15
M  V30 58 1 54 15
M  V30 59 1 16 55 CFG=1
M  V30 60 1 56 17
M  V30 61 1 57 17
M  V30 62 1 58 18
M  V30 63 1 59 18
M  V30 64 1 60 20
M  V30 65 1 61 20
M  V30 66 1 62 21
M  V30 67 1 63 21
M  V30 68 1 22 64 CFG=1
M  V30 69 1 65 24
M  V30 70 1 66 27
M  V30 71 1 67 28
M  V30 72 1 68 29
M  V30 73 1 69 30
M  V30 74 1 70 32
M  V30 75 1 71 32
M  V30 76 1 72 33
M  V30 77 1 73 33
M  V30 78 1 74 34
M  V30 79 1 75 34
M  V30 80 1 76 35
M  V30 81 1 77 35
M  V30 82 1 78 36
M  V30 83 1 79 37
M  V30 84 1 19 80 CFG=3
M  V30 END BOND
M  V30 END CTAB
M  END
>  <b_m_subgroup_collapsed>  (1424) 
0

>  <r_i_docking_score>  (1424) 
-7.1497158759217596

>  <s_m_subgroup_title>  (1424) 
glide-dock_SP_D22_pv

>  <s_m_subgroupid>  (1424) 
glide-dock_SP_D22_pv

>  <Molecule ChEMBL ID>  (1424) 
CHEMBL3676933

>  <Standard Type>  (1424) 
Ki

>  <Standard Value>  (1424) 
70.03

>  <label>  (1424) 
1

$$$$
CHEMBL4463034
     RDKit          3D

  0  0  0  0  0  0  0  0  0  0999 V3000
M  V30 BEGIN CTAB
M  V30 COUNTS 53 57 0 0 1
M  V30 BEGIN ATOM
M  V30 1 C 3.019633 -0.852467 -13.961522 0
M  V30 2 O 4.136327 -0.144228 -13.448813 0
M  V30 3 C 5.175677 0.128318 -14.309545 0
M  V30 4 C 5.387017 -0.553457 -15.532993 0
M  V30 5 C 6.487549 -0.228286 -16.346586 0
M  V30 6 C 7.371859 0.782393 -15.942951 0
M  V30 7 N 8.531702 1.284860 -16.511404 0
M  V30 8 C 9.040565 2.331787 -15.759345 0
M  V30 9 C 8.195843 2.521994 -14.700027 0
M  V30 10 C 8.312430 3.612952 -13.730132 0
M  V30 11 C 7.245759 4.383879 -13.446998 0
M  V30 12 C 7.271007 5.550919 -12.472662 0
M  V30 13 N 8.661720 5.912810 -12.085795 0 CFG=1 CHG=1
M  V30 14 C 8.669949 6.972078 -11.048489 0
M  V30 15 C 10.049353 7.418308 -10.561238 0
M  V30 16 C 11.059039 7.632558 -11.438109 0
M  V30 17 C 12.362033 8.171310 -11.046867 0
M  V30 18 O 13.284067 8.386873 -11.837694 0
M  V30 19 N 12.486357 8.460732 -9.743016 0
M  V30 20 C 11.500801 8.279235 -8.756588 0
M  V30 21 C 11.792514 8.629715 -7.426500 0
M  V30 22 C 10.826417 8.441510 -6.424522 0
M  V30 23 C 9.574034 7.903429 -6.767057 0
M  V30 24 C 9.286137 7.560014 -8.101136 0
M  V30 25 C 10.246883 7.747357 -9.123386 0
M  V30 26 C 9.442703 4.702235 -11.742689 0
M  V30 27 C 9.618168 3.820762 -12.987626 0
M  V30 28 C 7.165865 1.523693 -14.743248 0
M  V30 29 C 6.068998 1.154249 -13.928758 0
M  V30 30 H 2.314666 -1.028348 -13.150707 0
M  V30 31 H 2.511551 -0.279389 -14.736511 0
M  V30 32 H 3.286822 -1.827634 -14.359325 0
M  V30 33 H 4.734682 -1.344997 -15.867437 0
M  V30 34 H 6.658013 -0.770978 -17.263340 0
M  V30 35 H 8.963502 0.954702 -17.361248 0
M  V30 36 H 9.929661 2.868695 -16.058496 0
M  V30 37 H 6.300746 4.204129 -13.941586 0
M  V30 38 H 6.789259 6.415154 -12.933452 0
M  V30 39 H 6.681109 5.285279 -11.593192 0
M  V30 40 H 8.147750 7.846302 -11.445704 0
M  V30 41 H 8.088626 6.566241 -10.226889 0
M  V30 42 H 10.903777 7.442272 -12.490120 0
M  V30 43 H 13.346554 8.919410 -9.469037 0
M  V30 44 H 12.760983 9.028836 -7.165702 0
M  V30 45 H 11.044140 8.701623 -5.399627 0
M  V30 46 H 8.824253 7.750954 -6.004537 0
M  V30 47 H 8.307013 7.159742 -8.295243 0
M  V30 48 H 8.928953 4.170520 -10.941451 0
M  V30 49 H 10.424422 4.951818 -11.363217 0
M  V30 50 H 10.007504 2.853667 -12.673084 0
M  V30 51 H 10.351923 4.246630 -13.673768 0
M  V30 52 H 5.896267 1.684380 -13.003859 0
M  V30 53 H 9.098942 6.310718 -12.903778 0
M  V30 END ATOM
M  V30 BEGIN BOND
M  V30 1 1 2 1
M  V30 2 1 3 2
M  V30 3 1 4 3
M  V30 4 2 5 4
M  V30 5 1 6 5
M  V30 6 1 7 6
M  V30 7 1 8 7
M  V30 8 2 9 8
M  V30 9 1 10 9
M  V30 10 2 11 10
M  V30 11 1 12 11
M  V30 12 1 13 12
M  V30 13 1 14 13
M  V30 14 1 15 14
M  V30 15 2 16 15
M  V30 16 1 17 16
M  V30 17 2 18 17
M  V30 18 1 19 17
M  V30 19 1 20 19
M  V30 20 2 21 20
M  V30 21 1 22 21
M  V30 22 2 23 22
M  V30 23 1 24 23
M  V30 24 1 25 15
M  V30 25 1 25 20
M  V30 26 2 25 24
M  V30 27 1 26 13
M  V30 28 1 27 10
M  V30 29 1 27 26
M  V30 30 2 28 6
M  V30 31 1 28 9
M  V30 32 2 29 3
M  V30 33 1 29 28
M  V30 34 1 30 1
M  V30 35 1 31 1
M  V30 36 1 32 1
M  V30 37 1 33 4
M  V30 38 1 34 5
M  V30 39 1 35 7
M  V30 40 1 36 8
M  V30 41 1 37 11
M  V30 42 1 38 12
M  V30 43 1 39 12
M  V30 44 1 40 14
M  V30 45 1 41 14
M  V30 46 1 42 16
M  V30 47 1 43 19
M  V30 48 1 44 21
M  V30 49 1 45 22
M  V30 50 1 46 23
M  V30 51 1 47 24
M  V30 52 1 48 26
M  V30 53 1 49 26
M  V30 54 1 50 27
M  V30 55 1 51 27
M  V30 56 1 52 29
M  V30 57 1 13 53 CFG=3
M  V30 END BOND
M  V30 END CTAB
M  END
>  <b_m_subgroup_collapsed>  (1425) 
0

>  <r_i_docking_score>  (1425) 
-7.1487091578320996

>  <s_m_subgroup_title>  (1425) 
glide-dock_SP_D22_pv

>  <s_m_subgroupid>  (1425) 
glide-dock_SP_D22_pv

>  <Molecule ChEMBL ID>  (1425) 
CHEMBL4463034

>  <Standard Type>  (1425) 
Ki

>  <Standard Value>  (1425) 
58.0

>  <label>  (1425) 
1

$$$$
CHEMBL5421925
     RDKit          3D

  0  0  0  0  0  0  0  0  0  0999 V3000
M  V30 BEGIN CTAB
M  V30 COUNTS 75 79 0 0 1
M  V30 BEGIN ATOM
M  V30 1 C 4.075990 0.699378 -20.248898 0
M  V30 2 C 4.723288 -0.613506 -19.813391 0
M  V30 3 C 4.737921 -0.764446 -18.301712 0
M  V30 4 C 3.689506 -1.478112 -17.687128 0
M  V30 5 C 3.684739 -1.646325 -16.295408 0
M  V30 6 C 4.708904 -1.109676 -15.507030 0
M  V30 7 C 5.758825 -0.380881 -16.098465 0
M  V30 8 N 6.732729 0.158546 -15.240118 0
M  V30 9 C 6.315475 1.000760 -14.141419 0
M  V30 10 C 6.920905 2.386117 -14.348722 0
M  V30 11 N 8.408143 2.335489 -14.492873 0 CHG=1
M  V30 12 C 9.029479 3.663247 -14.755093 0
M  V30 13 C 8.401257 4.864102 -14.016315 0
M  V30 14 C 8.575416 4.898988 -12.482586 0 CFG=1
M  V30 15 C 10.042913 5.070760 -12.049273 0
M  V30 16 C 10.602633 6.463336 -12.408964 0
M  V30 17 C 9.720981 7.595210 -11.847343 0 CFG=2
M  V30 18 N 9.843457 7.681139 -10.392744 0
M  V30 19 C 10.918992 8.174180 -9.762671 0
M  V30 20 O 11.917220 8.572662 -10.359731 0
M  V30 21 C 10.774270 8.224240 -8.323112 0
M  V30 22 C 10.533485 7.165301 -7.528639 0
M  V30 23 C 10.606758 7.626461 -6.096395 0 CFG=1
M  V30 24 C 11.286193 6.851596 -4.982407 0
M  V30 25 C 11.780514 7.549364 -3.929010 0
M  V30 26 C 11.686866 9.019767 -3.898367 0
M  V30 27 C 11.483767 9.705497 -5.046075 0
M  V30 28 C 11.443473 8.881503 -6.308491 0 CFG=2
M  V30 29 N 11.093806 9.372014 -7.618161 0
M  V30 30 C 8.247694 7.407388 -12.247931 0
M  V30 31 C 7.717489 6.016910 -11.850503 0
M  V30 32 C 8.879852 1.342340 -15.508800 0
M  V30 33 C 8.159557 -0.021860 -15.450767 0
M  V30 34 C 5.765618 -0.192064 -17.509716 0
M  V30 35 Cl 6.966195 0.794081 -18.280399 0
M  V30 36 H 4.090220 0.775172 -21.333654 0
M  V30 37 H 3.036876 0.744964 -19.919952 0
M  V30 38 H 4.596444 1.567328 -19.843653 0
M  V30 39 H 5.735461 -0.687834 -20.208931 0
M  V30 40 H 4.173375 -1.446610 -20.253653 0
M  V30 41 H 2.890532 -1.907379 -18.277170 0
M  V30 42 H 2.890567 -2.210733 -15.832272 0
M  V30 43 H 4.686802 -1.271563 -14.439634 0
M  V30 44 H 6.654181 0.564907 -13.200879 0
M  V30 45 H 5.229452 1.078495 -14.084128 0
M  V30 46 H 6.630314 2.999775 -13.495723 0
M  V30 47 H 6.486014 2.843425 -15.238276 0
M  V30 48 H 8.945755 3.880604 -15.820839 0
M  V30 49 H 10.100014 3.602649 -14.556928 0
M  V30 50 H 7.339883 4.946645 -14.246730 0
M  V30 51 H 8.831411 5.761312 -14.455068 0
M  V30 52 H 8.221440 3.952022 -12.078478 0
M  V30 53 H 10.085972 4.932744 -10.968231 0
M  V30 54 H 10.667097 4.287508 -12.479236 0
M  V30 55 H 10.681869 6.560624 -13.488183 0
M  V30 56 H 11.628138 6.572458 -12.056647 0
M  V30 57 H 10.057281 8.549191 -12.258266 0
M  V30 58 H 9.032532 7.426934 -9.845654 0
M  V30 59 H 10.325218 6.149432 -7.832128 0
M  V30 60 H 9.585597 7.861485 -5.793983 0
M  V30 61 H 11.323821 5.773617 -5.030846 0
M  V30 62 H 12.257026 7.024492 -3.114619 0
M  V30 63 H 11.732562 9.546409 -2.956124 0
M  V30 64 H 11.376517 10.777515 -5.093128 0
M  V30 65 H 12.483544 8.595778 -6.457935 0
M  V30 66 H 11.737113 9.998381 -8.078878 0
M  V30 67 H 7.671492 8.231835 -11.846887 0
M  V30 68 H 8.085648 7.521319 -13.314971 0
M  V30 69 H 7.721084 5.910125 -10.765933 0
M  V30 70 H 6.674448 5.918445 -12.151979 0
M  V30 71 H 8.730352 1.765476 -16.499287 0
M  V30 72 H 9.955465 1.193197 -15.403548 0
M  V30 73 H 8.547834 -0.615445 -14.627370 0
M  V30 74 H 8.352853 -0.623395 -16.341682 0
M  V30 75 H 8.757010 2.012325 -13.600266 0
M  V30 END ATOM
M  V30 BEGIN BOND
M  V30 1 1 2 1
M  V30 2 1 3 2
M  V30 3 1 4 3
M  V30 4 2 5 4
M  V30 5 1 6 5
M  V30 6 2 7 6
M  V30 7 1 8 7
M  V30 8 1 9 8
M  V30 9 1 10 9
M  V30 10 1 11 10
M  V30 11 1 12 11
M  V30 12 1 13 12
M  V30 13 1 14 13
M  V30 14 1 15 14
M  V30 15 1 16 15
M  V30 16 1 17 16
M  V30 17 1 18 17
M  V30 18 1 19 18
M  V30 19 2 20 19
M  V30 20 1 21 19
M  V30 21 2 22 21
M  V30 22 1 23 22
M  V30 23 1 24 23
M  V30 24 2 25 24
M  V30 25 1 26 25
M  V30 26 2 27 26
M  V30 27 1 28 23
M  V30 28 1 28 27
M  V30 29 1 29 21
M  V30 30 1 29 28
M  V30 31 1 30 17
M  V30 32 1 31 14
M  V30 33 1 31 30
M  V30 34 1 32 11
M  V30 35 1 33 8
M  V30 36 1 33 32
M  V30 37 2 34 3
M  V30 38 1 34 7
M  V30 39 1 35 34
M  V30 40 1 36 1
M  V30 41 1 37 1
M  V30 42 1 38 1
M  V30 43 1 39 2
M  V30 44 1 40 2
M  V30 45 1 41 4
M  V30 46 1 42 5
M  V30 47 1 43 6
M  V30 48 1 44 9
M  V30 49 1 45 9
M  V30 50 1 46 10
M  V30 51 1 47 10
M  V30 52 1 48 12
M  V30 53 1 49 12
M  V30 54 1 50 13
M  V30 55 1 51 13
M  V30 56 1 14 52 CFG=1
M  V30 57 1 53 15
M  V30 58 1 54 15
M  V30 59 1 55 16
M  V30 60 1 56 16
M  V30 61 1 17 57 CFG=3
M  V30 62 1 58 18
M  V30 63 1 59 22
M  V30 64 1 23 60 CFG=1
M  V30 65 1 61 24
M  V30 66 1 62 25
M  V30 67 1 63 26
M  V30 68 1 64 27
M  V30 69 1 28 65 CFG=3
M  V30 70 1 66 29
M  V30 71 1 67 30
M  V30 72 1 68 30
M  V30 73 1 69 31
M  V30 74 1 70 31
M  V30 75 1 71 32
M  V30 76 1 72 32
M  V30 77 1 73 33
M  V30 78 1 74 33
M  V30 79 1 75 11
M  V30 END BOND
M  V30 END CTAB
M  END
>  <b_m_subgroup_collapsed>  (1426) 
0

>  <r_i_docking_score>  (1426) 
-7.1426749856044101

>  <s_m_subgroup_title>  (1426) 
glide-dock_SP_D22_pv

>  <s_m_subgroupid>  (1426) 
glide-dock_SP_D22_pv

>  <Molecule ChEMBL ID>  (1426) 
CHEMBL5421925

>  <Standard Type>  (1426) 
Ki

>  <Standard Value>  (1426) 
5.76

>  <label>  (1426) 
1

$$$$
CHEMBL3646151
     RDKit          3D

  0  0  0  0  0  0  0  0  0  0999 V3000
M  V30 BEGIN CTAB
M  V30 COUNTS 42 45 0 0 1
M  V30 BEGIN ATOM
M  V30 1 C 9.113671 7.067473 -6.924429 0
M  V30 2 N 8.886036 6.849502 -8.368769 0 CHG=1
M  V30 3 C 8.997515 5.426020 -8.753599 0
M  V30 4 C 8.632579 5.236257 -10.229991 0
M  V30 5 N 9.411325 6.106558 -11.114489 0
M  V30 6 C 9.772417 5.730426 -12.412829 0
M  V30 7 N 10.885757 6.171559 -12.922533 0
M  V30 8 C 11.437789 5.841682 -14.172032 0
M  V30 9 C 12.087158 6.889127 -14.865502 0
M  V30 10 C 12.709602 6.668196 -16.108353 0
M  V30 11 C 12.720207 5.378577 -16.667252 0
M  V30 12 C 12.123836 4.312920 -15.969996 0
M  V30 13 C 11.502935 4.536942 -14.724891 0
M  V30 14 S 10.884720 3.149867 -13.852009 0
M  V30 15 C 9.202086 3.598875 -13.750639 0
M  V30 16 C 8.251884 2.706192 -14.282990 0
M  V30 17 C 6.879953 2.983319 -14.167132 0
M  V30 18 C 6.463681 4.172339 -13.543200 0
M  V30 19 F 5.144860 4.452480 -13.443342 0
M  V30 20 C 7.416579 5.079641 -13.042905 0
M  V30 21 C 8.803274 4.796688 -13.109151 0
M  V30 22 C 9.444209 7.516695 -10.720387 0
M  V30 23 C 9.737324 7.713759 -9.220827 0
M  V30 24 H 10.141598 6.828374 -6.646441 0
M  V30 25 H 8.912636 8.104944 -6.652731 0
M  V30 26 H 8.450049 6.437307 -6.333847 0
M  V30 27 H 8.330148 4.822308 -8.137641 0
M  V30 28 H 10.013124 5.072069 -8.569825 0
M  V30 29 H 7.575037 5.458382 -10.365080 0
M  V30 30 H 8.775300 4.189751 -10.501081 0
M  V30 31 H 12.095105 7.884748 -14.446220 0
M  V30 32 H 13.181096 7.489078 -16.628927 0
M  V30 33 H 13.202777 5.203761 -17.617453 0
M  V30 34 H 12.165705 3.314314 -16.379829 0
M  V30 35 H 8.575856 1.791190 -14.757422 0
M  V30 36 H 6.149004 2.291498 -14.557930 0
M  V30 37 H 7.066023 5.985749 -12.568282 0
M  V30 38 H 10.188874 8.065916 -11.298036 0
M  V30 39 H 8.486895 7.965197 -10.976846 0
M  V30 40 H 9.582810 8.760421 -8.955860 0
M  V30 41 H 10.786160 7.487332 -9.023229 0
M  V30 42 H 7.916975 7.110745 -8.545061 0
M  V30 END ATOM
M  V30 BEGIN BOND
M  V30 1 1 2 1
M  V30 2 1 3 2
M  V30 3 1 4 3
M  V30 4 1 5 4
M  V30 5 1 6 5
M  V30 6 2 7 6
M  V30 7 1 8 7
M  V30 8 2 9 8
M  V30 9 1 10 9
M  V30 10 2 11 10
M  V30 11 1 12 11
M  V30 12 1 13 8
M  V30 13 2 13 12
M  V30 14 1 14 13
M  V30 15 1 15 14
M  V30 16 1 16 15
M  V30 17 2 17 16
M  V30 18 1 18 17
M  V30 19 1 19 18
M  V30 20 2 20 18
M  V30 21 1 21 6
M  V30 22 2 21 15
M  V30 23 1 21 20
M  V30 24 1 22 5
M  V30 25 1 23 2
M  V30 26 1 23 22
M  V30 27 1 24 1
M  V30 28 1 25 1
M  V30 29 1 26 1
M  V30 30 1 27 3
M  V30 31 1 28 3
M  V30 32 1 29 4
M  V30 33 1 30 4
M  V30 34 1 31 9
M  V30 35 1 32 10
M  V30 36 1 33 11
M  V30 37 1 34 12
M  V30 38 1 35 16
M  V30 39 1 36 17
M  V30 40 1 37 20
M  V30 41 1 38 22
M  V30 42 1 39 22
M  V30 43 1 40 23
M  V30 44 1 41 23
M  V30 45 1 42 2
M  V30 END BOND
M  V30 END CTAB
M  END
>  <b_m_subgroup_collapsed>  (1427) 
0

>  <r_i_docking_score>  (1427) 
-7.1424788397556798

>  <s_m_subgroup_title>  (1427) 
glide-dock_SP_D22_pv

>  <s_m_subgroupid>  (1427) 
glide-dock_SP_D22_pv

>  <Molecule ChEMBL ID>  (1427) 
CHEMBL3646151

>  <Standard Type>  (1427) 
Ki

>  <Standard Value>  (1427) 
1.1

>  <label>  (1427) 
1

$$$$
CHEMBL3588986
     RDKit          3D

  0  0  0  0  0  0  0  0  0  0999 V3000
M  V30 BEGIN CTAB
M  V30 COUNTS 58 62 0 0 1
M  V30 BEGIN ATOM
M  V30 1 Cl 5.564717 -0.451509 -19.457516 0
M  V30 2 C 5.449806 -0.642693 -17.742134 0
M  V30 3 C 4.565802 -1.606227 -17.228882 0
M  V30 4 C 4.430524 -1.763176 -15.840322 0
M  V30 5 C 5.172842 -0.951388 -14.963473 0
M  V30 6 C 6.067272 0.019737 -15.458045 0
M  V30 7 N 6.724031 0.836927 -14.518384 0
M  V30 8 C 5.935901 1.722656 -13.676492 0
M  V30 9 C 6.337388 3.182845 -13.959496 0
M  V30 10 N 7.775123 3.372764 -13.708833 0
M  V30 11 C 8.228811 4.761200 -13.853873 0
M  V30 12 C 7.553447 5.733090 -12.865706 0
M  V30 13 C 8.087158 5.587166 -11.433852 0
M  V30 14 C 9.249069 6.557659 -11.148084 0
M  V30 15 N 9.630307 6.590948 -9.750089 0
M  V30 16 C 10.031641 7.675426 -8.999147 0
M  V30 17 C 10.321442 7.145339 -7.772313 0
M  V30 18 C 10.796249 7.783438 -6.538926 0
M  V30 19 C 10.835599 9.189610 -6.456156 0
M  V30 20 C 11.281722 9.828111 -5.286429 0
M  V30 21 C 11.708471 9.046286 -4.199600 0
M  V30 22 N 12.201036 9.372921 -2.952586 0
M  V30 23 C 12.483784 8.232948 -2.222096 0
M  V30 24 C 12.164848 7.133033 -2.978434 0
M  V30 25 C 11.687863 7.623557 -4.240767 0
M  V30 26 C 11.223169 7.015034 -5.429250 0
M  V30 27 N 10.085923 5.773289 -7.846110 0
M  V30 28 N 9.685429 5.451072 -9.030724 0
M  V30 29 C 8.544227 2.517597 -14.621511 0
M  V30 30 C 8.167780 1.021683 -14.478349 0
M  V30 31 C 6.210576 0.170427 -16.865347 0
M  V30 32 Cl 7.249640 1.371915 -17.548859 0
M  V30 33 H 3.980487 -2.223707 -17.895573 0
M  V30 34 H 3.744117 -2.500438 -15.447658 0
M  V30 35 H 5.054780 -1.079723 -13.897869 0
M  V30 36 H 4.869264 1.586307 -13.850389 0
M  V30 37 H 6.086270 1.476502 -12.624993 0
M  V30 38 H 6.086925 3.446856 -14.988937 0
M  V30 39 H 5.731608 3.811091 -13.310180 0
M  V30 40 H 9.307919 4.795394 -13.687579 0
M  V30 41 H 8.085869 5.107535 -14.874620 0
M  V30 42 H 7.719172 6.755854 -13.206833 0
M  V30 43 H 6.470727 5.630360 -12.865051 0
M  V30 44 H 7.275363 5.774300 -10.732505 0
M  V30 45 H 8.387121 4.555099 -11.248268 0
M  V30 46 H 10.124578 6.290952 -11.737656 0
M  V30 47 H 8.965701 7.571535 -11.435447 0
M  V30 48 H 10.064644 8.679727 -9.394045 0
M  V30 49 H 10.506277 9.773964 -7.299897 0
M  V30 50 H 11.292256 10.906229 -5.225179 0
M  V30 51 H 12.363255 10.305421 -2.594500 0
M  V30 52 H 12.880150 8.298478 -1.221104 0
M  V30 53 H 12.258965 6.095251 -2.694918 0
M  V30 54 H 11.195730 5.937008 -5.481601 0
M  V30 55 H 8.388015 2.857214 -15.643641 0
M  V30 56 H 9.608483 2.634338 -14.413553 0
M  V30 57 H 8.531350 0.643430 -13.523859 0
M  V30 58 H 8.654941 0.424598 -15.250545 0
M  V30 END ATOM
M  V30 BEGIN BOND
M  V30 1 1 2 1
M  V30 2 1 3 2
M  V30 3 2 4 3
M  V30 4 1 5 4
M  V30 5 2 6 5
M  V30 6 1 7 6
M  V30 7 1 8 7
M  V30 8 1 9 8
M  V30 9 1 10 9
M  V30 10 1 11 10
M  V30 11 1 12 11
M  V30 12 1 13 12
M  V30 13 1 14 13
M  V30 14 1 15 14
M  V30 15 1 16 15
M  V30 16 2 17 16
M  V30 17 1 18 17
M  V30 18 2 19 18
M  V30 19 1 20 19
M  V30 20 2 21 20
M  V30 21 1 22 21
M  V30 22 1 23 22
M  V30 23 2 24 23
M  V30 24 1 25 21
M  V30 25 1 25 24
M  V30 26 1 26 18
M  V30 27 2 26 25
M  V30 28 1 27 17
M  V30 29 1 28 15
M  V30 30 2 28 27
M  V30 31 1 29 10
M  V30 32 1 30 7
M  V30 33 1 30 29
M  V30 34 2 31 2
M  V30 35 1 31 6
M  V30 36 1 32 31
M  V30 37 1 33 3
M  V30 38 1 34 4
M  V30 39 1 35 5
M  V30 40 1 36 8
M  V30 41 1 37 8
M  V30 42 1 38 9
M  V30 43 1 39 9
M  V30 44 1 40 11
M  V30 45 1 41 11
M  V30 46 1 42 12
M  V30 47 1 43 12
M  V30 48 1 44 13
M  V30 49 1 45 13
M  V30 50 1 46 14
M  V30 51 1 47 14
M  V30 52 1 48 16
M  V30 53 1 49 19
M  V30 54 1 50 20
M  V30 55 1 51 22
M  V30 56 1 52 23
M  V30 57 1 53 24
M  V30 58 1 54 26
M  V30 59 1 55 29
M  V30 60 1 56 29
M  V30 61 1 57 30
M  V30 62 1 58 30
M  V30 END BOND
M  V30 END CTAB
M  END
>  <b_m_subgroup_collapsed>  (1428) 
0

>  <r_i_docking_score>  (1428) 
-7.1387872846357201

>  <s_m_subgroup_title>  (1428) 
glide-dock_SP_D22_pv

>  <s_m_subgroupid>  (1428) 
glide-dock_SP_D22_pv

>  <Molecule ChEMBL ID>  (1428) 
CHEMBL3588986

>  <Standard Type>  (1428) 
Ki

>  <Standard Value>  (1428) 
56.1

>  <label>  (1428) 
1

$$$$
CHEMBL4582714
     RDKit          3D

  0  0  0  0  0  0  0  0  0  0999 V3000
M  V30 BEGIN CTAB
M  V30 COUNTS 61 64 0 0 1
M  V30 BEGIN ATOM
M  V30 1 C 10.042270 0.721495 -15.010508 0
M  V30 2 O 9.180965 1.778522 -14.606717 0
M  V30 3 C 7.858137 1.503106 -14.318582 0
M  V30 4 C 7.335400 0.187583 -14.422831 0
M  V30 5 C 6.021834 -0.112807 -14.030806 0
M  V30 6 C 5.199137 0.905388 -13.532139 0
M  V30 7 C 5.685935 2.220921 -13.446891 0
M  V30 8 C 7.006101 2.550406 -13.847042 0
M  V30 9 N 7.438641 3.889591 -13.688869 0
M  V30 10 C 6.920427 4.741381 -12.614443 0
M  V30 11 C 8.075110 5.326315 -11.776179 0
M  V30 12 N 9.049620 6.002014 -12.640039 0
M  V30 13 C 10.102516 6.617452 -11.847455 0
M  V30 14 C 9.622449 7.925413 -11.179700 0
M  V30 15 C 9.532626 7.874744 -9.646882 0
M  V30 16 C 10.868709 7.534694 -8.969500 0
M  V30 17 N 10.813554 7.810700 -7.510677 0 CFG=2 CHG=1
M  V30 18 C 11.517774 9.080338 -7.179209 0
M  V30 19 C 11.047474 9.748066 -5.875849 0
M  V30 20 C 11.532089 9.053473 -4.646779 0
M  V30 21 N 12.111199 9.770866 -3.597964 0
M  V30 22 C 12.485648 8.971659 -2.597593 0
M  V30 23 S 12.122389 7.277351 -2.858046 0
M  V30 24 C 11.434102 7.711985 -4.401099 0
M  V30 25 C 10.760541 6.696790 -5.244041 0
M  V30 26 C 11.210724 6.624481 -6.707616 0
M  V30 27 C 9.618641 5.008115 -13.555138 0
M  V30 28 C 8.495494 4.519425 -14.478957 0
M  V30 29 H 11.044785 1.117215 -15.171624 0
M  V30 30 H 10.116817 -0.052578 -14.246750 0
M  V30 31 H 9.714913 0.271569 -15.948176 0
M  V30 32 H 7.937943 -0.627695 -14.788316 0
M  V30 33 H 5.652787 -1.124145 -14.114104 0
M  V30 34 H 4.181570 0.686758 -13.246122 0
M  V30 35 H 5.005385 2.982077 -13.095774 0
M  V30 36 H 6.266902 4.201606 -11.931514 0
M  V30 37 H 6.328063 5.547084 -13.047565 0
M  V30 38 H 8.563107 4.533887 -11.206816 0
M  V30 39 H 7.663891 6.029786 -11.049829 0
M  V30 40 H 10.933355 6.871838 -12.507407 0
M  V30 41 H 10.486123 5.895796 -11.129460 0
M  V30 42 H 8.656418 8.234677 -11.584612 0
M  V30 43 H 10.312749 8.724175 -11.446768 0
M  V30 44 H 8.770502 7.155838 -9.340823 0
M  V30 45 H 9.179172 8.847953 -9.299857 0
M  V30 46 H 11.688786 8.084787 -9.437297 0
M  V30 47 H 11.093409 6.485580 -9.154359 0
M  V30 48 H 12.600469 8.950785 -7.187405 0
M  V30 49 H 11.286927 9.773350 -7.985071 0
M  V30 50 H 9.962242 9.772545 -5.858103 0
M  V30 51 H 11.375449 10.788146 -5.867951 0
M  V30 52 H 12.958452 9.372272 -1.712375 0
M  V30 53 H 10.929475 5.743396 -4.766409 0
M  V30 54 H 9.684804 6.849994 -5.207809 0
M  V30 55 H 12.273083 6.416600 -6.801215 0
M  V30 56 H 10.699957 5.761402 -7.133589 0
M  V30 57 H 10.402161 5.465198 -14.160623 0
M  V30 58 H 10.070561 4.176910 -13.008965 0
M  V30 59 H 8.879858 3.893986 -15.279635 0
M  V30 60 H 8.086135 5.388702 -14.985810 0
M  V30 61 H 9.833320 7.957218 -7.312831 0
M  V30 END ATOM
M  V30 BEGIN BOND
M  V30 1 1 2 1
M  V30 2 1 3 2
M  V30 3 2 4 3
M  V30 4 1 5 4
M  V30 5 2 6 5
M  V30 6 1 7 6
M  V30 7 1 8 3
M  V30 8 2 8 7
M  V30 9 1 9 8
M  V30 10 1 10 9
M  V30 11 1 11 10
M  V30 12 1 12 11
M  V30 13 1 13 12
M  V30 14 1 14 13
M  V30 15 1 15 14
M  V30 16 1 16 15
M  V30 17 1 17 16
M  V30 18 1 18 17
M  V30 19 1 19 18
M  V30 20 1 20 19
M  V30 21 1 21 20
M  V30 22 2 22 21
M  V30 23 1 23 22
M  V30 24 2 24 20
M  V30 25 1 24 23
M  V30 26 1 25 24
M  V30 27 1 26 17
M  V30 28 1 26 25
M  V30 29 1 27 12
M  V30 30 1 28 9
M  V30 31 1 28 27
M  V30 32 1 29 1
M  V30 33 1 30 1
M  V30 34 1 31 1
M  V30 35 1 32 4
M  V30 36 1 33 5
M  V30 37 1 34 6
M  V30 38 1 35 7
M  V30 39 1 36 10
M  V30 40 1 37 10
M  V30 41 1 38 11
M  V30 42 1 39 11
M  V30 43 1 40 13
M  V30 44 1 41 13
M  V30 45 1 42 14
M  V30 46 1 43 14
M  V30 47 1 44 15
M  V30 48 1 45 15
M  V30 49 1 46 16
M  V30 50 1 47 16
M  V30 51 1 48 18
M  V30 52 1 49 18
M  V30 53 1 50 19
M  V30 54 1 51 19
M  V30 55 1 52 22
M  V30 56 1 53 25
M  V30 57 1 54 25
M  V30 58 1 55 26
M  V30 59 1 56 26
M  V30 60 1 57 27
M  V30 61 1 58 27
M  V30 62 1 59 28
M  V30 63 1 60 28
M  V30 64 1 17 61 CFG=1
M  V30 END BOND
M  V30 END CTAB
M  END
>  <b_m_subgroup_collapsed>  (1429) 
0

>  <r_i_docking_score>  (1429) 
-7.1386059174405299

>  <s_m_subgroup_title>  (1429) 
glide-dock_SP_D22_pv

>  <s_m_subgroupid>  (1429) 
glide-dock_SP_D22_pv

>  <Molecule ChEMBL ID>  (1429) 
CHEMBL4582714

>  <Standard Type>  (1429) 
Ki

>  <Standard Value>  (1429) 
85.11

>  <label>  (1429) 
1

$$$$
CHEMBL3759205
     RDKit          3D

  0  0  0  0  0  0  0  0  0  0999 V3000
M  V30 BEGIN CTAB
M  V30 COUNTS 63 66 0 0 1
M  V30 BEGIN ATOM
M  V30 1 C 11.814191 6.623212 -2.460498 0
M  V30 2 C 12.470819 7.749269 -3.266677 0
M  V30 3 C 12.733342 8.938934 -2.321415 0
M  V30 4 C 11.685999 8.108545 -4.536161 0
M  V30 5 C 11.391972 9.452667 -4.845912 0
M  V30 6 C 10.715432 9.772563 -6.027920 0
M  V30 7 C 10.299642 8.768600 -6.914299 0
M  V30 8 C 10.584515 7.409925 -6.640671 0
M  V30 9 O 10.219852 6.368838 -7.475561 0
M  V30 10 C 9.414247 6.695335 -8.607181 0
M  V30 11 C 9.103038 5.455025 -9.465911 0
M  V30 12 N 8.177319 5.771979 -10.595203 0 CFG=2 CHG=1
M  V30 13 C 7.801373 4.671582 -11.507438 0 CFG=1
M  V30 14 C 6.844050 5.381561 -12.480916 0
M  V30 15 C 7.371091 6.828522 -12.539909 0
M  V30 16 C 8.537306 6.860068 -11.529828 0 CFG=2
M  V30 17 C 9.890768 6.541197 -12.210099 0
M  V30 18 C 9.794911 5.241132 -13.038904 0 CFG=1
M  V30 19 N 11.134570 4.821670 -13.446943 0
M  V30 20 S 11.588669 4.659576 -15.102195 0
M  V30 21 O 10.891891 5.704065 -15.870739 0
M  V30 22 O 13.053451 4.572306 -15.124994 0
M  V30 23 C 10.952242 3.059211 -15.598775 0
M  V30 24 C 10.670003 2.055108 -14.648826 0
M  V30 25 C 10.225501 0.789194 -15.083071 0
M  V30 26 C 10.074175 0.530349 -16.458588 0
M  V30 27 F 9.686715 -0.695738 -16.879269 0
M  V30 28 C 10.333547 1.542105 -17.402502 0
M  V30 29 C 10.768090 2.812064 -16.972589 0
M  V30 30 C 9.053651 4.128542 -12.256990 0
M  V30 31 C 11.285356 7.098994 -5.451188 0
M  V30 32 H 11.588634 5.772214 -3.090984 0
M  V30 33 H 12.482950 6.268246 -1.675024 0
M  V30 34 H 10.886436 6.946902 -1.992961 0
M  V30 35 H 13.437090 7.381527 -3.613359 0
M  V30 36 H 13.284979 9.739125 -2.816438 0
M  V30 37 H 11.801493 9.363560 -1.944479 0
M  V30 38 H 13.317348 8.634820 -1.454393 0
M  V30 39 H 11.680500 10.264842 -4.196895 0
M  V30 40 H 10.486928 10.805528 -6.246841 0
M  V30 41 H 9.760638 9.079278 -7.796943 0
M  V30 42 H 8.485614 7.152232 -8.264874 0
M  V30 43 H 9.945385 7.422749 -9.222631 0
M  V30 44 H 10.037172 5.018513 -9.817576 0
M  V30 45 H 8.621973 4.699481 -8.842730 0
M  V30 46 H 7.288826 3.872160 -10.968701 0
M  V30 47 H 6.801484 4.903119 -13.459831 0
M  V30 48 H 5.832070 5.381920 -12.071913 0
M  V30 49 H 7.687325 7.128139 -13.532266 0
M  V30 50 H 6.581059 7.521113 -12.249363 0
M  V30 51 H 8.578973 7.829659 -11.031886 0
M  V30 52 H 10.216646 7.371310 -12.831655 0
M  V30 53 H 10.669277 6.457294 -11.454537 0
M  V30 54 H 9.224648 5.449179 -13.943615 0
M  V30 55 H 11.608306 4.172185 -12.821502 0
M  V30 56 H 10.818674 2.225310 -13.594735 0
M  V30 57 H 10.026434 0.010570 -14.362576 0
M  V30 58 H 10.215331 1.340933 -18.456600 0
M  V30 59 H 10.982972 3.587532 -17.694183 0
M  V30 60 H 9.728454 3.645131 -11.550404 0
M  V30 61 H 8.748877 3.347615 -12.952662 0
M  V30 62 H 11.520574 6.066001 -5.253939 0
M  V30 63 H 7.312975 6.101677 -10.172766 0
M  V30 END ATOM
M  V30 BEGIN BOND
M  V30 1 1 2 1
M  V30 2 1 3 2
M  V30 3 1 4 2
M  V30 4 2 5 4
M  V30 5 1 6 5
M  V30 6 2 7 6
M  V30 7 1 8 7
M  V30 8 1 9 8
M  V30 9 1 10 9
M  V30 10 1 11 10
M  V30 11 1 12 11
M  V30 12 1 13 12
M  V30 13 1 14 13
M  V30 14 1 15 14
M  V30 15 1 16 12
M  V30 16 1 16 15
M  V30 17 1 17 16
M  V30 18 1 18 17
M  V30 19 1 19 18
M  V30 20 1 20 19
M  V30 21 2 21 20
M  V30 22 2 22 20
M  V30 23 1 23 20
M  V30 24 1 24 23
M  V30 25 2 25 24
M  V30 26 1 26 25
M  V30 27 1 27 26
M  V30 28 2 28 26
M  V30 29 2 29 23
M  V30 30 1 29 28
M  V30 31 1 30 13
M  V30 32 1 30 18
M  V30 33 1 31 4
M  V30 34 2 31 8
M  V30 35 1 32 1
M  V30 36 1 33 1
M  V30 37 1 34 1
M  V30 38 1 35 2
M  V30 39 1 36 3
M  V30 40 1 37 3
M  V30 41 1 38 3
M  V30 42 1 39 5
M  V30 43 1 40 6
M  V30 44 1 41 7
M  V30 45 1 42 10
M  V30 46 1 43 10
M  V30 47 1 44 11
M  V30 48 1 45 11
M  V30 49 1 13 46 CFG=1
M  V30 50 1 47 14
M  V30 51 1 48 14
M  V30 52 1 49 15
M  V30 53 1 50 15
M  V30 54 1 16 51 CFG=1
M  V30 55 1 52 17
M  V30 56 1 53 17
M  V30 57 1 18 54 CFG=3
M  V30 58 1 55 19
M  V30 59 1 56 24
M  V30 60 1 57 25
M  V30 61 1 58 28
M  V30 62 1 59 29
M  V30 63 1 60 30
M  V30 64 1 61 30
M  V30 65 1 62 31
M  V30 66 1 12 63 CFG=1
M  V30 END BOND
M  V30 END CTAB
M  END
>  <b_m_subgroup_collapsed>  (1430) 
0

>  <r_i_docking_score>  (1430) 
-7.1384592507965703

>  <s_m_subgroup_title>  (1430) 
glide-dock_SP_D22_pv

>  <s_m_subgroupid>  (1430) 
glide-dock_SP_D22_pv

>  <Molecule ChEMBL ID>  (1430) 
CHEMBL3759205

>  <Standard Type>  (1430) 
Ki

>  <Standard Value>  (1430) 
60.0

>  <label>  (1430) 
1

$$$$
CHEMBL160519
     RDKit          3D

  0  0  0  0  0  0  0  0  0  0999 V3000
M  V30 BEGIN CTAB
M  V30 COUNTS 44 45 0 0 1
M  V30 BEGIN ATOM
M  V30 1 C 9.517030 4.208120 -9.396756 0
M  V30 2 C 8.372858 4.963495 -10.098608 0
M  V30 3 C 8.835836 6.009966 -11.140527 0 CFG=2
M  V30 4 N 8.886024 7.378122 -10.552881 0 CHG=1
M  V30 5 C 9.756514 7.616911 -9.376791 0
M  V30 6 C 9.418836 8.972373 -8.756731 0
M  V30 7 C 11.246157 7.557281 -9.749566 0
M  V30 8 C 7.980406 6.027643 -12.450299 0 CFG=2
M  V30 9 O 6.620674 6.362892 -12.246866 0
M  V30 10 C 8.179787 4.783419 -13.337401 0
M  V30 11 C 9.342463 4.776724 -14.141132 0
M  V30 12 C 9.647909 3.693565 -14.982301 0
M  V30 13 C 8.798550 2.577052 -15.035506 0
M  V30 14 O 9.143123 1.531818 -15.846630 0
M  V30 15 C 7.627110 2.556408 -14.246866 0
M  V30 16 N 6.781941 1.406065 -14.263812 0
M  V30 17 C 5.686018 1.221191 -13.501851 0
M  V30 18 O 5.048300 0.172325 -13.540987 0
M  V30 19 C 5.336731 2.343395 -12.646192 0
M  V30 20 C 6.074292 3.469456 -12.601194 0
M  V30 21 C 7.301242 3.654977 -13.406043 0
M  V30 22 H 9.121629 3.521758 -8.646864 0
M  V30 23 H 10.086022 3.621211 -10.116385 0
M  V30 24 H 10.220613 4.860833 -8.886302 0
M  V30 25 H 7.730800 5.439925 -9.356791 0
M  V30 26 H 7.745152 4.214489 -10.576916 0
M  V30 27 H 9.851007 5.760313 -11.449513 0
M  V30 28 H 9.133443 8.036068 -11.275795 0
M  V30 29 H 9.537738 6.881216 -8.605992 0
M  V30 30 H 10.034733 9.171111 -7.879051 0
M  V30 31 H 9.590717 9.772324 -9.473099 0
M  V30 32 H 8.377850 9.021474 -8.437691 0
M  V30 33 H 11.874115 7.768946 -8.883263 0
M  V30 34 H 11.527007 6.572379 -10.113000 0
M  V30 35 H 11.497410 8.285401 -10.521978 0
M  V30 36 H 8.352030 6.861582 -13.046854 0
M  V30 37 H 6.507980 7.008764 -11.543429 0
M  V30 38 H 10.023550 5.614836 -14.115571 0
M  V30 39 H 10.546676 3.715357 -15.581502 0
M  V30 40 H 8.607202 0.761324 -15.756775 0
M  V30 41 H 7.027314 0.643591 -14.873429 0
M  V30 42 H 4.486022 2.239018 -11.997991 0
M  V30 43 H 5.762832 4.227574 -11.904382 0
M  V30 44 H 7.919487 7.596048 -10.262499 0
M  V30 END ATOM
M  V30 BEGIN BOND
M  V30 1 1 2 1
M  V30 2 1 3 2
M  V30 3 1 4 3
M  V30 4 1 5 4
M  V30 5 1 6 5
M  V30 6 1 7 5
M  V30 7 1 8 3
M  V30 8 1 9 8
M  V30 9 1 10 8
M  V30 10 1 11 10
M  V30 11 2 12 11
M  V30 12 1 13 12
M  V30 13 1 14 13
M  V30 14 2 15 13
M  V30 15 1 16 15
M  V30 16 1 17 16
M  V30 17 2 18 17
M  V30 18 1 19 17
M  V30 19 2 20 19
M  V30 20 2 21 10
M  V30 21 1 21 15
M  V30 22 1 21 20
M  V30 23 1 22 1
M  V30 24 1 23 1
M  V30 25 1 24 1
M  V30 26 1 25 2
M  V30 27 1 26 2
M  V30 28 1 3 27 CFG=3
M  V30 29 1 28 4
M  V30 30 1 29 5
M  V30 31 1 30 6
M  V30 32 1 31 6
M  V30 33 1 32 6
M  V30 34 1 33 7
M  V30 35 1 34 7
M  V30 36 1 35 7
M  V30 37 1 8 36 CFG=3
M  V30 38 1 37 9
M  V30 39 1 38 11
M  V30 40 1 39 12
M  V30 41 1 40 14
M  V30 42 1 41 16
M  V30 43 1 42 19
M  V30 44 1 43 20
M  V30 45 1 44 4
M  V30 END BOND
M  V30 END CTAB
M  END
>  <b_m_subgroup_collapsed>  (1431) 
0

>  <r_i_docking_score>  (1431) 
-7.1375800558140696

>  <s_m_subgroup_title>  (1431) 
glide-dock_SP_D22_pv

>  <s_m_subgroupid>  (1431) 
glide-dock_SP_D22_pv

>  <Molecule ChEMBL ID>  (1431) 
CHEMBL160519

>  <Standard Type>  (1431) 
Ki

>  <Standard Value>  (1431) 
86000.0

>  <label>  (1431) 
0

$$$$
CHEMBL104238
     RDKit          3D

  0  0  0  0  0  0  0  0  0  0999 V3000
M  V30 BEGIN CTAB
M  V30 COUNTS 52 55 0 0 1
M  V30 BEGIN ATOM
M  V30 1 O 7.634872 6.111643 -13.046737 0
M  V30 2 C 8.099337 4.976253 -12.930189 0
M  V30 3 C 9.293687 4.770514 -11.975411 0
M  V30 4 N 9.229636 5.710044 -10.829299 0
M  V30 5 C 10.098997 6.873114 -11.009654 0
M  V30 6 C 9.810833 7.921280 -9.917900 0
M  V30 7 N 9.964241 7.353873 -8.551617 0 CHG=1
M  V30 8 C 9.659465 8.363278 -7.501317 0
M  V30 9 C 10.565558 8.331718 -6.269607 0
M  V30 10 C 11.012219 7.124045 -5.680676 0
M  V30 11 C 11.682303 7.136583 -4.440553 0
M  V30 12 C 11.885344 8.354729 -3.766969 0
M  V30 13 Cl 12.485913 8.361037 -2.155451 0
M  V30 14 C 11.520206 9.564433 -4.379408 0
M  V30 15 C 10.885467 9.553723 -5.634549 0
M  V30 16 C 9.128158 6.129559 -8.431429 0
M  V30 17 C 9.463819 5.096527 -9.523604 0
M  V30 18 N 7.582890 3.921613 -13.616166 0
M  V30 19 C 6.123877 3.878407 -13.810219 0
M  V30 20 C 5.548487 2.683615 -13.052610 0
M  V30 21 S 6.116203 1.167836 -13.846848 0
M  V30 22 C 7.792650 1.528321 -14.299233 0
M  V30 23 C 8.562877 0.475016 -14.828652 0
M  V30 24 C 9.898608 0.684830 -15.211550 0
M  V30 25 C 10.462120 1.965511 -15.090927 0
M  V30 26 C 9.698400 3.027741 -14.570426 0
M  V30 27 C 8.360473 2.827380 -14.140296 0
M  V30 28 H 9.272508 3.745616 -11.615431 0
M  V30 29 H 10.237373 4.887501 -12.507487 0
M  V30 30 H 11.145460 6.575093 -10.980625 0
M  V30 31 H 9.922163 7.319155 -11.990136 0
M  V30 32 H 10.495358 8.760398 -10.041132 0
M  V30 33 H 8.802649 8.314907 -10.045493 0
M  V30 34 H 9.743894 9.363586 -7.931857 0
M  V30 35 H 8.617840 8.282250 -7.180802 0
M  V30 36 H 10.813730 6.167428 -6.135743 0
M  V30 37 H 11.967134 6.202788 -3.975322 0
M  V30 38 H 11.673419 10.495492 -3.855019 0
M  V30 39 H 10.563792 10.493279 -6.059156 0
M  V30 40 H 9.227015 5.667420 -7.451127 0
M  V30 41 H 8.085615 6.414132 -8.525508 0
M  V30 42 H 8.805841 4.234535 -9.401465 0
M  V30 43 H 10.485652 4.735949 -9.426451 0
M  V30 44 H 5.894353 3.775613 -14.868567 0
M  V30 45 H 5.616477 4.784590 -13.474343 0
M  V30 46 H 4.459626 2.700691 -13.048916 0
M  V30 47 H 5.866562 2.699216 -12.009199 0
M  V30 48 H 8.126602 -0.507688 -14.941231 0
M  V30 49 H 10.483024 -0.131691 -15.611175 0
M  V30 50 H 11.481341 2.136180 -15.406383 0
M  V30 51 H 10.159708 4.001710 -14.527775 0
M  V30 52 H 10.931294 7.084284 -8.448329 0
M  V30 END ATOM
M  V30 BEGIN BOND
M  V30 1 2 2 1
M  V30 2 1 3 2
M  V30 3 1 4 3
M  V30 4 1 5 4
M  V30 5 1 6 5
M  V30 6 1 7 6
M  V30 7 1 8 7
M  V30 8 1 9 8
M  V30 9 1 10 9
M  V30 10 2 11 10
M  V30 11 1 12 11
M  V30 12 1 13 12
M  V30 13 2 14 12
M  V30 14 2 15 9
M  V30 15 1 15 14
M  V30 16 1 16 7
M  V30 17 1 17 4
M  V30 18 1 17 16
M  V30 19 1 18 2
M  V30 20 1 19 18
M  V30 21 1 20 19
M  V30 22 1 21 20
M  V30 23 1 22 21
M  V30 24 2 23 22
M  V30 25 1 24 23
M  V30 26 2 25 24
M  V30 27 1 26 25
M  V30 28 1 27 18
M  V30 29 1 27 22
M  V30 30 2 27 26
M  V30 31 1 28 3
M  V30 32 1 29 3
M  V30 33 1 30 5
M  V30 34 1 31 5
M  V30 35 1 32 6
M  V30 36 1 33 6
M  V30 37 1 34 8
M  V30 38 1 35 8
M  V30 39 1 36 10
M  V30 40 1 37 11
M  V30 41 1 38 14
M  V30 42 1 39 15
M  V30 43 1 40 16
M  V30 44 1 41 16
M  V30 45 1 42 17
M  V30 46 1 43 17
M  V30 47 1 44 19
M  V30 48 1 45 19
M  V30 49 1 46 20
M  V30 50 1 47 20
M  V30 51 1 48 23
M  V30 52 1 49 24
M  V30 53 1 50 25
M  V30 54 1 51 26
M  V30 55 1 52 7
M  V30 END BOND
M  V30 END CTAB
M  END
>  <b_m_subgroup_collapsed>  (1432) 
0

>  <r_i_docking_score>  (1432) 
-7.1368440230318004

>  <s_m_subgroup_title>  (1432) 
glide-dock_SP_D22_pv

>  <s_m_subgroupid>  (1432) 
glide-dock_SP_D22_pv

>  <Molecule ChEMBL ID>  (1432) 
CHEMBL104238

>  <Standard Type>  (1432) 
Ki

>  <Standard Value>  (1432) 
10000.0

>  <label>  (1432) 
0

$$$$
CHEMBL552631
     RDKit          3D

  0  0  0  0  0  0  0  0  0  0999 V3000
M  V30 BEGIN CTAB
M  V30 COUNTS 35 37 0 0 1
M  V30 BEGIN ATOM
M  V30 1 C 10.213680 7.317307 -12.243073 0
M  V30 2 N 10.486420 8.098667 -11.047072 0
M  V30 3 C 11.730300 7.633565 -10.443303 0
M  V30 4 C 12.015488 8.447003 -9.176997 0
M  V30 5 C 10.868840 8.270292 -8.175115 0
M  V30 6 C 9.554726 8.707567 -8.828537 0
M  V30 7 C 9.348308 7.941689 -10.142476 0
M  V30 8 O 10.770988 6.893667 -7.822833 0
M  V30 9 C 11.029900 6.782754 -6.491304 0
M  V30 10 C 11.268966 7.921353 -5.834835 0
M  V30 11 C 11.686016 8.039343 -4.430314 0
M  V30 12 C 12.077291 6.882326 -3.721562 0
M  V30 13 C 12.480430 6.971869 -2.382089 0
M  V30 14 C 12.486282 8.221555 -1.743255 0
M  V30 15 C 12.086025 9.372325 -2.436265 0
M  V30 16 C 11.686128 9.288900 -3.776005 0
M  V30 17 C 11.157657 8.955956 -6.843092 0
M  V30 18 O 11.286105 10.170383 -6.689251 0
M  V30 19 H 9.244210 7.606202 -12.646791 0
M  V30 20 H 10.975607 7.487396 -13.004188 0
M  V30 21 H 10.176652 6.248826 -12.024323 0
M  V30 22 H 12.548756 7.755190 -11.153543 0
M  V30 23 H 11.655042 6.573714 -10.199515 0
M  V30 24 H 12.086240 9.498280 -9.449847 0
M  V30 25 H 12.972117 8.154611 -8.742208 0
M  V30 26 H 8.708542 8.539086 -8.160382 0
M  V30 27 H 9.579117 9.772282 -9.045856 0
M  V30 28 H 8.485987 8.350682 -10.654400 0
M  V30 29 H 9.148665 6.887712 -9.941503 0
M  V30 30 H 11.049824 5.772335 -6.124063 0
M  V30 31 H 12.082603 5.910389 -4.190577 0
M  V30 32 H 12.781025 6.082378 -1.847185 0
M  V30 33 H 12.806835 8.296944 -0.716686 0
M  V30 34 H 12.086027 10.326620 -1.938905 0
M  V30 35 H 11.373109 10.193215 -4.272972 0
M  V30 END ATOM
M  V30 BEGIN BOND
M  V30 1 1 2 1
M  V30 2 1 3 2
M  V30 3 1 4 3
M  V30 4 1 5 4
M  V30 5 1 6 5
M  V30 6 1 7 2
M  V30 7 1 7 6
M  V30 8 1 8 5
M  V30 9 1 9 8
M  V30 10 2 10 9
M  V30 11 1 11 10
M  V30 12 2 12 11
M  V30 13 1 13 12
M  V30 14 2 14 13
M  V30 15 1 15 14
M  V30 16 1 16 11
M  V30 17 2 16 15
M  V30 18 1 17 5
M  V30 19 1 17 10
M  V30 20 2 18 17
M  V30 21 1 19 1
M  V30 22 1 20 1
M  V30 23 1 21 1
M  V30 24 1 22 3
M  V30 25 1 23 3
M  V30 26 1 24 4
M  V30 27 1 25 4
M  V30 28 1 26 6
M  V30 29 1 27 6
M  V30 30 1 28 7
M  V30 31 1 29 7
M  V30 32 1 30 9
M  V30 33 1 31 12
M  V30 34 1 32 13
M  V30 35 1 33 14
M  V30 36 1 34 15
M  V30 37 1 35 16
M  V30 END BOND
M  V30 END CTAB
M  END
>  <b_m_subgroup_collapsed>  (1433) 
0

>  <r_i_docking_score>  (1433) 
-7.13624940115165

>  <s_m_subgroup_title>  (1433) 
glide-dock_SP_D22_pv

>  <s_m_subgroupid>  (1433) 
glide-dock_SP_D22_pv

>  <Molecule ChEMBL ID>  (1433) 
CHEMBL552631

>  <Standard Type>  (1433) 
Ki

>  <Standard Value>  (1433) 
10000.0

>  <label>  (1433) 
0

$$$$
CHEMBL352182
     RDKit          3D

  0  0  0  0  0  0  0  0  0  0999 V3000
M  V30 BEGIN CTAB
M  V30 COUNTS 59 63 0 0 1
M  V30 BEGIN ATOM
M  V30 1 N 12.484366 8.172314 -10.383389 0
M  V30 2 C 11.486776 8.053546 -9.412024 0
M  V30 3 C 11.802767 8.573072 -8.140348 0
M  V30 4 C 10.861781 8.563858 -7.099777 0
M  V30 5 Br 11.286395 9.336933 -5.412377 0
M  V30 6 C 9.599751 7.994629 -7.321342 0
M  V30 7 C 9.286110 7.447191 -8.578230 0
M  V30 8 C 10.207618 7.461049 -9.659750 0
M  V30 9 C 9.821836 6.894225 -11.013452 0
M  V30 10 O 10.548551 6.973419 -12.005758 0
M  V30 11 C 8.473437 6.169243 -11.207575 0
M  V30 12 C 8.583176 4.752145 -11.823242 0
M  V30 13 C 8.621126 4.728082 -13.365997 0
M  V30 14 N 8.808251 3.350990 -13.901195 0 CFG=2 CHG=1
M  V30 15 C 9.535995 3.335290 -15.197878 0
M  V30 16 C 9.940062 1.903859 -15.580498 0
M  V30 17 C 8.782898 0.883340 -15.501680 0 CFG=1
M  V30 18 C 7.850191 1.078919 -14.319099 0 CFG=1
M  V30 19 C 7.547424 2.572580 -14.037114 0
M  V30 20 C 6.617646 0.378338 -14.801606 0
M  V30 21 C 5.495834 -0.117529 -14.122050 0
M  V30 22 C 4.434943 -0.650088 -14.884191 0
M  V30 23 C 4.483191 -0.628002 -16.298525 0
M  V30 24 C 5.589340 -0.114261 -17.019260 0
M  V30 25 C 6.665189 0.315655 -16.202896 0
M  V30 26 N 7.935795 0.769000 -16.689283 0
M  V30 27 C 8.537746 -0.083072 -17.717743 0
M  V30 28 C 8.128181 0.251859 -19.152790 0
M  V30 29 C 6.870049 -0.489590 -19.584311 0
M  V30 30 S 5.417519 0.167856 -18.756918 0
M  V30 31 H 13.165677 8.917706 -10.268746 0
M  V30 32 H 12.219485 7.998877 -11.344899 0
M  V30 33 H 12.774425 9.009996 -7.962245 0
M  V30 34 H 8.861145 7.980935 -6.532573 0
M  V30 35 H 8.291430 7.045098 -8.663061 0
M  V30 36 H 7.934028 6.072401 -10.274611 0
M  V30 37 H 7.835280 6.793574 -11.835276 0
M  V30 38 H 9.462473 4.245100 -11.420099 0
M  V30 39 H 7.724259 4.172479 -11.482707 0
M  V30 40 H 7.714258 5.171306 -13.782743 0
M  V30 41 H 9.445737 5.359212 -13.698161 0
M  V30 42 H 8.913816 3.771980 -15.980668 0
M  V30 43 H 10.437816 3.946224 -15.135531 0
M  V30 44 H 10.405920 1.893835 -16.566034 0
M  V30 45 H 10.716212 1.583427 -14.883609 0
M  V30 46 H 9.239816 -0.101631 -15.376239 0
M  V30 47 H 8.259668 0.573868 -13.447034 0
M  V30 48 H 6.898836 2.676492 -13.164172 0
M  V30 49 H 6.974784 2.987970 -14.867747 0
M  V30 50 H 5.446814 -0.079598 -13.043742 0
M  V30 51 H 3.556453 -1.037773 -14.388158 0
M  V30 52 H 3.618400 -0.973952 -16.845104 0
M  V30 53 H 9.621277 0.023433 -17.658470 0
M  V30 54 H 8.339661 -1.134047 -17.498089 0
M  V30 55 H 8.026076 1.328104 -19.294140 0
M  V30 56 H 8.935666 -0.062233 -19.814775 0
M  V30 57 H 6.723902 -0.376161 -20.658350 0
M  V30 58 H 6.952075 -1.558558 -19.384762 0
M  V30 59 H 9.394598 2.866946 -13.232622 0
M  V30 END ATOM
M  V30 BEGIN BOND
M  V30 1 1 2 1
M  V30 2 1 3 2
M  V30 3 2 4 3
M  V30 4 1 5 4
M  V30 5 1 6 4
M  V30 6 2 7 6
M  V30 7 2 8 2
M  V30 8 1 8 7
M  V30 9 1 9 8
M  V30 10 2 10 9
M  V30 11 1 11 9
M  V30 12 1 12 11
M  V30 13 1 13 12
M  V30 14 1 14 13
M  V30 15 1 15 14
M  V30 16 1 16 15
M  V30 17 1 17 16
M  V30 18 1 18 17
M  V30 19 1 19 14
M  V30 20 1 19 18
M  V30 21 1 20 18
M  V30 22 2 21 20
M  V30 23 1 22 21
M  V30 24 2 23 22
M  V30 25 1 24 23
M  V30 26 1 25 20
M  V30 27 2 25 24
M  V30 28 1 26 17
M  V30 29 1 26 25
M  V30 30 1 27 26
M  V30 31 1 28 27
M  V30 32 1 29 28
M  V30 33 1 30 24
M  V30 34 1 30 29
M  V30 35 1 31 1
M  V30 36 1 32 1
M  V30 37 1 33 3
M  V30 38 1 34 6
M  V30 39 1 35 7
M  V30 40 1 36 11
M  V30 41 1 37 11
M  V30 42 1 38 12
M  V30 43 1 39 12
M  V30 44 1 40 13
M  V30 45 1 41 13
M  V30 46 1 42 15
M  V30 47 1 43 15
M  V30 48 1 44 16
M  V30 49 1 45 16
M  V30 50 1 17 46 CFG=1
M  V30 51 1 18 47 CFG=1
M  V30 52 1 48 19
M  V30 53 1 49 19
M  V30 54 1 50 21
M  V30 55 1 51 22
M  V30 56 1 52 23
M  V30 57 1 53 27
M  V30 58 1 54 27
M  V30 59 1 55 28
M  V30 60 1 56 28
M  V30 61 1 57 29
M  V30 62 1 58 29
M  V30 63 1 14 59 CFG=1
M  V30 END BOND
M  V30 END CTAB
M  END
>  <b_m_subgroup_collapsed>  (1434) 
0

>  <r_i_docking_score>  (1434) 
-7.1352053856613598

>  <s_m_subgroup_title>  (1434) 
glide-dock_SP_D22_pv

>  <s_m_subgroupid>  (1434) 
glide-dock_SP_D22_pv

>  <Molecule ChEMBL ID>  (1434) 
CHEMBL352182

>  <Standard Type>  (1434) 
Ki

>  <Standard Value>  (1434) 
4.7

>  <label>  (1434) 
1

$$$$
CHEMBL90005
     RDKit          3D

  0  0  0  0  0  0  0  0  0  0999 V3000
M  V30 BEGIN CTAB
M  V30 COUNTS 49 52 0 0 1
M  V30 BEGIN ATOM
M  V30 1 C 8.314728 4.413005 -13.136737 0
M  V30 2 C 9.711372 4.993588 -13.302263 0
M  V30 3 C 10.673240 4.627885 -14.156280 0
M  V30 4 C 10.777705 3.492604 -15.024837 0
M  V30 5 C 10.186295 2.281906 -14.763433 0
M  V30 6 C 10.479580 1.312030 -15.767456 0
M  V30 7 C 11.280252 1.803034 -16.767593 0
M  V30 8 S 11.701327 3.475202 -16.501133 0
M  V30 9 N 11.706479 5.515503 -13.967792 0
M  V30 10 C 11.386567 6.428288 -13.046897 0
M  V30 11 O 12.112471 7.361486 -12.714056 0
M  V30 12 N 10.166854 6.090033 -12.558734 0
M  V30 13 C 9.496911 6.578110 -11.326531 0 CFG=1
M  V30 14 C 9.466908 5.461978 -10.254128 0
M  V30 15 C 8.812893 5.921771 -8.951372 0
M  V30 16 N 9.530673 7.095037 -8.404823 0 CFG=2 CHG=1
M  V30 17 C 9.073485 7.458042 -7.046985 0
M  V30 18 C 10.220975 7.974582 -6.195850 0
M  V30 19 C 10.584035 9.333669 -6.251709 0
M  V30 20 C 11.567186 9.844991 -5.388578 0
M  V30 21 C 12.180071 9.004581 -4.440102 0
M  V30 22 C 11.839053 7.639396 -4.390302 0
M  V30 23 C 10.885936 7.119710 -5.288019 0
M  V30 24 C 9.507910 8.232390 -9.360537 0
M  V30 25 C 10.150576 7.832797 -10.692295 0
M  V30 26 H 8.363453 3.443099 -12.646547 0
M  V30 27 H 7.647182 5.053520 -12.562114 0
M  V30 28 H 7.857863 4.271996 -14.116668 0
M  V30 29 H 9.583347 2.040719 -13.900792 0
M  V30 30 H 10.103955 0.300648 -15.717141 0
M  V30 31 H 11.654622 1.285243 -17.638342 0
M  V30 32 H 12.569760 5.480292 -14.489664 0
M  V30 33 H 8.473233 6.852256 -11.585712 0
M  V30 34 H 8.944461 4.574475 -10.604681 0
M  V30 35 H 10.482586 5.145749 -10.026367 0
M  V30 36 H 8.832505 5.099012 -8.235293 0
M  V30 37 H 7.764512 6.172336 -9.119856 0
M  V30 38 H 8.264342 8.189948 -7.091517 0
M  V30 39 H 8.652129 6.587751 -6.540925 0
M  V30 40 H 10.090112 9.997209 -6.941446 0
M  V30 41 H 11.828906 10.890554 -5.447234 0
M  V30 42 H 12.914612 9.405765 -3.757641 0
M  V30 43 H 12.313210 6.989043 -3.669339 0
M  V30 44 H 10.617765 6.076758 -5.225561 0
M  V30 45 H 10.056904 9.080638 -8.957041 0
M  V30 46 H 8.486318 8.572585 -9.520438 0
M  V30 47 H 11.203825 7.648979 -10.478930 0
M  V30 48 H 10.104233 8.671250 -11.387760 0
M  V30 49 H 10.494068 6.811222 -8.302875 0
M  V30 END ATOM
M  V30 BEGIN BOND
M  V30 1 1 2 1
M  V30 2 2 3 2
M  V30 3 1 4 3
M  V30 4 2 5 4
M  V30 5 1 6 5
M  V30 6 2 7 6
M  V30 7 1 8 4
M  V30 8 1 8 7
M  V30 9 1 9 3
M  V30 10 1 10 9
M  V30 11 2 11 10
M  V30 12 1 12 2
M  V30 13 1 12 10
M  V30 14 1 13 12
M  V30 15 1 14 13
M  V30 16 1 15 14
M  V30 17 1 16 15
M  V30 18 1 17 16
M  V30 19 1 18 17
M  V30 20 2 19 18
M  V30 21 1 20 19
M  V30 22 2 21 20
M  V30 23 1 22 21
M  V30 24 1 23 18
M  V30 25 2 23 22
M  V30 26 1 24 16
M  V30 27 1 25 13
M  V30 28 1 25 24
M  V30 29 1 26 1
M  V30 30 1 27 1
M  V30 31 1 28 1
M  V30 32 1 29 5
M  V30 33 1 30 6
M  V30 34 1 31 7
M  V30 35 1 32 9
M  V30 36 1 13 33 CFG=3
M  V30 37 1 34 14
M  V30 38 1 35 14
M  V30 39 1 36 15
M  V30 40 1 37 15
M  V30 41 1 38 17
M  V30 42 1 39 17
M  V30 43 1 40 19
M  V30 44 1 41 20
M  V30 45 1 42 21
M  V30 46 1 43 22
M  V30 47 1 44 23
M  V30 48 1 45 24
M  V30 49 1 46 24
M  V30 50 1 47 25
M  V30 51 1 48 25
M  V30 52 1 16 49 CFG=1
M  V30 END BOND
M  V30 END CTAB
M  END
>  <b_m_subgroup_collapsed>  (1435) 
0

>  <r_i_docking_score>  (1435) 
-7.1343825624082902

>  <s_m_subgroup_title>  (1435) 
glide-dock_SP_D22_pv

>  <s_m_subgroupid>  (1435) 
glide-dock_SP_D22_pv

>  <Molecule ChEMBL ID>  (1435) 
CHEMBL90005

>  <Standard Type>  (1435) 
Ki

>  <Standard Value>  (1435) 
7.8

>  <label>  (1435) 
1

$$$$
CHEMBL542646
     RDKit          3D

  0  0  0  0  0  0  0  0  0  0999 V3000
M  V30 BEGIN CTAB
M  V30 COUNTS 43 46 0 0 1
M  V30 BEGIN ATOM
M  V30 1 C 6.836050 4.919602 -12.251897 0
M  V30 2 N 7.686017 5.772325 -11.390841 0 CFG=2 CHG=1
M  V30 3 C 8.790292 6.471053 -12.075586 0 CFG=2
M  V30 4 C 9.897217 5.424755 -12.182052 0
M  V30 5 C 9.690121 4.562406 -10.931425 0
M  V30 6 C 8.383541 5.062753 -10.310397 0 CFG=1
M  V30 7 C 8.663185 6.107170 -9.212497 0
M  V30 8 C 9.470733 7.372709 -9.697467 0 CFG=1
M  V30 9 C 9.108957 8.660627 -8.936450 0
M  V30 10 C 9.372001 8.428326 -7.471527 0
M  V30 11 O 8.486077 8.572330 -6.646865 0
M  V30 12 C 10.706633 7.961432 -7.155235 0
M  V30 13 C 11.224341 8.003439 -5.780591 0
M  V30 14 C 11.286036 6.810243 -5.034836 0
M  V30 15 C 11.717544 6.834656 -3.694707 0
M  V30 16 C 12.086025 8.052637 -3.095361 0
M  V30 17 C 12.020084 9.246487 -3.837310 0
M  V30 18 C 11.583902 9.228619 -5.178247 0
M  V30 19 C 11.367262 7.372325 -8.172851 0
M  V30 20 O 10.876650 7.133941 -9.455482 0
M  V30 21 C 9.243124 7.674507 -11.213552 0
M  V30 22 H 7.410454 4.128167 -12.734215 0
M  V30 23 H 6.047319 4.453416 -11.660482 0
M  V30 24 H 6.357893 5.519484 -13.026641 0
M  V30 25 H 8.478145 6.829850 -13.053374 0
M  V30 26 H 10.886124 5.874548 -12.246731 0
M  V30 27 H 9.757609 4.818253 -13.077836 0
M  V30 28 H 10.486021 4.690506 -10.201112 0
M  V30 29 H 9.686017 3.510693 -11.213788 0
M  V30 30 H 7.789279 4.242036 -9.906634 0
M  V30 31 H 9.163074 5.630194 -8.368587 0
M  V30 32 H 7.689411 6.393194 -8.829180 0
M  V30 33 H 8.086021 8.972343 -9.092164 0
M  V30 34 H 9.736224 9.484759 -9.276309 0
M  V30 35 H 10.992690 5.873784 -5.484363 0
M  V30 36 H 11.759624 5.918190 -3.124255 0
M  V30 37 H 12.412644 8.073228 -2.065904 0
M  V30 38 H 12.299530 10.172321 -3.362585 0
M  V30 39 H 11.522149 10.151214 -5.737231 0
M  V30 40 H 12.353777 6.972325 -8.027678 0
M  V30 41 H 8.472326 8.438221 -11.315659 0
M  V30 42 H 10.137188 8.132113 -11.638522 0
M  V30 43 H 7.078357 6.475924 -10.962685 0
M  V30 END ATOM
M  V30 BEGIN BOND
M  V30 1 1 2 1
M  V30 2 1 3 2
M  V30 3 1 4 3
M  V30 4 1 5 4
M  V30 5 1 6 2
M  V30 6 1 6 5
M  V30 7 1 7 6
M  V30 8 1 8 7
M  V30 9 1 9 8
M  V30 10 1 10 9
M  V30 11 2 11 10
M  V30 12 1 12 10
M  V30 13 1 13 12
M  V30 14 2 14 13
M  V30 15 1 15 14
M  V30 16 2 16 15
M  V30 17 1 17 16
M  V30 18 1 18 13
M  V30 19 2 18 17
M  V30 20 2 19 12
M  V30 21 1 8 20 CFG=3
M  V30 22 1 20 19
M  V30 23 1 21 3
M  V30 24 1 21 8
M  V30 25 1 22 1
M  V30 26 1 23 1
M  V30 27 1 24 1
M  V30 28 1 3 25 CFG=3
M  V30 29 1 26 4
M  V30 30 1 27 4
M  V30 31 1 28 5
M  V30 32 1 29 5
M  V30 33 1 6 30 CFG=1
M  V30 34 1 31 7
M  V30 35 1 32 7
M  V30 36 1 33 9
M  V30 37 1 34 9
M  V30 38 1 35 14
M  V30 39 1 36 15
M  V30 40 1 37 16
M  V30 41 1 38 17
M  V30 42 1 39 18
M  V30 43 1 40 19
M  V30 44 1 41 21
M  V30 45 1 42 21
M  V30 46 1 2 43 CFG=1
M  V30 END BOND
M  V30 END CTAB
M  END
>  <b_m_subgroup_collapsed>  (1436) 
0

>  <r_i_docking_score>  (1436) 
-7.1311929296272503

>  <s_m_subgroup_title>  (1436) 
glide-dock_SP_D22_pv

>  <s_m_subgroupid>  (1436) 
glide-dock_SP_D22_pv

>  <Molecule ChEMBL ID>  (1436) 
CHEMBL542646

>  <Standard Type>  (1436) 
Ki

>  <Standard Value>  (1436) 
10000.0

>  <label>  (1436) 
0

$$$$
CHEMBL321121
     RDKit          3D

  0  0  0  0  0  0  0  0  0  0999 V3000
M  V30 BEGIN CTAB
M  V30 COUNTS 60 63 0 0 1
M  V30 BEGIN ATOM
M  V30 1 C 11.340439 1.222792 -17.116114 0
M  V30 2 C 10.192025 2.094485 -16.585089 0
M  V30 3 C 9.826837 1.780562 -15.115525 0 CFG=2
M  V30 4 C 9.151169 0.395811 -14.956107 0
M  V30 5 C 7.789915 0.731834 -14.426689 0
M  V30 6 C 6.757006 -0.177804 -14.138724 0
M  V30 7 C 5.542129 0.325166 -13.634830 0
M  V30 8 C 5.372138 1.713593 -13.446970 0
M  V30 9 C 6.395874 2.617118 -13.806579 0
M  V30 10 C 7.639281 2.104416 -14.246947 0
M  V30 11 N 8.869428 2.760725 -14.548879 0
M  V30 12 C 9.296339 3.994920 -14.159513 0
M  V30 13 O 10.440910 4.379246 -14.407469 0
M  V30 14 C 8.381077 4.954650 -13.365896 0
M  V30 15 N 9.069478 6.054378 -12.646811 0
M  V30 16 C 9.786165 5.518884 -11.485606 0
M  V30 17 C 10.527529 6.666193 -10.778931 0
M  V30 18 N 9.530622 7.600012 -10.210099 0 CHG=1
M  V30 19 C 10.094916 8.613104 -9.273102 0
M  V30 20 C 10.447927 8.173855 -7.836368 0
M  V30 21 C 10.810126 6.859099 -7.457549 0
M  V30 22 C 11.266565 6.584967 -6.152257 0
M  V30 23 C 11.286145 7.587101 -5.167454 0
M  V30 24 C 11.759745 7.265348 -3.764882 0
M  V30 25 C 10.886127 8.886463 -5.511508 0
M  V30 26 C 10.486206 9.166488 -6.829147 0
M  V30 27 C 8.812463 8.186282 -11.375590 0
M  V30 28 C 8.104394 7.061575 -12.186256 0
M  V30 29 H 11.571148 1.478458 -18.150076 0
M  V30 30 H 12.247112 1.374078 -16.530224 0
M  V30 31 H 11.094639 0.161023 -17.082117 0
M  V30 32 H 9.312122 1.969657 -17.217899 0
M  V30 33 H 10.487132 3.138938 -16.689344 0
M  V30 34 H 10.735579 1.789140 -14.510077 0
M  V30 35 H 9.690611 -0.227647 -14.243799 0
M  V30 36 H 9.061795 -0.148237 -15.895973 0
M  V30 37 H 6.887311 -1.237557 -14.299158 0
M  V30 38 H 4.731066 -0.352307 -13.420023 0
M  V30 39 H 4.431867 2.090351 -13.071235 0
M  V30 40 H 6.188103 3.669980 -13.715090 0
M  V30 41 H 7.684819 5.369680 -14.090055 0
M  V30 42 H 7.814117 4.393920 -12.625205 0
M  V30 43 H 9.106004 5.021290 -10.791074 0
M  V30 44 H 10.485559 4.759652 -11.821653 0
M  V30 45 H 11.214275 6.294910 -10.029728 0
M  V30 46 H 11.168866 7.191237 -11.490680 0
M  V30 47 H 10.971873 9.078828 -9.725633 0
M  V30 48 H 9.351102 9.402921 -9.172931 0
M  V30 49 H 10.768348 6.019325 -8.123878 0
M  V30 50 H 11.621179 5.600895 -5.903051 0
M  V30 51 H 11.371367 6.299524 -3.439350 0
M  V30 52 H 12.848693 7.224600 -3.735140 0
M  V30 53 H 11.429227 8.021073 -3.054410 0
M  V30 54 H 10.896644 9.676765 -4.776119 0
M  V30 55 H 10.198916 10.171998 -7.046904 0
M  V30 56 H 8.086453 8.933307 -11.047462 0
M  V30 57 H 9.509719 8.723230 -12.019985 0
M  V30 58 H 7.600624 7.504186 -13.044474 0
M  V30 59 H 7.333717 6.571378 -11.592047 0
M  V30 60 H 8.832092 7.077077 -9.695725 0
M  V30 END ATOM
M  V30 BEGIN BOND
M  V30 1 1 2 1
M  V30 2 1 3 2
M  V30 3 1 4 3
M  V30 4 1 5 4
M  V30 5 2 6 5
M  V30 6 1 7 6
M  V30 7 2 8 7
M  V30 8 1 9 8
M  V30 9 1 10 5
M  V30 10 2 10 9
M  V30 11 1 11 3
M  V30 12 1 11 10
M  V30 13 1 12 11
M  V30 14 2 13 12
M  V30 15 1 14 12
M  V30 16 1 15 14
M  V30 17 1 16 15
M  V30 18 1 17 16
M  V30 19 1 18 17
M  V30 20 1 19 18
M  V30 21 1 20 19
M  V30 22 1 21 20
M  V30 23 2 22 21
M  V30 24 1 23 22
M  V30 25 1 24 23
M  V30 26 2 25 23
M  V30 27 2 26 20
M  V30 28 1 26 25
M  V30 29 1 27 18
M  V30 30 1 28 15
M  V30 31 1 28 27
M  V30 32 1 29 1
M  V30 33 1 30 1
M  V30 34 1 31 1
M  V30 35 1 32 2
M  V30 36 1 33 2
M  V30 37 1 3 34 CFG=1
M  V30 38 1 35 4
M  V30 39 1 36 4
M  V30 40 1 37 6
M  V30 41 1 38 7
M  V30 42 1 39 8
M  V30 43 1 40 9
M  V30 44 1 41 14
M  V30 45 1 42 14
M  V30 46 1 43 16
M  V30 47 1 44 16
M  V30 48 1 45 17
M  V30 49 1 46 17
M  V30 50 1 47 19
M  V30 51 1 48 19
M  V30 52 1 49 21
M  V30 53 1 50 22
M  V30 54 1 51 24
M  V30 55 1 52 24
M  V30 56 1 53 24
M  V30 57 1 54 25
M  V30 58 1 55 26
M  V30 59 1 56 27
M  V30 60 1 57 27
M  V30 61 1 58 28
M  V30 62 1 59 28
M  V30 63 1 60 18
M  V30 END BOND
M  V30 END CTAB
M  END
>  <b_m_subgroup_collapsed>  (1437) 
0

>  <r_i_docking_score>  (1437) 
-7.1292311426039401

>  <s_m_subgroup_title>  (1437) 
glide-dock_SP_D22_pv

>  <s_m_subgroupid>  (1437) 
glide-dock_SP_D22_pv

>  <Molecule ChEMBL ID>  (1437) 
CHEMBL321121

>  <Standard Type>  (1437) 
Ki

>  <Standard Value>  (1437) 
96.0

>  <label>  (1437) 
1

$$$$
CHEMBL307444
     RDKit          3D

  0  0  0  0  0  0  0  0  0  0999 V3000
M  V30 BEGIN CTAB
M  V30 COUNTS 52 54 0 0 1
M  V30 BEGIN ATOM
M  V30 1 C 11.188514 10.110579 -6.304629 0
M  V30 2 C 11.318896 10.035843 -4.969386 0
M  V30 3 C 11.684906 8.925270 -4.080388 0
M  V30 4 C 11.664680 7.560009 -4.443356 0
M  V30 5 C 12.069567 6.572611 -3.536359 0
M  V30 6 C 12.481640 6.926000 -2.246931 0
M  V30 7 C 12.486036 8.278252 -1.861161 0
M  V30 8 C 12.087523 9.268568 -2.772050 0
M  V30 9 C 11.383006 9.070317 -7.399265 0
M  V30 10 O 10.192114 8.961761 -8.162621 0
M  V30 11 C 9.554631 7.694600 -8.124632 0
M  V30 12 C 10.295310 6.687556 -9.037499 0 CFG=1
M  V30 13 C 9.603230 5.312595 -9.087884 0
M  V30 14 C 8.311760 5.353007 -9.920509 0
M  V30 15 N 8.532997 5.888052 -11.289125 0 CFG=1 CHG=1
M  V30 16 C 7.299950 5.874874 -12.116838 0
M  V30 17 C 7.037260 4.516922 -12.733655 0
M  V30 18 C 5.905947 3.774070 -12.338063 0
M  V30 19 C 5.626114 2.535029 -12.945889 0
M  V30 20 C 6.486708 2.024852 -13.936783 0
M  V30 21 C 7.627159 2.757286 -14.321330 0
M  V30 22 C 7.899470 4.005634 -13.726920 0
M  V30 23 C 9.169068 7.231481 -11.265014 0
M  V30 24 C 10.486220 7.209076 -10.475805 0
M  V30 25 H 10.890368 11.082663 -6.646957 0
M  V30 26 H 11.106282 10.962261 -4.450502 0
M  V30 27 H 11.284638 7.211399 -5.383894 0
M  V30 28 H 12.069588 5.541378 -3.838931 0
M  V30 29 H 12.794430 6.157836 -1.555379 0
M  V30 30 H 12.805411 8.560480 -0.872586 0
M  V30 31 H 12.095645 10.303061 -2.460887 0
M  V30 32 H 12.169178 9.372369 -8.084115 0
M  V30 33 H 11.757177 8.120058 -7.048973 0
M  V30 34 H 9.482746 7.328965 -7.099257 0
M  V30 35 H 8.528821 7.844108 -8.463168 0
M  V30 36 H 11.283878 6.535247 -8.608540 0
M  V30 37 H 10.274384 4.567088 -9.509774 0
M  V30 38 H 9.380885 4.970977 -8.076715 0
M  V30 39 H 7.598184 5.986241 -9.403580 0
M  V30 40 H 7.879498 4.353926 -9.979496 0
M  V30 41 H 6.433874 6.171269 -11.527319 0
M  V30 42 H 7.377801 6.590839 -12.936771 0
M  V30 43 H 5.245767 4.158380 -11.573676 0
M  V30 44 H 4.752544 1.972958 -12.649362 0
M  V30 45 H 6.275201 1.071623 -14.399800 0
M  V30 46 H 8.287002 2.365416 -15.081810 0
M  V30 47 H 8.765276 4.567998 -14.044663 0
M  V30 48 H 8.486454 7.968720 -10.841089 0
M  V30 49 H 9.372187 7.556405 -12.284501 0
M  V30 50 H 10.931725 8.204650 -10.468689 0
M  V30 51 H 11.194807 6.572480 -10.999114 0
M  V30 52 H 9.183435 5.269139 -11.748908 0
M  V30 END ATOM
M  V30 BEGIN BOND
M  V30 1 2 2 1
M  V30 2 1 3 2
M  V30 3 2 4 3
M  V30 4 1 5 4
M  V30 5 2 6 5
M  V30 6 1 7 6
M  V30 7 1 8 3
M  V30 8 2 8 7
M  V30 9 1 9 1
M  V30 10 1 10 9
M  V30 11 1 11 10
M  V30 12 1 12 11
M  V30 13 1 13 12
M  V30 14 1 14 13
M  V30 15 1 15 14
M  V30 16 1 16 15
M  V30 17 1 17 16
M  V30 18 2 18 17
M  V30 19 1 19 18
M  V30 20 2 20 19
M  V30 21 1 21 20
M  V30 22 1 22 17
M  V30 23 2 22 21
M  V30 24 1 23 15
M  V30 25 1 24 12
M  V30 26 1 24 23
M  V30 27 1 25 1
M  V30 28 1 26 2
M  V30 29 1 27 4
M  V30 30 1 28 5
M  V30 31 1 29 6
M  V30 32 1 30 7
M  V30 33 1 31 8
M  V30 34 1 32 9
M  V30 35 1 33 9
M  V30 36 1 34 11
M  V30 37 1 35 11
M  V30 38 1 12 36 CFG=1
M  V30 39 1 37 13
M  V30 40 1 38 13
M  V30 41 1 39 14
M  V30 42 1 40 14
M  V30 43 1 41 16
M  V30 44 1 42 16
M  V30 45 1 43 18
M  V30 46 1 44 19
M  V30 47 1 45 20
M  V30 48 1 46 21
M  V30 49 1 47 22
M  V30 50 1 48 23
M  V30 51 1 49 23
M  V30 52 1 50 24
M  V30 53 1 51 24
M  V30 54 1 15 52 CFG=3
M  V30 END BOND
M  V30 END CTAB
M  END
>  <b_m_subgroup_collapsed>  (1438) 
0

>  <r_i_docking_score>  (1438) 
-7.1279916057408697

>  <s_m_subgroup_title>  (1438) 
glide-dock_SP_D22_pv

>  <s_m_subgroupid>  (1438) 
glide-dock_SP_D22_pv

>  <Molecule ChEMBL ID>  (1438) 
CHEMBL307444

>  <Standard Type>  (1438) 
Ki

>  <Standard Value>  (1438) 
10000.0

>  <label>  (1438) 
0

$$$$
CHEMBL1774065
     RDKit          3D

  0  0  0  0  0  0  0  0  0  0999 V3000
M  V30 BEGIN CTAB
M  V30 COUNTS 55 58 0 0 1
M  V30 BEGIN ATOM
M  V30 1 O 12.485775 6.172409 -2.092824 0
M  V30 2 C 12.088982 7.117302 -2.750759 0
M  V30 3 C 12.086380 8.487486 -2.244735 0
M  V30 4 C 11.798350 9.530645 -3.039749 0
M  V30 5 C 11.492502 9.326361 -4.442743 0
M  V30 6 C 11.285274 10.374727 -5.337962 0
M  V30 7 N 11.139530 10.171155 -6.648353 0
M  V30 8 C 11.128133 8.915023 -7.141194 0
M  V30 9 O 11.042312 8.899217 -8.514982 0
M  V30 10 C 10.640636 7.728676 -9.216674 0
M  V30 11 C 9.286205 8.039962 -9.872593 0
M  V30 12 C 8.959847 7.156176 -11.089161 0
M  V30 13 C 8.493696 5.734160 -10.743519 0
M  V30 14 N 8.037516 5.050846 -11.979585 0 CHG=1
M  V30 15 C 6.719707 4.381330 -11.853375 0
M  V30 16 C 6.246338 3.860624 -13.223361 0
M  V30 17 N 7.271937 3.025237 -13.848401 0
M  V30 18 C 6.904905 1.825298 -14.507064 0
M  V30 19 C 6.000979 0.959632 -13.844296 0
M  V30 20 C 5.578639 -0.250546 -14.421020 0
M  V30 21 C 6.053710 -0.621678 -15.686657 0
M  V30 22 C 6.958494 0.211500 -16.366869 0
M  V30 23 Cl 7.523740 -0.278301 -17.925428 0
M  V30 24 C 7.393708 1.428874 -15.789732 0
M  V30 25 Cl 8.485950 2.406242 -16.718340 0
M  V30 26 C 8.630395 3.558994 -13.909026 0
M  V30 27 C 9.073748 4.162766 -12.563864 0
M  V30 28 C 11.263428 7.780364 -6.305592 0
M  V30 29 C 11.460717 8.009154 -4.931374 0
M  V30 30 N 11.690454 6.948337 -4.028319 0
M  V30 31 H 12.319126 8.664512 -1.205293 0
M  V30 32 H 11.802276 10.538970 -2.651537 0
M  V30 33 H 11.285360 11.405206 -5.019993 0
M  V30 34 H 10.571997 6.813748 -8.628411 0
M  V30 35 H 11.394516 7.547751 -9.984754 0
M  V30 36 H 9.306046 9.073379 -10.219794 0
M  V30 37 H 8.487609 7.991578 -9.128883 0
M  V30 38 H 9.820920 7.121753 -11.760156 0
M  V30 39 H 8.164229 7.646677 -11.655154 0
M  V30 40 H 7.685230 5.772746 -10.014058 0
M  V30 41 H 9.291489 5.168665 -10.259138 0
M  V30 42 H 5.984839 5.085219 -11.460985 0
M  V30 43 H 6.789384 3.563617 -11.135214 0
M  V30 44 H 6.048097 4.702437 -13.886189 0
M  V30 45 H 5.294358 3.342832 -13.114375 0
M  V30 46 H 5.632292 1.207925 -12.859139 0
M  V30 47 H 4.892835 -0.895126 -13.892129 0
M  V30 48 H 5.735437 -1.553104 -16.133730 0
M  V30 49 H 9.335908 2.776503 -14.189122 0
M  V30 50 H 8.665968 4.325603 -14.682702 0
M  V30 51 H 10.001513 4.716878 -12.704370 0
M  V30 52 H 9.297558 3.372272 -11.850474 0
M  V30 53 H 11.281467 6.769820 -6.681061 0
M  V30 54 H 11.664061 6.006318 -4.389910 0
M  V30 55 H 7.884033 5.789287 -12.648383 0
M  V30 END ATOM
M  V30 BEGIN BOND
M  V30 1 2 2 1
M  V30 2 1 3 2
M  V30 3 2 4 3
M  V30 4 1 5 4
M  V30 5 2 6 5
M  V30 6 1 7 6
M  V30 7 2 8 7
M  V30 8 1 9 8
M  V30 9 1 10 9
M  V30 10 1 11 10
M  V30 11 1 12 11
M  V30 12 1 13 12
M  V30 13 1 14 13
M  V30 14 1 15 14
M  V30 15 1 16 15
M  V30 16 1 17 16
M  V30 17 1 18 17
M  V30 18 2 19 18
M  V30 19 1 20 19
M  V30 20 2 21 20
M  V30 21 1 22 21
M  V30 22 1 23 22
M  V30 23 1 24 18
M  V30 24 2 24 22
M  V30 25 1 25 24
M  V30 26 1 26 17
M  V30 27 1 27 14
M  V30 28 1 27 26
M  V30 29 1 28 8
M  V30 30 1 29 5
M  V30 31 2 29 28
M  V30 32 1 30 2
M  V30 33 1 30 29
M  V30 34 1 31 3
M  V30 35 1 32 4
M  V30 36 1 33 6
M  V30 37 1 34 10
M  V30 38 1 35 10
M  V30 39 1 36 11
M  V30 40 1 37 11
M  V30 41 1 38 12
M  V30 42 1 39 12
M  V30 43 1 40 13
M  V30 44 1 41 13
M  V30 45 1 42 15
M  V30 46 1 43 15
M  V30 47 1 44 16
M  V30 48 1 45 16
M  V30 49 1 46 19
M  V30 50 1 47 20
M  V30 51 1 48 21
M  V30 52 1 49 26
M  V30 53 1 50 26
M  V30 54 1 51 27
M  V30 55 1 52 27
M  V30 56 1 53 28
M  V30 57 1 54 30
M  V30 58 1 55 14
M  V30 END BOND
M  V30 END CTAB
M  END
>  <b_m_subgroup_collapsed>  (1439) 
0

>  <r_i_docking_score>  (1439) 
-7.12725407307481

>  <s_m_subgroup_title>  (1439) 
glide-dock_SP_D22_pv

>  <s_m_subgroupid>  (1439) 
glide-dock_SP_D22_pv

>  <Molecule ChEMBL ID>  (1439) 
CHEMBL1774065

>  <Standard Type>  (1439) 
Ki

>  <Standard Value>  (1439) 
2.0

>  <label>  (1439) 
1

$$$$
CHEMBL88365
     RDKit          3D

  0  0  0  0  0  0  0  0  0  0999 V3000
M  V30 BEGIN CTAB
M  V30 COUNTS 41 43 0 0 1
M  V30 BEGIN ATOM
M  V30 1 O 6.115023 4.032034 -11.846918 0
M  V30 2 C 7.341536 4.579768 -12.092560 0
M  V30 3 C 7.867460 4.621287 -13.396593 0
M  V30 4 C 9.124920 5.216433 -13.621287 0
M  V30 5 C 9.856685 5.766181 -12.547565 0
M  V30 6 C 9.347418 5.706428 -11.229129 0
M  V30 7 N 10.085731 6.192326 -10.129617 0
M  V30 8 C 10.819270 7.453062 -10.224721 0
M  V30 9 C 10.355024 8.448671 -9.138908 0
M  V30 10 N 10.286994 7.795146 -7.803710 0 CHG=1
M  V30 11 C 10.015042 8.724727 -6.683694 0
M  V30 12 C 10.886323 8.472789 -5.454005 0
M  V30 13 C 11.286597 9.573424 -4.663812 0
M  V30 14 C 12.012307 9.373590 -3.472416 0
M  V30 15 C 12.348316 8.073922 -3.056763 0
M  V30 16 C 11.975548 6.972885 -3.846684 0
M  V30 17 C 11.260992 7.168809 -5.044792 0
M  V30 18 C 9.363791 6.633524 -7.830966 0
M  V30 19 C 9.914306 5.595172 -8.805155 0
M  V30 20 C 8.086506 5.114599 -11.027157 0
M  V30 21 H 5.845401 4.172392 -10.941903 0
M  V30 22 H 7.306489 4.208625 -14.222153 0
M  V30 23 H 9.529751 5.251684 -14.622463 0
M  V30 24 H 10.826490 6.200952 -12.742960 0
M  V30 25 H 11.883470 7.243565 -10.104738 0
M  V30 26 H 10.699907 7.911307 -11.207868 0
M  V30 27 H 11.041244 9.295873 -9.112285 0
M  V30 28 H 9.370527 8.844445 -9.395148 0
M  V30 29 H 10.196474 9.747929 -7.011100 0
M  V30 30 H 8.961665 8.684764 -6.397340 0
M  V30 31 H 11.009184 10.578121 -4.948709 0
M  V30 32 H 12.296412 10.219632 -2.863036 0
M  V30 33 H 12.884864 7.926551 -2.131963 0
M  V30 34 H 12.230598 5.973545 -3.524924 0
M  V30 35 H 10.984985 6.295217 -5.614027 0
M  V30 36 H 9.243935 6.184227 -6.845515 0
M  V30 37 H 8.370344 6.956484 -8.144376 0
M  V30 38 H 9.301935 4.696447 -8.812374 0
M  V30 39 H 10.885907 5.258524 -8.452656 0
M  V30 40 H 7.685728 5.078603 -10.030000 0
M  V30 41 H 11.210454 7.427099 -7.633008 0
M  V30 END ATOM
M  V30 BEGIN BOND
M  V30 1 1 2 1
M  V30 2 1 3 2
M  V30 3 2 4 3
M  V30 4 1 5 4
M  V30 5 2 6 5
M  V30 6 1 7 6
M  V30 7 1 8 7
M  V30 8 1 9 8
M  V30 9 1 10 9
M  V30 10 1 11 10
M  V30 11 1 12 11
M  V30 12 2 13 12
M  V30 13 1 14 13
M  V30 14 2 15 14
M  V30 15 1 16 15
M  V30 16 1 17 12
M  V30 17 2 17 16
M  V30 18 1 18 10
M  V30 19 1 19 7
M  V30 20 1 19 18
M  V30 21 2 20 2
M  V30 22 1 20 6
M  V30 23 1 21 1
M  V30 24 1 22 3
M  V30 25 1 23 4
M  V30 26 1 24 5
M  V30 27 1 25 8
M  V30 28 1 26 8
M  V30 29 1 27 9
M  V30 30 1 28 9
M  V30 31 1 29 11
M  V30 32 1 30 11
M  V30 33 1 31 13
M  V30 34 1 32 14
M  V30 35 1 33 15
M  V30 36 1 34 16
M  V30 37 1 35 17
M  V30 38 1 36 18
M  V30 39 1 37 18
M  V30 40 1 38 19
M  V30 41 1 39 19
M  V30 42 1 40 20
M  V30 43 1 41 10
M  V30 END BOND
M  V30 END CTAB
M  END
>  <b_m_subgroup_collapsed>  (1440) 
0

>  <r_i_docking_score>  (1440) 
-7.1264173737139496

>  <s_m_subgroup_title>  (1440) 
glide-dock_SP_D22_pv

>  <s_m_subgroupid>  (1440) 
glide-dock_SP_D22_pv

>  <Molecule ChEMBL ID>  (1440) 
CHEMBL88365

>  <Standard Type>  (1440) 
Ki

>  <Standard Value>  (1440) 
4.6

>  <label>  (1440) 
1

$$$$
CHEMBL25938
     RDKit          3D

  0  0  0  0  0  0  0  0  0  0999 V3000
M  V30 BEGIN CTAB
M  V30 COUNTS 48 51 0 0 1
M  V30 BEGIN ATOM
M  V30 1 C 12.486153 8.492702 -2.650506 0
M  V30 2 C 11.974194 9.566426 -3.398448 0
M  V30 3 C 11.285644 9.328011 -4.601483 0
M  V30 4 C 11.088934 8.003684 -5.049350 0
M  V30 5 C 10.088081 7.718903 -6.158765 0
M  V30 6 N 10.467406 8.254846 -7.483347 0 CFG=2 CHG=1
M  V30 7 C 9.254615 8.512895 -8.305523 0
M  V30 8 C 9.586084 8.972255 -9.734601 0
M  V30 9 C 10.575826 8.045094 -10.449762 0 CFG=2
M  V30 10 C 9.955639 6.752769 -10.926980 0
M  V30 11 C 9.994584 6.224667 -12.249405 0
M  V30 12 C 9.220001 5.103830 -12.181787 0
M  V30 13 C 8.832439 4.139465 -13.195596 0
M  V30 14 C 9.808537 3.539025 -14.018834 0
M  V30 15 C 9.441688 2.556750 -14.959112 0
M  V30 16 C 8.093563 2.170511 -15.082395 0
M  V30 17 C 7.112753 2.778527 -14.275822 0
M  V30 18 C 7.478947 3.771598 -13.348638 0
M  V30 19 N 8.821415 4.973827 -10.873466 0
M  V30 20 N 9.304164 5.953576 -10.091015 0
M  V30 21 C 11.814035 7.859718 -9.569171 0
M  V30 22 C 11.455979 7.376744 -8.154680 0
M  V30 23 C 11.680365 6.935587 -4.339494 0
M  V30 24 C 12.367775 7.177891 -3.135695 0
M  V30 25 H 12.992744 8.684227 -1.715423 0
M  V30 26 H 12.077114 10.571745 -3.019917 0
M  V30 27 H 10.832166 10.157434 -5.124985 0
M  V30 28 H 9.147929 8.173193 -5.847371 0
M  V30 29 H 9.878896 6.649141 -6.225038 0
M  V30 30 H 8.653532 9.286591 -7.826172 0
M  V30 31 H 8.620442 7.626709 -8.322177 0
M  V30 32 H 10.042114 9.954558 -9.667152 0
M  V30 33 H 8.673582 9.092095 -10.321338 0
M  V30 34 H 10.907292 8.572268 -11.342649 0
M  V30 35 H 10.480322 6.628514 -13.122996 0
M  V30 36 H 10.847331 3.815287 -13.913616 0
M  V30 37 H 10.196310 2.091293 -15.576188 0
M  V30 38 H 7.812347 1.408314 -15.794108 0
M  V30 39 H 6.079536 2.482528 -14.369401 0
M  V30 40 H 6.719561 4.228255 -12.729888 0
M  V30 41 H 8.226377 4.242388 -10.508478 0
M  V30 42 H 12.497817 7.167499 -10.055675 0
M  V30 43 H 12.346701 8.809266 -9.491994 0
M  V30 44 H 12.363173 7.337966 -7.553194 0
M  V30 45 H 11.075107 6.356053 -8.195603 0
M  V30 46 H 11.534022 5.915399 -4.665744 0
M  V30 47 H 12.775107 6.350847 -2.572273 0
M  V30 48 H 10.911799 9.148894 -7.335226 0
M  V30 END ATOM
M  V30 BEGIN BOND
M  V30 1 2 2 1
M  V30 2 1 3 2
M  V30 3 2 4 3
M  V30 4 1 5 4
M  V30 5 1 6 5
M  V30 6 1 7 6
M  V30 7 1 8 7
M  V30 8 1 9 8
M  V30 9 1 10 9
M  V30 10 1 11 10
M  V30 11 2 12 11
M  V30 12 1 13 12
M  V30 13 2 14 13
M  V30 14 1 15 14
M  V30 15 2 16 15
M  V30 16 1 17 16
M  V30 17 1 18 13
M  V30 18 2 18 17
M  V30 19 1 19 12
M  V30 20 2 20 10
M  V30 21 1 20 19
M  V30 22 1 21 9
M  V30 23 1 22 6
M  V30 24 1 22 21
M  V30 25 1 23 4
M  V30 26 1 24 1
M  V30 27 2 24 23
M  V30 28 1 25 1
M  V30 29 1 26 2
M  V30 30 1 27 3
M  V30 31 1 28 5
M  V30 32 1 29 5
M  V30 33 1 30 7
M  V30 34 1 31 7
M  V30 35 1 32 8
M  V30 36 1 33 8
M  V30 37 1 9 34 CFG=3
M  V30 38 1 35 11
M  V30 39 1 36 14
M  V30 40 1 37 15
M  V30 41 1 38 16
M  V30 42 1 39 17
M  V30 43 1 40 18
M  V30 44 1 41 19
M  V30 45 1 42 21
M  V30 46 1 43 21
M  V30 47 1 44 22
M  V30 48 1 45 22
M  V30 49 1 46 23
M  V30 50 1 47 24
M  V30 51 1 6 48 CFG=1
M  V30 END BOND
M  V30 END CTAB
M  END
>  <b_m_subgroup_collapsed>  (1441) 
0

>  <r_i_docking_score>  (1441) 
-7.1256380072100596

>  <s_m_subgroup_title>  (1441) 
glide-dock_SP_D22_pv

>  <s_m_subgroupid>  (1441) 
glide-dock_SP_D22_pv

>  <Molecule ChEMBL ID>  (1441) 
CHEMBL25938

>  <Standard Type>  (1441) 
Ki

>  <Standard Value>  (1441) 
66.0

>  <label>  (1441) 
1

$$$$
CHEMBL127080
     RDKit          3D

  0  0  0  0  0  0  0  0  0  0999 V3000
M  V30 BEGIN CTAB
M  V30 COUNTS 70 73 0 0 1
M  V30 BEGIN ATOM
M  V30 1 C 11.808914 11.106485 -6.247003 0
M  V30 2 O 11.480077 9.780486 -6.568573 0
M  V30 3 C 11.584817 8.874185 -5.541702 0
M  V30 4 C 12.385180 9.104090 -4.388946 0
M  V30 5 C 12.485968 8.139885 -3.371697 0
M  V30 6 C 11.812657 6.920384 -3.511074 0
M  V30 7 C 11.034573 6.685975 -4.657877 0
M  V30 8 C 10.885922 7.652273 -5.675542 0
M  V30 9 N 10.049660 7.395002 -6.785870 0
M  V30 10 C 9.094597 8.368709 -7.302343 0
M  V30 11 C 9.285956 8.552955 -8.821774 0
M  V30 12 N 9.286036 7.254117 -9.553606 0 CHG=1
M  V30 13 C 9.543855 7.410847 -11.012475 0
M  V30 14 C 8.544457 6.659920 -11.914738 0
M  V30 15 C 8.259110 5.193355 -11.543976 0
M  V30 16 C 7.472952 4.446092 -12.631321 0
M  V30 17 N 8.373745 4.030049 -13.701252 0
M  V30 18 C 8.282144 2.885689 -14.400202 0
M  V30 19 O 7.322825 2.125025 -14.261079 0
M  V30 20 C 9.429613 2.535477 -15.396722 0
M  V30 21 C 10.366899 3.746370 -15.585677 0
M  V30 22 C 10.155374 4.670455 -16.636410 0
M  V30 23 C 11.015132 5.772377 -16.803856 0
M  V30 24 C 12.080581 5.982550 -15.909245 0
M  V30 25 Cl 13.110670 7.353377 -16.100546 0
M  V30 26 C 12.293534 5.080830 -14.851901 0
M  V30 27 C 11.443038 3.970258 -14.690777 0
M  V30 28 C 10.202259 1.285282 -14.918739 0
M  V30 29 C 9.393469 0.060363 -15.353511 0
M  V30 30 C 8.596568 0.505233 -16.583569 0
M  V30 31 C 8.853786 2.012829 -16.738747 0
M  V30 32 C 10.213490 6.256056 -8.944922 0
M  V30 33 C 10.030451 6.096329 -7.430271 0
M  V30 34 H 11.521444 11.772332 -7.046854 0
M  V30 35 H 11.290037 11.417123 -5.337789 0
M  V30 36 H 12.885620 11.196331 -6.171483 0
M  V30 37 H 12.955271 10.009452 -4.263623 0
M  V30 38 H 13.089242 8.333836 -2.496083 0
M  V30 39 H 11.881207 6.168029 -2.738593 0
M  V30 40 H 10.486231 5.772307 -4.727531 0
M  V30 41 H 8.086891 8.004228 -7.094493 0
M  V30 42 H 9.178594 9.323063 -6.789308 0
M  V30 43 H 8.489611 9.188910 -9.213202 0
M  V30 44 H 10.228747 9.069421 -9.004970 0
M  V30 45 H 9.505465 8.466167 -11.288323 0
M  V30 46 H 10.559438 7.091444 -11.253903 0
M  V30 47 H 7.603947 7.206217 -11.943052 0
M  V30 48 H 8.923471 6.694613 -12.935997 0
M  V30 49 H 9.187998 4.656815 -11.351257 0
M  V30 50 H 7.686687 5.169300 -10.616125 0
M  V30 51 H 6.983097 3.580787 -12.182681 0
M  V30 52 H 6.677756 5.072110 -13.038269 0
M  V30 53 H 9.173463 4.616156 -13.888746 0
M  V30 54 H 9.332324 4.547945 -17.325510 0
M  V30 55 H 10.845558 6.469344 -17.611320 0
M  V30 56 H 13.109433 5.241693 -14.163622 0
M  V30 57 H 11.622391 3.294714 -13.867299 0
M  V30 58 H 11.172374 1.242105 -15.416769 0
M  V30 59 H 10.397578 1.289394 -13.846868 0
M  V30 60 H 10.032267 -0.798872 -15.559002 0
M  V30 61 H 8.704478 -0.227588 -14.559301 0
M  V30 62 H 8.901599 -0.039512 -17.478203 0
M  V30 63 H 7.534411 0.306991 -16.430342 0
M  V30 64 H 7.961513 2.552395 -17.060667 0
M  V30 65 H 9.595731 2.133588 -17.528231 0
M  V30 66 H 10.094688 5.284467 -9.418617 0
M  V30 67 H 11.240379 6.573744 -9.131783 0
M  V30 68 H 10.829700 5.463655 -7.047153 0
M  V30 69 H 9.079469 5.607887 -7.212205 0
M  V30 70 H 8.333415 6.916599 -9.461634 0
M  V30 END ATOM
M  V30 BEGIN BOND
M  V30 1 1 2 1
M  V30 2 1 3 2
M  V30 3 2 4 3
M  V30 4 1 5 4
M  V30 5 2 6 5
M  V30 6 1 7 6
M  V30 7 1 8 3
M  V30 8 2 8 7
M  V30 9 1 9 8
M  V30 10 1 10 9
M  V30 11 1 11 10
M  V30 12 1 12 11
M  V30 13 1 13 12
M  V30 14 1 14 13
M  V30 15 1 15 14
M  V30 16 1 16 15
M  V30 17 1 17 16
M  V30 18 1 18 17
M  V30 19 2 19 18
M  V30 20 1 20 18
M  V30 21 1 21 20
M  V30 22 1 22 21
M  V30 23 2 23 22
M  V30 24 1 24 23
M  V30 25 1 25 24
M  V30 26 2 26 24
M  V30 27 2 27 21
M  V30 28 1 27 26
M  V30 29 1 28 20
M  V30 30 1 29 28
M  V30 31 1 30 29
M  V30 32 1 31 20
M  V30 33 1 31 30
M  V30 34 1 32 12
M  V30 35 1 33 9
M  V30 36 1 33 32
M  V30 37 1 34 1
M  V30 38 1 35 1
M  V30 39 1 36 1
M  V30 40 1 37 4
M  V30 41 1 38 5
M  V30 42 1 39 6
M  V30 43 1 40 7
M  V30 44 1 41 10
M  V30 45 1 42 10
M  V30 46 1 43 11
M  V30 47 1 44 11
M  V30 48 1 45 13
M  V30 49 1 46 13
M  V30 50 1 47 14
M  V30 51 1 48 14
M  V30 52 1 49 15
M  V30 53 1 50 15
M  V30 54 1 51 16
M  V30 55 1 52 16
M  V30 56 1 53 17
M  V30 57 1 54 22
M  V30 58 1 55 23
M  V30 59 1 56 26
M  V30 60 1 57 27
M  V30 61 1 58 28
M  V30 62 1 59 28
M  V30 63 1 60 29
M  V30 64 1 61 29
M  V30 65 1 62 30
M  V30 66 1 63 30
M  V30 67 1 64 31
M  V30 68 1 65 31
M  V30 69 1 66 32
M  V30 70 1 67 32
M  V30 71 1 68 33
M  V30 72 1 69 33
M  V30 73 1 70 12
M  V30 END BOND
M  V30 END CTAB
M  END
>  <b_m_subgroup_collapsed>  (1442) 
0

>  <r_i_docking_score>  (1442) 
-7.1227197766819597

>  <s_m_subgroup_title>  (1442) 
glide-dock_SP_D22_pv

>  <s_m_subgroupid>  (1442) 
glide-dock_SP_D22_pv

>  <Molecule ChEMBL ID>  (1442) 
CHEMBL127080

>  <Standard Type>  (1442) 
Ki

>  <Standard Value>  (1442) 
56.0

>  <label>  (1442) 
1

$$$$
CHEMBL5817624
     RDKit          3D

  0  0  0  0  0  0  0  0  0  0999 V3000
M  V30 BEGIN CTAB
M  V30 COUNTS 55 58 0 0 1
M  V30 BEGIN ATOM
M  V30 1 C 12.131619 9.742445 -2.324435 0
M  V30 2 C 11.841113 8.806019 -3.464256 0
M  V30 3 C 12.033426 7.428525 -3.274743 0
M  V30 4 C 11.693158 6.572147 -4.328729 0
M  V30 5 C 11.212543 7.112049 -5.527833 0
M  V30 6 C 11.062987 8.509943 -5.632527 0
M  V30 7 C 10.545652 9.176321 -6.905025 0 CFG=1
M  V30 8 C 11.523646 9.118378 -8.088699 0
M  V30 9 C 11.450367 7.797841 -8.862037 0
M  V30 10 N 10.064538 7.474614 -9.303659 0 CFG=1 CHG=1
M  V30 11 C 10.061178 6.245517 -10.134944 0
M  V30 12 C 8.764783 6.003843 -10.935516 0
M  V30 13 N 8.894385 4.803730 -11.755218 0
M  V30 14 C 9.641129 4.702222 -12.866459 0
M  V30 15 O 10.239837 5.664017 -13.348634 0
M  V30 16 C 9.768817 3.293252 -13.469596 0 CFG=2
M  V30 17 C 11.064662 3.048165 -14.267015 0
M  V30 18 C 10.521128 2.655517 -15.647340 0 CFG=1
M  V30 19 C 9.886527 1.257620 -15.628098 0
M  V30 20 C 8.594560 1.512646 -14.852262 0
M  V30 21 C 8.703801 3.014665 -14.547728 0 CFG=2
M  V30 22 O 9.362319 3.466861 -15.718946 0
M  V30 23 C 9.109099 7.419692 -8.165773 0
M  V30 24 C 9.132072 8.720156 -7.335266 0
M  V30 25 N 11.370181 9.345466 -4.610118 0
M  V30 26 H 12.998156 9.379652 -1.768740 0
M  V30 27 H 12.285100 10.766261 -2.647704 0
M  V30 28 H 11.290852 9.767581 -1.652221 0
M  V30 29 H 12.407151 7.033586 -2.341688 0
M  V30 30 H 11.839323 5.513332 -4.236874 0
M  V30 31 H 10.984442 6.430560 -6.327593 0
M  V30 32 H 10.484360 10.234724 -6.647855 0
M  V30 33 H 11.285320 9.912917 -8.794550 0
M  V30 34 H 12.540015 9.323725 -7.748561 0
M  V30 35 H 12.107638 7.869354 -9.730763 0
M  V30 36 H 11.836374 6.982370 -8.255228 0
M  V30 37 H 10.883983 6.339246 -10.843613 0
M  V30 38 H 10.283654 5.382102 -9.505653 0
M  V30 39 H 7.915716 5.849281 -10.269815 0
M  V30 40 H 8.524649 6.864122 -11.561455 0
M  V30 41 H 8.410137 3.979319 -11.430469 0
M  V30 42 H 9.686940 2.572494 -12.658508 0
M  V30 43 H 11.695890 3.932573 -14.350625 0
M  V30 44 H 11.677746 2.251541 -13.846701 0
M  V30 45 H 11.228466 2.808764 -16.462471 0
M  V30 46 H 9.663540 0.919361 -16.640574 0
M  V30 47 H 10.528630 0.514427 -15.152485 0
M  V30 48 H 8.517823 0.908469 -13.947300 0
M  V30 49 H 7.724124 1.307118 -15.477053 0
M  V30 50 H 7.742558 3.496851 -14.368356 0
M  V30 51 H 8.105134 7.264867 -8.548812 0
M  V30 52 H 9.301283 6.546707 -7.547073 0
M  V30 53 H 8.483527 8.624249 -6.464790 0
M  V30 54 H 8.687974 9.501290 -7.952873 0
M  V30 55 H 9.758225 8.227640 -9.903948 0
M  V30 END ATOM
M  V30 BEGIN BOND
M  V30 1 1 2 1
M  V30 2 1 3 2
M  V30 3 2 4 3
M  V30 4 1 5 4
M  V30 5 2 6 5
M  V30 6 1 7 6
M  V30 7 1 8 7
M  V30 8 1 9 8
M  V30 9 1 10 9
M  V30 10 1 11 10
M  V30 11 1 12 11
M  V30 12 1 13 12
M  V30 13 1 14 13
M  V30 14 2 15 14
M  V30 15 1 16 14
M  V30 16 1 17 16
M  V30 17 1 18 17
M  V30 18 1 19 18
M  V30 19 1 20 19
M  V30 20 1 21 16
M  V30 21 1 21 20
M  V30 22 1 22 18
M  V30 23 1 22 21
M  V30 24 1 23 10
M  V30 25 1 24 7
M  V30 26 1 24 23
M  V30 27 2 25 2
M  V30 28 1 25 6
M  V30 29 1 26 1
M  V30 30 1 27 1
M  V30 31 1 28 1
M  V30 32 1 29 3
M  V30 33 1 30 4
M  V30 34 1 31 5
M  V30 35 1 7 32 CFG=1
M  V30 36 1 33 8
M  V30 37 1 34 8
M  V30 38 1 35 9
M  V30 39 1 36 9
M  V30 40 1 37 11
M  V30 41 1 38 11
M  V30 42 1 39 12
M  V30 43 1 40 12
M  V30 44 1 41 13
M  V30 45 1 16 42 CFG=1
M  V30 46 1 43 17
M  V30 47 1 44 17
M  V30 48 1 18 45 CFG=3
M  V30 49 1 46 19
M  V30 50 1 47 19
M  V30 51 1 48 20
M  V30 52 1 49 20
M  V30 53 1 21 50 CFG=1
M  V30 54 1 51 23
M  V30 55 1 52 23
M  V30 56 1 53 24
M  V30 57 1 54 24
M  V30 58 1 10 55 CFG=3
M  V30 END BOND
M  V30 END CTAB
M  END
>  <b_m_subgroup_collapsed>  (1443) 
0

>  <r_i_docking_score>  (1443) 
-7.1226020454066798

>  <s_m_subgroup_title>  (1443) 
glide-dock_SP_D22_pv

>  <s_m_subgroupid>  (1443) 
glide-dock_SP_D22_pv

>  <Molecule ChEMBL ID>  (1443) 
CHEMBL5817624

>  <Standard Type>  (1443) 
Ki

>  <Standard Value>  (1443) 
7.1

>  <label>  (1443) 
1

$$$$
CHEMBL3577344
     RDKit          3D

  0  0  0  0  0  0  0  0  0  0999 V3000
M  V30 BEGIN CTAB
M  V30 COUNTS 95 98 0 0 1
M  V30 BEGIN ATOM
M  V30 1 C 12.513844 8.597152 -1.848152 0
M  V30 2 C 12.066171 7.496344 -2.815092 0
M  V30 3 C 11.621862 8.071566 -4.166337 0
M  V30 4 C 11.034251 7.006016 -5.114565 0
M  V30 5 N 10.803794 7.511060 -6.458913 0
M  V30 6 C 10.968712 6.835733 -7.645804 0
M  V30 7 C 10.706993 7.779138 -8.596823 0
M  V30 8 C 10.833634 7.664244 -10.088056 0
M  V30 9 C 9.557447 7.197858 -10.807375 0
M  V30 10 C 8.934314 5.916792 -10.221972 0
M  V30 11 O 7.960355 5.373464 -11.107300 0
M  V30 12 C 8.347822 4.579859 -12.167109 0
M  V30 13 C 9.678420 4.172355 -12.413836 0
M  V30 14 C 9.978777 3.296775 -13.469878 0
M  V30 15 C 8.973150 2.861936 -14.353370 0
M  V30 16 C 9.283746 1.921522 -15.484056 0
M  V30 17 O 8.421041 1.168219 -15.933531 0
M  V30 18 N 10.523387 2.008393 -15.995675 0
M  V30 19 C 11.039061 1.194343 -17.093809 0
M  V30 20 C 10.485254 1.625598 -18.467104 0
M  V30 21 C 10.865943 3.060029 -18.869068 0
M  V30 22 C 10.234818 3.495532 -20.207216 0
M  V30 23 N 10.709914 4.839737 -20.630627 0 CFG=1 CHG=1
M  V30 24 C 10.855713 5.016127 -22.105925 0
M  V30 25 C 9.571269 5.367708 -22.893652 0
M  V30 26 C 8.449849 4.318783 -22.837223 0
M  V30 27 C 10.057371 5.968210 -19.910721 0
M  V30 28 C 11.030932 7.144007 -19.683313 0
M  V30 29 C 12.352062 6.718446 -19.048935 0
M  V30 30 C 13.529772 6.756573 -19.828861 0
M  V30 31 C 14.761672 6.324565 -19.297270 0
M  V30 32 C 14.835865 5.845438 -17.975912 0
M  V30 33 O 16.024788 5.376098 -17.488789 0
M  V30 34 C 13.670025 5.835360 -17.183146 0
M  V30 35 N 13.719413 5.370369 -15.846451 0
M  V30 36 C 12.658581 5.168223 -15.045311 0
M  V30 37 O 12.787347 4.573182 -13.980339 0
M  V30 38 C 11.385173 5.658456 -15.561565 0
M  V30 39 C 11.283325 6.172368 -16.800333 0
M  V30 40 C 12.433457 6.265686 -17.708311 0
M  V30 41 C 7.646210 3.274459 -14.117160 0
M  V30 42 C 7.323520 4.113007 -13.017090 0
M  V30 43 O 6.037213 4.481391 -12.691490 0
M  V30 44 C 4.994814 3.905191 -13.446803 0
M  V30 45 N 10.312640 8.954905 -7.958559 0
M  V30 46 N 10.357161 8.774537 -6.674767 0
M  V30 47 H 12.912955 8.172591 -0.929502 0
M  V30 48 H 13.286331 9.222021 -2.291539 0
M  V30 49 H 11.686308 9.251516 -1.581928 0
M  V30 50 H 11.255661 6.924904 -2.362214 0
M  V30 51 H 12.885715 6.794040 -2.970700 0
M  V30 52 H 12.479100 8.549584 -4.642103 0
M  V30 53 H 10.887536 8.861481 -3.999093 0
M  V30 54 H 10.102863 6.587191 -4.732109 0
M  V30 55 H 11.732142 6.171990 -5.190769 0
M  V30 56 H 11.285902 5.806574 -7.708817 0
M  V30 57 H 11.641975 6.972599 -10.326323 0
M  V30 58 H 11.144335 8.622217 -10.508256 0
M  V30 59 H 9.790470 7.051466 -11.861695 0
M  V30 60 H 8.811662 7.992535 -10.774158 0
M  V30 61 H 8.416920 6.167057 -9.294848 0
M  V30 62 H 9.682974 5.176295 -9.940537 0
M  V30 63 H 10.486042 4.493092 -11.784317 0
M  V30 64 H 10.990549 2.947684 -13.585163 0
M  V30 65 H 11.159726 2.668307 -15.572334 0
M  V30 66 H 10.803578 0.143891 -16.909140 0
M  V30 67 H 12.128313 1.263942 -17.091763 0
M  V30 68 H 9.400207 1.517451 -18.470825 0
M  V30 69 H 10.853582 0.933938 -19.226473 0
M  V30 70 H 11.951746 3.133983 -18.931257 0
M  V30 71 H 10.560331 3.741574 -18.075798 0
M  V30 72 H 9.148068 3.481836 -20.130390 0
M  V30 73 H 10.497952 2.756352 -20.963205 0
M  V30 74 H 11.574834 5.820259 -22.264841 0
M  V30 75 H 11.322155 4.129028 -22.538023 0
M  V30 76 H 9.181726 6.344292 -22.601994 0
M  V30 77 H 9.855519 5.485490 -23.941410 0
M  V30 78 H 7.671424 4.550111 -23.566853 0
M  V30 79 H 8.825229 3.317523 -23.058237 0
M  V30 80 H 7.964620 4.300493 -21.859127 0
M  V30 81 H 9.696823 5.612002 -18.948431 0
M  V30 82 H 9.156388 6.304919 -20.419394 0
M  V30 83 H 10.561004 7.897410 -19.048206 0
M  V30 84 H 11.229148 7.645489 -20.631187 0
M  V30 85 H 13.494930 7.110360 -20.848682 0
M  V30 86 H 15.648900 6.348543 -19.914383 0
M  V30 87 H 15.939891 4.819233 -16.728510 0
M  V30 88 H 14.616648 5.099854 -15.480316 0
M  V30 89 H 10.513648 5.637060 -14.924243 0
M  V30 90 H 10.337825 6.571398 -17.123211 0
M  V30 91 H 6.879948 2.909711 -14.783257 0
M  V30 92 H 4.024038 4.172136 -13.047145 0
M  V30 93 H 5.049966 4.286067 -14.464496 0
M  V30 94 H 5.042995 2.815670 -13.446663 0
M  V30 95 H 11.664438 4.857025 -20.297089 0
M  V30 END ATOM
M  V30 BEGIN BOND
M  V30 1 1 2 1
M  V30 2 1 3 2
M  V30 3 1 4 3
M  V30 4 1 5 4
M  V30 5 1 6 5
M  V30 6 2 7 6
M  V30 7 1 8 7
M  V30 8 1 9 8
M  V30 9 1 10 9
M  V30 10 1 11 10
M  V30 11 1 12 11
M  V30 12 1 13 12
M  V30 13 2 14 13
M  V30 14 1 15 14
M  V30 15 1 16 15
M  V30 16 2 17 16
M  V30 17 1 18 16
M  V30 18 1 19 18
M  V30 19 1 20 19
M  V30 20 1 21 20
M  V30 21 1 22 21
M  V30 22 1 23 22
M  V30 23 1 24 23
M  V30 24 1 25 24
M  V30 25 1 26 25
M  V30 26 1 27 23
M  V30 27 1 28 27
M  V30 28 1 29 28
M  V30 29 1 30 29
M  V30 30 2 31 30
M  V30 31 1 32 31
M  V30 32 1 33 32
M  V30 33 2 34 32
M  V30 34 1 35 34
M  V30 35 1 36 35
M  V30 36 2 37 36
M  V30 37 1 38 36
M  V30 38 2 39 38
M  V30 39 2 40 29
M  V30 40 1 40 34
M  V30 41 1 40 39
M  V30 42 2 41 15
M  V30 43 2 42 12
M  V30 44 1 42 41
M  V30 45 1 43 42
M  V30 46 1 44 43
M  V30 47 1 45 7
M  V30 48 1 46 5
M  V30 49 2 46 45
M  V30 50 1 47 1
M  V30 51 1 48 1
M  V30 52 1 49 1
M  V30 53 1 50 2
M  V30 54 1 51 2
M  V30 55 1 52 3
M  V30 56 1 53 3
M  V30 57 1 54 4
M  V30 58 1 55 4
M  V30 59 1 56 6
M  V30 60 1 57 8
M  V30 61 1 58 8
M  V30 62 1 59 9
M  V30 63 1 60 9
M  V30 64 1 61 10
M  V30 65 1 62 10
M  V30 66 1 63 13
M  V30 67 1 64 14
M  V30 68 1 65 18
M  V30 69 1 66 19
M  V30 70 1 67 19
M  V30 71 1 68 20
M  V30 72 1 69 20
M  V30 73 1 70 21
M  V30 74 1 71 21
M  V30 75 1 72 22
M  V30 76 1 73 22
M  V30 77 1 74 24
M  V30 78 1 75 24
M  V30 79 1 76 25
M  V30 80 1 77 25
M  V30 81 1 78 26
M  V30 82 1 79 26
M  V30 83 1 80 26
M  V30 84 1 81 27
M  V30 85 1 82 27
M  V30 86 1 83 28
M  V30 87 1 84 28
M  V30 88 1 85 30
M  V30 89 1 86 31
M  V30 90 1 87 33
M  V30 91 1 88 35
M  V30 92 1 89 38
M  V30 93 1 90 39
M  V30 94 1 91 41
M  V30 95 1 92 44
M  V30 96 1 93 44
M  V30 97 1 94 44
M  V30 98 1 23 95 CFG=1
M  V30 END BOND
M  V30 END CTAB
M  END
>  <b_m_subgroup_collapsed>  (1444) 
0

>  <r_i_docking_score>  (1444) 
-7.1216407764450498

>  <s_m_subgroup_title>  (1444) 
glide-dock_SP_D22_pv

>  <s_m_subgroupid>  (1444) 
glide-dock_SP_D22_pv

>  <Molecule ChEMBL ID>  (1444) 
CHEMBL3577344

>  <Standard Type>  (1444) 
Ki

>  <Standard Value>  (1444) 
24.0

>  <label>  (1444) 
1

$$$$
CHEMBL2420776
     RDKit          3D

  0  0  0  0  0  0  0  0  0  0999 V3000
M  V30 BEGIN CTAB
M  V30 COUNTS 37 39 0 0 1
M  V30 BEGIN ATOM
M  V30 1 Cl 12.452621 8.686630 -2.497404 0
M  V30 2 C 11.765663 8.368139 -4.047964 0
M  V30 3 C 11.685991 7.048959 -4.524750 0
M  V30 4 C 11.148557 6.790687 -5.800547 0
M  V30 5 C 10.650396 7.830335 -6.619688 0
M  V30 6 N 10.121490 7.540813 -7.903272 0
M  V30 7 C 9.255237 6.369094 -8.069906 0
M  V30 8 C 9.200984 5.900943 -9.543593 0
M  V30 9 N 8.886040 7.017126 -10.475081 0 CHG=1
M  V30 10 C 8.904822 6.647462 -11.915053 0
M  V30 11 C 7.940488 5.590079 -12.349542 0
M  V30 12 C 6.569533 5.599828 -12.284321 0
M  V30 13 C 5.968424 4.461144 -12.897500 0
M  V30 14 C 6.886487 3.607782 -13.446886 0
M  V30 15 S 8.514454 4.172539 -13.189496 0
M  V30 16 C 9.762665 8.192723 -10.253709 0
M  V30 17 C 9.792376 8.647927 -8.792071 0
M  V30 18 C 10.737058 9.155137 -6.115811 0
M  V30 19 C 11.286438 9.421928 -4.845553 0
M  V30 20 H 12.056109 6.231869 -3.922555 0
M  V30 21 H 11.153201 5.772364 -6.147854 0
M  V30 22 H 8.252300 6.635332 -7.732824 0
M  V30 23 H 9.564521 5.529098 -7.452268 0
M  V30 24 H 8.453279 5.113672 -9.647806 0
M  V30 25 H 10.160210 5.463627 -9.820436 0
M  V30 26 H 9.918297 6.348249 -12.187473 0
M  V30 27 H 8.691501 7.542451 -12.501192 0
M  V30 28 H 5.974901 6.387975 -11.846749 0
M  V30 29 H 4.898247 4.318538 -12.929641 0
M  V30 30 H 6.709207 2.682033 -13.974739 0
M  V30 31 H 10.778004 7.949796 -10.571992 0
M  V30 32 H 9.422894 9.016376 -10.879990 0
M  V30 33 H 8.829287 9.072477 -8.502684 0
M  V30 34 H 10.541343 9.434910 -8.716170 0
M  V30 35 H 10.382149 9.999932 -6.681821 0
M  V30 36 H 11.334674 10.438054 -4.482988 0
M  V30 37 H 7.927642 7.323780 -10.256035 0
M  V30 END ATOM
M  V30 BEGIN BOND
M  V30 1 1 2 1
M  V30 2 1 3 2
M  V30 3 2 4 3
M  V30 4 1 5 4
M  V30 5 1 6 5
M  V30 6 1 7 6
M  V30 7 1 8 7
M  V30 8 1 9 8
M  V30 9 1 10 9
M  V30 10 1 11 10
M  V30 11 2 12 11
M  V30 12 1 13 12
M  V30 13 2 14 13
M  V30 14 1 15 11
M  V30 15 1 15 14
M  V30 16 1 16 9
M  V30 17 1 17 6
M  V30 18 1 17 16
M  V30 19 2 18 5
M  V30 20 2 19 2
M  V30 21 1 19 18
M  V30 22 1 20 3
M  V30 23 1 21 4
M  V30 24 1 22 7
M  V30 25 1 23 7
M  V30 26 1 24 8
M  V30 27 1 25 8
M  V30 28 1 26 10
M  V30 29 1 27 10
M  V30 30 1 28 12
M  V30 31 1 29 13
M  V30 32 1 30 14
M  V30 33 1 31 16
M  V30 34 1 32 16
M  V30 35 1 33 17
M  V30 36 1 34 17
M  V30 37 1 35 18
M  V30 38 1 36 19
M  V30 39 1 37 9
M  V30 END BOND
M  V30 END CTAB
M  END
>  <b_m_subgroup_collapsed>  (1445) 
0

>  <r_i_docking_score>  (1445) 
-7.1211475656290801

>  <s_m_subgroup_title>  (1445) 
glide-dock_SP_D22_pv

>  <s_m_subgroupid>  (1445) 
glide-dock_SP_D22_pv

>  <Molecule ChEMBL ID>  (1445) 
CHEMBL2420776

>  <Standard Type>  (1445) 
Ki

>  <Standard Value>  (1445) 
10000.0

>  <label>  (1445) 
0

$$$$
CHEMBL831
     RDKit          3D

  0  0  0  0  0  0  0  0  0  0999 V3000
M  V30 BEGIN CTAB
M  V30 COUNTS 42 45 0 0 1
M  V30 BEGIN ATOM
M  V30 1 C 8.935521 7.591295 -7.308587 0
M  V30 2 N 8.886029 7.093045 -8.699203 0 CHG=1
M  V30 3 C 9.433290 5.726940 -8.848973 0
M  V30 4 C 9.197078 5.206640 -10.273438 0
M  V30 5 N 9.685996 6.138788 -11.294188 0
M  V30 6 C 10.085813 5.706814 -12.559356 0
M  V30 7 N 11.171323 6.179312 -13.091874 0
M  V30 8 C 11.689692 5.791350 -14.334724 0
M  V30 9 C 12.348417 6.786582 -15.088883 0
M  V30 10 C 12.950542 6.480051 -16.323547 0
M  V30 11 C 12.914859 5.162079 -16.812824 0
M  V30 12 C 12.276647 4.156298 -16.064472 0
M  V30 13 C 11.667012 4.463009 -14.831661 0
M  V30 14 O 11.073799 3.453728 -14.129238 0
M  V30 15 C 9.728039 3.583268 -13.939113 0
M  V30 16 C 8.868326 2.600938 -14.473893 0
M  V30 17 C 7.480189 2.670357 -14.246798 0
M  V30 18 C 6.953465 3.732247 -13.486832 0
M  V30 19 Cl 5.286101 3.766564 -13.056395 0
M  V30 20 C 7.800101 4.749438 -13.019539 0
M  V30 21 C 9.200335 4.670939 -13.203403 0
M  V30 22 C 9.287510 7.535522 -11.125828 0
M  V30 23 C 9.471468 8.035370 -9.680268 0
M  V30 24 H 9.963115 7.681046 -6.955430 0
M  V30 25 H 8.456250 8.568023 -7.231514 0
M  V30 26 H 8.398875 6.912627 -6.645752 0
M  V30 27 H 8.957246 5.055157 -8.133500 0
M  V30 28 H 10.499977 5.731804 -8.622259 0
M  V30 29 H 8.127050 5.047318 -10.408155 0
M  V30 30 H 9.678120 4.233164 -10.392115 0
M  V30 31 H 12.394658 7.799881 -14.717213 0
M  V30 32 H 13.445047 7.255328 -16.890347 0
M  V30 33 H 13.381498 4.921217 -17.756752 0
M  V30 34 H 12.259232 3.141465 -16.433613 0
M  V30 35 H 9.281157 1.773752 -15.032309 0
M  V30 36 H 6.829997 1.891772 -14.617721 0
M  V30 37 H 7.360835 5.562441 -12.459305 0
M  V30 38 H 9.862988 8.176951 -11.795280 0
M  V30 39 H 8.248906 7.632394 -11.446112 0
M  V30 40 H 9.005960 9.016015 -9.574197 0
M  V30 41 H 10.534172 8.161004 -9.466912 0
M  V30 42 H 7.894692 7.041564 -8.929073 0
M  V30 END ATOM
M  V30 BEGIN BOND
M  V30 1 1 2 1
M  V30 2 1 3 2
M  V30 3 1 4 3
M  V30 4 1 5 4
M  V30 5 1 6 5
M  V30 6 2 7 6
M  V30 7 1 8 7
M  V30 8 2 9 8
M  V30 9 1 10 9
M  V30 10 2 11 10
M  V30 11 1 12 11
M  V30 12 1 13 8
M  V30 13 2 13 12
M  V30 14 1 14 13
M  V30 15 1 15 14
M  V30 16 1 16 15
M  V30 17 2 17 16
M  V30 18 1 18 17
M  V30 19 1 19 18
M  V30 20 2 20 18
M  V30 21 1 21 6
M  V30 22 2 21 15
M  V30 23 1 21 20
M  V30 24 1 22 5
M  V30 25 1 23 2
M  V30 26 1 23 22
M  V30 27 1 24 1
M  V30 28 1 25 1
M  V30 29 1 26 1
M  V30 30 1 27 3
M  V30 31 1 28 3
M  V30 32 1 29 4
M  V30 33 1 30 4
M  V30 34 1 31 9
M  V30 35 1 32 10
M  V30 36 1 33 11
M  V30 37 1 34 12
M  V30 38 1 35 16
M  V30 39 1 36 17
M  V30 40 1 37 20
M  V30 41 1 38 22
M  V30 42 1 39 22
M  V30 43 1 40 23
M  V30 44 1 41 23
M  V30 45 1 42 2
M  V30 END BOND
M  V30 END CTAB
M  END
>  <b_m_subgroup_collapsed>  (1446) 
0

>  <r_i_docking_score>  (1446) 
-7.1206381886011103

>  <s_m_subgroup_title>  (1446) 
glide-dock_SP_D22_pv

>  <s_m_subgroupid>  (1446) 
glide-dock_SP_D22_pv

>  <Molecule ChEMBL ID>  (1446) 
CHEMBL831

>  <Standard Type>  (1446) 
Ki

>  <Standard Value>  (1446) 
21.0

>  <label>  (1446) 
1

$$$$
CHEMBL4790600
     RDKit          3D

  0  0  0  0  0  0  0  0  0  0999 V3000
M  V30 BEGIN CTAB
M  V30 COUNTS 63 66 0 0 1
M  V30 BEGIN ATOM
M  V30 1 C 10.651410 2.279733 -14.924152 0
M  V30 2 C 9.249627 2.033118 -15.502856 0
M  V30 3 C 9.217893 2.297258 -17.016415 0
M  V30 4 C 8.728395 0.606418 -15.161283 0
M  V30 5 C 7.477021 0.909926 -14.415036 0
M  V30 6 C 6.543910 0.007664 -13.879115 0
M  V30 7 C 5.432551 0.545440 -13.195589 0
M  V30 8 C 5.281731 1.943150 -13.049172 0
M  V30 9 C 6.226089 2.830905 -13.612125 0
M  V30 10 O 6.055053 4.187554 -13.532673 0
M  V30 11 C 6.283240 4.742447 -12.246551 0
M  V30 12 C 7.785583 5.018075 -12.097407 0
M  V30 13 N 8.086057 5.772430 -10.866406 0 CHG=1
M  V30 14 C 9.511272 6.142523 -10.720161 0
M  V30 15 C 9.674436 7.414826 -9.871250 0
M  V30 16 F 9.010713 8.388610 -10.496145 0
M  V30 17 C 11.133971 7.883957 -9.780194 0
M  V30 18 C 11.263740 9.162416 -8.928570 0
M  V30 19 N 10.652590 8.977449 -7.605174 0
M  V30 20 C 11.190374 9.533369 -6.497459 0
M  V30 21 O 11.686302 10.657017 -6.472708 0
M  V30 22 C 11.327554 8.652851 -5.293365 0
M  V30 23 C 11.289067 7.250455 -5.436354 0
M  V30 24 C 11.685516 6.433349 -4.375255 0
M  V30 25 C 12.074500 6.975311 -3.150096 0
M  V30 26 F 12.488243 6.171871 -2.147084 0
M  V30 27 C 12.046869 8.359071 -2.976128 0
M  V30 28 Cl 12.486638 8.972340 -1.446874 0
M  V30 29 C 11.679419 9.206999 -4.038989 0
M  V30 30 C 9.261949 8.509068 -7.613520 0
M  V30 31 C 9.125666 7.225900 -8.446346 0
M  V30 32 C 7.327020 2.280661 -14.297422 0
M  V30 33 O 8.347913 2.972349 -14.885777 0
M  V30 34 H 11.381156 1.596409 -15.358384 0
M  V30 35 H 10.987885 3.297162 -15.123227 0
M  V30 36 H 10.661507 2.137893 -13.843568 0
M  V30 37 H 9.883524 1.619052 -17.550869 0
M  V30 38 H 8.213154 2.164080 -17.418365 0
M  V30 39 H 9.530263 3.316635 -17.243092 0
M  V30 40 H 9.414678 0.051154 -14.520829 0
M  V30 41 H 8.513071 0.004949 -16.045580 0
M  V30 42 H 6.671432 -1.060019 -13.991116 0
M  V30 43 H 4.684967 -0.115175 -12.791390 0
M  V30 44 H 4.413127 2.332793 -12.540242 0
M  V30 45 H 5.721011 5.675270 -12.177131 0
M  V30 46 H 5.917404 4.093916 -11.448603 0
M  V30 47 H 8.349205 4.084820 -12.096558 0
M  V30 48 H 8.125596 5.594832 -12.959160 0
M  V30 49 H 7.537007 6.638150 -10.848088 0
M  V30 50 H 10.056419 5.303814 -10.284904 0
M  V30 51 H 9.945533 6.324197 -11.704891 0
M  V30 52 H 11.736556 7.091958 -9.337812 0
M  V30 53 H 11.540147 8.063807 -10.776497 0
M  V30 54 H 12.328292 9.371954 -8.825684 0
M  V30 55 H 10.816146 10.011331 -9.445927 0
M  V30 56 H 11.071348 6.774831 -6.377584 0
M  V30 57 H 11.729218 5.372382 -4.516897 0
M  V30 58 H 11.702197 10.277020 -3.897969 0
M  V30 59 H 8.880480 8.332922 -6.605911 0
M  V30 60 H 8.632640 9.294144 -8.037140 0
M  V30 61 H 8.086179 6.920621 -8.471684 0
M  V30 62 H 9.648379 6.402384 -7.961662 0
M  V30 63 H 7.792072 5.238135 -10.060019 0
M  V30 END ATOM
M  V30 BEGIN BOND
M  V30 1 1 2 1
M  V30 2 1 3 2
M  V30 3 1 4 2
M  V30 4 1 5 4
M  V30 5 1 6 5
M  V30 6 2 7 6
M  V30 7 1 8 7
M  V30 8 2 9 8
M  V30 9 1 10 9
M  V30 10 1 11 10
M  V30 11 1 12 11
M  V30 12 1 13 12
M  V30 13 1 14 13
M  V30 14 1 15 14
M  V30 15 1 16 15
M  V30 16 1 17 15
M  V30 17 1 18 17
M  V30 18 1 19 18
M  V30 19 1 20 19
M  V30 20 2 21 20
M  V30 21 1 22 20
M  V30 22 1 23 22
M  V30 23 2 24 23
M  V30 24 1 25 24
M  V30 25 1 26 25
M  V30 26 2 27 25
M  V30 27 1 28 27
M  V30 28 2 29 22
M  V30 29 1 29 27
M  V30 30 1 30 19
M  V30 31 1 31 15
M  V30 32 1 31 30
M  V30 33 2 32 5
M  V30 34 1 32 9
M  V30 35 1 33 2
M  V30 36 1 33 32
M  V30 37 1 34 1
M  V30 38 1 35 1
M  V30 39 1 36 1
M  V30 40 1 37 3
M  V30 41 1 38 3
M  V30 42 1 39 3
M  V30 43 1 40 4
M  V30 44 1 41 4
M  V30 45 1 42 6
M  V30 46 1 43 7
M  V30 47 1 44 8
M  V30 48 1 45 11
M  V30 49 1 46 11
M  V30 50 1 47 12
M  V30 51 1 48 12
M  V30 52 1 49 13
M  V30 53 1 50 14
M  V30 54 1 51 14
M  V30 55 1 52 17
M  V30 56 1 53 17
M  V30 57 1 54 18
M  V30 58 1 55 18
M  V30 59 1 56 23
M  V30 60 1 57 24
M  V30 61 1 58 29
M  V30 62 1 59 30
M  V30 63 1 60 30
M  V30 64 1 61 31
M  V30 65 1 62 31
M  V30 66 1 63 13
M  V30 END BOND
M  V30 END CTAB
M  END
>  <b_m_subgroup_collapsed>  (1447) 
0

>  <r_i_docking_score>  (1447) 
-7.1194425420005896

>  <s_m_subgroup_title>  (1447) 
glide-dock_SP_D22_pv

>  <s_m_subgroupid>  (1447) 
glide-dock_SP_D22_pv

>  <Molecule ChEMBL ID>  (1447) 
CHEMBL4790600

>  <Standard Type>  (1447) 
Ki

>  <Standard Value>  (1447) 
25.0

>  <label>  (1447) 
1

$$$$
CHEMBL1088000
     RDKit          3D

  0  0  0  0  0  0  0  0  0  0999 V3000
M  V30 BEGIN CTAB
M  V30 COUNTS 67 73 0 0 1
M  V30 BEGIN ATOM
M  V30 1 O 12.484119 6.503805 -2.479322 0
M  V30 2 C 12.085945 7.138359 -3.450270 0
M  V30 3 C 12.431698 8.625556 -3.585753 0
M  V30 4 C 11.335259 9.425015 -4.286719 0
M  V30 5 C 10.900734 8.710680 -5.547929 0
M  V30 6 C 10.486069 9.433988 -6.674142 0
M  V30 7 C 9.952349 8.767306 -7.791577 0
M  V30 8 C 9.861043 7.361887 -7.793954 0
M  V30 9 C 9.145694 6.647977 -8.929399 0
M  V30 10 C 10.069692 5.984486 -9.980892 0 CFG=1
M  V30 11 C 9.384994 4.782051 -10.706050 0
M  V30 12 C 8.762890 5.131001 -12.081505 0 CFG=1
M  V30 13 C 7.713388 6.232522 -11.945435 0
M  V30 14 C 8.486175 7.553564 -12.156214 0
M  V30 15 C 9.939692 7.099690 -12.336421 0 CFG=1
M  V30 16 C 10.679293 7.007738 -10.982180 0
M  V30 17 N 9.750677 5.773543 -12.964118 0 CFG=1 CHG=1
M  V30 18 C 10.947693 5.030492 -13.438233 0
M  V30 19 C 10.593483 3.956579 -14.475774 0 CFG=2
M  V30 20 C 10.320210 2.570689 -13.857051 0
M  V30 21 O 9.814449 1.722574 -14.875063 0
M  V30 22 C 10.559626 1.753765 -16.027517 0
M  V30 23 C 11.529407 2.764920 -16.272894 0
M  V30 24 C 12.323111 2.719838 -17.446678 0
M  V30 25 C 12.126154 1.705741 -18.415133 0
M  V30 26 C 11.119053 0.756616 -18.168913 0
M  V30 27 C 10.359141 0.779556 -17.010330 0
M  V30 28 C 9.350661 -0.332761 -17.005468 0
M  V30 29 C 9.648430 -0.928710 -18.387413 0
M  V30 30 O 8.980722 -1.827491 -18.885834 0
M  V30 31 N 10.682005 -0.300631 -18.970287 0
M  V30 32 O 11.690289 3.799228 -15.376122 0
M  V30 33 C 10.359126 6.634429 -6.694905 0
M  V30 34 C 10.887173 7.300271 -5.570600 0
M  V30 35 N 11.380272 6.573485 -4.450834 0
M  V30 36 H 12.700234 9.065098 -2.624157 0
M  V30 37 H 13.288270 8.680877 -4.239897 0
M  V30 38 H 11.685570 10.424569 -4.535946 0
M  V30 39 H 10.486263 9.553611 -3.620278 0
M  V30 40 H 10.507070 10.511859 -6.646538 0
M  V30 41 H 9.567775 9.340149 -8.622628 0
M  V30 42 H 8.486069 7.366937 -9.398728 0
M  V30 43 H 8.489915 5.907507 -8.468485 0
M  V30 44 H 10.882368 5.568314 -9.390998 0
M  V30 45 H 8.616629 4.349780 -10.065134 0
M  V30 46 H 10.091827 3.969551 -10.849015 0
M  V30 47 H 8.308789 4.252781 -12.539414 0
M  V30 48 H 7.249794 6.169768 -10.971006 0
M  V30 49 H 6.923278 6.128879 -12.690647 0
M  V30 50 H 8.378252 8.281929 -11.354988 0
M  V30 51 H 8.104551 8.045073 -13.046853 0
M  V30 52 H 10.492516 7.773002 -12.991323 0
M  V30 53 H 11.723274 6.788608 -11.186834 0
M  V30 54 H 10.712636 7.997811 -10.524488 0
M  V30 55 H 11.521008 4.575959 -12.646887 0
M  V30 56 H 11.607953 5.761436 -13.908493 0
M  V30 57 H 9.727496 4.289546 -15.051888 0
M  V30 58 H 11.236395 2.140365 -13.452074 0
M  V30 59 H 9.597916 2.603235 -13.046806 0
M  V30 60 H 13.070130 3.481618 -17.614254 0
M  V30 61 H 12.713797 1.679900 -19.320263 0
M  V30 62 H 9.557418 -1.027634 -16.193859 0
M  V30 63 H 8.328763 0.043963 -16.936619 0
M  V30 64 H 11.053732 -0.499651 -19.887228 0
M  V30 65 H 10.296201 5.564336 -6.711700 0
M  V30 66 H 11.198653 5.580060 -4.412791 0
M  V30 67 H 9.238421 5.981992 -13.809238 0
M  V30 END ATOM
M  V30 BEGIN BOND
M  V30 1 2 2 1
M  V30 2 1 3 2
M  V30 3 1 4 3
M  V30 4 1 5 4
M  V30 5 1 6 5
M  V30 6 2 7 6
M  V30 7 1 8 7
M  V30 8 1 9 8
M  V30 9 1 10 9
M  V30 10 1 11 10
M  V30 11 1 12 11
M  V30 12 1 13 12
M  V30 13 1 14 13
M  V30 14 1 15 14
M  V30 15 1 16 10
M  V30 16 1 16 15
M  V30 17 1 17 12
M  V30 18 1 17 15
M  V30 19 1 18 17
M  V30 20 1 19 18
M  V30 21 1 20 19
M  V30 22 1 21 20
M  V30 23 1 22 21
M  V30 24 2 23 22
M  V30 25 1 24 23
M  V30 26 2 25 24
M  V30 27 1 26 25
M  V30 28 1 27 22
M  V30 29 2 27 26
M  V30 30 1 28 27
M  V30 31 1 29 28
M  V30 32 2 30 29
M  V30 33 1 31 26
M  V30 34 1 31 29
M  V30 35 1 32 19
M  V30 36 1 32 23
M  V30 37 2 33 8
M  V30 38 2 34 5
M  V30 39 1 34 33
M  V30 40 1 35 2
M  V30 41 1 35 34
M  V30 42 1 36 3
M  V30 43 1 37 3
M  V30 44 1 38 4
M  V30 45 1 39 4
M  V30 46 1 40 6
M  V30 47 1 41 7
M  V30 48 1 42 9
M  V30 49 1 43 9
M  V30 50 1 10 44 CFG=1
M  V30 51 1 45 11
M  V30 52 1 46 11
M  V30 53 1 12 47 CFG=3
M  V30 54 1 48 13
M  V30 55 1 49 13
M  V30 56 1 50 14
M  V30 57 1 51 14
M  V30 58 1 15 52 CFG=3
M  V30 59 1 53 16
M  V30 60 1 54 16
M  V30 61 1 55 18
M  V30 62 1 56 18
M  V30 63 1 19 57 CFG=3
M  V30 64 1 58 20
M  V30 65 1 59 20
M  V30 66 1 60 24
M  V30 67 1 61 25
M  V30 68 1 62 28
M  V30 69 1 63 28
M  V30 70 1 64 31
M  V30 71 1 65 33
M  V30 72 1 66 35
M  V30 73 1 17 67 CFG=3
M  V30 END BOND
M  V30 END CTAB
M  END
>  <b_m_subgroup_collapsed>  (1448) 
0

>  <r_i_docking_score>  (1448) 
-7.1165879728230301

>  <s_m_subgroup_title>  (1448) 
glide-dock_SP_D22_pv

>  <s_m_subgroupid>  (1448) 
glide-dock_SP_D22_pv

>  <Molecule ChEMBL ID>  (1448) 
CHEMBL1088000

>  <Standard Type>  (1448) 
Ki

>  <Standard Value>  (1448) 
16.0

>  <label>  (1448) 
1

$$$$
CHEMBL4567345
     RDKit          3D

  0  0  0  0  0  0  0  0  0  0999 V3000
M  V30 BEGIN CTAB
M  V30 COUNTS 63 67 0 0 1
M  V30 BEGIN ATOM
M  V30 1 O 6.286584 -0.226674 -13.307887 0
M  V30 2 C 6.493468 0.041549 -14.490867 0
M  V30 3 C 5.692705 -0.430767 -15.655985 0
M  V30 4 C 4.583868 -1.291224 -15.755155 0
M  V30 5 C 4.050215 -1.552426 -17.043467 0
M  V30 6 C 4.605417 -0.960842 -18.209982 0
M  V30 7 C 5.723447 -0.102042 -18.111574 0
M  V30 8 C 6.437344 0.563582 -19.133440 0
M  V30 9 C 7.560971 1.372191 -18.814217 0
M  V30 10 C 7.987609 1.545218 -17.471706 0
M  V30 11 C 7.282409 0.887033 -16.443069 0
M  V30 12 C 6.202126 0.106415 -16.817211 0
M  V30 13 N 7.447905 0.840389 -15.030829 0
M  V30 14 C 8.439672 1.620534 -14.297530 0
M  V30 15 C 7.837589 2.962607 -13.847630 0
M  V30 16 C 8.791828 3.845997 -13.030256 0
M  V30 17 C 8.210101 5.259581 -12.841317 0
M  V30 18 C 8.198123 5.789171 -11.401767 0
M  V30 19 C 9.578748 6.043103 -10.789524 0
M  V30 20 N 9.503972 6.899515 -9.575625 0 CHG=1
M  V30 21 C 10.769612 7.662014 -9.382824 0
M  V30 22 C 10.757495 8.540249 -8.124542 0
M  V30 23 N 10.318955 7.781954 -6.961888 0
M  V30 24 C 10.956768 7.868849 -5.701089 0
M  V30 25 C 11.112676 6.690956 -4.947845 0
M  V30 26 C 11.688100 6.692653 -3.664035 0
M  V30 27 C 12.155369 7.892195 -3.108910 0
M  V30 28 C 12.036430 9.081515 -3.846038 0
M  V30 29 C 11.441968 9.072404 -5.125595 0
M  V30 30 Cl 11.286066 10.575743 -5.922854 0
M  V30 31 C 9.055042 7.064284 -7.106337 0
M  V30 32 C 9.083447 6.157228 -8.353546 0
M  V30 33 H 4.154241 -1.750498 -14.877791 0
M  V30 34 H 3.211627 -2.226753 -17.137653 0
M  V30 35 H 4.175100 -1.179454 -19.177395 0
M  V30 36 H 6.133287 0.445413 -20.163475 0
M  V30 37 H 8.101996 1.864015 -19.609619 0
M  V30 38 H 8.842604 2.165503 -17.244753 0
M  V30 39 H 9.312609 1.790539 -14.927657 0
M  V30 40 H 8.794431 1.040602 -13.447181 0
M  V30 41 H 6.922951 2.791184 -13.275334 0
M  V30 42 H 7.527444 3.512695 -14.728550 0
M  V30 43 H 9.755012 3.922368 -13.536583 0
M  V30 44 H 8.997616 3.374535 -12.070374 0
M  V30 45 H 7.175698 5.276429 -13.186666 0
M  V30 46 H 8.737019 5.957622 -13.490968 0
M  V30 47 H 7.600667 5.138149 -10.763624 0
M  V30 48 H 7.685982 6.744475 -11.447085 0
M  V30 49 H 10.183896 6.547980 -11.544046 0
M  V30 50 H 10.085323 5.103301 -10.566605 0
M  V30 51 H 10.957090 8.293224 -10.252770 0
M  V30 52 H 11.607161 6.969158 -9.319872 0
M  V30 53 H 10.070415 9.372607 -8.267165 0
M  V30 54 H 11.755713 8.951101 -7.972944 0
M  V30 55 H 10.765182 5.772334 -5.366034 0
M  V30 56 H 11.778294 5.772474 -3.106918 0
M  V30 57 H 12.599805 7.903639 -2.125552 0
M  V30 58 H 12.386900 10.008779 -3.416171 0
M  V30 59 H 8.816454 6.475554 -6.222184 0
M  V30 60 H 8.253719 7.799356 -7.200973 0
M  V30 61 H 8.094203 5.725450 -8.507481 0
M  V30 62 H 9.769817 5.327414 -8.180037 0
M  V30 63 H 8.767775 7.575970 -9.746730 0
M  V30 END ATOM
M  V30 BEGIN BOND
M  V30 1 2 2 1
M  V30 2 1 3 2
M  V30 3 1 4 3
M  V30 4 2 5 4
M  V30 5 1 6 5
M  V30 6 2 7 6
M  V30 7 1 8 7
M  V30 8 2 9 8
M  V30 9 1 10 9
M  V30 10 2 11 10
M  V30 11 2 12 3
M  V30 12 1 12 7
M  V30 13 1 12 11
M  V30 14 1 13 2
M  V30 15 1 13 11
M  V30 16 1 14 13
M  V30 17 1 15 14
M  V30 18 1 16 15
M  V30 19 1 17 16
M  V30 20 1 18 17
M  V30 21 1 19 18
M  V30 22 1 20 19
M  V30 23 1 21 20
M  V30 24 1 22 21
M  V30 25 1 23 22
M  V30 26 1 24 23
M  V30 27 2 25 24
M  V30 28 1 26 25
M  V30 29 2 27 26
M  V30 30 1 28 27
M  V30 31 1 29 24
M  V30 32 2 29 28
M  V30 33 1 30 29
M  V30 34 1 31 23
M  V30 35 1 32 20
M  V30 36 1 32 31
M  V30 37 1 33 4
M  V30 38 1 34 5
M  V30 39 1 35 6
M  V30 40 1 36 8
M  V30 41 1 37 9
M  V30 42 1 38 10
M  V30 43 1 39 14
M  V30 44 1 40 14
M  V30 45 1 41 15
M  V30 46 1 42 15
M  V30 47 1 43 16
M  V30 48 1 44 16
M  V30 49 1 45 17
M  V30 50 1 46 17
M  V30 51 1 47 18
M  V30 52 1 48 18
M  V30 53 1 49 19
M  V30 54 1 50 19
M  V30 55 1 51 21
M  V30 56 1 52 21
M  V30 57 1 53 22
M  V30 58 1 54 22
M  V30 59 1 55 25
M  V30 60 1 56 26
M  V30 61 1 57 27
M  V30 62 1 58 28
M  V30 63 1 59 31
M  V30 64 1 60 31
M  V30 65 1 61 32
M  V30 66 1 62 32
M  V30 67 1 63 20
M  V30 END BOND
M  V30 END CTAB
M  END
>  <b_m_subgroup_collapsed>  (1449) 
0

>  <r_i_docking_score>  (1449) 
-7.1154534364419701

>  <s_m_subgroup_title>  (1449) 
glide-dock_SP_D22_pv

>  <s_m_subgroupid>  (1449) 
glide-dock_SP_D22_pv

>  <Molecule ChEMBL ID>  (1449) 
CHEMBL4567345

>  <Standard Type>  (1449) 
Ki

>  <Standard Value>  (1449) 
58.0

>  <label>  (1449) 
1

$$$$
CHEMBL69259
     RDKit          3D

  0  0  0  0  0  0  0  0  0  0999 V3000
M  V30 BEGIN CTAB
M  V30 COUNTS 41 43 0 0 1
M  V30 BEGIN ATOM
M  V30 1 C 8.651058 5.710668 -11.853175 0
M  V30 2 N 9.558926 5.965042 -10.712448 0 CFG=2 CHG=1
M  V30 3 C 8.854897 5.817636 -9.417352 0
M  V30 4 C 9.814284 5.980476 -8.235320 0
M  V30 5 C 10.550149 7.332287 -8.263777 0 CFG=2
M  V30 6 C 11.211266 7.557617 -9.651750 0
M  V30 7 C 10.252038 7.274817 -10.834349 0
M  V30 8 O 11.479763 7.278229 -7.175034 0
M  V30 9 C 11.423807 8.471441 -6.376211 0 CFG=2
M  V30 10 C 12.453050 9.427501 -6.993738 0
M  V30 11 C 11.685944 8.253880 -4.892277 0
M  V30 12 C 11.785053 6.955841 -4.350991 0
M  V30 13 C 12.086086 6.778499 -2.987533 0
M  V30 14 C 12.252903 7.899640 -2.155038 0
M  V30 15 C 12.086275 9.194579 -2.670607 0
M  V30 16 C 11.796885 9.369734 -4.032869 0
M  V30 17 C 10.023576 9.027427 -6.558589 0
M  V30 18 C 9.664755 8.513583 -7.915802 0
M  V30 19 O 8.885968 9.058192 -8.683640 0
M  V30 20 H 7.837488 6.438962 -11.874406 0
M  V30 21 H 9.188930 5.770943 -12.799508 0
M  V30 22 H 8.212561 4.714572 -11.782669 0
M  V30 23 H 8.362417 4.845563 -9.364211 0
M  V30 24 H 8.081614 6.572134 -9.350810 0
M  V30 25 H 10.541445 5.168447 -8.247282 0
M  V30 26 H 9.259750 5.875082 -7.301167 0
M  V30 27 H 11.561476 8.585006 -9.750691 0
M  V30 28 H 12.114182 6.972159 -9.755036 0
M  V30 29 H 10.817130 7.298745 -11.766973 0
M  V30 30 H 9.503932 8.064570 -10.918064 0
M  V30 31 H 12.586665 10.340289 -6.415053 0
M  V30 32 H 13.430572 8.972353 -7.131543 0
M  V30 33 H 12.086105 9.746550 -7.962075 0
M  V30 34 H 11.667207 6.089031 -4.984255 0
M  V30 35 H 12.190027 5.781228 -2.582960 0
M  V30 36 H 12.500849 7.773066 -1.113671 0
M  V30 37 H 12.187025 10.053522 -2.024055 0
M  V30 38 H 11.666941 10.370458 -4.413703 0
M  V30 39 H 9.305246 8.628504 -5.846921 0
M  V30 40 H 10.086054 10.113301 -6.500286 0
M  V30 41 H 10.266232 5.244693 -10.737778 0
M  V30 END ATOM
M  V30 BEGIN BOND
M  V30 1 1 2 1
M  V30 2 1 3 2
M  V30 3 1 4 3
M  V30 4 1 5 4
M  V30 5 1 6 5
M  V30 6 1 7 2
M  V30 7 1 7 6
M  V30 8 1 5 8 CFG=1
M  V30 9 1 9 8
M  V30 10 1 9 10 CFG=3
M  V30 11 1 11 9
M  V30 12 2 12 11
M  V30 13 1 13 12
M  V30 14 2 14 13
M  V30 15 1 15 14
M  V30 16 1 16 11
M  V30 17 2 16 15
M  V30 18 1 17 9
M  V30 19 1 18 5
M  V30 20 1 18 17
M  V30 21 2 19 18
M  V30 22 1 20 1
M  V30 23 1 21 1
M  V30 24 1 22 1
M  V30 25 1 23 3
M  V30 26 1 24 3
M  V30 27 1 25 4
M  V30 28 1 26 4
M  V30 29 1 27 6
M  V30 30 1 28 6
M  V30 31 1 29 7
M  V30 32 1 30 7
M  V30 33 1 31 10
M  V30 34 1 32 10
M  V30 35 1 33 10
M  V30 36 1 34 12
M  V30 37 1 35 13
M  V30 38 1 36 14
M  V30 39 1 37 15
M  V30 40 1 38 16
M  V30 41 1 39 17
M  V30 42 1 40 17
M  V30 43 1 2 41 CFG=1
M  V30 END BOND
M  V30 END CTAB
M  END
>  <b_m_subgroup_collapsed>  (1450) 
0

>  <r_i_docking_score>  (1450) 
-7.1151401415519802

>  <s_m_subgroup_title>  (1450) 
glide-dock_SP_D22_pv

>  <s_m_subgroupid>  (1450) 
glide-dock_SP_D22_pv

>  <Molecule ChEMBL ID>  (1450) 
CHEMBL69259

>  <Standard Type>  (1450) 
Ki

>  <Standard Value>  (1450) 
10000.0

>  <label>  (1450) 
0

$$$$
CHEMBL560650
     RDKit          3D

  0  0  0  0  0  0  0  0  0  0999 V3000
M  V30 BEGIN CTAB
M  V30 COUNTS 48 51 0 0 1
M  V30 BEGIN ATOM
M  V30 1 O 9.083407 4.576462 -10.404526 0
M  V30 2 C 8.788776 5.549998 -11.095981 0
M  V30 3 N 9.286163 6.786708 -10.943612 0
M  V30 4 C 10.196450 7.221356 -9.892777 0
M  V30 5 C 9.516088 7.187953 -8.514399 0
M  V30 6 N 10.488366 7.559667 -7.463342 0 CHG=1
M  V30 7 C 10.621980 6.577549 -6.354092 0
M  V30 8 C 11.119243 7.426833 -5.225234 0
M  V30 9 C 11.686470 7.007617 -4.010381 0
M  V30 10 C 12.086054 8.002805 -3.090578 0
M  V30 11 C 11.884009 9.373034 -3.385954 0
M  V30 12 C 11.292469 9.772168 -4.607252 0
M  V30 13 C 10.934560 8.767910 -5.520136 0
M  V30 14 C 10.331563 8.924249 -6.888086 0
M  V30 15 C 8.786695 7.725625 -11.929054 0
M  V30 16 C 7.812219 6.868728 -12.736459 0
M  V30 17 N 7.946698 5.557652 -12.139157 0
M  V30 18 C 7.176116 4.433938 -12.667056 0
M  V30 19 C 7.917855 3.495553 -13.617245 0
M  V30 20 C 9.314263 3.569092 -13.835016 0
M  V30 21 C 9.962612 2.602503 -14.628600 0
M  V30 22 C 9.227849 1.556488 -15.218201 0
M  V30 23 Cl 10.061915 0.352637 -16.136330 0
M  V30 24 C 7.827907 1.500536 -15.039875 0
M  V30 25 Cl 6.885293 0.246246 -15.761056 0
M  V30 26 C 7.182338 2.469387 -14.247051 0
M  V30 27 H 10.552583 8.228821 -10.113676 0
M  V30 28 H 11.073339 6.572620 -9.899399 0
M  V30 29 H 9.129105 6.187290 -8.316175 0
M  V30 30 H 8.647437 7.848416 -8.500782 0
M  V30 31 H 11.311465 5.772887 -6.608637 0
M  V30 32 H 9.650050 6.172464 -6.072729 0
M  V30 33 H 11.819753 5.958836 -3.787165 0
M  V30 34 H 12.530708 7.717320 -2.148569 0
M  V30 35 H 12.180355 10.122835 -2.665851 0
M  V30 36 H 11.137847 10.816481 -4.837123 0
M  V30 37 H 9.281363 9.193776 -6.788320 0
M  V30 38 H 10.849344 9.675170 -7.485201 0
M  V30 39 H 8.286155 8.567604 -11.448488 0
M  V30 40 H 9.602207 8.107839 -12.543290 0
M  V30 41 H 8.085917 6.796913 -13.786296 0
M  V30 42 H 6.786577 7.232091 -12.647454 0
M  V30 43 H 6.796639 3.845444 -11.829410 0
M  V30 44 H 6.295636 4.820969 -13.181897 0
M  V30 45 H 9.913087 4.339943 -13.375003 0
M  V30 46 H 11.032791 2.650974 -14.766156 0
M  V30 47 H 6.114943 2.401523 -14.093118 0
M  V30 48 H 11.397346 7.564016 -7.901999 0
M  V30 END ATOM
M  V30 BEGIN BOND
M  V30 1 2 2 1
M  V30 2 1 3 2
M  V30 3 1 4 3
M  V30 4 1 5 4
M  V30 5 1 6 5
M  V30 6 1 7 6
M  V30 7 1 8 7
M  V30 8 2 9 8
M  V30 9 1 10 9
M  V30 10 2 11 10
M  V30 11 1 12 11
M  V30 12 1 13 8
M  V30 13 2 13 12
M  V30 14 1 14 6
M  V30 15 1 14 13
M  V30 16 1 15 3
M  V30 17 1 16 15
M  V30 18 1 17 2
M  V30 19 1 17 16
M  V30 20 1 18 17
M  V30 21 1 19 18
M  V30 22 1 20 19
M  V30 23 2 21 20
M  V30 24 1 22 21
M  V30 25 1 23 22
M  V30 26 2 24 22
M  V30 27 1 25 24
M  V30 28 2 26 19
M  V30 29 1 26 24
M  V30 30 1 27 4
M  V30 31 1 28 4
M  V30 32 1 29 5
M  V30 33 1 30 5
M  V30 34 1 31 7
M  V30 35 1 32 7
M  V30 36 1 33 9
M  V30 37 1 34 10
M  V30 38 1 35 11
M  V30 39 1 36 12
M  V30 40 1 37 14
M  V30 41 1 38 14
M  V30 42 1 39 15
M  V30 43 1 40 15
M  V30 44 1 41 16
M  V30 45 1 42 16
M  V30 46 1 43 18
M  V30 47 1 44 18
M  V30 48 1 45 20
M  V30 49 1 46 21
M  V30 50 1 47 26
M  V30 51 1 48 6
M  V30 END BOND
M  V30 END CTAB
M  END
>  <b_m_subgroup_collapsed>  (1451) 
0

>  <r_i_docking_score>  (1451) 
-7.1121951095162199

>  <s_m_subgroup_title>  (1451) 
glide-dock_SP_D22_pv

>  <s_m_subgroupid>  (1451) 
glide-dock_SP_D22_pv

>  <Molecule ChEMBL ID>  (1451) 
CHEMBL560650

>  <Standard Type>  (1451) 
Ki

>  <Standard Value>  (1451) 
10000.0

>  <label>  (1451) 
0

$$$$
CHEMBL599080
     RDKit          3D

  0  0  0  0  0  0  0  0  0  0999 V3000
M  V30 BEGIN CTAB
M  V30 COUNTS 56 59 0 0 1
M  V30 BEGIN ATOM
M  V30 1 C 10.255548 7.128767 -6.174141 0
M  V30 2 C 8.964621 6.729531 -6.908023 0
M  V30 3 C 9.194944 6.218272 -8.347974 0
M  V30 4 N 8.886032 7.207817 -9.423106 0 CFG=1 CHG=1
M  V30 5 C 9.472513 8.547475 -9.246406 0
M  V30 6 C 10.975367 8.466576 -9.464061 0
M  V30 7 C 11.369729 7.875178 -10.803737 0
M  V30 8 C 12.572256 8.172372 -11.446658 0
M  V30 9 C 12.823669 7.667301 -12.720712 0
M  V30 10 C 11.941957 6.736562 -13.289494 0
M  V30 11 C 10.708895 6.346887 -12.693663 0
M  V30 12 C 10.456975 6.990478 -11.444399 0
M  V30 13 C 9.069983 6.740909 -10.828688 0 CFG=1
M  V30 14 C 8.548504 5.316683 -11.067087 0
M  V30 15 C 8.705141 4.861751 -12.499189 0
M  V30 16 C 7.781564 3.918833 -12.984962 0
M  V30 17 C 7.955319 3.347820 -14.246663 0
M  V30 18 C 9.008856 3.788898 -15.053862 0
M  V30 19 C 9.875088 4.831364 -14.636855 0
M  V30 20 O 10.805102 5.372076 -15.503389 0
M  V30 21 C 10.944995 4.909478 -16.844814 0
M  V30 22 C 9.837017 5.419708 -17.757706 0
M  V30 23 C 9.911843 6.380533 -18.701986 0
M  V30 24 C 8.710246 6.724555 -19.562222 0
M  V30 25 C 11.154601 7.194967 -19.022902 0
M  V30 26 C 9.770260 5.346911 -13.302777 0
M  V30 27 H 10.074427 7.281627 -5.111339 0
M  V30 28 H 10.677421 8.053880 -6.562011 0
M  V30 29 H 11.013250 6.349394 -6.256130 0
M  V30 30 H 8.505636 5.923975 -6.339512 0
M  V30 31 H 8.224946 7.530652 -6.873467 0
M  V30 32 H 10.204054 5.820940 -8.468230 0
M  V30 33 H 8.519675 5.371612 -8.471988 0
M  V30 34 H 9.028032 9.224307 -9.978020 0
M  V30 35 H 9.235791 8.976706 -8.273958 0
M  V30 36 H 11.399837 9.468274 -9.390487 0
M  V30 37 H 11.460392 7.877163 -8.687543 0
M  V30 38 H 13.279497 8.852882 -10.999306 0
M  V30 39 H 13.731311 7.930624 -13.238786 0
M  V30 40 H 12.292744 6.322533 -14.215514 0
M  V30 41 H 8.425018 7.391246 -11.422077 0
M  V30 42 H 9.109848 4.594259 -10.474269 0
M  V30 43 H 7.503415 5.246348 -10.761892 0
M  V30 44 H 6.966901 3.581940 -12.359589 0
M  V30 45 H 7.276631 2.584983 -14.599412 0
M  V30 46 H 9.087630 3.336313 -16.028540 0
M  V30 47 H 11.916431 5.247464 -17.198286 0
M  V30 48 H 11.004793 3.822118 -16.892746 0
M  V30 49 H 8.885821 4.930629 -17.620964 0
M  V30 50 H 8.939226 6.549100 -20.613531 0
M  V30 51 H 8.438143 7.772227 -19.444218 0
M  V30 52 H 7.838356 6.123509 -19.304457 0
M  V30 53 H 11.543591 6.917250 -20.002537 0
M  V30 54 H 11.951795 7.077450 -18.291933 0
M  V30 55 H 10.906028 8.256440 -19.049278 0
M  V30 56 H 7.877059 7.366666 -9.372210 0
M  V30 END ATOM
M  V30 BEGIN BOND
M  V30 1 1 2 1
M  V30 2 1 3 2
M  V30 3 1 4 3
M  V30 4 1 5 4
M  V30 5 1 6 5
M  V30 6 1 7 6
M  V30 7 1 8 7
M  V30 8 2 9 8
M  V30 9 1 10 9
M  V30 10 2 11 10
M  V30 11 2 12 7
M  V30 12 1 12 11
M  V30 13 1 13 4
M  V30 14 1 13 12
M  V30 15 1 14 13
M  V30 16 1 15 14
M  V30 17 1 16 15
M  V30 18 2 17 16
M  V30 19 1 18 17
M  V30 20 2 19 18
M  V30 21 1 20 19
M  V30 22 1 21 20
M  V30 23 1 22 21
M  V30 24 2 23 22
M  V30 25 1 24 23
M  V30 26 1 25 23
M  V30 27 1 26 11
M  V30 28 2 26 15
M  V30 29 1 26 19
M  V30 30 1 27 1
M  V30 31 1 28 1
M  V30 32 1 29 1
M  V30 33 1 30 2
M  V30 34 1 31 2
M  V30 35 1 32 3
M  V30 36 1 33 3
M  V30 37 1 34 5
M  V30 38 1 35 5
M  V30 39 1 36 6
M  V30 40 1 37 6
M  V30 41 1 38 8
M  V30 42 1 39 9
M  V30 43 1 40 10
M  V30 44 1 13 41 CFG=3
M  V30 45 1 42 14
M  V30 46 1 43 14
M  V30 47 1 44 16
M  V30 48 1 45 17
M  V30 49 1 46 18
M  V30 50 1 47 21
M  V30 51 1 48 21
M  V30 52 1 49 22
M  V30 53 1 50 24
M  V30 54 1 51 24
M  V30 55 1 52 24
M  V30 56 1 53 25
M  V30 57 1 54 25
M  V30 58 1 55 25
M  V30 59 1 4 56 CFG=3
M  V30 END BOND
M  V30 END CTAB
M  END
>  <b_m_subgroup_collapsed>  (1452) 
0

>  <r_i_docking_score>  (1452) 
-7.1098270679010396

>  <s_m_subgroup_title>  (1452) 
glide-dock_SP_D22_pv

>  <s_m_subgroupid>  (1452) 
glide-dock_SP_D22_pv

>  <Molecule ChEMBL ID>  (1452) 
CHEMBL599080

>  <Standard Type>  (1452) 
Ki

>  <Standard Value>  (1452) 
10000.0

>  <label>  (1452) 
0

$$$$
CHEMBL11493
     RDKit          3D

  0  0  0  0  0  0  0  0  0  0999 V3000
M  V30 BEGIN CTAB
M  V30 COUNTS 58 61 0 0 1
M  V30 BEGIN ATOM
M  V30 1 C 11.369108 7.879162 -4.712394 0
M  V30 2 C 10.447412 7.431303 -5.857231 0
M  V30 3 C 10.008911 8.606991 -6.753580 0
M  V30 4 C 8.827614 8.319291 -7.717898 0
M  V30 5 N 9.117396 7.723266 -9.060677 0 CFG=1 CHG=1
M  V30 6 C 9.638913 8.611209 -10.125339 0 CFG=1
M  V30 7 C 11.163606 8.572233 -9.947752 0
M  V30 8 C 11.415586 7.204129 -9.291767 0
M  V30 9 C 10.016146 6.564337 -9.119016 0 CFG=2
M  V30 10 C 9.576089 5.741111 -10.357147 0
M  V30 11 C 9.790258 6.543784 -11.665111 0 CFG=1
M  V30 12 O 9.169827 5.886039 -12.770189 0
M  V30 13 C 9.928657 4.830562 -13.375080 0
M  V30 14 C 10.822871 5.353449 -14.503244 0
M  V30 15 C 10.415496 5.279655 -15.855633 0
M  V30 16 C 11.237786 5.783811 -16.883581 0
M  V30 17 C 12.466906 6.392429 -16.563921 0
M  V30 18 F 13.248162 6.901170 -17.546036 0
M  V30 19 C 12.886278 6.459825 -15.224943 0
M  V30 20 C 12.074628 5.931399 -14.200545 0
M  V30 21 C 9.044074 3.669015 -13.815473 0
M  V30 22 C 9.637489 2.461377 -14.244970 0
M  V30 23 C 8.835520 1.382571 -14.663122 0
M  V30 24 C 7.433763 1.506373 -14.660154 0
M  V30 25 F 6.656590 0.473555 -15.058800 0
M  V30 26 C 6.837552 2.709778 -14.243005 0
M  V30 27 C 7.637676 3.786407 -13.815130 0
M  V30 28 C 9.254041 7.990933 -11.503562 0
M  V30 29 H 11.661760 7.024445 -4.099088 0
M  V30 30 H 12.277276 8.349573 -5.089431 0
M  V30 31 H 10.883514 8.606384 -4.061197 0
M  V30 32 H 9.568685 6.942292 -5.440146 0
M  V30 33 H 10.965076 6.666324 -6.431955 0
M  V30 34 H 10.858145 9.055176 -7.260174 0
M  V30 35 H 9.668326 9.376126 -6.065968 0
M  V30 36 H 8.293019 9.249578 -7.899445 0
M  V30 37 H 8.108528 7.676084 -7.207771 0
M  V30 38 H 9.234848 9.620360 -10.043432 0
M  V30 39 H 11.699598 8.678442 -10.891768 0
M  V30 40 H 11.504337 9.384387 -9.307350 0
M  V30 41 H 12.072708 6.590784 -9.895185 0
M  V30 42 H 11.919829 7.342093 -8.337086 0
M  V30 43 H 9.934479 5.938891 -8.231260 0
M  V30 44 H 8.518052 5.492495 -10.260365 0
M  V30 45 H 10.086871 4.783429 -10.387734 0
M  V30 46 H 10.855378 6.630367 -11.871061 0
M  V30 47 H 10.589201 4.390795 -12.630300 0
M  V30 48 H 9.459762 4.848998 -16.117268 0
M  V30 49 H 10.910918 5.727890 -17.912136 0
M  V30 50 H 13.828841 6.923106 -14.979872 0
M  V30 51 H 12.432062 5.971954 -13.184553 0
M  V30 52 H 10.713614 2.356572 -14.251169 0
M  V30 53 H 9.297954 0.462659 -14.986359 0
M  V30 54 H 5.762532 2.803047 -14.245063 0
M  V30 55 H 7.160555 4.702417 -13.499380 0
M  V30 56 H 9.649363 8.610481 -12.309842 0
M  V30 57 H 8.169827 7.989870 -11.620322 0
M  V30 58 H 8.200405 7.428933 -9.391572 0
M  V30 END ATOM
M  V30 BEGIN BOND
M  V30 1 1 2 1
M  V30 2 1 3 2
M  V30 3 1 4 3
M  V30 4 1 5 4
M  V30 5 1 6 5
M  V30 6 1 7 6
M  V30 7 1 8 7
M  V30 8 1 9 5
M  V30 9 1 9 8
M  V30 10 1 10 9
M  V30 11 1 11 10
M  V30 12 1 12 11
M  V30 13 1 13 12
M  V30 14 1 14 13
M  V30 15 1 15 14
M  V30 16 2 16 15
M  V30 17 1 17 16
M  V30 18 1 18 17
M  V30 19 2 19 17
M  V30 20 2 20 14
M  V30 21 1 20 19
M  V30 22 1 21 13
M  V30 23 1 22 21
M  V30 24 2 23 22
M  V30 25 1 24 23
M  V30 26 1 25 24
M  V30 27 2 26 24
M  V30 28 2 27 21
M  V30 29 1 27 26
M  V30 30 1 28 6
M  V30 31 1 28 11
M  V30 32 1 29 1
M  V30 33 1 30 1
M  V30 34 1 31 1
M  V30 35 1 32 2
M  V30 36 1 33 2
M  V30 37 1 34 3
M  V30 38 1 35 3
M  V30 39 1 36 4
M  V30 40 1 37 4
M  V30 41 1 6 38 CFG=1
M  V30 42 1 39 7
M  V30 43 1 40 7
M  V30 44 1 41 8
M  V30 45 1 42 8
M  V30 46 1 9 43 CFG=1
M  V30 47 1 44 10
M  V30 48 1 45 10
M  V30 49 1 11 46 CFG=3
M  V30 50 1 47 13
M  V30 51 1 48 15
M  V30 52 1 49 16
M  V30 53 1 50 19
M  V30 54 1 51 20
M  V30 55 1 52 22
M  V30 56 1 53 23
M  V30 57 1 54 26
M  V30 58 1 55 27
M  V30 59 1 56 28
M  V30 60 1 57 28
M  V30 61 1 5 58 CFG=3
M  V30 END BOND
M  V30 END CTAB
M  END
>  <b_m_subgroup_collapsed>  (1453) 
0

>  <r_i_docking_score>  (1453) 
-7.1093714305837299

>  <s_m_subgroup_title>  (1453) 
glide-dock_SP_D22_pv

>  <s_m_subgroupid>  (1453) 
glide-dock_SP_D22_pv

>  <Molecule ChEMBL ID>  (1453) 
CHEMBL11493

>  <Standard Type>  (1453) 
Ki

>  <Standard Value>  (1453) 
68.1

>  <label>  (1453) 
1

$$$$
CHEMBL1088000
     RDKit          3D

  0  0  0  0  0  0  0  0  0  0999 V3000
M  V30 BEGIN CTAB
M  V30 COUNTS 67 73 0 0 1
M  V30 BEGIN ATOM
M  V30 1 O 10.536959 0.232292 -21.557882 0
M  V30 2 C 10.296550 0.203690 -20.352798 0
M  V30 3 C 9.505989 -0.961809 -19.745703 0
M  V30 4 C 9.978424 -1.305487 -18.319992 0
M  V30 5 C 10.153667 -0.058302 -17.473930 0
M  V30 6 C 10.000292 -0.089942 -16.074905 0
M  V30 7 C 10.192297 1.084532 -15.319191 0
M  V30 8 C 10.524953 2.298619 -15.961390 0
M  V30 9 C 10.733602 3.576388 -15.164759 0
M  V30 10 C 9.554749 3.959143 -14.232027 0 CFG=1
M  V30 11 C 9.874049 3.644921 -12.761346 0
M  V30 12 C 8.908230 4.325366 -11.775056 0 CFG=2
M  V30 13 C 7.420877 4.064875 -12.118249 0
M  V30 14 C 7.018587 5.229715 -13.018997 0
M  V30 15 C 8.324280 6.010094 -13.194783 0 CFG=2
M  V30 16 C 9.189493 5.451663 -14.362664 0
M  V30 17 N 9.080284 5.773615 -11.947195 0 CFG=1 CHG=1
M  V30 18 C 8.646167 6.566119 -10.771372 0
M  V30 19 C 9.630664 6.540247 -9.579269 0 CFG=2
M  V30 20 C 8.976942 5.964521 -8.306534 0
M  V30 21 O 9.930293 5.948799 -7.254920 0
M  V30 22 C 10.546911 7.152248 -7.046136 0
M  V30 23 C 10.601130 8.123737 -8.077831 0
M  V30 24 C 11.213939 9.372066 -7.828241 0
M  V30 25 C 11.727947 9.705830 -6.554384 0
M  V30 26 C 11.685575 8.717036 -5.561595 0
M  V30 27 C 11.147150 7.461830 -5.808287 0
M  V30 28 C 11.359550 6.574423 -4.607122 0
M  V30 29 C 12.044571 7.575264 -3.657632 0
M  V30 30 O 12.410674 7.295265 -2.518624 0
M  V30 31 N 12.186069 8.764817 -4.257624 0
M  V30 32 O 10.060362 7.878696 -9.324458 0
M  V30 33 C 10.694107 2.322377 -17.362150 0
M  V30 34 C 10.504480 1.149695 -18.117405 0
M  V30 35 N 10.686054 1.183473 -19.523121 0
M  V30 36 H 8.457087 -0.664043 -19.722816 0
M  V30 37 H 9.571069 -1.827622 -20.401415 0
M  V30 38 H 10.935457 -1.822929 -18.354696 0
M  V30 39 H 9.265621 -1.980044 -17.846334 0
M  V30 40 H 9.741194 -1.012857 -15.575107 0
M  V30 41 H 10.079731 1.043091 -14.246802 0
M  V30 42 H 10.906288 4.382131 -15.880170 0
M  V30 43 H 11.670287 3.487590 -14.611932 0
M  V30 44 H 8.672235 3.392566 -14.534047 0
M  V30 45 H 10.885457 3.980510 -12.540137 0
M  V30 46 H 9.857613 2.573234 -12.622439 0
M  V30 47 H 9.167866 4.044414 -10.756859 0
M  V30 48 H 7.243463 3.134444 -12.650011 0
M  V30 49 H 6.805333 4.045961 -11.217318 0
M  V30 50 H 6.591349 4.890827 -13.961058 0
M  V30 51 H 6.268176 5.846025 -12.520514 0
M  V30 52 H 8.093332 7.064752 -13.346625 0
M  V30 53 H 8.685080 5.603206 -15.313696 0
M  V30 54 H 10.124820 6.012685 -14.405528 0
M  V30 55 H 7.686295 6.171996 -10.447639 0
M  V30 56 H 8.486015 7.599627 -11.081124 0
M  V30 57 H 10.507904 5.945385 -9.827342 0
M  V30 58 H 8.105844 6.551013 -8.007787 0
M  V30 59 H 8.628288 4.945135 -8.473745 0
M  V30 60 H 11.274439 10.090063 -8.630943 0
M  V30 61 H 12.181130 10.668039 -6.363314 0
M  V30 62 H 10.430090 6.172376 -4.208317 0
M  V30 63 H 12.050255 5.772312 -4.854947 0
M  V30 64 H 12.620865 9.580971 -3.852561 0
M  V30 65 H 10.970429 3.241642 -17.859957 0
M  V30 66 H 11.136207 1.992743 -19.924746 0
M  V30 67 H 10.051761 5.989234 -12.118096 0
M  V30 END ATOM
M  V30 BEGIN BOND
M  V30 1 2 2 1
M  V30 2 1 3 2
M  V30 3 1 4 3
M  V30 4 1 5 4
M  V30 5 1 6 5
M  V30 6 2 7 6
M  V30 7 1 8 7
M  V30 8 1 9 8
M  V30 9 1 10 9
M  V30 10 1 11 10
M  V30 11 1 12 11
M  V30 12 1 13 12
M  V30 13 1 14 13
M  V30 14 1 15 14
M  V30 15 1 16 10
M  V30 16 1 16 15
M  V30 17 1 17 12
M  V30 18 1 17 15
M  V30 19 1 18 17
M  V30 20 1 19 18
M  V30 21 1 20 19
M  V30 22 1 21 20
M  V30 23 1 22 21
M  V30 24 2 23 22
M  V30 25 1 24 23
M  V30 26 2 25 24
M  V30 27 1 26 25
M  V30 28 1 27 22
M  V30 29 2 27 26
M  V30 30 1 28 27
M  V30 31 1 29 28
M  V30 32 2 30 29
M  V30 33 1 31 26
M  V30 34 1 31 29
M  V30 35 1 32 19
M  V30 36 1 32 23
M  V30 37 2 33 8
M  V30 38 2 34 5
M  V30 39 1 34 33
M  V30 40 1 35 2
M  V30 41 1 35 34
M  V30 42 1 36 3
M  V30 43 1 37 3
M  V30 44 1 38 4
M  V30 45 1 39 4
M  V30 46 1 40 6
M  V30 47 1 41 7
M  V30 48 1 42 9
M  V30 49 1 43 9
M  V30 50 1 10 44 CFG=3
M  V30 51 1 45 11
M  V30 52 1 46 11
M  V30 53 1 12 47 CFG=1
M  V30 54 1 48 13
M  V30 55 1 49 13
M  V30 56 1 50 14
M  V30 57 1 51 14
M  V30 58 1 15 52 CFG=3
M  V30 59 1 53 16
M  V30 60 1 54 16
M  V30 61 1 55 18
M  V30 62 1 56 18
M  V30 63 1 19 57 CFG=3
M  V30 64 1 58 20
M  V30 65 1 59 20
M  V30 66 1 60 24
M  V30 67 1 61 25
M  V30 68 1 62 28
M  V30 69 1 63 28
M  V30 70 1 64 31
M  V30 71 1 65 33
M  V30 72 1 66 35
M  V30 73 1 17 67 CFG=3
M  V30 END BOND
M  V30 END CTAB
M  END
>  <b_m_subgroup_collapsed>  (1454) 
0

>  <r_i_docking_score>  (1454) 
-7.1074963932083799

>  <s_m_subgroup_title>  (1454) 
glide-dock_SP_D22_pv

>  <s_m_subgroupid>  (1454) 
glide-dock_SP_D22_pv

>  <Molecule ChEMBL ID>  (1454) 
CHEMBL1088000

>  <Standard Type>  (1454) 
Ki

>  <Standard Value>  (1454) 
16.0

>  <label>  (1454) 
1

$$$$
CHEMBL2115519
     RDKit          3D

  0  0  0  0  0  0  0  0  0  0999 V3000
M  V30 BEGIN CTAB
M  V30 COUNTS 50 53 0 0 1
M  V30 BEGIN ATOM
M  V30 1 O 8.485902 4.572261 -9.404212 0
M  V30 2 C 9.134194 5.405262 -10.018569 0
M  V30 3 C 10.159653 6.180162 -9.236910 0
M  V30 4 C 10.528872 7.516319 -9.906996 0 CFG=1
M  V30 5 C 9.449383 8.586761 -9.682001 0
M  V30 6 C 9.289839 8.916775 -8.191017 0
M  V30 7 C 10.632035 9.209913 -7.485410 0 CFG=1
M  V30 8 O 10.317069 9.267700 -6.109386 0
M  V30 9 C 11.285028 9.867087 -5.272580 0
M  V30 10 C 11.693425 8.904276 -4.186984 0
M  V30 11 C 12.088260 9.380019 -2.925114 0
M  V30 12 C 12.485977 8.475386 -1.928453 0
M  V30 13 C 12.486012 7.094826 -2.197935 0
M  V30 14 C 12.085837 6.616273 -3.446696 0
M  V30 15 C 11.685671 7.518458 -4.436037 0
M  V30 16 C 11.763204 8.228219 -7.832885 0
M  V30 17 C 11.859813 8.045981 -9.348623 0
M  V30 18 O 10.763476 7.365487 -11.304028 0
M  V30 19 C 9.939175 6.507721 -11.994689 0
M  V30 20 C 9.078247 5.608895 -11.474689 0
M  V30 21 C 8.268052 4.754556 -12.363486 0
M  V30 22 C 8.883961 4.004263 -13.390544 0
M  V30 23 C 8.108078 3.165162 -14.215775 0
M  V30 24 C 6.714202 3.081527 -14.021616 0
M  V30 25 C 6.092978 3.852705 -13.020297 0
M  V30 26 C 6.868981 4.691674 -12.197791 0
M  V30 27 H 9.782586 6.319335 -8.226561 0
M  V30 28 H 11.026185 5.545279 -9.132920 0
M  V30 29 H 9.732209 9.481475 -10.223109 0
M  V30 30 H 8.488849 8.283347 -10.098296 0
M  V30 31 H 8.776607 8.097587 -7.685955 0
M  V30 32 H 8.623330 9.771152 -8.084701 0
M  V30 33 H 11.010067 10.172104 -7.797904 0
M  V30 34 H 12.175060 10.196369 -5.811898 0
M  V30 35 H 10.839632 10.756725 -4.826422 0
M  V30 36 H 12.085789 10.439724 -2.713660 0
M  V30 37 H 12.802579 8.846590 -0.967345 0
M  V30 38 H 12.808871 6.389642 -1.447830 0
M  V30 39 H 12.086120 5.562160 -3.653378 0
M  V30 40 H 11.341148 7.117492 -5.369797 0
M  V30 41 H 11.608043 7.255973 -7.378694 0
M  V30 42 H 12.713914 8.598440 -7.448835 0
M  V30 43 H 12.676504 7.372933 -9.596146 0
M  V30 44 H 12.108315 8.996833 -9.822023 0
M  V30 45 H 10.033370 6.667891 -13.047236 0
M  V30 46 H 9.953875 4.045937 -13.529869 0
M  V30 47 H 8.584039 2.575115 -14.983994 0
M  V30 48 H 6.117218 2.433727 -14.645688 0
M  V30 49 H 5.023704 3.799877 -12.880825 0
M  V30 50 H 6.386642 5.282560 -11.432420 0
M  V30 END ATOM
M  V30 BEGIN BOND
M  V30 1 2 2 1
M  V30 2 1 3 2
M  V30 3 1 4 3
M  V30 4 1 5 4
M  V30 5 1 6 5
M  V30 6 1 7 6
M  V30 7 1 8 7
M  V30 8 1 9 8
M  V30 9 1 10 9
M  V30 10 2 11 10
M  V30 11 1 12 11
M  V30 12 2 13 12
M  V30 13 1 14 13
M  V30 14 1 15 10
M  V30 15 2 15 14
M  V30 16 1 16 7
M  V30 17 1 17 4
M  V30 18 1 17 16
M  V30 19 1 4 18 CFG=3
M  V30 20 1 19 18
M  V30 21 1 20 2
M  V30 22 2 20 19
M  V30 23 1 21 20
M  V30 24 2 22 21
M  V30 25 1 23 22
M  V30 26 2 24 23
M  V30 27 1 25 24
M  V30 28 1 26 21
M  V30 29 2 26 25
M  V30 30 1 27 3
M  V30 31 1 28 3
M  V30 32 1 29 5
M  V30 33 1 30 5
M  V30 34 1 31 6
M  V30 35 1 32 6
M  V30 36 1 7 33 CFG=3
M  V30 37 1 34 9
M  V30 38 1 35 9
M  V30 39 1 36 11
M  V30 40 1 37 12
M  V30 41 1 38 13
M  V30 42 1 39 14
M  V30 43 1 40 15
M  V30 44 1 41 16
M  V30 45 1 42 16
M  V30 46 1 43 17
M  V30 47 1 44 17
M  V30 48 1 45 19
M  V30 49 1 46 22
M  V30 50 1 47 23
M  V30 51 1 48 24
M  V30 52 1 49 25
M  V30 53 1 50 26
M  V30 END BOND
M  V30 END CTAB
M  END
>  <b_m_subgroup_collapsed>  (1455) 
0

>  <r_i_docking_score>  (1455) 
-7.1055292119326801

>  <s_m_subgroup_title>  (1455) 
glide-dock_SP_D22_pv

>  <s_m_subgroupid>  (1455) 
glide-dock_SP_D22_pv

>  <Molecule ChEMBL ID>  (1455) 
CHEMBL2115519

>  <Standard Type>  (1455) 
Ki

>  <Standard Value>  (1455) 
10000.0

>  <label>  (1455) 
0

$$$$
CHEMBL4483472
     RDKit          3D

  0  0  0  0  0  0  0  0  0  0999 V3000
M  V30 BEGIN CTAB
M  V30 COUNTS 50 52 0 0 1
M  V30 BEGIN ATOM
M  V30 1 C 5.837992 4.481229 -13.439490 0
M  V30 2 C 6.948460 4.690638 -12.406981 0
M  V30 3 C 7.865687 5.876785 -12.750669 0
M  V30 4 C 9.175856 5.947304 -11.940677 0
M  V30 5 N 8.983151 6.386914 -10.535350 0 CFG=1 CHG=1
M  V30 6 C 8.701587 5.312580 -9.566589 0
M  V30 7 C 9.001532 5.914384 -8.188995 0
M  V30 8 C 9.877639 7.158087 -8.451158 0 CFG=1
M  V30 9 C 9.158454 8.468454 -8.092087 0
M  V30 10 C 9.458784 8.682783 -6.623056 0
M  V30 11 N 10.615573 7.867510 -6.321747 0
M  V30 12 C 11.289062 7.962575 -5.086246 0
M  V30 13 C 11.685564 6.776991 -4.428854 0
M  V30 14 C 12.230365 6.814830 -3.129523 0
M  V30 15 C 12.429261 8.046312 -2.484226 0
M  V30 16 C 12.084563 9.238003 -3.141065 0
M  V30 17 C 11.520587 9.208221 -4.432359 0
M  V30 18 O 11.242241 10.417903 -5.013401 0
M  V30 19 C 12.090197 10.705054 -6.111336 0
M  V30 20 C 11.110587 7.195325 -7.513612 0
M  V30 21 C 10.143766 7.103241 -9.963460 0
M  V30 22 H 5.143397 3.708077 -13.110855 0
M  V30 23 H 5.272686 5.400531 -13.590287 0
M  V30 24 H 6.245376 4.171657 -14.400395 0
M  V30 25 H 7.530394 3.773313 -12.316356 0
M  V30 26 H 6.470928 4.863540 -11.446674 0
M  V30 27 H 7.311714 6.812376 -12.657483 0
M  V30 28 H 8.139469 5.798373 -13.803452 0
M  V30 29 H 9.807567 6.684992 -12.434491 0
M  V30 30 H 9.723374 5.006267 -11.989374 0
M  V30 31 H 9.372810 4.471031 -9.746197 0
M  V30 32 H 7.686365 4.938498 -9.643094 0
M  V30 33 H 9.503863 5.181012 -7.561095 0
M  V30 34 H 8.083514 6.184898 -7.670557 0
M  V30 35 H 8.087093 8.465146 -8.286486 0
M  V30 36 H 9.581964 9.308054 -8.647638 0
M  V30 37 H 8.611563 8.375646 -6.013975 0
M  V30 38 H 9.685917 9.727500 -6.462523 0
M  V30 39 H 11.517401 5.819469 -4.898220 0
M  V30 40 H 12.491849 5.892426 -2.630350 0
M  V30 41 H 12.850687 8.079040 -1.490953 0
M  V30 42 H 12.255663 10.184742 -2.650559 0
M  V30 43 H 12.084004 11.769864 -6.336413 0
M  V30 44 H 13.106505 10.424622 -5.845822 0
M  V30 45 H 11.809966 10.168483 -7.017100 0
M  V30 46 H 11.916845 7.791230 -7.945545 0
M  V30 47 H 11.506033 6.203243 -7.292159 0
M  V30 48 H 10.272215 8.085698 -10.420081 0
M  V30 49 H 11.059107 6.546878 -10.155592 0
M  V30 50 H 8.186907 7.020069 -10.498696 0
M  V30 END ATOM
M  V30 BEGIN BOND
M  V30 1 1 2 1
M  V30 2 1 3 2
M  V30 3 1 4 3
M  V30 4 1 5 4
M  V30 5 1 6 5
M  V30 6 1 7 6
M  V30 7 1 8 7 CFG=1
M  V30 8 1 9 8
M  V30 9 1 10 9
M  V30 10 1 11 10
M  V30 11 1 12 11
M  V30 12 2 13 12
M  V30 13 1 14 13
M  V30 14 2 15 14
M  V30 15 1 16 15
M  V30 16 1 17 12
M  V30 17 2 17 16
M  V30 18 1 18 17
M  V30 19 1 19 18
M  V30 20 1 20 8
M  V30 21 1 20 11
M  V30 22 1 21 5
M  V30 23 1 21 8
M  V30 24 1 22 1
M  V30 25 1 23 1
M  V30 26 1 24 1
M  V30 27 1 25 2
M  V30 28 1 26 2
M  V30 29 1 27 3
M  V30 30 1 28 3
M  V30 31 1 29 4
M  V30 32 1 30 4
M  V30 33 1 31 6
M  V30 34 1 32 6
M  V30 35 1 33 7
M  V30 36 1 34 7
M  V30 37 1 35 9
M  V30 38 1 36 9
M  V30 39 1 37 10
M  V30 40 1 38 10
M  V30 41 1 39 13
M  V30 42 1 40 14
M  V30 43 1 41 15
M  V30 44 1 42 16
M  V30 45 1 43 19
M  V30 46 1 44 19
M  V30 47 1 45 19
M  V30 48 1 46 20
M  V30 49 1 47 20
M  V30 50 1 48 21
M  V30 51 1 49 21
M  V30 52 1 5 50 CFG=3
M  V30 END BOND
M  V30 END CTAB
M  END
>  <b_m_subgroup_collapsed>  (1456) 
0

>  <r_i_docking_score>  (1456) 
-7.1054735371276303

>  <s_m_subgroup_title>  (1456) 
glide-dock_SP_D22_pv

>  <s_m_subgroupid>  (1456) 
glide-dock_SP_D22_pv

>  <Molecule ChEMBL ID>  (1456) 
CHEMBL4483472

>  <Standard Type>  (1456) 
Ki

>  <Standard Value>  (1456) 
26050.0

>  <label>  (1456) 
0

$$$$
CHEMBL4545912
     RDKit          3D

  0  0  0  0  0  0  0  0  0  0999 V3000
M  V30 BEGIN CTAB
M  V30 COUNTS 52 54 0 0 1
M  V30 BEGIN ATOM
M  V30 1 C 5.286160 1.202756 -12.648069 0
M  V30 2 C 5.633511 0.629909 -13.668814 0
M  V30 3 C 6.052464 -0.013425 -14.923923 0
M  V30 4 N 7.491911 -0.227616 -14.985653 0
M  V30 5 C 8.201590 0.725587 -15.833409 0 CFG=2
M  V30 6 C 9.511245 0.076360 -16.359709 0
M  V30 7 C 10.702361 0.752940 -15.645132 0
M  V30 8 C 10.085897 1.952138 -14.984250 0
M  V30 9 C 10.759912 2.991270 -14.319958 0
M  V30 10 C 10.007180 4.029666 -13.726205 0
M  V30 11 O 10.714776 5.004495 -13.053135 0
M  V30 12 C 10.018238 5.861059 -12.154625 0
M  V30 13 C 9.629272 5.106197 -10.862026 0
M  V30 14 C 8.477316 5.738182 -10.070786 0
M  V30 15 N 8.885987 6.739874 -9.051792 0 CHG=1
M  V30 16 C 9.420872 6.161944 -7.793760 0
M  V30 17 C 9.525990 7.241747 -6.703646 0
M  V30 18 C 10.372306 8.429345 -7.184852 0
M  V30 19 C 9.808764 8.972801 -8.506046 0
M  V30 20 C 9.699589 7.867323 -9.562759 0
M  V30 21 C 8.588006 4.013813 -13.846729 0
M  V30 22 C 7.930818 2.971983 -14.532653 0
M  V30 23 C 8.700922 1.936240 -15.084097 0
M  V30 24 H 4.983163 1.731222 -11.773633 0
M  V30 25 H 5.557608 -0.984394 -14.961576 0
M  V30 26 H 5.685141 0.568602 -15.769597 0
M  V30 27 H 7.686421 -1.181879 -15.296727 0
M  V30 28 H 7.584496 1.026999 -16.680847 0
M  V30 29 H 9.543427 -1.009183 -16.278097 0
M  V30 30 H 9.588463 0.303347 -17.423536 0
M  V30 31 H 11.497345 1.036234 -16.335474 0
M  V30 32 H 11.118757 0.097186 -14.880823 0
M  V30 33 H 11.837032 2.985202 -14.245955 0
M  V30 34 H 10.695282 6.679415 -11.915818 0
M  V30 35 H 9.164855 6.336726 -12.637085 0
M  V30 36 H 9.308725 4.101783 -11.133280 0
M  V30 37 H 10.485229 4.970049 -10.207721 0
M  V30 38 H 7.750412 6.171668 -10.757163 0
M  V30 39 H 7.940417 4.941910 -9.557057 0
M  V30 40 H 8.755865 5.371683 -7.447269 0
M  V30 41 H 10.396671 5.707819 -7.972438 0
M  V30 42 H 8.525413 7.591272 -6.441306 0
M  V30 43 H 9.953218 6.815609 -5.794745 0
M  V30 44 H 10.383325 9.215160 -6.428681 0
M  V30 45 H 11.407599 8.114961 -7.324782 0
M  V30 46 H 8.822555 9.405757 -8.332017 0
M  V30 47 H 10.445964 9.771778 -8.886835 0
M  V30 48 H 10.699325 7.517615 -9.820569 0
M  V30 49 H 9.242921 8.268803 -10.468825 0
M  V30 50 H 7.970700 4.787584 -13.419847 0
M  V30 51 H 6.855576 2.973441 -14.627120 0
M  V30 52 H 7.991644 7.153461 -8.794809 0
M  V30 END ATOM
M  V30 BEGIN BOND
M  V30 1 3 2 1
M  V30 2 1 3 2
M  V30 3 1 4 3
M  V30 4 1 5 4
M  V30 5 1 6 5
M  V30 6 1 7 6
M  V30 7 1 8 7
M  V30 8 1 9 8
M  V30 9 2 10 9
M  V30 10 1 11 10
M  V30 11 1 12 11
M  V30 12 1 13 12
M  V30 13 1 14 13
M  V30 14 1 15 14
M  V30 15 1 16 15
M  V30 16 1 17 16
M  V30 17 1 18 17
M  V30 18 1 19 18
M  V30 19 1 20 15
M  V30 20 1 20 19
M  V30 21 1 21 10
M  V30 22 2 22 21
M  V30 23 1 23 5
M  V30 24 2 23 8
M  V30 25 1 23 22
M  V30 26 1 24 1
M  V30 27 1 25 3
M  V30 28 1 26 3
M  V30 29 1 27 4
M  V30 30 1 5 28 CFG=3
M  V30 31 1 29 6
M  V30 32 1 30 6
M  V30 33 1 31 7
M  V30 34 1 32 7
M  V30 35 1 33 9
M  V30 36 1 34 12
M  V30 37 1 35 12
M  V30 38 1 36 13
M  V30 39 1 37 13
M  V30 40 1 38 14
M  V30 41 1 39 14
M  V30 42 1 40 16
M  V30 43 1 41 16
M  V30 44 1 42 17
M  V30 45 1 43 17
M  V30 46 1 44 18
M  V30 47 1 45 18
M  V30 48 1 46 19
M  V30 49 1 47 19
M  V30 50 1 48 20
M  V30 51 1 49 20
M  V30 52 1 50 21
M  V30 53 1 51 22
M  V30 54 1 52 15
M  V30 END BOND
M  V30 END CTAB
M  END
>  <b_m_subgroup_collapsed>  (1457) 
0

>  <r_i_docking_score>  (1457) 
-7.1047797808428603

>  <s_m_subgroup_title>  (1457) 
glide-dock_SP_D22_pv

>  <s_m_subgroupid>  (1457) 
glide-dock_SP_D22_pv

>  <Molecule ChEMBL ID>  (1457) 
CHEMBL4545912

>  <Standard Type>  (1457) 
Ki

>  <Standard Value>  (1457) 
10000.0

>  <label>  (1457) 
0

$$$$
CHEMBL542399
     RDKit          3D

  0  0  0  0  0  0  0  0  0  0999 V3000
M  V30 BEGIN CTAB
M  V30 COUNTS 50 51 0 0 1
M  V30 BEGIN ATOM
M  V30 1 C 5.928492 4.806536 -13.047522 0
M  V30 2 C 6.860916 5.711624 -12.224203 0
M  V30 3 N 7.975176 4.979787 -11.560731 0 CHG=1
M  V30 4 C 8.810798 4.116500 -12.449430 0
M  V30 5 C 9.574530 4.842999 -13.571056 0
M  V30 6 C 8.754454 5.783198 -10.575041 0
M  V30 7 C 9.273289 7.137585 -11.104495 0
M  V30 8 C 10.514117 7.674822 -10.374154 0
M  V30 9 C 10.368403 8.066549 -8.886207 0 CFG=2
M  V30 10 C 9.136868 8.956176 -8.646982 0
M  V30 11 C 11.666882 8.790016 -8.519928 0
M  V30 12 C 11.793426 8.978469 -7.024068 0
M  V30 13 O 12.474958 9.910334 -6.615201 0
M  V30 14 C 11.167176 7.991601 -6.131362 0
M  V30 15 C 11.478971 7.998900 -4.678813 0
M  V30 16 C 11.624143 9.220414 -3.974970 0
M  V30 17 C 12.086045 9.234150 -2.650582 0
M  V30 18 C 12.366545 8.025679 -1.997557 0
M  V30 19 C 12.134600 6.799943 -2.650947 0
M  V30 20 C 11.689950 6.785883 -3.987338 0
M  V30 21 C 10.489089 6.989574 -6.737910 0
M  V30 22 O 10.219946 6.881438 -8.090729 0
M  V30 23 H 5.091087 5.378512 -13.445820 0
M  V30 24 H 6.433601 4.368020 -13.907781 0
M  V30 25 H 5.520474 3.997062 -12.439266 0
M  V30 26 H 6.255428 6.172214 -11.447458 0
M  V30 27 H 7.242897 6.519506 -12.848395 0
M  V30 28 H 9.517244 3.544099 -11.845569 0
M  V30 29 H 8.166956 3.372079 -12.911614 0
M  V30 30 H 9.998373 4.116123 -14.264320 0
M  V30 31 H 8.928653 5.500311 -14.154060 0
M  V30 32 H 10.412965 5.420846 -13.182849 0
M  V30 33 H 9.584256 5.178753 -10.206158 0
M  V30 34 H 8.120525 5.968984 -9.706072 0
M  V30 35 H 8.486132 7.884875 -11.072649 0
M  V30 36 H 9.531685 7.070413 -12.155799 0
M  V30 37 H 10.833285 8.559277 -10.926652 0
M  V30 38 H 11.334924 6.967047 -10.482344 0
M  V30 39 H 9.096541 9.772242 -9.365613 0
M  V30 40 H 8.230171 8.372353 -8.747772 0
M  V30 41 H 9.107359 9.372662 -7.642843 0
M  V30 42 H 11.686923 9.765320 -9.010229 0
M  V30 43 H 12.536627 8.230010 -8.863645 0
M  V30 44 H 11.415306 10.167536 -4.450227 0
M  V30 45 H 12.226523 10.171797 -2.136302 0
M  V30 46 H 12.746777 8.048216 -0.990918 0
M  V30 47 H 12.327576 5.868134 -2.139020 0
M  V30 48 H 11.567277 5.835449 -4.486969 0
M  V30 49 H 10.042835 6.172222 -6.193007 0
M  V30 50 H 7.492595 4.318182 -10.966201 0
M  V30 END ATOM
M  V30 BEGIN BOND
M  V30 1 1 2 1
M  V30 2 1 3 2
M  V30 3 1 4 3
M  V30 4 1 5 4
M  V30 5 1 6 3
M  V30 6 1 7 6
M  V30 7 1 8 7
M  V30 8 1 9 8 CFG=3
M  V30 9 1 10 9
M  V30 10 1 11 9
M  V30 11 1 12 11
M  V30 12 2 13 12
M  V30 13 1 14 12
M  V30 14 1 15 14
M  V30 15 2 16 15
M  V30 16 1 17 16
M  V30 17 2 18 17
M  V30 18 1 19 18
M  V30 19 1 20 15
M  V30 20 2 20 19
M  V30 21 2 21 14
M  V30 22 1 22 9
M  V30 23 1 22 21
M  V30 24 1 23 1
M  V30 25 1 24 1
M  V30 26 1 25 1
M  V30 27 1 26 2
M  V30 28 1 27 2
M  V30 29 1 28 4
M  V30 30 1 29 4
M  V30 31 1 30 5
M  V30 32 1 31 5
M  V30 33 1 32 5
M  V30 34 1 33 6
M  V30 35 1 34 6
M  V30 36 1 35 7
M  V30 37 1 36 7
M  V30 38 1 37 8
M  V30 39 1 38 8
M  V30 40 1 39 10
M  V30 41 1 40 10
M  V30 42 1 41 10
M  V30 43 1 42 11
M  V30 44 1 43 11
M  V30 45 1 44 16
M  V30 46 1 45 17
M  V30 47 1 46 18
M  V30 48 1 47 19
M  V30 49 1 48 20
M  V30 50 1 49 21
M  V30 51 1 50 3
M  V30 END BOND
M  V30 END CTAB
M  END
>  <b_m_subgroup_collapsed>  (1458) 
0

>  <r_i_docking_score>  (1458) 
-7.1042685578968801

>  <s_m_subgroup_title>  (1458) 
glide-dock_SP_D22_pv

>  <s_m_subgroupid>  (1458) 
glide-dock_SP_D22_pv

>  <Molecule ChEMBL ID>  (1458) 
CHEMBL542399

>  <Standard Type>  (1458) 
Ki

>  <Standard Value>  (1458) 
10000.0

>  <label>  (1458) 
0

$$$$
CHEMBL486534
     RDKit          3D

  0  0  0  0  0  0  0  0  0  0999 V3000
M  V30 BEGIN CTAB
M  V30 COUNTS 63 65 0 0 1
M  V30 BEGIN ATOM
M  V30 1 C 4.620880 -0.968560 -14.481923 0
M  V30 2 O 4.632859 0.010583 -13.450047 0
M  V30 3 C 5.502406 1.068162 -13.587056 0
M  V30 4 C 5.285930 2.192905 -12.764772 0
M  V30 5 C 6.077226 3.351042 -12.898206 0
M  V30 6 C 7.117066 3.382240 -13.846496 0
M  V30 7 C 7.373109 2.251009 -14.646132 0
M  V30 8 C 8.490540 2.284363 -15.671825 0
M  V30 9 C 9.738414 1.504215 -15.229795 0
M  V30 10 C 10.822199 1.580486 -16.293407 0
M  V30 11 C 10.950344 0.527643 -17.223694 0
M  V30 12 C 11.909776 0.602605 -18.248959 0
M  V30 13 C 12.745132 1.731710 -18.345352 0
M  V30 14 C 12.628833 2.778253 -17.410530 0
M  V30 15 C 11.661222 2.716408 -16.377089 0
M  V30 16 O 11.466908 3.707520 -15.437141 0
M  V30 17 C 12.229248 4.905278 -15.497520 0
M  V30 18 C 11.455968 6.001017 -14.755586 0
M  V30 19 C 11.262110 5.745610 -13.251672 0
M  V30 20 C 10.306474 6.775418 -12.621436 0
M  V30 21 N 10.228178 6.689154 -11.162810 0
M  V30 22 C 9.332088 5.604383 -10.739905 0
M  V30 23 C 9.318307 5.508010 -9.201118 0
M  V30 24 N 8.885990 6.792851 -8.600941 0 CHG=1
M  V30 25 C 8.791833 6.750217 -7.125589 0
M  V30 26 C 9.710397 7.916393 -9.098903 0
M  V30 27 C 9.690830 7.945579 -10.636816 0
M  V30 28 C 6.568850 1.099534 -14.517941 0
M  V30 29 H 3.749250 -1.609813 -14.356735 0
M  V30 30 H 4.543304 -0.509614 -15.468489 0
M  V30 31 H 5.511585 -1.597071 -14.441250 0
M  V30 32 H 4.487204 2.172568 -12.039422 0
M  V30 33 H 5.888687 4.209286 -12.272039 0
M  V30 34 H 7.725399 4.270402 -13.944186 0
M  V30 35 H 8.761436 3.324180 -15.874509 0
M  V30 36 H 8.113835 1.880834 -16.614876 0
M  V30 37 H 9.483589 0.460730 -15.042124 0
M  V30 38 H 10.121206 1.898335 -14.288317 0
M  V30 39 H 10.308077 -0.338312 -17.155554 0
M  V30 40 H 12.002614 -0.202397 -18.961714 0
M  V30 41 H 13.484610 1.789192 -19.131910 0
M  V30 42 H 13.307509 3.609272 -17.510538 0
M  V30 43 H 13.218967 4.750345 -15.063037 0
M  V30 44 H 12.361060 5.248590 -16.524939 0
M  V30 45 H 11.964519 6.953934 -14.897479 0
M  V30 46 H 10.484510 6.105616 -15.236926 0
M  V30 47 H 10.881763 4.735105 -13.092986 0
M  V30 48 H 12.240279 5.799969 -12.773755 0
M  V30 49 H 10.678633 7.764966 -12.887495 0
M  V30 50 H 9.306213 6.673966 -13.046633 0
M  V30 51 H 8.319752 5.773829 -11.117826 0
M  V30 52 H 9.670679 4.654009 -11.153986 0
M  V30 53 H 8.635241 4.716339 -8.892072 0
M  V30 54 H 10.309150 5.239833 -8.830072 0
M  V30 55 H 9.761376 6.546066 -6.672666 0
M  V30 56 H 8.419239 7.699617 -6.738893 0
M  V30 57 H 8.089924 5.976058 -6.814238 0
M  V30 58 H 9.315353 8.857165 -8.713646 0
M  V30 59 H 10.734902 7.820324 -8.733633 0
M  V30 60 H 10.305319 8.781867 -10.976198 0
M  V30 61 H 8.677633 8.121565 -11.011131 0
M  V30 62 H 6.777980 0.254236 -15.155960 0
M  V30 63 H 7.939122 6.973516 -8.933432 0
M  V30 END ATOM
M  V30 BEGIN BOND
M  V30 1 1 2 1
M  V30 2 1 3 2
M  V30 3 2 4 3
M  V30 4 1 5 4
M  V30 5 2 6 5
M  V30 6 1 7 6
M  V30 7 1 8 7
M  V30 8 1 9 8
M  V30 9 1 10 9
M  V30 10 2 11 10
M  V30 11 1 12 11
M  V30 12 2 13 12
M  V30 13 1 14 13
M  V30 14 1 15 10
M  V30 15 2 15 14
M  V30 16 1 16 15
M  V30 17 1 17 16
M  V30 18 1 18 17
M  V30 19 1 19 18
M  V30 20 1 20 19
M  V30 21 1 21 20
M  V30 22 1 22 21
M  V30 23 1 23 22
M  V30 24 1 24 23
M  V30 25 1 25 24
M  V30 26 1 26 24
M  V30 27 1 27 21
M  V30 28 1 27 26
M  V30 29 1 28 3
M  V30 30 2 28 7
M  V30 31 1 29 1
M  V30 32 1 30 1
M  V30 33 1 31 1
M  V30 34 1 32 4
M  V30 35 1 33 5
M  V30 36 1 34 6
M  V30 37 1 35 8
M  V30 38 1 36 8
M  V30 39 1 37 9
M  V30 40 1 38 9
M  V30 41 1 39 11
M  V30 42 1 40 12
M  V30 43 1 41 13
M  V30 44 1 42 14
M  V30 45 1 43 17
M  V30 46 1 44 17
M  V30 47 1 45 18
M  V30 48 1 46 18
M  V30 49 1 47 19
M  V30 50 1 48 19
M  V30 51 1 49 20
M  V30 52 1 50 20
M  V30 53 1 51 22
M  V30 54 1 52 22
M  V30 55 1 53 23
M  V30 56 1 54 23
M  V30 57 1 55 25
M  V30 58 1 56 25
M  V30 59 1 57 25
M  V30 60 1 58 26
M  V30 61 1 59 26
M  V30 62 1 60 27
M  V30 63 1 61 27
M  V30 64 1 62 28
M  V30 65 1 63 24
M  V30 END BOND
M  V30 END CTAB
M  END
>  <b_m_subgroup_collapsed>  (1459) 
0

>  <r_i_docking_score>  (1459) 
-7.1019918733853498

>  <s_m_subgroup_title>  (1459) 
glide-dock_SP_D22_pv

>  <s_m_subgroupid>  (1459) 
glide-dock_SP_D22_pv

>  <Molecule ChEMBL ID>  (1459) 
CHEMBL486534

>  <Standard Type>  (1459) 
Ki

>  <Standard Value>  (1459) 
1000000.0

>  <label>  (1459) 
0

$$$$
CHEMBL100461
     RDKit          3D

  0  0  0  0  0  0  0  0  0  0999 V3000
M  V30 BEGIN CTAB
M  V30 COUNTS 36 37 0 0 1
M  V30 BEGIN ATOM
M  V30 1 O 12.086021 9.898685 -3.046865 0
M  V30 2 C 11.663629 9.077906 -4.046699 0
M  V30 3 C 11.822783 7.689654 -3.913184 0
M  V30 4 C 11.305083 6.837399 -4.901268 0
M  V30 5 C 10.629285 7.344931 -6.026706 0
M  V30 6 O 10.140426 6.407300 -6.904899 0
M  V30 7 C 9.025210 6.707993 -7.731447 0
M  V30 8 C 9.506596 6.722899 -9.189262 0
M  V30 9 N 8.486022 6.172325 -10.103956 0 CHG=1
M  V30 10 C 8.811451 6.316974 -11.533797 0
M  V30 11 C 8.045094 5.302873 -12.357350 0
M  V30 12 C 8.743041 4.323349 -13.094911 0
M  V30 13 C 8.034619 3.368057 -13.846865 0
M  V30 14 C 6.627114 3.372325 -13.846864 0
M  V30 15 C 5.927389 4.349618 -13.114337 0
M  V30 16 C 6.633615 5.322410 -12.380816 0
M  V30 17 C 10.512814 8.747162 -6.183182 0
M  V30 18 C 11.029021 9.609132 -5.190137 0
M  V30 19 H 12.525661 9.464481 -2.331921 0
M  V30 20 H 12.310810 7.269328 -3.046027 0
M  V30 21 H 11.409814 5.772324 -4.779707 0
M  V30 22 H 8.316636 5.891855 -7.582285 0
M  V30 23 H 8.486038 7.617414 -7.463561 0
M  V30 24 H 9.777709 7.738601 -9.480555 0
M  V30 25 H 10.404126 6.110502 -9.290696 0
M  V30 26 H 8.315604 5.199534 -9.892397 0
M  V30 27 H 8.567681 7.327971 -11.863757 0
M  V30 28 H 9.882152 6.175173 -11.689135 0
M  V30 29 H 9.823133 4.295381 -13.088337 0
M  V30 30 H 8.571860 2.618285 -14.409346 0
M  V30 31 H 6.086024 2.629385 -14.413512 0
M  V30 32 H 4.848515 4.356112 -13.123221 0
M  V30 33 H 6.086276 6.073602 -11.827658 0
M  V30 34 H 10.027191 9.175838 -7.046858 0
M  V30 35 H 10.916575 10.678479 -5.295207 0
M  V30 36 H 7.611780 6.696221 -9.971267 0
M  V30 END ATOM
M  V30 BEGIN BOND
M  V30 1 1 2 1
M  V30 2 1 3 2
M  V30 3 2 4 3
M  V30 4 1 5 4
M  V30 5 1 6 5
M  V30 6 1 7 6
M  V30 7 1 8 7
M  V30 8 1 9 8
M  V30 9 1 10 9
M  V30 10 1 11 10
M  V30 11 2 12 11
M  V30 12 1 13 12
M  V30 13 2 14 13
M  V30 14 1 15 14
M  V30 15 1 16 11
M  V30 16 2 16 15
M  V30 17 2 17 5
M  V30 18 2 18 2
M  V30 19 1 18 17
M  V30 20 1 19 1
M  V30 21 1 20 3
M  V30 22 1 21 4
M  V30 23 1 22 7
M  V30 24 1 23 7
M  V30 25 1 24 8
M  V30 26 1 25 8
M  V30 27 1 26 9
M  V30 28 1 27 10
M  V30 29 1 28 10
M  V30 30 1 29 12
M  V30 31 1 30 13
M  V30 32 1 31 14
M  V30 33 1 32 15
M  V30 34 1 33 16
M  V30 35 1 34 17
M  V30 36 1 35 18
M  V30 37 1 36 9
M  V30 END BOND
M  V30 END CTAB
M  END
>  <b_m_subgroup_collapsed>  (1460) 
0

>  <r_i_docking_score>  (1460) 
-7.1008022141389304

>  <s_m_subgroup_title>  (1460) 
glide-dock_SP_D22_pv

>  <s_m_subgroupid>  (1460) 
glide-dock_SP_D22_pv

>  <Molecule ChEMBL ID>  (1460) 
CHEMBL100461

>  <Standard Type>  (1460) 
Ki

>  <Standard Value>  (1460) 
10000.0

>  <label>  (1460) 
0

$$$$
CHEMBL476394
     RDKit          3D

  0  0  0  0  0  0  0  0  0  0999 V3000
M  V30 BEGIN CTAB
M  V30 COUNTS 60 63 0 0 1
M  V30 BEGIN ATOM
M  V30 1 O 11.347602 6.088532 -7.006731 0
M  V30 2 C 10.947845 7.151018 -6.549288 0
M  V30 3 C 11.411010 7.599309 -5.186356 0
M  V30 4 C 11.290303 6.713358 -4.100607 0
M  V30 5 C 11.736205 7.070025 -2.813672 0
M  V30 6 C 12.309401 8.336163 -2.603042 0
M  V30 7 C 12.463734 9.222437 -3.684620 0
M  V30 8 C 12.038495 8.852199 -4.980232 0
M  V30 9 C 12.338999 9.748588 -6.164710 0
M  V30 10 C 11.099455 10.172269 -6.953537 0
M  V30 11 C 9.833283 9.319211 -6.842949 0
M  V30 12 N 10.089728 7.940097 -7.225704 0
M  V30 13 C 9.444829 7.491652 -8.463894 0
M  V30 14 C 10.362004 7.735600 -9.673473 0
M  V30 15 C 9.728916 7.359564 -11.014341 0
M  V30 16 C 9.357758 5.868880 -11.112873 0
M  V30 17 N 9.219300 5.440159 -12.523355 0 CHG=1
M  V30 18 C 10.522044 5.185773 -13.195251 0
M  V30 19 C 10.336555 4.925843 -14.700912 0
M  V30 20 N 9.291373 3.936238 -14.947968 0
M  V30 21 C 9.686875 2.691986 -15.472496 0
M  V30 22 C 9.468314 1.510948 -14.727884 0
M  V30 23 C 9.863220 0.260579 -15.231196 0
M  V30 24 C 10.485316 0.171999 -16.486973 0
M  V30 25 C 10.713903 1.334743 -17.242556 0
M  V30 26 Cl 11.487763 1.183930 -18.779722 0
M  V30 27 C 10.306392 2.594490 -16.748667 0
M  V30 28 Cl 10.532109 4.000697 -17.739376 0
M  V30 29 C 8.047181 4.056814 -14.192240 0
M  V30 30 C 8.315192 4.280518 -12.696054 0
M  V30 31 H 10.820333 5.764531 -4.253891 0
M  V30 32 H 11.623751 6.374843 -1.993388 0
M  V30 33 H 12.647695 8.624626 -1.619281 0
M  V30 34 H 12.944177 10.172218 -3.512154 0
M  V30 35 H 12.885932 10.632875 -5.846606 0
M  V30 36 H 13.012869 9.216470 -6.836333 0
M  V30 37 H 11.322229 10.172153 -8.015882 0
M  V30 38 H 10.877373 11.188622 -6.646846 0
M  V30 39 H 9.091208 9.740409 -7.517927 0
M  V30 40 H 9.405743 9.371269 -5.847074 0
M  V30 41 H 9.189953 6.434334 -8.381034 0
M  V30 42 H 8.488413 7.995156 -8.609938 0
M  V30 43 H 10.634585 8.789774 -9.713302 0
M  V30 44 H 11.296735 7.187150 -9.550480 0
M  V30 45 H 8.841183 7.970856 -11.188066 0
M  V30 46 H 10.435678 7.641353 -11.793054 0
M  V30 47 H 10.086453 5.236129 -10.606757 0
M  V30 48 H 8.414008 5.722199 -10.583316 0
M  V30 49 H 11.212529 6.017967 -13.060518 0
M  V30 50 H 10.990129 4.315064 -12.736676 0
M  V30 51 H 10.070912 5.844193 -15.221611 0
M  V30 52 H 11.290502 4.603141 -15.121477 0
M  V30 53 H 9.004982 1.550926 -13.753468 0
M  V30 54 H 9.689551 -0.627685 -14.647256 0
M  V30 55 H 10.786450 -0.788304 -16.876158 0
M  V30 56 H 7.509690 4.920159 -14.580487 0
M  V30 57 H 7.399532 3.192856 -14.348165 0
M  V30 58 H 8.775919 3.399278 -12.250695 0
M  V30 59 H 7.367998 4.452228 -12.179326 0
M  V30 60 H 8.776245 6.209884 -13.003276 0
M  V30 END ATOM
M  V30 BEGIN BOND
M  V30 1 2 2 1
M  V30 2 1 3 2
M  V30 3 2 4 3
M  V30 4 1 5 4
M  V30 5 2 6 5
M  V30 6 1 7 6
M  V30 7 1 8 3
M  V30 8 2 8 7
M  V30 9 1 9 8
M  V30 10 1 10 9
M  V30 11 1 11 10
M  V30 12 1 12 2
M  V30 13 1 12 11
M  V30 14 1 13 12
M  V30 15 1 14 13
M  V30 16 1 15 14
M  V30 17 1 16 15
M  V30 18 1 17 16
M  V30 19 1 18 17
M  V30 20 1 19 18
M  V30 21 1 20 19
M  V30 22 1 21 20
M  V30 23 2 22 21
M  V30 24 1 23 22
M  V30 25 2 24 23
M  V30 26 1 25 24
M  V30 27 1 26 25
M  V30 28 1 27 21
M  V30 29 2 27 25
M  V30 30 1 28 27
M  V30 31 1 29 20
M  V30 32 1 30 17
M  V30 33 1 30 29
M  V30 34 1 31 4
M  V30 35 1 32 5
M  V30 36 1 33 6
M  V30 37 1 34 7
M  V30 38 1 35 9
M  V30 39 1 36 9
M  V30 40 1 37 10
M  V30 41 1 38 10
M  V30 42 1 39 11
M  V30 43 1 40 11
M  V30 44 1 41 13
M  V30 45 1 42 13
M  V30 46 1 43 14
M  V30 47 1 44 14
M  V30 48 1 45 15
M  V30 49 1 46 15
M  V30 50 1 47 16
M  V30 51 1 48 16
M  V30 52 1 49 18
M  V30 53 1 50 18
M  V30 54 1 51 19
M  V30 55 1 52 19
M  V30 56 1 53 22
M  V30 57 1 54 23
M  V30 58 1 55 24
M  V30 59 1 56 29
M  V30 60 1 57 29
M  V30 61 1 58 30
M  V30 62 1 59 30
M  V30 63 1 60 17
M  V30 END BOND
M  V30 END CTAB
M  END
>  <b_m_subgroup_collapsed>  (1461) 
0

>  <r_i_docking_score>  (1461) 
-7.1007985680461099

>  <s_m_subgroup_title>  (1461) 
glide-dock_SP_D22_pv

>  <s_m_subgroupid>  (1461) 
glide-dock_SP_D22_pv

>  <Molecule ChEMBL ID>  (1461) 
CHEMBL476394

>  <Standard Type>  (1461) 
Ki

>  <Standard Value>  (1461) 
36.31

>  <label>  (1461) 
1

$$$$
CHEMBL4752919
     RDKit          3D

  0  0  0  0  0  0  0  0  0  0999 V3000
M  V30 BEGIN CTAB
M  V30 COUNTS 56 58 0 0 1
M  V30 BEGIN ATOM
M  V30 1 C 9.910294 -0.927086 -17.159870 0
M  V30 2 C 9.838827 0.258052 -16.210957 0
M  V30 3 O 10.886250 0.791049 -15.851828 0
M  V30 4 N 8.607612 0.617660 -15.802486 0
M  V30 5 C 8.214262 1.749269 -15.036858 0
M  V30 6 C 9.058514 2.853445 -14.766942 0
M  V30 7 C 8.577029 3.959401 -14.043233 0
M  V30 8 C 7.240466 3.994020 -13.580875 0
M  V30 9 O 6.673993 5.051276 -12.902566 0
M  V30 10 C 7.464840 6.199718 -12.608745 0
M  V30 11 C 8.344120 5.957586 -11.377769 0
M  V30 12 C 9.150253 7.209415 -10.983847 0
M  V30 13 N 10.086314 6.969540 -9.887163 0
M  V30 14 C 9.396736 6.561203 -8.652520 0
M  V30 15 C 10.429524 6.254072 -7.553133 0
M  V30 16 N 11.285498 7.409556 -7.339418 0
M  V30 17 C 11.286586 8.068314 -6.103758 0
M  V30 18 C 11.151116 9.469337 -6.042482 0
M  V30 19 C 11.285865 10.139772 -4.819705 0
M  V30 20 C 11.578952 9.423535 -3.647241 0
M  V30 21 C 11.686081 8.015026 -3.680694 0
M  V30 22 C 11.990333 7.238281 -2.408282 0
M  V30 23 F 10.888547 6.658166 -1.932760 0
M  V30 24 F 12.885976 6.283987 -2.647352 0
M  V30 25 F 12.486151 8.062965 -1.483250 0
M  V30 26 C 11.513410 7.341237 -4.909890 0
M  V30 27 C 11.862091 8.021503 -8.534229 0
M  V30 28 C 10.784447 8.232711 -9.608620 0
M  V30 29 C 6.408310 2.889792 -13.846771 0
M  V30 30 C 6.886348 1.779326 -14.568110 0
M  V30 31 H 10.086705 -1.828559 -16.582653 0
M  V30 32 H 8.987494 -1.041412 -17.733562 0
M  V30 33 H 10.738928 -0.805938 -17.861633 0
M  V30 34 H 7.858148 0.001195 -16.087355 0
M  V30 35 H 10.075912 2.892418 -15.117206 0
M  V30 36 H 9.262883 4.774864 -13.871137 0
M  V30 37 H 6.769835 7.013556 -12.400755 0
M  V30 38 H 8.049627 6.528432 -13.468383 0
M  V30 39 H 9.024439 5.124744 -11.547853 0
M  V30 40 H 7.680252 5.655359 -10.570707 0
M  V30 41 H 8.486340 8.033024 -10.726808 0
M  V30 42 H 9.722658 7.537017 -11.853035 0
M  V30 43 H 8.813545 5.655210 -8.812260 0
M  V30 44 H 8.698264 7.335685 -8.328676 0
M  V30 45 H 11.043402 5.401777 -7.843729 0
M  V30 46 H 9.908669 5.979255 -6.636815 0
M  V30 47 H 10.952353 10.044008 -6.933967 0
M  V30 48 H 11.175291 11.213449 -4.789233 0
M  V30 49 H 11.695851 9.963709 -2.719126 0
M  V30 50 H 11.619092 6.266755 -4.940654 0
M  V30 51 H 12.358733 8.964617 -8.310257 0
M  V30 52 H 12.643538 7.372462 -8.924102 0
M  V30 53 H 11.256785 8.603315 -10.521722 0
M  V30 54 H 10.074051 8.996831 -9.285029 0
M  V30 55 H 5.383828 2.901258 -13.500090 0
M  V30 56 H 6.217547 0.950166 -14.764039 0
M  V30 END ATOM
M  V30 BEGIN BOND
M  V30 1 1 2 1
M  V30 2 2 3 2
M  V30 3 1 4 2
M  V30 4 1 5 4
M  V30 5 1 6 5
M  V30 6 2 7 6
M  V30 7 1 8 7
M  V30 8 1 9 8
M  V30 9 1 10 9
M  V30 10 1 11 10
M  V30 11 1 12 11
M  V30 12 1 13 12
M  V30 13 1 14 13
M  V30 14 1 15 14
M  V30 15 1 16 15
M  V30 16 1 17 16
M  V30 17 1 18 17
M  V30 18 2 19 18
M  V30 19 1 20 19
M  V30 20 2 21 20
M  V30 21 1 22 21
M  V30 22 1 23 22
M  V30 23 1 24 22
M  V30 24 1 25 22
M  V30 25 2 26 17
M  V30 26 1 26 21
M  V30 27 1 27 16
M  V30 28 1 28 13
M  V30 29 1 28 27
M  V30 30 2 29 8
M  V30 31 2 30 5
M  V30 32 1 30 29
M  V30 33 1 31 1
M  V30 34 1 32 1
M  V30 35 1 33 1
M  V30 36 1 34 4
M  V30 37 1 35 6
M  V30 38 1 36 7
M  V30 39 1 37 10
M  V30 40 1 38 10
M  V30 41 1 39 11
M  V30 42 1 40 11
M  V30 43 1 41 12
M  V30 44 1 42 12
M  V30 45 1 43 14
M  V30 46 1 44 14
M  V30 47 1 45 15
M  V30 48 1 46 15
M  V30 49 1 47 18
M  V30 50 1 48 19
M  V30 51 1 49 20
M  V30 52 1 50 26
M  V30 53 1 51 27
M  V30 54 1 52 27
M  V30 55 1 53 28
M  V30 56 1 54 28
M  V30 57 1 55 29
M  V30 58 1 56 30
M  V30 END BOND
M  V30 END CTAB
M  END
>  <b_m_subgroup_collapsed>  (1462) 
0

>  <r_i_docking_score>  (1462) 
-7.0979065400342396

>  <s_m_subgroup_title>  (1462) 
glide-dock_SP_D22_pv

>  <s_m_subgroupid>  (1462) 
glide-dock_SP_D22_pv

>  <Molecule ChEMBL ID>  (1462) 
CHEMBL4752919

>  <Standard Type>  (1462) 
Ki

>  <Standard Value>  (1462) 
10000.0

>  <label>  (1462) 
0

$$$$
CHEMBL520821
     RDKit          3D

  0  0  0  0  0  0  0  0  0  0999 V3000
M  V30 BEGIN CTAB
M  V30 COUNTS 59 63 0 0 1
M  V30 BEGIN ATOM
M  V30 1 C 10.573546 0.420971 -19.731869 0
M  V30 2 C 10.517084 0.634809 -18.233070 0
M  V30 3 C 10.120147 -0.420965 -17.390568 0
M  V30 4 C 10.085964 -0.227794 -15.998666 0
M  V30 5 C 10.451483 1.006204 -15.443091 0
M  V30 6 C 10.808679 2.087559 -16.275957 0
M  V30 7 C 11.140671 3.429872 -15.617335 0 CFG=1
M  V30 8 C 11.531808 4.555528 -16.601555 0
M  V30 9 N 11.683089 5.900637 -15.979828 0 CFG=2 CHG=1
M  V30 10 C 12.086700 6.915655 -16.979364 0
M  V30 11 C 12.500058 5.991308 -14.740015 0
M  V30 12 C 11.950665 5.203120 -13.526495 0
M  V30 13 C 10.460069 4.835763 -13.593574 0
M  V30 14 C 10.080194 3.931391 -14.622355 0
M  V30 15 C 8.736546 3.518034 -14.726155 0
M  V30 16 C 7.776752 4.002440 -13.830619 0
M  V30 17 O 6.481163 3.588898 -13.903085 0
M  V30 18 C 8.135106 4.909703 -12.821187 0
M  V30 19 O 7.125907 5.372499 -12.015255 0
M  V30 20 C 9.486399 5.321279 -12.661611 0
M  V30 21 C 9.820360 6.187617 -11.508677 0
M  V30 22 C 10.488302 7.421399 -11.663555 0
M  V30 23 C 10.821408 8.212786 -10.548329 0
M  V30 24 C 10.453809 7.802836 -9.253554 0
M  V30 25 C 10.763946 8.601015 -8.133746 0
M  V30 26 C 10.380791 8.186764 -6.844040 0
M  V30 27 C 9.687673 6.972639 -6.673734 0
M  V30 28 C 9.373659 6.173828 -7.791146 0
M  V30 29 C 9.761823 6.582880 -9.081698 0
M  V30 30 C 9.464926 5.781329 -10.201203 0
M  V30 31 C 10.854405 1.887480 -17.678841 0
M  V30 32 H 10.480078 1.363529 -20.270048 0
M  V30 33 H 9.765943 -0.234657 -20.057781 0
M  V30 34 H 11.521269 -0.042079 -20.009762 0
M  V30 35 H 9.846218 -1.379235 -17.805855 0
M  V30 36 H 9.773981 -1.027581 -15.346611 0
M  V30 37 H 10.421040 1.130254 -14.369840 0
M  V30 38 H 12.035948 3.161329 -15.061640 0
M  V30 39 H 12.447717 4.283590 -17.130125 0
M  V30 40 H 10.745741 4.660205 -17.350283 0
M  V30 41 H 13.090635 6.714577 -17.356153 0
M  V30 42 H 12.086068 7.915256 -16.542801 0
M  V30 43 H 11.401340 6.928810 -17.828531 0
M  V30 44 H 13.535628 5.711616 -14.941689 0
M  V30 45 H 12.529630 7.043936 -14.450196 0
M  V30 46 H 12.532457 4.294548 -13.374668 0
M  V30 47 H 12.194813 5.776451 -12.646901 0
M  V30 48 H 8.418070 2.831880 -15.496947 0
M  V30 49 H 5.992545 3.994956 -13.197998 0
M  V30 50 H 7.360507 6.052838 -11.394201 0
M  V30 51 H 10.760221 7.762487 -12.649357 0
M  V30 52 H 11.354013 9.143671 -10.684175 0
M  V30 53 H 11.289743 9.535254 -8.260337 0
M  V30 54 H 10.611624 8.801321 -5.987001 0
M  V30 55 H 9.386991 6.654099 -5.686728 0
M  V30 56 H 8.829997 5.250774 -7.653858 0
M  V30 57 H 8.951413 4.840722 -10.056712 0
M  V30 58 H 11.146111 2.678617 -18.351688 0
M  V30 59 H 10.749929 6.155768 -15.685680 0
M  V30 END ATOM
M  V30 BEGIN BOND
M  V30 1 1 2 1
M  V30 2 1 3 2
M  V30 3 2 4 3
M  V30 4 1 5 4
M  V30 5 2 6 5
M  V30 6 1 7 6
M  V30 7 1 8 7
M  V30 8 1 9 8
M  V30 9 1 10 9
M  V30 10 1 11 9
M  V30 11 1 12 11
M  V30 12 1 13 12
M  V30 13 1 14 7
M  V30 14 2 14 13
M  V30 15 1 15 14
M  V30 16 2 16 15
M  V30 17 1 17 16
M  V30 18 1 18 16
M  V30 19 1 19 18
M  V30 20 1 20 13
M  V30 21 2 20 18
M  V30 22 1 21 20
M  V30 23 1 22 21
M  V30 24 2 23 22
M  V30 25 1 24 23
M  V30 26 2 25 24
M  V30 27 1 26 25
M  V30 28 2 27 26
M  V30 29 1 28 27
M  V30 30 1 29 24
M  V30 31 2 29 28
M  V30 32 2 30 21
M  V30 33 1 30 29
M  V30 34 2 31 2
M  V30 35 1 31 6
M  V30 36 1 32 1
M  V30 37 1 33 1
M  V30 38 1 34 1
M  V30 39 1 35 3
M  V30 40 1 36 4
M  V30 41 1 37 5
M  V30 42 1 7 38 CFG=1
M  V30 43 1 39 8
M  V30 44 1 40 8
M  V30 45 1 41 10
M  V30 46 1 42 10
M  V30 47 1 43 10
M  V30 48 1 44 11
M  V30 49 1 45 11
M  V30 50 1 46 12
M  V30 51 1 47 12
M  V30 52 1 48 15
M  V30 53 1 49 17
M  V30 54 1 50 19
M  V30 55 1 51 22
M  V30 56 1 52 23
M  V30 57 1 53 25
M  V30 58 1 54 26
M  V30 59 1 55 27
M  V30 60 1 56 28
M  V30 61 1 57 30
M  V30 62 1 58 31
M  V30 63 1 9 59 CFG=1
M  V30 END BOND
M  V30 END CTAB
M  END
>  <b_m_subgroup_collapsed>  (1463) 
0

>  <r_i_docking_score>  (1463) 
-7.09764617139734

>  <s_m_subgroup_title>  (1463) 
glide-dock_SP_D22_pv

>  <s_m_subgroupid>  (1463) 
glide-dock_SP_D22_pv

>  <Molecule ChEMBL ID>  (1463) 
CHEMBL520821

>  <Standard Type>  (1463) 
Ki

>  <Standard Value>  (1463) 
29.0

>  <label>  (1463) 
1

$$$$
CHEMBL6047939
     RDKit          3D

  0  0  0  0  0  0  0  0  0  0999 V3000
M  V30 BEGIN CTAB
M  V30 COUNTS 63 67 0 0 1
M  V30 BEGIN ATOM
M  V30 1 C 11.656322 9.372069 -7.910394 0
M  V30 2 N 10.792945 8.256468 -7.585789 0
M  V30 3 C 9.980999 7.546002 -8.399283 0
M  V30 4 S 9.782877 7.914012 -10.113748 0
M  V30 5 C 8.912882 6.407148 -10.640567 0
M  V30 6 C 8.364161 6.576470 -12.057918 0
M  V30 7 C 7.563840 5.367014 -12.573954 0
M  V30 8 N 8.382445 4.172574 -12.924233 0 CFG=2 CHG=1
M  V30 9 C 9.683241 4.419078 -13.578824 0
M  V30 10 C 10.106895 3.062011 -14.155601 0 CFG=2
M  V30 11 C 10.768405 3.125641 -15.537538 0
M  V30 12 C 9.633677 2.832504 -16.517427 0
M  V30 13 N 8.719066 1.981852 -15.772115 0
M  V30 14 C 7.648044 1.295880 -16.383669 0
M  V30 15 C 7.444919 1.373650 -17.783159 0
M  V30 16 C 6.382461 0.686151 -18.399229 0
M  V30 17 C 5.507506 -0.093998 -17.624607 0
M  V30 18 C 5.691986 -0.191992 -16.230553 0
M  V30 19 C 4.751565 -1.050883 -15.404687 0
M  V30 20 F 5.192208 -2.304579 -15.445827 0
M  V30 21 F 4.711518 -0.634686 -14.136666 0
M  V30 22 F 3.511318 -1.011373 -15.892568 0
M  V30 23 C 6.762855 0.499173 -15.619542 0
M  V30 24 C 8.799255 2.278780 -14.346297 0 CFG=2
M  V30 25 C 7.695413 3.217290 -13.821317 0
M  V30 26 N 9.375798 6.528077 -7.787980 0
M  V30 27 N 9.801796 6.572362 -6.492857 0
M  V30 28 C 10.636255 7.604718 -6.413865 0
M  V30 29 C 11.295349 7.896801 -5.134626 0
M  V30 30 C 11.556630 6.812376 -4.196572 0
M  V30 31 C 12.086063 7.036772 -2.978879 0
M  V30 32 C 12.430432 8.390015 -2.550621 0
M  V30 33 O 12.886069 8.654298 -1.446936 0
M  V30 34 N 12.206958 9.359673 -3.463373 0
M  V30 35 C 11.657749 9.132712 -4.730824 0
M  V30 36 H 11.286469 10.269529 -7.421428 0
M  V30 37 H 11.687068 9.542228 -8.987679 0
M  V30 38 H 12.671185 9.164533 -7.567426 0
M  V30 39 H 9.601525 5.565672 -10.584359 0
M  V30 40 H 8.085701 6.188808 -9.966398 0
M  V30 41 H 7.693412 7.435971 -12.057524 0
M  V30 42 H 9.167657 6.851128 -12.735306 0
M  V30 43 H 6.807789 5.075215 -11.842003 0
M  V30 44 H 7.008552 5.693656 -13.446781 0
M  V30 45 H 9.547192 5.146468 -14.380466 0
M  V30 46 H 10.428005 4.810354 -12.883843 0
M  V30 47 H 10.751004 2.540978 -13.446817 0
M  V30 48 H 11.270235 4.072279 -15.739961 0
M  V30 49 H 11.517648 2.336776 -15.611479 0
M  V30 50 H 9.124267 3.750899 -16.812677 0
M  V30 51 H 10.019876 2.342048 -17.411133 0
M  V30 52 H 8.100034 1.958391 -18.410444 0
M  V30 53 H 6.238712 0.752002 -19.467934 0
M  V30 54 H 4.696234 -0.625910 -18.100330 0
M  V30 55 H 6.903866 0.397919 -14.554765 0
M  V30 56 H 8.843436 1.354707 -13.768675 0
M  V30 57 H 6.888156 2.682266 -13.318853 0
M  V30 58 H 7.242269 3.766214 -14.646378 0
M  V30 59 H 11.318842 5.794391 -4.474371 0
M  V30 60 H 12.260808 6.206336 -2.309062 0
M  V30 61 H 12.424291 10.310082 -3.202044 0
M  V30 62 H 11.502875 10.038314 -5.294222 0
M  V30 63 H 8.591455 3.682127 -12.064403 0
M  V30 END ATOM
M  V30 BEGIN BOND
M  V30 1 1 2 1
M  V30 2 1 3 2
M  V30 3 1 4 3
M  V30 4 1 5 4
M  V30 5 1 6 5
M  V30 6 1 7 6
M  V30 7 1 8 7
M  V30 8 1 9 8
M  V30 9 1 10 9
M  V30 10 1 11 10
M  V30 11 1 12 11
M  V30 12 1 13 12
M  V30 13 1 14 13
M  V30 14 1 15 14
M  V30 15 2 16 15
M  V30 16 1 17 16
M  V30 17 2 18 17
M  V30 18 1 19 18
M  V30 19 1 20 19
M  V30 20 1 21 19
M  V30 21 1 22 19
M  V30 22 2 23 14
M  V30 23 1 23 18
M  V30 24 1 24 10
M  V30 25 1 24 13
M  V30 26 1 25 8
M  V30 27 1 25 24
M  V30 28 2 26 3
M  V30 29 1 27 26
M  V30 30 1 28 2
M  V30 31 2 28 27
M  V30 32 1 29 28
M  V30 33 1 30 29
M  V30 34 2 31 30
M  V30 35 1 32 31
M  V30 36 2 33 32
M  V30 37 1 34 32
M  V30 38 2 35 29
M  V30 39 1 35 34
M  V30 40 1 36 1
M  V30 41 1 37 1
M  V30 42 1 38 1
M  V30 43 1 39 5
M  V30 44 1 40 5
M  V30 45 1 41 6
M  V30 46 1 42 6
M  V30 47 1 43 7
M  V30 48 1 44 7
M  V30 49 1 45 9
M  V30 50 1 46 9
M  V30 51 1 10 47 CFG=1
M  V30 52 1 48 11
M  V30 53 1 49 11
M  V30 54 1 50 12
M  V30 55 1 51 12
M  V30 56 1 52 15
M  V30 57 1 53 16
M  V30 58 1 54 17
M  V30 59 1 55 23
M  V30 60 1 24 56 CFG=1
M  V30 61 1 57 25
M  V30 62 1 58 25
M  V30 63 1 59 30
M  V30 64 1 60 31
M  V30 65 1 61 34
M  V30 66 1 62 35
M  V30 67 1 8 63 CFG=1
M  V30 END BOND
M  V30 END CTAB
M  END
>  <b_m_subgroup_collapsed>  (1464) 
0

>  <r_i_docking_score>  (1464) 
-7.0959553463653302

>  <s_m_subgroup_title>  (1464) 
glide-dock_SP_D22_pv

>  <s_m_subgroupid>  (1464) 
glide-dock_SP_D22_pv

>  <Molecule ChEMBL ID>  (1464) 
CHEMBL6047939

>  <Standard Type>  (1464) 
Ki

>  <Standard Value>  (1464) 
37.2

>  <label>  (1464) 
1

$$$$
CHEMBL4745313
     RDKit          3D

  0  0  0  0  0  0  0  0  0  0999 V3000
M  V30 BEGIN CTAB
M  V30 COUNTS 52 54 0 0 1
M  V30 BEGIN ATOM
M  V30 1 C 5.046414 -1.501951 -15.049461 0
M  V30 2 C 5.272517 -0.178235 -14.324999 0
M  V30 3 O 4.486179 0.166251 -13.446453 0
M  V30 4 N 6.357646 0.521486 -14.706813 0
M  V30 5 C 6.839304 1.781609 -14.247442 0
M  V30 6 C 8.142138 2.140527 -14.650791 0
M  V30 7 C 8.709930 3.362228 -14.245795 0
M  V30 8 C 7.999428 4.247178 -13.412638 0
M  V30 9 O 8.651224 5.406770 -13.042654 0
M  V30 10 C 8.336971 6.006896 -11.787453 0
M  V30 11 C 8.920227 5.176239 -10.626795 0
M  V30 12 C 8.526217 5.707979 -9.240279 0
M  V30 13 N 9.534320 6.619689 -8.684621 0
M  V30 14 C 10.435902 5.825263 -7.850129 0
M  V30 15 C 11.524033 6.707548 -7.229286 0
M  V30 16 N 10.891898 7.733417 -6.418620 0
M  V30 17 C 11.287605 7.988518 -5.095541 0
M  V30 18 C 11.686030 6.928563 -4.248142 0
M  V30 19 C 12.086023 7.213558 -2.930411 0
M  V30 20 C 12.094960 8.551623 -2.506620 0
M  V30 21 C 11.686276 9.539991 -3.418988 0
M  V30 22 N 11.286284 9.274819 -4.678632 0
M  V30 23 C 9.909338 8.542577 -7.122145 0
M  V30 24 C 8.885707 7.619193 -7.820300 0
M  V30 25 C 6.678907 3.906657 -13.026177 0
M  V30 26 C 6.097970 2.689708 -13.447338 0
M  V30 27 H 5.686149 -2.276236 -14.625956 0
M  V30 28 H 4.008965 -1.826041 -14.956014 0
M  V30 29 H 5.269536 -1.411741 -16.113188 0
M  V30 30 H 6.935832 0.066908 -15.398838 0
M  V30 31 H 8.720575 1.474426 -15.273191 0
M  V30 32 H 9.713114 3.616377 -14.557781 0
M  V30 33 H 7.265490 6.169887 -11.675388 0
M  V30 34 H 8.788648 6.999704 -11.773271 0
M  V30 35 H 10.001597 5.077440 -10.724155 0
M  V30 36 H 8.516046 4.172357 -10.708920 0
M  V30 37 H 8.355310 4.873431 -8.556663 0
M  V30 38 H 7.553894 6.172229 -9.329344 0
M  V30 39 H 10.885699 5.024084 -8.436012 0
M  V30 40 H 9.857082 5.372283 -7.047216 0
M  V30 41 H 12.097869 7.199333 -8.013641 0
M  V30 42 H 12.220688 6.096091 -6.658007 0
M  V30 43 H 11.659246 5.902070 -4.580004 0
M  V30 44 H 12.381228 6.417471 -2.262171 0
M  V30 45 H 12.392215 8.819409 -1.504129 0
M  V30 46 H 11.668525 10.572768 -3.115239 0
M  V30 47 H 9.387975 9.201966 -6.431455 0
M  V30 48 H 10.417337 9.172710 -7.851965 0
M  V30 49 H 8.222797 8.236744 -8.422128 0
M  V30 50 H 8.267027 7.121024 -7.071943 0
M  V30 51 H 6.088734 4.564569 -12.405476 0
M  V30 52 H 5.089119 2.474868 -13.136091 0
M  V30 END ATOM
M  V30 BEGIN BOND
M  V30 1 1 2 1
M  V30 2 2 3 2
M  V30 3 1 4 2
M  V30 4 1 5 4
M  V30 5 1 6 5
M  V30 6 2 7 6
M  V30 7 1 8 7
M  V30 8 1 9 8
M  V30 9 1 10 9
M  V30 10 1 11 10
M  V30 11 1 12 11
M  V30 12 1 13 12
M  V30 13 1 14 13
M  V30 14 1 15 14
M  V30 15 1 16 15
M  V30 16 1 17 16
M  V30 17 2 18 17
M  V30 18 1 19 18
M  V30 19 2 20 19
M  V30 20 1 21 20
M  V30 21 1 22 17
M  V30 22 2 22 21
M  V30 23 1 23 16
M  V30 24 1 24 13
M  V30 25 1 24 23
M  V30 26 2 25 8
M  V30 27 2 26 5
M  V30 28 1 26 25
M  V30 29 1 27 1
M  V30 30 1 28 1
M  V30 31 1 29 1
M  V30 32 1 30 4
M  V30 33 1 31 6
M  V30 34 1 32 7
M  V30 35 1 33 10
M  V30 36 1 34 10
M  V30 37 1 35 11
M  V30 38 1 36 11
M  V30 39 1 37 12
M  V30 40 1 38 12
M  V30 41 1 39 14
M  V30 42 1 40 14
M  V30 43 1 41 15
M  V30 44 1 42 15
M  V30 45 1 43 18
M  V30 46 1 44 19
M  V30 47 1 45 20
M  V30 48 1 46 21
M  V30 49 1 47 23
M  V30 50 1 48 23
M  V30 51 1 49 24
M  V30 52 1 50 24
M  V30 53 1 51 25
M  V30 54 1 52 26
M  V30 END BOND
M  V30 END CTAB
M  END
>  <b_m_subgroup_collapsed>  (1465) 
0

>  <r_i_docking_score>  (1465) 
-7.0958481025000202

>  <s_m_subgroup_title>  (1465) 
glide-dock_SP_D22_pv

>  <s_m_subgroupid>  (1465) 
glide-dock_SP_D22_pv

>  <Molecule ChEMBL ID>  (1465) 
CHEMBL4745313

>  <Standard Type>  (1465) 
Ki

>  <Standard Value>  (1465) 
10000.0

>  <label>  (1465) 
0

$$$$
CHEMBL6011755
     RDKit          3D

  0  0  0  0  0  0  0  0  0  0999 V3000
M  V30 BEGIN CTAB
M  V30 COUNTS 51 53 0 0 1
M  V30 BEGIN ATOM
M  V30 1 C 6.636577 4.237403 -13.414322 0
M  V30 2 C 7.824535 4.862885 -12.648447 0 CFG=1
M  V30 3 O 9.010921 4.068203 -12.841022 0
M  V30 4 C 9.603439 3.892354 -14.080674 0
M  V30 5 C 10.527840 2.842347 -14.246922 0
M  V30 6 C 11.146769 2.663198 -15.497861 0
M  V30 7 C 10.829341 3.549757 -16.540974 0
M  V30 8 C 9.899322 4.572201 -16.283579 0
M  V30 9 N 9.296256 4.739328 -15.087955 0
M  V30 10 C 7.988858 6.376541 -12.913824 0
M  V30 11 C 9.140576 6.983663 -12.084016 0
M  V30 12 N 8.886022 6.823133 -10.628129 0 CFG=2 CHG=1
M  V30 13 C 9.903159 7.477054 -9.759640 0
M  V30 14 C 9.257074 8.153530 -8.536194 0
M  V30 15 O 10.200439 8.972353 -7.847631 0
M  V30 16 C 10.698821 8.558074 -6.631487 0
M  V30 17 C 10.789533 7.204230 -6.230101 0
M  V30 18 C 11.285772 6.874188 -4.952013 0
M  V30 19 C 11.687100 7.880703 -4.049334 0
M  V30 20 C 12.158559 7.508784 -2.646792 0
M  V30 21 F 12.886032 8.488340 -2.109955 0
M  V30 22 F 11.126153 7.272974 -1.847050 0
M  V30 23 F 12.886037 6.397387 -2.674993 0
M  V30 24 C 11.629317 9.229150 -4.461748 0
M  V30 25 C 11.149828 9.559359 -5.745388 0
M  V30 26 C 8.610413 5.408625 -10.263183 0
M  V30 27 C 7.507327 4.793078 -11.154707 0
M  V30 28 H 5.714932 4.795404 -13.244493 0
M  V30 29 H 6.796767 4.202365 -14.487425 0
M  V30 30 H 6.461332 3.211212 -13.090035 0
M  V30 31 H 10.749240 2.172515 -13.431863 0
M  V30 32 H 11.852797 1.860971 -15.654756 0
M  V30 33 H 11.286036 3.448391 -17.514475 0
M  V30 34 H 9.626571 5.273125 -17.058603 0
M  V30 35 H 8.088895 6.572297 -13.970612 0
M  V30 36 H 7.065577 6.896578 -12.650118 0
M  V30 37 H 10.091355 6.519972 -12.351479 0
M  V30 38 H 9.225404 8.046400 -12.313868 0
M  V30 39 H 10.670449 6.763630 -9.455477 0
M  V30 40 H 10.419378 8.252223 -10.327944 0
M  V30 41 H 8.486030 8.836647 -8.888636 0
M  V30 42 H 8.745512 7.439888 -7.888964 0
M  V30 43 H 10.481062 6.403675 -6.885523 0
M  V30 44 H 11.329299 5.837530 -4.650712 0
M  V30 45 H 11.935619 10.017091 -3.789020 0
M  V30 46 H 11.099798 10.596806 -6.042543 0
M  V30 47 H 9.526035 4.820595 -10.345057 0
M  V30 48 H 8.296170 5.361622 -9.219710 0
M  V30 49 H 6.575094 5.347768 -11.046832 0
M  V30 50 H 7.292836 3.772310 -10.842667 0
M  V30 51 H 7.994463 7.308121 -10.463382 0
M  V30 END ATOM
M  V30 BEGIN BOND
M  V30 1 1 2 1
M  V30 2 1 2 3 CFG=1
M  V30 3 1 4 3
M  V30 4 2 5 4
M  V30 5 1 6 5
M  V30 6 2 7 6
M  V30 7 1 8 7
M  V30 8 1 9 4
M  V30 9 2 9 8
M  V30 10 1 10 2
M  V30 11 1 11 10
M  V30 12 1 12 11
M  V30 13 1 13 12
M  V30 14 1 14 13
M  V30 15 1 15 14
M  V30 16 1 16 15
M  V30 17 1 17 16
M  V30 18 2 18 17
M  V30 19 1 19 18
M  V30 20 1 20 19
M  V30 21 1 21 20
M  V30 22 1 22 20
M  V30 23 1 23 20
M  V30 24 2 24 19
M  V30 25 2 25 16
M  V30 26 1 25 24
M  V30 27 1 26 12
M  V30 28 1 27 2
M  V30 29 1 27 26
M  V30 30 1 28 1
M  V30 31 1 29 1
M  V30 32 1 30 1
M  V30 33 1 31 5
M  V30 34 1 32 6
M  V30 35 1 33 7
M  V30 36 1 34 8
M  V30 37 1 35 10
M  V30 38 1 36 10
M  V30 39 1 37 11
M  V30 40 1 38 11
M  V30 41 1 39 13
M  V30 42 1 40 13
M  V30 43 1 41 14
M  V30 44 1 42 14
M  V30 45 1 43 17
M  V30 46 1 44 18
M  V30 47 1 45 24
M  V30 48 1 46 25
M  V30 49 1 47 26
M  V30 50 1 48 26
M  V30 51 1 49 27
M  V30 52 1 50 27
M  V30 53 1 12 51 CFG=3
M  V30 END BOND
M  V30 END CTAB
M  END
>  <b_m_subgroup_collapsed>  (1466) 
0

>  <r_i_docking_score>  (1466) 
-7.0954772389744001

>  <s_m_subgroup_title>  (1466) 
glide-dock_SP_D22_pv

>  <s_m_subgroupid>  (1466) 
glide-dock_SP_D22_pv

>  <Molecule ChEMBL ID>  (1466) 
CHEMBL6011755

>  <Standard Type>  (1466) 
Ki

>  <Standard Value>  (1466) 
20000.0

>  <label>  (1466) 
0

$$$$
CHEMBL2414991
     RDKit          3D

  0  0  0  0  0  0  0  0  0  0999 V3000
M  V30 BEGIN CTAB
M  V30 COUNTS 38 41 0 0 1
M  V30 BEGIN ATOM
M  V30 1 C 7.480507 3.876931 -13.350584 0
M  V30 2 N 8.306808 4.550919 -12.317467 0 CFG=2 CHG=1
M  V30 3 C 7.467032 5.281749 -11.361510 0
M  V30 4 C 8.321657 5.624754 -10.154425 0
M  V30 5 C 9.557483 6.441979 -10.489261 0
M  V30 6 C 10.241065 7.236967 -9.561152 0
M  V30 7 C 11.420471 7.892756 -9.932508 0
M  V30 8 O 12.082073 8.616323 -8.979683 0
M  V30 9 C 11.923916 7.772346 -11.248463 0
M  V30 10 O 13.084441 8.448778 -11.525049 0
M  V30 11 C 11.274077 6.973790 -12.246720 0
M  V30 12 C 10.085955 6.318998 -11.803648 0
M  V30 13 C 9.377014 5.431384 -12.856750 0 CFG=1
M  V30 14 C 10.409694 4.631011 -13.678014 0
M  V30 15 C 11.419347 5.557778 -14.309442 0
M  V30 16 C 11.906034 5.265680 -15.600864 0
M  V30 17 C 12.742488 6.178927 -16.260433 0
M  V30 18 C 13.077415 7.386636 -15.628876 0
M  V30 19 C 12.609122 7.660773 -14.329574 0
M  V30 20 C 11.791433 6.741934 -13.626849 0
M  V30 21 H 7.052033 4.595760 -14.048084 0
M  V30 22 H 6.654805 3.330620 -12.894773 0
M  V30 23 H 8.054216 3.142865 -13.913123 0
M  V30 24 H 7.043108 6.174333 -11.824898 0
M  V30 25 H 6.631888 4.660497 -11.047386 0
M  V30 26 H 7.720598 6.172074 -9.429119 0
M  V30 27 H 8.639291 4.710972 -9.648451 0
M  V30 28 H 9.868898 7.326116 -8.549978 0
M  V30 29 H 12.844705 9.087939 -9.282084 0
M  V30 30 H 13.284862 9.189984 -10.967413 0
M  V30 31 H 8.878571 6.132646 -13.528835 0
M  V30 32 H 10.935649 3.915742 -13.047680 0
M  V30 33 H 9.934804 4.061842 -14.475300 0
M  V30 34 H 11.617134 4.353828 -16.102978 0
M  V30 35 H 13.105161 5.967356 -17.254938 0
M  V30 36 H 13.695942 8.109138 -16.139994 0
M  V30 37 H 12.887941 8.604579 -13.894346 0
M  V30 38 H 8.764159 3.824526 -11.784171 0
M  V30 END ATOM
M  V30 BEGIN BOND
M  V30 1 1 2 1
M  V30 2 1 3 2
M  V30 3 1 4 3
M  V30 4 1 5 4
M  V30 5 1 6 5
M  V30 6 2 7 6
M  V30 7 1 8 7
M  V30 8 1 9 7
M  V30 9 1 10 9
M  V30 10 2 11 9
M  V30 11 2 12 5
M  V30 12 1 12 11
M  V30 13 1 13 2
M  V30 14 1 13 12
M  V30 15 1 14 13
M  V30 16 1 15 14
M  V30 17 2 16 15
M  V30 18 1 17 16
M  V30 19 2 18 17
M  V30 20 1 19 18
M  V30 21 1 20 11
M  V30 22 1 20 15
M  V30 23 2 20 19
M  V30 24 1 21 1
M  V30 25 1 22 1
M  V30 26 1 23 1
M  V30 27 1 24 3
M  V30 28 1 25 3
M  V30 29 1 26 4
M  V30 30 1 27 4
M  V30 31 1 28 6
M  V30 32 1 29 8
M  V30 33 1 30 10
M  V30 34 1 13 31 CFG=3
M  V30 35 1 32 14
M  V30 36 1 33 14
M  V30 37 1 34 16
M  V30 38 1 35 17
M  V30 39 1 36 18
M  V30 40 1 37 19
M  V30 41 1 2 38 CFG=1
M  V30 END BOND
M  V30 END CTAB
M  END
>  <b_m_subgroup_collapsed>  (1467) 
0

>  <r_i_docking_score>  (1467) 
-7.0929412218685899

>  <s_m_subgroup_title>  (1467) 
glide-dock_SP_D22_pv

>  <s_m_subgroupid>  (1467) 
glide-dock_SP_D22_pv

>  <Molecule ChEMBL ID>  (1467) 
CHEMBL2414991

>  <Standard Type>  (1467) 
Ki

>  <Standard Value>  (1467) 
38.9

>  <label>  (1467) 
1

$$$$
CHEMBL413483
     RDKit          3D

  0  0  0  0  0  0  0  0  0  0999 V3000
M  V30 BEGIN CTAB
M  V30 COUNTS 41 42 0 0 1
M  V30 BEGIN ATOM
M  V30 1 C 11.687757 7.371990 -13.207519 0
M  V30 2 C 11.193632 7.583580 -11.768975 0
M  V30 3 C 9.668840 7.372474 -11.568042 0 CFG=2
M  V30 4 C 8.846494 8.580585 -12.038436 0
M  V30 5 N 9.286208 7.042068 -10.159809 0 CFG=1 CHG=1
M  V30 6 C 9.129285 5.584493 -9.929174 0
M  V30 7 C 8.535412 5.329082 -8.543126 0
M  V30 8 C 9.396747 5.950522 -7.449844 0
M  V30 9 C 9.612484 7.458847 -7.665215 0 CFG=1
M  V30 10 C 10.544787 8.081836 -6.606615 0
M  V30 11 C 11.085228 9.371396 -6.808318 0
M  V30 12 C 11.906595 9.984199 -5.846490 0
M  V30 13 C 12.218478 9.308846 -4.655519 0
M  V30 14 C 11.717914 8.012429 -4.440484 0
M  V30 15 C 12.085885 7.294793 -3.231006 0
M  V30 16 N 12.378305 6.725421 -2.268443 0
M  V30 17 C 10.887570 7.404325 -5.408155 0
M  V30 18 C 10.118660 7.702131 -9.109045 0
M  V30 19 H 12.774834 7.447227 -13.258743 0
M  V30 20 H 11.414757 6.386000 -13.583613 0
M  V30 21 H 11.286506 8.121494 -13.887127 0
M  V30 22 H 11.490697 8.571988 -11.419560 0
M  V30 23 H 11.760054 6.897375 -11.153399 0
M  V30 24 H 9.371462 6.536656 -12.204633 0
M  V30 25 H 9.193430 8.973969 -12.992500 0
M  V30 26 H 7.797268 8.313878 -12.159169 0
M  V30 27 H 8.885863 9.389508 -11.312995 0
M  V30 28 H 10.086378 5.078754 -10.031621 0
M  V30 29 H 8.458542 5.159749 -10.677386 0
M  V30 30 H 8.411527 4.258888 -8.370727 0
M  V30 31 H 7.548687 5.772160 -8.490710 0
M  V30 32 H 10.356232 5.433128 -7.428093 0
M  V30 33 H 8.893546 5.792005 -6.498453 0
M  V30 34 H 8.644700 7.954151 -7.557011 0
M  V30 35 H 10.885972 9.911551 -7.716438 0
M  V30 36 H 12.309349 10.968684 -6.031335 0
M  V30 37 H 12.866245 9.771609 -3.924135 0
M  V30 38 H 10.515693 6.411849 -5.198419 0
M  V30 39 H 10.134626 8.768571 -9.332809 0
M  V30 40 H 11.145013 7.340214 -9.153233 0
M  V30 41 H 8.337419 7.399302 -10.054505 0
M  V30 END ATOM
M  V30 BEGIN BOND
M  V30 1 1 2 1
M  V30 2 1 3 2
M  V30 3 1 4 3
M  V30 4 1 5 3
M  V30 5 1 6 5
M  V30 6 1 7 6
M  V30 7 1 8 7
M  V30 8 1 9 8
M  V30 9 1 10 9
M  V30 10 2 11 10
M  V30 11 1 12 11
M  V30 12 2 13 12
M  V30 13 1 14 13
M  V30 14 1 15 14
M  V30 15 3 16 15
M  V30 16 1 17 10
M  V30 17 2 17 14
M  V30 18 1 18 5
M  V30 19 1 18 9
M  V30 20 1 19 1
M  V30 21 1 20 1
M  V30 22 1 21 1
M  V30 23 1 22 2
M  V30 24 1 23 2
M  V30 25 1 3 24 CFG=3
M  V30 26 1 25 4
M  V30 27 1 26 4
M  V30 28 1 27 4
M  V30 29 1 28 6
M  V30 30 1 29 6
M  V30 31 1 30 7
M  V30 32 1 31 7
M  V30 33 1 32 8
M  V30 34 1 33 8
M  V30 35 1 9 34 CFG=3
M  V30 36 1 35 11
M  V30 37 1 36 12
M  V30 38 1 37 13
M  V30 39 1 38 17
M  V30 40 1 39 18
M  V30 41 1 40 18
M  V30 42 1 5 41 CFG=1
M  V30 END BOND
M  V30 END CTAB
M  END
>  <b_m_subgroup_collapsed>  (1468) 
0

>  <r_i_docking_score>  (1468) 
-7.0928528292338697

>  <s_m_subgroup_title>  (1468) 
glide-dock_SP_D22_pv

>  <s_m_subgroupid>  (1468) 
glide-dock_SP_D22_pv

>  <Molecule ChEMBL ID>  (1468) 
CHEMBL413483

>  <Standard Type>  (1468) 
Ki

>  <Standard Value>  (1468) 
98.0

>  <label>  (1468) 
1

$$$$
CHEMBL2432050
     RDKit          3D

  0  0  0  0  0  0  0  0  0  0999 V3000
M  V30 BEGIN CTAB
M  V30 COUNTS 47 52 0 0 1
M  V30 BEGIN ATOM
M  V30 1 F 10.920155 0.870519 -16.389381 0
M  V30 2 C 10.886413 2.115262 -15.857692 0
M  V30 3 C 11.477449 3.193825 -16.541813 0
M  V30 4 C 11.437264 4.486516 -15.983611 0
M  V30 5 C 10.811204 4.703351 -14.739572 0
M  V30 6 C 10.223873 3.621538 -14.041000 0
M  V30 7 C 9.550653 3.781406 -12.682364 0
M  V30 8 C 9.472426 5.211637 -12.117237 0
M  V30 9 C 8.919256 5.236454 -10.683358 0
M  V30 10 N 8.886000 6.616107 -10.153560 0 CHG=1
M  V30 11 C 9.182885 6.755089 -8.717875 0 CFG=1
M  V30 12 C 10.706334 6.612235 -8.416499 0 CFG=2
M  V30 13 C 11.058386 6.861515 -6.886755 0 CFG=2
M  V30 14 C 9.795710 7.163435 -6.064394 0
M  V30 15 C 9.284396 8.403290 -6.777085 0 CFG=1
M  V30 16 C 10.542900 9.159098 -7.189467 0 CFG=1
M  V30 17 C 11.737152 8.262144 -6.921648 0 CFG=2
M  V30 18 C 12.521916 8.213906 -8.223993 0
M  V30 19 C 11.302927 7.886111 -9.070852 0 CFG=2
M  V30 20 C 10.253447 8.909619 -8.655627 0 CFG=1
M  V30 21 C 8.971411 8.187795 -8.270857 0 CFG=1
M  V30 22 C 10.266199 2.332056 -14.613587 0
M  V30 23 H 11.959186 3.028892 -17.493736 0
M  V30 24 H 11.891367 5.313252 -16.510469 0
M  V30 25 H 10.796692 5.706095 -14.338467 0
M  V30 26 H 8.543129 3.372902 -12.759403 0
M  V30 27 H 10.085439 3.143525 -11.979066 0
M  V30 28 H 10.469645 5.653400 -12.108347 0
M  V30 29 H 8.854162 5.829978 -12.769677 0
M  V30 30 H 7.910983 4.819066 -10.642012 0
M  V30 31 H 9.542478 4.601096 -10.052414 0
M  V30 32 H 9.518069 7.206891 -10.669393 0
M  V30 33 H 8.560904 6.051148 -8.163194 0
M  V30 34 H 11.124457 5.687868 -8.786620 0
M  V30 35 H 11.691152 6.082534 -6.459645 0
M  V30 36 H 9.078491 6.343050 -6.033089 0
M  V30 37 H 10.086141 7.391508 -5.046694 0
M  V30 38 H 8.524367 8.972320 -6.248288 0
M  V30 39 H 10.612099 10.197240 -6.880126 0
M  V30 40 H 12.285339 8.572394 -6.030335 0
M  V30 41 H 12.975571 9.168683 -8.481530 0
M  V30 42 H 13.283190 7.434325 -8.247461 0
M  V30 43 H 11.479734 7.821263 -10.144553 0
M  V30 44 H 10.135864 9.773850 -9.298620 0
M  V30 45 H 8.087981 8.718655 -8.606845 0
M  V30 46 H 9.825015 1.496577 -14.089972 0
M  V30 47 H 7.936350 6.988608 -10.258432 0
M  V30 END ATOM
M  V30 BEGIN BOND
M  V30 1 1 2 1
M  V30 2 1 3 2
M  V30 3 2 4 3
M  V30 4 1 5 4
M  V30 5 2 6 5
M  V30 6 1 7 6
M  V30 7 1 8 7
M  V30 8 1 9 8
M  V30 9 1 10 9
M  V30 10 1 11 10
M  V30 11 1 12 11
M  V30 12 1 13 12
M  V30 13 1 14 13
M  V30 14 1 15 14
M  V30 15 1 16 15
M  V30 16 1 17 13
M  V30 17 1 17 16
M  V30 18 1 18 17
M  V30 19 1 19 12
M  V30 20 1 19 18
M  V30 21 1 20 16
M  V30 22 1 20 19
M  V30 23 1 21 11
M  V30 24 1 21 15
M  V30 25 1 21 20
M  V30 26 2 22 2
M  V30 27 1 22 6
M  V30 28 1 23 3
M  V30 29 1 24 4
M  V30 30 1 25 5
M  V30 31 1 26 7
M  V30 32 1 27 7
M  V30 33 1 28 8
M  V30 34 1 29 8
M  V30 35 1 30 9
M  V30 36 1 31 9
M  V30 37 1 32 10
M  V30 38 1 11 33 CFG=1
M  V30 39 1 12 34 CFG=3
M  V30 40 1 13 35 CFG=1
M  V30 41 1 36 14
M  V30 42 1 37 14
M  V30 43 1 15 38 CFG=1
M  V30 44 1 16 39 CFG=3
M  V30 45 1 17 40 CFG=1
M  V30 46 1 41 18
M  V30 47 1 42 18
M  V30 48 1 19 43 CFG=3
M  V30 49 1 20 44 CFG=3
M  V30 50 1 21 45 CFG=3
M  V30 51 1 46 22
M  V30 52 1 47 10
M  V30 END BOND
M  V30 END CTAB
M  END
>  <b_m_subgroup_collapsed>  (1469) 
0

>  <r_i_docking_score>  (1469) 
-7.0915560246301101

>  <s_m_subgroup_title>  (1469) 
glide-dock_SP_D22_pv

>  <s_m_subgroupid>  (1469) 
glide-dock_SP_D22_pv

>  <Molecule ChEMBL ID>  (1469) 
CHEMBL2432050

>  <Standard Type>  (1469) 
Ki

>  <Standard Value>  (1469) 
10000.0

>  <label>  (1469) 
0

$$$$
CHEMBL316125
     RDKit          3D

  0  0  0  0  0  0  0  0  0  0999 V3000
M  V30 BEGIN CTAB
M  V30 COUNTS 58 61 0 0 1
M  V30 BEGIN ATOM
M  V30 1 C 10.887441 7.031555 -12.646882 0
M  V30 2 C 9.897558 6.325744 -11.751842 0
M  V30 3 C 9.233274 5.188232 -11.963537 0
M  V30 4 C 9.265801 4.257040 -13.099675 0
M  V30 5 C 10.486023 3.884545 -13.701797 0
M  V30 6 C 10.495020 2.964056 -14.768021 0
M  V30 7 C 9.284403 2.419659 -15.238464 0
M  V30 8 C 8.064096 2.800405 -14.646695 0
M  V30 9 C 8.053025 3.724545 -13.583470 0
M  V30 10 N 8.641746 4.880113 -10.764084 0
M  V30 11 C 8.986091 5.766256 -9.828099 0
M  V30 12 O 8.746702 5.635153 -8.634306 0
M  V30 13 N 9.649167 6.768806 -10.453133 0
M  V30 14 C 9.963508 8.150563 -10.002666 0 CFG=1
M  V30 15 C 9.150916 8.707070 -8.820822 0
M  V30 16 C 9.545858 8.238956 -7.412954 0
M  V30 17 N 11.010168 8.051826 -7.214617 0 CFG=1 CHG=1
M  V30 18 C 11.286206 7.105147 -6.114402 0
M  V30 19 C 11.308337 7.792826 -4.753446 0
M  V30 20 C 11.794399 6.792368 -3.684129 0
M  V30 21 C 11.761862 7.311682 -2.246906 0
M  V30 22 C 12.441775 8.675878 -2.124366 0
M  V30 23 C 11.935249 9.652531 -3.187857 0
M  V30 24 C 12.101128 9.110000 -4.618906 0
M  V30 25 C 11.799865 7.662248 -8.404090 0
M  V30 26 C 11.434110 8.402859 -9.675435 0
M  V30 27 H 10.892294 6.594408 -13.644865 0
M  V30 28 H 10.618887 8.081356 -12.748116 0
M  V30 29 H 11.903487 6.941159 -12.267435 0
M  V30 30 H 11.421251 4.281163 -13.335750 0
M  V30 31 H 11.431605 2.670418 -15.220296 0
M  V30 32 H 9.292044 1.709247 -16.051920 0
M  V30 33 H 7.135265 2.383698 -15.009081 0
M  V30 34 H 7.113540 4.009185 -13.130515 0
M  V30 35 H 8.131782 4.025101 -10.602016 0
M  V30 36 H 9.700621 8.791158 -10.844712 0
M  V30 37 H 9.299083 9.772337 -8.836636 0
M  V30 38 H 8.085974 8.588919 -8.970582 0
M  V30 39 H 8.978359 7.358675 -7.131839 0
M  V30 40 H 9.203650 8.973494 -6.686358 0
M  V30 41 H 10.543154 6.304967 -6.107236 0
M  V30 42 H 12.203698 6.558579 -6.285931 0
M  V30 43 H 10.271418 8.061333 -4.646848 0
M  V30 44 H 11.250848 5.850268 -3.754238 0
M  V30 45 H 12.839985 6.572458 -3.885059 0
M  V30 46 H 10.747827 7.359147 -1.849642 0
M  V30 47 H 12.294399 6.596157 -1.621997 0
M  V30 48 H 12.269735 9.087960 -1.128955 0
M  V30 49 H 13.519749 8.572176 -2.223345 0
M  V30 50 H 10.885911 9.891084 -3.015324 0
M  V30 51 H 12.485576 10.572430 -3.046758 0
M  V30 52 H 13.160007 8.971901 -4.839787 0
M  V30 53 H 11.736352 9.859282 -5.322295 0
M  V30 54 H 11.668942 6.595408 -8.571457 0
M  V30 55 H 12.859360 7.816565 -8.194652 0
M  V30 56 H 12.097092 8.098873 -10.479983 0
M  V30 57 H 11.611513 9.471357 -9.543984 0
M  V30 58 H 11.376846 8.951874 -6.942681 0
M  V30 END ATOM
M  V30 BEGIN BOND
M  V30 1 1 2 1
M  V30 2 2 3 2
M  V30 3 1 4 3
M  V30 4 2 5 4
M  V30 5 1 6 5
M  V30 6 2 7 6
M  V30 7 1 8 7
M  V30 8 1 9 4
M  V30 9 2 9 8
M  V30 10 1 10 3
M  V30 11 1 11 10
M  V30 12 2 12 11
M  V30 13 1 13 2
M  V30 14 1 13 11
M  V30 15 1 14 13
M  V30 16 1 15 14
M  V30 17 1 16 15
M  V30 18 1 17 16
M  V30 19 1 18 17
M  V30 20 1 19 18
M  V30 21 1 20 19
M  V30 22 1 21 20
M  V30 23 1 22 21
M  V30 24 1 23 22
M  V30 25 1 24 19
M  V30 26 1 24 23
M  V30 27 1 25 17
M  V30 28 1 26 14
M  V30 29 1 26 25
M  V30 30 1 27 1
M  V30 31 1 28 1
M  V30 32 1 29 1
M  V30 33 1 30 5
M  V30 34 1 31 6
M  V30 35 1 32 7
M  V30 36 1 33 8
M  V30 37 1 34 9
M  V30 38 1 35 10
M  V30 39 1 14 36 CFG=3
M  V30 40 1 37 15
M  V30 41 1 38 15
M  V30 42 1 39 16
M  V30 43 1 40 16
M  V30 44 1 41 18
M  V30 45 1 42 18
M  V30 46 1 43 19
M  V30 47 1 44 20
M  V30 48 1 45 20
M  V30 49 1 46 21
M  V30 50 1 47 21
M  V30 51 1 48 22
M  V30 52 1 49 22
M  V30 53 1 50 23
M  V30 54 1 51 23
M  V30 55 1 52 24
M  V30 56 1 53 24
M  V30 57 1 54 25
M  V30 58 1 55 25
M  V30 59 1 56 26
M  V30 60 1 57 26
M  V30 61 1 17 58 CFG=1
M  V30 END BOND
M  V30 END CTAB
M  END
>  <b_m_subgroup_collapsed>  (1470) 
0

>  <r_i_docking_score>  (1470) 
-7.0913823546250301

>  <s_m_subgroup_title>  (1470) 
glide-dock_SP_D22_pv

>  <s_m_subgroupid>  (1470) 
glide-dock_SP_D22_pv

>  <Molecule ChEMBL ID>  (1470) 
CHEMBL316125

>  <Standard Type>  (1470) 
Ki

>  <Standard Value>  (1470) 
83.0

>  <label>  (1470) 
1

$$$$
CHEMBL5722945
     RDKit          3D

  0  0  0  0  0  0  0  0  0  0999 V3000
M  V30 BEGIN CTAB
M  V30 COUNTS 51 53 0 0 1
M  V30 BEGIN ATOM
M  V30 1 C 10.883700 1.671189 -15.108447 0
M  V30 2 C 10.023263 2.892020 -15.450008 0
M  V30 3 N 10.501135 4.093838 -14.785641 0
M  V30 4 N 11.408113 4.855610 -15.423411 0
M  V30 5 C 11.642108 5.859569 -14.599875 0
M  V30 6 C 12.614932 6.925838 -15.015374 0
M  V30 7 C 10.889278 5.772308 -13.389851 0
M  V30 8 C 10.988958 6.799295 -12.272955 0
M  V30 9 C 10.175465 6.522662 -10.999973 0
M  V30 10 N 10.611635 7.423304 -9.943872 0
M  V30 11 C 9.878519 7.133145 -8.721744 0
M  V30 12 C 10.495999 7.827806 -7.520563 0
M  V30 13 C 10.783173 9.145345 -7.470940 0
M  V30 14 C 11.356665 9.771904 -6.253612 0
M  V30 15 O 11.675767 10.966567 -6.233685 0
M  V30 16 C 11.543155 8.854010 -5.086095 0
M  V30 17 C 11.970166 9.315848 -3.820518 0
M  V30 18 C 12.230841 8.402725 -2.775236 0
M  V30 19 C 12.735872 8.887057 -1.439298 0
M  V30 20 C 12.035508 7.025489 -2.975061 0
M  V30 21 C 11.542891 6.573046 -4.206734 0
M  V30 22 C 11.286035 7.471564 -5.251474 0
M  V30 23 N 10.769993 6.992437 -6.455397 0
M  V30 24 C 10.172300 4.604454 -13.539300 0
M  V30 25 C 9.212439 3.869012 -12.654598 0
M  V30 26 H 10.496983 0.772973 -15.589224 0
M  V30 27 H 11.907154 1.817218 -15.451885 0
M  V30 28 H 10.908919 1.490743 -14.033861 0
M  V30 29 H 8.983312 2.712417 -15.176197 0
M  V30 30 H 10.030357 3.058550 -16.529016 0
M  V30 31 H 12.325981 7.900020 -14.620877 0
M  V30 32 H 13.618129 6.706451 -14.648834 0
M  V30 33 H 12.670757 7.018281 -16.100416 0
M  V30 34 H 10.678804 7.772967 -12.646868 0
M  V30 35 H 12.037200 6.934061 -12.001383 0
M  V30 36 H 10.341126 5.501482 -10.657209 0
M  V30 37 H 9.108350 6.647300 -11.188985 0
M  V30 38 H 10.434342 8.379663 -10.218273 0
M  V30 39 H 9.864390 6.056519 -8.540888 0
M  V30 40 H 8.839816 7.451598 -8.830809 0
M  V30 41 H 10.588285 9.772285 -8.325513 0
M  V30 42 H 12.085783 10.370139 -3.635711 0
M  V30 43 H 13.818651 8.972452 -1.463950 0
M  V30 44 H 12.307123 9.851293 -1.180223 0
M  V30 45 H 12.486997 8.181750 -0.648805 0
M  V30 46 H 12.230212 6.314969 -2.185190 0
M  V30 47 H 11.348209 5.526643 -4.348416 0
M  V30 48 H 10.552114 6.007707 -6.528552 0
M  V30 49 H 8.850409 4.470920 -11.825530 0
M  V30 50 H 8.326208 3.557572 -13.207126 0
M  V30 51 H 9.685992 2.974105 -12.246901 0
M  V30 END ATOM
M  V30 BEGIN BOND
M  V30 1 1 2 1
M  V30 2 1 3 2
M  V30 3 1 4 3
M  V30 4 2 5 4
M  V30 5 1 6 5
M  V30 6 1 7 5
M  V30 7 1 8 7
M  V30 8 1 9 8
M  V30 9 1 10 9
M  V30 10 1 11 10
M  V30 11 1 12 11
M  V30 12 2 13 12
M  V30 13 1 14 13
M  V30 14 2 15 14
M  V30 15 1 16 14
M  V30 16 2 17 16
M  V30 17 1 18 17
M  V30 18 1 19 18
M  V30 19 2 20 18
M  V30 20 1 21 20
M  V30 21 1 22 16
M  V30 22 2 22 21
M  V30 23 1 23 12
M  V30 24 1 23 22
M  V30 25 1 24 3
M  V30 26 2 24 7
M  V30 27 1 25 24
M  V30 28 1 26 1
M  V30 29 1 27 1
M  V30 30 1 28 1
M  V30 31 1 29 2
M  V30 32 1 30 2
M  V30 33 1 31 6
M  V30 34 1 32 6
M  V30 35 1 33 6
M  V30 36 1 34 8
M  V30 37 1 35 8
M  V30 38 1 36 9
M  V30 39 1 37 9
M  V30 40 1 38 10
M  V30 41 1 39 11
M  V30 42 1 40 11
M  V30 43 1 41 13
M  V30 44 1 42 17
M  V30 45 1 43 19
M  V30 46 1 44 19
M  V30 47 1 45 19
M  V30 48 1 46 20
M  V30 49 1 47 21
M  V30 50 1 48 23
M  V30 51 1 49 25
M  V30 52 1 50 25
M  V30 53 1 51 25
M  V30 END BOND
M  V30 END CTAB
M  END
>  <b_m_subgroup_collapsed>  (1471) 
0

>  <r_i_docking_score>  (1471) 
-7.08816677432515

>  <s_m_subgroup_title>  (1471) 
glide-dock_SP_D22_pv

>  <s_m_subgroupid>  (1471) 
glide-dock_SP_D22_pv

>  <Molecule ChEMBL ID>  (1471) 
CHEMBL5722945

>  <Standard Type>  (1471) 
Ki

>  <Standard Value>  (1471) 
10000.0

>  <label>  (1471) 
0

$$$$
CHEMBL553666
     RDKit          3D

  0  0  0  0  0  0  0  0  0  0999 V3000
M  V30 BEGIN CTAB
M  V30 COUNTS 37 39 0 0 1
M  V30 BEGIN ATOM
M  V30 1 C 9.685757 4.678270 -12.181180 0
M  V30 2 C 9.885942 5.882699 -12.217811 0
M  V30 3 C 10.153086 7.338268 -12.246796 0
M  V30 4 N 10.462142 7.968622 -10.961841 0
M  V30 5 C 9.285697 7.969159 -10.090212 0
M  V30 6 C 9.549237 8.731799 -8.787205 0
M  V30 7 C 10.804368 8.202836 -8.087400 0
M  V30 8 C 11.987838 8.209569 -9.063802 0
M  V30 9 C 11.617540 7.376583 -10.294509 0
M  V30 10 O 10.580845 6.856966 -7.678813 0
M  V30 11 C 10.885709 6.769043 -6.356362 0
M  V30 12 C 11.222409 7.908186 -5.747283 0
M  V30 13 C 11.686000 8.036622 -4.361020 0
M  V30 14 C 11.686060 9.288070 -3.712449 0
M  V30 15 C 12.086064 9.372411 -2.372844 0
M  V30 16 C 12.486123 8.222919 -1.677848 0
M  V30 17 C 12.481220 6.972046 -2.314688 0
M  V30 18 C 12.082958 6.880810 -3.654429 0
M  V30 19 C 11.132190 8.918675 -6.780348 0
M  V30 20 O 11.286129 10.134082 -6.658682 0
M  V30 21 H 9.518673 3.624745 -12.136811 0
M  V30 22 H 10.971543 7.512953 -12.945601 0
M  V30 23 H 9.265849 7.827015 -12.646856 0
M  V30 24 H 8.486006 8.468449 -10.628536 0
M  V30 25 H 8.952726 6.954394 -9.867407 0
M  V30 26 H 9.690821 9.772317 -9.044258 0
M  V30 27 H 8.677587 8.676329 -8.133029 0
M  V30 28 H 12.225849 9.229608 -9.366517 0
M  V30 29 H 12.882056 7.800675 -8.591688 0
M  V30 30 H 11.347394 6.373072 -9.967776 0
M  V30 31 H 12.462509 7.315877 -10.981060 0
M  V30 32 H 10.850309 5.772346 -5.954962 0
M  V30 33 H 11.364804 10.188114 -4.212685 0
M  V30 34 H 12.086056 10.325795 -1.874968 0
M  V30 35 H 12.807664 8.299397 -0.651872 0
M  V30 36 H 12.784523 6.082816 -1.781305 0
M  V30 37 H 12.085576 5.908762 -4.123801 0
M  V30 END ATOM
M  V30 BEGIN BOND
M  V30 1 3 2 1
M  V30 2 1 3 2
M  V30 3 1 4 3
M  V30 4 1 5 4
M  V30 5 1 6 5
M  V30 6 1 7 6
M  V30 7 1 8 7
M  V30 8 1 9 4
M  V30 9 1 9 8
M  V30 10 1 10 7
M  V30 11 1 11 10
M  V30 12 2 12 11
M  V30 13 1 13 12
M  V30 14 2 14 13
M  V30 15 1 15 14
M  V30 16 2 16 15
M  V30 17 1 17 16
M  V30 18 1 18 13
M  V30 19 2 18 17
M  V30 20 1 19 7
M  V30 21 1 19 12
M  V30 22 2 20 19
M  V30 23 1 21 1
M  V30 24 1 22 3
M  V30 25 1 23 3
M  V30 26 1 24 5
M  V30 27 1 25 5
M  V30 28 1 26 6
M  V30 29 1 27 6
M  V30 30 1 28 8
M  V30 31 1 29 8
M  V30 32 1 30 9
M  V30 33 1 31 9
M  V30 34 1 32 11
M  V30 35 1 33 14
M  V30 36 1 34 15
M  V30 37 1 35 16
M  V30 38 1 36 17
M  V30 39 1 37 18
M  V30 END BOND
M  V30 END CTAB
M  END
>  <b_m_subgroup_collapsed>  (1472) 
0

>  <r_i_docking_score>  (1472) 
-7.0857520975311097

>  <s_m_subgroup_title>  (1472) 
glide-dock_SP_D22_pv

>  <s_m_subgroupid>  (1472) 
glide-dock_SP_D22_pv

>  <Molecule ChEMBL ID>  (1472) 
CHEMBL553666

>  <Standard Type>  (1472) 
Ki

>  <Standard Value>  (1472) 
24000.0

>  <label>  (1472) 
0

$$$$
CHEMBL252539
     RDKit          3D

  0  0  0  0  0  0  0  0  0  0999 V3000
M  V30 BEGIN CTAB
M  V30 COUNTS 65 68 0 0 1
M  V30 BEGIN ATOM
M  V30 1 C 8.486153 3.917820 -8.577621 0
M  V30 2 C 9.502264 5.018034 -8.856687 0
M  V30 3 C 8.821172 6.392966 -8.725788 0
M  V30 4 N 9.711883 7.572186 -8.861302 0 CFG=2 CHG=1
M  V30 5 C 10.462496 7.659068 -10.150173 0
M  V30 6 C 9.546941 7.641089 -11.410695 0
M  V30 7 N 9.258551 6.274795 -11.846323 0
M  V30 8 C 10.318623 5.715072 -12.683377 0
M  V30 9 C 10.085952 4.196577 -12.794203 0
M  V30 10 N 8.791454 3.938488 -13.414684 0
M  V30 11 C 8.715548 3.310683 -14.674644 0
M  V30 12 C 9.685561 3.624874 -15.657571 0
M  V30 13 C 9.665895 3.009040 -16.921331 0
M  V30 14 C 8.670185 2.066488 -17.225246 0
M  V30 15 C 7.693024 1.740903 -16.267141 0
M  V30 16 Cl 6.488111 0.572280 -16.682335 0
M  V30 17 C 7.704973 2.357757 -14.993265 0
M  V30 18 Cl 6.485704 1.908392 -13.846907 0
M  V30 19 C 7.659811 4.664247 -12.836090 0
M  V30 20 C 8.001564 6.155540 -12.591288 0
M  V30 21 C 10.477008 7.983899 -7.630630 0 CFG=1
M  V30 22 C 9.726871 9.065984 -6.862223 0
M  V30 23 C 10.645061 9.730487 -5.799063 0
M  V30 24 C 11.247789 8.700632 -4.851962 0
M  V30 25 C 11.686724 9.026228 -3.540102 0
M  V30 26 O 11.686000 10.292686 -3.080367 0
M  V30 27 C 12.111416 8.040153 -2.636099 0
M  V30 28 C 12.094061 6.701006 -3.026984 0
M  V30 29 C 11.686600 6.386565 -4.328651 0
M  V30 30 C 11.286147 7.351571 -5.254648 0
M  V30 31 C 10.854190 6.867636 -6.631383 0
M  V30 32 H 8.954680 2.977083 -8.283128 0
M  V30 33 H 7.818665 4.213214 -7.777115 0
M  V30 34 H 7.844878 3.772374 -9.446422 0
M  V30 35 H 9.929123 4.862371 -9.841937 0
M  V30 36 H 10.345039 4.921136 -8.189227 0
M  V30 37 H 8.266471 6.475336 -7.790300 0
M  V30 38 H 8.068170 6.456264 -9.500440 0
M  V30 39 H 10.988835 8.614586 -10.157724 0
M  V30 40 H 11.237465 6.894089 -10.190299 0
M  V30 41 H 8.620293 8.173238 -11.188064 0
M  V30 42 H 10.014687 8.179852 -12.235587 0
M  V30 43 H 10.323207 6.172241 -13.672474 0
M  V30 44 H 11.286082 5.933925 -12.247148 0
M  V30 45 H 10.896894 3.722393 -13.346274 0
M  V30 46 H 10.085911 3.735554 -11.806355 0
M  V30 47 H 10.456095 4.354397 -15.455411 0
M  V30 48 H 10.415004 3.262637 -17.657658 0
M  V30 49 H 8.657943 1.588403 -18.193823 0
M  V30 50 H 6.787770 4.603977 -13.487527 0
M  V30 51 H 7.385945 4.188108 -11.893812 0
M  V30 52 H 7.190426 6.616275 -12.027496 0
M  V30 53 H 8.083323 6.689424 -13.536582 0
M  V30 54 H 11.410913 8.441381 -7.960416 0
M  V30 55 H 8.849814 8.633736 -6.375453 0
M  V30 56 H 9.341568 9.772362 -7.584362 0
M  V30 57 H 10.086148 10.460496 -5.214181 0
M  V30 58 H 11.458407 10.274601 -6.280477 0
M  V30 59 H 12.205630 10.421275 -2.298320 0
M  V30 60 H 12.426770 8.303788 -1.637027 0
M  V30 61 H 12.403402 5.923036 -2.343711 0
M  V30 62 H 11.715940 5.372472 -4.647797 0
M  V30 63 H 11.655509 6.252746 -7.043092 0
M  V30 64 H 10.006792 6.217800 -6.420071 0
M  V30 65 H 9.035611 8.317395 -8.962965 0
M  V30 END ATOM
M  V30 BEGIN BOND
M  V30 1 1 2 1
M  V30 2 1 3 2
M  V30 3 1 4 3
M  V30 4 1 5 4
M  V30 5 1 6 5
M  V30 6 1 7 6
M  V30 7 1 8 7
M  V30 8 1 9 8
M  V30 9 1 10 9
M  V30 10 1 11 10
M  V30 11 2 12 11
M  V30 12 1 13 12
M  V30 13 2 14 13
M  V30 14 1 15 14
M  V30 15 1 16 15
M  V30 16 1 17 11
M  V30 17 2 17 15
M  V30 18 1 18 17
M  V30 19 1 19 10
M  V30 20 1 20 7
M  V30 21 1 20 19
M  V30 22 1 21 4
M  V30 23 1 22 21
M  V30 24 1 23 22
M  V30 25 1 24 23
M  V30 26 2 25 24
M  V30 27 1 26 25
M  V30 28 1 27 25
M  V30 29 2 28 27
M  V30 30 1 29 28
M  V30 31 1 30 24
M  V30 32 2 30 29
M  V30 33 1 31 21
M  V30 34 1 31 30
M  V30 35 1 32 1
M  V30 36 1 33 1
M  V30 37 1 34 1
M  V30 38 1 35 2
M  V30 39 1 36 2
M  V30 40 1 37 3
M  V30 41 1 38 3
M  V30 42 1 39 5
M  V30 43 1 40 5
M  V30 44 1 41 6
M  V30 45 1 42 6
M  V30 46 1 43 8
M  V30 47 1 44 8
M  V30 48 1 45 9
M  V30 49 1 46 9
M  V30 50 1 47 12
M  V30 51 1 48 13
M  V30 52 1 49 14
M  V30 53 1 50 19
M  V30 54 1 51 19
M  V30 55 1 52 20
M  V30 56 1 53 20
M  V30 57 1 21 54 CFG=3
M  V30 58 1 55 22
M  V30 59 1 56 22
M  V30 60 1 57 23
M  V30 61 1 58 23
M  V30 62 1 59 26
M  V30 63 1 60 27
M  V30 64 1 61 28
M  V30 65 1 62 29
M  V30 66 1 63 31
M  V30 67 1 64 31
M  V30 68 1 4 65 CFG=3
M  V30 END BOND
M  V30 END CTAB
M  END
>  <b_m_subgroup_collapsed>  (1473) 
0

>  <r_i_docking_score>  (1473) 
-7.0833982744946598

>  <s_m_subgroup_title>  (1473) 
glide-dock_SP_D22_pv

>  <s_m_subgroupid>  (1473) 
glide-dock_SP_D22_pv

>  <Molecule ChEMBL ID>  (1473) 
CHEMBL252539

>  <Standard Type>  (1473) 
Ki

>  <Standard Value>  (1473) 
14.6

>  <label>  (1473) 
1

$$$$
CHEMBL3409250
     RDKit          3D

  0  0  0  0  0  0  0  0  0  0999 V3000
M  V30 BEGIN CTAB
M  V30 COUNTS 67 71 0 0 1
M  V30 BEGIN ATOM
M  V30 1 N 11.696287 9.579638 -6.630966 0
M  V30 2 C 11.384383 9.897643 -5.377795 0
M  V30 3 O 10.884767 10.970798 -5.083144 0
M  V30 4 C 11.743072 8.912687 -4.310798 0
M  V30 5 C 12.110862 9.401461 -3.038182 0
M  V30 6 C 12.485490 8.523237 -2.008703 0
M  V30 7 C 12.482943 7.139551 -2.246823 0
M  V30 8 C 12.086623 6.644984 -3.495718 0
M  V30 9 C 11.685459 7.513448 -4.523785 0
M  V30 10 O 11.244726 6.960395 -5.697511 0
M  V30 11 C 9.828562 6.971721 -5.800801 0
M  V30 12 C 9.370330 6.403145 -7.124150 0
M  V30 13 C 9.953900 7.170596 -8.303220 0
M  V30 14 N 9.288104 6.811208 -9.540395 0
M  V30 15 C 9.431266 5.391419 -9.880263 0
M  V30 16 C 8.708640 5.087457 -11.207921 0
M  V30 17 N 9.189605 5.951733 -12.283813 0
M  V30 18 C 10.171155 5.444427 -13.164338 0
M  V30 19 C 11.372828 6.161552 -13.395415 0
M  V30 20 C 12.369947 5.661167 -14.251597 0
M  V30 21 C 12.181642 4.434726 -14.905763 0
M  V30 22 C 10.985516 3.721276 -14.708374 0
M  V30 23 C 9.954084 4.211599 -13.848270 0
M  V30 24 C 8.865907 3.275368 -13.911037 0
M  V30 25 C 9.266075 2.250323 -14.723861 0
M  V30 26 N 10.533203 2.511731 -15.226403 0
M  V30 27 C 11.247771 1.632852 -16.140018 0
M  V30 28 C 10.454174 1.390473 -17.414227 0
M  V30 29 C 10.074697 2.484760 -18.222082 0
M  V30 30 C 9.322122 2.275647 -19.394079 0
M  V30 31 C 8.947762 0.969247 -19.768333 0
M  V30 32 C 9.330167 -0.126387 -18.969904 0
M  V30 33 C 10.084265 0.080642 -17.798328 0
M  V30 34 F 10.447879 -0.987305 -17.048496 0
M  V30 35 C 9.131239 7.365635 -11.908843 0
M  V30 36 C 9.875142 7.624438 -10.597216 0
M  V30 37 H 11.487505 10.224325 -7.377316 0
M  V30 38 H 12.105824 8.676877 -6.822632 0
M  V30 39 H 12.116395 10.464095 -2.841146 0
M  V30 40 H 12.779072 8.913816 -1.045873 0
M  V30 41 H 12.784037 6.449110 -1.472184 0
M  V30 42 H 12.074004 5.584431 -3.669814 0
M  V30 43 H 9.430265 7.979734 -5.715816 0
M  V30 44 H 9.407537 6.363989 -5.004450 0
M  V30 45 H 8.278418 6.411777 -7.162125 0
M  V30 46 H 9.688493 5.372727 -7.179299 0
M  V30 47 H 11.030107 6.996439 -8.377376 0
M  V30 48 H 9.805455 8.239221 -8.135731 0
M  V30 49 H 8.969180 4.771008 -9.113020 0
M  V30 50 H 10.484541 5.113939 -9.913033 0
M  V30 51 H 7.636140 5.245292 -11.086939 0
M  V30 52 H 8.842374 4.035013 -11.442516 0
M  V30 53 H 11.562017 7.100496 -12.900576 0
M  V30 54 H 13.282805 6.218899 -14.399583 0
M  V30 55 H 12.950891 4.053908 -15.561502 0
M  V30 56 H 7.921880 3.363059 -13.394763 0
M  V30 57 H 8.737499 1.349907 -15.002296 0
M  V30 58 H 11.447939 0.693696 -15.621558 0
M  V30 59 H 12.217115 2.062961 -16.397253 0
M  V30 60 H 10.353263 3.491035 -17.936138 0
M  V30 61 H 9.033735 3.118610 -20.005030 0
M  V30 62 H 8.369904 0.807180 -20.667351 0
M  V30 63 H 9.044649 -1.128957 -19.256063 0
M  V30 64 H 9.558330 8.029366 -12.646521 0
M  V30 65 H 8.083972 7.655036 -11.810471 0
M  V30 66 H 9.786520 8.682286 -10.343874 0
M  V30 67 H 10.938859 7.406990 -10.702538 0
M  V30 END ATOM
M  V30 BEGIN BOND
M  V30 1 1 2 1
M  V30 2 2 3 2
M  V30 3 1 4 2
M  V30 4 2 5 4
M  V30 5 1 6 5
M  V30 6 2 7 6
M  V30 7 1 8 7
M  V30 8 1 9 4
M  V30 9 2 9 8
M  V30 10 1 10 9
M  V30 11 1 11 10
M  V30 12 1 12 11
M  V30 13 1 13 12
M  V30 14 1 14 13
M  V30 15 1 15 14
M  V30 16 1 16 15
M  V30 17 1 17 16
M  V30 18 1 18 17
M  V30 19 1 19 18
M  V30 20 2 20 19
M  V30 21 1 21 20
M  V30 22 2 22 21
M  V30 23 2 23 18
M  V30 24 1 23 22
M  V30 25 1 24 23
M  V30 26 2 25 24
M  V30 27 1 26 22
M  V30 28 1 26 25
M  V30 29 1 27 26
M  V30 30 1 28 27
M  V30 31 2 29 28
M  V30 32 1 30 29
M  V30 33 2 31 30
M  V30 34 1 32 31
M  V30 35 1 33 28
M  V30 36 2 33 32
M  V30 37 1 34 33
M  V30 38 1 35 17
M  V30 39 1 36 14
M  V30 40 1 36 35
M  V30 41 1 37 1
M  V30 42 1 38 1
M  V30 43 1 39 5
M  V30 44 1 40 6
M  V30 45 1 41 7
M  V30 46 1 42 8
M  V30 47 1 43 11
M  V30 48 1 44 11
M  V30 49 1 45 12
M  V30 50 1 46 12
M  V30 51 1 47 13
M  V30 52 1 48 13
M  V30 53 1 49 15
M  V30 54 1 50 15
M  V30 55 1 51 16
M  V30 56 1 52 16
M  V30 57 1 53 19
M  V30 58 1 54 20
M  V30 59 1 55 21
M  V30 60 1 56 24
M  V30 61 1 57 25
M  V30 62 1 58 27
M  V30 63 1 59 27
M  V30 64 1 60 29
M  V30 65 1 61 30
M  V30 66 1 62 31
M  V30 67 1 63 32
M  V30 68 1 64 35
M  V30 69 1 65 35
M  V30 70 1 66 36
M  V30 71 1 67 36
M  V30 END BOND
M  V30 END CTAB
M  END
>  <b_m_subgroup_collapsed>  (1474) 
0

>  <r_i_docking_score>  (1474) 
-7.0833035118135204

>  <s_m_subgroup_title>  (1474) 
glide-dock_SP_D22_pv

>  <s_m_subgroupid>  (1474) 
glide-dock_SP_D22_pv

>  <Molecule ChEMBL ID>  (1474) 
CHEMBL3409250

>  <Standard Type>  (1474) 
Ki

>  <Standard Value>  (1474) 
21.0

>  <label>  (1474) 
1

$$$$
CHEMBL5781514
     RDKit          3D

  0  0  0  0  0  0  0  0  0  0999 V3000
M  V30 BEGIN CTAB
M  V30 COUNTS 45 47 0 0 1
M  V30 BEGIN ATOM
M  V30 1 C 12.057486 7.900054 -8.936137 0
M  V30 2 C 10.523574 8.062899 -8.817564 0 CFG=1
M  V30 3 O 10.190560 8.903956 -7.703697 0
M  V30 4 C 10.689569 8.653299 -6.439397 0
M  V30 5 C 10.886024 9.772325 -5.602614 0
M  V30 6 C 11.422502 9.624685 -4.309257 0
M  V30 7 C 11.775126 8.348422 -3.836082 0
M  V30 8 Cl 12.456489 8.172327 -2.260853 0
M  V30 9 C 11.557354 7.218073 -4.646865 0
M  V30 10 C 11.007534 7.366650 -5.936402 0
M  V30 11 C 10.032825 8.808324 -10.066367 0
M  V30 12 C 9.488586 7.735624 -10.992931 0
M  V30 13 N 8.886023 6.750586 -10.083754 0 CFG=1 CHG=1
M  V30 14 C 8.584604 5.435804 -10.702409 0
M  V30 15 C 7.378389 5.548742 -11.668014 0
M  V30 16 N 7.128260 4.348283 -12.473985 0
M  V30 17 C 5.926264 3.647238 -12.246865 0
M  V30 18 C 5.582604 2.573917 -12.976279 0
M  V30 19 C 6.486023 2.135563 -14.013169 0
M  V30 20 C 7.630080 2.809562 -14.246865 0
M  V30 21 C 7.993483 4.002363 -13.474544 0
M  V30 22 O 9.009153 4.656081 -13.716037 0
M  V30 23 C 9.718887 6.731929 -8.856011 0
M  V30 24 H 12.331935 7.368676 -9.846864 0
M  V30 25 H 12.545451 8.874863 -8.976711 0
M  V30 26 H 12.497223 7.372324 -8.095095 0
M  V30 27 H 10.637254 10.759306 -5.963064 0
M  V30 28 H 11.569008 10.490228 -3.679612 0
M  V30 29 H 11.808175 6.233065 -4.280025 0
M  V30 30 H 10.857017 6.476237 -6.524915 0
M  V30 31 H 9.227611 9.498494 -9.809378 0
M  V30 32 H 10.826430 9.372324 -10.551429 0
M  V30 33 H 8.766059 8.144133 -11.700040 0
M  V30 34 H 10.301693 7.277177 -11.558462 0
M  V30 35 H 9.479205 5.055612 -11.196365 0
M  V30 36 H 8.334917 4.720469 -9.917145 0
M  V30 37 H 6.492793 5.772325 -11.075002 0
M  V30 38 H 7.493198 6.390821 -12.351097 0
M  V30 39 H 5.304732 4.032111 -11.450444 0
M  V30 40 H 4.655714 2.050956 -12.790367 0
M  V30 41 H 6.247272 1.260066 -14.599662 0
M  V30 42 H 8.298335 2.467104 -15.023002 0
M  V30 43 H 10.396203 5.876398 -8.872962 0
M  V30 44 H 9.062315 6.620195 -7.992004 0
M  V30 45 H 7.973898 7.151819 -9.842862 0
M  V30 END ATOM
M  V30 BEGIN BOND
M  V30 1 1 2 1
M  V30 2 1 2 3 CFG=1
M  V30 3 1 4 3
M  V30 4 1 5 4
M  V30 5 2 6 5
M  V30 6 1 7 6
M  V30 7 1 8 7
M  V30 8 2 9 7
M  V30 9 2 10 4
M  V30 10 1 10 9
M  V30 11 1 11 2
M  V30 12 1 12 11
M  V30 13 1 13 12
M  V30 14 1 14 13
M  V30 15 1 15 14
M  V30 16 1 16 15
M  V30 17 1 17 16
M  V30 18 2 18 17
M  V30 19 1 19 18
M  V30 20 2 20 19
M  V30 21 1 21 16
M  V30 22 1 21 20
M  V30 23 2 22 21
M  V30 24 1 23 2
M  V30 25 1 23 13
M  V30 26 1 24 1
M  V30 27 1 25 1
M  V30 28 1 26 1
M  V30 29 1 27 5
M  V30 30 1 28 6
M  V30 31 1 29 9
M  V30 32 1 30 10
M  V30 33 1 31 11
M  V30 34 1 32 11
M  V30 35 1 33 12
M  V30 36 1 34 12
M  V30 37 1 35 14
M  V30 38 1 36 14
M  V30 39 1 37 15
M  V30 40 1 38 15
M  V30 41 1 39 17
M  V30 42 1 40 18
M  V30 43 1 41 19
M  V30 44 1 42 20
M  V30 45 1 43 23
M  V30 46 1 44 23
M  V30 47 1 13 45 CFG=1
M  V30 END BOND
M  V30 END CTAB
M  END
>  <b_m_subgroup_collapsed>  (1475) 
0

>  <r_i_docking_score>  (1475) 
-7.0825427846194202

>  <s_m_subgroup_title>  (1475) 
glide-dock_SP_D22_pv

>  <s_m_subgroupid>  (1475) 
glide-dock_SP_D22_pv

>  <Molecule ChEMBL ID>  (1475) 
CHEMBL5781514

>  <Standard Type>  (1475) 
Ki

>  <Standard Value>  (1475) 
20000.0

>  <label>  (1475) 
0

$$$$
CHEMBL4451063
     RDKit          3D

  0  0  0  0  0  0  0  0  0  0999 V3000
M  V30 BEGIN CTAB
M  V30 COUNTS 61 65 0 0 1
M  V30 BEGIN ATOM
M  V30 1 C 10.735423 3.110026 -16.294832 0
M  V30 2 C 9.214578 3.113183 -16.012728 0 CFG=1
M  V30 3 C 8.464517 2.223322 -17.023113 0
M  V30 4 O 8.791091 0.851486 -16.796013 0
M  V30 5 C 8.454844 0.365709 -15.493318 0 CFG=2
M  V30 6 C 6.947685 0.178438 -15.297578 0
M  V30 7 C 6.288015 0.439236 -14.074470 0
M  V30 8 C 4.913488 0.172515 -13.960346 0
M  V30 9 C 4.245230 -0.364472 -15.072134 0
M  V30 10 N 2.886549 -0.627693 -15.008780 0
M  V30 11 N 4.855027 -0.634401 -16.239981 0
M  V30 12 C 6.174965 -0.377975 -16.340590 0
M  V30 13 C 9.168441 1.240433 -14.441329 0
M  V30 14 N 8.835160 2.670081 -14.641753 0 CFG=1 CHG=1
M  V30 15 C 9.262656 3.559851 -13.534436 0
M  V30 16 C 8.252531 4.670258 -13.264132 0 CFG=1
M  V30 17 C 7.312179 4.599800 -12.076457 0
M  V30 18 C 8.432858 5.605220 -12.079109 0 CFG=1
M  V30 19 C 9.667348 5.453972 -11.212785 0
M  V30 20 N 9.687100 6.176654 -9.949519 0
M  V30 21 C 10.253297 7.380897 -9.789586 0
M  V30 22 O 10.529619 8.118187 -10.736059 0
M  V30 23 C 10.616440 7.781924 -8.413198 0
M  V30 24 C 11.105404 8.972312 -7.945541 0
M  V30 25 C 11.372796 8.811731 -6.546691 0
M  V30 26 C 11.878351 9.653507 -5.529024 0
M  V30 27 C 12.086446 9.170881 -4.219771 0
M  V30 28 C 11.802606 7.828549 -3.905860 0
M  V30 29 C 11.285279 6.972422 -4.895819 0
M  V30 30 C 11.062664 7.467118 -6.194437 0
M  V30 31 N 10.577613 6.883936 -7.349805 0
M  V30 32 H 10.930628 3.478801 -17.302246 0
M  V30 33 H 11.293405 3.754796 -15.617902 0
M  V30 34 H 11.171381 2.112930 -16.241291 0
M  V30 35 H 8.886450 4.142663 -16.138388 0
M  V30 36 H 8.737131 2.489544 -18.044966 0
M  V30 37 H 7.386311 2.370609 -16.941549 0
M  V30 38 H 8.887487 -0.627654 -15.422644 0
M  V30 39 H 6.799447 0.840879 -13.218600 0
M  V30 40 H 4.385402 0.390306 -13.046929 0
M  V30 41 H 2.308326 -0.360715 -14.221983 0
M  V30 42 H 2.413114 -1.038252 -15.802461 0
M  V30 43 H 6.631204 -0.631631 -17.285816 0
M  V30 44 H 8.891665 0.907293 -13.446890 0
M  V30 45 H 10.247748 1.099254 -14.498799 0
M  V30 46 H 9.379107 2.970934 -12.625515 0
M  V30 47 H 10.238148 4.000108 -13.730095 0
M  V30 48 H 7.877307 5.155281 -14.163934 0
M  V30 49 H 6.303593 4.987913 -12.204210 0
M  V30 50 H 7.397406 3.772105 -11.378183 0
M  V30 51 H 8.140668 6.640346 -12.244888 0
M  V30 52 H 9.823601 4.404420 -10.971358 0
M  V30 53 H 10.509723 5.761623 -11.830266 0
M  V30 54 H 9.375525 5.679371 -9.130389 0
M  V30 55 H 11.285739 9.859618 -8.529630 0
M  V30 56 H 12.122530 10.677391 -5.771857 0
M  V30 57 H 12.482833 9.826014 -3.456336 0
M  V30 58 H 11.970914 7.458578 -2.905102 0
M  V30 59 H 11.053454 5.945062 -4.655946 0
M  V30 60 H 10.272964 5.927028 -7.434718 0
M  V30 61 H 7.825471 2.697352 -14.610669 0
M  V30 END ATOM
M  V30 BEGIN BOND
M  V30 1 1 2 1
M  V30 2 1 3 2
M  V30 3 1 4 3
M  V30 4 1 5 4
M  V30 5 1 6 5
M  V30 6 1 7 6
M  V30 7 2 8 7
M  V30 8 1 9 8
M  V30 9 1 10 9
M  V30 10 2 11 9
M  V30 11 2 12 6
M  V30 12 1 12 11
M  V30 13 1 13 5
M  V30 14 1 14 2
M  V30 15 1 14 13
M  V30 16 1 15 14
M  V30 17 1 16 15
M  V30 18 1 17 16
M  V30 19 1 18 16
M  V30 20 1 18 17
M  V30 21 1 19 18
M  V30 22 1 20 19
M  V30 23 1 21 20
M  V30 24 2 22 21
M  V30 25 1 23 21
M  V30 26 2 24 23
M  V30 27 1 25 24
M  V30 28 2 26 25
M  V30 29 1 27 26
M  V30 30 2 28 27
M  V30 31 1 29 28
M  V30 32 1 30 25
M  V30 33 2 30 29
M  V30 34 1 31 23
M  V30 35 1 31 30
M  V30 36 1 32 1
M  V30 37 1 33 1
M  V30 38 1 34 1
M  V30 39 1 2 35 CFG=3
M  V30 40 1 36 3
M  V30 41 1 37 3
M  V30 42 1 5 38 CFG=3
M  V30 43 1 39 7
M  V30 44 1 40 8
M  V30 45 1 41 10
M  V30 46 1 42 10
M  V30 47 1 43 12
M  V30 48 1 44 13
M  V30 49 1 45 13
M  V30 50 1 46 15
M  V30 51 1 47 15
M  V30 52 1 16 48 CFG=3
M  V30 53 1 49 17
M  V30 54 1 50 17
M  V30 55 1 18 51 CFG=3
M  V30 56 1 52 19
M  V30 57 1 53 19
M  V30 58 1 54 20
M  V30 59 1 55 24
M  V30 60 1 56 26
M  V30 61 1 57 27
M  V30 62 1 58 28
M  V30 63 1 59 29
M  V30 64 1 60 31
M  V30 65 1 14 61 CFG=3
M  V30 END BOND
M  V30 END CTAB
M  END
>  <b_m_subgroup_collapsed>  (1476) 
0

>  <r_i_docking_score>  (1476) 
-7.0816282083461504

>  <s_m_subgroup_title>  (1476) 
glide-dock_SP_D22_pv

>  <s_m_subgroupid>  (1476) 
glide-dock_SP_D22_pv

>  <Molecule ChEMBL ID>  (1476) 
CHEMBL4451063

>  <Standard Type>  (1476) 
Ki

>  <Standard Value>  (1476) 
14100.0

>  <label>  (1476) 
0

$$$$
CHEMBL3298895
     RDKit          3D

  0  0  0  0  0  0  0  0  0  0999 V3000
M  V30 BEGIN CTAB
M  V30 COUNTS 66 69 0 0 1
M  V30 BEGIN ATOM
M  V30 1 C 3.911245 0.105497 -19.815422 0
M  V30 2 C 4.820738 0.132385 -18.604391 0
M  V30 3 C 4.494661 -0.627414 -17.464540 0
M  V30 4 C 5.306901 -0.532548 -16.314814 0
M  V30 5 C 4.914617 -1.317928 -15.077935 0
M  V30 6 C 6.465705 0.296094 -16.332254 0
M  V30 7 C 7.493376 0.641137 -15.355992 0
M  V30 8 N 7.464273 0.169164 -14.034492 0
M  V30 9 C 8.466925 1.459001 -15.887652 0
M  V30 10 C 9.740647 1.936388 -15.308494 0
M  V30 11 O 10.445027 1.170845 -14.651756 0
M  V30 12 N 10.050738 3.227167 -15.514915 0
M  V30 13 C 11.258862 3.889136 -15.028494 0
M  V30 14 C 10.942358 5.163061 -14.225711 0
M  V30 15 C 10.065797 4.917271 -12.981233 0
M  V30 16 C 9.985166 6.140610 -12.048431 0
M  V30 17 C 9.467648 5.763407 -10.642907 0
M  V30 18 N 9.441146 6.881046 -9.658496 0 CHG=1
M  V30 19 C 10.775095 7.520396 -9.438912 0
M  V30 20 C 10.749397 8.640344 -8.379013 0
M  V30 21 N 10.059159 8.219982 -7.170606 0
M  V30 22 C 10.791142 7.927203 -6.006803 0
M  V30 23 C 11.085145 6.598532 -5.664585 0
M  V30 24 C 11.698891 6.335109 -4.433525 0
M  V30 25 C 12.039576 7.316673 -3.520483 0
M  V30 26 C 11.756642 8.627752 -3.854050 0
M  V30 27 Cl 12.085472 9.776505 -2.646768 0
M  V30 28 C 11.177266 8.944089 -5.101249 0
M  V30 29 Cl 10.886255 10.572674 -5.487127 0
M  V30 30 C 8.770990 7.569737 -7.350390 0
M  V30 31 C 8.845157 6.424637 -8.376981 0
M  V30 32 S 8.166455 1.918539 -17.539721 0
M  V30 33 C 6.690901 0.970805 -17.576208 0
M  V30 34 N 5.906109 0.929660 -18.692698 0
M  V30 35 H 3.738207 -0.918940 -20.138889 0
M  V30 36 H 2.949939 0.552045 -19.570004 0
M  V30 37 H 4.335903 0.656848 -20.652685 0
M  V30 38 H 3.608692 -1.247744 -17.464035 0
M  V30 39 H 4.778506 -0.649242 -14.228428 0
M  V30 40 H 3.976851 -1.851366 -15.232594 0
M  V30 41 H 5.680282 -2.053699 -14.831925 0
M  V30 42 H 6.917878 -0.658036 -13.842998 0
M  V30 43 H 8.312985 0.240613 -13.487099 0
M  V30 44 H 9.410374 3.780202 -16.064791 0
M  V30 45 H 11.875852 4.145096 -15.890655 0
M  V30 46 H 11.863415 3.218451 -14.414857 0
M  V30 47 H 10.477243 5.903583 -14.875064 0
M  V30 48 H 11.892950 5.600338 -13.916147 0
M  V30 49 H 10.476615 4.071023 -12.430543 0
M  V30 50 H 9.060328 4.616656 -13.277902 0
M  V30 51 H 9.349363 6.906462 -12.494301 0
M  V30 52 H 10.982668 6.569265 -11.982039 0
M  V30 53 H 10.079097 4.956729 -10.234878 0
M  V30 54 H 8.457427 5.361968 -10.741294 0
M  V30 55 H 11.160180 7.951449 -10.361392 0
M  V30 56 H 11.479381 6.748694 -9.129690 0
M  V30 57 H 10.221164 9.504656 -8.781377 0
M  V30 58 H 11.762695 8.971242 -8.149003 0
M  V30 59 H 10.853209 5.773876 -6.322436 0
M  V30 60 H 12.009490 5.372342 -4.161180 0
M  V30 61 H 12.501910 7.063732 -2.577364 0
M  V30 62 H 8.379940 7.207920 -6.400216 0
M  V30 63 H 8.086630 8.340107 -7.695395 0
M  V30 64 H 7.850464 6.013112 -8.556102 0
M  V30 65 H 9.435575 5.600242 -7.979686 0
M  V30 66 H 8.800203 7.582618 -10.013916 0
M  V30 END ATOM
M  V30 BEGIN BOND
M  V30 1 1 2 1
M  V30 2 2 3 2
M  V30 3 1 4 3
M  V30 4 1 5 4
M  V30 5 2 6 4
M  V30 6 1 7 6
M  V30 7 1 8 7
M  V30 8 2 9 7
M  V30 9 1 10 9
M  V30 10 2 11 10
M  V30 11 1 12 10
M  V30 12 1 13 12
M  V30 13 1 14 13
M  V30 14 1 15 14
M  V30 15 1 16 15
M  V30 16 1 17 16
M  V30 17 1 18 17
M  V30 18 1 19 18
M  V30 19 1 20 19
M  V30 20 1 21 20
M  V30 21 1 22 21
M  V30 22 2 23 22
M  V30 23 1 24 23
M  V30 24 2 25 24
M  V30 25 1 26 25
M  V30 26 1 27 26
M  V30 27 1 28 22
M  V30 28 2 28 26
M  V30 29 1 29 28
M  V30 30 1 30 21
M  V30 31 1 31 18
M  V30 32 1 31 30
M  V30 33 1 32 9
M  V30 34 1 33 6
M  V30 35 1 33 32
M  V30 36 1 34 2
M  V30 37 2 34 33
M  V30 38 1 35 1
M  V30 39 1 36 1
M  V30 40 1 37 1
M  V30 41 1 38 3
M  V30 42 1 39 5
M  V30 43 1 40 5
M  V30 44 1 41 5
M  V30 45 1 42 8
M  V30 46 1 43 8
M  V30 47 1 44 12
M  V30 48 1 45 13
M  V30 49 1 46 13
M  V30 50 1 47 14
M  V30 51 1 48 14
M  V30 52 1 49 15
M  V30 53 1 50 15
M  V30 54 1 51 16
M  V30 55 1 52 16
M  V30 56 1 53 17
M  V30 57 1 54 17
M  V30 58 1 55 19
M  V30 59 1 56 19
M  V30 60 1 57 20
M  V30 61 1 58 20
M  V30 62 1 59 23
M  V30 63 1 60 24
M  V30 64 1 61 25
M  V30 65 1 62 30
M  V30 66 1 63 30
M  V30 67 1 64 31
M  V30 68 1 65 31
M  V30 69 1 66 18
M  V30 END BOND
M  V30 END CTAB
M  END
>  <b_m_subgroup_collapsed>  (1477) 
0

>  <r_i_docking_score>  (1477) 
-7.0807872591034302

>  <s_m_subgroup_title>  (1477) 
glide-dock_SP_D22_pv

>  <s_m_subgroupid>  (1477) 
glide-dock_SP_D22_pv

>  <Molecule ChEMBL ID>  (1477) 
CHEMBL3298895

>  <Standard Type>  (1477) 
Ki

>  <Standard Value>  (1477) 
11.2

>  <label>  (1477) 
1

$$$$
CHEMBL541559
     RDKit          3D

  0  0  0  0  0  0  0  0  0  0999 V3000
M  V30 BEGIN CTAB
M  V30 COUNTS 37 39 0 0 1
M  V30 BEGIN ATOM
M  V30 1 O 9.247033 -0.227696 -15.399674 0
M  V30 2 C 8.396194 0.697998 -14.873069 0
M  V30 3 C 8.867253 2.009890 -14.699459 0
M  V30 4 C 8.039151 3.044018 -14.192885 0
M  V30 5 C 6.696569 2.719302 -13.847790 0
M  V30 6 C 6.242826 1.374591 -13.975320 0
M  V30 7 Br 4.495260 0.829174 -13.446870 0
M  V30 8 C 7.076166 0.373061 -14.503543 0
M  V30 9 O 6.562580 -0.892103 -14.643841 0
M  V30 10 C 5.744908 3.800222 -13.346334 0
M  V30 11 C 6.164313 4.403553 -12.004142 0
M  V30 12 N 7.188819 5.454394 -12.137752 0 CHG=1
M  V30 13 C 8.534286 5.023217 -12.579586 0
M  V30 14 C 8.599659 4.475741 -14.034308 0 CFG=1
M  V30 15 C 10.003490 4.639012 -14.628901 0
M  V30 16 C 11.163671 4.449928 -13.844872 0
M  V30 17 C 12.444705 4.620017 -14.403402 0
M  V30 18 C 12.581274 4.968734 -15.758414 0
M  V30 19 C 11.434034 5.139694 -16.555645 0
M  V30 20 C 10.153616 4.972073 -15.993810 0
M  V30 21 H 8.878198 -1.100670 -15.450766 0
M  V30 22 H 9.891815 2.194944 -14.981723 0
M  V30 23 H 7.117875 -1.553210 -15.048421 0
M  V30 24 H 5.650317 4.573970 -14.107865 0
M  V30 25 H 4.733599 3.418743 -13.233701 0
M  V30 26 H 5.295128 4.881767 -11.553102 0
M  V30 27 H 6.485623 3.629093 -11.307617 0
M  V30 28 H 6.842124 6.162979 -12.766679 0
M  V30 29 H 9.147471 5.923482 -12.513343 0
M  V30 30 H 8.952193 4.307148 -11.869651 0
M  V30 31 H 7.971541 5.120707 -14.645098 0
M  V30 32 H 11.083796 4.172780 -12.805476 0
M  V30 33 H 13.320731 4.493250 -13.787257 0
M  V30 34 H 13.564428 5.099083 -16.188133 0
M  V30 35 H 11.535392 5.401100 -17.598377 0
M  V30 36 H 9.285328 5.109128 -16.620970 0
M  V30 37 H 7.279656 5.901390 -11.230235 0
M  V30 END ATOM
M  V30 BEGIN BOND
M  V30 1 1 2 1
M  V30 2 2 3 2
M  V30 3 1 4 3
M  V30 4 2 5 4
M  V30 5 1 6 5
M  V30 6 1 7 6
M  V30 7 1 8 2
M  V30 8 2 8 6
M  V30 9 1 9 8
M  V30 10 1 10 5
M  V30 11 1 11 10
M  V30 12 1 12 11
M  V30 13 1 13 12
M  V30 14 1 14 4
M  V30 15 1 14 13
M  V30 16 1 15 14
M  V30 17 2 16 15
M  V30 18 1 17 16
M  V30 19 2 18 17
M  V30 20 1 19 18
M  V30 21 1 20 15
M  V30 22 2 20 19
M  V30 23 1 21 1
M  V30 24 1 22 3
M  V30 25 1 23 9
M  V30 26 1 24 10
M  V30 27 1 25 10
M  V30 28 1 26 11
M  V30 29 1 27 11
M  V30 30 1 28 12
M  V30 31 1 29 13
M  V30 32 1 30 13
M  V30 33 1 14 31 CFG=3
M  V30 34 1 32 16
M  V30 35 1 33 17
M  V30 36 1 34 18
M  V30 37 1 35 19
M  V30 38 1 36 20
M  V30 39 1 37 12
M  V30 END BOND
M  V30 END CTAB
M  END
>  <b_m_subgroup_collapsed>  (1478) 
0

>  <r_i_docking_score>  (1478) 
-7.0806712649035202

>  <s_m_subgroup_title>  (1478) 
glide-dock_SP_D22_pv

>  <s_m_subgroupid>  (1478) 
glide-dock_SP_D22_pv

>  <Molecule ChEMBL ID>  (1478) 
CHEMBL541559

>  <Standard Type>  (1478) 
Ki

>  <Standard Value>  (1478) 
39.0

>  <label>  (1478) 
1

$$$$
CHEMBL2030636
     RDKit          3D

  0  0  0  0  0  0  0  0  0  0999 V3000
M  V30 BEGIN CTAB
M  V30 COUNTS 31 32 0 0 1
M  V30 BEGIN ATOM
M  V30 1 F 12.254545 6.874455 -3.282785 0
M  V30 2 C 11.700258 7.602341 -4.280441 0
M  V30 3 C 11.939236 8.988071 -4.350379 0
M  V30 4 C 11.360784 9.747112 -5.384975 0
M  V30 5 C 10.533830 9.122381 -6.338493 0
M  V30 6 C 10.281887 7.735285 -6.269491 0
M  V30 7 C 9.337716 7.081069 -7.267810 0
M  V30 8 C 9.831821 7.190029 -8.722178 0
M  V30 9 N 8.886052 6.592043 -9.694504 0 CHG=1
M  V30 10 C 9.154354 6.950276 -11.097779 0
M  V30 11 C 8.323984 5.961315 -11.910138 0
M  V30 12 C 8.306646 4.687476 -11.059844 0
M  V30 13 C 8.770551 5.119162 -9.658482 0
M  V30 14 C 10.886673 6.974339 -5.244752 0
M  V30 15 H 12.566849 9.468027 -3.611877 0
M  V30 16 H 11.544640 10.810718 -5.445519 0
M  V30 17 H 10.084733 9.723609 -7.114976 0
M  V30 18 H 9.193969 6.035226 -6.996250 0
M  V30 19 H 8.361343 7.557090 -7.166696 0
M  V30 20 H 9.957420 8.242748 -8.979292 0
M  V30 21 H 10.813293 6.725253 -8.829967 0
M  V30 22 H 8.887648 7.986933 -11.309241 0
M  V30 23 H 10.215063 6.816582 -11.319858 0
M  V30 24 H 7.308059 6.342200 -12.019272 0
M  V30 25 H 8.722973 5.800341 -12.912527 0
M  V30 26 H 7.306176 4.250061 -11.042641 0
M  V30 27 H 8.985703 3.940765 -11.473148 0
M  V30 28 H 9.742235 4.671515 -9.446083 0
M  V30 29 H 8.086345 4.797241 -8.873320 0
M  V30 30 H 10.710117 5.913280 -5.171023 0
M  V30 31 H 7.954077 6.968439 -9.518999 0
M  V30 END ATOM
M  V30 BEGIN BOND
M  V30 1 1 2 1
M  V30 2 1 3 2
M  V30 3 2 4 3
M  V30 4 1 5 4
M  V30 5 2 6 5
M  V30 6 1 7 6
M  V30 7 1 8 7
M  V30 8 1 9 8
M  V30 9 1 10 9
M  V30 10 1 11 10
M  V30 11 1 12 11
M  V30 12 1 13 9
M  V30 13 1 13 12
M  V30 14 2 14 2
M  V30 15 1 14 6
M  V30 16 1 15 3
M  V30 17 1 16 4
M  V30 18 1 17 5
M  V30 19 1 18 7
M  V30 20 1 19 7
M  V30 21 1 20 8
M  V30 22 1 21 8
M  V30 23 1 22 10
M  V30 24 1 23 10
M  V30 25 1 24 11
M  V30 26 1 25 11
M  V30 27 1 26 12
M  V30 28 1 27 12
M  V30 29 1 28 13
M  V30 30 1 29 13
M  V30 31 1 30 14
M  V30 32 1 31 9
M  V30 END BOND
M  V30 END CTAB
M  END
>  <b_m_subgroup_collapsed>  (1479) 
0

>  <r_i_docking_score>  (1479) 
-7.0784521553212496

>  <s_m_subgroup_title>  (1479) 
glide-dock_SP_D22_pv

>  <s_m_subgroupid>  (1479) 
glide-dock_SP_D22_pv

>  <Molecule ChEMBL ID>  (1479) 
CHEMBL2030636

>  <Standard Type>  (1479) 
Ki

>  <Standard Value>  (1479) 
10000.0

>  <label>  (1479) 
0

$$$$
CHEMBL3817911
     RDKit          3D

  0  0  0  0  0  0  0  0  0  0999 V3000
M  V30 BEGIN CTAB
M  V30 COUNTS 54 57 0 0 1
M  V30 BEGIN ATOM
M  V30 1 O 11.700451 6.176485 -13.470599 0
M  V30 2 C 11.689672 5.265770 -14.300211 0
M  V30 3 C 12.528670 5.202367 -15.518773 0
M  V30 4 C 13.497969 6.099648 -15.999361 0
M  V30 5 C 14.150966 5.749948 -17.205540 0
M  V30 6 C 13.824016 4.546687 -17.885653 0
M  V30 7 C 12.837972 3.665731 -17.377203 0
M  V30 8 C 12.211999 4.040142 -16.176876 0
M  V30 9 C 11.167929 3.346823 -15.381594 0
M  V30 10 O 10.649127 2.268423 -15.668191 0
M  V30 11 N 10.931288 4.136813 -14.303317 0
M  V30 12 C 9.982877 3.814014 -13.232346 0
M  V30 13 C 8.666636 4.612408 -13.372088 0
M  V30 14 C 7.711544 4.571947 -12.148086 0
M  V30 15 C 8.329052 4.765810 -10.735703 0
M  V30 16 N 8.486167 6.172759 -10.277122 0 CFG=2 CHG=1
M  V30 17 C 9.281123 7.008391 -11.210825 0
M  V30 18 C 9.448458 8.451756 -10.728360 0
M  V30 19 C 10.030581 8.544410 -9.316346 0 CFG=2
M  V30 20 C 11.537583 8.230377 -9.276290 0
M  V30 21 C 12.079081 8.336983 -7.845888 0
M  V30 22 C 11.312198 7.403282 -6.895835 0
M  V30 23 C 9.801658 7.696075 -6.926591 0
M  V30 24 C 9.211975 7.658042 -8.352019 0 CFG=2
M  V30 25 C 9.030697 6.218582 -8.890928 0
M  V30 26 H 13.739984 7.008918 -15.465640 0
M  V30 27 H 14.905728 6.407779 -17.612089 0
M  V30 28 H 14.337165 4.297874 -18.804155 0
M  V30 29 H 12.587794 2.743078 -17.880346 0
M  V30 30 H 9.773375 2.743038 -13.197853 0
M  V30 31 H 10.488255 4.047956 -12.299069 0
M  V30 32 H 8.894510 5.639892 -13.642817 0
M  V30 33 H 8.123072 4.228884 -14.237494 0
M  V30 34 H 6.897980 5.285185 -12.293633 0
M  V30 35 H 7.219657 3.600152 -12.160165 0
M  V30 36 H 7.686069 4.265355 -10.015656 0
M  V30 37 H 9.273968 4.238080 -10.630411 0
M  V30 38 H 10.252299 6.545426 -11.381893 0
M  V30 39 H 8.762778 7.078076 -12.161284 0
M  V30 40 H 10.084173 8.972134 -11.439756 0
M  V30 41 H 8.485523 8.962623 -10.749727 0
M  V30 42 H 9.917945 9.578178 -8.990406 0
M  V30 43 H 11.733865 7.232425 -9.666959 0
M  V30 44 H 12.080742 8.924359 -9.921677 0
M  V30 45 H 13.143003 8.104502 -7.848023 0
M  V30 46 H 11.993187 9.367776 -7.496847 0
M  V30 47 H 11.499298 6.363698 -7.167792 0
M  V30 48 H 11.684302 7.522006 -5.878836 0
M  V30 49 H 9.269488 6.998661 -6.278670 0
M  V30 50 H 9.628832 8.686035 -6.502226 0
M  V30 51 H 8.220786 8.099234 -8.272415 0
M  V30 52 H 8.357823 5.674765 -8.226470 0
M  V30 53 H 9.984362 5.689659 -8.867888 0
M  V30 54 H 7.567462 6.633248 -10.245950 0
M  V30 END ATOM
M  V30 BEGIN BOND
M  V30 1 2 2 1
M  V30 2 1 3 2
M  V30 3 2 4 3
M  V30 4 1 5 4
M  V30 5 2 6 5
M  V30 6 1 7 6
M  V30 7 1 8 3
M  V30 8 2 8 7
M  V30 9 1 9 8
M  V30 10 2 10 9
M  V30 11 1 11 2
M  V30 12 1 11 9
M  V30 13 1 12 11
M  V30 14 1 13 12
M  V30 15 1 14 13
M  V30 16 1 15 14
M  V30 17 1 16 15
M  V30 18 1 17 16
M  V30 19 1 18 17
M  V30 20 1 19 18
M  V30 21 1 20 19
M  V30 22 1 21 20
M  V30 23 1 22 21
M  V30 24 1 23 22
M  V30 25 1 24 19
M  V30 26 1 24 23
M  V30 27 1 25 16
M  V30 28 1 25 24
M  V30 29 1 26 4
M  V30 30 1 27 5
M  V30 31 1 28 6
M  V30 32 1 29 7
M  V30 33 1 30 12
M  V30 34 1 31 12
M  V30 35 1 32 13
M  V30 36 1 33 13
M  V30 37 1 34 14
M  V30 38 1 35 14
M  V30 39 1 36 15
M  V30 40 1 37 15
M  V30 41 1 38 17
M  V30 42 1 39 17
M  V30 43 1 40 18
M  V30 44 1 41 18
M  V30 45 1 19 42 CFG=1
M  V30 46 1 43 20
M  V30 47 1 44 20
M  V30 48 1 45 21
M  V30 49 1 46 21
M  V30 50 1 47 22
M  V30 51 1 48 22
M  V30 52 1 49 23
M  V30 53 1 50 23
M  V30 54 1 24 51 CFG=1
M  V30 55 1 52 25
M  V30 56 1 53 25
M  V30 57 1 16 54 CFG=1
M  V30 END BOND
M  V30 END CTAB
M  END
>  <b_m_subgroup_collapsed>  (1480) 
0

>  <r_i_docking_score>  (1480) 
-7.0779446095359697

>  <s_m_subgroup_title>  (1480) 
glide-dock_SP_D22_pv

>  <s_m_subgroupid>  (1480) 
glide-dock_SP_D22_pv

>  <Molecule ChEMBL ID>  (1480) 
CHEMBL3817911

>  <Standard Type>  (1480) 
Ki

>  <Standard Value>  (1480) 
10000.0

>  <label>  (1480) 
0

$$$$
CHEMBL1258833
     RDKit          3D

  0  0  0  0  0  0  0  0  0  0999 V3000
M  V30 BEGIN CTAB
M  V30 COUNTS 57 61 0 0 1
M  V30 BEGIN ATOM
M  V30 1 C 10.079929 -0.438927 -15.558343 0
M  V30 2 C 10.407037 0.561075 -16.618746 0
M  V30 3 N 10.890208 0.147210 -17.852591 0
M  V30 4 C 11.089591 1.273117 -18.529926 0
M  V30 5 O 10.767814 2.395082 -17.836081 0
M  V30 6 C 10.342350 1.935892 -16.615696 0
M  V30 7 C 9.930939 2.940328 -15.638496 0
M  V30 8 N 10.645153 4.054702 -15.459271 0
M  V30 9 N 9.967976 4.796638 -14.524104 0
M  V30 10 C 8.892090 4.077000 -14.203094 0
M  V30 11 S 7.670360 4.570599 -13.015692 0
M  V30 12 C 8.480078 6.017631 -12.255937 0
M  V30 13 C 9.706923 5.640564 -11.404723 0
M  V30 14 C 9.350530 5.073782 -10.025030 0
M  V30 15 N 9.210173 6.138613 -9.006415 0 CFG=1 CHG=1
M  V30 16 C 8.321412 5.755501 -7.909525 0
M  V30 17 C 8.617655 6.725640 -6.769147 0
M  V30 18 C 9.920565 7.439109 -7.153669 0 CFG=1
M  V30 19 C 9.652948 8.892503 -7.656851 0
M  V30 20 C 10.788433 9.772221 -7.106200 0
M  V30 21 C 11.349571 8.982319 -5.999664 0
M  V30 22 C 12.151280 9.521205 -4.993634 0
M  V30 23 C 12.485798 8.707660 -3.905742 0
M  V30 24 C 12.050782 7.369239 -3.880020 0
M  V30 25 Br 12.485841 6.356837 -2.347253 0
M  V30 26 C 11.276148 6.820651 -4.937471 0
M  V30 27 C 10.897394 7.673061 -6.000381 0
M  V30 28 C 10.446930 6.584397 -8.321238 0
M  V30 29 N 8.804410 2.918257 -14.889510 0
M  V30 30 C 7.751158 1.919796 -14.838926 0
M  V30 31 H 10.520795 -0.166656 -14.599489 0
M  V30 32 H 9.004928 -0.538988 -15.420107 0
M  V30 33 H 10.449858 -1.425340 -15.838068 0
M  V30 34 H 11.465324 1.322136 -19.541000 0
M  V30 35 H 8.768449 6.707343 -13.045790 0
M  V30 36 H 7.746410 6.549001 -11.649573 0
M  V30 37 H 10.288408 4.890021 -11.935261 0
M  V30 38 H 10.366435 6.502973 -11.301200 0
M  V30 39 H 8.410636 4.524767 -10.108112 0
M  V30 40 H 10.087001 4.342909 -9.693497 0
M  V30 41 H 7.286083 5.770881 -8.217518 0
M  V30 42 H 8.565256 4.735949 -7.627630 0
M  V30 43 H 7.786857 7.419063 -6.646539 0
M  V30 44 H 8.730844 6.172278 -5.846136 0
M  V30 45 H 9.537915 8.982294 -8.737967 0
M  V30 46 H 8.722490 9.264650 -7.232203 0
M  V30 47 H 10.486003 10.715219 -6.646070 0
M  V30 48 H 11.566570 9.918852 -7.849071 0
M  V30 49 H 12.450744 10.552732 -5.049221 0
M  V30 50 H 13.056216 9.113599 -3.083352 0
M  V30 51 H 10.932161 5.795766 -4.885524 0
M  V30 52 H 10.975509 5.713409 -7.929937 0
M  V30 53 H 11.127900 7.123871 -8.981169 0
M  V30 54 H 6.788949 2.392631 -14.640915 0
M  V30 55 H 7.676841 1.400303 -15.794029 0
M  V30 56 H 7.963817 1.201845 -14.046802 0
M  V30 57 H 8.765074 6.937630 -9.442474 0
M  V30 END ATOM
M  V30 BEGIN BOND
M  V30 1 1 2 1
M  V30 2 1 3 2
M  V30 3 2 4 3
M  V30 4 1 5 4
M  V30 5 2 6 2
M  V30 6 1 6 5
M  V30 7 1 7 6
M  V30 8 2 8 7
M  V30 9 1 9 8
M  V30 10 2 10 9
M  V30 11 1 11 10
M  V30 12 1 12 11
M  V30 13 1 13 12
M  V30 14 1 14 13
M  V30 15 1 15 14
M  V30 16 1 16 15
M  V30 17 1 17 16
M  V30 18 1 18 17 CFG=1
M  V30 19 1 19 18
M  V30 20 1 20 19
M  V30 21 1 21 20
M  V30 22 1 22 21
M  V30 23 2 23 22
M  V30 24 1 24 23
M  V30 25 1 25 24
M  V30 26 2 26 24
M  V30 27 1 27 18
M  V30 28 2 27 21
M  V30 29 1 27 26
M  V30 30 1 28 15
M  V30 31 1 28 18
M  V30 32 1 29 7
M  V30 33 1 29 10
M  V30 34 1 30 29
M  V30 35 1 31 1
M  V30 36 1 32 1
M  V30 37 1 33 1
M  V30 38 1 34 4
M  V30 39 1 35 12
M  V30 40 1 36 12
M  V30 41 1 37 13
M  V30 42 1 38 13
M  V30 43 1 39 14
M  V30 44 1 40 14
M  V30 45 1 41 16
M  V30 46 1 42 16
M  V30 47 1 43 17
M  V30 48 1 44 17
M  V30 49 1 45 19
M  V30 50 1 46 19
M  V30 51 1 47 20
M  V30 52 1 48 20
M  V30 53 1 49 22
M  V30 54 1 50 23
M  V30 55 1 51 26
M  V30 56 1 52 28
M  V30 57 1 53 28
M  V30 58 1 54 30
M  V30 59 1 55 30
M  V30 60 1 56 30
M  V30 61 1 15 57 CFG=3
M  V30 END BOND
M  V30 END CTAB
M  END
>  <b_m_subgroup_collapsed>  (1481) 
0

>  <r_i_docking_score>  (1481) 
-7.07525559169295

>  <s_m_subgroup_title>  (1481) 
glide-dock_SP_D22_pv

>  <s_m_subgroupid>  (1481) 
glide-dock_SP_D22_pv

>  <Molecule ChEMBL ID>  (1481) 
CHEMBL1258833

>  <Standard Type>  (1481) 
Ki

>  <Standard Value>  (1481) 
39.81

>  <label>  (1481) 
1

$$$$
CHEMBL4554558
     RDKit          3D

  0  0  0  0  0  0  0  0  0  0999 V3000
M  V30 BEGIN CTAB
M  V30 COUNTS 39 42 0 0 1
M  V30 BEGIN ATOM
M  V30 1 C 9.285463 7.013002 -8.595005 0
M  V30 2 C 9.910711 7.081281 -9.792844 0
M  V30 3 C 9.418041 6.319040 -10.969634 0
M  V30 4 C 8.240294 5.621420 -11.014364 0
M  V30 5 N 8.159917 4.975463 -12.234082 0
M  V30 6 C 9.275027 5.238198 -13.004973 0
M  V30 7 C 9.655531 4.785673 -14.281542 0
M  V30 8 C 10.871154 5.221776 -14.838283 0
M  V30 9 C 11.686139 6.116202 -14.121050 0
M  V30 10 C 11.292519 6.572300 -12.847273 0
M  V30 11 C 10.086057 6.133699 -12.237883 0
M  V30 12 C 11.144940 7.960015 -9.893132 0
M  V30 13 C 11.309276 8.917116 -8.700180 0
M  V30 14 N 11.148668 8.198845 -7.435688 0
M  V30 15 C 11.506385 9.073818 -6.316280 0
M  V30 16 C 11.684903 8.405084 -4.981823 0
M  V30 17 C 11.634815 7.071834 -4.647267 0
M  V30 18 C 11.858074 6.828417 -3.262062 0
M  V30 19 C 12.088518 7.974931 -2.552150 0
M  V30 20 S 12.083178 9.372283 -3.584163 0
M  V30 21 C 9.760454 7.727952 -7.336126 0
M  V30 22 H 8.383584 6.429439 -8.477384 0
M  V30 23 H 7.450361 5.535697 -10.281863 0
M  V30 24 H 7.375079 4.395271 -12.494081 0
M  V30 25 H 9.019489 4.103185 -14.826542 0
M  V30 26 H 11.174544 4.876525 -15.816740 0
M  V30 27 H 12.620943 6.452532 -14.545585 0
M  V30 28 H 11.954287 7.244292 -12.328403 0
M  V30 29 H 12.024217 7.325199 -10.001171 0
M  V30 30 H 11.064317 8.570196 -10.793036 0
M  V30 31 H 12.299966 9.367046 -8.754754 0
M  V30 32 H 10.586230 9.729781 -8.762851 0
M  V30 33 H 12.450152 9.566007 -6.556907 0
M  V30 34 H 10.769428 9.872654 -6.228487 0
M  V30 35 H 11.435904 6.268283 -5.343099 0
M  V30 36 H 11.834156 5.834120 -2.839433 0
M  V30 37 H 12.278960 8.085337 -1.495520 0
M  V30 38 H 9.084698 8.563879 -7.150116 0
M  V30 39 H 9.656595 7.047637 -6.494049 0
M  V30 END ATOM
M  V30 BEGIN BOND
M  V30 1 2 2 1
M  V30 2 1 3 2
M  V30 3 2 4 3
M  V30 4 1 5 4
M  V30 5 1 6 5
M  V30 6 2 7 6
M  V30 7 1 8 7
M  V30 8 2 9 8
M  V30 9 1 10 9
M  V30 10 1 11 3
M  V30 11 1 11 6
M  V30 12 2 11 10
M  V30 13 1 12 2
M  V30 14 1 13 12
M  V30 15 1 14 13
M  V30 16 1 15 14
M  V30 17 1 16 15
M  V30 18 2 17 16
M  V30 19 1 18 17
M  V30 20 2 19 18
M  V30 21 1 20 16
M  V30 22 1 20 19
M  V30 23 1 21 1
M  V30 24 1 21 14
M  V30 25 1 22 1
M  V30 26 1 23 4
M  V30 27 1 24 5
M  V30 28 1 25 7
M  V30 29 1 26 8
M  V30 30 1 27 9
M  V30 31 1 28 10
M  V30 32 1 29 12
M  V30 33 1 30 12
M  V30 34 1 31 13
M  V30 35 1 32 13
M  V30 36 1 33 15
M  V30 37 1 34 15
M  V30 38 1 35 17
M  V30 39 1 36 18
M  V30 40 1 37 19
M  V30 41 1 38 21
M  V30 42 1 39 21
M  V30 END BOND
M  V30 END CTAB
M  END
>  <b_m_subgroup_collapsed>  (1482) 
0

>  <r_i_docking_score>  (1482) 
-7.0750646042038401

>  <s_m_subgroup_title>  (1482) 
glide-dock_SP_D22_pv

>  <s_m_subgroupid>  (1482) 
glide-dock_SP_D22_pv

>  <Molecule ChEMBL ID>  (1482) 
CHEMBL4554558

>  <Standard Type>  (1482) 
Ki

>  <Standard Value>  (1482) 
71.9

>  <label>  (1482) 
1

$$$$
CHEMBL2298801
     RDKit          3D

  0  0  0  0  0  0  0  0  0  0999 V3000
M  V30 BEGIN CTAB
M  V30 COUNTS 47 50 0 0 1
M  V30 BEGIN ATOM
M  V30 1 O 4.298848 -0.601842 -13.846827 0
M  V30 2 C 5.245790 0.174510 -13.931946 0
M  V30 3 N 6.424084 -0.061999 -14.540559 0
M  V30 4 C 7.223783 1.084177 -14.468230 0
M  V30 5 C 8.545021 1.318730 -14.873903 0
M  V30 6 C 9.099795 2.579524 -14.544930 0
M  V30 7 C 8.354459 3.570679 -13.847477 0
M  V30 8 O 9.034929 4.724845 -13.517324 0
M  V30 9 C 8.343326 5.782219 -12.858270 0
M  V30 10 C 8.128642 5.543144 -11.345147 0
M  V30 11 N 9.286839 5.807867 -10.479287 0
M  V30 12 C 8.896511 5.420640 -9.115117 0
M  V30 13 C 10.028440 5.666461 -8.093185 0
M  V30 14 N 10.449367 7.062983 -8.132851 0
M  V30 15 C 10.885039 7.758624 -6.981679 0
M  V30 16 C 10.937891 9.173720 -6.984914 0
M  V30 17 C 11.345204 9.894444 -5.846640 0
M  V30 18 C 11.708400 9.210418 -4.673886 0
M  V30 19 C 11.663746 7.805449 -4.646428 0
M  V30 20 Cl 12.086641 6.972594 -3.196498 0
M  V30 21 C 11.256586 7.084536 -5.790233 0
M  V30 22 C 10.792418 7.513303 -9.479857 0
M  V30 23 C 9.621226 7.240562 -10.446535 0
M  V30 24 C 6.995167 3.315125 -13.501519 0
M  V30 25 C 6.484880 2.042651 -13.811790 0
M  V30 26 N 5.281108 1.431159 -13.447132 0
M  V30 27 H 6.704313 -0.922518 -14.993454 0
M  V30 28 H 9.125378 0.557992 -15.375759 0
M  V30 29 H 10.127334 2.783653 -14.806418 0
M  V30 30 H 7.382172 5.949876 -13.343240 0
M  V30 31 H 8.892469 6.700604 -13.043756 0
M  V30 32 H 7.797286 4.516775 -11.187791 0
M  V30 33 H 7.297798 6.172100 -11.032719 0
M  V30 34 H 8.620165 4.365494 -9.095522 0
M  V30 35 H 8.011216 5.982523 -8.809980 0
M  V30 36 H 10.884660 5.026881 -8.305936 0
M  V30 37 H 9.659173 5.385900 -7.107132 0
M  V30 38 H 10.640826 9.734363 -7.854726 0
M  V30 39 H 11.373480 10.973661 -5.872003 0
M  V30 40 H 12.016728 9.763578 -3.797367 0
M  V30 41 H 11.242497 6.007630 -5.738089 0
M  V30 42 H 11.054927 8.568092 -9.519268 0
M  V30 43 H 11.678269 6.972358 -9.813543 0
M  V30 44 H 9.912299 7.587165 -11.435608 0
M  V30 45 H 8.752579 7.828206 -10.146669 0
M  V30 46 H 6.383832 4.015150 -12.953256 0
M  V30 47 H 4.540390 1.899185 -12.947046 0
M  V30 END ATOM
M  V30 BEGIN BOND
M  V30 1 2 2 1
M  V30 2 1 3 2
M  V30 3 1 4 3
M  V30 4 1 5 4
M  V30 5 2 6 5
M  V30 6 1 7 6
M  V30 7 1 8 7
M  V30 8 1 9 8
M  V30 9 1 10 9
M  V30 10 1 11 10
M  V30 11 1 12 11
M  V30 12 1 13 12
M  V30 13 1 14 13
M  V30 14 1 15 14
M  V30 15 2 16 15
M  V30 16 1 17 16
M  V30 17 2 18 17
M  V30 18 1 19 18
M  V30 19 1 20 19
M  V30 20 1 21 15
M  V30 21 2 21 19
M  V30 22 1 22 14
M  V30 23 1 23 11
M  V30 24 1 23 22
M  V30 25 2 24 7
M  V30 26 2 25 4
M  V30 27 1 25 24
M  V30 28 1 26 2
M  V30 29 1 26 25
M  V30 30 1 27 3
M  V30 31 1 28 5
M  V30 32 1 29 6
M  V30 33 1 30 9
M  V30 34 1 31 9
M  V30 35 1 32 10
M  V30 36 1 33 10
M  V30 37 1 34 12
M  V30 38 1 35 12
M  V30 39 1 36 13
M  V30 40 1 37 13
M  V30 41 1 38 16
M  V30 42 1 39 17
M  V30 43 1 40 18
M  V30 44 1 41 21
M  V30 45 1 42 22
M  V30 46 1 43 22
M  V30 47 1 44 23
M  V30 48 1 45 23
M  V30 49 1 46 24
M  V30 50 1 47 26
M  V30 END BOND
M  V30 END CTAB
M  END
>  <b_m_subgroup_collapsed>  (1483) 
0

>  <r_i_docking_score>  (1483) 
-7.0750332284447497

>  <s_m_subgroup_title>  (1483) 
glide-dock_SP_D22_pv

>  <s_m_subgroupid>  (1483) 
glide-dock_SP_D22_pv

>  <Molecule ChEMBL ID>  (1483) 
CHEMBL2298801

>  <Standard Type>  (1483) 
Ki

>  <Standard Value>  (1483) 
45.5

>  <label>  (1483) 
1

$$$$
CHEMBL540028
     RDKit          3D

  0  0  0  0  0  0  0  0  0  0999 V3000
M  V30 BEGIN CTAB
M  V30 COUNTS 46 49 0 0 1
M  V30 BEGIN ATOM
M  V30 1 O 8.664785 8.571236 -7.049377 0
M  V30 2 C 9.698337 8.150271 -7.555046 0
M  V30 3 C 10.983718 8.031102 -6.911786 0
M  V30 4 C 11.311442 8.188702 -5.486784 0
M  V30 5 C 11.685789 7.057047 -4.728334 0
M  V30 6 C 12.082191 7.202551 -3.383847 0
M  V30 7 C 12.086110 8.478306 -2.787731 0
M  V30 8 C 11.686098 9.602320 -3.533824 0
M  V30 9 C 11.290712 9.461820 -4.880812 0
M  V30 10 C 11.801250 7.605963 -7.881243 0
M  V30 11 O 11.237847 7.404252 -9.109701 0
M  V30 12 C 9.850102 7.700785 -9.014316 0 CFG=2
M  V30 13 C 9.526730 8.826517 -10.000232 0
M  V30 14 C 9.755219 8.323354 -11.429454 0
M  V30 15 C 8.886222 7.112359 -11.753017 0
M  V30 16 N 9.059082 6.011989 -10.767961 0 CFG=2 CHG=1
M  V30 17 C 8.091103 4.919820 -11.020098 0
M  V30 18 C 8.306223 4.188529 -12.335063 0
M  V30 19 C 9.599683 3.812932 -12.765174 0
M  V30 20 C 9.761538 3.050224 -13.937651 0
M  V30 21 C 8.633097 2.643596 -14.674314 0
M  V30 22 C 7.344289 3.014955 -14.247379 0
M  V30 23 C 7.180214 3.805212 -13.094549 0
M  V30 24 C 9.045294 6.419385 -9.329610 0
M  V30 25 H 11.692192 6.078228 -5.182319 0
M  V30 26 H 12.372702 6.334517 -2.809869 0
M  V30 27 H 12.382810 8.597634 -1.756741 0
M  V30 28 H 11.683996 10.572548 -3.062285 0
M  V30 29 H 10.995077 10.332821 -5.448395 0
M  V30 30 H 12.853612 7.371225 -7.847110 0
M  V30 31 H 8.490599 9.149704 -9.882641 0
M  V30 32 H 10.153424 9.697057 -9.803403 0
M  V30 33 H 9.543700 9.114614 -12.146609 0
M  V30 34 H 10.807096 8.065753 -11.564885 0
M  V30 35 H 7.841022 7.410211 -11.846478 0
M  V30 36 H 9.161592 6.738606 -12.737482 0
M  V30 37 H 8.138653 4.181640 -10.216425 0
M  V30 38 H 7.076941 5.331801 -11.002720 0
M  V30 39 H 10.475357 4.081958 -12.193719 0
M  V30 40 H 10.749002 2.754351 -14.260459 0
M  V30 41 H 8.756510 2.043645 -15.563607 0
M  V30 42 H 6.481863 2.697229 -14.814612 0
M  V30 43 H 6.183476 4.070484 -12.769613 0
M  V30 44 H 9.417449 5.591184 -8.723834 0
M  V30 45 H 8.017411 6.572743 -9.023162 0
M  V30 46 H 9.980206 5.633838 -10.931862 0
M  V30 END ATOM
M  V30 BEGIN BOND
M  V30 1 2 2 1
M  V30 2 1 3 2
M  V30 3 1 4 3
M  V30 4 2 5 4
M  V30 5 1 6 5
M  V30 6 2 7 6
M  V30 7 1 8 7
M  V30 8 1 9 4
M  V30 9 2 9 8
M  V30 10 2 10 3
M  V30 11 1 11 10
M  V30 12 1 12 2
M  V30 13 1 12 11 CFG=1
M  V30 14 1 13 12
M  V30 15 1 14 13
M  V30 16 1 15 14
M  V30 17 1 16 15
M  V30 18 1 17 16
M  V30 19 1 18 17
M  V30 20 2 19 18
M  V30 21 1 20 19
M  V30 22 2 21 20
M  V30 23 1 22 21
M  V30 24 1 23 18
M  V30 25 2 23 22
M  V30 26 1 24 12
M  V30 27 1 24 16
M  V30 28 1 25 5
M  V30 29 1 26 6
M  V30 30 1 27 7
M  V30 31 1 28 8
M  V30 32 1 29 9
M  V30 33 1 30 10
M  V30 34 1 31 13
M  V30 35 1 32 13
M  V30 36 1 33 14
M  V30 37 1 34 14
M  V30 38 1 35 15
M  V30 39 1 36 15
M  V30 40 1 37 17
M  V30 41 1 38 17
M  V30 42 1 39 19
M  V30 43 1 40 20
M  V30 44 1 41 21
M  V30 45 1 42 22
M  V30 46 1 43 23
M  V30 47 1 44 24
M  V30 48 1 45 24
M  V30 49 1 16 46 CFG=3
M  V30 END BOND
M  V30 END CTAB
M  END
>  <b_m_subgroup_collapsed>  (1484) 
0

>  <r_i_docking_score>  (1484) 
-7.0730895752340803

>  <s_m_subgroup_title>  (1484) 
glide-dock_SP_D22_pv

>  <s_m_subgroupid>  (1484) 
glide-dock_SP_D22_pv

>  <Molecule ChEMBL ID>  (1484) 
CHEMBL540028

>  <Standard Type>  (1484) 
Ki

>  <Standard Value>  (1484) 
10000.0

>  <label>  (1484) 
0

$$$$
CHEMBL3695362
     RDKit          3D

  0  0  0  0  0  0  0  0  0  0999 V3000
M  V30 BEGIN CTAB
M  V30 COUNTS 63 66 0 0 1
M  V30 BEGIN ATOM
M  V30 1 C 12.573777 8.665300 -1.833120 0
M  V30 2 C 12.280361 7.666520 -2.959244 0
M  V30 3 C 11.686195 8.318155 -4.211333 0
M  V30 4 O 11.581337 9.541485 -4.308905 0
M  V30 5 N 11.285720 7.469361 -5.164712 0
M  V30 6 C 10.634326 7.842446 -6.413073 0 CFG=1
M  V30 7 C 11.668337 8.158622 -7.515078 0
M  V30 8 C 10.994687 8.425299 -8.876752 0
M  V30 9 C 10.063200 7.260692 -9.294334 0 CFG=2
M  V30 10 C 9.285140 7.541589 -10.593670 0
M  V30 11 C 10.098550 7.574250 -11.893615 0
M  V30 12 N 10.518045 6.244676 -12.409815 0 CFG=2 CHG=1
M  V30 13 C 11.634075 6.375419 -13.389440 0
M  V30 14 C 12.186308 5.013718 -13.871961 0
M  V30 15 C 11.093125 4.022652 -14.332000 0 CFG=2
M  V30 16 C 10.570337 4.210134 -15.763740 0
M  V30 17 C 10.901764 5.342313 -16.553427 0
M  V30 18 C 10.408273 5.490251 -17.866812 0
M  V30 19 C 9.585905 4.497165 -18.422798 0
M  V30 20 C 9.285595 3.367466 -17.647961 0
M  V30 21 O 8.502225 2.292904 -18.015846 0
M  V30 22 C 8.503818 1.429832 -16.954653 0
M  V30 23 C 9.245041 1.906761 -15.902145 0
M  V30 24 C 9.759233 3.182462 -16.322414 0
M  V30 25 C 9.976067 3.988683 -13.267548 0
M  V30 26 C 9.428249 5.388079 -12.943371 0
M  V30 27 C 9.045850 6.992571 -8.171823 0
M  V30 28 C 9.731622 6.682228 -6.843831 0
M  V30 29 H 12.943721 8.156543 -0.945536 0
M  V30 30 H 13.339247 9.372329 -2.142832 0
M  V30 31 H 11.686058 9.229277 -1.547565 0
M  V30 32 H 11.583951 6.908651 -2.598350 0
M  V30 33 H 13.197460 7.145940 -3.236930 0
M  V30 34 H 11.395177 6.480250 -4.990209 0
M  V30 35 H 10.009665 8.724081 -6.245998 0
M  V30 36 H 12.358486 7.322453 -7.622169 0
M  V30 37 H 12.271250 9.020703 -7.229702 0
M  V30 38 H 11.769188 8.583823 -9.625600 0
M  V30 39 H 10.427817 9.358303 -8.821962 0
M  V30 40 H 10.661243 6.358228 -9.429492 0
M  V30 41 H 8.788788 8.505529 -10.483191 0
M  V30 42 H 8.480523 6.819564 -10.690692 0
M  V30 43 H 10.989865 8.172877 -11.722909 0
M  V30 44 H 9.514591 8.097520 -12.646781 0
M  V30 45 H 12.456207 6.937019 -12.941157 0
M  V30 46 H 11.286556 6.972188 -14.229710 0
M  V30 47 H 12.730347 4.560256 -13.046917 0
M  V30 48 H 12.939071 5.150353 -14.647108 0
M  V30 49 H 11.557184 3.033158 -14.343366 0
M  V30 50 H 11.553421 6.118789 -16.187641 0
M  V30 51 H 10.671630 6.361943 -18.448709 0
M  V30 52 H 9.197472 4.595539 -19.425049 0
M  V30 53 H 7.934415 0.523291 -17.097137 0
M  V30 54 H 9.412216 1.424027 -14.950118 0
M  V30 55 H 9.162081 3.325243 -13.557320 0
M  V30 56 H 10.396109 3.560984 -12.354972 0
M  V30 57 H 8.628125 5.283763 -12.211849 0
M  V30 58 H 8.984557 5.835163 -13.834939 0
M  V30 59 H 8.416746 7.871490 -8.039131 0
M  V30 60 H 8.380176 6.170364 -8.439762 0
M  V30 61 H 10.319416 5.772363 -6.950427 0
M  V30 62 H 8.977181 6.486295 -6.081491 0
M  V30 63 H 10.886339 5.750517 -11.610848 0
M  V30 END ATOM
M  V30 BEGIN BOND
M  V30 1 1 2 1
M  V30 2 1 3 2
M  V30 3 2 4 3
M  V30 4 1 5 3
M  V30 5 1 6 5
M  V30 6 1 7 6
M  V30 7 1 8 7
M  V30 8 1 9 8
M  V30 9 1 10 9
M  V30 10 1 11 10
M  V30 11 1 12 11
M  V30 12 1 13 12
M  V30 13 1 14 13
M  V30 14 1 15 14
M  V30 15 1 16 15
M  V30 16 1 17 16
M  V30 17 2 18 17
M  V30 18 1 19 18
M  V30 19 2 20 19
M  V30 20 1 21 20
M  V30 21 1 22 21
M  V30 22 2 23 22
M  V30 23 2 24 16
M  V30 24 1 24 20
M  V30 25 1 24 23
M  V30 26 1 25 15
M  V30 27 1 26 12
M  V30 28 1 26 25
M  V30 29 1 27 9
M  V30 30 1 28 6
M  V30 31 1 28 27
M  V30 32 1 29 1
M  V30 33 1 30 1
M  V30 34 1 31 1
M  V30 35 1 32 2
M  V30 36 1 33 2
M  V30 37 1 34 5
M  V30 38 1 6 35 CFG=1
M  V30 39 1 36 7
M  V30 40 1 37 7
M  V30 41 1 38 8
M  V30 42 1 39 8
M  V30 43 1 9 40 CFG=3
M  V30 44 1 41 10
M  V30 45 1 42 10
M  V30 46 1 43 11
M  V30 47 1 44 11
M  V30 48 1 45 13
M  V30 49 1 46 13
M  V30 50 1 47 14
M  V30 51 1 48 14
M  V30 52 1 15 49 CFG=3
M  V30 53 1 50 17
M  V30 54 1 51 18
M  V30 55 1 52 19
M  V30 56 1 53 22
M  V30 57 1 54 23
M  V30 58 1 55 25
M  V30 59 1 56 25
M  V30 60 1 57 26
M  V30 61 1 58 26
M  V30 62 1 59 27
M  V30 63 1 60 27
M  V30 64 1 61 28
M  V30 65 1 62 28
M  V30 66 1 12 63 CFG=1
M  V30 END BOND
M  V30 END CTAB
M  END
>  <b_m_subgroup_collapsed>  (1485) 
0

>  <r_i_docking_score>  (1485) 
-7.0721985921868296

>  <s_m_subgroup_title>  (1485) 
glide-dock_SP_D22_pv

>  <s_m_subgroupid>  (1485) 
glide-dock_SP_D22_pv

>  <Molecule ChEMBL ID>  (1485) 
CHEMBL3695362

>  <Standard Type>  (1485) 
Ki

>  <Standard Value>  (1485) 
91.9

>  <label>  (1485) 
1

$$$$
CHEMBL282927
     RDKit          3D

  0  0  0  0  0  0  0  0  0  0999 V3000
M  V30 BEGIN CTAB
M  V30 COUNTS 57 60 0 0 1
M  V30 BEGIN ATOM
M  V30 1 N 11.886648 8.372917 -3.914955 0
M  V30 2 C 11.285982 9.016781 -4.916561 0
M  V30 3 O 10.886302 10.172420 -4.791091 0
M  V30 4 C 11.086798 8.255162 -6.235120 0 CFG=2
M  V30 5 C 11.988024 8.789287 -7.345473 0
M  V30 6 C 11.123151 8.779837 -8.589875 0
M  V30 7 C 9.732248 8.298956 -8.138175 0 CFG=1
M  V30 8 C 9.416823 6.817417 -8.464897 0
M  V30 9 N 8.886063 6.570719 -9.840266 0 CHG=1
M  V30 10 C 8.512275 5.144679 -10.017819 0
M  V30 11 C 7.875703 4.874287 -11.394716 0
M  V30 12 C 8.826764 5.272692 -12.520211 0
M  V30 13 C 9.179553 4.485562 -13.577940 0
M  V30 14 C 10.233182 4.889815 -14.537253 0
M  V30 15 C 11.554182 5.131641 -14.096179 0
M  V30 16 C 12.562714 5.492741 -15.009480 0
M  V30 17 C 12.266497 5.598160 -16.380585 0
M  V30 18 C 10.962021 5.332544 -16.836082 0
M  V30 19 C 9.955033 4.972328 -15.919579 0
M  V30 20 C 8.516219 3.195852 -13.874267 0
M  V30 21 C 7.106806 3.079079 -13.849092 0
M  V30 22 C 6.485962 1.851026 -14.141371 0
M  V30 23 C 7.257355 0.732486 -14.498077 0
M  V30 24 F 6.647372 -0.444019 -14.766939 0
M  V30 25 C 8.658022 0.843312 -14.566888 0
M  V30 26 C 9.282468 2.066340 -14.247004 0
M  V30 27 C 9.297748 6.707994 -12.332180 0
M  V30 28 C 9.806512 7.016780 -10.920098 0
M  V30 29 O 9.769427 8.490734 -6.725859 0
M  V30 30 H 12.027160 8.855996 -3.039550 0
M  V30 31 H 12.184671 7.415790 -4.028030 0
M  V30 32 H 11.231041 7.181287 -6.101727 0
M  V30 33 H 12.338159 9.792856 -7.116076 0
M  V30 34 H 12.872057 8.173480 -7.492937 0
M  V30 35 H 11.581915 8.140207 -9.340218 0
M  V30 36 H 11.063600 9.776862 -9.019998 0
M  V30 37 H 8.943351 8.934905 -8.543323 0
M  V30 38 H 8.648761 6.484537 -7.764024 0
M  V30 39 H 10.291470 6.191798 -8.278699 0
M  V30 40 H 7.830369 4.846673 -9.224426 0
M  V30 41 H 9.402132 4.523108 -9.901781 0
M  V30 42 H 6.948034 5.440746 -11.493379 0
M  V30 43 H 7.606449 3.821316 -11.435946 0
M  V30 44 H 11.798584 5.044122 -13.049105 0
M  V30 45 H 13.564940 5.687077 -14.655346 0
M  V30 46 H 13.039848 5.875300 -17.082113 0
M  V30 47 H 10.733003 5.404329 -17.889242 0
M  V30 48 H 8.960252 4.770410 -16.284760 0
M  V30 49 H 6.491190 3.930983 -13.599788 0
M  V30 50 H 5.411487 1.763636 -14.088728 0
M  V30 51 H 9.252879 -0.014986 -14.842835 0
M  V30 52 H 10.360461 2.130683 -14.285999 0
M  V30 53 H 10.075414 6.972145 -13.043541 0
M  V30 54 H 8.449154 7.357956 -12.552421 0
M  V30 55 H 9.942140 8.096010 -10.865417 0
M  V30 56 H 10.783203 6.553917 -10.780710 0
M  V30 57 H 8.009290 7.094622 -9.930025 0
M  V30 END ATOM
M  V30 BEGIN BOND
M  V30 1 1 2 1
M  V30 2 2 3 2
M  V30 3 1 4 2
M  V30 4 1 5 4
M  V30 5 1 6 5
M  V30 6 1 7 6
M  V30 7 1 8 7
M  V30 8 1 9 8
M  V30 9 1 10 9
M  V30 10 1 11 10
M  V30 11 1 12 11
M  V30 12 2 13 12
M  V30 13 1 14 13
M  V30 14 2 15 14
M  V30 15 1 16 15
M  V30 16 2 17 16
M  V30 17 1 18 17
M  V30 18 1 19 14
M  V30 19 2 19 18
M  V30 20 1 20 13
M  V30 21 1 21 20
M  V30 22 2 22 21
M  V30 23 1 23 22
M  V30 24 1 24 23
M  V30 25 2 25 23
M  V30 26 2 26 20
M  V30 27 1 26 25
M  V30 28 1 27 12
M  V30 29 1 28 9
M  V30 30 1 28 27
M  V30 31 1 29 4
M  V30 32 1 29 7
M  V30 33 1 30 1
M  V30 34 1 31 1
M  V30 35 1 4 32 CFG=1
M  V30 36 1 33 5
M  V30 37 1 34 5
M  V30 38 1 35 6
M  V30 39 1 36 6
M  V30 40 1 7 37 CFG=3
M  V30 41 1 38 8
M  V30 42 1 39 8
M  V30 43 1 40 10
M  V30 44 1 41 10
M  V30 45 1 42 11
M  V30 46 1 43 11
M  V30 47 1 44 15
M  V30 48 1 45 16
M  V30 49 1 46 17
M  V30 50 1 47 18
M  V30 51 1 48 19
M  V30 52 1 49 21
M  V30 53 1 50 22
M  V30 54 1 51 25
M  V30 55 1 52 26
M  V30 56 1 53 27
M  V30 57 1 54 27
M  V30 58 1 55 28
M  V30 59 1 56 28
M  V30 60 1 57 9
M  V30 END BOND
M  V30 END CTAB
M  END
>  <b_m_subgroup_collapsed>  (1486) 
0

>  <r_i_docking_score>  (1486) 
-7.0718449830869998

>  <s_m_subgroup_title>  (1486) 
glide-dock_SP_D22_pv

>  <s_m_subgroupid>  (1486) 
glide-dock_SP_D22_pv

>  <Molecule ChEMBL ID>  (1486) 
CHEMBL282927

>  <Standard Type>  (1486) 
Ki

>  <Standard Value>  (1486) 
100.0

>  <label>  (1486) 
1

$$$$
CHEMBL384634
     RDKit          3D

  0  0  0  0  0  0  0  0  0  0999 V3000
M  V30 BEGIN CTAB
M  V30 COUNTS 56 61 0 0 1
M  V30 BEGIN ATOM
M  V30 1 F 18.532974 6.942637 -17.037985 0
M  V30 2 C 17.862572 6.972313 -18.187384 0
M  V30 3 F 18.485317 6.172099 -19.047434 0
M  V30 4 O 17.796900 8.277508 -18.702158 0
M  V30 5 C 16.486105 8.521559 -18.946600 0
M  V30 6 C 15.892866 9.659037 -19.518454 0
M  V30 7 C 14.486640 9.667813 -19.652218 0
M  V30 8 C 13.712548 8.560687 -19.220774 0
M  V30 9 C 14.333766 7.427566 -18.640463 0
M  V30 10 C 13.524199 6.235155 -18.156645 0
M  V30 11 N 13.399510 6.189816 -16.676807 0 CHG=1
M  V30 12 C 12.774413 4.927740 -16.203833 0
M  V30 13 C 12.702650 4.873953 -14.666755 0
M  V30 14 N 12.082314 6.070143 -14.098091 0
M  V30 15 C 10.880816 6.005277 -13.387850 0
M  V30 16 N 9.974123 5.170735 -13.796255 0
M  V30 17 C 8.667087 4.975073 -13.328652 0
M  V30 18 C 8.089627 3.739882 -13.703181 0
M  V30 19 C 6.746639 3.431044 -13.410934 0
M  V30 20 Cl 6.086361 1.896912 -13.846654 0
M  V30 21 C 5.948905 4.370586 -12.741175 0
M  V30 22 C 6.502563 5.603287 -12.364851 0
M  V30 23 C 7.849041 5.915202 -12.647299 0
M  V30 24 N 8.272002 7.176296 -12.245452 0
M  V30 25 C 9.519055 7.468519 -11.703861 0
M  V30 26 C 9.507895 8.316396 -10.573594 0
M  V30 27 C 10.694713 8.666938 -9.911982 0
M  V30 28 C 11.916706 8.196215 -10.406991 0
M  V30 29 C 11.930909 7.372337 -11.544613 0
M  V30 30 C 10.745932 6.961030 -12.208258 0
M  V30 31 C 12.666248 7.319156 -14.579538 0
M  V30 32 C 12.701054 7.370110 -16.112074 0
M  V30 33 C 15.734111 7.445350 -18.524036 0
M  V30 34 O 16.551237 6.499708 -17.997515 0
M  V30 35 H 16.489843 10.497480 -19.846592 0
M  V30 36 H 13.996981 10.529821 -20.083427 0
M  V30 37 H 12.637334 8.595411 -19.328188 0
M  V30 38 H 14.016487 5.327427 -18.508818 0
M  V30 39 H 12.533509 6.249555 -18.614082 0
M  V30 40 H 13.342368 4.071284 -16.570269 0
M  V30 41 H 11.768678 4.843299 -16.619101 0
M  V30 42 H 13.699214 4.785143 -14.246965 0
M  V30 43 H 12.178724 3.968542 -14.356499 0
M  V30 44 H 8.686307 3.011240 -14.232353 0
M  V30 45 H 4.915111 4.160249 -12.511520 0
M  V30 46 H 5.874896 6.320086 -11.854989 0
M  V30 47 H 7.531709 7.629563 -11.704859 0
M  V30 48 H 8.570216 8.692213 -10.188877 0
M  V30 49 H 10.666075 9.306253 -9.041903 0
M  V30 50 H 12.841730 8.474810 -9.922241 0
M  V30 51 H 12.886018 7.022707 -11.891701 0
M  V30 52 H 12.101701 8.174072 -14.209443 0
M  V30 53 H 13.676765 7.409130 -14.179400 0
M  V30 54 H 13.173873 8.302110 -16.423418 0
M  V30 55 H 11.685621 7.373756 -16.502319 0
M  V30 56 H 14.340561 6.202143 -16.308069 0
M  V30 END ATOM
M  V30 BEGIN BOND
M  V30 1 1 2 1
M  V30 2 1 3 2
M  V30 3 1 4 2
M  V30 4 1 5 4
M  V30 5 2 6 5
M  V30 6 1 7 6
M  V30 7 2 8 7
M  V30 8 1 9 8
M  V30 9 1 10 9
M  V30 10 1 11 10
M  V30 11 1 12 11
M  V30 12 1 13 12
M  V30 13 1 14 13
M  V30 14 1 15 14
M  V30 15 2 16 15
M  V30 16 1 17 16
M  V30 17 1 18 17
M  V30 18 2 19 18
M  V30 19 1 20 19
M  V30 20 1 21 19
M  V30 21 2 22 21
M  V30 22 2 23 17
M  V30 23 1 23 22
M  V30 24 1 24 23
M  V30 25 1 25 24
M  V30 26 2 26 25
M  V30 27 1 27 26
M  V30 28 2 28 27
M  V30 29 1 29 28
M  V30 30 1 30 15
M  V30 31 1 30 25
M  V30 32 2 30 29
M  V30 33 1 31 14
M  V30 34 1 32 11
M  V30 35 1 32 31
M  V30 36 1 33 5
M  V30 37 2 33 9
M  V30 38 1 34 2
M  V30 39 1 34 33
M  V30 40 1 35 6
M  V30 41 1 36 7
M  V30 42 1 37 8
M  V30 43 1 38 10
M  V30 44 1 39 10
M  V30 45 1 40 12
M  V30 46 1 41 12
M  V30 47 1 42 13
M  V30 48 1 43 13
M  V30 49 1 44 18
M  V30 50 1 45 21
M  V30 51 1 46 22
M  V30 52 1 47 24
M  V30 53 1 48 26
M  V30 54 1 49 27
M  V30 55 1 50 28
M  V30 56 1 51 29
M  V30 57 1 52 31
M  V30 58 1 53 31
M  V30 59 1 54 32
M  V30 60 1 55 32
M  V30 61 1 56 11
M  V30 END BOND
M  V30 END CTAB
M  END
>  <b_m_subgroup_collapsed>  (1487) 
0

>  <r_i_docking_score>  (1487) 
-7.0705417106399304

>  <s_m_subgroup_title>  (1487) 
glide-dock_SP_D22_pv

>  <s_m_subgroupid>  (1487) 
glide-dock_SP_D22_pv

>  <Molecule ChEMBL ID>  (1487) 
CHEMBL384634

>  <Standard Type>  (1487) 
Ki

>  <Standard Value>  (1487) 
8.0

>  <label>  (1487) 
1

$$$$
CHEMBL1632174
     RDKit          3D

  0  0  0  0  0  0  0  0  0  0999 V3000
M  V30 BEGIN CTAB
M  V30 COUNTS 64 67 0 0 1
M  V30 BEGIN ATOM
M  V30 1 O 12.485402 8.326127 -2.446712 0
M  V30 2 C 12.224706 8.106468 -3.648930 0
M  V30 3 O 11.949897 6.984896 -4.128171 0 CHG=-1
M  V30 4 C 12.289646 9.318457 -4.592115 0
M  V30 5 C 11.645660 9.082952 -5.978329 0
M  V30 6 C 10.124661 8.895524 -5.924559 0
M  V30 7 C 9.475096 8.647663 -7.291770 0
M  V30 8 C 9.591541 7.168764 -7.695432 0
M  V30 9 N 9.063759 6.890637 -9.052319 0 CFG=2 CHG=1
M  V30 10 C 8.736071 5.453012 -9.224689 0
M  V30 11 C 8.085999 5.213513 -10.588895 0
M  V30 12 C 9.028318 5.635934 -11.722603 0 CFG=1
M  V30 13 C 8.412446 5.360774 -13.113888 0
M  V30 14 N 9.254534 4.525013 -13.965198 0
M  V30 15 C 10.507936 4.787402 -14.365342 0
M  V30 16 O 11.153156 5.764641 -13.990939 0
M  V30 17 C 11.024215 3.818481 -15.367987 0
M  V30 18 C 10.643985 2.518216 -15.573663 0
M  V30 19 N 11.353038 2.010147 -16.664093 0
M  V30 20 C 12.243267 2.972986 -17.127142 0
M  V30 21 C 13.180795 2.950524 -18.178654 0
M  V30 22 C 13.971796 4.085969 -18.433628 0
M  V30 23 C 13.816504 5.236815 -17.637810 0
M  V30 24 C 12.873957 5.256628 -16.590866 0
M  V30 25 C 12.062988 4.130123 -16.308792 0
M  V30 26 C 11.184916 0.672958 -17.207293 0
M  V30 27 C 10.017397 -0.061882 -16.533241 0
M  V30 28 C 9.910215 0.336152 -15.057193 0
M  V30 29 O 9.718474 1.742875 -14.947008 0
M  V30 30 C 9.375708 7.124597 -11.522103 0
M  V30 31 C 9.966120 7.381466 -10.130194 0
M  V30 32 H 13.340384 9.575980 -4.724130 0
M  V30 33 H 11.819999 10.172041 -4.103131 0
M  V30 34 H 12.085987 8.213723 -6.462951 0
M  V30 35 H 11.879189 9.934031 -6.618771 0
M  V30 36 H 9.686656 9.771037 -5.447060 0
M  V30 37 H 9.901976 8.037910 -5.294383 0
M  V30 38 H 9.919133 9.317681 -8.024948 0
M  V30 39 H 8.417182 8.910725 -7.237951 0
M  V30 40 H 9.030988 6.582736 -6.966579 0
M  V30 41 H 10.624954 6.824463 -7.634039 0
M  V30 42 H 8.059541 5.134231 -8.434428 0
M  V30 43 H 9.640628 4.850817 -9.125512 0
M  V30 44 H 7.150884 5.772536 -10.650046 0
M  V30 45 H 7.816176 4.168123 -10.692309 0
M  V30 46 H 9.944169 5.053128 -11.610590 0
M  V30 47 H 8.178333 6.290397 -13.633170 0
M  V30 48 H 7.459684 4.843968 -13.009520 0
M  V30 49 H 8.838399 3.675710 -14.318937 0
M  V30 50 H 13.294589 2.064213 -18.785406 0
M  V30 51 H 14.690914 4.078421 -19.237097 0
M  V30 52 H 14.420431 6.112026 -17.832109 0
M  V30 53 H 12.768146 6.151458 -15.996696 0
M  V30 54 H 11.032950 0.737129 -18.285122 0
M  V30 55 H 12.114844 0.134342 -17.046692 0
M  V30 56 H 9.085982 0.204134 -17.034777 0
M  V30 57 H 10.128848 -1.141280 -16.637678 0
M  V30 58 H 9.065414 -0.168025 -14.590099 0
M  V30 59 H 10.803718 0.040516 -14.507703 0
M  V30 60 H 10.085246 7.454837 -12.280196 0
M  V30 61 H 8.484985 7.739510 -11.656704 0
M  V30 62 H 10.145355 8.448596 -10.021273 0
M  V30 63 H 10.937897 6.893329 -10.041558 0
M  V30 64 H 8.173904 7.373375 -9.147578 0
M  V30 END ATOM
M  V30 BEGIN BOND
M  V30 1 2 2 1
M  V30 2 1 3 2
M  V30 3 1 4 2
M  V30 4 1 5 4
M  V30 5 1 6 5
M  V30 6 1 7 6
M  V30 7 1 8 7
M  V30 8 1 9 8
M  V30 9 1 10 9
M  V30 10 1 11 10
M  V30 11 1 12 11
M  V30 12 1 13 12
M  V30 13 1 14 13
M  V30 14 1 15 14
M  V30 15 2 16 15
M  V30 16 1 17 15
M  V30 17 2 18 17
M  V30 18 1 19 18
M  V30 19 1 20 19
M  V30 20 2 21 20
M  V30 21 1 22 21
M  V30 22 2 23 22
M  V30 23 1 24 23
M  V30 24 1 25 17
M  V30 25 1 25 20
M  V30 26 2 25 24
M  V30 27 1 26 19
M  V30 28 1 27 26
M  V30 29 1 28 27
M  V30 30 1 29 18
M  V30 31 1 29 28
M  V30 32 1 30 12
M  V30 33 1 31 9
M  V30 34 1 31 30
M  V30 35 1 32 4
M  V30 36 1 33 4
M  V30 37 1 34 5
M  V30 38 1 35 5
M  V30 39 1 36 6
M  V30 40 1 37 6
M  V30 41 1 38 7
M  V30 42 1 39 7
M  V30 43 1 40 8
M  V30 44 1 41 8
M  V30 45 1 42 10
M  V30 46 1 43 10
M  V30 47 1 44 11
M  V30 48 1 45 11
M  V30 49 1 12 46 CFG=3
M  V30 50 1 47 13
M  V30 51 1 48 13
M  V30 52 1 49 14
M  V30 53 1 50 21
M  V30 54 1 51 22
M  V30 55 1 52 23
M  V30 56 1 53 24
M  V30 57 1 54 26
M  V30 58 1 55 26
M  V30 59 1 56 27
M  V30 60 1 57 27
M  V30 61 1 58 28
M  V30 62 1 59 28
M  V30 63 1 60 30
M  V30 64 1 61 30
M  V30 65 1 62 31
M  V30 66 1 63 31
M  V30 67 1 9 64 CFG=1
M  V30 END BOND
M  V30 END CTAB
M  END
>  <b_m_subgroup_collapsed>  (1488) 
0

>  <r_i_docking_score>  (1488) 
-7.0702552858029

>  <s_m_subgroup_title>  (1488) 
glide-dock_SP_D22_pv

>  <s_m_subgroupid>  (1488) 
glide-dock_SP_D22_pv

>  <Molecule ChEMBL ID>  (1488) 
CHEMBL1632174

>  <Standard Type>  (1488) 
Ki

>  <Standard Value>  (1488) 
10000.0

>  <label>  (1488) 
0

$$$$
CHEMBL104201
     RDKit          3D

  0  0  0  0  0  0  0  0  0  0999 V3000
M  V30 BEGIN CTAB
M  V30 COUNTS 45 47 0 0 1
M  V30 BEGIN ATOM
M  V30 1 N 12.499914 7.033285 -15.144167 0
M  V30 2 C 11.953497 6.023841 -14.992426 0
M  V30 3 C 11.276371 4.779741 -14.842521 0
M  V30 4 C 11.463565 3.738289 -15.794708 0
M  V30 5 N 11.596717 2.877651 -16.558542 0
M  V30 6 C 10.435512 4.541653 -13.814558 0
M  V30 7 C 10.086784 5.418089 -12.682772 0
M  V30 8 C 8.993845 5.175585 -11.810235 0
M  V30 9 C 8.979446 6.192104 -10.897558 0
M  V30 10 N 10.045334 7.047920 -11.162450 0
M  V30 11 C 10.464570 8.256952 -10.451389 0 CFG=1
M  V30 12 C 9.386045 8.955192 -9.615627 0
M  V30 13 C 9.135812 8.319502 -8.238361 0
M  V30 14 N 10.389306 8.119357 -7.470744 0 CFG=1 CHG=1
M  V30 15 C 10.109281 7.476747 -6.167527 0
M  V30 16 C 11.069212 7.863646 -5.047606 0
M  V30 17 C 11.219366 9.215155 -4.662409 0
M  V30 18 C 11.907851 9.537707 -3.476494 0
M  V30 19 C 12.486919 8.523069 -2.694256 0
M  V30 20 C 12.393172 7.180699 -3.104820 0
M  V30 21 C 11.687083 6.854136 -4.278428 0
M  V30 22 C 11.402853 7.374248 -8.251232 0
M  V30 23 C 11.722282 8.057235 -9.589276 0
M  V30 24 C 10.702837 6.572124 -12.284519 0
M  V30 25 H 9.954192 3.573848 -13.787535 0
M  V30 26 H 8.287075 4.358341 -11.847538 0
M  V30 27 H 8.273795 6.370598 -10.103765 0
M  V30 28 H 10.726331 8.964370 -11.232375 0
M  V30 29 H 9.725165 9.971408 -9.447197 0
M  V30 30 H 8.466274 9.039328 -10.188601 0
M  V30 31 H 8.609867 7.370957 -8.321860 0
M  V30 32 H 8.469477 8.972967 -7.674299 0
M  V30 33 H 9.111863 7.771697 -5.844997 0
M  V30 34 H 10.063396 6.391867 -6.280555 0
M  V30 35 H 10.735724 10.002907 -5.221568 0
M  V30 36 H 11.965807 10.563816 -3.144307 0
M  V30 37 H 13.007676 8.778389 -1.783012 0
M  V30 38 H 12.838818 6.397355 -2.508031 0
M  V30 39 H 11.572603 5.814174 -4.550807 0
M  V30 40 H 11.045596 6.359176 -8.434982 0
M  V30 41 H 12.315286 7.288609 -7.661438 0
M  V30 42 H 12.472071 7.484447 -10.136858 0
M  V30 43 H 12.178638 9.027777 -9.390820 0
M  V30 44 H 11.564450 7.100004 -12.664392 0
M  V30 45 H 10.765574 9.035446 -7.277106 0
M  V30 END ATOM
M  V30 BEGIN BOND
M  V30 1 3 2 1
M  V30 2 1 3 2
M  V30 3 1 4 3
M  V30 4 3 5 4
M  V30 5 2 6 3
M  V30 6 1 7 6
M  V30 7 1 8 7
M  V30 8 2 9 8
M  V30 9 1 10 9
M  V30 10 1 11 10
M  V30 11 1 12 11
M  V30 12 1 13 12
M  V30 13 1 14 13
M  V30 14 1 15 14
M  V30 15 1 16 15
M  V30 16 2 17 16
M  V30 17 1 18 17
M  V30 18 2 19 18
M  V30 19 1 20 19
M  V30 20 1 21 16
M  V30 21 2 21 20
M  V30 22 1 22 14
M  V30 23 1 23 11
M  V30 24 1 23 22
M  V30 25 2 24 7
M  V30 26 1 24 10
M  V30 27 1 25 6
M  V30 28 1 26 8
M  V30 29 1 27 9
M  V30 30 1 11 28 CFG=3
M  V30 31 1 29 12
M  V30 32 1 30 12
M  V30 33 1 31 13
M  V30 34 1 32 13
M  V30 35 1 33 15
M  V30 36 1 34 15
M  V30 37 1 35 17
M  V30 38 1 36 18
M  V30 39 1 37 19
M  V30 40 1 38 20
M  V30 41 1 39 21
M  V30 42 1 40 22
M  V30 43 1 41 22
M  V30 44 1 42 23
M  V30 45 1 43 23
M  V30 46 1 44 24
M  V30 47 1 14 45 CFG=1
M  V30 END BOND
M  V30 END CTAB
M  END
>  <b_m_subgroup_collapsed>  (1489) 
0

>  <r_i_docking_score>  (1489) 
-7.0687708716395203

>  <s_m_subgroup_title>  (1489) 
glide-dock_SP_D22_pv

>  <s_m_subgroupid>  (1489) 
glide-dock_SP_D22_pv

>  <Molecule ChEMBL ID>  (1489) 
CHEMBL104201

>  <Standard Type>  (1489) 
Ki

>  <Standard Value>  (1489) 
13000.0

>  <label>  (1489) 
0

$$$$
CHEMBL593626
     RDKit          3D

  0  0  0  0  0  0  0  0  0  0999 V3000
M  V30 BEGIN CTAB
M  V30 COUNTS 37 40 0 0 1
M  V30 BEGIN ATOM
M  V30 1 O 13.004877 5.746633 -15.051982 0
M  V30 2 C 12.086293 6.061460 -14.098643 0
M  V30 3 C 12.361428 7.072854 -13.162783 0
M  V30 4 C 11.441668 7.370823 -12.146229 0
M  V30 5 C 10.206961 6.687754 -12.066130 0
M  V30 6 C 9.917276 5.697093 -13.048636 0
M  V30 7 C 10.865045 5.372706 -14.038584 0
M  V30 8 C 8.580729 4.976269 -13.076022 0
M  V30 9 C 7.528486 5.700429 -12.233457 0
M  V30 10 N 8.087694 6.048407 -10.908163 0 CFG=1 CHG=1
M  V30 11 C 8.486465 4.873462 -10.101468 0
M  V30 12 C 8.753480 5.248484 -8.647545 0
M  V30 13 C 9.567081 6.511111 -8.501190 0
M  V30 14 C 10.068657 6.842468 -7.224427 0
M  V30 15 C 10.717825 8.070743 -7.016596 0
M  V30 16 C 10.838006 8.972148 -8.085757 0
M  V30 17 C 10.339252 8.647762 -9.359880 0
M  V30 18 C 9.727232 7.399780 -9.596943 0
M  V30 19 C 9.168356 7.063583 -10.994426 0 CFG=1
M  V30 20 H 13.845841 6.145714 -14.874659 0
M  V30 21 H 13.288148 7.619714 -13.207230 0
M  V30 22 H 11.709952 8.145525 -11.446224 0
M  V30 23 H 10.650230 4.606379 -14.769942 0
M  V30 24 H 8.232718 4.895242 -14.105416 0
M  V30 25 H 8.725553 3.956146 -12.719785 0
M  V30 26 H 7.214857 6.620446 -12.728776 0
M  V30 27 H 6.631684 5.090868 -12.120469 0
M  V30 28 H 7.688643 4.133055 -10.140336 0
M  V30 29 H 9.382512 4.413208 -10.521466 0
M  V30 30 H 7.810757 5.397133 -8.120276 0
M  V30 31 H 9.272751 4.429390 -8.148224 0
M  V30 32 H 9.927814 6.172595 -6.389644 0
M  V30 33 H 11.090365 8.332889 -6.035013 0
M  V30 34 H 11.290205 9.934963 -7.914779 0
M  V30 35 H 10.424931 9.370848 -10.154804 0
M  V30 36 H 8.692304 7.976945 -11.354678 0
M  V30 37 H 7.334582 6.532193 -10.409675 0
M  V30 END ATOM
M  V30 BEGIN BOND
M  V30 1 1 2 1
M  V30 2 1 3 2
M  V30 3 2 4 3
M  V30 4 1 5 4
M  V30 5 2 6 5
M  V30 6 2 7 2
M  V30 7 1 7 6
M  V30 8 1 8 6
M  V30 9 1 9 8
M  V30 10 1 10 9
M  V30 11 1 11 10
M  V30 12 1 12 11
M  V30 13 1 13 12
M  V30 14 2 14 13
M  V30 15 1 15 14
M  V30 16 2 16 15
M  V30 17 1 17 16
M  V30 18 1 18 13
M  V30 19 2 18 17
M  V30 20 1 19 5
M  V30 21 1 19 10
M  V30 22 1 19 18
M  V30 23 1 20 1
M  V30 24 1 21 3
M  V30 25 1 22 4
M  V30 26 1 23 7
M  V30 27 1 24 8
M  V30 28 1 25 8
M  V30 29 1 26 9
M  V30 30 1 27 9
M  V30 31 1 28 11
M  V30 32 1 29 11
M  V30 33 1 30 12
M  V30 34 1 31 12
M  V30 35 1 32 14
M  V30 36 1 33 15
M  V30 37 1 34 16
M  V30 38 1 35 17
M  V30 39 1 19 36 CFG=3
M  V30 40 1 10 37 CFG=1
M  V30 END BOND
M  V30 END CTAB
M  END
>  <b_m_subgroup_collapsed>  (1490) 
0

>  <r_i_docking_score>  (1490) 
-7.0684401825360297

>  <s_m_subgroup_title>  (1490) 
glide-dock_SP_D22_pv

>  <s_m_subgroupid>  (1490) 
glide-dock_SP_D22_pv

>  <Molecule ChEMBL ID>  (1490) 
CHEMBL593626

>  <Standard Type>  (1490) 
Ki

>  <Standard Value>  (1490) 
10000.0

>  <label>  (1490) 
0

$$$$
CHEMBL314952
     RDKit          3D

  0  0  0  0  0  0  0  0  0  0999 V3000
M  V30 BEGIN CTAB
M  V30 COUNTS 45 48 0 0 1
M  V30 BEGIN ATOM
M  V30 1 O 6.852351 4.171812 -12.393691 0
M  V30 2 C 7.945488 4.717837 -12.515329 0
M  V30 3 C 8.488838 5.772186 -11.541017 0
M  V30 4 C 9.796988 6.120187 -12.229775 0
M  V30 5 C 9.934142 5.323980 -13.364858 0
M  V30 6 C 11.064339 5.372862 -14.193963 0
M  V30 7 C 12.085986 6.278610 -13.843941 0
M  V30 8 C 11.964021 7.087657 -12.688867 0
M  V30 9 C 10.817789 7.031572 -11.854650 0
M  V30 10 N 10.760376 7.847261 -10.706772 0
M  V30 11 C 11.879014 7.917363 -9.779305 0
M  V30 12 C 11.434350 7.426626 -8.386990 0
M  V30 13 N 10.228717 8.151798 -7.912859 0 CHG=1
M  V30 14 C 9.748974 7.703188 -6.586557 0
M  V30 15 C 10.714095 7.993132 -5.449076 0
M  V30 16 C 11.291429 6.926340 -4.733600 0
M  V30 17 C 12.081562 7.177079 -3.593827 0
M  V30 18 C 12.265011 8.498140 -3.144322 0
M  V30 19 C 11.685765 9.567264 -3.855463 0
M  V30 20 C 10.937503 9.321803 -5.022965 0
M  V30 21 C 9.122940 8.105898 -8.899537 0
M  V30 22 C 9.558521 8.551851 -10.299411 0
M  V30 23 N 8.815559 4.501708 -13.506423 0
M  V30 24 H 8.652289 5.346001 -10.552543 0
M  V30 25 H 7.795304 6.604265 -11.486979 0
M  V30 26 H 11.152598 4.745112 -15.068141 0
M  V30 27 H 12.975150 6.346767 -14.452352 0
M  V30 28 H 12.769472 7.767900 -12.452146 0
M  V30 29 H 12.223493 8.952703 -9.723293 0
M  V30 30 H 12.727893 7.333317 -10.132659 0
M  V30 31 H 12.252872 7.552376 -7.680798 0
M  V30 32 H 11.209379 6.359619 -8.425941 0
M  V30 33 H 9.512045 6.637909 -6.619824 0
M  V30 34 H 8.809952 8.206861 -6.347466 0
M  V30 35 H 11.120135 5.905495 -5.040428 0
M  V30 36 H 12.511892 6.352213 -3.043911 0
M  V30 37 H 12.835944 8.692516 -2.248349 0
M  V30 38 H 11.794706 10.572231 -3.477976 0
M  V30 39 H 10.481507 10.150558 -5.544487 0
M  V30 40 H 8.708705 7.097626 -8.939925 0
M  V30 41 H 8.323843 8.763716 -8.557948 0
M  V30 42 H 9.796668 9.608945 -10.243098 0
M  V30 43 H 8.754404 8.459073 -11.028433 0
M  V30 44 H 8.693844 3.844594 -14.262358 0
M  V30 45 H 10.490569 9.122672 -7.822571 0
M  V30 END ATOM
M  V30 BEGIN BOND
M  V30 1 2 2 1
M  V30 2 1 3 2
M  V30 3 1 4 3
M  V30 4 2 5 4
M  V30 5 1 6 5
M  V30 6 2 7 6
M  V30 7 1 8 7
M  V30 8 1 9 4
M  V30 9 2 9 8
M  V30 10 1 10 9
M  V30 11 1 11 10
M  V30 12 1 12 11
M  V30 13 1 13 12
M  V30 14 1 14 13
M  V30 15 1 15 14
M  V30 16 2 16 15
M  V30 17 1 17 16
M  V30 18 2 18 17
M  V30 19 1 19 18
M  V30 20 1 20 15
M  V30 21 2 20 19
M  V30 22 1 21 13
M  V30 23 1 22 10
M  V30 24 1 22 21
M  V30 25 1 23 2
M  V30 26 1 23 5
M  V30 27 1 24 3
M  V30 28 1 25 3
M  V30 29 1 26 6
M  V30 30 1 27 7
M  V30 31 1 28 8
M  V30 32 1 29 11
M  V30 33 1 30 11
M  V30 34 1 31 12
M  V30 35 1 32 12
M  V30 36 1 33 14
M  V30 37 1 34 14
M  V30 38 1 35 16
M  V30 39 1 36 17
M  V30 40 1 37 18
M  V30 41 1 38 19
M  V30 42 1 39 20
M  V30 43 1 40 21
M  V30 44 1 41 21
M  V30 45 1 42 22
M  V30 46 1 43 22
M  V30 47 1 44 23
M  V30 48 1 45 13
M  V30 END BOND
M  V30 END CTAB
M  END
>  <b_m_subgroup_collapsed>  (1491) 
0

>  <r_i_docking_score>  (1491) 
-7.0662605066784003

>  <s_m_subgroup_title>  (1491) 
glide-dock_SP_D22_pv

>  <s_m_subgroupid>  (1491) 
glide-dock_SP_D22_pv

>  <Molecule ChEMBL ID>  (1491) 
CHEMBL314952

>  <Standard Type>  (1491) 
Ki

>  <Standard Value>  (1491) 
8.0

>  <label>  (1491) 
1

$$$$
CHEMBL594799
     RDKit          3D

  0  0  0  0  0  0  0  0  0  0999 V3000
M  V30 BEGIN CTAB
M  V30 COUNTS 45 47 0 0 1
M  V30 BEGIN ATOM
M  V30 1 C 12.682257 8.435864 -10.431595 0
M  V30 2 C 11.335903 9.072597 -10.052174 0
M  V30 3 C 10.725367 8.431686 -8.819372 0
M  V30 4 C 11.302855 8.820201 -7.589902 0
M  V30 5 C 10.810617 8.347373 -6.358092 0
M  V30 6 O 11.346855 8.652775 -5.126801 0
M  V30 7 C 12.357486 9.646332 -5.066905 0
M  V30 8 C 9.686142 7.516459 -6.380495 0
M  V30 9 C 9.074548 7.157607 -7.593147 0
M  V30 10 C 9.625800 7.516828 -8.851047 0
M  V30 11 C 9.044117 6.902763 -10.167692 0 CFG=1
M  V30 12 C 10.140323 6.373999 -11.113675 0
M  V30 13 C 9.680992 5.530081 -12.289651 0
M  V30 14 C 10.581254 5.217914 -13.330785 0
M  V30 15 C 10.180663 4.376827 -14.384459 0
M  V30 16 C 8.875909 3.850260 -14.404012 0
M  V30 17 C 7.967165 4.177017 -13.379082 0
M  V30 18 C 8.368188 5.020301 -12.321214 0
M  V30 19 C 7.397067 5.373796 -11.210146 0
M  V30 20 N 8.086161 5.772260 -9.948677 0 CFG=1 CHG=1
M  V30 21 C 8.656987 4.572103 -9.264127 0
M  V30 22 H 13.080266 8.875310 -11.346433 0
M  V30 23 H 13.420493 8.572136 -9.641393 0
M  V30 24 H 12.604089 7.365819 -10.585085 0
M  V30 25 H 10.626144 9.075354 -10.873737 0
M  V30 26 H 11.497421 10.131266 -9.846365 0
M  V30 27 H 12.156003 9.478072 -7.611128 0
M  V30 28 H 12.648708 9.783802 -4.026306 0
M  V30 29 H 13.253973 9.372574 -5.622117 0
M  V30 30 H 11.983752 10.597396 -5.448360 0
M  V30 31 H 9.286221 7.152948 -5.447566 0
M  V30 32 H 8.180466 6.557479 -7.517270 0
M  V30 33 H 8.498190 7.696951 -10.680639 0
M  V30 34 H 10.788004 5.788997 -10.467814 0
M  V30 35 H 10.715437 7.155982 -11.584421 0
M  V30 36 H 11.589166 5.606173 -13.314416 0
M  V30 37 H 10.876104 4.130486 -15.173602 0
M  V30 38 H 8.571446 3.201014 -15.212060 0
M  V30 39 H 6.963682 3.774644 -13.408031 0
M  V30 40 H 6.747186 6.172496 -11.561933 0
M  V30 41 H 6.757971 4.506178 -11.046867 0
M  V30 42 H 9.413924 4.096649 -9.885210 0
M  V30 43 H 9.141687 4.769425 -8.312622 0
M  V30 44 H 7.887187 3.827231 -9.063846 0
M  V30 45 H 7.361998 6.181994 -9.367325 0
M  V30 END ATOM
M  V30 BEGIN BOND
M  V30 1 1 2 1
M  V30 2 1 3 2
M  V30 3 1 4 3
M  V30 4 2 5 4
M  V30 5 1 6 5
M  V30 6 1 7 6
M  V30 7 1 8 5
M  V30 8 2 9 8
M  V30 9 2 10 3
M  V30 10 1 10 9
M  V30 11 1 11 10
M  V30 12 1 12 11
M  V30 13 1 13 12
M  V30 14 2 14 13
M  V30 15 1 15 14
M  V30 16 2 16 15
M  V30 17 1 17 16
M  V30 18 1 18 13
M  V30 19 2 18 17
M  V30 20 1 19 18
M  V30 21 1 20 11
M  V30 22 1 20 19
M  V30 23 1 21 20
M  V30 24 1 22 1
M  V30 25 1 23 1
M  V30 26 1 24 1
M  V30 27 1 25 2
M  V30 28 1 26 2
M  V30 29 1 27 4
M  V30 30 1 28 7
M  V30 31 1 29 7
M  V30 32 1 30 7
M  V30 33 1 31 8
M  V30 34 1 32 9
M  V30 35 1 11 33 CFG=3
M  V30 36 1 34 12
M  V30 37 1 35 12
M  V30 38 1 36 14
M  V30 39 1 37 15
M  V30 40 1 38 16
M  V30 41 1 39 17
M  V30 42 1 40 19
M  V30 43 1 41 19
M  V30 44 1 42 21
M  V30 45 1 43 21
M  V30 46 1 44 21
M  V30 47 1 20 45 CFG=1
M  V30 END BOND
M  V30 END CTAB
M  END
>  <b_m_subgroup_collapsed>  (1492) 
0

>  <r_i_docking_score>  (1492) 
-7.0659015595332004

>  <s_m_subgroup_title>  (1492) 
glide-dock_SP_D22_pv

>  <s_m_subgroupid>  (1492) 
glide-dock_SP_D22_pv

>  <Molecule ChEMBL ID>  (1492) 
CHEMBL594799

>  <Standard Type>  (1492) 
Ki

>  <Standard Value>  (1492) 
10000.0

>  <label>  (1492) 
0

$$$$
CHEMBL397180
     RDKit          3D

  0  0  0  0  0  0  0  0  0  0999 V3000
M  V30 BEGIN CTAB
M  V30 COUNTS 45 47 0 0 1
M  V30 BEGIN ATOM
M  V30 1 C 8.348545 3.438024 -14.245660 0
M  V30 2 O 9.363483 4.413146 -14.054152 0
M  V30 3 C 9.374355 5.120178 -12.869835 0
M  V30 4 C 8.399161 4.972369 -11.849733 0
M  V30 5 C 8.495396 5.706283 -10.652922 0
M  V30 6 C 9.553118 6.620403 -10.462622 0
M  V30 7 C 9.682752 7.391394 -9.160326 0
M  V30 8 C 11.075956 7.221293 -8.500422 0
M  V30 9 N 11.283429 8.031016 -7.269588 0 CFG=1 CHG=1
M  V30 10 C 11.075224 9.477416 -7.516889 0
M  V30 11 C 11.730349 10.378510 -6.465503 0
M  V30 12 C 11.015619 10.307920 -5.119395 0
M  V30 13 C 11.483472 9.136457 -4.301313 0
M  V30 14 C 12.085886 9.367618 -3.048120 0
M  V30 15 C 12.485559 8.286407 -2.246180 0
M  V30 16 C 12.284756 6.971096 -2.700922 0
M  V30 17 C 11.686604 6.744233 -3.953027 0
M  V30 18 C 11.285892 7.816474 -4.769907 0
M  V30 19 C 10.555872 7.518039 -6.081383 0
M  V30 20 C 10.485856 6.818447 -11.500062 0
M  V30 21 C 10.425488 6.043329 -12.673247 0
M  V30 22 Cl 11.685740 6.199624 -13.847518 0
M  V30 23 H 8.489046 2.960575 -15.214296 0
M  V30 24 H 7.355256 3.888647 -14.244365 0
M  V30 25 H 8.400514 2.659780 -13.483816 0
M  V30 26 H 7.567356 4.290819 -11.952811 0
M  V30 27 H 7.747904 5.572134 -9.883045 0
M  V30 28 H 9.478821 8.433940 -9.402472 0
M  V30 29 H 8.897028 7.078076 -8.472724 0
M  V30 30 H 11.271882 6.172495 -8.279555 0
M  V30 31 H 11.853927 7.516973 -9.204493 0
M  V30 32 H 11.486123 9.734586 -8.494003 0
M  V30 33 H 10.008849 9.693858 -7.568992 0
M  V30 34 H 12.792656 10.158669 -6.352270 0
M  V30 35 H 11.684944 11.408481 -6.813031 0
M  V30 36 H 11.165680 11.236998 -4.580259 0
M  V30 37 H 9.944046 10.186522 -5.237511 0
M  V30 38 H 12.227101 10.374325 -2.680932 0
M  V30 39 H 12.940745 8.467057 -1.285092 0
M  V30 40 H 12.584503 6.133253 -2.085927 0
M  V30 41 H 11.522058 5.736372 -4.285054 0
M  V30 42 H 9.538249 7.910814 -6.051343 0
M  V30 43 H 10.445970 6.435851 -6.166838 0
M  V30 44 H 11.293784 7.525434 -11.386800 0
M  V30 45 H 12.262759 7.920868 -7.051319 0
M  V30 END ATOM
M  V30 BEGIN BOND
M  V30 1 1 2 1
M  V30 2 1 3 2
M  V30 3 1 4 3
M  V30 4 2 5 4
M  V30 5 1 6 5
M  V30 6 1 7 6
M  V30 7 1 8 7
M  V30 8 1 9 8
M  V30 9 1 10 9
M  V30 10 1 11 10
M  V30 11 1 12 11
M  V30 12 1 13 12
M  V30 13 2 14 13
M  V30 14 1 15 14
M  V30 15 2 16 15
M  V30 16 1 17 16
M  V30 17 1 18 13
M  V30 18 2 18 17
M  V30 19 1 19 9
M  V30 20 1 19 18
M  V30 21 2 20 6
M  V30 22 2 21 3
M  V30 23 1 21 20
M  V30 24 1 22 21
M  V30 25 1 23 1
M  V30 26 1 24 1
M  V30 27 1 25 1
M  V30 28 1 26 4
M  V30 29 1 27 5
M  V30 30 1 28 7
M  V30 31 1 29 7
M  V30 32 1 30 8
M  V30 33 1 31 8
M  V30 34 1 32 10
M  V30 35 1 33 10
M  V30 36 1 34 11
M  V30 37 1 35 11
M  V30 38 1 36 12
M  V30 39 1 37 12
M  V30 40 1 38 14
M  V30 41 1 39 15
M  V30 42 1 40 16
M  V30 43 1 41 17
M  V30 44 1 42 19
M  V30 45 1 43 19
M  V30 46 1 44 20
M  V30 47 1 9 45 CFG=1
M  V30 END BOND
M  V30 END CTAB
M  END
>  <b_m_subgroup_collapsed>  (1493) 
0

>  <r_i_docking_score>  (1493) 
-7.0612727448246497

>  <s_m_subgroup_title>  (1493) 
glide-dock_SP_D22_pv

>  <s_m_subgroupid>  (1493) 
glide-dock_SP_D22_pv

>  <Molecule ChEMBL ID>  (1493) 
CHEMBL397180

>  <Standard Type>  (1493) 
Ki

>  <Standard Value>  (1493) 
10000.0

>  <label>  (1493) 
0

$$$$
CHEMBL597882
     RDKit          3D

  0  0  0  0  0  0  0  0  0  0999 V3000
M  V30 BEGIN CTAB
M  V30 COUNTS 51 55 0 0 1
M  V30 BEGIN ATOM
M  V30 1 C 10.756260 7.406775 -7.125110 0
M  V30 2 C 9.363476 6.946328 -7.581516 0
M  V30 3 C 9.344531 6.241337 -8.955992 0
M  V30 4 N 8.886023 7.110555 -10.083292 0 CFG=1 CHG=1
M  V30 5 C 9.663857 8.342828 -10.289658 0
M  V30 6 C 11.041121 7.981390 -10.833633 0
M  V30 7 C 11.030085 7.074089 -12.063419 0
M  V30 8 C 12.098846 6.972324 -12.960599 0
M  V30 9 C 12.078718 5.995299 -13.961115 0
M  V30 10 C 10.980722 5.126103 -14.078697 0
M  V30 11 C 9.829495 5.195003 -13.246359 0
M  V30 12 C 9.914429 6.205258 -12.241096 0
M  V30 13 C 8.654981 6.452027 -11.397773 0 CFG=1
M  V30 14 C 7.648538 5.299604 -11.311212 0
M  V30 15 C 7.527510 4.470949 -12.556827 0
M  V30 16 C 6.333988 3.743912 -12.730986 0
M  V30 17 C 6.221222 2.797670 -13.759665 0
M  V30 18 C 7.298459 2.568303 -14.639711 0
M  V30 19 C 7.542635 1.683288 -15.743795 0
M  V30 20 C 6.619673 0.645408 -16.306179 0
M  V30 21 C 8.811382 1.979881 -16.175970 0
M  V30 22 C 9.641933 1.407673 -17.274742 0
M  V30 23 O 9.381354 2.977771 -15.435659 0
M  V30 24 C 8.473433 3.355040 -14.464684 0
M  V30 25 C 8.621813 4.334718 -13.442487 0
M  V30 26 H 10.706693 7.837782 -6.124797 0
M  V30 27 H 11.180707 8.162802 -7.783581 0
M  V30 28 H 11.453097 6.568672 -7.085074 0
M  V30 29 H 9.000778 6.240113 -6.832839 0
M  V30 30 H 8.650527 7.772237 -7.555375 0
M  V30 31 H 10.303302 5.772331 -9.180251 0
M  V30 32 H 8.638667 5.424604 -8.830853 0
M  V30 33 H 9.138703 8.973579 -11.007860 0
M  V30 34 H 9.735066 8.934687 -9.378424 0
M  V30 35 H 11.592326 8.896717 -11.046864 0
M  V30 36 H 11.628060 7.476590 -10.066541 0
M  V30 37 H 12.964610 7.609963 -12.853652 0
M  V30 38 H 12.919241 5.898921 -14.633120 0
M  V30 39 H 11.060904 4.408571 -14.873737 0
M  V30 40 H 8.127513 7.197380 -11.996764 0
M  V30 41 H 7.924038 4.568253 -10.556477 0
M  V30 42 H 6.668358 5.696522 -11.046865 0
M  V30 43 H 5.519085 3.865849 -12.030551 0
M  V30 44 H 5.315736 2.216438 -13.846870 0
M  V30 45 H 7.164044 -0.252158 -16.601986 0
M  V30 46 H 6.093310 1.020527 -17.183952 0
M  V30 47 H 5.869486 0.341748 -15.575787 0
M  V30 48 H 9.016380 1.072615 -18.102076 0
M  V30 49 H 10.215392 0.552716 -16.916405 0
M  V30 50 H 10.343359 2.146886 -17.662495 0
M  V30 51 H 7.932875 7.410943 -9.846861 0
M  V30 END ATOM
M  V30 BEGIN BOND
M  V30 1 1 2 1
M  V30 2 1 3 2
M  V30 3 1 4 3
M  V30 4 1 5 4
M  V30 5 1 6 5
M  V30 6 1 7 6
M  V30 7 1 8 7
M  V30 8 2 9 8
M  V30 9 1 10 9
M  V30 10 2 11 10
M  V30 11 2 12 7
M  V30 12 1 12 11
M  V30 13 1 13 4
M  V30 14 1 13 12
M  V30 15 1 14 13
M  V30 16 1 15 14
M  V30 17 1 16 15
M  V30 18 2 17 16
M  V30 19 1 18 17
M  V30 20 1 19 18
M  V30 21 1 20 19
M  V30 22 2 21 19
M  V30 23 1 22 21
M  V30 24 1 23 21
M  V30 25 2 24 18
M  V30 26 1 24 23
M  V30 27 1 25 11
M  V30 28 2 25 15
M  V30 29 1 25 24
M  V30 30 1 26 1
M  V30 31 1 27 1
M  V30 32 1 28 1
M  V30 33 1 29 2
M  V30 34 1 30 2
M  V30 35 1 31 3
M  V30 36 1 32 3
M  V30 37 1 33 5
M  V30 38 1 34 5
M  V30 39 1 35 6
M  V30 40 1 36 6
M  V30 41 1 37 8
M  V30 42 1 38 9
M  V30 43 1 39 10
M  V30 44 1 13 40 CFG=3
M  V30 45 1 41 14
M  V30 46 1 42 14
M  V30 47 1 43 16
M  V30 48 1 44 17
M  V30 49 1 45 20
M  V30 50 1 46 20
M  V30 51 1 47 20
M  V30 52 1 48 22
M  V30 53 1 49 22
M  V30 54 1 50 22
M  V30 55 1 4 51 CFG=1
M  V30 END BOND
M  V30 END CTAB
M  END
>  <b_m_subgroup_collapsed>  (1494) 
0

>  <r_i_docking_score>  (1494) 
-7.0606625842975896

>  <s_m_subgroup_title>  (1494) 
glide-dock_SP_D22_pv

>  <s_m_subgroupid>  (1494) 
glide-dock_SP_D22_pv

>  <Molecule ChEMBL ID>  (1494) 
CHEMBL597882

>  <Standard Type>  (1494) 
Ki

>  <Standard Value>  (1494) 
10000.0

>  <label>  (1494) 
0

$$$$
CHEMBL131299
     RDKit          3D

  0  0  0  0  0  0  0  0  0  0999 V3000
M  V30 BEGIN CTAB
M  V30 COUNTS 45 46 0 0 1
M  V30 BEGIN ATOM
M  V30 1 C 12.512907 8.271228 -1.702057 0
M  V30 2 C 12.013270 8.327493 -3.124480 0
M  V30 3 C 11.735931 9.574930 -3.711610 0
M  V30 4 C 11.262848 9.643309 -5.034733 0
M  V30 5 C 11.035092 8.468340 -5.778796 0
M  V30 6 O 10.577335 8.635262 -7.067445 0
M  V30 7 C 10.443007 7.498828 -7.910346 0
M  V30 8 C 9.123440 6.752486 -7.646604 0
M  V30 9 C 8.869805 5.625669 -8.657592 0
M  V30 10 N 8.486025 6.172343 -9.973701 0 CHG=1
M  V30 11 C 8.313811 5.169119 -11.040532 0
M  V30 12 C 7.694004 5.807201 -12.300625 0
M  V30 13 O 7.798276 4.940211 -13.427061 0
M  V30 14 C 7.065629 3.772501 -13.441610 0
M  V30 15 C 7.489382 2.756903 -14.324041 0
M  V30 16 C 6.830742 1.511939 -14.365178 0
M  V30 17 C 5.732852 1.269782 -13.518423 0
M  V30 18 C 5.293124 2.281971 -12.646834 0
M  V30 19 C 5.940905 3.530509 -12.615504 0
M  V30 20 C 11.286266 7.212611 -5.168505 0
M  V30 21 C 11.780356 7.144197 -3.851731 0
M  V30 22 H 12.882834 7.278169 -1.446864 0
M  V30 23 H 13.320466 8.986303 -1.546399 0
M  V30 24 H 11.688694 8.529003 -1.039290 0
M  V30 25 H 11.886517 10.482038 -3.142821 0
M  V30 26 H 11.065998 10.606420 -5.482674 0
M  V30 27 H 11.307409 6.837043 -7.841509 0
M  V30 28 H 10.445060 7.876001 -8.933008 0
M  V30 29 H 8.297422 7.463258 -7.656100 0
M  V30 30 H 9.123876 6.326864 -6.644378 0
M  V30 31 H 8.068584 4.982742 -8.294834 0
M  V30 32 H 9.757061 4.997952 -8.755009 0
M  V30 33 H 9.185320 6.837000 -10.267575 0
M  V30 34 H 7.686080 4.356753 -10.673152 0
M  V30 35 H 9.287683 4.738421 -11.277310 0
M  V30 36 H 8.252345 6.708667 -12.555784 0
M  V30 37 H 6.668392 6.137536 -12.132327 0
M  V30 38 H 8.342758 2.927680 -14.963936 0
M  V30 39 H 7.176006 0.738547 -15.036180 0
M  V30 40 H 5.237976 0.309997 -13.534736 0
M  V30 41 H 4.485998 2.095771 -11.964673 0
M  V30 42 H 5.573334 4.271239 -11.921883 0
M  V30 43 H 11.130016 6.281099 -5.689140 0
M  V30 44 H 11.970864 6.178988 -3.403699 0
M  V30 45 H 7.608235 6.697971 -9.871778 0
M  V30 END ATOM
M  V30 BEGIN BOND
M  V30 1 1 2 1
M  V30 2 1 3 2
M  V30 3 2 4 3
M  V30 4 1 5 4
M  V30 5 1 6 5
M  V30 6 1 7 6
M  V30 7 1 8 7
M  V30 8 1 9 8
M  V30 9 1 10 9
M  V30 10 1 11 10
M  V30 11 1 12 11
M  V30 12 1 13 12
M  V30 13 1 14 13
M  V30 14 2 15 14
M  V30 15 1 16 15
M  V30 16 2 17 16
M  V30 17 1 18 17
M  V30 18 1 19 14
M  V30 19 2 19 18
M  V30 20 2 20 5
M  V30 21 2 21 2
M  V30 22 1 21 20
M  V30 23 1 22 1
M  V30 24 1 23 1
M  V30 25 1 24 1
M  V30 26 1 25 3
M  V30 27 1 26 4
M  V30 28 1 27 7
M  V30 29 1 28 7
M  V30 30 1 29 8
M  V30 31 1 30 8
M  V30 32 1 31 9
M  V30 33 1 32 9
M  V30 34 1 33 10
M  V30 35 1 34 11
M  V30 36 1 35 11
M  V30 37 1 36 12
M  V30 38 1 37 12
M  V30 39 1 38 15
M  V30 40 1 39 16
M  V30 41 1 40 17
M  V30 42 1 41 18
M  V30 43 1 42 19
M  V30 44 1 43 20
M  V30 45 1 44 21
M  V30 46 1 45 10
M  V30 END BOND
M  V30 END CTAB
M  END
>  <b_m_subgroup_collapsed>  (1495) 
0

>  <r_i_docking_score>  (1495) 
-7.0597348863827998

>  <s_m_subgroup_title>  (1495) 
glide-dock_SP_D22_pv

>  <s_m_subgroupid>  (1495) 
glide-dock_SP_D22_pv

>  <Molecule ChEMBL ID>  (1495) 
CHEMBL131299

>  <Standard Type>  (1495) 
Ki

>  <Standard Value>  (1495) 
64.0

>  <label>  (1495) 
1

$$$$
CHEMBL1188090
     RDKit          3D

  0  0  0  0  0  0  0  0  0  0999 V3000
M  V30 BEGIN CTAB
M  V30 COUNTS 47 48 0 0 1
M  V30 BEGIN ATOM
M  V30 1 C 9.686054 4.173402 -9.676451 0
M  V30 2 C 8.486715 4.766006 -8.933357 0
M  V30 3 C 8.865537 5.783574 -7.844266 0
M  V30 4 N 9.028353 7.217600 -8.244829 0 CFG=2 CHG=1
M  V30 5 C 9.909264 7.484486 -9.419873 0
M  V30 6 C 9.196868 7.365403 -10.784430 0
M  V30 7 C 10.078545 6.831306 -11.897784 0
M  V30 8 C 9.613461 5.771306 -12.707580 0
M  V30 9 C 10.416243 5.265493 -13.748927 0
M  V30 10 C 11.678047 5.834764 -14.004023 0
M  V30 11 C 12.138293 6.896952 -13.204165 0
M  V30 12 C 11.356154 7.372318 -12.136099 0
M  V30 13 C 9.427321 8.014591 -7.047945 0
M  V30 14 C 10.933374 7.875729 -6.702032 0
M  V30 15 C 11.286372 8.188388 -5.259661 0
M  V30 16 C 11.285714 9.513561 -4.774811 0
M  V30 17 C 11.685321 9.771878 -3.446598 0
M  V30 18 C 12.088516 8.721014 -2.604791 0
M  V30 19 C 12.085684 7.399786 -3.083125 0
M  V30 20 O 12.478099 6.385118 -2.263066 0
M  V30 21 C 11.682858 7.134181 -4.405644 0
M  V30 22 H 9.421411 3.778613 -10.657860 0
M  V30 23 H 10.482561 4.886536 -9.838942 0
M  V30 24 H 10.105447 3.354976 -9.093208 0
M  V30 25 H 8.022983 3.917171 -8.433601 0
M  V30 26 H 7.719243 5.144343 -9.604945 0
M  V30 27 H 9.754697 5.416243 -7.337362 0
M  V30 28 H 8.067972 5.769806 -7.100092 0
M  V30 29 H 10.283579 8.508225 -9.367513 0
M  V30 30 H 10.805417 6.871190 -9.355033 0
M  V30 31 H 8.314220 6.742539 -10.738864 0
M  V30 32 H 8.824296 8.345081 -11.082821 0
M  V30 33 H 8.638853 5.337061 -12.534955 0
M  V30 34 H 10.056376 4.452299 -14.361853 0
M  V30 35 H 12.291302 5.460325 -14.811039 0
M  V30 36 H 13.107982 7.333907 -13.396455 0
M  V30 37 H 11.736114 8.171898 -11.516963 0
M  V30 38 H 8.815300 7.703715 -6.201806 0
M  V30 39 H 9.182995 9.063522 -7.214689 0
M  V30 40 H 11.520848 8.538346 -7.339046 0
M  V30 41 H 11.301581 6.874649 -6.919146 0
M  V30 42 H 10.995227 10.331369 -5.418285 0
M  V30 43 H 11.684433 10.778821 -3.056501 0
M  V30 44 H 12.392186 8.931793 -1.589334 0
M  V30 45 H 12.228936 5.525691 -2.572265 0
M  V30 46 H 11.689332 6.116453 -4.769024 0
M  V30 47 H 8.095390 7.525007 -8.504573 0
M  V30 END ATOM
M  V30 BEGIN BOND
M  V30 1 1 2 1
M  V30 2 1 3 2
M  V30 3 1 4 3
M  V30 4 1 5 4
M  V30 5 1 6 5
M  V30 6 1 7 6
M  V30 7 2 8 7
M  V30 8 1 9 8
M  V30 9 2 10 9
M  V30 10 1 11 10
M  V30 11 1 12 7
M  V30 12 2 12 11
M  V30 13 1 13 4
M  V30 14 1 14 13
M  V30 15 1 15 14
M  V30 16 2 16 15
M  V30 17 1 17 16
M  V30 18 2 18 17
M  V30 19 1 19 18
M  V30 20 1 20 19
M  V30 21 1 21 15
M  V30 22 2 21 19
M  V30 23 1 22 1
M  V30 24 1 23 1
M  V30 25 1 24 1
M  V30 26 1 25 2
M  V30 27 1 26 2
M  V30 28 1 27 3
M  V30 29 1 28 3
M  V30 30 1 29 5
M  V30 31 1 30 5
M  V30 32 1 31 6
M  V30 33 1 32 6
M  V30 34 1 33 8
M  V30 35 1 34 9
M  V30 36 1 35 10
M  V30 37 1 36 11
M  V30 38 1 37 12
M  V30 39 1 38 13
M  V30 40 1 39 13
M  V30 41 1 40 14
M  V30 42 1 41 14
M  V30 43 1 42 16
M  V30 44 1 43 17
M  V30 45 1 44 18
M  V30 46 1 45 20
M  V30 47 1 46 21
M  V30 48 1 4 47 CFG=3
M  V30 END BOND
M  V30 END CTAB
M  END
>  <b_m_subgroup_collapsed>  (1496) 
0

>  <r_i_docking_score>  (1496) 
-7.0595382469827799

>  <s_m_subgroup_title>  (1496) 
glide-dock_SP_D22_pv

>  <s_m_subgroupid>  (1496) 
glide-dock_SP_D22_pv

>  <Molecule ChEMBL ID>  (1496) 
CHEMBL1188090

>  <Standard Type>  (1496) 
Ki

>  <Standard Value>  (1496) 
64.4

>  <label>  (1496) 
1

$$$$
CHEMBL300555
     RDKit          3D

  0  0  0  0  0  0  0  0  0  0999 V3000
M  V30 BEGIN CTAB
M  V30 COUNTS 54 58 0 0 1
M  V30 BEGIN ATOM
M  V30 1 O 11.707472 7.299276 -12.156309 0
M  V30 2 C 10.927457 6.512258 -12.688046 0
M  V30 3 N 11.209631 5.778362 -13.753905 0
M  V30 4 C 10.101126 4.956390 -14.178577 0
M  V30 5 N 8.983943 5.384062 -13.329386 0
M  V30 6 C 7.832296 4.550744 -13.263941 0
M  V30 7 C 7.717710 3.389005 -14.079227 0
M  V30 8 C 6.609688 2.527432 -13.981197 0
M  V30 9 C 5.586321 2.792836 -13.055525 0
M  V30 10 C 5.665024 3.948175 -12.263747 0
M  V30 11 C 6.756886 4.821866 -12.383410 0
M  V30 12 C 9.489226 6.233976 -12.229198 0 CFG=2
M  V30 13 C 8.748732 7.592808 -12.048569 0
M  V30 14 C 9.246238 8.402419 -10.823447 0
M  V30 15 N 9.243117 7.573187 -9.590134 0 CFG=2 CHG=1
M  V30 16 C 9.488975 8.320951 -8.332177 0
M  V30 17 C 10.903787 8.936658 -8.158486 0 CFG=2
M  V30 18 C 12.071631 7.960169 -7.930224 0
M  V30 19 O 11.685962 7.089489 -6.869576 0
M  V30 20 C 11.452210 7.795593 -5.710534 0
M  V30 21 C 11.691605 7.189820 -4.464149 0
M  V30 22 C 11.740531 7.984439 -3.303492 0
M  V30 23 C 11.498241 9.369823 -3.390014 0
M  V30 24 C 11.142448 9.952555 -4.619456 0
M  V30 25 C 11.124092 9.170071 -5.784591 0
M  V30 26 O 10.885562 9.772538 -7.001637 0
M  V30 27 C 9.984084 6.293232 -9.708090 0
M  V30 28 C 9.485640 5.455881 -10.880570 0
M  V30 29 H 12.103312 5.791763 -14.227429 0
M  V30 30 H 10.369555 3.911855 -14.015465 0
M  V30 31 H 9.883414 5.119583 -15.236090 0
M  V30 32 H 8.474836 3.123147 -14.800203 0
M  V30 33 H 6.552029 1.647310 -14.606688 0
M  V30 34 H 4.742638 2.126522 -12.964599 0
M  V30 35 H 4.887996 4.173327 -11.551698 0
M  V30 36 H 6.737392 5.681661 -11.737974 0
M  V30 37 H 8.813313 8.222284 -12.940380 0
M  V30 38 H 7.686001 7.444231 -11.928623 0
M  V30 39 H 8.573276 9.249172 -10.678188 0
M  V30 40 H 10.228662 8.835605 -10.996413 0
M  V30 41 H 8.753847 9.127925 -8.291891 0
M  V30 42 H 9.237019 7.675571 -7.490652 0
M  V30 43 H 11.136521 9.582469 -9.004730 0
M  V30 44 H 12.396827 7.423470 -8.814489 0
M  V30 45 H 12.957528 8.535339 -7.651195 0
M  V30 46 H 11.933272 6.138401 -4.411274 0
M  V30 47 H 11.980039 7.532263 -2.352227 0
M  V30 48 H 11.550114 9.978868 -2.500229 0
M  V30 49 H 10.922129 11.007402 -4.677757 0
M  V30 50 H 9.892883 5.722619 -8.784109 0
M  V30 51 H 11.034445 6.463578 -9.872189 0
M  V30 52 H 8.495714 5.106877 -10.602173 0
M  V30 53 H 10.085581 4.548748 -10.970187 0
M  V30 54 H 8.264133 7.308804 -9.521536 0
M  V30 END ATOM
M  V30 BEGIN BOND
M  V30 1 2 2 1
M  V30 2 1 3 2
M  V30 3 1 4 3
M  V30 4 1 5 4
M  V30 5 1 6 5
M  V30 6 2 7 6
M  V30 7 1 8 7
M  V30 8 2 9 8
M  V30 9 1 10 9
M  V30 10 1 11 6
M  V30 11 2 11 10
M  V30 12 1 12 2
M  V30 13 1 12 5 CFG=3
M  V30 14 1 13 12
M  V30 15 1 14 13
M  V30 16 1 15 14
M  V30 17 1 16 15
M  V30 18 1 17 16
M  V30 19 1 18 17
M  V30 20 1 19 18
M  V30 21 1 20 19
M  V30 22 2 21 20
M  V30 23 1 22 21
M  V30 24 2 23 22
M  V30 25 1 24 23
M  V30 26 1 25 20
M  V30 27 2 25 24
M  V30 28 1 26 17
M  V30 29 1 26 25
M  V30 30 1 27 15
M  V30 31 1 28 12
M  V30 32 1 28 27
M  V30 33 1 29 3
M  V30 34 1 30 4
M  V30 35 1 31 4
M  V30 36 1 32 7
M  V30 37 1 33 8
M  V30 38 1 34 9
M  V30 39 1 35 10
M  V30 40 1 36 11
M  V30 41 1 37 13
M  V30 42 1 38 13
M  V30 43 1 39 14
M  V30 44 1 40 14
M  V30 45 1 41 16
M  V30 46 1 42 16
M  V30 47 1 17 43 CFG=3
M  V30 48 1 44 18
M  V30 49 1 45 18
M  V30 50 1 46 21
M  V30 51 1 47 22
M  V30 52 1 48 23
M  V30 53 1 49 24
M  V30 54 1 50 27
M  V30 55 1 51 27
M  V30 56 1 52 28
M  V30 57 1 53 28
M  V30 58 1 15 54 CFG=1
M  V30 END BOND
M  V30 END CTAB
M  END
>  <b_m_subgroup_collapsed>  (1497) 
0

>  <r_i_docking_score>  (1497) 
-7.0586864404930996

>  <s_m_subgroup_title>  (1497) 
glide-dock_SP_D22_pv

>  <s_m_subgroupid>  (1497) 
glide-dock_SP_D22_pv

>  <Molecule ChEMBL ID>  (1497) 
CHEMBL300555

>  <Standard Type>  (1497) 
Ki

>  <Standard Value>  (1497) 
6.711

>  <label>  (1497) 
1

$$$$
CHEMBL4091155
     RDKit          3D

  0  0  0  0  0  0  0  0  0  0999 V3000
M  V30 BEGIN CTAB
M  V30 COUNTS 52 55 0 0 1
M  V30 BEGIN ATOM
M  V30 1 O 10.486149 6.518222 -8.638522 0
M  V30 2 C 10.542867 7.743957 -8.713580 0
M  V30 3 C 10.376272 8.426790 -10.078492 0
M  V30 4 C 10.241744 7.436713 -11.258392 0
M  V30 5 C 8.866514 6.748305 -11.301450 0
M  V30 6 N 8.745357 5.802392 -12.407436 0
M  V30 7 C 7.324224 5.489811 -12.591668 0
M  V30 8 C 7.193659 4.611990 -13.844770 0
M  V30 9 N 7.922782 3.371077 -13.663124 0
M  V30 10 C 7.458094 2.174975 -14.247122 0
M  V30 11 C 8.251124 1.470635 -15.181767 0
M  V30 12 C 7.794016 0.259621 -15.739983 0
M  V30 13 C 6.534275 -0.248892 -15.377155 0
M  V30 14 C 5.746693 0.419514 -14.425844 0
M  V30 15 Cl 4.198177 -0.228541 -14.010597 0
M  V30 16 C 6.211563 1.621602 -13.847336 0
M  V30 17 Cl 5.258023 2.387611 -12.628422 0
M  V30 18 C 9.325218 3.562605 -13.321721 0
M  V30 19 C 9.437263 4.536436 -12.123744 0
M  V30 20 N 10.742690 8.566610 -7.663405 0
M  V30 21 C 11.096131 8.247157 -6.318311 0
M  V30 22 C 11.261586 6.911256 -5.844765 0
M  V30 23 C 11.684085 6.658180 -4.564457 0
M  V30 24 N 11.944799 7.693695 -3.739084 0
M  V30 25 N 12.395370 7.585208 -2.451433 0
M  V30 26 C 12.478849 8.829553 -2.047790 0
M  V30 27 C 12.082933 9.772542 -3.022154 0
M  V30 28 C 11.763678 9.033949 -4.124068 0
M  V30 29 C 11.325065 9.299280 -5.451655 0
M  V30 30 H 9.508025 9.086905 -10.044368 0
M  V30 31 H 11.248443 9.061007 -10.243235 0
M  V30 32 H 10.390026 7.973030 -12.195287 0
M  V30 33 H 11.042792 6.699398 -11.211511 0
M  V30 34 H 8.614787 6.259948 -10.358253 0
M  V30 35 H 8.137243 7.543188 -11.447049 0
M  V30 36 H 6.909056 4.992630 -11.712327 0
M  V30 37 H 6.754872 6.410580 -12.729068 0
M  V30 38 H 6.152605 4.451990 -14.127268 0
M  V30 39 H 7.684671 5.148695 -14.647810 0
M  V30 40 H 9.214768 1.856893 -15.479095 0
M  V30 41 H 8.403202 -0.273156 -16.456051 0
M  V30 42 H 6.179554 -1.168171 -15.821659 0
M  V30 43 H 9.783185 2.606750 -13.064164 0
M  V30 44 H 9.861383 3.960138 -14.184837 0
M  V30 45 H 10.486015 4.720318 -11.919874 0
M  V30 46 H 9.019929 4.077733 -11.224886 0
M  V30 47 H 10.711191 9.549574 -7.879469 0
M  V30 48 H 11.082009 6.046433 -6.470212 0
M  V30 49 H 11.839028 5.668270 -4.163281 0
M  V30 50 H 12.818096 9.045022 -1.046682 0
M  V30 51 H 12.051154 10.841335 -2.884433 0
M  V30 52 H 11.201774 10.329967 -5.765974 0
M  V30 END ATOM
M  V30 BEGIN BOND
M  V30 1 2 2 1
M  V30 2 1 3 2
M  V30 3 1 4 3
M  V30 4 1 5 4
M  V30 5 1 6 5
M  V30 6 1 7 6
M  V30 7 1 8 7
M  V30 8 1 9 8
M  V30 9 1 10 9
M  V30 10 2 11 10
M  V30 11 1 12 11
M  V30 12 2 13 12
M  V30 13 1 14 13
M  V30 14 1 15 14
M  V30 15 1 16 10
M  V30 16 2 16 14
M  V30 17 1 17 16
M  V30 18 1 18 9
M  V30 19 1 19 6
M  V30 20 1 19 18
M  V30 21 1 20 2
M  V30 22 1 21 20
M  V30 23 1 22 21
M  V30 24 2 23 22
M  V30 25 1 24 23
M  V30 26 1 25 24
M  V30 27 2 26 25
M  V30 28 1 27 26
M  V30 29 1 28 24
M  V30 30 2 28 27
M  V30 31 2 29 21
M  V30 32 1 29 28
M  V30 33 1 30 3
M  V30 34 1 31 3
M  V30 35 1 32 4
M  V30 36 1 33 4
M  V30 37 1 34 5
M  V30 38 1 35 5
M  V30 39 1 36 7
M  V30 40 1 37 7
M  V30 41 1 38 8
M  V30 42 1 39 8
M  V30 43 1 40 11
M  V30 44 1 41 12
M  V30 45 1 42 13
M  V30 46 1 43 18
M  V30 47 1 44 18
M  V30 48 1 45 19
M  V30 49 1 46 19
M  V30 50 1 47 20
M  V30 51 1 48 22
M  V30 52 1 49 23
M  V30 53 1 50 26
M  V30 54 1 51 27
M  V30 55 1 52 29
M  V30 END BOND
M  V30 END CTAB
M  END
>  <b_m_subgroup_collapsed>  (1498) 
0

>  <r_i_docking_score>  (1498) 
-7.05845524475993

>  <s_m_subgroup_title>  (1498) 
glide-dock_SP_D22_pv

>  <s_m_subgroupid>  (1498) 
glide-dock_SP_D22_pv

>  <Molecule ChEMBL ID>  (1498) 
CHEMBL4091155

>  <Standard Type>  (1498) 
Ki

>  <Standard Value>  (1498) 
7.8

>  <label>  (1498) 
1

$$$$
CHEMBL509451
     RDKit          3D

  0  0  0  0  0  0  0  0  0  0999 V3000
M  V30 BEGIN CTAB
M  V30 COUNTS 97 104 0 0 1
M  V30 BEGIN ATOM
M  V30 1 C 11.284221 7.844357 -6.731511 0
M  V30 2 C 9.875496 7.347633 -7.088613 0
M  V30 3 C 9.785998 6.636442 -8.457421 0
M  V30 4 N 9.281748 7.494920 -9.572674 0 CFG=1 CHG=1
M  V30 5 C 10.046612 8.728087 -9.819461 0
M  V30 6 C 11.417772 8.371140 -10.394218 0
M  V30 7 C 11.380363 7.458485 -11.616389 0
M  V30 8 C 12.405342 7.372414 -12.569143 0
M  V30 9 C 12.285237 6.491644 -13.650513 0
M  V30 10 C 11.165536 5.653462 -13.759897 0
M  V30 11 C 10.088110 5.684613 -12.841596 0
M  V30 12 C 10.237479 6.631640 -11.787981 0
M  V30 13 C 9.019599 6.805261 -10.866988 0 CFG=1
M  V30 14 C 8.186660 5.531407 -10.704231 0
M  V30 15 C 7.891517 4.841769 -12.009386 0
M  V30 16 C 6.671774 4.161416 -12.190965 0
M  V30 17 C 6.483628 3.345684 -13.316422 0
M  V30 18 C 7.514736 3.207768 -14.261665 0
M  V30 19 O 7.299818 2.385937 -15.347580 0
M  V30 20 C 8.276307 1.610573 -15.881735 0
M  V30 21 O 9.351283 1.322308 -15.351114 0
M  V30 22 C 7.899290 1.139468 -17.291424 0
M  V30 23 C 9.006433 0.384346 -18.060173 0
M  V30 24 C 10.274868 1.191816 -18.422333 0
M  V30 25 C 10.050908 2.318316 -19.437357 0
M  V30 26 O 10.331509 2.172038 -20.625362 0
M  V30 27 O 9.584895 3.444661 -18.864037 0
M  V30 28 C 9.554839 4.629502 -19.560987 0
M  V30 29 C 8.485989 4.833679 -20.461750 0
M  V30 30 C 8.332757 6.054181 -21.137152 0
M  V30 31 C 9.264843 7.078504 -20.931181 0
M  V30 32 C 10.351125 6.878739 -20.055428 0
M  V30 33 C 10.515535 5.664386 -19.340094 0
M  V30 34 C 11.697309 5.554830 -18.435822 0
M  V30 35 C 11.781289 4.643823 -17.348429 0
M  V30 36 C 12.910233 4.533715 -16.518726 0
M  V30 37 C 13.988002 5.410429 -16.681145 0
M  V30 38 C 13.950083 6.372539 -17.696432 0
M  V30 39 C 12.835494 6.400417 -18.577785 0
M  V30 40 C 12.803159 7.360772 -19.792631 0 CFG=1
M  V30 41 C 11.392824 7.971326 -19.927633 0
M  V30 42 N 13.875880 8.401938 -19.844290 0 CFG=2 CHG=1
M  V30 43 C 14.067928 8.999087 -21.197224 0
M  V30 44 C 14.554200 10.461028 -21.152168 0
M  V30 45 C 16.075375 10.664279 -21.285406 0
M  V30 46 C 15.154724 7.883896 -19.323051 0
M  V30 47 C 14.986823 7.454889 -17.883726 0
M  V30 48 C 8.682920 3.994562 -14.127703 0
M  V30 49 C 8.885817 4.831780 -13.005387 0
M  V30 50 H 11.318867 8.194180 -5.700786 0
M  V30 51 H 11.609440 8.668498 -7.364480 0
M  V30 52 H 12.012450 7.037288 -6.832542 0
M  V30 53 H 9.590196 6.624559 -6.322188 0
M  V30 54 H 9.139396 8.150517 -7.013409 0
M  V30 55 H 10.728656 6.156895 -8.723501 0
M  V30 56 H 9.073460 5.829197 -8.299304 0
M  V30 57 H 9.489227 9.338437 -10.530451 0
M  V30 58 H 10.133044 9.340130 -8.922812 0
M  V30 59 H 11.947539 9.289394 -10.649323 0
M  V30 60 H 12.036307 7.887266 -9.636871 0
M  V30 61 H 13.284662 7.992499 -12.476324 0
M  V30 62 H 13.079448 6.437358 -14.378629 0
M  V30 63 H 11.149379 4.971916 -14.591578 0
M  V30 64 H 8.389647 7.492272 -11.437099 0
M  V30 65 H 8.724497 4.783387 -10.123784 0
M  V30 66 H 7.285635 5.772195 -10.159760 0
M  V30 67 H 5.894691 4.215438 -11.446953 0
M  V30 68 H 5.562177 2.792881 -13.432183 0
M  V30 69 H 7.030855 0.488663 -17.191334 0
M  V30 70 H 7.568774 2.003038 -17.866856 0
M  V30 71 H 9.305593 -0.488170 -17.479582 0
M  V30 72 H 8.575198 -0.016987 -18.977112 0
M  V30 73 H 10.726280 1.612468 -17.524736 0
M  V30 74 H 11.018276 0.515777 -18.842918 0
M  V30 75 H 7.762809 4.050241 -20.632551 0
M  V30 76 H 7.503363 6.200974 -21.812029 0
M  V30 77 H 9.152609 8.012990 -21.463354 0
M  V30 78 H 10.961165 3.994023 -17.098526 0
M  V30 79 H 12.926540 3.803374 -15.723959 0
M  V30 80 H 14.827029 5.371598 -16.002224 0
M  V30 81 H 12.975523 6.714442 -20.657431 0
M  V30 82 H 11.303778 8.639803 -20.780418 0
M  V30 83 H 11.160028 8.568563 -19.046568 0
M  V30 84 H 14.729031 8.383355 -21.809664 0
M  V30 85 H 13.127016 9.007833 -21.744164 0
M  V30 86 H 14.103050 10.971095 -22.005747 0
M  V30 87 H 14.174045 10.972402 -20.263182 0
M  V30 88 H 16.300842 11.716125 -21.464800 0
M  V30 89 H 16.477919 10.105271 -22.128622 0
M  V30 90 H 16.621683 10.376938 -20.392881 0
M  V30 91 H 15.501954 7.045745 -19.932833 0
M  V30 92 H 15.928000 8.645271 -19.359079 0
M  V30 93 H 14.702563 8.310514 -17.270178 0
M  V30 94 H 15.941669 7.094567 -17.493973 0
M  V30 95 H 9.418532 3.938159 -14.912201 0
M  V30 96 H 8.351168 7.787514 -9.286506 0
M  V30 97 H 13.573618 9.141814 -19.225378 0
M  V30 END ATOM
M  V30 BEGIN BOND
M  V30 1 1 2 1
M  V30 2 1 3 2
M  V30 3 1 4 3
M  V30 4 1 5 4
M  V30 5 1 6 5
M  V30 6 1 7 6
M  V30 7 1 8 7
M  V30 8 2 9 8
M  V30 9 1 10 9
M  V30 10 2 11 10
M  V30 11 2 12 7
M  V30 12 1 12 11
M  V30 13 1 13 4
M  V30 14 1 13 12
M  V30 15 1 14 13
M  V30 16 1 15 14
M  V30 17 2 16 15
M  V30 18 1 17 16
M  V30 19 2 18 17
M  V30 20 1 19 18
M  V30 21 1 20 19
M  V30 22 2 21 20
M  V30 23 1 22 20
M  V30 24 1 23 22
M  V30 25 1 24 23
M  V30 26 1 25 24
M  V30 27 2 26 25
M  V30 28 1 27 25
M  V30 29 1 28 27
M  V30 30 2 29 28
M  V30 31 1 30 29
M  V30 32 2 31 30
M  V30 33 1 32 31
M  V30 34 1 33 28
M  V30 35 2 33 32
M  V30 36 1 34 33
M  V30 37 2 35 34
M  V30 38 1 36 35
M  V30 39 2 37 36
M  V30 40 1 38 37
M  V30 41 1 39 34
M  V30 42 2 39 38
M  V30 43 1 40 39
M  V30 44 1 41 32
M  V30 45 1 41 40
M  V30 46 1 42 40
M  V30 47 1 43 42
M  V30 48 1 44 43
M  V30 49 1 45 44
M  V30 50 1 46 42
M  V30 51 1 47 38
M  V30 52 1 47 46
M  V30 53 1 48 18
M  V30 54 1 49 11
M  V30 55 1 49 15
M  V30 56 2 49 48
M  V30 57 1 50 1
M  V30 58 1 51 1
M  V30 59 1 52 1
M  V30 60 1 53 2
M  V30 61 1 54 2
M  V30 62 1 55 3
M  V30 63 1 56 3
M  V30 64 1 57 5
M  V30 65 1 58 5
M  V30 66 1 59 6
M  V30 67 1 60 6
M  V30 68 1 61 8
M  V30 69 1 62 9
M  V30 70 1 63 10
M  V30 71 1 13 64 CFG=3
M  V30 72 1 65 14
M  V30 73 1 66 14
M  V30 74 1 67 16
M  V30 75 1 68 17
M  V30 76 1 69 22
M  V30 77 1 70 22
M  V30 78 1 71 23
M  V30 79 1 72 23
M  V30 80 1 73 24
M  V30 81 1 74 24
M  V30 82 1 75 29
M  V30 83 1 76 30
M  V30 84 1 77 31
M  V30 85 1 78 35
M  V30 86 1 79 36
M  V30 87 1 80 37
M  V30 88 1 40 81 CFG=3
M  V30 89 1 82 41
M  V30 90 1 83 41
M  V30 91 1 84 43
M  V30 92 1 85 43
M  V30 93 1 86 44
M  V30 94 1 87 44
M  V30 95 1 88 45
M  V30 96 1 89 45
M  V30 97 1 90 45
M  V30 98 1 91 46
M  V30 99 1 92 46
M  V30 100 1 93 47
M  V30 101 1 94 47
M  V30 102 1 95 48
M  V30 103 1 4 96 CFG=1
M  V30 104 1 42 97 CFG=1
M  V30 END BOND
M  V30 END CTAB
M  END
>  <b_m_subgroup_collapsed>  (1499) 
0

>  <r_i_docking_score>  (1499) 
-7.0582655090297699

>  <s_m_subgroup_title>  (1499) 
glide-dock_SP_D22_pv

>  <s_m_subgroupid>  (1499) 
glide-dock_SP_D22_pv

>  <Molecule ChEMBL ID>  (1499) 
CHEMBL509451

>  <Standard Type>  (1499) 
Ki

>  <Standard Value>  (1499) 
10000.0

>  <label>  (1499) 
0

$$$$
CHEMBL88464
     RDKit          3D

  0  0  0  0  0  0  0  0  0  0999 V3000
M  V30 BEGIN CTAB
M  V30 COUNTS 43 46 0 0 1
M  V30 BEGIN ATOM
M  V30 1 C 9.164305 7.177599 -7.004541 0
M  V30 2 N 8.886206 6.988441 -8.443391 0 CHG=1
M  V30 3 C 8.852169 5.563951 -8.837246 0
M  V30 4 C 8.416079 5.437080 -10.300585 0
M  V30 5 N 9.266125 6.214635 -11.210726 0
M  V30 6 C 9.725950 5.727541 -12.444284 0
M  V30 7 C 10.886523 6.171250 -12.982674 0
M  V30 8 C 11.551984 5.694127 -14.202658 0
M  V30 9 C 12.261594 6.620209 -14.995951 0
M  V30 10 C 12.881969 6.210265 -16.190231 0
M  V30 11 Cl 13.729814 7.360998 -17.155098 0
M  V30 12 C 12.801761 4.865437 -16.598812 0
M  V30 13 C 12.098231 3.934317 -15.811137 0
M  V30 14 C 11.473584 4.345846 -14.617451 0
M  V30 15 O 10.829790 3.418062 -13.847719 0
M  V30 16 C 9.474142 3.557400 -13.750941 0
M  V30 17 C 8.661415 2.553362 -14.315169 0
M  V30 18 C 7.259809 2.650210 -14.248780 0
M  V30 19 C 6.668569 3.770963 -13.642045 0
M  V30 20 C 7.480411 4.778550 -13.087748 0
M  V30 21 C 8.893991 4.671157 -13.092148 0
M  V30 22 C 9.414598 7.616151 -10.801708 0
M  V30 23 C 9.797805 7.765743 -9.317418 0
M  V30 24 H 10.173272 6.848112 -6.750262 0
M  V30 25 H 9.060877 8.227476 -6.727600 0
M  V30 26 H 8.459896 6.605998 -6.400936 0
M  V30 27 H 8.149759 5.021303 -8.203363 0
M  V30 28 H 9.834313 5.110323 -8.693025 0
M  V30 29 H 7.383954 5.772479 -10.406589 0
M  V30 30 H 8.429569 4.380610 -10.567015 0
M  V30 31 H 11.462267 6.907510 -12.444062 0
M  V30 32 H 12.322902 7.656054 -14.695560 0
M  V30 33 H 13.280129 4.546450 -17.512762 0
M  V30 34 H 12.044930 2.900013 -16.117907 0
M  V30 35 H 9.119283 1.701002 -14.795874 0
M  V30 36 H 6.640838 1.875721 -14.677708 0
M  V30 37 H 5.592683 3.863968 -13.608459 0
M  V30 38 H 7.003836 5.638259 -12.639331 0
M  V30 39 H 10.149722 8.140915 -11.408759 0
M  V30 40 H 8.483956 8.137300 -10.998362 0
M  V30 41 H 9.767718 8.819860 -9.038054 0
M  V30 42 H 10.823222 7.424579 -9.166372 0
M  V30 43 H 7.941358 7.335750 -8.602572 0
M  V30 END ATOM
M  V30 BEGIN BOND
M  V30 1 1 2 1
M  V30 2 1 3 2
M  V30 3 1 4 3
M  V30 4 1 5 4
M  V30 5 1 6 5
M  V30 6 2 7 6
M  V30 7 1 8 7
M  V30 8 1 9 8
M  V30 9 2 10 9
M  V30 10 1 11 10
M  V30 11 1 12 10
M  V30 12 2 13 12
M  V30 13 2 14 8
M  V30 14 1 14 13
M  V30 15 1 15 14
M  V30 16 1 16 15
M  V30 17 2 17 16
M  V30 18 1 18 17
M  V30 19 2 19 18
M  V30 20 1 20 19
M  V30 21 1 21 6
M  V30 22 1 21 16
M  V30 23 2 21 20
M  V30 24 1 22 5
M  V30 25 1 23 2
M  V30 26 1 23 22
M  V30 27 1 24 1
M  V30 28 1 25 1
M  V30 29 1 26 1
M  V30 30 1 27 3
M  V30 31 1 28 3
M  V30 32 1 29 4
M  V30 33 1 30 4
M  V30 34 1 31 7
M  V30 35 1 32 9
M  V30 36 1 33 12
M  V30 37 1 34 13
M  V30 38 1 35 17
M  V30 39 1 36 18
M  V30 40 1 37 19
M  V30 41 1 38 20
M  V30 42 1 39 22
M  V30 43 1 40 22
M  V30 44 1 41 23
M  V30 45 1 42 23
M  V30 46 1 43 2
M  V30 END BOND
M  V30 END CTAB
M  END
>  <b_m_subgroup_collapsed>  (1500) 
0

>  <r_i_docking_score>  (1500) 
-7.0575989905187297

>  <s_m_subgroup_title>  (1500) 
glide-dock_SP_D22_pv

>  <s_m_subgroupid>  (1500) 
glide-dock_SP_D22_pv

>  <Molecule ChEMBL ID>  (1500) 
CHEMBL88464

>  <Standard Type>  (1500) 
Ki

>  <Standard Value>  (1500) 
8.7

>  <label>  (1500) 
1

$$$$
CHEMBL544115
     RDKit          3D

  0  0  0  0  0  0  0  0  0  0999 V3000
M  V30 BEGIN CTAB
M  V30 COUNTS 44 46 0 0 1
M  V30 BEGIN ATOM
M  V30 1 C 10.557292 7.369986 -10.255510 0
M  V30 2 C 9.278844 7.159067 -10.612121 0
M  V30 3 C 8.572513 5.814231 -10.586405 0
M  V30 4 N 8.127350 5.422900 -11.951743 0 CFG=2 CHG=1
M  V30 5 C 6.889025 4.600750 -11.884884 0
M  V30 6 C 6.294307 4.142597 -13.219969 0
M  V30 7 C 7.043929 2.973784 -13.846606 0
M  V30 8 C 8.345998 3.177634 -14.357743 0
M  V30 9 C 9.037231 2.078435 -14.929791 0
M  V30 10 C 8.451602 0.801646 -14.990160 0
M  V30 11 O 9.166443 -0.227151 -15.542048 0
M  V30 12 C 7.164520 0.600103 -14.458199 0
M  V30 13 O 6.572347 -0.627825 -14.509830 0
M  V30 14 C 6.478898 1.672784 -13.852409 0
M  V30 15 Cl 4.971489 1.346447 -13.059591 0
M  V30 16 C 9.013253 4.553962 -14.230759 0 CFG=2
M  V30 17 C 10.264939 4.678950 -15.106086 0
M  V30 18 C 10.111065 4.972306 -16.478823 0
M  V30 19 C 11.236487 5.127221 -17.309727 0
M  V30 20 C 12.529976 4.985170 -16.775805 0
M  V30 21 C 12.694692 4.677207 -15.412621 0
M  V30 22 C 11.570005 4.512314 -14.582438 0
M  V30 23 C 9.284282 4.914016 -12.747484 0
M  V30 24 H 11.192792 6.570627 -9.910087 0
M  V30 25 H 10.985938 8.359356 -10.305719 0
M  V30 26 H 8.686430 8.002222 -10.944810 0
M  V30 27 H 9.213707 5.044484 -10.152694 0
M  V30 28 H 7.719718 5.916197 -9.913113 0
M  V30 29 H 7.017110 3.763779 -11.200217 0
M  V30 30 H 6.130997 5.248741 -11.446792 0
M  V30 31 H 5.248373 3.891351 -13.061646 0
M  V30 32 H 6.246941 4.971758 -13.917060 0
M  V30 33 H 10.038590 2.184406 -15.319839 0
M  V30 34 H 8.766301 -1.086340 -15.453211 0
M  V30 35 H 7.008989 -1.281565 -15.042793 0
M  V30 36 H 8.330418 5.300952 -14.635167 0
M  V30 37 H 9.124486 5.090800 -16.905924 0
M  V30 38 H 11.108008 5.361252 -18.357220 0
M  V30 39 H 13.396062 5.110319 -17.408487 0
M  V30 40 H 13.685469 4.567228 -15.001024 0
M  V30 41 H 11.729941 4.268487 -13.542691 0
M  V30 42 H 10.011473 5.724749 -12.738086 0
M  V30 43 H 9.753482 4.067836 -12.240557 0
M  V30 44 H 7.832800 6.285072 -12.388436 0
M  V30 END ATOM
M  V30 BEGIN BOND
M  V30 1 2 2 1
M  V30 2 1 3 2
M  V30 3 1 4 3
M  V30 4 1 5 4
M  V30 5 1 6 5
M  V30 6 1 7 6
M  V30 7 2 8 7
M  V30 8 1 9 8
M  V30 9 2 10 9
M  V30 10 1 11 10
M  V30 11 1 12 10
M  V30 12 1 13 12
M  V30 13 1 14 7
M  V30 14 2 14 12
M  V30 15 1 15 14
M  V30 16 1 16 8
M  V30 17 1 17 16
M  V30 18 2 18 17
M  V30 19 1 19 18
M  V30 20 2 20 19
M  V30 21 1 21 20
M  V30 22 1 22 17
M  V30 23 2 22 21
M  V30 24 1 23 4
M  V30 25 1 23 16
M  V30 26 1 24 1
M  V30 27 1 25 1
M  V30 28 1 26 2
M  V30 29 1 27 3
M  V30 30 1 28 3
M  V30 31 1 29 5
M  V30 32 1 30 5
M  V30 33 1 31 6
M  V30 34 1 32 6
M  V30 35 1 33 9
M  V30 36 1 34 11
M  V30 37 1 35 13
M  V30 38 1 16 36 CFG=3
M  V30 39 1 37 18
M  V30 40 1 38 19
M  V30 41 1 39 20
M  V30 42 1 40 21
M  V30 43 1 41 22
M  V30 44 1 42 23
M  V30 45 1 43 23
M  V30 46 1 4 44 CFG=3
M  V30 END BOND
M  V30 END CTAB
M  END
>  <b_m_subgroup_collapsed>  (1501) 
0

>  <r_i_docking_score>  (1501) 
-7.0563753415240704

>  <s_m_subgroup_title>  (1501) 
glide-dock_SP_D22_pv

>  <s_m_subgroupid>  (1501) 
glide-dock_SP_D22_pv

>  <Molecule ChEMBL ID>  (1501) 
CHEMBL544115

>  <Standard Type>  (1501) 
Ki

>  <Standard Value>  (1501) 
55.0

>  <label>  (1501) 
1

$$$$
CHEMBL4456754
     RDKit          3D

  0  0  0  0  0  0  0  0  0  0999 V3000
M  V30 BEGIN CTAB
M  V30 COUNTS 40 42 0 0 1
M  V30 BEGIN ATOM
M  V30 1 O 10.086772 5.965523 -12.400315 0
M  V30 2 C 9.169746 6.568146 -11.846531 0
M  V30 3 C 9.482703 7.858679 -11.087900 0
M  V30 4 N 10.234753 7.653503 -9.829747 0
M  V30 5 C 9.445411 6.929515 -8.816980 0
M  V30 6 C 10.255314 6.758426 -7.512459 0
M  V30 7 N 10.702869 8.059956 -7.026363 0
M  V30 8 C 11.152838 8.191921 -5.702307 0
M  V30 9 C 11.255276 9.482178 -5.134605 0
M  V30 10 C 11.686127 9.607033 -3.804686 0
M  V30 11 C 12.016278 8.447461 -3.090724 0
M  V30 12 Cl 12.493464 8.572252 -1.447024 0
M  V30 13 C 11.898232 7.201434 -3.734819 0
M  V30 14 N 11.462103 7.071664 -5.006336 0
M  V30 15 C 11.459882 8.794422 -8.029365 0
M  V30 16 C 10.620077 8.964632 -9.302112 0
M  V30 17 N 7.886128 6.171916 -11.847998 0
M  V30 18 C 7.314731 5.044117 -12.504413 0
M  V30 19 C 5.970494 4.718804 -12.247055 0
M  V30 20 N 5.363488 3.658568 -12.816817 0
M  V30 21 C 6.101651 2.925967 -13.646076 0
M  V30 22 N 7.367033 3.144558 -13.993397 0
M  V30 23 C 7.982420 4.199011 -13.423206 0
M  V30 24 H 10.071185 8.479345 -11.764748 0
M  V30 25 H 8.561204 8.412535 -10.893961 0
M  V30 26 H 8.514581 7.462344 -8.609926 0
M  V30 27 H 9.163924 5.940980 -9.180841 0
M  V30 28 H 9.633523 6.271158 -6.759629 0
M  V30 29 H 11.122775 6.117102 -7.681001 0
M  V30 30 H 10.975835 10.364399 -5.691073 0
M  V30 31 H 11.730577 10.572375 -3.324763 0
M  V30 32 H 12.131000 6.285834 -3.211110 0
M  V30 33 H 11.749069 9.772534 -7.658063 0
M  V30 34 H 12.382398 8.256396 -8.252299 0
M  V30 35 H 11.213866 9.504257 -10.041388 0
M  V30 36 H 9.733396 9.566467 -9.095330 0
M  V30 37 H 7.254417 6.742610 -11.279687 0
M  V30 38 H 5.374604 5.311061 -11.567999 0
M  V30 39 H 5.626407 2.064222 -14.088911 0
M  V30 40 H 9.003986 4.342430 -13.734554 0
M  V30 END ATOM
M  V30 BEGIN BOND
M  V30 1 2 2 1
M  V30 2 1 3 2
M  V30 3 1 4 3
M  V30 4 1 5 4
M  V30 5 1 6 5
M  V30 6 1 7 6
M  V30 7 1 8 7
M  V30 8 1 9 8
M  V30 9 2 10 9
M  V30 10 1 11 10
M  V30 11 1 12 11
M  V30 12 2 13 11
M  V30 13 2 14 8
M  V30 14 1 14 13
M  V30 15 1 15 7
M  V30 16 1 16 4
M  V30 17 1 16 15
M  V30 18 1 17 2
M  V30 19 1 18 17
M  V30 20 2 19 18
M  V30 21 1 20 19
M  V30 22 2 21 20
M  V30 23 1 22 21
M  V30 24 1 23 18
M  V30 25 2 23 22
M  V30 26 1 24 3
M  V30 27 1 25 3
M  V30 28 1 26 5
M  V30 29 1 27 5
M  V30 30 1 28 6
M  V30 31 1 29 6
M  V30 32 1 30 9
M  V30 33 1 31 10
M  V30 34 1 32 13
M  V30 35 1 33 15
M  V30 36 1 34 15
M  V30 37 1 35 16
M  V30 38 1 36 16
M  V30 39 1 37 17
M  V30 40 1 38 19
M  V30 41 1 39 21
M  V30 42 1 40 23
M  V30 END BOND
M  V30 END CTAB
M  END
>  <b_m_subgroup_collapsed>  (1502) 
0

>  <r_i_docking_score>  (1502) 
-7.0558277926226403

>  <s_m_subgroup_title>  (1502) 
glide-dock_SP_D22_pv

>  <s_m_subgroupid>  (1502) 
glide-dock_SP_D22_pv

>  <Molecule ChEMBL ID>  (1502) 
CHEMBL4456754

>  <Standard Type>  (1502) 
Ki

>  <Standard Value>  (1502) 
50000.0

>  <label>  (1502) 
0

$$$$
CHEMBL4092928
     RDKit          3D

  0  0  0  0  0  0  0  0  0  0999 V3000
M  V30 BEGIN CTAB
M  V30 COUNTS 40 41 0 0 1
M  V30 BEGIN ATOM
M  V30 1 C 8.536913 4.003585 -12.865634 0
M  V30 2 C 8.543619 5.504871 -13.155495 0
M  V30 3 C 8.454585 6.354175 -11.876637 0 CFG=2
M  V30 4 O 8.086030 7.664841 -12.246863 0
M  V30 5 C 9.786158 6.404663 -11.100426 0
M  V30 6 N 9.730787 7.310153 -9.925486 0 CHG=1
M  V30 7 C 9.027266 6.733889 -8.752221 0
M  V30 8 C 8.884109 7.782368 -7.628542 0
M  V30 9 N 10.150868 8.440421 -7.322243 0
M  V30 10 C 10.816643 8.074740 -6.139802 0
M  V30 11 C 11.088031 6.726014 -5.867893 0
M  V30 12 C 11.686039 6.377024 -4.649021 0
M  V30 13 C 12.023951 7.314487 -3.678571 0
M  V30 14 C 11.754779 8.652507 -3.938067 0
M  V30 15 Cl 12.086026 9.772327 -2.690431 0
M  V30 16 C 11.185625 9.036425 -5.169243 0
M  V30 17 Cl 10.886023 10.687304 -5.446864 0
M  V30 18 C 10.955750 8.901297 -8.446209 0
M  V30 19 C 11.069962 7.828969 -9.542134 0
M  V30 20 H 8.534988 3.424855 -13.789478 0
M  V30 21 H 9.402958 3.693401 -12.280595 0
M  V30 22 H 7.637007 3.748750 -12.306695 0
M  V30 23 H 7.685974 5.719849 -13.791563 0
M  V30 24 H 9.426212 5.772182 -13.737439 0
M  V30 25 H 7.656722 5.959333 -11.246594 0
M  V30 26 H 7.372700 7.913458 -11.653647 0
M  V30 27 H 10.085919 5.407221 -10.777181 0
M  V30 28 H 10.561139 6.750790 -11.786287 0
M  V30 29 H 8.046109 6.367636 -9.041279 0
M  V30 30 H 9.576784 5.863244 -8.395265 0
M  V30 31 H 8.176397 8.555696 -7.929040 0
M  V30 32 H 8.458810 7.321902 -6.735094 0
M  V30 33 H 10.848512 5.952685 -6.579870 0
M  V30 34 H 11.944533 5.372324 -4.437949 0
M  V30 35 H 12.472394 7.006712 -2.745090 0
M  V30 36 H 10.467201 9.772321 -8.873259 0
M  V30 37 H 11.945326 9.217486 -8.112895 0
M  V30 38 H 11.686082 7.000381 -9.193058 0
M  V30 39 H 11.573287 8.260552 -10.408491 0
M  V30 40 H 9.176859 8.101641 -10.227046 0
M  V30 END ATOM
M  V30 BEGIN BOND
M  V30 1 1 2 1
M  V30 2 1 3 2
M  V30 3 1 4 3
M  V30 4 1 5 3
M  V30 5 1 6 5
M  V30 6 1 7 6
M  V30 7 1 8 7
M  V30 8 1 9 8
M  V30 9 1 10 9
M  V30 10 2 11 10
M  V30 11 1 12 11
M  V30 12 2 13 12
M  V30 13 1 14 13
M  V30 14 1 15 14
M  V30 15 1 16 10
M  V30 16 2 16 14
M  V30 17 1 17 16
M  V30 18 1 18 9
M  V30 19 1 19 6
M  V30 20 1 19 18
M  V30 21 1 20 1
M  V30 22 1 21 1
M  V30 23 1 22 1
M  V30 24 1 23 2
M  V30 25 1 24 2
M  V30 26 1 3 25 CFG=1
M  V30 27 1 26 4
M  V30 28 1 27 5
M  V30 29 1 28 5
M  V30 30 1 29 7
M  V30 31 1 30 7
M  V30 32 1 31 8
M  V30 33 1 32 8
M  V30 34 1 33 11
M  V30 35 1 34 12
M  V30 36 1 35 13
M  V30 37 1 36 18
M  V30 38 1 37 18
M  V30 39 1 38 19
M  V30 40 1 39 19
M  V30 41 1 40 6
M  V30 END BOND
M  V30 END CTAB
M  END
>  <b_m_subgroup_collapsed>  (1503) 
0

>  <r_i_docking_score>  (1503) 
-7.05557162575208

>  <s_m_subgroup_title>  (1503) 
glide-dock_SP_D22_pv

>  <s_m_subgroupid>  (1503) 
glide-dock_SP_D22_pv

>  <Molecule ChEMBL ID>  (1503) 
CHEMBL4092928

>  <Standard Type>  (1503) 
Ki

>  <Standard Value>  (1503) 
93.1

>  <label>  (1503) 
1

$$$$
CHEMBL4083903
     RDKit          3D

  0  0  0  0  0  0  0  0  0  0999 V3000
M  V30 BEGIN CTAB
M  V30 COUNTS 59 63 0 0 1
M  V30 BEGIN ATOM
M  V30 1 O 8.972530 6.391831 -6.646841 0
M  V30 2 C 9.864974 6.961283 -7.261588 0
M  V30 3 N 10.090090 6.757161 -8.566738 0
M  V30 4 C 9.223092 5.945285 -9.409125 0
M  V30 5 C 9.507786 6.076654 -10.890044 0 CFG=2
M  V30 6 C 9.043805 7.276344 -11.668839 0
M  V30 7 C 8.399123 5.924228 -11.909701 0 CFG=1
M  V30 8 C 8.648477 5.206728 -13.224004 0
M  V30 9 N 8.143380 3.808488 -13.245569 0 CHG=1
M  V30 10 C 6.655143 3.732786 -13.384967 0
M  V30 11 C 6.123426 2.293934 -13.574072 0
M  V30 12 N 6.907909 1.600996 -14.587772 0
M  V30 13 C 6.332456 0.565321 -15.345557 0
M  V30 14 C 5.451234 -0.359319 -14.736546 0
M  V30 15 C 4.827926 -1.364157 -15.501942 0
M  V30 16 C 5.080608 -1.459769 -16.880495 0
M  V30 17 C 5.951468 -0.545613 -17.501534 0
M  V30 18 Cl 6.220747 -0.670698 -19.203375 0
M  V30 19 C 6.577083 0.468968 -16.741083 0
M  V30 20 Cl 7.592474 1.624078 -17.542694 0
M  V30 21 C 8.343458 1.561127 -14.369670 0
M  V30 22 C 8.879838 2.996366 -14.255276 0
M  V30 23 C 10.724739 8.001143 -6.599194 0
M  V30 24 C 10.890659 9.225038 -7.271330 0
M  V30 25 C 11.555847 10.267405 -6.614600 0
M  V30 26 N 12.030287 10.172171 -5.375462 0
M  V30 27 C 11.911547 9.014768 -4.712634 0
M  V30 28 C 12.425702 8.951134 -3.403183 0
M  V30 29 C 12.357752 7.769350 -2.655768 0
M  V30 30 C 11.795620 6.626957 -3.237744 0
M  V30 31 C 11.285835 6.667909 -4.551056 0
M  V30 32 C 11.286486 7.872121 -5.291711 0
M  V30 33 H 10.831288 7.277914 -9.010555 0
M  V30 34 H 9.332996 4.898815 -9.125362 0
M  V30 35 H 8.180666 6.212069 -9.222156 0
M  V30 36 H 10.485936 5.712731 -11.180224 0
M  V30 37 H 8.486119 8.031547 -11.120999 0
M  V30 38 H 9.724224 7.666011 -12.423087 0
M  V30 39 H 7.381763 5.845049 -11.530278 0
M  V30 40 H 8.193509 5.774702 -14.034847 0
M  V30 41 H 9.722644 5.220674 -13.415205 0
M  V30 42 H 6.171891 4.181711 -12.517228 0
M  V30 43 H 6.351993 4.325828 -14.248177 0
M  V30 44 H 6.153253 1.726952 -12.646730 0
M  V30 45 H 5.070228 2.331202 -13.847175 0
M  V30 46 H 5.249135 -0.302656 -13.678127 0
M  V30 47 H 4.148477 -2.067688 -15.046494 0
M  V30 48 H 4.601518 -2.235482 -17.462133 0
M  V30 49 H 8.551155 0.995456 -13.461645 0
M  V30 50 H 8.853390 1.030693 -15.174479 0
M  V30 51 H 8.803885 3.486434 -15.227248 0
M  V30 52 H 9.940016 2.965742 -13.999911 0
M  V30 53 H 10.471965 9.373892 -8.256580 0
M  V30 54 H 11.685775 11.244420 -7.046978 0
M  V30 55 H 12.879825 9.828515 -2.965961 0
M  V30 56 H 12.743365 7.736730 -1.647746 0
M  V30 57 H 11.743461 5.721647 -2.657181 0
M  V30 58 H 10.852284 5.772571 -4.960929 0
M  V30 59 H 8.371453 3.397253 -12.351596 0
M  V30 END ATOM
M  V30 BEGIN BOND
M  V30 1 2 2 1
M  V30 2 1 3 2
M  V30 3 1 4 3
M  V30 4 1 5 4
M  V30 5 1 6 5
M  V30 6 1 7 5
M  V30 7 1 7 6
M  V30 8 1 8 7
M  V30 9 1 9 8
M  V30 10 1 10 9
M  V30 11 1 11 10
M  V30 12 1 12 11
M  V30 13 1 13 12
M  V30 14 2 14 13
M  V30 15 1 15 14
M  V30 16 2 16 15
M  V30 17 1 17 16
M  V30 18 1 18 17
M  V30 19 1 19 13
M  V30 20 2 19 17
M  V30 21 1 20 19
M  V30 22 1 21 12
M  V30 23 1 22 9
M  V30 24 1 22 21
M  V30 25 1 23 2
M  V30 26 2 24 23
M  V30 27 1 25 24
M  V30 28 2 26 25
M  V30 29 1 27 26
M  V30 30 2 28 27
M  V30 31 1 29 28
M  V30 32 2 30 29
M  V30 33 1 31 30
M  V30 34 1 32 23
M  V30 35 1 32 27
M  V30 36 2 32 31
M  V30 37 1 33 3
M  V30 38 1 34 4
M  V30 39 1 35 4
M  V30 40 1 5 36 CFG=3
M  V30 41 1 37 6
M  V30 42 1 38 6
M  V30 43 1 7 39 CFG=1
M  V30 44 1 40 8
M  V30 45 1 41 8
M  V30 46 1 42 10
M  V30 47 1 43 10
M  V30 48 1 44 11
M  V30 49 1 45 11
M  V30 50 1 46 14
M  V30 51 1 47 15
M  V30 52 1 48 16
M  V30 53 1 49 21
M  V30 54 1 50 21
M  V30 55 1 51 22
M  V30 56 1 52 22
M  V30 57 1 53 24
M  V30 58 1 54 25
M  V30 59 1 55 28
M  V30 60 1 56 29
M  V30 61 1 57 30
M  V30 62 1 58 31
M  V30 63 1 59 9
M  V30 END BOND
M  V30 END CTAB
M  END
>  <b_m_subgroup_collapsed>  (1504) 
0

>  <r_i_docking_score>  (1504) 
-7.0554475419243596

>  <s_m_subgroup_title>  (1504) 
glide-dock_SP_D22_pv

>  <s_m_subgroupid>  (1504) 
glide-dock_SP_D22_pv

>  <Molecule ChEMBL ID>  (1504) 
CHEMBL4083903

>  <Standard Type>  (1504) 
Ki

>  <Standard Value>  (1504) 
19.9

>  <label>  (1504) 
1

$$$$
CHEMBL2432048
     RDKit          3D

  0  0  0  0  0  0  0  0  0  0999 V3000
M  V30 BEGIN CTAB
M  V30 COUNTS 44 49 0 0 1
M  V30 BEGIN ATOM
M  V30 1 C 12.092426 4.997649 -14.287458 0
M  V30 2 C 11.692579 6.162573 -13.607219 0
M  V30 3 C 10.486520 6.171994 -12.877982 0
M  V30 4 C 9.681481 5.012966 -12.815703 0
M  V30 5 C 8.382758 5.000567 -12.024710 0
M  V30 6 C 8.584406 5.152206 -10.509020 0
M  V30 7 N 8.821122 6.556437 -10.114898 0 CHG=1
M  V30 8 C 9.146673 6.747323 -8.693504 0 CFG=1
M  V30 9 C 10.668721 6.582104 -8.410088 0 CFG=2
M  V30 10 C 11.041924 6.847129 -6.885632 0 CFG=2
M  V30 11 C 9.789606 7.170850 -6.057063 0
M  V30 12 C 9.285122 8.407172 -6.781964 0 CFG=1
M  V30 13 C 10.547160 9.147624 -7.207268 0 CFG=1
M  V30 14 C 11.733952 8.243549 -6.939278 0 CFG=2
M  V30 15 C 12.510439 8.163960 -8.246419 0
M  V30 16 C 11.281230 7.842644 -9.083206 0 CFG=2
M  V30 17 C 10.252293 8.891726 -8.670340 0 CFG=1
M  V30 18 C 8.962903 8.191016 -8.275037 0 CFG=1
M  V30 19 C 10.089689 3.849044 -13.503002 0
M  V30 20 C 11.287637 3.843466 -14.242804 0
M  V30 21 H 13.018577 4.992296 -14.845448 0
M  V30 22 H 12.310448 7.047009 -13.648130 0
M  V30 23 H 10.185727 7.083566 -12.385842 0
M  V30 24 H 7.720616 5.780281 -12.404068 0
M  V30 25 H 7.868244 4.058571 -12.215810 0
M  V30 26 H 7.686264 4.811395 -9.996438 0
M  V30 27 H 9.400229 4.510571 -10.173131 0
M  V30 28 H 9.530547 6.982577 -10.688191 0
M  V30 29 H 8.518110 6.074470 -8.108045 0
M  V30 30 H 11.043734 5.635021 -8.774142 0
M  V30 31 H 11.674141 6.068193 -6.456165 0
M  V30 32 H 9.067567 6.357192 -6.007469 0
M  V30 33 H 10.089211 7.411325 -5.046383 0
M  V30 34 H 8.524405 8.972460 -6.251973 0
M  V30 35 H 10.628094 10.187043 -6.905377 0
M  V30 36 H 12.293607 8.571743 -6.060511 0
M  V30 37 H 12.980464 9.104745 -8.524478 0
M  V30 38 H 13.261936 7.373438 -8.248713 0
M  V30 39 H 11.450679 7.763525 -10.157322 0
M  V30 40 H 10.152277 9.772286 -9.301723 0
M  V30 41 H 8.086051 8.731684 -8.614459 0
M  V30 42 H 9.490157 2.950976 -13.463189 0
M  V30 43 H 11.598243 2.951301 -14.765519 0
M  V30 44 H 7.933506 7.053907 -10.248215 0
M  V30 END ATOM
M  V30 BEGIN BOND
M  V30 1 2 2 1
M  V30 2 1 3 2
M  V30 3 2 4 3
M  V30 4 1 5 4
M  V30 5 1 6 5
M  V30 6 1 7 6
M  V30 7 1 8 7
M  V30 8 1 9 8
M  V30 9 1 10 9
M  V30 10 1 11 10
M  V30 11 1 12 11
M  V30 12 1 13 12
M  V30 13 1 14 10
M  V30 14 1 14 13
M  V30 15 1 15 14
M  V30 16 1 16 9
M  V30 17 1 16 15
M  V30 18 1 17 13
M  V30 19 1 17 16
M  V30 20 1 18 8
M  V30 21 1 18 12
M  V30 22 1 18 17
M  V30 23 1 19 4
M  V30 24 1 20 1
M  V30 25 2 20 19
M  V30 26 1 21 1
M  V30 27 1 22 2
M  V30 28 1 23 3
M  V30 29 1 24 5
M  V30 30 1 25 5
M  V30 31 1 26 6
M  V30 32 1 27 6
M  V30 33 1 28 7
M  V30 34 1 8 29 CFG=1
M  V30 35 1 9 30 CFG=3
M  V30 36 1 10 31 CFG=1
M  V30 37 1 32 11
M  V30 38 1 33 11
M  V30 39 1 12 34 CFG=1
M  V30 40 1 13 35 CFG=3
M  V30 41 1 14 36 CFG=1
M  V30 42 1 37 15
M  V30 43 1 38 15
M  V30 44 1 16 39 CFG=3
M  V30 45 1 17 40 CFG=3
M  V30 46 1 18 41 CFG=3
M  V30 47 1 42 19
M  V30 48 1 43 20
M  V30 49 1 44 7
M  V30 END BOND
M  V30 END CTAB
M  END
>  <b_m_subgroup_collapsed>  (1505) 
0

>  <r_i_docking_score>  (1505) 
-7.0548498871556404

>  <s_m_subgroup_title>  (1505) 
glide-dock_SP_D22_pv

>  <s_m_subgroupid>  (1505) 
glide-dock_SP_D22_pv

>  <Molecule ChEMBL ID>  (1505) 
CHEMBL2432048

>  <Standard Type>  (1505) 
Ki

>  <Standard Value>  (1505) 
10000.0

>  <label>  (1505) 
0

$$$$
CHEMBL4435765
     RDKit          3D

  0  0  0  0  0  0  0  0  0  0999 V3000
M  V30 BEGIN CTAB
M  V30 COUNTS 72 76 0 0 1
M  V30 BEGIN ATOM
M  V30 1 C 4.946883 -2.726637 -16.221066 0
M  V30 2 N 5.228900 -1.520687 -16.979971 0
M  V30 3 C 5.701354 -0.355253 -16.506397 0
M  V30 4 S 6.031707 -0.124145 -14.789986 0
M  V30 5 C 7.761813 0.418512 -14.904007 0
M  V30 6 C 7.906657 1.923518 -15.196595 0
M  V30 7 C 7.087695 2.780414 -14.205750 0
M  V30 8 N 7.688529 4.086990 -13.828744 0 CHG=1
M  V30 9 C 6.721592 4.871444 -13.016247 0
M  V30 10 C 7.276348 6.242237 -12.593073 0
M  V30 11 C 8.638386 6.167545 -11.875725 0
M  V30 12 C 9.575267 5.341795 -12.791885 0
M  V30 13 C 9.000047 3.965882 -13.139110 0
M  V30 14 C 9.219053 7.593821 -11.683989 0
M  V30 15 C 10.514830 7.616275 -10.851071 0
M  V30 16 N 10.330768 6.883363 -9.600871 0
M  V30 17 C 10.658533 7.460682 -8.359848 0
M  V30 18 C 11.725012 8.388156 -8.274930 0
M  V30 19 C 12.081004 8.972934 -7.047398 0
M  V30 20 C 11.403597 8.612514 -5.866210 0
M  V30 21 C 11.774943 9.226374 -4.529710 0
M  V30 22 F 12.987877 9.769814 -4.575126 0
M  V30 23 F 10.886724 10.171857 -4.233766 0
M  V30 24 F 11.762176 8.304189 -3.568594 0
M  V30 25 C 10.360273 7.677035 -5.939160 0
M  V30 26 C 9.960972 7.131449 -7.167431 0
M  V30 27 F 8.879656 6.314421 -7.169729 0
M  V30 28 C 9.782577 5.530720 -9.688846 0
M  V30 29 C 8.463543 5.554213 -10.459947 0
M  V30 30 N 5.876817 0.573027 -17.447096 0
M  V30 31 N 5.490346 -0.022237 -18.623528 0
M  V30 32 C 5.110086 -1.266930 -18.304188 0
M  V30 33 C 4.644941 -2.219643 -19.309980 0
M  V30 34 C 3.560526 -3.084713 -19.046534 0
M  V30 35 C 3.173973 -4.051706 -19.992064 0
M  V30 36 C 3.841216 -4.134366 -21.228928 0
M  V30 37 C 4.901225 -3.254410 -21.513609 0
M  V30 38 C 5.306629 -2.306365 -20.556723 0
M  V30 39 H 5.685122 -2.867695 -15.436869 0
M  V30 40 H 3.963581 -2.626364 -15.765875 0
M  V30 41 H 4.971064 -3.608877 -16.858625 0
M  V30 42 H 8.235791 0.195155 -13.946228 0
M  V30 43 H 8.285065 -0.184588 -15.648824 0
M  V30 44 H 8.967256 2.150986 -15.176349 0
M  V30 45 H 7.593224 2.157052 -16.215666 0
M  V30 46 H 6.105641 2.958514 -14.646580 0
M  V30 47 H 6.885480 2.220200 -13.298088 0
M  V30 48 H 5.800888 5.013649 -13.584989 0
M  V30 49 H 6.440416 4.297577 -12.130068 0
M  V30 50 H 7.364905 6.907717 -13.446670 0
M  V30 51 H 6.531067 6.693305 -11.947612 0
M  V30 52 H 9.764407 5.879875 -13.718659 0
M  V30 53 H 10.551856 5.208593 -12.336925 0
M  V30 54 H 8.897212 3.372217 -12.233829 0
M  V30 55 H 9.731818 3.455515 -13.759438 0
M  V30 56 H 9.399436 8.072716 -12.644395 0
M  V30 57 H 8.486050 8.224864 -11.179626 0
M  V30 58 H 11.341210 7.171586 -11.408204 0
M  V30 59 H 10.779464 8.657722 -10.672948 0
M  V30 60 H 12.293605 8.662395 -9.152364 0
M  V30 61 H 12.885929 9.689963 -7.013000 0
M  V30 62 H 9.833385 7.378289 -5.048691 0
M  V30 63 H 10.485785 4.899564 -10.212335 0
M  V30 64 H 9.665872 5.039413 -8.728307 0
M  V30 65 H 7.752597 6.161192 -9.893785 0
M  V30 66 H 8.046727 4.552252 -10.499698 0
M  V30 67 H 3.030076 -3.026969 -18.107729 0
M  V30 68 H 2.354787 -4.717405 -19.763779 0
M  V30 69 H 3.534749 -4.869761 -21.957827 0
M  V30 70 H 5.413699 -3.314547 -22.463020 0
M  V30 71 H 6.132449 -1.646460 -20.777332 0
M  V30 72 H 7.851923 4.608840 -14.678361 0
M  V30 END ATOM
M  V30 BEGIN BOND
M  V30 1 1 2 1
M  V30 2 1 3 2
M  V30 3 1 4 3
M  V30 4 1 5 4
M  V30 5 1 6 5
M  V30 6 1 7 6
M  V30 7 1 8 7
M  V30 8 1 9 8
M  V30 9 1 10 9
M  V30 10 1 11 10
M  V30 11 1 12 11
M  V30 12 1 13 8
M  V30 13 1 13 12
M  V30 14 1 14 11
M  V30 15 1 15 14
M  V30 16 1 16 15
M  V30 17 1 17 16
M  V30 18 1 18 17
M  V30 19 2 19 18
M  V30 20 1 20 19
M  V30 21 1 21 20
M  V30 22 1 22 21
M  V30 23 1 23 21
M  V30 24 1 24 21
M  V30 25 2 25 20
M  V30 26 2 26 17
M  V30 27 1 26 25
M  V30 28 1 27 26
M  V30 29 1 28 16
M  V30 30 1 29 11
M  V30 31 1 29 28
M  V30 32 2 30 3
M  V30 33 1 31 30
M  V30 34 1 32 2
M  V30 35 2 32 31
M  V30 36 1 33 32
M  V30 37 2 34 33
M  V30 38 1 35 34
M  V30 39 2 36 35
M  V30 40 1 37 36
M  V30 41 1 38 33
M  V30 42 2 38 37
M  V30 43 1 39 1
M  V30 44 1 40 1
M  V30 45 1 41 1
M  V30 46 1 42 5
M  V30 47 1 43 5
M  V30 48 1 44 6
M  V30 49 1 45 6
M  V30 50 1 46 7
M  V30 51 1 47 7
M  V30 52 1 48 9
M  V30 53 1 49 9
M  V30 54 1 50 10
M  V30 55 1 51 10
M  V30 56 1 52 12
M  V30 57 1 53 12
M  V30 58 1 54 13
M  V30 59 1 55 13
M  V30 60 1 56 14
M  V30 61 1 57 14
M  V30 62 1 58 15
M  V30 63 1 59 15
M  V30 64 1 60 18
M  V30 65 1 61 19
M  V30 66 1 62 25
M  V30 67 1 63 28
M  V30 68 1 64 28
M  V30 69 1 65 29
M  V30 70 1 66 29
M  V30 71 1 67 34
M  V30 72 1 68 35
M  V30 73 1 69 36
M  V30 74 1 70 37
M  V30 75 1 71 38
M  V30 76 1 72 8
M  V30 END BOND
M  V30 END CTAB
M  END
>  <b_m_subgroup_collapsed>  (1506) 
0

>  <r_i_docking_score>  (1506) 
-7.0526450219901697

>  <s_m_subgroup_title>  (1506) 
glide-dock_SP_D22_pv

>  <s_m_subgroupid>  (1506) 
glide-dock_SP_D22_pv

>  <Molecule ChEMBL ID>  (1506) 
CHEMBL4435765

>  <Standard Type>  (1506) 
Ki

>  <Standard Value>  (1506) 
21172.0

>  <label>  (1506) 
0

$$$$
CHEMBL316125
     RDKit          3D

  0  0  0  0  0  0  0  0  0  0999 V3000
M  V30 BEGIN CTAB
M  V30 COUNTS 58 61 0 0 1
M  V30 BEGIN ATOM
M  V30 1 C 8.150075 4.913980 -12.125377 0
M  V30 2 C 9.449635 5.601012 -12.514475 0
M  V30 3 C 10.253675 5.372275 -13.555767 0
M  V30 4 C 10.223224 4.297890 -14.558997 0
M  V30 5 C 9.912352 2.975246 -14.179649 0
M  V30 6 C 9.905521 1.948040 -15.142140 0
M  V30 7 C 10.201146 2.241849 -16.487556 0
M  V30 8 C 10.508998 3.562687 -16.869104 0
M  V30 9 C 10.524847 4.590510 -15.906234 0
M  V30 10 N 11.310287 6.246655 -13.419093 0
M  V30 11 C 11.188513 6.972307 -12.301580 0
M  V30 12 O 12.045439 7.728728 -11.847209 0
M  V30 13 N 10.007993 6.620789 -11.741146 0
M  V30 14 C 9.520638 6.967095 -10.395862 0 CFG=1
M  V30 15 C 10.208303 6.093910 -9.333301 0
M  V30 16 C 9.840815 6.479654 -7.897038 0
M  V30 17 N 10.118982 7.917117 -7.684063 0 CFG=2 CHG=1
M  V30 18 C 9.949823 8.352262 -6.280882 0
M  V30 19 C 11.220568 8.280444 -5.404940 0
M  V30 20 C 11.280882 9.528183 -4.474216 0
M  V30 21 C 12.275930 9.424877 -3.319208 0
M  V30 22 C 12.086313 8.137518 -2.524990 0
M  V30 23 C 12.273808 6.941560 -3.447537 0
M  V30 24 C 11.314136 6.930559 -4.646790 0
M  V30 25 C 9.285904 8.722878 -8.605919 0
M  V30 26 C 9.664172 8.463443 -10.061468 0
M  V30 27 H 7.767951 4.309750 -12.948278 0
M  V30 28 H 8.298498 4.262351 -11.264643 0
M  V30 29 H 7.376563 5.642770 -11.882348 0
M  V30 30 H 9.698008 2.732329 -13.148037 0
M  V30 31 H 9.678146 0.935627 -14.844382 0
M  V30 32 H 10.196138 1.453970 -17.226425 0
M  V30 33 H 10.738813 3.787711 -17.900036 0
M  V30 34 H 10.764300 5.600425 -16.205109 0
M  V30 35 H 12.121745 6.228656 -14.019227 0
M  V30 36 H 8.459422 6.748338 -10.334831 0
M  V30 37 H 9.974821 5.041945 -9.502948 0
M  V30 38 H 11.285814 6.194011 -9.444120 0
M  V30 39 H 10.420595 5.872461 -7.203142 0
M  V30 40 H 8.787564 6.266345 -7.702869 0
M  V30 41 H 9.676987 9.398597 -6.305352 0
M  V30 42 H 9.093097 7.839149 -5.846697 0
M  V30 43 H 12.086064 8.361609 -6.058795 0
M  V30 44 H 11.528714 10.404506 -5.074496 0
M  V30 45 H 10.309308 9.763515 -4.044817 0
M  V30 46 H 13.285794 9.478647 -3.717659 0
M  V30 47 H 12.157746 10.281743 -2.654458 0
M  V30 48 H 12.803775 8.097206 -1.705168 0
M  V30 49 H 11.095740 8.107953 -2.078109 0
M  V30 50 H 13.286387 6.982136 -3.825282 0
M  V30 51 H 12.186093 6.012014 -2.884363 0
M  V30 52 H 10.343306 6.572214 -4.312818 0
M  V30 53 H 11.657073 6.161833 -5.337484 0
M  V30 54 H 9.434429 9.772297 -8.409382 0
M  V30 55 H 8.231530 8.523551 -8.421679 0
M  V30 56 H 10.679297 8.830429 -10.201366 0
M  V30 57 H 9.023923 9.051262 -10.721375 0
M  V30 58 H 11.081580 8.091002 -7.936504 0
M  V30 END ATOM
M  V30 BEGIN BOND
M  V30 1 1 2 1
M  V30 2 2 3 2
M  V30 3 1 4 3
M  V30 4 2 5 4
M  V30 5 1 6 5
M  V30 6 2 7 6
M  V30 7 1 8 7
M  V30 8 1 9 4
M  V30 9 2 9 8
M  V30 10 1 10 3
M  V30 11 1 11 10
M  V30 12 2 12 11
M  V30 13 1 13 2
M  V30 14 1 13 11
M  V30 15 1 14 13
M  V30 16 1 15 14
M  V30 17 1 16 15
M  V30 18 1 17 16
M  V30 19 1 18 17
M  V30 20 1 19 18
M  V30 21 1 20 19
M  V30 22 1 21 20
M  V30 23 1 22 21
M  V30 24 1 23 22
M  V30 25 1 24 19
M  V30 26 1 24 23
M  V30 27 1 25 17
M  V30 28 1 26 14
M  V30 29 1 26 25
M  V30 30 1 27 1
M  V30 31 1 28 1
M  V30 32 1 29 1
M  V30 33 1 30 5
M  V30 34 1 31 6
M  V30 35 1 32 7
M  V30 36 1 33 8
M  V30 37 1 34 9
M  V30 38 1 35 10
M  V30 39 1 14 36 CFG=3
M  V30 40 1 37 15
M  V30 41 1 38 15
M  V30 42 1 39 16
M  V30 43 1 40 16
M  V30 44 1 41 18
M  V30 45 1 42 18
M  V30 46 1 43 19
M  V30 47 1 44 20
M  V30 48 1 45 20
M  V30 49 1 46 21
M  V30 50 1 47 21
M  V30 51 1 48 22
M  V30 52 1 49 22
M  V30 53 1 50 23
M  V30 54 1 51 23
M  V30 55 1 52 24
M  V30 56 1 53 24
M  V30 57 1 54 25
M  V30 58 1 55 25
M  V30 59 1 56 26
M  V30 60 1 57 26
M  V30 61 1 17 58 CFG=3
M  V30 END BOND
M  V30 END CTAB
M  END
>  <b_m_subgroup_collapsed>  (1507) 
0

>  <r_i_docking_score>  (1507) 
-7.0520705436610402

>  <s_m_subgroup_title>  (1507) 
glide-dock_SP_D22_pv

>  <s_m_subgroupid>  (1507) 
glide-dock_SP_D22_pv

>  <Molecule ChEMBL ID>  (1507) 
CHEMBL316125

>  <Standard Type>  (1507) 
Ki

>  <Standard Value>  (1507) 
83.0

>  <label>  (1507) 
1

$$$$
CHEMBL110888
     RDKit          3D

  0  0  0  0  0  0  0  0  0  0999 V3000
M  V30 BEGIN CTAB
M  V30 COUNTS 44 45 0 0 1
M  V30 BEGIN ATOM
M  V30 1 C 11.781194 8.963722 -10.235589 0
M  V30 2 C 10.706376 7.947935 -10.650481 0
M  V30 3 C 9.374890 7.997100 -9.857150 0
M  V30 4 N 9.321684 7.183805 -8.598662 0 CHG=1
M  V30 5 C 9.455935 5.709704 -8.832375 0
M  V30 6 C 8.484685 5.111989 -9.872136 0
M  V30 7 C 9.113850 4.792181 -11.235602 0
M  V30 8 C 10.200118 7.719777 -7.496048 0 CFG=1
M  V30 9 C 9.712404 9.070209 -6.936920 0
M  V30 10 C 10.732731 9.725424 -5.973862 0
M  V30 11 C 11.286291 8.759809 -4.946047 0
M  V30 12 N 11.869686 9.295580 -3.845491 0
M  V30 13 C 12.324972 8.446397 -2.894258 0
M  V30 14 N 12.885948 8.972517 -1.744091 0
M  V30 15 C 12.265178 7.054981 -3.005418 0
M  V30 16 C 11.684073 6.526021 -4.157460 0
M  V30 17 C 11.160306 7.369807 -5.142069 0
M  V30 18 C 10.411069 6.757209 -6.313389 0
M  V30 19 H 12.471212 9.144620 -11.061234 0
M  V30 20 H 11.349653 9.921621 -9.945401 0
M  V30 21 H 12.404189 8.611813 -9.416531 0
M  V30 22 H 11.135256 6.949258 -10.673227 0
M  V30 23 H 10.456845 8.170900 -11.688206 0
M  V30 24 H 8.586349 7.648685 -10.523001 0
M  V30 25 H 9.089520 9.030730 -9.673861 0
M  V30 26 H 10.487421 5.441557 -9.058748 0
M  V30 27 H 9.210617 5.196225 -7.903430 0
M  V30 28 H 8.093268 4.176961 -9.470119 0
M  V30 29 H 7.610480 5.747394 -10.000625 0
M  V30 30 H 8.397082 4.272504 -11.872626 0
M  V30 31 H 9.420635 5.691941 -11.766768 0
M  V30 32 H 9.985341 4.144505 -11.131890 0
M  V30 33 H 11.193346 7.862586 -7.902221 0
M  V30 34 H 9.491735 9.771146 -7.733932 0
M  V30 35 H 8.770596 8.910737 -6.409753 0
M  V30 36 H 10.287125 10.569708 -5.445164 0
M  V30 37 H 11.573348 10.122182 -6.544227 0
M  V30 38 H 13.287597 8.381033 -1.035491 0
M  V30 39 H 13.131989 9.958267 -1.701636 0
M  V30 40 H 12.638108 6.401710 -2.230392 0
M  V30 41 H 11.598724 5.462968 -4.263940 0
M  V30 42 H 10.972700 5.879841 -6.635705 0
M  V30 43 H 9.446845 6.414746 -5.934239 0
M  V30 44 H 8.366759 7.295256 -8.272118 0
M  V30 END ATOM
M  V30 BEGIN BOND
M  V30 1 1 2 1
M  V30 2 1 3 2
M  V30 3 1 4 3
M  V30 4 1 5 4
M  V30 5 1 6 5
M  V30 6 1 7 6
M  V30 7 1 8 4
M  V30 8 1 9 8
M  V30 9 1 10 9
M  V30 10 1 11 10
M  V30 11 1 12 11
M  V30 12 2 13 12
M  V30 13 1 14 13
M  V30 14 1 15 13
M  V30 15 2 16 15
M  V30 16 2 17 11
M  V30 17 1 17 16
M  V30 18 1 18 8
M  V30 19 1 18 17
M  V30 20 1 19 1
M  V30 21 1 20 1
M  V30 22 1 21 1
M  V30 23 1 22 2
M  V30 24 1 23 2
M  V30 25 1 24 3
M  V30 26 1 25 3
M  V30 27 1 26 5
M  V30 28 1 27 5
M  V30 29 1 28 6
M  V30 30 1 29 6
M  V30 31 1 30 7
M  V30 32 1 31 7
M  V30 33 1 32 7
M  V30 34 1 8 33 CFG=3
M  V30 35 1 34 9
M  V30 36 1 35 9
M  V30 37 1 36 10
M  V30 38 1 37 10
M  V30 39 1 38 14
M  V30 40 1 39 14
M  V30 41 1 40 15
M  V30 42 1 41 16
M  V30 43 1 42 18
M  V30 44 1 43 18
M  V30 45 1 44 4
M  V30 END BOND
M  V30 END CTAB
M  END
>  <b_m_subgroup_collapsed>  (1508) 
0

>  <r_i_docking_score>  (1508) 
-7.0513603354469101

>  <s_m_subgroup_title>  (1508) 
glide-dock_SP_D22_pv

>  <s_m_subgroupid>  (1508) 
glide-dock_SP_D22_pv

>  <Molecule ChEMBL ID>  (1508) 
CHEMBL110888

>  <Standard Type>  (1508) 
Ki

>  <Standard Value>  (1508) 
5.0

>  <label>  (1508) 
1

$$$$
CHEMBL540033
     RDKit          3D

  0  0  0  0  0  0  0  0  0  0999 V3000
M  V30 BEGIN CTAB
M  V30 COUNTS 35 36 0 0 1
M  V30 BEGIN ATOM
M  V30 1 C 8.252690 5.227970 -11.047537 0
M  V30 2 N 8.485908 5.438121 -9.602696 0 CHG=1
M  V30 3 C 8.525803 4.172077 -8.851737 0
M  V30 4 C 9.650263 6.300713 -9.327027 0
M  V30 5 C 9.895442 6.537225 -7.804302 0
M  V30 6 C 10.844909 7.713420 -7.463951 0 CFG=1
M  V30 7 C 11.104838 7.930100 -5.956377 0
M  V30 8 C 11.320225 6.814629 -5.112440 0
M  V30 9 C 11.686153 6.975439 -3.761799 0
M  V30 10 C 11.828816 8.264586 -3.220103 0
M  V30 11 C 11.599266 9.386911 -4.033749 0
M  V30 12 C 11.253886 9.224392 -5.390313 0
M  V30 13 O 12.086033 7.473321 -8.121895 0
M  V30 14 C 12.271845 8.440634 -9.069931 0
M  V30 15 C 11.285812 9.330649 -9.170828 0
M  V30 16 C 10.311422 8.942780 -8.183643 0
M  V30 17 O 9.173681 9.372294 -8.033342 0
M  V30 18 H 9.081023 4.686370 -11.506642 0
M  V30 19 H 7.337059 4.655957 -11.205186 0
M  V30 20 H 8.132980 6.183383 -11.560206 0
M  V30 21 H 9.465161 3.643630 -9.022270 0
M  V30 22 H 8.436524 4.394424 -7.805472 0
M  V30 23 H 7.686174 3.513997 -9.051003 0
M  V30 24 H 9.448854 7.222346 -9.870621 0
M  V30 25 H 10.541670 5.867114 -9.778701 0
M  V30 26 H 10.310059 5.619111 -7.397036 0
M  V30 27 H 8.942326 6.702725 -7.297160 0
M  V30 28 H 11.259628 5.809436 -5.496353 0
M  V30 29 H 11.857698 6.107602 -3.141968 0
M  V30 30 H 12.097950 8.392897 -2.181555 0
M  V30 31 H 11.685512 10.378077 -3.613021 0
M  V30 32 H 11.121625 10.117718 -5.982327 0
M  V30 33 H 13.195704 8.379457 -9.626718 0
M  V30 34 H 11.210286 10.172658 -9.840356 0
M  V30 35 H 7.676125 5.957820 -9.278683 0
M  V30 END ATOM
M  V30 BEGIN BOND
M  V30 1 1 2 1
M  V30 2 1 3 2
M  V30 3 1 4 2
M  V30 4 1 5 4
M  V30 5 1 6 5 CFG=1
M  V30 6 1 7 6
M  V30 7 2 8 7
M  V30 8 1 9 8
M  V30 9 2 10 9
M  V30 10 1 11 10
M  V30 11 1 12 7
M  V30 12 2 12 11
M  V30 13 1 13 6
M  V30 14 1 14 13
M  V30 15 2 15 14
M  V30 16 1 16 6
M  V30 17 1 16 15
M  V30 18 2 17 16
M  V30 19 1 18 1
M  V30 20 1 19 1
M  V30 21 1 20 1
M  V30 22 1 21 3
M  V30 23 1 22 3
M  V30 24 1 23 3
M  V30 25 1 24 4
M  V30 26 1 25 4
M  V30 27 1 26 5
M  V30 28 1 27 5
M  V30 29 1 28 8
M  V30 30 1 29 9
M  V30 31 1 30 10
M  V30 32 1 31 11
M  V30 33 1 32 12
M  V30 34 1 33 14
M  V30 35 1 34 15
M  V30 36 1 35 2
M  V30 END BOND
M  V30 END CTAB
M  END
>  <b_m_subgroup_collapsed>  (1509) 
0

>  <r_i_docking_score>  (1509) 
-7.0511292727930996

>  <s_m_subgroup_title>  (1509) 
glide-dock_SP_D22_pv

>  <s_m_subgroupid>  (1509) 
glide-dock_SP_D22_pv

>  <Molecule ChEMBL ID>  (1509) 
CHEMBL540033

>  <Standard Type>  (1509) 
Ki

>  <Standard Value>  (1509) 
10000.0

>  <label>  (1509) 
0

$$$$
CHEMBL5959945
     RDKit          3D

  0  0  0  0  0  0  0  0  0  0999 V3000
M  V30 BEGIN CTAB
M  V30 COUNTS 51 53 0 0 1
M  V30 BEGIN ATOM
M  V30 1 C 5.710158 3.530938 -12.437291 0
M  V30 2 C 6.560520 4.809021 -12.517196 0
M  V30 3 N 8.005849 4.541127 -12.433404 0
M  V30 4 C 8.600348 4.835647 -11.125190 0
M  V30 5 C 9.149011 6.273858 -11.062847 0
M  V30 6 N 10.039813 6.471809 -9.921331 0
M  V30 7 C 9.357611 6.304426 -8.629835 0
M  V30 8 C 10.391784 6.377774 -7.488841 0
M  V30 9 N 11.159763 7.612276 -7.572483 0
M  V30 10 C 11.202223 8.505970 -6.495213 0
M  V30 11 N 11.111660 9.823024 -6.635736 0
M  V30 12 O 11.294861 10.384604 -5.341679 0
M  V30 13 C 11.558486 9.378757 -4.423069 0
M  V30 14 C 11.892371 9.422931 -3.062310 0
M  V30 15 C 12.122882 8.200033 -2.398665 0
M  V30 16 C 12.019835 6.976696 -3.102043 0
M  V30 17 C 11.686026 6.960528 -4.476515 0
M  V30 18 C 11.461054 8.186755 -5.141871 0
M  V30 19 C 11.663096 8.000580 -8.886843 0
M  V30 20 C 10.574801 7.835924 -9.962398 0
M  V30 21 C 8.684769 4.045944 -13.502083 0
M  V30 22 O 8.099910 3.698206 -14.527205 0
M  V30 23 C 10.221829 3.901365 -13.491911 0 CFG=2
M  V30 24 C 10.870736 4.833675 -14.526530 0
M  V30 25 O 10.573559 2.574316 -13.846534 0
M  V30 26 H 4.662792 3.756750 -12.635778 0
M  V30 27 H 6.017509 2.783306 -13.168607 0
M  V30 28 H 5.779198 3.079263 -11.447258 0
M  V30 29 H 6.250963 5.499323 -11.728983 0
M  V30 30 H 6.343004 5.333066 -13.447302 0
M  V30 31 H 7.839498 4.694000 -10.357479 0
M  V30 32 H 9.374986 4.113409 -10.871068 0
M  V30 33 H 9.715843 6.479053 -11.972111 0
M  V30 34 H 8.327577 6.989287 -11.041984 0
M  V30 35 H 8.582391 7.063697 -8.505575 0
M  V30 36 H 8.862147 5.337082 -8.566019 0
M  V30 37 H 9.873406 6.308084 -6.531289 0
M  V30 38 H 11.077183 5.532614 -7.545990 0
M  V30 39 H 11.981184 10.366439 -2.545715 0
M  V30 40 H 12.381315 8.200307 -1.350223 0
M  V30 41 H 12.198375 6.044036 -2.586490 0
M  V30 42 H 11.633492 6.022772 -5.008741 0
M  V30 43 H 12.034224 9.026095 -8.885915 0
M  V30 44 H 12.517492 7.372515 -9.132909 0
M  V30 45 H 11.010144 8.034989 -10.942688 0
M  V30 46 H 9.774528 8.563413 -9.814046 0
M  V30 47 H 10.664122 4.122972 -12.525357 0
M  V30 48 H 10.670127 5.878245 -14.290693 0
M  V30 49 H 11.954388 4.704945 -14.543316 0
M  V30 50 H 10.500498 4.639935 -15.534814 0
M  V30 51 H 10.271048 1.983109 -13.166284 0
M  V30 END ATOM
M  V30 BEGIN BOND
M  V30 1 1 2 1
M  V30 2 1 3 2
M  V30 3 1 4 3
M  V30 4 1 5 4
M  V30 5 1 6 5
M  V30 6 1 7 6
M  V30 7 1 8 7
M  V30 8 1 9 8
M  V30 9 1 10 9
M  V30 10 2 11 10
M  V30 11 1 12 11
M  V30 12 1 13 12
M  V30 13 2 14 13
M  V30 14 1 15 14
M  V30 15 2 16 15
M  V30 16 1 17 16
M  V30 17 1 18 10
M  V30 18 1 18 13
M  V30 19 2 18 17
M  V30 20 1 19 9
M  V30 21 1 20 6
M  V30 22 1 20 19
M  V30 23 1 21 3
M  V30 24 2 22 21
M  V30 25 1 23 21
M  V30 26 1 24 23
M  V30 27 1 25 23
M  V30 28 1 26 1
M  V30 29 1 27 1
M  V30 30 1 28 1
M  V30 31 1 29 2
M  V30 32 1 30 2
M  V30 33 1 31 4
M  V30 34 1 32 4
M  V30 35 1 33 5
M  V30 36 1 34 5
M  V30 37 1 35 7
M  V30 38 1 36 7
M  V30 39 1 37 8
M  V30 40 1 38 8
M  V30 41 1 39 14
M  V30 42 1 40 15
M  V30 43 1 41 16
M  V30 44 1 42 17
M  V30 45 1 43 19
M  V30 46 1 44 19
M  V30 47 1 45 20
M  V30 48 1 46 20
M  V30 49 1 23 47 CFG=1
M  V30 50 1 48 24
M  V30 51 1 49 24
M  V30 52 1 50 24
M  V30 53 1 51 25
M  V30 END BOND
M  V30 END CTAB
M  END
>  <b_m_subgroup_collapsed>  (1510) 
0

>  <r_i_docking_score>  (1510) 
-7.05107689895177

>  <s_m_subgroup_title>  (1510) 
glide-dock_SP_D22_pv

>  <s_m_subgroupid>  (1510) 
glide-dock_SP_D22_pv

>  <Molecule ChEMBL ID>  (1510) 
CHEMBL5959945

>  <Standard Type>  (1510) 
Ki

>  <Standard Value>  (1510) 
10000.0

>  <label>  (1510) 
0

$$$$
CHEMBL308185
     RDKit          3D

  0  0  0  0  0  0  0  0  0  0999 V3000
M  V30 BEGIN CTAB
M  V30 COUNTS 50 52 0 0 1
M  V30 BEGIN ATOM
M  V30 1 C 5.689238 3.173589 -12.802789 0
M  V30 2 C 5.378726 2.061946 -13.201436 0
M  V30 3 C 5.044791 0.804422 -13.846493 0
M  V30 4 C 6.040217 0.104770 -14.555824 0
M  V30 5 C 5.686113 -0.995768 -15.357313 0
M  V30 6 C 4.348207 -1.426305 -15.429300 0
M  V30 7 C 3.359472 -0.740341 -14.703226 0
M  V30 8 C 3.704560 0.367723 -13.913031 0
M  V30 9 C 6.118320 4.512346 -12.376492 0
M  V30 10 O 7.283849 4.898718 -13.095727 0
M  V30 11 C 7.914742 6.066565 -12.580128 0
M  V30 12 C 9.269522 5.700427 -11.930862 0 CFG=1
M  V30 13 C 10.088025 6.918739 -11.464177 0
M  V30 14 C 9.514965 7.577177 -10.192386 0
M  V30 15 N 9.337716 6.598926 -9.082240 0 CFG=1 CHG=1
M  V30 16 C 8.805373 7.222946 -7.841910 0
M  V30 17 C 9.890223 7.779884 -6.936442 0
M  V30 18 C 10.414947 6.990750 -5.896016 0
M  V30 19 C 11.315941 7.544472 -4.970397 0
M  V30 20 C 11.724571 8.886233 -5.097239 0
M  V30 21 C 11.241739 9.666593 -6.163435 0
M  V30 22 C 10.322894 9.111786 -7.076463 0
M  V30 23 C 8.521223 5.434768 -9.510035 0
M  V30 24 C 9.122064 4.740130 -10.743463 0
M  V30 25 H 7.066494 0.444795 -14.542078 0
M  V30 26 H 6.444968 -1.483313 -15.946399 0
M  V30 27 H 4.079340 -2.267149 -16.054071 0
M  V30 28 H 2.323992 -1.027625 -14.785738 0
M  V30 29 H 2.912125 0.931517 -13.447166 0
M  V30 30 H 5.307317 5.225434 -12.530522 0
M  V30 31 H 6.325404 4.448922 -11.314339 0
M  V30 32 H 8.084438 6.742634 -13.417665 0
M  V30 33 H 7.267759 6.601777 -11.885503 0
M  V30 34 H 9.851790 5.191413 -12.700425 0
M  V30 35 H 11.105738 6.583792 -11.263555 0
M  V30 36 H 10.162862 7.656036 -12.263352 0
M  V30 37 H 8.563383 8.053887 -10.427752 0
M  V30 38 H 10.186957 8.371740 -9.870841 0
M  V30 39 H 8.095637 8.016539 -8.073921 0
M  V30 40 H 8.242043 6.490616 -7.260666 0
M  V30 41 H 10.087307 5.972964 -5.772796 0
M  V30 42 H 11.692869 6.938262 -4.158562 0
M  V30 43 H 12.420067 9.310793 -4.387416 0
M  V30 44 H 11.559114 10.693071 -6.268024 0
M  V30 45 H 9.916530 9.725773 -7.865005 0
M  V30 46 H 7.514402 5.772549 -9.735117 0
M  V30 47 H 8.437348 4.713095 -8.696412 0
M  V30 48 H 8.507695 3.900422 -11.047923 0
M  V30 49 H 10.085949 4.312888 -10.479364 0
M  V30 50 H 10.248602 6.233880 -8.848045 0
M  V30 END ATOM
M  V30 BEGIN BOND
M  V30 1 3 2 1
M  V30 2 1 3 2
M  V30 3 2 4 3
M  V30 4 1 5 4
M  V30 5 2 6 5
M  V30 6 1 7 6
M  V30 7 1 8 3
M  V30 8 2 8 7
M  V30 9 1 9 1
M  V30 10 1 10 9
M  V30 11 1 11 10
M  V30 12 1 12 11
M  V30 13 1 13 12
M  V30 14 1 14 13
M  V30 15 1 15 14
M  V30 16 1 16 15
M  V30 17 1 17 16
M  V30 18 2 18 17
M  V30 19 1 19 18
M  V30 20 2 20 19
M  V30 21 1 21 20
M  V30 22 1 22 17
M  V30 23 2 22 21
M  V30 24 1 23 15
M  V30 25 1 24 12
M  V30 26 1 24 23
M  V30 27 1 25 4
M  V30 28 1 26 5
M  V30 29 1 27 6
M  V30 30 1 28 7
M  V30 31 1 29 8
M  V30 32 1 30 9
M  V30 33 1 31 9
M  V30 34 1 32 11
M  V30 35 1 33 11
M  V30 36 1 12 34 CFG=3
M  V30 37 1 35 13
M  V30 38 1 36 13
M  V30 39 1 37 14
M  V30 40 1 38 14
M  V30 41 1 39 16
M  V30 42 1 40 16
M  V30 43 1 41 18
M  V30 44 1 42 19
M  V30 45 1 43 20
M  V30 46 1 44 21
M  V30 47 1 45 22
M  V30 48 1 46 23
M  V30 49 1 47 23
M  V30 50 1 48 24
M  V30 51 1 49 24
M  V30 52 1 15 50 CFG=1
M  V30 END BOND
M  V30 END CTAB
M  END
>  <b_m_subgroup_collapsed>  (1511) 
0

>  <r_i_docking_score>  (1511) 
-7.0496178661699203

>  <s_m_subgroup_title>  (1511) 
glide-dock_SP_D22_pv

>  <s_m_subgroupid>  (1511) 
glide-dock_SP_D22_pv

>  <Molecule ChEMBL ID>  (1511) 
CHEMBL308185

>  <Standard Type>  (1511) 
Ki

>  <Standard Value>  (1511) 
10000.0

>  <label>  (1511) 
0

$$$$
CHEMBL485028
     RDKit          3D

  0  0  0  0  0  0  0  0  0  0999 V3000
M  V30 BEGIN CTAB
M  V30 COUNTS 57 60 0 0 1
M  V30 BEGIN ATOM
M  V30 1 C 11.828830 9.729271 -3.727278 0
M  V30 2 C 11.162251 9.742919 -5.109240 0
M  V30 3 C 11.665401 8.604102 -6.010808 0
M  V30 4 N 10.629712 8.158001 -6.988853 0 CFG=2 CHG=1
M  V30 5 C 9.827448 7.040796 -6.429095 0
M  V30 6 C 8.704835 6.663073 -7.393536 0
M  V30 7 O 9.284176 6.248223 -8.621813 0
M  V30 8 C 9.951413 7.328256 -9.260605 0 CFG=2
M  V30 9 C 10.411179 6.973843 -10.672081 0
M  V30 10 C 9.679899 6.052931 -11.454605 0
M  V30 11 C 10.109765 5.711431 -12.761920 0
M  V30 12 C 9.404359 4.658592 -13.569252 0
M  V30 13 O 10.009418 4.075576 -14.468972 0
M  V30 14 N 8.097557 4.490678 -13.291239 0
M  V30 15 C 7.269174 3.372200 -13.580261 0
M  V30 16 C 6.013095 3.333262 -12.942743 0
M  V30 17 C 5.200137 2.189804 -13.045922 0
M  V30 18 C 5.604322 1.069019 -13.797396 0
M  V30 19 O 4.737197 -0.000074 -13.839403 0
M  V30 20 C 5.086467 -1.107049 -14.657334 0
M  V30 21 C 6.848307 1.118953 -14.469541 0
M  V30 22 C 7.668067 2.260597 -14.366164 0
M  V30 23 C 11.281917 6.307488 -13.280795 0
M  V30 24 C 11.991920 7.248828 -12.521043 0
M  V30 25 C 11.564108 7.581031 -11.220863 0
M  V30 26 C 12.390873 8.572144 -10.434031 0
M  V30 27 C 11.822162 8.964402 -9.066624 0
M  V30 28 C 11.125123 7.797181 -8.353454 0 CFG=1
M  V30 29 H 11.503201 10.571954 -3.118158 0
M  V30 30 H 12.915282 9.773195 -3.812282 0
M  V30 31 H 11.577914 8.818214 -3.180722 0
M  V30 32 H 10.086123 9.689199 -4.982118 0
M  V30 33 H 11.347342 10.700398 -5.598423 0
M  V30 34 H 12.573978 8.971890 -6.479573 0
M  V30 35 H 11.977476 7.751211 -5.405000 0
M  V30 36 H 10.463694 6.173363 -6.248657 0
M  V30 37 H 9.406292 7.331598 -5.468813 0
M  V30 38 H 8.082587 5.864656 -6.990528 0
M  V30 39 H 8.086105 7.541674 -7.540802 0
M  V30 40 H 9.237370 8.145163 -9.390248 0
M  V30 41 H 8.801393 5.592774 -11.025713 0
M  V30 42 H 7.711278 5.151669 -12.632186 0
M  V30 43 H 5.684846 4.161236 -12.331150 0
M  V30 44 H 4.246155 2.172394 -12.541925 0
M  V30 45 H 4.271155 -1.827751 -14.645227 0
M  V30 46 H 5.981882 -1.608485 -14.288000 0
M  V30 47 H 5.237756 -0.808270 -15.694876 0
M  V30 48 H 7.203738 0.287949 -15.058406 0
M  V30 49 H 8.616315 2.228443 -14.875870 0
M  V30 50 H 11.639497 6.050597 -14.268018 0
M  V30 51 H 12.885976 7.695621 -12.931852 0
M  V30 52 H 13.396873 8.172313 -10.309608 0
M  V30 53 H 12.485154 9.465161 -11.047138 0
M  V30 54 H 12.645622 9.372248 -8.491662 0
M  V30 55 H 11.103634 9.772067 -9.200844 0
M  V30 56 H 11.831077 6.974684 -8.237884 0
M  V30 57 H 9.998845 8.936713 -7.121074 0
M  V30 END ATOM
M  V30 BEGIN BOND
M  V30 1 1 2 1
M  V30 2 1 3 2
M  V30 3 1 4 3
M  V30 4 1 5 4
M  V30 5 1 6 5
M  V30 6 1 7 6
M  V30 7 1 8 7
M  V30 8 1 9 8
M  V30 9 1 10 9
M  V30 10 2 11 10
M  V30 11 1 12 11
M  V30 12 2 13 12
M  V30 13 1 14 12
M  V30 14 1 15 14
M  V30 15 1 16 15
M  V30 16 2 17 16
M  V30 17 1 18 17
M  V30 18 1 19 18
M  V30 19 1 20 19
M  V30 20 2 21 18
M  V30 21 2 22 15
M  V30 22 1 22 21
M  V30 23 1 23 11
M  V30 24 2 24 23
M  V30 25 2 25 9
M  V30 26 1 25 24
M  V30 27 1 26 25
M  V30 28 1 27 26
M  V30 29 1 28 4
M  V30 30 1 28 8
M  V30 31 1 28 27
M  V30 32 1 29 1
M  V30 33 1 30 1
M  V30 34 1 31 1
M  V30 35 1 32 2
M  V30 36 1 33 2
M  V30 37 1 34 3
M  V30 38 1 35 3
M  V30 39 1 36 5
M  V30 40 1 37 5
M  V30 41 1 38 6
M  V30 42 1 39 6
M  V30 43 1 8 40 CFG=3
M  V30 44 1 41 10
M  V30 45 1 42 14
M  V30 46 1 43 16
M  V30 47 1 44 17
M  V30 48 1 45 20
M  V30 49 1 46 20
M  V30 50 1 47 20
M  V30 51 1 48 21
M  V30 52 1 49 22
M  V30 53 1 50 23
M  V30 54 1 51 24
M  V30 55 1 52 26
M  V30 56 1 53 26
M  V30 57 1 54 27
M  V30 58 1 55 27
M  V30 59 1 28 56 CFG=1
M  V30 60 1 4 57 CFG=3
M  V30 END BOND
M  V30 END CTAB
M  END
>  <b_m_subgroup_collapsed>  (1512) 
0

>  <r_i_docking_score>  (1512) 
-7.0490459276172697

>  <s_m_subgroup_title>  (1512) 
glide-dock_SP_D22_pv

>  <s_m_subgroupid>  (1512) 
glide-dock_SP_D22_pv

>  <Molecule ChEMBL ID>  (1512) 
CHEMBL485028

>  <Standard Type>  (1512) 
Ki

>  <Standard Value>  (1512) 
10000.0

>  <label>  (1512) 
0

$$$$
CHEMBL159022
     RDKit          3D

  0  0  0  0  0  0  0  0  0  0999 V3000
M  V30 BEGIN CTAB
M  V30 COUNTS 59 62 0 0 1
M  V30 BEGIN ATOM
M  V30 1 C 7.129329 -0.848565 -18.357655 0
M  V30 2 O 7.092899 -0.061115 -17.177139 0
M  V30 3 C 6.066753 -0.273883 -16.275900 0
M  V30 4 C 4.944001 -1.089635 -16.577297 0
M  V30 5 C 3.905066 -1.258531 -15.646445 0
M  V30 6 C 3.970475 -0.629175 -14.393763 0
M  V30 7 C 5.080881 0.172322 -14.075609 0
M  V30 8 C 6.125822 0.372832 -15.011076 0
M  V30 9 C 7.289951 1.237263 -14.647539 0
M  V30 10 O 8.458828 0.961726 -14.928210 0
M  V30 11 C 6.962471 2.556759 -13.924005 0
M  V30 12 C 8.190232 3.372123 -13.464121 0
M  V30 13 C 7.811947 4.434867 -12.421983 0
M  V30 14 C 9.013847 4.987474 -11.638423 0
M  V30 15 C 8.585592 6.087527 -10.658670 0
M  V30 16 N 9.673157 6.382592 -9.723101 0
M  V30 17 C 9.238759 6.065567 -8.357906 0
M  V30 18 C 10.370484 6.314939 -7.339581 0
M  V30 19 N 10.898099 7.664087 -7.482023 0
M  V30 20 C 11.081154 8.525553 -6.385250 0
M  V30 21 N 10.999814 9.846213 -6.494105 0
M  V30 22 O 11.285229 10.392418 -5.215592 0
M  V30 23 C 11.594397 9.372710 -4.329949 0
M  V30 24 C 11.997362 9.407084 -2.988166 0
M  V30 25 C 12.237411 8.179367 -2.339637 0
M  V30 26 C 12.086450 6.966774 -3.046360 0
M  V30 27 C 11.687746 6.958992 -4.401388 0
M  V30 28 C 11.436613 8.187358 -5.052972 0
M  V30 29 C 11.196413 8.103493 -8.841029 0
M  V30 30 C 10.006572 7.808678 -9.774134 0
M  V30 31 H 8.046524 -0.633356 -18.903475 0
M  V30 32 H 7.127154 -1.916407 -18.127642 0
M  V30 33 H 6.290530 -0.619188 -19.017933 0
M  V30 34 H 4.842339 -1.593199 -17.526747 0
M  V30 35 H 3.058890 -1.886747 -15.892408 0
M  V30 36 H 3.164820 -0.761054 -13.687771 0
M  V30 37 H 5.115277 0.629392 -13.098412 0
M  V30 38 H 6.331150 3.165021 -14.575557 0
M  V30 39 H 6.361052 2.320142 -13.047028 0
M  V30 40 H 8.948519 2.710673 -13.047302 0
M  V30 41 H 8.660045 3.849172 -14.323494 0
M  V30 42 H 7.281529 5.255200 -12.908276 0
M  V30 43 H 7.112024 4.010013 -11.701415 0
M  V30 44 H 9.482800 4.173254 -11.085971 0
M  V30 45 H 9.766412 5.379060 -12.321458 0
M  V30 46 H 8.294271 6.972691 -11.228910 0
M  V30 47 H 7.686103 5.772358 -10.123311 0
M  V30 48 H 8.369742 6.668624 -8.094047 0
M  V30 49 H 8.931009 5.020562 -8.303839 0
M  V30 50 H 9.957805 6.171724 -6.339684 0
M  V30 51 H 11.184832 5.600395 -7.475111 0
M  V30 52 H 12.101698 10.346673 -2.464926 0
M  V30 53 H 12.539159 8.170684 -1.303550 0
M  V30 54 H 12.261868 6.025190 -2.542101 0
M  V30 55 H 11.601592 6.019535 -4.923542 0
M  V30 56 H 11.439707 9.164667 -8.878544 0
M  V30 57 H 12.083828 7.574148 -9.185188 0
M  V30 58 H 10.275891 8.082308 -10.795818 0
M  V30 59 H 9.141001 8.412485 -9.494895 0
M  V30 END ATOM
M  V30 BEGIN BOND
M  V30 1 1 2 1
M  V30 2 1 3 2
M  V30 3 2 4 3
M  V30 4 1 5 4
M  V30 5 2 6 5
M  V30 6 1 7 6
M  V30 7 1 8 3
M  V30 8 2 8 7
M  V30 9 1 9 8
M  V30 10 2 10 9
M  V30 11 1 11 9
M  V30 12 1 12 11
M  V30 13 1 13 12
M  V30 14 1 14 13
M  V30 15 1 15 14
M  V30 16 1 16 15
M  V30 17 1 17 16
M  V30 18 1 18 17
M  V30 19 1 19 18
M  V30 20 1 20 19
M  V30 21 2 21 20
M  V30 22 1 22 21
M  V30 23 1 23 22
M  V30 24 2 24 23
M  V30 25 1 25 24
M  V30 26 2 26 25
M  V30 27 1 27 26
M  V30 28 1 28 20
M  V30 29 1 28 23
M  V30 30 2 28 27
M  V30 31 1 29 19
M  V30 32 1 30 16
M  V30 33 1 30 29
M  V30 34 1 31 1
M  V30 35 1 32 1
M  V30 36 1 33 1
M  V30 37 1 34 4
M  V30 38 1 35 5
M  V30 39 1 36 6
M  V30 40 1 37 7
M  V30 41 1 38 11
M  V30 42 1 39 11
M  V30 43 1 40 12
M  V30 44 1 41 12
M  V30 45 1 42 13
M  V30 46 1 43 13
M  V30 47 1 44 14
M  V30 48 1 45 14
M  V30 49 1 46 15
M  V30 50 1 47 15
M  V30 51 1 48 17
M  V30 52 1 49 17
M  V30 53 1 50 18
M  V30 54 1 51 18
M  V30 55 1 52 24
M  V30 56 1 53 25
M  V30 57 1 54 26
M  V30 58 1 55 27
M  V30 59 1 56 29
M  V30 60 1 57 29
M  V30 61 1 58 30
M  V30 62 1 59 30
M  V30 END BOND
M  V30 END CTAB
M  END
>  <b_m_subgroup_collapsed>  (1513) 
0

>  <r_i_docking_score>  (1513) 
-7.0479986629385296

>  <s_m_subgroup_title>  (1513) 
glide-dock_SP_D22_pv

>  <s_m_subgroupid>  (1513) 
glide-dock_SP_D22_pv

>  <Molecule ChEMBL ID>  (1513) 
CHEMBL159022

>  <Standard Type>  (1513) 
Ki

>  <Standard Value>  (1513) 
78.1

>  <label>  (1513) 
1

$$$$
CHEMBL5723021
     RDKit          3D

  0  0  0  0  0  0  0  0  0  0999 V3000
M  V30 BEGIN CTAB
M  V30 COUNTS 49 51 0 0 1
M  V30 BEGIN ATOM
M  V30 1 C 12.218524 7.142887 -14.627362 0
M  V30 2 C 11.565338 6.391515 -13.458700 0
M  V30 3 C 11.103189 5.002928 -13.804813 0
M  V30 4 N 11.736496 4.175144 -14.645044 0 CHG=1
M  V30 5 C 11.098005 2.967561 -14.704803 0
M  V30 6 C 10.031121 3.053396 -13.851204 0
M  V30 7 N 10.050488 4.316233 -13.314108 0
M  V30 8 C 9.068843 4.853395 -12.356647 0
M  V30 9 C 9.666138 5.069848 -10.960079 0
M  V30 10 C 8.656429 5.621396 -9.942795 0
M  V30 11 N 9.288345 6.021670 -8.688200 0
M  V30 12 C 10.044443 7.253612 -8.886424 0
M  V30 13 C 10.612473 7.842205 -7.610971 0
M  V30 14 C 10.913470 9.149505 -7.535467 0
M  V30 15 C 11.404779 9.761180 -6.286074 0
M  V30 16 O 11.685802 10.956700 -6.232904 0
M  V30 17 C 11.541053 8.838857 -5.124290 0
M  V30 18 C 11.930441 9.309799 -3.851854 0
M  V30 19 C 12.100322 8.412579 -2.780370 0
M  V30 20 C 12.486837 8.926709 -1.415378 0
M  V30 21 C 11.892361 7.035663 -2.977079 0
M  V30 22 C 11.465554 6.572187 -4.233151 0
M  V30 23 C 11.267468 7.461220 -5.300069 0
M  V30 24 N 10.790813 6.995050 -6.531136 0
M  V30 25 H 12.487255 8.157331 -14.331294 0
M  V30 26 H 13.132587 6.648772 -14.957365 0
M  V30 27 H 11.547020 7.213513 -15.482780 0
M  V30 28 H 10.716906 6.951028 -13.064810 0
M  V30 29 H 12.284608 6.285617 -12.646956 0
M  V30 30 H 11.448972 2.153130 -15.323432 0
M  V30 31 H 9.283197 2.319060 -13.585269 0
M  V30 32 H 8.230757 4.156772 -12.301876 0
M  V30 33 H 8.674191 5.785843 -12.761894 0
M  V30 34 H 10.483039 5.771922 -11.066871 0
M  V30 35 H 10.085835 4.137083 -10.582197 0
M  V30 36 H 7.921740 4.848051 -9.725164 0
M  V30 37 H 8.106825 6.465704 -10.362617 0
M  V30 38 H 8.529812 6.248391 -8.054536 0
M  V30 39 H 9.391583 8.000044 -9.343815 0
M  V30 40 H 10.888075 7.104324 -9.557521 0
M  V30 41 H 10.782975 9.771962 -8.404251 0
M  V30 42 H 12.085668 10.359777 -3.678906 0
M  V30 43 H 13.479082 8.579370 -1.132283 0
M  V30 44 H 12.479774 10.013732 -1.381026 0
M  V30 45 H 11.769739 8.575003 -0.677250 0
M  V30 46 H 12.022861 6.336033 -2.163747 0
M  V30 47 H 11.270178 5.526771 -4.372936 0
M  V30 48 H 10.535310 6.021721 -6.636989 0
M  V30 49 H 12.573000 4.416141 -15.162177 0
M  V30 END ATOM
M  V30 BEGIN BOND
M  V30 1 1 2 1
M  V30 2 1 3 2
M  V30 3 2 4 3
M  V30 4 1 5 4
M  V30 5 2 6 5
M  V30 6 1 7 3
M  V30 7 1 7 6
M  V30 8 1 8 7
M  V30 9 1 9 8
M  V30 10 1 10 9
M  V30 11 1 11 10
M  V30 12 1 12 11
M  V30 13 1 13 12
M  V30 14 2 14 13
M  V30 15 1 15 14
M  V30 16 2 16 15
M  V30 17 1 17 15
M  V30 18 2 18 17
M  V30 19 1 19 18
M  V30 20 1 20 19
M  V30 21 2 21 19
M  V30 22 1 22 21
M  V30 23 1 23 17
M  V30 24 2 23 22
M  V30 25 1 24 13
M  V30 26 1 24 23
M  V30 27 1 25 1
M  V30 28 1 26 1
M  V30 29 1 27 1
M  V30 30 1 28 2
M  V30 31 1 29 2
M  V30 32 1 30 5
M  V30 33 1 31 6
M  V30 34 1 32 8
M  V30 35 1 33 8
M  V30 36 1 34 9
M  V30 37 1 35 9
M  V30 38 1 36 10
M  V30 39 1 37 10
M  V30 40 1 38 11
M  V30 41 1 39 12
M  V30 42 1 40 12
M  V30 43 1 41 14
M  V30 44 1 42 18
M  V30 45 1 43 20
M  V30 46 1 44 20
M  V30 47 1 45 20
M  V30 48 1 46 21
M  V30 49 1 47 22
M  V30 50 1 48 24
M  V30 51 1 49 4
M  V30 END BOND
M  V30 END CTAB
M  END
>  <b_m_subgroup_collapsed>  (1514) 
0

>  <r_i_docking_score>  (1514) 
-7.04630200664129

>  <s_m_subgroup_title>  (1514) 
glide-dock_SP_D22_pv

>  <s_m_subgroupid>  (1514) 
glide-dock_SP_D22_pv

>  <Molecule ChEMBL ID>  (1514) 
CHEMBL5723021

>  <Standard Type>  (1514) 
Ki

>  <Standard Value>  (1514) 
10000.0

>  <label>  (1514) 
0

$$$$
CHEMBL5723018
     RDKit          3D

  0  0  0  0  0  0  0  0  0  0999 V3000
M  V30 BEGIN CTAB
M  V30 COUNTS 38 40 0 0 1
M  V30 BEGIN ATOM
M  V30 1 C 11.626830 8.293267 -9.063336 0
M  V30 2 C 10.137835 7.917014 -8.886416 0 CFG=1
M  V30 3 C 9.547973 8.349076 -7.517368 0
M  V30 4 C 10.480043 8.306214 -6.342372 0
M  V30 5 C 10.826493 7.220662 -5.572214 0
M  V30 6 N 11.686131 7.528796 -4.512402 0
M  V30 7 C 12.012917 8.821752 -4.498631 0
M  V30 8 S 11.285951 9.759742 -5.790742 0
M  V30 9 N 9.285987 8.535812 -9.902742 0
M  V30 10 C 9.659756 8.374495 -11.298359 0
M  V30 11 C 9.407353 6.993302 -11.869217 0
M  V30 12 C 10.376184 6.282118 -12.482890 0
M  V30 13 C 10.073762 5.002185 -13.155761 0
M  V30 14 O 10.959296 4.331651 -13.686066 0
M  V30 15 C 8.639856 4.594014 -13.163934 0
M  V30 16 C 8.227038 3.429839 -13.847401 0
M  V30 17 C 6.870742 3.054564 -13.846437 0
M  V30 18 F 6.486045 1.929639 -14.492700 0
M  V30 19 C 5.921925 3.834209 -13.155334 0
M  V30 20 C 6.325650 5.000852 -12.475990 0
M  V30 21 C 7.679426 5.388546 -12.487759 0
M  V30 22 N 8.087126 6.564015 -11.846874 0
M  V30 23 H 12.243749 7.898083 -8.257057 0
M  V30 24 H 12.045406 7.878695 -9.979031 0
M  V30 25 H 11.761709 9.373395 -9.087204 0
M  V30 26 H 10.059268 6.832203 -8.971869 0
M  V30 27 H 8.663958 7.745638 -7.302484 0
M  V30 28 H 9.174088 9.372036 -7.594659 0
M  V30 29 H 10.484183 6.202215 -5.688197 0
M  V30 30 H 12.675649 9.218051 -3.742758 0
M  V30 31 H 8.313009 8.245600 -9.796043 0
M  V30 32 H 9.066107 9.078569 -11.882266 0
M  V30 33 H 10.697263 8.659616 -11.446836 0
M  V30 34 H 11.390343 6.650852 -12.529921 0
M  V30 35 H 8.946079 2.813242 -14.368202 0
M  V30 36 H 4.883784 3.536870 -13.147250 0
M  V30 37 H 5.598949 5.599923 -11.946035 0
M  V30 38 H 7.394843 7.096604 -11.303053 0
M  V30 END ATOM
M  V30 BEGIN BOND
M  V30 1 1 2 1
M  V30 2 1 3 2
M  V30 3 1 4 3
M  V30 4 2 5 4
M  V30 5 1 6 5
M  V30 6 2 7 6
M  V30 7 1 8 4
M  V30 8 1 8 7
M  V30 9 1 9 2
M  V30 10 1 10 9
M  V30 11 1 11 10
M  V30 12 2 12 11
M  V30 13 1 13 12
M  V30 14 2 14 13
M  V30 15 1 15 13
M  V30 16 2 16 15
M  V30 17 1 17 16
M  V30 18 1 18 17
M  V30 19 2 19 17
M  V30 20 1 20 19
M  V30 21 1 21 15
M  V30 22 2 21 20
M  V30 23 1 22 11
M  V30 24 1 22 21
M  V30 25 1 23 1
M  V30 26 1 24 1
M  V30 27 1 25 1
M  V30 28 1 2 26 CFG=1
M  V30 29 1 27 3
M  V30 30 1 28 3
M  V30 31 1 29 5
M  V30 32 1 30 7
M  V30 33 1 31 9
M  V30 34 1 32 10
M  V30 35 1 33 10
M  V30 36 1 34 12
M  V30 37 1 35 16
M  V30 38 1 36 19
M  V30 39 1 37 20
M  V30 40 1 38 22
M  V30 END BOND
M  V30 END CTAB
M  END
>  <b_m_subgroup_collapsed>  (1515) 
0

>  <r_i_docking_score>  (1515) 
-7.0427422253477001

>  <s_m_subgroup_title>  (1515) 
glide-dock_SP_D22_pv

>  <s_m_subgroupid>  (1515) 
glide-dock_SP_D22_pv

>  <Molecule ChEMBL ID>  (1515) 
CHEMBL5723018

>  <Standard Type>  (1515) 
Ki

>  <Standard Value>  (1515) 
10000.0

>  <label>  (1515) 
0

$$$$
CHEMBL4250062
     RDKit          3D

  0  0  0  0  0  0  0  0  0  0999 V3000
M  V30 BEGIN CTAB
M  V30 COUNTS 54 56 0 0 1
M  V30 BEGIN ATOM
M  V30 1 C 9.986140 0.037194 -15.347516 0
M  V30 2 C 10.223321 1.196707 -15.047447 0
M  V30 3 C 10.485446 2.589602 -14.652506 0
M  V30 4 O 9.261586 3.192307 -14.250245 0
M  V30 5 C 9.314830 4.337188 -13.483442 0
M  V30 6 C 10.486187 5.119112 -13.325635 0
M  V30 7 C 10.484998 6.251893 -12.491110 0
M  V30 8 C 9.317061 6.615729 -11.789744 0
M  V30 9 C 9.332050 7.803302 -10.835052 0
M  V30 10 N 9.286145 7.403330 -9.401186 0 CHG=1
M  V30 11 C 10.442330 6.551503 -8.996707 0
M  V30 12 C 10.381636 6.132746 -7.513926 0
M  V30 13 N 10.125545 7.286989 -6.669939 0
M  V30 14 C 10.945412 7.589139 -5.561295 0
M  V30 15 C 11.282420 6.586195 -4.626282 0
M  V30 16 C 12.039792 6.866998 -3.476504 0
M  V30 17 C 12.485663 8.174735 -3.243230 0
M  V30 18 C 12.182435 9.180957 -4.176062 0
M  V30 19 C 11.439693 8.897299 -5.354650 0
M  V30 20 O 11.194541 9.829976 -6.341626 0
M  V30 21 C 11.784896 11.092562 -6.171742 0
M  V30 22 C 8.987004 8.118937 -7.030537 0
M  V30 23 C 9.111434 8.572122 -8.495892 0
M  V30 24 C 8.137341 5.867436 -11.979644 0
M  V30 25 C 8.123175 4.736537 -12.834688 0
M  V30 26 O 6.998337 3.973211 -13.071215 0
M  V30 27 C 5.759893 4.414100 -12.536112 0
M  V30 28 H 9.759658 -0.978469 -15.590185 0
M  V30 29 H 11.215012 2.560088 -13.844559 0
M  V30 30 H 10.919996 3.120326 -15.500228 0
M  V30 31 H 11.402551 4.858817 -13.833286 0
M  V30 32 H 11.392448 6.822993 -12.376427 0
M  V30 33 H 10.219674 8.410065 -11.010497 0
M  V30 34 H 8.485781 8.448028 -11.065425 0
M  V30 35 H 10.481288 5.649680 -9.608199 0
M  V30 36 H 11.365446 7.103541 -9.182548 0
M  V30 37 H 9.579123 5.409876 -7.367453 0
M  V30 38 H 11.313057 5.643133 -7.231816 0
M  V30 39 H 10.898321 5.596970 -4.755751 0
M  V30 40 H 12.255652 6.080340 -2.765517 0
M  V30 41 H 13.046288 8.409302 -2.353073 0
M  V30 42 H 12.553131 10.167169 -3.955769 0
M  V30 43 H 11.685107 11.729695 -7.046732 0
M  V30 44 H 11.286444 11.578592 -5.329421 0
M  V30 45 H 12.856544 10.973892 -6.001986 0
M  V30 46 H 8.085632 7.523652 -6.902218 0
M  V30 47 H 8.881241 8.972348 -6.362955 0
M  V30 48 H 9.964277 9.244572 -8.608363 0
M  V30 49 H 8.224715 9.140748 -8.778782 0
M  V30 50 H 7.248959 6.171965 -11.446935 0
M  V30 51 H 4.964701 3.754568 -12.883430 0
M  V30 52 H 5.765713 4.377369 -11.447162 0
M  V30 53 H 5.516825 5.425360 -12.862893 0
M  V30 54 H 8.438237 6.858403 -9.294830 0
M  V30 END ATOM
M  V30 BEGIN BOND
M  V30 1 3 2 1
M  V30 2 1 3 2
M  V30 3 1 4 3
M  V30 4 1 5 4
M  V30 5 1 6 5
M  V30 6 2 7 6
M  V30 7 1 8 7
M  V30 8 1 9 8
M  V30 9 1 10 9
M  V30 10 1 11 10
M  V30 11 1 12 11
M  V30 12 1 13 12
M  V30 13 1 14 13
M  V30 14 2 15 14
M  V30 15 1 16 15
M  V30 16 2 17 16
M  V30 17 1 18 17
M  V30 18 1 19 14
M  V30 19 2 19 18
M  V30 20 1 20 19
M  V30 21 1 21 20
M  V30 22 1 22 13
M  V30 23 1 23 10
M  V30 24 1 23 22
M  V30 25 2 24 8
M  V30 26 2 25 5
M  V30 27 1 25 24
M  V30 28 1 26 25
M  V30 29 1 27 26
M  V30 30 1 28 1
M  V30 31 1 29 3
M  V30 32 1 30 3
M  V30 33 1 31 6
M  V30 34 1 32 7
M  V30 35 1 33 9
M  V30 36 1 34 9
M  V30 37 1 35 11
M  V30 38 1 36 11
M  V30 39 1 37 12
M  V30 40 1 38 12
M  V30 41 1 39 15
M  V30 42 1 40 16
M  V30 43 1 41 17
M  V30 44 1 42 18
M  V30 45 1 43 21
M  V30 46 1 44 21
M  V30 47 1 45 21
M  V30 48 1 46 22
M  V30 49 1 47 22
M  V30 50 1 48 23
M  V30 51 1 49 23
M  V30 52 1 50 24
M  V30 53 1 51 27
M  V30 54 1 52 27
M  V30 55 1 53 27
M  V30 56 1 54 10
M  V30 END BOND
M  V30 END CTAB
M  END
>  <b_m_subgroup_collapsed>  (1516) 
0

>  <r_i_docking_score>  (1516) 
-7.0406789746078298

>  <s_m_subgroup_title>  (1516) 
glide-dock_SP_D22_pv

>  <s_m_subgroupid>  (1516) 
glide-dock_SP_D22_pv

>  <Molecule ChEMBL ID>  (1516) 
CHEMBL4250062

>  <Standard Type>  (1516) 
Ki

>  <Standard Value>  (1516) 
69.0

>  <label>  (1516) 
1

$$$$
CHEMBL3764557
     RDKit          3D

  0  0  0  0  0  0  0  0  0  0999 V3000
M  V30 BEGIN CTAB
M  V30 COUNTS 56 59 0 0 1
M  V30 BEGIN ATOM
M  V30 1 C 4.497760 0.291622 -13.803502 0
M  V30 2 C 4.573677 -0.424268 -15.115773 0
M  V30 3 N 3.679408 -1.428044 -15.434490 0
M  V30 4 C 4.038091 -1.827043 -16.654161 0
M  V30 5 O 5.084177 -1.134824 -17.173267 0
M  V30 6 C 5.414579 -0.249462 -16.186769 0
M  V30 7 C 6.523811 0.652537 -16.433943 0
M  V30 8 N 6.617288 1.372229 -17.556332 0
M  V30 9 N 7.758334 2.129335 -17.424997 0
M  V30 10 C 8.274911 1.791460 -16.243330 0
M  V30 11 S 9.746157 2.523519 -15.605546 0
M  V30 12 C 9.131158 3.100052 -13.992917 0
M  V30 13 C 9.281822 4.612061 -13.814952 0
M  V30 14 C 9.102633 5.011530 -12.345832 0
M  V30 15 N 9.314340 6.430648 -12.094945 0
M  V30 16 C 8.147495 7.243945 -12.422600 0
M  V30 17 C 8.394629 8.746792 -12.153090 0
M  V30 18 O 8.886032 8.972301 -10.837337 0
M  V30 19 C 9.999707 8.161285 -10.492029 0 CFG=1
M  V30 20 C 10.421607 8.409639 -9.065726 0
M  V30 21 C 9.474016 8.365988 -8.023499 0
M  V30 22 C 9.878836 8.554574 -6.690948 0
M  V30 23 C 11.231568 8.810146 -6.386469 0
M  V30 24 C 11.660134 8.979340 -4.936243 0
M  V30 25 F 12.924434 9.378740 -4.836166 0
M  V30 26 F 10.888358 9.880075 -4.332811 0
M  V30 27 F 11.548947 7.815478 -4.300361 0
M  V30 28 C 12.169444 8.867607 -7.439992 0
M  V30 29 C 11.773806 8.646001 -8.768749 0
M  V30 30 C 9.644405 6.680718 -10.704805 0
M  V30 31 N 7.567609 0.838702 -15.600724 0
M  V30 32 C 7.845372 0.172564 -14.340054 0
M  V30 33 H 5.085124 -0.225364 -13.045296 0
M  V30 34 H 4.872213 1.314409 -13.872214 0
M  V30 35 H 3.467122 0.343767 -13.449676 0
M  V30 36 H 3.548865 -2.607404 -17.217714 0
M  V30 37 H 8.084184 2.840045 -13.849779 0
M  V30 38 H 9.695545 2.573344 -13.226023 0
M  V30 39 H 10.274348 4.921553 -14.141846 0
M  V30 40 H 8.565265 5.129169 -14.450580 0
M  V30 41 H 8.120902 4.704917 -11.980202 0
M  V30 42 H 9.827440 4.435414 -11.769188 0
M  V30 43 H 7.860941 7.100068 -13.458702 0
M  V30 44 H 7.288640 6.904575 -11.847047 0
M  V30 45 H 9.102882 9.156529 -12.873371 0
M  V30 46 H 7.469739 9.311373 -12.253495 0
M  V30 47 H 10.828960 8.427936 -11.150171 0
M  V30 48 H 8.437812 8.163693 -8.249915 0
M  V30 49 H 9.149779 8.480982 -5.901318 0
M  V30 50 H 13.215728 9.039862 -7.236394 0
M  V30 51 H 12.512403 8.674805 -9.557243 0
M  V30 52 H 8.804184 6.402369 -10.065156 0
M  V30 53 H 10.485992 6.057811 -10.404041 0
M  V30 54 H 8.920284 0.115100 -14.175941 0
M  V30 55 H 7.383361 0.715929 -13.519204 0
M  V30 56 H 7.439046 -0.839939 -14.356777 0
M  V30 END ATOM
M  V30 BEGIN BOND
M  V30 1 1 2 1
M  V30 2 1 3 2
M  V30 3 2 4 3
M  V30 4 1 5 4
M  V30 5 2 6 2
M  V30 6 1 6 5
M  V30 7 1 7 6
M  V30 8 2 8 7
M  V30 9 1 9 8
M  V30 10 2 10 9
M  V30 11 1 11 10
M  V30 12 1 12 11
M  V30 13 1 13 12
M  V30 14 1 14 13
M  V30 15 1 15 14
M  V30 16 1 16 15
M  V30 17 1 17 16
M  V30 18 1 18 17
M  V30 19 1 19 18
M  V30 20 1 20 19
M  V30 21 1 21 20
M  V30 22 2 22 21
M  V30 23 1 23 22
M  V30 24 1 24 23
M  V30 25 1 25 24
M  V30 26 1 26 24
M  V30 27 1 27 24
M  V30 28 2 28 23
M  V30 29 2 29 20
M  V30 30 1 29 28
M  V30 31 1 30 15
M  V30 32 1 30 19
M  V30 33 1 31 7
M  V30 34 1 31 10
M  V30 35 1 32 31
M  V30 36 1 33 1
M  V30 37 1 34 1
M  V30 38 1 35 1
M  V30 39 1 36 4
M  V30 40 1 37 12
M  V30 41 1 38 12
M  V30 42 1 39 13
M  V30 43 1 40 13
M  V30 44 1 41 14
M  V30 45 1 42 14
M  V30 46 1 43 16
M  V30 47 1 44 16
M  V30 48 1 45 17
M  V30 49 1 46 17
M  V30 50 1 19 47 CFG=3
M  V30 51 1 48 21
M  V30 52 1 49 22
M  V30 53 1 50 28
M  V30 54 1 51 29
M  V30 55 1 52 30
M  V30 56 1 53 30
M  V30 57 1 54 32
M  V30 58 1 55 32
M  V30 59 1 56 32
M  V30 END BOND
M  V30 END CTAB
M  END
>  <b_m_subgroup_collapsed>  (1517) 
0

>  <r_i_docking_score>  (1517) 
-7.0388367309735704

>  <s_m_subgroup_title>  (1517) 
glide-dock_SP_D22_pv

>  <s_m_subgroupid>  (1517) 
glide-dock_SP_D22_pv

>  <Molecule ChEMBL ID>  (1517) 
CHEMBL3764557

>  <Standard Type>  (1517) 
Ki

>  <Standard Value>  (1517) 
12589.25

>  <label>  (1517) 
0

$$$$
CHEMBL57019
     RDKit          3D

  0  0  0  0  0  0  0  0  0  0999 V3000
M  V30 BEGIN CTAB
M  V30 COUNTS 54 57 0 0 1
M  V30 BEGIN ATOM
M  V30 1 C 5.443855 0.498694 -13.929884 0
M  V30 2 O 6.080877 1.753536 -13.732941 0
M  V30 3 C 7.299021 1.989050 -14.338861 0
M  V30 4 C 7.900805 1.057417 -15.222144 0
M  V30 5 C 9.164042 1.308275 -15.788401 0
M  V30 6 C 9.749785 0.363951 -16.656803 0
M  V30 7 C 11.010429 0.622011 -17.227146 0
M  V30 8 C 11.687096 1.820887 -16.930744 0
M  V30 9 C 11.109579 2.759582 -16.054939 0
M  V30 10 C 9.846975 2.506858 -15.482794 0
M  V30 11 C 9.262448 3.438544 -14.601732 0
M  V30 12 C 7.994548 3.191581 -14.023635 0
M  V30 13 C 7.430115 4.172917 -13.046899 0
M  V30 14 O 6.224105 4.378239 -12.886668 0
M  V30 15 O 8.396632 4.761353 -12.308569 0
M  V30 16 C 8.047908 5.457159 -11.123456 0
M  V30 17 C 9.274617 6.174458 -10.545169 0 CFG=1
M  V30 18 C 9.586985 7.518587 -11.224290 0
M  V30 19 C 9.508577 8.562182 -10.108041 0
M  V30 20 N 9.764439 7.824074 -8.857897 0 CFG=1 CHG=1
M  V30 21 C 9.363192 8.541590 -7.622982 0
M  V30 22 C 10.366620 8.354292 -6.493886 0
M  V30 23 C 11.176623 9.430676 -6.065766 0
M  V30 24 C 12.031411 9.280745 -4.953465 0
M  V30 25 C 12.083402 8.058462 -4.253703 0
M  V30 26 C 11.295555 6.974879 -4.696650 0
M  V30 27 C 10.454268 7.118542 -5.816585 0
M  V30 28 C 9.136774 6.501722 -9.051578 0
M  V30 29 H 4.509722 0.480100 -13.367245 0
M  V30 30 H 5.198282 0.333154 -14.977839 0
M  V30 31 H 6.065580 -0.323192 -13.569182 0
M  V30 32 H 7.411785 0.128757 -15.474173 0
M  V30 33 H 9.233988 -0.555938 -16.892429 0
M  V30 34 H 11.459386 -0.098176 -17.894554 0
M  V30 35 H 12.658741 2.015279 -17.364048 0
M  V30 36 H 11.638908 3.672939 -15.827245 0
M  V30 37 H 9.798129 4.347351 -14.368129 0
M  V30 38 H 7.680660 4.726801 -10.401157 0
M  V30 39 H 7.244747 6.167554 -11.315398 0
M  V30 40 H 10.133117 5.515726 -10.654572 0
M  V30 41 H 8.896110 7.754412 -12.035507 0
M  V30 42 H 10.592448 7.494713 -11.647393 0
M  V30 43 H 8.505315 8.993052 -10.078903 0
M  V30 44 H 10.221635 9.371196 -10.245344 0
M  V30 45 H 8.371857 8.233711 -7.287305 0
M  V30 46 H 9.279913 9.605445 -7.838607 0
M  V30 47 H 11.136341 10.384119 -6.572655 0
M  V30 48 H 12.643498 10.109494 -4.631427 0
M  V30 49 H 12.731494 7.948041 -3.395798 0
M  V30 50 H 11.335534 6.030695 -4.173408 0
M  V30 51 H 9.835684 6.286335 -6.116380 0
M  V30 52 H 9.590675 5.734999 -8.421564 0
M  V30 53 H 8.086218 6.563446 -8.784529 0
M  V30 54 H 10.764078 7.677187 -8.815538 0
M  V30 END ATOM
M  V30 BEGIN BOND
M  V30 1 1 2 1
M  V30 2 1 3 2
M  V30 3 2 4 3
M  V30 4 1 5 4
M  V30 5 2 6 5
M  V30 6 1 7 6
M  V30 7 2 8 7
M  V30 8 1 9 8
M  V30 9 1 10 5
M  V30 10 2 10 9
M  V30 11 1 11 10
M  V30 12 1 12 3
M  V30 13 2 12 11
M  V30 14 1 13 12
M  V30 15 2 14 13
M  V30 16 1 15 13
M  V30 17 1 16 15
M  V30 18 1 17 16
M  V30 19 1 18 17
M  V30 20 1 19 18
M  V30 21 1 20 19
M  V30 22 1 21 20
M  V30 23 1 22 21
M  V30 24 2 23 22
M  V30 25 1 24 23
M  V30 26 2 25 24
M  V30 27 1 26 25
M  V30 28 1 27 22
M  V30 29 2 27 26
M  V30 30 1 28 17
M  V30 31 1 28 20
M  V30 32 1 29 1
M  V30 33 1 30 1
M  V30 34 1 31 1
M  V30 35 1 32 4
M  V30 36 1 33 6
M  V30 37 1 34 7
M  V30 38 1 35 8
M  V30 39 1 36 9
M  V30 40 1 37 11
M  V30 41 1 38 16
M  V30 42 1 39 16
M  V30 43 1 17 40 CFG=1
M  V30 44 1 41 18
M  V30 45 1 42 18
M  V30 46 1 43 19
M  V30 47 1 44 19
M  V30 48 1 45 21
M  V30 49 1 46 21
M  V30 50 1 47 23
M  V30 51 1 48 24
M  V30 52 1 49 25
M  V30 53 1 50 26
M  V30 54 1 51 27
M  V30 55 1 52 28
M  V30 56 1 53 28
M  V30 57 1 20 54 CFG=1
M  V30 END BOND
M  V30 END CTAB
M  END
>  <b_m_subgroup_collapsed>  (1518) 
0

>  <r_i_docking_score>  (1518) 
-7.0387274225988898

>  <s_m_subgroup_title>  (1518) 
glide-dock_SP_D22_pv

>  <s_m_subgroupid>  (1518) 
glide-dock_SP_D22_pv

>  <Molecule ChEMBL ID>  (1518) 
CHEMBL57019

>  <Standard Type>  (1518) 
Ki

>  <Standard Value>  (1518) 
10000.0

>  <label>  (1518) 
0

$$$$
CHEMBL160519
     RDKit          3D

  0  0  0  0  0  0  0  0  0  0999 V3000
M  V30 BEGIN CTAB
M  V30 COUNTS 44 45 0 0 1
M  V30 BEGIN ATOM
M  V30 1 C 8.644113 8.980704 -12.191386 0
M  V30 2 C 9.814590 8.058346 -11.798171 0
M  V30 3 C 9.459550 6.741545 -11.057725 0 CFG=1
M  V30 4 N 8.886048 7.106246 -9.740343 0 CHG=1
M  V30 5 C 9.204511 6.286495 -8.543584 0
M  V30 6 C 10.565533 6.691488 -7.967192 0
M  V30 7 C 9.091276 4.768110 -8.766507 0
M  V30 8 C 8.571185 5.714822 -11.854531 0 CFG=1
M  V30 9 O 7.340329 6.300909 -12.247723 0
M  V30 10 C 9.261676 4.958360 -13.012716 0
M  V30 11 C 10.616946 5.208405 -13.352237 0
M  V30 12 C 11.273130 4.482596 -14.360292 0
M  V30 13 C 10.599364 3.469079 -15.056654 0
M  V30 14 O 11.279066 2.768118 -16.012661 0
M  V30 15 C 9.252693 3.192635 -14.739133 0
M  V30 16 N 8.557791 2.164706 -15.432885 0
M  V30 17 C 7.285764 1.784352 -15.203550 0
M  V30 18 O 6.768723 0.892515 -15.869772 0
M  V30 19 C 6.594773 2.516053 -14.145845 0
M  V30 20 C 7.191549 3.512717 -13.463794 0
M  V30 21 C 8.584165 3.925024 -13.725419 0
M  V30 22 H 9.015252 9.850231 -12.723241 0
M  V30 23 H 7.945584 8.526030 -12.887396 0
M  V30 24 H 8.085518 9.333592 -11.324798 0
M  V30 25 H 10.491360 8.631201 -11.162685 0
M  V30 26 H 10.395524 7.850983 -12.688681 0
M  V30 27 H 10.407580 6.255882 -10.828737 0
M  V30 28 H 9.205053 8.039739 -9.529538 0
M  V30 29 H 8.458218 6.558521 -7.796610 0
M  V30 30 H 10.823519 6.087146 -7.096797 0
M  V30 31 H 11.351921 6.572163 -8.706640 0
M  V30 32 H 10.567676 7.735192 -7.651385 0
M  V30 33 H 9.285899 4.228138 -7.846855 0
M  V30 34 H 8.085800 4.481301 -9.070464 0
M  V30 35 H 9.804866 4.396144 -9.502009 0
M  V30 36 H 8.278519 4.915060 -11.182818 0
M  V30 37 H 6.933119 6.770959 -11.521803 0
M  V30 38 H 11.216286 5.938353 -12.837651 0
M  V30 39 H 12.308576 4.693513 -14.587592 0
M  V30 40 H 10.838544 1.999536 -16.335876 0
M  V30 41 H 9.040959 1.679653 -16.169695 0
M  V30 42 H 5.577786 2.245013 -13.899485 0
M  V30 43 H 6.632384 4.004478 -12.684944 0
M  V30 44 H 7.870953 7.199194 -9.846588 0
M  V30 END ATOM
M  V30 BEGIN BOND
M  V30 1 1 2 1
M  V30 2 1 3 2
M  V30 3 1 4 3
M  V30 4 1 5 4
M  V30 5 1 6 5
M  V30 6 1 7 5
M  V30 7 1 8 3
M  V30 8 1 9 8
M  V30 9 1 10 8
M  V30 10 1 11 10
M  V30 11 2 12 11
M  V30 12 1 13 12
M  V30 13 1 14 13
M  V30 14 2 15 13
M  V30 15 1 16 15
M  V30 16 1 17 16
M  V30 17 2 18 17
M  V30 18 1 19 17
M  V30 19 2 20 19
M  V30 20 2 21 10
M  V30 21 1 21 15
M  V30 22 1 21 20
M  V30 23 1 22 1
M  V30 24 1 23 1
M  V30 25 1 24 1
M  V30 26 1 25 2
M  V30 27 1 26 2
M  V30 28 1 3 27 CFG=1
M  V30 29 1 28 4
M  V30 30 1 29 5
M  V30 31 1 30 6
M  V30 32 1 31 6
M  V30 33 1 32 6
M  V30 34 1 33 7
M  V30 35 1 34 7
M  V30 36 1 35 7
M  V30 37 1 8 36 CFG=1
M  V30 38 1 37 9
M  V30 39 1 38 11
M  V30 40 1 39 12
M  V30 41 1 40 14
M  V30 42 1 41 16
M  V30 43 1 42 19
M  V30 44 1 43 20
M  V30 45 1 44 4
M  V30 END BOND
M  V30 END CTAB
M  END
>  <b_m_subgroup_collapsed>  (1519) 
0

>  <r_i_docking_score>  (1519) 
-7.0385035798345701

>  <s_m_subgroup_title>  (1519) 
glide-dock_SP_D22_pv

>  <s_m_subgroupid>  (1519) 
glide-dock_SP_D22_pv

>  <Molecule ChEMBL ID>  (1519) 
CHEMBL160519

>  <Standard Type>  (1519) 
Ki

>  <Standard Value>  (1519) 
86000.0

>  <label>  (1519) 
0

$$$$
CHEMBL383805
     RDKit          3D

  0  0  0  0  0  0  0  0  0  0999 V3000
M  V30 BEGIN CTAB
M  V30 COUNTS 37 38 0 0 1
M  V30 BEGIN ATOM
M  V30 1 C 9.516731 4.419744 -11.721018 0
M  V30 2 C 8.675683 5.093561 -10.630574 0
M  V30 3 C 9.246744 4.934802 -9.209209 0
M  V30 4 N 8.485983 5.761028 -8.243778 0 CHG=1
M  V30 5 C 9.126143 6.989641 -7.732267 0 CFG=2
M  V30 6 C 9.720753 7.861789 -8.857943 0
M  V30 7 C 10.178156 9.205382 -8.304641 0
M  V30 8 N 10.916679 9.047985 -7.069037 0
M  V30 9 N 11.687150 10.060781 -6.625740 0
M  V30 10 C 12.176617 9.618260 -5.484435 0
M  V30 11 C 11.641943 8.360422 -5.129819 0
M  V30 12 C 11.916795 7.686777 -3.846903 0
M  V30 13 O 11.616035 6.524501 -3.604095 0
M  V30 14 O 12.477139 8.535131 -2.963684 0
M  V30 15 C 12.618160 8.172438 -1.603949 0
M  V30 16 C 10.885068 7.969849 -6.202547 0
M  V30 17 C 10.124473 6.731619 -6.576277 0
M  V30 18 H 9.002369 4.462218 -12.682304 0
M  V30 19 H 9.704234 3.372057 -11.493715 0
M  V30 20 H 10.480057 4.911244 -11.850361 0
M  V30 21 H 8.566549 6.147577 -10.884946 0
M  V30 22 H 7.669277 4.676206 -10.652885 0
M  V30 23 H 9.157368 3.892716 -8.901213 0
M  V30 24 H 10.311886 5.162082 -9.174744 0
M  V30 25 H 7.636477 6.069057 -8.705473 0
M  V30 26 H 8.308464 7.565929 -7.295045 0
M  V30 27 H 10.572791 7.370796 -9.327749 0
M  V30 28 H 8.980500 8.038374 -9.639762 0
M  V30 29 H 10.767223 9.768069 -9.032282 0
M  V30 30 H 9.279984 9.772260 -8.071218 0
M  V30 31 H 12.911376 10.172584 -4.933526 0
M  V30 32 H 13.393201 8.780587 -1.137575 0
M  V30 33 H 12.885953 7.121862 -1.487507 0
M  V30 34 H 11.686515 8.350808 -1.069948 0
M  V30 35 H 9.596529 6.346849 -5.703339 0
M  V30 36 H 10.842689 5.964787 -6.867774 0
M  V30 37 H 8.208858 5.192883 -7.457620 0
M  V30 END ATOM
M  V30 BEGIN BOND
M  V30 1 1 2 1
M  V30 2 1 3 2
M  V30 3 1 4 3
M  V30 4 1 5 4
M  V30 5 1 6 5
M  V30 6 1 7 6
M  V30 7 1 8 7
M  V30 8 1 9 8
M  V30 9 2 10 9
M  V30 10 1 11 10
M  V30 11 1 12 11
M  V30 12 2 13 12
M  V30 13 1 14 12
M  V30 14 1 15 14
M  V30 15 1 16 8
M  V30 16 2 16 11
M  V30 17 1 17 5
M  V30 18 1 17 16
M  V30 19 1 18 1
M  V30 20 1 19 1
M  V30 21 1 20 1
M  V30 22 1 21 2
M  V30 23 1 22 2
M  V30 24 1 23 3
M  V30 25 1 24 3
M  V30 26 1 25 4
M  V30 27 1 5 26 CFG=1
M  V30 28 1 27 6
M  V30 29 1 28 6
M  V30 30 1 29 7
M  V30 31 1 30 7
M  V30 32 1 31 10
M  V30 33 1 32 15
M  V30 34 1 33 15
M  V30 35 1 34 15
M  V30 36 1 35 17
M  V30 37 1 36 17
M  V30 38 1 37 4
M  V30 END BOND
M  V30 END CTAB
M  END
>  <b_m_subgroup_collapsed>  (1520) 
0

>  <r_i_docking_score>  (1520) 
-7.0373269216256498

>  <s_m_subgroup_title>  (1520) 
glide-dock_SP_D22_pv

>  <s_m_subgroupid>  (1520) 
glide-dock_SP_D22_pv

>  <Molecule ChEMBL ID>  (1520) 
CHEMBL383805

>  <Standard Type>  (1520) 
Ki

>  <Standard Value>  (1520) 
100000.0

>  <label>  (1520) 
0

$$$$
CHEMBL435505
     RDKit          3D

  0  0  0  0  0  0  0  0  0  0999 V3000
M  V30 BEGIN CTAB
M  V30 COUNTS 45 47 0 0 1
M  V30 BEGIN ATOM
M  V30 1 C 12.086427 8.972735 -2.636030 0
M  V30 2 C 11.554451 9.636367 -3.755963 0
M  V30 3 C 11.279689 8.926571 -4.939200 0
M  V30 4 C 11.532520 7.536383 -5.018424 0
M  V30 5 C 11.280540 6.698194 -6.276420 0
M  V30 6 C 10.918623 7.416773 -7.576062 0
M  V30 7 C 11.619856 8.570800 -7.998792 0
M  V30 8 C 11.195763 9.278397 -9.139113 0
M  V30 9 C 10.069147 8.855081 -9.848190 0
M  V30 10 C 9.410954 7.692095 -9.470413 0
M  V30 11 C 9.882092 6.903677 -8.395591 0
M  V30 12 O 9.408424 5.629459 -8.157308 0
M  V30 13 C 8.485922 5.083220 -9.093754 0
M  V30 14 C 9.085281 4.808650 -10.501808 0
M  V30 15 N 8.046454 4.518037 -11.519997 0 CHG=1
M  V30 16 C 7.051656 5.561972 -11.826988 0
M  V30 17 C 6.304252 4.967147 -13.005629 0
M  V30 18 C 7.418889 4.316441 -13.837311 0
M  V30 19 C 8.567063 4.088107 -12.837407 0
M  V30 20 C 12.019258 6.874832 -3.868880 0
M  V30 21 C 12.301414 7.584893 -2.687573 0
M  V30 22 H 12.294819 9.520784 -1.728574 0
M  V30 23 H 11.324972 10.688307 -3.699373 0
M  V30 24 H 10.845337 9.470536 -5.763186 0
M  V30 25 H 12.138148 6.054630 -6.468396 0
M  V30 26 H 10.459729 6.035842 -6.010470 0
M  V30 27 H 12.466722 8.936243 -7.436595 0
M  V30 28 H 11.685804 10.172287 -9.473462 0
M  V30 29 H 9.712945 9.372248 -10.719035 0
M  V30 30 H 8.569535 7.412162 -10.081639 0
M  V30 31 H 8.086202 4.158285 -8.677920 0
M  V30 32 H 7.651408 5.771793 -9.139173 0
M  V30 33 H 9.704140 5.621392 -10.875129 0
M  V30 34 H 9.757440 3.953328 -10.431479 0
M  V30 35 H 6.353922 5.772082 -11.027612 0
M  V30 36 H 7.545188 6.495296 -12.104363 0
M  V30 37 H 5.623491 4.194895 -12.642199 0
M  V30 38 H 5.687254 5.704931 -13.511067 0
M  V30 39 H 7.076206 3.385647 -14.292756 0
M  V30 40 H 7.755698 4.972461 -14.641469 0
M  V30 41 H 9.418433 4.711831 -13.113635 0
M  V30 42 H 8.915627 3.056256 -12.826793 0
M  V30 43 H 12.172901 5.804546 -3.890088 0
M  V30 44 H 12.676558 7.061837 -1.821271 0
M  V30 45 H 7.506242 3.742959 -11.160655 0
M  V30 END ATOM
M  V30 BEGIN BOND
M  V30 1 2 2 1
M  V30 2 1 3 2
M  V30 3 2 4 3
M  V30 4 1 5 4
M  V30 5 1 6 5
M  V30 6 2 7 6
M  V30 7 1 8 7
M  V30 8 2 9 8
M  V30 9 1 10 9
M  V30 10 1 11 6
M  V30 11 2 11 10
M  V30 12 1 12 11
M  V30 13 1 13 12
M  V30 14 1 14 13
M  V30 15 1 15 14
M  V30 16 1 16 15
M  V30 17 1 17 16
M  V30 18 1 18 17
M  V30 19 1 19 15
M  V30 20 1 19 18
M  V30 21 1 20 4
M  V30 22 1 21 1
M  V30 23 2 21 20
M  V30 24 1 22 1
M  V30 25 1 23 2
M  V30 26 1 24 3
M  V30 27 1 25 5
M  V30 28 1 26 5
M  V30 29 1 27 7
M  V30 30 1 28 8
M  V30 31 1 29 9
M  V30 32 1 30 10
M  V30 33 1 31 13
M  V30 34 1 32 13
M  V30 35 1 33 14
M  V30 36 1 34 14
M  V30 37 1 35 16
M  V30 38 1 36 16
M  V30 39 1 37 17
M  V30 40 1 38 17
M  V30 41 1 39 18
M  V30 42 1 40 18
M  V30 43 1 41 19
M  V30 44 1 42 19
M  V30 45 1 43 20
M  V30 46 1 44 21
M  V30 47 1 45 15
M  V30 END BOND
M  V30 END CTAB
M  END
>  <b_m_subgroup_collapsed>  (1521) 
0

>  <r_i_docking_score>  (1521) 
-7.0353838182820301

>  <s_m_subgroup_title>  (1521) 
glide-dock_SP_D22_pv

>  <s_m_subgroupid>  (1521) 
glide-dock_SP_D22_pv

>  <Molecule ChEMBL ID>  (1521) 
CHEMBL435505

>  <Standard Type>  (1521) 
Ki

>  <Standard Value>  (1521) 
10000.0

>  <label>  (1521) 
0

$$$$
CHEMBL299879
     RDKit          3D

  0  0  0  0  0  0  0  0  0  0999 V3000
M  V30 BEGIN CTAB
M  V30 COUNTS 67 70 0 0 1
M  V30 BEGIN ATOM
M  V30 1 O 6.640665 1.372171 -18.771465 0
M  V30 2 N 7.067709 0.335664 -18.273327 0 CHG=1
M  V30 3 O 6.405621 -0.677373 -18.081665 0 CHG=-1
M  V30 4 C 8.497622 0.280672 -17.958420 0
M  V30 5 C 9.396984 -0.109378 -18.973972 0
M  V30 6 C 10.780191 -0.155100 -18.723017 0
M  V30 7 C 11.271853 0.187259 -17.449446 0
M  V30 8 C 10.382350 0.549093 -16.419708 0
M  V30 9 C 8.993654 0.612235 -16.672924 0
M  V30 10 S 7.866206 1.165073 -15.378758 0
M  V30 11 O 6.946955 2.164406 -15.941679 0
M  V30 12 O 7.345069 -0.022676 -14.689231 0
M  V30 13 N 8.868804 1.989518 -14.244425 0
M  V30 14 C 9.484554 3.278845 -14.554025 0
M  V30 15 C 9.511910 4.212410 -13.322943 0 CFG=1
M  V30 16 C 10.412642 5.418553 -13.646070 0
M  V30 17 C 10.390850 6.520584 -12.569714 0
M  V30 18 C 8.970763 6.962676 -12.180397 0 CFG=2
M  V30 19 C 9.012286 8.119152 -11.162126 0
M  V30 20 N 9.285556 7.639342 -9.795793 0 CHG=1
M  V30 21 C 9.509593 8.700980 -8.794242 0
M  V30 22 C 10.455050 8.233726 -7.669923 0 CFG=2
M  V30 23 C 9.962991 6.956213 -6.978339 0
M  V30 24 C 10.974451 6.480916 -5.936155 0
M  V30 25 C 11.414207 7.543578 -4.973525 0
M  V30 26 C 11.956749 7.152782 -3.729721 0
M  V30 27 C 12.273133 8.122962 -2.765554 0
M  V30 28 C 12.032962 9.476143 -3.047579 0
M  V30 29 C 11.496866 9.859703 -4.293014 0
M  V30 30 C 11.221395 8.903210 -5.282037 0
M  V30 31 C 10.660831 9.350157 -6.625928 0
M  V30 32 C 8.124425 5.733046 -11.781596 0
M  V30 33 C 8.096647 4.688292 -12.916630 0
M  V30 34 H 9.020102 -0.368610 -19.954140 0
M  V30 35 H 11.462398 -0.444884 -19.509005 0
M  V30 36 H 12.335059 0.158748 -17.260208 0
M  V30 37 H 10.784273 0.781782 -15.448025 0
M  V30 38 H 9.420609 1.374882 -13.641068 0
M  V30 39 H 10.498133 3.098571 -14.914254 0
M  V30 40 H 8.944624 3.755870 -15.372061 0
M  V30 41 H 9.951248 3.678352 -12.478166 0
M  V30 42 H 11.440475 5.080794 -13.787513 0
M  V30 43 H 10.105452 5.826554 -14.607196 0
M  V30 44 H 10.969770 7.375257 -12.923452 0
M  V30 45 H 10.886154 6.172266 -11.670053 0
M  V30 46 H 8.483429 7.389725 -13.047267 0
M  V30 47 H 9.784552 8.830709 -11.458660 0
M  V30 48 H 8.085865 8.689093 -11.180152 0
M  V30 49 H 8.460916 7.117455 -9.510483 0
M  V30 50 H 9.953243 9.573115 -9.277455 0
M  V30 51 H 8.543403 9.016202 -8.395460 0
M  V30 52 H 11.426326 8.005422 -8.109919 0
M  V30 53 H 9.004169 7.155456 -6.494699 0
M  V30 54 H 9.785832 6.146945 -7.687302 0
M  V30 55 H 11.843042 6.005534 -6.394558 0
M  V30 56 H 10.481466 5.772243 -5.295226 0
M  V30 57 H 12.098463 6.106094 -3.501872 0
M  V30 58 H 12.667918 7.832749 -1.803588 0
M  V30 59 H 12.239881 10.216351 -2.291615 0
M  V30 60 H 11.285753 10.900791 -4.489974 0
M  V30 61 H 11.276855 10.154912 -7.032601 0
M  V30 62 H 9.688663 9.771118 -6.401456 0
M  V30 63 H 7.106077 6.040596 -11.541484 0
M  V30 64 H 8.522057 5.265527 -10.879643 0
M  V30 65 H 7.591453 5.114026 -13.784718 0
M  V30 66 H 7.492886 3.833132 -12.609061 0
M  V30 67 H 10.085236 7.025153 -9.821955 0
M  V30 END ATOM
M  V30 BEGIN BOND
M  V30 1 2 2 1
M  V30 2 1 3 2
M  V30 3 1 4 2
M  V30 4 2 5 4
M  V30 5 1 6 5
M  V30 6 2 7 6
M  V30 7 1 8 7
M  V30 8 1 9 4
M  V30 9 2 9 8
M  V30 10 1 10 9
M  V30 11 2 11 10
M  V30 12 2 12 10
M  V30 13 1 13 10
M  V30 14 1 14 13
M  V30 15 1 15 14
M  V30 16 1 16 15
M  V30 17 1 17 16
M  V30 18 1 18 17
M  V30 19 1 19 18
M  V30 20 1 20 19
M  V30 21 1 21 20
M  V30 22 1 22 21
M  V30 23 1 23 22
M  V30 24 1 24 23
M  V30 25 1 25 24
M  V30 26 2 26 25
M  V30 27 1 27 26
M  V30 28 2 28 27
M  V30 29 1 29 28
M  V30 30 1 30 25
M  V30 31 2 30 29
M  V30 32 1 31 22
M  V30 33 1 31 30
M  V30 34 1 32 18
M  V30 35 1 33 15
M  V30 36 1 33 32
M  V30 37 1 34 5
M  V30 38 1 35 6
M  V30 39 1 36 7
M  V30 40 1 37 8
M  V30 41 1 38 13
M  V30 42 1 39 14
M  V30 43 1 40 14
M  V30 44 1 15 41 CFG=1
M  V30 45 1 42 16
M  V30 46 1 43 16
M  V30 47 1 44 17
M  V30 48 1 45 17
M  V30 49 1 18 46 CFG=3
M  V30 50 1 47 19
M  V30 51 1 48 19
M  V30 52 1 49 20
M  V30 53 1 50 21
M  V30 54 1 51 21
M  V30 55 1 22 52 CFG=3
M  V30 56 1 53 23
M  V30 57 1 54 23
M  V30 58 1 55 24
M  V30 59 1 56 24
M  V30 60 1 57 26
M  V30 61 1 58 27
M  V30 62 1 59 28
M  V30 63 1 60 29
M  V30 64 1 61 31
M  V30 65 1 62 31
M  V30 66 1 63 32
M  V30 67 1 64 32
M  V30 68 1 65 33
M  V30 69 1 66 33
M  V30 70 1 67 20
M  V30 END BOND
M  V30 END CTAB
M  END
>  <b_m_subgroup_collapsed>  (1522) 
0

>  <r_i_docking_score>  (1522) 
-7.0352809786662096

>  <s_m_subgroup_title>  (1522) 
glide-dock_SP_D22_pv

>  <s_m_subgroupid>  (1522) 
glide-dock_SP_D22_pv

>  <Molecule ChEMBL ID>  (1522) 
CHEMBL299879

>  <Standard Type>  (1522) 
Ki

>  <Standard Value>  (1522) 
63.0

>  <label>  (1522) 
1

$$$$
CHEMBL544115
     RDKit          3D

  0  0  0  0  0  0  0  0  0  0999 V3000
M  V30 BEGIN CTAB
M  V30 COUNTS 44 46 0 0 1
M  V30 BEGIN ATOM
M  V30 1 C 8.591473 4.218480 -8.464200 0
M  V30 2 C 9.166142 4.572315 -9.620350 0
M  V30 3 C 8.581649 5.593130 -10.566681 0
M  V30 4 N 8.272855 4.918546 -11.852597 0 CFG=1 CHG=1
M  V30 5 C 6.997344 5.331712 -12.479179 0
M  V30 6 C 6.260698 4.120157 -13.102000 0
M  V30 7 C 7.065537 2.995915 -13.800461 0
M  V30 8 C 8.384952 3.176518 -14.315563 0
M  V30 9 C 9.065116 2.070168 -14.878642 0
M  V30 10 C 8.470800 0.801515 -14.953819 0
M  V30 11 O 9.184112 -0.222723 -15.509050 0
M  V30 12 C 7.174054 0.607456 -14.442298 0
M  V30 13 O 6.581379 -0.627650 -14.494841 0
M  V30 14 C 6.485671 1.692788 -13.852710 0
M  V30 15 Cl 4.938601 1.373606 -13.140680 0
M  V30 16 C 9.091416 4.533518 -14.249023 0 CFG=2
M  V30 17 C 10.289003 4.679540 -15.198115 0
M  V30 18 C 10.052815 4.916450 -16.571779 0
M  V30 19 C 11.123056 5.080626 -17.471203 0
M  V30 20 C 12.447937 5.007976 -17.006123 0
M  V30 21 C 12.697022 4.765349 -15.643662 0
M  V30 22 C 11.627933 4.593864 -14.744518 0
M  V30 23 C 9.427551 4.937775 -12.789847 0
M  V30 24 H 7.686410 4.693553 -8.119421 0
M  V30 25 H 9.011142 3.443204 -7.848130 0
M  V30 26 H 10.085581 4.091985 -9.918276 0
M  V30 27 H 7.686357 5.992331 -10.095881 0
M  V30 28 H 9.259954 6.437348 -10.693286 0
M  V30 29 H 6.320549 5.764331 -11.740175 0
M  V30 30 H 7.164301 6.145909 -13.180699 0
M  V30 31 H 5.711730 3.675458 -12.272328 0
M  V30 32 H 5.502389 4.482701 -13.796861 0
M  V30 33 H 10.069070 2.169196 -15.263426 0
M  V30 34 H 8.778864 -1.079481 -15.446932 0
M  V30 35 H 7.016301 -1.280484 -15.027707 0
M  V30 36 H 8.388469 5.255685 -14.658677 0
M  V30 37 H 9.042472 4.982228 -16.947464 0
M  V30 38 H 10.926870 5.265432 -18.516956 0
M  V30 39 H 13.271978 5.137396 -17.692570 0
M  V30 40 H 13.712444 4.711314 -15.284635 0
M  V30 41 H 11.867606 4.402550 -13.710516 0
M  V30 42 H 9.860834 5.939136 -12.806124 0
M  V30 43 H 10.178500 4.267242 -12.373176 0
M  V30 44 H 8.115997 3.951898 -11.603091 0
M  V30 END ATOM
M  V30 BEGIN BOND
M  V30 1 2 2 1
M  V30 2 1 3 2
M  V30 3 1 4 3
M  V30 4 1 5 4
M  V30 5 1 6 5
M  V30 6 1 7 6
M  V30 7 2 8 7
M  V30 8 1 9 8
M  V30 9 2 10 9
M  V30 10 1 11 10
M  V30 11 1 12 10
M  V30 12 1 13 12
M  V30 13 1 14 7
M  V30 14 2 14 12
M  V30 15 1 15 14
M  V30 16 1 16 8
M  V30 17 1 17 16
M  V30 18 2 18 17
M  V30 19 1 19 18
M  V30 20 2 20 19
M  V30 21 1 21 20
M  V30 22 1 22 17
M  V30 23 2 22 21
M  V30 24 1 23 4
M  V30 25 1 23 16
M  V30 26 1 24 1
M  V30 27 1 25 1
M  V30 28 1 26 2
M  V30 29 1 27 3
M  V30 30 1 28 3
M  V30 31 1 29 5
M  V30 32 1 30 5
M  V30 33 1 31 6
M  V30 34 1 32 6
M  V30 35 1 33 9
M  V30 36 1 34 11
M  V30 37 1 35 13
M  V30 38 1 16 36 CFG=3
M  V30 39 1 37 18
M  V30 40 1 38 19
M  V30 41 1 39 20
M  V30 42 1 40 21
M  V30 43 1 41 22
M  V30 44 1 42 23
M  V30 45 1 43 23
M  V30 46 1 4 44 CFG=1
M  V30 END BOND
M  V30 END CTAB
M  END
>  <b_m_subgroup_collapsed>  (1523) 
0

>  <r_i_docking_score>  (1523) 
-7.03521430259286

>  <s_m_subgroup_title>  (1523) 
glide-dock_SP_D22_pv

>  <s_m_subgroupid>  (1523) 
glide-dock_SP_D22_pv

>  <Molecule ChEMBL ID>  (1523) 
CHEMBL544115

>  <Standard Type>  (1523) 
Ki

>  <Standard Value>  (1523) 
55.0

>  <label>  (1523) 
1

$$$$
CHEMBL383102
     RDKit          3D

  0  0  0  0  0  0  0  0  0  0999 V3000
M  V30 BEGIN CTAB
M  V30 COUNTS 43 47 0 0 1
M  V30 BEGIN ATOM
M  V30 1 C 8.133505 3.317640 -14.059581 0
M  V30 2 C 7.103605 3.796863 -13.226964 0
M  V30 3 C 7.382231 4.783148 -12.261103 0
M  V30 4 C 8.687256 5.307485 -12.135743 0
M  V30 5 C 8.945960 6.438141 -11.154162 0 CFG=2
M  V30 6 C 9.260364 7.764699 -11.845809 0
M  V30 7 C 9.916999 8.549529 -10.732577 0
M  V30 8 C 10.745461 7.509081 -10.006447 0 CFG=1
M  V30 9 C 10.936749 7.907916 -8.594007 0
M  V30 10 N 11.702036 8.964466 -8.135803 0
M  V30 11 C 11.719449 8.955291 -6.753200 0
M  V30 12 C 12.355562 9.766075 -5.799070 0
M  V30 13 C 12.351200 9.372304 -4.447168 0
M  V30 14 C 11.685967 8.194263 -4.065071 0
M  V30 15 C 10.964705 7.445208 -5.019182 0
M  V30 16 C 10.947113 7.819058 -6.373951 0
M  V30 17 C 10.308823 7.324377 -7.549437 0
M  V30 18 C 9.256910 6.309725 -7.782237 0
M  V30 19 C 9.657704 5.417955 -8.973939 0
M  V30 20 N 10.045626 6.194861 -10.199650 0 CFG=1 CHG=1
M  V30 21 C 9.716713 4.822212 -12.972714 0
M  V30 22 C 9.440503 3.824797 -13.927489 0
M  V30 23 H 7.921638 2.556968 -14.796697 0
M  V30 24 H 6.100900 3.406828 -13.325364 0
M  V30 25 H 6.582994 5.152969 -11.632337 0
M  V30 26 H 8.084983 6.572234 -10.521333 0
M  V30 27 H 9.984198 7.622896 -12.646804 0
M  V30 28 H 8.374708 8.250828 -12.257581 0
M  V30 29 H 10.560699 9.359503 -11.046800 0
M  V30 30 H 9.139315 8.957411 -10.082320 0
M  V30 31 H 11.718974 7.421403 -10.491484 0
M  V30 32 H 12.228550 9.580206 -8.741975 0
M  V30 33 H 12.885868 10.649389 -6.112824 0
M  V30 34 H 12.873105 9.955042 -3.702101 0
M  V30 35 H 11.691239 7.885634 -3.029199 0
M  V30 36 H 10.419344 6.565905 -4.708094 0
M  V30 37 H 9.068962 5.765117 -6.865002 0
M  V30 38 H 8.318582 6.812105 -8.015511 0
M  V30 39 H 10.514138 4.817442 -8.674330 0
M  V30 40 H 8.865119 4.704510 -9.205886 0
M  V30 41 H 10.718005 5.221544 -12.903845 0
M  V30 42 H 10.228804 3.455612 -14.567520 0
M  V30 43 H 10.688276 5.602842 -10.701437 0
M  V30 END ATOM
M  V30 BEGIN BOND
M  V30 1 2 2 1
M  V30 2 1 3 2
M  V30 3 2 4 3
M  V30 4 1 5 4
M  V30 5 1 6 5
M  V30 6 1 7 6
M  V30 7 1 8 7
M  V30 8 1 9 8
M  V30 9 1 10 9
M  V30 10 1 11 10
M  V30 11 2 12 11
M  V30 12 1 13 12
M  V30 13 2 14 13
M  V30 14 1 15 14
M  V30 15 1 16 11
M  V30 16 2 16 15
M  V30 17 2 17 9
M  V30 18 1 17 16
M  V30 19 1 18 17
M  V30 20 1 19 18
M  V30 21 1 20 5
M  V30 22 1 20 8
M  V30 23 1 20 19
M  V30 24 1 21 4
M  V30 25 1 22 1
M  V30 26 2 22 21
M  V30 27 1 23 1
M  V30 28 1 24 2
M  V30 29 1 25 3
M  V30 30 1 5 26 CFG=1
M  V30 31 1 27 6
M  V30 32 1 28 6
M  V30 33 1 29 7
M  V30 34 1 30 7
M  V30 35 1 8 31 CFG=3
M  V30 36 1 32 10
M  V30 37 1 33 12
M  V30 38 1 34 13
M  V30 39 1 35 14
M  V30 40 1 36 15
M  V30 41 1 37 18
M  V30 42 1 38 18
M  V30 43 1 39 19
M  V30 44 1 40 19
M  V30 45 1 41 21
M  V30 46 1 42 22
M  V30 47 1 20 43 CFG=3
M  V30 END BOND
M  V30 END CTAB
M  END
>  <b_m_subgroup_collapsed>  (1524) 
0

>  <r_i_docking_score>  (1524) 
-7.0350390076232303

>  <s_m_subgroup_title>  (1524) 
glide-dock_SP_D22_pv

>  <s_m_subgroupid>  (1524) 
glide-dock_SP_D22_pv

>  <Molecule ChEMBL ID>  (1524) 
CHEMBL383102

>  <Standard Type>  (1524) 
Ki

>  <Standard Value>  (1524) 
10000.0

>  <label>  (1524) 
0

$$$$
CHEMBL5976926
     RDKit          3D

  0  0  0  0  0  0  0  0  0  0999 V3000
M  V30 BEGIN CTAB
M  V30 COUNTS 41 43 0 0 1
M  V30 BEGIN ATOM
M  V30 1 C 9.217692 4.545728 -12.644466 0
M  V30 2 C 8.803188 5.575476 -11.579103 0 CFG=1
M  V30 3 O 7.445561 5.871624 -11.847054 0
M  V30 4 C 8.926920 4.979824 -10.163148 0
M  V30 5 C 8.717408 6.025648 -9.058220 0
M  V30 6 N 9.646481 7.181714 -9.217219 0 CFG=2 CHG=1
M  V30 7 C 9.598529 8.149799 -8.083437 0
M  V30 8 C 10.713417 7.905945 -7.043245 0 CFG=2
M  V30 9 C 10.536834 6.563791 -6.328012 0
M  V30 10 O 11.528749 6.357260 -5.347401 0
M  V30 11 C 11.686436 7.412180 -4.499781 0
M  V30 12 C 12.273758 7.181304 -3.241946 0
M  V30 13 C 12.457175 8.246897 -2.345489 0
M  V30 14 C 12.056734 9.538729 -2.721380 0
M  V30 15 C 11.466869 9.772385 -3.976456 0
M  V30 16 C 11.285763 8.715246 -4.881862 0
M  V30 17 O 10.669024 8.964638 -6.089031 0
M  V30 18 C 9.467460 7.840248 -10.536805 0
M  V30 19 C 9.667074 6.850002 -11.698842 0
M  V30 20 H 10.249361 4.220482 -12.509111 0
M  V30 21 H 8.586301 3.658681 -12.604451 0
M  V30 22 H 9.129678 4.959522 -13.648689 0
M  V30 23 H 7.108942 6.507446 -11.215738 0
M  V30 24 H 8.204425 4.173201 -10.035276 0
M  V30 25 H 9.913566 4.531320 -10.039643 0
M  V30 26 H 7.686558 6.355659 -9.052449 0
M  V30 27 H 8.843244 5.534818 -8.096037 0
M  V30 28 H 9.721873 9.166684 -8.461282 0
M  V30 29 H 8.613816 8.135044 -7.612356 0
M  V30 30 H 11.687576 7.936831 -7.534182 0
M  V30 31 H 9.545449 6.475590 -5.879683 0
M  V30 32 H 10.661746 5.757171 -7.046178 0
M  V30 33 H 12.568095 6.180298 -2.959781 0
M  V30 34 H 12.886698 8.074583 -1.371656 0
M  V30 35 H 12.168115 10.355992 -2.029448 0
M  V30 36 H 11.140553 10.766629 -4.243640 0
M  V30 37 H 8.486753 8.307786 -10.597513 0
M  V30 38 H 10.192967 8.647847 -10.642443 0
M  V30 39 H 10.721327 6.570186 -11.729961 0
M  V30 40 H 9.466035 7.349586 -12.645603 0
M  V30 41 H 10.581576 6.802496 -9.232526 0
M  V30 END ATOM
M  V30 BEGIN BOND
M  V30 1 1 2 1
M  V30 2 1 2 3 CFG=3
M  V30 3 1 4 2
M  V30 4 1 5 4
M  V30 5 1 6 5
M  V30 6 1 7 6
M  V30 7 1 8 7
M  V30 8 1 9 8
M  V30 9 1 10 9
M  V30 10 1 11 10
M  V30 11 2 12 11
M  V30 12 1 13 12
M  V30 13 2 14 13
M  V30 14 1 15 14
M  V30 15 1 16 11
M  V30 16 2 16 15
M  V30 17 1 17 8
M  V30 18 1 17 16
M  V30 19 1 18 6
M  V30 20 1 19 2
M  V30 21 1 19 18
M  V30 22 1 20 1
M  V30 23 1 21 1
M  V30 24 1 22 1
M  V30 25 1 23 3
M  V30 26 1 24 4
M  V30 27 1 25 4
M  V30 28 1 26 5
M  V30 29 1 27 5
M  V30 30 1 28 7
M  V30 31 1 29 7
M  V30 32 1 8 30 CFG=3
M  V30 33 1 31 9
M  V30 34 1 32 9
M  V30 35 1 33 12
M  V30 36 1 34 13
M  V30 37 1 35 14
M  V30 38 1 36 15
M  V30 39 1 37 18
M  V30 40 1 38 18
M  V30 41 1 39 19
M  V30 42 1 40 19
M  V30 43 1 6 41 CFG=3
M  V30 END BOND
M  V30 END CTAB
M  END
>  <b_m_subgroup_collapsed>  (1525) 
0

>  <r_i_docking_score>  (1525) 
-7.0336326029833298

>  <s_m_subgroup_title>  (1525) 
glide-dock_SP_D22_pv

>  <s_m_subgroupid>  (1525) 
glide-dock_SP_D22_pv

>  <Molecule ChEMBL ID>  (1525) 
CHEMBL5976926

>  <Standard Type>  (1525) 
Ki

>  <Standard Value>  (1525) 
20000.0

>  <label>  (1525) 
0

$$$$
CHEMBL5175009
     RDKit          3D

  0  0  0  0  0  0  0  0  0  0999 V3000
M  V30 BEGIN CTAB
M  V30 COUNTS 55 58 0 0 1
M  V30 BEGIN ATOM
M  V30 1 O 10.296159 3.824859 -14.026547 0
M  V30 2 C 10.632754 4.324862 -15.102262 0
M  V30 3 C 10.061568 3.729237 -16.392015 0
M  V30 4 C 9.761638 4.804830 -17.436266 0
M  V30 5 C 10.912128 5.773734 -17.580885 0
M  V30 6 C 11.114841 6.435685 -18.808561 0
M  V30 7 C 12.154808 7.371503 -18.942020 0
M  V30 8 C 12.984373 7.654593 -17.843443 0
M  V30 9 C 12.781226 6.994487 -16.616720 0
M  V30 10 C 11.746402 6.034790 -16.462540 0
M  V30 11 N 11.517475 5.351171 -15.209251 0
M  V30 12 C 12.337440 5.681037 -14.031533 0
M  V30 13 C 11.918211 6.969994 -13.297044 0
M  V30 14 C 10.754242 6.746940 -12.300420 0
M  V30 15 N 10.572070 7.764538 -11.249977 0
M  V30 16 C 11.802668 8.091887 -10.515490 0
M  V30 17 C 11.550779 9.162200 -9.435386 0
M  V30 18 N 10.507561 8.734194 -8.518001 0
M  V30 19 C 10.857129 8.466939 -7.181360 0
M  V30 20 C 10.606939 7.217561 -6.573711 0
M  V30 21 C 11.031693 6.972546 -5.249164 0
M  V30 22 C 11.685835 7.976545 -4.496111 0
M  V30 23 N 12.114997 7.723438 -3.105044 0 CHG=1
M  V30 24 O 12.086138 6.571767 -2.685756 0
M  V30 25 O 12.485449 8.677986 -2.429612 0 CHG=-1
M  V30 26 C 11.902517 9.234913 -5.097665 0
M  V30 27 C 11.500910 9.471062 -6.426203 0
M  V30 28 C 9.286769 8.240623 -9.146874 0
M  V30 29 C 9.603805 7.230603 -10.275010 0
M  V30 30 H 10.803589 3.035261 -16.787119 0
M  V30 31 H 9.167685 3.143476 -16.176758 0
M  V30 32 H 8.885314 5.373288 -17.140230 0
M  V30 33 H 9.535162 4.340648 -18.395838 0
M  V30 34 H 10.466755 6.235196 -19.649963 0
M  V30 35 H 12.305727 7.885289 -19.878935 0
M  V30 36 H 13.771437 8.389122 -17.940226 0
M  V30 37 H 13.437278 7.267161 -15.806033 0
M  V30 38 H 12.393331 4.855623 -13.319468 0
M  V30 39 H 13.367190 5.761192 -14.361536 0
M  V30 40 H 12.820172 7.284635 -12.777525 0
M  V30 41 H 11.687276 7.771236 -13.998497 0
M  V30 42 H 9.821568 6.656006 -12.856501 0
M  V30 43 H 10.885438 5.772288 -11.846334 0
M  V30 44 H 12.225423 7.191534 -10.069758 0
M  V30 45 H 12.553305 8.508669 -11.182710 0
M  V30 46 H 12.485160 9.336348 -8.901722 0
M  V30 47 H 11.269320 10.115067 -9.880474 0
M  V30 48 H 10.112052 6.432026 -7.126050 0
M  V30 49 H 10.843671 6.003249 -4.811887 0
M  V30 50 H 12.391952 10.024305 -4.549180 0
M  V30 51 H 11.683554 10.439683 -6.867485 0
M  V30 52 H 8.623806 7.787398 -8.408051 0
M  V30 53 H 8.744209 9.091659 -9.561770 0
M  V30 54 H 8.675109 6.970737 -10.785658 0
M  V30 55 H 9.988978 6.308535 -9.835688 0
M  V30 END ATOM
M  V30 BEGIN BOND
M  V30 1 2 2 1
M  V30 2 1 3 2
M  V30 3 1 4 3
M  V30 4 1 5 4
M  V30 5 2 6 5
M  V30 6 1 7 6
M  V30 7 2 8 7
M  V30 8 1 9 8
M  V30 9 1 10 5
M  V30 10 2 10 9
M  V30 11 1 11 2
M  V30 12 1 11 10
M  V30 13 1 12 11
M  V30 14 1 13 12
M  V30 15 1 14 13
M  V30 16 1 15 14
M  V30 17 1 16 15
M  V30 18 1 17 16
M  V30 19 1 18 17
M  V30 20 1 19 18
M  V30 21 1 20 19
M  V30 22 2 21 20
M  V30 23 1 22 21
M  V30 24 1 23 22
M  V30 25 2 24 23
M  V30 26 1 25 23
M  V30 27 2 26 22
M  V30 28 2 27 19
M  V30 29 1 27 26
M  V30 30 1 28 18
M  V30 31 1 29 15
M  V30 32 1 29 28
M  V30 33 1 30 3
M  V30 34 1 31 3
M  V30 35 1 32 4
M  V30 36 1 33 4
M  V30 37 1 34 6
M  V30 38 1 35 7
M  V30 39 1 36 8
M  V30 40 1 37 9
M  V30 41 1 38 12
M  V30 42 1 39 12
M  V30 43 1 40 13
M  V30 44 1 41 13
M  V30 45 1 42 14
M  V30 46 1 43 14
M  V30 47 1 44 16
M  V30 48 1 45 16
M  V30 49 1 46 17
M  V30 50 1 47 17
M  V30 51 1 48 20
M  V30 52 1 49 21
M  V30 53 1 50 26
M  V30 54 1 51 27
M  V30 55 1 52 28
M  V30 56 1 53 28
M  V30 57 1 54 29
M  V30 58 1 55 29
M  V30 END BOND
M  V30 END CTAB
M  END
>  <b_m_subgroup_collapsed>  (1526) 
0

>  <r_i_docking_score>  (1526) 
-7.0311043404520701

>  <s_m_subgroup_title>  (1526) 
glide-dock_SP_D22_pv

>  <s_m_subgroupid>  (1526) 
glide-dock_SP_D22_pv

>  <Molecule ChEMBL ID>  (1526) 
CHEMBL5175009

>  <Standard Type>  (1526) 
Ki

>  <Standard Value>  (1526) 
23988.33

>  <label>  (1526) 
0

$$$$
CHEMBL3978288
     RDKit          3D

  0  0  0  0  0  0  0  0  0  0999 V3000
M  V30 BEGIN CTAB
M  V30 COUNTS 70 73 0 0 1
M  V30 BEGIN ATOM
M  V30 1 C 9.237357 0.788341 -19.817278 0
M  V30 2 C 10.442258 0.608060 -18.873524 0
M  V30 3 C 10.785691 -0.843816 -18.498695 0
M  V30 4 O 10.445085 1.501518 -17.759706 0
M  V30 5 C 9.473585 1.501223 -16.775375 0
M  V30 6 C 8.425473 0.549426 -16.675859 0
M  V30 7 C 7.495080 0.603472 -15.623113 0
M  V30 8 C 7.595269 1.608464 -14.647120 0
M  V30 9 C 8.632049 2.554373 -14.724983 0
M  V30 10 C 9.563809 2.513329 -15.783388 0
M  V30 11 N 10.581255 3.482157 -15.806583 0
M  V30 12 C 10.702669 4.352849 -16.970104 0
M  V30 13 C 11.581993 5.585405 -16.700197 0
M  V30 14 C 11.286210 6.268905 -15.355511 0
M  V30 15 N 12.092541 5.718098 -14.240386 0 CFG=1 CHG=1
M  V30 16 C 12.281094 6.666963 -13.106604 0
M  V30 17 C 10.993180 7.151659 -12.414627 0
M  V30 18 C 11.271589 7.866083 -11.089498 0
M  V30 19 C 10.001291 8.538126 -10.519335 0
M  V30 20 O 10.296061 9.283052 -9.338407 0
M  V30 21 C 10.520472 8.582478 -8.172759 0
M  V30 22 C 10.405519 7.180490 -8.077509 0
M  V30 23 C 10.721305 6.570859 -6.867752 0
M  V30 24 C 11.108478 7.355078 -5.776344 0
M  V30 25 C 11.162444 8.758492 -5.932347 0
M  V30 26 N 10.885043 9.350517 -7.116853 0
M  V30 27 N 11.485334 9.541096 -4.799218 0
M  V30 28 C 11.940328 9.058774 -3.631021 0
M  V30 29 O 12.086063 9.772229 -2.647059 0
M  V30 30 C 12.291990 7.572812 -3.541364 0
M  V30 31 C 11.421286 6.695884 -4.449301 0
M  V30 32 C 11.698588 4.361280 -13.781147 0
M  V30 33 C 11.687551 3.288418 -14.883347 0
M  V30 34 H 9.385829 0.227305 -20.739893 0
M  V30 35 H 8.291462 0.455844 -19.394440 0
M  V30 36 H 9.122761 1.837722 -20.090866 0
M  V30 37 H 11.300276 0.951212 -19.453377 0
M  V30 38 H 10.939196 -1.427321 -19.404976 0
M  V30 39 H 11.710155 -0.882836 -17.920870 0
M  V30 40 H 10.016540 -1.347214 -17.916666 0
M  V30 41 H 8.304195 -0.249152 -17.386078 0
M  V30 42 H 6.709124 -0.134844 -15.560807 0
M  V30 43 H 6.880849 1.650583 -13.839489 0
M  V30 44 H 8.703147 3.320579 -13.967587 0
M  V30 45 H 11.106366 3.803708 -17.820152 0
M  V30 46 H 9.701275 4.677468 -17.256987 0
M  V30 47 H 12.639167 5.324953 -16.765343 0
M  V30 48 H 11.407289 6.297634 -17.507236 0
M  V30 49 H 10.228867 6.172316 -15.117694 0
M  V30 50 H 11.515125 7.330719 -15.456767 0
M  V30 51 H 12.866121 7.523200 -13.446007 0
M  V30 52 H 12.885986 6.173004 -12.356130 0
M  V30 53 H 10.298392 6.332261 -12.235165 0
M  V30 54 H 10.486090 7.865716 -13.046852 0
M  V30 55 H 12.047500 8.615727 -11.230298 0
M  V30 56 H 11.694992 7.152272 -10.385001 0
M  V30 57 H 9.196461 7.819942 -10.353293 0
M  V30 58 H 9.589743 9.224086 -11.257112 0
M  V30 59 H 10.096032 6.547825 -8.894217 0
M  V30 60 H 10.663501 5.502061 -6.799717 0
M  V30 61 H 11.335608 10.534515 -4.876173 0
M  V30 62 H 12.240176 7.227201 -2.507791 0
M  V30 63 H 13.331837 7.478142 -3.845500 0
M  V30 64 H 10.490257 6.407408 -3.963614 0
M  V30 65 H 11.959256 5.772241 -4.646137 0
M  V30 66 H 12.444226 4.068733 -13.047067 0
M  V30 67 H 10.736854 4.381882 -13.268781 0
M  V30 68 H 12.627275 3.292002 -15.435946 0
M  V30 69 H 11.609792 2.301428 -14.422674 0
M  V30 70 H 13.022784 5.605191 -14.618898 0
M  V30 END ATOM
M  V30 BEGIN BOND
M  V30 1 1 2 1
M  V30 2 1 3 2
M  V30 3 1 4 2
M  V30 4 1 5 4
M  V30 5 2 6 5
M  V30 6 1 7 6
M  V30 7 2 8 7
M  V30 8 1 9 8
M  V30 9 1 10 5
M  V30 10 2 10 9
M  V30 11 1 11 10
M  V30 12 1 12 11
M  V30 13 1 13 12
M  V30 14 1 14 13
M  V30 15 1 15 14
M  V30 16 1 16 15
M  V30 17 1 17 16
M  V30 18 1 18 17
M  V30 19 1 19 18
M  V30 20 1 20 19
M  V30 21 1 21 20
M  V30 22 1 22 21
M  V30 23 2 23 22
M  V30 24 1 24 23
M  V30 25 2 25 24
M  V30 26 2 26 21
M  V30 27 1 26 25
M  V30 28 1 27 25
M  V30 29 1 28 27
M  V30 30 2 29 28
M  V30 31 1 30 28
M  V30 32 1 31 24
M  V30 33 1 31 30
M  V30 34 1 32 15
M  V30 35 1 33 11
M  V30 36 1 33 32
M  V30 37 1 34 1
M  V30 38 1 35 1
M  V30 39 1 36 1
M  V30 40 1 37 2
M  V30 41 1 38 3
M  V30 42 1 39 3
M  V30 43 1 40 3
M  V30 44 1 41 6
M  V30 45 1 42 7
M  V30 46 1 43 8
M  V30 47 1 44 9
M  V30 48 1 45 12
M  V30 49 1 46 12
M  V30 50 1 47 13
M  V30 51 1 48 13
M  V30 52 1 49 14
M  V30 53 1 50 14
M  V30 54 1 51 16
M  V30 55 1 52 16
M  V30 56 1 53 17
M  V30 57 1 54 17
M  V30 58 1 55 18
M  V30 59 1 56 18
M  V30 60 1 57 19
M  V30 61 1 58 19
M  V30 62 1 59 22
M  V30 63 1 60 23
M  V30 64 1 61 27
M  V30 65 1 62 30
M  V30 66 1 63 30
M  V30 67 1 64 31
M  V30 68 1 65 31
M  V30 69 1 66 32
M  V30 70 1 67 32
M  V30 71 1 68 33
M  V30 72 1 69 33
M  V30 73 1 15 70 CFG=3
M  V30 END BOND
M  V30 END CTAB
M  END
>  <b_m_subgroup_collapsed>  (1527) 
0

>  <r_i_docking_score>  (1527) 
-7.0310773871784402

>  <s_m_subgroup_title>  (1527) 
glide-dock_SP_D22_pv

>  <s_m_subgroupid>  (1527) 
glide-dock_SP_D22_pv

>  <Molecule ChEMBL ID>  (1527) 
CHEMBL3978288

>  <Standard Type>  (1527) 
Ki

>  <Standard Value>  (1527) 
1.29

>  <label>  (1527) 
1

$$$$
CHEMBL305392
     RDKit          3D

  0  0  0  0  0  0  0  0  0  0999 V3000
M  V30 BEGIN CTAB
M  V30 COUNTS 43 46 0 0 1
M  V30 BEGIN ATOM
M  V30 1 N 8.153399 2.592128 -14.533904 0
M  V30 2 C 8.723021 3.435610 -13.982356 0
M  V30 3 C 9.437890 4.496802 -13.293357 0
M  V30 4 C 10.571902 5.081500 -13.896707 0
M  V30 5 C 11.263245 6.121849 -13.247111 0
M  V30 6 C 10.816615 6.572593 -11.988938 0
M  V30 7 C 9.685838 5.988395 -11.373426 0
M  V30 8 C 8.994954 4.949415 -12.031121 0
M  V30 9 C 9.211328 6.526205 -10.024563 0 CFG=1
M  V30 10 C 9.938322 5.953515 -8.791954 0
M  V30 11 N 10.226277 7.090718 -7.875081 0 CFG=2 CHG=1
M  V30 12 C 10.007648 6.809152 -6.440769 0
M  V30 13 C 10.865982 7.633535 -5.490171 0
M  V30 14 C 10.759969 9.040596 -5.447010 0
M  V30 15 C 11.427093 9.772248 -4.451726 0
M  V30 16 C 12.234771 9.114182 -3.506793 0
M  V30 17 C 12.367894 7.714888 -3.557307 0
M  V30 18 C 11.685612 6.977573 -4.544937 0
M  V30 19 C 9.487540 8.259734 -8.380112 0
M  V30 20 C 9.375154 8.040983 -9.873370 0 CFG=1
M  V30 21 C 10.557374 8.629507 -10.650266 0
M  V30 22 C 11.563334 7.643524 -11.231376 0
M  V30 23 H 10.916274 4.736846 -14.861425 0
M  V30 24 H 12.136882 6.558447 -13.709675 0
M  V30 25 H 8.121947 4.507381 -11.570777 0
M  V30 26 H 8.154484 6.286645 -9.917256 0
M  V30 27 H 9.324537 5.184540 -8.321375 0
M  V30 28 H 10.885459 5.492307 -9.056713 0
M  V30 29 H 8.952093 6.902163 -6.181185 0
M  V30 30 H 10.271281 5.772367 -6.272840 0
M  V30 31 H 10.091516 9.575274 -6.099471 0
M  V30 32 H 11.286023 10.841573 -4.399244 0
M  V30 33 H 12.740438 9.680899 -2.737447 0
M  V30 34 H 12.975991 7.201750 -2.827806 0
M  V30 35 H 11.767187 5.899816 -4.543308 0
M  V30 36 H 8.486188 8.287136 -7.946931 0
M  V30 37 H 9.975973 9.204855 -8.152282 0
M  V30 38 H 8.486027 8.555640 -10.234337 0
M  V30 39 H 10.086187 9.086982 -11.517788 0
M  V30 40 H 11.064771 9.428408 -10.109776 0
M  V30 41 H 12.146902 7.181575 -10.435804 0
M  V30 42 H 12.273168 8.155463 -11.882623 0
M  V30 43 H 11.207143 7.298058 -7.993312 0
M  V30 END ATOM
M  V30 BEGIN BOND
M  V30 1 3 2 1
M  V30 2 1 3 2
M  V30 3 1 4 3
M  V30 4 2 5 4
M  V30 5 1 6 5
M  V30 6 2 7 6
M  V30 7 2 8 3
M  V30 8 1 8 7
M  V30 9 1 9 7
M  V30 10 1 10 9
M  V30 11 1 11 10
M  V30 12 1 12 11
M  V30 13 1 13 12
M  V30 14 2 14 13
M  V30 15 1 15 14
M  V30 16 2 16 15
M  V30 17 1 17 16
M  V30 18 1 18 13
M  V30 19 2 18 17
M  V30 20 1 19 11
M  V30 21 1 20 9
M  V30 22 1 20 19
M  V30 23 1 21 20
M  V30 24 1 22 6
M  V30 25 1 22 21
M  V30 26 1 23 4
M  V30 27 1 24 5
M  V30 28 1 25 8
M  V30 29 1 9 26 CFG=1
M  V30 30 1 27 10
M  V30 31 1 28 10
M  V30 32 1 29 12
M  V30 33 1 30 12
M  V30 34 1 31 14
M  V30 35 1 32 15
M  V30 36 1 33 16
M  V30 37 1 34 17
M  V30 38 1 35 18
M  V30 39 1 36 19
M  V30 40 1 37 19
M  V30 41 1 20 38 CFG=3
M  V30 42 1 39 21
M  V30 43 1 40 21
M  V30 44 1 41 22
M  V30 45 1 42 22
M  V30 46 1 11 43 CFG=1
M  V30 END BOND
M  V30 END CTAB
M  END
>  <b_m_subgroup_collapsed>  (1528) 
0

>  <r_i_docking_score>  (1528) 
-7.03017135098961

>  <s_m_subgroup_title>  (1528) 
glide-dock_SP_D22_pv

>  <s_m_subgroupid>  (1528) 
glide-dock_SP_D22_pv

>  <Molecule ChEMBL ID>  (1528) 
CHEMBL305392

>  <Standard Type>  (1528) 
Ki

>  <Standard Value>  (1528) 
10.0

>  <label>  (1528) 
1

$$$$
CHEMBL3764597
     RDKit          3D

  0  0  0  0  0  0  0  0  0  0999 V3000
M  V30 BEGIN CTAB
M  V30 COUNTS 61 64 0 0 1
M  V30 BEGIN ATOM
M  V30 1 C 9.274020 8.593759 -10.656936 0
M  V30 2 N 9.286066 7.174748 -10.335041 0
M  V30 3 C 8.810334 6.147683 -11.064208 0
M  V30 4 S 8.083938 6.409066 -12.647010 0
M  V30 5 C 7.603786 4.730677 -13.143017 0
M  V30 6 C 6.321487 4.235260 -12.453210 0
M  V30 7 C 5.487618 3.228494 -13.275017 0
M  V30 8 N 6.086070 1.904030 -13.446808 0
M  V30 9 C 5.108696 0.824894 -13.546993 0
M  V30 10 C 5.785233 -0.549760 -13.684098 0
M  V30 11 O 6.670942 -0.538156 -14.791792 0
M  V30 12 C 7.684909 0.454858 -14.680810 0 CFG=1
M  V30 13 C 8.667082 0.405480 -15.838219 0
M  V30 14 C 10.040524 0.604795 -15.586958 0
M  V30 15 C 10.965810 0.565470 -16.645882 0
M  V30 16 C 10.537995 0.302662 -17.962872 0
M  V30 17 C 11.564672 0.213006 -19.081032 0
M  V30 18 F 12.536403 -0.627713 -18.725304 0
M  V30 19 F 11.022788 -0.226683 -20.217579 0
M  V30 20 F 12.094824 1.416480 -19.296553 0
M  V30 21 C 9.160793 0.130756 -18.217691 0
M  V30 22 C 8.227512 0.195231 -17.165304 0
M  V30 23 F 6.908899 0.061649 -17.445770 0
M  V30 24 C 7.010694 1.831263 -14.577553 0
M  V30 25 N 8.961189 4.962459 -10.477565 0
M  V30 26 N 9.551225 5.225598 -9.266564 0
M  V30 27 C 9.724874 6.551706 -9.220404 0
M  V30 28 C 10.313226 7.208503 -8.057937 0
M  V30 29 C 11.198607 8.299164 -8.191352 0
M  V30 30 C 11.705712 8.941706 -7.048664 0
M  V30 31 C 11.374883 8.479623 -5.757498 0
M  V30 32 C 11.903993 9.164147 -4.533738 0
M  V30 33 N 13.104941 9.723928 -4.646876 0
M  V30 34 O 11.287576 9.166866 -3.472878 0
M  V30 35 C 10.530957 7.359746 -5.630220 0
M  V30 36 C 9.986569 6.744246 -6.769442 0
M  V30 37 H 10.229592 8.880025 -11.095714 0
M  V30 38 H 8.476922 8.825094 -11.362795 0
M  V30 39 H 9.092592 9.181161 -9.756638 0
M  V30 40 H 7.441543 4.777928 -14.219342 0
M  V30 41 H 8.433422 4.043486 -12.976326 0
M  V30 42 H 6.556386 3.819288 -11.472455 0
M  V30 43 H 5.684849 5.098036 -12.256384 0
M  V30 44 H 4.532564 3.120814 -12.759815 0
M  V30 45 H 5.257267 3.664074 -14.246785 0
M  V30 46 H 4.486255 0.820323 -12.655348 0
M  V30 47 H 4.441954 0.972252 -14.393858 0
M  V30 48 H 6.338296 -0.802751 -12.777735 0
M  V30 49 H 5.040193 -1.328170 -13.847157 0
M  V30 50 H 8.244606 0.259416 -13.763577 0
M  V30 51 H 10.388154 0.788676 -14.579774 0
M  V30 52 H 12.016463 0.718512 -16.445274 0
M  V30 53 H 8.807378 -0.047769 -19.222059 0
M  V30 54 H 6.486138 2.049571 -15.507923 0
M  V30 55 H 7.795922 2.575553 -14.484407 0
M  V30 56 H 11.493487 8.655958 -9.166184 0
M  V30 57 H 12.376309 9.773230 -7.174138 0
M  V30 58 H 13.611382 9.723914 -5.524168 0
M  V30 59 H 13.502790 10.157763 -3.827353 0
M  V30 60 H 10.292043 6.962194 -4.655860 0
M  V30 61 H 9.316015 5.906584 -6.650255 0
M  V30 END ATOM
M  V30 BEGIN BOND
M  V30 1 1 2 1
M  V30 2 1 3 2
M  V30 3 1 4 3
M  V30 4 1 5 4
M  V30 5 1 6 5
M  V30 6 1 7 6
M  V30 7 1 8 7
M  V30 8 1 9 8
M  V30 9 1 10 9
M  V30 10 1 11 10
M  V30 11 1 12 11
M  V30 12 1 13 12
M  V30 13 1 14 13
M  V30 14 2 15 14
M  V30 15 1 16 15
M  V30 16 1 17 16
M  V30 17 1 18 17
M  V30 18 1 19 17
M  V30 19 1 20 17
M  V30 20 2 21 16
M  V30 21 2 22 13
M  V30 22 1 22 21
M  V30 23 1 23 22
M  V30 24 1 24 8
M  V30 25 1 24 12
M  V30 26 2 25 3
M  V30 27 1 26 25
M  V30 28 1 27 2
M  V30 29 2 27 26
M  V30 30 1 28 27
M  V30 31 1 29 28
M  V30 32 2 30 29
M  V30 33 1 31 30
M  V30 34 1 32 31
M  V30 35 1 33 32
M  V30 36 2 34 32
M  V30 37 2 35 31
M  V30 38 2 36 28
M  V30 39 1 36 35
M  V30 40 1 37 1
M  V30 41 1 38 1
M  V30 42 1 39 1
M  V30 43 1 40 5
M  V30 44 1 41 5
M  V30 45 1 42 6
M  V30 46 1 43 6
M  V30 47 1 44 7
M  V30 48 1 45 7
M  V30 49 1 46 9
M  V30 50 1 47 9
M  V30 51 1 48 10
M  V30 52 1 49 10
M  V30 53 1 12 50 CFG=1
M  V30 54 1 51 14
M  V30 55 1 52 15
M  V30 56 1 53 21
M  V30 57 1 54 24
M  V30 58 1 55 24
M  V30 59 1 56 29
M  V30 60 1 57 30
M  V30 61 1 58 33
M  V30 62 1 59 33
M  V30 63 1 60 35
M  V30 64 1 61 36
M  V30 END BOND
M  V30 END CTAB
M  END
>  <b_m_subgroup_collapsed>  (1529) 
0

>  <r_i_docking_score>  (1529) 
-7.0300746989649801

>  <s_m_subgroup_title>  (1529) 
glide-dock_SP_D22_pv

>  <s_m_subgroupid>  (1529) 
glide-dock_SP_D22_pv

>  <Molecule ChEMBL ID>  (1529) 
CHEMBL3764597

>  <Standard Type>  (1529) 
Ki

>  <Standard Value>  (1529) 
14454.0

>  <label>  (1529) 
0

$$$$
CHEMBL5421925
     RDKit          3D

  0  0  0  0  0  0  0  0  0  0999 V3000
M  V30 BEGIN CTAB
M  V30 COUNTS 75 79 0 0 1
M  V30 BEGIN ATOM
M  V30 1 C 12.680681 6.715131 -2.647886 0
M  V30 2 C 11.686340 6.524561 -3.797025 0
M  V30 3 C 11.457748 7.768482 -4.641083 0
M  V30 4 C 11.368424 9.017910 -3.997707 0
M  V30 5 C 11.139763 10.172512 -4.746124 0
M  V30 6 C 11.014476 10.103250 -6.136607 0
M  V30 7 C 11.074520 8.865832 -6.810483 0
M  V30 8 N 10.884751 8.801974 -8.204391 0
M  V30 9 C 9.705587 9.372227 -8.814842 0
M  V30 10 C 9.008301 8.388979 -9.746634 0
M  V30 11 N 9.954411 7.770480 -10.709143 0 CHG=1
M  V30 12 C 9.255783 6.798412 -11.592138 0
M  V30 13 C 10.171950 6.238787 -12.693508 0
M  V30 14 C 9.445057 5.538121 -13.863420 0 CFG=1
M  V30 15 C 10.393993 5.350928 -15.068663 0
M  V30 16 C 11.468945 4.279469 -14.803505 0
M  V30 17 C 10.848387 2.930656 -14.399701 0 CFG=2
M  V30 18 N 10.229030 2.308830 -15.566840 0
M  V30 19 C 9.999650 0.995227 -15.720382 0
M  V30 20 O 10.289760 0.171563 -14.855563 0
M  V30 21 C 9.370647 0.656718 -16.992674 0
M  V30 22 C 9.143428 1.496505 -18.024696 0
M  V30 23 C 8.526281 0.707478 -19.142694 0 CFG=2
M  V30 24 C 7.436223 1.224500 -20.060291 0
M  V30 25 C 6.621345 0.310934 -20.640848 0
M  V30 26 C 6.785408 -1.122428 -20.350798 0
M  V30 27 C 7.445825 -1.524901 -19.239098 0
M  V30 28 C 7.942513 -0.434793 -18.318962 0 CFG=1
M  V30 29 N 8.893696 -0.625430 -17.242874 0
M  V30 30 C 9.840313 3.101977 -13.240357 0
M  V30 31 C 8.797585 4.194893 -13.493485 0
M  V30 32 C 11.188679 7.230220 -10.067056 0
M  V30 33 C 11.866281 8.236073 -9.113074 0
M  V30 34 C 11.285915 7.693864 -6.047588 0
M  V30 35 Cl 11.285434 6.172469 -6.850460 0
M  V30 36 H 12.865514 5.773453 -2.135031 0
M  V30 37 H 13.629127 7.071092 -3.047493 0
M  V30 38 H 12.330782 7.420575 -1.896001 0
M  V30 39 H 10.728319 6.172517 -3.414972 0
M  V30 40 H 12.084561 5.743037 -4.430447 0
M  V30 41 H 11.457197 9.109716 -2.924897 0
M  V30 42 H 11.066288 11.120616 -4.246830 0
M  V30 43 H 10.862750 11.032648 -6.647076 0
M  V30 44 H 10.065377 10.172329 -9.446550 0
M  V30 45 H 9.009126 9.772058 -8.077274 0
M  V30 46 H 8.274462 8.972132 -10.308678 0
M  V30 47 H 8.488906 7.622989 -9.167013 0
M  V30 48 H 8.406972 7.306078 -12.051795 0
M  V30 49 H 8.842199 5.983366 -10.994577 0
M  V30 50 H 10.885942 5.549862 -12.254664 0
M  V30 51 H 10.770591 7.061185 -13.083354 0
M  V30 52 H 8.618411 6.172251 -14.178190 0
M  V30 53 H 9.807296 5.071599 -15.944221 0
M  V30 54 H 10.886333 6.289146 -15.325130 0
M  V30 55 H 12.138388 4.617705 -14.012630 0
M  V30 56 H 12.098804 4.153143 -15.686272 0
M  V30 57 H 11.660090 2.280421 -14.063869 0
M  V30 58 H 9.954952 2.918251 -16.321522 0
M  V30 59 H 9.411333 2.539549 -18.110031 0
M  V30 60 H 9.351772 0.367416 -19.771645 0
M  V30 61 H 7.365119 2.281741 -20.266516 0
M  V30 62 H 5.840969 0.633605 -21.315844 0
M  V30 63 H 6.396639 -1.856712 -21.041193 0
M  V30 64 H 7.590217 -2.563149 -18.977501 0
M  V30 65 H 7.037675 -0.087886 -17.808041 0
M  V30 66 H 8.586923 -1.183850 -16.451389 0
M  V30 67 H 9.315606 2.172216 -13.049874 0
M  V30 68 H 10.374305 3.334456 -12.321989 0
M  V30 69 H 8.144710 3.875034 -14.306559 0
M  V30 70 H 8.151008 4.305046 -12.622112 0
M  V30 71 H 10.923627 6.312792 -9.540882 0
M  V30 72 H 11.919969 6.972605 -10.830703 0
M  V30 73 H 12.305524 9.049393 -9.692289 0
M  V30 74 H 12.689426 7.773611 -8.568077 0
M  V30 75 H 10.266470 8.527979 -11.298156 0
M  V30 END ATOM
M  V30 BEGIN BOND
M  V30 1 1 2 1
M  V30 2 1 3 2
M  V30 3 1 4 3
M  V30 4 2 5 4
M  V30 5 1 6 5
M  V30 6 2 7 6
M  V30 7 1 8 7
M  V30 8 1 9 8
M  V30 9 1 10 9
M  V30 10 1 11 10
M  V30 11 1 12 11
M  V30 12 1 13 12
M  V30 13 1 14 13
M  V30 14 1 15 14
M  V30 15 1 16 15
M  V30 16 1 17 16
M  V30 17 1 18 17
M  V30 18 1 19 18
M  V30 19 2 20 19
M  V30 20 1 21 19
M  V30 21 2 22 21
M  V30 22 1 23 22
M  V30 23 1 24 23
M  V30 24 2 25 24
M  V30 25 1 26 25
M  V30 26 2 27 26
M  V30 27 1 28 23
M  V30 28 1 28 27
M  V30 29 1 29 21
M  V30 30 1 29 28
M  V30 31 1 30 17
M  V30 32 1 31 14
M  V30 33 1 31 30
M  V30 34 1 32 11
M  V30 35 1 33 8
M  V30 36 1 33 32
M  V30 37 2 34 3
M  V30 38 1 34 7
M  V30 39 1 35 34
M  V30 40 1 36 1
M  V30 41 1 37 1
M  V30 42 1 38 1
M  V30 43 1 39 2
M  V30 44 1 40 2
M  V30 45 1 41 4
M  V30 46 1 42 5
M  V30 47 1 43 6
M  V30 48 1 44 9
M  V30 49 1 45 9
M  V30 50 1 46 10
M  V30 51 1 47 10
M  V30 52 1 48 12
M  V30 53 1 49 12
M  V30 54 1 50 13
M  V30 55 1 51 13
M  V30 56 1 14 52 CFG=3
M  V30 57 1 53 15
M  V30 58 1 54 15
M  V30 59 1 55 16
M  V30 60 1 56 16
M  V30 61 1 17 57 CFG=1
M  V30 62 1 58 18
M  V30 63 1 59 22
M  V30 64 1 23 60 CFG=3
M  V30 65 1 61 24
M  V30 66 1 62 25
M  V30 67 1 63 26
M  V30 68 1 64 27
M  V30 69 1 28 65 CFG=1
M  V30 70 1 66 29
M  V30 71 1 67 30
M  V30 72 1 68 30
M  V30 73 1 69 31
M  V30 74 1 70 31
M  V30 75 1 71 32
M  V30 76 1 72 32
M  V30 77 1 73 33
M  V30 78 1 74 33
M  V30 79 1 75 11
M  V30 END BOND
M  V30 END CTAB
M  END
>  <b_m_subgroup_collapsed>  (1530) 
0

>  <r_i_docking_score>  (1530) 
-7.0286857447346502

>  <s_m_subgroup_title>  (1530) 
glide-dock_SP_D22_pv

>  <s_m_subgroupid>  (1530) 
glide-dock_SP_D22_pv

>  <Molecule ChEMBL ID>  (1530) 
CHEMBL5421925

>  <Standard Type>  (1530) 
Ki

>  <Standard Value>  (1530) 
5.76

>  <label>  (1530) 
1

$$$$
CHEMBL100454
     RDKit          3D

  0  0  0  0  0  0  0  0  0  0999 V3000
M  V30 BEGIN CTAB
M  V30 COUNTS 44 47 0 0 1
M  V30 BEGIN ATOM
M  V30 1 C 9.047375 7.445899 -6.778598 0
M  V30 2 N 8.886304 7.211828 -8.223596 0 CHG=1
M  V30 3 C 9.124245 5.804199 -8.597281 0
M  V30 4 C 8.754012 5.597883 -10.063630 0
M  V30 5 N 9.480099 6.514896 -10.942940 0
M  V30 6 C 9.960307 6.139650 -12.196623 0
M  V30 7 N 11.079651 6.608499 -12.655420 0
M  V30 8 C 11.726991 6.251565 -13.856425 0
M  V30 9 C 12.488198 7.284187 -14.447552 0
M  V30 10 C 13.279026 7.058107 -15.589850 0
M  V30 11 C 13.337986 5.775612 -16.156322 0
M  V30 12 C 12.585193 4.732554 -15.591111 0
M  V30 13 C 11.770872 4.958791 -14.461897 0
M  V30 14 N 10.991858 3.886523 -14.031789 0
M  V30 15 C 9.676879 4.077075 -13.668914 0
M  V30 16 S 8.432750 3.007574 -14.246703 0
M  V30 17 C 7.198788 3.973449 -13.476669 0
M  V30 18 C 5.764590 3.575775 -13.523005 0
M  V30 19 O 5.301389 3.126844 -12.268779 0
M  V30 20 C 7.739647 5.072825 -12.862423 0
M  V30 21 C 9.169925 5.101490 -12.922167 0
M  V30 22 C 9.444219 7.928208 -10.559011 0
M  V30 23 C 9.680252 8.148415 -9.053200 0
M  V30 24 H 10.086337 7.346212 -6.468133 0
M  V30 25 H 8.684869 8.436698 -6.504842 0
M  V30 26 H 8.458496 6.705335 -6.246893 0
M  V30 27 H 8.513282 5.144439 -7.979953 0
M  V30 28 H 10.168037 5.537161 -8.423894 0
M  V30 29 H 7.684336 5.770458 -10.185120 0
M  V30 30 H 8.948640 4.559234 -10.335679 0
M  V30 31 H 12.485842 8.269947 -14.008377 0
M  V30 32 H 13.846885 7.868325 -16.022661 0
M  V30 33 H 13.950241 5.590666 -17.026665 0
M  V30 34 H 12.626854 3.752378 -16.043543 0
M  V30 35 H 11.158407 3.023166 -14.529231 0
M  V30 36 H 5.632663 2.771402 -14.245981 0
M  V30 37 H 5.149362 4.411599 -13.855880 0
M  V30 38 H 5.408840 3.825447 -11.637469 0
M  V30 39 H 7.159657 5.821496 -12.341577 0
M  V30 40 H 10.183169 8.503446 -11.118235 0
M  V30 41 H 8.479892 8.335730 -10.849038 0
M  V30 42 H 9.433701 9.178586 -8.790843 0
M  V30 43 H 10.739188 8.006194 -8.829886 0
M  V30 44 H 7.899617 7.375106 -8.424836 0
M  V30 END ATOM
M  V30 BEGIN BOND
M  V30 1 1 2 1
M  V30 2 1 3 2
M  V30 3 1 4 3
M  V30 4 1 5 4
M  V30 5 1 6 5
M  V30 6 2 7 6
M  V30 7 1 8 7
M  V30 8 2 9 8
M  V30 9 1 10 9
M  V30 10 2 11 10
M  V30 11 1 12 11
M  V30 12 1 13 8
M  V30 13 2 13 12
M  V30 14 1 14 13
M  V30 15 1 15 14
M  V30 16 1 16 15
M  V30 17 1 17 16
M  V30 18 1 18 17
M  V30 19 1 19 18
M  V30 20 2 20 17
M  V30 21 1 21 6
M  V30 22 2 21 15
M  V30 23 1 21 20
M  V30 24 1 22 5
M  V30 25 1 23 2
M  V30 26 1 23 22
M  V30 27 1 24 1
M  V30 28 1 25 1
M  V30 29 1 26 1
M  V30 30 1 27 3
M  V30 31 1 28 3
M  V30 32 1 29 4
M  V30 33 1 30 4
M  V30 34 1 31 9
M  V30 35 1 32 10
M  V30 36 1 33 11
M  V30 37 1 34 12
M  V30 38 1 35 14
M  V30 39 1 36 18
M  V30 40 1 37 18
M  V30 41 1 38 19
M  V30 42 1 39 20
M  V30 43 1 40 22
M  V30 44 1 41 22
M  V30 45 1 42 23
M  V30 46 1 43 23
M  V30 47 1 44 2
M  V30 END BOND
M  V30 END CTAB
M  END
>  <b_m_subgroup_collapsed>  (1531) 
0

>  <r_i_docking_score>  (1531) 
-7.0284539335946699

>  <s_m_subgroup_title>  (1531) 
glide-dock_SP_D22_pv

>  <s_m_subgroupid>  (1531) 
glide-dock_SP_D22_pv

>  <Molecule ChEMBL ID>  (1531) 
CHEMBL100454

>  <Standard Type>  (1531) 
Ki

>  <Standard Value>  (1531) 
22.0

>  <label>  (1531) 
1

$$$$
CHEMBL3577344
     RDKit          3D

  0  0  0  0  0  0  0  0  0  0999 V3000
M  V30 BEGIN CTAB
M  V30 COUNTS 95 98 0 0 1
M  V30 BEGIN ATOM
M  V30 1 C 12.081015 6.628697 -2.636049 0
M  V30 2 C 11.941122 7.855004 -3.548809 0
M  V30 3 C 11.415128 7.527963 -4.955766 0
M  V30 4 C 11.283487 8.803530 -5.805086 0
M  V30 5 N 11.012522 8.540863 -7.204561 0
M  V30 6 C 9.815621 8.627708 -7.887136 0
M  V30 7 C 10.179030 8.408629 -9.184133 0
M  V30 8 C 9.349965 8.481612 -10.429258 0
M  V30 9 C 8.886249 7.111360 -10.935002 0
M  V30 10 C 8.016845 7.251014 -12.213778 0
M  V30 11 O 7.240202 6.090527 -12.495276 0
M  V30 12 C 7.849925 5.015515 -13.095879 0
M  V30 13 C 9.236675 4.978393 -13.368510 0
M  V30 14 C 9.811015 3.856514 -13.964429 0
M  V30 15 C 9.001753 2.771615 -14.361001 0
M  V30 16 C 9.627949 1.597449 -15.034235 0
M  V30 17 O 9.277601 0.434970 -14.829308 0
M  V30 18 N 10.596014 1.983000 -15.865041 0
M  V30 19 C 11.697354 1.181048 -16.319494 0
M  V30 20 C 11.808212 1.227121 -17.848236 0
M  V30 21 C 10.666859 0.484066 -18.563910 0
M  V30 22 C 10.455549 0.982007 -20.003553 0
M  V30 23 N 9.579171 0.096073 -20.815399 0 CFG=2 CHG=1
M  V30 24 C 9.631346 0.408908 -22.273233 0
M  V30 25 C 9.069798 1.801163 -22.634081 0
M  V30 26 C 9.028130 2.044091 -24.145439 0
M  V30 27 C 8.189122 -0.075062 -20.307745 0
M  V30 28 C 8.048862 -1.369693 -19.487597 0
M  V30 29 C 6.601727 -1.778099 -19.257538 0
M  V30 30 C 5.980920 -2.553046 -20.261314 0
M  V30 31 C 4.694397 -3.079538 -20.067793 0
M  V30 32 C 4.027471 -2.873016 -18.852882 0
M  V30 33 O 2.832160 -3.495750 -18.647848 0
M  V30 34 C 4.611058 -2.053290 -17.862261 0
M  V30 35 N 3.940285 -1.827902 -16.628778 0
M  V30 36 C 4.406882 -1.083071 -15.607176 0
M  V30 37 O 3.771791 -0.967676 -14.560359 0
M  V30 38 C 5.703212 -0.450627 -15.838358 0
M  V30 39 C 6.393411 -0.624641 -16.985729 0
M  V30 40 C 5.883692 -1.476084 -18.072340 0
M  V30 41 C 7.623411 2.801067 -14.100739 0
M  V30 42 C 7.039605 3.907126 -13.442058 0
M  V30 43 O 5.697089 3.955232 -13.135117 0
M  V30 44 C 5.040266 2.709648 -12.941946 0
M  V30 45 N 11.545188 8.148421 -9.232164 0
M  V30 46 N 12.036201 8.227304 -8.038021 0
M  V30 47 H 12.484272 6.926452 -1.668692 0
M  V30 48 H 11.113480 6.157187 -2.460793 0
M  V30 49 H 12.760761 5.881851 -3.046571 0
M  V30 50 H 12.911306 8.340869 -3.639591 0
M  V30 51 H 11.285583 8.583356 -3.068725 0
M  V30 52 H 10.451153 7.024899 -4.895950 0
M  V30 53 H 12.085986 6.816362 -5.438413 0
M  V30 54 H 12.201310 9.390538 -5.742899 0
M  V30 55 H 10.489993 9.437665 -5.415219 0
M  V30 56 H 8.865232 8.863117 -7.431629 0
M  V30 57 H 9.922390 8.972028 -11.214869 0
M  V30 58 H 8.486609 9.125300 -10.258535 0
M  V30 59 H 8.319749 6.594723 -10.158844 0
M  V30 60 H 9.755484 6.481671 -11.111943 0
M  V30 61 H 8.634145 7.532279 -13.046750 0
M  V30 62 H 7.317358 8.082141 -12.153234 0
M  V30 63 H 9.903684 5.787666 -13.126863 0
M  V30 64 H 10.878207 3.849077 -14.124086 0
M  V30 65 H 10.707621 2.979957 -15.974409 0
M  V30 66 H 11.673484 0.166619 -15.939347 0
M  V30 67 H 12.554618 1.668708 -15.865647 0
M  V30 68 H 12.762995 0.804778 -18.162018 0
M  V30 69 H 11.827845 2.271288 -18.163877 0
M  V30 70 H 9.733690 0.622957 -18.019346 0
M  V30 71 H 10.879137 -0.585007 -18.546429 0
M  V30 72 H 11.430111 1.039673 -20.489553 0
M  V30 73 H 10.055042 1.997332 -19.982676 0
M  V30 74 H 10.666713 0.337092 -22.612698 0
M  V30 75 H 9.086329 -0.361338 -22.819147 0
M  V30 76 H 8.061070 1.921706 -22.236130 0
M  V30 77 H 9.675800 2.582763 -22.174702 0
M  V30 78 H 8.665823 3.049012 -24.361431 0
M  V30 79 H 10.013622 1.942440 -24.596464 0
M  V30 80 H 8.357109 1.342240 -24.642363 0
M  V30 81 H 7.502347 -0.150889 -21.151506 0
M  V30 82 H 7.863499 0.796048 -19.737074 0
M  V30 83 H 8.568184 -1.310331 -18.532885 0
M  V30 84 H 8.528870 -2.189811 -20.021338 0
M  V30 85 H 6.502985 -2.771204 -21.184582 0
M  V30 86 H 4.240210 -3.688825 -20.833836 0
M  V30 87 H 2.731379 -3.819120 -17.745312 0
M  V30 88 H 3.077418 -2.336889 -16.480423 0
M  V30 89 H 6.124079 0.153897 -15.054722 0
M  V30 90 H 7.346595 -0.134657 -17.103863 0
M  V30 91 H 7.033203 1.954534 -14.410903 0
M  V30 92 H 4.015355 2.892431 -12.647070 0
M  V30 93 H 4.989876 2.105956 -13.845320 0
M  V30 94 H 5.521204 2.129687 -12.152917 0
M  V30 95 H 9.994231 -0.820481 -20.751619 0
M  V30 END ATOM
M  V30 BEGIN BOND
M  V30 1 1 2 1
M  V30 2 1 3 2
M  V30 3 1 4 3
M  V30 4 1 5 4
M  V30 5 1 6 5
M  V30 6 2 7 6
M  V30 7 1 8 7
M  V30 8 1 9 8
M  V30 9 1 10 9
M  V30 10 1 11 10
M  V30 11 1 12 11
M  V30 12 1 13 12
M  V30 13 2 14 13
M  V30 14 1 15 14
M  V30 15 1 16 15
M  V30 16 2 17 16
M  V30 17 1 18 16
M  V30 18 1 19 18
M  V30 19 1 20 19
M  V30 20 1 21 20
M  V30 21 1 22 21
M  V30 22 1 23 22
M  V30 23 1 24 23
M  V30 24 1 25 24
M  V30 25 1 26 25
M  V30 26 1 27 23
M  V30 27 1 28 27
M  V30 28 1 29 28
M  V30 29 1 30 29
M  V30 30 2 31 30
M  V30 31 1 32 31
M  V30 32 1 33 32
M  V30 33 2 34 32
M  V30 34 1 35 34
M  V30 35 1 36 35
M  V30 36 2 37 36
M  V30 37 1 38 36
M  V30 38 2 39 38
M  V30 39 2 40 29
M  V30 40 1 40 34
M  V30 41 1 40 39
M  V30 42 2 41 15
M  V30 43 2 42 12
M  V30 44 1 42 41
M  V30 45 1 43 42
M  V30 46 1 44 43
M  V30 47 1 45 7
M  V30 48 1 46 5
M  V30 49 2 46 45
M  V30 50 1 47 1
M  V30 51 1 48 1
M  V30 52 1 49 1
M  V30 53 1 50 2
M  V30 54 1 51 2
M  V30 55 1 52 3
M  V30 56 1 53 3
M  V30 57 1 54 4
M  V30 58 1 55 4
M  V30 59 1 56 6
M  V30 60 1 57 8
M  V30 61 1 58 8
M  V30 62 1 59 9
M  V30 63 1 60 9
M  V30 64 1 61 10
M  V30 65 1 62 10
M  V30 66 1 63 13
M  V30 67 1 64 14
M  V30 68 1 65 18
M  V30 69 1 66 19
M  V30 70 1 67 19
M  V30 71 1 68 20
M  V30 72 1 69 20
M  V30 73 1 70 21
M  V30 74 1 71 21
M  V30 75 1 72 22
M  V30 76 1 73 22
M  V30 77 1 74 24
M  V30 78 1 75 24
M  V30 79 1 76 25
M  V30 80 1 77 25
M  V30 81 1 78 26
M  V30 82 1 79 26
M  V30 83 1 80 26
M  V30 84 1 81 27
M  V30 85 1 82 27
M  V30 86 1 83 28
M  V30 87 1 84 28
M  V30 88 1 85 30
M  V30 89 1 86 31
M  V30 90 1 87 33
M  V30 91 1 88 35
M  V30 92 1 89 38
M  V30 93 1 90 39
M  V30 94 1 91 41
M  V30 95 1 92 44
M  V30 96 1 93 44
M  V30 97 1 94 44
M  V30 98 1 23 95 CFG=3
M  V30 END BOND
M  V30 END CTAB
M  END
>  <b_m_subgroup_collapsed>  (1532) 
0

>  <r_i_docking_score>  (1532) 
-7.0274583339795003

>  <s_m_subgroup_title>  (1532) 
glide-dock_SP_D22_pv

>  <s_m_subgroupid>  (1532) 
glide-dock_SP_D22_pv

>  <Molecule ChEMBL ID>  (1532) 
CHEMBL3577344

>  <Standard Type>  (1532) 
Ki

>  <Standard Value>  (1532) 
24.0

>  <label>  (1532) 
1

$$$$
CHEMBL299879
     RDKit          3D

  0  0  0  0  0  0  0  0  0  0999 V3000
M  V30 BEGIN CTAB
M  V30 COUNTS 67 70 0 0 1
M  V30 BEGIN ATOM
M  V30 1 O 5.940812 -0.470684 -18.696894 0
M  V30 2 N 6.902560 -0.545943 -17.938658 0 CHG=1
M  V30 3 O 7.996325 -1.010143 -18.248911 0 CHG=-1
M  V30 4 C 6.704865 -0.098232 -16.553455 0
M  V30 5 C 5.612536 -0.623658 -15.827901 0
M  V30 6 C 5.390040 -0.249283 -14.489984 0
M  V30 7 C 6.260855 0.659784 -13.864270 0
M  V30 8 C 7.345506 1.202470 -14.581801 0
M  V30 9 C 7.575028 0.831365 -15.925374 0
M  V30 10 S 8.919661 1.593920 -16.866350 0
M  V30 11 O 10.112420 0.739741 -16.752640 0
M  V30 12 O 8.380054 1.969348 -18.183308 0
M  V30 13 N 9.275792 3.090117 -16.078201 0
M  V30 14 C 10.218357 3.229826 -14.972478 0
M  V30 15 C 9.980976 4.579249 -14.260986 0 CFG=1
M  V30 16 C 8.703642 4.561511 -13.390250 0
M  V30 17 C 8.489147 5.884316 -12.633757 0
M  V30 18 C 9.720390 6.282268 -11.790703 0 CFG=2
M  V30 19 C 9.488029 7.637471 -11.094438 0
M  V30 20 N 10.418336 7.913010 -9.979186 0 CHG=1
M  V30 21 C 10.158337 7.148198 -8.737200 0
M  V30 22 C 10.862915 7.797035 -7.530554 0 CFG=1
M  V30 23 C 10.197265 9.122981 -7.128406 0
M  V30 24 C 11.010090 9.843498 -6.045419 0
M  V30 25 C 11.340967 8.941459 -4.872203 0
M  V30 26 C 11.696781 9.511784 -3.633307 0
M  V30 27 C 12.086188 8.702752 -2.550425 0
M  V30 28 C 12.084875 7.305676 -2.688933 0
M  V30 29 C 11.688913 6.733820 -3.912840 0
M  V30 30 C 11.317451 7.533902 -5.010973 0
M  V30 31 C 10.902636 6.854959 -6.312465 0
M  V30 32 C 10.977521 6.308227 -12.682064 0
M  V30 33 C 11.184172 4.958298 -13.387998 0
M  V30 34 H 4.944642 -1.332103 -16.299282 0
M  V30 35 H 4.554123 -0.664625 -13.946646 0
M  V30 36 H 6.087028 0.947662 -12.839078 0
M  V30 37 H 7.991502 1.899090 -14.082294 0
M  V30 38 H 8.509900 3.760605 -16.086086 0
M  V30 39 H 10.134117 2.389595 -14.281317 0
M  V30 40 H 11.226751 3.188308 -15.386187 0
M  V30 41 H 9.876761 5.355772 -15.021938 0
M  V30 42 H 7.825472 4.360332 -14.005562 0
M  V30 43 H 8.768881 3.747133 -12.666446 0
M  V30 44 H 7.615225 5.792740 -11.985954 0
M  V30 45 H 8.244745 6.667965 -13.349794 0
M  V30 46 H 9.847053 5.510516 -11.030720 0
M  V30 47 H 9.554607 8.445660 -11.823419 0
M  V30 48 H 8.486198 7.683083 -10.690969 0
M  V30 49 H 11.370650 7.766585 -10.279238 0
M  V30 50 H 9.085536 7.082993 -8.544898 0
M  V30 51 H 10.513953 6.127132 -8.876457 0
M  V30 52 H 11.897134 8.010010 -7.808937 0
M  V30 53 H 10.071682 9.772072 -7.989834 0
M  V30 54 H 9.191548 8.924955 -6.754512 0
M  V30 55 H 10.485477 10.730076 -5.693404 0
M  V30 56 H 11.950497 10.197187 -6.469679 0
M  V30 57 H 11.684750 10.579358 -3.502936 0
M  V30 58 H 12.366390 9.156815 -1.610416 0
M  V30 59 H 12.368987 6.674004 -1.859898 0
M  V30 60 H 11.679409 5.667153 -4.018029 0
M  V30 61 H 9.914367 6.424636 -6.147916 0
M  V30 62 H 11.574759 6.019575 -6.511681 0
M  V30 63 H 11.861405 6.573225 -12.104097 0
M  V30 64 H 10.886806 7.087739 -13.436772 0
M  V30 65 H 11.311642 4.174311 -12.646837 0
M  V30 66 H 12.098433 4.988247 -13.981911 0
M  V30 67 H 10.303720 8.888268 -9.747916 0
M  V30 END ATOM
M  V30 BEGIN BOND
M  V30 1 2 2 1
M  V30 2 1 3 2
M  V30 3 1 4 2
M  V30 4 2 5 4
M  V30 5 1 6 5
M  V30 6 2 7 6
M  V30 7 1 8 7
M  V30 8 1 9 4
M  V30 9 2 9 8
M  V30 10 1 10 9
M  V30 11 2 11 10
M  V30 12 2 12 10
M  V30 13 1 13 10
M  V30 14 1 14 13
M  V30 15 1 15 14
M  V30 16 1 16 15
M  V30 17 1 17 16
M  V30 18 1 18 17
M  V30 19 1 19 18
M  V30 20 1 20 19
M  V30 21 1 21 20
M  V30 22 1 22 21
M  V30 23 1 23 22
M  V30 24 1 24 23
M  V30 25 1 25 24
M  V30 26 2 26 25
M  V30 27 1 27 26
M  V30 28 2 28 27
M  V30 29 1 29 28
M  V30 30 1 30 25
M  V30 31 2 30 29
M  V30 32 1 31 22
M  V30 33 1 31 30
M  V30 34 1 32 18
M  V30 35 1 33 15
M  V30 36 1 33 32
M  V30 37 1 34 5
M  V30 38 1 35 6
M  V30 39 1 36 7
M  V30 40 1 37 8
M  V30 41 1 38 13
M  V30 42 1 39 14
M  V30 43 1 40 14
M  V30 44 1 15 41 CFG=3
M  V30 45 1 42 16
M  V30 46 1 43 16
M  V30 47 1 44 17
M  V30 48 1 45 17
M  V30 49 1 18 46 CFG=1
M  V30 50 1 47 19
M  V30 51 1 48 19
M  V30 52 1 49 20
M  V30 53 1 50 21
M  V30 54 1 51 21
M  V30 55 1 22 52 CFG=3
M  V30 56 1 53 23
M  V30 57 1 54 23
M  V30 58 1 55 24
M  V30 59 1 56 24
M  V30 60 1 57 26
M  V30 61 1 58 27
M  V30 62 1 59 28
M  V30 63 1 60 29
M  V30 64 1 61 31
M  V30 65 1 62 31
M  V30 66 1 63 32
M  V30 67 1 64 32
M  V30 68 1 65 33
M  V30 69 1 66 33
M  V30 70 1 67 20
M  V30 END BOND
M  V30 END CTAB
M  END
>  <b_m_subgroup_collapsed>  (1533) 
0

>  <r_i_docking_score>  (1533) 
-7.0250273842584301

>  <s_m_subgroup_title>  (1533) 
glide-dock_SP_D22_pv

>  <s_m_subgroupid>  (1533) 
glide-dock_SP_D22_pv

>  <Molecule ChEMBL ID>  (1533) 
CHEMBL299879

>  <Standard Type>  (1533) 
Ki

>  <Standard Value>  (1533) 
63.0

>  <label>  (1533) 
1

$$$$
CHEMBL3265324
     RDKit          3D

  0  0  0  0  0  0  0  0  0  0999 V3000
M  V30 BEGIN CTAB
M  V30 COUNTS 124 126 0 0 1
M  V30 BEGIN ATOM
M  V30 1 C 11.901783 10.777433 -6.200597 0
M  V30 2 C 11.482190 9.791101 -7.008783 0
M  V30 3 C 10.089561 9.214272 -6.924240 0
M  V30 4 N 10.036545 7.798017 -7.310756 0 CFG=1 CHG=1
M  V30 5 C 8.798203 7.165842 -6.866119 0
M  V30 6 C 8.716013 5.854718 -7.603233 0
M  V30 7 C 9.437468 6.105946 -8.903961 0
M  V30 8 C 10.250563 7.398360 -8.729667 0 CFG=1
M  V30 9 C 9.888088 8.435603 -9.823334 0
M  V30 10 N 10.034229 7.835399 -11.155796 0
M  V30 11 C 11.200868 7.431330 -11.678900 0
M  V30 12 O 12.282578 7.771401 -11.199102 0
M  V30 13 C 11.151284 6.572593 -12.917292 0
M  V30 14 C 12.172338 6.724329 -13.870930 0
M  V30 15 C 12.254180 5.874751 -14.988871 0
M  V30 16 C 13.393720 6.041659 -15.970232 0
M  V30 17 C 13.069574 7.054588 -17.080484 0
M  V30 18 C 14.347203 7.547587 -17.767523 0
M  V30 19 S 14.024743 8.572649 -19.231544 0
M  V30 20 C 14.225727 7.410469 -20.624910 0 CFG=1
M  V30 21 C 15.640567 6.825295 -20.723665 0
M  V30 22 C 15.395528 5.324759 -20.638809 0
M  V30 23 O 16.314526 4.507891 -20.644457 0
M  V30 24 N 14.084579 5.050345 -20.546265 0
M  V30 25 C 13.525785 3.697473 -20.478306 0
M  V30 26 C 13.139373 3.288279 -19.043095 0
M  V30 27 C 12.527105 1.881887 -18.997190 0
M  V30 28 C 12.032787 1.470385 -17.599766 0
M  V30 29 C 11.312919 0.101416 -17.580479 0
M  V30 30 C 9.917706 0.100197 -18.221111 0
M  V30 31 O 9.422218 1.144682 -18.643114 0
M  V30 32 N 9.284020 -1.080716 -18.248848 0
M  V30 33 C 7.912872 -1.266821 -18.714083 0
M  V30 34 C 7.869933 -1.681455 -20.191105 0
M  V30 35 O 8.387393 -0.661490 -21.038118 0
M  V30 36 C 7.432040 0.028760 -21.831526 0
M  V30 37 C 6.696975 1.159429 -21.077801 0
M  V30 38 O 5.751583 0.721501 -20.115517 0
M  V30 39 C 4.651660 -0.016748 -20.626173 0
M  V30 40 C 3.713493 -0.339123 -19.461746 0
M  V30 41 O 4.417272 -1.038190 -18.458975 0
M  V30 42 C 3.570615 -1.424142 -17.389492 0
M  V30 43 C 4.427294 -1.837266 -16.189966 0
M  V30 44 O 5.027482 -0.679201 -15.626687 0
M  V30 45 C 5.807230 -0.977163 -14.473228 0
M  V30 46 C 6.650568 0.230386 -14.033878 0
M  V30 47 C 7.744889 0.574849 -15.046612 0
M  V30 48 N 9.007405 0.621055 -14.621265 0
M  V30 49 O 7.452460 0.853980 -16.204340 0
M  V30 50 C 13.341117 6.168171 -20.553751 0
M  V30 51 O 12.115345 6.219473 -20.498690 0
M  V30 52 C 11.278565 4.879453 -15.176805 0
M  V30 53 C 10.226631 4.716746 -14.259009 0
M  V30 54 O 9.330544 3.704808 -14.531556 0
M  V30 55 C 7.945182 3.970355 -14.341520 0
M  V30 56 C 10.176882 5.551003 -13.106851 0
M  V30 57 O 9.193231 5.396234 -12.167336 0
M  V30 58 C 9.231455 4.172878 -11.455028 0
M  V30 59 H 11.247561 11.187508 -5.442455 0
M  V30 60 H 12.885900 11.202124 -6.260962 0
M  V30 61 H 12.136270 9.375071 -7.765211 0
M  V30 62 H 9.758329 9.304800 -5.888615 0
M  V30 63 H 9.362770 9.772301 -7.497120 0
M  V30 64 H 8.886281 6.981977 -5.816064 0
M  V30 65 H 7.945096 7.820530 -7.046939 0
M  V30 66 H 9.303681 5.136249 -7.049098 0
M  V30 67 H 7.696884 5.481226 -7.728915 0
M  V30 68 H 10.111731 5.279256 -9.102172 0
M  V30 69 H 8.692570 6.188835 -9.700572 0
M  V30 70 H 11.312566 7.160888 -8.812984 0
M  V30 71 H 8.852118 8.765343 -9.719618 0
M  V30 72 H 10.516680 9.326899 -9.758064 0
M  V30 73 H 9.188952 7.516845 -11.613441 0
M  V30 74 H 12.937792 7.477022 -13.725784 0
M  V30 75 H 14.273703 6.371890 -15.415259 0
M  V30 76 H 13.647767 5.072391 -16.403141 0
M  V30 77 H 12.370913 6.609902 -17.791552 0
M  V30 78 H 12.558298 7.923533 -16.652754 0
M  V30 79 H 14.886087 8.163553 -17.051281 0
M  V30 80 H 14.999314 6.713223 -18.013817 0
M  V30 81 H 13.977727 7.941465 -21.544775 0
M  V30 82 H 16.114008 7.072356 -21.674459 0
M  V30 83 H 16.300686 7.152430 -19.918251 0
M  V30 84 H 12.649261 3.640656 -21.131929 0
M  V30 85 H 14.235745 2.970732 -20.882868 0
M  V30 86 H 14.015609 3.328768 -18.394230 0
M  V30 87 H 12.421288 4.005123 -18.641512 0
M  V30 88 H 11.705693 1.839196 -19.710489 0
M  V30 89 H 13.263514 1.154305 -19.343872 0
M  V30 90 H 12.881380 1.437381 -16.917271 0
M  V30 91 H 11.360395 2.233302 -17.205296 0
M  V30 92 H 11.929039 -0.650301 -18.068348 0
M  V30 93 H 11.179779 -0.227683 -16.550449 0
M  V30 94 H 9.762695 -1.890848 -17.887432 0
M  V30 95 H 7.457580 -2.056352 -18.111795 0
M  V30 96 H 7.312853 -0.372321 -18.539505 0
M  V30 97 H 8.481853 -2.572735 -20.331682 0
M  V30 98 H 6.862673 -1.983597 -20.469387 0
M  V30 99 H 8.008338 0.496045 -22.631575 0
M  V30 100 H 6.752265 -0.653421 -22.340855 0
M  V30 101 H 7.430284 1.793685 -20.572371 0
M  V30 102 H 6.188503 1.804478 -21.794886 0
M  V30 103 H 4.118189 0.568385 -21.374931 0
M  V30 104 H 4.960614 -0.946900 -21.097500 0
M  V30 105 H 3.287657 0.577223 -19.047569 0
M  V30 106 H 2.887738 -0.949886 -19.827106 0
M  V30 107 H 2.886902 -0.628415 -17.098391 0
M  V30 108 H 2.961061 -2.265571 -17.718376 0
M  V30 109 H 3.787620 -2.304905 -15.448373 0
M  V30 110 H 5.182857 -2.562774 -16.493755 0
M  V30 111 H 5.124897 -1.259478 -13.675452 0
M  V30 112 H 6.464553 -1.826440 -14.645530 0
M  V30 113 H 6.010356 1.102796 -13.894034 0
M  V30 114 H 7.102205 0.010432 -13.062811 0
M  V30 115 H 9.238374 0.493946 -13.647244 0
M  V30 116 H 9.717252 0.910991 -15.278340 0
M  V30 117 H 11.332299 4.233800 -16.043364 0
M  V30 118 H 7.386843 3.312186 -15.005251 0
M  V30 119 H 7.562625 3.791212 -13.341089 0
M  V30 120 H 7.686304 4.981919 -14.646634 0
M  V30 121 H 8.334216 4.168397 -10.843727 0
M  V30 122 H 9.285623 3.288171 -12.079443 0
M  V30 123 H 10.087317 4.114015 -10.800255 0
M  V30 124 H 10.762767 7.324117 -6.792442 0
M  V30 END ATOM
M  V30 BEGIN BOND
M  V30 1 2 2 1
M  V30 2 1 3 2
M  V30 3 1 4 3
M  V30 4 1 5 4
M  V30 5 1 6 5
M  V30 6 1 7 6
M  V30 7 1 8 4
M  V30 8 1 8 7
M  V30 9 1 9 8
M  V30 10 1 10 9
M  V30 11 1 11 10
M  V30 12 2 12 11
M  V30 13 1 13 11
M  V30 14 2 14 13
M  V30 15 1 15 14
M  V30 16 1 16 15
M  V30 17 1 17 16
M  V30 18 1 18 17
M  V30 19 1 19 18
M  V30 20 1 20 19
M  V30 21 1 21 20
M  V30 22 1 22 21
M  V30 23 2 23 22
M  V30 24 1 24 22
M  V30 25 1 25 24
M  V30 26 1 26 25
M  V30 27 1 27 26
M  V30 28 1 28 27
M  V30 29 1 29 28
M  V30 30 1 30 29
M  V30 31 2 31 30
M  V30 32 1 32 30
M  V30 33 1 33 32
M  V30 34 1 34 33
M  V30 35 1 35 34
M  V30 36 1 36 35
M  V30 37 1 37 36
M  V30 38 1 38 37
M  V30 39 1 39 38
M  V30 40 1 40 39
M  V30 41 1 41 40
M  V30 42 1 42 41
M  V30 43 1 43 42
M  V30 44 1 44 43
M  V30 45 1 45 44
M  V30 46 1 46 45
M  V30 47 1 47 46
M  V30 48 1 48 47
M  V30 49 2 49 47
M  V30 50 1 50 20
M  V30 51 1 50 24
M  V30 52 2 51 50
M  V30 53 2 52 15
M  V30 54 1 53 52
M  V30 55 1 54 53
M  V30 56 1 55 54
M  V30 57 1 56 13
M  V30 58 2 56 53
M  V30 59 1 57 56
M  V30 60 1 58 57
M  V30 61 1 59 1
M  V30 62 1 60 1
M  V30 63 1 61 2
M  V30 64 1 62 3
M  V30 65 1 63 3
M  V30 66 1 64 5
M  V30 67 1 65 5
M  V30 68 1 66 6
M  V30 69 1 67 6
M  V30 70 1 68 7
M  V30 71 1 69 7
M  V30 72 1 8 70 CFG=1
M  V30 73 1 71 9
M  V30 74 1 72 9
M  V30 75 1 73 10
M  V30 76 1 74 14
M  V30 77 1 75 16
M  V30 78 1 76 16
M  V30 79 1 77 17
M  V30 80 1 78 17
M  V30 81 1 79 18
M  V30 82 1 80 18
M  V30 83 1 20 81 CFG=3
M  V30 84 1 82 21
M  V30 85 1 83 21
M  V30 86 1 84 25
M  V30 87 1 85 25
M  V30 88 1 86 26
M  V30 89 1 87 26
M  V30 90 1 88 27
M  V30 91 1 89 27
M  V30 92 1 90 28
M  V30 93 1 91 28
M  V30 94 1 92 29
M  V30 95 1 93 29
M  V30 96 1 94 32
M  V30 97 1 95 33
M  V30 98 1 96 33
M  V30 99 1 97 34
M  V30 100 1 98 34
M  V30 101 1 99 36
M  V30 102 1 100 36
M  V30 103 1 101 37
M  V30 104 1 102 37
M  V30 105 1 103 39
M  V30 106 1 104 39
M  V30 107 1 105 40
M  V30 108 1 106 40
M  V30 109 1 107 42
M  V30 110 1 108 42
M  V30 111 1 109 43
M  V30 112 1 110 43
M  V30 113 1 111 45
M  V30 114 1 112 45
M  V30 115 1 113 46
M  V30 116 1 114 46
M  V30 117 1 115 48
M  V30 118 1 116 48
M  V30 119 1 117 52
M  V30 120 1 118 55
M  V30 121 1 119 55
M  V30 122 1 120 55
M  V30 123 1 121 58
M  V30 124 1 122 58
M  V30 125 1 123 58
M  V30 126 1 4 124 CFG=1
M  V30 END BOND
M  V30 END CTAB
M  END
>  <b_m_subgroup_collapsed>  (1534) 
0

>  <r_i_docking_score>  (1534) 
-7.0238144481691904

>  <s_m_subgroup_title>  (1534) 
glide-dock_SP_D22_pv

>  <s_m_subgroupid>  (1534) 
glide-dock_SP_D22_pv

>  <Molecule ChEMBL ID>  (1534) 
CHEMBL3265324

>  <Standard Type>  (1534) 
Ki

>  <Standard Value>  (1534) 
7.31

>  <label>  (1534) 
1

$$$$
CHEMBL201393
     RDKit          3D

  0  0  0  0  0  0  0  0  0  0999 V3000
M  V30 BEGIN CTAB
M  V30 COUNTS 43 47 0 0 1
M  V30 BEGIN ATOM
M  V30 1 C 11.697883 9.489024 -6.647284 0
M  V30 2 C 12.447891 8.971883 -7.717783 0
M  V30 3 C 11.875068 8.049307 -8.610482 0
M  V30 4 C 10.543694 7.619779 -8.432853 0
M  V30 5 C 10.013101 6.460671 -9.268147 0 CFG=1
M  V30 6 C 9.117151 5.482989 -8.515501 0
M  V30 7 C 8.508281 4.724115 -9.662673 0
M  V30 8 N 8.156704 5.772426 -10.631573 0 CFG=2 CHG=1
M  V30 9 C 7.713238 5.262864 -11.958112 0
M  V30 10 C 8.874361 4.654058 -12.769894 0
M  V30 11 C 10.003599 5.626348 -12.791133 0
M  V30 12 C 10.159387 6.581318 -11.821396 0
M  V30 13 N 11.246301 7.372285 -12.151511 0
M  V30 14 C 11.787227 6.968379 -13.360917 0
M  V30 15 C 12.816662 7.499124 -14.159169 0
M  V30 16 C 13.152160 6.861900 -15.369740 0
M  V30 17 C 12.467655 5.694753 -15.759799 0
M  V30 18 C 11.423680 5.179551 -14.962765 0
M  V30 19 C 11.046052 5.814938 -13.757502 0
M  V30 20 C 9.285317 6.759964 -10.604526 0 CFG=2
M  V30 21 C 9.774352 8.183912 -7.388346 0
M  V30 22 C 10.359866 9.096595 -6.492055 0
M  V30 23 H 12.146934 10.189520 -5.958509 0
M  V30 24 H 13.478271 9.274405 -7.844548 0
M  V30 25 H 12.483556 7.636001 -9.402164 0
M  V30 26 H 10.884490 5.863430 -9.519940 0
M  V30 27 H 9.684671 4.845008 -7.846634 0
M  V30 28 H 8.316422 5.964295 -7.954321 0
M  V30 29 H 9.289712 4.101850 -10.090923 0
M  V30 30 H 7.686090 4.080272 -9.371718 0
M  V30 31 H 6.906021 4.540750 -11.828813 0
M  V30 32 H 7.285072 6.104368 -12.505779 0
M  V30 33 H 9.201874 3.709234 -12.335969 0
M  V30 34 H 8.538815 4.427879 -13.781959 0
M  V30 35 H 11.542100 8.167761 -11.601251 0
M  V30 36 H 13.341179 8.388692 -13.844680 0
M  V30 37 H 13.944440 7.260596 -15.989688 0
M  V30 38 H 12.733059 5.200679 -16.684896 0
M  V30 39 H 10.886486 4.302826 -15.293114 0
M  V30 40 H 8.854531 7.761772 -10.596821 0
M  V30 41 H 8.744258 7.902437 -7.226546 0
M  V30 42 H 9.781491 9.497635 -5.676350 0
M  V30 43 H 7.371381 6.301397 -10.248252 0
M  V30 END ATOM
M  V30 BEGIN BOND
M  V30 1 2 2 1
M  V30 2 1 3 2
M  V30 3 2 4 3
M  V30 4 1 5 4
M  V30 5 1 6 5
M  V30 6 1 7 6
M  V30 7 1 8 7
M  V30 8 1 9 8
M  V30 9 1 10 9
M  V30 10 1 11 10
M  V30 11 2 12 11
M  V30 12 1 13 12
M  V30 13 1 14 13
M  V30 14 2 15 14
M  V30 15 1 16 15
M  V30 16 2 17 16
M  V30 17 1 18 17
M  V30 18 1 19 11
M  V30 19 1 19 14
M  V30 20 2 19 18
M  V30 21 1 20 5
M  V30 22 1 20 8
M  V30 23 1 20 12
M  V30 24 1 21 4
M  V30 25 1 22 1
M  V30 26 2 22 21
M  V30 27 1 23 1
M  V30 28 1 24 2
M  V30 29 1 25 3
M  V30 30 1 5 26 CFG=3
M  V30 31 1 27 6
M  V30 32 1 28 6
M  V30 33 1 29 7
M  V30 34 1 30 7
M  V30 35 1 31 9
M  V30 36 1 32 9
M  V30 37 1 33 10
M  V30 38 1 34 10
M  V30 39 1 35 13
M  V30 40 1 36 15
M  V30 41 1 37 16
M  V30 42 1 38 17
M  V30 43 1 39 18
M  V30 44 1 20 40 CFG=1
M  V30 45 1 41 21
M  V30 46 1 42 22
M  V30 47 1 8 43 CFG=1
M  V30 END BOND
M  V30 END CTAB
M  END
>  <b_m_subgroup_collapsed>  (1535) 
0

>  <r_i_docking_score>  (1535) 
-7.0223533682485302

>  <s_m_subgroup_title>  (1535) 
glide-dock_SP_D22_pv

>  <s_m_subgroupid>  (1535) 
glide-dock_SP_D22_pv

>  <Molecule ChEMBL ID>  (1535) 
CHEMBL201393

>  <Standard Type>  (1535) 
Ki

>  <Standard Value>  (1535) 
10000.0

>  <label>  (1535) 
0

$$$$
CHEMBL399396
     RDKit          3D

  0  0  0  0  0  0  0  0  0  0999 V3000
M  V30 BEGIN CTAB
M  V30 COUNTS 53 56 0 0 1
M  V30 BEGIN ATOM
M  V30 1 C 5.285652 4.411147 -13.436066 0
M  V30 2 C 5.817739 5.637532 -12.685728 0
M  V30 3 O 7.161597 5.378982 -12.346812 0
M  V30 4 C 8.066045 6.368529 -12.251997 0
M  V30 5 O 7.893090 7.523486 -12.646797 0
M  V30 6 C 9.420255 5.865418 -11.702205 0
M  V30 7 C 10.112857 5.134723 -12.876285 0
M  V30 8 C 9.726967 3.817686 -13.230659 0
M  V30 9 C 10.318659 3.154748 -14.323045 0
M  V30 10 C 11.306785 3.798542 -15.087437 0
M  V30 11 Cl 12.006802 3.005571 -16.451225 0
M  V30 12 C 11.713118 5.100426 -14.745664 0
M  V30 13 C 11.120348 5.762975 -13.653635 0
M  V30 14 C 9.198178 4.896274 -10.498099 0
M  V30 15 C 8.813286 5.582887 -9.178683 0
M  V30 16 N 9.851179 6.530974 -8.779980 0
M  V30 17 C 9.519268 7.026883 -7.439826 0
M  V30 18 C 10.408265 7.988480 -6.693774 0
M  V30 19 C 10.656680 9.277916 -7.066337 0
M  V30 20 N 11.407274 9.917434 -6.097239 0
M  V30 21 C 11.682519 9.051888 -5.060744 0
M  V30 22 C 12.355942 9.219700 -3.836520 0
M  V30 23 C 12.483448 8.130880 -2.958081 0
M  V30 24 C 11.963880 6.878824 -3.326758 0
M  V30 25 C 11.286069 6.725654 -4.553573 0
M  V30 26 C 11.102281 7.805561 -5.444284 0
M  V30 27 C 9.856074 7.594576 -9.788574 0
M  V30 28 C 10.286679 7.044086 -11.162347 0
M  V30 29 H 4.275750 4.572617 -13.810243 0
M  V30 30 H 5.914566 4.174915 -14.292825 0
M  V30 31 H 5.270465 3.535257 -12.788361 0
M  V30 32 H 5.285459 5.799661 -11.751060 0
M  V30 33 H 5.693399 6.536541 -13.289960 0
M  V30 34 H 8.956105 3.304691 -12.677536 0
M  V30 35 H 10.003837 2.153220 -14.577254 0
M  V30 36 H 12.472628 5.600307 -15.329003 0
M  V30 37 H 11.449836 6.768121 -13.443533 0
M  V30 38 H 8.417159 4.172245 -10.708151 0
M  V30 39 H 10.086108 4.299149 -10.324430 0
M  V30 40 H 7.848248 6.083961 -9.274696 0
M  V30 41 H 8.693781 4.817596 -8.410530 0
M  V30 42 H 8.521933 7.468298 -7.493780 0
M  V30 43 H 9.394304 6.150783 -6.803476 0
M  V30 44 H 10.313531 9.772295 -7.954584 0
M  V30 45 H 11.692730 10.884276 -6.158510 0
M  V30 46 H 12.770101 10.172145 -3.553990 0
M  V30 47 H 12.983997 8.256672 -2.010264 0
M  V30 48 H 12.065375 6.034873 -2.659890 0
M  V30 49 H 10.862175 5.772273 -4.810557 0
M  V30 50 H 8.881971 8.082478 -9.850777 0
M  V30 51 H 10.581147 8.356573 -9.515652 0
M  V30 52 H 11.315842 6.714432 -11.058075 0
M  V30 53 H 10.314307 7.871094 -11.873740 0
M  V30 END ATOM
M  V30 BEGIN BOND
M  V30 1 1 2 1
M  V30 2 1 3 2
M  V30 3 1 4 3
M  V30 4 2 5 4
M  V30 5 1 6 4
M  V30 6 1 7 6
M  V30 7 1 8 7
M  V30 8 2 9 8
M  V30 9 1 10 9
M  V30 10 1 11 10
M  V30 11 2 12 10
M  V30 12 2 13 7
M  V30 13 1 13 12
M  V30 14 1 14 6
M  V30 15 1 15 14
M  V30 16 1 16 15
M  V30 17 1 17 16
M  V30 18 1 18 17
M  V30 19 2 19 18
M  V30 20 1 20 19
M  V30 21 1 21 20
M  V30 22 2 22 21
M  V30 23 1 23 22
M  V30 24 2 24 23
M  V30 25 1 25 24
M  V30 26 1 26 18
M  V30 27 1 26 21
M  V30 28 2 26 25
M  V30 29 1 27 16
M  V30 30 1 28 6
M  V30 31 1 28 27
M  V30 32 1 29 1
M  V30 33 1 30 1
M  V30 34 1 31 1
M  V30 35 1 32 2
M  V30 36 1 33 2
M  V30 37 1 34 8
M  V30 38 1 35 9
M  V30 39 1 36 12
M  V30 40 1 37 13
M  V30 41 1 38 14
M  V30 42 1 39 14
M  V30 43 1 40 15
M  V30 44 1 41 15
M  V30 45 1 42 17
M  V30 46 1 43 17
M  V30 47 1 44 19
M  V30 48 1 45 20
M  V30 49 1 46 22
M  V30 50 1 47 23
M  V30 51 1 48 24
M  V30 52 1 49 25
M  V30 53 1 50 27
M  V30 54 1 51 27
M  V30 55 1 52 28
M  V30 56 1 53 28
M  V30 END BOND
M  V30 END CTAB
M  END
>  <b_m_subgroup_collapsed>  (1536) 
0

>  <r_i_docking_score>  (1536) 
-7.0220257640677604

>  <s_m_subgroup_title>  (1536) 
glide-dock_SP_D22_pv

>  <s_m_subgroupid>  (1536) 
glide-dock_SP_D22_pv

>  <Molecule ChEMBL ID>  (1536) 
CHEMBL399396

>  <Standard Type>  (1536) 
Ki

>  <Standard Value>  (1536) 
58.8

>  <label>  (1536) 
1

$$$$
CHEMBL3084513
     RDKit          3D

  0  0  0  0  0  0  0  0  0  0999 V3000
M  V30 BEGIN CTAB
M  V30 COUNTS 49 53 0 0 1
M  V30 BEGIN ATOM
M  V30 1 O 9.285029 8.296615 -6.651512 0
M  V30 2 C 10.628634 8.001243 -6.962300 0 CFG=1
M  V30 3 C 11.285865 8.223669 -5.616632 0
M  V30 4 C 11.287030 9.538044 -5.083404 0
M  V30 5 C 11.715745 9.772647 -3.768912 0
M  V30 6 C 12.184400 8.715082 -2.994231 0
M  V30 7 Cl 12.868550 8.972049 -1.443773 0
M  V30 8 C 12.101357 7.418948 -3.485508 0
M  V30 9 Cl 12.489498 6.172582 -2.416097 0
M  V30 10 C 11.661844 7.149441 -4.788515 0
M  V30 11 C 10.719047 6.552983 -7.557438 0
M  V30 12 C 10.264097 6.452966 -9.063066 0 CFG=1
M  V30 13 C 8.887345 7.074924 -9.160041 0
M  V30 14 C 9.146223 8.575883 -9.503696 0
M  V30 15 C 10.662156 8.675576 -9.492586 0 CFG=1
M  V30 16 C 11.191919 8.952380 -8.054449 0
M  V30 17 N 11.066963 7.329032 -9.957721 0 CFG=2 CHG=1
M  V30 18 C 10.961422 7.158926 -11.472353 0
M  V30 19 C 9.851655 6.327653 -12.122028 0
M  V30 20 C 8.523799 6.689857 -12.246182 0
M  V30 21 S 7.460219 5.390710 -12.646579 0
M  V30 22 C 8.817292 4.492046 -13.265805 0
M  V30 23 C 8.766922 3.293705 -13.997949 0
M  V30 24 C 9.956487 2.705072 -14.466406 0
M  V30 25 C 11.178860 3.357123 -14.237455 0
M  V30 26 C 11.226656 4.535354 -13.457067 0
M  V30 27 C 10.055562 5.137534 -12.937683 0
M  V30 28 H 9.226245 9.170156 -6.293304 0
M  V30 29 H 10.919900 10.381220 -5.650653 0
M  V30 30 H 11.685080 10.767693 -3.348933 0
M  V30 31 H 11.584510 6.125334 -5.115296 0
M  V30 32 H 11.740887 6.190065 -7.455149 0
M  V30 33 H 10.114388 5.870081 -6.958453 0
M  V30 34 H 10.277524 5.413996 -9.400088 0
M  V30 35 H 8.291785 6.920585 -8.265388 0
M  V30 36 H 8.267252 6.576392 -9.887770 0
M  V30 37 H 8.658666 9.272109 -8.820850 0
M  V30 38 H 8.763448 8.848572 -10.481536 0
M  V30 39 H 11.023664 9.464080 -10.153565 0
M  V30 40 H 10.977669 9.976278 -7.781883 0
M  V30 41 H 12.276947 8.866456 -8.071516 0
M  V30 42 H 10.922094 8.146340 -11.934800 0
M  V30 43 H 11.931297 6.789808 -11.800478 0
M  V30 44 H 8.035398 7.588384 -11.907450 0
M  V30 45 H 7.811061 2.830232 -14.201233 0
M  V30 46 H 9.920759 1.779291 -15.025237 0
M  V30 47 H 12.092947 2.923916 -14.624472 0
M  V30 48 H 12.192755 4.991593 -13.290064 0
M  V30 49 H 12.042519 7.215019 -9.723295 0
M  V30 END ATOM
M  V30 BEGIN BOND
M  V30 1 1 2 1 CFG=1
M  V30 2 1 3 2
M  V30 3 1 4 3
M  V30 4 2 5 4
M  V30 5 1 6 5
M  V30 6 1 7 6
M  V30 7 2 8 6
M  V30 8 1 9 8
M  V30 9 2 10 3
M  V30 10 1 10 8
M  V30 11 1 11 2
M  V30 12 1 12 11
M  V30 13 1 13 12
M  V30 14 1 14 13
M  V30 15 1 15 14
M  V30 16 1 16 2
M  V30 17 1 16 15
M  V30 18 1 17 12
M  V30 19 1 17 15
M  V30 20 1 18 17
M  V30 21 1 19 18
M  V30 22 2 20 19
M  V30 23 1 21 20
M  V30 24 1 22 21
M  V30 25 2 23 22
M  V30 26 1 24 23
M  V30 27 2 25 24
M  V30 28 1 26 25
M  V30 29 1 27 19
M  V30 30 1 27 22
M  V30 31 2 27 26
M  V30 32 1 28 1
M  V30 33 1 29 4
M  V30 34 1 30 5
M  V30 35 1 31 10
M  V30 36 1 32 11
M  V30 37 1 33 11
M  V30 38 1 12 34 CFG=3
M  V30 39 1 35 13
M  V30 40 1 36 13
M  V30 41 1 37 14
M  V30 42 1 38 14
M  V30 43 1 15 39 CFG=3
M  V30 44 1 40 16
M  V30 45 1 41 16
M  V30 46 1 42 18
M  V30 47 1 43 18
M  V30 48 1 44 20
M  V30 49 1 45 23
M  V30 50 1 46 24
M  V30 51 1 47 25
M  V30 52 1 48 26
M  V30 53 1 17 49 CFG=1
M  V30 END BOND
M  V30 END CTAB
M  END
>  <b_m_subgroup_collapsed>  (1537) 
0

>  <r_i_docking_score>  (1537) 
-7.0218835578596801

>  <s_m_subgroup_title>  (1537) 
glide-dock_SP_D22_pv

>  <s_m_subgroupid>  (1537) 
glide-dock_SP_D22_pv

>  <Molecule ChEMBL ID>  (1537) 
CHEMBL3084513

>  <Standard Type>  (1537) 
Ki

>  <Standard Value>  (1537) 
29.8

>  <label>  (1537) 
1

$$$$
CHEMBL1263
     RDKit          3D

  0  0  0  0  0  0  0  0  0  0999 V3000
M  V30 BEGIN CTAB
M  V30 COUNTS 68 69 0 0 1
M  V30 BEGIN ATOM
M  V30 1 O 8.087998 2.037277 -19.277306 0
M  V30 2 C 7.832049 0.770838 -19.856686 0
M  V30 3 C 6.490015 0.219754 -19.418814 0
M  V30 4 C 6.396762 -0.477770 -18.194962 0
M  V30 5 C 5.142589 -0.867711 -17.664825 0
M  V30 6 C 5.022941 -1.526167 -16.282383 0 CFG=2
M  V30 7 O 3.686054 -1.827870 -15.930960 0
M  V30 8 C 5.504375 -0.633877 -15.118149 0
M  V30 9 N 6.917377 -0.227655 -15.245281 0 CHG=1
M  V30 10 C 7.392567 0.728424 -14.231198 0
M  V30 11 C 8.330296 1.770206 -14.857316 0
M  V30 12 C 8.704014 2.887872 -13.875873 0
M  V30 13 C 9.500405 4.024707 -14.533123 0
M  V30 14 C 9.897150 5.134573 -13.545754 0
M  V30 15 C 8.700132 5.936903 -12.998683 0
M  V30 16 O 9.132564 7.061759 -12.241110 0
M  V30 17 C 9.553070 6.725021 -10.924059 0
M  V30 18 C 9.778221 7.984044 -10.074136 0
M  V30 19 C 10.182570 7.619496 -8.634516 0
M  V30 20 C 10.360262 8.839346 -7.712158 0
M  V30 21 C 10.936720 8.534244 -6.330320 0
M  V30 22 C 11.481562 9.589520 -5.564097 0
M  V30 23 C 12.050097 9.339540 -4.299202 0
M  V30 24 C 12.085533 8.028715 -3.787945 0
M  V30 25 C 11.532626 6.973683 -4.537094 0
M  V30 26 C 10.949467 7.223654 -5.794911 0
M  V30 27 C 3.988265 -0.627830 -18.443802 0
M  V30 28 C 4.084426 0.013781 -19.688435 0
M  V30 29 C 5.325090 0.443506 -20.184294 0
M  V30 30 O 5.373134 1.063132 -21.400061 0
M  V30 31 H 8.888013 2.377491 -19.647766 0
M  V30 32 H 8.624551 0.079556 -19.568096 0
M  V30 33 H 7.879180 0.858002 -20.942574 0
M  V30 34 H 7.311194 -0.684094 -17.663059 0
M  V30 35 H 5.590034 -2.459719 -16.291382 0
M  V30 36 H 3.450337 -2.707090 -16.244562 0
M  V30 37 H 4.876166 0.256529 -15.063954 0
M  V30 38 H 5.387161 -1.162043 -14.171130 0
M  V30 39 H 7.493072 -1.067729 -15.249918 0
M  V30 40 H 6.543003 1.244262 -13.777460 0
M  V30 41 H 7.893675 0.178094 -13.433472 0
M  V30 42 H 9.234071 1.286738 -15.227885 0
M  V30 43 H 7.838918 2.215256 -15.723923 0
M  V30 44 H 7.789918 3.294182 -13.442329 0
M  V30 45 H 9.286035 2.479096 -13.047012 0
M  V30 46 H 10.408569 3.610320 -14.973238 0
M  V30 47 H 8.930541 4.458019 -15.355659 0
M  V30 48 H 10.468649 4.698546 -12.725793 0
M  V30 49 H 10.573030 5.821346 -14.052784 0
M  V30 50 H 8.095193 6.304135 -13.826900 0
M  V30 51 H 8.033272 5.311047 -12.404826 0
M  V30 52 H 8.798248 6.103387 -10.437931 0
M  V30 53 H 10.481598 6.154293 -10.962526 0
M  V30 54 H 10.549878 8.603951 -10.534152 0
M  V30 55 H 8.865473 8.579315 -10.060059 0
M  V30 56 H 9.423882 6.956464 -8.216232 0
M  V30 57 H 11.112806 7.053698 -8.668343 0
M  V30 58 H 11.029887 9.550414 -8.196981 0
M  V30 59 H 9.402760 9.348117 -7.587173 0
M  V30 60 H 11.472562 10.599739 -5.951781 0
M  V30 61 H 12.460786 10.149174 -3.713855 0
M  V30 62 H 12.526466 7.834914 -2.820006 0
M  V30 63 H 11.547480 5.967574 -4.143510 0
M  V30 64 H 10.527608 6.390330 -6.336539 0
M  V30 65 H 3.006174 -0.916182 -18.094351 0
M  V30 66 H 3.181150 0.194080 -20.246880 0
M  V30 67 H 4.602862 0.902375 -21.921995 0
M  V30 68 H 6.999770 0.222032 -16.145765 0
M  V30 END ATOM
M  V30 BEGIN BOND
M  V30 1 1 2 1
M  V30 2 1 3 2
M  V30 3 1 4 3
M  V30 4 2 5 4
M  V30 5 1 6 5
M  V30 6 1 7 6
M  V30 7 1 8 6
M  V30 8 1 9 8
M  V30 9 1 10 9
M  V30 10 1 11 10
M  V30 11 1 12 11
M  V30 12 1 13 12
M  V30 13 1 14 13
M  V30 14 1 15 14
M  V30 15 1 16 15
M  V30 16 1 17 16
M  V30 17 1 18 17
M  V30 18 1 19 18
M  V30 19 1 20 19
M  V30 20 1 21 20
M  V30 21 2 22 21
M  V30 22 1 23 22
M  V30 23 2 24 23
M  V30 24 1 25 24
M  V30 25 1 26 21
M  V30 26 2 26 25
M  V30 27 1 27 5
M  V30 28 2 28 27
M  V30 29 2 29 3
M  V30 30 1 29 28
M  V30 31 1 30 29
M  V30 32 1 31 1
M  V30 33 1 32 2
M  V30 34 1 33 2
M  V30 35 1 34 4
M  V30 36 1 6 35 CFG=3
M  V30 37 1 36 7
M  V30 38 1 37 8
M  V30 39 1 38 8
M  V30 40 1 39 9
M  V30 41 1 40 10
M  V30 42 1 41 10
M  V30 43 1 42 11
M  V30 44 1 43 11
M  V30 45 1 44 12
M  V30 46 1 45 12
M  V30 47 1 46 13
M  V30 48 1 47 13
M  V30 49 1 48 14
M  V30 50 1 49 14
M  V30 51 1 50 15
M  V30 52 1 51 15
M  V30 53 1 52 17
M  V30 54 1 53 17
M  V30 55 1 54 18
M  V30 56 1 55 18
M  V30 57 1 56 19
M  V30 58 1 57 19
M  V30 59 1 58 20
M  V30 60 1 59 20
M  V30 61 1 60 22
M  V30 62 1 61 23
M  V30 63 1 62 24
M  V30 64 1 63 25
M  V30 65 1 64 26
M  V30 66 1 65 27
M  V30 67 1 66 28
M  V30 68 1 67 30
M  V30 69 1 68 9
M  V30 END BOND
M  V30 END CTAB
M  END
>  <b_m_subgroup_collapsed>  (1538) 
0

>  <r_i_docking_score>  (1538) 
-7.0191029929065003

>  <s_m_subgroup_title>  (1538) 
glide-dock_SP_D22_pv

>  <s_m_subgroupid>  (1538) 
glide-dock_SP_D22_pv

>  <Molecule ChEMBL ID>  (1538) 
CHEMBL1263

>  <Standard Type>  (1538) 
Ki

>  <Standard Value>  (1538) 
32000.0

>  <label>  (1538) 
0

$$$$
CHEMBL2335739
     RDKit          3D

  0  0  0  0  0  0  0  0  0  0999 V3000
M  V30 BEGIN CTAB
M  V30 COUNTS 47 50 0 0 1
M  V30 BEGIN ATOM
M  V30 1 C 12.773124 6.879310 -16.126949 0
M  V30 2 O 13.285872 7.584681 -15.007181 0
M  V30 3 C 12.641583 7.451781 -13.797091 0
M  V30 4 C 13.156958 8.172251 -12.698321 0
M  V30 5 C 12.508554 8.139729 -11.443560 0
M  V30 6 C 11.356938 7.349770 -11.254389 0
M  V30 7 C 10.852595 6.601087 -12.353165 0
M  V30 8 C 11.510064 6.631936 -13.595939 0
M  V30 9 C 9.679991 5.640718 -12.199178 0
M  V30 10 C 9.020531 5.711750 -10.821952 0
M  V30 11 N 10.085860 5.792261 -9.798388 0 CFG=2 CHG=1
M  V30 12 C 9.696951 5.380692 -8.439316 0
M  V30 13 C 8.839671 6.463411 -7.799550 0
M  V30 14 C 9.533581 7.840036 -7.765347 0 CFG=1
M  V30 15 O 8.486212 8.716566 -7.481219 0
M  V30 16 C 10.566046 8.008613 -6.644721 0
M  V30 17 C 10.866543 6.973276 -5.727772 0
M  V30 18 C 11.546071 7.238404 -4.526679 0
M  V30 19 C 11.921162 8.554829 -4.219542 0
M  V30 20 Cl 12.487413 8.936087 -2.638919 0
M  V30 21 C 11.742667 9.566950 -5.177769 0
M  V30 22 C 11.072513 9.298517 -6.380669 0
M  V30 23 C 10.032793 8.225469 -9.188868 0
M  V30 24 C 10.835453 7.082698 -9.837599 0 CFG=2
M  V30 25 H 13.370709 7.118088 -17.006525 0
M  V30 26 H 12.826488 5.800936 -15.974015 0
M  V30 27 H 11.742609 7.163646 -16.342077 0
M  V30 28 H 14.042644 8.777258 -12.822315 0
M  V30 29 H 12.932356 8.680543 -10.610958 0
M  V30 30 H 11.108130 6.031766 -14.398300 0
M  V30 31 H 10.053248 4.629852 -12.371241 0
M  V30 32 H 8.940028 5.836653 -12.976371 0
M  V30 33 H 8.394647 4.831024 -10.670519 0
M  V30 34 H 8.357953 6.573235 -10.762440 0
M  V30 35 H 10.611112 5.216826 -7.873042 0
M  V30 36 H 9.164655 4.428982 -8.466764 0
M  V30 37 H 8.456055 6.170687 -6.821155 0
M  V30 38 H 7.978073 6.534923 -8.449976 0
M  V30 39 H 7.659151 8.303870 -7.720121 0
M  V30 40 H 10.494894 5.973551 -5.860008 0
M  V30 41 H 11.687860 6.447992 -3.803212 0
M  V30 42 H 12.050347 10.572370 -4.976657 0
M  V30 43 H 10.853077 10.120256 -7.043560 0
M  V30 44 H 9.177428 8.449123 -9.828508 0
M  V30 45 H 10.620234 9.143674 -9.164059 0
M  V30 46 H 11.724757 6.971498 -9.217943 0
M  V30 47 H 10.752185 5.088821 -10.085147 0
M  V30 END ATOM
M  V30 BEGIN BOND
M  V30 1 1 2 1
M  V30 2 1 3 2
M  V30 3 1 4 3
M  V30 4 2 5 4
M  V30 5 1 6 5
M  V30 6 2 7 6
M  V30 7 2 8 3
M  V30 8 1 8 7
M  V30 9 1 9 7
M  V30 10 1 10 9
M  V30 11 1 11 10
M  V30 12 1 12 11
M  V30 13 1 13 12
M  V30 14 1 14 13
M  V30 15 1 14 15 CFG=1
M  V30 16 1 16 14
M  V30 17 1 17 16
M  V30 18 2 18 17
M  V30 19 1 19 18
M  V30 20 1 20 19
M  V30 21 2 21 19
M  V30 22 2 22 16
M  V30 23 1 22 21
M  V30 24 1 23 14
M  V30 25 1 24 6
M  V30 26 1 24 11
M  V30 27 1 24 23
M  V30 28 1 25 1
M  V30 29 1 26 1
M  V30 30 1 27 1
M  V30 31 1 28 4
M  V30 32 1 29 5
M  V30 33 1 30 8
M  V30 34 1 31 9
M  V30 35 1 32 9
M  V30 36 1 33 10
M  V30 37 1 34 10
M  V30 38 1 35 12
M  V30 39 1 36 12
M  V30 40 1 37 13
M  V30 41 1 38 13
M  V30 42 1 39 15
M  V30 43 1 40 17
M  V30 44 1 41 18
M  V30 45 1 42 21
M  V30 46 1 43 22
M  V30 47 1 44 23
M  V30 48 1 45 23
M  V30 49 1 24 46 CFG=1
M  V30 50 1 11 47 CFG=3
M  V30 END BOND
M  V30 END CTAB
M  END
>  <b_m_subgroup_collapsed>  (1539) 
0

>  <r_i_docking_score>  (1539) 
-7.0176818307021804

>  <s_m_subgroup_title>  (1539) 
glide-dock_SP_D22_pv

>  <s_m_subgroupid>  (1539) 
glide-dock_SP_D22_pv

>  <Molecule ChEMBL ID>  (1539) 
CHEMBL2335739

>  <Standard Type>  (1539) 
Ki

>  <Standard Value>  (1539) 
10000.0

>  <label>  (1539) 
0

$$$$
CHEMBL3590078
     RDKit          3D

  0  0  0  0  0  0  0  0  0  0999 V3000
M  V30 BEGIN CTAB
M  V30 COUNTS 59 61 0 0 1
M  V30 BEGIN ATOM
M  V30 1 C 3.062145 -0.790574 -14.061108 0
M  V30 2 O 4.449547 -0.537087 -14.135808 0
M  V30 3 C 5.014399 -0.498923 -15.393497 0
M  V30 4 C 4.429017 -1.155051 -16.508898 0
M  V30 5 C 5.036577 -1.100019 -17.773663 0
M  V30 6 C 6.238771 -0.393084 -17.942760 0
M  V30 7 C 6.830013 0.257679 -16.844006 0
M  V30 8 C 6.232287 0.212493 -15.561358 0
M  V30 9 N 6.826275 0.902426 -14.479203 0
M  V30 10 C 8.275196 1.050079 -14.394305 0
M  V30 11 C 8.682747 2.531337 -14.486975 0
M  V30 12 N 7.925529 3.372340 -13.519247 0 CHG=1
M  V30 13 C 8.386450 4.780995 -13.528708 0
M  V30 14 C 7.888483 5.604840 -12.323163 0
M  V30 15 C 8.326757 7.067736 -12.435514 0
M  V30 16 C 9.799344 7.333635 -12.050438 0
M  V30 17 N 10.064484 7.128906 -10.623782 0
M  V30 18 C 9.837481 8.039730 -9.663073 0
M  V30 19 O 9.285974 9.123914 -9.848063 0
M  V30 20 N 10.363829 7.645343 -8.313563 0
M  V30 21 N 10.348506 8.563330 -7.466138 0
M  V30 22 C 10.886147 8.289267 -6.183194 0
M  V30 23 C 11.137783 6.974859 -5.720109 0
M  V30 24 C 11.686022 6.769485 -4.440349 0
M  V30 25 C 11.983791 7.858932 -3.606605 0
M  V30 26 F 12.510430 7.649302 -2.376796 0
M  V30 27 C 11.711420 9.164738 -4.048648 0
M  V30 28 F 11.961202 10.205143 -3.225368 0
M  V30 29 C 11.172853 9.382223 -5.334537 0
M  V30 30 C 6.453912 3.220097 -13.685339 0
M  V30 31 C 6.015357 1.748557 -13.604300 0
M  V30 32 H 2.708614 -0.627865 -13.046214 0
M  V30 33 H 2.485546 -0.150025 -14.730912 0
M  V30 34 H 2.886023 -1.827725 -14.307826 0
M  V30 35 H 3.514704 -1.722956 -16.418596 0
M  V30 36 H 4.580303 -1.605729 -18.614031 0
M  V30 37 H 6.707223 -0.351111 -18.915064 0
M  V30 38 H 7.742891 0.807193 -17.011885 0
M  V30 39 H 8.599538 0.629182 -13.446849 0
M  V30 40 H 8.792825 0.460780 -15.150425 0
M  V30 41 H 9.754595 2.617030 -14.299223 0
M  V30 42 H 8.506901 2.900398 -15.499077 0
M  V30 43 H 9.476203 4.787152 -13.520931 0
M  V30 44 H 8.085976 5.249412 -14.467082 0
M  V30 45 H 6.800961 5.608191 -12.280847 0
M  V30 46 H 8.227273 5.172707 -11.381511 0
M  V30 47 H 8.086015 7.386051 -13.445571 0
M  V30 48 H 7.686306 7.709337 -11.846848 0
M  V30 49 H 10.467358 6.687120 -12.618392 0
M  V30 50 H 10.082384 8.352277 -12.317752 0
M  V30 51 H 10.499581 6.261357 -10.348282 0
M  V30 52 H 10.915824 6.117119 -6.336061 0
M  V30 53 H 11.882582 5.771905 -4.086999 0
M  V30 54 H 10.976487 10.392188 -5.666994 0
M  V30 55 H 5.910115 3.770913 -12.920156 0
M  V30 56 H 6.154223 3.637783 -14.646732 0
M  V30 57 H 4.955770 1.711449 -13.847074 0
M  V30 58 H 6.087055 1.377211 -12.581159 0
M  V30 59 H 8.151348 3.007117 -12.605097 0
M  V30 END ATOM
M  V30 BEGIN BOND
M  V30 1 1 2 1
M  V30 2 1 3 2
M  V30 3 2 4 3
M  V30 4 1 5 4
M  V30 5 2 6 5
M  V30 6 1 7 6
M  V30 7 1 8 3
M  V30 8 2 8 7
M  V30 9 1 9 8
M  V30 10 1 10 9
M  V30 11 1 11 10
M  V30 12 1 12 11
M  V30 13 1 13 12
M  V30 14 1 14 13
M  V30 15 1 15 14
M  V30 16 1 16 15
M  V30 17 1 17 16
M  V30 18 1 18 17
M  V30 19 2 19 18
M  V30 20 1 20 18
M  V30 21 2 21 20
M  V30 22 1 22 21
M  V30 23 1 23 22
M  V30 24 2 24 23
M  V30 25 1 25 24
M  V30 26 1 26 25
M  V30 27 2 27 25
M  V30 28 1 28 27
M  V30 29 2 29 22
M  V30 30 1 29 27
M  V30 31 1 30 12
M  V30 32 1 31 9
M  V30 33 1 31 30
M  V30 34 1 32 1
M  V30 35 1 33 1
M  V30 36 1 34 1
M  V30 37 1 35 4
M  V30 38 1 36 5
M  V30 39 1 37 6
M  V30 40 1 38 7
M  V30 41 1 39 10
M  V30 42 1 40 10
M  V30 43 1 41 11
M  V30 44 1 42 11
M  V30 45 1 43 13
M  V30 46 1 44 13
M  V30 47 1 45 14
M  V30 48 1 46 14
M  V30 49 1 47 15
M  V30 50 1 48 15
M  V30 51 1 49 16
M  V30 52 1 50 16
M  V30 53 1 51 17
M  V30 54 1 52 23
M  V30 55 1 53 24
M  V30 56 1 54 29
M  V30 57 1 55 30
M  V30 58 1 56 30
M  V30 59 1 57 31
M  V30 60 1 58 31
M  V30 61 1 59 12
M  V30 END BOND
M  V30 END CTAB
M  END
>  <b_m_subgroup_collapsed>  (1540) 
0

>  <r_i_docking_score>  (1540) 
-7.0170749654463496

>  <s_m_subgroup_title>  (1540) 
glide-dock_SP_D22_pv

>  <s_m_subgroupid>  (1540) 
glide-dock_SP_D22_pv

>  <Molecule ChEMBL ID>  (1540) 
CHEMBL3590078

>  <Standard Type>  (1540) 
Ki

>  <Standard Value>  (1540) 
7.5

>  <label>  (1540) 
1

$$$$
CHEMBL90374
     RDKit          3D

  0  0  0  0  0  0  0  0  0  0999 V3000
M  V30 BEGIN CTAB
M  V30 COUNTS 42 45 0 0 1
M  V30 BEGIN ATOM
M  V30 1 Cl 12.087089 9.361347 -2.633620 0
M  V30 2 C 11.696333 8.805603 -4.211929 0
M  V30 3 C 11.405657 9.731109 -5.229227 0
M  V30 4 C 11.084032 9.273790 -6.517624 0
M  V30 5 C 11.012390 7.891616 -6.797194 0
M  V30 6 N 10.664842 7.464413 -8.088402 0
M  V30 7 C 11.343720 8.030889 -9.244514 0
M  V30 8 C 10.355968 8.096436 -10.416207 0
M  V30 9 N 9.847008 6.758928 -10.744020 0
M  V30 10 C 8.904181 6.939813 -11.845956 0
M  V30 11 C 8.331402 5.667305 -12.444638 0
M  V30 12 C 7.000072 5.359456 -12.257403 0
M  V30 13 C 6.428289 4.222131 -12.881757 0
M  V30 14 C 7.196016 3.407639 -13.683674 0
M  V30 15 N 8.516445 3.700023 -13.846884 0
M  V30 16 N 9.405275 2.978054 -14.602636 0
M  V30 17 C 10.540079 3.627157 -14.463970 0
M  V30 18 C 10.447645 4.781455 -13.648107 0
M  V30 19 C 9.138313 4.816472 -13.248466 0
M  V30 20 C 9.151398 6.216222 -9.565974 0
M  V30 21 C 10.077480 6.152915 -8.332123 0
M  V30 22 C 11.285968 6.971397 -5.760495 0
M  V30 23 C 11.653546 7.425059 -4.479197 0
M  V30 24 H 11.423739 10.791279 -5.029767 0
M  V30 25 H 10.869837 9.997481 -7.285962 0
M  V30 26 H 12.191331 7.396535 -9.506614 0
M  V30 27 H 11.747264 9.022525 -9.044051 0
M  V30 28 H 10.861222 8.519339 -11.284383 0
M  V30 29 H 9.530958 8.767112 -10.166367 0
M  V30 30 H 9.418629 7.467000 -12.646661 0
M  V30 31 H 8.086400 7.592503 -11.538222 0
M  V30 32 H 6.382806 6.001854 -11.634209 0
M  V30 33 H 5.378532 3.993452 -12.728839 0
M  V30 34 H 6.817473 2.525591 -14.188980 0
M  V30 35 H 11.424106 3.256479 -14.963358 0
M  V30 36 H 11.235511 5.472560 -13.388784 0
M  V30 37 H 8.288923 6.836974 -9.325367 0
M  V30 38 H 8.767784 5.219672 -9.786670 0
M  V30 39 H 10.870066 5.420810 -8.485788 0
M  V30 40 H 9.497079 5.828246 -7.467964 0
M  V30 41 H 11.251198 5.908626 -5.944279 0
M  V30 42 H 11.873642 6.712279 -3.697875 0
M  V30 END ATOM
M  V30 BEGIN BOND
M  V30 1 1 2 1
M  V30 2 1 3 2
M  V30 3 2 4 3
M  V30 4 1 5 4
M  V30 5 1 6 5
M  V30 6 1 7 6
M  V30 7 1 8 7
M  V30 8 1 9 8
M  V30 9 1 10 9
M  V30 10 1 11 10
M  V30 11 2 12 11
M  V30 12 1 13 12
M  V30 13 2 14 13
M  V30 14 1 15 14
M  V30 15 1 16 15
M  V30 16 2 17 16
M  V30 17 1 18 17
M  V30 18 1 19 11
M  V30 19 1 19 15
M  V30 20 2 19 18
M  V30 21 1 20 9
M  V30 22 1 21 6
M  V30 23 1 21 20
M  V30 24 2 22 5
M  V30 25 2 23 2
M  V30 26 1 23 22
M  V30 27 1 24 3
M  V30 28 1 25 4
M  V30 29 1 26 7
M  V30 30 1 27 7
M  V30 31 1 28 8
M  V30 32 1 29 8
M  V30 33 1 30 10
M  V30 34 1 31 10
M  V30 35 1 32 12
M  V30 36 1 33 13
M  V30 37 1 34 14
M  V30 38 1 35 17
M  V30 39 1 36 18
M  V30 40 1 37 20
M  V30 41 1 38 20
M  V30 42 1 39 21
M  V30 43 1 40 21
M  V30 44 1 41 22
M  V30 45 1 42 23
M  V30 END BOND
M  V30 END CTAB
M  END
>  <b_m_subgroup_collapsed>  (1541) 
0

>  <r_i_docking_score>  (1541) 
-7.0167141874225001

>  <s_m_subgroup_title>  (1541) 
glide-dock_SP_D22_pv

>  <s_m_subgroupid>  (1541) 
glide-dock_SP_D22_pv

>  <Molecule ChEMBL ID>  (1541) 
CHEMBL90374

>  <Standard Type>  (1541) 
Ki

>  <Standard Value>  (1541) 
16000.0

>  <label>  (1541) 
0

$$$$
CHEMBL419760
     RDKit          3D

  0  0  0  0  0  0  0  0  0  0999 V3000
M  V30 BEGIN CTAB
M  V30 COUNTS 56 59 0 0 1
M  V30 BEGIN ATOM
M  V30 1 C 7.580876 1.516229 -16.196043 0
M  V30 2 C 8.735151 1.029523 -17.083868 0
M  V30 3 S 10.291960 0.758701 -16.130163 0
M  V30 4 O 11.285881 0.200835 -17.060246 0
M  V30 5 O 9.955281 0.032921 -14.898929 0
M  V30 6 C 10.829220 2.400191 -15.648126 0
M  V30 7 C 11.857486 3.044526 -16.354113 0
M  V30 8 C 12.254250 4.339683 -15.971029 0
M  V30 9 C 11.605170 5.019816 -14.906348 0
M  V30 10 O 11.959306 6.302203 -14.527256 0
M  V30 11 C 13.009227 6.962209 -15.222693 0
M  V30 12 C 10.537362 4.374256 -14.218644 0
M  V30 13 C 9.741204 5.022000 -13.168322 0
M  V30 14 C 8.518250 4.712675 -12.635702 0
M  V30 15 C 8.186604 5.710330 -11.677008 0
M  V30 16 C 9.222180 6.600774 -11.604097 0
M  V30 17 C 9.417710 7.836634 -10.781620 0
M  V30 18 N 9.929973 7.561064 -9.413472 0 CFG=2 CHG=1
M  V30 19 C 9.021076 6.751780 -8.564784 0
M  V30 20 C 9.783551 6.233247 -7.342891 0
M  V30 21 C 10.538583 7.334918 -6.624990 0
M  V30 22 C 10.996020 7.120212 -5.309877 0
M  V30 23 C 11.686020 8.138625 -4.624335 0
M  V30 24 C 11.924317 9.372592 -5.258117 0
M  V30 25 C 11.488859 9.580760 -6.579656 0
M  V30 26 C 10.799562 8.564974 -7.275660 0
M  V30 27 C 10.317555 8.807316 -8.705097 0
M  V30 28 N 10.154694 6.172492 -12.525321 0
M  V30 29 C 10.185045 3.055959 -14.586117 0
M  V30 30 H 6.652832 1.571710 -16.763914 0
M  V30 31 H 7.416500 0.835890 -15.360905 0
M  V30 32 H 7.771786 2.508719 -15.792087 0
M  V30 33 H 8.947838 1.728321 -17.890562 0
M  V30 34 H 8.473865 0.072902 -17.534988 0
M  V30 35 H 12.355674 2.547626 -17.173952 0
M  V30 36 H 13.059664 4.795962 -16.526001 0
M  V30 37 H 13.159398 7.953744 -14.792614 0
M  V30 38 H 13.950551 6.419825 -15.130624 0
M  V30 39 H 12.769312 7.099531 -16.277483 0
M  V30 40 H 7.903448 3.871474 -12.920078 0
M  V30 41 H 7.278513 5.769207 -11.090927 0
M  V30 42 H 8.486966 8.398536 -10.716630 0
M  V30 43 H 10.120028 8.492404 -11.295355 0
M  V30 44 H 8.599999 5.898836 -9.092310 0
M  V30 45 H 8.183891 7.369429 -8.243096 0
M  V30 46 H 10.494453 5.465509 -7.648180 0
M  V30 47 H 9.079734 5.774236 -6.648295 0
M  V30 48 H 10.813852 6.172628 -4.818980 0
M  V30 49 H 12.028687 7.972835 -3.612114 0
M  V30 50 H 12.452319 10.156394 -4.737060 0
M  V30 51 H 11.684393 10.533281 -7.045538 0
M  V30 52 H 9.451325 9.468499 -8.661093 0
M  V30 53 H 11.096182 9.327746 -9.267154 0
M  V30 54 H 11.020812 6.643135 -12.759445 0
M  V30 55 H 9.393434 2.539515 -14.064941 0
M  V30 56 H 10.767341 7.011561 -9.531634 0
M  V30 END ATOM
M  V30 BEGIN BOND
M  V30 1 1 2 1
M  V30 2 1 3 2
M  V30 3 2 4 3
M  V30 4 2 5 3
M  V30 5 1 6 3
M  V30 6 1 7 6
M  V30 7 2 8 7
M  V30 8 1 9 8
M  V30 9 1 10 9
M  V30 10 1 11 10
M  V30 11 2 12 9
M  V30 12 1 13 12
M  V30 13 2 14 13
M  V30 14 1 15 14
M  V30 15 2 16 15
M  V30 16 1 17 16
M  V30 17 1 18 17
M  V30 18 1 19 18
M  V30 19 1 20 19
M  V30 20 1 21 20
M  V30 21 2 22 21
M  V30 22 1 23 22
M  V30 23 2 24 23
M  V30 24 1 25 24
M  V30 25 1 26 21
M  V30 26 2 26 25
M  V30 27 1 27 18
M  V30 28 1 27 26
M  V30 29 1 28 13
M  V30 30 1 28 16
M  V30 31 2 29 6
M  V30 32 1 29 12
M  V30 33 1 30 1
M  V30 34 1 31 1
M  V30 35 1 32 1
M  V30 36 1 33 2
M  V30 37 1 34 2
M  V30 38 1 35 7
M  V30 39 1 36 8
M  V30 40 1 37 11
M  V30 41 1 38 11
M  V30 42 1 39 11
M  V30 43 1 40 14
M  V30 44 1 41 15
M  V30 45 1 42 17
M  V30 46 1 43 17
M  V30 47 1 44 19
M  V30 48 1 45 19
M  V30 49 1 46 20
M  V30 50 1 47 20
M  V30 51 1 48 22
M  V30 52 1 49 23
M  V30 53 1 50 24
M  V30 54 1 51 25
M  V30 55 1 52 27
M  V30 56 1 53 27
M  V30 57 1 54 28
M  V30 58 1 55 29
M  V30 59 1 18 56 CFG=3
M  V30 END BOND
M  V30 END CTAB
M  END
>  <b_m_subgroup_collapsed>  (1542) 
0

>  <r_i_docking_score>  (1542) 
-7.0156771302260497

>  <s_m_subgroup_title>  (1542) 
glide-dock_SP_D22_pv

>  <s_m_subgroupid>  (1542) 
glide-dock_SP_D22_pv

>  <Molecule ChEMBL ID>  (1542) 
CHEMBL419760

>  <Standard Type>  (1542) 
Ki

>  <Standard Value>  (1542) 
100.0

>  <label>  (1542) 
1

$$$$
CHEMBL105512
     RDKit          3D

  0  0  0  0  0  0  0  0  0  0999 V3000
M  V30 BEGIN CTAB
M  V30 COUNTS 41 42 0 0 1
M  V30 BEGIN ATOM
M  V30 1 C 11.759558 8.883971 -10.248424 0
M  V30 2 C 10.732726 7.768204 -10.481349 0
M  V30 3 C 9.473208 7.817894 -9.582153 0
M  V30 4 N 9.579579 7.093820 -8.272649 0 CHG=1
M  V30 5 C 9.707857 5.613851 -8.430404 0
M  V30 6 C 8.581570 4.957510 -9.255140 0
M  V30 7 C 8.963536 4.626759 -10.707053 0
M  V30 8 C 10.553527 7.693449 -7.291458 0 CFG=1
M  V30 9 C 10.288592 9.209238 -7.063508 0
M  V30 10 C 11.276901 9.908723 -6.115765 0
M  V30 11 C 11.562134 9.066262 -4.923666 0
M  V30 12 N 12.114663 9.607387 -3.768300 0
M  V30 13 C 12.338174 8.680587 -2.842869 0
M  V30 14 N 12.882519 8.969839 -1.607055 0
M  V30 15 S 11.894853 7.049416 -3.347176 0
M  V30 16 C 11.309467 7.724570 -4.853343 0
M  V30 17 C 10.619995 6.940250 -5.924070 0
M  V30 18 H 12.501531 8.892205 -11.045933 0
M  V30 19 H 11.286053 9.861529 -10.237721 0
M  V30 20 H 12.311335 8.775203 -9.318775 0
M  V30 21 H 11.224212 6.799182 -10.436073 0
M  V30 22 H 10.393646 7.867728 -11.513518 0
M  V30 23 H 8.650420 7.384212 -10.143805 0
M  V30 24 H 9.129270 8.841589 -9.452114 0
M  V30 25 H 10.689723 5.341536 -8.811303 0
M  V30 26 H 9.642427 5.160712 -7.447762 0
M  V30 27 H 8.295207 4.022732 -8.769953 0
M  V30 28 H 7.686365 5.579206 -9.230102 0
M  V30 29 H 8.119297 4.172919 -11.225627 0
M  V30 30 H 9.248137 5.508959 -11.276299 0
M  V30 31 H 9.796184 3.925386 -10.749009 0
M  V30 32 H 11.550102 7.592319 -7.716927 0
M  V30 33 H 10.307928 9.771782 -7.989604 0
M  V30 34 H 9.285810 9.305993 -6.656060 0
M  V30 35 H 10.885824 10.882923 -5.819448 0
M  V30 36 H 12.210623 10.101265 -6.645337 0
M  V30 37 H 13.279926 9.894187 -1.447578 0
M  V30 38 H 13.155365 8.239250 -0.968995 0
M  V30 39 H 11.146611 5.994380 -6.044272 0
M  V30 40 H 9.613044 6.702041 -5.579604 0
M  V30 41 H 8.664685 7.220584 -7.854821 0
M  V30 END ATOM
M  V30 BEGIN BOND
M  V30 1 1 2 1
M  V30 2 1 3 2
M  V30 3 1 4 3
M  V30 4 1 5 4
M  V30 5 1 6 5
M  V30 6 1 7 6
M  V30 7 1 8 4
M  V30 8 1 9 8
M  V30 9 1 10 9
M  V30 10 1 11 10
M  V30 11 1 12 11
M  V30 12 2 13 12
M  V30 13 1 14 13
M  V30 14 1 15 13
M  V30 15 2 16 11
M  V30 16 1 16 15
M  V30 17 1 17 8
M  V30 18 1 17 16
M  V30 19 1 18 1
M  V30 20 1 19 1
M  V30 21 1 20 1
M  V30 22 1 21 2
M  V30 23 1 22 2
M  V30 24 1 23 3
M  V30 25 1 24 3
M  V30 26 1 25 5
M  V30 27 1 26 5
M  V30 28 1 27 6
M  V30 29 1 28 6
M  V30 30 1 29 7
M  V30 31 1 30 7
M  V30 32 1 31 7
M  V30 33 1 8 32 CFG=3
M  V30 34 1 33 9
M  V30 35 1 34 9
M  V30 36 1 35 10
M  V30 37 1 36 10
M  V30 38 1 37 14
M  V30 39 1 38 14
M  V30 40 1 39 17
M  V30 41 1 40 17
M  V30 42 1 41 4
M  V30 END BOND
M  V30 END CTAB
M  END
>  <b_m_subgroup_collapsed>  (1543) 
0

>  <r_i_docking_score>  (1543) 
-7.0144344803756704

>  <s_m_subgroup_title>  (1543) 
glide-dock_SP_D22_pv

>  <s_m_subgroupid>  (1543) 
glide-dock_SP_D22_pv

>  <Molecule ChEMBL ID>  (1543) 
CHEMBL105512

>  <Standard Type>  (1543) 
Ki

>  <Standard Value>  (1543) 
57.0

>  <label>  (1543) 
1

$$$$
CHEMBL563563
     RDKit          3D

  0  0  0  0  0  0  0  0  0  0999 V3000
M  V30 BEGIN CTAB
M  V30 COUNTS 57 60 0 0 1
M  V30 BEGIN ATOM
M  V30 1 C 5.236441 4.061345 -13.712633 0
M  V30 2 C 6.440483 4.245497 -12.790474 0
M  V30 3 C 6.142826 3.372628 -11.562307 0
M  V30 4 C 6.575883 5.736025 -12.348350 0
M  V30 5 C 8.032988 6.215481 -12.176078 0 CFG=2
M  V30 6 C 8.820151 5.905474 -13.446025 0
M  V30 7 C 9.014370 4.415266 -13.318087 0 CFG=1
M  V30 8 C 10.105206 3.869735 -14.258817 0
M  V30 9 C 9.427197 4.345036 -11.857244 0
M  V30 10 N 8.703845 5.413289 -11.127725 0 CFG=1 CHG=1
M  V30 11 C 9.613254 6.150300 -10.218998 0
M  V30 12 C 8.915806 7.205310 -9.359086 0
M  V30 13 N 9.878967 7.833475 -8.469500 0
M  V30 14 C 10.657432 8.968623 -8.917608 0
M  V30 15 C 11.455597 9.327769 -7.671079 0
M  V30 16 N 10.984775 8.376304 -6.676739 0
M  V30 17 C 11.315091 8.499500 -5.303043 0
M  V30 18 C 11.310909 9.772298 -4.694751 0
M  V30 19 C 11.685905 9.912831 -3.348494 0
M  V30 20 C 12.086330 8.800799 -2.598589 0
M  V30 21 C 12.069895 7.532289 -3.193519 0
M  V30 22 Cl 12.485947 6.174923 -2.246907 0
M  V30 23 C 11.686006 7.371068 -4.537538 0
M  V30 24 C 10.096419 7.509447 -7.190402 0
M  V30 25 O 9.563256 6.575195 -6.598815 0
M  V30 26 C 7.672831 3.711220 -13.583525 0
M  V30 27 H 4.285835 4.172430 -13.193585 0
M  V30 28 H 5.244744 4.753541 -14.549321 0
M  V30 29 H 5.281869 3.054772 -14.127945 0
M  V30 30 H 5.242465 3.709061 -11.056671 0
M  V30 31 H 5.977918 2.333083 -11.845667 0
M  V30 32 H 6.926507 3.394563 -10.813952 0
M  V30 33 H 6.080716 6.401673 -13.048186 0
M  V30 34 H 6.018955 5.898234 -11.427848 0
M  V30 35 H 8.043606 7.284612 -11.969024 0
M  V30 36 H 9.793625 6.399123 -13.421644 0
M  V30 37 H 8.299194 6.172488 -14.360534 0
M  V30 38 H 11.058649 4.379453 -14.113018 0
M  V30 39 H 10.273802 2.805415 -14.088851 0
M  V30 40 H 9.825940 3.997567 -15.305406 0
M  V30 41 H 10.486027 4.533699 -11.811684 0
M  V30 42 H 9.284964 3.371957 -11.446908 0
M  V30 43 H 10.407597 6.619056 -10.802552 0
M  V30 44 H 10.090340 5.422682 -9.559929 0
M  V30 45 H 8.099426 6.751613 -8.792463 0
M  V30 46 H 8.486639 7.995552 -9.970943 0
M  V30 47 H 11.309474 8.700245 -9.749992 0
M  V30 48 H 9.996555 9.772251 -9.238193 0
M  V30 49 H 11.286038 10.356834 -7.368196 0
M  V30 50 H 12.526091 9.187522 -7.829944 0
M  V30 51 H 11.015566 10.654075 -5.242622 0
M  V30 52 H 11.685933 10.887927 -2.885764 0
M  V30 53 H 12.375517 8.919582 -1.564240 0
M  V30 54 H 11.687151 6.382865 -4.975646 0
M  V30 55 H 7.479262 3.822205 -14.646943 0
M  V30 56 H 7.779387 2.635014 -13.449210 0
M  V30 57 H 7.969776 5.003719 -10.564791 0
M  V30 END ATOM
M  V30 BEGIN BOND
M  V30 1 1 2 1
M  V30 2 1 3 2
M  V30 3 1 4 2
M  V30 4 1 5 4
M  V30 5 1 6 5
M  V30 6 1 7 6
M  V30 7 1 7 8 CFG=3
M  V30 8 1 9 7
M  V30 9 1 10 5
M  V30 10 1 10 9
M  V30 11 1 11 10
M  V30 12 1 12 11
M  V30 13 1 13 12
M  V30 14 1 14 13
M  V30 15 1 15 14
M  V30 16 1 16 15
M  V30 17 1 17 16
M  V30 18 2 18 17
M  V30 19 1 19 18
M  V30 20 2 20 19
M  V30 21 1 21 20
M  V30 22 1 22 21
M  V30 23 1 23 17
M  V30 24 2 23 21
M  V30 25 1 24 13
M  V30 26 1 24 16
M  V30 27 2 25 24
M  V30 28 1 26 2
M  V30 29 1 26 7
M  V30 30 1 27 1
M  V30 31 1 28 1
M  V30 32 1 29 1
M  V30 33 1 30 3
M  V30 34 1 31 3
M  V30 35 1 32 3
M  V30 36 1 33 4
M  V30 37 1 34 4
M  V30 38 1 5 35 CFG=1
M  V30 39 1 36 6
M  V30 40 1 37 6
M  V30 41 1 38 8
M  V30 42 1 39 8
M  V30 43 1 40 8
M  V30 44 1 41 9
M  V30 45 1 42 9
M  V30 46 1 43 11
M  V30 47 1 44 11
M  V30 48 1 45 12
M  V30 49 1 46 12
M  V30 50 1 47 14
M  V30 51 1 48 14
M  V30 52 1 49 15
M  V30 53 1 50 15
M  V30 54 1 51 18
M  V30 55 1 52 19
M  V30 56 1 53 20
M  V30 57 1 54 23
M  V30 58 1 55 26
M  V30 59 1 56 26
M  V30 60 1 10 57 CFG=1
M  V30 END BOND
M  V30 END CTAB
M  END
>  <b_m_subgroup_collapsed>  (1544) 
0

>  <r_i_docking_score>  (1544) 
-7.01415920676342

>  <s_m_subgroup_title>  (1544) 
glide-dock_SP_D22_pv

>  <s_m_subgroupid>  (1544) 
glide-dock_SP_D22_pv

>  <Molecule ChEMBL ID>  (1544) 
CHEMBL563563

>  <Standard Type>  (1544) 
Ki

>  <Standard Value>  (1544) 
100.0

>  <label>  (1544) 
1

$$$$
CHEMBL113524
     RDKit          3D

  0  0  0  0  0  0  0  0  0  0999 V3000
M  V30 BEGIN CTAB
M  V30 COUNTS 65 68 0 0 1
M  V30 BEGIN ATOM
M  V30 1 C 13.745652 8.172327 -9.446890 0
M  V30 2 C 12.413549 7.772275 -8.837427 0
M  V30 3 N 11.445558 8.879362 -8.785825 0 CFG=1 CHG=1
M  V30 4 C 10.896471 9.254362 -10.112096 0
M  V30 5 C 10.220664 8.204288 -10.995035 0
M  V30 6 C 8.905061 8.140510 -11.358278 0
M  V30 7 C 8.693665 6.992941 -12.169849 0
M  V30 8 C 9.905754 6.417121 -12.419840 0
M  V30 9 C 10.231584 5.302103 -13.330857 0
M  V30 10 C 9.243541 4.310518 -13.576903 0
M  V30 11 C 9.424043 3.337317 -14.585731 0
M  V30 12 S 8.111200 2.189734 -15.035688 0
M  V30 13 O 6.919405 2.534256 -14.245631 0
M  V30 14 O 8.029198 2.174337 -16.505125 0
M  V30 15 C 8.675413 0.518044 -14.507767 0
M  V30 16 C 9.893532 0.020543 -15.295121 0
M  V30 17 C 10.621444 3.296062 -15.313217 0
M  V30 18 C 11.627498 4.234370 -15.048012 0
M  V30 19 C 11.431526 5.266836 -14.093367 0
M  V30 20 O 12.351421 6.278630 -13.925700 0
M  V30 21 C 13.288815 6.477942 -14.976609 0
M  V30 22 N 10.836787 7.173042 -11.707623 0
M  V30 23 C 10.443370 8.807632 -7.681860 0 CFG=1
M  V30 24 C 9.340245 7.771836 -8.001334 0
M  V30 25 C 8.682950 7.203846 -6.763400 0
M  V30 26 C 9.753503 6.572561 -5.881570 0
M  V30 27 C 10.843650 7.530712 -5.490769 0
M  V30 28 C 11.541793 7.315864 -4.284827 0
M  V30 29 C 12.486045 8.253900 -3.846660 0
M  V30 30 C 12.761501 9.374978 -4.646682 0
M  V30 31 C 12.085225 9.578298 -5.867321 0
M  V30 32 C 11.127804 8.641696 -6.313940 0
M  V30 33 H 14.472749 7.372284 -9.446840 0
M  V30 34 H 13.642891 8.521524 -10.475145 0
M  V30 35 H 14.176939 8.972256 -8.849458 0
M  V30 36 H 12.615552 7.371305 -7.847931 0
M  V30 37 H 11.976734 6.972347 -9.413372 0
M  V30 38 H 10.161597 10.011367 -9.846840 0
M  V30 39 H 11.687758 9.768606 -10.647904 0
M  V30 40 H 8.142969 8.841226 -11.047884 0
M  V30 41 H 7.748699 6.669973 -12.581626 0
M  V30 42 H 8.306577 4.340559 -13.038472 0
M  V30 43 H 8.884775 0.553275 -13.446880 0
M  V30 44 H 7.838114 -0.164981 -14.657399 0
M  V30 45 H 10.080338 -1.028617 -15.084129 0
M  V30 46 H 9.740329 0.114595 -16.370184 0
M  V30 47 H 10.797787 0.562393 -15.021650 0
M  V30 48 H 10.760855 2.567598 -16.097012 0
M  V30 49 H 12.528092 4.164843 -15.638371 0
M  V30 50 H 13.859954 7.372807 -14.770143 0
M  V30 51 H 14.004272 5.658028 -15.049678 0
M  V30 52 H 12.794925 6.614283 -15.940533 0
M  V30 53 H 11.831379 7.001817 -11.753764 0
M  V30 54 H 9.943686 9.772137 -7.607423 0
M  V30 55 H 9.753117 6.925751 -8.552468 0
M  V30 56 H 8.576244 8.211165 -8.642855 0
M  V30 57 H 7.946889 6.451251 -7.047048 0
M  V30 58 H 8.147358 7.999810 -6.247415 0
M  V30 59 H 10.233813 5.771910 -6.433473 0
M  V30 60 H 9.298327 6.172313 -4.982001 0
M  V30 61 H 11.320201 6.452604 -3.673504 0
M  V30 62 H 13.001055 8.106717 -2.908681 0
M  V30 63 H 13.504222 10.091379 -4.325277 0
M  V30 64 H 12.325781 10.445734 -6.462962 0
M  V30 65 H 12.013124 9.669327 -8.519867 0
M  V30 END ATOM
M  V30 BEGIN BOND
M  V30 1 1 2 1
M  V30 2 1 3 2
M  V30 3 1 4 3
M  V30 4 1 5 4
M  V30 5 2 6 5
M  V30 6 1 7 6
M  V30 7 2 8 7
M  V30 8 1 9 8
M  V30 9 1 10 9
M  V30 10 2 11 10
M  V30 11 1 12 11
M  V30 12 2 13 12
M  V30 13 2 14 12
M  V30 14 1 15 12
M  V30 15 1 16 15
M  V30 16 1 17 11
M  V30 17 2 18 17
M  V30 18 2 19 9
M  V30 19 1 19 18
M  V30 20 1 20 19
M  V30 21 1 21 20
M  V30 22 1 22 5
M  V30 23 1 22 8
M  V30 24 1 23 3
M  V30 25 1 24 23
M  V30 26 1 25 24
M  V30 27 1 26 25
M  V30 28 1 27 26
M  V30 29 2 28 27
M  V30 30 1 29 28
M  V30 31 2 30 29
M  V30 32 1 31 30
M  V30 33 1 32 23
M  V30 34 1 32 27
M  V30 35 2 32 31
M  V30 36 1 33 1
M  V30 37 1 34 1
M  V30 38 1 35 1
M  V30 39 1 36 2
M  V30 40 1 37 2
M  V30 41 1 38 4
M  V30 42 1 39 4
M  V30 43 1 40 6
M  V30 44 1 41 7
M  V30 45 1 42 10
M  V30 46 1 43 15
M  V30 47 1 44 15
M  V30 48 1 45 16
M  V30 49 1 46 16
M  V30 50 1 47 16
M  V30 51 1 48 17
M  V30 52 1 49 18
M  V30 53 1 50 21
M  V30 54 1 51 21
M  V30 55 1 52 21
M  V30 56 1 53 22
M  V30 57 1 23 54 CFG=1
M  V30 58 1 55 24
M  V30 59 1 56 24
M  V30 60 1 57 25
M  V30 61 1 58 25
M  V30 62 1 59 26
M  V30 63 1 60 26
M  V30 64 1 61 28
M  V30 65 1 62 29
M  V30 66 1 63 30
M  V30 67 1 64 31
M  V30 68 1 3 65 CFG=1
M  V30 END BOND
M  V30 END CTAB
M  END
>  <b_m_subgroup_collapsed>  (1545) 
0

>  <r_i_docking_score>  (1545) 
-7.01271376467664

>  <s_m_subgroup_title>  (1545) 
glide-dock_SP_D22_pv

>  <s_m_subgroupid>  (1545) 
glide-dock_SP_D22_pv

>  <Molecule ChEMBL ID>  (1545) 
CHEMBL113524

>  <Standard Type>  (1545) 
Ki

>  <Standard Value>  (1545) 
12.59

>  <label>  (1545) 
1

$$$$
CHEMBL381912
     RDKit          3D

  0  0  0  0  0  0  0  0  0  0999 V3000
M  V30 BEGIN CTAB
M  V30 COUNTS 46 50 0 0 1
M  V30 BEGIN ATOM
M  V30 1 C 6.485946 2.846709 -13.724716 0
M  V30 2 C 7.837948 3.071582 -14.044368 0
M  V30 3 C 8.523934 4.159367 -13.471416 0
M  V30 4 C 7.860721 5.036918 -12.584696 0
M  V30 5 C 8.565557 6.311092 -12.126182 0 CFG=1
M  V30 6 C 7.796789 7.530798 -12.646548 0
M  V30 7 C 8.486020 8.862921 -12.246898 0
M  V30 8 C 8.910923 8.886170 -10.766869 0
M  V30 9 C 9.714751 7.637053 -10.432093 0 CFG=1
M  V30 10 C 10.241008 7.701625 -9.045020 0
M  V30 11 N 10.884772 8.800863 -8.506949 0
M  V30 12 C 11.178753 8.582285 -7.180667 0
M  V30 13 C 11.755661 9.412847 -6.201890 0
M  V30 14 C 11.954353 8.917001 -4.902197 0
M  V30 15 C 11.586964 7.590919 -4.606777 0
M  V30 16 C 10.991318 6.774984 -5.592163 0
M  V30 17 C 10.763154 7.241255 -6.908964 0
M  V30 18 C 10.181409 6.705561 -8.123811 0
M  V30 19 C 9.536493 5.392896 -8.470045 0
M  V30 20 C 9.257683 5.215213 -9.979483 0
M  V30 21 N 8.823048 6.458658 -10.662641 0 CFG=2 CHG=1
M  V30 22 C 6.511488 4.789281 -12.246931 0
M  V30 23 C 5.827350 3.698096 -12.817041 0
M  V30 24 H 5.958443 2.013801 -14.165995 0
M  V30 25 H 8.346706 2.413333 -14.733490 0
M  V30 26 H 9.552512 4.334448 -13.751632 0
M  V30 27 H 9.539916 6.305357 -12.618172 0
M  V30 28 H 7.686005 7.372325 -13.713834 0
M  V30 29 H 6.783630 7.535778 -12.246866 0
M  V30 30 H 9.365557 9.010839 -12.870144 0
M  V30 31 H 7.821218 9.697042 -12.453771 0
M  V30 32 H 9.434409 9.772054 -10.463078 0
M  V30 33 H 8.086027 8.972340 -10.085456 0
M  V30 34 H 10.579375 7.570879 -11.094945 0
M  V30 35 H 11.071062 9.647509 -9.024433 0
M  V30 36 H 12.050860 10.422398 -6.445448 0
M  V30 37 H 12.400346 9.541591 -4.141291 0
M  V30 38 H 11.745695 7.198312 -3.612580 0
M  V30 39 H 10.702031 5.772367 -5.326592 0
M  V30 40 H 10.207199 4.572330 -8.246857 0
M  V30 41 H 8.621235 5.257665 -7.891939 0
M  V30 42 H 10.142019 4.851480 -10.490409 0
M  V30 43 H 8.504591 4.436398 -10.095725 0
M  V30 44 H 5.985939 5.451869 -11.572673 0
M  V30 45 H 4.791515 3.521889 -12.571097 0
M  V30 46 H 7.929148 6.722988 -10.247185 0
M  V30 END ATOM
M  V30 BEGIN BOND
M  V30 1 2 2 1
M  V30 2 1 3 2
M  V30 3 2 4 3
M  V30 4 1 5 4
M  V30 5 1 6 5
M  V30 6 1 7 6
M  V30 7 1 8 7
M  V30 8 1 9 8
M  V30 9 1 10 9
M  V30 10 1 11 10
M  V30 11 1 12 11
M  V30 12 2 13 12
M  V30 13 1 14 13
M  V30 14 2 15 14
M  V30 15 1 16 15
M  V30 16 1 17 12
M  V30 17 2 17 16
M  V30 18 2 18 10
M  V30 19 1 18 17
M  V30 20 1 19 18
M  V30 21 1 20 19
M  V30 22 1 21 5
M  V30 23 1 21 9
M  V30 24 1 21 20
M  V30 25 1 22 4
M  V30 26 1 23 1
M  V30 27 2 23 22
M  V30 28 1 24 1
M  V30 29 1 25 2
M  V30 30 1 26 3
M  V30 31 1 5 27 CFG=3
M  V30 32 1 28 6
M  V30 33 1 29 6
M  V30 34 1 30 7
M  V30 35 1 31 7
M  V30 36 1 32 8
M  V30 37 1 33 8
M  V30 38 1 9 34 CFG=3
M  V30 39 1 35 11
M  V30 40 1 36 13
M  V30 41 1 37 14
M  V30 42 1 38 15
M  V30 43 1 39 16
M  V30 44 1 40 19
M  V30 45 1 41 19
M  V30 46 1 42 20
M  V30 47 1 43 20
M  V30 48 1 44 22
M  V30 49 1 45 23
M  V30 50 1 21 46 CFG=1
M  V30 END BOND
M  V30 END CTAB
M  END
>  <b_m_subgroup_collapsed>  (1546) 
0

>  <r_i_docking_score>  (1546) 
-7.0123092833475802

>  <s_m_subgroup_title>  (1546) 
glide-dock_SP_D22_pv

>  <s_m_subgroupid>  (1546) 
glide-dock_SP_D22_pv

>  <Molecule ChEMBL ID>  (1546) 
CHEMBL381912

>  <Standard Type>  (1546) 
Ki

>  <Standard Value>  (1546) 
10000.0

>  <label>  (1546) 
0

$$$$
CHEMBL5278957
     RDKit          3D

  0  0  0  0  0  0  0  0  0  0999 V3000
M  V30 BEGIN CTAB
M  V30 COUNTS 45 47 0 0 1
M  V30 BEGIN ATOM
M  V30 1 C 9.382075 3.662480 -14.578494 0
M  V30 2 C 8.671978 4.172235 -13.310578 0
M  V30 3 C 7.151370 3.961478 -13.446784 0
M  V30 4 N 9.004939 5.597689 -13.027902 0 CFG=2 CHG=1
M  V30 5 C 10.452953 5.887537 -12.890024 0
M  V30 6 C 10.543077 7.273823 -12.234455 0 CFG=2
M  V30 7 C 11.860293 7.621573 -11.504272 0
M  V30 8 C 9.222147 7.391217 -11.446861 0 CFG=2
M  V30 9 N 9.340499 7.668013 -10.018272 0
M  V30 10 C 9.830546 6.865295 -9.063384 0
M  V30 11 O 10.086011 5.672412 -9.222250 0
M  V30 12 C 10.182812 7.552255 -7.816027 0
M  V30 13 C 10.078098 8.862316 -7.428372 0
M  V30 14 C 10.669930 8.957365 -6.128540 0
M  V30 15 C 10.886022 10.015362 -5.218375 0
M  V30 16 C 11.449729 9.772324 -3.954406 0
M  V30 17 C 11.834457 8.474247 -3.590677 0
M  V30 18 Br 12.486021 8.172328 -1.846865 0
M  V30 19 C 11.686020 7.405443 -4.488282 0
M  V30 20 C 11.094065 7.652669 -5.737696 0
M  V30 21 N 10.784408 6.831492 -6.799253 0
M  V30 22 C 8.393152 6.141652 -11.796697 0
M  V30 23 H 9.082568 2.638936 -14.806948 0
M  V30 24 H 9.142921 4.277084 -15.446858 0
M  V30 25 H 10.465993 3.648736 -14.463300 0
M  V30 26 H 9.021630 3.569196 -12.470351 0
M  V30 27 H 6.922214 2.920571 -13.677444 0
M  V30 28 H 6.620192 4.199000 -12.524478 0
M  V30 29 H 6.729460 4.572325 -14.244540 0
M  V30 30 H 10.886021 5.127231 -12.246866 0
M  V30 31 H 10.974789 5.860000 -13.847215 0
M  V30 32 H 10.486022 7.996371 -13.046609 0
M  V30 33 H 12.078156 6.972324 -10.663474 0
M  V30 34 H 12.707848 7.567339 -12.188359 0
M  V30 35 H 11.830452 8.633462 -11.099193 0
M  V30 36 H 8.686739 8.252860 -11.849814 0
M  V30 37 H 9.086374 8.600053 -9.728546 0
M  V30 38 H 9.648513 9.676179 -7.990520 0
M  V30 39 H 10.577937 11.013515 -5.482194 0
M  V30 40 H 11.569887 10.572382 -3.240643 0
M  V30 41 H 11.976266 6.404594 -4.204402 0
M  V30 42 H 10.943226 5.835593 -6.866611 0
M  V30 43 H 8.421035 5.385746 -11.013047 0
M  V30 44 H 7.343889 6.397347 -11.950820 0
M  V30 45 H 8.663733 6.157306 -13.795777 0
M  V30 END ATOM
M  V30 BEGIN BOND
M  V30 1 1 2 1
M  V30 2 1 3 2
M  V30 3 1 4 2
M  V30 4 1 5 4
M  V30 5 1 6 5
M  V30 6 1 7 6
M  V30 7 1 8 6
M  V30 8 1 9 8
M  V30 9 1 10 9
M  V30 10 2 11 10
M  V30 11 1 12 10
M  V30 12 2 13 12
M  V30 13 1 14 13
M  V30 14 1 15 14
M  V30 15 2 16 15
M  V30 16 1 17 16
M  V30 17 1 18 17
M  V30 18 2 19 17
M  V30 19 2 20 14
M  V30 20 1 20 19
M  V30 21 1 21 12
M  V30 22 1 21 20
M  V30 23 1 22 4
M  V30 24 1 22 8
M  V30 25 1 23 1
M  V30 26 1 24 1
M  V30 27 1 25 1
M  V30 28 1 26 2
M  V30 29 1 27 3
M  V30 30 1 28 3
M  V30 31 1 29 3
M  V30 32 1 30 5
M  V30 33 1 31 5
M  V30 34 1 6 32 CFG=3
M  V30 35 1 33 7
M  V30 36 1 34 7
M  V30 37 1 35 7
M  V30 38 1 8 36 CFG=3
M  V30 39 1 37 9
M  V30 40 1 38 13
M  V30 41 1 39 15
M  V30 42 1 40 16
M  V30 43 1 41 19
M  V30 44 1 42 21
M  V30 45 1 43 22
M  V30 46 1 44 22
M  V30 47 1 4 45 CFG=3
M  V30 END BOND
M  V30 END CTAB
M  END
>  <b_m_subgroup_collapsed>  (1547) 
0

>  <r_i_docking_score>  (1547) 
-7.0113013579326999

>  <s_m_subgroup_title>  (1547) 
glide-dock_SP_D22_pv

>  <s_m_subgroupid>  (1547) 
glide-dock_SP_D22_pv

>  <Molecule ChEMBL ID>  (1547) 
CHEMBL5278957

>  <Standard Type>  (1547) 
Ki

>  <Standard Value>  (1547) 
10000.0

>  <label>  (1547) 
0

$$$$
CHEMBL4745809
     RDKit          3D

  0  0  0  0  0  0  0  0  0  0999 V3000
M  V30 BEGIN CTAB
M  V30 COUNTS 65 68 0 0 1
M  V30 BEGIN ATOM
M  V30 1 C 12.258528 4.647912 -14.089535 0
M  V30 2 C 10.792745 4.368423 -13.692195 0 CFG=1
M  V30 3 C 9.984095 5.672337 -13.810196 0
M  V30 4 N 8.855272 5.777109 -12.841543 0 CFG=1 CHG=1
M  V30 5 C 8.383080 7.159699 -12.551681 0
M  V30 6 C 9.435379 8.118207 -11.952827 0
M  V30 7 C 9.785710 7.835996 -10.475796 0 CFG=1
M  V30 8 C 11.309557 7.781948 -10.229266 0
M  V30 9 C 11.640488 7.574063 -8.737779 0
M  V30 10 C 10.969399 8.639936 -7.858678 0 CFG=2
M  V30 11 N 11.251042 8.412880 -6.448803 0
M  V30 12 C 11.503108 9.372039 -5.547523 0
M  V30 13 O 11.671158 10.554485 -5.844886 0
M  V30 14 C 11.492209 8.921866 -4.083377 0 CFG=2
M  V30 15 C 12.439307 9.646708 -3.143122 0
M  V30 16 C 12.643217 8.642043 -2.019621 0
M  V30 17 C 12.151099 7.309363 -2.597539 0
M  V30 18 O 11.905416 7.566335 -3.972396 0
M  V30 19 C 9.453726 8.627532 -8.088989 0
M  V30 20 C 9.163429 8.904983 -9.562986 0
M  V30 21 C 7.702551 4.938227 -13.230279 0
M  V30 22 C 7.994486 3.468637 -13.050807 0
M  V30 23 C 8.806673 2.812337 -14.157626 0
M  V30 24 C 8.216238 1.738031 -14.859808 0
M  V30 25 C 8.933426 1.045377 -15.849454 0
M  V30 26 C 10.248898 1.430768 -16.151686 0
M  V30 27 Cl 11.139434 0.582320 -17.361311 0
M  V30 28 C 10.840399 2.507946 -15.466295 0
M  V30 29 C 10.135289 3.210961 -14.455753 0
M  V30 30 H 12.885509 3.772386 -13.959817 0
M  V30 31 H 12.340950 4.972310 -15.127977 0
M  V30 32 H 12.696058 5.431405 -13.469556 0
M  V30 33 H 10.815567 4.074934 -12.644807 0
M  V30 34 H 10.687334 6.480138 -13.637747 0
M  V30 35 H 9.630669 5.772313 -14.836649 0
M  V30 36 H 7.932690 7.578193 -13.446594 0
M  V30 37 H 7.558712 7.099813 -11.847501 0
M  V30 38 H 10.336011 8.172751 -12.554935 0
M  V30 39 H 9.022347 9.125261 -12.030219 0
M  V30 40 H 9.369349 6.868056 -10.191262 0
M  V30 41 H 11.754733 6.980480 -10.818505 0
M  V30 42 H 11.773719 8.708974 -10.571245 0
M  V30 43 H 12.720757 7.611424 -8.590921 0
M  V30 44 H 11.300539 6.585116 -8.426820 0
M  V30 45 H 11.356989 9.615148 -8.158735 0
M  V30 46 H 11.144550 7.471879 -6.093566 0
M  V30 47 H 10.486546 9.037399 -3.700722 0
M  V30 48 H 13.374426 9.871598 -3.650103 0
M  V30 49 H 12.014076 10.575723 -2.771150 0
M  V30 50 H 12.064416 8.913652 -1.136729 0
M  V30 51 H 13.685993 8.606181 -1.719646 0
M  V30 52 H 11.220482 7.002285 -2.118196 0
M  V30 53 H 12.875832 6.503992 -2.475945 0
M  V30 54 H 8.962908 9.372151 -7.466706 0
M  V30 55 H 9.025327 7.665650 -7.801775 0
M  V30 56 H 9.572482 9.872343 -9.836157 0
M  V30 57 H 8.092576 8.980926 -9.715856 0
M  V30 58 H 6.853262 5.173019 -12.585567 0
M  V30 59 H 7.383580 5.125843 -14.248304 0
M  V30 60 H 7.028059 2.972309 -12.964714 0
M  V30 61 H 8.526731 3.372408 -12.106451 0
M  V30 62 H 7.208737 1.422687 -14.630314 0
M  V30 63 H 8.476977 0.215876 -16.369724 0
M  V30 64 H 11.852877 2.766838 -15.734756 0
M  V30 65 H 9.190122 5.424923 -11.955910 0
M  V30 END ATOM
M  V30 BEGIN BOND
M  V30 1 1 2 1
M  V30 2 1 3 2
M  V30 3 1 4 3
M  V30 4 1 5 4
M  V30 5 1 6 5
M  V30 6 1 7 6
M  V30 7 1 8 7
M  V30 8 1 9 8
M  V30 9 1 10 9
M  V30 10 1 11 10
M  V30 11 1 12 11
M  V30 12 2 13 12
M  V30 13 1 14 12
M  V30 14 1 15 14
M  V30 15 1 16 15
M  V30 16 1 17 16
M  V30 17 1 18 14
M  V30 18 1 18 17
M  V30 19 1 19 10
M  V30 20 1 20 7
M  V30 21 1 20 19
M  V30 22 1 21 4
M  V30 23 1 22 21
M  V30 24 1 23 22
M  V30 25 1 24 23
M  V30 26 2 25 24
M  V30 27 1 26 25
M  V30 28 1 27 26
M  V30 29 2 28 26
M  V30 30 1 29 2
M  V30 31 2 29 23
M  V30 32 1 29 28
M  V30 33 1 30 1
M  V30 34 1 31 1
M  V30 35 1 32 1
M  V30 36 1 2 33 CFG=1
M  V30 37 1 34 3
M  V30 38 1 35 3
M  V30 39 1 36 5
M  V30 40 1 37 5
M  V30 41 1 38 6
M  V30 42 1 39 6
M  V30 43 1 7 40 CFG=1
M  V30 44 1 41 8
M  V30 45 1 42 8
M  V30 46 1 43 9
M  V30 47 1 44 9
M  V30 48 1 10 45 CFG=3
M  V30 49 1 46 11
M  V30 50 1 14 47 CFG=1
M  V30 51 1 48 15
M  V30 52 1 49 15
M  V30 53 1 50 16
M  V30 54 1 51 16
M  V30 55 1 52 17
M  V30 56 1 53 17
M  V30 57 1 54 19
M  V30 58 1 55 19
M  V30 59 1 56 20
M  V30 60 1 57 20
M  V30 61 1 58 21
M  V30 62 1 59 21
M  V30 63 1 60 22
M  V30 64 1 61 22
M  V30 65 1 62 24
M  V30 66 1 63 25
M  V30 67 1 64 28
M  V30 68 1 4 65 CFG=1
M  V30 END BOND
M  V30 END CTAB
M  END
>  <b_m_subgroup_collapsed>  (1548) 
0

>  <r_i_docking_score>  (1548) 
-7.0111195108956998

>  <s_m_subgroup_title>  (1548) 
glide-dock_SP_D22_pv

>  <s_m_subgroupid>  (1548) 
glide-dock_SP_D22_pv

>  <Molecule ChEMBL ID>  (1548) 
CHEMBL4745809

>  <Standard Type>  (1548) 
Ki

>  <Standard Value>  (1548) 
20.6

>  <label>  (1548) 
1

$$$$
CHEMBL456674
     RDKit          3D

  0  0  0  0  0  0  0  0  0  0999 V3000
M  V30 BEGIN CTAB
M  V30 COUNTS 61 64 0 0 1
M  V30 BEGIN ATOM
M  V30 1 C 13.437264 8.535815 -16.971407 0
M  V30 2 O 14.110955 7.311535 -17.219656 0
M  V30 3 C 13.403368 6.144544 -17.033852 0
M  V30 4 C 13.963553 4.964619 -17.560793 0
M  V30 5 C 13.288441 3.735219 -17.443880 0
M  V30 6 C 12.052182 3.670128 -16.776548 0
M  V30 7 C 11.483860 4.839612 -16.234623 0
M  V30 8 C 10.134206 4.779153 -15.550135 0
M  V30 9 C 10.199568 4.255264 -14.108572 0
M  V30 10 C 8.819109 4.263444 -13.469130 0
M  V30 11 C 7.844385 3.372638 -13.969501 0
M  V30 12 C 6.538137 3.371367 -13.449497 0
M  V30 13 C 6.207206 4.248309 -12.405284 0
M  V30 14 C 7.176585 5.126921 -11.890635 0
M  V30 15 C 8.497727 5.153038 -12.411861 0
M  V30 16 O 9.481787 6.004618 -11.938408 0
M  V30 17 C 9.206303 6.742166 -10.751045 0
M  V30 18 C 10.505927 7.348402 -10.179330 0
M  V30 19 N 10.330644 7.999600 -8.874237 0
M  V30 20 C 9.966987 7.006125 -7.850101 0
M  V30 21 C 9.826574 7.665270 -6.474845 0
M  V30 22 N 11.078373 8.309450 -6.111698 0
M  V30 23 C 11.522180 8.273281 -4.805579 0
M  V30 24 N 11.685989 7.062784 -4.267908 0
M  V30 25 C 12.089838 7.008234 -2.984876 0
M  V30 26 C 12.313781 8.176411 -2.238662 0
M  V30 27 C 12.086246 9.392984 -2.903581 0
M  V30 28 N 11.701321 9.441157 -4.192119 0
M  V30 29 C 11.535161 9.289191 -7.088624 0
M  V30 30 C 11.605128 8.626060 -8.487783 0
M  V30 31 C 12.158073 6.072394 -16.360518 0
M  V30 32 H 14.046666 9.366610 -17.331099 0
M  V30 33 H 12.487337 8.572363 -17.504591 0
M  V30 34 H 13.260618 8.685850 -15.905735 0
M  V30 35 H 14.914360 5.007980 -18.070139 0
M  V30 36 H 13.727862 2.839046 -17.858360 0
M  V30 37 H 11.539309 2.723326 -16.689177 0
M  V30 38 H 9.471955 4.157884 -16.152748 0
M  V30 39 H 9.690919 5.772282 -15.548433 0
M  V30 40 H 10.902810 4.852923 -13.528893 0
M  V30 41 H 10.584464 3.234726 -14.094812 0
M  V30 42 H 8.096612 2.691132 -14.767850 0
M  V30 43 H 5.795841 2.691157 -13.842344 0
M  V30 44 H 5.213086 4.248666 -11.985414 0
M  V30 45 H 6.867731 5.772146 -11.083467 0
M  V30 46 H 8.762263 6.061413 -10.029346 0
M  V30 47 H 8.486082 7.532952 -10.966875 0
M  V30 48 H 10.890678 8.075580 -10.896307 0
M  V30 49 H 11.266023 6.572667 -10.089922 0
M  V30 50 H 10.709135 6.207193 -7.809883 0
M  V30 51 H 9.005598 6.543825 -8.070215 0
M  V30 52 H 9.541442 6.913935 -5.735409 0
M  V30 53 H 9.026789 8.407559 -6.489236 0
M  V30 54 H 12.225908 6.027682 -2.552068 0
M  V30 55 H 12.624229 8.152317 -1.204766 0
M  V30 56 H 12.194249 10.336787 -2.395355 0
M  V30 57 H 10.885135 10.168813 -7.077548 0
M  V30 58 H 12.528264 9.642847 -6.810022 0
M  V30 59 H 12.394991 7.872455 -8.488225 0
M  V30 60 H 11.884530 9.372556 -9.232576 0
M  V30 61 H 11.699966 6.953911 -15.938223 0
M  V30 END ATOM
M  V30 BEGIN BOND
M  V30 1 1 2 1
M  V30 2 1 3 2
M  V30 3 2 4 3
M  V30 4 1 5 4
M  V30 5 2 6 5
M  V30 6 1 7 6
M  V30 7 1 8 7
M  V30 8 1 9 8
M  V30 9 1 10 9
M  V30 10 2 11 10
M  V30 11 1 12 11
M  V30 12 2 13 12
M  V30 13 1 14 13
M  V30 14 1 15 10
M  V30 15 2 15 14
M  V30 16 1 16 15
M  V30 17 1 17 16
M  V30 18 1 18 17
M  V30 19 1 19 18
M  V30 20 1 20 19
M  V30 21 1 21 20
M  V30 22 1 22 21
M  V30 23 1 23 22
M  V30 24 2 24 23
M  V30 25 1 25 24
M  V30 26 2 26 25
M  V30 27 1 27 26
M  V30 28 1 28 23
M  V30 29 2 28 27
M  V30 30 1 29 22
M  V30 31 1 30 19
M  V30 32 1 30 29
M  V30 33 1 31 3
M  V30 34 2 31 7
M  V30 35 1 32 1
M  V30 36 1 33 1
M  V30 37 1 34 1
M  V30 38 1 35 4
M  V30 39 1 36 5
M  V30 40 1 37 6
M  V30 41 1 38 8
M  V30 42 1 39 8
M  V30 43 1 40 9
M  V30 44 1 41 9
M  V30 45 1 42 11
M  V30 46 1 43 12
M  V30 47 1 44 13
M  V30 48 1 45 14
M  V30 49 1 46 17
M  V30 50 1 47 17
M  V30 51 1 48 18
M  V30 52 1 49 18
M  V30 53 1 50 20
M  V30 54 1 51 20
M  V30 55 1 52 21
M  V30 56 1 53 21
M  V30 57 1 54 25
M  V30 58 1 55 26
M  V30 59 1 56 27
M  V30 60 1 57 29
M  V30 61 1 58 29
M  V30 62 1 59 30
M  V30 63 1 60 30
M  V30 64 1 61 31
M  V30 END BOND
M  V30 END CTAB
M  END
>  <b_m_subgroup_collapsed>  (1549) 
0

>  <r_i_docking_score>  (1549) 
-7.0086764472872902

>  <s_m_subgroup_title>  (1549) 
glide-dock_SP_D22_pv

>  <s_m_subgroupid>  (1549) 
glide-dock_SP_D22_pv

>  <Molecule ChEMBL ID>  (1549) 
CHEMBL456674

>  <Standard Type>  (1549) 
Ki

>  <Standard Value>  (1549) 
629000.0

>  <label>  (1549) 
0

$$$$
CHEMBL539518
     RDKit          3D

  0  0  0  0  0  0  0  0  0  0999 V3000
M  V30 BEGIN CTAB
M  V30 COUNTS 39 41 0 0 1
M  V30 BEGIN ATOM
M  V30 1 C 8.709373 4.410308 -12.152881 0
M  V30 2 N 9.366283 5.571636 -11.513769 0 CFG=2 CHG=1
M  V30 3 C 9.690452 5.329389 -10.093864 0
M  V30 4 C 10.600457 6.461457 -9.587304 0
M  V30 5 C 9.908511 7.840313 -9.629395 0 CFG=2
M  V30 6 C 9.286931 8.043142 -11.037130 0
M  V30 7 C 8.566060 6.804720 -11.618577 0
M  V30 8 C 10.910015 8.978869 -9.365785 0
M  V30 9 C 11.492820 8.812892 -7.973257 0
M  V30 10 O 12.696572 8.972310 -7.797834 0
M  V30 11 C 10.560588 8.413754 -6.911218 0
M  V30 12 C 11.023747 8.328703 -5.517315 0
M  V30 13 C 11.285762 7.063834 -4.948244 0
M  V30 14 C 11.815004 6.972424 -3.645493 0
M  V30 15 C 12.089378 8.142540 -2.912846 0
M  V30 16 C 11.827982 9.404043 -3.479713 0
M  V30 17 C 11.300429 9.501189 -4.782881 0
M  V30 18 C 9.329183 8.004395 -7.299622 0
M  V30 19 O 8.899791 7.877646 -8.610833 0
M  V30 20 H 7.765501 4.173049 -11.659397 0
M  V30 21 H 8.504575 4.613963 -13.203961 0
M  V30 22 H 9.351011 3.528766 -12.104929 0
M  V30 23 H 10.158968 4.354955 -9.973392 0
M  V30 24 H 8.777643 5.283555 -9.496723 0
M  V30 25 H 11.496317 6.572251 -10.197195 0
M  V30 26 H 10.937545 6.200850 -8.585051 0
M  V30 27 H 8.598984 8.889510 -11.015813 0
M  V30 28 H 10.077632 8.317060 -11.735974 0
M  V30 29 H 8.257455 6.990726 -12.648493 0
M  V30 30 H 7.685964 6.572233 -11.046767 0
M  V30 31 H 10.415580 9.946255 -9.446698 0
M  V30 32 H 11.717302 8.970127 -10.099079 0
M  V30 33 H 11.092752 6.163310 -5.512251 0
M  V30 34 H 12.012663 6.003856 -3.210577 0
M  V30 35 H 12.492538 8.073638 -1.911853 0
M  V30 36 H 12.041893 10.299870 -2.912893 0
M  V30 37 H 11.124712 10.473098 -5.221426 0
M  V30 38 H 8.574630 7.654510 -6.610712 0
M  V30 39 H 10.233285 5.725924 -12.008671 0
M  V30 END ATOM
M  V30 BEGIN BOND
M  V30 1 1 2 1
M  V30 2 1 3 2
M  V30 3 1 4 3
M  V30 4 1 5 4
M  V30 5 1 6 5
M  V30 6 1 7 2
M  V30 7 1 7 6
M  V30 8 1 8 5
M  V30 9 1 9 8
M  V30 10 2 10 9
M  V30 11 1 11 9
M  V30 12 1 12 11
M  V30 13 2 13 12
M  V30 14 1 14 13
M  V30 15 2 15 14
M  V30 16 1 16 15
M  V30 17 1 17 12
M  V30 18 2 17 16
M  V30 19 2 18 11
M  V30 20 1 5 19 CFG=1
M  V30 21 1 19 18
M  V30 22 1 20 1
M  V30 23 1 21 1
M  V30 24 1 22 1
M  V30 25 1 23 3
M  V30 26 1 24 3
M  V30 27 1 25 4
M  V30 28 1 26 4
M  V30 29 1 27 6
M  V30 30 1 28 6
M  V30 31 1 29 7
M  V30 32 1 30 7
M  V30 33 1 31 8
M  V30 34 1 32 8
M  V30 35 1 33 13
M  V30 36 1 34 14
M  V30 37 1 35 15
M  V30 38 1 36 16
M  V30 39 1 37 17
M  V30 40 1 38 18
M  V30 41 1 2 39 CFG=3
M  V30 END BOND
M  V30 END CTAB
M  END
>  <b_m_subgroup_collapsed>  (1550) 
0

>  <r_i_docking_score>  (1550) 
-7.00807968847311

>  <s_m_subgroup_title>  (1550) 
glide-dock_SP_D22_pv

>  <s_m_subgroupid>  (1550) 
glide-dock_SP_D22_pv

>  <Molecule ChEMBL ID>  (1550) 
CHEMBL539518

>  <Standard Type>  (1550) 
Ki

>  <Standard Value>  (1550) 
100000.0

>  <label>  (1550) 
0

$$$$
CHEMBL4548837
     RDKit          3D

  0  0  0  0  0  0  0  0  0  0999 V3000
M  V30 BEGIN CTAB
M  V30 COUNTS 51 55 0 0 1
M  V30 BEGIN ATOM
M  V30 1 C 4.856395 -1.527874 -15.092281 0
M  V30 2 C 4.858953 -0.170338 -14.393393 0
M  V30 3 O 3.830957 0.219787 -13.846817 0
M  V30 4 N 5.995679 0.557069 -14.400626 0
M  V30 5 C 7.238950 0.195359 -15.082445 0
M  V30 6 C 8.111542 1.474570 -14.995484 0
M  V30 7 N 7.334036 2.384926 -14.163681 0
M  V30 8 C 6.185227 1.838991 -13.857540 0
M  V30 9 N 5.484903 2.643292 -13.065387 0 CHG=1
M  V30 10 C 6.252388 3.770490 -12.823934 0
M  V30 11 C 5.766047 4.844151 -11.906504 0
M  V30 12 C 7.445523 3.603053 -13.525384 0
M  V30 13 C 8.612762 4.519724 -13.415324 0
M  V30 14 C 8.664876 5.651875 -12.633767 0
M  V30 15 N 9.943090 6.154868 -12.532247 0
M  V30 16 S 10.336658 7.512690 -11.528362 0
M  V30 17 O 9.320646 8.529414 -11.845852 0
M  V30 18 O 11.767200 7.771922 -11.747327 0
M  V30 19 C 10.153132 7.050717 -9.801923 0
M  V30 20 C 9.071576 6.272953 -9.338072 0
M  V30 21 C 8.920606 6.039261 -7.957470 0
M  V30 22 C 9.848480 6.573231 -7.043294 0
M  V30 23 C 10.933308 7.340485 -7.505146 0
M  V30 24 C 11.083173 7.581147 -8.883183 0
M  V30 25 C 10.748655 5.488777 -13.446445 0
M  V30 26 C 12.088309 5.675927 -13.847067 0
M  V30 27 C 12.646479 4.876996 -14.853841 0
M  V30 28 C 11.864874 3.890544 -15.464126 0
M  V30 29 C 10.531959 3.701211 -15.063188 0
M  V30 30 C 9.922867 4.479561 -14.042775 0
M  V30 31 H 5.556904 -2.212283 -14.612213 0
M  V30 32 H 3.859615 -1.966984 -15.051921 0
M  V30 33 H 5.123296 -1.430738 -16.143965 0
M  V30 34 H 7.070980 -0.104409 -16.120100 0
M  V30 35 H 7.715972 -0.628698 -14.552781 0
M  V30 36 H 8.228497 1.920699 -15.981830 0
M  V30 37 H 9.075113 1.279844 -14.524564 0
M  V30 38 H 6.480655 4.994179 -11.098397 0
M  V30 39 H 5.641784 5.783554 -12.447672 0
M  V30 40 H 4.824371 4.572147 -11.446345 0
M  V30 41 H 7.904299 6.160328 -12.066925 0
M  V30 42 H 8.323469 5.892856 -10.009106 0
M  V30 43 H 8.074028 5.472308 -7.599507 0
M  V30 44 H 9.717852 6.404003 -5.985474 0
M  V30 45 H 11.639752 7.757538 -6.802841 0
M  V30 46 H 11.899675 8.197712 -9.229116 0
M  V30 47 H 12.711853 6.437952 -13.411505 0
M  V30 48 H 13.671179 5.028330 -15.164557 0
M  V30 49 H 12.289223 3.282242 -16.250086 0
M  V30 50 H 9.984673 2.964264 -15.604274 0
M  V30 51 H 4.565986 2.438347 -12.695301 0
M  V30 END ATOM
M  V30 BEGIN BOND
M  V30 1 1 2 1
M  V30 2 2 3 2
M  V30 3 1 4 2
M  V30 4 1 5 4
M  V30 5 1 6 5
M  V30 6 1 7 6
M  V30 7 1 8 4
M  V30 8 1 8 7
M  V30 9 2 9 8
M  V30 10 1 10 9
M  V30 11 1 11 10
M  V30 12 1 12 7
M  V30 13 2 12 10
M  V30 14 1 13 12
M  V30 15 2 14 13
M  V30 16 1 15 14
M  V30 17 1 16 15
M  V30 18 2 17 16
M  V30 19 2 18 16
M  V30 20 1 19 16
M  V30 21 2 20 19
M  V30 22 1 21 20
M  V30 23 2 22 21
M  V30 24 1 23 22
M  V30 25 1 24 19
M  V30 26 2 24 23
M  V30 27 1 25 15
M  V30 28 2 26 25
M  V30 29 1 27 26
M  V30 30 2 28 27
M  V30 31 1 29 28
M  V30 32 1 30 13
M  V30 33 1 30 25
M  V30 34 2 30 29
M  V30 35 1 31 1
M  V30 36 1 32 1
M  V30 37 1 33 1
M  V30 38 1 34 5
M  V30 39 1 35 5
M  V30 40 1 36 6
M  V30 41 1 37 6
M  V30 42 1 38 11
M  V30 43 1 39 11
M  V30 44 1 40 11
M  V30 45 1 41 14
M  V30 46 1 42 20
M  V30 47 1 43 21
M  V30 48 1 44 22
M  V30 49 1 45 23
M  V30 50 1 46 24
M  V30 51 1 47 26
M  V30 52 1 48 27
M  V30 53 1 49 28
M  V30 54 1 50 29
M  V30 55 1 51 9
M  V30 END BOND
M  V30 END CTAB
M  END
>  <b_m_subgroup_collapsed>  (1551) 
0

>  <r_i_docking_score>  (1551) 
-7.0071536892436601

>  <s_m_subgroup_title>  (1551) 
glide-dock_SP_D22_pv

>  <s_m_subgroupid>  (1551) 
glide-dock_SP_D22_pv

>  <Molecule ChEMBL ID>  (1551) 
CHEMBL4548837

>  <Standard Type>  (1551) 
Ki

>  <Standard Value>  (1551) 
10000.0

>  <label>  (1551) 
0

$$$$
CHEMBL6047939
     RDKit          3D

  0  0  0  0  0  0  0  0  0  0999 V3000
M  V30 BEGIN CTAB
M  V30 COUNTS 63 67 0 0 1
M  V30 BEGIN ATOM
M  V30 1 C 9.118385 6.360754 -7.200764 0
M  V30 2 N 10.032264 7.332489 -7.777660 0
M  V30 3 C 10.175439 7.636378 -9.083194 0
M  V30 4 S 9.286393 6.768644 -10.336439 0
M  V30 5 C 10.421338 6.893548 -11.743871 0
M  V30 6 C 10.095635 5.780853 -12.754650 0
M  V30 7 C 11.232059 5.458423 -13.744860 0
M  V30 8 N 10.824226 4.461619 -14.770062 0 CFG=1 CHG=1
M  V30 9 C 11.911089 4.018971 -15.665947 0
M  V30 10 C 11.372951 2.752390 -16.341450 0 CFG=2
M  V30 11 C 10.597111 3.015316 -17.637171 0
M  V30 12 C 9.410655 2.059777 -17.560471 0
M  V30 13 N 9.113667 1.945397 -16.140095 0
M  V30 14 C 8.085506 1.080992 -15.690945 0
M  V30 15 C 7.995849 0.677079 -14.335841 0
M  V30 16 C 6.949340 -0.157381 -13.893131 0
M  V30 17 C 5.981361 -0.616615 -14.802596 0
M  V30 18 C 6.052207 -0.238009 -16.156672 0
M  V30 19 C 5.034403 -0.759256 -17.160107 0
M  V30 20 F 3.870323 -1.030457 -16.567547 0
M  V30 21 F 4.817398 0.143912 -18.115723 0
M  V30 22 F 5.502156 -1.871247 -17.724531 0
M  V30 23 C 7.097254 0.605495 -16.587557 0
M  V30 24 C 10.334672 2.171775 -15.367755 0 CFG=2
M  V30 25 C 10.168074 3.233655 -14.270145 0
M  V30 26 N 11.049777 8.617023 -9.312252 0
M  V30 27 N 11.532503 8.972594 -8.071666 0
M  V30 28 C 10.930592 8.160461 -7.198403 0
M  V30 29 C 11.283255 8.201978 -5.769530 0
M  V30 30 C 11.285958 7.008491 -4.936110 0
M  V30 31 C 11.687306 7.039020 -3.647337 0
M  V30 32 C 12.115970 8.287930 -3.015347 0
M  V30 33 O 12.485702 8.373285 -1.846955 0
M  V30 34 N 12.084846 9.371670 -3.822140 0
M  V30 35 C 11.708230 9.336704 -5.172304 0
M  V30 36 H 8.892977 6.605607 -6.165401 0
M  V30 37 H 9.565922 5.373011 -7.268474 0
M  V30 38 H 8.175040 6.358461 -7.748565 0
M  V30 39 H 10.329131 7.877450 -12.200859 0
M  V30 40 H 11.442508 6.805734 -11.383097 0
M  V30 41 H 9.862296 4.875639 -12.190854 0
M  V30 42 H 9.183262 6.042722 -13.292772 0
M  V30 43 H 11.545366 6.368070 -14.255781 0
M  V30 44 H 12.101225 5.091597 -13.197245 0
M  V30 45 H 12.198672 4.792539 -16.379791 0
M  V30 46 H 12.794339 3.772300 -15.073830 0
M  V30 47 H 12.170467 2.031216 -16.530043 0
M  V30 48 H 10.227340 4.041132 -17.661232 0
M  V30 49 H 11.200278 2.858334 -18.532209 0
M  V30 50 H 8.563050 2.455446 -18.121460 0
M  V30 51 H 9.671095 1.079044 -17.962601 0
M  V30 52 H 8.727432 1.001315 -13.612473 0
M  V30 53 H 6.897662 -0.455843 -12.857039 0
M  V30 54 H 5.198690 -1.278060 -14.466688 0
M  V30 55 H 7.126050 0.878858 -17.631618 0
M  V30 56 H 10.689474 1.230061 -14.943291 0
M  V30 57 H 10.683313 2.890598 -13.372218 0
M  V30 58 H 9.124911 3.415093 -14.007064 0
M  V30 59 H 10.999858 6.055877 -5.353504 0
M  V30 60 H 11.689425 6.127385 -3.065233 0
M  V30 61 H 12.371704 10.256526 -3.429072 0
M  V30 62 H 11.791389 10.292617 -5.672076 0
M  V30 63 H 10.139017 4.902941 -15.367776 0
M  V30 END ATOM
M  V30 BEGIN BOND
M  V30 1 1 2 1
M  V30 2 1 3 2
M  V30 3 1 4 3
M  V30 4 1 5 4
M  V30 5 1 6 5
M  V30 6 1 7 6
M  V30 7 1 8 7
M  V30 8 1 9 8
M  V30 9 1 10 9
M  V30 10 1 11 10
M  V30 11 1 12 11
M  V30 12 1 13 12
M  V30 13 1 14 13
M  V30 14 1 15 14
M  V30 15 2 16 15
M  V30 16 1 17 16
M  V30 17 2 18 17
M  V30 18 1 19 18
M  V30 19 1 20 19
M  V30 20 1 21 19
M  V30 21 1 22 19
M  V30 22 2 23 14
M  V30 23 1 23 18
M  V30 24 1 24 10
M  V30 25 1 24 13
M  V30 26 1 25 8
M  V30 27 1 25 24
M  V30 28 2 26 3
M  V30 29 1 27 26
M  V30 30 1 28 2
M  V30 31 2 28 27
M  V30 32 1 29 28
M  V30 33 1 30 29
M  V30 34 2 31 30
M  V30 35 1 32 31
M  V30 36 2 33 32
M  V30 37 1 34 32
M  V30 38 2 35 29
M  V30 39 1 35 34
M  V30 40 1 36 1
M  V30 41 1 37 1
M  V30 42 1 38 1
M  V30 43 1 39 5
M  V30 44 1 40 5
M  V30 45 1 41 6
M  V30 46 1 42 6
M  V30 47 1 43 7
M  V30 48 1 44 7
M  V30 49 1 45 9
M  V30 50 1 46 9
M  V30 51 1 10 47 CFG=3
M  V30 52 1 48 11
M  V30 53 1 49 11
M  V30 54 1 50 12
M  V30 55 1 51 12
M  V30 56 1 52 15
M  V30 57 1 53 16
M  V30 58 1 54 17
M  V30 59 1 55 23
M  V30 60 1 24 56 CFG=1
M  V30 61 1 57 25
M  V30 62 1 58 25
M  V30 63 1 59 30
M  V30 64 1 60 31
M  V30 65 1 61 34
M  V30 66 1 62 35
M  V30 67 1 8 63 CFG=3
M  V30 END BOND
M  V30 END CTAB
M  END
>  <b_m_subgroup_collapsed>  (1552) 
0

>  <r_i_docking_score>  (1552) 
-7.00629944131658

>  <s_m_subgroup_title>  (1552) 
glide-dock_SP_D22_pv

>  <s_m_subgroupid>  (1552) 
glide-dock_SP_D22_pv

>  <Molecule ChEMBL ID>  (1552) 
CHEMBL6047939

>  <Standard Type>  (1552) 
Ki

>  <Standard Value>  (1552) 
37.2

>  <label>  (1552) 
1

$$$$
CHEMBL3216146
     RDKit          3D

  0  0  0  0  0  0  0  0  0  0999 V3000
M  V30 BEGIN CTAB
M  V30 COUNTS 59 63 0 0 1
M  V30 BEGIN ATOM
M  V30 1 C 4.095397 -1.784571 -16.876209 0
M  V30 2 N 4.166523 -0.915461 -15.708136 0
M  V30 3 C 2.960717 -0.635884 -14.941000 0
M  V30 4 C 5.359798 -0.225736 -15.406638 0
M  V30 5 C 6.485640 -0.266936 -16.262604 0
M  V30 6 C 7.678113 0.409191 -15.935500 0
M  V30 7 C 7.779910 1.167202 -14.748084 0
M  V30 8 C 9.111466 1.748884 -14.243836 0
M  V30 9 C 9.986494 2.573902 -15.188688 0
M  V30 10 C 10.638651 1.820463 -16.189938 0
M  V30 11 C 11.598011 2.382124 -17.032469 0
M  V30 12 C 11.976074 3.712443 -16.850988 0
M  V30 13 C 11.351461 4.460386 -15.815991 0
M  V30 14 C 10.308610 3.961122 -14.965669 0
M  V30 15 C 9.791163 4.836265 -13.855055 0
M  V30 16 C 10.700764 5.771719 -13.297312 0
M  V30 17 C 10.345631 6.614628 -12.225786 0
M  V30 18 C 9.045712 6.590393 -11.703773 0
M  V30 19 C 8.092374 5.744644 -12.287496 0
M  V30 20 O 6.796433 5.772314 -11.846971 0
M  V30 21 C 8.456333 4.888281 -13.350223 0
M  V30 22 O 7.435113 4.174406 -13.885305 0
M  V30 23 C 12.034941 5.999269 -13.966639 0
M  V30 24 C 11.842368 5.893173 -15.491975 0 CFG=1
M  V30 25 N 13.056102 6.354273 -16.224236 0 CFG=2 CHG=1
M  V30 26 C 13.265907 7.824238 -16.183086 0
M  V30 27 C 13.061417 5.880099 -17.615517 0
M  V30 28 C 13.115728 4.366499 -17.609722 0
M  V30 29 C 6.629719 1.266968 -13.936764 0
M  V30 30 C 5.453669 0.569270 -14.241893 0
M  V30 31 H 4.814979 -2.600868 -16.790781 0
M  V30 32 H 4.301445 -1.228113 -17.791063 0
M  V30 33 H 3.106952 -2.228152 -16.980415 0
M  V30 34 H 2.814780 0.435544 -14.814485 0
M  V30 35 H 3.013259 -1.101965 -13.957626 0
M  V30 36 H 2.086126 -1.027622 -15.447192 0
M  V30 37 H 6.468672 -0.849577 -17.170671 0
M  V30 38 H 8.508640 0.291023 -16.605885 0
M  V30 39 H 8.971494 2.297852 -13.321292 0
M  V30 40 H 9.706261 0.888155 -13.938305 0
M  V30 41 H 10.461587 0.760926 -16.278402 0
M  V30 42 H 12.094985 1.768544 -17.770346 0
M  V30 43 H 11.058606 7.315608 -11.818850 0
M  V30 44 H 8.769464 7.254332 -10.896860 0
M  V30 45 H 6.629871 6.448419 -11.186062 0
M  V30 46 H 6.646708 4.384859 -13.401552 0
M  V30 47 H 12.417591 6.971643 -13.664762 0
M  V30 48 H 12.748322 5.255521 -13.611001 0
M  V30 49 H 11.032058 6.559108 -15.796395 0
M  V30 50 H 12.485538 8.349988 -16.732872 0
M  V30 51 H 14.217541 8.080728 -16.649017 0
M  V30 52 H 13.286643 8.222917 -15.172588 0
M  V30 53 H 12.172292 6.234055 -18.139090 0
M  V30 54 H 13.930121 6.271997 -18.148333 0
M  V30 55 H 14.056828 4.025712 -17.175545 0
M  V30 56 H 13.102275 4.003293 -18.638037 0
M  V30 57 H 6.625377 1.870129 -13.047202 0
M  V30 58 H 4.627733 0.666717 -13.555592 0
M  V30 59 H 13.846399 5.921494 -15.767143 0
M  V30 END ATOM
M  V30 BEGIN BOND
M  V30 1 1 2 1
M  V30 2 1 3 2
M  V30 3 1 4 2
M  V30 4 1 5 4
M  V30 5 2 6 5
M  V30 6 1 7 6
M  V30 7 1 8 7
M  V30 8 1 9 8
M  V30 9 1 10 9
M  V30 10 2 11 10
M  V30 11 1 12 11
M  V30 12 2 13 12
M  V30 13 2 14 9
M  V30 14 1 14 13
M  V30 15 1 15 14
M  V30 16 2 16 15
M  V30 17 1 17 16
M  V30 18 2 18 17
M  V30 19 1 19 18
M  V30 20 1 20 19
M  V30 21 1 21 15
M  V30 22 2 21 19
M  V30 23 1 22 21
M  V30 24 1 23 16
M  V30 25 1 24 13
M  V30 26 1 24 23
M  V30 27 1 25 24
M  V30 28 1 26 25
M  V30 29 1 27 25
M  V30 30 1 28 12
M  V30 31 1 28 27
M  V30 32 2 29 7
M  V30 33 2 30 4
M  V30 34 1 30 29
M  V30 35 1 31 1
M  V30 36 1 32 1
M  V30 37 1 33 1
M  V30 38 1 34 3
M  V30 39 1 35 3
M  V30 40 1 36 3
M  V30 41 1 37 5
M  V30 42 1 38 6
M  V30 43 1 39 8
M  V30 44 1 40 8
M  V30 45 1 41 10
M  V30 46 1 42 11
M  V30 47 1 43 17
M  V30 48 1 44 18
M  V30 49 1 45 20
M  V30 50 1 46 22
M  V30 51 1 47 23
M  V30 52 1 48 23
M  V30 53 1 24 49 CFG=3
M  V30 54 1 50 26
M  V30 55 1 51 26
M  V30 56 1 52 26
M  V30 57 1 53 27
M  V30 58 1 54 27
M  V30 59 1 55 28
M  V30 60 1 56 28
M  V30 61 1 57 29
M  V30 62 1 58 30
M  V30 63 1 25 59 CFG=1
M  V30 END BOND
M  V30 END CTAB
M  END
>  <b_m_subgroup_collapsed>  (1553) 
0

>  <r_i_docking_score>  (1553) 
-7.0058859356491103

>  <s_m_subgroup_title>  (1553) 
glide-dock_SP_D22_pv

>  <s_m_subgroupid>  (1553) 
glide-dock_SP_D22_pv

>  <Molecule ChEMBL ID>  (1553) 
CHEMBL3216146

>  <Standard Type>  (1553) 
Ki

>  <Standard Value>  (1553) 
79.0

>  <label>  (1553) 
1

$$$$
CHEMBL241102
     RDKit          3D

  0  0  0  0  0  0  0  0  0  0999 V3000
M  V30 BEGIN CTAB
M  V30 COUNTS 56 59 0 0 1
M  V30 BEGIN ATOM
M  V30 1 C 11.681679 10.519485 -5.877890 0
M  V30 2 O 12.412465 9.372424 -6.286004 0
M  V30 3 C 11.687285 8.531283 -7.084518 0
M  V30 4 C 11.951462 8.520764 -8.463649 0
M  V30 5 C 11.120161 7.798049 -9.332208 0
M  V30 6 C 10.039288 7.058520 -8.815509 0
M  V30 7 C 9.844446 6.976592 -7.423076 0
M  V30 8 C 10.690773 7.684847 -6.551264 0
M  V30 9 O 10.518433 7.537565 -5.203076 0
M  V30 10 C 11.642285 6.998009 -4.517365 0
M  V30 11 C 9.073687 6.358341 -9.745131 0
M  V30 12 N 9.122077 6.785306 -11.162342 0 CHG=1
M  V30 13 C 8.313802 6.225261 -12.081403 0
M  V30 14 N 7.369418 5.325454 -11.765024 0
M  V30 15 C 7.137863 4.232947 -12.655422 0
M  V30 16 C 5.882141 3.584387 -12.648529 0
M  V30 17 C 5.684286 2.435948 -13.446469 0
M  V30 18 C 6.750493 1.978643 -14.245133 0
M  V30 19 C 7.980737 2.626869 -14.247073 0
M  V30 20 C 8.203730 3.771345 -13.460172 0
M  V30 21 C 8.988013 1.910371 -15.107467 0 CFG=2
M  V30 22 O 9.345170 2.692212 -16.238638 0
M  V30 23 C 10.485850 2.432643 -16.901531 0
M  V30 24 C 10.713304 3.390055 -18.062876 0
M  V30 25 O 11.284500 1.532112 -16.643974 0
M  V30 26 C 8.251212 0.606675 -15.520780 0
M  V30 27 C 6.762208 0.764857 -15.133611 0
M  V30 28 C 10.010846 7.884085 -11.576215 0
M  V30 29 C 11.344450 7.865534 -10.822787 0
M  V30 30 H 11.630390 10.564281 -4.791171 0
M  V30 31 H 12.187633 11.412226 -6.245179 0
M  V30 32 H 10.659763 10.549052 -6.258492 0
M  V30 33 H 12.776434 9.088770 -8.860312 0
M  V30 34 H 9.042085 6.375866 -7.017760 0
M  V30 35 H 11.329487 6.673822 -3.524888 0
M  V30 36 H 12.034723 6.122877 -5.037254 0
M  V30 37 H 12.453572 7.718799 -4.392844 0
M  V30 38 H 8.078381 6.536140 -9.356066 0
M  V30 39 H 9.254580 5.284620 -9.691419 0
M  V30 40 H 8.422383 6.515751 -13.119964 0
M  V30 41 H 5.086770 3.944497 -12.012926 0
M  V30 42 H 4.738030 1.915012 -13.438231 0
M  V30 43 H 9.175054 4.243276 -13.443653 0
M  V30 44 H 9.868070 1.684179 -14.502680 0
M  V30 45 H 10.640564 4.423308 -17.723768 0
M  V30 46 H 11.701410 3.235396 -18.495003 0
M  V30 47 H 9.966514 3.224811 -18.839062 0
M  V30 48 H 8.389242 0.335258 -16.567984 0
M  V30 49 H 8.667392 -0.213941 -14.934062 0
M  V30 50 H 6.376689 -0.114607 -14.616577 0
M  V30 51 H 6.145931 0.952215 -16.013556 0
M  V30 52 H 10.198827 7.823479 -12.645484 0
M  V30 53 H 9.487683 8.823761 -11.394349 0
M  V30 54 H 11.919604 8.764544 -11.045746 0
M  V30 55 H 11.947477 7.011926 -11.134177 0
M  V30 56 H 6.769540 5.512326 -10.967539 0
M  V30 END ATOM
M  V30 BEGIN BOND
M  V30 1 1 2 1
M  V30 2 1 3 2
M  V30 3 1 4 3
M  V30 4 2 5 4
M  V30 5 1 6 5
M  V30 6 2 7 6
M  V30 7 2 8 3
M  V30 8 1 8 7
M  V30 9 1 9 8
M  V30 10 1 10 9
M  V30 11 1 11 6
M  V30 12 1 12 11
M  V30 13 2 13 12 CFG=2
M  V30 14 1 14 13
M  V30 15 1 15 14
M  V30 16 1 16 15
M  V30 17 2 17 16
M  V30 18 1 18 17
M  V30 19 2 19 18
M  V30 20 2 20 15
M  V30 21 1 20 19
M  V30 22 1 21 19
M  V30 23 1 22 21
M  V30 24 1 23 22
M  V30 25 1 24 23
M  V30 26 2 25 23
M  V30 27 1 26 21
M  V30 28 1 27 18
M  V30 29 1 27 26
M  V30 30 1 28 12
M  V30 31 1 29 5
M  V30 32 1 29 28
M  V30 33 1 30 1
M  V30 34 1 31 1
M  V30 35 1 32 1
M  V30 36 1 33 4
M  V30 37 1 34 7
M  V30 38 1 35 10
M  V30 39 1 36 10
M  V30 40 1 37 10
M  V30 41 1 38 11
M  V30 42 1 39 11
M  V30 43 1 40 13
M  V30 44 1 41 16
M  V30 45 1 42 17
M  V30 46 1 43 20
M  V30 47 1 21 44 CFG=1
M  V30 48 1 45 24
M  V30 49 1 46 24
M  V30 50 1 47 24
M  V30 51 1 48 26
M  V30 52 1 49 26
M  V30 53 1 50 27
M  V30 54 1 51 27
M  V30 55 1 52 28
M  V30 56 1 53 28
M  V30 57 1 54 29
M  V30 58 1 55 29
M  V30 59 1 56 14
M  V30 END BOND
M  V30 END CTAB
M  END
>  <b_m_subgroup_collapsed>  (1554) 
0

>  <r_i_docking_score>  (1554) 
-7.0045722889897197

>  <s_m_subgroup_title>  (1554) 
glide-dock_SP_D22_pv

>  <s_m_subgroupid>  (1554) 
glide-dock_SP_D22_pv

>  <Molecule ChEMBL ID>  (1554) 
CHEMBL241102

>  <Standard Type>  (1554) 
Ki

>  <Standard Value>  (1554) 
12000.0

>  <label>  (1554) 
0

$$$$
CHEMBL1088000
     RDKit          3D

  0  0  0  0  0  0  0  0  0  0999 V3000
M  V30 BEGIN CTAB
M  V30 COUNTS 67 73 0 0 1
M  V30 BEGIN ATOM
M  V30 1 O 16.658960 1.173058 -21.236464 0
M  V30 2 C 15.568396 0.896320 -20.747675 0
M  V30 3 C 14.854345 -0.407459 -21.133146 0
M  V30 4 C 14.019306 -0.980062 -19.975708 0
M  V30 5 C 13.212755 0.092999 -19.273466 0
M  V30 6 C 11.998586 -0.209531 -18.627342 0
M  V30 7 C 11.325015 0.785607 -17.893072 0
M  V30 8 C 11.869800 2.086761 -17.790836 0
M  V30 9 C 11.172648 3.153895 -16.962477 0
M  V30 10 C 11.483165 3.058964 -15.441737 0 CFG=1
M  V30 11 C 11.580982 4.437230 -14.730020 0
M  V30 12 C 10.235215 4.911508 -14.127398 0 CFG=1
M  V30 13 C 9.110726 4.926141 -15.172770 0
M  V30 14 C 8.464034 3.527643 -15.044300 0
M  V30 15 C 9.322260 2.809076 -14.003390 0 CFG=1
M  V30 16 C 10.547479 2.108291 -14.644868 0
M  V30 17 N 9.775613 3.914065 -13.135079 0 CFG=2 CHG=1
M  V30 18 C 8.725954 4.432284 -12.205479 0
M  V30 19 C 9.337013 4.935728 -10.898608 0 CFG=2
M  V30 20 C 8.360931 5.079834 -9.724276 0
M  V30 21 O 9.075221 5.503751 -8.566710 0
M  V30 22 C 9.889498 6.585626 -8.795529 0
M  V30 23 C 10.264299 6.960072 -10.114164 0
M  V30 24 C 11.045094 8.113892 -10.341665 0
M  V30 25 C 11.497193 8.893098 -9.263193 0
M  V30 26 C 11.170129 8.474916 -7.965425 0
M  V30 27 C 10.389895 7.354160 -7.728814 0
M  V30 28 C 10.212275 7.150727 -6.242825 0
M  V30 29 C 11.064751 8.327327 -5.731155 0
M  V30 30 O 11.286927 8.546710 -4.542468 0
M  V30 31 N 11.548718 9.044139 -6.751006 0
M  V30 32 O 9.891256 6.207639 -11.199133 0
M  V30 33 C 13.070045 2.395296 -18.467848 0
M  V30 34 C 13.735550 1.404169 -19.214319 0
M  V30 35 N 14.945690 1.719189 -19.885084 0
M  V30 36 H 14.201262 -0.180373 -21.977339 0
M  V30 37 H 15.577882 -1.144963 -21.482935 0
M  V30 38 H 14.683838 -1.428949 -19.238119 0
M  V30 39 H 13.361843 -1.769157 -20.339859 0
M  V30 40 H 11.591408 -1.209303 -18.674591 0
M  V30 41 H 10.396135 0.542179 -17.399527 0
M  V30 42 H 10.109977 3.101289 -17.177914 0
M  V30 43 H 11.492247 4.121523 -17.349493 0
M  V30 44 H 12.485125 2.646328 -15.409280 0
M  V30 45 H 11.982439 5.195945 -15.402688 0
M  V30 46 H 12.312051 4.365339 -13.922295 0
M  V30 47 H 10.371192 5.891257 -13.674963 0
M  V30 48 H 9.467657 5.154121 -16.177433 0
M  V30 49 H 8.380708 5.691995 -14.918479 0
M  V30 50 H 8.362211 2.972905 -15.977262 0
M  V30 51 H 7.451287 3.638227 -14.646721 0
M  V30 52 H 8.746899 2.071487 -13.447194 0
M  V30 53 H 11.128013 1.647871 -13.846857 0
M  V30 54 H 10.216496 1.280289 -15.264989 0
M  V30 55 H 7.999387 3.661872 -11.974968 0
M  V30 56 H 8.134096 5.226723 -12.662251 0
M  V30 57 H 10.090201 4.223774 -10.579121 0
M  V30 58 H 7.572642 5.785991 -9.968184 0
M  V30 59 H 7.889061 4.125937 -9.496335 0
M  V30 60 H 11.307148 8.390663 -11.351054 0
M  V30 61 H 12.085904 9.771556 -9.448761 0
M  V30 62 H 9.169364 7.249084 -5.947915 0
M  V30 63 H 10.609838 6.191555 -5.914722 0
M  V30 64 H 12.155381 9.847403 -6.670518 0
M  V30 65 H 13.485415 3.390765 -18.401897 0
M  V30 66 H 15.344743 2.631296 -19.735025 0
M  V30 67 H 10.552992 3.586160 -12.581414 0
M  V30 END ATOM
M  V30 BEGIN BOND
M  V30 1 2 2 1
M  V30 2 1 3 2
M  V30 3 1 4 3
M  V30 4 1 5 4
M  V30 5 1 6 5
M  V30 6 2 7 6
M  V30 7 1 8 7
M  V30 8 1 9 8
M  V30 9 1 10 9
M  V30 10 1 11 10
M  V30 11 1 12 11
M  V30 12 1 13 12
M  V30 13 1 14 13
M  V30 14 1 15 14
M  V30 15 1 16 10
M  V30 16 1 16 15
M  V30 17 1 17 12
M  V30 18 1 17 15
M  V30 19 1 18 17
M  V30 20 1 19 18
M  V30 21 1 20 19
M  V30 22 1 21 20
M  V30 23 1 22 21
M  V30 24 2 23 22
M  V30 25 1 24 23
M  V30 26 2 25 24
M  V30 27 1 26 25
M  V30 28 1 27 22
M  V30 29 2 27 26
M  V30 30 1 28 27
M  V30 31 1 29 28
M  V30 32 2 30 29
M  V30 33 1 31 26
M  V30 34 1 31 29
M  V30 35 1 32 19
M  V30 36 1 32 23
M  V30 37 2 33 8
M  V30 38 2 34 5
M  V30 39 1 34 33
M  V30 40 1 35 2
M  V30 41 1 35 34
M  V30 42 1 36 3
M  V30 43 1 37 3
M  V30 44 1 38 4
M  V30 45 1 39 4
M  V30 46 1 40 6
M  V30 47 1 41 7
M  V30 48 1 42 9
M  V30 49 1 43 9
M  V30 50 1 10 44 CFG=3
M  V30 51 1 45 11
M  V30 52 1 46 11
M  V30 53 1 12 47 CFG=1
M  V30 54 1 48 13
M  V30 55 1 49 13
M  V30 56 1 50 14
M  V30 57 1 51 14
M  V30 58 1 15 52 CFG=1
M  V30 59 1 53 16
M  V30 60 1 54 16
M  V30 61 1 55 18
M  V30 62 1 56 18
M  V30 63 1 19 57 CFG=1
M  V30 64 1 58 20
M  V30 65 1 59 20
M  V30 66 1 60 24
M  V30 67 1 61 25
M  V30 68 1 62 28
M  V30 69 1 63 28
M  V30 70 1 64 31
M  V30 71 1 65 33
M  V30 72 1 66 35
M  V30 73 1 17 67 CFG=1
M  V30 END BOND
M  V30 END CTAB
M  END
>  <b_m_subgroup_collapsed>  (1555) 
0

>  <r_i_docking_score>  (1555) 
-7.0035885046940001

>  <s_m_subgroup_title>  (1555) 
glide-dock_SP_D22_pv

>  <s_m_subgroupid>  (1555) 
glide-dock_SP_D22_pv

>  <Molecule ChEMBL ID>  (1555) 
CHEMBL1088000

>  <Standard Type>  (1555) 
Ki

>  <Standard Value>  (1555) 
16.0

>  <label>  (1555) 
1

$$$$
CHEMBL303979
     RDKit          3D

  0  0  0  0  0  0  0  0  0  0999 V3000
M  V30 BEGIN CTAB
M  V30 COUNTS 40 43 0 0 1
M  V30 BEGIN ATOM
M  V30 1 F 6.530914 2.972903 -14.111618 0
M  V30 2 C 7.683614 3.631374 -13.846673 0
M  V30 3 C 8.881976 3.233346 -14.467910 0
M  V30 4 C 10.079345 3.919884 -14.190334 0
M  V30 5 C 10.088124 5.009585 -13.296762 0
M  V30 6 C 8.887776 5.392193 -12.656647 0
M  V30 7 C 7.686728 4.708293 -12.941066 0
M  V30 8 C 8.893785 6.491717 -11.617804 0 CFG=1
M  V30 9 C 8.722306 5.953140 -10.191898 0
M  V30 10 N 9.333474 6.981144 -9.332343 0 CFG=1 CHG=1
M  V30 11 C 9.473168 6.564977 -7.909856 0
M  V30 12 C 10.244589 7.515889 -6.992145 0
M  V30 13 C 10.174122 8.921281 -7.131025 0
M  V30 14 C 10.886554 9.761048 -6.247150 0
M  V30 15 C 11.629745 9.210640 -5.187360 0
M  V30 16 C 11.677957 7.815666 -5.022141 0
M  V30 17 C 11.007753 6.974781 -5.932266 0
M  V30 18 C 10.571771 7.341908 -10.060403 0
M  V30 19 C 10.170579 7.342331 -11.551342 0 CFG=1
M  V30 20 C 11.271391 6.973208 -12.575921 0
M  V30 21 O 11.288461 5.628063 -13.047767 0
M  V30 22 H 8.881832 2.400404 -15.155507 0
M  V30 23 H 10.997752 3.610324 -14.667319 0
M  V30 24 H 6.767233 4.995681 -12.451017 0
M  V30 25 H 8.059303 7.156597 -11.848283 0
M  V30 26 H 7.681011 5.768422 -9.936911 0
M  V30 27 H 9.266260 5.013740 -10.074548 0
M  V30 28 H 8.475461 6.425546 -7.490687 0
M  V30 29 H 9.960085 5.588968 -7.878370 0
M  V30 30 H 9.577853 9.367299 -7.913817 0
M  V30 31 H 10.848906 10.833586 -6.365988 0
M  V30 32 H 12.158995 9.854743 -4.500972 0
M  V30 33 H 12.244517 7.387196 -4.208442 0
M  V30 34 H 11.064942 5.906054 -5.791299 0
M  V30 35 H 10.974445 8.305388 -9.746565 0
M  V30 36 H 11.331784 6.585915 -9.865156 0
M  V30 37 H 9.875651 8.368816 -11.777398 0
M  V30 38 H 11.193245 7.618153 -13.448400 0
M  V30 39 H 12.252320 7.196541 -12.156092 0
M  V30 40 H 8.698860 7.770409 -9.362833 0
M  V30 END ATOM
M  V30 BEGIN BOND
M  V30 1 1 2 1
M  V30 2 1 3 2
M  V30 3 2 4 3
M  V30 4 1 5 4
M  V30 5 2 6 5
M  V30 6 2 7 2
M  V30 7 1 7 6
M  V30 8 1 8 6
M  V30 9 1 9 8
M  V30 10 1 10 9
M  V30 11 1 11 10
M  V30 12 1 12 11
M  V30 13 2 13 12
M  V30 14 1 14 13
M  V30 15 2 15 14
M  V30 16 1 16 15
M  V30 17 1 17 12
M  V30 18 2 17 16
M  V30 19 1 18 10
M  V30 20 1 19 8
M  V30 21 1 19 18
M  V30 22 1 20 19
M  V30 23 1 21 5
M  V30 24 1 21 20
M  V30 25 1 22 3
M  V30 26 1 23 4
M  V30 27 1 24 7
M  V30 28 1 8 25 CFG=3
M  V30 29 1 26 9
M  V30 30 1 27 9
M  V30 31 1 28 11
M  V30 32 1 29 11
M  V30 33 1 30 13
M  V30 34 1 31 14
M  V30 35 1 32 15
M  V30 36 1 33 16
M  V30 37 1 34 17
M  V30 38 1 35 18
M  V30 39 1 36 18
M  V30 40 1 19 37 CFG=3
M  V30 41 1 38 20
M  V30 42 1 39 20
M  V30 43 1 10 40 CFG=1
M  V30 END BOND
M  V30 END CTAB
M  END
>  <b_m_subgroup_collapsed>  (1556) 
0

>  <r_i_docking_score>  (1556) 
-7.0029213810890196

>  <s_m_subgroup_title>  (1556) 
glide-dock_SP_D22_pv

>  <s_m_subgroupid>  (1556) 
glide-dock_SP_D22_pv

>  <Molecule ChEMBL ID>  (1556) 
CHEMBL303979

>  <Standard Type>  (1556) 
Ki

>  <Standard Value>  (1556) 
25.12

>  <label>  (1556) 
1

$$$$
CHEMBL76849
     RDKit          3D

  0  0  0  0  0  0  0  0  0  0999 V3000
M  V30 BEGIN CTAB
M  V30 COUNTS 52 54 0 0 1
M  V30 BEGIN ATOM
M  V30 1 C 7.243466 2.562449 -13.908807 0
M  V30 2 C 7.264618 1.303553 -14.385670 0
M  V30 3 C 6.089086 0.432782 -14.556192 0
M  V30 4 C 4.923589 0.576389 -13.769856 0
M  V30 5 C 3.773268 -0.189299 -14.046660 0
M  V30 6 C 3.772748 -1.101959 -15.115626 0
M  V30 7 C 4.935933 -1.272416 -15.887494 0
M  V30 8 C 6.085376 -0.506375 -15.609352 0
M  V30 9 C 8.467470 3.444001 -13.758896 0
M  V30 10 O 8.415165 4.172657 -12.543610 0
M  V30 11 C 9.437705 5.150135 -12.423986 0
M  V30 12 C 9.146661 5.988472 -11.169007 0 CFG=1
M  V30 13 C 9.420143 5.224088 -9.865335 0
M  V30 14 C 8.951652 6.055986 -8.665800 0
M  V30 15 N 9.630388 7.382240 -8.618860 0 CFG=2 CHG=1
M  V30 16 C 9.229134 8.186796 -7.436500 0
M  V30 17 C 10.308577 8.174328 -6.364981 0
M  V30 18 C 11.114796 9.309978 -6.136938 0
M  V30 19 C 12.048553 9.310977 -5.080569 0
M  V30 20 C 12.180956 8.184669 -4.246601 0
M  V30 21 C 11.419428 7.031568 -4.505085 0
M  V30 22 C 10.485969 7.033301 -5.557086 0
M  V30 23 C 9.510627 8.142926 -9.893296 0
M  V30 24 C 9.934449 7.306543 -11.116437 0
M  V30 25 H 6.305944 3.017035 -13.625016 0
M  V30 26 H 8.214935 0.874206 -14.668951 0
M  V30 27 H 4.896069 1.293127 -12.962302 0
M  V30 28 H 2.884453 -0.060819 -13.449157 0
M  V30 29 H 2.887245 -1.680211 -15.341861 0
M  V30 30 H 4.941830 -1.984379 -16.700277 0
M  V30 31 H 6.962920 -0.629302 -16.227583 0
M  V30 32 H 9.377936 2.844388 -13.802102 0
M  V30 33 H 8.484446 4.133186 -14.604247 0
M  V30 34 H 10.420315 4.678826 -12.371171 0
M  V30 35 H 9.428275 5.794590 -13.304254 0
M  V30 36 H 8.085876 6.244918 -11.202313 0
M  V30 37 H 8.897255 4.267684 -9.871752 0
M  V30 38 H 10.485184 5.003011 -9.763849 0
M  V30 39 H 9.153247 5.503978 -7.748912 0
M  V30 40 H 7.869899 6.173533 -8.721239 0
M  V30 41 H 9.034063 9.222055 -7.722191 0
M  V30 42 H 8.289758 7.824277 -7.013363 0
M  V30 43 H 11.008900 10.190053 -6.753279 0
M  V30 44 H 12.671732 10.171117 -4.907402 0
M  V30 45 H 12.886266 8.194219 -3.429188 0
M  V30 46 H 11.525529 6.159285 -3.876669 0
M  V30 47 H 9.859365 6.172339 -5.706923 0
M  V30 48 H 10.133506 9.036801 -9.837593 0
M  V30 49 H 8.486129 8.491323 -10.019498 0
M  V30 50 H 11.005609 7.102954 -11.079906 0
M  V30 51 H 9.759841 7.883901 -12.025309 0
M  V30 52 H 10.614854 7.192626 -8.500921 0
M  V30 END ATOM
M  V30 BEGIN BOND
M  V30 1 2 2 1
M  V30 2 1 3 2
M  V30 3 2 4 3
M  V30 4 1 5 4
M  V30 5 2 6 5
M  V30 6 1 7 6
M  V30 7 1 8 3
M  V30 8 2 8 7
M  V30 9 1 9 1
M  V30 10 1 10 9
M  V30 11 1 11 10
M  V30 12 1 12 11
M  V30 13 1 13 12
M  V30 14 1 14 13
M  V30 15 1 15 14
M  V30 16 1 16 15
M  V30 17 1 17 16
M  V30 18 2 18 17
M  V30 19 1 19 18
M  V30 20 2 20 19
M  V30 21 1 21 20
M  V30 22 1 22 17
M  V30 23 2 22 21
M  V30 24 1 23 15
M  V30 25 1 24 12
M  V30 26 1 24 23
M  V30 27 1 25 1
M  V30 28 1 26 2
M  V30 29 1 27 4
M  V30 30 1 28 5
M  V30 31 1 29 6
M  V30 32 1 30 7
M  V30 33 1 31 8
M  V30 34 1 32 9
M  V30 35 1 33 9
M  V30 36 1 34 11
M  V30 37 1 35 11
M  V30 38 1 12 36 CFG=1
M  V30 39 1 37 13
M  V30 40 1 38 13
M  V30 41 1 39 14
M  V30 42 1 40 14
M  V30 43 1 41 16
M  V30 44 1 42 16
M  V30 45 1 43 18
M  V30 46 1 44 19
M  V30 47 1 45 20
M  V30 48 1 46 21
M  V30 49 1 47 22
M  V30 50 1 48 23
M  V30 51 1 49 23
M  V30 52 1 50 24
M  V30 53 1 51 24
M  V30 54 1 15 52 CFG=1
M  V30 END BOND
M  V30 END CTAB
M  END
>  <b_m_subgroup_collapsed>  (1557) 
0

>  <r_i_docking_score>  (1557) 
-7.0026960468422601

>  <s_m_subgroup_title>  (1557) 
glide-dock_SP_D22_pv

>  <s_m_subgroupid>  (1557) 
glide-dock_SP_D22_pv

>  <Molecule ChEMBL ID>  (1557) 
CHEMBL76849

>  <Standard Type>  (1557) 
Ki

>  <Standard Value>  (1557) 
10000.0

>  <label>  (1557) 
0

$$$$
CHEMBL131926
     RDKit          3D

  0  0  0  0  0  0  0  0  0  0999 V3000
M  V30 BEGIN CTAB
M  V30 COUNTS 57 60 0 0 1
M  V30 BEGIN ATOM
M  V30 1 C 12.122921 4.172271 -14.440553 0
M  V30 2 O 11.448360 5.036555 -13.533617 0
M  V30 3 C 10.085879 4.888351 -13.353276 0
M  V30 4 N 9.489382 3.854998 -13.998011 0
M  V30 5 C 8.171114 3.659438 -13.834558 0
M  V30 6 N 7.628899 2.572606 -14.515016 0
M  V30 7 C 7.371294 4.483397 -13.019611 0
M  V30 8 Cl 5.685934 4.173328 -12.815227 0
M  V30 9 C 7.979280 5.568686 -12.360395 0
M  V30 10 C 9.369366 5.787767 -12.514564 0
M  V30 11 C 10.053728 6.956745 -11.846495 0
M  V30 12 O 11.134292 7.372327 -12.257525 0
M  V30 13 N 9.473050 7.456022 -10.740986 0
M  V30 14 C 10.049496 8.465791 -9.844752 0 CFG=1
M  V30 15 C 9.065632 8.839663 -8.719322 0
M  V30 16 C 9.006163 7.829509 -7.549525 0 CFG=1
M  V30 17 C 8.366367 6.472371 -7.930009 0
M  V30 18 C 9.280548 5.314689 -8.246666 0
M  V30 19 C 10.732534 5.691209 -8.454431 0
M  V30 20 C 11.243753 7.084449 -8.031960 0 CFG=1
M  V30 21 C 11.401506 8.059428 -9.214284 0
M  V30 22 N 10.373246 7.664601 -6.994915 0 CFG=2 CHG=1
M  V30 23 C 10.449358 6.951643 -5.696113 0
M  V30 24 C 11.286018 7.663806 -4.646846 0
M  V30 25 C 11.909885 6.888362 -3.649267 0
M  V30 26 C 12.474051 7.503889 -2.520216 0
M  V30 27 C 12.424221 8.901827 -2.380119 0
M  V30 28 C 11.813344 9.680366 -3.380623 0
M  V30 29 C 11.284294 9.071712 -4.531763 0
M  V30 30 H 13.181288 4.431383 -14.463843 0
M  V30 31 H 12.043670 3.128994 -14.133471 0
M  V30 32 H 11.733174 4.276942 -15.453960 0
M  V30 33 H 6.678684 2.281216 -14.337917 0
M  V30 34 H 8.236423 1.906896 -14.968983 0
M  V30 35 H 7.371252 6.213963 -11.743208 0
M  V30 36 H 8.550775 7.118316 -10.493941 0
M  V30 37 H 10.217359 9.355407 -10.451834 0
M  V30 38 H 8.086017 9.059044 -9.128695 0
M  V30 39 H 9.398576 9.772327 -8.284640 0
M  V30 40 H 8.378676 8.285798 -6.781402 0
M  V30 41 H 7.751106 6.572334 -8.820752 0
M  V30 42 H 7.686589 6.164580 -7.133021 0
M  V30 43 H 8.905112 4.771212 -9.116186 0
M  V30 44 H 9.221994 4.593724 -7.446864 0
M  V30 45 H 10.886015 5.520781 -9.510074 0
M  V30 46 H 11.286031 4.972319 -7.867646 0
M  V30 47 H 12.236073 6.972332 -7.594400 0
M  V30 48 H 11.891563 8.963812 -8.849771 0
M  V30 49 H 12.092101 7.649526 -9.950405 0
M  V30 50 H 10.852938 5.949450 -5.823409 0
M  V30 51 H 9.450291 6.807209 -5.290737 0
M  V30 52 H 11.894546 5.809113 -3.705362 0
M  V30 53 H 12.886024 6.890688 -1.734353 0
M  V30 54 H 12.816352 9.372156 -1.489980 0
M  V30 55 H 11.686028 10.741323 -3.233217 0
M  V30 56 H 10.770081 9.691024 -5.251591 0
M  V30 57 H 10.718909 8.594220 -6.811419 0
M  V30 END ATOM
M  V30 BEGIN BOND
M  V30 1 1 2 1
M  V30 2 1 3 2
M  V30 3 1 4 3
M  V30 4 2 5 4
M  V30 5 1 6 5
M  V30 6 1 7 5
M  V30 7 1 8 7
M  V30 8 2 9 7
M  V30 9 2 10 3
M  V30 10 1 10 9
M  V30 11 1 11 10
M  V30 12 2 12 11
M  V30 13 1 13 11
M  V30 14 1 14 13
M  V30 15 1 15 14
M  V30 16 1 16 15
M  V30 17 1 17 16
M  V30 18 1 18 17
M  V30 19 1 19 18
M  V30 20 1 20 19
M  V30 21 1 21 14
M  V30 22 1 21 20
M  V30 23 1 22 16
M  V30 24 1 22 20
M  V30 25 1 23 22
M  V30 26 1 24 23
M  V30 27 2 25 24
M  V30 28 1 26 25
M  V30 29 2 27 26
M  V30 30 1 28 27
M  V30 31 1 29 24
M  V30 32 2 29 28
M  V30 33 1 30 1
M  V30 34 1 31 1
M  V30 35 1 32 1
M  V30 36 1 33 6
M  V30 37 1 34 6
M  V30 38 1 35 9
M  V30 39 1 36 13
M  V30 40 1 14 37 CFG=3
M  V30 41 1 38 15
M  V30 42 1 39 15
M  V30 43 1 16 40 CFG=1
M  V30 44 1 41 17
M  V30 45 1 42 17
M  V30 46 1 43 18
M  V30 47 1 44 18
M  V30 48 1 45 19
M  V30 49 1 46 19
M  V30 50 1 20 47 CFG=1
M  V30 51 1 48 21
M  V30 52 1 49 21
M  V30 53 1 50 23
M  V30 54 1 51 23
M  V30 55 1 52 25
M  V30 56 1 53 26
M  V30 57 1 54 27
M  V30 58 1 55 28
M  V30 59 1 56 29
M  V30 60 1 22 57 CFG=1
M  V30 END BOND
M  V30 END CTAB
M  END
>  <b_m_subgroup_collapsed>  (1558) 
0

>  <r_i_docking_score>  (1558) 
-7.0017866620583602

>  <s_m_subgroup_title>  (1558) 
glide-dock_SP_D22_pv

>  <s_m_subgroupid>  (1558) 
glide-dock_SP_D22_pv

>  <Molecule ChEMBL ID>  (1558) 
CHEMBL131926

>  <Standard Type>  (1558) 
Ki

>  <Standard Value>  (1558) 
1.259

>  <label>  (1558) 
1

$$$$
CHEMBL3526391
     RDKit          3D

  0  0  0  0  0  0  0  0  0  0999 V3000
M  V30 BEGIN CTAB
M  V30 COUNTS 39 42 0 0 1
M  V30 BEGIN ATOM
M  V30 1 C 12.588273 6.926178 -15.921250 0
M  V30 2 C 12.397574 5.703169 -16.586367 0
M  V30 3 C 11.721381 4.655821 -15.936111 0
M  V30 4 C 11.223159 4.829930 -14.629752 0
M  V30 5 C 11.366230 6.076043 -13.962863 0
M  V30 6 C 12.086313 7.100336 -14.618346 0
M  V30 7 N 10.942780 6.367086 -12.656164 0
M  V30 8 C 9.812563 6.033948 -12.111846 0
M  V30 9 N 9.566352 6.385025 -10.781914 0
M  V30 10 C 9.474516 7.809306 -10.445958 0
M  V30 11 C 9.693063 8.095858 -8.949056 0
M  V30 12 N 8.886039 7.192718 -8.103848 0 CHG=1
M  V30 13 C 9.154546 5.773184 -8.397330 0
M  V30 14 C 8.868884 5.470529 -9.872742 0
M  V30 15 C 8.698897 5.271803 -12.794133 0
M  V30 16 C 7.371253 5.719426 -12.596083 0
M  V30 17 C 6.274217 4.967313 -13.046367 0
M  V30 18 C 6.480690 3.778170 -13.765432 0
M  V30 19 C 7.792204 3.351472 -14.029417 0
M  V30 20 C 8.891967 4.083643 -13.542050 0
M  V30 21 S 10.489503 3.441284 -13.846771 0
M  V30 22 H 13.121634 7.729480 -16.409082 0
M  V30 23 H 12.786665 5.561315 -17.584642 0
M  V30 24 H 11.604347 3.705492 -16.435764 0
M  V30 25 H 12.249296 8.045383 -14.120675 0
M  V30 26 H 10.195746 8.386600 -11.028749 0
M  V30 27 H 8.489597 8.165696 -10.749025 0
M  V30 28 H 10.746289 7.964475 -8.696596 0
M  V30 29 H 9.436342 9.130447 -8.720413 0
M  V30 30 H 9.061827 7.378914 -7.127977 0
M  V30 31 H 10.192693 5.536223 -8.156474 0
M  V30 32 H 8.523790 5.149989 -7.765346 0
M  V30 33 H 7.792942 5.551214 -10.035864 0
M  V30 34 H 9.147099 4.438894 -10.096699 0
M  V30 35 H 7.174366 6.624045 -12.040193 0
M  V30 36 H 5.277180 5.319425 -12.846847 0
M  V30 37 H 5.640193 3.204075 -14.124161 0
M  V30 38 H 7.955656 2.440201 -14.586319 0
M  V30 39 H 7.897019 7.368302 -8.283229 0
M  V30 END ATOM
M  V30 BEGIN BOND
M  V30 1 2 2 1
M  V30 2 1 3 2
M  V30 3 2 4 3
M  V30 4 1 5 4
M  V30 5 1 6 1
M  V30 6 2 6 5
M  V30 7 1 7 5
M  V30 8 2 8 7
M  V30 9 1 9 8
M  V30 10 1 10 9
M  V30 11 1 11 10
M  V30 12 1 12 11
M  V30 13 1 13 12
M  V30 14 1 14 9
M  V30 15 1 14 13
M  V30 16 1 15 8
M  V30 17 2 16 15
M  V30 18 1 17 16
M  V30 19 2 18 17
M  V30 20 1 19 18
M  V30 21 1 20 15
M  V30 22 2 20 19
M  V30 23 1 21 4
M  V30 24 1 21 20
M  V30 25 1 22 1
M  V30 26 1 23 2
M  V30 27 1 24 3
M  V30 28 1 25 6
M  V30 29 1 26 10
M  V30 30 1 27 10
M  V30 31 1 28 11
M  V30 32 1 29 11
M  V30 33 1 30 12
M  V30 34 1 31 13
M  V30 35 1 32 13
M  V30 36 1 33 14
M  V30 37 1 34 14
M  V30 38 1 35 16
M  V30 39 1 36 17
M  V30 40 1 37 18
M  V30 41 1 38 19
M  V30 42 1 39 12
M  V30 END BOND
M  V30 END CTAB
M  END
>  <b_m_subgroup_collapsed>  (1559) 
0

>  <r_i_docking_score>  (1559) 
-6.9917063672427497

>  <s_m_subgroup_title>  (1559) 
glide-dock_SP_D22_pv

>  <s_m_subgroupid>  (1559) 
glide-dock_SP_D22_pv

>  <Molecule ChEMBL ID>  (1559) 
CHEMBL3526391

>  <Standard Type>  (1559) 
Ki

>  <Standard Value>  (1559) 
37.0

>  <label>  (1559) 
1

$$$$
CHEMBL392888
     RDKit          3D

  0  0  0  0  0  0  0  0  0  0999 V3000
M  V30 BEGIN CTAB
M  V30 COUNTS 42 44 0 0 1
M  V30 BEGIN ATOM
M  V30 1 C 9.692714 4.032720 -9.135763 0
M  V30 2 N 9.469192 5.466289 -8.946136 0 CHG=1
M  V30 3 C 9.920537 5.998039 -7.796030 0
M  V30 4 N 9.586813 7.216792 -7.346271 0
M  V30 5 C 10.405601 7.852834 -6.356114 0
M  V30 6 C 10.591661 9.245833 -6.473763 0
M  V30 7 C 11.303002 9.949921 -5.482844 0
M  V30 8 C 11.820683 9.222227 -4.398615 0
M  V30 9 C 11.685498 7.844729 -4.301677 0
M  V30 10 C 10.965849 7.124998 -5.276847 0
M  V30 11 C 12.286200 7.323965 -3.018158 0 CFG=2
M  V30 12 O 11.380670 6.572235 -2.246995 0
M  V30 13 C 12.683007 8.602181 -2.238425 0
M  V30 14 C 12.525477 9.783579 -3.206857 0
M  V30 15 C 8.721991 6.208620 -9.983534 0
M  V30 16 C 9.262973 5.978433 -11.386446 0
M  V30 17 C 10.472166 6.581100 -11.794055 0
M  V30 18 C 11.031574 6.265618 -13.047507 0
M  V30 19 C 10.371534 5.367826 -13.908199 0
M  V30 20 C 9.142398 4.798188 -13.523162 0
M  V30 21 C 8.588211 5.103924 -12.265122 0
M  V30 22 H 9.690985 3.772531 -10.191014 0
M  V30 23 H 10.659939 3.734654 -8.737878 0
M  V30 24 H 8.919042 3.461968 -8.621976 0
M  V30 25 H 10.610574 5.401199 -7.216251 0
M  V30 26 H 10.161206 9.772463 -7.310652 0
M  V30 27 H 11.429820 11.020513 -5.544567 0
M  V30 28 H 10.808923 6.064789 -5.157291 0
M  V30 29 H 13.169314 6.728336 -3.236394 0
M  V30 30 H 11.285329 5.707508 -2.621259 0
M  V30 31 H 11.997494 8.759402 -1.404535 0
M  V30 32 H 13.686320 8.572347 -1.813719 0
M  V30 33 H 13.487981 10.172146 -3.531920 0
M  V30 34 H 11.950595 10.589303 -2.753183 0
M  V30 35 H 7.680760 5.897944 -9.939921 0
M  V30 36 H 8.741444 7.278816 -9.782085 0
M  V30 37 H 10.993138 7.256646 -11.131155 0
M  V30 38 H 11.969860 6.708971 -13.347685 0
M  V30 39 H 10.800938 5.127002 -14.869631 0
M  V30 40 H 8.630840 4.116821 -14.186882 0
M  V30 41 H 7.658089 4.641970 -11.965631 0
M  V30 42 H 8.951218 7.764621 -7.911724 0
M  V30 END ATOM
M  V30 BEGIN BOND
M  V30 1 1 2 1
M  V30 2 2 3 2 CFG=2
M  V30 3 1 4 3
M  V30 4 1 5 4
M  V30 5 1 6 5
M  V30 6 2 7 6
M  V30 7 1 8 7
M  V30 8 2 9 8
M  V30 9 2 10 5
M  V30 10 1 10 9
M  V30 11 1 11 9
M  V30 12 1 12 11
M  V30 13 1 13 11
M  V30 14 1 14 8
M  V30 15 1 14 13
M  V30 16 1 15 2
M  V30 17 1 16 15
M  V30 18 2 17 16
M  V30 19 1 18 17
M  V30 20 2 19 18
M  V30 21 1 20 19
M  V30 22 1 21 16
M  V30 23 2 21 20
M  V30 24 1 22 1
M  V30 25 1 23 1
M  V30 26 1 24 1
M  V30 27 1 25 3
M  V30 28 1 26 6
M  V30 29 1 27 7
M  V30 30 1 28 10
M  V30 31 1 11 29 CFG=3
M  V30 32 1 30 12
M  V30 33 1 31 13
M  V30 34 1 32 13
M  V30 35 1 33 14
M  V30 36 1 34 14
M  V30 37 1 35 15
M  V30 38 1 36 15
M  V30 39 1 37 17
M  V30 40 1 38 18
M  V30 41 1 39 19
M  V30 42 1 40 20
M  V30 43 1 41 21
M  V30 44 1 42 4
M  V30 END BOND
M  V30 END CTAB
M  END
>  <b_m_subgroup_collapsed>  (1560) 
0

>  <r_i_docking_score>  (1560) 
-6.9909100553168404

>  <s_m_subgroup_title>  (1560) 
glide-dock_SP_D22_pv

>  <s_m_subgroupid>  (1560) 
glide-dock_SP_D22_pv

>  <Molecule ChEMBL ID>  (1560) 
CHEMBL392888

>  <Standard Type>  (1560) 
Ki

>  <Standard Value>  (1560) 
59000.0

>  <label>  (1560) 
0

$$$$
CHEMBL2048230
     RDKit          3D

  0  0  0  0  0  0  0  0  0  0999 V3000
M  V30 BEGIN CTAB
M  V30 COUNTS 41 42 0 0 1
M  V30 BEGIN ATOM
M  V30 1 C 6.057746 4.188756 -13.162709 0
M  V30 2 C 6.670986 4.759055 -11.880657 0
M  V30 3 C 8.019760 5.474901 -12.092496 0
M  V30 4 N 8.482800 6.170524 -10.863930 0 CFG=2 CHG=1
M  V30 5 C 9.552909 7.167639 -11.130068 0
M  V30 6 C 9.906786 7.963238 -9.858778 0
M  V30 7 C 10.315070 7.031057 -8.693590 0 CFG=1
M  V30 8 C 10.677109 7.746295 -7.387939 0
M  V30 9 C 10.743619 9.151836 -7.296136 0
M  V30 10 C 11.069010 9.783868 -6.081054 0
M  V30 11 C 11.346287 9.031095 -4.926003 0
M  V30 12 O 11.655398 9.732509 -3.780278 0
M  V30 13 C 12.072845 9.002172 -2.637032 0
M  V30 14 C 11.289105 7.617949 -5.013880 0
M  V30 15 C 10.968298 6.988107 -6.231649 0
M  V30 16 C 9.183974 6.006345 -8.484343 0
M  V30 17 C 8.876390 5.240182 -9.775049 0
M  V30 18 H 5.147936 3.630373 -12.938949 0
M  V30 19 H 5.779466 4.984805 -13.848117 0
M  V30 20 H 6.743479 3.515907 -13.677857 0
M  V30 21 H 6.784771 3.934677 -11.177276 0
M  V30 22 H 5.954010 5.456908 -11.446643 0
M  V30 23 H 7.897798 6.208822 -12.889605 0
M  V30 24 H 8.777455 4.767308 -12.433988 0
M  V30 25 H 9.220219 7.856646 -11.906662 0
M  V30 26 H 10.438275 6.658605 -11.513895 0
M  V30 27 H 9.046664 8.568645 -9.564175 0
M  V30 28 H 10.713831 8.659986 -10.090458 0
M  V30 29 H 11.216139 6.497960 -8.997500 0
M  V30 30 H 10.545512 9.762882 -8.157127 0
M  V30 31 H 11.109510 10.862709 -6.031107 0
M  V30 32 H 12.319158 9.703220 -1.840544 0
M  V30 33 H 11.285965 8.345765 -2.267516 0
M  V30 34 H 12.962668 8.408473 -2.843498 0
M  V30 35 H 11.492455 6.992824 -4.157465 0
M  V30 36 H 10.956196 5.908889 -6.262560 0
M  V30 37 H 9.444483 5.284594 -7.712538 0
M  V30 38 H 8.285430 6.515263 -8.130640 0
M  V30 39 H 8.085523 4.528147 -9.555839 0
M  V30 40 H 9.742284 4.650329 -10.081668 0
M  V30 41 H 7.677565 6.710489 -10.535293 0
M  V30 END ATOM
M  V30 BEGIN BOND
M  V30 1 1 2 1
M  V30 2 1 3 2
M  V30 3 1 4 3
M  V30 4 1 5 4
M  V30 5 1 6 5
M  V30 6 1 7 6
M  V30 7 1 8 7
M  V30 8 1 9 8
M  V30 9 2 10 9
M  V30 10 1 11 10
M  V30 11 1 12 11
M  V30 12 1 13 12
M  V30 13 2 14 11
M  V30 14 2 15 8
M  V30 15 1 15 14
M  V30 16 1 16 7
M  V30 17 1 17 4
M  V30 18 1 17 16
M  V30 19 1 18 1
M  V30 20 1 19 1
M  V30 21 1 20 1
M  V30 22 1 21 2
M  V30 23 1 22 2
M  V30 24 1 23 3
M  V30 25 1 24 3
M  V30 26 1 25 5
M  V30 27 1 26 5
M  V30 28 1 27 6
M  V30 29 1 28 6
M  V30 30 1 7 29 CFG=3
M  V30 31 1 30 9
M  V30 32 1 31 10
M  V30 33 1 32 13
M  V30 34 1 33 13
M  V30 35 1 34 13
M  V30 36 1 35 14
M  V30 37 1 36 15
M  V30 38 1 37 16
M  V30 39 1 38 16
M  V30 40 1 39 17
M  V30 41 1 40 17
M  V30 42 1 4 41 CFG=1
M  V30 END BOND
M  V30 END CTAB
M  END
>  <b_m_subgroup_collapsed>  (1561) 
0

>  <r_i_docking_score>  (1561) 
-6.9889308585736796

>  <s_m_subgroup_title>  (1561) 
glide-dock_SP_D22_pv

>  <s_m_subgroupid>  (1561) 
glide-dock_SP_D22_pv

>  <Molecule ChEMBL ID>  (1561) 
CHEMBL2048230

>  <Standard Type>  (1561) 
Ki

>  <Standard Value>  (1561) 
23000.0

>  <label>  (1561) 
0

$$$$
CHEMBL561054
     RDKit          3D

  0  0  0  0  0  0  0  0  0  0999 V3000
M  V30 BEGIN CTAB
M  V30 COUNTS 47 49 0 0 1
M  V30 BEGIN ATOM
M  V30 1 C 7.112253 6.814712 -12.702055 0
M  V30 2 C 7.444597 5.609962 -11.794622 0 CFG=1
M  V30 3 C 6.836711 4.298372 -12.328441 0
M  V30 4 C 7.562198 3.799851 -13.586287 0
M  V30 5 C 9.073858 3.695413 -13.346024 0
M  V30 6 C 9.646935 5.005844 -12.789866 0
M  V30 7 N 8.909753 5.433390 -11.568466 0 CFG=1 CHG=1
M  V30 8 C 9.570509 6.543975 -10.835772 0
M  V30 9 C 9.297849 6.447199 -9.326817 0
M  V30 10 N 10.034372 7.415360 -8.512008 0
M  V30 11 C 10.853141 8.497321 -9.040380 0
M  V30 12 C 11.505464 9.072116 -7.783198 0
M  V30 13 N 10.940041 8.263811 -6.716460 0
M  V30 14 C 11.298875 8.435910 -5.355624 0
M  V30 15 C 11.309415 9.727226 -4.790999 0
M  V30 16 C 11.686116 9.898702 -3.446749 0
M  V30 17 C 12.086035 8.806121 -2.664757 0
M  V30 18 C 12.070618 7.519726 -3.223582 0
M  V30 19 Cl 12.486011 6.176420 -2.246910 0
M  V30 20 C 11.681303 7.328537 -4.562144 0
M  V30 21 C 10.063603 7.357487 -7.175807 0
M  V30 22 O 9.415549 6.572325 -6.491370 0
M  V30 23 H 6.052457 6.828791 -12.961448 0
M  V30 24 H 7.326600 7.777920 -12.246815 0
M  V30 25 H 7.686187 6.786837 -13.622861 0
M  V30 26 H 6.971756 5.772324 -10.828430 0
M  V30 27 H 5.774891 4.434735 -12.538455 0
M  V30 28 H 6.885466 3.538279 -11.547993 0
M  V30 29 H 7.376209 4.493231 -14.402641 0
M  V30 30 H 7.160692 2.834631 -13.896517 0
M  V30 31 H 9.580207 3.430622 -14.275174 0
M  V30 32 H 9.287365 2.890058 -12.646774 0
M  V30 33 H 9.627223 5.784899 -13.549943 0
M  V30 34 H 10.699260 4.842470 -12.560833 0
M  V30 35 H 9.272438 7.515584 -11.228405 0
M  V30 36 H 10.646249 6.477951 -10.990754 0
M  V30 37 H 9.558808 5.444718 -8.981623 0
M  V30 38 H 8.234231 6.572298 -9.118362 0
M  V30 39 H 11.607914 8.135938 -9.738909 0
M  V30 40 H 10.229865 9.237438 -9.543530 0
M  V30 41 H 11.285610 10.129533 -7.646305 0
M  V30 42 H 12.589725 8.951376 -7.807710 0
M  V30 43 H 11.019156 10.588018 -5.375516 0
M  V30 44 H 11.686038 10.885688 -3.009178 0
M  V30 45 H 12.375586 8.954506 -1.634000 0
M  V30 46 H 11.676995 6.328844 -4.973871 0
M  V30 47 H 8.977840 4.641992 -10.944302 0
M  V30 END ATOM
M  V30 BEGIN BOND
M  V30 1 1 2 1
M  V30 2 1 3 2
M  V30 3 1 4 3
M  V30 4 1 5 4
M  V30 5 1 6 5
M  V30 6 1 7 2
M  V30 7 1 7 6
M  V30 8 1 8 7
M  V30 9 1 9 8
M  V30 10 1 10 9
M  V30 11 1 11 10
M  V30 12 1 12 11
M  V30 13 1 13 12
M  V30 14 1 14 13
M  V30 15 2 15 14
M  V30 16 1 16 15
M  V30 17 2 17 16
M  V30 18 1 18 17
M  V30 19 1 19 18
M  V30 20 1 20 14
M  V30 21 2 20 18
M  V30 22 1 21 10
M  V30 23 1 21 13
M  V30 24 2 22 21
M  V30 25 1 23 1
M  V30 26 1 24 1
M  V30 27 1 25 1
M  V30 28 1 2 26 CFG=1
M  V30 29 1 27 3
M  V30 30 1 28 3
M  V30 31 1 29 4
M  V30 32 1 30 4
M  V30 33 1 31 5
M  V30 34 1 32 5
M  V30 35 1 33 6
M  V30 36 1 34 6
M  V30 37 1 35 8
M  V30 38 1 36 8
M  V30 39 1 37 9
M  V30 40 1 38 9
M  V30 41 1 39 11
M  V30 42 1 40 11
M  V30 43 1 41 12
M  V30 44 1 42 12
M  V30 45 1 43 15
M  V30 46 1 44 16
M  V30 47 1 45 17
M  V30 48 1 46 20
M  V30 49 1 7 47 CFG=1
M  V30 END BOND
M  V30 END CTAB
M  END
>  <b_m_subgroup_collapsed>  (1562) 
0

>  <r_i_docking_score>  (1562) 
-6.9877935455984197

>  <s_m_subgroup_title>  (1562) 
glide-dock_SP_D22_pv

>  <s_m_subgroupid>  (1562) 
glide-dock_SP_D22_pv

>  <Molecule ChEMBL ID>  (1562) 
CHEMBL561054

>  <Standard Type>  (1562) 
Ki

>  <Standard Value>  (1562) 
25.12

>  <label>  (1562) 
1

$$$$
CHEMBL4862301
     RDKit          3D

  0  0  0  0  0  0  0  0  0  0999 V3000
M  V30 BEGIN CTAB
M  V30 COUNTS 60 63 0 0 1
M  V30 BEGIN ATOM
M  V30 1 C 6.750334 -0.497151 -13.651179 0
M  V30 2 O 7.766130 0.440446 -13.976242 0
M  V30 3 C 7.875811 0.863655 -15.284551 0
M  V30 4 C 7.065470 0.371064 -16.339403 0
M  V30 5 C 7.238341 0.839613 -17.654184 0
M  V30 6 C 8.223633 1.802633 -17.933613 0
M  V30 7 C 9.024223 2.306566 -16.893604 0
M  V30 8 C 8.853188 1.851972 -15.568439 0
M  V30 9 C 9.723343 2.393717 -14.469317 0 CFG=1
M  V30 10 C 10.145828 3.843640 -14.419888 0
M  V30 11 C 9.175684 3.308249 -13.388367 0 CFG=1
M  V30 12 C 7.720427 3.755133 -13.387678 0
M  V30 13 N 7.306325 4.383914 -12.118014 0 CHG=1
M  V30 14 C 7.712507 5.788791 -11.922562 0
M  V30 15 C 9.133768 5.931095 -11.354989 0
M  V30 16 C 9.501972 7.384176 -11.006146 0
M  V30 17 C 10.895007 7.482787 -10.382741 0
M  V30 18 O 10.891080 6.824481 -9.116603 0
M  V30 19 C 10.920245 7.551733 -7.945936 0
M  V30 20 C 10.759694 8.956595 -7.865791 0
M  V30 21 C 10.885622 9.620287 -6.630563 0
M  V30 22 C 11.149345 8.890211 -5.456841 0
M  V30 23 C 11.279284 7.488385 -5.518455 0
M  V30 24 C 11.152748 6.828697 -6.757788 0
M  V30 25 N 11.616735 6.755638 -4.351495 0
M  V30 26 C 12.086007 7.308990 -3.219432 0
M  V30 27 O 12.400256 6.629977 -2.247001 0
M  V30 28 C 12.266062 8.834232 -3.180689 0
M  V30 29 C 11.303214 9.582033 -4.118640 0
M  V30 30 H 6.806526 -0.735860 -12.588065 0
M  V30 31 H 5.756908 -0.091611 -13.849157 0
M  V30 32 H 6.878064 -1.427750 -14.202202 0
M  V30 33 H 6.306303 -0.378953 -16.165688 0
M  V30 34 H 6.624252 0.445594 -18.451744 0
M  V30 35 H 8.373199 2.150622 -18.945276 0
M  V30 36 H 9.781260 3.042675 -17.119442 0
M  V30 37 H 10.459481 1.650010 -14.170687 0
M  V30 38 H 11.152412 4.068274 -14.070343 0
M  V30 39 H 9.757592 4.521994 -15.177027 0
M  V30 40 H 9.585797 3.110342 -12.399412 0
M  V30 41 H 7.514240 4.409591 -14.235619 0
M  V30 42 H 7.088536 2.878021 -13.515079 0
M  V30 43 H 6.295242 4.383402 -12.098370 0
M  V30 44 H 7.575586 6.372071 -12.836244 0
M  V30 45 H 7.008113 6.171083 -11.195416 0
M  V30 46 H 9.222114 5.313677 -10.459071 0
M  V30 47 H 9.863517 5.547857 -12.068716 0
M  V30 48 H 9.463419 7.991932 -11.909370 0
M  V30 49 H 8.771477 7.806413 -10.315505 0
M  V30 50 H 11.614196 6.972330 -11.021298 0
M  V30 51 H 11.252049 8.510826 -10.361497 0
M  V30 52 H 10.544693 9.555594 -8.735116 0
M  V30 53 H 10.785779 10.692174 -6.595773 0
M  V30 54 H 11.285338 5.760077 -6.813733 0
M  V30 55 H 11.542502 5.748607 -4.389123 0
M  V30 56 H 12.167466 9.204216 -2.158823 0
M  V30 57 H 13.284529 9.052479 -3.496674 0
M  V30 58 H 11.685507 10.573145 -4.310163 0
M  V30 59 H 10.337057 9.731876 -3.644562 0
M  V30 60 H 7.627157 3.835704 -11.331753 0
M  V30 END ATOM
M  V30 BEGIN BOND
M  V30 1 1 2 1
M  V30 2 1 3 2
M  V30 3 2 4 3
M  V30 4 1 5 4
M  V30 5 2 6 5
M  V30 6 1 7 6
M  V30 7 1 8 3
M  V30 8 2 8 7
M  V30 9 1 9 8
M  V30 10 1 10 9
M  V30 11 1 11 9
M  V30 12 1 11 10
M  V30 13 1 12 11
M  V30 14 1 13 12
M  V30 15 1 14 13
M  V30 16 1 15 14
M  V30 17 1 16 15
M  V30 18 1 17 16
M  V30 19 1 18 17
M  V30 20 1 19 18
M  V30 21 1 20 19
M  V30 22 2 21 20
M  V30 23 1 22 21
M  V30 24 2 23 22
M  V30 25 2 24 19
M  V30 26 1 24 23
M  V30 27 1 25 23
M  V30 28 1 26 25
M  V30 29 2 27 26
M  V30 30 1 28 26
M  V30 31 1 29 22
M  V30 32 1 29 28
M  V30 33 1 30 1
M  V30 34 1 31 1
M  V30 35 1 32 1
M  V30 36 1 33 4
M  V30 37 1 34 5
M  V30 38 1 35 6
M  V30 39 1 36 7
M  V30 40 1 9 37 CFG=1
M  V30 41 1 38 10
M  V30 42 1 39 10
M  V30 43 1 11 40 CFG=1
M  V30 44 1 41 12
M  V30 45 1 42 12
M  V30 46 1 43 13
M  V30 47 1 44 14
M  V30 48 1 45 14
M  V30 49 1 46 15
M  V30 50 1 47 15
M  V30 51 1 48 16
M  V30 52 1 49 16
M  V30 53 1 50 17
M  V30 54 1 51 17
M  V30 55 1 52 20
M  V30 56 1 53 21
M  V30 57 1 54 24
M  V30 58 1 55 25
M  V30 59 1 56 28
M  V30 60 1 57 28
M  V30 61 1 58 29
M  V30 62 1 59 29
M  V30 63 1 60 13
M  V30 END BOND
M  V30 END CTAB
M  END
>  <b_m_subgroup_collapsed>  (1563) 
0

>  <r_i_docking_score>  (1563) 
-6.98529932869228

>  <s_m_subgroup_title>  (1563) 
glide-dock_SP_D22_pv

>  <s_m_subgroupid>  (1563) 
glide-dock_SP_D22_pv

>  <Molecule ChEMBL ID>  (1563) 
CHEMBL4862301

>  <Standard Type>  (1563) 
Ki

>  <Standard Value>  (1563) 
61.9

>  <label>  (1563) 
1

$$$$
CHEMBL104497
     RDKit          3D

  0  0  0  0  0  0  0  0  0  0999 V3000
M  V30 BEGIN CTAB
M  V30 COUNTS 57 60 0 0 1
M  V30 BEGIN ATOM
M  V30 1 C 11.819287 3.957494 -14.176988 0
M  V30 2 C 10.977326 3.847138 -15.457603 0 CFG=1
M  V30 3 C 11.834282 3.277851 -16.616587 0
M  V30 4 C 11.226411 1.933100 -16.860104 0
M  V30 5 C 11.686327 0.960137 -17.763227 0
M  V30 6 C 10.976295 -0.252770 -17.853157 0
M  V30 7 C 9.837864 -0.472676 -17.047195 0
M  V30 8 C 9.395683 0.512349 -16.137737 0
M  V30 9 C 10.106018 1.731826 -16.060484 0
M  V30 10 N 9.870830 2.886542 -15.258542 0
M  V30 11 C 8.771414 3.113555 -14.488858 0
M  V30 12 O 7.933579 2.247355 -14.248442 0
M  V30 13 C 8.501085 4.530830 -13.934680 0
M  V30 14 C 7.916049 4.585687 -12.493600 0 CFG=1
M  V30 15 C 8.985412 4.531629 -11.375959 0
M  V30 16 C 9.776696 5.847470 -11.205960 0
M  V30 17 N 8.885595 7.030126 -11.114159 0 CFG=1 CHG=1
M  V30 18 C 9.588463 8.311840 -10.894438 0
M  V30 19 C 10.161003 8.401884 -9.493720 0
M  V30 20 C 9.285903 8.456448 -8.390829 0
M  V30 21 C 9.786487 8.569129 -7.084909 0
M  V30 22 C 11.175518 8.654938 -6.873259 0
M  V30 23 N 11.685891 8.860149 -5.517019 0 CHG=1
M  V30 24 O 12.485439 9.772011 -5.343898 0
M  V30 25 O 11.286122 8.108752 -4.637226 0 CHG=-1
M  V30 26 C 12.059333 8.573730 -7.972320 0
M  V30 27 C 11.553778 8.446498 -9.279570 0
M  V30 28 C 7.927795 7.089879 -12.247737 0
M  V30 29 C 7.050705 5.836453 -12.274860 0
M  V30 30 H 12.736626 4.528811 -14.339312 0
M  V30 31 H 11.282570 4.422904 -13.355789 0
M  V30 32 H 12.085994 2.957128 -13.846634 0
M  V30 33 H 10.607677 4.827902 -15.761271 0
M  V30 34 H 12.889316 3.179592 -16.360281 0
M  V30 35 H 11.750251 3.886826 -17.518007 0
M  V30 36 H 12.561774 1.138874 -18.370584 0
M  V30 37 H 11.305260 -1.016546 -18.542191 0
M  V30 38 H 9.304683 -1.407244 -17.126646 0
M  V30 39 H 8.525099 0.309196 -15.534017 0
M  V30 40 H 9.361960 5.185484 -14.001614 0
M  V30 41 H 7.779944 4.961866 -14.628120 0
M  V30 42 H 7.246826 3.734620 -12.354781 0
M  V30 43 H 8.481103 4.314243 -10.432977 0
M  V30 44 H 9.677797 3.704185 -11.543427 0
M  V30 45 H 10.458807 5.991570 -12.042685 0
M  V30 46 H 10.385750 5.778241 -10.303193 0
M  V30 47 H 10.367554 8.448294 -11.643939 0
M  V30 48 H 8.886378 9.138640 -11.012359 0
M  V30 49 H 8.217158 8.425880 -8.536700 0
M  V30 50 H 9.099145 8.621408 -6.251576 0
M  V30 51 H 13.125928 8.644905 -7.824264 0
M  V30 52 H 12.240966 8.414813 -10.112959 0
M  V30 53 H 8.485996 7.144157 -13.164927 0
M  V30 54 H 7.303325 7.984461 -12.246679 0
M  V30 55 H 6.286896 5.917607 -13.046809 0
M  V30 56 H 6.501689 5.757530 -11.335485 0
M  V30 57 H 8.282104 6.921229 -10.303526 0
M  V30 END ATOM
M  V30 BEGIN BOND
M  V30 1 1 2 1
M  V30 2 1 3 2
M  V30 3 1 4 3
M  V30 4 2 5 4
M  V30 5 1 6 5
M  V30 6 2 7 6
M  V30 7 1 8 7
M  V30 8 1 9 4
M  V30 9 2 9 8
M  V30 10 1 10 2
M  V30 11 1 10 9
M  V30 12 1 11 10
M  V30 13 2 12 11
M  V30 14 1 13 11
M  V30 15 1 14 13
M  V30 16 1 15 14
M  V30 17 1 16 15
M  V30 18 1 17 16
M  V30 19 1 18 17
M  V30 20 1 19 18
M  V30 21 1 20 19
M  V30 22 2 21 20
M  V30 23 1 22 21
M  V30 24 1 23 22
M  V30 25 2 24 23
M  V30 26 1 25 23
M  V30 27 2 26 22
M  V30 28 2 27 19
M  V30 29 1 27 26
M  V30 30 1 28 17
M  V30 31 1 29 14
M  V30 32 1 29 28
M  V30 33 1 30 1
M  V30 34 1 31 1
M  V30 35 1 32 1
M  V30 36 1 2 33 CFG=3
M  V30 37 1 34 3
M  V30 38 1 35 3
M  V30 39 1 36 5
M  V30 40 1 37 6
M  V30 41 1 38 7
M  V30 42 1 39 8
M  V30 43 1 40 13
M  V30 44 1 41 13
M  V30 45 1 14 42 CFG=1
M  V30 46 1 43 15
M  V30 47 1 44 15
M  V30 48 1 45 16
M  V30 49 1 46 16
M  V30 50 1 47 18
M  V30 51 1 48 18
M  V30 52 1 49 20
M  V30 53 1 50 21
M  V30 54 1 51 26
M  V30 55 1 52 27
M  V30 56 1 53 28
M  V30 57 1 54 28
M  V30 58 1 55 29
M  V30 59 1 56 29
M  V30 60 1 17 57 CFG=1
M  V30 END BOND
M  V30 END CTAB
M  END
>  <b_m_subgroup_collapsed>  (1564) 
0

>  <r_i_docking_score>  (1564) 
-6.9852161601352796

>  <s_m_subgroup_title>  (1564) 
glide-dock_SP_D22_pv

>  <s_m_subgroupid>  (1564) 
glide-dock_SP_D22_pv

>  <Molecule ChEMBL ID>  (1564) 
CHEMBL104497

>  <Standard Type>  (1564) 
Ki

>  <Standard Value>  (1564) 
10000.0

>  <label>  (1564) 
0

$$$$
CHEMBL1255588
     RDKit          3D

  0  0  0  0  0  0  0  0  0  0999 V3000
M  V30 BEGIN CTAB
M  V30 COUNTS 59 63 0 0 1
M  V30 BEGIN ATOM
M  V30 1 C 10.312175 5.772646 -7.948733 0
M  V30 2 C 9.856772 7.193679 -8.346306 0
M  V30 3 C 10.959033 8.203081 -7.934725 0
M  V30 4 C 8.638545 7.488200 -7.450085 0
M  V30 5 C 9.549869 7.272808 -9.903046 0 CFG=1
M  V30 6 O 8.886024 8.489974 -10.200974 0
M  V30 7 C 10.857624 7.361185 -10.730744 0
M  V30 8 C 10.631897 7.322218 -12.247015 0
M  V30 9 N 9.810404 6.172339 -12.674653 0 CFG=1 CHG=1
M  V30 10 C 10.485997 4.867919 -12.731328 0
M  V30 11 C 9.715816 3.967520 -13.694878 0 CFG=2
M  V30 12 C 9.955497 4.247060 -15.193368 0
M  V30 13 C 10.719510 5.371808 -15.608831 0
M  V30 14 C 10.949717 5.650140 -16.966946 0
M  V30 15 C 10.428609 4.801582 -17.951788 0
M  V30 16 C 9.693937 3.670011 -17.567123 0
M  V30 17 C 9.454654 3.373976 -16.206451 0
M  V30 18 C 8.664389 2.089699 -15.963421 0
M  V30 19 C 8.186901 1.750953 -14.548103 0
M  V30 20 C 7.435457 2.871124 -13.846920 0
M  V30 21 C 6.060105 2.838028 -13.566439 0
M  V30 22 C 5.454564 3.862780 -12.826756 0
M  V30 23 C 6.228042 4.917298 -12.312239 0
M  V30 24 C 7.617628 4.973589 -12.541630 0
M  V30 25 C 8.214389 3.942910 -13.340449 0
M  V30 26 C 8.505192 6.102392 -11.996206 0 CFG=1
M  V30 27 C 8.670904 6.096663 -10.448278 0
M  V30 28 H 10.886041 5.299606 -8.731037 0
M  V30 29 H 9.467754 5.100246 -7.794949 0
M  V30 30 H 10.900401 5.772394 -7.030717 0
M  V30 31 H 11.094828 8.232104 -6.853031 0
M  V30 32 H 10.709894 9.216031 -8.253339 0
M  V30 33 H 11.933276 7.947649 -8.351235 0
M  V30 34 H 8.928440 7.625801 -6.408170 0
M  V30 35 H 7.966248 6.634265 -7.446926 0
M  V30 36 H 8.086332 8.381172 -7.744795 0
M  V30 37 H 7.925920 8.322641 -10.245815 0
M  V30 38 H 11.386424 8.290819 -10.516925 0
M  V30 39 H 11.537416 6.572393 -10.432874 0
M  V30 40 H 10.090075 8.217850 -12.552092 0
M  V30 41 H 11.582472 7.335668 -12.781564 0
M  V30 42 H 11.527825 4.950589 -13.046884 0
M  V30 43 H 10.485796 4.408436 -11.745263 0
M  V30 44 H 10.163432 2.995957 -13.500074 0
M  V30 45 H 11.158075 6.063457 -14.909825 0
M  V30 46 H 11.527344 6.517490 -17.252493 0
M  V30 47 H 10.601157 5.010330 -18.997585 0
M  V30 48 H 9.312087 3.013610 -18.335651 0
M  V30 49 H 7.779142 2.146670 -16.598707 0
M  V30 50 H 9.250254 1.252836 -16.345394 0
M  V30 51 H 7.507913 0.900902 -14.626621 0
M  V30 52 H 8.992583 1.362642 -13.927317 0
M  V30 53 H 5.458734 2.010766 -13.912333 0
M  V30 54 H 4.393055 3.820942 -12.646914 0
M  V30 55 H 5.751617 5.689175 -11.722659 0
M  V30 56 H 7.977819 7.021261 -12.258960 0
M  V30 57 H 9.090788 5.135506 -10.159762 0
M  V30 58 H 7.691710 6.122021 -9.971049 0
M  V30 59 H 9.580563 6.361495 -13.640199 0
M  V30 END ATOM
M  V30 BEGIN BOND
M  V30 1 1 2 1
M  V30 2 1 3 2
M  V30 3 1 4 2
M  V30 4 1 5 2
M  V30 5 1 5 6 CFG=1
M  V30 6 1 7 5
M  V30 7 1 8 7
M  V30 8 1 9 8
M  V30 9 1 10 9
M  V30 10 1 11 10
M  V30 11 1 12 11
M  V30 12 2 13 12
M  V30 13 1 14 13
M  V30 14 2 15 14
M  V30 15 1 16 15
M  V30 16 1 17 12
M  V30 17 2 17 16
M  V30 18 1 18 17
M  V30 19 1 19 18
M  V30 20 1 20 19
M  V30 21 1 21 20
M  V30 22 2 22 21
M  V30 23 1 23 22
M  V30 24 2 24 23
M  V30 25 1 25 11
M  V30 26 2 25 20
M  V30 27 1 25 24
M  V30 28 1 26 9
M  V30 29 1 26 24
M  V30 30 1 27 5
M  V30 31 1 27 26
M  V30 32 1 28 1
M  V30 33 1 29 1
M  V30 34 1 30 1
M  V30 35 1 31 3
M  V30 36 1 32 3
M  V30 37 1 33 3
M  V30 38 1 34 4
M  V30 39 1 35 4
M  V30 40 1 36 4
M  V30 41 1 37 6
M  V30 42 1 38 7
M  V30 43 1 39 7
M  V30 44 1 40 8
M  V30 45 1 41 8
M  V30 46 1 42 10
M  V30 47 1 43 10
M  V30 48 1 11 44 CFG=1
M  V30 49 1 45 13
M  V30 50 1 46 14
M  V30 51 1 47 15
M  V30 52 1 48 16
M  V30 53 1 49 18
M  V30 54 1 50 18
M  V30 55 1 51 19
M  V30 56 1 52 19
M  V30 57 1 53 21
M  V30 58 1 54 22
M  V30 59 1 55 23
M  V30 60 1 26 56 CFG=1
M  V30 61 1 57 27
M  V30 62 1 58 27
M  V30 63 1 9 59 CFG=3
M  V30 END BOND
M  V30 END CTAB
M  END
>  <b_m_subgroup_collapsed>  (1565) 
0

>  <r_i_docking_score>  (1565) 
-6.9826331355547797

>  <s_m_subgroup_title>  (1565) 
glide-dock_SP_D22_pv

>  <s_m_subgroupid>  (1565) 
glide-dock_SP_D22_pv

>  <Molecule ChEMBL ID>  (1565) 
CHEMBL1255588

>  <Standard Type>  (1565) 
Ki

>  <Standard Value>  (1565) 
0.37

>  <label>  (1565) 
1

$$$$
CHEMBL197159
     RDKit          3D

  0  0  0  0  0  0  0  0  0  0999 V3000
M  V30 BEGIN CTAB
M  V30 COUNTS 40 41 0 0 1
M  V30 BEGIN ATOM
M  V30 1 C 8.895255 5.086221 -10.135761 0
M  V30 2 C 9.398911 4.957620 -8.690983 0
M  V30 3 C 9.089414 6.169827 -7.791426 0
M  V30 4 N 10.089761 7.270787 -7.921020 0 CHG=1
M  V30 5 C 9.667814 8.231835 -8.988830 0
M  V30 6 C 10.830658 8.751857 -9.866441 0
M  V30 7 C 11.670314 7.676733 -10.562122 0
M  V30 8 C 10.438841 7.893671 -6.593677 0 CFG=2
M  V30 9 C 11.258945 9.207480 -6.698762 0
M  V30 10 C 11.525721 9.888290 -5.346590 0
M  V30 11 N 11.815411 8.922628 -4.311031 0
M  V30 12 N 12.211107 9.330180 -3.091430 0
M  V30 13 C 12.365756 8.206857 -2.409434 0
M  V30 14 C 12.057672 7.049123 -3.180047 0
M  V30 15 C 11.685947 7.555880 -4.394085 0
M  V30 16 C 11.215158 6.913761 -5.661931 0
M  V30 17 H 9.077449 4.172314 -10.695492 0
M  V30 18 H 9.396568 5.878930 -10.680980 0
M  V30 19 H 7.823591 5.286949 -10.170129 0
M  V30 20 H 8.906293 4.085086 -8.258336 0
M  V30 21 H 10.465410 4.732408 -8.676474 0
M  V30 22 H 8.086081 6.543338 -7.977071 0
M  V30 23 H 9.041965 5.800773 -6.771521 0
M  V30 24 H 8.946959 7.770260 -9.662343 0
M  V30 25 H 9.108280 9.058887 -8.549520 0
M  V30 26 H 10.397063 9.372204 -10.645428 0
M  V30 27 H 11.500380 9.407770 -9.316736 0
M  V30 28 H 12.505057 8.133685 -11.095117 0
M  V30 29 H 11.088283 7.124226 -11.298053 0
M  V30 30 H 12.086237 6.972357 -9.846867 0
M  V30 31 H 9.495519 8.152985 -6.109378 0
M  V30 32 H 12.218546 8.990879 -7.171501 0
M  V30 33 H 10.762236 9.946520 -7.316642 0
M  V30 34 H 12.367802 10.572086 -5.446855 0
M  V30 35 H 10.657842 10.470146 -5.031467 0
M  V30 36 H 12.691774 8.266284 -1.381369 0
M  V30 37 H 12.085746 6.011390 -2.879893 0
M  V30 38 H 10.597651 6.067670 -5.379836 0
M  V30 39 H 12.080410 6.499918 -6.184563 0
M  V30 40 H 10.932684 6.834428 -8.263745 0
M  V30 END ATOM
M  V30 BEGIN BOND
M  V30 1 1 2 1
M  V30 2 1 3 2
M  V30 3 1 4 3
M  V30 4 1 5 4
M  V30 5 1 6 5
M  V30 6 1 7 6
M  V30 7 1 8 4
M  V30 8 1 9 8
M  V30 9 1 10 9
M  V30 10 1 11 10
M  V30 11 1 12 11
M  V30 12 2 13 12
M  V30 13 1 14 13
M  V30 14 1 15 11
M  V30 15 2 15 14
M  V30 16 1 16 8
M  V30 17 1 16 15
M  V30 18 1 17 1
M  V30 19 1 18 1
M  V30 20 1 19 1
M  V30 21 1 20 2
M  V30 22 1 21 2
M  V30 23 1 22 3
M  V30 24 1 23 3
M  V30 25 1 24 5
M  V30 26 1 25 5
M  V30 27 1 26 6
M  V30 28 1 27 6
M  V30 29 1 28 7
M  V30 30 1 29 7
M  V30 31 1 30 7
M  V30 32 1 8 31 CFG=1
M  V30 33 1 32 9
M  V30 34 1 33 9
M  V30 35 1 34 10
M  V30 36 1 35 10
M  V30 37 1 36 13
M  V30 38 1 37 14
M  V30 39 1 38 16
M  V30 40 1 39 16
M  V30 41 1 40 4
M  V30 END BOND
M  V30 END CTAB
M  END
>  <b_m_subgroup_collapsed>  (1566) 
0

>  <r_i_docking_score>  (1566) 
-6.9821888227284097

>  <s_m_subgroup_title>  (1566) 
glide-dock_SP_D22_pv

>  <s_m_subgroupid>  (1566) 
glide-dock_SP_D22_pv

>  <Molecule ChEMBL ID>  (1566) 
CHEMBL197159

>  <Standard Type>  (1566) 
Ki

>  <Standard Value>  (1566) 
20000.0

>  <label>  (1566) 
0

$$$$
CHEMBL133085
     RDKit          3D

  0  0  0  0  0  0  0  0  0  0999 V3000
M  V30 BEGIN CTAB
M  V30 COUNTS 39 40 0 0 1
M  V30 BEGIN ATOM
M  V30 1 C 8.542276 4.759916 -8.753236 0
M  V30 2 C 9.735867 5.708466 -8.679069 0
M  V30 3 C 9.286063 7.191949 -8.632647 0
M  V30 4 N 10.337049 8.185059 -8.346847 0
M  V30 5 C 11.584949 8.106005 -9.124604 0
M  V30 6 C 11.436554 7.707400 -10.586823 0
M  V30 7 C 12.423920 7.772308 -11.490482 0
M  V30 8 I 12.086023 6.972431 -13.472596 0
M  V30 9 C 10.503184 8.440179 -6.902319 0 CFG=2
M  V30 10 C 11.359353 9.678569 -6.566102 0
M  V30 11 O 11.304235 9.965290 -5.179029 0
M  V30 12 C 11.651284 8.927847 -4.349112 0
M  V30 13 C 12.085809 9.210654 -3.046448 0
M  V30 14 O 12.086021 10.493443 -2.646865 0
M  V30 15 C 12.485813 8.198071 -2.159650 0
M  V30 16 C 12.411204 6.861729 -2.576622 0
M  V30 17 C 11.937151 6.572302 -3.864516 0
M  V30 18 C 11.553858 7.585666 -4.750905 0
M  V30 19 C 11.020405 7.220570 -6.115157 0
M  V30 20 H 8.859173 3.723391 -8.646846 0
M  V30 21 H 7.827137 4.972280 -7.957800 0
M  V30 22 H 8.033388 4.861296 -9.711403 0
M  V30 23 H 10.377739 5.515347 -9.535441 0
M  V30 24 H 10.326056 5.423690 -7.816160 0
M  V30 25 H 8.486038 7.307341 -7.899652 0
M  V30 26 H 8.817928 7.447912 -9.583114 0
M  V30 27 H 12.108715 9.060907 -9.085741 0
M  V30 28 H 12.245116 7.372329 -8.667428 0
M  V30 29 H 10.490478 7.310538 -10.918469 0
M  V30 30 H 13.407346 8.172351 -11.291882 0
M  V30 31 H 9.509660 8.671516 -6.514234 0
M  V30 32 H 10.985878 10.572310 -7.046872 0
M  V30 33 H 12.400660 9.549340 -6.865471 0
M  V30 34 H 12.786539 10.736834 -2.045396 0
M  V30 35 H 12.821607 8.440570 -1.162245 0
M  V30 36 H 12.699795 6.060967 -1.911023 0
M  V30 37 H 11.875416 5.550765 -4.192183 0
M  V30 38 H 11.817598 6.701963 -6.645278 0
M  V30 39 H 10.207085 6.512033 -5.958945 0
M  V30 END ATOM
M  V30 BEGIN BOND
M  V30 1 1 2 1
M  V30 2 1 3 2
M  V30 3 1 4 3
M  V30 4 1 5 4
M  V30 5 1 6 5
M  V30 6 2 7 6
M  V30 7 1 8 7
M  V30 8 1 9 4
M  V30 9 1 10 9
M  V30 10 1 11 10
M  V30 11 1 12 11
M  V30 12 2 13 12
M  V30 13 1 14 13
M  V30 14 1 15 13
M  V30 15 2 16 15
M  V30 16 1 17 16
M  V30 17 1 18 12
M  V30 18 2 18 17
M  V30 19 1 19 9
M  V30 20 1 19 18
M  V30 21 1 20 1
M  V30 22 1 21 1
M  V30 23 1 22 1
M  V30 24 1 23 2
M  V30 25 1 24 2
M  V30 26 1 25 3
M  V30 27 1 26 3
M  V30 28 1 27 5
M  V30 29 1 28 5
M  V30 30 1 29 6
M  V30 31 1 30 7
M  V30 32 1 9 31 CFG=1
M  V30 33 1 32 10
M  V30 34 1 33 10
M  V30 35 1 34 14
M  V30 36 1 35 15
M  V30 37 1 36 16
M  V30 38 1 37 17
M  V30 39 1 38 19
M  V30 40 1 39 19
M  V30 END BOND
M  V30 END CTAB
M  END
>  <b_m_subgroup_collapsed>  (1567) 
0

>  <r_i_docking_score>  (1567) 
-6.9820491356742798

>  <s_m_subgroup_title>  (1567) 
glide-dock_SP_D22_pv

>  <s_m_subgroupid>  (1567) 
glide-dock_SP_D22_pv

>  <Molecule ChEMBL ID>  (1567) 
CHEMBL133085

>  <Standard Type>  (1567) 
Ki

>  <Standard Value>  (1567) 
10.8

>  <label>  (1567) 
1

$$$$
CHEMBL2159455
     RDKit          3D

  0  0  0  0  0  0  0  0  0  0999 V3000
M  V30 BEGIN CTAB
M  V30 COUNTS 60 63 0 0 1
M  V30 BEGIN ATOM
M  V30 1 O 11.286140 10.572487 -6.646852 0
M  V30 2 S 11.296781 9.136633 -6.950430 0
M  V30 3 O 12.312140 8.568339 -7.848160 0
M  V30 4 N 9.718550 8.715938 -7.510112 0
M  V30 5 C 9.305091 7.345987 -7.823615 0
M  V30 6 C 10.230047 6.616454 -8.825828 0 CFG=1
M  V30 7 C 9.685469 5.219172 -9.162819 0
M  V30 8 C 8.483379 5.284340 -10.116633 0
M  V30 9 N 8.801151 6.026826 -11.364926 0 CFG=1 CHG=1
M  V30 10 C 7.687528 6.006613 -12.349339 0
M  V30 11 C 7.686987 4.700085 -13.155373 0
M  V30 12 O 8.860292 4.735968 -13.954332 0
M  V30 13 C 9.356000 3.569316 -14.497290 0
M  V30 14 C 8.650602 2.339479 -14.482375 0
M  V30 15 C 9.217105 1.182253 -15.047408 0
M  V30 16 C 10.485817 1.244968 -15.647248 0
M  V30 17 C 11.181439 2.467345 -15.686418 0
M  V30 18 C 10.631402 3.635092 -15.113820 0
M  V30 19 C 11.383422 4.903690 -15.174615 0
M  V30 20 C 11.831742 5.412777 -16.414396 0
M  V30 21 C 12.519600 6.639668 -16.486685 0
M  V30 22 C 12.770939 7.374277 -15.313988 0
M  V30 23 C 12.342256 6.874501 -14.070566 0
M  V30 24 C 11.660495 5.644437 -14.004046 0
M  V30 25 C 9.283115 7.402473 -11.081299 0
M  V30 26 C 10.496566 7.389149 -10.139761 0
M  V30 27 C 11.512810 8.360513 -5.387868 0
M  V30 28 C 11.338886 7.055916 -4.996378 0
M  V30 29 C 11.686169 6.865983 -3.622773 0
M  V30 30 C 12.085141 8.038177 -3.039273 0
M  V30 31 Cl 12.513496 8.408248 -1.446867 0
M  V30 32 S 12.086143 9.372419 -4.107207 0
M  V30 33 H 9.395337 9.378812 -8.213915 0
M  V30 34 H 9.221077 6.779962 -6.896730 0
M  V30 35 H 8.295907 7.404502 -8.219189 0
M  V30 36 H 11.183869 6.454769 -8.324386 0
M  V30 37 H 10.475643 4.620792 -9.608649 0
M  V30 38 H 9.400661 4.695915 -8.248354 0
M  V30 39 H 7.655108 5.772322 -9.613469 0
M  V30 40 H 8.151296 4.272760 -10.345239 0
M  V30 41 H 6.732405 6.161641 -11.843691 0
M  V30 42 H 7.789567 6.837208 -13.048275 0
M  V30 43 H 7.664715 3.840360 -12.485639 0
M  V30 44 H 6.809625 4.643687 -13.800918 0
M  V30 45 H 7.667449 2.254521 -14.045918 0
M  V30 46 H 8.675254 0.247949 -15.024240 0
M  V30 47 H 10.923722 0.358135 -16.083082 0
M  V30 48 H 12.155729 2.503634 -16.152863 0
M  V30 49 H 11.633020 4.865304 -17.324892 0
M  V30 50 H 12.844625 7.022280 -17.443510 0
M  V30 51 H 13.285700 8.321002 -15.369088 0
M  V30 52 H 12.546078 7.429815 -13.166998 0
M  V30 53 H 11.337395 5.266736 -13.045952 0
M  V30 54 H 8.486044 8.003604 -10.650166 0
M  V30 55 H 9.566039 7.887712 -12.016973 0
M  V30 56 H 10.802320 8.415380 -9.939543 0
M  V30 57 H 11.343692 6.941847 -10.657677 0
M  V30 58 H 11.008950 6.245712 -5.627817 0
M  V30 59 H 11.616524 5.911405 -3.121759 0
M  V30 60 H 9.571382 5.548340 -11.809377 0
M  V30 END ATOM
M  V30 BEGIN BOND
M  V30 1 2 2 1
M  V30 2 2 3 2
M  V30 3 1 4 2
M  V30 4 1 5 4
M  V30 5 1 6 5
M  V30 6 1 7 6
M  V30 7 1 8 7
M  V30 8 1 9 8
M  V30 9 1 10 9
M  V30 10 1 11 10
M  V30 11 1 12 11
M  V30 12 1 13 12
M  V30 13 2 14 13
M  V30 14 1 15 14
M  V30 15 2 16 15
M  V30 16 1 17 16
M  V30 17 1 18 13
M  V30 18 2 18 17
M  V30 19 1 19 18
M  V30 20 2 20 19
M  V30 21 1 21 20
M  V30 22 2 22 21
M  V30 23 1 23 22
M  V30 24 1 24 19
M  V30 25 2 24 23
M  V30 26 1 25 9
M  V30 27 1 26 6
M  V30 28 1 26 25
M  V30 29 1 27 2
M  V30 30 2 28 27
M  V30 31 1 29 28
M  V30 32 2 30 29
M  V30 33 1 31 30
M  V30 34 1 32 27
M  V30 35 1 32 30
M  V30 36 1 33 4
M  V30 37 1 34 5
M  V30 38 1 35 5
M  V30 39 1 6 36 CFG=1
M  V30 40 1 37 7
M  V30 41 1 38 7
M  V30 42 1 39 8
M  V30 43 1 40 8
M  V30 44 1 41 10
M  V30 45 1 42 10
M  V30 46 1 43 11
M  V30 47 1 44 11
M  V30 48 1 45 14
M  V30 49 1 46 15
M  V30 50 1 47 16
M  V30 51 1 48 17
M  V30 52 1 49 20
M  V30 53 1 50 21
M  V30 54 1 51 22
M  V30 55 1 52 23
M  V30 56 1 53 24
M  V30 57 1 54 25
M  V30 58 1 55 25
M  V30 59 1 56 26
M  V30 60 1 57 26
M  V30 61 1 58 28
M  V30 62 1 59 29
M  V30 63 1 9 60 CFG=3
M  V30 END BOND
M  V30 END CTAB
M  END
>  <b_m_subgroup_collapsed>  (1568) 
0

>  <r_i_docking_score>  (1568) 
-6.9749049665333898

>  <s_m_subgroup_title>  (1568) 
glide-dock_SP_D22_pv

>  <s_m_subgroupid>  (1568) 
glide-dock_SP_D22_pv

>  <Molecule ChEMBL ID>  (1568) 
CHEMBL2159455

>  <Standard Type>  (1568) 
Ki

>  <Standard Value>  (1568) 
32.0

>  <label>  (1568) 
1

$$$$
CHEMBL3221299
     RDKit          3D

  0  0  0  0  0  0  0  0  0  0999 V3000
M  V30 BEGIN CTAB
M  V30 COUNTS 49 51 0 0 1
M  V30 BEGIN ATOM
M  V30 1 C 9.687407 4.805953 -8.963942 0
M  V30 2 C 8.499965 5.711931 -8.623098 0
M  V30 3 N 8.887147 7.082451 -8.203345 0 CFG=1 CHG=1
M  V30 4 C 9.285275 7.200275 -6.779942 0
M  V30 5 C 10.547362 8.063814 -6.744833 0
M  V30 6 C 10.485333 8.832072 -8.057942 0
M  V30 7 C 9.892143 7.808641 -9.026457 0 CFG=2
M  V30 8 C 9.311734 8.467668 -10.292620 0
M  V30 9 N 8.886282 7.505970 -11.304995 0
M  V30 10 C 9.799174 6.823085 -12.129379 0
M  V30 11 N 11.050580 7.344989 -12.239888 0 CHG=1
M  V30 12 N 12.003189 6.859189 -13.046564 0
M  V30 13 C 11.713078 5.759043 -13.768981 0
M  V30 14 C 10.466990 5.109161 -13.709965 0
M  V30 15 C 10.229285 3.953664 -14.474643 0
M  V30 16 C 8.980319 3.315907 -14.405685 0
M  V30 17 C 7.954306 3.830059 -13.576060 0
M  V30 18 O 6.718417 3.230333 -13.447501 0
M  V30 19 C 6.484025 2.007536 -14.130683 0
M  V30 20 C 8.193056 5.005143 -12.818193 0
M  V30 21 O 7.205570 5.466440 -11.982944 0
M  V30 22 C 6.105396 6.092218 -12.631061 0
M  V30 23 C 9.462058 5.650163 -12.869302 0
M  V30 24 H 9.378583 3.765951 -8.964207 0
M  V30 25 H 10.086740 5.021589 -9.953340 0
M  V30 26 H 10.498257 4.920872 -8.246913 0
M  V30 27 H 7.904436 5.261915 -7.828646 0
M  V30 28 H 7.831022 5.773030 -9.479144 0
M  V30 29 H 9.456950 6.234666 -6.301642 0
M  V30 30 H 8.472692 7.696576 -6.248982 0
M  V30 31 H 11.432753 7.427118 -6.729362 0
M  V30 32 H 10.589471 8.716553 -5.872751 0
M  V30 33 H 11.457905 9.208732 -8.376852 0
M  V30 34 H 9.808796 9.679026 -7.943083 0
M  V30 35 H 10.709774 7.142662 -9.302508 0
M  V30 36 H 10.050028 9.141093 -10.720581 0
M  V30 37 H 8.464833 9.098552 -10.027922 0
M  V30 38 H 7.921671 7.183515 -11.233416 0
M  V30 39 H 12.508652 5.387311 -14.399448 0
M  V30 40 H 11.000017 3.546139 -15.113862 0
M  V30 41 H 8.836909 2.424266 -14.997395 0
M  V30 42 H 5.491179 1.640525 -13.869475 0
M  V30 43 H 6.516087 2.147362 -15.211548 0
M  V30 44 H 7.202372 1.236869 -13.847231 0
M  V30 45 H 5.317033 6.268220 -11.898562 0
M  V30 46 H 6.400238 7.061491 -13.034326 0
M  V30 47 H 5.680945 5.495409 -13.439789 0
M  V30 48 H 11.269163 8.187576 -11.709186 0
M  V30 49 H 8.010705 7.595810 -8.263059 0
M  V30 END ATOM
M  V30 BEGIN BOND
M  V30 1 1 2 1
M  V30 2 1 3 2
M  V30 3 1 4 3
M  V30 4 1 5 4
M  V30 5 1 6 5
M  V30 6 1 7 3
M  V30 7 1 7 6
M  V30 8 1 8 7
M  V30 9 1 9 8
M  V30 10 1 10 9
M  V30 11 1 11 10
M  V30 12 2 12 11
M  V30 13 1 13 12
M  V30 14 2 14 13
M  V30 15 1 15 14
M  V30 16 2 16 15
M  V30 17 1 17 16
M  V30 18 1 18 17
M  V30 19 1 19 18
M  V30 20 2 20 17
M  V30 21 1 21 20
M  V30 22 1 22 21
M  V30 23 2 23 10
M  V30 24 1 23 14
M  V30 25 1 23 20
M  V30 26 1 24 1
M  V30 27 1 25 1
M  V30 28 1 26 1
M  V30 29 1 27 2
M  V30 30 1 28 2
M  V30 31 1 29 4
M  V30 32 1 30 4
M  V30 33 1 31 5
M  V30 34 1 32 5
M  V30 35 1 33 6
M  V30 36 1 34 6
M  V30 37 1 7 35 CFG=3
M  V30 38 1 36 8
M  V30 39 1 37 8
M  V30 40 1 38 9
M  V30 41 1 39 13
M  V30 42 1 40 15
M  V30 43 1 41 16
M  V30 44 1 42 19
M  V30 45 1 43 19
M  V30 46 1 44 19
M  V30 47 1 45 22
M  V30 48 1 46 22
M  V30 49 1 47 22
M  V30 50 1 48 11
M  V30 51 1 3 49 CFG=1
M  V30 END BOND
M  V30 END CTAB
M  END
>  <b_m_subgroup_collapsed>  (1569) 
0

>  <r_i_docking_score>  (1569) 
-6.9732176598518203

>  <s_m_subgroup_title>  (1569) 
glide-dock_SP_D22_pv

>  <s_m_subgroupid>  (1569) 
glide-dock_SP_D22_pv

>  <Molecule ChEMBL ID>  (1569) 
CHEMBL3221299

>  <Standard Type>  (1569) 
Ki

>  <Standard Value>  (1569) 
3.9

>  <label>  (1569) 
1

$$$$
CHEMBL104160
     RDKit          3D

  0  0  0  0  0  0  0  0  0  0999 V3000
M  V30 BEGIN CTAB
M  V30 COUNTS 63 66 0 0 1
M  V30 BEGIN ATOM
M  V30 1 C 11.292032 1.161933 -17.517214 0
M  V30 2 C 11.016456 1.459893 -16.028261 0 CFG=1
M  V30 3 C 11.683692 2.774688 -15.600177 0
M  V30 4 C 10.758045 4.012402 -15.521252 0
M  V30 5 C 10.156221 4.391359 -16.900461 0
M  V30 6 C 11.726049 5.181399 -15.185212 0
M  V30 7 N 9.626524 3.657048 -14.588470 0
M  V30 8 C 9.298404 4.223675 -13.371559 0
M  V30 9 O 8.402667 3.773212 -12.664020 0
M  V30 10 C 9.992906 5.475573 -12.815083 0
M  V30 11 N 9.419771 6.140838 -11.604078 0
M  V30 12 C 10.135339 7.403438 -11.384762 0
M  V30 13 C 9.505857 8.203046 -10.229144 0
M  V30 14 N 9.530672 7.411726 -8.977417 0 CHG=1
M  V30 15 C 9.061317 8.170115 -7.788397 0
M  V30 16 C 10.088203 8.171975 -6.659521 0
M  V30 17 C 10.663650 9.372828 -6.185982 0
M  V30 18 C 11.436007 9.380487 -5.009526 0
M  V30 19 C 11.686548 8.181498 -4.321806 0
M  V30 20 Cl 12.486147 8.205112 -2.796482 0
M  V30 21 C 11.231224 6.965894 -4.857695 0
M  V30 22 C 10.417543 6.968204 -6.007364 0
M  V30 23 C 8.835770 6.113073 -9.187507 0
M  V30 24 C 9.468468 5.347785 -10.361567 0
M  V30 25 C 8.877384 2.487604 -15.020956 0
M  V30 26 C 7.469204 2.388152 -14.839776 0
M  V30 27 C 6.766514 1.222806 -15.179151 0
M  V30 28 C 7.436790 0.158329 -15.784479 0
M  V30 29 C 8.813230 0.249683 -16.034981 0
M  V30 30 C 9.535952 1.408926 -15.680479 0
M  V30 31 H 10.952941 0.168247 -17.807667 0
M  V30 32 H 10.801449 1.881486 -18.171745 0
M  V30 33 H 12.360953 1.196802 -17.729769 0
M  V30 34 H 11.481689 0.654159 -15.462180 0
M  V30 35 H 12.562958 2.966401 -16.217173 0
M  V30 36 H 12.075357 2.619463 -14.594705 0
M  V30 37 H 10.936584 4.562243 -17.642540 0
M  V30 38 H 9.493468 3.631725 -17.312841 0
M  V30 39 H 9.569302 5.308896 -16.828081 0
M  V30 40 H 12.485922 5.265973 -15.963620 0
M  V30 41 H 11.252647 6.161558 -15.177294 0
M  V30 42 H 12.298238 5.022412 -14.272634 0
M  V30 43 H 11.040520 5.255405 -12.646734 0
M  V30 44 H 9.903456 6.172177 -13.629259 0
M  V30 45 H 11.192534 7.216085 -11.186129 0
M  V30 46 H 10.087728 8.013913 -12.287216 0
M  V30 47 H 10.069430 9.125129 -10.083132 0
M  V30 48 H 8.486164 8.495633 -10.479935 0
M  V30 49 H 8.825362 9.201628 -8.055704 0
M  V30 50 H 8.130213 7.751273 -7.403294 0
M  V30 51 H 10.478624 10.321101 -6.660296 0
M  V30 52 H 11.796931 10.313581 -4.609715 0
M  V30 53 H 11.428723 6.038247 -4.340133 0
M  V30 54 H 10.000335 6.035494 -6.350518 0
M  V30 55 H 8.912839 5.507440 -8.284892 0
M  V30 56 H 7.769917 6.229722 -9.377364 0
M  V30 57 H 8.940359 4.402928 -10.452834 0
M  V30 58 H 10.485945 5.096409 -10.097795 0
M  V30 59 H 6.899071 3.199126 -14.411846 0
M  V30 60 H 5.709277 1.138463 -14.979105 0
M  V30 61 H 6.895100 -0.738046 -16.051193 0
M  V30 62 H 9.308941 -0.587910 -16.501999 0
M  V30 63 H 10.499790 7.193637 -8.800667 0
M  V30 END ATOM
M  V30 BEGIN BOND
M  V30 1 1 2 1
M  V30 2 1 3 2
M  V30 3 1 4 3
M  V30 4 1 5 4
M  V30 5 1 6 4
M  V30 6 1 7 4
M  V30 7 1 8 7
M  V30 8 2 9 8
M  V30 9 1 10 8
M  V30 10 1 11 10
M  V30 11 1 12 11
M  V30 12 1 13 12
M  V30 13 1 14 13
M  V30 14 1 15 14
M  V30 15 1 16 15
M  V30 16 1 17 16
M  V30 17 2 18 17
M  V30 18 1 19 18
M  V30 19 1 20 19
M  V30 20 2 21 19
M  V30 21 2 22 16
M  V30 22 1 22 21
M  V30 23 1 23 14
M  V30 24 1 24 11
M  V30 25 1 24 23
M  V30 26 1 25 7
M  V30 27 2 26 25
M  V30 28 1 27 26
M  V30 29 2 28 27
M  V30 30 1 29 28
M  V30 31 1 30 2
M  V30 32 1 30 25
M  V30 33 2 30 29
M  V30 34 1 31 1
M  V30 35 1 32 1
M  V30 36 1 33 1
M  V30 37 1 2 34 CFG=1
M  V30 38 1 35 3
M  V30 39 1 36 3
M  V30 40 1 37 5
M  V30 41 1 38 5
M  V30 42 1 39 5
M  V30 43 1 40 6
M  V30 44 1 41 6
M  V30 45 1 42 6
M  V30 46 1 43 10
M  V30 47 1 44 10
M  V30 48 1 45 12
M  V30 49 1 46 12
M  V30 50 1 47 13
M  V30 51 1 48 13
M  V30 52 1 49 15
M  V30 53 1 50 15
M  V30 54 1 51 17
M  V30 55 1 52 18
M  V30 56 1 53 21
M  V30 57 1 54 22
M  V30 58 1 55 23
M  V30 59 1 56 23
M  V30 60 1 57 24
M  V30 61 1 58 24
M  V30 62 1 59 26
M  V30 63 1 60 27
M  V30 64 1 61 28
M  V30 65 1 62 29
M  V30 66 1 63 14
M  V30 END BOND
M  V30 END CTAB
M  END
>  <b_m_subgroup_collapsed>  (1570) 
0

>  <r_i_docking_score>  (1570) 
-6.9727053473072402

>  <s_m_subgroup_title>  (1570) 
glide-dock_SP_D22_pv

>  <s_m_subgroupid>  (1570) 
glide-dock_SP_D22_pv

>  <Molecule ChEMBL ID>  (1570) 
CHEMBL104160

>  <Standard Type>  (1570) 
Ki

>  <Standard Value>  (1570) 
35.0

>  <label>  (1570) 
1

$$$$
CHEMBL1081649
     RDKit          3D

  0  0  0  0  0  0  0  0  0  0999 V3000
M  V30 BEGIN CTAB
M  V30 COUNTS 61 65 0 0 1
M  V30 BEGIN ATOM
M  V30 1 C 12.174099 6.978253 -2.367802 0
M  V30 2 O 12.086222 6.573423 -3.724363 0
M  V30 3 C 11.608804 7.481656 -4.641419 0
M  V30 4 C 11.454767 8.865709 -4.380203 0
M  V30 5 C 10.886599 9.702124 -5.356007 0
M  V30 6 C 10.486542 9.159962 -6.589680 0
M  V30 7 C 10.676167 7.801401 -6.899599 0
M  V30 8 C 10.300311 7.288243 -8.234586 0
M  V30 9 C 10.356320 8.120858 -9.376363 0
M  V30 10 C 10.058052 7.622508 -10.655972 0
M  V30 11 C 9.714541 6.267828 -10.841864 0
M  V30 12 C 9.626032 5.740619 -12.251822 0
M  V30 13 O 10.488291 6.121692 -13.045397 0
M  V30 14 N 8.619882 4.908482 -12.627701 0
M  V30 15 C 8.545947 4.463720 -14.025936 0
M  V30 16 C 7.875277 3.094145 -14.223788 0
M  V30 17 N 6.657235 2.817793 -13.447316 0
M  V30 18 C 6.026882 1.598393 -13.447094 0
M  V30 19 O 5.286038 1.263596 -12.518788 0
M  V30 20 C 6.047921 0.676810 -14.653563 0
M  V30 21 C 7.161459 0.472629 -15.507406 0
M  V30 22 C 7.026351 -0.229740 -16.720682 0
M  V30 23 C 5.809066 -0.847480 -17.082552 0
M  V30 24 C 5.353858 -1.619602 -18.206240 0
M  V30 25 C 4.054196 -1.966701 -17.944660 0
M  V30 26 N 3.687323 -1.438848 -16.719244 0
M  V30 27 C 4.736451 -0.744721 -16.154535 0
M  V30 28 C 4.854501 -0.022658 -14.956994 0
M  V30 29 C 6.310742 3.839525 -12.429961 0 CFG=2
M  V30 30 C 5.431973 4.918110 -13.039996 0
M  V30 31 C 7.527602 4.491947 -11.742583 0
M  V30 32 C 9.654585 5.430215 -9.704692 0
M  V30 33 C 9.910843 5.945288 -8.420266 0
M  V30 34 C 11.242719 6.974163 -5.904532 0
M  V30 35 H 12.521890 6.133617 -1.774282 0
M  V30 36 H 12.885131 7.792295 -2.232871 0
M  V30 37 H 11.202557 7.282148 -1.976534 0
M  V30 38 H 11.737896 9.300011 -3.433155 0
M  V30 39 H 10.738903 10.752502 -5.152908 0
M  V30 40 H 10.007399 9.779176 -7.322335 0
M  V30 41 H 10.667174 9.151279 -9.296211 0
M  V30 42 H 10.142248 8.281247 -11.507976 0
M  V30 43 H 8.047199 5.234993 -14.609116 0
M  V30 44 H 9.541263 4.383982 -14.467204 0
M  V30 45 H 7.679569 2.972177 -15.287888 0
M  V30 46 H 8.617726 2.354086 -13.921188 0
M  V30 47 H 8.141913 0.853279 -15.287110 0
M  V30 48 H 7.880219 -0.335723 -17.372885 0
M  V30 49 H 5.937479 -1.885967 -19.075251 0
M  V30 50 H 3.361352 -2.565950 -18.519064 0
M  V30 51 H 2.789222 -1.621167 -16.294703 0
M  V30 52 H 3.986020 0.066942 -14.319862 0
M  V30 53 H 5.727474 3.410406 -11.613568 0
M  V30 54 H 5.286005 5.716583 -12.314345 0
M  V30 55 H 5.962959 5.372271 -13.846878 0
M  V30 56 H 4.487978 4.546353 -13.441061 0
M  V30 57 H 7.921490 3.772418 -11.046016 0
M  V30 58 H 7.192502 5.334873 -11.134574 0
M  V30 59 H 9.473086 4.371711 -9.793432 0
M  V30 60 H 9.845024 5.283478 -7.573274 0
M  V30 61 H 11.399584 5.924317 -6.097679 0
M  V30 END ATOM
M  V30 BEGIN BOND
M  V30 1 1 2 1
M  V30 2 1 3 2
M  V30 3 1 4 3
M  V30 4 2 5 4
M  V30 5 1 6 5
M  V30 6 2 7 6
M  V30 7 1 8 7
M  V30 8 1 9 8
M  V30 9 2 10 9
M  V30 10 1 11 10
M  V30 11 1 12 11
M  V30 12 2 13 12
M  V30 13 1 14 12
M  V30 14 1 15 14
M  V30 15 1 16 15
M  V30 16 1 17 16
M  V30 17 1 18 17
M  V30 18 2 19 18
M  V30 19 1 20 18
M  V30 20 2 21 20
M  V30 21 1 22 21
M  V30 22 2 23 22
M  V30 23 1 24 23
M  V30 24 2 25 24
M  V30 25 1 26 25
M  V30 26 1 27 23
M  V30 27 1 27 26
M  V30 28 1 28 20
M  V30 29 2 28 27
M  V30 30 1 29 17
M  V30 31 1 30 29
M  V30 32 1 31 14
M  V30 33 1 31 29
M  V30 34 2 32 11
M  V30 35 2 33 8
M  V30 36 1 33 32
M  V30 37 2 34 3
M  V30 38 1 34 7
M  V30 39 1 35 1
M  V30 40 1 36 1
M  V30 41 1 37 1
M  V30 42 1 38 4
M  V30 43 1 39 5
M  V30 44 1 40 6
M  V30 45 1 41 9
M  V30 46 1 42 10
M  V30 47 1 43 15
M  V30 48 1 44 15
M  V30 49 1 45 16
M  V30 50 1 46 16
M  V30 51 1 47 21
M  V30 52 1 48 22
M  V30 53 1 49 24
M  V30 54 1 50 25
M  V30 55 1 51 26
M  V30 56 1 52 28
M  V30 57 1 29 53 CFG=1
M  V30 58 1 54 30
M  V30 59 1 55 30
M  V30 60 1 56 30
M  V30 61 1 57 31
M  V30 62 1 58 31
M  V30 63 1 59 32
M  V30 64 1 60 33
M  V30 65 1 61 34
M  V30 END BOND
M  V30 END CTAB
M  END
>  <b_m_subgroup_collapsed>  (1571) 
0

>  <r_i_docking_score>  (1571) 
-6.97258890483418

>  <s_m_subgroup_title>  (1571) 
glide-dock_SP_D22_pv

>  <s_m_subgroupid>  (1571) 
glide-dock_SP_D22_pv

>  <Molecule ChEMBL ID>  (1571) 
CHEMBL1081649

>  <Standard Type>  (1571) 
Ki

>  <Standard Value>  (1571) 
10000.0

>  <label>  (1571) 
0

$$$$
CHEMBL253096
     RDKit          3D

  0  0  0  0  0  0  0  0  0  0999 V3000
M  V30 BEGIN CTAB
M  V30 COUNTS 46 49 0 0 1
M  V30 BEGIN ATOM
M  V30 1 C 9.157238 8.400982 -11.999788 0
M  V30 2 C 9.472078 6.874505 -12.062751 0 CFG=2
M  V30 3 C 9.486548 6.311491 -10.640225 0
M  V30 4 C 8.808126 5.109346 -10.316363 0
M  V30 5 C 8.764246 4.659523 -9.005624 0
M  V30 6 C 9.394621 5.403616 -8.018753 0
M  V30 7 C 10.133700 6.571266 -8.284670 0
M  V30 8 O 10.802237 7.291097 -7.312716 0
M  V30 9 C 10.877284 6.688883 -6.023149 0
M  V30 10 C 11.403494 7.586385 -4.932037 0
M  V30 11 C 11.203980 8.978473 -4.991172 0
M  V30 12 C 11.518584 9.772264 -3.875078 0
M  V30 13 C 12.086493 9.192802 -2.723961 0
M  V30 14 C 12.316769 7.806257 -2.677080 0
M  V30 15 C 11.963204 7.002943 -3.775626 0
M  V30 16 C 10.171500 7.015228 -9.614319 0
M  V30 17 C 10.886086 6.624365 -12.656703 0
M  V30 18 O 11.820198 7.372332 -12.373604 0
M  V30 19 N 11.102358 5.559066 -13.446828 0
M  V30 20 C 10.121840 4.594437 -13.773125 0
M  V30 21 C 10.536263 3.373378 -14.342384 0
M  V30 22 C 9.586407 2.381667 -14.646725 0
M  V30 23 Cl 10.089710 0.869600 -15.309856 0
M  V30 24 C 8.224043 2.615787 -14.389413 0
M  V30 25 C 7.797311 3.832948 -13.820776 0
M  V30 26 Cl 6.112932 3.988748 -13.446791 0
M  V30 27 C 8.751232 4.844283 -13.518757 0
M  V30 28 C 8.388889 6.172304 -12.929547 0
M  V30 29 O 7.286001 6.698189 -13.045979 0
M  V30 30 H 9.024559 8.852568 -12.983075 0
M  V30 31 H 8.236727 8.590268 -11.446587 0
M  V30 32 H 9.940382 8.972287 -11.506955 0
M  V30 33 H 8.263807 4.507654 -11.023975 0
M  V30 34 H 8.207310 3.772821 -8.745354 0
M  V30 35 H 9.286559 5.014447 -7.047075 0
M  V30 36 H 11.475924 5.776175 -6.075113 0
M  V30 37 H 9.881037 6.431537 -5.663958 0
M  V30 38 H 10.742045 9.428385 -5.858288 0
M  V30 39 H 11.285949 10.825953 -3.897539 0
M  V30 40 H 12.327450 9.804936 -1.867682 0
M  V30 41 H 12.732061 7.353773 -1.789361 0
M  V30 42 H 12.087370 5.931470 -3.715064 0
M  V30 43 H 10.730673 7.912250 -9.829638 0
M  V30 44 H 12.046209 5.405595 -13.772122 0
M  V30 45 H 11.582949 3.183550 -14.531243 0
M  V30 46 H 7.500523 1.843568 -14.606111 0
M  V30 END ATOM
M  V30 BEGIN BOND
M  V30 1 1 2 1 CFG=1
M  V30 2 1 3 2
M  V30 3 2 4 3
M  V30 4 1 5 4
M  V30 5 2 6 5
M  V30 6 1 7 6
M  V30 7 1 8 7
M  V30 8 1 9 8
M  V30 9 1 10 9
M  V30 10 2 11 10
M  V30 11 1 12 11
M  V30 12 2 13 12
M  V30 13 1 14 13
M  V30 14 1 15 10
M  V30 15 2 15 14
M  V30 16 1 16 3
M  V30 17 2 16 7
M  V30 18 1 17 2
M  V30 19 2 18 17
M  V30 20 1 19 17
M  V30 21 1 20 19
M  V30 22 2 21 20
M  V30 23 1 22 21
M  V30 24 1 23 22
M  V30 25 2 24 22
M  V30 26 1 25 24
M  V30 27 1 26 25
M  V30 28 1 27 20
M  V30 29 2 27 25
M  V30 30 1 28 2
M  V30 31 1 28 27
M  V30 32 2 29 28
M  V30 33 1 30 1
M  V30 34 1 31 1
M  V30 35 1 32 1
M  V30 36 1 33 4
M  V30 37 1 34 5
M  V30 38 1 35 6
M  V30 39 1 36 9
M  V30 40 1 37 9
M  V30 41 1 38 11
M  V30 42 1 39 12
M  V30 43 1 40 13
M  V30 44 1 41 14
M  V30 45 1 42 15
M  V30 46 1 43 16
M  V30 47 1 44 19
M  V30 48 1 45 21
M  V30 49 1 46 24
M  V30 END BOND
M  V30 END CTAB
M  END
>  <b_m_subgroup_collapsed>  (1572) 
0

>  <r_i_docking_score>  (1572) 
-6.9695880012474101

>  <s_m_subgroup_title>  (1572) 
glide-dock_SP_D22_pv

>  <s_m_subgroupid>  (1572) 
glide-dock_SP_D22_pv

>  <Molecule ChEMBL ID>  (1572) 
CHEMBL253096

>  <Standard Type>  (1572) 
Ki

>  <Standard Value>  (1572) 
10000.0

>  <label>  (1572) 
0

$$$$
CHEMBL4166021
     RDKit          3D

  0  0  0  0  0  0  0  0  0  0999 V3000
M  V30 BEGIN CTAB
M  V30 COUNTS 46 47 0 0 1
M  V30 BEGIN ATOM
M  V30 1 C 5.760091 3.925343 -11.861590 0
M  V30 2 C 6.812868 4.721282 -12.637450 0
M  V30 3 N 7.481904 5.772146 -11.830896 0 CHG=1
M  V30 4 C 8.240065 6.717668 -12.676527 0
M  V30 5 C 8.768982 7.896667 -11.848063 0
M  V30 6 N 9.602114 7.436231 -10.738749 0
M  V30 7 C 9.903193 8.599729 -9.901823 0
M  V30 8 C 11.395737 8.924154 -9.997729 0
M  V30 9 C 12.235674 8.008234 -9.098730 0
M  V30 10 N 12.033976 8.272862 -7.673926 0
M  V30 11 C 11.285939 7.558174 -6.808155 0
M  V30 12 O 10.581776 6.607791 -7.137649 0
M  V30 13 C 11.491548 7.873697 -5.349050 0
M  V30 14 C 11.685545 6.796728 -4.453802 0
M  V30 15 C 12.016871 7.021360 -3.104469 0
M  V30 16 C 12.127548 8.337666 -2.629500 0
M  V30 17 F 12.485203 8.571919 -1.347602 0
M  V30 18 C 11.877428 9.418369 -3.489464 0
M  V30 19 C 11.564603 9.197788 -4.845596 0
M  V30 20 Cl 11.286176 10.572366 -5.847178 0
M  V30 21 C 8.903665 6.427663 -9.931093 0
M  V30 22 C 8.389510 5.257181 -10.782159 0
M  V30 23 H 5.261793 3.208255 -12.513853 0
M  V30 24 H 6.207954 3.363541 -11.047101 0
M  V30 25 H 4.994133 4.580401 -11.447373 0
M  V30 26 H 6.301665 5.195641 -13.472885 0
M  V30 27 H 7.558065 4.048435 -13.063954 0
M  V30 28 H 7.588887 7.119287 -13.446301 0
M  V30 29 H 9.054963 6.189128 -13.175938 0
M  V30 30 H 7.943232 8.509442 -11.491692 0
M  V30 31 H 9.366179 8.550721 -12.484838 0
M  V30 32 H 9.610367 8.440460 -8.863817 0
M  V30 33 H 9.325504 9.471089 -10.210835 0
M  V30 34 H 11.559840 9.960880 -9.707621 0
M  V30 35 H 11.727867 8.848429 -11.038436 0
M  V30 36 H 13.293531 8.159559 -9.317032 0
M  V30 37 H 12.009765 6.972762 -9.345745 0
M  V30 38 H 12.588963 9.022079 -7.283850 0
M  V30 39 H 11.624041 5.780653 -4.813726 0
M  V30 40 H 12.192307 6.185652 -2.441576 0
M  V30 41 H 11.940717 10.423551 -3.098163 0
M  V30 42 H 9.603094 6.020668 -9.207287 0
M  V30 43 H 8.086282 6.865547 -9.359550 0
M  V30 44 H 7.868433 4.557157 -10.132115 0
M  V30 45 H 9.222365 4.712401 -11.230692 0
M  V30 46 H 6.783092 6.331907 -11.345355 0
M  V30 END ATOM
M  V30 BEGIN BOND
M  V30 1 1 2 1
M  V30 2 1 3 2
M  V30 3 1 4 3
M  V30 4 1 5 4
M  V30 5 1 6 5
M  V30 6 1 7 6
M  V30 7 1 8 7
M  V30 8 1 9 8
M  V30 9 1 10 9
M  V30 10 1 11 10
M  V30 11 2 12 11
M  V30 12 1 13 11
M  V30 13 1 14 13
M  V30 14 2 15 14
M  V30 15 1 16 15
M  V30 16 1 17 16
M  V30 17 2 18 16
M  V30 18 2 19 13
M  V30 19 1 19 18
M  V30 20 1 20 19
M  V30 21 1 21 6
M  V30 22 1 22 3
M  V30 23 1 22 21
M  V30 24 1 23 1
M  V30 25 1 24 1
M  V30 26 1 25 1
M  V30 27 1 26 2
M  V30 28 1 27 2
M  V30 29 1 28 4
M  V30 30 1 29 4
M  V30 31 1 30 5
M  V30 32 1 31 5
M  V30 33 1 32 7
M  V30 34 1 33 7
M  V30 35 1 34 8
M  V30 36 1 35 8
M  V30 37 1 36 9
M  V30 38 1 37 9
M  V30 39 1 38 10
M  V30 40 1 39 14
M  V30 41 1 40 15
M  V30 42 1 41 18
M  V30 43 1 42 21
M  V30 44 1 43 21
M  V30 45 1 44 22
M  V30 46 1 45 22
M  V30 47 1 46 3
M  V30 END BOND
M  V30 END CTAB
M  END
>  <b_m_subgroup_collapsed>  (1573) 
0

>  <r_i_docking_score>  (1573) 
-6.9689249784310299

>  <s_m_subgroup_title>  (1573) 
glide-dock_SP_D22_pv

>  <s_m_subgroupid>  (1573) 
glide-dock_SP_D22_pv

>  <Molecule ChEMBL ID>  (1573) 
CHEMBL4166021

>  <Standard Type>  (1573) 
Ki

>  <Standard Value>  (1573) 
10000.0

>  <label>  (1573) 
0

$$$$
CHEMBL3978288
     RDKit          3D

  0  0  0  0  0  0  0  0  0  0999 V3000
M  V30 BEGIN CTAB
M  V30 COUNTS 70 73 0 0 1
M  V30 BEGIN ATOM
M  V30 1 C 9.904959 0.487568 -17.930820 0
M  V30 2 C 8.470888 0.227131 -17.454708 0
M  V30 3 C 7.461535 0.385350 -18.604225 0
M  V30 4 O 8.201870 1.180992 -16.431248 0
M  V30 5 C 7.243382 0.929881 -15.465815 0
M  V30 6 C 6.397752 -0.210774 -15.488017 0
M  V30 7 C 5.408916 -0.399082 -14.507118 0
M  V30 8 C 5.246224 0.552604 -13.489207 0
M  V30 9 C 6.076755 1.683469 -13.450818 0
M  V30 10 C 7.086920 1.883234 -14.420727 0
M  V30 11 N 7.925253 3.017430 -14.334199 0
M  V30 12 C 9.353417 2.752563 -14.158575 0
M  V30 13 C 10.220399 4.018600 -14.098966 0
M  V30 14 C 10.194350 4.690399 -12.716033 0
M  V30 15 N 8.967490 5.482935 -12.439925 0 CFG=2 CHG=1
M  V30 16 C 9.126882 6.313996 -11.220324 0
M  V30 17 C 9.758112 7.680611 -11.553905 0
M  V30 18 C 10.333539 8.400098 -10.326797 0
M  V30 19 C 9.279232 8.711907 -9.246050 0
M  V30 20 O 9.860764 9.371817 -8.127398 0
M  V30 21 C 10.471286 8.622723 -7.151599 0
M  V30 22 C 10.737080 7.245537 -7.287429 0
M  V30 23 C 11.271311 6.569511 -6.193695 0
M  V30 24 C 11.468946 7.257638 -4.993139 0
M  V30 25 C 11.286158 8.657988 -4.963958 0
M  V30 26 N 10.790210 9.320718 -6.033595 0
M  V30 27 N 11.583033 9.339090 -3.755495 0
M  V30 28 C 12.171159 8.777231 -2.682914 0
M  V30 29 O 12.312770 9.371784 -1.621638 0
M  V30 30 C 12.688081 7.342806 -2.807394 0
M  V30 31 C 11.826729 6.501435 -3.734271 0
M  V30 32 C 7.726511 4.667378 -12.441575 0
M  V30 33 C 7.344676 4.279651 -13.879098 0
M  V30 34 H 10.192358 -0.212628 -18.716543 0
M  V30 35 H 10.014365 1.498411 -18.324791 0
M  V30 36 H 10.613401 0.373413 -17.109259 0
M  V30 37 H 8.449429 -0.790307 -17.065794 0
M  V30 38 H 7.663453 -0.329629 -19.402506 0
M  V30 39 H 6.436870 0.223005 -18.271843 0
M  V30 40 H 7.513024 1.385526 -19.033550 0
M  V30 41 H 6.477140 -0.965860 -16.253906 0
M  V30 42 H 4.775194 -1.273585 -14.544189 0
M  V30 43 H 4.487836 0.415825 -12.735339 0
M  V30 44 H 5.935898 2.388499 -12.645792 0
M  V30 45 H 9.498878 2.172301 -13.252010 0
M  V30 46 H 9.723814 2.135530 -14.974442 0
M  V30 47 H 11.249588 3.710012 -14.288756 0
M  V30 48 H 9.975561 4.718721 -14.899188 0
M  V30 49 H 11.054094 5.356828 -12.656410 0
M  V30 50 H 10.329589 3.942425 -11.933050 0
M  V30 51 H 9.724607 5.774568 -10.483440 0
M  V30 52 H 8.164072 6.489736 -10.743093 0
M  V30 53 H 9.017119 8.316170 -12.041093 0
M  V30 54 H 10.567861 7.559141 -12.273457 0
M  V30 55 H 10.805519 9.326779 -10.646545 0
M  V30 56 H 11.148652 7.803238 -9.922807 0
M  V30 57 H 8.735356 7.823581 -8.923789 0
M  V30 58 H 8.521267 9.372482 -9.665653 0
M  V30 59 H 10.515272 6.681531 -8.177886 0
M  V30 60 H 11.492362 5.519873 -6.271876 0
M  V30 61 H 11.306828 10.306972 -3.690923 0
M  V30 62 H 12.772073 6.870975 -1.828890 0
M  V30 63 H 13.685721 7.372665 -3.234231 0
M  V30 64 H 10.912578 6.179058 -3.233403 0
M  V30 65 H 12.374409 5.600956 -3.992422 0
M  V30 66 H 7.807686 3.803432 -11.780691 0
M  V30 67 H 6.907972 5.275319 -12.052050 0
M  V30 68 H 6.259057 4.247634 -13.980885 0
M  V30 69 H 7.680354 5.055461 -14.568311 0
M  V30 70 H 8.855130 6.140086 -13.198535 0
M  V30 END ATOM
M  V30 BEGIN BOND
M  V30 1 1 2 1
M  V30 2 1 3 2
M  V30 3 1 4 2
M  V30 4 1 5 4
M  V30 5 2 6 5
M  V30 6 1 7 6
M  V30 7 2 8 7
M  V30 8 1 9 8
M  V30 9 1 10 5
M  V30 10 2 10 9
M  V30 11 1 11 10
M  V30 12 1 12 11
M  V30 13 1 13 12
M  V30 14 1 14 13
M  V30 15 1 15 14
M  V30 16 1 16 15
M  V30 17 1 17 16
M  V30 18 1 18 17
M  V30 19 1 19 18
M  V30 20 1 20 19
M  V30 21 1 21 20
M  V30 22 1 22 21
M  V30 23 2 23 22
M  V30 24 1 24 23
M  V30 25 2 25 24
M  V30 26 2 26 21
M  V30 27 1 26 25
M  V30 28 1 27 25
M  V30 29 1 28 27
M  V30 30 2 29 28
M  V30 31 1 30 28
M  V30 32 1 31 24
M  V30 33 1 31 30
M  V30 34 1 32 15
M  V30 35 1 33 11
M  V30 36 1 33 32
M  V30 37 1 34 1
M  V30 38 1 35 1
M  V30 39 1 36 1
M  V30 40 1 37 2
M  V30 41 1 38 3
M  V30 42 1 39 3
M  V30 43 1 40 3
M  V30 44 1 41 6
M  V30 45 1 42 7
M  V30 46 1 43 8
M  V30 47 1 44 9
M  V30 48 1 45 12
M  V30 49 1 46 12
M  V30 50 1 47 13
M  V30 51 1 48 13
M  V30 52 1 49 14
M  V30 53 1 50 14
M  V30 54 1 51 16
M  V30 55 1 52 16
M  V30 56 1 53 17
M  V30 57 1 54 17
M  V30 58 1 55 18
M  V30 59 1 56 18
M  V30 60 1 57 19
M  V30 61 1 58 19
M  V30 62 1 59 22
M  V30 63 1 60 23
M  V30 64 1 61 27
M  V30 65 1 62 30
M  V30 66 1 63 30
M  V30 67 1 64 31
M  V30 68 1 65 31
M  V30 69 1 66 32
M  V30 70 1 67 32
M  V30 71 1 68 33
M  V30 72 1 69 33
M  V30 73 1 15 70 CFG=3
M  V30 END BOND
M  V30 END CTAB
M  END
>  <b_m_subgroup_collapsed>  (1574) 
0

>  <r_i_docking_score>  (1574) 
-6.96816659838513

>  <s_m_subgroup_title>  (1574) 
glide-dock_SP_D22_pv

>  <s_m_subgroupid>  (1574) 
glide-dock_SP_D22_pv

>  <Molecule ChEMBL ID>  (1574) 
CHEMBL3978288

>  <Standard Type>  (1574) 
Ki

>  <Standard Value>  (1574) 
1.29

>  <label>  (1574) 
1

$$$$
CHEMBL4858961
     RDKit          3D

  0  0  0  0  0  0  0  0  0  0999 V3000
M  V30 BEGIN CTAB
M  V30 COUNTS 52 53 0 0 1
M  V30 BEGIN ATOM
M  V30 1 C 11.024867 9.423768 -6.302795 0
M  V30 2 C 10.739988 8.329706 -7.338888 0
M  V30 3 C 9.230679 8.162599 -7.623812 0
M  V30 4 N 8.886040 7.077048 -8.578568 0 CFG=2 CHG=1
M  V30 5 C 9.136731 5.692180 -8.142133 0
M  V30 6 C 9.160732 4.843233 -9.420738 0
M  V30 7 C 9.131260 5.831020 -10.604510 0 CFG=1
M  V30 8 C 7.800818 5.771688 -11.385808 0
M  V30 9 N 7.684350 4.545921 -12.162143 0
M  V30 10 C 8.012924 4.413088 -13.456013 0
M  V30 11 O 8.486241 5.329045 -14.126156 0
M  V30 12 C 7.824130 3.031456 -14.031425 0
M  V30 13 C 6.606539 2.311101 -13.846873 0
M  V30 14 O 5.549750 2.871908 -13.176634 0
M  V30 15 C 6.485379 0.981216 -14.326089 0
M  V30 16 C 5.221715 0.153701 -14.094693 0
M  V30 17 C 4.684728 -0.543746 -15.354973 0
M  V30 18 C 7.572061 0.387964 -14.996664 0
M  V30 19 C 8.759521 1.100388 -15.219077 0
M  V30 20 Cl 10.060640 0.324668 -16.052330 0
M  V30 21 C 8.889139 2.423530 -14.749540 0
M  V30 22 O 10.056801 3.100690 -14.999296 0
M  V30 23 C 11.040002 2.931628 -13.993654 0
M  V30 24 C 9.377467 7.204049 -9.961678 0
M  V30 25 H 12.095764 9.506051 -6.112757 0
M  V30 26 H 10.677033 10.397619 -6.646321 0
M  V30 27 H 10.532774 9.207779 -5.353719 0
M  V30 28 H 11.169015 7.398962 -6.971380 0
M  V30 29 H 11.276320 8.577776 -8.254764 0
M  V30 30 H 8.825761 9.097524 -8.014775 0
M  V30 31 H 8.696708 7.970191 -6.691286 0
M  V30 32 H 8.355564 5.372488 -7.451840 0
M  V30 33 H 10.093727 5.603046 -7.631190 0
M  V30 34 H 8.301145 4.172357 -9.438215 0
M  V30 35 H 10.055391 4.219189 -9.449167 0
M  V30 36 H 9.945564 5.618562 -11.298793 0
M  V30 37 H 7.685413 6.646299 -12.028598 0
M  V30 38 H 6.959307 5.772313 -10.694925 0
M  V30 39 H 7.344389 3.729010 -11.674580 0
M  V30 40 H 5.655484 3.791640 -12.984098 0
M  V30 41 H 5.455515 -0.597787 -13.341912 0
M  V30 42 H 4.421827 0.763609 -13.677185 0
M  V30 43 H 3.752101 -1.066020 -15.137844 0
M  V30 44 H 4.485265 0.172213 -16.151627 0
M  V30 45 H 5.383216 -1.287213 -15.739504 0
M  V30 46 H 7.503088 -0.627488 -15.352442 0
M  V30 47 H 11.953196 3.450531 -14.283197 0
M  V30 48 H 10.701475 3.351814 -13.046844 0
M  V30 49 H 11.284621 1.878947 -13.846864 0
M  V30 50 H 10.447870 7.406549 -9.963546 0
M  V30 51 H 8.886369 8.022271 -10.489887 0
M  V30 52 H 7.872837 7.132682 -8.676748 0
M  V30 END ATOM
M  V30 BEGIN BOND
M  V30 1 1 2 1
M  V30 2 1 3 2
M  V30 3 1 4 3
M  V30 4 1 5 4
M  V30 5 1 6 5
M  V30 6 1 7 6
M  V30 7 1 8 7
M  V30 8 1 9 8
M  V30 9 1 10 9
M  V30 10 2 11 10
M  V30 11 1 12 10
M  V30 12 1 13 12
M  V30 13 1 14 13
M  V30 14 2 15 13
M  V30 15 1 16 15
M  V30 16 1 17 16
M  V30 17 1 18 15
M  V30 18 2 19 18
M  V30 19 1 20 19
M  V30 20 2 21 12
M  V30 21 1 21 19
M  V30 22 1 22 21
M  V30 23 1 23 22
M  V30 24 1 24 4
M  V30 25 1 24 7
M  V30 26 1 25 1
M  V30 27 1 26 1
M  V30 28 1 27 1
M  V30 29 1 28 2
M  V30 30 1 29 2
M  V30 31 1 30 3
M  V30 32 1 31 3
M  V30 33 1 32 5
M  V30 34 1 33 5
M  V30 35 1 34 6
M  V30 36 1 35 6
M  V30 37 1 7 36 CFG=3
M  V30 38 1 37 8
M  V30 39 1 38 8
M  V30 40 1 39 9
M  V30 41 1 40 14
M  V30 42 1 41 16
M  V30 43 1 42 16
M  V30 44 1 43 17
M  V30 45 1 44 17
M  V30 46 1 45 17
M  V30 47 1 46 18
M  V30 48 1 47 23
M  V30 49 1 48 23
M  V30 50 1 49 23
M  V30 51 1 50 24
M  V30 52 1 51 24
M  V30 53 1 4 52 CFG=3
M  V30 END BOND
M  V30 END CTAB
M  END
>  <b_m_subgroup_collapsed>  (1575) 
0

>  <r_i_docking_score>  (1575) 
-6.9681138343680598

>  <s_m_subgroup_title>  (1575) 
glide-dock_SP_D22_pv

>  <s_m_subgroupid>  (1575) 
glide-dock_SP_D22_pv

>  <Molecule ChEMBL ID>  (1575) 
CHEMBL4858961

>  <Standard Type>  (1575) 
Ki

>  <Standard Value>  (1575) 
66.4

>  <label>  (1575) 
1

$$$$
CHEMBL201177
     RDKit          3D

  0  0  0  0  0  0  0  0  0  0999 V3000
M  V30 BEGIN CTAB
M  V30 COUNTS 48 51 0 0 1
M  V30 BEGIN ATOM
M  V30 1 C 13.078353 4.707039 -16.390039 0
M  V30 2 N 12.239095 5.003347 -15.206523 0 CFG=1 CHG=1
M  V30 3 C 11.555278 6.311105 -15.307305 0
M  V30 4 C 12.151276 7.334335 -14.319552 0
M  V30 5 C 12.085463 6.987208 -12.816629 0
M  V30 6 C 10.697539 7.116453 -12.117959 0 CFG=2
M  V30 7 C 10.791763 7.260045 -10.584594 0
M  V30 8 C 10.086197 6.402432 -9.698719 0
M  V30 9 C 10.164274 6.576635 -8.303969 0
M  V30 10 C 10.958253 7.603666 -7.764880 0
M  V30 11 C 11.662641 8.463918 -8.627285 0
M  V30 12 C 11.569422 8.301207 -10.023257 0
M  V30 13 C 9.638348 6.125813 -12.547951 0
M  V30 14 N 8.310488 6.450108 -12.294930 0
M  V30 15 C 7.465907 5.455995 -12.714485 0
M  V30 16 C 6.073783 5.316064 -12.646755 0
M  V30 17 C 5.468754 4.167927 -13.187477 0
M  V30 18 C 6.263896 3.178683 -13.794967 0
M  V30 19 C 7.663065 3.326884 -13.846745 0
M  V30 20 C 8.299551 4.462098 -13.290888 0
M  V30 21 C 9.668023 4.857021 -13.106199 0
M  V30 22 C 10.822719 3.944630 -13.410956 0
M  V30 23 C 11.320119 3.888762 -14.867596 0
M  V30 24 H 12.470136 4.613099 -17.290432 0
M  V30 25 H 13.632143 3.777838 -16.258781 0
M  V30 26 H 13.807950 5.500817 -16.552069 0
M  V30 27 H 11.647169 6.710531 -16.319193 0
M  V30 28 H 10.486165 6.172463 -15.170146 0
M  V30 29 H 13.199761 7.482646 -14.583480 0
M  V30 30 H 11.685963 8.300635 -14.477108 0
M  V30 31 H 12.559587 6.031197 -12.647064 0
M  V30 32 H 12.764165 7.696569 -12.344193 0
M  V30 33 H 10.319752 8.093654 -12.421743 0
M  V30 34 H 9.473499 5.591796 -10.063062 0
M  V30 35 H 9.614101 5.917495 -7.648634 0
M  V30 36 H 11.019802 7.734828 -6.694670 0
M  V30 37 H 12.270078 9.256581 -8.217005 0
M  V30 38 H 12.103292 8.994062 -10.657383 0
M  V30 39 H 8.010597 7.265380 -11.768309 0
M  V30 40 H 5.484079 6.084876 -12.167974 0
M  V30 41 H 4.397794 4.044857 -13.137267 0
M  V30 42 H 5.800673 2.294290 -14.208456 0
M  V30 43 H 8.261544 2.543235 -14.286974 0
M  V30 44 H 11.653238 4.172427 -12.757426 0
M  V30 45 H 10.517007 2.934126 -13.131005 0
M  V30 46 H 10.487716 3.824972 -15.569777 0
M  V30 47 H 11.877743 2.957793 -14.973783 0
M  V30 48 H 12.877104 5.084759 -14.427713 0
M  V30 END ATOM
M  V30 BEGIN BOND
M  V30 1 1 2 1
M  V30 2 1 3 2
M  V30 3 1 4 3
M  V30 4 1 5 4
M  V30 5 1 6 5
M  V30 6 1 7 6
M  V30 7 2 8 7
M  V30 8 1 9 8
M  V30 9 2 10 9
M  V30 10 1 11 10
M  V30 11 1 12 7
M  V30 12 2 12 11
M  V30 13 1 13 6
M  V30 14 1 14 13
M  V30 15 1 15 14
M  V30 16 2 16 15
M  V30 17 1 17 16
M  V30 18 2 18 17
M  V30 19 1 19 18
M  V30 20 1 20 15
M  V30 21 2 20 19
M  V30 22 2 21 13
M  V30 23 1 21 20
M  V30 24 1 22 21
M  V30 25 1 23 2
M  V30 26 1 23 22
M  V30 27 1 24 1
M  V30 28 1 25 1
M  V30 29 1 26 1
M  V30 30 1 27 3
M  V30 31 1 28 3
M  V30 32 1 29 4
M  V30 33 1 30 4
M  V30 34 1 31 5
M  V30 35 1 32 5
M  V30 36 1 6 33 CFG=3
M  V30 37 1 34 8
M  V30 38 1 35 9
M  V30 39 1 36 10
M  V30 40 1 37 11
M  V30 41 1 38 12
M  V30 42 1 39 14
M  V30 43 1 40 16
M  V30 44 1 41 17
M  V30 45 1 42 18
M  V30 46 1 43 19
M  V30 47 1 44 22
M  V30 48 1 45 22
M  V30 49 1 46 23
M  V30 50 1 47 23
M  V30 51 1 2 48 CFG=1
M  V30 END BOND
M  V30 END CTAB
M  END
>  <b_m_subgroup_collapsed>  (1576) 
0

>  <r_i_docking_score>  (1576) 
-6.9671215764587799

>  <s_m_subgroup_title>  (1576) 
glide-dock_SP_D22_pv

>  <s_m_subgroupid>  (1576) 
glide-dock_SP_D22_pv

>  <Molecule ChEMBL ID>  (1576) 
CHEMBL201177

>  <Standard Type>  (1576) 
Ki

>  <Standard Value>  (1576) 
10000.0

>  <label>  (1576) 
0

$$$$
CHEMBL4435834
     RDKit          3D

  0  0  0  0  0  0  0  0  0  0999 V3000
M  V30 BEGIN CTAB
M  V30 COUNTS 56 58 0 0 1
M  V30 BEGIN ATOM
M  V30 1 C 6.885653 2.375327 -14.586809 0
M  V30 2 C 8.105961 3.226936 -14.221567 0
M  V30 3 C 7.800187 4.281802 -13.146753 0
M  V30 4 C 9.031197 5.151249 -12.836909 0
M  V30 5 N 8.859170 5.994653 -11.625474 0 CHG=1
M  V30 6 C 9.727736 7.200930 -11.652081 0
M  V30 7 C 9.483708 8.108867 -10.433450 0
M  V30 8 C 9.617266 7.367814 -9.081737 0
M  V30 9 C 8.767157 6.060215 -9.146354 0
M  V30 10 C 9.065344 5.213774 -10.381162 0
M  V30 11 C 11.108728 7.112083 -8.733958 0
M  V30 12 C 11.285800 6.404204 -7.368871 0
M  V30 13 N 10.555653 7.116546 -6.330411 0
M  V30 14 C 11.223451 7.535873 -5.169767 0
M  V30 15 C 11.685384 6.580452 -4.245249 0
M  V30 16 C 12.270796 6.975290 -3.029197 0
M  V30 17 C 12.409629 8.342890 -2.736328 0
M  V30 18 C 11.984653 9.305946 -3.669831 0
M  V30 19 C 11.409147 8.908393 -4.903859 0
M  V30 20 O 11.009868 9.791298 -5.876962 0
M  V30 21 C 11.685203 11.020666 -5.924314 0
M  V30 22 C 9.199493 7.593957 -6.592274 0
M  V30 23 C 9.106307 8.282907 -7.956922 0
M  V30 24 H 7.149954 1.605601 -15.312149 0
M  V30 25 H 6.474911 1.872952 -13.710397 0
M  V30 26 H 6.098215 2.984047 -15.030118 0
M  V30 27 H 8.488560 3.713609 -15.119506 0
M  V30 28 H 8.900798 2.566894 -13.867263 0
M  V30 29 H 7.445910 3.772380 -12.251947 0
M  V30 30 H 6.978677 4.920074 -13.474534 0
M  V30 31 H 9.219774 5.774110 -13.710899 0
M  V30 32 H 9.921218 4.529254 -12.718921 0
M  V30 33 H 9.524125 7.776587 -12.554811 0
M  V30 34 H 10.775726 6.901518 -11.702108 0
M  V30 35 H 8.486116 8.538877 -10.519361 0
M  V30 36 H 10.165879 8.960968 -10.464500 0
M  V30 37 H 8.916015 5.438724 -8.265158 0
M  V30 38 H 7.694738 6.270826 -9.139417 0
M  V30 39 H 8.406481 4.346907 -10.364110 0
M  V30 40 H 10.085787 4.831405 -10.338068 0
M  V30 41 H 11.632574 8.069126 -8.687601 0
M  V30 42 H 11.600940 6.572165 -9.534747 0
M  V30 43 H 12.337845 6.355203 -7.089955 0
M  V30 44 H 10.936010 5.374246 -7.422545 0
M  V30 45 H 11.547646 5.539075 -4.459844 0
M  V30 46 H 12.594598 6.228238 -2.319374 0
M  V30 47 H 12.841009 8.657158 -1.796319 0
M  V30 48 H 12.086526 10.345106 -3.406501 0
M  V30 49 H 11.507230 11.497842 -6.883401 0
M  V30 50 H 11.285985 11.660930 -5.134720 0
M  V30 51 H 12.764456 10.892222 -5.846900 0
M  V30 52 H 8.500968 6.760151 -6.525988 0
M  V30 53 H 8.881781 8.310102 -5.846939 0
M  V30 54 H 9.680405 9.209700 -7.942236 0
M  V30 55 H 8.086062 8.594541 -8.136932 0
M  V30 56 H 7.905084 6.336818 -11.603014 0
M  V30 END ATOM
M  V30 BEGIN BOND
M  V30 1 1 2 1
M  V30 2 1 3 2
M  V30 3 1 4 3
M  V30 4 1 5 4
M  V30 5 1 6 5
M  V30 6 1 7 6
M  V30 7 1 8 7
M  V30 8 1 9 8
M  V30 9 1 10 5
M  V30 10 1 10 9
M  V30 11 1 11 8
M  V30 12 1 12 11
M  V30 13 1 13 12
M  V30 14 1 14 13
M  V30 15 2 15 14
M  V30 16 1 16 15
M  V30 17 2 17 16
M  V30 18 1 18 17
M  V30 19 1 19 14
M  V30 20 2 19 18
M  V30 21 1 20 19
M  V30 22 1 21 20
M  V30 23 1 22 13
M  V30 24 1 23 8
M  V30 25 1 23 22
M  V30 26 1 24 1
M  V30 27 1 25 1
M  V30 28 1 26 1
M  V30 29 1 27 2
M  V30 30 1 28 2
M  V30 31 1 29 3
M  V30 32 1 30 3
M  V30 33 1 31 4
M  V30 34 1 32 4
M  V30 35 1 33 6
M  V30 36 1 34 6
M  V30 37 1 35 7
M  V30 38 1 36 7
M  V30 39 1 37 9
M  V30 40 1 38 9
M  V30 41 1 39 10
M  V30 42 1 40 10
M  V30 43 1 41 11
M  V30 44 1 42 11
M  V30 45 1 43 12
M  V30 46 1 44 12
M  V30 47 1 45 15
M  V30 48 1 46 16
M  V30 49 1 47 17
M  V30 50 1 48 18
M  V30 51 1 49 21
M  V30 52 1 50 21
M  V30 53 1 51 21
M  V30 54 1 52 22
M  V30 55 1 53 22
M  V30 56 1 54 23
M  V30 57 1 55 23
M  V30 58 1 56 5
M  V30 END BOND
M  V30 END CTAB
M  END
>  <b_m_subgroup_collapsed>  (1577) 
0

>  <r_i_docking_score>  (1577) 
-6.9657441528181296

>  <s_m_subgroup_title>  (1577) 
glide-dock_SP_D22_pv

>  <s_m_subgroupid>  (1577) 
glide-dock_SP_D22_pv

>  <Molecule ChEMBL ID>  (1577) 
CHEMBL4435834

>  <Standard Type>  (1577) 
Ki

>  <Standard Value>  (1577) 
26739.0

>  <label>  (1577) 
0

$$$$
CHEMBL6047939
     RDKit          3D

  0  0  0  0  0  0  0  0  0  0999 V3000
M  V30 BEGIN CTAB
M  V30 COUNTS 63 67 0 0 1
M  V30 BEGIN ATOM
M  V30 1 C 10.201809 8.909274 -9.982319 0
M  V30 2 N 9.981238 7.586230 -9.419150 0
M  V30 3 C 9.457411 6.504168 -10.041649 0
M  V30 4 S 8.965193 6.505901 -11.738968 0
M  V30 5 C 7.522165 5.421380 -11.581436 0
M  V30 6 C 6.682816 5.401069 -12.861960 0
M  V30 7 C 5.550865 4.361622 -12.816229 0
M  V30 8 N 6.061790 2.971760 -12.819102 0 CFG=1 CHG=1
M  V30 9 C 5.039395 1.924346 -12.591028 0
M  V30 10 C 5.585917 0.626980 -13.212175 0 CFG=1
M  V30 11 C 4.699522 -0.102305 -14.236814 0
M  V30 12 C 5.686847 -0.555017 -15.315070 0
M  V30 13 N 6.738150 0.453316 -15.312104 0
M  V30 14 C 7.875864 0.273554 -16.126640 0
M  V30 15 C 9.183093 0.591405 -15.677867 0
M  V30 16 C 10.299488 0.384645 -16.512280 0
M  V30 17 C 10.127211 -0.133515 -17.809151 0
M  V30 18 C 8.833360 -0.438303 -18.279688 0
M  V30 19 C 8.605016 -0.989802 -19.678293 0
M  V30 20 F 7.732736 -0.215517 -20.324152 0
M  V30 21 F 9.735541 -1.030704 -20.385340 0
M  V30 22 F 8.101356 -2.221998 -19.591181 0
M  V30 23 C 7.721607 -0.230609 -17.438053 0
M  V30 24 C 6.831009 1.043207 -13.990438 0 CFG=1
M  V30 25 C 6.803609 2.571705 -14.026002 0
M  V30 26 N 9.366157 5.424020 -9.264077 0
M  V30 27 N 9.850555 5.812400 -8.044384 0
M  V30 28 C 10.203951 7.099230 -8.168182 0
M  V30 29 C 10.768664 7.815184 -6.994061 0
M  V30 30 C 11.235744 9.197639 -6.994915 0
M  V30 31 C 11.659650 9.817338 -5.872019 0
M  V30 32 C 11.696560 9.119987 -4.589139 0
M  V30 33 O 12.028822 9.637973 -3.526143 0
M  V30 34 N 11.348363 7.821002 -4.649023 0
M  V30 35 C 10.875212 7.186875 -5.799940 0
M  V30 36 H 9.663526 9.657120 -9.399597 0
M  V30 37 H 9.832298 8.970831 -11.003652 0
M  V30 38 H 11.268086 9.135107 -9.999724 0
M  V30 39 H 7.874997 4.422883 -11.329584 0
M  V30 40 H 6.905785 5.769846 -10.752647 0
M  V30 41 H 6.243621 6.387461 -12.998025 0
M  V30 42 H 7.323844 5.236865 -13.726050 0
M  V30 43 H 4.958172 4.519591 -11.914579 0
M  V30 44 H 4.881615 4.504303 -13.666439 0
M  V30 45 H 4.880141 1.804858 -11.520751 0
M  V30 46 H 4.088033 2.207013 -13.043238 0
M  V30 47 H 5.889620 -0.071402 -12.429793 0
M  V30 48 H 4.147997 -0.941961 -13.818601 0
M  V30 49 H 3.966795 0.572425 -14.676905 0
M  V30 50 H 6.107505 -1.529190 -15.061871 0
M  V30 51 H 5.189695 -0.645159 -16.281498 0
M  V30 52 H 9.366240 0.987064 -14.690114 0
M  V30 53 H 11.290224 0.621742 -16.152615 0
M  V30 54 H 10.992419 -0.284057 -18.437483 0
M  V30 55 H 6.742408 -0.470576 -17.820326 0
M  V30 56 H 7.702029 0.675394 -13.450917 0
M  V30 57 H 6.266106 2.927932 -14.906811 0
M  V30 58 H 7.808778 2.994001 -14.054626 0
M  V30 59 H 11.284493 9.773651 -7.902128 0
M  V30 60 H 12.008613 10.838293 -5.927063 0
M  V30 61 H 11.390350 7.274204 -3.799148 0
M  V30 62 H 10.569999 6.168613 -5.617706 0
M  V30 63 H 6.710328 2.899463 -12.046422 0
M  V30 END ATOM
M  V30 BEGIN BOND
M  V30 1 1 2 1
M  V30 2 1 3 2
M  V30 3 1 4 3
M  V30 4 1 5 4
M  V30 5 1 6 5
M  V30 6 1 7 6
M  V30 7 1 8 7
M  V30 8 1 9 8
M  V30 9 1 10 9
M  V30 10 1 11 10
M  V30 11 1 12 11
M  V30 12 1 13 12
M  V30 13 1 14 13
M  V30 14 1 15 14
M  V30 15 2 16 15
M  V30 16 1 17 16
M  V30 17 2 18 17
M  V30 18 1 19 18
M  V30 19 1 20 19
M  V30 20 1 21 19
M  V30 21 1 22 19
M  V30 22 2 23 14
M  V30 23 1 23 18
M  V30 24 1 24 10
M  V30 25 1 24 13
M  V30 26 1 25 8
M  V30 27 1 25 24
M  V30 28 2 26 3
M  V30 29 1 27 26
M  V30 30 1 28 2
M  V30 31 2 28 27
M  V30 32 1 29 28
M  V30 33 1 30 29
M  V30 34 2 31 30
M  V30 35 1 32 31
M  V30 36 2 33 32
M  V30 37 1 34 32
M  V30 38 2 35 29
M  V30 39 1 35 34
M  V30 40 1 36 1
M  V30 41 1 37 1
M  V30 42 1 38 1
M  V30 43 1 39 5
M  V30 44 1 40 5
M  V30 45 1 41 6
M  V30 46 1 42 6
M  V30 47 1 43 7
M  V30 48 1 44 7
M  V30 49 1 45 9
M  V30 50 1 46 9
M  V30 51 1 10 47 CFG=1
M  V30 52 1 48 11
M  V30 53 1 49 11
M  V30 54 1 50 12
M  V30 55 1 51 12
M  V30 56 1 52 15
M  V30 57 1 53 16
M  V30 58 1 54 17
M  V30 59 1 55 23
M  V30 60 1 24 56 CFG=1
M  V30 61 1 57 25
M  V30 62 1 58 25
M  V30 63 1 59 30
M  V30 64 1 60 31
M  V30 65 1 61 34
M  V30 66 1 62 35
M  V30 67 1 8 63 CFG=1
M  V30 END BOND
M  V30 END CTAB
M  END
>  <b_m_subgroup_collapsed>  (1578) 
0

>  <r_i_docking_score>  (1578) 
-6.9655233549765896

>  <s_m_subgroup_title>  (1578) 
glide-dock_SP_D22_pv

>  <s_m_subgroupid>  (1578) 
glide-dock_SP_D22_pv

>  <Molecule ChEMBL ID>  (1578) 
CHEMBL6047939

>  <Standard Type>  (1578) 
Ki

>  <Standard Value>  (1578) 
37.2

>  <label>  (1578) 
1

$$$$
CHEMBL4760590
     RDKit          3D

  0  0  0  0  0  0  0  0  0  0999 V3000
M  V30 BEGIN CTAB
M  V30 COUNTS 64 68 0 0 1
M  V30 BEGIN ATOM
M  V30 1 O 11.287886 9.493773 -6.854787 0
M  V30 2 C 11.140280 8.417143 -6.275281 0
M  V30 3 N 10.605037 7.320720 -6.838402 0
M  V30 4 C 10.274313 7.116445 -8.200274 0
M  V30 5 C 10.928918 7.784893 -9.264803 0
M  V30 6 C 10.541115 7.540504 -10.594226 0
M  V30 7 C 9.501773 6.632888 -10.887116 0
M  V30 8 O 9.148776 6.503112 -12.211973 0
M  V30 9 C 7.896514 5.906589 -12.528843 0
M  V30 10 C 8.044082 4.394234 -12.745926 0
M  V30 11 C 8.916944 4.065673 -13.971409 0
M  V30 12 N 9.151630 2.610210 -14.151609 0 CFG=2 CHG=1
M  V30 13 C 10.267478 2.348846 -15.097472 0
M  V30 14 C 10.564697 0.843155 -15.194854 0
M  V30 15 C 9.329479 0.020895 -15.618530 0 CFG=2
M  V30 16 C 8.923497 0.262522 -17.069740 0
M  V30 17 N 9.894054 0.387486 -17.977692 0
M  V30 18 O 9.290646 0.599436 -19.243935 0
M  V30 19 C 7.915817 0.554890 -19.115915 0
M  V30 20 C 6.898217 0.689130 -20.072985 0
M  V30 21 C 5.564630 0.563583 -19.637707 0
M  V30 22 F 4.549860 0.693033 -20.524199 0
M  V30 23 C 5.289876 0.303555 -18.276779 0
M  V30 24 C 6.331467 0.189520 -17.328045 0
M  V30 25 C 7.673337 0.327299 -17.754702 0
M  V30 26 C 8.234970 0.339068 -14.581530 0
M  V30 27 C 7.928462 1.846298 -14.527214 0
M  V30 28 C 8.886066 5.928410 -9.822159 0
M  V30 29 C 9.275233 6.167928 -8.490974 0
M  V30 30 C 11.491381 8.291659 -4.819101 0
M  V30 31 C 11.685908 9.459404 -4.050138 0
M  V30 32 C 12.086168 9.372279 -2.706266 0
M  V30 33 C 12.288269 8.117826 -2.109849 0
M  V30 34 C 12.086389 6.945395 -2.858662 0
M  V30 35 C 11.687786 7.028860 -4.207003 0
M  V30 36 H 10.379423 6.563629 -6.211302 0
M  V30 37 H 11.726721 8.492722 -9.080861 0
M  V30 38 H 11.027815 8.075180 -11.396172 0
M  V30 39 H 7.131713 6.137753 -11.787071 0
M  V30 40 H 7.547740 6.378136 -13.444811 0
M  V30 41 H 8.465186 3.924012 -11.858455 0
M  V30 42 H 7.043071 3.986636 -12.872483 0
M  V30 43 H 8.484554 4.487690 -14.876846 0
M  V30 44 H 9.881937 4.560473 -13.841730 0
M  V30 45 H 10.020458 2.753648 -16.080490 0
M  V30 46 H 11.168242 2.866067 -14.758066 0
M  V30 47 H 11.406618 0.665772 -15.864740 0
M  V30 48 H 10.886662 0.486747 -14.216080 0
M  V30 49 H 9.598982 -1.027222 -15.517771 0
M  V30 50 H 7.134747 0.874503 -21.111204 0
M  V30 51 H 4.265150 0.181248 -17.959135 0
M  V30 52 H 6.062586 -0.021151 -16.308472 0
M  V30 53 H 7.342660 -0.258149 -14.737531 0
M  V30 54 H 8.579365 0.042253 -13.592239 0
M  V30 55 H 7.127711 2.009570 -13.808030 0
M  V30 56 H 7.557911 2.202683 -15.487926 0
M  V30 57 H 8.088580 5.223427 -9.993512 0
M  V30 58 H 8.769039 5.644104 -7.694255 0
M  V30 59 H 11.535977 10.432997 -4.491505 0
M  V30 60 H 12.218052 10.271832 -2.127682 0
M  V30 61 H 12.594124 8.064868 -1.076638 0
M  V30 62 H 12.235611 5.980420 -2.397593 0
M  V30 63 H 11.563623 6.109369 -4.758995 0
M  V30 64 H 9.455793 2.253244 -13.252194 0
M  V30 END ATOM
M  V30 BEGIN BOND
M  V30 1 2 2 1
M  V30 2 1 3 2
M  V30 3 1 4 3
M  V30 4 1 5 4
M  V30 5 2 6 5
M  V30 6 1 7 6
M  V30 7 1 8 7
M  V30 8 1 9 8
M  V30 9 1 10 9
M  V30 10 1 11 10
M  V30 11 1 12 11
M  V30 12 1 13 12
M  V30 13 1 14 13
M  V30 14 1 15 14
M  V30 15 1 16 15
M  V30 16 2 17 16
M  V30 17 1 18 17
M  V30 18 1 19 18
M  V30 19 1 20 19
M  V30 20 2 21 20
M  V30 21 1 22 21
M  V30 22 1 23 21
M  V30 23 2 24 23
M  V30 24 1 25 16
M  V30 25 2 25 19
M  V30 26 1 25 24
M  V30 27 1 26 15
M  V30 28 1 27 12
M  V30 29 1 27 26
M  V30 30 2 28 7
M  V30 31 2 29 4
M  V30 32 1 29 28
M  V30 33 1 30 2
M  V30 34 2 31 30
M  V30 35 1 32 31
M  V30 36 2 33 32
M  V30 37 1 34 33
M  V30 38 1 35 30
M  V30 39 2 35 34
M  V30 40 1 36 3
M  V30 41 1 37 5
M  V30 42 1 38 6
M  V30 43 1 39 9
M  V30 44 1 40 9
M  V30 45 1 41 10
M  V30 46 1 42 10
M  V30 47 1 43 11
M  V30 48 1 44 11
M  V30 49 1 45 13
M  V30 50 1 46 13
M  V30 51 1 47 14
M  V30 52 1 48 14
M  V30 53 1 15 49 CFG=3
M  V30 54 1 50 20
M  V30 55 1 51 23
M  V30 56 1 52 24
M  V30 57 1 53 26
M  V30 58 1 54 26
M  V30 59 1 55 27
M  V30 60 1 56 27
M  V30 61 1 57 28
M  V30 62 1 58 29
M  V30 63 1 59 31
M  V30 64 1 60 32
M  V30 65 1 61 33
M  V30 66 1 62 34
M  V30 67 1 63 35
M  V30 68 1 12 64 CFG=1
M  V30 END BOND
M  V30 END CTAB
M  END
>  <b_m_subgroup_collapsed>  (1579) 
0

>  <r_i_docking_score>  (1579) 
-6.96285942613037

>  <s_m_subgroup_title>  (1579) 
glide-dock_SP_D22_pv

>  <s_m_subgroupid>  (1579) 
glide-dock_SP_D22_pv

>  <Molecule ChEMBL ID>  (1579) 
CHEMBL4760590

>  <Standard Type>  (1579) 
Ki

>  <Standard Value>  (1579) 
10000.0

>  <label>  (1579) 
0

$$$$
CHEMBL2115560
     RDKit          3D

  0  0  0  0  0  0  0  0  0  0999 V3000
M  V30 BEGIN CTAB
M  V30 COUNTS 50 53 0 0 1
M  V30 BEGIN ATOM
M  V30 1 O 8.564724 8.572321 -6.646855 0
M  V30 2 C 9.503565 8.473235 -7.416466 0
M  V30 3 C 9.288542 8.696152 -8.891081 0
M  V30 4 C 9.759604 7.433705 -9.620919 0 CFG=1
M  V30 5 C 8.936700 6.174423 -9.205709 0
M  V30 6 C 9.104757 4.970993 -10.131776 0
M  V30 7 C 8.900667 5.336854 -11.603624 0 CFG=2
M  V30 8 O 9.179887 4.172025 -12.365561 0
M  V30 9 C 8.536242 4.117084 -13.629670 0
M  V30 10 C 8.846416 2.812187 -14.336912 0
M  V30 11 C 7.814802 1.899496 -14.646872 0
M  V30 12 C 8.117489 0.675620 -15.276106 0
M  V30 13 C 9.449448 0.367010 -15.612805 0
M  V30 14 C 10.478275 1.282764 -15.320707 0
M  V30 15 C 10.178611 2.500655 -14.679085 0
M  V30 16 C 9.851097 6.475797 -11.999313 0
M  V30 17 C 9.626293 7.716501 -11.133550 0
M  V30 18 O 11.146767 7.214827 -9.303849 0
M  V30 19 C 11.559811 7.446668 -7.998691 0
M  V30 20 C 10.838443 8.039639 -7.021455 0
M  V30 21 C 11.285093 8.115596 -5.615372 0
M  V30 22 C 11.289138 9.359044 -4.944552 0
M  V30 23 C 11.688994 9.432425 -3.595274 0
M  V30 24 C 12.087132 8.268559 -2.910126 0
M  V30 25 C 12.083579 7.026435 -3.573319 0
M  V30 26 C 11.684260 6.951120 -4.923276 0
M  V30 27 H 8.240051 8.915113 -9.088340 0
M  V30 28 H 9.866348 9.563346 -9.209491 0
M  V30 29 H 9.172403 5.861238 -8.188521 0
M  V30 30 H 7.880329 6.421016 -9.187382 0
M  V30 31 H 8.387777 4.199810 -9.846321 0
M  V30 32 H 10.086255 4.530856 -9.987507 0
M  V30 33 H 7.862676 5.647352 -11.740891 0
M  V30 34 H 7.456901 4.215013 -13.501979 0
M  V30 35 H 8.862951 4.942655 -14.262669 0
M  V30 36 H 6.790914 2.126117 -14.387568 0
M  V30 37 H 7.329269 -0.029149 -15.498762 0
M  V30 38 H 9.679235 -0.572213 -16.094223 0
M  V30 39 H 11.499541 1.049498 -15.582422 0
M  V30 40 H 10.972702 3.193560 -14.441678 0
M  V30 41 H 9.714691 6.720430 -13.046863 0
M  V30 42 H 10.886323 6.172395 -11.898530 0
M  V30 43 H 8.624218 8.096236 -11.342432 0
M  V30 44 H 10.317719 8.505971 -11.429389 0
M  V30 45 H 12.545621 7.049896 -7.831039 0
M  V30 46 H 10.979648 10.257542 -5.458975 0
M  V30 47 H 11.686110 10.382827 -3.080040 0
M  V30 48 H 12.386833 8.330360 -1.874250 0
M  V30 49 H 12.379278 6.130824 -3.046613 0
M  V30 50 H 11.675361 5.993310 -5.423162 0
M  V30 END ATOM
M  V30 BEGIN BOND
M  V30 1 2 2 1
M  V30 2 1 3 2
M  V30 3 1 4 3
M  V30 4 1 5 4
M  V30 5 1 6 5
M  V30 6 1 7 6
M  V30 7 1 8 7
M  V30 8 1 9 8
M  V30 9 1 10 9
M  V30 10 2 11 10
M  V30 11 1 12 11
M  V30 12 2 13 12
M  V30 13 1 14 13
M  V30 14 1 15 10
M  V30 15 2 15 14
M  V30 16 1 16 7
M  V30 17 1 17 4
M  V30 18 1 17 16
M  V30 19 1 4 18 CFG=3
M  V30 20 1 19 18
M  V30 21 1 20 2
M  V30 22 2 20 19
M  V30 23 1 21 20
M  V30 24 2 22 21
M  V30 25 1 23 22
M  V30 26 2 24 23
M  V30 27 1 25 24
M  V30 28 1 26 21
M  V30 29 2 26 25
M  V30 30 1 27 3
M  V30 31 1 28 3
M  V30 32 1 29 5
M  V30 33 1 30 5
M  V30 34 1 31 6
M  V30 35 1 32 6
M  V30 36 1 7 33 CFG=1
M  V30 37 1 34 9
M  V30 38 1 35 9
M  V30 39 1 36 11
M  V30 40 1 37 12
M  V30 41 1 38 13
M  V30 42 1 39 14
M  V30 43 1 40 15
M  V30 44 1 41 16
M  V30 45 1 42 16
M  V30 46 1 43 17
M  V30 47 1 44 17
M  V30 48 1 45 19
M  V30 49 1 46 22
M  V30 50 1 47 23
M  V30 51 1 48 24
M  V30 52 1 49 25
M  V30 53 1 50 26
M  V30 END BOND
M  V30 END CTAB
M  END
>  <b_m_subgroup_collapsed>  (1580) 
0

>  <r_i_docking_score>  (1580) 
-6.9623428142534101

>  <s_m_subgroup_title>  (1580) 
glide-dock_SP_D22_pv

>  <s_m_subgroupid>  (1580) 
glide-dock_SP_D22_pv

>  <Molecule ChEMBL ID>  (1580) 
CHEMBL2115560

>  <Standard Type>  (1580) 
Ki

>  <Standard Value>  (1580) 
10000.0

>  <label>  (1580) 
0

$$$$
CHEMBL2207486
     RDKit          3D

  0  0  0  0  0  0  0  0  0  0999 V3000
M  V30 BEGIN CTAB
M  V30 COUNTS 44 46 0 0 1
M  V30 BEGIN ATOM
M  V30 1 C 10.973673 9.696859 -6.020654 0
M  V30 2 C 10.728781 8.757660 -7.208608 0
M  V30 3 C 9.237918 8.635370 -7.606351 0
M  V30 4 N 8.988925 7.741980 -8.769787 0 CFG=2 CHG=1
M  V30 5 C 9.278755 6.312637 -8.500997 0
M  V30 6 C 8.770833 5.444391 -9.657415 0
M  V30 7 C 9.385646 5.873121 -11.003171 0 CFG=1
M  V30 8 C 8.874668 5.030899 -12.141285 0
M  V30 9 C 7.591897 4.572692 -12.313144 0
M  V30 10 N 7.509825 3.774038 -13.445665 0
M  V30 11 C 6.311679 3.092427 -13.891500 0
M  V30 12 C 8.754404 3.725891 -14.054945 0
M  V30 13 C 9.211952 3.062602 -15.210733 0
M  V30 14 C 10.553699 3.207965 -15.609635 0
M  V30 15 C 11.423392 4.018132 -14.856294 0
M  V30 16 F 12.709506 4.172487 -15.244770 0
M  V30 17 C 10.962262 4.668097 -13.696500 0
M  V30 18 C 9.623199 4.532705 -13.260586 0
M  V30 19 C 9.141557 7.369877 -11.245380 0
M  V30 20 C 9.592641 8.218900 -10.043380 0
M  V30 21 H 12.041826 9.768224 -5.805698 0
M  V30 22 H 10.615732 10.705647 -6.231289 0
M  V30 23 H 10.484579 9.336904 -5.114994 0
M  V30 24 H 11.134815 7.778087 -6.954504 0
M  V30 25 H 11.316563 9.128533 -8.048604 0
M  V30 26 H 8.839644 9.619228 -7.849093 0
M  V30 27 H 8.650858 8.280339 -6.758074 0
M  V30 28 H 8.787873 6.006260 -7.574520 0
M  V30 29 H 10.350708 6.156367 -8.368146 0
M  V30 30 H 7.686628 5.532044 -9.702758 0
M  V30 31 H 8.991899 4.396325 -9.453291 0
M  V30 32 H 10.463675 5.742939 -10.923610 0
M  V30 33 H 6.721962 4.739158 -11.691072 0
M  V30 34 H 5.464137 3.358778 -13.259315 0
M  V30 35 H 6.087097 3.372181 -14.920814 0
M  V30 36 H 6.464692 2.013977 -13.842755 0
M  V30 37 H 8.536743 2.446489 -15.786368 0
M  V30 38 H 10.916497 2.704710 -16.493402 0
M  V30 39 H 11.647033 5.279448 -13.130518 0
M  V30 40 H 9.671434 7.693977 -12.142629 0
M  V30 41 H 8.086349 7.539062 -11.449065 0
M  V30 42 H 9.314147 9.259662 -10.209315 0
M  V30 43 H 10.678674 8.184247 -9.975610 0
M  V30 44 H 7.983566 7.775697 -8.930199 0
M  V30 END ATOM
M  V30 BEGIN BOND
M  V30 1 1 2 1
M  V30 2 1 3 2
M  V30 3 1 4 3
M  V30 4 1 5 4
M  V30 5 1 6 5
M  V30 6 1 7 6
M  V30 7 1 8 7
M  V30 8 2 9 8
M  V30 9 1 10 9
M  V30 10 1 11 10
M  V30 11 1 12 10
M  V30 12 1 13 12
M  V30 13 2 14 13
M  V30 14 1 15 14
M  V30 15 1 16 15
M  V30 16 2 17 15
M  V30 17 1 18 8
M  V30 18 2 18 12
M  V30 19 1 18 17
M  V30 20 1 19 7
M  V30 21 1 20 4
M  V30 22 1 20 19
M  V30 23 1 21 1
M  V30 24 1 22 1
M  V30 25 1 23 1
M  V30 26 1 24 2
M  V30 27 1 25 2
M  V30 28 1 26 3
M  V30 29 1 27 3
M  V30 30 1 28 5
M  V30 31 1 29 5
M  V30 32 1 30 6
M  V30 33 1 31 6
M  V30 34 1 7 32 CFG=1
M  V30 35 1 33 9
M  V30 36 1 34 11
M  V30 37 1 35 11
M  V30 38 1 36 11
M  V30 39 1 37 13
M  V30 40 1 38 14
M  V30 41 1 39 17
M  V30 42 1 40 19
M  V30 43 1 41 19
M  V30 44 1 42 20
M  V30 45 1 43 20
M  V30 46 1 4 44 CFG=3
M  V30 END BOND
M  V30 END CTAB
M  END
>  <b_m_subgroup_collapsed>  (1581) 
0

>  <r_i_docking_score>  (1581) 
-6.9593180878974303

>  <s_m_subgroup_title>  (1581) 
glide-dock_SP_D22_pv

>  <s_m_subgroupid>  (1581) 
glide-dock_SP_D22_pv

>  <Molecule ChEMBL ID>  (1581) 
CHEMBL2207486

>  <Standard Type>  (1581) 
Ki

>  <Standard Value>  (1581) 
19.0

>  <label>  (1581) 
1

$$$$
CHEMBL134571
     RDKit          3D

  0  0  0  0  0  0  0  0  0  0999 V3000
M  V30 BEGIN CTAB
M  V30 COUNTS 35 36 0 0 1
M  V30 BEGIN ATOM
M  V30 1 C 9.628273 6.446203 -11.723099 0
M  V30 2 C 9.742905 7.377933 -10.505552 0
M  V30 3 N 9.870715 6.632894 -9.223820 0 CFG=2 CHG=1
M  V30 4 C 8.593662 6.022966 -8.778253 0
M  V30 5 C 10.582555 7.401022 -8.152344 0 CFG=1
M  V30 6 C 9.968740 8.784462 -7.837229 0
M  V30 7 C 10.909049 9.568561 -6.912546 0
M  V30 8 C 11.287865 8.798335 -5.665691 0
M  V30 9 C 11.685017 9.497154 -4.508257 0
M  V30 10 C 12.086811 8.804963 -3.350915 0
M  V30 11 C 12.088642 7.399412 -3.351299 0
M  V30 12 O 12.481527 6.706655 -2.246975 0
M  V30 13 C 11.681506 6.701866 -4.499722 0
M  V30 14 C 11.278459 7.386614 -5.660314 0
M  V30 15 C 10.780890 6.583615 -6.853006 0
M  V30 16 H 9.583624 7.026515 -12.644601 0
M  V30 17 H 10.485477 5.778664 -11.802802 0
M  V30 18 H 8.727226 5.833757 -11.690758 0
M  V30 19 H 8.885600 8.051583 -10.464278 0
M  V30 20 H 10.623593 8.005442 -10.650554 0
M  V30 21 H 8.086035 6.692080 -8.091277 0
M  V30 22 H 7.916237 5.796134 -9.600789 0
M  V30 23 H 8.779239 5.088520 -8.249646 0
M  V30 24 H 11.581909 7.592376 -8.547841 0
M  V30 25 H 9.803671 9.372153 -8.739651 0
M  V30 26 H 8.994785 8.671230 -7.358270 0
M  V30 27 H 10.485925 10.533310 -6.637670 0
M  V30 28 H 11.836612 9.772262 -7.445919 0
M  V30 29 H 11.684093 10.572298 -4.508043 0
M  V30 30 H 12.393623 9.351799 -2.470530 0
M  V30 31 H 12.285172 5.782334 -2.294766 0
M  V30 32 H 11.665435 5.628972 -4.490595 0
M  V30 33 H 11.457948 5.749582 -7.036539 0
M  V30 34 H 9.835171 6.165940 -6.513023 0
M  V30 35 H 10.473844 5.852298 -9.440927 0
M  V30 END ATOM
M  V30 BEGIN BOND
M  V30 1 1 2 1
M  V30 2 1 3 2
M  V30 3 1 4 3
M  V30 4 1 5 3
M  V30 5 1 6 5
M  V30 6 1 7 6
M  V30 7 1 8 7
M  V30 8 1 9 8
M  V30 9 2 10 9
M  V30 10 1 11 10
M  V30 11 1 12 11
M  V30 12 2 13 11
M  V30 13 2 14 8
M  V30 14 1 14 13
M  V30 15 1 15 5
M  V30 16 1 15 14
M  V30 17 1 16 1
M  V30 18 1 17 1
M  V30 19 1 18 1
M  V30 20 1 19 2
M  V30 21 1 20 2
M  V30 22 1 21 4
M  V30 23 1 22 4
M  V30 24 1 23 4
M  V30 25 1 5 24 CFG=3
M  V30 26 1 25 6
M  V30 27 1 26 6
M  V30 28 1 27 7
M  V30 29 1 28 7
M  V30 30 1 29 9
M  V30 31 1 30 10
M  V30 32 1 31 12
M  V30 33 1 32 13
M  V30 34 1 33 15
M  V30 35 1 34 15
M  V30 36 1 3 35 CFG=3
M  V30 END BOND
M  V30 END CTAB
M  END
>  <b_m_subgroup_collapsed>  (1582) 
0

>  <r_i_docking_score>  (1582) 
-6.9559472879526503

>  <s_m_subgroup_title>  (1582) 
glide-dock_SP_D22_pv

>  <s_m_subgroupid>  (1582) 
glide-dock_SP_D22_pv

>  <Molecule ChEMBL ID>  (1582) 
CHEMBL134571

>  <Standard Type>  (1582) 
Ki

>  <Standard Value>  (1582) 
2.5

>  <label>  (1582) 
1

$$$$
CHEMBL56519
     RDKit          3D

  0  0  0  0  0  0  0  0  0  0999 V3000
M  V30 BEGIN CTAB
M  V30 COUNTS 33 35 0 0 1
M  V30 BEGIN ATOM
M  V30 1 O 10.432689 3.242456 -14.914313 0
M  V30 2 C 10.809834 4.434824 -14.365221 0
M  V30 3 C 11.892863 5.125015 -14.936424 0
M  V30 4 C 12.326678 6.335878 -14.374593 0
M  V30 5 C 11.686025 6.851519 -13.234429 0
M  V30 6 C 10.587957 6.178380 -12.646867 0
M  V30 7 C 10.139770 4.960806 -13.234183 0
M  V30 8 C 8.974842 4.172325 -12.644277 0
M  V30 9 C 8.217370 4.890949 -11.522760 0
M  V30 10 C 9.188555 5.634603 -10.606313 0 CFG=2
M  V30 11 N 8.486021 6.172326 -9.426239 0 CHG=1
M  V30 12 C 9.367838 6.903661 -8.495456 0
M  V30 13 C 10.056099 8.066503 -9.224309 0
M  V30 14 C 10.817683 7.574769 -10.466336 0
M  V30 15 C 9.894369 6.754685 -11.403452 0 CFG=1
M  V30 16 H 9.766158 2.793422 -14.418178 0
M  V30 17 H 12.398593 4.720206 -15.801009 0
M  V30 18 H 13.166031 6.861304 -14.806480 0
M  V30 19 H 12.064263 7.772321 -12.825520 0
M  V30 20 H 8.275154 3.892889 -13.432860 0
M  V30 21 H 9.393009 3.246517 -12.248520 0
M  V30 22 H 7.515593 5.605889 -11.956356 0
M  V30 23 H 7.614702 4.172331 -10.966134 0
M  V30 24 H 9.933617 4.925101 -10.240838 0
M  V30 25 H 7.757797 6.817630 -9.743935 0
M  V30 26 H 10.107624 6.218924 -8.077850 0
M  V30 27 H 8.769506 7.278395 -7.663541 0
M  V30 28 H 10.738421 8.581513 -8.547135 0
M  V30 29 H 9.307076 8.802043 -9.523069 0
M  V30 30 H 11.672022 6.972325 -10.157043 0
M  V30 31 H 11.219234 8.448875 -10.977779 0
M  V30 32 H 9.129477 7.436520 -11.780586 0
M  V30 33 H 8.026589 5.421479 -8.931995 0
M  V30 END ATOM
M  V30 BEGIN BOND
M  V30 1 1 2 1
M  V30 2 1 3 2
M  V30 3 2 4 3
M  V30 4 1 5 4
M  V30 5 2 6 5
M  V30 6 2 7 2
M  V30 7 1 7 6
M  V30 8 1 8 7
M  V30 9 1 9 8
M  V30 10 1 10 9
M  V30 11 1 11 10
M  V30 12 1 12 11
M  V30 13 1 13 12
M  V30 14 1 14 13
M  V30 15 1 15 6
M  V30 16 1 15 10
M  V30 17 1 15 14
M  V30 18 1 16 1
M  V30 19 1 17 3
M  V30 20 1 18 4
M  V30 21 1 19 5
M  V30 22 1 20 8
M  V30 23 1 21 8
M  V30 24 1 22 9
M  V30 25 1 23 9
M  V30 26 1 10 24 CFG=1
M  V30 27 1 25 11
M  V30 28 1 26 12
M  V30 29 1 27 12
M  V30 30 1 28 13
M  V30 31 1 29 13
M  V30 32 1 30 14
M  V30 33 1 31 14
M  V30 34 1 15 32 CFG=3
M  V30 35 1 33 11
M  V30 END BOND
M  V30 END CTAB
M  END
>  <b_m_subgroup_collapsed>  (1583) 
0

>  <r_i_docking_score>  (1583) 
-6.9556244044565201

>  <s_m_subgroup_title>  (1583) 
glide-dock_SP_D22_pv

>  <s_m_subgroupid>  (1583) 
glide-dock_SP_D22_pv

>  <Molecule ChEMBL ID>  (1583) 
CHEMBL56519

>  <Standard Type>  (1583) 
Ki

>  <Standard Value>  (1583) 
11.0

>  <label>  (1583) 
1

$$$$
CHEMBL2414991
     RDKit          3D

  0  0  0  0  0  0  0  0  0  0999 V3000
M  V30 BEGIN CTAB
M  V30 COUNTS 38 41 0 0 1
M  V30 BEGIN ATOM
M  V30 1 C 7.882184 5.126292 -10.977261 0
M  V30 2 N 7.430260 5.409893 -12.363024 0 CFG=2 CHG=1
M  V30 3 C 5.968901 5.318146 -12.506996 0
M  V30 4 C 5.519784 3.859058 -12.466968 0
M  V30 5 C 6.270123 2.901627 -13.385110 0
M  V30 6 C 5.846146 1.587361 -13.640350 0
M  V30 7 C 6.673143 0.690733 -14.331465 0
M  V30 8 O 6.228704 -0.594821 -14.494557 0
M  V30 9 C 7.936381 1.113372 -14.811578 0
M  V30 10 O 8.733463 0.172651 -15.409406 0
M  V30 11 C 8.404475 2.455239 -14.633471 0
M  V30 12 C 7.556738 3.294064 -13.846743 0
M  V30 13 C 8.133548 4.681890 -13.464859 0 CFG=2
M  V30 14 C 9.664604 4.644587 -13.262068 0
M  V30 15 C 10.359159 4.013781 -14.444249 0
M  V30 16 C 11.613672 4.506875 -14.860271 0
M  V30 17 C 12.237307 3.969980 -15.998237 0
M  V30 18 C 11.599143 2.948949 -16.723083 0
M  V30 19 C 10.350102 2.456543 -16.296684 0
M  V30 20 C 9.717530 2.955870 -15.131968 0
M  V30 21 H 7.688403 4.093471 -10.694815 0
M  V30 22 H 7.348413 5.769399 -10.275838 0
M  V30 23 H 8.940392 5.338717 -10.829746 0
M  V30 24 H 5.474925 5.894494 -11.723086 0
M  V30 25 H 5.668145 5.773007 -13.446887 0
M  V30 26 H 5.592945 3.475027 -11.448913 0
M  V30 27 H 4.465789 3.802708 -12.728226 0
M  V30 28 H 4.893186 1.249560 -13.259418 0
M  V30 29 H 6.736275 -1.157283 -15.061116 0
M  V30 30 H 8.444529 -0.725427 -15.332299 0
M  V30 31 H 7.967898 5.296672 -14.350042 0
M  V30 32 H 10.056185 5.648088 -13.089018 0
M  V30 33 H 9.927822 4.036471 -12.393744 0
M  V30 34 H 12.098326 5.303116 -14.314209 0
M  V30 35 H 13.198218 4.346056 -16.320049 0
M  V30 36 H 12.066585 2.544003 -17.607397 0
M  V30 37 H 9.885294 1.688135 -16.894213 0
M  V30 38 H 7.648893 6.390155 -12.483308 0
M  V30 END ATOM
M  V30 BEGIN BOND
M  V30 1 1 2 1
M  V30 2 1 3 2
M  V30 3 1 4 3
M  V30 4 1 5 4
M  V30 5 1 6 5
M  V30 6 2 7 6
M  V30 7 1 8 7
M  V30 8 1 9 7
M  V30 9 1 10 9
M  V30 10 2 11 9
M  V30 11 2 12 5
M  V30 12 1 12 11
M  V30 13 1 13 2
M  V30 14 1 13 12
M  V30 15 1 14 13
M  V30 16 1 15 14
M  V30 17 2 16 15
M  V30 18 1 17 16
M  V30 19 2 18 17
M  V30 20 1 19 18
M  V30 21 1 20 11
M  V30 22 1 20 15
M  V30 23 2 20 19
M  V30 24 1 21 1
M  V30 25 1 22 1
M  V30 26 1 23 1
M  V30 27 1 24 3
M  V30 28 1 25 3
M  V30 29 1 26 4
M  V30 30 1 27 4
M  V30 31 1 28 6
M  V30 32 1 29 8
M  V30 33 1 30 10
M  V30 34 1 13 31 CFG=3
M  V30 35 1 32 14
M  V30 36 1 33 14
M  V30 37 1 34 16
M  V30 38 1 35 17
M  V30 39 1 36 18
M  V30 40 1 37 19
M  V30 41 1 2 38 CFG=3
M  V30 END BOND
M  V30 END CTAB
M  END
>  <b_m_subgroup_collapsed>  (1584) 
0

>  <r_i_docking_score>  (1584) 
-6.9512115195876403

>  <s_m_subgroup_title>  (1584) 
glide-dock_SP_D22_pv

>  <s_m_subgroupid>  (1584) 
glide-dock_SP_D22_pv

>  <Molecule ChEMBL ID>  (1584) 
CHEMBL2414991

>  <Standard Type>  (1584) 
Ki

>  <Standard Value>  (1584) 
38.9

>  <label>  (1584) 
1

$$$$
CHEMBL2326480
     RDKit          3D

  0  0  0  0  0  0  0  0  0  0999 V3000
M  V30 BEGIN CTAB
M  V30 COUNTS 46 49 0 0 1
M  V30 BEGIN ATOM
M  V30 1 C 4.908301 -0.472182 -14.215542 0
M  V30 2 O 4.861846 0.686367 -13.394523 0
M  V30 3 C 5.795047 1.675435 -13.616926 0
M  V30 4 C 6.887240 1.544252 -14.507975 0
M  V30 5 C 7.774124 2.617775 -14.706618 0
M  V30 6 C 7.573654 3.836112 -14.032529 0
M  V30 7 C 6.504858 3.980486 -13.118626 0
M  V30 8 C 6.296255 5.278872 -12.327015 0
M  V30 9 N 7.478225 5.773413 -11.555853 0 CFG=1 CHG=1
M  V30 10 C 8.198568 4.709165 -10.806610 0
M  V30 11 C 9.676090 4.985893 -10.548482 0
M  V30 12 C 9.910342 6.192954 -9.668818 0
M  V30 13 C 10.448709 5.959507 -8.392028 0
M  V30 14 C 10.703060 6.985919 -7.471981 0
M  V30 15 N 11.200056 6.842861 -6.179742 0
M  V30 16 C 11.293664 8.039611 -5.605790 0
M  V30 17 N 11.694029 8.220798 -4.295541 0
M  V30 18 S 10.879088 9.417842 -6.614457 0
M  V30 19 C 10.437060 8.309971 -7.905973 0
M  V30 20 C 9.907327 8.572725 -9.187477 0
M  V30 21 C 9.620345 7.513676 -10.082242 0
M  V30 22 C 8.955758 7.862059 -11.420527 0
M  V30 23 C 8.343696 6.735931 -12.300397 0
M  V30 24 C 5.630134 2.889961 -12.915624 0
M  V30 25 H 4.065469 -1.114179 -13.958334 0
M  V30 26 H 5.826214 -1.048195 -14.059879 0
M  V30 27 H 4.817612 -0.222871 -15.275628 0
M  V30 28 H 7.063505 0.630786 -15.055760 0
M  V30 29 H 8.600924 2.510744 -15.393574 0
M  V30 30 H 8.255878 4.649111 -14.218284 0
M  V30 31 H 5.900762 6.038926 -13.005432 0
M  V30 32 H 5.513778 5.111634 -11.580758 0
M  V30 33 H 7.687621 4.525984 -9.865973 0
M  V30 34 H 8.180685 3.773607 -11.353033 0
M  V30 35 H 10.086270 4.100137 -10.066382 0
M  V30 36 H 10.230174 5.080431 -11.479201 0
M  V30 37 H 10.693872 4.959413 -8.112724 0
M  V30 38 H 12.103311 7.442836 -3.800065 0
M  V30 39 H 11.970670 9.138326 -3.973655 0
M  V30 40 H 9.691748 9.591987 -9.467524 0
M  V30 41 H 8.184267 8.601390 -11.202530 0
M  V30 42 H 9.688438 8.403414 -12.017869 0
M  V30 43 H 9.108040 6.216049 -12.876860 0
M  V30 44 H 7.728353 7.252359 -13.040167 0
M  V30 45 H 4.811776 2.981295 -12.219732 0
M  V30 46 H 7.064189 6.387989 -10.851071 0
M  V30 END ATOM
M  V30 BEGIN BOND
M  V30 1 1 2 1
M  V30 2 1 3 2
M  V30 3 2 4 3
M  V30 4 1 5 4
M  V30 5 2 6 5
M  V30 6 1 7 6
M  V30 7 1 8 7
M  V30 8 1 9 8
M  V30 9 1 10 9
M  V30 10 1 11 10
M  V30 11 1 12 11
M  V30 12 2 13 12
M  V30 13 1 14 13
M  V30 14 1 15 14
M  V30 15 2 16 15
M  V30 16 1 17 16
M  V30 17 1 18 16
M  V30 18 2 19 14
M  V30 19 1 19 18
M  V30 20 1 20 19
M  V30 21 1 21 12
M  V30 22 2 21 20
M  V30 23 1 22 21
M  V30 24 1 23 9
M  V30 25 1 23 22
M  V30 26 1 24 3
M  V30 27 2 24 7
M  V30 28 1 25 1
M  V30 29 1 26 1
M  V30 30 1 27 1
M  V30 31 1 28 4
M  V30 32 1 29 5
M  V30 33 1 30 6
M  V30 34 1 31 8
M  V30 35 1 32 8
M  V30 36 1 33 10
M  V30 37 1 34 10
M  V30 38 1 35 11
M  V30 39 1 36 11
M  V30 40 1 37 13
M  V30 41 1 38 17
M  V30 42 1 39 17
M  V30 43 1 40 20
M  V30 44 1 41 22
M  V30 45 1 42 22
M  V30 46 1 43 23
M  V30 47 1 44 23
M  V30 48 1 45 24
M  V30 49 1 9 46 CFG=1
M  V30 END BOND
M  V30 END CTAB
M  END
>  <b_m_subgroup_collapsed>  (1585) 
0

>  <r_i_docking_score>  (1585) 
-6.9510192286864898

>  <s_m_subgroup_title>  (1585) 
glide-dock_SP_D22_pv

>  <s_m_subgroupid>  (1585) 
glide-dock_SP_D22_pv

>  <Molecule ChEMBL ID>  (1585) 
CHEMBL2326480

>  <Standard Type>  (1585) 
Ki

>  <Standard Value>  (1585) 
34.0

>  <label>  (1585) 
1

$$$$
CHEMBL166325
     RDKit          3D

  0  0  0  0  0  0  0  0  0  0999 V3000
M  V30 BEGIN CTAB
M  V30 COUNTS 49 50 0 0 1
M  V30 BEGIN ATOM
M  V30 1 C 11.646787 4.561370 -14.046711 0
M  V30 2 C 10.628959 5.367422 -13.230637 0
M  V30 3 C 9.464969 4.509418 -12.705510 0
M  V30 4 N 8.332115 5.288100 -12.104142 0 CHG=1
M  V30 5 C 7.080247 4.485128 -11.939305 0
M  V30 6 C 6.588314 3.738897 -13.196096 0
M  V30 7 C 5.245042 3.045694 -12.960227 0
M  V30 8 C 8.640581 6.009456 -10.825783 0 CFG=2
M  V30 9 C 9.219347 7.438926 -11.010307 0
M  V30 10 C 9.692463 8.041402 -9.693411 0
M  V30 11 C 9.782597 7.342427 -8.545257 0
M  V30 12 C 10.308933 7.914221 -7.356672 0
M  V30 13 C 10.787088 8.164710 -6.263830 0
M  V30 14 C 11.353408 8.268885 -4.936461 0
M  V30 15 C 11.553053 9.528247 -4.344009 0
M  V30 16 C 12.085475 9.607449 -3.044712 0
M  V30 17 C 12.419329 8.438158 -2.335276 0
M  V30 18 C 12.214764 7.177281 -2.927417 0
M  V30 19 C 11.686391 7.094068 -4.229746 0
M  V30 20 C 9.412367 5.873726 -8.442890 0
M  V30 21 C 9.449777 5.186403 -9.808214 0
M  V30 22 H 12.448382 5.204883 -14.408990 0
M  V30 23 H 12.104385 3.776111 -13.447036 0
M  V30 24 H 11.182039 4.093032 -14.914104 0
M  V30 25 H 10.242373 6.171417 -13.852436 0
M  V30 26 H 11.162113 5.838048 -12.412607 0
M  V30 27 H 9.822317 3.741871 -12.017842 0
M  V30 28 H 9.112650 3.973009 -13.581714 0
M  V30 29 H 7.211139 3.772455 -11.124425 0
M  V30 30 H 6.278968 5.157594 -11.626166 0
M  V30 31 H 6.502487 4.426274 -14.038082 0
M  V30 32 H 7.289150 2.958518 -13.487470 0
M  V30 33 H 4.977256 2.424317 -13.814270 0
M  V30 34 H 5.282346 2.397583 -12.083746 0
M  V30 35 H 4.449072 3.772764 -12.808281 0
M  V30 36 H 7.686166 6.172873 -10.331291 0
M  V30 37 H 8.467751 8.096422 -11.445547 0
M  V30 38 H 10.064726 7.474478 -11.688533 0
M  V30 39 H 9.997152 9.078456 -9.724462 0
M  V30 40 H 11.289822 10.432216 -4.874766 0
M  V30 41 H 12.219437 10.573785 -2.587815 0
M  V30 42 H 12.820807 8.511000 -1.334927 0
M  V30 43 H 12.460307 6.275239 -2.384956 0
M  V30 44 H 11.526154 6.123917 -4.678573 0
M  V30 45 H 10.085866 5.366367 -7.752327 0
M  V30 46 H 8.410455 5.804090 -8.015194 0
M  V30 47 H 10.485120 5.109058 -10.126345 0
M  V30 48 H 9.062222 4.173129 -9.708257 0
M  V30 49 H 8.088245 6.009026 -12.767548 0
M  V30 END ATOM
M  V30 BEGIN BOND
M  V30 1 1 2 1
M  V30 2 1 3 2
M  V30 3 1 4 3
M  V30 4 1 5 4
M  V30 5 1 6 5
M  V30 6 1 7 6
M  V30 7 1 8 4
M  V30 8 1 9 8
M  V30 9 1 10 9
M  V30 10 2 11 10
M  V30 11 1 12 11
M  V30 12 3 13 12
M  V30 13 1 14 13
M  V30 14 2 15 14
M  V30 15 1 16 15
M  V30 16 2 17 16
M  V30 17 1 18 17
M  V30 18 1 19 14
M  V30 19 2 19 18
M  V30 20 1 20 11
M  V30 21 1 21 8
M  V30 22 1 21 20
M  V30 23 1 22 1
M  V30 24 1 23 1
M  V30 25 1 24 1
M  V30 26 1 25 2
M  V30 27 1 26 2
M  V30 28 1 27 3
M  V30 29 1 28 3
M  V30 30 1 29 5
M  V30 31 1 30 5
M  V30 32 1 31 6
M  V30 33 1 32 6
M  V30 34 1 33 7
M  V30 35 1 34 7
M  V30 36 1 35 7
M  V30 37 1 8 36 CFG=1
M  V30 38 1 37 9
M  V30 39 1 38 9
M  V30 40 1 39 10
M  V30 41 1 40 15
M  V30 42 1 41 16
M  V30 43 1 42 17
M  V30 44 1 43 18
M  V30 45 1 44 19
M  V30 46 1 45 20
M  V30 47 1 46 20
M  V30 48 1 47 21
M  V30 49 1 48 21
M  V30 50 1 49 4
M  V30 END BOND
M  V30 END CTAB
M  END
>  <b_m_subgroup_collapsed>  (1586) 
0

>  <r_i_docking_score>  (1586) 
-6.9500625323259397

>  <s_m_subgroup_title>  (1586) 
glide-dock_SP_D22_pv

>  <s_m_subgroupid>  (1586) 
glide-dock_SP_D22_pv

>  <Molecule ChEMBL ID>  (1586) 
CHEMBL166325

>  <Standard Type>  (1586) 
Ki

>  <Standard Value>  (1586) 
15000.0

>  <label>  (1586) 
0

$$$$
CHEMBL5817624
     RDKit          3D

  0  0  0  0  0  0  0  0  0  0999 V3000
M  V30 BEGIN CTAB
M  V30 COUNTS 55 58 0 0 1
M  V30 BEGIN ATOM
M  V30 1 C 12.086438 9.978031 -2.882408 0
M  V30 2 C 11.716064 8.890669 -3.847419 0
M  V30 3 C 11.984673 7.556445 -3.511061 0
M  V30 4 C 11.686149 6.572621 -4.457958 0
M  V30 5 C 11.162343 6.954271 -5.703889 0
M  V30 6 C 10.894664 8.315206 -5.940595 0
M  V30 7 C 10.212492 8.797214 -7.220069 0 CFG=1
M  V30 8 C 11.060098 8.699652 -8.505272 0
M  V30 9 C 10.971028 7.324612 -9.196001 0
M  V30 10 N 9.563889 6.897096 -9.424519 0 CFG=1 CHG=1
M  V30 11 C 9.442459 5.624291 -10.183525 0
M  V30 12 C 9.710549 5.784606 -11.689568 0
M  V30 13 N 9.681558 4.476705 -12.333643 0
M  V30 14 C 9.276006 4.235311 -13.588044 0
M  V30 15 O 8.887184 5.117999 -14.348957 0
M  V30 16 C 9.305267 2.766102 -14.029827 0 CFG=1
M  V30 17 C 7.937261 2.243293 -14.493839 0
M  V30 18 C 8.255173 1.734848 -15.905341 0 CFG=2
M  V30 19 C 9.125174 0.469769 -15.873160 0
M  V30 20 C 10.485436 1.036209 -15.465936 0
M  V30 21 C 10.162121 2.526526 -15.288786 0 CFG=1
M  V30 22 O 9.206303 2.698475 -16.323484 0
M  V30 23 C 8.840009 6.822510 -8.138386 0
M  V30 24 C 8.808436 8.198253 -7.437860 0
M  V30 25 N 11.179235 9.272172 -5.026747 0
M  V30 26 H 11.942444 9.662422 -1.849534 0
M  V30 27 H 13.141042 10.172702 -3.048526 0
M  V30 28 H 11.526091 10.892015 -3.051854 0
M  V30 29 H 12.421317 7.293904 -2.557296 0
M  V30 30 H 11.907295 5.543069 -4.245250 0
M  V30 31 H 10.981867 6.184874 -6.432103 0
M  V30 32 H 10.085811 9.863742 -7.048177 0
M  V30 33 H 10.695776 9.444332 -9.215506 0
M  V30 34 H 12.097761 8.965828 -8.301384 0
M  V30 35 H 11.519339 7.368176 -10.137539 0
M  V30 36 H 11.463099 6.577722 -8.576134 0
M  V30 37 H 10.086748 4.866649 -9.739199 0
M  V30 38 H 8.425356 5.241319 -10.084753 0
M  V30 39 H 8.962996 6.449064 -12.124733 0
M  V30 40 H 10.683070 6.233705 -11.884736 0
M  V30 41 H 9.982567 3.682245 -11.785077 0
M  V30 42 H 9.686743 2.173146 -13.203255 0
M  V30 43 H 7.551858 1.451029 -13.851604 0
M  V30 44 H 7.184811 3.032741 -14.539638 0
M  V30 45 H 7.381405 1.658458 -16.552635 0
M  V30 46 H 8.747573 -0.271872 -15.168993 0
M  V30 47 H 9.179312 0.008649 -16.859930 0
M  V30 48 H 11.214267 0.891698 -16.264374 0
M  V30 49 H 10.883323 0.578346 -14.558829 0
M  V30 50 H 11.032671 3.177022 -15.375879 0
M  V30 51 H 7.844244 6.452934 -8.345180 0
M  V30 52 H 9.269356 6.053183 -7.503983 0
M  V30 53 H 8.258059 8.146579 -6.498567 0
M  V30 54 H 8.241509 8.883820 -8.069383 0
M  V30 55 H 9.085046 7.606729 -9.964418 0
M  V30 END ATOM
M  V30 BEGIN BOND
M  V30 1 1 2 1
M  V30 2 1 3 2
M  V30 3 2 4 3
M  V30 4 1 5 4
M  V30 5 2 6 5
M  V30 6 1 7 6
M  V30 7 1 8 7
M  V30 8 1 9 8
M  V30 9 1 10 9
M  V30 10 1 11 10
M  V30 11 1 12 11
M  V30 12 1 13 12
M  V30 13 1 14 13
M  V30 14 2 15 14
M  V30 15 1 16 14
M  V30 16 1 17 16
M  V30 17 1 18 17
M  V30 18 1 19 18
M  V30 19 1 20 19
M  V30 20 1 21 16
M  V30 21 1 21 20
M  V30 22 1 22 18
M  V30 23 1 22 21
M  V30 24 1 23 10
M  V30 25 1 24 7
M  V30 26 1 24 23
M  V30 27 2 25 2
M  V30 28 1 25 6
M  V30 29 1 26 1
M  V30 30 1 27 1
M  V30 31 1 28 1
M  V30 32 1 29 3
M  V30 33 1 30 4
M  V30 34 1 31 5
M  V30 35 1 7 32 CFG=1
M  V30 36 1 33 8
M  V30 37 1 34 8
M  V30 38 1 35 9
M  V30 39 1 36 9
M  V30 40 1 37 11
M  V30 41 1 38 11
M  V30 42 1 39 12
M  V30 43 1 40 12
M  V30 44 1 41 13
M  V30 45 1 16 42 CFG=1
M  V30 46 1 43 17
M  V30 47 1 44 17
M  V30 48 1 18 45 CFG=3
M  V30 49 1 46 19
M  V30 50 1 47 19
M  V30 51 1 48 20
M  V30 52 1 49 20
M  V30 53 1 21 50 CFG=3
M  V30 54 1 51 23
M  V30 55 1 52 23
M  V30 56 1 53 24
M  V30 57 1 54 24
M  V30 58 1 10 55 CFG=3
M  V30 END BOND
M  V30 END CTAB
M  END
>  <b_m_subgroup_collapsed>  (1587) 
0

>  <r_i_docking_score>  (1587) 
-6.9485921152695003

>  <s_m_subgroup_title>  (1587) 
glide-dock_SP_D22_pv

>  <s_m_subgroupid>  (1587) 
glide-dock_SP_D22_pv

>  <Molecule ChEMBL ID>  (1587) 
CHEMBL5817624

>  <Standard Type>  (1587) 
Ki

>  <Standard Value>  (1587) 
7.1

>  <label>  (1587) 
1

$$$$
CHEMBL1081648
     RDKit          3D

  0  0  0  0  0  0  0  0  0  0999 V3000
M  V30 BEGIN CTAB
M  V30 COUNTS 61 65 0 0 1
M  V30 BEGIN ATOM
M  V30 1 C 12.199013 9.533727 -4.620270 0
M  V30 2 O 12.486053 9.372642 -6.002949 0
M  V30 3 C 11.468031 8.971311 -6.837948 0
M  V30 4 C 10.111755 8.947814 -6.451412 0
M  V30 5 C 9.127074 8.565310 -7.374977 0
M  V30 6 C 9.483191 8.216436 -8.689054 0
M  V30 7 C 10.834498 8.204936 -9.109000 0
M  V30 8 C 11.208920 7.816246 -10.495797 0
M  V30 9 C 10.323848 7.085049 -11.330289 0
M  V30 10 C 10.680143 6.703785 -12.638479 0
M  V30 11 C 11.958894 7.007869 -13.153304 0
M  V30 12 C 12.388885 6.642458 -14.552052 0
M  V30 13 O 12.887397 7.527708 -15.249214 0
M  V30 14 N 12.286381 5.355990 -14.979680 0
M  V30 15 C 11.530061 4.267210 -14.359786 0
M  V30 16 C 10.226969 4.177920 -15.170315 0
M  V30 17 N 10.558776 3.684018 -16.520979 0
M  V30 18 C 10.026317 2.589858 -17.133224 0
M  V30 19 O 10.299779 2.281711 -18.294626 0
M  V30 20 C 9.010330 1.742867 -16.410067 0
M  V30 21 C 9.251775 1.218724 -15.119359 0
M  V30 22 C 8.263236 0.470706 -14.451153 0
M  V30 23 C 7.043908 0.135598 -15.079455 0
M  V30 24 C 5.879842 -0.618119 -14.701397 0
M  V30 25 C 5.043025 -0.628009 -15.785330 0
M  V30 26 N 5.627374 0.101971 -16.807737 0
M  V30 27 C 6.854716 0.599405 -16.413881 0
M  V30 28 C 7.809432 1.395824 -17.068123 0
M  V30 29 C 11.543755 4.551737 -17.220827 0 CFG=1
M  V30 30 C 10.851531 5.785403 -17.829865 0
M  V30 31 C 12.743192 4.925582 -16.307858 0
M  V30 32 C 12.828278 7.772327 -12.349775 0
M  V30 33 C 12.463412 8.167526 -11.047318 0
M  V30 34 C 11.810685 8.581595 -8.150530 0
M  V30 35 H 13.120537 9.771449 -4.088744 0
M  V30 36 H 11.496836 10.351290 -4.447135 0
M  V30 37 H 11.796627 8.618658 -4.183833 0
M  V30 38 H 9.812341 9.231659 -5.454167 0
M  V30 39 H 8.086251 8.550860 -7.081231 0
M  V30 40 H 8.681427 7.958399 -9.366529 0
M  V30 41 H 9.345334 6.791794 -10.979215 0
M  V30 42 H 9.953119 6.172616 -13.231087 0
M  V30 43 H 12.083556 3.329128 -14.425131 0
M  V30 44 H 11.349735 4.394724 -13.294312 0
M  V30 45 H 9.487450 3.603158 -14.626276 0
M  V30 46 H 9.760236 5.159546 -15.266709 0
M  V30 47 H 10.184196 1.418115 -14.609063 0
M  V30 48 H 8.454889 0.128582 -13.447674 0
M  V30 49 H 5.719600 -1.107421 -13.752139 0
M  V30 50 H 4.079755 -1.104667 -15.915228 0
M  V30 51 H 5.195207 0.225876 -17.711597 0
M  V30 52 H 7.630684 1.728849 -18.078785 0
M  V30 53 H 11.985335 4.010664 -18.059402 0
M  V30 54 H 11.545559 6.346501 -18.457319 0
M  V30 55 H 10.004464 5.497847 -18.453180 0
M  V30 56 H 10.486361 6.467032 -17.062206 0
M  V30 57 H 13.373667 5.666791 -16.799568 0
M  V30 58 H 13.386015 4.053306 -16.183092 0
M  V30 59 H 13.792427 8.072451 -12.732004 0
M  V30 60 H 13.179263 8.732061 -10.479397 0
M  V30 61 H 12.860085 8.588924 -8.406612 0
M  V30 END ATOM
M  V30 BEGIN BOND
M  V30 1 1 2 1
M  V30 2 1 3 2
M  V30 3 1 4 3
M  V30 4 2 5 4
M  V30 5 1 6 5
M  V30 6 2 7 6
M  V30 7 1 8 7
M  V30 8 1 9 8
M  V30 9 2 10 9
M  V30 10 1 11 10
M  V30 11 1 12 11
M  V30 12 2 13 12
M  V30 13 1 14 12
M  V30 14 1 15 14
M  V30 15 1 16 15
M  V30 16 1 17 16
M  V30 17 1 18 17
M  V30 18 2 19 18
M  V30 19 1 20 18
M  V30 20 2 21 20
M  V30 21 1 22 21
M  V30 22 2 23 22
M  V30 23 1 24 23
M  V30 24 2 25 24
M  V30 25 1 26 25
M  V30 26 1 27 23
M  V30 27 1 27 26
M  V30 28 1 28 20
M  V30 29 2 28 27
M  V30 30 1 29 17
M  V30 31 1 30 29
M  V30 32 1 31 14
M  V30 33 1 31 29
M  V30 34 2 32 11
M  V30 35 2 33 8
M  V30 36 1 33 32
M  V30 37 2 34 3
M  V30 38 1 34 7
M  V30 39 1 35 1
M  V30 40 1 36 1
M  V30 41 1 37 1
M  V30 42 1 38 4
M  V30 43 1 39 5
M  V30 44 1 40 6
M  V30 45 1 41 9
M  V30 46 1 42 10
M  V30 47 1 43 15
M  V30 48 1 44 15
M  V30 49 1 45 16
M  V30 50 1 46 16
M  V30 51 1 47 21
M  V30 52 1 48 22
M  V30 53 1 49 24
M  V30 54 1 50 25
M  V30 55 1 51 26
M  V30 56 1 52 28
M  V30 57 1 29 53 CFG=3
M  V30 58 1 54 30
M  V30 59 1 55 30
M  V30 60 1 56 30
M  V30 61 1 57 31
M  V30 62 1 58 31
M  V30 63 1 59 32
M  V30 64 1 60 33
M  V30 65 1 61 34
M  V30 END BOND
M  V30 END CTAB
M  END
>  <b_m_subgroup_collapsed>  (1588) 
0

>  <r_i_docking_score>  (1588) 
-6.94670025772509

>  <s_m_subgroup_title>  (1588) 
glide-dock_SP_D22_pv

>  <s_m_subgroupid>  (1588) 
glide-dock_SP_D22_pv

>  <Molecule ChEMBL ID>  (1588) 
CHEMBL1081648

>  <Standard Type>  (1588) 
Ki

>  <Standard Value>  (1588) 
10000.0

>  <label>  (1588) 
0

$$$$
CHEMBL103622
     RDKit          3D

  0  0  0  0  0  0  0  0  0  0999 V3000
M  V30 BEGIN CTAB
M  V30 COUNTS 40 41 0 0 1
M  V30 BEGIN ATOM
M  V30 1 C 8.723335 4.125250 -8.685695 0
M  V30 2 C 9.693159 5.292838 -8.649260 0
M  V30 3 C 8.978273 6.622058 -8.395415 0
M  V30 4 N 9.947825 7.748584 -8.467528 0 CHG=1
M  V30 5 C 9.522388 8.748114 -9.490324 0
M  V30 6 C 9.699584 8.204768 -10.923409 0
M  V30 7 C 11.149753 7.802129 -11.241135 0
M  V30 8 C 10.339559 8.292985 -7.123810 0 CFG=2
M  V30 9 C 11.458149 9.372547 -7.179075 0
M  V30 10 C 11.673837 10.034995 -5.808125 0
M  V30 11 C 11.732572 9.016257 -4.724452 0
M  V30 12 S 12.265725 9.371908 -3.108309 0
M  V30 13 C 12.154369 7.693042 -2.667265 0
M  V30 14 C 11.685848 6.931753 -3.703708 0
M  V30 15 C 11.392563 7.699598 -4.870290 0
M  V30 16 C 10.824134 7.168113 -6.152331 0
M  V30 17 H 9.266897 3.181975 -8.646835 0
M  V30 18 H 8.042396 4.143497 -7.846868 0
M  V30 19 H 8.112858 4.173152 -9.588854 0
M  V30 20 H 10.223384 5.325607 -9.599457 0
M  V30 21 H 10.444656 5.109641 -7.886987 0
M  V30 22 H 8.442369 6.614426 -7.445747 0
M  V30 23 H 8.187915 6.720438 -9.138949 0
M  V30 24 H 8.486508 9.041579 -9.314654 0
M  V30 25 H 10.095404 9.667119 -9.447846 0
M  V30 26 H 9.037889 7.357995 -11.105945 0
M  V30 27 H 9.381275 8.971315 -11.630018 0
M  V30 28 H 11.250949 7.510607 -12.287154 0
M  V30 29 H 11.847172 8.615337 -11.048156 0
M  V30 30 H 11.478516 6.961012 -10.635784 0
M  V30 31 H 9.447475 8.756723 -6.697684 0
M  V30 32 H 12.388280 8.900116 -7.498529 0
M  V30 33 H 11.285954 10.171788 -7.886605 0
M  V30 34 H 10.866475 10.737105 -5.598872 0
M  V30 35 H 12.597038 10.613217 -5.837752 0
M  V30 36 H 12.438925 7.374373 -1.676848 0
M  V30 37 H 11.520176 5.864609 -3.657902 0
M  V30 38 H 11.597674 6.576231 -6.642630 0
M  V30 39 H 10.013969 6.481466 -5.909888 0
M  V30 40 H 10.794435 7.351915 -8.846504 0
M  V30 END ATOM
M  V30 BEGIN BOND
M  V30 1 1 2 1
M  V30 2 1 3 2
M  V30 3 1 4 3
M  V30 4 1 5 4
M  V30 5 1 6 5
M  V30 6 1 7 6
M  V30 7 1 8 4
M  V30 8 1 9 8
M  V30 9 1 10 9
M  V30 10 1 11 10
M  V30 11 1 12 11
M  V30 12 1 13 12
M  V30 13 2 14 13
M  V30 14 2 15 11
M  V30 15 1 15 14
M  V30 16 1 16 8
M  V30 17 1 16 15
M  V30 18 1 17 1
M  V30 19 1 18 1
M  V30 20 1 19 1
M  V30 21 1 20 2
M  V30 22 1 21 2
M  V30 23 1 22 3
M  V30 24 1 23 3
M  V30 25 1 24 5
M  V30 26 1 25 5
M  V30 27 1 26 6
M  V30 28 1 27 6
M  V30 29 1 28 7
M  V30 30 1 29 7
M  V30 31 1 30 7
M  V30 32 1 8 31 CFG=1
M  V30 33 1 32 9
M  V30 34 1 33 9
M  V30 35 1 34 10
M  V30 36 1 35 10
M  V30 37 1 36 13
M  V30 38 1 37 14
M  V30 39 1 38 16
M  V30 40 1 39 16
M  V30 41 1 40 4
M  V30 END BOND
M  V30 END CTAB
M  END
>  <b_m_subgroup_collapsed>  (1589) 
0

>  <r_i_docking_score>  (1589) 
-6.9461066682730603

>  <s_m_subgroup_title>  (1589) 
glide-dock_SP_D22_pv

>  <s_m_subgroupid>  (1589) 
glide-dock_SP_D22_pv

>  <Molecule ChEMBL ID>  (1589) 
CHEMBL103622

>  <Standard Type>  (1589) 
Ki

>  <Standard Value>  (1589) 
20.0

>  <label>  (1589) 
1

$$$$
CHEMBL2413154
     RDKit          3D

  0  0  0  0  0  0  0  0  0  0999 V3000
M  V30 BEGIN CTAB
M  V30 COUNTS 55 57 0 0 1
M  V30 BEGIN ATOM
M  V30 1 C 11.912504 10.636134 -6.248780 0
M  V30 2 O 10.989748 10.288600 -5.236186 0
M  V30 3 C 11.383035 9.180897 -4.532660 0
M  V30 4 C 11.968387 9.375413 -3.265494 0
M  V30 5 C 12.411929 8.281071 -2.502651 0
M  V30 6 C 12.270438 6.979063 -3.009751 0
M  V30 7 C 11.685965 6.779333 -4.273400 0
M  V30 8 C 11.219997 7.866450 -5.046740 0
M  V30 9 N 10.581356 7.607928 -6.276908 0
M  V30 10 C 9.310410 8.219986 -6.646853 0
M  V30 11 C 9.389999 8.845860 -8.048981 0
M  V30 12 N 10.014716 7.929241 -9.042722 0 CHG=1
M  V30 13 C 10.196151 8.554165 -10.373132 0
M  V30 14 C 8.948190 8.418875 -11.254329 0
M  V30 15 C 8.600791 6.935860 -11.487589 0
M  V30 16 C 7.526734 6.762549 -12.566051 0
M  V30 17 N 7.256478 5.359554 -12.893603 0
M  V30 18 N 5.977393 4.958460 -12.579519 0
M  V30 19 C 5.571393 3.775042 -12.888600 0
M  V30 20 C 6.482268 2.843243 -13.585047 0
M  V30 21 O 6.085964 1.707780 -13.847178 0
M  V30 22 N 7.736983 3.310837 -13.862768 0
M  V30 23 C 8.700540 2.419063 -14.533702 0
M  V30 24 C 8.164349 4.570994 -13.548326 0
M  V30 25 O 9.286866 4.983057 -13.854332 0
M  V30 26 C 11.279202 7.306029 -8.576193 0
M  V30 27 C 11.125440 6.635936 -7.205376 0
M  V30 28 H 11.571038 11.515495 -6.785257 0
M  V30 29 H 12.886097 10.885661 -5.846627 0
M  V30 30 H 12.053580 9.832280 -6.970582 0
M  V30 31 H 12.079773 10.375636 -2.872707 0
M  V30 32 H 12.857928 8.442922 -1.532337 0
M  V30 33 H 12.603284 6.129943 -2.429008 0
M  V30 34 H 11.565426 5.771983 -4.638410 0
M  V30 35 H 8.541398 7.446442 -6.631483 0
M  V30 36 H 9.006884 8.971392 -5.926139 0
M  V30 37 H 8.394472 9.130118 -8.383666 0
M  V30 38 H 9.964600 9.771207 -7.991947 0
M  V30 39 H 10.512452 9.584546 -10.245974 0
M  V30 40 H 11.019466 8.074383 -10.905354 0
M  V30 41 H 8.092337 8.972536 -10.851020 0
M  V30 42 H 9.165206 8.887767 -12.213778 0
M  V30 43 H 9.509987 6.404811 -11.771146 0
M  V30 44 H 8.252901 6.471725 -10.563687 0
M  V30 45 H 6.607897 7.262269 -12.257135 0
M  V30 46 H 7.840910 7.296147 -13.449426 0
M  V30 47 H 4.557446 3.455266 -12.646919 0
M  V30 48 H 9.596704 2.296141 -13.920259 0
M  V30 49 H 8.327857 1.412645 -14.737243 0
M  V30 50 H 9.006557 2.841547 -15.493753 0
M  V30 51 H 11.584794 6.572898 -9.316973 0
M  V30 52 H 12.064131 8.062278 -8.533360 0
M  V30 53 H 12.085480 6.246847 -6.868504 0
M  V30 54 H 10.443365 5.787089 -7.267498 0
M  V30 55 H 9.359791 7.167982 -9.165055 0
M  V30 END ATOM
M  V30 BEGIN BOND
M  V30 1 1 2 1
M  V30 2 1 3 2
M  V30 3 2 4 3
M  V30 4 1 5 4
M  V30 5 2 6 5
M  V30 6 1 7 6
M  V30 7 1 8 3
M  V30 8 2 8 7
M  V30 9 1 9 8
M  V30 10 1 10 9
M  V30 11 1 11 10
M  V30 12 1 12 11
M  V30 13 1 13 12
M  V30 14 1 14 13
M  V30 15 1 15 14
M  V30 16 1 16 15
M  V30 17 1 17 16
M  V30 18 1 18 17
M  V30 19 2 19 18
M  V30 20 1 20 19
M  V30 21 2 21 20
M  V30 22 1 22 20
M  V30 23 1 23 22
M  V30 24 1 24 17
M  V30 25 1 24 22
M  V30 26 2 25 24
M  V30 27 1 26 12
M  V30 28 1 27 9
M  V30 29 1 27 26
M  V30 30 1 28 1
M  V30 31 1 29 1
M  V30 32 1 30 1
M  V30 33 1 31 4
M  V30 34 1 32 5
M  V30 35 1 33 6
M  V30 36 1 34 7
M  V30 37 1 35 10
M  V30 38 1 36 10
M  V30 39 1 37 11
M  V30 40 1 38 11
M  V30 41 1 39 13
M  V30 42 1 40 13
M  V30 43 1 41 14
M  V30 44 1 42 14
M  V30 45 1 43 15
M  V30 46 1 44 15
M  V30 47 1 45 16
M  V30 48 1 46 16
M  V30 49 1 47 19
M  V30 50 1 48 23
M  V30 51 1 49 23
M  V30 52 1 50 23
M  V30 53 1 51 26
M  V30 54 1 52 26
M  V30 55 1 53 27
M  V30 56 1 54 27
M  V30 57 1 55 12
M  V30 END BOND
M  V30 END CTAB
M  END
>  <b_m_subgroup_collapsed>  (1590) 
0

>  <r_i_docking_score>  (1590) 
-6.9451753925876103

>  <s_m_subgroup_title>  (1590) 
glide-dock_SP_D22_pv

>  <s_m_subgroupid>  (1590) 
glide-dock_SP_D22_pv

>  <Molecule ChEMBL ID>  (1590) 
CHEMBL2413154

>  <Standard Type>  (1590) 
Ki

>  <Standard Value>  (1590) 
10000.0

>  <label>  (1590) 
0

$$$$
CHEMBL2326480
     RDKit          3D

  0  0  0  0  0  0  0  0  0  0999 V3000
M  V30 BEGIN CTAB
M  V30 COUNTS 46 49 0 0 1
M  V30 BEGIN ATOM
M  V30 1 C 8.052244 0.856797 -16.062191 0
M  V30 2 O 7.924521 2.179081 -15.557508 0
M  V30 3 C 7.083414 2.385455 -14.485328 0
M  V30 4 C 6.275692 1.372838 -13.910585 0
M  V30 5 C 5.468852 1.662005 -12.796853 0
M  V30 6 C 5.462657 2.957605 -12.250190 0
M  V30 7 C 6.227769 3.986197 -12.827276 0
M  V30 8 C 6.225015 5.379407 -12.201239 0
M  V30 9 N 7.499976 5.771773 -11.529552 0 CFG=2 CHG=1
M  V30 10 C 8.371378 6.664080 -12.341051 0
M  V30 11 C 9.014503 7.801734 -11.503996 0
M  V30 12 C 9.535556 7.487720 -10.093693 0
M  V30 13 C 9.754845 8.576043 -9.217124 0
M  V30 14 C 10.191713 8.390617 -7.884007 0
M  V30 15 N 10.488473 9.371986 -6.946367 0
M  V30 16 C 10.887295 8.809813 -5.804794 0
M  V30 17 N 11.282345 9.545208 -4.702446 0
M  V30 18 S 10.901760 7.050195 -5.754742 0
M  V30 19 C 10.369034 7.057753 -7.428864 0
M  V30 20 C 10.145619 5.969610 -8.274510 0
M  V30 21 C 9.771701 6.175584 -9.612441 0
M  V30 22 C 9.664732 4.963271 -10.500002 0
M  V30 23 C 8.229423 4.639242 -10.887430 0
M  V30 24 C 7.043868 3.686163 -13.935231 0
M  V30 25 H 8.783179 0.849669 -16.870234 0
M  V30 26 H 7.108605 0.491721 -16.468771 0
M  V30 27 H 8.404803 0.166619 -15.294062 0
M  V30 28 H 6.270559 0.363881 -14.294609 0
M  V30 29 H 4.887519 0.876885 -12.340555 0
M  V30 30 H 4.886611 3.160347 -11.368808 0
M  V30 31 H 5.908800 6.113645 -12.941414 0
M  V30 32 H 5.441384 5.410229 -11.445615 0
M  V30 33 H 9.116780 6.091776 -12.889948 0
M  V30 34 H 7.787486 7.155279 -13.118613 0
M  V30 35 H 9.834139 8.238341 -12.076525 0
M  V30 36 H 8.275740 8.600513 -11.407130 0
M  V30 37 H 9.585218 9.584416 -9.563475 0
M  V30 38 H 11.465349 10.531959 -4.816044 0
M  V30 39 H 11.803655 9.089138 -3.968723 0
M  V30 40 H 10.306921 4.977612 -7.895432 0
M  V30 41 H 10.280547 5.105917 -11.384365 0
M  V30 42 H 10.084080 4.093599 -9.993634 0
M  V30 43 H 7.685791 4.288029 -10.014158 0
M  V30 44 H 8.323529 3.797868 -11.564914 0
M  V30 45 H 7.667096 4.457930 -14.361627 0
M  V30 46 H 7.188185 6.396993 -10.782161 0
M  V30 END ATOM
M  V30 BEGIN BOND
M  V30 1 1 2 1
M  V30 2 1 3 2
M  V30 3 2 4 3
M  V30 4 1 5 4
M  V30 5 2 6 5
M  V30 6 1 7 6
M  V30 7 1 8 7
M  V30 8 1 9 8
M  V30 9 1 10 9
M  V30 10 1 11 10
M  V30 11 1 12 11
M  V30 12 2 13 12
M  V30 13 1 14 13
M  V30 14 1 15 14
M  V30 15 2 16 15
M  V30 16 1 17 16
M  V30 17 1 18 16
M  V30 18 2 19 14
M  V30 19 1 19 18
M  V30 20 1 20 19
M  V30 21 1 21 12
M  V30 22 2 21 20
M  V30 23 1 22 21
M  V30 24 1 23 9
M  V30 25 1 23 22
M  V30 26 1 24 3
M  V30 27 2 24 7
M  V30 28 1 25 1
M  V30 29 1 26 1
M  V30 30 1 27 1
M  V30 31 1 28 4
M  V30 32 1 29 5
M  V30 33 1 30 6
M  V30 34 1 31 8
M  V30 35 1 32 8
M  V30 36 1 33 10
M  V30 37 1 34 10
M  V30 38 1 35 11
M  V30 39 1 36 11
M  V30 40 1 37 13
M  V30 41 1 38 17
M  V30 42 1 39 17
M  V30 43 1 40 20
M  V30 44 1 41 22
M  V30 45 1 42 22
M  V30 46 1 43 23
M  V30 47 1 44 23
M  V30 48 1 45 24
M  V30 49 1 9 46 CFG=1
M  V30 END BOND
M  V30 END CTAB
M  END
>  <b_m_subgroup_collapsed>  (1591) 
0

>  <r_i_docking_score>  (1591) 
-6.9449644070266601

>  <s_m_subgroup_title>  (1591) 
glide-dock_SP_D22_pv

>  <s_m_subgroupid>  (1591) 
glide-dock_SP_D22_pv

>  <Molecule ChEMBL ID>  (1591) 
CHEMBL2326480

>  <Standard Type>  (1591) 
Ki

>  <Standard Value>  (1591) 
34.0

>  <label>  (1591) 
1

$$$$
CHEMBL4516621
     RDKit          3D

  0  0  0  0  0  0  0  0  0  0999 V3000
M  V30 BEGIN CTAB
M  V30 COUNTS 26 28 0 0 1
M  V30 BEGIN ATOM
M  V30 1 C 11.306781 10.419273 -5.977705 0
M  V30 2 N 11.591550 9.215560 -5.222301 0
M  V30 3 C 12.162704 9.151868 -4.010347 0
M  V30 4 N 12.258480 7.928533 -3.504676 0
M  V30 5 C 11.686097 7.120308 -4.483449 0
M  V30 6 C 11.286066 7.896463 -5.548639 0
M  V30 7 C 10.557201 7.522145 -6.750583 0
M  V30 8 C 9.332686 6.918368 -6.711040 0
M  V30 9 N 8.844472 6.769780 -7.985760 0
M  V30 10 C 9.747267 7.216376 -8.910890 0
M  V30 11 C 9.686075 7.270060 -10.311305 0
M  V30 12 C 10.792839 7.746444 -11.025558 0
M  V30 13 C 11.937578 8.171516 -10.330009 0
M  V30 14 F 13.010291 8.571175 -11.048358 0
M  V30 15 C 11.971562 8.157424 -8.914171 0
M  V30 16 F 13.082006 8.572597 -8.262600 0
M  V30 17 C 10.871175 7.675342 -8.160704 0
M  V30 18 H 11.015795 10.173087 -6.997231 0
M  V30 19 H 10.490635 10.964680 -5.500432 0
M  V30 20 H 12.194900 11.047997 -6.016809 0
M  V30 21 H 12.503095 10.024734 -3.472941 0
M  V30 22 H 11.592372 6.053581 -4.342227 0
M  V30 23 H 8.744956 6.621855 -5.858326 0
M  V30 24 H 7.875384 6.528336 -8.178188 0
M  V30 25 H 8.793168 6.940001 -10.824981 0
M  V30 26 H 10.772185 7.771333 -12.104983 0
M  V30 END ATOM
M  V30 BEGIN BOND
M  V30 1 1 2 1
M  V30 2 1 3 2
M  V30 3 2 4 3
M  V30 4 1 5 4
M  V30 5 1 6 2
M  V30 6 2 6 5
M  V30 7 1 7 6
M  V30 8 2 8 7
M  V30 9 1 9 8
M  V30 10 1 10 9
M  V30 11 1 11 10
M  V30 12 2 12 11
M  V30 13 1 13 12
M  V30 14 1 14 13
M  V30 15 2 15 13
M  V30 16 1 16 15
M  V30 17 1 17 7
M  V30 18 2 17 10
M  V30 19 1 17 15
M  V30 20 1 18 1
M  V30 21 1 19 1
M  V30 22 1 20 1
M  V30 23 1 21 3
M  V30 24 1 22 5
M  V30 25 1 23 8
M  V30 26 1 24 9
M  V30 27 1 25 11
M  V30 28 1 26 12
M  V30 END BOND
M  V30 END CTAB
M  END
>  <b_m_subgroup_collapsed>  (1592) 
0

>  <r_i_docking_score>  (1592) 
-6.9427353757877199

>  <s_m_subgroup_title>  (1592) 
glide-dock_SP_D22_pv

>  <s_m_subgroupid>  (1592) 
glide-dock_SP_D22_pv

>  <Molecule ChEMBL ID>  (1592) 
CHEMBL4516621

>  <Standard Type>  (1592) 
Ki

>  <Standard Value>  (1592) 
10000.0

>  <label>  (1592) 
0

$$$$
CHEMBL4745809
     RDKit          3D

  0  0  0  0  0  0  0  0  0  0999 V3000
M  V30 BEGIN CTAB
M  V30 COUNTS 65 68 0 0 1
M  V30 BEGIN ATOM
M  V30 1 C 12.329934 4.086946 -14.096209 0
M  V30 2 C 11.148222 3.092081 -13.970372 0 CFG=1
M  V30 3 C 10.068984 3.562157 -12.977784 0
M  V30 4 N 9.629933 4.956223 -13.216223 0 CFG=2 CHG=1
M  V30 5 C 9.153291 5.638117 -11.984296 0
M  V30 6 C 10.144758 6.747024 -11.579062 0
M  V30 7 C 10.380484 6.858864 -10.061614 0 CFG=1
M  V30 8 C 11.550261 7.815368 -9.758904 0
M  V30 9 C 11.808047 7.935569 -8.250248 0
M  V30 10 C 10.542476 8.374274 -7.499366 0 CFG=2
M  V30 11 N 10.798811 8.365952 -6.071852 0
M  V30 12 C 11.333743 9.363362 -5.358569 0
M  V30 13 O 11.684688 10.436854 -5.846009 0
M  V30 14 C 11.417432 9.083863 -3.855704 0 CFG=2
M  V30 15 C 12.464686 9.808431 -3.047577 0
M  V30 16 C 12.641587 8.908301 -1.835110 0
M  V30 17 C 12.035357 7.564043 -2.251233 0
M  V30 18 O 11.707506 7.710061 -3.624164 0
M  V30 19 C 9.371085 7.424183 -7.795205 0
M  V30 20 C 9.118501 7.299158 -9.301997 0
M  V30 21 C 8.743274 5.122040 -14.386807 0
M  V30 22 C 9.494472 4.968168 -15.727175 0
M  V30 23 C 9.799391 3.537973 -16.128689 0
M  V30 24 C 9.287174 3.071581 -17.361908 0
M  V30 25 C 9.504081 1.746672 -17.777880 0
M  V30 26 C 10.229967 0.870927 -16.955547 0
M  V30 27 Cl 10.486169 -0.760064 -17.448786 0
M  V30 28 C 10.747225 1.329086 -15.731500 0
M  V30 29 C 10.557478 2.665740 -15.310892 0
M  V30 30 H 13.062272 3.768703 -14.835631 0
M  V30 31 H 12.029119 5.089465 -14.388559 0
M  V30 32 H 12.854650 4.181143 -13.144728 0
M  V30 33 H 11.556755 2.180245 -13.532167 0
M  V30 34 H 9.218736 2.879564 -12.984326 0
M  V30 35 H 10.485837 3.512148 -11.973168 0
M  V30 36 H 8.156011 6.062545 -12.114119 0
M  V30 37 H 9.036467 4.919718 -11.172302 0
M  V30 38 H 11.111640 6.571501 -12.052851 0
M  V30 39 H 9.803681 7.702866 -11.977380 0
M  V30 40 H 10.657486 5.871927 -9.686746 0
M  V30 41 H 12.460291 7.467873 -10.249249 0
M  V30 42 H 11.340432 8.804324 -10.168995 0
M  V30 43 H 12.619637 8.642119 -8.073269 0
M  V30 44 H 12.131530 6.973504 -7.850903 0
M  V30 45 H 10.264201 9.381203 -7.816593 0
M  V30 46 H 10.567491 7.524064 -5.564450 0
M  V30 47 H 10.479034 9.369009 -3.414186 0
M  V30 48 H 13.383919 9.917062 -3.618792 0
M  V30 49 H 12.087695 10.788483 -2.747543 0
M  V30 50 H 12.092443 9.313733 -0.985870 0
M  V30 51 H 13.686047 8.833985 -1.547752 0
M  V30 52 H 11.121484 7.361787 -1.689162 0
M  V30 53 H 12.716968 6.725362 -2.101438 0
M  V30 54 H 8.464116 7.780846 -7.303200 0
M  V30 55 H 9.574430 6.433764 -7.382292 0
M  V30 56 H 8.771048 8.258557 -9.689826 0
M  V30 57 H 8.312789 6.579725 -9.462517 0
M  V30 58 H 7.886860 4.450195 -14.326002 0
M  V30 59 H 8.341519 6.134461 -14.341382 0
M  V30 60 H 10.404339 5.567798 -15.746542 0
M  V30 61 H 8.885900 5.373121 -16.527985 0
M  V30 62 H 8.716712 3.727878 -18.002785 0
M  V30 63 H 9.107745 1.400516 -18.720299 0
M  V30 64 H 11.286387 0.630175 -15.111746 0
M  V30 65 H 10.473697 5.455303 -13.456734 0
M  V30 END ATOM
M  V30 BEGIN BOND
M  V30 1 1 2 1
M  V30 2 1 3 2
M  V30 3 1 4 3
M  V30 4 1 5 4
M  V30 5 1 6 5
M  V30 6 1 7 6
M  V30 7 1 8 7
M  V30 8 1 9 8
M  V30 9 1 10 9
M  V30 10 1 11 10
M  V30 11 1 12 11
M  V30 12 2 13 12
M  V30 13 1 14 12
M  V30 14 1 15 14
M  V30 15 1 16 15
M  V30 16 1 17 16
M  V30 17 1 18 14
M  V30 18 1 18 17
M  V30 19 1 19 10
M  V30 20 1 20 7
M  V30 21 1 20 19
M  V30 22 1 21 4
M  V30 23 1 22 21
M  V30 24 1 23 22
M  V30 25 1 24 23
M  V30 26 2 25 24
M  V30 27 1 26 25
M  V30 28 1 27 26
M  V30 29 2 28 26
M  V30 30 1 29 2
M  V30 31 2 29 23
M  V30 32 1 29 28
M  V30 33 1 30 1
M  V30 34 1 31 1
M  V30 35 1 32 1
M  V30 36 1 2 33 CFG=1
M  V30 37 1 34 3
M  V30 38 1 35 3
M  V30 39 1 36 5
M  V30 40 1 37 5
M  V30 41 1 38 6
M  V30 42 1 39 6
M  V30 43 1 7 40 CFG=1
M  V30 44 1 41 8
M  V30 45 1 42 8
M  V30 46 1 43 9
M  V30 47 1 44 9
M  V30 48 1 10 45 CFG=3
M  V30 49 1 46 11
M  V30 50 1 14 47 CFG=1
M  V30 51 1 48 15
M  V30 52 1 49 15
M  V30 53 1 50 16
M  V30 54 1 51 16
M  V30 55 1 52 17
M  V30 56 1 53 17
M  V30 57 1 54 19
M  V30 58 1 55 19
M  V30 59 1 56 20
M  V30 60 1 57 20
M  V30 61 1 58 21
M  V30 62 1 59 21
M  V30 63 1 60 22
M  V30 64 1 61 22
M  V30 65 1 62 24
M  V30 66 1 63 25
M  V30 67 1 64 28
M  V30 68 1 4 65 CFG=3
M  V30 END BOND
M  V30 END CTAB
M  END
>  <b_m_subgroup_collapsed>  (1593) 
0

>  <r_i_docking_score>  (1593) 
-6.9427190424057104

>  <s_m_subgroup_title>  (1593) 
glide-dock_SP_D22_pv

>  <s_m_subgroupid>  (1593) 
glide-dock_SP_D22_pv

>  <Molecule ChEMBL ID>  (1593) 
CHEMBL4745809

>  <Standard Type>  (1593) 
Ki

>  <Standard Value>  (1593) 
20.6

>  <label>  (1593) 
1

$$$$
CHEMBL4463034
     RDKit          3D

  0  0  0  0  0  0  0  0  0  0999 V3000
M  V30 BEGIN CTAB
M  V30 COUNTS 53 57 0 0 1
M  V30 BEGIN ATOM
M  V30 1 C 2.915331 -0.869542 -13.934658 0
M  V30 2 O 4.091718 -0.227568 -13.479887 0
M  V30 3 C 5.081789 0.009486 -14.403665 0
M  V30 4 C 5.171566 -0.628289 -15.667189 0
M  V30 5 C 6.216292 -0.303298 -16.551020 0
M  V30 6 C 7.156199 0.672319 -16.183197 0
M  V30 7 N 8.264729 1.190153 -16.832619 0
M  V30 8 C 8.858334 2.191458 -16.080400 0
M  V30 9 C 8.130191 2.330045 -14.928860 0
M  V30 10 C 8.347376 3.364171 -13.906824 0
M  V30 11 C 7.305142 3.924411 -13.265235 0
M  V30 12 C 7.419304 4.952846 -12.153876 0
M  V30 13 N 8.818341 5.270470 -11.742623 0 CFG=2 CHG=1
M  V30 14 C 8.834682 6.599673 -11.073882 0
M  V30 15 C 10.169027 7.054255 -10.492609 0
M  V30 16 C 11.113932 7.561471 -11.316555 0
M  V30 17 C 12.348876 8.172389 -10.846646 0
M  V30 18 O 13.245885 8.554833 -11.596451 0
M  V30 19 N 12.432566 8.338891 -9.516412 0
M  V30 20 C 11.464049 7.917343 -8.577232 0
M  V30 21 C 11.645759 8.219372 -7.215138 0
M  V30 22 C 10.724820 7.743975 -6.265437 0
M  V30 23 C 9.626609 6.972468 -6.684853 0
M  V30 24 C 9.428950 6.695456 -8.052634 0
M  V30 25 C 10.334659 7.192117 -9.021706 0
M  V30 26 C 9.795976 5.125131 -12.855678 0
M  V30 27 C 9.750133 3.729228 -13.481528 0
M  V30 28 C 7.076679 1.355836 -14.935639 0
M  V30 29 C 6.045874 0.971110 -14.047933 0
M  V30 30 H 2.273150 -1.064856 -13.078751 0
M  V30 31 H 2.378001 -0.245584 -14.650320 0
M  V30 32 H 3.126830 -1.827693 -14.394633 0
M  V30 33 H 4.462047 -1.377388 -15.983927 0
M  V30 34 H 6.292353 -0.805320 -17.503960 0
M  V30 35 H 8.607166 0.899740 -17.737156 0
M  V30 36 H 9.720181 2.734410 -16.441652 0
M  V30 37 H 6.294761 3.668377 -13.545934 0
M  V30 38 H 6.912822 5.852146 -12.507599 0
M  V30 39 H 6.866764 4.602248 -11.282968 0
M  V30 40 H 8.498759 7.363965 -11.777445 0
M  V30 41 H 8.086144 6.572409 -10.293909 0
M  V30 42 H 10.945832 7.564357 -12.382439 0
M  V30 43 H 13.240673 8.843109 -9.177091 0
M  V30 44 H 12.486359 8.813101 -6.892703 0
M  V30 45 H 10.862848 7.964245 -5.216960 0
M  V30 46 H 8.921872 6.599900 -5.954123 0
M  V30 47 H 8.559147 6.117240 -8.322483 0
M  V30 48 H 10.816483 5.291063 -12.522106 0
M  V30 49 H 9.578868 5.873026 -13.618649 0
M  V30 50 H 10.115367 2.969392 -12.791711 0
M  V30 51 H 10.411826 3.722540 -14.347239 0
M  V30 52 H 5.965528 1.448709 -13.083947 0
M  V30 53 H 9.077089 4.584177 -11.047490 0
M  V30 END ATOM
M  V30 BEGIN BOND
M  V30 1 1 2 1
M  V30 2 1 3 2
M  V30 3 1 4 3
M  V30 4 2 5 4
M  V30 5 1 6 5
M  V30 6 1 7 6
M  V30 7 1 8 7
M  V30 8 2 9 8
M  V30 9 1 10 9
M  V30 10 2 11 10
M  V30 11 1 12 11
M  V30 12 1 13 12
M  V30 13 1 14 13
M  V30 14 1 15 14
M  V30 15 2 16 15
M  V30 16 1 17 16
M  V30 17 2 18 17
M  V30 18 1 19 17
M  V30 19 1 20 19
M  V30 20 2 21 20
M  V30 21 1 22 21
M  V30 22 2 23 22
M  V30 23 1 24 23
M  V30 24 1 25 15
M  V30 25 1 25 20
M  V30 26 2 25 24
M  V30 27 1 26 13
M  V30 28 1 27 10
M  V30 29 1 27 26
M  V30 30 2 28 6
M  V30 31 1 28 9
M  V30 32 2 29 3
M  V30 33 1 29 28
M  V30 34 1 30 1
M  V30 35 1 31 1
M  V30 36 1 32 1
M  V30 37 1 33 4
M  V30 38 1 34 5
M  V30 39 1 35 7
M  V30 40 1 36 8
M  V30 41 1 37 11
M  V30 42 1 38 12
M  V30 43 1 39 12
M  V30 44 1 40 14
M  V30 45 1 41 14
M  V30 46 1 42 16
M  V30 47 1 43 19
M  V30 48 1 44 21
M  V30 49 1 45 22
M  V30 50 1 46 23
M  V30 51 1 47 24
M  V30 52 1 48 26
M  V30 53 1 49 26
M  V30 54 1 50 27
M  V30 55 1 51 27
M  V30 56 1 52 29
M  V30 57 1 13 53 CFG=1
M  V30 END BOND
M  V30 END CTAB
M  END
>  <b_m_subgroup_collapsed>  (1594) 
0

>  <r_i_docking_score>  (1594) 
-6.9420369660068602

>  <s_m_subgroup_title>  (1594) 
glide-dock_SP_D22_pv

>  <s_m_subgroupid>  (1594) 
glide-dock_SP_D22_pv

>  <Molecule ChEMBL ID>  (1594) 
CHEMBL4463034

>  <Standard Type>  (1594) 
Ki

>  <Standard Value>  (1594) 
58.0

>  <label>  (1594) 
1

$$$$
CHEMBL2048230
     RDKit          3D

  0  0  0  0  0  0  0  0  0  0999 V3000
M  V30 BEGIN CTAB
M  V30 COUNTS 41 42 0 0 1
M  V30 BEGIN ATOM
M  V30 1 C 7.947067 5.506063 -11.833965 0
M  V30 2 C 9.196342 4.925803 -11.158420 0
M  V30 3 C 9.145411 5.006459 -9.621297 0
M  V30 4 N 9.295152 6.394876 -9.109344 0 CFG=2 CHG=1
M  V30 5 C 10.707828 6.864884 -9.104703 0
M  V30 6 C 10.844185 8.337446 -8.666282 0
M  V30 7 C 10.094035 8.686424 -7.363907 0 CFG=2
M  V30 8 C 10.853044 8.443198 -6.060515 0
M  V30 9 C 11.132117 9.536814 -5.210885 0
M  V30 10 C 11.692082 9.330035 -3.935475 0
M  V30 11 C 11.977837 8.017706 -3.485785 0
M  V30 12 O 12.486050 7.711594 -2.247257 0
M  V30 13 C 12.985907 8.784938 -1.477697 0
M  V30 14 C 11.712883 6.935962 -4.339485 0
M  V30 15 C 11.192418 7.143788 -5.625585 0
M  V30 16 C 8.695527 8.047586 -7.352248 0
M  V30 17 C 8.693527 6.562589 -7.768186 0
M  V30 18 H 7.997242 5.384631 -12.916084 0
M  V30 19 H 7.040921 5.008046 -11.486609 0
M  V30 20 H 7.838975 6.570678 -11.628138 0
M  V30 21 H 10.085672 5.414579 -11.552386 0
M  V30 22 H 9.286337 3.878690 -11.449953 0
M  V30 23 H 9.918548 4.372686 -9.183663 0
M  V30 24 H 8.193616 4.584688 -9.293566 0
M  V30 25 H 11.145891 6.756087 -10.096032 0
M  V30 26 H 11.285503 6.226691 -8.439402 0
M  V30 27 H 10.424305 8.949836 -9.466130 0
M  V30 28 H 11.893233 8.628202 -8.594141 0
M  V30 29 H 9.933399 9.765187 -7.401627 0
M  V30 30 H 10.883967 10.543620 -5.514019 0
M  V30 31 H 11.864222 10.189130 -3.305398 0
M  V30 32 H 13.554259 8.383385 -0.646751 0
M  V30 33 H 13.683884 9.372187 -2.067029 0
M  V30 34 H 12.187234 9.418669 -1.090483 0
M  V30 35 H 11.931304 5.930867 -4.009367 0
M  V30 36 H 11.042611 6.275522 -6.240563 0
M  V30 37 H 8.211656 8.177539 -6.384442 0
M  V30 38 H 8.086165 8.602074 -8.062840 0
M  V30 39 H 7.686045 6.171659 -7.777283 0
M  V30 40 H 9.196572 5.931046 -7.044107 0
M  V30 41 H 8.747012 6.985316 -9.724898 0
M  V30 END ATOM
M  V30 BEGIN BOND
M  V30 1 1 2 1
M  V30 2 1 3 2
M  V30 3 1 4 3
M  V30 4 1 5 4
M  V30 5 1 6 5
M  V30 6 1 7 6
M  V30 7 1 8 7
M  V30 8 1 9 8
M  V30 9 2 10 9
M  V30 10 1 11 10
M  V30 11 1 12 11
M  V30 12 1 13 12
M  V30 13 2 14 11
M  V30 14 2 15 8
M  V30 15 1 15 14
M  V30 16 1 16 7
M  V30 17 1 17 4
M  V30 18 1 17 16
M  V30 19 1 18 1
M  V30 20 1 19 1
M  V30 21 1 20 1
M  V30 22 1 21 2
M  V30 23 1 22 2
M  V30 24 1 23 3
M  V30 25 1 24 3
M  V30 26 1 25 5
M  V30 27 1 26 5
M  V30 28 1 27 6
M  V30 29 1 28 6
M  V30 30 1 7 29 CFG=3
M  V30 31 1 30 9
M  V30 32 1 31 10
M  V30 33 1 32 13
M  V30 34 1 33 13
M  V30 35 1 34 13
M  V30 36 1 35 14
M  V30 37 1 36 15
M  V30 38 1 37 16
M  V30 39 1 38 16
M  V30 40 1 39 17
M  V30 41 1 40 17
M  V30 42 1 4 41 CFG=3
M  V30 END BOND
M  V30 END CTAB
M  END
>  <b_m_subgroup_collapsed>  (1595) 
0

>  <r_i_docking_score>  (1595) 
-6.9416582985209603

>  <s_m_subgroup_title>  (1595) 
glide-dock_SP_D22_pv

>  <s_m_subgroupid>  (1595) 
glide-dock_SP_D22_pv

>  <Molecule ChEMBL ID>  (1595) 
CHEMBL2048230

>  <Standard Type>  (1595) 
Ki

>  <Standard Value>  (1595) 
23000.0

>  <label>  (1595) 
0

$$$$
CHEMBL5723020
     RDKit          3D

  0  0  0  0  0  0  0  0  0  0999 V3000
M  V30 BEGIN CTAB
M  V30 COUNTS 39 41 0 0 1
M  V30 BEGIN ATOM
M  V30 1 C 5.544397 2.573175 -13.088663 0
M  V30 2 C 6.292467 3.832790 -12.840322 0
M  V30 3 N 5.722618 4.877848 -12.247046 0
M  V30 4 N 6.770663 5.722202 -12.102319 0
M  V30 5 C 7.862780 5.153535 -12.628164 0
M  V30 6 S 9.464045 5.870046 -12.646907 0
M  V30 7 C 9.499992 6.632179 -11.007297 0
M  V30 8 C 9.440497 5.582962 -9.882339 0
M  V30 9 N 10.085804 6.082025 -8.679491 0
M  V30 10 C 9.296755 7.113705 -8.024984 0
M  V30 11 C 10.112647 7.794043 -6.947837 0
M  V30 12 C 10.314651 9.122898 -6.923604 0
M  V30 13 C 11.060568 9.764709 -5.822281 0
M  V30 14 O 11.286780 10.970914 -5.825021 0
M  V30 15 C 11.493958 8.867888 -4.713731 0
M  V30 16 C 12.064678 9.371712 -3.523867 0
M  V30 17 C 12.460389 8.490866 -2.499070 0
M  V30 18 F 13.005558 8.972082 -1.360482 0
M  V30 19 C 12.275501 7.104945 -2.647194 0
M  V30 20 C 11.687376 6.603590 -3.817900 0
M  V30 21 C 11.286067 7.474035 -4.842647 0
M  V30 22 N 10.625703 6.970288 -5.961656 0
M  V30 23 N 7.609114 3.964480 -13.156639 0
M  V30 24 H 5.687641 1.881038 -12.260846 0
M  V30 25 H 4.484994 2.783228 -13.168305 0
M  V30 26 H 5.882708 2.099884 -14.009610 0
M  V30 27 H 6.701530 6.604475 -11.594601 0
M  V30 28 H 8.693852 7.359863 -10.923515 0
M  V30 29 H 10.433531 7.193412 -10.946135 0
M  V30 30 H 9.991101 4.692974 -10.190514 0
M  V30 31 H 8.414641 5.270651 -9.680856 0
M  V30 32 H 10.232548 5.316353 -8.038580 0
M  V30 33 H 8.396750 6.678658 -7.588197 0
M  V30 34 H 8.970565 7.866539 -8.741904 0
M  V30 35 H 9.902903 9.750629 -7.697031 0
M  V30 36 H 12.172603 10.432560 -3.366262 0
M  V30 37 H 12.569133 6.428833 -1.857381 0
M  V30 38 H 11.530045 5.551497 -3.935809 0
M  V30 39 H 10.427560 5.981224 -5.993534 0
M  V30 END ATOM
M  V30 BEGIN BOND
M  V30 1 1 2 1
M  V30 2 2 3 2
M  V30 3 1 4 3
M  V30 4 1 5 4
M  V30 5 1 6 5
M  V30 6 1 7 6
M  V30 7 1 8 7
M  V30 8 1 9 8
M  V30 9 1 10 9
M  V30 10 1 11 10
M  V30 11 2 12 11
M  V30 12 1 13 12
M  V30 13 2 14 13
M  V30 14 1 15 13
M  V30 15 2 16 15
M  V30 16 1 17 16
M  V30 17 1 18 17
M  V30 18 2 19 17
M  V30 19 1 20 19
M  V30 20 1 21 15
M  V30 21 2 21 20
M  V30 22 1 22 11
M  V30 23 1 22 21
M  V30 24 1 23 2
M  V30 25 2 23 5
M  V30 26 1 24 1
M  V30 27 1 25 1
M  V30 28 1 26 1
M  V30 29 1 27 4
M  V30 30 1 28 7
M  V30 31 1 29 7
M  V30 32 1 30 8
M  V30 33 1 31 8
M  V30 34 1 32 9
M  V30 35 1 33 10
M  V30 36 1 34 10
M  V30 37 1 35 12
M  V30 38 1 36 16
M  V30 39 1 37 19
M  V30 40 1 38 20
M  V30 41 1 39 22
M  V30 END BOND
M  V30 END CTAB
M  END
>  <b_m_subgroup_collapsed>  (1596) 
0

>  <r_i_docking_score>  (1596) 
-6.93976639840385

>  <s_m_subgroup_title>  (1596) 
glide-dock_SP_D22_pv

>  <s_m_subgroupid>  (1596) 
glide-dock_SP_D22_pv

>  <Molecule ChEMBL ID>  (1596) 
CHEMBL5723020

>  <Standard Type>  (1596) 
Ki

>  <Standard Value>  (1596) 
10000.0

>  <label>  (1596) 
0

$$$$
CHEMBL5817624
     RDKit          3D

  0  0  0  0  0  0  0  0  0  0999 V3000
M  V30 BEGIN CTAB
M  V30 COUNTS 55 58 0 0 1
M  V30 BEGIN ATOM
M  V30 1 C 12.087035 6.782105 -2.728965 0
M  V30 2 C 11.688427 7.713218 -3.855518 0
M  V30 3 C 11.704812 9.111022 -3.681516 0
M  V30 4 C 11.285910 9.919671 -4.753066 0
M  V30 5 C 10.883582 9.314866 -5.955328 0
M  V30 6 C 10.899384 7.907402 -6.032255 0
M  V30 7 C 10.451574 7.150984 -7.272613 0 CFG=1
M  V30 8 C 9.008296 6.664949 -7.148935 0
M  V30 9 C 8.703938 5.693317 -8.296868 0
M  V30 10 N 8.885614 6.318220 -9.636105 0 CFG=2 CHG=1
M  V30 11 C 8.622350 5.325875 -10.713376 0
M  V30 12 C 8.373711 5.960685 -12.095290 0
M  V30 13 N 8.221552 4.937320 -13.126483 0
M  V30 14 C 9.243323 4.303165 -13.727102 0
M  V30 15 O 10.417421 4.503720 -13.416150 0
M  V30 16 C 8.878312 3.341824 -14.872834 0 CFG=1
M  V30 17 C 9.587395 3.654265 -16.199947 0
M  V30 18 C 10.106110 2.272184 -16.617350 0 CFG=1
M  V30 19 C 11.345675 1.872405 -15.815715 0
M  V30 20 C 10.736841 1.544552 -14.455937 0
M  V30 21 C 9.246746 1.854194 -14.677385 0 CFG=2
M  V30 22 O 9.132190 1.427014 -16.025698 0
M  V30 23 C 10.219343 6.973466 -9.778556 0
M  V30 24 C 10.566840 7.909576 -8.604852 0
M  V30 25 N 11.286864 7.123374 -5.000964 0
M  V30 26 H 12.439107 7.339460 -1.861126 0
M  V30 27 H 11.235030 6.175215 -2.420696 0
M  V30 28 H 12.884796 6.111781 -3.046064 0
M  V30 29 H 12.017414 9.557327 -2.748227 0
M  V30 30 H 11.271218 10.992096 -4.655233 0
M  V30 31 H 10.557421 9.926990 -6.780747 0
M  V30 32 H 11.105436 6.277970 -7.333630 0
M  V30 33 H 8.862988 6.172460 -6.189831 0
M  V30 34 H 8.315606 7.508286 -7.156943 0
M  V30 35 H 9.348749 4.816061 -8.218007 0
M  V30 36 H 7.685793 5.333858 -8.193365 0
M  V30 37 H 9.451000 4.616385 -10.756709 0
M  V30 38 H 7.736641 4.742829 -10.454579 0
M  V30 39 H 7.466044 6.565370 -12.068272 0
M  V30 40 H 9.180852 6.631775 -12.387768 0
M  V30 41 H 7.281739 4.726288 -13.429221 0
M  V30 42 H 7.799986 3.373070 -15.030150 0
M  V30 43 H 8.886832 4.034232 -16.941343 0
M  V30 44 H 10.396473 4.381786 -16.113588 0
M  V30 45 H 10.218163 2.147766 -17.694845 0
M  V30 46 H 11.821111 0.990117 -16.246023 0
M  V30 47 H 12.084467 2.672584 -15.768454 0
M  V30 48 H 11.185756 2.101573 -13.636173 0
M  V30 49 H 10.863001 0.482624 -14.244700 0
M  V30 50 H 8.580625 1.322551 -13.997008 0
M  V30 51 H 10.978048 6.196013 -9.846033 0
M  V30 52 H 10.267605 7.542913 -10.705548 0
M  V30 53 H 9.898586 8.772120 -8.617794 0
M  V30 54 H 11.580141 8.293287 -8.732566 0
M  V30 55 H 8.161960 7.029616 -9.717560 0
M  V30 END ATOM
M  V30 BEGIN BOND
M  V30 1 1 2 1
M  V30 2 1 3 2
M  V30 3 2 4 3
M  V30 4 1 5 4
M  V30 5 2 6 5
M  V30 6 1 7 6
M  V30 7 1 8 7
M  V30 8 1 9 8
M  V30 9 1 10 9
M  V30 10 1 11 10
M  V30 11 1 12 11
M  V30 12 1 13 12
M  V30 13 1 14 13
M  V30 14 2 15 14
M  V30 15 1 16 14
M  V30 16 1 17 16
M  V30 17 1 18 17
M  V30 18 1 19 18
M  V30 19 1 20 19
M  V30 20 1 21 16
M  V30 21 1 21 20
M  V30 22 1 22 18
M  V30 23 1 22 21
M  V30 24 1 23 10
M  V30 25 1 24 7
M  V30 26 1 24 23
M  V30 27 2 25 2
M  V30 28 1 25 6
M  V30 29 1 26 1
M  V30 30 1 27 1
M  V30 31 1 28 1
M  V30 32 1 29 3
M  V30 33 1 30 4
M  V30 34 1 31 5
M  V30 35 1 7 32 CFG=3
M  V30 36 1 33 8
M  V30 37 1 34 8
M  V30 38 1 35 9
M  V30 39 1 36 9
M  V30 40 1 37 11
M  V30 41 1 38 11
M  V30 42 1 39 12
M  V30 43 1 40 12
M  V30 44 1 41 13
M  V30 45 1 16 42 CFG=3
M  V30 46 1 43 17
M  V30 47 1 44 17
M  V30 48 1 18 45 CFG=3
M  V30 49 1 46 19
M  V30 50 1 47 19
M  V30 51 1 48 20
M  V30 52 1 49 20
M  V30 53 1 21 50 CFG=1
M  V30 54 1 51 23
M  V30 55 1 52 23
M  V30 56 1 53 24
M  V30 57 1 54 24
M  V30 58 1 10 55 CFG=3
M  V30 END BOND
M  V30 END CTAB
M  END
>  <b_m_subgroup_collapsed>  (1597) 
0

>  <r_i_docking_score>  (1597) 
-6.9394623624092802

>  <s_m_subgroup_title>  (1597) 
glide-dock_SP_D22_pv

>  <s_m_subgroupid>  (1597) 
glide-dock_SP_D22_pv

>  <Molecule ChEMBL ID>  (1597) 
CHEMBL5817624

>  <Standard Type>  (1597) 
Ki

>  <Standard Value>  (1597) 
7.1

>  <label>  (1597) 
1

$$$$
CHEMBL5870352
     RDKit          3D

  0  0  0  0  0  0  0  0  0  0999 V3000
M  V30 BEGIN CTAB
M  V30 COUNTS 72 77 0 0 1
M  V30 BEGIN ATOM
M  V30 1 C 3.697138 -1.204045 -16.275583 0
M  V30 2 N 4.820568 -1.184524 -17.197422 0
M  V30 3 C 6.099411 -0.566723 -16.816101 0
M  V30 4 C 6.968911 -0.829112 -18.024689 0
M  V30 5 C 8.335379 -0.546328 -18.253750 0
M  V30 6 C 9.189804 0.162774 -17.243895 0
M  V30 7 O 10.326633 -0.228446 -16.985601 0
M  V30 8 N 8.624030 1.248454 -16.698935 0
M  V30 9 C 9.169051 2.061545 -15.621337 0 CFG=1
M  V30 10 C 9.687474 3.406797 -16.159065 0
M  V30 11 C 10.196837 4.306152 -15.015326 0
M  V30 12 C 9.112335 4.547843 -13.944333 0 CFG=2
M  V30 13 C 9.639711 5.402312 -12.770085 0
M  V30 14 C 8.528502 5.799139 -11.767347 0
M  V30 15 N 8.886781 6.873581 -10.812099 0 CFG=2 CHG=1
M  V30 16 C 9.037251 8.226869 -11.380870 0
M  V30 17 C 9.790771 8.973219 -10.323527 0 CFG=2
M  V30 18 C 11.293402 8.914513 -10.294145 0
M  V30 19 C 10.466470 7.996129 -9.419771 0 CFG=1
M  V30 20 C 10.598198 8.172362 -7.932496 0
M  V30 21 C 11.715713 8.678143 -7.213078 0
M  V30 22 C 11.289856 8.706702 -5.917045 0
M  V30 23 C 11.915588 9.156984 -4.633931 0
M  V30 24 C 12.198757 7.994201 -3.675721 0
M  V30 25 F 13.077286 9.771363 -4.854704 0
M  V30 26 F 11.123996 10.016546 -3.991043 0
M  V30 27 O 10.029008 8.222036 -5.846905 0
M  V30 28 N 9.577006 7.925056 -7.135412 0
M  V30 29 C 10.013166 6.623796 -9.870799 0
M  V30 30 C 8.556864 3.202275 -13.446872 0
M  V30 31 C 8.064726 2.299453 -14.582808 0
M  V30 32 C 8.895262 -0.999115 -19.474808 0
M  V30 33 C 8.101048 -1.676942 -20.434860 0
M  V30 34 C 6.734651 -1.935313 -20.188566 0
M  V30 35 C 6.202024 -1.501602 -18.962738 0
M  V30 36 C 4.825779 -1.696650 -18.445953 0
M  V30 37 O 3.900357 -2.226974 -19.058542 0
M  V30 38 H 2.878436 -0.630191 -16.695255 0
M  V30 39 H 3.351479 -2.224318 -16.109711 0
M  V30 40 H 3.963123 -0.770796 -15.311847 0
M  V30 41 H 6.509218 -1.027645 -15.917895 0
M  V30 42 H 5.965304 0.501066 -16.645144 0
M  V30 43 H 7.700286 1.485956 -17.023754 0
M  V30 44 H 9.993194 1.534640 -15.135596 0
M  V30 45 H 8.886498 3.914284 -16.701359 0
M  V30 46 H 10.490611 3.237401 -16.877565 0
M  V30 47 H 10.535861 5.258633 -15.424202 0
M  V30 48 H 11.070661 3.842519 -14.555713 0
M  V30 49 H 8.298842 5.095458 -14.423203 0
M  V30 50 H 10.117668 6.287993 -13.182404 0
M  V30 51 H 10.428022 4.856273 -12.251012 0
M  V30 52 H 8.220307 4.929723 -11.184514 0
M  V30 53 H 7.641742 6.130733 -12.309917 0
M  V30 54 H 8.082301 8.703097 -11.581994 0
M  V30 55 H 9.616945 8.233583 -12.301851 0
M  V30 56 H 9.257102 9.772267 -9.819445 0
M  V30 57 H 11.790305 9.769645 -9.843075 0
M  V30 58 H 11.821527 8.462563 -11.130962 0
M  V30 59 H 12.676603 8.997459 -7.588261 0
M  V30 60 H 12.658252 8.350843 -2.752988 0
M  V30 61 H 11.286171 7.463678 -3.407081 0
M  V30 62 H 12.878293 7.272624 -4.127123 0
M  V30 63 H 10.862044 6.172155 -10.370939 0
M  V30 64 H 9.699925 5.988588 -9.040560 0
M  V30 65 H 9.333403 2.678798 -12.887768 0
M  V30 66 H 7.726855 3.374122 -12.763124 0
M  V30 67 H 7.191576 2.754155 -15.053843 0
M  V30 68 H 7.730354 1.346005 -14.170557 0
M  V30 69 H 9.940132 -0.820755 -19.685995 0
M  V30 70 H 8.548405 -2.008204 -21.360710 0
M  V30 71 H 6.123255 -2.461372 -20.907360 0
M  V30 72 H 8.042728 6.991900 -10.246794 0
M  V30 END ATOM
M  V30 BEGIN BOND
M  V30 1 1 2 1
M  V30 2 1 3 2
M  V30 3 1 4 3
M  V30 4 2 5 4
M  V30 5 1 6 5
M  V30 6 2 7 6
M  V30 7 1 8 6
M  V30 8 1 9 8
M  V30 9 1 10 9
M  V30 10 1 11 10
M  V30 11 1 12 11
M  V30 12 1 13 12
M  V30 13 1 14 13
M  V30 14 1 15 14
M  V30 15 1 16 15
M  V30 16 1 17 16
M  V30 17 1 18 17
M  V30 18 1 19 17
M  V30 19 1 19 18
M  V30 20 1 19 20 CFG=1
M  V30 21 1 21 20
M  V30 22 2 22 21
M  V30 23 1 23 22
M  V30 24 1 24 23
M  V30 25 1 25 23
M  V30 26 1 26 23
M  V30 27 1 27 22
M  V30 28 2 28 20
M  V30 29 1 28 27
M  V30 30 1 29 15
M  V30 31 1 29 19
M  V30 32 1 30 12
M  V30 33 1 31 9
M  V30 34 1 31 30
M  V30 35 1 32 5
M  V30 36 2 33 32
M  V30 37 1 34 33
M  V30 38 1 35 4
M  V30 39 2 35 34
M  V30 40 1 36 2
M  V30 41 1 36 35
M  V30 42 2 37 36
M  V30 43 1 38 1
M  V30 44 1 39 1
M  V30 45 1 40 1
M  V30 46 1 41 3
M  V30 47 1 42 3
M  V30 48 1 43 8
M  V30 49 1 9 44 CFG=1
M  V30 50 1 45 10
M  V30 51 1 46 10
M  V30 52 1 47 11
M  V30 53 1 48 11
M  V30 54 1 12 49 CFG=3
M  V30 55 1 50 13
M  V30 56 1 51 13
M  V30 57 1 52 14
M  V30 58 1 53 14
M  V30 59 1 54 16
M  V30 60 1 55 16
M  V30 61 1 17 56 CFG=1
M  V30 62 1 57 18
M  V30 63 1 58 18
M  V30 64 1 59 21
M  V30 65 1 60 24
M  V30 66 1 61 24
M  V30 67 1 62 24
M  V30 68 1 63 29
M  V30 69 1 64 29
M  V30 70 1 65 30
M  V30 71 1 66 30
M  V30 72 1 67 31
M  V30 73 1 68 31
M  V30 74 1 69 32
M  V30 75 1 70 33
M  V30 76 1 71 34
M  V30 77 1 15 72 CFG=1
M  V30 END BOND
M  V30 END CTAB
M  END
>  <b_m_subgroup_collapsed>  (1598) 
0

>  <r_i_docking_score>  (1598) 
-6.9385315932260001

>  <s_m_subgroup_title>  (1598) 
glide-dock_SP_D22_pv

>  <s_m_subgroupid>  (1598) 
glide-dock_SP_D22_pv

>  <Molecule ChEMBL ID>  (1598) 
CHEMBL5870352

>  <Standard Type>  (1598) 
Ki

>  <Standard Value>  (1598) 
86.0

>  <label>  (1598) 
1

$$$$
CHEMBL4288077
     RDKit          3D

  0  0  0  0  0  0  0  0  0  0999 V3000
M  V30 BEGIN CTAB
M  V30 COUNTS 62 65 0 0 1
M  V30 BEGIN ATOM
M  V30 1 C 10.430184 0.633714 -14.951162 0
M  V30 2 C 9.148411 1.310610 -15.470064 0 CFG=1
M  V30 3 C 9.076701 1.312749 -17.006596 0
M  V30 4 C 8.004267 0.703047 -17.704651 0
M  V30 5 C 7.957549 0.724393 -19.113077 0
M  V30 6 C 8.979780 1.354628 -19.845053 0
M  V30 7 F 8.932775 1.374698 -21.198441 0
M  V30 8 C 10.052113 1.960353 -19.165960 0
M  V30 9 C 10.101515 1.935619 -17.758997 0
M  V30 10 N 7.977639 0.718592 -14.849503 0
M  V30 11 C 7.164930 1.631633 -14.306633 0
M  V30 12 O 6.056330 1.385278 -13.845387 0
M  V30 13 N 7.769026 2.830996 -14.353800 0
M  V30 14 C 7.162104 4.101357 -13.921303 0
M  V30 15 C 7.219119 4.330573 -12.397794 0 CFG=2
M  V30 16 O 6.001505 3.867385 -11.846997 0
M  V30 17 C 7.346549 5.830803 -12.052391 0
M  V30 18 N 8.621119 6.131515 -11.357388 0 CHG=1
M  V30 19 C 9.056293 7.534019 -11.575438 0
M  V30 20 C 10.362267 7.827549 -10.829134 0
M  V30 21 N 10.153522 7.652600 -9.392068 0
M  V30 22 C 11.383903 8.060878 -8.705850 0
M  V30 23 C 11.286371 8.226593 -7.196502 0
M  V30 24 C 11.278573 9.524549 -6.645979 0
M  V30 25 C 11.285996 9.714767 -5.252721 0
M  V30 26 C 11.304511 8.600893 -4.396436 0
M  V30 27 C 11.286137 7.299684 -4.934522 0
M  V30 28 C 11.285901 7.113261 -6.329735 0
M  V30 29 C 9.842278 6.236897 -9.158893 0
M  V30 30 C 8.576762 5.779105 -9.912159 0
M  V30 31 C 8.971968 2.730482 -14.932470 0
M  V30 32 O 9.808097 3.628446 -15.044954 0
M  V30 33 H 11.325583 1.103232 -15.355755 0
M  V30 34 H 10.502560 0.690076 -13.867637 0
M  V30 35 H 10.459247 -0.419047 -15.231169 0
M  V30 36 H 7.201335 0.206894 -17.179262 0
M  V30 37 H 7.135680 0.253769 -19.632662 0
M  V30 38 H 10.836975 2.443552 -19.727249 0
M  V30 39 H 10.932476 2.410842 -17.258694 0
M  V30 40 H 7.741423 -0.259939 -14.940730 0
M  V30 41 H 6.132004 4.166453 -14.279394 0
M  V30 42 H 7.685059 4.925406 -14.418876 0
M  V30 43 H 8.044176 3.772469 -11.958071 0
M  V30 44 H 5.940270 4.126246 -10.929604 0
M  V30 45 H 7.276594 6.439500 -12.953993 0
M  V30 46 H 6.509036 6.171702 -11.446927 0
M  V30 47 H 9.216300 7.690079 -12.642709 0
M  V30 48 H 8.289839 8.247893 -11.277774 0
M  V30 49 H 11.168460 7.185081 -11.187268 0
M  V30 50 H 10.658113 8.857663 -11.031766 0
M  V30 51 H 12.195272 7.372236 -8.936129 0
M  V30 52 H 11.700058 9.024841 -9.106806 0
M  V30 53 H 11.286818 10.385019 -7.293222 0
M  V30 54 H 11.282887 10.712465 -4.840163 0
M  V30 55 H 11.319361 8.742336 -3.326285 0
M  V30 56 H 11.296592 6.442730 -4.278292 0
M  V30 57 H 11.331015 6.109231 -6.719395 0
M  V30 58 H 10.691303 5.615785 -9.442253 0
M  V30 59 H 9.655853 6.069818 -8.099271 0
M  V30 60 H 7.686262 6.172702 -9.430413 0
M  V30 61 H 8.486412 4.697830 -9.813225 0
M  V30 62 H 9.332696 5.552606 -11.776449 0
M  V30 END ATOM
M  V30 BEGIN BOND
M  V30 1 1 2 1 CFG=3
M  V30 2 1 3 2
M  V30 3 1 4 3
M  V30 4 2 5 4
M  V30 5 1 6 5
M  V30 6 1 7 6
M  V30 7 2 8 6
M  V30 8 2 9 3
M  V30 9 1 9 8
M  V30 10 1 10 2
M  V30 11 1 11 10
M  V30 12 2 12 11
M  V30 13 1 13 11
M  V30 14 1 14 13
M  V30 15 1 15 14
M  V30 16 1 16 15
M  V30 17 1 17 15
M  V30 18 1 18 17
M  V30 19 1 19 18
M  V30 20 1 20 19
M  V30 21 1 21 20
M  V30 22 1 22 21
M  V30 23 1 23 22
M  V30 24 2 24 23
M  V30 25 1 25 24
M  V30 26 2 26 25
M  V30 27 1 27 26
M  V30 28 1 28 23
M  V30 29 2 28 27
M  V30 30 1 29 21
M  V30 31 1 30 18
M  V30 32 1 30 29
M  V30 33 1 31 2
M  V30 34 1 31 13
M  V30 35 2 32 31
M  V30 36 1 33 1
M  V30 37 1 34 1
M  V30 38 1 35 1
M  V30 39 1 36 4
M  V30 40 1 37 5
M  V30 41 1 38 8
M  V30 42 1 39 9
M  V30 43 1 40 10
M  V30 44 1 41 14
M  V30 45 1 42 14
M  V30 46 1 15 43 CFG=1
M  V30 47 1 44 16
M  V30 48 1 45 17
M  V30 49 1 46 17
M  V30 50 1 47 19
M  V30 51 1 48 19
M  V30 52 1 49 20
M  V30 53 1 50 20
M  V30 54 1 51 22
M  V30 55 1 52 22
M  V30 56 1 53 24
M  V30 57 1 54 25
M  V30 58 1 55 26
M  V30 59 1 56 27
M  V30 60 1 57 28
M  V30 61 1 58 29
M  V30 62 1 59 29
M  V30 63 1 60 30
M  V30 64 1 61 30
M  V30 65 1 62 18
M  V30 END BOND
M  V30 END CTAB
M  END
>  <b_m_subgroup_collapsed>  (1599) 
0

>  <r_i_docking_score>  (1599) 
-6.9375143193649

>  <s_m_subgroup_title>  (1599) 
glide-dock_SP_D22_pv

>  <s_m_subgroupid>  (1599) 
glide-dock_SP_D22_pv

>  <Molecule ChEMBL ID>  (1599) 
CHEMBL4288077

>  <Standard Type>  (1599) 
Ki

>  <Standard Value>  (1599) 
20030.0

>  <label>  (1599) 
0

$$$$
CHEMBL109787
     RDKit          3D

  0  0  0  0  0  0  0  0  0  0999 V3000
M  V30 BEGIN CTAB
M  V30 COUNTS 66 70 0 0 1
M  V30 BEGIN ATOM
M  V30 1 C 5.551881 4.292913 -13.263608 0
M  V30 2 C 5.859113 5.567519 -12.466600 0
M  V30 3 C 7.317145 6.052514 -12.452929 0
M  V30 4 N 8.269678 5.104311 -11.817612 0 CFG=1 CHG=1
M  V30 5 C 8.854527 4.119373 -12.771796 0
M  V30 6 C 9.925364 4.680333 -13.731182 0
M  V30 7 C 10.230952 3.703070 -14.850005 0
M  V30 8 C 10.669380 2.395044 -14.554935 0
M  V30 9 C 10.880660 1.467473 -15.592271 0
M  V30 10 C 10.667424 1.846181 -16.930882 0
M  V30 11 N 10.857433 0.912318 -17.951544 0
M  V30 12 C 12.072083 0.656490 -18.608513 0
M  V30 13 C 12.257823 -0.630977 -19.138733 0
M  V30 14 C 13.454454 -0.988098 -19.776882 0
M  V30 15 C 14.496665 -0.053656 -19.917555 0
M  V30 16 N 15.756320 -0.470906 -20.553627 0 CHG=1
M  V30 17 O 15.686672 -1.291877 -21.464226 0
M  V30 18 O 16.808512 -0.008163 -20.126314 0 CHG=-1
M  V30 19 C 14.313000 1.244645 -19.433159 0
M  V30 20 N 15.126449 2.304052 -19.463734 0
M  V30 21 O 14.417837 3.310822 -18.801533 0
M  V30 22 N 13.169963 2.876520 -18.352673 0
M  V30 23 C 13.095113 1.602816 -18.755819 0
M  V30 24 C 10.248603 3.158230 -17.231260 0
M  V30 25 C 10.034873 4.085981 -16.194614 0
M  V30 26 C 9.268039 5.714789 -10.889303 0 CFG=1
M  V30 27 C 9.866627 7.067903 -11.344389 0
M  V30 28 C 11.019390 7.514137 -10.438819 0
M  V30 29 C 10.716196 7.352507 -8.955532 0
M  V30 30 C 11.575412 7.949453 -8.003230 0
M  V30 31 O 12.728191 8.572150 -8.381327 0
M  V30 32 C 11.274238 7.881241 -6.631752 0
M  V30 33 C 10.124815 7.202289 -6.200036 0
M  V30 34 C 9.285903 6.571904 -7.134094 0
M  V30 35 C 9.593920 6.603312 -8.507823 0
M  V30 36 C 8.718381 5.792839 -9.457682 0
M  V30 37 H 4.476913 4.158294 -13.377234 0
M  V30 38 H 5.980665 4.333157 -14.263179 0
M  V30 39 H 5.927457 3.403321 -12.757494 0
M  V30 40 H 5.492176 5.457529 -11.446805 0
M  V30 41 H 5.286321 6.384724 -12.900664 0
M  V30 42 H 7.287075 6.969817 -11.877939 0
M  V30 43 H 7.652737 6.341532 -13.446888 0
M  V30 44 H 9.289876 3.304420 -12.195554 0
M  V30 45 H 8.064334 3.664598 -13.363581 0
M  V30 46 H 9.606533 5.622784 -14.173779 0
M  V30 47 H 10.852694 4.886322 -13.195390 0
M  V30 48 H 10.829086 2.090300 -13.530766 0
M  V30 49 H 11.204366 0.463789 -15.357189 0
M  V30 50 H 10.286094 0.088627 -17.835188 0
M  V30 51 H 11.481394 -1.376393 -19.038185 0
M  V30 52 H 13.590257 -1.996916 -20.142857 0
M  V30 53 H 10.093487 3.455163 -18.259117 0
M  V30 54 H 9.706314 5.086686 -16.440393 0
M  V30 55 H 10.088681 5.006720 -10.820539 0
M  V30 56 H 9.109031 7.849060 -11.289638 0
M  V30 57 H 10.208120 7.043922 -12.377357 0
M  V30 58 H 11.236696 8.563445 -10.644818 0
M  V30 59 H 11.931013 6.969571 -10.672859 0
M  V30 60 H 12.793603 8.785366 -9.300799 0
M  V30 61 H 11.924733 8.350030 -5.908655 0
M  V30 62 H 9.895940 7.142748 -5.147567 0
M  V30 63 H 8.411344 6.038089 -6.790474 0
M  V30 64 H 8.635789 4.781343 -9.056034 0
M  V30 65 H 7.701504 6.173795 -9.447608 0
M  V30 66 H 7.684593 4.552945 -11.203898 0
M  V30 END ATOM
M  V30 BEGIN BOND
M  V30 1 1 2 1
M  V30 2 1 3 2
M  V30 3 1 4 3
M  V30 4 1 5 4
M  V30 5 1 6 5
M  V30 6 1 7 6
M  V30 7 1 8 7
M  V30 8 2 9 8
M  V30 9 1 10 9
M  V30 10 1 11 10
M  V30 11 1 12 11
M  V30 12 2 13 12
M  V30 13 1 14 13
M  V30 14 2 15 14
M  V30 15 1 16 15
M  V30 16 2 17 16
M  V30 17 1 18 16
M  V30 18 1 19 15
M  V30 19 2 20 19
M  V30 20 1 21 20
M  V30 21 1 22 21
M  V30 22 1 23 12
M  V30 23 1 23 19
M  V30 24 2 23 22
M  V30 25 2 24 10
M  V30 26 2 25 7
M  V30 27 1 25 24
M  V30 28 1 26 4
M  V30 29 1 27 26
M  V30 30 1 28 27
M  V30 31 1 29 28
M  V30 32 2 30 29
M  V30 33 1 31 30
M  V30 34 1 32 30
M  V30 35 2 33 32
M  V30 36 1 34 33
M  V30 37 1 35 29
M  V30 38 2 35 34
M  V30 39 1 36 26
M  V30 40 1 36 35
M  V30 41 1 37 1
M  V30 42 1 38 1
M  V30 43 1 39 1
M  V30 44 1 40 2
M  V30 45 1 41 2
M  V30 46 1 42 3
M  V30 47 1 43 3
M  V30 48 1 44 5
M  V30 49 1 45 5
M  V30 50 1 46 6
M  V30 51 1 47 6
M  V30 52 1 48 8
M  V30 53 1 49 9
M  V30 54 1 50 11
M  V30 55 1 51 13
M  V30 56 1 52 14
M  V30 57 1 53 24
M  V30 58 1 54 25
M  V30 59 1 26 55 CFG=1
M  V30 60 1 56 27
M  V30 61 1 57 27
M  V30 62 1 58 28
M  V30 63 1 59 28
M  V30 64 1 60 31
M  V30 65 1 61 32
M  V30 66 1 62 33
M  V30 67 1 63 34
M  V30 68 1 64 36
M  V30 69 1 65 36
M  V30 70 1 4 66 CFG=1
M  V30 END BOND
M  V30 END CTAB
M  END
>  <b_m_subgroup_collapsed>  (1600) 
0

>  <r_i_docking_score>  (1600) 
-6.9374905224553203

>  <s_m_subgroup_title>  (1600) 
glide-dock_SP_D22_pv

>  <s_m_subgroupid>  (1600) 
glide-dock_SP_D22_pv

>  <Molecule ChEMBL ID>  (1600) 
CHEMBL109787

>  <Standard Type>  (1600) 
Ki

>  <Standard Value>  (1600) 
0.45

>  <label>  (1600) 
1

$$$$
CHEMBL253319
     RDKit          3D

  0  0  0  0  0  0  0  0  0  0999 V3000
M  V30 BEGIN CTAB
M  V30 COUNTS 38 42 0 0 1
M  V30 BEGIN ATOM
M  V30 1 C 8.359649 5.152805 -10.255278 0
M  V30 2 N 7.750952 5.772668 -11.466047 0 CFG=1 CHG=1
M  V30 3 C 8.590562 6.862415 -12.008662 0
M  V30 4 C 9.944502 6.310278 -12.476292 0
M  V30 5 C 9.878390 5.019258 -13.293714 0
M  V30 6 C 10.940367 4.443728 -14.008225 0
M  V30 7 C 10.770673 3.207703 -14.663545 0
M  V30 8 C 9.550498 2.482490 -14.642482 0
M  V30 9 C 9.451527 1.158717 -15.350969 0
M  V30 10 O 10.423028 0.643961 -15.902455 0
M  V30 11 N 8.252265 0.572599 -15.336370 0
M  V30 12 C 7.144297 1.066136 -14.620567 0
M  V30 13 C 5.973754 0.280838 -14.551329 0
M  V30 14 C 4.871136 0.677531 -13.777192 0
M  V30 15 C 4.928246 1.876990 -13.046747 0
M  V30 16 C 6.075213 2.689266 -13.093496 0
M  V30 17 C 7.175068 2.284898 -13.887775 0
M  V30 18 C 8.462853 3.055631 -13.919124 0
M  V30 19 C 8.662586 4.296862 -13.261493 0
M  V30 20 C 7.402264 4.836814 -12.571094 0 CFG=1
M  V30 21 C 6.337434 3.828382 -12.139026 0
M  V30 22 H 9.259127 4.581888 -10.487547 0
M  V30 23 H 7.686176 4.472763 -9.744949 0
M  V30 24 H 8.625995 5.925085 -9.532233 0
M  V30 25 H 8.075734 7.340474 -12.842489 0
M  V30 26 H 8.731846 7.641296 -11.257888 0
M  V30 27 H 10.484771 7.065291 -13.046694 0
M  V30 28 H 10.566966 6.131771 -11.602757 0
M  V30 29 H 11.898089 4.942442 -14.047779 0
M  V30 30 H 11.618173 2.799691 -15.196661 0
M  V30 31 H 8.154344 -0.323401 -15.794695 0
M  V30 32 H 5.924765 -0.656397 -15.087968 0
M  V30 33 H 3.984392 0.061329 -13.741030 0
M  V30 34 H 4.096096 2.172362 -12.426565 0
M  V30 35 H 6.919532 5.429865 -13.348832 0
M  V30 36 H 5.400098 4.350425 -11.942529 0
M  V30 37 H 6.605508 3.362674 -11.196753 0
M  V30 38 H 6.908311 6.245403 -11.141088 0
M  V30 END ATOM
M  V30 BEGIN BOND
M  V30 1 1 2 1
M  V30 2 1 3 2
M  V30 3 1 4 3
M  V30 4 1 5 4
M  V30 5 2 6 5
M  V30 6 1 7 6
M  V30 7 2 8 7
M  V30 8 1 9 8
M  V30 9 2 10 9
M  V30 10 1 11 9
M  V30 11 1 12 11
M  V30 12 2 13 12
M  V30 13 1 14 13
M  V30 14 2 15 14
M  V30 15 1 16 15
M  V30 16 1 17 12
M  V30 17 2 17 16
M  V30 18 1 18 8
M  V30 19 1 18 17
M  V30 20 1 19 5
M  V30 21 2 19 18
M  V30 22 1 20 2
M  V30 23 1 20 19
M  V30 24 1 21 16
M  V30 25 1 21 20
M  V30 26 1 22 1
M  V30 27 1 23 1
M  V30 28 1 24 1
M  V30 29 1 25 3
M  V30 30 1 26 3
M  V30 31 1 27 4
M  V30 32 1 28 4
M  V30 33 1 29 6
M  V30 34 1 30 7
M  V30 35 1 31 11
M  V30 36 1 32 13
M  V30 37 1 33 14
M  V30 38 1 34 15
M  V30 39 1 20 35 CFG=3
M  V30 40 1 36 21
M  V30 41 1 37 21
M  V30 42 1 2 38 CFG=1
M  V30 END BOND
M  V30 END CTAB
M  END
>  <b_m_subgroup_collapsed>  (1601) 
0

>  <r_i_docking_score>  (1601) 
-6.9367149796915903

>  <s_m_subgroup_title>  (1601) 
glide-dock_SP_D22_pv

>  <s_m_subgroupid>  (1601) 
glide-dock_SP_D22_pv

>  <Molecule ChEMBL ID>  (1601) 
CHEMBL253319

>  <Standard Type>  (1601) 
Ki

>  <Standard Value>  (1601) 
54.6

>  <label>  (1601) 
1

$$$$
CHEMBL518931
     RDKit          3D

  0  0  0  0  0  0  0  0  0  0999 V3000
M  V30 BEGIN CTAB
M  V30 COUNTS 60 62 0 0 1
M  V30 BEGIN ATOM
M  V30 1 C 5.498502 -0.970339 -14.337428 0
M  V30 2 O 5.066538 0.069715 -13.468281 0
M  V30 3 C 5.760469 1.260129 -13.495770 0
M  V30 4 C 5.311902 2.290891 -12.646410 0
M  V30 5 C 5.952867 3.543092 -12.618617 0
M  V30 6 C 7.064252 3.777119 -13.446747 0
M  V30 7 C 7.535839 2.759513 -14.300184 0
M  V30 8 C 8.709192 3.026489 -15.222022 0
M  V30 9 C 10.005318 2.307983 -14.819422 0
M  V30 10 C 11.108578 2.649967 -15.806655 0
M  V30 11 C 11.295320 1.833150 -16.941160 0
M  V30 12 C 12.247605 2.183735 -17.917048 0
M  V30 13 C 13.012547 3.352794 -17.763092 0
M  V30 14 C 12.836576 4.169567 -16.628239 0
M  V30 15 C 11.885065 3.821512 -15.639919 0
M  V30 16 O 11.701920 4.563356 -14.495999 0
M  V30 17 C 11.667537 5.977163 -14.638248 0
M  V30 18 C 11.404468 6.594695 -13.258221 0
M  V30 19 C 10.122301 6.069946 -12.575480 0
M  V30 20 N 10.084399 6.403697 -11.153907 0
M  V30 21 C 9.103315 5.547187 -10.482865 0
M  V30 22 C 9.176752 5.782924 -8.963390 0
M  V30 23 N 8.886040 7.199940 -8.649075 0 CHG=1
M  V30 24 C 8.883633 7.483821 -7.197794 0
M  V30 25 C 9.768820 8.108447 -9.419355 0
M  V30 26 C 9.689465 7.795922 -10.927137 0
M  V30 27 C 6.885293 1.506988 -14.326237 0
M  V30 28 H 4.826805 -1.825857 -14.246730 0
M  V30 29 H 5.478235 -0.655079 -15.381198 0
M  V30 30 H 6.501352 -1.312147 -14.079751 0
M  V30 31 H 4.485911 2.115714 -11.983235 0
M  V30 32 H 5.598193 4.318312 -11.954788 0
M  V30 33 H 7.549291 4.741991 -13.424101 0
M  V30 34 H 8.887838 4.103652 -15.263961 0
M  V30 35 H 8.422071 2.727099 -16.230833 0
M  V30 36 H 9.852143 1.227427 -14.804209 0
M  V30 37 H 10.305870 2.587488 -13.808420 0
M  V30 38 H 10.697783 0.943018 -17.077002 0
M  V30 39 H 12.389719 1.555374 -18.785158 0
M  V30 40 H 13.745839 3.622432 -18.509102 0
M  V30 41 H 13.457783 5.045950 -16.519888 0
M  V30 42 H 12.617138 6.359691 -15.013998 0
M  V30 43 H 10.890286 6.257023 -15.348754 0
M  V30 44 H 12.275198 6.378486 -12.639807 0
M  V30 45 H 11.365803 7.679429 -13.353975 0
M  V30 46 H 9.218763 6.428291 -13.068810 0
M  V30 47 H 10.112262 4.983619 -12.671203 0
M  V30 48 H 8.096404 5.740524 -10.857540 0
M  V30 49 H 9.322135 4.499171 -10.686786 0
M  V30 50 H 8.447102 5.143663 -8.461278 0
M  V30 51 H 10.163177 5.506526 -8.585089 0
M  V30 52 H 9.866955 7.316816 -6.755968 0
M  V30 53 H 8.589998 8.518849 -7.011842 0
M  V30 54 H 8.162278 6.846365 -6.686727 0
M  V30 55 H 9.464958 9.140267 -9.246239 0
M  V30 56 H 10.797433 8.015062 -9.068777 0
M  V30 57 H 10.358627 8.469489 -11.458497 0
M  V30 58 H 8.682920 7.980180 -11.308368 0
M  V30 59 H 7.264537 0.750135 -14.999366 0
M  V30 60 H 7.936400 7.372479 -8.974770 0
M  V30 END ATOM
M  V30 BEGIN BOND
M  V30 1 1 2 1
M  V30 2 1 3 2
M  V30 3 2 4 3
M  V30 4 1 5 4
M  V30 5 2 6 5
M  V30 6 1 7 6
M  V30 7 1 8 7
M  V30 8 1 9 8
M  V30 9 1 10 9
M  V30 10 2 11 10
M  V30 11 1 12 11
M  V30 12 2 13 12
M  V30 13 1 14 13
M  V30 14 1 15 10
M  V30 15 2 15 14
M  V30 16 1 16 15
M  V30 17 1 17 16
M  V30 18 1 18 17
M  V30 19 1 19 18
M  V30 20 1 20 19
M  V30 21 1 21 20
M  V30 22 1 22 21
M  V30 23 1 23 22
M  V30 24 1 24 23
M  V30 25 1 25 23
M  V30 26 1 26 20
M  V30 27 1 26 25
M  V30 28 1 27 3
M  V30 29 2 27 7
M  V30 30 1 28 1
M  V30 31 1 29 1
M  V30 32 1 30 1
M  V30 33 1 31 4
M  V30 34 1 32 5
M  V30 35 1 33 6
M  V30 36 1 34 8
M  V30 37 1 35 8
M  V30 38 1 36 9
M  V30 39 1 37 9
M  V30 40 1 38 11
M  V30 41 1 39 12
M  V30 42 1 40 13
M  V30 43 1 41 14
M  V30 44 1 42 17
M  V30 45 1 43 17
M  V30 46 1 44 18
M  V30 47 1 45 18
M  V30 48 1 46 19
M  V30 49 1 47 19
M  V30 50 1 48 21
M  V30 51 1 49 21
M  V30 52 1 50 22
M  V30 53 1 51 22
M  V30 54 1 52 24
M  V30 55 1 53 24
M  V30 56 1 54 24
M  V30 57 1 55 25
M  V30 58 1 56 25
M  V30 59 1 57 26
M  V30 60 1 58 26
M  V30 61 1 59 27
M  V30 62 1 60 23
M  V30 END BOND
M  V30 END CTAB
M  END
>  <b_m_subgroup_collapsed>  (1602) 
0

>  <r_i_docking_score>  (1602) 
-6.9363264575127399

>  <s_m_subgroup_title>  (1602) 
glide-dock_SP_D22_pv

>  <s_m_subgroupid>  (1602) 
glide-dock_SP_D22_pv

>  <Molecule ChEMBL ID>  (1602) 
CHEMBL518931

>  <Standard Type>  (1602) 
Ki

>  <Standard Value>  (1602) 
565000.0

>  <label>  (1602) 
0

$$$$
CHEMBL485028
     RDKit          3D

  0  0  0  0  0  0  0  0  0  0999 V3000
M  V30 BEGIN CTAB
M  V30 COUNTS 57 60 0 0 1
M  V30 BEGIN ATOM
M  V30 1 C 11.433640 9.500587 -4.134247 0
M  V30 2 C 11.208336 10.059118 -5.548066 0
M  V30 3 C 10.220025 9.232002 -6.387385 0
M  V30 4 N 10.758921 7.881802 -6.692470 0 CFG=1 CHG=1
M  V30 5 C 9.934580 6.772986 -6.166822 0
M  V30 6 C 8.688437 6.572223 -7.047481 0
M  V30 7 O 9.120014 6.241524 -8.364153 0
M  V30 8 C 9.839098 7.308181 -8.979507 0 CFG=2
M  V30 9 C 10.245256 6.987684 -10.420326 0
M  V30 10 C 9.400641 6.215807 -11.252090 0
M  V30 11 C 9.794196 5.888894 -12.577614 0
M  V30 12 C 8.993096 4.972187 -13.460785 0
M  V30 13 O 9.446478 4.609994 -14.547334 0
M  V30 14 N 7.765007 4.660821 -13.024349 0
M  V30 15 C 6.973084 3.536493 -13.369161 0
M  V30 16 C 5.765903 3.397522 -12.665375 0
M  V30 17 C 5.002871 2.229701 -12.798418 0
M  V30 18 C 5.411232 1.170840 -13.632354 0
M  V30 19 O 4.592283 0.062913 -13.697398 0
M  V30 20 C 4.930114 -0.958487 -14.629115 0
M  V30 21 C 6.611943 1.323275 -14.367918 0
M  V30 22 C 7.380836 2.498188 -14.246762 0
M  V30 23 C 11.022084 6.385491 -13.063195 0
M  V30 24 C 11.845826 7.183687 -12.264355 0
M  V30 25 C 11.478436 7.459833 -10.938745 0
M  V30 26 C 12.492926 8.182862 -10.080927 0
M  V30 27 C 11.954686 8.702069 -8.758570 0
M  V30 28 C 11.088299 7.618131 -8.114153 0 CFG=1
M  V30 29 H 12.059281 10.171341 -3.545262 0
M  V30 30 H 11.924777 8.528268 -4.159832 0
M  V30 31 H 10.490270 9.381074 -3.600106 0
M  V30 32 H 10.812690 11.069899 -5.450455 0
M  V30 33 H 12.164671 10.156629 -6.067339 0
M  V30 34 H 9.285743 9.142991 -5.848170 0
M  V30 35 H 9.960464 9.772125 -7.296152 0
M  V30 36 H 10.536610 5.865101 -6.179966 0
M  V30 37 H 9.684435 6.952491 -5.123368 0
M  V30 38 H 8.061193 5.772793 -6.657215 0
M  V30 39 H 8.086170 7.479260 -7.056598 0
M  V30 40 H 9.188693 8.185023 -9.027225 0
M  V30 41 H 8.468827 5.857199 -10.841068 0
M  V30 42 H 7.443725 5.180301 -12.219790 0
M  V30 43 H 5.436112 4.172312 -11.986053 0
M  V30 44 H 4.085814 2.172296 -12.246749 0
M  V30 45 H 4.153436 -1.721469 -14.629114 0
M  V30 46 H 5.871247 -1.444188 -14.364267 0
M  V30 47 H 4.997633 -0.569087 -15.645611 0
M  V30 48 H 6.975552 0.544927 -15.021262 0
M  V30 49 H 8.307541 2.542771 -14.794827 0
M  V30 50 H 11.352890 6.151589 -14.066236 0
M  V30 51 H 12.792891 7.531913 -12.654114 0
M  V30 52 H 13.286300 7.478364 -9.846842 0
M  V30 53 H 12.928680 8.972239 -10.679226 0
M  V30 54 H 12.791065 8.977350 -8.115255 0
M  V30 55 H 11.372852 9.602962 -8.952303 0
M  V30 56 H 11.686116 6.707048 -8.088845 0
M  V30 57 H 11.634556 7.839544 -6.191584 0
M  V30 END ATOM
M  V30 BEGIN BOND
M  V30 1 1 2 1
M  V30 2 1 3 2
M  V30 3 1 4 3
M  V30 4 1 5 4
M  V30 5 1 6 5
M  V30 6 1 7 6
M  V30 7 1 8 7
M  V30 8 1 9 8
M  V30 9 1 10 9
M  V30 10 2 11 10
M  V30 11 1 12 11
M  V30 12 2 13 12
M  V30 13 1 14 12
M  V30 14 1 15 14
M  V30 15 1 16 15
M  V30 16 2 17 16
M  V30 17 1 18 17
M  V30 18 1 19 18
M  V30 19 1 20 19
M  V30 20 2 21 18
M  V30 21 2 22 15
M  V30 22 1 22 21
M  V30 23 1 23 11
M  V30 24 2 24 23
M  V30 25 2 25 9
M  V30 26 1 25 24
M  V30 27 1 26 25
M  V30 28 1 27 26
M  V30 29 1 28 4
M  V30 30 1 28 8
M  V30 31 1 28 27
M  V30 32 1 29 1
M  V30 33 1 30 1
M  V30 34 1 31 1
M  V30 35 1 32 2
M  V30 36 1 33 2
M  V30 37 1 34 3
M  V30 38 1 35 3
M  V30 39 1 36 5
M  V30 40 1 37 5
M  V30 41 1 38 6
M  V30 42 1 39 6
M  V30 43 1 8 40 CFG=3
M  V30 44 1 41 10
M  V30 45 1 42 14
M  V30 46 1 43 16
M  V30 47 1 44 17
M  V30 48 1 45 20
M  V30 49 1 46 20
M  V30 50 1 47 20
M  V30 51 1 48 21
M  V30 52 1 49 22
M  V30 53 1 50 23
M  V30 54 1 51 24
M  V30 55 1 52 26
M  V30 56 1 53 26
M  V30 57 1 54 27
M  V30 58 1 55 27
M  V30 59 1 28 56 CFG=1
M  V30 60 1 4 57 CFG=1
M  V30 END BOND
M  V30 END CTAB
M  END
>  <b_m_subgroup_collapsed>  (1603) 
0

>  <r_i_docking_score>  (1603) 
-6.9363042399611397

>  <s_m_subgroup_title>  (1603) 
glide-dock_SP_D22_pv

>  <s_m_subgroupid>  (1603) 
glide-dock_SP_D22_pv

>  <Molecule ChEMBL ID>  (1603) 
CHEMBL485028

>  <Standard Type>  (1603) 
Ki

>  <Standard Value>  (1603) 
10000.0

>  <label>  (1603) 
0

$$$$
CHEMBL381912
     RDKit          3D

  0  0  0  0  0  0  0  0  0  0999 V3000
M  V30 BEGIN CTAB
M  V30 COUNTS 46 50 0 0 1
M  V30 BEGIN ATOM
M  V30 1 C 9.628220 2.784873 -14.450739 0
M  V30 2 C 8.441102 3.238212 -13.846869 0
M  V30 3 C 8.455471 4.379352 -13.019721 0
M  V30 4 C 9.653429 5.104855 -12.824301 0
M  V30 5 C 9.665457 6.447426 -12.094030 0 CFG=1
M  V30 6 C 8.391300 7.275312 -12.278910 0
M  V30 7 C 8.638934 8.726092 -11.846650 0
M  V30 8 C 9.242286 8.767794 -10.432314 0
M  V30 9 C 10.436808 7.834572 -10.235337 0 CFG=1
M  V30 10 C 10.826960 7.880027 -8.803027 0
M  V30 11 N 11.445715 8.955239 -8.197180 0
M  V30 12 C 11.566931 8.734195 -6.841522 0
M  V30 13 C 12.093540 9.525009 -5.804158 0
M  V30 14 C 12.152294 9.005800 -4.498253 0
M  V30 15 C 11.684922 7.702783 -4.246765 0
M  V30 16 C 11.112631 6.937709 -5.286022 0
M  V30 17 C 11.034341 7.427077 -6.611843 0
M  V30 18 C 10.534956 6.930449 -7.873297 0
M  V30 19 C 9.855328 5.651949 -8.271813 0
M  V30 20 C 9.197253 5.741252 -9.680202 0
M  V30 21 N 10.086134 6.442873 -10.660748 0 CFG=1 CHG=1
M  V30 22 C 10.838386 4.646899 -13.446923 0
M  V30 23 C 10.829332 3.487628 -14.246305 0
M  V30 24 H 9.616255 1.900986 -15.071895 0
M  V30 25 H 7.517836 2.699951 -14.004241 0
M  V30 26 H 7.529160 4.707456 -12.571428 0
M  V30 27 H 10.444930 6.998866 -12.624087 0
M  V30 28 H 8.085163 7.264518 -13.323079 0
M  V30 29 H 7.564813 6.823009 -11.743012 0
M  V30 30 H 9.303541 9.214058 -12.558073 0
M  V30 31 H 7.704177 9.288618 -11.867472 0
M  V30 32 H 9.508280 9.772262 -10.143299 0
M  V30 33 H 8.486102 8.495463 -9.704477 0
M  V30 34 H 11.273577 8.185815 -10.841468 0
M  V30 35 H 11.757840 9.772790 -8.700747 0
M  V30 36 H 12.481824 10.510897 -6.013243 0
M  V30 37 H 12.572269 9.596435 -3.696107 0
M  V30 38 H 11.738053 7.294950 -3.247437 0
M  V30 39 H 10.734912 5.951776 -5.062863 0
M  V30 40 H 10.593448 4.853359 -8.278930 0
M  V30 41 H 9.104283 5.372852 -7.532530 0
M  V30 42 H 8.962493 4.737547 -10.035967 0
M  V30 43 H 8.242468 6.260575 -9.598467 0
M  V30 44 H 11.762800 5.194830 -13.335529 0
M  V30 45 H 11.740094 3.146902 -14.716991 0
M  V30 46 H 10.949337 5.925075 -10.628071 0
M  V30 END ATOM
M  V30 BEGIN BOND
M  V30 1 2 2 1
M  V30 2 1 3 2
M  V30 3 2 4 3
M  V30 4 1 5 4
M  V30 5 1 6 5
M  V30 6 1 7 6
M  V30 7 1 8 7
M  V30 8 1 9 8
M  V30 9 1 10 9
M  V30 10 1 11 10
M  V30 11 1 12 11
M  V30 12 2 13 12
M  V30 13 1 14 13
M  V30 14 2 15 14
M  V30 15 1 16 15
M  V30 16 1 17 12
M  V30 17 2 17 16
M  V30 18 2 18 10
M  V30 19 1 18 17
M  V30 20 1 19 18
M  V30 21 1 20 19
M  V30 22 1 21 5
M  V30 23 1 21 9
M  V30 24 1 21 20
M  V30 25 1 22 4
M  V30 26 1 23 1
M  V30 27 2 23 22
M  V30 28 1 24 1
M  V30 29 1 25 2
M  V30 30 1 26 3
M  V30 31 1 5 27 CFG=3
M  V30 32 1 28 6
M  V30 33 1 29 6
M  V30 34 1 30 7
M  V30 35 1 31 7
M  V30 36 1 32 8
M  V30 37 1 33 8
M  V30 38 1 9 34 CFG=3
M  V30 39 1 35 11
M  V30 40 1 36 13
M  V30 41 1 37 14
M  V30 42 1 38 15
M  V30 43 1 39 16
M  V30 44 1 40 19
M  V30 45 1 41 19
M  V30 46 1 42 20
M  V30 47 1 43 20
M  V30 48 1 44 22
M  V30 49 1 45 23
M  V30 50 1 21 46 CFG=3
M  V30 END BOND
M  V30 END CTAB
M  END
>  <b_m_subgroup_collapsed>  (1604) 
0

>  <r_i_docking_score>  (1604) 
-6.9361092549070804

>  <s_m_subgroup_title>  (1604) 
glide-dock_SP_D22_pv

>  <s_m_subgroupid>  (1604) 
glide-dock_SP_D22_pv

>  <Molecule ChEMBL ID>  (1604) 
CHEMBL381912

>  <Standard Type>  (1604) 
Ki

>  <Standard Value>  (1604) 
10000.0

>  <label>  (1604) 
0

$$$$
CHEMBL3898054
     RDKit          3D

  0  0  0  0  0  0  0  0  0  0999 V3000
M  V30 BEGIN CTAB
M  V30 COUNTS 59 62 0 0 1
M  V30 BEGIN ATOM
M  V30 1 O 6.886014 -0.587557 -13.046865 0
M  V30 2 C 6.486012 -0.394860 -14.192402 0
M  V30 3 N 5.407724 -1.027672 -14.681347 0
M  V30 4 C 4.839093 -0.822831 -16.011301 0
M  V30 5 C 5.913054 -0.462478 -17.054745 0
M  V30 6 C 6.917602 0.536049 -16.505360 0
M  V30 7 C 7.599570 1.411455 -17.371754 0
M  V30 8 C 8.524767 2.337325 -16.852852 0
M  V30 9 C 8.789904 2.400685 -15.469344 0
M  V30 10 O 9.694814 3.354864 -15.049928 0
M  V30 11 C 9.985412 3.518986 -13.662046 0
M  V30 12 C 8.916007 4.356129 -12.930381 0
M  V30 13 C 9.416261 4.910564 -11.581136 0
M  V30 14 C 8.392779 5.844802 -10.895405 0
M  V30 15 N 8.886024 6.579240 -9.693465 0 CFG=2 CHG=1
M  V30 16 C 10.176719 7.291656 -9.888210 0
M  V30 17 C 10.469733 8.242089 -8.717628 0
M  V30 18 C 10.499149 7.487188 -7.366168 0 CFG=1
M  V30 19 C 10.843704 8.366159 -6.145571 0
M  V30 20 C 10.612527 9.748655 -6.167502 0
M  V30 21 C 10.886023 10.555469 -5.046852 0
M  V30 22 C 11.405910 9.990896 -3.875571 0
M  V30 23 C 11.686028 8.626933 -3.834195 0
M  V30 24 Cl 12.350869 7.955076 -2.387910 0
M  V30 25 C 11.388191 7.829576 -4.956536 0
M  V30 26 Cl 11.686022 6.172325 -4.834256 0
M  V30 27 C 9.150829 6.751700 -7.210150 0
M  V30 28 C 8.854038 5.822341 -8.414391 0
M  V30 29 C 8.126360 1.491749 -14.612145 0
M  V30 30 C 7.179927 0.571422 -15.116389 0
M  V30 31 H 4.976076 -1.728116 -14.098369 0
M  V30 32 H 4.282000 -1.708579 -16.320061 0
M  V30 33 H 4.116733 -0.009910 -15.932117 0
M  V30 34 H 5.443274 -0.072967 -17.958647 0
M  V30 35 H 6.460136 -1.361364 -17.342392 0
M  V30 36 H 7.415789 1.372493 -18.435204 0
M  V30 37 H 9.035848 3.012891 -17.523079 0
M  V30 38 H 10.934571 4.054204 -13.624516 0
M  V30 39 H 10.175168 2.572326 -13.159274 0
M  V30 40 H 8.007217 3.772331 -12.785403 0
M  V30 41 H 8.638724 5.194512 -13.570796 0
M  V30 42 H 10.331182 5.459927 -11.795257 0
M  V30 43 H 9.686043 4.091862 -10.913619 0
M  V30 44 H 7.484229 5.295740 -10.646864 0
M  V30 45 H 8.084820 6.604075 -11.615286 0
M  V30 46 H 10.146003 7.857988 -10.820227 0
M  V30 47 H 10.991756 6.572513 -9.972008 0
M  V30 48 H 9.694236 9.008251 -8.722019 0
M  V30 49 H 11.420973 8.749282 -8.886435 0
M  V30 50 H 11.287948 6.738068 -7.447030 0
M  V30 51 H 10.177612 10.172349 -7.046865 0
M  V30 52 H 10.686477 11.610347 -5.046865 0
M  V30 53 H 11.613613 10.605421 -3.012816 0
M  V30 54 H 9.145022 6.172329 -6.288026 0
M  V30 55 H 8.346014 7.481247 -7.103117 0
M  V30 56 H 7.870445 5.371800 -8.280673 0
M  V30 57 H 9.576540 5.005733 -8.452405 0
M  V30 58 H 8.338307 1.485420 -13.556842 0
M  V30 59 H 8.171881 7.295981 -9.582074 0
M  V30 END ATOM
M  V30 BEGIN BOND
M  V30 1 2 2 1
M  V30 2 1 3 2
M  V30 3 1 4 3
M  V30 4 1 5 4
M  V30 5 1 6 5
M  V30 6 1 7 6
M  V30 7 2 8 7
M  V30 8 1 9 8
M  V30 9 1 10 9
M  V30 10 1 11 10
M  V30 11 1 12 11
M  V30 12 1 13 12
M  V30 13 1 14 13
M  V30 14 1 15 14
M  V30 15 1 16 15
M  V30 16 1 17 16
M  V30 17 1 18 17
M  V30 18 1 19 18
M  V30 19 2 20 19
M  V30 20 1 21 20
M  V30 21 2 22 21
M  V30 22 1 23 22
M  V30 23 1 24 23
M  V30 24 1 25 19
M  V30 25 2 25 23
M  V30 26 1 26 25
M  V30 27 1 27 18
M  V30 28 1 28 15
M  V30 29 1 28 27
M  V30 30 2 29 9
M  V30 31 1 30 2
M  V30 32 2 30 6
M  V30 33 1 30 29
M  V30 34 1 31 3
M  V30 35 1 32 4
M  V30 36 1 33 4
M  V30 37 1 34 5
M  V30 38 1 35 5
M  V30 39 1 36 7
M  V30 40 1 37 8
M  V30 41 1 38 11
M  V30 42 1 39 11
M  V30 43 1 40 12
M  V30 44 1 41 12
M  V30 45 1 42 13
M  V30 46 1 43 13
M  V30 47 1 44 14
M  V30 48 1 45 14
M  V30 49 1 46 16
M  V30 50 1 47 16
M  V30 51 1 48 17
M  V30 52 1 49 17
M  V30 53 1 18 50 CFG=3
M  V30 54 1 51 20
M  V30 55 1 52 21
M  V30 56 1 53 22
M  V30 57 1 54 27
M  V30 58 1 55 27
M  V30 59 1 56 28
M  V30 60 1 57 28
M  V30 61 1 58 29
M  V30 62 1 15 59 CFG=1
M  V30 END BOND
M  V30 END CTAB
M  END
>  <b_m_subgroup_collapsed>  (1605) 
0

>  <r_i_docking_score>  (1605) 
-6.9355518211310603

>  <s_m_subgroup_title>  (1605) 
glide-dock_SP_D22_pv

>  <s_m_subgroupid>  (1605) 
glide-dock_SP_D22_pv

>  <Molecule ChEMBL ID>  (1605) 
CHEMBL3898054

>  <Standard Type>  (1605) 
Ki

>  <Standard Value>  (1605) 
20.0

>  <label>  (1605) 
1

$$$$
CHEMBL2159472
     RDKit          3D

  0  0  0  0  0  0  0  0  0  0999 V3000
M  V30 BEGIN CTAB
M  V30 COUNTS 54 57 0 0 1
M  V30 BEGIN ATOM
M  V30 1 O 10.888749 10.572150 -6.178180 0
M  V30 2 S 11.333656 9.210434 -6.502750 0
M  V30 3 O 12.484939 8.972422 -7.388881 0
M  V30 4 N 9.993561 8.348816 -7.158714 0
M  V30 5 C 10.215614 7.255810 -8.111461 0 CFG=1
M  V30 6 C 9.325130 6.052513 -7.803339 0
M  V30 7 C 8.676308 5.681699 -9.133204 0
M  V30 8 N 9.452192 6.374789 -10.178107 0 CFG=1 CHG=1
M  V30 9 C 8.769154 6.492877 -11.489363 0
M  V30 10 C 9.047844 5.276601 -12.379251 0
M  V30 11 O 10.347503 5.452905 -12.916744 0
M  V30 12 C 10.742395 4.612769 -13.932406 0
M  V30 13 C 10.219745 3.311007 -14.110916 0
M  V30 14 C 10.689260 2.494511 -15.155679 0
M  V30 15 C 11.686043 2.966824 -16.026760 0
M  V30 16 C 12.222834 4.257795 -15.857021 0
M  V30 17 C 11.744115 5.086460 -14.811538 0
M  V30 18 C 12.294013 6.493976 -14.602353 0
M  V30 19 C 13.133971 7.022993 -15.772847 0
M  V30 20 C 14.085021 5.949242 -16.303160 0
M  V30 21 C 13.302553 4.732902 -16.819176 0
M  V30 22 C 9.877764 7.645872 -9.558685 0
M  V30 23 C 11.685624 8.417869 -4.944821 0
M  V30 24 C 11.640018 7.082073 -4.647466 0
M  V30 25 C 11.952857 6.810185 -3.280045 0
M  V30 26 C 12.208612 7.945822 -2.556084 0
M  V30 27 S 12.085761 9.372128 -3.542247 0
M  V30 28 H 9.125098 8.881174 -7.253030 0
M  V30 29 H 11.257411 6.928098 -8.062547 0
M  V30 30 H 9.941657 5.235689 -7.447198 0
M  V30 31 H 8.570415 6.254470 -7.040751 0
M  V30 32 H 8.592469 4.607580 -9.299583 0
M  V30 33 H 7.681553 6.105959 -9.130903 0
M  V30 34 H 7.693633 6.572264 -11.353233 0
M  V30 35 H 9.087105 7.402417 -12.004544 0
M  V30 36 H 8.962466 4.348877 -11.809615 0
M  V30 37 H 8.317470 5.246249 -13.190660 0
M  V30 38 H 9.469627 2.904743 -13.448437 0
M  V30 39 H 10.289594 1.496686 -15.283661 0
M  V30 40 H 12.043923 2.329114 -16.823303 0
M  V30 41 H 11.474072 7.184665 -14.414147 0
M  V30 42 H 12.886149 6.478640 -13.690115 0
M  V30 43 H 12.469401 7.334410 -16.581816 0
M  V30 44 H 13.683531 7.913026 -15.467825 0
M  V30 45 H 14.716736 6.353323 -17.094213 0
M  V30 46 H 14.753102 5.642518 -15.498608 0
M  V30 47 H 13.992276 3.915926 -17.034735 0
M  V30 48 H 12.817653 4.988411 -17.762779 0
M  V30 49 H 9.042398 8.352665 -9.585402 0
M  V30 50 H 10.722879 8.096333 -10.084416 0
M  V30 51 H 11.403915 6.301084 -5.355267 0
M  V30 52 H 11.967135 5.806730 -2.880294 0
M  V30 53 H 12.449457 8.033330 -1.505408 0
M  V30 54 H 10.296213 5.843327 -10.327436 0
M  V30 END ATOM
M  V30 BEGIN BOND
M  V30 1 2 2 1
M  V30 2 2 3 2
M  V30 3 1 4 2
M  V30 4 1 5 4
M  V30 5 1 6 5
M  V30 6 1 7 6
M  V30 7 1 8 7
M  V30 8 1 9 8
M  V30 9 1 10 9
M  V30 10 1 11 10
M  V30 11 1 12 11
M  V30 12 2 13 12
M  V30 13 1 14 13
M  V30 14 2 15 14
M  V30 15 1 16 15
M  V30 16 1 17 12
M  V30 17 2 17 16
M  V30 18 1 18 17
M  V30 19 1 19 18
M  V30 20 1 20 19
M  V30 21 1 21 16
M  V30 22 1 21 20
M  V30 23 1 22 5
M  V30 24 1 22 8
M  V30 25 1 23 2
M  V30 26 2 24 23
M  V30 27 1 25 24
M  V30 28 2 26 25
M  V30 29 1 27 23
M  V30 30 1 27 26
M  V30 31 1 28 4
M  V30 32 1 5 29 CFG=3
M  V30 33 1 30 6
M  V30 34 1 31 6
M  V30 35 1 32 7
M  V30 36 1 33 7
M  V30 37 1 34 9
M  V30 38 1 35 9
M  V30 39 1 36 10
M  V30 40 1 37 10
M  V30 41 1 38 13
M  V30 42 1 39 14
M  V30 43 1 40 15
M  V30 44 1 41 18
M  V30 45 1 42 18
M  V30 46 1 43 19
M  V30 47 1 44 19
M  V30 48 1 45 20
M  V30 49 1 46 20
M  V30 50 1 47 21
M  V30 51 1 48 21
M  V30 52 1 49 22
M  V30 53 1 50 22
M  V30 54 1 51 24
M  V30 55 1 52 25
M  V30 56 1 53 26
M  V30 57 1 8 54 CFG=3
M  V30 END BOND
M  V30 END CTAB
M  END
>  <b_m_subgroup_collapsed>  (1606) 
0

>  <r_i_docking_score>  (1606) 
-6.9351743670706396

>  <s_m_subgroup_title>  (1606) 
glide-dock_SP_D22_pv

>  <s_m_subgroupid>  (1606) 
glide-dock_SP_D22_pv

>  <Molecule ChEMBL ID>  (1606) 
CHEMBL2159472

>  <Standard Type>  (1606) 
Ki

>  <Standard Value>  (1606) 
72.0

>  <label>  (1606) 
1

$$$$
CHEMBL2207492
     RDKit          3D

  0  0  0  0  0  0  0  0  0  0999 V3000
M  V30 BEGIN CTAB
M  V30 COUNTS 40 42 0 0 1
M  V30 BEGIN ATOM
M  V30 1 C 8.516397 7.367506 -12.211936 0
M  V30 2 C 8.995088 8.700196 -11.623184 0
M  V30 3 C 10.196162 8.525225 -10.669588 0
M  V30 4 N 9.890287 7.683962 -9.495319 0 CFG=2 CHG=1
M  V30 5 C 9.040825 8.401837 -8.507719 0
M  V30 6 C 8.797320 7.578932 -7.231946 0
M  V30 7 C 10.088888 7.014997 -6.619323 0 CFG=2
M  V30 8 N 10.887222 8.006152 -5.896668 0
M  V30 9 C 11.257887 9.263732 -6.227901 0
M  V30 10 N 11.878282 9.985521 -5.308062 0
M  V30 11 C 11.980811 9.080956 -4.273097 0
M  V30 12 C 12.485623 9.224927 -2.965617 0
M  V30 13 C 12.486390 8.139045 -2.071919 0
M  V30 14 C 12.049299 6.871276 -2.496764 0
M  V30 15 C 11.529508 6.711740 -3.789211 0
M  V30 16 C 11.455429 7.814402 -4.647326 0
M  V30 17 C 10.887323 6.267431 -7.686412 0
M  V30 18 C 11.151545 7.155188 -8.908733 0
M  V30 19 H 7.747637 7.525929 -12.968081 0
M  V30 20 H 9.342882 6.817964 -12.661900 0
M  V30 21 H 8.085671 6.725254 -11.445118 0
M  V30 22 H 8.167978 9.210052 -11.132866 0
M  V30 23 H 9.285636 9.353277 -12.445884 0
M  V30 24 H 10.570568 9.465764 -10.264456 0
M  V30 25 H 11.016641 8.089616 -11.246141 0
M  V30 26 H 8.093635 8.665215 -8.956000 0
M  V30 27 H 9.457211 9.372214 -8.275732 0
M  V30 28 H 8.140044 6.743608 -7.480327 0
M  V30 29 H 8.246818 8.175193 -6.502813 0
M  V30 30 H 9.767132 6.279082 -5.880983 0
M  V30 31 H 11.076858 9.720442 -7.183239 0
M  V30 32 H 12.878613 10.171988 -2.647432 0
M  V30 33 H 12.872570 8.271055 -1.072976 0
M  V30 34 H 12.080151 6.020041 -1.834669 0
M  V30 35 H 11.128792 5.769961 -4.108496 0
M  V30 36 H 11.820251 5.912874 -7.247843 0
M  V30 37 H 10.335616 5.378411 -7.997319 0
M  V30 38 H 11.681144 6.576068 -9.665463 0
M  V30 39 H 11.814806 7.977692 -8.644348 0
M  V30 40 H 9.351559 6.894071 -9.824800 0
M  V30 END ATOM
M  V30 BEGIN BOND
M  V30 1 1 2 1
M  V30 2 1 3 2
M  V30 3 1 4 3
M  V30 4 1 5 4
M  V30 5 1 6 5
M  V30 6 1 7 6
M  V30 7 1 8 7
M  V30 8 1 9 8
M  V30 9 2 10 9
M  V30 10 1 11 10
M  V30 11 2 12 11
M  V30 12 1 13 12
M  V30 13 2 14 13
M  V30 14 1 15 14
M  V30 15 1 16 8
M  V30 16 1 16 11
M  V30 17 2 16 15
M  V30 18 1 17 7
M  V30 19 1 18 4
M  V30 20 1 18 17
M  V30 21 1 19 1
M  V30 22 1 20 1
M  V30 23 1 21 1
M  V30 24 1 22 2
M  V30 25 1 23 2
M  V30 26 1 24 3
M  V30 27 1 25 3
M  V30 28 1 26 5
M  V30 29 1 27 5
M  V30 30 1 28 6
M  V30 31 1 29 6
M  V30 32 1 7 30 CFG=1
M  V30 33 1 31 9
M  V30 34 1 32 12
M  V30 35 1 33 13
M  V30 36 1 34 14
M  V30 37 1 35 15
M  V30 38 1 36 17
M  V30 39 1 37 17
M  V30 40 1 38 18
M  V30 41 1 39 18
M  V30 42 1 4 40 CFG=3
M  V30 END BOND
M  V30 END CTAB
M  END
>  <b_m_subgroup_collapsed>  (1607) 
0

>  <r_i_docking_score>  (1607) 
-6.9344713109359297

>  <s_m_subgroup_title>  (1607) 
glide-dock_SP_D22_pv

>  <s_m_subgroupid>  (1607) 
glide-dock_SP_D22_pv

>  <Molecule ChEMBL ID>  (1607) 
CHEMBL2207492

>  <Standard Type>  (1607) 
Ki

>  <Standard Value>  (1607) 
10820.0

>  <label>  (1607) 
0

$$$$
CHEMBL308185
     RDKit          3D

  0  0  0  0  0  0  0  0  0  0999 V3000
M  V30 BEGIN CTAB
M  V30 COUNTS 50 52 0 0 1
M  V30 BEGIN ATOM
M  V30 1 C 8.130676 2.214997 -14.246807 0
M  V30 2 C 7.216765 1.436168 -14.460195 0
M  V30 3 C 6.086305 0.561528 -14.718489 0
M  V30 4 C 6.069289 -0.257805 -15.865918 0
M  V30 5 C 4.943968 -1.056756 -16.144789 0
M  V30 6 C 3.829934 -1.033485 -15.282890 0
M  V30 7 C 3.844496 -0.222768 -14.133575 0
M  V30 8 C 4.974657 0.568016 -13.845860 0
M  V30 9 C 9.192192 3.187878 -13.953489 0
M  V30 10 O 8.759578 4.047022 -12.910045 0
M  V30 11 C 9.687126 5.085532 -12.640596 0
M  V30 12 C 9.185965 5.929611 -11.453877 0 CFG=1
M  V30 13 C 9.222465 5.146760 -10.130058 0
M  V30 14 C 8.747801 6.003923 -8.947914 0
M  V30 15 N 9.480771 7.297670 -8.850968 0 CFG=2 CHG=1
M  V30 16 C 9.040939 8.119838 -7.694352 0
M  V30 17 C 10.122837 8.152976 -6.630354 0
M  V30 18 C 10.921758 9.299135 -6.428399 0
M  V30 19 C 11.887803 9.318673 -5.402994 0
M  V30 20 C 12.056727 8.197798 -4.567719 0
M  V30 21 C 11.285840 7.041896 -4.787152 0
M  V30 22 C 10.321536 7.027988 -5.811994 0
M  V30 23 C 9.486507 8.064384 -10.124557 0
M  V30 24 C 10.011174 7.216568 -11.294725 0
M  V30 25 H 6.911141 -0.272190 -16.542856 0
M  V30 26 H 4.931052 -1.690656 -17.020393 0
M  V30 27 H 2.966681 -1.645608 -15.505452 0
M  V30 28 H 2.982552 -0.201255 -13.480754 0
M  V30 29 H 4.975090 1.208071 -12.975197 0
M  V30 30 H 10.096450 2.646336 -13.664105 0
M  V30 31 H 9.401938 3.750082 -14.864758 0
M  V30 32 H 10.670450 4.664084 -12.426832 0
M  V30 33 H 9.786278 5.712005 -13.529776 0
M  V30 34 H 8.151624 6.215034 -11.656672 0
M  V30 35 H 8.588040 4.262825 -10.205382 0
M  V30 36 H 10.224390 4.783982 -9.922527 0
M  V30 37 H 8.870478 5.440401 -8.022408 0
M  V30 38 H 7.684805 6.173594 -9.052093 0
M  V30 39 H 8.801250 9.139723 -7.998408 0
M  V30 40 H 8.123218 7.725562 -7.250552 0
M  V30 41 H 10.794021 10.172232 -7.048119 0
M  V30 42 H 12.509099 10.186454 -5.256642 0
M  V30 43 H 12.796926 8.212958 -3.781003 0
M  V30 44 H 11.415254 6.172230 -4.158558 0
M  V30 45 H 9.695020 6.162220 -5.936794 0
M  V30 46 H 10.118690 8.945723 -10.011862 0
M  V30 47 H 8.486176 8.431336 -10.350914 0
M  V30 48 H 11.061117 6.972645 -11.139137 0
M  V30 49 H 9.964198 7.801385 -12.212596 0
M  V30 50 H 10.443047 7.061298 -8.667957 0
M  V30 END ATOM
M  V30 BEGIN BOND
M  V30 1 3 2 1
M  V30 2 1 3 2
M  V30 3 2 4 3
M  V30 4 1 5 4
M  V30 5 2 6 5
M  V30 6 1 7 6
M  V30 7 1 8 3
M  V30 8 2 8 7
M  V30 9 1 9 1
M  V30 10 1 10 9
M  V30 11 1 11 10
M  V30 12 1 12 11
M  V30 13 1 13 12
M  V30 14 1 14 13
M  V30 15 1 15 14
M  V30 16 1 16 15
M  V30 17 1 17 16
M  V30 18 2 18 17
M  V30 19 1 19 18
M  V30 20 2 20 19
M  V30 21 1 21 20
M  V30 22 1 22 17
M  V30 23 2 22 21
M  V30 24 1 23 15
M  V30 25 1 24 12
M  V30 26 1 24 23
M  V30 27 1 25 4
M  V30 28 1 26 5
M  V30 29 1 27 6
M  V30 30 1 28 7
M  V30 31 1 29 8
M  V30 32 1 30 9
M  V30 33 1 31 9
M  V30 34 1 32 11
M  V30 35 1 33 11
M  V30 36 1 12 34 CFG=3
M  V30 37 1 35 13
M  V30 38 1 36 13
M  V30 39 1 37 14
M  V30 40 1 38 14
M  V30 41 1 39 16
M  V30 42 1 40 16
M  V30 43 1 41 18
M  V30 44 1 42 19
M  V30 45 1 43 20
M  V30 46 1 44 21
M  V30 47 1 45 22
M  V30 48 1 46 23
M  V30 49 1 47 23
M  V30 50 1 48 24
M  V30 51 1 49 24
M  V30 52 1 15 50 CFG=1
M  V30 END BOND
M  V30 END CTAB
M  END
>  <b_m_subgroup_collapsed>  (1608) 
0

>  <r_i_docking_score>  (1608) 
-6.9330924243156602

>  <s_m_subgroup_title>  (1608) 
glide-dock_SP_D22_pv

>  <s_m_subgroupid>  (1608) 
glide-dock_SP_D22_pv

>  <Molecule ChEMBL ID>  (1608) 
CHEMBL308185

>  <Standard Type>  (1608) 
Ki

>  <Standard Value>  (1608) 
10000.0

>  <label>  (1608) 
0

$$$$
CHEMBL15270
     RDKit          3D

  0  0  0  0  0  0  0  0  0  0999 V3000
M  V30 BEGIN CTAB
M  V30 COUNTS 55 58 0 0 1
M  V30 BEGIN ATOM
M  V30 1 C 5.980025 3.505967 -13.528037 0
M  V30 2 C 7.466625 3.767027 -13.609108 0
M  V30 3 N 8.205451 2.864147 -14.247297 0
M  V30 4 C 9.533566 3.085913 -14.309937 0
M  V30 5 Cl 10.500369 1.873508 -15.070469 0
M  V30 6 C 10.113640 4.252551 -13.753837 0
M  V30 7 S 11.858948 4.571834 -13.846974 0
M  V30 8 C 12.030704 5.500710 -15.336193 0
M  V30 9 C 11.623531 4.956463 -16.570959 0
M  V30 10 C 11.847177 5.671404 -17.762609 0
M  V30 11 C 12.485579 6.925534 -17.722694 0
M  V30 12 Cl 12.786225 7.772742 -19.193573 0
M  V30 13 C 12.886715 7.475116 -16.488894 0
M  V30 14 C 12.654290 6.763917 -15.294241 0
M  V30 15 C 9.234657 5.117376 -13.063881 0
M  V30 16 N 9.721697 6.246522 -12.384741 0
M  V30 17 C 8.879972 6.942204 -11.408557 0 CFG=1
M  V30 18 C 8.848443 6.213662 -10.047713 0
M  V30 19 C 10.104912 6.436335 -9.205892 0
M  V30 20 N 10.445804 7.878777 -9.059994 0 CFG=1 CHG=1
M  V30 21 C 11.668794 8.109796 -8.248413 0
M  V30 22 C 11.473079 8.120332 -6.740600 0
M  V30 23 C 11.684429 9.314639 -6.014650 0
M  V30 24 C 11.792243 9.278283 -4.610076 0
M  V30 25 C 11.686004 8.059543 -3.920424 0
M  V30 26 C 11.392200 6.883133 -4.631617 0
M  V30 27 C 11.286056 6.912057 -6.033929 0
M  V30 28 C 10.584208 8.529226 -10.388407 0
M  V30 29 C 9.297232 8.407541 -11.215278 0
M  V30 30 N 7.909904 4.866685 -13.013869 0
M  V30 31 H 5.685169 2.741817 -14.246244 0
M  V30 32 H 5.712166 3.161776 -12.528812 0
M  V30 33 H 5.416076 4.414576 -13.744499 0
M  V30 34 H 11.161539 3.983981 -16.620810 0
M  V30 35 H 11.544913 5.250355 -18.710304 0
M  V30 36 H 13.377883 8.436509 -16.461027 0
M  V30 37 H 12.984202 7.174905 -14.351888 0
M  V30 38 H 10.715029 6.417634 -12.416066 0
M  V30 39 H 7.864546 6.972680 -11.806663 0
M  V30 40 H 8.021826 6.572338 -9.447252 0
M  V30 41 H 8.662544 5.147233 -10.184139 0
M  V30 42 H 10.929413 5.903375 -9.665052 0
M  V30 43 H 9.930285 5.979377 -8.235947 0
M  V30 44 H 12.112494 9.069795 -8.514455 0
M  V30 45 H 12.430607 7.373260 -8.501809 0
M  V30 46 H 11.843122 10.250604 -6.529434 0
M  V30 47 H 11.996007 10.172747 -4.048965 0
M  V30 48 H 11.789755 8.032461 -2.845223 0
M  V30 49 H 11.288365 5.946410 -4.103137 0
M  V30 50 H 11.169849 5.972493 -6.548579 0
M  V30 51 H 10.832855 9.580350 -10.246315 0
M  V30 52 H 11.422444 8.086544 -10.930972 0
M  V30 53 H 8.495205 8.943836 -10.703979 0
M  V30 54 H 9.410437 8.897483 -12.183080 0
M  V30 55 H 9.670311 8.324654 -8.587143 0
M  V30 END ATOM
M  V30 BEGIN BOND
M  V30 1 1 2 1
M  V30 2 2 3 2
M  V30 3 1 4 3
M  V30 4 1 5 4
M  V30 5 2 6 4
M  V30 6 1 7 6
M  V30 7 1 8 7
M  V30 8 1 9 8
M  V30 9 2 10 9
M  V30 10 1 11 10
M  V30 11 1 12 11
M  V30 12 2 13 11
M  V30 13 2 14 8
M  V30 14 1 14 13
M  V30 15 1 15 6
M  V30 16 1 16 15
M  V30 17 1 17 16
M  V30 18 1 18 17
M  V30 19 1 19 18
M  V30 20 1 20 19
M  V30 21 1 21 20
M  V30 22 1 22 21
M  V30 23 2 23 22
M  V30 24 1 24 23
M  V30 25 2 25 24
M  V30 26 1 26 25
M  V30 27 1 27 22
M  V30 28 2 27 26
M  V30 29 1 28 20
M  V30 30 1 29 17
M  V30 31 1 29 28
M  V30 32 1 30 2
M  V30 33 2 30 15
M  V30 34 1 31 1
M  V30 35 1 32 1
M  V30 36 1 33 1
M  V30 37 1 34 9
M  V30 38 1 35 10
M  V30 39 1 36 13
M  V30 40 1 37 14
M  V30 41 1 38 16
M  V30 42 1 17 39 CFG=3
M  V30 43 1 40 18
M  V30 44 1 41 18
M  V30 45 1 42 19
M  V30 46 1 43 19
M  V30 47 1 44 21
M  V30 48 1 45 21
M  V30 49 1 46 23
M  V30 50 1 47 24
M  V30 51 1 48 25
M  V30 52 1 49 26
M  V30 53 1 50 27
M  V30 54 1 51 28
M  V30 55 1 52 28
M  V30 56 1 53 29
M  V30 57 1 54 29
M  V30 58 1 20 55 CFG=1
M  V30 END BOND
M  V30 END CTAB
M  END
>  <b_m_subgroup_collapsed>  (1609) 
0

>  <r_i_docking_score>  (1609) 
-6.9330861644944797

>  <s_m_subgroup_title>  (1609) 
glide-dock_SP_D22_pv

>  <s_m_subgroupid>  (1609) 
glide-dock_SP_D22_pv

>  <Molecule ChEMBL ID>  (1609) 
CHEMBL15270

>  <Standard Type>  (1609) 
Ki

>  <Standard Value>  (1609) 
62.0

>  <label>  (1609) 
1

$$$$
CHEMBL2159463
     RDKit          3D

  0  0  0  0  0  0  0  0  0  0999 V3000
M  V30 BEGIN CTAB
M  V30 COUNTS 56 58 0 0 1
M  V30 BEGIN ATOM
M  V30 1 C 10.207569 0.345258 -17.283119 0
M  V30 2 C 10.564132 0.581571 -15.806006 0
M  V30 3 O 9.823953 1.663284 -15.246518 0
M  V30 4 C 8.511668 1.478362 -14.850578 0
M  V30 5 C 7.829226 0.240630 -14.976997 0
M  V30 6 C 6.511849 0.084276 -14.509768 0
M  V30 7 C 5.841788 1.171600 -13.929167 0
M  V30 8 C 6.486273 2.416727 -13.830504 0
M  V30 9 C 7.831781 2.570856 -14.246075 0
M  V30 10 C 8.553838 3.853913 -13.924896 0
M  V30 11 O 9.270840 4.430091 -14.741706 0
M  V30 12 N 8.395886 4.260989 -12.655237 0
M  V30 13 C 9.150228 5.307483 -11.973947 0 CFG=1
M  V30 14 C 8.449656 6.667232 -12.096234 0
M  V30 15 C 9.176147 7.749729 -11.272033 0
M  V30 16 N 9.285157 7.368026 -9.838361 0 CFG=2 CHG=1
M  V30 17 C 9.905102 8.435544 -9.010560 0
M  V30 18 C 9.567069 8.321563 -7.512346 0
M  V30 19 O 10.401027 9.251824 -6.827655 0
M  V30 20 C 10.941363 8.923227 -5.602912 0
M  V30 21 C 11.185730 9.996888 -4.727309 0
M  V30 22 C 11.726157 9.776388 -3.446546 0
M  V30 23 C 12.059153 8.486480 -3.024713 0
M  V30 24 C 11.824107 7.410889 -3.888110 0
M  V30 25 F 12.104363 6.172340 -3.453579 0
M  V30 26 C 11.285172 7.614094 -5.176130 0
M  V30 27 C 9.953879 6.053617 -9.669007 0
M  V30 28 C 9.270867 4.944477 -10.485653 0
M  V30 29 H 10.818612 -0.455033 -17.702072 0
M  V30 30 H 9.162720 0.069374 -17.419523 0
M  V30 31 H 10.389134 1.245554 -17.872082 0
M  V30 32 H 11.616359 0.860536 -15.755025 0
M  V30 33 H 10.471862 -0.327980 -15.208638 0
M  V30 34 H 8.300322 -0.627117 -15.413164 0
M  V30 35 H 6.019429 -0.873171 -14.604212 0
M  V30 36 H 4.826826 1.057604 -13.580125 0
M  V30 37 H 5.956998 3.242904 -13.377294 0
M  V30 38 H 7.776761 3.708414 -12.080272 0
M  V30 39 H 10.151797 5.376457 -12.403705 0
M  V30 40 H 8.400788 6.971086 -13.138066 0
M  V30 41 H 7.412085 6.572066 -11.774318 0
M  V30 42 H 8.626243 8.687887 -11.358080 0
M  V30 43 H 10.172348 7.928524 -11.682392 0
M  V30 44 H 9.563083 9.410735 -9.356564 0
M  V30 45 H 10.985878 8.422568 -9.156894 0
M  V30 46 H 9.664972 7.301281 -7.158068 0
M  V30 47 H 8.523540 8.594205 -7.341897 0
M  V30 48 H 10.940121 11.001991 -5.037157 0
M  V30 49 H 11.892923 10.606971 -2.776771 0
M  V30 50 H 12.470324 8.318946 -2.040022 0
M  V30 51 H 11.150329 6.748181 -5.804590 0
M  V30 52 H 10.992393 6.172279 -9.965511 0
M  V30 53 H 9.965203 5.747738 -8.623963 0
M  V30 54 H 9.831729 4.017147 -10.375222 0
M  V30 55 H 8.279818 4.754522 -10.068969 0
M  V30 56 H 8.317629 7.279747 -9.537058 0
M  V30 END ATOM
M  V30 BEGIN BOND
M  V30 1 1 2 1
M  V30 2 1 3 2
M  V30 3 1 4 3
M  V30 4 2 5 4
M  V30 5 1 6 5
M  V30 6 2 7 6
M  V30 7 1 8 7
M  V30 8 1 9 4
M  V30 9 2 9 8
M  V30 10 1 10 9
M  V30 11 2 11 10
M  V30 12 1 12 10
M  V30 13 1 13 12
M  V30 14 1 14 13
M  V30 15 1 15 14
M  V30 16 1 16 15
M  V30 17 1 17 16
M  V30 18 1 18 17
M  V30 19 1 19 18
M  V30 20 1 20 19
M  V30 21 2 21 20
M  V30 22 1 22 21
M  V30 23 2 23 22
M  V30 24 1 24 23
M  V30 25 1 25 24
M  V30 26 1 26 20
M  V30 27 2 26 24
M  V30 28 1 27 16
M  V30 29 1 28 13
M  V30 30 1 28 27
M  V30 31 1 29 1
M  V30 32 1 30 1
M  V30 33 1 31 1
M  V30 34 1 32 2
M  V30 35 1 33 2
M  V30 36 1 34 5
M  V30 37 1 35 6
M  V30 38 1 36 7
M  V30 39 1 37 8
M  V30 40 1 38 12
M  V30 41 1 13 39 CFG=3
M  V30 42 1 40 14
M  V30 43 1 41 14
M  V30 44 1 42 15
M  V30 45 1 43 15
M  V30 46 1 44 17
M  V30 47 1 45 17
M  V30 48 1 46 18
M  V30 49 1 47 18
M  V30 50 1 48 21
M  V30 51 1 49 22
M  V30 52 1 50 23
M  V30 53 1 51 26
M  V30 54 1 52 27
M  V30 55 1 53 27
M  V30 56 1 54 28
M  V30 57 1 55 28
M  V30 58 1 16 56 CFG=1
M  V30 END BOND
M  V30 END CTAB
M  END
>  <b_m_subgroup_collapsed>  (1610) 
0

>  <r_i_docking_score>  (1610) 
-6.9293710105533197

>  <s_m_subgroup_title>  (1610) 
glide-dock_SP_D22_pv

>  <s_m_subgroupid>  (1610) 
glide-dock_SP_D22_pv

>  <Molecule ChEMBL ID>  (1610) 
CHEMBL2159463

>  <Standard Type>  (1610) 
Ki

>  <Standard Value>  (1610) 
76.0

>  <label>  (1610) 
1

$$$$
CHEMBL5277789
     RDKit          3D

  0  0  0  0  0  0  0  0  0  0999 V3000
M  V30 BEGIN CTAB
M  V30 COUNTS 58 61 0 0 1
M  V30 BEGIN ATOM
M  V30 1 O 12.072887 7.417035 -3.653276 0
M  V30 2 C 11.518682 7.887047 -4.809540 0
M  V30 3 C 11.457665 9.271178 -5.049800 0
M  V30 4 C 10.888304 9.748547 -6.246129 0
M  V30 5 C 10.372443 8.847116 -7.202438 0
M  V30 6 C 10.422759 7.451406 -6.965412 0
M  V30 7 O 9.983986 6.490058 -7.851489 0
M  V30 8 C 8.875903 6.760467 -8.706870 0
M  V30 9 C 9.258497 6.403981 -10.153071 0
M  V30 10 N 8.086367 6.172123 -11.045366 0 CHG=1
M  V30 11 C 8.370794 6.224034 -12.509961 0
M  V30 12 C 9.028925 4.953126 -13.128790 0 CFG=2
M  V30 13 C 10.486101 4.747084 -12.679750 0
M  V30 14 O 11.158645 3.772209 -13.447213 0
M  V30 15 C 11.131047 4.070255 -14.817372 0
M  V30 16 C 9.667111 3.997896 -15.307153 0
M  V30 17 C 9.009849 2.626496 -15.028810 0
M  V30 18 C 7.626182 2.551159 -14.735171 0
M  V30 19 C 6.991859 1.312684 -14.542076 0
M  V30 20 C 7.733140 0.125526 -14.653983 0
M  V30 21 C 9.107092 0.173487 -14.957152 0
M  V30 22 C 9.742698 1.417885 -15.136798 0
M  V30 23 C 9.685452 4.313373 -16.819469 0
M  V30 24 C 9.281300 3.373052 -17.802147 0
M  V30 25 C 9.314383 3.697655 -19.173410 0
M  V30 26 C 9.757305 4.964600 -19.590038 0
M  V30 27 C 10.181178 5.901663 -18.631107 0
M  V30 28 C 10.152393 5.571136 -17.264067 0
M  V30 29 O 8.998032 5.050909 -14.571077 0
M  V30 30 C 11.009331 6.989210 -5.768620 0
M  V30 31 H 11.995667 6.480172 -3.551820 0
M  V30 32 H 11.852063 9.966340 -4.322875 0
M  V30 33 H 10.868608 10.811769 -6.430795 0
M  V30 34 H 9.969357 9.249249 -8.118656 0
M  V30 35 H 8.085599 6.094625 -8.371902 0
M  V30 36 H 8.486509 7.773403 -8.637255 0
M  V30 37 H 9.900625 7.187424 -10.555450 0
M  V30 38 H 9.849566 5.497555 -10.097324 0
M  V30 39 H 7.636528 5.298689 -10.804008 0
M  V30 40 H 7.410697 6.380567 -13.000884 0
M  V30 41 H 8.963929 7.112837 -12.713614 0
M  V30 42 H 8.450030 4.088991 -12.806925 0
M  V30 43 H 11.045422 5.684690 -12.678109 0
M  V30 44 H 10.485781 4.340016 -11.675449 0
M  V30 45 H 11.770741 3.366433 -15.349682 0
M  V30 46 H 11.574473 5.053376 -14.978778 0
M  V30 47 H 7.030807 3.445106 -14.646979 0
M  V30 48 H 5.937405 1.274066 -14.313168 0
M  V30 49 H 7.247450 -0.830830 -14.517284 0
M  V30 50 H 9.673049 -0.740859 -15.049148 0
M  V30 51 H 10.793041 1.425393 -15.383670 0
M  V30 52 H 8.929070 2.389818 -17.533194 0
M  V30 53 H 8.999138 2.970031 -19.907442 0
M  V30 54 H 9.779005 5.212886 -20.641397 0
M  V30 55 H 10.525887 6.876461 -18.945459 0
M  V30 56 H 10.486140 6.307507 -16.548479 0
M  V30 57 H 11.064998 5.929086 -5.585016 0
M  V30 58 H 7.407711 6.912513 -10.807036 0
M  V30 END ATOM
M  V30 BEGIN BOND
M  V30 1 1 2 1
M  V30 2 1 3 2
M  V30 3 2 4 3
M  V30 4 1 5 4
M  V30 5 2 6 5
M  V30 6 1 7 6
M  V30 7 1 8 7
M  V30 8 1 9 8
M  V30 9 1 10 9
M  V30 10 1 11 10
M  V30 11 1 12 11
M  V30 12 1 13 12
M  V30 13 1 14 13
M  V30 14 1 15 14
M  V30 15 1 16 15
M  V30 16 1 17 16
M  V30 17 2 18 17
M  V30 18 1 19 18
M  V30 19 2 20 19
M  V30 20 1 21 20
M  V30 21 1 22 17
M  V30 22 2 22 21
M  V30 23 1 23 16
M  V30 24 2 24 23
M  V30 25 1 25 24
M  V30 26 2 26 25
M  V30 27 1 27 26
M  V30 28 1 28 23
M  V30 29 2 28 27
M  V30 30 1 29 12
M  V30 31 1 29 16
M  V30 32 2 30 2
M  V30 33 1 30 6
M  V30 34 1 31 1
M  V30 35 1 32 3
M  V30 36 1 33 4
M  V30 37 1 34 5
M  V30 38 1 35 8
M  V30 39 1 36 8
M  V30 40 1 37 9
M  V30 41 1 38 9
M  V30 42 1 39 10
M  V30 43 1 40 11
M  V30 44 1 41 11
M  V30 45 1 12 42 CFG=3
M  V30 46 1 43 13
M  V30 47 1 44 13
M  V30 48 1 45 15
M  V30 49 1 46 15
M  V30 50 1 47 18
M  V30 51 1 48 19
M  V30 52 1 49 20
M  V30 53 1 50 21
M  V30 54 1 51 22
M  V30 55 1 52 24
M  V30 56 1 53 25
M  V30 57 1 54 26
M  V30 58 1 55 27
M  V30 59 1 56 28
M  V30 60 1 57 30
M  V30 61 1 58 10
M  V30 END BOND
M  V30 END CTAB
M  END
>  <b_m_subgroup_collapsed>  (1611) 
0

>  <r_i_docking_score>  (1611) 
-6.9293689013955104

>  <s_m_subgroup_title>  (1611) 
glide-dock_SP_D22_pv

>  <s_m_subgroupid>  (1611) 
glide-dock_SP_D22_pv

>  <Molecule ChEMBL ID>  (1611) 
CHEMBL5277789

>  <Standard Type>  (1611) 
Ki

>  <Standard Value>  (1611) 
10000.0

>  <label>  (1611) 
0

$$$$
CHEMBL10289
     RDKit          3D

  0  0  0  0  0  0  0  0  0  0999 V3000
M  V30 BEGIN CTAB
M  V30 COUNTS 37 39 0 0 1
M  V30 BEGIN ATOM
M  V30 1 C 10.486022 9.175074 -6.114390 0
M  V30 2 C 9.421768 8.486583 -6.560902 0
M  V30 3 C 9.458779 7.022694 -6.947514 0
M  V30 4 N 8.886023 6.763805 -8.293144 0 CFG=2 CHG=1
M  V30 5 C 8.723259 5.322666 -8.576249 0
M  V30 6 C 9.111473 5.085489 -10.033746 0
M  V30 7 C 9.199169 6.473644 -10.665915 0 CFG=2
M  V30 8 C 10.165348 6.526850 -11.846864 0
M  V30 9 C 9.963376 5.645784 -12.932193 0
M  V30 10 C 10.886022 5.594565 -13.994115 0
M  V30 11 C 11.996584 6.456487 -14.000626 0
M  V30 12 C 12.196689 7.352586 -12.933902 0
M  V30 13 O 13.286022 8.172325 -12.953937 0
M  V30 14 C 11.303477 7.372324 -11.838360 0
M  V30 15 C 11.607565 8.239849 -10.627798 0
M  V30 16 C 11.036260 7.651582 -9.343181 0
M  V30 17 C 9.523756 7.402792 -9.477825 0 CFG=2
M  V30 18 H 11.452364 8.702834 -6.010711 0
M  V30 19 H 10.417286 10.217804 -5.843871 0
M  V30 20 H 8.462986 8.972324 -6.651702 0
M  V30 21 H 10.473632 6.628900 -6.873026 0
M  V30 22 H 8.864050 6.479570 -6.213506 0
M  V30 23 H 9.331249 4.702130 -7.919260 0
M  V30 24 H 7.686023 5.057188 -8.387586 0
M  V30 25 H 10.086020 4.598593 -10.058334 0
M  V30 26 H 8.407858 4.436469 -10.555958 0
M  V30 27 H 8.209167 6.729407 -11.046864 0
M  V30 28 H 9.109693 4.983610 -12.940692 0
M  V30 29 H 10.731073 4.906809 -14.812472 0
M  V30 30 H 12.692370 6.425944 -14.826428 0
M  V30 31 H 14.002669 7.798487 -13.446865 0
M  V30 32 H 12.684160 8.366050 -10.507655 0
M  V30 33 H 11.195012 9.234464 -10.787992 0
M  V30 34 H 11.538888 6.713916 -9.120480 0
M  V30 35 H 11.268717 8.337560 -8.533256 0
M  V30 36 H 9.044920 8.370171 -9.639806 0
M  V30 37 H 7.928234 7.113001 -8.278920 0
M  V30 END ATOM
M  V30 BEGIN BOND
M  V30 1 2 2 1
M  V30 2 1 3 2
M  V30 3 1 4 3
M  V30 4 1 5 4
M  V30 5 1 6 5
M  V30 6 1 7 6
M  V30 7 1 8 7
M  V30 8 2 9 8
M  V30 9 1 10 9
M  V30 10 2 11 10
M  V30 11 1 12 11
M  V30 12 1 13 12
M  V30 13 1 14 8
M  V30 14 2 14 12
M  V30 15 1 15 14
M  V30 16 1 16 15
M  V30 17 1 17 4
M  V30 18 1 17 7
M  V30 19 1 17 16
M  V30 20 1 18 1
M  V30 21 1 19 1
M  V30 22 1 20 2
M  V30 23 1 21 3
M  V30 24 1 22 3
M  V30 25 1 23 5
M  V30 26 1 24 5
M  V30 27 1 25 6
M  V30 28 1 26 6
M  V30 29 1 7 27 CFG=3
M  V30 30 1 28 9
M  V30 31 1 29 10
M  V30 32 1 30 11
M  V30 33 1 31 13
M  V30 34 1 32 15
M  V30 35 1 33 15
M  V30 36 1 34 16
M  V30 37 1 35 16
M  V30 38 1 17 36 CFG=3
M  V30 39 1 4 37 CFG=1
M  V30 END BOND
M  V30 END CTAB
M  END
>  <b_m_subgroup_collapsed>  (1612) 
0

>  <r_i_docking_score>  (1612) 
-6.9254555202232497

>  <s_m_subgroup_title>  (1612) 
glide-dock_SP_D22_pv

>  <s_m_subgroupid>  (1612) 
glide-dock_SP_D22_pv

>  <Molecule ChEMBL ID>  (1612) 
CHEMBL10289

>  <Standard Type>  (1612) 
Ki

>  <Standard Value>  (1612) 
75.0

>  <label>  (1612) 
1

$$$$
CHEMBL7806
     RDKit          3D

  0  0  0  0  0  0  0  0  0  0999 V3000
M  V30 BEGIN CTAB
M  V30 COUNTS 48 50 0 0 1
M  V30 BEGIN ATOM
M  V30 1 C 13.711548 8.172387 -9.609608 0
M  V30 2 C 12.487034 7.991843 -10.524383 0
M  V30 3 C 11.132350 8.427205 -9.934556 0
M  V30 4 N 10.568799 7.447047 -8.965346 0 CFG=2 CHG=1
M  V30 5 C 9.086296 7.316068 -9.037243 0
M  V30 6 C 8.668060 5.886457 -9.428029 0
M  V30 7 C 8.885420 5.515378 -10.867292 0
M  V30 8 C 9.621150 4.371368 -11.288591 0
M  V30 9 C 9.617663 4.171599 -12.641623 0
M  V30 10 S 8.660889 5.372251 -13.447405 0
M  V30 11 C 8.326681 6.172240 -11.932987 0
M  V30 12 C 11.121482 7.541564 -7.575331 0 CFG=2
M  V30 13 C 10.779576 6.303734 -6.742402 0
M  V30 14 C 11.489556 6.295271 -5.383450 0
M  V30 15 C 11.630110 7.637892 -4.705132 0
M  V30 16 C 12.086053 7.672218 -3.365845 0
M  V30 17 O 12.485340 6.536129 -2.726878 0
M  V30 18 C 12.107679 8.882771 -2.662217 0
M  V30 19 C 11.686061 10.053206 -3.302736 0
M  V30 20 C 11.275337 10.041365 -4.648762 0
M  V30 21 C 11.246276 8.831186 -5.364724 0
M  V30 22 C 10.751837 8.832511 -6.807255 0
M  V30 23 H 14.588354 8.447223 -10.198533 0
M  V30 24 H 13.552400 8.972284 -8.886085 0
M  V30 25 H 13.999811 7.298645 -9.046917 0
M  V30 26 H 12.433806 6.972787 -10.902399 0
M  V30 27 H 12.662696 8.610332 -11.405240 0
M  V30 28 H 10.458291 8.502034 -10.789014 0
M  V30 29 H 11.181449 9.432956 -9.519262 0
M  V30 30 H 8.626547 7.551171 -8.077785 0
M  V30 31 H 8.646335 8.038313 -9.724224 0
M  V30 32 H 9.158374 5.163379 -8.776414 0
M  V30 33 H 7.616720 5.773097 -9.202200 0
M  V30 34 H 10.086197 3.708625 -10.576786 0
M  V30 35 H 10.076507 3.368291 -13.200219 0
M  V30 36 H 7.684511 7.043486 -11.904615 0
M  V30 37 H 12.203374 7.527004 -7.656299 0
M  V30 38 H 11.031510 5.396712 -7.293738 0
M  V30 39 H 9.705506 6.272423 -6.556477 0
M  V30 40 H 12.464327 5.816567 -5.463870 0
M  V30 41 H 10.887745 5.732684 -4.678986 0
M  V30 42 H 12.620976 6.651482 -1.799659 0
M  V30 43 H 12.432710 8.923493 -1.632933 0
M  V30 44 H 11.690101 10.972257 -2.742093 0
M  V30 45 H 10.963060 10.963264 -5.119145 0
M  V30 46 H 9.672577 8.979794 -6.774406 0
M  V30 47 H 11.166793 9.707458 -7.305786 0
M  V30 48 H 10.891458 6.557680 -9.318185 0
M  V30 END ATOM
M  V30 BEGIN BOND
M  V30 1 1 2 1
M  V30 2 1 3 2
M  V30 3 1 4 3
M  V30 4 1 5 4
M  V30 5 1 6 5
M  V30 6 1 7 6
M  V30 7 1 8 7
M  V30 8 2 9 8
M  V30 9 1 10 9
M  V30 10 2 11 7
M  V30 11 1 11 10
M  V30 12 1 12 4
M  V30 13 1 13 12
M  V30 14 1 14 13
M  V30 15 1 15 14
M  V30 16 2 16 15
M  V30 17 1 17 16
M  V30 18 1 18 16
M  V30 19 2 19 18
M  V30 20 1 20 19
M  V30 21 1 21 15
M  V30 22 2 21 20
M  V30 23 1 22 12
M  V30 24 1 22 21
M  V30 25 1 23 1
M  V30 26 1 24 1
M  V30 27 1 25 1
M  V30 28 1 26 2
M  V30 29 1 27 2
M  V30 30 1 28 3
M  V30 31 1 29 3
M  V30 32 1 30 5
M  V30 33 1 31 5
M  V30 34 1 32 6
M  V30 35 1 33 6
M  V30 36 1 34 8
M  V30 37 1 35 9
M  V30 38 1 36 11
M  V30 39 1 12 37 CFG=3
M  V30 40 1 38 13
M  V30 41 1 39 13
M  V30 42 1 40 14
M  V30 43 1 41 14
M  V30 44 1 42 17
M  V30 45 1 43 18
M  V30 46 1 44 19
M  V30 47 1 45 20
M  V30 48 1 46 22
M  V30 49 1 47 22
M  V30 50 1 4 48 CFG=3
M  V30 END BOND
M  V30 END CTAB
M  END
>  <b_m_subgroup_collapsed>  (1613) 
0

>  <r_i_docking_score>  (1613) 
-6.9252704772223197

>  <s_m_subgroup_title>  (1613) 
glide-dock_SP_D22_pv

>  <s_m_subgroupid>  (1613) 
glide-dock_SP_D22_pv

>  <Molecule ChEMBL ID>  (1613) 
CHEMBL7806

>  <Standard Type>  (1613) 
Ki

>  <Standard Value>  (1613) 
0.14

>  <label>  (1613) 
1

$$$$
CHEMBL564930
     RDKit          3D

  0  0  0  0  0  0  0  0  0  0999 V3000
M  V30 BEGIN CTAB
M  V30 COUNTS 57 60 0 0 1
M  V30 BEGIN ATOM
M  V30 1 C 11.388583 9.332735 -7.304872 0
M  V30 2 C 10.316947 8.625188 -8.195272 0
M  V30 3 C 8.936312 8.824198 -7.522711 0
M  V30 4 C 10.347850 9.130169 -9.644588 0 CFG=1
M  V30 5 C 11.662108 8.662340 -10.242843 0
M  V30 6 C 11.894919 7.367804 -9.505183 0
M  V30 7 C 10.702025 7.173753 -8.528009 0 CFG=1
M  V30 8 C 11.102225 6.364637 -7.280081 0
M  V30 9 C 9.542694 6.429945 -9.265985 0
M  V30 10 N 8.886062 7.174763 -10.394335 0 CFG=2 CHG=1
M  V30 11 C 8.941247 6.458781 -11.692286 0
M  V30 12 C 8.104851 5.155658 -11.670124 0
M  V30 13 N 8.191072 4.366874 -12.901977 0
M  V30 14 C 7.005690 3.696242 -13.400470 0
M  V30 15 C 7.577703 2.679377 -14.382516 0
M  V30 16 N 8.993910 3.018601 -14.437045 0
M  V30 17 C 9.891912 2.410652 -15.372189 0
M  V30 18 C 11.065607 3.073766 -15.811159 0
M  V30 19 C 11.924994 2.471927 -16.749449 0
M  V30 20 C 11.624657 1.199249 -17.266119 0
M  V30 21 C 10.459453 0.532142 -16.846189 0
M  V30 22 Cl 10.085789 -1.024122 -17.487757 0
M  V30 23 C 9.596940 1.133884 -15.908543 0
M  V30 24 C 9.317828 3.896015 -13.467093 0
M  V30 25 O 10.458525 4.212371 -13.129592 0
M  V30 26 C 9.160243 8.640709 -10.492872 0
M  V30 27 H 12.411929 9.148327 -7.626600 0
M  V30 28 H 11.285949 10.414249 -7.272932 0
M  V30 29 H 11.329993 8.987697 -6.272442 0
M  V30 30 H 8.196248 8.072145 -7.774167 0
M  V30 31 H 9.002503 8.830920 -6.434959 0
M  V30 32 H 8.504259 9.767208 -7.846903 0
M  V30 33 H 10.348825 10.188688 -9.642840 0
M  V30 34 H 11.619812 8.518535 -11.321943 0
M  V30 35 H 12.465070 9.367341 -10.033112 0
M  V30 36 H 11.960543 6.572466 -10.235195 0
M  V30 37 H 12.849328 7.414585 -8.981894 0
M  V30 38 H 10.311960 6.376383 -6.528168 0
M  V30 39 H 11.285068 5.327416 -7.537949 0
M  V30 40 H 12.013935 6.736959 -6.814244 0
M  V30 41 H 8.758763 6.147489 -8.562342 0
M  V30 42 H 9.938607 5.477831 -9.620447 0
M  V30 43 H 9.988207 6.293416 -11.937973 0
M  V30 44 H 8.533861 7.093954 -12.477666 0
M  V30 45 H 7.060176 5.407197 -11.478392 0
M  V30 46 H 8.404747 4.500450 -10.852356 0
M  V30 47 H 6.445728 3.214855 -12.596849 0
M  V30 48 H 6.352099 4.412452 -13.898664 0
M  V30 49 H 7.107529 2.745754 -15.364205 0
M  V30 50 H 7.445336 1.665047 -14.002743 0
M  V30 51 H 11.321410 4.057828 -15.448409 0
M  V30 52 H 12.819124 2.986286 -17.069902 0
M  V30 53 H 12.286765 0.734970 -17.982433 0
M  V30 54 H 8.711617 0.595401 -15.603812 0
M  V30 55 H 9.298715 8.947009 -11.530540 0
M  V30 56 H 8.270581 9.182162 -10.171788 0
M  V30 57 H 7.880275 7.202528 -10.190564 0
M  V30 END ATOM
M  V30 BEGIN BOND
M  V30 1 1 2 1
M  V30 2 1 3 2
M  V30 3 1 4 2
M  V30 4 1 5 4
M  V30 5 1 6 5
M  V30 6 1 7 2
M  V30 7 1 7 6
M  V30 8 1 7 8 CFG=1
M  V30 9 1 9 7
M  V30 10 1 10 9
M  V30 11 1 11 10
M  V30 12 1 12 11
M  V30 13 1 13 12
M  V30 14 1 14 13
M  V30 15 1 15 14
M  V30 16 1 16 15
M  V30 17 1 17 16
M  V30 18 2 18 17
M  V30 19 1 19 18
M  V30 20 2 20 19
M  V30 21 1 21 20
M  V30 22 1 22 21
M  V30 23 1 23 17
M  V30 24 2 23 21
M  V30 25 1 24 13
M  V30 26 1 24 16
M  V30 27 2 25 24
M  V30 28 1 26 4
M  V30 29 1 26 10
M  V30 30 1 27 1
M  V30 31 1 28 1
M  V30 32 1 29 1
M  V30 33 1 30 3
M  V30 34 1 31 3
M  V30 35 1 32 3
M  V30 36 1 4 33 CFG=1
M  V30 37 1 34 5
M  V30 38 1 35 5
M  V30 39 1 36 6
M  V30 40 1 37 6
M  V30 41 1 38 8
M  V30 42 1 39 8
M  V30 43 1 40 8
M  V30 44 1 41 9
M  V30 45 1 42 9
M  V30 46 1 43 11
M  V30 47 1 44 11
M  V30 48 1 45 12
M  V30 49 1 46 12
M  V30 50 1 47 14
M  V30 51 1 48 14
M  V30 52 1 49 15
M  V30 53 1 50 15
M  V30 54 1 51 18
M  V30 55 1 52 19
M  V30 56 1 53 20
M  V30 57 1 54 23
M  V30 58 1 55 26
M  V30 59 1 56 26
M  V30 60 1 10 57 CFG=1
M  V30 END BOND
M  V30 END CTAB
M  END
>  <b_m_subgroup_collapsed>  (1614) 
0

>  <r_i_docking_score>  (1614) 
-6.9212170467703604

>  <s_m_subgroup_title>  (1614) 
glide-dock_SP_D22_pv

>  <s_m_subgroupid>  (1614) 
glide-dock_SP_D22_pv

>  <Molecule ChEMBL ID>  (1614) 
CHEMBL564930

>  <Standard Type>  (1614) 
Ki

>  <Standard Value>  (1614) 
31.62

>  <label>  (1614) 
1

$$$$
CHEMBL539057
     RDKit          3D

  0  0  0  0  0  0  0  0  0  0999 V3000
M  V30 BEGIN CTAB
M  V30 COUNTS 44 47 0 0 1
M  V30 BEGIN ATOM
M  V30 1 C 8.801560 7.835394 -6.861408 0
M  V30 2 N 8.886048 7.409793 -8.271428 0 CFG=2 CHG=1
M  V30 3 C 9.575325 6.104932 -8.415109 0
M  V30 4 C 9.530150 5.623196 -9.867872 0
M  V30 5 C 10.168050 6.670206 -10.805952 0 CFG=1
M  V30 6 C 10.269599 6.251534 -12.278256 0
M  V30 7 C 11.371167 6.626884 -12.967385 0
M  V30 8 C 11.825598 6.148798 -14.278551 0
M  V30 9 C 12.487457 7.042056 -15.146592 0
M  V30 10 C 12.942710 6.606553 -16.405817 0
M  V30 11 C 12.742272 5.270532 -16.802639 0
M  V30 12 C 12.082532 4.373458 -15.941324 0
M  V30 13 C 11.617970 4.811557 -14.684917 0
M  V30 14 O 11.007096 3.918980 -13.847997 0
M  V30 15 C 9.686910 4.155868 -13.584261 0
M  V30 16 C 8.734079 3.247299 -14.086191 0
M  V30 17 C 7.363167 3.449594 -13.847081 0
M  V30 18 C 6.943454 4.573340 -13.114601 0
M  V30 19 C 7.894256 5.488480 -12.625544 0
M  V30 20 C 9.280852 5.281082 -12.822415 0
M  V30 21 C 9.493258 8.039264 -10.626498 0
M  V30 22 C 9.460247 8.463754 -9.146315 0
M  V30 23 H 9.775307 8.136117 -6.473035 0
M  V30 24 H 8.107277 8.667922 -6.759342 0
M  V30 25 H 8.429589 7.018075 -6.247015 0
M  V30 26 H 9.089931 5.364205 -7.778371 0
M  V30 27 H 10.608447 6.189776 -8.074889 0
M  V30 28 H 8.488515 5.433766 -10.120713 0
M  V30 29 H 10.051199 4.669221 -9.956605 0
M  V30 30 H 11.192897 6.810593 -10.457156 0
M  V30 31 H 12.075128 7.282848 -12.475597 0
M  V30 32 H 12.648792 8.068048 -14.849477 0
M  V30 33 H 13.447725 7.297565 -17.065062 0
M  V30 34 H 13.096473 4.933619 -17.765944 0
M  V30 35 H 11.935382 3.346246 -16.240549 0
M  V30 36 H 9.059977 2.388528 -14.654185 0
M  V30 37 H 6.636205 2.747690 -14.229106 0
M  V30 38 H 5.891894 4.740967 -12.933478 0
M  V30 39 H 7.539409 6.348267 -12.077407 0
M  V30 40 H 10.025138 8.794239 -11.206164 0
M  V30 41 H 8.485863 8.018607 -11.030432 0
M  V30 42 H 8.866262 9.371784 -9.044646 0
M  V30 43 H 10.470155 8.703095 -8.809708 0
M  V30 44 H 7.921037 7.277867 -8.571850 0
M  V30 END ATOM
M  V30 BEGIN BOND
M  V30 1 1 2 1
M  V30 2 1 3 2
M  V30 3 1 4 3
M  V30 4 1 5 4
M  V30 5 1 6 5
M  V30 6 2 7 6
M  V30 7 1 8 7
M  V30 8 2 9 8
M  V30 9 1 10 9
M  V30 10 2 11 10
M  V30 11 1 12 11
M  V30 12 1 13 8
M  V30 13 2 13 12
M  V30 14 1 14 13
M  V30 15 1 15 14
M  V30 16 2 16 15
M  V30 17 1 17 16
M  V30 18 2 18 17
M  V30 19 1 19 18
M  V30 20 1 20 6
M  V30 21 1 20 15
M  V30 22 2 20 19
M  V30 23 1 21 5
M  V30 24 1 22 2
M  V30 25 1 22 21
M  V30 26 1 23 1
M  V30 27 1 24 1
M  V30 28 1 25 1
M  V30 29 1 26 3
M  V30 30 1 27 3
M  V30 31 1 28 4
M  V30 32 1 29 4
M  V30 33 1 5 30 CFG=1
M  V30 34 1 31 7
M  V30 35 1 32 9
M  V30 36 1 33 10
M  V30 37 1 34 11
M  V30 38 1 35 12
M  V30 39 1 36 16
M  V30 40 1 37 17
M  V30 41 1 38 18
M  V30 42 1 39 19
M  V30 43 1 40 21
M  V30 44 1 41 21
M  V30 45 1 42 22
M  V30 46 1 43 22
M  V30 47 1 2 44 CFG=3
M  V30 END BOND
M  V30 END CTAB
M  END
>  <b_m_subgroup_collapsed>  (1615) 
0

>  <r_i_docking_score>  (1615) 
-6.9206291406059801

>  <s_m_subgroup_title>  (1615) 
glide-dock_SP_D22_pv

>  <s_m_subgroupid>  (1615) 
glide-dock_SP_D22_pv

>  <Molecule ChEMBL ID>  (1615) 
CHEMBL539057

>  <Standard Type>  (1615) 
Ki

>  <Standard Value>  (1615) 
82.0

>  <label>  (1615) 
1

$$$$
CHEMBL398615
     RDKit          3D

  0  0  0  0  0  0  0  0  0  0999 V3000
M  V30 BEGIN CTAB
M  V30 COUNTS 58 61 0 0 1
M  V30 BEGIN ATOM
M  V30 1 C 12.486804 6.672685 -13.860006 0
M  V30 2 S 12.652418 6.001694 -15.563075 0
M  V30 3 O 14.047786 5.584202 -15.753806 0
M  V30 4 O 12.063632 6.971862 -16.494270 0
M  V30 5 C 11.634564 4.527701 -15.576017 0
M  V30 6 C 12.098116 3.381675 -16.235085 0
M  V30 7 C 11.293363 2.234733 -16.253105 0
M  V30 8 C 10.029864 2.228848 -15.628983 0
M  V30 9 C 9.531747 3.382261 -14.961356 0
M  V30 10 C 10.368466 4.532299 -14.960086 0
M  V30 11 N 8.251439 3.385214 -14.337066 0
M  V30 12 C 7.684014 4.693038 -13.942250 0
M  V30 13 C 7.753797 5.027575 -12.428607 0
M  V30 14 C 8.947082 5.919809 -12.048717 0
M  V30 15 N 8.886025 6.492941 -10.676189 0 CFG=1 CHG=1
M  V30 16 C 8.966327 5.449658 -9.614401 0
M  V30 17 C 9.028920 6.045073 -8.195568 0
M  V30 18 C 10.182411 7.050196 -8.065613 0 CFG=2
M  V30 19 C 10.283429 7.613236 -6.643946 0
M  V30 20 N 11.061421 6.963214 -5.777942 0
M  V30 21 O 9.687181 8.636086 -6.325603 0
M  V30 22 C 9.956559 8.152767 -9.112377 0
M  V30 23 C 9.926398 7.548998 -10.523216 0
M  V30 24 C 7.368064 2.273349 -14.242823 0
M  V30 25 C 6.173647 2.347333 -13.468550 0
M  V30 26 C 5.333480 1.237485 -13.295487 0
M  V30 27 C 5.618934 0.024835 -13.935228 0
M  V30 28 C 6.781348 -0.078360 -14.707265 0
M  V30 29 C 7.660442 1.017774 -14.842463 0
M  V30 30 S 9.128725 0.725835 -15.758990 0
M  V30 31 H 13.203775 7.482664 -13.739286 0
M  V30 32 H 11.482536 7.056273 -13.701359 0
M  V30 33 H 12.712844 5.886107 -13.141828 0
M  V30 34 H 13.065693 3.376021 -16.718033 0
M  V30 35 H 11.649161 1.346315 -16.756508 0
M  V30 36 H 10.079808 5.450427 -14.484423 0
M  V30 37 H 8.085965 5.512035 -14.534634 0
M  V30 38 H 6.638777 4.703736 -14.246725 0
M  V30 39 H 6.842170 5.566134 -12.166474 0
M  V30 40 H 7.746146 4.114679 -11.835901 0
M  V30 41 H 9.875474 5.361652 -12.169357 0
M  V30 42 H 8.986471 6.749797 -12.753844 0
M  V30 43 H 8.093375 4.799086 -9.676785 0
M  V30 44 H 9.842104 4.822565 -9.785856 0
M  V30 45 H 9.148582 5.243815 -7.467589 0
M  V30 46 H 8.086143 6.534063 -7.955409 0
M  V30 47 H 11.124081 6.545459 -8.288564 0
M  V30 48 H 11.514808 6.102582 -6.044846 0
M  V30 49 H 11.154682 7.320996 -4.839653 0
M  V30 50 H 10.747241 8.904345 -9.050666 0
M  V30 51 H 9.017920 8.677621 -8.919926 0
M  V30 52 H 10.906905 7.132964 -10.762761 0
M  V30 53 H 9.742146 8.348367 -11.244038 0
M  V30 54 H 5.878693 3.240090 -12.943427 0
M  V30 55 H 4.483611 1.331257 -12.650392 0
M  V30 56 H 4.965324 -0.827510 -13.830745 0
M  V30 57 H 7.003068 -1.026226 -15.180374 0
M  V30 58 H 7.979854 6.954557 -10.566379 0
M  V30 END ATOM
M  V30 BEGIN BOND
M  V30 1 1 2 1
M  V30 2 2 3 2
M  V30 3 2 4 2
M  V30 4 1 5 2
M  V30 5 1 6 5
M  V30 6 2 7 6
M  V30 7 1 8 7
M  V30 8 2 9 8
M  V30 9 2 10 5
M  V30 10 1 10 9
M  V30 11 1 11 9
M  V30 12 1 12 11
M  V30 13 1 13 12
M  V30 14 1 14 13
M  V30 15 1 15 14
M  V30 16 1 16 15
M  V30 17 1 17 16
M  V30 18 1 18 17
M  V30 19 1 19 18
M  V30 20 1 20 19
M  V30 21 2 21 19
M  V30 22 1 22 18
M  V30 23 1 23 15
M  V30 24 1 23 22
M  V30 25 1 24 11
M  V30 26 2 25 24
M  V30 27 1 26 25
M  V30 28 2 27 26
M  V30 29 1 28 27
M  V30 30 1 29 24
M  V30 31 2 29 28
M  V30 32 1 30 8
M  V30 33 1 30 29
M  V30 34 1 31 1
M  V30 35 1 32 1
M  V30 36 1 33 1
M  V30 37 1 34 6
M  V30 38 1 35 7
M  V30 39 1 36 10
M  V30 40 1 37 12
M  V30 41 1 38 12
M  V30 42 1 39 13
M  V30 43 1 40 13
M  V30 44 1 41 14
M  V30 45 1 42 14
M  V30 46 1 43 16
M  V30 47 1 44 16
M  V30 48 1 45 17
M  V30 49 1 46 17
M  V30 50 1 18 47 CFG=3
M  V30 51 1 48 20
M  V30 52 1 49 20
M  V30 53 1 50 22
M  V30 54 1 51 22
M  V30 55 1 52 23
M  V30 56 1 53 23
M  V30 57 1 54 25
M  V30 58 1 55 26
M  V30 59 1 56 27
M  V30 60 1 57 28
M  V30 61 1 15 58 CFG=3
M  V30 END BOND
M  V30 END CTAB
M  END
>  <b_m_subgroup_collapsed>  (1616) 
0

>  <r_i_docking_score>  (1616) 
-6.92010633007928

>  <s_m_subgroup_title>  (1616) 
glide-dock_SP_D22_pv

>  <s_m_subgroupid>  (1616) 
glide-dock_SP_D22_pv

>  <Molecule ChEMBL ID>  (1616) 
CHEMBL398615

>  <Standard Type>  (1616) 
Ki

>  <Standard Value>  (1616) 
0.07

>  <label>  (1616) 
1

$$$$
CHEMBL5830481
     RDKit          3D

  0  0  0  0  0  0  0  0  0  0999 V3000
M  V30 BEGIN CTAB
M  V30 COUNTS 59 63 0 0 1
M  V30 BEGIN ATOM
M  V30 1 C 11.300488 6.034369 -6.657446 0
M  V30 2 N 11.189086 7.452727 -6.895577 0
M  V30 3 C 10.959550 8.054682 -8.075397 0
M  V30 4 S 10.886551 7.141202 -9.575045 0
M  V30 5 C 9.635531 8.024125 -10.541121 0
M  V30 6 C 8.815647 7.043105 -11.403039 0
M  V30 7 C 9.624789 5.914740 -12.077085 0
M  V30 8 N 8.848938 5.109587 -13.050747 0 CFG=2 CHG=1
M  V30 9 C 7.495805 4.684252 -12.642701 0
M  V30 10 C 7.137186 3.572715 -13.632219 0
M  V30 11 C 8.462963 3.001416 -14.104967 0 CFG=1
M  V30 12 C 8.648155 1.502754 -14.247235 0
M  V30 13 C 8.624570 2.362391 -15.479520 0 CFG=2
M  V30 14 C 9.858139 2.532194 -16.321732 0
M  V30 15 C 10.639229 1.405739 -16.659462 0
M  V30 16 C 11.800341 1.545289 -17.443182 0
M  V30 17 C 12.197791 2.817952 -17.907928 0
M  V30 18 C 13.447824 2.997036 -18.758070 0
M  V30 19 F 14.325506 3.758679 -18.105787 0
M  V30 20 F 14.027789 1.832097 -19.049513 0
M  V30 21 F 13.124873 3.602104 -19.900124 0
M  V30 22 C 11.417289 3.944294 -17.575977 0
M  V30 23 C 10.256327 3.803693 -16.792309 0
M  V30 24 F 9.536099 4.904207 -16.469326 0
M  V30 25 C 9.534219 3.869562 -13.468015 0
M  V30 26 N 10.886426 9.372252 -7.992639 0
M  V30 27 N 11.105001 9.665660 -6.667080 0
M  V30 28 C 11.307718 8.497788 -6.039454 0
M  V30 29 C 11.684060 8.451950 -4.609599 0
M  V30 30 C 12.060463 7.278378 -3.910896 0
M  V30 31 C 12.449284 7.422631 -2.571409 0
M  V30 32 N 12.481555 8.620447 -1.965602 0
M  V30 33 C 12.085968 9.657813 -2.699776 0
M  V30 34 N 11.684545 9.636634 -3.963938 0
M  V30 35 H 10.938811 5.453469 -7.504310 0
M  V30 36 H 12.339629 5.763619 -6.473893 0
M  V30 37 H 10.675307 5.772412 -5.806717 0
M  V30 38 H 8.963378 8.572773 -9.879355 0
M  V30 39 H 10.141137 8.759446 -11.165863 0
M  V30 40 H 8.086356 6.571877 -10.747046 0
M  V30 41 H 8.247464 7.609686 -12.141971 0
M  V30 42 H 10.492623 6.329998 -12.591438 0
M  V30 43 H 10.002048 5.235960 -11.311784 0
M  V30 44 H 7.525734 4.284050 -11.627287 0
M  V30 45 H 6.778055 5.505283 -12.662913 0
M  V30 46 H 6.511991 2.807068 -13.171386 0
M  V30 47 H 6.591399 3.974232 -14.484669 0
M  V30 48 H 9.602678 1.088788 -13.928543 0
M  V30 49 H 7.782938 0.871280 -14.056107 0
M  V30 50 H 7.742049 2.296064 -16.113340 0
M  V30 51 H 10.350073 0.423564 -16.313564 0
M  V30 52 H 12.385339 0.669220 -17.681400 0
M  V30 53 H 11.713582 4.923913 -17.922544 0
M  V30 54 H 10.367994 4.079364 -14.134410 0
M  V30 55 H 9.930594 3.340234 -12.599276 0
M  V30 56 H 12.088364 6.292229 -4.332939 0
M  V30 57 H 12.754285 6.566777 -1.986731 0
M  V30 58 H 12.085793 10.631714 -2.245200 0
M  V30 59 H 8.727150 5.670959 -13.882113 0
M  V30 END ATOM
M  V30 BEGIN BOND
M  V30 1 1 2 1
M  V30 2 1 3 2
M  V30 3 1 4 3
M  V30 4 1 5 4
M  V30 5 1 6 5
M  V30 6 1 7 6
M  V30 7 1 8 7
M  V30 8 1 9 8
M  V30 9 1 10 9
M  V30 10 1 11 10 CFG=3
M  V30 11 1 12 11
M  V30 12 1 13 11
M  V30 13 1 13 12
M  V30 14 1 14 13
M  V30 15 1 15 14
M  V30 16 2 16 15
M  V30 17 1 17 16
M  V30 18 1 18 17
M  V30 19 1 19 18
M  V30 20 1 20 18
M  V30 21 1 21 18
M  V30 22 2 22 17
M  V30 23 2 23 14
M  V30 24 1 23 22
M  V30 25 1 24 23
M  V30 26 1 25 8
M  V30 27 1 25 11
M  V30 28 2 26 3
M  V30 29 1 27 26
M  V30 30 1 28 2
M  V30 31 2 28 27
M  V30 32 1 29 28
M  V30 33 1 30 29
M  V30 34 2 31 30
M  V30 35 1 32 31
M  V30 36 2 33 32
M  V30 37 2 34 29
M  V30 38 1 34 33
M  V30 39 1 35 1
M  V30 40 1 36 1
M  V30 41 1 37 1
M  V30 42 1 38 5
M  V30 43 1 39 5
M  V30 44 1 40 6
M  V30 45 1 41 6
M  V30 46 1 42 7
M  V30 47 1 43 7
M  V30 48 1 44 9
M  V30 49 1 45 9
M  V30 50 1 46 10
M  V30 51 1 47 10
M  V30 52 1 48 12
M  V30 53 1 49 12
M  V30 54 1 13 50 CFG=3
M  V30 55 1 51 15
M  V30 56 1 52 16
M  V30 57 1 53 22
M  V30 58 1 54 25
M  V30 59 1 55 25
M  V30 60 1 56 30
M  V30 61 1 57 31
M  V30 62 1 58 33
M  V30 63 1 8 59 CFG=3
M  V30 END BOND
M  V30 END CTAB
M  END
>  <b_m_subgroup_collapsed>  (1617) 
0

>  <r_i_docking_score>  (1617) 
-6.91902860027266

>  <s_m_subgroup_title>  (1617) 
glide-dock_SP_D22_pv

>  <s_m_subgroupid>  (1617) 
glide-dock_SP_D22_pv

>  <Molecule ChEMBL ID>  (1617) 
CHEMBL5830481

>  <Standard Type>  (1617) 
Ki

>  <Standard Value>  (1617) 
81.3

>  <label>  (1617) 
1

$$$$
CHEMBL160519
     RDKit          3D

  0  0  0  0  0  0  0  0  0  0999 V3000
M  V30 BEGIN CTAB
M  V30 COUNTS 44 45 0 0 1
M  V30 BEGIN ATOM
M  V30 1 C 9.552141 4.172645 -9.139845 0
M  V30 2 C 8.399084 4.924703 -9.812943 0
M  V30 3 C 8.807958 5.963278 -10.882522 0 CFG=2
M  V30 4 N 8.886024 7.319294 -10.292044 0 CHG=1
M  V30 5 C 9.933153 7.608956 -9.286546 0
M  V30 6 C 9.353749 7.600426 -7.860415 0
M  V30 7 C 10.570429 8.969857 -9.593429 0
M  V30 8 C 7.764393 5.980554 -12.043653 0 CFG=1
M  V30 9 O 7.686067 7.258268 -12.646875 0
M  V30 10 C 8.023191 4.877866 -13.077067 0
M  V30 11 C 9.185872 4.974881 -13.874149 0
M  V30 12 C 9.513651 3.984631 -14.816150 0
M  V30 13 C 8.693767 2.854505 -14.967438 0
M  V30 14 O 9.063417 1.891370 -15.864071 0
M  V30 15 C 7.526930 2.734688 -14.180806 0
M  V30 16 N 6.735994 1.549672 -14.246925 0
M  V30 17 C 5.686030 1.263080 -13.451553 0
M  V30 18 O 5.123689 0.172358 -13.503388 0
M  V30 19 C 5.286049 2.332229 -12.548057 0
M  V30 20 C 5.958897 3.494258 -12.461508 0
M  V30 21 C 7.171178 3.754389 -13.256649 0
M  V30 22 H 9.165915 3.485916 -8.385864 0
M  V30 23 H 10.086632 3.578026 -9.876965 0
M  V30 24 H 10.264388 4.829998 -8.646854 0
M  V30 25 H 7.770057 5.397692 -9.059376 0
M  V30 26 H 7.758273 4.172330 -10.270069 0
M  V30 27 H 9.792989 5.728627 -11.287776 0
M  V30 28 H 9.055307 7.921573 -11.084690 0
M  V30 29 H 10.726752 6.866620 -9.367179 0
M  V30 30 H 10.118888 7.857563 -7.127471 0
M  V30 31 H 8.541510 8.321576 -7.754192 0
M  V30 32 H 8.960842 6.625169 -7.577468 0
M  V30 33 H 11.369621 9.199313 -8.887564 0
M  V30 34 H 11.007404 8.984613 -10.592685 0
M  V30 35 H 9.835413 9.772293 -9.531862 0
M  V30 36 H 6.777274 5.872881 -11.604130 0
M  V30 37 H 7.097209 7.772307 -12.100625 0
M  V30 38 H 9.847945 5.819211 -13.759925 0
M  V30 39 H 10.410710 4.083746 -15.409935 0
M  V30 40 H 8.522897 1.119100 -15.868095 0
M  V30 41 H 7.012080 0.826684 -14.890688 0
M  V30 42 H 4.435186 2.172318 -11.913839 0
M  V30 43 H 5.593254 4.233582 -11.768942 0
M  V30 44 H 7.944802 7.563192 -9.955838 0
M  V30 END ATOM
M  V30 BEGIN BOND
M  V30 1 1 2 1
M  V30 2 1 3 2
M  V30 3 1 4 3
M  V30 4 1 5 4
M  V30 5 1 6 5
M  V30 6 1 7 5
M  V30 7 1 8 3
M  V30 8 1 9 8
M  V30 9 1 10 8
M  V30 10 1 11 10
M  V30 11 2 12 11
M  V30 12 1 13 12
M  V30 13 1 14 13
M  V30 14 2 15 13
M  V30 15 1 16 15
M  V30 16 1 17 16
M  V30 17 2 18 17
M  V30 18 1 19 17
M  V30 19 2 20 19
M  V30 20 2 21 10
M  V30 21 1 21 15
M  V30 22 1 21 20
M  V30 23 1 22 1
M  V30 24 1 23 1
M  V30 25 1 24 1
M  V30 26 1 25 2
M  V30 27 1 26 2
M  V30 28 1 3 27 CFG=3
M  V30 29 1 28 4
M  V30 30 1 29 5
M  V30 31 1 30 6
M  V30 32 1 31 6
M  V30 33 1 32 6
M  V30 34 1 33 7
M  V30 35 1 34 7
M  V30 36 1 35 7
M  V30 37 1 8 36 CFG=1
M  V30 38 1 37 9
M  V30 39 1 38 11
M  V30 40 1 39 12
M  V30 41 1 40 14
M  V30 42 1 41 16
M  V30 43 1 42 19
M  V30 44 1 43 20
M  V30 45 1 44 4
M  V30 END BOND
M  V30 END CTAB
M  END
>  <b_m_subgroup_collapsed>  (1618) 
0

>  <r_i_docking_score>  (1618) 
-6.91762390649727

>  <s_m_subgroup_title>  (1618) 
glide-dock_SP_D22_pv

>  <s_m_subgroupid>  (1618) 
glide-dock_SP_D22_pv

>  <Molecule ChEMBL ID>  (1618) 
CHEMBL160519

>  <Standard Type>  (1618) 
Ki

>  <Standard Value>  (1618) 
86000.0

>  <label>  (1618) 
0

$$$$
CHEMBL307800
     RDKit          3D

  0  0  0  0  0  0  0  0  0  0999 V3000
M  V30 BEGIN CTAB
M  V30 COUNTS 64 68 0 0 1
M  V30 BEGIN ATOM
M  V30 1 O 9.285710 3.392240 -16.012569 0
M  V30 2 C 9.144255 2.566904 -15.110087 0
M  V30 3 N 8.864771 2.912419 -13.846783 0
M  V30 4 C 8.527335 4.245995 -13.366421 0
M  V30 5 C 9.785556 5.085536 -13.098883 0
M  V30 6 C 9.542741 6.332283 -12.226979 0
M  V30 7 C 9.261820 5.972028 -10.748759 0
M  V30 8 N 9.291973 7.108752 -9.786603 0 CHG=1
M  V30 9 C 8.885346 6.634009 -8.435517 0
M  V30 10 C 8.887080 7.764917 -7.394018 0
M  V30 11 N 10.168431 8.455707 -7.414657 0
M  V30 12 C 10.819048 8.702094 -6.193578 0
M  V30 13 C 10.881753 9.998330 -5.660865 0
M  V30 14 C 11.282548 10.172319 -4.328108 0
M  V30 15 C 11.687930 9.107912 -3.527587 0
M  V30 16 C 11.745661 7.831733 -4.084317 0
M  V30 17 Cl 12.300499 6.572340 -3.052201 0
M  V30 18 C 11.349710 7.638480 -5.432332 0
M  V30 19 Cl 11.685114 6.172287 -6.248086 0
M  V30 20 C 10.643826 8.955800 -8.690093 0
M  V30 21 C 10.603865 7.827773 -9.743991 0
M  V30 22 C 9.241664 1.054698 -15.379878 0
M  V30 23 C 9.941974 0.731888 -16.695946 0
M  V30 24 C 11.288831 0.969743 -17.026297 0
M  V30 25 C 11.750402 0.563246 -18.296755 0
M  V30 26 C 10.874224 -0.064847 -19.213169 0
M  V30 27 C 9.524157 -0.297908 -18.870470 0
M  V30 28 C 9.074865 0.109350 -17.601732 0
M  V30 29 C 7.773427 -0.038144 -16.964828 0
M  V30 30 C 6.582439 -0.618852 -17.438519 0
M  V30 31 C 5.480207 -0.705785 -16.560371 0
M  V30 32 C 5.579683 -0.229381 -15.232260 0
M  V30 33 C 6.771739 0.373942 -14.772548 0
M  V30 34 C 7.860353 0.469719 -15.662088 0
M  V30 35 H 8.833357 2.166468 -13.164931 0
M  V30 36 H 7.868774 4.754816 -14.072068 0
M  V30 37 H 7.951373 4.111636 -12.451939 0
M  V30 38 H 10.548241 4.464265 -12.629391 0
M  V30 39 H 10.207096 5.392985 -14.056168 0
M  V30 40 H 10.442883 6.935943 -12.313484 0
M  V30 41 H 8.729266 6.932379 -12.637962 0
M  V30 42 H 8.276374 5.507667 -10.685361 0
M  V30 43 H 9.971684 5.215952 -10.412164 0
M  V30 44 H 7.900267 6.170956 -8.484653 0
M  V30 45 H 9.570326 5.847449 -8.114719 0
M  V30 46 H 8.096301 8.484529 -7.612405 0
M  V30 47 H 8.672234 7.361730 -6.404021 0
M  V30 48 H 10.525848 10.843206 -6.231002 0
M  V30 49 H 11.285625 11.139067 -3.881775 0
M  V30 50 H 11.982087 9.277791 -2.501903 0
M  V30 51 H 9.989829 9.765513 -9.009063 0
M  V30 52 H 11.651948 9.363025 -8.597830 0
M  V30 53 H 11.383552 7.095992 -9.525365 0
M  V30 54 H 10.840923 8.271011 -10.709096 0
M  V30 55 H 9.723691 0.528617 -14.554497 0
M  V30 56 H 11.957686 1.444073 -16.322735 0
M  V30 57 H 12.782072 0.732378 -18.569136 0
M  V30 58 H 11.241316 -0.371145 -20.181250 0
M  V30 59 H 8.854895 -0.786355 -19.563318 0
M  V30 60 H 6.517835 -1.013323 -18.441277 0
M  V30 61 H 4.560814 -1.161297 -16.900679 0
M  V30 62 H 4.730971 -0.317476 -14.570293 0
M  V30 63 H 6.845659 0.744963 -13.761239 0
M  V30 64 H 8.574577 7.765297 -10.073330 0
M  V30 END ATOM
M  V30 BEGIN BOND
M  V30 1 2 2 1
M  V30 2 1 3 2
M  V30 3 1 4 3
M  V30 4 1 5 4
M  V30 5 1 6 5
M  V30 6 1 7 6
M  V30 7 1 8 7
M  V30 8 1 9 8
M  V30 9 1 10 9
M  V30 10 1 11 10
M  V30 11 1 12 11
M  V30 12 2 13 12
M  V30 13 1 14 13
M  V30 14 2 15 14
M  V30 15 1 16 15
M  V30 16 1 17 16
M  V30 17 1 18 12
M  V30 18 2 18 16
M  V30 19 1 19 18
M  V30 20 1 20 11
M  V30 21 1 21 8
M  V30 22 1 21 20
M  V30 23 1 22 2
M  V30 24 1 23 22
M  V30 25 2 24 23
M  V30 26 1 25 24
M  V30 27 2 26 25
M  V30 28 1 27 26
M  V30 29 1 28 23
M  V30 30 2 28 27
M  V30 31 1 29 28
M  V30 32 2 30 29
M  V30 33 1 31 30
M  V30 34 2 32 31
M  V30 35 1 33 32
M  V30 36 1 34 22
M  V30 37 1 34 29
M  V30 38 2 34 33
M  V30 39 1 35 3
M  V30 40 1 36 4
M  V30 41 1 37 4
M  V30 42 1 38 5
M  V30 43 1 39 5
M  V30 44 1 40 6
M  V30 45 1 41 6
M  V30 46 1 42 7
M  V30 47 1 43 7
M  V30 48 1 44 9
M  V30 49 1 45 9
M  V30 50 1 46 10
M  V30 51 1 47 10
M  V30 52 1 48 13
M  V30 53 1 49 14
M  V30 54 1 50 15
M  V30 55 1 51 20
M  V30 56 1 52 20
M  V30 57 1 53 21
M  V30 58 1 54 21
M  V30 59 1 55 22
M  V30 60 1 56 24
M  V30 61 1 57 25
M  V30 62 1 58 26
M  V30 63 1 59 27
M  V30 64 1 60 30
M  V30 65 1 61 31
M  V30 66 1 62 32
M  V30 67 1 63 33
M  V30 68 1 64 8
M  V30 END BOND
M  V30 END CTAB
M  END
>  <b_m_subgroup_collapsed>  (1619) 
0

>  <r_i_docking_score>  (1619) 
-6.9173330022388102

>  <s_m_subgroup_title>  (1619) 
glide-dock_SP_D22_pv

>  <s_m_subgroupid>  (1619) 
glide-dock_SP_D22_pv

>  <Molecule ChEMBL ID>  (1619) 
CHEMBL307800

>  <Standard Type>  (1619) 
Ki

>  <Standard Value>  (1619) 
10.0

>  <label>  (1619) 
1

$$$$
CHEMBL5817624
     RDKit          3D

  0  0  0  0  0  0  0  0  0  0999 V3000
M  V30 BEGIN CTAB
M  V30 COUNTS 55 58 0 0 1
M  V30 BEGIN ATOM
M  V30 1 C 12.224099 7.102405 -2.830054 0
M  V30 2 C 11.712996 7.967562 -3.960858 0
M  V30 3 C 11.716509 9.373935 -3.858648 0
M  V30 4 C 11.283783 10.123960 -4.967619 0
M  V30 5 C 10.869210 9.448242 -6.126569 0
M  V30 6 C 10.884681 8.038176 -6.128332 0
M  V30 7 C 10.449198 7.217069 -7.333403 0 CFG=1
M  V30 8 C 9.023078 6.681155 -7.181789 0
M  V30 9 C 8.707436 5.705109 -8.325825 0
M  V30 10 N 8.878139 6.326044 -9.667824 0 CFG=2 CHG=1
M  V30 11 C 8.594141 5.344356 -10.748435 0
M  V30 12 C 8.237913 6.007116 -12.095707 0
M  V30 13 N 8.150463 5.013153 -13.162526 0
M  V30 14 C 9.221761 4.456374 -13.751801 0
M  V30 15 O 10.373327 4.749281 -13.428168 0
M  V30 16 C 8.956265 3.421812 -14.860646 0 CFG=1
M  V30 17 C 9.738216 3.711130 -16.155308 0
M  V30 18 C 10.615544 2.456057 -16.297955 0 CFG=2
M  V30 19 C 9.792171 1.230729 -16.716776 0
M  V30 20 C 9.005546 0.934606 -15.441252 0
M  V30 21 C 9.517442 2.032612 -14.498556 0 CFG=1
M  V30 22 O 10.860357 2.142645 -14.939210 0
M  V30 23 C 10.208462 6.968490 -9.830590 0
M  V30 24 C 10.540794 7.940816 -8.688666 0
M  V30 25 N 11.287716 7.313916 -5.061520 0
M  V30 26 H 12.193633 7.635095 -1.880787 0
M  V30 27 H 11.627840 6.194972 -2.733995 0
M  V30 28 H 13.256312 6.818276 -3.036540 0
M  V30 29 H 12.059925 9.868539 -2.961736 0
M  V30 30 H 11.272532 11.201985 -4.940495 0
M  V30 31 H 10.542365 10.013499 -6.984283 0
M  V30 32 H 11.131570 6.364472 -7.371596 0
M  V30 33 H 8.912698 6.172317 -6.225988 0
M  V30 34 H 8.308087 7.506109 -7.168505 0
M  V30 35 H 9.352379 4.827953 -8.248970 0
M  V30 36 H 7.685932 5.353203 -8.216268 0
M  V30 37 H 9.451023 4.675232 -10.852422 0
M  V30 38 H 7.753991 4.712642 -10.457051 0
M  V30 39 H 7.279830 6.520515 -12.013488 0
M  V30 40 H 8.962421 6.767717 -12.384875 0
M  V30 41 H 7.230610 4.734756 -13.469542 0
M  V30 42 H 7.882036 3.361951 -15.044510 0
M  V30 43 H 9.083369 3.848854 -17.015865 0
M  V30 44 H 10.363255 4.602232 -16.070444 0
M  V30 45 H 11.516947 2.609358 -16.892654 0
M  V30 46 H 9.151573 1.430960 -17.576023 0
M  V30 47 H 10.445561 0.394352 -16.966970 0
M  V30 48 H 9.259756 -0.054742 -15.058423 0
M  V30 49 H 7.924757 0.977995 -15.585229 0
M  V30 50 H 9.413143 1.774896 -13.446874 0
M  V30 51 H 10.956175 6.180537 -9.857987 0
M  V30 52 H 10.271935 7.501557 -10.778477 0
M  V30 53 H 9.852703 8.787502 -8.726701 0
M  V30 54 H 11.545358 8.342553 -8.830419 0
M  V30 55 H 8.158251 7.043383 -9.741440 0
M  V30 END ATOM
M  V30 BEGIN BOND
M  V30 1 1 2 1
M  V30 2 1 3 2
M  V30 3 2 4 3
M  V30 4 1 5 4
M  V30 5 2 6 5
M  V30 6 1 7 6
M  V30 7 1 8 7
M  V30 8 1 9 8
M  V30 9 1 10 9
M  V30 10 1 11 10
M  V30 11 1 12 11
M  V30 12 1 13 12
M  V30 13 1 14 13
M  V30 14 2 15 14
M  V30 15 1 16 14
M  V30 16 1 17 16
M  V30 17 1 18 17
M  V30 18 1 19 18
M  V30 19 1 20 19
M  V30 20 1 21 16
M  V30 21 1 21 20
M  V30 22 1 22 18
M  V30 23 1 22 21
M  V30 24 1 23 10
M  V30 25 1 24 7
M  V30 26 1 24 23
M  V30 27 2 25 2
M  V30 28 1 25 6
M  V30 29 1 26 1
M  V30 30 1 27 1
M  V30 31 1 28 1
M  V30 32 1 29 3
M  V30 33 1 30 4
M  V30 34 1 31 5
M  V30 35 1 7 32 CFG=3
M  V30 36 1 33 8
M  V30 37 1 34 8
M  V30 38 1 35 9
M  V30 39 1 36 9
M  V30 40 1 37 11
M  V30 41 1 38 11
M  V30 42 1 39 12
M  V30 43 1 40 12
M  V30 44 1 41 13
M  V30 45 1 16 42 CFG=3
M  V30 46 1 43 17
M  V30 47 1 44 17
M  V30 48 1 18 45 CFG=3
M  V30 49 1 46 19
M  V30 50 1 47 19
M  V30 51 1 48 20
M  V30 52 1 49 20
M  V30 53 1 21 50 CFG=1
M  V30 54 1 51 23
M  V30 55 1 52 23
M  V30 56 1 53 24
M  V30 57 1 54 24
M  V30 58 1 10 55 CFG=1
M  V30 END BOND
M  V30 END CTAB
M  END
>  <b_m_subgroup_collapsed>  (1620) 
0

>  <r_i_docking_score>  (1620) 
-6.9157096980200699

>  <s_m_subgroup_title>  (1620) 
glide-dock_SP_D22_pv

>  <s_m_subgroupid>  (1620) 
glide-dock_SP_D22_pv

>  <Molecule ChEMBL ID>  (1620) 
CHEMBL5817624

>  <Standard Type>  (1620) 
Ki

>  <Standard Value>  (1620) 
7.1

>  <label>  (1620) 
1

$$$$
CHEMBL141510
     RDKit          3D

  0  0  0  0  0  0  0  0  0  0999 V3000
M  V30 BEGIN CTAB
M  V30 COUNTS 46 47 0 0 1
M  V30 BEGIN ATOM
M  V30 1 C 8.730075 4.926690 -12.450071 0
M  V30 2 C 9.508052 5.304028 -11.185204 0
M  V30 3 C 8.709580 6.246205 -10.267469 0
M  V30 4 C 9.322327 6.503617 -8.872549 0
M  V30 5 N 10.227742 7.692226 -8.770423 0 CFG=2 CHG=1
M  V30 6 C 11.490871 7.549718 -9.547043 0
M  V30 7 C 11.461053 8.299921 -10.885399 0
M  V30 8 C 12.588359 7.828125 -11.818896 0
M  V30 9 C 10.422439 8.128636 -7.349021 0 CFG=2
M  V30 10 C 11.269715 9.406115 -7.172213 0
M  V30 11 C 11.105333 9.948008 -5.748448 0
M  V30 12 C 11.409590 8.888422 -4.708039 0
M  V30 13 C 11.737064 9.276448 -3.393236 0
M  V30 14 F 11.686097 10.572310 -3.046778 0
M  V30 15 C 12.086205 8.325421 -2.419379 0
M  V30 16 C 12.068373 6.963190 -2.749301 0
M  V30 17 C 11.686119 6.572453 -4.044546 0
M  V30 18 C 11.353371 7.513896 -5.033122 0
M  V30 19 C 10.975571 7.019368 -6.424469 0
M  V30 20 H 9.316962 4.260046 -13.082581 0
M  V30 21 H 7.799214 4.413620 -12.202964 0
M  V30 22 H 8.480378 5.811205 -13.037399 0
M  V30 23 H 10.445065 5.766229 -11.490588 0
M  V30 24 H 9.764958 4.391425 -10.644707 0
M  V30 25 H 7.738536 5.773723 -10.105411 0
M  V30 26 H 8.486089 7.185036 -10.774074 0
M  V30 27 H 9.821296 5.602406 -8.513080 0
M  V30 28 H 8.485385 6.670500 -8.192263 0
M  V30 29 H 12.369606 7.869546 -8.991523 0
M  V30 30 H 11.675178 6.504125 -9.734175 0
M  V30 31 H 10.507436 8.153023 -11.391172 0
M  V30 32 H 11.547973 9.370598 -10.693653 0
M  V30 33 H 12.481855 8.172387 -12.844512 0
M  V30 34 H 13.558613 8.172341 -11.457946 0
M  V30 35 H 12.604480 6.743967 -11.895104 0
M  V30 36 H 9.423259 8.379885 -6.985869 0
M  V30 37 H 12.328427 9.191418 -7.317575 0
M  V30 38 H 11.029929 10.170304 -7.900342 0
M  V30 39 H 10.086236 10.285502 -5.569928 0
M  V30 40 H 11.754962 10.811544 -5.606873 0
M  V30 41 H 12.340379 8.643632 -1.418755 0
M  V30 42 H 12.319731 6.216323 -2.009215 0
M  V30 43 H 11.655962 5.527425 -4.290601 0
M  V30 44 H 11.864814 6.566418 -6.865341 0
M  V30 45 H 10.243979 6.218991 -6.307244 0
M  V30 46 H 9.719383 8.448836 -9.207412 0
M  V30 END ATOM
M  V30 BEGIN BOND
M  V30 1 1 2 1
M  V30 2 1 3 2
M  V30 3 1 4 3
M  V30 4 1 5 4
M  V30 5 1 6 5
M  V30 6 1 7 6
M  V30 7 1 8 7
M  V30 8 1 9 5
M  V30 9 1 10 9
M  V30 10 1 11 10
M  V30 11 1 12 11
M  V30 12 2 13 12
M  V30 13 1 14 13
M  V30 14 1 15 13
M  V30 15 2 16 15
M  V30 16 1 17 16
M  V30 17 1 18 12
M  V30 18 2 18 17
M  V30 19 1 19 9
M  V30 20 1 19 18
M  V30 21 1 20 1
M  V30 22 1 21 1
M  V30 23 1 22 1
M  V30 24 1 23 2
M  V30 25 1 24 2
M  V30 26 1 25 3
M  V30 27 1 26 3
M  V30 28 1 27 4
M  V30 29 1 28 4
M  V30 30 1 29 6
M  V30 31 1 30 6
M  V30 32 1 31 7
M  V30 33 1 32 7
M  V30 34 1 33 8
M  V30 35 1 34 8
M  V30 36 1 35 8
M  V30 37 1 9 36 CFG=1
M  V30 38 1 37 10
M  V30 39 1 38 10
M  V30 40 1 39 11
M  V30 41 1 40 11
M  V30 42 1 41 15
M  V30 43 1 42 16
M  V30 44 1 43 17
M  V30 45 1 44 19
M  V30 46 1 45 19
M  V30 47 1 5 46 CFG=3
M  V30 END BOND
M  V30 END CTAB
M  END
>  <b_m_subgroup_collapsed>  (1621) 
0

>  <r_i_docking_score>  (1621) 
-6.9147007490200298

>  <s_m_subgroup_title>  (1621) 
glide-dock_SP_D22_pv

>  <s_m_subgroupid>  (1621) 
glide-dock_SP_D22_pv

>  <Molecule ChEMBL ID>  (1621) 
CHEMBL141510

>  <Standard Type>  (1621) 
Ki

>  <Standard Value>  (1621) 
45.6

>  <label>  (1621) 
1

$$$$
CHEMBL316983
     RDKit          3D

  0  0  0  0  0  0  0  0  0  0999 V3000
M  V30 BEGIN CTAB
M  V30 COUNTS 43 44 0 0 1
M  V30 BEGIN ATOM
M  V30 1 C 8.240127 8.956709 -12.111802 0
M  V30 2 C 8.961435 7.859171 -11.316608 0
M  V30 3 C 9.285760 8.229857 -9.841735 0
M  V30 4 N 9.660990 7.076316 -8.963283 0 CHG=1
M  V30 5 C 8.674189 5.948243 -8.972067 0
M  V30 6 C 9.285036 4.631163 -9.482677 0
M  V30 7 C 9.393682 4.545505 -11.011685 0
M  V30 8 C 10.024261 7.434878 -7.546351 0 CFG=1
M  V30 9 C 10.979339 6.383757 -6.946469 0
M  V30 10 C 11.202468 6.565794 -5.438859 0
M  V30 11 N 11.352978 7.955380 -5.053556 0
M  V30 12 C 11.725471 8.449078 -3.803538 0
M  V30 13 C 12.086054 7.635764 -2.646083 0
M  V30 14 O 12.201624 6.415486 -2.653456 0
M  V30 15 C 11.673943 9.803703 -3.866685 0
M  V30 16 C 11.286122 10.172389 -5.182988 0
M  V30 17 C 11.084465 9.028237 -5.898597 0
M  V30 18 C 10.660213 8.824602 -7.324899 0
M  V30 19 H 7.846347 8.552348 -13.045464 0
M  V30 20 H 8.894206 9.772952 -12.379263 0
M  V30 21 H 7.397112 9.372587 -11.559669 0
M  V30 22 H 8.302128 6.998610 -11.378440 0
M  V30 23 H 9.874642 7.575064 -11.839120 0
M  V30 24 H 10.108611 8.942602 -9.877645 0
M  V30 25 H 8.462086 8.764495 -9.380952 0
M  V30 26 H 8.300548 5.755442 -7.965983 0
M  V30 27 H 7.761648 6.172554 -9.518460 0
M  V30 28 H 10.266233 4.448714 -9.047091 0
M  V30 29 H 8.655165 3.822067 -9.111698 0
M  V30 30 H 9.773185 3.574301 -11.328038 0
M  V30 31 H 10.080606 5.291655 -11.406665 0
M  V30 32 H 8.421649 4.678846 -11.487852 0
M  V30 33 H 9.104187 7.449141 -6.958377 0
M  V30 34 H 10.625970 5.372694 -7.121323 0
M  V30 35 H 11.944218 6.462337 -7.446872 0
M  V30 36 H 10.350764 6.172123 -4.885004 0
M  V30 37 H 12.084506 6.001678 -5.135515 0
M  V30 38 H 12.256281 8.218224 -1.739191 0
M  V30 39 H 11.900581 10.472302 -3.047312 0
M  V30 40 H 11.163277 11.174850 -5.560852 0
M  V30 41 H 11.529721 8.954123 -7.970768 0
M  V30 42 H 9.947737 9.606442 -7.585854 0
M  V30 43 H 10.501312 6.705940 -9.381351 0
M  V30 END ATOM
M  V30 BEGIN BOND
M  V30 1 1 2 1
M  V30 2 1 3 2
M  V30 3 1 4 3
M  V30 4 1 5 4
M  V30 5 1 6 5
M  V30 6 1 7 6
M  V30 7 1 8 4
M  V30 8 1 9 8
M  V30 9 1 10 9
M  V30 10 1 11 10
M  V30 11 1 12 11
M  V30 12 1 13 12
M  V30 13 2 14 13
M  V30 14 2 15 12
M  V30 15 1 16 15
M  V30 16 1 17 11
M  V30 17 2 17 16
M  V30 18 1 18 8
M  V30 19 1 18 17
M  V30 20 1 19 1
M  V30 21 1 20 1
M  V30 22 1 21 1
M  V30 23 1 22 2
M  V30 24 1 23 2
M  V30 25 1 24 3
M  V30 26 1 25 3
M  V30 27 1 26 5
M  V30 28 1 27 5
M  V30 29 1 28 6
M  V30 30 1 29 6
M  V30 31 1 30 7
M  V30 32 1 31 7
M  V30 33 1 32 7
M  V30 34 1 8 33 CFG=1
M  V30 35 1 34 9
M  V30 36 1 35 9
M  V30 37 1 36 10
M  V30 38 1 37 10
M  V30 39 1 38 13
M  V30 40 1 39 15
M  V30 41 1 40 16
M  V30 42 1 41 18
M  V30 43 1 42 18
M  V30 44 1 43 4
M  V30 END BOND
M  V30 END CTAB
M  END
>  <b_m_subgroup_collapsed>  (1622) 
0

>  <r_i_docking_score>  (1622) 
-6.9130473183148897

>  <s_m_subgroup_title>  (1622) 
glide-dock_SP_D22_pv

>  <s_m_subgroupid>  (1622) 
glide-dock_SP_D22_pv

>  <Molecule ChEMBL ID>  (1622) 
CHEMBL316983

>  <Standard Type>  (1622) 
Ki

>  <Standard Value>  (1622) 
41.0

>  <label>  (1622) 
1

$$$$
CHEMBL5415557
     RDKit          3D

  0  0  0  0  0  0  0  0  0  0999 V3000
M  V30 BEGIN CTAB
M  V30 COUNTS 56 59 0 0 1
M  V30 BEGIN ATOM
M  V30 1 F 11.271118 3.044408 -13.846974 0
M  V30 2 C 10.195759 3.810555 -13.549219 0
M  V30 3 C 9.585111 4.589229 -14.546219 0
M  V30 4 N 8.507117 5.363376 -14.312023 0
M  V30 5 C 7.989779 5.386699 -13.074161 0
M  V30 6 C 8.532903 4.665482 -11.997582 0
M  V30 7 C 7.843534 4.749465 -10.649509 0
M  V30 8 N 8.485991 5.625652 -9.656803 0 CHG=1
M  V30 9 C 9.792670 5.188482 -9.153498 0
M  V30 10 C 10.309259 6.107887 -8.032268 0
M  V30 11 C 10.441928 7.642072 -8.338233 0 CFG=1
M  V30 12 C 10.662284 7.873994 -9.839655 0
M  V30 13 C 9.574296 8.175462 -10.691112 0
M  V30 14 C 9.684900 7.882934 -12.049636 0
M  V30 15 C 10.899457 7.372334 -12.536044 0
M  V30 16 C 11.988834 7.372330 -11.662478 0
M  V30 17 N 11.872828 7.533961 -10.329380 0
M  V30 18 C 9.158338 8.373492 -7.912806 0
M  V30 19 C 8.990794 8.438100 -6.420116 0
M  V30 20 O 10.088676 9.124809 -5.846857 0
M  V30 21 C 11.326817 8.450103 -6.005711 0
M  V30 22 C 12.386835 9.372152 -5.367569 0
M  V30 23 C 12.802190 8.711976 -4.053441 0
M  V30 24 C 11.711063 7.720584 -3.725434 0
M  V30 25 C 11.342051 7.184857 -5.105411 0
M  V30 26 C 11.597141 8.269712 -7.522957 0
M  V30 27 C 9.657660 3.848676 -12.247421 0
M  V30 28 H 9.969428 4.591887 -15.555192 0
M  V30 29 H 7.121713 6.015738 -12.941018 0
M  V30 30 H 7.638610 3.772327 -10.226550 0
M  V30 31 H 6.885986 5.214981 -10.852126 0
M  V30 32 H 7.846313 5.712086 -8.877859 0
M  V30 33 H 10.485896 5.181131 -9.985274 0
M  V30 34 H 9.720144 4.162391 -8.789584 0
M  V30 35 H 11.288040 5.721089 -7.769762 0
M  V30 36 H 9.713021 5.921473 -7.143602 0
M  V30 37 H 8.607890 8.507051 -10.342873 0
M  V30 38 H 8.818756 8.017711 -12.674550 0
M  V30 39 H 11.039328 7.102384 -13.569683 0
M  V30 40 H 12.939010 7.074490 -12.052855 0
M  V30 41 H 9.164140 9.398369 -8.284859 0
M  V30 42 H 8.274917 7.892919 -8.316232 0
M  V30 43 H 8.086138 8.974908 -6.240578 0
M  V30 44 H 8.817959 7.462006 -5.986822 0
M  V30 45 H 13.267068 9.487210 -6.000730 0
M  V30 46 H 11.981178 10.369958 -5.199382 0
M  V30 47 H 13.685892 8.115558 -4.246868 0
M  V30 48 H 13.004869 9.421415 -3.249884 0
M  V30 49 H 12.034440 6.939392 -3.036335 0
M  V30 50 H 10.888023 8.270599 -3.271036 0
M  V30 51 H 10.425354 6.605119 -5.053640 0
M  V30 52 H 12.101674 6.485672 -5.447198 0
M  V30 53 H 12.509936 7.704599 -7.686415 0
M  V30 54 H 11.790314 9.261511 -7.936077 0
M  V30 55 H 10.086076 3.250304 -11.458135 0
M  V30 56 H 8.577413 6.547554 -10.067444 0
M  V30 END ATOM
M  V30 BEGIN BOND
M  V30 1 1 2 1
M  V30 2 1 3 2
M  V30 3 2 4 3
M  V30 4 1 5 4
M  V30 5 2 6 5
M  V30 6 1 7 6
M  V30 7 1 8 7
M  V30 8 1 9 8
M  V30 9 1 10 9
M  V30 10 1 11 10 CFG=3
M  V30 11 1 12 11
M  V30 12 2 13 12
M  V30 13 1 14 13
M  V30 14 2 15 14
M  V30 15 1 16 15
M  V30 16 1 17 12
M  V30 17 2 17 16
M  V30 18 1 18 11
M  V30 19 1 19 18
M  V30 20 1 20 19
M  V30 21 1 21 20
M  V30 22 1 22 21
M  V30 23 1 23 22
M  V30 24 1 24 23
M  V30 25 1 25 21
M  V30 26 1 25 24
M  V30 27 1 26 11
M  V30 28 1 26 21
M  V30 29 2 27 2
M  V30 30 1 27 6
M  V30 31 1 28 3
M  V30 32 1 29 5
M  V30 33 1 30 7
M  V30 34 1 31 7
M  V30 35 1 32 8
M  V30 36 1 33 9
M  V30 37 1 34 9
M  V30 38 1 35 10
M  V30 39 1 36 10
M  V30 40 1 37 13
M  V30 41 1 38 14
M  V30 42 1 39 15
M  V30 43 1 40 16
M  V30 44 1 41 18
M  V30 45 1 42 18
M  V30 46 1 43 19
M  V30 47 1 44 19
M  V30 48 1 45 22
M  V30 49 1 46 22
M  V30 50 1 47 23
M  V30 51 1 48 23
M  V30 52 1 49 24
M  V30 53 1 50 24
M  V30 54 1 51 25
M  V30 55 1 52 25
M  V30 56 1 53 26
M  V30 57 1 54 26
M  V30 58 1 55 27
M  V30 59 1 56 8
M  V30 END BOND
M  V30 END CTAB
M  END
>  <b_m_subgroup_collapsed>  (1623) 
0

>  <r_i_docking_score>  (1623) 
-6.91246769430792

>  <s_m_subgroup_title>  (1623) 
glide-dock_SP_D22_pv

>  <s_m_subgroupid>  (1623) 
glide-dock_SP_D22_pv

>  <Molecule ChEMBL ID>  (1623) 
CHEMBL5415557

>  <Standard Type>  (1623) 
Ki

>  <Standard Value>  (1623) 
100000.0

>  <label>  (1623) 
0

$$$$
CHEMBL5773648
     RDKit          3D

  0  0  0  0  0  0  0  0  0  0999 V3000
M  V30 BEGIN CTAB
M  V30 COUNTS 60 63 0 0 1
M  V30 BEGIN ATOM
M  V30 1 C 8.747114 5.239511 -8.620953 0
M  V30 2 N 9.284489 6.295609 -9.468733 0
M  V30 3 C 9.108990 6.462614 -10.795513 0
M  V30 4 S 8.148000 5.360306 -11.783974 0
M  V30 5 C 9.473381 4.266962 -12.369723 0
M  V30 6 C 10.311610 4.931944 -13.470420 0
M  V30 7 C 11.220498 3.931942 -14.212921 0
M  V30 8 N 11.964202 4.461429 -15.357132 0
M  V30 9 C 13.005564 5.412050 -14.995829 0
M  V30 10 C 13.804749 5.850999 -16.233875 0
M  V30 11 O 12.922071 6.394052 -17.211277 0
M  V30 12 C 11.901469 5.487456 -17.641685 0 CFG=2
M  V30 13 C 10.985139 6.126127 -18.684589 0
M  V30 14 C 11.316151 7.364494 -19.279938 0
M  V30 15 C 10.437046 7.977752 -20.195810 0
M  V30 16 C 9.205977 7.367285 -20.518272 0
M  V30 17 C 8.214424 8.052547 -21.444809 0
M  V30 18 F 8.362741 7.589603 -22.685974 0
M  V30 19 F 6.965534 7.810458 -21.042139 0
M  V30 20 F 8.399110 9.372728 -21.449821 0
M  V30 21 C 8.896229 6.107273 -19.963804 0
M  V30 22 C 9.780572 5.487973 -19.062445 0
M  V30 23 C 11.107183 5.022727 -16.396400 0
M  V30 24 N 9.720565 7.539366 -11.287045 0
M  V30 25 N 10.328060 8.133231 -10.208500 0
M  V30 26 C 10.051125 7.371007 -9.138361 0
M  V30 27 C 10.558928 7.722555 -7.796546 0
M  V30 28 C 11.178355 8.972786 -7.559729 0
M  V30 29 C 11.660835 9.278339 -6.270150 0
M  V30 30 C 11.509910 8.322662 -5.243237 0
M  V30 31 C 12.057537 8.532451 -3.861098 0
M  V30 32 N 12.007722 9.771683 -3.379340 0
M  V30 33 O 12.486348 7.595128 -3.197288 0
M  V30 34 C 10.887663 7.102895 -5.574523 0
M  V30 35 N 10.421028 6.813624 -6.804732 0
M  V30 36 H 8.086710 4.575156 -9.175730 0
M  V30 37 H 9.565875 4.644135 -8.222526 0
M  V30 38 H 8.176111 5.677118 -7.801381 0
M  V30 39 H 10.086536 3.949780 -11.526184 0
M  V30 40 H 8.999162 3.370109 -12.768402 0
M  V30 41 H 9.619757 5.388937 -14.177278 0
M  V30 42 H 10.906263 5.740177 -13.044288 0
M  V30 43 H 11.929662 3.509622 -13.500635 0
M  V30 44 H 10.608469 3.093319 -14.552061 0
M  V30 45 H 12.563766 6.290774 -14.526469 0
M  V30 46 H 13.682751 4.968371 -14.262573 0
M  V30 47 H 14.541828 6.605310 -15.958175 0
M  V30 48 H 14.357476 5.009237 -16.655066 0
M  V30 49 H 12.377213 4.625612 -18.115021 0
M  V30 50 H 12.239465 7.865991 -19.027061 0
M  V30 51 H 10.706259 8.930365 -20.629152 0
M  V30 52 H 7.966532 5.620643 -20.223003 0
M  V30 53 H 9.514641 4.525544 -18.648451 0
M  V30 54 H 10.361528 4.282024 -16.684822 0
M  V30 55 H 10.559622 5.880540 -16.006659 0
M  V30 56 H 11.282628 9.693586 -8.357435 0
M  V30 57 H 12.154437 10.223098 -6.094341 0
M  V30 58 H 11.599310 10.522190 -3.918766 0
M  V30 59 H 12.370988 9.955017 -2.452706 0
M  V30 60 H 10.765442 6.326368 -4.833516 0
M  V30 END ATOM
M  V30 BEGIN BOND
M  V30 1 1 2 1
M  V30 2 1 3 2
M  V30 3 1 4 3
M  V30 4 1 5 4
M  V30 5 1 6 5
M  V30 6 1 7 6
M  V30 7 1 8 7
M  V30 8 1 9 8
M  V30 9 1 10 9
M  V30 10 1 11 10
M  V30 11 1 12 11
M  V30 12 1 13 12
M  V30 13 1 14 13
M  V30 14 2 15 14
M  V30 15 1 16 15
M  V30 16 1 17 16
M  V30 17 1 18 17
M  V30 18 1 19 17
M  V30 19 1 20 17
M  V30 20 2 21 16
M  V30 21 2 22 13
M  V30 22 1 22 21
M  V30 23 1 23 8
M  V30 24 1 23 12
M  V30 25 2 24 3
M  V30 26 1 25 24
M  V30 27 1 26 2
M  V30 28 2 26 25
M  V30 29 1 27 26
M  V30 30 1 28 27
M  V30 31 2 29 28
M  V30 32 1 30 29
M  V30 33 1 31 30
M  V30 34 1 32 31
M  V30 35 2 33 31
M  V30 36 2 34 30
M  V30 37 2 35 27
M  V30 38 1 35 34
M  V30 39 1 36 1
M  V30 40 1 37 1
M  V30 41 1 38 1
M  V30 42 1 39 5
M  V30 43 1 40 5
M  V30 44 1 41 6
M  V30 45 1 42 6
M  V30 46 1 43 7
M  V30 47 1 44 7
M  V30 48 1 45 9
M  V30 49 1 46 9
M  V30 50 1 47 10
M  V30 51 1 48 10
M  V30 52 1 12 49 CFG=3
M  V30 53 1 50 14
M  V30 54 1 51 15
M  V30 55 1 52 21
M  V30 56 1 53 22
M  V30 57 1 54 23
M  V30 58 1 55 23
M  V30 59 1 56 28
M  V30 60 1 57 29
M  V30 61 1 58 32
M  V30 62 1 59 32
M  V30 63 1 60 34
M  V30 END BOND
M  V30 END CTAB
M  END
>  <b_m_subgroup_collapsed>  (1624) 
0

>  <r_i_docking_score>  (1624) 
-6.9116431116741399

>  <s_m_subgroup_title>  (1624) 
glide-dock_SP_D22_pv

>  <s_m_subgroupid>  (1624) 
glide-dock_SP_D22_pv

>  <Molecule ChEMBL ID>  (1624) 
CHEMBL5773648

>  <Standard Type>  (1624) 
Ki

>  <Standard Value>  (1624) 
16218.0

>  <label>  (1624) 
0

$$$$
CHEMBL109532
     RDKit          3D

  0  0  0  0  0  0  0  0  0  0999 V3000
M  V30 BEGIN CTAB
M  V30 COUNTS 61 63 0 0 1
M  V30 BEGIN ATOM
M  V30 1 C 12.247350 8.815979 -10.549648 0
M  V30 2 C 11.855303 7.994257 -9.323766 0
M  V30 3 N 10.423682 8.088754 -8.929755 0 CFG=1 CHG=1
M  V30 4 C 9.476802 7.944928 -10.075364 0
M  V30 5 C 9.512137 6.642685 -10.830032 0
M  V30 6 C 8.884841 5.443555 -10.624137 0
M  V30 7 C 9.221252 4.572920 -11.700231 0
M  V30 8 C 10.056452 5.231955 -12.555636 0
M  V30 9 C 10.715983 4.789310 -13.793678 0
M  V30 10 C 10.407190 3.492133 -14.267609 0
M  V30 11 C 10.971390 2.993957 -15.452428 0
M  V30 12 S 10.495492 1.370292 -16.051079 0
M  V30 13 O 11.490334 0.945264 -17.047430 0
M  V30 14 O 10.224788 0.519723 -14.881380 0
M  V30 15 C 8.905974 1.649312 -16.941677 0
M  V30 16 C 7.758310 2.003224 -15.986427 0
M  V30 17 C 11.864138 3.785245 -16.191431 0
M  V30 18 C 12.204824 5.067796 -15.722808 0
M  V30 19 C 11.645383 5.585732 -14.523681 0
M  V30 20 O 11.973073 6.837099 -14.035605 0
M  V30 21 C 12.884071 7.639562 -14.772269 0
M  V30 22 N 10.196371 6.500072 -12.026064 0
M  V30 23 C 10.118149 7.283028 -7.696371 0 CFG=2
M  V30 24 C 8.623784 7.123856 -7.372462 0
M  V30 25 C 10.773978 7.873786 -6.449389 0
M  V30 26 C 10.779554 9.269618 -6.227283 0
M  V30 27 C 11.296361 9.798134 -5.030014 0
M  V30 28 C 11.812584 8.940089 -4.040553 0
M  V30 29 C 11.801496 7.547303 -4.247784 0
M  V30 30 C 11.285936 7.017786 -5.448851 0
M  V30 31 H 13.298418 8.640095 -10.776809 0
M  V30 32 H 11.710608 8.540906 -11.446861 0
M  V30 33 H 12.085902 9.876728 -10.382196 0
M  V30 34 H 12.496533 8.278896 -8.487743 0
M  V30 35 H 12.086031 6.971722 -9.561862 0
M  V30 36 H 8.486062 8.134446 -9.703156 0
M  V30 37 H 9.622542 8.770478 -10.770945 0
M  V30 38 H 8.224732 5.206683 -9.804432 0
M  V30 39 H 8.884192 3.557985 -11.838164 0
M  V30 40 H 9.719629 2.858422 -13.728286 0
M  V30 41 H 9.064940 2.432972 -17.682486 0
M  V30 42 H 8.673642 0.727777 -17.476736 0
M  V30 43 H 6.822023 2.122978 -16.532642 0
M  V30 44 H 7.609355 1.218230 -15.243636 0
M  V30 45 H 7.949579 2.934520 -15.454994 0
M  V30 46 H 12.296126 3.409852 -17.107182 0
M  V30 47 H 12.905418 5.636319 -16.314648 0
M  V30 48 H 13.064837 8.568596 -14.230943 0
M  V30 49 H 13.843654 7.138063 -14.898230 0
M  V30 50 H 12.482793 7.900451 -15.753261 0
M  V30 51 H 10.749927 7.215293 -12.478945 0
M  V30 52 H 10.519732 6.279824 -7.855336 0
M  V30 53 H 8.486638 6.556961 -6.451419 0
M  V30 54 H 8.134114 8.088225 -7.232912 0
M  V30 55 H 8.086452 6.572059 -8.138834 0
M  V30 56 H 10.366102 9.945352 -6.958619 0
M  V30 57 H 11.285995 10.866634 -4.869384 0
M  V30 58 H 12.205633 9.347326 -3.119348 0
M  V30 59 H 12.185754 6.883591 -3.486362 0
M  V30 60 H 11.268403 5.946520 -5.586504 0
M  V30 61 H 10.286567 9.042806 -8.634754 0
M  V30 END ATOM
M  V30 BEGIN BOND
M  V30 1 1 2 1
M  V30 2 1 3 2
M  V30 3 1 4 3
M  V30 4 1 5 4
M  V30 5 2 6 5
M  V30 6 1 7 6
M  V30 7 2 8 7
M  V30 8 1 9 8
M  V30 9 1 10 9
M  V30 10 2 11 10
M  V30 11 1 12 11
M  V30 12 2 13 12
M  V30 13 2 14 12
M  V30 14 1 15 12
M  V30 15 1 16 15
M  V30 16 1 17 11
M  V30 17 2 18 17
M  V30 18 2 19 9
M  V30 19 1 19 18
M  V30 20 1 20 19
M  V30 21 1 21 20
M  V30 22 1 22 5
M  V30 23 1 22 8
M  V30 24 1 23 3
M  V30 25 1 24 23
M  V30 26 1 25 23
M  V30 27 2 26 25
M  V30 28 1 27 26
M  V30 29 2 28 27
M  V30 30 1 29 28
M  V30 31 1 30 25
M  V30 32 2 30 29
M  V30 33 1 31 1
M  V30 34 1 32 1
M  V30 35 1 33 1
M  V30 36 1 34 2
M  V30 37 1 35 2
M  V30 38 1 36 4
M  V30 39 1 37 4
M  V30 40 1 38 6
M  V30 41 1 39 7
M  V30 42 1 40 10
M  V30 43 1 41 15
M  V30 44 1 42 15
M  V30 45 1 43 16
M  V30 46 1 44 16
M  V30 47 1 45 16
M  V30 48 1 46 17
M  V30 49 1 47 18
M  V30 50 1 48 21
M  V30 51 1 49 21
M  V30 52 1 50 21
M  V30 53 1 51 22
M  V30 54 1 23 52 CFG=3
M  V30 55 1 53 24
M  V30 56 1 54 24
M  V30 57 1 55 24
M  V30 58 1 56 26
M  V30 59 1 57 27
M  V30 60 1 58 28
M  V30 61 1 59 29
M  V30 62 1 60 30
M  V30 63 1 3 61 CFG=1
M  V30 END BOND
M  V30 END CTAB
M  END
>  <b_m_subgroup_collapsed>  (1625) 
0

>  <r_i_docking_score>  (1625) 
-6.9115862621326096

>  <s_m_subgroup_title>  (1625) 
glide-dock_SP_D22_pv

>  <s_m_subgroupid>  (1625) 
glide-dock_SP_D22_pv

>  <Molecule ChEMBL ID>  (1625) 
CHEMBL109532

>  <Standard Type>  (1625) 
Ki

>  <Standard Value>  (1625) 
7.943

>  <label>  (1625) 
1

$$$$
CHEMBL4464861
     RDKit          3D

  0  0  0  0  0  0  0  0  0  0999 V3000
M  V30 BEGIN CTAB
M  V30 COUNTS 50 52 0 0 1
M  V30 BEGIN ATOM
M  V30 1 C 5.333816 2.613449 -13.122145 0
M  V30 2 C 6.603693 3.389664 -13.367640 0
M  V30 3 C 7.585203 2.887602 -14.246332 0
M  V30 4 C 8.777252 3.605134 -14.447403 0
M  V30 5 C 8.983017 4.826392 -13.780558 0
M  V30 6 C 8.006229 5.329120 -12.883776 0
M  V30 7 N 8.138121 6.566227 -12.200149 0
M  V30 8 C 9.267760 7.241045 -11.939830 0
M  V30 9 O 10.402281 6.786160 -12.090211 0
M  V30 10 C 9.107707 8.653937 -11.380825 0
M  V30 11 C 10.083625 8.898504 -10.221735 0
M  V30 12 N 9.824208 7.964164 -9.105184 0 CFG=2 CHG=1
M  V30 13 C 9.031716 8.609632 -8.034948 0
M  V30 14 C 8.743310 7.638551 -6.892405 0
M  V30 15 C 9.997416 6.929647 -6.351837 0 CFG=2
M  V30 16 C 10.899408 7.763277 -5.460443 0
M  V30 17 C 11.438630 7.222715 -4.274520 0
M  V30 18 C 12.225992 8.053231 -3.455189 0
M  V30 19 C 12.486529 9.368407 -3.883480 0
M  V30 20 C 11.976254 9.772455 -5.127071 0
M  V30 21 N 11.198545 9.000527 -5.897237 0
M  V30 22 C 10.756270 6.275263 -7.515202 0
M  V30 23 C 11.061578 7.296569 -8.624112 0
M  V30 24 C 6.814517 4.605090 -12.687901 0
M  V30 25 H 5.303680 2.243442 -12.095411 0
M  V30 26 H 4.488949 3.281657 -13.272676 0
M  V30 27 H 5.238570 1.768140 -13.806080 0
M  V30 28 H 7.432343 1.950412 -14.763066 0
M  V30 29 H 9.530161 3.227036 -15.122746 0
M  V30 30 H 9.894316 5.366556 -13.985812 0
M  V30 31 H 7.288070 6.968552 -11.813355 0
M  V30 32 H 8.086123 8.849536 -11.061994 0
M  V30 33 H 9.286474 9.358231 -12.193514 0
M  V30 34 H 9.997808 9.914891 -9.846449 0
M  V30 35 H 11.109889 8.810034 -10.585224 0
M  V30 36 H 8.090577 8.972444 -8.445887 0
M  V30 37 H 9.544370 9.495879 -7.670644 0
M  V30 38 H 8.086638 6.858516 -7.270008 0
M  V30 39 H 8.189587 8.170234 -6.127123 0
M  V30 40 H 9.611880 6.171019 -5.684278 0
M  V30 41 H 11.219134 6.207572 -3.970122 0
M  V30 42 H 12.628819 7.684850 -2.523550 0
M  V30 43 H 13.120000 10.025534 -3.306168 0
M  V30 44 H 12.181081 10.755317 -5.520777 0
M  V30 45 H 11.669274 5.802980 -7.151260 0
M  V30 46 H 10.148183 5.473475 -7.938440 0
M  V30 47 H 11.527957 6.784157 -9.465760 0
M  V30 48 H 11.780097 8.041553 -8.280267 0
M  V30 49 H 6.059577 4.977492 -12.007454 0
M  V30 50 H 9.231699 7.231252 -9.473292 0
M  V30 END ATOM
M  V30 BEGIN BOND
M  V30 1 1 2 1
M  V30 2 1 3 2
M  V30 3 2 4 3
M  V30 4 1 5 4
M  V30 5 2 6 5
M  V30 6 1 7 6
M  V30 7 1 8 7
M  V30 8 2 9 8
M  V30 9 1 10 8
M  V30 10 1 11 10
M  V30 11 1 12 11
M  V30 12 1 13 12
M  V30 13 1 14 13
M  V30 14 1 15 14
M  V30 15 1 16 15
M  V30 16 2 17 16
M  V30 17 1 18 17
M  V30 18 2 19 18
M  V30 19 1 20 19
M  V30 20 1 21 16
M  V30 21 2 21 20
M  V30 22 1 22 15
M  V30 23 1 23 12
M  V30 24 1 23 22
M  V30 25 2 24 2
M  V30 26 1 24 6
M  V30 27 1 25 1
M  V30 28 1 26 1
M  V30 29 1 27 1
M  V30 30 1 28 3
M  V30 31 1 29 4
M  V30 32 1 30 5
M  V30 33 1 31 7
M  V30 34 1 32 10
M  V30 35 1 33 10
M  V30 36 1 34 11
M  V30 37 1 35 11
M  V30 38 1 36 13
M  V30 39 1 37 13
M  V30 40 1 38 14
M  V30 41 1 39 14
M  V30 42 1 15 40 CFG=1
M  V30 43 1 41 17
M  V30 44 1 42 18
M  V30 45 1 43 19
M  V30 46 1 44 20
M  V30 47 1 45 22
M  V30 48 1 46 22
M  V30 49 1 47 23
M  V30 50 1 48 23
M  V30 51 1 49 24
M  V30 52 1 12 50 CFG=3
M  V30 END BOND
M  V30 END CTAB
M  END
>  <b_m_subgroup_collapsed>  (1626) 
0

>  <r_i_docking_score>  (1626) 
-6.9109112518146096

>  <s_m_subgroup_title>  (1626) 
glide-dock_SP_D22_pv

>  <s_m_subgroupid>  (1626) 
glide-dock_SP_D22_pv

>  <Molecule ChEMBL ID>  (1626) 
CHEMBL4464861

>  <Standard Type>  (1626) 
Ki

>  <Standard Value>  (1626) 
80.3

>  <label>  (1626) 
1

$$$$
CHEMBL102490
     RDKit          3D

  0  0  0  0  0  0  0  0  0  0999 V3000
M  V30 BEGIN CTAB
M  V30 COUNTS 39 40 0 0 1
M  V30 BEGIN ATOM
M  V30 1 C 10.595782 1.105795 -14.756641 0
M  V30 2 S 9.335311 0.963151 -16.074921 0
M  V30 3 O 9.701986 -0.256693 -16.810539 0
M  V30 4 O 9.382846 2.233176 -16.816875 0
M  V30 5 N 7.972603 0.781885 -15.207477 0 CHG=-1
M  V30 6 C 7.313316 1.694713 -14.462769 0
M  V30 7 C 7.792561 3.012316 -14.249534 0
M  V30 8 C 7.113689 3.948085 -13.446656 0
M  V30 9 O 7.684931 5.198594 -13.332846 0
M  V30 10 C 7.505051 5.918973 -12.119874 0
M  V30 11 C 8.535974 5.443019 -11.083191 0
M  V30 12 N 8.086038 5.772324 -9.718922 0 CHG=1
M  V30 13 C 9.089470 5.632294 -8.647566 0
M  V30 14 C 9.886354 6.877984 -8.435934 0
M  V30 15 C 10.907983 7.372832 -9.206252 0
M  V30 16 C 11.483125 8.565232 -8.679400 0
M  V30 17 C 10.887227 8.971973 -7.515269 0
M  V30 18 S 9.596020 7.900032 -7.049118 0
M  V30 19 C 5.894299 3.566030 -12.841759 0
M  V30 20 C 5.390410 2.270829 -13.046762 0
M  V30 21 C 6.086370 1.344835 -13.846603 0
M  V30 22 Cl 5.395531 -0.227582 -14.054910 0
M  V30 23 H 11.545202 1.369386 -15.218486 0
M  V30 24 H 10.308681 1.872218 -14.040437 0
M  V30 25 H 10.672749 0.148833 -14.246709 0
M  V30 26 H 8.711915 3.343376 -14.707403 0
M  V30 27 H 6.488840 5.859729 -11.736640 0
M  V30 28 H 7.667358 6.977479 -12.325591 0
M  V30 29 H 9.504006 5.894384 -11.298449 0
M  V30 30 H 8.669037 4.361938 -11.139277 0
M  V30 31 H 7.329762 5.130249 -9.509275 0
M  V30 32 H 9.744491 4.782862 -8.847363 0
M  V30 33 H 8.551435 5.393269 -7.729826 0
M  V30 34 H 11.275090 6.919962 -10.114815 0
M  V30 35 H 12.306104 9.069521 -9.165390 0
M  V30 36 H 11.124577 9.831327 -6.905754 0
M  V30 37 H 5.309449 4.240925 -12.238218 0
M  V30 38 H 4.454762 1.985781 -12.593821 0
M  V30 39 H 7.664724 6.705371 -9.709685 0
M  V30 END ATOM
M  V30 BEGIN BOND
M  V30 1 1 2 1
M  V30 2 2 3 2
M  V30 3 2 4 2
M  V30 4 1 5 2
M  V30 5 1 6 5
M  V30 6 1 7 6
M  V30 7 2 8 7
M  V30 8 1 9 8
M  V30 9 1 10 9
M  V30 10 1 11 10
M  V30 11 1 12 11
M  V30 12 1 13 12
M  V30 13 1 14 13
M  V30 14 2 15 14
M  V30 15 1 16 15
M  V30 16 2 17 16
M  V30 17 1 18 14
M  V30 18 1 18 17
M  V30 19 1 19 8
M  V30 20 2 20 19
M  V30 21 2 21 6
M  V30 22 1 21 20
M  V30 23 1 22 21
M  V30 24 1 23 1
M  V30 25 1 24 1
M  V30 26 1 25 1
M  V30 27 1 26 7
M  V30 28 1 27 10
M  V30 29 1 28 10
M  V30 30 1 29 11
M  V30 31 1 30 11
M  V30 32 1 31 12
M  V30 33 1 32 13
M  V30 34 1 33 13
M  V30 35 1 34 15
M  V30 36 1 35 16
M  V30 37 1 36 17
M  V30 38 1 37 19
M  V30 39 1 38 20
M  V30 40 1 39 12
M  V30 END BOND
M  V30 END CTAB
M  END
>  <b_m_subgroup_collapsed>  (1627) 
0

>  <r_i_docking_score>  (1627) 
-6.9104643606383096

>  <s_m_subgroup_title>  (1627) 
glide-dock_SP_D22_pv

>  <s_m_subgroupid>  (1627) 
glide-dock_SP_D22_pv

>  <Molecule ChEMBL ID>  (1627) 
CHEMBL102490

>  <Standard Type>  (1627) 
Ki

>  <Standard Value>  (1627) 
9.0

>  <label>  (1627) 
1

$$$$
CHEMBL562464
     RDKit          3D

  0  0  0  0  0  0  0  0  0  0999 V3000
M  V30 BEGIN CTAB
M  V30 COUNTS 58 62 0 0 1
M  V30 BEGIN ATOM
M  V30 1 O 10.511989 7.992524 -9.304118 0
M  V30 2 C 9.797502 7.353628 -8.530383 0
M  V30 3 N 8.892509 6.432194 -8.897746 0
M  V30 4 C 8.510508 6.059113 -10.246700 0
M  V30 5 C 9.581709 5.142796 -10.818201 0
M  V30 6 N 9.314208 4.720448 -12.206685 0 CFG=2 CHG=1
M  V30 7 C 10.014352 3.492608 -12.626234 0
M  V30 8 C 10.206252 3.274110 -14.150750 0 CFG=2
M  V30 9 C 11.027013 4.433917 -14.745774 0
M  V30 10 C 10.805865 5.747151 -13.982859 0
M  V30 11 C 9.462435 5.797756 -13.205429 0 CFG=1
M  V30 12 C 8.216645 5.761221 -14.084398 0
M  V30 13 C 7.291368 4.566108 -13.836560 0
M  V30 14 C 6.125257 4.780358 -13.086209 0
M  V30 15 C 5.286275 3.702375 -12.797682 0
M  V30 16 C 5.587479 2.399518 -13.222666 0
M  V30 17 C 6.756784 2.175847 -13.963802 0
M  V30 18 C 7.626089 3.248965 -14.246827 0
M  V30 19 C 8.927135 2.960512 -14.970057 0
M  V30 20 C 8.348075 5.714934 -7.777780 0
M  V30 21 C 8.689958 6.659496 -6.647142 0
M  V30 22 N 9.791988 7.427978 -7.185878 0
M  V30 23 C 10.751248 8.054822 -6.345542 0
M  V30 24 C 11.270960 9.322001 -6.677973 0
M  V30 25 C 12.145299 9.978909 -5.798708 0
M  V30 26 C 12.515570 9.372350 -4.582155 0
M  V30 27 C 12.021916 8.100911 -4.248573 0
M  V30 28 Cl 12.478106 7.353636 -2.763516 0
M  V30 29 C 11.153681 7.439139 -5.134763 0
M  V30 30 H 7.534103 5.578118 -10.252751 0
M  V30 31 H 8.423376 6.972624 -10.833338 0
M  V30 32 H 10.486056 5.726473 -10.806201 0
M  V30 33 H 9.712276 4.271468 -10.174095 0
M  V30 34 H 10.953773 3.772396 -12.246914 0
M  V30 35 H 9.685992 2.605724 -12.107959 0
M  V30 36 H 10.838503 2.390943 -14.258790 0
M  V30 37 H 12.089602 4.189210 -14.705181 0
M  V30 38 H 10.808470 4.570267 -15.805190 0
M  V30 39 H 10.898287 6.572062 -14.686083 0
M  V30 40 H 11.621804 5.886077 -13.271499 0
M  V30 41 H 9.462984 6.761505 -12.696159 0
M  V30 42 H 8.485747 5.772240 -15.136660 0
M  V30 43 H 7.686169 6.683897 -13.846799 0
M  V30 44 H 5.864025 5.768444 -12.731673 0
M  V30 45 H 4.407434 3.909724 -12.246907 0
M  V30 46 H 4.922248 1.580879 -12.989341 0
M  V30 47 H 6.995560 1.171807 -14.284244 0
M  V30 48 H 8.913536 3.481648 -15.927309 0
M  V30 49 H 8.944207 1.902505 -15.236025 0
M  V30 50 H 7.286106 5.510368 -7.846854 0
M  V30 51 H 8.882747 4.769228 -7.713439 0
M  V30 52 H 8.886866 6.172017 -5.702063 0
M  V30 53 H 7.865887 7.357668 -6.500991 0
M  V30 54 H 10.984807 9.802446 -7.599483 0
M  V30 55 H 12.531718 10.952359 -6.061583 0
M  V30 56 H 13.191913 9.875231 -3.907538 0
M  V30 57 H 10.799328 6.457337 -4.859431 0
M  V30 58 H 8.329936 4.482497 -12.235940 0
M  V30 END ATOM
M  V30 BEGIN BOND
M  V30 1 2 2 1
M  V30 2 1 3 2
M  V30 3 1 4 3
M  V30 4 1 5 4
M  V30 5 1 6 5
M  V30 6 1 7 6
M  V30 7 1 8 7
M  V30 8 1 9 8
M  V30 9 1 10 9
M  V30 10 1 11 6
M  V30 11 1 11 10
M  V30 12 1 12 11
M  V30 13 1 13 12
M  V30 14 2 14 13
M  V30 15 1 15 14
M  V30 16 2 16 15
M  V30 17 1 17 16
M  V30 18 1 18 13
M  V30 19 2 18 17
M  V30 20 1 19 8
M  V30 21 1 19 18
M  V30 22 1 20 3
M  V30 23 1 21 20
M  V30 24 1 22 2
M  V30 25 1 22 21
M  V30 26 1 23 22
M  V30 27 2 24 23
M  V30 28 1 25 24
M  V30 29 2 26 25
M  V30 30 1 27 26
M  V30 31 1 28 27
M  V30 32 1 29 23
M  V30 33 2 29 27
M  V30 34 1 30 4
M  V30 35 1 31 4
M  V30 36 1 32 5
M  V30 37 1 33 5
M  V30 38 1 34 7
M  V30 39 1 35 7
M  V30 40 1 8 36 CFG=1
M  V30 41 1 37 9
M  V30 42 1 38 9
M  V30 43 1 39 10
M  V30 44 1 40 10
M  V30 45 1 11 41 CFG=1
M  V30 46 1 42 12
M  V30 47 1 43 12
M  V30 48 1 44 14
M  V30 49 1 45 15
M  V30 50 1 46 16
M  V30 51 1 47 17
M  V30 52 1 48 19
M  V30 53 1 49 19
M  V30 54 1 50 20
M  V30 55 1 51 20
M  V30 56 1 52 21
M  V30 57 1 53 21
M  V30 58 1 54 24
M  V30 59 1 55 25
M  V30 60 1 56 26
M  V30 61 1 57 29
M  V30 62 1 6 58 CFG=1
M  V30 END BOND
M  V30 END CTAB
M  END
>  <b_m_subgroup_collapsed>  (1628) 
0

>  <r_i_docking_score>  (1628) 
-6.9104231840321697

>  <s_m_subgroup_title>  (1628) 
glide-dock_SP_D22_pv

>  <s_m_subgroupid>  (1628) 
glide-dock_SP_D22_pv

>  <Molecule ChEMBL ID>  (1628) 
CHEMBL562464

>  <Standard Type>  (1628) 
Ki

>  <Standard Value>  (1628) 
25.12

>  <label>  (1628) 
1

$$$$
CHEMBL383102
     RDKit          3D

  0  0  0  0  0  0  0  0  0  0999 V3000
M  V30 BEGIN CTAB
M  V30 COUNTS 43 47 0 0 1
M  V30 BEGIN ATOM
M  V30 1 C 7.208561 3.597797 -13.642902 0
M  V30 2 C 6.592987 4.479103 -12.735763 0
M  V30 3 C 7.340823 5.514074 -12.144073 0
M  V30 4 C 8.710703 5.681840 -12.449696 0
M  V30 5 C 9.540668 6.817784 -11.847215 0 CFG=1
M  V30 6 C 8.886792 8.215541 -11.780654 0
M  V30 7 C 9.268243 8.717237 -10.382350 0
M  V30 8 C 10.493651 7.925747 -10.018362 0 CFG=1
M  V30 9 C 10.787070 7.976676 -8.565587 0
M  V30 10 N 11.287352 9.075430 -7.899822 0
M  V30 11 C 11.458309 8.786606 -6.562410 0
M  V30 12 C 11.959938 9.550857 -5.493800 0
M  V30 13 C 12.077554 8.965626 -4.220273 0
M  V30 14 C 11.686071 7.626041 -4.032263 0
M  V30 15 C 11.163569 6.875617 -5.106543 0
M  V30 16 C 11.030776 7.431870 -6.400655 0
M  V30 17 C 10.568206 6.966546 -7.685919 0
M  V30 18 C 10.008976 5.664392 -8.165434 0
M  V30 19 C 9.313098 5.789937 -9.540055 0
M  V30 20 N 10.144739 6.571159 -10.509540 0 CFG=1 CHG=1
M  V30 21 C 9.323089 4.780425 -13.348942 0
M  V30 22 C 8.576179 3.744542 -13.942762 0
M  V30 23 H 6.635714 2.803495 -14.098763 0
M  V30 24 H 5.547448 4.363285 -12.489904 0
M  V30 25 H 6.845500 6.171330 -11.447288 0
M  V30 26 H 10.399914 6.937544 -12.510063 0
M  V30 27 H 9.284114 8.866363 -12.560192 0
M  V30 28 H 7.804592 8.202452 -11.900969 0
M  V30 29 H 9.380481 9.772326 -10.246893 0
M  V30 30 H 8.486033 8.459551 -9.675829 0
M  V30 31 H 11.353779 8.294915 -10.580566 0
M  V30 32 H 11.517896 9.945116 -8.356676 0
M  V30 33 H 12.275596 10.570216 -5.658689 0
M  V30 34 H 12.473005 9.537702 -3.392509 0
M  V30 35 H 11.780113 7.170424 -3.056781 0
M  V30 36 H 10.870173 5.850471 -4.938280 0
M  V30 37 H 10.820160 4.944752 -8.246798 0
M  V30 38 H 9.296498 5.264362 -7.446751 0
M  V30 39 H 9.116801 4.790065 -9.928791 0
M  V30 40 H 8.338617 6.262556 -9.411969 0
M  V30 41 H 10.369336 4.880610 -13.598482 0
M  V30 42 H 9.052713 3.061980 -14.631314 0
M  V30 43 H 10.996469 6.047443 -10.630213 0
M  V30 END ATOM
M  V30 BEGIN BOND
M  V30 1 2 2 1
M  V30 2 1 3 2
M  V30 3 2 4 3
M  V30 4 1 5 4
M  V30 5 1 6 5
M  V30 6 1 7 6
M  V30 7 1 8 7
M  V30 8 1 9 8
M  V30 9 1 10 9
M  V30 10 1 11 10
M  V30 11 2 12 11
M  V30 12 1 13 12
M  V30 13 2 14 13
M  V30 14 1 15 14
M  V30 15 1 16 11
M  V30 16 2 16 15
M  V30 17 2 17 9
M  V30 18 1 17 16
M  V30 19 1 18 17
M  V30 20 1 19 18
M  V30 21 1 20 5
M  V30 22 1 20 8
M  V30 23 1 20 19
M  V30 24 1 21 4
M  V30 25 1 22 1
M  V30 26 2 22 21
M  V30 27 1 23 1
M  V30 28 1 24 2
M  V30 29 1 25 3
M  V30 30 1 5 26 CFG=3
M  V30 31 1 27 6
M  V30 32 1 28 6
M  V30 33 1 29 7
M  V30 34 1 30 7
M  V30 35 1 8 31 CFG=3
M  V30 36 1 32 10
M  V30 37 1 33 12
M  V30 38 1 34 13
M  V30 39 1 35 14
M  V30 40 1 36 15
M  V30 41 1 37 18
M  V30 42 1 38 18
M  V30 43 1 39 19
M  V30 44 1 40 19
M  V30 45 1 41 21
M  V30 46 1 42 22
M  V30 47 1 20 43 CFG=3
M  V30 END BOND
M  V30 END CTAB
M  END
>  <b_m_subgroup_collapsed>  (1629) 
0

>  <r_i_docking_score>  (1629) 
-6.9099248927992596

>  <s_m_subgroup_title>  (1629) 
glide-dock_SP_D22_pv

>  <s_m_subgroupid>  (1629) 
glide-dock_SP_D22_pv

>  <Molecule ChEMBL ID>  (1629) 
CHEMBL383102

>  <Standard Type>  (1629) 
Ki

>  <Standard Value>  (1629) 
10000.0

>  <label>  (1629) 
0

$$$$
CHEMBL509451
     RDKit          3D

  0  0  0  0  0  0  0  0  0  0999 V3000
M  V30 BEGIN CTAB
M  V30 COUNTS 97 104 0 0 1
M  V30 BEGIN ATOM
M  V30 1 C 10.436588 6.806529 -5.902636 0
M  V30 2 C 10.068003 7.641930 -7.131089 0
M  V30 3 C 9.820526 6.793512 -8.398785 0
M  V30 4 N 9.282737 7.589262 -9.541008 0 CFG=1 CHG=1
M  V30 5 C 9.998833 8.841353 -9.836520 0
M  V30 6 C 11.398691 8.515013 -10.352407 0
M  V30 7 C 11.416292 7.557103 -11.537443 0
M  V30 8 C 12.465125 7.474199 -12.466389 0
M  V30 9 C 12.373478 6.590883 -13.547844 0
M  V30 10 C 11.261490 5.745453 -13.674248 0
M  V30 11 C 10.167336 5.764759 -12.774758 0
M  V30 12 C 10.284163 6.713310 -11.723350 0
M  V30 13 C 9.047341 6.860029 -10.816778 0 CFG=1
M  V30 14 C 8.226833 5.569903 -10.645256 0
M  V30 15 C 7.971556 4.873604 -11.960203 0
M  V30 16 C 6.760046 4.180852 -12.168955 0
M  V30 17 C 6.584139 3.387713 -13.312284 0
M  V30 18 C 7.625082 3.292853 -14.247360 0
M  V30 19 O 7.436707 2.510661 -15.361279 0
M  V30 20 C 8.390524 1.661919 -15.805570 0
M  V30 21 O 9.390746 1.300011 -15.182039 0
M  V30 22 C 8.109447 1.204329 -17.240421 0
M  V30 23 C 9.340977 0.652972 -17.991808 0
M  V30 24 C 10.491976 1.658559 -18.212528 0
M  V30 25 C 10.184580 2.760532 -19.229950 0
M  V30 26 O 10.466828 2.620296 -20.420683 0
M  V30 27 O 9.652256 3.869784 -18.665731 0
M  V30 28 C 9.612136 5.037493 -19.392113 0
M  V30 29 C 8.486012 5.286281 -20.202772 0
M  V30 30 C 8.381343 6.459500 -20.965572 0
M  V30 31 C 9.434955 7.384124 -20.957582 0
M  V30 32 C 10.577427 7.133116 -20.173525 0
M  V30 33 C 10.669365 5.990213 -19.343105 0
M  V30 34 C 11.908986 5.807079 -18.543587 0
M  V30 35 C 11.960615 5.093742 -17.319067 0
M  V30 36 C 13.159878 4.868301 -16.618450 0
M  V30 37 C 14.372691 5.365299 -17.115108 0
M  V30 38 C 14.389519 6.097137 -18.309582 0
M  V30 39 C 13.152250 6.350421 -18.962694 0
M  V30 40 C 13.083580 7.249331 -20.214054 0 CFG=1
M  V30 41 C 11.767939 8.058669 -20.279921 0
M  V30 42 N 14.302151 8.069103 -20.452852 0 CFG=1 CHG=1
M  V30 43 C 14.403605 9.321694 -19.642292 0
M  V30 44 C 15.606824 10.207350 -20.015247 0
M  V30 45 C 16.880672 9.954691 -19.185406 0
M  V30 46 C 15.477115 7.175988 -20.379187 0
M  V30 47 C 15.650478 6.663332 -18.944456 0
M  V30 48 C 8.788475 4.077606 -14.086418 0
M  V30 49 C 8.977079 4.894455 -12.948682 0
M  V30 50 H 10.678978 7.446859 -5.053487 0
M  V30 51 H 11.304374 6.173738 -6.093262 0
M  V30 52 H 9.601825 6.174109 -5.601338 0
M  V30 53 H 9.177810 8.228172 -6.896982 0
M  V30 54 H 10.880520 8.346848 -7.297856 0
M  V30 55 H 10.738085 6.280252 -8.693291 0
M  V30 56 H 9.095812 6.021677 -8.142332 0
M  V30 57 H 9.432501 9.372190 -10.600261 0
M  V30 58 H 10.031091 9.510766 -8.980128 0
M  V30 59 H 11.899646 9.437893 -10.645865 0
M  V30 60 H 12.013037 8.089676 -9.557281 0
M  V30 61 H 13.333231 8.108747 -12.363004 0
M  V30 62 H 13.182784 6.537905 -14.261120 0
M  V30 63 H 11.267976 5.064939 -14.506924 0
M  V30 64 H 8.408213 7.518277 -11.408946 0
M  V30 65 H 8.763996 4.849428 -10.029039 0
M  V30 66 H 7.286251 5.772384 -10.143260 0
M  V30 67 H 5.964474 4.218829 -11.444332 0
M  V30 68 H 5.667920 2.834458 -13.454404 0
M  V30 69 H 7.340046 0.433608 -17.195639 0
M  V30 70 H 7.681807 2.040643 -17.792736 0
M  V30 71 H 9.731736 -0.208245 -17.447229 0
M  V30 72 H 9.017155 0.258939 -18.955015 0
M  V30 73 H 10.795615 2.116914 -17.271162 0
M  V30 74 H 11.367213 1.117439 -18.576170 0
M  V30 75 H 7.686114 4.564360 -20.247864 0
M  V30 76 H 7.508204 6.635181 -21.576361 0
M  V30 77 H 9.375706 8.268375 -21.576223 0
M  V30 78 H 11.054904 4.696712 -16.886776 0
M  V30 79 H 13.150533 4.303025 -15.699185 0
M  V30 80 H 15.291960 5.174151 -16.582571 0
M  V30 81 H 13.039743 6.552928 -21.054319 0
M  V30 82 H 11.717054 8.639160 -21.201696 0
M  V30 83 H 11.691013 8.756570 -19.447844 0
M  V30 84 H 13.520782 9.927144 -19.844149 0
M  V30 85 H 14.377357 9.114166 -18.571068 0
M  V30 86 H 15.826756 10.130011 -21.081108 0
M  V30 87 H 15.295936 11.242352 -19.856340 0
M  V30 88 H 17.704065 10.572296 -19.534855 0
M  V30 89 H 17.257597 8.939288 -19.256239 0
M  V30 90 H 16.717489 10.173779 -18.128096 0
M  V30 91 H 15.322379 6.330196 -21.051342 0
M  V30 92 H 16.375408 7.665361 -20.753939 0
M  V30 93 H 16.006021 7.445790 -18.276735 0
M  V30 94 H 16.420689 5.891473 -18.934210 0
M  V30 95 H 9.527651 4.040747 -14.868660 0
M  V30 96 H 8.342128 7.852951 -9.262338 0
M  V30 97 H 14.242373 8.377003 -21.413702 0
M  V30 END ATOM
M  V30 BEGIN BOND
M  V30 1 1 2 1
M  V30 2 1 3 2
M  V30 3 1 4 3
M  V30 4 1 5 4
M  V30 5 1 6 5
M  V30 6 1 7 6
M  V30 7 1 8 7
M  V30 8 2 9 8
M  V30 9 1 10 9
M  V30 10 2 11 10
M  V30 11 2 12 7
M  V30 12 1 12 11
M  V30 13 1 13 4
M  V30 14 1 13 12
M  V30 15 1 14 13
M  V30 16 1 15 14
M  V30 17 2 16 15
M  V30 18 1 17 16
M  V30 19 2 18 17
M  V30 20 1 19 18
M  V30 21 1 20 19
M  V30 22 2 21 20
M  V30 23 1 22 20
M  V30 24 1 23 22
M  V30 25 1 24 23
M  V30 26 1 25 24
M  V30 27 2 26 25
M  V30 28 1 27 25
M  V30 29 1 28 27
M  V30 30 2 29 28
M  V30 31 1 30 29
M  V30 32 2 31 30
M  V30 33 1 32 31
M  V30 34 1 33 28
M  V30 35 2 33 32
M  V30 36 1 34 33
M  V30 37 2 35 34
M  V30 38 1 36 35
M  V30 39 2 37 36
M  V30 40 1 38 37
M  V30 41 1 39 34
M  V30 42 2 39 38
M  V30 43 1 40 39
M  V30 44 1 41 32
M  V30 45 1 41 40
M  V30 46 1 42 40
M  V30 47 1 43 42
M  V30 48 1 44 43
M  V30 49 1 45 44
M  V30 50 1 46 42
M  V30 51 1 47 38
M  V30 52 1 47 46
M  V30 53 1 48 18
M  V30 54 1 49 11
M  V30 55 1 49 15
M  V30 56 2 49 48
M  V30 57 1 50 1
M  V30 58 1 51 1
M  V30 59 1 52 1
M  V30 60 1 53 2
M  V30 61 1 54 2
M  V30 62 1 55 3
M  V30 63 1 56 3
M  V30 64 1 57 5
M  V30 65 1 58 5
M  V30 66 1 59 6
M  V30 67 1 60 6
M  V30 68 1 61 8
M  V30 69 1 62 9
M  V30 70 1 63 10
M  V30 71 1 13 64 CFG=3
M  V30 72 1 65 14
M  V30 73 1 66 14
M  V30 74 1 67 16
M  V30 75 1 68 17
M  V30 76 1 69 22
M  V30 77 1 70 22
M  V30 78 1 71 23
M  V30 79 1 72 23
M  V30 80 1 73 24
M  V30 81 1 74 24
M  V30 82 1 75 29
M  V30 83 1 76 30
M  V30 84 1 77 31
M  V30 85 1 78 35
M  V30 86 1 79 36
M  V30 87 1 80 37
M  V30 88 1 40 81 CFG=3
M  V30 89 1 82 41
M  V30 90 1 83 41
M  V30 91 1 84 43
M  V30 92 1 85 43
M  V30 93 1 86 44
M  V30 94 1 87 44
M  V30 95 1 88 45
M  V30 96 1 89 45
M  V30 97 1 90 45
M  V30 98 1 91 46
M  V30 99 1 92 46
M  V30 100 1 93 47
M  V30 101 1 94 47
M  V30 102 1 95 48
M  V30 103 1 4 96 CFG=1
M  V30 104 1 42 97 CFG=3
M  V30 END BOND
M  V30 END CTAB
M  END
>  <b_m_subgroup_collapsed>  (1630) 
0

>  <r_i_docking_score>  (1630) 
-6.9074446989687202

>  <s_m_subgroup_title>  (1630) 
glide-dock_SP_D22_pv

>  <s_m_subgroupid>  (1630) 
glide-dock_SP_D22_pv

>  <Molecule ChEMBL ID>  (1630) 
CHEMBL509451

>  <Standard Type>  (1630) 
Ki

>  <Standard Value>  (1630) 
10000.0

>  <label>  (1630) 
0

$$$$
CHEMBL593395
     RDKit          3D

  0  0  0  0  0  0  0  0  0  0999 V3000
M  V30 BEGIN CTAB
M  V30 COUNTS 40 43 0 0 1
M  V30 BEGIN ATOM
M  V30 1 C 13.608382 5.523380 -15.986028 0
M  V30 2 O 12.338229 4.942382 -15.733778 0
M  V30 3 C 11.618261 5.406252 -14.656720 0
M  V30 4 C 12.083631 6.388520 -13.750539 0
M  V30 5 C 11.284842 6.794520 -12.665405 0
M  V30 6 C 9.996459 6.241284 -12.461795 0
M  V30 7 C 9.527522 5.267350 -13.383862 0
M  V30 8 C 10.339233 4.855589 -14.459015 0
M  V30 9 C 8.166890 4.614212 -13.218296 0
M  V30 10 C 7.258329 5.369664 -12.242956 0
M  V30 11 N 7.992387 5.772464 -11.026039 0 CFG=1 CHG=1
M  V30 12 C 8.466974 4.642527 -10.195415 0
M  V30 13 C 8.866961 5.134739 -8.806196 0
M  V30 14 C 9.738074 6.370912 -8.862470 0
M  V30 15 C 10.422715 6.777129 -7.700747 0
M  V30 16 C 11.139390 7.987657 -7.691020 0
M  V30 17 C 11.143944 8.807764 -8.833816 0
M  V30 18 C 10.456430 8.406281 -9.991468 0
M  V30 19 C 9.786553 7.166539 -10.035892 0
M  V30 20 C 9.077249 6.741238 -11.326686 0 CFG=1
M  V30 21 H 14.050739 5.050447 -16.863419 0
M  V30 22 H 14.289364 5.372257 -15.148829 0
M  V30 23 H 13.520303 6.591648 -16.189472 0
M  V30 24 H 13.054261 6.847505 -13.861045 0
M  V30 25 H 11.694631 7.544230 -12.006271 0
M  V30 26 H 9.974907 4.108397 -15.148764 0
M  V30 27 H 7.672960 4.544292 -14.186154 0
M  V30 28 H 8.324573 3.592640 -12.877527 0
M  V30 29 H 6.872171 6.272890 -12.716991 0
M  V30 30 H 6.387003 4.770138 -11.972998 0
M  V30 31 H 7.684361 3.891408 -10.103406 0
M  V30 32 H 9.327247 4.172254 -10.674272 0
M  V30 33 H 7.975653 5.382455 -8.233531 0
M  V30 34 H 9.374682 4.337932 -8.267354 0
M  V30 35 H 10.379246 6.172592 -6.806826 0
M  V30 36 H 11.665688 8.297047 -6.799732 0
M  V30 37 H 11.670971 9.749804 -8.831069 0
M  V30 38 H 10.457946 9.039011 -10.866147 0
M  V30 39 H 8.588349 7.636479 -11.715229 0
M  V30 40 H 7.331869 6.319431 -10.473372 0
M  V30 END ATOM
M  V30 BEGIN BOND
M  V30 1 1 2 1
M  V30 2 1 3 2
M  V30 3 1 4 3
M  V30 4 2 5 4
M  V30 5 1 6 5
M  V30 6 2 7 6
M  V30 7 2 8 3
M  V30 8 1 8 7
M  V30 9 1 9 7
M  V30 10 1 10 9
M  V30 11 1 11 10
M  V30 12 1 12 11
M  V30 13 1 13 12
M  V30 14 1 14 13
M  V30 15 2 15 14
M  V30 16 1 16 15
M  V30 17 2 17 16
M  V30 18 1 18 17
M  V30 19 1 19 14
M  V30 20 2 19 18
M  V30 21 1 20 6
M  V30 22 1 20 11
M  V30 23 1 20 19
M  V30 24 1 21 1
M  V30 25 1 22 1
M  V30 26 1 23 1
M  V30 27 1 24 4
M  V30 28 1 25 5
M  V30 29 1 26 8
M  V30 30 1 27 9
M  V30 31 1 28 9
M  V30 32 1 29 10
M  V30 33 1 30 10
M  V30 34 1 31 12
M  V30 35 1 32 12
M  V30 36 1 33 13
M  V30 37 1 34 13
M  V30 38 1 35 15
M  V30 39 1 36 16
M  V30 40 1 37 17
M  V30 41 1 38 18
M  V30 42 1 20 39 CFG=3
M  V30 43 1 11 40 CFG=1
M  V30 END BOND
M  V30 END CTAB
M  END
>  <b_m_subgroup_collapsed>  (1631) 
0

>  <r_i_docking_score>  (1631) 
-6.9053953126755898

>  <s_m_subgroup_title>  (1631) 
glide-dock_SP_D22_pv

>  <s_m_subgroupid>  (1631) 
glide-dock_SP_D22_pv

>  <Molecule ChEMBL ID>  (1631) 
CHEMBL593395

>  <Standard Type>  (1631) 
Ki

>  <Standard Value>  (1631) 
10000.0

>  <label>  (1631) 
0

$$$$
CHEMBL3623630
     RDKit          3D

  0  0  0  0  0  0  0  0  0  0999 V3000
M  V30 BEGIN CTAB
M  V30 COUNTS 120 125 0 0 1
M  V30 BEGIN ATOM
M  V30 1 C 3.446027 -1.641077 -18.402805 0
M  V30 2 O 3.665226 -1.429613 -17.013842 0
M  V30 3 C 4.848282 -0.843043 -16.611090 0
M  V30 4 C 5.858359 -0.459155 -17.528698 0
M  V30 5 C 7.081322 0.064878 -17.076845 0
M  V30 6 C 7.320192 0.232051 -15.699051 0
M  V30 7 C 8.640511 0.795759 -15.206252 0
M  V30 8 C 9.081127 2.023166 -16.023592 0
M  V30 9 C 10.120765 2.937855 -15.334532 0 CFG=1
M  V30 10 O 10.914028 3.565314 -16.346853 0
M  V30 11 C 10.403636 4.473360 -17.211042 0
M  V30 12 O 9.286057 4.971818 -17.142031 0
M  V30 13 C 11.421643 4.797005 -18.316509 0 CFG=2
M  V30 14 C 11.408870 6.273510 -18.788591 0
M  V30 15 C 10.206558 6.597857 -19.699999 0
M  V30 16 C 10.054160 5.557731 -20.824095 0
M  V30 17 C 10.077539 4.120851 -20.267355 0
M  V30 18 N 11.326398 3.922027 -19.505327 0
M  V30 19 C 12.353519 3.198146 -20.043161 0
M  V30 20 O 12.235291 2.638180 -21.134369 0
M  V30 21 C 13.709719 3.054797 -19.290329 0 CFG=2
M  V30 22 C 14.426844 4.402608 -19.214453 0
M  V30 23 C 14.729203 5.161524 -20.365444 0
M  V30 24 C 15.197868 6.497935 -20.246553 0
M  V30 25 O 15.531173 7.290267 -21.323612 0
M  V30 26 C 15.432377 6.732741 -22.627140 0
M  V30 27 C 15.266938 7.085789 -18.963585 0
M  V30 28 O 15.613146 8.409476 -18.850864 0
M  V30 29 C 14.497428 9.277746 -18.711483 0
M  V30 30 C 14.950538 6.333173 -17.810371 0
M  V30 31 O 14.886005 6.971468 -16.597292 0
M  V30 32 C 14.019471 6.419514 -15.607238 0
M  V30 33 C 14.648715 4.966161 -17.943392 0
M  V30 34 C 14.643792 1.876221 -19.719004 0
M  V30 35 C 13.973363 0.490055 -19.546457 0
M  V30 36 C 14.962031 -0.656947 -19.807484 0
M  V30 37 C 15.603932 -0.545301 -21.196421 0
M  V30 38 C 16.285295 0.820241 -21.372379 0
M  V30 39 C 15.302608 1.981388 -21.118303 0
M  V30 40 C 9.575042 3.904795 -14.267517 0
M  V30 41 C 8.259202 3.784140 -13.759175 0
M  V30 42 C 7.805315 4.632234 -12.734078 0
M  V30 43 C 8.653494 5.616065 -12.200804 0
M  V30 44 C 9.966535 5.770849 -12.702356 0
M  V30 45 O 10.837932 6.731523 -12.236072 0
M  V30 46 C 10.837600 6.972499 -10.830574 0
M  V30 47 C 10.031702 8.227245 -10.430202 0
M  V30 48 N 9.996445 8.535020 -8.996848 0
M  V30 49 C 9.378151 7.484200 -8.193661 0
M  V30 50 C 9.278879 7.877453 -6.712239 0
M  V30 51 O 10.577437 8.202713 -6.220148 0
M  V30 52 C 11.184227 9.270828 -6.942223 0
M  V30 53 C 11.289388 8.912354 -8.437452 0
M  V30 54 C 10.411116 4.913375 -13.733607 0
M  V30 55 C 6.316292 -0.133078 -14.779714 0
M  V30 56 C 5.079948 -0.652229 -15.222769 0
M  V30 57 O 4.192322 -1.028168 -14.245032 0
M  V30 58 C 2.886037 -0.473851 -14.296354 0
M  V30 59 H 2.486246 -2.128440 -18.559898 0
M  V30 60 H 3.423647 -0.696580 -18.948355 0
M  V30 61 H 4.209183 -2.289708 -18.834389 0
M  V30 62 H 5.731790 -0.582944 -18.591850 0
M  V30 63 H 7.836917 0.321797 -17.804134 0
M  V30 64 H 9.400567 0.015853 -15.264152 0
M  V30 65 H 8.553434 1.047997 -14.150983 0
M  V30 66 H 8.213841 2.617837 -16.310389 0
M  V30 67 H 9.498476 1.650078 -16.959261 0
M  V30 68 H 10.819331 2.286486 -14.807325 0
M  V30 69 H 12.358957 4.634228 -17.816528 0
M  V30 70 H 11.422276 6.951408 -17.935810 0
M  V30 71 H 12.322779 6.475237 -19.345629 0
M  V30 72 H 10.325950 7.593478 -20.130781 0
M  V30 73 H 9.288314 6.635840 -19.114803 0
M  V30 74 H 10.866872 5.677723 -21.544685 0
M  V30 75 H 9.126304 5.734059 -21.373108 0
M  V30 76 H 9.952832 3.408911 -21.083649 0
M  V30 77 H 9.210300 3.956720 -19.630730 0
M  V30 78 H 13.412090 2.798776 -18.272762 0
M  V30 79 H 14.559731 4.716664 -21.332001 0
M  V30 80 H 15.749101 7.471599 -23.362007 0
M  V30 81 H 16.072983 5.857255 -22.738033 0
M  V30 82 H 14.401466 6.460672 -22.855280 0
M  V30 83 H 14.832158 10.314134 -18.755251 0
M  V30 84 H 13.771239 9.127251 -19.512632 0
M  V30 85 H 13.993355 9.128139 -17.755337 0
M  V30 86 H 13.854449 7.142619 -14.811211 0
M  V30 87 H 13.037010 6.172266 -16.015551 0
M  V30 88 H 14.451160 5.524532 -15.154037 0
M  V30 89 H 14.433911 4.369049 -17.068314 0
M  V30 90 H 15.465096 1.892655 -19.006378 0
M  V30 91 H 13.566325 0.393363 -18.540552 0
M  V30 92 H 13.131018 0.386075 -20.229074 0
M  V30 93 H 15.743811 -0.657265 -19.047237 0
M  V30 94 H 14.440212 -1.612439 -19.714781 0
M  V30 95 H 16.330181 -1.346426 -21.331366 0
M  V30 96 H 14.844056 -0.682800 -21.963917 0
M  V30 97 H 17.128000 0.896556 -20.684946 0
M  V30 98 H 16.700047 0.897594 -22.376051 0
M  V30 99 H 14.544730 1.978554 -21.900768 0
M  V30 100 H 15.849160 2.915617 -21.215345 0
M  V30 101 H 7.573421 3.041550 -14.133961 0
M  V30 102 H 6.800609 4.527627 -12.349423 0
M  V30 103 H 8.271647 6.247500 -11.412931 0
M  V30 104 H 10.485878 6.088690 -10.295761 0
M  V30 105 H 11.879030 7.099121 -10.539701 0
M  V30 106 H 10.448150 9.077443 -10.966351 0
M  V30 107 H 9.004709 8.140416 -10.787473 0
M  V30 108 H 8.388144 7.252853 -8.586200 0
M  V30 109 H 9.961693 6.566369 -8.256789 0
M  V30 110 H 8.597519 8.718696 -6.578233 0
M  V30 111 H 8.885964 7.043713 -6.135967 0
M  V30 112 H 10.592861 10.173424 -6.799222 0
M  V30 113 H 12.174523 9.468044 -6.527069 0
M  V30 114 H 12.003880 8.095543 -8.549683 0
M  V30 115 H 11.684510 9.762837 -8.992828 0
M  V30 116 H 11.419360 5.021717 -14.105974 0
M  V30 117 H 6.493207 -0.024195 -13.720448 0
M  V30 118 H 2.268973 -1.026929 -13.591269 0
M  V30 119 H 2.900268 0.572369 -13.990586 0
M  V30 120 H 2.402280 -0.539589 -15.266870 0
M  V30 END ATOM
M  V30 BEGIN BOND
M  V30 1 1 2 1
M  V30 2 1 3 2
M  V30 3 1 4 3
M  V30 4 2 5 4
M  V30 5 1 6 5
M  V30 6 1 7 6
M  V30 7 1 8 7
M  V30 8 1 9 8
M  V30 9 1 10 9
M  V30 10 1 11 10
M  V30 11 2 12 11
M  V30 12 1 13 11
M  V30 13 1 14 13
M  V30 14 1 15 14
M  V30 15 1 16 15
M  V30 16 1 17 16
M  V30 17 1 18 13
M  V30 18 1 18 17
M  V30 19 1 19 18
M  V30 20 2 20 19
M  V30 21 1 21 19
M  V30 22 1 22 21
M  V30 23 2 23 22
M  V30 24 1 24 23
M  V30 25 1 25 24
M  V30 26 1 26 25
M  V30 27 2 27 24
M  V30 28 1 28 27
M  V30 29 1 29 28
M  V30 30 1 30 27
M  V30 31 1 31 30
M  V30 32 1 32 31
M  V30 33 1 33 22
M  V30 34 2 33 30
M  V30 35 1 34 21
M  V30 36 1 35 34
M  V30 37 1 36 35
M  V30 38 1 37 36
M  V30 39 1 38 37
M  V30 40 1 39 34
M  V30 41 1 39 38
M  V30 42 1 40 9
M  V30 43 2 41 40
M  V30 44 1 42 41
M  V30 45 2 43 42
M  V30 46 1 44 43
M  V30 47 1 45 44
M  V30 48 1 46 45
M  V30 49 1 47 46
M  V30 50 1 48 47
M  V30 51 1 49 48
M  V30 52 1 50 49
M  V30 53 1 51 50
M  V30 54 1 52 51
M  V30 55 1 53 48
M  V30 56 1 53 52
M  V30 57 1 54 40
M  V30 58 2 54 44
M  V30 59 2 55 6
M  V30 60 2 56 3
M  V30 61 1 56 55
M  V30 62 1 57 56
M  V30 63 1 58 57
M  V30 64 1 59 1
M  V30 65 1 60 1
M  V30 66 1 61 1
M  V30 67 1 62 4
M  V30 68 1 63 5
M  V30 69 1 64 7
M  V30 70 1 65 7
M  V30 71 1 66 8
M  V30 72 1 67 8
M  V30 73 1 9 68 CFG=1
M  V30 74 1 13 69 CFG=1
M  V30 75 1 70 14
M  V30 76 1 71 14
M  V30 77 1 72 15
M  V30 78 1 73 15
M  V30 79 1 74 16
M  V30 80 1 75 16
M  V30 81 1 76 17
M  V30 82 1 77 17
M  V30 83 1 21 78 CFG=1
M  V30 84 1 79 23
M  V30 85 1 80 26
M  V30 86 1 81 26
M  V30 87 1 82 26
M  V30 88 1 83 29
M  V30 89 1 84 29
M  V30 90 1 85 29
M  V30 91 1 86 32
M  V30 92 1 87 32
M  V30 93 1 88 32
M  V30 94 1 89 33
M  V30 95 1 90 34
M  V30 96 1 91 35
M  V30 97 1 92 35
M  V30 98 1 93 36
M  V30 99 1 94 36
M  V30 100 1 95 37
M  V30 101 1 96 37
M  V30 102 1 97 38
M  V30 103 1 98 38
M  V30 104 1 99 39
M  V30 105 1 100 39
M  V30 106 1 101 41
M  V30 107 1 102 42
M  V30 108 1 103 43
M  V30 109 1 104 46
M  V30 110 1 105 46
M  V30 111 1 106 47
M  V30 112 1 107 47
M  V30 113 1 108 49
M  V30 114 1 109 49
M  V30 115 1 110 50
M  V30 116 1 111 50
M  V30 117 1 112 52
M  V30 118 1 113 52
M  V30 119 1 114 53
M  V30 120 1 115 53
M  V30 121 1 116 54
M  V30 122 1 117 55
M  V30 123 1 118 58
M  V30 124 1 119 58
M  V30 125 1 120 58
M  V30 END BOND
M  V30 END CTAB
M  END
>  <b_m_subgroup_collapsed>  (1632) 
0

>  <r_i_docking_score>  (1632) 
-6.9038322230363596

>  <s_m_subgroup_title>  (1632) 
glide-dock_SP_D22_pv

>  <s_m_subgroupid>  (1632) 
glide-dock_SP_D22_pv

>  <Molecule ChEMBL ID>  (1632) 
CHEMBL3623630

>  <Standard Type>  (1632) 
Ki

>  <Standard Value>  (1632) 
10000.0

>  <label>  (1632) 
0

$$$$
CHEMBL561054
     RDKit          3D

  0  0  0  0  0  0  0  0  0  0999 V3000
M  V30 BEGIN CTAB
M  V30 COUNTS 47 49 0 0 1
M  V30 BEGIN ATOM
M  V30 1 C 11.105958 7.492111 -10.301342 0
M  V30 2 C 9.643929 7.785708 -9.909101 0 CFG=2
M  V30 3 C 9.539382 8.907255 -8.852133 0
M  V30 4 C 9.958177 8.431759 -7.454244 0
M  V30 5 C 9.133082 7.205275 -7.054815 0
M  V30 6 C 9.261426 6.094267 -8.108006 0
M  V30 7 N 8.885857 6.574997 -9.465952 0 CFG=2 CHG=1
M  V30 8 C 8.809352 5.464737 -10.450786 0
M  V30 9 C 8.035007 5.840238 -11.731663 0
M  V30 10 N 7.955998 4.718601 -12.665522 0
M  V30 11 C 6.689481 4.078763 -12.958402 0
M  V30 12 C 7.101326 2.953641 -13.903886 0
M  V30 13 N 8.530014 3.183721 -14.111581 0
M  V30 14 C 9.330709 2.347953 -14.949494 0
M  V30 15 C 9.035736 0.970481 -15.065498 0
M  V30 16 C 9.816516 0.139114 -15.893255 0
M  V30 17 C 10.885917 0.677348 -16.629835 0
M  V30 18 C 11.183924 2.048817 -16.531830 0
M  V30 19 Cl 12.485623 2.714307 -17.446741 0
M  V30 20 C 10.413998 2.878953 -15.693700 0
M  V30 21 C 8.983263 4.192958 -13.345101 0
M  V30 22 O 10.150298 4.582895 -13.254856 0
M  V30 23 H 11.645536 8.416657 -10.510617 0
M  V30 24 H 11.648483 6.974448 -9.509063 0
M  V30 25 H 11.161913 6.890567 -11.206057 0
M  V30 26 H 9.148800 8.180182 -10.795891 0
M  V30 27 H 8.510881 9.270925 -8.813160 0
M  V30 28 H 10.150136 9.754653 -9.159962 0
M  V30 29 H 9.815261 9.233165 -6.729668 0
M  V30 30 H 11.019715 8.188784 -7.445224 0
M  V30 31 H 8.086300 7.484154 -6.937792 0
M  V30 32 H 9.460517 6.834581 -6.083835 0
M  V30 33 H 8.605825 5.267195 -7.829231 0
M  V30 34 H 10.277330 5.700442 -8.123453 0
M  V30 35 H 8.289985 4.624222 -9.990233 0
M  V30 36 H 9.811194 5.101361 -10.678731 0
M  V30 37 H 8.507198 6.674142 -12.254899 0
M  V30 38 H 7.029599 6.170847 -11.463326 0
M  V30 39 H 6.216701 3.699774 -12.047555 0
M  V30 40 H 6.008970 4.785137 -13.440643 0
M  V30 41 H 6.559884 2.999755 -14.850023 0
M  V30 42 H 6.900577 1.983359 -13.449988 0
M  V30 43 H 8.219565 0.527897 -14.512659 0
M  V30 44 H 9.593351 -0.914618 -15.962266 0
M  V30 45 H 11.480765 0.038966 -17.266281 0
M  V30 46 H 10.657097 3.928867 -15.645626 0
M  V30 47 H 7.925775 6.905760 -9.383416 0
M  V30 END ATOM
M  V30 BEGIN BOND
M  V30 1 1 2 1
M  V30 2 1 3 2
M  V30 3 1 4 3
M  V30 4 1 5 4
M  V30 5 1 6 5
M  V30 6 1 7 2
M  V30 7 1 7 6
M  V30 8 1 8 7
M  V30 9 1 9 8
M  V30 10 1 10 9
M  V30 11 1 11 10
M  V30 12 1 12 11
M  V30 13 1 13 12
M  V30 14 1 14 13
M  V30 15 2 15 14
M  V30 16 1 16 15
M  V30 17 2 17 16
M  V30 18 1 18 17
M  V30 19 1 19 18
M  V30 20 1 20 14
M  V30 21 2 20 18
M  V30 22 1 21 10
M  V30 23 1 21 13
M  V30 24 2 22 21
M  V30 25 1 23 1
M  V30 26 1 24 1
M  V30 27 1 25 1
M  V30 28 1 2 26 CFG=3
M  V30 29 1 27 3
M  V30 30 1 28 3
M  V30 31 1 29 4
M  V30 32 1 30 4
M  V30 33 1 31 5
M  V30 34 1 32 5
M  V30 35 1 33 6
M  V30 36 1 34 6
M  V30 37 1 35 8
M  V30 38 1 36 8
M  V30 39 1 37 9
M  V30 40 1 38 9
M  V30 41 1 39 11
M  V30 42 1 40 11
M  V30 43 1 41 12
M  V30 44 1 42 12
M  V30 45 1 43 15
M  V30 46 1 44 16
M  V30 47 1 45 17
M  V30 48 1 46 20
M  V30 49 1 7 47 CFG=1
M  V30 END BOND
M  V30 END CTAB
M  END
>  <b_m_subgroup_collapsed>  (1633) 
0

>  <r_i_docking_score>  (1633) 
-6.9033400068370803

>  <s_m_subgroup_title>  (1633) 
glide-dock_SP_D22_pv

>  <s_m_subgroupid>  (1633) 
glide-dock_SP_D22_pv

>  <Molecule ChEMBL ID>  (1633) 
CHEMBL561054

>  <Standard Type>  (1633) 
Ki

>  <Standard Value>  (1633) 
25.12

>  <label>  (1633) 
1

$$$$
CHEMBL3763200
     RDKit          3D

  0  0  0  0  0  0  0  0  0  0999 V3000
M  V30 BEGIN CTAB
M  V30 COUNTS 56 59 0 0 1
M  V30 BEGIN ATOM
M  V30 1 C 9.565852 -0.203034 -15.372081 0
M  V30 2 N 8.863516 0.577996 -16.378996 0
M  V30 3 C 9.364254 1.275238 -17.422865 0
M  V30 4 S 11.087278 1.518549 -17.735329 0
M  V30 5 C 11.565329 2.564513 -16.314331 0
M  V30 6 C 10.599367 3.725874 -15.998085 0
M  V30 7 C 10.789880 4.234637 -14.555817 0
M  V30 8 N 9.613160 4.838970 -13.923472 0
M  V30 9 C 8.557855 3.852506 -13.676535 0
M  V30 10 C 7.373748 4.430291 -12.883322 0
M  V30 11 O 7.850591 4.962467 -11.657216 0
M  V30 12 C 8.814161 5.995089 -11.841584 0 CFG=1
M  V30 13 C 9.291111 6.563839 -10.517419 0
M  V30 14 C 9.868300 7.849656 -10.479867 0
M  V30 15 C 10.333425 8.383132 -9.263285 0
M  V30 16 C 10.232077 7.632308 -8.073893 0
M  V30 17 C 10.719657 8.218703 -6.760330 0
M  V30 18 F 11.034861 7.263278 -5.884315 0
M  V30 19 F 11.796503 8.981984 -6.956224 0
M  V30 20 F 9.749944 8.968346 -6.246859 0
M  V30 21 C 9.652605 6.346323 -8.111031 0
M  V30 22 C 9.191311 5.810025 -9.328045 0
M  V30 23 C 10.001407 5.422813 -12.641130 0
M  V30 24 N 8.421979 1.820310 -18.197384 0
M  V30 25 N 7.227669 1.492892 -17.610435 0
M  V30 26 C 7.532623 0.775648 -16.523218 0
M  V30 27 C 6.490852 0.340761 -15.597495 0
M  V30 28 C 5.405272 -0.446800 -16.037365 0
M  V30 29 C 4.373500 -0.743784 -15.123281 0
M  V30 30 N 4.364569 -0.297335 -13.849078 0
M  V30 31 C 5.415170 0.442636 -13.431789 0
M  V30 32 C 6.498811 0.779100 -14.259295 0
M  V30 33 H 10.550710 0.198639 -15.165692 0
M  V30 34 H 9.009115 -0.227231 -14.439679 0
M  V30 35 H 9.692906 -1.217531 -15.737062 0
M  V30 36 H 11.675778 1.923646 -15.443089 0
M  V30 37 H 12.561598 2.961402 -16.506672 0
M  V30 38 H 10.745196 4.540247 -16.708939 0
M  V30 39 H 9.571488 3.417798 -16.136541 0
M  V30 40 H 11.131697 3.414511 -13.923437 0
M  V30 41 H 11.611321 4.953497 -14.564837 0
M  V30 42 H 8.166840 3.463432 -14.614196 0
M  V30 43 H 8.967891 3.001442 -13.130166 0
M  V30 44 H 6.859829 5.208551 -13.447106 0
M  V30 45 H 6.641334 3.651869 -12.673421 0
M  V30 46 H 8.345896 6.805691 -12.404128 0
M  V30 47 H 9.949776 8.433283 -11.386209 0
M  V30 48 H 10.765337 9.373140 -9.244115 0
M  V30 49 H 9.550320 5.771282 -7.202363 0
M  V30 50 H 8.748159 4.825374 -9.341844 0
M  V30 51 H 10.485283 4.659628 -12.030819 0
M  V30 52 H 10.739307 6.208648 -12.805098 0
M  V30 53 H 5.352179 -0.799340 -17.056259 0
M  V30 54 H 3.525213 -1.338464 -15.429056 0
M  V30 55 H 5.387691 0.780244 -12.404861 0
M  V30 56 H 7.304143 1.388165 -13.876991 0
M  V30 END ATOM
M  V30 BEGIN BOND
M  V30 1 1 2 1
M  V30 2 1 3 2
M  V30 3 1 4 3
M  V30 4 1 5 4
M  V30 5 1 6 5
M  V30 6 1 7 6
M  V30 7 1 8 7
M  V30 8 1 9 8
M  V30 9 1 10 9
M  V30 10 1 11 10
M  V30 11 1 12 11
M  V30 12 1 13 12
M  V30 13 1 14 13
M  V30 14 2 15 14
M  V30 15 1 16 15
M  V30 16 1 17 16
M  V30 17 1 18 17
M  V30 18 1 19 17
M  V30 19 1 20 17
M  V30 20 2 21 16
M  V30 21 2 22 13
M  V30 22 1 22 21
M  V30 23 1 23 8
M  V30 24 1 23 12
M  V30 25 2 24 3
M  V30 26 1 25 24
M  V30 27 1 26 2
M  V30 28 2 26 25
M  V30 29 1 27 26
M  V30 30 1 28 27
M  V30 31 2 29 28
M  V30 32 1 30 29
M  V30 33 2 31 30
M  V30 34 2 32 27
M  V30 35 1 32 31
M  V30 36 1 33 1
M  V30 37 1 34 1
M  V30 38 1 35 1
M  V30 39 1 36 5
M  V30 40 1 37 5
M  V30 41 1 38 6
M  V30 42 1 39 6
M  V30 43 1 40 7
M  V30 44 1 41 7
M  V30 45 1 42 9
M  V30 46 1 43 9
M  V30 47 1 44 10
M  V30 48 1 45 10
M  V30 49 1 12 46 CFG=3
M  V30 50 1 47 14
M  V30 51 1 48 15
M  V30 52 1 49 21
M  V30 53 1 50 22
M  V30 54 1 51 23
M  V30 55 1 52 23
M  V30 56 1 53 28
M  V30 57 1 54 29
M  V30 58 1 55 31
M  V30 59 1 56 32
M  V30 END BOND
M  V30 END CTAB
M  END
>  <b_m_subgroup_collapsed>  (1634) 
0

>  <r_i_docking_score>  (1634) 
-6.90323022152685

>  <s_m_subgroup_title>  (1634) 
glide-dock_SP_D22_pv

>  <s_m_subgroupid>  (1634) 
glide-dock_SP_D22_pv

>  <Molecule ChEMBL ID>  (1634) 
CHEMBL3763200

>  <Standard Type>  (1634) 
Ki

>  <Standard Value>  (1634) 
11749.0

>  <label>  (1634) 
0

$$$$
CHEMBL218318
     RDKit          3D

  0  0  0  0  0  0  0  0  0  0999 V3000
M  V30 BEGIN CTAB
M  V30 COUNTS 61 64 0 0 1
M  V30 BEGIN ATOM
M  V30 1 C 11.933042 10.813300 -6.246716 0
M  V30 2 O 11.002126 10.464618 -5.235420 0
M  V30 3 C 11.349476 9.324829 -4.555208 0
M  V30 4 C 11.781197 9.462541 -3.221205 0
M  V30 5 C 12.160139 8.336160 -2.469423 0
M  V30 6 C 12.111752 7.058417 -3.051817 0
M  V30 7 C 11.686022 6.912872 -4.384622 0
M  V30 8 C 11.286288 8.033033 -5.146101 0
M  V30 9 N 10.802954 7.820652 -6.449137 0
M  V30 10 C 11.609645 7.133661 -7.442723 0
M  V30 11 C 10.718884 6.187275 -8.249241 0
M  V30 12 N 9.517585 6.849876 -8.803075 0 CHG=1
M  V30 13 C 8.664858 5.889146 -9.550819 0
M  V30 14 C 9.051954 5.809582 -11.035057 0
M  V30 15 C 8.158393 4.837596 -11.818054 0
M  V30 16 C 8.680870 4.552592 -13.233375 0
M  V30 17 N 7.904243 3.481968 -13.846724 0
M  V30 18 C 8.402979 2.488441 -14.597490 0
M  V30 19 O 9.579586 2.426615 -14.949444 0
M  V30 20 C 7.426318 1.486946 -15.064031 0
M  V30 21 C 7.369121 0.850459 -16.278065 0
M  V30 22 C 6.209198 -0.005491 -16.377674 0
M  V30 23 C 5.717664 -0.765052 -17.463173 0
M  V30 24 C 4.524202 -1.507306 -17.368135 0
M  V30 25 C 4.054482 -2.265834 -18.516357 0
M  V30 26 N 3.686200 -2.866939 -19.433401 0
M  V30 27 C 3.794206 -1.506242 -16.165314 0
M  V30 28 C 4.260857 -0.781193 -15.057525 0
M  V30 29 C 5.451950 -0.040991 -15.162384 0
M  V30 30 S 6.194339 0.971910 -13.934785 0
M  V30 31 C 8.766033 7.623140 -7.781938 0
M  V30 32 C 9.650534 8.546046 -6.948865 0
M  V30 33 H 11.686132 11.772428 -6.686910 0
M  V30 34 H 12.933565 10.888823 -5.846884 0
M  V30 35 H 11.976794 10.081742 -7.046854 0
M  V30 36 H 11.824042 10.442702 -2.768821 0
M  V30 37 H 12.482741 8.456404 -1.446046 0
M  V30 38 H 12.395228 6.188351 -2.477894 0
M  V30 39 H 11.632147 5.922481 -4.811077 0
M  V30 40 H 12.067076 7.874360 -8.099813 0
M  V30 41 H 12.421726 6.564229 -6.999010 0
M  V30 42 H 11.285151 5.772456 -9.073398 0
M  V30 43 H 10.404166 5.372319 -7.600940 0
M  V30 44 H 8.713018 4.901028 -9.090301 0
M  V30 45 H 7.624067 6.172314 -9.479062 0
M  V30 46 H 8.996166 6.799635 -11.491061 0
M  V30 47 H 10.085986 5.481843 -11.120564 0
M  V30 48 H 8.094273 3.897404 -11.271924 0
M  V30 49 H 7.139360 5.230621 -11.864694 0
M  V30 50 H 8.612720 5.447670 -13.854246 0
M  V30 51 H 9.737229 4.278200 -13.186440 0
M  V30 52 H 6.915710 3.455832 -13.643778 0
M  V30 53 H 8.070221 1.009801 -17.083815 0
M  V30 54 H 6.270916 -0.764237 -18.390619 0
M  V30 55 H 2.886300 -2.086180 -16.084146 0
M  V30 56 H 3.695088 -0.781171 -14.139465 0
M  V30 57 H 8.086028 8.282216 -8.303196 0
M  V30 58 H 8.195504 6.955001 -7.133893 0
M  V30 59 H 9.063421 8.972777 -6.139849 0
M  V30 60 H 9.983179 9.371792 -7.573863 0
M  V30 61 H 9.834683 7.537588 -9.469947 0
M  V30 END ATOM
M  V30 BEGIN BOND
M  V30 1 1 2 1
M  V30 2 1 3 2
M  V30 3 2 4 3
M  V30 4 1 5 4
M  V30 5 2 6 5
M  V30 6 1 7 6
M  V30 7 1 8 3
M  V30 8 2 8 7
M  V30 9 1 9 8
M  V30 10 1 10 9
M  V30 11 1 11 10
M  V30 12 1 12 11
M  V30 13 1 13 12
M  V30 14 1 14 13
M  V30 15 1 15 14
M  V30 16 1 16 15
M  V30 17 1 17 16
M  V30 18 1 18 17
M  V30 19 2 19 18
M  V30 20 1 20 18
M  V30 21 2 21 20
M  V30 22 1 22 21
M  V30 23 1 23 22
M  V30 24 2 24 23
M  V30 25 1 25 24
M  V30 26 3 26 25
M  V30 27 1 27 24
M  V30 28 2 28 27
M  V30 29 2 29 22
M  V30 30 1 29 28
M  V30 31 1 30 20
M  V30 32 1 30 29
M  V30 33 1 31 12
M  V30 34 1 32 9
M  V30 35 1 32 31
M  V30 36 1 33 1
M  V30 37 1 34 1
M  V30 38 1 35 1
M  V30 39 1 36 4
M  V30 40 1 37 5
M  V30 41 1 38 6
M  V30 42 1 39 7
M  V30 43 1 40 10
M  V30 44 1 41 10
M  V30 45 1 42 11
M  V30 46 1 43 11
M  V30 47 1 44 13
M  V30 48 1 45 13
M  V30 49 1 46 14
M  V30 50 1 47 14
M  V30 51 1 48 15
M  V30 52 1 49 15
M  V30 53 1 50 16
M  V30 54 1 51 16
M  V30 55 1 52 17
M  V30 56 1 53 21
M  V30 57 1 54 23
M  V30 58 1 55 27
M  V30 59 1 56 28
M  V30 60 1 57 31
M  V30 61 1 58 31
M  V30 62 1 59 32
M  V30 63 1 60 32
M  V30 64 1 61 12
M  V30 END BOND
M  V30 END CTAB
M  END
>  <b_m_subgroup_collapsed>  (1635) 
0

>  <r_i_docking_score>  (1635) 
-6.9021289648202497

>  <s_m_subgroup_title>  (1635) 
glide-dock_SP_D22_pv

>  <s_m_subgroupid>  (1635) 
glide-dock_SP_D22_pv

>  <Molecule ChEMBL ID>  (1635) 
CHEMBL218318

>  <Standard Type>  (1635) 
Ki

>  <Standard Value>  (1635) 
67.61

>  <label>  (1635) 
1

$$$$
CHEMBL344677
     RDKit          3D

  0  0  0  0  0  0  0  0  0  0999 V3000
M  V30 BEGIN CTAB
M  V30 COUNTS 60 63 0 0 1
M  V30 BEGIN ATOM
M  V30 1 C 11.816235 11.362120 -6.339097 0
M  V30 2 O 11.110520 10.183039 -6.646853 0
M  V30 3 C 11.295440 9.105980 -5.819397 0
M  V30 4 C 11.903998 9.226055 -4.539093 0
M  V30 5 C 12.097857 8.106052 -3.717216 0
M  V30 6 C 11.685961 6.847700 -4.168982 0
M  V30 7 C 11.053579 6.734056 -5.419774 0
M  V30 8 C 10.839972 7.838978 -6.264947 0
M  V30 9 N 10.207159 7.624346 -7.515689 0
M  V30 10 C 8.989743 6.823612 -7.590562 0
M  V30 11 C 9.026272 5.919172 -8.838316 0
M  V30 12 N 9.285934 6.683506 -10.093847 0 CHG=1
M  V30 13 C 9.415802 5.794152 -11.287938 0
M  V30 14 C 8.173784 5.765543 -12.197166 0
M  V30 15 C 6.961597 5.097699 -11.541339 0
M  V30 16 C 5.775715 4.820076 -12.480395 0
M  V30 17 N 6.048099 3.725349 -13.407105 0
M  V30 18 C 5.804580 2.427851 -13.152061 0
M  V30 19 O 5.286012 2.032520 -12.113881 0
M  V30 20 C 6.197467 1.467171 -14.241885 0
M  V30 21 C 7.353749 1.673405 -14.970647 0
M  V30 22 C 7.694641 0.821429 -16.046255 0
M  V30 23 C 6.876984 -0.227708 -16.389561 0
M  V30 24 C 5.706230 -0.480213 -15.629835 0
M  V30 25 C 4.694512 -1.398537 -15.688890 0
M  V30 26 C 3.817096 -1.027605 -14.646791 0
M  V30 27 N 4.230325 -0.001477 -13.940407 0
M  V30 28 N 5.413171 0.377952 -14.545526 0
M  V30 29 C 10.468824 7.584313 -9.970645 0
M  V30 30 C 10.472436 8.442444 -8.693042 0
M  V30 31 H 11.686031 12.111674 -7.116181 0
M  V30 32 H 11.413837 11.772319 -5.424313 0
M  V30 33 H 12.884453 11.165762 -6.246886 0
M  V30 34 H 12.237833 10.172310 -4.148902 0
M  V30 35 H 12.566513 8.212922 -2.749768 0
M  V30 36 H 11.832875 5.972584 -3.552800 0
M  V30 37 H 10.733949 5.772328 -5.752487 0
M  V30 38 H 8.140766 7.505474 -7.643899 0
M  V30 39 H 8.829110 6.222521 -6.696070 0
M  V30 40 H 8.086061 5.375486 -8.920310 0
M  V30 41 H 9.809681 5.171050 -8.703315 0
M  V30 42 H 9.685803 4.779850 -10.988446 0
M  V30 43 H 10.246242 6.133506 -11.909319 0
M  V30 44 H 8.429750 5.217402 -13.104439 0
M  V30 45 H 7.914443 6.776292 -12.515417 0
M  V30 46 H 6.620554 5.772320 -10.761989 0
M  V30 47 H 7.258375 4.172034 -11.046799 0
M  V30 48 H 5.522950 5.716763 -13.046899 0
M  V30 49 H 4.897625 4.574769 -11.880381 0
M  V30 50 H 6.439745 3.964558 -14.304839 0
M  V30 51 H 8.014434 2.499487 -14.726847 0
M  V30 52 H 8.603714 0.998402 -16.612833 0
M  V30 53 H 7.124044 -0.886342 -17.215431 0
M  V30 54 H 4.566383 -2.218222 -16.382433 0
M  V30 55 H 2.886027 -1.505475 -14.383799 0
M  V30 56 H 11.372501 6.972270 -9.970744 0
M  V30 57 H 10.530082 8.233655 -10.845065 0
M  V30 58 H 9.714767 9.225007 -8.758054 0
M  V30 59 H 11.444444 8.930781 -8.618641 0
M  V30 60 H 8.461788 7.265165 -10.233152 0
M  V30 END ATOM
M  V30 BEGIN BOND
M  V30 1 1 2 1
M  V30 2 1 3 2
M  V30 3 2 4 3
M  V30 4 1 5 4
M  V30 5 2 6 5
M  V30 6 1 7 6
M  V30 7 1 8 3
M  V30 8 2 8 7
M  V30 9 1 9 8
M  V30 10 1 10 9
M  V30 11 1 11 10
M  V30 12 1 12 11
M  V30 13 1 13 12
M  V30 14 1 14 13
M  V30 15 1 15 14
M  V30 16 1 16 15
M  V30 17 1 17 16
M  V30 18 1 18 17
M  V30 19 2 19 18
M  V30 20 1 20 18
M  V30 21 2 21 20
M  V30 22 1 22 21
M  V30 23 2 23 22
M  V30 24 1 24 23
M  V30 25 2 25 24
M  V30 26 1 26 25
M  V30 27 2 27 26
M  V30 28 1 28 20
M  V30 29 1 28 24
M  V30 30 1 28 27
M  V30 31 1 29 12
M  V30 32 1 30 9
M  V30 33 1 30 29
M  V30 34 1 31 1
M  V30 35 1 32 1
M  V30 36 1 33 1
M  V30 37 1 34 4
M  V30 38 1 35 5
M  V30 39 1 36 6
M  V30 40 1 37 7
M  V30 41 1 38 10
M  V30 42 1 39 10
M  V30 43 1 40 11
M  V30 44 1 41 11
M  V30 45 1 42 13
M  V30 46 1 43 13
M  V30 47 1 44 14
M  V30 48 1 45 14
M  V30 49 1 46 15
M  V30 50 1 47 15
M  V30 51 1 48 16
M  V30 52 1 49 16
M  V30 53 1 50 17
M  V30 54 1 51 21
M  V30 55 1 52 22
M  V30 56 1 53 23
M  V30 57 1 54 25
M  V30 58 1 55 26
M  V30 59 1 56 29
M  V30 60 1 57 29
M  V30 61 1 58 30
M  V30 62 1 59 30
M  V30 63 1 60 12
M  V30 END BOND
M  V30 END CTAB
M  END
>  <b_m_subgroup_collapsed>  (1636) 
0

>  <r_i_docking_score>  (1636) 
-6.9021142917885401

>  <s_m_subgroup_title>  (1636) 
glide-dock_SP_D22_pv

>  <s_m_subgroupid>  (1636) 
glide-dock_SP_D22_pv

>  <Molecule ChEMBL ID>  (1636) 
CHEMBL344677

>  <Standard Type>  (1636) 
Ki

>  <Standard Value>  (1636) 
34.0

>  <label>  (1636) 
1

$$$$
CHEMBL4090862
     RDKit          3D

  0  0  0  0  0  0  0  0  0  0999 V3000
M  V30 BEGIN CTAB
M  V30 COUNTS 45 49 0 0 1
M  V30 BEGIN ATOM
M  V30 1 C 6.147042 3.597911 -13.340709 0
M  V30 2 C 7.580354 3.537160 -13.846816 0
M  V30 3 C 8.042506 2.466818 -14.679235 0
M  V30 4 C 7.135334 1.310578 -15.067438 0
M  V30 5 O 7.323068 0.175315 -14.245797 0
M  V30 6 O 9.346510 2.399989 -15.166616 0
M  V30 7 C 10.224887 3.382215 -14.763906 0
M  V30 8 C 11.582058 3.471564 -15.142404 0
M  V30 9 C 12.404145 4.512589 -14.642824 0
M  V30 10 C 11.893023 5.467484 -13.732199 0
M  V30 11 C 10.537112 5.406249 -13.336501 0
M  V30 12 C 9.803247 4.393208 -13.905474 0
M  V30 13 C 8.518057 4.532434 -13.461585 0
M  V30 14 C 8.399646 5.641018 -12.658818 0
M  V30 15 N 9.730182 6.116061 -12.503675 0
M  V30 16 S 10.193513 7.399742 -11.417805 0
M  V30 17 O 11.648360 7.546044 -11.577435 0
M  V30 18 O 9.287419 8.513024 -11.742337 0
M  V30 19 C 9.854051 6.847429 -9.716866 0
M  V30 20 C 8.942278 5.784113 -9.523695 0
M  V30 21 C 8.486154 5.449368 -8.246743 0
M  V30 22 C 8.931006 6.172338 -7.138015 0
M  V30 23 C 9.942098 7.127608 -7.280039 0
M  V30 24 C 10.461860 7.701045 -6.105324 0
M  V30 25 C 11.504523 8.627728 -6.181417 0
M  V30 26 C 12.019534 8.972341 -7.437657 0
M  V30 27 C 11.464667 8.448272 -8.627228 0
M  V30 28 C 10.425403 7.484921 -8.569855 0
M  V30 29 H 6.022190 4.338685 -12.551332 0
M  V30 30 H 5.472558 3.859044 -14.155950 0
M  V30 31 H 5.842021 2.636150 -12.927676 0
M  V30 32 H 7.360016 1.029880 -16.096834 0
M  V30 33 H 6.086021 1.594668 -15.047536 0
M  V30 34 H 6.904506 -0.568022 -14.655249 0
M  V30 35 H 11.998404 2.738021 -15.817140 0
M  V30 36 H 13.438245 4.571796 -14.947876 0
M  V30 37 H 12.553290 6.236987 -13.364029 0
M  V30 38 H 7.568402 6.086423 -12.128225 0
M  V30 39 H 8.522548 5.211161 -10.323997 0
M  V30 40 H 7.751818 4.669169 -8.122457 0
M  V30 41 H 8.530385 5.947273 -6.163153 0
M  V30 42 H 10.085945 7.405225 -5.137722 0
M  V30 43 H 11.928172 9.050385 -5.282217 0
M  V30 44 H 12.849356 9.659562 -7.447083 0
M  V30 45 H 11.885309 8.779285 -9.562908 0
M  V30 END ATOM
M  V30 BEGIN BOND
M  V30 1 1 2 1
M  V30 2 2 3 2
M  V30 3 1 4 3
M  V30 4 1 5 4
M  V30 5 1 6 3
M  V30 6 1 7 6
M  V30 7 1 8 7
M  V30 8 2 9 8
M  V30 9 1 10 9
M  V30 10 2 11 10
M  V30 11 2 12 7
M  V30 12 1 12 11
M  V30 13 1 13 2
M  V30 14 1 13 12
M  V30 15 2 14 13
M  V30 16 1 15 11
M  V30 17 1 15 14
M  V30 18 1 16 15
M  V30 19 2 17 16
M  V30 20 2 18 16
M  V30 21 1 19 16
M  V30 22 2 20 19
M  V30 23 1 21 20
M  V30 24 2 22 21
M  V30 25 1 23 22
M  V30 26 2 24 23
M  V30 27 1 25 24
M  V30 28 2 26 25
M  V30 29 1 27 26
M  V30 30 1 28 19
M  V30 31 1 28 23
M  V30 32 2 28 27
M  V30 33 1 29 1
M  V30 34 1 30 1
M  V30 35 1 31 1
M  V30 36 1 32 4
M  V30 37 1 33 4
M  V30 38 1 34 5
M  V30 39 1 35 8
M  V30 40 1 36 9
M  V30 41 1 37 10
M  V30 42 1 38 14
M  V30 43 1 39 20
M  V30 44 1 40 21
M  V30 45 1 41 22
M  V30 46 1 42 24
M  V30 47 1 43 25
M  V30 48 1 44 26
M  V30 49 1 45 27
M  V30 END BOND
M  V30 END CTAB
M  END
>  <b_m_subgroup_collapsed>  (1637) 
0

>  <r_i_docking_score>  (1637) 
-6.8963131599001697

>  <s_m_subgroup_title>  (1637) 
glide-dock_SP_D22_pv

>  <s_m_subgroupid>  (1637) 
glide-dock_SP_D22_pv

>  <Molecule ChEMBL ID>  (1637) 
CHEMBL4090862

>  <Standard Type>  (1637) 
Ki

>  <Standard Value>  (1637) 
10000.0

>  <label>  (1637) 
0

$$$$
CHEMBL1221512
     RDKit          3D

  0  0  0  0  0  0  0  0  0  0999 V3000
M  V30 BEGIN CTAB
M  V30 COUNTS 83 83 0 0 1
M  V30 BEGIN ATOM
M  V30 1 C 5.687666 2.588080 -13.363912 0
M  V30 2 C 6.876587 3.555423 -13.361732 0
M  V30 3 C 6.862014 4.551483 -12.189645 0 CFG=2
M  V30 4 C 5.916160 5.731392 -12.472810 0
M  V30 5 C 8.284693 5.004365 -11.780026 0 CFG=1
M  V30 6 C 9.056428 5.754450 -12.903106 0
M  V30 7 O 10.312344 5.110257 -13.129816 0
M  V30 8 C 10.880507 5.269867 -14.436664 0 CFG=1
M  V30 9 C 12.352068 4.815219 -14.395215 0
M  V30 10 C 13.093436 5.204289 -15.665830 0
M  V30 11 C 13.285811 4.259019 -16.697054 0
M  V30 12 C 13.917109 4.636815 -17.896332 0
M  V30 13 C 14.348372 5.965621 -18.076996 0
M  V30 14 C 14.156101 6.911530 -17.052794 0
M  V30 15 C 13.534885 6.530760 -15.847153 0
M  V30 16 C 10.090735 4.435858 -15.468654 0
M  V30 17 O 9.440171 3.464338 -15.097094 0
M  V30 18 N 10.177175 4.826917 -16.752666 0
M  V30 19 C 9.611875 4.230381 -17.974871 0 CFG=1
M  V30 20 C 10.429084 4.697879 -19.206287 0
M  V30 21 C 9.566068 5.204801 -20.372658 0
M  V30 22 S 8.899142 6.891328 -20.055576 0
M  V30 23 C 10.386601 7.950507 -20.265457 0
M  V30 24 O 7.950003 7.220670 -21.127649 0
M  V30 25 O 8.485646 6.972484 -18.649258 0
M  V30 26 C 9.392877 2.705235 -17.940338 0
M  V30 27 O 8.297056 2.172778 -18.123903 0
M  V30 28 O 10.553867 2.063075 -17.687422 0
M  V30 29 C 10.591986 0.653526 -17.528856 0
M  V30 30 C 10.452066 0.306979 -16.038952 0
M  V30 31 C 11.920758 0.163582 -18.114222 0
M  V30 32 N 8.211791 5.772326 -10.513639 0 CHG=1
M  V30 33 C 9.501594 5.960380 -9.817501 0
M  V30 34 C 9.345718 6.876062 -8.592333 0 CFG=1
M  V30 35 N 8.486040 6.221498 -7.623473 0
M  V30 36 C 10.701834 7.188410 -7.931532 0
M  V30 37 S 10.487928 8.452186 -6.644803 0
M  V30 38 H 5.752324 1.903073 -14.208969 0
M  V30 39 H 5.663186 1.988201 -12.453826 0
M  V30 40 H 4.743303 3.123989 -13.439931 0
M  V30 41 H 6.911197 4.095138 -14.304886 0
M  V30 42 H 7.790970 2.971677 -13.325813 0
M  V30 43 H 6.454265 4.002476 -11.340827 0
M  V30 44 H 6.394537 6.524493 -13.045448 0
M  V30 45 H 5.052975 5.405886 -13.048266 0
M  V30 46 H 5.550604 6.172494 -11.545077 0
M  V30 47 H 8.840354 4.095464 -11.545585 0
M  V30 48 H 8.462673 5.772530 -13.815128 0
M  V30 49 H 9.223921 6.800629 -12.646375 0
M  V30 50 H 10.885731 6.324895 -14.706456 0
M  V30 51 H 12.849882 5.277362 -13.542761 0
M  V30 52 H 12.419357 3.738844 -14.235868 0
M  V30 53 H 12.942486 3.241216 -16.575878 0
M  V30 54 H 14.060201 3.910696 -18.683762 0
M  V30 55 H 14.827303 6.259046 -18.999495 0
M  V30 56 H 14.486799 7.930610 -17.190556 0
M  V30 57 H 13.386233 7.264695 -15.068215 0
M  V30 58 H 10.756299 5.638240 -16.915356 0
M  V30 59 H 8.617753 4.667438 -18.047075 0
M  V30 60 H 11.135040 5.480239 -18.926126 0
M  V30 61 H 11.056884 3.883173 -19.565229 0
M  V30 62 H 10.141150 5.245101 -21.298115 0
M  V30 63 H 8.719961 4.539280 -20.547045 0
M  V30 64 H 10.085753 8.997764 -20.248123 0
M  V30 65 H 11.091234 7.772710 -19.453493 0
M  V30 66 H 10.860272 7.732221 -21.223108 0
M  V30 67 H 9.781551 0.183992 -18.086243 0
M  V30 68 H 10.485964 -0.769953 -15.880998 0
M  V30 69 H 11.248760 0.759049 -15.448867 0
M  V30 70 H 9.502577 0.665916 -15.640338 0
M  V30 71 H 12.018252 -0.916753 -18.014681 0
M  V30 72 H 11.993400 0.405936 -19.174255 0
M  V30 73 H 12.768670 0.626470 -17.609602 0
M  V30 74 H 7.617316 5.258020 -9.875207 0
M  V30 75 H 10.219622 6.406623 -10.504394 0
M  V30 76 H 9.906437 4.989997 -9.524288 0
M  V30 77 H 8.880279 7.814223 -8.896991 0
M  V30 78 H 8.709880 6.574510 -6.703431 0
M  V30 79 H 7.529656 6.556185 -7.790512 0
M  V30 80 H 11.404751 7.575109 -8.671555 0
M  V30 81 H 11.150412 6.292852 -7.497604 0
M  V30 82 H 9.933502 9.372486 -7.439915 0
M  V30 83 H 7.748355 6.671927 -10.647438 0
M  V30 END ATOM
M  V30 BEGIN BOND
M  V30 1 1 2 1
M  V30 2 1 3 2
M  V30 3 1 4 3
M  V30 4 1 5 3
M  V30 5 1 6 5
M  V30 6 1 7 6
M  V30 7 1 8 7
M  V30 8 1 9 8
M  V30 9 1 10 9
M  V30 10 2 11 10
M  V30 11 1 12 11
M  V30 12 2 13 12
M  V30 13 1 14 13
M  V30 14 1 15 10
M  V30 15 2 15 14
M  V30 16 1 16 8
M  V30 17 2 17 16
M  V30 18 1 18 16
M  V30 19 1 19 18
M  V30 20 1 20 19
M  V30 21 1 21 20
M  V30 22 1 22 21
M  V30 23 1 23 22
M  V30 24 2 24 22
M  V30 25 2 25 22
M  V30 26 1 26 19
M  V30 27 2 27 26
M  V30 28 1 28 26
M  V30 29 1 29 28
M  V30 30 1 30 29
M  V30 31 1 31 29
M  V30 32 1 32 5
M  V30 33 1 33 32
M  V30 34 1 34 33
M  V30 35 1 35 34
M  V30 36 1 36 34
M  V30 37 1 37 36
M  V30 38 1 38 1
M  V30 39 1 39 1
M  V30 40 1 40 1
M  V30 41 1 41 2
M  V30 42 1 42 2
M  V30 43 1 3 43 CFG=1
M  V30 44 1 44 4
M  V30 45 1 45 4
M  V30 46 1 46 4
M  V30 47 1 5 47 CFG=1
M  V30 48 1 48 6
M  V30 49 1 49 6
M  V30 50 1 8 50 CFG=3
M  V30 51 1 51 9
M  V30 52 1 52 9
M  V30 53 1 53 11
M  V30 54 1 54 12
M  V30 55 1 55 13
M  V30 56 1 56 14
M  V30 57 1 57 15
M  V30 58 1 58 18
M  V30 59 1 19 59 CFG=3
M  V30 60 1 60 20
M  V30 61 1 61 20
M  V30 62 1 62 21
M  V30 63 1 63 21
M  V30 64 1 64 23
M  V30 65 1 65 23
M  V30 66 1 66 23
M  V30 67 1 67 29
M  V30 68 1 68 30
M  V30 69 1 69 30
M  V30 70 1 70 30
M  V30 71 1 71 31
M  V30 72 1 72 31
M  V30 73 1 73 31
M  V30 74 1 74 32
M  V30 75 1 75 33
M  V30 76 1 76 33
M  V30 77 1 34 77 CFG=3
M  V30 78 1 78 35
M  V30 79 1 79 35
M  V30 80 1 80 36
M  V30 81 1 81 36
M  V30 82 1 82 37
M  V30 83 1 83 32
M  V30 END BOND
M  V30 END CTAB
M  END
>  <b_m_subgroup_collapsed>  (1638) 
0

>  <r_i_docking_score>  (1638) 
-6.89493535709751

>  <s_m_subgroup_title>  (1638) 
glide-dock_SP_D22_pv

>  <s_m_subgroupid>  (1638) 
glide-dock_SP_D22_pv

>  <Molecule ChEMBL ID>  (1638) 
CHEMBL1221512

>  <Standard Type>  (1638) 
Ki

>  <Standard Value>  (1638) 
52.0

>  <label>  (1638) 
1

$$$$
CHEMBL303979
     RDKit          3D

  0  0  0  0  0  0  0  0  0  0999 V3000
M  V30 BEGIN CTAB
M  V30 COUNTS 40 43 0 0 1
M  V30 BEGIN ATOM
M  V30 1 F 13.118794 7.951271 -14.139673 0
M  V30 2 C 12.112884 7.117256 -13.799026 0
M  V30 3 C 11.711524 6.096509 -14.684237 0
M  V30 4 C 10.639119 5.249111 -14.343262 0
M  V30 5 C 9.953504 5.416173 -13.122923 0
M  V30 6 C 10.382522 6.436387 -12.228880 0
M  V30 7 C 11.461339 7.276508 -12.560487 0
M  V30 8 C 9.659667 6.559167 -10.907364 0 CFG=2
M  V30 9 C 10.417441 6.992207 -9.649932 0
M  V30 10 N 9.659719 6.386659 -8.519614 0 CFG=1 CHG=1
M  V30 11 C 9.127770 7.332422 -7.514914 0
M  V30 12 C 10.220155 7.903831 -6.627819 0
M  V30 13 C 10.709519 7.165203 -5.528632 0
M  V30 14 C 11.648507 7.737844 -4.646073 0
M  V30 15 C 12.100549 9.053583 -4.857462 0
M  V30 16 C 11.646879 9.780310 -5.976586 0
M  V30 17 C 10.712743 9.202699 -6.858150 0
M  V30 18 C 8.622965 5.501426 -9.104759 0
M  V30 19 C 9.116712 5.212238 -10.513111 0 CFG=1
M  V30 20 C 8.160231 4.766765 -11.621770 0
M  V30 21 O 8.908955 4.553638 -12.827850 0
M  V30 22 H 12.223317 5.974504 -15.628854 0
M  V30 23 H 10.334146 4.470603 -15.029033 0
M  V30 24 H 11.794312 8.043926 -11.875085 0
M  V30 25 H 8.832176 7.256512 -11.063040 0
M  V30 26 H 11.419946 6.573789 -9.642153 0
M  V30 27 H 10.512555 8.074531 -9.585871 0
M  V30 28 H 8.565185 8.132888 -7.998852 0
M  V30 29 H 8.413739 6.815438 -6.871010 0
M  V30 30 H 10.335547 6.172994 -5.331241 0
M  V30 31 H 12.001047 7.173635 -3.794776 0
M  V30 32 H 12.813034 9.497589 -4.176713 0
M  V30 33 H 12.012852 10.782056 -6.152130 0
M  V30 34 H 10.353419 9.765188 -7.705164 0
M  V30 35 H 8.463417 4.600661 -8.513001 0
M  V30 36 H 7.685415 6.042082 -9.163033 0
M  V30 37 H 9.927528 4.484343 -10.441381 0
M  V30 38 H 7.657166 3.840604 -11.350907 0
M  V30 39 H 7.380893 5.508688 -11.798524 0
M  V30 40 H 10.309050 5.788917 -8.030189 0
M  V30 END ATOM
M  V30 BEGIN BOND
M  V30 1 1 2 1
M  V30 2 1 3 2
M  V30 3 2 4 3
M  V30 4 1 5 4
M  V30 5 2 6 5
M  V30 6 2 7 2
M  V30 7 1 7 6
M  V30 8 1 8 6
M  V30 9 1 9 8
M  V30 10 1 10 9
M  V30 11 1 11 10
M  V30 12 1 12 11
M  V30 13 2 13 12
M  V30 14 1 14 13
M  V30 15 2 15 14
M  V30 16 1 16 15
M  V30 17 1 17 12
M  V30 18 2 17 16
M  V30 19 1 18 10
M  V30 20 1 19 8
M  V30 21 1 19 18
M  V30 22 1 20 19
M  V30 23 1 21 5
M  V30 24 1 21 20
M  V30 25 1 22 3
M  V30 26 1 23 4
M  V30 27 1 24 7
M  V30 28 1 8 25 CFG=3
M  V30 29 1 26 9
M  V30 30 1 27 9
M  V30 31 1 28 11
M  V30 32 1 29 11
M  V30 33 1 30 13
M  V30 34 1 31 14
M  V30 35 1 32 15
M  V30 36 1 33 16
M  V30 37 1 34 17
M  V30 38 1 35 18
M  V30 39 1 36 18
M  V30 40 1 19 37 CFG=1
M  V30 41 1 38 20
M  V30 42 1 39 20
M  V30 43 1 10 40 CFG=1
M  V30 END BOND
M  V30 END CTAB
M  END
>  <b_m_subgroup_collapsed>  (1639) 
0

>  <r_i_docking_score>  (1639) 
-6.8949333037649501

>  <s_m_subgroup_title>  (1639) 
glide-dock_SP_D22_pv

>  <s_m_subgroupid>  (1639) 
glide-dock_SP_D22_pv

>  <Molecule ChEMBL ID>  (1639) 
CHEMBL303979

>  <Standard Type>  (1639) 
Ki

>  <Standard Value>  (1639) 
25.12

>  <label>  (1639) 
1

$$$$
CHEMBL5781514
     RDKit          3D

  0  0  0  0  0  0  0  0  0  0999 V3000
M  V30 BEGIN CTAB
M  V30 COUNTS 45 47 0 0 1
M  V30 BEGIN ATOM
M  V30 1 C 8.885775 8.325988 -11.535497 0
M  V30 2 C 9.748068 7.257179 -10.834664 0 CFG=2
M  V30 3 O 10.662824 6.701474 -11.786648 0
M  V30 4 C 10.274525 5.835686 -12.795844 0
M  V30 5 C 11.308296 5.374451 -13.639329 0
M  V30 6 C 11.046437 4.457724 -14.675192 0
M  V30 7 C 9.736486 3.989550 -14.883208 0
M  V30 8 Cl 9.412388 2.853409 -16.140160 0
M  V30 9 C 8.691725 4.453114 -14.062500 0
M  V30 10 C 8.953296 5.374911 -13.031134 0
M  V30 11 C 8.998790 6.152087 -10.034352 0
M  V30 12 C 9.414597 6.321184 -8.577588 0
M  V30 13 N 10.749654 6.935820 -8.678053 0 CFG=2 CHG=1
M  V30 14 C 11.436195 7.371197 -7.430987 0
M  V30 15 C 10.504484 7.733675 -6.258827 0
M  V30 16 N 11.265704 8.068815 -5.045961 0
M  V30 17 C 11.686090 6.985937 -4.244577 0
M  V30 18 C 12.273452 7.168804 -3.050730 0
M  V30 19 C 12.467069 8.522429 -2.589540 0
M  V30 20 C 12.085462 9.561560 -3.357651 0
M  V30 21 C 11.474685 9.369297 -4.677943 0
M  V30 22 O 11.143064 10.313124 -5.395495 0
M  V30 23 C 10.646344 7.923480 -9.764660 0
M  V30 24 H 8.379642 8.971554 -10.816374 0
M  V30 25 H 9.500549 8.972300 -12.160951 0
M  V30 26 H 8.114584 7.895292 -12.172448 0
M  V30 27 H 12.321150 5.716014 -13.477609 0
M  V30 28 H 11.852593 4.109045 -15.304399 0
M  V30 29 H 7.684135 4.099594 -14.222351 0
M  V30 30 H 8.118040 5.698803 -12.431293 0
M  V30 31 H 7.917233 6.172292 -10.152438 0
M  V30 32 H 9.325252 5.162060 -10.352453 0
M  V30 33 H 8.708312 6.992957 -8.086220 0
M  V30 34 H 9.430783 5.374644 -8.035013 0
M  V30 35 H 12.081532 6.548371 -7.118110 0
M  V30 36 H 12.105914 8.203450 -7.653736 0
M  V30 37 H 9.834558 8.545186 -6.550362 0
M  V30 38 H 9.850446 6.893989 -6.016524 0
M  V30 39 H 11.486048 6.006665 -4.655305 0
M  V30 40 H 12.575774 6.323871 -2.448539 0
M  V30 41 H 12.902886 8.705589 -1.617188 0
M  V30 42 H 12.212600 10.565816 -2.982872 0
M  V30 43 H 11.624966 8.209107 -10.153569 0
M  V30 44 H 10.175402 8.822906 -9.361814 0
M  V30 45 H 11.335108 6.208526 -9.063281 0
M  V30 END ATOM
M  V30 BEGIN BOND
M  V30 1 1 2 1
M  V30 2 1 2 3 CFG=3
M  V30 3 1 4 3
M  V30 4 1 5 4
M  V30 5 2 6 5
M  V30 6 1 7 6
M  V30 7 1 8 7
M  V30 8 2 9 7
M  V30 9 2 10 4
M  V30 10 1 10 9
M  V30 11 1 11 2
M  V30 12 1 12 11
M  V30 13 1 13 12
M  V30 14 1 14 13
M  V30 15 1 15 14
M  V30 16 1 16 15
M  V30 17 1 17 16
M  V30 18 2 18 17
M  V30 19 1 19 18
M  V30 20 2 20 19
M  V30 21 1 21 16
M  V30 22 1 21 20
M  V30 23 2 22 21
M  V30 24 1 23 2
M  V30 25 1 23 13
M  V30 26 1 24 1
M  V30 27 1 25 1
M  V30 28 1 26 1
M  V30 29 1 27 5
M  V30 30 1 28 6
M  V30 31 1 29 9
M  V30 32 1 30 10
M  V30 33 1 31 11
M  V30 34 1 32 11
M  V30 35 1 33 12
M  V30 36 1 34 12
M  V30 37 1 35 14
M  V30 38 1 36 14
M  V30 39 1 37 15
M  V30 40 1 38 15
M  V30 41 1 39 17
M  V30 42 1 40 18
M  V30 43 1 41 19
M  V30 44 1 42 20
M  V30 45 1 43 23
M  V30 46 1 44 23
M  V30 47 1 13 45 CFG=3
M  V30 END BOND
M  V30 END CTAB
M  END
>  <b_m_subgroup_collapsed>  (1640) 
0

>  <r_i_docking_score>  (1640) 
-6.8932971949101098

>  <s_m_subgroup_title>  (1640) 
glide-dock_SP_D22_pv

>  <s_m_subgroupid>  (1640) 
glide-dock_SP_D22_pv

>  <Molecule ChEMBL ID>  (1640) 
CHEMBL5781514

>  <Standard Type>  (1640) 
Ki

>  <Standard Value>  (1640) 
20000.0

>  <label>  (1640) 
0

$$$$
CHEMBL2159486
     RDKit          3D

  0  0  0  0  0  0  0  0  0  0999 V3000
M  V30 BEGIN CTAB
M  V30 COUNTS 51 53 0 0 1
M  V30 BEGIN ATOM
M  V30 1 C 10.481171 0.989088 -15.252794 0
M  V30 2 S 9.267035 2.335838 -15.323946 0
M  V30 3 C 7.753648 1.715260 -14.646815 0
M  V30 4 C 7.429220 0.346952 -14.762692 0
M  V30 5 C 6.240469 -0.150703 -14.198161 0
M  V30 6 C 5.366286 0.722647 -13.526436 0
M  V30 7 C 5.685972 2.088494 -13.408997 0
M  V30 8 C 6.885814 2.597125 -13.962195 0
M  V30 9 O 7.253235 3.920224 -13.842750 0
M  V30 10 C 6.977209 4.547892 -12.596178 0
M  V30 11 C 8.195549 5.399678 -12.195967 0
M  V30 12 N 8.155568 5.772318 -10.761411 0 CFG=1 CHG=1
M  V30 13 C 8.457314 4.673582 -9.825687 0
M  V30 14 C 8.645762 5.355777 -8.481566 0
M  V30 15 C 9.208418 6.737244 -8.826688 0 CFG=1
M  V30 16 N 10.614730 6.805615 -8.435504 0
M  V30 17 S 11.368396 8.333697 -8.226227 0
M  V30 18 O 12.780126 8.171885 -8.603441 0
M  V30 19 O 10.531511 9.339543 -8.899392 0
M  V30 20 C 11.300250 8.600556 -6.451931 0
M  V30 21 C 11.166722 9.915588 -5.976132 0
M  V30 22 C 11.283278 10.172279 -4.603245 0
M  V30 23 C 11.587273 9.138018 -3.705929 0
M  V30 24 C 11.686073 7.816330 -4.171727 0
M  V30 25 Cl 12.085917 6.572351 -3.047699 0
M  V30 26 C 11.487986 7.533176 -5.541461 0
M  V30 27 C 9.045766 6.877665 -10.358187 0
M  V30 28 H 11.466742 1.368193 -15.521482 0
M  V30 29 H 10.531203 0.571662 -14.246985 0
M  V30 30 H 10.220698 0.194166 -15.950906 0
M  V30 31 H 8.084775 -0.333251 -15.284440 0
M  V30 32 H 5.999192 -1.200816 -14.291080 0
M  V30 33 H 4.445772 0.347417 -13.106037 0
M  V30 34 H 4.994339 2.741969 -12.896165 0
M  V30 35 H 6.082058 5.164565 -12.682566 0
M  V30 36 H 6.781892 3.809399 -11.818134 0
M  V30 37 H 9.120379 4.859713 -12.404354 0
M  V30 38 H 8.216803 6.299213 -12.812037 0
M  V30 39 H 7.686025 3.914257 -9.779155 0
M  V30 40 H 9.382586 4.172377 -10.119621 0
M  V30 41 H 7.687037 5.463603 -7.971873 0
M  V30 42 H 9.292736 4.763971 -7.841243 0
M  V30 43 H 8.640603 7.505488 -8.297837 0
M  V30 44 H 11.217772 6.125540 -8.896654 0
M  V30 45 H 11.010646 10.743053 -6.647593 0
M  V30 46 H 11.183703 11.178851 -4.246858 0
M  V30 47 H 11.727213 9.354892 -2.656022 0
M  V30 48 H 11.594166 6.518875 -5.901383 0
M  V30 49 H 10.007136 6.764780 -10.861712 0
M  V30 50 H 8.643056 7.849237 -10.647205 0
M  V30 51 H 7.229887 6.139986 -10.549515 0
M  V30 END ATOM
M  V30 BEGIN BOND
M  V30 1 1 2 1
M  V30 2 1 3 2
M  V30 3 2 4 3
M  V30 4 1 5 4
M  V30 5 2 6 5
M  V30 6 1 7 6
M  V30 7 1 8 3
M  V30 8 2 8 7
M  V30 9 1 9 8
M  V30 10 1 10 9
M  V30 11 1 11 10
M  V30 12 1 12 11
M  V30 13 1 13 12
M  V30 14 1 14 13
M  V30 15 1 15 14
M  V30 16 1 16 15
M  V30 17 1 17 16
M  V30 18 2 18 17
M  V30 19 2 19 17
M  V30 20 1 20 17
M  V30 21 2 21 20
M  V30 22 1 22 21
M  V30 23 2 23 22
M  V30 24 1 24 23
M  V30 25 1 25 24
M  V30 26 1 26 20
M  V30 27 2 26 24
M  V30 28 1 27 12
M  V30 29 1 27 15
M  V30 30 1 28 1
M  V30 31 1 29 1
M  V30 32 1 30 1
M  V30 33 1 31 4
M  V30 34 1 32 5
M  V30 35 1 33 6
M  V30 36 1 34 7
M  V30 37 1 35 10
M  V30 38 1 36 10
M  V30 39 1 37 11
M  V30 40 1 38 11
M  V30 41 1 39 13
M  V30 42 1 40 13
M  V30 43 1 41 14
M  V30 44 1 42 14
M  V30 45 1 15 43 CFG=1
M  V30 46 1 44 16
M  V30 47 1 45 21
M  V30 48 1 46 22
M  V30 49 1 47 23
M  V30 50 1 48 26
M  V30 51 1 49 27
M  V30 52 1 50 27
M  V30 53 1 12 51 CFG=1
M  V30 END BOND
M  V30 END CTAB
M  END
>  <b_m_subgroup_collapsed>  (1641) 
0

>  <r_i_docking_score>  (1641) 
-6.89012385572327

>  <s_m_subgroup_title>  (1641) 
glide-dock_SP_D22_pv

>  <s_m_subgroupid>  (1641) 
glide-dock_SP_D22_pv

>  <Molecule ChEMBL ID>  (1641) 
CHEMBL2159486

>  <Standard Type>  (1641) 
Ki

>  <Standard Value>  (1641) 
36.0

>  <label>  (1641) 
1

$$$$
CHEMBL201375
     RDKit          3D

  0  0  0  0  0  0  0  0  0  0999 V3000
M  V30 BEGIN CTAB
M  V30 COUNTS 48 51 0 0 1
M  V30 BEGIN ATOM
M  V30 1 C 12.017915 7.372846 -11.643051 0
M  V30 2 N 10.759573 7.400451 -10.851144 0 CFG=1 CHG=1
M  V30 3 C 10.515290 8.715644 -10.218950 0
M  V30 4 C 9.540005 8.638206 -9.032670 0
M  V30 5 C 10.100194 7.831520 -7.906195 0
M  V30 6 C 10.159366 6.456667 -7.794182 0
M  V30 7 N 10.865636 6.172504 -6.641924 0
M  V30 8 C 11.116309 7.289727 -5.890801 0
M  V30 9 C 11.685390 7.458842 -4.614748 0
M  V30 10 C 11.751747 8.746967 -4.056734 0
M  V30 11 C 11.288193 9.843740 -4.803815 0
M  V30 12 C 10.804252 9.663681 -6.112865 0
M  V30 13 C 10.651469 8.373902 -6.679738 0
M  V30 14 C 9.652990 5.270977 -8.584190 0
M  V30 15 C 8.626355 5.433155 -9.726477 0
M  V30 16 C 9.196359 5.493836 -11.168937 0 CFG=1
M  V30 17 C 8.237796 4.866867 -12.174810 0
M  V30 18 C 6.879140 5.251841 -12.231751 0
M  V30 19 C 5.982384 4.569342 -13.073686 0
M  V30 20 C 6.447531 3.520900 -13.885616 0
M  V30 21 C 7.813007 3.185434 -13.896295 0
M  V30 22 C 8.707500 3.857298 -13.044793 0
M  V30 23 C 9.588511 6.905768 -11.615564 0
M  V30 24 H 12.057849 8.172280 -12.368248 0
M  V30 25 H 12.135056 6.471633 -12.246960 0
M  V30 26 H 12.881464 7.492045 -10.987679 0
M  V30 27 H 11.456643 9.153392 -9.880351 0
M  V30 28 H 10.116270 9.372206 -10.980523 0
M  V30 29 H 9.329426 9.648430 -8.686762 0
M  V30 30 H 8.569098 8.256232 -9.337993 0
M  V30 31 H 11.028291 5.225888 -6.324429 0
M  V30 32 H 12.024029 6.602310 -4.050659 0
M  V30 33 H 12.141435 8.892336 -3.059143 0
M  V30 34 H 11.286505 10.833748 -4.373862 0
M  V30 35 H 10.485610 10.539809 -6.646949 0
M  V30 36 H 10.490087 4.673359 -8.932671 0
M  V30 37 H 9.162147 4.624319 -7.854903 0
M  V30 38 H 8.082995 4.488832 -9.694942 0
M  V30 39 H 7.850494 6.169466 -9.517176 0
M  V30 40 H 10.084472 4.865525 -11.193291 0
M  V30 41 H 6.505415 6.048823 -11.608230 0
M  V30 42 H 4.937313 4.842163 -13.094074 0
M  V30 43 H 5.758839 2.992846 -14.525735 0
M  V30 44 H 8.169579 2.392138 -14.536777 0
M  V30 45 H 9.744876 3.556281 -13.030802 0
M  V30 46 H 8.724151 7.565874 -11.521688 0
M  V30 47 H 9.831236 6.899648 -12.676635 0
M  V30 48 H 10.879669 6.758497 -10.079212 0
M  V30 END ATOM
M  V30 BEGIN BOND
M  V30 1 1 2 1
M  V30 2 1 3 2
M  V30 3 1 4 3
M  V30 4 1 5 4
M  V30 5 2 6 5
M  V30 6 1 7 6
M  V30 7 1 8 7
M  V30 8 2 9 8
M  V30 9 1 10 9
M  V30 10 2 11 10
M  V30 11 1 12 11
M  V30 12 1 13 5
M  V30 13 1 13 8
M  V30 14 2 13 12
M  V30 15 1 14 6
M  V30 16 1 15 14
M  V30 17 1 16 15
M  V30 18 1 17 16
M  V30 19 2 18 17
M  V30 20 1 19 18
M  V30 21 2 20 19
M  V30 22 1 21 20
M  V30 23 1 22 17
M  V30 24 2 22 21
M  V30 25 1 23 2
M  V30 26 1 23 16
M  V30 27 1 24 1
M  V30 28 1 25 1
M  V30 29 1 26 1
M  V30 30 1 27 3
M  V30 31 1 28 3
M  V30 32 1 29 4
M  V30 33 1 30 4
M  V30 34 1 31 7
M  V30 35 1 32 9
M  V30 36 1 33 10
M  V30 37 1 34 11
M  V30 38 1 35 12
M  V30 39 1 36 14
M  V30 40 1 37 14
M  V30 41 1 38 15
M  V30 42 1 39 15
M  V30 43 1 16 40 CFG=1
M  V30 44 1 41 18
M  V30 45 1 42 19
M  V30 46 1 43 20
M  V30 47 1 44 21
M  V30 48 1 45 22
M  V30 49 1 46 23
M  V30 50 1 47 23
M  V30 51 1 2 48 CFG=1
M  V30 END BOND
M  V30 END CTAB
M  END
>  <b_m_subgroup_collapsed>  (1642) 
0

>  <r_i_docking_score>  (1642) 
-6.8880238300997396

>  <s_m_subgroup_title>  (1642) 
glide-dock_SP_D22_pv

>  <s_m_subgroupid>  (1642) 
glide-dock_SP_D22_pv

>  <Molecule ChEMBL ID>  (1642) 
CHEMBL201375

>  <Standard Type>  (1642) 
Ki

>  <Standard Value>  (1642) 
10000.0

>  <label>  (1642) 
0

$$$$
CHEMBL3289984
     RDKit          3D

  0  0  0  0  0  0  0  0  0  0999 V3000
M  V30 BEGIN CTAB
M  V30 COUNTS 58 62 0 0 1
M  V30 BEGIN ATOM
M  V30 1 O 11.083752 3.041082 -16.755293 0
M  V30 2 S 10.508595 3.011749 -15.402646 0
M  V30 3 O 11.285772 2.521941 -14.255438 0
M  V30 4 N 9.957569 4.605796 -15.039743 0
M  V30 5 C 9.879314 5.095287 -13.658501 0
M  V30 6 C 8.495738 4.845550 -13.035007 0
M  V30 7 C 8.285179 5.650794 -11.739558 0
M  V30 8 C 9.103372 5.128119 -10.541725 0
M  V30 9 N 9.243579 6.154378 -9.510246 0
M  V30 10 C 9.506488 5.538631 -8.208977 0
M  V30 11 C 9.577184 6.627207 -7.117444 0
M  V30 12 N 10.650108 7.568004 -7.421014 0
M  V30 13 C 10.954029 8.469313 -6.384829 0
M  V30 14 N 10.885885 9.791013 -6.514933 0
M  V30 15 O 11.264802 10.357738 -5.268763 0
M  V30 16 C 11.594459 9.350298 -4.377853 0
M  V30 17 C 12.027953 9.396256 -3.046534 0
M  V30 18 C 12.279058 8.174091 -2.390806 0
M  V30 19 C 12.107974 6.951030 -3.080264 0
M  V30 20 C 11.685625 6.931736 -4.430128 0
M  V30 21 C 11.402843 8.155525 -5.077627 0
M  V30 22 C 10.449032 8.170504 -8.739345 0
M  V30 23 C 10.337602 7.083845 -9.824659 0
M  V30 24 C 9.030097 2.022105 -15.487679 0
M  V30 25 C 8.480112 1.317752 -14.447000 0
M  V30 26 C 7.292504 0.600019 -14.851882 0
M  V30 27 C 6.410645 -0.228793 -14.117653 0
M  V30 28 C 5.304520 -0.853656 -14.727962 0
M  V30 29 C 5.045907 -0.659309 -16.095491 0
M  V30 30 Cl 3.692094 -1.427551 -16.837225 0
M  V30 31 C 5.895174 0.162841 -16.855387 0
M  V30 32 C 6.999537 0.784289 -16.242458 0
M  V30 33 S 8.181672 1.843228 -16.996096 0
M  V30 34 H 10.308909 5.293229 -15.705414 0
M  V30 35 H 10.087218 6.164957 -13.670959 0
M  V30 36 H 10.668974 4.647151 -13.055667 0
M  V30 37 H 8.348475 3.781573 -12.846447 0
M  V30 38 H 7.725786 5.139381 -13.749831 0
M  V30 39 H 7.228567 5.629773 -11.464768 0
M  V30 40 H 8.502571 6.699937 -11.942366 0
M  V30 41 H 10.085614 4.772353 -10.846539 0
M  V30 42 H 8.578907 4.261575 -10.136462 0
M  V30 43 H 10.436643 4.971326 -8.246241 0
M  V30 44 H 8.704646 4.839299 -7.969128 0
M  V30 45 H 9.723491 6.173128 -6.140284 0
M  V30 46 H 8.626394 7.162277 -7.066525 0
M  V30 47 H 12.143167 10.341961 -2.537450 0
M  V30 48 H 12.602958 8.175527 -1.360908 0
M  V30 49 H 12.305996 6.018253 -2.572078 0
M  V30 50 H 11.572203 5.991646 -4.949185 0
M  V30 51 H 9.542439 8.778917 -8.731385 0
M  V30 52 H 11.281054 8.835020 -8.976877 0
M  V30 53 H 11.286895 6.555091 -9.902340 0
M  V30 54 H 10.161667 7.561937 -10.787878 0
M  V30 55 H 8.886711 1.300871 -13.447165 0
M  V30 56 H 6.598882 -0.400084 -13.068297 0
M  V30 57 H 4.654422 -1.493498 -14.151502 0
M  V30 58 H 5.700215 0.313921 -17.906099 0
M  V30 END ATOM
M  V30 BEGIN BOND
M  V30 1 2 2 1
M  V30 2 2 3 2
M  V30 3 1 4 2
M  V30 4 1 5 4
M  V30 5 1 6 5
M  V30 6 1 7 6
M  V30 7 1 8 7
M  V30 8 1 9 8
M  V30 9 1 10 9
M  V30 10 1 11 10
M  V30 11 1 12 11
M  V30 12 1 13 12
M  V30 13 2 14 13
M  V30 14 1 15 14
M  V30 15 1 16 15
M  V30 16 2 17 16
M  V30 17 1 18 17
M  V30 18 2 19 18
M  V30 19 1 20 19
M  V30 20 1 21 13
M  V30 21 1 21 16
M  V30 22 2 21 20
M  V30 23 1 22 12
M  V30 24 1 23 9
M  V30 25 1 23 22
M  V30 26 1 24 2
M  V30 27 2 25 24
M  V30 28 1 26 25
M  V30 29 1 27 26
M  V30 30 2 28 27
M  V30 31 1 29 28
M  V30 32 1 30 29
M  V30 33 2 31 29
M  V30 34 2 32 26
M  V30 35 1 32 31
M  V30 36 1 33 24
M  V30 37 1 33 32
M  V30 38 1 34 4
M  V30 39 1 35 5
M  V30 40 1 36 5
M  V30 41 1 37 6
M  V30 42 1 38 6
M  V30 43 1 39 7
M  V30 44 1 40 7
M  V30 45 1 41 8
M  V30 46 1 42 8
M  V30 47 1 43 10
M  V30 48 1 44 10
M  V30 49 1 45 11
M  V30 50 1 46 11
M  V30 51 1 47 17
M  V30 52 1 48 18
M  V30 53 1 49 19
M  V30 54 1 50 20
M  V30 55 1 51 22
M  V30 56 1 52 22
M  V30 57 1 53 23
M  V30 58 1 54 23
M  V30 59 1 55 25
M  V30 60 1 56 27
M  V30 61 1 57 28
M  V30 62 1 58 31
M  V30 END BOND
M  V30 END CTAB
M  END
>  <b_m_subgroup_collapsed>  (1643) 
0

>  <r_i_docking_score>  (1643) 
-6.8877839238302601

>  <s_m_subgroup_title>  (1643) 
glide-dock_SP_D22_pv

>  <s_m_subgroupid>  (1643) 
glide-dock_SP_D22_pv

>  <Molecule ChEMBL ID>  (1643) 
CHEMBL3289984

>  <Standard Type>  (1643) 
Ki

>  <Standard Value>  (1643) 
54.0

>  <label>  (1643) 
1

$$$$
CHEMBL5817624
     RDKit          3D

  0  0  0  0  0  0  0  0  0  0999 V3000
M  V30 BEGIN CTAB
M  V30 COUNTS 55 58 0 0 1
M  V30 BEGIN ATOM
M  V30 1 C 12.085750 9.767753 -2.465361 0
M  V30 2 C 11.761579 8.813943 -3.578838 0
M  V30 3 C 11.989841 7.445962 -3.373931 0
M  V30 4 C 11.686025 6.572070 -4.421072 0
M  V30 5 C 11.190992 7.083520 -5.628568 0
M  V30 6 C 10.993534 8.475822 -5.746141 0
M  V30 7 C 10.450072 9.113131 -7.026352 0 CFG=1
M  V30 8 C 11.437787 9.074998 -8.206958 0
M  V30 9 C 11.381811 7.764436 -8.997946 0
M  V30 10 N 10.001104 7.400205 -9.421555 0 CFG=1 CHG=1
M  V30 11 C 10.002769 6.172359 -10.257138 0
M  V30 12 C 8.776998 6.024795 -11.182074 0
M  V30 13 N 8.893491 4.828377 -12.016597 0
M  V30 14 C 9.754947 4.675246 -13.037196 0
M  V30 15 O 10.532240 5.564988 -13.382848 0
M  V30 16 C 9.768707 3.303798 -13.735890 0 CFG=2
M  V30 17 C 11.166370 2.760316 -14.065965 0
M  V30 18 C 11.058091 2.462609 -15.564849 0 CFG=2
M  V30 19 C 11.066454 3.745514 -16.403362 0
M  V30 20 C 9.661823 4.285793 -16.149601 0
M  V30 21 C 9.105220 3.273194 -15.130314 0 CFG=1
M  V30 22 O 9.692484 2.093021 -15.652791 0
M  V30 23 C 9.077275 7.304011 -8.264764 0
M  V30 24 C 9.049291 8.612071 -7.448376 0
M  V30 25 N 11.285577 9.329882 -4.734647 0
M  V30 26 H 11.685993 9.405437 -1.519275 0
M  V30 27 H 13.167500 9.771582 -2.376583 0
M  V30 28 H 11.723810 10.777421 -2.649153 0
M  V30 29 H 12.382866 7.073206 -2.439440 0
M  V30 30 H 11.867664 5.519803 -4.306115 0
M  V30 31 H 10.991761 6.390233 -6.424277 0
M  V30 32 H 10.340770 10.168816 -6.777757 0
M  V30 33 H 11.222668 9.881979 -8.904874 0
M  V30 34 H 12.451721 9.260349 -7.849749 0
M  V30 35 H 12.029242 7.856575 -9.871422 0
M  V30 36 H 11.796094 6.971987 -8.385663 0
M  V30 37 H 10.885350 6.208089 -10.889473 0
M  V30 38 H 10.109401 5.290586 -9.622958 0
M  V30 39 H 7.860520 5.931048 -10.599329 0
M  V30 40 H 8.658265 6.905601 -11.815672 0
M  V30 41 H 8.285233 4.054551 -11.790138 0
M  V30 42 H 9.277201 2.573370 -13.092946 0
M  V30 43 H 11.987416 3.443776 -13.846365 0
M  V30 44 H 11.339602 1.834900 -13.516458 0
M  V30 45 H 11.754249 1.699721 -15.914307 0
M  V30 46 H 11.849417 4.437191 -16.090809 0
M  V30 47 H 11.206822 3.522875 -17.461542 0
M  V30 48 H 9.081650 4.248549 -17.072269 0
M  V30 49 H 9.653281 5.316084 -15.799619 0
M  V30 50 H 8.016800 3.232304 -15.087935 0
M  V30 51 H 8.086303 7.084194 -8.640153 0
M  V30 52 H 9.324664 6.448745 -7.641887 0
M  V30 53 H 8.397112 8.515259 -6.579914 0
M  V30 54 H 8.584620 9.371472 -8.077552 0
M  V30 55 H 9.656234 8.148808 -10.006677 0
M  V30 END ATOM
M  V30 BEGIN BOND
M  V30 1 1 2 1
M  V30 2 1 3 2
M  V30 3 2 4 3
M  V30 4 1 5 4
M  V30 5 2 6 5
M  V30 6 1 7 6
M  V30 7 1 8 7
M  V30 8 1 9 8
M  V30 9 1 10 9
M  V30 10 1 11 10
M  V30 11 1 12 11
M  V30 12 1 13 12
M  V30 13 1 14 13
M  V30 14 2 15 14
M  V30 15 1 16 14
M  V30 16 1 17 16
M  V30 17 1 18 17
M  V30 18 1 19 18
M  V30 19 1 20 19
M  V30 20 1 21 16
M  V30 21 1 21 20
M  V30 22 1 22 18
M  V30 23 1 22 21
M  V30 24 1 23 10
M  V30 25 1 24 7
M  V30 26 1 24 23
M  V30 27 2 25 2
M  V30 28 1 25 6
M  V30 29 1 26 1
M  V30 30 1 27 1
M  V30 31 1 28 1
M  V30 32 1 29 3
M  V30 33 1 30 4
M  V30 34 1 31 5
M  V30 35 1 7 32 CFG=1
M  V30 36 1 33 8
M  V30 37 1 34 8
M  V30 38 1 35 9
M  V30 39 1 36 9
M  V30 40 1 37 11
M  V30 41 1 38 11
M  V30 42 1 39 12
M  V30 43 1 40 12
M  V30 44 1 41 13
M  V30 45 1 16 42 CFG=1
M  V30 46 1 43 17
M  V30 47 1 44 17
M  V30 48 1 18 45 CFG=3
M  V30 49 1 46 19
M  V30 50 1 47 19
M  V30 51 1 48 20
M  V30 52 1 49 20
M  V30 53 1 21 50 CFG=1
M  V30 54 1 51 23
M  V30 55 1 52 23
M  V30 56 1 53 24
M  V30 57 1 54 24
M  V30 58 1 10 55 CFG=3
M  V30 END BOND
M  V30 END CTAB
M  END
>  <b_m_subgroup_collapsed>  (1644) 
0

>  <r_i_docking_score>  (1644) 
-6.8861589190000503

>  <s_m_subgroup_title>  (1644) 
glide-dock_SP_D22_pv

>  <s_m_subgroupid>  (1644) 
glide-dock_SP_D22_pv

>  <Molecule ChEMBL ID>  (1644) 
CHEMBL5817624

>  <Standard Type>  (1644) 
Ki

>  <Standard Value>  (1644) 
7.1

>  <label>  (1644) 
1

$$$$
CHEMBL5817624
     RDKit          3D

  0  0  0  0  0  0  0  0  0  0999 V3000
M  V30 BEGIN CTAB
M  V30 COUNTS 55 58 0 0 1
M  V30 BEGIN ATOM
M  V30 1 C 12.122452 7.080248 -2.926503 0
M  V30 2 C 11.686168 7.973594 -4.069427 0
M  V30 3 C 11.700547 9.373233 -3.931268 0
M  V30 4 C 11.285969 10.153702 -5.026198 0
M  V30 5 C 10.885821 9.512070 -6.208081 0
M  V30 6 C 10.899191 8.101884 -6.251806 0
M  V30 7 C 10.492332 7.319199 -7.495759 0 CFG=1
M  V30 8 C 9.078821 6.733357 -7.360190 0
M  V30 9 C 8.740006 5.837478 -8.565609 0
M  V30 10 N 8.886003 6.587598 -9.840134 0 CFG=2 CHG=1
M  V30 11 C 8.354188 5.881959 -11.036934 0
M  V30 12 C 9.316438 4.869516 -11.681133 0
M  V30 13 N 8.648813 4.173410 -12.774650 0
M  V30 14 C 9.270864 3.437067 -13.708152 0
M  V30 15 O 10.495389 3.373404 -13.798359 0
M  V30 16 C 8.359360 2.652063 -14.670094 0 CFG=2
M  V30 17 C 8.262616 1.162919 -14.301991 0
M  V30 18 C 8.783247 0.471989 -15.570136 0 CFG=1
M  V30 19 C 7.777348 0.569104 -16.723164 0
M  V30 20 C 7.880461 2.045807 -17.104046 0
M  V30 21 C 8.928919 2.557205 -16.102816 0 CFG=2
M  V30 22 O 9.755006 1.406598 -16.003477 0
M  V30 23 C 10.218970 7.220572 -10.012754 0
M  V30 24 C 10.568099 8.116688 -8.814871 0
M  V30 25 N 11.286048 7.348250 -5.196184 0
M  V30 26 H 12.002520 7.590812 -1.970720 0
M  V30 27 H 11.521235 6.170745 -2.899164 0
M  V30 28 H 13.170893 6.804824 -3.046848 0
M  V30 29 H 12.022166 9.844319 -3.012475 0
M  V30 30 H 11.284932 11.229939 -4.969651 0
M  V30 31 H 10.575302 10.111411 -7.046569 0
M  V30 32 H 11.196712 6.488513 -7.570408 0
M  V30 33 H 8.996878 6.163520 -6.434938 0
M  V30 34 H 8.353117 7.544179 -7.275206 0
M  V30 35 H 9.380701 4.954219 -8.576281 0
M  V30 36 H 7.709191 5.489641 -8.460822 0
M  V30 37 H 7.413053 5.396249 -10.772458 0
M  V30 38 H 8.094090 6.641805 -11.774819 0
M  V30 39 H 10.197734 5.380165 -12.072210 0
M  V30 40 H 9.661448 4.137606 -10.949476 0
M  V30 41 H 7.638551 4.172940 -12.771920 0
M  V30 42 H 7.372289 3.116797 -14.687059 0
M  V30 43 H 8.885818 0.907187 -13.448022 0
M  V30 44 H 7.243383 0.859128 -14.062097 0
M  V30 45 H 9.170570 -0.532548 -15.401451 0
M  V30 46 H 8.084461 -0.063055 -17.556810 0
M  V30 47 H 6.770195 0.275152 -16.424961 0
M  V30 48 H 6.928754 2.571901 -17.023458 0
M  V30 49 H 8.244270 2.150440 -18.126671 0
M  V30 50 H 9.455147 3.451345 -16.440937 0
M  V30 51 H 10.979217 6.450727 -10.116518 0
M  V30 52 H 10.228668 7.811260 -10.928742 0
M  V30 53 H 9.873285 8.957261 -8.794828 0
M  V30 54 H 11.568570 8.533269 -8.947974 0
M  V30 55 H 8.215476 7.348969 -9.747064 0
M  V30 END ATOM
M  V30 BEGIN BOND
M  V30 1 1 2 1
M  V30 2 1 3 2
M  V30 3 2 4 3
M  V30 4 1 5 4
M  V30 5 2 6 5
M  V30 6 1 7 6
M  V30 7 1 8 7
M  V30 8 1 9 8
M  V30 9 1 10 9
M  V30 10 1 11 10
M  V30 11 1 12 11
M  V30 12 1 13 12
M  V30 13 1 14 13
M  V30 14 2 15 14
M  V30 15 1 16 14
M  V30 16 1 17 16
M  V30 17 1 18 17
M  V30 18 1 19 18
M  V30 19 1 20 19
M  V30 20 1 21 16
M  V30 21 1 21 20
M  V30 22 1 22 18
M  V30 23 1 22 21
M  V30 24 1 23 10
M  V30 25 1 24 7
M  V30 26 1 24 23
M  V30 27 2 25 2
M  V30 28 1 25 6
M  V30 29 1 26 1
M  V30 30 1 27 1
M  V30 31 1 28 1
M  V30 32 1 29 3
M  V30 33 1 30 4
M  V30 34 1 31 5
M  V30 35 1 7 32 CFG=3
M  V30 36 1 33 8
M  V30 37 1 34 8
M  V30 38 1 35 9
M  V30 39 1 36 9
M  V30 40 1 37 11
M  V30 41 1 38 11
M  V30 42 1 39 12
M  V30 43 1 40 12
M  V30 44 1 41 13
M  V30 45 1 16 42 CFG=3
M  V30 46 1 43 17
M  V30 47 1 44 17
M  V30 48 1 18 45 CFG=1
M  V30 49 1 46 19
M  V30 50 1 47 19
M  V30 51 1 48 20
M  V30 52 1 49 20
M  V30 53 1 21 50 CFG=3
M  V30 54 1 51 23
M  V30 55 1 52 23
M  V30 56 1 53 24
M  V30 57 1 54 24
M  V30 58 1 10 55 CFG=1
M  V30 END BOND
M  V30 END CTAB
M  END
>  <b_m_subgroup_collapsed>  (1645) 
0

>  <r_i_docking_score>  (1645) 
-6.8829993154217197

>  <s_m_subgroup_title>  (1645) 
glide-dock_SP_D22_pv

>  <s_m_subgroupid>  (1645) 
glide-dock_SP_D22_pv

>  <Molecule ChEMBL ID>  (1645) 
CHEMBL5817624

>  <Standard Type>  (1645) 
Ki

>  <Standard Value>  (1645) 
7.1

>  <label>  (1645) 
1

$$$$
CHEMBL5408427
     RDKit          3D

  0  0  0  0  0  0  0  0  0  0999 V3000
M  V30 BEGIN CTAB
M  V30 COUNTS 45 47 0 0 1
M  V30 BEGIN ATOM
M  V30 1 C 12.281912 7.583155 -15.385253 0
M  V30 2 C 12.767579 6.271603 -14.765434 0
M  V30 3 C 13.775923 5.588682 -15.698479 0
M  V30 4 C 11.605454 5.370933 -14.351750 0
M  V30 5 C 11.316490 4.145219 -14.989693 0
M  V30 6 C 10.229900 3.371472 -14.534842 0
M  V30 7 C 9.937419 2.061495 -15.143980 0
M  V30 8 C 8.679642 1.393078 -14.972865 0
M  V30 9 C 8.615969 0.172841 -15.591833 0
M  V30 10 S 10.085845 -0.192812 -16.439701 0
M  V30 11 C 10.791870 1.311105 -15.916847 0
M  V30 12 C 9.453527 3.892515 -13.478698 0
M  V30 13 C 9.807981 5.126318 -12.886426 0
M  V30 14 N 9.057138 5.678850 -11.824347 0
M  V30 15 C 8.252000 4.847238 -10.933289 0
M  V30 16 C 8.716475 5.039639 -9.480487 0
M  V30 17 N 8.695008 6.476800 -9.115220 0 CHG=1
M  V30 18 C 8.946288 6.720258 -7.678051 0
M  V30 19 C 9.545265 7.295692 -10.015260 0
M  V30 20 C 9.125642 7.101704 -11.486938 0
M  V30 21 N 10.881783 5.830365 -13.310611 0
M  V30 22 H 11.686231 8.158606 -14.673345 0
M  V30 23 H 13.114898 8.214366 -15.693947 0
M  V30 24 H 11.677840 7.372902 -16.266489 0
M  V30 25 H 13.284820 6.537668 -13.846591 0
M  V30 26 H 14.085533 4.636889 -15.277829 0
M  V30 27 H 13.351542 5.394729 -16.684702 0
M  V30 28 H 14.668813 6.201327 -15.833242 0
M  V30 29 H 11.916008 3.798353 -15.815181 0
M  V30 30 H 7.860401 1.810304 -14.405356 0
M  V30 31 H 7.797235 -0.533775 -15.607538 0
M  V30 32 H 11.805976 1.543647 -16.208450 0
M  V30 33 H 8.593585 3.347910 -13.131717 0
M  V30 34 H 7.210101 5.140593 -11.043177 0
M  V30 35 H 8.305769 3.789227 -11.178330 0
M  V30 36 H 8.086189 4.464840 -8.801126 0
M  V30 37 H 9.730220 4.650337 -9.354894 0
M  V30 38 H 9.949801 6.401087 -7.394004 0
M  V30 39 H 8.837379 7.780397 -7.447668 0
M  V30 40 H 8.223945 6.179530 -7.066490 0
M  V30 41 H 9.454774 8.349111 -9.749100 0
M  V30 42 H 10.589879 7.014962 -9.883251 0
M  V30 43 H 9.793955 7.662379 -12.139028 0
M  V30 44 H 8.133814 7.525373 -11.646351 0
M  V30 45 H 7.745182 6.805848 -9.291391 0
M  V30 END ATOM
M  V30 BEGIN BOND
M  V30 1 1 2 1
M  V30 2 1 3 2
M  V30 3 1 4 2
M  V30 4 1 5 4
M  V30 5 2 6 5
M  V30 6 1 7 6
M  V30 7 1 8 7
M  V30 8 2 9 8
M  V30 9 1 10 9
M  V30 10 2 11 7
M  V30 11 1 11 10
M  V30 12 1 12 6
M  V30 13 2 13 12
M  V30 14 1 14 13
M  V30 15 1 15 14
M  V30 16 1 16 15
M  V30 17 1 17 16
M  V30 18 1 18 17
M  V30 19 1 19 17
M  V30 20 1 20 14
M  V30 21 1 20 19
M  V30 22 2 21 4
M  V30 23 1 21 13
M  V30 24 1 22 1
M  V30 25 1 23 1
M  V30 26 1 24 1
M  V30 27 1 25 2
M  V30 28 1 26 3
M  V30 29 1 27 3
M  V30 30 1 28 3
M  V30 31 1 29 5
M  V30 32 1 30 8
M  V30 33 1 31 9
M  V30 34 1 32 11
M  V30 35 1 33 12
M  V30 36 1 34 15
M  V30 37 1 35 15
M  V30 38 1 36 16
M  V30 39 1 37 16
M  V30 40 1 38 18
M  V30 41 1 39 18
M  V30 42 1 40 18
M  V30 43 1 41 19
M  V30 44 1 42 19
M  V30 45 1 43 20
M  V30 46 1 44 20
M  V30 47 1 45 17
M  V30 END BOND
M  V30 END CTAB
M  END
>  <b_m_subgroup_collapsed>  (1646) 
0

>  <r_i_docking_score>  (1646) 
-6.8818107725814803

>  <s_m_subgroup_title>  (1646) 
glide-dock_SP_D22_pv

>  <s_m_subgroupid>  (1646) 
glide-dock_SP_D22_pv

>  <Molecule ChEMBL ID>  (1646) 
CHEMBL5408427

>  <Standard Type>  (1646) 
Ki

>  <Standard Value>  (1646) 
1.32

>  <label>  (1646) 
1

$$$$
CHEMBL554692
     RDKit          3D

  0  0  0  0  0  0  0  0  0  0999 V3000
M  V30 BEGIN CTAB
M  V30 COUNTS 50 53 0 0 1
M  V30 BEGIN ATOM
M  V30 1 C 10.885277 1.112061 -15.773223 0
M  V30 2 C 10.331807 2.292816 -15.004128 0
M  V30 3 C 9.010022 2.318066 -14.648256 0
M  V30 4 C 8.550257 3.435479 -13.909426 0
M  V30 5 N 7.343698 3.744166 -13.446758 0
M  V30 6 C 7.492108 4.945503 -12.777165 0
M  V30 7 C 6.317032 5.589079 -12.109614 0
M  V30 8 C 8.782811 5.400434 -12.852022 0
M  V30 9 C 9.330596 6.681229 -12.306167 0
M  V30 10 N 10.087118 6.574391 -11.065301 0
M  V30 11 C 9.217769 6.229416 -9.937267 0
M  V30 12 C 10.012106 6.195364 -8.618249 0
M  V30 13 N 10.673146 7.479575 -8.402641 0
M  V30 14 C 11.012609 7.902501 -7.104899 0
M  V30 15 C 11.046067 7.005370 -6.011199 0
M  V30 16 C 11.387599 7.458199 -4.722440 0
M  V30 17 C 11.685944 8.816959 -4.508333 0
M  V30 18 Cl 12.086439 9.372077 -2.927974 0
M  V30 19 C 11.647370 9.720043 -5.585899 0
M  V30 20 C 11.316341 9.262454 -6.871647 0
M  V30 21 C 11.493563 7.918902 -9.526866 0
M  V30 22 C 10.662613 7.901137 -10.815822 0
M  V30 23 N 9.493342 4.450625 -13.595238 0
M  V30 24 C 10.790098 4.327065 -14.047141 0
M  V30 25 C 11.807883 5.438149 -13.850007 0
M  V30 26 N 11.218833 3.295688 -14.715433 0
M  V30 27 H 10.268222 0.903283 -16.646566 0
M  V30 28 H 11.903212 1.302226 -16.115545 0
M  V30 29 H 10.892622 0.225100 -15.139885 0
M  V30 30 H 8.325437 1.515923 -14.899903 0
M  V30 31 H 6.520592 5.771766 -11.055396 0
M  V30 32 H 6.075167 6.548736 -12.566760 0
M  V30 33 H 5.428049 4.960644 -12.162259 0
M  V30 34 H 8.519885 7.402168 -12.181231 0
M  V30 35 H 9.997395 7.107210 -13.046850 0
M  V30 36 H 8.741971 5.263401 -10.106431 0
M  V30 37 H 8.431074 6.972650 -9.851472 0
M  V30 38 H 10.751633 5.394672 -8.635653 0
M  V30 39 H 9.318627 5.984185 -7.803517 0
M  V30 40 H 10.827557 5.957941 -6.145200 0
M  V30 41 H 11.414562 6.759800 -3.898716 0
M  V30 42 H 11.866763 10.766792 -5.447148 0
M  V30 43 H 11.286134 9.979949 -7.675094 0
M  V30 44 H 11.895679 8.919980 -9.383423 0
M  V30 45 H 12.355326 7.264611 -9.634911 0
M  V30 46 H 11.312649 8.172364 -11.647383 0
M  V30 47 H 9.873457 8.653815 -10.758843 0
M  V30 48 H 12.809559 5.109722 -14.131638 0
M  V30 49 H 11.555716 6.291885 -14.478462 0
M  V30 50 H 11.864034 5.770504 -12.818518 0
M  V30 END ATOM
M  V30 BEGIN BOND
M  V30 1 1 2 1
M  V30 2 2 3 2
M  V30 3 1 4 3
M  V30 4 2 5 4
M  V30 5 1 6 5
M  V30 6 1 7 6
M  V30 7 2 8 6
M  V30 8 1 9 8
M  V30 9 1 10 9
M  V30 10 1 11 10
M  V30 11 1 12 11
M  V30 12 1 13 12
M  V30 13 1 14 13
M  V30 14 1 15 14
M  V30 15 2 16 15
M  V30 16 1 17 16
M  V30 17 1 18 17
M  V30 18 2 19 17
M  V30 19 2 20 14
M  V30 20 1 20 19
M  V30 21 1 21 13
M  V30 22 1 22 10
M  V30 23 1 22 21
M  V30 24 1 23 4
M  V30 25 1 23 8
M  V30 26 1 24 23
M  V30 27 1 25 24
M  V30 28 1 26 2
M  V30 29 2 26 24
M  V30 30 1 27 1
M  V30 31 1 28 1
M  V30 32 1 29 1
M  V30 33 1 30 3
M  V30 34 1 31 7
M  V30 35 1 32 7
M  V30 36 1 33 7
M  V30 37 1 34 9
M  V30 38 1 35 9
M  V30 39 1 36 11
M  V30 40 1 37 11
M  V30 41 1 38 12
M  V30 42 1 39 12
M  V30 43 1 40 15
M  V30 44 1 41 16
M  V30 45 1 42 19
M  V30 46 1 43 20
M  V30 47 1 44 21
M  V30 48 1 45 21
M  V30 49 1 46 22
M  V30 50 1 47 22
M  V30 51 1 48 25
M  V30 52 1 49 25
M  V30 53 1 50 25
M  V30 END BOND
M  V30 END CTAB
M  END
>  <b_m_subgroup_collapsed>  (1647) 
0

>  <r_i_docking_score>  (1647) 
-6.88026645841326

>  <s_m_subgroup_title>  (1647) 
glide-dock_SP_D22_pv

>  <s_m_subgroupid>  (1647) 
glide-dock_SP_D22_pv

>  <Molecule ChEMBL ID>  (1647) 
CHEMBL554692

>  <Standard Type>  (1647) 
Ki

>  <Standard Value>  (1647) 
26000.0

>  <label>  (1647) 
0

$$$$
CHEMBL5722990
     RDKit          3D

  0  0  0  0  0  0  0  0  0  0999 V3000
M  V30 BEGIN CTAB
M  V30 COUNTS 49 51 0 0 1
M  V30 BEGIN ATOM
M  V30 1 C 5.622035 0.508681 -14.376706 0
M  V30 2 C 6.086074 1.850171 -13.846864 0
M  V30 3 C 5.286021 2.569703 -12.936257 0
M  V30 4 C 5.728158 3.803643 -12.420842 0
M  V30 5 C 6.983598 4.316131 -12.799725 0
M  V30 6 N 7.450045 5.521877 -12.259645 0
M  V30 7 C 8.714073 6.017266 -12.554102 0
M  V30 8 C 9.109439 7.306166 -11.852739 0
M  V30 9 N 8.886023 7.200263 -10.398802 0 CHG=1
M  V30 10 C 9.644261 8.171022 -9.584555 0
M  V30 11 C 9.573829 7.836671 -8.085327 0
M  V30 12 C 10.549955 8.709150 -7.272183 0
M  V30 13 N 10.705629 8.377077 -5.853435 0
M  V30 14 C 11.592557 9.352163 -5.218320 0
M  V30 15 C 11.880891 9.024196 -3.745294 0
M  V30 16 O 12.486021 7.739950 -3.675385 0
M  V30 17 C 11.653682 6.714913 -4.205771 0
M  V30 18 C 11.237321 7.023713 -5.659417 0
M  V30 19 C 9.548205 5.372321 -13.398962 0
M  V30 20 C 9.144246 4.120592 -14.070347 0
M  V30 21 O 9.889990 3.553327 -14.867606 0
M  V30 22 C 7.794237 3.598165 -13.715513 0
M  V30 23 C 7.333004 2.372739 -14.246865 0
M  V30 24 H 5.909081 0.385241 -15.421468 0
M  V30 25 H 6.072976 -0.299920 -13.800463 0
M  V30 26 H 4.537580 0.413597 -14.311885 0
M  V30 27 H 4.328995 2.174187 -12.630350 0
M  V30 28 H 5.114442 4.342742 -11.714117 0
M  V30 29 H 10.162946 7.508107 -12.052726 0
M  V30 30 H 8.538450 8.144329 -12.254872 0
M  V30 31 H 7.881092 7.372320 -10.246862 0
M  V30 32 H 10.687815 8.155948 -9.902710 0
M  V30 33 H 9.265025 9.176768 -9.772214 0
M  V30 34 H 8.555544 7.962844 -7.712315 0
M  V30 35 H 9.820888 6.782863 -7.961986 0
M  V30 36 H 11.530303 8.675294 -7.751006 0
M  V30 37 H 10.218278 9.744773 -7.355924 0
M  V30 38 H 12.541224 9.398717 -5.756397 0
M  V30 39 H 11.151231 10.347617 -5.283320 0
M  V30 40 H 12.561369 9.761775 -3.318656 0
M  V30 41 H 10.967041 9.047999 -3.150350 0
M  V30 42 H 12.188743 5.772325 -4.168110 0
M  V30 43 H 10.792047 6.572323 -3.562760 0
M  V30 44 H 10.491174 6.286599 -5.954845 0
M  V30 45 H 12.086021 6.863583 -6.320678 0
M  V30 46 H 10.531856 5.761660 -13.617908 0
M  V30 47 H 7.949423 1.812034 -14.935500 0
M  V30 48 H 6.835239 6.030978 -11.632425 0
M  V30 49 H 9.105969 6.261052 -10.102545 0
M  V30 END ATOM
M  V30 BEGIN BOND
M  V30 1 1 2 1
M  V30 2 2 3 2
M  V30 3 1 4 3
M  V30 4 2 5 4
M  V30 5 1 6 5
M  V30 6 1 7 6
M  V30 7 1 8 7
M  V30 8 1 9 8
M  V30 9 1 10 9
M  V30 10 1 11 10
M  V30 11 1 12 11
M  V30 12 1 13 12
M  V30 13 1 14 13
M  V30 14 1 15 14
M  V30 15 1 16 15
M  V30 16 1 17 16
M  V30 17 1 18 13
M  V30 18 1 18 17
M  V30 19 2 19 7
M  V30 20 1 20 19
M  V30 21 2 21 20
M  V30 22 1 22 5
M  V30 23 1 22 20
M  V30 24 1 23 2
M  V30 25 2 23 22
M  V30 26 1 24 1
M  V30 27 1 25 1
M  V30 28 1 26 1
M  V30 29 1 27 3
M  V30 30 1 28 4
M  V30 31 1 29 8
M  V30 32 1 30 8
M  V30 33 1 31 9
M  V30 34 1 32 10
M  V30 35 1 33 10
M  V30 36 1 34 11
M  V30 37 1 35 11
M  V30 38 1 36 12
M  V30 39 1 37 12
M  V30 40 1 38 14
M  V30 41 1 39 14
M  V30 42 1 40 15
M  V30 43 1 41 15
M  V30 44 1 42 17
M  V30 45 1 43 17
M  V30 46 1 44 18
M  V30 47 1 45 18
M  V30 48 1 46 19
M  V30 49 1 47 23
M  V30 50 1 48 6
M  V30 51 1 49 9
M  V30 END BOND
M  V30 END CTAB
M  END
>  <b_m_subgroup_collapsed>  (1648) 
0

>  <r_i_docking_score>  (1648) 
-6.8799095883928203

>  <s_m_subgroup_title>  (1648) 
glide-dock_SP_D22_pv

>  <s_m_subgroupid>  (1648) 
glide-dock_SP_D22_pv

>  <Molecule ChEMBL ID>  (1648) 
CHEMBL5722990

>  <Standard Type>  (1648) 
Ki

>  <Standard Value>  (1648) 
10000.0

>  <label>  (1648) 
0

$$$$
CHEMBL3289979
     RDKit          3D

  0  0  0  0  0  0  0  0  0  0999 V3000
M  V30 BEGIN CTAB
M  V30 COUNTS 58 62 0 0 1
M  V30 BEGIN ATOM
M  V30 1 O 5.272611 2.467727 -12.240901 0
M  V30 2 S 6.033233 3.379134 -13.105601 0
M  V30 3 O 5.336777 4.436098 -13.847683 0
M  V30 4 N 7.183319 4.172675 -12.100543 0
M  V30 5 C 8.194500 5.068456 -12.648088 0
M  V30 6 C 8.586802 6.085846 -11.599069 0
M  V30 7 C 9.176009 5.439586 -10.339615 0
M  V30 8 N 9.387702 6.455495 -9.324285 0
M  V30 9 C 10.605852 7.227034 -9.587229 0
M  V30 10 C 10.757966 8.317712 -8.520168 0
M  V30 11 N 10.788357 7.720528 -7.189667 0
M  V30 12 C 11.049165 8.611446 -6.145486 0
M  V30 13 N 10.959754 9.935780 -6.243641 0
M  V30 14 O 11.286693 10.454597 -4.965118 0
M  V30 15 C 11.620301 9.417367 -4.106054 0
M  V30 16 C 12.028086 9.415379 -2.769417 0
M  V30 17 C 12.267612 8.171833 -2.153229 0
M  V30 18 C 12.089259 6.968306 -2.879135 0
M  V30 19 C 11.685673 6.996983 -4.234268 0
M  V30 20 C 11.451908 8.249493 -4.845944 0
M  V30 21 C 9.607191 6.902122 -6.938892 0
M  V30 22 C 9.488927 5.816164 -8.014527 0
M  V30 23 C 6.991378 2.362167 -14.251092 0
M  V30 24 C 6.608143 1.017661 -14.441311 0
M  V30 25 C 7.336693 0.191942 -15.320749 0
M  V30 26 C 8.472760 0.693596 -15.991405 0
M  V30 27 C 9.220271 -0.124551 -16.864697 0
M  V30 28 C 10.367167 0.383328 -17.505388 0
M  V30 29 Cl 11.288547 -0.628068 -18.554699 0
M  V30 30 C 10.762426 1.717729 -17.292389 0
M  V30 31 C 10.006574 2.547742 -16.444096 0
M  V30 32 C 8.865596 2.038584 -15.790704 0
M  V30 33 C 8.112207 2.868900 -14.941347 0
M  V30 34 H 6.716086 4.590304 -11.291564 0
M  V30 35 H 7.796123 5.583979 -13.521645 0
M  V30 36 H 9.076606 4.497863 -12.937152 0
M  V30 37 H 7.687570 6.620093 -11.330059 0
M  V30 38 H 9.270960 6.808607 -12.041079 0
M  V30 39 H 10.087244 4.885447 -10.555942 0
M  V30 40 H 8.456834 4.713695 -9.955603 0
M  V30 41 H 10.561469 7.701106 -10.566319 0
M  V30 42 H 11.476952 6.574368 -9.589183 0
M  V30 43 H 9.928202 9.023026 -8.593349 0
M  V30 44 H 11.676471 8.879367 -8.696169 0
M  V30 45 H 12.100604 10.344894 -2.230756 0
M  V30 46 H 12.565844 8.145573 -1.116665 0
M  V30 47 H 12.263647 6.015925 -2.396666 0
M  V30 48 H 11.560786 6.078913 -4.787677 0
M  V30 49 H 9.652185 6.437520 -5.955683 0
M  V30 50 H 8.714373 7.531616 -6.945277 0
M  V30 51 H 8.595366 5.218733 -7.826196 0
M  V30 52 H 10.349323 5.147048 -7.987093 0
M  V30 53 H 5.748378 0.618215 -13.923986 0
M  V30 54 H 7.016093 -0.828896 -15.470342 0
M  V30 55 H 8.920135 -1.143602 -17.051157 0
M  V30 56 H 11.642046 2.107115 -17.784382 0
M  V30 57 H 10.312449 3.572784 -16.293455 0
M  V30 58 H 8.397211 3.901191 -14.859902 0
M  V30 END ATOM
M  V30 BEGIN BOND
M  V30 1 2 2 1
M  V30 2 2 3 2
M  V30 3 1 4 2
M  V30 4 1 5 4
M  V30 5 1 6 5
M  V30 6 1 7 6
M  V30 7 1 8 7
M  V30 8 1 9 8
M  V30 9 1 10 9
M  V30 10 1 11 10
M  V30 11 1 12 11
M  V30 12 2 13 12
M  V30 13 1 14 13
M  V30 14 1 15 14
M  V30 15 2 16 15
M  V30 16 1 17 16
M  V30 17 2 18 17
M  V30 18 1 19 18
M  V30 19 1 20 12
M  V30 20 1 20 15
M  V30 21 2 20 19
M  V30 22 1 21 11
M  V30 23 1 22 8
M  V30 24 1 22 21
M  V30 25 1 23 2
M  V30 26 2 24 23
M  V30 27 1 25 24
M  V30 28 2 26 25
M  V30 29 1 27 26
M  V30 30 2 28 27
M  V30 31 1 29 28
M  V30 32 1 30 28
M  V30 33 2 31 30
M  V30 34 1 32 26
M  V30 35 1 32 31
M  V30 36 1 33 23
M  V30 37 2 33 32
M  V30 38 1 34 4
M  V30 39 1 35 5
M  V30 40 1 36 5
M  V30 41 1 37 6
M  V30 42 1 38 6
M  V30 43 1 39 7
M  V30 44 1 40 7
M  V30 45 1 41 9
M  V30 46 1 42 9
M  V30 47 1 43 10
M  V30 48 1 44 10
M  V30 49 1 45 16
M  V30 50 1 46 17
M  V30 51 1 47 18
M  V30 52 1 48 19
M  V30 53 1 49 21
M  V30 54 1 50 21
M  V30 55 1 51 22
M  V30 56 1 52 22
M  V30 57 1 53 24
M  V30 58 1 54 25
M  V30 59 1 55 27
M  V30 60 1 56 30
M  V30 61 1 57 31
M  V30 62 1 58 33
M  V30 END BOND
M  V30 END CTAB
M  END
>  <b_m_subgroup_collapsed>  (1649) 
0

>  <r_i_docking_score>  (1649) 
-6.8787201070187098

>  <s_m_subgroup_title>  (1649) 
glide-dock_SP_D22_pv

>  <s_m_subgroupid>  (1649) 
glide-dock_SP_D22_pv

>  <Molecule ChEMBL ID>  (1649) 
CHEMBL3289979

>  <Standard Type>  (1649) 
Ki

>  <Standard Value>  (1649) 
10000.0

>  <label>  (1649) 
0

$$$$
CHEMBL5722948
     RDKit          3D

  0  0  0  0  0  0  0  0  0  0999 V3000
M  V30 BEGIN CTAB
M  V30 COUNTS 41 43 0 0 1
M  V30 BEGIN ATOM
M  V30 1 C 12.486032 6.806567 -2.328788 0
M  V30 2 C 12.025604 7.696550 -3.440687 0
M  V30 3 C 12.028791 9.069594 -3.460186 0
M  V30 4 S 11.286741 9.701249 -4.907777 0
M  V30 5 C 11.007030 8.047360 -5.446672 0
M  V30 6 C 10.346107 7.708913 -6.738243 0
M  V30 7 C 11.330126 7.780283 -7.913026 0
M  V30 8 C 10.732701 7.369740 -9.263619 0
M  V30 9 N 9.684323 8.301300 -9.659807 0
M  V30 10 C 9.579995 8.451729 -11.103770 0
M  V30 11 C 9.388639 7.135700 -11.845739 0
M  V30 12 C 10.382360 6.504253 -12.506274 0
M  V30 13 C 10.126949 5.238793 -13.231680 0
M  V30 14 O 11.031112 4.646236 -13.818443 0
M  V30 15 C 8.719483 4.740220 -13.208750 0
M  V30 16 C 8.355337 3.553838 -13.881242 0
M  V30 17 C 7.020394 3.102461 -13.846882 0
M  V30 18 F 6.677249 1.963596 -14.491234 0
M  V30 19 C 6.046460 3.823828 -13.130030 0
M  V30 20 C 6.403444 5.005908 -12.453593 0
M  V30 21 C 7.732086 5.467932 -12.499915 0
M  V30 22 N 8.090607 6.649577 -11.846961 0
M  V30 23 N 11.479219 7.130371 -4.597795 0
M  V30 24 H 12.849250 7.390841 -1.481849 0
M  V30 25 H 11.672729 6.175670 -1.968522 0
M  V30 26 H 13.286005 6.141319 -2.647073 0
M  V30 27 H 12.392201 9.748695 -2.701020 0
M  V30 28 H 9.916148 6.708489 -6.664132 0
M  V30 29 H 9.515311 8.396536 -6.890187 0
M  V30 30 H 11.745128 8.786102 -7.987605 0
M  V30 31 H 12.171370 7.123384 -7.695980 0
M  V30 32 H 11.538608 7.381907 -9.999312 0
M  V30 33 H 10.337996 6.352954 -9.233702 0
M  V30 34 H 8.785970 7.994632 -9.302148 0
M  V30 35 H 8.736578 9.108731 -11.320254 0
M  V30 36 H 10.473121 8.970219 -11.446818 0
M  V30 37 H 11.384110 6.905551 -12.517689 0
M  V30 38 H 9.092902 2.981764 -14.424305 0
M  V30 39 H 5.026412 3.472082 -13.100011 0
M  V30 40 H 5.659078 5.561763 -11.900385 0
M  V30 41 H 7.384905 7.130766 -11.267361 0
M  V30 END ATOM
M  V30 BEGIN BOND
M  V30 1 1 2 1
M  V30 2 2 3 2
M  V30 3 1 4 3
M  V30 4 1 5 4
M  V30 5 1 6 5
M  V30 6 1 7 6
M  V30 7 1 8 7
M  V30 8 1 9 8
M  V30 9 1 10 9
M  V30 10 1 11 10
M  V30 11 2 12 11
M  V30 12 1 13 12
M  V30 13 2 14 13
M  V30 14 1 15 13
M  V30 15 2 16 15
M  V30 16 1 17 16
M  V30 17 1 18 17
M  V30 18 2 19 17
M  V30 19 1 20 19
M  V30 20 1 21 15
M  V30 21 2 21 20
M  V30 22 1 22 11
M  V30 23 1 22 21
M  V30 24 1 23 2
M  V30 25 2 23 5
M  V30 26 1 24 1
M  V30 27 1 25 1
M  V30 28 1 26 1
M  V30 29 1 27 3
M  V30 30 1 28 6
M  V30 31 1 29 6
M  V30 32 1 30 7
M  V30 33 1 31 7
M  V30 34 1 32 8
M  V30 35 1 33 8
M  V30 36 1 34 9
M  V30 37 1 35 10
M  V30 38 1 36 10
M  V30 39 1 37 12
M  V30 40 1 38 16
M  V30 41 1 39 19
M  V30 42 1 40 20
M  V30 43 1 41 22
M  V30 END BOND
M  V30 END CTAB
M  END
>  <b_m_subgroup_collapsed>  (1650) 
0

>  <r_i_docking_score>  (1650) 
-6.8757548933966204

>  <s_m_subgroup_title>  (1650) 
glide-dock_SP_D22_pv

>  <s_m_subgroupid>  (1650) 
glide-dock_SP_D22_pv

>  <Molecule ChEMBL ID>  (1650) 
CHEMBL5722948

>  <Standard Type>  (1650) 
Ki

>  <Standard Value>  (1650) 
10000.0

>  <label>  (1650) 
0

$$$$
CHEMBL240023
     RDKit          3D

  0  0  0  0  0  0  0  0  0  0999 V3000
M  V30 BEGIN CTAB
M  V30 COUNTS 63 66 0 0 1
M  V30 BEGIN ATOM
M  V30 1 C 12.886547 7.916986 -2.471035 0
M  V30 2 C 11.687427 6.993377 -2.531516 0
M  V30 3 C 11.490632 6.229627 -3.856016 0
M  V30 4 O 11.646276 6.898988 -5.097189 0
M  V30 5 C 10.522157 7.620475 -5.588646 0 CFG=1
M  V30 6 C 10.593873 9.029773 -5.002302 0
M  V30 7 C 11.937766 9.627857 -5.344568 0
M  V30 8 C 12.086167 9.790590 -6.835014 0
M  V30 9 C 11.326811 8.784395 -7.691810 0
M  V30 10 C 11.314759 8.962770 -9.087684 0
M  V30 11 C 10.518122 8.142997 -9.899481 0
M  V30 12 C 9.748827 7.120007 -9.314045 0
M  V30 13 N 8.907413 6.334931 -10.167340 0
M  V30 14 C 9.355248 6.070531 -11.409392 0
M  V30 15 N 8.620961 5.523331 -12.394092 0 CHG=1
M  V30 16 C 9.157857 5.538921 -13.759370 0
M  V30 17 C 9.146204 4.157676 -14.406115 0
M  V30 18 C 7.882648 3.378698 -14.112765 0
M  V30 19 C 7.633349 2.208767 -14.855491 0
M  V30 20 C 6.561507 1.372056 -14.510874 0
M  V30 21 O 6.379117 0.205810 -15.202583 0
M  V30 22 C 6.612549 -0.962449 -14.434672 0
M  V30 23 C 5.716752 1.733544 -13.442114 0
M  V30 24 O 4.815686 0.839305 -12.955141 0
M  V30 25 C 3.692781 0.557105 -13.784409 0
M  V30 26 C 5.901145 2.950847 -12.757174 0
M  V30 27 C 6.997138 3.772390 -13.074831 0
M  V30 28 C 7.256212 5.007046 -12.225417 0
M  V30 29 C 9.769665 6.905594 -7.920104 0
M  V30 30 C 10.562232 7.745605 -7.103563 0
M  V30 31 H 13.206084 8.092279 -1.442873 0
M  V30 32 H 13.685709 7.461985 -3.047036 0
M  V30 33 H 12.668123 8.902119 -2.872830 0
M  V30 34 H 10.828787 7.571501 -2.230464 0
M  V30 35 H 11.800128 6.228136 -1.766423 0
M  V30 36 H 10.512782 5.772438 -3.838740 0
M  V30 37 H 12.232479 5.439880 -3.871841 0
M  V30 38 H 9.592483 7.120856 -5.323317 0
M  V30 39 H 9.808398 9.649246 -5.447226 0
M  V30 40 H 10.486713 9.049124 -3.921779 0
M  V30 41 H 12.037964 10.572252 -4.840040 0
M  V30 42 H 12.757509 9.002483 -4.998388 0
M  V30 43 H 13.151087 9.766016 -7.044785 0
M  V30 44 H 11.687076 10.781829 -7.047160 0
M  V30 45 H 11.885158 9.763309 -9.537705 0
M  V30 46 H 10.481281 8.332813 -10.962411 0
M  V30 47 H 10.394820 6.268909 -11.637076 0
M  V30 48 H 8.484291 6.171859 -14.331359 0
M  V30 49 H 10.151518 5.983726 -13.802290 0
M  V30 50 H 10.000927 3.577693 -14.055329 0
M  V30 51 H 9.258611 4.260780 -15.486362 0
M  V30 52 H 8.304196 1.911108 -15.648319 0
M  V30 53 H 6.255300 -1.827093 -14.990571 0
M  V30 54 H 7.682369 -1.028010 -14.255824 0
M  V30 55 H 6.127201 -1.003112 -13.463840 0
M  V30 56 H 3.316257 -0.435764 -13.540155 0
M  V30 57 H 2.898423 1.264339 -13.538554 0
M  V30 58 H 3.897503 0.568731 -14.853133 0
M  V30 59 H 5.265882 3.202292 -11.921572 0
M  V30 60 H 7.087289 4.749015 -11.180740 0
M  V30 61 H 6.539299 5.788225 -12.480783 0
M  V30 62 H 9.157382 6.134368 -7.475522 0
M  V30 63 H 8.021194 5.966948 -9.843386 0
M  V30 END ATOM
M  V30 BEGIN BOND
M  V30 1 1 2 1
M  V30 2 1 3 2
M  V30 3 1 4 3
M  V30 4 1 5 4
M  V30 5 1 6 5
M  V30 6 1 7 6
M  V30 7 1 8 7
M  V30 8 1 9 8
M  V30 9 1 10 9
M  V30 10 2 11 10
M  V30 11 1 12 11
M  V30 12 1 13 12
M  V30 13 1 14 13
M  V30 14 2 15 14 CFG=2
M  V30 15 1 16 15
M  V30 16 1 17 16
M  V30 17 1 18 17
M  V30 18 2 19 18
M  V30 19 1 20 19
M  V30 20 1 21 20
M  V30 21 1 22 21
M  V30 22 2 23 20
M  V30 23 1 24 23
M  V30 24 1 25 24
M  V30 25 1 26 23
M  V30 26 1 27 18
M  V30 27 2 27 26
M  V30 28 1 28 15
M  V30 29 1 28 27
M  V30 30 2 29 12
M  V30 31 1 30 5
M  V30 32 2 30 9
M  V30 33 1 30 29
M  V30 34 1 31 1
M  V30 35 1 32 1
M  V30 36 1 33 1
M  V30 37 1 34 2
M  V30 38 1 35 2
M  V30 39 1 36 3
M  V30 40 1 37 3
M  V30 41 1 5 38 CFG=3
M  V30 42 1 39 6
M  V30 43 1 40 6
M  V30 44 1 41 7
M  V30 45 1 42 7
M  V30 46 1 43 8
M  V30 47 1 44 8
M  V30 48 1 45 10
M  V30 49 1 46 11
M  V30 50 1 47 14
M  V30 51 1 48 16
M  V30 52 1 49 16
M  V30 53 1 50 17
M  V30 54 1 51 17
M  V30 55 1 52 19
M  V30 56 1 53 22
M  V30 57 1 54 22
M  V30 58 1 55 22
M  V30 59 1 56 25
M  V30 60 1 57 25
M  V30 61 1 58 25
M  V30 62 1 59 26
M  V30 63 1 60 28
M  V30 64 1 61 28
M  V30 65 1 62 29
M  V30 66 1 63 13
M  V30 END BOND
M  V30 END CTAB
M  END
>  <b_m_subgroup_collapsed>  (1651) 
0

>  <r_i_docking_score>  (1651) 
-6.8752192542809203

>  <s_m_subgroup_title>  (1651) 
glide-dock_SP_D22_pv

>  <s_m_subgroupid>  (1651) 
glide-dock_SP_D22_pv

>  <Molecule ChEMBL ID>  (1651) 
CHEMBL240023

>  <Standard Type>  (1651) 
Ki

>  <Standard Value>  (1651) 
42000.0

>  <label>  (1651) 
0

$$$$
CHEMBL5722967
     RDKit          3D

  0  0  0  0  0  0  0  0  0  0999 V3000
M  V30 BEGIN CTAB
M  V30 COUNTS 43 46 0 0 1
M  V30 BEGIN ATOM
M  V30 1 C 9.757758 1.179040 -15.289657 0
M  V30 2 C 9.919287 2.550718 -14.668664 0
M  V30 3 C 11.221146 3.165290 -14.531378 0
M  V30 4 C 11.385456 4.346190 -13.906517 0
M  V30 5 C 10.259884 5.074555 -13.353261 0
M  V30 6 N 10.383412 6.186713 -12.698978 0
M  V30 7 C 9.265697 6.891502 -12.246865 0
M  V30 8 C 9.542655 8.192548 -11.495302 0
M  V30 9 N 8.886023 8.318342 -10.165346 0 CHG=1
M  V30 10 C 9.286031 7.428642 -9.047050 0 CFG=2
M  V30 11 C 10.134418 8.148584 -8.050641 0
M  V30 12 C 9.750451 8.572325 -6.803308 0
M  V30 13 C 10.786913 9.244001 -6.091520 0
M  V30 14 C 11.949007 9.327387 -6.807847 0
M  V30 15 S 11.795903 8.572325 -8.372444 0
M  V30 16 C 9.846935 6.093209 -9.482635 0
M  V30 17 C 9.686022 4.868638 -8.635157 0
M  V30 18 C 8.898643 4.972324 -9.886556 0
M  V30 19 C 8.023740 6.422226 -12.499721 0
M  V30 20 C 7.827709 5.125763 -13.148104 0
M  V30 21 O 6.701996 4.645412 -13.295879 0
M  V30 22 N 8.970449 4.494411 -13.564611 0
M  V30 23 C 8.859509 3.233978 -14.200432 0
M  V30 24 H 9.518306 0.444693 -14.519620 0
M  V30 25 H 8.952826 1.182068 -16.025124 0
M  V30 26 H 10.674245 0.862500 -15.788621 0
M  V30 27 H 12.086020 2.662836 -14.938731 0
M  V30 28 H 12.389234 4.739316 -13.832970 0
M  V30 29 H 9.192935 9.012481 -12.122606 0
M  V30 30 H 10.617176 8.333776 -11.371275 0
M  V30 31 H 7.870002 8.167208 -10.269516 0
M  V30 32 H 8.351991 7.202335 -8.535704 0
M  V30 33 H 8.765578 8.424628 -6.381194 0
M  V30 34 H 10.644489 9.638203 -5.095853 0
M  V30 35 H 12.886023 9.776995 -6.513073 0
M  V30 36 H 10.806434 6.166174 -9.988587 0
M  V30 37 H 10.488553 4.138474 -8.646868 0
M  V30 38 H 9.149746 4.972326 -7.695628 0
M  V30 39 H 7.830443 5.158944 -9.804982 0
M  V30 40 H 9.196362 4.297949 -10.685112 0
M  V30 41 H 7.153468 6.972324 -12.176243 0
M  V30 42 H 7.862799 2.819470 -14.263695 0
M  V30 43 H 8.999628 9.265064 -9.838757 0
M  V30 END ATOM
M  V30 BEGIN BOND
M  V30 1 1 2 1
M  V30 2 1 3 2
M  V30 3 2 4 3
M  V30 4 1 5 4
M  V30 5 2 6 5
M  V30 6 1 7 6
M  V30 7 1 8 7
M  V30 8 1 9 8
M  V30 9 1 10 9
M  V30 10 1 11 10
M  V30 11 2 12 11
M  V30 12 1 13 12
M  V30 13 2 14 13
M  V30 14 1 15 11
M  V30 15 1 15 14
M  V30 16 1 16 10
M  V30 17 1 17 16
M  V30 18 1 18 16
M  V30 19 1 18 17
M  V30 20 2 19 7
M  V30 21 1 20 19
M  V30 22 2 21 20
M  V30 23 1 22 5
M  V30 24 1 22 20
M  V30 25 2 23 2
M  V30 26 1 23 22
M  V30 27 1 24 1
M  V30 28 1 25 1
M  V30 29 1 26 1
M  V30 30 1 27 3
M  V30 31 1 28 4
M  V30 32 1 29 8
M  V30 33 1 30 8
M  V30 34 1 31 9
M  V30 35 1 10 32 CFG=1
M  V30 36 1 33 12
M  V30 37 1 34 13
M  V30 38 1 35 14
M  V30 39 1 36 16
M  V30 40 1 37 17
M  V30 41 1 38 17
M  V30 42 1 39 18
M  V30 43 1 40 18
M  V30 44 1 41 19
M  V30 45 1 42 23
M  V30 46 1 43 9
M  V30 END BOND
M  V30 END CTAB
M  END
>  <b_m_subgroup_collapsed>  (1652) 
0

>  <r_i_docking_score>  (1652) 
-6.8750104838387101

>  <s_m_subgroup_title>  (1652) 
glide-dock_SP_D22_pv

>  <s_m_subgroupid>  (1652) 
glide-dock_SP_D22_pv

>  <Molecule ChEMBL ID>  (1652) 
CHEMBL5722967

>  <Standard Type>  (1652) 
Ki

>  <Standard Value>  (1652) 
10000.0

>  <label>  (1652) 
0

$$$$
CHEMBL6026858
     RDKit          3D

  0  0  0  0  0  0  0  0  0  0999 V3000
M  V30 BEGIN CTAB
M  V30 COUNTS 56 58 0 0 1
M  V30 BEGIN ATOM
M  V30 1 C 10.624665 5.189802 -14.845133 0
M  V30 2 C 10.349235 4.391075 -13.559372 0
M  V30 3 C 10.363189 2.880042 -13.860190 0
M  V30 4 N 9.124479 4.867425 -12.867398 0
M  V30 5 C 9.358435 6.021132 -11.981783 0
M  V30 6 C 9.523135 5.658219 -10.496222 0
M  V30 7 N 9.579161 6.891295 -9.675276 0 CFG=2 CHG=1
M  V30 8 C 10.966491 7.376919 -9.460841 0
M  V30 9 C 11.011552 8.697236 -8.672905 0
M  V30 10 C 10.202754 8.641706 -7.362955 0 CFG=2
M  V30 11 C 10.884075 7.894444 -6.240795 0
M  V30 12 N 11.147985 6.593153 -6.331702 0
M  V30 13 O 11.685915 6.173399 -5.088464 0
M  V30 14 C 11.809027 7.259508 -4.247029 0
M  V30 15 C 12.328417 7.373802 -2.953391 0
M  V30 16 C 12.359783 8.659388 -2.381931 0
M  V30 17 F 12.886630 8.823874 -1.148532 0
M  V30 18 C 11.856964 9.772257 -3.095344 0
M  V30 19 C 11.311277 9.627965 -4.390754 0
M  V30 20 C 11.309021 8.342202 -4.974520 0
M  V30 21 C 8.793833 8.091808 -7.636859 0
M  V30 22 C 8.829429 6.754012 -8.406524 0
M  V30 23 C 7.863781 4.455578 -13.188052 0
M  V30 24 O 7.621847 3.772311 -14.185780 0
M  V30 25 C 6.676903 4.772596 -12.252468 0 CFG=1
M  V30 26 C 5.914260 6.032514 -12.667790 0
M  V30 27 O 5.775543 3.681495 -12.248212 0
M  V30 28 H 11.467925 4.768277 -15.389180 0
M  V30 29 H 9.765646 5.187165 -15.516892 0
M  V30 30 H 10.885048 6.220931 -14.620713 0
M  V30 31 H 11.191171 4.556516 -12.887852 0
M  V30 32 H 11.380710 2.517615 -14.005846 0
M  V30 33 H 9.918791 2.313235 -13.047099 0
M  V30 34 H 9.807772 2.633821 -14.765534 0
M  V30 35 H 10.243188 6.563548 -12.316245 0
M  V30 36 H 8.557655 6.749629 -12.089184 0
M  V30 37 H 8.724000 5.015722 -10.146919 0
M  V30 38 H 10.415317 5.062583 -10.329690 0
M  V30 39 H 11.521502 6.613873 -8.923356 0
M  V30 40 H 11.465107 7.507899 -10.421252 0
M  V30 41 H 12.045303 8.982993 -8.468936 0
M  V30 42 H 10.600357 9.483108 -9.307747 0
M  V30 43 H 10.084839 9.672133 -7.032635 0
M  V30 44 H 12.709417 6.509390 -2.428799 0
M  V30 45 H 11.893188 10.754281 -2.646653 0
M  V30 46 H 10.937923 10.486988 -4.929420 0
M  V30 47 H 8.232863 7.981370 -6.707748 0
M  V30 48 H 8.248213 8.824073 -8.233134 0
M  V30 49 H 7.822226 6.428309 -8.649573 0
M  V30 50 H 9.242186 5.943503 -7.809093 0
M  V30 51 H 6.992883 4.889518 -11.224277 0
M  V30 52 H 6.571252 6.861344 -12.929563 0
M  V30 53 H 5.283322 5.833034 -13.529569 0
M  V30 54 H 5.285902 6.378721 -11.848065 0
M  V30 55 H 5.624131 3.440324 -13.151356 0
M  V30 56 H 9.070603 7.600509 -10.190837 0
M  V30 END ATOM
M  V30 BEGIN BOND
M  V30 1 1 2 1
M  V30 2 1 3 2
M  V30 3 1 4 2
M  V30 4 1 5 4
M  V30 5 1 6 5
M  V30 6 1 7 6
M  V30 7 1 8 7
M  V30 8 1 9 8
M  V30 9 1 10 9
M  V30 10 1 11 10
M  V30 11 2 12 11
M  V30 12 1 13 12
M  V30 13 1 14 13
M  V30 14 1 15 14
M  V30 15 2 16 15
M  V30 16 1 17 16
M  V30 17 1 18 16
M  V30 18 2 19 18
M  V30 19 1 20 11
M  V30 20 2 20 14
M  V30 21 1 20 19
M  V30 22 1 21 10
M  V30 23 1 22 7
M  V30 24 1 22 21
M  V30 25 1 23 4
M  V30 26 2 24 23
M  V30 27 1 25 23
M  V30 28 1 26 25
M  V30 29 1 27 25
M  V30 30 1 28 1
M  V30 31 1 29 1
M  V30 32 1 30 1
M  V30 33 1 31 2
M  V30 34 1 32 3
M  V30 35 1 33 3
M  V30 36 1 34 3
M  V30 37 1 35 5
M  V30 38 1 36 5
M  V30 39 1 37 6
M  V30 40 1 38 6
M  V30 41 1 39 8
M  V30 42 1 40 8
M  V30 43 1 41 9
M  V30 44 1 42 9
M  V30 45 1 10 43 CFG=1
M  V30 46 1 44 15
M  V30 47 1 45 18
M  V30 48 1 46 19
M  V30 49 1 47 21
M  V30 50 1 48 21
M  V30 51 1 49 22
M  V30 52 1 50 22
M  V30 53 1 25 51 CFG=1
M  V30 54 1 52 26
M  V30 55 1 53 26
M  V30 56 1 54 26
M  V30 57 1 55 27
M  V30 58 1 7 56 CFG=3
M  V30 END BOND
M  V30 END CTAB
M  END
>  <b_m_subgroup_collapsed>  (1653) 
0

>  <r_i_docking_score>  (1653) 
-6.8742839580772301

>  <s_m_subgroup_title>  (1653) 
glide-dock_SP_D22_pv

>  <s_m_subgroupid>  (1653) 
glide-dock_SP_D22_pv

>  <Molecule ChEMBL ID>  (1653) 
CHEMBL6026858

>  <Standard Type>  (1653) 
Ki

>  <Standard Value>  (1653) 
74.0

>  <label>  (1653) 
1

$$$$
CHEMBL4587925
     RDKit          3D

  0  0  0  0  0  0  0  0  0  0999 V3000
M  V30 BEGIN CTAB
M  V30 COUNTS 50 52 0 0 1
M  V30 BEGIN ATOM
M  V30 1 C 12.482861 6.823420 -2.187169 0
M  V30 2 C 12.086645 7.532094 -3.454710 0
M  V30 3 C 12.088841 8.935658 -3.571639 0
M  V30 4 C 11.677239 9.500986 -4.794108 0
M  V30 5 C 11.285606 8.642241 -5.843266 0
M  V30 6 C 10.766901 9.197888 -7.160932 0 CFG=1
M  V30 7 C 11.610567 8.822914 -8.402340 0
M  V30 8 C 11.298120 7.414953 -8.956772 0
M  V30 9 N 9.842979 7.236172 -9.187832 0 CFG=1 CHG=1
M  V30 10 C 9.474257 5.966925 -9.867228 0
M  V30 11 C 9.686076 6.034419 -11.379165 0
M  V30 12 O 10.004231 7.103428 -11.901320 0
M  V30 13 N 9.506679 4.879335 -12.044218 0
M  V30 14 C 9.789975 4.596192 -13.406588 0
M  V30 15 C 10.775946 5.287692 -14.151570 0
M  V30 16 C 11.033163 4.929167 -15.488531 0
M  V30 17 C 10.320322 3.873665 -16.087715 0
M  V30 18 C 9.349735 3.168659 -15.347678 0
M  V30 19 C 8.586216 2.023172 -15.979751 0
M  V30 20 C 9.092505 3.528924 -14.009846 0
M  V30 21 C 9.114861 7.418901 -7.920620 0
M  V30 22 C 9.284595 8.848153 -7.385339 0
M  V30 23 N 11.286063 7.301668 -5.724665 0
M  V30 24 C 11.682403 6.769103 -4.558825 0
M  V30 25 H 11.607989 6.314092 -1.784836 0
M  V30 26 H 13.238209 6.066047 -2.399346 0
M  V30 27 H 12.884341 7.519640 -1.450062 0
M  V30 28 H 12.387701 9.566442 -2.746328 0
M  V30 29 H 11.649714 10.572268 -4.915718 0
M  V30 30 H 10.845526 10.275773 -7.045065 0
M  V30 31 H 11.394196 9.543631 -9.192932 0
M  V30 32 H 12.675533 8.926311 -8.186418 0
M  V30 33 H 11.623030 6.653272 -8.249917 0
M  V30 34 H 11.854417 7.256943 -9.880687 0
M  V30 35 H 10.029200 5.130973 -9.437819 0
M  V30 36 H 8.413552 5.754345 -9.718101 0
M  V30 37 H 9.116096 4.111804 -11.516987 0
M  V30 38 H 11.353754 6.087421 -13.713216 0
M  V30 39 H 11.784178 5.461926 -16.053101 0
M  V30 40 H 10.528115 3.603980 -17.113060 0
M  V30 41 H 7.523236 2.099279 -15.748942 0
M  V30 42 H 8.697456 2.023974 -17.064459 0
M  V30 43 H 8.952862 1.069844 -15.598240 0
M  V30 44 H 8.351249 2.979448 -13.448014 0
M  V30 45 H 9.397986 6.655170 -7.198676 0
M  V30 46 H 8.086018 7.232077 -8.116316 0
M  V30 47 H 8.713716 8.972178 -6.463740 0
M  V30 48 H 8.852678 9.537660 -8.111548 0
M  V30 49 H 11.664287 5.697591 -4.500732 0
M  V30 50 H 9.531958 7.962545 -9.820006 0
M  V30 END ATOM
M  V30 BEGIN BOND
M  V30 1 1 2 1
M  V30 2 1 3 2
M  V30 3 2 4 3
M  V30 4 1 5 4
M  V30 5 1 6 5
M  V30 6 1 7 6
M  V30 7 1 8 7
M  V30 8 1 9 8
M  V30 9 1 10 9
M  V30 10 1 11 10
M  V30 11 2 12 11
M  V30 12 1 13 11
M  V30 13 1 14 13
M  V30 14 2 15 14
M  V30 15 1 16 15
M  V30 16 2 17 16
M  V30 17 1 18 17
M  V30 18 1 19 18
M  V30 19 1 20 14
M  V30 20 2 20 18
M  V30 21 1 21 9
M  V30 22 1 22 6
M  V30 23 1 22 21
M  V30 24 2 23 5
M  V30 25 2 24 2
M  V30 26 1 24 23
M  V30 27 1 25 1
M  V30 28 1 26 1
M  V30 29 1 27 1
M  V30 30 1 28 3
M  V30 31 1 29 4
M  V30 32 1 6 30 CFG=1
M  V30 33 1 31 7
M  V30 34 1 32 7
M  V30 35 1 33 8
M  V30 36 1 34 8
M  V30 37 1 35 10
M  V30 38 1 36 10
M  V30 39 1 37 13
M  V30 40 1 38 15
M  V30 41 1 39 16
M  V30 42 1 40 17
M  V30 43 1 41 19
M  V30 44 1 42 19
M  V30 45 1 43 19
M  V30 46 1 44 20
M  V30 47 1 45 21
M  V30 48 1 46 21
M  V30 49 1 47 22
M  V30 50 1 48 22
M  V30 51 1 49 24
M  V30 52 1 9 50 CFG=3
M  V30 END BOND
M  V30 END CTAB
M  END
>  <b_m_subgroup_collapsed>  (1654) 
0

>  <r_i_docking_score>  (1654) 
-6.8738502301878199

>  <s_m_subgroup_title>  (1654) 
glide-dock_SP_D22_pv

>  <s_m_subgroupid>  (1654) 
glide-dock_SP_D22_pv

>  <Molecule ChEMBL ID>  (1654) 
CHEMBL4587925

>  <Standard Type>  (1654) 
Ki

>  <Standard Value>  (1654) 
10000.0

>  <label>  (1654) 
0

$$$$
CHEMBL5723003
     RDKit          3D

  0  0  0  0  0  0  0  0  0  0999 V3000
M  V30 BEGIN CTAB
M  V30 COUNTS 44 47 0 0 1
M  V30 BEGIN ATOM
M  V30 1 O 10.896135 4.190517 -13.863795 0
M  V30 2 C 10.074279 4.904944 -13.292316 0
M  V30 3 C 10.477960 6.172746 -12.646855 0
M  V30 4 C 9.580761 6.922366 -11.967544 0
M  V30 5 C 9.952840 8.269195 -11.373279 0
M  V30 6 N 9.285943 8.605056 -10.114511 0
M  V30 7 C 9.664968 7.828494 -8.928900 0 CFG=2
M  V30 8 C 8.884411 8.282069 -7.688861 0
M  V30 9 O 9.814342 8.923371 -6.828974 0
M  V30 10 C 11.093846 8.355546 -7.032112 0
M  V30 11 C 12.140440 9.372353 -6.568776 0
M  V30 12 C 12.259604 9.178096 -5.054424 0
M  V30 13 C 11.734806 7.765486 -4.753072 0
M  V30 14 C 11.286384 7.158020 -6.090940 0
M  V30 15 C 11.122057 8.036038 -8.531826 0
M  V30 16 N 8.250034 6.539799 -11.846588 0
M  V30 17 C 7.750953 5.387915 -12.460064 0
M  V30 18 C 6.387095 5.059059 -12.341190 0
M  V30 19 C 5.887396 3.898909 -12.963872 0
M  V30 20 C 6.750284 3.073002 -13.711875 0
M  V30 21 F 6.278370 1.932842 -14.264645 0
M  V30 22 C 8.113000 3.405387 -13.846153 0
M  V30 23 C 8.625199 4.555879 -13.204122 0
M  V30 24 H 11.503103 6.495763 -12.752322 0
M  V30 25 H 11.034936 8.325374 -11.256883 0
M  V30 26 H 9.684571 9.007870 -12.124315 0
M  V30 27 H 8.271661 8.548681 -10.239839 0
M  V30 28 H 9.467104 6.769229 -9.097145 0
M  V30 29 H 8.085380 8.979548 -7.927068 0
M  V30 30 H 8.446295 7.424741 -7.177912 0
M  V30 31 H 13.096847 9.162816 -7.047966 0
M  V30 32 H 11.857501 10.394109 -6.820719 0
M  V30 33 H 13.284939 9.323867 -4.714293 0
M  V30 34 H 11.644112 9.914517 -4.537760 0
M  V30 35 H 12.481179 7.143779 -4.257513 0
M  V30 36 H 10.886394 7.843647 -4.080961 0
M  V30 37 H 10.392530 6.543162 -5.987746 0
M  V30 38 H 12.078451 6.511930 -6.470022 0
M  V30 39 H 11.709285 7.150370 -8.765767 0
M  V30 40 H 11.557237 8.878682 -9.070572 0
M  V30 41 H 7.594904 7.094106 -11.287802 0
M  V30 42 H 5.725973 5.688123 -11.760081 0
M  V30 43 H 4.844438 3.634676 -12.858395 0
M  V30 44 H 8.766610 2.753032 -14.406933 0
M  V30 END ATOM
M  V30 BEGIN BOND
M  V30 1 2 2 1
M  V30 2 1 3 2
M  V30 3 2 4 3
M  V30 4 1 5 4
M  V30 5 1 6 5
M  V30 6 1 7 6
M  V30 7 1 8 7
M  V30 8 1 9 8
M  V30 9 1 10 9
M  V30 10 1 11 10
M  V30 11 1 12 11
M  V30 12 1 13 12
M  V30 13 1 14 10
M  V30 14 1 14 13
M  V30 15 1 15 7
M  V30 16 1 15 10
M  V30 17 1 16 4
M  V30 18 1 17 16
M  V30 19 2 18 17
M  V30 20 1 19 18
M  V30 21 2 20 19
M  V30 22 1 21 20
M  V30 23 1 22 20
M  V30 24 1 23 2
M  V30 25 1 23 17
M  V30 26 2 23 22
M  V30 27 1 24 3
M  V30 28 1 25 5
M  V30 29 1 26 5
M  V30 30 1 27 6
M  V30 31 1 7 28 CFG=3
M  V30 32 1 29 8
M  V30 33 1 30 8
M  V30 34 1 31 11
M  V30 35 1 32 11
M  V30 36 1 33 12
M  V30 37 1 34 12
M  V30 38 1 35 13
M  V30 39 1 36 13
M  V30 40 1 37 14
M  V30 41 1 38 14
M  V30 42 1 39 15
M  V30 43 1 40 15
M  V30 44 1 41 16
M  V30 45 1 42 18
M  V30 46 1 43 19
M  V30 47 1 44 22
M  V30 END BOND
M  V30 END CTAB
M  END
>  <b_m_subgroup_collapsed>  (1655) 
0

>  <r_i_docking_score>  (1655) 
-6.873099802104

>  <s_m_subgroup_title>  (1655) 
glide-dock_SP_D22_pv

>  <s_m_subgroupid>  (1655) 
glide-dock_SP_D22_pv

>  <Molecule ChEMBL ID>  (1655) 
CHEMBL5723003

>  <Standard Type>  (1655) 
Ki

>  <Standard Value>  (1655) 
10000.0

>  <label>  (1655) 
0

$$$$
CHEMBL282927
     RDKit          3D

  0  0  0  0  0  0  0  0  0  0999 V3000
M  V30 BEGIN CTAB
M  V30 COUNTS 57 60 0 0 1
M  V30 BEGIN ATOM
M  V30 1 N 11.286798 6.584755 -4.580906 0
M  V30 2 C 11.603581 7.879369 -4.660508 0
M  V30 3 O 12.486053 8.375266 -3.967807 0
M  V30 4 C 10.794532 8.749849 -5.640583 0 CFG=1
M  V30 5 C 11.627219 9.299275 -6.800249 0
M  V30 6 C 11.295760 8.347922 -7.930854 0
M  V30 7 C 9.817636 8.015672 -7.672076 0 CFG=1
M  V30 8 C 9.335093 6.639655 -8.196517 0
M  V30 9 N 8.886150 6.572437 -9.620495 0 CHG=1
M  V30 10 C 8.500879 5.178196 -9.954232 0
M  V30 11 C 8.007864 5.025954 -11.398311 0
M  V30 12 C 9.037230 5.522128 -12.415833 0
M  V30 13 C 9.454378 4.817249 -13.513448 0
M  V30 14 C 10.490541 5.303345 -14.466082 0
M  V30 15 C 11.756238 5.769624 -14.042288 0
M  V30 16 C 12.715227 6.205967 -14.980128 0
M  V30 17 C 12.432717 6.164075 -16.356695 0
M  V30 18 C 11.191393 5.676064 -16.795448 0
M  V30 19 C 10.234686 5.244746 -15.857633 0
M  V30 20 C 8.850231 3.512570 -13.882868 0
M  V30 21 C 7.447574 3.347260 -13.944288 0
M  V30 22 C 6.884387 2.105678 -14.291636 0
M  V30 23 C 7.714048 1.027346 -14.646877 0
M  V30 24 F 7.167048 -0.162515 -14.984760 0
M  V30 25 C 9.111211 1.191833 -14.646762 0
M  V30 26 C 9.674160 2.422063 -14.249914 0
M  V30 27 C 9.458155 6.945148 -12.056347 0
M  V30 28 C 9.886988 7.096818 -10.587573 0
M  V30 29 O 9.762527 7.964757 -6.247353 0
M  V30 30 H 11.770495 5.981028 -3.933762 0
M  V30 31 H 10.525148 6.233023 -5.144290 0
M  V30 32 H 10.352512 9.574196 -5.081693 0
M  V30 33 H 11.288924 10.306431 -7.047104 0
M  V30 34 H 12.698569 9.357271 -6.595550 0
M  V30 35 H 11.911157 7.451684 -7.845769 0
M  V30 36 H 11.491708 8.801332 -8.901596 0
M  V30 37 H 9.167409 8.824249 -8.009616 0
M  V30 38 H 8.479631 6.335721 -7.590931 0
M  V30 39 H 10.109072 5.893129 -8.012497 0
M  V30 40 H 7.721262 4.850169 -9.268014 0
M  V30 41 H 9.354965 4.517226 -9.795141 0
M  V30 42 H 7.083289 5.589554 -11.531426 0
M  V30 43 H 7.755662 3.977101 -11.527146 0
M  V30 44 H 12.005395 5.793279 -12.994546 0
M  V30 45 H 13.675869 6.569749 -14.646586 0
M  V30 46 H 13.168982 6.498091 -17.073090 0
M  V30 47 H 10.967604 5.637083 -17.851690 0
M  V30 48 H 9.286530 4.874916 -16.218246 0
M  V30 49 H 6.789435 4.169641 -13.706252 0
M  V30 50 H 5.813013 1.980105 -14.283858 0
M  V30 51 H 9.750314 0.364520 -14.917868 0
M  V30 52 H 10.750119 2.521491 -14.228356 0
M  V30 53 H 10.256146 7.330141 -12.680396 0
M  V30 54 H 8.600186 7.591216 -12.242647 0
M  V30 55 H 10.038312 8.159897 -10.409832 0
M  V30 56 H 10.844701 6.596413 -10.430132 0
M  V30 57 H 8.029066 7.123639 -9.722546 0
M  V30 END ATOM
M  V30 BEGIN BOND
M  V30 1 1 2 1
M  V30 2 2 3 2
M  V30 3 1 4 2
M  V30 4 1 5 4
M  V30 5 1 6 5
M  V30 6 1 7 6
M  V30 7 1 8 7
M  V30 8 1 9 8
M  V30 9 1 10 9
M  V30 10 1 11 10
M  V30 11 1 12 11
M  V30 12 2 13 12
M  V30 13 1 14 13
M  V30 14 2 15 14
M  V30 15 1 16 15
M  V30 16 2 17 16
M  V30 17 1 18 17
M  V30 18 1 19 14
M  V30 19 2 19 18
M  V30 20 1 20 13
M  V30 21 1 21 20
M  V30 22 2 22 21
M  V30 23 1 23 22
M  V30 24 1 24 23
M  V30 25 2 25 23
M  V30 26 2 26 20
M  V30 27 1 26 25
M  V30 28 1 27 12
M  V30 29 1 28 9
M  V30 30 1 28 27
M  V30 31 1 29 4
M  V30 32 1 29 7
M  V30 33 1 30 1
M  V30 34 1 31 1
M  V30 35 1 4 32 CFG=1
M  V30 36 1 33 5
M  V30 37 1 34 5
M  V30 38 1 35 6
M  V30 39 1 36 6
M  V30 40 1 7 37 CFG=3
M  V30 41 1 38 8
M  V30 42 1 39 8
M  V30 43 1 40 10
M  V30 44 1 41 10
M  V30 45 1 42 11
M  V30 46 1 43 11
M  V30 47 1 44 15
M  V30 48 1 45 16
M  V30 49 1 46 17
M  V30 50 1 47 18
M  V30 51 1 48 19
M  V30 52 1 49 21
M  V30 53 1 50 22
M  V30 54 1 51 25
M  V30 55 1 52 26
M  V30 56 1 53 27
M  V30 57 1 54 27
M  V30 58 1 55 28
M  V30 59 1 56 28
M  V30 60 1 57 9
M  V30 END BOND
M  V30 END CTAB
M  END
>  <b_m_subgroup_collapsed>  (1656) 
0

>  <r_i_docking_score>  (1656) 
-6.8723978572159599

>  <s_m_subgroup_title>  (1656) 
glide-dock_SP_D22_pv

>  <s_m_subgroupid>  (1656) 
glide-dock_SP_D22_pv

>  <Molecule ChEMBL ID>  (1656) 
CHEMBL282927

>  <Standard Type>  (1656) 
Ki

>  <Standard Value>  (1656) 
100.0

>  <label>  (1656) 
1

$$$$
CHEMBL127114
     RDKit          3D

  0  0  0  0  0  0  0  0  0  0999 V3000
M  V30 BEGIN CTAB
M  V30 COUNTS 64 67 0 0 1
M  V30 BEGIN ATOM
M  V30 1 C 9.330566 4.224511 -18.140755 0
M  V30 2 O 9.441516 3.261196 -17.102871 0
M  V30 3 C 9.688423 1.946697 -17.444258 0
M  V30 4 C 9.761666 1.492237 -18.786581 0
M  V30 5 C 9.994469 0.133438 -19.074753 0
M  V30 6 C 10.152873 -0.792195 -18.028990 0
M  V30 7 C 10.085610 -0.353555 -16.695566 0
M  V30 8 C 9.863607 1.005165 -16.397760 0
M  V30 9 N 9.828011 1.374963 -15.046780 0
M  V30 10 C 8.544738 1.393216 -14.364546 0
M  V30 11 C 8.125341 2.837614 -14.044419 0
M  V30 12 N 9.204302 3.576481 -13.333044 0 CHG=1
M  V30 13 C 8.736607 4.919178 -12.896893 0
M  V30 14 C 9.752367 5.698888 -12.040107 0
M  V30 15 C 9.160733 7.013826 -11.511168 0
M  V30 16 C 10.208014 8.046933 -11.075706 0
M  V30 17 N 10.865849 7.693798 -9.823299 0
M  V30 18 C 10.518968 8.178599 -8.621598 0
M  V30 19 O 9.594659 8.970827 -8.449509 0
M  V30 20 C 11.385399 7.723208 -7.504750 0 CFG=2
M  V30 21 C 11.207112 6.298257 -7.024806 0
M  V30 22 C 10.691443 7.441842 -6.186646 0 CFG=1
M  V30 23 C 11.326998 7.810272 -4.882672 0
M  V30 24 C 11.538310 9.162951 -4.543858 0
M  V30 25 C 12.085679 9.502888 -3.290874 0
M  V30 26 C 12.437577 8.498922 -2.370588 0
M  V30 27 C 12.233559 7.147388 -2.703254 0
M  V30 28 C 11.686077 6.809942 -3.955260 0
M  V30 29 C 10.468002 3.593932 -14.120179 0
M  V30 30 C 10.918039 2.172360 -14.505432 0
M  V30 31 H 9.164139 5.207948 -17.700815 0
M  V30 32 H 10.244669 4.279203 -18.733274 0
M  V30 33 H 8.486414 4.011747 -18.797239 0
M  V30 34 H 9.637928 2.167142 -19.619518 0
M  V30 35 H 10.046235 -0.198998 -20.101456 0
M  V30 36 H 10.326118 -1.835627 -18.247026 0
M  V30 37 H 10.206261 -1.064367 -15.891396 0
M  V30 38 H 8.633544 0.809686 -13.447412 0
M  V30 39 H 7.781435 0.904259 -14.972109 0
M  V30 40 H 7.213707 2.824482 -13.446603 0
M  V30 41 H 7.881997 3.362455 -14.968301 0
M  V30 42 H 7.819722 4.794877 -12.317633 0
M  V30 43 H 8.469275 5.508308 -13.776149 0
M  V30 44 H 10.631823 5.936471 -12.638065 0
M  V30 45 H 10.085792 5.089859 -11.199554 0
M  V30 46 H 8.485270 6.807441 -10.681334 0
M  V30 47 H 8.549321 7.471293 -12.290416 0
M  V30 48 H 9.714128 9.011519 -10.979774 0
M  V30 49 H 10.966007 8.170620 -11.847689 0
M  V30 50 H 11.650330 7.062898 -9.871065 0
M  V30 51 H 12.373782 8.174981 -7.448034 0
M  V30 52 H 12.098645 5.772548 -6.690081 0
M  V30 53 H 10.471449 5.684374 -7.541330 0
M  V30 54 H 9.609990 7.562031 -6.126548 0
M  V30 55 H 11.259904 9.943139 -5.237634 0
M  V30 56 H 12.219421 10.540340 -3.024599 0
M  V30 57 H 12.850650 8.769811 -1.409962 0
M  V30 58 H 12.488635 6.367800 -2.000005 0
M  V30 59 H 11.517584 5.772381 -4.197851 0
M  V30 60 H 10.332791 4.210450 -15.008182 0
M  V30 61 H 11.274459 4.049448 -13.547324 0
M  V30 62 H 11.287139 1.658650 -13.618977 0
M  V30 63 H 11.747240 2.216713 -15.213044 0
M  V30 64 H 9.402627 3.042895 -12.497082 0
M  V30 END ATOM
M  V30 BEGIN BOND
M  V30 1 1 2 1
M  V30 2 1 3 2
M  V30 3 2 4 3
M  V30 4 1 5 4
M  V30 5 2 6 5
M  V30 6 1 7 6
M  V30 7 1 8 3
M  V30 8 2 8 7
M  V30 9 1 9 8
M  V30 10 1 10 9
M  V30 11 1 11 10
M  V30 12 1 12 11
M  V30 13 1 13 12
M  V30 14 1 14 13
M  V30 15 1 15 14
M  V30 16 1 16 15
M  V30 17 1 17 16
M  V30 18 1 18 17
M  V30 19 2 19 18
M  V30 20 1 20 18
M  V30 21 1 21 20
M  V30 22 1 22 20
M  V30 23 1 22 21
M  V30 24 1 23 22
M  V30 25 2 24 23
M  V30 26 1 25 24
M  V30 27 2 26 25
M  V30 28 1 27 26
M  V30 29 1 28 23
M  V30 30 2 28 27
M  V30 31 1 29 12
M  V30 32 1 30 9
M  V30 33 1 30 29
M  V30 34 1 31 1
M  V30 35 1 32 1
M  V30 36 1 33 1
M  V30 37 1 34 4
M  V30 38 1 35 5
M  V30 39 1 36 6
M  V30 40 1 37 7
M  V30 41 1 38 10
M  V30 42 1 39 10
M  V30 43 1 40 11
M  V30 44 1 41 11
M  V30 45 1 42 13
M  V30 46 1 43 13
M  V30 47 1 44 14
M  V30 48 1 45 14
M  V30 49 1 46 15
M  V30 50 1 47 15
M  V30 51 1 48 16
M  V30 52 1 49 16
M  V30 53 1 50 17
M  V30 54 1 20 51 CFG=1
M  V30 55 1 52 21
M  V30 56 1 53 21
M  V30 57 1 22 54 CFG=3
M  V30 58 1 55 24
M  V30 59 1 56 25
M  V30 60 1 57 26
M  V30 61 1 58 27
M  V30 62 1 59 28
M  V30 63 1 60 29
M  V30 64 1 61 29
M  V30 65 1 62 30
M  V30 66 1 63 30
M  V30 67 1 64 12
M  V30 END BOND
M  V30 END CTAB
M  END
>  <b_m_subgroup_collapsed>  (1657) 
0

>  <r_i_docking_score>  (1657) 
-6.8723287960740196

>  <s_m_subgroup_title>  (1657) 
glide-dock_SP_D22_pv

>  <s_m_subgroupid>  (1657) 
glide-dock_SP_D22_pv

>  <Molecule ChEMBL ID>  (1657) 
CHEMBL127114

>  <Standard Type>  (1657) 
Ki

>  <Standard Value>  (1657) 
81.0

>  <label>  (1657) 
1

$$$$
CHEMBL1223749
     RDKit          3D

  0  0  0  0  0  0  0  0  0  0999 V3000
M  V30 BEGIN CTAB
M  V30 COUNTS 57 60 0 0 1
M  V30 BEGIN ATOM
M  V30 1 Cl 7.925467 -0.160032 -17.766216 0
M  V30 2 C 7.274914 0.424540 -16.274136 0
M  V30 3 C 6.307703 -0.352683 -15.612430 0
M  V30 4 C 5.769770 0.079034 -14.391072 0
M  V30 5 C 6.178434 1.307209 -13.847478 0
M  V30 6 C 7.130470 2.125930 -14.505320 0
M  V30 7 N 7.452034 3.373389 -13.920696 0
M  V30 8 C 6.417603 4.183408 -13.280533 0
M  V30 9 C 6.814205 4.547190 -11.844239 0
M  V30 10 N 8.171770 5.149047 -11.792216 0 CHG=1
M  V30 11 C 8.567172 5.538414 -10.418014 0
M  V30 12 C 9.483788 6.776330 -10.395929 0
M  V30 13 C 10.367307 6.861282 -9.142859 0
M  V30 14 C 9.627932 6.617933 -7.812950 0
M  V30 15 N 10.551083 6.572301 -6.684331 0
M  V30 16 C 10.884890 7.746061 -6.002162 0
M  V30 17 N 10.685905 8.921885 -6.636889 0 CHG=1
M  V30 18 C 10.886048 10.113813 -6.058249 0
M  V30 19 C 11.279470 10.172462 -4.721430 0
M  V30 20 C 11.620774 9.000382 -4.040820 0
M  V30 21 C 12.134954 9.076784 -2.735126 0
M  V30 22 C 12.459855 7.898221 -2.048244 0
M  V30 23 C 12.214819 6.649929 -2.648768 0
M  V30 24 C 11.686382 6.575211 -3.954880 0
M  V30 25 C 11.406557 7.753922 -4.678820 0
M  V30 26 C 9.198520 4.281976 -12.433862 0
M  V30 27 C 8.819443 3.876729 -13.863375 0
M  V30 28 C 7.700216 1.659577 -15.731152 0
M  V30 29 Cl 8.880662 2.571945 -16.625490 0
M  V30 30 H 5.998095 -1.299322 -16.031826 0
M  V30 31 H 5.041875 -0.531499 -13.877122 0
M  V30 32 H 5.749408 1.607310 -12.903391 0
M  V30 33 H 6.299697 5.100595 -13.846653 0
M  V30 34 H 5.436930 3.709119 -13.299829 0
M  V30 35 H 6.084295 5.253672 -11.447186 0
M  V30 36 H 6.783495 3.661727 -11.208848 0
M  V30 37 H 7.686023 5.771567 -9.820700 0
M  V30 38 H 9.044584 4.686118 -9.932051 0
M  V30 39 H 10.141012 6.788539 -11.266277 0
M  V30 40 H 8.878905 7.679973 -10.476427 0
M  V30 41 H 11.170871 6.138465 -9.238927 0
M  V30 42 H 10.862365 7.831931 -9.130430 0
M  V30 43 H 8.850132 7.366899 -7.653827 0
M  V30 44 H 9.116675 5.656644 -7.829665 0
M  V30 45 H 10.599391 5.699996 -6.175939 0
M  V30 46 H 10.649148 10.981031 -6.645933 0
M  V30 47 H 11.285989 11.127324 -4.232701 0
M  V30 48 H 12.297739 10.034116 -2.259346 0
M  V30 49 H 12.879425 7.955913 -1.053623 0
M  V30 50 H 12.443038 5.747787 -2.103211 0
M  V30 51 H 11.513627 5.613231 -4.398487 0
M  V30 52 H 10.165976 4.781863 -12.445592 0
M  V30 53 H 9.332268 3.373030 -11.846807 0
M  V30 54 H 9.530971 3.118522 -14.188507 0
M  V30 55 H 8.911237 4.727342 -14.539803 0
M  V30 56 H 8.107015 6.001842 -12.328858 0
M  V30 57 H 10.334005 8.902996 -7.595401 0
M  V30 END ATOM
M  V30 BEGIN BOND
M  V30 1 1 2 1
M  V30 2 1 3 2
M  V30 3 2 4 3
M  V30 4 1 5 4
M  V30 5 2 6 5
M  V30 6 1 7 6
M  V30 7 1 8 7
M  V30 8 1 9 8
M  V30 9 1 10 9
M  V30 10 1 11 10
M  V30 11 1 12 11
M  V30 12 1 13 12
M  V30 13 1 14 13
M  V30 14 1 15 14
M  V30 15 1 16 15
M  V30 16 2 17 16
M  V30 17 1 18 17
M  V30 18 2 19 18
M  V30 19 1 20 19
M  V30 20 2 21 20
M  V30 21 1 22 21
M  V30 22 2 23 22
M  V30 23 1 24 23
M  V30 24 1 25 16
M  V30 25 1 25 20
M  V30 26 2 25 24
M  V30 27 1 26 10
M  V30 28 1 27 7
M  V30 29 1 27 26
M  V30 30 2 28 2
M  V30 31 1 28 6
M  V30 32 1 29 28
M  V30 33 1 30 3
M  V30 34 1 31 4
M  V30 35 1 32 5
M  V30 36 1 33 8
M  V30 37 1 34 8
M  V30 38 1 35 9
M  V30 39 1 36 9
M  V30 40 1 37 11
M  V30 41 1 38 11
M  V30 42 1 39 12
M  V30 43 1 40 12
M  V30 44 1 41 13
M  V30 45 1 42 13
M  V30 46 1 43 14
M  V30 47 1 44 14
M  V30 48 1 45 15
M  V30 49 1 46 18
M  V30 50 1 47 19
M  V30 51 1 48 21
M  V30 52 1 49 22
M  V30 53 1 50 23
M  V30 54 1 51 24
M  V30 55 1 52 26
M  V30 56 1 53 26
M  V30 57 1 54 27
M  V30 58 1 55 27
M  V30 59 1 56 10
M  V30 60 1 57 17
M  V30 END BOND
M  V30 END CTAB
M  END
>  <b_m_subgroup_collapsed>  (1658) 
0

>  <r_i_docking_score>  (1658) 
-6.8699236571356197

>  <s_m_subgroup_title>  (1658) 
glide-dock_SP_D22_pv

>  <s_m_subgroupid>  (1658) 
glide-dock_SP_D22_pv

>  <Molecule ChEMBL ID>  (1658) 
CHEMBL1223749

>  <Standard Type>  (1658) 
Ki

>  <Standard Value>  (1658) 
3.1

>  <label>  (1658) 
1

$$$$
CHEMBL594799
     RDKit          3D

  0  0  0  0  0  0  0  0  0  0999 V3000
M  V30 BEGIN CTAB
M  V30 COUNTS 45 47 0 0 1
M  V30 BEGIN ATOM
M  V30 1 C 12.391706 7.771502 -12.142022 0
M  V30 2 C 11.519018 8.053692 -10.902327 0
M  V30 3 C 10.485680 6.969594 -10.575791 0
M  V30 4 C 9.825557 6.336277 -11.658981 0
M  V30 5 C 8.867521 5.318115 -11.454011 0
M  V30 6 O 8.226225 4.628978 -12.459995 0
M  V30 7 C 8.703351 4.786528 -13.786069 0
M  V30 8 C 8.535373 4.972022 -10.138407 0
M  V30 9 C 9.166364 5.585690 -9.048781 0
M  V30 10 C 10.139765 6.594101 -9.239132 0
M  V30 11 C 10.732595 7.299525 -8.010663 0 CFG=2
M  V30 12 C 10.807940 6.489538 -6.694134 0
M  V30 13 C 11.285856 7.331590 -5.516337 0
M  V30 14 C 11.686067 6.710670 -4.316421 0
M  V30 15 C 12.086535 7.474373 -3.204577 0
M  V30 16 C 12.085249 8.876849 -3.287619 0
M  V30 17 C 11.686079 9.501965 -4.483492 0
M  V30 18 C 11.287397 8.741107 -5.598667 0
M  V30 19 C 10.882124 9.445992 -6.886734 0
M  V30 20 N 10.044140 8.589440 -7.767506 0 CFG=2 CHG=1
M  V30 21 C 8.637101 8.452932 -7.305389 0
M  V30 22 H 13.168606 8.529674 -12.244898 0
M  V30 23 H 12.885927 6.804904 -12.080147 0
M  V30 24 H 11.821771 7.771802 -13.070390 0
M  V30 25 H 10.971163 8.980918 -11.046401 0
M  V30 26 H 12.210711 8.236494 -10.085332 0
M  V30 27 H 10.056911 6.636512 -12.666472 0
M  V30 28 H 8.200002 4.069040 -14.434581 0
M  V30 29 H 8.486773 5.781279 -14.169095 0
M  V30 30 H 9.775196 4.596898 -13.859262 0
M  V30 31 H 7.788315 4.211957 -9.962029 0
M  V30 32 H 8.849280 5.275403 -8.066507 0
M  V30 33 H 11.775568 7.506990 -8.234582 0
M  V30 34 H 11.480170 5.642971 -6.827403 0
M  V30 35 H 9.835657 6.103174 -6.399369 0
M  V30 36 H 11.679367 5.639980 -4.243195 0
M  V30 37 H 12.389075 6.985720 -2.289086 0
M  V30 38 H 12.385975 9.472985 -2.438318 0
M  V30 39 H 11.683447 10.573247 -4.545483 0
M  V30 40 H 10.392942 10.385151 -6.646526 0
M  V30 41 H 11.789582 9.718315 -7.425062 0
M  V30 42 H 8.569535 8.204425 -6.246813 0
M  V30 43 H 8.091686 9.374995 -7.469161 0
M  V30 44 H 8.087064 7.691826 -7.850106 0
M  V30 45 H 9.988806 9.046309 -8.666792 0
M  V30 END ATOM
M  V30 BEGIN BOND
M  V30 1 1 2 1
M  V30 2 1 3 2
M  V30 3 1 4 3
M  V30 4 2 5 4
M  V30 5 1 6 5
M  V30 6 1 7 6
M  V30 7 1 8 5
M  V30 8 2 9 8
M  V30 9 2 10 3
M  V30 10 1 10 9
M  V30 11 1 11 10
M  V30 12 1 12 11
M  V30 13 1 13 12
M  V30 14 2 14 13
M  V30 15 1 15 14
M  V30 16 2 16 15
M  V30 17 1 17 16
M  V30 18 1 18 13
M  V30 19 2 18 17
M  V30 20 1 19 18
M  V30 21 1 20 11
M  V30 22 1 20 19
M  V30 23 1 21 20
M  V30 24 1 22 1
M  V30 25 1 23 1
M  V30 26 1 24 1
M  V30 27 1 25 2
M  V30 28 1 26 2
M  V30 29 1 27 4
M  V30 30 1 28 7
M  V30 31 1 29 7
M  V30 32 1 30 7
M  V30 33 1 31 8
M  V30 34 1 32 9
M  V30 35 1 11 33 CFG=3
M  V30 36 1 34 12
M  V30 37 1 35 12
M  V30 38 1 36 14
M  V30 39 1 37 15
M  V30 40 1 38 16
M  V30 41 1 39 17
M  V30 42 1 40 19
M  V30 43 1 41 19
M  V30 44 1 42 21
M  V30 45 1 43 21
M  V30 46 1 44 21
M  V30 47 1 20 45 CFG=3
M  V30 END BOND
M  V30 END CTAB
M  END
>  <b_m_subgroup_collapsed>  (1659) 
0

>  <r_i_docking_score>  (1659) 
-6.8693482311716201

>  <s_m_subgroup_title>  (1659) 
glide-dock_SP_D22_pv

>  <s_m_subgroupid>  (1659) 
glide-dock_SP_D22_pv

>  <Molecule ChEMBL ID>  (1659) 
CHEMBL594799

>  <Standard Type>  (1659) 
Ki

>  <Standard Value>  (1659) 
10000.0

>  <label>  (1659) 
0

$$$$
CHEMBL455288
     RDKit          3D

  0  0  0  0  0  0  0  0  0  0999 V3000
M  V30 BEGIN CTAB
M  V30 COUNTS 95 100 0 0 1
M  V30 BEGIN ATOM
M  V30 1 O 11.685760 3.132524 -15.142084 0
M  V30 2 C 10.615911 3.611229 -14.764911 0
M  V30 3 O 10.462792 4.911153 -14.424640 0
M  V30 4 C 11.584383 5.786461 -14.449274 0
M  V30 5 C 11.879379 6.272224 -15.884830 0
M  V30 6 N 13.183539 6.936504 -15.965360 0
M  V30 7 C 13.327538 7.805782 -17.137527 0
M  V30 8 C 13.451615 6.997727 -18.443443 0
M  V30 9 N 14.608629 6.072655 -18.360897 0 CHG=1
M  V30 10 C 14.948407 5.373924 -19.627857 0
M  V30 11 C 13.788363 4.564770 -20.243544 0
M  V30 12 C 14.210465 3.772577 -21.500406 0
M  V30 13 N 14.922886 2.510875 -21.199425 0
M  V30 14 C 16.321049 2.445148 -21.465204 0
M  V30 15 C 16.980499 3.359319 -22.337461 0
M  V30 16 C 18.372784 3.323684 -22.538872 0
M  V30 17 C 19.159166 2.367436 -21.882174 0
M  V30 18 C 18.534315 1.431292 -21.049940 0
M  V30 19 C 17.136753 1.446890 -20.863628 0
M  V30 20 S 16.485807 0.172115 -19.846617 0
M  V30 21 C 14.747206 0.341572 -20.011003 0
M  V30 22 C 13.969935 -0.698766 -19.465824 0
M  V30 23 C 12.568899 -0.627669 -19.470833 0
M  V30 24 C 11.934419 0.485625 -20.043629 0
M  V30 25 C 10.414085 0.592470 -20.046972 0
M  V30 26 F 9.867650 -0.221885 -19.143766 0
M  V30 27 F 10.040031 1.840394 -19.763464 0
M  V30 28 F 9.952443 0.268011 -21.252850 0
M  V30 29 C 12.714587 1.503205 -20.630344 0
M  V30 30 C 14.140185 1.467923 -20.626577 0
M  V30 31 C 14.482787 5.176044 -17.188869 0
M  V30 32 C 14.322910 6.010175 -15.901047 0
M  V30 33 C 9.354417 2.820339 -14.661275 0
M  V30 34 C 9.374740 1.448550 -14.992568 0
M  V30 35 C 8.200361 0.675807 -14.922425 0
M  V30 36 C 6.973618 1.263910 -14.534930 0
M  V30 37 O 5.783524 0.572321 -14.473071 0
M  V30 38 C 5.670196 -0.572337 -15.309581 0
M  V30 39 C 4.190856 -0.877334 -15.597842 0
M  V30 40 C 3.898420 -1.215793 -17.070374 0
M  V30 41 N 4.162511 -2.627670 -17.446955 0 CHG=1
M  V30 42 C 3.505403 -2.975985 -18.735109 0
M  V30 43 C 3.686543 -4.461467 -19.097582 0
M  V30 44 C 5.168434 -4.849912 -19.122602 0
M  V30 45 C 5.808832 -4.492829 -17.779776 0
M  V30 46 C 5.606824 -3.003943 -17.452435 0
M  V30 47 C 6.956602 2.630101 -14.187918 0
M  V30 48 C 8.132766 3.401745 -14.247052 0
M  V30 49 H 12.440128 5.283498 -14.001660 0
M  V30 50 H 11.370266 6.642961 -13.811598 0
M  V30 51 H 11.097760 6.971597 -16.172422 0
M  V30 52 H 11.820738 5.450756 -16.597115 0
M  V30 53 H 14.215505 8.426668 -17.008436 0
M  V30 54 H 12.487310 8.499161 -17.193600 0
M  V30 55 H 13.589969 7.681643 -19.281675 0
M  V30 56 H 12.528801 6.450027 -18.634993 0
M  V30 57 H 15.803482 4.719153 -19.453390 0
M  V30 58 H 15.286411 6.118684 -20.349743 0
M  V30 59 H 13.000346 5.254662 -20.545658 0
M  V30 60 H 13.339786 3.904456 -19.502029 0
M  V30 61 H 14.755065 4.469811 -22.125046 0
M  V30 62 H 13.343354 3.553706 -22.121519 0
M  V30 63 H 16.464645 4.111297 -22.905703 0
M  V30 64 H 18.847502 4.033095 -23.203083 0
M  V30 65 H 20.231216 2.345745 -22.031874 0
M  V30 66 H 19.133890 0.687477 -20.548107 0
M  V30 67 H 14.454688 -1.558279 -19.026917 0
M  V30 68 H 11.988863 -1.427361 -19.032816 0
M  V30 69 H 12.160791 2.315203 -21.072083 0
M  V30 70 H 13.651752 4.482555 -17.312613 0
M  V30 71 H 15.382623 4.565495 -17.103832 0
M  V30 72 H 15.232740 6.587296 -15.728748 0
M  V30 73 H 14.228545 5.346677 -15.046284 0
M  V30 74 H 10.292900 0.974139 -15.303239 0
M  V30 75 H 8.261573 -0.373259 -15.176290 0
M  V30 76 H 6.188033 -0.390887 -16.253508 0
M  V30 77 H 6.146162 -1.427283 -14.828029 0
M  V30 78 H 3.818567 -1.656163 -14.932491 0
M  V30 79 H 3.611806 0.014829 -15.359659 0
M  V30 80 H 2.839853 -1.027897 -17.233835 0
M  V30 81 H 4.423559 -0.541358 -17.744720 0
M  V30 82 H 2.440901 -2.764989 -18.659489 0
M  V30 83 H 3.904014 -2.344735 -19.530218 0
M  V30 84 H 3.161733 -5.088950 -18.376863 0
M  V30 85 H 3.230394 -4.667034 -20.067200 0
M  V30 86 H 5.277281 -5.917499 -19.318043 0
M  V30 87 H 5.680326 -4.324951 -19.929914 0
M  V30 88 H 5.372122 -5.104433 -16.988203 0
M  V30 89 H 6.874438 -4.727907 -17.795160 0
M  V30 90 H 6.145485 -2.384594 -18.171900 0
M  V30 91 H 6.066557 -2.832602 -16.482857 0
M  V30 92 H 6.030386 3.092633 -13.880103 0
M  V30 93 H 8.076130 4.446035 -13.974545 0
M  V30 94 H 3.691790 -3.236086 -16.768837 0
M  V30 95 H 15.403575 6.660654 -18.155487 0
M  V30 END ATOM
M  V30 BEGIN BOND
M  V30 1 2 2 1
M  V30 2 1 3 2
M  V30 3 1 4 3
M  V30 4 1 5 4
M  V30 5 1 6 5
M  V30 6 1 7 6
M  V30 7 1 8 7
M  V30 8 1 9 8
M  V30 9 1 10 9
M  V30 10 1 11 10
M  V30 11 1 12 11
M  V30 12 1 13 12
M  V30 13 1 14 13
M  V30 14 2 15 14
M  V30 15 1 16 15
M  V30 16 2 17 16
M  V30 17 1 18 17
M  V30 18 1 19 14
M  V30 19 2 19 18
M  V30 20 1 20 19
M  V30 21 1 21 20
M  V30 22 1 22 21
M  V30 23 2 23 22
M  V30 24 1 24 23
M  V30 25 1 25 24
M  V30 26 1 26 25
M  V30 27 1 27 25
M  V30 28 1 28 25
M  V30 29 2 29 24
M  V30 30 1 30 13
M  V30 31 2 30 21
M  V30 32 1 30 29
M  V30 33 1 31 9
M  V30 34 1 32 6
M  V30 35 1 32 31
M  V30 36 1 33 2
M  V30 37 1 34 33
M  V30 38 2 35 34
M  V30 39 1 36 35
M  V30 40 1 37 36
M  V30 41 1 38 37
M  V30 42 1 39 38
M  V30 43 1 40 39
M  V30 44 1 41 40
M  V30 45 1 42 41
M  V30 46 1 43 42
M  V30 47 1 44 43
M  V30 48 1 45 44
M  V30 49 1 46 41
M  V30 50 1 46 45
M  V30 51 2 47 36
M  V30 52 2 48 33
M  V30 53 1 48 47
M  V30 54 1 49 4
M  V30 55 1 50 4
M  V30 56 1 51 5
M  V30 57 1 52 5
M  V30 58 1 53 7
M  V30 59 1 54 7
M  V30 60 1 55 8
M  V30 61 1 56 8
M  V30 62 1 57 10
M  V30 63 1 58 10
M  V30 64 1 59 11
M  V30 65 1 60 11
M  V30 66 1 61 12
M  V30 67 1 62 12
M  V30 68 1 63 15
M  V30 69 1 64 16
M  V30 70 1 65 17
M  V30 71 1 66 18
M  V30 72 1 67 22
M  V30 73 1 68 23
M  V30 74 1 69 29
M  V30 75 1 70 31
M  V30 76 1 71 31
M  V30 77 1 72 32
M  V30 78 1 73 32
M  V30 79 1 74 34
M  V30 80 1 75 35
M  V30 81 1 76 38
M  V30 82 1 77 38
M  V30 83 1 78 39
M  V30 84 1 79 39
M  V30 85 1 80 40
M  V30 86 1 81 40
M  V30 87 1 82 42
M  V30 88 1 83 42
M  V30 89 1 84 43
M  V30 90 1 85 43
M  V30 91 1 86 44
M  V30 92 1 87 44
M  V30 93 1 88 45
M  V30 94 1 89 45
M  V30 95 1 90 46
M  V30 96 1 91 46
M  V30 97 1 92 47
M  V30 98 1 93 48
M  V30 99 1 94 41
M  V30 100 1 95 9
M  V30 END BOND
M  V30 END CTAB
M  END
>  <b_m_subgroup_collapsed>  (1660) 
0

>  <r_i_docking_score>  (1660) 
-6.8682990051077901

>  <s_m_subgroup_title>  (1660) 
glide-dock_SP_D22_pv

>  <s_m_subgroupid>  (1660) 
glide-dock_SP_D22_pv

>  <Molecule ChEMBL ID>  (1660) 
CHEMBL455288

>  <Standard Type>  (1660) 
Ki

>  <Standard Value>  (1660) 
47.0

>  <label>  (1660) 
1

$$$$
CHEMBL169193
     RDKit          3D

  0  0  0  0  0  0  0  0  0  0999 V3000
M  V30 BEGIN CTAB
M  V30 COUNTS 57 59 0 0 1
M  V30 BEGIN ATOM
M  V30 1 C 5.833872 -0.281950 -14.711662 0
M  V30 2 N 7.092095 0.173749 -15.282174 0
M  V30 3 C 7.699912 1.326213 -14.757640 0
M  V30 4 C 6.936332 2.384631 -14.213122 0
M  V30 5 C 7.563260 3.504448 -13.608481 0
M  V30 6 O 6.844210 4.535528 -13.047125 0
M  V30 7 C 5.558726 4.239479 -12.530121 0
M  V30 8 C 8.980671 3.572169 -13.572974 0
M  V30 9 C 9.701767 4.714204 -12.907778 0
M  V30 10 O 10.682131 5.225991 -13.447556 0
M  V30 11 N 9.232826 5.112120 -11.709495 0
M  V30 12 C 9.572282 6.406093 -11.127178 0
M  V30 13 C 9.070739 6.621266 -9.671045 0 CFG=1
M  V30 14 C 9.934169 5.934154 -8.592960 0
M  V30 15 N 10.168398 6.917105 -7.502457 0 CFG=1 CHG=1
M  V30 16 C 11.451345 6.740871 -6.781499 0
M  V30 17 C 11.519806 7.462686 -5.427855 0
M  V30 18 C 11.685860 6.708017 -4.247101 0
M  V30 19 C 11.882310 7.329873 -2.999933 0
M  V30 20 C 11.883044 8.731787 -2.914757 0
M  V30 21 C 11.695299 9.497726 -4.077923 0
M  V30 22 C 11.549327 8.873263 -5.331640 0
M  V30 23 C 10.054067 8.246079 -8.118711 0
M  V30 24 C 9.025265 8.101088 -9.212933 0 CFG=1
M  V30 25 C 9.200513 9.166908 -10.295164 0
M  V30 26 C 9.736967 2.557134 -14.199741 0
M  V30 27 C 9.108049 1.433609 -14.768502 0
M  V30 28 Cl 10.086056 0.177197 -15.446849 0
M  V30 29 H 5.721998 -1.351310 -14.889297 0
M  V30 30 H 5.798124 -0.115861 -13.634025 0
M  V30 31 H 4.988297 0.224044 -15.176581 0
M  V30 32 H 7.716318 -0.567004 -15.578623 0
M  V30 33 H 5.860254 2.324494 -14.243728 0
M  V30 34 H 5.285918 5.043936 -11.848537 0
M  V30 35 H 4.812232 4.187139 -13.323288 0
M  V30 36 H 5.549396 3.309973 -11.959607 0
M  V30 37 H 8.418376 4.636987 -11.346884 0
M  V30 38 H 9.089972 7.120000 -11.794933 0
M  V30 39 H 10.645620 6.591960 -11.191985 0
M  V30 40 H 8.061218 6.218957 -9.602754 0
M  V30 41 H 10.885782 5.645822 -9.029662 0
M  V30 42 H 9.466823 5.026158 -8.208425 0
M  V30 43 H 12.263667 7.059477 -7.442587 0
M  V30 44 H 11.620358 5.678201 -6.616259 0
M  V30 45 H 11.700377 5.636548 -4.294939 0
M  V30 46 H 12.018013 6.728837 -2.113055 0
M  V30 47 H 12.015883 9.219008 -1.959127 0
M  V30 48 H 11.685115 10.572215 -4.005758 0
M  V30 49 H 11.486148 9.497185 -6.208626 0
M  V30 50 H 9.738345 9.000336 -7.398868 0
M  V30 51 H 11.009815 8.553363 -8.547654 0
M  V30 52 H 8.086409 8.284577 -8.700128 0
M  V30 53 H 10.112111 8.990355 -10.867621 0
M  V30 54 H 8.356666 9.189145 -10.985296 0
M  V30 55 H 9.286138 10.153104 -9.846907 0
M  V30 56 H 10.817062 2.610115 -14.199084 0
M  V30 57 H 9.402931 6.818579 -6.848778 0
M  V30 END ATOM
M  V30 BEGIN BOND
M  V30 1 1 2 1
M  V30 2 1 3 2
M  V30 3 2 4 3
M  V30 4 1 5 4
M  V30 5 1 6 5
M  V30 6 1 7 6
M  V30 7 2 8 5
M  V30 8 1 9 8
M  V30 9 2 10 9
M  V30 10 1 11 9
M  V30 11 1 12 11
M  V30 12 1 13 12
M  V30 13 1 14 13
M  V30 14 1 15 14
M  V30 15 1 16 15
M  V30 16 1 17 16
M  V30 17 2 18 17
M  V30 18 1 19 18
M  V30 19 2 20 19
M  V30 20 1 21 20
M  V30 21 1 22 17
M  V30 22 2 22 21
M  V30 23 1 23 15
M  V30 24 1 24 13
M  V30 25 1 24 23
M  V30 26 1 25 24
M  V30 27 1 26 8
M  V30 28 1 27 3
M  V30 29 2 27 26
M  V30 30 1 28 27
M  V30 31 1 29 1
M  V30 32 1 30 1
M  V30 33 1 31 1
M  V30 34 1 32 2
M  V30 35 1 33 4
M  V30 36 1 34 7
M  V30 37 1 35 7
M  V30 38 1 36 7
M  V30 39 1 37 11
M  V30 40 1 38 12
M  V30 41 1 39 12
M  V30 42 1 13 40 CFG=3
M  V30 43 1 41 14
M  V30 44 1 42 14
M  V30 45 1 43 16
M  V30 46 1 44 16
M  V30 47 1 45 18
M  V30 48 1 46 19
M  V30 49 1 47 20
M  V30 50 1 48 21
M  V30 51 1 49 22
M  V30 52 1 50 23
M  V30 53 1 51 23
M  V30 54 1 24 52 CFG=1
M  V30 55 1 53 25
M  V30 56 1 54 25
M  V30 57 1 55 25
M  V30 58 1 56 26
M  V30 59 1 15 57 CFG=1
M  V30 END BOND
M  V30 END CTAB
M  END
>  <b_m_subgroup_collapsed>  (1661) 
0

>  <r_i_docking_score>  (1661) 
-6.8675628455426603

>  <s_m_subgroup_title>  (1661) 
glide-dock_SP_D22_pv

>  <s_m_subgroupid>  (1661) 
glide-dock_SP_D22_pv

>  <Molecule ChEMBL ID>  (1661) 
CHEMBL169193

>  <Standard Type>  (1661) 
Ki

>  <Standard Value>  (1661) 
79.0

>  <label>  (1661) 
1

$$$$
CHEMBL46374
     RDKit          3D

  0  0  0  0  0  0  0  0  0  0999 V3000
M  V30 BEGIN CTAB
M  V30 COUNTS 39 40 0 0 1
M  V30 BEGIN ATOM
M  V30 1 O 5.735445 4.013484 -11.846899 0
M  V30 2 C 6.012781 5.231997 -12.500760 0
M  V30 3 C 7.526524 5.465960 -12.622399 0
M  V30 4 N 8.086029 6.172781 -11.445534 0 CFG=2 CHG=1
M  V30 5 C 9.115951 7.180184 -11.811398 0
M  V30 6 C 9.526180 8.020072 -10.592192 0
M  V30 7 C 10.022493 7.136020 -9.437202 0 CFG=1
M  V30 8 C 10.350142 7.982879 -8.196536 0
M  V30 9 O 10.924107 7.119534 -7.232012 0
M  V30 10 C 11.233048 7.622882 -5.991982 0
M  V30 11 C 11.684087 6.686378 -5.045893 0
M  V30 12 C 12.052875 7.076342 -3.751707 0
M  V30 13 C 11.967834 8.427753 -3.387253 0
M  V30 14 I 12.488091 8.973179 -1.446870 0
M  V30 15 C 11.512531 9.384058 -4.316379 0
M  V30 16 C 11.146393 8.988287 -5.619309 0
M  V30 17 C 8.974034 6.047199 -9.127018 0
M  V30 18 C 8.574816 5.258089 -10.384788 0
M  V30 19 H 5.685991 4.172478 -10.905964 0
M  V30 20 H 5.575947 5.159647 -13.496502 0
M  V30 21 H 5.515665 6.061742 -11.995184 0
M  V30 22 H 8.063844 4.537735 -12.826825 0
M  V30 23 H 7.686699 6.086962 -13.501018 0
M  V30 24 H 9.984983 6.679208 -12.241653 0
M  V30 25 H 8.719076 7.851484 -12.573714 0
M  V30 26 H 10.306345 8.725354 -10.880864 0
M  V30 27 H 8.678655 8.623404 -10.260973 0
M  V30 28 H 10.940704 6.643191 -9.760329 0
M  V30 29 H 11.060411 8.770500 -8.455853 0
M  V30 30 H 9.446464 8.454568 -7.804745 0
M  V30 31 H 11.768618 5.656048 -5.338252 0
M  V30 32 H 12.394642 6.338048 -3.039975 0
M  V30 33 H 11.436579 10.420966 -4.026094 0
M  V30 34 H 10.802996 9.740922 -6.314144 0
M  V30 35 H 9.357009 5.358297 -8.373351 0
M  V30 36 H 8.086540 6.506447 -8.691676 0
M  V30 37 H 7.800019 4.534613 -10.132991 0
M  V30 38 H 9.427086 4.684778 -10.755745 0
M  V30 39 H 7.331462 6.725562 -11.024690 0
M  V30 END ATOM
M  V30 BEGIN BOND
M  V30 1 1 2 1
M  V30 2 1 3 2
M  V30 3 1 4 3
M  V30 4 1 5 4
M  V30 5 1 6 5
M  V30 6 1 7 6
M  V30 7 1 8 7
M  V30 8 1 9 8
M  V30 9 1 10 9
M  V30 10 1 11 10
M  V30 11 2 12 11
M  V30 12 1 13 12
M  V30 13 1 14 13
M  V30 14 2 15 13
M  V30 15 2 16 10
M  V30 16 1 16 15
M  V30 17 1 17 7
M  V30 18 1 18 4
M  V30 19 1 18 17
M  V30 20 1 19 1
M  V30 21 1 20 2
M  V30 22 1 21 2
M  V30 23 1 22 3
M  V30 24 1 23 3
M  V30 25 1 24 5
M  V30 26 1 25 5
M  V30 27 1 26 6
M  V30 28 1 27 6
M  V30 29 1 7 28 CFG=3
M  V30 30 1 29 8
M  V30 31 1 30 8
M  V30 32 1 31 11
M  V30 33 1 32 12
M  V30 34 1 33 15
M  V30 35 1 34 16
M  V30 36 1 35 17
M  V30 37 1 36 17
M  V30 38 1 37 18
M  V30 39 1 38 18
M  V30 40 1 4 39 CFG=1
M  V30 END BOND
M  V30 END CTAB
M  END
>  <b_m_subgroup_collapsed>  (1662) 
0

>  <r_i_docking_score>  (1662) 
-6.8642822897339402

>  <s_m_subgroup_title>  (1662) 
glide-dock_SP_D22_pv

>  <s_m_subgroupid>  (1662) 
glide-dock_SP_D22_pv

>  <Molecule ChEMBL ID>  (1662) 
CHEMBL46374

>  <Standard Type>  (1662) 
Ki

>  <Standard Value>  (1662) 
10000.0

>  <label>  (1662) 
0

$$$$
CHEMBL392401
     RDKit          3D

  0  0  0  0  0  0  0  0  0  0999 V3000
M  V30 BEGIN CTAB
M  V30 COUNTS 37 40 0 0 1
M  V30 BEGIN ATOM
M  V30 1 O 10.203486 6.783445 -7.442071 0
M  V30 2 C 10.349723 6.972323 -8.785530 0
M  V30 3 C 11.404849 7.772164 -9.263766 0
M  V30 4 C 11.558322 7.972376 -10.646865 0
M  V30 5 C 10.642088 7.396619 -11.549702 0
M  V30 6 C 9.567692 6.607169 -11.084042 0
M  V30 7 C 8.526367 6.104960 -12.088367 0 CFG=2
M  V30 8 N 7.233939 5.772325 -11.446864 0 CHG=1
M  V30 9 C 6.202265 5.252960 -12.370656 0
M  V30 10 C 6.648274 3.934155 -13.037074 0
M  V30 11 C 8.096158 3.991032 -13.424990 0
M  V30 12 C 8.946663 4.957465 -12.959353 0
M  V30 13 N 10.211953 4.732478 -13.476445 0
M  V30 14 C 10.207392 3.606207 -14.281277 0
M  V30 15 C 11.213967 2.972323 -15.030061 0
M  V30 16 C 10.904323 1.805455 -15.754554 0
M  V30 17 C 9.597660 1.282555 -15.724973 0
M  V30 18 C 8.590850 1.932118 -14.983517 0
M  V30 19 C 8.869588 3.109065 -14.249871 0
M  V30 20 C 9.441504 6.382870 -9.689810 0
M  V30 21 H 9.394207 6.355328 -7.206007 0
M  V30 22 H 12.099411 8.227036 -8.572304 0
M  V30 23 H 12.368940 8.586739 -11.012730 0
M  V30 24 H 10.753082 7.589812 -12.606821 0
M  V30 25 H 8.314593 6.951146 -12.743906 0
M  V30 26 H 7.386962 5.081619 -10.727286 0
M  V30 27 H 5.988362 6.021037 -13.110778 0
M  V30 28 H 5.286021 5.092743 -11.809271 0
M  V30 29 H 6.021931 3.726528 -13.905560 0
M  V30 30 H 6.486021 3.109456 -12.343053 0
M  V30 31 H 11.010402 5.319304 -13.280706 0
M  V30 32 H 12.217443 3.371089 -15.046869 0
M  V30 33 H 11.674357 1.305838 -16.325027 0
M  V30 34 H 9.365097 0.381613 -16.274603 0
M  V30 35 H 7.591317 1.523472 -14.972950 0
M  V30 36 H 8.630300 5.792002 -9.291457 0
M  V30 37 H 6.886022 6.631444 -10.987215 0
M  V30 END ATOM
M  V30 BEGIN BOND
M  V30 1 1 2 1
M  V30 2 1 3 2
M  V30 3 2 4 3
M  V30 4 1 5 4
M  V30 5 2 6 5
M  V30 6 1 7 6
M  V30 7 1 8 7
M  V30 8 1 9 8
M  V30 9 1 10 9
M  V30 10 1 11 10
M  V30 11 1 12 7
M  V30 12 2 12 11
M  V30 13 1 13 12
M  V30 14 1 14 13
M  V30 15 2 15 14
M  V30 16 1 16 15
M  V30 17 2 17 16
M  V30 18 1 18 17
M  V30 19 1 19 11
M  V30 20 1 19 14
M  V30 21 2 19 18
M  V30 22 2 20 2
M  V30 23 1 20 6
M  V30 24 1 21 1
M  V30 25 1 22 3
M  V30 26 1 23 4
M  V30 27 1 24 5
M  V30 28 1 7 25 CFG=3
M  V30 29 1 26 8
M  V30 30 1 27 9
M  V30 31 1 28 9
M  V30 32 1 29 10
M  V30 33 1 30 10
M  V30 34 1 31 13
M  V30 35 1 32 15
M  V30 36 1 33 16
M  V30 37 1 34 17
M  V30 38 1 35 18
M  V30 39 1 36 20
M  V30 40 1 37 8
M  V30 END BOND
M  V30 END CTAB
M  END
>  <b_m_subgroup_collapsed>  (1663) 
0

>  <r_i_docking_score>  (1663) 
-6.86306197274829

>  <s_m_subgroup_title>  (1663) 
glide-dock_SP_D22_pv

>  <s_m_subgroupid>  (1663) 
glide-dock_SP_D22_pv

>  <Molecule ChEMBL ID>  (1663) 
CHEMBL392401

>  <Standard Type>  (1663) 
Ki

>  <Standard Value>  (1663) 
88000.0

>  <label>  (1663) 
0

$$$$
CHEMBL5722982
     RDKit          3D

  0  0  0  0  0  0  0  0  0  0999 V3000
M  V30 BEGIN CTAB
M  V30 COUNTS 42 44 0 0 1
M  V30 BEGIN ATOM
M  V30 1 O 10.914911 4.442172 -13.910556 0
M  V30 2 C 10.045506 5.052650 -13.288715 0
M  V30 3 C 10.364395 6.278364 -12.527496 0
M  V30 4 C 9.406775 6.942259 -11.843763 0
M  V30 5 C 9.685211 8.158259 -10.982812 0
M  V30 6 N 10.613121 7.808159 -9.921862 0
M  V30 7 C 10.823677 8.918144 -9.009270 0
M  V30 8 C 11.547522 8.397271 -7.758679 0
M  V30 9 C 10.592824 7.638807 -6.813766 0
M  V30 10 O 11.286049 6.990103 -5.753112 0
M  V30 11 C 11.601894 7.701813 -4.616586 0
M  V30 12 C 11.456458 9.102252 -4.464694 0
M  V30 13 C 11.804752 9.689757 -3.236924 0
M  V30 14 C 12.306131 8.871203 -2.210464 0
M  V30 15 N 12.444066 7.537843 -2.334789 0
M  V30 16 C 12.086136 6.975806 -3.508483 0
M  V30 17 N 8.086100 6.525143 -11.846947 0
M  V30 18 C 7.673078 5.364701 -12.510039 0
M  V30 19 C 6.330866 4.943833 -12.444137 0
M  V30 20 C 5.927238 3.771438 -13.115139 0
M  V30 21 C 6.866415 3.016759 -13.846293 0
M  V30 22 F 6.486181 1.880907 -14.476346 0
M  V30 23 C 8.209352 3.433359 -13.909126 0
M  V30 24 C 8.621627 4.608896 -13.244159 0
M  V30 25 H 11.392267 6.612395 -12.511377 0
M  V30 26 H 8.752863 8.519908 -10.547221 0
M  V30 27 H 10.085104 8.962256 -11.598473 0
M  V30 28 H 11.497173 7.518760 -10.313658 0
M  V30 29 H 9.872494 9.372171 -8.727487 0
M  V30 30 H 11.416533 9.681026 -9.515491 0
M  V30 31 H 11.997227 9.241229 -7.237929 0
M  V30 32 H 12.380717 7.753334 -8.042525 0
M  V30 33 H 10.089349 6.850934 -7.374797 0
M  V30 34 H 9.794315 8.282930 -6.442963 0
M  V30 35 H 11.069746 9.731852 -5.250345 0
M  V30 36 H 11.686598 10.748129 -3.067412 0
M  V30 37 H 12.585900 9.297272 -1.257048 0
M  V30 38 H 12.192689 5.902657 -3.568497 0
M  V30 39 H 7.410619 7.020730 -11.246989 0
M  V30 40 H 5.612870 5.514958 -11.871841 0
M  V30 41 H 4.898496 3.447319 -13.061769 0
M  V30 42 H 8.922312 2.838292 -14.461707 0
M  V30 END ATOM
M  V30 BEGIN BOND
M  V30 1 2 2 1
M  V30 2 1 3 2
M  V30 3 2 4 3
M  V30 4 1 5 4
M  V30 5 1 6 5
M  V30 6 1 7 6
M  V30 7 1 8 7
M  V30 8 1 9 8
M  V30 9 1 10 9
M  V30 10 1 11 10
M  V30 11 2 12 11
M  V30 12 1 13 12
M  V30 13 2 14 13
M  V30 14 1 15 14
M  V30 15 1 16 11
M  V30 16 2 16 15
M  V30 17 1 17 4
M  V30 18 1 18 17
M  V30 19 2 19 18
M  V30 20 1 20 19
M  V30 21 2 21 20
M  V30 22 1 22 21
M  V30 23 1 23 21
M  V30 24 1 24 2
M  V30 25 1 24 18
M  V30 26 2 24 23
M  V30 27 1 25 3
M  V30 28 1 26 5
M  V30 29 1 27 5
M  V30 30 1 28 6
M  V30 31 1 29 7
M  V30 32 1 30 7
M  V30 33 1 31 8
M  V30 34 1 32 8
M  V30 35 1 33 9
M  V30 36 1 34 9
M  V30 37 1 35 12
M  V30 38 1 36 13
M  V30 39 1 37 14
M  V30 40 1 38 16
M  V30 41 1 39 17
M  V30 42 1 40 19
M  V30 43 1 41 20
M  V30 44 1 42 23
M  V30 END BOND
M  V30 END CTAB
M  END
>  <b_m_subgroup_collapsed>  (1664) 
0

>  <r_i_docking_score>  (1664) 
-6.8607394718524501

>  <s_m_subgroup_title>  (1664) 
glide-dock_SP_D22_pv

>  <s_m_subgroupid>  (1664) 
glide-dock_SP_D22_pv

>  <Molecule ChEMBL ID>  (1664) 
CHEMBL5722982

>  <Standard Type>  (1664) 
Ki

>  <Standard Value>  (1664) 
10000.0

>  <label>  (1664) 
0

$$$$
CHEMBL91621
     RDKit          3D

  0  0  0  0  0  0  0  0  0  0999 V3000
M  V30 BEGIN CTAB
M  V30 COUNTS 46 48 0 0 1
M  V30 BEGIN ATOM
M  V30 1 O 9.561522 4.841308 -12.186221 0
M  V30 2 C 8.526928 5.410779 -11.835673 0
M  V30 3 N 7.306977 5.169017 -12.336570 0
M  V30 4 C 6.907017 3.959502 -12.952744 0
M  V30 5 C 5.686532 3.389272 -12.543150 0
M  V30 6 C 5.285432 2.137999 -13.046351 0
M  V30 7 C 6.091708 1.461978 -13.982671 0
M  V30 8 C 7.282737 2.056921 -14.442442 0
M  V30 9 C 7.691475 3.304857 -13.930964 0
M  V30 10 N 8.486025 6.350171 -10.887150 0
M  V30 11 C 9.579477 6.740265 -10.017340 0
M  V30 12 C 9.704429 8.265523 -9.998075 0
M  V30 13 C 10.778932 8.687243 -8.991058 0
M  V30 14 N 10.450709 8.248528 -7.627490 0
M  V30 15 C 11.571706 8.698077 -6.801646 0
M  V30 16 C 11.531717 8.449919 -5.295390 0
M  V30 17 C 11.685947 7.154057 -4.743782 0
M  V30 18 C 11.860268 6.976813 -3.358282 0
M  V30 19 C 11.881441 8.096960 -2.509670 0
M  V30 20 C 11.690933 9.383057 -3.046301 0
M  V30 21 C 11.505960 9.560393 -4.428934 0
M  V30 22 C 10.326696 6.784691 -7.596210 0
M  V30 23 C 9.284828 6.259359 -8.592791 0
M  V30 24 H 6.560974 5.716384 -11.930479 0
M  V30 25 H 5.075677 3.891582 -11.806540 0
M  V30 26 H 4.360133 1.700138 -12.708807 0
M  V30 27 H 5.784674 0.499033 -14.364730 0
M  V30 28 H 7.894387 1.544585 -15.170984 0
M  V30 29 H 8.620786 3.734504 -14.274968 0
M  V30 30 H 7.593277 6.802023 -10.659081 0
M  V30 31 H 10.521232 6.308043 -10.356985 0
M  V30 32 H 9.961173 8.630095 -10.993191 0
M  V30 33 H 8.751073 8.726785 -9.732028 0
M  V30 34 H 11.742859 8.280314 -9.300985 0
M  V30 35 H 10.876034 9.772324 -9.017609 0
M  V30 36 H 12.485526 8.252685 -7.189413 0
M  V30 37 H 11.687975 9.772954 -6.946879 0
M  V30 38 H 11.750787 6.283347 -5.378244 0
M  V30 39 H 11.998328 5.986108 -2.952017 0
M  V30 40 H 12.026079 7.977169 -1.447038 0
M  V30 41 H 11.709004 10.241806 -2.393925 0
M  V30 42 H 11.395045 10.559396 -4.824328 0
M  V30 43 H 11.290620 6.314467 -7.792716 0
M  V30 44 H 9.999384 6.474340 -6.605740 0
M  V30 45 H 8.293417 6.592994 -8.282495 0
M  V30 46 H 9.263732 5.169420 -8.563172 0
M  V30 END ATOM
M  V30 BEGIN BOND
M  V30 1 2 2 1
M  V30 2 1 3 2
M  V30 3 1 4 3
M  V30 4 2 5 4
M  V30 5 1 6 5
M  V30 6 2 7 6
M  V30 7 1 8 7
M  V30 8 1 9 4
M  V30 9 2 9 8
M  V30 10 1 10 2
M  V30 11 1 11 10
M  V30 12 1 12 11
M  V30 13 1 13 12
M  V30 14 1 14 13
M  V30 15 1 15 14
M  V30 16 1 16 15
M  V30 17 2 17 16
M  V30 18 1 18 17
M  V30 19 2 19 18
M  V30 20 1 20 19
M  V30 21 1 21 16
M  V30 22 2 21 20
M  V30 23 1 22 14
M  V30 24 1 23 11
M  V30 25 1 23 22
M  V30 26 1 24 3
M  V30 27 1 25 5
M  V30 28 1 26 6
M  V30 29 1 27 7
M  V30 30 1 28 8
M  V30 31 1 29 9
M  V30 32 1 30 10
M  V30 33 1 31 11
M  V30 34 1 32 12
M  V30 35 1 33 12
M  V30 36 1 34 13
M  V30 37 1 35 13
M  V30 38 1 36 15
M  V30 39 1 37 15
M  V30 40 1 38 17
M  V30 41 1 39 18
M  V30 42 1 40 19
M  V30 43 1 41 20
M  V30 44 1 42 21
M  V30 45 1 43 22
M  V30 46 1 44 22
M  V30 47 1 45 23
M  V30 48 1 46 23
M  V30 END BOND
M  V30 END CTAB
M  END
>  <b_m_subgroup_collapsed>  (1665) 
0

>  <r_i_docking_score>  (1665) 
-6.8582217660245997

>  <s_m_subgroup_title>  (1665) 
glide-dock_SP_D22_pv

>  <s_m_subgroupid>  (1665) 
glide-dock_SP_D22_pv

>  <Molecule ChEMBL ID>  (1665) 
CHEMBL91621

>  <Standard Type>  (1665) 
Ki

>  <Standard Value>  (1665) 
86.0

>  <label>  (1665) 
1

$$$$
CHEMBL4483044
     RDKit          3D

  0  0  0  0  0  0  0  0  0  0999 V3000
M  V30 BEGIN CTAB
M  V30 COUNTS 77 81 0 0 1
M  V30 BEGIN ATOM
M  V30 1 C 7.510221 -2.850553 -21.937141 0
M  V30 2 O 8.714367 -2.112042 -21.787283 0
M  V30 3 C 8.882885 -1.368685 -20.639580 0
M  V30 4 C 10.073944 -0.628009 -20.531406 0
M  V30 5 C 10.335929 0.148214 -19.390047 0
M  V30 6 C 9.408288 0.200682 -18.329981 0
M  V30 7 N 9.697330 0.982797 -17.198771 0
M  V30 8 C 9.701930 0.386210 -15.870456 0
M  V30 9 C 8.954242 1.307399 -14.894914 0
M  V30 10 C 9.487391 2.767634 -14.901878 0
M  V30 11 C 8.527237 3.624397 -14.037544 0
M  V30 12 C 9.056273 5.033670 -13.730617 0
M  V30 13 N 10.377612 4.954262 -13.059287 0 CHG=1
M  V30 14 C 10.873176 6.261025 -12.557567 0
M  V30 15 C 10.079749 6.752553 -11.327269 0
M  V30 16 C 10.810822 7.872184 -10.577213 0
M  V30 17 S 9.705977 8.795356 -9.474412 0
M  V30 18 C 10.096652 8.012146 -7.947490 0
M  V30 19 N 9.712409 6.780863 -7.624794 0
M  V30 20 N 10.173768 6.590216 -6.341483 0
M  V30 21 C 10.800954 7.717771 -5.983657 0
M  V30 22 C 11.386564 7.895995 -4.646949 0
M  V30 23 C 11.526515 9.172327 -4.046195 0
M  V30 24 C 12.086086 9.305855 -2.762980 0
M  V30 25 C 12.485340 8.166941 -2.048547 0
M  V30 26 C 12.336716 6.892858 -2.627489 0
M  V30 27 C 11.793880 6.760277 -3.917057 0
M  V30 28 N 10.815268 8.623839 -6.985024 0
M  V30 29 C 11.445823 9.924048 -7.030199 0
M  V30 30 C 11.364654 4.258947 -13.925650 0
M  V30 31 C 10.894433 2.828384 -14.256443 0
M  V30 32 C 9.510764 3.274862 -16.372572 0
M  V30 33 C 10.243133 2.322709 -17.338291 0
M  V30 34 C 8.190995 -0.520714 -18.424427 0
M  V30 35 O 7.276918 -0.387696 -17.393713 0
M  V30 36 C 6.095302 -1.172880 -17.416189 0
M  V30 37 C 7.946510 -1.312134 -19.576571 0
M  V30 38 H 7.523329 -3.370932 -22.894081 0
M  V30 39 H 7.406736 -3.605797 -21.156876 0
M  V30 40 H 6.636932 -2.197512 -21.930489 0
M  V30 41 H 10.796918 -0.661537 -21.333889 0
M  V30 42 H 11.265400 0.693379 -19.328800 0
M  V30 43 H 10.734841 0.247207 -15.548458 0
M  V30 44 H 9.247571 -0.603496 -15.876317 0
M  V30 45 H 8.993068 0.884997 -13.890234 0
M  V30 46 H 7.898836 1.308979 -15.171186 0
M  V30 47 H 8.354779 3.123617 -13.085483 0
M  V30 48 H 7.548139 3.692116 -14.513287 0
M  V30 49 H 8.335593 5.541150 -13.092227 0
M  V30 50 H 9.132432 5.623632 -14.643904 0
M  V30 51 H 10.885416 7.004149 -13.353989 0
M  V30 52 H 11.917180 6.173549 -12.261432 0
M  V30 53 H 9.892107 5.932736 -10.633950 0
M  V30 54 H 9.103477 7.117239 -11.648077 0
M  V30 55 H 11.218894 8.572399 -11.299837 0
M  V30 56 H 11.661975 7.481585 -10.017612 0
M  V30 57 H 11.181124 10.067977 -4.532745 0
M  V30 58 H 12.166133 10.283563 -2.315268 0
M  V30 59 H 12.892782 8.271468 -1.055073 0
M  V30 60 H 12.632977 6.012252 -2.075158 0
M  V30 61 H 11.686181 5.772669 -4.337620 0
M  V30 62 H 11.684269 10.170176 -8.052395 0
M  V30 63 H 10.770612 10.681634 -6.642105 0
M  V30 64 H 12.381575 9.920889 -6.467836 0
M  V30 65 H 11.524944 4.835790 -14.836553 0
M  V30 66 H 12.332889 4.206524 -13.425979 0
M  V30 67 H 10.885716 2.239944 -13.341198 0
M  V30 68 H 11.634583 2.344900 -14.892259 0
M  V30 69 H 8.487235 3.370762 -16.733503 0
M  V30 70 H 9.941765 4.272634 -16.448914 0
M  V30 71 H 11.313764 2.301038 -17.132046 0
M  V30 72 H 10.125784 2.683812 -18.360455 0
M  V30 73 H 5.525432 -0.985816 -16.506350 0
M  V30 74 H 5.459592 -0.909079 -18.262400 0
M  V30 75 H 6.320275 -2.239401 -17.449854 0
M  V30 76 H 7.027576 -1.867250 -19.655069 0
M  V30 77 H 10.251694 4.366641 -12.248959 0
M  V30 END ATOM
M  V30 BEGIN BOND
M  V30 1 1 2 1
M  V30 2 1 3 2
M  V30 3 1 4 3
M  V30 4 2 5 4
M  V30 5 1 6 5
M  V30 6 1 7 6
M  V30 7 1 8 7
M  V30 8 1 9 8
M  V30 9 1 10 9
M  V30 10 1 11 10
M  V30 11 1 12 11
M  V30 12 1 13 12
M  V30 13 1 14 13
M  V30 14 1 15 14
M  V30 15 1 16 15
M  V30 16 1 17 16
M  V30 17 1 18 17
M  V30 18 2 19 18
M  V30 19 1 20 19
M  V30 20 2 21 20
M  V30 21 1 22 21
M  V30 22 2 23 22
M  V30 23 1 24 23
M  V30 24 2 25 24
M  V30 25 1 26 25
M  V30 26 1 27 22
M  V30 27 2 27 26
M  V30 28 1 28 18
M  V30 29 1 28 21
M  V30 30 1 29 28
M  V30 31 1 30 13
M  V30 32 1 31 10
M  V30 33 1 31 30
M  V30 34 1 32 10
M  V30 35 1 33 7
M  V30 36 1 33 32
M  V30 37 2 34 6
M  V30 38 1 35 34
M  V30 39 1 36 35
M  V30 40 2 37 3
M  V30 41 1 37 34
M  V30 42 1 38 1
M  V30 43 1 39 1
M  V30 44 1 40 1
M  V30 45 1 41 4
M  V30 46 1 42 5
M  V30 47 1 43 8
M  V30 48 1 44 8
M  V30 49 1 45 9
M  V30 50 1 46 9
M  V30 51 1 47 11
M  V30 52 1 48 11
M  V30 53 1 49 12
M  V30 54 1 50 12
M  V30 55 1 51 14
M  V30 56 1 52 14
M  V30 57 1 53 15
M  V30 58 1 54 15
M  V30 59 1 55 16
M  V30 60 1 56 16
M  V30 61 1 57 23
M  V30 62 1 58 24
M  V30 63 1 59 25
M  V30 64 1 60 26
M  V30 65 1 61 27
M  V30 66 1 62 29
M  V30 67 1 63 29
M  V30 68 1 64 29
M  V30 69 1 65 30
M  V30 70 1 66 30
M  V30 71 1 67 31
M  V30 72 1 68 31
M  V30 73 1 69 32
M  V30 74 1 70 32
M  V30 75 1 71 33
M  V30 76 1 72 33
M  V30 77 1 73 36
M  V30 78 1 74 36
M  V30 79 1 75 36
M  V30 80 1 76 37
M  V30 81 1 77 13
M  V30 END BOND
M  V30 END CTAB
M  END
>  <b_m_subgroup_collapsed>  (1666) 
0

>  <r_i_docking_score>  (1666) 
-6.8559781211533997

>  <s_m_subgroup_title>  (1666) 
glide-dock_SP_D22_pv

>  <s_m_subgroupid>  (1666) 
glide-dock_SP_D22_pv

>  <Molecule ChEMBL ID>  (1666) 
CHEMBL4483044

>  <Standard Type>  (1666) 
Ki

>  <Standard Value>  (1666) 
65229.0

>  <label>  (1666) 
0

$$$$
CHEMBL160519
     RDKit          3D

  0  0  0  0  0  0  0  0  0  0999 V3000
M  V30 BEGIN CTAB
M  V30 COUNTS 44 45 0 0 1
M  V30 BEGIN ATOM
M  V30 1 C 9.686021 4.279987 -9.446997 0
M  V30 2 C 9.498023 4.788287 -10.892743 0
M  V30 3 C 8.412393 5.880127 -11.092364 0 CFG=1
M  V30 4 N 8.886023 7.266246 -10.809214 0 CHG=1
M  V30 5 C 9.794148 7.546785 -9.669747 0
M  V30 6 C 9.075517 7.445086 -8.313822 0
M  V30 7 C 10.405922 8.942686 -9.832604 0
M  V30 8 C 7.819504 5.879704 -12.539800 0 CFG=2
M  V30 9 O 6.817028 6.879541 -12.646865 0
M  V30 10 C 7.319867 4.514448 -13.034769 0
M  V30 11 C 6.029542 4.090752 -12.646862 0
M  V30 12 C 5.527583 2.839407 -13.046865 0
M  V30 13 C 6.303735 1.980947 -13.846864 0
M  V30 14 O 5.795822 0.753073 -14.171939 0
M  V30 15 C 7.597254 2.385482 -14.246864 0
M  V30 16 N 8.431826 1.495639 -14.980674 0
M  V30 17 C 9.719336 1.718211 -15.310115 0
M  V30 18 O 10.383791 0.849834 -15.869593 0
M  V30 19 C 10.240119 3.032310 -14.942545 0
M  V30 20 C 9.495146 3.930856 -14.268518 0
M  V30 21 C 8.109238 3.647119 -13.847245 0
M  V30 22 H 10.271294 3.361340 -9.440963 0
M  V30 23 H 10.211289 4.972318 -8.795313 0
M  V30 24 H 8.726080 4.053684 -8.981113 0
M  V30 25 H 9.228952 3.893249 -11.446862 0
M  V30 26 H 10.429426 5.120729 -11.344373 0
M  V30 27 H 7.601195 5.665540 -10.396510 0
M  V30 28 H 9.313416 7.623678 -11.649816 0
M  V30 29 H 10.635498 6.858533 -9.703934 0
M  V30 30 H 9.792922 7.458845 -7.492998 0
M  V30 31 H 8.402683 8.287795 -8.160242 0
M  V30 32 H 8.486024 6.533489 -8.218312 0
M  V30 33 H 11.087806 9.171714 -9.012682 0
M  V30 34 H 10.979554 9.010332 -10.756741 0
M  V30 35 H 9.636046 9.715002 -9.846864 0
M  V30 36 H 8.587156 6.225591 -13.226312 0
M  V30 37 H 6.486022 7.092673 -11.770045 0
M  V30 38 H 5.417703 4.722803 -12.019061 0
M  V30 39 H 4.542899 2.531672 -12.726391 0
M  V30 40 H 6.326273 0.237639 -14.757334 0
M  V30 41 H 8.063739 0.591492 -15.226785 0
M  V30 42 H 11.251924 3.285365 -15.223660 0
M  V30 43 H 9.942178 4.881660 -14.031925 0
M  V30 44 H 8.006749 7.772326 -10.646864 0
M  V30 END ATOM
M  V30 BEGIN BOND
M  V30 1 1 2 1
M  V30 2 1 3 2
M  V30 3 1 4 3
M  V30 4 1 5 4
M  V30 5 1 6 5
M  V30 6 1 7 5
M  V30 7 1 8 3
M  V30 8 1 9 8
M  V30 9 1 10 8
M  V30 10 1 11 10
M  V30 11 2 12 11
M  V30 12 1 13 12
M  V30 13 1 14 13
M  V30 14 2 15 13
M  V30 15 1 16 15
M  V30 16 1 17 16
M  V30 17 2 18 17
M  V30 18 1 19 17
M  V30 19 2 20 19
M  V30 20 2 21 10
M  V30 21 1 21 15
M  V30 22 1 21 20
M  V30 23 1 22 1
M  V30 24 1 23 1
M  V30 25 1 24 1
M  V30 26 1 25 2
M  V30 27 1 26 2
M  V30 28 1 3 27 CFG=1
M  V30 29 1 28 4
M  V30 30 1 29 5
M  V30 31 1 30 6
M  V30 32 1 31 6
M  V30 33 1 32 6
M  V30 34 1 33 7
M  V30 35 1 34 7
M  V30 36 1 35 7
M  V30 37 1 8 36 CFG=3
M  V30 38 1 37 9
M  V30 39 1 38 11
M  V30 40 1 39 12
M  V30 41 1 40 14
M  V30 42 1 41 16
M  V30 43 1 42 19
M  V30 44 1 43 20
M  V30 45 1 44 4
M  V30 END BOND
M  V30 END CTAB
M  END
>  <b_m_subgroup_collapsed>  (1667) 
0

>  <r_i_docking_score>  (1667) 
-6.8558113228834303

>  <s_m_subgroup_title>  (1667) 
glide-dock_SP_D22_pv

>  <s_m_subgroupid>  (1667) 
glide-dock_SP_D22_pv

>  <Molecule ChEMBL ID>  (1667) 
CHEMBL160519

>  <Standard Type>  (1667) 
Ki

>  <Standard Value>  (1667) 
86000.0

>  <label>  (1667) 
0

$$$$
CHEMBL240024
     RDKit          3D

  0  0  0  0  0  0  0  0  0  0999 V3000
M  V30 BEGIN CTAB
M  V30 COUNTS 56 60 0 0 1
M  V30 BEGIN ATOM
M  V30 1 C 6.367904 -0.946831 -16.853727 0
M  V30 2 O 5.890267 -0.872369 -15.517819 0
M  V30 3 C 6.090576 0.309845 -14.843267 0
M  V30 4 C 7.182629 1.173924 -15.103255 0
M  V30 5 C 7.332097 2.373373 -14.376649 0
M  V30 6 C 6.348524 2.763333 -13.446858 0
M  V30 7 C 5.287349 1.882811 -13.146544 0
M  V30 8 C 5.175178 0.647960 -13.820558 0
M  V30 9 O 4.188952 -0.227117 -13.447128 0
M  V30 10 C 3.102390 -0.318855 -14.348283 0
M  V30 11 C 6.501205 4.074091 -12.683083 0
M  V30 12 N 7.901516 4.472826 -12.424568 0 CHG=1
M  V30 13 C 8.154931 5.369455 -11.446146 0
M  V30 14 N 9.390574 5.534720 -10.938666 0
M  V30 15 C 9.684658 6.597030 -10.025672 0
M  V30 16 C 9.286023 7.920185 -10.318809 0
M  V30 17 C 9.643636 8.971720 -9.446234 0
M  V30 18 C 10.400190 8.671270 -8.296843 0
M  V30 19 C 10.808637 7.368991 -8.037891 0
M  V30 20 C 10.447033 6.304070 -8.877112 0
M  V30 21 C 11.654540 7.294819 -6.799536 0 CFG=2
M  V30 22 S 10.573739 6.665894 -5.503073 0
M  V30 23 C 11.475590 7.060209 -3.994576 0
M  V30 24 C 11.477739 8.571909 -3.782084 0
M  V30 25 S 12.580862 9.372327 -4.950051 0
M  V30 26 C 12.038916 8.789966 -6.595177 0 CFG=2
M  V30 27 C 10.901169 9.602824 -7.215454 0
M  V30 28 C 9.009438 3.776284 -13.126744 0
M  V30 29 C 8.599845 3.198020 -14.491750 0
M  V30 30 H 5.966650 -1.843665 -17.325647 0
M  V30 31 H 7.454345 -1.013193 -16.899372 0
M  V30 32 H 6.039097 -0.088387 -17.441319 0
M  V30 33 H 7.940507 0.899755 -15.821296 0
M  V30 34 H 4.566768 2.142982 -12.385237 0
M  V30 35 H 2.486078 -1.164010 -14.055443 0
M  V30 36 H 3.403662 -0.459086 -15.386550 0
M  V30 37 H 2.486052 0.572355 -14.275945 0
M  V30 38 H 6.004851 4.869108 -13.240023 0
M  V30 39 H 5.988042 3.990805 -11.724177 0
M  V30 40 H 7.338317 5.969861 -11.056314 0
M  V30 41 H 8.705050 8.134356 -11.204303 0
M  V30 42 H 9.337742 9.972270 -9.682382 0
M  V30 43 H 10.762630 5.297069 -8.648952 0
M  V30 44 H 12.486009 6.612082 -6.991138 0
M  V30 45 H 10.975111 6.565458 -3.161942 0
M  V30 46 H 12.485995 6.657096 -4.040499 0
M  V30 47 H 10.486168 9.005754 -3.902802 0
M  V30 48 H 11.813193 8.812163 -2.772638 0
M  V30 49 H 12.894522 8.972286 -7.248446 0
M  V30 50 H 11.286022 10.560596 -7.539653 0
M  V30 51 H 10.103367 9.771260 -6.492750 0
M  V30 52 H 9.845595 4.460448 -13.271554 0
M  V30 53 H 9.368186 2.972414 -12.483644 0
M  V30 54 H 9.405313 2.563560 -14.863810 0
M  V30 55 H 8.486023 3.998983 -15.218764 0
M  V30 56 H 9.993161 4.725395 -10.971259 0
M  V30 END ATOM
M  V30 BEGIN BOND
M  V30 1 1 2 1
M  V30 2 1 3 2
M  V30 3 1 4 3
M  V30 4 2 5 4
M  V30 5 1 6 5
M  V30 6 2 7 6
M  V30 7 2 8 3
M  V30 8 1 8 7
M  V30 9 1 9 8
M  V30 10 1 10 9
M  V30 11 1 11 6
M  V30 12 1 12 11
M  V30 13 2 13 12 CFG=2
M  V30 14 1 14 13
M  V30 15 1 15 14
M  V30 16 1 16 15
M  V30 17 2 17 16
M  V30 18 1 18 17
M  V30 19 2 19 18
M  V30 20 2 20 15
M  V30 21 1 20 19
M  V30 22 1 21 19
M  V30 23 1 22 21
M  V30 24 1 23 22
M  V30 25 1 24 23
M  V30 26 1 25 24
M  V30 27 1 26 21
M  V30 28 1 26 25
M  V30 29 1 27 18
M  V30 30 1 27 26
M  V30 31 1 28 12
M  V30 32 1 29 5
M  V30 33 1 29 28
M  V30 34 1 30 1
M  V30 35 1 31 1
M  V30 36 1 32 1
M  V30 37 1 33 4
M  V30 38 1 34 7
M  V30 39 1 35 10
M  V30 40 1 36 10
M  V30 41 1 37 10
M  V30 42 1 38 11
M  V30 43 1 39 11
M  V30 44 1 40 13
M  V30 45 1 41 16
M  V30 46 1 42 17
M  V30 47 1 43 20
M  V30 48 1 21 44 CFG=3
M  V30 49 1 45 23
M  V30 50 1 46 23
M  V30 51 1 47 24
M  V30 52 1 48 24
M  V30 53 1 26 49 CFG=3
M  V30 54 1 50 27
M  V30 55 1 51 27
M  V30 56 1 52 28
M  V30 57 1 53 28
M  V30 58 1 54 29
M  V30 59 1 55 29
M  V30 60 1 56 14
M  V30 END BOND
M  V30 END CTAB
M  END
>  <b_m_subgroup_collapsed>  (1668) 
0

>  <r_i_docking_score>  (1668) 
-6.8531753467989498

>  <s_m_subgroup_title>  (1668) 
glide-dock_SP_D22_pv

>  <s_m_subgroupid>  (1668) 
glide-dock_SP_D22_pv

>  <Molecule ChEMBL ID>  (1668) 
CHEMBL240024

>  <Standard Type>  (1668) 
Ki

>  <Standard Value>  (1668) 
100000.0

>  <label>  (1668) 
0

$$$$
CHEMBL5095172
     RDKit          3D

  0  0  0  0  0  0  0  0  0  0999 V3000
M  V30 BEGIN CTAB
M  V30 COUNTS 55 58 0 0 1
M  V30 BEGIN ATOM
M  V30 1 O 12.475113 9.271810 -1.477799 0
M  V30 2 C 12.117574 8.699479 -2.502570 0
M  V30 3 C 11.813711 7.193875 -2.444926 0
M  V30 4 O 11.817077 6.538021 -3.715074 0
M  V30 5 C 11.558372 7.261853 -4.851439 0
M  V30 6 C 11.285810 6.572343 -6.040941 0
M  V30 7 C 11.097779 7.249058 -7.249837 0
M  V30 8 C 11.222698 8.653771 -7.293471 0
M  V30 9 O 11.152290 9.372590 -8.463444 0
M  V30 10 C 10.973164 8.714673 -9.711912 0
M  V30 11 C 9.477275 8.496119 -9.996551 0
M  V30 12 C 9.208402 7.745796 -11.309638 0
M  V30 13 C 9.437210 6.231336 -11.166809 0
M  V30 14 N 9.118664 5.506956 -12.395625 0
M  V30 15 C 7.662903 5.318273 -12.508262 0
M  V30 16 C 7.334058 4.581396 -13.819264 0
M  V30 17 N 8.012375 3.298212 -13.844571 0
M  V30 18 C 7.425024 2.144990 -14.395940 0
M  V30 19 C 8.113091 1.465434 -15.428332 0
M  V30 20 C 7.588288 0.290578 -15.992867 0
M  V30 21 C 6.370682 -0.223165 -15.522188 0
M  V30 22 C 5.681357 0.426045 -14.484465 0
M  V30 23 Cl 4.170055 -0.227322 -13.955329 0
M  V30 24 C 6.191348 1.616626 -13.918516 0
M  V30 25 Cl 5.286683 2.378663 -12.646841 0
M  V30 26 C 9.450961 3.372767 -13.624335 0
M  V30 27 C 9.748886 4.181344 -12.343031 0
M  V30 28 C 11.474635 9.361733 -6.091836 0
M  V30 29 C 11.642584 8.667233 -4.870957 0
M  V30 30 N 11.964375 9.339286 -3.671520 0
M  V30 31 H 12.569282 6.708918 -1.829842 0
M  V30 32 H 10.860935 7.031254 -1.946432 0
M  V30 33 H 11.291219 5.504251 -6.046816 0
M  V30 34 H 10.903037 6.656924 -8.130931 0
M  V30 35 H 11.557710 7.798433 -9.788527 0
M  V30 36 H 11.384002 9.372295 -10.478084 0
M  V30 37 H 8.985929 9.468284 -10.042656 0
M  V30 38 H 8.995707 7.966144 -9.173705 0
M  V30 39 H 9.827715 8.152825 -12.109809 0
M  V30 40 H 8.178411 7.943748 -11.600583 0
M  V30 41 H 8.857573 5.829465 -10.334553 0
M  V30 42 H 10.485918 6.077715 -10.917583 0
M  V30 43 H 7.146016 6.277201 -12.510435 0
M  V30 44 H 7.279123 4.758034 -11.653333 0
M  V30 45 H 7.712127 5.172854 -14.646667 0
M  V30 46 H 6.258666 4.487683 -13.960036 0
M  V30 47 H 9.052962 1.845963 -15.800064 0
M  V30 48 H 8.120212 -0.220699 -16.782616 0
M  V30 49 H 5.972379 -1.133863 -15.950562 0
M  V30 50 H 9.872193 2.372667 -13.522321 0
M  V30 51 H 9.924792 3.841233 -14.487760 0
M  V30 52 H 10.830574 4.292201 -12.247439 0
M  V30 53 H 9.406141 3.645964 -11.456380 0
M  V30 54 H 11.575294 10.435843 -6.122689 0
M  V30 55 H 12.118654 10.335572 -3.699518 0
M  V30 END ATOM
M  V30 BEGIN BOND
M  V30 1 2 2 1
M  V30 2 1 3 2
M  V30 3 1 4 3
M  V30 4 1 5 4
M  V30 5 1 6 5
M  V30 6 2 7 6
M  V30 7 1 8 7
M  V30 8 1 9 8
M  V30 9 1 10 9
M  V30 10 1 11 10
M  V30 11 1 12 11
M  V30 12 1 13 12
M  V30 13 1 14 13
M  V30 14 1 15 14
M  V30 15 1 16 15
M  V30 16 1 17 16
M  V30 17 1 18 17
M  V30 18 2 19 18
M  V30 19 1 20 19
M  V30 20 2 21 20
M  V30 21 1 22 21
M  V30 22 1 23 22
M  V30 23 1 24 18
M  V30 24 2 24 22
M  V30 25 1 25 24
M  V30 26 1 26 17
M  V30 27 1 27 14
M  V30 28 1 27 26
M  V30 29 2 28 8
M  V30 30 2 29 5
M  V30 31 1 29 28
M  V30 32 1 30 2
M  V30 33 1 30 29
M  V30 34 1 31 3
M  V30 35 1 32 3
M  V30 36 1 33 6
M  V30 37 1 34 7
M  V30 38 1 35 10
M  V30 39 1 36 10
M  V30 40 1 37 11
M  V30 41 1 38 11
M  V30 42 1 39 12
M  V30 43 1 40 12
M  V30 44 1 41 13
M  V30 45 1 42 13
M  V30 46 1 43 15
M  V30 47 1 44 15
M  V30 48 1 45 16
M  V30 49 1 46 16
M  V30 50 1 47 19
M  V30 51 1 48 20
M  V30 52 1 49 21
M  V30 53 1 50 26
M  V30 54 1 51 26
M  V30 55 1 52 27
M  V30 56 1 53 27
M  V30 57 1 54 28
M  V30 58 1 55 30
M  V30 END BOND
M  V30 END CTAB
M  END
>  <b_m_subgroup_collapsed>  (1669) 
0

>  <r_i_docking_score>  (1669) 
-6.84970027069454

>  <s_m_subgroup_title>  (1669) 
glide-dock_SP_D22_pv

>  <s_m_subgroupid>  (1669) 
glide-dock_SP_D22_pv

>  <Molecule ChEMBL ID>  (1669) 
CHEMBL5095172

>  <Standard Type>  (1669) 
Ki

>  <Standard Value>  (1669) 
0.61

>  <label>  (1669) 
1

$$$$
CHEMBL240022
     RDKit          3D

  0  0  0  0  0  0  0  0  0  0999 V3000
M  V30 BEGIN CTAB
M  V30 COUNTS 59 62 0 0 1
M  V30 BEGIN ATOM
M  V30 1 C 11.136309 10.364671 -4.875637 0
M  V30 2 O 11.756663 9.129647 -5.173933 0
M  V30 3 C 11.184123 8.454708 -6.219062 0
M  V30 4 C 11.205135 9.012231 -7.509087 0
M  V30 5 C 10.593048 8.358429 -8.593892 0
M  V30 6 C 9.896447 7.149398 -8.384571 0
M  V30 7 C 9.875677 6.593565 -7.093660 0
M  V30 8 C 10.548941 7.208632 -6.017059 0
M  V30 9 O 10.486278 6.571118 -4.803839 0
M  V30 10 C 11.555101 6.703565 -3.881440 0
M  V30 11 C 9.157378 6.448843 -9.520441 0
M  V30 12 N 9.410427 7.050416 -10.845780 0 CHG=1
M  V30 13 C 9.628053 6.335903 -11.970695 0
M  V30 14 N 9.475771 5.001565 -12.064378 0
M  V30 15 C 9.932217 4.316198 -13.242791 0
M  V30 16 C 11.151633 4.676981 -13.848350 0
M  V30 17 C 11.617702 3.941342 -14.954969 0
M  V30 18 C 10.882222 2.841640 -15.449390 0
M  V30 19 C 9.654993 2.480416 -14.833518 0
M  V30 20 C 9.175933 3.244109 -13.747787 0
M  V30 21 C 8.830623 1.294271 -15.330215 0 CFG=2
M  V30 22 O 8.255322 0.572487 -14.246465 0
M  V30 23 C 6.984298 0.135551 -14.289134 0
M  V30 24 C 6.565911 -0.536368 -12.988050 0
M  V30 25 O 6.206080 0.247643 -15.234659 0
M  V30 26 C 9.650596 0.316050 -16.186239 0
M  V30 27 C 10.456066 1.065986 -17.251347 0
M  V30 28 C 11.453414 2.045601 -16.616703 0
M  V30 29 C 9.534885 8.513533 -10.892272 0
M  V30 30 C 10.672771 8.975885 -9.971916 0
M  V30 31 H 11.286756 10.577604 -3.818137 0
M  V30 32 H 11.564096 11.169805 -5.472150 0
M  V30 33 H 10.062557 10.336220 -5.047393 0
M  V30 34 H 11.686067 9.961281 -7.657137 0
M  V30 35 H 9.335095 5.677042 -6.930618 0
M  V30 36 H 11.648890 5.788418 -3.293868 0
M  V30 37 H 12.499453 6.860560 -4.389321 0
M  V30 38 H 11.374701 7.527516 -3.192225 0
M  V30 39 H 8.086539 6.472620 -9.317001 0
M  V30 40 H 9.460061 5.402281 -9.520129 0
M  V30 41 H 9.962124 6.873039 -12.848303 0
M  V30 42 H 11.746150 5.490967 -13.459213 0
M  V30 43 H 12.559354 4.208906 -15.412418 0
M  V30 44 H 8.237900 2.981064 -13.283985 0
M  V30 45 H 8.044975 1.726100 -15.952372 0
M  V30 46 H 6.485124 0.198258 -12.190948 0
M  V30 47 H 5.598508 -1.017916 -13.086375 0
M  V30 48 H 7.284917 -1.296151 -12.687391 0
M  V30 49 H 10.337447 -0.244337 -15.549829 0
M  V30 50 H 8.990511 -0.416943 -16.652184 0
M  V30 51 H 10.981666 0.367220 -17.902094 0
M  V30 52 H 9.763593 1.618446 -17.887520 0
M  V30 53 H 11.831426 2.732017 -17.375477 0
M  V30 54 H 12.316293 1.489923 -16.248810 0
M  V30 55 H 9.685476 8.861495 -11.913350 0
M  V30 56 H 8.589904 8.940528 -10.552015 0
M  V30 57 H 10.662369 10.056366 -9.846570 0
M  V30 58 H 11.638455 8.725401 -10.412688 0
M  V30 59 H 8.829055 4.556570 -11.425956 0
M  V30 END ATOM
M  V30 BEGIN BOND
M  V30 1 1 2 1
M  V30 2 1 3 2
M  V30 3 1 4 3
M  V30 4 2 5 4
M  V30 5 1 6 5
M  V30 6 2 7 6
M  V30 7 2 8 3
M  V30 8 1 8 7
M  V30 9 1 9 8
M  V30 10 1 10 9
M  V30 11 1 11 6
M  V30 12 1 12 11
M  V30 13 2 13 12 CFG=2
M  V30 14 1 14 13
M  V30 15 1 15 14
M  V30 16 1 16 15
M  V30 17 2 17 16
M  V30 18 1 18 17
M  V30 19 2 19 18
M  V30 20 2 20 15
M  V30 21 1 20 19
M  V30 22 1 21 19
M  V30 23 1 22 21
M  V30 24 1 23 22
M  V30 25 1 24 23
M  V30 26 2 25 23
M  V30 27 1 26 21
M  V30 28 1 27 26
M  V30 29 1 28 18
M  V30 30 1 28 27
M  V30 31 1 29 12
M  V30 32 1 30 5
M  V30 33 1 30 29
M  V30 34 1 31 1
M  V30 35 1 32 1
M  V30 36 1 33 1
M  V30 37 1 34 4
M  V30 38 1 35 7
M  V30 39 1 36 10
M  V30 40 1 37 10
M  V30 41 1 38 10
M  V30 42 1 39 11
M  V30 43 1 40 11
M  V30 44 1 41 13
M  V30 45 1 42 16
M  V30 46 1 43 17
M  V30 47 1 44 20
M  V30 48 1 21 45 CFG=3
M  V30 49 1 46 24
M  V30 50 1 47 24
M  V30 51 1 48 24
M  V30 52 1 49 26
M  V30 53 1 50 26
M  V30 54 1 51 27
M  V30 55 1 52 27
M  V30 56 1 53 28
M  V30 57 1 54 28
M  V30 58 1 55 29
M  V30 59 1 56 29
M  V30 60 1 57 30
M  V30 61 1 58 30
M  V30 62 1 59 14
M  V30 END BOND
M  V30 END CTAB
M  END
>  <b_m_subgroup_collapsed>  (1670) 
0

>  <r_i_docking_score>  (1670) 
-6.8491546005511497

>  <s_m_subgroup_title>  (1670) 
glide-dock_SP_D22_pv

>  <s_m_subgroupid>  (1670) 
glide-dock_SP_D22_pv

>  <Molecule ChEMBL ID>  (1670) 
CHEMBL240022

>  <Standard Type>  (1670) 
Ki

>  <Standard Value>  (1670) 
11000.0

>  <label>  (1670) 
0

$$$$
CHEMBL5859405
     RDKit          3D

  0  0  0  0  0  0  0  0  0  0999 V3000
M  V30 BEGIN CTAB
M  V30 COUNTS 70 73 0 0 1
M  V30 BEGIN ATOM
M  V30 1 C 10.889685 7.226145 -5.211355 0
M  V30 2 C 11.607613 8.581038 -5.094044 0
M  V30 3 C 11.595251 9.437539 -6.377464 0
M  V30 4 F 12.481750 10.423594 -6.231068 0
M  V30 5 F 10.400820 10.001472 -6.490155 0
M  V30 6 C 11.920891 8.695369 -7.655747 0
M  V30 7 C 13.136502 8.572577 -8.246964 0
M  V30 8 O 13.090178 7.941760 -9.435125 0
M  V30 9 N 11.760845 7.613337 -9.658366 0
M  V30 10 C 11.086038 8.057734 -8.610023 0
M  V30 11 C 9.601937 7.956235 -8.628684 0 CFG=1
M  V30 12 C 9.068989 8.804179 -9.787076 0
M  V30 13 C 9.056369 8.060114 -11.144773 0
M  V30 14 N 8.486057 6.683865 -11.064178 0 CFG=1 CHG=1
M  V30 15 C 8.471033 6.042801 -12.402829 0
M  V30 16 C 7.570219 4.796726 -12.499536 0
M  V30 17 C 7.884418 3.920239 -13.728947 0 CFG=1
M  V30 18 C 9.243644 3.182488 -13.584636 0
M  V30 19 C 9.524206 2.217188 -14.743779 0
M  V30 20 C 8.359052 1.226044 -14.945122 0 CFG=2
M  V30 21 N 8.586011 0.261394 -16.025476 0
M  V30 22 C 8.823177 0.548775 -17.317345 0
M  V30 23 O 9.079167 1.676805 -17.734703 0
M  V30 24 C 8.686582 -0.599853 -18.311544 0
M  V30 25 C 7.265968 -0.573819 -18.773182 0
M  V30 26 N 6.840822 0.199464 -19.781305 0
M  V30 27 N 5.472677 0.095873 -19.980057 0
M  V30 28 C 4.903470 -0.762723 -19.126667 0
M  V30 29 C 3.454121 -1.081342 -19.158861 0
M  V30 30 S 6.005104 -1.513217 -17.985981 0
M  V30 31 C 7.030970 1.980447 -15.152710 0
M  V30 32 C 6.728704 2.929003 -13.984864 0
M  V30 33 C 9.153350 5.850170 -10.027814 0
M  V30 34 C 9.108140 6.504614 -8.642128 0
M  V30 35 H 10.910966 6.689356 -4.262220 0
M  V30 36 H 9.845425 7.354773 -5.496159 0
M  V30 37 H 11.364054 6.584059 -5.953486 0
M  V30 38 H 12.636332 8.410558 -4.782122 0
M  V30 39 H 11.165644 9.158051 -4.281094 0
M  V30 40 H 14.085956 8.973109 -7.964009 0
M  V30 41 H 9.214847 8.390900 -7.709369 0
M  V30 42 H 8.086020 9.154346 -9.529387 0
M  V30 43 H 9.641628 9.730331 -9.846850 0
M  V30 44 H 8.468993 8.649434 -11.850357 0
M  V30 45 H 10.060910 8.008574 -11.563009 0
M  V30 46 H 8.118730 6.759511 -13.146901 0
M  V30 47 H 9.501934 5.815015 -12.671113 0
M  V30 48 H 7.633595 4.166337 -11.615943 0
M  V30 49 H 6.532669 5.133258 -12.533797 0
M  V30 50 H 7.955250 4.571460 -14.600515 0
M  V30 51 H 10.065823 3.894815 -13.536836 0
M  V30 52 H 9.287429 2.629868 -12.650223 0
M  V30 53 H 10.449983 1.672094 -14.555616 0
M  V30 54 H 9.694830 2.813126 -15.638686 0
M  V30 55 H 8.269935 0.632422 -14.033938 0
M  V30 56 H 8.387580 -0.707721 -15.803573 0
M  V30 57 H 9.359773 -0.457217 -19.157507 0
M  V30 58 H 8.917781 -1.559867 -17.848866 0
M  V30 59 H 3.286861 -1.878551 -19.882118 0
M  V30 60 H 3.111748 -1.415255 -18.178419 0
M  V30 61 H 2.886061 -0.197485 -19.448441 0
M  V30 62 H 6.214627 1.265418 -15.263102 0
M  V30 63 H 7.065160 2.559864 -16.077301 0
M  V30 64 H 6.508384 2.350605 -13.086156 0
M  V30 65 H 5.815893 3.482485 -14.211025 0
M  V30 66 H 8.670925 4.880173 -9.934162 0
M  V30 67 H 10.179502 5.646897 -10.326187 0
M  V30 68 H 9.667809 5.906663 -7.921865 0
M  V30 69 H 8.085989 6.490549 -8.287637 0
M  V30 70 H 7.523032 6.860379 -10.753264 0
M  V30 END ATOM
M  V30 BEGIN BOND
M  V30 1 1 2 1
M  V30 2 1 3 2
M  V30 3 1 4 3
M  V30 4 1 5 3
M  V30 5 1 6 3
M  V30 6 2 7 6
M  V30 7 1 8 7
M  V30 8 1 9 8
M  V30 9 1 10 6
M  V30 10 2 10 9
M  V30 11 1 11 10
M  V30 12 1 12 11
M  V30 13 1 13 12
M  V30 14 1 14 13
M  V30 15 1 15 14
M  V30 16 1 16 15
M  V30 17 1 17 16
M  V30 18 1 18 17
M  V30 19 1 19 18
M  V30 20 1 20 19
M  V30 21 1 21 20
M  V30 22 1 22 21
M  V30 23 2 23 22
M  V30 24 1 24 22
M  V30 25 1 25 24
M  V30 26 2 26 25
M  V30 27 1 27 26
M  V30 28 2 28 27
M  V30 29 1 29 28
M  V30 30 1 30 25
M  V30 31 1 30 28
M  V30 32 1 31 20
M  V30 33 1 32 17
M  V30 34 1 32 31
M  V30 35 1 33 14
M  V30 36 1 34 11
M  V30 37 1 34 33
M  V30 38 1 35 1
M  V30 39 1 36 1
M  V30 40 1 37 1
M  V30 41 1 38 2
M  V30 42 1 39 2
M  V30 43 1 40 7
M  V30 44 1 11 41 CFG=1
M  V30 45 1 42 12
M  V30 46 1 43 12
M  V30 47 1 44 13
M  V30 48 1 45 13
M  V30 49 1 46 15
M  V30 50 1 47 15
M  V30 51 1 48 16
M  V30 52 1 49 16
M  V30 53 1 17 50 CFG=3
M  V30 54 1 51 18
M  V30 55 1 52 18
M  V30 56 1 53 19
M  V30 57 1 54 19
M  V30 58 1 20 55 CFG=1
M  V30 59 1 56 21
M  V30 60 1 57 24
M  V30 61 1 58 24
M  V30 62 1 59 29
M  V30 63 1 60 29
M  V30 64 1 61 29
M  V30 65 1 62 31
M  V30 66 1 63 31
M  V30 67 1 64 32
M  V30 68 1 65 32
M  V30 69 1 66 33
M  V30 70 1 67 33
M  V30 71 1 68 34
M  V30 72 1 69 34
M  V30 73 1 14 70 CFG=1
M  V30 END BOND
M  V30 END CTAB
M  END
>  <b_m_subgroup_collapsed>  (1671) 
0

>  <r_i_docking_score>  (1671) 
-6.8487078717798404

>  <s_m_subgroup_title>  (1671) 
glide-dock_SP_D22_pv

>  <s_m_subgroupid>  (1671) 
glide-dock_SP_D22_pv

>  <Molecule ChEMBL ID>  (1671) 
CHEMBL5859405

>  <Standard Type>  (1671) 
Ki

>  <Standard Value>  (1671) 
67.0

>  <label>  (1671) 
1

$$$$
CHEMBL1237149
     RDKit          3D

  0  0  0  0  0  0  0  0  0  0999 V3000
M  V30 BEGIN CTAB
M  V30 COUNTS 58 64 0 0 1
M  V30 BEGIN ATOM
M  V30 1 O 3.288046 -1.026301 -14.051922 0
M  V30 2 C 4.050865 -1.029250 -15.015408 0
M  V30 3 N 3.945591 -1.760674 -16.191847 0
M  V30 4 C 5.053479 -1.509017 -16.989105 0
M  V30 5 C 5.425676 -2.022111 -18.238758 0
M  V30 6 C 6.670682 -1.594685 -18.760803 0
M  V30 7 C 7.504858 -0.711072 -18.025574 0
M  V30 8 C 7.104231 -0.227635 -16.754705 0
M  V30 9 N 7.915742 0.566684 -15.935285 0
M  V30 10 C 9.374194 0.455677 -15.870681 0
M  V30 11 C 9.799288 1.915266 -15.589431 0 CFG=1
M  V30 12 C 8.843379 2.604265 -16.554359 0
M  V30 13 C 7.623497 1.985152 -15.870514 0 CFG=2
M  V30 14 C 7.814693 2.402276 -14.407208 0
M  V30 15 N 9.288987 2.287443 -14.239931 0 CFG=2 CHG=1
M  V30 16 C 9.975748 3.390121 -13.509661 0
M  V30 17 C 9.697235 4.832377 -14.023519 0 CFG=2
M  V30 18 C 10.881995 5.384700 -14.865694 0
M  V30 19 C 12.039655 6.007849 -14.061299 0
M  V30 20 C 11.563638 6.671406 -12.815343 0
M  V30 21 N 12.362103 7.441368 -11.997014 0
M  V30 22 C 11.689023 7.772832 -10.835298 0
M  V30 23 C 12.081746 8.455431 -9.670279 0
M  V30 24 C 11.165133 8.633260 -8.622538 0
M  V30 25 C 9.861580 8.121108 -8.739505 0
M  V30 26 F 8.982221 8.297932 -7.726917 0
M  V30 27 C 9.481524 7.416466 -9.900663 0
M  V30 28 C 10.381383 7.223471 -10.977003 0
M  V30 29 C 10.327722 6.548031 -12.246931 0
M  V30 30 C 9.215366 5.772474 -12.877024 0
M  V30 31 C 5.837029 -0.625206 -16.281506 0
M  V30 32 O 5.218821 -0.317388 -15.100460 0
M  V30 33 H 3.261547 -2.498698 -16.325644 0
M  V30 34 H 4.795477 -2.717146 -18.773550 0
M  V30 35 H 6.998079 -1.962416 -19.722288 0
M  V30 36 H 8.457938 -0.427099 -18.444578 0
M  V30 37 H 9.682550 -0.224611 -15.075400 0
M  V30 38 H 9.802150 0.099189 -16.807444 0
M  V30 39 H 10.861861 2.108027 -15.744434 0
M  V30 40 H 8.891764 3.691399 -16.523878 0
M  V30 41 H 8.965723 2.283387 -17.590834 0
M  V30 42 H 6.658484 2.259244 -16.300776 0
M  V30 43 H 7.413304 3.396717 -14.221494 0
M  V30 44 H 7.284796 1.721565 -13.740785 0
M  V30 45 H 9.668397 3.294269 -12.468485 0
M  V30 46 H 11.047881 3.190096 -13.496439 0
M  V30 47 H 8.854572 4.810928 -14.704709 0
M  V30 48 H 11.264111 4.634058 -15.556700 0
M  V30 49 H 10.486240 6.172332 -15.504246 0
M  V30 50 H 12.594868 6.714880 -14.680378 0
M  V30 51 H 12.747836 5.225100 -13.782627 0
M  V30 52 H 13.321460 7.670019 -12.223457 0
M  V30 53 H 13.083911 8.841319 -9.572774 0
M  V30 54 H 11.457573 9.162407 -7.727210 0
M  V30 55 H 8.486224 7.007535 -9.964220 0
M  V30 56 H 8.498092 6.484209 -13.290102 0
M  V30 57 H 8.648079 5.227108 -12.122691 0
M  V30 58 H 9.447457 1.469731 -13.663699 0
M  V30 END ATOM
M  V30 BEGIN BOND
M  V30 1 2 2 1
M  V30 2 1 3 2
M  V30 3 1 4 3
M  V30 4 2 5 4
M  V30 5 1 6 5
M  V30 6 2 7 6
M  V30 7 1 8 7
M  V30 8 1 9 8
M  V30 9 1 10 9
M  V30 10 1 11 10
M  V30 11 1 12 11
M  V30 12 1 13 9
M  V30 13 1 13 12
M  V30 14 1 14 13
M  V30 15 1 15 11
M  V30 16 1 15 14
M  V30 17 1 16 15
M  V30 18 1 17 16
M  V30 19 1 18 17
M  V30 20 1 19 18
M  V30 21 1 20 19
M  V30 22 1 21 20
M  V30 23 1 22 21
M  V30 24 1 23 22
M  V30 25 2 24 23
M  V30 26 1 25 24
M  V30 27 1 26 25
M  V30 28 2 27 25
M  V30 29 2 28 22
M  V30 30 1 28 27
M  V30 31 2 29 20
M  V30 32 1 29 28
M  V30 33 1 30 17
M  V30 34 1 30 29
M  V30 35 1 31 4
M  V30 36 2 31 8
M  V30 37 1 32 2
M  V30 38 1 32 31
M  V30 39 1 33 3
M  V30 40 1 34 5
M  V30 41 1 35 6
M  V30 42 1 36 7
M  V30 43 1 37 10
M  V30 44 1 38 10
M  V30 45 1 11 39 CFG=3
M  V30 46 1 40 12
M  V30 47 1 41 12
M  V30 48 1 13 42 CFG=3
M  V30 49 1 43 14
M  V30 50 1 44 14
M  V30 51 1 45 16
M  V30 52 1 46 16
M  V30 53 1 17 47 CFG=3
M  V30 54 1 48 18
M  V30 55 1 49 18
M  V30 56 1 50 19
M  V30 57 1 51 19
M  V30 58 1 52 21
M  V30 59 1 53 23
M  V30 60 1 54 24
M  V30 61 1 55 27
M  V30 62 1 56 30
M  V30 63 1 57 30
M  V30 64 1 15 58 CFG=1
M  V30 END BOND
M  V30 END CTAB
M  END
>  <b_m_subgroup_collapsed>  (1672) 
0

>  <r_i_docking_score>  (1672) 
-6.8462384768004698

>  <s_m_subgroup_title>  (1672) 
glide-dock_SP_D22_pv

>  <s_m_subgroupid>  (1672) 
glide-dock_SP_D22_pv

>  <Molecule ChEMBL ID>  (1672) 
CHEMBL1237149

>  <Standard Type>  (1672) 
Ki

>  <Standard Value>  (1672) 
12.0

>  <label>  (1672) 
1

$$$$
CHEMBL241282
     RDKit          3D

  0  0  0  0  0  0  0  0  0  0999 V3000
M  V30 BEGIN CTAB
M  V30 COUNTS 59 63 0 0 1
M  V30 BEGIN ATOM
M  V30 1 C 7.180698 -0.041849 -16.343380 0
M  V30 2 O 7.665049 0.858969 -17.329117 0
M  V30 3 C 8.550570 1.847267 -16.950615 0
M  V30 4 C 9.094543 1.914985 -15.640417 0
M  V30 5 C 9.931830 2.980402 -15.259556 0
M  V30 6 C 10.228109 4.004407 -16.172318 0
M  V30 7 C 9.725568 3.929054 -17.483829 0
M  V30 8 C 8.909516 2.854700 -17.893082 0
M  V30 9 O 8.486294 2.908274 -19.205482 0
M  V30 10 C 8.199416 1.698208 -19.891563 0
M  V30 11 C 11.088876 5.181272 -15.744755 0
M  V30 12 N 11.103727 5.479922 -14.292978 0 CHG=1
M  V30 13 C 11.677291 6.670492 -13.970095 0
M  V30 14 N 11.738352 7.372106 -12.809053 0
M  V30 15 C 10.931179 7.193772 -11.629601 0
M  V30 16 C 9.572368 6.846386 -11.709417 0
M  V30 17 C 8.887624 6.489004 -10.537597 0
M  V30 18 C 9.511424 6.603396 -9.279805 0
M  V30 19 C 10.811841 7.161671 -9.185238 0
M  V30 20 C 11.530026 7.422427 -10.373312 0
M  V30 21 C 11.419502 7.540526 -7.833205 0 CFG=1
M  V30 22 S 11.285455 9.346536 -7.720577 0
M  V30 23 C 11.994448 9.716357 -6.103984 0
M  V30 24 C 11.133110 9.099677 -5.009211 0
M  V30 25 S 11.286074 7.294786 -4.995323 0
M  V30 26 C 10.731409 6.809926 -6.656216 0 CFG=1
M  V30 27 C 9.206263 6.807245 -6.766384 0
M  V30 28 C 8.773177 6.103210 -8.051044 0
M  V30 29 C 10.452793 4.524858 -13.362450 0
M  V30 30 C 10.487605 3.075486 -13.857118 0
M  V30 31 H 6.479269 -0.738876 -16.801746 0
M  V30 32 H 6.652780 0.484565 -15.546470 0
M  V30 33 H 7.992354 -0.627570 -15.913763 0
M  V30 34 H 8.867167 1.166123 -14.897306 0
M  V30 35 H 9.965018 4.706332 -18.195015 0
M  V30 36 H 8.281813 1.870005 -20.964777 0
M  V30 37 H 7.179454 1.367372 -19.696468 0
M  V30 38 H 8.897408 0.900674 -19.632851 0
M  V30 39 H 12.112651 4.995646 -16.070770 0
M  V30 40 H 10.745286 6.071096 -16.273209 0
M  V30 41 H 12.214980 7.150541 -14.780725 0
M  V30 42 H 9.061909 6.788695 -12.656576 0
M  V30 43 H 7.864570 6.147181 -10.604200 0
M  V30 44 H 12.541221 7.798326 -10.312013 0
M  V30 45 H 12.482967 7.304583 -7.840029 0
M  V30 46 H 13.026691 9.372335 -6.050467 0
M  V30 47 H 12.016084 10.800282 -5.988987 0
M  V30 48 H 11.440141 9.477434 -4.033708 0
M  V30 49 H 10.092733 9.388478 -5.152705 0
M  V30 50 H 11.043485 5.772099 -6.735708 0
M  V30 51 H 8.776559 6.287296 -5.912505 0
M  V30 52 H 8.818477 7.826752 -6.748817 0
M  V30 53 H 7.697265 6.171480 -8.188981 0
M  V30 54 H 8.985388 5.037317 -7.962746 0
M  V30 55 H 10.885942 4.580154 -12.367261 0
M  V30 56 H 9.402905 4.798289 -13.275639 0
M  V30 57 H 9.892200 2.457999 -13.186001 0
M  V30 58 H 11.504597 2.682171 -13.847413 0
M  V30 59 H 12.554275 7.964208 -12.735608 0
M  V30 END ATOM
M  V30 BEGIN BOND
M  V30 1 1 2 1
M  V30 2 1 3 2
M  V30 3 1 4 3
M  V30 4 2 5 4
M  V30 5 1 6 5
M  V30 6 2 7 6
M  V30 7 2 8 3
M  V30 8 1 8 7
M  V30 9 1 9 8
M  V30 10 1 10 9
M  V30 11 1 11 6
M  V30 12 1 12 11
M  V30 13 2 13 12 CFG=2
M  V30 14 1 14 13
M  V30 15 1 15 14
M  V30 16 1 16 15
M  V30 17 2 17 16
M  V30 18 1 18 17
M  V30 19 2 19 18
M  V30 20 2 20 15
M  V30 21 1 20 19
M  V30 22 1 21 19
M  V30 23 1 22 21
M  V30 24 1 23 22
M  V30 25 1 24 23
M  V30 26 1 25 24
M  V30 27 1 26 21
M  V30 28 1 26 25
M  V30 29 1 27 26
M  V30 30 1 28 18
M  V30 31 1 28 27
M  V30 32 1 29 12
M  V30 33 1 30 5
M  V30 34 1 30 29
M  V30 35 1 31 1
M  V30 36 1 32 1
M  V30 37 1 33 1
M  V30 38 1 34 4
M  V30 39 1 35 7
M  V30 40 1 36 10
M  V30 41 1 37 10
M  V30 42 1 38 10
M  V30 43 1 39 11
M  V30 44 1 40 11
M  V30 45 1 41 13
M  V30 46 1 42 16
M  V30 47 1 43 17
M  V30 48 1 44 20
M  V30 49 1 21 45 CFG=3
M  V30 50 1 46 23
M  V30 51 1 47 23
M  V30 52 1 48 24
M  V30 53 1 49 24
M  V30 54 1 26 50 CFG=3
M  V30 55 1 51 27
M  V30 56 1 52 27
M  V30 57 1 53 28
M  V30 58 1 54 28
M  V30 59 1 55 29
M  V30 60 1 56 29
M  V30 61 1 57 30
M  V30 62 1 58 30
M  V30 63 1 59 14
M  V30 END BOND
M  V30 END CTAB
M  END
>  <b_m_subgroup_collapsed>  (1673) 
0

>  <r_i_docking_score>  (1673) 
-6.8425428343208701

>  <s_m_subgroup_title>  (1673) 
glide-dock_SP_D22_pv

>  <s_m_subgroupid>  (1673) 
glide-dock_SP_D22_pv

>  <Molecule ChEMBL ID>  (1673) 
CHEMBL241282

>  <Standard Type>  (1673) 
Ki

>  <Standard Value>  (1673) 
100000.0

>  <label>  (1673) 
0

$$$$
CHEMBL282927
     RDKit          3D

  0  0  0  0  0  0  0  0  0  0999 V3000
M  V30 BEGIN CTAB
M  V30 COUNTS 57 60 0 0 1
M  V30 BEGIN ATOM
M  V30 1 N 10.970014 10.172256 -4.368502 0
M  V30 2 C 11.545955 8.986858 -4.553614 0
M  V30 3 O 12.318466 8.501361 -3.732131 0
M  V30 4 C 11.218238 8.246807 -5.853951 0 CFG=1
M  V30 5 C 10.818601 6.777095 -5.673454 0
M  V30 6 C 9.672038 6.577942 -6.660017 0
M  V30 7 C 9.601848 7.884776 -7.456831 0 CFG=2
M  V30 8 C 10.537421 7.900557 -8.687422 0
M  V30 9 N 9.922733 7.511346 -9.982523 0 CHG=1
M  V30 10 C 9.291767 6.165354 -10.000085 0
M  V30 11 C 8.661499 5.840403 -11.368346 0
M  V30 12 C 9.641792 6.019014 -12.528550 0
M  V30 13 C 9.803543 5.133637 -13.555371 0
M  V30 14 C 10.827980 5.326082 -14.609341 0
M  V30 15 C 12.201906 5.407334 -14.294464 0
M  V30 16 C 13.163535 5.566260 -15.311059 0
M  V30 17 C 12.767558 5.627245 -16.658821 0
M  V30 18 C 11.403794 5.524602 -16.988247 0
M  V30 19 C 10.445339 5.366133 -15.969702 0
M  V30 20 C 8.921546 3.955830 -13.744397 0
M  V30 21 C 7.512762 4.075878 -13.674943 0
M  V30 22 C 6.679992 2.965615 -13.913177 0
M  V30 23 C 7.244933 1.722113 -14.250845 0
M  V30 24 F 6.446142 0.654298 -14.479748 0
M  V30 25 C 8.643432 1.591012 -14.340580 0
M  V30 26 C 9.475476 2.699896 -14.084389 0
M  V30 27 C 10.352228 7.367827 -12.437261 0
M  V30 28 C 10.938374 7.645774 -11.055822 0
M  V30 29 O 10.090606 8.828549 -6.506330 0
M  V30 30 H 11.187236 10.708955 -3.540502 0
M  V30 31 H 10.340197 10.520828 -5.076641 0
M  V30 32 H 12.081599 8.327893 -6.514296 0
M  V30 33 H 11.660520 6.123354 -5.897710 0
M  V30 34 H 10.487041 6.550240 -4.659567 0
M  V30 35 H 8.738812 6.431824 -6.121254 0
M  V30 36 H 9.818197 5.702717 -7.290083 0
M  V30 37 H 8.580137 8.145619 -7.738447 0
M  V30 38 H 11.417069 7.281891 -8.504786 0
M  V30 39 H 10.904887 8.921446 -8.808346 0
M  V30 40 H 8.508117 6.111301 -9.243687 0
M  V30 41 H 10.036884 5.409242 -9.748239 0
M  V30 42 H 7.805822 6.494595 -11.540421 0
M  V30 43 H 8.272432 4.824177 -11.313519 0
M  V30 44 H 12.528147 5.353407 -13.266095 0
M  V30 45 H 14.210304 5.643125 -15.056574 0
M  V30 46 H 13.507398 5.749364 -17.436012 0
M  V30 47 H 11.092797 5.564133 -18.022360 0
M  V30 48 H 9.402200 5.285842 -16.237946 0
M  V30 49 H 7.056476 5.029081 -13.447924 0
M  V30 50 H 5.607591 3.071088 -13.846968 0
M  V30 51 H 9.078547 0.635341 -14.594379 0
M  V30 52 H 10.546701 2.579934 -14.155828 0
M  V30 53 H 11.131431 7.495720 -13.185480 0
M  V30 54 H 9.607436 8.136933 -12.646779 0
M  V30 55 H 11.353381 8.654225 -11.045997 0
M  V30 56 H 11.773682 6.972421 -10.865129 0
M  V30 57 H 9.173735 8.165092 -10.176686 0
M  V30 END ATOM
M  V30 BEGIN BOND
M  V30 1 1 2 1
M  V30 2 2 3 2
M  V30 3 1 4 2
M  V30 4 1 5 4
M  V30 5 1 6 5
M  V30 6 1 7 6
M  V30 7 1 8 7
M  V30 8 1 9 8
M  V30 9 1 10 9
M  V30 10 1 11 10
M  V30 11 1 12 11
M  V30 12 2 13 12
M  V30 13 1 14 13
M  V30 14 2 15 14
M  V30 15 1 16 15
M  V30 16 2 17 16
M  V30 17 1 18 17
M  V30 18 1 19 14
M  V30 19 2 19 18
M  V30 20 1 20 13
M  V30 21 1 21 20
M  V30 22 2 22 21
M  V30 23 1 23 22
M  V30 24 1 24 23
M  V30 25 2 25 23
M  V30 26 2 26 20
M  V30 27 1 26 25
M  V30 28 1 27 12
M  V30 29 1 28 9
M  V30 30 1 28 27
M  V30 31 1 29 4
M  V30 32 1 29 7
M  V30 33 1 30 1
M  V30 34 1 31 1
M  V30 35 1 4 32 CFG=3
M  V30 36 1 33 5
M  V30 37 1 34 5
M  V30 38 1 35 6
M  V30 39 1 36 6
M  V30 40 1 7 37 CFG=3
M  V30 41 1 38 8
M  V30 42 1 39 8
M  V30 43 1 40 10
M  V30 44 1 41 10
M  V30 45 1 42 11
M  V30 46 1 43 11
M  V30 47 1 44 15
M  V30 48 1 45 16
M  V30 49 1 46 17
M  V30 50 1 47 18
M  V30 51 1 48 19
M  V30 52 1 49 21
M  V30 53 1 50 22
M  V30 54 1 51 25
M  V30 55 1 52 26
M  V30 56 1 53 27
M  V30 57 1 54 27
M  V30 58 1 55 28
M  V30 59 1 56 28
M  V30 60 1 57 9
M  V30 END BOND
M  V30 END CTAB
M  END
>  <b_m_subgroup_collapsed>  (1674) 
0

>  <r_i_docking_score>  (1674) 
-6.8330550204353102

>  <s_m_subgroup_title>  (1674) 
glide-dock_SP_D22_pv

>  <s_m_subgroupid>  (1674) 
glide-dock_SP_D22_pv

>  <Molecule ChEMBL ID>  (1674) 
CHEMBL282927

>  <Standard Type>  (1674) 
Ki

>  <Standard Value>  (1674) 
100.0

>  <label>  (1674) 
1

$$$$
CHEMBL240024
     RDKit          3D

  0  0  0  0  0  0  0  0  0  0999 V3000
M  V30 BEGIN CTAB
M  V30 COUNTS 56 60 0 0 1
M  V30 BEGIN ATOM
M  V30 1 C 13.120282 1.971873 -19.086992 0
M  V30 2 O 13.814089 3.151445 -18.707905 0
M  V30 3 C 13.317386 3.892089 -17.654922 0
M  V30 4 C 12.081747 3.618556 -17.017305 0
M  V30 5 C 11.649597 4.396227 -15.925381 0
M  V30 6 C 12.457479 5.446317 -15.447589 0
M  V30 7 C 13.671672 5.742247 -16.095169 0
M  V30 8 C 14.106742 4.974473 -17.204161 0
M  V30 9 O 15.289619 5.208439 -17.874975 0
M  V30 10 C 16.105955 6.288020 -17.447042 0
M  V30 11 C 12.041286 6.273964 -14.244161 0
M  V30 12 N 10.886004 5.772304 -13.476990 0 CHG=1
M  V30 13 C 10.518968 6.482062 -12.391627 0
M  V30 14 N 9.473711 6.158562 -11.611357 0
M  V30 15 C 9.549995 6.283694 -10.186879 0
M  V30 16 C 8.501401 5.716581 -9.433245 0
M  V30 17 C 8.486032 5.842085 -8.029642 0
M  V30 18 C 9.537105 6.522382 -7.412757 0
M  V30 19 C 10.630809 6.942816 -8.142288 0
M  V30 20 C 10.653281 6.892651 -9.547367 0
M  V30 21 C 11.749647 7.301556 -7.219372 0 CFG=1
M  V30 22 S 12.310466 8.972321 -7.514872 0
M  V30 23 C 11.068464 9.953983 -6.644652 0
M  V30 24 C 11.080203 9.799433 -5.115576 0
M  V30 25 S 11.686767 8.205403 -4.489083 0
M  V30 26 C 11.197911 7.036298 -5.795326 0 CFG=1
M  V30 27 C 9.685658 6.875240 -5.962594 0
M  V30 28 C 10.321280 4.435891 -13.769265 0
M  V30 29 C 10.317180 4.106353 -15.266167 0
M  V30 30 H 13.672038 1.470726 -19.881758 0
M  V30 31 H 12.125394 2.200622 -19.471724 0
M  V30 32 H 13.035783 1.273022 -18.252842 0
M  V30 33 H 11.448559 2.811278 -17.351725 0
M  V30 34 H 14.263489 6.560307 -15.713010 0
M  V30 35 H 16.992235 6.342927 -18.079025 0
M  V30 36 H 16.443661 6.149863 -16.419340 0
M  V30 37 H 15.581555 7.240318 -17.533369 0
M  V30 38 H 12.886088 6.354619 -13.561764 0
M  V30 39 H 11.815223 7.284295 -14.586439 0
M  V30 40 H 11.077815 7.382207 -12.164652 0
M  V30 41 H 7.686077 5.221711 -9.934373 0
M  V30 42 H 7.659255 5.469559 -7.447317 0
M  V30 43 H 11.515555 7.251615 -10.087030 0
M  V30 44 H 12.559121 6.618249 -7.446847 0
M  V30 45 H 11.286040 10.995580 -6.873992 0
M  V30 46 H 10.086352 9.718804 -7.053465 0
M  V30 47 H 11.692214 10.572328 -4.667017 0
M  V30 48 H 10.086159 9.988142 -4.726089 0
M  V30 49 H 11.582344 6.061702 -5.492816 0
M  V30 50 H 9.164331 7.823003 -5.846816 0
M  V30 51 H 9.272325 6.172325 -5.256184 0
M  V30 52 H 10.920796 3.700206 -13.233804 0
M  V30 53 H 9.305529 4.346123 -13.386680 0
M  V30 54 H 9.544433 4.684595 -15.774405 0
M  V30 55 H 10.063898 3.054261 -15.404370 0
M  V30 56 H 8.705362 5.645451 -12.019343 0
M  V30 END ATOM
M  V30 BEGIN BOND
M  V30 1 1 2 1
M  V30 2 1 3 2
M  V30 3 1 4 3
M  V30 4 2 5 4
M  V30 5 1 6 5
M  V30 6 2 7 6
M  V30 7 2 8 3
M  V30 8 1 8 7
M  V30 9 1 9 8
M  V30 10 1 10 9
M  V30 11 1 11 6
M  V30 12 1 12 11
M  V30 13 2 13 12 CFG=2
M  V30 14 1 14 13
M  V30 15 1 15 14
M  V30 16 1 16 15
M  V30 17 2 17 16
M  V30 18 1 18 17
M  V30 19 2 19 18
M  V30 20 2 20 15
M  V30 21 1 20 19
M  V30 22 1 21 19
M  V30 23 1 22 21
M  V30 24 1 23 22
M  V30 25 1 24 23
M  V30 26 1 25 24
M  V30 27 1 26 21
M  V30 28 1 26 25
M  V30 29 1 27 18
M  V30 30 1 27 26
M  V30 31 1 28 12
M  V30 32 1 29 5
M  V30 33 1 29 28
M  V30 34 1 30 1
M  V30 35 1 31 1
M  V30 36 1 32 1
M  V30 37 1 33 4
M  V30 38 1 34 7
M  V30 39 1 35 10
M  V30 40 1 36 10
M  V30 41 1 37 10
M  V30 42 1 38 11
M  V30 43 1 39 11
M  V30 44 1 40 13
M  V30 45 1 41 16
M  V30 46 1 42 17
M  V30 47 1 43 20
M  V30 48 1 21 44 CFG=3
M  V30 49 1 45 23
M  V30 50 1 46 23
M  V30 51 1 47 24
M  V30 52 1 48 24
M  V30 53 1 26 49 CFG=1
M  V30 54 1 50 27
M  V30 55 1 51 27
M  V30 56 1 52 28
M  V30 57 1 53 28
M  V30 58 1 54 29
M  V30 59 1 55 29
M  V30 60 1 56 14
M  V30 END BOND
M  V30 END CTAB
M  END
>  <b_m_subgroup_collapsed>  (1675) 
0

>  <r_i_docking_score>  (1675) 
-6.8317891722146404

>  <s_m_subgroup_title>  (1675) 
glide-dock_SP_D22_pv

>  <s_m_subgroupid>  (1675) 
glide-dock_SP_D22_pv

>  <Molecule ChEMBL ID>  (1675) 
CHEMBL240024

>  <Standard Type>  (1675) 
Ki

>  <Standard Value>  (1675) 
100000.0

>  <label>  (1675) 
0

$$$$
CHEMBL4086894
     RDKit          3D

  0  0  0  0  0  0  0  0  0  0999 V3000
M  V30 BEGIN CTAB
M  V30 COUNTS 66 68 0 0 1
M  V30 BEGIN ATOM
M  V30 1 O 10.351938 5.938553 -12.904126 0
M  V30 2 C 9.184426 5.645819 -12.646271 0
M  V30 3 C 8.440403 6.479643 -11.600055 0
M  V30 4 C 8.380765 5.772218 -10.230188 0
M  V30 5 C 9.680904 5.886054 -9.436199 0
M  V30 6 N 9.964448 7.272022 -8.970285 0 CFG=2 CHG=1
M  V30 7 C 11.411948 7.424070 -8.688051 0
M  V30 8 C 11.804381 8.788081 -8.088546 0
M  V30 9 C 11.001815 9.196744 -6.834924 0 CFG=2
M  V30 10 O 11.286026 10.571259 -6.646903 0
M  V30 11 C 11.395447 8.468155 -5.559175 0
M  V30 12 C 11.198846 7.084900 -5.456436 0
M  V30 13 C 11.544132 6.426819 -4.292449 0
M  V30 14 C 12.085945 7.100200 -3.207622 0
M  V30 15 Cl 12.486014 6.174980 -1.847373 0
M  V30 16 C 12.282961 8.483427 -3.259045 0
M  V30 17 C 11.934173 9.159721 -4.438413 0
M  V30 18 C 9.497869 8.994461 -7.159808 0
M  V30 19 C 9.089602 7.671732 -7.833342 0
M  V30 20 C 8.476781 4.476722 -13.240719 0
M  V30 21 C 7.098207 4.243734 -13.022555 0
M  V30 22 C 6.484129 3.084863 -13.527907 0
M  V30 23 C 7.226297 2.129985 -14.246900 0
M  V30 24 O 6.560992 0.977343 -14.595442 0
M  V30 25 C 7.291132 -0.122972 -15.124568 0
M  V30 26 C 7.366718 -0.056627 -16.661259 0
M  V30 27 S 5.746879 0.203782 -17.446854 0
M  V30 28 S 4.460699 -0.985655 -16.402302 0
M  V30 29 C 4.743093 -2.629007 -17.089476 0
M  V30 30 C 3.906586 -2.846195 -18.355551 0
M  V30 31 O 3.852100 -4.222427 -18.646856 0
M  V30 32 C 8.589164 2.393384 -14.527491 0
M  V30 33 C 9.204852 3.557129 -14.027723 0
M  V30 34 H 8.921198 7.453009 -11.506734 0
M  V30 35 H 7.435052 6.694583 -11.957977 0
M  V30 36 H 7.574411 6.172045 -9.627667 0
M  V30 37 H 8.131879 4.718228 -10.362100 0
M  V30 38 H 9.656149 5.208540 -8.580694 0
M  V30 39 H 10.486024 5.529707 -10.071115 0
M  V30 40 H 11.690830 6.608290 -8.033148 0
M  V30 41 H 11.968233 7.283730 -9.616203 0
M  V30 42 H 12.875278 8.811848 -7.880422 0
M  V30 43 H 11.636549 9.528138 -8.873097 0
M  V30 44 H 12.214338 10.660875 -6.487416 0
M  V30 45 H 10.780398 6.474621 -6.229001 0
M  V30 46 H 11.375105 5.374937 -4.245606 0
M  V30 47 H 12.693586 9.019085 -2.414796 0
M  V30 48 H 12.085657 10.220828 -4.445470 0
M  V30 49 H 8.904918 9.090207 -6.251278 0
M  V30 50 H 9.174660 9.772388 -7.847054 0
M  V30 51 H 8.085992 7.817510 -8.216944 0
M  V30 52 H 8.979828 6.872159 -7.104178 0
M  V30 53 H 6.490148 4.916624 -12.437555 0
M  V30 54 H 5.439512 2.903357 -13.321504 0
M  V30 55 H 6.765917 -1.027679 -14.820520 0
M  V30 56 H 8.279292 -0.226903 -14.675986 0
M  V30 57 H 7.793146 -0.981648 -17.048512 0
M  V30 58 H 8.026990 0.750201 -16.978268 0
M  V30 59 H 4.486016 -3.349792 -16.316261 0
M  V30 60 H 5.804801 -2.770840 -17.292501 0
M  V30 61 H 4.328466 -2.300359 -19.200144 0
M  V30 62 H 2.886533 -2.487968 -18.213020 0
M  V30 63 H 3.368102 -4.627675 -17.929115 0
M  V30 64 H 9.195678 1.706380 -15.097059 0
M  V30 65 H 10.255436 3.716954 -14.224631 0
M  V30 66 H 9.750426 7.896083 -9.735965 0
M  V30 END ATOM
M  V30 BEGIN BOND
M  V30 1 2 2 1
M  V30 2 1 3 2
M  V30 3 1 4 3
M  V30 4 1 5 4
M  V30 5 1 6 5
M  V30 6 1 7 6
M  V30 7 1 8 7
M  V30 8 1 9 8
M  V30 9 1 9 10 CFG=1
M  V30 10 1 11 9
M  V30 11 1 12 11
M  V30 12 2 13 12
M  V30 13 1 14 13
M  V30 14 1 15 14
M  V30 15 2 16 14
M  V30 16 2 17 11
M  V30 17 1 17 16
M  V30 18 1 18 9
M  V30 19 1 19 6
M  V30 20 1 19 18
M  V30 21 1 20 2
M  V30 22 1 21 20
M  V30 23 2 22 21
M  V30 24 1 23 22
M  V30 25 1 24 23
M  V30 26 1 25 24
M  V30 27 1 26 25
M  V30 28 1 27 26
M  V30 29 1 28 27
M  V30 30 1 29 28
M  V30 31 1 30 29
M  V30 32 1 31 30
M  V30 33 2 32 23
M  V30 34 2 33 20
M  V30 35 1 33 32
M  V30 36 1 34 3
M  V30 37 1 35 3
M  V30 38 1 36 4
M  V30 39 1 37 4
M  V30 40 1 38 5
M  V30 41 1 39 5
M  V30 42 1 40 7
M  V30 43 1 41 7
M  V30 44 1 42 8
M  V30 45 1 43 8
M  V30 46 1 44 10
M  V30 47 1 45 12
M  V30 48 1 46 13
M  V30 49 1 47 16
M  V30 50 1 48 17
M  V30 51 1 49 18
M  V30 52 1 50 18
M  V30 53 1 51 19
M  V30 54 1 52 19
M  V30 55 1 53 21
M  V30 56 1 54 22
M  V30 57 1 55 25
M  V30 58 1 56 25
M  V30 59 1 57 26
M  V30 60 1 58 26
M  V30 61 1 59 29
M  V30 62 1 60 29
M  V30 63 1 61 30
M  V30 64 1 62 30
M  V30 65 1 63 31
M  V30 66 1 64 32
M  V30 67 1 65 33
M  V30 68 1 6 66 CFG=3
M  V30 END BOND
M  V30 END CTAB
M  END
>  <b_m_subgroup_collapsed>  (1676) 
0

>  <r_i_docking_score>  (1676) 
-6.83000085878236

>  <s_m_subgroup_title>  (1676) 
glide-dock_SP_D22_pv

>  <s_m_subgroupid>  (1676) 
glide-dock_SP_D22_pv

>  <Molecule ChEMBL ID>  (1676) 
CHEMBL4086894

>  <Standard Type>  (1676) 
Ki

>  <Standard Value>  (1676) 
73.0

>  <label>  (1676) 
1

$$$$
CHEMBL3133873
     RDKit          3D

  0  0  0  0  0  0  0  0  0  0999 V3000
M  V30 BEGIN CTAB
M  V30 COUNTS 66 69 0 0 1
M  V30 BEGIN ATOM
M  V30 1 C 12.073557 7.379527 -2.803709 0
M  V30 2 O 11.414780 6.819542 -3.929893 0
M  V30 3 C 11.286124 7.594257 -5.062005 0
M  V30 4 C 11.726652 8.937128 -5.162348 0
M  V30 5 C 11.632323 9.618758 -6.388810 0
M  V30 6 C 11.073814 8.969400 -7.504759 0
M  V30 7 N 10.886321 9.372310 -8.814646 0
M  V30 8 C 10.224442 8.407667 -9.545625 0
M  V30 9 C 10.038007 7.319950 -8.734328 0
M  V30 10 C 9.419044 6.015367 -9.081990 0
M  V30 11 O 9.149399 5.154820 -8.246700 0
M  V30 12 N 9.280147 5.816712 -10.398789 0
M  V30 13 C 8.938794 4.528221 -10.962196 0
M  V30 14 C 8.906596 4.552814 -12.470913 0
M  V30 15 C 9.918365 4.108289 -13.229970 0
M  V30 16 C 9.902020 4.022579 -14.739710 0
M  V30 17 N 10.328695 2.673579 -15.192745 0 CHG=1
M  V30 18 C 9.391216 1.585963 -14.794873 0
M  V30 19 C 9.872881 0.200637 -15.290547 0
M  V30 20 N 10.201882 0.228916 -16.713406 0
M  V30 21 C 9.304909 -0.208077 -17.721266 0
M  V30 22 C 9.866703 -0.611925 -18.957037 0
M  V30 23 C 9.061900 -1.029651 -20.030243 0
M  V30 24 C 7.667484 -1.064280 -19.883921 0
M  V30 25 C 7.086389 -0.690352 -18.661003 0
M  V30 26 C 7.886135 -0.273635 -17.566748 0
M  V30 27 O 7.302129 0.088448 -16.372812 0
M  V30 28 C 6.079978 -0.541894 -16.002626 0
M  V30 29 C 6.001817 -0.606889 -14.473551 0
M  V30 30 F 5.909408 0.613157 -13.943982 0
M  V30 31 C 11.156943 1.272029 -17.081709 0
M  V30 32 C 10.636965 2.650460 -16.645269 0
M  V30 33 C 10.565321 7.641879 -7.430728 0
M  V30 34 C 10.695331 6.981387 -6.186062 0
M  V30 35 H 12.127037 6.631564 -2.012698 0
M  V30 36 H 13.095160 7.675285 -3.046122 0
M  V30 37 H 11.530049 8.239618 -2.409499 0
M  V30 38 H 12.173593 9.451205 -4.325028 0
M  V30 39 H 11.998879 10.630579 -6.472081 0
M  V30 40 H 11.169770 10.256598 -9.209614 0
M  V30 41 H 9.961331 8.570155 -10.580923 0
M  V30 42 H 9.483706 6.576210 -11.028432 0
M  V30 43 H 7.967457 4.196637 -10.589501 0
M  V30 44 H 9.685540 3.799672 -10.635432 0
M  V30 45 H 8.004431 4.933390 -12.926756 0
M  V30 46 H 10.820924 3.771952 -12.745885 0
M  V30 47 H 8.906996 4.261240 -15.124627 0
M  V30 48 H 10.589804 4.777789 -15.122044 0
M  V30 49 H 9.281467 1.555485 -13.711878 0
M  V30 50 H 8.406464 1.827827 -15.190629 0
M  V30 51 H 10.780601 -0.071767 -14.751083 0
M  V30 52 H 9.160126 -0.593185 -15.061503 0
M  V30 53 H 10.937824 -0.611650 -19.096205 0
M  V30 54 H 9.515736 -1.327097 -20.964235 0
M  V30 55 H 7.042358 -1.381196 -20.706015 0
M  V30 56 H 6.009998 -0.722352 -18.581640 0
M  V30 57 H 5.232018 0.009470 -16.410484 0
M  V30 58 H 6.031563 -1.562838 -16.384821 0
M  V30 59 H 5.121439 -1.165012 -14.155740 0
M  V30 60 H 6.880922 -1.092076 -14.049547 0
M  V30 61 H 12.108722 1.059069 -16.594166 0
M  V30 62 H 11.364799 1.293584 -18.150478 0
M  V30 63 H 9.739093 2.905236 -17.211538 0
M  V30 64 H 11.385772 3.408958 -16.877939 0
M  V30 65 H 10.341839 5.967358 -6.097558 0
M  V30 66 H 11.201149 2.470821 -14.726974 0
M  V30 END ATOM
M  V30 BEGIN BOND
M  V30 1 1 2 1
M  V30 2 1 3 2
M  V30 3 1 4 3
M  V30 4 2 5 4
M  V30 5 1 6 5
M  V30 6 1 7 6
M  V30 7 1 8 7
M  V30 8 2 9 8
M  V30 9 1 10 9
M  V30 10 2 11 10
M  V30 11 1 12 10
M  V30 12 1 13 12
M  V30 13 1 14 13
M  V30 14 2 15 14
M  V30 15 1 16 15
M  V30 16 1 17 16
M  V30 17 1 18 17
M  V30 18 1 19 18
M  V30 19 1 20 19
M  V30 20 1 21 20
M  V30 21 2 22 21
M  V30 22 1 23 22
M  V30 23 2 24 23
M  V30 24 1 25 24
M  V30 25 1 26 21
M  V30 26 2 26 25
M  V30 27 1 27 26
M  V30 28 1 28 27
M  V30 29 1 29 28
M  V30 30 1 30 29
M  V30 31 1 31 20
M  V30 32 1 32 17
M  V30 33 1 32 31
M  V30 34 2 33 6
M  V30 35 1 33 9
M  V30 36 2 34 3
M  V30 37 1 34 33
M  V30 38 1 35 1
M  V30 39 1 36 1
M  V30 40 1 37 1
M  V30 41 1 38 4
M  V30 42 1 39 5
M  V30 43 1 40 7
M  V30 44 1 41 8
M  V30 45 1 42 12
M  V30 46 1 43 13
M  V30 47 1 44 13
M  V30 48 1 45 14
M  V30 49 1 46 15
M  V30 50 1 47 16
M  V30 51 1 48 16
M  V30 52 1 49 18
M  V30 53 1 50 18
M  V30 54 1 51 19
M  V30 55 1 52 19
M  V30 56 1 53 22
M  V30 57 1 54 23
M  V30 58 1 55 24
M  V30 59 1 56 25
M  V30 60 1 57 28
M  V30 61 1 58 28
M  V30 62 1 59 29
M  V30 63 1 60 29
M  V30 64 1 61 31
M  V30 65 1 62 31
M  V30 66 1 63 32
M  V30 67 1 64 32
M  V30 68 1 65 34
M  V30 69 1 66 17
M  V30 END BOND
M  V30 END CTAB
M  END
>  <b_m_subgroup_collapsed>  (1677) 
0

>  <r_i_docking_score>  (1677) 
-6.8274614750324902

>  <s_m_subgroup_title>  (1677) 
glide-dock_SP_D22_pv

>  <s_m_subgroupid>  (1677) 
glide-dock_SP_D22_pv

>  <Molecule ChEMBL ID>  (1677) 
CHEMBL3133873

>  <Standard Type>  (1677) 
Ki

>  <Standard Value>  (1677) 
7.5

>  <label>  (1677) 
1

$$$$
CHEMBL2031737
     RDKit          3D

  0  0  0  0  0  0  0  0  0  0999 V3000
M  V30 BEGIN CTAB
M  V30 COUNTS 51 54 0 0 1
M  V30 BEGIN ATOM
M  V30 1 C 10.908809 7.997296 -8.537220 0
M  V30 2 C 9.385043 7.741349 -8.545000 0 CFG=2
M  V30 3 C 8.998106 6.718863 -7.464445 0
M  V30 4 C 8.724781 5.406713 -8.206693 0
M  V30 5 C 8.993309 5.694767 -9.680972 0
M  V30 6 N 8.886046 7.161178 -9.817955 0 CFG=2 CHG=1
M  V30 7 C 9.419115 7.749060 -11.075534 0
M  V30 8 C 8.376364 7.771016 -12.206964 0
M  V30 9 C 7.912165 6.416555 -12.647329 0
M  V30 10 C 6.708199 5.772845 -12.485853 0
M  V30 11 C 6.869009 4.471517 -13.067444 0
M  V30 12 C 6.083852 3.307272 -13.229494 0
M  V30 13 C 6.606428 2.142329 -13.846917 0
M  V30 14 C 5.784137 0.900004 -13.815985 0
M  V30 15 O 5.286145 0.546885 -12.745496 0
M  V30 16 C 5.471120 0.172223 -15.087997 0
M  V30 17 C 6.086460 0.458916 -16.332548 0
M  V30 18 C 5.662140 -0.181639 -17.512728 0
M  V30 19 C 4.609708 -1.123161 -17.485254 0
M  V30 20 N 4.129181 -1.756987 -18.728212 0 CHG=1
M  V30 21 O 4.640310 -1.412003 -19.788128 0
M  V30 22 O 3.237009 -2.593243 -18.647432 0 CHG=-1
M  V30 23 C 4.017425 -1.434186 -16.243385 0
M  V30 24 C 4.443979 -0.800090 -15.062725 0
M  V30 25 C 7.937568 2.146066 -14.332524 0
M  V30 26 C 8.735883 3.300059 -14.204110 0
M  V30 27 C 8.194386 4.427306 -13.564634 0
M  V30 28 O 8.825377 5.625327 -13.295425 0
M  V30 29 H 11.236372 8.334670 -7.553690 0
M  V30 30 H 11.468665 7.092589 -8.774561 0
M  V30 31 H 11.206733 8.771861 -9.243532 0
M  V30 32 H 8.870986 8.686530 -8.363806 0
M  V30 33 H 8.092935 7.043935 -6.948605 0
M  V30 34 H 9.770158 6.599219 -6.703187 0
M  V30 35 H 7.686058 5.126072 -8.061250 0
M  V30 36 H 9.325973 4.575511 -7.847171 0
M  V30 37 H 8.293886 5.156337 -10.317235 0
M  V30 38 H 10.002131 5.371915 -9.941410 0
M  V30 39 H 10.331707 7.238797 -11.386221 0
M  V30 40 H 9.689077 8.788844 -10.892900 0
M  V30 41 H 8.773152 8.332385 -13.046847 0
M  V30 42 H 7.527701 8.377081 -11.901306 0
M  V30 43 H 5.829313 6.157565 -11.985958 0
M  V30 44 H 5.080829 3.299122 -12.827510 0
M  V30 45 H 6.859202 1.204111 -16.427225 0
M  V30 46 H 6.139748 0.075138 -18.447481 0
M  V30 47 H 3.222526 -2.165361 -16.187696 0
M  V30 48 H 3.941721 -1.053729 -14.140013 0
M  V30 49 H 8.369810 1.251610 -14.758866 0
M  V30 50 H 9.757590 3.307660 -14.552803 0
M  V30 51 H 7.879482 7.372160 -9.846762 0
M  V30 END ATOM
M  V30 BEGIN BOND
M  V30 1 1 2 1
M  V30 2 1 3 2
M  V30 3 1 4 3
M  V30 4 1 5 4
M  V30 5 1 6 2
M  V30 6 1 6 5
M  V30 7 1 7 6
M  V30 8 1 8 7
M  V30 9 1 9 8
M  V30 10 2 10 9
M  V30 11 1 11 10
M  V30 12 1 12 11
M  V30 13 2 13 12
M  V30 14 1 14 13
M  V30 15 2 15 14
M  V30 16 1 16 14
M  V30 17 1 17 16
M  V30 18 2 18 17
M  V30 19 1 19 18
M  V30 20 1 20 19
M  V30 21 2 21 20
M  V30 22 1 22 20
M  V30 23 2 23 19
M  V30 24 2 24 16
M  V30 25 1 24 23
M  V30 26 1 25 13
M  V30 27 2 26 25
M  V30 28 2 27 11
M  V30 29 1 27 26
M  V30 30 1 28 9
M  V30 31 1 28 27
M  V30 32 1 29 1
M  V30 33 1 30 1
M  V30 34 1 31 1
M  V30 35 1 2 32 CFG=1
M  V30 36 1 33 3
M  V30 37 1 34 3
M  V30 38 1 35 4
M  V30 39 1 36 4
M  V30 40 1 37 5
M  V30 41 1 38 5
M  V30 42 1 39 7
M  V30 43 1 40 7
M  V30 44 1 41 8
M  V30 45 1 42 8
M  V30 46 1 43 10
M  V30 47 1 44 12
M  V30 48 1 45 17
M  V30 49 1 46 18
M  V30 50 1 47 23
M  V30 51 1 48 24
M  V30 52 1 49 25
M  V30 53 1 50 26
M  V30 54 1 6 51 CFG=3
M  V30 END BOND
M  V30 END CTAB
M  END
>  <b_m_subgroup_collapsed>  (1678) 
0

>  <r_i_docking_score>  (1678) 
-6.8269160985639097

>  <s_m_subgroup_title>  (1678) 
glide-dock_SP_D22_pv

>  <s_m_subgroupid>  (1678) 
glide-dock_SP_D22_pv

>  <Molecule ChEMBL ID>  (1678) 
CHEMBL2031737

>  <Standard Type>  (1678) 
Ki

>  <Standard Value>  (1678) 
10000.0

>  <label>  (1678) 
0

$$$$
CHEMBL3289988
     RDKit          3D

  0  0  0  0  0  0  0  0  0  0999 V3000
M  V30 BEGIN CTAB
M  V30 COUNTS 54 58 0 0 1
M  V30 BEGIN ATOM
M  V30 1 O 9.399463 3.249596 -15.954506 0
M  V30 2 S 10.357713 3.939264 -15.079722 0
M  V30 3 O 11.285358 3.161688 -14.245574 0
M  V30 4 N 9.449574 4.969214 -14.038657 0
M  V30 5 C 9.464136 4.765366 -12.590305 0
M  V30 6 C 8.588284 5.814994 -11.897419 0
M  V30 7 C 8.491344 5.626272 -10.370764 0
M  V30 8 N 9.649839 6.066985 -9.589640 0
M  V30 9 C 9.321116 5.762001 -8.190960 0
M  V30 10 C 10.448208 6.174602 -7.226813 0
M  V30 11 N 10.806324 7.571958 -7.420484 0
M  V30 12 C 11.050561 8.454572 -6.352155 0
M  V30 13 N 10.967799 9.773346 -6.494815 0
M  V30 14 O 11.285975 10.356879 -5.241102 0
M  V30 15 C 11.594292 9.362438 -4.327895 0
M  V30 16 C 11.989977 9.434154 -2.982597 0
M  V30 17 C 12.234775 8.230087 -2.291775 0
M  V30 18 C 12.085246 6.994182 -2.963412 0
M  V30 19 C 11.686136 6.948969 -4.318636 0
M  V30 20 C 11.429828 8.154840 -5.013542 0
M  V30 21 C 11.013192 7.981898 -8.804532 0
M  V30 22 C 9.829444 7.522980 -9.681607 0
M  V30 23 C 11.318751 5.128101 -16.018913 0
M  V30 24 C 12.541684 5.553255 -15.462000 0
M  V30 25 C 13.347639 6.484100 -16.141348 0
M  V30 26 C 12.930447 6.995101 -17.382933 0
M  V30 27 C 11.708375 6.572151 -17.936871 0
M  V30 28 S 10.971161 7.079765 -19.459213 0
M  V30 29 C 9.614229 6.024421 -19.083113 0
M  V30 30 N 9.675048 5.335851 -17.941286 0
M  V30 31 C 10.862050 5.630788 -17.268963 0
M  V30 32 H 8.544112 5.229002 -14.429056 0
M  V30 33 H 9.106898 3.760155 -12.366173 0
M  V30 34 H 10.485312 4.830205 -12.225510 0
M  V30 35 H 8.904733 6.820367 -12.167050 0
M  V30 36 H 7.578266 5.730666 -12.299963 0
M  V30 37 H 7.621357 6.168805 -10.009573 0
M  V30 38 H 8.293337 4.573046 -10.169168 0
M  V30 39 H 8.399808 6.268817 -7.904366 0
M  V30 40 H 9.139116 4.693019 -8.085963 0
M  V30 41 H 10.077149 6.025494 -6.217491 0
M  V30 42 H 11.331806 5.551177 -7.364774 0
M  V30 43 H 12.086059 10.390241 -2.489707 0
M  V30 44 H 12.532997 8.255402 -1.256256 0
M  V30 45 H 12.278862 6.071867 -2.432751 0
M  V30 46 H 11.607530 5.988592 -4.803571 0
M  V30 47 H 11.131492 9.061792 -8.892776 0
M  V30 48 H 11.942886 7.538057 -9.166731 0
M  V30 49 H 10.041101 7.819699 -10.705338 0
M  V30 50 H 8.914758 8.041967 -9.385669 0
M  V30 51 H 12.866763 5.168204 -14.505813 0
M  V30 52 H 14.281826 6.807186 -15.704631 0
M  V30 53 H 13.537910 7.718171 -17.908115 0
M  V30 54 H 8.749907 5.906517 -19.721863 0
M  V30 END ATOM
M  V30 BEGIN BOND
M  V30 1 2 2 1
M  V30 2 2 3 2
M  V30 3 1 4 2
M  V30 4 1 5 4
M  V30 5 1 6 5
M  V30 6 1 7 6
M  V30 7 1 8 7
M  V30 8 1 9 8
M  V30 9 1 10 9
M  V30 10 1 11 10
M  V30 11 1 12 11
M  V30 12 2 13 12
M  V30 13 1 14 13
M  V30 14 1 15 14
M  V30 15 2 16 15
M  V30 16 1 17 16
M  V30 17 2 18 17
M  V30 18 1 19 18
M  V30 19 1 20 12
M  V30 20 1 20 15
M  V30 21 2 20 19
M  V30 22 1 21 11
M  V30 23 1 22 8
M  V30 24 1 22 21
M  V30 25 1 23 2
M  V30 26 1 24 23
M  V30 27 2 25 24
M  V30 28 1 26 25
M  V30 29 2 27 26
M  V30 30 1 28 27
M  V30 31 1 29 28
M  V30 32 2 30 29
M  V30 33 2 31 23
M  V30 34 1 31 27
M  V30 35 1 31 30
M  V30 36 1 32 4
M  V30 37 1 33 5
M  V30 38 1 34 5
M  V30 39 1 35 6
M  V30 40 1 36 6
M  V30 41 1 37 7
M  V30 42 1 38 7
M  V30 43 1 39 9
M  V30 44 1 40 9
M  V30 45 1 41 10
M  V30 46 1 42 10
M  V30 47 1 43 16
M  V30 48 1 44 17
M  V30 49 1 45 18
M  V30 50 1 46 19
M  V30 51 1 47 21
M  V30 52 1 48 21
M  V30 53 1 49 22
M  V30 54 1 50 22
M  V30 55 1 51 24
M  V30 56 1 52 25
M  V30 57 1 53 26
M  V30 58 1 54 29
M  V30 END BOND
M  V30 END CTAB
M  END
>  <b_m_subgroup_collapsed>  (1679) 
0

>  <r_i_docking_score>  (1679) 
-6.8251375639027403

>  <s_m_subgroup_title>  (1679) 
glide-dock_SP_D22_pv

>  <s_m_subgroupid>  (1679) 
glide-dock_SP_D22_pv

>  <Molecule ChEMBL ID>  (1679) 
CHEMBL3289988

>  <Standard Type>  (1679) 
Ki

>  <Standard Value>  (1679) 
10000.0

>  <label>  (1679) 
0

$$$$
CHEMBL5757857
     RDKit          3D

  0  0  0  0  0  0  0  0  0  0999 V3000
M  V30 BEGIN CTAB
M  V30 COUNTS 80 83 0 0 1
M  V30 BEGIN ATOM
M  V30 1 C 4.846085 1.043387 -20.934822 0
M  V30 2 C 5.177114 0.138517 -19.769707 0
M  V30 3 N 5.835773 0.673409 -18.739967 0
M  V30 4 C 6.187064 -0.103568 -17.693201 0
M  V30 5 N 6.907677 0.476889 -16.628817 0
M  V30 6 C 6.491875 0.129291 -15.269389 0
M  V30 7 C 7.559093 0.550766 -14.235700 0
M  V30 8 N 7.912488 1.971896 -14.335304 0
M  V30 9 C 6.825967 2.854124 -13.895662 0
M  V30 10 C 7.293269 4.293730 -13.595832 0
M  V30 11 C 8.028145 4.451102 -12.256103 0
M  V30 12 C 8.460349 5.905119 -12.017019 0
M  V30 13 N 9.118051 6.061423 -10.723804 0
M  V30 14 C 10.040132 6.995051 -10.444747 0
M  V30 15 O 10.467300 7.768627 -11.304438 0
M  V30 16 N 10.485636 7.000056 -9.163055 0
M  V30 17 C 9.948240 6.216162 -8.035783 0
M  V30 18 C 9.285428 7.168561 -7.015642 0
M  V30 19 N 10.178483 8.269441 -6.642537 0
M  V30 20 C 10.920741 8.204335 -5.446555 0
M  V30 21 C 11.286405 9.405075 -4.792579 0
M  V30 22 C 11.968986 9.374697 -3.560713 0
M  V30 23 C 12.316764 8.145305 -2.976293 0
M  V30 24 C 11.979033 6.945821 -3.625326 0
M  V30 25 C 11.285850 6.972750 -4.850091 0
M  V30 26 C 10.801414 8.971038 -7.763047 0
M  V30 27 C 11.493139 7.965354 -8.699064 0
M  V30 28 C 8.403379 2.224110 -15.694144 0
M  V30 29 C 7.356100 1.861609 -16.771425 0
M  V30 30 C 5.866999 -1.472516 -17.699501 0
M  V30 31 C 5.182460 -1.994688 -18.816236 0
M  V30 32 C 4.818993 -3.480946 -18.971571 0
M  V30 33 C 5.300298 -4.331091 -17.774748 0
M  V30 34 C 3.292471 -3.633107 -19.087572 0
M  V30 35 C 5.492756 -4.047290 -20.237539 0
M  V30 36 N 4.840767 -1.155533 -19.826105 0 CHG=1
M  V30 37 H 4.081740 1.767567 -20.646254 0
M  V30 38 H 5.737527 1.585924 -21.253319 0
M  V30 39 H 4.485973 0.472380 -21.791042 0
M  V30 40 H 6.335602 -0.943827 -15.161981 0
M  V30 41 H 5.532465 0.594318 -15.048505 0
M  V30 42 H 8.463580 -0.040282 -14.392892 0
M  V30 43 H 7.216721 0.315674 -13.228307 0
M  V30 44 H 6.365984 2.448462 -12.996170 0
M  V30 45 H 6.041050 2.879634 -14.646715 0
M  V30 46 H 6.407939 4.929713 -13.563729 0
M  V30 47 H 7.908946 4.688550 -14.404041 0
M  V30 48 H 8.901567 3.797019 -12.239359 0
M  V30 49 H 7.377450 4.127106 -11.443156 0
M  V30 50 H 7.593408 6.567336 -12.036040 0
M  V30 51 H 9.121969 6.222139 -12.824772 0
M  V30 52 H 8.779434 5.490110 -9.965910 0
M  V30 53 H 10.776552 5.682386 -7.567909 0
M  V30 54 H 9.233265 5.447433 -8.327035 0
M  V30 55 H 8.950285 6.617604 -6.136845 0
M  V30 56 H 8.385253 7.601295 -7.453116 0
M  V30 57 H 11.009589 10.359242 -5.218266 0
M  V30 58 H 12.215759 10.291770 -3.047366 0
M  V30 59 H 12.835126 8.123835 -2.028716 0
M  V30 60 H 12.240250 5.997550 -3.177291 0
M  V30 61 H 11.027728 6.034761 -5.315230 0
M  V30 62 H 10.021103 9.497945 -8.311028 0
M  V30 63 H 11.515235 9.720964 -7.422553 0
M  V30 64 H 12.289926 7.442046 -8.169568 0
M  V30 65 H 11.980605 8.498934 -9.517683 0
M  V30 66 H 8.727589 3.256815 -15.802993 0
M  V30 67 H 9.300350 1.622261 -15.850515 0
M  V30 68 H 7.815022 2.000177 -17.749449 0
M  V30 69 H 6.497188 2.531629 -16.728388 0
M  V30 70 H 6.169380 -2.110640 -16.885061 0
M  V30 71 H 6.386599 -4.317992 -17.682789 0
M  V30 72 H 4.885948 -3.984368 -16.829802 0
M  V30 73 H 5.002788 -5.374309 -17.883686 0
M  V30 74 H 2.910981 -3.183812 -20.002512 0
M  V30 75 H 2.992296 -4.680992 -19.095718 0
M  V30 76 H 2.782211 -3.154710 -18.252989 0
M  V30 77 H 6.577094 -3.944974 -20.189066 0
M  V30 78 H 5.268087 -5.106635 -20.364279 0
M  V30 79 H 5.157959 -3.540257 -21.142618 0
M  V30 80 H 4.342150 -1.523569 -20.636393 0
M  V30 END ATOM
M  V30 BEGIN BOND
M  V30 1 1 2 1
M  V30 2 2 3 2
M  V30 3 1 4 3
M  V30 4 1 5 4
M  V30 5 1 6 5
M  V30 6 1 7 6
M  V30 7 1 8 7
M  V30 8 1 9 8
M  V30 9 1 10 9
M  V30 10 1 11 10
M  V30 11 1 12 11
M  V30 12 1 13 12
M  V30 13 1 14 13
M  V30 14 2 15 14
M  V30 15 1 16 14
M  V30 16 1 17 16
M  V30 17 1 18 17
M  V30 18 1 19 18
M  V30 19 1 20 19
M  V30 20 2 21 20
M  V30 21 1 22 21
M  V30 22 2 23 22
M  V30 23 1 24 23
M  V30 24 1 25 20
M  V30 25 2 25 24
M  V30 26 1 26 19
M  V30 27 1 27 16
M  V30 28 1 27 26
M  V30 29 1 28 8
M  V30 30 1 29 5
M  V30 31 1 29 28
M  V30 32 2 30 4
M  V30 33 1 31 30
M  V30 34 1 32 31
M  V30 35 1 33 32
M  V30 36 1 34 32
M  V30 37 1 35 32
M  V30 38 1 36 2
M  V30 39 2 36 31
M  V30 40 1 37 1
M  V30 41 1 38 1
M  V30 42 1 39 1
M  V30 43 1 40 6
M  V30 44 1 41 6
M  V30 45 1 42 7
M  V30 46 1 43 7
M  V30 47 1 44 9
M  V30 48 1 45 9
M  V30 49 1 46 10
M  V30 50 1 47 10
M  V30 51 1 48 11
M  V30 52 1 49 11
M  V30 53 1 50 12
M  V30 54 1 51 12
M  V30 55 1 52 13
M  V30 56 1 53 17
M  V30 57 1 54 17
M  V30 58 1 55 18
M  V30 59 1 56 18
M  V30 60 1 57 21
M  V30 61 1 58 22
M  V30 62 1 59 23
M  V30 63 1 60 24
M  V30 64 1 61 25
M  V30 65 1 62 26
M  V30 66 1 63 26
M  V30 67 1 64 27
M  V30 68 1 65 27
M  V30 69 1 66 28
M  V30 70 1 67 28
M  V30 71 1 68 29
M  V30 72 1 69 29
M  V30 73 1 70 30
M  V30 74 1 71 33
M  V30 75 1 72 33
M  V30 76 1 73 33
M  V30 77 1 74 34
M  V30 78 1 75 34
M  V30 79 1 76 34
M  V30 80 1 77 35
M  V30 81 1 78 35
M  V30 82 1 79 35
M  V30 83 1 80 36
M  V30 END BOND
M  V30 END CTAB
M  END
>  <b_m_subgroup_collapsed>  (1680) 
0

>  <r_i_docking_score>  (1680) 
-6.8233898388616003

>  <s_m_subgroup_title>  (1680) 
glide-dock_SP_D22_pv

>  <s_m_subgroupid>  (1680) 
glide-dock_SP_D22_pv

>  <Molecule ChEMBL ID>  (1680) 
CHEMBL5757857

>  <Standard Type>  (1680) 
Ki

>  <Standard Value>  (1680) 
12888.0

>  <label>  (1680) 
0

$$$$
CHEMBL4870307
     RDKit          3D

  0  0  0  0  0  0  0  0  0  0999 V3000
M  V30 BEGIN CTAB
M  V30 COUNTS 73 77 0 0 1
M  V30 BEGIN ATOM
M  V30 1 C 12.596642 7.939240 -14.084264 0
M  V30 2 O 12.280256 6.561776 -14.122690 0
M  V30 3 C 11.294686 6.085858 -13.285452 0
M  V30 4 C 10.635439 6.863104 -12.299158 0
M  V30 5 C 9.628454 6.290914 -11.495255 0
M  V30 6 C 8.927427 7.116956 -10.434223 0
M  V30 7 N 9.836289 7.468618 -9.318122 0 CHG=1
M  V30 8 C 9.370700 8.658978 -8.564872 0
M  V30 9 C 10.425252 9.089528 -7.534727 0
M  V30 10 C 10.722160 7.947453 -6.556620 0
M  V30 11 C 11.177073 6.721638 -7.354371 0
M  V30 12 C 10.125407 6.327213 -8.409782 0
M  V30 13 C 9.265443 4.946167 -11.681666 0
M  V30 14 C 9.919470 4.168615 -12.651725 0
M  V30 15 C 10.950010 4.727720 -13.446932 0
M  V30 16 O 11.685782 4.019907 -14.377486 0
M  V30 17 C 11.204290 2.767057 -14.834642 0
M  V30 18 C 10.040953 2.988622 -15.813095 0
M  V30 19 C 9.226391 1.712594 -16.050768 0
M  V30 20 N 8.330448 1.392720 -14.905933 0 CFG=2 CHG=1
M  V30 21 C 8.085903 -0.075124 -14.822316 0
M  V30 22 C 7.095078 -0.449602 -13.713380 0
M  V30 23 C 5.786461 0.328431 -13.810963 0 CFG=2
M  V30 24 C 4.852323 -0.229655 -14.873964 0
M  V30 25 N 3.750907 -0.820600 -14.419967 0
M  V30 26 O 3.105587 -1.427375 -15.524588 0
M  V30 27 C 3.814153 -1.191373 -16.683596 0
M  V30 28 C 3.595026 -1.624782 -18.001144 0
M  V30 29 C 4.491467 -1.195524 -18.995262 0
M  V30 30 F 4.321914 -1.591640 -20.277912 0
M  V30 31 C 5.570946 -0.352820 -18.652792 0
M  V30 32 C 5.781410 0.048167 -17.315109 0
M  V30 33 C 4.895283 -0.391047 -16.297777 0
M  V30 34 C 6.072834 1.834855 -13.822441 0
M  V30 35 C 7.102015 2.252485 -14.882694 0
M  V30 36 H 13.287683 8.171437 -14.892049 0
M  V30 37 H 11.712430 8.549091 -14.247057 0
M  V30 38 H 13.069950 8.210867 -13.139842 0
M  V30 39 H 10.891656 7.898030 -12.143692 0
M  V30 40 H 8.529826 8.010854 -10.918285 0
M  V30 41 H 8.086107 6.557496 -10.031839 0
M  V30 42 H 9.178207 9.479542 -9.256390 0
M  V30 43 H 8.427058 8.433571 -8.064703 0
M  V30 44 H 11.342170 9.383735 -8.046727 0
M  V30 45 H 10.088721 9.969748 -6.997331 0
M  V30 46 H 11.491356 8.247516 -5.844655 0
M  V30 47 H 9.832393 7.706264 -5.972517 0
M  V30 48 H 12.116823 6.972293 -7.846787 0
M  V30 49 H 11.378317 5.884948 -6.684060 0
M  V30 50 H 9.203876 6.008536 -7.918684 0
M  V30 51 H 10.486568 5.472847 -8.982944 0
M  V30 52 H 8.491322 4.500011 -11.073748 0
M  V30 53 H 9.629712 3.134758 -12.733880 0
M  V30 54 H 12.016215 2.269751 -15.366748 0
M  V30 55 H 10.951706 2.100209 -14.010304 0
M  V30 56 H 9.393871 3.798243 -15.478315 0
M  V30 57 H 10.457210 3.333328 -16.760895 0
M  V30 58 H 8.636193 1.815020 -16.961742 0
M  V30 59 H 9.921213 0.891925 -16.237474 0
M  V30 60 H 7.753328 -0.481673 -15.770579 0
M  V30 61 H 9.038165 -0.577880 -14.647008 0
M  V30 62 H 6.886279 -1.520552 -13.712998 0
M  V30 63 H 7.550122 -0.227736 -12.752265 0
M  V30 64 H 5.294618 0.163382 -12.850149 0
M  V30 65 H 2.765914 -2.271830 -18.247658 0
M  V30 66 H 6.249439 -0.026323 -19.427265 0
M  V30 67 H 6.624917 0.677838 -17.119894 0
M  V30 68 H 5.153460 2.414060 -13.863192 0
M  V30 69 H 6.485955 2.111656 -12.856929 0
M  V30 70 H 7.397976 3.278472 -14.656982 0
M  V30 71 H 6.619942 2.300917 -15.855820 0
M  V30 72 H 10.711222 7.734531 -9.746194 0
M  V30 73 H 8.845013 1.609552 -14.063277 0
M  V30 END ATOM
M  V30 BEGIN BOND
M  V30 1 1 2 1
M  V30 2 1 3 2
M  V30 3 1 4 3
M  V30 4 2 5 4
M  V30 5 1 6 5
M  V30 6 1 7 6
M  V30 7 1 8 7
M  V30 8 1 9 8
M  V30 9 1 10 9
M  V30 10 1 11 10
M  V30 11 1 12 7
M  V30 12 1 12 11
M  V30 13 1 13 5
M  V30 14 2 14 13
M  V30 15 2 15 3
M  V30 16 1 15 14
M  V30 17 1 16 15
M  V30 18 1 17 16
M  V30 19 1 18 17
M  V30 20 1 19 18
M  V30 21 1 20 19
M  V30 22 1 21 20
M  V30 23 1 22 21
M  V30 24 1 23 22
M  V30 25 1 24 23
M  V30 26 2 25 24
M  V30 27 1 26 25
M  V30 28 1 27 26
M  V30 29 1 28 27
M  V30 30 2 29 28
M  V30 31 1 30 29
M  V30 32 1 31 29
M  V30 33 2 32 31
M  V30 34 1 33 24
M  V30 35 2 33 27
M  V30 36 1 33 32
M  V30 37 1 34 23
M  V30 38 1 35 20
M  V30 39 1 35 34
M  V30 40 1 36 1
M  V30 41 1 37 1
M  V30 42 1 38 1
M  V30 43 1 39 4
M  V30 44 1 40 6
M  V30 45 1 41 6
M  V30 46 1 42 8
M  V30 47 1 43 8
M  V30 48 1 44 9
M  V30 49 1 45 9
M  V30 50 1 46 10
M  V30 51 1 47 10
M  V30 52 1 48 11
M  V30 53 1 49 11
M  V30 54 1 50 12
M  V30 55 1 51 12
M  V30 56 1 52 13
M  V30 57 1 53 14
M  V30 58 1 54 17
M  V30 59 1 55 17
M  V30 60 1 56 18
M  V30 61 1 57 18
M  V30 62 1 58 19
M  V30 63 1 59 19
M  V30 64 1 60 21
M  V30 65 1 61 21
M  V30 66 1 62 22
M  V30 67 1 63 22
M  V30 68 1 23 64 CFG=1
M  V30 69 1 65 28
M  V30 70 1 66 31
M  V30 71 1 67 32
M  V30 72 1 68 34
M  V30 73 1 69 34
M  V30 74 1 70 35
M  V30 75 1 71 35
M  V30 76 1 72 7
M  V30 77 1 20 73 CFG=1
M  V30 END BOND
M  V30 END CTAB
M  END
>  <b_m_subgroup_collapsed>  (1681) 
0

>  <r_i_docking_score>  (1681) 
-6.8223993900287603

>  <s_m_subgroup_title>  (1681) 
glide-dock_SP_D22_pv

>  <s_m_subgroupid>  (1681) 
glide-dock_SP_D22_pv

>  <Molecule ChEMBL ID>  (1681) 
CHEMBL4870307

>  <Standard Type>  (1681) 
Ki

>  <Standard Value>  (1681) 
9.5

>  <label>  (1681) 
1

$$$$
CHEMBL4862301
     RDKit          3D

  0  0  0  0  0  0  0  0  0  0999 V3000
M  V30 BEGIN CTAB
M  V30 COUNTS 60 63 0 0 1
M  V30 BEGIN ATOM
M  V30 1 C 12.885991 7.820859 -15.477916 0
M  V30 2 O 12.085990 7.277826 -14.436488 0
M  V30 3 C 11.718040 5.948940 -14.513615 0
M  V30 4 C 12.079432 5.110213 -15.599622 0
M  V30 5 C 11.688379 3.761581 -15.630267 0
M  V30 6 C 10.934792 3.228969 -14.573387 0
M  V30 7 C 10.573689 4.048744 -13.490775 0
M  V30 8 C 10.948341 5.413803 -13.446979 0
M  V30 9 C 10.569530 6.301884 -12.275906 0 CFG=2
M  V30 10 C 9.959542 5.772294 -10.992965 0
M  V30 11 C 9.135807 6.641228 -11.913070 0 CFG=2
M  V30 12 C 7.953009 6.069855 -12.663555 0
M  V30 13 N 6.849905 5.772324 -11.727365 0 CHG=1
M  V30 14 C 5.765791 4.912292 -12.246063 0
M  V30 15 C 6.185835 3.434959 -12.225978 0
M  V30 16 C 5.196003 2.489463 -12.918711 0
M  V30 17 C 5.439921 0.999460 -12.597174 0
M  V30 18 O 4.648340 0.137298 -13.407806 0
M  V30 19 C 5.070417 -0.148461 -14.690112 0
M  V30 20 C 6.231409 0.406562 -15.292352 0
M  V30 21 C 6.543516 0.134131 -16.636602 0
M  V30 22 C 5.716684 -0.718380 -17.388866 0
M  V30 23 C 4.588094 -1.316042 -16.784464 0
M  V30 24 C 4.266937 -1.027305 -15.444912 0
M  V30 25 N 3.794789 -2.227561 -17.521864 0
M  V30 26 C 3.875419 -2.386602 -18.852604 0
M  V30 27 O 3.286033 -3.285240 -19.446878 0
M  V30 28 C 4.754904 -1.395632 -19.625376 0
M  V30 29 C 6.031234 -1.042843 -18.837984 0
M  V30 30 H 13.099023 8.868373 -15.262798 0
M  V30 31 H 13.840137 7.297552 -15.557756 0
M  V30 32 H 12.370576 7.781451 -16.438488 0
M  V30 33 H 12.663334 5.476975 -16.429403 0
M  V30 34 H 11.975716 3.134476 -16.461174 0
M  V30 35 H 10.641810 2.189303 -14.584933 0
M  V30 36 H 10.008491 3.595687 -12.691775 0
M  V30 37 H 11.312258 7.084288 -12.135231 0
M  V30 38 H 9.683036 4.724312 -10.912566 0
M  V30 39 H 10.280595 6.228013 -10.058880 0
M  V30 40 H 8.959214 7.649152 -11.540090 0
M  V30 41 H 7.661746 6.790429 -13.425208 0
M  V30 42 H 8.241819 5.169186 -13.194155 0
M  V30 43 H 7.236820 5.294637 -10.925242 0
M  V30 44 H 4.903195 5.015600 -11.582815 0
M  V30 45 H 5.465270 5.237657 -13.242902 0
M  V30 46 H 7.151006 3.331563 -12.717778 0
M  V30 47 H 6.329512 3.133456 -11.188767 0
M  V30 48 H 4.171184 2.740465 -12.646876 0
M  V30 49 H 5.286092 2.665659 -13.987210 0
M  V30 50 H 6.485837 0.717469 -12.669457 0
M  V30 51 H 5.175944 0.813834 -11.556028 0
M  V30 52 H 6.886174 1.076581 -14.758839 0
M  V30 53 H 7.419886 0.577043 -17.086746 0
M  V30 54 H 3.390746 -1.470642 -14.995401 0
M  V30 55 H 3.224037 -2.894033 -17.001179 0
M  V30 56 H 5.006343 -1.797892 -20.607916 0
M  V30 57 H 4.162429 -0.495433 -19.794762 0
M  V30 58 H 6.535159 -0.196236 -19.304958 0
M  V30 59 H 6.729192 -1.880617 -18.858307 0
M  V30 60 H 6.486331 6.656188 -11.350017 0
M  V30 END ATOM
M  V30 BEGIN BOND
M  V30 1 1 2 1
M  V30 2 1 3 2
M  V30 3 2 4 3
M  V30 4 1 5 4
M  V30 5 2 6 5
M  V30 6 1 7 6
M  V30 7 1 8 3
M  V30 8 2 8 7
M  V30 9 1 9 8
M  V30 10 1 10 9
M  V30 11 1 11 9
M  V30 12 1 11 10
M  V30 13 1 12 11
M  V30 14 1 13 12
M  V30 15 1 14 13
M  V30 16 1 15 14
M  V30 17 1 16 15
M  V30 18 1 17 16
M  V30 19 1 18 17
M  V30 20 1 19 18
M  V30 21 1 20 19
M  V30 22 2 21 20
M  V30 23 1 22 21
M  V30 24 2 23 22
M  V30 25 2 24 19
M  V30 26 1 24 23
M  V30 27 1 25 23
M  V30 28 1 26 25
M  V30 29 2 27 26
M  V30 30 1 28 26
M  V30 31 1 29 22
M  V30 32 1 29 28
M  V30 33 1 30 1
M  V30 34 1 31 1
M  V30 35 1 32 1
M  V30 36 1 33 4
M  V30 37 1 34 5
M  V30 38 1 35 6
M  V30 39 1 36 7
M  V30 40 1 9 37 CFG=1
M  V30 41 1 38 10
M  V30 42 1 39 10
M  V30 43 1 11 40 CFG=1
M  V30 44 1 41 12
M  V30 45 1 42 12
M  V30 46 1 43 13
M  V30 47 1 44 14
M  V30 48 1 45 14
M  V30 49 1 46 15
M  V30 50 1 47 15
M  V30 51 1 48 16
M  V30 52 1 49 16
M  V30 53 1 50 17
M  V30 54 1 51 17
M  V30 55 1 52 20
M  V30 56 1 53 21
M  V30 57 1 54 24
M  V30 58 1 55 25
M  V30 59 1 56 28
M  V30 60 1 57 28
M  V30 61 1 58 29
M  V30 62 1 59 29
M  V30 63 1 60 13
M  V30 END BOND
M  V30 END CTAB
M  END
>  <b_m_subgroup_collapsed>  (1682) 
0

>  <r_i_docking_score>  (1682) 
-6.8209034633155898

>  <s_m_subgroup_title>  (1682) 
glide-dock_SP_D22_pv

>  <s_m_subgroupid>  (1682) 
glide-dock_SP_D22_pv

>  <Molecule ChEMBL ID>  (1682) 
CHEMBL4862301

>  <Standard Type>  (1682) 
Ki

>  <Standard Value>  (1682) 
61.9

>  <label>  (1682) 
1

$$$$
CHEMBL201739
     RDKit          3D

  0  0  0  0  0  0  0  0  0  0999 V3000
M  V30 BEGIN CTAB
M  V30 COUNTS 36 40 0 0 1
M  V30 BEGIN ATOM
M  V30 1 C 10.905446 8.365855 -7.047412 0
M  V30 2 C 9.625959 7.844117 -7.363098 0
M  V30 3 C 9.286758 7.527096 -8.699269 0
M  V30 4 C 10.254032 7.754013 -9.694271 0
M  V30 5 C 11.511461 8.251612 -9.380704 0
M  V30 6 C 11.870766 8.572168 -8.060734 0
M  V30 7 C 12.325632 8.344662 -10.646632 0
M  V30 8 N 11.624276 7.372375 -11.485173 0
M  V30 9 C 11.913199 7.193603 -12.911005 0
M  V30 10 C 11.262052 5.855668 -13.378940 0
M  V30 11 C 9.869098 5.691485 -12.819751 0
M  V30 12 C 9.409312 6.470023 -11.793859 0
M  V30 13 N 8.086012 6.172266 -11.541666 0
M  V30 14 C 7.673126 5.131904 -12.357030 0
M  V30 15 C 6.443555 4.459897 -12.484394 0
M  V30 16 C 6.312332 3.428918 -13.434443 0
M  V30 17 C 7.409328 3.073869 -14.244403 0
M  V30 18 C 8.636678 3.757459 -14.115966 0
M  V30 19 C 8.798570 4.801606 -13.174816 0
M  V30 20 C 10.201700 7.578095 -11.191792 0 CFG=1
M  V30 21 H 11.147861 8.599092 -6.020817 0
M  V30 22 H 8.897304 7.686162 -6.580562 0
M  V30 23 H 8.316353 7.123430 -8.940334 0
M  V30 24 H 12.851945 8.961857 -7.829875 0
M  V30 25 H 12.258822 9.356076 -11.046780 0
M  V30 26 H 13.372943 8.097699 -10.485081 0
M  V30 27 H 11.502051 8.019360 -13.489988 0
M  V30 28 H 12.987206 7.177877 -13.090352 0
M  V30 29 H 11.248025 5.810946 -14.468029 0
M  V30 30 H 11.881096 5.021512 -13.048254 0
M  V30 31 H 7.490607 6.721245 -10.909673 0
M  V30 32 H 5.613726 4.733057 -11.849355 0
M  V30 33 H 5.373513 2.904224 -13.535337 0
M  V30 34 H 7.308193 2.278217 -14.967828 0
M  V30 35 H 9.469233 3.479406 -14.745229 0
M  V30 36 H 9.874425 8.523902 -11.628473 0
M  V30 END ATOM
M  V30 BEGIN BOND
M  V30 1 2 2 1
M  V30 2 1 3 2
M  V30 3 2 4 3
M  V30 4 1 5 4
M  V30 5 1 6 1
M  V30 6 2 6 5
M  V30 7 1 7 5
M  V30 8 1 8 7
M  V30 9 1 9 8
M  V30 10 1 10 9
M  V30 11 1 11 10
M  V30 12 2 12 11
M  V30 13 1 13 12
M  V30 14 1 14 13
M  V30 15 2 15 14
M  V30 16 1 16 15
M  V30 17 2 17 16
M  V30 18 1 18 17
M  V30 19 1 19 11
M  V30 20 1 19 14
M  V30 21 2 19 18
M  V30 22 1 20 4
M  V30 23 1 20 8
M  V30 24 1 20 12
M  V30 25 1 21 1
M  V30 26 1 22 2
M  V30 27 1 23 3
M  V30 28 1 24 6
M  V30 29 1 25 7
M  V30 30 1 26 7
M  V30 31 1 27 9
M  V30 32 1 28 9
M  V30 33 1 29 10
M  V30 34 1 30 10
M  V30 35 1 31 13
M  V30 36 1 32 15
M  V30 37 1 33 16
M  V30 38 1 34 17
M  V30 39 1 35 18
M  V30 40 1 20 36 CFG=3
M  V30 END BOND
M  V30 END CTAB
M  END
>  <b_m_subgroup_collapsed>  (1683) 
0

>  <r_i_docking_score>  (1683) 
-6.8193808569248997

>  <s_m_subgroup_title>  (1683) 
glide-dock_SP_D22_pv

>  <s_m_subgroupid>  (1683) 
glide-dock_SP_D22_pv

>  <Molecule ChEMBL ID>  (1683) 
CHEMBL201739

>  <Standard Type>  (1683) 
Ki

>  <Standard Value>  (1683) 
10000.0

>  <label>  (1683) 
0

$$$$
CHEMBL3234537
     RDKit          3D

  0  0  0  0  0  0  0  0  0  0999 V3000
M  V30 BEGIN CTAB
M  V30 COUNTS 50 53 0 0 1
M  V30 BEGIN ATOM
M  V30 1 C 9.856283 1.560181 -15.281436 0
M  V30 2 C 11.286108 2.132247 -15.361138 0
M  V30 3 N 11.373826 3.440249 -16.038029 0
M  V30 4 C 11.168593 3.506771 -17.385098 0
M  V30 5 O 10.942142 2.509556 -18.072424 0
M  V30 6 C 11.155935 4.850824 -18.072140 0
M  V30 7 C 10.046755 5.204206 -18.874176 0
M  V30 8 C 10.012335 6.441814 -19.547796 0
M  V30 9 C 11.098178 7.333293 -19.447950 0
M  V30 10 C 12.220210 6.986619 -18.671871 0
M  V30 11 C 12.247935 5.750812 -17.993650 0
M  V30 12 S 13.669417 5.356252 -16.926062 0
M  V30 13 O 14.594686 6.575871 -16.951138 0
M  V30 14 C 12.610353 5.533137 -15.462935 0
M  V30 15 C 12.766149 6.668314 -14.646818 0
M  V30 16 C 11.908155 6.868137 -13.549462 0
M  V30 17 C 10.884846 5.933390 -13.269470 0
M  V30 18 C 9.850833 6.187699 -12.205801 0
M  V30 19 O 8.759704 5.618994 -12.255589 0
M  V30 20 N 10.194201 7.037819 -11.225282 0
M  V30 21 C 9.273032 7.496294 -10.191302 0
M  V30 22 C 9.941431 7.835615 -8.870333 0
M  V30 23 C 9.288128 7.501582 -7.665926 0
M  V30 24 C 9.863923 7.845104 -6.429180 0
M  V30 25 C 11.083443 8.548442 -6.382637 0
M  V30 26 C 11.642172 8.963122 -5.104565 0
M  V30 27 N 12.083846 9.291557 -4.086491 0
M  V30 28 C 11.750672 8.860331 -7.583169 0
M  V30 29 C 11.181148 8.512946 -8.824410 0
M  V30 30 C 10.751614 4.792248 -14.089963 0
M  V30 31 C 11.589306 4.586709 -15.207326 0
M  V30 32 H 9.852468 0.630296 -14.712653 0
M  V30 33 H 9.167420 2.245240 -14.788059 0
M  V30 34 H 9.447714 1.336689 -16.268225 0
M  V30 35 H 11.938524 1.418917 -15.866331 0
M  V30 36 H 11.685827 2.213457 -14.349643 0
M  V30 37 H 9.206284 4.530825 -18.967495 0
M  V30 38 H 9.152364 6.708262 -20.144260 0
M  V30 39 H 11.068439 8.284026 -19.959423 0
M  V30 40 H 13.044131 7.678637 -18.585146 0
M  V30 41 H 13.535709 7.392521 -14.865801 0
M  V30 42 H 12.026650 7.764431 -12.959304 0
M  V30 43 H 11.120038 7.436993 -11.234519 0
M  V30 44 H 8.774560 8.393840 -10.556664 0
M  V30 45 H 8.487584 6.757951 -10.012087 0
M  V30 46 H 8.338646 6.984482 -7.684617 0
M  V30 47 H 9.351825 7.571401 -5.519528 0
M  V30 48 H 12.702337 9.372406 -7.559267 0
M  V30 49 H 11.696234 8.786627 -9.733335 0
M  V30 50 H 9.955684 4.092478 -13.883881 0
M  V30 END ATOM
M  V30 BEGIN BOND
M  V30 1 1 2 1
M  V30 2 1 3 2
M  V30 3 1 4 3
M  V30 4 2 5 4
M  V30 5 1 6 4
M  V30 6 2 7 6
M  V30 7 1 8 7
M  V30 8 2 9 8
M  V30 9 1 10 9
M  V30 10 1 11 6
M  V30 11 2 11 10
M  V30 12 1 12 11 CFG=1
M  V30 13 2 13 12
M  V30 14 1 14 12
M  V30 15 2 15 14
M  V30 16 1 16 15
M  V30 17 2 17 16
M  V30 18 1 18 17
M  V30 19 2 19 18
M  V30 20 1 20 18
M  V30 21 1 21 20
M  V30 22 1 22 21
M  V30 23 2 23 22
M  V30 24 1 24 23
M  V30 25 2 25 24
M  V30 26 1 26 25
M  V30 27 3 27 26
M  V30 28 1 28 25
M  V30 29 1 29 22
M  V30 30 2 29 28
M  V30 31 1 30 17
M  V30 32 1 31 3
M  V30 33 1 31 14
M  V30 34 2 31 30
M  V30 35 1 32 1
M  V30 36 1 33 1
M  V30 37 1 34 1
M  V30 38 1 35 2
M  V30 39 1 36 2
M  V30 40 1 37 7
M  V30 41 1 38 8
M  V30 42 1 39 9
M  V30 43 1 40 10
M  V30 44 1 41 15
M  V30 45 1 42 16
M  V30 46 1 43 20
M  V30 47 1 44 21
M  V30 48 1 45 21
M  V30 49 1 46 23
M  V30 50 1 47 24
M  V30 51 1 48 28
M  V30 52 1 49 29
M  V30 53 1 50 30
M  V30 END BOND
M  V30 END CTAB
M  END
>  <b_m_subgroup_collapsed>  (1684) 
0

>  <r_i_docking_score>  (1684) 
-6.8191553131250897

>  <s_m_subgroup_title>  (1684) 
glide-dock_SP_D22_pv

>  <s_m_subgroupid>  (1684) 
glide-dock_SP_D22_pv

>  <Molecule ChEMBL ID>  (1684) 
CHEMBL3234537

>  <Standard Type>  (1684) 
Ki

>  <Standard Value>  (1684) 
23.0

>  <label>  (1684) 
1

$$$$
CHEMBL5976926
     RDKit          3D

  0  0  0  0  0  0  0  0  0  0999 V3000
M  V30 BEGIN CTAB
M  V30 COUNTS 41 43 0 0 1
M  V30 BEGIN ATOM
M  V30 1 C 9.543914 5.139032 -12.927575 0
M  V30 2 C 8.561548 6.017715 -12.135332 0 CFG=1
M  V30 3 O 7.598913 6.478410 -13.045792 0
M  V30 4 C 7.812566 5.227730 -11.047382 0
M  V30 5 C 8.683473 4.973803 -9.806641 0
M  V30 6 N 9.240250 6.238260 -9.255148 0 CFG=1 CHG=1
M  V30 7 C 10.022628 5.979128 -8.016637 0
M  V30 8 C 9.973782 7.076269 -6.936301 0 CFG=2
M  V30 9 C 10.454987 8.469192 -7.393353 0
M  V30 10 O 10.487316 9.373721 -6.303137 0
M  V30 11 C 11.085595 8.877769 -5.173102 0
M  V30 12 C 11.469143 9.771269 -4.156370 0
M  V30 13 C 12.086093 9.289718 -2.986398 0
M  V30 14 C 12.305753 7.908916 -2.821170 0
M  V30 15 C 11.904519 7.007854 -3.825207 0
M  V30 16 C 11.286150 7.485044 -4.998221 0
M  V30 17 O 10.863094 6.578554 -5.939603 0
M  V30 18 C 10.054722 6.929137 -10.292097 0
M  V30 19 C 9.229178 7.269715 -11.534621 0
M  V30 20 H 10.330232 4.728216 -12.293641 0
M  V30 21 H 9.027101 4.300272 -13.395101 0
M  V30 22 H 10.026741 5.707005 -13.723369 0
M  V30 23 H 6.954158 6.972493 -12.552893 0
M  V30 24 H 6.922347 5.772182 -10.734696 0
M  V30 25 H 7.451714 4.278951 -11.446167 0
M  V30 26 H 8.085420 4.472898 -9.046329 0
M  V30 27 H 9.499212 4.294819 -10.054564 0
M  V30 28 H 9.643287 5.072316 -7.548970 0
M  V30 29 H 11.059025 5.768215 -8.273301 0
M  V30 30 H 8.966647 7.146918 -6.520107 0
M  V30 31 H 11.444817 8.414277 -7.849946 0
M  V30 32 H 9.769811 8.889118 -8.128647 0
M  V30 33 H 11.285859 10.829583 -4.278081 0
M  V30 34 H 12.382771 9.979854 -2.210153 0
M  V30 35 H 12.766835 7.540087 -1.915462 0
M  V30 36 H 12.056080 5.946615 -3.688567 0
M  V30 37 H 10.500159 7.847454 -9.918145 0
M  V30 38 H 10.885186 6.285627 -10.572563 0
M  V30 39 H 9.863958 7.755199 -12.276870 0
M  V30 40 H 8.486602 8.013252 -11.256399 0
M  V30 41 H 8.440043 6.821521 -9.029608 0
M  V30 END ATOM
M  V30 BEGIN BOND
M  V30 1 1 2 1
M  V30 2 1 2 3 CFG=3
M  V30 3 1 4 2
M  V30 4 1 5 4
M  V30 5 1 6 5
M  V30 6 1 7 6
M  V30 7 1 8 7
M  V30 8 1 9 8
M  V30 9 1 10 9
M  V30 10 1 11 10
M  V30 11 2 12 11
M  V30 12 1 13 12
M  V30 13 2 14 13
M  V30 14 1 15 14
M  V30 15 1 16 11
M  V30 16 2 16 15
M  V30 17 1 17 8
M  V30 18 1 17 16
M  V30 19 1 18 6
M  V30 20 1 19 2
M  V30 21 1 19 18
M  V30 22 1 20 1
M  V30 23 1 21 1
M  V30 24 1 22 1
M  V30 25 1 23 3
M  V30 26 1 24 4
M  V30 27 1 25 4
M  V30 28 1 26 5
M  V30 29 1 27 5
M  V30 30 1 28 7
M  V30 31 1 29 7
M  V30 32 1 8 30 CFG=1
M  V30 33 1 31 9
M  V30 34 1 32 9
M  V30 35 1 33 12
M  V30 36 1 34 13
M  V30 37 1 35 14
M  V30 38 1 36 15
M  V30 39 1 37 18
M  V30 40 1 38 18
M  V30 41 1 39 19
M  V30 42 1 40 19
M  V30 43 1 6 41 CFG=1
M  V30 END BOND
M  V30 END CTAB
M  END
>  <b_m_subgroup_collapsed>  (1685) 
0

>  <r_i_docking_score>  (1685) 
-6.8181151776358497

>  <s_m_subgroup_title>  (1685) 
glide-dock_SP_D22_pv

>  <s_m_subgroupid>  (1685) 
glide-dock_SP_D22_pv

>  <Molecule ChEMBL ID>  (1685) 
CHEMBL5976926

>  <Standard Type>  (1685) 
Ki

>  <Standard Value>  (1685) 
20000.0

>  <label>  (1685) 
0

$$$$
CHEMBL157035
     RDKit          3D

  0  0  0  0  0  0  0  0  0  0999 V3000
M  V30 BEGIN CTAB
M  V30 COUNTS 67 70 0 0 1
M  V30 BEGIN ATOM
M  V30 1 C 11.295967 6.059601 -16.794462 0
M  V30 2 C 11.408875 5.289240 -15.853932 0
M  V30 3 C 11.545392 4.348698 -14.720490 0
M  V30 4 N 10.277625 3.861847 -14.153726 0
M  V30 5 C 9.557057 4.959469 -13.486705 0
M  V30 6 C 9.200147 4.631219 -12.021690 0
M  V30 7 C 8.466393 5.784150 -11.319132 0
M  V30 8 C 9.401095 6.887672 -10.787800 0
M  V30 9 N 9.880677 6.630828 -9.402642 0 CHG=1
M  V30 10 C 11.175871 7.315031 -9.136722 0
M  V30 11 C 11.668616 7.108144 -7.690546 0
M  V30 12 N 10.610660 7.421525 -6.769712 0
M  V30 13 C 10.886015 8.309222 -5.735831 0
M  V30 14 C 10.628453 9.666450 -5.940809 0
M  V30 15 C 10.886050 10.572552 -4.907991 0
M  V30 16 C 11.450186 10.147991 -3.693462 0
M  V30 17 C 11.755560 8.799572 -3.498638 0
M  V30 18 Cl 12.485968 8.307074 -2.014017 0
M  V30 19 C 11.446118 7.879389 -4.515542 0
M  V30 20 Cl 11.686023 6.218354 -4.230219 0
M  V30 21 C 9.305077 6.819992 -6.934361 0
M  V30 22 C 8.835235 6.955405 -8.390474 0
M  V30 23 C 9.412989 3.076938 -15.068111 0 CFG=1
M  V30 24 C 10.160487 2.068944 -15.971914 0
M  V30 25 C 9.198854 1.383966 -16.958715 0
M  V30 26 C 7.937802 0.843590 -16.304962 0
M  V30 27 C 7.140545 -0.095527 -16.994339 0
M  V30 28 C 5.982028 -0.627577 -16.392673 0
M  V30 29 C 5.615294 -0.227038 -15.092941 0
M  V30 30 O 4.496239 -0.739301 -14.499982 0
M  V30 31 C 6.399498 0.722024 -14.408926 0
M  V30 32 C 7.551124 1.270688 -15.014462 0
M  V30 33 C 8.364077 2.298202 -14.245408 0
M  V30 34 H 11.202007 6.730255 -17.618475 0
M  V30 35 H 12.169049 3.512848 -15.036366 0
M  V30 36 H 12.116750 4.856305 -13.942621 0
M  V30 37 H 10.165249 5.863850 -13.478474 0
M  V30 38 H 8.661873 5.225188 -14.049808 0
M  V30 39 H 8.541566 3.772079 -11.979448 0
M  V30 40 H 10.086093 4.343535 -11.458722 0
M  V30 41 H 7.757377 6.225751 -12.021082 0
M  V30 42 H 7.841669 5.383877 -10.521357 0
M  V30 43 H 10.246102 6.997491 -11.468837 0
M  V30 44 H 8.884962 7.848937 -10.812599 0
M  V30 45 H 11.931741 6.973148 -9.844369 0
M  V30 46 H 11.045398 8.384231 -9.317003 0
M  V30 47 H 11.975259 6.090106 -7.446857 0
M  V30 48 H 12.516778 7.760972 -7.498576 0
M  V30 49 H 10.222072 10.003441 -6.882626 0
M  V30 50 H 10.687700 11.618280 -5.046819 0
M  V30 51 H 11.685728 10.861632 -2.916772 0
M  V30 52 H 9.378811 5.772233 -6.656663 0
M  V30 53 H 8.579696 7.276187 -6.259146 0
M  V30 54 H 8.485929 7.976897 -8.549314 0
M  V30 55 H 7.990880 6.286534 -8.534195 0
M  V30 56 H 8.895336 3.772864 -15.730191 0
M  V30 57 H 10.944530 2.541484 -16.560535 0
M  V30 58 H 10.648824 1.317243 -15.348951 0
M  V30 59 H 9.717402 0.572312 -17.471876 0
M  V30 60 H 8.896823 2.097821 -17.726179 0
M  V30 61 H 7.422738 -0.424374 -17.983585 0
M  V30 62 H 5.387921 -1.354534 -16.928102 0
M  V30 63 H 4.049118 -1.368278 -15.047405 0
M  V30 64 H 6.110823 1.037233 -13.417286 0
M  V30 65 H 8.881639 1.766088 -13.447104 0
M  V30 66 H 7.649976 2.983944 -13.791656 0
M  V30 67 H 10.062604 5.640539 -9.324512 0
M  V30 END ATOM
M  V30 BEGIN BOND
M  V30 1 3 2 1
M  V30 2 1 3 2
M  V30 3 1 4 3
M  V30 4 1 5 4
M  V30 5 1 6 5
M  V30 6 1 7 6
M  V30 7 1 8 7
M  V30 8 1 9 8
M  V30 9 1 10 9
M  V30 10 1 11 10
M  V30 11 1 12 11
M  V30 12 1 13 12
M  V30 13 2 14 13
M  V30 14 1 15 14
M  V30 15 2 16 15
M  V30 16 1 17 16
M  V30 17 1 18 17
M  V30 18 1 19 13
M  V30 19 2 19 17
M  V30 20 1 20 19
M  V30 21 1 21 12
M  V30 22 1 22 9
M  V30 23 1 22 21
M  V30 24 1 23 4
M  V30 25 1 24 23
M  V30 26 1 25 24
M  V30 27 1 26 25
M  V30 28 1 27 26
M  V30 29 2 28 27
M  V30 30 1 29 28
M  V30 31 1 30 29
M  V30 32 2 31 29
M  V30 33 2 32 26
M  V30 34 1 32 31
M  V30 35 1 33 23
M  V30 36 1 33 32
M  V30 37 1 34 1
M  V30 38 1 35 3
M  V30 39 1 36 3
M  V30 40 1 37 5
M  V30 41 1 38 5
M  V30 42 1 39 6
M  V30 43 1 40 6
M  V30 44 1 41 7
M  V30 45 1 42 7
M  V30 46 1 43 8
M  V30 47 1 44 8
M  V30 48 1 45 10
M  V30 49 1 46 10
M  V30 50 1 47 11
M  V30 51 1 48 11
M  V30 52 1 49 14
M  V30 53 1 50 15
M  V30 54 1 51 16
M  V30 55 1 52 21
M  V30 56 1 53 21
M  V30 57 1 54 22
M  V30 58 1 55 22
M  V30 59 1 23 56 CFG=3
M  V30 60 1 57 24
M  V30 61 1 58 24
M  V30 62 1 59 25
M  V30 63 1 60 25
M  V30 64 1 61 27
M  V30 65 1 62 28
M  V30 66 1 63 30
M  V30 67 1 64 31
M  V30 68 1 65 33
M  V30 69 1 66 33
M  V30 70 1 67 9
M  V30 END BOND
M  V30 END CTAB
M  END
>  <b_m_subgroup_collapsed>  (1686) 
0

>  <r_i_docking_score>  (1686) 
-6.8153856004915596

>  <s_m_subgroup_title>  (1686) 
glide-dock_SP_D22_pv

>  <s_m_subgroupid>  (1686) 
glide-dock_SP_D22_pv

>  <Molecule ChEMBL ID>  (1686) 
CHEMBL157035

>  <Standard Type>  (1686) 
Ki

>  <Standard Value>  (1686) 
7.37

>  <label>  (1686) 
1

$$$$
CHEMBL26751
     RDKit          3D

  0  0  0  0  0  0  0  0  0  0999 V3000
M  V30 BEGIN CTAB
M  V30 COUNTS 38 42 0 0 1
M  V30 BEGIN ATOM
M  V30 1 C 9.556583 0.531795 -16.253187 0
M  V30 2 N 9.111032 1.015870 -14.924899 0 CFG=2 CHG=1
M  V30 3 C 7.817813 0.397991 -14.502167 0
M  V30 4 C 6.600632 1.316307 -14.708145 0
M  V30 5 C 6.746112 2.608047 -13.930490 0
M  V30 6 C 5.786253 3.352294 -13.191283 0
M  V30 7 C 6.143154 4.577035 -12.550441 0
M  V30 8 C 7.475947 5.046895 -12.627489 0
M  V30 9 C 8.408601 4.278796 -13.316154 0
M  V30 10 C 8.055705 3.102982 -13.968050 0
M  V30 11 C 9.215693 2.504198 -14.781472 0 CFG=1
M  V30 12 C 10.651780 2.895925 -14.313531 0
M  V30 13 C 10.846711 4.344117 -13.872702 0
M  V30 14 C 12.011933 5.142674 -13.846869 0
M  V30 15 C 11.983521 6.426440 -13.235415 0
M  V30 16 C 10.809096 6.912465 -12.602262 0
M  V30 17 C 9.639030 6.126442 -12.646864 0
M  V30 18 C 9.704216 4.899168 -13.297704 0
M  V30 19 C 8.199927 6.303414 -12.153158 0 CFG=1
M  V30 20 O 7.596076 7.483323 -12.646420 0
M  V30 21 H 8.856571 0.836590 -17.032167 0
M  V30 22 H 9.624920 -0.557383 -16.262463 0
M  V30 23 H 10.542288 0.923395 -16.504906 0
M  V30 24 H 7.659476 -0.559333 -15.003049 0
M  V30 25 H 7.899533 0.162506 -13.442586 0
M  V30 26 H 6.485975 1.550865 -15.767321 0
M  V30 27 H 5.688426 0.809000 -14.392128 0
M  V30 28 H 4.766811 2.998840 -13.125468 0
M  V30 29 H 5.405061 5.148866 -12.008324 0
M  V30 30 H 9.067685 2.948712 -15.767535 0
M  V30 31 H 10.909581 2.285192 -13.446894 0
M  V30 32 H 11.387991 2.655691 -15.081830 0
M  V30 33 H 12.934645 4.770957 -14.266787 0
M  V30 34 H 12.884809 7.023327 -13.216957 0
M  V30 35 H 10.793908 7.874010 -12.113119 0
M  V30 36 H 8.201072 6.331388 -11.062014 0
M  V30 37 H 6.972201 7.763497 -11.977947 0
M  V30 38 H 9.779422 0.648179 -14.262216 0
M  V30 END ATOM
M  V30 BEGIN BOND
M  V30 1 1 2 1
M  V30 2 1 3 2
M  V30 3 1 4 3
M  V30 4 1 5 4
M  V30 5 1 6 5
M  V30 6 2 7 6
M  V30 7 1 8 7
M  V30 8 2 9 8
M  V30 9 2 10 5
M  V30 10 1 10 9
M  V30 11 1 11 2
M  V30 12 1 11 10
M  V30 13 1 12 11
M  V30 14 1 13 12
M  V30 15 1 14 13
M  V30 16 2 15 14
M  V30 17 1 16 15
M  V30 18 2 17 16
M  V30 19 1 18 9
M  V30 20 2 18 13
M  V30 21 1 18 17
M  V30 22 1 19 8
M  V30 23 1 19 17
M  V30 24 1 20 19
M  V30 25 1 21 1
M  V30 26 1 22 1
M  V30 27 1 23 1
M  V30 28 1 24 3
M  V30 29 1 25 3
M  V30 30 1 26 4
M  V30 31 1 27 4
M  V30 32 1 28 6
M  V30 33 1 29 7
M  V30 34 1 11 30 CFG=3
M  V30 35 1 31 12
M  V30 36 1 32 12
M  V30 37 1 33 14
M  V30 38 1 34 15
M  V30 39 1 35 16
M  V30 40 1 19 36 CFG=1
M  V30 41 1 37 20
M  V30 42 1 2 38 CFG=1
M  V30 END BOND
M  V30 END CTAB
M  END
>  <b_m_subgroup_collapsed>  (1687) 
0

>  <r_i_docking_score>  (1687) 
-6.8151900263029299

>  <s_m_subgroup_title>  (1687) 
glide-dock_SP_D22_pv

>  <s_m_subgroupid>  (1687) 
glide-dock_SP_D22_pv

>  <Molecule ChEMBL ID>  (1687) 
CHEMBL26751

>  <Standard Type>  (1687) 
Ki

>  <Standard Value>  (1687) 
23.8

>  <label>  (1687) 
1

$$$$
CHEMBL4096422
     RDKit          3D

  0  0  0  0  0  0  0  0  0  0999 V3000
M  V30 BEGIN CTAB
M  V30 COUNTS 59 63 0 0 1
M  V30 BEGIN ATOM
M  V30 1 C 11.476177 2.188924 -16.251570 0
M  V30 2 N 10.861219 3.400101 -15.710391 0
M  V30 3 C 11.874017 4.079187 -14.891800 0
M  V30 4 C 11.844043 5.613467 -15.040433 0
M  V30 5 C 12.553929 6.295465 -13.862782 0
M  V30 6 C 11.755907 7.372867 -13.128426 0
M  V30 7 O 10.635832 6.812690 -12.446777 0
M  V30 8 C 10.486339 6.970520 -11.082736 0
M  V30 9 C 9.664484 6.025268 -10.434559 0
M  V30 10 C 9.486816 6.038533 -9.039299 0
M  V30 11 C 10.143264 7.011443 -8.265573 0
M  V30 12 C 10.943402 7.985946 -8.898039 0
M  V30 13 C 11.111861 7.974289 -10.298580 0
M  V30 14 N 11.599338 8.971760 -8.123916 0
M  V30 15 C 11.325476 9.233067 -6.834754 0
M  V30 16 O 11.897839 10.126613 -6.217367 0
M  V30 17 C 10.227229 8.413159 -6.148138 0
M  V30 18 C 10.044206 7.006671 -6.750946 0
M  V30 19 C 9.663992 3.092142 -14.898497 0 CFG=2
M  V30 20 C 8.657116 2.121134 -15.583704 0
M  V30 21 C 7.436234 1.837044 -14.720069 0
M  V30 22 C 6.669635 0.660211 -14.556419 0
M  V30 23 C 5.595542 0.640679 -13.622764 0
M  V30 24 C 5.267027 1.790231 -12.853054 0
M  V30 25 C 6.000432 2.971427 -13.044400 0
M  V30 26 N 6.000055 4.225103 -12.437382 0
M  V30 27 C 7.024082 4.939084 -12.937016 0
M  V30 28 O 7.312522 6.094454 -12.646539 0
M  V30 29 N 7.679821 4.149799 -13.818312 0
M  V30 30 C 7.040899 2.919129 -13.932673 0
M  V30 31 C 8.955589 4.404603 -14.460556 0
M  V30 32 H 10.835383 1.719146 -16.997274 0
M  V30 33 H 12.410839 2.419122 -16.764881 0
M  V30 34 H 11.685985 1.462779 -15.465038 0
M  V30 35 H 12.881615 3.767690 -15.170321 0
M  V30 36 H 11.763790 3.783312 -13.847379 0
M  V30 37 H 10.841614 6.016223 -15.146131 0
M  V30 38 H 12.339336 5.886713 -15.972622 0
M  V30 39 H 13.458998 6.762730 -14.248468 0
M  V30 40 H 12.885174 5.559676 -13.130809 0
M  V30 41 H 11.403114 8.113259 -13.846871 0
M  V30 42 H 12.460983 7.879246 -12.474041 0
M  V30 43 H 9.180199 5.257668 -11.016073 0
M  V30 44 H 8.859952 5.293091 -8.571737 0
M  V30 45 H 11.722123 8.744967 -10.743340 0
M  V30 46 H 12.295250 9.538976 -8.587790 0
M  V30 47 H 10.449281 8.339931 -5.083719 0
M  V30 48 H 9.295691 8.972088 -6.248255 0
M  V30 49 H 9.077859 6.600836 -6.450670 0
M  V30 50 H 10.805694 6.331551 -6.359962 0
M  V30 51 H 9.996999 2.579033 -13.993557 0
M  V30 52 H 8.323948 2.532159 -16.536764 0
M  V30 53 H 9.113942 1.154381 -15.791204 0
M  V30 54 H 6.911788 -0.229798 -15.118762 0
M  V30 55 H 5.031136 -0.269112 -13.487583 0
M  V30 56 H 4.486021 1.772103 -12.115703 0
M  V30 57 H 5.368590 4.517436 -11.704757 0
M  V30 58 H 9.567582 4.933116 -13.733026 0
M  V30 59 H 8.797915 5.066447 -15.311160 0
M  V30 END ATOM
M  V30 BEGIN BOND
M  V30 1 1 2 1
M  V30 2 1 3 2
M  V30 3 1 4 3
M  V30 4 1 5 4
M  V30 5 1 6 5
M  V30 6 1 7 6
M  V30 7 1 8 7
M  V30 8 1 9 8
M  V30 9 2 10 9
M  V30 10 1 11 10
M  V30 11 2 12 11
M  V30 12 2 13 8
M  V30 13 1 13 12
M  V30 14 1 14 12
M  V30 15 1 15 14
M  V30 16 2 16 15
M  V30 17 1 17 15
M  V30 18 1 18 11
M  V30 19 1 18 17
M  V30 20 1 19 2
M  V30 21 1 20 19
M  V30 22 1 21 20
M  V30 23 1 22 21
M  V30 24 2 23 22
M  V30 25 1 24 23
M  V30 26 2 25 24
M  V30 27 1 26 25
M  V30 28 1 27 26
M  V30 29 2 28 27
M  V30 30 1 29 27
M  V30 31 2 30 21
M  V30 32 1 30 25
M  V30 33 1 30 29
M  V30 34 1 31 19
M  V30 35 1 31 29
M  V30 36 1 32 1
M  V30 37 1 33 1
M  V30 38 1 34 1
M  V30 39 1 35 3
M  V30 40 1 36 3
M  V30 41 1 37 4
M  V30 42 1 38 4
M  V30 43 1 39 5
M  V30 44 1 40 5
M  V30 45 1 41 6
M  V30 46 1 42 6
M  V30 47 1 43 9
M  V30 48 1 44 10
M  V30 49 1 45 13
M  V30 50 1 46 14
M  V30 51 1 47 17
M  V30 52 1 48 17
M  V30 53 1 49 18
M  V30 54 1 50 18
M  V30 55 1 19 51 CFG=1
M  V30 56 1 52 20
M  V30 57 1 53 20
M  V30 58 1 54 22
M  V30 59 1 55 23
M  V30 60 1 56 24
M  V30 61 1 57 26
M  V30 62 1 58 31
M  V30 63 1 59 31
M  V30 END BOND
M  V30 END CTAB
M  END
>  <b_m_subgroup_collapsed>  (1688) 
0

>  <r_i_docking_score>  (1688) 
-6.8121777840047901

>  <s_m_subgroup_title>  (1688) 
glide-dock_SP_D22_pv

>  <s_m_subgroupid>  (1688) 
glide-dock_SP_D22_pv

>  <Molecule ChEMBL ID>  (1688) 
CHEMBL4096422

>  <Standard Type>  (1688) 
Ki

>  <Standard Value>  (1688) 
40.1

>  <label>  (1688) 
1

$$$$
CHEMBL2335737
     RDKit          3D

  0  0  0  0  0  0  0  0  0  0999 V3000
M  V30 BEGIN CTAB
M  V30 COUNTS 47 50 0 0 1
M  V30 BEGIN ATOM
M  V30 1 C 6.371720 0.949129 -14.628013 0
M  V30 2 C 7.154851 2.195241 -14.246862 0
M  V30 3 C 8.513871 2.284881 -14.612401 0
M  V30 4 C 9.291530 3.395419 -14.223330 0
M  V30 5 C 8.696559 4.455556 -13.495645 0
M  V30 6 C 7.336931 4.364887 -13.132195 0
M  V30 7 C 6.571677 3.237520 -13.485610 0
M  V30 8 O 5.282451 3.162387 -13.047194 0
M  V30 9 C 9.490746 5.701864 -13.102931 0 CFG=1
M  V30 10 C 9.609401 5.872674 -11.573007 0
M  V30 11 C 10.348726 7.174875 -11.171423 0 CFG=1
M  V30 12 O 9.534481 8.237403 -11.624748 0
M  V30 13 C 10.563760 7.322536 -9.656499 0
M  V30 14 C 9.985759 6.428601 -8.720613 0
M  V30 15 C 10.201129 6.594172 -7.339559 0
M  V30 16 C 10.997840 7.652828 -6.868325 0
M  V30 17 Cl 11.285959 7.843629 -5.177424 0
M  V30 18 C 11.566101 8.556125 -7.783007 0
M  V30 19 C 11.340040 8.399474 -9.163389 0
M  V30 20 C 11.707772 7.249321 -11.925984 0
M  V30 21 C 11.650451 6.953492 -13.433581 0
M  V30 22 N 10.815149 5.772467 -13.796121 0 CFG=1 CHG=1
M  V30 23 C 11.538903 4.487630 -13.793265 0
M  V30 24 C 10.758183 3.453479 -14.613160 0
M  V30 25 H 6.976271 0.057349 -14.457560 0
M  V30 26 H 5.459226 0.839945 -14.041928 0
M  V30 27 H 6.096060 0.971740 -15.682361 0
M  V30 28 H 8.968023 1.482350 -15.176122 0
M  V30 29 H 6.880008 5.161689 -12.561981 0
M  V30 30 H 5.053744 3.863811 -12.455899 0
M  V30 31 H 8.880362 6.533046 -13.446797 0
M  V30 32 H 10.086061 4.991057 -11.149258 0
M  V30 33 H 8.607231 5.890513 -11.141699 0
M  V30 34 H 8.714743 8.211400 -11.142273 0
M  V30 35 H 9.363244 5.603948 -9.031185 0
M  V30 36 H 9.750504 5.904519 -6.642833 0
M  V30 37 H 12.177077 9.370469 -7.425267 0
M  V30 38 H 11.773352 9.121727 -9.839714 0
M  V30 39 H 12.431547 6.573650 -11.491104 0
M  V30 40 H 12.172458 8.222356 -11.793531 0
M  V30 41 H 12.663396 6.829157 -13.819273 0
M  V30 42 H 11.286026 7.840040 -13.942733 0
M  V30 43 H 11.643954 4.172398 -12.762191 0
M  V30 44 H 12.544479 4.593316 -14.203354 0
M  V30 45 H 11.207896 2.467556 -14.486849 0
M  V30 46 H 10.819771 3.693779 -15.675265 0
M  V30 47 H 10.588964 5.911494 -14.770713 0
M  V30 END ATOM
M  V30 BEGIN BOND
M  V30 1 1 2 1
M  V30 2 2 3 2
M  V30 3 1 4 3
M  V30 4 2 5 4
M  V30 5 1 6 5
M  V30 6 1 7 2
M  V30 7 2 7 6
M  V30 8 1 8 7
M  V30 9 1 9 5
M  V30 10 1 10 9
M  V30 11 1 11 10
M  V30 12 1 11 12 CFG=3
M  V30 13 1 13 11
M  V30 14 1 14 13
M  V30 15 2 15 14
M  V30 16 1 16 15
M  V30 17 1 17 16
M  V30 18 2 18 16
M  V30 19 2 19 13
M  V30 20 1 19 18
M  V30 21 1 20 11
M  V30 22 1 21 20
M  V30 23 1 22 9
M  V30 24 1 22 21
M  V30 25 1 23 22
M  V30 26 1 24 4
M  V30 27 1 24 23
M  V30 28 1 25 1
M  V30 29 1 26 1
M  V30 30 1 27 1
M  V30 31 1 28 3
M  V30 32 1 29 6
M  V30 33 1 30 8
M  V30 34 1 9 31 CFG=3
M  V30 35 1 32 10
M  V30 36 1 33 10
M  V30 37 1 34 12
M  V30 38 1 35 14
M  V30 39 1 36 15
M  V30 40 1 37 18
M  V30 41 1 38 19
M  V30 42 1 39 20
M  V30 43 1 40 20
M  V30 44 1 41 21
M  V30 45 1 42 21
M  V30 46 1 43 23
M  V30 47 1 44 23
M  V30 48 1 45 24
M  V30 49 1 46 24
M  V30 50 1 22 47 CFG=3
M  V30 END BOND
M  V30 END CTAB
M  END
>  <b_m_subgroup_collapsed>  (1689) 
0

>  <r_i_docking_score>  (1689) 
-6.8106803918635901

>  <s_m_subgroup_title>  (1689) 
glide-dock_SP_D22_pv

>  <s_m_subgroupid>  (1689) 
glide-dock_SP_D22_pv

>  <Molecule ChEMBL ID>  (1689) 
CHEMBL2335737

>  <Standard Type>  (1689) 
Ki

>  <Standard Value>  (1689) 
12.3

>  <label>  (1689) 
1

$$$$
CHEMBL345349
     RDKit          3D

  0  0  0  0  0  0  0  0  0  0999 V3000
M  V30 BEGIN CTAB
M  V30 COUNTS 36 39 0 0 1
M  V30 BEGIN ATOM
M  V30 1 C 11.685959 7.998579 -4.354045 0
M  V30 2 C 11.628704 9.287043 -4.915916 0
M  V30 3 C 11.182919 9.465955 -6.240948 0
M  V30 4 C 10.782961 8.363243 -7.035137 0
M  V30 5 C 10.296287 8.195765 -8.376084 0
M  V30 6 C 10.071099 6.864542 -8.571533 0
M  V30 7 N 10.411368 6.184438 -7.414988 0
M  V30 8 C 10.845367 7.069141 -6.440082 0
M  V30 9 C 11.285969 6.884914 -5.115021 0
M  V30 10 C 9.598815 6.247735 -9.860148 0 CFG=1
M  V30 11 C 8.547494 5.146780 -9.683480 0
M  V30 12 C 8.117547 4.572332 -11.046761 0
M  V30 13 C 7.652599 5.670858 -12.004766 0
M  V30 14 C 8.701864 6.783777 -12.109082 0
M  V30 15 N 9.050076 7.302945 -10.763826 0 CFG=2 CHG=1
M  V30 16 C 9.911057 8.508808 -10.823586 0
M  V30 17 C 10.026929 9.195208 -9.446889 0
M  V30 18 H 12.030315 7.864025 -3.338240 0
M  V30 19 H 11.925650 10.142512 -4.327313 0
M  V30 20 H 11.144997 10.463643 -6.650978 0
M  V30 21 H 10.324131 5.185253 -7.307666 0
M  V30 22 H 11.317914 5.894227 -4.685761 0
M  V30 23 H 10.470192 5.813461 -10.350282 0
M  V30 24 H 8.933579 4.344351 -9.053635 0
M  V30 25 H 7.687483 5.567958 -9.161577 0
M  V30 26 H 8.952973 4.032381 -11.493169 0
M  V30 27 H 7.310624 3.850033 -10.908800 0
M  V30 28 H 7.450366 5.249887 -12.990167 0
M  V30 29 H 6.707747 6.087035 -11.651929 0
M  V30 30 H 9.598467 6.421961 -12.613831 0
M  V30 31 H 8.293412 7.593848 -12.713644 0
M  V30 32 H 10.900885 8.216940 -11.181449 0
M  V30 33 H 9.497981 9.205862 -11.553067 0
M  V30 34 H 9.103403 9.728664 -9.224401 0
M  V30 35 H 10.821832 9.941666 -9.471493 0
M  V30 36 H 8.163621 7.597394 -10.354649 0
M  V30 END ATOM
M  V30 BEGIN BOND
M  V30 1 2 2 1
M  V30 2 1 3 2
M  V30 3 2 4 3
M  V30 4 1 5 4
M  V30 5 2 6 5
M  V30 6 1 7 6
M  V30 7 1 8 4
M  V30 8 1 8 7
M  V30 9 1 9 1
M  V30 10 2 9 8
M  V30 11 1 10 6
M  V30 12 1 11 10
M  V30 13 1 12 11
M  V30 14 1 13 12
M  V30 15 1 14 13
M  V30 16 1 15 10
M  V30 17 1 15 14
M  V30 18 1 16 15
M  V30 19 1 17 5
M  V30 20 1 17 16
M  V30 21 1 18 1
M  V30 22 1 19 2
M  V30 23 1 20 3
M  V30 24 1 21 7
M  V30 25 1 22 9
M  V30 26 1 10 23 CFG=3
M  V30 27 1 24 11
M  V30 28 1 25 11
M  V30 29 1 26 12
M  V30 30 1 27 12
M  V30 31 1 28 13
M  V30 32 1 29 13
M  V30 33 1 30 14
M  V30 34 1 31 14
M  V30 35 1 32 16
M  V30 36 1 33 16
M  V30 37 1 34 17
M  V30 38 1 35 17
M  V30 39 1 15 36 CFG=1
M  V30 END BOND
M  V30 END CTAB
M  END
>  <b_m_subgroup_collapsed>  (1690) 
0

>  <r_i_docking_score>  (1690) 
-6.8104549296794001

>  <s_m_subgroup_title>  (1690) 
glide-dock_SP_D22_pv

>  <s_m_subgroupid>  (1690) 
glide-dock_SP_D22_pv

>  <Molecule ChEMBL ID>  (1690) 
CHEMBL345349

>  <Standard Type>  (1690) 
Ki

>  <Standard Value>  (1690) 
10000.0

>  <label>  (1690) 
0

$$$$
CHEMBL271913
     RDKit          3D

  0  0  0  0  0  0  0  0  0  0999 V3000
M  V30 BEGIN CTAB
M  V30 COUNTS 73 76 0 0 1
M  V30 BEGIN ATOM
M  V30 1 C 11.617854 9.358461 -8.596093 0
M  V30 2 O 10.886529 9.768556 -7.446846 0
M  V30 3 C 11.139920 9.026849 -6.332447 0
M  V30 4 C 12.034376 9.527989 -5.370121 0
M  V30 5 C 12.323257 8.774660 -4.219110 0
M  V30 6 C 11.763245 7.492008 -4.064262 0
M  V30 7 Cl 12.110828 6.573237 -2.647523 0
M  V30 8 C 10.886000 6.979064 -5.040510 0
M  V30 9 C 10.514409 7.777882 -6.138341 0
M  V30 10 N 9.495653 7.355784 -7.025321 0
M  V30 11 C 9.747920 6.514853 -8.027302 0
M  V30 12 O 10.721498 5.772332 -8.026362 0
M  V30 13 N 8.885998 6.629739 -9.044458 0
M  V30 14 C 9.029475 6.108004 -10.403150 0 CFG=1
M  V30 15 C 10.142469 6.798419 -11.193174 0
M  V30 16 C 10.082165 6.352555 -12.660378 0
M  V30 17 C 10.254013 4.824876 -12.864420 0 CFG=2
M  V30 18 N 10.082657 4.375853 -14.286556 0 CHG=1
M  V30 19 C 10.198127 2.888887 -14.432244 0
M  V30 20 C 10.024464 2.404502 -15.877195 0
M  V30 21 N 10.871881 3.164203 -16.779257 0
M  V30 22 C 11.625340 2.532203 -17.792973 0
M  V30 23 C 12.925746 3.014790 -18.067060 0
M  V30 24 C 13.731453 2.409971 -19.046923 0
M  V30 25 C 13.245096 1.307902 -19.767332 0
M  V30 26 C 11.951908 0.819184 -19.512360 0
M  V30 27 C 11.125299 1.419014 -18.527287 0
M  V30 28 O 9.833839 0.993396 -18.274103 0
M  V30 29 C 9.386717 -0.280602 -18.728455 0
M  V30 30 C 7.872190 -0.317135 -18.494467 0
M  V30 31 C 10.085258 -1.410475 -17.951374 0
M  V30 32 C 10.788601 4.615159 -16.695578 0
M  V30 33 C 10.991720 5.080500 -15.242025 0
M  V30 34 C 9.308590 4.053424 -11.902084 0
M  V30 35 C 9.207144 4.592741 -10.459989 0
M  V30 36 H 11.401741 10.030501 -9.428027 0
M  V30 37 H 12.691017 9.365726 -8.398894 0
M  V30 38 H 11.366019 8.359287 -8.931802 0
M  V30 39 H 12.494255 10.492614 -5.517595 0
M  V30 40 H 12.980965 9.175060 -3.463984 0
M  V30 41 H 10.434268 6.011751 -4.894430 0
M  V30 42 H 8.704523 7.972806 -7.133628 0
M  V30 43 H 8.048988 7.189763 -8.905187 0
M  V30 44 H 8.085596 6.343349 -10.894496 0
M  V30 45 H 10.017822 7.881278 -11.139323 0
M  V30 46 H 11.116269 6.573577 -10.760269 0
M  V30 47 H 10.855146 6.906106 -13.194589 0
M  V30 48 H 9.110532 6.652903 -13.046799 0
M  V30 49 H 11.286350 4.572638 -12.646858 0
M  V30 50 H 9.446726 2.363371 -13.844358 0
M  V30 51 H 11.174180 2.567919 -14.060810 0
M  V30 52 H 8.985786 2.508513 -16.192631 0
M  V30 53 H 10.270091 1.342240 -15.913826 0
M  V30 54 H 13.331904 3.844751 -17.509167 0
M  V30 55 H 14.724090 2.786750 -19.239910 0
M  V30 56 H 13.861271 0.838122 -20.520760 0
M  V30 57 H 11.615760 -0.019220 -20.101099 0
M  V30 58 H 9.547650 -0.395572 -19.801214 0
M  V30 59 H 7.443735 -1.264007 -18.824659 0
M  V30 60 H 7.632302 -0.193968 -17.437769 0
M  V30 61 H 7.373945 0.480706 -19.044788 0
M  V30 62 H 9.685294 -2.379500 -18.246775 0
M  V30 63 H 11.158660 -1.430490 -18.134142 0
M  V30 64 H 9.936752 -1.299066 -16.876549 0
M  V30 65 H 11.508175 5.103917 -17.352398 0
M  V30 66 H 9.802462 4.921368 -17.048553 0
M  V30 67 H 10.833458 6.157787 -15.220123 0
M  V30 68 H 12.027802 4.904496 -14.948366 0
M  V30 69 H 8.302891 4.017502 -12.323608 0
M  V30 70 H 9.679937 3.030266 -11.826785 0
M  V30 71 H 8.343323 4.172214 -9.951821 0
M  V30 72 H 10.085784 4.270645 -9.904365 0
M  V30 73 H 9.139477 4.613432 -14.558742 0
M  V30 END ATOM
M  V30 BEGIN BOND
M  V30 1 1 2 1
M  V30 2 1 3 2
M  V30 3 1 4 3
M  V30 4 2 5 4
M  V30 5 1 6 5
M  V30 6 1 7 6
M  V30 7 2 8 6
M  V30 8 2 9 3
M  V30 9 1 9 8
M  V30 10 1 10 9
M  V30 11 1 11 10
M  V30 12 2 12 11
M  V30 13 1 13 11
M  V30 14 1 14 13
M  V30 15 1 15 14
M  V30 16 1 16 15
M  V30 17 1 17 16
M  V30 18 1 18 17
M  V30 19 1 19 18
M  V30 20 1 20 19
M  V30 21 1 21 20
M  V30 22 1 22 21
M  V30 23 2 23 22
M  V30 24 1 24 23
M  V30 25 2 25 24
M  V30 26 1 26 25
M  V30 27 1 27 22
M  V30 28 2 27 26
M  V30 29 1 28 27
M  V30 30 1 29 28
M  V30 31 1 30 29
M  V30 32 1 31 29
M  V30 33 1 32 21
M  V30 34 1 33 18
M  V30 35 1 33 32
M  V30 36 1 34 17
M  V30 37 1 35 14
M  V30 38 1 35 34
M  V30 39 1 36 1
M  V30 40 1 37 1
M  V30 41 1 38 1
M  V30 42 1 39 4
M  V30 43 1 40 5
M  V30 44 1 41 8
M  V30 45 1 42 10
M  V30 46 1 43 13
M  V30 47 1 14 44 CFG=3
M  V30 48 1 45 15
M  V30 49 1 46 15
M  V30 50 1 47 16
M  V30 51 1 48 16
M  V30 52 1 17 49 CFG=1
M  V30 53 1 50 19
M  V30 54 1 51 19
M  V30 55 1 52 20
M  V30 56 1 53 20
M  V30 57 1 54 23
M  V30 58 1 55 24
M  V30 59 1 56 25
M  V30 60 1 57 26
M  V30 61 1 58 29
M  V30 62 1 59 30
M  V30 63 1 60 30
M  V30 64 1 61 30
M  V30 65 1 62 31
M  V30 66 1 63 31
M  V30 67 1 64 31
M  V30 68 1 65 32
M  V30 69 1 66 32
M  V30 70 1 67 33
M  V30 71 1 68 33
M  V30 72 1 69 34
M  V30 73 1 70 34
M  V30 74 1 71 35
M  V30 75 1 72 35
M  V30 76 1 73 18
M  V30 END BOND
M  V30 END CTAB
M  END
>  <b_m_subgroup_collapsed>  (1691) 
0

>  <r_i_docking_score>  (1691) 
-6.8086594868855101

>  <s_m_subgroup_title>  (1691) 
glide-dock_SP_D22_pv

>  <s_m_subgroupid>  (1691) 
glide-dock_SP_D22_pv

>  <Molecule ChEMBL ID>  (1691) 
CHEMBL271913

>  <Standard Type>  (1691) 
Ki

>  <Standard Value>  (1691) 
1.2

>  <label>  (1691) 
1

$$$$
CHEMBL596865
     RDKit          3D

  0  0  0  0  0  0  0  0  0  0999 V3000
M  V30 BEGIN CTAB
M  V30 COUNTS 50 53 0 0 1
M  V30 BEGIN ATOM
M  V30 1 C 11.686043 8.906451 -6.484547 0
M  V30 2 C 11.256544 8.276295 -7.591636 0
M  V30 3 C 11.475312 8.798480 -9.000952 0
M  V30 4 C 10.921543 7.918483 -10.123894 0
M  V30 5 C 9.650449 7.332373 -9.974009 0
M  V30 6 C 9.134321 6.496982 -10.974657 0
M  V30 7 C 9.866562 6.265343 -12.153696 0
M  V30 8 C 11.108244 6.907673 -12.376674 0
M  V30 9 C 11.645988 7.708949 -11.325826 0
M  V30 10 O 12.886333 8.267941 -11.446842 0
M  V30 11 C 11.766638 6.665571 -13.691941 0
M  V30 12 C 12.623433 7.608727 -14.319185 0
M  V30 13 C 13.162715 7.422612 -15.602589 0
M  V30 14 C 12.875055 6.265919 -16.330599 0
M  V30 15 C 12.034690 5.290750 -15.774935 0
M  V30 16 C 11.486951 5.512125 -14.478689 0
M  V30 17 C 10.509211 4.498061 -13.837443 0 CFG=1
M  V30 18 C 9.341379 5.268102 -13.170690 0
M  V30 19 N 10.032289 3.425801 -14.759577 0 CFG=2 CHG=1
M  V30 20 C 9.321839 2.297049 -14.099997 0
M  V30 21 C 8.194567 1.746344 -14.994806 0
M  V30 22 C 7.417937 0.596931 -14.342414 0
M  V30 23 C 11.128993 2.922773 -15.604851 0
M  V30 24 C 11.600964 4.037667 -16.515675 0
M  V30 25 H 12.232181 9.840156 -6.544181 0
M  V30 26 H 11.496865 8.491264 -5.506352 0
M  V30 27 H 10.716698 7.346713 -7.483727 0
M  V30 28 H 10.995260 9.773500 -9.084058 0
M  V30 29 H 12.545661 8.970946 -9.111607 0
M  V30 30 H 9.055294 7.510823 -9.089442 0
M  V30 31 H 8.169160 6.035145 -10.822077 0
M  V30 32 H 13.092646 8.907676 -10.776022 0
M  V30 33 H 12.873400 8.535470 -13.828259 0
M  V30 34 H 13.788051 8.187638 -16.038023 0
M  V30 35 H 13.285105 6.141549 -17.321749 0
M  V30 36 H 11.077061 3.998090 -13.048573 0
M  V30 37 H 8.638375 4.611963 -12.664524 0
M  V30 38 H 8.763989 5.801640 -13.924601 0
M  V30 39 H 10.027609 1.503673 -13.848381 0
M  V30 40 H 8.893018 2.600273 -13.150085 0
M  V30 41 H 7.493920 2.547240 -15.238036 0
M  V30 42 H 8.603920 1.395572 -15.942339 0
M  V30 43 H 6.667501 0.198828 -15.027422 0
M  V30 44 H 6.893545 0.930150 -13.447672 0
M  V30 45 H 8.079713 -0.227343 -14.064274 0
M  V30 46 H 11.951490 2.572969 -14.978858 0
M  V30 47 H 10.803525 2.077445 -16.212767 0
M  V30 48 H 10.813456 4.311117 -17.220661 0
M  V30 49 H 12.439802 3.679510 -17.114729 0
M  V30 50 H 9.367536 3.868562 -15.377630 0
M  V30 END ATOM
M  V30 BEGIN BOND
M  V30 1 2 2 1
M  V30 2 1 3 2
M  V30 3 1 4 3
M  V30 4 1 5 4
M  V30 5 2 6 5
M  V30 6 1 7 6
M  V30 7 2 8 7
M  V30 8 2 9 4
M  V30 9 1 9 8
M  V30 10 1 10 9
M  V30 11 1 11 8
M  V30 12 2 12 11
M  V30 13 1 13 12
M  V30 14 2 14 13
M  V30 15 1 15 14
M  V30 16 1 16 11
M  V30 17 2 16 15
M  V30 18 1 17 16
M  V30 19 1 18 7
M  V30 20 1 18 17
M  V30 21 1 19 17
M  V30 22 1 20 19
M  V30 23 1 21 20
M  V30 24 1 22 21
M  V30 25 1 23 19
M  V30 26 1 24 15
M  V30 27 1 24 23
M  V30 28 1 25 1
M  V30 29 1 26 1
M  V30 30 1 27 2
M  V30 31 1 28 3
M  V30 32 1 29 3
M  V30 33 1 30 5
M  V30 34 1 31 6
M  V30 35 1 32 10
M  V30 36 1 33 12
M  V30 37 1 34 13
M  V30 38 1 35 14
M  V30 39 1 17 36 CFG=1
M  V30 40 1 37 18
M  V30 41 1 38 18
M  V30 42 1 39 20
M  V30 43 1 40 20
M  V30 44 1 41 21
M  V30 45 1 42 21
M  V30 46 1 43 22
M  V30 47 1 44 22
M  V30 48 1 45 22
M  V30 49 1 46 23
M  V30 50 1 47 23
M  V30 51 1 48 24
M  V30 52 1 49 24
M  V30 53 1 19 50 CFG=3
M  V30 END BOND
M  V30 END CTAB
M  END
>  <b_m_subgroup_collapsed>  (1692) 
0

>  <r_i_docking_score>  (1692) 
-6.8074134903960797

>  <s_m_subgroup_title>  (1692) 
glide-dock_SP_D22_pv

>  <s_m_subgroupid>  (1692) 
glide-dock_SP_D22_pv

>  <Molecule ChEMBL ID>  (1692) 
CHEMBL596865

>  <Standard Type>  (1692) 
Ki

>  <Standard Value>  (1692) 
10000.0

>  <label>  (1692) 
0

$$$$
CHEMBL3590081
     RDKit          3D

  0  0  0  0  0  0  0  0  0  0999 V3000
M  V30 BEGIN CTAB
M  V30 COUNTS 59 61 0 0 1
M  V30 BEGIN ATOM
M  V30 1 C 5.362934 2.393754 -12.572047 0
M  V30 2 C 6.185173 3.618520 -12.153472 0
M  V30 3 C 7.270294 3.953279 -13.194118 0
M  V30 4 N 8.281047 4.941988 -12.713200 0 CFG=2 CHG=1
M  V30 5 C 7.695231 6.301925 -12.529751 0
M  V30 6 C 8.644186 7.369558 -11.975524 0
M  V30 7 C 9.206177 6.968835 -10.623503 0
M  V30 8 C 9.420020 8.194403 -9.738184 0
M  V30 9 N 9.963409 7.850627 -8.443406 0
M  V30 10 C 9.498831 6.935761 -7.568529 0
M  V30 11 O 8.629951 6.096103 -7.787769 0
M  V30 12 N 10.117437 6.972281 -6.218502 0
M  V30 13 N 10.789364 7.990550 -5.991299 0
M  V30 14 C 11.336862 8.098641 -4.717336 0
M  V30 15 C 11.529464 9.400126 -4.231484 0
M  V30 16 C 12.086038 9.582136 -2.962471 0
M  V30 17 C 12.486019 8.469206 -2.206764 0
M  V30 18 F 13.135213 8.659313 -1.046861 0
M  V30 19 C 12.267464 7.162130 -2.674195 0
M  V30 20 C 11.686255 6.972308 -3.936711 0
M  V30 21 C 9.586679 4.898161 -13.454778 0
M  V30 22 C 9.456202 5.052344 -14.996944 0
M  V30 23 C 9.743303 3.681498 -15.540016 0
M  V30 24 C 9.557904 3.229457 -16.858419 0
M  V30 25 C 9.846619 1.876940 -17.146046 0
M  V30 26 C 10.304235 1.008005 -16.126907 0
M  V30 27 C 10.486022 1.484200 -14.810040 0
M  V30 28 C 10.209324 2.835898 -14.544796 0
M  V30 29 C 10.322265 3.555211 -13.227293 0
M  V30 30 H 4.582472 2.172332 -11.846875 0
M  V30 31 H 4.886005 2.558039 -13.535554 0
M  V30 32 H 5.988143 1.504993 -12.661563 0
M  V30 33 H 6.639294 3.423294 -11.181493 0
M  V30 34 H 5.510069 4.462818 -12.012794 0
M  V30 35 H 6.803093 4.305626 -14.114359 0
M  V30 36 H 7.763249 3.017150 -13.448902 0
M  V30 37 H 7.286044 6.683587 -13.446866 0
M  V30 38 H 6.848971 6.227965 -11.846858 0
M  V30 39 H 9.455252 7.634732 -12.646869 0
M  V30 40 H 8.063003 8.286464 -11.868734 0
M  V30 41 H 8.485716 6.300543 -10.157503 0
M  V30 42 H 10.131518 6.403860 -10.738705 0
M  V30 43 H 10.108097 8.888840 -10.221290 0
M  V30 44 H 8.486015 8.735956 -9.585503 0
M  V30 45 H 10.703092 8.448580 -8.105530 0
M  V30 46 H 11.249493 10.257987 -4.825874 0
M  V30 47 H 12.239442 10.579152 -2.586241 0
M  V30 48 H 12.568328 6.310394 -2.081550 0
M  V30 49 H 11.536647 5.966817 -4.303293 0
M  V30 50 H 10.244520 5.673852 -13.070199 0
M  V30 51 H 10.207869 5.742378 -15.382168 0
M  V30 52 H 8.486016 5.401330 -15.320454 0
M  V30 53 H 9.197175 3.894757 -17.629372 0
M  V30 54 H 9.711946 1.500967 -18.149672 0
M  V30 55 H 10.517133 -0.025497 -16.357588 0
M  V30 56 H 10.839269 0.826982 -14.029737 0
M  V30 57 H 9.936426 2.972363 -12.390664 0
M  V30 58 H 11.373571 3.772340 -13.047071 0
M  V30 59 H 8.515869 4.646425 -11.775728 0
M  V30 END ATOM
M  V30 BEGIN BOND
M  V30 1 1 2 1
M  V30 2 1 3 2
M  V30 3 1 4 3
M  V30 4 1 5 4
M  V30 5 1 6 5
M  V30 6 1 7 6
M  V30 7 1 8 7
M  V30 8 1 9 8
M  V30 9 1 10 9
M  V30 10 2 11 10
M  V30 11 1 12 10
M  V30 12 2 13 12
M  V30 13 1 14 13
M  V30 14 1 15 14
M  V30 15 2 16 15
M  V30 16 1 17 16
M  V30 17 1 18 17
M  V30 18 2 19 17
M  V30 19 2 20 14
M  V30 20 1 20 19
M  V30 21 1 21 4
M  V30 22 1 22 21
M  V30 23 1 23 22
M  V30 24 2 24 23
M  V30 25 1 25 24
M  V30 26 2 26 25
M  V30 27 1 27 26
M  V30 28 1 28 23
M  V30 29 2 28 27
M  V30 30 1 29 21
M  V30 31 1 29 28
M  V30 32 1 30 1
M  V30 33 1 31 1
M  V30 34 1 32 1
M  V30 35 1 33 2
M  V30 36 1 34 2
M  V30 37 1 35 3
M  V30 38 1 36 3
M  V30 39 1 37 5
M  V30 40 1 38 5
M  V30 41 1 39 6
M  V30 42 1 40 6
M  V30 43 1 41 7
M  V30 44 1 42 7
M  V30 45 1 43 8
M  V30 46 1 44 8
M  V30 47 1 45 9
M  V30 48 1 46 15
M  V30 49 1 47 16
M  V30 50 1 48 19
M  V30 51 1 49 20
M  V30 52 1 50 21
M  V30 53 1 51 22
M  V30 54 1 52 22
M  V30 55 1 53 24
M  V30 56 1 54 25
M  V30 57 1 55 26
M  V30 58 1 56 27
M  V30 59 1 57 29
M  V30 60 1 58 29
M  V30 61 1 4 59 CFG=1
M  V30 END BOND
M  V30 END CTAB
M  END
>  <b_m_subgroup_collapsed>  (1693) 
0

>  <r_i_docking_score>  (1693) 
-6.8062217318420002

>  <s_m_subgroup_title>  (1693) 
glide-dock_SP_D22_pv

>  <s_m_subgroupid>  (1693) 
glide-dock_SP_D22_pv

>  <Molecule ChEMBL ID>  (1693) 
CHEMBL3590081

>  <Standard Type>  (1693) 
Ki

>  <Standard Value>  (1693) 
23.0

>  <label>  (1693) 
1

$$$$
CHEMBL4092015
     RDKit          3D

  0  0  0  0  0  0  0  0  0  0999 V3000
M  V30 BEGIN CTAB
M  V30 COUNTS 67 71 0 0 1
M  V30 BEGIN ATOM
M  V30 1 C 14.078793 4.052128 -17.770956 0
M  V30 2 O 12.813993 3.553445 -17.357269 0
M  V30 3 C 11.674651 4.197133 -17.801373 0
M  V30 4 C 11.724249 5.413920 -18.530863 0
M  V30 5 C 10.547193 6.017208 -18.999678 0
M  V30 6 C 9.312596 5.400955 -18.754869 0
M  V30 7 C 9.269787 4.203898 -18.022404 0
M  V30 8 C 10.427204 3.585800 -17.494095 0
M  V30 9 N 10.385660 2.393940 -16.709330 0
M  V30 10 C 9.413960 1.361746 -17.029840 0
M  V30 11 C 9.544477 0.983604 -15.554928 0
M  V30 12 C 10.038199 2.417831 -15.277753 0 CFG=1
M  V30 13 C 11.285513 2.563996 -14.418469 0
M  V30 14 C 11.743629 4.013702 -14.196977 0
M  V30 15 N 10.660408 4.884323 -13.681700 0 CFG=1 CHG=1
M  V30 16 C 11.175261 6.260552 -13.443491 0
M  V30 17 C 10.305822 7.103355 -12.489065 0
M  V30 18 C 10.615405 6.880988 -11.010127 0
M  V30 19 S 9.789206 8.118517 -9.988132 0
M  V30 20 C 10.253363 7.480492 -8.416634 0
M  V30 21 N 10.073469 6.218798 -8.046731 0
M  V30 22 N 10.490672 6.173161 -6.744372 0
M  V30 23 C 10.868690 7.410654 -6.400699 0
M  V30 24 C 11.286299 7.752277 -5.025708 0
M  V30 25 C 11.294399 9.073491 -4.505878 0
M  V30 26 C 11.715658 9.340926 -3.190060 0
M  V30 27 C 12.109536 8.289191 -2.346129 0
M  V30 28 C 12.087541 6.971329 -2.830292 0
M  V30 29 C 11.686811 6.715327 -4.155803 0
M  V30 30 N 10.816871 8.242555 -7.462248 0
M  V30 31 C 11.219716 9.616999 -7.554864 0
M  V30 32 C 9.472306 4.848349 -14.578278 0
M  V30 33 C 8.961924 3.406257 -14.796869 0
M  V30 34 H 14.865074 3.373059 -17.446365 0
M  V30 35 H 14.150314 4.117283 -18.859135 0
M  V30 36 H 14.282430 5.029291 -17.329445 0
M  V30 37 H 12.657157 5.908594 -18.756296 0
M  V30 38 H 10.595605 6.939642 -19.560232 0
M  V30 39 H 8.401068 5.843798 -19.129265 0
M  V30 40 H 8.300927 3.767970 -17.848389 0
M  V30 41 H 8.417786 1.722320 -17.284836 0
M  V30 42 H 9.781578 0.604393 -17.723372 0
M  V30 43 H 10.301754 0.215170 -15.375606 0
M  V30 44 H 8.598228 0.726005 -15.078851 0
M  V30 45 H 12.085797 2.014494 -14.897854 0
M  V30 46 H 11.118649 2.096972 -13.447887 0
M  V30 47 H 12.131010 4.438971 -15.119612 0
M  V30 48 H 12.574093 4.018774 -13.489444 0
M  V30 49 H 11.286900 6.766235 -14.403801 0
M  V30 50 H 12.187201 6.219167 -13.038162 0
M  V30 51 H 9.239020 6.957636 -12.648943 0
M  V30 52 H 10.485395 8.156836 -12.698955 0
M  V30 53 H 11.686363 6.973729 -10.821421 0
M  V30 54 H 10.293591 5.884684 -10.706254 0
M  V30 55 H 10.959263 9.920269 -5.071955 0
M  V30 56 H 11.713067 10.353333 -2.812919 0
M  V30 57 H 12.416164 8.495717 -1.331639 0
M  V30 58 H 12.383278 6.150845 -2.191727 0
M  V30 59 H 11.693274 5.700912 -4.508219 0
M  V30 60 H 11.285667 9.929475 -8.595207 0
M  V30 61 H 10.445038 10.174511 -7.046998 0
M  V30 62 H 12.187271 9.765253 -7.071203 0
M  V30 63 H 8.659771 5.436599 -14.152298 0
M  V30 64 H 9.722420 5.321004 -15.527844 0
M  V30 65 H 8.091121 3.371989 -15.446484 0
M  V30 66 H 8.580198 3.053583 -13.836802 0
M  V30 67 H 10.374742 4.503085 -12.791230 0
M  V30 END ATOM
M  V30 BEGIN BOND
M  V30 1 1 2 1
M  V30 2 1 3 2
M  V30 3 2 4 3
M  V30 4 1 5 4
M  V30 5 2 6 5
M  V30 6 1 7 6
M  V30 7 1 8 3
M  V30 8 2 8 7
M  V30 9 1 9 8
M  V30 10 1 10 9
M  V30 11 1 11 10
M  V30 12 1 12 9 CFG=3
M  V30 13 1 12 11
M  V30 14 1 13 12
M  V30 15 1 14 13
M  V30 16 1 15 14
M  V30 17 1 16 15
M  V30 18 1 17 16
M  V30 19 1 18 17
M  V30 20 1 19 18
M  V30 21 1 20 19
M  V30 22 2 21 20
M  V30 23 1 22 21
M  V30 24 2 23 22
M  V30 25 1 24 23
M  V30 26 2 25 24
M  V30 27 1 26 25
M  V30 28 2 27 26
M  V30 29 1 28 27
M  V30 30 1 29 24
M  V30 31 2 29 28
M  V30 32 1 30 20
M  V30 33 1 30 23
M  V30 34 1 31 30
M  V30 35 1 32 15
M  V30 36 1 33 12
M  V30 37 1 33 32
M  V30 38 1 34 1
M  V30 39 1 35 1
M  V30 40 1 36 1
M  V30 41 1 37 4
M  V30 42 1 38 5
M  V30 43 1 39 6
M  V30 44 1 40 7
M  V30 45 1 41 10
M  V30 46 1 42 10
M  V30 47 1 43 11
M  V30 48 1 44 11
M  V30 49 1 45 13
M  V30 50 1 46 13
M  V30 51 1 47 14
M  V30 52 1 48 14
M  V30 53 1 49 16
M  V30 54 1 50 16
M  V30 55 1 51 17
M  V30 56 1 52 17
M  V30 57 1 53 18
M  V30 58 1 54 18
M  V30 59 1 55 25
M  V30 60 1 56 26
M  V30 61 1 57 27
M  V30 62 1 58 28
M  V30 63 1 59 29
M  V30 64 1 60 31
M  V30 65 1 61 31
M  V30 66 1 62 31
M  V30 67 1 63 32
M  V30 68 1 64 32
M  V30 69 1 65 33
M  V30 70 1 66 33
M  V30 71 1 15 67 CFG=1
M  V30 END BOND
M  V30 END CTAB
M  END
>  <b_m_subgroup_collapsed>  (1694) 
0

>  <r_i_docking_score>  (1694) 
-6.8056879100145098

>  <s_m_subgroup_title>  (1694) 
glide-dock_SP_D22_pv

>  <s_m_subgroupid>  (1694) 
glide-dock_SP_D22_pv

>  <Molecule ChEMBL ID>  (1694) 
CHEMBL4092015

>  <Standard Type>  (1694) 
Ki

>  <Standard Value>  (1694) 
29300.0

>  <label>  (1694) 
0

$$$$
CHEMBL243955
     RDKit          3D

  0  0  0  0  0  0  0  0  0  0999 V3000
M  V30 BEGIN CTAB
M  V30 COUNTS 74 77 0 0 1
M  V30 BEGIN ATOM
M  V30 1 C 10.594035 7.238671 -5.753973 0
M  V30 2 N 10.078603 7.765929 -7.010797 0
M  V30 3 C 8.883937 8.580618 -6.973092 0
M  V30 4 C 10.971904 7.975040 -8.076878 0
M  V30 5 C 12.232746 8.511668 -7.774259 0
M  V30 6 C 13.218280 8.572215 -8.754880 0
M  V30 7 C 12.958938 8.172324 -10.067491 0
M  V30 8 C 11.686353 7.748170 -10.420247 0
M  V30 9 C 10.680239 7.650548 -9.440089 0
M  V30 10 N 9.443242 7.165840 -9.860065 0
M  V30 11 C 8.885330 7.553692 -11.165827 0
M  V30 12 C 8.379665 6.333969 -11.953397 0
M  V30 13 N 7.686040 5.359104 -11.071988 0 CHG=1
M  V30 14 C 7.160878 4.176560 -11.778501 0
M  V30 15 C 5.871873 4.440979 -12.543987 0
M  V30 16 C 5.743001 3.444516 -13.690888 0
M  V30 17 C 5.584174 1.957688 -13.269387 0
M  V30 18 C 6.057471 0.860830 -14.263135 0
M  V30 19 C 7.352466 1.172727 -15.024947 0
M  V30 20 O 7.300483 1.869890 -16.035830 0
M  V30 21 N 8.489419 0.653129 -14.533433 0
M  V30 22 C 9.856764 0.820844 -15.039093 0 CFG=1
M  V30 23 C 10.142727 0.001151 -16.312181 0
M  V30 24 C 9.899195 0.770236 -17.613768 0
M  V30 25 C 10.709372 2.070014 -17.661358 0
M  V30 26 C 10.728061 2.852745 -16.355635 0
M  V30 27 C 11.206079 4.179918 -16.377031 0
M  V30 28 C 11.325320 4.917267 -15.183867 0
M  V30 29 C 10.954458 4.332683 -13.962386 0
M  V30 30 C 10.439472 3.022793 -13.934914 0
M  V30 31 C 10.333611 2.269063 -15.123969 0
M  V30 32 C 8.549750 4.915172 -9.961717 0
M  V30 33 C 8.872970 6.084684 -9.075576 0
M  V30 34 H 11.433983 6.561643 -5.918606 0
M  V30 35 H 10.919300 8.047385 -5.097217 0
M  V30 36 H 9.813043 6.675566 -5.240921 0
M  V30 37 H 8.031256 7.986792 -6.653422 0
M  V30 38 H 9.042771 9.368658 -6.246233 0
M  V30 39 H 8.650270 9.029451 -7.935722 0
M  V30 40 H 12.483323 8.835505 -6.774151 0
M  V30 41 H 14.185193 8.972922 -8.541207 0
M  V30 42 H 13.729407 8.255986 -10.817669 0
M  V30 43 H 11.521625 7.453805 -11.445321 0
M  V30 44 H 8.086780 8.283224 -11.046913 0
M  V30 45 H 9.594776 8.100456 -11.785233 0
M  V30 46 H 7.721316 6.669845 -12.754907 0
M  V30 47 H 9.223295 5.842747 -12.430449 0
M  V30 48 H 7.942191 3.774127 -12.426121 0
M  V30 49 H 6.914646 3.403219 -11.048819 0
M  V30 50 H 5.014247 4.377811 -11.873446 0
M  V30 51 H 5.858583 5.448792 -12.958199 0
M  V30 52 H 4.886015 3.770436 -14.246821 0
M  V30 53 H 6.596622 3.605216 -14.345380 0
M  V30 54 H 6.085828 1.777695 -12.325539 0
M  V30 55 H 4.533116 1.781678 -13.036813 0
M  V30 56 H 6.171971 -0.080501 -13.724387 0
M  V30 57 H 5.284651 0.657606 -15.004471 0
M  V30 58 H 8.405322 0.099409 -13.696595 0
M  V30 59 H 10.468060 0.369432 -14.254431 0
M  V30 60 H 11.207615 -0.227922 -16.300760 0
M  V30 61 H 9.613504 -0.953104 -16.304005 0
M  V30 62 H 8.841757 0.993750 -17.721758 0
M  V30 63 H 10.153487 0.149228 -18.473127 0
M  V30 64 H 10.339378 2.705492 -18.465536 0
M  V30 65 H 11.744910 1.831176 -17.908587 0
M  V30 66 H 11.511492 4.628539 -17.309071 0
M  V30 67 H 11.716793 5.923625 -15.209709 0
M  V30 68 H 11.083650 4.883986 -13.045201 0
M  V30 69 H 10.156767 2.574857 -12.994278 0
M  V30 70 H 8.063071 4.168767 -9.340522 0
M  V30 71 H 9.462478 4.459835 -10.351879 0
M  V30 72 H 9.562805 5.718033 -8.316080 0
M  V30 73 H 7.994597 6.442635 -8.550694 0
M  V30 74 H 6.914924 5.867394 -10.647925 0
M  V30 END ATOM
M  V30 BEGIN BOND
M  V30 1 1 2 1
M  V30 2 1 3 2
M  V30 3 1 4 2
M  V30 4 2 5 4
M  V30 5 1 6 5
M  V30 6 2 7 6
M  V30 7 1 8 7
M  V30 8 1 9 4
M  V30 9 2 9 8
M  V30 10 1 10 9
M  V30 11 1 11 10
M  V30 12 1 12 11
M  V30 13 1 13 12
M  V30 14 1 14 13
M  V30 15 1 15 14
M  V30 16 1 16 15
M  V30 17 1 17 16
M  V30 18 1 18 17
M  V30 19 1 19 18
M  V30 20 2 20 19
M  V30 21 1 21 19
M  V30 22 1 22 21
M  V30 23 1 23 22
M  V30 24 1 24 23
M  V30 25 1 25 24
M  V30 26 1 26 25
M  V30 27 2 27 26
M  V30 28 1 28 27
M  V30 29 2 29 28
M  V30 30 1 30 29
M  V30 31 1 31 22
M  V30 32 1 31 26
M  V30 33 2 31 30
M  V30 34 1 32 13
M  V30 35 1 33 10
M  V30 36 1 33 32
M  V30 37 1 34 1
M  V30 38 1 35 1
M  V30 39 1 36 1
M  V30 40 1 37 3
M  V30 41 1 38 3
M  V30 42 1 39 3
M  V30 43 1 40 5
M  V30 44 1 41 6
M  V30 45 1 42 7
M  V30 46 1 43 8
M  V30 47 1 44 11
M  V30 48 1 45 11
M  V30 49 1 46 12
M  V30 50 1 47 12
M  V30 51 1 48 14
M  V30 52 1 49 14
M  V30 53 1 50 15
M  V30 54 1 51 15
M  V30 55 1 52 16
M  V30 56 1 53 16
M  V30 57 1 54 17
M  V30 58 1 55 17
M  V30 59 1 56 18
M  V30 60 1 57 18
M  V30 61 1 58 21
M  V30 62 1 22 59 CFG=1
M  V30 63 1 60 23
M  V30 64 1 61 23
M  V30 65 1 62 24
M  V30 66 1 63 24
M  V30 67 1 64 25
M  V30 68 1 65 25
M  V30 69 1 66 27
M  V30 70 1 67 28
M  V30 71 1 68 29
M  V30 72 1 69 30
M  V30 73 1 70 32
M  V30 74 1 71 32
M  V30 75 1 72 33
M  V30 76 1 73 33
M  V30 77 1 74 13
M  V30 END BOND
M  V30 END CTAB
M  END
>  <b_m_subgroup_collapsed>  (1695) 
0

>  <r_i_docking_score>  (1695) 
-6.8041174344886901

>  <s_m_subgroup_title>  (1695) 
glide-dock_SP_D22_pv

>  <s_m_subgroupid>  (1695) 
glide-dock_SP_D22_pv

>  <Molecule ChEMBL ID>  (1695) 
CHEMBL243955

>  <Standard Type>  (1695) 
Ki

>  <Standard Value>  (1695) 
32.0

>  <label>  (1695) 
1

$$$$
CHEMBL2106804
     RDKit          3D

  0  0  0  0  0  0  0  0  0  0999 V3000
M  V30 BEGIN CTAB
M  V30 COUNTS 40 42 0 0 1
M  V30 BEGIN ATOM
M  V30 1 C 8.088519 9.057899 -12.328752 0
M  V30 2 C 8.886814 8.017717 -11.549611 0
M  V30 3 C 9.337199 8.572379 -10.184694 0
M  V30 4 N 9.968383 7.581268 -9.272044 0 CFG=2 CHG=1
M  V30 5 C 9.099317 6.380217 -9.106653 0
M  V30 6 C 9.587978 5.435513 -8.015406 0
M  V30 7 O 9.776809 6.172330 -6.820782 0
M  V30 8 C 10.819507 7.108357 -6.963274 0 CFG=2
M  V30 9 C 11.247841 7.664238 -5.614169 0
M  V30 10 C 11.457525 6.781904 -4.536432 0
M  V30 11 C 11.870840 7.260137 -3.279613 0
M  V30 12 O 12.088047 6.401803 -2.246878 0
M  V30 13 C 12.023947 8.639407 -3.077018 0
M  V30 14 C 11.794616 9.521027 -4.145465 0
M  V30 15 C 11.478191 9.044621 -5.432242 0
M  V30 16 C 11.391855 10.013534 -6.601222 0
M  V30 17 C 11.367069 9.306538 -7.971328 0
M  V30 18 C 10.311024 8.183565 -7.943038 0 CFG=1
M  V30 19 H 7.461306 8.553742 -13.055749 0
M  V30 20 H 8.733767 9.771068 -12.842663 0
M  V30 21 H 7.407765 9.608845 -11.678693 0
M  V30 22 H 8.221118 7.162975 -11.444223 0
M  V30 23 H 9.740293 7.673948 -12.134654 0
M  V30 24 H 10.042476 9.371243 -10.381220 0
M  V30 25 H 8.486131 9.023281 -9.672708 0
M  V30 26 H 8.086113 6.693369 -8.861526 0
M  V30 27 H 9.046109 5.806714 -10.030995 0
M  V30 28 H 8.849353 4.651724 -7.847516 0
M  V30 29 H 10.512402 4.945179 -8.318901 0
M  V30 30 H 11.704644 6.617722 -7.372550 0
M  V30 31 H 11.297115 5.731184 -4.682574 0
M  V30 32 H 11.788782 5.516550 -2.405807 0
M  V30 33 H 12.295640 9.023852 -2.103990 0
M  V30 34 H 11.863818 10.572241 -3.963316 0
M  V30 35 H 10.486154 10.601412 -6.467516 0
M  V30 36 H 12.229364 10.709971 -6.552186 0
M  V30 37 H 11.217504 10.037719 -8.760265 0
M  V30 38 H 12.349055 8.875781 -8.174754 0
M  V30 39 H 9.384924 8.598845 -7.537235 0
M  V30 40 H 10.827942 7.270960 -9.700940 0
M  V30 END ATOM
M  V30 BEGIN BOND
M  V30 1 1 2 1
M  V30 2 1 3 2
M  V30 3 1 4 3
M  V30 4 1 5 4
M  V30 5 1 6 5
M  V30 6 1 7 6
M  V30 7 1 8 7
M  V30 8 1 9 8
M  V30 9 1 10 9
M  V30 10 2 11 10
M  V30 11 1 12 11
M  V30 12 1 13 11
M  V30 13 2 14 13
M  V30 14 2 15 9
M  V30 15 1 15 14
M  V30 16 1 16 15
M  V30 17 1 17 16
M  V30 18 1 18 4
M  V30 19 1 18 8
M  V30 20 1 18 17
M  V30 21 1 19 1
M  V30 22 1 20 1
M  V30 23 1 21 1
M  V30 24 1 22 2
M  V30 25 1 23 2
M  V30 26 1 24 3
M  V30 27 1 25 3
M  V30 28 1 26 5
M  V30 29 1 27 5
M  V30 30 1 28 6
M  V30 31 1 29 6
M  V30 32 1 8 30 CFG=3
M  V30 33 1 31 10
M  V30 34 1 32 12
M  V30 35 1 33 13
M  V30 36 1 34 14
M  V30 37 1 35 16
M  V30 38 1 36 16
M  V30 39 1 37 17
M  V30 40 1 38 17
M  V30 41 1 18 39 CFG=1
M  V30 42 1 4 40 CFG=3
M  V30 END BOND
M  V30 END CTAB
M  END
>  <b_m_subgroup_collapsed>  (1696) 
0

>  <r_i_docking_score>  (1696) 
-6.80129677152956

>  <s_m_subgroup_title>  (1696) 
glide-dock_SP_D22_pv

>  <s_m_subgroupid>  (1696) 
glide-dock_SP_D22_pv

>  <Molecule ChEMBL ID>  (1696) 
CHEMBL2106804

>  <Standard Type>  (1696) 
Ki

>  <Standard Value>  (1696) 
0.3388

>  <label>  (1696) 
1

$$$$
CHEMBL4076796
     RDKit          3D

  0  0  0  0  0  0  0  0  0  0999 V3000
M  V30 BEGIN CTAB
M  V30 COUNTS 23 24 0 0 1
M  V30 BEGIN ATOM
M  V30 1 N 12.051621 8.065991 -3.552088 0
M  V30 2 C 11.683560 8.039392 -4.650337 0
M  V30 3 C 11.230256 8.007217 -6.033759 0
M  V30 4 C 11.658399 9.003293 -6.934832 0
M  V30 5 C 11.234546 8.972331 -8.277663 0
M  V30 6 C 10.378716 7.951624 -8.735108 0
M  V30 7 C 9.959517 6.940556 -7.837049 0
M  V30 8 C 10.381482 6.975374 -6.489239 0
M  V30 9 C 9.029657 5.838807 -8.316700 0
M  V30 10 C 9.058506 5.669545 -9.842074 0
M  V30 11 N 8.886023 6.972948 -10.511387 0 CHG=1
M  V30 12 C 9.957253 7.943734 -10.201353 0
M  V30 13 H 12.320499 9.791387 -6.603573 0
M  V30 14 H 11.571476 9.735855 -8.963475 0
M  V30 15 H 10.051295 6.207400 -5.803660 0
M  V30 16 H 9.295802 4.893503 -7.846728 0
M  V30 17 H 8.023323 6.082383 -7.982508 0
M  V30 18 H 10.007881 5.234294 -10.156133 0
M  V30 19 H 8.268970 4.986623 -10.160070 0
M  V30 20 H 8.850223 6.831556 -11.509424 0
M  V30 21 H 9.626366 8.940213 -10.495760 0
M  V30 22 H 10.832209 7.701974 -10.805425 0
M  V30 23 H 7.967525 7.361431 -10.246838 0
M  V30 END ATOM
M  V30 BEGIN BOND
M  V30 1 3 2 1
M  V30 2 1 3 2
M  V30 3 1 4 3
M  V30 4 2 5 4
M  V30 5 1 6 5
M  V30 6 2 7 6
M  V30 7 2 8 3
M  V30 8 1 8 7
M  V30 9 1 9 7
M  V30 10 1 10 9
M  V30 11 1 11 10
M  V30 12 1 12 6
M  V30 13 1 12 11
M  V30 14 1 13 4
M  V30 15 1 14 5
M  V30 16 1 15 8
M  V30 17 1 16 9
M  V30 18 1 17 9
M  V30 19 1 18 10
M  V30 20 1 19 10
M  V30 21 1 20 11
M  V30 22 1 21 12
M  V30 23 1 22 12
M  V30 24 1 23 11
M  V30 END BOND
M  V30 END CTAB
M  END
>  <b_m_subgroup_collapsed>  (1697) 
0

>  <r_i_docking_score>  (1697) 
-6.7982064316631901

>  <s_m_subgroup_title>  (1697) 
glide-dock_SP_D22_pv

>  <s_m_subgroupid>  (1697) 
glide-dock_SP_D22_pv

>  <Molecule ChEMBL ID>  (1697) 
CHEMBL4076796

>  <Standard Type>  (1697) 
Ki

>  <Standard Value>  (1697) 
53800.0

>  <label>  (1697) 
0

$$$$
CHEMBL1173436
     RDKit          3D

  0  0  0  0  0  0  0  0  0  0999 V3000
M  V30 BEGIN CTAB
M  V30 COUNTS 53 57 0 0 1
M  V30 BEGIN ATOM
M  V30 1 C 12.084355 8.687401 -10.646865 0
M  V30 2 O 12.410578 7.772324 -9.616523 0
M  V30 3 C 11.827171 8.077655 -8.417809 0
M  V30 4 C 12.486021 8.972324 -7.559202 0
M  V30 5 C 11.911626 9.381313 -6.345644 0
M  V30 6 C 10.671751 8.851720 -5.965983 0
M  V30 7 C 10.050323 7.893734 -6.784909 0
M  V30 8 N 8.886024 7.176278 -6.646864 0
M  V30 9 C 8.715319 6.302324 -7.697219 0
M  V30 10 C 9.723284 6.493951 -8.599702 0
M  V30 11 C 9.878107 5.774640 -9.890180 0
M  V30 12 N 8.656819 5.875819 -10.725965 0 CFG=2 CHG=1
M  V30 13 C 7.967407 4.572325 -10.782041 0
M  V30 14 C 6.674975 4.664991 -11.584479 0
M  V30 15 C 6.977742 4.976705 -13.050234 0 CFG=2
M  V30 16 N 7.591816 3.826914 -13.763351 0
M  V30 17 C 8.810618 3.717913 -14.368265 0
M  V30 18 O 9.650746 4.597656 -14.528347 0
M  V30 19 N 8.960015 2.456749 -14.805765 0
M  V30 20 C 7.822663 1.715911 -14.517791 0
M  V30 21 C 7.533667 0.363367 -14.754653 0
M  V30 22 C 6.279036 -0.113771 -14.312485 0
M  V30 23 C 5.362606 0.756425 -13.669137 0
M  V30 24 C 5.686017 2.116608 -13.446865 0
M  V30 25 C 6.947163 2.570980 -13.879827 0
M  V30 26 C 7.747329 6.324363 -13.046866 0
M  V30 27 C 8.950735 6.402888 -12.081198 0
M  V30 28 C 10.605060 7.478074 -8.029939 0
M  V30 29 H 12.807422 8.595495 -11.457004 0
M  V30 30 H 11.094415 8.476295 -11.046866 0
M  V30 31 H 12.086018 9.721620 -10.303494 0
M  V30 32 H 13.445273 9.372322 -7.853536 0
M  V30 33 H 12.422419 10.096224 -5.716648 0
M  V30 34 H 10.217372 9.167928 -5.044867 0
M  V30 35 H 8.214668 7.253352 -5.892713 0
M  V30 36 H 7.847325 5.658800 -7.736327 0
M  V30 37 H 10.733200 6.172327 -10.428743 0
M  V30 38 H 10.121749 4.730311 -9.691349 0
M  V30 39 H 8.632580 3.843365 -11.247915 0
M  V30 40 H 7.754547 4.217834 -9.774180 0
M  V30 41 H 6.103241 3.752172 -11.446867 0
M  V30 42 H 6.051847 5.468942 -11.188802 0
M  V30 43 H 6.021956 5.143604 -13.548111 0
M  V30 44 H 9.765226 2.088404 -15.289210 0
M  V30 45 H 8.239043 -0.289964 -15.247074 0
M  V30 46 H 6.016394 -1.149622 -14.475544 0
M  V30 47 H 4.399399 0.380754 -13.357956 0
M  V30 48 H 4.970066 2.772992 -12.976752 0
M  V30 49 H 8.086022 6.572172 -14.046634 0
M  V30 50 H 7.046488 7.113902 -12.768791 0
M  V30 51 H 9.266322 7.442336 -11.995564 0
M  V30 52 H 9.803167 5.861794 -12.485561 0
M  V30 53 H 8.013800 6.531910 -10.286560 0
M  V30 END ATOM
M  V30 BEGIN BOND
M  V30 1 1 2 1
M  V30 2 1 3 2
M  V30 3 1 4 3
M  V30 4 2 5 4
M  V30 5 1 6 5
M  V30 6 2 7 6
M  V30 7 1 8 7
M  V30 8 1 9 8
M  V30 9 2 10 9
M  V30 10 1 11 10
M  V30 11 1 12 11
M  V30 12 1 13 12
M  V30 13 1 14 13
M  V30 14 1 15 14
M  V30 15 1 16 15
M  V30 16 1 17 16
M  V30 17 2 18 17
M  V30 18 1 19 17
M  V30 19 1 20 19
M  V30 20 2 21 20
M  V30 21 1 22 21
M  V30 22 2 23 22
M  V30 23 1 24 23
M  V30 24 1 25 16
M  V30 25 1 25 20
M  V30 26 2 25 24
M  V30 27 1 26 15
M  V30 28 1 27 12
M  V30 29 1 27 26
M  V30 30 2 28 3
M  V30 31 1 28 7
M  V30 32 1 28 10
M  V30 33 1 29 1
M  V30 34 1 30 1
M  V30 35 1 31 1
M  V30 36 1 32 4
M  V30 37 1 33 5
M  V30 38 1 34 6
M  V30 39 1 35 8
M  V30 40 1 36 9
M  V30 41 1 37 11
M  V30 42 1 38 11
M  V30 43 1 39 13
M  V30 44 1 40 13
M  V30 45 1 41 14
M  V30 46 1 42 14
M  V30 47 1 15 43 CFG=3
M  V30 48 1 44 19
M  V30 49 1 45 21
M  V30 50 1 46 22
M  V30 51 1 47 23
M  V30 52 1 48 24
M  V30 53 1 49 26
M  V30 54 1 50 26
M  V30 55 1 51 27
M  V30 56 1 52 27
M  V30 57 1 12 53 CFG=1
M  V30 END BOND
M  V30 END CTAB
M  END
>  <b_m_subgroup_collapsed>  (1698) 
0

>  <r_i_docking_score>  (1698) 
-6.7979884011862204

>  <s_m_subgroup_title>  (1698) 
glide-dock_SP_D22_pv

>  <s_m_subgroupid>  (1698) 
glide-dock_SP_D22_pv

>  <Molecule ChEMBL ID>  (1698) 
CHEMBL1173436

>  <Standard Type>  (1698) 
Ki

>  <Standard Value>  (1698) 
23.3

>  <label>  (1698) 
1

$$$$
CHEMBL109897
     RDKit          3D

  0  0  0  0  0  0  0  0  0  0999 V3000
M  V30 BEGIN CTAB
M  V30 COUNTS 91 98 0 0 1
M  V30 BEGIN ATOM
M  V30 1 C 13.024019 7.712446 -16.165815 0
M  V30 2 C 12.770079 6.765488 -14.987538 0
M  V30 3 C 12.002688 7.469545 -13.835685 0
M  V30 4 N 11.246270 6.572021 -12.913050 0 CFG=2 CHG=1
M  V30 5 C 10.223088 5.749103 -13.625943 0
M  V30 6 C 10.320366 4.277807 -13.196733 0
M  V30 7 C 9.213675 3.398178 -13.736997 0
M  V30 8 C 7.856937 3.766329 -13.582585 0
M  V30 9 C 6.839482 2.868213 -13.960079 0
M  V30 10 C 7.168479 1.597763 -14.477062 0
M  V30 11 N 6.144020 0.682781 -14.743863 0
M  V30 12 C 5.846117 -0.161465 -15.800789 0
M  V30 13 S 6.974892 0.008198 -17.241890 0
M  V30 14 N 4.836739 -0.971771 -15.809221 0
M  V30 15 C 4.719171 -1.853612 -16.879898 0
M  V30 16 C 4.071424 -1.476259 -18.086782 0
M  V30 17 C 4.030960 -2.365227 -19.183531 0
M  V30 18 C 4.637535 -3.625302 -19.034191 0
M  V30 19 C 5.244948 -4.001445 -17.851860 0
M  V30 20 C 5.286032 -3.141013 -16.747942 0
M  V30 21 C 5.744976 -5.369183 -17.994917 0
M  V30 22 O 6.367033 -6.028060 -17.161856 0
M  V30 23 O 5.413407 -5.768596 -19.254208 0
M  V30 24 C 4.726304 -4.761539 -20.017199 0 CFG=1
M  V30 25 C 3.325407 -5.218223 -20.409435 0
M  V30 26 C 2.510245 -5.906574 -19.480721 0
M  V30 27 C 1.201318 -6.285752 -19.834890 0
M  V30 28 C 0.691992 -5.973222 -21.110264 0
M  V30 29 O -0.584298 -6.322201 -21.447353 0 CHG=-1
M  V30 30 C 1.499317 -5.285922 -22.033066 0
M  V30 31 C 2.811467 -4.899853 -21.689316 0
M  V30 32 O 3.545428 -4.198817 -22.615824 0
M  V30 33 C 4.906210 -4.082968 -22.464787 0
M  V30 34 C 5.667642 -3.675423 -23.577160 0
M  V30 35 C 7.065004 -3.533267 -23.474129 0
M  V30 36 O 7.790352 -3.141833 -24.560179 0
M  V30 37 C 7.708263 -3.790703 -22.248178 0
M  V30 38 C 6.952230 -4.193418 -21.132421 0
M  V30 39 C 5.550076 -4.347905 -21.232941 0
M  V30 40 C 8.523220 1.243799 -14.646117 0
M  V30 41 C 9.539865 2.146528 -14.291434 0
M  V30 42 C 10.690170 7.280995 -11.696347 0 CFG=1
M  V30 43 C 9.662678 6.466916 -10.863854 0
M  V30 44 C 9.050305 7.314932 -9.753733 0
M  V30 45 C 10.093587 7.916369 -8.842440 0
M  V30 46 C 9.755523 8.289918 -7.522207 0
M  V30 47 O 8.486143 8.149547 -7.046107 0
M  V30 48 C 10.735386 8.828705 -6.667312 0
M  V30 49 C 12.058575 8.972337 -7.118755 0
M  V30 50 C 12.400536 8.574342 -8.426225 0
M  V30 51 C 11.413541 8.100818 -9.313181 0
M  V30 52 C 11.816253 7.762969 -10.745546 0
M  V30 53 H 13.672378 7.244134 -16.908949 0
M  V30 54 H 12.087974 7.967989 -16.665134 0
M  V30 55 H 13.498381 8.641470 -15.845205 0
M  V30 56 H 13.730495 6.393569 -14.646779 0
M  V30 57 H 12.263474 5.887712 -15.382298 0
M  V30 58 H 11.292999 8.174520 -14.247202 0
M  V30 59 H 12.727923 8.063763 -13.280894 0
M  V30 60 H 10.322070 5.772163 -14.708015 0
M  V30 61 H 9.230717 6.168894 -13.471648 0
M  V30 62 H 10.294196 4.171353 -12.115445 0
M  V30 63 H 11.286001 3.876753 -13.507722 0
M  V30 64 H 7.581460 4.707425 -13.135363 0
M  V30 65 H 5.807281 3.149309 -13.815475 0
M  V30 66 H 5.407174 0.769573 -14.061736 0
M  V30 67 H 6.391939 -0.931336 -17.995916 0
M  V30 68 H 3.619058 -0.498723 -18.176613 0
M  V30 69 H 3.549194 -2.085631 -20.109272 0
M  V30 70 H 5.750859 -3.451442 -15.825678 0
M  V30 71 H 2.883572 -6.131317 -18.491890 0
M  V30 72 H 0.583587 -6.800299 -19.114143 0
M  V30 73 H 1.104830 -5.037823 -23.007944 0
M  V30 74 H 5.173559 -3.471942 -24.516151 0
M  V30 75 H 8.716062 -3.070204 -24.388609 0
M  V30 76 H 8.778895 -3.679710 -22.154501 0
M  V30 77 H 7.456780 -4.378202 -20.194666 0
M  V30 78 H 8.793249 0.265375 -15.017713 0
M  V30 79 H 10.572052 1.843028 -14.394801 0
M  V30 80 H 10.147758 8.158282 -12.056167 0
M  V30 81 H 8.818490 6.096105 -11.442821 0
M  V30 82 H 10.136052 5.597888 -10.409507 0
M  V30 83 H 8.356750 6.697337 -9.182767 0
M  V30 84 H 8.491691 8.141631 -10.188041 0
M  V30 85 H 7.829843 7.775804 -7.626665 0
M  V30 86 H 10.470533 9.126379 -5.662865 0
M  V30 87 H 12.816504 9.372371 -6.459492 0
M  V30 88 H 13.421028 8.694201 -8.761971 0
M  V30 89 H 12.539400 6.972231 -10.646218 0
M  V30 90 H 12.343531 8.622275 -11.158836 0
M  V30 91 H 11.929794 5.909655 -12.575725 0
M  V30 END ATOM
M  V30 BEGIN BOND
M  V30 1 1 2 1
M  V30 2 1 3 2
M  V30 3 1 4 3
M  V30 4 1 5 4
M  V30 5 1 6 5
M  V30 6 1 7 6
M  V30 7 1 8 7
M  V30 8 2 9 8
M  V30 9 1 10 9
M  V30 10 1 11 10
M  V30 11 1 12 11
M  V30 12 1 13 12
M  V30 13 2 14 12
M  V30 14 1 15 14
M  V30 15 1 16 15
M  V30 16 2 17 16
M  V30 17 1 18 17
M  V30 18 2 19 18
M  V30 19 2 20 15
M  V30 20 1 20 19
M  V30 21 1 21 19
M  V30 22 2 22 21
M  V30 23 1 23 21
M  V30 24 1 24 18
M  V30 25 1 24 23 CFG=1
M  V30 26 1 25 24
M  V30 27 1 26 25
M  V30 28 2 27 26
M  V30 29 1 28 27
M  V30 30 1 29 28
M  V30 31 2 30 28
M  V30 32 2 31 25
M  V30 33 1 31 30
M  V30 34 1 32 31
M  V30 35 1 33 32
M  V30 36 1 34 33
M  V30 37 2 35 34
M  V30 38 1 36 35
M  V30 39 1 37 35
M  V30 40 2 38 37
M  V30 41 1 39 24
M  V30 42 2 39 33
M  V30 43 1 39 38
M  V30 44 2 40 10
M  V30 45 2 41 7
M  V30 46 1 41 40
M  V30 47 1 42 4
M  V30 48 1 43 42
M  V30 49 1 44 43
M  V30 50 1 45 44
M  V30 51 2 46 45
M  V30 52 1 47 46
M  V30 53 1 48 46
M  V30 54 2 49 48
M  V30 55 1 50 49
M  V30 56 1 51 45
M  V30 57 2 51 50
M  V30 58 1 52 42
M  V30 59 1 52 51
M  V30 60 1 53 1
M  V30 61 1 54 1
M  V30 62 1 55 1
M  V30 63 1 56 2
M  V30 64 1 57 2
M  V30 65 1 58 3
M  V30 66 1 59 3
M  V30 67 1 60 5
M  V30 68 1 61 5
M  V30 69 1 62 6
M  V30 70 1 63 6
M  V30 71 1 64 8
M  V30 72 1 65 9
M  V30 73 1 66 11
M  V30 74 1 67 13
M  V30 75 1 68 16
M  V30 76 1 69 17
M  V30 77 1 70 20
M  V30 78 1 71 26
M  V30 79 1 72 27
M  V30 80 1 73 30
M  V30 81 1 74 34
M  V30 82 1 75 36
M  V30 83 1 76 37
M  V30 84 1 77 38
M  V30 85 1 78 40
M  V30 86 1 79 41
M  V30 87 1 42 80 CFG=3
M  V30 88 1 81 43
M  V30 89 1 82 43
M  V30 90 1 83 44
M  V30 91 1 84 44
M  V30 92 1 85 47
M  V30 93 1 86 48
M  V30 94 1 87 49
M  V30 95 1 88 50
M  V30 96 1 89 52
M  V30 97 1 90 52
M  V30 98 1 4 91 CFG=1
M  V30 END BOND
M  V30 END CTAB
M  END
>  <b_m_subgroup_collapsed>  (1699) 
0

>  <r_i_docking_score>  (1699) 
-6.7955366622021902

>  <s_m_subgroup_title>  (1699) 
glide-dock_SP_D22_pv

>  <s_m_subgroupid>  (1699) 
glide-dock_SP_D22_pv

>  <Molecule ChEMBL ID>  (1699) 
CHEMBL109897

>  <Standard Type>  (1699) 
Ki

>  <Standard Value>  (1699) 
4.8

>  <label>  (1699) 
1

$$$$
CHEMBL5273758
     RDKit          3D

  0  0  0  0  0  0  0  0  0  0999 V3000
M  V30 BEGIN CTAB
M  V30 COUNTS 43 46 0 0 1
M  V30 BEGIN ATOM
M  V30 1 C 8.252789 4.599212 -8.598043 0
M  V30 2 N 8.486031 5.958350 -9.124254 0 CFG=1 CHG=1
M  V30 3 C 9.211271 6.786832 -8.119837 0
M  V30 4 C 9.449045 8.234943 -8.594686 0
M  V30 5 C 10.007339 8.366023 -10.029366 0 CFG=1
M  V30 6 C 11.498043 8.574308 -10.191465 0
M  V30 7 C 12.181366 8.145471 -11.269974 0
M  V30 8 O 13.438493 8.572324 -11.446865 0
M  V30 9 C 11.557723 7.304633 -12.297259 0
M  V30 10 O 12.315413 6.862051 -13.305567 0
M  V30 11 C 10.277191 6.891480 -12.153592 0
M  V30 12 C 9.475806 5.756245 -12.823915 0 CFG=1
M  V30 13 C 10.161141 4.741510 -13.769456 0
M  V30 14 C 10.555147 5.152418 -15.064078 0
M  V30 15 C 11.120620 4.256108 -15.990354 0
M  V30 16 C 11.285985 2.905475 -15.645807 0
M  V30 17 C 10.886022 2.467277 -14.373084 0
M  V30 18 C 10.338388 3.374770 -13.446862 0
M  V30 19 C 8.680728 5.167138 -11.602863 0
M  V30 20 C 9.253945 5.924478 -10.383494 0 CFG=1
M  V30 21 C 9.440856 7.300239 -10.974071 0 CFG=1
M  V30 22 H 9.191317 4.085175 -8.387985 0
M  V30 23 H 7.686023 3.989188 -9.301808 0
M  V30 24 H 7.686024 4.662958 -7.672813 0
M  V30 25 H 8.640164 6.808576 -7.189881 0
M  V30 26 H 10.170023 6.320335 -7.885947 0
M  V30 27 H 8.486028 8.746697 -8.565029 0
M  V30 28 H 10.079705 8.769977 -7.884034 0
M  V30 29 H 9.617029 9.319862 -10.385639 0
M  V30 30 H 11.974891 9.223220 -9.470342 0
M  V30 31 H 13.621001 9.244833 -10.794836 0
M  V30 32 H 13.206013 7.131148 -13.125617 0
M  V30 33 H 8.728835 6.248298 -13.446862 0
M  V30 34 H 10.434081 6.172332 -15.368809 0
M  V30 35 H 11.420893 4.606143 -16.967058 0
M  V30 36 H 11.717899 2.210007 -16.350569 0
M  V30 37 H 11.008055 1.430004 -14.097628 0
M  V30 38 H 10.077183 2.972328 -12.482943 0
M  V30 39 H 7.618786 5.392955 -11.717863 0
M  V30 40 H 8.744319 4.095300 -11.457056 0
M  V30 41 H 10.227643 5.492939 -10.138869 0
M  V30 42 H 8.486018 7.676353 -11.344189 0
M  V30 43 H 7.593321 6.413711 -9.307234 0
M  V30 END ATOM
M  V30 BEGIN BOND
M  V30 1 1 2 1
M  V30 2 1 3 2
M  V30 3 1 4 3
M  V30 4 1 5 4
M  V30 5 1 6 5
M  V30 6 2 7 6
M  V30 7 1 8 7
M  V30 8 1 9 7
M  V30 9 1 10 9
M  V30 10 2 11 9
M  V30 11 1 12 11
M  V30 12 1 13 12
M  V30 13 2 14 13
M  V30 14 1 15 14
M  V30 15 2 16 15
M  V30 16 1 17 16
M  V30 17 1 18 13
M  V30 18 2 18 17
M  V30 19 1 19 12
M  V30 20 1 20 2
M  V30 21 1 20 19
M  V30 22 1 21 5
M  V30 23 1 21 11
M  V30 24 1 21 20
M  V30 25 1 22 1
M  V30 26 1 23 1
M  V30 27 1 24 1
M  V30 28 1 25 3
M  V30 29 1 26 3
M  V30 30 1 27 4
M  V30 31 1 28 4
M  V30 32 1 5 29 CFG=3
M  V30 33 1 30 6
M  V30 34 1 31 8
M  V30 35 1 32 10
M  V30 36 1 12 33 CFG=3
M  V30 37 1 34 14
M  V30 38 1 35 15
M  V30 39 1 36 16
M  V30 40 1 37 17
M  V30 41 1 38 18
M  V30 42 1 39 19
M  V30 43 1 40 19
M  V30 44 1 20 41 CFG=1
M  V30 45 1 21 42 CFG=3
M  V30 46 1 2 43 CFG=3
M  V30 END BOND
M  V30 END CTAB
M  END
>  <b_m_subgroup_collapsed>  (1700) 
0

>  <r_i_docking_score>  (1700) 
-6.7950476647629898

>  <s_m_subgroup_title>  (1700) 
glide-dock_SP_D22_pv

>  <s_m_subgroupid>  (1700) 
glide-dock_SP_D22_pv

>  <Molecule ChEMBL ID>  (1700) 
CHEMBL5273758

>  <Standard Type>  (1700) 
Ki

>  <Standard Value>  (1700) 
12.88

>  <label>  (1700) 
1

$$$$
CHEMBL5722971
     RDKit          3D

  0  0  0  0  0  0  0  0  0  0999 V3000
M  V30 BEGIN CTAB
M  V30 COUNTS 41 43 0 0 1
M  V30 BEGIN ATOM
M  V30 1 C 10.138859 2.981647 -14.403283 0
M  V30 2 C 9.192033 3.749482 -13.504230 0
M  V30 3 N 9.580643 4.487158 -12.514422 0
M  V30 4 C 8.604747 5.139246 -11.743872 0
M  V30 5 C 9.088604 6.019689 -10.610361 0
M  V30 6 C 9.049295 5.294492 -9.249337 0
M  V30 7 N 9.238078 6.195563 -8.116426 0
M  V30 8 C 10.503895 6.903617 -8.219611 0
M  V30 9 C 10.842093 7.657010 -6.955224 0
M  V30 10 C 10.877460 9.002178 -6.894375 0
M  V30 11 C 11.280782 9.694574 -5.653719 0
M  V30 12 O 11.285072 10.920474 -5.583574 0
M  V30 13 C 11.679821 8.822042 -4.510798 0
M  V30 14 C 12.083085 9.371603 -3.275332 0
M  V30 15 C 12.485836 8.517036 -2.234131 0
M  V30 16 F 12.905177 9.027649 -1.062804 0
M  V30 17 C 12.485304 7.122652 -2.409987 0
M  V30 18 C 12.062576 6.572919 -3.626756 0
M  V30 19 C 11.647533 7.413662 -4.671014 0
M  V30 20 N 11.207487 6.867198 -5.879362 0
M  V30 21 C 7.286529 5.019294 -12.035265 0
M  V30 22 C 6.844464 4.172571 -13.143248 0
M  V30 23 O 5.667403 3.993722 -13.446802 0
M  V30 24 N 7.844741 3.584346 -13.837118 0
M  V30 25 H 10.701161 2.252210 -13.820927 0
M  V30 26 H 9.607058 2.449679 -15.193538 0
M  V30 27 H 10.846748 3.667748 -14.869371 0
M  V30 28 H 8.486275 6.927007 -10.578979 0
M  V30 29 H 10.103425 6.341943 -10.844451 0
M  V30 30 H 9.803804 4.507675 -9.224022 0
M  V30 31 H 8.086158 4.802392 -9.122741 0
M  V30 32 H 8.458409 6.848586 -8.081391 0
M  V30 33 H 10.493654 7.599269 -9.057639 0
M  V30 34 H 11.285589 6.173018 -8.414009 0
M  V30 35 H 10.621334 9.602893 -7.753590 0
M  V30 36 H 12.086649 10.438105 -3.107689 0
M  V30 37 H 12.817124 6.473499 -1.614852 0
M  V30 38 H 12.085808 5.508594 -3.764185 0
M  V30 39 H 11.126760 5.863288 -5.963659 0
M  V30 40 H 6.550966 5.547959 -11.445713 0
M  V30 41 H 7.593626 2.982822 -14.606840 0
M  V30 END ATOM
M  V30 BEGIN BOND
M  V30 1 1 2 1
M  V30 2 2 3 2
M  V30 3 1 4 3
M  V30 4 1 5 4
M  V30 5 1 6 5
M  V30 6 1 7 6
M  V30 7 1 8 7
M  V30 8 1 9 8
M  V30 9 2 10 9
M  V30 10 1 11 10
M  V30 11 2 12 11
M  V30 12 1 13 11
M  V30 13 2 14 13
M  V30 14 1 15 14
M  V30 15 1 16 15
M  V30 16 2 17 15
M  V30 17 1 18 17
M  V30 18 1 19 13
M  V30 19 2 19 18
M  V30 20 1 20 9
M  V30 21 1 20 19
M  V30 22 2 21 4
M  V30 23 1 22 21
M  V30 24 2 23 22
M  V30 25 1 24 2
M  V30 26 1 24 22
M  V30 27 1 25 1
M  V30 28 1 26 1
M  V30 29 1 27 1
M  V30 30 1 28 5
M  V30 31 1 29 5
M  V30 32 1 30 6
M  V30 33 1 31 6
M  V30 34 1 32 7
M  V30 35 1 33 8
M  V30 36 1 34 8
M  V30 37 1 35 10
M  V30 38 1 36 14
M  V30 39 1 37 17
M  V30 40 1 38 18
M  V30 41 1 39 20
M  V30 42 1 40 21
M  V30 43 1 41 24
M  V30 END BOND
M  V30 END CTAB
M  END
>  <b_m_subgroup_collapsed>  (1701) 
0

>  <r_i_docking_score>  (1701) 
-6.7932634907391396

>  <s_m_subgroup_title>  (1701) 
glide-dock_SP_D22_pv

>  <s_m_subgroupid>  (1701) 
glide-dock_SP_D22_pv

>  <Molecule ChEMBL ID>  (1701) 
CHEMBL5722971

>  <Standard Type>  (1701) 
Ki

>  <Standard Value>  (1701) 
10000.0

>  <label>  (1701) 
0

$$$$
CHEMBL4858961
     RDKit          3D

  0  0  0  0  0  0  0  0  0  0999 V3000
M  V30 BEGIN CTAB
M  V30 COUNTS 52 53 0 0 1
M  V30 BEGIN ATOM
M  V30 1 C 12.030197 6.692097 -2.549557 0
M  V30 2 C 11.944375 7.503195 -3.850274 0
M  V30 3 C 11.233034 6.723409 -4.967015 0
M  V30 4 N 11.269591 7.404467 -6.282881 0 CFG=2 CHG=1
M  V30 5 C 10.641983 8.733443 -6.324327 0
M  V30 6 C 10.441365 9.025289 -7.803179 0
M  V30 7 C 10.368547 7.652047 -8.496214 0 CFG=2
M  V30 8 C 9.016930 7.442574 -9.199389 0
M  V30 9 N 9.025260 6.374754 -10.188993 0
M  V30 10 C 9.429102 6.549390 -11.456601 0
M  V30 11 O 10.092834 7.516237 -11.833590 0
M  V30 12 C 8.995729 5.477796 -12.414326 0
M  V30 13 C 7.623465 5.131871 -12.547019 0
M  V30 14 O 6.629712 5.771144 -11.847309 0
M  V30 15 C 7.246503 4.105049 -13.443818 0
M  V30 16 C 5.785899 3.735629 -13.638794 0
M  V30 17 C 5.298234 2.674649 -12.645363 0
M  V30 18 C 8.222253 3.405998 -14.178149 0
M  V30 19 C 9.575846 3.760320 -14.071188 0
M  V30 20 Cl 10.745048 2.855654 -14.963202 0
M  V30 21 C 9.962266 4.824616 -13.224693 0
M  V30 22 O 11.287738 5.170794 -13.147635 0
M  V30 23 C 11.751070 5.983654 -14.219491 0
M  V30 24 C 10.646578 6.631481 -7.376860 0
M  V30 25 H 12.506674 7.279794 -1.763589 0
M  V30 26 H 11.036935 6.407639 -2.196667 0
M  V30 27 H 12.608737 5.773601 -2.680698 0
M  V30 28 H 12.951002 7.781281 -4.161611 0
M  V30 29 H 11.416403 8.436428 -3.644640 0
M  V30 30 H 10.202318 6.511614 -4.682725 0
M  V30 31 H 11.732651 5.772295 -5.083612 0
M  V30 32 H 11.240260 9.498524 -5.826108 0
M  V30 33 H 9.665946 8.685826 -5.845847 0
M  V30 34 H 11.285268 9.593081 -8.198093 0
M  V30 35 H 9.542077 9.620446 -7.957052 0
M  V30 36 H 11.177032 7.612397 -9.230124 0
M  V30 37 H 8.704810 8.365974 -9.690018 0
M  V30 38 H 8.247402 7.221005 -8.463120 0
M  V30 39 H 8.469979 5.555768 -9.982010 0
M  V30 40 H 6.846083 6.502524 -11.269337 0
M  V30 41 H 5.153569 4.625296 -13.582387 0
M  V30 42 H 5.685281 3.365748 -14.654456 0
M  V30 43 H 4.248919 2.431306 -12.817385 0
M  V30 44 H 5.873564 1.753110 -12.740636 0
M  V30 45 H 5.394456 3.032195 -11.618595 0
M  V30 46 H 7.928456 2.600823 -14.836378 0
M  V30 47 H 12.830915 6.120015 -14.128958 0
M  V30 48 H 11.549294 5.542804 -15.197689 0
M  V30 49 H 11.287445 6.971380 -14.186496 0
M  V30 50 H 9.706900 6.202764 -7.012000 0
M  V30 51 H 11.284245 5.807587 -7.700840 0
M  V30 52 H 12.238339 7.533310 -6.544686 0
M  V30 END ATOM
M  V30 BEGIN BOND
M  V30 1 1 2 1
M  V30 2 1 3 2
M  V30 3 1 4 3
M  V30 4 1 5 4
M  V30 5 1 6 5
M  V30 6 1 7 6
M  V30 7 1 8 7
M  V30 8 1 9 8
M  V30 9 1 10 9
M  V30 10 2 11 10
M  V30 11 1 12 10
M  V30 12 1 13 12
M  V30 13 1 14 13
M  V30 14 2 15 13
M  V30 15 1 16 15
M  V30 16 1 17 16
M  V30 17 1 18 15
M  V30 18 2 19 18
M  V30 19 1 20 19
M  V30 20 2 21 12
M  V30 21 1 21 19
M  V30 22 1 22 21
M  V30 23 1 23 22
M  V30 24 1 24 4
M  V30 25 1 24 7
M  V30 26 1 25 1
M  V30 27 1 26 1
M  V30 28 1 27 1
M  V30 29 1 28 2
M  V30 30 1 29 2
M  V30 31 1 30 3
M  V30 32 1 31 3
M  V30 33 1 32 5
M  V30 34 1 33 5
M  V30 35 1 34 6
M  V30 36 1 35 6
M  V30 37 1 7 36 CFG=3
M  V30 38 1 37 8
M  V30 39 1 38 8
M  V30 40 1 39 9
M  V30 41 1 40 14
M  V30 42 1 41 16
M  V30 43 1 42 16
M  V30 44 1 43 17
M  V30 45 1 44 17
M  V30 46 1 45 17
M  V30 47 1 46 18
M  V30 48 1 47 23
M  V30 49 1 48 23
M  V30 50 1 49 23
M  V30 51 1 50 24
M  V30 52 1 51 24
M  V30 53 1 4 52 CFG=3
M  V30 END BOND
M  V30 END CTAB
M  END
>  <b_m_subgroup_collapsed>  (1702) 
0

>  <r_i_docking_score>  (1702) 
-6.7913954569850796

>  <s_m_subgroup_title>  (1702) 
glide-dock_SP_D22_pv

>  <s_m_subgroupid>  (1702) 
glide-dock_SP_D22_pv

>  <Molecule ChEMBL ID>  (1702) 
CHEMBL4858961

>  <Standard Type>  (1702) 
Ki

>  <Standard Value>  (1702) 
66.4

>  <label>  (1702) 
1

$$$$
CHEMBL3792751
     RDKit          3D

  0  0  0  0  0  0  0  0  0  0999 V3000
M  V30 BEGIN CTAB
M  V30 COUNTS 45 48 0 0 1
M  V30 BEGIN ATOM
M  V30 1 F 12.529975 8.212049 -1.430396 0
M  V30 2 C 12.115541 8.101482 -2.707565 0
M  V30 3 C 11.698853 6.858225 -3.214894 0
M  V30 4 C 11.285976 6.744086 -4.557308 0
M  V30 5 C 11.286490 7.863279 -5.422118 0
M  V30 6 C 10.952268 8.071035 -6.804395 0
M  V30 7 C 10.385723 7.027479 -7.729838 0
M  V30 8 N 10.331206 7.224487 -9.179012 0
M  V30 9 C 9.420182 8.296112 -9.562215 0
M  V30 10 C 9.353401 8.479690 -11.088052 0
M  V30 11 O 9.024616 7.259437 -11.747348 0
M  V30 12 C 9.868738 6.172390 -11.386691 0 CFG=2
M  V30 13 C 9.371518 4.908207 -12.110816 0
M  V30 14 O 10.181674 4.682476 -13.260661 0
M  V30 15 C 9.923098 3.563640 -14.022525 0
M  V30 16 C 10.932643 3.083951 -14.878184 0
M  V30 17 C 10.684261 1.921748 -15.629996 0
M  V30 18 C 9.430092 1.293858 -15.510216 0
M  V30 19 C 8.469521 1.861980 -14.648901 0
M  V30 20 Cl 6.920290 1.110859 -14.517681 0
M  V30 21 N 8.709030 2.972023 -13.921626 0
M  V30 22 C 9.865854 6.013846 -9.851736 0
M  V30 23 C 11.297866 9.370199 -7.082078 0
M  V30 24 N 11.715058 9.997497 -5.923411 0
M  V30 25 C 11.737733 9.103352 -4.876962 0
M  V30 26 C 12.128961 9.230829 -3.534630 0
M  V30 27 H 11.694836 5.990559 -2.571985 0
M  V30 28 H 10.967088 5.780725 -4.928552 0
M  V30 29 H 9.379021 6.789918 -7.382755 0
M  V30 30 H 10.952190 6.111104 -7.548154 0
M  V30 31 H 9.697921 9.244518 -9.118321 0
M  V30 32 H 8.439049 8.077666 -9.161030 0
M  V30 33 H 10.319845 8.837033 -11.447465 0
M  V30 34 H 8.613316 9.235818 -11.347997 0
M  V30 35 H 10.885435 6.397532 -11.712665 0
M  V30 36 H 8.314378 5.011360 -12.362594 0
M  V30 37 H 9.468199 4.040795 -11.455830 0
M  V30 38 H 11.885171 3.587968 -14.939645 0
M  V30 39 H 11.444050 1.518275 -16.282293 0
M  V30 40 H 9.206863 0.397603 -16.071018 0
M  V30 41 H 8.853470 5.763335 -9.522201 0
M  V30 42 H 10.485278 5.163246 -9.567331 0
M  V30 43 H 11.285589 9.909051 -8.013157 0
M  V30 44 H 12.017984 10.959496 -5.894381 0
M  V30 45 H 12.469460 10.172734 -3.139766 0
M  V30 END ATOM
M  V30 BEGIN BOND
M  V30 1 1 2 1
M  V30 2 1 3 2
M  V30 3 2 4 3
M  V30 4 1 5 4
M  V30 5 1 6 5
M  V30 6 1 7 6
M  V30 7 1 8 7
M  V30 8 1 9 8
M  V30 9 1 10 9
M  V30 10 1 11 10
M  V30 11 1 12 11
M  V30 12 1 13 12
M  V30 13 1 14 13
M  V30 14 1 15 14
M  V30 15 2 16 15
M  V30 16 1 17 16
M  V30 17 2 18 17
M  V30 18 1 19 18
M  V30 19 1 20 19
M  V30 20 1 21 15
M  V30 21 2 21 19
M  V30 22 1 22 8
M  V30 23 1 22 12
M  V30 24 2 23 6
M  V30 25 1 24 23
M  V30 26 2 25 5
M  V30 27 1 25 24
M  V30 28 2 26 2
M  V30 29 1 26 25
M  V30 30 1 27 3
M  V30 31 1 28 4
M  V30 32 1 29 7
M  V30 33 1 30 7
M  V30 34 1 31 9
M  V30 35 1 32 9
M  V30 36 1 33 10
M  V30 37 1 34 10
M  V30 38 1 12 35 CFG=3
M  V30 39 1 36 13
M  V30 40 1 37 13
M  V30 41 1 38 16
M  V30 42 1 39 17
M  V30 43 1 40 18
M  V30 44 1 41 22
M  V30 45 1 42 22
M  V30 46 1 43 23
M  V30 47 1 44 24
M  V30 48 1 45 26
M  V30 END BOND
M  V30 END CTAB
M  END
>  <b_m_subgroup_collapsed>  (1703) 
0

>  <r_i_docking_score>  (1703) 
-6.7909767191256698

>  <s_m_subgroup_title>  (1703) 
glide-dock_SP_D22_pv

>  <s_m_subgroupid>  (1703) 
glide-dock_SP_D22_pv

>  <Molecule ChEMBL ID>  (1703) 
CHEMBL3792751

>  <Standard Type>  (1703) 
Ki

>  <Standard Value>  (1703) 
10000.0

>  <label>  (1703) 
0

$$$$
CHEMBL34291
     RDKit          3D

  0  0  0  0  0  0  0  0  0  0999 V3000
M  V30 BEGIN CTAB
M  V30 COUNTS 45 47 0 0 1
M  V30 BEGIN ATOM
M  V30 1 C 12.457526 6.679098 -15.713774 0
M  V30 2 O 11.501575 6.098271 -14.836819 0
M  V30 3 C 11.182460 4.760494 -14.980424 0
M  V30 4 C 11.811247 3.925628 -15.941209 0
M  V30 5 C 11.453785 2.569167 -16.077303 0
M  V30 6 N 12.079856 1.782777 -17.047886 0
M  V30 7 C 10.475465 2.017437 -15.226875 0
M  V30 8 Cl 10.043511 0.348038 -15.338861 0
M  V30 9 C 9.841331 2.834147 -14.274265 0
M  V30 10 C 10.177542 4.201610 -14.140537 0
M  V30 11 C 9.400053 5.030617 -13.149586 0
M  V30 12 O 8.209119 4.795569 -12.941659 0
M  V30 13 N 10.085979 5.980826 -12.493337 0
M  V30 14 C 9.538244 6.928625 -11.526376 0
M  V30 15 C 9.618528 6.404005 -10.080116 0 CFG=2
M  V30 16 C 8.708958 5.206221 -9.799791 0
M  V30 17 C 8.553484 5.251190 -8.289179 0
M  V30 18 N 8.486559 6.684696 -7.950964 0 CFG=1 CHG=1
M  V30 19 C 9.092815 7.046052 -6.655218 0
M  V30 20 C 10.506255 7.523896 -6.994115 0
M  V30 21 C 10.325320 8.211658 -8.347648 0
M  V30 22 C 9.182456 7.438666 -9.023110 0 CFG=1
M  V30 23 H 12.555907 7.740584 -15.479761 0
M  V30 24 H 13.439401 6.225039 -15.592403 0
M  V30 25 H 12.143552 6.601027 -16.755384 0
M  V30 26 H 12.574778 4.313365 -16.599476 0
M  V30 27 H 11.974048 0.780050 -16.994043 0
M  V30 28 H 12.953697 2.094774 -17.447031 0
M  V30 29 H 9.086577 2.398834 -13.632705 0
M  V30 30 H 11.045390 6.120382 -12.781210 0
M  V30 31 H 10.109805 7.854974 -11.612969 0
M  V30 32 H 8.508568 7.181287 -11.790096 0
M  V30 33 H 10.642572 6.103787 -9.860893 0
M  V30 34 H 7.735789 5.342535 -10.274117 0
M  V30 35 H 9.131424 4.263312 -10.149779 0
M  V30 36 H 7.686147 4.706526 -7.922314 0
M  V30 37 H 9.445384 4.809752 -7.847179 0
M  V30 38 H 8.509434 7.871981 -6.247281 0
M  V30 39 H 9.077145 6.229253 -5.932574 0
M  V30 40 H 10.922935 8.185017 -6.235421 0
M  V30 41 H 11.171671 6.667116 -7.094014 0
M  V30 42 H 10.017960 9.244956 -8.187857 0
M  V30 43 H 11.241631 8.231302 -8.940036 0
M  V30 44 H 8.486504 8.153306 -9.458440 0
M  V30 45 H 7.499154 6.972175 -7.958143 0
M  V30 END ATOM
M  V30 BEGIN BOND
M  V30 1 1 2 1
M  V30 2 1 3 2
M  V30 3 1 4 3
M  V30 4 2 5 4
M  V30 5 1 6 5
M  V30 6 1 7 5
M  V30 7 1 8 7
M  V30 8 2 9 7
M  V30 9 2 10 3
M  V30 10 1 10 9
M  V30 11 1 11 10
M  V30 12 2 12 11
M  V30 13 1 13 11
M  V30 14 1 14 13
M  V30 15 1 15 14
M  V30 16 1 16 15
M  V30 17 1 17 16
M  V30 18 1 18 17
M  V30 19 1 19 18
M  V30 20 1 20 19
M  V30 21 1 21 20
M  V30 22 1 22 15
M  V30 23 1 22 18
M  V30 24 1 22 21
M  V30 25 1 23 1
M  V30 26 1 24 1
M  V30 27 1 25 1
M  V30 28 1 26 4
M  V30 29 1 27 6
M  V30 30 1 28 6
M  V30 31 1 29 9
M  V30 32 1 30 13
M  V30 33 1 31 14
M  V30 34 1 32 14
M  V30 35 1 15 33 CFG=1
M  V30 36 1 34 16
M  V30 37 1 35 16
M  V30 38 1 36 17
M  V30 39 1 37 17
M  V30 40 1 38 19
M  V30 41 1 39 19
M  V30 42 1 40 20
M  V30 43 1 41 20
M  V30 44 1 42 21
M  V30 45 1 43 21
M  V30 46 1 22 44 CFG=3
M  V30 47 1 18 45 CFG=1
M  V30 END BOND
M  V30 END CTAB
M  END
>  <b_m_subgroup_collapsed>  (1704) 
0

>  <r_i_docking_score>  (1704) 
-6.7897143782235503

>  <s_m_subgroup_title>  (1704) 
glide-dock_SP_D22_pv

>  <s_m_subgroupid>  (1704) 
glide-dock_SP_D22_pv

>  <Molecule ChEMBL ID>  (1704) 
CHEMBL34291

>  <Standard Type>  (1704) 
Ki

>  <Standard Value>  (1704) 
10000.0

>  <label>  (1704) 
0

$$$$
CHEMBL104497
     RDKit          3D

  0  0  0  0  0  0  0  0  0  0999 V3000
M  V30 BEGIN CTAB
M  V30 COUNTS 57 60 0 0 1
M  V30 BEGIN ATOM
M  V30 1 C 6.201039 1.296011 -13.796396 0
M  V30 2 C 6.887643 1.946986 -15.015466 0 CFG=2
M  V30 3 C 6.744812 1.030565 -16.256575 0
M  V30 4 C 8.157353 0.659110 -16.577444 0
M  V30 5 C 8.580113 -0.221271 -17.588217 0
M  V30 6 C 9.963254 -0.438567 -17.749815 0
M  V30 7 C 10.885656 0.221260 -16.908186 0
M  V30 8 C 10.442761 1.090595 -15.886633 0
M  V30 9 C 9.053968 1.308200 -15.735532 0
M  V30 10 N 8.347058 2.147659 -14.827596 0
M  V30 11 C 8.910283 3.133556 -14.075061 0
M  V30 12 O 10.126101 3.244879 -13.911019 0
M  V30 13 C 7.988892 4.169027 -13.395598 0
M  V30 14 C 8.712661 5.359319 -12.723815 0 CFG=1
M  V30 15 C 7.746542 6.534573 -12.516518 0
M  V30 16 C 8.480369 7.729616 -11.912319 0
M  V30 17 N 9.004053 7.358313 -10.579191 0 CFG=2 CHG=1
M  V30 18 C 9.457149 8.559823 -9.840597 0
M  V30 19 C 9.998898 8.304426 -8.444617 0
M  V30 20 C 11.172323 8.972148 -8.051925 0
M  V30 21 C 11.690067 8.792612 -6.759492 0
M  V30 22 C 11.078044 7.904269 -5.852001 0
M  V30 23 N 11.681230 7.670811 -4.526825 0 CHG=1
M  V30 24 O 11.484570 6.588444 -3.985704 0
M  V30 25 O 12.357780 8.567754 -4.036189 0 CHG=-1
M  V30 26 C 9.897679 7.236758 -6.246864 0
M  V30 27 C 9.344016 7.453212 -7.526225 0
M  V30 28 C 9.979520 6.239235 -10.677455 0
M  V30 29 C 9.339710 5.007296 -11.355607 0
M  V30 30 H 5.190301 0.974490 -14.051329 0
M  V30 31 H 6.748136 0.413858 -13.458696 0
M  V30 32 H 6.094902 1.973678 -12.953065 0
M  V30 33 H 6.404242 2.897803 -15.237739 0
M  V30 34 H 6.304061 1.564836 -17.098978 0
M  V30 35 H 6.150957 0.135511 -16.067453 0
M  V30 36 H 7.863612 -0.717840 -18.225365 0
M  V30 37 H 10.317633 -1.107095 -18.521109 0
M  V30 38 H 11.944548 0.059326 -17.046040 0
M  V30 39 H 11.175628 1.569196 -15.256413 0
M  V30 40 H 7.328754 4.571312 -14.162567 0
M  V30 41 H 7.357418 3.685121 -12.655275 0
M  V30 42 H 9.505715 5.703695 -13.390977 0
M  V30 43 H 7.295844 6.849779 -13.446850 0
M  V30 44 H 6.919533 6.232834 -11.871140 0
M  V30 45 H 7.785103 8.569370 -11.846836 0
M  V30 46 H 9.295071 8.055909 -12.560321 0
M  V30 47 H 10.230677 9.047104 -10.436573 0
M  V30 48 H 8.629178 9.265980 -9.753135 0
M  V30 49 H 11.674411 9.632936 -8.742470 0
M  V30 50 H 12.600284 9.304049 -6.481201 0
M  V30 51 H 9.404932 6.573709 -5.545496 0
M  V30 52 H 8.427577 6.952009 -7.799203 0
M  V30 53 H 10.338263 5.950433 -9.689033 0
M  V30 54 H 10.850714 6.571941 -11.243681 0
M  V30 55 H 8.571907 4.597210 -10.697245 0
M  V30 56 H 10.085994 4.221742 -11.471314 0
M  V30 57 H 8.184497 7.033290 -10.075498 0
M  V30 END ATOM
M  V30 BEGIN BOND
M  V30 1 1 2 1
M  V30 2 1 3 2
M  V30 3 1 4 3
M  V30 4 2 5 4
M  V30 5 1 6 5
M  V30 6 2 7 6
M  V30 7 1 8 7
M  V30 8 1 9 4
M  V30 9 2 9 8
M  V30 10 1 10 2
M  V30 11 1 10 9
M  V30 12 1 11 10
M  V30 13 2 12 11
M  V30 14 1 13 11
M  V30 15 1 14 13
M  V30 16 1 15 14
M  V30 17 1 16 15
M  V30 18 1 17 16
M  V30 19 1 18 17
M  V30 20 1 19 18
M  V30 21 1 20 19
M  V30 22 2 21 20
M  V30 23 1 22 21
M  V30 24 1 23 22
M  V30 25 2 24 23
M  V30 26 1 25 23
M  V30 27 2 26 22
M  V30 28 2 27 19
M  V30 29 1 27 26
M  V30 30 1 28 17
M  V30 31 1 29 14
M  V30 32 1 29 28
M  V30 33 1 30 1
M  V30 34 1 31 1
M  V30 35 1 32 1
M  V30 36 1 2 33 CFG=3
M  V30 37 1 34 3
M  V30 38 1 35 3
M  V30 39 1 36 5
M  V30 40 1 37 6
M  V30 41 1 38 7
M  V30 42 1 39 8
M  V30 43 1 40 13
M  V30 44 1 41 13
M  V30 45 1 14 42 CFG=3
M  V30 46 1 43 15
M  V30 47 1 44 15
M  V30 48 1 45 16
M  V30 49 1 46 16
M  V30 50 1 47 18
M  V30 51 1 48 18
M  V30 52 1 49 20
M  V30 53 1 50 21
M  V30 54 1 51 26
M  V30 55 1 52 27
M  V30 56 1 53 28
M  V30 57 1 54 28
M  V30 58 1 55 29
M  V30 59 1 56 29
M  V30 60 1 17 57 CFG=1
M  V30 END BOND
M  V30 END CTAB
M  END
>  <b_m_subgroup_collapsed>  (1705) 
0

>  <r_i_docking_score>  (1705) 
-6.7892793443358102

>  <s_m_subgroup_title>  (1705) 
glide-dock_SP_D22_pv

>  <s_m_subgroupid>  (1705) 
glide-dock_SP_D22_pv

>  <Molecule ChEMBL ID>  (1705) 
CHEMBL104497

>  <Standard Type>  (1705) 
Ki

>  <Standard Value>  (1705) 
10000.0

>  <label>  (1705) 
0

$$$$
CHEMBL194755
     RDKit          3D

  0  0  0  0  0  0  0  0  0  0999 V3000
M  V30 BEGIN CTAB
M  V30 COUNTS 58 60 0 0 1
M  V30 BEGIN ATOM
M  V30 1 C 11.800256 11.219244 -6.246392 0
M  V30 2 O 11.023272 10.058202 -6.347362 0
M  V30 3 C 11.321714 9.084373 -5.428396 0
M  V30 4 C 11.643601 9.371442 -4.076498 0
M  V30 5 C 11.903403 8.330776 -3.166117 0
M  V30 6 C 11.817444 6.994581 -3.593786 0
M  V30 7 C 11.503080 6.713713 -4.936088 0
M  V30 8 C 11.281556 7.745279 -5.867499 0
M  V30 9 N 11.071600 7.437129 -7.224932 0
M  V30 10 C 9.997379 6.532793 -7.614541 0
M  V30 11 C 9.136494 7.165217 -8.730514 0
M  V30 12 N 9.995887 7.683728 -9.831171 0 CHG=1
M  V30 13 C 9.255276 8.141386 -11.032941 0
M  V30 14 C 8.638839 6.985284 -11.837783 0
M  V30 15 C 9.635944 5.884906 -12.245749 0
M  V30 16 C 8.928922 4.786746 -13.041690 0
M  V30 17 N 9.838563 3.697128 -13.403666 0
M  V30 18 S 9.560156 2.791874 -14.852703 0
M  V30 19 O 9.286080 3.749772 -15.933993 0
M  V30 20 O 10.664227 1.827363 -14.971808 0
M  V30 21 C 8.050864 1.885656 -14.494936 0
M  V30 22 C 8.058073 0.477008 -14.512057 0
M  V30 23 C 6.888564 -0.231262 -14.165956 0
M  V30 24 C 5.726427 0.457778 -13.777027 0
M  V30 25 F 4.606593 -0.226223 -13.446801 0
M  V30 26 C 5.728104 1.862270 -13.745860 0
M  V30 27 C 6.871693 2.577346 -14.150991 0
M  V30 28 C 10.960773 8.699448 -9.340949 0
M  V30 29 C 11.868510 8.096279 -8.259491 0
M  V30 30 H 11.686038 11.868695 -7.105122 0
M  V30 31 H 11.433887 11.771461 -5.399485 0
M  V30 32 H 12.855683 10.972961 -6.134211 0
M  V30 33 H 11.681144 10.385403 -3.710473 0
M  V30 34 H 12.137929 8.560526 -2.137575 0
M  V30 35 H 11.999195 6.186458 -2.900559 0
M  V30 36 H 11.475817 5.696862 -5.272002 0
M  V30 37 H 10.440037 5.598201 -7.963192 0
M  V30 38 H 9.367694 6.288090 -6.756391 0
M  V30 39 H 8.431838 6.419807 -9.100524 0
M  V30 40 H 8.537123 7.981986 -8.324029 0
M  V30 41 H 8.486616 8.859056 -10.744589 0
M  V30 42 H 9.938637 8.672568 -11.695009 0
M  V30 43 H 7.818279 6.543448 -11.278612 0
M  V30 44 H 8.173739 7.400159 -12.731640 0
M  V30 45 H 10.447880 6.308661 -12.836164 0
M  V30 46 H 10.085497 5.439580 -11.357813 0
M  V30 47 H 8.110209 4.377130 -12.447441 0
M  V30 48 H 8.498740 5.219149 -13.944213 0
M  V30 49 H 10.081109 3.091354 -12.617819 0
M  V30 50 H 8.950338 -0.065208 -14.785417 0
M  V30 51 H 6.885728 -1.311520 -14.190670 0
M  V30 52 H 4.836538 2.391310 -13.445511 0
M  V30 53 H 6.834993 3.654447 -14.171638 0
M  V30 54 H 11.581755 9.069321 -10.158498 0
M  V30 55 H 10.412542 9.554820 -8.946778 0
M  V30 56 H 12.525101 8.859803 -7.841701 0
M  V30 57 H 12.532847 7.372428 -8.719537 0
M  V30 58 H 10.554453 6.901503 -10.135176 0
M  V30 END ATOM
M  V30 BEGIN BOND
M  V30 1 1 2 1
M  V30 2 1 3 2
M  V30 3 2 4 3
M  V30 4 1 5 4
M  V30 5 2 6 5
M  V30 6 1 7 6
M  V30 7 1 8 3
M  V30 8 2 8 7
M  V30 9 1 9 8
M  V30 10 1 10 9
M  V30 11 1 11 10
M  V30 12 1 12 11
M  V30 13 1 13 12
M  V30 14 1 14 13
M  V30 15 1 15 14
M  V30 16 1 16 15
M  V30 17 1 17 16
M  V30 18 1 18 17
M  V30 19 2 19 18
M  V30 20 2 20 18
M  V30 21 1 21 18
M  V30 22 1 22 21
M  V30 23 2 23 22
M  V30 24 1 24 23
M  V30 25 1 25 24
M  V30 26 2 26 24
M  V30 27 2 27 21
M  V30 28 1 27 26
M  V30 29 1 28 12
M  V30 30 1 29 9
M  V30 31 1 29 28
M  V30 32 1 30 1
M  V30 33 1 31 1
M  V30 34 1 32 1
M  V30 35 1 33 4
M  V30 36 1 34 5
M  V30 37 1 35 6
M  V30 38 1 36 7
M  V30 39 1 37 10
M  V30 40 1 38 10
M  V30 41 1 39 11
M  V30 42 1 40 11
M  V30 43 1 41 13
M  V30 44 1 42 13
M  V30 45 1 43 14
M  V30 46 1 44 14
M  V30 47 1 45 15
M  V30 48 1 46 15
M  V30 49 1 47 16
M  V30 50 1 48 16
M  V30 51 1 49 17
M  V30 52 1 50 22
M  V30 53 1 51 23
M  V30 54 1 52 26
M  V30 55 1 53 27
M  V30 56 1 54 28
M  V30 57 1 55 28
M  V30 58 1 56 29
M  V30 59 1 57 29
M  V30 60 1 58 12
M  V30 END BOND
M  V30 END CTAB
M  END
>  <b_m_subgroup_collapsed>  (1706) 
0

>  <r_i_docking_score>  (1706) 
-6.7879658822340598

>  <s_m_subgroup_title>  (1706) 
glide-dock_SP_D22_pv

>  <s_m_subgroupid>  (1706) 
glide-dock_SP_D22_pv

>  <Molecule ChEMBL ID>  (1706) 
CHEMBL194755

>  <Standard Type>  (1706) 
Ki

>  <Standard Value>  (1706) 
72.0

>  <label>  (1706) 
1

$$$$
CHEMBL5722940
     RDKit          3D

  0  0  0  0  0  0  0  0  0  0999 V3000
M  V30 BEGIN CTAB
M  V30 COUNTS 36 38 0 0 1
M  V30 BEGIN ATOM
M  V30 1 O 11.685877 10.969681 -6.242449 0
M  V30 2 C 11.457853 9.760298 -6.289098 0
M  V30 3 C 11.129360 9.098845 -7.569726 0
M  V30 4 C 10.884364 7.773918 -7.643328 0
M  V30 5 C 10.584260 7.057375 -8.948548 0
M  V30 6 N 9.642066 7.801404 -9.773205 0
M  V30 7 C 9.560709 7.266481 -11.126638 0
M  V30 8 C 8.700402 5.993239 -11.217656 0
M  V30 9 S 8.578998 5.447190 -12.942456 0
M  V30 10 C 7.279677 4.272405 -13.042426 0
M  V30 11 C 6.111131 4.252859 -12.247505 0
M  V30 12 N 5.355365 3.257162 -12.640975 0
M  V30 13 N 6.086263 2.697670 -13.641580 0
M  V30 14 N 7.266006 3.307245 -13.921172 0
M  V30 15 N 10.916856 6.973129 -6.514204 0
M  V30 16 C 11.285930 7.473088 -5.260740 0
M  V30 17 C 11.457491 6.591850 -4.177128 0
M  V30 18 C 11.867757 7.075107 -2.921278 0
M  V30 19 C 12.086579 8.451561 -2.740435 0
M  V30 20 F 12.485452 8.919343 -1.533797 0
M  V30 21 C 11.910505 9.342065 -3.817611 0
M  V30 22 C 11.541142 8.858373 -5.096948 0
M  V30 23 H 11.102895 9.709807 -8.460719 0
M  V30 24 H 10.210724 6.052441 -8.756031 0
M  V30 25 H 11.528195 6.967255 -9.486139 0
M  V30 26 H 8.709349 7.783201 -9.366518 0
M  V30 27 H 10.559750 7.092481 -11.528960 0
M  V30 28 H 9.104973 8.037667 -11.749990 0
M  V30 29 H 7.700120 6.172086 -10.825798 0
M  V30 30 H 9.134623 5.182118 -10.631471 0
M  V30 31 H 5.805040 4.912758 -11.447179 0
M  V30 32 H 10.711683 5.987491 -6.596102 0
M  V30 33 H 11.283375 5.541878 -4.315376 0
M  V30 34 H 12.002380 6.386882 -2.099911 0
M  V30 35 H 12.078965 10.390061 -3.645109 0
M  V30 36 H 5.763251 1.889987 -14.157627 0
M  V30 END ATOM
M  V30 BEGIN BOND
M  V30 1 2 2 1
M  V30 2 1 3 2
M  V30 3 2 4 3
M  V30 4 1 5 4
M  V30 5 1 6 5
M  V30 6 1 7 6
M  V30 7 1 8 7
M  V30 8 1 9 8
M  V30 9 1 10 9
M  V30 10 1 11 10
M  V30 11 2 12 11
M  V30 12 1 13 12
M  V30 13 2 14 10
M  V30 14 1 14 13
M  V30 15 1 15 4
M  V30 16 1 16 15
M  V30 17 2 17 16
M  V30 18 1 18 17
M  V30 19 2 19 18
M  V30 20 1 20 19
M  V30 21 1 21 19
M  V30 22 1 22 2
M  V30 23 1 22 16
M  V30 24 2 22 21
M  V30 25 1 23 3
M  V30 26 1 24 5
M  V30 27 1 25 5
M  V30 28 1 26 6
M  V30 29 1 27 7
M  V30 30 1 28 7
M  V30 31 1 29 8
M  V30 32 1 30 8
M  V30 33 1 31 11
M  V30 34 1 32 15
M  V30 35 1 33 17
M  V30 36 1 34 18
M  V30 37 1 35 21
M  V30 38 1 36 13
M  V30 END BOND
M  V30 END CTAB
M  END
>  <b_m_subgroup_collapsed>  (1707) 
0

>  <r_i_docking_score>  (1707) 
-6.78695765660866

>  <s_m_subgroup_title>  (1707) 
glide-dock_SP_D22_pv

>  <s_m_subgroupid>  (1707) 
glide-dock_SP_D22_pv

>  <Molecule ChEMBL ID>  (1707) 
CHEMBL5722940

>  <Standard Type>  (1707) 
Ki

>  <Standard Value>  (1707) 
10000.0

>  <label>  (1707) 
0

$$$$
CHEMBL456675
     RDKit          3D

  0  0  0  0  0  0  0  0  0  0999 V3000
M  V30 BEGIN CTAB
M  V30 COUNTS 64 67 0 0 1
M  V30 BEGIN ATOM
M  V30 1 C 13.220801 -0.819836 -19.646063 0
M  V30 2 O 12.115733 -0.747543 -18.755245 0
M  V30 3 C 11.933172 0.424294 -18.053152 0
M  V30 4 C 12.675777 1.610285 -18.279638 0
M  V30 5 C 12.448946 2.755227 -17.492735 0
M  V30 6 C 11.479294 2.730433 -16.474291 0
M  V30 7 C 10.732528 1.558782 -16.241871 0
M  V30 8 C 9.687933 1.535951 -15.144710 0
M  V30 9 C 8.298363 1.884293 -15.694990 0
M  V30 10 C 7.247478 1.975276 -14.604615 0
M  V30 11 C 6.415947 0.864709 -14.358025 0
M  V30 12 C 5.413453 0.939448 -13.375886 0
M  V30 13 C 5.253097 2.120410 -12.631138 0
M  V30 14 C 6.084811 3.230947 -12.864819 0
M  V30 15 C 7.103567 3.164175 -13.848350 0
M  V30 16 O 7.977596 4.192802 -14.129987 0
M  V30 17 C 7.940850 5.390996 -13.368025 0
M  V30 18 C 8.800701 5.272578 -12.100690 0
M  V30 19 C 9.036753 6.665981 -11.500506 0
M  V30 20 N 9.954370 6.648738 -10.362720 0
M  V30 21 C 10.463066 8.011644 -10.182722 0
M  V30 22 C 11.465352 8.044338 -9.022836 0
M  V30 23 N 10.817868 7.600465 -7.793007 0
M  V30 24 C 11.090963 8.209458 -6.580124 0
M  V30 25 N 11.284949 7.418212 -5.521452 0
M  V30 26 C 11.638601 8.013737 -4.365154 0
M  V30 27 C 11.721390 9.413994 -4.251157 0
M  V30 28 C 11.468002 10.149680 -5.426803 0
M  V30 29 N 11.174320 9.539948 -6.587992 0
M  V30 30 C 10.181745 6.292242 -7.913299 0
M  V30 31 C 9.236317 6.271126 -9.135673 0
M  V30 32 C 10.951550 0.418084 -17.041475 0
M  V30 33 H 13.292680 -1.827438 -20.054718 0
M  V30 34 H 13.100078 -0.129403 -20.484629 0
M  V30 35 H 14.161867 -0.606066 -19.133072 0
M  V30 36 H 13.433968 1.663621 -19.046824 0
M  V30 37 H 13.022746 3.653061 -17.670170 0
M  V30 38 H 11.312885 3.613061 -15.873556 0
M  V30 39 H 9.972076 2.243961 -14.365571 0
M  V30 40 H 9.674798 0.551899 -14.672706 0
M  V30 41 H 7.993930 1.137223 -16.431828 0
M  V30 42 H 8.341003 2.833450 -16.231379 0
M  V30 43 H 6.531888 -0.044250 -14.929783 0
M  V30 44 H 4.767124 0.092552 -13.197665 0
M  V30 45 H 4.487767 2.172144 -11.874502 0
M  V30 46 H 5.929270 4.104482 -12.252436 0
M  V30 47 H 6.932097 5.730227 -13.135007 0
M  V30 48 H 8.356973 6.171319 -14.005657 0
M  V30 49 H 9.759946 4.820829 -12.356639 0
M  V30 50 H 8.319504 4.610298 -11.380356 0
M  V30 51 H 8.088438 7.129344 -11.233076 0
M  V30 52 H 9.467369 7.290180 -12.285127 0
M  V30 53 H 9.641050 8.708461 -9.997240 0
M  V30 54 H 10.969077 8.343473 -11.090012 0
M  V30 55 H 11.879735 9.047280 -8.928626 0
M  V30 56 H 12.304610 7.380679 -9.237624 0
M  V30 57 H 11.812873 7.372483 -3.516092 0
M  V30 58 H 11.971138 9.896320 -3.316894 0
M  V30 59 H 11.507939 11.225903 -5.446843 0
M  V30 60 H 10.943224 5.518058 -8.003081 0
M  V30 61 H 9.606915 6.069382 -7.013726 0
M  V30 62 H 8.408449 6.960421 -8.963962 0
M  V30 63 H 8.803702 5.275898 -9.242977 0
M  V30 64 H 10.378287 -0.479448 -16.865343 0
M  V30 END ATOM
M  V30 BEGIN BOND
M  V30 1 1 2 1
M  V30 2 1 3 2
M  V30 3 2 4 3
M  V30 4 1 5 4
M  V30 5 2 6 5
M  V30 6 1 7 6
M  V30 7 1 8 7
M  V30 8 1 9 8
M  V30 9 1 10 9
M  V30 10 2 11 10
M  V30 11 1 12 11
M  V30 12 2 13 12
M  V30 13 1 14 13
M  V30 14 1 15 10
M  V30 15 2 15 14
M  V30 16 1 16 15
M  V30 17 1 17 16
M  V30 18 1 18 17
M  V30 19 1 19 18
M  V30 20 1 20 19
M  V30 21 1 21 20
M  V30 22 1 22 21
M  V30 23 1 23 22
M  V30 24 1 24 23
M  V30 25 2 25 24
M  V30 26 1 26 25
M  V30 27 2 27 26
M  V30 28 1 28 27
M  V30 29 1 29 24
M  V30 30 2 29 28
M  V30 31 1 30 23
M  V30 32 1 31 20
M  V30 33 1 31 30
M  V30 34 1 32 3
M  V30 35 2 32 7
M  V30 36 1 33 1
M  V30 37 1 34 1
M  V30 38 1 35 1
M  V30 39 1 36 4
M  V30 40 1 37 5
M  V30 41 1 38 6
M  V30 42 1 39 8
M  V30 43 1 40 8
M  V30 44 1 41 9
M  V30 45 1 42 9
M  V30 46 1 43 11
M  V30 47 1 44 12
M  V30 48 1 45 13
M  V30 49 1 46 14
M  V30 50 1 47 17
M  V30 51 1 48 17
M  V30 52 1 49 18
M  V30 53 1 50 18
M  V30 54 1 51 19
M  V30 55 1 52 19
M  V30 56 1 53 21
M  V30 57 1 54 21
M  V30 58 1 55 22
M  V30 59 1 56 22
M  V30 60 1 57 26
M  V30 61 1 58 27
M  V30 62 1 59 28
M  V30 63 1 60 30
M  V30 64 1 61 30
M  V30 65 1 62 31
M  V30 66 1 63 31
M  V30 67 1 64 32
M  V30 END BOND
M  V30 END CTAB
M  END
>  <b_m_subgroup_collapsed>  (1708) 
0

>  <r_i_docking_score>  (1708) 
-6.7860171017294997

>  <s_m_subgroup_title>  (1708) 
glide-dock_SP_D22_pv

>  <s_m_subgroupid>  (1708) 
glide-dock_SP_D22_pv

>  <Molecule ChEMBL ID>  (1708) 
CHEMBL456675

>  <Standard Type>  (1708) 
Ki

>  <Standard Value>  (1708) 
20000.0

>  <label>  (1708) 
0

$$$$
CHEMBL201086
     RDKit          3D

  0  0  0  0  0  0  0  0  0  0999 V3000
M  V30 BEGIN CTAB
M  V30 COUNTS 25 26 0 0 1
M  V30 BEGIN ATOM
M  V30 1 O 10.624760 10.562748 -4.652574 0
M  V30 2 C 11.286106 9.672492 -4.127825 0
M  V30 3 O 11.686415 9.709161 -2.835303 0
M  V30 4 C 12.452445 8.660137 -2.255638 0
M  V30 5 C 11.854259 7.290007 -2.596700 0
M  V30 6 C 11.686829 7.109578 -4.115432 0
M  V30 7 C 11.745894 8.436403 -4.917808 0 CFG=1
M  V30 8 C 11.132521 8.357440 -6.318053 0
M  V30 9 C 11.836840 8.886773 -7.423954 0
M  V30 10 C 11.274155 8.848211 -8.715761 0
M  V30 11 C 10.001877 8.280428 -8.915752 0
M  V30 12 C 9.293574 7.746098 -7.822703 0
M  V30 13 C 9.857697 7.783507 -6.532247 0
M  V30 14 H 13.474319 8.736129 -2.606099 0
M  V30 15 H 12.482813 8.803480 -1.175256 0
M  V30 16 H 12.468757 6.490270 -2.184170 0
M  V30 17 H 10.886439 7.204585 -2.106087 0
M  V30 18 H 10.766677 6.555490 -4.292609 0
M  V30 19 H 12.483500 6.466153 -4.484945 0
M  V30 20 H 12.806869 8.642748 -5.048419 0
M  V30 21 H 12.810208 9.334195 -7.286361 0
M  V30 22 H 11.819513 9.260127 -9.553185 0
M  V30 23 H 9.563820 8.253608 -9.901961 0
M  V30 24 H 8.318409 7.307584 -7.971367 0
M  V30 25 H 9.290230 7.376512 -5.711149 0
M  V30 END ATOM
M  V30 BEGIN BOND
M  V30 1 2 2 1
M  V30 2 1 3 2
M  V30 3 1 4 3
M  V30 4 1 5 4
M  V30 5 1 6 5
M  V30 6 1 7 2
M  V30 7 1 7 6
M  V30 8 1 8 7
M  V30 9 2 9 8
M  V30 10 1 10 9
M  V30 11 2 11 10
M  V30 12 1 12 11
M  V30 13 1 13 8
M  V30 14 2 13 12
M  V30 15 1 14 4
M  V30 16 1 15 4
M  V30 17 1 16 5
M  V30 18 1 17 5
M  V30 19 1 18 6
M  V30 20 1 19 6
M  V30 21 1 7 20 CFG=3
M  V30 22 1 21 9
M  V30 23 1 22 10
M  V30 24 1 23 11
M  V30 25 1 24 12
M  V30 26 1 25 13
M  V30 END BOND
M  V30 END CTAB
M  END
>  <b_m_subgroup_collapsed>  (1709) 
0

>  <r_i_docking_score>  (1709) 
-6.7846054719199396

>  <s_m_subgroup_title>  (1709) 
glide-dock_SP_D22_pv

>  <s_m_subgroupid>  (1709) 
glide-dock_SP_D22_pv

>  <Molecule ChEMBL ID>  (1709) 
CHEMBL201086

>  <Standard Type>  (1709) 
Ki

>  <Standard Value>  (1709) 
10000.0

>  <label>  (1709) 
0

$$$$
CHEMBL102175
     RDKit          3D

  0  0  0  0  0  0  0  0  0  0999 V3000
M  V30 BEGIN CTAB
M  V30 COUNTS 73 78 0 0 1
M  V30 BEGIN ATOM
M  V30 1 C 10.469697 7.320525 -6.188469 0
M  V30 2 C 11.107025 7.127063 -7.570211 0
M  V30 3 C 11.242895 8.448622 -8.344211 0
M  V30 4 C 11.830195 8.299864 -9.765809 0
M  V30 5 O 11.093887 7.403316 -10.596455 0
M  V30 6 C 9.863688 7.727508 -11.039978 0
M  V30 7 O 9.286044 8.787064 -10.791410 0
M  V30 8 C 9.237509 6.646502 -11.796996 0
M  V30 9 C 9.758056 5.581717 -12.488317 0
M  V30 10 C 8.637295 4.790833 -12.928708 0
M  V30 11 C 8.496621 3.573799 -13.632273 0
M  V30 12 C 7.216745 2.996018 -13.847626 0
M  V30 13 C 6.058676 3.667571 -13.414975 0
M  V30 14 C 6.168727 4.893671 -12.737385 0
M  V30 15 C 7.443293 5.435253 -12.499656 0
M  V30 16 N 7.857940 6.572095 -11.846880 0
M  V30 17 O 7.088440 1.762858 -14.448318 0
M  V30 18 C 8.284656 0.989176 -14.456632 0
M  V30 19 C 9.441188 1.870039 -14.967109 0 CFG=2
M  V30 20 C 10.795451 1.131774 -15.054877 0
M  V30 21 N 11.225601 0.769820 -16.428907 0 CFG=1 CHG=1
M  V30 22 C 10.362515 -0.241363 -17.089138 0
M  V30 23 C 11.014712 -0.746158 -18.393478 0
M  V30 24 C 11.366300 0.390235 -19.384851 0 CFG=2
M  V30 25 C 12.188477 1.469956 -18.615364 0
M  V30 26 C 11.529674 1.931298 -17.302414 0
M  V30 27 C 10.097639 0.971176 -20.018255 0
M  V30 28 O 9.239551 1.614146 -19.418165 0
M  V30 29 N 10.069071 0.674119 -21.311949 0
M  V30 30 C 11.208911 -0.108576 -21.743990 0
M  V30 31 N 12.062572 -0.168512 -20.553892 0
M  V30 32 C 13.440895 0.043015 -20.729567 0
M  V30 33 C 13.934588 1.143373 -21.472076 0
M  V30 34 C 15.321445 1.354364 -21.597778 0
M  V30 35 C 16.226833 0.470124 -20.983803 0
M  V30 36 C 15.744097 -0.625717 -20.245687 0
M  V30 37 C 14.357551 -0.835819 -20.115171 0
M  V30 38 O 9.640364 2.938174 -14.050689 0
M  V30 39 H 10.401849 6.371463 -5.655913 0
M  V30 40 H 11.055254 8.005421 -5.574808 0
M  V30 41 H 9.459446 7.724380 -6.274426 0
M  V30 42 H 10.502163 6.421611 -8.142932 0
M  V30 43 H 12.086465 6.665904 -7.446803 0
M  V30 44 H 11.881005 9.128031 -7.776557 0
M  V30 45 H 10.269875 8.936952 -8.394610 0
M  V30 46 H 12.854278 7.930116 -9.698300 0
M  V30 47 H 11.889853 9.277280 -10.248869 0
M  V30 48 H 10.799651 5.346469 -12.647355 0
M  V30 49 H 5.087282 3.225705 -13.573397 0
M  V30 50 H 5.290140 5.407791 -12.380436 0
M  V30 51 H 7.255265 7.192212 -11.273991 0
M  V30 52 H 8.137750 0.127424 -15.107496 0
M  V30 53 H 8.485980 0.605191 -13.452152 0
M  V30 54 H 9.160943 2.303506 -15.926215 0
M  V30 55 H 10.786524 0.244068 -14.421181 0
M  V30 56 H 11.575667 1.772148 -14.640313 0
M  V30 57 H 10.211125 -1.083893 -16.414532 0
M  V30 58 H 9.373545 0.174506 -17.284908 0
M  V30 59 H 10.350923 -1.469673 -18.868614 0
M  V30 60 H 11.921926 -1.298884 -18.147013 0
M  V30 61 H 13.171268 1.077121 -18.351849 0
M  V30 62 H 12.367680 2.336675 -19.252247 0
M  V30 63 H 12.217113 2.599456 -16.780188 0
M  V30 64 H 10.634519 2.518287 -17.507963 0
M  V30 65 H 9.330011 0.958628 -21.938452 0
M  V30 66 H 11.679081 0.348722 -22.615368 0
M  V30 67 H 10.888120 -1.113660 -22.022408 0
M  V30 68 H 13.254550 1.843944 -21.932638 0
M  V30 69 H 15.690980 2.198226 -22.163862 0
M  V30 70 H 17.291969 0.632763 -21.080908 0
M  V30 71 H 16.439188 -1.307072 -19.778896 0
M  V30 72 H 14.001414 -1.680330 -19.544024 0
M  V30 73 H 12.119506 0.315706 -16.296848 0
M  V30 END ATOM
M  V30 BEGIN BOND
M  V30 1 1 2 1
M  V30 2 1 3 2
M  V30 3 1 4 3
M  V30 4 1 5 4
M  V30 5 1 6 5
M  V30 6 2 7 6
M  V30 7 1 8 6
M  V30 8 2 9 8
M  V30 9 1 10 9
M  V30 10 1 11 10
M  V30 11 2 12 11
M  V30 12 1 13 12
M  V30 13 2 14 13
M  V30 14 2 15 10
M  V30 15 1 15 14
M  V30 16 1 16 8
M  V30 17 1 16 15
M  V30 18 1 17 12
M  V30 19 1 18 17
M  V30 20 1 19 18
M  V30 21 1 20 19
M  V30 22 1 21 20
M  V30 23 1 22 21
M  V30 24 1 23 22
M  V30 25 1 24 23
M  V30 26 1 25 24
M  V30 27 1 26 21
M  V30 28 1 26 25
M  V30 29 1 27 24
M  V30 30 2 28 27
M  V30 31 1 29 27
M  V30 32 1 30 29
M  V30 33 1 24 31 CFG=3
M  V30 34 1 31 30
M  V30 35 1 32 31
M  V30 36 2 33 32
M  V30 37 1 34 33
M  V30 38 2 35 34
M  V30 39 1 36 35
M  V30 40 1 37 32
M  V30 41 2 37 36
M  V30 42 1 38 11
M  V30 43 1 38 19
M  V30 44 1 39 1
M  V30 45 1 40 1
M  V30 46 1 41 1
M  V30 47 1 42 2
M  V30 48 1 43 2
M  V30 49 1 44 3
M  V30 50 1 45 3
M  V30 51 1 46 4
M  V30 52 1 47 4
M  V30 53 1 48 9
M  V30 54 1 49 13
M  V30 55 1 50 14
M  V30 56 1 51 16
M  V30 57 1 52 18
M  V30 58 1 53 18
M  V30 59 1 19 54 CFG=3
M  V30 60 1 55 20
M  V30 61 1 56 20
M  V30 62 1 57 22
M  V30 63 1 58 22
M  V30 64 1 59 23
M  V30 65 1 60 23
M  V30 66 1 61 25
M  V30 67 1 62 25
M  V30 68 1 63 26
M  V30 69 1 64 26
M  V30 70 1 65 29
M  V30 71 1 66 30
M  V30 72 1 67 30
M  V30 73 1 68 33
M  V30 74 1 69 34
M  V30 75 1 70 35
M  V30 76 1 71 36
M  V30 77 1 72 37
M  V30 78 1 21 73 CFG=1
M  V30 END BOND
M  V30 END CTAB
M  END
>  <b_m_subgroup_collapsed>  (1710) 
0

>  <r_i_docking_score>  (1710) 
-6.7842207376998704

>  <s_m_subgroup_title>  (1710) 
glide-dock_SP_D22_pv

>  <s_m_subgroupid>  (1710) 
glide-dock_SP_D22_pv

>  <Molecule ChEMBL ID>  (1710) 
CHEMBL102175

>  <Standard Type>  (1710) 
Ki

>  <Standard Value>  (1710) 
5.7

>  <label>  (1710) 
1

$$$$
CHEMBL305392
     RDKit          3D

  0  0  0  0  0  0  0  0  0  0999 V3000
M  V30 BEGIN CTAB
M  V30 COUNTS 43 46 0 0 1
M  V30 BEGIN ATOM
M  V30 1 N 14.097641 6.636314 -16.271975 0
M  V30 2 C 13.175516 6.008596 -15.976457 0
M  V30 3 C 12.012898 5.227008 -15.609610 0
M  V30 4 C 11.731939 4.021471 -16.283197 0
M  V30 5 C 10.572709 3.291455 -15.961220 0
M  V30 6 C 9.685844 3.760874 -14.971027 0
M  V30 7 C 9.975761 4.972366 -14.284575 0
M  V30 8 C 11.145356 5.694934 -14.601028 0
M  V30 9 C 8.995728 5.473186 -13.235416 0 CFG=2
M  V30 10 C 9.522098 6.235149 -12.016424 0
M  V30 11 N 8.486024 6.063696 -10.957202 0 CFG=2 CHG=1
M  V30 12 C 9.052590 5.742533 -9.619276 0
M  V30 13 C 9.756706 6.907898 -8.930655 0
M  V30 14 C 11.021644 7.372292 -9.359373 0
M  V30 15 C 11.683257 8.402431 -8.662752 0
M  V30 16 C 11.086345 8.972719 -7.522422 0
M  V30 17 C 9.822500 8.526881 -7.093864 0
M  V30 18 C 9.166216 7.498458 -7.792719 0
M  V30 19 C 7.550152 5.015135 -11.446237 0
M  V30 20 C 8.263375 4.325501 -12.593609 0 CFG=1
M  V30 21 C 7.460875 3.572969 -13.651788 0
M  V30 22 C 8.449253 2.918666 -14.641853 0
M  V30 23 H 12.400230 3.657186 -17.052475 0
M  V30 24 H 10.369714 2.365340 -16.477150 0
M  V30 25 H 11.368952 6.621175 -14.092847 0
M  V30 26 H 8.283002 6.118484 -13.752051 0
M  V30 27 H 10.459433 5.772088 -11.708635 0
M  V30 28 H 9.721437 7.288256 -12.223832 0
M  V30 29 H 8.239264 5.419352 -8.966192 0
M  V30 30 H 9.737468 4.896758 -9.689707 0
M  V30 31 H 11.518093 6.943943 -10.213902 0
M  V30 32 H 12.650740 8.749692 -8.997668 0
M  V30 33 H 11.592318 9.759747 -6.985184 0
M  V30 34 H 9.348603 8.972426 -6.231756 0
M  V30 35 H 8.199381 7.160545 -7.442800 0
M  V30 36 H 7.286026 4.294598 -10.674714 0
M  V30 37 H 6.632469 5.496367 -11.791016 0
M  V30 38 H 8.994288 3.643261 -12.153943 0
M  V30 39 H 6.812921 2.821096 -13.202442 0
M  V30 40 H 6.807617 4.266990 -14.178775 0
M  V30 41 H 7.930072 2.636283 -15.559629 0
M  V30 42 H 8.812051 1.988649 -14.205022 0
M  V30 43 H 7.925563 6.908100 -10.841842 0
M  V30 END ATOM
M  V30 BEGIN BOND
M  V30 1 3 2 1
M  V30 2 1 3 2
M  V30 3 1 4 3
M  V30 4 2 5 4
M  V30 5 1 6 5
M  V30 6 2 7 6
M  V30 7 2 8 3
M  V30 8 1 8 7
M  V30 9 1 9 7
M  V30 10 1 10 9
M  V30 11 1 11 10
M  V30 12 1 12 11
M  V30 13 1 13 12
M  V30 14 2 14 13
M  V30 15 1 15 14
M  V30 16 2 16 15
M  V30 17 1 17 16
M  V30 18 1 18 13
M  V30 19 2 18 17
M  V30 20 1 19 11
M  V30 21 1 20 9
M  V30 22 1 20 19
M  V30 23 1 21 20
M  V30 24 1 22 6
M  V30 25 1 22 21
M  V30 26 1 23 4
M  V30 27 1 24 5
M  V30 28 1 25 8
M  V30 29 1 9 26 CFG=3
M  V30 30 1 27 10
M  V30 31 1 28 10
M  V30 32 1 29 12
M  V30 33 1 30 12
M  V30 34 1 31 14
M  V30 35 1 32 15
M  V30 36 1 33 16
M  V30 37 1 34 17
M  V30 38 1 35 18
M  V30 39 1 36 19
M  V30 40 1 37 19
M  V30 41 1 20 38 CFG=1
M  V30 42 1 39 21
M  V30 43 1 40 21
M  V30 44 1 41 22
M  V30 45 1 42 22
M  V30 46 1 11 43 CFG=1
M  V30 END BOND
M  V30 END CTAB
M  END
>  <b_m_subgroup_collapsed>  (1711) 
0

>  <r_i_docking_score>  (1711) 
-6.78306982688928

>  <s_m_subgroup_title>  (1711) 
glide-dock_SP_D22_pv

>  <s_m_subgroupid>  (1711) 
glide-dock_SP_D22_pv

>  <Molecule ChEMBL ID>  (1711) 
CHEMBL305392

>  <Standard Type>  (1711) 
Ki

>  <Standard Value>  (1711) 
10.0

>  <label>  (1711) 
1

$$$$
CHEMBL45156
     RDKit          3D

  0  0  0  0  0  0  0  0  0  0999 V3000
M  V30 BEGIN CTAB
M  V30 COUNTS 41 42 0 0 1
M  V30 BEGIN ATOM
M  V30 1 F 4.884837 2.991877 -13.045751 0
M  V30 2 C 5.852156 3.847795 -13.365385 0
M  V30 3 C 6.376303 4.530210 -12.096654 0
M  V30 4 C 7.597062 5.417729 -12.389016 0
M  V30 5 N 8.087323 6.172302 -11.206656 0 CFG=2 CHG=1
M  V30 6 C 9.026443 7.254716 -11.602319 0
M  V30 7 C 9.411674 8.134043 -10.397454 0
M  V30 8 C 10.014647 7.293295 -9.260693 0 CFG=1
M  V30 9 C 10.353204 8.146456 -8.025633 0
M  V30 10 O 10.977055 7.282623 -7.090888 0
M  V30 11 C 11.285595 7.755360 -5.840609 0
M  V30 12 C 11.685758 6.789180 -4.899776 0
M  V30 13 C 12.055017 7.144407 -3.593776 0
M  V30 14 C 12.014389 8.494088 -3.216305 0
M  V30 15 Br 12.486058 8.971272 -1.447643 0
M  V30 16 C 11.603490 9.478430 -4.136605 0
M  V30 17 C 11.241200 9.117675 -5.451359 0
M  V30 18 C 9.048840 6.144917 -8.910263 0
M  V30 19 C 8.682641 5.312737 -10.147890 0
M  V30 20 H 5.437477 4.571373 -14.066040 0
M  V30 21 H 6.628484 3.276074 -13.871353 0
M  V30 22 H 6.631403 3.756194 -11.374245 0
M  V30 23 H 5.583127 5.127472 -11.646701 0
M  V30 24 H 7.317158 6.137640 -13.157518 0
M  V30 25 H 8.413632 4.820751 -12.798468 0
M  V30 26 H 8.562477 7.884520 -12.362752 0
M  V30 27 H 9.920707 6.816651 -12.048631 0
M  V30 28 H 8.533055 8.670788 -10.035275 0
M  V30 29 H 10.125844 8.895926 -10.714025 0
M  V30 30 H 10.948006 6.855989 -9.622230 0
M  V30 31 H 9.447275 8.586477 -7.607201 0
M  V30 32 H 11.034685 8.954651 -8.298501 0
M  V30 33 H 11.713988 5.760916 -5.200476 0
M  V30 34 H 12.362442 6.386315 -2.890120 0
M  V30 35 H 11.557800 10.512012 -3.829177 0
M  V30 36 H 10.933670 9.887630 -6.140774 0
M  V30 37 H 9.493589 5.489248 -8.159335 0
M  V30 38 H 8.140112 6.551526 -8.463124 0
M  V30 39 H 7.986539 4.532939 -9.846640 0
M  V30 40 H 9.566532 4.804351 -10.541011 0
M  V30 41 H 7.298455 6.679551 -10.788312 0
M  V30 END ATOM
M  V30 BEGIN BOND
M  V30 1 1 2 1
M  V30 2 1 3 2
M  V30 3 1 4 3
M  V30 4 1 5 4
M  V30 5 1 6 5
M  V30 6 1 7 6
M  V30 7 1 8 7
M  V30 8 1 9 8
M  V30 9 1 10 9
M  V30 10 1 11 10
M  V30 11 1 12 11
M  V30 12 2 13 12
M  V30 13 1 14 13
M  V30 14 1 15 14
M  V30 15 2 16 14
M  V30 16 2 17 11
M  V30 17 1 17 16
M  V30 18 1 18 8
M  V30 19 1 19 5
M  V30 20 1 19 18
M  V30 21 1 20 2
M  V30 22 1 21 2
M  V30 23 1 22 3
M  V30 24 1 23 3
M  V30 25 1 24 4
M  V30 26 1 25 4
M  V30 27 1 26 6
M  V30 28 1 27 6
M  V30 29 1 28 7
M  V30 30 1 29 7
M  V30 31 1 8 30 CFG=3
M  V30 32 1 31 9
M  V30 33 1 32 9
M  V30 34 1 33 12
M  V30 35 1 34 13
M  V30 36 1 35 16
M  V30 37 1 36 17
M  V30 38 1 37 18
M  V30 39 1 38 18
M  V30 40 1 39 19
M  V30 41 1 40 19
M  V30 42 1 5 41 CFG=1
M  V30 END BOND
M  V30 END CTAB
M  END
>  <b_m_subgroup_collapsed>  (1712) 
0

>  <r_i_docking_score>  (1712) 
-6.7826925713688402

>  <s_m_subgroup_title>  (1712) 
glide-dock_SP_D22_pv

>  <s_m_subgroupid>  (1712) 
glide-dock_SP_D22_pv

>  <Molecule ChEMBL ID>  (1712) 
CHEMBL45156

>  <Standard Type>  (1712) 
Ki

>  <Standard Value>  (1712) 
10000.0

>  <label>  (1712) 
0

$$$$
CHEMBL595151
     RDKit          3D

  0  0  0  0  0  0  0  0  0  0999 V3000
M  V30 BEGIN CTAB
M  V30 COUNTS 47 50 0 0 1
M  V30 BEGIN ATOM
M  V30 1 C 11.042154 3.590604 -14.331079 0
M  V30 2 N 9.647034 3.704171 -13.945851 0
M  V30 3 C 9.064378 4.700815 -13.233027 0
M  V30 4 C 9.889272 5.828371 -12.673108 0
M  V30 5 N 9.364540 6.478610 -11.476012 0
M  V30 6 C 10.161178 7.680831 -11.211391 0
M  V30 7 C 9.657489 8.413676 -9.956086 0
M  V30 8 N 9.686106 7.496256 -8.821951 0
M  V30 9 C 10.276447 7.826806 -7.584527 0
M  V30 10 C 10.439859 6.870809 -6.556221 0
M  V30 11 C 11.044431 7.253807 -5.347888 0
M  V30 12 C 11.478018 8.582787 -5.195881 0
M  V30 13 C 12.137053 9.073746 -3.927114 0
M  V30 14 F 13.222529 9.772288 -4.247671 0
M  V30 15 F 11.288377 9.866621 -3.284586 0
M  V30 16 F 12.486099 8.069743 -3.121597 0
M  V30 17 C 11.281815 9.467678 -6.271533 0
M  V30 18 N 10.702403 9.100250 -7.429563 0
M  V30 19 C 8.921271 6.275750 -9.057374 0
M  V30 20 C 9.452421 5.578456 -10.318572 0
M  V30 21 N 7.746088 4.594628 -13.062310 0
M  V30 22 C 7.464129 3.372689 -13.637332 0
M  V30 23 C 6.256326 2.642406 -13.683579 0
M  V30 24 C 6.227208 1.348579 -14.246844 0
M  V30 25 C 7.387869 0.794037 -14.821892 0
M  V30 26 C 8.596075 1.517731 -14.813735 0
M  V30 27 C 8.633214 2.786235 -14.200547 0
M  V30 28 H 11.213105 2.659788 -14.875180 0
M  V30 29 H 11.317660 4.429529 -14.972214 0
M  V30 30 H 11.676638 3.592107 -13.447085 0
M  V30 31 H 10.018550 6.572116 -13.446868 0
M  V30 32 H 10.886876 5.460043 -12.452383 0
M  V30 33 H 10.086879 8.354115 -12.064766 0
M  V30 34 H 11.213175 7.421677 -11.094835 0
M  V30 35 H 8.633108 8.760561 -10.105019 0
M  V30 36 H 10.268164 9.301212 -9.800675 0
M  V30 37 H 10.130863 5.844363 -6.652673 0
M  V30 38 H 11.171407 6.529922 -4.557889 0
M  V30 39 H 11.593300 10.501291 -6.201526 0
M  V30 40 H 8.925117 5.576213 -8.226553 0
M  V30 41 H 7.882650 6.552762 -9.195440 0
M  V30 42 H 8.872431 4.673081 -10.499129 0
M  V30 43 H 10.485990 5.276331 -10.148545 0
M  V30 44 H 5.366377 3.067774 -13.244477 0
M  V30 45 H 5.308068 0.783840 -14.248913 0
M  V30 46 H 7.354585 -0.193141 -15.261176 0
M  V30 47 H 9.490932 1.084838 -15.235923 0
M  V30 END ATOM
M  V30 BEGIN BOND
M  V30 1 1 2 1
M  V30 2 1 3 2
M  V30 3 1 4 3
M  V30 4 1 5 4
M  V30 5 1 6 5
M  V30 6 1 7 6
M  V30 7 1 8 7
M  V30 8 1 9 8
M  V30 9 1 10 9
M  V30 10 2 11 10
M  V30 11 1 12 11
M  V30 12 1 13 12
M  V30 13 1 14 13
M  V30 14 1 15 13
M  V30 15 1 16 13
M  V30 16 2 17 12
M  V30 17 2 18 9
M  V30 18 1 18 17
M  V30 19 1 19 8
M  V30 20 1 20 5
M  V30 21 1 20 19
M  V30 22 2 21 3
M  V30 23 1 22 21
M  V30 24 2 23 22
M  V30 25 1 24 23
M  V30 26 2 25 24
M  V30 27 1 26 25
M  V30 28 1 27 2
M  V30 29 1 27 22
M  V30 30 2 27 26
M  V30 31 1 28 1
M  V30 32 1 29 1
M  V30 33 1 30 1
M  V30 34 1 31 4
M  V30 35 1 32 4
M  V30 36 1 33 6
M  V30 37 1 34 6
M  V30 38 1 35 7
M  V30 39 1 36 7
M  V30 40 1 37 10
M  V30 41 1 38 11
M  V30 42 1 39 17
M  V30 43 1 40 19
M  V30 44 1 41 19
M  V30 45 1 42 20
M  V30 46 1 43 20
M  V30 47 1 44 23
M  V30 48 1 45 24
M  V30 49 1 46 25
M  V30 50 1 47 26
M  V30 END BOND
M  V30 END CTAB
M  END
>  <b_m_subgroup_collapsed>  (1713) 
0

>  <r_i_docking_score>  (1713) 
-6.7813717098546098

>  <s_m_subgroup_title>  (1713) 
glide-dock_SP_D22_pv

>  <s_m_subgroupid>  (1713) 
glide-dock_SP_D22_pv

>  <Molecule ChEMBL ID>  (1713) 
CHEMBL595151

>  <Standard Type>  (1713) 
Ki

>  <Standard Value>  (1713) 
10000.0

>  <label>  (1713) 
0

$$$$
CHEMBL88937
     RDKit          3D

  0  0  0  0  0  0  0  0  0  0999 V3000
M  V30 BEGIN CTAB
M  V30 COUNTS 42 45 0 0 1
M  V30 BEGIN ATOM
M  V30 1 Cl 12.089676 9.366133 -2.632818 0
M  V30 2 C 11.756707 8.800925 -4.220912 0
M  V30 3 C 11.570434 9.724942 -5.262351 0
M  V30 4 C 11.236326 9.272102 -6.548707 0
M  V30 5 C 11.079623 7.892851 -6.811641 0
M  V30 6 N 10.712784 7.471064 -8.100114 0
M  V30 7 C 10.095071 6.171402 -8.339526 0
M  V30 8 C 9.168272 6.243076 -9.572869 0
M  V30 9 N 9.868804 6.785475 -10.747128 0
M  V30 10 C 8.943966 6.952146 -11.865972 0
M  V30 11 C 8.441076 5.667936 -12.508930 0
M  V30 12 C 7.118917 5.293710 -12.414743 0
M  V30 13 C 6.650752 4.136877 -13.084235 0
M  V30 14 C 7.506354 3.371313 -13.846588 0
M  V30 15 C 8.873229 3.746785 -13.941310 0
M  V30 16 C 9.975770 3.245855 -14.577838 0
M  V30 17 C 11.016124 4.147706 -14.246826 0
M  V30 18 N 10.636248 5.143399 -13.478849 0
M  V30 19 N 9.297727 4.908053 -13.257189 0
M  V30 20 C 10.379629 8.119299 -10.418192 0
M  V30 21 C 11.384708 8.028954 -9.265163 0
M  V30 22 C 11.285832 6.971596 -5.758443 0
M  V30 23 C 11.642002 7.421337 -4.472358 0
M  V30 24 H 11.673820 10.782315 -5.078021 0
M  V30 25 H 11.074956 10.001936 -7.325831 0
M  V30 26 H 9.508266 5.860374 -7.474614 0
M  V30 27 H 10.877952 5.426992 -8.491188 0
M  V30 28 H 8.310709 6.870216 -9.331612 0
M  V30 29 H 8.776870 5.250327 -9.797293 0
M  V30 30 H 9.446068 7.521961 -12.646697 0
M  V30 31 H 8.087798 7.556608 -11.560849 0
M  V30 32 H 6.430544 5.901989 -11.833699 0
M  V30 33 H 5.606418 3.852695 -13.001746 0
M  V30 34 H 7.155542 2.483787 -14.361712 0
M  V30 35 H 10.045357 2.362125 -15.193762 0
M  V30 36 H 12.047442 4.091904 -14.564710 0
M  V30 37 H 10.875657 8.548127 -11.288626 0
M  V30 38 H 9.559616 8.789042 -10.151733 0
M  V30 39 H 11.816734 9.009654 -9.073514 0
M  V30 40 H 12.213186 7.376007 -9.543585 0
M  V30 41 H 11.190230 5.910522 -5.928584 0
M  V30 42 H 11.791178 6.707697 -3.675201 0
M  V30 END ATOM
M  V30 BEGIN BOND
M  V30 1 1 2 1
M  V30 2 1 3 2
M  V30 3 2 4 3
M  V30 4 1 5 4
M  V30 5 1 6 5
M  V30 6 1 7 6
M  V30 7 1 8 7
M  V30 8 1 9 8
M  V30 9 1 10 9
M  V30 10 1 11 10
M  V30 11 2 12 11
M  V30 12 1 13 12
M  V30 13 2 14 13
M  V30 14 1 15 14
M  V30 15 2 16 15
M  V30 16 1 17 16
M  V30 17 2 18 17
M  V30 18 1 19 11
M  V30 19 1 19 15
M  V30 20 1 19 18
M  V30 21 1 20 9
M  V30 22 1 21 6
M  V30 23 1 21 20
M  V30 24 2 22 5
M  V30 25 2 23 2
M  V30 26 1 23 22
M  V30 27 1 24 3
M  V30 28 1 25 4
M  V30 29 1 26 7
M  V30 30 1 27 7
M  V30 31 1 28 8
M  V30 32 1 29 8
M  V30 33 1 30 10
M  V30 34 1 31 10
M  V30 35 1 32 12
M  V30 36 1 33 13
M  V30 37 1 34 14
M  V30 38 1 35 16
M  V30 39 1 36 17
M  V30 40 1 37 20
M  V30 41 1 38 20
M  V30 42 1 39 21
M  V30 43 1 40 21
M  V30 44 1 41 22
M  V30 45 1 42 23
M  V30 END BOND
M  V30 END CTAB
M  END
>  <b_m_subgroup_collapsed>  (1714) 
0

>  <r_i_docking_score>  (1714) 
-6.7797962879644604

>  <s_m_subgroup_title>  (1714) 
glide-dock_SP_D22_pv

>  <s_m_subgroupid>  (1714) 
glide-dock_SP_D22_pv

>  <Molecule ChEMBL ID>  (1714) 
CHEMBL88937

>  <Standard Type>  (1714) 
Ki

>  <Standard Value>  (1714) 
31000.0

>  <label>  (1714) 
0

$$$$
CHEMBL4170001
     RDKit          3D

  0  0  0  0  0  0  0  0  0  0999 V3000
M  V30 BEGIN CTAB
M  V30 COUNTS 55 58 0 0 1
M  V30 BEGIN ATOM
M  V30 1 C 5.016479 1.342685 -13.093578 0
M  V30 2 O 6.306949 0.873755 -13.448197 0
M  V30 3 C 6.625420 1.022438 -14.823237 0 CFG=2
M  V30 4 C 7.658445 -0.041910 -15.205292 0
M  V30 5 C 9.009899 0.243320 -14.538400 0
M  V30 6 C 9.495414 1.674710 -14.806803 0
M  V30 7 N 8.474414 2.672598 -14.397317 0 CFG=1 CHG=1
M  V30 8 C 8.960351 4.072219 -14.514861 0
M  V30 9 C 8.797244 4.853694 -13.241679 0
M  V30 10 N 9.898520 5.481007 -12.676807 0
M  V30 11 C 9.435803 6.129348 -11.607903 0
M  V30 12 C 10.172231 6.967363 -10.669317 0
M  V30 13 C 11.470108 7.399745 -11.004118 0
M  V30 14 C 12.216599 8.174299 -10.099708 0
M  V30 15 C 11.657200 8.551876 -8.865596 0
M  V30 16 C 10.350415 8.137833 -8.521496 0
M  V30 17 O 9.782412 8.503438 -7.326272 0
M  V30 18 C 10.528001 8.340139 -6.185318 0
M  V30 19 C 10.885809 7.051360 -5.739310 0
M  V30 20 C 11.663739 6.897789 -4.575402 0
M  V30 21 C 12.075999 8.027777 -3.844040 0
M  V30 22 C 11.702879 9.314393 -4.276156 0
M  V30 23 C 10.939449 9.474924 -5.451104 0
M  V30 24 C 9.609435 7.351165 -9.430819 0
M  V30 25 O 8.103365 5.950899 -11.429430 0
M  V30 26 C 7.700889 5.167220 -12.472980 0
M  V30 27 C 6.242083 4.867782 -12.533153 0
M  V30 28 C 7.176701 2.440050 -15.091313 0
M  V30 29 H 4.886146 1.284294 -12.013113 0
M  V30 30 H 4.868519 2.380898 -13.387873 0
M  V30 31 H 4.242104 0.736706 -13.566072 0
M  V30 32 H 5.731954 0.843583 -15.421747 0
M  V30 33 H 7.784403 -0.061945 -16.287994 0
M  V30 34 H 7.282381 -1.024765 -14.907437 0
M  V30 35 H 9.756492 -0.482542 -14.860523 0
M  V30 36 H 8.887270 0.122180 -13.468284 0
M  V30 37 H 9.731501 1.798868 -15.866221 0
M  V30 38 H 10.417315 1.847419 -14.251365 0
M  V30 39 H 8.486304 4.586287 -15.349791 0
M  V30 40 H 10.021269 4.066127 -14.782437 0
M  V30 41 H 11.908435 7.129369 -11.953688 0
M  V30 42 H 13.210598 8.507167 -10.361328 0
M  V30 43 H 12.233451 9.161564 -8.185640 0
M  V30 44 H 10.568003 6.179913 -6.290036 0
M  V30 45 H 11.935625 5.908892 -4.234873 0
M  V30 46 H 12.664293 7.910165 -2.946792 0
M  V30 47 H 12.007483 10.173959 -3.700224 0
M  V30 48 H 10.662397 10.465265 -5.787287 0
M  V30 49 H 8.607281 7.039977 -9.164998 0
M  V30 50 H 5.857366 4.971617 -13.548131 0
M  V30 51 H 6.040084 3.858186 -12.173862 0
M  V30 52 H 5.686594 5.559466 -11.898860 0
M  V30 53 H 6.452175 3.190377 -14.789133 0
M  V30 54 H 7.317472 2.568243 -16.165470 0
M  V30 55 H 8.311031 2.516356 -13.411640 0
M  V30 END ATOM
M  V30 BEGIN BOND
M  V30 1 1 2 1
M  V30 2 1 3 2
M  V30 3 1 4 3
M  V30 4 1 5 4
M  V30 5 1 6 5
M  V30 6 1 7 6
M  V30 7 1 8 7
M  V30 8 1 9 8
M  V30 9 1 10 9
M  V30 10 2 11 10
M  V30 11 1 12 11
M  V30 12 2 13 12
M  V30 13 1 14 13
M  V30 14 2 15 14
M  V30 15 1 16 15
M  V30 16 1 17 16
M  V30 17 1 18 17
M  V30 18 2 19 18
M  V30 19 1 20 19
M  V30 20 2 21 20
M  V30 21 1 22 21
M  V30 22 1 23 18
M  V30 23 2 23 22
M  V30 24 1 24 12
M  V30 25 2 24 16
M  V30 26 1 25 11
M  V30 27 2 26 9
M  V30 28 1 26 25
M  V30 29 1 27 26
M  V30 30 1 28 3
M  V30 31 1 28 7
M  V30 32 1 29 1
M  V30 33 1 30 1
M  V30 34 1 31 1
M  V30 35 1 3 32 CFG=3
M  V30 36 1 33 4
M  V30 37 1 34 4
M  V30 38 1 35 5
M  V30 39 1 36 5
M  V30 40 1 37 6
M  V30 41 1 38 6
M  V30 42 1 39 8
M  V30 43 1 40 8
M  V30 44 1 41 13
M  V30 45 1 42 14
M  V30 46 1 43 15
M  V30 47 1 44 19
M  V30 48 1 45 20
M  V30 49 1 46 21
M  V30 50 1 47 22
M  V30 51 1 48 23
M  V30 52 1 49 24
M  V30 53 1 50 27
M  V30 54 1 51 27
M  V30 55 1 52 27
M  V30 56 1 53 28
M  V30 57 1 54 28
M  V30 58 1 7 55 CFG=1
M  V30 END BOND
M  V30 END CTAB
M  END
>  <b_m_subgroup_collapsed>  (1715) 
0

>  <r_i_docking_score>  (1715) 
-6.7777561609565398

>  <s_m_subgroup_title>  (1715) 
glide-dock_SP_D22_pv

>  <s_m_subgroupid>  (1715) 
glide-dock_SP_D22_pv

>  <Molecule ChEMBL ID>  (1715) 
CHEMBL4170001

>  <Standard Type>  (1715) 
Ki

>  <Standard Value>  (1715) 
10000.0

>  <label>  (1715) 
0

$$$$
CHEMBL3085825
     RDKit          3D

  0  0  0  0  0  0  0  0  0  0999 V3000
M  V30 BEGIN CTAB
M  V30 COUNTS 61 63 0 0 1
M  V30 BEGIN ATOM
M  V30 1 C 12.085423 9.456986 -2.450946 0
M  V30 2 N 11.725717 8.200797 -3.106933 0
M  V30 3 C 11.623962 7.050243 -2.213315 0
M  V30 4 C 11.685919 8.037700 -4.445110 0
M  V30 5 O 11.730917 6.927422 -4.966481 0
M  V30 6 N 11.537459 9.180408 -5.140073 0
M  V30 7 C 11.770855 9.381270 -6.571165 0
M  V30 8 C 10.665275 8.886683 -7.544994 0 CFG=1
M  V30 9 C 11.121512 9.116051 -9.003648 0
M  V30 10 C 10.101547 8.629628 -10.039849 0
M  V30 11 C 9.724635 7.154696 -9.830308 0 CFG=2
M  V30 12 C 8.645134 6.716536 -10.836504 0
M  V30 13 N 9.165156 5.881740 -11.930618 0 CHG=1
M  V30 14 C 8.262520 5.959774 -13.103927 0
M  V30 15 C 8.798080 5.112023 -14.259299 0
M  V30 16 N 9.092479 3.762014 -13.827688 0
M  V30 17 C 8.420308 2.630153 -14.323334 0
M  V30 18 C 9.178070 1.718030 -15.087250 0
M  V30 19 C 8.616044 0.505040 -15.521858 0
M  V30 20 C 7.299182 0.173096 -15.158617 0
M  V30 21 C 6.533757 1.062018 -14.383819 0
M  V30 22 Cl 4.966036 0.563692 -13.846558 0
M  V30 23 C 7.068143 2.315300 -14.004786 0
M  V30 24 Cl 6.086075 3.373089 -13.050830 0
M  V30 25 C 9.937930 3.618770 -12.659614 0
M  V30 26 C 9.395589 4.475677 -11.503487 0
M  V30 27 C 9.221048 6.964397 -8.396063 0
M  V30 28 C 10.250909 7.411837 -7.366876 0
M  V30 29 H 11.363828 10.242040 -2.675874 0
M  V30 30 H 12.130538 9.355628 -1.365681 0
M  V30 31 H 13.069827 9.772190 -2.793926 0
M  V30 32 H 12.584999 6.843206 -1.744907 0
M  V30 33 H 10.885719 7.267528 -1.447356 0
M  V30 34 H 11.292689 6.135593 -2.705639 0
M  V30 35 H 11.431698 10.018740 -4.590020 0
M  V30 36 H 12.742547 8.972602 -6.843229 0
M  V30 37 H 11.880276 10.459157 -6.689439 0
M  V30 38 H 9.772898 9.488469 -7.371752 0
M  V30 39 H 11.286056 10.175162 -9.178223 0
M  V30 40 H 12.076246 8.617352 -9.177488 0
M  V30 41 H 10.505243 8.764553 -11.043409 0
M  V30 42 H 9.207732 9.253508 -9.976007 0
M  V30 43 H 10.624588 6.550537 -9.949940 0
M  V30 44 H 8.203530 7.604676 -11.291218 0
M  V30 45 H 7.833526 6.171660 -10.347650 0
M  V30 46 H 8.113220 6.983736 -13.439990 0
M  V30 47 H 7.270951 5.635752 -12.801167 0
M  V30 48 H 9.707842 5.552665 -14.668562 0
M  V30 49 H 8.077452 5.097422 -15.046811 0
M  V30 50 H 10.206807 1.941543 -15.329432 0
M  V30 51 H 9.204945 -0.189949 -16.102432 0
M  V30 52 H 6.883780 -0.780493 -15.452073 0
M  V30 53 H 10.003042 2.573474 -12.370902 0
M  V30 54 H 10.941842 3.941245 -12.933212 0
M  V30 55 H 10.083688 4.429965 -10.659584 0
M  V30 56 H 8.442418 4.073361 -11.159119 0
M  V30 57 H 8.321519 7.552465 -8.243079 0
M  V30 58 H 8.953541 5.921917 -8.218506 0
M  V30 59 H 9.787671 7.268877 -6.391702 0
M  V30 60 H 11.124719 6.761225 -7.425203 0
M  V30 61 H 10.051563 6.268838 -12.218364 0
M  V30 END ATOM
M  V30 BEGIN BOND
M  V30 1 1 2 1
M  V30 2 1 3 2
M  V30 3 1 4 2
M  V30 4 2 5 4
M  V30 5 1 6 4
M  V30 6 1 7 6
M  V30 7 1 8 7
M  V30 8 1 9 8
M  V30 9 1 10 9
M  V30 10 1 11 10
M  V30 11 1 12 11
M  V30 12 1 13 12
M  V30 13 1 14 13
M  V30 14 1 15 14
M  V30 15 1 16 15
M  V30 16 1 17 16
M  V30 17 2 18 17
M  V30 18 1 19 18
M  V30 19 2 20 19
M  V30 20 1 21 20
M  V30 21 1 22 21
M  V30 22 1 23 17
M  V30 23 2 23 21
M  V30 24 1 24 23
M  V30 25 1 25 16
M  V30 26 1 26 13
M  V30 27 1 26 25
M  V30 28 1 27 11
M  V30 29 1 28 8
M  V30 30 1 28 27
M  V30 31 1 29 1
M  V30 32 1 30 1
M  V30 33 1 31 1
M  V30 34 1 32 3
M  V30 35 1 33 3
M  V30 36 1 34 3
M  V30 37 1 35 6
M  V30 38 1 36 7
M  V30 39 1 37 7
M  V30 40 1 8 38 CFG=1
M  V30 41 1 39 9
M  V30 42 1 40 9
M  V30 43 1 41 10
M  V30 44 1 42 10
M  V30 45 1 11 43 CFG=1
M  V30 46 1 44 12
M  V30 47 1 45 12
M  V30 48 1 46 14
M  V30 49 1 47 14
M  V30 50 1 48 15
M  V30 51 1 49 15
M  V30 52 1 50 18
M  V30 53 1 51 19
M  V30 54 1 52 20
M  V30 55 1 53 25
M  V30 56 1 54 25
M  V30 57 1 55 26
M  V30 58 1 56 26
M  V30 59 1 57 27
M  V30 60 1 58 27
M  V30 61 1 59 28
M  V30 62 1 60 28
M  V30 63 1 61 13
M  V30 END BOND
M  V30 END CTAB
M  END
>  <b_m_subgroup_collapsed>  (1716) 
0

>  <r_i_docking_score>  (1716) 
-6.7756256463473701

>  <s_m_subgroup_title>  (1716) 
glide-dock_SP_D22_pv

>  <s_m_subgroupid>  (1716) 
glide-dock_SP_D22_pv

>  <Molecule ChEMBL ID>  (1716) 
CHEMBL3085825

>  <Standard Type>  (1716) 
Ki

>  <Standard Value>  (1716) 
42.66

>  <label>  (1716) 
1

$$$$
CHEMBL4079495
     RDKit          3D

  0  0  0  0  0  0  0  0  0  0999 V3000
M  V30 BEGIN CTAB
M  V30 COUNTS 48 50 0 0 1
M  V30 BEGIN ATOM
M  V30 1 C 9.864044 1.999984 -14.870392 0
M  V30 2 O 8.444326 2.065191 -14.822358 0
M  V30 3 C 7.873761 3.062333 -14.061795 0
M  V30 4 C 6.485076 2.980455 -13.838045 0
M  V30 5 C 5.823492 3.936677 -13.042840 0
M  V30 6 C 6.547626 4.997187 -12.468491 0
M  V30 7 C 7.934278 5.102145 -12.694608 0
M  V30 8 C 8.722871 6.242149 -12.085773 0
M  V30 9 C 9.458170 5.827586 -10.802334 0
M  V30 10 C 10.342943 6.957428 -10.354907 0
M  V30 11 N 11.395247 7.377154 -11.071107 0 CHG=1
M  V30 12 C 12.086275 8.478530 -10.410909 0
M  V30 13 C 11.253710 8.697257 -9.144787 0
M  V30 14 N 10.191586 7.684750 -9.232315 0
M  V30 15 C 9.131483 7.571379 -8.209814 0
M  V30 16 C 9.602014 6.865480 -6.919624 0
M  V30 17 C 10.498028 7.663466 -5.977238 0
M  V30 18 C 10.518384 9.076164 -5.976279 0
M  V30 19 C 11.297808 9.782338 -5.045778 0
M  V30 20 C 12.084828 9.085178 -4.111000 0
M  V30 21 C 12.083613 7.678026 -4.104987 0
M  V30 22 C 11.286058 6.972449 -5.032043 0
M  V30 23 C 8.593715 4.136740 -13.484282 0
M  V30 24 H 10.165479 1.113798 -15.428758 0
M  V30 25 H 10.285734 2.868776 -15.375534 0
M  V30 26 H 10.293015 1.918838 -13.868351 0
M  V30 27 H 5.922810 2.156433 -14.251134 0
M  V30 28 H 4.760433 3.857443 -12.870133 0
M  V30 29 H 6.041918 5.729532 -11.852882 0
M  V30 30 H 8.061207 7.085617 -11.875656 0
M  V30 31 H 9.443509 6.581576 -12.829700 0
M  V30 32 H 10.083674 4.950372 -10.991225 0
M  V30 33 H 8.745242 5.532702 -10.030475 0
M  V30 34 H 13.114195 8.202226 -10.172807 0
M  V30 35 H 12.102128 9.367126 -11.043022 0
M  V30 36 H 10.833039 9.700281 -9.113466 0
M  V30 37 H 11.864811 8.545310 -8.256302 0
M  V30 38 H 8.311589 6.997186 -8.631742 0
M  V30 39 H 8.696173 8.548689 -8.004602 0
M  V30 40 H 10.116280 5.941017 -7.187921 0
M  V30 41 H 8.720947 6.565042 -6.349772 0
M  V30 42 H 9.932675 9.644131 -6.678899 0
M  V30 43 H 11.288925 10.863496 -5.047477 0
M  V30 44 H 12.687968 9.630338 -3.397512 0
M  V30 45 H 12.684241 7.140200 -3.387380 0
M  V30 46 H 11.276733 5.891420 -4.999979 0
M  V30 47 H 9.657052 4.240736 -13.637501 0
M  V30 48 H 11.686584 6.996954 -11.961492 0
M  V30 END ATOM
M  V30 BEGIN BOND
M  V30 1 1 2 1
M  V30 2 1 3 2
M  V30 3 2 4 3
M  V30 4 1 5 4
M  V30 5 2 6 5
M  V30 6 1 7 6
M  V30 7 1 8 7
M  V30 8 1 9 8
M  V30 9 1 10 9
M  V30 10 2 11 10
M  V30 11 1 12 11
M  V30 12 1 13 12
M  V30 13 1 14 10
M  V30 14 1 14 13
M  V30 15 1 15 14
M  V30 16 1 16 15
M  V30 17 1 17 16
M  V30 18 2 18 17
M  V30 19 1 19 18
M  V30 20 2 20 19
M  V30 21 1 21 20
M  V30 22 1 22 17
M  V30 23 2 22 21
M  V30 24 1 23 3
M  V30 25 2 23 7
M  V30 26 1 24 1
M  V30 27 1 25 1
M  V30 28 1 26 1
M  V30 29 1 27 4
M  V30 30 1 28 5
M  V30 31 1 29 6
M  V30 32 1 30 8
M  V30 33 1 31 8
M  V30 34 1 32 9
M  V30 35 1 33 9
M  V30 36 1 34 12
M  V30 37 1 35 12
M  V30 38 1 36 13
M  V30 39 1 37 13
M  V30 40 1 38 15
M  V30 41 1 39 15
M  V30 42 1 40 16
M  V30 43 1 41 16
M  V30 44 1 42 18
M  V30 45 1 43 19
M  V30 46 1 44 20
M  V30 47 1 45 21
M  V30 48 1 46 22
M  V30 49 1 47 23
M  V30 50 1 48 11
M  V30 END BOND
M  V30 END CTAB
M  END
>  <b_m_subgroup_collapsed>  (1717) 
0

>  <r_i_docking_score>  (1717) 
-6.7724053902460204

>  <s_m_subgroup_title>  (1717) 
glide-dock_SP_D22_pv

>  <s_m_subgroupid>  (1717) 
glide-dock_SP_D22_pv

>  <Molecule ChEMBL ID>  (1717) 
CHEMBL4079495

>  <Standard Type>  (1717) 
Ki

>  <Standard Value>  (1717) 
10000.0

>  <label>  (1717) 
0

$$$$
CHEMBL283528
     RDKit          3D

  0  0  0  0  0  0  0  0  0  0999 V3000
M  V30 BEGIN CTAB
M  V30 COUNTS 54 56 0 0 1
M  V30 BEGIN ATOM
M  V30 1 C 12.082518 7.268692 -2.699647 0
M  V30 2 C 11.437481 6.662468 -3.950571 0
M  V30 3 C 11.159804 7.702086 -5.045564 0
M  V30 4 C 10.563768 7.059546 -6.307996 0
M  V30 5 N 10.269016 8.059673 -7.365031 0 CFG=1 CHG=1
M  V30 6 C 11.444712 8.772726 -7.925017 0
M  V30 7 C 11.089458 9.125852 -9.376388 0
M  V30 8 C 9.614655 8.747052 -9.512456 0
M  V30 9 C 9.444289 7.601384 -8.509282 0 CFG=1
M  V30 10 C 9.887739 6.213353 -9.043166 0
M  V30 11 N 9.136325 5.754738 -10.202682 0
M  V30 12 C 9.543635 5.864910 -11.477090 0
M  V30 13 O 10.485756 6.572198 -11.835734 0
M  V30 14 C 8.836186 4.947913 -12.430398 0
M  V30 15 C 7.435043 4.827394 -12.352169 0
M  V30 16 C 6.758340 3.930299 -13.188776 0
M  V30 17 Cl 5.054820 3.769150 -13.046864 0
M  V30 18 C 7.466672 3.146231 -14.115107 0
M  V30 19 C 8.873159 3.251017 -14.219663 0
M  V30 20 C 9.558633 4.182215 -13.384644 0
M  V30 21 O 10.931280 4.322335 -13.449217 0
M  V30 22 C 11.551217 3.827014 -14.626143 0
M  V30 23 C 11.044229 2.411533 -14.905094 0
M  V30 24 N 9.603066 2.431920 -15.111178 0
M  V30 25 C 8.968076 1.259511 -15.707040 0
M  V30 26 H 12.281942 6.496417 -1.955745 0
M  V30 27 H 13.028613 7.752564 -2.941020 0
M  V30 28 H 11.431008 8.013253 -2.240770 0
M  V30 29 H 10.505474 6.172513 -3.670846 0
M  V30 30 H 12.086123 5.879553 -4.342721 0
M  V30 31 H 12.086105 8.217668 -5.291888 0
M  V30 32 H 10.486364 8.469920 -4.666638 0
M  V30 33 H 9.633134 6.555403 -6.040359 0
M  V30 34 H 11.244788 6.295472 -6.686088 0
M  V30 35 H 12.336681 8.143428 -7.905529 0
M  V30 36 H 11.652023 9.664244 -7.331521 0
M  V30 37 H 11.689554 8.525724 -10.061256 0
M  V30 38 H 11.280540 10.171548 -9.614739 0
M  V30 39 H 9.314157 8.512615 -10.531739 0
M  V30 40 H 8.991915 9.584582 -9.197261 0
M  V30 41 H 8.407945 7.533645 -8.186487 0
M  V30 42 H 9.729172 5.453521 -8.276526 0
M  V30 43 H 10.955364 6.193880 -9.265091 0
M  V30 44 H 8.317367 5.188827 -10.022824 0
M  V30 45 H 6.870228 5.415602 -11.641204 0
M  V30 46 H 6.907061 2.457937 -14.730359 0
M  V30 47 H 11.341703 4.493957 -15.465227 0
M  V30 48 H 12.630706 3.824779 -14.480903 0
M  V30 49 H 11.540983 2.007791 -15.787174 0
M  V30 50 H 11.282182 1.753282 -14.068042 0
M  V30 51 H 8.182716 1.560511 -16.403427 0
M  V30 52 H 9.692598 0.663272 -16.260981 0
M  V30 53 H 8.531897 0.622991 -14.936885 0
M  V30 54 H 9.702708 8.772039 -6.928797 0
M  V30 END ATOM
M  V30 BEGIN BOND
M  V30 1 1 2 1
M  V30 2 1 3 2
M  V30 3 1 4 3
M  V30 4 1 5 4
M  V30 5 1 6 5
M  V30 6 1 7 6
M  V30 7 1 8 7
M  V30 8 1 9 5
M  V30 9 1 9 8
M  V30 10 1 10 9
M  V30 11 1 11 10
M  V30 12 1 12 11
M  V30 13 2 13 12
M  V30 14 1 14 12
M  V30 15 1 15 14
M  V30 16 2 16 15
M  V30 17 1 17 16
M  V30 18 1 18 16
M  V30 19 2 19 18
M  V30 20 2 20 14
M  V30 21 1 20 19
M  V30 22 1 21 20
M  V30 23 1 22 21
M  V30 24 1 23 22
M  V30 25 1 24 19
M  V30 26 1 24 23
M  V30 27 1 25 24
M  V30 28 1 26 1
M  V30 29 1 27 1
M  V30 30 1 28 1
M  V30 31 1 29 2
M  V30 32 1 30 2
M  V30 33 1 31 3
M  V30 34 1 32 3
M  V30 35 1 33 4
M  V30 36 1 34 4
M  V30 37 1 35 6
M  V30 38 1 36 6
M  V30 39 1 37 7
M  V30 40 1 38 7
M  V30 41 1 39 8
M  V30 42 1 40 8
M  V30 43 1 9 41 CFG=1
M  V30 44 1 42 10
M  V30 45 1 43 10
M  V30 46 1 44 11
M  V30 47 1 45 15
M  V30 48 1 46 18
M  V30 49 1 47 22
M  V30 50 1 48 22
M  V30 51 1 49 23
M  V30 52 1 50 23
M  V30 53 1 51 25
M  V30 54 1 52 25
M  V30 55 1 53 25
M  V30 56 1 5 54 CFG=1
M  V30 END BOND
M  V30 END CTAB
M  END
>  <b_m_subgroup_collapsed>  (1718) 
0

>  <r_i_docking_score>  (1718) 
-6.77118998841752

>  <s_m_subgroup_title>  (1718) 
glide-dock_SP_D22_pv

>  <s_m_subgroupid>  (1718) 
glide-dock_SP_D22_pv

>  <Molecule ChEMBL ID>  (1718) 
CHEMBL283528

>  <Standard Type>  (1718) 
Ki

>  <Standard Value>  (1718) 
12.0

>  <label>  (1718) 
1

$$$$
CHEMBL2420769
     RDKit          3D

  0  0  0  0  0  0  0  0  0  0999 V3000
M  V30 BEGIN CTAB
M  V30 COUNTS 37 39 0 0 1
M  V30 BEGIN ATOM
M  V30 1 C 11.752502 8.399396 -4.100695 0
M  V30 2 C 11.686022 7.074192 -4.565052 0
M  V30 3 C 11.162133 6.797705 -5.843766 0
M  V30 4 C 10.671632 7.828931 -6.680308 0
M  V30 5 N 10.154481 7.529790 -7.967192 0
M  V30 6 C 9.280090 6.362709 -8.124009 0
M  V30 7 C 9.199858 5.895292 -9.597624 0
M  V30 8 N 8.886023 7.014163 -10.526973 0 CHG=1
M  V30 9 C 8.886019 6.646397 -11.967116 0
M  V30 10 C 7.927568 5.578470 -12.385152 0
M  V30 11 C 6.558252 5.566043 -12.292140 0
M  V30 12 C 5.964272 4.412541 -12.883642 0
M  V30 13 C 6.886016 3.572249 -13.446864 0
M  V30 14 S 8.507823 4.172325 -13.236907 0
M  V30 15 C 9.779958 8.177558 -10.316876 0
M  V30 16 C 9.824071 8.636133 -8.857576 0
M  V30 17 C 10.751667 9.159491 -6.190112 0
M  V30 18 C 11.286021 9.442596 -4.917896 0
M  V30 19 H 12.158260 8.614782 -3.122698 0
M  V30 20 H 12.047695 6.265474 -3.946495 0
M  V30 21 H 11.168215 5.772336 -6.175899 0
M  V30 22 H 8.283810 6.633180 -7.770672 0
M  V30 23 H 9.597119 5.521189 -7.512118 0
M  V30 24 H 8.442210 5.115975 -9.690807 0
M  V30 25 H 10.150131 5.446541 -9.886704 0
M  V30 26 H 9.898048 6.357027 -12.255171 0
M  V30 27 H 8.653955 7.539485 -12.548980 0
M  V30 28 H 5.959850 6.346691 -11.846864 0
M  V30 29 H 4.896433 4.249867 -12.889879 0
M  V30 30 H 6.714567 2.639363 -13.964102 0
M  V30 31 H 10.790184 7.920516 -10.640662 0
M  V30 32 H 9.446768 9.002707 -10.944436 0
M  V30 33 H 8.865600 9.066897 -8.562006 0
M  V30 34 H 10.577687 9.419984 -8.790752 0
M  V30 35 H 10.399695 9.997810 -6.767492 0
M  V30 36 H 11.325688 10.462871 -4.565615 0
M  V30 37 H 7.932703 7.330262 -10.300616 0
M  V30 END ATOM
M  V30 BEGIN BOND
M  V30 1 2 2 1
M  V30 2 1 3 2
M  V30 3 2 4 3
M  V30 4 1 5 4
M  V30 5 1 6 5
M  V30 6 1 7 6
M  V30 7 1 8 7
M  V30 8 1 9 8
M  V30 9 1 10 9
M  V30 10 2 11 10
M  V30 11 1 12 11
M  V30 12 2 13 12
M  V30 13 1 14 10
M  V30 14 1 14 13
M  V30 15 1 15 8
M  V30 16 1 16 5
M  V30 17 1 16 15
M  V30 18 1 17 4
M  V30 19 1 18 1
M  V30 20 2 18 17
M  V30 21 1 19 1
M  V30 22 1 20 2
M  V30 23 1 21 3
M  V30 24 1 22 6
M  V30 25 1 23 6
M  V30 26 1 24 7
M  V30 27 1 25 7
M  V30 28 1 26 9
M  V30 29 1 27 9
M  V30 30 1 28 11
M  V30 31 1 29 12
M  V30 32 1 30 13
M  V30 33 1 31 15
M  V30 34 1 32 15
M  V30 35 1 33 16
M  V30 36 1 34 16
M  V30 37 1 35 17
M  V30 38 1 36 18
M  V30 39 1 37 8
M  V30 END BOND
M  V30 END CTAB
M  END
>  <b_m_subgroup_collapsed>  (1719) 
0

>  <r_i_docking_score>  (1719) 
-6.7705683409133499

>  <s_m_subgroup_title>  (1719) 
glide-dock_SP_D22_pv

>  <s_m_subgroupid>  (1719) 
glide-dock_SP_D22_pv

>  <Molecule ChEMBL ID>  (1719) 
CHEMBL2420769

>  <Standard Type>  (1719) 
Ki

>  <Standard Value>  (1719) 
10000.0

>  <label>  (1719) 
0

$$$$
CHEMBL398615
     RDKit          3D

  0  0  0  0  0  0  0  0  0  0999 V3000
M  V30 BEGIN CTAB
M  V30 COUNTS 58 61 0 0 1
M  V30 BEGIN ATOM
M  V30 1 C 12.096245 6.919025 -17.026548 0
M  V30 2 S 12.570168 6.120901 -15.446397 0
M  V30 3 O 12.086565 6.967564 -14.343811 0
M  V30 4 O 13.994206 5.769245 -15.532471 0
M  V30 5 C 11.615971 4.606499 -15.446800 0
M  V30 6 C 12.086452 3.472967 -16.122746 0
M  V30 7 C 11.285978 2.320582 -16.149666 0
M  V30 8 C 10.018505 2.302843 -15.528835 0
M  V30 9 C 9.513737 3.447109 -14.851185 0
M  V30 10 C 10.354495 4.593577 -14.829593 0
M  V30 11 N 8.225807 3.456163 -14.245874 0
M  V30 12 C 7.714740 4.762438 -13.778795 0
M  V30 13 C 7.969233 5.054282 -12.278296 0
M  V30 14 C 8.937706 6.234488 -12.043258 0
M  V30 15 N 8.885954 6.813037 -10.677108 0 CFG=1 CHG=1
M  V30 16 C 9.356977 5.885820 -9.616035 0
M  V30 17 C 9.142428 6.492856 -8.220237 0
M  V30 18 C 9.780679 7.890360 -8.063427 0 CFG=1
M  V30 19 C 11.288027 7.763524 -7.815252 0
M  V30 20 N 12.136699 8.572384 -8.451607 0
M  V30 21 O 11.686035 6.913146 -7.028477 0
M  V30 22 C 9.374232 8.799105 -9.246403 0
M  V30 23 C 9.585324 8.121485 -10.611138 0
M  V30 24 C 7.315122 2.362586 -14.206790 0
M  V30 25 C 6.086310 2.446683 -13.489320 0
M  V30 26 C 5.178729 1.373802 -13.445604 0
M  V30 27 C 5.466978 0.172974 -14.105671 0
M  V30 28 C 6.681692 0.050483 -14.792205 0
M  V30 29 C 7.602674 1.118885 -14.833898 0
M  V30 30 S 9.112198 0.804233 -15.677818 0
M  V30 31 H 12.521396 7.922387 -17.069822 0
M  V30 32 H 12.477617 6.326389 -17.856913 0
M  V30 33 H 11.011669 6.971997 -17.092726 0
M  V30 34 H 13.051163 3.483085 -16.609900 0
M  V30 35 H 11.645953 1.439593 -16.661524 0
M  V30 36 H 10.067305 5.513903 -14.360348 0
M  V30 37 H 8.086209 5.574792 -14.399193 0
M  V30 38 H 6.647372 4.842672 -13.975393 0
M  V30 39 H 7.010292 5.297802 -11.818583 0
M  V30 40 H 8.322578 4.156603 -11.770326 0
M  V30 41 H 9.965431 5.942660 -12.259415 0
M  V30 42 H 8.675601 7.027882 -12.743349 0
M  V30 43 H 8.813852 4.942408 -9.669872 0
M  V30 44 H 10.411605 5.653927 -9.769923 0
M  V30 45 H 9.500055 5.795507 -7.460720 0
M  V30 46 H 8.085917 6.574880 -8.024295 0
M  V30 47 H 9.383288 8.337657 -7.151177 0
M  V30 48 H 11.805199 9.275770 -9.093516 0
M  V30 49 H 13.126723 8.488240 -8.270722 0
M  V30 50 H 9.904941 9.750843 -9.220501 0
M  V30 51 H 8.324436 9.066412 -9.136128 0
M  V30 52 H 10.647855 7.980681 -10.815601 0
M  V30 53 H 9.200861 8.782420 -11.389511 0
M  V30 54 H 5.799199 3.324790 -12.934615 0
M  V30 55 H 4.245646 1.490889 -12.920953 0
M  V30 56 H 4.766361 -0.649503 -14.088389 0
M  V30 57 H 6.900016 -0.883321 -15.289913 0
M  V30 58 H 7.904362 7.032833 -10.481689 0
M  V30 END ATOM
M  V30 BEGIN BOND
M  V30 1 1 2 1
M  V30 2 2 3 2
M  V30 3 2 4 2
M  V30 4 1 5 2
M  V30 5 1 6 5
M  V30 6 2 7 6
M  V30 7 1 8 7
M  V30 8 2 9 8
M  V30 9 2 10 5
M  V30 10 1 10 9
M  V30 11 1 11 9
M  V30 12 1 12 11
M  V30 13 1 13 12
M  V30 14 1 14 13
M  V30 15 1 15 14
M  V30 16 1 16 15
M  V30 17 1 17 16
M  V30 18 1 18 17
M  V30 19 1 19 18
M  V30 20 1 20 19
M  V30 21 2 21 19
M  V30 22 1 22 18
M  V30 23 1 23 15
M  V30 24 1 23 22
M  V30 25 1 24 11
M  V30 26 2 25 24
M  V30 27 1 26 25
M  V30 28 2 27 26
M  V30 29 1 28 27
M  V30 30 1 29 24
M  V30 31 2 29 28
M  V30 32 1 30 8
M  V30 33 1 30 29
M  V30 34 1 31 1
M  V30 35 1 32 1
M  V30 36 1 33 1
M  V30 37 1 34 6
M  V30 38 1 35 7
M  V30 39 1 36 10
M  V30 40 1 37 12
M  V30 41 1 38 12
M  V30 42 1 39 13
M  V30 43 1 40 13
M  V30 44 1 41 14
M  V30 45 1 42 14
M  V30 46 1 43 16
M  V30 47 1 44 16
M  V30 48 1 45 17
M  V30 49 1 46 17
M  V30 50 1 18 47 CFG=1
M  V30 51 1 48 20
M  V30 52 1 49 20
M  V30 53 1 50 22
M  V30 54 1 51 22
M  V30 55 1 52 23
M  V30 56 1 53 23
M  V30 57 1 54 25
M  V30 58 1 55 26
M  V30 59 1 56 27
M  V30 60 1 57 28
M  V30 61 1 15 58 CFG=1
M  V30 END BOND
M  V30 END CTAB
M  END
>  <b_m_subgroup_collapsed>  (1720) 
0

>  <r_i_docking_score>  (1720) 
-6.7681066369145801

>  <s_m_subgroup_title>  (1720) 
glide-dock_SP_D22_pv

>  <s_m_subgroupid>  (1720) 
glide-dock_SP_D22_pv

>  <Molecule ChEMBL ID>  (1720) 
CHEMBL398615

>  <Standard Type>  (1720) 
Ki

>  <Standard Value>  (1720) 
0.07

>  <label>  (1720) 
1

$$$$
CHEMBL539518
     RDKit          3D

  0  0  0  0  0  0  0  0  0  0999 V3000
M  V30 BEGIN CTAB
M  V30 COUNTS 39 41 0 0 1
M  V30 BEGIN ATOM
M  V30 1 C 7.061193 5.105248 -11.786545 0
M  V30 2 N 8.377621 5.527496 -11.256885 0 CFG=2 CHG=1
M  V30 3 C 8.416945 5.488144 -9.774380 0
M  V30 4 C 9.807390 5.848159 -9.249413 0
M  V30 5 C 10.271842 7.249394 -9.740767 0 CFG=1
M  V30 6 C 10.202065 7.253215 -11.280417 0
M  V30 7 C 8.811297 6.840389 -11.802123 0
M  V30 8 C 9.478353 8.428654 -9.145617 0
M  V30 9 C 9.656647 8.426618 -7.638032 0
M  V30 10 O 8.692661 8.572305 -6.899188 0
M  V30 11 C 11.017631 8.202475 -7.154112 0
M  V30 12 C 11.345763 8.300030 -5.721320 0
M  V30 13 C 11.681381 7.131405 -5.003056 0
M  V30 14 C 12.063050 7.215648 -3.648718 0
M  V30 15 C 12.079563 8.464303 -2.999743 0
M  V30 16 C 11.686475 9.622817 -3.698101 0
M  V30 17 C 11.324265 9.546393 -5.058941 0
M  V30 18 C 11.914111 7.772462 -8.072935 0
M  V30 19 O 11.643488 7.446797 -9.387915 0
M  V30 20 H 6.267424 5.772794 -11.448814 0
M  V30 21 H 7.062232 5.098277 -12.877455 0
M  V30 22 H 6.816381 4.097828 -11.447048 0
M  V30 23 H 8.143027 4.490236 -9.429300 0
M  V30 24 H 7.686041 6.172372 -9.354926 0
M  V30 25 H 10.485948 5.078500 -9.598777 0
M  V30 26 H 9.818176 5.766688 -8.162000 0
M  V30 27 H 10.463527 8.238301 -11.664042 0
M  V30 28 H 10.950226 6.571852 -11.684528 0
M  V30 29 H 8.833153 6.778309 -12.889836 0
M  V30 30 H 8.086068 7.611510 -11.553191 0
M  V30 31 H 8.428305 8.370225 -9.391865 0
M  V30 32 H 9.845901 9.376684 -9.538639 0
M  V30 33 H 11.674911 6.169743 -5.495840 0
M  V30 34 H 12.336892 6.320813 -3.109108 0
M  V30 35 H 12.365488 8.533139 -1.960445 0
M  V30 36 H 11.680071 10.572133 -3.184622 0
M  V30 37 H 11.047489 10.443654 -5.592083 0
M  V30 38 H 12.942044 7.549759 -7.847124 0
M  V30 39 H 9.048409 4.844754 -11.577517 0
M  V30 END ATOM
M  V30 BEGIN BOND
M  V30 1 1 2 1
M  V30 2 1 3 2
M  V30 3 1 4 3
M  V30 4 1 5 4
M  V30 5 1 6 5
M  V30 6 1 7 2
M  V30 7 1 7 6
M  V30 8 1 8 5
M  V30 9 1 9 8
M  V30 10 2 10 9
M  V30 11 1 11 9
M  V30 12 1 12 11
M  V30 13 2 13 12
M  V30 14 1 14 13
M  V30 15 2 15 14
M  V30 16 1 16 15
M  V30 17 1 17 12
M  V30 18 2 17 16
M  V30 19 2 18 11
M  V30 20 1 5 19 CFG=3
M  V30 21 1 19 18
M  V30 22 1 20 1
M  V30 23 1 21 1
M  V30 24 1 22 1
M  V30 25 1 23 3
M  V30 26 1 24 3
M  V30 27 1 25 4
M  V30 28 1 26 4
M  V30 29 1 27 6
M  V30 30 1 28 6
M  V30 31 1 29 7
M  V30 32 1 30 7
M  V30 33 1 31 8
M  V30 34 1 32 8
M  V30 35 1 33 13
M  V30 36 1 34 14
M  V30 37 1 35 15
M  V30 38 1 36 16
M  V30 39 1 37 17
M  V30 40 1 38 18
M  V30 41 1 2 39 CFG=3
M  V30 END BOND
M  V30 END CTAB
M  END
>  <b_m_subgroup_collapsed>  (1721) 
0

>  <r_i_docking_score>  (1721) 
-6.7671408973985798

>  <s_m_subgroup_title>  (1721) 
glide-dock_SP_D22_pv

>  <s_m_subgroupid>  (1721) 
glide-dock_SP_D22_pv

>  <Molecule ChEMBL ID>  (1721) 
CHEMBL539518

>  <Standard Type>  (1721) 
Ki

>  <Standard Value>  (1721) 
100000.0

>  <label>  (1721) 
0

$$$$
CHEMBL1081254
     RDKit          3D

  0  0  0  0  0  0  0  0  0  0999 V3000
M  V30 BEGIN CTAB
M  V30 COUNTS 61 65 0 0 1
M  V30 BEGIN ATOM
M  V30 1 C 12.386444 8.749452 -2.166871 0
M  V30 2 O 11.974217 9.558169 -3.257696 0
M  V30 3 C 11.590076 8.930153 -4.422329 0
M  V30 4 C 11.043944 9.735933 -5.440310 0
M  V30 5 C 10.594872 9.157343 -6.643596 0
M  V30 6 C 10.695701 7.775710 -6.885824 0
M  V30 7 C 10.225667 7.203430 -8.167399 0
M  V30 8 C 9.676105 5.907141 -8.207606 0
M  V30 9 C 9.261059 5.317484 -9.413889 0
M  V30 10 C 9.363271 6.026220 -10.627572 0
M  V30 11 C 8.878031 5.377642 -11.899186 0
M  V30 12 O 7.829507 4.732762 -11.857265 0
M  V30 13 N 9.616146 5.479087 -13.038547 0
M  V30 14 C 10.984580 6.007559 -13.181556 0
M  V30 15 C 11.935296 4.950581 -13.772945 0
M  V30 16 N 11.397307 4.306039 -14.982784 0
M  V30 17 C 12.106236 4.308454 -16.143930 0
M  V30 18 O 13.126233 4.978029 -16.309992 0
M  V30 19 C 11.637484 3.438144 -17.273073 0
M  V30 20 C 11.348585 4.011677 -18.529799 0
M  V30 21 C 10.915407 3.207528 -19.602928 0
M  V30 22 C 10.774527 1.809733 -19.457047 0
M  V30 23 C 10.362279 0.740959 -20.323977 0
M  V30 24 C 10.439796 -0.413326 -19.590755 0
M  V30 25 N 10.884100 -0.109896 -18.314360 0
M  V30 26 C 11.098352 1.247944 -18.185778 0
M  V30 27 C 11.532535 2.040659 -17.109856 0
M  V30 28 C 10.009926 3.814418 -14.828925 0 CFG=1
M  V30 29 C 9.933964 2.561845 -13.940951 0
M  V30 30 C 9.119098 4.962091 -14.319564 0
M  V30 31 C 9.829170 7.361847 -10.589868 0
M  V30 32 C 10.282792 7.927085 -9.381423 0
M  V30 33 C 11.251137 6.972748 -5.862878 0
M  V30 34 C 11.686094 7.535594 -4.645771 0
M  V30 35 H 12.619749 9.382318 -1.312353 0
M  V30 36 H 11.596488 8.061547 -1.862681 0
M  V30 37 H 13.281040 8.178356 -2.413938 0
M  V30 38 H 10.948378 10.800701 -5.289307 0
M  V30 39 H 10.143108 9.772643 -7.400770 0
M  V30 40 H 9.556590 5.365139 -7.287021 0
M  V30 41 H 8.845629 4.319985 -9.401587 0
M  V30 42 H 10.974727 6.872303 -13.842767 0
M  V30 43 H 11.422706 6.352909 -12.249923 0
M  V30 44 H 12.894564 5.432286 -13.945196 0
M  V30 45 H 12.138988 4.172324 -13.046604 0
M  V30 46 H 11.451278 5.078155 -18.670362 0
M  V30 47 H 10.689829 3.665777 -20.553667 0
M  V30 48 H 10.052517 0.840503 -21.353857 0
M  V30 49 H 10.209665 -1.427638 -19.878464 0
M  V30 50 H 11.009288 -0.802735 -17.589722 0
M  V30 51 H 11.794850 1.573654 -16.171770 0
M  V30 52 H 9.591616 3.534834 -15.796755 0
M  V30 53 H 8.919182 2.165139 -13.917528 0
M  V30 54 H 10.585455 1.767558 -14.297221 0
M  V30 55 H 10.214330 2.780099 -12.913526 0
M  V30 56 H 8.080769 4.628546 -14.268947 0
M  V30 57 H 9.118695 5.769975 -15.046538 0
M  V30 58 H 9.856848 7.956564 -11.490501 0
M  V30 59 H 10.676378 8.933500 -9.400958 0
M  V30 60 H 11.354665 5.907680 -6.007185 0
M  V30 61 H 12.091958 6.868567 -3.898721 0
M  V30 END ATOM
M  V30 BEGIN BOND
M  V30 1 1 2 1
M  V30 2 1 3 2
M  V30 3 1 4 3
M  V30 4 2 5 4
M  V30 5 1 6 5
M  V30 6 1 7 6
M  V30 7 1 8 7
M  V30 8 2 9 8
M  V30 9 1 10 9
M  V30 10 1 11 10
M  V30 11 2 12 11
M  V30 12 1 13 11
M  V30 13 1 14 13
M  V30 14 1 15 14
M  V30 15 1 16 15
M  V30 16 1 17 16
M  V30 17 2 18 17
M  V30 18 1 19 17
M  V30 19 2 20 19
M  V30 20 1 21 20
M  V30 21 2 22 21
M  V30 22 1 23 22
M  V30 23 2 24 23
M  V30 24 1 25 24
M  V30 25 1 26 22
M  V30 26 1 26 25
M  V30 27 1 27 19
M  V30 28 2 27 26
M  V30 29 1 28 16
M  V30 30 1 29 28
M  V30 31 1 30 13
M  V30 32 1 30 28
M  V30 33 2 31 10
M  V30 34 2 32 7
M  V30 35 1 32 31
M  V30 36 2 33 6
M  V30 37 2 34 3
M  V30 38 1 34 33
M  V30 39 1 35 1
M  V30 40 1 36 1
M  V30 41 1 37 1
M  V30 42 1 38 4
M  V30 43 1 39 5
M  V30 44 1 40 8
M  V30 45 1 41 9
M  V30 46 1 42 14
M  V30 47 1 43 14
M  V30 48 1 44 15
M  V30 49 1 45 15
M  V30 50 1 46 20
M  V30 51 1 47 21
M  V30 52 1 48 23
M  V30 53 1 49 24
M  V30 54 1 50 25
M  V30 55 1 51 27
M  V30 56 1 28 52 CFG=3
M  V30 57 1 53 29
M  V30 58 1 54 29
M  V30 59 1 55 29
M  V30 60 1 56 30
M  V30 61 1 57 30
M  V30 62 1 58 31
M  V30 63 1 59 32
M  V30 64 1 60 33
M  V30 65 1 61 34
M  V30 END BOND
M  V30 END CTAB
M  END
>  <b_m_subgroup_collapsed>  (1722) 
0

>  <r_i_docking_score>  (1722) 
-6.7664732594009296

>  <s_m_subgroup_title>  (1722) 
glide-dock_SP_D22_pv

>  <s_m_subgroupid>  (1722) 
glide-dock_SP_D22_pv

>  <Molecule ChEMBL ID>  (1722) 
CHEMBL1081254

>  <Standard Type>  (1722) 
Ki

>  <Standard Value>  (1722) 
10000.0

>  <label>  (1722) 
0

$$$$
CHEMBL3936289
     RDKit          3D

  0  0  0  0  0  0  0  0  0  0999 V3000
M  V30 BEGIN CTAB
M  V30 COUNTS 50 53 0 0 1
M  V30 BEGIN ATOM
M  V30 1 C 9.141470 5.754853 -13.245281 0
M  V30 2 N 9.415385 5.613131 -11.798038 0 CFG=2 CHG=1
M  V30 3 C 8.228475 5.045296 -11.104646 0
M  V30 4 C 8.527759 4.791131 -9.627107 0
M  V30 5 C 8.877887 6.121181 -8.969625 0 CFG=1
M  V30 6 C 8.961106 5.998313 -7.450151 0
M  V30 7 C 9.539451 7.284579 -6.904942 0
M  V30 8 O 8.887988 8.084502 -6.247983 0
M  V30 9 C 10.951355 7.589059 -7.379714 0 CFG=2
M  V30 10 C 11.566730 8.754888 -6.569836 0
M  V30 11 C 11.676600 8.531994 -5.060442 0
M  V30 12 C 11.759620 9.666437 -4.237349 0
M  V30 13 C 11.993131 9.532415 -2.859108 0
M  V30 14 C 12.086876 8.256387 -2.277544 0
M  V30 15 C 11.946275 7.109222 -3.080902 0
M  V30 16 C 11.743092 7.245590 -4.468944 0
M  V30 17 C 10.820272 7.834223 -8.903122 0 CFG=1
M  V30 18 C 12.156362 8.177321 -9.573899 0
M  V30 19 C 11.914488 8.513445 -11.038218 0
M  V30 20 C 11.245618 7.373903 -11.819686 0
M  V30 21 C 9.947703 6.855482 -11.142913 0 CFG=2
M  V30 22 C 10.186840 6.608653 -9.626343 0 CFG=2
M  V30 23 H 8.418824 6.554325 -13.418122 0
M  V30 24 H 8.725039 4.832438 -13.653332 0
M  V30 25 H 10.052756 5.956970 -13.807313 0
M  V30 26 H 7.378633 5.724584 -11.201589 0
M  V30 27 H 7.935187 4.108376 -11.578189 0
M  V30 28 H 7.686998 4.315911 -9.134566 0
M  V30 29 H 9.359161 4.094018 -9.517079 0
M  V30 30 H 8.086187 6.838351 -9.174963 0
M  V30 31 H 7.982774 5.799151 -7.010552 0
M  V30 32 H 9.635659 5.189137 -7.188849 0
M  V30 33 H 11.561151 6.698135 -7.228504 0
M  V30 34 H 12.575737 8.968674 -6.917998 0
M  V30 35 H 10.994725 9.666371 -6.752114 0
M  V30 36 H 11.669564 10.639249 -4.686521 0
M  V30 37 H 12.087055 10.415270 -2.245779 0
M  V30 38 H 12.254494 8.172282 -1.215067 0
M  V30 39 H 12.007458 6.125488 -2.638858 0
M  V30 40 H 11.673424 6.349827 -5.067443 0
M  V30 41 H 10.155452 8.690732 -9.041318 0
M  V30 42 H 12.610541 9.040110 -9.096216 0
M  V30 43 H 12.878781 7.372539 -9.478433 0
M  V30 44 H 11.249536 9.369249 -11.046615 0
M  V30 45 H 12.849207 8.815622 -11.512638 0
M  V30 46 H 11.023911 7.738941 -12.821528 0
M  V30 47 H 11.971889 6.579185 -11.954350 0
M  V30 48 H 9.186277 7.633069 -11.239065 0
M  V30 49 H 10.891191 5.790274 -9.520785 0
M  V30 50 H 10.135707 4.911736 -11.711015 0
M  V30 END ATOM
M  V30 BEGIN BOND
M  V30 1 1 2 1
M  V30 2 1 3 2
M  V30 3 1 4 3
M  V30 4 1 5 4
M  V30 5 1 6 5
M  V30 6 1 7 6
M  V30 7 2 8 7
M  V30 8 1 9 7
M  V30 9 1 10 9
M  V30 10 1 11 10
M  V30 11 2 12 11
M  V30 12 1 13 12
M  V30 13 2 14 13
M  V30 14 1 15 14
M  V30 15 1 16 11
M  V30 16 2 16 15
M  V30 17 1 17 9
M  V30 18 1 18 17
M  V30 19 1 19 18
M  V30 20 1 20 19
M  V30 21 1 21 2
M  V30 22 1 21 20
M  V30 23 1 22 5
M  V30 24 1 22 17
M  V30 25 1 22 21
M  V30 26 1 23 1
M  V30 27 1 24 1
M  V30 28 1 25 1
M  V30 29 1 26 3
M  V30 30 1 27 3
M  V30 31 1 28 4
M  V30 32 1 29 4
M  V30 33 1 5 30 CFG=1
M  V30 34 1 31 6
M  V30 35 1 32 6
M  V30 36 1 9 33 CFG=3
M  V30 37 1 34 10
M  V30 38 1 35 10
M  V30 39 1 36 12
M  V30 40 1 37 13
M  V30 41 1 38 14
M  V30 42 1 39 15
M  V30 43 1 40 16
M  V30 44 1 17 41 CFG=1
M  V30 45 1 42 18
M  V30 46 1 43 18
M  V30 47 1 44 19
M  V30 48 1 45 19
M  V30 49 1 46 20
M  V30 50 1 47 20
M  V30 51 1 21 48 CFG=1
M  V30 52 1 22 49 CFG=3
M  V30 53 1 2 50 CFG=3
M  V30 END BOND
M  V30 END CTAB
M  END
>  <b_m_subgroup_collapsed>  (1723) 
0

>  <r_i_docking_score>  (1723) 
-6.7661109829112798

>  <s_m_subgroup_title>  (1723) 
glide-dock_SP_D22_pv

>  <s_m_subgroupid>  (1723) 
glide-dock_SP_D22_pv

>  <Molecule ChEMBL ID>  (1723) 
CHEMBL3936289

>  <Standard Type>  (1723) 
Ki

>  <Standard Value>  (1723) 
10000.0

>  <label>  (1723) 
0

$$$$
CHEMBL131926
     RDKit          3D

  0  0  0  0  0  0  0  0  0  0999 V3000
M  V30 BEGIN CTAB
M  V30 COUNTS 57 60 0 0 1
M  V30 BEGIN ATOM
M  V30 1 C 11.817056 3.575122 -14.727835 0
M  V30 2 O 11.220286 4.519456 -13.846942 0
M  V30 3 C 9.854004 4.465544 -13.647573 0
M  V30 4 N 9.187613 3.432581 -14.220678 0
M  V30 5 C 7.862693 3.325384 -14.031863 0
M  V30 6 N 7.251055 2.236686 -14.645826 0
M  V30 7 C 7.120448 4.245154 -13.267642 0
M  V30 8 Cl 5.418357 4.062095 -13.040765 0
M  V30 9 C 7.801100 5.330541 -12.686255 0
M  V30 10 C 9.201589 5.454255 -12.862103 0
M  V30 11 C 9.959942 6.605514 -12.246843 0
M  V30 12 O 11.074523 6.940660 -12.646876 0
M  V30 13 N 9.375271 7.198222 -11.197169 0
M  V30 14 C 10.014215 8.126965 -10.278758 0 CFG=1
M  V30 15 C 8.984209 8.629463 -9.263026 0
M  V30 16 C 8.734620 7.642531 -8.080009 0 CFG=1
M  V30 17 C 8.086545 6.217901 -8.351037 0
M  V30 18 C 8.969393 5.155438 -8.931345 0
M  V30 19 C 10.369636 5.328443 -8.443438 0
M  V30 20 C 10.943481 6.745898 -8.258183 0 CFG=1
M  V30 21 C 11.254180 7.547874 -9.551186 0
M  V30 22 N 10.007907 7.454555 -7.355566 0 CFG=1 CHG=1
M  V30 23 C 10.553934 8.663563 -6.675747 0
M  V30 24 C 11.193279 8.409842 -5.315435 0
M  V30 25 C 11.429167 7.113144 -4.797263 0
M  V30 26 C 11.991006 6.956314 -3.513495 0
M  V30 27 C 12.315684 8.082561 -2.736260 0
M  V30 28 C 12.085865 9.371934 -3.246131 0
M  V30 29 C 11.527970 9.532712 -4.528283 0
M  V30 30 H 12.886275 3.772599 -14.794279 0
M  V30 31 H 11.684998 2.554634 -14.365516 0
M  V30 32 H 11.404572 3.653001 -15.734564 0
M  V30 33 H 6.284444 2.016379 -14.455502 0
M  V30 34 H 7.811959 1.514009 -15.071847 0
M  V30 35 H 7.238710 6.049113 -12.106699 0
M  V30 36 H 8.420173 6.946951 -10.968531 0
M  V30 37 H 10.338090 8.971289 -10.888479 0
M  V30 38 H 8.086131 8.972345 -9.761755 0
M  V30 39 H 9.373160 9.558649 -8.852527 0
M  V30 40 H 8.083954 8.160086 -7.380683 0
M  V30 41 H 7.286026 6.172337 -9.071630 0
M  V30 42 H 7.686028 5.840249 -7.408617 0
M  V30 43 H 8.930325 5.122961 -10.013516 0
M  V30 44 H 8.593922 4.174272 -8.633909 0
M  V30 45 H 10.886010 4.619647 -9.046900 0
M  V30 46 H 10.341546 4.972353 -7.446885 0
M  V30 47 H 11.878328 6.638735 -7.708596 0
M  V30 48 H 11.886774 8.392870 -9.279095 0
M  V30 49 H 11.885757 6.971629 -10.222671 0
M  V30 50 H 9.738975 9.363523 -6.489328 0
M  V30 51 H 11.262446 9.196896 -7.308598 0
M  V30 52 H 11.185837 6.222829 -5.357245 0
M  V30 53 H 12.163705 5.964994 -3.119231 0
M  V30 54 H 12.737646 7.960185 -1.749609 0
M  V30 55 H 12.329950 10.236996 -2.647460 0
M  V30 56 H 11.346389 10.530210 -4.902403 0
M  V30 57 H 9.782624 6.817008 -6.605474 0
M  V30 END ATOM
M  V30 BEGIN BOND
M  V30 1 1 2 1
M  V30 2 1 3 2
M  V30 3 1 4 3
M  V30 4 2 5 4
M  V30 5 1 6 5
M  V30 6 1 7 5
M  V30 7 1 8 7
M  V30 8 2 9 7
M  V30 9 2 10 3
M  V30 10 1 10 9
M  V30 11 1 11 10
M  V30 12 2 12 11
M  V30 13 1 13 11
M  V30 14 1 14 13
M  V30 15 1 15 14
M  V30 16 1 16 15
M  V30 17 1 17 16
M  V30 18 1 18 17
M  V30 19 1 19 18
M  V30 20 1 20 19
M  V30 21 1 21 14
M  V30 22 1 21 20
M  V30 23 1 22 16
M  V30 24 1 22 20
M  V30 25 1 23 22
M  V30 26 1 24 23
M  V30 27 2 25 24
M  V30 28 1 26 25
M  V30 29 2 27 26
M  V30 30 1 28 27
M  V30 31 1 29 24
M  V30 32 2 29 28
M  V30 33 1 30 1
M  V30 34 1 31 1
M  V30 35 1 32 1
M  V30 36 1 33 6
M  V30 37 1 34 6
M  V30 38 1 35 9
M  V30 39 1 36 13
M  V30 40 1 14 37 CFG=3
M  V30 41 1 38 15
M  V30 42 1 39 15
M  V30 43 1 16 40 CFG=1
M  V30 44 1 41 17
M  V30 45 1 42 17
M  V30 46 1 43 18
M  V30 47 1 44 18
M  V30 48 1 45 19
M  V30 49 1 46 19
M  V30 50 1 20 47 CFG=1
M  V30 51 1 48 21
M  V30 52 1 49 21
M  V30 53 1 50 23
M  V30 54 1 51 23
M  V30 55 1 52 25
M  V30 56 1 53 26
M  V30 57 1 54 27
M  V30 58 1 55 28
M  V30 59 1 56 29
M  V30 60 1 22 57 CFG=1
M  V30 END BOND
M  V30 END CTAB
M  END
>  <b_m_subgroup_collapsed>  (1724) 
0

>  <r_i_docking_score>  (1724) 
-6.7652061858272701

>  <s_m_subgroup_title>  (1724) 
glide-dock_SP_D22_pv

>  <s_m_subgroupid>  (1724) 
glide-dock_SP_D22_pv

>  <Molecule ChEMBL ID>  (1724) 
CHEMBL131926

>  <Standard Type>  (1724) 
Ki

>  <Standard Value>  (1724) 
1.259

>  <label>  (1724) 
1

$$$$
CHEMBL5909593
     RDKit          3D

  0  0  0  0  0  0  0  0  0  0999 V3000
M  V30 BEGIN CTAB
M  V30 COUNTS 56 57 0 0 1
M  V30 BEGIN ATOM
M  V30 1 C 6.288949 2.027730 -14.031138 0
M  V30 2 O 7.319890 2.970639 -14.282488 0
M  V30 3 C 8.613752 2.380764 -14.372844 0
M  V30 4 C 9.752594 3.399520 -14.671083 0
M  V30 5 C 11.080033 2.603932 -14.650978 0
M  V30 6 C 9.603034 4.030858 -16.070435 0
M  V30 7 C 9.810345 4.544385 -13.626990 0
M  V30 8 O 10.891590 5.031062 -13.296455 0
M  V30 9 N 8.651306 5.003881 -13.126509 0
M  V30 10 C 8.536037 6.059579 -12.128162 0
M  V30 11 C 8.739848 5.472335 -10.719158 0
M  V30 12 N 8.886043 6.491168 -9.647621 0 CFG=2 CHG=1
M  V30 13 C 10.161068 7.255662 -9.782521 0
M  V30 14 C 10.443484 8.179631 -8.591582 0
M  V30 15 C 10.427167 7.372602 -7.286616 0 CFG=1
M  V30 16 C 10.880211 8.138712 -6.052577 0
M  V30 17 C 10.853812 9.547327 -5.983080 0
M  V30 18 C 11.283833 10.170365 -4.801244 0
M  V30 19 C 11.757789 9.371964 -3.743603 0
M  V30 20 C 11.756244 7.973674 -3.909831 0
M  V30 21 C 12.260891 7.058583 -2.815264 0
M  V30 22 N 11.314612 7.367717 -5.032197 0
M  V30 23 C 9.023375 6.778735 -7.131408 0
M  V30 24 C 8.712799 5.845614 -8.312778 0
M  V30 25 H 5.351033 2.552793 -13.850858 0
M  V30 26 H 6.154339 1.363108 -14.884980 0
M  V30 27 H 6.484244 1.418309 -13.149975 0
M  V30 28 H 8.595157 1.619173 -15.154273 0
M  V30 29 H 8.843296 1.855191 -13.447686 0
M  V30 30 H 11.071280 1.801988 -15.389549 0
M  V30 31 H 11.942253 3.233683 -14.876201 0
M  V30 32 H 11.256931 2.143458 -13.678596 0
M  V30 33 H 9.281248 3.297978 -16.810272 0
M  V30 34 H 8.886404 4.849621 -16.073446 0
M  V30 35 H 10.546062 4.452842 -16.419563 0
M  V30 36 H 7.804098 4.543622 -13.442374 0
M  V30 37 H 7.549075 6.518591 -12.204815 0
M  V30 38 H 9.256215 6.841322 -12.365174 0
M  V30 39 H 9.611011 4.813968 -10.699242 0
M  V30 40 H 7.877513 4.839434 -10.497366 0
M  V30 41 H 10.145185 7.863884 -10.685738 0
M  V30 42 H 10.987236 6.555500 -9.891951 0
M  V30 43 H 9.701042 8.978763 -8.563543 0
M  V30 44 H 11.415938 8.654799 -8.729428 0
M  V30 45 H 11.136629 6.549703 -7.396775 0
M  V30 46 H 10.502794 10.153428 -6.801780 0
M  V30 47 H 11.255658 11.244341 -4.718832 0
M  V30 48 H 12.109644 9.827092 -2.828327 0
M  V30 49 H 12.265983 7.565567 -1.850360 0
M  V30 50 H 11.629591 6.173696 -2.729880 0
M  V30 51 H 13.277055 6.737717 -3.044055 0
M  V30 52 H 8.957687 6.209611 -6.204019 0
M  V30 53 H 8.276360 7.571194 -7.056603 0
M  V30 54 H 7.688785 5.478041 -8.218901 0
M  V30 55 H 9.364264 4.971747 -8.251822 0
M  V30 56 H 8.109895 7.142076 -9.754475 0
M  V30 END ATOM
M  V30 BEGIN BOND
M  V30 1 1 2 1
M  V30 2 1 3 2
M  V30 3 1 4 3
M  V30 4 1 5 4
M  V30 5 1 6 4
M  V30 6 1 7 4
M  V30 7 2 8 7
M  V30 8 1 9 7
M  V30 9 1 10 9
M  V30 10 1 11 10
M  V30 11 1 12 11
M  V30 12 1 13 12
M  V30 13 1 14 13
M  V30 14 1 15 14
M  V30 15 1 16 15
M  V30 16 2 17 16
M  V30 17 1 18 17
M  V30 18 2 19 18
M  V30 19 1 20 19
M  V30 20 1 21 20
M  V30 21 1 22 16
M  V30 22 2 22 20
M  V30 23 1 23 15
M  V30 24 1 24 12
M  V30 25 1 24 23
M  V30 26 1 25 1
M  V30 27 1 26 1
M  V30 28 1 27 1
M  V30 29 1 28 3
M  V30 30 1 29 3
M  V30 31 1 30 5
M  V30 32 1 31 5
M  V30 33 1 32 5
M  V30 34 1 33 6
M  V30 35 1 34 6
M  V30 36 1 35 6
M  V30 37 1 36 9
M  V30 38 1 37 10
M  V30 39 1 38 10
M  V30 40 1 39 11
M  V30 41 1 40 11
M  V30 42 1 41 13
M  V30 43 1 42 13
M  V30 44 1 43 14
M  V30 45 1 44 14
M  V30 46 1 15 45 CFG=3
M  V30 47 1 46 17
M  V30 48 1 47 18
M  V30 49 1 48 19
M  V30 50 1 49 21
M  V30 51 1 50 21
M  V30 52 1 51 21
M  V30 53 1 52 23
M  V30 54 1 53 23
M  V30 55 1 54 24
M  V30 56 1 55 24
M  V30 57 1 12 56 CFG=3
M  V30 END BOND
M  V30 END CTAB
M  END
>  <b_m_subgroup_collapsed>  (1725) 
0

>  <r_i_docking_score>  (1725) 
-6.76481609818949

>  <s_m_subgroup_title>  (1725) 
glide-dock_SP_D22_pv

>  <s_m_subgroupid>  (1725) 
glide-dock_SP_D22_pv

>  <Molecule ChEMBL ID>  (1725) 
CHEMBL5909593

>  <Standard Type>  (1725) 
Ki

>  <Standard Value>  (1725) 
80.0

>  <label>  (1725) 
1

$$$$
CHEMBL325109
     RDKit          3D

  0  0  0  0  0  0  0  0  0  0999 V3000
M  V30 BEGIN CTAB
M  V30 COUNTS 50 52 0 0 1
M  V30 BEGIN ATOM
M  V30 1 C 12.034864 3.771652 -14.962637 0
M  V30 2 O 11.505222 4.512153 -13.873405 0
M  V30 3 C 10.148336 4.440675 -13.626055 0
M  V30 4 C 9.333036 3.416011 -14.169658 0
M  V30 5 C 7.955751 3.360706 -13.889013 0
M  V30 6 N 7.181550 2.343645 -14.450454 0
M  V30 7 C 7.372531 4.326381 -13.045890 0
M  V30 8 Cl 5.687965 4.263359 -12.668353 0
M  V30 9 C 8.167512 5.352482 -12.505546 0
M  V30 10 C 9.554566 5.420511 -12.784749 0
M  V30 11 C 10.362584 6.572493 -12.246244 0
M  V30 12 O 11.293717 7.062916 -12.884042 0
M  V30 13 N 10.010477 7.007745 -11.027681 0
M  V30 14 C 10.518808 8.226156 -10.406930 0
M  V30 15 C 11.763777 7.996786 -9.530808 0
M  V30 16 C 11.416570 7.385798 -8.162459 0
M  V30 17 N 10.415443 8.198792 -7.468619 0
M  V30 18 C 10.122517 7.593281 -6.173927 0
M  V30 19 C 11.101298 7.921085 -5.052289 0
M  V30 20 C 11.285480 9.261446 -4.648222 0
M  V30 21 C 11.961714 9.550200 -3.446441 0
M  V30 22 C 12.486099 8.506956 -2.663268 0
M  V30 23 C 12.368117 7.173653 -3.097168 0
M  V30 24 C 11.681544 6.882998 -4.291976 0
M  V30 25 C 9.177052 8.214612 -8.253683 0
M  V30 26 C 9.410350 8.904481 -9.605534 0
M  V30 27 H 13.075801 4.055992 -15.116727 0
M  V30 28 H 12.009741 2.699963 -14.766356 0
M  V30 29 H 11.495775 3.980753 -15.887801 0
M  V30 30 H 9.750715 2.653108 -14.807662 0
M  V30 31 H 7.627624 1.530733 -14.850734 0
M  V30 32 H 6.237806 2.202199 -14.117879 0
M  V30 33 H 7.689490 6.096493 -11.882174 0
M  V30 34 H 9.238105 6.548781 -10.566365 0
M  V30 35 H 10.794499 8.916729 -11.197939 0
M  V30 36 H 12.258510 8.955395 -9.366667 0
M  V30 37 H 12.486205 7.372167 -10.056154 0
M  V30 38 H 12.318947 7.320923 -7.555243 0
M  V30 39 H 11.046291 6.367503 -8.295699 0
M  V30 40 H 10.005174 6.512342 -6.270721 0
M  V30 41 H 9.150800 7.960225 -5.847027 0
M  V30 42 H 10.835064 10.061694 -5.217327 0
M  V30 43 H 12.051490 10.570129 -3.097320 0
M  V30 44 H 12.991591 8.734883 -1.736429 0
M  V30 45 H 12.776298 6.369748 -2.502211 0
M  V30 46 H 11.538673 5.852758 -4.584586 0
M  V30 47 H 8.796895 7.201670 -8.399794 0
M  V30 48 H 8.404803 8.764711 -7.713871 0
M  V30 49 H 9.699649 9.936200 -9.446870 0
M  V30 50 H 8.486126 8.944140 -10.182618 0
M  V30 END ATOM
M  V30 BEGIN BOND
M  V30 1 1 2 1
M  V30 2 1 3 2
M  V30 3 1 4 3
M  V30 4 2 5 4
M  V30 5 1 6 5
M  V30 6 1 7 5
M  V30 7 1 8 7
M  V30 8 2 9 7
M  V30 9 2 10 3
M  V30 10 1 10 9
M  V30 11 1 11 10
M  V30 12 2 12 11
M  V30 13 1 13 11
M  V30 14 1 14 13
M  V30 15 1 15 14
M  V30 16 1 16 15
M  V30 17 1 17 16
M  V30 18 1 18 17
M  V30 19 1 19 18
M  V30 20 2 20 19
M  V30 21 1 21 20
M  V30 22 2 22 21
M  V30 23 1 23 22
M  V30 24 1 24 19
M  V30 25 2 24 23
M  V30 26 1 25 17
M  V30 27 1 26 14
M  V30 28 1 26 25
M  V30 29 1 27 1
M  V30 30 1 28 1
M  V30 31 1 29 1
M  V30 32 1 30 4
M  V30 33 1 31 6
M  V30 34 1 32 6
M  V30 35 1 33 9
M  V30 36 1 34 13
M  V30 37 1 35 14
M  V30 38 1 36 15
M  V30 39 1 37 15
M  V30 40 1 38 16
M  V30 41 1 39 16
M  V30 42 1 40 18
M  V30 43 1 41 18
M  V30 44 1 42 20
M  V30 45 1 43 21
M  V30 46 1 44 22
M  V30 47 1 45 23
M  V30 48 1 46 24
M  V30 49 1 47 25
M  V30 50 1 48 25
M  V30 51 1 49 26
M  V30 52 1 50 26
M  V30 END BOND
M  V30 END CTAB
M  END
>  <b_m_subgroup_collapsed>  (1726) 
0

>  <r_i_docking_score>  (1726) 
-6.7634717186483

>  <s_m_subgroup_title>  (1726) 
glide-dock_SP_D22_pv

>  <s_m_subgroupid>  (1726) 
glide-dock_SP_D22_pv

>  <Molecule ChEMBL ID>  (1726) 
CHEMBL325109

>  <Standard Type>  (1726) 
Ki

>  <Standard Value>  (1726) 
12.0

>  <label>  (1726) 
1

$$$$
CHEMBL540285
     RDKit          3D

  0  0  0  0  0  0  0  0  0  0999 V3000
M  V30 BEGIN CTAB
M  V30 COUNTS 44 45 0 0 1
M  V30 BEGIN ATOM
M  V30 1 C 8.543531 8.795862 -12.167810 0
M  V30 2 C 8.396919 7.265080 -12.178125 0
M  V30 3 N 8.886076 6.580421 -10.950498 0 CHG=1
M  V30 4 C 8.658909 5.104342 -11.011872 0
M  V30 5 C 9.387252 4.396835 -12.174068 0
M  V30 6 C 10.275421 6.957898 -10.542865 0
M  V30 7 C 10.709012 6.506765 -9.122246 0
M  V30 8 C 9.824666 6.911090 -7.920606 0 CFG=1
M  V30 9 C 8.557741 6.055229 -7.747475 0
M  V30 10 O 10.584406 6.742329 -6.720504 0
M  V30 11 C 10.701472 7.954686 -6.082497 0
M  V30 12 C 11.354463 8.054086 -4.772446 0
M  V30 13 C 11.686924 6.873013 -4.079968 0
M  V30 14 C 12.238155 6.943194 -2.784798 0
M  V30 15 C 12.455237 8.195639 -2.181297 0
M  V30 16 C 12.105379 9.372272 -2.865390 0
M  V30 17 C 11.571918 9.308639 -4.164120 0
M  V30 18 C 10.139523 8.963351 -6.752225 0
M  V30 19 C 9.524103 8.397700 -7.915666 0
M  V30 20 O 8.886397 8.978720 -8.782873 0
M  V30 21 H 8.081465 9.241407 -13.042913 0
M  V30 22 H 8.085050 9.251077 -11.288272 0
M  V30 23 H 9.587049 9.095943 -12.207625 0
M  V30 24 H 8.916539 6.871797 -13.045938 0
M  V30 25 H 7.341375 7.020670 -12.303621 0
M  V30 26 H 8.963675 4.636025 -10.078300 0
M  V30 27 H 7.585986 4.918221 -11.088663 0
M  V30 28 H 9.287366 3.318025 -12.090093 0
M  V30 29 H 8.972290 4.667571 -13.143821 0
M  V30 30 H 10.456452 4.605780 -12.194942 0
M  V30 31 H 10.411371 8.037072 -10.578190 0
M  V30 32 H 10.979736 6.574902 -11.281507 0
M  V30 33 H 11.684744 6.970406 -8.959408 0
M  V30 34 H 10.885756 5.433718 -9.081594 0
M  V30 35 H 7.858792 6.172220 -8.573309 0
M  V30 36 H 8.811646 4.997340 -7.695654 0
M  V30 37 H 8.029297 6.318658 -6.828804 0
M  V30 38 H 11.501505 5.905542 -4.526705 0
M  V30 39 H 12.485560 6.034732 -2.257555 0
M  V30 40 H 12.869607 8.254617 -1.187281 0
M  V30 41 H 12.250762 10.332274 -2.395564 0
M  V30 42 H 11.314476 10.230330 -4.663414 0
M  V30 43 H 10.088658 10.004889 -6.484703 0
M  V30 44 H 8.256713 6.942139 -10.240118 0
M  V30 END ATOM
M  V30 BEGIN BOND
M  V30 1 1 2 1
M  V30 2 1 3 2
M  V30 3 1 4 3
M  V30 4 1 5 4
M  V30 5 1 6 3
M  V30 6 1 7 6
M  V30 7 1 8 7 CFG=3
M  V30 8 1 9 8
M  V30 9 1 10 8
M  V30 10 1 11 10
M  V30 11 1 12 11
M  V30 12 2 13 12
M  V30 13 1 14 13
M  V30 14 2 15 14
M  V30 15 1 16 15
M  V30 16 1 17 12
M  V30 17 2 17 16
M  V30 18 2 18 11
M  V30 19 1 19 8
M  V30 20 1 19 18
M  V30 21 2 20 19
M  V30 22 1 21 1
M  V30 23 1 22 1
M  V30 24 1 23 1
M  V30 25 1 24 2
M  V30 26 1 25 2
M  V30 27 1 26 4
M  V30 28 1 27 4
M  V30 29 1 28 5
M  V30 30 1 29 5
M  V30 31 1 30 5
M  V30 32 1 31 6
M  V30 33 1 32 6
M  V30 34 1 33 7
M  V30 35 1 34 7
M  V30 36 1 35 9
M  V30 37 1 36 9
M  V30 38 1 37 9
M  V30 39 1 38 13
M  V30 40 1 39 14
M  V30 41 1 40 15
M  V30 42 1 41 16
M  V30 43 1 42 17
M  V30 44 1 43 18
M  V30 45 1 44 3
M  V30 END BOND
M  V30 END CTAB
M  END
>  <b_m_subgroup_collapsed>  (1727) 
0

>  <r_i_docking_score>  (1727) 
-6.7596842946422999

>  <s_m_subgroup_title>  (1727) 
glide-dock_SP_D22_pv

>  <s_m_subgroupid>  (1727) 
glide-dock_SP_D22_pv

>  <Molecule ChEMBL ID>  (1727) 
CHEMBL540285

>  <Standard Type>  (1727) 
Ki

>  <Standard Value>  (1727) 
10000.0

>  <label>  (1727) 
0

$$$$
CHEMBL1224698
     RDKit          3D

  0  0  0  0  0  0  0  0  0  0999 V3000
M  V30 BEGIN CTAB
M  V30 COUNTS 57 60 0 0 1
M  V30 BEGIN ATOM
M  V30 1 C 9.690993 -0.157313 -16.062855 0
M  V30 2 C 9.071972 0.836930 -15.405615 0
M  V30 3 C 9.062878 2.282466 -15.868392 0
M  V30 4 N 9.906075 3.117763 -14.981098 0 CFG=1 CHG=1
M  V30 5 C 11.286700 2.610092 -14.797923 0
M  V30 6 C 12.112767 3.811210 -14.416337 0 CFG=1
M  V30 7 C 12.631892 4.835594 -15.391158 0
M  V30 8 C 11.293059 5.032633 -14.698925 0 CFG=2
M  V30 9 C 11.087988 5.906449 -13.482993 0
M  V30 10 C 9.936671 5.778339 -12.672921 0
M  V30 11 C 9.795640 6.532470 -11.496613 0
M  V30 12 C 10.849318 7.357032 -11.040349 0
M  V30 13 N 10.833060 7.981888 -9.789563 0
M  V30 14 S 9.576152 7.993411 -8.597421 0
M  V30 15 O 8.885943 9.274882 -8.780609 0
M  V30 16 O 8.885864 6.697930 -8.672952 0
M  V30 17 C 10.444238 8.026256 -7.055622 0
M  V30 18 C 10.659166 6.805249 -6.404357 0
M  V30 19 C 11.285927 6.787461 -5.153571 0
M  V30 20 C 11.710092 7.987843 -4.542418 0
M  V30 21 C 12.481428 7.930980 -3.224560 0
M  V30 22 C 12.119055 6.738841 -2.321620 0
M  V30 23 C 12.414310 9.240799 -2.422808 0
M  V30 24 C 11.498672 9.214081 -5.223835 0
M  V30 25 C 10.865523 9.236209 -6.479462 0
M  V30 26 C 11.987670 7.507248 -11.851942 0
M  V30 27 C 12.085725 6.822575 -13.076995 0
M  V30 28 C 10.021688 4.542451 -15.378864 0
M  V30 29 H 10.216609 0.018622 -16.991163 0
M  V30 30 H 9.686013 -1.162795 -15.675596 0
M  V30 31 H 8.558099 0.617248 -14.478979 0
M  V30 32 H 9.430489 2.342212 -16.894997 0
M  V30 33 H 8.036107 2.649071 -15.868150 0
M  V30 34 H 11.315095 1.854176 -14.011694 0
M  V30 35 H 11.685951 2.176838 -15.717155 0
M  V30 36 H 12.601089 3.772482 -13.446882 0
M  V30 37 H 13.493548 5.421120 -15.078257 0
M  V30 38 H 12.635856 4.550429 -16.441753 0
M  V30 39 H 9.136073 5.101600 -12.927185 0
M  V30 40 H 8.875907 6.415219 -10.946904 0
M  V30 41 H 11.620882 8.580245 -9.590618 0
M  V30 42 H 10.338059 5.877068 -6.853720 0
M  V30 43 H 11.442706 5.824335 -4.695945 0
M  V30 44 H 13.511330 7.771542 -3.528115 0
M  V30 45 H 12.300682 5.774742 -2.792507 0
M  V30 46 H 12.761692 6.745750 -1.447013 0
M  V30 47 H 11.079469 6.774947 -1.992036 0
M  V30 48 H 12.885886 10.060369 -2.962121 0
M  V30 49 H 11.381866 9.523099 -2.222971 0
M  V30 50 H 12.930321 9.154407 -1.465953 0
M  V30 51 H 11.822772 10.155584 -4.810348 0
M  V30 52 H 10.695129 10.171815 -6.987872 0
M  V30 53 H 12.800211 8.147971 -11.539055 0
M  V30 54 H 12.974137 6.970122 -13.668651 0
M  V30 55 H 10.163003 4.609219 -16.458820 0
M  V30 56 H 9.139522 5.134882 -15.137485 0
M  V30 57 H 9.486291 3.107593 -14.062016 0
M  V30 END ATOM
M  V30 BEGIN BOND
M  V30 1 2 2 1
M  V30 2 1 3 2
M  V30 3 1 4 3
M  V30 4 1 5 4
M  V30 5 1 6 5
M  V30 6 1 7 6
M  V30 7 1 8 6
M  V30 8 1 8 7
M  V30 9 1 8 9 CFG=1
M  V30 10 1 10 9
M  V30 11 2 11 10
M  V30 12 1 12 11
M  V30 13 1 13 12
M  V30 14 1 14 13
M  V30 15 2 15 14
M  V30 16 2 16 14
M  V30 17 1 17 14
M  V30 18 1 18 17
M  V30 19 2 19 18
M  V30 20 1 20 19
M  V30 21 1 21 20
M  V30 22 1 22 21
M  V30 23 1 23 21
M  V30 24 2 24 20
M  V30 25 2 25 17
M  V30 26 1 25 24
M  V30 27 2 26 12
M  V30 28 2 27 9
M  V30 29 1 27 26
M  V30 30 1 28 4
M  V30 31 1 28 8
M  V30 32 1 29 1
M  V30 33 1 30 1
M  V30 34 1 31 2
M  V30 35 1 32 3
M  V30 36 1 33 3
M  V30 37 1 34 5
M  V30 38 1 35 5
M  V30 39 1 6 36 CFG=1
M  V30 40 1 37 7
M  V30 41 1 38 7
M  V30 42 1 39 10
M  V30 43 1 40 11
M  V30 44 1 41 13
M  V30 45 1 42 18
M  V30 46 1 43 19
M  V30 47 1 44 21
M  V30 48 1 45 22
M  V30 49 1 46 22
M  V30 50 1 47 22
M  V30 51 1 48 23
M  V30 52 1 49 23
M  V30 53 1 50 23
M  V30 54 1 51 24
M  V30 55 1 52 25
M  V30 56 1 53 26
M  V30 57 1 54 27
M  V30 58 1 55 28
M  V30 59 1 56 28
M  V30 60 1 4 57 CFG=1
M  V30 END BOND
M  V30 END CTAB
M  END
>  <b_m_subgroup_collapsed>  (1728) 
0

>  <r_i_docking_score>  (1728) 
-6.7573470435223602

>  <s_m_subgroup_title>  (1728) 
glide-dock_SP_D22_pv

>  <s_m_subgroupid>  (1728) 
glide-dock_SP_D22_pv

>  <Molecule ChEMBL ID>  (1728) 
CHEMBL1224698

>  <Standard Type>  (1728) 
Ki

>  <Standard Value>  (1728) 
63.1

>  <label>  (1728) 
1

$$$$
CHEMBL1087818
     RDKit          3D

  0  0  0  0  0  0  0  0  0  0999 V3000
M  V30 BEGIN CTAB
M  V30 COUNTS 68 72 0 0 1
M  V30 BEGIN ATOM
M  V30 1 C 2.785845 -3.795724 -19.058567 0
M  V30 2 S 4.100141 -2.533496 -18.850435 0
M  V30 3 O 3.686278 -1.272711 -19.481787 0
M  V30 4 O 5.406323 -3.139002 -19.152687 0
M  V30 5 N 4.086068 -2.227555 -17.151701 0
M  V30 6 C 4.879268 -1.334634 -16.425240 0
M  V30 7 C 4.559585 -1.045332 -15.083468 0
M  V30 8 C 5.380516 -0.180359 -14.333412 0
M  V30 9 C 6.529158 0.390910 -14.915998 0
M  V30 10 C 6.862278 0.104895 -16.265331 0
M  V30 11 O 7.990103 0.561859 -16.916147 0
M  V30 12 C 9.001462 1.225884 -16.175089 0
M  V30 13 C 8.715788 2.736749 -16.156975 0
M  V30 14 N 9.783916 3.496732 -15.468589 0 CFG=1 CHG=1
M  V30 15 C 9.935684 4.887256 -15.984273 0
M  V30 16 C 10.974777 5.699742 -15.167577 0 CFG=2
M  V30 17 C 12.319022 4.960624 -15.079215 0
M  V30 18 C 12.145102 4.008220 -13.888820 0
M  V30 19 C 10.749538 4.315608 -13.319798 0 CFG=2
M  V30 20 C 9.682112 3.425664 -13.982518 0
M  V30 21 C 10.498307 5.772161 -13.709798 0 CFG=1
M  V30 22 C 11.258858 6.800015 -12.828368 0
M  V30 23 C 10.707589 6.999699 -11.415669 0
M  V30 24 C 9.528359 6.364313 -10.954632 0
M  V30 25 C 9.078061 6.555799 -9.635570 0
M  V30 26 C 9.789670 7.398698 -8.763313 0
M  V30 27 C 10.967592 8.036227 -9.210673 0
M  V30 28 C 11.420122 7.840172 -10.531305 0
M  V30 29 N 11.685784 8.886834 -8.335552 0
M  V30 30 C 11.460546 8.971400 -7.011340 0
M  V30 31 O 12.050819 9.774119 -6.293427 0
M  V30 32 C 10.452347 7.990170 -6.399557 0
M  V30 33 C 9.287477 7.676104 -7.357529 0
M  V30 34 C 6.013117 -0.734583 -17.011683 0
M  V30 35 H 2.666436 -4.021724 -20.114700 0
M  V30 36 H 3.069236 -4.702485 -18.524921 0
M  V30 37 H 1.845940 -3.427399 -18.649584 0
M  V30 38 H 3.488394 -2.864560 -16.622751 0
M  V30 39 H 3.686469 -1.489926 -14.626390 0
M  V30 40 H 5.135375 0.042985 -13.304053 0
M  V30 41 H 7.137434 1.039873 -14.303687 0
M  V30 42 H 9.132224 0.798448 -15.181924 0
M  V30 43 H 9.942808 1.047788 -16.693632 0
M  V30 44 H 8.642859 3.070409 -17.193913 0
M  V30 45 H 7.755807 2.958604 -15.691922 0
M  V30 46 H 10.233275 4.853701 -17.033197 0
M  V30 47 H 8.960803 5.372300 -15.949005 0
M  V30 48 H 11.104594 6.686491 -15.612112 0
M  V30 49 H 12.574032 4.437169 -16.001963 0
M  V30 50 H 13.127237 5.665073 -14.877189 0
M  V30 51 H 12.199574 2.972165 -14.210582 0
M  V30 52 H 12.926628 4.177094 -13.146820 0
M  V30 53 H 10.706822 4.171577 -12.245575 0
M  V30 54 H 8.688774 3.733262 -13.654750 0
M  V30 55 H 9.814291 2.394975 -13.652121 0
M  V30 56 H 9.436040 6.016273 -13.688632 0
M  V30 57 H 12.306753 6.518209 -12.733789 0
M  V30 58 H 11.277850 7.771369 -13.321812 0
M  V30 59 H 8.938908 5.722919 -11.590531 0
M  V30 60 H 8.160525 6.086995 -9.308323 0
M  V30 61 H 12.320687 8.336593 -10.866150 0
M  V30 62 H 12.413867 9.462089 -8.737597 0
M  V30 63 H 10.993201 7.070692 -6.173166 0
M  V30 64 H 10.086206 8.380352 -5.451087 0
M  V30 65 H 8.590590 8.514948 -7.396725 0
M  V30 66 H 8.719473 6.820501 -6.991375 0
M  V30 67 H 6.276614 -0.953792 -18.036673 0
M  V30 68 H 10.659709 3.050177 -15.701632 0
M  V30 END ATOM
M  V30 BEGIN BOND
M  V30 1 1 2 1
M  V30 2 2 3 2
M  V30 3 2 4 2
M  V30 4 1 5 2
M  V30 5 1 6 5
M  V30 6 1 7 6
M  V30 7 2 8 7
M  V30 8 1 9 8
M  V30 9 2 10 9
M  V30 10 1 11 10
M  V30 11 1 12 11
M  V30 12 1 13 12
M  V30 13 1 14 13
M  V30 14 1 15 14
M  V30 15 1 16 15
M  V30 16 1 17 16
M  V30 17 1 18 17
M  V30 18 1 19 18
M  V30 19 1 20 14
M  V30 20 1 20 19
M  V30 21 1 21 16
M  V30 22 1 21 19
M  V30 23 1 22 21
M  V30 24 1 23 22
M  V30 25 1 24 23
M  V30 26 2 25 24
M  V30 27 1 26 25
M  V30 28 2 27 26
M  V30 29 2 28 23
M  V30 30 1 28 27
M  V30 31 1 29 27
M  V30 32 1 30 29
M  V30 33 2 31 30
M  V30 34 1 32 30
M  V30 35 1 33 26
M  V30 36 1 33 32
M  V30 37 2 34 6
M  V30 38 1 34 10
M  V30 39 1 35 1
M  V30 40 1 36 1
M  V30 41 1 37 1
M  V30 42 1 38 5
M  V30 43 1 39 7
M  V30 44 1 40 8
M  V30 45 1 41 9
M  V30 46 1 42 12
M  V30 47 1 43 12
M  V30 48 1 44 13
M  V30 49 1 45 13
M  V30 50 1 46 15
M  V30 51 1 47 15
M  V30 52 1 16 48 CFG=3
M  V30 53 1 49 17
M  V30 54 1 50 17
M  V30 55 1 51 18
M  V30 56 1 52 18
M  V30 57 1 19 53 CFG=1
M  V30 58 1 54 20
M  V30 59 1 55 20
M  V30 60 1 21 56 CFG=3
M  V30 61 1 57 22
M  V30 62 1 58 22
M  V30 63 1 59 24
M  V30 64 1 60 25
M  V30 65 1 61 28
M  V30 66 1 62 29
M  V30 67 1 63 32
M  V30 68 1 64 32
M  V30 69 1 65 33
M  V30 70 1 66 33
M  V30 71 1 67 34
M  V30 72 1 14 68 CFG=1
M  V30 END BOND
M  V30 END CTAB
M  END
>  <b_m_subgroup_collapsed>  (1729) 
0

>  <r_i_docking_score>  (1729) 
-6.7547870375820196

>  <s_m_subgroup_title>  (1729) 
glide-dock_SP_D22_pv

>  <s_m_subgroupid>  (1729) 
glide-dock_SP_D22_pv

>  <Molecule ChEMBL ID>  (1729) 
CHEMBL1087818

>  <Standard Type>  (1729) 
Ki

>  <Standard Value>  (1729) 
11.0

>  <label>  (1729) 
1

$$$$
CHEMBL376445
     RDKit          3D

  0  0  0  0  0  0  0  0  0  0999 V3000
M  V30 BEGIN CTAB
M  V30 COUNTS 56 59 0 0 1
M  V30 BEGIN ATOM
M  V30 1 O 9.669092 8.886051 -9.996625 0
M  V30 2 C 10.023549 7.872998 -9.393744 0
M  V30 3 N 10.088589 6.662235 -9.967204 0
M  V30 4 C 9.716467 6.391823 -11.352077 0
M  V30 5 C 8.364820 5.673268 -11.410920 0
M  V30 6 C 7.738184 5.717711 -12.811556 0
M  V30 7 C 6.481641 4.835780 -12.949378 0
M  V30 8 N 6.745948 3.372544 -13.018584 0 CHG=1
M  V30 9 C 7.662067 2.961515 -14.124589 0
M  V30 10 C 7.813231 1.431375 -14.272932 0
M  V30 11 N 6.506507 0.793976 -14.281039 0
M  V30 12 C 6.050820 -0.031785 -15.334386 0
M  V30 13 C 5.389359 -1.234495 -14.994785 0
M  V30 14 C 4.885972 -2.092029 -15.988619 0
M  V30 15 C 5.009312 -1.752062 -17.342892 0
M  V30 16 C 5.655630 -0.559988 -17.707527 0
M  V30 17 Cl 5.767684 -0.155957 -19.384945 0
M  V30 18 C 6.188905 0.297071 -16.716459 0
M  V30 19 Cl 6.941771 1.764390 -17.244045 0
M  V30 20 C 5.637487 1.094654 -13.153126 0
M  V30 21 C 5.464035 2.617350 -13.010145 0
M  V30 22 C 10.432420 7.953328 -7.977937 0
M  V30 23 C 10.911817 7.021051 -7.077256 0
M  V30 24 C 11.178376 7.729862 -5.854331 0
M  V30 25 C 11.685919 7.442208 -4.561080 0
M  V30 26 C 11.804861 8.469525 -3.596265 0
M  V30 27 Br 12.485746 8.136452 -1.860888 0
M  V30 28 C 11.407389 9.780976 -3.890790 0
M  V30 29 C 10.909572 10.098920 -5.162120 0
M  V30 30 C 10.813677 9.073547 -6.110202 0
M  V30 31 O 10.363199 9.191703 -7.398228 0
M  V30 32 H 10.386330 5.884989 -9.398744 0
M  V30 33 H 10.485715 5.778599 -11.821761 0
M  V30 34 H 9.673862 7.315494 -11.932799 0
M  V30 35 H 7.684771 6.156896 -10.709812 0
M  V30 36 H 8.486694 4.645085 -11.070047 0
M  V30 37 H 8.477605 5.495980 -13.579009 0
M  V30 38 H 7.445584 6.751796 -13.001305 0
M  V30 39 H 5.924983 5.118664 -13.841105 0
M  V30 40 H 5.817604 5.044230 -12.107851 0
M  V30 41 H 8.655036 3.386084 -13.984809 0
M  V30 42 H 7.264223 3.368747 -15.046808 0
M  V30 43 H 8.391582 1.018800 -13.447010 0
M  V30 44 H 8.389471 1.178942 -15.162009 0
M  V30 45 H 5.287421 -1.527948 -13.961040 0
M  V30 46 H 4.407309 -3.019873 -15.719486 0
M  V30 47 H 4.607154 -2.410140 -18.099920 0
M  V30 48 H 4.656420 0.635876 -13.277291 0
M  V30 49 H 6.072304 0.669700 -12.247326 0
M  V30 50 H 4.887342 2.841552 -12.112133 0
M  V30 51 H 4.886076 2.988565 -13.846680 0
M  V30 52 H 11.074720 5.967701 -7.243300 0
M  V30 53 H 11.981763 6.433757 -4.312819 0
M  V30 54 H 11.497939 10.545934 -3.132955 0
M  V30 55 H 10.610958 11.104346 -5.409710 0
M  V30 56 H 7.217803 3.128386 -12.160123 0
M  V30 END ATOM
M  V30 BEGIN BOND
M  V30 1 2 2 1
M  V30 2 1 3 2
M  V30 3 1 4 3
M  V30 4 1 5 4
M  V30 5 1 6 5
M  V30 6 1 7 6
M  V30 7 1 8 7
M  V30 8 1 9 8
M  V30 9 1 10 9
M  V30 10 1 11 10
M  V30 11 1 12 11
M  V30 12 2 13 12
M  V30 13 1 14 13
M  V30 14 2 15 14
M  V30 15 1 16 15
M  V30 16 1 17 16
M  V30 17 1 18 12
M  V30 18 2 18 16
M  V30 19 1 19 18
M  V30 20 1 20 11
M  V30 21 1 21 8
M  V30 22 1 21 20
M  V30 23 1 22 2
M  V30 24 2 23 22
M  V30 25 1 24 23
M  V30 26 1 25 24
M  V30 27 2 26 25
M  V30 28 1 27 26
M  V30 29 1 28 26
M  V30 30 2 29 28
M  V30 31 2 30 24
M  V30 32 1 30 29
M  V30 33 1 31 22
M  V30 34 1 31 30
M  V30 35 1 32 3
M  V30 36 1 33 4
M  V30 37 1 34 4
M  V30 38 1 35 5
M  V30 39 1 36 5
M  V30 40 1 37 6
M  V30 41 1 38 6
M  V30 42 1 39 7
M  V30 43 1 40 7
M  V30 44 1 41 9
M  V30 45 1 42 9
M  V30 46 1 43 10
M  V30 47 1 44 10
M  V30 48 1 45 13
M  V30 49 1 46 14
M  V30 50 1 47 15
M  V30 51 1 48 20
M  V30 52 1 49 20
M  V30 53 1 50 21
M  V30 54 1 51 21
M  V30 55 1 52 23
M  V30 56 1 53 25
M  V30 57 1 54 28
M  V30 58 1 55 29
M  V30 59 1 56 8
M  V30 END BOND
M  V30 END CTAB
M  END
>  <b_m_subgroup_collapsed>  (1730) 
0

>  <r_i_docking_score>  (1730) 
-6.75355234571167

>  <s_m_subgroup_title>  (1730) 
glide-dock_SP_D22_pv

>  <s_m_subgroupid>  (1730) 
glide-dock_SP_D22_pv

>  <Molecule ChEMBL ID>  (1730) 
CHEMBL376445

>  <Standard Type>  (1730) 
Ki

>  <Standard Value>  (1730) 
10000.0

>  <label>  (1730) 
0

$$$$
CHEMBL836
     RDKit          3D

  0  0  0  0  0  0  0  0  0  0999 V3000
M  V30 BEGIN CTAB
M  V30 COUNTS 57 58 0 0 1
M  V30 BEGIN ATOM
M  V30 1 C 11.759918 7.690216 -1.847274 0
M  V30 2 C 12.259084 6.667222 -2.871675 0
M  V30 3 O 11.387861 6.587087 -3.995457 0
M  V30 4 C 11.362629 7.660920 -4.864347 0
M  V30 5 C 12.238779 8.766050 -4.744617 0
M  V30 6 C 12.225106 9.787452 -5.691979 0
M  V30 7 C 11.296828 9.772373 -6.732914 0
M  V30 8 C 10.391449 8.715029 -6.848288 0
M  V30 9 C 10.426742 7.643429 -5.923849 0
M  V30 10 O 9.567679 6.572354 -5.986366 0
M  V30 11 C 8.662773 6.468490 -7.079205 0
M  V30 12 C 9.433055 5.956529 -8.311017 0
M  V30 13 N 8.885787 6.510210 -9.565551 0 CHG=1
M  V30 14 C 9.864109 6.737866 -10.647081 0 CFG=2
M  V30 15 C 10.771717 7.948801 -10.349119 0
M  V30 16 C 9.140388 6.939615 -11.985402 0
M  V30 17 C 8.393163 5.713263 -12.487064 0
M  V30 18 C 7.056737 5.484312 -12.106736 0
M  V30 19 C 6.357754 4.358321 -12.574208 0
M  V30 20 C 6.979164 3.435128 -13.448268 0
M  V30 21 O 6.331733 2.310300 -13.910461 0
M  V30 22 C 5.299675 1.766995 -13.095162 0
M  V30 23 C 8.316606 3.684309 -13.847564 0
M  V30 24 S 9.179907 2.567648 -14.960384 0
M  V30 25 N 8.949233 1.025948 -14.246895 0
M  V30 26 O 8.487706 2.568029 -16.258024 0
M  V30 27 O 10.620696 2.853209 -14.880165 0
M  V30 28 C 9.020174 4.807803 -13.364492 0
M  V30 29 H 12.488813 7.800782 -1.047426 0
M  V30 30 H 11.592268 8.687031 -2.248343 0
M  V30 31 H 10.808878 7.351989 -1.446293 0
M  V30 32 H 12.288835 5.694574 -2.390703 0
M  V30 33 H 13.285686 6.873486 -3.170311 0
M  V30 34 H 12.986041 8.839291 -3.972896 0
M  V30 35 H 12.951442 10.572421 -5.618594 0
M  V30 36 H 11.286096 10.572329 -7.446781 0
M  V30 37 H 9.695866 8.758081 -7.669993 0
M  V30 38 H 7.868541 5.771845 -6.818969 0
M  V30 39 H 8.145027 7.412042 -7.250097 0
M  V30 40 H 10.486650 6.216541 -8.220922 0
M  V30 41 H 9.409326 4.867191 -8.351613 0
M  V30 42 H 8.189784 5.860810 -9.907816 0
M  V30 43 H 10.485975 5.847694 -10.732635 0
M  V30 44 H 11.467399 8.126968 -11.169627 0
M  V30 45 H 10.188230 8.860191 -10.212246 0
M  V30 46 H 11.380075 7.806774 -9.457042 0
M  V30 47 H 8.453130 7.785748 -11.929971 0
M  V30 48 H 9.897835 7.205494 -12.716650 0
M  V30 49 H 6.549147 6.172300 -11.447959 0
M  V30 50 H 5.337366 4.229694 -12.247783 0
M  V30 51 H 4.982594 0.810246 -13.509841 0
M  V30 52 H 5.655957 1.584112 -12.080184 0
M  V30 53 H 4.420160 2.408612 -13.047061 0
M  V30 54 H 9.257902 0.280087 -14.868220 0
M  V30 55 H 9.433840 0.971875 -13.343422 0
M  V30 56 H 10.040457 4.980054 -13.674861 0
M  V30 57 H 8.376228 7.371176 -9.392570 0
M  V30 END ATOM
M  V30 BEGIN BOND
M  V30 1 1 2 1
M  V30 2 1 3 2
M  V30 3 1 4 3
M  V30 4 2 5 4
M  V30 5 1 6 5
M  V30 6 2 7 6
M  V30 7 1 8 7
M  V30 8 1 9 4
M  V30 9 2 9 8
M  V30 10 1 10 9
M  V30 11 1 11 10
M  V30 12 1 12 11
M  V30 13 1 13 12
M  V30 14 1 14 13
M  V30 15 1 15 14
M  V30 16 1 16 14
M  V30 17 1 17 16
M  V30 18 1 18 17
M  V30 19 2 19 18
M  V30 20 1 20 19
M  V30 21 1 21 20
M  V30 22 1 22 21
M  V30 23 2 23 20
M  V30 24 1 24 23
M  V30 25 1 25 24
M  V30 26 2 26 24
M  V30 27 2 27 24
M  V30 28 2 28 17
M  V30 29 1 28 23
M  V30 30 1 29 1
M  V30 31 1 30 1
M  V30 32 1 31 1
M  V30 33 1 32 2
M  V30 34 1 33 2
M  V30 35 1 34 5
M  V30 36 1 35 6
M  V30 37 1 36 7
M  V30 38 1 37 8
M  V30 39 1 38 11
M  V30 40 1 39 11
M  V30 41 1 40 12
M  V30 42 1 41 12
M  V30 43 1 42 13
M  V30 44 1 14 43 CFG=3
M  V30 45 1 44 15
M  V30 46 1 45 15
M  V30 47 1 46 15
M  V30 48 1 47 16
M  V30 49 1 48 16
M  V30 50 1 49 18
M  V30 51 1 50 19
M  V30 52 1 51 22
M  V30 53 1 52 22
M  V30 54 1 53 22
M  V30 55 1 54 25
M  V30 56 1 55 25
M  V30 57 1 56 28
M  V30 58 1 57 13
M  V30 END BOND
M  V30 END CTAB
M  END
>  <b_m_subgroup_collapsed>  (1731) 
0

>  <r_i_docking_score>  (1731) 
-6.7532238786979102

>  <s_m_subgroup_title>  (1731) 
glide-dock_SP_D22_pv

>  <s_m_subgroupid>  (1731) 
glide-dock_SP_D22_pv

>  <Molecule ChEMBL ID>  (1731) 
CHEMBL836

>  <Standard Type>  (1731) 
Ki

>  <Standard Value>  (1731) 
13.0

>  <label>  (1731) 
1

$$$$
CHEMBL201241
     RDKit          3D

  0  0  0  0  0  0  0  0  0  0999 V3000
M  V30 BEGIN CTAB
M  V30 COUNTS 46 50 0 0 1
M  V30 BEGIN ATOM
M  V30 1 C 5.285919 4.569754 -13.446815 0
M  V30 2 C 6.091450 3.469675 -13.777689 0
M  V30 3 C 7.452878 3.481592 -13.446829 0
M  V30 4 C 8.024743 4.574168 -12.758591 0
M  V30 5 C 9.442338 4.492640 -12.193365 0 CFG=2
M  V30 6 C 9.686164 5.551430 -11.078447 0
M  V30 7 C 10.162255 6.919462 -11.631767 0
M  V30 8 C 11.265615 6.794607 -12.697316 0
M  V30 9 N 10.885664 5.819718 -13.753786 0 CFG=1 CHG=1
M  V30 10 C 11.805872 5.860428 -14.926084 0
M  V30 11 C 11.218430 5.077064 -16.118322 0
M  V30 12 C 10.821397 3.713650 -15.662871 0
M  V30 13 C 10.544983 3.453080 -14.349215 0
M  V30 14 N 10.327586 2.090848 -14.216647 0
M  V30 15 C 10.338819 1.465300 -15.446784 0
M  V30 16 C 10.108273 0.133144 -15.833606 0
M  V30 17 C 10.231086 -0.223023 -17.188698 0
M  V30 18 C 10.582499 0.754369 -18.140282 0
M  V30 19 C 10.801830 2.091422 -17.744236 0
M  V30 20 C 10.675673 2.481282 -16.389093 0
M  V30 21 C 10.621511 4.452878 -13.217284 0 CFG=2
M  V30 22 C 7.197872 5.677145 -12.454058 0
M  V30 23 C 5.846478 5.670094 -12.781281 0
M  V30 24 H 4.239616 4.572423 -13.712966 0
M  V30 25 H 5.674038 2.598849 -14.253316 0
M  V30 26 H 8.013221 2.590092 -13.656177 0
M  V30 27 H 9.459208 3.524932 -11.692154 0
M  V30 28 H 8.831049 5.658325 -10.407420 0
M  V30 29 H 10.463126 5.189195 -10.411777 0
M  V30 30 H 9.338626 7.478842 -12.069341 0
M  V30 31 H 10.518246 7.537789 -10.805745 0
M  V30 32 H 11.411777 7.771477 -13.156099 0
M  V30 33 H 12.224193 6.543291 -12.248414 0
M  V30 34 H 11.989544 6.891881 -15.230994 0
M  V30 35 H 12.772439 5.442037 -14.635520 0
M  V30 36 H 10.353436 5.602805 -16.523798 0
M  V30 37 H 11.951427 5.019720 -16.924360 0
M  V30 38 H 10.156510 1.634230 -13.321623 0
M  V30 39 H 9.847457 -0.614163 -15.098352 0
M  V30 40 H 10.057316 -1.243085 -17.499348 0
M  V30 41 H 10.679933 0.478422 -19.180017 0
M  V30 42 H 11.065497 2.829084 -18.488873 0
M  V30 43 H 11.503879 4.175229 -12.647161 0
M  V30 44 H 7.519539 6.540660 -11.898549 0
M  V30 45 H 5.278419 6.542907 -12.513879 0
M  V30 46 H 9.991617 6.130489 -14.106790 0
M  V30 END ATOM
M  V30 BEGIN BOND
M  V30 1 2 2 1
M  V30 2 1 3 2
M  V30 3 2 4 3
M  V30 4 1 5 4
M  V30 5 1 6 5
M  V30 6 1 7 6
M  V30 7 1 8 7
M  V30 8 1 9 8
M  V30 9 1 10 9
M  V30 10 1 11 10
M  V30 11 1 12 11
M  V30 12 2 13 12
M  V30 13 1 14 13
M  V30 14 1 15 14
M  V30 15 2 16 15
M  V30 16 1 17 16
M  V30 17 2 18 17
M  V30 18 1 19 18
M  V30 19 1 20 12
M  V30 20 1 20 15
M  V30 21 2 20 19
M  V30 22 1 21 5
M  V30 23 1 21 9
M  V30 24 1 21 13
M  V30 25 1 22 4
M  V30 26 1 23 1
M  V30 27 2 23 22
M  V30 28 1 24 1
M  V30 29 1 25 2
M  V30 30 1 26 3
M  V30 31 1 5 27 CFG=1
M  V30 32 1 28 6
M  V30 33 1 29 6
M  V30 34 1 30 7
M  V30 35 1 31 7
M  V30 36 1 32 8
M  V30 37 1 33 8
M  V30 38 1 34 10
M  V30 39 1 35 10
M  V30 40 1 36 11
M  V30 41 1 37 11
M  V30 42 1 38 14
M  V30 43 1 39 16
M  V30 44 1 40 17
M  V30 45 1 41 18
M  V30 46 1 42 19
M  V30 47 1 21 43 CFG=1
M  V30 48 1 44 22
M  V30 49 1 45 23
M  V30 50 1 9 46 CFG=3
M  V30 END BOND
M  V30 END CTAB
M  END
>  <b_m_subgroup_collapsed>  (1732) 
0

>  <r_i_docking_score>  (1732) 
-6.7523435691758502

>  <s_m_subgroup_title>  (1732) 
glide-dock_SP_D22_pv

>  <s_m_subgroupid>  (1732) 
glide-dock_SP_D22_pv

>  <Molecule ChEMBL ID>  (1732) 
CHEMBL201241

>  <Standard Type>  (1732) 
Ki

>  <Standard Value>  (1732) 
10000.0

>  <label>  (1732) 
0

$$$$
CHEMBL485727
     RDKit          3D

  0  0  0  0  0  0  0  0  0  0999 V3000
M  V30 BEGIN CTAB
M  V30 COUNTS 73 76 0 0 1
M  V30 BEGIN ATOM
M  V30 1 C 6.050928 -4.277132 -17.735903 0
M  V30 2 O 5.118965 -3.634241 -18.594620 0
M  V30 3 C 5.088901 -2.256632 -18.601416 0
M  V30 4 C 4.027881 -1.637275 -19.288195 0
M  V30 5 C 3.920363 -0.233308 -19.336264 0
M  V30 6 C 4.885867 0.570103 -18.707336 0
M  V30 7 C 5.956369 -0.032101 -18.018206 0
M  V30 8 C 7.010313 0.832764 -17.358337 0
M  V30 9 C 7.238921 0.493132 -15.876649 0
M  V30 10 C 8.356782 1.333805 -15.287182 0
M  V30 11 C 9.674742 1.103958 -15.740786 0
M  V30 12 C 10.743098 1.870435 -15.246391 0
M  V30 13 C 10.503558 2.849885 -14.271442 0
M  V30 14 C 9.195786 3.068086 -13.805370 0
M  V30 15 C 8.097468 2.324265 -14.309771 0
M  V30 16 O 6.787282 2.504256 -13.892968 0
M  V30 17 C 6.494926 3.452974 -12.868680 0
M  V30 18 C 6.417934 4.873298 -13.446970 0
M  V30 19 C 6.598103 6.008009 -12.418176 0
M  V30 20 C 8.067142 6.473716 -12.235806 0
M  V30 21 N 8.486098 6.571911 -10.815210 0 CFG=1 CHG=1
M  V30 22 C 8.563344 5.267030 -10.116557 0
M  V30 23 C 8.643005 5.479026 -8.601788 0
M  V30 24 C 9.637095 6.547494 -8.199616 0
M  V30 25 C 9.995314 6.668612 -6.845893 0
M  V30 26 C 10.936051 7.631441 -6.426495 0
M  V30 27 O 11.348282 7.751124 -5.117614 0
M  V30 28 C 11.380387 6.569959 -4.332451 0
M  V30 29 C 11.493688 8.497032 -7.392661 0
M  V30 30 O 12.485983 9.372103 -7.047098 0
M  V30 31 C 12.078300 10.463155 -6.243451 0
M  V30 32 C 11.107340 8.405802 -8.746933 0
M  V30 33 C 10.163311 7.441549 -9.159297 0
M  V30 34 C 9.730667 7.363813 -10.621236 0
M  V30 35 C 6.057837 -1.439732 -17.970924 0
M  V30 36 H 5.880125 -5.352866 -17.759834 0
M  V30 37 H 7.077571 -4.101878 -18.055956 0
M  V30 38 H 5.935319 -3.950257 -16.701452 0
M  V30 39 H 3.286299 -2.250245 -19.775694 0
M  V30 40 H 3.087865 0.225320 -19.848413 0
M  V30 41 H 4.792675 1.645711 -18.750177 0
M  V30 42 H 6.730031 1.884214 -17.444674 0
M  V30 43 H 7.934628 0.709014 -17.925587 0
M  V30 44 H 7.522194 -0.552468 -15.754880 0
M  V30 45 H 6.309063 0.616552 -15.319883 0
M  V30 46 H 9.866940 0.343862 -16.483896 0
M  V30 47 H 11.745515 1.697225 -15.608904 0
M  V30 48 H 11.323948 3.426805 -13.871699 0
M  V30 49 H 9.066985 3.803651 -13.035052 0
M  V30 50 H 5.533123 3.194920 -12.423927 0
M  V30 51 H 7.206523 3.377282 -12.054709 0
M  V30 52 H 7.151819 4.972292 -14.245763 0
M  V30 53 H 5.443089 4.972759 -13.923225 0
M  V30 54 H 6.024229 6.871882 -12.758634 0
M  V30 55 H 6.122731 5.738102 -11.474350 0
M  V30 56 H 8.770951 5.852994 -12.783503 0
M  V30 57 H 8.152499 7.465910 -12.680307 0
M  V30 58 H 7.689137 4.651234 -10.320378 0
M  V30 59 H 9.437583 4.716600 -10.471632 0
M  V30 60 H 8.899428 4.537703 -8.117603 0
M  V30 61 H 7.676506 5.772366 -8.204031 0
M  V30 62 H 9.527767 6.016289 -6.131841 0
M  V30 63 H 11.852403 6.787941 -3.374398 0
M  V30 64 H 10.387568 6.172856 -4.126955 0
M  V30 65 H 11.973195 5.798820 -4.824441 0
M  V30 66 H 12.883346 11.197725 -6.246807 0
M  V30 67 H 11.182548 10.942345 -6.639182 0
M  V30 68 H 11.896805 10.170894 -5.209116 0
M  V30 69 H 11.551296 9.074576 -9.469816 0
M  V30 70 H 10.545504 6.927259 -11.201613 0
M  V30 71 H 9.571985 8.375547 -10.999293 0
M  V30 72 H 6.891211 -1.879974 -17.448202 0
M  V30 73 H 7.731729 7.106593 -10.367022 0
M  V30 END ATOM
M  V30 BEGIN BOND
M  V30 1 1 2 1
M  V30 2 1 3 2
M  V30 3 2 4 3
M  V30 4 1 5 4
M  V30 5 2 6 5
M  V30 6 1 7 6
M  V30 7 1 8 7
M  V30 8 1 9 8
M  V30 9 1 10 9
M  V30 10 2 11 10
M  V30 11 1 12 11
M  V30 12 2 13 12
M  V30 13 1 14 13
M  V30 14 1 15 10
M  V30 15 2 15 14
M  V30 16 1 16 15
M  V30 17 1 17 16
M  V30 18 1 18 17
M  V30 19 1 19 18
M  V30 20 1 20 19
M  V30 21 1 21 20
M  V30 22 1 22 21
M  V30 23 1 23 22
M  V30 24 1 24 23
M  V30 25 2 25 24
M  V30 26 1 26 25
M  V30 27 1 27 26
M  V30 28 1 28 27
M  V30 29 2 29 26
M  V30 30 1 30 29
M  V30 31 1 31 30
M  V30 32 1 32 29
M  V30 33 1 33 24
M  V30 34 2 33 32
M  V30 35 1 34 21
M  V30 36 1 34 33
M  V30 37 1 35 3
M  V30 38 2 35 7
M  V30 39 1 36 1
M  V30 40 1 37 1
M  V30 41 1 38 1
M  V30 42 1 39 4
M  V30 43 1 40 5
M  V30 44 1 41 6
M  V30 45 1 42 8
M  V30 46 1 43 8
M  V30 47 1 44 9
M  V30 48 1 45 9
M  V30 49 1 46 11
M  V30 50 1 47 12
M  V30 51 1 48 13
M  V30 52 1 49 14
M  V30 53 1 50 17
M  V30 54 1 51 17
M  V30 55 1 52 18
M  V30 56 1 53 18
M  V30 57 1 54 19
M  V30 58 1 55 19
M  V30 59 1 56 20
M  V30 60 1 57 20
M  V30 61 1 58 22
M  V30 62 1 59 22
M  V30 63 1 60 23
M  V30 64 1 61 23
M  V30 65 1 62 25
M  V30 66 1 63 28
M  V30 67 1 64 28
M  V30 68 1 65 28
M  V30 69 1 66 31
M  V30 70 1 67 31
M  V30 71 1 68 31
M  V30 72 1 69 32
M  V30 73 1 70 34
M  V30 74 1 71 34
M  V30 75 1 72 35
M  V30 76 1 21 73 CFG=1
M  V30 END BOND
M  V30 END CTAB
M  END
>  <b_m_subgroup_collapsed>  (1733) 
0

>  <r_i_docking_score>  (1733) 
-6.7514576743809096

>  <s_m_subgroup_title>  (1733) 
glide-dock_SP_D22_pv

>  <s_m_subgroupid>  (1733) 
glide-dock_SP_D22_pv

>  <Molecule ChEMBL ID>  (1733) 
CHEMBL485727

>  <Standard Type>  (1733) 
Ki

>  <Standard Value>  (1733) 
1000000.0

>  <label>  (1733) 
0

$$$$
CHEMBL3695424
     RDKit          3D

  0  0  0  0  0  0  0  0  0  0999 V3000
M  V30 BEGIN CTAB
M  V30 COUNTS 81 85 0 0 1
M  V30 BEGIN ATOM
M  V30 1 C 3.528851 -1.432831 -15.696138 0
M  V30 2 C 4.632867 -1.516175 -16.772078 0
M  V30 3 C 3.953969 -1.333941 -18.150736 0
M  V30 4 C 5.286374 -2.910820 -16.749588 0
M  V30 5 C 5.710515 -0.460206 -16.484253 0
M  V30 6 C 6.195047 0.414176 -17.483641 0
M  V30 7 C 7.182619 1.369154 -17.180510 0
M  V30 8 C 7.695252 1.478140 -15.871901 0
M  V30 9 C 8.661572 2.571924 -15.541033 0
M  V30 10 O 9.454823 3.008107 -16.375416 0
M  V30 11 N 8.469463 3.111154 -14.331428 0
M  V30 12 C 8.947711 4.412022 -13.907753 0 CFG=1
M  V30 13 C 8.103640 4.883083 -12.717515 0
M  V30 14 C 8.532030 6.282681 -12.273928 0
M  V30 15 C 10.044698 6.360394 -11.983624 0 CFG=2
M  V30 16 C 10.471419 7.804762 -11.707736 0
M  V30 17 C 9.913366 8.449466 -10.438781 0
M  V30 18 N 9.973166 7.596004 -9.228514 0 CFG=2 CHG=1
M  V30 19 C 9.051485 8.122549 -8.210070 0
M  V30 20 C 8.972399 7.239815 -6.966915 0
M  V30 21 C 10.344925 6.861709 -6.376545 0 CFG=2
M  V30 22 C 10.980194 7.889384 -5.446541 0
M  V30 23 C 10.938309 9.267746 -5.715155 0
M  V30 24 C 11.365885 10.175956 -4.741737 0
M  V30 25 C 11.910331 9.772461 -3.506816 0
M  V30 26 C 12.035541 8.406932 -3.274765 0
M  V30 27 C 11.584429 7.509480 -4.225086 0
M  V30 28 C 11.685668 6.169302 -3.642094 0
M  V30 29 C 12.322659 6.411595 -2.259236 0
M  V30 30 O 12.485402 7.827895 -2.123288 0
M  V30 31 C 11.286786 6.392489 -7.483122 0
M  V30 32 C 11.334298 7.376820 -8.675271 0
M  V30 33 C 10.898856 5.786345 -13.137277 0
M  V30 34 C 10.433080 4.380427 -13.531607 0
M  V30 35 C 7.259333 0.573296 -14.881852 0
M  V30 36 C 6.271423 -0.378998 -15.189012 0
M  V30 37 H 3.895614 -1.575842 -14.681871 0
M  V30 38 H 3.003022 -0.478377 -15.722942 0
M  V30 39 H 2.801626 -2.224295 -15.848085 0
M  V30 40 H 4.651622 -1.463910 -18.977289 0
M  V30 41 H 3.155797 -2.062537 -18.303648 0
M  V30 42 H 3.506002 -0.345168 -18.246962 0
M  V30 43 H 5.667115 -3.177042 -15.762736 0
M  V30 44 H 4.579542 -3.685376 -17.046270 0
M  V30 45 H 6.122459 -2.955711 -17.447744 0
M  V30 46 H 5.821197 0.376348 -18.494242 0
M  V30 47 H 7.527400 2.039877 -17.954432 0
M  V30 48 H 7.777992 2.676658 -13.741090 0
M  V30 49 H 8.809380 5.115720 -14.731023 0
M  V30 50 H 8.202251 4.186656 -11.882619 0
M  V30 51 H 7.048979 4.897375 -12.996801 0
M  V30 52 H 7.962443 6.567627 -11.389621 0
M  V30 53 H 8.258555 6.996829 -13.047302 0
M  V30 54 H 10.237953 5.745993 -11.105796 0
M  V30 55 H 10.087005 8.402369 -12.539746 0
M  V30 56 H 11.559072 7.886508 -11.704475 0
M  V30 57 H 8.878993 8.733053 -10.644462 0
M  V30 58 H 10.449875 9.373727 -10.243625 0
M  V30 59 H 8.086000 8.124916 -8.660543 0
M  V30 60 H 9.241550 9.171359 -8.003073 0
M  V30 61 H 8.465531 6.317779 -7.255771 0
M  V30 62 H 8.318595 7.716524 -6.244017 0
M  V30 63 H 10.146460 6.004340 -5.745121 0
M  V30 64 H 10.559455 9.680686 -6.626402 0
M  V30 65 H 11.285850 11.230680 -4.963905 0
M  V30 66 H 12.211625 10.496531 -2.762463 0
M  V30 67 H 10.679236 5.774041 -3.550976 0
M  V30 68 H 12.284019 5.529980 -4.284128 0
M  V30 69 H 13.285888 5.908911 -2.186534 0
M  V30 70 H 11.698680 6.016026 -1.454406 0
M  V30 71 H 12.270948 6.203416 -7.047660 0
M  V30 72 H 10.927153 5.427714 -7.845316 0
M  V30 73 H 11.976860 6.981124 -9.461131 0
M  V30 74 H 11.768946 8.329287 -8.370015 0
M  V30 75 H 10.884966 6.438473 -14.011055 0
M  V30 76 H 11.947796 5.764444 -12.847898 0
M  V30 77 H 10.579207 3.692463 -12.699674 0
M  V30 78 H 11.032277 4.008689 -14.363497 0
M  V30 79 H 7.668842 0.607216 -13.882071 0
M  V30 80 H 5.964054 -1.069969 -14.420712 0
M  V30 81 H 9.597887 6.695479 -9.490384 0
M  V30 END ATOM
M  V30 BEGIN BOND
M  V30 1 1 2 1
M  V30 2 1 3 2
M  V30 3 1 4 2
M  V30 4 1 5 2
M  V30 5 1 6 5
M  V30 6 2 7 6
M  V30 7 1 8 7
M  V30 8 1 9 8
M  V30 9 2 10 9
M  V30 10 1 11 9
M  V30 11 1 12 11
M  V30 12 1 13 12
M  V30 13 1 14 13
M  V30 14 1 15 14
M  V30 15 1 16 15
M  V30 16 1 17 16
M  V30 17 1 18 17
M  V30 18 1 19 18
M  V30 19 1 20 19
M  V30 20 1 21 20
M  V30 21 1 22 21
M  V30 22 2 23 22
M  V30 23 1 24 23
M  V30 24 2 25 24
M  V30 25 1 26 25
M  V30 26 1 27 22
M  V30 27 2 27 26
M  V30 28 1 28 27
M  V30 29 1 29 28
M  V30 30 1 30 26
M  V30 31 1 30 29
M  V30 32 1 31 21
M  V30 33 1 32 18
M  V30 34 1 32 31
M  V30 35 1 33 15
M  V30 36 1 34 12
M  V30 37 1 34 33
M  V30 38 2 35 8
M  V30 39 2 36 5
M  V30 40 1 36 35
M  V30 41 1 37 1
M  V30 42 1 38 1
M  V30 43 1 39 1
M  V30 44 1 40 3
M  V30 45 1 41 3
M  V30 46 1 42 3
M  V30 47 1 43 4
M  V30 48 1 44 4
M  V30 49 1 45 4
M  V30 50 1 46 6
M  V30 51 1 47 7
M  V30 52 1 48 11
M  V30 53 1 12 49 CFG=3
M  V30 54 1 50 13
M  V30 55 1 51 13
M  V30 56 1 52 14
M  V30 57 1 53 14
M  V30 58 1 15 54 CFG=1
M  V30 59 1 55 16
M  V30 60 1 56 16
M  V30 61 1 57 17
M  V30 62 1 58 17
M  V30 63 1 59 19
M  V30 64 1 60 19
M  V30 65 1 61 20
M  V30 66 1 62 20
M  V30 67 1 21 63 CFG=1
M  V30 68 1 64 23
M  V30 69 1 65 24
M  V30 70 1 66 25
M  V30 71 1 67 28
M  V30 72 1 68 28
M  V30 73 1 69 29
M  V30 74 1 70 29
M  V30 75 1 71 31
M  V30 76 1 72 31
M  V30 77 1 73 32
M  V30 78 1 74 32
M  V30 79 1 75 33
M  V30 80 1 76 33
M  V30 81 1 77 34
M  V30 82 1 78 34
M  V30 83 1 79 35
M  V30 84 1 80 36
M  V30 85 1 18 81 CFG=3
M  V30 END BOND
M  V30 END CTAB
M  END
>  <b_m_subgroup_collapsed>  (1734) 
0

>  <r_i_docking_score>  (1734) 
-6.7507842037988404

>  <s_m_subgroup_title>  (1734) 
glide-dock_SP_D22_pv

>  <s_m_subgroupid>  (1734) 
glide-dock_SP_D22_pv

>  <Molecule ChEMBL ID>  (1734) 
CHEMBL3695424

>  <Standard Type>  (1734) 
Ki

>  <Standard Value>  (1734) 
10000000.0

>  <label>  (1734) 
0

$$$$
CHEMBL3936289
     RDKit          3D

  0  0  0  0  0  0  0  0  0  0999 V3000
M  V30 BEGIN CTAB
M  V30 COUNTS 50 53 0 0 1
M  V30 BEGIN ATOM
M  V30 1 C 10.443186 4.830586 -12.748224 0
M  V30 2 N 9.844428 6.179178 -12.578675 0 CFG=1 CHG=1
M  V30 3 C 8.409007 6.117605 -12.211546 0
M  V30 4 C 8.225844 5.725648 -10.739969 0
M  V30 5 C 8.961294 6.697752 -9.807663 0 CFG=1
M  V30 6 C 8.838731 6.290198 -8.331207 0
M  V30 7 C 9.510110 7.359441 -7.479379 0
M  V30 8 O 8.885983 8.008600 -6.646757 0
M  V30 9 C 10.991288 7.625333 -7.784628 0 CFG=2
M  V30 10 C 11.556127 8.749641 -6.866398 0
M  V30 11 C 11.638796 8.469556 -5.363242 0
M  V30 12 C 11.749619 9.568233 -4.487590 0
M  V30 13 C 11.983176 9.372296 -3.113052 0
M  V30 14 C 12.084880 8.070312 -2.593821 0
M  V30 15 C 11.919550 6.965953 -3.448758 0
M  V30 16 C 11.685984 7.160913 -4.824569 0
M  V30 17 C 11.139673 7.920129 -9.315478 0 CFG=1
M  V30 18 C 12.609571 8.128614 -9.746976 0
M  V30 19 C 12.806162 8.361215 -11.250981 0
M  V30 20 C 12.053230 7.373914 -12.164598 0
M  V30 21 C 10.588884 7.151271 -11.714989 0 CFG=2
M  V30 22 C 10.447204 6.835690 -10.197848 0 CFG=2
M  V30 23 H 10.485796 4.280139 -11.810827 0
M  V30 24 H 11.443233 4.874078 -13.176888 0
M  V30 25 H 9.840479 4.240695 -13.439425 0
M  V30 26 H 7.957116 7.096343 -12.382090 0
M  V30 27 H 7.877953 5.421533 -12.862476 0
M  V30 28 H 7.162840 5.764528 -10.519811 0
M  V30 29 H 8.547873 4.699292 -10.561681 0
M  V30 30 H 8.486534 7.672680 -9.928117 0
M  V30 31 H 7.796901 6.172230 -8.036453 0
M  V30 32 H 9.327383 5.332429 -8.151999 0
M  V30 33 H 11.534430 6.703759 -7.581150 0
M  V30 34 H 12.580132 8.984760 -7.147578 0
M  V30 35 H 10.989487 9.669048 -7.025706 0
M  V30 36 H 11.686794 10.571733 -4.880451 0
M  V30 37 H 12.086329 10.223996 -2.456089 0
M  V30 38 H 12.265639 7.922495 -1.539855 0
M  V30 39 H 11.978024 5.963188 -3.049500 0
M  V30 40 H 11.594442 6.291667 -5.458554 0
M  V30 41 H 10.629524 8.865498 -9.512287 0
M  V30 42 H 13.010627 8.972331 -9.216225 0
M  V30 43 H 13.279615 7.372313 -9.396962 0
M  V30 44 H 12.486014 9.372824 -11.446765 0
M  V30 45 H 13.867229 8.363302 -11.496403 0
M  V30 46 H 12.055358 7.771868 -13.180094 0
M  V30 47 H 12.620137 6.451668 -12.246838 0
M  V30 48 H 10.089987 8.110621 -11.869658 0
M  V30 49 H 10.886021 5.871198 -9.969432 0
M  V30 50 H 9.862084 6.578763 -13.505130 0
M  V30 END ATOM
M  V30 BEGIN BOND
M  V30 1 1 2 1
M  V30 2 1 3 2
M  V30 3 1 4 3
M  V30 4 1 5 4
M  V30 5 1 6 5
M  V30 6 1 7 6
M  V30 7 2 8 7
M  V30 8 1 9 7
M  V30 9 1 10 9
M  V30 10 1 11 10
M  V30 11 2 12 11
M  V30 12 1 13 12
M  V30 13 2 14 13
M  V30 14 1 15 14
M  V30 15 1 16 11
M  V30 16 2 16 15
M  V30 17 1 17 9
M  V30 18 1 18 17
M  V30 19 1 19 18
M  V30 20 1 20 19
M  V30 21 1 21 2
M  V30 22 1 21 20
M  V30 23 1 22 5
M  V30 24 1 22 17
M  V30 25 1 22 21
M  V30 26 1 23 1
M  V30 27 1 24 1
M  V30 28 1 25 1
M  V30 29 1 26 3
M  V30 30 1 27 3
M  V30 31 1 28 4
M  V30 32 1 29 4
M  V30 33 1 5 30 CFG=1
M  V30 34 1 31 6
M  V30 35 1 32 6
M  V30 36 1 9 33 CFG=1
M  V30 37 1 34 10
M  V30 38 1 35 10
M  V30 39 1 36 12
M  V30 40 1 37 13
M  V30 41 1 38 14
M  V30 42 1 39 15
M  V30 43 1 40 16
M  V30 44 1 17 41 CFG=1
M  V30 45 1 42 18
M  V30 46 1 43 18
M  V30 47 1 44 19
M  V30 48 1 45 19
M  V30 49 1 46 20
M  V30 50 1 47 20
M  V30 51 1 21 48 CFG=1
M  V30 52 1 22 49 CFG=3
M  V30 53 1 2 50 CFG=3
M  V30 END BOND
M  V30 END CTAB
M  END
>  <b_m_subgroup_collapsed>  (1735) 
0

>  <r_i_docking_score>  (1735) 
-6.75019804649917

>  <s_m_subgroup_title>  (1735) 
glide-dock_SP_D22_pv

>  <s_m_subgroupid>  (1735) 
glide-dock_SP_D22_pv

>  <Molecule ChEMBL ID>  (1735) 
CHEMBL3936289

>  <Standard Type>  (1735) 
Ki

>  <Standard Value>  (1735) 
10000.0

>  <label>  (1735) 
0

$$$$
CHEMBL5272965
     RDKit          3D

  0  0  0  0  0  0  0  0  0  0999 V3000
M  V30 BEGIN CTAB
M  V30 COUNTS 63 67 0 0 1
M  V30 BEGIN ATOM
M  V30 1 C 11.745314 7.441545 -11.504994 0
M  V30 2 C 10.665764 8.086366 -10.614833 0 CFG=2
M  V30 3 C 11.311184 9.065177 -9.600551 0
M  V30 4 C 10.947518 8.485269 -8.269149 0
M  V30 5 C 11.324938 8.967113 -7.003575 0
M  V30 6 C 10.888752 8.258710 -5.863839 0
M  V30 7 C 10.086787 7.104565 -6.006959 0
M  V30 8 C 9.706527 6.642221 -7.285809 0
M  V30 9 C 10.166596 7.344786 -8.418197 0
M  V30 10 N 9.956797 7.076346 -9.793337 0
M  V30 11 C 9.282281 6.008849 -10.288695 0
M  V30 12 O 9.152439 4.938731 -9.693940 0
M  V30 13 N 8.776650 6.223356 -11.515275 0
M  V30 14 C 8.087078 5.257192 -12.360173 0
M  V30 15 C 9.036320 4.156482 -12.860686 0
M  V30 16 C 8.463637 3.336727 -14.027885 0
M  V30 17 C 9.228331 2.012648 -14.194287 0
M  V30 18 N 9.156802 1.424203 -15.533128 0
M  V30 19 C 10.079979 0.287594 -15.558096 0
M  V30 20 C 7.795624 1.106603 -16.010677 0 CFG=1
M  V30 21 C 7.824700 0.548179 -17.464415 0
M  V30 22 C 6.474117 0.123989 -18.016779 0
M  V30 23 C 6.039415 -0.018147 -19.352863 0
M  V30 24 C 4.743091 -0.537088 -19.630329 0
M  V30 25 C 3.869223 -0.932806 -18.583927 0
M  V30 26 C 4.305895 -0.793231 -17.251217 0
M  V30 27 N 3.720539 -1.027822 -16.010880 0
M  V30 28 C 4.577396 -0.636815 -15.050477 0
M  V30 29 O 4.340053 -0.627873 -13.846997 0
M  V30 30 N 5.721320 -0.227100 -15.653069 0
M  V30 31 C 5.562298 -0.282782 -17.042816 0
M  V30 32 C 6.957609 0.240596 -15.029269 0
M  V30 33 H 12.282542 8.169394 -12.107258 0
M  V30 34 H 12.486097 6.972176 -10.867069 0
M  V30 35 H 11.347073 6.694320 -12.191197 0
M  V30 36 H 9.945413 8.627497 -11.229643 0
M  V30 37 H 10.908272 10.070829 -9.688835 0
M  V30 38 H 12.394832 9.107778 -9.692603 0
M  V30 39 H 11.940529 9.848588 -6.906220 0
M  V30 40 H 11.165899 8.603971 -4.878298 0
M  V30 41 H 9.751168 6.572033 -5.129445 0
M  V30 42 H 9.081639 5.765288 -7.371882 0
M  V30 43 H 8.861283 7.160122 -11.881231 0
M  V30 44 H 7.242719 4.826505 -11.821362 0
M  V30 45 H 7.675485 5.802655 -13.207275 0
M  V30 46 H 9.983077 4.597206 -13.177462 0
M  V30 47 H 9.284363 3.494878 -12.029340 0
M  V30 48 H 7.406940 3.129715 -13.858580 0
M  V30 49 H 8.525580 3.934164 -14.938488 0
M  V30 50 H 10.279078 2.210222 -13.973534 0
M  V30 51 H 8.890123 1.294699 -13.447248 0
M  V30 52 H 10.267129 -0.061824 -16.571106 0
M  V30 53 H 11.056705 0.570652 -15.163094 0
M  V30 54 H 9.712911 -0.548280 -14.962983 0
M  V30 55 H 7.269844 2.058387 -16.080952 0
M  V30 56 H 8.273768 1.275517 -18.141647 0
M  V30 57 H 8.428414 -0.354929 -17.524479 0
M  V30 58 H 6.696778 0.253540 -20.164171 0
M  V30 59 H 4.419693 -0.642549 -20.656519 0
M  V30 60 H 2.883502 -1.319055 -18.799028 0
M  V30 61 H 2.791290 -1.396976 -15.877671 0
M  V30 62 H 7.517158 -0.629167 -14.700560 0
M  V30 63 H 6.709593 0.807576 -14.130441 0
M  V30 END ATOM
M  V30 BEGIN BOND
M  V30 1 1 2 1
M  V30 2 1 3 2
M  V30 3 1 4 3
M  V30 4 2 5 4
M  V30 5 1 6 5
M  V30 6 2 7 6
M  V30 7 1 8 7
M  V30 8 1 9 4
M  V30 9 2 9 8
M  V30 10 1 10 2
M  V30 11 1 10 9
M  V30 12 1 11 10
M  V30 13 2 12 11
M  V30 14 1 13 11
M  V30 15 1 14 13
M  V30 16 1 15 14
M  V30 17 1 16 15
M  V30 18 1 17 16
M  V30 19 1 18 17
M  V30 20 1 19 18
M  V30 21 1 20 18
M  V30 22 1 21 20
M  V30 23 1 22 21
M  V30 24 1 23 22
M  V30 25 2 24 23
M  V30 26 1 25 24
M  V30 27 2 26 25
M  V30 28 1 27 26
M  V30 29 1 28 27
M  V30 30 2 29 28
M  V30 31 1 30 28
M  V30 32 2 31 22
M  V30 33 1 31 26
M  V30 34 1 31 30
M  V30 35 1 32 20
M  V30 36 1 32 30
M  V30 37 1 33 1
M  V30 38 1 34 1
M  V30 39 1 35 1
M  V30 40 1 2 36 CFG=3
M  V30 41 1 37 3
M  V30 42 1 38 3
M  V30 43 1 39 5
M  V30 44 1 40 6
M  V30 45 1 41 7
M  V30 46 1 42 8
M  V30 47 1 43 13
M  V30 48 1 44 14
M  V30 49 1 45 14
M  V30 50 1 46 15
M  V30 51 1 47 15
M  V30 52 1 48 16
M  V30 53 1 49 16
M  V30 54 1 50 17
M  V30 55 1 51 17
M  V30 56 1 52 19
M  V30 57 1 53 19
M  V30 58 1 54 19
M  V30 59 1 20 55 CFG=3
M  V30 60 1 56 21
M  V30 61 1 57 21
M  V30 62 1 58 23
M  V30 63 1 59 24
M  V30 64 1 60 25
M  V30 65 1 61 27
M  V30 66 1 62 32
M  V30 67 1 63 32
M  V30 END BOND
M  V30 END CTAB
M  END
>  <b_m_subgroup_collapsed>  (1736) 
0

>  <r_i_docking_score>  (1736) 
-6.7485956596841703

>  <s_m_subgroup_title>  (1736) 
glide-dock_SP_D22_pv

>  <s_m_subgroupid>  (1736) 
glide-dock_SP_D22_pv

>  <Molecule ChEMBL ID>  (1736) 
CHEMBL5272965

>  <Standard Type>  (1736) 
Ki

>  <Standard Value>  (1736) 
26.9

>  <label>  (1736) 
1

$$$$
CHEMBL422959
     RDKit          3D

  0  0  0  0  0  0  0  0  0  0999 V3000
M  V30 BEGIN CTAB
M  V30 COUNTS 41 43 0 0 1
M  V30 BEGIN ATOM
M  V30 1 O 12.403017 4.553587 -15.245228 0
M  V30 2 C 11.390502 4.632672 -14.552848 0
M  V30 3 C 11.235410 5.656788 -13.506149 0
M  V30 4 C 12.086166 6.728378 -13.124497 0
M  V30 5 C 11.503551 7.371621 -12.071757 0
M  V30 6 N 10.292989 6.746043 -11.795922 0
M  V30 7 C 9.285307 7.144679 -10.816162 0 CFG=1
M  V30 8 C 8.802321 5.969535 -9.920174 0
M  V30 9 C 9.679467 5.705441 -8.685587 0
M  V30 10 N 10.008615 6.951726 -7.939665 0 CFG=1 CHG=1
M  V30 11 C 10.741613 6.640553 -6.684517 0
M  V30 12 C 10.980170 7.763723 -5.675371 0
M  V30 13 C 10.536340 9.095424 -5.846882 0
M  V30 14 C 10.886598 10.090966 -4.911944 0
M  V30 15 C 11.641575 9.759187 -3.771611 0
M  V30 16 C 12.037355 8.426455 -3.561718 0
M  V30 17 C 11.694893 7.436649 -4.503671 0
M  V30 18 C 10.698912 7.901126 -8.848905 0
M  V30 19 C 9.709754 8.338668 -9.936834 0
M  V30 20 C 10.131337 5.710134 -12.703330 0
M  V30 21 H 10.546968 3.950935 -14.663674 0
M  V30 22 H 13.036731 6.987682 -13.566729 0
M  V30 23 H 11.863044 8.217086 -11.507040 0
M  V30 24 H 8.436144 7.472652 -11.416595 0
M  V30 25 H 7.792215 6.171867 -9.564795 0
M  V30 26 H 8.695135 5.049720 -10.493974 0
M  V30 27 H 10.598116 5.212947 -8.997172 0
M  V30 28 H 9.159724 5.004156 -8.030753 0
M  V30 29 H 10.172094 5.883248 -6.151536 0
M  V30 30 H 11.702270 6.186275 -6.933735 0
M  V30 31 H 9.918945 9.374168 -6.685430 0
M  V30 32 H 10.556757 11.108181 -5.058670 0
M  V30 33 H 11.896952 10.519867 -3.046597 0
M  V30 34 H 12.601716 8.163520 -2.679201 0
M  V30 35 H 12.018517 6.418789 -4.336723 0
M  V30 36 H 11.577382 7.419380 -9.280637 0
M  V30 37 H 11.081724 8.782591 -8.343076 0
M  V30 38 H 10.127938 9.140687 -10.541051 0
M  V30 39 H 8.825083 8.769308 -9.464753 0
M  V30 40 H 9.239840 5.099217 -12.695839 0
M  V30 41 H 9.128643 7.371798 -7.668043 0
M  V30 END ATOM
M  V30 BEGIN BOND
M  V30 1 2 2 1
M  V30 2 1 3 2
M  V30 3 1 4 3
M  V30 4 2 5 4
M  V30 5 1 6 5
M  V30 6 1 7 6
M  V30 7 1 8 7
M  V30 8 1 9 8
M  V30 9 1 10 9
M  V30 10 1 11 10
M  V30 11 1 12 11
M  V30 12 2 13 12
M  V30 13 1 14 13
M  V30 14 2 15 14
M  V30 15 1 16 15
M  V30 16 1 17 12
M  V30 17 2 17 16
M  V30 18 1 18 10
M  V30 19 1 19 7
M  V30 20 1 19 18
M  V30 21 2 20 3
M  V30 22 1 20 6
M  V30 23 1 21 2
M  V30 24 1 22 4
M  V30 25 1 23 5
M  V30 26 1 7 24 CFG=3
M  V30 27 1 25 8
M  V30 28 1 26 8
M  V30 29 1 27 9
M  V30 30 1 28 9
M  V30 31 1 29 11
M  V30 32 1 30 11
M  V30 33 1 31 13
M  V30 34 1 32 14
M  V30 35 1 33 15
M  V30 36 1 34 16
M  V30 37 1 35 17
M  V30 38 1 36 18
M  V30 39 1 37 18
M  V30 40 1 38 19
M  V30 41 1 39 19
M  V30 42 1 40 20
M  V30 43 1 10 41 CFG=1
M  V30 END BOND
M  V30 END CTAB
M  END
>  <b_m_subgroup_collapsed>  (1737) 
0

>  <r_i_docking_score>  (1737) 
-6.74735185096156

>  <s_m_subgroup_title>  (1737) 
glide-dock_SP_D22_pv

>  <s_m_subgroupid>  (1737) 
glide-dock_SP_D22_pv

>  <Molecule ChEMBL ID>  (1737) 
CHEMBL422959

>  <Standard Type>  (1737) 
Ki

>  <Standard Value>  (1737) 
49000.0

>  <label>  (1737) 
0

$$$$
CHEMBL46
     RDKit          3D

  0  0  0  0  0  0  0  0  0  0999 V3000
M  V30 BEGIN CTAB
M  V30 COUNTS 42 45 0 0 1
M  V30 BEGIN ATOM
M  V30 1 C 11.285585 10.442322 -5.976552 0
M  V30 2 C 11.431012 9.098828 -5.341532 0
M  V30 3 N 12.159989 8.854713 -4.244524 0 CHG=1
M  V30 4 C 12.086319 7.531624 -3.903791 0
M  V30 5 C 11.286044 6.940222 -4.844473 0
M  V30 6 N 10.863603 7.930742 -5.695699 0
M  V30 7 C 9.878023 7.759905 -6.778073 0
M  V30 8 C 10.489773 7.222878 -8.099081 0 CFG=2
M  V30 9 C 11.211726 8.344493 -8.895267 0
M  V30 10 C 11.746695 7.912057 -10.265941 0
M  V30 11 C 10.776707 7.025349 -10.968977 0
M  V30 12 C 9.722956 6.371135 -10.386338 0
M  V30 13 C 9.064883 5.646421 -11.436752 0
M  V30 14 C 7.909421 4.833604 -11.518581 0
M  V30 15 C 7.556763 4.172769 -12.710487 0
M  V30 16 C 8.364138 4.301561 -13.853353 0
M  V30 17 C 9.504099 5.124640 -13.817079 0
M  V30 18 C 9.839251 5.799974 -12.624454 0
M  V30 19 N 10.885742 6.659214 -12.308550 0
M  V30 20 C 11.946602 7.053346 -13.219601 0
M  V30 21 C 9.465731 6.421237 -8.950841 0
M  V30 22 O 8.585974 5.772809 -8.384762 0
M  V30 23 H 10.486037 10.973012 -5.464424 0
M  V30 24 H 12.225778 10.977535 -5.851833 0
M  V30 25 H 11.068933 10.335115 -7.040358 0
M  V30 26 H 12.597498 7.116963 -3.046675 0
M  V30 27 H 10.954661 5.915695 -4.942770 0
M  V30 28 H 9.357397 8.705220 -6.941633 0
M  V30 29 H 9.120176 7.083600 -6.380697 0
M  V30 30 H 11.243540 6.481049 -7.831045 0
M  V30 31 H 12.039185 8.754820 -8.317040 0
M  V30 32 H 10.504438 9.160243 -9.053974 0
M  V30 33 H 12.681197 7.371491 -10.127871 0
M  V30 34 H 11.976844 8.792181 -10.867363 0
M  V30 35 H 7.286388 4.712364 -10.646938 0
M  V30 36 H 6.673567 3.552792 -12.740044 0
M  V30 37 H 8.104895 3.773303 -14.758172 0
M  V30 38 H 10.116582 5.240199 -14.698737 0
M  V30 39 H 12.831784 7.376626 -12.672087 0
M  V30 40 H 12.231853 6.207036 -13.843161 0
M  V30 41 H 11.611280 7.865600 -13.861591 0
M  V30 42 H 12.686935 9.554697 -3.735598 0
M  V30 END ATOM
M  V30 BEGIN BOND
M  V30 1 1 2 1
M  V30 2 2 3 2
M  V30 3 1 4 3
M  V30 4 2 5 4
M  V30 5 1 6 2
M  V30 6 1 6 5
M  V30 7 1 7 6
M  V30 8 1 8 7
M  V30 9 1 9 8
M  V30 10 1 10 9
M  V30 11 1 11 10
M  V30 12 2 12 11
M  V30 13 1 13 12
M  V30 14 2 14 13
M  V30 15 1 15 14
M  V30 16 2 16 15
M  V30 17 1 17 16
M  V30 18 1 18 13
M  V30 19 2 18 17
M  V30 20 1 19 11
M  V30 21 1 19 18
M  V30 22 1 20 19
M  V30 23 1 21 8
M  V30 24 1 21 12
M  V30 25 2 22 21
M  V30 26 1 23 1
M  V30 27 1 24 1
M  V30 28 1 25 1
M  V30 29 1 26 4
M  V30 30 1 27 5
M  V30 31 1 28 7
M  V30 32 1 29 7
M  V30 33 1 8 30 CFG=1
M  V30 34 1 31 9
M  V30 35 1 32 9
M  V30 36 1 33 10
M  V30 37 1 34 10
M  V30 38 1 35 14
M  V30 39 1 36 15
M  V30 40 1 37 16
M  V30 41 1 38 17
M  V30 42 1 39 20
M  V30 43 1 40 20
M  V30 44 1 41 20
M  V30 45 1 42 3
M  V30 END BOND
M  V30 END CTAB
M  END
>  <b_m_subgroup_collapsed>  (1738) 
0

>  <r_i_docking_score>  (1738) 
-6.7469864761801102

>  <s_m_subgroup_title>  (1738) 
glide-dock_SP_D22_pv

>  <s_m_subgroupid>  (1738) 
glide-dock_SP_D22_pv

>  <Molecule ChEMBL ID>  (1738) 
CHEMBL46

>  <Standard Type>  (1738) 
Ki

>  <Standard Value>  (1738) 
10000.0

>  <label>  (1738) 
0

$$$$
CHEMBL3289971
     RDKit          3D

  0  0  0  0  0  0  0  0  0  0999 V3000
M  V30 BEGIN CTAB
M  V30 COUNTS 52 55 0 0 1
M  V30 BEGIN ATOM
M  V30 1 O 12.324680 4.250628 -13.847278 0
M  V30 2 S 11.256064 4.643178 -14.778193 0
M  V30 3 O 11.535500 5.535953 -15.913827 0
M  V30 4 N 9.990596 5.372262 -13.870097 0
M  V30 5 C 9.601480 4.852736 -12.560915 0
M  V30 6 C 8.583404 5.802016 -11.918735 0
M  V30 7 C 8.446306 5.616241 -10.396626 0
M  V30 8 N 9.598393 6.058613 -9.606125 0
M  V30 9 C 9.795528 7.512064 -9.716955 0
M  V30 10 C 10.991619 7.962851 -8.853565 0
M  V30 11 N 10.794827 7.561047 -7.465848 0
M  V30 12 C 11.040918 8.452684 -6.406988 0
M  V30 13 N 10.968583 9.772598 -6.558405 0
M  V30 14 O 11.285097 10.360313 -5.306396 0
M  V30 15 C 11.589677 9.369881 -4.387170 0
M  V30 16 C 11.988381 9.447145 -3.046790 0
M  V30 17 C 12.236372 8.242118 -2.357736 0
M  V30 18 C 12.086141 7.001886 -3.021686 0
M  V30 19 C 11.685989 6.952402 -4.375689 0
M  V30 20 C 11.423312 8.158794 -5.068009 0
M  V30 21 C 10.416673 6.172459 -7.258747 0
M  V30 22 C 9.269511 5.773305 -8.204453 0
M  V30 23 C 10.470756 3.170066 -15.411416 0
M  V30 24 C 10.483538 1.981822 -14.653510 0
M  V30 25 C 9.882846 0.818863 -15.177814 0
M  V30 26 C 9.268057 0.854566 -16.445835 0
M  V30 27 F 8.702501 -0.266256 -16.949986 0
M  V30 28 C 9.243940 2.051470 -17.190548 0
M  V30 29 Cl 8.485941 2.099037 -18.739439 0
M  V30 30 C 9.847170 3.212953 -16.673491 0
M  V30 31 H 9.213494 5.688996 -14.450508 0
M  V30 32 H 9.187998 3.847993 -12.659849 0
M  V30 33 H 10.485702 4.774158 -11.935610 0
M  V30 34 H 8.810604 6.838332 -12.162849 0
M  V30 35 H 7.609650 5.619534 -12.374917 0
M  V30 36 H 7.577682 6.167848 -10.052102 0
M  V30 37 H 8.242928 4.565310 -10.188152 0
M  V30 38 H 10.009403 7.793859 -10.746180 0
M  V30 39 H 8.889188 8.045818 -9.423572 0
M  V30 40 H 11.908982 7.504965 -9.224095 0
M  V30 41 H 11.121085 9.040148 -8.952043 0
M  V30 42 H 12.086462 10.405237 -2.556047 0
M  V30 43 H 12.538647 8.269588 -1.322179 0
M  V30 44 H 12.281521 6.081782 -2.488760 0
M  V30 45 H 11.610631 5.991774 -4.859195 0
M  V30 46 H 11.285605 5.530526 -7.409979 0
M  V30 47 H 10.057065 6.032023 -6.242652 0
M  V30 48 H 8.359194 6.303313 -7.915387 0
M  V30 49 H 9.063136 4.709690 -8.084245 0
M  V30 50 H 10.957768 1.961374 -13.683864 0
M  V30 51 H 9.891849 -0.097589 -14.604458 0
M  V30 52 H 9.833913 4.126918 -17.248583 0
M  V30 END ATOM
M  V30 BEGIN BOND
M  V30 1 2 2 1
M  V30 2 2 3 2
M  V30 3 1 4 2
M  V30 4 1 5 4
M  V30 5 1 6 5
M  V30 6 1 7 6
M  V30 7 1 8 7
M  V30 8 1 9 8
M  V30 9 1 10 9
M  V30 10 1 11 10
M  V30 11 1 12 11
M  V30 12 2 13 12
M  V30 13 1 14 13
M  V30 14 1 15 14
M  V30 15 2 16 15
M  V30 16 1 17 16
M  V30 17 2 18 17
M  V30 18 1 19 18
M  V30 19 1 20 12
M  V30 20 1 20 15
M  V30 21 2 20 19
M  V30 22 1 21 11
M  V30 23 1 22 8
M  V30 24 1 22 21
M  V30 25 1 23 2
M  V30 26 1 24 23
M  V30 27 2 25 24
M  V30 28 1 26 25
M  V30 29 1 27 26
M  V30 30 2 28 26
M  V30 31 1 29 28
M  V30 32 2 30 23
M  V30 33 1 30 28
M  V30 34 1 31 4
M  V30 35 1 32 5
M  V30 36 1 33 5
M  V30 37 1 34 6
M  V30 38 1 35 6
M  V30 39 1 36 7
M  V30 40 1 37 7
M  V30 41 1 38 9
M  V30 42 1 39 9
M  V30 43 1 40 10
M  V30 44 1 41 10
M  V30 45 1 42 16
M  V30 46 1 43 17
M  V30 47 1 44 18
M  V30 48 1 45 19
M  V30 49 1 46 21
M  V30 50 1 47 21
M  V30 51 1 48 22
M  V30 52 1 49 22
M  V30 53 1 50 24
M  V30 54 1 51 25
M  V30 55 1 52 30
M  V30 END BOND
M  V30 END CTAB
M  END
>  <b_m_subgroup_collapsed>  (1739) 
0

>  <r_i_docking_score>  (1739) 
-6.7467090941974002

>  <s_m_subgroup_title>  (1739) 
glide-dock_SP_D22_pv

>  <s_m_subgroupid>  (1739) 
glide-dock_SP_D22_pv

>  <Molecule ChEMBL ID>  (1739) 
CHEMBL3289971

>  <Standard Type>  (1739) 
Ki

>  <Standard Value>  (1739) 
10000.0

>  <label>  (1739) 
0

$$$$
CHEMBL300555
     RDKit          3D

  0  0  0  0  0  0  0  0  0  0999 V3000
M  V30 BEGIN CTAB
M  V30 COUNTS 54 58 0 0 1
M  V30 BEGIN ATOM
M  V30 1 O 11.581550 6.972542 -12.581639 0
M  V30 2 C 10.772779 6.172018 -13.047007 0
M  V30 3 N 10.974757 5.473156 -14.153245 0
M  V30 4 C 9.858952 4.626643 -14.498557 0
M  V30 5 N 8.820423 4.972717 -13.522800 0
M  V30 6 C 7.699786 4.104125 -13.395631 0
M  V30 7 C 6.688034 4.303823 -12.424950 0
M  V30 8 C 5.622758 3.402798 -12.278368 0
M  V30 9 C 5.519734 2.274986 -13.104580 0
M  V30 10 C 6.486059 2.066857 -14.101210 0
M  V30 11 C 7.554997 2.972306 -14.246732 0
M  V30 12 C 9.378836 5.847250 -12.469485 0 CFG=2
M  V30 13 C 8.550642 7.140518 -12.191118 0
M  V30 14 C 9.162423 8.035963 -11.114884 0
M  V30 15 N 9.355178 7.277446 -9.865498 0 CFG=2 CHG=1
M  V30 16 C 9.946339 8.115952 -8.807158 0
M  V30 17 C 9.058204 8.044250 -7.583894 0 CFG=1
M  V30 18 C 8.930062 6.649458 -6.967135 0
M  V30 19 O 10.173147 6.253535 -6.396422 0
M  V30 20 C 10.784947 7.199903 -5.608783 0
M  V30 21 C 11.686073 6.811828 -4.603391 0
M  V30 22 C 12.312364 7.771894 -3.786243 0
M  V30 23 C 12.050664 9.139627 -3.979827 0
M  V30 24 C 11.142860 9.538187 -4.978625 0
M  V30 25 C 10.501324 8.569188 -5.777767 0
M  V30 26 O 9.531460 8.972397 -6.646282 0
M  V30 27 C 10.121886 6.018312 -10.031154 0
M  V30 28 C 9.530395 5.110098 -11.117466 0
M  V30 29 H 11.814399 5.533345 -14.710170 0
M  V30 30 H 10.183451 3.587411 -14.412152 0
M  V30 31 H 9.527972 4.828811 -15.519306 0
M  V30 32 H 6.689684 5.125362 -11.735440 0
M  V30 33 H 4.886300 3.589350 -11.515926 0
M  V30 34 H 4.698159 1.583645 -12.988444 0
M  V30 35 H 6.413253 1.208145 -14.752349 0
M  V30 36 H 8.261749 2.754285 -15.030979 0
M  V30 37 H 8.415936 7.768661 -13.046912 0
M  V30 38 H 7.539847 6.915033 -11.880276 0
M  V30 39 H 8.485994 8.868973 -10.919672 0
M  V30 40 H 10.095126 8.494013 -11.440224 0
M  V30 41 H 10.969841 7.821272 -8.568356 0
M  V30 42 H 10.005991 9.159899 -9.122293 0
M  V30 43 H 8.085918 8.412485 -7.873391 0
M  V30 44 H 8.128734 6.655824 -6.246819 0
M  V30 45 H 8.601706 5.907593 -7.691937 0
M  V30 46 H 11.900263 5.770649 -4.451619 0
M  V30 47 H 13.002210 7.455948 -3.019158 0
M  V30 48 H 12.530834 9.876212 -3.352137 0
M  V30 49 H 10.912400 10.586151 -5.110874 0
M  V30 50 H 10.176699 5.457090 -9.099627 0
M  V30 51 H 11.146764 6.301227 -10.244305 0
M  V30 52 H 8.574438 4.758714 -10.738667 0
M  V30 53 H 10.122211 4.204142 -11.239897 0
M  V30 54 H 8.408445 7.037800 -9.583071 0
M  V30 END ATOM
M  V30 BEGIN BOND
M  V30 1 2 2 1
M  V30 2 1 3 2
M  V30 3 1 4 3
M  V30 4 1 5 4
M  V30 5 1 6 5
M  V30 6 2 7 6
M  V30 7 1 8 7
M  V30 8 2 9 8
M  V30 9 1 10 9
M  V30 10 1 11 6
M  V30 11 2 11 10
M  V30 12 1 12 2
M  V30 13 1 12 5 CFG=3
M  V30 14 1 13 12
M  V30 15 1 14 13
M  V30 16 1 15 14
M  V30 17 1 16 15
M  V30 18 1 17 16
M  V30 19 1 18 17
M  V30 20 1 19 18
M  V30 21 1 20 19
M  V30 22 2 21 20
M  V30 23 1 22 21
M  V30 24 2 23 22
M  V30 25 1 24 23
M  V30 26 1 25 20
M  V30 27 2 25 24
M  V30 28 1 26 17
M  V30 29 1 26 25
M  V30 30 1 27 15
M  V30 31 1 28 12
M  V30 32 1 28 27
M  V30 33 1 29 3
M  V30 34 1 30 4
M  V30 35 1 31 4
M  V30 36 1 32 7
M  V30 37 1 33 8
M  V30 38 1 34 9
M  V30 39 1 35 10
M  V30 40 1 36 11
M  V30 41 1 37 13
M  V30 42 1 38 13
M  V30 43 1 39 14
M  V30 44 1 40 14
M  V30 45 1 41 16
M  V30 46 1 42 16
M  V30 47 1 17 43 CFG=3
M  V30 48 1 44 18
M  V30 49 1 45 18
M  V30 50 1 46 21
M  V30 51 1 47 22
M  V30 52 1 48 23
M  V30 53 1 49 24
M  V30 54 1 50 27
M  V30 55 1 51 27
M  V30 56 1 52 28
M  V30 57 1 53 28
M  V30 58 1 15 54 CFG=1
M  V30 END BOND
M  V30 END CTAB
M  END
>  <b_m_subgroup_collapsed>  (1740) 
0

>  <r_i_docking_score>  (1740) 
-6.7444142230939601

>  <s_m_subgroup_title>  (1740) 
glide-dock_SP_D22_pv

>  <s_m_subgroupid>  (1740) 
glide-dock_SP_D22_pv

>  <Molecule ChEMBL ID>  (1740) 
CHEMBL300555

>  <Standard Type>  (1740) 
Ki

>  <Standard Value>  (1740) 
6.711

>  <label>  (1740) 
1

$$$$
CHEMBL272853
     RDKit          3D

  0  0  0  0  0  0  0  0  0  0999 V3000
M  V30 BEGIN CTAB
M  V30 COUNTS 50 53 0 0 1
M  V30 BEGIN ATOM
M  V30 1 F 12.486074 6.416573 -1.972987 0
M  V30 2 C 11.622132 7.278329 -2.492475 0
M  V30 3 C 12.356017 8.294721 -3.386347 0
M  V30 4 O 11.469845 9.009913 -4.249686 0
M  V30 5 C 11.145931 8.433962 -5.461793 0
M  V30 6 C 10.660435 9.266301 -6.491582 0
M  V30 7 C 10.360147 8.741302 -7.768076 0
M  V30 8 C 10.549885 7.368811 -8.041009 0
M  V30 9 N 10.293199 6.799441 -9.302238 0
M  V30 10 C 9.687025 5.474082 -9.387019 0
M  V30 11 C 8.399627 5.544707 -10.204386 0
M  V30 12 N 8.625297 6.189325 -11.524448 0 CHG=1
M  V30 13 C 7.419641 6.177041 -12.388230 0
M  V30 14 C 7.087519 4.797624 -12.860774 0
M  V30 15 C 5.991232 4.023250 -12.407517 0
M  V30 16 C 6.085754 2.843151 -13.085014 0
M  V30 17 C 5.364791 1.623464 -13.111727 0
M  V30 18 C 5.804564 0.596441 -13.917521 0
M  V30 19 C 6.966462 0.756956 -14.717455 0
M  V30 20 C 7.665843 1.942954 -14.701417 0
M  V30 21 N 7.230974 2.954285 -13.898737 0
M  V30 22 N 7.837718 4.175785 -13.743711 0
M  V30 23 C 9.210027 7.552011 -11.382110 0
M  V30 24 C 10.500712 7.533144 -10.543717 0
M  V30 25 C 11.015771 6.547501 -7.004075 0
M  V30 26 C 11.286141 7.054162 -5.729557 0
M  V30 27 H 11.114100 7.772363 -1.668627 0
M  V30 28 H 10.890390 6.671286 -3.022906 0
M  V30 29 H 13.145126 7.802160 -3.961430 0
M  V30 30 H 12.870542 9.017695 -2.753163 0
M  V30 31 H 10.528909 10.323087 -6.305152 0
M  V30 32 H 9.977793 9.395335 -8.534106 0
M  V30 33 H 10.388866 4.780886 -9.845584 0
M  V30 34 H 9.442606 5.071498 -8.404883 0
M  V30 35 H 7.983454 4.544218 -10.320233 0
M  V30 36 H 7.684386 6.130161 -9.634679 0
M  V30 37 H 6.564748 6.572941 -11.848244 0
M  V30 38 H 7.582146 6.828945 -13.246341 0
M  V30 39 H 5.266214 4.308669 -11.660010 0
M  V30 40 H 4.486207 1.515042 -12.491790 0
M  V30 41 H 5.261259 -0.342931 -13.940744 0
M  V30 42 H 7.305831 -0.062051 -15.343711 0
M  V30 43 H 8.564882 2.118894 -15.281143 0
M  V30 44 H 9.425823 7.976446 -12.361616 0
M  V30 45 H 8.486292 8.217970 -10.910847 0
M  V30 46 H 10.858981 8.547284 -10.364665 0
M  V30 47 H 11.290462 7.030393 -11.101423 0
M  V30 48 H 11.200091 5.497729 -7.181650 0
M  V30 49 H 11.663203 6.359961 -4.997127 0
M  V30 50 H 9.310727 5.627286 -12.008408 0
M  V30 END ATOM
M  V30 BEGIN BOND
M  V30 1 1 2 1
M  V30 2 1 3 2
M  V30 3 1 4 3
M  V30 4 1 5 4
M  V30 5 1 6 5
M  V30 6 2 7 6
M  V30 7 1 8 7
M  V30 8 1 9 8
M  V30 9 1 10 9
M  V30 10 1 11 10
M  V30 11 1 12 11
M  V30 12 1 13 12
M  V30 13 1 14 13
M  V30 14 1 15 14
M  V30 15 2 16 15
M  V30 16 1 17 16
M  V30 17 2 18 17
M  V30 18 1 19 18
M  V30 19 2 20 19
M  V30 20 1 21 16
M  V30 21 1 21 20
M  V30 22 2 22 14
M  V30 23 1 22 21
M  V30 24 1 23 12
M  V30 25 1 24 9
M  V30 26 1 24 23
M  V30 27 2 25 8
M  V30 28 2 26 5
M  V30 29 1 26 25
M  V30 30 1 27 2
M  V30 31 1 28 2
M  V30 32 1 29 3
M  V30 33 1 30 3
M  V30 34 1 31 6
M  V30 35 1 32 7
M  V30 36 1 33 10
M  V30 37 1 34 10
M  V30 38 1 35 11
M  V30 39 1 36 11
M  V30 40 1 37 13
M  V30 41 1 38 13
M  V30 42 1 39 15
M  V30 43 1 40 17
M  V30 44 1 41 18
M  V30 45 1 42 19
M  V30 46 1 43 20
M  V30 47 1 44 23
M  V30 48 1 45 23
M  V30 49 1 46 24
M  V30 50 1 47 24
M  V30 51 1 48 25
M  V30 52 1 49 26
M  V30 53 1 50 12
M  V30 END BOND
M  V30 END CTAB
M  END
>  <b_m_subgroup_collapsed>  (1741) 
0

>  <r_i_docking_score>  (1741) 
-6.7441834006204102

>  <s_m_subgroup_title>  (1741) 
glide-dock_SP_D22_pv

>  <s_m_subgroupid>  (1741) 
glide-dock_SP_D22_pv

>  <Molecule ChEMBL ID>  (1741) 
CHEMBL272853

>  <Standard Type>  (1741) 
Ki

>  <Standard Value>  (1741) 
30000.0

>  <label>  (1741) 
0

$$$$
CHEMBL4099997
     RDKit          3D

  0  0  0  0  0  0  0  0  0  0999 V3000
M  V30 BEGIN CTAB
M  V30 COUNTS 63 66 0 0 1
M  V30 BEGIN ATOM
M  V30 1 C 12.319332 6.128176 -2.327286 0
M  V30 2 C 12.085578 7.382666 -3.100866 0
M  V30 3 C 12.260830 8.614333 -2.455684 0
M  V30 4 C 11.953281 9.791231 -3.142298 0
M  V30 5 C 11.457152 9.757850 -4.455872 0
M  V30 6 C 11.289075 8.517278 -5.096330 0
M  V30 7 S 10.649707 8.523109 -6.761422 0
M  V30 8 O 11.286173 9.647756 -7.454723 0
M  V30 9 O 9.185832 8.408306 -6.689110 0
M  V30 10 N 11.276020 7.080965 -7.458336 0
M  V30 11 C 10.390288 5.974640 -7.829096 0
M  V30 12 C 9.751139 6.207368 -9.204676 0
M  V30 13 C 8.916423 5.003130 -9.672093 0
M  V30 14 C 8.345387 5.160269 -11.094130 0
M  V30 15 N 9.383263 4.955258 -12.143344 0 CFG=1 CHG=1
M  V30 16 C 9.583939 3.530737 -12.506613 0
M  V30 17 C 10.493669 3.335715 -13.701909 0
M  V30 18 C 10.909657 4.321814 -14.514275 0
M  V30 19 C 11.738245 4.026760 -15.700730 0
M  V30 20 C 12.733018 4.832595 -16.196484 0
M  V30 21 C 13.255656 6.156646 -15.736935 0
M  V30 22 N 13.271958 4.192936 -17.302361 0
M  V30 23 C 12.654496 2.976026 -17.533873 0
M  V30 24 C 12.862343 1.987719 -18.513880 0
M  V30 25 C 12.069553 0.824494 -18.503376 0
M  V30 26 C 11.071568 0.667437 -17.523439 0
M  V30 27 Cl 10.087396 -0.749835 -17.515686 0
M  V30 28 C 10.866718 1.665277 -16.549923 0
M  V30 29 C 11.659735 2.841121 -16.518913 0
M  V30 30 C 10.413145 5.732480 -14.258349 0
M  V30 31 C 9.162794 5.772266 -13.351758 0
M  V30 32 C 11.626313 7.319575 -4.432936 0
M  V30 33 H 11.346949 5.772560 -1.987248 0
M  V30 34 H 12.802765 5.374083 -2.951100 0
M  V30 35 H 12.929788 6.294274 -1.446899 0
M  V30 36 H 12.607137 8.668298 -1.433793 0
M  V30 37 H 12.085299 10.743579 -2.646846 0
M  V30 38 H 11.208803 10.675551 -4.970084 0
M  V30 39 H 12.065227 7.242184 -8.082778 0
M  V30 40 H 9.629571 5.839321 -7.056918 0
M  V30 41 H 10.984428 5.064917 -7.850999 0
M  V30 42 H 10.532075 6.420362 -9.934733 0
M  V30 43 H 9.113610 7.092920 -9.171180 0
M  V30 44 H 8.086270 4.873857 -8.976912 0
M  V30 45 H 9.516038 4.095468 -9.597631 0
M  V30 46 H 7.896656 6.153567 -11.172379 0
M  V30 47 H 7.523739 4.456971 -11.246517 0
M  V30 48 H 8.632197 3.098430 -12.803258 0
M  V30 49 H 9.989355 2.982623 -11.658390 0
M  V30 50 H 10.805223 2.315219 -13.876567 0
M  V30 51 H 13.374149 6.172451 -14.654206 0
M  V30 52 H 14.230471 6.376192 -16.174429 0
M  V30 53 H 12.571220 6.959280 -16.014997 0
M  V30 54 H 14.029099 4.584057 -17.845093 0
M  V30 55 H 13.627379 2.118696 -19.264181 0
M  V30 56 H 12.224863 0.059431 -19.249443 0
M  V30 57 H 10.083431 1.521395 -15.822197 0
M  V30 58 H 11.217377 6.325975 -13.825090 0
M  V30 59 H 10.177813 6.171124 -15.229014 0
M  V30 60 H 8.950710 6.797822 -13.046093 0
M  V30 61 H 8.282090 5.410270 -13.886422 0
M  V30 62 H 11.484494 6.364562 -4.916214 0
M  V30 63 H 10.248804 5.289723 -11.748526 0
M  V30 END ATOM
M  V30 BEGIN BOND
M  V30 1 1 2 1
M  V30 2 1 3 2
M  V30 3 2 4 3
M  V30 4 1 5 4
M  V30 5 2 6 5
M  V30 6 1 7 6
M  V30 7 2 8 7
M  V30 8 2 9 7
M  V30 9 1 10 7
M  V30 10 1 11 10
M  V30 11 1 12 11
M  V30 12 1 13 12
M  V30 13 1 14 13
M  V30 14 1 15 14
M  V30 15 1 16 15
M  V30 16 1 17 16
M  V30 17 2 18 17
M  V30 18 1 19 18
M  V30 19 2 20 19
M  V30 20 1 21 20
M  V30 21 1 22 20
M  V30 22 1 23 22
M  V30 23 1 24 23
M  V30 24 2 25 24
M  V30 25 1 26 25
M  V30 26 1 27 26
M  V30 27 2 28 26
M  V30 28 1 29 19
M  V30 29 2 29 23
M  V30 30 1 29 28
M  V30 31 1 30 18
M  V30 32 1 31 15
M  V30 33 1 31 30
M  V30 34 2 32 2
M  V30 35 1 32 6
M  V30 36 1 33 1
M  V30 37 1 34 1
M  V30 38 1 35 1
M  V30 39 1 36 3
M  V30 40 1 37 4
M  V30 41 1 38 5
M  V30 42 1 39 10
M  V30 43 1 40 11
M  V30 44 1 41 11
M  V30 45 1 42 12
M  V30 46 1 43 12
M  V30 47 1 44 13
M  V30 48 1 45 13
M  V30 49 1 46 14
M  V30 50 1 47 14
M  V30 51 1 48 16
M  V30 52 1 49 16
M  V30 53 1 50 17
M  V30 54 1 51 21
M  V30 55 1 52 21
M  V30 56 1 53 21
M  V30 57 1 54 22
M  V30 58 1 55 24
M  V30 59 1 56 25
M  V30 60 1 57 28
M  V30 61 1 58 30
M  V30 62 1 59 30
M  V30 63 1 60 31
M  V30 64 1 61 31
M  V30 65 1 62 32
M  V30 66 1 15 63 CFG=1
M  V30 END BOND
M  V30 END CTAB
M  END
>  <b_m_subgroup_collapsed>  (1742) 
0

>  <r_i_docking_score>  (1742) 
-6.74339954567332

>  <s_m_subgroup_title>  (1742) 
glide-dock_SP_D22_pv

>  <s_m_subgroupid>  (1742) 
glide-dock_SP_D22_pv

>  <Molecule ChEMBL ID>  (1742) 
CHEMBL4099997

>  <Standard Type>  (1742) 
Ki

>  <Standard Value>  (1742) 
56.0

>  <label>  (1742) 
1

$$$$
CHEMBL63321
     RDKit          3D

  0  0  0  0  0  0  0  0  0  0999 V3000
M  V30 BEGIN CTAB
M  V30 COUNTS 39 41 0 0 1
M  V30 BEGIN ATOM
M  V30 1 C 8.840233 5.954815 -10.463575 0
M  V30 2 N 8.309332 5.543375 -11.787278 0 CFG=2 CHG=1
M  V30 3 C 7.061905 4.749193 -11.638214 0
M  V30 4 C 6.311661 4.443707 -12.945366 0
M  V30 5 C 6.923278 3.286861 -13.717776 0
M  V30 6 C 6.187873 2.087545 -13.844576 0
M  V30 7 C 6.765901 0.942197 -14.423784 0
M  V30 8 Cl 5.859627 -0.524821 -14.494536 0
M  V30 9 C 8.086986 1.000707 -14.906636 0
M  V30 10 O 8.686446 -0.097886 -15.455413 0
M  V30 11 C 8.809503 2.203902 -14.815052 0
M  V30 12 C 8.241684 3.360896 -14.225391 0
M  V30 13 C 9.049074 4.658172 -14.095002 0 CFG=2
M  V30 14 C 10.271689 4.693047 -15.020141 0
M  V30 15 C 11.585096 4.468888 -14.545515 0
M  V30 16 C 12.683470 4.573664 -15.419786 0
M  V30 17 C 12.484136 4.885000 -16.777102 0
M  V30 18 C 11.182018 5.078332 -17.265083 0
M  V30 19 C 10.083362 4.972771 -16.392763 0
M  V30 20 C 9.402996 4.966218 -12.618773 0
M  V30 21 H 9.207863 5.090507 -9.904438 0
M  V30 22 H 8.087308 6.446151 -9.849499 0
M  V30 23 H 9.663149 6.662728 -10.576790 0
M  V30 24 H 7.237003 3.840777 -11.059990 0
M  V30 25 H 6.393795 5.377104 -11.052712 0
M  V30 26 H 5.281169 4.187718 -12.698159 0
M  V30 27 H 6.241900 5.336120 -13.561858 0
M  V30 28 H 5.185549 2.020881 -13.448895 0
M  V30 29 H 8.145956 -0.880241 -15.448513 0
M  V30 30 H 9.820508 2.209739 -15.192610 0
M  V30 31 H 8.417115 5.470381 -14.455275 0
M  V30 32 H 11.775613 4.231031 -13.510153 0
M  V30 33 H 13.683749 4.429674 -15.043461 0
M  V30 34 H 13.332076 4.973954 -17.440689 0
M  V30 35 H 11.024496 5.319871 -18.305317 0
M  V30 36 H 9.090364 5.138000 -16.782019 0
M  V30 37 H 10.188367 5.723517 -12.615742 0
M  V30 38 H 9.820204 4.079638 -12.135419 0
M  V30 39 H 8.019343 6.404497 -12.233385 0
M  V30 END ATOM
M  V30 BEGIN BOND
M  V30 1 1 2 1
M  V30 2 1 3 2
M  V30 3 1 4 3
M  V30 4 1 5 4
M  V30 5 1 6 5
M  V30 6 2 7 6
M  V30 7 1 8 7
M  V30 8 1 9 7
M  V30 9 1 10 9
M  V30 10 2 11 9
M  V30 11 2 12 5
M  V30 12 1 12 11
M  V30 13 1 13 12
M  V30 14 1 14 13
M  V30 15 2 15 14
M  V30 16 1 16 15
M  V30 17 2 17 16
M  V30 18 1 18 17
M  V30 19 1 19 14
M  V30 20 2 19 18
M  V30 21 1 20 2
M  V30 22 1 20 13
M  V30 23 1 21 1
M  V30 24 1 22 1
M  V30 25 1 23 1
M  V30 26 1 24 3
M  V30 27 1 25 3
M  V30 28 1 26 4
M  V30 29 1 27 4
M  V30 30 1 28 6
M  V30 31 1 29 10
M  V30 32 1 30 11
M  V30 33 1 13 31 CFG=3
M  V30 34 1 32 15
M  V30 35 1 33 16
M  V30 36 1 34 17
M  V30 37 1 35 18
M  V30 38 1 36 19
M  V30 39 1 37 20
M  V30 40 1 38 20
M  V30 41 1 2 39 CFG=3
M  V30 END BOND
M  V30 END CTAB
M  END
>  <b_m_subgroup_collapsed>  (1743) 
0

>  <r_i_docking_score>  (1743) 
-6.7421587881458596

>  <s_m_subgroup_title>  (1743) 
glide-dock_SP_D22_pv

>  <s_m_subgroupid>  (1743) 
glide-dock_SP_D22_pv

>  <Molecule ChEMBL ID>  (1743) 
CHEMBL63321

>  <Standard Type>  (1743) 
Ki

>  <Standard Value>  (1743) 
20.0

>  <label>  (1743) 
1

$$$$
CHEMBL4076527
     RDKit          3D

  0  0  0  0  0  0  0  0  0  0999 V3000
M  V30 BEGIN CTAB
M  V30 COUNTS 68 72 0 0 1
M  V30 BEGIN ATOM
M  V30 1 C 9.197111 6.683561 -6.561556 0
M  V30 2 N 10.273504 7.496163 -7.107819 0
M  V30 3 C 10.519198 7.759816 -8.404612 0
M  V30 4 S 9.541159 7.010813 -9.662574 0
M  V30 5 C 10.023212 7.899811 -11.179483 0
M  V30 6 C 10.635446 6.946862 -12.221648 0
M  V30 7 C 9.692883 5.777549 -12.579258 0
M  V30 8 N 10.311898 4.781480 -13.492600 0 CHG=1
M  V30 9 C 10.130571 5.138200 -14.928262 0
M  V30 10 C 10.708357 4.071622 -15.882961 0
M  V30 11 C 10.177497 2.644676 -15.593912 0
M  V30 12 C 10.479289 2.360193 -14.112395 0
M  V30 13 C 9.843250 3.404081 -13.177977 0
M  V30 14 C 10.904583 1.589240 -16.470783 0
M  V30 15 C 10.473826 1.618650 -17.949608 0
M  V30 16 N 9.017705 1.534879 -18.061295 0
M  V30 17 C 8.416653 0.857312 -19.142351 0
M  V30 18 C 8.964408 -0.351824 -19.634743 0
M  V30 19 C 8.318625 -1.011539 -20.695583 0
M  V30 20 C 7.145777 -0.451609 -21.231977 0
M  V30 21 C 6.671355 0.750713 -20.677263 0
M  V30 22 N 7.286620 1.390771 -19.661207 0
M  V30 23 C 8.275973 2.558809 -17.334463 0
M  V30 24 C 8.650311 2.506267 -15.851421 0
M  V30 25 N 11.556555 8.572660 -8.600395 0
M  V30 26 N 12.025311 8.867436 -7.342693 0
M  V30 27 C 11.261893 8.182428 -6.485856 0
M  V30 28 C 11.528255 8.184017 -5.050490 0
M  V30 29 C 11.686160 6.970585 -4.347006 0
M  V30 30 C 12.013459 6.973342 -2.978135 0
M  V30 31 C 12.167815 8.197573 -2.300079 0
M  V30 32 C 11.998999 9.410547 -2.993505 0
M  V30 33 C 11.684665 9.407049 -4.365173 0
M  V30 34 H 9.366515 6.439373 -5.514251 0
M  V30 35 H 8.254526 7.228370 -6.647924 0
M  V30 36 H 9.114291 5.753347 -7.122099 0
M  V30 37 H 10.709442 8.720342 -10.970785 0
M  V30 38 H 9.120814 8.361112 -11.586290 0
M  V30 39 H 11.584744 6.572711 -11.845298 0
M  V30 40 H 10.890722 7.518945 -13.111589 0
M  V30 41 H 8.757432 6.151648 -12.996631 0
M  V30 42 H 9.416296 5.256189 -11.663243 0
M  V30 43 H 10.620262 6.089342 -15.128189 0
M  V30 44 H 9.070612 5.288257 -15.138200 0
M  V30 45 H 11.795171 4.075238 -15.789640 0
M  V30 46 H 10.501210 4.362329 -16.912819 0
M  V30 47 H 10.116927 1.367537 -13.847367 0
M  V30 48 H 11.558173 2.338476 -13.947177 0
M  V30 49 H 10.086625 3.156946 -12.144635 0
M  V30 50 H 8.755254 3.366335 -13.231968 0
M  V30 51 H 10.699352 0.591491 -16.080902 0
M  V30 52 H 11.987189 1.709804 -16.401495 0
M  V30 53 H 10.977473 0.820260 -18.489975 0
M  V30 54 H 10.800155 2.547136 -18.417667 0
M  V30 55 H 9.844571 -0.798057 -19.198919 0
M  V30 56 H 8.709101 -1.940454 -21.083443 0
M  V30 57 H 6.619932 -0.930959 -22.041698 0
M  V30 58 H 5.769006 1.209340 -21.056095 0
M  V30 59 H 8.490457 3.535814 -17.765903 0
M  V30 60 H 7.199619 2.402324 -17.415489 0
M  V30 61 H 8.305549 1.551918 -15.450101 0
M  V30 62 H 8.084350 3.262947 -15.318366 0
M  V30 63 H 11.582056 6.027881 -4.865183 0
M  V30 64 H 12.137542 6.037674 -2.453153 0
M  V30 65 H 12.415072 8.208707 -1.249949 0
M  V30 66 H 12.092032 10.350195 -2.472157 0
M  V30 67 H 11.565806 10.340014 -4.896645 0
M  V30 68 H 11.308431 4.782700 -13.313581 0
M  V30 END ATOM
M  V30 BEGIN BOND
M  V30 1 1 2 1
M  V30 2 1 3 2
M  V30 3 1 4 3
M  V30 4 1 5 4
M  V30 5 1 6 5
M  V30 6 1 7 6
M  V30 7 1 8 7
M  V30 8 1 9 8
M  V30 9 1 10 9
M  V30 10 1 11 10
M  V30 11 1 12 11
M  V30 12 1 13 8
M  V30 13 1 13 12
M  V30 14 1 14 11
M  V30 15 1 15 14
M  V30 16 1 16 15
M  V30 17 1 17 16
M  V30 18 2 18 17
M  V30 19 1 19 18
M  V30 20 2 20 19
M  V30 21 1 21 20
M  V30 22 1 22 17
M  V30 23 2 22 21
M  V30 24 1 23 16
M  V30 25 1 24 11
M  V30 26 1 24 23
M  V30 27 2 25 3
M  V30 28 1 26 25
M  V30 29 1 27 2
M  V30 30 2 27 26
M  V30 31 1 28 27
M  V30 32 2 29 28
M  V30 33 1 30 29
M  V30 34 2 31 30
M  V30 35 1 32 31
M  V30 36 1 33 28
M  V30 37 2 33 32
M  V30 38 1 34 1
M  V30 39 1 35 1
M  V30 40 1 36 1
M  V30 41 1 37 5
M  V30 42 1 38 5
M  V30 43 1 39 6
M  V30 44 1 40 6
M  V30 45 1 41 7
M  V30 46 1 42 7
M  V30 47 1 43 9
M  V30 48 1 44 9
M  V30 49 1 45 10
M  V30 50 1 46 10
M  V30 51 1 47 12
M  V30 52 1 48 12
M  V30 53 1 49 13
M  V30 54 1 50 13
M  V30 55 1 51 14
M  V30 56 1 52 14
M  V30 57 1 53 15
M  V30 58 1 54 15
M  V30 59 1 55 18
M  V30 60 1 56 19
M  V30 61 1 57 20
M  V30 62 1 58 21
M  V30 63 1 59 23
M  V30 64 1 60 23
M  V30 65 1 61 24
M  V30 66 1 62 24
M  V30 67 1 63 29
M  V30 68 1 64 30
M  V30 69 1 65 31
M  V30 70 1 66 32
M  V30 71 1 67 33
M  V30 72 1 68 8
M  V30 END BOND
M  V30 END CTAB
M  END
>  <b_m_subgroup_collapsed>  (1744) 
0

>  <r_i_docking_score>  (1744) 
-6.7419494148127503

>  <s_m_subgroup_title>  (1744) 
glide-dock_SP_D22_pv

>  <s_m_subgroupid>  (1744) 
glide-dock_SP_D22_pv

>  <Molecule ChEMBL ID>  (1744) 
CHEMBL4076527

>  <Standard Type>  (1744) 
Ki

>  <Standard Value>  (1744) 
83671.0

>  <label>  (1744) 
0

$$$$
CHEMBL3085819
     RDKit          3D

  0  0  0  0  0  0  0  0  0  0999 V3000
M  V30 BEGIN CTAB
M  V30 COUNTS 52 54 0 0 1
M  V30 BEGIN ATOM
M  V30 1 C 12.331986 9.386027 -3.723890 0
M  V30 2 C 11.685957 8.167912 -4.365180 0
M  V30 3 O 11.921402 7.045613 -3.921836 0
M  V30 4 N 10.886624 8.394879 -5.422542 0
M  V30 5 C 10.261024 7.354237 -6.239111 0 CFG=1
M  V30 6 C 9.053323 7.906524 -7.025013 0
M  V30 7 C 9.457490 8.852382 -8.177033 0
M  V30 8 C 10.543139 8.263048 -9.111246 0 CFG=2
M  V30 9 C 10.035620 7.119644 -10.014830 0
M  V30 10 C 9.199236 7.540974 -11.232253 0
M  V30 11 N 8.486182 6.367779 -11.802508 0 CFG=1 CHG=1
M  V30 12 C 7.320605 6.708801 -12.645711 0
M  V30 13 C 6.434813 5.462021 -12.787399 0
M  V30 14 C 7.229469 4.289086 -13.331150 0
M  V30 15 C 6.565795 3.221153 -13.967429 0
M  V30 16 C 7.303778 2.157754 -14.524934 0
M  V30 17 C 8.711393 2.149380 -14.432569 0
M  V30 18 C 9.476583 1.050284 -15.000651 0
M  V30 19 N 10.085494 0.173851 -15.450309 0
M  V30 20 C 9.373678 3.205929 -13.772568 0
M  V30 21 C 8.639592 4.271220 -13.206906 0
M  V30 22 C 9.383540 5.397604 -12.491871 0
M  V30 23 C 11.735672 7.783459 -8.263617 0
M  V30 24 C 11.290493 6.747132 -7.207300 0
M  V30 25 H 13.113154 9.772000 -4.377976 0
M  V30 26 H 11.597857 10.171946 -3.546137 0
M  V30 27 H 12.789291 9.125730 -2.766542 0
M  V30 28 H 10.756448 9.348809 -5.719795 0
M  V30 29 H 9.899076 6.570348 -5.570980 0
M  V30 30 H 8.368067 8.417914 -6.350053 0
M  V30 31 H 8.485331 7.070065 -7.432978 0
M  V30 32 H 9.837952 9.772211 -7.734800 0
M  V30 33 H 8.572722 9.140183 -8.745729 0
M  V30 34 H 10.904313 9.060098 -9.763630 0
M  V30 35 H 9.461030 6.411091 -9.417810 0
M  V30 36 H 10.898918 6.570731 -10.385684 0
M  V30 37 H 9.822097 8.017185 -11.990373 0
M  V30 38 H 8.486149 8.299564 -10.919669 0
M  V30 39 H 6.736344 7.533291 -12.246925 0
M  V30 40 H 7.686040 7.042240 -13.612839 0
M  V30 41 H 5.588875 5.671225 -13.443336 0
M  V30 42 H 6.018134 5.184646 -11.817166 0
M  V30 43 H 5.489567 3.225619 -14.047966 0
M  V30 44 H 6.785080 1.349088 -15.018999 0
M  V30 45 H 10.451221 3.196082 -13.689939 0
M  V30 46 H 10.067216 4.948263 -11.771013 0
M  V30 47 H 9.993662 5.921999 -13.230845 0
M  V30 48 H 12.509504 7.373730 -8.909473 0
M  V30 49 H 12.202874 8.636864 -7.771670 0
M  V30 50 H 12.141094 6.360069 -6.651677 0
M  V30 51 H 10.863480 5.871535 -7.693406 0
M  V30 52 H 8.075603 5.897652 -11.007010 0
M  V30 END ATOM
M  V30 BEGIN BOND
M  V30 1 1 2 1
M  V30 2 2 3 2
M  V30 3 1 4 2
M  V30 4 1 5 4
M  V30 5 1 6 5
M  V30 6 1 7 6
M  V30 7 1 8 7
M  V30 8 1 9 8
M  V30 9 1 10 9
M  V30 10 1 11 10
M  V30 11 1 12 11
M  V30 12 1 13 12
M  V30 13 1 14 13
M  V30 14 1 15 14
M  V30 15 2 16 15
M  V30 16 1 17 16
M  V30 17 1 18 17
M  V30 18 3 19 18
M  V30 19 2 20 17
M  V30 20 2 21 14
M  V30 21 1 21 20
M  V30 22 1 22 11
M  V30 23 1 22 21
M  V30 24 1 23 8
M  V30 25 1 24 5
M  V30 26 1 24 23
M  V30 27 1 25 1
M  V30 28 1 26 1
M  V30 29 1 27 1
M  V30 30 1 28 4
M  V30 31 1 5 29 CFG=1
M  V30 32 1 30 6
M  V30 33 1 31 6
M  V30 34 1 32 7
M  V30 35 1 33 7
M  V30 36 1 8 34 CFG=3
M  V30 37 1 35 9
M  V30 38 1 36 9
M  V30 39 1 37 10
M  V30 40 1 38 10
M  V30 41 1 39 12
M  V30 42 1 40 12
M  V30 43 1 41 13
M  V30 44 1 42 13
M  V30 45 1 43 15
M  V30 46 1 44 16
M  V30 47 1 45 20
M  V30 48 1 46 22
M  V30 49 1 47 22
M  V30 50 1 48 23
M  V30 51 1 49 23
M  V30 52 1 50 24
M  V30 53 1 51 24
M  V30 54 1 11 52 CFG=1
M  V30 END BOND
M  V30 END CTAB
M  END
>  <b_m_subgroup_collapsed>  (1745) 
0

>  <r_i_docking_score>  (1745) 
-6.7416365999840604

>  <s_m_subgroup_title>  (1745) 
glide-dock_SP_D22_pv

>  <s_m_subgroupid>  (1745) 
glide-dock_SP_D22_pv

>  <Molecule ChEMBL ID>  (1745) 
CHEMBL3085819

>  <Standard Type>  (1745) 
Ki

>  <Standard Value>  (1745) 
23.44

>  <label>  (1745) 
1

$$$$
CHEMBL4572887
     RDKit          3D

  0  0  0  0  0  0  0  0  0  0999 V3000
M  V30 BEGIN CTAB
M  V30 COUNTS 59 62 0 0 1
M  V30 BEGIN ATOM
M  V30 1 N 12.485854 9.087217 -1.937019 0
M  V30 2 C 12.047376 8.663922 -3.175031 0
M  V30 3 N 11.583819 9.460539 -4.139350 0
M  V30 4 C 11.287704 8.751440 -5.309455 0
M  V30 5 C 11.550207 7.410368 -5.213846 0
M  V30 6 S 12.085598 6.972136 -3.609886 0
M  V30 7 C 11.455137 6.398898 -6.307588 0
M  V30 8 C 10.103363 6.349487 -7.024506 0
M  V30 9 N 9.890508 7.522375 -7.911096 0 CFG=1 CHG=1
M  V30 10 C 8.915155 7.215040 -8.989100 0
M  V30 11 C 9.523673 6.472953 -10.198414 0
M  V30 12 C 8.462215 6.337655 -11.303508 0
M  V30 13 C 8.946299 5.795584 -12.656533 0
M  V30 14 N 8.529640 4.414759 -12.894711 0
M  V30 15 C 7.124329 4.397953 -13.329678 0
M  V30 16 C 6.623187 2.974709 -13.607803 0
M  V30 17 N 7.525505 2.285192 -14.529963 0
M  V30 18 C 7.063838 1.333167 -15.461241 0
M  V30 19 C 7.593431 1.390890 -16.771618 0
M  V30 20 C 7.165822 0.496389 -17.767729 0
M  V30 21 C 6.191772 -0.470123 -17.467445 0
M  V30 22 C 5.656795 -0.549943 -16.169382 0
M  V30 23 Cl 4.458833 -1.749138 -15.846304 0
M  V30 24 C 6.088532 0.338929 -15.156485 0
M  V30 25 Cl 5.414452 0.171964 -13.567612 0
M  V30 26 C 8.960850 2.406366 -14.278071 0
M  V30 27 C 9.336945 3.871746 -13.991976 0
M  V30 28 C 9.545737 8.773821 -7.172961 0
M  V30 29 C 10.763947 9.463179 -6.518465 0
M  V30 30 H 12.785435 10.050797 -1.847162 0
M  V30 31 H 12.984376 8.439907 -1.349136 0
M  V30 32 H 12.233790 6.573918 -7.046996 0
M  V30 33 H 11.687303 5.422940 -5.899167 0
M  V30 34 H 9.280259 6.243826 -6.315556 0
M  V30 35 H 10.095577 5.445220 -7.631930 0
M  V30 36 H 8.499002 8.145431 -9.371391 0
M  V30 37 H 8.086206 6.639813 -8.578189 0
M  V30 38 H 9.885200 5.483571 -9.918589 0
M  V30 39 H 10.378356 7.031276 -10.581531 0
M  V30 40 H 8.086028 7.338282 -11.505751 0
M  V30 41 H 7.610996 5.771111 -10.924613 0
M  V30 42 H 10.030023 5.901342 -12.723071 0
M  V30 43 H 8.507273 6.412709 -13.445643 0
M  V30 44 H 7.018744 4.972057 -14.246156 0
M  V30 45 H 6.479095 4.865087 -12.585749 0
M  V30 46 H 5.634835 3.038711 -14.065607 0
M  V30 47 H 6.485836 2.437043 -12.670675 0
M  V30 48 H 8.328453 2.140088 -17.027914 0
M  V30 49 H 7.581679 0.554268 -18.762924 0
M  V30 50 H 5.856971 -1.156201 -18.231155 0
M  V30 51 H 9.259992 1.770336 -13.446775 0
M  V30 52 H 9.541956 2.054154 -15.130677 0
M  V30 53 H 9.208271 4.474785 -14.892765 0
M  V30 54 H 10.394349 3.919550 -13.726665 0
M  V30 55 H 9.131428 9.499676 -7.873005 0
M  V30 56 H 8.753757 8.584326 -6.445107 0
M  V30 57 H 11.560785 9.574937 -7.254040 0
M  V30 58 H 10.487612 10.480384 -6.238697 0
M  V30 59 H 10.760376 7.706317 -8.388740 0
M  V30 END ATOM
M  V30 BEGIN BOND
M  V30 1 1 2 1
M  V30 2 2 3 2
M  V30 3 1 4 3
M  V30 4 2 5 4
M  V30 5 1 6 2
M  V30 6 1 6 5
M  V30 7 1 7 5
M  V30 8 1 8 7
M  V30 9 1 9 8
M  V30 10 1 10 9
M  V30 11 1 11 10
M  V30 12 1 12 11
M  V30 13 1 13 12
M  V30 14 1 14 13
M  V30 15 1 15 14
M  V30 16 1 16 15
M  V30 17 1 17 16
M  V30 18 1 18 17
M  V30 19 2 19 18
M  V30 20 1 20 19
M  V30 21 2 21 20
M  V30 22 1 22 21
M  V30 23 1 23 22
M  V30 24 1 24 18
M  V30 25 2 24 22
M  V30 26 1 25 24
M  V30 27 1 26 17
M  V30 28 1 27 14
M  V30 29 1 27 26
M  V30 30 1 28 9
M  V30 31 1 29 4
M  V30 32 1 29 28
M  V30 33 1 30 1
M  V30 34 1 31 1
M  V30 35 1 32 7
M  V30 36 1 33 7
M  V30 37 1 34 8
M  V30 38 1 35 8
M  V30 39 1 36 10
M  V30 40 1 37 10
M  V30 41 1 38 11
M  V30 42 1 39 11
M  V30 43 1 40 12
M  V30 44 1 41 12
M  V30 45 1 42 13
M  V30 46 1 43 13
M  V30 47 1 44 15
M  V30 48 1 45 15
M  V30 49 1 46 16
M  V30 50 1 47 16
M  V30 51 1 48 19
M  V30 52 1 49 20
M  V30 53 1 50 21
M  V30 54 1 51 26
M  V30 55 1 52 26
M  V30 56 1 53 27
M  V30 57 1 54 27
M  V30 58 1 55 28
M  V30 59 1 56 28
M  V30 60 1 57 29
M  V30 61 1 58 29
M  V30 62 1 9 59 CFG=3
M  V30 END BOND
M  V30 END CTAB
M  END
>  <b_m_subgroup_collapsed>  (1746) 
0

>  <r_i_docking_score>  (1746) 
-6.7399072864229703

>  <s_m_subgroup_title>  (1746) 
glide-dock_SP_D22_pv

>  <s_m_subgroupid>  (1746) 
glide-dock_SP_D22_pv

>  <Molecule ChEMBL ID>  (1746) 
CHEMBL4572887

>  <Standard Type>  (1746) 
Ki

>  <Standard Value>  (1746) 
22.39

>  <label>  (1746) 
1

$$$$
CHEMBL417001
     RDKit          3D

  0  0  0  0  0  0  0  0  0  0999 V3000
M  V30 BEGIN CTAB
M  V30 COUNTS 42 43 0 0 1
M  V30 BEGIN ATOM
M  V30 1 N 12.486349 8.972399 -1.447134 0
M  V30 2 C 12.185915 8.759027 -2.539693 0
M  V30 3 C 11.813517 8.466976 -3.906284 0
M  V30 4 C 11.685361 7.118842 -4.274272 0
M  V30 5 C 11.356038 6.798481 -5.596945 0
M  V30 6 C 11.203611 7.794227 -6.571049 0
M  V30 7 O 11.052172 7.334039 -7.850581 0
M  V30 8 C 10.374355 8.129050 -8.799049 0
M  V30 9 C 9.928440 7.123837 -9.873741 0 CFG=1
M  V30 10 C 8.965410 6.072261 -9.283639 0
M  V30 11 C 8.490688 5.080085 -10.350423 0
M  V30 12 N 7.802557 5.798541 -11.449776 0 CFG=2 CHG=1
M  V30 13 C 7.188076 4.899590 -12.459650 0
M  V30 14 C 5.993879 4.087168 -11.932117 0
M  V30 15 C 5.273227 3.325629 -13.049735 0
M  V30 16 F 6.094766 2.460833 -13.642602 0
M  V30 17 C 8.703740 6.798556 -12.087768 0
M  V30 18 C 9.275416 7.815146 -11.077792 0
M  V30 19 C 11.290306 9.154718 -6.196551 0
M  V30 20 C 11.592455 9.487899 -4.857540 0
M  V30 21 H 11.840281 6.326169 -3.554892 0
M  V30 22 H 11.282888 5.772276 -5.897395 0
M  V30 23 H 9.513653 8.638050 -8.360071 0
M  V30 24 H 11.049391 8.880896 -9.210827 0
M  V30 25 H 10.816617 6.602315 -10.234623 0
M  V30 26 H 9.449708 5.518306 -8.478623 0
M  V30 27 H 8.101899 6.566096 -8.835034 0
M  V30 28 H 7.824466 4.358474 -9.881531 0
M  V30 29 H 9.335978 4.515288 -10.747428 0
M  V30 30 H 6.831371 5.510814 -13.287060 0
M  V30 31 H 7.949140 4.233974 -12.870299 0
M  V30 32 H 6.316570 3.372319 -11.175711 0
M  V30 33 H 5.280761 4.757841 -11.451641 0
M  V30 34 H 4.433046 2.751617 -12.659823 0
M  V30 35 H 4.902090 4.002586 -13.819536 0
M  V30 36 H 8.150874 7.343303 -12.854181 0
M  V30 37 H 9.520405 6.279202 -12.591967 0
M  V30 38 H 8.486036 8.480307 -10.731577 0
M  V30 39 H 10.002078 8.457295 -11.576602 0
M  V30 40 H 11.173686 9.939995 -6.928441 0
M  V30 41 H 11.681594 10.525937 -4.574053 0
M  V30 42 H 7.063820 6.354754 -11.016270 0
M  V30 END ATOM
M  V30 BEGIN BOND
M  V30 1 3 2 1
M  V30 2 1 3 2
M  V30 3 1 4 3
M  V30 4 2 5 4
M  V30 5 1 6 5
M  V30 6 1 7 6
M  V30 7 1 8 7
M  V30 8 1 9 8
M  V30 9 1 10 9
M  V30 10 1 11 10
M  V30 11 1 12 11
M  V30 12 1 13 12
M  V30 13 1 14 13
M  V30 14 1 15 14
M  V30 15 1 16 15
M  V30 16 1 17 12
M  V30 17 1 18 9
M  V30 18 1 18 17
M  V30 19 2 19 6
M  V30 20 2 20 3
M  V30 21 1 20 19
M  V30 22 1 21 4
M  V30 23 1 22 5
M  V30 24 1 23 8
M  V30 25 1 24 8
M  V30 26 1 9 25 CFG=3
M  V30 27 1 26 10
M  V30 28 1 27 10
M  V30 29 1 28 11
M  V30 30 1 29 11
M  V30 31 1 30 13
M  V30 32 1 31 13
M  V30 33 1 32 14
M  V30 34 1 33 14
M  V30 35 1 34 15
M  V30 36 1 35 15
M  V30 37 1 36 17
M  V30 38 1 37 17
M  V30 39 1 38 18
M  V30 40 1 39 18
M  V30 41 1 40 19
M  V30 42 1 41 20
M  V30 43 1 12 42 CFG=1
M  V30 END BOND
M  V30 END CTAB
M  END
>  <b_m_subgroup_collapsed>  (1747) 
0

>  <r_i_docking_score>  (1747) 
-6.7377266348982197

>  <s_m_subgroup_title>  (1747) 
glide-dock_SP_D22_pv

>  <s_m_subgroupid>  (1747) 
glide-dock_SP_D22_pv

>  <Molecule ChEMBL ID>  (1747) 
CHEMBL417001

>  <Standard Type>  (1747) 
Ki

>  <Standard Value>  (1747) 
10000.0

>  <label>  (1747) 
0

$$$$
CHEMBL4173260
     RDKit          3D

  0  0  0  0  0  0  0  0  0  0999 V3000
M  V30 BEGIN CTAB
M  V30 COUNTS 49 51 0 0 1
M  V30 BEGIN ATOM
M  V30 1 C 6.999414 1.382088 -15.386460 0
M  V30 2 N 7.368034 2.248271 -14.246883 0 CHG=1
M  V30 3 C 6.266962 3.149953 -13.826913 0
M  V30 4 C 6.675704 3.994187 -12.607828 0
M  V30 5 N 7.894282 4.761937 -12.877659 0
M  V30 6 C 8.223067 5.457106 -11.632738 0
M  V30 7 C 9.263063 6.578399 -11.799408 0
M  V30 8 C 9.943574 6.925080 -10.465726 0
M  V30 9 C 8.968346 7.401176 -9.371670 0
M  V30 10 N 9.623929 7.551260 -8.082556 0
M  V30 11 C 10.513922 8.496719 -7.761312 0
M  V30 12 O 10.893792 9.369608 -8.535717 0
M  V30 13 C 10.986614 8.392737 -6.358023 0
M  V30 14 C 11.230374 7.211148 -5.714149 0
M  V30 15 N 11.686141 7.540474 -4.456178 0
M  V30 16 C 12.084609 6.749784 -3.429042 0
M  V30 17 C 12.483009 7.320090 -2.253133 0
M  V30 18 C 12.483701 8.723120 -2.102100 0
M  V30 19 C 12.085734 9.525480 -3.143109 0
M  V30 20 C 11.685758 8.953907 -4.379125 0
M  V30 21 N 11.274899 9.477531 -5.532388 0
M  V30 22 C 8.982030 3.840293 -13.235414 0
M  V30 23 C 8.608709 3.023483 -14.484342 0
M  V30 24 H 6.781869 1.973673 -16.275126 0
M  V30 25 H 7.809212 0.692480 -15.622790 0
M  V30 26 H 6.117145 0.786998 -15.148013 0
M  V30 27 H 5.384890 2.558024 -13.575690 0
M  V30 28 H 5.981922 3.803964 -14.646758 0
M  V30 29 H 6.810191 3.372232 -11.723625 0
M  V30 30 H 5.863514 4.684139 -12.369520 0
M  V30 31 H 8.561131 4.732725 -10.887089 0
M  V30 32 H 7.315778 5.908396 -11.223166 0
M  V30 33 H 8.781767 7.462228 -12.219876 0
M  V30 34 H 10.040434 6.295838 -12.507345 0
M  V30 35 H 10.693713 7.694971 -10.647956 0
M  V30 36 H 10.485866 6.049829 -10.107425 0
M  V30 37 H 8.177094 6.665834 -9.224500 0
M  V30 38 H 8.487959 8.339428 -9.653261 0
M  V30 39 H 9.347240 6.912897 -7.353161 0
M  V30 40 H 11.144860 6.174933 -6.011970 0
M  V30 41 H 12.064701 5.683871 -3.595863 0
M  V30 42 H 12.814954 6.675344 -1.446860 0
M  V30 43 H 12.802651 9.176923 -1.168577 0
M  V30 44 H 12.077229 10.599177 -3.029150 0
M  V30 45 H 9.888477 4.404427 -13.455017 0
M  V30 46 H 9.232039 3.177914 -12.405896 0
M  V30 47 H 9.422438 2.338906 -14.724858 0
M  V30 48 H 8.488729 3.681773 -15.343956 0
M  V30 49 H 7.558683 1.640503 -13.464805 0
M  V30 END ATOM
M  V30 BEGIN BOND
M  V30 1 1 2 1
M  V30 2 1 3 2
M  V30 3 1 4 3
M  V30 4 1 5 4
M  V30 5 1 6 5
M  V30 6 1 7 6
M  V30 7 1 8 7
M  V30 8 1 9 8
M  V30 9 1 10 9
M  V30 10 1 11 10
M  V30 11 2 12 11
M  V30 12 1 13 11
M  V30 13 2 14 13
M  V30 14 1 15 14
M  V30 15 1 16 15
M  V30 16 2 17 16
M  V30 17 1 18 17
M  V30 18 2 19 18
M  V30 19 1 20 15
M  V30 20 1 20 19
M  V30 21 1 21 13
M  V30 22 2 21 20
M  V30 23 1 22 5
M  V30 24 1 23 2
M  V30 25 1 23 22
M  V30 26 1 24 1
M  V30 27 1 25 1
M  V30 28 1 26 1
M  V30 29 1 27 3
M  V30 30 1 28 3
M  V30 31 1 29 4
M  V30 32 1 30 4
M  V30 33 1 31 6
M  V30 34 1 32 6
M  V30 35 1 33 7
M  V30 36 1 34 7
M  V30 37 1 35 8
M  V30 38 1 36 8
M  V30 39 1 37 9
M  V30 40 1 38 9
M  V30 41 1 39 10
M  V30 42 1 40 14
M  V30 43 1 41 16
M  V30 44 1 42 17
M  V30 45 1 43 18
M  V30 46 1 44 19
M  V30 47 1 45 22
M  V30 48 1 46 22
M  V30 49 1 47 23
M  V30 50 1 48 23
M  V30 51 1 49 2
M  V30 END BOND
M  V30 END CTAB
M  END
>  <b_m_subgroup_collapsed>  (1748) 
0

>  <r_i_docking_score>  (1748) 
-6.7356945526441701

>  <s_m_subgroup_title>  (1748) 
glide-dock_SP_D22_pv

>  <s_m_subgroupid>  (1748) 
glide-dock_SP_D22_pv

>  <Molecule ChEMBL ID>  (1748) 
CHEMBL4173260

>  <Standard Type>  (1748) 
Ki

>  <Standard Value>  (1748) 
10000.0

>  <label>  (1748) 
0

$$$$
CHEMBL1201343
     RDKit          3D

  0  0  0  0  0  0  0  0  0  0999 V3000
M  V30 BEGIN CTAB
M  V30 COUNTS 35 36 0 0 1
M  V30 BEGIN ATOM
M  V30 1 C 12.553301 8.620441 -2.061985 0
M  V30 2 C 12.344748 7.499114 -3.087993 0
M  V30 3 C 11.826611 8.022105 -4.434954 0
M  V30 4 N 11.591126 6.910395 -5.390174 0 CHG=1
M  V30 5 C 10.933129 7.248546 -6.681128 0 CFG=1
M  V30 6 C 9.542837 7.821681 -6.436542 0
M  V30 7 C 8.758745 7.927099 -7.725619 0
M  V30 8 C 9.447535 8.726382 -8.842029 0 CFG=2
M  V30 9 N 8.886033 8.289990 -10.131787 0 CHG=1
M  V30 10 C 9.655099 7.515334 -10.895717 0
M  V30 11 N 9.309125 6.851175 -12.003755 0
M  V30 12 S 11.298496 7.372328 -10.247787 0
M  V30 13 C 10.988837 8.546967 -8.918351 0 CFG=2
M  V30 14 C 11.725055 8.213350 -7.594845 0
M  V30 15 H 12.901226 8.222055 -1.108522 0
M  V30 16 H 11.630313 9.163572 -1.868893 0
M  V30 17 H 13.285974 9.347898 -2.409554 0
M  V30 18 H 13.286072 6.972195 -3.233654 0
M  V30 19 H 11.642839 6.770580 -2.678738 0
M  V30 20 H 10.905274 8.572287 -4.250777 0
M  V30 21 H 12.539280 8.731433 -4.856390 0
M  V30 22 H 12.473680 6.461201 -5.588861 0
M  V30 23 H 10.823246 6.299346 -7.209070 0
M  V30 24 H 8.989325 7.165945 -5.771166 0
M  V30 25 H 9.594747 8.808547 -5.977232 0
M  V30 26 H 8.486062 6.928142 -8.070648 0
M  V30 27 H 7.839532 8.442760 -7.447995 0
M  V30 28 H 9.214087 9.772321 -8.689927 0
M  V30 29 H 8.351602 6.886478 -12.328312 0
M  V30 30 H 9.984483 6.275966 -12.485954 0
M  V30 31 H 11.404495 9.486099 -9.286403 0
M  V30 32 H 11.906161 9.148688 -7.064240 0
M  V30 33 H 12.706362 7.807813 -7.846860 0
M  V30 34 H 7.850119 8.227809 -10.246863 0
M  V30 35 H 11.003278 6.228725 -4.928574 0
M  V30 END ATOM
M  V30 BEGIN BOND
M  V30 1 1 2 1
M  V30 2 1 3 2
M  V30 3 1 4 3
M  V30 4 1 5 4
M  V30 5 1 6 5
M  V30 6 1 7 6
M  V30 7 1 8 7
M  V30 8 1 9 8
M  V30 9 2 10 9
M  V30 10 1 11 10
M  V30 11 1 12 10
M  V30 12 1 13 8
M  V30 13 1 13 12
M  V30 14 1 14 5
M  V30 15 1 14 13
M  V30 16 1 15 1
M  V30 17 1 16 1
M  V30 18 1 17 1
M  V30 19 1 18 2
M  V30 20 1 19 2
M  V30 21 1 20 3
M  V30 22 1 21 3
M  V30 23 1 22 4
M  V30 24 1 5 23 CFG=3
M  V30 25 1 24 6
M  V30 26 1 25 6
M  V30 27 1 26 7
M  V30 28 1 27 7
M  V30 29 1 8 28 CFG=1
M  V30 30 1 29 11
M  V30 31 1 30 11
M  V30 32 1 13 31 CFG=3
M  V30 33 1 32 14
M  V30 34 1 33 14
M  V30 35 1 34 9
M  V30 36 1 35 4
M  V30 END BOND
M  V30 END CTAB
M  END
>  <b_m_subgroup_collapsed>  (1749) 
0

>  <r_i_docking_score>  (1749) 
-6.7349647333381002

>  <s_m_subgroup_title>  (1749) 
glide-dock_SP_D22_pv

>  <s_m_subgroupid>  (1749) 
glide-dock_SP_D22_pv

>  <Molecule ChEMBL ID>  (1749) 
CHEMBL1201343

>  <Standard Type>  (1749) 
Ki

>  <Standard Value>  (1749) 
3.9

>  <label>  (1749) 
1

$$$$
CHEMBL252430
     RDKit          3D

  0  0  0  0  0  0  0  0  0  0999 V3000
M  V30 BEGIN CTAB
M  V30 COUNTS 64 69 0 0 1
M  V30 BEGIN ATOM
M  V30 1 O 8.173928 2.514739 -18.077660 0
M  V30 2 C 9.187063 1.836598 -18.252897 0
M  V30 3 N 9.736334 1.032562 -17.322428 0
M  V30 4 C 9.262210 0.778200 -15.960252 0 CFG=2
M  V30 5 C 7.776507 0.333370 -15.880806 0
M  V30 6 C 6.987522 1.504543 -15.251776 0
M  V30 7 C 8.052000 2.381737 -14.655863 0
M  V30 8 C 7.862422 3.480756 -13.801083 0
M  V30 9 C 9.005722 4.171811 -13.337630 0
M  V30 10 C 8.865048 5.317339 -12.353545 0
M  V30 11 C 9.150201 4.860055 -10.906392 0
M  V30 12 N 9.189274 5.968787 -9.953697 0
M  V30 13 C 9.202500 5.447362 -8.579942 0
M  V30 14 C 9.266542 6.595480 -7.540853 0
M  V30 15 N 10.419683 7.458207 -7.790636 0
M  V30 16 C 10.874079 8.353603 -6.793814 0
M  V30 17 N 11.027369 9.618303 -7.117135 0
M  V30 18 S 11.599292 10.501053 -5.842446 0
M  V30 19 C 11.679510 9.152800 -4.735600 0
M  V30 20 C 12.085828 9.127914 -3.389515 0
M  V30 21 C 12.087416 7.910166 -2.691103 0
M  V30 22 C 11.696118 6.732564 -3.351776 0
M  V30 23 C 11.286229 6.771057 -4.701143 0
M  V30 24 C 11.247264 7.982300 -5.434402 0
M  V30 25 C 10.403707 7.942599 -9.170292 0
M  V30 26 C 10.401418 6.767389 -10.138253 0
M  V30 27 C 10.298546 3.782165 -13.773320 0
M  V30 28 C 10.467767 2.685496 -14.646201 0
M  V30 29 C 9.320734 1.990453 -15.065578 0
M  V30 30 C 9.930183 1.915662 -19.553320 0
M  V30 31 C 9.922731 3.107803 -20.308884 0
M  V30 32 C 10.607663 3.140478 -21.538462 0
M  V30 33 C 11.267665 1.974980 -21.971245 0
M  V30 34 N 11.272978 0.824142 -21.267097 0
M  V30 35 C 10.612420 0.800098 -20.090466 0
M  V30 36 H 10.593359 0.564748 -17.573542 0
M  V30 37 H 9.898060 0.001570 -15.533161 0
M  V30 38 H 7.356902 -0.012960 -16.825974 0
M  V30 39 H 7.717535 -0.509845 -15.190994 0
M  V30 40 H 6.255716 1.176814 -14.512768 0
M  V30 41 H 6.486019 2.079765 -16.028381 0
M  V30 42 H 6.870177 3.768256 -13.483771 0
M  V30 43 H 9.544400 6.101262 -12.681493 0
M  V30 44 H 7.861864 5.741918 -12.416346 0
M  V30 45 H 8.356693 4.172372 -10.612425 0
M  V30 46 H 10.084275 4.299144 -10.857135 0
M  V30 47 H 8.302825 4.853720 -8.407247 0
M  V30 48 H 10.056155 4.780472 -8.447550 0
M  V30 49 H 8.359401 7.197885 -7.595355 0
M  V30 50 H 9.298624 6.179585 -6.535864 0
M  V30 51 H 12.397189 10.037623 -2.896201 0
M  V30 52 H 12.396633 7.879243 -1.656618 0
M  V30 53 H 11.705835 5.792597 -2.819559 0
M  V30 54 H 10.998750 5.849036 -5.180888 0
M  V30 55 H 9.533737 8.580276 -9.336046 0
M  V30 56 H 11.290418 8.544183 -9.374465 0
M  V30 57 H 11.286031 6.172398 -9.937535 0
M  V30 58 H 10.480341 7.156442 -11.150683 0
M  V30 59 H 11.169085 4.316967 -13.421315 0
M  V30 60 H 11.451777 2.379243 -14.969125 0
M  V30 61 H 9.404469 3.987779 -19.955330 0
M  V30 62 H 10.624362 4.038855 -22.137941 0
M  V30 63 H 11.802323 1.966344 -22.909937 0
M  V30 64 H 10.634749 -0.145809 -19.568125 0
M  V30 END ATOM
M  V30 BEGIN BOND
M  V30 1 2 2 1
M  V30 2 1 3 2
M  V30 3 1 4 3
M  V30 4 1 5 4
M  V30 5 1 6 5
M  V30 6 1 7 6
M  V30 7 1 8 7
M  V30 8 2 9 8
M  V30 9 1 10 9
M  V30 10 1 11 10
M  V30 11 1 12 11
M  V30 12 1 13 12
M  V30 13 1 14 13
M  V30 14 1 15 14
M  V30 15 1 16 15
M  V30 16 2 17 16
M  V30 17 1 18 17
M  V30 18 1 19 18
M  V30 19 2 20 19
M  V30 20 1 21 20
M  V30 21 2 22 21
M  V30 22 1 23 22
M  V30 23 1 24 16
M  V30 24 1 24 19
M  V30 25 2 24 23
M  V30 26 1 25 15
M  V30 27 1 26 12
M  V30 28 1 26 25
M  V30 29 1 27 9
M  V30 30 2 28 27
M  V30 31 1 29 4
M  V30 32 2 29 7
M  V30 33 1 29 28
M  V30 34 1 30 2
M  V30 35 2 31 30
M  V30 36 1 32 31
M  V30 37 2 33 32
M  V30 38 1 34 33
M  V30 39 1 35 30
M  V30 40 2 35 34
M  V30 41 1 36 3
M  V30 42 1 4 37 CFG=1
M  V30 43 1 38 5
M  V30 44 1 39 5
M  V30 45 1 40 6
M  V30 46 1 41 6
M  V30 47 1 42 8
M  V30 48 1 43 10
M  V30 49 1 44 10
M  V30 50 1 45 11
M  V30 51 1 46 11
M  V30 52 1 47 13
M  V30 53 1 48 13
M  V30 54 1 49 14
M  V30 55 1 50 14
M  V30 56 1 51 20
M  V30 57 1 52 21
M  V30 58 1 53 22
M  V30 59 1 54 23
M  V30 60 1 55 25
M  V30 61 1 56 25
M  V30 62 1 57 26
M  V30 63 1 58 26
M  V30 64 1 59 27
M  V30 65 1 60 28
M  V30 66 1 61 31
M  V30 67 1 62 32
M  V30 68 1 63 33
M  V30 69 1 64 35
M  V30 END BOND
M  V30 END CTAB
M  END
>  <b_m_subgroup_collapsed>  (1750) 
0

>  <r_i_docking_score>  (1750) 
-6.7335842732035003

>  <s_m_subgroup_title>  (1750) 
glide-dock_SP_D22_pv

>  <s_m_subgroupid>  (1750) 
glide-dock_SP_D22_pv

>  <Molecule ChEMBL ID>  (1750) 
CHEMBL252430

>  <Standard Type>  (1750) 
Ki

>  <Standard Value>  (1750) 
5.0

>  <label>  (1750) 
1

$$$$
CHEMBL11493
     RDKit          3D

  0  0  0  0  0  0  0  0  0  0999 V3000
M  V30 BEGIN CTAB
M  V30 COUNTS 58 61 0 0 1
M  V30 BEGIN ATOM
M  V30 1 C 12.233912 8.671270 -2.869454 0
M  V30 2 C 12.026592 9.315867 -4.244224 0
M  V30 3 C 11.434212 8.340735 -5.271328 0
M  V30 4 C 11.222173 8.995059 -6.647478 0
M  V30 5 N 10.501754 8.106876 -7.598741 0 CFG=2 CHG=1
M  V30 6 C 11.295726 7.004724 -8.176833 0 CFG=2
M  V30 7 C 12.088493 7.660964 -9.328107 0
M  V30 8 C 11.230936 8.865211 -9.738842 0
M  V30 9 C 10.012544 8.786757 -8.808878 0 CFG=1
M  V30 10 C 8.898599 7.911595 -9.403766 0
M  V30 11 C 9.340724 6.472417 -9.776130 0 CFG=1
M  V30 12 O 9.929540 6.540872 -11.080820 0
M  V30 13 C 9.887818 5.401108 -11.953875 0
M  V30 14 C 10.916623 5.562191 -13.080830 0
M  V30 15 C 11.349068 4.455434 -13.846933 0
M  V30 16 C 12.318686 4.610620 -14.857503 0
M  V30 17 C 12.883128 5.874134 -15.107371 0
M  V30 18 F 13.818652 6.019947 -16.075909 0
M  V30 19 C 12.485744 6.980277 -14.334846 0
M  V30 20 C 11.516417 6.820523 -13.324817 0
M  V30 21 C 8.484035 5.057595 -12.460804 0
M  V30 22 C 7.411109 5.949649 -12.259397 0
M  V30 23 C 6.087412 5.533173 -12.480399 0
M  V30 24 C 5.822677 4.237224 -12.963038 0
M  V30 25 F 4.553691 3.773438 -13.047130 0
M  V30 26 C 6.889556 3.397703 -13.316442 0
M  V30 27 C 8.212505 3.799914 -13.047031 0
M  V30 28 C 10.308825 5.927833 -8.693290 0
M  V30 29 H 12.689606 9.377008 -2.174930 0
M  V30 30 H 11.286683 8.345750 -2.436463 0
M  V30 31 H 12.889609 7.801862 -2.935506 0
M  V30 32 H 12.981147 9.698078 -4.610483 0
M  V30 33 H 11.366719 10.176594 -4.135421 0
M  V30 34 H 10.485556 7.961923 -4.900900 0
M  V30 35 H 12.085009 7.471618 -5.352838 0
M  V30 36 H 12.178233 9.319944 -7.062255 0
M  V30 37 H 10.626233 9.897134 -6.504143 0
M  V30 38 H 11.965080 6.561552 -7.442000 0
M  V30 39 H 12.266064 6.974154 -10.157607 0
M  V30 40 H 13.063911 8.003232 -8.979099 0
M  V30 41 H 10.954764 8.864132 -10.790944 0
M  V30 42 H 11.786547 9.776923 -9.557494 0
M  V30 43 H 9.599523 9.772154 -8.587873 0
M  V30 44 H 8.486078 8.415718 -10.277178 0
M  V30 45 H 8.118750 7.848715 -8.646111 0
M  V30 46 H 8.456082 5.837871 -9.811124 0
M  V30 47 H 10.185208 4.534079 -11.365497 0
M  V30 48 H 10.969131 3.466260 -13.654991 0
M  V30 49 H 12.640721 3.758024 -15.437111 0
M  V30 50 H 12.926408 7.948329 -14.517836 0
M  V30 51 H 11.223376 7.686618 -12.751434 0
M  V30 52 H 7.582748 6.932760 -11.847469 0
M  V30 53 H 5.285841 6.203540 -12.217926 0
M  V30 54 H 6.688231 2.407638 -13.701353 0
M  V30 55 H 8.997257 3.080676 -13.209851 0
M  V30 56 H 9.715385 5.576912 -7.847753 0
M  V30 57 H 10.849145 5.053910 -9.047223 0
M  V30 58 H 9.705579 7.721725 -7.110048 0
M  V30 END ATOM
M  V30 BEGIN BOND
M  V30 1 1 2 1
M  V30 2 1 3 2
M  V30 3 1 4 3
M  V30 4 1 5 4
M  V30 5 1 6 5
M  V30 6 1 7 6
M  V30 7 1 8 7
M  V30 8 1 9 5
M  V30 9 1 9 8
M  V30 10 1 10 9
M  V30 11 1 11 10
M  V30 12 1 12 11
M  V30 13 1 13 12
M  V30 14 1 14 13
M  V30 15 1 15 14
M  V30 16 2 16 15
M  V30 17 1 17 16
M  V30 18 1 18 17
M  V30 19 2 19 17
M  V30 20 2 20 14
M  V30 21 1 20 19
M  V30 22 1 21 13
M  V30 23 1 22 21
M  V30 24 2 23 22
M  V30 25 1 24 23
M  V30 26 1 25 24
M  V30 27 2 26 24
M  V30 28 2 27 21
M  V30 29 1 27 26
M  V30 30 1 28 6
M  V30 31 1 28 11
M  V30 32 1 29 1
M  V30 33 1 30 1
M  V30 34 1 31 1
M  V30 35 1 32 2
M  V30 36 1 33 2
M  V30 37 1 34 3
M  V30 38 1 35 3
M  V30 39 1 36 4
M  V30 40 1 37 4
M  V30 41 1 6 38 CFG=1
M  V30 42 1 39 7
M  V30 43 1 40 7
M  V30 44 1 41 8
M  V30 45 1 42 8
M  V30 46 1 9 43 CFG=1
M  V30 47 1 44 10
M  V30 48 1 45 10
M  V30 49 1 11 46 CFG=3
M  V30 50 1 47 13
M  V30 51 1 48 15
M  V30 52 1 49 16
M  V30 53 1 50 19
M  V30 54 1 51 20
M  V30 55 1 52 22
M  V30 56 1 53 23
M  V30 57 1 54 26
M  V30 58 1 55 27
M  V30 59 1 56 28
M  V30 60 1 57 28
M  V30 61 1 5 58 CFG=1
M  V30 END BOND
M  V30 END CTAB
M  END
>  <b_m_subgroup_collapsed>  (1751) 
0

>  <r_i_docking_score>  (1751) 
-6.7325388633479104

>  <s_m_subgroup_title>  (1751) 
glide-dock_SP_D22_pv

>  <s_m_subgroupid>  (1751) 
glide-dock_SP_D22_pv

>  <Molecule ChEMBL ID>  (1751) 
CHEMBL11493

>  <Standard Type>  (1751) 
Ki

>  <Standard Value>  (1751) 
68.1

>  <label>  (1751) 
1

$$$$
CHEMBL5187578
     RDKit          3D

  0  0  0  0  0  0  0  0  0  0999 V3000
M  V30 BEGIN CTAB
M  V30 COUNTS 28 29 0 0 1
M  V30 BEGIN ATOM
M  V30 1 O 12.375337 7.851723 -1.945104 0
M  V30 2 C 12.086433 8.731214 -2.753629 0
M  V30 3 C 11.726868 8.477546 -4.165863 0
M  V30 4 C 11.583673 9.562990 -5.050848 0
M  V30 5 C 11.355675 9.339828 -6.420966 0
M  V30 6 C 11.238439 8.029305 -6.929846 0
M  V30 7 C 11.133572 7.798928 -8.384132 0
M  V30 8 C 12.089998 8.379730 -9.242959 0
M  V30 9 C 12.049962 8.171036 -10.632516 0
M  V30 10 C 11.033838 7.377312 -11.187815 0
M  V30 11 C 10.076150 6.784902 -10.347466 0
M  V30 12 C 10.126061 6.978073 -8.941919 0
M  V30 13 O 9.245351 6.394664 -8.061313 0
M  V30 14 C 8.486041 5.347683 -8.458617 0
M  V30 15 F 9.261049 4.251511 -8.653006 0
M  V30 16 C 11.285947 6.950649 -6.018565 0
M  V30 17 C 11.548457 7.164926 -4.650631 0
M  V30 18 H 12.086463 9.784437 -2.472409 0
M  V30 19 H 11.682432 10.572305 -4.691047 0
M  V30 20 H 11.297217 10.182269 -7.092825 0
M  V30 21 H 12.888770 8.974248 -8.827412 0
M  V30 22 H 12.798717 8.623248 -11.266853 0
M  V30 23 H 10.990870 7.217854 -12.255306 0
M  V30 24 H 9.317648 6.176520 -10.813834 0
M  V30 25 H 7.787824 5.116075 -7.657067 0
M  V30 26 H 7.927527 5.577558 -9.363814 0
M  V30 27 H 11.190678 5.938216 -6.382611 0
M  V30 28 H 11.633592 6.314629 -3.988181 0
M  V30 END ATOM
M  V30 BEGIN BOND
M  V30 1 2 2 1
M  V30 2 1 3 2
M  V30 3 1 4 3
M  V30 4 2 5 4
M  V30 5 1 6 5
M  V30 6 1 7 6
M  V30 7 2 8 7
M  V30 8 1 9 8
M  V30 9 2 10 9
M  V30 10 1 11 10
M  V30 11 1 12 7
M  V30 12 2 12 11
M  V30 13 1 13 12
M  V30 14 1 14 13
M  V30 15 1 15 14
M  V30 16 2 16 6
M  V30 17 2 17 3
M  V30 18 1 17 16
M  V30 19 1 18 2
M  V30 20 1 19 4
M  V30 21 1 20 5
M  V30 22 1 21 8
M  V30 23 1 22 9
M  V30 24 1 23 10
M  V30 25 1 24 11
M  V30 26 1 25 14
M  V30 27 1 26 14
M  V30 28 1 27 16
M  V30 29 1 28 17
M  V30 END BOND
M  V30 END CTAB
M  END
>  <b_m_subgroup_collapsed>  (1752) 
0

>  <r_i_docking_score>  (1752) 
-6.7325090481903702

>  <s_m_subgroup_title>  (1752) 
glide-dock_SP_D22_pv

>  <s_m_subgroupid>  (1752) 
glide-dock_SP_D22_pv

>  <Molecule ChEMBL ID>  (1752) 
CHEMBL5187578

>  <Standard Type>  (1752) 
Ki

>  <Standard Value>  (1752) 
5.5

>  <label>  (1752) 
1

$$$$
CHEMBL4470437
     RDKit          3D

  0  0  0  0  0  0  0  0  0  0999 V3000
M  V30 BEGIN CTAB
M  V30 COUNTS 74 79 0 0 1
M  V30 BEGIN ATOM
M  V30 1 O 8.485274 2.656040 -15.290371 0
M  V30 2 C 7.580679 1.828660 -15.139841 0
M  V30 3 C 7.367732 0.705509 -16.054909 0
M  V30 4 C 8.318092 0.522332 -17.170321 0
M  V30 5 C 7.930501 0.830465 -18.492268 0
M  V30 6 C 8.844984 0.660304 -19.549995 0
M  V30 7 C 10.148004 0.192860 -19.288815 0
M  V30 8 C 10.539557 -0.102722 -17.968641 0
M  V30 9 C 9.628650 0.063718 -16.907211 0
M  V30 10 F 10.016422 -0.227695 -15.640809 0
M  V30 11 C 6.266419 -0.088165 -15.912678 0
M  V30 12 N 5.373307 0.057339 -14.843896 0
M  V30 13 C 5.609128 1.032581 -13.846882 0
M  V30 14 O 4.890324 1.124594 -12.853059 0
M  V30 15 N 6.666080 1.932772 -14.069391 0
M  V30 16 C 6.828311 3.049536 -13.148947 0
M  V30 17 C 6.108369 4.350857 -13.538769 0
M  V30 18 C 6.524175 5.542611 -12.647049 0
M  V30 19 C 7.972666 6.009930 -12.903272 0
M  V30 20 N 8.492938 6.906076 -11.846721 0 CFG=2 CHG=1
M  V30 21 C 8.181683 8.339946 -12.068298 0
M  V30 22 C 8.647564 9.165307 -10.855848 0
M  V30 23 C 10.131106 8.969785 -10.590942 0
M  V30 24 C 10.525556 7.508126 -10.455457 0 CFG=1
M  V30 25 C 10.145766 7.012720 -9.107168 0
M  V30 26 C 9.286714 5.989628 -8.810949 0
M  V30 27 N 9.231451 5.861994 -7.446853 0
M  V30 28 C 10.068074 6.762471 -6.812606 0
M  V30 29 C 10.414151 6.972544 -5.462860 0
M  V30 30 C 11.227514 8.065276 -5.112393 0
M  V30 31 C 11.695276 8.925772 -6.117466 0
M  V30 32 C 11.443428 8.636353 -7.470541 0
M  V30 33 C 10.609921 7.556015 -7.855214 0
M  V30 34 C 9.952649 6.692728 -11.634676 0
M  V30 35 C 4.167856 -0.728596 -14.665423 0
M  V30 36 C 3.731493 -1.512693 -15.902243 0
M  V30 37 C 4.934957 -2.231890 -16.485830 0
M  V30 38 C 5.958971 -1.192498 -16.937408 0
M  V30 39 H 6.932177 1.187208 -18.698904 0
M  V30 40 H 8.546966 0.889986 -20.563198 0
M  V30 41 H 10.848957 0.064037 -20.101608 0
M  V30 42 H 11.541423 -0.454412 -17.767756 0
M  V30 43 H 6.485456 2.747792 -12.160963 0
M  V30 44 H 7.901034 3.189376 -13.046783 0
M  V30 45 H 6.301812 4.572298 -14.582847 0
M  V30 46 H 5.031135 4.197287 -13.458794 0
M  V30 47 H 5.840811 6.378505 -12.809575 0
M  V30 48 H 6.404833 5.260051 -11.600245 0
M  V30 49 H 8.621583 5.138914 -12.955974 0
M  V30 50 H 8.085822 6.484619 -13.874812 0
M  V30 51 H 8.686057 8.703463 -12.962158 0
M  V30 52 H 7.114283 8.476997 -12.246908 0
M  V30 53 H 8.485678 10.206137 -11.046819 0
M  V30 54 H 8.091092 8.972380 -9.943685 0
M  V30 55 H 10.655641 9.319540 -11.444505 0
M  V30 56 H 10.456099 9.595267 -9.764940 0
M  V30 57 H 11.612716 7.452346 -10.523620 0
M  V30 58 H 8.696850 5.338666 -9.441592 0
M  V30 59 H 8.628259 5.198158 -6.986883 0
M  V30 60 H 10.025267 6.314065 -4.700912 0
M  V30 61 H 11.474154 8.252787 -4.077896 0
M  V30 62 H 12.317507 9.770052 -5.855273 0
M  V30 63 H 11.895537 9.263194 -8.222349 0
M  V30 64 H 10.159943 5.634868 -11.472893 0
M  V30 65 H 10.477536 6.968115 -12.551315 0
M  V30 66 H 4.393137 -1.412302 -13.846857 0
M  V30 67 H 3.364171 -0.051585 -14.367011 0
M  V30 68 H 2.952304 -2.226259 -15.637654 0
M  V30 69 H 3.296072 -0.843530 -16.645887 0
M  V30 70 H 5.372942 -2.898445 -15.741968 0
M  V30 71 H 4.632359 -2.860156 -17.324478 0
M  V30 72 H 5.587461 -0.703507 -17.838509 0
M  V30 73 H 6.874904 -1.707439 -17.226469 0
M  V30 74 H 8.004780 6.678381 -10.987056 0
M  V30 END ATOM
M  V30 BEGIN BOND
M  V30 1 2 2 1
M  V30 2 1 3 2
M  V30 3 1 4 3
M  V30 4 2 5 4
M  V30 5 1 6 5
M  V30 6 2 7 6
M  V30 7 1 8 7
M  V30 8 1 9 4
M  V30 9 2 9 8
M  V30 10 1 10 9
M  V30 11 2 11 3
M  V30 12 1 12 11
M  V30 13 1 13 12
M  V30 14 2 14 13
M  V30 15 1 15 2
M  V30 16 1 15 13
M  V30 17 1 16 15
M  V30 18 1 17 16
M  V30 19 1 18 17
M  V30 20 1 19 18
M  V30 21 1 20 19
M  V30 22 1 21 20
M  V30 23 1 22 21
M  V30 24 1 23 22
M  V30 25 1 24 23
M  V30 26 1 25 24
M  V30 27 2 26 25
M  V30 28 1 27 26
M  V30 29 1 28 27
M  V30 30 2 29 28
M  V30 31 1 30 29
M  V30 32 2 31 30
M  V30 33 1 32 31
M  V30 34 1 33 25
M  V30 35 1 33 28
M  V30 36 2 33 32
M  V30 37 1 34 20
M  V30 38 1 34 24
M  V30 39 1 35 12
M  V30 40 1 36 35
M  V30 41 1 37 36
M  V30 42 1 38 11
M  V30 43 1 38 37
M  V30 44 1 39 5
M  V30 45 1 40 6
M  V30 46 1 41 7
M  V30 47 1 42 8
M  V30 48 1 43 16
M  V30 49 1 44 16
M  V30 50 1 45 17
M  V30 51 1 46 17
M  V30 52 1 47 18
M  V30 53 1 48 18
M  V30 54 1 49 19
M  V30 55 1 50 19
M  V30 56 1 51 21
M  V30 57 1 52 21
M  V30 58 1 53 22
M  V30 59 1 54 22
M  V30 60 1 55 23
M  V30 61 1 56 23
M  V30 62 1 24 57 CFG=1
M  V30 63 1 58 26
M  V30 64 1 59 27
M  V30 65 1 60 29
M  V30 66 1 61 30
M  V30 67 1 62 31
M  V30 68 1 63 32
M  V30 69 1 64 34
M  V30 70 1 65 34
M  V30 71 1 66 35
M  V30 72 1 67 35
M  V30 73 1 68 36
M  V30 74 1 69 36
M  V30 75 1 70 37
M  V30 76 1 71 37
M  V30 77 1 72 38
M  V30 78 1 73 38
M  V30 79 1 20 74 CFG=1
M  V30 END BOND
M  V30 END CTAB
M  END
>  <b_m_subgroup_collapsed>  (1753) 
0

>  <r_i_docking_score>  (1753) 
-6.73075552921925

>  <s_m_subgroup_title>  (1753) 
glide-dock_SP_D22_pv

>  <s_m_subgroupid>  (1753) 
glide-dock_SP_D22_pv

>  <Molecule ChEMBL ID>  (1753) 
CHEMBL4470437

>  <Standard Type>  (1753) 
Ki

>  <Standard Value>  (1753) 
10000.0

>  <label>  (1753) 
0

$$$$
CHEMBL240024
     RDKit          3D

  0  0  0  0  0  0  0  0  0  0999 V3000
M  V30 BEGIN CTAB
M  V30 COUNTS 56 60 0 0 1
M  V30 BEGIN ATOM
M  V30 1 C 13.812412 2.915459 -18.331169 0
M  V30 2 O 12.832639 1.921456 -18.067879 0
M  V30 3 C 11.863781 2.193066 -17.123817 0
M  V30 4 C 11.854393 3.368539 -16.332052 0
M  V30 5 C 10.839767 3.582226 -15.381227 0
M  V30 6 C 9.799608 2.645238 -15.234711 0
M  V30 7 C 9.809564 1.468510 -16.009819 0
M  V30 8 C 10.848453 1.224622 -16.943893 0
M  V30 9 O 10.931878 0.078748 -17.708849 0
M  V30 10 C 10.020876 -0.977776 -17.444454 0
M  V30 11 C 8.671762 2.887493 -14.239960 0
M  V30 12 N 8.910755 3.931751 -13.215103 0 CHG=1
M  V30 13 C 7.886523 4.123610 -12.340143 0
M  V30 14 N 7.803326 4.870882 -11.212231 0
M  V30 15 C 8.686824 5.934572 -10.836571 0
M  V30 16 C 8.886086 7.029456 -11.712748 0
M  V30 17 C 9.678257 8.123444 -11.305153 0
M  V30 18 C 10.245644 8.097055 -10.018709 0
M  V30 19 C 10.032179 7.022461 -9.160957 0
M  V30 20 C 9.255138 5.915061 -9.543576 0
M  V30 21 C 10.710581 7.285498 -7.846594 0 CFG=2
M  V30 22 S 9.809276 6.765307 -6.392182 0
M  V30 23 C 11.134605 7.154431 -5.205464 0
M  V30 24 C 11.400976 8.669364 -5.113558 0
M  V30 25 S 12.086020 9.372337 -6.647290 0
M  V30 26 C 10.850955 8.807980 -7.843617 0 CFG=1
M  V30 27 C 11.043487 9.180994 -9.329247 0
M  V30 28 C 10.293217 4.448158 -13.100951 0
M  V30 29 C 10.883154 4.790649 -14.473175 0
M  V30 30 H 14.485624 2.557344 -19.109503 0
M  V30 31 H 14.416101 3.130707 -17.448795 0
M  V30 32 H 13.355506 3.839103 -18.688965 0
M  V30 33 H 12.632312 4.111197 -16.422430 0
M  V30 34 H 9.010330 0.757168 -15.866863 0
M  V30 35 H 10.265973 -1.828394 -18.079878 0
M  V30 36 H 8.994167 -0.685509 -17.667549 0
M  V30 37 H 10.085707 -1.311115 -16.407578 0
M  V30 38 H 7.774542 3.151072 -14.799257 0
M  V30 39 H 8.462150 1.945114 -13.736060 0
M  V30 40 H 6.977860 3.574470 -12.559908 0
M  V30 41 H 8.402399 7.047865 -12.677477 0
M  V30 42 H 9.793845 8.972379 -11.955088 0
M  V30 43 H 9.074489 5.099389 -8.858345 0
M  V30 44 H 11.685422 6.799162 -7.868448 0
M  V30 45 H 10.867569 6.760765 -4.226871 0
M  V30 46 H 12.041081 6.621150 -5.493546 0
M  V30 47 H 10.486277 9.204318 -4.864269 0
M  V30 48 H 12.107867 8.870341 -4.308156 0
M  V30 49 H 9.892364 9.235546 -7.541232 0
M  V30 50 H 12.087618 9.113358 -9.633817 0
M  V30 51 H 10.672413 10.172332 -9.556482 0
M  V30 52 H 10.408987 5.304904 -12.455649 0
M  V30 53 H 10.885861 3.663837 -12.646631 0
M  V30 54 H 11.914629 5.125452 -14.354862 0
M  V30 55 H 10.332932 5.610459 -14.936217 0
M  V30 56 H 7.109777 4.574272 -10.530643 0
M  V30 END ATOM
M  V30 BEGIN BOND
M  V30 1 1 2 1
M  V30 2 1 3 2
M  V30 3 1 4 3
M  V30 4 2 5 4
M  V30 5 1 6 5
M  V30 6 2 7 6
M  V30 7 2 8 3
M  V30 8 1 8 7
M  V30 9 1 9 8
M  V30 10 1 10 9
M  V30 11 1 11 6
M  V30 12 1 12 11
M  V30 13 2 13 12 CFG=2
M  V30 14 1 14 13
M  V30 15 1 15 14
M  V30 16 1 16 15
M  V30 17 2 17 16
M  V30 18 1 18 17
M  V30 19 2 19 18
M  V30 20 2 20 15
M  V30 21 1 20 19
M  V30 22 1 21 19
M  V30 23 1 22 21
M  V30 24 1 23 22
M  V30 25 1 24 23
M  V30 26 1 25 24
M  V30 27 1 26 21
M  V30 28 1 26 25
M  V30 29 1 27 18
M  V30 30 1 27 26
M  V30 31 1 28 12
M  V30 32 1 29 5
M  V30 33 1 29 28
M  V30 34 1 30 1
M  V30 35 1 31 1
M  V30 36 1 32 1
M  V30 37 1 33 4
M  V30 38 1 34 7
M  V30 39 1 35 10
M  V30 40 1 36 10
M  V30 41 1 37 10
M  V30 42 1 38 11
M  V30 43 1 39 11
M  V30 44 1 40 13
M  V30 45 1 41 16
M  V30 46 1 42 17
M  V30 47 1 43 20
M  V30 48 1 21 44 CFG=3
M  V30 49 1 45 23
M  V30 50 1 46 23
M  V30 51 1 47 24
M  V30 52 1 48 24
M  V30 53 1 26 49 CFG=1
M  V30 54 1 50 27
M  V30 55 1 51 27
M  V30 56 1 52 28
M  V30 57 1 53 28
M  V30 58 1 54 29
M  V30 59 1 55 29
M  V30 60 1 56 14
M  V30 END BOND
M  V30 END CTAB
M  END
>  <b_m_subgroup_collapsed>  (1754) 
0

>  <r_i_docking_score>  (1754) 
-6.7303104656025097

>  <s_m_subgroup_title>  (1754) 
glide-dock_SP_D22_pv

>  <s_m_subgroupid>  (1754) 
glide-dock_SP_D22_pv

>  <Molecule ChEMBL ID>  (1754) 
CHEMBL240024

>  <Standard Type>  (1754) 
Ki

>  <Standard Value>  (1754) 
100000.0

>  <label>  (1754) 
0

$$$$
CHEMBL2336280
     RDKit          3D

  0  0  0  0  0  0  0  0  0  0999 V3000
M  V30 BEGIN CTAB
M  V30 COUNTS 41 42 0 0 1
M  V30 BEGIN ATOM
M  V30 1 C 8.087683 7.212723 -12.540829 0
M  V30 2 C 8.992300 7.483142 -11.330679 0
M  V30 3 C 9.335019 6.192961 -10.556065 0
M  V30 4 N 9.907077 6.413011 -9.199422 0 CFG=2 CHG=1
M  V30 5 C 8.884325 6.777162 -8.190070 0
M  V30 6 C 9.477240 6.781807 -6.775025 0
M  V30 7 C 10.635967 7.781687 -6.690000 0 CFG=1
M  V30 8 C 11.220590 7.935589 -5.279986 0
M  V30 9 C 11.674968 6.803939 -4.567710 0
M  V30 10 C 12.123223 6.922334 -3.238175 0
M  V30 11 C 12.163313 8.181723 -2.615368 0
M  V30 12 C 11.752844 9.322300 -3.325810 0
M  V30 13 C 11.285954 9.205738 -4.649045 0
M  V30 14 O 10.911170 10.352910 -5.288566 0
M  V30 15 C 11.869370 10.758677 -6.247144 0
M  V30 16 C 11.687681 7.376722 -7.733264 0
M  V30 17 C 11.080839 7.324639 -9.151960 0
M  V30 18 H 7.839874 8.146893 -13.044803 0
M  V30 19 H 8.565351 6.548090 -13.259059 0
M  V30 20 H 7.146744 6.750090 -12.242361 0
M  V30 21 H 8.487353 8.198551 -10.681989 0
M  V30 22 H 9.907042 7.972666 -11.669335 0
M  V30 23 H 10.042830 5.602711 -11.140316 0
M  V30 24 H 8.439865 5.573380 -10.459276 0
M  V30 25 H 8.061197 6.066601 -8.229134 0
M  V30 26 H 8.485604 7.763362 -8.420188 0
M  V30 27 H 9.807029 5.778270 -6.515472 0
M  V30 28 H 8.701427 7.061287 -6.069628 0
M  V30 29 H 10.201947 8.735394 -6.984271 0
M  V30 30 H 11.641286 5.826529 -5.023714 0
M  V30 31 H 12.439396 6.041353 -2.697917 0
M  V30 32 H 12.508636 8.274740 -1.596796 0
M  V30 33 H 11.794367 10.291623 -2.851618 0
M  V30 34 H 11.687449 11.777661 -6.554461 0
M  V30 35 H 12.885818 10.685547 -5.864472 0
M  V30 36 H 11.804871 10.160449 -7.146851 0
M  V30 37 H 12.522391 8.077168 -7.730411 0
M  V30 38 H 12.086145 6.405777 -7.446763 0
M  V30 39 H 11.832001 6.990568 -9.867333 0
M  V30 40 H 10.783673 8.329962 -9.450864 0
M  V30 41 H 10.243772 5.504767 -8.912642 0
M  V30 END ATOM
M  V30 BEGIN BOND
M  V30 1 1 2 1
M  V30 2 1 3 2
M  V30 3 1 4 3
M  V30 4 1 5 4
M  V30 5 1 6 5
M  V30 6 1 7 6
M  V30 7 1 8 7
M  V30 8 2 9 8
M  V30 9 1 10 9
M  V30 10 2 11 10
M  V30 11 1 12 11
M  V30 12 1 13 8
M  V30 13 2 13 12
M  V30 14 1 14 13
M  V30 15 1 15 14
M  V30 16 1 16 7
M  V30 17 1 17 4
M  V30 18 1 17 16
M  V30 19 1 18 1
M  V30 20 1 19 1
M  V30 21 1 20 1
M  V30 22 1 21 2
M  V30 23 1 22 2
M  V30 24 1 23 3
M  V30 25 1 24 3
M  V30 26 1 25 5
M  V30 27 1 26 5
M  V30 28 1 27 6
M  V30 29 1 28 6
M  V30 30 1 7 29 CFG=3
M  V30 31 1 30 9
M  V30 32 1 31 10
M  V30 33 1 32 11
M  V30 34 1 33 12
M  V30 35 1 34 15
M  V30 36 1 35 15
M  V30 37 1 36 15
M  V30 38 1 37 16
M  V30 39 1 38 16
M  V30 40 1 39 17
M  V30 41 1 40 17
M  V30 42 1 4 41 CFG=1
M  V30 END BOND
M  V30 END CTAB
M  END
>  <b_m_subgroup_collapsed>  (1755) 
0

>  <r_i_docking_score>  (1755) 
-6.72987672459743

>  <s_m_subgroup_title>  (1755) 
glide-dock_SP_D22_pv

>  <s_m_subgroupid>  (1755) 
glide-dock_SP_D22_pv

>  <Molecule ChEMBL ID>  (1755) 
CHEMBL2336280

>  <Standard Type>  (1755) 
Ki

>  <Standard Value>  (1755) 
12.59

>  <label>  (1755) 
1

$$$$
CHEMBL514747
     RDKit          3D

  0  0  0  0  0  0  0  0  0  0999 V3000
M  V30 BEGIN CTAB
M  V30 COUNTS 44 48 0 0 1
M  V30 BEGIN ATOM
M  V30 1 Cl 9.572077 8.049885 -21.046856 0
M  V30 2 C 10.110692 7.145349 -19.678957 0
M  V30 3 C 9.245890 6.232491 -19.046865 0
M  V30 4 C 9.686022 5.499360 -17.926422 0
M  V30 5 C 10.992670 5.676175 -17.415720 0
M  V30 6 N 11.440655 4.951834 -16.294365 0
M  V30 7 C 12.622811 5.315576 -15.523952 0
M  V30 8 C 12.359166 4.594552 -14.184397 0 CFG=2
M  V30 9 C 11.686022 3.319994 -14.694168 0
M  V30 10 C 10.619469 4.103173 -15.433779 0 CFG=1
M  V30 11 C 10.047784 4.926517 -14.262553 0
M  V30 12 N 11.251256 5.257326 -13.446865 0 CFG=2 CHG=1
M  V30 13 C 11.476309 6.686565 -13.089697 0
M  V30 14 C 10.651140 7.139688 -11.913244 0
M  V30 15 C 9.280177 7.137846 -11.843188 0
M  V30 16 N 8.886023 7.630864 -10.614904 0
M  V30 17 C 9.966770 7.972945 -9.846865 0
M  V30 18 N 9.940171 8.481482 -8.581850 0
M  V30 19 C 11.153778 8.750621 -8.060698 0
M  V30 20 C 12.365870 8.572323 -8.754558 0
M  V30 21 C 12.339184 8.072218 -10.072479 0
M  V30 22 C 11.105535 7.712551 -10.660716 0
M  V30 23 C 11.856664 6.585764 -18.070372 0
M  V30 24 C 11.418447 7.318503 -19.190845 0
M  V30 25 H 8.240805 6.094467 -19.419155 0
M  V30 26 H 8.997075 4.809328 -17.465538 0
M  V30 27 H 13.511674 4.915229 -16.013962 0
M  V30 28 H 12.750244 6.392774 -15.417463 0
M  V30 29 H 13.250879 4.440738 -13.576035 0
M  V30 30 H 12.310915 2.728606 -15.366848 0
M  V30 31 H 11.294510 2.675079 -13.904434 0
M  V30 32 H 9.896832 3.479933 -15.960867 0
M  V30 33 H 9.481050 5.772325 -14.627117 0
M  V30 34 H 9.368763 4.322272 -13.659209 0
M  V30 35 H 12.532413 6.816792 -12.850567 0
M  V30 36 H 11.286071 7.322830 -13.952692 0
M  V30 37 H 8.534806 6.831910 -12.563372 0
M  V30 38 H 7.888184 7.760834 -10.346570 0
M  V30 39 H 11.158206 9.149916 -7.056997 0
M  V30 40 H 13.303144 8.849822 -8.293739 0
M  V30 41 H 13.260360 7.975957 -10.623693 0
M  V30 42 H 12.867640 6.738690 -17.724194 0
M  V30 43 H 12.085987 8.018465 -19.672136 0
M  V30 44 H 11.150983 4.756823 -12.576205 0
M  V30 END ATOM
M  V30 BEGIN BOND
M  V30 1 1 2 1
M  V30 2 1 3 2
M  V30 3 2 4 3
M  V30 4 1 5 4
M  V30 5 1 6 5
M  V30 6 1 7 6
M  V30 7 1 8 7
M  V30 8 1 9 8
M  V30 9 1 10 6
M  V30 10 1 10 9
M  V30 11 1 11 10
M  V30 12 1 12 8
M  V30 13 1 12 11
M  V30 14 1 13 12
M  V30 15 1 14 13
M  V30 16 2 15 14
M  V30 17 1 16 15
M  V30 18 1 17 16
M  V30 19 2 18 17
M  V30 20 1 19 18
M  V30 21 2 20 19
M  V30 22 1 21 20
M  V30 23 1 22 14
M  V30 24 1 22 17
M  V30 25 2 22 21
M  V30 26 2 23 5
M  V30 27 2 24 2
M  V30 28 1 24 23
M  V30 29 1 25 3
M  V30 30 1 26 4
M  V30 31 1 27 7
M  V30 32 1 28 7
M  V30 33 1 8 29 CFG=1
M  V30 34 1 30 9
M  V30 35 1 31 9
M  V30 36 1 10 32 CFG=3
M  V30 37 1 33 11
M  V30 38 1 34 11
M  V30 39 1 35 13
M  V30 40 1 36 13
M  V30 41 1 37 15
M  V30 42 1 38 16
M  V30 43 1 39 19
M  V30 44 1 40 20
M  V30 45 1 41 21
M  V30 46 1 42 23
M  V30 47 1 43 24
M  V30 48 1 12 44 CFG=1
M  V30 END BOND
M  V30 END CTAB
M  END
>  <b_m_subgroup_collapsed>  (1756) 
0

>  <r_i_docking_score>  (1756) 
-6.7296975197187203

>  <s_m_subgroup_title>  (1756) 
glide-dock_SP_D22_pv

>  <s_m_subgroupid>  (1756) 
glide-dock_SP_D22_pv

>  <Molecule ChEMBL ID>  (1756) 
CHEMBL514747

>  <Standard Type>  (1756) 
Ki

>  <Standard Value>  (1756) 
62.0

>  <label>  (1756) 
1

$$$$
CHEMBL381102
     RDKit          3D

  0  0  0  0  0  0  0  0  0  0999 V3000
M  V30 BEGIN CTAB
M  V30 COUNTS 25 26 0 0 1
M  V30 BEGIN ATOM
M  V30 1 O 12.489703 7.772381 -9.942424 0
M  V30 2 C 11.717305 8.243221 -9.113227 0
M  V30 3 C 10.448415 8.971930 -9.553640 0
M  V30 4 C 9.221992 8.569067 -8.715848 0
M  V30 5 C 9.537339 8.247585 -7.246452 0
M  V30 6 C 10.943240 8.754854 -6.881496 0 CFG=1
M  V30 7 C 11.307642 8.489329 -5.433295 0
M  V30 8 C 11.302619 7.177544 -4.909761 0
M  V30 9 C 11.694569 6.955672 -3.574628 0
M  V30 10 C 12.086585 8.034455 -2.758786 0
M  V30 11 C 12.078671 9.342438 -3.273337 0
M  V30 12 C 11.684869 9.567853 -4.606656 0
M  V30 13 O 11.895170 8.171804 -7.772226 0
M  V30 14 H 10.640316 10.037622 -9.447226 0
M  V30 15 H 10.263052 8.795623 -10.615568 0
M  V30 16 H 8.488433 9.373098 -8.760918 0
M  V30 17 H 8.738642 7.702281 -9.170886 0
M  V30 18 H 9.481157 7.166443 -7.103582 0
M  V30 19 H 8.777631 8.684407 -6.595977 0
M  V30 20 H 10.967990 9.835929 -7.030367 0
M  V30 21 H 11.022474 6.336206 -5.528670 0
M  V30 22 H 11.701230 5.951975 -3.176579 0
M  V30 23 H 12.387673 7.857751 -1.736797 0
M  V30 24 H 12.378875 10.170545 -2.646344 0
M  V30 25 H 11.687181 10.572297 -5.001756 0
M  V30 END ATOM
M  V30 BEGIN BOND
M  V30 1 2 2 1
M  V30 2 1 3 2
M  V30 3 1 4 3
M  V30 4 1 5 4
M  V30 5 1 6 5
M  V30 6 1 7 6
M  V30 7 2 8 7
M  V30 8 1 9 8
M  V30 9 2 10 9
M  V30 10 1 11 10
M  V30 11 1 12 7
M  V30 12 2 12 11
M  V30 13 1 13 2
M  V30 14 1 13 6
M  V30 15 1 14 3
M  V30 16 1 15 3
M  V30 17 1 16 4
M  V30 18 1 17 4
M  V30 19 1 18 5
M  V30 20 1 19 5
M  V30 21 1 6 20 CFG=1
M  V30 22 1 21 8
M  V30 23 1 22 9
M  V30 24 1 23 10
M  V30 25 1 24 11
M  V30 26 1 25 12
M  V30 END BOND
M  V30 END CTAB
M  END
>  <b_m_subgroup_collapsed>  (1757) 
0

>  <r_i_docking_score>  (1757) 
-6.7290702830081601

>  <s_m_subgroup_title>  (1757) 
glide-dock_SP_D22_pv

>  <s_m_subgroupid>  (1757) 
glide-dock_SP_D22_pv

>  <Molecule ChEMBL ID>  (1757) 
CHEMBL381102

>  <Standard Type>  (1757) 
Ki

>  <Standard Value>  (1757) 
10000.0

>  <label>  (1757) 
0

$$$$
CHEMBL4573883
     RDKit          3D

  0  0  0  0  0  0  0  0  0  0999 V3000
M  V30 BEGIN CTAB
M  V30 COUNTS 29 31 0 0 1
M  V30 BEGIN ATOM
M  V30 1 C 12.268713 8.237325 -10.249998 0
M  V30 2 C 10.760926 8.425523 -10.065887 0
M  V30 3 N 10.194288 7.435609 -9.167571 0
M  V30 4 C 9.476514 6.379502 -9.578612 0
M  V30 5 N 9.048015 5.583771 -8.613955 0
M  V30 6 C 9.497075 6.209704 -7.459412 0
M  V30 7 C 10.234095 7.333173 -7.767731 0
M  V30 8 C 10.896153 8.266730 -6.842702 0
M  V30 9 C 11.292105 9.567317 -7.048367 0
M  V30 10 N 11.747851 10.133051 -5.877116 0
M  V30 11 C 11.762437 9.195050 -4.877174 0
M  V30 12 C 12.149535 9.268424 -3.529080 0
M  V30 13 C 12.106993 8.112918 -2.738672 0
M  V30 14 F 12.487737 8.172429 -1.447371 0
M  V30 15 C 11.689101 6.896049 -3.298991 0
M  V30 16 C 11.286090 6.839449 -4.647796 0
M  V30 17 C 11.285237 7.990259 -5.474180 0
M  V30 18 H 12.665904 8.970827 -10.951627 0
M  V30 19 H 12.810547 8.347356 -9.309006 0
M  V30 20 H 12.485858 7.247233 -10.651105 0
M  V30 21 H 10.270781 8.330469 -11.036226 0
M  V30 22 H 10.508024 9.423593 -9.717546 0
M  V30 23 H 9.264911 6.184220 -10.620044 0
M  V30 24 H 9.249139 5.799187 -6.494486 0
M  V30 25 H 11.285019 10.169981 -7.937666 0
M  V30 26 H 12.061928 11.090169 -5.808961 0
M  V30 27 H 12.493169 10.192698 -3.093683 0
M  V30 28 H 11.671335 6.001611 -2.691007 0
M  V30 29 H 10.959368 5.893420 -5.046966 0
M  V30 END ATOM
M  V30 BEGIN BOND
M  V30 1 1 2 1
M  V30 2 1 3 2
M  V30 3 1 4 3
M  V30 4 2 5 4
M  V30 5 1 6 5
M  V30 6 1 7 3
M  V30 7 2 7 6
M  V30 8 1 8 7
M  V30 9 2 9 8
M  V30 10 1 10 9
M  V30 11 1 11 10
M  V30 12 1 12 11
M  V30 13 2 13 12
M  V30 14 1 14 13
M  V30 15 1 15 13
M  V30 16 2 16 15
M  V30 17 1 17 8
M  V30 18 2 17 11
M  V30 19 1 17 16
M  V30 20 1 18 1
M  V30 21 1 19 1
M  V30 22 1 20 1
M  V30 23 1 21 2
M  V30 24 1 22 2
M  V30 25 1 23 4
M  V30 26 1 24 6
M  V30 27 1 25 9
M  V30 28 1 26 10
M  V30 29 1 27 12
M  V30 30 1 28 15
M  V30 31 1 29 16
M  V30 END BOND
M  V30 END CTAB
M  END
>  <b_m_subgroup_collapsed>  (1758) 
0

>  <r_i_docking_score>  (1758) 
-6.7288161411329996

>  <s_m_subgroup_title>  (1758) 
glide-dock_SP_D22_pv

>  <s_m_subgroupid>  (1758) 
glide-dock_SP_D22_pv

>  <Molecule ChEMBL ID>  (1758) 
CHEMBL4573883

>  <Standard Type>  (1758) 
Ki

>  <Standard Value>  (1758) 
10000.0

>  <label>  (1758) 
0

$$$$
CHEMBL241282
     RDKit          3D

  0  0  0  0  0  0  0  0  0  0999 V3000
M  V30 BEGIN CTAB
M  V30 COUNTS 59 63 0 0 1
M  V30 BEGIN ATOM
M  V30 1 C 11.286177 6.547966 -4.306440 0
M  V30 2 O 11.284758 7.743855 -5.067421 0
M  V30 3 C 10.886085 7.648728 -6.382729 0
M  V30 4 C 9.888631 6.749387 -6.809539 0
M  V30 5 C 9.601125 6.605297 -8.178036 0
M  V30 6 C 10.257331 7.397058 -9.135206 0
M  V30 7 C 11.211368 8.341535 -8.715426 0
M  V30 8 C 11.513473 8.473159 -7.345507 0
M  V30 9 O 12.472443 9.372372 -6.982166 0
M  V30 10 C 12.013089 10.408116 -6.133009 0
M  V30 11 C 9.906041 7.225343 -10.602579 0
M  V30 12 N 9.548026 5.837922 -10.969513 0 CHG=1
M  V30 13 C 9.845600 5.402829 -12.210201 0
M  V30 14 N 9.687048 4.120232 -12.588613 0
M  V30 15 C 10.185225 3.667202 -13.851805 0
M  V30 16 C 11.374372 4.205421 -14.376997 0
M  V30 17 C 11.887709 3.689193 -15.580029 0
M  V30 18 C 11.228073 2.634485 -16.247183 0
M  V30 19 C 10.011497 2.113343 -15.730474 0
M  V30 20 C 9.504613 2.632015 -14.517992 0
M  V30 21 C 9.271787 0.962178 -16.418476 0 CFG=1
M  V30 22 S 7.505931 1.372482 -16.612152 0
M  V30 23 C 6.864629 -0.241204 -17.155455 0
M  V30 24 C 7.513474 -0.728233 -18.461140 0
M  V30 25 S 9.285801 -1.088276 -18.273092 0
M  V30 26 C 9.865045 0.558612 -17.784382 0 CFG=2
M  V30 27 C 11.393683 0.632865 -17.796827 0
M  V30 28 C 11.861968 2.060549 -17.502977 0
M  V30 29 C 9.024094 4.905191 -9.943089 0
M  V30 30 C 8.580383 5.606549 -8.656075 0
M  V30 31 H 11.755670 6.732960 -3.340549 0
M  V30 32 H 11.863380 5.773078 -4.810765 0
M  V30 33 H 10.282636 6.172346 -4.116900 0
M  V30 34 H 9.337417 6.171254 -6.088874 0
M  V30 35 H 11.720693 8.965111 -9.436583 0
M  V30 36 H 12.885968 10.972851 -5.846931 0
M  V30 37 H 11.540927 10.075471 -5.211148 0
M  V30 38 H 11.322575 11.073912 -6.647542 0
M  V30 39 H 9.066531 7.879114 -10.843548 0
M  V30 40 H 10.751772 7.548201 -11.209894 0
M  V30 41 H 10.219019 6.124166 -12.928194 0
M  V30 42 H 11.914887 4.983461 -13.858267 0
M  V30 43 H 12.813349 4.083041 -15.974899 0
M  V30 44 H 8.603788 2.217258 -14.088862 0
M  V30 45 H 9.344078 0.112307 -15.737868 0
M  V30 46 H 6.998236 -0.977146 -16.362339 0
M  V30 47 H 5.788802 -0.140070 -17.300697 0
M  V30 48 H 7.018582 -1.640283 -18.795731 0
M  V30 49 H 7.379025 0.010115 -19.252008 0
M  V30 50 H 9.512007 1.261410 -18.540907 0
M  V30 51 H 11.797604 -0.047814 -17.047716 0
M  V30 52 H 11.787038 0.306276 -18.760031 0
M  V30 53 H 11.611663 2.714189 -18.339783 0
M  V30 54 H 12.948745 2.075739 -17.405622 0
M  V30 55 H 8.182579 4.343675 -10.349702 0
M  V30 56 H 9.812143 4.187952 -9.711186 0
M  V30 57 H 8.340136 4.883318 -7.876604 0
M  V30 58 H 7.685943 6.172121 -8.869264 0
M  V30 59 H 9.068394 3.534441 -12.045815 0
M  V30 END ATOM
M  V30 BEGIN BOND
M  V30 1 1 2 1
M  V30 2 1 3 2
M  V30 3 1 4 3
M  V30 4 2 5 4
M  V30 5 1 6 5
M  V30 6 2 7 6
M  V30 7 2 8 3
M  V30 8 1 8 7
M  V30 9 1 9 8
M  V30 10 1 10 9
M  V30 11 1 11 6
M  V30 12 1 12 11
M  V30 13 2 13 12 CFG=2
M  V30 14 1 14 13
M  V30 15 1 15 14
M  V30 16 1 16 15
M  V30 17 2 17 16
M  V30 18 1 18 17
M  V30 19 2 19 18
M  V30 20 2 20 15
M  V30 21 1 20 19
M  V30 22 1 21 19
M  V30 23 1 22 21
M  V30 24 1 23 22
M  V30 25 1 24 23
M  V30 26 1 25 24
M  V30 27 1 26 21
M  V30 28 1 26 25
M  V30 29 1 27 26
M  V30 30 1 28 18
M  V30 31 1 28 27
M  V30 32 1 29 12
M  V30 33 1 30 5
M  V30 34 1 30 29
M  V30 35 1 31 1
M  V30 36 1 32 1
M  V30 37 1 33 1
M  V30 38 1 34 4
M  V30 39 1 35 7
M  V30 40 1 36 10
M  V30 41 1 37 10
M  V30 42 1 38 10
M  V30 43 1 39 11
M  V30 44 1 40 11
M  V30 45 1 41 13
M  V30 46 1 42 16
M  V30 47 1 43 17
M  V30 48 1 44 20
M  V30 49 1 21 45 CFG=1
M  V30 50 1 46 23
M  V30 51 1 47 23
M  V30 52 1 48 24
M  V30 53 1 49 24
M  V30 54 1 26 50 CFG=3
M  V30 55 1 51 27
M  V30 56 1 52 27
M  V30 57 1 53 28
M  V30 58 1 54 28
M  V30 59 1 55 29
M  V30 60 1 56 29
M  V30 61 1 57 30
M  V30 62 1 58 30
M  V30 63 1 59 14
M  V30 END BOND
M  V30 END CTAB
M  END
>  <b_m_subgroup_collapsed>  (1759) 
0

>  <r_i_docking_score>  (1759) 
-6.72788442275073

>  <s_m_subgroup_title>  (1759) 
glide-dock_SP_D22_pv

>  <s_m_subgroupid>  (1759) 
glide-dock_SP_D22_pv

>  <Molecule ChEMBL ID>  (1759) 
CHEMBL241282

>  <Standard Type>  (1759) 
Ki

>  <Standard Value>  (1759) 
100000.0

>  <label>  (1759) 
0

$$$$
CHEMBL4878587
     RDKit          3D

  0  0  0  0  0  0  0  0  0  0999 V3000
M  V30 BEGIN CTAB
M  V30 COUNTS 61 64 0 0 1
M  V30 BEGIN ATOM
M  V30 1 C 11.268372 6.571142 -4.364809 0
M  V30 2 O 11.213928 7.735274 -5.168476 0
M  V30 3 C 10.900243 7.564887 -6.497554 0
M  V30 4 C 10.006857 6.572673 -6.952741 0
M  V30 5 C 9.794077 6.359437 -8.328000 0
M  V30 6 C 10.447620 7.180435 -9.269952 0
M  V30 7 C 11.316142 8.197572 -8.820849 0
M  V30 8 C 11.531469 8.398631 -7.442951 0
M  V30 9 O 12.411872 9.372416 -7.046794 0
M  V30 10 C 11.843641 10.399849 -6.246538 0
M  V30 11 C 10.203501 7.005980 -10.762414 0
M  V30 12 N 9.558221 5.717706 -11.144888 0 CFG=2 CHG=1
M  V30 13 C 9.161299 5.677489 -12.581392 0
M  V30 14 C 10.294557 5.221917 -13.505466 0
M  V30 15 C 11.298470 6.172304 -13.811038 0
M  V30 16 C 12.380965 5.856676 -14.645889 0
M  V30 17 C 12.477299 4.572574 -15.196919 0
M  V30 18 C 11.483854 3.620963 -14.919940 0
M  V30 19 C 10.374813 3.922406 -14.092518 0
M  V30 20 C 9.332044 2.822798 -13.855903 0
M  V30 21 N 9.029368 2.004149 -15.030303 0
M  V30 22 C 9.586298 0.817781 -15.325038 0
M  V30 23 O 10.460252 0.280936 -14.646880 0
M  V30 24 C 9.140940 0.201137 -16.615782 0
M  V30 25 C 10.090937 -0.420709 -17.452980 0
M  V30 26 C 9.687211 -1.026348 -18.658524 0
M  V30 27 C 8.327125 -1.032974 -19.026711 0
M  V30 28 C 7.913469 -1.682827 -20.259590 0
M  V30 29 N 7.586497 -2.201182 -21.241556 0
M  V30 30 C 7.372389 -0.416966 -18.191896 0
M  V30 31 C 7.778908 0.200291 -16.991743 0
M  V30 32 C 8.432715 5.383583 -10.239340 0
M  V30 33 C 8.915724 5.212415 -8.790904 0
M  V30 34 H 11.711578 6.814942 -3.399443 0
M  V30 35 H 10.271726 6.172159 -4.179211 0
M  V30 36 H 11.877666 5.792183 -4.825764 0
M  V30 37 H 9.486329 5.947428 -6.246975 0
M  V30 38 H 11.818269 8.837978 -9.532903 0
M  V30 39 H 12.490335 11.275125 -6.248928 0
M  V30 40 H 10.876518 10.710945 -6.642914 0
M  V30 41 H 11.718494 10.100538 -5.206580 0
M  V30 42 H 11.165996 7.103358 -11.260642 0
M  V30 43 H 9.578837 7.842126 -11.082777 0
M  V30 44 H 8.825760 6.667384 -12.893615 0
M  V30 45 H 8.274213 5.066134 -12.709850 0
M  V30 46 H 11.248738 7.176504 -13.420618 0
M  V30 47 H 13.139997 6.595054 -14.859476 0
M  V30 48 H 13.310834 4.315404 -15.835226 0
M  V30 49 H 11.598470 2.643465 -15.360542 0
M  V30 50 H 9.686692 2.191456 -13.047091 0
M  V30 51 H 8.373079 3.209527 -13.529454 0
M  V30 52 H 8.354182 2.372107 -15.682097 0
M  V30 53 H 11.136229 -0.428782 -17.178726 0
M  V30 54 H 10.430191 -1.482051 -19.295040 0
M  V30 55 H 6.325409 -0.423830 -18.463266 0
M  V30 56 H 7.031116 0.652543 -16.356531 0
M  V30 57 H 7.687073 6.170087 -10.296860 0
M  V30 58 H 7.938369 4.463324 -10.555508 0
M  V30 59 H 9.485979 4.286698 -8.696916 0
M  V30 60 H 8.059032 5.119534 -8.121692 0
M  V30 61 H 10.239068 4.984534 -11.006256 0
M  V30 END ATOM
M  V30 BEGIN BOND
M  V30 1 1 2 1
M  V30 2 1 3 2
M  V30 3 1 4 3
M  V30 4 2 5 4
M  V30 5 1 6 5
M  V30 6 2 7 6
M  V30 7 2 8 3
M  V30 8 1 8 7
M  V30 9 1 9 8
M  V30 10 1 10 9
M  V30 11 1 11 6
M  V30 12 1 12 11
M  V30 13 1 13 12
M  V30 14 1 14 13
M  V30 15 2 15 14
M  V30 16 1 16 15
M  V30 17 2 17 16
M  V30 18 1 18 17
M  V30 19 1 19 14
M  V30 20 2 19 18
M  V30 21 1 20 19
M  V30 22 1 21 20
M  V30 23 1 22 21
M  V30 24 2 23 22
M  V30 25 1 24 22
M  V30 26 1 25 24
M  V30 27 2 26 25
M  V30 28 1 27 26
M  V30 29 1 28 27
M  V30 30 3 29 28
M  V30 31 2 30 27
M  V30 32 2 31 24
M  V30 33 1 31 30
M  V30 34 1 32 12
M  V30 35 1 33 5
M  V30 36 1 33 32
M  V30 37 1 34 1
M  V30 38 1 35 1
M  V30 39 1 36 1
M  V30 40 1 37 4
M  V30 41 1 38 7
M  V30 42 1 39 10
M  V30 43 1 40 10
M  V30 44 1 41 10
M  V30 45 1 42 11
M  V30 46 1 43 11
M  V30 47 1 44 13
M  V30 48 1 45 13
M  V30 49 1 46 15
M  V30 50 1 47 16
M  V30 51 1 48 17
M  V30 52 1 49 18
M  V30 53 1 50 20
M  V30 54 1 51 20
M  V30 55 1 52 21
M  V30 56 1 53 25
M  V30 57 1 54 26
M  V30 58 1 55 30
M  V30 59 1 56 31
M  V30 60 1 57 32
M  V30 61 1 58 32
M  V30 62 1 59 33
M  V30 63 1 60 33
M  V30 64 1 12 61 CFG=3
M  V30 END BOND
M  V30 END CTAB
M  END
>  <b_m_subgroup_collapsed>  (1760) 
0

>  <r_i_docking_score>  (1760) 
-6.7257065503269997

>  <s_m_subgroup_title>  (1760) 
glide-dock_SP_D22_pv

>  <s_m_subgroupid>  (1760) 
glide-dock_SP_D22_pv

>  <Molecule ChEMBL ID>  (1760) 
CHEMBL4878587

>  <Standard Type>  (1760) 
Ki

>  <Standard Value>  (1760) 
50.0

>  <label>  (1760) 
1

$$$$
CHEMBL5184911
     RDKit          3D

  0  0  0  0  0  0  0  0  0  0999 V3000
M  V30 BEGIN CTAB
M  V30 COUNTS 46 47 0 0 1
M  V30 BEGIN ATOM
M  V30 1 C 11.278685 3.682935 -15.557547 0
M  V30 2 C 10.662884 2.589874 -14.662957 0 CFG=1
M  V30 3 N 10.053255 3.138904 -13.446870 0
M  V30 4 C 9.213692 4.181533 -13.329853 0
M  V30 5 O 8.614813 4.726889 -14.253727 0
M  V30 6 N 9.116547 4.669422 -11.987572 0 CHG=1
M  V30 7 C 8.296165 5.652853 -11.548117 0
M  V30 8 N 7.275892 6.172355 -12.246861 0
M  V30 9 N 8.486025 6.172307 -10.327998 0
M  V30 10 C 9.567920 5.872973 -9.391562 0
M  V30 11 C 9.704845 6.992492 -8.355299 0
M  V30 12 C 11.135240 7.091795 -7.820853 0
M  V30 13 C 11.267798 8.088263 -6.729063 0
M  V30 14 N 11.359751 9.403876 -6.950632 0
M  V30 15 N 11.503985 10.124478 -5.774111 0
M  V30 16 C 11.517775 9.323711 -4.706260 0
M  V30 17 N 11.685945 9.772101 -3.410066 0
M  V30 18 S 11.286022 7.616804 -5.042438 0
M  V30 19 C 9.814799 1.602141 -15.463134 0
M  V30 20 C 8.401064 1.581112 -15.405813 0
M  V30 21 C 7.669075 0.673390 -16.196545 0
M  V30 22 C 8.341261 -0.225628 -17.046621 0
M  V30 23 C 9.747525 -0.227362 -17.093876 0
M  V30 24 F 10.399041 -1.105455 -17.893303 0
M  V30 25 C 10.477726 0.684484 -16.308895 0
M  V30 26 H 11.912403 3.245183 -16.329357 0
M  V30 27 H 10.513580 4.272338 -16.062813 0
M  V30 28 H 11.901623 4.364934 -14.977958 0
M  V30 29 H 11.498482 2.003518 -14.280557 0
M  V30 30 H 10.370415 2.696223 -12.594297 0
M  V30 31 H 7.051870 5.850896 -13.176373 0
M  V30 32 H 6.696469 6.866688 -11.764778 0
M  V30 33 H 7.788977 6.856000 -10.017684 0
M  V30 34 H 9.403732 4.907350 -8.911358 0
M  V30 35 H 10.486093 5.797839 -9.970616 0
M  V30 36 H 9.408063 7.953351 -8.779799 0
M  V30 37 H 9.016848 6.798531 -7.530506 0
M  V30 38 H 11.463189 6.122219 -7.444430 0
M  V30 39 H 11.818517 7.372259 -8.623703 0
M  V30 40 H 11.761043 10.758267 -3.200110 0
M  V30 41 H 11.686817 9.137891 -2.624381 0
M  V30 42 H 7.857189 2.257459 -14.766460 0
M  V30 43 H 6.589731 0.664106 -16.149496 0
M  V30 44 H 7.779285 -0.927859 -17.644957 0
M  V30 45 H 11.557178 0.678398 -16.362051 0
M  V30 46 H 9.684998 4.283875 -11.250147 0
M  V30 END ATOM
M  V30 BEGIN BOND
M  V30 1 1 2 1
M  V30 2 1 3 2
M  V30 3 1 4 3
M  V30 4 2 5 4
M  V30 5 1 6 4
M  V30 6 2 7 6
M  V30 7 1 8 7
M  V30 8 1 9 7
M  V30 9 1 10 9
M  V30 10 1 11 10
M  V30 11 1 12 11
M  V30 12 1 13 12
M  V30 13 2 14 13
M  V30 14 1 15 14
M  V30 15 2 16 15
M  V30 16 1 17 16
M  V30 17 1 18 13
M  V30 18 1 18 16
M  V30 19 1 19 2
M  V30 20 2 20 19
M  V30 21 1 21 20
M  V30 22 2 22 21
M  V30 23 1 23 22
M  V30 24 1 24 23
M  V30 25 1 25 19
M  V30 26 2 25 23
M  V30 27 1 26 1
M  V30 28 1 27 1
M  V30 29 1 28 1
M  V30 30 1 2 29 CFG=1
M  V30 31 1 30 3
M  V30 32 1 31 8
M  V30 33 1 32 8
M  V30 34 1 33 9
M  V30 35 1 34 10
M  V30 36 1 35 10
M  V30 37 1 36 11
M  V30 38 1 37 11
M  V30 39 1 38 12
M  V30 40 1 39 12
M  V30 41 1 40 17
M  V30 42 1 41 17
M  V30 43 1 42 20
M  V30 44 1 43 21
M  V30 45 1 44 22
M  V30 46 1 45 25
M  V30 47 1 46 6
M  V30 END BOND
M  V30 END CTAB
M  END
>  <b_m_subgroup_collapsed>  (1761) 
0

>  <r_i_docking_score>  (1761) 
-6.7239099520037202

>  <s_m_subgroup_title>  (1761) 
glide-dock_SP_D22_pv

>  <s_m_subgroupid>  (1761) 
glide-dock_SP_D22_pv

>  <Molecule ChEMBL ID>  (1761) 
CHEMBL5184911

>  <Standard Type>  (1761) 
Ki

>  <Standard Value>  (1761) 
10000.0

>  <label>  (1761) 
0

$$$$
CHEMBL3764612
     RDKit          3D

  0  0  0  0  0  0  0  0  0  0999 V3000
M  V30 BEGIN CTAB
M  V30 COUNTS 56 59 0 0 1
M  V30 BEGIN ATOM
M  V30 1 C 12.058208 8.954688 -8.219883 0
M  V30 2 N 11.058561 7.970739 -7.837807 0
M  V30 3 C 10.245631 7.257299 -8.647181 0
M  V30 4 S 10.245620 7.484966 -10.406340 0
M  V30 5 C 8.823717 6.462362 -10.924767 0
M  V30 6 C 9.247012 5.123347 -11.553701 0
M  V30 7 C 9.874937 5.310323 -12.950009 0
M  V30 8 N 10.262505 4.088086 -13.657092 0
M  V30 9 C 11.016503 4.410549 -14.866121 0
M  V30 10 C 11.408737 3.154759 -15.661817 0
M  V30 11 O 10.237023 2.416664 -15.997684 0
M  V30 12 C 9.492249 2.016149 -14.845466 0 CFG=2
M  V30 13 C 8.255782 1.212800 -15.221041 0
M  V30 14 C 7.653545 1.352095 -16.490047 0
M  V30 15 C 6.485610 0.628469 -16.808811 0
M  V30 16 C 5.897520 -0.228136 -15.852628 0
M  V30 17 C 4.638657 -1.024576 -16.163214 0
M  V30 18 F 4.247830 -0.867416 -17.428959 0
M  V30 19 F 4.878458 -2.316264 -15.947970 0
M  V30 20 F 3.652847 -0.628810 -15.357456 0
M  V30 21 C 6.493730 -0.357917 -14.580744 0
M  V30 22 C 7.672235 0.346720 -14.272326 0
M  V30 23 C 9.105059 3.275739 -14.035380 0
M  V30 24 N 9.480331 6.390044 -7.987897 0
M  V30 25 N 9.778913 6.572400 -6.659617 0
M  V30 26 C 10.714779 7.520227 -6.609498 0
M  V30 27 C 11.258216 7.966584 -5.328615 0
M  V30 28 C 11.685876 7.018015 -4.375539 0
M  V30 29 C 12.108201 7.464512 -3.106509 0
M  V30 30 C 12.086234 8.846576 -2.844076 0
M  V30 31 N 11.684891 9.765531 -3.746708 0
M  V30 32 C 11.285385 9.330634 -4.961865 0
M  V30 33 H 11.685713 9.575834 -9.036960 0
M  V30 34 H 12.315701 9.596635 -7.378589 0
M  V30 35 H 12.960419 8.442161 -8.557299 0
M  V30 36 H 8.142955 6.282350 -10.092237 0
M  V30 37 H 8.247713 7.034648 -11.654625 0
M  V30 38 H 9.933443 4.593419 -10.891732 0
M  V30 39 H 8.353271 4.502251 -11.627382 0
M  V30 40 H 9.181798 5.875975 -13.572262 0
M  V30 41 H 10.757731 5.940143 -12.839358 0
M  V30 42 H 10.420674 5.063615 -15.506970 0
M  V30 43 H 11.914761 4.968149 -14.602070 0
M  V30 44 H 11.931440 3.433905 -16.575594 0
M  V30 45 H 12.085135 2.530898 -15.080711 0
M  V30 46 H 10.133560 1.370365 -14.244129 0
M  V30 47 H 8.090243 2.007479 -17.228554 0
M  V30 48 H 6.042900 0.738222 -17.787754 0
M  V30 49 H 6.056101 -1.022066 -13.851724 0
M  V30 50 H 8.129080 0.209810 -13.306074 0
M  V30 51 H 8.562590 2.971609 -13.141754 0
M  V30 52 H 8.411007 3.877697 -14.627308 0
M  V30 53 H 11.671599 5.961170 -4.605970 0
M  V30 54 H 12.423681 6.758262 -2.354290 0
M  V30 55 H 12.377978 9.224174 -1.871772 0
M  V30 56 H 10.924521 10.092565 -5.637893 0
M  V30 END ATOM
M  V30 BEGIN BOND
M  V30 1 1 2 1
M  V30 2 1 3 2
M  V30 3 1 4 3
M  V30 4 1 5 4
M  V30 5 1 6 5
M  V30 6 1 7 6
M  V30 7 1 8 7
M  V30 8 1 9 8
M  V30 9 1 10 9
M  V30 10 1 11 10
M  V30 11 1 12 11
M  V30 12 1 13 12
M  V30 13 1 14 13
M  V30 14 2 15 14
M  V30 15 1 16 15
M  V30 16 1 17 16
M  V30 17 1 18 17
M  V30 18 1 19 17
M  V30 19 1 20 17
M  V30 20 2 21 16
M  V30 21 2 22 13
M  V30 22 1 22 21
M  V30 23 1 23 8
M  V30 24 1 23 12
M  V30 25 2 24 3
M  V30 26 1 25 24
M  V30 27 1 26 2
M  V30 28 2 26 25
M  V30 29 1 27 26
M  V30 30 2 28 27
M  V30 31 1 29 28
M  V30 32 2 30 29
M  V30 33 1 31 30
M  V30 34 1 32 27
M  V30 35 2 32 31
M  V30 36 1 33 1
M  V30 37 1 34 1
M  V30 38 1 35 1
M  V30 39 1 36 5
M  V30 40 1 37 5
M  V30 41 1 38 6
M  V30 42 1 39 6
M  V30 43 1 40 7
M  V30 44 1 41 7
M  V30 45 1 42 9
M  V30 46 1 43 9
M  V30 47 1 44 10
M  V30 48 1 45 10
M  V30 49 1 12 46 CFG=1
M  V30 50 1 47 14
M  V30 51 1 48 15
M  V30 52 1 49 21
M  V30 53 1 50 22
M  V30 54 1 51 23
M  V30 55 1 52 23
M  V30 56 1 53 28
M  V30 57 1 54 29
M  V30 58 1 55 30
M  V30 59 1 56 32
M  V30 END BOND
M  V30 END CTAB
M  END
>  <b_m_subgroup_collapsed>  (1762) 
0

>  <r_i_docking_score>  (1762) 
-6.7226507413275396

>  <s_m_subgroup_title>  (1762) 
glide-dock_SP_D22_pv

>  <s_m_subgroupid>  (1762) 
glide-dock_SP_D22_pv

>  <Molecule ChEMBL ID>  (1762) 
CHEMBL3764612

>  <Standard Type>  (1762) 
Ki

>  <Standard Value>  (1762) 
14791.0

>  <label>  (1762) 
0

$$$$
CHEMBL4555890
     RDKit          3D

  0  0  0  0  0  0  0  0  0  0999 V3000
M  V30 BEGIN CTAB
M  V30 COUNTS 71 75 0 0 1
M  V30 BEGIN ATOM
M  V30 1 C 8.779785 5.068120 -8.249045 0
M  V30 2 C 9.195851 6.127350 -7.227406 0
M  V30 3 O 10.614180 6.172619 -7.186028 0
M  V30 4 C 11.071515 7.198403 -6.406939 0
M  V30 5 C 11.285791 6.997352 -5.029331 0
M  V30 6 C 11.686574 8.072360 -4.214141 0
M  V30 7 C 11.866174 9.350650 -4.774144 0
M  V30 8 C 11.682899 9.548035 -6.157300 0
M  V30 9 C 11.305635 8.466326 -6.980691 0
M  V30 10 N 11.179401 8.640116 -8.362801 0
M  V30 11 C 12.124088 8.022173 -9.275314 0
M  V30 12 C 11.376570 7.257635 -10.384968 0
M  V30 13 N 10.306185 8.096342 -10.975765 0 CHG=1
M  V30 14 C 9.692868 7.555686 -12.206417 0
M  V30 15 C 8.758263 6.355432 -11.967719 0
M  V30 16 C 7.682484 6.226752 -13.048108 0
M  V30 17 C 6.510838 5.334911 -12.613648 0
M  V30 18 C 6.874680 3.849724 -12.511241 0
M  V30 19 C 6.946454 3.164392 -13.895114 0
M  V30 20 N 6.761862 1.711220 -13.864471 0
M  V30 21 C 7.071944 1.093241 -15.086809 0
M  V30 22 C 8.181084 1.291725 -15.939300 0
M  V30 23 C 8.256689 0.608455 -17.172937 0
M  V30 24 C 7.224187 -0.266305 -17.578562 0
M  V30 25 C 6.102995 -0.486745 -16.751644 0
M  V30 26 C 4.995271 -1.314259 -17.042679 0
M  V30 27 C 3.913481 -1.427693 -16.138069 0
M  V30 28 C 3.918848 -0.727793 -14.914099 0
M  V30 29 C 5.025153 0.083401 -14.607121 0
M  V30 30 C 6.080059 0.194822 -15.520819 0
M  V30 31 S 5.313868 1.069655 -13.173140 0
M  V30 32 O 5.686027 0.211069 -12.047338 0
M  V30 33 O 4.351434 2.168528 -13.046858 0
M  V30 34 C 9.324284 8.571706 -9.972479 0
M  V30 35 C 10.060725 9.372321 -8.911995 0
M  V30 36 H 7.703722 4.906698 -8.219162 0
M  V30 37 H 9.037208 5.367120 -9.259727 0
M  V30 38 H 9.285131 4.119147 -8.071768 0
M  V30 39 H 8.799538 5.883547 -6.246258 0
M  V30 40 H 8.765755 7.096978 -7.471404 0
M  V30 41 H 11.117163 6.021836 -4.596027 0
M  V30 42 H 11.839654 7.919622 -3.155697 0
M  V30 43 H 12.158935 10.172241 -4.138636 0
M  V30 44 H 11.851679 10.524783 -6.586327 0
M  V30 45 H 12.733927 8.812616 -9.712298 0
M  V30 46 H 12.807829 7.372517 -8.733283 0
M  V30 47 H 12.086946 6.972378 -11.161195 0
M  V30 48 H 10.933182 6.349851 -9.977729 0
M  V30 49 H 9.133658 8.381814 -12.646761 0
M  V30 50 H 10.481868 7.289948 -12.913248 0
M  V30 51 H 9.342072 5.438978 -11.878325 0
M  V30 52 H 8.216249 6.460580 -11.034661 0
M  V30 53 H 7.276884 7.219464 -13.249473 0
M  V30 54 H 8.116566 5.873217 -13.983236 0
M  V30 55 H 6.142227 5.681631 -11.645953 0
M  V30 56 H 5.670908 5.460073 -13.297865 0
M  V30 57 H 7.821229 3.762259 -11.980931 0
M  V30 58 H 6.136395 3.377313 -11.866673 0
M  V30 59 H 6.167105 3.567594 -14.544421 0
M  V30 60 H 7.897075 3.433556 -14.355236 0
M  V30 61 H 8.978982 1.961620 -15.653603 0
M  V30 62 H 9.110759 0.761272 -17.816349 0
M  V30 63 H 7.295105 -0.771922 -18.530817 0
M  V30 64 H 4.964396 -1.866366 -17.971115 0
M  V30 65 H 3.080751 -2.070707 -16.383337 0
M  V30 66 H 3.089299 -0.814300 -14.227737 0
M  V30 67 H 8.563982 9.194840 -10.445843 0
M  V30 68 H 8.808082 7.743500 -9.502009 0
M  V30 69 H 9.382697 9.739380 -8.137476 0
M  V30 70 H 10.506852 10.201073 -9.446885 0
M  V30 71 H 10.784950 8.933076 -11.272811 0
M  V30 END ATOM
M  V30 BEGIN BOND
M  V30 1 1 2 1
M  V30 2 1 3 2
M  V30 3 1 4 3
M  V30 4 2 5 4
M  V30 5 1 6 5
M  V30 6 2 7 6
M  V30 7 1 8 7
M  V30 8 1 9 4
M  V30 9 2 9 8
M  V30 10 1 10 9
M  V30 11 1 11 10
M  V30 12 1 12 11
M  V30 13 1 13 12
M  V30 14 1 14 13
M  V30 15 1 15 14
M  V30 16 1 16 15
M  V30 17 1 17 16
M  V30 18 1 18 17
M  V30 19 1 19 18
M  V30 20 1 20 19
M  V30 21 1 21 20
M  V30 22 1 22 21
M  V30 23 2 23 22
M  V30 24 1 24 23
M  V30 25 2 25 24
M  V30 26 1 26 25
M  V30 27 2 27 26
M  V30 28 1 28 27
M  V30 29 2 29 28
M  V30 30 2 30 21
M  V30 31 1 30 25
M  V30 32 1 30 29
M  V30 33 1 31 20
M  V30 34 1 31 29
M  V30 35 2 32 31
M  V30 36 2 33 31
M  V30 37 1 34 13
M  V30 38 1 35 10
M  V30 39 1 35 34
M  V30 40 1 36 1
M  V30 41 1 37 1
M  V30 42 1 38 1
M  V30 43 1 39 2
M  V30 44 1 40 2
M  V30 45 1 41 5
M  V30 46 1 42 6
M  V30 47 1 43 7
M  V30 48 1 44 8
M  V30 49 1 45 11
M  V30 50 1 46 11
M  V30 51 1 47 12
M  V30 52 1 48 12
M  V30 53 1 49 14
M  V30 54 1 50 14
M  V30 55 1 51 15
M  V30 56 1 52 15
M  V30 57 1 53 16
M  V30 58 1 54 16
M  V30 59 1 55 17
M  V30 60 1 56 17
M  V30 61 1 57 18
M  V30 62 1 58 18
M  V30 63 1 59 19
M  V30 64 1 60 19
M  V30 65 1 61 22
M  V30 66 1 62 23
M  V30 67 1 63 24
M  V30 68 1 64 26
M  V30 69 1 65 27
M  V30 70 1 66 28
M  V30 71 1 67 34
M  V30 72 1 68 34
M  V30 73 1 69 35
M  V30 74 1 70 35
M  V30 75 1 71 13
M  V30 END BOND
M  V30 END CTAB
M  END
>  <b_m_subgroup_collapsed>  (1763) 
0

>  <r_i_docking_score>  (1763) 
-6.7220155545150604

>  <s_m_subgroup_title>  (1763) 
glide-dock_SP_D22_pv

>  <s_m_subgroupid>  (1763) 
glide-dock_SP_D22_pv

>  <Molecule ChEMBL ID>  (1763) 
CHEMBL4555890

>  <Standard Type>  (1763) 
Ki

>  <Standard Value>  (1763) 
30.0

>  <label>  (1763) 
1

$$$$
CHEMBL43819
     RDKit          3D

  0  0  0  0  0  0  0  0  0  0999 V3000
M  V30 BEGIN CTAB
M  V30 COUNTS 45 48 0 0 1
M  V30 BEGIN ATOM
M  V30 1 C 8.748380 8.922562 -11.846693 0
M  V30 2 N 8.486038 7.520345 -11.488659 0 CFG=2 CHG=1
M  V30 3 C 9.333597 6.985880 -10.403539 0
M  V30 4 C 8.685856 5.706011 -9.863808 0
M  V30 5 C 8.486140 4.663964 -10.973082 0
M  V30 6 C 7.849155 5.230856 -12.257922 0 CFG=2
M  V30 7 C 7.886081 4.170538 -13.340920 0
M  V30 8 C 8.834373 3.911864 -14.315408 0
M  V30 9 C 10.041156 4.595220 -14.746128 0
M  V30 10 C 10.195821 4.972445 -16.098270 0
M  V30 11 C 11.341887 5.675406 -16.518665 0
M  V30 12 C 12.341494 6.006691 -15.585678 0
M  V30 13 C 12.199288 5.608887 -14.244093 0
M  V30 14 C 11.073401 4.878234 -13.834300 0
M  V30 15 N 8.524570 2.728964 -14.954783 0
M  V30 16 C 7.380249 2.180504 -14.438777 0
M  V30 17 C 6.726934 0.966665 -14.708567 0
M  V30 18 C 5.545188 0.661863 -14.019107 0
M  V30 19 C 5.025932 1.598401 -13.107146 0
M  V30 20 C 5.691772 2.803991 -12.822267 0
M  V30 21 C 6.909740 3.115704 -13.465885 0
M  V30 22 C 8.416813 6.612143 -12.653387 0
M  V30 23 H 9.686020 9.009233 -12.381709 0
M  V30 24 H 7.956098 9.305527 -12.487677 0
M  V30 25 H 8.768871 9.539304 -10.948751 0
M  V30 26 H 9.409051 7.714318 -9.595281 0
M  V30 27 H 10.345082 6.795684 -10.765716 0
M  V30 28 H 7.719495 5.948982 -9.418886 0
M  V30 29 H 9.292246 5.284126 -9.061161 0
M  V30 30 H 7.819861 3.884705 -10.601003 0
M  V30 31 H 9.444513 4.194958 -11.197759 0
M  V30 32 H 6.802548 5.418851 -12.010942 0
M  V30 33 H 9.419470 4.747828 -16.814980 0
M  V30 34 H 11.445607 5.975473 -17.550680 0
M  V30 35 H 13.213466 6.563568 -15.896133 0
M  V30 36 H 12.943687 5.870087 -13.513868 0
M  V30 37 H 10.979300 4.573623 -12.803356 0
M  V30 38 H 9.114091 2.317961 -15.663514 0
M  V30 39 H 7.126292 0.274459 -15.435860 0
M  V30 40 H 5.017886 -0.258991 -14.224422 0
M  V30 41 H 4.085988 1.407146 -12.647080 0
M  V30 42 H 5.284741 3.485504 -12.089293 0
M  V30 43 H 9.423968 6.571945 -13.046727 0
M  V30 44 H 7.790849 7.040351 -13.438916 0
M  V30 45 H 7.544422 7.559347 -11.063429 0
M  V30 END ATOM
M  V30 BEGIN BOND
M  V30 1 1 2 1
M  V30 2 1 3 2
M  V30 3 1 4 3
M  V30 4 1 5 4
M  V30 5 1 6 5
M  V30 6 1 7 6
M  V30 7 2 8 7
M  V30 8 1 9 8
M  V30 9 2 10 9
M  V30 10 1 11 10
M  V30 11 2 12 11
M  V30 12 1 13 12
M  V30 13 1 14 9
M  V30 14 2 14 13
M  V30 15 1 15 8
M  V30 16 1 16 15
M  V30 17 2 17 16
M  V30 18 1 18 17
M  V30 19 2 19 18
M  V30 20 1 20 19
M  V30 21 1 21 7
M  V30 22 1 21 16
M  V30 23 2 21 20
M  V30 24 1 22 2
M  V30 25 1 22 6
M  V30 26 1 23 1
M  V30 27 1 24 1
M  V30 28 1 25 1
M  V30 29 1 26 3
M  V30 30 1 27 3
M  V30 31 1 28 4
M  V30 32 1 29 4
M  V30 33 1 30 5
M  V30 34 1 31 5
M  V30 35 1 6 32 CFG=1
M  V30 36 1 33 10
M  V30 37 1 34 11
M  V30 38 1 35 12
M  V30 39 1 36 13
M  V30 40 1 37 14
M  V30 41 1 38 15
M  V30 42 1 39 17
M  V30 43 1 40 18
M  V30 44 1 41 19
M  V30 45 1 42 20
M  V30 46 1 43 22
M  V30 47 1 44 22
M  V30 48 1 2 45 CFG=1
M  V30 END BOND
M  V30 END CTAB
M  END
>  <b_m_subgroup_collapsed>  (1764) 
0

>  <r_i_docking_score>  (1764) 
-6.7218485716156904

>  <s_m_subgroup_title>  (1764) 
glide-dock_SP_D22_pv

>  <s_m_subgroupid>  (1764) 
glide-dock_SP_D22_pv

>  <Molecule ChEMBL ID>  (1764) 
CHEMBL43819

>  <Standard Type>  (1764) 
Ki

>  <Standard Value>  (1764) 
28.0

>  <label>  (1764) 
1

$$$$
CHEMBL574595
     RDKit          3D

  0  0  0  0  0  0  0  0  0  0999 V3000
M  V30 BEGIN CTAB
M  V30 COUNTS 92 97 0 0 1
M  V30 BEGIN ATOM
M  V30 1 C 7.032024 2.107480 -17.518635 0
M  V30 2 O 6.853964 1.488805 -18.780708 0
M  V30 3 C 5.962254 0.439549 -18.882832 0
M  V30 4 C 5.164380 0.007868 -17.790710 0
M  V30 5 C 4.229567 -1.029022 -17.944063 0
M  V30 6 C 4.075834 -1.653042 -19.192139 0
M  V30 7 C 4.863177 -1.241518 -20.280441 0
M  V30 8 C 5.815483 -0.207099 -20.142529 0
M  V30 9 N 6.597237 0.127785 -21.265795 0
M  V30 10 C 5.971967 0.446964 -22.542889 0
M  V30 11 C 6.243687 1.920599 -22.918749 0
M  V30 12 N 7.680342 2.230319 -22.855770 0
M  V30 13 C 8.003888 3.589639 -23.290951 0
M  V30 14 C 7.277019 4.722699 -22.527277 0
M  V30 15 C 7.855018 6.120890 -22.803741 0
M  V30 16 N 9.036859 6.412704 -22.010727 0
M  V30 17 C 9.126934 7.186341 -20.873343 0
M  V30 18 C 10.461297 7.168892 -20.579803 0
M  V30 19 C 11.193209 7.886289 -19.485674 0
M  V30 20 C 11.737347 6.976170 -18.366701 0
M  V30 21 C 10.744723 5.892821 -17.886517 0
M  V30 22 N 10.869829 5.519845 -16.449635 0 CFG=2 CHG=1
M  V30 23 C 12.224669 5.173111 -15.974397 0
M  V30 24 C 12.458687 5.809978 -14.594504 0
M  V30 25 C 11.290009 5.880520 -13.593576 0
M  V30 26 C 11.360390 6.930414 -12.646324 0
M  V30 27 C 10.405446 7.054560 -11.621198 0
M  V30 28 O 10.503925 8.050542 -10.693718 0
M  V30 29 C 9.371595 6.111708 -11.517129 0
M  V30 30 O 8.486118 6.172075 -10.476433 0
M  V30 31 C 9.282131 5.072909 -12.459300 0
M  V30 32 C 10.190477 4.965385 -13.546115 0
M  V30 33 C 10.022477 3.889473 -14.639298 0 CFG=1
M  V30 34 C 8.921816 2.818538 -14.465770 0
M  V30 35 C 7.574914 3.204547 -14.246855 0
M  V30 36 C 6.549055 2.252424 -14.107125 0
M  V30 37 C 6.842114 0.885011 -14.239351 0
M  V30 38 C 8.159470 0.478473 -14.514477 0
M  V30 39 C 9.196827 1.429907 -14.639767 0
M  V30 40 C 10.587873 0.918492 -14.968452 0
M  V30 41 C 9.856056 4.508774 -16.053499 0
M  V30 42 N 11.115773 6.375489 -21.519642 0
M  V30 43 N 10.250162 5.931877 -22.377726 0
M  V30 44 C 8.224440 1.947283 -21.523033 0
M  V30 45 C 8.012266 0.462252 -21.173414 0
M  V30 46 H 7.692973 2.969123 -17.620768 0
M  V30 47 H 6.090214 2.460191 -17.086544 0
M  V30 48 H 7.509751 1.401550 -16.848387 0
M  V30 49 H 5.237513 0.474480 -16.819349 0
M  V30 50 H 3.624643 -1.346973 -17.107046 0
M  V30 51 H 3.357768 -2.450146 -19.310431 0
M  V30 52 H 4.741477 -1.742209 -21.230097 0
M  V30 53 H 4.896169 0.269273 -22.511793 0
M  V30 54 H 6.378753 -0.215616 -23.308393 0
M  V30 55 H 5.685444 2.568856 -22.246738 0
M  V30 56 H 5.870482 2.118219 -23.924257 0
M  V30 57 H 7.774311 3.673727 -24.354504 0
M  V30 58 H 9.082404 3.713927 -23.210207 0
M  V30 59 H 7.283010 4.557825 -21.450407 0
M  V30 60 H 6.228840 4.725752 -22.826004 0
M  V30 61 H 7.102550 6.874217 -22.563704 0
M  V30 62 H 8.088444 6.247010 -23.863062 0
M  V30 63 H 8.281686 7.679802 -20.416187 0
M  V30 64 H 10.518022 8.618794 -19.046776 0
M  V30 65 H 12.014177 8.470198 -19.904871 0
M  V30 66 H 12.079153 7.604726 -17.542530 0
M  V30 67 H 12.631392 6.473983 -18.739473 0
M  V30 68 H 10.843019 5.006757 -18.515842 0
M  V30 69 H 9.726080 6.258334 -18.026360 0
M  V30 70 H 12.379786 4.093815 -15.969756 0
M  V30 71 H 13.003709 5.541316 -16.640612 0
M  V30 72 H 12.808954 6.830581 -14.758012 0
M  V30 73 H 13.285606 5.291218 -14.111068 0
M  V30 74 H 12.180943 7.633626 -12.677115 0
M  V30 75 H 9.838221 7.944182 -10.030209 0
M  V30 76 H 7.795035 6.835263 -10.530446 0
M  V30 77 H 8.493873 4.358667 -12.297387 0
M  V30 78 H 10.964157 3.355052 -14.578882 0
M  V30 79 H 7.316365 4.250760 -14.175033 0
M  V30 80 H 5.537658 2.571671 -13.903103 0
M  V30 81 H 6.058741 0.146296 -14.147888 0
M  V30 82 H 8.359822 -0.576735 -14.653385 0
M  V30 83 H 10.600469 -0.167474 -15.079489 0
M  V30 84 H 10.952909 1.350870 -15.900938 0
M  V30 85 H 11.282558 1.174328 -14.170144 0
M  V30 86 H 9.861112 3.700549 -16.786592 0
M  V30 87 H 8.886125 4.994594 -16.121958 0
M  V30 88 H 9.292516 2.172751 -21.506601 0
M  V30 89 H 7.754039 2.580666 -20.774046 0
M  V30 90 H 8.412261 0.229648 -20.185635 0
M  V30 91 H 8.561191 -0.162803 -21.879494 0
M  V30 92 H 10.633788 6.355824 -15.931503 0
M  V30 END ATOM
M  V30 BEGIN BOND
M  V30 1 1 2 1
M  V30 2 1 3 2
M  V30 3 2 4 3
M  V30 4 1 5 4
M  V30 5 2 6 5
M  V30 6 1 7 6
M  V30 7 1 8 3
M  V30 8 2 8 7
M  V30 9 1 9 8
M  V30 10 1 10 9
M  V30 11 1 11 10
M  V30 12 1 12 11
M  V30 13 1 13 12
M  V30 14 1 14 13
M  V30 15 1 15 14
M  V30 16 1 16 15
M  V30 17 1 17 16
M  V30 18 2 18 17
M  V30 19 1 19 18
M  V30 20 1 20 19
M  V30 21 1 21 20
M  V30 22 1 22 21
M  V30 23 1 23 22
M  V30 24 1 24 23
M  V30 25 1 25 24
M  V30 26 1 26 25
M  V30 27 2 27 26
M  V30 28 1 28 27
M  V30 29 1 29 27
M  V30 30 1 30 29
M  V30 31 2 31 29
M  V30 32 2 32 25
M  V30 33 1 32 31
M  V30 34 1 33 32
M  V30 35 1 34 33
M  V30 36 2 35 34
M  V30 37 1 36 35
M  V30 38 2 37 36
M  V30 39 1 38 37
M  V30 40 1 39 34
M  V30 41 2 39 38
M  V30 42 1 40 39
M  V30 43 1 41 22
M  V30 44 1 41 33
M  V30 45 1 42 18
M  V30 46 1 43 16
M  V30 47 2 43 42
M  V30 48 1 44 12
M  V30 49 1 45 9
M  V30 50 1 45 44
M  V30 51 1 46 1
M  V30 52 1 47 1
M  V30 53 1 48 1
M  V30 54 1 49 4
M  V30 55 1 50 5
M  V30 56 1 51 6
M  V30 57 1 52 7
M  V30 58 1 53 10
M  V30 59 1 54 10
M  V30 60 1 55 11
M  V30 61 1 56 11
M  V30 62 1 57 13
M  V30 63 1 58 13
M  V30 64 1 59 14
M  V30 65 1 60 14
M  V30 66 1 61 15
M  V30 67 1 62 15
M  V30 68 1 63 17
M  V30 69 1 64 19
M  V30 70 1 65 19
M  V30 71 1 66 20
M  V30 72 1 67 20
M  V30 73 1 68 21
M  V30 74 1 69 21
M  V30 75 1 70 23
M  V30 76 1 71 23
M  V30 77 1 72 24
M  V30 78 1 73 24
M  V30 79 1 74 26
M  V30 80 1 75 28
M  V30 81 1 76 30
M  V30 82 1 77 31
M  V30 83 1 33 78 CFG=3
M  V30 84 1 79 35
M  V30 85 1 80 36
M  V30 86 1 81 37
M  V30 87 1 82 38
M  V30 88 1 83 40
M  V30 89 1 84 40
M  V30 90 1 85 40
M  V30 91 1 86 41
M  V30 92 1 87 41
M  V30 93 1 88 44
M  V30 94 1 89 44
M  V30 95 1 90 45
M  V30 96 1 91 45
M  V30 97 1 22 92 CFG=1
M  V30 END BOND
M  V30 END CTAB
M  END
>  <b_m_subgroup_collapsed>  (1765) 
0

>  <r_i_docking_score>  (1765) 
-6.7199475645706199

>  <s_m_subgroup_title>  (1765) 
glide-dock_SP_D22_pv

>  <s_m_subgroupid>  (1765) 
glide-dock_SP_D22_pv

>  <Molecule ChEMBL ID>  (1765) 
CHEMBL574595

>  <Standard Type>  (1765) 
Ki

>  <Standard Value>  (1765) 
39.1

>  <label>  (1765) 
1

$$$$
CHEMBL597094
     RDKit          3D

  0  0  0  0  0  0  0  0  0  0999 V3000
M  V30 BEGIN CTAB
M  V30 COUNTS 44 48 0 0 1
M  V30 BEGIN ATOM
M  V30 1 C 8.432022 0.604155 -17.097769 0
M  V30 2 C 8.228873 0.784661 -15.589719 0 CFG=2
M  V30 3 C 6.748028 0.814398 -15.160754 0
M  V30 4 C 6.730633 1.992105 -14.246865 0
M  V30 5 C 5.686022 2.406558 -13.411140 0
M  V30 6 C 5.926265 3.512140 -12.576169 0
M  V30 7 C 7.178951 4.172325 -12.591211 0
M  V30 8 C 8.214325 3.795901 -13.489309 0
M  V30 9 C 7.947797 2.656454 -14.299979 0
M  V30 10 O 8.800770 2.032960 -15.171217 0
M  V30 11 C 9.498403 4.553600 -13.491749 0
M  V30 12 C 10.590298 4.229934 -14.344126 0
M  V30 13 C 11.788607 4.961697 -14.386564 0
M  V30 14 C 11.969650 6.055384 -13.535574 0
M  V30 15 C 10.951546 6.422385 -12.646865 0
M  V30 16 C 9.731469 5.690866 -12.664289 0
M  V30 17 C 8.533090 6.225003 -11.858202 0 CFG=1
M  V30 18 C 7.445373 5.194580 -11.511886 0
M  V30 19 N 8.886023 7.085671 -10.696320 0 CFG=1 CHG=1
M  V30 20 C 9.257889 6.372994 -9.446866 0
M  V30 21 C 9.844566 8.130061 -11.090810 0
M  V30 22 C 11.133820 7.454315 -11.544901 0
M  V30 23 H 8.008837 -0.341590 -17.437532 0
M  V30 24 H 9.492928 0.603917 -17.348391 0
M  V30 25 H 7.956750 1.408715 -17.659142 0
M  V30 26 H 8.748035 -0.006946 -15.046842 0
M  V30 27 H 6.086021 0.986592 -16.007998 0
M  V30 28 H 6.446276 -0.101505 -14.651485 0
M  V30 29 H 4.746529 1.874538 -13.380554 0
M  V30 30 H 5.167528 3.820899 -11.872535 0
M  V30 31 H 10.546271 3.402978 -15.027853 0
M  V30 32 H 12.577957 4.668218 -15.063338 0
M  V30 33 H 12.902658 6.594886 -13.540670 0
M  V30 34 H 8.051808 6.899117 -12.569356 0
M  V30 35 H 6.522243 5.709547 -11.240838 0
M  V30 36 H 7.736432 4.596326 -10.649633 0
M  V30 37 H 10.010183 5.603881 -9.626410 0
M  V30 38 H 8.384547 5.902199 -8.994751 0
M  V30 39 H 9.647775 7.068810 -8.703375 0
M  V30 40 H 9.422007 8.727060 -11.900697 0
M  V30 41 H 10.030939 8.814130 -10.261847 0
M  V30 42 H 11.613525 6.972324 -10.694446 0
M  V30 43 H 11.873058 8.172324 -11.878815 0
M  V30 44 H 7.993635 7.544719 -10.467804 0
M  V30 END ATOM
M  V30 BEGIN BOND
M  V30 1 1 2 1
M  V30 2 1 3 2
M  V30 3 1 4 3
M  V30 4 1 5 4
M  V30 5 2 6 5
M  V30 6 1 7 6
M  V30 7 2 8 7
M  V30 8 2 9 4
M  V30 9 1 9 8
M  V30 10 1 10 2
M  V30 11 1 10 9
M  V30 12 1 11 8
M  V30 13 2 12 11
M  V30 14 1 13 12
M  V30 15 2 14 13
M  V30 16 1 15 14
M  V30 17 1 16 11
M  V30 18 2 16 15
M  V30 19 1 17 16
M  V30 20 1 18 7
M  V30 21 1 18 17
M  V30 22 1 19 17
M  V30 23 1 20 19
M  V30 24 1 21 19
M  V30 25 1 22 15
M  V30 26 1 22 21
M  V30 27 1 23 1
M  V30 28 1 24 1
M  V30 29 1 25 1
M  V30 30 1 2 26 CFG=1
M  V30 31 1 27 3
M  V30 32 1 28 3
M  V30 33 1 29 5
M  V30 34 1 30 6
M  V30 35 1 31 12
M  V30 36 1 32 13
M  V30 37 1 33 14
M  V30 38 1 17 34 CFG=3
M  V30 39 1 35 18
M  V30 40 1 36 18
M  V30 41 1 37 20
M  V30 42 1 38 20
M  V30 43 1 39 20
M  V30 44 1 40 21
M  V30 45 1 41 21
M  V30 46 1 42 22
M  V30 47 1 43 22
M  V30 48 1 19 44 CFG=1
M  V30 END BOND
M  V30 END CTAB
M  END
>  <b_m_subgroup_collapsed>  (1766) 
0

>  <r_i_docking_score>  (1766) 
-6.7199096385481303

>  <s_m_subgroup_title>  (1766) 
glide-dock_SP_D22_pv

>  <s_m_subgroupid>  (1766) 
glide-dock_SP_D22_pv

>  <Molecule ChEMBL ID>  (1766) 
CHEMBL597094

>  <Standard Type>  (1766) 
Ki

>  <Standard Value>  (1766) 
10000.0

>  <label>  (1766) 
0

$$$$
CHEMBL609317
     RDKit          3D

  0  0  0  0  0  0  0  0  0  0999 V3000
M  V30 BEGIN CTAB
M  V30 COUNTS 44 48 0 0 1
M  V30 BEGIN ATOM
M  V30 1 C 8.432022 0.604155 -17.097769 0
M  V30 2 C 8.228873 0.784661 -15.589719 0 CFG=2
M  V30 3 C 6.748028 0.814398 -15.160754 0
M  V30 4 C 6.730633 1.992105 -14.246865 0
M  V30 5 C 5.686022 2.406558 -13.411140 0
M  V30 6 C 5.926265 3.512140 -12.576169 0
M  V30 7 C 7.178951 4.172325 -12.591211 0
M  V30 8 C 8.214325 3.795901 -13.489309 0
M  V30 9 C 7.947797 2.656454 -14.299979 0
M  V30 10 O 8.800770 2.032960 -15.171217 0
M  V30 11 C 9.498403 4.553600 -13.491749 0
M  V30 12 C 10.590298 4.229934 -14.344126 0
M  V30 13 C 11.788607 4.961697 -14.386564 0
M  V30 14 C 11.969650 6.055384 -13.535574 0
M  V30 15 C 10.951546 6.422385 -12.646865 0
M  V30 16 C 9.731469 5.690866 -12.664289 0
M  V30 17 C 8.533090 6.225003 -11.858202 0 CFG=1
M  V30 18 C 7.445373 5.194580 -11.511886 0
M  V30 19 N 8.886023 7.085671 -10.696320 0 CFG=1 CHG=1
M  V30 20 C 9.257889 6.372994 -9.446866 0
M  V30 21 C 9.844566 8.130061 -11.090810 0
M  V30 22 C 11.133820 7.454315 -11.544901 0
M  V30 23 H 8.008837 -0.341590 -17.437532 0
M  V30 24 H 9.492928 0.603917 -17.348391 0
M  V30 25 H 7.956750 1.408715 -17.659142 0
M  V30 26 H 8.748035 -0.006946 -15.046842 0
M  V30 27 H 6.086021 0.986592 -16.007998 0
M  V30 28 H 6.446276 -0.101505 -14.651485 0
M  V30 29 H 4.746529 1.874538 -13.380554 0
M  V30 30 H 5.167528 3.820899 -11.872535 0
M  V30 31 H 10.546271 3.402978 -15.027853 0
M  V30 32 H 12.577957 4.668218 -15.063338 0
M  V30 33 H 12.902658 6.594886 -13.540670 0
M  V30 34 H 8.051808 6.899117 -12.569356 0
M  V30 35 H 6.522243 5.709547 -11.240838 0
M  V30 36 H 7.736432 4.596326 -10.649633 0
M  V30 37 H 10.010183 5.603881 -9.626410 0
M  V30 38 H 8.384547 5.902199 -8.994751 0
M  V30 39 H 9.647775 7.068810 -8.703375 0
M  V30 40 H 9.422007 8.727060 -11.900697 0
M  V30 41 H 10.030939 8.814130 -10.261847 0
M  V30 42 H 11.613525 6.972324 -10.694446 0
M  V30 43 H 11.873058 8.172324 -11.878815 0
M  V30 44 H 7.993635 7.544719 -10.467804 0
M  V30 END ATOM
M  V30 BEGIN BOND
M  V30 1 1 2 1
M  V30 2 1 3 2
M  V30 3 1 4 3
M  V30 4 1 5 4
M  V30 5 2 6 5
M  V30 6 1 7 6
M  V30 7 2 8 7
M  V30 8 2 9 4
M  V30 9 1 9 8
M  V30 10 1 10 2
M  V30 11 1 10 9
M  V30 12 1 11 8
M  V30 13 2 12 11
M  V30 14 1 13 12
M  V30 15 2 14 13
M  V30 16 1 15 14
M  V30 17 1 16 11
M  V30 18 2 16 15
M  V30 19 1 17 16
M  V30 20 1 18 7
M  V30 21 1 18 17
M  V30 22 1 19 17
M  V30 23 1 20 19
M  V30 24 1 21 19
M  V30 25 1 22 15
M  V30 26 1 22 21
M  V30 27 1 23 1
M  V30 28 1 24 1
M  V30 29 1 25 1
M  V30 30 1 2 26 CFG=1
M  V30 31 1 27 3
M  V30 32 1 28 3
M  V30 33 1 29 5
M  V30 34 1 30 6
M  V30 35 1 31 12
M  V30 36 1 32 13
M  V30 37 1 33 14
M  V30 38 1 17 34 CFG=3
M  V30 39 1 35 18
M  V30 40 1 36 18
M  V30 41 1 37 20
M  V30 42 1 38 20
M  V30 43 1 39 20
M  V30 44 1 40 21
M  V30 45 1 41 21
M  V30 46 1 42 22
M  V30 47 1 43 22
M  V30 48 1 19 44 CFG=1
M  V30 END BOND
M  V30 END CTAB
M  END
>  <b_m_subgroup_collapsed>  (1767) 
0

>  <r_i_docking_score>  (1767) 
-6.7199096385481303

>  <s_m_subgroup_title>  (1767) 
glide-dock_SP_D22_pv

>  <s_m_subgroupid>  (1767) 
glide-dock_SP_D22_pv

>  <Molecule ChEMBL ID>  (1767) 
CHEMBL609317

>  <Standard Type>  (1767) 
Ki

>  <Standard Value>  (1767) 
10000.0

>  <label>  (1767) 
0

$$$$
CHEMBL5421925
     RDKit          3D

  0  0  0  0  0  0  0  0  0  0999 V3000
M  V30 BEGIN CTAB
M  V30 COUNTS 75 79 0 0 1
M  V30 BEGIN ATOM
M  V30 1 C 11.490124 6.570644 -2.279992 0
M  V30 2 C 12.224491 6.726098 -3.616994 0
M  V30 3 C 11.696753 7.851188 -4.495248 0
M  V30 4 C 11.685950 9.150071 -3.960431 0
M  V30 5 C 11.269010 10.218401 -4.759840 0
M  V30 6 C 10.853148 10.019500 -6.080052 0
M  V30 7 C 10.776248 8.725115 -6.608934 0
M  V30 8 N 10.108540 8.504870 -7.827400 0
M  V30 9 C 8.789955 7.890180 -7.781904 0
M  V30 10 C 8.751913 6.572880 -8.587156 0
M  V30 11 N 9.285872 6.749368 -9.962482 0 CHG=1
M  V30 12 C 9.185579 5.469444 -10.722387 0
M  V30 13 C 9.661941 5.531006 -12.192053 0
M  V30 14 C 9.406930 4.210632 -12.960643 0 CFG=1
M  V30 15 C 7.999978 4.210168 -13.600863 0
M  V30 16 C 7.741386 2.967544 -14.468087 0
M  V30 17 C 8.836483 2.805097 -15.533087 0 CFG=2
M  V30 18 N 8.506646 1.672537 -16.400797 0
M  V30 19 C 8.248498 1.774898 -17.717314 0
M  V30 20 O 8.487600 2.795508 -18.363258 0
M  V30 21 C 7.591694 0.601285 -18.280077 0
M  V30 22 C 7.362606 0.460297 -19.587585 0
M  V30 23 C 6.548648 -0.772817 -19.876181 0 CFG=1
M  V30 24 C 7.294585 -1.714420 -20.809130 0
M  V30 25 C 7.610571 -2.979074 -20.486303 0
M  V30 26 C 7.258966 -3.535895 -19.197199 0
M  V30 27 C 6.664544 -2.790735 -18.251301 0
M  V30 28 C 6.293726 -1.329160 -18.440836 0 CFG=1
M  V30 29 N 7.035597 -0.434922 -17.556612 0
M  V30 30 C 10.206528 2.670957 -14.853703 0
M  V30 31 C 10.497621 3.940083 -14.024964 0
M  V30 32 C 10.656017 7.347010 -9.948409 0
M  V30 33 C 10.757034 8.650848 -9.119011 0
M  V30 34 C 11.285954 7.658878 -5.841822 0
M  V30 35 Cl 11.535194 6.172301 -6.646863 0
M  V30 36 H 12.006805 5.838290 -1.658847 0
M  V30 37 H 11.433936 7.506083 -1.724546 0
M  V30 38 H 10.480421 6.190176 -2.430587 0
M  V30 39 H 12.167154 5.772564 -4.134958 0
M  V30 40 H 13.277530 6.930794 -3.420009 0
M  V30 41 H 12.013227 9.339819 -2.948258 0
M  V30 42 H 11.247281 11.212829 -4.355238 0
M  V30 43 H 10.490278 10.858696 -6.646573 0
M  V30 44 H 8.086679 8.611042 -8.196957 0
M  V30 45 H 8.472862 7.711139 -6.753050 0
M  V30 46 H 7.738503 6.172296 -8.637830 0
M  V30 47 H 9.328959 5.805376 -8.075147 0
M  V30 48 H 8.141566 5.153087 -10.706259 0
M  V30 49 H 9.747607 4.695876 -10.195295 0
M  V30 50 H 10.726884 5.754051 -12.233612 0
M  V30 51 H 9.176454 6.361470 -12.706352 0
M  V30 52 H 9.457973 3.380261 -12.253312 0
M  V30 53 H 7.233245 4.279220 -12.826984 0
M  V30 54 H 7.885383 5.097202 -14.225359 0
M  V30 55 H 6.760580 3.045006 -14.938954 0
M  V30 56 H 7.706055 2.072799 -13.847093 0
M  V30 57 H 8.885530 3.721624 -16.124708 0
M  V30 58 H 8.339031 0.781653 -15.960152 0
M  V30 59 H 7.659475 1.152947 -20.362265 0
M  V30 60 H 5.609930 -0.479480 -20.346973 0
M  V30 61 H 7.567420 -1.323287 -21.777239 0
M  V30 62 H 8.137392 -3.592988 -21.202271 0
M  V30 63 H 7.482333 -4.571296 -18.987766 0
M  V30 64 H 6.414812 -3.234451 -17.299232 0
M  V30 65 H 5.234100 -1.227359 -18.202047 0
M  V30 66 H 6.801170 -0.380707 -16.576525 0
M  V30 67 H 10.230627 1.788389 -14.211713 0
M  V30 68 H 10.986836 2.535077 -15.604138 0
M  V30 69 H 11.470507 3.838090 -13.542806 0
M  V30 70 H 10.576627 4.798395 -14.693866 0
M  V30 71 H 11.338095 6.604200 -9.537844 0
M  V30 72 H 10.992466 7.563288 -10.962208 0
M  V30 73 H 10.267736 9.466166 -9.651010 0
M  V30 74 H 11.801684 8.940209 -8.992686 0
M  V30 75 H 8.655258 7.409431 -10.402817 0
M  V30 END ATOM
M  V30 BEGIN BOND
M  V30 1 1 2 1
M  V30 2 1 3 2
M  V30 3 1 4 3
M  V30 4 2 5 4
M  V30 5 1 6 5
M  V30 6 2 7 6
M  V30 7 1 8 7
M  V30 8 1 9 8
M  V30 9 1 10 9
M  V30 10 1 11 10
M  V30 11 1 12 11
M  V30 12 1 13 12
M  V30 13 1 14 13
M  V30 14 1 15 14
M  V30 15 1 16 15
M  V30 16 1 17 16
M  V30 17 1 18 17
M  V30 18 1 19 18
M  V30 19 2 20 19
M  V30 20 1 21 19
M  V30 21 2 22 21
M  V30 22 1 23 22
M  V30 23 1 24 23
M  V30 24 2 25 24
M  V30 25 1 26 25
M  V30 26 2 27 26
M  V30 27 1 28 23
M  V30 28 1 28 27
M  V30 29 1 29 21
M  V30 30 1 29 28
M  V30 31 1 30 17
M  V30 32 1 31 14
M  V30 33 1 31 30
M  V30 34 1 32 11
M  V30 35 1 33 8
M  V30 36 1 33 32
M  V30 37 2 34 3
M  V30 38 1 34 7
M  V30 39 1 35 34
M  V30 40 1 36 1
M  V30 41 1 37 1
M  V30 42 1 38 1
M  V30 43 1 39 2
M  V30 44 1 40 2
M  V30 45 1 41 4
M  V30 46 1 42 5
M  V30 47 1 43 6
M  V30 48 1 44 9
M  V30 49 1 45 9
M  V30 50 1 46 10
M  V30 51 1 47 10
M  V30 52 1 48 12
M  V30 53 1 49 12
M  V30 54 1 50 13
M  V30 55 1 51 13
M  V30 56 1 14 52 CFG=1
M  V30 57 1 53 15
M  V30 58 1 54 15
M  V30 59 1 55 16
M  V30 60 1 56 16
M  V30 61 1 17 57 CFG=3
M  V30 62 1 58 18
M  V30 63 1 59 22
M  V30 64 1 23 60 CFG=3
M  V30 65 1 61 24
M  V30 66 1 62 25
M  V30 67 1 63 26
M  V30 68 1 64 27
M  V30 69 1 28 65 CFG=1
M  V30 70 1 66 29
M  V30 71 1 67 30
M  V30 72 1 68 30
M  V30 73 1 69 31
M  V30 74 1 70 31
M  V30 75 1 71 32
M  V30 76 1 72 32
M  V30 77 1 73 33
M  V30 78 1 74 33
M  V30 79 1 75 11
M  V30 END BOND
M  V30 END CTAB
M  END
>  <b_m_subgroup_collapsed>  (1768) 
0

>  <r_i_docking_score>  (1768) 
-6.7181063957477098

>  <s_m_subgroup_title>  (1768) 
glide-dock_SP_D22_pv

>  <s_m_subgroupid>  (1768) 
glide-dock_SP_D22_pv

>  <Molecule ChEMBL ID>  (1768) 
CHEMBL5421925

>  <Standard Type>  (1768) 
Ki

>  <Standard Value>  (1768) 
5.76

>  <label>  (1768) 
1

$$$$
CHEMBL5817624
     RDKit          3D

  0  0  0  0  0  0  0  0  0  0999 V3000
M  V30 BEGIN CTAB
M  V30 COUNTS 55 58 0 0 1
M  V30 BEGIN ATOM
M  V30 1 C 11.970572 10.006662 -3.047185 0
M  V30 2 C 11.681783 8.903807 -4.024471 0
M  V30 3 C 11.982809 7.586954 -3.653423 0
M  V30 4 C 11.687472 6.572215 -4.567098 0
M  V30 5 C 11.151636 6.901226 -5.819168 0
M  V30 6 C 10.838344 8.246492 -6.090790 0
M  V30 7 C 10.067582 8.642793 -7.350994 0 CFG=1
M  V30 8 C 10.825262 8.505539 -8.688211 0
M  V30 9 C 10.714594 7.108279 -9.335704 0
M  V30 10 N 9.310440 6.617582 -9.435154 0 CFG=1 CHG=1
M  V30 11 C 9.209011 5.315015 -10.153305 0
M  V30 12 C 9.270801 5.470116 -11.687234 0
M  V30 13 N 9.322183 4.172281 -12.359253 0
M  V30 14 C 9.287105 4.010740 -13.691854 0
M  V30 15 O 9.087213 4.946307 -14.466679 0
M  V30 16 C 9.528772 2.582522 -14.218918 0 CFG=1
M  V30 17 C 8.731026 2.181214 -15.467779 0
M  V30 18 C 9.840554 1.713902 -16.418762 0 CFG=1
M  V30 19 C 10.659024 2.888945 -16.969957 0
M  V30 20 C 11.510340 3.269230 -15.760962 0
M  V30 21 C 10.975039 2.309848 -14.684092 0 CFG=2
M  V30 22 O 10.757729 1.162618 -15.489267 0
M  V30 23 C 8.690943 6.572693 -8.090226 0
M  V30 24 C 8.680982 7.981876 -7.446379 0
M  V30 25 N 11.111477 9.238801 -5.207301 0
M  V30 26 H 11.685057 9.716175 -2.037095 0
M  V30 27 H 13.042443 10.172297 -3.049424 0
M  V30 28 H 11.442408 10.919401 -3.308521 0
M  V30 29 H 12.423825 7.356712 -2.694992 0
M  V30 30 H 11.930563 5.554734 -4.320711 0
M  V30 31 H 10.979927 6.108739 -6.522257 0
M  V30 32 H 9.885753 9.712405 -7.235475 0
M  V30 33 H 10.397353 9.221629 -9.391786 0
M  V30 34 H 11.868826 8.800008 -8.568158 0
M  V30 35 H 11.177413 7.141870 -10.321525 0
M  V30 36 H 11.286052 6.392008 -8.750340 0
M  V30 37 H 9.990291 4.640611 -9.797542 0
M  V30 38 H 8.258765 4.835783 -9.909270 0
M  V30 39 H 8.399135 6.028471 -12.035370 0
M  V30 40 H 10.150392 6.038033 -11.990241 0
M  V30 41 H 9.475572 3.348395 -11.793255 0
M  V30 42 H 9.285935 1.862003 -13.443326 0
M  V30 43 H 8.062969 1.352129 -15.232185 0
M  V30 44 H 8.124827 2.972310 -15.902668 0
M  V30 45 H 9.500455 1.014251 -17.182707 0
M  V30 46 H 11.292507 2.572212 -17.799122 0
M  V30 47 H 10.024643 3.706718 -17.314419 0
M  V30 48 H 11.434797 4.322927 -15.493816 0
M  V30 49 H 12.561175 3.056180 -15.961511 0
M  V30 50 H 11.669946 2.141969 -13.861302 0
M  V30 51 H 7.686104 6.172330 -8.178135 0
M  V30 52 H 9.192700 5.840447 -7.466012 0
M  V30 53 H 8.182684 7.969044 -6.477190 0
M  V30 54 H 8.086082 8.636076 -8.078007 0
M  V30 55 H 8.752119 7.283350 -9.958781 0
M  V30 END ATOM
M  V30 BEGIN BOND
M  V30 1 1 2 1
M  V30 2 1 3 2
M  V30 3 2 4 3
M  V30 4 1 5 4
M  V30 5 2 6 5
M  V30 6 1 7 6
M  V30 7 1 8 7
M  V30 8 1 9 8
M  V30 9 1 10 9
M  V30 10 1 11 10
M  V30 11 1 12 11
M  V30 12 1 13 12
M  V30 13 1 14 13
M  V30 14 2 15 14
M  V30 15 1 16 14
M  V30 16 1 17 16
M  V30 17 1 18 17
M  V30 18 1 19 18
M  V30 19 1 20 19
M  V30 20 1 21 16
M  V30 21 1 21 20
M  V30 22 1 22 18
M  V30 23 1 22 21
M  V30 24 1 23 10
M  V30 25 1 24 7
M  V30 26 1 24 23
M  V30 27 2 25 2
M  V30 28 1 25 6
M  V30 29 1 26 1
M  V30 30 1 27 1
M  V30 31 1 28 1
M  V30 32 1 29 3
M  V30 33 1 30 4
M  V30 34 1 31 5
M  V30 35 1 7 32 CFG=1
M  V30 36 1 33 8
M  V30 37 1 34 8
M  V30 38 1 35 9
M  V30 39 1 36 9
M  V30 40 1 37 11
M  V30 41 1 38 11
M  V30 42 1 39 12
M  V30 43 1 40 12
M  V30 44 1 41 13
M  V30 45 1 16 42 CFG=1
M  V30 46 1 43 17
M  V30 47 1 44 17
M  V30 48 1 18 45 CFG=3
M  V30 49 1 46 19
M  V30 50 1 47 19
M  V30 51 1 48 20
M  V30 52 1 49 20
M  V30 53 1 21 50 CFG=1
M  V30 54 1 51 23
M  V30 55 1 52 23
M  V30 56 1 53 24
M  V30 57 1 54 24
M  V30 58 1 10 55 CFG=3
M  V30 END BOND
M  V30 END CTAB
M  END
>  <b_m_subgroup_collapsed>  (1769) 
0

>  <r_i_docking_score>  (1769) 
-6.71052938801009

>  <s_m_subgroup_title>  (1769) 
glide-dock_SP_D22_pv

>  <s_m_subgroupid>  (1769) 
glide-dock_SP_D22_pv

>  <Molecule ChEMBL ID>  (1769) 
CHEMBL5817624

>  <Standard Type>  (1769) 
Ki

>  <Standard Value>  (1769) 
7.1

>  <label>  (1769) 
1

$$$$
CHEMBL51433
     RDKit          3D

  0  0  0  0  0  0  0  0  0  0999 V3000
M  V30 BEGIN CTAB
M  V30 COUNTS 52 55 0 0 1
M  V30 BEGIN ATOM
M  V30 1 C 5.406604 1.089886 -13.660507 0
M  V30 2 O 6.304216 2.165744 -13.896917 0
M  V30 3 C 7.607281 1.870749 -14.246996 0
M  V30 4 C 7.981940 0.586894 -14.720881 0
M  V30 5 C 9.302748 0.322376 -15.118971 0
M  V30 6 C 10.272891 1.330604 -15.042523 0
M  V30 7 C 9.922159 2.602604 -14.560926 0
M  V30 8 C 8.593638 2.897653 -14.161756 0
M  V30 9 N 8.260862 4.193809 -13.701406 0
M  V30 10 C 7.541888 4.377523 -12.437861 0
M  V30 11 C 8.513677 4.747250 -11.299427 0
M  V30 12 N 9.261181 5.960655 -11.647560 0
M  V30 13 C 10.087069 6.393511 -10.522225 0
M  V30 14 C 9.269642 7.289786 -9.572268 0
M  V30 15 N 10.050235 7.745950 -8.400223 0
M  V30 16 C 10.846945 8.847324 -8.555573 0
M  V30 17 O 11.055913 9.371674 -9.646443 0
M  V30 18 N 11.412495 9.372657 -7.446490 0
M  V30 19 C 11.452518 8.730697 -6.198212 0
M  V30 20 C 12.200678 9.251340 -5.124565 0
M  V30 21 C 12.306492 8.516074 -3.927629 0
M  V30 22 C 11.700297 7.248179 -3.831217 0
M  V30 23 C 10.943432 6.744033 -4.907615 0
M  V30 24 C 10.779222 7.509705 -6.079818 0
M  V30 25 C 9.895208 7.081322 -7.218043 0
M  V30 26 O 9.089952 6.172396 -7.046845 0
M  V30 27 C 10.061707 5.669792 -12.839963 0
M  V30 28 C 9.115455 5.334824 -14.016946 0
M  V30 29 H 4.479519 1.485946 -13.246372 0
M  V30 30 H 5.154786 0.566326 -14.582915 0
M  V30 31 H 5.814198 0.378893 -12.939717 0
M  V30 32 H 7.267027 -0.216352 -14.811576 0
M  V30 33 H 9.570457 -0.653746 -15.490452 0
M  V30 34 H 11.287825 1.126071 -15.348193 0
M  V30 35 H 10.704661 3.341731 -14.497607 0
M  V30 36 H 6.806760 5.173306 -12.565719 0
M  V30 37 H 6.981019 3.494770 -12.139820 0
M  V30 38 H 7.945073 4.897869 -10.381584 0
M  V30 39 H 9.209395 3.927050 -11.115386 0
M  V30 40 H 10.486102 5.531780 -9.987606 0
M  V30 41 H 10.937902 6.967667 -10.891891 0
M  V30 42 H 8.887375 8.149739 -10.126752 0
M  V30 43 H 8.366814 6.765171 -9.262660 0
M  V30 44 H 11.966248 10.206696 -7.557211 0
M  V30 45 H 12.738913 10.176037 -5.233666 0
M  V30 46 H 12.886673 8.904262 -3.103247 0
M  V30 47 H 11.805919 6.662939 -2.928920 0
M  V30 48 H 10.479838 5.776692 -4.809156 0
M  V30 49 H 10.662123 6.543198 -13.095097 0
M  V30 50 H 10.755171 4.848276 -12.653113 0
M  V30 51 H 9.670533 5.184086 -14.942632 0
M  V30 52 H 8.454466 6.172535 -14.213209 0
M  V30 END ATOM
M  V30 BEGIN BOND
M  V30 1 1 2 1
M  V30 2 1 3 2
M  V30 3 2 4 3
M  V30 4 1 5 4
M  V30 5 2 6 5
M  V30 6 1 7 6
M  V30 7 1 8 3
M  V30 8 2 8 7
M  V30 9 1 9 8
M  V30 10 1 10 9
M  V30 11 1 11 10
M  V30 12 1 12 11
M  V30 13 1 13 12
M  V30 14 1 14 13
M  V30 15 1 15 14
M  V30 16 1 16 15
M  V30 17 2 17 16
M  V30 18 1 18 16
M  V30 19 1 19 18
M  V30 20 1 20 19
M  V30 21 2 21 20
M  V30 22 1 22 21
M  V30 23 2 23 22
M  V30 24 2 24 19
M  V30 25 1 24 23
M  V30 26 1 25 15
M  V30 27 1 25 24
M  V30 28 2 26 25
M  V30 29 1 27 12
M  V30 30 1 28 9
M  V30 31 1 28 27
M  V30 32 1 29 1
M  V30 33 1 30 1
M  V30 34 1 31 1
M  V30 35 1 32 4
M  V30 36 1 33 5
M  V30 37 1 34 6
M  V30 38 1 35 7
M  V30 39 1 36 10
M  V30 40 1 37 10
M  V30 41 1 38 11
M  V30 42 1 39 11
M  V30 43 1 40 13
M  V30 44 1 41 13
M  V30 45 1 42 14
M  V30 46 1 43 14
M  V30 47 1 44 18
M  V30 48 1 45 20
M  V30 49 1 46 21
M  V30 50 1 47 22
M  V30 51 1 48 23
M  V30 52 1 49 27
M  V30 53 1 50 27
M  V30 54 1 51 28
M  V30 55 1 52 28
M  V30 END BOND
M  V30 END CTAB
M  END
>  <b_m_subgroup_collapsed>  (1770) 
0

>  <r_i_docking_score>  (1770) 
-6.7079424294358798

>  <s_m_subgroup_title>  (1770) 
glide-dock_SP_D22_pv

>  <s_m_subgroupid>  (1770) 
glide-dock_SP_D22_pv

>  <Molecule ChEMBL ID>  (1770) 
CHEMBL51433

>  <Standard Type>  (1770) 
Ki

>  <Standard Value>  (1770) 
32.0

>  <label>  (1770) 
1

$$$$
CHEMBL437792
     RDKit          3D

  0  0  0  0  0  0  0  0  0  0999 V3000
M  V30 BEGIN CTAB
M  V30 COUNTS 61 65 0 0 1
M  V30 BEGIN ATOM
M  V30 1 C 11.628684 6.752362 -4.744737 0
M  V30 2 C 11.286115 8.044885 -5.420185 0
M  V30 3 N 11.629511 9.255833 -4.832324 0
M  V30 4 C 11.285208 10.169712 -5.731570 0
M  V30 5 O 10.723699 9.650392 -6.853293 0
M  V30 6 C 10.715486 8.295328 -6.647549 0
M  V30 7 C 10.194236 7.424709 -7.703465 0
M  V30 8 N 9.803087 6.173889 -7.450194 0
M  V30 9 N 9.403193 5.641294 -8.651810 0
M  V30 10 C 9.589421 6.610877 -9.549888 0
M  V30 11 S 9.285983 6.434853 -11.286774 0
M  V30 12 C 9.239121 4.620845 -11.426131 0
M  V30 13 C 9.238505 4.137224 -12.886247 0
M  V30 14 C 10.392820 4.706911 -13.745977 0
M  V30 15 N 10.546251 4.062075 -15.082604 0 CFG=1 CHG=1
M  V30 16 C 11.272059 2.771200 -15.018907 0
M  V30 17 C 11.862286 2.357055 -16.379839 0
M  V30 18 C 10.847597 1.596653 -17.202484 0
M  V30 19 C 11.077601 0.228551 -17.474253 0
M  V30 20 C 10.108541 -0.543196 -18.139980 0
M  V30 21 C 8.919625 0.088286 -18.529163 0
M  V30 22 O 7.821838 -0.459848 -19.164772 0
M  V30 23 C 6.975087 0.606585 -19.301155 0
M  V30 24 C 5.629258 0.370349 -19.916018 0
M  V30 25 C 4.532372 0.249115 -18.852728 0
M  V30 26 F 5.318630 1.372333 -20.736307 0
M  V30 27 F 5.632002 -0.756676 -20.629301 0
M  V30 28 N 7.412237 1.772282 -18.794846 0
M  V30 29 C 8.665257 1.460798 -18.299997 0
M  V30 30 C 9.654939 2.227354 -17.629782 0
M  V30 31 C 9.435026 3.708849 -17.361753 0
M  V30 32 C 9.286291 4.052413 -15.868095 0
M  V30 33 N 10.086752 7.746404 -9.014428 0
M  V30 34 C 10.448949 8.989132 -9.680584 0
M  V30 35 H 11.775096 5.945421 -5.465065 0
M  V30 36 H 10.864945 6.436262 -4.038381 0
M  V30 37 H 12.547653 6.855106 -4.168706 0
M  V30 38 H 11.411722 11.232800 -5.608977 0
M  V30 39 H 10.086066 4.192494 -10.896140 0
M  V30 40 H 8.343118 4.259645 -10.919660 0
M  V30 41 H 9.286372 3.048300 -12.879628 0
M  V30 42 H 8.279012 4.402062 -13.330338 0
M  V30 43 H 10.223264 5.770422 -13.914367 0
M  V30 44 H 11.333029 4.648241 -13.195069 0
M  V30 45 H 12.089001 2.898275 -14.314352 0
M  V30 46 H 10.643728 1.982453 -14.603858 0
M  V30 47 H 12.224919 3.223480 -16.935459 0
M  V30 48 H 12.738072 1.726224 -16.247030 0
M  V30 49 H 12.001387 -0.227545 -17.153196 0
M  V30 50 H 10.265809 -1.594360 -18.334913 0
M  V30 51 H 3.553840 0.098732 -19.308434 0
M  V30 52 H 4.486044 1.155312 -18.248844 0
M  V30 53 H 4.721078 -0.588236 -18.181314 0
M  V30 54 H 10.245926 4.285322 -17.809811 0
M  V30 55 H 8.534024 4.028145 -17.885893 0
M  V30 56 H 8.547814 3.388091 -15.414121 0
M  V30 57 H 8.885758 5.065353 -15.805944 0
M  V30 58 H 10.479768 8.861158 -10.760235 0
M  V30 59 H 11.437299 9.312346 -9.353106 0
M  V30 60 H 9.721537 9.766025 -9.443164 0
M  V30 61 H 11.170092 4.678550 -15.586524 0
M  V30 END ATOM
M  V30 BEGIN BOND
M  V30 1 1 2 1
M  V30 2 1 3 2
M  V30 3 2 4 3
M  V30 4 1 5 4
M  V30 5 2 6 2
M  V30 6 1 6 5
M  V30 7 1 7 6
M  V30 8 2 8 7
M  V30 9 1 9 8
M  V30 10 2 10 9
M  V30 11 1 11 10
M  V30 12 1 12 11
M  V30 13 1 13 12
M  V30 14 1 14 13
M  V30 15 1 15 14
M  V30 16 1 16 15
M  V30 17 1 17 16
M  V30 18 1 18 17
M  V30 19 1 19 18
M  V30 20 2 20 19
M  V30 21 1 21 20
M  V30 22 1 22 21
M  V30 23 1 23 22
M  V30 24 1 24 23
M  V30 25 1 25 24
M  V30 26 1 26 24
M  V30 27 1 27 24
M  V30 28 2 28 23
M  V30 29 2 29 21
M  V30 30 1 29 28
M  V30 31 2 30 18
M  V30 32 1 30 29
M  V30 33 1 31 30
M  V30 34 1 32 15
M  V30 35 1 32 31
M  V30 36 1 33 7
M  V30 37 1 33 10
M  V30 38 1 34 33
M  V30 39 1 35 1
M  V30 40 1 36 1
M  V30 41 1 37 1
M  V30 42 1 38 4
M  V30 43 1 39 12
M  V30 44 1 40 12
M  V30 45 1 41 13
M  V30 46 1 42 13
M  V30 47 1 43 14
M  V30 48 1 44 14
M  V30 49 1 45 16
M  V30 50 1 46 16
M  V30 51 1 47 17
M  V30 52 1 48 17
M  V30 53 1 49 19
M  V30 54 1 50 20
M  V30 55 1 51 25
M  V30 56 1 52 25
M  V30 57 1 53 25
M  V30 58 1 54 31
M  V30 59 1 55 31
M  V30 60 1 56 32
M  V30 61 1 57 32
M  V30 62 1 58 34
M  V30 63 1 59 34
M  V30 64 1 60 34
M  V30 65 1 15 61 CFG=3
M  V30 END BOND
M  V30 END CTAB
M  END
>  <b_m_subgroup_collapsed>  (1771) 
0

>  <r_i_docking_score>  (1771) 
-6.7075016003065899

>  <s_m_subgroup_title>  (1771) 
glide-dock_SP_D22_pv

>  <s_m_subgroupid>  (1771) 
glide-dock_SP_D22_pv

>  <Molecule ChEMBL ID>  (1771) 
CHEMBL437792

>  <Standard Type>  (1771) 
Ki

>  <Standard Value>  (1771) 
15.85

>  <label>  (1771) 
1

$$$$
CHEMBL201375
     RDKit          3D

  0  0  0  0  0  0  0  0  0  0999 V3000
M  V30 BEGIN CTAB
M  V30 COUNTS 48 51 0 0 1
M  V30 BEGIN ATOM
M  V30 1 C 7.523433 8.717380 -12.271173 0
M  V30 2 N 8.486025 7.684655 -11.846864 0 CFG=2 CHG=1
M  V30 3 C 9.768425 8.333105 -11.562009 0
M  V30 4 C 10.791812 7.484138 -10.806844 0
M  V30 5 C 10.355214 7.172947 -9.408021 0
M  V30 6 C 9.418579 6.257430 -8.975049 0
M  V30 7 N 9.355671 6.320124 -7.595512 0
M  V30 8 C 10.225888 7.258331 -7.097672 0
M  V30 9 C 10.534935 7.656402 -5.790529 0
M  V30 10 C 11.421515 8.726199 -5.575467 0
M  V30 11 C 12.020012 9.359805 -6.679931 0
M  V30 12 C 11.745060 8.907195 -7.989339 0
M  V30 13 C 10.838925 7.848837 -8.232219 0
M  V30 14 C 8.493919 5.314649 -9.679670 0
M  V30 15 C 8.917288 4.803760 -11.062681 0
M  V30 16 C 8.081314 5.256880 -12.266298 0 CFG=2
M  V30 17 C 8.106993 4.171053 -13.341203 0
M  V30 18 C 6.931669 3.450848 -13.648686 0
M  V30 19 C 6.976248 2.381233 -14.564704 0
M  V30 20 C 8.185357 2.037592 -15.197076 0
M  V30 21 C 9.357184 2.759268 -14.906280 0
M  V30 22 C 9.319656 3.816689 -13.977991 0
M  V30 23 C 8.593933 6.572322 -12.821423 0
M  V30 24 H 7.974337 9.331452 -13.046869 0
M  V30 25 H 7.285871 9.386971 -11.446869 0
M  V30 26 H 6.593641 8.280846 -12.641589 0
M  V30 27 H 10.102696 8.572326 -12.560195 0
M  V30 28 H 9.598933 9.252563 -11.001990 0
M  V30 29 H 11.049685 6.588684 -11.361428 0
M  V30 30 H 11.725872 8.045415 -10.773352 0
M  V30 31 H 8.706259 5.772392 -7.050110 0
M  V30 32 H 10.085997 7.132648 -4.965683 0
M  V30 33 H 11.653933 9.049212 -4.571002 0
M  V30 34 H 12.717175 10.170444 -6.521914 0
M  V30 35 H 12.236762 9.372302 -8.830179 0
M  V30 36 H 8.345077 4.446375 -9.035054 0
M  V30 37 H 7.513027 5.772681 -9.752337 0
M  V30 38 H 9.991401 4.782871 -11.225990 0
M  V30 39 H 8.668530 3.772323 -11.039705 0
M  V30 40 H 7.042239 5.387077 -11.957161 0
M  V30 41 H 5.999039 3.690556 -13.158617 0
M  V30 42 H 6.086043 1.810165 -14.773964 0
M  V30 43 H 8.215724 1.214065 -15.895597 0
M  V30 44 H 10.289186 2.489605 -15.381121 0
M  V30 45 H 10.237688 4.333539 -13.741645 0
M  V30 46 H 8.039413 6.797478 -13.728690 0
M  V30 47 H 9.630833 6.435727 -13.123196 0
M  V30 48 H 8.103584 7.328117 -10.975748 0
M  V30 END ATOM
M  V30 BEGIN BOND
M  V30 1 1 2 1
M  V30 2 1 3 2
M  V30 3 1 4 3
M  V30 4 1 5 4
M  V30 5 2 6 5
M  V30 6 1 7 6
M  V30 7 1 8 7
M  V30 8 2 9 8
M  V30 9 1 10 9
M  V30 10 2 11 10
M  V30 11 1 12 11
M  V30 12 1 13 5
M  V30 13 1 13 8
M  V30 14 2 13 12
M  V30 15 1 14 6
M  V30 16 1 15 14
M  V30 17 1 16 15
M  V30 18 1 17 16
M  V30 19 2 18 17
M  V30 20 1 19 18
M  V30 21 2 20 19
M  V30 22 1 21 20
M  V30 23 1 22 17
M  V30 24 2 22 21
M  V30 25 1 23 2
M  V30 26 1 23 16
M  V30 27 1 24 1
M  V30 28 1 25 1
M  V30 29 1 26 1
M  V30 30 1 27 3
M  V30 31 1 28 3
M  V30 32 1 29 4
M  V30 33 1 30 4
M  V30 34 1 31 7
M  V30 35 1 32 9
M  V30 36 1 33 10
M  V30 37 1 34 11
M  V30 38 1 35 12
M  V30 39 1 36 14
M  V30 40 1 37 14
M  V30 41 1 38 15
M  V30 42 1 39 15
M  V30 43 1 16 40 CFG=1
M  V30 44 1 41 18
M  V30 45 1 42 19
M  V30 46 1 43 20
M  V30 47 1 44 21
M  V30 48 1 45 22
M  V30 49 1 46 23
M  V30 50 1 47 23
M  V30 51 1 2 48 CFG=1
M  V30 END BOND
M  V30 END CTAB
M  END
>  <b_m_subgroup_collapsed>  (1772) 
0

>  <r_i_docking_score>  (1772) 
-6.7053631928870399

>  <s_m_subgroup_title>  (1772) 
glide-dock_SP_D22_pv

>  <s_m_subgroupid>  (1772) 
glide-dock_SP_D22_pv

>  <Molecule ChEMBL ID>  (1772) 
CHEMBL201375

>  <Standard Type>  (1772) 
Ki

>  <Standard Value>  (1772) 
10000.0

>  <label>  (1772) 
0

$$$$
CHEMBL311539
     RDKit          3D

  0  0  0  0  0  0  0  0  0  0999 V3000
M  V30 BEGIN CTAB
M  V30 COUNTS 44 47 0 0 1
M  V30 BEGIN ATOM
M  V30 1 Cl 8.882367 5.156816 -11.155986 0
M  V30 2 C 9.942710 5.369671 -12.503779 0
M  V30 3 C 10.006308 4.326743 -13.446175 0
M  V30 4 C 10.890969 4.408909 -14.531414 0
M  V30 5 C 11.712017 5.538086 -14.661535 0
M  V30 6 N 12.647576 5.887576 -15.612242 0
M  V30 7 C 13.198051 7.120867 -15.327703 0
M  V30 8 C 12.646654 7.594172 -14.165004 0
M  V30 9 C 11.686049 6.613702 -13.721468 0
M  V30 10 C 10.768152 6.521616 -12.634974 0
M  V30 11 N 10.689216 7.561155 -11.683313 0
M  V30 12 C 11.751482 7.748521 -10.713957 0
M  V30 13 C 11.202472 7.637219 -9.281980 0
M  V30 14 N 10.087688 8.591826 -9.055511 0 CHG=1
M  V30 15 C 9.451139 8.499540 -7.709390 0
M  V30 16 C 10.401989 8.359962 -6.532404 0
M  V30 17 C 10.501871 7.118337 -5.868701 0
M  V30 18 C 11.309282 6.983702 -4.727016 0
M  V30 19 C 12.039527 8.090398 -4.247246 0
M  V30 20 C 11.956769 9.325670 -4.917055 0
M  V30 21 C 11.136295 9.465463 -6.054464 0
M  V30 22 C 9.031550 8.477292 -10.092379 0
M  V30 23 C 9.491099 8.373636 -11.552755 0
M  V30 24 H 9.379067 3.455676 -13.326459 0
M  V30 25 H 10.937712 3.612606 -15.260034 0
M  V30 26 H 12.909561 5.337550 -16.417330 0
M  V30 27 H 13.949462 7.560986 -15.968405 0
M  V30 28 H 12.886323 8.528544 -13.676605 0
M  V30 29 H 12.239248 8.711494 -10.877469 0
M  V30 30 H 12.489657 6.972725 -10.870671 0
M  V30 31 H 12.014263 7.823731 -8.578065 0
M  V30 32 H 10.849683 6.619462 -9.104170 0
M  V30 33 H 8.767867 7.646685 -7.682376 0
M  V30 34 H 8.820615 9.371807 -7.555344 0
M  V30 35 H 9.940633 6.264883 -6.221708 0
M  V30 36 H 11.370567 6.033210 -4.219996 0
M  V30 37 H 12.664839 7.987938 -3.373971 0
M  V30 38 H 12.525211 10.166208 -4.553167 0
M  V30 39 H 11.066781 10.425142 -6.545203 0
M  V30 40 H 8.491834 7.557780 -9.878581 0
M  V30 41 H 8.322840 9.303168 -9.994723 0
M  V30 42 H 9.685628 9.372257 -11.936927 0
M  V30 43 H 8.684851 7.970205 -12.166865 0
M  V30 44 H 10.488543 9.513346 -9.144655 0
M  V30 END ATOM
M  V30 BEGIN BOND
M  V30 1 1 2 1
M  V30 2 2 3 2
M  V30 3 1 4 3
M  V30 4 2 5 4
M  V30 5 1 6 5
M  V30 6 1 7 6
M  V30 7 2 8 7
M  V30 8 1 9 5
M  V30 9 1 9 8
M  V30 10 1 10 2
M  V30 11 2 10 9
M  V30 12 1 11 10
M  V30 13 1 12 11
M  V30 14 1 13 12
M  V30 15 1 14 13
M  V30 16 1 15 14
M  V30 17 1 16 15
M  V30 18 2 17 16
M  V30 19 1 18 17
M  V30 20 2 19 18
M  V30 21 1 20 19
M  V30 22 1 21 16
M  V30 23 2 21 20
M  V30 24 1 22 14
M  V30 25 1 23 11
M  V30 26 1 23 22
M  V30 27 1 24 3
M  V30 28 1 25 4
M  V30 29 1 26 6
M  V30 30 1 27 7
M  V30 31 1 28 8
M  V30 32 1 29 12
M  V30 33 1 30 12
M  V30 34 1 31 13
M  V30 35 1 32 13
M  V30 36 1 33 15
M  V30 37 1 34 15
M  V30 38 1 35 17
M  V30 39 1 36 18
M  V30 40 1 37 19
M  V30 41 1 38 20
M  V30 42 1 39 21
M  V30 43 1 40 22
M  V30 44 1 41 22
M  V30 45 1 42 23
M  V30 46 1 43 23
M  V30 47 1 44 14
M  V30 END BOND
M  V30 END CTAB
M  END
>  <b_m_subgroup_collapsed>  (1773) 
0

>  <r_i_docking_score>  (1773) 
-6.7026210097454797

>  <s_m_subgroup_title>  (1773) 
glide-dock_SP_D22_pv

>  <s_m_subgroupid>  (1773) 
glide-dock_SP_D22_pv

>  <Molecule ChEMBL ID>  (1773) 
CHEMBL311539

>  <Standard Type>  (1773) 
Ki

>  <Standard Value>  (1773) 
81.3

>  <label>  (1773) 
1

$$$$
CHEMBL4435946
     RDKit          3D

  0  0  0  0  0  0  0  0  0  0999 V3000
M  V30 BEGIN CTAB
M  V30 COUNTS 61 64 0 0 1
M  V30 BEGIN ATOM
M  V30 1 C 7.079108 6.779775 -12.781785 0
M  V30 2 C 7.265235 5.452498 -12.024297 0 CFG=1
M  V30 3 C 6.742879 4.278203 -12.869407 0
M  V30 4 O 7.600455 4.075460 -13.990962 0
M  V30 5 C 8.932876 3.723218 -13.632565 0 CFG=1
M  V30 6 C 9.780233 3.432160 -14.857535 0
M  V30 7 C 10.486383 2.217669 -14.983193 0
M  V30 8 C 11.283119 2.010382 -16.125204 0
M  V30 9 C 11.341426 3.027644 -17.095636 0
M  V30 10 N 12.122094 2.865985 -18.232203 0
M  V30 11 N 10.667785 4.189744 -16.990194 0
M  V30 12 C 9.906137 4.381973 -15.893187 0
M  V30 13 C 9.547179 4.847099 -12.774512 0
M  V30 14 N 8.667443 5.152560 -11.622208 0 CFG=1 CHG=1
M  V30 15 C 9.247456 6.026140 -10.572078 0
M  V30 16 C 9.949462 7.314042 -11.072595 0
M  V30 17 C 10.442945 8.214216 -9.930425 0
M  V30 18 C 9.318371 8.686054 -8.977231 0
M  V30 19 O 9.836857 9.372307 -7.850080 0
M  V30 20 C 10.419984 8.664307 -6.826550 0
M  V30 21 C 10.618810 7.263067 -6.859361 0
M  V30 22 C 11.286038 6.622463 -5.809871 0
M  V30 23 C 11.685958 7.352866 -4.684500 0
M  V30 24 C 11.435410 8.736035 -4.603480 0
M  V30 25 C 10.843404 9.398547 -5.695196 0
M  V30 26 N 11.779426 9.423664 -3.410016 0
M  V30 27 C 12.094599 8.789196 -2.263584 0
M  V30 28 O 12.486014 9.372312 -1.266371 0
M  V30 29 C 11.967056 7.267359 -2.225873 0
M  V30 30 C 12.432089 6.701468 -3.548809 0
M  V30 31 H 6.029382 6.900603 -13.046887 0
M  V30 32 H 7.313903 7.669637 -12.215140 0
M  V30 33 H 7.686054 6.815369 -13.681848 0
M  V30 34 H 6.657937 5.506854 -11.119687 0
M  V30 35 H 5.733461 4.480846 -13.228050 0
M  V30 36 H 6.681429 3.372181 -12.267480 0
M  V30 37 H 8.890805 2.807329 -13.047029 0
M  V30 38 H 10.428084 1.457267 -14.217896 0
M  V30 39 H 11.841698 1.093309 -16.246120 0
M  V30 40 H 12.705835 2.054081 -18.364790 0
M  V30 41 H 12.203749 3.612726 -18.906824 0
M  V30 42 H 9.385579 5.327025 -15.837536 0
M  V30 43 H 10.523911 4.531550 -12.410001 0
M  V30 44 H 9.703256 5.744902 -13.372487 0
M  V30 45 H 8.444773 6.241684 -9.870720 0
M  V30 46 H 9.973072 5.433180 -10.014153 0
M  V30 47 H 10.809627 7.047342 -11.686864 0
M  V30 48 H 9.309473 7.909794 -11.713995 0
M  V30 49 H 11.228322 7.685991 -9.393702 0
M  V30 50 H 10.935276 9.091709 -10.350689 0
M  V30 51 H 8.660553 9.371659 -9.512193 0
M  V30 52 H 8.671026 7.889911 -8.617454 0
M  V30 53 H 10.306102 6.654861 -7.692580 0
M  V30 54 H 11.531877 5.581055 -5.887316 0
M  V30 55 H 10.673601 10.464958 -5.656667 0
M  V30 56 H 11.787710 10.432887 -3.416188 0
M  V30 57 H 12.601041 6.855029 -1.446890 0
M  V30 58 H 10.936035 6.987109 -2.008524 0
M  V30 59 H 12.350804 5.620266 -3.570765 0
M  V30 60 H 13.481035 6.972339 -3.639940 0
M  V30 61 H 8.573421 4.269857 -11.139079 0
M  V30 END ATOM
M  V30 BEGIN BOND
M  V30 1 1 2 1
M  V30 2 1 3 2
M  V30 3 1 4 3
M  V30 4 1 5 4
M  V30 5 1 6 5
M  V30 6 1 7 6
M  V30 7 2 8 7
M  V30 8 1 9 8
M  V30 9 1 10 9
M  V30 10 2 11 9
M  V30 11 2 12 6
M  V30 12 1 12 11
M  V30 13 1 13 5
M  V30 14 1 14 2
M  V30 15 1 14 13
M  V30 16 1 15 14
M  V30 17 1 16 15
M  V30 18 1 17 16
M  V30 19 1 18 17
M  V30 20 1 19 18
M  V30 21 1 20 19
M  V30 22 1 21 20
M  V30 23 2 22 21
M  V30 24 1 23 22
M  V30 25 2 24 23
M  V30 26 2 25 20
M  V30 27 1 25 24
M  V30 28 1 26 24
M  V30 29 1 27 26
M  V30 30 2 28 27
M  V30 31 1 29 27
M  V30 32 1 30 23
M  V30 33 1 30 29
M  V30 34 1 31 1
M  V30 35 1 32 1
M  V30 36 1 33 1
M  V30 37 1 2 34 CFG=1
M  V30 38 1 35 3
M  V30 39 1 36 3
M  V30 40 1 5 37 CFG=1
M  V30 41 1 38 7
M  V30 42 1 39 8
M  V30 43 1 40 10
M  V30 44 1 41 10
M  V30 45 1 42 12
M  V30 46 1 43 13
M  V30 47 1 44 13
M  V30 48 1 45 15
M  V30 49 1 46 15
M  V30 50 1 47 16
M  V30 51 1 48 16
M  V30 52 1 49 17
M  V30 53 1 50 17
M  V30 54 1 51 18
M  V30 55 1 52 18
M  V30 56 1 53 21
M  V30 57 1 54 22
M  V30 58 1 55 25
M  V30 59 1 56 26
M  V30 60 1 57 29
M  V30 61 1 58 29
M  V30 62 1 59 30
M  V30 63 1 60 30
M  V30 64 1 14 61 CFG=1
M  V30 END BOND
M  V30 END CTAB
M  END
>  <b_m_subgroup_collapsed>  (1774) 
0

>  <r_i_docking_score>  (1774) 
-6.7015917435504599

>  <s_m_subgroup_title>  (1774) 
glide-dock_SP_D22_pv

>  <s_m_subgroupid>  (1774) 
glide-dock_SP_D22_pv

>  <Molecule ChEMBL ID>  (1774) 
CHEMBL4435946

>  <Standard Type>  (1774) 
Ki

>  <Standard Value>  (1774) 
34.6

>  <label>  (1774) 
1

$$$$
CHEMBL5722998
     RDKit          3D

  0  0  0  0  0  0  0  0  0  0999 V3000
M  V30 BEGIN CTAB
M  V30 COUNTS 40 42 0 0 1
M  V30 BEGIN ATOM
M  V30 1 C 8.664955 6.793625 -7.202000 0
M  V30 2 O 9.965788 6.848804 -6.634241 0
M  V30 3 C 10.512074 8.161189 -6.553088 0 CFG=2
M  V30 4 C 11.531074 8.392269 -7.681917 0
M  V30 5 N 10.891011 8.350382 -8.990921 0
M  V30 6 C 11.804831 8.444852 -10.130422 0
M  V30 7 C 11.326941 7.602610 -11.305405 0
M  V30 8 C 12.096888 7.372271 -12.389186 0
M  V30 9 C 11.671439 6.428206 -13.446881 0
M  V30 10 O 12.345385 6.245572 -14.459974 0
M  V30 11 C 10.374291 5.722227 -13.203266 0
M  V30 12 C 9.903146 4.728946 -14.090638 0
M  V30 13 C 8.673153 4.086492 -13.843854 0
M  V30 14 F 8.233702 3.121574 -14.684919 0
M  V30 15 C 7.897355 4.443600 -12.724002 0
M  V30 16 C 8.361205 5.425147 -11.829254 0
M  V30 17 C 9.600227 6.052612 -12.062477 0
M  V30 18 N 10.086714 6.999543 -11.161219 0
M  V30 19 C 11.151732 8.242937 -5.204516 0
M  V30 20 C 11.686061 7.229296 -4.447007 0
M  V30 21 C 12.214875 7.676847 -3.201114 0
M  V30 22 C 12.085994 9.029158 -3.027692 0
M  V30 23 S 11.286119 9.772307 -4.384942 0
M  V30 24 H 8.287936 5.772395 -7.167812 0
M  V30 25 H 7.969986 7.423134 -6.646844 0
M  V30 26 H 8.657407 7.112782 -8.243581 0
M  V30 27 H 9.726734 8.918224 -6.606758 0
M  V30 28 H 12.022650 9.355960 -7.541970 0
M  V30 29 H 12.308872 7.630606 -7.623138 0
M  V30 30 H 10.154615 9.045814 -9.062266 0
M  V30 31 H 11.929165 9.482648 -10.439061 0
M  V30 32 H 12.794974 8.079117 -9.853970 0
M  V30 33 H 13.072298 7.827183 -12.483167 0
M  V30 34 H 10.481461 4.451544 -14.960250 0
M  V30 35 H 6.952000 3.954147 -12.542321 0
M  V30 36 H 7.764989 5.691094 -10.966112 0
M  V30 37 H 9.578565 7.166999 -10.300758 0
M  V30 38 H 11.708349 6.189601 -4.741880 0
M  V30 39 H 12.666913 7.000009 -2.491496 0
M  V30 40 H 12.402037 9.633965 -2.188711 0
M  V30 END ATOM
M  V30 BEGIN BOND
M  V30 1 1 2 1
M  V30 2 1 3 2
M  V30 3 1 4 3
M  V30 4 1 5 4
M  V30 5 1 6 5
M  V30 6 1 7 6
M  V30 7 2 8 7
M  V30 8 1 9 8
M  V30 9 2 10 9
M  V30 10 1 11 9
M  V30 11 2 12 11
M  V30 12 1 13 12
M  V30 13 1 14 13
M  V30 14 2 15 13
M  V30 15 1 16 15
M  V30 16 1 17 11
M  V30 17 2 17 16
M  V30 18 1 18 7
M  V30 19 1 18 17
M  V30 20 1 19 3
M  V30 21 2 20 19
M  V30 22 1 21 20
M  V30 23 2 22 21
M  V30 24 1 23 19
M  V30 25 1 23 22
M  V30 26 1 24 1
M  V30 27 1 25 1
M  V30 28 1 26 1
M  V30 29 1 3 27 CFG=1
M  V30 30 1 28 4
M  V30 31 1 29 4
M  V30 32 1 30 5
M  V30 33 1 31 6
M  V30 34 1 32 6
M  V30 35 1 33 8
M  V30 36 1 34 12
M  V30 37 1 35 15
M  V30 38 1 36 16
M  V30 39 1 37 18
M  V30 40 1 38 20
M  V30 41 1 39 21
M  V30 42 1 40 22
M  V30 END BOND
M  V30 END CTAB
M  END
>  <b_m_subgroup_collapsed>  (1775) 
0

>  <r_i_docking_score>  (1775) 
-6.69873479443108

>  <s_m_subgroup_title>  (1775) 
glide-dock_SP_D22_pv

>  <s_m_subgroupid>  (1775) 
glide-dock_SP_D22_pv

>  <Molecule ChEMBL ID>  (1775) 
CHEMBL5722998

>  <Standard Type>  (1775) 
Ki

>  <Standard Value>  (1775) 
10000.0

>  <label>  (1775) 
0

$$$$
CHEMBL317493
     RDKit          3D

  0  0  0  0  0  0  0  0  0  0999 V3000
M  V30 BEGIN CTAB
M  V30 COUNTS 37 39 0 0 1
M  V30 BEGIN ATOM
M  V30 1 C 12.359337 7.625968 -12.180261 0
M  V30 2 C 11.212221 7.708355 -11.155961 0
M  V30 3 C 11.675094 7.614437 -9.690315 0
M  V30 4 N 10.875444 8.401596 -8.749934 0
M  V30 5 C 9.478104 7.970209 -8.640572 0
M  V30 6 C 9.302572 6.740177 -7.737231 0
M  V30 7 O 9.800923 7.056843 -6.444477 0
M  V30 8 C 11.183949 7.402112 -6.423857 0 CFG=2
M  V30 9 C 11.584454 7.796167 -5.006882 0
M  V30 10 C 11.693028 6.798965 -4.025587 0
M  V30 11 C 12.167532 7.136204 -2.747391 0
M  V30 12 O 12.435370 6.172311 -1.846931 0
M  V30 13 C 12.427210 8.464534 -2.390429 0
M  V30 14 C 12.265742 9.467407 -3.350154 0
M  V30 15 C 11.887740 9.140212 -4.664817 0
M  V30 16 O 11.867326 10.149198 -5.588877 0
M  V30 17 C 11.125371 9.864431 -6.752599 0
M  V30 18 C 11.493790 8.545468 -7.421790 0 CFG=2
M  V30 19 H 11.978322 7.770981 -13.191446 0
M  V30 20 H 12.877858 6.666724 -12.174637 0
M  V30 21 H 13.103085 8.402514 -11.996868 0
M  V30 22 H 10.688728 8.649998 -11.306033 0
M  V30 23 H 10.476304 6.930072 -11.360716 0
M  V30 24 H 11.685745 6.572366 -9.385732 0
M  V30 25 H 12.707494 7.963825 -9.644528 0
M  V30 26 H 8.884249 8.784957 -8.226060 0
M  V30 27 H 9.049324 7.775744 -9.623730 0
M  V30 28 H 8.248458 6.475976 -7.654265 0
M  V30 29 H 9.819674 5.868445 -8.142170 0
M  V30 30 H 11.754553 6.517199 -6.711536 0
M  V30 31 H 11.482483 5.772254 -4.282866 0
M  V30 32 H 12.062672 5.326769 -2.066244 0
M  V30 33 H 12.769550 8.713573 -1.396948 0
M  V30 34 H 12.471180 10.485168 -3.056436 0
M  V30 35 H 10.084080 9.870168 -6.485522 0
M  V30 36 H 11.293943 10.662783 -7.446620 0
M  V30 37 H 12.576744 8.595534 -7.550822 0
M  V30 END ATOM
M  V30 BEGIN BOND
M  V30 1 1 2 1
M  V30 2 1 3 2
M  V30 3 1 4 3
M  V30 4 1 5 4
M  V30 5 1 6 5
M  V30 6 1 7 6
M  V30 7 1 8 7
M  V30 8 1 9 8
M  V30 9 1 10 9
M  V30 10 2 11 10
M  V30 11 1 12 11
M  V30 12 1 13 11
M  V30 13 2 14 13
M  V30 14 2 15 9
M  V30 15 1 15 14
M  V30 16 1 16 15
M  V30 17 1 17 16
M  V30 18 1 18 4
M  V30 19 1 18 8
M  V30 20 1 18 17
M  V30 21 1 19 1
M  V30 22 1 20 1
M  V30 23 1 21 1
M  V30 24 1 22 2
M  V30 25 1 23 2
M  V30 26 1 24 3
M  V30 27 1 25 3
M  V30 28 1 26 5
M  V30 29 1 27 5
M  V30 30 1 28 6
M  V30 31 1 29 6
M  V30 32 1 8 30 CFG=3
M  V30 33 1 31 10
M  V30 34 1 32 12
M  V30 35 1 33 13
M  V30 36 1 34 14
M  V30 37 1 35 17
M  V30 38 1 36 17
M  V30 39 1 18 37 CFG=3
M  V30 END BOND
M  V30 END CTAB
M  END
>  <b_m_subgroup_collapsed>  (1776) 
0

>  <r_i_docking_score>  (1776) 
-6.6966440308780202

>  <s_m_subgroup_title>  (1776) 
glide-dock_SP_D22_pv

>  <s_m_subgroupid>  (1776) 
glide-dock_SP_D22_pv

>  <Molecule ChEMBL ID>  (1776) 
CHEMBL317493

>  <Standard Type>  (1776) 
Ki

>  <Standard Value>  (1776) 
10000.0

>  <label>  (1776) 
0

$$$$
CHEMBL230069
     RDKit          3D

  0  0  0  0  0  0  0  0  0  0999 V3000
M  V30 BEGIN CTAB
M  V30 COUNTS 56 59 0 0 1
M  V30 BEGIN ATOM
M  V30 1 C 8.654515 6.743582 -6.646953 0
M  V30 2 C 9.635657 7.303562 -7.646718 0
M  V30 3 C 9.286082 7.219238 -9.004821 0
M  V30 4 C 10.102589 7.800630 -9.984518 0
M  V30 5 S 9.664437 7.691273 -11.712535 0
M  V30 6 O 9.085691 8.968176 -12.149573 0
M  V30 7 O 10.817183 7.099088 -12.407865 0
M  V30 8 N 8.331411 6.571532 -11.769289 0
M  V30 9 C 8.068182 5.462031 -12.579606 0
M  V30 10 C 6.851684 4.771199 -12.403522 0
M  V30 11 C 6.555040 3.638948 -13.186447 0
M  V30 12 C 7.473942 3.172579 -14.154142 0
M  V30 13 C 8.683764 3.878746 -14.347158 0
M  V30 14 C 8.966519 5.013015 -13.567232 0
M  V30 15 C 9.711516 3.460287 -15.379766 0
M  V30 16 C 10.292830 2.075632 -15.100710 0
M  V30 17 N 9.411407 0.986661 -15.580655 0 CFG=1 CHG=1
M  V30 18 C 10.169614 -0.271427 -15.722183 0
M  V30 19 C 8.165833 0.784768 -14.795722 0
M  V30 20 C 7.140145 1.923601 -14.957362 0
M  V30 21 C 11.295321 8.449606 -9.612556 0
M  V30 22 C 11.655602 8.519063 -8.251416 0
M  V30 23 C 10.831078 7.959490 -7.247891 0
M  V30 24 C 11.223127 8.101455 -5.832291 0
M  V30 25 C 11.560127 6.971979 -5.050953 0
M  V30 26 C 11.964640 7.114672 -3.710728 0
M  V30 27 C 12.026448 8.394532 -3.134945 0
M  V30 28 Cl 12.497799 8.574124 -1.491677 0
M  V30 29 C 11.675366 9.524849 -3.892178 0
M  V30 30 C 11.286024 9.379681 -5.237364 0
M  V30 31 H 7.950044 6.057544 -7.118420 0
M  V30 32 H 9.139914 6.204991 -5.836601 0
M  V30 33 H 8.086782 7.579663 -6.246972 0
M  V30 34 H 8.363396 6.728436 -9.274661 0
M  V30 35 H 7.541287 6.884277 -11.198496 0
M  V30 36 H 6.141946 5.102767 -11.655870 0
M  V30 37 H 5.624148 3.118220 -13.021161 0
M  V30 38 H 9.887011 5.529944 -13.757242 0
M  V30 39 H 9.274026 3.517946 -16.374769 0
M  V30 40 H 10.530584 4.181255 -15.376606 0
M  V30 41 H 11.241182 2.015171 -15.638262 0
M  V30 42 H 10.533373 1.946421 -14.042445 0
M  V30 43 H 10.488021 -0.627843 -14.742371 0
M  V30 44 H 9.554482 -1.027975 -16.200827 0
M  V30 45 H 11.054064 -0.135531 -16.344604 0
M  V30 46 H 7.687049 -0.128479 -15.156227 0
M  V30 47 H 8.395030 0.607251 -13.743442 0
M  V30 48 H 6.164587 1.557111 -14.634748 0
M  V30 49 H 7.021566 2.191980 -16.008106 0
M  V30 50 H 11.930033 8.891726 -10.366467 0
M  V30 51 H 12.575100 9.014494 -7.976050 0
M  V30 52 H 11.525453 5.985055 -5.488826 0
M  V30 53 H 12.222455 6.242137 -3.125904 0
M  V30 54 H 11.689253 10.503485 -3.433997 0
M  V30 55 H 11.023849 10.255033 -5.814077 0
M  V30 56 H 9.124245 1.236742 -16.516518 0
M  V30 END ATOM
M  V30 BEGIN BOND
M  V30 1 1 2 1
M  V30 2 1 3 2
M  V30 3 2 4 3
M  V30 4 1 5 4
M  V30 5 2 6 5
M  V30 6 2 7 5
M  V30 7 1 8 5
M  V30 8 1 9 8
M  V30 9 1 10 9
M  V30 10 2 11 10
M  V30 11 1 12 11
M  V30 12 2 13 12
M  V30 13 2 14 9
M  V30 14 1 14 13
M  V30 15 1 15 13
M  V30 16 1 16 15
M  V30 17 1 17 16
M  V30 18 1 18 17
M  V30 19 1 19 17
M  V30 20 1 20 12
M  V30 21 1 20 19
M  V30 22 1 21 4
M  V30 23 2 22 21
M  V30 24 2 23 2
M  V30 25 1 23 22
M  V30 26 1 24 23
M  V30 27 1 25 24
M  V30 28 2 26 25
M  V30 29 1 27 26
M  V30 30 1 28 27
M  V30 31 2 29 27
M  V30 32 2 30 24
M  V30 33 1 30 29
M  V30 34 1 31 1
M  V30 35 1 32 1
M  V30 36 1 33 1
M  V30 37 1 34 3
M  V30 38 1 35 8
M  V30 39 1 36 10
M  V30 40 1 37 11
M  V30 41 1 38 14
M  V30 42 1 39 15
M  V30 43 1 40 15
M  V30 44 1 41 16
M  V30 45 1 42 16
M  V30 46 1 43 18
M  V30 47 1 44 18
M  V30 48 1 45 18
M  V30 49 1 46 19
M  V30 50 1 47 19
M  V30 51 1 48 20
M  V30 52 1 49 20
M  V30 53 1 50 21
M  V30 54 1 51 22
M  V30 55 1 52 25
M  V30 56 1 53 26
M  V30 57 1 54 29
M  V30 58 1 55 30
M  V30 59 1 17 56 CFG=3
M  V30 END BOND
M  V30 END CTAB
M  END
>  <b_m_subgroup_collapsed>  (1777) 
0

>  <r_i_docking_score>  (1777) 
-6.6951046502976004

>  <s_m_subgroup_title>  (1777) 
glide-dock_SP_D22_pv

>  <s_m_subgroupid>  (1777) 
glide-dock_SP_D22_pv

>  <Molecule ChEMBL ID>  (1777) 
CHEMBL230069

>  <Standard Type>  (1777) 
Ki

>  <Standard Value>  (1777) 
31.62

>  <label>  (1777) 
1

$$$$
CHEMBL215669
     RDKit          3D

  0  0  0  0  0  0  0  0  0  0999 V3000
M  V30 BEGIN CTAB
M  V30 COUNTS 57 61 0 0 1
M  V30 BEGIN ATOM
M  V30 1 F 10.486021 10.172576 -4.753058 0
M  V30 2 C 11.142507 9.618176 -5.798704 0
M  V30 3 F 11.846402 8.571831 -5.303907 0
M  V30 4 F 11.997490 10.569800 -6.246793 0
M  V30 5 O 10.255119 9.222342 -6.757308 0
M  V30 6 C 10.689952 8.780792 -7.992497 0
M  V30 7 C 12.054341 8.550049 -8.302199 0
M  V30 8 C 12.440084 8.173462 -9.599930 0
M  V30 9 C 11.475189 8.046711 -10.611531 0
M  V30 10 C 10.104069 8.207719 -10.317266 0
M  V30 11 C 9.066915 7.993122 -11.423046 0
M  V30 12 N 8.675560 6.563435 -11.604778 0 CHG=1
M  V30 13 C 9.854177 5.693236 -11.851141 0
M  V30 14 C 9.500161 4.243624 -12.181593 0
M  V30 15 N 8.569305 4.187244 -13.287855 0
M  V30 16 C 8.787868 3.331754 -14.369450 0
M  V30 17 N 7.985777 2.351178 -14.647492 0
M  V30 18 C 8.187352 1.407989 -15.675986 0
M  V30 19 C 7.029412 0.947083 -16.328197 0
M  V30 20 C 7.081555 -0.040083 -17.329287 0
M  V30 21 Cl 5.630894 -0.539582 -18.116377 0
M  V30 22 C 8.314085 -0.616810 -17.680828 0
M  V30 23 C 9.486657 -0.181652 -17.035309 0
M  V30 24 C 9.432387 0.831387 -16.050962 0
M  V30 25 N 10.634181 1.293449 -15.530016 0
M  V30 26 C 10.936781 2.647986 -15.615390 0
M  V30 27 C 12.129463 3.017513 -16.267462 0
M  V30 28 C 12.460783 4.373041 -16.447992 0
M  V30 29 C 11.576920 5.368536 -16.001656 0
M  V30 30 C 10.379611 4.997520 -15.361728 0
M  V30 31 C 10.047548 3.641332 -15.138729 0
M  V30 32 C 7.330530 4.902082 -13.000002 0
M  V30 33 C 7.610385 6.386345 -12.634716 0
M  V30 34 C 9.719804 8.572447 -9.004832 0
M  V30 35 H 12.836641 8.682626 -7.570652 0
M  V30 36 H 13.488172 8.048219 -9.830309 0
M  V30 37 H 11.797994 7.792479 -11.610383 0
M  V30 38 H 9.478402 8.379226 -12.356259 0
M  V30 39 H 8.184592 8.602897 -11.222582 0
M  V30 40 H 10.484968 5.679105 -10.963675 0
M  V30 41 H 10.447357 6.108866 -12.665576 0
M  V30 42 H 9.045493 3.772819 -11.314412 0
M  V30 43 H 10.407804 3.679139 -12.403387 0
M  V30 44 H 6.087329 1.372206 -16.047916 0
M  V30 45 H 8.359034 -1.381479 -18.442978 0
M  V30 46 H 10.433744 -0.612586 -17.321491 0
M  V30 47 H 11.423879 0.709735 -15.758402 0
M  V30 48 H 12.805169 2.259779 -16.638987 0
M  V30 49 H 13.381430 4.644069 -16.940186 0
M  V30 50 H 11.810408 6.411004 -16.155996 0
M  V30 51 H 9.708093 5.771797 -15.031160 0
M  V30 52 H 6.645978 4.834085 -13.846532 0
M  V30 53 H 6.832962 4.404505 -12.165150 0
M  V30 54 H 6.693025 6.857892 -12.285522 0
M  V30 55 H 7.909918 6.934239 -13.524630 0
M  V30 56 H 8.673939 8.717214 -8.773891 0
M  V30 57 H 8.254883 6.276653 -10.728872 0
M  V30 END ATOM
M  V30 BEGIN BOND
M  V30 1 1 2 1
M  V30 2 1 3 2
M  V30 3 1 4 2
M  V30 4 1 5 2
M  V30 5 1 6 5
M  V30 6 2 7 6
M  V30 7 1 8 7
M  V30 8 2 9 8
M  V30 9 1 10 9
M  V30 10 1 11 10
M  V30 11 1 12 11
M  V30 12 1 13 12
M  V30 13 1 14 13
M  V30 14 1 15 14
M  V30 15 1 16 15
M  V30 16 2 17 16
M  V30 17 1 18 17
M  V30 18 1 19 18
M  V30 19 2 20 19
M  V30 20 1 21 20
M  V30 21 1 22 20
M  V30 22 2 23 22
M  V30 23 2 24 18
M  V30 24 1 24 23
M  V30 25 1 25 24
M  V30 26 1 26 25
M  V30 27 2 27 26
M  V30 28 1 28 27
M  V30 29 2 29 28
M  V30 30 1 30 29
M  V30 31 1 31 16
M  V30 32 1 31 26
M  V30 33 2 31 30
M  V30 34 1 32 15
M  V30 35 1 33 12
M  V30 36 1 33 32
M  V30 37 1 34 6
M  V30 38 2 34 10
M  V30 39 1 35 7
M  V30 40 1 36 8
M  V30 41 1 37 9
M  V30 42 1 38 11
M  V30 43 1 39 11
M  V30 44 1 40 13
M  V30 45 1 41 13
M  V30 46 1 42 14
M  V30 47 1 43 14
M  V30 48 1 44 19
M  V30 49 1 45 22
M  V30 50 1 46 23
M  V30 51 1 47 25
M  V30 52 1 48 27
M  V30 53 1 49 28
M  V30 54 1 50 29
M  V30 55 1 51 30
M  V30 56 1 52 32
M  V30 57 1 53 32
M  V30 58 1 54 33
M  V30 59 1 55 33
M  V30 60 1 56 34
M  V30 61 1 57 12
M  V30 END BOND
M  V30 END CTAB
M  END
>  <b_m_subgroup_collapsed>  (1778) 
0

>  <r_i_docking_score>  (1778) 
-6.69370492004402

>  <s_m_subgroup_title>  (1778) 
glide-dock_SP_D22_pv

>  <s_m_subgroupid>  (1778) 
glide-dock_SP_D22_pv

>  <Molecule ChEMBL ID>  (1778) 
CHEMBL215669

>  <Standard Type>  (1778) 
Ki

>  <Standard Value>  (1778) 
3.4

>  <label>  (1778) 
1

$$$$
CHEMBL2062855
     RDKit          3D

  0  0  0  0  0  0  0  0  0  0999 V3000
M  V30 BEGIN CTAB
M  V30 COUNTS 52 55 0 0 1
M  V30 BEGIN ATOM
M  V30 1 C 11.656829 7.512728 -11.414519 0
M  V30 2 C 10.220750 7.206741 -11.885300 0 CFG=1
M  V30 3 C 10.086937 5.762991 -12.393401 0 CFG=1
M  V30 4 C 9.286042 5.009250 -11.332972 0 CFG=1
M  V30 5 C 8.967165 5.991264 -10.211185 0
M  V30 6 N 9.211409 7.333427 -10.800011 0 CFG=1 CHG=1
M  V30 7 C 9.286052 8.537910 -9.912203 0
M  V30 8 C 9.953335 8.364180 -8.558063 0
M  V30 9 C 9.298781 7.679265 -7.508445 0
M  V30 10 C 9.913944 7.567896 -6.247650 0
M  V30 11 C 11.155497 8.186904 -6.008642 0
M  V30 12 C 11.791651 8.899585 -7.040339 0
M  V30 13 C 11.202900 8.972411 -8.314522 0
M  V30 14 C 8.262085 4.562120 -12.403390 0 CFG=1
M  V30 15 C 6.756711 4.800287 -12.281475 0
M  V30 16 O 6.449274 6.172559 -12.247347 0
M  V30 17 C 9.070654 5.326668 -13.468530 0 CFG=2
M  V30 18 N 9.611863 4.487478 -14.588945 0 CHG=1
M  V30 19 C 10.570866 5.175324 -15.478851 0
M  V30 20 C 11.234654 4.076533 -16.302464 0
M  V30 21 C 11.098761 2.802203 -15.467046 0
M  V30 22 C 10.223163 3.172876 -14.266306 0
M  V30 23 H 12.389822 7.240956 -12.175702 0
M  V30 24 H 11.802462 8.571095 -11.210646 0
M  V30 25 H 11.910462 6.973713 -10.503205 0
M  V30 26 H 9.955641 7.932046 -12.646838 0
M  V30 27 H 11.050300 5.312427 -12.635179 0
M  V30 28 H 9.833866 4.140274 -10.965380 0
M  V30 29 H 7.947549 5.894659 -9.836124 0
M  V30 30 H 9.647004 5.807295 -9.380760 0
M  V30 31 H 9.770913 9.349734 -10.449487 0
M  V30 32 H 8.293831 8.935211 -9.719522 0
M  V30 33 H 8.327003 7.234082 -7.664553 0
M  V30 34 H 9.421995 7.019862 -5.457584 0
M  V30 35 H 11.619987 8.113518 -5.036800 0
M  V30 36 H 12.743748 9.377404 -6.854069 0
M  V30 37 H 11.695545 9.526875 -9.097264 0
M  V30 38 H 8.405097 3.491319 -12.517558 0
M  V30 39 H 6.332837 4.288098 -11.423079 0
M  V30 40 H 6.249724 4.379839 -13.149503 0
M  V30 41 H 6.331897 6.477613 -11.345806 0
M  V30 42 H 8.506289 6.172265 -13.858884 0
M  V30 43 H 10.086218 5.904070 -16.122698 0
M  V30 44 H 11.328577 5.697942 -14.895420 0
M  V30 45 H 10.709675 3.953845 -17.251829 0
M  V30 46 H 12.275978 4.309793 -16.531744 0
M  V30 47 H 10.639143 2.008181 -16.059956 0
M  V30 48 H 12.074054 2.436934 -15.144368 0
M  V30 49 H 10.848819 3.238219 -13.377204 0
M  V30 50 H 9.470890 2.404282 -14.086070 0
M  V30 51 H 8.821247 4.261338 -15.173982 0
M  V30 52 H 8.339704 7.494199 -11.290960 0
M  V30 END ATOM
M  V30 BEGIN BOND
M  V30 1 1 2 1
M  V30 2 1 3 2
M  V30 3 1 4 3
M  V30 4 1 5 4
M  V30 5 1 6 2
M  V30 6 1 6 5
M  V30 7 1 7 6
M  V30 8 1 8 7
M  V30 9 2 9 8
M  V30 10 1 10 9
M  V30 11 2 11 10
M  V30 12 1 12 11
M  V30 13 1 13 8
M  V30 14 2 13 12
M  V30 15 1 14 4
M  V30 16 1 15 14
M  V30 17 1 16 15
M  V30 18 1 17 3
M  V30 19 1 17 14
M  V30 20 1 18 17
M  V30 21 1 19 18
M  V30 22 1 20 19
M  V30 23 1 21 20
M  V30 24 1 22 18
M  V30 25 1 22 21
M  V30 26 1 23 1
M  V30 27 1 24 1
M  V30 28 1 25 1
M  V30 29 1 2 26 CFG=3
M  V30 30 1 3 27 CFG=3
M  V30 31 1 4 28 CFG=1
M  V30 32 1 29 5
M  V30 33 1 30 5
M  V30 34 1 31 7
M  V30 35 1 32 7
M  V30 36 1 33 9
M  V30 37 1 34 10
M  V30 38 1 35 11
M  V30 39 1 36 12
M  V30 40 1 37 13
M  V30 41 1 14 38 CFG=3
M  V30 42 1 39 15
M  V30 43 1 40 15
M  V30 44 1 41 16
M  V30 45 1 17 42 CFG=3
M  V30 46 1 43 19
M  V30 47 1 44 19
M  V30 48 1 45 20
M  V30 49 1 46 20
M  V30 50 1 47 21
M  V30 51 1 48 21
M  V30 52 1 49 22
M  V30 53 1 50 22
M  V30 54 1 51 18
M  V30 55 1 6 52 CFG=3
M  V30 END BOND
M  V30 END CTAB
M  END
>  <b_m_subgroup_collapsed>  (1779) 
0

>  <r_i_docking_score>  (1779) 
-6.6909869836428104

>  <s_m_subgroup_title>  (1779) 
glide-dock_SP_D22_pv

>  <s_m_subgroupid>  (1779) 
glide-dock_SP_D22_pv

>  <Molecule ChEMBL ID>  (1779) 
CHEMBL2062855

>  <Standard Type>  (1779) 
Ki

>  <Standard Value>  (1779) 
16000.0

>  <label>  (1779) 
0

$$$$
CHEMBL5073754
     RDKit          3D

  0  0  0  0  0  0  0  0  0  0999 V3000
M  V30 BEGIN CTAB
M  V30 COUNTS 80 83 0 0 1
M  V30 BEGIN ATOM
M  V30 1 C 11.295377 0.157049 -19.192387 0
M  V30 2 N 12.491652 0.989282 -19.017614 0
M  V30 3 C 13.735938 0.270489 -19.312500 0
M  V30 4 C 12.523961 2.310972 -18.682970 0
M  V30 5 O 13.602284 2.909294 -18.674221 0
M  V30 6 C 11.222280 3.119496 -18.302391 0
M  V30 7 C 11.640527 4.508994 -17.671696 0
M  V30 8 C 12.459476 4.550694 -16.361355 0
M  V30 9 N 11.589303 4.489199 -15.169179 0 CHG=1
M  V30 10 C 11.393059 5.766060 -14.454233 0
M  V30 11 C 10.526589 5.532964 -13.207792 0
M  V30 12 C 10.568030 6.705363 -12.222941 0
M  V30 13 C 9.882783 6.353629 -10.891737 0
M  V30 14 N 9.925384 7.460593 -9.944457 0
M  V30 15 C 11.283961 7.727468 -9.457715 0
M  V30 16 C 11.264565 8.942278 -8.521279 0
M  V30 17 N 10.359922 8.714610 -7.405750 0
M  V30 18 C 10.929125 8.228873 -6.218864 0
M  V30 19 C 11.120707 6.855752 -5.986302 0
M  V30 20 C 11.685598 6.423450 -4.772715 0
M  V30 21 C 11.999638 7.324503 -3.751647 0
M  V30 22 C 11.800048 8.689475 -3.975672 0
M  V30 23 Cl 12.086055 9.772056 -2.679130 0
M  V30 24 C 11.336467 9.140848 -5.226954 0
M  V30 25 Cl 11.286000 10.813938 -5.574766 0
M  V30 26 C 9.026874 8.254413 -7.782311 0
M  V30 27 C 9.095658 7.091372 -8.791108 0
M  V30 28 C 10.420391 3.488612 -19.598133 0
M  V30 29 C 10.782567 3.045815 -20.903461 0
M  V30 30 C 10.051948 3.431861 -22.043909 0
M  V30 31 C 8.946478 4.288441 -21.920864 0
M  V30 32 C 8.576934 4.760410 -20.650721 0
M  V30 33 C 9.306744 4.369400 -19.512478 0
M  V30 34 C 10.402764 2.291238 -17.258976 0
M  V30 35 C 9.005024 2.068064 -17.382902 0
M  V30 36 C 8.299527 1.291978 -16.442547 0
M  V30 37 C 8.969247 0.712906 -15.352483 0
M  V30 38 C 10.353346 0.908052 -15.209362 0
M  V30 39 C 11.056159 1.678172 -16.154757 0
M  V30 40 H 10.418808 0.717013 -19.511381 0
M  V30 41 H 11.455056 -0.608920 -19.953665 0
M  V30 42 H 11.051977 -0.355682 -18.261442 0
M  V30 43 H 14.545818 0.573331 -18.648243 0
M  V30 44 H 13.621075 -0.808005 -19.196020 0
M  V30 45 H 14.047748 0.465371 -20.337950 0
M  V30 46 H 12.219720 5.048186 -18.424286 0
M  V30 47 H 10.773437 5.143286 -17.508272 0
M  V30 48 H 13.192181 3.747175 -16.308153 0
M  V30 49 H 13.045559 5.470381 -16.335302 0
M  V30 50 H 10.690716 4.116832 -15.442917 0
M  V30 51 H 12.371927 6.150733 -14.158084 0
M  V30 52 H 10.936575 6.514576 -15.108504 0
M  V30 53 H 9.495826 5.326653 -13.498656 0
M  V30 54 H 10.880689 4.641848 -12.686681 0
M  V30 55 H 11.611938 6.970576 -12.064667 0
M  V30 56 H 10.090368 7.586531 -12.646788 0
M  V30 57 H 8.838124 6.112782 -11.098496 0
M  V30 58 H 10.321775 5.464449 -10.439859 0
M  V30 59 H 11.678469 6.855635 -8.940784 0
M  V30 60 H 11.963274 7.955702 -10.275430 0
M  V30 61 H 12.270790 9.152481 -8.155573 0
M  V30 62 H 10.937620 9.822451 -9.073346 0
M  V30 63 H 10.865974 6.123461 -6.733411 0
M  V30 64 H 11.863749 5.379218 -4.604318 0
M  V30 65 H 12.384553 6.969581 -2.805647 0
M  V30 66 H 8.461016 7.956926 -6.898705 0
M  V30 67 H 8.487355 9.090258 -8.227715 0
M  V30 68 H 8.086286 6.842261 -9.116247 0
M  V30 69 H 9.481957 6.188093 -8.320254 0
M  V30 70 H 11.626570 2.399075 -21.084635 0
M  V30 71 H 10.346722 3.072102 -23.019356 0
M  V30 72 H 8.385395 4.583451 -22.795559 0
M  V30 73 H 7.724767 5.416532 -20.546345 0
M  V30 74 H 8.971149 4.750022 -18.557634 0
M  V30 75 H 8.436434 2.449713 -18.213026 0
M  V30 76 H 7.238153 1.126904 -16.566214 0
M  V30 77 H 8.430063 0.106705 -14.638121 0
M  V30 78 H 10.881391 0.450255 -14.385488 0
M  V30 79 H 12.124968 1.770391 -16.024992 0
M  V30 80 H 12.006238 3.839824 -14.519513 0
M  V30 END ATOM
M  V30 BEGIN BOND
M  V30 1 1 2 1
M  V30 2 1 3 2
M  V30 3 1 4 2
M  V30 4 2 5 4
M  V30 5 1 6 4
M  V30 6 1 7 6
M  V30 7 1 8 7
M  V30 8 1 9 8
M  V30 9 1 10 9
M  V30 10 1 11 10
M  V30 11 1 12 11
M  V30 12 1 13 12
M  V30 13 1 14 13
M  V30 14 1 15 14
M  V30 15 1 16 15
M  V30 16 1 17 16
M  V30 17 1 18 17
M  V30 18 2 19 18
M  V30 19 1 20 19
M  V30 20 2 21 20
M  V30 21 1 22 21
M  V30 22 1 23 22
M  V30 23 1 24 18
M  V30 24 2 24 22
M  V30 25 1 25 24
M  V30 26 1 26 17
M  V30 27 1 27 14
M  V30 28 1 27 26
M  V30 29 1 28 6
M  V30 30 2 29 28
M  V30 31 1 30 29
M  V30 32 2 31 30
M  V30 33 1 32 31
M  V30 34 1 33 28
M  V30 35 2 33 32
M  V30 36 1 34 6
M  V30 37 2 35 34
M  V30 38 1 36 35
M  V30 39 2 37 36
M  V30 40 1 38 37
M  V30 41 1 39 34
M  V30 42 2 39 38
M  V30 43 1 40 1
M  V30 44 1 41 1
M  V30 45 1 42 1
M  V30 46 1 43 3
M  V30 47 1 44 3
M  V30 48 1 45 3
M  V30 49 1 46 7
M  V30 50 1 47 7
M  V30 51 1 48 8
M  V30 52 1 49 8
M  V30 53 1 50 9
M  V30 54 1 51 10
M  V30 55 1 52 10
M  V30 56 1 53 11
M  V30 57 1 54 11
M  V30 58 1 55 12
M  V30 59 1 56 12
M  V30 60 1 57 13
M  V30 61 1 58 13
M  V30 62 1 59 15
M  V30 63 1 60 15
M  V30 64 1 61 16
M  V30 65 1 62 16
M  V30 66 1 63 19
M  V30 67 1 64 20
M  V30 68 1 65 21
M  V30 69 1 66 26
M  V30 70 1 67 26
M  V30 71 1 68 27
M  V30 72 1 69 27
M  V30 73 1 70 29
M  V30 74 1 71 30
M  V30 75 1 72 31
M  V30 76 1 73 32
M  V30 77 1 74 33
M  V30 78 1 75 35
M  V30 79 1 76 36
M  V30 80 1 77 37
M  V30 81 1 78 38
M  V30 82 1 79 39
M  V30 83 1 80 9
M  V30 END BOND
M  V30 END CTAB
M  END
>  <b_m_subgroup_collapsed>  (1780) 
0

>  <r_i_docking_score>  (1780) 
-6.6886118060337996

>  <s_m_subgroup_title>  (1780) 
glide-dock_SP_D22_pv

>  <s_m_subgroupid>  (1780) 
glide-dock_SP_D22_pv

>  <Molecule ChEMBL ID>  (1780) 
CHEMBL5073754

>  <Standard Type>  (1780) 
Ki

>  <Standard Value>  (1780) 
23.1

>  <label>  (1780) 
1

$$$$
CHEMBL4451063
     RDKit          3D

  0  0  0  0  0  0  0  0  0  0999 V3000
M  V30 BEGIN CTAB
M  V30 COUNTS 61 65 0 0 1
M  V30 BEGIN ATOM
M  V30 1 C 11.706163 4.697462 -15.520534 0
M  V30 2 C 10.195205 4.403244 -15.664290 0 CFG=1
M  V30 3 C 9.924276 3.410769 -16.807129 0
M  V30 4 O 10.404783 2.112446 -16.463116 0
M  V30 5 C 9.807192 1.542352 -15.297899 0 CFG=2
M  V30 6 C 8.384793 1.019823 -15.527326 0
M  V30 7 C 7.847342 0.852786 -16.823311 0
M  V30 8 C 6.572225 0.274102 -16.973572 0
M  V30 9 C 5.884770 -0.145798 -15.819564 0
M  V30 10 N 4.630341 -0.734490 -15.920817 0
M  V30 11 N 6.383064 -0.005501 -14.577269 0
M  V30 12 C 7.607746 0.544856 -14.448227 0
M  V30 13 C 9.999144 2.519324 -14.106445 0
M  V30 14 N 9.560409 3.903548 -14.412791 0 CFG=1 CHG=1
M  V30 15 C 9.711502 4.833728 -13.261135 0
M  V30 16 C 8.543440 4.780760 -12.288178 0 CFG=2
M  V30 17 C 7.458793 5.822354 -12.340335 0
M  V30 18 C 8.402329 5.795938 -11.157482 0 CFG=2
M  V30 19 C 9.411496 6.926723 -10.957651 0
M  V30 20 N 9.665764 7.377248 -9.591195 0
M  V30 21 C 10.034392 6.602857 -8.561532 0
M  V30 22 O 10.085954 5.374680 -8.625747 0
M  V30 23 C 10.441794 7.316563 -7.331782 0
M  V30 24 C 10.472364 8.642912 -6.974899 0
M  V30 25 C 11.006648 8.710306 -5.640566 0
M  V30 26 C 11.286235 9.754659 -4.727741 0
M  V30 27 C 11.821024 9.482729 -3.450063 0
M  V30 28 C 12.086205 8.158398 -3.052955 0
M  V30 29 C 11.811318 7.098523 -3.935812 0
M  V30 30 C 11.285460 7.380670 -5.210163 0
M  V30 31 N 10.923347 6.572710 -6.266930 0
M  V30 32 H 12.107841 5.099243 -16.450890 0
M  V30 33 H 11.913543 5.436507 -14.746773 0
M  V30 34 H 12.282006 3.801668 -15.288533 0
M  V30 35 H 9.704150 5.342308 -15.924798 0
M  V30 36 H 10.421129 3.738017 -17.720716 0
M  V30 37 H 8.859296 3.380019 -17.033421 0
M  V30 38 H 10.390729 0.648441 -15.074397 0
M  V30 39 H 8.405349 1.141340 -17.701857 0
M  V30 40 H 6.144506 0.135628 -17.955635 0
M  V30 41 H 4.305790 -1.081414 -16.811743 0
M  V30 42 H 4.268111 -1.226128 -15.118876 0
M  V30 43 H 7.994062 0.570413 -13.445502 0
M  V30 44 H 9.482062 2.172636 -13.217719 0
M  V30 45 H 11.056407 2.535819 -13.841385 0
M  V30 46 H 10.635015 4.614851 -12.723722 0
M  V30 47 H 9.800174 5.857054 -13.624007 0
M  V30 48 H 8.238362 3.773301 -12.016876 0
M  V30 49 H 7.563348 6.642731 -13.047304 0
M  V30 50 H 6.435183 5.501798 -12.155971 0
M  V30 51 H 7.952436 5.430374 -10.236198 0
M  V30 52 H 10.371863 6.637907 -11.382623 0
M  V30 53 H 9.073318 7.794094 -11.524796 0
M  V30 54 H 9.590199 8.368308 -9.420838 0
M  V30 55 H 10.161834 9.484552 -7.573755 0
M  V30 56 H 11.086760 10.775812 -5.016789 0
M  V30 57 H 12.028445 10.295907 -2.767955 0
M  V30 58 H 12.489675 7.958529 -2.071047 0
M  V30 59 H 12.000676 6.077940 -3.638219 0
M  V30 60 H 10.962398 5.562300 -6.295237 0
M  V30 61 H 8.568997 3.855568 -14.602831 0
M  V30 END ATOM
M  V30 BEGIN BOND
M  V30 1 1 2 1
M  V30 2 1 3 2
M  V30 3 1 4 3
M  V30 4 1 5 4
M  V30 5 1 6 5
M  V30 6 1 7 6
M  V30 7 2 8 7
M  V30 8 1 9 8
M  V30 9 1 10 9
M  V30 10 2 11 9
M  V30 11 2 12 6
M  V30 12 1 12 11
M  V30 13 1 13 5
M  V30 14 1 14 2
M  V30 15 1 14 13
M  V30 16 1 15 14
M  V30 17 1 16 15
M  V30 18 1 17 16
M  V30 19 1 18 16
M  V30 20 1 18 17
M  V30 21 1 19 18
M  V30 22 1 20 19
M  V30 23 1 21 20
M  V30 24 2 22 21
M  V30 25 1 23 21
M  V30 26 2 24 23
M  V30 27 1 25 24
M  V30 28 2 26 25
M  V30 29 1 27 26
M  V30 30 2 28 27
M  V30 31 1 29 28
M  V30 32 1 30 25
M  V30 33 2 30 29
M  V30 34 1 31 23
M  V30 35 1 31 30
M  V30 36 1 32 1
M  V30 37 1 33 1
M  V30 38 1 34 1
M  V30 39 1 2 35 CFG=3
M  V30 40 1 36 3
M  V30 41 1 37 3
M  V30 42 1 5 38 CFG=1
M  V30 43 1 39 7
M  V30 44 1 40 8
M  V30 45 1 41 10
M  V30 46 1 42 10
M  V30 47 1 43 12
M  V30 48 1 44 13
M  V30 49 1 45 13
M  V30 50 1 46 15
M  V30 51 1 47 15
M  V30 52 1 16 48 CFG=1
M  V30 53 1 49 17
M  V30 54 1 50 17
M  V30 55 1 18 51 CFG=1
M  V30 56 1 52 19
M  V30 57 1 53 19
M  V30 58 1 54 20
M  V30 59 1 55 24
M  V30 60 1 56 26
M  V30 61 1 57 27
M  V30 62 1 58 28
M  V30 63 1 59 29
M  V30 64 1 60 31
M  V30 65 1 14 61 CFG=3
M  V30 END BOND
M  V30 END CTAB
M  END
>  <b_m_subgroup_collapsed>  (1781) 
0

>  <r_i_docking_score>  (1781) 
-6.6885419924674103

>  <s_m_subgroup_title>  (1781) 
glide-dock_SP_D22_pv

>  <s_m_subgroupid>  (1781) 
glide-dock_SP_D22_pv

>  <Molecule ChEMBL ID>  (1781) 
CHEMBL4451063

>  <Standard Type>  (1781) 
Ki

>  <Standard Value>  (1781) 
14100.0

>  <label>  (1781) 
0

$$$$
CHEMBL5277859
     RDKit          3D

  0  0  0  0  0  0  0  0  0  0999 V3000
M  V30 BEGIN CTAB
M  V30 COUNTS 45 47 0 0 1
M  V30 BEGIN ATOM
M  V30 1 C 12.107711 8.568042 -2.500198 0
M  V30 2 C 11.699393 9.530580 -3.619209 0
M  V30 3 O 11.286226 8.785610 -4.752343 0
M  V30 4 C 11.515393 9.245675 -5.999012 0
M  V30 5 O 11.931700 10.382271 -6.242740 0
M  V30 6 N 11.280478 8.246106 -6.949052 0
M  V30 7 C 11.779093 8.370235 -8.318033 0
M  V30 8 C 10.680963 8.012648 -9.328011 0
M  V30 9 N 10.176676 6.655708 -9.087330 0
M  V30 10 C 9.134144 6.321212 -10.058356 0
M  V30 11 C 9.636889 5.853956 -11.404186 0
M  V30 12 C 10.451638 6.516746 -12.369091 0
M  V30 13 N 10.705835 5.768167 -13.430490 0
M  V30 14 N 10.033239 4.615082 -13.215069 0
M  V30 15 C 10.082775 3.550334 -14.149272 0
M  V30 16 C 11.219247 3.368359 -14.970863 0
M  V30 17 C 11.286307 2.272017 -15.854231 0
M  V30 18 C 10.223644 1.350726 -15.923628 0
M  V30 19 Cl 10.323752 -0.009745 -16.980991 0
M  V30 20 C 9.081211 1.537653 -15.123969 0
M  V30 21 C 9.008763 2.636383 -14.246190 0
M  V30 22 C 9.375122 4.652254 -12.000766 0
M  V30 23 C 9.595921 6.627914 -7.741398 0
M  V30 24 C 10.668729 6.936728 -6.675580 0
M  V30 25 H 12.418180 9.120714 -1.612838 0
M  V30 26 H 11.286077 7.914673 -2.215386 0
M  V30 27 H 12.940801 7.938258 -2.810961 0
M  V30 28 H 12.553404 10.167969 -3.851035 0
M  V30 29 H 10.886024 10.178602 -3.292514 0
M  V30 30 H 12.637896 7.711961 -8.443011 0
M  V30 31 H 12.133820 9.372126 -8.532321 0
M  V30 32 H 11.102415 8.099516 -10.323657 0
M  V30 33 H 9.866454 8.738803 -9.263891 0
M  V30 34 H 8.489076 7.187495 -10.174772 0
M  V30 35 H 8.496947 5.542342 -9.635651 0
M  V30 36 H 10.878558 7.508283 -12.341601 0
M  V30 37 H 12.052738 4.051991 -14.911356 0
M  V30 38 H 12.166382 2.127450 -16.463552 0
M  V30 39 H 8.262071 0.835299 -15.177258 0
M  V30 40 H 8.126828 2.765217 -13.636997 0
M  V30 41 H 8.791625 3.816373 -11.647988 0
M  V30 42 H 8.765912 7.336370 -7.667430 0
M  V30 43 H 9.179522 5.637519 -7.544737 0
M  V30 44 H 11.444228 6.171022 -6.686249 0
M  V30 45 H 10.188224 6.873978 -5.699234 0
M  V30 END ATOM
M  V30 BEGIN BOND
M  V30 1 1 2 1
M  V30 2 1 3 2
M  V30 3 1 4 3
M  V30 4 2 5 4
M  V30 5 1 6 4
M  V30 6 1 7 6
M  V30 7 1 8 7
M  V30 8 1 9 8
M  V30 9 1 10 9
M  V30 10 1 11 10
M  V30 11 1 12 11
M  V30 12 2 13 12
M  V30 13 1 14 13
M  V30 14 1 15 14
M  V30 15 1 16 15
M  V30 16 2 17 16
M  V30 17 1 18 17
M  V30 18 1 19 18
M  V30 19 2 20 18
M  V30 20 2 21 15
M  V30 21 1 21 20
M  V30 22 2 22 11
M  V30 23 1 22 14
M  V30 24 1 23 9
M  V30 25 1 24 6
M  V30 26 1 24 23
M  V30 27 1 25 1
M  V30 28 1 26 1
M  V30 29 1 27 1
M  V30 30 1 28 2
M  V30 31 1 29 2
M  V30 32 1 30 7
M  V30 33 1 31 7
M  V30 34 1 32 8
M  V30 35 1 33 8
M  V30 36 1 34 10
M  V30 37 1 35 10
M  V30 38 1 36 12
M  V30 39 1 37 16
M  V30 40 1 38 17
M  V30 41 1 39 20
M  V30 42 1 40 21
M  V30 43 1 41 22
M  V30 44 1 42 23
M  V30 45 1 43 23
M  V30 46 1 44 24
M  V30 47 1 45 24
M  V30 END BOND
M  V30 END CTAB
M  END
>  <b_m_subgroup_collapsed>  (1782) 
0

>  <r_i_docking_score>  (1782) 
-6.6881073136595397

>  <s_m_subgroup_title>  (1782) 
glide-dock_SP_D22_pv

>  <s_m_subgroupid>  (1782) 
glide-dock_SP_D22_pv

>  <Molecule ChEMBL ID>  (1782) 
CHEMBL5277859

>  <Standard Type>  (1782) 
Ki

>  <Standard Value>  (1782) 
10200.0

>  <label>  (1782) 
0

$$$$
CHEMBL596884
     RDKit          3D

  0  0  0  0  0  0  0  0  0  0999 V3000
M  V30 BEGIN CTAB
M  V30 COUNTS 44 47 0 0 1
M  V30 BEGIN ATOM
M  V30 1 C 11.810253 10.472586 -6.077029 0
M  V30 2 C 11.232587 9.727551 -7.029070 0
M  V30 3 C 11.981649 8.796665 -7.967834 0
M  V30 4 C 11.112991 8.036961 -8.962079 0
M  V30 5 C 9.891942 7.511788 -8.502870 0
M  V30 6 C 9.093568 6.754940 -9.358320 0
M  V30 7 C 9.497771 6.526210 -10.682069 0
M  V30 8 C 10.722857 7.020471 -11.193313 0
M  V30 9 C 11.540126 7.771928 -10.291320 0
M  V30 10 O 12.791155 8.172458 -10.663012 0
M  V30 11 C 11.103698 6.630648 -12.594148 0
M  V30 12 C 12.086069 7.300582 -13.373126 0
M  V30 13 C 12.472628 6.885636 -14.659567 0
M  V30 14 C 11.884678 5.755711 -15.241702 0
M  V30 15 C 10.899034 5.043929 -14.541314 0
M  V30 16 C 10.522187 5.504850 -13.247069 0
M  V30 17 C 9.472455 4.739392 -12.418056 0 CFG=1
M  V30 18 C 8.616688 5.665897 -11.544091 0
M  V30 19 N 8.645768 3.771725 -13.173131 0 CFG=1 CHG=1
M  V30 20 C 7.453216 4.330518 -13.848444 0
M  V30 21 C 9.494440 2.947604 -14.050399 0
M  V30 22 C 10.167236 3.829103 -15.100310 0
M  V30 23 H 12.877192 10.451751 -5.920613 0
M  V30 24 H 11.222766 11.113244 -5.436621 0
M  V30 25 H 10.159793 9.777385 -7.141589 0
M  V30 26 H 12.759844 9.368197 -8.465602 0
M  V30 27 H 12.482826 8.041049 -7.372778 0
M  V30 28 H 9.559214 7.661006 -7.486424 0
M  V30 29 H 8.154170 6.360863 -8.993566 0
M  V30 30 H 13.127378 8.923162 -10.188524 0
M  V30 31 H 12.589130 8.172150 -12.993288 0
M  V30 32 H 13.230686 7.434363 -15.198357 0
M  V30 33 H 12.184249 5.441745 -16.230467 0
M  V30 34 H 10.062589 4.125465 -11.733458 0
M  V30 35 H 7.932436 5.085001 -10.921545 0
M  V30 36 H 8.006656 6.341686 -12.145851 0
M  V30 37 H 7.737357 5.168079 -14.484023 0
M  V30 38 H 6.712072 4.681505 -13.130480 0
M  V30 39 H 6.964598 3.574665 -14.464397 0
M  V30 40 H 10.252996 2.445827 -13.446844 0
M  V30 41 H 8.907601 2.159315 -14.523432 0
M  V30 42 H 9.435574 4.179257 -15.829043 0
M  V30 43 H 10.881620 3.227990 -15.664650 0
M  V30 44 H 8.279270 3.135647 -12.477921 0
M  V30 END ATOM
M  V30 BEGIN BOND
M  V30 1 2 2 1
M  V30 2 1 3 2
M  V30 3 1 4 3
M  V30 4 1 5 4
M  V30 5 2 6 5
M  V30 6 1 7 6
M  V30 7 2 8 7
M  V30 8 2 9 4
M  V30 9 1 9 8
M  V30 10 1 10 9
M  V30 11 1 11 8
M  V30 12 2 12 11
M  V30 13 1 13 12
M  V30 14 2 14 13
M  V30 15 1 15 14
M  V30 16 1 16 11
M  V30 17 2 16 15
M  V30 18 1 17 16
M  V30 19 1 18 7
M  V30 20 1 18 17
M  V30 21 1 19 17
M  V30 22 1 20 19
M  V30 23 1 21 19
M  V30 24 1 22 15
M  V30 25 1 22 21
M  V30 26 1 23 1
M  V30 27 1 24 1
M  V30 28 1 25 2
M  V30 29 1 26 3
M  V30 30 1 27 3
M  V30 31 1 28 5
M  V30 32 1 29 6
M  V30 33 1 30 10
M  V30 34 1 31 12
M  V30 35 1 32 13
M  V30 36 1 33 14
M  V30 37 1 17 34 CFG=1
M  V30 38 1 35 18
M  V30 39 1 36 18
M  V30 40 1 37 20
M  V30 41 1 38 20
M  V30 42 1 39 20
M  V30 43 1 40 21
M  V30 44 1 41 21
M  V30 45 1 42 22
M  V30 46 1 43 22
M  V30 47 1 19 44 CFG=1
M  V30 END BOND
M  V30 END CTAB
M  END
>  <b_m_subgroup_collapsed>  (1783) 
0

>  <r_i_docking_score>  (1783) 
-6.6832125817588501

>  <s_m_subgroup_title>  (1783) 
glide-dock_SP_D22_pv

>  <s_m_subgroupid>  (1783) 
glide-dock_SP_D22_pv

>  <Molecule ChEMBL ID>  (1783) 
CHEMBL596884

>  <Standard Type>  (1783) 
Ki

>  <Standard Value>  (1783) 
10000.0

>  <label>  (1783) 
0

$$$$
CHEMBL5273758
     RDKit          3D

  0  0  0  0  0  0  0  0  0  0999 V3000
M  V30 BEGIN CTAB
M  V30 COUNTS 43 46 0 0 1
M  V30 BEGIN ATOM
M  V30 1 C 8.782459 5.019237 -9.235975 0
M  V30 2 N 8.486024 6.172332 -10.120378 0 CFG=1 CHG=1
M  V30 3 C 9.367474 7.358075 -9.844729 0
M  V30 4 C 10.761127 7.316387 -10.552952 0
M  V30 5 C 10.592335 7.010307 -12.054459 0 CFG=1
M  V30 6 C 11.826059 6.889055 -12.939630 0
M  V30 7 C 11.805791 6.128184 -14.061959 0
M  V30 8 O 12.886034 6.069179 -14.851029 0
M  V30 9 C 10.604763 5.372322 -14.431200 0
M  V30 10 O 10.470936 4.908957 -15.679310 0
M  V30 11 C 9.648402 5.165142 -13.500625 0
M  V30 12 C 8.278290 4.499370 -13.581488 0 CFG=1
M  V30 13 C 8.221621 3.059521 -14.082051 0
M  V30 14 C 6.959342 2.498789 -14.371580 0
M  V30 15 C 6.857082 1.169217 -14.822185 0
M  V30 16 C 8.015426 0.390550 -14.989876 0
M  V30 17 C 9.278127 0.937475 -14.701584 0
M  V30 18 C 9.380482 2.265956 -14.246427 0
M  V30 19 C 7.689566 4.658394 -12.143967 0
M  V30 20 C 8.416673 5.896146 -11.584822 0 CFG=2
M  V30 21 C 9.806473 5.710530 -12.124885 0 CFG=2
M  V30 22 H 9.793154 4.639904 -9.386148 0
M  V30 23 H 8.086209 4.198079 -9.389103 0
M  V30 24 H 8.693103 5.319089 -8.191409 0
M  V30 25 H 8.844369 8.247445 -10.196478 0
M  V30 26 H 9.487858 7.496839 -8.769819 0
M  V30 27 H 11.269076 8.272470 -10.421825 0
M  V30 28 H 11.390748 6.572335 -10.071738 0
M  V30 29 H 10.008896 7.822304 -12.491435 0
M  V30 30 H 12.698759 7.464486 -12.664579 0
M  V30 31 H 13.603541 6.476336 -14.384589 0
M  V30 32 H 11.262464 5.147748 -16.140612 0
M  V30 33 H 7.686274 5.111367 -14.258579 0
M  V30 34 H 6.062985 3.087706 -14.247057 0
M  V30 35 H 5.889279 0.742306 -15.041223 0
M  V30 36 H 7.930977 -0.627469 -15.335847 0
M  V30 37 H 10.166699 0.335770 -14.821185 0
M  V30 38 H 10.360749 2.653636 -14.013888 0
M  V30 39 H 6.603714 4.759689 -12.138309 0
M  V30 40 H 7.939391 3.772600 -11.562302 0
M  V30 41 H 7.960108 6.773031 -12.050358 0
M  V30 42 H 10.310792 4.914575 -11.579686 0
M  V30 43 H 7.551285 6.502489 -9.874186 0
M  V30 END ATOM
M  V30 BEGIN BOND
M  V30 1 1 2 1
M  V30 2 1 3 2
M  V30 3 1 4 3
M  V30 4 1 5 4
M  V30 5 1 6 5
M  V30 6 2 7 6
M  V30 7 1 8 7
M  V30 8 1 9 7
M  V30 9 1 10 9
M  V30 10 2 11 9
M  V30 11 1 12 11
M  V30 12 1 13 12
M  V30 13 2 14 13
M  V30 14 1 15 14
M  V30 15 2 16 15
M  V30 16 1 17 16
M  V30 17 1 18 13
M  V30 18 2 18 17
M  V30 19 1 19 12
M  V30 20 1 20 2
M  V30 21 1 20 19
M  V30 22 1 21 5
M  V30 23 1 21 11
M  V30 24 1 21 20
M  V30 25 1 22 1
M  V30 26 1 23 1
M  V30 27 1 24 1
M  V30 28 1 25 3
M  V30 29 1 26 3
M  V30 30 1 27 4
M  V30 31 1 28 4
M  V30 32 1 5 29 CFG=3
M  V30 33 1 30 6
M  V30 34 1 31 8
M  V30 35 1 32 10
M  V30 36 1 12 33 CFG=3
M  V30 37 1 34 14
M  V30 38 1 35 15
M  V30 39 1 36 16
M  V30 40 1 37 17
M  V30 41 1 38 18
M  V30 42 1 39 19
M  V30 43 1 40 19
M  V30 44 1 20 41 CFG=3
M  V30 45 1 21 42 CFG=1
M  V30 46 1 2 43 CFG=1
M  V30 END BOND
M  V30 END CTAB
M  END
>  <b_m_subgroup_collapsed>  (1784) 
0

>  <r_i_docking_score>  (1784) 
-6.6814076915029101

>  <s_m_subgroup_title>  (1784) 
glide-dock_SP_D22_pv

>  <s_m_subgroupid>  (1784) 
glide-dock_SP_D22_pv

>  <Molecule ChEMBL ID>  (1784) 
CHEMBL5273758

>  <Standard Type>  (1784) 
Ki

>  <Standard Value>  (1784) 
12.88

>  <label>  (1784) 
1

$$$$
CHEMBL283528
     RDKit          3D

  0  0  0  0  0  0  0  0  0  0999 V3000
M  V30 BEGIN CTAB
M  V30 COUNTS 54 56 0 0 1
M  V30 BEGIN ATOM
M  V30 1 C 11.156096 8.000271 -5.647816 0
M  V30 2 C 10.377622 9.097670 -6.392480 0
M  V30 3 C 9.229063 8.550644 -7.263953 0
M  V30 4 C 9.741628 7.824834 -8.528414 0
M  V30 5 N 8.885912 6.693329 -8.983319 0 CFG=2 CHG=1
M  V30 6 C 8.695503 5.641656 -7.953262 0
M  V30 7 C 8.653202 4.286087 -8.666364 0
M  V30 8 C 8.939015 4.572615 -10.135941 0
M  V30 9 C 9.419239 6.024423 -10.190326 0 CFG=1
M  V30 10 C 9.026528 6.730662 -11.501848 0
M  V30 11 N 9.611468 6.043359 -12.646876 0
M  V30 12 C 10.885444 6.172609 -13.046944 0
M  V30 13 O 11.663793 6.972838 -12.527235 0
M  V30 14 C 11.290434 5.285160 -14.191273 0
M  V30 15 C 10.793860 3.962907 -14.251256 0
M  V30 16 C 11.166678 3.107303 -15.298352 0
M  V30 17 Cl 10.498650 1.516370 -15.380984 0
M  V30 18 C 12.083758 3.544082 -16.269876 0
M  V30 19 C 12.616768 4.853630 -16.223183 0
M  V30 20 C 12.185963 5.741219 -15.193889 0
M  V30 21 O 12.626802 7.049467 -15.146086 0
M  V30 22 C 13.207588 7.560272 -16.337852 0
M  V30 23 C 14.224950 6.551322 -16.871113 0
M  V30 24 N 13.561398 5.292461 -17.177443 0
M  V30 25 C 14.237827 4.328662 -18.033102 0
M  V30 26 H 11.895383 8.439615 -4.977759 0
M  V30 27 H 10.486910 7.384142 -5.045431 0
M  V30 28 H 11.684343 7.336926 -6.331575 0
M  V30 29 H 11.060020 9.694998 -6.999726 0
M  V30 30 H 9.974824 9.772245 -5.638721 0
M  V30 31 H 8.581079 9.371871 -7.576307 0
M  V30 32 H 8.601935 7.909029 -6.645185 0
M  V30 33 H 10.749505 7.438907 -8.358684 0
M  V30 34 H 9.841370 8.554660 -9.333577 0
M  V30 35 H 7.783275 5.818874 -7.377986 0
M  V30 36 H 9.535451 5.647493 -7.254781 0
M  V30 37 H 7.686701 3.802653 -8.554739 0
M  V30 38 H 9.378913 3.594132 -8.247267 0
M  V30 39 H 8.016685 4.454607 -10.707145 0
M  V30 40 H 9.686067 3.896995 -10.557959 0
M  V30 41 H 10.503808 6.005286 -10.097102 0
M  V30 42 H 9.333518 7.777112 -11.499309 0
M  V30 43 H 7.944229 6.726615 -11.622710 0
M  V30 44 H 9.018664 5.397727 -13.148659 0
M  V30 45 H 10.117171 3.587575 -13.496221 0
M  V30 46 H 12.365070 2.852862 -17.048624 0
M  V30 47 H 12.427615 7.758858 -17.074120 0
M  V30 48 H 13.685884 8.514446 -16.120697 0
M  V30 49 H 14.700572 6.950244 -17.768627 0
M  V30 50 H 15.011676 6.381134 -16.134619 0
M  V30 51 H 13.544025 3.906918 -18.761343 0
M  V30 52 H 15.049357 4.801900 -18.588549 0
M  V30 53 H 14.667275 3.514951 -17.446663 0
M  V30 54 H 7.955615 7.043594 -9.218140 0
M  V30 END ATOM
M  V30 BEGIN BOND
M  V30 1 1 2 1
M  V30 2 1 3 2
M  V30 3 1 4 3
M  V30 4 1 5 4
M  V30 5 1 6 5
M  V30 6 1 7 6
M  V30 7 1 8 7
M  V30 8 1 9 5
M  V30 9 1 9 8
M  V30 10 1 10 9
M  V30 11 1 11 10
M  V30 12 1 12 11
M  V30 13 2 13 12
M  V30 14 1 14 12
M  V30 15 1 15 14
M  V30 16 2 16 15
M  V30 17 1 17 16
M  V30 18 1 18 16
M  V30 19 2 19 18
M  V30 20 2 20 14
M  V30 21 1 20 19
M  V30 22 1 21 20
M  V30 23 1 22 21
M  V30 24 1 23 22
M  V30 25 1 24 19
M  V30 26 1 24 23
M  V30 27 1 25 24
M  V30 28 1 26 1
M  V30 29 1 27 1
M  V30 30 1 28 1
M  V30 31 1 29 2
M  V30 32 1 30 2
M  V30 33 1 31 3
M  V30 34 1 32 3
M  V30 35 1 33 4
M  V30 36 1 34 4
M  V30 37 1 35 6
M  V30 38 1 36 6
M  V30 39 1 37 7
M  V30 40 1 38 7
M  V30 41 1 39 8
M  V30 42 1 40 8
M  V30 43 1 9 41 CFG=1
M  V30 44 1 42 10
M  V30 45 1 43 10
M  V30 46 1 44 11
M  V30 47 1 45 15
M  V30 48 1 46 18
M  V30 49 1 47 22
M  V30 50 1 48 22
M  V30 51 1 49 23
M  V30 52 1 50 23
M  V30 53 1 51 25
M  V30 54 1 52 25
M  V30 55 1 53 25
M  V30 56 1 5 54 CFG=3
M  V30 END BOND
M  V30 END CTAB
M  END
>  <b_m_subgroup_collapsed>  (1785) 
0

>  <r_i_docking_score>  (1785) 
-6.6768611471552601

>  <s_m_subgroup_title>  (1785) 
glide-dock_SP_D22_pv

>  <s_m_subgroupid>  (1785) 
glide-dock_SP_D22_pv

>  <Molecule ChEMBL ID>  (1785) 
CHEMBL283528

>  <Standard Type>  (1785) 
Ki

>  <Standard Value>  (1785) 
12.0

>  <label>  (1785) 
1

$$$$
CHEMBL4092619
     RDKit          3D

  0  0  0  0  0  0  0  0  0  0999 V3000
M  V30 BEGIN CTAB
M  V30 COUNTS 30 32 0 0 1
M  V30 BEGIN ATOM
M  V30 1 O 10.946614 9.372040 -8.718318 0
M  V30 2 C 10.613238 8.515213 -7.903059 0
M  V30 3 N 9.857774 7.456879 -8.216569 0
M  V30 4 C 9.481819 7.065962 -9.562158 0
M  V30 5 C 8.696031 5.777030 -9.587255 0
M  V30 6 C 8.904814 4.740240 -10.663240 0
M  V30 7 C 9.363181 4.469527 -9.247065 0
M  V30 8 C 11.022881 8.603217 -6.488811 0
M  V30 9 C 11.285906 9.660914 -5.652366 0
M  V30 10 C 11.692917 9.104013 -4.388654 0
M  V30 11 C 12.082731 9.628517 -3.133983 0
M  V30 12 C 12.485559 8.790144 -2.076947 0
M  V30 13 C 12.485334 7.395430 -2.246875 0
M  V30 14 C 12.075647 6.840781 -3.465821 0
M  V30 15 C 11.685967 7.686296 -4.514067 0
M  V30 16 N 11.253676 7.425070 -5.792459 0
M  V30 17 H 9.532689 6.864822 -7.466839 0
M  V30 18 H 8.885517 7.854056 -10.023516 0
M  V30 19 H 10.382800 6.950726 -10.166018 0
M  V30 20 H 7.685905 5.883634 -9.205795 0
M  V30 21 H 8.023030 4.211886 -11.021066 0
M  V30 22 H 9.671812 4.926183 -11.411716 0
M  V30 23 H 10.431808 4.482877 -9.047296 0
M  V30 24 H 8.786586 3.767931 -8.647484 0
M  V30 25 H 11.208736 10.711125 -5.891856 0
M  V30 26 H 12.077127 10.692349 -2.972871 0
M  V30 27 H 12.791947 9.224714 -1.136165 0
M  V30 28 H 12.801620 6.744247 -1.447093 0
M  V30 29 H 12.065061 5.772376 -3.598068 0
M  V30 30 H 11.156962 6.510216 -6.208017 0
M  V30 END ATOM
M  V30 BEGIN BOND
M  V30 1 2 2 1
M  V30 2 1 3 2
M  V30 3 1 4 3
M  V30 4 1 5 4
M  V30 5 1 6 5
M  V30 6 1 7 5
M  V30 7 1 7 6
M  V30 8 1 8 2
M  V30 9 2 9 8
M  V30 10 1 10 9
M  V30 11 2 11 10
M  V30 12 1 12 11
M  V30 13 2 13 12
M  V30 14 1 14 13
M  V30 15 1 15 10
M  V30 16 2 15 14
M  V30 17 1 16 8
M  V30 18 1 16 15
M  V30 19 1 17 3
M  V30 20 1 18 4
M  V30 21 1 19 4
M  V30 22 1 20 5
M  V30 23 1 21 6
M  V30 24 1 22 6
M  V30 25 1 23 7
M  V30 26 1 24 7
M  V30 27 1 25 9
M  V30 28 1 26 11
M  V30 29 1 27 12
M  V30 30 1 28 13
M  V30 31 1 29 14
M  V30 32 1 30 16
M  V30 END BOND
M  V30 END CTAB
M  END
>  <b_m_subgroup_collapsed>  (1786) 
0

>  <r_i_docking_score>  (1786) 
-6.6724816957047599

>  <s_m_subgroup_title>  (1786) 
glide-dock_SP_D22_pv

>  <s_m_subgroupid>  (1786) 
glide-dock_SP_D22_pv

>  <Molecule ChEMBL ID>  (1786) 
CHEMBL4092619

>  <Standard Type>  (1786) 
Ki

>  <Standard Value>  (1786) 
100000.0

>  <label>  (1786) 
0

$$$$
CHEMBL3775534
     RDKit          3D

  0  0  0  0  0  0  0  0  0  0999 V3000
M  V30 BEGIN CTAB
M  V30 COUNTS 60 64 0 0 1
M  V30 BEGIN ATOM
M  V30 1 C 10.308311 0.179825 -15.733954 0
M  V30 2 C 9.652554 0.753766 -16.949989 0
M  V30 3 N 8.857736 -0.017902 -17.785669 0
M  V30 4 C 8.421609 0.831420 -18.712505 0
M  V30 5 O 8.873920 2.103943 -18.552994 0
M  V30 6 C 9.670791 2.036345 -17.439125 0
M  V30 7 C 10.337176 3.249783 -16.988953 0
M  V30 8 N 9.660848 4.362806 -16.705940 0
M  V30 9 N 10.584695 5.274519 -16.270260 0
M  V30 10 C 11.758821 4.649051 -16.342144 0
M  V30 11 S 13.288852 5.372859 -15.848213 0
M  V30 12 C 12.693627 6.709857 -14.770280 0
M  V30 13 C 12.101127 6.199857 -13.442492 0
M  V30 14 C 11.597455 7.377863 -12.595681 0
M  V30 15 N 10.970341 7.006763 -11.306408 0 CFG=2 CHG=1
M  V30 16 C 9.631576 6.393475 -11.364904 0
M  V30 17 C 9.157802 6.430887 -9.909275 0 CFG=1
M  V30 18 C 9.544592 5.196350 -9.092485 0
M  V30 19 C 10.090980 5.758688 -7.788012 0
M  V30 20 N 10.563559 7.093550 -8.072364 0
M  V30 21 C 10.939208 7.908360 -6.979339 0
M  V30 22 C 11.005328 9.312389 -7.108734 0
M  V30 23 C 11.379387 10.127463 -6.023407 0
M  V30 24 C 11.713922 9.545202 -4.788496 0
M  V30 25 C 11.685904 8.146541 -4.645502 0
M  V30 26 C 12.085934 7.535561 -3.390092 0
M  V30 27 N 12.402590 7.048052 -2.391736 0
M  V30 28 C 11.284531 7.337726 -5.727299 0
M  V30 29 C 9.888769 7.614627 -9.256345 0 CFG=1
M  V30 30 C 10.872557 8.106220 -10.326758 0
M  V30 31 N 11.668468 3.393821 -16.826935 0
M  V30 32 C 12.719981 2.432709 -17.101831 0
M  V30 33 H 10.448133 0.934539 -14.959469 0
M  V30 34 H 11.285925 -0.224988 -15.980471 0
M  V30 35 H 9.713813 -0.626176 -15.302782 0
M  V30 36 H 7.759848 0.563047 -19.524372 0
M  V30 37 H 13.544764 7.357821 -14.559522 0
M  V30 38 H 11.974624 7.323677 -15.314525 0
M  V30 39 H 11.285471 5.502903 -13.632709 0
M  V30 40 H 12.877258 5.646629 -12.910890 0
M  V30 41 H 12.450364 8.027991 -12.386189 0
M  V30 42 H 10.886398 7.957049 -13.175351 0
M  V30 43 H 8.972251 7.004227 -11.985756 0
M  V30 44 H 9.649147 5.386322 -11.782099 0
M  V30 45 H 8.086187 6.571042 -9.844615 0
M  V30 46 H 8.699772 4.524556 -8.927729 0
M  V30 47 H 10.319585 4.620669 -9.591427 0
M  V30 48 H 9.321400 5.778074 -7.015235 0
M  V30 49 H 10.944404 5.177647 -7.449761 0
M  V30 50 H 10.774026 9.772368 -8.054111 0
M  V30 51 H 11.423841 11.199443 -6.141606 0
M  V30 52 H 12.009585 10.170813 -3.958999 0
M  V30 53 H 11.272173 6.267423 -5.581344 0
M  V30 54 H 9.179963 8.396624 -8.977904 0
M  V30 55 H 11.847191 8.391463 -9.928641 0
M  V30 56 H 10.445323 8.972741 -10.828282 0
M  V30 57 H 13.661573 2.942459 -17.303699 0
M  V30 58 H 12.460591 1.833022 -17.973961 0
M  V30 59 H 12.844126 1.773307 -16.246586 0
M  V30 60 H 11.564630 6.328354 -10.857308 0
M  V30 END ATOM
M  V30 BEGIN BOND
M  V30 1 1 2 1
M  V30 2 1 3 2
M  V30 3 2 4 3
M  V30 4 1 5 4
M  V30 5 2 6 2
M  V30 6 1 6 5
M  V30 7 1 7 6
M  V30 8 2 8 7
M  V30 9 1 9 8
M  V30 10 2 10 9
M  V30 11 1 11 10
M  V30 12 1 12 11
M  V30 13 1 13 12
M  V30 14 1 14 13
M  V30 15 1 15 14
M  V30 16 1 16 15
M  V30 17 1 17 16
M  V30 18 1 18 17
M  V30 19 1 19 18
M  V30 20 1 20 19
M  V30 21 1 21 20
M  V30 22 2 22 21
M  V30 23 1 23 22
M  V30 24 2 24 23
M  V30 25 1 25 24
M  V30 26 1 26 25
M  V30 27 3 27 26
M  V30 28 1 28 21
M  V30 29 2 28 25
M  V30 30 1 29 17
M  V30 31 1 29 20
M  V30 32 1 30 15
M  V30 33 1 30 29
M  V30 34 1 31 7
M  V30 35 1 31 10
M  V30 36 1 32 31
M  V30 37 1 33 1
M  V30 38 1 34 1
M  V30 39 1 35 1
M  V30 40 1 36 4
M  V30 41 1 37 12
M  V30 42 1 38 12
M  V30 43 1 39 13
M  V30 44 1 40 13
M  V30 45 1 41 14
M  V30 46 1 42 14
M  V30 47 1 43 16
M  V30 48 1 44 16
M  V30 49 1 17 45 CFG=3
M  V30 50 1 46 18
M  V30 51 1 47 18
M  V30 52 1 48 19
M  V30 53 1 49 19
M  V30 54 1 50 22
M  V30 55 1 51 23
M  V30 56 1 52 24
M  V30 57 1 53 28
M  V30 58 1 29 54 CFG=1
M  V30 59 1 55 30
M  V30 60 1 56 30
M  V30 61 1 57 32
M  V30 62 1 58 32
M  V30 63 1 59 32
M  V30 64 1 15 60 CFG=1
M  V30 END BOND
M  V30 END CTAB
M  END
>  <b_m_subgroup_collapsed>  (1787) 
0

>  <r_i_docking_score>  (1787) 
-6.6694494146854604

>  <s_m_subgroup_title>  (1787) 
glide-dock_SP_D22_pv

>  <s_m_subgroupid>  (1787) 
glide-dock_SP_D22_pv

>  <Molecule ChEMBL ID>  (1787) 
CHEMBL3775534

>  <Standard Type>  (1787) 
Ki

>  <Standard Value>  (1787) 
5.75

>  <label>  (1787) 
1

$$$$
CHEMBL434665
     RDKit          3D

  0  0  0  0  0  0  0  0  0  0999 V3000
M  V30 BEGIN CTAB
M  V30 COUNTS 35 37 0 0 1
M  V30 BEGIN ATOM
M  V30 1 C 9.196710 8.054471 -7.945391 0
M  V30 2 C 9.694380 6.601792 -7.959889 0
M  V30 3 C 8.619531 5.583135 -8.377521 0
M  V30 4 N 8.086021 5.772324 -9.747630 0 CHG=1
M  V30 5 C 8.969719 5.442161 -10.885609 0 CFG=2
M  V30 6 C 9.726556 6.681515 -11.433314 0
M  V30 7 C 10.592010 6.360353 -12.646865 0
M  V30 8 C 11.784917 6.956995 -13.113308 0
M  V30 9 C 12.405425 6.475034 -14.300777 0
M  V30 10 C 11.860612 5.386394 -15.035219 0
M  V30 11 C 10.677194 4.785856 -14.563709 0
M  V30 12 N 9.878044 3.729178 -14.996393 0
M  V30 13 C 8.844351 3.588174 -14.143571 0
M  V30 14 O 7.932793 2.771460 -14.246864 0
M  V30 15 N 8.985275 4.519719 -13.171148 0
M  V30 16 C 10.120250 5.296831 -13.418539 0
M  V30 17 C 8.146060 4.757579 -12.002800 0
M  V30 18 H 9.980626 8.730824 -7.604375 0
M  V30 19 H 8.886024 8.384618 -8.936905 0
M  V30 20 H 8.345083 8.172323 -7.273532 0
M  V30 21 H 10.027004 6.347888 -6.952527 0
M  V30 22 H 10.581311 6.505189 -8.584063 0
M  V30 23 H 7.779228 5.653782 -7.685367 0
M  V30 24 H 9.006378 4.567980 -8.279591 0
M  V30 25 H 7.650215 6.694614 -9.850016 0
M  V30 26 H 9.705712 4.713341 -10.541120 0
M  V30 27 H 10.366605 7.127098 -10.675152 0
M  V30 28 H 9.012007 7.452761 -11.725087 0
M  V30 29 H 12.232811 7.772325 -12.566807 0
M  V30 30 H 13.319051 6.938915 -14.643870 0
M  V30 31 H 12.346784 5.026649 -15.930084 0
M  V30 32 H 7.311016 5.391622 -12.305839 0
M  V30 33 H 7.721060 3.817218 -11.648872 0
M  V30 34 H 10.057143 3.179000 -15.822670 0
M  V30 35 H 7.312369 5.120669 -9.810709 0
M  V30 END ATOM
M  V30 BEGIN BOND
M  V30 1 1 2 1
M  V30 2 1 3 2
M  V30 3 1 4 3
M  V30 4 1 5 4
M  V30 5 1 6 5
M  V30 6 1 7 6
M  V30 7 1 8 7
M  V30 8 2 9 8
M  V30 9 1 10 9
M  V30 10 2 11 10
M  V30 11 1 12 11
M  V30 12 1 13 12
M  V30 13 2 14 13
M  V30 14 1 15 13
M  V30 15 2 16 7
M  V30 16 1 16 11
M  V30 17 1 16 15
M  V30 18 1 17 5
M  V30 19 1 17 15
M  V30 20 1 18 1
M  V30 21 1 19 1
M  V30 22 1 20 1
M  V30 23 1 21 2
M  V30 24 1 22 2
M  V30 25 1 23 3
M  V30 26 1 24 3
M  V30 27 1 25 4
M  V30 28 1 5 26 CFG=1
M  V30 29 1 27 6
M  V30 30 1 28 6
M  V30 31 1 29 8
M  V30 32 1 30 9
M  V30 33 1 31 10
M  V30 34 1 32 17
M  V30 35 1 33 17
M  V30 36 1 34 12
M  V30 37 1 35 4
M  V30 END BOND
M  V30 END CTAB
M  END
>  <b_m_subgroup_collapsed>  (1788) 
0

>  <r_i_docking_score>  (1788) 
-6.6649699675956899

>  <s_m_subgroup_title>  (1788) 
glide-dock_SP_D22_pv

>  <s_m_subgroupid>  (1788) 
glide-dock_SP_D22_pv

>  <Molecule ChEMBL ID>  (1788) 
CHEMBL434665

>  <Standard Type>  (1788) 
Ki

>  <Standard Value>  (1788) 
2.5

>  <label>  (1788) 
1

$$$$
CHEMBL4572167
     RDKit          3D

  0  0  0  0  0  0  0  0  0  0999 V3000
M  V30 BEGIN CTAB
M  V30 COUNTS 43 45 0 0 1
M  V30 BEGIN ATOM
M  V30 1 C 8.781891 3.203270 -14.820034 0
M  V30 2 C 8.329843 4.557845 -14.246895 0
M  V30 3 C 8.849919 4.806403 -12.806595 0 CFG=1
M  V30 4 C 10.077912 5.722563 -12.753240 0
M  V30 5 C 11.011041 5.710388 -13.817384 0
M  V30 6 C 12.136791 6.544350 -13.795816 0
M  V30 7 C 12.366508 7.372339 -12.688527 0
M  V30 8 C 11.461728 7.381164 -11.613127 0
M  V30 9 C 10.309275 6.564824 -11.627275 0
M  V30 10 N 9.445886 6.555323 -10.510361 0
M  V30 11 C 9.801151 6.998480 -9.227201 0
M  V30 12 C 10.412581 6.121752 -8.305633 0
M  V30 13 C 10.789875 6.572281 -7.026753 0
M  V30 14 C 10.527513 7.897768 -6.645865 0
M  V30 15 C 9.898007 8.765818 -7.553900 0
M  V30 16 C 9.541035 8.327398 -8.842601 0
M  V30 17 C 8.433148 5.499728 -10.462000 0
M  V30 18 C 7.749932 5.275216 -11.822491 0 CFG=2
M  V30 19 C 6.628072 4.218571 -11.685922 0
M  V30 20 N 7.186514 6.572301 -12.246868 0 CHG=1
M  V30 21 H 8.486007 3.092279 -15.862865 0
M  V30 22 H 9.863978 3.082293 -14.776895 0
M  V30 23 H 8.340875 2.376815 -14.261200 0
M  V30 24 H 7.243200 4.572255 -14.269195 0
M  V30 25 H 8.610929 5.372509 -14.914371 0
M  V30 26 H 9.207521 3.849527 -12.420266 0
M  V30 27 H 10.879413 5.070443 -14.675082 0
M  V30 28 H 12.839725 6.532261 -14.616221 0
M  V30 29 H 13.244900 8.001060 -12.660705 0
M  V30 30 H 11.672586 8.026003 -10.772590 0
M  V30 31 H 10.608516 5.097300 -8.584602 0
M  V30 32 H 11.270651 5.896461 -6.335025 0
M  V30 33 H 10.801154 8.245008 -5.660474 0
M  V30 34 H 9.686075 9.772350 -7.255624 0
M  V30 35 H 9.053709 9.004772 -9.528574 0
M  V30 36 H 8.894150 4.572884 -10.117060 0
M  V30 37 H 7.686013 5.770008 -9.713992 0
M  V30 38 H 6.868745 3.494668 -10.907485 0
M  V30 39 H 5.670856 4.680325 -11.446869 0
M  V30 40 H 6.448530 3.631152 -12.582899 0
M  V30 41 H 7.944780 7.160917 -12.555975 0
M  V30 42 H 6.484726 6.467740 -12.960724 0
M  V30 43 H 6.791394 7.028665 -11.404327 0
M  V30 END ATOM
M  V30 BEGIN BOND
M  V30 1 1 2 1
M  V30 2 1 3 2
M  V30 3 1 4 3
M  V30 4 2 5 4
M  V30 5 1 6 5
M  V30 6 2 7 6
M  V30 7 1 8 7
M  V30 8 1 9 4
M  V30 9 2 9 8
M  V30 10 1 10 9
M  V30 11 1 11 10
M  V30 12 2 12 11
M  V30 13 1 13 12
M  V30 14 2 14 13
M  V30 15 1 15 14
M  V30 16 1 16 11
M  V30 17 2 16 15
M  V30 18 1 17 10
M  V30 19 1 18 3
M  V30 20 1 18 17
M  V30 21 1 18 19 CFG=1
M  V30 22 1 20 18
M  V30 23 1 21 1
M  V30 24 1 22 1
M  V30 25 1 23 1
M  V30 26 1 24 2
M  V30 27 1 25 2
M  V30 28 1 3 26 CFG=1
M  V30 29 1 27 5
M  V30 30 1 28 6
M  V30 31 1 29 7
M  V30 32 1 30 8
M  V30 33 1 31 12
M  V30 34 1 32 13
M  V30 35 1 33 14
M  V30 36 1 34 15
M  V30 37 1 35 16
M  V30 38 1 36 17
M  V30 39 1 37 17
M  V30 40 1 38 19
M  V30 41 1 39 19
M  V30 42 1 40 19
M  V30 43 1 41 20
M  V30 44 1 42 20
M  V30 45 1 43 20
M  V30 END BOND
M  V30 END CTAB
M  END
>  <b_m_subgroup_collapsed>  (1789) 
0

>  <r_i_docking_score>  (1789) 
-6.6638810459843603

>  <s_m_subgroup_title>  (1789) 
glide-dock_SP_D22_pv

>  <s_m_subgroupid>  (1789) 
glide-dock_SP_D22_pv

>  <Molecule ChEMBL ID>  (1789) 
CHEMBL4572167

>  <Standard Type>  (1789) 
Ki

>  <Standard Value>  (1789) 
10000.0

>  <label>  (1789) 
0

$$$$
CHEMBL46374
     RDKit          3D

  0  0  0  0  0  0  0  0  0  0999 V3000
M  V30 BEGIN CTAB
M  V30 COUNTS 39 40 0 0 1
M  V30 BEGIN ATOM
M  V30 1 O 6.570813 4.203739 -11.846851 0
M  V30 2 C 6.676850 5.489774 -12.418671 0
M  V30 3 C 8.118459 6.047722 -12.394101 0
M  V30 4 N 8.485998 6.572233 -11.056813 0 CFG=2 CHG=1
M  V30 5 C 9.328681 7.789452 -11.044074 0
M  V30 6 C 9.277892 8.438165 -9.644703 0
M  V30 7 C 9.533834 7.425206 -8.501295 0 CFG=2
M  V30 8 C 11.039711 7.254590 -8.301772 0
M  V30 9 O 11.468228 8.384309 -7.562471 0
M  V30 10 C 11.413840 8.345828 -6.188018 0
M  V30 11 C 11.400424 7.152766 -5.415449 0
M  V30 12 C 11.685786 7.204271 -4.040237 0
M  V30 13 C 11.867457 8.450075 -3.421162 0
M  V30 14 I 12.485924 8.572628 -1.446881 0
M  V30 15 C 11.686149 9.636060 -4.141370 0
M  V30 16 C 11.498328 9.587881 -5.531226 0
M  V30 17 C 8.820570 6.072099 -8.698009 0
M  V30 18 C 8.989210 5.545631 -10.118896 0
M  V30 19 H 6.309037 4.291768 -10.934654 0
M  V30 20 H 6.348350 5.375446 -13.448463 0
M  V30 21 H 5.972319 6.171572 -11.939487 0
M  V30 22 H 8.845581 5.314461 -12.746391 0
M  V30 23 H 8.144832 6.872702 -13.105132 0
M  V30 24 H 10.351341 7.537140 -11.327618 0
M  V30 25 H 8.964322 8.511248 -11.776114 0
M  V30 26 H 9.998985 9.255370 -9.595778 0
M  V30 27 H 8.318195 8.928556 -9.491758 0
M  V30 28 H 9.120868 7.845870 -7.582774 0
M  V30 29 H 11.290513 6.295377 -7.859533 0
M  V30 30 H 11.558340 7.256556 -9.260312 0
M  V30 31 H 11.312125 6.171523 -5.848176 0
M  V30 32 H 11.789451 6.290931 -3.472070 0
M  V30 33 H 11.773046 10.572323 -3.620331 0
M  V30 34 H 11.473118 10.504663 -6.102258 0
M  V30 35 H 9.179796 5.337785 -7.976163 0
M  V30 36 H 7.753325 6.172323 -8.498158 0
M  V30 37 H 8.435859 4.613053 -10.210950 0
M  V30 38 H 10.032451 5.310909 -10.334860 0
M  V30 39 H 7.597243 6.915157 -10.665369 0
M  V30 END ATOM
M  V30 BEGIN BOND
M  V30 1 1 2 1
M  V30 2 1 3 2
M  V30 3 1 4 3
M  V30 4 1 5 4
M  V30 5 1 6 5
M  V30 6 1 7 6
M  V30 7 1 8 7
M  V30 8 1 9 8
M  V30 9 1 10 9
M  V30 10 1 11 10
M  V30 11 2 12 11
M  V30 12 1 13 12
M  V30 13 1 14 13
M  V30 14 2 15 13
M  V30 15 2 16 10
M  V30 16 1 16 15
M  V30 17 1 17 7
M  V30 18 1 18 4
M  V30 19 1 18 17
M  V30 20 1 19 1
M  V30 21 1 20 2
M  V30 22 1 21 2
M  V30 23 1 22 3
M  V30 24 1 23 3
M  V30 25 1 24 5
M  V30 26 1 25 5
M  V30 27 1 26 6
M  V30 28 1 27 6
M  V30 29 1 7 28 CFG=1
M  V30 30 1 29 8
M  V30 31 1 30 8
M  V30 32 1 31 11
M  V30 33 1 32 12
M  V30 34 1 33 15
M  V30 35 1 34 16
M  V30 36 1 35 17
M  V30 37 1 36 17
M  V30 38 1 37 18
M  V30 39 1 38 18
M  V30 40 1 4 39 CFG=1
M  V30 END BOND
M  V30 END CTAB
M  END
>  <b_m_subgroup_collapsed>  (1790) 
0

>  <r_i_docking_score>  (1790) 
-6.6633696822393702

>  <s_m_subgroup_title>  (1790) 
glide-dock_SP_D22_pv

>  <s_m_subgroupid>  (1790) 
glide-dock_SP_D22_pv

>  <Molecule ChEMBL ID>  (1790) 
CHEMBL46374

>  <Standard Type>  (1790) 
Ki

>  <Standard Value>  (1790) 
10000.0

>  <label>  (1790) 
0

$$$$
CHEMBL563635
     RDKit          3D

  0  0  0  0  0  0  0  0  0  0999 V3000
M  V30 BEGIN CTAB
M  V30 COUNTS 43 44 0 0 1
M  V30 BEGIN ATOM
M  V30 1 C 5.921762 3.914295 -11.846781 0
M  V30 2 C 6.686768 5.231912 -11.980089 0
M  V30 3 N 8.154605 5.037537 -12.144978 0 CHG=1
M  V30 4 C 8.601636 4.905494 -13.562157 0
M  V30 5 C 8.146989 3.610996 -14.247740 0
M  V30 6 C 8.929052 6.088021 -11.435998 0
M  V30 7 C 9.054158 5.798368 -9.925963 0
M  V30 8 N 9.825111 6.810079 -9.198156 0
M  V30 9 C 10.620137 7.836868 -9.852498 0
M  V30 10 C 11.172571 8.638310 -8.684025 0
M  V30 11 N 10.666450 7.925145 -7.519882 0
M  V30 12 C 10.956410 8.346989 -6.194911 0
M  V30 13 C 10.958005 9.724603 -5.899991 0
M  V30 14 C 11.286139 10.171785 -4.613335 0
M  V30 15 C 11.686141 9.260028 -3.620882 0
M  V30 16 C 11.686024 7.881572 -3.901748 0
M  V30 17 Cl 12.108748 6.764838 -2.659869 0
M  V30 18 C 11.289737 7.420984 -5.175777 0
M  V30 19 C 9.858256 6.908980 -7.861749 0
M  V30 20 O 9.254284 6.172529 -7.084842 0
M  V30 21 H 4.886041 4.126412 -11.591149 0
M  V30 22 H 5.906906 3.314327 -12.751515 0
M  V30 23 H 6.343743 3.310607 -11.046989 0
M  V30 24 H 6.490859 5.772028 -11.052539 0
M  V30 25 H 6.280989 5.847000 -12.783515 0
M  V30 26 H 8.287719 5.772755 -14.142217 0
M  V30 27 H 9.691785 4.897675 -13.591366 0
M  V30 28 H 8.679122 3.476564 -15.191048 0
M  V30 29 H 8.354715 2.735958 -13.632657 0
M  V30 30 H 7.086965 3.629528 -14.492057 0
M  V30 31 H 8.469853 7.062713 -11.612029 0
M  V30 32 H 9.937178 6.143814 -11.847858 0
M  V30 33 H 9.527762 4.827296 -9.766976 0
M  V30 34 H 8.065248 5.735405 -9.470712 0
M  V30 35 H 11.422990 7.394024 -10.442219 0
M  V30 36 H 10.004939 8.466744 -10.496780 0
M  V30 37 H 10.810188 9.665154 -8.722439 0
M  V30 38 H 12.263973 8.651953 -8.683223 0
M  V30 39 H 10.700006 10.458878 -6.646472 0
M  V30 40 H 11.285516 11.227742 -4.409552 0
M  V30 41 H 11.968659 9.615437 -2.640367 0
M  V30 42 H 11.290874 6.356871 -5.372269 0
M  V30 43 H 8.393884 4.170424 -11.684899 0
M  V30 END ATOM
M  V30 BEGIN BOND
M  V30 1 1 2 1
M  V30 2 1 3 2
M  V30 3 1 4 3
M  V30 4 1 5 4
M  V30 5 1 6 3
M  V30 6 1 7 6
M  V30 7 1 8 7
M  V30 8 1 9 8
M  V30 9 1 10 9
M  V30 10 1 11 10
M  V30 11 1 12 11
M  V30 12 2 13 12
M  V30 13 1 14 13
M  V30 14 2 15 14
M  V30 15 1 16 15
M  V30 16 1 17 16
M  V30 17 1 18 12
M  V30 18 2 18 16
M  V30 19 1 19 8
M  V30 20 1 19 11
M  V30 21 2 20 19
M  V30 22 1 21 1
M  V30 23 1 22 1
M  V30 24 1 23 1
M  V30 25 1 24 2
M  V30 26 1 25 2
M  V30 27 1 26 4
M  V30 28 1 27 4
M  V30 29 1 28 5
M  V30 30 1 29 5
M  V30 31 1 30 5
M  V30 32 1 31 6
M  V30 33 1 32 6
M  V30 34 1 33 7
M  V30 35 1 34 7
M  V30 36 1 35 9
M  V30 37 1 36 9
M  V30 38 1 37 10
M  V30 39 1 38 10
M  V30 40 1 39 13
M  V30 41 1 40 14
M  V30 42 1 41 15
M  V30 43 1 42 18
M  V30 44 1 43 3
M  V30 END BOND
M  V30 END CTAB
M  END
>  <b_m_subgroup_collapsed>  (1791) 
0

>  <r_i_docking_score>  (1791) 
-6.6620420319588503

>  <s_m_subgroup_title>  (1791) 
glide-dock_SP_D22_pv

>  <s_m_subgroupid>  (1791) 
glide-dock_SP_D22_pv

>  <Molecule ChEMBL ID>  (1791) 
CHEMBL563635

>  <Standard Type>  (1791) 
Ki

>  <Standard Value>  (1791) 
25.12

>  <label>  (1791) 
1

$$$$
CHEMBL5190788
     RDKit          3D

  0  0  0  0  0  0  0  0  0  0999 V3000
M  V30 BEGIN CTAB
M  V30 COUNTS 60 63 0 0 1
M  V30 BEGIN ATOM
M  V30 1 N 11.686030 11.009380 -6.246844 0
M  V30 2 C 11.685689 10.087352 -5.570062 0
M  V30 3 C 11.688762 8.908682 -4.750447 0
M  V30 4 C 12.184174 9.023978 -3.436117 0
M  V30 5 C 12.227829 7.883844 -2.622999 0
M  V30 6 C 11.772764 6.675159 -3.169589 0
M  V30 7 N 11.286040 6.572187 -4.424456 0
M  V30 8 C 11.223243 7.652833 -5.225847 0
M  V30 9 N 10.639307 7.410080 -6.499947 0
M  V30 10 C 10.993847 8.163589 -7.698142 0
M  V30 11 C 10.791780 7.334611 -8.967505 0
M  V30 12 N 9.465473 6.668070 -9.050001 0 CHG=1
M  V30 13 C 9.453085 5.714757 -10.186457 0
M  V30 14 C 8.132791 5.707364 -10.950423 0
M  V30 15 C 8.014807 4.426643 -11.786342 0
M  V30 16 N 7.651010 4.745628 -13.162118 0
M  V30 17 C 8.657621 4.288024 -14.133040 0
M  V30 18 C 8.650982 2.752347 -14.328880 0
M  V30 19 N 7.295303 2.266953 -14.561110 0
M  V30 20 C 7.003173 1.364692 -15.602562 0
M  V30 21 C 7.512544 1.638789 -16.892481 0
M  V30 22 C 7.214096 0.801069 -17.982260 0
M  V30 23 C 6.396759 -0.325724 -17.793987 0
M  V30 24 C 5.890584 -0.623562 -16.515392 0
M  V30 25 Cl 4.885980 -2.013916 -16.320530 0
M  V30 26 C 6.199563 0.204726 -15.412748 0
M  V30 27 Cl 5.598989 -0.231599 -13.847120 0
M  V30 28 C 6.285377 2.716932 -13.612032 0
M  V30 29 C 6.312760 4.246630 -13.494480 0
M  V30 30 C 9.061600 6.001769 -7.779746 0
M  V30 31 C 9.282405 6.874743 -6.531613 0
M  V30 32 H 12.531130 9.971901 -3.051680 0
M  V30 33 H 12.600163 7.934849 -1.611735 0
M  V30 34 H 11.789444 5.772455 -2.580208 0
M  V30 35 H 10.373481 9.059229 -7.755117 0
M  V30 36 H 12.037889 8.476193 -7.657465 0
M  V30 37 H 10.944130 7.964449 -9.845954 0
M  V30 38 H 11.563329 6.572791 -8.993021 0
M  V30 39 H 10.226847 5.971883 -10.912610 0
M  V30 40 H 9.704662 4.712597 -9.833551 0
M  V30 41 H 7.286397 5.771058 -10.268398 0
M  V30 42 H 8.083132 6.602427 -11.574615 0
M  V30 43 H 8.953801 3.872042 -11.772930 0
M  V30 44 H 7.283542 3.772437 -11.313726 0
M  V30 45 H 8.486018 4.782381 -15.086061 0
M  V30 46 H 9.647736 4.619407 -13.816628 0
M  V30 47 H 9.319666 2.479093 -15.145244 0
M  V30 48 H 9.048537 2.252527 -13.446774 0
M  V30 49 H 8.121306 2.515387 -17.061010 0
M  V30 50 H 7.605228 1.026997 -18.963951 0
M  V30 51 H 6.157969 -0.966499 -18.629995 0
M  V30 52 H 5.286589 2.408163 -13.915813 0
M  V30 53 H 6.479583 2.255106 -12.647654 0
M  V30 54 H 5.593494 4.589044 -12.749336 0
M  V30 55 H 5.986973 4.652929 -14.445706 0
M  V30 56 H 8.016157 5.698520 -7.842757 0
M  V30 57 H 9.644772 5.089665 -7.658718 0
M  V30 58 H 9.076068 6.280161 -5.642417 0
M  V30 59 H 8.575172 7.705881 -6.525761 0
M  V30 60 H 8.767184 7.376903 -9.243462 0
M  V30 END ATOM
M  V30 BEGIN BOND
M  V30 1 3 2 1
M  V30 2 1 3 2
M  V30 3 2 4 3
M  V30 4 1 5 4
M  V30 5 2 6 5
M  V30 6 1 7 6
M  V30 7 1 8 3
M  V30 8 2 8 7
M  V30 9 1 9 8
M  V30 10 1 10 9
M  V30 11 1 11 10
M  V30 12 1 12 11
M  V30 13 1 13 12
M  V30 14 1 14 13
M  V30 15 1 15 14
M  V30 16 1 16 15
M  V30 17 1 17 16
M  V30 18 1 18 17
M  V30 19 1 19 18
M  V30 20 1 20 19
M  V30 21 2 21 20
M  V30 22 1 22 21
M  V30 23 2 23 22
M  V30 24 1 24 23
M  V30 25 1 25 24
M  V30 26 1 26 20
M  V30 27 2 26 24
M  V30 28 1 27 26
M  V30 29 1 28 19
M  V30 30 1 29 16
M  V30 31 1 29 28
M  V30 32 1 30 12
M  V30 33 1 31 9
M  V30 34 1 31 30
M  V30 35 1 32 4
M  V30 36 1 33 5
M  V30 37 1 34 6
M  V30 38 1 35 10
M  V30 39 1 36 10
M  V30 40 1 37 11
M  V30 41 1 38 11
M  V30 42 1 39 13
M  V30 43 1 40 13
M  V30 44 1 41 14
M  V30 45 1 42 14
M  V30 46 1 43 15
M  V30 47 1 44 15
M  V30 48 1 45 17
M  V30 49 1 46 17
M  V30 50 1 47 18
M  V30 51 1 48 18
M  V30 52 1 49 21
M  V30 53 1 50 22
M  V30 54 1 51 23
M  V30 55 1 52 28
M  V30 56 1 53 28
M  V30 57 1 54 29
M  V30 58 1 55 29
M  V30 59 1 56 30
M  V30 60 1 57 30
M  V30 61 1 58 31
M  V30 62 1 59 31
M  V30 63 1 60 12
M  V30 END BOND
M  V30 END CTAB
M  END
>  <b_m_subgroup_collapsed>  (1792) 
0

>  <r_i_docking_score>  (1792) 
-6.66171780016579

>  <s_m_subgroup_title>  (1792) 
glide-dock_SP_D22_pv

>  <s_m_subgroupid>  (1792) 
glide-dock_SP_D22_pv

>  <Molecule ChEMBL ID>  (1792) 
CHEMBL5190788

>  <Standard Type>  (1792) 
Ki

>  <Standard Value>  (1792) 
10.0

>  <label>  (1792) 
1

$$$$
CHEMBL141510
     RDKit          3D

  0  0  0  0  0  0  0  0  0  0999 V3000
M  V30 BEGIN CTAB
M  V30 COUNTS 46 47 0 0 1
M  V30 BEGIN ATOM
M  V30 1 C 12.284200 7.637694 -12.294074 0
M  V30 2 C 12.638640 8.310145 -10.965426 0
M  V30 3 C 11.846830 7.779138 -9.767048 0
M  V30 4 C 10.441414 8.399802 -9.645571 0
M  V30 5 N 9.580297 7.737094 -8.612342 0 CFG=1 CHG=1
M  V30 6 C 9.291154 6.300993 -8.890924 0
M  V30 7 C 8.957675 6.011962 -10.371291 0
M  V30 8 C 8.701290 4.547137 -10.631057 0
M  V30 9 C 9.892479 8.053601 -7.168063 0 CFG=2
M  V30 10 C 10.411361 9.483258 -6.979594 0
M  V30 11 C 10.630060 9.932051 -5.537047 0
M  V30 12 C 11.281299 8.879903 -4.676920 0
M  V30 13 C 11.751877 9.261699 -3.408592 0
M  V30 14 F 11.686060 10.556401 -3.045264 0
M  V30 15 C 12.235024 8.304343 -2.502762 0
M  V30 16 C 12.225836 6.949578 -2.868534 0
M  V30 17 C 11.755989 6.572327 -4.139513 0
M  V30 18 C 11.288022 7.521775 -5.063059 0
M  V30 19 C 10.823098 7.055865 -6.442688 0
M  V30 20 H 12.884871 8.047517 -13.107553 0
M  V30 21 H 12.485437 6.571918 -12.248237 0
M  V30 22 H 11.233715 7.771774 -12.552267 0
M  V30 23 H 12.485783 9.381004 -11.046842 0
M  V30 24 H 13.701672 8.173024 -10.777594 0
M  V30 25 H 12.414051 7.994954 -8.863514 0
M  V30 26 H 11.779791 6.697818 -9.846826 0
M  V30 27 H 9.931462 8.369908 -10.606670 0
M  V30 28 H 10.520243 9.473649 -9.487434 0
M  V30 29 H 10.141010 5.680459 -8.606500 0
M  V30 30 H 8.455006 5.991348 -8.261570 0
M  V30 31 H 8.086045 6.573331 -10.689083 0
M  V30 32 H 9.771842 6.287405 -11.038989 0
M  V30 33 H 8.399363 4.377817 -11.665473 0
M  V30 34 H 9.612099 3.971323 -10.452446 0
M  V30 35 H 7.909320 4.172347 -9.983435 0
M  V30 36 H 8.932020 8.001717 -6.650863 0
M  V30 37 H 11.368272 9.610669 -7.487372 0
M  V30 38 H 9.686125 10.128625 -7.446827 0
M  V30 39 H 9.686212 10.172325 -5.047128 0
M  V30 40 H 11.224646 10.846900 -5.522719 0
M  V30 41 H 12.584335 8.609315 -1.526544 0
M  V30 42 H 12.582477 6.195855 -2.180637 0
M  V30 43 H 11.778934 5.536237 -4.419583 0
M  V30 44 H 11.714821 6.853319 -7.034256 0
M  V30 45 H 10.307796 6.105741 -6.319411 0
M  V30 46 H 8.677534 8.172585 -8.762568 0
M  V30 END ATOM
M  V30 BEGIN BOND
M  V30 1 1 2 1
M  V30 2 1 3 2
M  V30 3 1 4 3
M  V30 4 1 5 4
M  V30 5 1 6 5
M  V30 6 1 7 6
M  V30 7 1 8 7
M  V30 8 1 9 5
M  V30 9 1 10 9
M  V30 10 1 11 10
M  V30 11 1 12 11
M  V30 12 2 13 12
M  V30 13 1 14 13
M  V30 14 1 15 13
M  V30 15 2 16 15
M  V30 16 1 17 16
M  V30 17 1 18 12
M  V30 18 2 18 17
M  V30 19 1 19 9
M  V30 20 1 19 18
M  V30 21 1 20 1
M  V30 22 1 21 1
M  V30 23 1 22 1
M  V30 24 1 23 2
M  V30 25 1 24 2
M  V30 26 1 25 3
M  V30 27 1 26 3
M  V30 28 1 27 4
M  V30 29 1 28 4
M  V30 30 1 29 6
M  V30 31 1 30 6
M  V30 32 1 31 7
M  V30 33 1 32 7
M  V30 34 1 33 8
M  V30 35 1 34 8
M  V30 36 1 35 8
M  V30 37 1 9 36 CFG=1
M  V30 38 1 37 10
M  V30 39 1 38 10
M  V30 40 1 39 11
M  V30 41 1 40 11
M  V30 42 1 41 15
M  V30 43 1 42 16
M  V30 44 1 43 17
M  V30 45 1 44 19
M  V30 46 1 45 19
M  V30 47 1 5 46 CFG=3
M  V30 END BOND
M  V30 END CTAB
M  END
>  <b_m_subgroup_collapsed>  (1793) 
0

>  <r_i_docking_score>  (1793) 
-6.6594276368937697

>  <s_m_subgroup_title>  (1793) 
glide-dock_SP_D22_pv

>  <s_m_subgroupid>  (1793) 
glide-dock_SP_D22_pv

>  <Molecule ChEMBL ID>  (1793) 
CHEMBL141510

>  <Standard Type>  (1793) 
Ki

>  <Standard Value>  (1793) 
45.6

>  <label>  (1793) 
1

$$$$
CHEMBL4570209
     RDKit          3D

  0  0  0  0  0  0  0  0  0  0999 V3000
M  V30 BEGIN CTAB
M  V30 COUNTS 78 83 0 0 1
M  V30 BEGIN ATOM
M  V30 1 C 9.908552 7.688695 -6.350909 0
M  V30 2 O 9.890872 8.357733 -7.602570 0
M  V30 3 C 9.726495 7.592145 -8.738796 0
M  V30 4 C 9.546945 6.186001 -8.736953 0
M  V30 5 C 9.414992 5.481711 -9.948058 0
M  V30 6 C 9.449988 6.166852 -11.182528 0
M  V30 7 C 9.378105 5.410549 -12.458954 0
M  V30 8 C 10.552035 5.444679 -13.340242 0
M  V30 9 O 11.527788 6.170282 -13.135585 0
M  V30 10 N 10.491723 4.623035 -14.482620 0
M  V30 11 C 11.575885 4.718738 -15.445801 0
M  V30 12 C 11.307970 5.816809 -16.490782 0
M  V30 13 C 12.343414 5.826372 -17.626577 0
M  V30 14 C 11.998182 6.805950 -18.765863 0
M  V30 15 N 10.637669 6.613090 -19.339752 0 CFG=2 CHG=1
M  V30 16 C 10.380929 5.238523 -19.856272 0
M  V30 17 C 8.917505 5.077739 -20.292141 0
M  V30 18 C 8.553999 6.117768 -21.354908 0
M  V30 19 C 8.849092 7.534758 -20.839355 0 CFG=2
M  V30 20 C 8.498644 8.548324 -21.888885 0
M  V30 21 C 9.288659 8.976436 -22.929441 0
M  V30 22 N 8.579865 9.887627 -23.690752 0
M  V30 23 C 7.311196 10.065189 -23.180334 0
M  V30 24 C 6.228883 10.857977 -23.591990 0
M  V30 25 C 5.014611 10.785717 -22.889128 0
M  V30 26 C 4.888207 9.930775 -21.764725 0
M  V30 27 O 3.723193 9.772787 -21.048058 0
M  V30 28 C 2.534027 10.293814 -21.620462 0
M  V30 29 C 6.003582 9.180870 -21.341574 0
M  V30 30 C 7.233521 9.214122 -22.040874 0
M  V30 31 C 10.314336 7.649293 -20.357901 0
M  V30 32 C 9.389385 3.817827 -14.819699 0
M  V30 33 O 9.370472 3.151451 -15.859367 0
M  V30 34 N 8.285075 3.831691 -13.949215 0
M  V30 35 C 7.172819 3.045529 -14.242863 0
M  V30 36 C 6.085730 3.033643 -13.446754 0
M  V30 37 C 6.046669 3.856280 -12.260661 0
M  V30 38 C 7.104830 4.617477 -11.951466 0
M  V30 39 C 8.305327 4.631234 -12.791974 0
M  V30 40 C 9.613630 7.568972 -11.189127 0
M  V30 41 C 9.749361 8.270691 -9.973022 0
M  V30 42 H 10.086848 8.408590 -5.552737 0
M  V30 43 H 8.953855 7.196710 -6.160787 0
M  V30 44 H 10.711650 6.952753 -6.303109 0
M  V30 45 H 9.512609 5.618719 -7.819757 0
M  V30 46 H 9.298461 4.408385 -9.924689 0
M  V30 47 H 12.507812 4.887779 -14.902725 0
M  V30 48 H 11.698294 3.737248 -15.904043 0
M  V30 49 H 10.309852 5.662267 -16.900700 0
M  V30 50 H 11.287905 6.794615 -16.006983 0
M  V30 51 H 13.317571 6.090839 -17.216270 0
M  V30 52 H 12.471893 4.818263 -18.023157 0
M  V30 53 H 12.077359 7.826407 -18.385632 0
M  V30 54 H 12.740729 6.716012 -19.560816 0
M  V30 55 H 11.051792 5.027177 -20.690182 0
M  V30 56 H 10.575333 4.486963 -19.092905 0
M  V30 57 H 8.750977 4.074248 -20.684471 0
M  V30 58 H 8.258906 5.187234 -19.430214 0
M  V30 59 H 9.120803 5.924664 -22.265337 0
M  V30 60 H 7.497643 6.023534 -21.616707 0
M  V30 61 H 8.212590 7.708913 -19.970882 0
M  V30 62 H 10.301332 8.710200 -23.197641 0
M  V30 63 H 8.966590 10.363067 -24.497383 0
M  V30 64 H 6.321829 11.496967 -24.459110 0
M  V30 65 H 4.187839 11.386940 -23.239012 0
M  V30 66 H 1.686069 9.941937 -21.043106 0
M  V30 67 H 2.522647 11.385807 -21.603554 0
M  V30 68 H 2.392279 9.946749 -22.646103 0
M  V30 69 H 5.905340 8.537374 -20.479748 0
M  V30 70 H 10.479436 8.642704 -19.935963 0
M  V30 71 H 11.002769 7.543349 -21.196806 0
M  V30 72 H 7.160926 2.417220 -15.122282 0
M  V30 73 H 5.243158 2.406645 -13.696310 0
M  V30 74 H 5.173892 3.875787 -11.627239 0
M  V30 75 H 7.027342 5.246114 -11.073149 0
M  V30 76 H 9.645064 8.110278 -12.123055 0
M  V30 77 H 9.877842 9.343222 -9.986533 0
M  V30 78 H 9.989829 6.755565 -18.577816 0
M  V30 END ATOM
M  V30 BEGIN BOND
M  V30 1 1 2 1
M  V30 2 1 3 2
M  V30 3 1 4 3
M  V30 4 2 5 4
M  V30 5 1 6 5
M  V30 6 1 7 6
M  V30 7 1 8 7
M  V30 8 2 9 8
M  V30 9 1 10 8
M  V30 10 1 11 10
M  V30 11 1 12 11
M  V30 12 1 13 12
M  V30 13 1 14 13
M  V30 14 1 15 14
M  V30 15 1 16 15
M  V30 16 1 17 16
M  V30 17 1 18 17
M  V30 18 1 19 18
M  V30 19 1 20 19
M  V30 20 2 21 20
M  V30 21 1 22 21
M  V30 22 1 23 22
M  V30 23 1 24 23
M  V30 24 2 25 24
M  V30 25 1 26 25
M  V30 26 1 27 26
M  V30 27 1 28 27
M  V30 28 2 29 26
M  V30 29 1 30 20
M  V30 30 2 30 23
M  V30 31 1 30 29
M  V30 32 1 31 15
M  V30 33 1 31 19
M  V30 34 1 32 10
M  V30 35 2 33 32
M  V30 36 1 34 32
M  V30 37 1 35 34
M  V30 38 2 36 35
M  V30 39 1 37 36
M  V30 40 2 38 37
M  V30 41 2 39 7
M  V30 42 1 39 34
M  V30 43 1 39 38
M  V30 44 2 40 6
M  V30 45 2 41 3
M  V30 46 1 41 40
M  V30 47 1 42 1
M  V30 48 1 43 1
M  V30 49 1 44 1
M  V30 50 1 45 4
M  V30 51 1 46 5
M  V30 52 1 47 11
M  V30 53 1 48 11
M  V30 54 1 49 12
M  V30 55 1 50 12
M  V30 56 1 51 13
M  V30 57 1 52 13
M  V30 58 1 53 14
M  V30 59 1 54 14
M  V30 60 1 55 16
M  V30 61 1 56 16
M  V30 62 1 57 17
M  V30 63 1 58 17
M  V30 64 1 59 18
M  V30 65 1 60 18
M  V30 66 1 19 61 CFG=1
M  V30 67 1 62 21
M  V30 68 1 63 22
M  V30 69 1 64 24
M  V30 70 1 65 25
M  V30 71 1 66 28
M  V30 72 1 67 28
M  V30 73 1 68 28
M  V30 74 1 69 29
M  V30 75 1 70 31
M  V30 76 1 71 31
M  V30 77 1 72 35
M  V30 78 1 73 36
M  V30 79 1 74 37
M  V30 80 1 75 38
M  V30 81 1 76 40
M  V30 82 1 77 41
M  V30 83 1 15 78 CFG=1
M  V30 END BOND
M  V30 END CTAB
M  END
>  <b_m_subgroup_collapsed>  (1794) 
0

>  <r_i_docking_score>  (1794) 
-6.6583455526027997

>  <s_m_subgroup_title>  (1794) 
glide-dock_SP_D22_pv

>  <s_m_subgroupid>  (1794) 
glide-dock_SP_D22_pv

>  <Molecule ChEMBL ID>  (1794) 
CHEMBL4570209

>  <Standard Type>  (1794) 
Ki

>  <Standard Value>  (1794) 
11160.0

>  <label>  (1794) 
0

$$$$
CHEMBL5870203
     RDKit          3D

  0  0  0  0  0  0  0  0  0  0999 V3000
M  V30 BEGIN CTAB
M  V30 COUNTS 71 74 0 0 1
M  V30 BEGIN ATOM
M  V30 1 C 12.460752 9.375540 -4.485753 0
M  V30 2 N 11.685908 8.635929 -5.457397 0
M  V30 3 C 11.661156 8.765872 -6.827152 0
M  V30 4 C 10.780116 7.834704 -7.304688 0
M  V30 5 C 10.467950 7.494846 -8.650245 0
M  V30 6 C 11.287720 7.764208 -9.678693 0
M  V30 7 C 10.914893 7.372638 -11.018238 0
M  V30 8 O 9.789310 7.059659 -11.396062 0
M  V30 9 N 11.988415 7.377360 -11.821549 0
M  V30 10 C 11.927829 7.126251 -13.244706 0 CFG=1
M  V30 11 C 13.017001 7.912139 -13.987593 0
M  V30 12 C 12.988285 7.623904 -15.500228 0
M  V30 13 C 13.010254 6.120383 -15.850627 0 CFG=2
M  V30 14 F 14.196483 5.644172 -15.487547 0
M  V30 15 C 12.890090 5.937922 -17.381245 0
M  V30 16 C 13.046318 4.490842 -17.909191 0
M  V30 17 N 11.840665 3.649433 -17.672686 0 CFG=1 CHG=1
M  V30 18 C 10.711872 3.964752 -18.592672 0
M  V30 19 C 9.343135 3.765108 -17.924480 0
M  V30 20 C 8.985140 2.322578 -17.738394 0
M  V30 21 N 7.728948 1.873771 -18.152102 0
M  V30 22 C 7.573068 0.560713 -17.951506 0
M  V30 23 O 6.501771 -0.215145 -18.202389 0
M  V30 24 C 5.354897 0.467974 -18.695597 0
M  V30 25 C 4.241572 -0.528838 -19.041388 0
M  V30 26 C 3.713703 -1.319185 -17.836048 0
M  V30 27 F 3.233875 0.165753 -19.561176 0
M  V30 28 F 4.683265 -1.376112 -19.970524 0
M  V30 29 S 8.985574 -0.227256 -17.275476 0
M  V30 30 C 9.780845 1.329435 -17.207006 0
M  V30 31 C 11.166859 1.448380 -16.665655 0
M  V30 32 C 12.153007 2.196480 -17.579409 0
M  V30 33 C 11.918747 5.360566 -15.059057 0
M  V30 34 C 11.981861 5.623536 -13.550253 0
M  V30 35 C 10.327808 7.163079 -6.140845 0
M  V30 36 N 10.888419 7.635069 -5.044241 0
M  V30 37 H 13.275869 9.902736 -4.982140 0
M  V30 38 H 11.817620 10.093989 -3.976874 0
M  V30 39 H 12.885223 8.694287 -3.747769 0
M  V30 40 H 12.275748 9.487163 -7.341167 0
M  V30 41 H 9.523751 7.000044 -8.842664 0
M  V30 42 H 12.227782 8.266318 -9.504679 0
M  V30 43 H 12.874712 7.655859 -11.433983 0
M  V30 44 H 10.966257 7.501895 -13.561465 0
M  V30 45 H 12.885966 8.972333 -13.846886 0
M  V30 46 H 13.991800 7.768996 -13.534034 0
M  V30 47 H 12.086096 8.068969 -15.915995 0
M  V30 48 H 13.819961 8.135079 -15.987315 0
M  V30 49 H 11.960088 6.387356 -17.727209 0
M  V30 50 H 13.677514 6.534764 -17.843288 0
M  V30 51 H 13.262219 4.501486 -18.978022 0
M  V30 52 H 13.926486 4.054208 -17.434816 0
M  V30 53 H 10.766948 5.006138 -18.903931 0
M  V30 54 H 10.791927 3.386958 -19.513681 0
M  V30 55 H 9.310408 4.288930 -16.969713 0
M  V30 56 H 8.588609 4.248657 -18.545622 0
M  V30 57 H 4.999103 1.179486 -17.949181 0
M  V30 58 H 5.611871 1.036300 -19.590816 0
M  V30 59 H 2.907431 -1.989150 -18.134218 0
M  V30 60 H 4.496920 -1.926741 -17.383228 0
M  V30 61 H 3.320019 -0.653521 -17.067213 0
M  V30 62 H 11.132009 1.924068 -15.684875 0
M  V30 63 H 11.559855 0.447269 -16.482355 0
M  V30 64 H 12.197903 1.736796 -18.567719 0
M  V30 65 H 13.140781 2.062161 -17.139524 0
M  V30 66 H 10.932829 5.640816 -15.431723 0
M  V30 67 H 12.022214 4.287629 -15.198925 0
M  V30 68 H 12.886106 5.183863 -13.136826 0
M  V30 69 H 11.151556 5.113250 -13.057837 0
M  V30 70 H 9.639806 6.333544 -6.064282 0
M  V30 71 H 11.533654 3.910767 -16.746838 0
M  V30 END ATOM
M  V30 BEGIN BOND
M  V30 1 1 2 1
M  V30 2 1 3 2
M  V30 3 2 4 3
M  V30 4 1 5 4
M  V30 5 2 6 5
M  V30 6 1 7 6
M  V30 7 2 8 7
M  V30 8 1 9 7
M  V30 9 1 10 9
M  V30 10 1 11 10
M  V30 11 1 12 11
M  V30 12 1 13 12
M  V30 13 1 13 14 CFG=1
M  V30 14 1 15 13
M  V30 15 1 16 15
M  V30 16 1 17 16
M  V30 17 1 18 17
M  V30 18 1 19 18
M  V30 19 1 20 19
M  V30 20 1 21 20
M  V30 21 2 22 21
M  V30 22 1 23 22
M  V30 23 1 24 23
M  V30 24 1 25 24
M  V30 25 1 26 25
M  V30 26 1 27 25
M  V30 27 1 28 25
M  V30 28 1 29 22
M  V30 29 2 30 20
M  V30 30 1 30 29
M  V30 31 1 31 30
M  V30 32 1 32 17
M  V30 33 1 32 31
M  V30 34 1 33 13
M  V30 35 1 34 10
M  V30 36 1 34 33
M  V30 37 1 35 4
M  V30 38 1 36 2
M  V30 39 2 36 35
M  V30 40 1 37 1
M  V30 41 1 38 1
M  V30 42 1 39 1
M  V30 43 1 40 3
M  V30 44 1 41 5
M  V30 45 1 42 6
M  V30 46 1 43 9
M  V30 47 1 10 44 CFG=3
M  V30 48 1 45 11
M  V30 49 1 46 11
M  V30 50 1 47 12
M  V30 51 1 48 12
M  V30 52 1 49 15
M  V30 53 1 50 15
M  V30 54 1 51 16
M  V30 55 1 52 16
M  V30 56 1 53 18
M  V30 57 1 54 18
M  V30 58 1 55 19
M  V30 59 1 56 19
M  V30 60 1 57 24
M  V30 61 1 58 24
M  V30 62 1 59 26
M  V30 63 1 60 26
M  V30 64 1 61 26
M  V30 65 1 62 31
M  V30 66 1 63 31
M  V30 67 1 64 32
M  V30 68 1 65 32
M  V30 69 1 66 33
M  V30 70 1 67 33
M  V30 71 1 68 34
M  V30 72 1 69 34
M  V30 73 1 70 35
M  V30 74 1 17 71 CFG=1
M  V30 END BOND
M  V30 END CTAB
M  END
>  <b_m_subgroup_collapsed>  (1795) 
0

>  <r_i_docking_score>  (1795) 
-6.6569685203819704

>  <s_m_subgroup_title>  (1795) 
glide-dock_SP_D22_pv

>  <s_m_subgroupid>  (1795) 
glide-dock_SP_D22_pv

>  <Molecule ChEMBL ID>  (1795) 
CHEMBL5870203

>  <Standard Type>  (1795) 
Ki

>  <Standard Value>  (1795) 
63.0

>  <label>  (1795) 
1

$$$$
CHEMBL242599
     RDKit          3D

  0  0  0  0  0  0  0  0  0  0999 V3000
M  V30 BEGIN CTAB
M  V30 COUNTS 67 71 0 0 1
M  V30 BEGIN ATOM
M  V30 1 C 12.061860 7.074827 -2.737201 0
M  V30 2 O 11.686482 6.572153 -4.009062 0
M  V30 3 C 11.500568 7.466990 -5.040066 0
M  V30 4 C 11.648690 8.870607 -4.909866 0
M  V30 5 C 11.459169 9.705812 -6.027285 0
M  V30 6 C 11.114531 9.146749 -7.271573 0
M  V30 7 C 10.955282 7.757060 -7.419495 0
M  V30 8 C 10.571262 7.233305 -8.731868 0
M  V30 9 N 11.168406 7.656378 -9.854203 0
M  V30 10 N 10.500094 7.057704 -10.897816 0
M  V30 11 C 9.552942 6.312802 -10.329672 0
M  V30 12 S 8.361049 5.372166 -11.230461 0
M  V30 13 C 9.459354 4.332119 -12.226620 0
M  V30 14 C 9.873200 4.999820 -13.551177 0
M  V30 15 C 11.168763 4.453700 -14.186249 0
M  V30 16 N 10.972953 3.291523 -15.100318 0 CFG=1 CHG=1
M  V30 17 C 11.970775 3.329780 -16.213493 0
M  V30 18 C 11.854116 2.209011 -17.260881 0
M  V30 19 C 10.419414 1.779038 -17.503654 0
M  V30 20 C 9.759064 2.079422 -18.710470 0
M  V30 21 C 8.433593 1.653263 -18.911182 0
M  V30 22 C 7.752232 0.924000 -17.908815 0
M  V30 23 C 6.386499 0.433234 -18.116552 0
M  V30 24 C 5.711807 -0.605295 -17.417591 0
M  V30 25 C 4.484719 -0.655252 -18.011591 0
M  V30 26 C 3.286780 -1.500858 -17.764843 0
M  V30 27 O 4.395839 0.277741 -18.992306 0
M  V30 28 N 5.609195 0.971100 -19.047010 0
M  V30 29 C 8.418355 0.635402 -16.697376 0
M  V30 30 C 9.743105 1.065173 -16.492887 0
M  V30 31 C 10.476855 0.751282 -15.202485 0
M  V30 32 C 10.819172 2.000494 -14.358697 0
M  V30 33 N 9.571552 6.354688 -8.982793 0
M  V30 34 C 8.662359 5.678679 -8.076859 0
M  V30 35 C 11.168382 6.925561 -6.299881 0
M  V30 36 H 12.206479 6.238865 -2.050048 0
M  V30 37 H 11.286423 7.717284 -2.314872 0
M  V30 38 H 13.000523 7.626835 -2.789926 0
M  V30 39 H 11.913081 9.330412 -3.969202 0
M  V30 40 H 11.577980 10.774964 -5.931505 0
M  V30 41 H 10.965716 9.772552 -8.134174 0
M  V30 42 H 10.323344 4.062504 -11.623768 0
M  V30 43 H 8.905973 3.417158 -12.416798 0
M  V30 44 H 9.046633 4.983450 -14.262924 0
M  V30 45 H 10.048653 6.055452 -13.349282 0
M  V30 46 H 11.583028 5.280303 -14.764303 0
M  V30 47 H 11.923999 4.233830 -13.431376 0
M  V30 48 H 11.814631 4.271564 -16.740580 0
M  V30 49 H 12.987664 3.372081 -15.820356 0
M  V30 50 H 12.299589 2.545825 -18.197819 0
M  V30 51 H 12.451421 1.346184 -16.965374 0
M  V30 52 H 10.265751 2.625751 -19.490200 0
M  V30 53 H 7.947573 1.872581 -19.850744 0
M  V30 54 H 6.071562 -1.231777 -16.612793 0
M  V30 55 H 3.577223 -2.482738 -17.381687 0
M  V30 56 H 2.714633 -1.655213 -18.680019 0
M  V30 57 H 2.644140 -1.027548 -17.023268 0
M  V30 58 H 7.916483 0.073831 -15.922688 0
M  V30 59 H 9.881724 0.064189 -14.596382 0
M  V30 60 H 11.371587 0.187631 -15.448210 0
M  V30 61 H 11.685745 1.799692 -13.731791 0
M  V30 62 H 9.985153 2.127738 -13.678833 0
M  V30 63 H 8.598677 4.620791 -8.330330 0
M  V30 64 H 7.686045 6.133704 -8.180903 0
M  V30 65 H 8.962817 5.780583 -7.042768 0
M  V30 66 H 11.087144 5.854010 -6.402324 0
M  V30 67 H 10.085081 3.435651 -15.560280 0
M  V30 END ATOM
M  V30 BEGIN BOND
M  V30 1 1 2 1
M  V30 2 1 3 2
M  V30 3 1 4 3
M  V30 4 2 5 4
M  V30 5 1 6 5
M  V30 6 2 7 6
M  V30 7 1 8 7
M  V30 8 2 9 8
M  V30 9 1 10 9
M  V30 10 2 11 10
M  V30 11 1 12 11
M  V30 12 1 13 12
M  V30 13 1 14 13
M  V30 14 1 15 14
M  V30 15 1 16 15
M  V30 16 1 17 16
M  V30 17 1 18 17
M  V30 18 1 19 18
M  V30 19 1 20 19
M  V30 20 2 21 20
M  V30 21 1 22 21
M  V30 22 1 23 22
M  V30 23 1 24 23
M  V30 24 2 25 24
M  V30 25 1 26 25
M  V30 26 1 27 25
M  V30 27 2 28 23
M  V30 28 1 28 27
M  V30 29 2 29 22
M  V30 30 2 30 19
M  V30 31 1 30 29
M  V30 32 1 31 30
M  V30 33 1 32 16
M  V30 34 1 32 31
M  V30 35 1 33 8
M  V30 36 1 33 11
M  V30 37 1 34 33
M  V30 38 2 35 3
M  V30 39 1 35 7
M  V30 40 1 36 1
M  V30 41 1 37 1
M  V30 42 1 38 1
M  V30 43 1 39 4
M  V30 44 1 40 5
M  V30 45 1 41 6
M  V30 46 1 42 13
M  V30 47 1 43 13
M  V30 48 1 44 14
M  V30 49 1 45 14
M  V30 50 1 46 15
M  V30 51 1 47 15
M  V30 52 1 48 17
M  V30 53 1 49 17
M  V30 54 1 50 18
M  V30 55 1 51 18
M  V30 56 1 52 20
M  V30 57 1 53 21
M  V30 58 1 54 24
M  V30 59 1 55 26
M  V30 60 1 56 26
M  V30 61 1 57 26
M  V30 62 1 58 29
M  V30 63 1 59 31
M  V30 64 1 60 31
M  V30 65 1 61 32
M  V30 66 1 62 32
M  V30 67 1 63 34
M  V30 68 1 64 34
M  V30 69 1 65 34
M  V30 70 1 66 35
M  V30 71 1 16 67 CFG=3
M  V30 END BOND
M  V30 END CTAB
M  END
>  <b_m_subgroup_collapsed>  (1796) 
0

>  <r_i_docking_score>  (1796) 
-6.6569107660975702

>  <s_m_subgroup_title>  (1796) 
glide-dock_SP_D22_pv

>  <s_m_subgroupid>  (1796) 
glide-dock_SP_D22_pv

>  <Molecule ChEMBL ID>  (1796) 
CHEMBL242599

>  <Standard Type>  (1796) 
Ki

>  <Standard Value>  (1796) 
7.943

>  <label>  (1796) 
1

$$$$
CHEMBL3765285
     RDKit          3D

  0  0  0  0  0  0  0  0  0  0999 V3000
M  V30 BEGIN CTAB
M  V30 COUNTS 62 66 0 0 1
M  V30 BEGIN ATOM
M  V30 1 C 9.505475 4.929704 -9.731163 0
M  V30 2 N 9.491588 6.266134 -10.309094 0
M  V30 3 C 9.125670 6.621469 -11.555764 0
M  V30 4 S 8.537715 5.454455 -12.733311 0
M  V30 5 C 10.087848 5.201526 -13.642569 0
M  V30 6 C 9.925385 4.065966 -14.660736 0
M  V30 7 C 10.745442 4.260801 -15.952180 0
M  V30 8 N 10.776279 3.117604 -16.869019 0
M  V30 9 C 11.645135 2.033122 -16.422628 0
M  V30 10 C 11.704327 0.911201 -17.474712 0
M  V30 11 O 10.391028 0.414039 -17.708494 0
M  V30 12 C 9.493489 1.413752 -18.192362 0 CFG=1
M  V30 13 C 8.103444 0.832932 -18.393127 0
M  V30 14 C 7.515098 0.051454 -17.374207 0
M  V30 15 C 6.211041 -0.456902 -17.527380 0
M  V30 16 C 5.476506 -0.192164 -18.700571 0
M  V30 17 C 4.069149 -0.742416 -18.872473 0
M  V30 18 F 3.291332 0.172499 -19.446789 0
M  V30 19 F 4.102555 -1.823392 -19.647879 0
M  V30 20 F 3.536132 -1.077092 -17.697575 0
M  V30 21 C 6.064743 0.584098 -19.722513 0
M  V30 22 C 7.370045 1.095585 -19.570242 0
M  V30 23 C 9.449901 2.597118 -17.197767 0
M  V30 24 N 9.276130 7.918900 -11.814181 0
M  V30 25 N 9.735587 8.467851 -10.641279 0
M  V30 26 C 9.835546 7.459603 -9.765332 0
M  V30 27 C 10.289372 7.689100 -8.391440 0
M  V30 28 C 9.799854 6.911946 -7.318104 0
M  V30 29 C 10.268600 7.127843 -6.010532 0
M  V30 30 C 11.210400 8.141870 -5.750724 0
M  V30 31 C 11.686612 8.342087 -4.392258 0
M  V30 32 N 12.086041 7.415799 -3.516093 0
M  V30 33 N 12.373944 8.091975 -2.355345 0
M  V30 34 C 12.106982 9.371602 -2.617013 0
M  V30 35 O 11.679893 9.600447 -3.880911 0
M  V30 36 C 11.674660 8.950898 -6.808646 0
M  V30 37 C 11.225668 8.714184 -8.122671 0
M  V30 38 H 9.688946 4.179775 -10.500756 0
M  V30 39 H 10.300313 4.846603 -8.989367 0
M  V30 40 H 8.543134 4.720156 -9.261644 0
M  V30 41 H 10.381204 6.134605 -14.124229 0
M  V30 42 H 10.882020 4.957462 -12.936627 0
M  V30 43 H 10.174726 3.123847 -14.171314 0
M  V30 44 H 8.872233 3.998883 -14.934533 0
M  V30 45 H 10.334434 5.118443 -16.486868 0
M  V30 46 H 11.768854 4.538010 -15.694243 0
M  V30 47 H 12.651798 2.414181 -16.242687 0
M  V30 48 H 11.291258 1.619911 -15.475833 0
M  V30 49 H 12.133677 1.281095 -18.409006 0
M  V30 50 H 12.338110 0.096051 -17.131245 0
M  V30 51 H 9.865696 1.764304 -19.158216 0
M  V30 52 H 8.064884 -0.162484 -16.468679 0
M  V30 53 H 5.782351 -1.056453 -16.736767 0
M  V30 54 H 5.511312 0.786981 -20.627987 0
M  V30 55 H 7.806607 1.689176 -20.361614 0
M  V30 56 H 8.952205 2.251167 -16.289837 0
M  V30 57 H 8.830459 3.395603 -17.607294 0
M  V30 58 H 9.058483 6.144140 -7.483029 0
M  V30 59 H 9.889822 6.523160 -5.197343 0
M  V30 60 H 12.218155 10.171698 -1.905849 0
M  V30 61 H 12.392210 9.736322 -6.620428 0
M  V30 62 H 11.608536 9.324149 -8.928545 0
M  V30 END ATOM
M  V30 BEGIN BOND
M  V30 1 1 2 1
M  V30 2 1 3 2
M  V30 3 1 4 3
M  V30 4 1 5 4
M  V30 5 1 6 5
M  V30 6 1 7 6
M  V30 7 1 8 7
M  V30 8 1 9 8
M  V30 9 1 10 9
M  V30 10 1 11 10
M  V30 11 1 12 11
M  V30 12 1 13 12
M  V30 13 1 14 13
M  V30 14 2 15 14
M  V30 15 1 16 15
M  V30 16 1 17 16
M  V30 17 1 18 17
M  V30 18 1 19 17
M  V30 19 1 20 17
M  V30 20 2 21 16
M  V30 21 2 22 13
M  V30 22 1 22 21
M  V30 23 1 23 8
M  V30 24 1 23 12
M  V30 25 2 24 3
M  V30 26 1 25 24
M  V30 27 1 26 2
M  V30 28 2 26 25
M  V30 29 1 27 26
M  V30 30 1 28 27
M  V30 31 2 29 28
M  V30 32 1 30 29
M  V30 33 1 31 30
M  V30 34 2 32 31
M  V30 35 1 33 32
M  V30 36 2 34 33
M  V30 37 1 35 31
M  V30 38 1 35 34
M  V30 39 2 36 30
M  V30 40 2 37 27
M  V30 41 1 37 36
M  V30 42 1 38 1
M  V30 43 1 39 1
M  V30 44 1 40 1
M  V30 45 1 41 5
M  V30 46 1 42 5
M  V30 47 1 43 6
M  V30 48 1 44 6
M  V30 49 1 45 7
M  V30 50 1 46 7
M  V30 51 1 47 9
M  V30 52 1 48 9
M  V30 53 1 49 10
M  V30 54 1 50 10
M  V30 55 1 12 51 CFG=3
M  V30 56 1 52 14
M  V30 57 1 53 15
M  V30 58 1 54 21
M  V30 59 1 55 22
M  V30 60 1 56 23
M  V30 61 1 57 23
M  V30 62 1 58 28
M  V30 63 1 59 29
M  V30 64 1 60 34
M  V30 65 1 61 36
M  V30 66 1 62 37
M  V30 END BOND
M  V30 END CTAB
M  END
>  <b_m_subgroup_collapsed>  (1797) 
0

>  <r_i_docking_score>  (1797) 
-6.6562173544742196

>  <s_m_subgroup_title>  (1797) 
glide-dock_SP_D22_pv

>  <s_m_subgroupid>  (1797) 
glide-dock_SP_D22_pv

>  <Molecule ChEMBL ID>  (1797) 
CHEMBL3765285

>  <Standard Type>  (1797) 
Ki

>  <Standard Value>  (1797) 
12303.0

>  <label>  (1797) 
0

$$$$
CHEMBL3664887
     RDKit          3D

  0  0  0  0  0  0  0  0  0  0999 V3000
M  V30 BEGIN CTAB
M  V30 COUNTS 65 68 0 0 1
M  V30 BEGIN ATOM
M  V30 1 C 12.062670 7.341986 -3.423585 0
M  V30 2 N 11.726166 8.715345 -3.823059 0
M  V30 3 C 12.013400 9.754426 -2.836989 0
M  V30 4 C 11.352784 9.069324 -5.074048 0
M  V30 5 O 11.282728 10.240750 -5.449056 0
M  V30 6 N 11.023599 8.035643 -5.863508 0
M  V30 7 C 10.559271 8.164412 -7.236711 0 CFG=1
M  V30 8 C 11.739913 8.272751 -8.215330 0
M  V30 9 C 11.230304 8.471808 -9.648374 0
M  V30 10 C 10.262993 7.354417 -10.093385 0 CFG=2
M  V30 11 C 9.686218 7.687143 -11.483979 0
M  V30 12 C 8.917627 6.547989 -12.185413 0
M  V30 13 N 9.754574 5.387013 -12.610333 0 CFG=2 CHG=1
M  V30 14 C 10.879413 5.733607 -13.528136 0
M  V30 15 C 11.723476 4.513836 -13.937153 0
M  V30 16 C 10.860265 3.386627 -14.555105 0 CFG=2
M  V30 17 C 10.327075 3.661979 -15.973680 0
M  V30 18 C 10.711795 4.800115 -16.733829 0
M  V30 19 C 10.194214 5.032340 -18.030333 0
M  V30 20 C 9.286236 4.126872 -18.614632 0
M  V30 21 C 8.931364 2.992411 -17.868643 0
M  V30 22 C 9.438611 2.760781 -16.603518 0
M  V30 23 O 8.933927 1.587297 -16.139297 0
M  V30 24 C 8.083706 1.095921 -17.140768 0
M  V30 25 O 8.084564 1.991439 -18.219240 0
M  V30 26 C 9.746439 3.067461 -13.532402 0
M  V30 27 C 8.908888 4.304940 -13.176001 0
M  V30 28 C 9.139992 7.160568 -9.047519 0
M  V30 29 C 9.673310 6.973751 -7.621986 0
M  V30 30 H 11.211313 6.671288 -3.526463 0
M  V30 31 H 12.869246 6.972370 -4.050744 0
M  V30 32 H 12.403674 7.277598 -2.390733 0
M  V30 33 H 12.992546 10.169033 -3.047092 0
M  V30 34 H 11.289999 10.570999 -2.887156 0
M  V30 35 H 12.010179 9.379327 -1.811176 0
M  V30 36 H 11.090804 7.106947 -5.481494 0
M  V30 37 H 9.950876 9.067362 -7.311840 0
M  V30 38 H 12.350996 7.372988 -8.161710 0
M  V30 39 H 12.389516 9.100837 -7.937928 0
M  V30 40 H 12.080590 8.530231 -10.329474 0
M  V30 41 H 10.727906 9.439517 -9.713031 0
M  V30 42 H 10.838733 6.431395 -10.154193 0
M  V30 43 H 10.471464 8.070053 -12.133524 0
M  V30 44 H 9.000648 8.529930 -11.369871 0
M  V30 45 H 8.409856 6.959240 -13.055243 0
M  V30 46 H 8.119548 6.200583 -11.529576 0
M  V30 47 H 11.545167 6.466593 -13.075140 0
M  V30 48 H 10.482397 6.172319 -14.434807 0
M  V30 49 H 12.238385 4.162825 -13.046537 0
M  V30 50 H 12.529408 4.806835 -14.611847 0
M  V30 51 H 11.491317 2.501974 -14.651405 0
M  V30 52 H 11.413793 5.523541 -16.347868 0
M  V30 53 H 10.498920 5.911254 -18.579231 0
M  V30 54 H 8.882113 4.298124 -19.601913 0
M  V30 55 H 7.070110 0.995142 -16.745531 0
M  V30 56 H 8.436783 0.119700 -17.473894 0
M  V30 57 H 9.100136 2.257508 -13.863904 0
M  V30 58 H 10.208272 2.694176 -12.625236 0
M  V30 59 H 8.148016 4.019860 -12.449295 0
M  V30 60 H 8.381902 4.667641 -14.060108 0
M  V30 61 H 8.489608 8.034295 -9.053724 0
M  V30 62 H 8.505503 6.312721 -9.307394 0
M  V30 63 H 10.229881 6.037271 -7.546760 0
M  V30 64 H 8.831171 6.893616 -6.930817 0
M  V30 65 H 10.162565 5.012021 -11.765804 0
M  V30 END ATOM
M  V30 BEGIN BOND
M  V30 1 1 2 1
M  V30 2 1 3 2
M  V30 3 1 4 2
M  V30 4 2 5 4
M  V30 5 1 6 4
M  V30 6 1 7 6
M  V30 7 1 8 7
M  V30 8 1 9 8
M  V30 9 1 10 9
M  V30 10 1 11 10
M  V30 11 1 12 11
M  V30 12 1 13 12
M  V30 13 1 14 13
M  V30 14 1 15 14
M  V30 15 1 16 15
M  V30 16 1 17 16
M  V30 17 2 18 17
M  V30 18 1 19 18
M  V30 19 2 20 19
M  V30 20 1 21 20
M  V30 21 1 22 17
M  V30 22 2 22 21
M  V30 23 1 23 22
M  V30 24 1 24 23
M  V30 25 1 25 21
M  V30 26 1 25 24
M  V30 27 1 26 16
M  V30 28 1 27 13
M  V30 29 1 27 26
M  V30 30 1 28 10
M  V30 31 1 29 7
M  V30 32 1 29 28
M  V30 33 1 30 1
M  V30 34 1 31 1
M  V30 35 1 32 1
M  V30 36 1 33 3
M  V30 37 1 34 3
M  V30 38 1 35 3
M  V30 39 1 36 6
M  V30 40 1 7 37 CFG=1
M  V30 41 1 38 8
M  V30 42 1 39 8
M  V30 43 1 40 9
M  V30 44 1 41 9
M  V30 45 1 10 42 CFG=3
M  V30 46 1 43 11
M  V30 47 1 44 11
M  V30 48 1 45 12
M  V30 49 1 46 12
M  V30 50 1 47 14
M  V30 51 1 48 14
M  V30 52 1 49 15
M  V30 53 1 50 15
M  V30 54 1 16 51 CFG=3
M  V30 55 1 52 18
M  V30 56 1 53 19
M  V30 57 1 54 20
M  V30 58 1 55 24
M  V30 59 1 56 24
M  V30 60 1 57 26
M  V30 61 1 58 26
M  V30 62 1 59 27
M  V30 63 1 60 27
M  V30 64 1 61 28
M  V30 65 1 62 28
M  V30 66 1 63 29
M  V30 67 1 64 29
M  V30 68 1 13 65 CFG=1
M  V30 END BOND
M  V30 END CTAB
M  END
>  <b_m_subgroup_collapsed>  (1798) 
0

>  <r_i_docking_score>  (1798) 
-6.6552842651263804

>  <s_m_subgroup_title>  (1798) 
glide-dock_SP_D22_pv

>  <s_m_subgroupid>  (1798) 
glide-dock_SP_D22_pv

>  <Molecule ChEMBL ID>  (1798) 
CHEMBL3664887

>  <Standard Type>  (1798) 
Ki

>  <Standard Value>  (1798) 
52.74

>  <label>  (1798) 
1

$$$$
CHEMBL2207495
     RDKit          3D

  0  0  0  0  0  0  0  0  0  0999 V3000
M  V30 BEGIN CTAB
M  V30 COUNTS 41 43 0 0 1
M  V30 BEGIN ATOM
M  V30 1 C 10.126842 7.860875 -6.169791 0
M  V30 2 C 9.405662 7.909226 -7.522403 0
M  V30 3 C 9.495836 6.562069 -8.264504 0
M  V30 4 N 8.886134 6.573342 -9.620975 0 CFG=2 CHG=1
M  V30 5 C 8.680466 5.196632 -10.132823 0
M  V30 6 C 7.925596 5.197413 -11.468235 0
M  V30 7 C 8.607868 6.048616 -12.568895 0 CFG=2
M  V30 8 N 9.693593 5.338666 -13.299741 0
M  V30 9 C 10.996713 5.704706 -13.445593 0
M  V30 10 O 11.569653 6.710139 -13.026401 0
M  V30 11 C 11.693822 4.603694 -14.255354 0
M  V30 12 O 12.885048 4.572072 -14.561694 0
M  V30 13 C 10.647525 3.647150 -14.566568 0
M  V30 14 C 10.711847 2.449687 -15.299226 0
M  V30 15 C 9.512050 1.729639 -15.485089 0
M  V30 16 C 8.291772 2.223619 -14.965513 0
M  V30 17 C 8.254256 3.434296 -14.236373 0
M  V30 18 C 9.463452 4.128366 -14.017331 0
M  V30 19 C 8.932528 7.445489 -11.970801 0
M  V30 20 C 9.638257 7.396233 -10.601130 0
M  V30 21 H 10.086012 8.828645 -5.669155 0
M  V30 22 H 9.682591 7.116794 -5.507170 0
M  V30 23 H 11.179341 7.605679 -6.295927 0
M  V30 24 H 9.851063 8.713572 -8.105275 0
M  V30 25 H 8.359559 8.179315 -7.369679 0
M  V30 26 H 8.991186 5.812012 -7.653489 0
M  V30 27 H 10.536264 6.242013 -8.343181 0
M  V30 28 H 8.097568 4.623008 -9.409542 0
M  V30 29 H 9.641870 4.691627 -10.243461 0
M  V30 30 H 6.926461 5.600975 -11.292746 0
M  V30 31 H 7.767015 4.166234 -11.770850 0
M  V30 32 H 7.857528 6.223239 -13.341181 0
M  V30 33 H 11.646770 2.094436 -15.709193 0
M  V30 34 H 9.522633 0.802495 -16.039330 0
M  V30 35 H 7.378855 1.670487 -15.131152 0
M  V30 36 H 7.310561 3.805610 -13.866590 0
M  V30 37 H 9.504990 8.073585 -12.646747 0
M  V30 38 H 7.992911 7.982526 -11.846925 0
M  V30 39 H 9.737368 8.420474 -10.245068 0
M  V30 40 H 10.649142 7.000802 -10.694955 0
M  V30 41 H 7.954943 6.986725 -9.547615 0
M  V30 END ATOM
M  V30 BEGIN BOND
M  V30 1 1 2 1
M  V30 2 1 3 2
M  V30 3 1 4 3
M  V30 4 1 5 4
M  V30 5 1 6 5
M  V30 6 1 7 6
M  V30 7 1 8 7
M  V30 8 1 9 8
M  V30 9 2 10 9
M  V30 10 1 11 9
M  V30 11 2 12 11
M  V30 12 1 13 11
M  V30 13 2 14 13
M  V30 14 1 15 14
M  V30 15 2 16 15
M  V30 16 1 17 16
M  V30 17 1 18 8
M  V30 18 1 18 13
M  V30 19 2 18 17
M  V30 20 1 19 7
M  V30 21 1 20 4
M  V30 22 1 20 19
M  V30 23 1 21 1
M  V30 24 1 22 1
M  V30 25 1 23 1
M  V30 26 1 24 2
M  V30 27 1 25 2
M  V30 28 1 26 3
M  V30 29 1 27 3
M  V30 30 1 28 5
M  V30 31 1 29 5
M  V30 32 1 30 6
M  V30 33 1 31 6
M  V30 34 1 7 32 CFG=3
M  V30 35 1 33 14
M  V30 36 1 34 15
M  V30 37 1 35 16
M  V30 38 1 36 17
M  V30 39 1 37 19
M  V30 40 1 38 19
M  V30 41 1 39 20
M  V30 42 1 40 20
M  V30 43 1 4 41 CFG=1
M  V30 END BOND
M  V30 END CTAB
M  END
>  <b_m_subgroup_collapsed>  (1799) 
0

>  <r_i_docking_score>  (1799) 
-6.6529694476691201

>  <s_m_subgroup_title>  (1799) 
glide-dock_SP_D22_pv

>  <s_m_subgroupid>  (1799) 
glide-dock_SP_D22_pv

>  <Molecule ChEMBL ID>  (1799) 
CHEMBL2207495

>  <Standard Type>  (1799) 
Ki

>  <Standard Value>  (1799) 
12160.0

>  <label>  (1799) 
0

$$$$
CHEMBL240888
     RDKit          3D

  0  0  0  0  0  0  0  0  0  0999 V3000
M  V30 BEGIN CTAB
M  V30 COUNTS 37 40 0 0 1
M  V30 BEGIN ATOM
M  V30 1 C 12.358779 9.765161 -5.391671 0
M  V30 2 O 12.485204 9.377857 -6.751630 0
M  V30 3 C 11.407774 8.784693 -7.367130 0
M  V30 4 C 10.202450 8.475074 -6.701866 0
M  V30 5 C 9.163860 7.840611 -7.397137 0
M  V30 6 C 9.319299 7.500028 -8.752090 0
M  V30 7 C 10.512173 7.805790 -9.456260 0
M  V30 8 C 10.745261 7.419869 -10.898262 0
M  V30 9 N 11.861344 7.751996 -11.449988 0
M  V30 10 C 12.195779 7.377363 -12.843019 0
M  V30 11 C 11.610692 6.018045 -13.327346 0
M  V30 12 C 10.231030 5.856002 -12.781239 0
M  V30 13 C 9.841742 6.568327 -11.685345 0
M  V30 14 N 8.483964 6.376926 -11.492650 0
M  V30 15 C 8.014530 5.392710 -12.341794 0
M  V30 16 C 6.752497 4.787478 -12.479162 0
M  V30 17 C 6.575091 3.767993 -13.432216 0
M  V30 18 C 7.656436 3.373231 -14.245400 0
M  V30 19 C 8.908435 4.012913 -14.128474 0
M  V30 20 C 9.121486 5.029158 -13.167467 0
M  V30 21 C 11.543953 8.460029 -8.732995 0
M  V30 22 H 13.308998 10.171698 -5.049029 0
M  V30 23 H 12.123904 8.916739 -4.747065 0
M  V30 24 H 11.601106 10.542850 -5.271777 0
M  V30 25 H 10.055979 8.706038 -5.659492 0
M  V30 26 H 8.238982 7.601179 -6.889878 0
M  V30 27 H 8.482337 6.994787 -9.197574 0
M  V30 28 H 11.852087 8.162951 -13.518591 0
M  V30 29 H 13.279674 7.373418 -12.967578 0
M  V30 30 H 11.587617 6.005928 -14.417344 0
M  V30 31 H 12.251679 5.183563 -13.047219 0
M  V30 32 H 7.903976 6.900437 -10.834641 0
M  V30 33 H 5.937018 5.091215 -11.837643 0
M  V30 34 H 5.614479 3.285185 -13.535451 0
M  V30 35 H 7.520308 2.586536 -14.973499 0
M  V30 36 H 9.724146 3.710992 -14.768460 0
M  V30 37 H 12.478421 8.710917 -9.212634 0
M  V30 END ATOM
M  V30 BEGIN BOND
M  V30 1 1 2 1
M  V30 2 1 3 2
M  V30 3 1 4 3
M  V30 4 2 5 4
M  V30 5 1 6 5
M  V30 6 2 7 6
M  V30 7 1 8 7
M  V30 8 2 9 8
M  V30 9 1 10 9
M  V30 10 1 11 10
M  V30 11 1 12 11
M  V30 12 1 13 8
M  V30 13 2 13 12
M  V30 14 1 14 13
M  V30 15 1 15 14
M  V30 16 2 16 15
M  V30 17 1 17 16
M  V30 18 2 18 17
M  V30 19 1 19 18
M  V30 20 1 20 12
M  V30 21 1 20 15
M  V30 22 2 20 19
M  V30 23 2 21 3
M  V30 24 1 21 7
M  V30 25 1 22 1
M  V30 26 1 23 1
M  V30 27 1 24 1
M  V30 28 1 25 4
M  V30 29 1 26 5
M  V30 30 1 27 6
M  V30 31 1 28 10
M  V30 32 1 29 10
M  V30 33 1 30 11
M  V30 34 1 31 11
M  V30 35 1 32 14
M  V30 36 1 33 16
M  V30 37 1 34 17
M  V30 38 1 35 18
M  V30 39 1 36 19
M  V30 40 1 37 21
M  V30 END BOND
M  V30 END CTAB
M  END
>  <b_m_subgroup_collapsed>  (1800) 
0

>  <r_i_docking_score>  (1800) 
-6.65161542122424

>  <s_m_subgroup_title>  (1800) 
glide-dock_SP_D22_pv

>  <s_m_subgroupid>  (1800) 
glide-dock_SP_D22_pv

>  <Molecule ChEMBL ID>  (1800) 
CHEMBL240888

>  <Standard Type>  (1800) 
Ki

>  <Standard Value>  (1800) 
31000.0

>  <label>  (1800) 
0

$$$$
CHEMBL5170927
     RDKit          3D

  0  0  0  0  0  0  0  0  0  0999 V3000
M  V30 BEGIN CTAB
M  V30 COUNTS 54 57 0 0 1
M  V30 BEGIN ATOM
M  V30 1 N 11.686022 10.972324 -6.246865 0
M  V30 2 C 11.682837 10.076574 -5.524219 0
M  V30 3 C 11.688365 8.944525 -4.621905 0
M  V30 4 C 12.178777 9.109548 -3.312070 0
M  V30 5 C 12.293900 7.980736 -2.483562 0
M  V30 6 C 11.923968 6.730973 -3.010570 0
M  V30 7 N 11.431835 6.572324 -4.257226 0
M  V30 8 C 11.286023 7.655315 -5.046866 0
M  V30 9 N 10.708825 7.439089 -6.308146 0
M  V30 10 C 11.296124 6.526498 -7.271184 0
M  V30 11 C 11.295204 7.213731 -8.655918 0
M  V30 12 N 9.957129 7.634826 -9.058447 0
M  V30 13 C 9.033651 6.523535 -9.284637 0
M  V30 14 C 9.398063 5.613975 -10.467215 0
M  V30 15 C 9.538164 6.355563 -11.811180 0
M  V30 16 O 10.086025 5.497788 -12.807323 0
M  V30 17 C 9.311539 4.485844 -13.331723 0
M  V30 18 C 7.894372 4.454975 -13.287373 0
M  V30 19 C 7.185565 3.372318 -13.846865 0
M  V30 20 C 7.886064 2.306177 -14.444315 0
M  V30 21 C 9.295932 2.339061 -14.508472 0
M  V30 22 C 9.999826 3.426917 -13.958219 0
M  V30 23 N 10.007484 1.265649 -15.100175 0
M  V30 24 C 9.436989 0.302886 -15.842358 0
M  V30 25 O 10.086021 -0.627674 -16.311520 0
M  V30 26 C 7.933080 0.418710 -16.129946 0
M  V30 27 C 7.162985 1.080462 -14.971761 0
M  V30 28 C 9.428017 8.581026 -8.070773 0
M  V30 29 C 9.401549 7.989278 -6.645091 0
M  V30 30 H 12.486018 10.080743 -2.950513 0
M  V30 31 H 12.671816 8.070377 -1.476205 0
M  V30 32 H 12.013870 5.836698 -2.411742 0
M  V30 33 H 12.311231 6.260368 -6.979536 0
M  V30 34 H 10.725964 5.599694 -7.290490 0
M  V30 35 H 11.946138 8.089186 -8.630819 0
M  V30 36 H 11.686024 6.572323 -9.437548 0
M  V30 37 H 8.884099 5.925633 -8.386432 0
M  V30 38 H 8.086022 6.972320 -9.503309 0
M  V30 39 H 10.305042 5.065823 -10.235671 0
M  V30 40 H 8.623187 4.852728 -10.558110 0
M  V30 41 H 8.603527 6.821611 -12.122716 0
M  V30 42 H 10.246801 7.176255 -11.700753 0
M  V30 43 H 7.326804 5.246649 -12.822830 0
M  V30 44 H 6.106942 3.352121 -13.789981 0
M  V30 45 H 11.079062 3.448237 -13.997122 0
M  V30 46 H 11.007020 1.232709 -14.966360 0
M  V30 47 H 7.822865 1.021042 -17.031950 0
M  V30 48 H 7.514775 -0.563524 -16.353592 0
M  V30 49 H 7.047720 0.371814 -14.150463 0
M  V30 50 H 6.159072 1.351076 -15.296670 0
M  V30 51 H 10.065594 9.462869 -8.080409 0
M  V30 52 H 8.434617 8.919538 -8.364991 0
M  V30 53 H 8.645304 7.208253 -6.561001 0
M  V30 54 H 9.126698 8.769176 -5.939285 0
M  V30 END ATOM
M  V30 BEGIN BOND
M  V30 1 3 2 1
M  V30 2 1 3 2
M  V30 3 2 4 3
M  V30 4 1 5 4
M  V30 5 2 6 5
M  V30 6 1 7 6
M  V30 7 1 8 3
M  V30 8 2 8 7
M  V30 9 1 9 8
M  V30 10 1 10 9
M  V30 11 1 11 10
M  V30 12 1 12 11
M  V30 13 1 13 12
M  V30 14 1 14 13
M  V30 15 1 15 14
M  V30 16 1 16 15
M  V30 17 1 17 16
M  V30 18 1 18 17
M  V30 19 2 19 18
M  V30 20 1 20 19
M  V30 21 2 21 20
M  V30 22 2 22 17
M  V30 23 1 22 21
M  V30 24 1 23 21
M  V30 25 1 24 23
M  V30 26 2 25 24
M  V30 27 1 26 24
M  V30 28 1 27 20
M  V30 29 1 27 26
M  V30 30 1 28 12
M  V30 31 1 29 9
M  V30 32 1 29 28
M  V30 33 1 30 4
M  V30 34 1 31 5
M  V30 35 1 32 6
M  V30 36 1 33 10
M  V30 37 1 34 10
M  V30 38 1 35 11
M  V30 39 1 36 11
M  V30 40 1 37 13
M  V30 41 1 38 13
M  V30 42 1 39 14
M  V30 43 1 40 14
M  V30 44 1 41 15
M  V30 45 1 42 15
M  V30 46 1 43 18
M  V30 47 1 44 19
M  V30 48 1 45 22
M  V30 49 1 46 23
M  V30 50 1 47 26
M  V30 51 1 48 26
M  V30 52 1 49 27
M  V30 53 1 50 27
M  V30 54 1 51 28
M  V30 55 1 52 28
M  V30 56 1 53 29
M  V30 57 1 54 29
M  V30 END BOND
M  V30 END CTAB
M  END
>  <b_m_subgroup_collapsed>  (1801) 
0

>  <r_i_docking_score>  (1801) 
-6.6485713536490101

>  <s_m_subgroup_title>  (1801) 
glide-dock_SP_D22_pv

>  <s_m_subgroupid>  (1801) 
glide-dock_SP_D22_pv

>  <Molecule ChEMBL ID>  (1801) 
CHEMBL5170927

>  <Standard Type>  (1801) 
Ki

>  <Standard Value>  (1801) 
81.0

>  <label>  (1801) 
1

$$$$
CHEMBL4103891
     RDKit          3D

  0  0  0  0  0  0  0  0  0  0999 V3000
M  V30 BEGIN CTAB
M  V30 COUNTS 39 43 0 0 1
M  V30 BEGIN ATOM
M  V30 1 N 10.129651 -0.227436 -16.028620 0
M  V30 2 C 9.843155 0.754382 -15.487164 0
M  V30 3 C 9.479177 1.985463 -14.808046 0
M  V30 4 C 10.507185 2.872699 -14.378278 0
M  V30 5 C 10.133910 4.044281 -13.679073 0
M  V30 6 C 10.883401 5.040475 -13.104769 0
M  V30 7 N 9.930267 5.874343 -12.458488 0
M  V30 8 S 10.341007 7.228715 -11.437519 0
M  V30 9 O 11.798312 7.372370 -11.584726 0
M  V30 10 O 9.436643 8.313293 -11.847872 0
M  V30 11 C 9.948984 6.768868 -9.719314 0
M  V30 12 C 9.004766 5.736609 -9.516867 0
M  V30 13 C 8.494420 5.457674 -8.246406 0
M  V30 14 C 8.937431 6.196299 -7.147091 0
M  V30 15 C 9.967952 7.133773 -7.293034 0
M  V30 16 C 10.464951 7.740757 -6.124454 0
M  V30 17 C 11.510006 8.665438 -6.200522 0
M  V30 18 C 12.060260 8.971845 -7.451147 0
M  V30 19 C 11.540565 8.401351 -8.638767 0
M  V30 20 C 10.492615 7.444704 -8.579507 0
M  V30 21 C 8.687566 5.410206 -12.750657 0
M  V30 22 C 7.371758 5.797550 -12.425791 0
M  V30 23 C 6.284705 4.973703 -12.804788 0
M  V30 24 C 6.494269 3.775784 -13.534245 0
M  V30 25 C 7.799160 3.377929 -13.900296 0
M  V30 26 C 8.799881 4.247078 -13.470453 0
M  V30 27 O 8.123768 2.226814 -14.589705 0
M  V30 28 H 11.549554 2.648832 -14.555346 0
M  V30 29 H 11.947461 5.217097 -13.047252 0
M  V30 30 H 8.607816 5.144482 -10.315081 0
M  V30 31 H 7.746490 4.692708 -8.118508 0
M  V30 32 H 8.510491 6.008462 -6.175529 0
M  V30 33 H 10.067687 7.476257 -5.156740 0
M  V30 34 H 11.910853 9.112854 -5.302456 0
M  V30 35 H 12.901903 9.646148 -7.449171 0
M  V30 36 H 11.990180 8.688726 -9.576057 0
M  V30 37 H 7.197875 6.692957 -11.848811 0
M  V30 38 H 5.287140 5.265239 -12.521566 0
M  V30 39 H 5.650048 3.160916 -13.809518 0
M  V30 END ATOM
M  V30 BEGIN BOND
M  V30 1 3 2 1
M  V30 2 1 3 2
M  V30 3 2 4 3
M  V30 4 1 5 4
M  V30 5 2 6 5
M  V30 6 1 7 6
M  V30 7 1 8 7
M  V30 8 2 9 8
M  V30 9 2 10 8
M  V30 10 1 11 8
M  V30 11 2 12 11
M  V30 12 1 13 12
M  V30 13 2 14 13
M  V30 14 1 15 14
M  V30 15 2 16 15
M  V30 16 1 17 16
M  V30 17 2 18 17
M  V30 18 1 19 18
M  V30 19 1 20 11
M  V30 20 1 20 15
M  V30 21 2 20 19
M  V30 22 1 21 7
M  V30 23 2 22 21
M  V30 24 1 23 22
M  V30 25 2 24 23
M  V30 26 1 25 24
M  V30 27 1 26 5
M  V30 28 1 26 21
M  V30 29 2 26 25
M  V30 30 1 27 3
M  V30 31 1 27 25
M  V30 32 1 28 4
M  V30 33 1 29 6
M  V30 34 1 30 12
M  V30 35 1 31 13
M  V30 36 1 32 14
M  V30 37 1 33 16
M  V30 38 1 34 17
M  V30 39 1 35 18
M  V30 40 1 36 19
M  V30 41 1 37 22
M  V30 42 1 38 23
M  V30 43 1 39 24
M  V30 END BOND
M  V30 END CTAB
M  END
>  <b_m_subgroup_collapsed>  (1802) 
0

>  <r_i_docking_score>  (1802) 
-6.64829506025377

>  <s_m_subgroup_title>  (1802) 
glide-dock_SP_D22_pv

>  <s_m_subgroupid>  (1802) 
glide-dock_SP_D22_pv

>  <Molecule ChEMBL ID>  (1802) 
CHEMBL4103891

>  <Standard Type>  (1802) 
Ki

>  <Standard Value>  (1802) 
10000.0

>  <label>  (1802) 
0

$$$$
CHEMBL4483472
     RDKit          3D

  0  0  0  0  0  0  0  0  0  0999 V3000
M  V30 BEGIN CTAB
M  V30 COUNTS 50 52 0 0 1
M  V30 BEGIN ATOM
M  V30 1 C 5.673638 3.739319 -12.243728 0
M  V30 2 C 6.807149 4.446241 -12.996892 0
M  V30 3 C 7.602794 5.442291 -12.130939 0
M  V30 4 C 8.441126 4.737679 -11.044780 0
M  V30 5 N 9.281266 5.604310 -10.175485 0 CFG=1 CHG=1
M  V30 6 C 9.734379 6.904294 -10.701479 0
M  V30 7 C 10.347596 7.594961 -9.486108 0
M  V30 8 C 9.551537 7.055727 -8.272752 0 CFG=2
M  V30 9 C 8.676662 8.123996 -7.618639 0
M  V30 10 C 9.636886 8.894578 -6.740073 0
M  V30 11 N 10.720615 7.975565 -6.418516 0
M  V30 12 C 11.305327 8.065998 -5.134020 0
M  V30 13 C 11.685549 6.899250 -4.425893 0
M  V30 14 C 12.190207 6.972477 -3.113681 0
M  V30 15 C 12.353985 8.219915 -2.491705 0
M  V30 16 C 12.022723 9.390485 -3.192392 0
M  V30 17 C 11.519434 9.328653 -4.507967 0
M  V30 18 O 11.227612 10.520185 -5.125203 0
M  V30 19 C 12.085436 10.837541 -6.212158 0
M  V30 20 C 10.461389 6.704189 -7.081462 0
M  V30 21 C 8.731203 5.876992 -8.835162 0
M  V30 22 H 5.084195 3.120307 -12.920205 0
M  V30 23 H 6.056832 3.090508 -11.456773 0
M  V30 24 H 5.001745 4.462953 -11.782709 0
M  V30 25 H 6.371483 4.972124 -13.845284 0
M  V30 26 H 7.481467 3.703181 -13.424321 0
M  V30 27 H 6.919133 6.160788 -11.677508 0
M  V30 28 H 8.257438 6.009826 -12.792396 0
M  V30 29 H 9.105347 4.018980 -11.526541 0
M  V30 30 H 7.776548 4.170714 -10.396757 0
M  V30 31 H 8.884506 7.495765 -11.045691 0
M  V30 32 H 10.438828 6.794768 -11.526459 0
M  V30 33 H 10.313178 8.681437 -9.577505 0
M  V30 34 H 11.399359 7.317166 -9.406100 0
M  V30 35 H 7.945707 7.649298 -6.966427 0
M  V30 36 H 8.149751 8.769362 -8.320757 0
M  V30 37 H 9.143035 9.270887 -5.847442 0
M  V30 38 H 10.014513 9.743455 -7.305836 0
M  V30 39 H 11.564304 5.920109 -4.862545 0
M  V30 40 H 12.446096 6.065854 -2.584382 0
M  V30 41 H 12.734526 8.282932 -1.482734 0
M  V30 42 H 12.151123 10.350501 -2.713561 0
M  V30 43 H 11.767472 11.771799 -6.667177 0
M  V30 44 H 13.092975 10.970288 -5.846892 0
M  V30 45 H 12.125893 10.075153 -6.987196 0
M  V30 46 H 11.383249 6.207110 -7.384228 0
M  V30 47 H 9.929321 6.050113 -6.391376 0
M  V30 48 H 8.761263 4.990346 -8.200592 0
M  V30 49 H 7.686358 6.165456 -8.951900 0
M  V30 50 H 10.122678 5.074767 -9.998164 0
M  V30 END ATOM
M  V30 BEGIN BOND
M  V30 1 1 2 1
M  V30 2 1 3 2
M  V30 3 1 4 3
M  V30 4 1 5 4
M  V30 5 1 6 5
M  V30 6 1 7 6
M  V30 7 1 8 7 CFG=3
M  V30 8 1 9 8
M  V30 9 1 10 9
M  V30 10 1 11 10
M  V30 11 1 12 11
M  V30 12 2 13 12
M  V30 13 1 14 13
M  V30 14 2 15 14
M  V30 15 1 16 15
M  V30 16 1 17 12
M  V30 17 2 17 16
M  V30 18 1 18 17
M  V30 19 1 19 18
M  V30 20 1 20 8
M  V30 21 1 20 11
M  V30 22 1 21 5
M  V30 23 1 21 8
M  V30 24 1 22 1
M  V30 25 1 23 1
M  V30 26 1 24 1
M  V30 27 1 25 2
M  V30 28 1 26 2
M  V30 29 1 27 3
M  V30 30 1 28 3
M  V30 31 1 29 4
M  V30 32 1 30 4
M  V30 33 1 31 6
M  V30 34 1 32 6
M  V30 35 1 33 7
M  V30 36 1 34 7
M  V30 37 1 35 9
M  V30 38 1 36 9
M  V30 39 1 37 10
M  V30 40 1 38 10
M  V30 41 1 39 13
M  V30 42 1 40 14
M  V30 43 1 41 15
M  V30 44 1 42 16
M  V30 45 1 43 19
M  V30 46 1 44 19
M  V30 47 1 45 19
M  V30 48 1 46 20
M  V30 49 1 47 20
M  V30 50 1 48 21
M  V30 51 1 49 21
M  V30 52 1 5 50 CFG=1
M  V30 END BOND
M  V30 END CTAB
M  END
>  <b_m_subgroup_collapsed>  (1803) 
0

>  <r_i_docking_score>  (1803) 
-6.6469235455527604

>  <s_m_subgroup_title>  (1803) 
glide-dock_SP_D22_pv

>  <s_m_subgroupid>  (1803) 
glide-dock_SP_D22_pv

>  <Molecule ChEMBL ID>  (1803) 
CHEMBL4483472

>  <Standard Type>  (1803) 
Ki

>  <Standard Value>  (1803) 
26050.0

>  <label>  (1803) 
0

$$$$
CHEMBL5200771
     RDKit          3D

  0  0  0  0  0  0  0  0  0  0999 V3000
M  V30 BEGIN CTAB
M  V30 COUNTS 48 48 0 0 1
M  V30 BEGIN ATOM
M  V30 1 C 11.769370 7.960608 -2.291309 0
M  V30 2 C 12.446883 7.178461 -3.421807 0
M  V30 3 C 11.481192 6.716031 -4.525242 0
M  V30 4 C 10.918593 7.847649 -5.407407 0
M  V30 5 C 9.831919 7.358273 -6.381580 0
M  V30 6 C 10.386868 6.597373 -7.593083 0
M  V30 7 N 9.295226 6.049564 -8.390868 0
M  V30 8 C 9.261928 6.028644 -9.730622 0
M  V30 9 O 10.122378 6.515849 -10.464018 0
M  V30 10 N 8.100837 5.372318 -10.261018 0 CHG=1
M  V30 11 C 7.811726 5.169428 -11.565689 0
M  V30 12 N 8.648870 5.500099 -12.567836 0
M  V30 13 N 6.627104 4.594700 -11.846912 0
M  V30 14 C 6.067049 4.303823 -13.172100 0
M  V30 15 C 6.248651 2.834476 -13.574966 0
M  V30 16 C 5.301205 1.865989 -12.834494 0
M  V30 17 C 5.036827 0.611738 -13.604533 0
M  V30 18 N 3.795886 0.172549 -13.850655 0
M  V30 19 N 3.780056 -0.934569 -14.684450 0
M  V30 20 C 5.013869 -1.302782 -15.038152 0
M  V30 21 N 5.285902 -2.351019 -15.894363 0
M  V30 22 S 6.312443 -0.366572 -14.313291 0
M  V30 23 H 12.481905 8.199787 -1.502201 0
M  V30 24 H 11.352592 8.902316 -2.647689 0
M  V30 25 H 10.962566 7.376498 -1.846097 0
M  V30 26 H 12.906569 6.292250 -2.982829 0
M  V30 27 H 13.258009 7.768629 -3.847592 0
M  V30 28 H 10.656790 6.171844 -4.064976 0
M  V30 29 H 11.997821 5.996480 -5.160677 0
M  V30 30 H 11.724045 8.335857 -5.958186 0
M  V30 31 H 10.486169 8.617648 -4.772633 0
M  V30 32 H 9.259480 8.215718 -6.738226 0
M  V30 33 H 9.120267 6.729373 -5.847493 0
M  V30 34 H 11.021186 5.772265 -7.273328 0
M  V30 35 H 11.015363 7.265441 -8.185064 0
M  V30 36 H 8.505459 5.682456 -7.879642 0
M  V30 37 H 9.513309 5.974055 -12.340407 0
M  V30 38 H 8.414376 5.313515 -13.530239 0
M  V30 39 H 6.012173 4.408981 -11.061367 0
M  V30 40 H 5.010252 4.572340 -13.180352 0
M  V30 41 H 6.540766 4.947513 -13.907826 0
M  V30 42 H 6.085214 2.771557 -14.650188 0
M  V30 43 H 7.285178 2.525709 -13.447496 0
M  V30 44 H 5.685594 1.610723 -11.848219 0
M  V30 45 H 4.341359 2.355659 -12.662156 0
M  V30 46 H 4.555268 -3.014616 -16.131807 0
M  V30 47 H 6.247030 -2.685467 -15.955340 0
M  V30 48 H 7.369891 5.031755 -9.649133 0
M  V30 END ATOM
M  V30 BEGIN BOND
M  V30 1 1 2 1
M  V30 2 1 3 2
M  V30 3 1 4 3
M  V30 4 1 5 4
M  V30 5 1 6 5
M  V30 6 1 7 6
M  V30 7 1 8 7
M  V30 8 2 9 8
M  V30 9 1 10 8
M  V30 10 2 11 10
M  V30 11 1 12 11
M  V30 12 1 13 11
M  V30 13 1 14 13
M  V30 14 1 15 14
M  V30 15 1 16 15
M  V30 16 1 17 16
M  V30 17 2 18 17
M  V30 18 1 19 18
M  V30 19 2 20 19
M  V30 20 1 21 20
M  V30 21 1 22 17
M  V30 22 1 22 20
M  V30 23 1 23 1
M  V30 24 1 24 1
M  V30 25 1 25 1
M  V30 26 1 26 2
M  V30 27 1 27 2
M  V30 28 1 28 3
M  V30 29 1 29 3
M  V30 30 1 30 4
M  V30 31 1 31 4
M  V30 32 1 32 5
M  V30 33 1 33 5
M  V30 34 1 34 6
M  V30 35 1 35 6
M  V30 36 1 36 7
M  V30 37 1 37 12
M  V30 38 1 38 12
M  V30 39 1 39 13
M  V30 40 1 40 14
M  V30 41 1 41 14
M  V30 42 1 42 15
M  V30 43 1 43 15
M  V30 44 1 44 16
M  V30 45 1 45 16
M  V30 46 1 46 21
M  V30 47 1 47 21
M  V30 48 1 48 10
M  V30 END BOND
M  V30 END CTAB
M  END
>  <b_m_subgroup_collapsed>  (1804) 
0

>  <r_i_docking_score>  (1804) 
-6.6420790551887201

>  <s_m_subgroup_title>  (1804) 
glide-dock_SP_D22_pv

>  <s_m_subgroupid>  (1804) 
glide-dock_SP_D22_pv

>  <Molecule ChEMBL ID>  (1804) 
CHEMBL5200771

>  <Standard Type>  (1804) 
Ki

>  <Standard Value>  (1804) 
10000.0

>  <label>  (1804) 
0

$$$$
CHEMBL394862
     RDKit          3D

  0  0  0  0  0  0  0  0  0  0999 V3000
M  V30 BEGIN CTAB
M  V30 COUNTS 64 68 0 0 1
M  V30 BEGIN ATOM
M  V30 1 O 10.085253 5.328801 -15.160529 0
M  V30 2 C 11.028003 5.676451 -14.451757 0
M  V30 3 N 12.303974 5.718191 -14.877886 0
M  V30 4 C 12.751863 5.625990 -16.268213 0
M  V30 5 C 12.193707 4.425849 -17.071348 0 CFG=1
M  V30 6 O 12.698110 4.487380 -18.389669 0
M  V30 7 C 12.559010 3.065929 -16.454618 0
M  V30 8 C 11.759214 1.863211 -16.984379 0
M  V30 9 N 10.480849 1.767890 -16.277775 0
M  V30 10 C 9.371169 2.176478 -17.145361 0
M  V30 11 C 8.075686 2.253615 -16.323296 0
M  V30 12 N 7.816810 0.990800 -15.655412 0
M  V30 13 C 6.698918 0.215177 -15.999526 0
M  V30 14 C 6.535353 -0.256274 -17.319107 0
M  V30 15 C 5.393705 -1.000393 -17.673176 0
M  V30 16 C 4.394969 -1.258899 -16.713415 0
M  V30 17 C 4.543778 -0.774841 -15.399593 0
M  V30 18 Cl 3.285976 -1.027070 -14.248934 0
M  V30 19 C 5.699324 -0.052353 -15.033284 0
M  V30 20 Cl 5.845705 0.558748 -13.419662 0
M  V30 21 C 8.931788 0.393754 -14.934184 0
M  V30 22 C 10.208461 0.406739 -15.801394 0
M  V30 23 C 10.769827 6.093788 -13.030938 0
M  V30 24 C 9.613932 5.608967 -12.360826 0
M  V30 25 C 9.300546 6.012538 -11.043192 0
M  V30 26 C 10.164570 6.912543 -10.398741 0
M  V30 27 C 11.292677 7.416624 -11.055698 0
M  V30 28 C 11.608249 7.030875 -12.374437 0
M  V30 29 C 12.093573 8.343448 -10.154031 0
M  V30 30 C 11.299906 8.222964 -8.863762 0
M  V30 31 C 11.620718 8.780981 -7.615023 0
M  V30 32 C 10.751107 8.535304 -6.527390 0
M  V30 33 C 9.594689 7.738668 -6.696879 0
M  V30 34 C 9.289546 7.173198 -7.955951 0
M  V30 35 C 10.165774 7.419854 -9.029292 0
M  V30 36 H 13.007804 5.957793 -14.193902 0
M  V30 37 H 13.840623 5.587247 -16.258970 0
M  V30 38 H 12.485847 6.558053 -16.769644 0
M  V30 39 H 11.114412 4.518727 -17.158749 0
M  V30 40 H 13.638626 4.416381 -18.358824 0
M  V30 41 H 13.619036 2.906911 -16.648470 0
M  V30 42 H 12.461753 3.099835 -15.369970 0
M  V30 43 H 11.630741 1.910738 -18.067291 0
M  V30 44 H 12.350145 0.966543 -16.791065 0
M  V30 45 H 9.562852 3.152136 -17.589109 0
M  V30 46 H 9.264217 1.474584 -17.973055 0
M  V30 47 H 8.167422 3.023529 -15.556993 0
M  V30 48 H 7.236687 2.529404 -16.962139 0
M  V30 49 H 7.292229 -0.057194 -18.062267 0
M  V30 50 H 5.277079 -1.367340 -18.683311 0
M  V30 51 H 3.509202 -1.816008 -16.988323 0
M  V30 52 H 9.095459 0.955247 -14.014936 0
M  V30 53 H 8.684405 -0.627555 -14.650596 0
M  V30 54 H 10.109138 -0.278553 -16.645418 0
M  V30 55 H 11.046109 0.049632 -15.198259 0
M  V30 56 H 8.954377 4.913845 -12.857640 0
M  V30 57 H 8.426600 5.627509 -10.538049 0
M  V30 58 H 12.486102 7.437614 -12.858437 0
M  V30 59 H 13.123392 8.005385 -10.027775 0
M  V30 60 H 12.083220 9.369085 -10.531088 0
M  V30 61 H 12.514961 9.372037 -7.480278 0
M  V30 62 H 10.976824 8.950260 -5.555217 0
M  V30 63 H 8.946345 7.552632 -5.850857 0
M  V30 64 H 8.410412 6.557170 -8.086785 0
M  V30 END ATOM
M  V30 BEGIN BOND
M  V30 1 2 2 1
M  V30 2 1 3 2
M  V30 3 1 4 3
M  V30 4 1 5 4
M  V30 5 1 6 5
M  V30 6 1 7 5
M  V30 7 1 8 7
M  V30 8 1 9 8
M  V30 9 1 10 9
M  V30 10 1 11 10
M  V30 11 1 12 11
M  V30 12 1 13 12
M  V30 13 2 14 13
M  V30 14 1 15 14
M  V30 15 2 16 15
M  V30 16 1 17 16
M  V30 17 1 18 17
M  V30 18 1 19 13
M  V30 19 2 19 17
M  V30 20 1 20 19
M  V30 21 1 21 12
M  V30 22 1 22 9
M  V30 23 1 22 21
M  V30 24 1 23 2
M  V30 25 2 24 23
M  V30 26 1 25 24
M  V30 27 2 26 25
M  V30 28 1 27 26
M  V30 29 1 28 23
M  V30 30 2 28 27
M  V30 31 1 29 27
M  V30 32 1 30 29
M  V30 33 2 31 30
M  V30 34 1 32 31
M  V30 35 2 33 32
M  V30 36 1 34 33
M  V30 37 1 35 26
M  V30 38 1 35 30
M  V30 39 2 35 34
M  V30 40 1 36 3
M  V30 41 1 37 4
M  V30 42 1 38 4
M  V30 43 1 5 39 CFG=3
M  V30 44 1 40 6
M  V30 45 1 41 7
M  V30 46 1 42 7
M  V30 47 1 43 8
M  V30 48 1 44 8
M  V30 49 1 45 10
M  V30 50 1 46 10
M  V30 51 1 47 11
M  V30 52 1 48 11
M  V30 53 1 49 14
M  V30 54 1 50 15
M  V30 55 1 51 16
M  V30 56 1 52 21
M  V30 57 1 53 21
M  V30 58 1 54 22
M  V30 59 1 55 22
M  V30 60 1 56 24
M  V30 61 1 57 25
M  V30 62 1 58 28
M  V30 63 1 59 29
M  V30 64 1 60 29
M  V30 65 1 61 31
M  V30 66 1 62 32
M  V30 67 1 63 33
M  V30 68 1 64 34
M  V30 END BOND
M  V30 END CTAB
M  END
>  <b_m_subgroup_collapsed>  (1805) 
0

>  <r_i_docking_score>  (1805) 
-6.6403674950489204

>  <s_m_subgroup_title>  (1805) 
glide-dock_SP_D22_pv

>  <s_m_subgroupid>  (1805) 
glide-dock_SP_D22_pv

>  <Molecule ChEMBL ID>  (1805) 
CHEMBL394862

>  <Standard Type>  (1805) 
Ki

>  <Standard Value>  (1805) 
84.0

>  <label>  (1805) 
1

$$$$
CHEMBL255229
     RDKit          3D

  0  0  0  0  0  0  0  0  0  0999 V3000
M  V30 BEGIN CTAB
M  V30 COUNTS 48 51 0 0 1
M  V30 BEGIN ATOM
M  V30 1 C 9.529223 6.951268 -6.891562 0
M  V30 2 C 9.495848 7.599655 -8.280767 0
M  V30 3 C 9.187140 6.580958 -9.396364 0
M  V30 4 N 8.886023 7.196574 -10.726288 0 CFG=1 CHG=1
M  V30 5 C 9.856221 8.199646 -11.198488 0
M  V30 6 C 11.142988 7.480636 -11.576867 0
M  V30 7 C 10.957160 6.421735 -12.646867 0
M  V30 8 C 11.977586 6.021063 -13.515811 0
M  V30 9 C 11.799079 4.890675 -14.315249 0
M  V30 10 C 10.591764 4.175707 -14.259974 0
M  V30 11 C 9.473450 4.557841 -13.465352 0
M  V30 12 C 9.727099 5.707282 -12.654085 0
M  V30 13 C 8.544530 6.249691 -11.829525 0 CFG=1
M  V30 14 C 7.545341 5.177001 -11.392414 0
M  V30 15 C 7.214030 4.172318 -12.460266 0
M  V30 16 C 5.965419 3.532896 -12.354650 0
M  V30 17 C 5.622042 2.508664 -13.240155 0
M  V30 18 C 6.524840 2.147074 -14.246777 0
M  V30 19 C 7.783818 2.781590 -14.366575 0
M  V30 20 O 8.573047 2.388308 -15.422122 0
M  V30 21 C 9.069763 1.125517 -15.483329 0
M  V30 22 C 9.900636 0.890563 -16.736856 0
M  V30 23 O 8.918134 0.236354 -14.646876 0
M  V30 24 C 8.162901 3.825966 -13.458627 0
M  V30 25 H 9.751709 7.690380 -6.121730 0
M  V30 26 H 10.289037 6.171373 -6.834401 0
M  V30 27 H 8.565844 6.502246 -6.645700 0
M  V30 28 H 8.738577 8.385450 -8.279804 0
M  V30 29 H 10.457030 8.082420 -8.456626 0
M  V30 30 H 9.991659 5.849503 -9.482803 0
M  V30 31 H 8.303969 6.038963 -9.059575 0
M  V30 32 H 9.446606 8.715892 -12.068360 0
M  V30 33 H 10.037467 8.972365 -10.454066 0
M  V30 34 H 11.908895 8.172325 -11.911972 0
M  V30 35 H 11.580278 7.001266 -10.701045 0
M  V30 36 H 12.914588 6.553072 -13.530590 0
M  V30 37 H 12.599620 4.552679 -14.957263 0
M  V30 38 H 10.579945 3.303400 -14.881490 0
M  V30 39 H 8.003271 6.861553 -12.553782 0
M  V30 40 H 7.938356 4.573890 -10.575007 0
M  V30 41 H 6.631380 5.660415 -11.046852 0
M  V30 42 H 5.285995 3.805222 -11.560430 0
M  V30 43 H 4.669550 2.006876 -13.152501 0
M  V30 44 H 6.246711 1.365929 -14.939489 0
M  V30 45 H 9.400678 1.309471 -17.610130 0
M  V30 46 H 10.046043 -0.177533 -16.900507 0
M  V30 47 H 10.878266 1.361513 -16.634079 0
M  V30 48 H 7.990342 7.675560 -10.559334 0
M  V30 END ATOM
M  V30 BEGIN BOND
M  V30 1 1 2 1
M  V30 2 1 3 2
M  V30 3 1 4 3
M  V30 4 1 5 4
M  V30 5 1 6 5
M  V30 6 1 7 6
M  V30 7 1 8 7
M  V30 8 2 9 8
M  V30 9 1 10 9
M  V30 10 2 11 10
M  V30 11 2 12 7
M  V30 12 1 12 11
M  V30 13 1 13 4
M  V30 14 1 13 12
M  V30 15 1 14 13
M  V30 16 1 15 14
M  V30 17 1 16 15
M  V30 18 2 17 16
M  V30 19 1 18 17
M  V30 20 2 19 18
M  V30 21 1 20 19
M  V30 22 1 21 20
M  V30 23 1 22 21
M  V30 24 2 23 21
M  V30 25 1 24 11
M  V30 26 2 24 15
M  V30 27 1 24 19
M  V30 28 1 25 1
M  V30 29 1 26 1
M  V30 30 1 27 1
M  V30 31 1 28 2
M  V30 32 1 29 2
M  V30 33 1 30 3
M  V30 34 1 31 3
M  V30 35 1 32 5
M  V30 36 1 33 5
M  V30 37 1 34 6
M  V30 38 1 35 6
M  V30 39 1 36 8
M  V30 40 1 37 9
M  V30 41 1 38 10
M  V30 42 1 13 39 CFG=3
M  V30 43 1 40 14
M  V30 44 1 41 14
M  V30 45 1 42 16
M  V30 46 1 43 17
M  V30 47 1 44 18
M  V30 48 1 45 22
M  V30 49 1 46 22
M  V30 50 1 47 22
M  V30 51 1 4 48 CFG=1
M  V30 END BOND
M  V30 END CTAB
M  END
>  <b_m_subgroup_collapsed>  (1806) 
0

>  <r_i_docking_score>  (1806) 
-6.6402120757021104

>  <s_m_subgroup_title>  (1806) 
glide-dock_SP_D22_pv

>  <s_m_subgroupid>  (1806) 
glide-dock_SP_D22_pv

>  <Molecule ChEMBL ID>  (1806) 
CHEMBL255229

>  <Standard Type>  (1806) 
Ki

>  <Standard Value>  (1806) 
72.3

>  <label>  (1806) 
1

$$$$
CHEMBL4441655
     RDKit          3D

  0  0  0  0  0  0  0  0  0  0999 V3000
M  V30 BEGIN CTAB
M  V30 COUNTS 45 47 0 0 1
M  V30 BEGIN ATOM
M  V30 1 C 8.983300 7.065691 -8.038055 0
M  V30 2 N 8.886023 6.731713 -9.475778 0 CHG=1
M  V30 3 C 8.870988 5.270504 -9.723201 0
M  V30 4 C 8.643156 4.981155 -11.213739 0
M  V30 5 N 9.654996 5.656879 -12.030298 0
M  V30 6 C 10.369609 5.007856 -13.046864 0
M  V30 7 N 11.303295 5.717580 -13.686466 0
M  V30 8 C 11.910100 5.027520 -14.648039 0
M  V30 9 N 12.886024 5.688829 -15.336005 0
M  V30 10 N 11.686025 3.772322 -15.024268 0
M  V30 11 C 10.718601 3.192724 -14.312815 0
M  V30 12 C 10.340338 1.773384 -14.703756 0
M  V30 13 S 8.802701 1.730599 -15.723310 0
M  V30 14 O 8.674601 0.370758 -16.266342 0
M  V30 15 O 8.865610 2.859059 -16.666204 0
M  V30 16 C 7.429008 2.055826 -14.580742 0
M  V30 17 C 7.199757 3.406137 -14.246863 0
M  V30 18 C 6.139221 3.784479 -13.410545 0
M  V30 19 C 5.301484 2.798299 -12.875786 0
M  V30 20 C 5.529750 1.443509 -13.162358 0
M  V30 21 C 6.590796 1.060593 -14.005407 0
M  V30 22 Cl 6.793815 -0.627674 -14.246864 0
M  V30 23 N 10.052126 3.731805 -13.291113 0
M  V30 24 C 9.712517 7.104965 -11.803577 0
M  V30 25 C 9.895844 7.430027 -10.308481 0
M  V30 26 H 9.942906 6.753522 -7.624239 0
M  V30 27 H 8.873070 8.140030 -7.885901 0
M  V30 28 H 8.191378 6.572317 -7.471964 0
M  V30 29 H 8.086022 4.800281 -9.131402 0
M  V30 30 H 9.815932 4.831918 -9.397592 0
M  V30 31 H 7.659337 5.346789 -11.509701 0
M  V30 32 H 8.625023 3.904427 -11.370670 0
M  V30 33 H 13.248131 6.544069 -14.942627 0
M  V30 34 H 13.483659 5.151726 -15.945127 0
M  V30 35 H 10.193850 1.129060 -13.846865 0
M  V30 36 H 11.140090 1.340463 -15.304005 0
M  V30 37 H 7.838162 4.178352 -14.646865 0
M  V30 38 H 5.967958 4.826886 -13.183350 0
M  V30 39 H 4.486022 3.087801 -12.246865 0
M  V30 40 H 4.886078 0.691228 -12.731892 0
M  V30 41 H 10.506618 7.591321 -12.368987 0
M  V30 42 H 8.777947 7.539856 -12.161310 0
M  V30 43 H 9.817940 8.507180 -10.154935 0
M  V30 44 H 10.895916 7.133458 -9.987638 0
M  V30 45 H 7.970608 7.078531 -9.777659 0
M  V30 END ATOM
M  V30 BEGIN BOND
M  V30 1 1 2 1
M  V30 2 1 3 2
M  V30 3 1 4 3
M  V30 4 1 5 4
M  V30 5 1 6 5
M  V30 6 2 7 6
M  V30 7 1 8 7
M  V30 8 1 9 8
M  V30 9 2 10 8
M  V30 10 1 11 10
M  V30 11 1 12 11
M  V30 12 1 13 12
M  V30 13 2 14 13
M  V30 14 2 15 13
M  V30 15 1 16 13
M  V30 16 2 17 16
M  V30 17 1 18 17
M  V30 18 2 19 18
M  V30 19 1 20 19
M  V30 20 1 21 16
M  V30 21 2 21 20
M  V30 22 1 22 21
M  V30 23 1 23 6
M  V30 24 2 23 11
M  V30 25 1 24 5
M  V30 26 1 25 2
M  V30 27 1 25 24
M  V30 28 1 26 1
M  V30 29 1 27 1
M  V30 30 1 28 1
M  V30 31 1 29 3
M  V30 32 1 30 3
M  V30 33 1 31 4
M  V30 34 1 32 4
M  V30 35 1 33 9
M  V30 36 1 34 9
M  V30 37 1 35 12
M  V30 38 1 36 12
M  V30 39 1 37 17
M  V30 40 1 38 18
M  V30 41 1 39 19
M  V30 42 1 40 20
M  V30 43 1 41 24
M  V30 44 1 42 24
M  V30 45 1 43 25
M  V30 46 1 44 25
M  V30 47 1 45 2
M  V30 END BOND
M  V30 END CTAB
M  END
>  <b_m_subgroup_collapsed>  (1807) 
0

>  <r_i_docking_score>  (1807) 
-6.6366998967638002

>  <s_m_subgroup_title>  (1807) 
glide-dock_SP_D22_pv

>  <s_m_subgroupid>  (1807) 
glide-dock_SP_D22_pv

>  <Molecule ChEMBL ID>  (1807) 
CHEMBL4441655

>  <Standard Type>  (1807) 
Ki

>  <Standard Value>  (1807) 
50140.0

>  <label>  (1807) 
0

$$$$
CHEMBL25074
     RDKit          3D

  0  0  0  0  0  0  0  0  0  0999 V3000
M  V30 BEGIN CTAB
M  V30 COUNTS 52 55 0 0 1
M  V30 BEGIN ATOM
M  V30 1 C 6.234776 5.320171 -11.451190 0
M  V30 2 N 6.763132 5.621548 -12.778932 0 CFG=1 CHG=1
M  V30 3 C 7.610417 6.847445 -12.783724 0
M  V30 4 C 9.047266 6.630434 -12.273974 0 CFG=1
M  V30 5 N 9.122181 6.611013 -10.808268 0
M  V30 6 C 10.155288 7.079447 -10.077089 0
M  V30 7 O 11.236431 7.372049 -10.589225 0
M  V30 8 C 9.914021 7.322385 -8.563093 0
M  V30 9 C 11.240720 7.323648 -7.770821 0
M  V30 10 C 9.301953 8.729116 -8.414161 0
M  V30 11 C 8.998497 6.236218 -7.948125 0
M  V30 12 C 9.704252 5.432312 -12.990390 0
M  V30 13 C 8.815014 4.168165 -13.080371 0 CFG=2
M  V30 14 C 9.415692 3.099241 -14.004192 0
M  V30 15 C 10.739324 2.973981 -14.463330 0
M  V30 16 C 11.082427 1.873823 -15.270334 0
M  V30 17 C 10.137922 0.866872 -15.538668 0
M  V30 18 C 8.835747 1.000899 -15.103971 0
M  V30 19 N 7.756668 0.171887 -15.223263 0
M  V30 20 C 6.657053 0.772576 -14.658134 0
M  V30 21 Cl 5.181083 -0.097416 -14.547038 0
M  V30 22 C 7.056365 2.013829 -14.244428 0
M  V30 23 C 8.456842 2.136626 -14.400195 0
M  V30 24 C 6.459439 3.199909 -13.537951 0
M  V30 25 C 7.365149 4.477071 -13.519585 0 CFG=1
M  V30 26 H 7.052371 5.089746 -10.770026 0
M  V30 27 H 5.527898 4.493054 -11.447681 0
M  V30 28 H 5.670093 6.171741 -11.079537 0
M  V30 29 H 7.686676 7.172284 -13.813239 0
M  V30 30 H 7.118072 7.658710 -12.247040 0
M  V30 31 H 9.605022 7.518396 -12.581830 0
M  V30 32 H 8.247196 6.512351 -10.308555 0
M  V30 33 H 11.976590 8.016149 -8.184239 0
M  V30 34 H 11.684896 6.329436 -7.745026 0
M  V30 35 H 11.074970 7.618215 -6.733935 0
M  V30 36 H 9.050533 8.952711 -7.376686 0
M  V30 37 H 8.398607 8.847573 -9.009600 0
M  V30 38 H 10.009465 9.490896 -8.748553 0
M  V30 39 H 8.798918 6.450237 -6.896983 0
M  V30 40 H 9.467217 5.251879 -8.002029 0
M  V30 41 H 8.033341 6.160410 -8.445225 0
M  V30 42 H 9.946107 5.766656 -14.000722 0
M  V30 43 H 10.654577 5.185538 -12.521593 0
M  V30 44 H 8.775899 3.752842 -12.072828 0
M  V30 45 H 11.489200 3.709527 -14.211401 0
M  V30 46 H 12.087157 1.771992 -15.646518 0
M  V30 47 H 10.435530 -0.009297 -16.094934 0
M  V30 48 H 7.764853 -0.778390 -15.577586 0
M  V30 49 H 5.491930 3.441556 -13.980982 0
M  V30 50 H 6.245794 2.861816 -12.526807 0
M  V30 51 H 7.448721 4.815222 -14.550186 0
M  V30 52 H 5.933725 5.866810 -13.303438 0
M  V30 END ATOM
M  V30 BEGIN BOND
M  V30 1 1 2 1
M  V30 2 1 3 2
M  V30 3 1 4 3
M  V30 4 1 5 4
M  V30 5 1 6 5
M  V30 6 2 7 6
M  V30 7 1 8 6
M  V30 8 1 9 8
M  V30 9 1 10 8
M  V30 10 1 11 8
M  V30 11 1 12 4
M  V30 12 1 13 12
M  V30 13 1 14 13
M  V30 14 1 15 14
M  V30 15 2 16 15
M  V30 16 1 17 16
M  V30 17 2 18 17
M  V30 18 1 19 18
M  V30 19 1 20 19
M  V30 20 1 21 20
M  V30 21 2 22 20
M  V30 22 2 23 14
M  V30 23 1 23 18
M  V30 24 1 23 22
M  V30 25 1 24 22
M  V30 26 1 25 2
M  V30 27 1 25 13
M  V30 28 1 25 24
M  V30 29 1 26 1
M  V30 30 1 27 1
M  V30 31 1 28 1
M  V30 32 1 29 3
M  V30 33 1 30 3
M  V30 34 1 4 31 CFG=3
M  V30 35 1 32 5
M  V30 36 1 33 9
M  V30 37 1 34 9
M  V30 38 1 35 9
M  V30 39 1 36 10
M  V30 40 1 37 10
M  V30 41 1 38 10
M  V30 42 1 39 11
M  V30 43 1 40 11
M  V30 44 1 41 11
M  V30 45 1 42 12
M  V30 46 1 43 12
M  V30 47 1 13 44 CFG=1
M  V30 48 1 45 15
M  V30 49 1 46 16
M  V30 50 1 47 17
M  V30 51 1 48 19
M  V30 52 1 49 24
M  V30 53 1 50 24
M  V30 54 1 25 51 CFG=3
M  V30 55 1 2 52 CFG=3
M  V30 END BOND
M  V30 END CTAB
M  END
>  <b_m_subgroup_collapsed>  (1808) 
0

>  <r_i_docking_score>  (1808) 
-6.6358628022085702

>  <s_m_subgroup_title>  (1808) 
glide-dock_SP_D22_pv

>  <s_m_subgroupid>  (1808) 
glide-dock_SP_D22_pv

>  <Molecule ChEMBL ID>  (1808) 
CHEMBL25074

>  <Standard Type>  (1808) 
Ki

>  <Standard Value>  (1808) 
3.6

>  <label>  (1808) 
1

$$$$
CHEMBL161792
     RDKit          3D

  0  0  0  0  0  0  0  0  0  0999 V3000
M  V30 BEGIN CTAB
M  V30 COUNTS 55 58 0 0 1
M  V30 BEGIN ATOM
M  V30 1 O 12.463350 9.372227 -1.669083 0
M  V30 2 C 12.098252 8.748825 -2.655503 0
M  V30 3 C 12.084923 7.291464 -2.674697 0
M  V30 4 C 11.786791 6.609811 -3.787675 0
M  V30 5 C 11.466563 7.286010 -5.032504 0
M  V30 6 C 11.289275 6.572384 -6.221793 0
M  V30 7 C 11.099602 7.250275 -7.424267 0
M  V30 8 C 11.054552 8.663979 -7.457790 0
M  V30 9 O 10.886595 9.372127 -8.628666 0
M  V30 10 C 10.887051 8.655520 -9.863922 0
M  V30 11 C 9.527353 7.976043 -10.149739 0
M  V30 12 C 9.565000 6.966348 -11.317074 0
M  V30 13 C 8.584764 5.794780 -11.096465 0
M  V30 14 N 8.206569 5.159066 -12.356240 0
M  V30 15 C 6.896772 4.521188 -12.177961 0
M  V30 16 C 6.421107 3.907212 -13.504363 0
M  V30 17 N 7.415221 2.965207 -14.003929 0
M  V30 18 C 6.988370 1.763046 -14.606331 0
M  V30 19 C 6.081576 0.959174 -13.874359 0
M  V30 20 C 5.560334 -0.227802 -14.416295 0
M  V30 21 C 5.935455 -0.627302 -15.707778 0
M  V30 22 C 6.846810 0.145176 -16.449270 0
M  V30 23 Cl 7.279114 -0.383140 -18.037321 0
M  V30 24 C 7.389110 1.333507 -15.905381 0
M  V30 25 Cl 8.487659 2.247734 -16.887438 0
M  V30 26 C 8.780243 3.475597 -14.080011 0
M  V30 27 C 9.186517 4.135733 -12.743879 0
M  V30 28 C 11.217892 9.383920 -6.246047 0
M  V30 29 C 11.447062 8.693151 -5.033972 0
M  V30 30 N 11.725019 9.365840 -3.805626 0
M  V30 31 H 12.349957 6.747604 -1.782905 0
M  V30 32 H 11.818581 5.538868 -3.788362 0
M  V30 33 H 11.395964 5.503555 -6.242208 0
M  V30 34 H 11.016058 6.635620 -8.306746 0
M  V30 35 H 11.715937 7.946898 -9.900620 0
M  V30 36 H 11.104899 9.372410 -10.650513 0
M  V30 37 H 8.770514 8.738305 -10.345970 0
M  V30 38 H 9.164001 7.465319 -9.254632 0
M  V30 39 H 10.570452 6.564054 -11.445899 0
M  V30 40 H 9.328031 7.495590 -12.240682 0
M  V30 41 H 7.685953 6.172545 -10.614361 0
M  V30 42 H 8.997294 5.067603 -10.395059 0
M  V30 43 H 6.165931 5.264264 -11.853930 0
M  V30 44 H 6.944254 3.765796 -11.392318 0
M  V30 45 H 6.283428 4.690289 -14.246407 0
M  V30 46 H 5.443559 3.440772 -13.371866 0
M  V30 47 H 5.780318 1.251265 -12.877508 0
M  V30 48 H 4.870678 -0.830971 -13.847057 0
M  V30 49 H 5.537374 -1.540910 -16.127047 0
M  V30 50 H 9.473785 2.666583 -14.310760 0
M  V30 51 H 8.843863 4.209805 -14.884486 0
M  V30 52 H 10.171184 4.593682 -12.849036 0
M  V30 53 H 9.276979 3.375688 -11.965374 0
M  V30 54 H 11.208281 10.462966 -6.264376 0
M  V30 55 H 11.712816 10.375388 -3.808333 0
M  V30 END ATOM
M  V30 BEGIN BOND
M  V30 1 2 2 1
M  V30 2 1 3 2
M  V30 3 2 4 3
M  V30 4 1 5 4
M  V30 5 1 6 5
M  V30 6 2 7 6
M  V30 7 1 8 7
M  V30 8 1 9 8
M  V30 9 1 10 9
M  V30 10 1 11 10
M  V30 11 1 12 11
M  V30 12 1 13 12
M  V30 13 1 14 13
M  V30 14 1 15 14
M  V30 15 1 16 15
M  V30 16 1 17 16
M  V30 17 1 18 17
M  V30 18 2 19 18
M  V30 19 1 20 19
M  V30 20 2 21 20
M  V30 21 1 22 21
M  V30 22 1 23 22
M  V30 23 1 24 18
M  V30 24 2 24 22
M  V30 25 1 25 24
M  V30 26 1 26 17
M  V30 27 1 27 14
M  V30 28 1 27 26
M  V30 29 2 28 8
M  V30 30 2 29 5
M  V30 31 1 29 28
M  V30 32 1 30 2
M  V30 33 1 30 29
M  V30 34 1 31 3
M  V30 35 1 32 4
M  V30 36 1 33 6
M  V30 37 1 34 7
M  V30 38 1 35 10
M  V30 39 1 36 10
M  V30 40 1 37 11
M  V30 41 1 38 11
M  V30 42 1 39 12
M  V30 43 1 40 12
M  V30 44 1 41 13
M  V30 45 1 42 13
M  V30 46 1 43 15
M  V30 47 1 44 15
M  V30 48 1 45 16
M  V30 49 1 46 16
M  V30 50 1 47 19
M  V30 51 1 48 20
M  V30 52 1 49 21
M  V30 53 1 50 26
M  V30 54 1 51 26
M  V30 55 1 52 27
M  V30 56 1 53 27
M  V30 57 1 54 28
M  V30 58 1 55 30
M  V30 END BOND
M  V30 END CTAB
M  END
>  <b_m_subgroup_collapsed>  (1809) 
0

>  <r_i_docking_score>  (1809) 
-6.6351033698168003

>  <s_m_subgroup_title>  (1809) 
glide-dock_SP_D22_pv

>  <s_m_subgroupid>  (1809) 
glide-dock_SP_D22_pv

>  <Molecule ChEMBL ID>  (1809) 
CHEMBL161792

>  <Standard Type>  (1809) 
Ki

>  <Standard Value>  (1809) 
7.3

>  <label>  (1809) 
1

$$$$
CHEMBL500627
     RDKit          3D

  0  0  0  0  0  0  0  0  0  0999 V3000
M  V30 BEGIN CTAB
M  V30 COUNTS 43 45 0 0 1
M  V30 BEGIN ATOM
M  V30 1 C 6.774424 5.890130 -12.634151 0
M  V30 2 C 8.198873 5.320760 -12.682000 0
M  V30 3 C 9.213528 6.075950 -11.795925 0
M  V30 4 N 8.883117 6.108486 -10.337755 0 CFG=1 CHG=1
M  V30 5 C 8.685755 4.745195 -9.773565 0
M  V30 6 C 8.431383 4.781728 -8.261497 0
M  V30 7 O 9.499955 5.458940 -7.645532 0
M  V30 8 C 9.500179 6.815890 -8.012680 0 CFG=1
M  V30 9 C 10.421630 7.635680 -7.128269 0
M  V30 10 C 10.827024 7.219222 -5.835067 0
M  V30 11 C 11.554352 8.095644 -4.988882 0
M  V30 12 C 11.963828 7.675981 -3.604298 0
M  V30 13 N 12.091932 8.650975 -2.701804 0
M  V30 14 O 12.090541 6.497810 -3.298054 0
M  V30 15 C 11.891019 9.377294 -5.467483 0
M  V30 16 C 11.482727 9.782735 -6.744517 0
M  V30 17 C 10.772136 8.910628 -7.589642 0
M  V30 18 C 10.267256 9.372304 -8.944740 0
M  V30 19 C 10.075703 8.307014 -10.026103 0
M  V30 20 C 9.877096 6.868598 -9.515350 0 CFG=2
M  V30 21 H 6.124357 5.371059 -13.339329 0
M  V30 22 H 6.758879 6.952768 -12.877218 0
M  V30 23 H 6.334323 5.771913 -11.642474 0
M  V30 24 H 8.185002 4.256963 -12.443310 0
M  V30 25 H 8.548168 5.370704 -13.714524 0
M  V30 26 H 10.198263 5.621585 -11.920919 0
M  V30 27 H 9.296712 7.086699 -12.193611 0
M  V30 28 H 7.842357 4.245304 -10.250256 0
M  V30 29 H 9.579650 4.155208 -9.976248 0
M  V30 30 H 7.511691 5.303450 -8.005980 0
M  V30 31 H 8.360252 3.773462 -7.850946 0
M  V30 32 H 8.508016 7.248194 -7.862382 0
M  V30 33 H 10.541061 6.242093 -5.471817 0
M  V30 34 H 11.940297 9.613458 -2.961813 0
M  V30 35 H 12.314003 8.410903 -1.747285 0
M  V30 36 H 12.449639 10.072404 -4.859428 0
M  V30 37 H 11.686138 10.796672 -7.046822 0
M  V30 38 H 9.275060 9.772302 -8.745948 0
M  V30 39 H 10.890468 10.172151 -9.346109 0
M  V30 40 H 9.232615 8.633909 -10.636599 0
M  V30 41 H 10.944749 8.317134 -10.686960 0
M  V30 42 H 10.840789 6.363873 -9.610934 0
M  V30 43 H 7.994430 6.601542 -10.248170 0
M  V30 END ATOM
M  V30 BEGIN BOND
M  V30 1 1 2 1
M  V30 2 1 3 2
M  V30 3 1 4 3
M  V30 4 1 5 4
M  V30 5 1 6 5
M  V30 6 1 7 6
M  V30 7 1 8 7
M  V30 8 1 9 8
M  V30 9 1 10 9
M  V30 10 2 11 10
M  V30 11 1 12 11
M  V30 12 1 13 12
M  V30 13 2 14 12
M  V30 14 1 15 11
M  V30 15 2 16 15
M  V30 16 2 17 9
M  V30 17 1 17 16
M  V30 18 1 18 17
M  V30 19 1 19 18
M  V30 20 1 20 4
M  V30 21 1 20 8
M  V30 22 1 20 19
M  V30 23 1 21 1
M  V30 24 1 22 1
M  V30 25 1 23 1
M  V30 26 1 24 2
M  V30 27 1 25 2
M  V30 28 1 26 3
M  V30 29 1 27 3
M  V30 30 1 28 5
M  V30 31 1 29 5
M  V30 32 1 30 6
M  V30 33 1 31 6
M  V30 34 1 8 32 CFG=3
M  V30 35 1 33 10
M  V30 36 1 34 13
M  V30 37 1 35 13
M  V30 38 1 36 15
M  V30 39 1 37 16
M  V30 40 1 38 18
M  V30 41 1 39 18
M  V30 42 1 40 19
M  V30 43 1 41 19
M  V30 44 1 20 42 CFG=1
M  V30 45 1 4 43 CFG=3
M  V30 END BOND
M  V30 END CTAB
M  END
>  <b_m_subgroup_collapsed>  (1810) 
0

>  <r_i_docking_score>  (1810) 
-6.63426743073832

>  <s_m_subgroup_title>  (1810) 
glide-dock_SP_D22_pv

>  <s_m_subgroupid>  (1810) 
glide-dock_SP_D22_pv

>  <Molecule ChEMBL ID>  (1810) 
CHEMBL500627

>  <Standard Type>  (1810) 
Ki

>  <Standard Value>  (1810) 
10000.0

>  <label>  (1810) 
0

$$$$
CHEMBL324073
     RDKit          3D

  0  0  0  0  0  0  0  0  0  0999 V3000
M  V30 BEGIN CTAB
M  V30 COUNTS 40 43 0 0 1
M  V30 BEGIN ATOM
M  V30 1 C 9.315453 6.377429 -9.949560 0
M  V30 2 N 8.880944 6.941571 -11.252150 0 CFG=1 CHG=1
M  V30 3 C 9.817154 7.939167 -11.797276 0
M  V30 4 C 11.116993 7.242385 -12.209996 0
M  V30 5 C 10.960896 5.995714 -13.066695 0
M  V30 6 C 12.019106 5.435194 -13.797120 0
M  V30 7 C 11.865796 4.174937 -14.378102 0
M  V30 8 C 10.634482 3.509159 -14.286793 0
M  V30 9 C 9.463007 4.085617 -13.724038 0
M  V30 10 C 9.708541 5.318686 -13.047987 0
M  V30 11 C 8.515799 5.949557 -12.304494 0 CFG=1
M  V30 12 C 7.507019 4.916783 -11.784429 0
M  V30 13 C 7.166138 3.844853 -12.791539 0
M  V30 14 C 5.915971 3.214541 -12.647536 0
M  V30 15 C 5.593633 2.114480 -13.445992 0
M  V30 16 C 6.486171 1.702575 -14.443137 0
M  V30 17 C 7.715392 2.366579 -14.652802 0
M  V30 18 C 8.487865 1.944902 -15.874684 0
M  V30 19 N 8.670430 0.632114 -16.029638 0
M  V30 20 O 8.928326 2.763428 -16.677851 0
M  V30 21 C 8.118665 3.423440 -13.761544 0
M  V30 22 H 10.089302 5.618429 -10.070579 0
M  V30 23 H 8.472499 5.933143 -9.418141 0
M  V30 24 H 9.707788 7.159816 -9.299232 0
M  V30 25 H 9.353267 8.436884 -12.646767 0
M  V30 26 H 10.014850 8.720024 -11.062109 0
M  V30 27 H 11.780652 7.900969 -12.760264 0
M  V30 28 H 11.679062 6.972827 -11.316883 0
M  V30 29 H 12.971578 5.937545 -13.845567 0
M  V30 30 H 12.698571 3.707896 -14.882715 0
M  V30 31 H 10.625227 2.516625 -14.700146 0
M  V30 32 H 7.990165 6.515854 -13.076754 0
M  V30 33 H 7.903215 4.377207 -10.924932 0
M  V30 34 H 6.599360 5.423845 -11.447172 0
M  V30 35 H 5.229426 3.541281 -11.879787 0
M  V30 36 H 4.647255 1.607406 -13.322403 0
M  V30 37 H 6.180037 0.896966 -15.094910 0
M  V30 38 H 8.295680 -0.020555 -15.357379 0
M  V30 39 H 9.178073 0.300497 -16.834793 0
M  V30 40 H 8.007555 7.423202 -11.025216 0
M  V30 END ATOM
M  V30 BEGIN BOND
M  V30 1 1 2 1
M  V30 2 1 3 2
M  V30 3 1 4 3
M  V30 4 1 5 4
M  V30 5 1 6 5
M  V30 6 2 7 6
M  V30 7 1 8 7
M  V30 8 2 9 8
M  V30 9 2 10 5
M  V30 10 1 10 9
M  V30 11 1 11 2
M  V30 12 1 11 10
M  V30 13 1 12 11
M  V30 14 1 13 12
M  V30 15 1 14 13
M  V30 16 2 15 14
M  V30 17 1 16 15
M  V30 18 2 17 16
M  V30 19 1 18 17
M  V30 20 1 19 18
M  V30 21 2 20 18
M  V30 22 1 21 9
M  V30 23 2 21 13
M  V30 24 1 21 17
M  V30 25 1 22 1
M  V30 26 1 23 1
M  V30 27 1 24 1
M  V30 28 1 25 3
M  V30 29 1 26 3
M  V30 30 1 27 4
M  V30 31 1 28 4
M  V30 32 1 29 6
M  V30 33 1 30 7
M  V30 34 1 31 8
M  V30 35 1 11 32 CFG=3
M  V30 36 1 33 12
M  V30 37 1 34 12
M  V30 38 1 35 14
M  V30 39 1 36 15
M  V30 40 1 37 16
M  V30 41 1 38 19
M  V30 42 1 39 19
M  V30 43 1 2 40 CFG=1
M  V30 END BOND
M  V30 END CTAB
M  END
>  <b_m_subgroup_collapsed>  (1811) 
0

>  <r_i_docking_score>  (1811) 
-6.6324623420733504

>  <s_m_subgroup_title>  (1811) 
glide-dock_SP_D22_pv

>  <s_m_subgroupid>  (1811) 
glide-dock_SP_D22_pv

>  <Molecule ChEMBL ID>  (1811) 
CHEMBL324073

>  <Standard Type>  (1811) 
Ki

>  <Standard Value>  (1811) 
10000.0

>  <label>  (1811) 
0

$$$$
CHEMBL478043
     RDKit          3D

  0  0  0  0  0  0  0  0  0  0999 V3000
M  V30 BEGIN CTAB
M  V30 COUNTS 66 70 0 0 1
M  V30 BEGIN ATOM
M  V30 1 C 3.364775 -0.067730 -14.132435 0
M  V30 2 C 4.834002 -0.412643 -13.846477 0
M  V30 3 C 5.867456 0.260021 -14.775587 0
M  V30 4 N 6.634556 1.367029 -14.124975 0 CFG=2 CHG=1
M  V30 5 C 5.801721 2.547634 -13.819422 0
M  V30 6 C 6.485973 3.424324 -12.794949 0
M  V30 7 C 7.919984 3.773705 -13.135911 0
M  V30 8 C 8.643300 4.752825 -12.443341 0
M  V30 9 C 10.008399 4.900658 -12.693502 0
M  V30 10 C 10.643873 4.109565 -13.666140 0
M  V30 11 C 9.950521 3.178185 -14.476640 0
M  V30 12 C 8.588547 2.982365 -14.117048 0
M  V30 13 C 7.860386 1.823768 -14.846612 0 CFG=1
M  V30 14 C 8.843452 0.665069 -15.161967 0
M  V30 15 C 10.062530 1.160843 -15.906967 0
M  V30 16 C 10.608925 0.380252 -16.945904 0
M  V30 17 C 11.687625 0.870934 -17.698444 0
M  V30 18 C 12.213204 2.142930 -17.413612 0
M  V30 19 C 11.667879 2.929258 -16.376225 0
M  V30 20 O 12.238726 4.156879 -16.144598 0
M  V30 21 C 11.723808 5.265324 -16.726206 0
M  V30 22 O 10.817701 5.292500 -17.559875 0
M  V30 23 C 12.356664 6.547674 -16.189976 0
M  V30 24 N 12.080511 6.644507 -14.766041 0
M  V30 25 C 12.585715 7.625676 -13.947571 0
M  V30 26 O 13.283799 8.572278 -14.296853 0
M  V30 27 O 12.199108 7.372778 -12.686208 0
M  V30 28 C 12.705717 8.161615 -11.609568 0
M  V30 29 C 11.831237 8.107346 -10.371142 0
M  V30 30 C 12.426281 8.172340 -9.093822 0
M  V30 31 C 11.625802 8.159738 -7.934512 0
M  V30 32 C 10.224657 8.075259 -8.047109 0
M  V30 33 C 9.628273 8.014573 -9.320148 0
M  V30 34 C 10.425575 8.038371 -10.480331 0
M  V30 35 C 10.594469 2.428010 -15.583130 0
M  V30 36 H 2.703905 -0.709544 -13.548326 0
M  V30 37 H 3.113362 -0.224009 -15.182316 0
M  V30 38 H 3.114011 0.960676 -13.876771 0
M  V30 39 H 5.080698 -0.224340 -12.801161 0
M  V30 40 H 4.933406 -1.490747 -13.973714 0
M  V30 41 H 6.543684 -0.547598 -15.036981 0
M  V30 42 H 5.420359 0.571954 -15.718800 0
M  V30 43 H 5.686078 3.161766 -14.708569 0
M  V30 44 H 4.816728 2.280334 -13.447101 0
M  V30 45 H 5.926665 4.355328 -12.691269 0
M  V30 46 H 6.477215 2.972430 -11.803971 0
M  V30 47 H 8.167349 5.346858 -11.676988 0
M  V30 48 H 10.560082 5.619671 -12.114415 0
M  V30 49 H 11.709704 4.229747 -13.782819 0
M  V30 50 H 7.534122 2.233005 -15.805343 0
M  V30 51 H 9.176986 0.181101 -14.243119 0
M  V30 52 H 8.393454 -0.103581 -15.785923 0
M  V30 53 H 10.195401 -0.590446 -17.176474 0
M  V30 54 H 12.108082 0.277801 -18.497126 0
M  V30 55 H 13.041305 2.520570 -17.995247 0
M  V30 56 H 13.433262 6.522110 -16.356831 0
M  V30 57 H 11.954172 7.416932 -16.709963 0
M  V30 58 H 11.496692 5.945536 -14.328732 0
M  V30 59 H 13.685349 7.772393 -11.377001 0
M  V30 60 H 12.886101 9.206257 -11.857399 0
M  V30 61 H 13.499699 8.250309 -9.000446 0
M  V30 62 H 12.085053 8.218454 -6.959308 0
M  V30 63 H 9.604947 8.062368 -7.161758 0
M  V30 64 H 8.552311 7.955770 -9.407516 0
M  V30 65 H 9.950108 8.004993 -11.449317 0
M  V30 66 H 6.955684 1.001434 -13.241064 0
M  V30 END ATOM
M  V30 BEGIN BOND
M  V30 1 1 2 1
M  V30 2 1 3 2
M  V30 3 1 4 3
M  V30 4 1 5 4
M  V30 5 1 6 5
M  V30 6 1 7 6
M  V30 7 1 8 7
M  V30 8 2 9 8
M  V30 9 1 10 9
M  V30 10 2 11 10
M  V30 11 2 12 7
M  V30 12 1 12 11
M  V30 13 1 13 4
M  V30 14 1 13 12
M  V30 15 1 14 13
M  V30 16 1 15 14
M  V30 17 1 16 15
M  V30 18 2 17 16
M  V30 19 1 18 17
M  V30 20 2 19 18
M  V30 21 1 20 19
M  V30 22 1 21 20
M  V30 23 2 22 21
M  V30 24 1 23 21
M  V30 25 1 24 23
M  V30 26 1 25 24
M  V30 27 2 26 25
M  V30 28 1 27 25
M  V30 29 1 28 27
M  V30 30 1 29 28
M  V30 31 2 30 29
M  V30 32 1 31 30
M  V30 33 2 32 31
M  V30 34 1 33 32
M  V30 35 1 34 29
M  V30 36 2 34 33
M  V30 37 1 35 11
M  V30 38 2 35 15
M  V30 39 1 35 19
M  V30 40 1 36 1
M  V30 41 1 37 1
M  V30 42 1 38 1
M  V30 43 1 39 2
M  V30 44 1 40 2
M  V30 45 1 41 3
M  V30 46 1 42 3
M  V30 47 1 43 5
M  V30 48 1 44 5
M  V30 49 1 45 6
M  V30 50 1 46 6
M  V30 51 1 47 8
M  V30 52 1 48 9
M  V30 53 1 49 10
M  V30 54 1 13 50 CFG=3
M  V30 55 1 51 14
M  V30 56 1 52 14
M  V30 57 1 53 16
M  V30 58 1 54 17
M  V30 59 1 55 18
M  V30 60 1 56 23
M  V30 61 1 57 23
M  V30 62 1 58 24
M  V30 63 1 59 28
M  V30 64 1 60 28
M  V30 65 1 61 30
M  V30 66 1 62 31
M  V30 67 1 63 32
M  V30 68 1 64 33
M  V30 69 1 65 34
M  V30 70 1 4 66 CFG=1
M  V30 END BOND
M  V30 END CTAB
M  END
>  <b_m_subgroup_collapsed>  (1812) 
0

>  <r_i_docking_score>  (1812) 
-6.6315547526923799

>  <s_m_subgroup_title>  (1812) 
glide-dock_SP_D22_pv

>  <s_m_subgroupid>  (1812) 
glide-dock_SP_D22_pv

>  <Molecule ChEMBL ID>  (1812) 
CHEMBL478043

>  <Standard Type>  (1812) 
Ki

>  <Standard Value>  (1812) 
10000.0

>  <label>  (1812) 
0

$$$$
CHEMBL556496
     RDKit          3D

  0  0  0  0  0  0  0  0  0  0999 V3000
M  V30 BEGIN CTAB
M  V30 COUNTS 58 61 0 0 1
M  V30 BEGIN ATOM
M  V30 1 C 3.492211 -1.423517 -15.082258 0
M  V30 2 O 4.888319 -1.230131 -15.250173 0
M  V30 3 C 5.415891 -0.075345 -14.722974 0
M  V30 4 C 4.885183 0.566475 -13.581693 0
M  V30 5 C 5.424236 1.784254 -13.141173 0
M  V30 6 C 6.486036 2.374092 -13.846782 0
M  V30 7 C 7.067479 1.731458 -14.968287 0
M  V30 8 C 8.201077 2.378850 -15.779842 0 CFG=2
M  V30 9 C 9.332629 1.400332 -16.171101 0
M  V30 10 C 10.209511 1.052519 -14.962197 0
M  V30 11 C 10.721495 2.332614 -14.282783 0
M  V30 12 N 9.580737 3.194696 -13.872624 0 CFG=1 CHG=1
M  V30 13 C 9.947443 4.305533 -12.946994 0
M  V30 14 C 8.736428 5.054777 -12.332346 0
M  V30 15 N 9.137636 6.121886 -11.410973 0
M  V30 16 C 9.173624 7.497951 -11.856278 0
M  V30 17 C 9.593070 8.249799 -10.603591 0
M  V30 18 N 9.686483 7.212707 -9.581986 0
M  V30 19 C 10.066407 7.524416 -8.232480 0
M  V30 20 C 9.797682 6.650396 -7.152159 0
M  V30 21 C 10.211796 6.969928 -5.846561 0
M  V30 22 C 10.885056 8.164572 -5.577621 0
M  V30 23 C 11.097196 9.067797 -6.622658 0
M  V30 24 Cl 11.813846 10.573285 -6.246810 0
M  V30 25 C 10.709821 8.754000 -7.941093 0
M  V30 26 C 9.411806 5.991839 -10.103239 0
M  V30 27 O 9.448199 4.907419 -9.521679 0
M  V30 28 C 8.845800 3.612668 -15.092327 0
M  V30 29 C 6.517969 0.498799 -15.386351 0
M  V30 30 H 3.166021 -2.227724 -15.737983 0
M  V30 31 H 3.242558 -1.701423 -14.059091 0
M  V30 32 H 2.926052 -0.530755 -15.355414 0
M  V30 33 H 4.050277 0.147571 -13.046889 0
M  V30 34 H 5.002123 2.284301 -12.281557 0
M  V30 35 H 6.825890 3.331138 -13.489664 0
M  V30 36 H 7.736523 2.699999 -16.712341 0
M  V30 37 H 9.962437 1.875568 -16.924049 0
M  V30 38 H 8.957016 0.493803 -16.645905 0
M  V30 39 H 11.051178 0.435677 -15.279909 0
M  V30 40 H 9.641332 0.453036 -14.249034 0
M  V30 41 H 11.382378 2.885322 -14.952781 0
M  V30 42 H 11.334106 2.034834 -13.446724 0
M  V30 43 H 10.621835 5.000546 -13.448412 0
M  V30 44 H 10.488982 3.861781 -12.115757 0
M  V30 45 H 8.093143 4.352514 -11.796790 0
M  V30 46 H 8.115653 5.515450 -13.099470 0
M  V30 47 H 9.910860 7.626306 -12.646853 0
M  V30 48 H 8.193985 7.822133 -12.212850 0
M  V30 49 H 8.854457 9.002409 -10.320619 0
M  V30 50 H 10.556383 8.738378 -10.761656 0
M  V30 51 H 9.262498 5.725388 -7.292614 0
M  V30 52 H 10.006586 6.279511 -5.042594 0
M  V30 53 H 11.194846 8.404225 -4.570876 0
M  V30 54 H 10.915534 9.477753 -8.714973 0
M  V30 55 H 8.086424 4.352502 -14.864354 0
M  V30 56 H 9.532842 4.112880 -15.776342 0
M  V30 57 H 6.894267 -0.007232 -16.261141 0
M  V30 58 H 8.957440 2.596538 -13.347230 0
M  V30 END ATOM
M  V30 BEGIN BOND
M  V30 1 1 2 1
M  V30 2 1 3 2
M  V30 3 1 4 3
M  V30 4 2 5 4
M  V30 5 1 6 5
M  V30 6 2 7 6
M  V30 7 1 8 7
M  V30 8 1 9 8
M  V30 9 1 10 9
M  V30 10 1 11 10
M  V30 11 1 12 11
M  V30 12 1 13 12
M  V30 13 1 14 13
M  V30 14 1 15 14
M  V30 15 1 16 15
M  V30 16 1 17 16
M  V30 17 1 18 17
M  V30 18 1 19 18
M  V30 19 2 20 19
M  V30 20 1 21 20
M  V30 21 2 22 21
M  V30 22 1 23 22
M  V30 23 1 24 23
M  V30 24 1 25 19
M  V30 25 2 25 23
M  V30 26 1 26 15
M  V30 27 1 26 18
M  V30 28 2 27 26
M  V30 29 1 28 8
M  V30 30 1 28 12
M  V30 31 2 29 3
M  V30 32 1 29 7
M  V30 33 1 30 1
M  V30 34 1 31 1
M  V30 35 1 32 1
M  V30 36 1 33 4
M  V30 37 1 34 5
M  V30 38 1 35 6
M  V30 39 1 8 36 CFG=3
M  V30 40 1 37 9
M  V30 41 1 38 9
M  V30 42 1 39 10
M  V30 43 1 40 10
M  V30 44 1 41 11
M  V30 45 1 42 11
M  V30 46 1 43 13
M  V30 47 1 44 13
M  V30 48 1 45 14
M  V30 49 1 46 14
M  V30 50 1 47 16
M  V30 51 1 48 16
M  V30 52 1 49 17
M  V30 53 1 50 17
M  V30 54 1 51 20
M  V30 55 1 52 21
M  V30 56 1 53 22
M  V30 57 1 54 25
M  V30 58 1 55 28
M  V30 59 1 56 28
M  V30 60 1 57 29
M  V30 61 1 12 58 CFG=1
M  V30 END BOND
M  V30 END CTAB
M  END
>  <b_m_subgroup_collapsed>  (1813) 
0

>  <r_i_docking_score>  (1813) 
-6.6313555938008504

>  <s_m_subgroup_title>  (1813) 
glide-dock_SP_D22_pv

>  <s_m_subgroupid>  (1813) 
glide-dock_SP_D22_pv

>  <Molecule ChEMBL ID>  (1813) 
CHEMBL556496

>  <Standard Type>  (1813) 
Ki

>  <Standard Value>  (1813) 
25.12

>  <label>  (1813) 
1

$$$$
CHEMBL540028
     RDKit          3D

  0  0  0  0  0  0  0  0  0  0999 V3000
M  V30 BEGIN CTAB
M  V30 COUNTS 46 49 0 0 1
M  V30 BEGIN ATOM
M  V30 1 O 9.053879 4.964595 -15.044553 0
M  V30 2 C 9.718801 3.929956 -14.977473 0
M  V30 3 C 9.281613 2.587852 -14.621175 0
M  V30 4 C 7.929233 2.087570 -14.293810 0
M  V30 5 C 6.920556 2.971954 -13.846604 0
M  V30 6 C 5.685974 2.465585 -13.399223 0
M  V30 7 C 5.430960 1.081388 -13.423805 0
M  V30 8 C 6.416026 0.197747 -13.903341 0
M  V30 9 C 7.660482 0.697814 -14.332776 0
M  V30 10 C 10.406001 1.862195 -14.658938 0
M  V30 11 O 11.554530 2.533552 -14.971552 0
M  V30 12 C 11.226768 3.889633 -15.224349 0 CFG=1
M  V30 13 C 11.622747 4.206001 -16.684711 0
M  V30 14 C 11.515263 5.706554 -17.002199 0
M  V30 15 C 12.241577 6.552344 -15.943760 0
M  V30 16 N 11.737890 6.234399 -14.581576 0 CFG=2 CHG=1
M  V30 17 C 12.217617 7.201770 -13.569517 0
M  V30 18 C 11.451396 7.226795 -12.247699 0
M  V30 19 C 10.114452 6.781050 -12.137020 0
M  V30 20 C 9.435337 6.861529 -10.906405 0
M  V30 21 C 10.080935 7.395089 -9.774954 0
M  V30 22 C 11.407131 7.853814 -9.878016 0
M  V30 23 C 12.085237 7.774183 -11.110244 0
M  V30 24 C 11.980334 4.809537 -14.239579 0
M  V30 25 H 7.094405 4.035640 -13.786395 0
M  V30 26 H 4.932992 3.144608 -13.028408 0
M  V30 27 H 4.485106 0.701959 -13.065240 0
M  V30 28 H 6.226115 -0.865832 -13.926752 0
M  V30 29 H 8.407715 -0.002234 -14.671517 0
M  V30 30 H 10.544171 0.810414 -14.446998 0
M  V30 31 H 12.650694 3.881421 -16.847734 0
M  V30 32 H 11.012974 3.633882 -17.383589 0
M  V30 33 H 11.934695 5.909240 -17.988640 0
M  V30 34 H 10.468601 6.005726 -17.054430 0
M  V30 35 H 13.318067 6.375959 -15.986429 0
M  V30 36 H 12.086040 7.607851 -16.172667 0
M  V30 37 H 13.277725 7.048290 -13.388746 0
M  V30 38 H 12.131610 8.192991 -13.999627 0
M  V30 39 H 9.583470 6.383661 -12.985596 0
M  V30 40 H 8.408586 6.527239 -10.828736 0
M  V30 41 H 9.549788 7.461113 -8.837369 0
M  V30 42 H 11.901340 8.281404 -9.017762 0
M  V30 43 H 13.092178 8.158559 -11.178946 0
M  V30 44 H 11.651727 4.602979 -13.221043 0
M  V30 45 H 13.050343 4.598089 -14.264122 0
M  V30 46 H 10.732825 6.353627 -14.622273 0
M  V30 END ATOM
M  V30 BEGIN BOND
M  V30 1 2 2 1
M  V30 2 1 3 2
M  V30 3 1 4 3
M  V30 4 2 5 4
M  V30 5 1 6 5
M  V30 6 2 7 6
M  V30 7 1 8 7
M  V30 8 1 9 4
M  V30 9 2 9 8
M  V30 10 2 10 3
M  V30 11 1 11 10
M  V30 12 1 12 2
M  V30 13 1 12 11 CFG=1
M  V30 14 1 13 12
M  V30 15 1 14 13
M  V30 16 1 15 14
M  V30 17 1 16 15
M  V30 18 1 17 16
M  V30 19 1 18 17
M  V30 20 2 19 18
M  V30 21 1 20 19
M  V30 22 2 21 20
M  V30 23 1 22 21
M  V30 24 1 23 18
M  V30 25 2 23 22
M  V30 26 1 24 12
M  V30 27 1 24 16
M  V30 28 1 25 5
M  V30 29 1 26 6
M  V30 30 1 27 7
M  V30 31 1 28 8
M  V30 32 1 29 9
M  V30 33 1 30 10
M  V30 34 1 31 13
M  V30 35 1 32 13
M  V30 36 1 33 14
M  V30 37 1 34 14
M  V30 38 1 35 15
M  V30 39 1 36 15
M  V30 40 1 37 17
M  V30 41 1 38 17
M  V30 42 1 39 19
M  V30 43 1 40 20
M  V30 44 1 41 21
M  V30 45 1 42 22
M  V30 46 1 43 23
M  V30 47 1 44 24
M  V30 48 1 45 24
M  V30 49 1 16 46 CFG=3
M  V30 END BOND
M  V30 END CTAB
M  END
>  <b_m_subgroup_collapsed>  (1814) 
0

>  <r_i_docking_score>  (1814) 
-6.6307573775515696

>  <s_m_subgroup_title>  (1814) 
glide-dock_SP_D22_pv

>  <s_m_subgroupid>  (1814) 
glide-dock_SP_D22_pv

>  <Molecule ChEMBL ID>  (1814) 
CHEMBL540028

>  <Standard Type>  (1814) 
Ki

>  <Standard Value>  (1814) 
10000.0

>  <label>  (1814) 
0

$$$$
CHEMBL4472206
     RDKit          3D

  0  0  0  0  0  0  0  0  0  0999 V3000
M  V30 BEGIN CTAB
M  V30 COUNTS 60 63 0 0 1
M  V30 BEGIN ATOM
M  V30 1 O 10.799808 8.016286 -11.046752 0
M  V30 2 C 10.273649 7.316100 -10.179916 0
M  V30 3 C 9.417508 6.110896 -10.613941 0
M  V30 4 C 8.737846 6.297442 -11.991276 0
M  V30 5 C 8.372220 4.990821 -12.727901 0
M  V30 6 N 9.504225 4.239926 -13.354496 0 CFG=1 CHG=1
M  V30 7 C 8.976345 3.197422 -14.274734 0
M  V30 8 C 10.094858 2.392454 -14.952555 0
M  V30 9 C 11.008203 3.295166 -15.819448 0 CFG=1
M  V30 10 O 12.086067 2.498186 -16.245720 0
M  V30 11 C 10.335306 3.922656 -17.072050 0
M  V30 12 C 10.402785 5.325460 -17.293089 0
M  V30 13 C 9.835626 5.929585 -18.426916 0
M  V30 14 C 9.209480 5.138711 -19.397446 0
M  V30 15 C 9.175329 3.746090 -19.233015 0
M  V30 16 C 9.729375 3.121972 -18.093187 0
M  V30 17 C 9.689846 1.646877 -18.098661 0
M  V30 18 C 10.824873 0.920376 -18.525463 0
M  V30 19 C 10.813621 -0.485477 -18.570967 0
M  V30 20 C 9.646963 -1.184512 -18.214870 0
M  V30 21 C 8.501169 -0.476120 -17.805990 0
M  V30 22 C 8.520145 0.930386 -17.744507 0
M  V30 23 Cl 7.107926 1.767702 -17.199713 0
M  V30 24 C 11.594647 4.309427 -14.801111 0
M  V30 25 C 10.510481 5.106185 -14.030350 0
M  V30 26 C 10.498325 7.563850 -8.724129 0
M  V30 27 C 11.260071 8.693724 -8.342877 0
M  V30 28 C 11.518686 8.966770 -6.986148 0
M  V30 29 C 11.022722 8.106332 -5.991686 0
M  V30 30 F 11.287006 8.358617 -4.687755 0
M  V30 31 C 10.264165 6.978127 -6.355772 0
M  V30 32 C 10.001834 6.704891 -7.714086 0
M  V30 33 H 8.642631 5.907609 -9.877111 0
M  V30 34 H 10.077932 5.242940 -10.635936 0
M  V30 35 H 9.295722 6.963099 -12.647320 0
M  V30 36 H 7.808558 6.842935 -11.826608 0
M  V30 37 H 7.667466 5.260617 -13.515943 0
M  V30 38 H 7.830420 4.324917 -12.055150 0
M  V30 39 H 8.319467 2.521372 -13.728240 0
M  V30 40 H 8.367981 3.668829 -15.046713 0
M  V30 41 H 9.672290 1.566839 -15.513367 0
M  V30 42 H 10.681949 1.910425 -14.167834 0
M  V30 43 H 12.512051 2.100212 -15.501531 0
M  V30 44 H 10.908876 5.990889 -16.613514 0
M  V30 45 H 9.895330 7.000423 -18.559763 0
M  V30 46 H 8.777147 5.595833 -20.275099 0
M  V30 47 H 8.720697 3.143326 -20.007837 0
M  V30 48 H 11.719556 1.453607 -18.809927 0
M  V30 49 H 11.695318 -1.025345 -18.885363 0
M  V30 50 H 9.631063 -2.262805 -18.246483 0
M  V30 51 H 7.609107 -1.017977 -17.525145 0
M  V30 52 H 12.190568 3.775986 -14.058740 0
M  V30 53 H 12.304626 4.985168 -15.279355 0
M  V30 54 H 11.018243 5.727167 -13.292750 0
M  V30 55 H 9.971503 5.772414 -14.697243 0
M  V30 56 H 11.659773 9.367146 -9.089290 0
M  V30 57 H 12.111230 9.825882 -6.708432 0
M  V30 58 H 9.881592 6.318785 -5.588535 0
M  V30 59 H 9.423099 5.825331 -7.948342 0
M  V30 60 H 9.986275 3.753322 -12.610882 0
M  V30 END ATOM
M  V30 BEGIN BOND
M  V30 1 2 2 1
M  V30 2 1 3 2
M  V30 3 1 4 3
M  V30 4 1 5 4
M  V30 5 1 6 5
M  V30 6 1 7 6
M  V30 7 1 8 7
M  V30 8 1 9 8
M  V30 9 1 9 10 CFG=3
M  V30 10 1 11 9
M  V30 11 2 12 11
M  V30 12 1 13 12
M  V30 13 2 14 13
M  V30 14 1 15 14
M  V30 15 1 16 11
M  V30 16 2 16 15
M  V30 17 1 17 16
M  V30 18 2 18 17
M  V30 19 1 19 18
M  V30 20 2 20 19
M  V30 21 1 21 20
M  V30 22 1 22 17
M  V30 23 2 22 21
M  V30 24 1 23 22
M  V30 25 1 24 9
M  V30 26 1 25 6
M  V30 27 1 25 24
M  V30 28 1 26 2
M  V30 29 1 27 26
M  V30 30 2 28 27
M  V30 31 1 29 28
M  V30 32 1 30 29
M  V30 33 2 31 29
M  V30 34 2 32 26
M  V30 35 1 32 31
M  V30 36 1 33 3
M  V30 37 1 34 3
M  V30 38 1 35 4
M  V30 39 1 36 4
M  V30 40 1 37 5
M  V30 41 1 38 5
M  V30 42 1 39 7
M  V30 43 1 40 7
M  V30 44 1 41 8
M  V30 45 1 42 8
M  V30 46 1 43 10
M  V30 47 1 44 12
M  V30 48 1 45 13
M  V30 49 1 46 14
M  V30 50 1 47 15
M  V30 51 1 48 18
M  V30 52 1 49 19
M  V30 53 1 50 20
M  V30 54 1 51 21
M  V30 55 1 52 24
M  V30 56 1 53 24
M  V30 57 1 54 25
M  V30 58 1 55 25
M  V30 59 1 56 27
M  V30 60 1 57 28
M  V30 61 1 58 31
M  V30 62 1 59 32
M  V30 63 1 6 60 CFG=1
M  V30 END BOND
M  V30 END CTAB
M  END
>  <b_m_subgroup_collapsed>  (1815) 
0

>  <r_i_docking_score>  (1815) 
-6.62603849760721

>  <s_m_subgroup_title>  (1815) 
glide-dock_SP_D22_pv

>  <s_m_subgroupid>  (1815) 
glide-dock_SP_D22_pv

>  <Molecule ChEMBL ID>  (1815) 
CHEMBL4472206

>  <Standard Type>  (1815) 
Ki

>  <Standard Value>  (1815) 
2.455

>  <label>  (1815) 
1

$$$$
CHEMBL5273758
     RDKit          3D

  0  0  0  0  0  0  0  0  0  0999 V3000
M  V30 BEGIN CTAB
M  V30 COUNTS 43 46 0 0 1
M  V30 BEGIN ATOM
M  V30 1 C 12.729324 7.402461 -14.992367 0
M  V30 2 N 12.485843 6.552180 -13.801437 0 CFG=2 CHG=1
M  V30 3 C 12.422705 5.098128 -14.160237 0
M  V30 4 C 10.994473 4.536520 -14.344278 0
M  V30 5 C 10.289273 4.711535 -13.008642 0 CFG=2
M  V30 6 C 8.895472 4.138768 -12.826053 0
M  V30 7 C 8.120837 4.601486 -11.817841 0
M  V30 8 O 6.886022 4.122338 -11.635645 0
M  V30 9 C 8.631734 5.642161 -10.922541 0
M  V30 10 O 8.086031 5.780333 -9.713554 0
M  V30 11 C 9.643007 6.430480 -11.356373 0
M  V30 12 C 10.415660 7.591288 -10.729414 0 CFG=1
M  V30 13 C 10.626238 7.672789 -9.218697 0
M  V30 14 C 10.853644 8.940266 -8.641227 0
M  V30 15 C 11.044255 9.076263 -7.252087 0
M  V30 16 C 11.015026 7.939786 -6.424440 0
M  V30 17 C 10.813346 6.670407 -6.993096 0
M  V30 18 C 10.622932 6.537755 -8.381679 0
M  V30 19 C 11.760122 7.593677 -11.503992 0
M  V30 20 C 11.396017 7.093768 -12.920663 0 CFG=2
M  V30 21 C 10.171023 6.203419 -12.740873 0 CFG=1
M  V30 22 H 11.882556 7.370777 -15.676582 0
M  V30 23 H 13.618088 7.071980 -15.529247 0
M  V30 24 H 12.895314 8.438729 -14.698566 0
M  V30 25 H 13.020340 4.895383 -15.050177 0
M  V30 26 H 12.916986 4.549869 -13.356573 0
M  V30 27 H 10.465352 5.048740 -15.149644 0
M  V30 28 H 11.039449 3.480674 -14.610855 0
M  V30 29 H 10.885938 4.215138 -12.246912 0
M  V30 30 H 8.555532 3.362908 -13.496703 0
M  V30 31 H 6.544829 4.513783 -10.837363 0
M  V30 32 H 7.619106 6.617632 -9.707015 0
M  V30 33 H 9.860856 8.484653 -11.024655 0
M  V30 34 H 10.883224 9.815251 -9.273045 0
M  V30 35 H 11.212341 10.052925 -6.822323 0
M  V30 36 H 11.160504 8.040590 -5.359072 0
M  V30 37 H 10.804563 5.793376 -6.364539 0
M  V30 38 H 10.483952 5.549842 -8.796454 0
M  V30 39 H 12.231174 8.572468 -11.493432 0
M  V30 40 H 12.483175 6.954034 -11.011990 0
M  V30 41 H 11.012702 7.974848 -13.432380 0
M  V30 42 H 9.390405 6.567632 -13.402600 0
M  V30 43 H 13.350105 6.627705 -13.273488 0
M  V30 END ATOM
M  V30 BEGIN BOND
M  V30 1 1 2 1
M  V30 2 1 3 2
M  V30 3 1 4 3
M  V30 4 1 5 4
M  V30 5 1 6 5
M  V30 6 2 7 6
M  V30 7 1 8 7
M  V30 8 1 9 7
M  V30 9 1 10 9
M  V30 10 2 11 9
M  V30 11 1 12 11
M  V30 12 1 13 12
M  V30 13 2 14 13
M  V30 14 1 15 14
M  V30 15 2 16 15
M  V30 16 1 17 16
M  V30 17 1 18 13
M  V30 18 2 18 17
M  V30 19 1 19 12
M  V30 20 1 20 2
M  V30 21 1 20 19
M  V30 22 1 21 5
M  V30 23 1 21 11
M  V30 24 1 21 20
M  V30 25 1 22 1
M  V30 26 1 23 1
M  V30 27 1 24 1
M  V30 28 1 25 3
M  V30 29 1 26 3
M  V30 30 1 27 4
M  V30 31 1 28 4
M  V30 32 1 5 29 CFG=1
M  V30 33 1 30 6
M  V30 34 1 31 8
M  V30 35 1 32 10
M  V30 36 1 12 33 CFG=3
M  V30 37 1 34 14
M  V30 38 1 35 15
M  V30 39 1 36 16
M  V30 40 1 37 17
M  V30 41 1 38 18
M  V30 42 1 39 19
M  V30 43 1 40 19
M  V30 44 1 20 41 CFG=3
M  V30 45 1 21 42 CFG=3
M  V30 46 1 2 43 CFG=1
M  V30 END BOND
M  V30 END CTAB
M  END
>  <b_m_subgroup_collapsed>  (1816) 
0

>  <r_i_docking_score>  (1816) 
-6.6226515874534702

>  <s_m_subgroup_title>  (1816) 
glide-dock_SP_D22_pv

>  <s_m_subgroupid>  (1816) 
glide-dock_SP_D22_pv

>  <Molecule ChEMBL ID>  (1816) 
CHEMBL5273758

>  <Standard Type>  (1816) 
Ki

>  <Standard Value>  (1816) 
12.88

>  <label>  (1816) 
1

$$$$
CHEMBL5416644
     RDKit          3D

  0  0  0  0  0  0  0  0  0  0999 V3000
M  V30 BEGIN CTAB
M  V30 COUNTS 73 76 0 0 1
M  V30 BEGIN ATOM
M  V30 1 C 5.686010 0.434016 -12.598141 0
M  V30 2 O 4.864860 -0.115650 -13.617564 0
M  V30 3 C 5.396031 -0.217306 -14.885518 0
M  V30 4 C 4.527789 -0.627614 -15.915635 0
M  V30 5 C 4.986818 -0.715550 -17.243309 0
M  V30 6 C 6.323493 -0.398315 -17.550453 0
M  V30 7 C 7.221817 0.001530 -16.538824 0
M  V30 8 C 8.639571 0.287613 -16.851997 0
M  V30 9 C 9.406431 -0.705325 -17.504017 0
M  V30 10 C 10.767271 -0.508178 -17.800648 0
M  V30 11 C 11.394205 0.692589 -17.430872 0
M  V30 12 C 10.648195 1.701914 -16.798193 0
M  V30 13 C 9.273878 1.518543 -16.531654 0
M  V30 14 C 8.487937 2.705445 -16.002491 0
M  V30 15 N 8.632698 2.955973 -14.569410 0
M  V30 16 C 9.139434 4.075946 -14.035520 0
M  V30 17 O 9.666615 4.973013 -14.687697 0
M  V30 18 N 8.997834 4.116892 -12.704312 0
M  V30 19 C 9.553013 5.140306 -11.826189 0
M  V30 20 C 8.580683 6.304961 -11.551668 0
M  V30 21 C 9.179886 7.502061 -10.763901 0
M  V30 22 N 9.286613 7.258790 -9.298016 0 CHG=1
M  V30 23 C 9.039764 8.464560 -8.456217 0
M  V30 24 C 8.981598 8.078547 -6.960810 0
M  V30 25 N 10.139871 7.267298 -6.583073 0
M  V30 26 C 10.956771 7.592734 -5.485562 0
M  V30 27 C 11.284851 6.602316 -4.534452 0
M  V30 28 C 12.032885 6.904108 -3.383736 0
M  V30 29 C 12.485562 8.214131 -3.183182 0
M  V30 30 C 12.216006 9.195045 -4.150940 0
M  V30 31 C 11.465341 8.897458 -5.320848 0
M  V30 32 O 11.234848 9.799934 -6.338333 0
M  V30 33 C 11.811234 11.071993 -6.188309 0
M  V30 34 C 10.506746 6.156030 -7.437523 0
M  V30 35 C 10.569088 6.620928 -8.895740 0
M  V30 36 C 6.744506 0.081973 -15.209022 0
M  V30 37 H 5.113431 0.555039 -11.678950 0
M  V30 38 H 6.524364 -0.227530 -12.373082 0
M  V30 39 H 6.063722 1.421048 -12.875600 0
M  V30 40 H 3.499164 -0.869650 -15.690583 0
M  V30 41 H 4.310994 -1.029568 -18.024933 0
M  V30 42 H 6.664458 -0.477557 -18.572264 0
M  V30 43 H 8.944031 -1.640605 -17.783182 0
M  V30 44 H 11.330966 -1.283610 -18.297035 0
M  V30 45 H 12.442788 0.846001 -17.641918 0
M  V30 46 H 11.126245 2.637411 -16.548748 0
M  V30 47 H 7.430450 2.572325 -16.229555 0
M  V30 48 H 8.816760 3.568055 -16.583988 0
M  V30 49 H 8.257721 2.255737 -13.952003 0
M  V30 50 H 8.529776 3.349883 -12.251831 0
M  V30 51 H 10.487093 5.521477 -12.239779 0
M  V30 52 H 9.787327 4.614912 -10.902760 0
M  V30 53 H 7.687167 5.937203 -11.046583 0
M  V30 54 H 8.235054 6.684127 -12.514463 0
M  V30 55 H 8.509047 8.347228 -10.928887 0
M  V30 56 H 10.141441 7.808001 -11.179406 0
M  V30 57 H 8.116533 8.971773 -8.738999 0
M  V30 58 H 9.842122 9.184981 -8.621414 0
M  V30 59 H 8.085931 7.487147 -6.767912 0
M  V30 60 H 8.895401 8.968079 -6.337629 0
M  V30 61 H 10.886342 5.612948 -4.647297 0
M  V30 62 H 12.230592 6.135104 -2.650256 0
M  V30 63 H 13.049706 8.466595 -2.297455 0
M  V30 64 H 12.620274 10.172318 -3.959854 0
M  V30 65 H 11.686139 11.718386 -7.046638 0
M  V30 66 H 11.322454 11.554076 -5.340647 0
M  V30 67 H 12.885914 10.972181 -6.035739 0
M  V30 68 H 11.468024 5.737375 -7.135529 0
M  V30 69 H 9.756307 5.372464 -7.330122 0
M  V30 70 H 10.819007 5.771583 -9.516644 0
M  V30 71 H 11.383745 7.338963 -9.020403 0
M  V30 72 H 7.447575 0.363695 -14.442818 0
M  V30 73 H 8.528626 6.630724 -9.068900 0
M  V30 END ATOM
M  V30 BEGIN BOND
M  V30 1 1 2 1
M  V30 2 1 3 2
M  V30 3 1 4 3
M  V30 4 2 5 4
M  V30 5 1 6 5
M  V30 6 2 7 6
M  V30 7 1 8 7
M  V30 8 2 9 8
M  V30 9 1 10 9
M  V30 10 2 11 10
M  V30 11 1 12 11
M  V30 12 1 13 8
M  V30 13 2 13 12
M  V30 14 1 14 13
M  V30 15 1 15 14
M  V30 16 1 16 15
M  V30 17 2 17 16
M  V30 18 1 18 16
M  V30 19 1 19 18
M  V30 20 1 20 19
M  V30 21 1 21 20
M  V30 22 1 22 21
M  V30 23 1 23 22
M  V30 24 1 24 23
M  V30 25 1 25 24
M  V30 26 1 26 25
M  V30 27 2 27 26
M  V30 28 1 28 27
M  V30 29 2 29 28
M  V30 30 1 30 29
M  V30 31 1 31 26
M  V30 32 2 31 30
M  V30 33 1 32 31
M  V30 34 1 33 32
M  V30 35 1 34 25
M  V30 36 1 35 22
M  V30 37 1 35 34
M  V30 38 2 36 3
M  V30 39 1 36 7
M  V30 40 1 37 1
M  V30 41 1 38 1
M  V30 42 1 39 1
M  V30 43 1 40 4
M  V30 44 1 41 5
M  V30 45 1 42 6
M  V30 46 1 43 9
M  V30 47 1 44 10
M  V30 48 1 45 11
M  V30 49 1 46 12
M  V30 50 1 47 14
M  V30 51 1 48 14
M  V30 52 1 49 15
M  V30 53 1 50 18
M  V30 54 1 51 19
M  V30 55 1 52 19
M  V30 56 1 53 20
M  V30 57 1 54 20
M  V30 58 1 55 21
M  V30 59 1 56 21
M  V30 60 1 57 23
M  V30 61 1 58 23
M  V30 62 1 59 24
M  V30 63 1 60 24
M  V30 64 1 61 27
M  V30 65 1 62 28
M  V30 66 1 63 29
M  V30 67 1 64 30
M  V30 68 1 65 33
M  V30 69 1 66 33
M  V30 70 1 67 33
M  V30 71 1 68 34
M  V30 72 1 69 34
M  V30 73 1 70 35
M  V30 74 1 71 35
M  V30 75 1 72 36
M  V30 76 1 73 22
M  V30 END BOND
M  V30 END CTAB
M  END
>  <b_m_subgroup_collapsed>  (1817) 
0

>  <r_i_docking_score>  (1817) 
-6.62125924408255

>  <s_m_subgroup_title>  (1817) 
glide-dock_SP_D22_pv

>  <s_m_subgroupid>  (1817) 
glide-dock_SP_D22_pv

>  <Molecule ChEMBL ID>  (1817) 
CHEMBL5416644

>  <Standard Type>  (1817) 
Ki

>  <Standard Value>  (1817) 
88.0

>  <label>  (1817) 
1

$$$$
CHEMBL3085816
     RDKit          3D

  0  0  0  0  0  0  0  0  0  0999 V3000
M  V30 BEGIN CTAB
M  V30 COUNTS 56 58 0 0 1
M  V30 BEGIN ATOM
M  V30 1 C 11.716473 6.360150 -3.060441 0
M  V30 2 N 12.004642 7.792418 -3.161115 0
M  V30 3 C 12.488589 8.441064 -1.939098 0
M  V30 4 C 11.687948 8.551656 -4.234229 0
M  V30 5 O 11.778280 9.773643 -4.220039 0
M  V30 6 N 11.285485 7.877938 -5.325800 0
M  V30 7 C 10.908429 8.502934 -6.593619 0 CFG=1
M  V30 8 C 11.928522 8.142580 -7.691328 0
M  V30 9 C 11.514038 8.685319 -9.066875 0
M  V30 10 C 10.091198 8.267018 -9.471561 0 CFG=1
M  V30 11 C 10.017655 6.778703 -9.897665 0
M  V30 12 C 8.725304 6.438029 -10.669387 0
M  V30 13 N 8.849340 5.311878 -11.628957 0 CFG=2 CHG=1
M  V30 14 C 9.674970 5.643019 -12.816120 0
M  V30 15 C 10.020440 4.373850 -13.597038 0
M  V30 16 C 8.786613 3.543353 -13.886895 0
M  V30 17 C 8.854563 2.509186 -14.842204 0
M  V30 18 C 7.735388 1.691788 -15.079294 0
M  V30 19 C 6.539480 1.919071 -14.372592 0
M  V30 20 C 6.455989 2.973448 -13.443255 0
M  V30 21 C 7.585785 3.772487 -13.169237 0
M  V30 22 C 7.511955 4.822718 -12.063090 0
M  V30 23 C 9.101906 8.668899 -8.355799 0
M  V30 24 C 9.485331 8.077946 -6.991802 0
M  V30 25 H 10.657312 6.172194 -3.249917 0
M  V30 26 H 12.296282 5.789494 -3.785910 0
M  V30 27 H 11.940206 5.953766 -2.071787 0
M  V30 28 H 13.286082 9.148063 -2.163561 0
M  V30 29 H 11.686049 8.996936 -1.456687 0
M  V30 30 H 12.885623 7.735187 -1.212509 0
M  V30 31 H 11.227663 6.872357 -5.264630 0
M  V30 32 H 10.901367 9.591362 -6.501184 0
M  V30 33 H 12.057347 7.062122 -7.741753 0
M  V30 34 H 12.898374 8.570969 -7.447052 0
M  V30 35 H 12.238050 8.385495 -9.823403 0
M  V30 36 H 11.556882 9.772354 -9.041957 0
M  V30 37 H 9.842442 8.859025 -10.353408 0
M  V30 38 H 10.122519 6.116199 -9.038725 0
M  V30 39 H 10.889503 6.578915 -10.513231 0
M  V30 40 H 8.381429 7.309890 -11.228254 0
M  V30 41 H 7.954714 6.173122 -9.941734 0
M  V30 42 H 10.595332 6.168077 -12.567152 0
M  V30 43 H 9.092430 6.308140 -13.446738 0
M  V30 44 H 10.729514 3.765049 -13.035980 0
M  V30 45 H 10.509745 4.639860 -14.536295 0
M  V30 46 H 9.775270 2.324401 -15.378953 0
M  V30 47 H 7.794138 0.885450 -15.794342 0
M  V30 48 H 5.686245 1.281908 -14.546952 0
M  V30 49 H 5.534817 3.130041 -12.899531 0
M  V30 50 H 6.908681 5.657022 -12.422991 0
M  V30 51 H 6.989541 4.397973 -11.206657 0
M  V30 52 H 9.066740 9.760507 -8.277695 0
M  V30 53 H 8.090782 8.367454 -8.608140 0
M  V30 54 H 9.400653 6.991640 -7.016755 0
M  V30 55 H 8.766647 8.417850 -6.246936 0
M  V30 56 H 9.298481 4.547460 -11.145094 0
M  V30 END ATOM
M  V30 BEGIN BOND
M  V30 1 1 2 1
M  V30 2 1 3 2
M  V30 3 1 4 2
M  V30 4 2 5 4
M  V30 5 1 6 4
M  V30 6 1 7 6
M  V30 7 1 8 7
M  V30 8 1 9 8
M  V30 9 1 10 9
M  V30 10 1 11 10
M  V30 11 1 12 11
M  V30 12 1 13 12
M  V30 13 1 14 13
M  V30 14 1 15 14
M  V30 15 1 16 15
M  V30 16 2 17 16
M  V30 17 1 18 17
M  V30 18 2 19 18
M  V30 19 1 20 19
M  V30 20 1 21 16
M  V30 21 2 21 20
M  V30 22 1 22 13
M  V30 23 1 22 21
M  V30 24 1 23 10
M  V30 25 1 24 7
M  V30 26 1 24 23
M  V30 27 1 25 1
M  V30 28 1 26 1
M  V30 29 1 27 1
M  V30 30 1 28 3
M  V30 31 1 29 3
M  V30 32 1 30 3
M  V30 33 1 31 6
M  V30 34 1 7 32 CFG=1
M  V30 35 1 33 8
M  V30 36 1 34 8
M  V30 37 1 35 9
M  V30 38 1 36 9
M  V30 39 1 10 37 CFG=3
M  V30 40 1 38 11
M  V30 41 1 39 11
M  V30 42 1 40 12
M  V30 43 1 41 12
M  V30 44 1 42 14
M  V30 45 1 43 14
M  V30 46 1 44 15
M  V30 47 1 45 15
M  V30 48 1 46 17
M  V30 49 1 47 18
M  V30 50 1 48 19
M  V30 51 1 49 20
M  V30 52 1 50 22
M  V30 53 1 51 22
M  V30 54 1 52 23
M  V30 55 1 53 23
M  V30 56 1 54 24
M  V30 57 1 55 24
M  V30 58 1 13 56 CFG=1
M  V30 END BOND
M  V30 END CTAB
M  END
>  <b_m_subgroup_collapsed>  (1818) 
0

>  <r_i_docking_score>  (1818) 
-6.6189038390515798

>  <s_m_subgroup_title>  (1818) 
glide-dock_SP_D22_pv

>  <s_m_subgroupid>  (1818) 
glide-dock_SP_D22_pv

>  <Molecule ChEMBL ID>  (1818) 
CHEMBL3085816

>  <Standard Type>  (1818) 
Ki

>  <Standard Value>  (1818) 
13489.63

>  <label>  (1818) 
0

$$$$
CHEMBL603752
     RDKit          3D

  0  0  0  0  0  0  0  0  0  0999 V3000
M  V30 BEGIN CTAB
M  V30 COUNTS 48 51 0 0 1
M  V30 BEGIN ATOM
M  V30 1 C 11.777421 9.568899 -6.299723 0
M  V30 2 C 10.962170 9.366528 -7.348043 0
M  V30 3 C 11.446945 9.159760 -8.773773 0
M  V30 4 C 10.768430 8.088661 -9.625061 0
M  V30 5 C 9.574976 7.466700 -9.207263 0
M  V30 6 C 8.965694 6.503846 -10.019933 0
M  V30 7 C 9.510171 6.185277 -11.276442 0
M  V30 8 C 10.692116 6.803281 -11.740980 0
M  V30 9 C 11.342110 7.723138 -10.869023 0
M  V30 10 O 12.577272 8.215376 -11.181478 0
M  V30 11 C 11.252088 6.352740 -13.048824 0
M  V30 12 C 12.085976 7.155494 -13.869310 0
M  V30 13 C 12.592982 6.745196 -15.116669 0
M  V30 14 O 13.307573 7.678759 -15.833844 0
M  V30 15 C 13.894601 7.281535 -17.062933 0
M  V30 16 C 12.327430 5.434931 -15.566137 0
M  V30 17 C 11.502497 4.586267 -14.813783 0
M  V30 18 C 10.941891 5.076736 -13.600929 0
M  V30 19 C 9.938469 4.229284 -12.784205 0 CFG=1
M  V30 20 C 8.860973 5.098107 -12.105659 0
M  V30 21 N 9.388053 3.053508 -13.502928 0 CFG=1 CHG=1
M  V30 22 C 8.236810 3.351936 -14.387503 0
M  V30 23 C 10.467761 2.314867 -14.182695 0
M  V30 24 C 11.098210 3.187009 -15.264570 0
M  V30 25 H 12.856021 9.579317 -6.413213 0
M  V30 26 H 11.375100 9.728561 -5.310007 0
M  V30 27 H 9.893326 9.378641 -7.186046 0
M  V30 28 H 11.286584 10.100695 -9.303102 0
M  V30 29 H 12.521354 8.972754 -8.741945 0
M  V30 30 H 9.103095 7.701332 -8.265625 0
M  V30 31 H 8.061262 6.023599 -9.678518 0
M  V30 32 H 12.891253 8.901977 -10.605670 0
M  V30 33 H 12.330326 8.162937 -13.569215 0
M  V30 34 H 14.449081 8.121574 -17.483986 0
M  V30 35 H 13.135985 6.987054 -17.789452 0
M  V30 36 H 14.598323 6.460552 -16.917175 0
M  V30 37 H 12.711475 5.074620 -16.509924 0
M  V30 38 H 10.487225 3.786125 -11.960842 0
M  V30 39 H 8.214644 4.484730 -11.477829 0
M  V30 40 H 8.224461 5.592072 -12.842065 0
M  V30 41 H 8.483057 4.185241 -15.046581 0
M  V30 42 H 7.351629 3.620247 -13.809325 0
M  V30 43 H 7.972717 2.487703 -14.997759 0
M  V30 44 H 11.226875 2.031546 -13.448753 0
M  V30 45 H 10.085891 1.383784 -14.600477 0
M  V30 46 H 10.417685 3.287468 -16.111904 0
M  V30 47 H 11.982100 2.679188 -15.653505 0
M  V30 48 H 9.046395 2.427918 -12.786895 0
M  V30 END ATOM
M  V30 BEGIN BOND
M  V30 1 2 2 1
M  V30 2 1 3 2
M  V30 3 1 4 3
M  V30 4 1 5 4
M  V30 5 2 6 5
M  V30 6 1 7 6
M  V30 7 2 8 7
M  V30 8 2 9 4
M  V30 9 1 9 8
M  V30 10 1 10 9
M  V30 11 1 11 8
M  V30 12 2 12 11
M  V30 13 1 13 12
M  V30 14 1 14 13
M  V30 15 1 15 14
M  V30 16 2 16 13
M  V30 17 1 17 16
M  V30 18 1 18 11
M  V30 19 2 18 17
M  V30 20 1 19 18
M  V30 21 1 20 7
M  V30 22 1 20 19
M  V30 23 1 21 19
M  V30 24 1 22 21
M  V30 25 1 23 21
M  V30 26 1 24 17
M  V30 27 1 24 23
M  V30 28 1 25 1
M  V30 29 1 26 1
M  V30 30 1 27 2
M  V30 31 1 28 3
M  V30 32 1 29 3
M  V30 33 1 30 5
M  V30 34 1 31 6
M  V30 35 1 32 10
M  V30 36 1 33 12
M  V30 37 1 34 15
M  V30 38 1 35 15
M  V30 39 1 36 15
M  V30 40 1 37 16
M  V30 41 1 19 38 CFG=1
M  V30 42 1 39 20
M  V30 43 1 40 20
M  V30 44 1 41 22
M  V30 45 1 42 22
M  V30 46 1 43 22
M  V30 47 1 44 23
M  V30 48 1 45 23
M  V30 49 1 46 24
M  V30 50 1 47 24
M  V30 51 1 21 48 CFG=1
M  V30 END BOND
M  V30 END CTAB
M  END
>  <b_m_subgroup_collapsed>  (1819) 
0

>  <r_i_docking_score>  (1819) 
-6.6179451759270203

>  <s_m_subgroup_title>  (1819) 
glide-dock_SP_D22_pv

>  <s_m_subgroupid>  (1819) 
glide-dock_SP_D22_pv

>  <Molecule ChEMBL ID>  (1819) 
CHEMBL603752

>  <Standard Type>  (1819) 
Ki

>  <Standard Value>  (1819) 
10000.0

>  <label>  (1819) 
0

$$$$
CHEMBL4864320
     RDKit          3D

  0  0  0  0  0  0  0  0  0  0999 V3000
M  V30 BEGIN CTAB
M  V30 COUNTS 84 87 0 0 1
M  V30 BEGIN ATOM
M  V30 1 C 15.174006 -0.127387 -19.734570 0
M  V30 2 C 13.984241 0.807875 -19.987764 0
M  V30 3 C 13.182410 1.126334 -18.711697 0
M  V30 4 N 11.979321 1.942288 -19.007654 0 CFG=2 CHG=1
M  V30 5 C 12.277574 3.333026 -19.440033 0
M  V30 6 C 11.086483 4.207292 -18.998674 0 CFG=2
M  V30 7 O 11.453866 5.325894 -18.186918 0
M  V30 8 C 11.955972 5.092563 -16.871838 0
M  V30 9 C 12.098413 6.454095 -16.186810 0
M  V30 10 C 12.515913 6.371535 -14.708508 0
M  V30 11 C 12.539515 7.770403 -14.067009 0
M  V30 12 O 12.906735 7.772501 -12.686367 0
M  V30 13 C 11.943244 7.736028 -11.701179 0
M  V30 14 C 10.614392 7.308111 -11.926647 0
M  V30 15 C 9.686198 7.294507 -10.872456 0
M  V30 16 C 10.082129 7.649421 -9.572736 0
M  V30 17 C 11.388427 8.130686 -9.345659 0
M  V30 18 C 12.313705 8.170348 -10.408354 0
M  V30 19 N 11.754704 8.575878 -8.048067 0
M  V30 20 C 10.866467 8.851231 -7.073400 0
M  V30 21 O 11.212357 9.279296 -5.974892 0
M  V30 22 C 9.373611 8.663413 -7.394267 0
M  V30 23 C 9.146634 7.513145 -8.384846 0
M  V30 24 C 10.114502 3.237883 -18.322859 0
M  V30 25 C 11.005625 2.063682 -17.901134 0 CFG=1
M  V30 26 C 10.219015 0.768580 -17.584599 0
M  V30 27 N 9.151257 0.996427 -16.613461 0
M  V30 28 C 9.293834 1.519299 -15.385303 0
M  V30 29 O 10.389856 1.799048 -14.898298 0
M  V30 30 C 8.015385 1.887928 -14.674672 0
M  V30 31 C 7.907722 3.145234 -14.020298 0
M  V30 32 O 8.937496 4.049444 -14.064770 0
M  V30 33 C 6.739617 3.469150 -13.290382 0
M  V30 34 C 6.648576 4.753159 -12.489490 0
M  V30 35 C 7.500518 4.665468 -11.222967 0
M  V30 36 C 5.685934 2.540855 -13.199474 0
M  V30 37 C 5.780482 1.298786 -13.846881 0
M  V30 38 Cl 4.486231 0.172147 -13.672778 0
M  V30 39 C 6.923847 0.980070 -14.615054 0
M  V30 40 O 7.000022 -0.227736 -15.262831 0
M  V30 41 C 6.160559 -0.354326 -16.405233 0
M  V30 42 H 15.703137 -0.343571 -20.664347 0
M  V30 43 H 15.892814 0.318680 -19.046118 0
M  V30 44 H 14.846338 -1.080277 -19.315712 0
M  V30 45 H 13.327061 0.341834 -20.724379 0
M  V30 46 H 14.353339 1.729308 -20.441151 0
M  V30 47 H 13.799299 1.652631 -17.984838 0
M  V30 48 H 12.884184 0.186874 -18.247993 0
M  V30 49 H 12.417385 3.366743 -20.521809 0
M  V30 50 H 13.204743 3.690157 -18.990519 0
M  V30 51 H 10.605442 4.626771 -19.883862 0
M  V30 52 H 11.266973 4.489407 -16.280807 0
M  V30 53 H 12.915520 4.576105 -16.898863 0
M  V30 54 H 12.812658 7.065999 -16.737957 0
M  V30 55 H 11.143872 6.972134 -16.252701 0
M  V30 56 H 11.830154 5.721527 -14.163264 0
M  V30 57 H 13.502547 5.912267 -14.646624 0
M  V30 58 H 13.285061 8.375690 -14.583533 0
M  V30 59 H 11.597657 8.278824 -14.246949 0
M  V30 60 H 10.287843 6.973896 -12.898724 0
M  V30 61 H 8.667888 7.010163 -11.066978 0
M  V30 62 H 13.313643 8.540567 -10.239413 0
M  V30 63 H 12.730076 8.770181 -7.872803 0
M  V30 64 H 8.799978 8.501073 -6.480959 0
M  V30 65 H 9.006711 9.585164 -7.846873 0
M  V30 66 H 8.101954 7.467159 -8.694271 0
M  V30 67 H 9.355536 6.560682 -7.897820 0
M  V30 68 H 9.384147 2.894123 -19.057138 0
M  V30 69 H 9.551351 3.687560 -17.504620 0
M  V30 70 H 11.583316 2.354017 -17.023788 0
M  V30 71 H 10.882137 -0.005133 -17.192648 0
M  V30 72 H 9.768211 0.367920 -18.492970 0
M  V30 73 H 8.211521 0.766788 -16.899752 0
M  V30 74 H 9.756641 3.634657 -14.301028 0
M  V30 75 H 6.967062 5.600764 -13.094725 0
M  V30 76 H 5.610029 4.944616 -12.217574 0
M  V30 77 H 7.291918 5.514853 -10.577959 0
M  V30 78 H 7.278693 3.772328 -10.646891 0
M  V30 79 H 8.564627 4.648389 -11.450927 0
M  V30 80 H 4.810349 2.768770 -12.609783 0
M  V30 81 H 6.543963 -1.153467 -17.041529 0
M  V30 82 H 5.136527 -0.621004 -16.143169 0
M  V30 83 H 6.137419 0.562772 -16.999508 0
M  V30 84 H 11.486919 1.496655 -19.768543 0
M  V30 END ATOM
M  V30 BEGIN BOND
M  V30 1 1 2 1
M  V30 2 1 3 2
M  V30 3 1 4 3
M  V30 4 1 5 4
M  V30 5 1 6 5
M  V30 6 1 7 6
M  V30 7 1 8 7
M  V30 8 1 9 8
M  V30 9 1 10 9
M  V30 10 1 11 10
M  V30 11 1 12 11
M  V30 12 1 13 12
M  V30 13 1 14 13
M  V30 14 2 15 14
M  V30 15 1 16 15
M  V30 16 2 17 16
M  V30 17 2 18 13
M  V30 18 1 18 17
M  V30 19 1 19 17
M  V30 20 1 20 19
M  V30 21 2 21 20
M  V30 22 1 22 20
M  V30 23 1 23 16
M  V30 24 1 23 22
M  V30 25 1 24 6
M  V30 26 1 25 4
M  V30 27 1 25 24
M  V30 28 1 26 25
M  V30 29 1 27 26
M  V30 30 1 28 27
M  V30 31 2 29 28
M  V30 32 1 30 28
M  V30 33 1 31 30
M  V30 34 1 32 31
M  V30 35 2 33 31
M  V30 36 1 34 33
M  V30 37 1 35 34
M  V30 38 1 36 33
M  V30 39 2 37 36
M  V30 40 1 38 37
M  V30 41 2 39 30
M  V30 42 1 39 37
M  V30 43 1 40 39
M  V30 44 1 41 40
M  V30 45 1 42 1
M  V30 46 1 43 1
M  V30 47 1 44 1
M  V30 48 1 45 2
M  V30 49 1 46 2
M  V30 50 1 47 3
M  V30 51 1 48 3
M  V30 52 1 49 5
M  V30 53 1 50 5
M  V30 54 1 6 51 CFG=3
M  V30 55 1 52 8
M  V30 56 1 53 8
M  V30 57 1 54 9
M  V30 58 1 55 9
M  V30 59 1 56 10
M  V30 60 1 57 10
M  V30 61 1 58 11
M  V30 62 1 59 11
M  V30 63 1 60 14
M  V30 64 1 61 15
M  V30 65 1 62 18
M  V30 66 1 63 19
M  V30 67 1 64 22
M  V30 68 1 65 22
M  V30 69 1 66 23
M  V30 70 1 67 23
M  V30 71 1 68 24
M  V30 72 1 69 24
M  V30 73 1 25 70 CFG=1
M  V30 74 1 71 26
M  V30 75 1 72 26
M  V30 76 1 73 27
M  V30 77 1 74 32
M  V30 78 1 75 34
M  V30 79 1 76 34
M  V30 80 1 77 35
M  V30 81 1 78 35
M  V30 82 1 79 35
M  V30 83 1 80 36
M  V30 84 1 81 41
M  V30 85 1 82 41
M  V30 86 1 83 41
M  V30 87 1 4 84 CFG=3
M  V30 END BOND
M  V30 END CTAB
M  END
>  <b_m_subgroup_collapsed>  (1820) 
0

>  <r_i_docking_score>  (1820) 
-6.6176622642261203

>  <s_m_subgroup_title>  (1820) 
glide-dock_SP_D22_pv

>  <s_m_subgroupid>  (1820) 
glide-dock_SP_D22_pv

>  <Molecule ChEMBL ID>  (1820) 
CHEMBL4864320

>  <Standard Type>  (1820) 
Ki

>  <Standard Value>  (1820) 
2.57

>  <label>  (1820) 
1

$$$$
CHEMBL550849
     RDKit          3D

  0  0  0  0  0  0  0  0  0  0999 V3000
M  V30 BEGIN CTAB
M  V30 COUNTS 47 49 0 0 1
M  V30 BEGIN ATOM
M  V30 1 O 5.466555 2.828373 -13.264088 0
M  V30 2 C 6.561361 2.968866 -13.811763 0
M  V30 3 N 7.449983 3.925637 -13.499406 0
M  V30 4 C 7.331480 4.796257 -12.319069 0
M  V30 5 C 8.437134 5.877240 -12.204071 0
M  V30 6 N 8.488155 6.567533 -10.885149 0 CFG=2 CHG=1
M  V30 7 C 9.330443 7.793413 -10.946625 0
M  V30 8 C 9.454307 8.500802 -9.584461 0
M  V30 9 C 9.989984 7.547375 -8.499164 0 CFG=1
M  V30 10 C 10.129001 8.216599 -7.116691 0
M  V30 11 F 8.935148 8.572601 -6.650360 0
M  V30 12 F 10.688361 7.367478 -6.254780 0
M  V30 13 F 10.907184 9.294985 -7.198110 0
M  V30 14 C 9.077165 6.313244 -8.438952 0
M  V30 15 C 8.948408 5.638690 -9.808077 0
M  V30 16 C 8.674020 3.812077 -14.276921 0
M  V30 17 C 8.389648 2.638362 -15.202957 0
M  V30 18 N 7.084360 2.168755 -14.764172 0
M  V30 19 C 6.486955 0.972559 -15.278152 0
M  V30 20 C 5.875664 0.046872 -14.400402 0
M  V30 21 C 5.261555 -1.114217 -14.906336 0
M  V30 22 C 5.246932 -1.364493 -16.289000 0
M  V30 23 C 5.860477 -0.455508 -17.171152 0
M  V30 24 Cl 5.829974 -0.760077 -18.869629 0
M  V30 25 C 6.485411 0.705673 -16.671106 0
M  V30 26 F 7.030870 1.584466 -17.547752 0
M  V30 27 H 6.353606 5.283473 -12.327122 0
M  V30 28 H 7.323921 4.134047 -11.456569 0
M  V30 29 H 9.426526 5.456111 -12.384386 0
M  V30 30 H 8.271410 6.612802 -12.992669 0
M  V30 31 H 10.326124 7.530413 -11.311019 0
M  V30 32 H 8.902240 8.485579 -11.673163 0
M  V30 33 H 10.113254 9.362819 -9.681060 0
M  V30 34 H 8.485964 8.899842 -9.284657 0
M  V30 35 H 10.987162 7.220412 -8.803038 0
M  V30 36 H 9.471407 5.597239 -7.718179 0
M  V30 37 H 8.088540 6.590926 -8.073753 0
M  V30 38 H 8.261071 4.801962 -9.689290 0
M  V30 39 H 9.914215 5.211663 -10.086065 0
M  V30 40 H 8.878562 4.728714 -14.831703 0
M  V30 41 H 9.524493 3.586914 -13.632465 0
M  V30 42 H 9.141174 1.854229 -15.100374 0
M  V30 43 H 8.380660 2.974025 -16.238073 0
M  V30 44 H 5.873489 0.218371 -13.334878 0
M  V30 45 H 4.800632 -1.824627 -14.239845 0
M  V30 46 H 4.768144 -2.256561 -16.669312 0
M  V30 47 H 7.542553 6.909513 -10.646235 0
M  V30 END ATOM
M  V30 BEGIN BOND
M  V30 1 2 2 1
M  V30 2 1 3 2
M  V30 3 1 4 3
M  V30 4 1 5 4
M  V30 5 1 6 5
M  V30 6 1 7 6
M  V30 7 1 8 7
M  V30 8 1 9 8
M  V30 9 1 10 9
M  V30 10 1 11 10
M  V30 11 1 12 10
M  V30 12 1 13 10
M  V30 13 1 14 9
M  V30 14 1 15 6
M  V30 15 1 15 14
M  V30 16 1 16 3
M  V30 17 1 17 16
M  V30 18 1 18 2
M  V30 19 1 18 17
M  V30 20 1 19 18
M  V30 21 2 20 19
M  V30 22 1 21 20
M  V30 23 2 22 21
M  V30 24 1 23 22
M  V30 25 1 24 23
M  V30 26 1 25 19
M  V30 27 2 25 23
M  V30 28 1 26 25
M  V30 29 1 27 4
M  V30 30 1 28 4
M  V30 31 1 29 5
M  V30 32 1 30 5
M  V30 33 1 31 7
M  V30 34 1 32 7
M  V30 35 1 33 8
M  V30 36 1 34 8
M  V30 37 1 9 35 CFG=3
M  V30 38 1 36 14
M  V30 39 1 37 14
M  V30 40 1 38 15
M  V30 41 1 39 15
M  V30 42 1 40 16
M  V30 43 1 41 16
M  V30 44 1 42 17
M  V30 45 1 43 17
M  V30 46 1 44 20
M  V30 47 1 45 21
M  V30 48 1 46 22
M  V30 49 1 6 47 CFG=1
M  V30 END BOND
M  V30 END CTAB
M  END
>  <b_m_subgroup_collapsed>  (1821) 
0

>  <r_i_docking_score>  (1821) 
-6.6169898543350101

>  <s_m_subgroup_title>  (1821) 
glide-dock_SP_D22_pv

>  <s_m_subgroupid>  (1821) 
glide-dock_SP_D22_pv

>  <Molecule ChEMBL ID>  (1821) 
CHEMBL550849

>  <Standard Type>  (1821) 
Ki

>  <Standard Value>  (1821) 
10000.0

>  <label>  (1821) 
0

$$$$
CHEMBL3765266
     RDKit          3D

  0  0  0  0  0  0  0  0  0  0999 V3000
M  V30 BEGIN CTAB
M  V30 COUNTS 65 69 0 0 1
M  V30 BEGIN ATOM
M  V30 1 C 12.632598 8.377644 -1.448077 0
M  V30 2 C 12.142582 8.711461 -2.805946 0
M  V30 3 N 12.084387 7.898974 -3.854573 0
M  V30 4 C 11.550679 8.744025 -4.775327 0
M  V30 5 C 11.239478 8.304314 -6.141925 0
M  V30 6 C 10.885714 6.964894 -6.400297 0
M  V30 7 C 10.578342 6.543527 -7.706314 0
M  V30 8 C 10.620483 7.458265 -8.778385 0
M  V30 9 C 10.323992 7.030496 -10.140369 0
M  V30 10 N 11.102006 7.379096 -11.170067 0
M  V30 11 N 10.546784 6.796878 -12.282096 0
M  V30 12 C 9.475015 6.139704 -11.842077 0
M  V30 13 S 8.407812 5.204705 -12.887952 0
M  V30 14 C 9.550037 3.842655 -13.243145 0
M  V30 15 C 9.094796 3.020204 -14.456354 0
M  V30 16 C 10.091934 1.902055 -14.795041 0
M  V30 17 N 10.021595 1.427327 -16.174246 0
M  V30 18 C 11.208431 0.661387 -16.524952 0
M  V30 19 C 11.191236 0.241701 -17.996822 0
M  V30 20 O 10.016350 -0.521406 -18.248520 0
M  V30 21 C 8.804828 0.177074 -17.948359 0 CFG=1
M  V30 22 C 7.576425 -0.652514 -18.301260 0
M  V30 23 C 6.295356 -0.058024 -18.292337 0
M  V30 24 C 5.153307 -0.818561 -18.617117 0
M  V30 25 C 5.276505 -2.187732 -18.937914 0
M  V30 26 C 4.047725 -3.016834 -19.281059 0
M  V30 27 F 2.971536 -2.551417 -18.649511 0
M  V30 28 F 3.838997 -2.960864 -20.596508 0
M  V30 29 F 4.224907 -4.293035 -18.938433 0
M  V30 30 C 6.556226 -2.779662 -18.956358 0
M  V30 31 C 7.698678 -2.018044 -18.646713 0
M  V30 32 C 8.831627 0.627012 -16.466852 0
M  V30 33 N 9.286427 6.250202 -10.515306 0
M  V30 34 C 8.211207 5.682076 -9.726693 0
M  V30 35 C 10.982042 8.796738 -8.526970 0
M  V30 36 C 11.283622 9.213514 -7.218890 0
M  V30 37 N 11.280849 9.978791 -4.382684 0
M  V30 38 O 11.689358 9.965222 -3.046355 0
M  V30 39 H 12.876102 7.318583 -1.411334 0
M  V30 40 H 13.516266 8.969397 -1.211140 0
M  V30 41 H 11.855091 8.587257 -0.716263 0
M  V30 42 H 10.853889 6.247573 -5.591630 0
M  V30 43 H 10.330692 5.506339 -7.879529 0
M  V30 44 H 10.535757 4.263826 -13.445897 0
M  V30 45 H 9.644528 3.218263 -12.353068 0
M  V30 46 H 8.101580 2.603556 -14.287542 0
M  V30 47 H 9.007437 3.693801 -15.310569 0
M  V30 48 H 11.092952 2.298449 -14.619555 0
M  V30 49 H 9.978598 1.069726 -14.100687 0
M  V30 50 H 12.100357 1.253596 -16.333735 0
M  V30 51 H 11.274386 -0.227336 -15.896224 0
M  V30 52 H 11.209491 1.114913 -18.648703 0
M  V30 53 H 12.069286 -0.358559 -18.232368 0
M  V30 54 H 8.771595 1.063998 -18.579922 0
M  V30 55 H 6.183349 0.986498 -18.041206 0
M  V30 56 H 4.181151 -0.349586 -18.614342 0
M  V30 57 H 6.664803 -3.826494 -19.197285 0
M  V30 58 H 8.664745 -2.499426 -18.650902 0
M  V30 59 H 8.805961 -0.246070 -15.814211 0
M  V30 60 H 7.935364 1.205669 -16.243658 0
M  V30 61 H 7.282105 5.772256 -10.284219 0
M  V30 62 H 8.407654 4.629024 -9.526449 0
M  V30 63 H 8.089596 6.217166 -8.787185 0
M  V30 64 H 11.032704 9.508199 -9.337782 0
M  V30 65 H 11.559546 10.242572 -7.045138 0
M  V30 END ATOM
M  V30 BEGIN BOND
M  V30 1 1 2 1
M  V30 2 2 3 2
M  V30 3 1 4 3
M  V30 4 1 5 4
M  V30 5 1 6 5
M  V30 6 2 7 6
M  V30 7 1 8 7
M  V30 8 1 9 8
M  V30 9 2 10 9
M  V30 10 1 11 10
M  V30 11 2 12 11
M  V30 12 1 13 12
M  V30 13 1 14 13
M  V30 14 1 15 14
M  V30 15 1 16 15
M  V30 16 1 17 16
M  V30 17 1 18 17
M  V30 18 1 19 18
M  V30 19 1 20 19
M  V30 20 1 21 20
M  V30 21 1 22 21
M  V30 22 1 23 22
M  V30 23 2 24 23
M  V30 24 1 25 24
M  V30 25 1 26 25
M  V30 26 1 27 26
M  V30 27 1 28 26
M  V30 28 1 29 26
M  V30 29 2 30 25
M  V30 30 2 31 22
M  V30 31 1 31 30
M  V30 32 1 32 17
M  V30 33 1 32 21
M  V30 34 1 33 9
M  V30 35 1 33 12
M  V30 36 1 34 33
M  V30 37 2 35 8
M  V30 38 2 36 5
M  V30 39 1 36 35
M  V30 40 2 37 4
M  V30 41 1 38 2
M  V30 42 1 38 37
M  V30 43 1 39 1
M  V30 44 1 40 1
M  V30 45 1 41 1
M  V30 46 1 42 6
M  V30 47 1 43 7
M  V30 48 1 44 14
M  V30 49 1 45 14
M  V30 50 1 46 15
M  V30 51 1 47 15
M  V30 52 1 48 16
M  V30 53 1 49 16
M  V30 54 1 50 18
M  V30 55 1 51 18
M  V30 56 1 52 19
M  V30 57 1 53 19
M  V30 58 1 21 54 CFG=3
M  V30 59 1 55 23
M  V30 60 1 56 24
M  V30 61 1 57 30
M  V30 62 1 58 31
M  V30 63 1 59 32
M  V30 64 1 60 32
M  V30 65 1 61 34
M  V30 66 1 62 34
M  V30 67 1 63 34
M  V30 68 1 64 35
M  V30 69 1 65 36
M  V30 END BOND
M  V30 END CTAB
M  END
>  <b_m_subgroup_collapsed>  (1822) 
0

>  <r_i_docking_score>  (1822) 
-6.6158702622453696

>  <s_m_subgroup_title>  (1822) 
glide-dock_SP_D22_pv

>  <s_m_subgroupid>  (1822) 
glide-dock_SP_D22_pv

>  <Molecule ChEMBL ID>  (1822) 
CHEMBL3765266

>  <Standard Type>  (1822) 
Ki

>  <Standard Value>  (1822) 
10000.0

>  <label>  (1822) 
0

$$$$
CHEMBL5827336
     RDKit          3D

  0  0  0  0  0  0  0  0  0  0999 V3000
M  V30 BEGIN CTAB
M  V30 COUNTS 57 61 0 0 1
M  V30 BEGIN ATOM
M  V30 1 C 10.884795 10.198698 -4.453135 0
M  V30 2 C 11.398025 8.784807 -4.758329 0
M  V30 3 C 11.153188 8.382463 -6.197446 0
M  V30 4 C 10.326533 7.290847 -6.537762 0
M  V30 5 C 10.202177 6.942664 -7.900295 0
M  V30 6 C 10.885956 7.707568 -8.864175 0
M  V30 7 C 11.686502 8.772408 -8.413178 0
M  V30 8 N 11.826967 9.103462 -7.114671 0
M  V30 9 C 10.824547 7.371747 -10.325142 0
M  V30 10 O 11.608396 7.922763 -11.095090 0
M  V30 11 N 9.929660 6.425904 -10.717917 0
M  V30 12 C 9.819811 6.056548 -12.145905 0
M  V30 13 C 9.521867 4.566119 -12.425340 0
M  V30 14 N 9.763602 4.246127 -13.834559 0
M  V30 15 C 11.138189 3.760745 -14.028239 0
M  V30 16 C 11.431828 3.464528 -15.520609 0
M  V30 17 N 10.434789 2.554621 -16.076977 0
M  V30 18 C 10.737054 1.396817 -16.835072 0
M  V30 19 N 9.957835 0.337694 -16.726498 0
M  V30 20 S 10.485428 -0.886181 -17.740841 0
M  V30 21 C 11.857584 -0.001190 -18.365801 0
M  V30 22 C 12.834901 -0.410356 -19.293303 0
M  V30 23 C 13.822259 0.501307 -19.703966 0
M  V30 24 C 13.820235 1.808297 -19.183971 0
M  V30 25 C 12.848785 2.199544 -18.238420 0
M  V30 26 C 11.843314 1.305406 -17.784519 0
M  V30 27 C 9.063703 2.960183 -15.800390 0
M  V30 28 C 8.854413 3.190743 -14.291398 0
M  V30 29 C 8.917623 5.880645 -9.794231 0
M  V30 30 C 9.392210 5.744649 -8.339370 0
M  V30 31 H 11.063540 10.466881 -3.413255 0
M  V30 32 H 11.376795 10.943861 -5.077987 0
M  V30 33 H 9.819668 10.284102 -4.648726 0
M  V30 34 H 10.926835 8.062200 -4.095914 0
M  V30 35 H 12.468695 8.732343 -4.559498 0
M  V30 36 H 9.815072 6.717540 -5.777028 0
M  V30 37 H 12.253190 9.371981 -9.107582 0
M  V30 38 H 9.029014 6.664237 -12.582554 0
M  V30 39 H 10.728002 6.326329 -12.683779 0
M  V30 40 H 10.088009 3.903348 -11.772407 0
M  V30 41 H 8.470786 4.388415 -12.198318 0
M  V30 42 H 11.854968 4.494545 -13.652754 0
M  V30 43 H 11.285570 2.848485 -13.447098 0
M  V30 44 H 11.430471 4.390904 -16.097958 0
M  V30 45 H 12.426915 3.028206 -15.604772 0
M  V30 46 H 12.819500 -1.414595 -19.694159 0
M  V30 47 H 14.574764 0.207564 -20.422771 0
M  V30 48 H 14.569060 2.517780 -19.508575 0
M  V30 49 H 12.875060 3.208737 -17.859432 0
M  V30 50 H 8.886209 3.887571 -16.344374 0
M  V30 51 H 8.343558 2.228382 -16.169649 0
M  V30 52 H 9.019277 2.269557 -13.728634 0
M  V30 53 H 7.821967 3.496174 -14.121551 0
M  V30 54 H 8.085954 6.572462 -9.813949 0
M  V30 55 H 8.514415 4.920506 -10.111377 0
M  V30 56 H 10.026207 4.863770 -8.247039 0
M  V30 57 H 8.537059 5.601934 -7.676775 0
M  V30 END ATOM
M  V30 BEGIN BOND
M  V30 1 1 2 1
M  V30 2 1 3 2
M  V30 3 2 4 3
M  V30 4 1 5 4
M  V30 5 2 6 5
M  V30 6 1 7 6
M  V30 7 1 8 3
M  V30 8 2 8 7
M  V30 9 1 9 6
M  V30 10 2 10 9
M  V30 11 1 11 9
M  V30 12 1 12 11
M  V30 13 1 13 12
M  V30 14 1 14 13
M  V30 15 1 15 14
M  V30 16 1 16 15
M  V30 17 1 17 16
M  V30 18 1 18 17
M  V30 19 2 19 18
M  V30 20 1 20 19
M  V30 21 1 21 20
M  V30 22 2 22 21
M  V30 23 1 23 22
M  V30 24 2 24 23
M  V30 25 1 25 24
M  V30 26 1 26 18
M  V30 27 1 26 21
M  V30 28 2 26 25
M  V30 29 1 27 17
M  V30 30 1 28 14
M  V30 31 1 28 27
M  V30 32 1 29 11
M  V30 33 1 30 5
M  V30 34 1 30 29
M  V30 35 1 31 1
M  V30 36 1 32 1
M  V30 37 1 33 1
M  V30 38 1 34 2
M  V30 39 1 35 2
M  V30 40 1 36 4
M  V30 41 1 37 7
M  V30 42 1 38 12
M  V30 43 1 39 12
M  V30 44 1 40 13
M  V30 45 1 41 13
M  V30 46 1 42 15
M  V30 47 1 43 15
M  V30 48 1 44 16
M  V30 49 1 45 16
M  V30 50 1 46 22
M  V30 51 1 47 23
M  V30 52 1 48 24
M  V30 53 1 49 25
M  V30 54 1 50 27
M  V30 55 1 51 27
M  V30 56 1 52 28
M  V30 57 1 53 28
M  V30 58 1 54 29
M  V30 59 1 55 29
M  V30 60 1 56 30
M  V30 61 1 57 30
M  V30 END BOND
M  V30 END CTAB
M  END
>  <b_m_subgroup_collapsed>  (1823) 
0

>  <r_i_docking_score>  (1823) 
-6.6156037603043396

>  <s_m_subgroup_title>  (1823) 
glide-dock_SP_D22_pv

>  <s_m_subgroupid>  (1823) 
glide-dock_SP_D22_pv

>  <Molecule ChEMBL ID>  (1823) 
CHEMBL5827336

>  <Standard Type>  (1823) 
Ki

>  <Standard Value>  (1823) 
93.0

>  <label>  (1823) 
1

$$$$
CHEMBL127114
     RDKit          3D

  0  0  0  0  0  0  0  0  0  0999 V3000
M  V30 BEGIN CTAB
M  V30 COUNTS 64 67 0 0 1
M  V30 BEGIN ATOM
M  V30 1 C 11.786400 11.064044 -6.141278 0
M  V30 2 O 11.189578 9.797184 -6.268710 0
M  V30 3 C 11.439866 8.885512 -5.265644 0
M  V30 4 C 12.192657 9.178801 -4.094251 0
M  V30 5 C 12.484429 8.179231 -3.151396 0
M  V30 6 C 12.041586 6.866887 -3.367240 0
M  V30 7 C 11.282698 6.573113 -4.517706 0
M  V30 8 C 10.942954 7.576402 -5.448675 0
M  V30 9 N 10.119795 7.263667 -6.543958 0
M  V30 10 C 10.475000 6.162807 -7.419191 0
M  V30 11 C 10.533767 6.639042 -8.872916 0
M  V30 12 N 9.286429 7.350933 -9.261398 0 CHG=1
M  V30 13 C 9.224427 7.687384 -10.707951 0
M  V30 14 C 8.515894 6.599120 -11.542875 0
M  V30 15 C 9.414393 5.464945 -12.060188 0
M  V30 16 C 8.636231 4.445531 -12.902205 0
M  V30 17 N 9.517786 3.375458 -13.349822 0
M  V30 18 C 9.980422 3.227127 -14.597019 0
M  V30 19 O 9.685586 3.984653 -15.520706 0
M  V30 20 C 10.892894 2.058049 -14.755035 0 CFG=2
M  V30 21 C 11.280925 1.657337 -16.165602 0
M  V30 22 C 10.367002 0.765846 -15.355909 0 CFG=2
M  V30 23 C 8.918553 0.569906 -15.705376 0
M  V30 24 C 7.956453 0.441854 -14.677966 0
M  V30 25 C 6.599219 0.237435 -14.990546 0
M  V30 26 C 6.190897 0.160249 -16.334644 0
M  V30 27 C 7.142128 0.285124 -17.364773 0
M  V30 28 C 8.499719 0.486659 -17.049660 0
M  V30 29 C 9.025150 8.514300 -8.368337 0
M  V30 30 C 8.954831 8.070832 -6.895951 0
M  V30 31 H 11.685564 11.656648 -7.046835 0
M  V30 32 H 11.286190 11.585874 -5.322853 0
M  V30 33 H 12.855048 10.971387 -5.956822 0
M  V30 34 H 12.577600 10.161730 -3.896990 0
M  V30 35 H 13.057571 8.421596 -2.268441 0
M  V30 36 H 12.260310 6.088787 -2.648159 0
M  V30 37 H 10.888701 5.583796 -4.646874 0
M  V30 38 H 9.727152 5.377021 -7.319343 0
M  V30 39 H 11.436674 5.734628 -7.132385 0
M  V30 40 H 10.703724 5.776467 -9.505405 0
M  V30 41 H 11.384719 7.308960 -9.013808 0
M  V30 42 H 10.213240 7.925159 -11.105436 0
M  V30 43 H 8.633908 8.598756 -10.824191 0
M  V30 44 H 8.067045 7.086045 -12.410104 0
M  V30 45 H 7.680239 6.171952 -10.985889 0
M  V30 46 H 9.867156 4.925617 -11.229629 0
M  V30 47 H 10.233905 5.884021 -12.648495 0
M  V30 48 H 8.152012 4.944017 -13.745546 0
M  V30 49 H 7.839347 4.003613 -12.306120 0
M  V30 50 H 9.778492 2.678052 -12.663244 0
M  V30 51 H 11.662665 1.962075 -13.990499 0
M  V30 52 H 12.317356 1.354527 -16.306744 0
M  V30 53 H 10.848874 2.201390 -17.002895 0
M  V30 54 H 10.777509 -0.161721 -14.965457 0
M  V30 55 H 8.266742 0.493627 -13.644223 0
M  V30 56 H 5.872648 0.136340 -14.197875 0
M  V30 57 H 5.150212 -0.000255 -16.576128 0
M  V30 58 H 6.830131 0.219944 -18.397778 0
M  V30 59 H 9.222215 0.570758 -17.848888 0
M  V30 60 H 9.817472 9.252391 -8.498292 0
M  V30 61 H 8.086819 9.007349 -8.630051 0
M  V30 62 H 8.064776 7.464631 -6.726839 0
M  V30 63 H 8.855334 8.939582 -6.246909 0
M  V30 64 H 8.504605 6.731627 -9.094060 0
M  V30 END ATOM
M  V30 BEGIN BOND
M  V30 1 1 2 1
M  V30 2 1 3 2
M  V30 3 2 4 3
M  V30 4 1 5 4
M  V30 5 2 6 5
M  V30 6 1 7 6
M  V30 7 1 8 3
M  V30 8 2 8 7
M  V30 9 1 9 8
M  V30 10 1 10 9
M  V30 11 1 11 10
M  V30 12 1 12 11
M  V30 13 1 13 12
M  V30 14 1 14 13
M  V30 15 1 15 14
M  V30 16 1 16 15
M  V30 17 1 17 16
M  V30 18 1 18 17
M  V30 19 2 19 18
M  V30 20 1 20 18
M  V30 21 1 21 20
M  V30 22 1 22 20
M  V30 23 1 22 21
M  V30 24 1 23 22
M  V30 25 2 24 23
M  V30 26 1 25 24
M  V30 27 2 26 25
M  V30 28 1 27 26
M  V30 29 1 28 23
M  V30 30 2 28 27
M  V30 31 1 29 12
M  V30 32 1 30 9
M  V30 33 1 30 29
M  V30 34 1 31 1
M  V30 35 1 32 1
M  V30 36 1 33 1
M  V30 37 1 34 4
M  V30 38 1 35 5
M  V30 39 1 36 6
M  V30 40 1 37 7
M  V30 41 1 38 10
M  V30 42 1 39 10
M  V30 43 1 40 11
M  V30 44 1 41 11
M  V30 45 1 42 13
M  V30 46 1 43 13
M  V30 47 1 44 14
M  V30 48 1 45 14
M  V30 49 1 46 15
M  V30 50 1 47 15
M  V30 51 1 48 16
M  V30 52 1 49 16
M  V30 53 1 50 17
M  V30 54 1 20 51 CFG=1
M  V30 55 1 52 21
M  V30 56 1 53 21
M  V30 57 1 22 54 CFG=1
M  V30 58 1 55 24
M  V30 59 1 56 25
M  V30 60 1 57 26
M  V30 61 1 58 27
M  V30 62 1 59 28
M  V30 63 1 60 29
M  V30 64 1 61 29
M  V30 65 1 62 30
M  V30 66 1 63 30
M  V30 67 1 64 12
M  V30 END BOND
M  V30 END CTAB
M  END
>  <b_m_subgroup_collapsed>  (1824) 
0

>  <r_i_docking_score>  (1824) 
-6.6154567997345897

>  <s_m_subgroup_title>  (1824) 
glide-dock_SP_D22_pv

>  <s_m_subgroupid>  (1824) 
glide-dock_SP_D22_pv

>  <Molecule ChEMBL ID>  (1824) 
CHEMBL127114

>  <Standard Type>  (1824) 
Ki

>  <Standard Value>  (1824) 
81.0

>  <label>  (1824) 
1

$$$$
CHEMBL595608
     RDKit          3D

  0  0  0  0  0  0  0  0  0  0999 V3000
M  V30 BEGIN CTAB
M  V30 COUNTS 48 51 0 0 1
M  V30 BEGIN ATOM
M  V30 1 C 5.311180 3.539281 -12.413958 0
M  V30 2 N 6.487685 3.376781 -13.249207 0
M  V30 3 C 7.521731 4.241826 -13.423806 0
M  V30 4 C 7.592323 5.601753 -12.784656 0
M  V30 5 N 8.741412 5.764386 -11.896187 0
M  V30 6 C 9.020068 7.189061 -11.703536 0
M  V30 7 C 10.283919 7.377052 -10.855199 0
M  V30 8 N 10.105293 6.710713 -9.574506 0
M  V30 9 C 10.524844 7.320541 -8.377394 0
M  V30 10 C 9.929945 6.969917 -7.146881 0
M  V30 11 C 10.325314 7.601103 -5.959148 0
M  V30 12 C 11.287512 8.626778 -5.972501 0
M  V30 13 C 11.657184 9.384692 -4.709994 0
M  V30 14 F 11.480705 8.641582 -3.619803 0
M  V30 15 F 12.931777 9.769160 -4.745408 0
M  V30 16 F 10.886118 10.469630 -4.637843 0
M  V30 17 C 11.896121 8.971488 -7.192458 0
M  V30 18 C 11.530116 8.318758 -8.382709 0
M  V30 19 C 9.647923 5.324599 -9.643079 0
M  V30 20 C 8.424285 5.212697 -10.573352 0
M  V30 21 N 8.488083 3.822732 -14.243581 0
M  V30 22 C 8.054270 2.570509 -14.618636 0
M  V30 23 C 8.653562 1.613035 -15.465687 0
M  V30 24 C 8.017403 0.375313 -15.699368 0
M  V30 25 C 6.781217 0.079198 -15.090264 0
M  V30 26 C 6.166109 1.022087 -14.243667 0
M  V30 27 C 6.802177 2.258527 -14.016386 0
M  V30 28 H 4.548543 2.807688 -12.674917 0
M  V30 29 H 5.586726 3.378617 -11.373837 0
M  V30 30 H 4.886668 4.534388 -12.539292 0
M  V30 31 H 6.664293 5.848493 -12.266348 0
M  V30 32 H 7.686074 6.323171 -13.596026 0
M  V30 33 H 8.169884 7.692682 -11.255402 0
M  V30 34 H 9.183962 7.684517 -12.647123 0
M  V30 35 H 10.440502 8.445906 -10.728613 0
M  V30 36 H 11.160470 6.973884 -11.360137 0
M  V30 37 H 9.144992 6.232437 -7.094432 0
M  V30 38 H 9.843033 7.302877 -5.047178 0
M  V30 39 H 12.653163 9.742767 -7.208628 0
M  V30 40 H 12.032536 8.607003 -9.292795 0
M  V30 41 H 10.454863 4.707427 -10.029114 0
M  V30 42 H 9.404821 4.905986 -8.670011 0
M  V30 43 H 7.591503 5.768665 -10.138045 0
M  V30 44 H 8.116328 4.173113 -10.658341 0
M  V30 45 H 9.607297 1.833266 -15.924941 0
M  V30 46 H 8.487072 -0.358692 -16.339428 0
M  V30 47 H 6.316350 -0.881062 -15.267191 0
M  V30 48 H 5.223058 0.795187 -13.773105 0
M  V30 END ATOM
M  V30 BEGIN BOND
M  V30 1 1 2 1
M  V30 2 1 3 2
M  V30 3 1 4 3
M  V30 4 1 5 4
M  V30 5 1 6 5
M  V30 6 1 7 6
M  V30 7 1 8 7
M  V30 8 1 9 8
M  V30 9 1 10 9
M  V30 10 2 11 10
M  V30 11 1 12 11
M  V30 12 1 13 12
M  V30 13 1 14 13
M  V30 14 1 15 13
M  V30 15 1 16 13
M  V30 16 2 17 12
M  V30 17 2 18 9
M  V30 18 1 18 17
M  V30 19 1 19 8
M  V30 20 1 20 5
M  V30 21 1 20 19
M  V30 22 2 21 3
M  V30 23 1 22 21
M  V30 24 2 23 22
M  V30 25 1 24 23
M  V30 26 2 25 24
M  V30 27 1 26 25
M  V30 28 1 27 2
M  V30 29 1 27 22
M  V30 30 2 27 26
M  V30 31 1 28 1
M  V30 32 1 29 1
M  V30 33 1 30 1
M  V30 34 1 31 4
M  V30 35 1 32 4
M  V30 36 1 33 6
M  V30 37 1 34 6
M  V30 38 1 35 7
M  V30 39 1 36 7
M  V30 40 1 37 10
M  V30 41 1 38 11
M  V30 42 1 39 17
M  V30 43 1 40 18
M  V30 44 1 41 19
M  V30 45 1 42 19
M  V30 46 1 43 20
M  V30 47 1 44 20
M  V30 48 1 45 23
M  V30 49 1 46 24
M  V30 50 1 47 25
M  V30 51 1 48 26
M  V30 END BOND
M  V30 END CTAB
M  END
>  <b_m_subgroup_collapsed>  (1825) 
0

>  <r_i_docking_score>  (1825) 
-6.6133157971077798

>  <s_m_subgroup_title>  (1825) 
glide-dock_SP_D22_pv

>  <s_m_subgroupid>  (1825) 
glide-dock_SP_D22_pv

>  <Molecule ChEMBL ID>  (1825) 
CHEMBL595608

>  <Standard Type>  (1825) 
Ki

>  <Standard Value>  (1825) 
10000.0

>  <label>  (1825) 
0

$$$$
CHEMBL2159475
     RDKit          3D

  0  0  0  0  0  0  0  0  0  0999 V3000
M  V30 BEGIN CTAB
M  V30 COUNTS 44 46 0 0 1
M  V30 BEGIN ATOM
M  V30 1 O 11.301371 10.780562 -6.591616 0
M  V30 2 S 11.422329 9.344925 -6.861158 0
M  V30 3 O 12.482694 8.808778 -7.723389 0
M  V30 4 N 9.925552 8.776121 -7.452247 0
M  V30 5 C 9.888339 7.407301 -7.943679 0 CFG=1
M  V30 6 C 8.911862 6.566175 -7.147327 0
M  V30 7 C 8.572886 5.484453 -8.161959 0
M  V30 8 N 8.490335 6.171470 -9.470073 0 CFG=2 CHG=1
M  V30 9 C 8.752490 5.272982 -10.618377 0
M  V30 10 C 8.427133 5.917265 -11.977109 0
M  V30 11 O 9.021042 5.142952 -13.016671 0
M  V30 12 C 10.271190 5.472276 -13.516549 0
M  V30 13 C 11.085207 6.536691 -13.040209 0
M  V30 14 C 12.296793 6.868928 -13.683182 0
M  V30 15 Cl 13.269176 8.172237 -13.104344 0
M  V30 16 C 12.724627 6.118227 -14.793913 0
M  V30 17 C 11.952232 5.037108 -15.251504 0
M  V30 18 C 10.733173 4.718870 -14.620276 0
M  V30 19 Cl 9.791969 3.405981 -15.226943 0
M  V30 20 C 9.414157 7.327993 -9.394250 0
M  V30 21 C 11.590775 8.571940 -5.288500 0
M  V30 22 C 11.684827 7.237985 -4.974614 0
M  V30 23 C 12.048081 7.034849 -3.612792 0
M  V30 24 C 12.181469 8.229694 -2.965053 0
M  V30 25 Cl 12.821703 8.572405 -1.446412 0
M  V30 26 S 11.714169 9.592599 -3.898896 0
M  V30 27 H 9.501461 9.440247 -8.099759 0
M  V30 28 H 10.871264 6.938768 -7.876353 0
M  V30 29 H 9.337541 6.182081 -6.222048 0
M  V30 30 H 8.031279 7.148977 -6.882496 0
M  V30 31 H 9.381879 4.751660 -8.185634 0
M  V30 32 H 7.679465 4.937994 -7.900678 0
M  V30 33 H 9.796106 4.955151 -10.589532 0
M  V30 34 H 8.152543 4.366825 -10.511448 0
M  V30 35 H 7.347166 5.901606 -12.124563 0
M  V30 36 H 8.698269 6.970829 -12.030886 0
M  V30 37 H 10.797853 7.143228 -12.198437 0
M  V30 38 H 13.658117 6.362345 -15.281669 0
M  V30 39 H 12.289608 4.456830 -16.098938 0
M  V30 40 H 8.882277 8.225601 -9.707166 0
M  V30 41 H 10.277374 7.213500 -10.046676 0
M  V30 42 H 11.607232 6.420409 -5.673835 0
M  V30 43 H 12.253248 6.061654 -3.191184 0
M  V30 44 H 7.556951 6.582271 -9.560523 0
M  V30 END ATOM
M  V30 BEGIN BOND
M  V30 1 2 2 1
M  V30 2 2 3 2
M  V30 3 1 4 2
M  V30 4 1 5 4
M  V30 5 1 6 5
M  V30 6 1 7 6
M  V30 7 1 8 7
M  V30 8 1 9 8
M  V30 9 1 10 9
M  V30 10 1 11 10
M  V30 11 1 12 11
M  V30 12 1 13 12
M  V30 13 2 14 13
M  V30 14 1 15 14
M  V30 15 1 16 14
M  V30 16 2 17 16
M  V30 17 2 18 12
M  V30 18 1 18 17
M  V30 19 1 19 18
M  V30 20 1 20 5
M  V30 21 1 20 8
M  V30 22 1 21 2
M  V30 23 2 22 21
M  V30 24 1 23 22
M  V30 25 2 24 23
M  V30 26 1 25 24
M  V30 27 1 26 21
M  V30 28 1 26 24
M  V30 29 1 27 4
M  V30 30 1 5 28 CFG=3
M  V30 31 1 29 6
M  V30 32 1 30 6
M  V30 33 1 31 7
M  V30 34 1 32 7
M  V30 35 1 33 9
M  V30 36 1 34 9
M  V30 37 1 35 10
M  V30 38 1 36 10
M  V30 39 1 37 13
M  V30 40 1 38 16
M  V30 41 1 39 17
M  V30 42 1 40 20
M  V30 43 1 41 20
M  V30 44 1 42 22
M  V30 45 1 43 23
M  V30 46 1 8 44 CFG=3
M  V30 END BOND
M  V30 END CTAB
M  END
>  <b_m_subgroup_collapsed>  (1826) 
0

>  <r_i_docking_score>  (1826) 
-6.6112357302396596

>  <s_m_subgroup_title>  (1826) 
glide-dock_SP_D22_pv

>  <s_m_subgroupid>  (1826) 
glide-dock_SP_D22_pv

>  <Molecule ChEMBL ID>  (1826) 
CHEMBL2159475

>  <Standard Type>  (1826) 
Ki

>  <Standard Value>  (1826) 
78.0

>  <label>  (1826) 
1

$$$$
CHEMBL46519
     RDKit          3D

  0  0  0  0  0  0  0  0  0  0999 V3000
M  V30 BEGIN CTAB
M  V30 COUNTS 39 40 0 0 1
M  V30 BEGIN ATOM
M  V30 1 N 12.823464 8.971263 -1.446852 0
M  V30 2 C 12.395008 8.746915 -2.489745 0
M  V30 3 C 11.869231 8.453674 -3.800568 0
M  V30 4 C 11.685991 7.109829 -4.167306 0
M  V30 5 C 11.312172 6.803300 -5.481735 0
M  V30 6 C 11.154105 7.821655 -6.434868 0
M  V30 7 O 10.986745 7.400710 -7.721804 0
M  V30 8 C 10.413971 8.285756 -8.657692 0
M  V30 9 C 10.056010 7.388439 -9.843833 0 CFG=1
M  V30 10 C 9.179203 6.201932 -9.385674 0
M  V30 11 C 8.740031 5.336263 -10.563378 0
M  V30 12 N 8.033198 6.168655 -11.560471 0 CFG=2 CHG=1
M  V30 13 C 7.383020 5.373200 -12.627860 0
M  V30 14 C 6.084838 4.702216 -12.157743 0
M  V30 15 F 5.448660 4.169398 -13.199726 0
M  V30 16 C 8.887094 7.260330 -12.086801 0
M  V30 17 C 9.348764 8.182701 -10.950806 0
M  V30 18 C 11.245531 9.176584 -6.042631 0
M  V30 19 C 11.593240 9.489732 -4.715734 0
M  V30 20 H 11.873975 6.309616 -3.464422 0
M  V30 21 H 11.229114 5.772585 -5.785162 0
M  V30 22 H 9.520957 8.764411 -8.250298 0
M  V30 23 H 11.124993 9.060112 -8.949986 0
M  V30 24 H 10.982788 6.983740 -10.253951 0
M  V30 25 H 9.715213 5.568669 -8.677469 0
M  V30 26 H 8.301012 6.571476 -8.855416 0
M  V30 27 H 8.086810 4.547848 -10.191630 0
M  V30 28 H 9.600356 4.847397 -11.023617 0
M  V30 29 H 7.132501 6.040075 -13.446233 0
M  V30 30 H 8.078508 4.637806 -13.034018 0
M  V30 31 H 6.267820 3.891815 -11.453396 0
M  V30 32 H 5.405779 5.417290 -11.691026 0
M  V30 33 H 8.314213 7.857686 -12.796258 0
M  V30 34 H 9.742256 6.842710 -12.620311 0
M  V30 35 H 8.487819 8.710835 -10.537970 0
M  V30 36 H 10.014705 8.950082 -11.344779 0
M  V30 37 H 11.106248 9.978332 -6.751962 0
M  V30 38 H 11.685554 10.524070 -4.421532 0
M  V30 39 H 7.295314 6.668026 -11.054468 0
M  V30 END ATOM
M  V30 BEGIN BOND
M  V30 1 3 2 1
M  V30 2 1 3 2
M  V30 3 1 4 3
M  V30 4 2 5 4
M  V30 5 1 6 5
M  V30 6 1 7 6
M  V30 7 1 8 7
M  V30 8 1 9 8
M  V30 9 1 10 9
M  V30 10 1 11 10
M  V30 11 1 12 11
M  V30 12 1 13 12
M  V30 13 1 14 13
M  V30 14 1 15 14
M  V30 15 1 16 12
M  V30 16 1 17 9
M  V30 17 1 17 16
M  V30 18 2 18 6
M  V30 19 2 19 3
M  V30 20 1 19 18
M  V30 21 1 20 4
M  V30 22 1 21 5
M  V30 23 1 22 8
M  V30 24 1 23 8
M  V30 25 1 9 24 CFG=3
M  V30 26 1 25 10
M  V30 27 1 26 10
M  V30 28 1 27 11
M  V30 29 1 28 11
M  V30 30 1 29 13
M  V30 31 1 30 13
M  V30 32 1 31 14
M  V30 33 1 32 14
M  V30 34 1 33 16
M  V30 35 1 34 16
M  V30 36 1 35 17
M  V30 37 1 36 17
M  V30 38 1 37 18
M  V30 39 1 38 19
M  V30 40 1 12 39 CFG=1
M  V30 END BOND
M  V30 END CTAB
M  END
>  <b_m_subgroup_collapsed>  (1827) 
0

>  <r_i_docking_score>  (1827) 
-6.6110148849108104

>  <s_m_subgroup_title>  (1827) 
glide-dock_SP_D22_pv

>  <s_m_subgroupid>  (1827) 
glide-dock_SP_D22_pv

>  <Molecule ChEMBL ID>  (1827) 
CHEMBL46519

>  <Standard Type>  (1827) 
Ki

>  <Standard Value>  (1827) 
10000.0

>  <label>  (1827) 
0

$$$$
CHEMBL4437202
     RDKit          3D

  0  0  0  0  0  0  0  0  0  0999 V3000
M  V30 BEGIN CTAB
M  V30 COUNTS 52 55 0 0 1
M  V30 BEGIN ATOM
M  V30 1 O 11.286110 10.143816 -6.647432 0
M  V30 2 C 10.842558 9.057428 -6.272540 0
M  V30 3 C 11.324103 8.568350 -4.930885 0
M  V30 4 C 11.560937 9.519958 -3.908515 0
M  V30 5 C 12.079912 9.127048 -2.661185 0
M  V30 6 C 12.321641 7.768567 -2.404537 0
M  V30 7 C 12.091767 6.813416 -3.407542 0
M  V30 8 C 11.653182 7.214737 -4.680439 0
M  V30 9 N 9.901732 8.370436 -6.980864 0
M  V30 10 C 9.402426 8.830264 -8.288870 0
M  V30 11 C 9.703137 7.776344 -9.376033 0
M  V30 12 N 9.230299 6.433926 -9.027126 0
M  V30 13 C 9.559898 5.452857 -10.057229 0
M  V30 14 C 8.468657 5.280548 -11.132248 0
M  V30 15 N 8.939565 5.055492 -12.505937 0
M  V30 16 C 9.904902 3.950121 -12.619056 0
M  V30 17 C 10.188207 3.403545 -14.025947 0
M  V30 18 C 9.114406 2.453333 -14.467494 0
M  V30 19 N 9.472489 1.266387 -15.117710 0
M  V30 20 C 8.409396 0.509735 -15.388237 0
M  V30 21 S 6.886150 1.199053 -14.861054 0
M  V30 22 C 7.760933 2.578408 -14.246877 0
M  V30 23 C 7.031852 3.694935 -13.562652 0
M  V30 24 C 7.824406 5.013102 -13.460450 0
M  V30 25 C 9.696946 6.056348 -7.698059 0
M  V30 26 C 9.251717 7.094574 -6.647852 0
M  V30 27 H 11.348321 10.568111 -4.078418 0
M  V30 28 H 12.264226 9.861822 -1.891806 0
M  V30 29 H 12.703473 7.457041 -1.446027 0
M  V30 30 H 12.305825 5.772459 -3.213975 0
M  V30 31 H 11.563692 6.468188 -5.454132 0
M  V30 32 H 9.842860 9.772141 -8.603849 0
M  V30 33 H 8.328916 9.010061 -8.221139 0
M  V30 34 H 10.779926 7.755254 -9.550810 0
M  V30 35 H 9.243221 8.090611 -10.313313 0
M  V30 36 H 9.752703 4.475538 -9.612885 0
M  V30 37 H 10.485983 5.759017 -10.536885 0
M  V30 38 H 7.840631 6.173063 -11.128748 0
M  V30 39 H 7.804484 4.471514 -10.823470 0
M  V30 40 H 10.858780 4.316648 -12.246574 0
M  V30 41 H 9.626384 3.123445 -11.964904 0
M  V30 42 H 11.148653 2.885363 -14.007667 0
M  V30 43 H 10.304654 4.219719 -14.739206 0
M  V30 44 H 8.517744 -0.444684 -15.882339 0
M  V30 45 H 6.113734 3.896456 -14.115943 0
M  V30 46 H 6.710412 3.372726 -12.573238 0
M  V30 47 H 8.190675 5.278068 -14.451895 0
M  V30 48 H 7.124947 5.808714 -13.204191 0
M  V30 49 H 9.277462 5.082933 -7.446855 0
M  V30 50 H 10.782246 5.944517 -7.693319 0
M  V30 51 H 9.415352 6.740982 -5.635630 0
M  V30 52 H 8.167888 7.226886 -6.701830 0
M  V30 END ATOM
M  V30 BEGIN BOND
M  V30 1 2 2 1
M  V30 2 1 3 2
M  V30 3 2 4 3
M  V30 4 1 5 4
M  V30 5 2 6 5
M  V30 6 1 7 6
M  V30 7 1 8 3
M  V30 8 2 8 7
M  V30 9 1 9 2
M  V30 10 1 10 9
M  V30 11 1 11 10
M  V30 12 1 12 11
M  V30 13 1 13 12
M  V30 14 1 14 13
M  V30 15 1 15 14
M  V30 16 1 16 15
M  V30 17 1 17 16
M  V30 18 1 18 17
M  V30 19 1 19 18
M  V30 20 2 20 19
M  V30 21 1 21 20
M  V30 22 2 22 18
M  V30 23 1 22 21
M  V30 24 1 23 22
M  V30 25 1 24 15
M  V30 26 1 24 23
M  V30 27 1 25 12
M  V30 28 1 26 9
M  V30 29 1 26 25
M  V30 30 1 27 4
M  V30 31 1 28 5
M  V30 32 1 29 6
M  V30 33 1 30 7
M  V30 34 1 31 8
M  V30 35 1 32 10
M  V30 36 1 33 10
M  V30 37 1 34 11
M  V30 38 1 35 11
M  V30 39 1 36 13
M  V30 40 1 37 13
M  V30 41 1 38 14
M  V30 42 1 39 14
M  V30 43 1 40 16
M  V30 44 1 41 16
M  V30 45 1 42 17
M  V30 46 1 43 17
M  V30 47 1 44 20
M  V30 48 1 45 23
M  V30 49 1 46 23
M  V30 50 1 47 24
M  V30 51 1 48 24
M  V30 52 1 49 25
M  V30 53 1 50 25
M  V30 54 1 51 26
M  V30 55 1 52 26
M  V30 END BOND
M  V30 END CTAB
M  END
>  <b_m_subgroup_collapsed>  (1828) 
0

>  <r_i_docking_score>  (1828) 
-6.6101175855597898

>  <s_m_subgroup_title>  (1828) 
glide-dock_SP_D22_pv

>  <s_m_subgroupid>  (1828) 
glide-dock_SP_D22_pv

>  <Molecule ChEMBL ID>  (1828) 
CHEMBL4437202

>  <Standard Type>  (1828) 
Ki

>  <Standard Value>  (1828) 
41686.94

>  <label>  (1828) 
0

$$$$
CHEMBL3764833
     RDKit          3D

  0  0  0  0  0  0  0  0  0  0999 V3000
M  V30 BEGIN CTAB
M  V30 COUNTS 53 56 0 0 1
M  V30 BEGIN ATOM
M  V30 1 C 14.304471 6.568450 -16.316748 0
M  V30 2 C 13.809448 5.293649 -16.927071 0
M  V30 3 N 14.407767 4.738792 -18.050173 0
M  V30 4 C 13.688092 3.648414 -18.303463 0
M  V30 5 O 12.663515 3.446700 -17.435423 0
M  V30 6 C 12.756968 4.492757 -16.554945 0
M  V30 7 C 11.788835 4.582826 -15.466555 0
M  V30 8 N 12.092667 5.157128 -14.299924 0
M  V30 9 N 10.960170 5.075724 -13.530820 0
M  V30 10 C 10.041296 4.482125 -14.296081 0
M  V30 11 S 8.367814 4.177024 -13.798629 0
M  V30 12 C 8.529843 4.289570 -11.991179 0
M  V30 13 C 8.601608 5.734518 -11.467396 0
M  V30 14 C 9.230833 5.776694 -10.063516 0
M  V30 15 N 9.654715 7.090594 -9.580642 0
M  V30 16 C 10.755005 7.663235 -10.358093 0
M  V30 17 C 11.228138 9.009118 -9.786551 0
M  V30 18 O 11.600387 8.841401 -8.427096 0
M  V30 19 C 10.527267 8.360723 -7.623120 0 CFG=2
M  V30 20 C 10.951929 8.347533 -6.164633 0
M  V30 21 C 11.285694 7.156200 -5.474707 0
M  V30 22 C 11.730238 7.211618 -4.140795 0
M  V30 23 C 11.851015 8.456918 -3.499538 0
M  V30 24 Br 12.486232 8.572283 -1.721097 0
M  V30 25 C 11.495440 9.635738 -4.169647 0
M  V30 26 C 11.054385 9.586043 -5.500757 0
M  V30 27 C 10.055380 7.001740 -8.181346 0
M  V30 28 N 10.510874 4.142202 -15.515747 0
M  V30 29 C 9.824969 3.488635 -16.621208 0
M  V30 30 H 13.540734 7.346962 -16.357491 0
M  V30 31 H 14.568584 6.425427 -15.269537 0
M  V30 32 H 15.186657 6.947126 -16.834269 0
M  V30 33 H 13.872778 2.971650 -19.123465 0
M  V30 34 H 7.682456 3.784171 -11.526228 0
M  V30 35 H 9.420387 3.731546 -11.703901 0
M  V30 36 H 9.172300 6.345337 -12.160252 0
M  V30 37 H 7.602520 6.171877 -11.445998 0
M  V30 38 H 8.498322 5.360289 -9.369930 0
M  V30 39 H 10.086175 5.099627 -10.033633 0
M  V30 40 H 11.597987 6.972670 -10.380276 0
M  V30 41 H 10.455646 7.826120 -11.392298 0
M  V30 42 H 12.086084 9.373437 -10.350920 0
M  V30 43 H 10.447425 9.769218 -9.846845 0
M  V30 44 H 9.696987 9.064571 -7.700328 0
M  V30 45 H 11.220944 6.188685 -5.951652 0
M  V30 46 H 11.989030 6.301165 -3.617497 0
M  V30 47 H 11.573220 10.572474 -3.647937 0
M  V30 48 H 10.807673 10.501022 -6.020280 0
M  V30 49 H 9.216766 6.637493 -7.584540 0
M  V30 50 H 10.857217 6.267685 -8.089260 0
M  V30 51 H 8.764525 3.363040 -16.411203 0
M  V30 52 H 9.929318 4.091178 -17.524740 0
M  V30 53 H 10.262793 2.505162 -16.795317 0
M  V30 END ATOM
M  V30 BEGIN BOND
M  V30 1 1 2 1
M  V30 2 1 3 2
M  V30 3 2 4 3
M  V30 4 1 5 4
M  V30 5 2 6 2
M  V30 6 1 6 5
M  V30 7 1 7 6
M  V30 8 2 8 7
M  V30 9 1 9 8
M  V30 10 2 10 9
M  V30 11 1 11 10
M  V30 12 1 12 11
M  V30 13 1 13 12
M  V30 14 1 14 13
M  V30 15 1 15 14
M  V30 16 1 16 15
M  V30 17 1 17 16
M  V30 18 1 18 17
M  V30 19 1 19 18
M  V30 20 1 20 19
M  V30 21 1 21 20
M  V30 22 2 22 21
M  V30 23 1 23 22
M  V30 24 1 24 23
M  V30 25 2 25 23
M  V30 26 2 26 20
M  V30 27 1 26 25
M  V30 28 1 27 15
M  V30 29 1 27 19
M  V30 30 1 28 7
M  V30 31 1 28 10
M  V30 32 1 29 28
M  V30 33 1 30 1
M  V30 34 1 31 1
M  V30 35 1 32 1
M  V30 36 1 33 4
M  V30 37 1 34 12
M  V30 38 1 35 12
M  V30 39 1 36 13
M  V30 40 1 37 13
M  V30 41 1 38 14
M  V30 42 1 39 14
M  V30 43 1 40 16
M  V30 44 1 41 16
M  V30 45 1 42 17
M  V30 46 1 43 17
M  V30 47 1 19 44 CFG=1
M  V30 48 1 45 21
M  V30 49 1 46 22
M  V30 50 1 47 25
M  V30 51 1 48 26
M  V30 52 1 49 27
M  V30 53 1 50 27
M  V30 54 1 51 29
M  V30 55 1 52 29
M  V30 56 1 53 29
M  V30 END BOND
M  V30 END CTAB
M  END
>  <b_m_subgroup_collapsed>  (1829) 
0

>  <r_i_docking_score>  (1829) 
-6.6081655858467503

>  <s_m_subgroup_title>  (1829) 
glide-dock_SP_D22_pv

>  <s_m_subgroupid>  (1829) 
glide-dock_SP_D22_pv

>  <Molecule ChEMBL ID>  (1829) 
CHEMBL3764833

>  <Standard Type>  (1829) 
Ki

>  <Standard Value>  (1829) 
15136.0

>  <label>  (1829) 
0

$$$$
CHEMBL3234544
     RDKit          3D

  0  0  0  0  0  0  0  0  0  0999 V3000
M  V30 BEGIN CTAB
M  V30 COUNTS 46 49 0 0 1
M  V30 BEGIN ATOM
M  V30 1 C 13.716739 5.446136 -15.177179 0
M  V30 2 N 12.400373 5.492747 -15.810468 0
M  V30 3 C 12.375801 5.793489 -17.139309 0
M  V30 4 O 13.407787 6.072047 -17.760855 0
M  V30 5 C 11.079699 5.889503 -17.897062 0
M  V30 6 C 10.930272 6.941819 -18.832775 0
M  V30 7 C 9.792489 7.021836 -19.658491 0
M  V30 8 C 8.798069 6.032281 -19.580774 0
M  V30 9 C 8.941339 4.971248 -18.669205 0
M  V30 10 C 10.063776 4.901732 -17.827425 0
M  V30 11 S 10.136477 3.496186 -16.670715 0
M  V30 12 O 11.527128 2.870389 -16.814611 0
M  V30 13 C 10.177256 4.540528 -15.183499 0
M  V30 14 C 9.107900 4.452425 -14.267378 0
M  V30 15 C 9.121252 5.209638 -13.079512 0
M  V30 16 C 10.223334 6.042861 -12.783312 0
M  V30 17 C 10.284657 6.881088 -11.530955 0
M  V30 18 O 11.124864 7.773800 -11.437920 0
M  V30 19 N 9.473352 6.552489 -10.509994 0
M  V30 20 C 9.499960 7.204440 -9.198130 0
M  V30 21 C 10.755431 6.798636 -8.394790 0
M  V30 22 C 10.946409 7.519624 -7.098110 0
M  V30 23 C 10.971777 6.986987 -5.834893 0
M  V30 24 C 11.286068 7.945837 -4.826094 0
M  V30 25 C 11.465169 9.207605 -5.326981 0
M  V30 26 S 11.285543 9.232784 -7.056507 0
M  V30 27 C 11.286625 6.124188 -13.717361 0
M  V30 28 C 11.271897 5.396228 -14.933917 0
M  V30 29 H 14.467373 4.972617 -15.806884 0
M  V30 30 H 14.063082 6.458097 -14.961664 0
M  V30 31 H 13.674369 4.872190 -14.252376 0
M  V30 32 H 11.693139 7.702167 -18.924271 0
M  V30 33 H 9.691691 7.837545 -20.360149 0
M  V30 34 H 7.926623 6.084836 -20.216169 0
M  V30 35 H 8.177192 4.210392 -18.608757 0
M  V30 36 H 8.271646 3.797304 -14.472932 0
M  V30 37 H 8.280078 5.133125 -12.405512 0
M  V30 38 H 8.786577 5.825873 -10.644732 0
M  V30 39 H 8.595448 6.937095 -8.650849 0
M  V30 40 H 9.466358 8.286553 -9.339519 0
M  V30 41 H 11.646772 6.975186 -8.993216 0
M  V30 42 H 10.729877 5.724412 -8.212631 0
M  V30 43 H 10.803786 5.948537 -5.598197 0
M  V30 44 H 11.362020 7.678209 -3.782603 0
M  V30 45 H 11.697546 10.116032 -4.790523 0
M  V30 46 H 12.123569 6.769492 -13.501051 0
M  V30 END ATOM
M  V30 BEGIN BOND
M  V30 1 1 2 1
M  V30 2 1 3 2
M  V30 3 2 4 3
M  V30 4 1 5 3
M  V30 5 2 6 5
M  V30 6 1 7 6
M  V30 7 2 8 7
M  V30 8 1 9 8
M  V30 9 1 10 5
M  V30 10 2 10 9
M  V30 11 1 11 10 CFG=1
M  V30 12 2 12 11
M  V30 13 1 13 11
M  V30 14 2 14 13
M  V30 15 1 15 14
M  V30 16 2 16 15
M  V30 17 1 17 16
M  V30 18 2 18 17
M  V30 19 1 19 17
M  V30 20 1 20 19
M  V30 21 1 21 20
M  V30 22 1 22 21
M  V30 23 2 23 22
M  V30 24 1 24 23
M  V30 25 2 25 24
M  V30 26 1 26 22
M  V30 27 1 26 25
M  V30 28 1 27 16
M  V30 29 1 28 2
M  V30 30 1 28 13
M  V30 31 2 28 27
M  V30 32 1 29 1
M  V30 33 1 30 1
M  V30 34 1 31 1
M  V30 35 1 32 6
M  V30 36 1 33 7
M  V30 37 1 34 8
M  V30 38 1 35 9
M  V30 39 1 36 14
M  V30 40 1 37 15
M  V30 41 1 38 19
M  V30 42 1 39 20
M  V30 43 1 40 20
M  V30 44 1 41 21
M  V30 45 1 42 21
M  V30 46 1 43 23
M  V30 47 1 44 24
M  V30 48 1 45 25
M  V30 49 1 46 27
M  V30 END BOND
M  V30 END CTAB
M  END
>  <b_m_subgroup_collapsed>  (1830) 
0

>  <r_i_docking_score>  (1830) 
-6.60800177673877

>  <s_m_subgroup_title>  (1830) 
glide-dock_SP_D22_pv

>  <s_m_subgroupid>  (1830) 
glide-dock_SP_D22_pv

>  <Molecule ChEMBL ID>  (1830) 
CHEMBL3234544

>  <Standard Type>  (1830) 
Ki

>  <Standard Value>  (1830) 
100.0

>  <label>  (1830) 
1

$$$$
CHEMBL593626
     RDKit          3D

  0  0  0  0  0  0  0  0  0  0999 V3000
M  V30 BEGIN CTAB
M  V30 COUNTS 37 40 0 0 1
M  V30 BEGIN ATOM
M  V30 1 O 9.282715 8.343633 -9.953930 0
M  V30 2 C 9.806314 7.589751 -10.957085 0
M  V30 3 C 11.151914 7.749566 -11.326085 0
M  V30 4 C 11.685805 6.975435 -12.372355 0
M  V30 5 C 10.885731 6.033995 -13.064148 0
M  V30 6 C 9.548123 5.840924 -12.636772 0
M  V30 7 C 9.007054 6.634520 -11.606564 0
M  V30 8 C 8.705255 4.737905 -13.240089 0
M  V30 9 C 9.594273 3.585369 -13.705099 0
M  V30 10 N 10.577272 4.097619 -14.682246 0 CFG=2 CHG=1
M  V30 11 C 11.344282 3.031519 -15.359561 0
M  V30 12 C 12.025977 3.587781 -16.620420 0
M  V30 13 C 12.505672 5.030033 -16.498075 0
M  V30 14 C 13.197397 5.593297 -17.590546 0
M  V30 15 C 13.537707 6.956088 -17.590010 0
M  V30 16 C 13.167263 7.766455 -16.505199 0
M  V30 17 C 12.486402 7.209039 -15.407686 0
M  V30 18 C 12.172602 5.826186 -15.368683 0
M  V30 19 C 11.504045 5.143251 -14.159672 0 CFG=1
M  V30 20 H 8.346450 8.175227 -9.847421 0
M  V30 21 H 11.774043 8.466136 -10.810069 0
M  V30 22 H 12.730947 7.090320 -12.623701 0
M  V30 23 H 7.981758 6.492267 -11.294326 0
M  V30 24 H 7.986818 4.372663 -12.504004 0
M  V30 25 H 8.128888 5.144139 -14.073123 0
M  V30 26 H 10.100730 3.122091 -12.856322 0
M  V30 27 H 8.974890 2.812466 -14.163617 0
M  V30 28 H 12.086189 2.626180 -14.668856 0
M  V30 29 H 10.701926 2.194440 -15.638678 0
M  V30 30 H 12.862241 2.943916 -16.901535 0
M  V30 31 H 11.316960 3.555188 -17.450392 0
M  V30 32 H 13.443984 4.985298 -18.449921 0
M  V30 33 H 14.056469 7.387731 -18.433205 0
M  V30 34 H 13.400094 8.821407 -16.518997 0
M  V30 35 H 12.212537 7.883643 -14.615249 0
M  V30 36 H 12.312426 4.629809 -13.634902 0
M  V30 37 H 10.033723 4.555891 -15.398059 0
M  V30 END ATOM
M  V30 BEGIN BOND
M  V30 1 1 2 1
M  V30 2 1 3 2
M  V30 3 2 4 3
M  V30 4 1 5 4
M  V30 5 2 6 5
M  V30 6 2 7 2
M  V30 7 1 7 6
M  V30 8 1 8 6
M  V30 9 1 9 8
M  V30 10 1 10 9
M  V30 11 1 11 10
M  V30 12 1 12 11
M  V30 13 1 13 12
M  V30 14 2 14 13
M  V30 15 1 15 14
M  V30 16 2 16 15
M  V30 17 1 17 16
M  V30 18 1 18 13
M  V30 19 2 18 17
M  V30 20 1 19 5
M  V30 21 1 19 10
M  V30 22 1 19 18
M  V30 23 1 20 1
M  V30 24 1 21 3
M  V30 25 1 22 4
M  V30 26 1 23 7
M  V30 27 1 24 8
M  V30 28 1 25 8
M  V30 29 1 26 9
M  V30 30 1 27 9
M  V30 31 1 28 11
M  V30 32 1 29 11
M  V30 33 1 30 12
M  V30 34 1 31 12
M  V30 35 1 32 14
M  V30 36 1 33 15
M  V30 37 1 34 16
M  V30 38 1 35 17
M  V30 39 1 19 36 CFG=1
M  V30 40 1 10 37 CFG=3
M  V30 END BOND
M  V30 END CTAB
M  END
>  <b_m_subgroup_collapsed>  (1831) 
0

>  <r_i_docking_score>  (1831) 
-6.6074084576955103

>  <s_m_subgroup_title>  (1831) 
glide-dock_SP_D22_pv

>  <s_m_subgroupid>  (1831) 
glide-dock_SP_D22_pv

>  <Molecule ChEMBL ID>  (1831) 
CHEMBL593626

>  <Standard Type>  (1831) 
Ki

>  <Standard Value>  (1831) 
10000.0

>  <label>  (1831) 
0

$$$$
CHEMBL597503
     RDKit          3D

  0  0  0  0  0  0  0  0  0  0999 V3000
M  V30 BEGIN CTAB
M  V30 COUNTS 57 62 0 0 1
M  V30 BEGIN ATOM
M  V30 1 C 10.127123 0.037585 -15.444225 0
M  V30 2 N 10.462829 1.160505 -16.355749 0 CFG=1 CHG=1
M  V30 3 C 9.561751 1.189157 -17.540308 0
M  V30 4 C 9.775844 2.418288 -18.452160 0
M  V30 5 C 11.238393 2.620433 -18.794867 0
M  V30 6 C 11.643026 2.377589 -20.125896 0
M  V30 7 C 12.997173 2.452294 -20.492367 0
M  V30 8 Cl 13.465579 2.127910 -22.122034 0
M  V30 9 C 13.962908 2.769976 -19.520287 0
M  V30 10 O 15.285765 2.812953 -19.846180 0
M  V30 11 C 13.562698 3.033938 -18.199230 0
M  V30 12 C 12.202353 2.985146 -17.811098 0
M  V30 13 C 11.885173 3.220415 -16.314056 0 CFG=1
M  V30 14 C 12.026190 4.658314 -15.770432 0
M  V30 15 C 12.740804 5.640728 -16.494175 0
M  V30 16 C 12.951410 6.919154 -15.955902 0
M  V30 17 C 12.441217 7.241388 -14.690520 0
M  V30 18 C 11.685959 6.308713 -13.948593 0
M  V30 19 C 11.138463 6.747514 -12.637604 0
M  V30 20 C 9.778602 6.571342 -12.290709 0
M  V30 21 C 9.286128 6.946485 -11.034309 0
M  V30 22 C 10.145585 7.539158 -10.104730 0
M  V30 23 N 9.943629 8.007601 -8.823627 0
M  V30 24 C 11.123266 8.507539 -8.300715 0
M  V30 25 C 12.113045 8.371191 -9.239861 0
M  V30 26 C 11.516870 7.771966 -10.402324 0
M  V30 27 C 11.978598 7.372533 -11.684287 0
M  V30 28 C 11.483315 5.004015 -14.495229 0
M  V30 29 C 10.650738 3.983078 -13.714913 0
M  V30 30 C 10.733360 2.540099 -14.211102 0
M  V30 31 C 10.628516 2.514149 -15.743129 0 CFG=2
M  V30 32 H 9.156417 0.182491 -14.968108 0
M  V30 33 H 10.883493 -0.086336 -14.668356 0
M  V30 34 H 10.085224 -0.903480 -15.994757 0
M  V30 35 H 9.732082 0.279295 -18.118011 0
M  V30 36 H 8.520645 1.162371 -17.215509 0
M  V30 37 H 9.201380 2.271437 -19.368145 0
M  V30 38 H 9.374900 3.339103 -18.028885 0
M  V30 39 H 10.914148 2.106013 -20.876162 0
M  V30 40 H 15.431334 2.653762 -20.768793 0
M  V30 41 H 14.320586 3.273485 -17.466064 0
M  V30 42 H 12.721795 2.706894 -15.846364 0
M  V30 43 H 13.154739 5.440251 -17.468407 0
M  V30 44 H 13.508553 7.655874 -16.515663 0
M  V30 45 H 12.608653 8.233737 -14.298689 0
M  V30 46 H 9.082221 6.160076 -13.003861 0
M  V30 47 H 8.243143 6.792920 -10.794023 0
M  V30 48 H 9.062231 7.990404 -8.326160 0
M  V30 49 H 11.163712 8.918303 -7.301962 0
M  V30 50 H 13.147742 8.663350 -9.137189 0
M  V30 51 H 13.011399 7.547966 -11.937687 0
M  V30 52 H 10.885576 4.025653 -12.654110 0
M  V30 53 H 9.607471 4.277605 -13.812460 0
M  V30 54 H 11.664695 2.086236 -13.876118 0
M  V30 55 H 9.921065 1.988786 -13.739247 0
M  V30 56 H 9.735144 3.099058 -15.959556 0
M  V30 57 H 11.379454 0.942191 -16.722898 0
M  V30 END ATOM
M  V30 BEGIN BOND
M  V30 1 1 2 1
M  V30 2 1 3 2
M  V30 3 1 4 3
M  V30 4 1 5 4
M  V30 5 1 6 5
M  V30 6 2 7 6
M  V30 7 1 8 7
M  V30 8 1 9 7
M  V30 9 1 10 9
M  V30 10 2 11 9
M  V30 11 2 12 5
M  V30 12 1 12 11
M  V30 13 1 13 12
M  V30 14 1 14 13
M  V30 15 2 15 14
M  V30 16 1 16 15
M  V30 17 2 17 16
M  V30 18 1 18 17
M  V30 19 1 19 18
M  V30 20 2 20 19
M  V30 21 1 21 20
M  V30 22 2 22 21
M  V30 23 1 23 22
M  V30 24 1 24 23
M  V30 25 2 25 24
M  V30 26 1 26 22
M  V30 27 1 26 25
M  V30 28 1 27 19
M  V30 29 2 27 26
M  V30 30 1 28 14
M  V30 31 2 28 18
M  V30 32 1 29 28
M  V30 33 1 30 29
M  V30 34 1 31 2
M  V30 35 1 31 13
M  V30 36 1 31 30
M  V30 37 1 32 1
M  V30 38 1 33 1
M  V30 39 1 34 1
M  V30 40 1 35 3
M  V30 41 1 36 3
M  V30 42 1 37 4
M  V30 43 1 38 4
M  V30 44 1 39 6
M  V30 45 1 40 10
M  V30 46 1 41 11
M  V30 47 1 13 42 CFG=1
M  V30 48 1 43 15
M  V30 49 1 44 16
M  V30 50 1 45 17
M  V30 51 1 46 20
M  V30 52 1 47 21
M  V30 53 1 48 23
M  V30 54 1 49 24
M  V30 55 1 50 25
M  V30 56 1 51 27
M  V30 57 1 52 29
M  V30 58 1 53 29
M  V30 59 1 54 30
M  V30 60 1 55 30
M  V30 61 1 31 56 CFG=1
M  V30 62 1 2 57 CFG=3
M  V30 END BOND
M  V30 END CTAB
M  END
>  <b_m_subgroup_collapsed>  (1832) 
0

>  <r_i_docking_score>  (1832) 
-6.6064419935562197

>  <s_m_subgroup_title>  (1832) 
glide-dock_SP_D22_pv

>  <s_m_subgroupid>  (1832) 
glide-dock_SP_D22_pv

>  <Molecule ChEMBL ID>  (1832) 
CHEMBL597503

>  <Standard Type>  (1832) 
Ki

>  <Standard Value>  (1832) 
51.0

>  <label>  (1832) 
1

$$$$
CHEMBL1087818
     RDKit          3D

  0  0  0  0  0  0  0  0  0  0999 V3000
M  V30 BEGIN CTAB
M  V30 COUNTS 68 72 0 0 1
M  V30 BEGIN ATOM
M  V30 1 C 3.070366 -3.547209 -18.983351 0
M  V30 2 S 4.461423 -2.356303 -18.962063 0
M  V30 3 O 4.109045 -1.174843 -19.763813 0
M  V30 4 O 5.719348 -3.082385 -19.192822 0
M  V30 5 N 4.496876 -1.829094 -17.312124 0
M  V30 6 C 5.443493 -1.018668 -16.672148 0
M  V30 7 C 5.207143 -0.616831 -15.343739 0
M  V30 8 C 6.149066 0.179579 -14.667226 0
M  V30 9 C 7.346890 0.561803 -15.303314 0
M  V30 10 C 7.623629 0.132653 -16.625420 0
M  V30 11 O 8.812475 0.369669 -17.290642 0
M  V30 12 C 9.998845 0.627307 -16.536097 0
M  V30 13 C 10.434150 2.093624 -16.745287 0
M  V30 14 N 11.419529 2.569392 -15.726161 0 CFG=2 CHG=1
M  V30 15 C 10.837065 2.828666 -14.374697 0
M  V30 16 C 10.540607 4.323976 -14.081879 0 CFG=2
M  V30 17 C 9.615162 4.932559 -15.153671 0
M  V30 18 C 10.563594 5.411041 -16.265383 0
M  V30 19 C 11.961652 5.072614 -15.736394 0 CFG=2
M  V30 20 C 12.352086 3.643502 -16.193592 0
M  V30 21 C 11.824778 5.161397 -14.198694 0 CFG=1
M  V30 22 C 11.799243 6.651722 -13.680961 0
M  V30 23 C 11.176297 6.971719 -12.310375 0
M  V30 24 C 9.829971 6.647714 -12.032347 0
M  V30 25 C 9.271262 6.865814 -10.767655 0
M  V30 26 C 10.022785 7.496092 -9.767738 0
M  V30 27 C 11.350584 7.894327 -10.034403 0
M  V30 28 C 11.924588 7.635181 -11.303563 0
M  V30 29 N 12.086491 8.572234 -9.026150 0
M  V30 30 C 11.686872 8.663054 -7.741065 0
M  V30 31 O 12.261754 9.370543 -6.918701 0
M  V30 32 C 10.463114 7.846184 -7.312654 0
M  V30 33 C 9.399129 7.800059 -8.418151 0
M  V30 34 C 6.641596 -0.620237 -17.311111 0
M  V30 35 H 2.937618 -3.931716 -19.993515 0
M  V30 36 H 3.288188 -4.371181 -18.301842 0
M  V30 37 H 2.157995 -3.057782 -18.647301 0
M  V30 38 H 3.788672 -2.240323 -16.715963 0
M  V30 39 H 4.296831 -0.913038 -14.841485 0
M  V30 40 H 5.957407 0.490976 -13.651668 0
M  V30 41 H 8.042851 1.170558 -14.750786 0
M  V30 42 H 9.903005 0.358236 -15.484379 0
M  V30 43 H 10.781565 -0.031532 -16.919437 0
M  V30 44 H 10.863457 2.166038 -17.747610 0
M  V30 45 H 9.550614 2.723016 -16.770758 0
M  V30 46 H 9.939153 2.238398 -14.212318 0
M  V30 47 H 11.556115 2.457118 -13.648629 0
M  V30 48 H 10.109197 4.349784 -13.085498 0
M  V30 49 H 8.882889 4.212989 -15.493803 0
M  V30 50 H 9.041691 5.772123 -14.775630 0
M  V30 51 H 10.351984 4.946259 -17.228693 0
M  V30 52 H 10.485668 6.483412 -16.420036 0
M  V30 53 H 12.704004 5.779932 -16.109022 0
M  V30 54 H 13.334712 3.419038 -15.794884 0
M  V30 55 H 12.475352 3.612305 -17.277666 0
M  V30 56 H 12.644871 4.652287 -13.690043 0
M  V30 57 H 12.825496 7.020531 -13.681844 0
M  V30 58 H 11.286469 7.282480 -14.400012 0
M  V30 59 H 9.180470 6.222230 -12.772933 0
M  V30 60 H 8.246566 6.574034 -10.580190 0
M  V30 61 H 12.940139 7.943482 -11.502294 0
M  V30 62 H 12.919122 9.077400 -9.305496 0
M  V30 63 H 10.806933 6.836278 -7.088243 0
M  V30 64 H 10.037348 8.248682 -6.392712 0
M  V30 65 H 8.880845 8.757581 -8.486740 0
M  V30 66 H 8.641834 7.050384 -8.182160 0
M  V30 67 H 6.846724 -0.936462 -18.322557 0
M  V30 68 H 12.026667 1.771576 -15.602870 0
M  V30 END ATOM
M  V30 BEGIN BOND
M  V30 1 1 2 1
M  V30 2 2 3 2
M  V30 3 2 4 2
M  V30 4 1 5 2
M  V30 5 1 6 5
M  V30 6 1 7 6
M  V30 7 2 8 7
M  V30 8 1 9 8
M  V30 9 2 10 9
M  V30 10 1 11 10
M  V30 11 1 12 11
M  V30 12 1 13 12
M  V30 13 1 14 13
M  V30 14 1 15 14
M  V30 15 1 16 15
M  V30 16 1 17 16
M  V30 17 1 18 17
M  V30 18 1 19 18
M  V30 19 1 20 14
M  V30 20 1 20 19
M  V30 21 1 21 16
M  V30 22 1 21 19
M  V30 23 1 22 21
M  V30 24 1 23 22
M  V30 25 1 24 23
M  V30 26 2 25 24
M  V30 27 1 26 25
M  V30 28 2 27 26
M  V30 29 2 28 23
M  V30 30 1 28 27
M  V30 31 1 29 27
M  V30 32 1 30 29
M  V30 33 2 31 30
M  V30 34 1 32 30
M  V30 35 1 33 26
M  V30 36 1 33 32
M  V30 37 2 34 6
M  V30 38 1 34 10
M  V30 39 1 35 1
M  V30 40 1 36 1
M  V30 41 1 37 1
M  V30 42 1 38 5
M  V30 43 1 39 7
M  V30 44 1 40 8
M  V30 45 1 41 9
M  V30 46 1 42 12
M  V30 47 1 43 12
M  V30 48 1 44 13
M  V30 49 1 45 13
M  V30 50 1 46 15
M  V30 51 1 47 15
M  V30 52 1 16 48 CFG=1
M  V30 53 1 49 17
M  V30 54 1 50 17
M  V30 55 1 51 18
M  V30 56 1 52 18
M  V30 57 1 19 53 CFG=3
M  V30 58 1 54 20
M  V30 59 1 55 20
M  V30 60 1 21 56 CFG=1
M  V30 61 1 57 22
M  V30 62 1 58 22
M  V30 63 1 59 24
M  V30 64 1 60 25
M  V30 65 1 61 28
M  V30 66 1 62 29
M  V30 67 1 63 32
M  V30 68 1 64 32
M  V30 69 1 65 33
M  V30 70 1 66 33
M  V30 71 1 67 34
M  V30 72 1 14 68 CFG=1
M  V30 END BOND
M  V30 END CTAB
M  END
>  <b_m_subgroup_collapsed>  (1833) 
0

>  <r_i_docking_score>  (1833) 
-6.6061672923531596

>  <s_m_subgroup_title>  (1833) 
glide-dock_SP_D22_pv

>  <s_m_subgroupid>  (1833) 
glide-dock_SP_D22_pv

>  <Molecule ChEMBL ID>  (1833) 
CHEMBL1087818

>  <Standard Type>  (1833) 
Ki

>  <Standard Value>  (1833) 
11.0

>  <label>  (1833) 
1

$$$$
CHEMBL243712
     RDKit          3D

  0  0  0  0  0  0  0  0  0  0999 V3000
M  V30 BEGIN CTAB
M  V30 COUNTS 53 54 0 0 1
M  V30 BEGIN ATOM
M  V30 1 C 9.399057 6.724182 -7.604586 0
M  V30 2 C 9.511870 5.899699 -8.894951 0
M  V30 3 N 8.886008 6.582988 -10.053507 0 CFG=1 CHG=1
M  V30 4 C 9.556194 7.795840 -10.555393 0
M  V30 5 C 8.886127 8.089951 -11.901369 0
M  V30 6 C 8.124168 6.808973 -12.283358 0
M  V30 7 C 8.521230 5.756256 -11.230471 0 CFG=1
M  V30 8 C 9.681714 4.848553 -11.707946 0
M  V30 9 N 9.281809 3.885472 -12.725245 0
M  V30 10 C 9.417380 4.018301 -14.053310 0
M  V30 11 O 9.938775 4.997377 -14.581952 0
M  V30 12 C 8.902538 2.856287 -14.861052 0
M  V30 13 C 7.740431 2.178546 -14.427768 0
M  V30 14 C 7.248131 1.052815 -15.112610 0
M  V30 15 S 5.895703 0.159126 -14.309277 0
M  V30 16 O 6.484591 -1.031096 -13.683093 0
M  V30 17 O 5.172225 1.108312 -13.447427 0
M  V30 18 C 4.725411 -0.410581 -15.622232 0
M  V30 19 C 3.324726 -0.672942 -15.054568 0
M  V30 20 C 7.889369 0.630635 -16.304216 0
M  V30 21 N 7.471686 -0.473051 -17.047024 0
M  V30 22 C 9.014788 1.338780 -16.770367 0
M  V30 23 C 9.551717 2.436972 -16.051260 0
M  V30 24 O 10.697450 3.099406 -16.447048 0
M  V30 25 C 11.403286 2.633021 -17.589857 0
M  V30 26 H 9.826143 6.177867 -6.762530 0
M  V30 27 H 9.928283 7.674442 -7.681165 0
M  V30 28 H 8.358659 6.940031 -7.356452 0
M  V30 29 H 9.012897 4.941499 -8.738420 0
M  V30 30 H 10.560140 5.687716 -9.104940 0
M  V30 31 H 10.620886 7.601578 -10.695574 0
M  V30 32 H 9.449554 8.630173 -9.859709 0
M  V30 33 H 9.630705 8.366335 -12.646535 0
M  V30 34 H 8.189284 8.924938 -11.811211 0
M  V30 35 H 8.327557 6.505418 -13.305946 0
M  V30 36 H 7.050353 6.994404 -12.246886 0
M  V30 37 H 7.661599 5.137510 -10.969830 0
M  V30 38 H 10.085230 4.257059 -10.885611 0
M  V30 39 H 10.486030 5.473629 -12.086258 0
M  V30 40 H 8.903666 3.009373 -12.389804 0
M  V30 41 H 7.233337 2.497973 -13.528995 0
M  V30 42 H 4.691924 0.334859 -16.414446 0
M  V30 43 H 5.126687 -1.325172 -16.057550 0
M  V30 44 H 2.652790 -1.033033 -15.833897 0
M  V30 45 H 3.355951 -1.426883 -14.267671 0
M  V30 46 H 2.885531 0.231964 -14.633882 0
M  V30 47 H 7.269138 -1.307993 -16.501846 0
M  V30 48 H 8.036117 -0.705382 -17.851515 0
M  V30 49 H 9.482444 0.993113 -17.679033 0
M  V30 50 H 12.289698 3.249572 -17.739738 0
M  V30 51 H 11.740333 1.602611 -17.457758 0
M  V30 52 H 10.793156 2.708017 -18.491590 0
M  V30 53 H 7.973684 6.924692 -9.746180 0
M  V30 END ATOM
M  V30 BEGIN BOND
M  V30 1 1 2 1
M  V30 2 1 3 2
M  V30 3 1 4 3
M  V30 4 1 5 4
M  V30 5 1 6 5
M  V30 6 1 7 3
M  V30 7 1 7 6
M  V30 8 1 8 7
M  V30 9 1 9 8
M  V30 10 1 10 9
M  V30 11 2 11 10
M  V30 12 1 12 10
M  V30 13 1 13 12
M  V30 14 2 14 13
M  V30 15 1 15 14
M  V30 16 2 16 15
M  V30 17 2 17 15
M  V30 18 1 18 15
M  V30 19 1 19 18
M  V30 20 1 20 14
M  V30 21 1 21 20
M  V30 22 2 22 20
M  V30 23 2 23 12
M  V30 24 1 23 22
M  V30 25 1 24 23
M  V30 26 1 25 24
M  V30 27 1 26 1
M  V30 28 1 27 1
M  V30 29 1 28 1
M  V30 30 1 29 2
M  V30 31 1 30 2
M  V30 32 1 31 4
M  V30 33 1 32 4
M  V30 34 1 33 5
M  V30 35 1 34 5
M  V30 36 1 35 6
M  V30 37 1 36 6
M  V30 38 1 7 37 CFG=1
M  V30 39 1 38 8
M  V30 40 1 39 8
M  V30 41 1 40 9
M  V30 42 1 41 13
M  V30 43 1 42 18
M  V30 44 1 43 18
M  V30 45 1 44 19
M  V30 46 1 45 19
M  V30 47 1 46 19
M  V30 48 1 47 21
M  V30 49 1 48 21
M  V30 50 1 49 22
M  V30 51 1 50 25
M  V30 52 1 51 25
M  V30 53 1 52 25
M  V30 54 1 3 53 CFG=1
M  V30 END BOND
M  V30 END CTAB
M  END
>  <b_m_subgroup_collapsed>  (1834) 
0

>  <r_i_docking_score>  (1834) 
-6.5997971717943802

>  <s_m_subgroup_title>  (1834) 
glide-dock_SP_D22_pv

>  <s_m_subgroupid>  (1834) 
glide-dock_SP_D22_pv

>  <Molecule ChEMBL ID>  (1834) 
CHEMBL243712

>  <Standard Type>  (1834) 
Ki

>  <Standard Value>  (1834) 
3.0

>  <label>  (1834) 
1

$$$$
CHEMBL5290993
     RDKit          3D

  0  0  0  0  0  0  0  0  0  0999 V3000
M  V30 BEGIN CTAB
M  V30 COUNTS 50 52 0 0 1
M  V30 BEGIN ATOM
M  V30 1 C 8.150444 1.143162 -16.126619 0
M  V30 2 C 9.045209 2.213408 -15.469201 0
M  V30 3 C 10.488406 1.679133 -15.384576 0
M  V30 4 N 8.545049 2.600400 -14.121017 0 CFG=1 CHG=1
M  V30 5 C 9.280764 3.698073 -13.441284 0
M  V30 6 C 8.230817 4.745423 -13.029726 0 CFG=2
M  V30 7 N 8.587455 5.499626 -11.830319 0
M  V30 8 C 9.696585 6.240257 -11.702934 0
M  V30 9 O 10.463797 6.435023 -12.646841 0
M  V30 10 N 9.917778 6.746792 -10.470293 0
M  V30 11 C 11.018164 7.700277 -10.244856 0
M  V30 12 C 10.994679 7.956298 -8.771592 0
M  V30 13 C 11.859519 8.775835 -8.032722 0
M  V30 14 C 11.652521 8.882500 -6.641777 0
M  V30 15 C 10.610562 8.155812 -6.020311 0
M  V30 16 C 9.750209 7.331231 -6.782191 0
M  V30 17 C 9.971553 7.247107 -8.169706 0
M  V30 18 C 9.232829 6.417933 -9.190886 0 CFG=2
M  V30 19 C 9.286419 4.921753 -8.829007 0
M  V30 20 C 6.963655 3.919923 -12.870524 0 CFG=1
M  V30 21 C 5.685932 4.748442 -12.894120 0
M  V30 22 C 7.096511 2.915270 -14.017359 0
M  V30 23 H 8.560150 0.831359 -17.088076 0
M  V30 24 H 8.070127 0.250939 -15.503778 0
M  V30 25 H 7.141895 1.507068 -16.322878 0
M  V30 26 H 9.037065 3.101182 -16.103832 0
M  V30 27 H 10.851053 1.378222 -16.367834 0
M  V30 28 H 11.189231 2.424981 -15.008981 0
M  V30 29 H 10.553895 0.807347 -14.731709 0
M  V30 30 H 10.045653 4.151833 -14.072197 0
M  V30 31 H 9.782363 3.277126 -12.567844 0
M  V30 32 H 8.094370 5.448937 -13.854321 0
M  V30 33 H 7.956412 5.458898 -11.041074 0
M  V30 34 H 10.850483 8.628278 -10.793273 0
M  V30 35 H 11.981634 7.282101 -10.539861 0
M  V30 36 H 12.664042 9.305364 -8.518760 0
M  V30 37 H 12.306126 9.505960 -6.048966 0
M  V30 38 H 10.485962 8.230512 -4.951749 0
M  V30 39 H 8.952213 6.774739 -6.311786 0
M  V30 40 H 8.196241 6.749668 -9.225178 0
M  V30 41 H 8.846835 4.750463 -7.846948 0
M  V30 42 H 8.729851 4.298033 -9.526269 0
M  V30 43 H 10.314163 4.559880 -8.798830 0
M  V30 44 H 6.992456 3.374389 -11.926178 0
M  V30 45 H 5.549614 5.265380 -13.842733 0
M  V30 46 H 4.815849 4.110100 -12.743949 0
M  V30 47 H 5.686357 5.497039 -12.099915 0
M  V30 48 H 6.742255 3.371028 -14.940956 0
M  V30 49 H 6.504444 2.015840 -13.843965 0
M  V30 50 H 8.693887 1.792276 -13.531129 0
M  V30 END ATOM
M  V30 BEGIN BOND
M  V30 1 1 2 1
M  V30 2 1 3 2
M  V30 3 1 4 2
M  V30 4 1 5 4
M  V30 5 1 6 5
M  V30 6 1 7 6
M  V30 7 1 8 7
M  V30 8 2 9 8
M  V30 9 1 10 8
M  V30 10 1 11 10
M  V30 11 1 12 11
M  V30 12 2 13 12
M  V30 13 1 14 13
M  V30 14 2 15 14
M  V30 15 1 16 15
M  V30 16 1 17 12
M  V30 17 2 17 16
M  V30 18 1 18 10
M  V30 19 1 18 17
M  V30 20 1 19 18
M  V30 21 1 20 6
M  V30 22 1 21 20
M  V30 23 1 22 4
M  V30 24 1 22 20
M  V30 25 1 23 1
M  V30 26 1 24 1
M  V30 27 1 25 1
M  V30 28 1 26 2
M  V30 29 1 27 3
M  V30 30 1 28 3
M  V30 31 1 29 3
M  V30 32 1 30 5
M  V30 33 1 31 5
M  V30 34 1 6 32 CFG=3
M  V30 35 1 33 7
M  V30 36 1 34 11
M  V30 37 1 35 11
M  V30 38 1 36 13
M  V30 39 1 37 14
M  V30 40 1 38 15
M  V30 41 1 39 16
M  V30 42 1 18 40 CFG=3
M  V30 43 1 41 19
M  V30 44 1 42 19
M  V30 45 1 43 19
M  V30 46 1 20 44 CFG=1
M  V30 47 1 45 21
M  V30 48 1 46 21
M  V30 49 1 47 21
M  V30 50 1 48 22
M  V30 51 1 49 22
M  V30 52 1 4 50 CFG=1
M  V30 END BOND
M  V30 END CTAB
M  END
>  <b_m_subgroup_collapsed>  (1835) 
0

>  <r_i_docking_score>  (1835) 
-6.5994922267150704

>  <s_m_subgroup_title>  (1835) 
glide-dock_SP_D22_pv

>  <s_m_subgroupid>  (1835) 
glide-dock_SP_D22_pv

>  <Molecule ChEMBL ID>  (1835) 
CHEMBL5290993

>  <Standard Type>  (1835) 
Ki

>  <Standard Value>  (1835) 
10000.0

>  <label>  (1835) 
0

$$$$
CHEMBL1224698
     RDKit          3D

  0  0  0  0  0  0  0  0  0  0999 V3000
M  V30 BEGIN CTAB
M  V30 COUNTS 57 60 0 0 1
M  V30 BEGIN ATOM
M  V30 1 C 12.747924 8.739362 -2.205738 0
M  V30 2 C 12.463161 9.371090 -3.355937 0
M  V30 3 C 11.285916 9.028159 -4.241275 0
M  V30 4 N 11.720163 8.835618 -5.642079 0 CFG=2 CHG=1
M  V30 5 C 11.468861 9.959835 -6.574113 0
M  V30 6 C 11.487143 9.323893 -7.951413 0 CFG=1
M  V30 7 C 12.648537 8.463033 -8.380913 0
M  V30 8 C 11.385482 7.841322 -7.787834 0 CFG=2
M  V30 9 C 10.488377 6.998848 -8.669255 0
M  V30 10 C 9.747948 5.908471 -8.159418 0
M  V30 11 C 8.855167 5.191320 -8.974106 0
M  V30 12 C 8.687419 5.532890 -10.326975 0
M  V30 13 N 7.687923 4.865102 -11.046889 0
M  V30 14 S 7.096547 5.112112 -12.648865 0
M  V30 15 O 5.686080 4.692556 -12.622354 0
M  V30 16 O 7.476352 6.473329 -13.046844 0
M  V30 17 C 8.031639 3.935109 -13.608814 0
M  V30 18 C 7.355444 2.878558 -14.246607 0
M  V30 19 C 8.082413 1.953488 -15.015474 0
M  V30 20 C 9.485248 2.069745 -15.136827 0
M  V30 21 C 10.270898 1.084738 -15.992116 0
M  V30 22 C 10.102299 1.409144 -17.482553 0
M  V30 23 C 9.905112 -0.376817 -15.688889 0
M  V30 24 C 10.154644 3.126539 -14.480560 0
M  V30 25 C 9.429012 4.065344 -13.719781 0
M  V30 26 C 9.487003 6.563347 -10.865071 0
M  V30 27 C 10.355954 7.297165 -10.041843 0
M  V30 28 C 11.198651 7.616549 -6.297269 0
M  V30 29 H 12.131727 7.931601 -1.835405 0
M  V30 30 H 13.603193 9.027462 -1.613668 0
M  V30 31 H 13.108842 10.172257 -3.679166 0
M  V30 32 H 10.893746 8.082488 -3.875756 0
M  V30 33 H 10.489627 9.770639 -4.159290 0
M  V30 34 H 10.486106 10.394416 -6.399554 0
M  V30 35 H 12.220835 10.743195 -6.483460 0
M  V30 36 H 10.879688 9.773387 -8.729656 0
M  V30 37 H 12.830569 8.375202 -9.448742 0
M  V30 38 H 13.551003 8.572992 -7.787327 0
M  V30 39 H 9.815020 5.618438 -7.123574 0
M  V30 40 H 8.263131 4.400213 -8.536599 0
M  V30 41 H 6.988687 4.459076 -10.432838 0
M  V30 42 H 6.283933 2.778073 -14.158360 0
M  V30 43 H 7.549580 1.161138 -15.517823 0
M  V30 44 H 11.326108 1.208826 -15.747314 0
M  V30 45 H 10.422573 2.428267 -17.700001 0
M  V30 46 H 10.699021 0.738544 -18.099476 0
M  V30 47 H 9.063908 1.314035 -17.795853 0
M  V30 48 H 10.092505 -0.623573 -14.644450 0
M  V30 49 H 8.856680 -0.591342 -15.895185 0
M  V30 50 H 10.486197 -1.066953 -16.300428 0
M  V30 51 H 11.227267 3.230850 -14.565620 0
M  V30 52 H 9.940022 4.875533 -13.223068 0
M  V30 53 H 9.426342 6.854771 -11.898570 0
M  V30 54 H 10.897088 8.116450 -10.488102 0
M  V30 55 H 11.686048 6.703411 -5.955662 0
M  V30 56 H 10.131491 7.551750 -6.072056 0
M  V30 57 H 12.723765 8.720070 -5.618967 0
M  V30 END ATOM
M  V30 BEGIN BOND
M  V30 1 2 2 1
M  V30 2 1 3 2
M  V30 3 1 4 3
M  V30 4 1 5 4
M  V30 5 1 6 5
M  V30 6 1 7 6
M  V30 7 1 8 6
M  V30 8 1 8 7
M  V30 9 1 8 9 CFG=3
M  V30 10 1 10 9
M  V30 11 2 11 10
M  V30 12 1 12 11
M  V30 13 1 13 12
M  V30 14 1 14 13
M  V30 15 2 15 14
M  V30 16 2 16 14
M  V30 17 1 17 14
M  V30 18 1 18 17
M  V30 19 2 19 18
M  V30 20 1 20 19
M  V30 21 1 21 20
M  V30 22 1 22 21
M  V30 23 1 23 21
M  V30 24 2 24 20
M  V30 25 2 25 17
M  V30 26 1 25 24
M  V30 27 2 26 12
M  V30 28 2 27 9
M  V30 29 1 27 26
M  V30 30 1 28 4
M  V30 31 1 28 8
M  V30 32 1 29 1
M  V30 33 1 30 1
M  V30 34 1 31 2
M  V30 35 1 32 3
M  V30 36 1 33 3
M  V30 37 1 34 5
M  V30 38 1 35 5
M  V30 39 1 6 36 CFG=3
M  V30 40 1 37 7
M  V30 41 1 38 7
M  V30 42 1 39 10
M  V30 43 1 40 11
M  V30 44 1 41 13
M  V30 45 1 42 18
M  V30 46 1 43 19
M  V30 47 1 44 21
M  V30 48 1 45 22
M  V30 49 1 46 22
M  V30 50 1 47 22
M  V30 51 1 48 23
M  V30 52 1 49 23
M  V30 53 1 50 23
M  V30 54 1 51 24
M  V30 55 1 52 25
M  V30 56 1 53 26
M  V30 57 1 54 27
M  V30 58 1 55 28
M  V30 59 1 56 28
M  V30 60 1 4 57 CFG=1
M  V30 END BOND
M  V30 END CTAB
M  END
>  <b_m_subgroup_collapsed>  (1836) 
0

>  <r_i_docking_score>  (1836) 
-6.5965078701278701

>  <s_m_subgroup_title>  (1836) 
glide-dock_SP_D22_pv

>  <s_m_subgroupid>  (1836) 
glide-dock_SP_D22_pv

>  <Molecule ChEMBL ID>  (1836) 
CHEMBL1224698

>  <Standard Type>  (1836) 
Ki

>  <Standard Value>  (1836) 
63.1

>  <label>  (1836) 
1

$$$$
CHEMBL166325
     RDKit          3D

  0  0  0  0  0  0  0  0  0  0999 V3000
M  V30 BEGIN CTAB
M  V30 COUNTS 49 50 0 0 1
M  V30 BEGIN ATOM
M  V30 1 C 5.669557 3.679471 -12.419984 0
M  V30 2 C 6.129747 4.914577 -13.192649 0
M  V30 3 C 7.093930 5.817934 -12.396846 0
M  V30 4 N 8.414769 5.176893 -12.167785 0 CHG=1
M  V30 5 C 9.262756 5.159848 -13.394421 0
M  V30 6 C 10.274075 4.003332 -13.407266 0
M  V30 7 C 10.978408 3.854257 -14.760915 0
M  V30 8 C 9.140811 5.657653 -10.954124 0 CFG=1
M  V30 9 C 9.448347 7.177324 -10.945766 0
M  V30 10 C 10.037822 7.634810 -9.620644 0
M  V30 11 C 10.028756 6.884124 -8.501079 0
M  V30 12 C 10.573757 7.382071 -7.284138 0
M  V30 13 C 11.003535 7.686234 -6.183675 0
M  V30 14 C 11.468141 7.935672 -4.833885 0
M  V30 15 C 11.675187 9.250420 -4.374825 0
M  V30 16 C 12.085876 9.466019 -3.045532 0
M  V30 17 C 12.313506 8.375451 -2.187517 0
M  V30 18 C 12.108455 7.060309 -2.646387 0
M  V30 19 C 11.686126 6.843198 -3.970808 0
M  V30 20 C 9.415887 5.493216 -8.446068 0
M  V30 21 C 8.485749 5.222857 -9.635086 0
M  V30 22 H 4.882433 3.149885 -12.957432 0
M  V30 23 H 6.486542 2.981179 -12.260442 0
M  V30 24 H 5.280767 3.962672 -11.446881 0
M  V30 25 H 5.256095 5.511946 -13.446686 0
M  V30 26 H 6.549035 4.586806 -14.142759 0
M  V30 27 H 6.615583 6.059196 -11.450081 0
M  V30 28 H 7.234680 6.770229 -12.913051 0
M  V30 29 H 8.643890 5.066106 -14.283663 0
M  V30 30 H 9.783824 6.109160 -13.505572 0
M  V30 31 H 11.033859 4.171937 -12.647520 0
M  V30 32 H 9.776031 3.064232 -13.159648 0
M  V30 33 H 11.679100 3.019105 -14.742196 0
M  V30 34 H 10.263703 3.662645 -15.561355 0
M  V30 35 H 11.538375 4.753493 -15.017339 0
M  V30 36 H 10.087117 5.130318 -10.948715 0
M  V30 37 H 8.546303 7.764238 -11.118800 0
M  V30 38 H 10.154926 7.433893 -11.734489 0
M  V30 39 H 10.452843 8.632416 -9.601991 0
M  V30 40 H 11.502289 10.092566 -5.028539 0
M  V30 41 H 12.224061 10.471710 -2.677898 0
M  V30 42 H 12.631874 8.554084 -1.169886 0
M  V30 43 H 12.267704 6.220170 -1.985260 0
M  V30 44 H 11.520849 5.832869 -4.317880 0
M  V30 45 H 10.226176 4.761150 -8.433502 0
M  V30 46 H 8.858943 5.372021 -7.515264 0
M  V30 47 H 8.198560 4.172280 -9.653762 0
M  V30 48 H 7.584241 5.801549 -9.474467 0
M  V30 49 H 8.196927 4.210417 -11.973018 0
M  V30 END ATOM
M  V30 BEGIN BOND
M  V30 1 1 2 1
M  V30 2 1 3 2
M  V30 3 1 4 3
M  V30 4 1 5 4
M  V30 5 1 6 5
M  V30 6 1 7 6
M  V30 7 1 8 4
M  V30 8 1 9 8
M  V30 9 1 10 9
M  V30 10 2 11 10
M  V30 11 1 12 11
M  V30 12 3 13 12
M  V30 13 1 14 13
M  V30 14 2 15 14
M  V30 15 1 16 15
M  V30 16 2 17 16
M  V30 17 1 18 17
M  V30 18 1 19 14
M  V30 19 2 19 18
M  V30 20 1 20 11
M  V30 21 1 21 8
M  V30 22 1 21 20
M  V30 23 1 22 1
M  V30 24 1 23 1
M  V30 25 1 24 1
M  V30 26 1 25 2
M  V30 27 1 26 2
M  V30 28 1 27 3
M  V30 29 1 28 3
M  V30 30 1 29 5
M  V30 31 1 30 5
M  V30 32 1 31 6
M  V30 33 1 32 6
M  V30 34 1 33 7
M  V30 35 1 34 7
M  V30 36 1 35 7
M  V30 37 1 8 36 CFG=3
M  V30 38 1 37 9
M  V30 39 1 38 9
M  V30 40 1 39 10
M  V30 41 1 40 15
M  V30 42 1 41 16
M  V30 43 1 42 17
M  V30 44 1 43 18
M  V30 45 1 44 19
M  V30 46 1 45 20
M  V30 47 1 46 20
M  V30 48 1 47 21
M  V30 49 1 48 21
M  V30 50 1 49 4
M  V30 END BOND
M  V30 END CTAB
M  END
>  <b_m_subgroup_collapsed>  (1837) 
0

>  <r_i_docking_score>  (1837) 
-6.5956259752127897

>  <s_m_subgroup_title>  (1837) 
glide-dock_SP_D22_pv

>  <s_m_subgroupid>  (1837) 
glide-dock_SP_D22_pv

>  <Molecule ChEMBL ID>  (1837) 
CHEMBL166325

>  <Standard Type>  (1837) 
Ki

>  <Standard Value>  (1837) 
15000.0

>  <label>  (1837) 
0

$$$$
CHEMBL62703
     RDKit          3D

  0  0  0  0  0  0  0  0  0  0999 V3000
M  V30 BEGIN CTAB
M  V30 COUNTS 49 52 0 0 1
M  V30 BEGIN ATOM
M  V30 1 C 7.004506 0.168397 -14.725956 0
M  V30 2 C 7.989540 1.087715 -15.135000 0
M  V30 3 C 7.926653 2.423158 -14.696709 0
M  V30 4 C 6.879879 2.841452 -13.847262 0
M  V30 5 C 6.819161 4.271512 -13.352001 0
M  V30 6 N 8.007648 4.637651 -12.533235 0 CHG=1
M  V30 7 C 7.686045 4.926601 -11.114405 0
M  V30 8 C 8.916280 5.367718 -10.308290 0
M  V30 9 N 9.505630 6.552763 -10.928723 0
M  V30 10 C 10.614829 7.044839 -10.117017 0
M  V30 11 C 10.386897 7.663803 -8.773682 0
M  V30 12 C 9.448494 8.573474 -8.371038 0
M  V30 13 O 9.685616 8.907274 -7.064500 0
M  V30 14 C 10.758210 8.148403 -6.707573 0
M  V30 15 C 11.254888 8.259045 -5.345191 0
M  V30 16 C 11.662402 7.103648 -4.644538 0
M  V30 17 C 12.086205 7.199088 -3.304492 0
M  V30 18 C 12.116021 8.453527 -2.665084 0
M  V30 19 C 11.721405 9.608684 -3.366942 0
M  V30 20 C 11.286105 9.513984 -4.701259 0
M  V30 21 N 11.210004 7.376996 -7.693495 0
M  V30 22 C 9.961968 6.172125 -12.266812 0
M  V30 23 C 8.751134 5.772871 -13.124267 0
M  V30 24 C 5.891224 1.915118 -13.446834 0
M  V30 25 C 5.957113 0.578748 -13.882491 0
M  V30 26 H 7.052615 -0.857780 -15.060616 0
M  V30 27 H 8.792146 0.764244 -15.781856 0
M  V30 28 H 8.688002 3.120644 -15.014915 0
M  V30 29 H 5.894755 4.440889 -12.795597 0
M  V30 30 H 6.749598 4.897641 -14.239507 0
M  V30 31 H 7.283672 4.020782 -10.662024 0
M  V30 32 H 6.911606 5.695598 -11.050319 0
M  V30 33 H 9.643534 4.556382 -10.244686 0
M  V30 34 H 8.604561 5.600655 -9.289575 0
M  V30 35 H 11.177947 7.763087 -10.715753 0
M  V30 36 H 11.283707 6.206608 -9.961751 0
M  V30 37 H 8.616905 9.051952 -8.867418 0
M  V30 38 H 11.625679 6.138171 -5.128092 0
M  V30 39 H 12.381964 6.308573 -2.768152 0
M  V30 40 H 12.438418 8.532477 -1.637933 0
M  V30 41 H 11.745130 10.571278 -2.872660 0
M  V30 42 H 10.971302 10.404022 -5.227842 0
M  V30 43 H 10.461508 7.023543 -12.731406 0
M  V30 44 H 10.680379 5.355577 -12.245746 0
M  V30 45 H 9.080298 5.505107 -14.130027 0
M  V30 46 H 8.081408 6.628401 -13.225724 0
M  V30 47 H 5.083903 2.220856 -12.796552 0
M  V30 48 H 5.205610 -0.132993 -13.572598 0
M  V30 49 H 8.626598 3.840291 -12.540092 0
M  V30 END ATOM
M  V30 BEGIN BOND
M  V30 1 2 2 1
M  V30 2 1 3 2
M  V30 3 2 4 3
M  V30 4 1 5 4
M  V30 5 1 6 5
M  V30 6 1 7 6
M  V30 7 1 8 7
M  V30 8 1 9 8
M  V30 9 1 10 9
M  V30 10 1 11 10
M  V30 11 2 12 11
M  V30 12 1 13 12
M  V30 13 1 14 13
M  V30 14 1 15 14
M  V30 15 2 16 15
M  V30 16 1 17 16
M  V30 17 2 18 17
M  V30 18 1 19 18
M  V30 19 1 20 15
M  V30 20 2 20 19
M  V30 21 1 21 11
M  V30 22 2 21 14
M  V30 23 1 22 9
M  V30 24 1 23 6
M  V30 25 1 23 22
M  V30 26 1 24 4
M  V30 27 1 25 1
M  V30 28 2 25 24
M  V30 29 1 26 1
M  V30 30 1 27 2
M  V30 31 1 28 3
M  V30 32 1 29 5
M  V30 33 1 30 5
M  V30 34 1 31 7
M  V30 35 1 32 7
M  V30 36 1 33 8
M  V30 37 1 34 8
M  V30 38 1 35 10
M  V30 39 1 36 10
M  V30 40 1 37 12
M  V30 41 1 38 16
M  V30 42 1 39 17
M  V30 43 1 40 18
M  V30 44 1 41 19
M  V30 45 1 42 20
M  V30 46 1 43 22
M  V30 47 1 44 22
M  V30 48 1 45 23
M  V30 49 1 46 23
M  V30 50 1 47 24
M  V30 51 1 48 25
M  V30 52 1 49 6
M  V30 END BOND
M  V30 END CTAB
M  END
>  <b_m_subgroup_collapsed>  (1838) 
0

>  <r_i_docking_score>  (1838) 
-6.59294264775047

>  <s_m_subgroup_title>  (1838) 
glide-dock_SP_D22_pv

>  <s_m_subgroupid>  (1838) 
glide-dock_SP_D22_pv

>  <Molecule ChEMBL ID>  (1838) 
CHEMBL62703

>  <Standard Type>  (1838) 
Ki

>  <Standard Value>  (1838) 
21500.0

>  <label>  (1838) 
0

$$$$
CHEMBL5288831
     RDKit          3D

  0  0  0  0  0  0  0  0  0  0999 V3000
M  V30 BEGIN CTAB
M  V30 COUNTS 67 71 0 0 1
M  V30 BEGIN ATOM
M  V30 1 C 7.517628 1.655699 -17.037849 0
M  V30 2 C 8.991688 1.368914 -16.693846 0 CFG=1
M  V30 3 C 9.833338 1.522646 -17.983210 0
M  V30 4 O 11.214603 1.255164 -17.737749 0
M  V30 5 C 11.785838 2.069864 -16.717018 0 CFG=1
M  V30 6 C 11.953732 3.528235 -17.147316 0
M  V30 7 C 11.626969 4.619836 -16.308413 0
M  V30 8 C 11.848140 5.930161 -16.770012 0
M  V30 9 C 12.393622 6.100153 -18.055044 0
M  V30 10 N 12.625504 7.373675 -18.557348 0
M  V30 11 N 12.720083 5.072744 -18.864355 0
M  V30 12 C 12.504188 3.820218 -18.412216 0
M  V30 13 C 10.958753 1.854641 -15.432810 0
M  V30 14 N 9.543348 2.203009 -15.615586 0
M  V30 15 C 8.772666 2.131588 -14.366710 0
M  V30 16 C 9.363360 2.987298 -13.259119 0
M  V30 17 C 8.821994 4.099422 -12.731839 0
M  V30 18 C 7.536153 4.765689 -13.163340 0
M  V30 19 C 7.619666 6.179092 -12.582325 0
M  V30 20 C 8.488401 6.049560 -11.319642 0 CFG=2
M  V30 21 C 9.188424 7.354753 -10.898845 0
M  V30 22 N 9.731876 7.253922 -9.547894 0
M  V30 23 C 10.315459 8.280856 -8.914905 0
M  V30 24 O 10.515975 9.372106 -9.447075 0
M  V30 25 C 10.658066 8.082826 -7.495759 0
M  V30 26 C 10.931533 6.976697 -6.728707 0
M  V30 27 C 11.285613 7.456556 -5.418720 0
M  V30 28 C 11.686042 6.849816 -4.205896 0
M  V30 29 C 12.013260 7.622358 -3.071821 0
M  V30 30 C 11.879859 9.024561 -3.104437 0
M  V30 31 C 11.432688 9.653888 -4.282161 0
M  V30 32 C 11.178232 8.876836 -5.425587 0
M  V30 33 N 10.804213 9.210565 -6.707299 0
M  V30 34 C 9.467018 4.908484 -11.633321 0
M  V30 35 H 7.192171 1.039427 -17.878355 0
M  V30 36 H 6.849620 1.419006 -16.209393 0
M  V30 37 H 7.372279 2.694313 -17.314316 0
M  V30 38 H 9.054456 0.322677 -16.384239 0
M  V30 39 H 9.718953 2.520918 -18.398880 0
M  V30 40 H 9.484816 0.827377 -18.751009 0
M  V30 41 H 12.794906 1.689539 -16.547537 0
M  V30 42 H 11.208405 4.480348 -15.323743 0
M  V30 43 H 11.602815 6.782984 -16.154461 0
M  V30 44 H 12.383724 8.205403 -18.037582 0
M  V30 45 H 12.983252 7.498984 -19.491840 0
M  V30 46 H 12.781958 3.024286 -19.085775 0
M  V30 47 H 11.422794 2.427894 -14.633292 0
M  V30 48 H 11.034968 0.808458 -15.130526 0
M  V30 49 H 8.720864 1.099833 -14.011163 0
M  V30 50 H 7.747874 2.454805 -14.533783 0
M  V30 51 H 10.295561 2.637826 -12.843113 0
M  V30 52 H 7.422519 4.766483 -14.245215 0
M  V30 53 H 6.697692 4.223830 -12.728544 0
M  V30 54 H 8.086385 6.847134 -13.305773 0
M  V30 55 H 6.632741 6.588828 -12.358264 0
M  V30 56 H 7.822707 5.731316 -10.515038 0
M  V30 57 H 9.986213 7.602597 -11.602569 0
M  V30 58 H 8.486145 8.188523 -10.930555 0
M  V30 59 H 9.541983 6.411958 -9.025823 0
M  V30 60 H 10.920289 5.943703 -7.043641 0
M  V30 61 H 11.768553 5.774285 -4.159735 0
M  V30 62 H 12.340738 7.134752 -2.165046 0
M  V30 63 H 12.101023 9.613736 -2.225982 0
M  V30 64 H 11.286007 10.723233 -4.312710 0
M  V30 65 H 10.667430 10.140446 -7.081065 0
M  V30 66 H 9.686965 4.298094 -10.757206 0
M  V30 67 H 10.404444 5.298893 -12.023288 0
M  V30 END ATOM
M  V30 BEGIN BOND
M  V30 1 1 2 1
M  V30 2 1 3 2
M  V30 3 1 4 3
M  V30 4 1 5 4
M  V30 5 1 6 5
M  V30 6 1 7 6
M  V30 7 2 8 7
M  V30 8 1 9 8
M  V30 9 1 10 9
M  V30 10 2 11 9
M  V30 11 2 12 6
M  V30 12 1 12 11
M  V30 13 1 13 5
M  V30 14 1 14 2
M  V30 15 1 14 13
M  V30 16 1 15 14
M  V30 17 1 16 15
M  V30 18 2 17 16
M  V30 19 1 18 17
M  V30 20 1 19 18
M  V30 21 1 20 19
M  V30 22 1 21 20
M  V30 23 1 22 21
M  V30 24 1 23 22
M  V30 25 2 24 23
M  V30 26 1 25 23
M  V30 27 2 26 25
M  V30 28 1 27 26
M  V30 29 2 28 27
M  V30 30 1 29 28
M  V30 31 2 30 29
M  V30 32 1 31 30
M  V30 33 1 32 27
M  V30 34 2 32 31
M  V30 35 1 33 25
M  V30 36 1 33 32
M  V30 37 1 34 17
M  V30 38 1 34 20
M  V30 39 1 35 1
M  V30 40 1 36 1
M  V30 41 1 37 1
M  V30 42 1 2 38 CFG=1
M  V30 43 1 39 3
M  V30 44 1 40 3
M  V30 45 1 5 41 CFG=1
M  V30 46 1 42 7
M  V30 47 1 43 8
M  V30 48 1 44 10
M  V30 49 1 45 10
M  V30 50 1 46 12
M  V30 51 1 47 13
M  V30 52 1 48 13
M  V30 53 1 49 15
M  V30 54 1 50 15
M  V30 55 1 51 16
M  V30 56 1 52 18
M  V30 57 1 53 18
M  V30 58 1 54 19
M  V30 59 1 55 19
M  V30 60 1 20 56 CFG=1
M  V30 61 1 57 21
M  V30 62 1 58 21
M  V30 63 1 59 22
M  V30 64 1 60 26
M  V30 65 1 61 28
M  V30 66 1 62 29
M  V30 67 1 63 30
M  V30 68 1 64 31
M  V30 69 1 65 33
M  V30 70 1 66 34
M  V30 71 1 67 34
M  V30 END BOND
M  V30 END CTAB
M  END
>  <b_m_subgroup_collapsed>  (1839) 
0

>  <r_i_docking_score>  (1839) 
-6.5927017715978096

>  <s_m_subgroup_title>  (1839) 
glide-dock_SP_D22_pv

>  <s_m_subgroupid>  (1839) 
glide-dock_SP_D22_pv

>  <Molecule ChEMBL ID>  (1839) 
CHEMBL5288831

>  <Standard Type>  (1839) 
Ki

>  <Standard Value>  (1839) 
55.9

>  <label>  (1839) 
1

$$$$
CHEMBL2030622
     RDKit          3D

  0  0  0  0  0  0  0  0  0  0999 V3000
M  V30 BEGIN CTAB
M  V30 COUNTS 32 34 0 0 1
M  V30 BEGIN ATOM
M  V30 1 C 12.374243 8.038756 -2.435011 0
M  V30 2 C 12.082255 9.356209 -2.824801 0
M  V30 3 C 11.561578 9.613174 -4.106123 0
M  V30 4 C 11.372998 8.565794 -5.029313 0
M  V30 5 C 10.853401 8.927459 -6.415910 0
M  V30 6 N 10.238698 7.797330 -7.158046 0 CFG=1 CHG=1
M  V30 7 C 9.319215 8.132292 -8.254032 0 CFG=2
M  V30 8 C 8.886010 6.724243 -8.699303 0
M  V30 9 C 10.160293 5.903330 -8.502615 0
M  V30 10 C 11.136961 6.973313 -7.978065 0 CFG=1
M  V30 11 C 11.517587 7.885000 -9.166751 0
M  V30 12 C 10.235510 8.714406 -9.349688 0
M  V30 13 C 11.685133 7.240792 -4.635005 0
M  V30 14 C 12.163337 6.979403 -3.336420 0
M  V30 15 H 12.752412 7.843159 -1.442827 0
M  V30 16 H 12.228951 10.168397 -2.128686 0
M  V30 17 H 11.302174 10.623428 -4.380102 0
M  V30 18 H 10.086896 9.690317 -6.282531 0
M  V30 19 H 11.656150 9.406746 -6.975613 0
M  V30 20 H 8.485394 8.778587 -7.976635 0
M  V30 21 H 8.520852 6.703353 -9.728089 0
M  V30 22 H 8.086517 6.340232 -8.064781 0
M  V30 23 H 10.486231 5.432101 -9.428754 0
M  V30 24 H 9.989594 5.115168 -7.773911 0
M  V30 25 H 11.997592 6.566244 -7.446050 0
M  V30 26 H 12.369470 8.526448 -8.932807 0
M  V30 27 H 11.776737 7.317482 -10.061769 0
M  V30 28 H 9.806835 8.610369 -10.347531 0
M  V30 29 H 10.436845 9.771487 -9.185236 0
M  V30 30 H 11.545221 6.399971 -5.295633 0
M  V30 31 H 12.383990 5.964756 -3.037363 0
M  V30 32 H 9.741187 7.217439 -6.496960 0
M  V30 END ATOM
M  V30 BEGIN BOND
M  V30 1 2 2 1
M  V30 2 1 3 2
M  V30 3 2 4 3
M  V30 4 1 5 4
M  V30 5 1 6 5
M  V30 6 1 7 6
M  V30 7 1 8 7
M  V30 8 1 9 8
M  V30 9 1 10 6
M  V30 10 1 10 9
M  V30 11 1 11 10
M  V30 12 1 12 7
M  V30 13 1 12 11
M  V30 14 1 13 4
M  V30 15 1 14 1
M  V30 16 2 14 13
M  V30 17 1 15 1
M  V30 18 1 16 2
M  V30 19 1 17 3
M  V30 20 1 18 5
M  V30 21 1 19 5
M  V30 22 1 7 20 CFG=3
M  V30 23 1 21 8
M  V30 24 1 22 8
M  V30 25 1 23 9
M  V30 26 1 24 9
M  V30 27 1 10 25 CFG=3
M  V30 28 1 26 11
M  V30 29 1 27 11
M  V30 30 1 28 12
M  V30 31 1 29 12
M  V30 32 1 30 13
M  V30 33 1 31 14
M  V30 34 1 6 32 CFG=1
M  V30 END BOND
M  V30 END CTAB
M  END
>  <b_m_subgroup_collapsed>  (1840) 
0

>  <r_i_docking_score>  (1840) 
-6.5924145820453797

>  <s_m_subgroup_title>  (1840) 
glide-dock_SP_D22_pv

>  <s_m_subgroupid>  (1840) 
glide-dock_SP_D22_pv

>  <Molecule ChEMBL ID>  (1840) 
CHEMBL2030622

>  <Standard Type>  (1840) 
Ki

>  <Standard Value>  (1840) 
10000.0

>  <label>  (1840) 
0

$$$$
CHEMBL4438361
     RDKit          3D

  0  0  0  0  0  0  0  0  0  0999 V3000
M  V30 BEGIN CTAB
M  V30 COUNTS 46 47 0 0 1
M  V30 BEGIN ATOM
M  V30 1 C 10.987199 8.513948 -5.703641 0
M  V30 2 C 10.819562 7.030902 -6.062166 0
M  V30 3 C 10.584436 6.780336 -7.561439 0
M  V30 4 C 9.198426 7.253781 -8.050348 0
M  V30 5 N 8.886027 6.888494 -9.455860 0 CHG=1
M  V30 6 C 8.714881 5.434574 -9.691779 0
M  V30 7 C 8.087803 5.195362 -11.073932 0
M  V30 8 N 8.849524 5.886449 -12.114699 0
M  V30 9 C 9.512986 5.138412 -13.113820 0
M  V30 10 C 10.869267 5.408377 -13.416762 0
M  V30 11 C 11.563716 4.654155 -14.378747 0
M  V30 12 C 10.902268 3.625338 -15.068694 0
M  V30 13 C 9.547221 3.359363 -14.801487 0
M  V30 14 C 8.839118 4.107061 -13.826191 0
M  V30 15 O 7.499036 3.901807 -13.564855 0
M  V30 16 C 6.886545 2.695570 -13.998294 0
M  V30 17 C 5.607177 2.514206 -13.176567 0
M  V30 18 F 5.035897 1.340606 -13.446630 0
M  V30 19 C 9.149272 7.299345 -11.885601 0
M  V30 20 C 9.744603 7.526130 -10.483738 0
M  V30 21 H 11.214986 8.630776 -4.644135 0
M  V30 22 H 11.803247 8.968186 -6.267146 0
M  V30 23 H 10.081100 9.083901 -5.908196 0
M  V30 24 H 10.003174 6.597326 -5.480169 0
M  V30 25 H 11.718946 6.495160 -5.755613 0
M  V30 26 H 10.690909 5.710493 -7.733867 0
M  V30 27 H 11.377018 7.261008 -8.136611 0
M  V30 28 H 9.115016 8.336760 -7.951664 0
M  V30 29 H 8.421857 6.837212 -7.407809 0
M  V30 30 H 8.086171 4.998311 -8.916076 0
M  V30 31 H 9.679217 4.927628 -9.641528 0
M  V30 32 H 7.060521 5.563868 -11.089428 0
M  V30 33 H 8.043020 4.122819 -11.249030 0
M  V30 34 H 11.408561 6.181143 -12.891190 0
M  V30 35 H 12.602938 4.864420 -14.584942 0
M  V30 36 H 11.430687 3.045662 -15.811261 0
M  V30 37 H 9.064433 2.579873 -15.371029 0
M  V30 38 H 6.651188 2.753883 -15.060534 0
M  V30 39 H 7.539562 1.834501 -13.846630 0
M  V30 40 H 5.815848 2.534641 -12.106633 0
M  V30 41 H 4.885835 3.301002 -13.394620 0
M  V30 42 H 9.813244 7.706419 -12.645493 0
M  V30 43 H 8.213810 7.853282 -11.975755 0
M  V30 44 H 9.828498 8.596414 -10.288686 0
M  V30 45 H 10.751901 7.108078 -10.438011 0
M  V30 46 H 7.951902 7.272771 -9.631822 0
M  V30 END ATOM
M  V30 BEGIN BOND
M  V30 1 1 2 1
M  V30 2 1 3 2
M  V30 3 1 4 3
M  V30 4 1 5 4
M  V30 5 1 6 5
M  V30 6 1 7 6
M  V30 7 1 8 7
M  V30 8 1 9 8
M  V30 9 2 10 9
M  V30 10 1 11 10
M  V30 11 2 12 11
M  V30 12 1 13 12
M  V30 13 1 14 9
M  V30 14 2 14 13
M  V30 15 1 15 14
M  V30 16 1 16 15
M  V30 17 1 17 16
M  V30 18 1 18 17
M  V30 19 1 19 8
M  V30 20 1 20 5
M  V30 21 1 20 19
M  V30 22 1 21 1
M  V30 23 1 22 1
M  V30 24 1 23 1
M  V30 25 1 24 2
M  V30 26 1 25 2
M  V30 27 1 26 3
M  V30 28 1 27 3
M  V30 29 1 28 4
M  V30 30 1 29 4
M  V30 31 1 30 6
M  V30 32 1 31 6
M  V30 33 1 32 7
M  V30 34 1 33 7
M  V30 35 1 34 10
M  V30 36 1 35 11
M  V30 37 1 36 12
M  V30 38 1 37 13
M  V30 39 1 38 16
M  V30 40 1 39 16
M  V30 41 1 40 17
M  V30 42 1 41 17
M  V30 43 1 42 19
M  V30 44 1 43 19
M  V30 45 1 44 20
M  V30 46 1 45 20
M  V30 47 1 46 5
M  V30 END BOND
M  V30 END CTAB
M  END
>  <b_m_subgroup_collapsed>  (1841) 
0

>  <r_i_docking_score>  (1841) 
-6.5913293202549301

>  <s_m_subgroup_title>  (1841) 
glide-dock_SP_D22_pv

>  <s_m_subgroupid>  (1841) 
glide-dock_SP_D22_pv

>  <Molecule ChEMBL ID>  (1841) 
CHEMBL4438361

>  <Standard Type>  (1841) 
Ki

>  <Standard Value>  (1841) 
14.7

>  <label>  (1841) 
1

$$$$
CHEMBL3104093
     RDKit          3D

  0  0  0  0  0  0  0  0  0  0999 V3000
M  V30 BEGIN CTAB
M  V30 COUNTS 43 47 0 0 1
M  V30 BEGIN ATOM
M  V30 1 C 9.091847 5.469228 -10.010254 0
M  V30 2 N 8.485878 6.270334 -11.098608 0 CFG=1 CHG=1
M  V30 3 C 9.475953 6.836767 -12.059468 0
M  V30 4 C 10.100281 5.757345 -12.989285 0
M  V30 5 C 9.083111 4.758222 -13.417969 0
M  V30 6 C 7.834959 4.660200 -12.845662 0
M  V30 7 C 7.305508 3.499829 -13.446815 0
M  V30 8 C 6.085230 2.938889 -13.115100 0
M  V30 9 C 5.772136 1.699076 -13.690074 0
M  V30 10 C 6.650985 1.108505 -14.615903 0
M  V30 11 C 7.874174 1.710325 -15.018100 0
M  V30 12 C 8.179030 2.929830 -14.338852 0
M  V30 13 N 9.265924 3.720888 -14.342052 0
M  V30 14 C 10.416320 3.435444 -15.178862 0
M  V30 15 C 10.886694 1.983433 -15.081324 0
M  V30 16 C 10.137286 1.100287 -16.053213 0
M  V30 17 C 10.884969 0.383693 -17.013874 0
M  V30 18 C 10.244436 -0.411682 -17.976126 0
M  V30 19 C 8.843222 -0.478186 -17.990074 0
M  V30 20 C 8.098065 0.237876 -17.036352 0
M  V30 21 C 8.719823 1.025079 -16.033030 0
M  V30 22 C 7.345479 5.591958 -11.779375 0
M  V30 23 H 9.556533 4.558815 -10.394273 0
M  V30 24 H 8.334549 5.182589 -9.279141 0
M  V30 25 H 9.852162 6.046908 -9.484179 0
M  V30 26 H 8.937613 7.578826 -12.646456 0
M  V30 27 H 10.255977 7.384990 -11.530060 0
M  V30 28 H 10.585371 6.203491 -13.854546 0
M  V30 29 H 10.885028 5.225381 -12.458727 0
M  V30 30 H 5.418228 3.392226 -12.396644 0
M  V30 31 H 4.848246 1.202413 -13.431374 0
M  V30 32 H 6.360341 0.151281 -15.024963 0
M  V30 33 H 10.200399 3.723363 -16.208941 0
M  V30 34 H 11.232613 4.079729 -14.851504 0
M  V30 35 H 11.946382 1.957613 -15.333967 0
M  V30 36 H 10.799582 1.597545 -14.064181 0
M  V30 37 H 11.963264 0.445430 -17.024672 0
M  V30 38 H 10.822976 -0.959708 -18.705904 0
M  V30 39 H 8.337373 -1.079100 -18.730814 0
M  V30 40 H 7.022290 0.165846 -17.089373 0
M  V30 41 H 6.734170 5.068188 -11.047308 0
M  V30 42 H 6.702027 6.354568 -12.224863 0
M  V30 43 H 8.010633 7.050278 -10.643065 0
M  V30 END ATOM
M  V30 BEGIN BOND
M  V30 1 1 2 1
M  V30 2 1 3 2
M  V30 3 1 4 3
M  V30 4 1 5 4
M  V30 5 2 6 5
M  V30 6 1 7 6
M  V30 7 1 8 7
M  V30 8 2 9 8
M  V30 9 1 10 9
M  V30 10 2 11 10
M  V30 11 2 12 7
M  V30 12 1 12 11
M  V30 13 1 13 5
M  V30 14 1 13 12
M  V30 15 1 14 13
M  V30 16 1 15 14
M  V30 17 1 16 15
M  V30 18 2 17 16
M  V30 19 1 18 17
M  V30 20 2 19 18
M  V30 21 1 20 19
M  V30 22 1 21 11
M  V30 23 1 21 16
M  V30 24 2 21 20
M  V30 25 1 22 2
M  V30 26 1 22 6
M  V30 27 1 23 1
M  V30 28 1 24 1
M  V30 29 1 25 1
M  V30 30 1 26 3
M  V30 31 1 27 3
M  V30 32 1 28 4
M  V30 33 1 29 4
M  V30 34 1 30 8
M  V30 35 1 31 9
M  V30 36 1 32 10
M  V30 37 1 33 14
M  V30 38 1 34 14
M  V30 39 1 35 15
M  V30 40 1 36 15
M  V30 41 1 37 17
M  V30 42 1 38 18
M  V30 43 1 39 19
M  V30 44 1 40 20
M  V30 45 1 41 22
M  V30 46 1 42 22
M  V30 47 1 2 43 CFG=1
M  V30 END BOND
M  V30 END CTAB
M  END
>  <b_m_subgroup_collapsed>  (1842) 
0

>  <r_i_docking_score>  (1842) 
-6.5860379060407999

>  <s_m_subgroup_title>  (1842) 
glide-dock_SP_D22_pv

>  <s_m_subgroupid>  (1842) 
glide-dock_SP_D22_pv

>  <Molecule ChEMBL ID>  (1842) 
CHEMBL3104093

>  <Standard Type>  (1842) 
Ki

>  <Standard Value>  (1842) 
10000.0

>  <label>  (1842) 
0

$$$$
CHEMBL201241
     RDKit          3D

  0  0  0  0  0  0  0  0  0  0999 V3000
M  V30 BEGIN CTAB
M  V30 COUNTS 46 50 0 0 1
M  V30 BEGIN ATOM
M  V30 1 C 12.169242 4.755110 -15.085414 0
M  V30 2 C 11.860715 5.752345 -14.146527 0
M  V30 3 C 10.772655 5.586183 -13.268402 0
M  V30 4 C 9.949611 4.435183 -13.315054 0
M  V30 5 C 8.769003 4.156394 -12.350643 0 CFG=2
M  V30 6 C 7.522359 3.522341 -13.046867 0
M  V30 7 C 6.627040 4.544688 -13.676578 0
M  V30 8 C 6.148270 5.558341 -12.626828 0
M  V30 9 N 7.284116 6.172324 -11.903111 0 CFG=2 CHG=1
M  V30 10 C 7.954410 7.273577 -12.634642 0
M  V30 11 C 8.886041 8.112197 -11.706974 0
M  V30 12 C 9.451084 7.289539 -10.578748 0
M  V30 13 C 9.165227 5.959722 -10.433030 0
M  V30 14 N 9.686035 5.502903 -9.236294 0
M  V30 15 C 10.259236 6.550567 -8.540361 0
M  V30 16 C 10.814806 6.635398 -7.251669 0
M  V30 17 C 11.286005 7.871170 -6.781004 0
M  V30 18 C 11.245269 8.998696 -7.618808 0
M  V30 19 C 10.692148 8.907169 -8.912594 0
M  V30 20 C 10.162102 7.689305 -9.396197 0
M  V30 21 C 8.227887 5.192630 -11.305433 0 CFG=2
M  V30 22 C 10.307579 3.426872 -14.246482 0
M  V30 23 C 11.392920 3.586027 -15.128631 0
M  V30 24 H 13.009076 4.876738 -15.754107 0
M  V30 25 H 12.471298 6.641704 -14.087616 0
M  V30 26 H 10.618491 6.366259 -12.554282 0
M  V30 27 H 9.224786 3.372320 -11.750227 0
M  V30 28 H 7.768305 2.740976 -13.762622 0
M  V30 29 H 6.886011 3.037853 -12.307301 0
M  V30 30 H 7.228790 4.972326 -14.467498 0
M  V30 31 H 5.770700 4.064600 -14.152233 0
M  V30 32 H 5.524525 6.332072 -13.073582 0
M  V30 33 H 5.516996 5.053070 -11.894008 0
M  V30 34 H 8.485970 6.803612 -13.446856 0
M  V30 35 H 7.216151 7.937475 -13.084023 0
M  V30 36 H 9.682761 8.572382 -12.290641 0
M  V30 37 H 8.313317 8.940213 -11.286372 0
M  V30 38 H 9.547665 4.565974 -8.886243 0
M  V30 39 H 10.851870 5.772337 -6.608838 0
M  V30 40 H 11.686163 7.952057 -5.781207 0
M  V30 41 H 11.622478 9.943302 -7.256450 0
M  V30 42 H 10.642986 9.784742 -9.536219 0
M  V30 43 H 7.607558 4.608397 -10.626186 0
M  V30 44 H 9.772979 2.491153 -14.287470 0
M  V30 45 H 11.641112 2.800709 -15.827783 0
M  V30 46 H 6.880859 6.695415 -11.113993 0
M  V30 END ATOM
M  V30 BEGIN BOND
M  V30 1 2 2 1
M  V30 2 1 3 2
M  V30 3 2 4 3
M  V30 4 1 5 4
M  V30 5 1 6 5
M  V30 6 1 7 6
M  V30 7 1 8 7
M  V30 8 1 9 8
M  V30 9 1 10 9
M  V30 10 1 11 10
M  V30 11 1 12 11
M  V30 12 2 13 12
M  V30 13 1 14 13
M  V30 14 1 15 14
M  V30 15 2 16 15
M  V30 16 1 17 16
M  V30 17 2 18 17
M  V30 18 1 19 18
M  V30 19 1 20 12
M  V30 20 1 20 15
M  V30 21 2 20 19
M  V30 22 1 21 5
M  V30 23 1 21 9
M  V30 24 1 21 13
M  V30 25 1 22 4
M  V30 26 1 23 1
M  V30 27 2 23 22
M  V30 28 1 24 1
M  V30 29 1 25 2
M  V30 30 1 26 3
M  V30 31 1 5 27 CFG=1
M  V30 32 1 28 6
M  V30 33 1 29 6
M  V30 34 1 30 7
M  V30 35 1 31 7
M  V30 36 1 32 8
M  V30 37 1 33 8
M  V30 38 1 34 10
M  V30 39 1 35 10
M  V30 40 1 36 11
M  V30 41 1 37 11
M  V30 42 1 38 14
M  V30 43 1 39 16
M  V30 44 1 40 17
M  V30 45 1 41 18
M  V30 46 1 42 19
M  V30 47 1 21 43 CFG=1
M  V30 48 1 44 22
M  V30 49 1 45 23
M  V30 50 1 9 46 CFG=1
M  V30 END BOND
M  V30 END CTAB
M  END
>  <b_m_subgroup_collapsed>  (1843) 
0

>  <r_i_docking_score>  (1843) 
-6.5815217284134402

>  <s_m_subgroup_title>  (1843) 
glide-dock_SP_D22_pv

>  <s_m_subgroupid>  (1843) 
glide-dock_SP_D22_pv

>  <Molecule ChEMBL ID>  (1843) 
CHEMBL201241

>  <Standard Type>  (1843) 
Ki

>  <Standard Value>  (1843) 
10000.0

>  <label>  (1843) 
0

$$$$
CHEMBL1712377
     RDKit          3D

  0  0  0  0  0  0  0  0  0  0999 V3000
M  V30 BEGIN CTAB
M  V30 COUNTS 46 48 0 0 1
M  V30 BEGIN ATOM
M  V30 1 O 8.234693 4.466444 -13.860879 0
M  V30 2 C 7.423967 4.574560 -12.941608 0
M  V30 3 C 7.607604 5.700038 -11.917950 0
M  V30 4 C 9.096348 5.900491 -11.549002 0
M  V30 5 N 9.295833 6.948177 -10.543849 0
M  V30 6 C 10.690151 7.394751 -10.558487 0
M  V30 7 C 10.886356 8.543337 -9.556425 0
M  V30 8 N 10.556881 8.086566 -8.184995 0 CHG=1
M  V30 9 C 10.825554 9.123934 -7.157362 0
M  V30 10 C 11.240796 8.604096 -5.784175 0
M  V30 11 C 11.631866 9.550066 -4.813421 0
M  V30 12 C 12.056143 9.143832 -3.533855 0
M  V30 13 C 12.086011 7.775995 -3.209461 0
M  V30 14 C 11.686300 6.824169 -4.165792 0
M  V30 15 C 11.266887 7.230308 -5.448577 0
M  V30 16 C 9.162230 7.579319 -8.160651 0
M  V30 17 C 8.976012 6.454538 -9.198856 0
M  V30 18 N 6.355196 3.772500 -12.779535 0
M  V30 19 C 6.096207 2.542355 -13.440857 0
M  V30 20 N 5.059234 1.801505 -13.047023 0
M  V30 21 C 5.020344 0.562351 -13.696938 0
M  V30 22 C 6.058747 0.360154 -14.571250 0
M  V30 23 S 7.114278 1.744598 -14.646907 0
M  V30 24 H 7.203928 6.622620 -12.335512 0
M  V30 25 H 7.008003 5.472251 -11.039943 0
M  V30 26 H 9.542023 4.961780 -11.213334 0
M  V30 27 H 9.626376 6.184337 -12.460535 0
M  V30 28 H 11.359571 6.573040 -10.314711 0
M  V30 29 H 10.954352 7.743369 -11.557871 0
M  V30 30 H 11.923089 8.883222 -9.598113 0
M  V30 31 H 10.257305 9.392576 -9.825171 0
M  V30 32 H 11.641440 9.766045 -7.491413 0
M  V30 33 H 9.958614 9.771827 -7.049330 0
M  V30 34 H 11.615685 10.601081 -5.055023 0
M  V30 35 H 12.358327 9.880372 -2.804263 0
M  V30 36 H 12.404860 7.459279 -2.226950 0
M  V30 37 H 11.699780 5.774660 -3.912194 0
M  V30 38 H 10.973584 6.466716 -6.150456 0
M  V30 39 H 8.904366 7.212685 -7.166156 0
M  V30 40 H 8.483171 8.403104 -8.375368 0
M  V30 41 H 7.940968 6.118924 -9.163967 0
M  V30 42 H 9.599833 5.594820 -8.947309 0
M  V30 43 H 5.727461 4.001642 -12.021564 0
M  V30 44 H 4.212069 -0.117252 -13.475321 0
M  V30 45 H 6.259959 -0.510719 -15.180755 0
M  V30 46 H 11.167489 7.308478 -7.989022 0
M  V30 END ATOM
M  V30 BEGIN BOND
M  V30 1 2 2 1
M  V30 2 1 3 2
M  V30 3 1 4 3
M  V30 4 1 5 4
M  V30 5 1 6 5
M  V30 6 1 7 6
M  V30 7 1 8 7
M  V30 8 1 9 8
M  V30 9 1 10 9
M  V30 10 2 11 10
M  V30 11 1 12 11
M  V30 12 2 13 12
M  V30 13 1 14 13
M  V30 14 1 15 10
M  V30 15 2 15 14
M  V30 16 1 16 8
M  V30 17 1 17 5
M  V30 18 1 17 16
M  V30 19 1 18 2
M  V30 20 1 19 18
M  V30 21 2 20 19
M  V30 22 1 21 20
M  V30 23 2 22 21
M  V30 24 1 23 19
M  V30 25 1 23 22
M  V30 26 1 24 3
M  V30 27 1 25 3
M  V30 28 1 26 4
M  V30 29 1 27 4
M  V30 30 1 28 6
M  V30 31 1 29 6
M  V30 32 1 30 7
M  V30 33 1 31 7
M  V30 34 1 32 9
M  V30 35 1 33 9
M  V30 36 1 34 11
M  V30 37 1 35 12
M  V30 38 1 36 13
M  V30 39 1 37 14
M  V30 40 1 38 15
M  V30 41 1 39 16
M  V30 42 1 40 16
M  V30 43 1 41 17
M  V30 44 1 42 17
M  V30 45 1 43 18
M  V30 46 1 44 21
M  V30 47 1 45 22
M  V30 48 1 46 8
M  V30 END BOND
M  V30 END CTAB
M  END
>  <b_m_subgroup_collapsed>  (1844) 
0

>  <r_i_docking_score>  (1844) 
-6.5810806161336801

>  <s_m_subgroup_title>  (1844) 
glide-dock_SP_D22_pv

>  <s_m_subgroupid>  (1844) 
glide-dock_SP_D22_pv

>  <Molecule ChEMBL ID>  (1844) 
CHEMBL1712377

>  <Standard Type>  (1844) 
Ki

>  <Standard Value>  (1844) 
10000.0

>  <label>  (1844) 
0

$$$$
CHEMBL325710
     RDKit          3D

  0  0  0  0  0  0  0  0  0  0999 V3000
M  V30 BEGIN CTAB
M  V30 COUNTS 44 46 0 0 1
M  V30 BEGIN ATOM
M  V30 1 C 9.773110 5.675616 -8.081188 0
M  V30 2 C 8.485353 5.212574 -8.776189 0
M  V30 3 C 8.576552 4.960653 -10.297448 0
M  V30 4 N 8.486091 6.206895 -11.116764 0 CHG=1
M  V30 5 C 9.762794 6.968659 -11.146456 0
M  V30 6 C 9.615273 8.364166 -10.525879 0
M  V30 7 C 10.982291 8.970860 -10.180793 0
M  V30 8 C 7.899679 6.033243 -12.481378 0 CFG=1
M  V30 9 C 8.687981 5.026768 -13.376658 0
M  V30 10 C 7.723859 3.894475 -13.600459 0
M  V30 11 C 7.983334 2.670303 -14.246614 0
M  V30 12 C 6.979315 1.667401 -14.265471 0
M  V30 13 N 7.073863 0.403447 -14.840024 0
M  V30 14 C 5.915067 -0.245599 -14.689652 0
M  V30 15 N 5.685960 -1.504289 -15.200862 0
M  V30 16 S 4.654322 0.569358 -13.774911 0
M  V30 17 C 5.726148 1.958443 -13.632260 0
M  V30 18 C 5.462313 3.211492 -13.046917 0
M  V30 19 C 6.483315 4.170537 -13.041352 0
M  V30 20 C 6.425581 5.546376 -12.434930 0
M  V30 21 H 9.615490 5.761984 -7.006545 0
M  V30 22 H 10.589299 4.974483 -8.247499 0
M  V30 23 H 10.100073 6.656815 -8.410158 0
M  V30 24 H 7.686193 5.920342 -8.566645 0
M  V30 25 H 8.178872 4.280228 -8.299024 0
M  V30 26 H 7.742961 4.304719 -10.547455 0
M  V30 27 H 9.471766 4.389129 -10.548067 0
M  V30 28 H 10.539948 6.415613 -10.621165 0
M  V30 29 H 10.140784 7.068700 -12.164842 0
M  V30 30 H 9.075606 9.011003 -11.218596 0
M  V30 31 H 9.007043 8.320774 -9.621732 0
M  V30 32 H 10.886992 9.993922 -9.818875 0
M  V30 33 H 11.482575 8.398456 -9.399820 0
M  V30 34 H 11.643199 8.973740 -11.046268 0
M  V30 35 H 7.907023 7.017483 -12.954180 0
M  V30 36 H 9.610992 4.664203 -12.923318 0
M  V30 37 H 8.939846 5.471202 -14.339598 0
M  V30 38 H 8.948803 2.468769 -14.687160 0
M  V30 39 H 6.504395 -2.065004 -15.446764 0
M  V30 40 H 4.850494 -2.022456 -14.968176 0
M  V30 41 H 4.488897 3.430873 -12.646900 0
M  V30 42 H 5.786056 6.181578 -13.047157 0
M  V30 43 H 5.996231 5.529502 -11.435969 0
M  V30 44 H 7.805601 6.806669 -10.645764 0
M  V30 END ATOM
M  V30 BEGIN BOND
M  V30 1 1 2 1
M  V30 2 1 3 2
M  V30 3 1 4 3
M  V30 4 1 5 4
M  V30 5 1 6 5
M  V30 6 1 7 6
M  V30 7 1 8 4
M  V30 8 1 9 8
M  V30 9 1 10 9
M  V30 10 2 11 10
M  V30 11 1 12 11
M  V30 12 1 13 12
M  V30 13 2 14 13
M  V30 14 1 15 14
M  V30 15 1 16 14
M  V30 16 2 17 12
M  V30 17 1 17 16
M  V30 18 1 18 17
M  V30 19 1 19 10
M  V30 20 2 19 18
M  V30 21 1 20 8
M  V30 22 1 20 19
M  V30 23 1 21 1
M  V30 24 1 22 1
M  V30 25 1 23 1
M  V30 26 1 24 2
M  V30 27 1 25 2
M  V30 28 1 26 3
M  V30 29 1 27 3
M  V30 30 1 28 5
M  V30 31 1 29 5
M  V30 32 1 30 6
M  V30 33 1 31 6
M  V30 34 1 32 7
M  V30 35 1 33 7
M  V30 36 1 34 7
M  V30 37 1 8 35 CFG=3
M  V30 38 1 36 9
M  V30 39 1 37 9
M  V30 40 1 38 11
M  V30 41 1 39 15
M  V30 42 1 40 15
M  V30 43 1 41 18
M  V30 44 1 42 20
M  V30 45 1 43 20
M  V30 46 1 44 4
M  V30 END BOND
M  V30 END CTAB
M  END
>  <b_m_subgroup_collapsed>  (1845) 
0

>  <r_i_docking_score>  (1845) 
-6.5803618619706397

>  <s_m_subgroup_title>  (1845) 
glide-dock_SP_D22_pv

>  <s_m_subgroupid>  (1845) 
glide-dock_SP_D22_pv

>  <Molecule ChEMBL ID>  (1845) 
CHEMBL325710

>  <Standard Type>  (1845) 
Ki

>  <Standard Value>  (1845) 
27.0

>  <label>  (1845) 
1

$$$$
CHEMBL564930
     RDKit          3D

  0  0  0  0  0  0  0  0  0  0999 V3000
M  V30 BEGIN CTAB
M  V30 COUNTS 57 60 0 0 1
M  V30 BEGIN ATOM
M  V30 1 C 11.287104 8.160061 -5.638908 0
M  V30 2 C 10.815398 7.263963 -6.833680 0
M  V30 3 C 11.686045 5.997538 -6.778912 0
M  V30 4 C 9.294055 6.991639 -6.732723 0 CFG=1
M  V30 5 C 8.688082 8.371249 -7.045807 0
M  V30 6 C 9.699096 9.028191 -7.988423 0
M  V30 7 C 10.805461 7.987373 -8.205722 0 CFG=1
M  V30 8 C 12.150885 8.641735 -8.577396 0
M  V30 9 C 10.375528 7.033934 -9.360698 0
M  V30 10 N 9.028500 6.416740 -9.172625 0 CFG=1 CHG=1
M  V30 11 C 8.748457 5.354713 -10.170157 0
M  V30 12 C 8.447794 5.920353 -11.570323 0
M  V30 13 N 8.242452 4.844711 -12.537295 0
M  V30 14 C 6.916728 4.353929 -12.853482 0
M  V30 15 C 7.208040 3.226391 -13.846208 0
M  V30 16 N 8.655521 3.293457 -14.024625 0
M  V30 17 C 9.364255 2.411383 -14.895988 0
M  V30 18 C 8.946219 1.067814 -15.037535 0
M  V30 19 C 9.638594 0.193200 -15.897728 0
M  V30 20 C 10.741559 0.654817 -16.639244 0
M  V30 21 C 11.155303 1.993122 -16.517218 0
M  V30 22 Cl 12.485889 2.572450 -17.447308 0
M  V30 23 C 10.475565 2.865483 -15.645114 0
M  V30 24 C 9.215576 4.209487 -13.209835 0
M  V30 25 O 10.415951 4.445828 -13.082520 0
M  V30 26 C 8.782479 5.962907 -7.778497 0
M  V30 27 H 10.654123 9.020864 -5.442598 0
M  V30 28 H 11.300032 7.592080 -4.708241 0
M  V30 29 H 12.285213 8.572251 -5.776711 0
M  V30 30 H 11.345775 5.217425 -7.446944 0
M  V30 31 H 12.716810 6.172332 -7.046781 0
M  V30 32 H 11.707511 5.605402 -5.766243 0
M  V30 33 H 9.024579 6.642360 -5.738845 0
M  V30 34 H 7.686120 8.344098 -7.446766 0
M  V30 35 H 8.589443 8.971910 -6.153848 0
M  V30 36 H 9.251386 9.391839 -8.915701 0
M  V30 37 H 10.130410 9.862765 -7.446820 0
M  V30 38 H 12.945734 7.903160 -8.679950 0
M  V30 39 H 12.078941 9.172598 -9.528837 0
M  V30 40 H 12.475547 9.370408 -7.835857 0
M  V30 41 H 11.118865 6.248888 -9.483740 0
M  V30 42 H 10.372502 7.592113 -10.297537 0
M  V30 43 H 7.882708 4.776939 -9.847791 0
M  V30 44 H 9.582603 4.652740 -10.204181 0
M  V30 45 H 9.266607 6.545702 -11.925550 0
M  V30 46 H 7.573913 6.569399 -11.538692 0
M  V30 47 H 6.411283 3.988325 -11.955070 0
M  V30 48 H 6.308273 5.145393 -13.296586 0
M  V30 49 H 6.684402 3.372221 -14.789495 0
M  V30 50 H 6.895444 2.260461 -13.446774 0
M  V30 51 H 8.105296 0.685639 -14.479047 0
M  V30 52 H 9.320564 -0.833124 -15.992048 0
M  V30 53 H 11.264961 -0.016908 -17.304052 0
M  V30 54 H 10.806068 3.891652 -15.573801 0
M  V30 55 H 7.712331 5.794529 -7.644719 0
M  V30 56 H 9.239959 4.988912 -7.625831 0
M  V30 57 H 8.332883 7.140370 -9.332105 0
M  V30 END ATOM
M  V30 BEGIN BOND
M  V30 1 1 2 1
M  V30 2 1 3 2
M  V30 3 1 4 2
M  V30 4 1 5 4
M  V30 5 1 6 5
M  V30 6 1 7 2
M  V30 7 1 7 6
M  V30 8 1 7 8 CFG=3
M  V30 9 1 9 7
M  V30 10 1 10 9
M  V30 11 1 11 10
M  V30 12 1 12 11
M  V30 13 1 13 12
M  V30 14 1 14 13
M  V30 15 1 15 14
M  V30 16 1 16 15
M  V30 17 1 17 16
M  V30 18 2 18 17
M  V30 19 1 19 18
M  V30 20 2 20 19
M  V30 21 1 21 20
M  V30 22 1 22 21
M  V30 23 1 23 17
M  V30 24 2 23 21
M  V30 25 1 24 13
M  V30 26 1 24 16
M  V30 27 2 25 24
M  V30 28 1 26 4
M  V30 29 1 26 10
M  V30 30 1 27 1
M  V30 31 1 28 1
M  V30 32 1 29 1
M  V30 33 1 30 3
M  V30 34 1 31 3
M  V30 35 1 32 3
M  V30 36 1 4 33 CFG=1
M  V30 37 1 34 5
M  V30 38 1 35 5
M  V30 39 1 36 6
M  V30 40 1 37 6
M  V30 41 1 38 8
M  V30 42 1 39 8
M  V30 43 1 40 8
M  V30 44 1 41 9
M  V30 45 1 42 9
M  V30 46 1 43 11
M  V30 47 1 44 11
M  V30 48 1 45 12
M  V30 49 1 46 12
M  V30 50 1 47 14
M  V30 51 1 48 14
M  V30 52 1 49 15
M  V30 53 1 50 15
M  V30 54 1 51 18
M  V30 55 1 52 19
M  V30 56 1 53 20
M  V30 57 1 54 23
M  V30 58 1 55 26
M  V30 59 1 56 26
M  V30 60 1 10 57 CFG=3
M  V30 END BOND
M  V30 END CTAB
M  END
>  <b_m_subgroup_collapsed>  (1846) 
0

>  <r_i_docking_score>  (1846) 
-6.5802496851057697

>  <s_m_subgroup_title>  (1846) 
glide-dock_SP_D22_pv

>  <s_m_subgroupid>  (1846) 
glide-dock_SP_D22_pv

>  <Molecule ChEMBL ID>  (1846) 
CHEMBL564930

>  <Standard Type>  (1846) 
Ki

>  <Standard Value>  (1846) 
31.62

>  <label>  (1846) 
1

$$$$
CHEMBL127114
     RDKit          3D

  0  0  0  0  0  0  0  0  0  0999 V3000
M  V30 BEGIN CTAB
M  V30 COUNTS 64 67 0 0 1
M  V30 BEGIN ATOM
M  V30 1 C 11.792544 11.067429 -6.152659 0
M  V30 2 O 11.215923 9.794579 -6.299917 0
M  V30 3 C 11.454223 8.881971 -5.294695 0
M  V30 4 C 12.189652 9.184407 -4.115274 0
M  V30 5 C 12.473395 8.189753 -3.165540 0
M  V30 6 C 12.033130 6.878857 -3.382718 0
M  V30 7 C 11.284780 6.579679 -4.535992 0
M  V30 8 C 10.957628 7.574423 -5.483200 0
M  V30 9 N 10.142170 7.263013 -6.589583 0
M  V30 10 C 10.414494 6.105958 -7.425132 0
M  V30 11 C 10.456178 6.499772 -8.914182 0
M  V30 12 N 9.285748 7.336030 -9.302793 0 CHG=1
M  V30 13 C 9.223963 7.644536 -10.756598 0
M  V30 14 C 8.517247 6.526041 -11.557246 0
M  V30 15 C 9.472065 5.603155 -12.325847 0
M  V30 16 C 8.743641 4.469018 -13.063759 0
M  V30 17 N 9.688977 3.664843 -13.827659 0
M  V30 18 C 10.111784 3.964292 -15.067483 0
M  V30 19 O 9.687905 4.938582 -15.689375 0
M  V30 20 C 11.134761 3.019306 -15.614993 0 CFG=1
M  V30 21 C 11.121629 2.803132 -17.117712 0
M  V30 22 C 12.278917 3.537479 -16.480019 0 CFG=1
M  V30 23 C 12.542083 4.994844 -16.734573 0
M  V30 24 C 12.330219 5.555772 -18.013205 0
M  V30 25 C 12.584061 6.922303 -18.247025 0
M  V30 26 C 13.061495 7.738167 -17.203699 0
M  V30 27 C 13.280807 7.184028 -15.928238 0
M  V30 28 C 13.024864 5.819891 -15.697181 0
M  V30 29 C 9.148943 8.536861 -8.435741 0
M  V30 30 C 9.012604 8.109062 -6.963561 0
M  V30 31 H 11.684731 11.676036 -7.046542 0
M  V30 32 H 11.288212 11.568245 -5.324276 0
M  V30 33 H 12.863111 10.972596 -5.973103 0
M  V30 34 H 12.560946 10.172171 -3.911069 0
M  V30 35 H 13.033340 8.437407 -2.273934 0
M  V30 36 H 12.237092 6.105145 -2.654500 0
M  V30 37 H 10.894285 5.586432 -4.654977 0
M  V30 38 H 9.619085 5.380557 -7.261257 0
M  V30 39 H 11.355304 5.637776 -7.134730 0
M  V30 40 H 10.484619 5.590393 -9.507030 0
M  V30 41 H 11.372500 7.052445 -9.121175 0
M  V30 42 H 10.212104 7.876611 -11.158135 0
M  V30 43 H 8.631128 8.550987 -10.892253 0
M  V30 44 H 7.851225 6.994506 -12.281270 0
M  V30 45 H 7.864903 5.943108 -10.905692 0
M  V30 46 H 10.187604 5.155572 -11.642384 0
M  V30 47 H 10.049409 6.194222 -13.036851 0
M  V30 48 H 7.966701 4.871352 -13.717515 0
M  V30 49 H 8.239933 3.820497 -12.345805 0
M  V30 50 H 10.063634 2.839740 -13.377817 0
M  V30 51 H 11.351944 2.143016 -15.007292 0
M  V30 52 H 10.413379 3.376875 -17.715487 0
M  V30 53 H 11.283892 1.782818 -17.456917 0
M  V30 54 H 13.226223 3.007323 -16.407269 0
M  V30 55 H 11.968056 4.939530 -18.822302 0
M  V30 56 H 12.412689 7.343565 -19.226917 0
M  V30 57 H 13.253924 8.786907 -17.385172 0
M  V30 58 H 13.642641 7.806112 -15.125554 0
M  V30 59 H 13.196981 5.408297 -14.713178 0
M  V30 60 H 10.014110 9.187208 -8.569780 0
M  V30 61 H 8.271447 9.117099 -8.719597 0
M  V30 62 H 8.092559 7.539800 -6.828764 0
M  V30 63 H 8.920818 8.972069 -6.308466 0
M  V30 64 H 8.444688 6.808372 -9.110691 0
M  V30 END ATOM
M  V30 BEGIN BOND
M  V30 1 1 2 1
M  V30 2 1 3 2
M  V30 3 2 4 3
M  V30 4 1 5 4
M  V30 5 2 6 5
M  V30 6 1 7 6
M  V30 7 1 8 3
M  V30 8 2 8 7
M  V30 9 1 9 8
M  V30 10 1 10 9
M  V30 11 1 11 10
M  V30 12 1 12 11
M  V30 13 1 13 12
M  V30 14 1 14 13
M  V30 15 1 15 14
M  V30 16 1 16 15
M  V30 17 1 17 16
M  V30 18 1 18 17
M  V30 19 2 19 18
M  V30 20 1 20 18
M  V30 21 1 21 20
M  V30 22 1 22 20
M  V30 23 1 22 21
M  V30 24 1 23 22
M  V30 25 2 24 23
M  V30 26 1 25 24
M  V30 27 2 26 25
M  V30 28 1 27 26
M  V30 29 1 28 23
M  V30 30 2 28 27
M  V30 31 1 29 12
M  V30 32 1 30 9
M  V30 33 1 30 29
M  V30 34 1 31 1
M  V30 35 1 32 1
M  V30 36 1 33 1
M  V30 37 1 34 4
M  V30 38 1 35 5
M  V30 39 1 36 6
M  V30 40 1 37 7
M  V30 41 1 38 10
M  V30 42 1 39 10
M  V30 43 1 40 11
M  V30 44 1 41 11
M  V30 45 1 42 13
M  V30 46 1 43 13
M  V30 47 1 44 14
M  V30 48 1 45 14
M  V30 49 1 46 15
M  V30 50 1 47 15
M  V30 51 1 48 16
M  V30 52 1 49 16
M  V30 53 1 50 17
M  V30 54 1 20 51 CFG=1
M  V30 55 1 52 21
M  V30 56 1 53 21
M  V30 57 1 22 54 CFG=1
M  V30 58 1 55 24
M  V30 59 1 56 25
M  V30 60 1 57 26
M  V30 61 1 58 27
M  V30 62 1 59 28
M  V30 63 1 60 29
M  V30 64 1 61 29
M  V30 65 1 62 30
M  V30 66 1 63 30
M  V30 67 1 64 12
M  V30 END BOND
M  V30 END CTAB
M  END
>  <b_m_subgroup_collapsed>  (1847) 
0

>  <r_i_docking_score>  (1847) 
-6.5791995781649097

>  <s_m_subgroup_title>  (1847) 
glide-dock_SP_D22_pv

>  <s_m_subgroupid>  (1847) 
glide-dock_SP_D22_pv

>  <Molecule ChEMBL ID>  (1847) 
CHEMBL127114

>  <Standard Type>  (1847) 
Ki

>  <Standard Value>  (1847) 
81.0

>  <label>  (1847) 
1

$$$$
CHEMBL3234545
     RDKit          3D

  0  0  0  0  0  0  0  0  0  0999 V3000
M  V30 BEGIN CTAB
M  V30 COUNTS 46 49 0 0 1
M  V30 BEGIN ATOM
M  V30 1 C 13.280746 4.647325 -14.647476 0
M  V30 2 N 12.089056 5.019825 -15.403118 0
M  V30 3 C 12.276708 5.326842 -16.714937 0
M  V30 4 O 13.404360 5.403705 -17.210926 0
M  V30 5 C 11.112274 5.642573 -17.611242 0
M  V30 6 C 11.239390 6.724527 -18.514801 0
M  V30 7 C 10.226686 7.016953 -19.446453 0
M  V30 8 C 9.082550 6.205614 -19.513739 0
M  V30 9 C 8.958322 5.106872 -18.646786 0
M  V30 10 C 9.956087 4.826718 -17.693220 0
M  V30 11 S 9.693537 3.375928 -16.610294 0
M  V30 12 O 10.987129 2.558022 -16.644135 0
M  V30 13 C 9.714723 4.335995 -15.061842 0
M  V30 14 C 8.563714 4.321219 -14.246460 0
M  V30 15 C 8.540277 5.045158 -13.037084 0
M  V30 16 C 9.680825 5.772322 -12.630576 0
M  V30 17 C 9.688131 6.585870 -11.369428 0
M  V30 18 O 10.306317 7.650978 -11.328046 0
M  V30 19 N 9.085700 6.042461 -10.298717 0
M  V30 20 C 9.118828 6.642564 -8.967521 0
M  V30 21 C 10.487058 6.413502 -8.292291 0
M  V30 22 C 10.764970 7.306240 -7.127012 0
M  V30 23 C 10.950114 6.971817 -5.810110 0
M  V30 24 C 11.285923 8.087063 -4.987875 0
M  V30 25 C 11.328732 9.265770 -5.684315 0
M  V30 26 S 10.998605 9.015234 -7.373937 0
M  V30 27 C 10.829969 5.770229 -13.451351 0
M  V30 28 C 10.863272 5.061975 -14.673441 0
M  V30 29 H 14.026944 5.439456 -14.665371 0
M  V30 30 H 13.077285 4.374632 -13.612890 0
M  V30 31 H 13.682266 3.772543 -15.140228 0
M  V30 32 H 12.123065 7.347345 -18.492193 0
M  V30 33 H 10.333894 7.858183 -20.117640 0
M  V30 34 H 8.304296 6.421232 -20.231239 0
M  V30 35 H 8.086148 4.478014 -18.712311 0
M  V30 36 H 7.692093 3.759019 -14.547335 0
M  V30 37 H 7.644245 5.043811 -12.432675 0
M  V30 38 H 8.588945 5.171463 -10.406805 0
M  V30 39 H 8.317829 6.225126 -8.356494 0
M  V30 40 H 8.899920 7.708576 -9.060880 0
M  V30 41 H 11.284129 6.569835 -9.016915 0
M  V30 42 H 10.570420 5.370618 -7.987911 0
M  V30 43 H 10.878674 5.971832 -5.410602 0
M  V30 44 H 11.470308 7.987682 -3.928276 0
M  V30 45 H 11.550496 10.256414 -5.317322 0
M  V30 46 H 11.702209 6.329368 -13.139257 0
M  V30 END ATOM
M  V30 BEGIN BOND
M  V30 1 1 2 1
M  V30 2 1 3 2
M  V30 3 2 4 3
M  V30 4 1 5 3
M  V30 5 2 6 5
M  V30 6 1 7 6
M  V30 7 2 8 7
M  V30 8 1 9 8
M  V30 9 1 10 5
M  V30 10 2 10 9
M  V30 11 1 11 10 CFG=3
M  V30 12 2 12 11
M  V30 13 1 13 11
M  V30 14 2 14 13
M  V30 15 1 15 14
M  V30 16 2 16 15
M  V30 17 1 17 16
M  V30 18 2 18 17
M  V30 19 1 19 17
M  V30 20 1 20 19
M  V30 21 1 21 20
M  V30 22 1 22 21
M  V30 23 2 23 22
M  V30 24 1 24 23
M  V30 25 2 25 24
M  V30 26 1 26 22
M  V30 27 1 26 25
M  V30 28 1 27 16
M  V30 29 1 28 2
M  V30 30 1 28 13
M  V30 31 2 28 27
M  V30 32 1 29 1
M  V30 33 1 30 1
M  V30 34 1 31 1
M  V30 35 1 32 6
M  V30 36 1 33 7
M  V30 37 1 34 8
M  V30 38 1 35 9
M  V30 39 1 36 14
M  V30 40 1 37 15
M  V30 41 1 38 19
M  V30 42 1 39 20
M  V30 43 1 40 20
M  V30 44 1 41 21
M  V30 45 1 42 21
M  V30 46 1 43 23
M  V30 47 1 44 24
M  V30 48 1 45 25
M  V30 49 1 46 27
M  V30 END BOND
M  V30 END CTAB
M  END
>  <b_m_subgroup_collapsed>  (1848) 
0

>  <r_i_docking_score>  (1848) 
-6.5774449569297904

>  <s_m_subgroup_title>  (1848) 
glide-dock_SP_D22_pv

>  <s_m_subgroupid>  (1848) 
glide-dock_SP_D22_pv

>  <Molecule ChEMBL ID>  (1848) 
CHEMBL3234545

>  <Standard Type>  (1848) 
Ki

>  <Standard Value>  (1848) 
50000.0

>  <label>  (1848) 
0

$$$$
CHEMBL1077189
     RDKit          3D

  0  0  0  0  0  0  0  0  0  0999 V3000
M  V30 BEGIN CTAB
M  V30 COUNTS 36 40 0 0 1
M  V30 BEGIN ATOM
M  V30 1 C 12.733339 5.423028 -15.742153 0
M  V30 2 C 12.885722 6.707592 -15.192751 0
M  V30 3 C 12.148483 7.079606 -14.052732 0
M  V30 4 C 11.263579 6.170746 -13.425290 0
M  V30 5 C 11.060616 4.907484 -14.041499 0
M  V30 6 C 11.809769 4.528487 -15.174657 0
M  V30 7 C 9.998897 3.964278 -13.507183 0
M  V30 8 C 8.957395 4.700824 -12.656588 0
M  V30 9 N 9.686016 5.423255 -11.624925 0
M  V30 10 C 8.774824 5.869556 -10.566992 0
M  V30 11 C 9.481101 6.574738 -9.417636 0
M  V30 12 C 9.107994 6.658307 -8.063186 0
M  V30 13 C 9.887749 7.433349 -7.183848 0
M  V30 14 C 11.023377 8.113746 -7.672656 0
M  V30 15 C 11.378798 8.025002 -9.010343 0
M  V30 16 N 12.405228 8.572103 -9.722692 0
M  V30 17 C 12.345544 8.172335 -11.046912 0
M  V30 18 C 11.232553 7.372536 -11.147455 0
M  V30 19 C 10.612980 7.266539 -9.877726 0
M  V30 20 C 10.435618 6.572480 -12.179444 0 CFG=1
M  V30 21 H 13.303652 5.134552 -16.612598 0
M  V30 22 H 13.569183 7.410386 -15.645755 0
M  V30 23 H 12.263665 8.084865 -13.687730 0
M  V30 24 H 11.663054 3.556397 -15.622507 0
M  V30 25 H 9.501966 3.463765 -14.339002 0
M  V30 26 H 10.485460 3.186645 -12.919155 0
M  V30 27 H 8.360986 5.388465 -13.258643 0
M  V30 28 H 8.274533 3.976573 -12.211088 0
M  V30 29 H 8.047740 6.558574 -10.995126 0
M  V30 30 H 8.221047 5.020094 -10.164027 0
M  V30 31 H 8.214175 6.161676 -7.712205 0
M  V30 32 H 9.606499 7.513748 -6.143604 0
M  V30 33 H 11.619635 8.709549 -6.998435 0
M  V30 34 H 13.103495 9.226982 -9.384665 0
M  V30 35 H 13.083302 8.500443 -11.763666 0
M  V30 36 H 9.675622 7.247352 -12.575743 0
M  V30 END ATOM
M  V30 BEGIN BOND
M  V30 1 2 2 1
M  V30 2 1 3 2
M  V30 3 2 4 3
M  V30 4 1 5 4
M  V30 5 1 6 1
M  V30 6 2 6 5
M  V30 7 1 7 5
M  V30 8 1 8 7
M  V30 9 1 9 8
M  V30 10 1 10 9
M  V30 11 1 11 10
M  V30 12 1 12 11
M  V30 13 2 13 12
M  V30 14 1 14 13
M  V30 15 2 15 14
M  V30 16 1 16 15
M  V30 17 1 17 16
M  V30 18 2 18 17
M  V30 19 2 19 11
M  V30 20 1 19 15
M  V30 21 1 19 18
M  V30 22 1 20 4
M  V30 23 1 20 9
M  V30 24 1 20 18
M  V30 25 1 21 1
M  V30 26 1 22 2
M  V30 27 1 23 3
M  V30 28 1 24 6
M  V30 29 1 25 7
M  V30 30 1 26 7
M  V30 31 1 27 8
M  V30 32 1 28 8
M  V30 33 1 29 10
M  V30 34 1 30 10
M  V30 35 1 31 12
M  V30 36 1 32 13
M  V30 37 1 33 14
M  V30 38 1 34 16
M  V30 39 1 35 17
M  V30 40 1 20 36 CFG=3
M  V30 END BOND
M  V30 END CTAB
M  END
>  <b_m_subgroup_collapsed>  (1849) 
0

>  <r_i_docking_score>  (1849) 
-6.5761652929884598

>  <s_m_subgroup_title>  (1849) 
glide-dock_SP_D22_pv

>  <s_m_subgroupid>  (1849) 
glide-dock_SP_D22_pv

>  <Molecule ChEMBL ID>  (1849) 
CHEMBL1077189

>  <Standard Type>  (1849) 
Ki

>  <Standard Value>  (1849) 
10000.0

>  <label>  (1849) 
0

$$$$
CHEMBL47482
     RDKit          3D

  0  0  0  0  0  0  0  0  0  0999 V3000
M  V30 BEGIN CTAB
M  V30 COUNTS 32 34 0 0 1
M  V30 BEGIN ATOM
M  V30 1 N 6.435763 5.772311 -11.846755 0 CHG=1
M  V30 2 C 7.654114 5.739411 -12.675311 0
M  V30 3 C 8.887590 5.132326 -11.971831 0
M  V30 4 C 10.048117 5.077847 -12.958780 0
M  V30 5 C 10.224201 3.950585 -13.789299 0
M  V30 6 C 11.294018 3.906640 -14.703798 0
M  V30 7 C 12.188844 4.989850 -14.794282 0
M  V30 8 C 12.018483 6.117664 -13.967754 0
M  V30 9 C 10.950904 6.164888 -13.046802 0
M  V30 10 C 10.791660 7.357473 -12.116049 0
M  V30 11 C 10.184644 6.972169 -10.778727 0
M  V30 12 C 10.546984 7.672192 -9.609200 0
M  V30 13 C 10.030069 7.274867 -8.360970 0
M  V30 14 C 9.157452 6.173533 -8.279190 0
M  V30 15 C 8.788733 5.477136 -9.446126 0
M  V30 16 C 9.285536 5.882778 -10.703214 0
M  V30 17 H 5.632375 5.987093 -12.415771 0
M  V30 18 H 6.511007 6.512423 -11.138889 0
M  V30 19 H 7.429213 5.153288 -13.566800 0
M  V30 20 H 7.866459 6.754757 -13.013545 0
M  V30 21 H 8.658155 4.105220 -11.683582 0
M  V30 22 H 9.545458 3.112006 -13.723520 0
M  V30 23 H 11.431856 3.040609 -15.334393 0
M  V30 24 H 13.012198 4.954174 -15.492611 0
M  V30 25 H 12.719768 6.937237 -14.034475 0
M  V30 26 H 11.771845 7.804473 -11.947146 0
M  V30 27 H 10.157227 8.106751 -12.589646 0
M  V30 28 H 11.230109 8.507524 -9.664124 0
M  V30 29 H 10.306134 7.810401 -7.464336 0
M  V30 30 H 8.758279 5.870175 -7.322273 0
M  V30 31 H 8.111279 4.639545 -9.368863 0
M  V30 32 H 6.293162 4.896721 -11.361912 0
M  V30 END ATOM
M  V30 BEGIN BOND
M  V30 1 1 2 1
M  V30 2 1 3 2
M  V30 3 1 4 3
M  V30 4 2 5 4
M  V30 5 1 6 5
M  V30 6 2 7 6
M  V30 7 1 8 7
M  V30 8 1 9 4
M  V30 9 2 9 8
M  V30 10 1 10 9
M  V30 11 1 11 10
M  V30 12 2 12 11
M  V30 13 1 13 12
M  V30 14 2 14 13
M  V30 15 1 15 14
M  V30 16 1 16 3
M  V30 17 1 16 11
M  V30 18 2 16 15
M  V30 19 1 17 1
M  V30 20 1 18 1
M  V30 21 1 19 2
M  V30 22 1 20 2
M  V30 23 1 21 3
M  V30 24 1 22 5
M  V30 25 1 23 6
M  V30 26 1 24 7
M  V30 27 1 25 8
M  V30 28 1 26 10
M  V30 29 1 27 10
M  V30 30 1 28 12
M  V30 31 1 29 13
M  V30 32 1 30 14
M  V30 33 1 31 15
M  V30 34 1 32 1
M  V30 END BOND
M  V30 END CTAB
M  END
>  <b_m_subgroup_collapsed>  (1850) 
0

>  <r_i_docking_score>  (1850) 
-6.5733699680163804

>  <s_m_subgroup_title>  (1850) 
glide-dock_SP_D22_pv

>  <s_m_subgroupid>  (1850) 
glide-dock_SP_D22_pv

>  <Molecule ChEMBL ID>  (1850) 
CHEMBL47482

>  <Standard Type>  (1850) 
Ki

>  <Standard Value>  (1850) 
10000.0

>  <label>  (1850) 
0

$$$$
CHEMBL3780184
     RDKit          3D

  0  0  0  0  0  0  0  0  0  0999 V3000
M  V30 BEGIN CTAB
M  V30 COUNTS 56 60 0 0 1
M  V30 BEGIN ATOM
M  V30 1 C 9.796668 2.802886 -18.669498 0
M  V30 2 O 10.662088 3.838626 -18.230305 0
M  V30 3 C 10.578921 4.251475 -16.916693 0
M  V30 4 C 9.685499 3.688448 -15.971721 0
M  V30 5 C 9.647011 4.179519 -14.651701 0
M  V30 6 C 10.502149 5.217145 -14.243834 0
M  V30 7 C 11.405178 5.772205 -15.177127 0
M  V30 8 C 11.434509 5.298549 -16.503893 0
M  V30 9 O 12.300508 5.863254 -17.395823 0
M  V30 10 C 10.428909 5.647037 -12.778671 0 CFG=1
M  V30 11 C 11.204610 6.935270 -12.438637 0
M  V30 12 C 11.040263 7.343644 -10.988221 0
M  V30 13 C 11.967519 8.221622 -10.418127 0
M  V30 14 C 11.854921 8.572429 -9.067509 0
M  V30 15 C 10.830209 8.044981 -8.241179 0
M  V30 16 O 10.734340 8.379868 -6.904985 0
M  V30 17 C 11.575460 9.398487 -6.381494 0
M  V30 18 C 11.482266 9.398386 -4.873621 0
M  V30 19 C 11.864001 8.165598 -4.086827 0
M  V30 20 C 12.756566 9.383608 -4.064854 0
M  V30 21 C 9.900847 7.130222 -8.820817 0
M  V30 22 O 8.886169 6.467662 -8.158207 0
M  V30 23 C 8.557539 6.770007 -6.818415 0
M  V30 24 C 9.998268 6.810978 -10.196072 0
M  V30 25 C 8.979800 5.844608 -10.794178 0
M  V30 26 N 9.028531 5.766556 -12.274378 0 CFG=2 CHG=1
M  V30 27 C 8.043003 4.786197 -12.824426 0
M  V30 28 C 8.684817 3.631551 -13.620161 0
M  V30 29 H 9.982779 2.604852 -19.724825 0
M  V30 30 H 9.976096 1.876024 -18.124769 0
M  V30 31 H 8.749135 3.088554 -18.568279 0
M  V30 32 H 9.014526 2.887846 -16.240778 0
M  V30 33 H 12.080521 6.563393 -14.893413 0
M  V30 34 H 12.807067 6.577629 -17.042679 0
M  V30 35 H 10.885720 4.813177 -12.246876 0
M  V30 36 H 10.883594 7.772350 -13.048335 0
M  V30 37 H 12.267745 6.792113 -12.637364 0
M  V30 38 H 12.771109 8.635009 -11.012021 0
M  V30 39 H 12.597089 9.262465 -8.702573 0
M  V30 40 H 12.618675 9.220388 -6.639359 0
M  V30 41 H 11.291855 10.378872 -6.765063 0
M  V30 42 H 10.638700 9.959280 -4.475262 0
M  V30 43 H 11.286088 7.948298 -3.190346 0
M  V30 44 H 12.201748 7.293838 -4.642275 0
M  V30 45 H 13.681967 9.371344 -4.645515 0
M  V30 46 H 12.783733 9.963561 -3.144490 0
M  V30 47 H 7.686051 6.173346 -6.562222 0
M  V30 48 H 9.356986 6.497619 -6.127949 0
M  V30 49 H 8.289121 7.820162 -6.689256 0
M  V30 50 H 7.981276 6.170608 -10.499496 0
M  V30 51 H 9.146620 4.856174 -10.362858 0
M  V30 52 H 7.374931 5.345020 -13.478515 0
M  V30 53 H 7.405258 4.380264 -12.036501 0
M  V30 54 H 7.913972 3.025544 -14.098073 0
M  V30 55 H 9.242537 2.971898 -12.952793 0
M  V30 56 H 8.703957 6.670640 -12.588722 0
M  V30 END ATOM
M  V30 BEGIN BOND
M  V30 1 1 2 1
M  V30 2 1 3 2
M  V30 3 1 4 3
M  V30 4 2 5 4
M  V30 5 1 6 5
M  V30 6 2 7 6
M  V30 7 2 8 3
M  V30 8 1 8 7
M  V30 9 1 9 8
M  V30 10 1 10 6
M  V30 11 1 11 10
M  V30 12 1 12 11
M  V30 13 1 13 12
M  V30 14 2 14 13
M  V30 15 1 15 14
M  V30 16 1 16 15
M  V30 17 1 17 16
M  V30 18 1 18 17
M  V30 19 1 19 18
M  V30 20 1 20 18
M  V30 21 1 20 19
M  V30 22 2 21 15
M  V30 23 1 22 21
M  V30 24 1 23 22
M  V30 25 2 24 12
M  V30 26 1 24 21
M  V30 27 1 25 24
M  V30 28 1 26 10
M  V30 29 1 26 25
M  V30 30 1 27 26
M  V30 31 1 28 5
M  V30 32 1 28 27
M  V30 33 1 29 1
M  V30 34 1 30 1
M  V30 35 1 31 1
M  V30 36 1 32 4
M  V30 37 1 33 7
M  V30 38 1 34 9
M  V30 39 1 10 35 CFG=1
M  V30 40 1 36 11
M  V30 41 1 37 11
M  V30 42 1 38 13
M  V30 43 1 39 14
M  V30 44 1 40 17
M  V30 45 1 41 17
M  V30 46 1 42 18
M  V30 47 1 43 19
M  V30 48 1 44 19
M  V30 49 1 45 20
M  V30 50 1 46 20
M  V30 51 1 47 23
M  V30 52 1 48 23
M  V30 53 1 49 23
M  V30 54 1 50 25
M  V30 55 1 51 25
M  V30 56 1 52 27
M  V30 57 1 53 27
M  V30 58 1 54 28
M  V30 59 1 55 28
M  V30 60 1 26 56 CFG=3
M  V30 END BOND
M  V30 END CTAB
M  END
>  <b_m_subgroup_collapsed>  (1851) 
0

>  <r_i_docking_score>  (1851) 
-6.5731677083650002

>  <s_m_subgroup_title>  (1851) 
glide-dock_SP_D22_pv

>  <s_m_subgroupid>  (1851) 
glide-dock_SP_D22_pv

>  <Molecule ChEMBL ID>  (1851) 
CHEMBL3780184

>  <Standard Type>  (1851) 
Ki

>  <Standard Value>  (1851) 
54.0

>  <label>  (1851) 
1

$$$$
CHEMBL323118
     RDKit          3D

  0  0  0  0  0  0  0  0  0  0999 V3000
M  V30 BEGIN CTAB
M  V30 COUNTS 43 44 0 0 1
M  V30 BEGIN ATOM
M  V30 1 C 10.751620 0.793654 -15.105870 0
M  V30 2 S 9.443865 0.483534 -16.351479 0
M  V30 3 O 9.740888 -0.776966 -17.046892 0
M  V30 4 O 9.171066 1.716507 -17.105328 0
M  V30 5 N 8.041841 0.178426 -15.380451 0
M  V30 6 C 7.287295 1.073384 -14.606185 0
M  V30 7 C 7.664256 2.426287 -14.432999 0
M  V30 8 C 6.916664 3.303682 -13.617172 0
M  V30 9 O 7.426142 4.572196 -13.447257 0
M  V30 10 C 6.739825 5.489105 -12.604674 0
M  V30 11 C 7.552306 6.793355 -12.607141 0
M  V30 12 N 8.486047 6.886611 -11.460255 0 CHG=1
M  V30 13 C 9.340092 8.088983 -11.478911 0
M  V30 14 C 10.174921 8.195502 -10.216220 0
M  V30 15 C 11.575839 8.032485 -10.264999 0
M  V30 16 C 12.343879 8.172327 -9.092306 0
M  V30 17 C 11.716334 8.464019 -7.865968 0
M  V30 18 C 10.318959 8.613721 -7.809550 0
M  V30 19 C 9.554121 8.489003 -8.983747 0
M  V30 20 C 5.738203 2.823001 -12.996095 0
M  V30 21 C 5.360966 1.475757 -13.159697 0
M  V30 22 C 6.128366 0.604446 -13.956168 0
M  V30 23 F 5.750188 -0.689084 -14.089093 0
M  V30 24 H 11.685300 1.009116 -15.625506 0
M  V30 25 H 10.484171 1.638491 -14.474174 0
M  V30 26 H 10.870623 -0.094215 -14.488025 0
M  V30 27 H 7.685850 -0.770965 -15.439144 0
M  V30 28 H 8.554382 2.810647 -14.905318 0
M  V30 29 H 6.611004 5.103142 -11.591871 0
M  V30 30 H 5.748850 5.677621 -13.021353 0
M  V30 31 H 6.868570 7.641900 -12.556215 0
M  V30 32 H 8.086015 6.888665 -13.545827 0
M  V30 33 H 9.046413 6.051624 -11.374722 0
M  V30 34 H 8.714158 8.978866 -11.563081 0
M  V30 35 H 9.987864 8.065967 -12.355582 0
M  V30 36 H 12.071618 7.819532 -11.200990 0
M  V30 37 H 13.418479 8.070621 -9.135128 0
M  V30 38 H 12.307519 8.581539 -6.970694 0
M  V30 39 H 9.833652 8.837729 -6.870726 0
M  V30 40 H 8.485521 8.622885 -8.932041 0
M  V30 41 H 5.132478 3.453736 -12.363067 0
M  V30 42 H 4.485999 1.100672 -12.660112 0
M  V30 43 H 7.875977 6.989271 -10.646976 0
M  V30 END ATOM
M  V30 BEGIN BOND
M  V30 1 1 2 1
M  V30 2 2 3 2
M  V30 3 2 4 2
M  V30 4 1 5 2
M  V30 5 1 6 5
M  V30 6 1 7 6
M  V30 7 2 8 7
M  V30 8 1 9 8
M  V30 9 1 10 9
M  V30 10 1 11 10
M  V30 11 1 12 11
M  V30 12 1 13 12
M  V30 13 1 14 13
M  V30 14 2 15 14
M  V30 15 1 16 15
M  V30 16 2 17 16
M  V30 17 1 18 17
M  V30 18 1 19 14
M  V30 19 2 19 18
M  V30 20 1 20 8
M  V30 21 2 21 20
M  V30 22 2 22 6
M  V30 23 1 22 21
M  V30 24 1 23 22
M  V30 25 1 24 1
M  V30 26 1 25 1
M  V30 27 1 26 1
M  V30 28 1 27 5
M  V30 29 1 28 7
M  V30 30 1 29 10
M  V30 31 1 30 10
M  V30 32 1 31 11
M  V30 33 1 32 11
M  V30 34 1 33 12
M  V30 35 1 34 13
M  V30 36 1 35 13
M  V30 37 1 36 15
M  V30 38 1 37 16
M  V30 39 1 38 17
M  V30 40 1 39 18
M  V30 41 1 40 19
M  V30 42 1 41 20
M  V30 43 1 42 21
M  V30 44 1 43 12
M  V30 END BOND
M  V30 END CTAB
M  END
>  <b_m_subgroup_collapsed>  (1852) 
0

>  <r_i_docking_score>  (1852) 
-6.5726511266150602

>  <s_m_subgroup_title>  (1852) 
glide-dock_SP_D22_pv

>  <s_m_subgroupid>  (1852) 
glide-dock_SP_D22_pv

>  <Molecule ChEMBL ID>  (1852) 
CHEMBL323118

>  <Standard Type>  (1852) 
Ki

>  <Standard Value>  (1852) 
10000.0

>  <label>  (1852) 
0

$$$$
CHEMBL1632174
     RDKit          3D

  0  0  0  0  0  0  0  0  0  0999 V3000
M  V30 BEGIN CTAB
M  V30 COUNTS 64 67 0 0 1
M  V30 BEGIN ATOM
M  V30 1 O 11.286096 9.772704 -3.966509 0
M  V30 2 C 11.848979 8.733450 -3.559644 0
M  V30 3 O 12.485450 8.627254 -2.488977 0 CHG=-1
M  V30 4 C 11.746434 7.460874 -4.408555 0
M  V30 5 C 11.392496 7.694757 -5.897453 0
M  V30 6 C 9.910521 8.018970 -6.159796 0
M  V30 7 C 9.501898 8.009664 -7.634821 0
M  V30 8 C 9.441497 6.594787 -8.239057 0
M  V30 9 N 8.886012 6.572335 -9.614195 0 CFG=2 CHG=1
M  V30 10 C 8.619033 5.190007 -10.083195 0
M  V30 11 C 7.872033 5.201845 -11.432252 0
M  V30 12 C 8.643805 5.989122 -12.514339 0 CFG=2
M  V30 13 C 9.888879 5.238500 -13.029050 0
M  V30 14 N 9.543250 4.039693 -13.782429 0
M  V30 15 C 9.642443 3.906686 -15.113401 0
M  V30 16 O 10.083713 4.785528 -15.851768 0
M  V30 17 C 9.206280 2.583095 -15.629697 0
M  V30 18 C 9.785660 1.831815 -16.616802 0
M  V30 19 N 9.039117 0.661765 -16.785446 0
M  V30 20 C 7.941811 0.683094 -15.931650 0
M  V30 21 C 6.885917 -0.227389 -15.735073 0
M  V30 22 C 5.918745 0.018594 -14.745500 0
M  V30 23 C 5.984307 1.202716 -13.990679 0
M  V30 24 C 6.999027 2.145716 -14.243809 0
M  V30 25 C 8.025589 1.895188 -15.186230 0
M  V30 26 C 9.360707 -0.391105 -17.733522 0
M  V30 27 C 10.760520 -0.186673 -18.323530 0
M  V30 28 C 11.012629 1.305699 -18.569845 0
M  V30 29 O 10.914099 2.030725 -17.347910 0
M  V30 30 C 8.993258 7.385483 -11.958441 0
M  V30 31 C 9.699369 7.326798 -10.599733 0
M  V30 32 H 11.034773 6.774955 -3.949317 0
M  V30 33 H 12.715315 6.972327 -4.337648 0
M  V30 34 H 11.665032 6.789448 -6.438456 0
M  V30 35 H 12.016074 8.489762 -6.310692 0
M  V30 36 H 9.691832 9.016963 -5.786130 0
M  V30 37 H 9.286053 7.320730 -5.605605 0
M  V30 38 H 10.192931 8.653119 -8.177881 0
M  V30 39 H 8.515311 8.469610 -7.720704 0
M  V30 40 H 8.807418 5.976651 -7.600962 0
M  V30 41 H 10.428754 6.131621 -8.243052 0
M  V30 42 H 8.033591 4.654745 -9.338052 0
M  V30 43 H 9.557825 4.641051 -10.162844 0
M  V30 44 H 6.891950 5.661090 -11.289755 0
M  V30 45 H 7.676755 4.179651 -11.754593 0
M  V30 46 H 7.981955 6.137473 -13.369103 0
M  V30 47 H 10.486791 4.913886 -12.186337 0
M  V30 48 H 10.521896 5.902427 -13.620549 0
M  V30 49 H 9.223881 3.238361 -13.257345 0
M  V30 50 H 6.831040 -1.125906 -16.328773 0
M  V30 51 H 5.123238 -0.693641 -14.579469 0
M  V30 52 H 5.231326 1.407564 -13.243356 0
M  V30 53 H 7.002727 3.064411 -13.678507 0
M  V30 54 H 9.287987 -1.361376 -17.243366 0
M  V30 55 H 8.611060 -0.366214 -18.524815 0
M  V30 56 H 11.510868 -0.557710 -17.625225 0
M  V30 57 H 10.874557 -0.760541 -19.243546 0
M  V30 58 H 12.008586 1.456338 -18.986355 0
M  V30 59 H 10.300070 1.706420 -19.292444 0
M  V30 60 H 9.622601 7.943714 -12.646852 0
M  V30 61 H 8.080344 7.971622 -11.853955 0
M  V30 62 H 9.853955 8.353731 -10.274107 0
M  V30 63 H 10.686903 6.873407 -10.693915 0
M  V30 64 H 7.972621 7.030027 -9.584073 0
M  V30 END ATOM
M  V30 BEGIN BOND
M  V30 1 2 2 1
M  V30 2 1 3 2
M  V30 3 1 4 2
M  V30 4 1 5 4
M  V30 5 1 6 5
M  V30 6 1 7 6
M  V30 7 1 8 7
M  V30 8 1 9 8
M  V30 9 1 10 9
M  V30 10 1 11 10
M  V30 11 1 12 11
M  V30 12 1 13 12
M  V30 13 1 14 13
M  V30 14 1 15 14
M  V30 15 2 16 15
M  V30 16 1 17 15
M  V30 17 2 18 17
M  V30 18 1 19 18
M  V30 19 1 20 19
M  V30 20 2 21 20
M  V30 21 1 22 21
M  V30 22 2 23 22
M  V30 23 1 24 23
M  V30 24 1 25 17
M  V30 25 1 25 20
M  V30 26 2 25 24
M  V30 27 1 26 19
M  V30 28 1 27 26
M  V30 29 1 28 27
M  V30 30 1 29 18
M  V30 31 1 29 28
M  V30 32 1 30 12
M  V30 33 1 31 9
M  V30 34 1 31 30
M  V30 35 1 32 4
M  V30 36 1 33 4
M  V30 37 1 34 5
M  V30 38 1 35 5
M  V30 39 1 36 6
M  V30 40 1 37 6
M  V30 41 1 38 7
M  V30 42 1 39 7
M  V30 43 1 40 8
M  V30 44 1 41 8
M  V30 45 1 42 10
M  V30 46 1 43 10
M  V30 47 1 44 11
M  V30 48 1 45 11
M  V30 49 1 12 46 CFG=3
M  V30 50 1 47 13
M  V30 51 1 48 13
M  V30 52 1 49 14
M  V30 53 1 50 21
M  V30 54 1 51 22
M  V30 55 1 52 23
M  V30 56 1 53 24
M  V30 57 1 54 26
M  V30 58 1 55 26
M  V30 59 1 56 27
M  V30 60 1 57 27
M  V30 61 1 58 28
M  V30 62 1 59 28
M  V30 63 1 60 30
M  V30 64 1 61 30
M  V30 65 1 62 31
M  V30 66 1 63 31
M  V30 67 1 9 64 CFG=1
M  V30 END BOND
M  V30 END CTAB
M  END
>  <b_m_subgroup_collapsed>  (1853) 
0

>  <r_i_docking_score>  (1853) 
-6.5705809653117297

>  <s_m_subgroup_title>  (1853) 
glide-dock_SP_D22_pv

>  <s_m_subgroupid>  (1853) 
glide-dock_SP_D22_pv

>  <Molecule ChEMBL ID>  (1853) 
CHEMBL1632174

>  <Standard Type>  (1853) 
Ki

>  <Standard Value>  (1853) 
10000.0

>  <label>  (1853) 
0

$$$$
CHEMBL5776728
     RDKit          3D

  0  0  0  0  0  0  0  0  0  0999 V3000
M  V30 BEGIN CTAB
M  V30 COUNTS 51 55 0 0 1
M  V30 BEGIN ATOM
M  V30 1 O 7.654198 2.152319 -17.367502 0
M  V30 2 C 6.940303 1.391526 -16.707169 0
M  V30 3 C 5.877080 0.571760 -17.397793 0
M  V30 4 N 5.593396 0.874896 -18.689224 0
M  V30 5 C 4.660702 0.143161 -19.333958 0
M  V30 6 C 3.970889 -0.927574 -18.734762 0
M  V30 7 C 4.254508 -1.245345 -17.394375 0
M  V30 8 C 5.222627 -0.478715 -16.713638 0
M  V30 9 C 5.566761 -0.775871 -15.269256 0
M  V30 10 C 6.124493 0.458358 -14.540953 0
M  V30 11 N 7.034465 1.282013 -15.357080 0
M  V30 12 C 8.027236 2.044388 -14.587221 0
M  V30 13 C 7.385244 3.268569 -13.904454 0
M  V30 14 N 8.365136 3.959882 -13.068976 0
M  V30 15 C 9.027050 5.035627 -13.807597 0
M  V30 16 C 10.112301 5.683916 -12.922975 0
M  V30 17 N 9.564590 6.207063 -11.664573 0
M  V30 18 C 10.461870 6.992543 -10.896004 0
M  V30 19 N 11.651778 7.373120 -11.374313 0
M  V30 20 O 12.320793 8.095304 -10.350958 0
M  V30 21 C 11.507050 8.187168 -9.236908 0
M  V30 22 C 11.723342 8.810223 -7.997241 0
M  V30 23 C 10.684633 8.781684 -7.049581 0
M  V30 24 Cl 10.889125 9.571121 -5.527788 0
M  V30 25 C 9.469092 8.123490 -7.356381 0
M  V30 26 C 9.285504 7.486108 -8.605226 0
M  V30 27 C 10.325276 7.511369 -9.569566 0
M  V30 28 C 8.784804 5.179746 -10.969334 0
M  V30 29 C 7.721325 4.561332 -11.898703 0
M  V30 30 H 4.462653 0.413453 -20.362169 0
M  V30 31 H 3.234165 -1.487479 -19.289219 0
M  V30 32 H 3.739880 -2.058740 -16.902683 0
M  V30 33 H 4.691730 -1.160955 -14.744804 0
M  V30 34 H 6.309484 -1.568266 -15.258162 0
M  V30 35 H 5.290420 1.097167 -14.247100 0
M  V30 36 H 6.602228 0.139975 -13.611283 0
M  V30 37 H 8.486419 1.388815 -13.847192 0
M  V30 38 H 8.855788 2.369401 -15.217311 0
M  V30 39 H 6.939860 3.936777 -14.643106 0
M  V30 40 H 6.565140 2.913801 -13.277706 0
M  V30 41 H 9.485797 4.635024 -14.712548 0
M  V30 42 H 8.295821 5.778554 -14.125247 0
M  V30 43 H 10.886427 4.949875 -12.697936 0
M  V30 44 H 10.594069 6.482033 -13.483850 0
M  V30 45 H 12.656569 9.309095 -7.783922 0
M  V30 46 H 8.660662 8.113917 -6.639068 0
M  V30 47 H 8.332466 7.025986 -8.796506 0
M  V30 48 H 9.457705 4.409542 -10.589027 0
M  V30 49 H 8.252754 5.584703 -10.120491 0
M  V30 50 H 6.995502 5.317749 -12.201807 0
M  V30 51 H 7.176061 3.790013 -11.348577 0
M  V30 END ATOM
M  V30 BEGIN BOND
M  V30 1 2 2 1
M  V30 2 1 3 2
M  V30 3 2 4 3
M  V30 4 1 5 4
M  V30 5 2 6 5
M  V30 6 1 7 6
M  V30 7 1 8 3
M  V30 8 2 8 7
M  V30 9 1 9 8
M  V30 10 1 10 9
M  V30 11 1 11 2
M  V30 12 1 11 10
M  V30 13 1 12 11
M  V30 14 1 13 12
M  V30 15 1 14 13
M  V30 16 1 15 14
M  V30 17 1 16 15
M  V30 18 1 17 16
M  V30 19 1 18 17
M  V30 20 2 19 18
M  V30 21 1 20 19
M  V30 22 1 21 20
M  V30 23 1 22 21
M  V30 24 2 23 22
M  V30 25 1 24 23
M  V30 26 1 25 23
M  V30 27 2 26 25
M  V30 28 1 27 18
M  V30 29 2 27 21
M  V30 30 1 27 26
M  V30 31 1 28 17
M  V30 32 1 29 14
M  V30 33 1 29 28
M  V30 34 1 30 5
M  V30 35 1 31 6
M  V30 36 1 32 7
M  V30 37 1 33 9
M  V30 38 1 34 9
M  V30 39 1 35 10
M  V30 40 1 36 10
M  V30 41 1 37 12
M  V30 42 1 38 12
M  V30 43 1 39 13
M  V30 44 1 40 13
M  V30 45 1 41 15
M  V30 46 1 42 15
M  V30 47 1 43 16
M  V30 48 1 44 16
M  V30 49 1 45 22
M  V30 50 1 46 25
M  V30 51 1 47 26
M  V30 52 1 48 28
M  V30 53 1 49 28
M  V30 54 1 50 29
M  V30 55 1 51 29
M  V30 END BOND
M  V30 END CTAB
M  END
>  <b_m_subgroup_collapsed>  (1854) 
0

>  <r_i_docking_score>  (1854) 
-6.5704974458629204

>  <s_m_subgroup_title>  (1854) 
glide-dock_SP_D22_pv

>  <s_m_subgroupid>  (1854) 
glide-dock_SP_D22_pv

>  <Molecule ChEMBL ID>  (1854) 
CHEMBL5776728

>  <Standard Type>  (1854) 
Ki

>  <Standard Value>  (1854) 
10000.0

>  <label>  (1854) 
0

$$$$
CHEMBL515187
     RDKit          3D

  0  0  0  0  0  0  0  0  0  0999 V3000
M  V30 BEGIN CTAB
M  V30 COUNTS 51 54 0 0 1
M  V30 BEGIN ATOM
M  V30 1 C 9.549126 6.947312 -6.888296 0
M  V30 2 C 9.509649 7.597007 -8.276427 0
M  V30 3 C 9.194979 6.578871 -9.390663 0
M  V30 4 N 8.886023 7.196296 -10.717531 0 CFG=1 CHG=1
M  V30 5 C 9.854016 8.198699 -11.195086 0
M  V30 6 C 11.137681 7.478284 -11.580485 0
M  V30 7 C 10.943297 6.416309 -12.646865 0
M  V30 8 C 11.957140 6.011939 -13.521954 0
M  V30 9 C 11.765409 4.890328 -14.330915 0
M  V30 10 C 10.551573 4.186361 -14.277897 0
M  V30 11 C 9.441408 4.569981 -13.473487 0
M  V30 12 C 9.708057 5.710435 -12.654176 0
M  V30 13 C 8.533391 6.252119 -11.819776 0 CFG=1
M  V30 14 C 7.531413 5.181447 -11.380525 0
M  V30 15 C 7.195323 4.172327 -12.443017 0
M  V30 16 C 5.953730 3.521511 -12.320298 0
M  V30 17 C 5.601701 2.502442 -13.208662 0
M  V30 18 C 6.486024 2.162820 -14.239688 0
M  V30 19 C 7.735071 2.811625 -14.376529 0
M  V30 20 O 8.486128 2.449889 -15.468417 0
M  V30 21 C 9.033960 1.211966 -15.544912 0
M  V30 22 O 9.035390 0.361891 -14.652836 0
M  V30 23 C 9.675782 0.962869 -16.910688 0
M  V30 24 C 10.758415 -0.124097 -16.886852 0
M  V30 25 C 8.129620 3.841200 -13.459388 0
M  V30 26 H 9.767311 7.686652 -6.117448 0
M  V30 27 H 10.314067 6.172328 -6.833168 0
M  V30 28 H 8.588757 6.491448 -6.643407 0
M  V30 29 H 8.752109 8.382576 -8.271269 0
M  V30 30 H 10.469841 8.080163 -8.456697 0
M  V30 31 H 9.998833 5.847347 -9.482452 0
M  V30 32 H 8.313608 6.037020 -9.049144 0
M  V30 33 H 9.439903 8.714724 -12.062985 0
M  V30 34 H 10.039910 8.972317 -10.452477 0
M  V30 35 H 11.899192 8.172324 -11.922359 0
M  V30 36 H 11.581847 7.001494 -10.706723 0
M  V30 37 H 12.898329 6.536179 -13.536680 0
M  V30 38 H 12.560301 4.550788 -14.979128 0
M  V30 39 H 10.527205 3.319517 -14.906336 0
M  V30 40 H 7.989704 6.867443 -12.539278 0
M  V30 41 H 7.918088 4.581478 -10.557981 0
M  V30 42 H 6.616499 5.670823 -11.046865 0
M  V30 43 H 5.286022 3.782467 -11.512284 0
M  V30 44 H 4.654972 1.992214 -13.107935 0
M  V30 45 H 6.200260 1.389797 -14.938554 0
M  V30 46 H 8.887404 0.680342 -17.608328 0
M  V30 47 H 10.101893 1.897364 -17.276649 0
M  V30 48 H 11.157279 -0.294110 -17.886787 0
M  V30 49 H 10.365606 -1.073846 -16.521927 0
M  V30 50 H 11.589695 0.172330 -16.246784 0
M  V30 51 H 7.991856 7.676191 -10.544410 0
M  V30 END ATOM
M  V30 BEGIN BOND
M  V30 1 1 2 1
M  V30 2 1 3 2
M  V30 3 1 4 3
M  V30 4 1 5 4
M  V30 5 1 6 5
M  V30 6 1 7 6
M  V30 7 1 8 7
M  V30 8 2 9 8
M  V30 9 1 10 9
M  V30 10 2 11 10
M  V30 11 2 12 7
M  V30 12 1 12 11
M  V30 13 1 13 4
M  V30 14 1 13 12
M  V30 15 1 14 13
M  V30 16 1 15 14
M  V30 17 1 16 15
M  V30 18 2 17 16
M  V30 19 1 18 17
M  V30 20 2 19 18
M  V30 21 1 20 19
M  V30 22 1 21 20
M  V30 23 2 22 21
M  V30 24 1 23 21
M  V30 25 1 24 23
M  V30 26 1 25 11
M  V30 27 2 25 15
M  V30 28 1 25 19
M  V30 29 1 26 1
M  V30 30 1 27 1
M  V30 31 1 28 1
M  V30 32 1 29 2
M  V30 33 1 30 2
M  V30 34 1 31 3
M  V30 35 1 32 3
M  V30 36 1 33 5
M  V30 37 1 34 5
M  V30 38 1 35 6
M  V30 39 1 36 6
M  V30 40 1 37 8
M  V30 41 1 38 9
M  V30 42 1 39 10
M  V30 43 1 13 40 CFG=3
M  V30 44 1 41 14
M  V30 45 1 42 14
M  V30 46 1 43 16
M  V30 47 1 44 17
M  V30 48 1 45 18
M  V30 49 1 46 23
M  V30 50 1 47 23
M  V30 51 1 48 24
M  V30 52 1 49 24
M  V30 53 1 50 24
M  V30 54 1 4 51 CFG=1
M  V30 END BOND
M  V30 END CTAB
M  END
>  <b_m_subgroup_collapsed>  (1855) 
0

>  <r_i_docking_score>  (1855) 
-6.5666914834387597

>  <s_m_subgroup_title>  (1855) 
glide-dock_SP_D22_pv

>  <s_m_subgroupid>  (1855) 
glide-dock_SP_D22_pv

>  <Molecule ChEMBL ID>  (1855) 
CHEMBL515187

>  <Standard Type>  (1855) 
Ki

>  <Standard Value>  (1855) 
10000.0

>  <label>  (1855) 
0

$$$$
CHEMBL4570209
     RDKit          3D

  0  0  0  0  0  0  0  0  0  0999 V3000
M  V30 BEGIN CTAB
M  V30 COUNTS 78 83 0 0 1
M  V30 BEGIN ATOM
M  V30 1 C 10.847307 8.837153 -8.877219 0
M  V30 2 O 11.386771 8.511161 -10.150806 0
M  V30 3 C 10.858400 7.428546 -10.818301 0
M  V30 4 C 11.277696 7.218225 -12.145776 0
M  V30 5 C 10.740842 6.172380 -12.917974 0
M  V30 6 C 9.809513 5.272948 -12.360020 0
M  V30 7 C 9.263533 4.170679 -13.200197 0
M  V30 8 C 10.205719 3.285667 -13.905178 0
M  V30 9 O 11.423357 3.467048 -13.889157 0
M  V30 10 N 9.645910 2.200575 -14.617570 0
M  V30 11 C 10.525133 1.279788 -15.329708 0
M  V30 12 C 10.523343 1.434080 -16.871643 0
M  V30 13 C 10.885688 2.837372 -17.386011 0
M  V30 14 C 12.363324 3.210506 -17.140488 0
M  V30 15 N 12.668338 4.642105 -17.412287 0 CFG=1 CHG=1
M  V30 16 C 12.069520 5.545492 -16.393301 0
M  V30 17 C 12.334426 7.017881 -16.713327 0
M  V30 18 C 13.835222 7.277137 -16.798067 0
M  V30 19 C 14.493829 6.343392 -17.822594 0 CFG=1
M  V30 20 C 15.976259 6.596642 -17.838854 0
M  V30 21 C 16.939541 5.984961 -17.069197 0
M  V30 22 N 18.165760 6.573581 -17.325628 0
M  V30 23 C 18.033150 7.591156 -18.248846 0
M  V30 24 C 18.960222 8.482437 -18.812304 0
M  V30 25 C 18.508966 9.464952 -19.713787 0
M  V30 26 C 17.142860 9.563356 -20.045927 0
M  V30 27 O 16.785698 10.571801 -20.913292 0
M  V30 28 C 15.404160 10.860969 -21.071779 0
M  V30 29 C 16.226402 8.639935 -19.482090 0
M  V30 30 C 16.649332 7.631549 -18.580992 0
M  V30 31 C 14.135201 4.869764 -17.523632 0
M  V30 32 C 8.272940 1.917843 -14.647401 0
M  V30 33 O 7.827455 0.950754 -15.275043 0
M  V30 34 N 7.418996 2.764812 -13.923251 0
M  V30 35 C 6.085772 2.409914 -13.777728 0
M  V30 36 C 5.239227 3.133626 -13.027479 0
M  V30 37 C 5.685570 4.353642 -12.406640 0
M  V30 38 C 6.959532 4.729725 -12.539447 0
M  V30 39 C 7.927241 3.884274 -13.239713 0
M  V30 40 C 9.443943 5.431715 -11.000126 0
M  V30 41 C 9.933263 6.518568 -10.248178 0
M  V30 42 H 11.285157 9.772328 -8.525318 0
M  V30 43 H 9.766205 8.976842 -8.922981 0
M  V30 44 H 11.078761 8.064777 -8.143723 0
M  V30 45 H 12.020390 7.864073 -12.582580 0
M  V30 46 H 11.045323 6.078016 -13.945645 0
M  V30 47 H 11.532469 1.372706 -14.933770 0
M  V30 48 H 10.217343 0.272451 -15.035220 0
M  V30 49 H 11.203276 0.699758 -17.305569 0
M  V30 50 H 9.538253 1.171456 -17.255325 0
M  V30 51 H 10.685454 2.883653 -18.455919 0
M  V30 52 H 10.199562 3.545743 -16.930998 0
M  V30 53 H 12.663729 2.981617 -16.117844 0
M  V30 54 H 12.981102 2.580137 -17.781563 0
M  V30 55 H 10.993367 5.404924 -16.311171 0
M  V30 56 H 12.499878 5.308316 -15.420049 0
M  V30 57 H 11.849810 7.293568 -17.653011 0
M  V30 58 H 11.899463 7.644659 -15.933770 0
M  V30 59 H 14.015616 8.320936 -17.053719 0
M  V30 60 H 14.281915 7.113628 -15.815846 0
M  V30 61 H 14.088177 6.584896 -18.805254 0
M  V30 62 H 16.854174 5.188556 -16.342999 0
M  V30 63 H 19.022322 6.311240 -16.861895 0
M  V30 64 H 20.006989 8.423958 -18.548710 0
M  V30 65 H 19.215258 10.160398 -20.143761 0
M  V30 66 H 15.286788 11.728246 -21.721872 0
M  V30 67 H 14.871034 10.029270 -21.533939 0
M  V30 68 H 14.936783 11.103980 -20.115732 0
M  V30 69 H 15.175991 8.684851 -19.718300 0
M  V30 70 H 14.584614 4.571903 -16.580439 0
M  V30 71 H 14.554943 4.223112 -18.295855 0
M  V30 72 H 5.702351 1.507622 -14.238675 0
M  V30 73 H 4.213351 2.816752 -12.920164 0
M  V30 74 H 5.002373 4.968485 -11.843867 0
M  V30 75 H 7.226049 5.683011 -12.106950 0
M  V30 76 H 8.760013 4.739206 -10.529916 0
M  V30 77 H 9.588107 6.624447 -9.227847 0
M  V30 78 H 12.261558 4.876446 -18.306707 0
M  V30 END ATOM
M  V30 BEGIN BOND
M  V30 1 1 2 1
M  V30 2 1 3 2
M  V30 3 1 4 3
M  V30 4 2 5 4
M  V30 5 1 6 5
M  V30 6 1 7 6
M  V30 7 1 8 7
M  V30 8 2 9 8
M  V30 9 1 10 8
M  V30 10 1 11 10
M  V30 11 1 12 11
M  V30 12 1 13 12
M  V30 13 1 14 13
M  V30 14 1 15 14
M  V30 15 1 16 15
M  V30 16 1 17 16
M  V30 17 1 18 17
M  V30 18 1 19 18
M  V30 19 1 20 19
M  V30 20 2 21 20
M  V30 21 1 22 21
M  V30 22 1 23 22
M  V30 23 1 24 23
M  V30 24 2 25 24
M  V30 25 1 26 25
M  V30 26 1 27 26
M  V30 27 1 28 27
M  V30 28 2 29 26
M  V30 29 1 30 20
M  V30 30 2 30 23
M  V30 31 1 30 29
M  V30 32 1 31 15
M  V30 33 1 31 19
M  V30 34 1 32 10
M  V30 35 2 33 32
M  V30 36 1 34 32
M  V30 37 1 35 34
M  V30 38 2 36 35
M  V30 39 1 37 36
M  V30 40 2 38 37
M  V30 41 2 39 7
M  V30 42 1 39 34
M  V30 43 1 39 38
M  V30 44 2 40 6
M  V30 45 2 41 3
M  V30 46 1 41 40
M  V30 47 1 42 1
M  V30 48 1 43 1
M  V30 49 1 44 1
M  V30 50 1 45 4
M  V30 51 1 46 5
M  V30 52 1 47 11
M  V30 53 1 48 11
M  V30 54 1 49 12
M  V30 55 1 50 12
M  V30 56 1 51 13
M  V30 57 1 52 13
M  V30 58 1 53 14
M  V30 59 1 54 14
M  V30 60 1 55 16
M  V30 61 1 56 16
M  V30 62 1 57 17
M  V30 63 1 58 17
M  V30 64 1 59 18
M  V30 65 1 60 18
M  V30 66 1 19 61 CFG=3
M  V30 67 1 62 21
M  V30 68 1 63 22
M  V30 69 1 64 24
M  V30 70 1 65 25
M  V30 71 1 66 28
M  V30 72 1 67 28
M  V30 73 1 68 28
M  V30 74 1 69 29
M  V30 75 1 70 31
M  V30 76 1 71 31
M  V30 77 1 72 35
M  V30 78 1 73 36
M  V30 79 1 74 37
M  V30 80 1 75 38
M  V30 81 1 76 40
M  V30 82 1 77 41
M  V30 83 1 15 78 CFG=3
M  V30 END BOND
M  V30 END CTAB
M  END
>  <b_m_subgroup_collapsed>  (1856) 
0

>  <r_i_docking_score>  (1856) 
-6.5654206339918204

>  <s_m_subgroup_title>  (1856) 
glide-dock_SP_D22_pv

>  <s_m_subgroupid>  (1856) 
glide-dock_SP_D22_pv

>  <Molecule ChEMBL ID>  (1856) 
CHEMBL4570209

>  <Standard Type>  (1856) 
Ki

>  <Standard Value>  (1856) 
11160.0

>  <label>  (1856) 
0

$$$$
CHEMBL437888
     RDKit          3D

  0  0  0  0  0  0  0  0  0  0999 V3000
M  V30 BEGIN CTAB
M  V30 COUNTS 48 51 0 0 1
M  V30 BEGIN ATOM
M  V30 1 C 12.485988 8.347419 -3.474805 0
M  V30 2 C 12.024296 7.023026 -3.491769 0
M  V30 3 C 11.242537 6.572298 -4.572001 0
M  V30 4 C 10.864968 7.414036 -5.641028 0
M  V30 5 C 9.936030 7.337383 -6.749187 0
M  V30 6 C 10.067312 8.515393 -7.417278 0
M  V30 7 N 10.982861 9.327614 -6.778004 0
M  V30 8 C 11.431523 8.721577 -5.630569 0
M  V30 9 C 12.238437 9.181199 -4.576906 0
M  V30 10 C 9.285483 8.972368 -8.574968 0
M  V30 11 C 10.117195 9.308988 -9.808139 0
M  V30 12 C 11.295596 8.435099 -10.200948 0
M  V30 13 C 10.809579 7.208572 -10.938372 0
M  V30 14 C 10.349631 6.125485 -9.956922 0
M  V30 15 N 8.930861 6.069245 -9.591521 0 CFG=1 CHG=1
M  V30 16 C 8.085248 5.372466 -10.602530 0
M  V30 17 C 8.362169 5.598516 -12.080625 0
M  V30 18 C 9.305471 4.711205 -12.867154 0
M  V30 19 C 7.819386 4.598158 -13.079265 0
M  V30 20 C 8.819203 5.426294 -8.246817 0
M  V30 21 C 8.809587 6.374644 -7.021978 0
M  V30 22 H 13.075407 8.706839 -2.643373 0
M  V30 23 H 12.247938 6.355559 -2.671579 0
M  V30 24 H 10.876895 5.566681 -4.550559 0
M  V30 25 H 11.202313 10.264700 -7.080252 0
M  V30 26 H 12.650098 10.172186 -4.602111 0
M  V30 27 H 8.486506 8.292180 -8.828970 0
M  V30 28 H 8.700043 9.819671 -8.248632 0
M  V30 29 H 9.430976 9.372330 -10.652387 0
M  V30 30 H 10.587222 10.264143 -9.635653 0
M  V30 31 H 11.928455 9.003306 -10.883751 0
M  V30 32 H 11.939116 8.193271 -9.354271 0
M  V30 33 H 10.068080 7.479436 -11.683025 0
M  V30 34 H 11.653625 6.835131 -11.515715 0
M  V30 35 H 10.486020 5.141792 -10.390744 0
M  V30 36 H 10.986179 6.159272 -9.072599 0
M  V30 37 H 8.059520 4.298747 -10.410224 0
M  V30 38 H 7.085689 5.771899 -10.442456 0
M  V30 39 H 8.237355 6.630494 -12.401974 0
M  V30 40 H 9.893749 5.180354 -13.653319 0
M  V30 41 H 9.794538 3.889422 -12.346884 0
M  V30 42 H 7.321226 3.712752 -12.689918 0
M  V30 43 H 7.422555 4.972329 -14.019734 0
M  V30 44 H 7.875283 4.884869 -8.197337 0
M  V30 45 H 9.580638 4.654708 -8.133516 0
M  V30 46 H 8.666636 5.772372 -6.134472 0
M  V30 47 H 7.889931 6.949069 -7.046812 0
M  V30 48 H 8.565410 7.009476 -9.517668 0
M  V30 END ATOM
M  V30 BEGIN BOND
M  V30 1 2 2 1
M  V30 2 1 3 2
M  V30 3 2 4 3
M  V30 4 1 5 4
M  V30 5 2 6 5
M  V30 6 1 7 6
M  V30 7 1 8 4
M  V30 8 1 8 7
M  V30 9 1 9 1
M  V30 10 2 9 8
M  V30 11 1 10 6
M  V30 12 1 11 10
M  V30 13 1 12 11
M  V30 14 1 13 12
M  V30 15 1 14 13
M  V30 16 1 15 14
M  V30 17 1 16 15
M  V30 18 1 17 16
M  V30 19 1 18 17
M  V30 20 1 19 17
M  V30 21 1 19 18
M  V30 22 1 20 15
M  V30 23 1 21 5
M  V30 24 1 21 20
M  V30 25 1 22 1
M  V30 26 1 23 2
M  V30 27 1 24 3
M  V30 28 1 25 7
M  V30 29 1 26 9
M  V30 30 1 27 10
M  V30 31 1 28 10
M  V30 32 1 29 11
M  V30 33 1 30 11
M  V30 34 1 31 12
M  V30 35 1 32 12
M  V30 36 1 33 13
M  V30 37 1 34 13
M  V30 38 1 35 14
M  V30 39 1 36 14
M  V30 40 1 37 16
M  V30 41 1 38 16
M  V30 42 1 39 17
M  V30 43 1 40 18
M  V30 44 1 41 18
M  V30 45 1 42 19
M  V30 46 1 43 19
M  V30 47 1 44 20
M  V30 48 1 45 20
M  V30 49 1 46 21
M  V30 50 1 47 21
M  V30 51 1 15 48 CFG=1
M  V30 END BOND
M  V30 END CTAB
M  END
>  <b_m_subgroup_collapsed>  (1857) 
0

>  <r_i_docking_score>  (1857) 
-6.5644298825025498

>  <s_m_subgroup_title>  (1857) 
glide-dock_SP_D22_pv

>  <s_m_subgroupid>  (1857) 
glide-dock_SP_D22_pv

>  <Molecule ChEMBL ID>  (1857) 
CHEMBL437888

>  <Standard Type>  (1857) 
Ki

>  <Standard Value>  (1857) 
10000.0

>  <label>  (1857) 
0

$$$$
CHEMBL86
     RDKit          3D

  0  0  0  0  0  0  0  0  0  0999 V3000
M  V30 BEGIN CTAB
M  V30 COUNTS 43 43 0 0 1
M  V30 BEGIN ATOM
M  V30 1 C 5.445537 3.573371 -12.815357 0
M  V30 2 C 6.145832 4.850428 -12.323546 0
M  V30 3 N 7.588971 4.625846 -12.021706 0 CHG=1
M  V30 4 C 8.397228 4.643013 -13.277270 0
M  V30 5 C 9.764841 3.955311 -13.166857 0
M  V30 6 C 8.094645 5.557935 -10.972681 0
M  V30 7 C 9.167438 4.957204 -10.050846 0
M  V30 8 N 9.723661 5.968983 -9.166243 0
M  V30 9 C 9.254704 6.290482 -7.953310 0
M  V30 10 O 8.267863 5.771968 -7.446829 0
M  V30 11 C 10.088162 7.266972 -7.184469 0
M  V30 12 C 10.427354 6.972454 -5.846772 0
M  V30 13 C 11.296228 7.799348 -5.120157 0
M  V30 14 Cl 11.831199 7.315058 -3.546503 0
M  V30 15 C 11.770973 8.982547 -5.712887 0
M  V30 16 N 12.701406 9.772072 -5.046885 0
M  V30 17 C 11.366862 9.327244 -7.014642 0
M  V30 18 C 10.564212 8.456923 -7.780440 0
M  V30 19 O 10.243546 8.737825 -9.088283 0
M  V30 20 C 11.285954 9.282040 -9.882025 0
M  V30 21 H 4.397827 3.773836 -13.038896 0
M  V30 22 H 5.890051 3.168997 -13.723197 0
M  V30 23 H 5.473451 2.794863 -12.052956 0
M  V30 24 H 5.599360 5.188754 -11.446796 0
M  V30 25 H 6.038277 5.657518 -13.048871 0
M  V30 26 H 7.852266 4.123104 -14.063912 0
M  V30 27 H 8.516778 5.667538 -13.634583 0
M  V30 28 H 10.167913 3.752852 -14.159904 0
M  V30 29 H 10.494611 4.589995 -12.666702 0
M  V30 30 H 9.701545 3.002233 -12.640165 0
M  V30 31 H 7.285782 5.772758 -10.284532 0
M  V30 32 H 8.406365 6.508698 -11.409045 0
M  V30 33 H 9.992857 4.502360 -10.587448 0
M  V30 34 H 8.720931 4.171421 -9.446154 0
M  V30 35 H 10.535608 6.475405 -9.486925 0
M  V30 36 H 10.059486 6.079498 -5.374994 0
M  V30 37 H 13.433137 10.193125 -5.610648 0
M  V30 38 H 13.053288 9.397547 -4.176331 0
M  V30 39 H 11.685949 10.256183 -7.444260 0
M  V30 40 H 11.124182 8.982046 -10.916947 0
M  V30 41 H 11.286060 10.369833 -9.836834 0
M  V30 42 H 12.271503 8.913356 -9.591962 0
M  V30 43 H 7.638110 3.700638 -11.620425 0
M  V30 END ATOM
M  V30 BEGIN BOND
M  V30 1 1 2 1
M  V30 2 1 3 2
M  V30 3 1 4 3
M  V30 4 1 5 4
M  V30 5 1 6 3
M  V30 6 1 7 6
M  V30 7 1 8 7
M  V30 8 1 9 8
M  V30 9 2 10 9
M  V30 10 1 11 9
M  V30 11 1 12 11
M  V30 12 2 13 12
M  V30 13 1 14 13
M  V30 14 1 15 13
M  V30 15 1 16 15
M  V30 16 2 17 15
M  V30 17 2 18 11
M  V30 18 1 18 17
M  V30 19 1 19 18
M  V30 20 1 20 19
M  V30 21 1 21 1
M  V30 22 1 22 1
M  V30 23 1 23 1
M  V30 24 1 24 2
M  V30 25 1 25 2
M  V30 26 1 26 4
M  V30 27 1 27 4
M  V30 28 1 28 5
M  V30 29 1 29 5
M  V30 30 1 30 5
M  V30 31 1 31 6
M  V30 32 1 32 6
M  V30 33 1 33 7
M  V30 34 1 34 7
M  V30 35 1 35 8
M  V30 36 1 36 12
M  V30 37 1 37 16
M  V30 38 1 38 16
M  V30 39 1 39 17
M  V30 40 1 40 20
M  V30 41 1 41 20
M  V30 42 1 42 20
M  V30 43 1 43 3
M  V30 END BOND
M  V30 END CTAB
M  END
>  <b_m_subgroup_collapsed>  (1858) 
0

>  <r_i_docking_score>  (1858) 
-6.5633132116103399

>  <s_m_subgroup_title>  (1858) 
glide-dock_SP_D22_pv

>  <s_m_subgroupid>  (1858) 
glide-dock_SP_D22_pv

>  <Molecule ChEMBL ID>  (1858) 
CHEMBL86

>  <Standard Type>  (1858) 
Ki

>  <Standard Value>  (1858) 
42.0

>  <label>  (1858) 
1

$$$$
CHEMBL487960
     RDKit          3D

  0  0  0  0  0  0  0  0  0  0999 V3000
M  V30 BEGIN CTAB
M  V30 COUNTS 57 59 0 0 1
M  V30 BEGIN ATOM
M  V30 1 C 5.864246 -0.799249 -14.327546 0
M  V30 2 O 5.284544 0.197422 -13.497821 0
M  V30 3 C 5.864037 1.449635 -13.486491 0
M  V30 4 C 5.286064 2.417905 -12.642195 0
M  V30 5 C 5.806686 3.720565 -12.551995 0
M  V30 6 C 6.934306 4.071303 -13.308249 0
M  V30 7 C 7.532216 3.119578 -14.157963 0
M  V30 8 C 8.756559 3.516443 -14.952801 0
M  V30 9 C 10.062875 3.070432 -14.293071 0
M  V30 10 C 11.236533 3.778015 -14.944633 0
M  V30 11 C 11.836293 3.211987 -16.088945 0
M  V30 12 C 12.884905 3.882077 -16.743505 0
M  V30 13 C 13.346988 5.111705 -16.241905 0
M  V30 14 C 12.756358 5.677500 -15.096238 0
M  V30 15 C 11.673778 5.029781 -14.448063 0
M  V30 16 O 10.995993 5.562540 -13.368053 0
M  V30 17 C 11.245839 6.914459 -13.008810 0
M  V30 18 C 10.054006 7.493774 -12.228352 0
M  V30 19 N 10.128151 7.213203 -10.797232 0
M  V30 20 C 9.362546 5.996934 -10.503682 0
M  V30 21 C 9.420050 5.685298 -8.996846 0
M  V30 22 N 8.885778 6.828928 -8.220117 0 CHG=1
M  V30 23 C 8.823061 6.574300 -6.770547 0
M  V30 24 C 9.604866 8.074156 -8.556918 0
M  V30 25 C 9.520650 8.329902 -10.067929 0
M  V30 26 C 6.998922 1.815949 -14.253756 0
M  V30 27 H 5.287455 -1.720995 -14.246570 0
M  V30 28 H 5.853681 -0.500327 -15.376297 0
M  V30 29 H 6.886852 -1.026345 -14.024443 0
M  V30 30 H 4.436553 2.159207 -12.037087 0
M  V30 31 H 5.353545 4.443061 -11.889139 0
M  V30 32 H 7.340583 5.069173 -13.227461 0
M  V30 33 H 8.757585 4.603438 -15.046994 0
M  V30 34 H 8.687498 3.116655 -15.965264 0
M  V30 35 H 10.181427 1.988129 -14.365152 0
M  V30 36 H 10.047044 3.298526 -13.226159 0
M  V30 37 H 11.486005 2.265175 -16.473692 0
M  V30 38 H 13.343929 3.448010 -17.620550 0
M  V30 39 H 14.167395 5.619076 -16.728275 0
M  V30 40 H 13.151166 6.614922 -14.736619 0
M  V30 41 H 12.179638 7.005875 -12.452152 0
M  V30 42 H 11.337365 7.524411 -13.906533 0
M  V30 43 H 10.085773 8.571927 -12.370398 0
M  V30 44 H 9.098577 7.177747 -12.646626 0
M  V30 45 H 8.322585 6.112297 -10.818689 0
M  V30 46 H 9.774566 5.157578 -11.066495 0
M  V30 47 H 8.828785 4.792423 -8.785701 0
M  V30 48 H 10.446607 5.473071 -8.692929 0
M  V30 49 H 9.797618 6.297235 -6.365489 0
M  V30 50 H 8.469025 7.463380 -6.247188 0
M  V30 51 H 8.111596 5.772901 -6.572107 0
M  V30 52 H 9.152085 8.911253 -8.022484 0
M  V30 53 H 10.646331 8.008288 -8.236750 0
M  V30 54 H 10.059216 9.250544 -10.291001 0
M  V30 55 H 8.486291 8.482065 -10.381474 0
M  V30 56 H 7.482993 1.109142 -14.910185 0
M  V30 57 H 7.920492 6.972394 -8.515063 0
M  V30 END ATOM
M  V30 BEGIN BOND
M  V30 1 1 2 1
M  V30 2 1 3 2
M  V30 3 2 4 3
M  V30 4 1 5 4
M  V30 5 2 6 5
M  V30 6 1 7 6
M  V30 7 1 8 7
M  V30 8 1 9 8
M  V30 9 1 10 9
M  V30 10 2 11 10
M  V30 11 1 12 11
M  V30 12 2 13 12
M  V30 13 1 14 13
M  V30 14 1 15 10
M  V30 15 2 15 14
M  V30 16 1 16 15
M  V30 17 1 17 16
M  V30 18 1 18 17
M  V30 19 1 19 18
M  V30 20 1 20 19
M  V30 21 1 21 20
M  V30 22 1 22 21
M  V30 23 1 23 22
M  V30 24 1 24 22
M  V30 25 1 25 19
M  V30 26 1 25 24
M  V30 27 1 26 3
M  V30 28 2 26 7
M  V30 29 1 27 1
M  V30 30 1 28 1
M  V30 31 1 29 1
M  V30 32 1 30 4
M  V30 33 1 31 5
M  V30 34 1 32 6
M  V30 35 1 33 8
M  V30 36 1 34 8
M  V30 37 1 35 9
M  V30 38 1 36 9
M  V30 39 1 37 11
M  V30 40 1 38 12
M  V30 41 1 39 13
M  V30 42 1 40 14
M  V30 43 1 41 17
M  V30 44 1 42 17
M  V30 45 1 43 18
M  V30 46 1 44 18
M  V30 47 1 45 20
M  V30 48 1 46 20
M  V30 49 1 47 21
M  V30 50 1 48 21
M  V30 51 1 49 23
M  V30 52 1 50 23
M  V30 53 1 51 23
M  V30 54 1 52 24
M  V30 55 1 53 24
M  V30 56 1 54 25
M  V30 57 1 55 25
M  V30 58 1 56 26
M  V30 59 1 57 22
M  V30 END BOND
M  V30 END CTAB
M  END
>  <b_m_subgroup_collapsed>  (1859) 
0

>  <r_i_docking_score>  (1859) 
-6.5627563233226098

>  <s_m_subgroup_title>  (1859) 
glide-dock_SP_D22_pv

>  <s_m_subgroupid>  (1859) 
glide-dock_SP_D22_pv

>  <Molecule ChEMBL ID>  (1859) 
CHEMBL487960

>  <Standard Type>  (1859) 
Ki

>  <Standard Value>  (1859) 
178000.0

>  <label>  (1859) 
0

$$$$
CHEMBL595720
     RDKit          3D

  0  0  0  0  0  0  0  0  0  0999 V3000
M  V30 BEGIN CTAB
M  V30 COUNTS 42 44 0 0 1
M  V30 BEGIN ATOM
M  V30 1 C 7.090830 6.613542 -12.586370 0
M  V30 2 N 7.429005 5.215876 -12.931263 0 CFG=1 CHG=1
M  V30 3 C 8.193400 4.568007 -11.846437 0
M  V30 4 C 9.666880 5.013366 -11.755739 0
M  V30 5 C 10.496172 5.186908 -13.045412 0
M  V30 6 C 11.270805 6.369503 -13.138762 0
M  V30 7 C 12.101236 6.612774 -14.245994 0
M  V30 8 O 12.811976 7.773062 -14.318114 0
M  V30 9 C 12.202488 5.657134 -15.271004 0
M  V30 10 C 11.463257 4.465433 -15.183867 0
M  V30 11 C 10.613686 4.218472 -14.084533 0
M  V30 12 C 9.831592 2.920819 -14.100061 0
M  V30 13 C 8.541344 3.081885 -14.928028 0
M  V30 14 C 7.366163 2.321428 -14.341834 0
M  V30 15 C 7.344601 0.922190 -14.535412 0
M  V30 16 C 6.310672 0.136510 -13.994610 0
M  V30 17 C 5.289817 0.750322 -13.251164 0
M  V30 18 C 5.302189 2.140822 -13.045364 0
M  V30 19 C 6.328022 2.950159 -13.589074 0
M  V30 20 C 6.209460 4.463691 -13.353410 0
M  V30 21 H 6.290442 6.572346 -11.847773 0
M  V30 22 H 6.755207 7.200188 -13.443868 0
M  V30 23 H 7.935118 7.149409 -12.151708 0
M  V30 24 H 7.692126 4.722209 -10.888782 0
M  V30 25 H 8.189373 3.504042 -11.985980 0
M  V30 26 H 9.707956 5.940448 -11.184553 0
M  V30 27 H 10.162117 4.276078 -11.128981 0
M  V30 28 H 11.223768 7.114908 -12.357596 0
M  V30 29 H 13.378923 7.812249 -15.075063 0
M  V30 30 H 12.843644 5.829150 -16.123085 0
M  V30 31 H 11.546537 3.736450 -15.978196 0
M  V30 32 H 10.442802 2.129429 -14.539488 0
M  V30 33 H 9.659717 2.575005 -13.084296 0
M  V30 34 H 8.294372 4.131205 -15.046108 0
M  V30 35 H 8.722108 2.734919 -15.946147 0
M  V30 36 H 8.128317 0.439466 -15.101508 0
M  V30 37 H 6.303977 -0.933039 -14.153558 0
M  V30 38 H 4.486773 0.155657 -12.845036 0
M  V30 39 H 4.490975 2.580289 -12.484986 0
M  V30 40 H 5.456800 4.611539 -12.577129 0
M  V30 41 H 5.785657 4.910645 -14.246986 0
M  V30 42 H 8.055881 5.240411 -13.723183 0
M  V30 END ATOM
M  V30 BEGIN BOND
M  V30 1 1 2 1
M  V30 2 1 3 2
M  V30 3 1 4 3
M  V30 4 1 5 4
M  V30 5 1 6 5
M  V30 6 2 7 6
M  V30 7 1 8 7
M  V30 8 1 9 7
M  V30 9 2 10 9
M  V30 10 2 11 5
M  V30 11 1 11 10
M  V30 12 1 12 11
M  V30 13 1 13 12
M  V30 14 1 14 13
M  V30 15 2 15 14
M  V30 16 1 16 15
M  V30 17 2 17 16
M  V30 18 1 18 17
M  V30 19 1 19 14
M  V30 20 2 19 18
M  V30 21 1 20 2
M  V30 22 1 20 19
M  V30 23 1 21 1
M  V30 24 1 22 1
M  V30 25 1 23 1
M  V30 26 1 24 3
M  V30 27 1 25 3
M  V30 28 1 26 4
M  V30 29 1 27 4
M  V30 30 1 28 6
M  V30 31 1 29 8
M  V30 32 1 30 9
M  V30 33 1 31 10
M  V30 34 1 32 12
M  V30 35 1 33 12
M  V30 36 1 34 13
M  V30 37 1 35 13
M  V30 38 1 36 15
M  V30 39 1 37 16
M  V30 40 1 38 17
M  V30 41 1 39 18
M  V30 42 1 40 20
M  V30 43 1 41 20
M  V30 44 1 2 42 CFG=3
M  V30 END BOND
M  V30 END CTAB
M  END
>  <b_m_subgroup_collapsed>  (1860) 
0

>  <r_i_docking_score>  (1860) 
-6.5602211299128097

>  <s_m_subgroup_title>  (1860) 
glide-dock_SP_D22_pv

>  <s_m_subgroupid>  (1860) 
glide-dock_SP_D22_pv

>  <Molecule ChEMBL ID>  (1860) 
CHEMBL595720

>  <Standard Type>  (1860) 
Ki

>  <Standard Value>  (1860) 
10000.0

>  <label>  (1860) 
0

$$$$
CHEMBL3765754
     RDKit          3D

  0  0  0  0  0  0  0  0  0  0999 V3000
M  V30 BEGIN CTAB
M  V30 COUNTS 53 56 0 0 1
M  V30 BEGIN ATOM
M  V30 1 C 10.079797 -0.568702 -16.160528 0
M  V30 2 C 10.871645 0.552168 -16.753498 0
M  V30 3 N 11.699588 0.346134 -17.846416 0
M  V30 4 C 12.265267 1.529048 -18.064793 0
M  V30 5 O 11.855377 2.501998 -17.212454 0
M  V30 6 C 10.962188 1.871653 -16.384600 0
M  V30 7 C 10.303632 2.676241 -15.362587 0
M  V30 8 N 10.983085 3.512207 -14.571162 0
M  V30 9 N 10.047921 4.128860 -13.771499 0
M  V30 10 C 8.873371 3.617536 -14.145834 0
M  V30 11 S 7.313257 4.056962 -13.444484 0
M  V30 12 C 7.806175 4.260470 -11.705489 0
M  V30 13 C 7.935315 5.723743 -11.305541 0
M  V30 14 C 8.404153 5.874361 -9.836877 0
M  V30 15 N 9.288483 7.005068 -9.550584 0
M  V30 16 C 10.574719 6.790638 -10.186189 0
M  V30 17 C 11.590861 7.891612 -9.860667 0
M  V30 18 O 11.770842 7.951552 -8.455140 0
M  V30 19 C 10.566722 8.215494 -7.741954 0 CFG=2
M  V30 20 C 10.885668 8.290892 -6.255726 0
M  V30 21 C 10.886875 9.536410 -5.591831 0
M  V30 22 C 11.285976 9.621221 -4.242394 0
M  V30 23 C 11.693044 8.464786 -3.551419 0
M  V30 24 F 12.085947 8.550467 -2.258273 0
M  V30 25 C 11.686146 7.218013 -4.205829 0
M  V30 26 C 11.282660 7.131613 -5.551819 0
M  V30 27 C 9.502144 7.141474 -8.104779 0
M  V30 28 N 8.971245 2.718249 -15.145055 0
M  V30 29 C 7.906399 1.988088 -15.815668 0
M  V30 30 H 10.075542 -0.524764 -15.072062 0
M  V30 31 H 9.046824 -0.548075 -16.501236 0
M  V30 32 H 10.482624 -1.538185 -16.449806 0
M  V30 33 H 12.983674 1.728617 -18.846132 0
M  V30 34 H 7.062969 3.773040 -11.075705 0
M  V30 35 H 8.760298 3.772165 -11.525124 0
M  V30 36 H 8.598326 6.228648 -12.005447 0
M  V30 37 H 6.955550 6.172294 -11.446444 0
M  V30 38 H 7.528675 5.951478 -9.201606 0
M  V30 39 H 8.891209 4.950502 -9.518727 0
M  V30 40 H 10.926455 5.818783 -9.847279 0
M  V30 41 H 10.478132 6.728458 -11.268987 0
M  V30 42 H 12.550824 7.679729 -10.332457 0
M  V30 43 H 11.254665 8.858525 -10.236462 0
M  V30 44 H 10.193785 9.190386 -8.060418 0
M  V30 45 H 10.603725 10.433858 -6.123178 0
M  V30 46 H 11.286357 10.572615 -3.734333 0
M  V30 47 H 11.995357 6.328695 -3.678114 0
M  V30 48 H 11.313993 6.173676 -6.048162 0
M  V30 49 H 8.556063 7.384142 -7.617708 0
M  V30 50 H 9.815059 6.177324 -7.700931 0
M  V30 51 H 6.987116 2.572173 -15.831367 0
M  V30 52 H 8.185440 1.770575 -16.848829 0
M  V30 53 H 7.720591 1.051962 -15.285213 0
M  V30 END ATOM
M  V30 BEGIN BOND
M  V30 1 1 2 1
M  V30 2 1 3 2
M  V30 3 2 4 3
M  V30 4 1 5 4
M  V30 5 2 6 2
M  V30 6 1 6 5
M  V30 7 1 7 6
M  V30 8 2 8 7
M  V30 9 1 9 8
M  V30 10 2 10 9
M  V30 11 1 11 10
M  V30 12 1 12 11
M  V30 13 1 13 12
M  V30 14 1 14 13
M  V30 15 1 15 14
M  V30 16 1 16 15
M  V30 17 1 17 16
M  V30 18 1 18 17
M  V30 19 1 19 18
M  V30 20 1 20 19
M  V30 21 1 21 20
M  V30 22 2 22 21
M  V30 23 1 23 22
M  V30 24 1 24 23
M  V30 25 2 25 23
M  V30 26 2 26 20
M  V30 27 1 26 25
M  V30 28 1 27 15
M  V30 29 1 27 19
M  V30 30 1 28 7
M  V30 31 1 28 10
M  V30 32 1 29 28
M  V30 33 1 30 1
M  V30 34 1 31 1
M  V30 35 1 32 1
M  V30 36 1 33 4
M  V30 37 1 34 12
M  V30 38 1 35 12
M  V30 39 1 36 13
M  V30 40 1 37 13
M  V30 41 1 38 14
M  V30 42 1 39 14
M  V30 43 1 40 16
M  V30 44 1 41 16
M  V30 45 1 42 17
M  V30 46 1 43 17
M  V30 47 1 19 44 CFG=3
M  V30 48 1 45 21
M  V30 49 1 46 22
M  V30 50 1 47 25
M  V30 51 1 48 26
M  V30 52 1 49 27
M  V30 53 1 50 27
M  V30 54 1 51 29
M  V30 55 1 52 29
M  V30 56 1 53 29
M  V30 END BOND
M  V30 END CTAB
M  END
>  <b_m_subgroup_collapsed>  (1861) 
0

>  <r_i_docking_score>  (1861) 
-6.5578726335813702

>  <s_m_subgroup_title>  (1861) 
glide-dock_SP_D22_pv

>  <s_m_subgroupid>  (1861) 
glide-dock_SP_D22_pv

>  <Molecule ChEMBL ID>  (1861) 
CHEMBL3765754

>  <Standard Type>  (1861) 
Ki

>  <Standard Value>  (1861) 
10000.0

>  <label>  (1861) 
0

$$$$
CHEMBL596884
     RDKit          3D

  0  0  0  0  0  0  0  0  0  0999 V3000
M  V30 BEGIN CTAB
M  V30 COUNTS 44 47 0 0 1
M  V30 BEGIN ATOM
M  V30 1 C 11.244115 9.731169 -6.522253 0
M  V30 2 C 10.838514 9.260849 -7.712758 0
M  V30 3 C 11.758118 8.586044 -8.715547 0
M  V30 4 C 11.072337 7.847253 -9.864977 0
M  V30 5 C 9.848943 7.192595 -9.632215 0
M  V30 6 C 9.255912 6.435508 -10.647955 0
M  V30 7 C 9.878326 6.309762 -11.901028 0
M  V30 8 C 11.096179 6.972795 -12.190047 0
M  V30 9 C 11.684049 7.744844 -11.141101 0
M  V30 10 O 12.886066 8.362158 -11.327590 0
M  V30 11 C 11.686049 6.764620 -13.549544 0
M  V30 12 C 12.560538 7.689489 -14.179658 0
M  V30 13 C 13.041995 7.537205 -15.490446 0
M  V30 14 C 12.686602 6.415433 -16.243126 0
M  V30 15 C 11.831150 5.451650 -15.691820 0
M  V30 16 C 11.329923 5.653638 -14.371494 0
M  V30 17 C 10.331158 4.649140 -13.748633 0 CFG=1
M  V30 18 C 9.254649 5.389673 -12.925853 0
M  V30 19 N 9.725225 3.706962 -14.732976 0 CFG=2 CHG=1
M  V30 20 C 8.877655 2.641337 -14.144210 0
M  V30 21 C 10.771280 3.130717 -15.593479 0
M  V30 22 C 11.340593 4.236519 -16.461294 0
M  V30 23 H 12.273810 9.645108 -6.206757 0
M  V30 24 H 10.547376 10.209651 -5.850139 0
M  V30 25 H 9.802864 9.379651 -7.996613 0
M  V30 26 H 12.407838 9.360436 -9.108642 0
M  V30 27 H 12.403282 7.881270 -8.189643 0
M  V30 28 H 9.361449 7.238165 -8.668898 0
M  V30 29 H 8.319180 5.931823 -10.444532 0
M  V30 30 H 13.124589 8.989654 -10.656488 0
M  V30 31 H 12.886132 8.574047 -13.664333 0
M  V30 32 H 13.685728 8.291096 -15.919847 0
M  V30 33 H 13.056167 6.307315 -17.252560 0
M  V30 34 H 10.918712 4.047163 -13.050644 0
M  V30 35 H 8.616091 4.686471 -12.394132 0
M  V30 36 H 8.607072 5.978141 -13.577689 0
M  V30 37 H 9.448992 2.030317 -13.446520 0
M  V30 38 H 8.495407 1.980414 -14.926775 0
M  V30 39 H 8.000641 3.039376 -13.631235 0
M  V30 40 H 11.552222 2.665166 -14.985288 0
M  V30 41 H 10.361854 2.348099 -16.234570 0
M  V30 42 H 10.588805 4.574717 -17.178307 0
M  V30 43 H 12.166942 3.839046 -17.053938 0
M  V30 44 H 9.130391 4.261291 -15.332725 0
M  V30 END ATOM
M  V30 BEGIN BOND
M  V30 1 2 2 1
M  V30 2 1 3 2
M  V30 3 1 4 3
M  V30 4 1 5 4
M  V30 5 2 6 5
M  V30 6 1 7 6
M  V30 7 2 8 7
M  V30 8 2 9 4
M  V30 9 1 9 8
M  V30 10 1 10 9
M  V30 11 1 11 8
M  V30 12 2 12 11
M  V30 13 1 13 12
M  V30 14 2 14 13
M  V30 15 1 15 14
M  V30 16 1 16 11
M  V30 17 2 16 15
M  V30 18 1 17 16
M  V30 19 1 18 7
M  V30 20 1 18 17
M  V30 21 1 19 17
M  V30 22 1 20 19
M  V30 23 1 21 19
M  V30 24 1 22 15
M  V30 25 1 22 21
M  V30 26 1 23 1
M  V30 27 1 24 1
M  V30 28 1 25 2
M  V30 29 1 26 3
M  V30 30 1 27 3
M  V30 31 1 28 5
M  V30 32 1 29 6
M  V30 33 1 30 10
M  V30 34 1 31 12
M  V30 35 1 32 13
M  V30 36 1 33 14
M  V30 37 1 17 34 CFG=1
M  V30 38 1 35 18
M  V30 39 1 36 18
M  V30 40 1 37 20
M  V30 41 1 38 20
M  V30 42 1 39 20
M  V30 43 1 40 21
M  V30 44 1 41 21
M  V30 45 1 42 22
M  V30 46 1 43 22
M  V30 47 1 19 44 CFG=3
M  V30 END BOND
M  V30 END CTAB
M  END
>  <b_m_subgroup_collapsed>  (1862) 
0

>  <r_i_docking_score>  (1862) 
-6.55534437472327

>  <s_m_subgroup_title>  (1862) 
glide-dock_SP_D22_pv

>  <s_m_subgroupid>  (1862) 
glide-dock_SP_D22_pv

>  <Molecule ChEMBL ID>  (1862) 
CHEMBL596884

>  <Standard Type>  (1862) 
Ki

>  <Standard Value>  (1862) 
10000.0

>  <label>  (1862) 
0

$$$$
CHEMBL542399
     RDKit          3D

  0  0  0  0  0  0  0  0  0  0999 V3000
M  V30 BEGIN CTAB
M  V30 COUNTS 50 51 0 0 1
M  V30 BEGIN ATOM
M  V30 1 C 5.966646 4.996879 -12.611076 0
M  V30 2 C 7.371619 4.718602 -13.169267 0
M  V30 3 N 8.392905 4.529249 -12.104674 0 CHG=1
M  V30 4 C 9.533401 3.682917 -12.567167 0
M  V30 5 C 10.501516 4.383802 -13.536717 0
M  V30 6 C 8.796303 5.804653 -11.455273 0
M  V30 7 C 9.539514 5.628523 -10.113613 0
M  V30 8 C 10.546983 6.760836 -9.786841 0
M  V30 9 C 9.953412 8.130017 -9.352978 0 CFG=1
M  V30 10 C 9.349000 8.870036 -10.548596 0
M  V30 11 C 8.912517 8.022162 -8.229349 0
M  V30 12 C 9.609120 7.517256 -6.985475 0
M  V30 13 O 9.141829 6.572269 -6.367064 0
M  V30 14 C 10.857098 8.194634 -6.623142 0
M  V30 15 C 11.370872 8.191660 -5.239964 0
M  V30 16 C 11.614897 6.972153 -4.569319 0
M  V30 17 C 12.084798 6.970352 -3.241036 0
M  V30 18 C 12.315769 8.187977 -2.575710 0
M  V30 19 C 12.086013 9.404104 -3.243900 0
M  V30 20 C 11.624789 9.410110 -4.575074 0
M  V30 21 C 11.445195 8.913975 -7.604432 0
M  V30 22 O 11.041746 8.971213 -8.927515 0
M  V30 23 H 5.235150 5.016638 -13.419746 0
M  V30 24 H 5.656733 4.224162 -11.906559 0
M  V30 25 H 5.901846 5.958056 -12.100048 0
M  V30 26 H 7.687170 5.514569 -13.845057 0
M  V30 27 H 7.301944 3.814907 -13.776612 0
M  V30 28 H 10.085829 3.306815 -11.710084 0
M  V30 29 H 9.147194 2.784865 -13.048493 0
M  V30 30 H 11.246758 3.676925 -13.902721 0
M  V30 31 H 9.984339 4.789440 -14.406261 0
M  V30 32 H 11.047795 5.194839 -13.055443 0
M  V30 33 H 7.890940 6.366593 -11.246585 0
M  V30 34 H 9.373872 6.410631 -12.153145 0
M  V30 35 H 10.088124 4.693395 -10.106522 0
M  V30 36 H 8.816014 5.499379 -9.308527 0
M  V30 37 H 11.209797 6.917090 -10.638409 0
M  V30 38 H 11.205223 6.400394 -8.995431 0
M  V30 39 H 8.486089 8.371881 -10.967646 0
M  V30 40 H 8.991361 9.847700 -10.246526 0
M  V30 41 H 10.079245 8.972818 -11.350410 0
M  V30 42 H 8.088020 7.361416 -8.495495 0
M  V30 43 H 8.480386 8.998560 -8.010506 0
M  V30 44 H 11.431315 6.030751 -5.067104 0
M  V30 45 H 12.256385 6.033042 -2.731350 0
M  V30 46 H 12.665685 8.191804 -1.553812 0
M  V30 47 H 12.256082 10.337256 -2.726801 0
M  V30 48 H 11.444167 10.351759 -5.073475 0
M  V30 49 H 12.351313 9.478655 -7.446267 0
M  V30 50 H 7.925155 3.992378 -11.386800 0
M  V30 END ATOM
M  V30 BEGIN BOND
M  V30 1 1 2 1
M  V30 2 1 3 2
M  V30 3 1 4 3
M  V30 4 1 5 4
M  V30 5 1 6 3
M  V30 6 1 7 6
M  V30 7 1 8 7
M  V30 8 1 9 8 CFG=3
M  V30 9 1 10 9
M  V30 10 1 11 9
M  V30 11 1 12 11
M  V30 12 2 13 12
M  V30 13 1 14 12
M  V30 14 1 15 14
M  V30 15 2 16 15
M  V30 16 1 17 16
M  V30 17 2 18 17
M  V30 18 1 19 18
M  V30 19 1 20 15
M  V30 20 2 20 19
M  V30 21 2 21 14
M  V30 22 1 22 9
M  V30 23 1 22 21
M  V30 24 1 23 1
M  V30 25 1 24 1
M  V30 26 1 25 1
M  V30 27 1 26 2
M  V30 28 1 27 2
M  V30 29 1 28 4
M  V30 30 1 29 4
M  V30 31 1 30 5
M  V30 32 1 31 5
M  V30 33 1 32 5
M  V30 34 1 33 6
M  V30 35 1 34 6
M  V30 36 1 35 7
M  V30 37 1 36 7
M  V30 38 1 37 8
M  V30 39 1 38 8
M  V30 40 1 39 10
M  V30 41 1 40 10
M  V30 42 1 41 10
M  V30 43 1 42 11
M  V30 44 1 43 11
M  V30 45 1 44 16
M  V30 46 1 45 17
M  V30 47 1 46 18
M  V30 48 1 47 19
M  V30 49 1 48 20
M  V30 50 1 49 21
M  V30 51 1 50 3
M  V30 END BOND
M  V30 END CTAB
M  END
>  <b_m_subgroup_collapsed>  (1863) 
0

>  <r_i_docking_score>  (1863) 
-6.5531630750390102

>  <s_m_subgroup_title>  (1863) 
glide-dock_SP_D22_pv

>  <s_m_subgroupid>  (1863) 
glide-dock_SP_D22_pv

>  <Molecule ChEMBL ID>  (1863) 
CHEMBL542399

>  <Standard Type>  (1863) 
Ki

>  <Standard Value>  (1863) 
10000.0

>  <label>  (1863) 
0

$$$$
CHEMBL296512
     RDKit          3D

  0  0  0  0  0  0  0  0  0  0999 V3000
M  V30 BEGIN CTAB
M  V30 COUNTS 42 45 0 0 1
M  V30 BEGIN ATOM
M  V30 1 F 10.710896 9.365960 -6.726885 0
M  V30 2 C 10.740726 8.788673 -7.951870 0
M  V30 3 C 11.967249 8.569523 -8.600965 0
M  V30 4 C 11.993617 7.980926 -9.880105 0
M  V30 5 C 10.803350 7.591355 -10.545928 0
M  V30 6 C 10.884620 6.972307 -11.884512 0
M  V30 7 N 11.993026 7.274923 -12.657090 0
M  V30 8 C 11.992437 6.589954 -13.844768 0
M  V30 9 C 12.886107 6.614539 -14.928902 0
M  V30 10 C 12.667928 5.777328 -16.030973 0
M  V30 11 F 13.532726 5.778556 -17.071323 0
M  V30 12 C 11.545601 4.934623 -16.041603 0
M  V30 13 C 10.640385 4.938744 -14.960807 0
M  V30 14 C 10.823689 5.772214 -13.821287 0
M  V30 15 C 10.086834 6.080499 -12.597181 0
M  V30 16 C 8.708361 5.580523 -12.181601 0 CFG=2
M  V30 17 C 8.308900 4.178131 -12.701073 0
M  V30 18 C 6.885395 3.801807 -12.246305 0
M  V30 19 C 5.868099 4.833182 -12.705812 0
M  V30 20 N 6.266227 6.173389 -12.246927 0 CHG=1
M  V30 21 C 7.632740 6.582167 -12.646916 0
M  V30 22 C 9.583816 7.823018 -9.869771 0
M  V30 23 C 9.547321 8.411530 -8.589433 0
M  V30 24 H 12.891745 8.857585 -8.119735 0
M  V30 25 H 12.956284 7.821155 -10.338833 0
M  V30 26 H 12.709776 7.920695 -12.358176 0
M  V30 27 H 13.751307 7.257588 -14.907490 0
M  V30 28 H 11.374577 4.284948 -16.887552 0
M  V30 29 H 9.802772 4.274475 -15.051486 0
M  V30 30 H 8.679475 5.511624 -11.094030 0
M  V30 31 H 8.271689 4.166058 -13.783425 0
M  V30 32 H 9.032812 3.426608 -12.382721 0
M  V30 33 H 6.578648 2.839678 -12.655818 0
M  V30 34 H 6.859109 3.712427 -11.159225 0
M  V30 35 H 5.787928 4.831513 -13.794744 0
M  V30 36 H 4.886656 4.572361 -12.313603 0
M  V30 37 H 5.612235 6.857394 -12.598733 0
M  V30 38 H 7.817179 7.583278 -12.260497 0
M  V30 39 H 7.686274 6.676796 -13.727370 0
M  V30 40 H 8.640228 7.558887 -10.308025 0
M  V30 41 H 8.597052 8.570740 -8.099088 0
M  V30 42 H 6.226453 6.255462 -11.233841 0
M  V30 END ATOM
M  V30 BEGIN BOND
M  V30 1 1 2 1
M  V30 2 1 3 2
M  V30 3 2 4 3
M  V30 4 1 5 4
M  V30 5 1 6 5
M  V30 6 1 7 6
M  V30 7 1 8 7
M  V30 8 1 9 8
M  V30 9 2 10 9
M  V30 10 1 11 10
M  V30 11 1 12 10
M  V30 12 2 13 12
M  V30 13 2 14 8
M  V30 14 1 14 13
M  V30 15 2 15 6
M  V30 16 1 15 14
M  V30 17 1 16 15
M  V30 18 1 17 16
M  V30 19 1 18 17
M  V30 20 1 19 18
M  V30 21 1 20 19
M  V30 22 1 21 16
M  V30 23 1 21 20
M  V30 24 2 22 5
M  V30 25 2 23 2
M  V30 26 1 23 22
M  V30 27 1 24 3
M  V30 28 1 25 4
M  V30 29 1 26 7
M  V30 30 1 27 9
M  V30 31 1 28 12
M  V30 32 1 29 13
M  V30 33 1 16 30 CFG=1
M  V30 34 1 31 17
M  V30 35 1 32 17
M  V30 36 1 33 18
M  V30 37 1 34 18
M  V30 38 1 35 19
M  V30 39 1 36 19
M  V30 40 1 37 20
M  V30 41 1 38 21
M  V30 42 1 39 21
M  V30 43 1 40 22
M  V30 44 1 41 23
M  V30 45 1 42 20
M  V30 END BOND
M  V30 END CTAB
M  END
>  <b_m_subgroup_collapsed>  (1864) 
0

>  <r_i_docking_score>  (1864) 
-6.5513720759016403

>  <s_m_subgroup_title>  (1864) 
glide-dock_SP_D22_pv

>  <s_m_subgroupid>  (1864) 
glide-dock_SP_D22_pv

>  <Molecule ChEMBL ID>  (1864) 
CHEMBL296512

>  <Standard Type>  (1864) 
Ki

>  <Standard Value>  (1864) 
28.0

>  <label>  (1864) 
1

$$$$
CHEMBL85882
     RDKit          3D

  0  0  0  0  0  0  0  0  0  0999 V3000
M  V30 BEGIN CTAB
M  V30 COUNTS 32 34 0 0 1
M  V30 BEGIN ATOM
M  V30 1 N 6.398529 5.772293 -11.846809 0 CHG=1
M  V30 2 C 7.613949 5.715647 -12.678251 0
M  V30 3 C 8.845933 5.109182 -11.969913 0 CFG=1
M  V30 4 C 10.012641 5.069227 -12.950567 0
M  V30 5 C 10.211890 3.942222 -13.776285 0
M  V30 6 C 11.285773 3.914284 -14.686386 0
M  V30 7 C 12.159956 5.014182 -14.779217 0
M  V30 8 C 11.966569 6.141346 -13.957274 0
M  V30 9 C 10.895934 6.171674 -13.039512 0
M  V30 10 C 10.716374 7.362307 -12.107415 0
M  V30 11 C 10.100009 6.973707 -10.773889 0
M  V30 12 C 10.417379 7.700639 -9.607053 0
M  V30 13 C 9.886862 7.307235 -8.363122 0
M  V30 14 Br 10.298914 8.303172 -6.794166 0
M  V30 15 C 9.056976 6.173512 -8.279763 0
M  V30 16 C 8.733438 5.450094 -9.443934 0
M  V30 17 C 9.228766 5.862633 -10.699374 0
M  V30 18 H 5.598403 5.996558 -12.416812 0
M  V30 19 H 6.486520 6.515956 -11.144387 0
M  V30 20 H 7.382379 5.121561 -13.562790 0
M  V30 21 H 7.832219 6.725296 -13.027733 0
M  V30 22 H 8.620455 4.080179 -11.687183 0
M  V30 23 H 9.549685 3.091083 -13.708708 0
M  V30 24 H 11.441746 3.047495 -15.311897 0
M  V30 25 H 12.985406 4.990042 -15.475575 0
M  V30 26 H 12.652595 6.973509 -14.024877 0
M  V30 27 H 11.692203 7.813309 -11.925104 0
M  V30 28 H 10.085104 8.112041 -12.585423 0
M  V30 29 H 11.070976 8.559003 -9.660939 0
M  V30 30 H 8.651412 5.870750 -7.325680 0
M  V30 31 H 8.086889 4.589064 -9.366488 0
M  V30 32 H 6.240969 4.903393 -11.354670 0
M  V30 END ATOM
M  V30 BEGIN BOND
M  V30 1 1 2 1
M  V30 2 1 3 2
M  V30 3 1 4 3
M  V30 4 2 5 4
M  V30 5 1 6 5
M  V30 6 2 7 6
M  V30 7 1 8 7
M  V30 8 1 9 4
M  V30 9 2 9 8
M  V30 10 1 10 9
M  V30 11 1 11 10
M  V30 12 1 12 11
M  V30 13 2 13 12
M  V30 14 1 14 13
M  V30 15 1 15 13
M  V30 16 2 16 15
M  V30 17 1 17 3
M  V30 18 2 17 11
M  V30 19 1 17 16
M  V30 20 1 18 1
M  V30 21 1 19 1
M  V30 22 1 20 2
M  V30 23 1 21 2
M  V30 24 1 3 22 CFG=1
M  V30 25 1 23 5
M  V30 26 1 24 6
M  V30 27 1 25 7
M  V30 28 1 26 8
M  V30 29 1 27 10
M  V30 30 1 28 10
M  V30 31 1 29 12
M  V30 32 1 30 15
M  V30 33 1 31 16
M  V30 34 1 32 1
M  V30 END BOND
M  V30 END CTAB
M  END
>  <b_m_subgroup_collapsed>  (1865) 
0

>  <r_i_docking_score>  (1865) 
-6.5476440529252304

>  <s_m_subgroup_title>  (1865) 
glide-dock_SP_D22_pv

>  <s_m_subgroupid>  (1865) 
glide-dock_SP_D22_pv

>  <Molecule ChEMBL ID>  (1865) 
CHEMBL85882

>  <Standard Type>  (1865) 
Ki

>  <Standard Value>  (1865) 
10000.0

>  <label>  (1865) 
0

$$$$
CHEMBL603752
     RDKit          3D

  0  0  0  0  0  0  0  0  0  0999 V3000
M  V30 BEGIN CTAB
M  V30 COUNTS 48 51 0 0 1
M  V30 BEGIN ATOM
M  V30 1 C 11.680785 9.297250 -6.743145 0
M  V30 2 C 10.995737 9.046190 -7.869846 0
M  V30 3 C 11.647945 8.855772 -9.229492 0
M  V30 4 C 10.992852 7.895472 -10.225833 0
M  V30 5 C 9.743911 7.287642 -9.972319 0
M  V30 6 C 9.183064 6.410625 -10.913580 0
M  V30 7 C 9.844808 6.148286 -12.128090 0
M  V30 8 C 11.073023 6.773995 -12.439528 0
M  V30 9 C 11.654485 7.619745 -11.448216 0
M  V30 10 O 12.885731 8.172325 -11.648325 0
M  V30 11 C 11.685302 6.468938 -13.765331 0
M  V30 12 C 12.486633 7.394845 -14.478558 0
M  V30 13 C 12.992650 7.164277 -15.771463 0
M  V30 14 O 13.685181 8.191012 -16.371912 0
M  V30 15 C 13.949469 8.106401 -17.761675 0
M  V30 16 C 12.748200 5.924274 -16.392082 0
M  V30 17 C 11.945414 4.966765 -15.759691 0
M  V30 18 C 11.384642 5.278372 -14.487127 0
M  V30 19 C 10.353079 4.333786 -13.824487 0 CFG=1
M  V30 20 C 9.251319 5.143737 -13.096210 0
M  V30 21 N 9.784541 3.343994 -14.782620 0 CFG=2 CHG=1
M  V30 22 C 8.817430 2.374044 -14.218537 0
M  V30 23 C 10.873658 2.652149 -15.490740 0
M  V30 24 C 11.546970 3.652366 -16.414036 0
M  V30 25 H 12.762403 9.368222 -6.742910 0
M  V30 26 H 11.165707 9.440651 -5.803121 0
M  V30 27 H 9.917744 9.015765 -7.816689 0
M  V30 28 H 11.675752 9.830719 -9.713708 0
M  V30 29 H 12.686456 8.563324 -9.071993 0
M  V30 30 H 9.191046 7.464816 -9.062359 0
M  V30 31 H 8.233306 5.945537 -10.691752 0
M  V30 32 H 13.131712 8.813237 -10.994461 0
M  V30 33 H 12.691982 8.362835 -14.050624 0
M  V30 34 H 14.381623 9.046162 -18.101677 0
M  V30 35 H 13.035985 7.940440 -18.330231 0
M  V30 36 H 14.663732 7.316015 -17.983387 0
M  V30 37 H 13.135531 5.700495 -17.374779 0
M  V30 38 H 10.896223 3.773127 -13.062855 0
M  V30 39 H 8.588423 4.487241 -12.531243 0
M  V30 40 H 8.635899 5.686557 -13.817976 0
M  V30 41 H 9.286064 1.769786 -13.446662 0
M  V30 42 H 8.464054 1.696770 -14.995026 0
M  V30 43 H 7.932385 2.858712 -13.809340 0
M  V30 44 H 11.583562 2.231455 -14.774479 0
M  V30 45 H 10.494526 1.819650 -16.085556 0
M  V30 46 H 10.883311 3.886609 -17.248522 0
M  V30 47 H 12.437669 3.198061 -16.851423 0
M  V30 48 H 9.285922 3.876594 -15.480165 0
M  V30 END ATOM
M  V30 BEGIN BOND
M  V30 1 2 2 1
M  V30 2 1 3 2
M  V30 3 1 4 3
M  V30 4 1 5 4
M  V30 5 2 6 5
M  V30 6 1 7 6
M  V30 7 2 8 7
M  V30 8 2 9 4
M  V30 9 1 9 8
M  V30 10 1 10 9
M  V30 11 1 11 8
M  V30 12 2 12 11
M  V30 13 1 13 12
M  V30 14 1 14 13
M  V30 15 1 15 14
M  V30 16 2 16 13
M  V30 17 1 17 16
M  V30 18 1 18 11
M  V30 19 2 18 17
M  V30 20 1 19 18
M  V30 21 1 20 7
M  V30 22 1 20 19
M  V30 23 1 21 19
M  V30 24 1 22 21
M  V30 25 1 23 21
M  V30 26 1 24 17
M  V30 27 1 24 23
M  V30 28 1 25 1
M  V30 29 1 26 1
M  V30 30 1 27 2
M  V30 31 1 28 3
M  V30 32 1 29 3
M  V30 33 1 30 5
M  V30 34 1 31 6
M  V30 35 1 32 10
M  V30 36 1 33 12
M  V30 37 1 34 15
M  V30 38 1 35 15
M  V30 39 1 36 15
M  V30 40 1 37 16
M  V30 41 1 19 38 CFG=1
M  V30 42 1 39 20
M  V30 43 1 40 20
M  V30 44 1 41 22
M  V30 45 1 42 22
M  V30 46 1 43 22
M  V30 47 1 44 23
M  V30 48 1 45 23
M  V30 49 1 46 24
M  V30 50 1 47 24
M  V30 51 1 21 48 CFG=3
M  V30 END BOND
M  V30 END CTAB
M  END
>  <b_m_subgroup_collapsed>  (1866) 
0

>  <r_i_docking_score>  (1866) 
-6.5458394191048797

>  <s_m_subgroup_title>  (1866) 
glide-dock_SP_D22_pv

>  <s_m_subgroupid>  (1866) 
glide-dock_SP_D22_pv

>  <Molecule ChEMBL ID>  (1866) 
CHEMBL603752

>  <Standard Type>  (1866) 
Ki

>  <Standard Value>  (1866) 
10000.0

>  <label>  (1866) 
0

$$$$
CHEMBL5976926
     RDKit          3D

  0  0  0  0  0  0  0  0  0  0999 V3000
M  V30 BEGIN CTAB
M  V30 COUNTS 41 43 0 0 1
M  V30 BEGIN ATOM
M  V30 1 C 7.598324 4.236148 -13.481793 0
M  V30 2 C 8.540661 4.761143 -12.387711 0 CFG=1
M  V30 3 O 9.685425 3.924549 -12.377572 0
M  V30 4 C 8.999788 6.191421 -12.691150 0
M  V30 5 C 9.856730 6.808331 -11.567682 0
M  V30 6 N 9.217935 6.712165 -10.224409 0 CFG=2 CHG=1
M  V30 7 C 10.076635 7.316101 -9.163322 0
M  V30 8 C 9.279364 8.116902 -8.109112 0 CFG=1
M  V30 9 C 8.674412 7.268967 -6.976528 0
M  V30 10 O 9.714581 6.640628 -6.246781 0
M  V30 11 C 10.654946 7.523031 -5.785645 0
M  V30 12 C 11.407739 7.183109 -4.646780 0
M  V30 13 C 12.301233 8.116850 -4.088965 0
M  V30 14 C 12.477832 9.372192 -4.701901 0
M  V30 15 C 11.748795 9.702754 -5.861831 0
M  V30 16 C 10.835915 8.780504 -6.411860 0
M  V30 17 O 10.106564 9.130858 -7.527987 0
M  V30 18 C 8.801433 5.315106 -9.922831 0
M  V30 19 C 7.864065 4.765633 -11.011395 0
M  V30 20 H 6.702012 4.852301 -13.558235 0
M  V30 21 H 8.085946 4.240885 -14.457062 0
M  V30 22 H 7.273953 3.215606 -13.279625 0
M  V30 23 H 9.420901 3.025035 -12.241641 0
M  V30 24 H 9.572164 6.172254 -13.617204 0
M  V30 25 H 8.129620 6.827181 -12.866116 0
M  V30 26 H 10.827542 6.314543 -11.542506 0
M  V30 27 H 10.048354 7.855509 -11.806149 0
M  V30 28 H 10.721756 6.566860 -8.701199 0
M  V30 29 H 10.757220 8.026554 -9.635795 0
M  V30 30 H 8.485651 8.657235 -8.621822 0
M  V30 31 H 8.086340 7.902488 -6.311590 0
M  V30 32 H 8.007866 6.496271 -7.334757 0
M  V30 33 H 11.266984 6.220058 -4.177023 0
M  V30 34 H 12.864577 7.863509 -3.202650 0
M  V30 35 H 13.185764 10.073423 -4.287498 0
M  V30 36 H 11.889233 10.667149 -6.327585 0
M  V30 37 H 9.682490 4.679346 -9.823388 0
M  V30 38 H 8.276894 5.257828 -8.975171 0
M  V30 39 H 6.966937 5.386863 -11.049264 0
M  V30 40 H 7.510059 3.772492 -10.746112 0
M  V30 41 H 8.354613 7.253417 -10.264351 0
M  V30 END ATOM
M  V30 BEGIN BOND
M  V30 1 1 2 1
M  V30 2 1 2 3 CFG=1
M  V30 3 1 4 2
M  V30 4 1 5 4
M  V30 5 1 6 5
M  V30 6 1 7 6
M  V30 7 1 8 7
M  V30 8 1 9 8
M  V30 9 1 10 9
M  V30 10 1 11 10
M  V30 11 2 12 11
M  V30 12 1 13 12
M  V30 13 2 14 13
M  V30 14 1 15 14
M  V30 15 1 16 11
M  V30 16 2 16 15
M  V30 17 1 17 8
M  V30 18 1 17 16
M  V30 19 1 18 6
M  V30 20 1 19 2
M  V30 21 1 19 18
M  V30 22 1 20 1
M  V30 23 1 21 1
M  V30 24 1 22 1
M  V30 25 1 23 3
M  V30 26 1 24 4
M  V30 27 1 25 4
M  V30 28 1 26 5
M  V30 29 1 27 5
M  V30 30 1 28 7
M  V30 31 1 29 7
M  V30 32 1 8 30 CFG=3
M  V30 33 1 31 9
M  V30 34 1 32 9
M  V30 35 1 33 12
M  V30 36 1 34 13
M  V30 37 1 35 14
M  V30 38 1 36 15
M  V30 39 1 37 18
M  V30 40 1 38 18
M  V30 41 1 39 19
M  V30 42 1 40 19
M  V30 43 1 6 41 CFG=3
M  V30 END BOND
M  V30 END CTAB
M  END
>  <b_m_subgroup_collapsed>  (1867) 
0

>  <r_i_docking_score>  (1867) 
-6.5454522139269704

>  <s_m_subgroup_title>  (1867) 
glide-dock_SP_D22_pv

>  <s_m_subgroupid>  (1867) 
glide-dock_SP_D22_pv

>  <Molecule ChEMBL ID>  (1867) 
CHEMBL5976926

>  <Standard Type>  (1867) 
Ki

>  <Standard Value>  (1867) 
20000.0

>  <label>  (1867) 
0

$$$$
CHEMBL376092
     RDKit          3D

  0  0  0  0  0  0  0  0  0  0999 V3000
M  V30 BEGIN CTAB
M  V30 COUNTS 51 53 0 0 1
M  V30 BEGIN ATOM
M  V30 1 C 11.819894 11.325320 -6.233236 0
M  V30 2 O 11.323771 10.053326 -6.513421 0
M  V30 3 C 11.459919 9.067929 -5.563505 0
M  V30 4 C 12.055959 9.241633 -4.287413 0
M  V30 5 C 12.164259 8.175982 -3.378933 0
M  V30 6 C 11.686067 6.910728 -3.741518 0
M  V30 7 C 11.100842 6.732831 -5.006979 0
M  V30 8 C 10.987738 7.791849 -5.922431 0
M  V30 9 C 10.460220 7.516506 -7.325711 0
M  V30 10 C 9.246137 8.369284 -7.734517 0
M  V30 11 C 8.885893 8.140038 -9.204164 0
M  V30 12 N 10.025863 8.299433 -10.112056 0
M  V30 13 C 9.590515 8.137921 -11.499543 0
M  V30 14 N 8.757262 6.991770 -11.848535 0
M  V30 15 C 9.171693 5.871707 -12.460938 0
M  V30 16 O 10.348989 5.670659 -12.761207 0
M  V30 17 C 8.098318 4.891201 -12.851081 0
M  V30 18 C 6.827010 4.906041 -12.230560 0
M  V30 19 C 5.845171 3.967054 -12.595288 0
M  V30 20 C 6.117752 2.999948 -13.578495 0
M  V30 21 C 7.378664 2.972347 -14.206848 0
M  V30 22 C 7.679987 1.924725 -15.258336 0
M  V30 23 C 8.363192 3.914319 -13.839686 0
M  V30 24 C 11.080972 7.347358 -9.770663 0
M  V30 25 C 11.582658 7.679633 -8.360069 0
M  V30 26 H 11.685913 12.016165 -7.057750 0
M  V30 27 H 11.295747 11.710002 -5.353259 0
M  V30 28 H 12.886013 11.230682 -6.085857 0
M  V30 29 H 12.468185 10.172443 -3.968730 0
M  V30 30 H 12.621157 8.329988 -2.412312 0
M  V30 31 H 11.761397 6.080534 -3.054320 0
M  V30 32 H 10.729290 5.772464 -5.287006 0
M  V30 33 H 10.139083 6.474102 -7.359430 0
M  V30 34 H 8.390698 8.132235 -7.100319 0
M  V30 35 H 9.415265 9.433087 -7.616704 0
M  V30 36 H 8.485530 7.131628 -9.305400 0
M  V30 37 H 8.104591 8.857365 -9.472403 0
M  V30 38 H 9.004142 9.020806 -11.755896 0
M  V30 39 H 10.461978 8.172342 -12.154438 0
M  V30 40 H 7.778372 7.072991 -11.594319 0
M  V30 41 H 6.586337 5.623286 -11.457565 0
M  V30 42 H 4.885932 3.986037 -12.103975 0
M  V30 43 H 5.359835 2.277390 -13.843266 0
M  V30 44 H 8.461959 2.265131 -15.937720 0
M  V30 45 H 8.015419 1.002612 -14.783042 0
M  V30 46 H 6.791849 1.702937 -15.850457 0
M  V30 47 H 9.331496 3.881370 -14.318867 0
M  V30 48 H 10.710289 6.322388 -9.823193 0
M  V30 49 H 11.903359 7.434016 -10.481845 0
M  V30 50 H 11.983062 8.692567 -8.371334 0
M  V30 51 H 12.409355 7.047314 -8.055335 0
M  V30 END ATOM
M  V30 BEGIN BOND
M  V30 1 1 2 1
M  V30 2 1 3 2
M  V30 3 2 4 3
M  V30 4 1 5 4
M  V30 5 2 6 5
M  V30 6 1 7 6
M  V30 7 1 8 3
M  V30 8 2 8 7
M  V30 9 1 9 8
M  V30 10 1 10 9
M  V30 11 1 11 10
M  V30 12 1 12 11
M  V30 13 1 13 12
M  V30 14 1 14 13
M  V30 15 1 15 14
M  V30 16 2 16 15
M  V30 17 1 17 15
M  V30 18 2 18 17
M  V30 19 1 19 18
M  V30 20 2 20 19
M  V30 21 1 21 20
M  V30 22 1 22 21
M  V30 23 1 23 17
M  V30 24 2 23 21
M  V30 25 1 24 12
M  V30 26 1 25 9
M  V30 27 1 25 24
M  V30 28 1 26 1
M  V30 29 1 27 1
M  V30 30 1 28 1
M  V30 31 1 29 4
M  V30 32 1 30 5
M  V30 33 1 31 6
M  V30 34 1 32 7
M  V30 35 1 33 9
M  V30 36 1 34 10
M  V30 37 1 35 10
M  V30 38 1 36 11
M  V30 39 1 37 11
M  V30 40 1 38 13
M  V30 41 1 39 13
M  V30 42 1 40 14
M  V30 43 1 41 18
M  V30 44 1 42 19
M  V30 45 1 43 20
M  V30 46 1 44 22
M  V30 47 1 45 22
M  V30 48 1 46 22
M  V30 49 1 47 23
M  V30 50 1 48 24
M  V30 51 1 49 24
M  V30 52 1 50 25
M  V30 53 1 51 25
M  V30 END BOND
M  V30 END CTAB
M  END
>  <b_m_subgroup_collapsed>  (1868) 
0

>  <r_i_docking_score>  (1868) 
-6.5441313851755698

>  <s_m_subgroup_title>  (1868) 
glide-dock_SP_D22_pv

>  <s_m_subgroupid>  (1868) 
glide-dock_SP_D22_pv

>  <Molecule ChEMBL ID>  (1868) 
CHEMBL376092

>  <Standard Type>  (1868) 
Ki

>  <Standard Value>  (1868) 
27.0

>  <label>  (1868) 
1

$$$$
CHEMBL3085816
     RDKit          3D

  0  0  0  0  0  0  0  0  0  0999 V3000
M  V30 BEGIN CTAB
M  V30 COUNTS 56 58 0 0 1
M  V30 BEGIN ATOM
M  V30 1 C 11.533456 6.679062 -4.205801 0
M  V30 2 N 11.682954 8.136160 -4.347014 0
M  V30 3 C 12.172369 8.852654 -3.165955 0
M  V30 4 C 11.290497 8.827063 -5.446130 0
M  V30 5 O 11.278941 10.057867 -5.502493 0
M  V30 6 N 10.980807 8.050965 -6.497799 0
M  V30 7 C 10.848131 8.497126 -7.881386 0 CFG=1
M  V30 8 C 11.636454 7.544433 -8.794791 0
M  V30 9 C 11.525016 7.945284 -10.273868 0
M  V30 10 C 10.062830 8.057499 -10.755002 0 CFG=1
M  V30 11 C 9.389539 6.684696 -11.008581 0
M  V30 12 C 8.298909 6.735373 -12.099522 0
M  V30 13 N 7.641962 5.418988 -12.304107 0 CFG=1 CHG=1
M  V30 14 C 6.161115 5.493563 -12.374030 0
M  V30 15 C 5.538490 4.083392 -12.346476 0
M  V30 16 C 6.251245 3.082711 -13.237065 0
M  V30 17 C 5.679110 1.811706 -13.447321 0
M  V30 18 C 6.353792 0.850181 -14.224185 0
M  V30 19 C 7.610567 1.151628 -14.780269 0
M  V30 20 C 8.198117 2.409683 -14.551894 0
M  V30 21 C 7.529153 3.372309 -13.769006 0
M  V30 22 C 8.207410 4.702153 -13.477916 0
M  V30 23 C 9.283020 8.980277 -9.790961 0
M  V30 24 C 9.373363 8.565894 -8.312922 0
M  V30 25 H 10.488702 6.385509 -4.299164 0
M  V30 26 H 12.093393 6.150122 -4.972694 0
M  V30 27 H 11.884947 6.314552 -3.242458 0
M  V30 28 H 12.846259 9.665989 -3.444277 0
M  V30 29 H 11.335521 9.284253 -2.616170 0
M  V30 30 H 12.727501 8.205283 -2.487901 0
M  V30 31 H 10.983370 7.054863 -6.343860 0
M  V30 32 H 11.287299 9.493200 -7.985088 0
M  V30 33 H 11.270490 6.526619 -8.663788 0
M  V30 34 H 12.686140 7.551562 -8.494840 0
M  V30 35 H 12.082564 7.247123 -10.896436 0
M  V30 36 H 12.011874 8.912903 -10.403173 0
M  V30 37 H 10.088706 8.569260 -11.718262 0
M  V30 38 H 8.975573 6.289678 -10.081223 0
M  V30 39 H 10.142248 5.964810 -11.327714 0
M  V30 40 H 8.727465 7.062143 -13.046573 0
M  V30 41 H 7.576418 7.505545 -11.852993 0
M  V30 42 H 5.853561 6.010937 -13.281712 0
M  V30 43 H 5.763182 6.069260 -11.536036 0
M  V30 44 H 4.490150 4.135757 -12.645298 0
M  V30 45 H 5.559085 3.686499 -11.333397 0
M  V30 46 H 4.717895 1.570538 -13.016306 0
M  V30 47 H 5.906971 -0.119784 -14.397469 0
M  V30 48 H 8.128088 0.413789 -15.376828 0
M  V30 49 H 9.175074 2.625922 -14.962238 0
M  V30 50 H 9.271018 4.524161 -13.301682 0
M  V30 51 H 8.131815 5.320501 -14.375787 0
M  V30 52 H 9.719072 9.971108 -9.846189 0
M  V30 53 H 8.250376 9.102598 -10.103133 0
M  V30 54 H 8.872656 7.610312 -8.150832 0
M  V30 55 H 8.848534 9.306283 -7.703101 0
M  V30 56 H 7.838956 4.869721 -11.482896 0
M  V30 END ATOM
M  V30 BEGIN BOND
M  V30 1 1 2 1
M  V30 2 1 3 2
M  V30 3 1 4 2
M  V30 4 2 5 4
M  V30 5 1 6 4
M  V30 6 1 7 6
M  V30 7 1 8 7
M  V30 8 1 9 8
M  V30 9 1 10 9
M  V30 10 1 11 10
M  V30 11 1 12 11
M  V30 12 1 13 12
M  V30 13 1 14 13
M  V30 14 1 15 14
M  V30 15 1 16 15
M  V30 16 2 17 16
M  V30 17 1 18 17
M  V30 18 2 19 18
M  V30 19 1 20 19
M  V30 20 1 21 16
M  V30 21 2 21 20
M  V30 22 1 22 13
M  V30 23 1 22 21
M  V30 24 1 23 10
M  V30 25 1 24 7
M  V30 26 1 24 23
M  V30 27 1 25 1
M  V30 28 1 26 1
M  V30 29 1 27 1
M  V30 30 1 28 3
M  V30 31 1 29 3
M  V30 32 1 30 3
M  V30 33 1 31 6
M  V30 34 1 7 32 CFG=1
M  V30 35 1 33 8
M  V30 36 1 34 8
M  V30 37 1 35 9
M  V30 38 1 36 9
M  V30 39 1 10 37 CFG=3
M  V30 40 1 38 11
M  V30 41 1 39 11
M  V30 42 1 40 12
M  V30 43 1 41 12
M  V30 44 1 42 14
M  V30 45 1 43 14
M  V30 46 1 44 15
M  V30 47 1 45 15
M  V30 48 1 46 17
M  V30 49 1 47 18
M  V30 50 1 48 19
M  V30 51 1 49 20
M  V30 52 1 50 22
M  V30 53 1 51 22
M  V30 54 1 52 23
M  V30 55 1 53 23
M  V30 56 1 54 24
M  V30 57 1 55 24
M  V30 58 1 13 56 CFG=1
M  V30 END BOND
M  V30 END CTAB
M  END
>  <b_m_subgroup_collapsed>  (1869) 
0

>  <r_i_docking_score>  (1869) 
-6.5440969369379296

>  <s_m_subgroup_title>  (1869) 
glide-dock_SP_D22_pv

>  <s_m_subgroupid>  (1869) 
glide-dock_SP_D22_pv

>  <Molecule ChEMBL ID>  (1869) 
CHEMBL3085816

>  <Standard Type>  (1869) 
Ki

>  <Standard Value>  (1869) 
13489.63

>  <label>  (1869) 
0

$$$$
CHEMBL201393
     RDKit          3D

  0  0  0  0  0  0  0  0  0  0999 V3000
M  V30 BEGIN CTAB
M  V30 COUNTS 43 47 0 0 1
M  V30 BEGIN ATOM
M  V30 1 C 12.537100 4.815609 -16.546843 0
M  V30 2 C 11.155472 4.679126 -16.771902 0
M  V30 3 C 10.257730 4.702131 -15.688342 0
M  V30 4 C 10.730183 4.847521 -14.360666 0
M  V30 5 C 9.789997 4.904626 -13.154737 0 CFG=1
M  V30 6 C 9.900734 6.214861 -12.336679 0
M  V30 7 C 8.489267 6.510291 -11.794360 0
M  V30 8 N 7.690716 5.337933 -12.185214 0 CFG=1 CHG=1
M  V30 9 C 6.215368 5.472434 -12.246294 0
M  V30 10 C 5.574695 4.073209 -12.418438 0
M  V30 11 C 6.369701 3.201767 -13.343742 0
M  V30 12 C 7.618627 3.539093 -13.786149 0
M  V30 13 N 8.102103 2.515440 -14.586596 0
M  V30 14 C 7.184470 1.477801 -14.644849 0
M  V30 15 C 7.191683 0.233543 -15.297655 0
M  V30 16 C 6.089521 -0.631631 -15.146930 0
M  V30 17 C 5.008390 -0.268137 -14.325178 0
M  V30 18 C 5.016940 0.972364 -13.661402 0
M  V30 19 C 6.086300 1.884088 -13.829413 0
M  V30 20 C 8.282780 4.842494 -13.443490 0 CFG=2
M  V30 21 C 12.120078 4.979784 -14.149246 0
M  V30 22 C 13.015955 4.972544 -15.233945 0
M  V30 23 H 13.226654 4.807600 -17.377815 0
M  V30 24 H 10.783860 4.565917 -17.779593 0
M  V30 25 H 9.206905 4.617024 -15.908785 0
M  V30 26 H 10.047118 4.071769 -12.497168 0
M  V30 27 H 10.637145 6.171773 -11.536936 0
M  V30 28 H 10.218326 7.032424 -12.980015 0
M  V30 29 H 8.487756 6.640966 -10.710420 0
M  V30 30 H 8.080821 7.415134 -12.246082 0
M  V30 31 H 5.824599 5.939899 -11.345327 0
M  V30 32 H 5.941653 6.130031 -13.068449 0
M  V30 33 H 5.510929 3.587361 -11.446510 0
M  V30 34 H 4.551015 4.171365 -12.780075 0
M  V30 35 H 9.015209 2.529393 -15.024004 0
M  V30 36 H 8.031985 -0.066261 -15.904788 0
M  V30 37 H 6.083369 -1.589335 -15.648480 0
M  V30 38 H 4.168073 -0.941132 -14.218499 0
M  V30 39 H 4.176630 1.257435 -13.048006 0
M  V30 40 H 8.059415 5.572605 -14.221623 0
M  V30 41 H 12.509502 5.103933 -13.149367 0
M  V30 42 H 14.078695 5.090406 -15.059517 0
M  V30 43 H 7.873909 4.630719 -11.486349 0
M  V30 END ATOM
M  V30 BEGIN BOND
M  V30 1 2 2 1
M  V30 2 1 3 2
M  V30 3 2 4 3
M  V30 4 1 5 4
M  V30 5 1 6 5
M  V30 6 1 7 6
M  V30 7 1 8 7
M  V30 8 1 9 8
M  V30 9 1 10 9
M  V30 10 1 11 10
M  V30 11 2 12 11
M  V30 12 1 13 12
M  V30 13 1 14 13
M  V30 14 2 15 14
M  V30 15 1 16 15
M  V30 16 2 17 16
M  V30 17 1 18 17
M  V30 18 1 19 11
M  V30 19 1 19 14
M  V30 20 2 19 18
M  V30 21 1 20 5
M  V30 22 1 20 8
M  V30 23 1 20 12
M  V30 24 1 21 4
M  V30 25 1 22 1
M  V30 26 2 22 21
M  V30 27 1 23 1
M  V30 28 1 24 2
M  V30 29 1 25 3
M  V30 30 1 5 26 CFG=1
M  V30 31 1 27 6
M  V30 32 1 28 6
M  V30 33 1 29 7
M  V30 34 1 30 7
M  V30 35 1 31 9
M  V30 36 1 32 9
M  V30 37 1 33 10
M  V30 38 1 34 10
M  V30 39 1 35 13
M  V30 40 1 36 15
M  V30 41 1 37 16
M  V30 42 1 38 17
M  V30 43 1 39 18
M  V30 44 1 20 40 CFG=3
M  V30 45 1 41 21
M  V30 46 1 42 22
M  V30 47 1 8 43 CFG=1
M  V30 END BOND
M  V30 END CTAB
M  END
>  <b_m_subgroup_collapsed>  (1870) 
0

>  <r_i_docking_score>  (1870) 
-6.5414866476731

>  <s_m_subgroup_title>  (1870) 
glide-dock_SP_D22_pv

>  <s_m_subgroupid>  (1870) 
glide-dock_SP_D22_pv

>  <Molecule ChEMBL ID>  (1870) 
CHEMBL201393

>  <Standard Type>  (1870) 
Ki

>  <Standard Value>  (1870) 
10000.0

>  <label>  (1870) 
0

$$$$
CHEMBL3763418
     RDKit          3D

  0  0  0  0  0  0  0  0  0  0999 V3000
M  V30 BEGIN CTAB
M  V30 COUNTS 59 62 0 0 1
M  V30 BEGIN ATOM
M  V30 1 C 6.739548 -2.040385 -19.403172 0
M  V30 2 C 5.356688 -2.079477 -18.829035 0
M  V30 3 N 4.334997 -2.788547 -19.449717 0
M  V30 4 C 3.285752 -2.624776 -18.647245 0
M  V30 5 O 3.532789 -1.828115 -17.575733 0
M  V30 6 C 4.856994 -1.503832 -17.684185 0
M  V30 7 C 5.467786 -0.681423 -16.641035 0
M  V30 8 N 6.683898 -0.148623 -16.802664 0
M  V30 9 N 6.953620 0.543693 -15.649503 0
M  V30 10 C 5.876139 0.397952 -14.880617 0
M  V30 11 S 5.686001 1.134045 -13.285210 0
M  V30 12 C 6.294477 2.847420 -13.553740 0
M  V30 13 C 7.783648 2.997823 -13.950409 0
M  V30 14 C 8.348016 4.416702 -13.746072 0
M  V30 15 C 8.577727 4.817968 -12.274353 0
M  V30 16 N 9.064657 6.188397 -12.081049 0
M  V30 17 C 8.045730 7.182559 -12.418347 0
M  V30 18 C 8.500369 8.636512 -12.163612 0
M  V30 19 O 8.963436 8.793388 -10.831594 0
M  V30 20 C 9.968578 7.857793 -10.465585 0 CFG=1
M  V30 21 C 10.400331 8.112474 -9.034037 0
M  V30 22 C 9.495455 7.933967 -7.967364 0
M  V30 23 C 9.896516 8.213647 -6.646769 0
M  V30 24 C 11.195216 8.697663 -6.379010 0
M  V30 25 C 11.626703 8.999531 -4.950193 0
M  V30 26 F 12.902157 9.374391 -4.881131 0
M  V30 27 F 10.885937 9.980739 -4.440300 0
M  V30 28 F 11.479681 7.907492 -4.205960 0
M  V30 29 C 12.086269 8.890739 -7.453727 0
M  V30 30 C 11.700875 8.580444 -8.769511 0
M  V30 31 C 9.454425 6.417678 -10.691612 0
M  V30 32 N 4.916663 -0.370101 -15.442970 0
M  V30 33 C 3.616089 -0.752100 -14.908484 0
M  V30 34 H 7.471162 -2.421796 -18.690472 0
M  V30 35 H 6.813075 -2.645976 -20.306601 0
M  V30 36 H 7.025821 -1.020783 -19.663332 0
M  V30 37 H 2.312103 -3.061923 -18.812330 0
M  V30 38 H 5.668060 3.345572 -14.289898 0
M  V30 39 H 6.113719 3.369438 -12.614313 0
M  V30 40 H 8.421061 2.272661 -13.446976 0
M  V30 41 H 7.886860 2.776647 -15.010240 0
M  V30 42 H 9.302788 4.490960 -14.268355 0
M  V30 43 H 7.685709 5.115731 -14.246595 0
M  V30 44 H 7.662470 4.676393 -11.697659 0
M  V30 45 H 9.302956 4.122096 -11.851355 0
M  V30 46 H 7.752947 7.095508 -13.457970 0
M  V30 47 H 7.144587 6.970681 -11.846869 0
M  V30 48 H 9.288488 8.943389 -12.851038 0
M  V30 49 H 7.670191 9.322624 -12.316230 0
M  V30 50 H 10.828792 8.020097 -11.116156 0
M  V30 51 H 8.488364 7.590503 -8.160179 0
M  V30 52 H 9.193779 8.055078 -5.847338 0
M  V30 53 H 13.082295 9.272891 -7.276996 0
M  V30 54 H 12.403356 8.737902 -9.575986 0
M  V30 55 H 8.601107 6.228701 -10.037423 0
M  V30 56 H 10.228600 5.709243 -10.403012 0
M  V30 57 H 3.530852 -0.513267 -13.849811 0
M  V30 58 H 2.829832 -0.226895 -15.449489 0
M  V30 59 H 3.464638 -1.823685 -15.031593 0
M  V30 END ATOM
M  V30 BEGIN BOND
M  V30 1 1 2 1
M  V30 2 1 3 2
M  V30 3 2 4 3
M  V30 4 1 5 4
M  V30 5 2 6 2
M  V30 6 1 6 5
M  V30 7 1 7 6
M  V30 8 2 8 7
M  V30 9 1 9 8
M  V30 10 2 10 9
M  V30 11 1 11 10
M  V30 12 1 12 11
M  V30 13 1 13 12
M  V30 14 1 14 13
M  V30 15 1 15 14
M  V30 16 1 16 15
M  V30 17 1 17 16
M  V30 18 1 18 17
M  V30 19 1 19 18
M  V30 20 1 20 19
M  V30 21 1 21 20
M  V30 22 1 22 21
M  V30 23 2 23 22
M  V30 24 1 24 23
M  V30 25 1 25 24
M  V30 26 1 26 25
M  V30 27 1 27 25
M  V30 28 1 28 25
M  V30 29 2 29 24
M  V30 30 2 30 21
M  V30 31 1 30 29
M  V30 32 1 31 16
M  V30 33 1 31 20
M  V30 34 1 32 7
M  V30 35 1 32 10
M  V30 36 1 33 32
M  V30 37 1 34 1
M  V30 38 1 35 1
M  V30 39 1 36 1
M  V30 40 1 37 4
M  V30 41 1 38 12
M  V30 42 1 39 12
M  V30 43 1 40 13
M  V30 44 1 41 13
M  V30 45 1 42 14
M  V30 46 1 43 14
M  V30 47 1 44 15
M  V30 48 1 45 15
M  V30 49 1 46 17
M  V30 50 1 47 17
M  V30 51 1 48 18
M  V30 52 1 49 18
M  V30 53 1 20 50 CFG=3
M  V30 54 1 51 22
M  V30 55 1 52 23
M  V30 56 1 53 29
M  V30 57 1 54 30
M  V30 58 1 55 31
M  V30 59 1 56 31
M  V30 60 1 57 33
M  V30 61 1 58 33
M  V30 62 1 59 33
M  V30 END BOND
M  V30 END CTAB
M  END
>  <b_m_subgroup_collapsed>  (1871) 
0

>  <r_i_docking_score>  (1871) 
-6.5387820822457403

>  <s_m_subgroup_title>  (1871) 
glide-dock_SP_D22_pv

>  <s_m_subgroupid>  (1871) 
glide-dock_SP_D22_pv

>  <Molecule ChEMBL ID>  (1871) 
CHEMBL3763418

>  <Standard Type>  (1871) 
Ki

>  <Standard Value>  (1871) 
10000.0

>  <label>  (1871) 
0

$$$$
CHEMBL4555952
     RDKit          3D

  0  0  0  0  0  0  0  0  0  0999 V3000
M  V30 BEGIN CTAB
M  V30 COUNTS 53 55 0 0 1
M  V30 BEGIN ATOM
M  V30 1 C 12.366888 8.714462 -7.921746 0
M  V30 2 N 11.194601 7.932863 -7.567013 0
M  V30 3 C 10.305339 7.359589 -8.401044 0
M  V30 4 S 10.433328 7.515629 -10.155572 0
M  V30 5 C 9.210357 6.265145 -10.666455 0
M  V30 6 C 9.173738 6.092533 -12.191989 0
M  V30 7 C 10.487622 5.499138 -12.726143 0
M  V30 8 N 10.541903 5.353851 -14.202433 0 CHG=1
M  V30 9 C 11.944386 5.321093 -14.694796 0
M  V30 10 C 12.007147 5.268528 -16.230600 0
M  V30 11 C 11.217747 4.080712 -16.822824 0
M  V30 12 C 11.143089 4.225566 -18.353769 0
M  V30 13 C 11.910922 2.735923 -16.507233 0
M  V30 14 C 9.787710 4.125426 -16.241776 0
M  V30 15 C 9.755017 4.198708 -14.703892 0
M  V30 16 N 9.359819 6.659109 -7.773111 0
M  V30 17 N 9.637947 6.798129 -6.438465 0
M  V30 18 C 10.720798 7.567273 -6.352168 0
M  V30 19 C 11.287397 7.906845 -5.053852 0
M  V30 20 C 11.684331 6.871277 -4.182510 0
M  V30 21 C 12.191819 7.170310 -2.903993 0
M  V30 22 C 12.320737 8.511374 -2.496726 0
M  V30 23 C 11.938233 9.545949 -3.370104 0
M  V30 24 C 11.423410 9.249830 -4.649086 0
M  V30 25 H 12.112450 9.372280 -8.755336 0
M  V30 26 H 12.711867 9.325595 -7.087304 0
M  V30 27 H 13.165738 8.049439 -8.245748 0
M  V30 28 H 9.438844 5.310993 -10.182861 0
M  V30 29 H 8.226752 6.569837 -10.308208 0
M  V30 30 H 8.335166 5.445197 -12.444286 0
M  V30 31 H 8.972462 7.061435 -12.646567 0
M  V30 32 H 11.295252 6.171904 -12.432466 0
M  V30 33 H 10.680706 4.536815 -12.249267 0
M  V30 34 H 12.475850 6.212478 -14.357927 0
M  V30 35 H 12.468376 4.469041 -14.259757 0
M  V30 36 H 11.609713 6.204578 -16.628971 0
M  V30 37 H 13.047671 5.223237 -16.554150 0
M  V30 38 H 10.585489 3.402938 -18.804960 0
M  V30 39 H 10.650310 5.152359 -18.647749 0
M  V30 40 H 12.138040 4.228458 -18.800888 0
M  V30 41 H 11.367162 1.897071 -16.943186 0
M  V30 42 H 12.922334 2.710861 -16.914038 0
M  V30 43 H 11.992742 2.542764 -15.439766 0
M  V30 44 H 9.281973 5.004106 -16.641338 0
M  V30 45 H 9.213677 3.260406 -16.579813 0
M  V30 46 H 10.137725 3.274583 -14.266983 0
M  V30 47 H 8.718901 4.286203 -14.377197 0
M  V30 48 H 11.576035 5.840010 -4.484700 0
M  V30 49 H 12.472456 6.369077 -2.237319 0
M  V30 50 H 12.705585 8.746994 -1.516577 0
M  V30 51 H 12.030060 10.572025 -3.045138 0
M  V30 52 H 11.114541 10.051324 -5.304744 0
M  V30 53 H 10.128108 6.188279 -14.593547 0
M  V30 END ATOM
M  V30 BEGIN BOND
M  V30 1 1 2 1
M  V30 2 1 3 2
M  V30 3 1 4 3
M  V30 4 1 5 4
M  V30 5 1 6 5
M  V30 6 1 7 6
M  V30 7 1 8 7
M  V30 8 1 9 8
M  V30 9 1 10 9
M  V30 10 1 11 10
M  V30 11 1 12 11
M  V30 12 1 13 11
M  V30 13 1 14 11
M  V30 14 1 15 8
M  V30 15 1 15 14
M  V30 16 2 16 3
M  V30 17 1 17 16
M  V30 18 1 18 2
M  V30 19 2 18 17
M  V30 20 1 19 18
M  V30 21 2 20 19
M  V30 22 1 21 20
M  V30 23 2 22 21
M  V30 24 1 23 22
M  V30 25 1 24 19
M  V30 26 2 24 23
M  V30 27 1 25 1
M  V30 28 1 26 1
M  V30 29 1 27 1
M  V30 30 1 28 5
M  V30 31 1 29 5
M  V30 32 1 30 6
M  V30 33 1 31 6
M  V30 34 1 32 7
M  V30 35 1 33 7
M  V30 36 1 34 9
M  V30 37 1 35 9
M  V30 38 1 36 10
M  V30 39 1 37 10
M  V30 40 1 38 12
M  V30 41 1 39 12
M  V30 42 1 40 12
M  V30 43 1 41 13
M  V30 44 1 42 13
M  V30 45 1 43 13
M  V30 46 1 44 14
M  V30 47 1 45 14
M  V30 48 1 46 15
M  V30 49 1 47 15
M  V30 50 1 48 20
M  V30 51 1 49 21
M  V30 52 1 50 22
M  V30 53 1 51 23
M  V30 54 1 52 24
M  V30 55 1 53 8
M  V30 END BOND
M  V30 END CTAB
M  END
>  <b_m_subgroup_collapsed>  (1872) 
0

>  <r_i_docking_score>  (1872) 
-6.5384933222930401

>  <s_m_subgroup_title>  (1872) 
glide-dock_SP_D22_pv

>  <s_m_subgroupid>  (1872) 
glide-dock_SP_D22_pv

>  <Molecule ChEMBL ID>  (1872) 
CHEMBL4555952

>  <Standard Type>  (1872) 
Ki

>  <Standard Value>  (1872) 
59994.0

>  <label>  (1872) 
0

$$$$
CHEMBL289196
     RDKit          3D

  0  0  0  0  0  0  0  0  0  0999 V3000
M  V30 BEGIN CTAB
M  V30 COUNTS 42 44 0 0 1
M  V30 BEGIN ATOM
M  V30 1 Br 12.087369 6.972883 -2.336538 0
M  V30 2 C 11.686352 7.964826 -3.901580 0
M  V30 3 C 11.682508 9.372443 -3.863126 0
M  V30 4 C 11.296817 10.093931 -5.007064 0
M  V30 5 C 10.960485 9.413931 -6.189405 0
M  V30 6 C 10.990088 7.999493 -6.243274 0
M  V30 7 O 10.714243 7.263358 -7.373557 0
M  V30 8 C 10.224943 7.967486 -8.501982 0
M  V30 9 C 9.920796 6.981907 -9.633986 0 CFG=1
M  V30 10 C 8.949429 5.874588 -9.180400 0
M  V30 11 C 8.495992 4.978949 -10.347683 0
M  V30 12 N 7.912511 5.786775 -11.446891 0 CFG=2 CHG=1
M  V30 13 C 7.381040 4.961838 -12.556223 0
M  V30 14 C 6.012894 4.368138 -12.278190 0
M  V30 15 C 5.157417 4.002993 -13.473454 0
M  V30 16 C 5.713557 2.917754 -12.596098 0
M  V30 17 C 8.882045 6.794603 -11.947447 0
M  V30 18 C 9.334177 7.745811 -10.832958 0
M  V30 19 C 11.335095 7.284332 -5.080786 0
M  V30 20 H 11.940934 9.895089 -2.950939 0
M  V30 21 H 11.269799 11.171944 -4.991067 0
M  V30 22 H 10.694430 10.011850 -7.046335 0
M  V30 23 H 9.315438 8.507751 -8.232128 0
M  V30 24 H 10.965899 8.688603 -8.845202 0
M  V30 25 H 10.855213 6.515904 -9.945839 0
M  V30 26 H 9.417965 5.255324 -8.414039 0
M  V30 27 H 8.086000 6.334684 -8.705703 0
M  V30 28 H 7.764366 4.251065 -9.993587 0
M  V30 29 H 9.347293 4.406372 -10.724654 0
M  V30 30 H 7.281463 5.582336 -13.447305 0
M  V30 31 H 8.087347 4.169731 -12.815828 0
M  V30 32 H 5.474265 4.819205 -11.447237 0
M  V30 33 H 4.086853 4.172976 -13.440093 0
M  V30 34 H 5.604744 4.107592 -14.458203 0
M  V30 35 H 6.485447 2.300908 -13.046977 0
M  V30 36 H 5.023551 2.393832 -11.937423 0
M  V30 37 H 8.411811 7.391736 -12.731010 0
M  V30 38 H 9.741951 6.291598 -12.394081 0
M  V30 39 H 8.486276 8.357172 -10.514863 0
M  V30 40 H 10.075327 8.441966 -11.232287 0
M  V30 41 H 11.336537 6.203843 -5.092179 0
M  V30 42 H 7.150300 6.334290 -11.047191 0
M  V30 END ATOM
M  V30 BEGIN BOND
M  V30 1 1 2 1
M  V30 2 1 3 2
M  V30 3 2 4 3
M  V30 4 1 5 4
M  V30 5 2 6 5
M  V30 6 1 7 6
M  V30 7 1 8 7
M  V30 8 1 9 8
M  V30 9 1 10 9
M  V30 10 1 11 10
M  V30 11 1 12 11
M  V30 12 1 13 12
M  V30 13 1 14 13
M  V30 14 1 15 14
M  V30 15 1 16 14
M  V30 16 1 16 15
M  V30 17 1 17 12
M  V30 18 1 18 9
M  V30 19 1 18 17
M  V30 20 2 19 2
M  V30 21 1 19 6
M  V30 22 1 20 3
M  V30 23 1 21 4
M  V30 24 1 22 5
M  V30 25 1 23 8
M  V30 26 1 24 8
M  V30 27 1 9 25 CFG=3
M  V30 28 1 26 10
M  V30 29 1 27 10
M  V30 30 1 28 11
M  V30 31 1 29 11
M  V30 32 1 30 13
M  V30 33 1 31 13
M  V30 34 1 32 14
M  V30 35 1 33 15
M  V30 36 1 34 15
M  V30 37 1 35 16
M  V30 38 1 36 16
M  V30 39 1 37 17
M  V30 40 1 38 17
M  V30 41 1 39 18
M  V30 42 1 40 18
M  V30 43 1 41 19
M  V30 44 1 12 42 CFG=1
M  V30 END BOND
M  V30 END CTAB
M  END
>  <b_m_subgroup_collapsed>  (1873) 
0

>  <r_i_docking_score>  (1873) 
-6.5381341168515501

>  <s_m_subgroup_title>  (1873) 
glide-dock_SP_D22_pv

>  <s_m_subgroupid>  (1873) 
glide-dock_SP_D22_pv

>  <Molecule ChEMBL ID>  (1873) 
CHEMBL289196

>  <Standard Type>  (1873) 
Ki

>  <Standard Value>  (1873) 
10000.0

>  <label>  (1873) 
0

$$$$
CHEMBL4876260
     RDKit          3D

  0  0  0  0  0  0  0  0  0  0999 V3000
M  V30 BEGIN CTAB
M  V30 COUNTS 54 57 0 0 1
M  V30 BEGIN ATOM
M  V30 1 O 12.842942 7.897293 -14.284113 0
M  V30 2 C 12.672935 6.972261 -15.078774 0
M  V30 3 N 11.859179 5.933584 -14.838848 0
M  V30 4 C 11.257316 5.647318 -13.543621 0
M  V30 5 C 9.916074 4.925506 -13.630919 0
M  V30 6 C 9.852626 3.743649 -14.403833 0
M  V30 7 C 8.654904 3.014808 -14.514339 0
M  V30 8 C 7.501626 3.460276 -13.846700 0
M  V30 9 C 7.553622 4.625392 -13.059282 0
M  V30 10 C 8.749812 5.369496 -12.943209 0
M  V30 11 C 8.716325 6.640755 -12.098290 0
M  V30 12 N 9.381659 6.494472 -10.782645 0 CFG=2 CHG=1
M  V30 13 C 8.614167 5.664061 -9.825547 0
M  V30 14 C 9.454328 5.371956 -8.581374 0
M  V30 15 C 10.070834 6.624832 -7.982785 0
M  V30 16 C 10.491523 6.641479 -6.637037 0
M  V30 17 C 11.083222 7.792666 -6.085509 0
M  V30 18 O 11.457560 7.812467 -4.773608 0
M  V30 19 C 11.290801 8.928469 -6.889448 0
M  V30 20 O 11.892735 10.036325 -6.362709 0
M  V30 21 C 10.882123 8.911944 -8.237617 0
M  V30 22 C 10.255085 7.773046 -8.784023 0
M  V30 23 C 9.745638 7.820947 -10.217017 0
M  V30 24 C 13.377461 6.961123 -16.404461 0
M  V30 25 C 13.819339 5.748558 -16.984135 0
M  V30 26 C 14.541476 5.759342 -18.193827 0
M  V30 27 C 14.845446 6.981212 -18.823734 0
M  V30 28 C 14.423889 8.193601 -18.245989 0
M  V30 29 Br 14.886034 9.849820 -19.063620 0
M  V30 30 C 13.684437 8.180691 -17.047392 0
M  V30 31 H 11.733463 5.252535 -15.572395 0
M  V30 32 H 11.202811 6.544173 -12.930454 0
M  V30 33 H 11.954168 4.975770 -13.046955 0
M  V30 34 H 10.732001 3.381317 -14.915608 0
M  V30 35 H 8.622273 2.113156 -15.108582 0
M  V30 36 H 6.579765 2.903078 -13.928457 0
M  V30 37 H 6.659773 4.949682 -12.545018 0
M  V30 38 H 7.685650 6.963797 -11.944377 0
M  V30 39 H 9.185917 7.453734 -12.646917 0
M  V30 40 H 7.694242 6.172338 -9.538642 0
M  V30 41 H 8.314046 4.720800 -10.282981 0
M  V30 42 H 10.259093 4.678936 -8.827784 0
M  V30 43 H 8.826275 4.872605 -7.846381 0
M  V30 44 H 10.356874 5.772451 -6.015304 0
M  V30 45 H 11.691617 8.686140 -4.497932 0
M  V30 46 H 12.802357 9.890351 -6.139844 0
M  V30 47 H 11.041868 9.775891 -8.861417 0
M  V30 48 H 8.877563 8.480345 -10.233925 0
M  V30 49 H 10.506052 8.283206 -10.848568 0
M  V30 50 H 13.628679 4.801522 -16.499966 0
M  V30 51 H 14.875333 4.829674 -18.630947 0
M  V30 52 H 15.412225 6.990773 -19.742910 0
M  V30 53 H 13.368628 9.119706 -16.614449 0
M  V30 54 H 10.248248 6.005047 -10.943636 0
M  V30 END ATOM
M  V30 BEGIN BOND
M  V30 1 2 2 1
M  V30 2 1 3 2
M  V30 3 1 4 3
M  V30 4 1 5 4
M  V30 5 2 6 5
M  V30 6 1 7 6
M  V30 7 2 8 7
M  V30 8 1 9 8
M  V30 9 1 10 5
M  V30 10 2 10 9
M  V30 11 1 11 10
M  V30 12 1 12 11
M  V30 13 1 13 12
M  V30 14 1 14 13
M  V30 15 1 15 14
M  V30 16 1 16 15
M  V30 17 2 17 16
M  V30 18 1 18 17
M  V30 19 1 19 17
M  V30 20 1 20 19
M  V30 21 2 21 19
M  V30 22 2 22 15
M  V30 23 1 22 21
M  V30 24 1 23 12
M  V30 25 1 23 22
M  V30 26 1 24 2
M  V30 27 2 25 24
M  V30 28 1 26 25
M  V30 29 2 27 26
M  V30 30 1 28 27
M  V30 31 1 29 28
M  V30 32 1 30 24
M  V30 33 2 30 28
M  V30 34 1 31 3
M  V30 35 1 32 4
M  V30 36 1 33 4
M  V30 37 1 34 6
M  V30 38 1 35 7
M  V30 39 1 36 8
M  V30 40 1 37 9
M  V30 41 1 38 11
M  V30 42 1 39 11
M  V30 43 1 40 13
M  V30 44 1 41 13
M  V30 45 1 42 14
M  V30 46 1 43 14
M  V30 47 1 44 16
M  V30 48 1 45 18
M  V30 49 1 46 20
M  V30 50 1 47 21
M  V30 51 1 48 23
M  V30 52 1 49 23
M  V30 53 1 50 25
M  V30 54 1 51 26
M  V30 55 1 52 27
M  V30 56 1 53 30
M  V30 57 1 12 54 CFG=3
M  V30 END BOND
M  V30 END CTAB
M  END
>  <b_m_subgroup_collapsed>  (1874) 
0

>  <r_i_docking_score>  (1874) 
-6.5373807732226101

>  <s_m_subgroup_title>  (1874) 
glide-dock_SP_D22_pv

>  <s_m_subgroupid>  (1874) 
glide-dock_SP_D22_pv

>  <Molecule ChEMBL ID>  (1874) 
CHEMBL4876260

>  <Standard Type>  (1874) 
Ki

>  <Standard Value>  (1874) 
56.0

>  <label>  (1874) 
1

$$$$
CHEMBL280804
     RDKit          3D

  0  0  0  0  0  0  0  0  0  0999 V3000
M  V30 BEGIN CTAB
M  V30 COUNTS 50 54 0 0 1
M  V30 BEGIN ATOM
M  V30 1 C 10.492516 0.465006 -14.746031 0
M  V30 2 C 10.694206 1.898026 -14.254478 0
M  V30 3 O 10.513718 2.763737 -15.361682 0
M  V30 4 C 9.796266 3.974655 -15.138895 0 CFG=1
M  V30 5 C 9.546026 4.510584 -16.565804 0
M  V30 6 C 10.792652 4.917436 -17.365448 0
M  V30 7 C 8.456761 3.742692 -14.418975 0
M  V30 8 C 7.350593 2.896909 -14.640143 0
M  V30 9 C 6.265062 2.934544 -13.725609 0
M  V30 10 C 6.294869 3.772109 -12.581025 0
M  V30 11 C 7.423913 4.579502 -12.332065 0
M  V30 12 C 8.441962 4.546085 -13.285360 0
M  V30 13 C 9.657546 5.311135 -13.202420 0
M  V30 14 C 10.527753 4.982746 -14.236473 0
M  V30 15 C 11.772031 5.658470 -14.285063 0
M  V30 16 C 12.086700 6.643338 -13.301856 0
M  V30 17 C 11.184346 6.971961 -12.253903 0
M  V30 18 C 9.963895 6.275246 -12.246576 0
M  V30 19 C 8.761882 6.566030 -11.343112 0 CFG=1
M  V30 20 C 7.782761 5.386017 -11.095140 0
M  V30 21 N 9.154921 7.298064 -10.109373 0 CFG=1 CHG=1
M  V30 22 C 9.586824 6.457730 -8.965236 0
M  V30 23 C 10.096464 8.399404 -10.423401 0
M  V30 24 C 11.404312 7.869483 -11.044653 0
M  V30 25 H 10.512169 -0.227460 -13.908248 0
M  V30 26 H 11.278039 0.178538 -15.448699 0
M  V30 27 H 9.527804 0.350665 -15.242059 0
M  V30 28 H 9.994709 2.091466 -13.447188 0
M  V30 29 H 11.686167 2.047090 -13.843865 0
M  V30 30 H 9.003687 3.753500 -17.133707 0
M  V30 31 H 8.886279 5.371407 -16.513018 0
M  V30 32 H 10.530417 5.114851 -18.404762 0
M  V30 33 H 11.547111 4.129784 -17.360645 0
M  V30 34 H 11.242309 5.829950 -16.975166 0
M  V30 35 H 7.325779 2.236162 -15.494391 0
M  V30 36 H 5.411319 2.291172 -13.874849 0
M  V30 37 H 5.485147 3.745486 -11.863768 0
M  V30 38 H 12.481885 5.435985 -15.068962 0
M  V30 39 H 13.045003 7.136810 -13.345929 0
M  V30 40 H 8.182655 7.290722 -11.919143 0
M  V30 41 H 6.874895 5.770294 -10.646717 0
M  V30 42 H 8.209744 4.666769 -10.395524 0
M  V30 43 H 10.378942 5.765264 -9.250172 0
M  V30 44 H 8.749430 5.884423 -8.567359 0
M  V30 45 H 9.954914 7.076822 -8.147134 0
M  V30 46 H 9.597743 9.056453 -11.134690 0
M  V30 47 H 10.301592 8.996488 -9.535199 0
M  V30 48 H 11.957651 7.293628 -10.303803 0
M  V30 49 H 12.064930 8.688853 -11.319884 0
M  V30 50 H 8.278734 7.732729 -9.821529 0
M  V30 END ATOM
M  V30 BEGIN BOND
M  V30 1 1 2 1
M  V30 2 1 3 2
M  V30 3 1 4 3 CFG=3
M  V30 4 1 5 4
M  V30 5 1 6 5
M  V30 6 1 7 4
M  V30 7 2 8 7
M  V30 8 1 9 8
M  V30 9 2 10 9
M  V30 10 1 11 10
M  V30 11 1 12 7
M  V30 12 2 12 11
M  V30 13 1 13 12
M  V30 14 1 14 4
M  V30 15 2 14 13
M  V30 16 1 15 14
M  V30 17 2 16 15
M  V30 18 1 17 16
M  V30 19 1 18 13
M  V30 20 2 18 17
M  V30 21 1 19 18
M  V30 22 1 20 11
M  V30 23 1 20 19
M  V30 24 1 21 19
M  V30 25 1 22 21
M  V30 26 1 23 21
M  V30 27 1 24 17
M  V30 28 1 24 23
M  V30 29 1 25 1
M  V30 30 1 26 1
M  V30 31 1 27 1
M  V30 32 1 28 2
M  V30 33 1 29 2
M  V30 34 1 30 5
M  V30 35 1 31 5
M  V30 36 1 32 6
M  V30 37 1 33 6
M  V30 38 1 34 6
M  V30 39 1 35 8
M  V30 40 1 36 9
M  V30 41 1 37 10
M  V30 42 1 38 15
M  V30 43 1 39 16
M  V30 44 1 19 40 CFG=3
M  V30 45 1 41 20
M  V30 46 1 42 20
M  V30 47 1 43 22
M  V30 48 1 44 22
M  V30 49 1 45 22
M  V30 50 1 46 23
M  V30 51 1 47 23
M  V30 52 1 48 24
M  V30 53 1 49 24
M  V30 54 1 21 50 CFG=1
M  V30 END BOND
M  V30 END CTAB
M  END
>  <b_m_subgroup_collapsed>  (1875) 
0

>  <r_i_docking_score>  (1875) 
-6.5367344100756197

>  <s_m_subgroup_title>  (1875) 
glide-dock_SP_D22_pv

>  <s_m_subgroupid>  (1875) 
glide-dock_SP_D22_pv

>  <Molecule ChEMBL ID>  (1875) 
CHEMBL280804

>  <Standard Type>  (1875) 
Ki

>  <Standard Value>  (1875) 
24.5

>  <label>  (1875) 
1

$$$$
CHEMBL4471669
     RDKit          3D

  0  0  0  0  0  0  0  0  0  0999 V3000
M  V30 BEGIN CTAB
M  V30 COUNTS 45 46 0 0 1
M  V30 BEGIN ATOM
M  V30 1 C 8.523372 4.027793 -12.730671 0
M  V30 2 C 8.548271 5.527975 -13.036243 0
M  V30 3 C 8.486864 6.402101 -11.775008 0
M  V30 4 C 9.787356 6.391376 -10.957656 0
M  V30 5 N 9.711046 7.293684 -9.782226 0 CHG=1
M  V30 6 C 11.034971 7.859371 -9.413776 0
M  V30 7 C 10.905246 8.901384 -8.291190 0
M  V30 8 N 10.139616 8.378986 -7.166986 0
M  V30 9 C 10.819403 8.048364 -5.981078 0
M  V30 10 C 11.072062 6.707975 -5.668727 0
M  V30 11 C 11.686239 6.389322 -4.452515 0
M  V30 12 C 12.061618 7.361691 -3.525396 0
M  V30 13 C 11.795811 8.710275 -3.801018 0
M  V30 14 C 12.073378 9.770488 -2.741002 0
M  V30 15 C 12.434127 9.255318 -1.345539 0
M  V30 16 C 11.211716 9.042770 -5.052013 0
M  V30 17 Cl 10.894138 10.672859 -5.441753 0
M  V30 18 C 8.885532 7.694622 -7.466053 0
M  V30 19 C 9.047777 6.672142 -8.608265 0
M  V30 20 H 8.501790 3.442519 -13.651175 0
M  V30 21 H 9.398149 3.711872 -12.161416 0
M  V30 22 H 7.634656 3.772976 -12.152997 0
M  V30 23 H 7.688277 5.760904 -13.663089 0
M  V30 24 H 9.430378 5.771532 -13.628242 0
M  V30 25 H 7.647039 6.082275 -11.158156 0
M  V30 26 H 8.263189 7.427306 -12.074099 0
M  V30 27 H 10.594076 6.715240 -11.617567 0
M  V30 28 H 10.043887 5.383677 -10.630291 0
M  V30 29 H 11.505851 8.325766 -10.280332 0
M  V30 30 H 11.685493 7.047091 -9.092291 0
M  V30 31 H 10.385012 9.772061 -8.682950 0
M  V30 32 H 11.890457 9.236348 -7.964268 0
M  V30 33 H 10.804317 5.916309 -6.349851 0
M  V30 34 H 11.920863 5.374730 -4.224278 0
M  V30 35 H 12.524127 7.040008 -2.605256 0
M  V30 36 H 12.885984 10.403897 -3.048650 0
M  V30 37 H 11.206929 10.419560 -2.670155 0
M  V30 38 H 12.486650 10.088402 -0.646969 0
M  V30 39 H 11.686110 8.569976 -0.962532 0
M  V30 40 H 13.400054 8.752394 -1.337218 0
M  V30 41 H 8.483780 7.207755 -6.576402 0
M  V30 42 H 8.152912 8.451516 -7.748068 0
M  V30 43 H 8.076144 6.271184 -8.888338 0
M  V30 44 H 9.637521 5.819759 -8.272266 0
M  V30 45 H 9.120204 8.068505 -10.053679 0
M  V30 END ATOM
M  V30 BEGIN BOND
M  V30 1 1 2 1
M  V30 2 1 3 2
M  V30 3 1 4 3
M  V30 4 1 5 4
M  V30 5 1 6 5
M  V30 6 1 7 6
M  V30 7 1 8 7
M  V30 8 1 9 8
M  V30 9 2 10 9
M  V30 10 1 11 10
M  V30 11 2 12 11
M  V30 12 1 13 12
M  V30 13 1 14 13
M  V30 14 1 15 14
M  V30 15 1 16 9
M  V30 16 2 16 13
M  V30 17 1 17 16
M  V30 18 1 18 8
M  V30 19 1 19 5
M  V30 20 1 19 18
M  V30 21 1 20 1
M  V30 22 1 21 1
M  V30 23 1 22 1
M  V30 24 1 23 2
M  V30 25 1 24 2
M  V30 26 1 25 3
M  V30 27 1 26 3
M  V30 28 1 27 4
M  V30 29 1 28 4
M  V30 30 1 29 6
M  V30 31 1 30 6
M  V30 32 1 31 7
M  V30 33 1 32 7
M  V30 34 1 33 10
M  V30 35 1 34 11
M  V30 36 1 35 12
M  V30 37 1 36 14
M  V30 38 1 37 14
M  V30 39 1 38 15
M  V30 40 1 39 15
M  V30 41 1 40 15
M  V30 42 1 41 18
M  V30 43 1 42 18
M  V30 44 1 43 19
M  V30 45 1 44 19
M  V30 46 1 45 5
M  V30 END BOND
M  V30 END CTAB
M  END
>  <b_m_subgroup_collapsed>  (1876) 
0

>  <r_i_docking_score>  (1876) 
-6.5364544324990197

>  <s_m_subgroup_title>  (1876) 
glide-dock_SP_D22_pv

>  <s_m_subgroupid>  (1876) 
glide-dock_SP_D22_pv

>  <Molecule ChEMBL ID>  (1876) 
CHEMBL4471669

>  <Standard Type>  (1876) 
Ki

>  <Standard Value>  (1876) 
2.93

>  <label>  (1876) 
1

$$$$
CHEMBL561054
     RDKit          3D

  0  0  0  0  0  0  0  0  0  0999 V3000
M  V30 BEGIN CTAB
M  V30 COUNTS 47 49 0 0 1
M  V30 BEGIN ATOM
M  V30 1 C 12.486075 7.161217 -14.059992 0
M  V30 2 C 11.740311 5.837373 -14.344694 0 CFG=2
M  V30 3 C 11.621558 5.689521 -15.879735 0
M  V30 4 C 10.824571 4.451930 -16.294722 0
M  V30 5 C 9.452766 4.493811 -15.628308 0
M  V30 6 C 9.602398 4.575682 -14.104568 0
M  V30 7 N 10.391266 5.769279 -13.688305 0 CFG=1 CHG=1
M  V30 8 C 10.421661 5.885962 -12.209493 0
M  V30 9 C 9.209396 6.593169 -11.585709 0
M  V30 10 N 9.372374 6.638999 -10.128703 0
M  V30 11 C 8.705679 5.669141 -9.295112 0
M  V30 12 C 9.165959 6.051041 -7.895103 0
M  V30 13 N 10.038399 7.200333 -8.106578 0
M  V30 14 C 10.694480 7.868805 -7.016868 0
M  V30 15 C 11.081439 9.223555 -7.114480 0
M  V30 16 C 11.705128 9.888112 -6.041196 0
M  V30 17 C 11.980273 9.194554 -4.849869 0
M  V30 18 C 11.620174 7.840650 -4.733609 0
M  V30 19 Cl 12.015021 6.972501 -3.292923 0
M  V30 20 C 10.956813 7.191984 -5.799466 0
M  V30 21 C 10.150705 7.478254 -9.427473 0
M  V30 22 O 10.874149 8.330952 -9.945226 0
M  V30 23 H 13.376472 7.240826 -14.682747 0
M  V30 24 H 11.862896 8.027991 -14.275118 0
M  V30 25 H 12.845728 7.245059 -13.036089 0
M  V30 26 H 12.343460 5.011084 -13.966212 0
M  V30 27 H 12.616217 5.641703 -16.325529 0
M  V30 28 H 11.142613 6.574420 -16.300707 0
M  V30 29 H 11.360337 3.547902 -16.001556 0
M  V30 30 H 10.718790 4.418365 -17.379816 0
M  V30 31 H 8.886458 3.601626 -15.898204 0
M  V30 32 H 8.886470 5.354800 -15.989369 0
M  V30 33 H 10.082497 3.668993 -13.734885 0
M  V30 34 H 8.612317 4.611288 -13.650898 0
M  V30 35 H 11.286078 6.455080 -11.885383 0
M  V30 36 H 10.485559 4.882546 -11.786991 0
M  V30 37 H 8.281408 6.073847 -11.826913 0
M  V30 38 H 9.108312 7.608986 -11.973153 0
M  V30 39 H 7.633868 5.772554 -9.406867 0
M  V30 40 H 8.992830 4.651888 -9.562119 0
M  V30 41 H 9.706226 5.222842 -7.447377 0
M  V30 42 H 8.323377 6.313973 -7.253616 0
M  V30 43 H 10.890300 9.772379 -8.018572 0
M  V30 44 H 11.986711 10.926104 -6.140285 0
M  V30 45 H 12.478864 9.698079 -4.033369 0
M  V30 46 H 10.681185 6.157564 -5.672976 0
M  V30 47 H 9.886684 6.574440 -14.026565 0
M  V30 END ATOM
M  V30 BEGIN BOND
M  V30 1 1 2 1
M  V30 2 1 3 2
M  V30 3 1 4 3
M  V30 4 1 5 4
M  V30 5 1 6 5
M  V30 6 1 7 2
M  V30 7 1 7 6
M  V30 8 1 8 7
M  V30 9 1 9 8
M  V30 10 1 10 9
M  V30 11 1 11 10
M  V30 12 1 12 11
M  V30 13 1 13 12
M  V30 14 1 14 13
M  V30 15 2 15 14
M  V30 16 1 16 15
M  V30 17 2 17 16
M  V30 18 1 18 17
M  V30 19 1 19 18
M  V30 20 1 20 14
M  V30 21 2 20 18
M  V30 22 1 21 10
M  V30 23 1 21 13
M  V30 24 2 22 21
M  V30 25 1 23 1
M  V30 26 1 24 1
M  V30 27 1 25 1
M  V30 28 1 2 26 CFG=1
M  V30 29 1 27 3
M  V30 30 1 28 3
M  V30 31 1 29 4
M  V30 32 1 30 4
M  V30 33 1 31 5
M  V30 34 1 32 5
M  V30 35 1 33 6
M  V30 36 1 34 6
M  V30 37 1 35 8
M  V30 38 1 36 8
M  V30 39 1 37 9
M  V30 40 1 38 9
M  V30 41 1 39 11
M  V30 42 1 40 11
M  V30 43 1 41 12
M  V30 44 1 42 12
M  V30 45 1 43 15
M  V30 46 1 44 16
M  V30 47 1 45 17
M  V30 48 1 46 20
M  V30 49 1 7 47 CFG=3
M  V30 END BOND
M  V30 END CTAB
M  END
>  <b_m_subgroup_collapsed>  (1877) 
0

>  <r_i_docking_score>  (1877) 
-6.5357424658381902

>  <s_m_subgroup_title>  (1877) 
glide-dock_SP_D22_pv

>  <s_m_subgroupid>  (1877) 
glide-dock_SP_D22_pv

>  <Molecule ChEMBL ID>  (1877) 
CHEMBL561054

>  <Standard Type>  (1877) 
Ki

>  <Standard Value>  (1877) 
25.12

>  <label>  (1877) 
1

$$$$
CHEMBL279925
     RDKit          3D

  0  0  0  0  0  0  0  0  0  0999 V3000
M  V30 BEGIN CTAB
M  V30 COUNTS 73 77 0 0 1
M  V30 BEGIN ATOM
M  V30 1 C 10.886511 7.758699 -5.310525 0
M  V30 2 C 10.774108 8.057054 -6.757676 0
M  V30 3 N 11.170956 9.150537 -7.408930 0
M  V30 4 N 10.859643 8.923730 -8.734498 0
M  V30 5 C 10.286543 7.712715 -8.775693 0
M  V30 6 C 9.847405 6.932509 -9.923665 0
M  V30 7 C 8.931917 5.873278 -9.753283 0
M  V30 8 C 8.574818 5.062373 -10.843884 0
M  V30 9 C 9.135503 5.272357 -12.124345 0
M  V30 10 C 8.801345 4.369215 -13.247416 0
M  V30 11 C 9.765687 4.055012 -14.232588 0
M  V30 12 C 9.460987 3.179519 -15.291566 0
M  V30 13 C 8.191512 2.572348 -15.371353 0
M  V30 14 C 7.862430 1.722088 -16.552788 0
M  V30 15 O 7.689324 2.229104 -17.662128 0
M  V30 16 N 7.881379 0.401471 -16.339146 0
M  V30 17 C 7.881008 -0.589451 -17.411684 0
M  V30 18 C 9.318870 -1.028461 -17.785097 0
M  V30 19 C 10.193524 0.123957 -18.309978 0
M  V30 20 C 11.625181 -0.276648 -18.702185 0
M  V30 21 N 12.413489 0.887781 -19.188751 0 CFG=2 CHG=1
M  V30 22 C 13.657494 0.489549 -19.889503 0
M  V30 23 C 14.232746 1.687151 -20.659477 0
M  V30 24 C 14.353140 2.924585 -19.788845 0
M  V30 25 C 15.180401 3.993750 -20.191504 0
M  V30 26 C 15.286716 5.148094 -19.391747 0
M  V30 27 C 14.570499 5.237366 -18.181732 0
M  V30 28 O 14.711097 6.331769 -17.374765 0
M  V30 29 S 13.617308 7.606190 -17.586994 0
M  V30 30 O 14.418171 8.811090 -17.850109 0
M  V30 31 O 12.572593 7.164130 -18.524931 0
M  V30 32 C 12.916074 7.677631 -15.877049 0
M  V30 33 F 12.886567 8.948373 -15.478832 0
M  V30 34 F 11.686139 7.165981 -15.881487 0
M  V30 35 F 13.688725 6.974656 -15.050764 0
M  V30 36 C 13.732212 4.176977 -17.785509 0
M  V30 37 C 13.611133 3.023819 -18.588720 0
M  V30 38 C 12.686534 1.903546 -18.134428 0
M  V30 39 C 7.226663 2.855989 -14.384056 0
M  V30 40 C 7.522616 3.772647 -13.354531 0
M  V30 41 C 10.039970 6.349398 -12.283868 0
M  V30 42 C 10.388039 7.178054 -11.200594 0
M  V30 43 O 10.214523 7.119593 -7.556575 0
M  V30 44 H 10.793346 8.672276 -4.723151 0
M  V30 45 H 10.086955 7.065624 -5.044684 0
M  V30 46 H 11.844858 7.287238 -5.092823 0
M  V30 47 H 8.494872 5.674756 -8.784860 0
M  V30 48 H 7.872749 4.260063 -10.673470 0
M  V30 49 H 10.754402 4.486457 -14.184015 0
M  V30 50 H 10.207062 2.982381 -16.045145 0
M  V30 51 H 8.022471 0.067122 -15.396557 0
M  V30 52 H 7.364343 -0.217755 -18.298191 0
M  V30 53 H 7.283875 -1.427998 -17.062847 0
M  V30 54 H 9.267456 -1.821019 -18.533484 0
M  V30 55 H 9.804091 -1.459931 -16.910236 0
M  V30 56 H 10.256875 0.869262 -17.524347 0
M  V30 57 H 9.696998 0.596218 -19.159496 0
M  V30 58 H 11.566877 -1.027664 -19.490629 0
M  V30 59 H 12.139585 -0.742188 -17.860472 0
M  V30 60 H 14.380192 0.121285 -19.158148 0
M  V30 61 H 13.467178 -0.327468 -20.586966 0
M  V30 62 H 13.591745 1.931244 -21.506380 0
M  V30 63 H 15.211888 1.432050 -21.067934 0
M  V30 64 H 15.737903 3.933242 -21.115370 0
M  V30 65 H 15.926064 5.962044 -19.702316 0
M  V30 66 H 13.187757 4.249650 -16.854681 0
M  V30 67 H 13.117494 1.424631 -17.256361 0
M  V30 68 H 11.757624 2.375131 -17.819559 0
M  V30 69 H 6.240607 2.415627 -14.438295 0
M  V30 70 H 6.756906 3.999983 -12.626922 0
M  V30 71 H 10.488732 6.548998 -13.245593 0
M  V30 72 H 11.094419 7.981178 -11.347043 0
M  V30 73 H 11.845605 1.347586 -19.886362 0
M  V30 END ATOM
M  V30 BEGIN BOND
M  V30 1 1 2 1
M  V30 2 2 3 2
M  V30 3 1 4 3
M  V30 4 2 5 4
M  V30 5 1 6 5
M  V30 6 1 7 6
M  V30 7 2 8 7
M  V30 8 1 9 8
M  V30 9 1 10 9
M  V30 10 1 11 10
M  V30 11 2 12 11
M  V30 12 1 13 12
M  V30 13 1 14 13
M  V30 14 2 15 14
M  V30 15 1 16 14
M  V30 16 1 17 16
M  V30 17 1 18 17
M  V30 18 1 19 18
M  V30 19 1 20 19
M  V30 20 1 21 20
M  V30 21 1 22 21
M  V30 22 1 23 22
M  V30 23 1 24 23
M  V30 24 1 25 24
M  V30 25 2 26 25
M  V30 26 1 27 26
M  V30 27 1 28 27
M  V30 28 1 29 28
M  V30 29 2 30 29
M  V30 30 2 31 29
M  V30 31 1 32 29
M  V30 32 1 33 32
M  V30 33 1 34 32
M  V30 34 1 35 32
M  V30 35 2 36 27
M  V30 36 2 37 24
M  V30 37 1 37 36
M  V30 38 1 38 21
M  V30 39 1 38 37
M  V30 40 2 39 13
M  V30 41 2 40 10
M  V30 42 1 40 39
M  V30 43 2 41 9
M  V30 44 2 42 6
M  V30 45 1 42 41
M  V30 46 1 43 2
M  V30 47 1 43 5
M  V30 48 1 44 1
M  V30 49 1 45 1
M  V30 50 1 46 1
M  V30 51 1 47 7
M  V30 52 1 48 8
M  V30 53 1 49 11
M  V30 54 1 50 12
M  V30 55 1 51 16
M  V30 56 1 52 17
M  V30 57 1 53 17
M  V30 58 1 54 18
M  V30 59 1 55 18
M  V30 60 1 56 19
M  V30 61 1 57 19
M  V30 62 1 58 20
M  V30 63 1 59 20
M  V30 64 1 60 22
M  V30 65 1 61 22
M  V30 66 1 62 23
M  V30 67 1 63 23
M  V30 68 1 64 25
M  V30 69 1 65 26
M  V30 70 1 66 36
M  V30 71 1 67 38
M  V30 72 1 68 38
M  V30 73 1 69 39
M  V30 74 1 70 40
M  V30 75 1 71 41
M  V30 76 1 72 42
M  V30 77 1 21 73 CFG=3
M  V30 END BOND
M  V30 END CTAB
M  END
>  <b_m_subgroup_collapsed>  (1878) 
0

>  <r_i_docking_score>  (1878) 
-6.5342259975022801

>  <s_m_subgroup_title>  (1878) 
glide-dock_SP_D22_pv

>  <s_m_subgroupid>  (1878) 
glide-dock_SP_D22_pv

>  <Molecule ChEMBL ID>  (1878) 
CHEMBL279925

>  <Standard Type>  (1878) 
Ki

>  <Standard Value>  (1878) 
100.0

>  <label>  (1878) 
1

$$$$
CHEMBL15270
     RDKit          3D

  0  0  0  0  0  0  0  0  0  0999 V3000
M  V30 BEGIN CTAB
M  V30 COUNTS 55 58 0 0 1
M  V30 BEGIN ATOM
M  V30 1 C 5.428881 4.147065 -13.005234 0
M  V30 2 C 6.904648 4.077684 -13.322194 0
M  V30 3 N 7.312065 3.076346 -14.098560 0
M  V30 4 C 8.635082 2.994805 -14.350167 0
M  V30 5 Cl 9.189286 1.665161 -15.305075 0
M  V30 6 C 9.543900 3.947023 -13.831570 0
M  V30 7 S 11.287162 3.816787 -14.124819 0
M  V30 8 C 11.531442 4.900307 -15.490493 0
M  V30 9 C 12.223373 6.113877 -15.302914 0
M  V30 10 C 12.485682 6.949348 -16.406820 0
M  V30 11 C 12.048922 6.573673 -17.692978 0
M  V30 12 Cl 12.373250 7.592509 -19.046862 0
M  V30 13 C 11.346296 5.366619 -17.875731 0
M  V30 14 C 11.091592 4.526167 -16.775236 0
M  V30 15 C 8.996182 4.960307 -13.013565 0
M  V30 16 N 9.820236 5.921796 -12.407103 0
M  V30 17 C 9.386761 6.590705 -11.179617 0 CFG=1
M  V30 18 C 9.489780 5.656959 -9.958831 0
M  V30 19 C 9.141212 6.365963 -8.642596 0
M  V30 20 N 9.874622 7.644011 -8.438935 0 CFG=2 CHG=1
M  V30 21 C 9.467384 8.318392 -7.175672 0
M  V30 22 C 10.518929 8.220595 -6.078985 0
M  V30 23 C 10.774450 6.985276 -5.447271 0
M  V30 24 C 11.659141 6.905267 -4.353871 0
M  V30 25 C 12.293765 8.064952 -3.877330 0
M  V30 26 C 12.069667 9.294555 -4.521858 0
M  V30 27 C 11.190829 9.376396 -5.621907 0
M  V30 28 C 9.755821 8.545305 -9.616719 0
M  V30 29 C 10.210369 7.859284 -10.916724 0
M  V30 30 N 7.670581 5.018539 -12.779408 0
M  V30 31 H 4.892865 4.660049 -13.803755 0
M  V30 32 H 5.008380 3.147512 -12.888982 0
M  V30 33 H 5.277118 4.690447 -12.071671 0
M  V30 34 H 12.575253 6.394989 -14.320785 0
M  V30 35 H 13.023340 7.875924 -16.268967 0
M  V30 36 H 11.012095 5.079951 -18.861502 0
M  V30 37 H 10.573620 3.591136 -16.924454 0
M  V30 38 H 10.810892 5.808105 -12.562873 0
M  V30 39 H 8.347688 6.903117 -11.295064 0
M  V30 40 H 8.822996 4.802976 -10.087922 0
M  V30 41 H 10.486004 5.243858 -9.873568 0
M  V30 42 H 9.317919 5.690887 -7.805663 0
M  V30 43 H 8.085363 6.580374 -8.647389 0
M  V30 44 H 8.524860 7.915812 -6.797768 0
M  V30 45 H 9.263713 9.372022 -7.362025 0
M  V30 46 H 10.256781 6.099485 -5.771916 0
M  V30 47 H 11.829378 5.956695 -3.865855 0
M  V30 48 H 12.957366 8.009080 -3.027238 0
M  V30 49 H 12.571229 10.172042 -4.152407 0
M  V30 50 H 11.011145 10.335667 -6.085976 0
M  V30 51 H 8.721365 8.879893 -9.718352 0
M  V30 52 H 10.361755 9.437078 -9.450917 0
M  V30 53 H 10.085089 8.557228 -11.746570 0
M  V30 54 H 11.273366 7.621036 -10.861023 0
M  V30 55 H 10.853448 7.415910 -8.342999 0
M  V30 END ATOM
M  V30 BEGIN BOND
M  V30 1 1 2 1
M  V30 2 2 3 2
M  V30 3 1 4 3
M  V30 4 1 5 4
M  V30 5 2 6 4
M  V30 6 1 7 6
M  V30 7 1 8 7
M  V30 8 1 9 8
M  V30 9 2 10 9
M  V30 10 1 11 10
M  V30 11 1 12 11
M  V30 12 2 13 11
M  V30 13 2 14 8
M  V30 14 1 14 13
M  V30 15 1 15 6
M  V30 16 1 16 15
M  V30 17 1 17 16
M  V30 18 1 18 17
M  V30 19 1 19 18
M  V30 20 1 20 19
M  V30 21 1 21 20
M  V30 22 1 22 21
M  V30 23 2 23 22
M  V30 24 1 24 23
M  V30 25 2 25 24
M  V30 26 1 26 25
M  V30 27 1 27 22
M  V30 28 2 27 26
M  V30 29 1 28 20
M  V30 30 1 29 17
M  V30 31 1 29 28
M  V30 32 1 30 2
M  V30 33 2 30 15
M  V30 34 1 31 1
M  V30 35 1 32 1
M  V30 36 1 33 1
M  V30 37 1 34 9
M  V30 38 1 35 10
M  V30 39 1 36 13
M  V30 40 1 37 14
M  V30 41 1 38 16
M  V30 42 1 17 39 CFG=3
M  V30 43 1 40 18
M  V30 44 1 41 18
M  V30 45 1 42 19
M  V30 46 1 43 19
M  V30 47 1 44 21
M  V30 48 1 45 21
M  V30 49 1 46 23
M  V30 50 1 47 24
M  V30 51 1 48 25
M  V30 52 1 49 26
M  V30 53 1 50 27
M  V30 54 1 51 28
M  V30 55 1 52 28
M  V30 56 1 53 29
M  V30 57 1 54 29
M  V30 58 1 20 55 CFG=1
M  V30 END BOND
M  V30 END CTAB
M  END
>  <b_m_subgroup_collapsed>  (1879) 
0

>  <r_i_docking_score>  (1879) 
-6.5332119938692896

>  <s_m_subgroup_title>  (1879) 
glide-dock_SP_D22_pv

>  <s_m_subgroupid>  (1879) 
glide-dock_SP_D22_pv

>  <Molecule ChEMBL ID>  (1879) 
CHEMBL15270

>  <Standard Type>  (1879) 
Ki

>  <Standard Value>  (1879) 
62.0

>  <label>  (1879) 
1

$$$$
CHEMBL4469792
     RDKit          3D

  0  0  0  0  0  0  0  0  0  0999 V3000
M  V30 BEGIN CTAB
M  V30 COUNTS 56 60 0 0 1
M  V30 BEGIN ATOM
M  V30 1 C 4.806444 2.700897 -12.906438 0
M  V30 2 O 5.902956 2.795511 -13.800269 0
M  V30 3 C 6.844296 3.759563 -13.536381 0
M  V30 4 C 6.633502 4.858851 -12.671706 0
M  V30 5 C 7.686332 5.745498 -12.402373 0
M  V30 6 C 8.964330 5.495229 -12.936151 0
M  V30 7 C 9.188730 4.438243 -13.867447 0
M  V30 8 C 8.090392 3.601900 -14.169623 0
M  V30 9 C 10.562248 4.522719 -14.265865 0
M  V30 10 C 11.191390 3.723701 -15.329167 0
M  V30 11 N 10.738326 2.477974 -15.706408 0
M  V30 12 C 11.505713 1.998718 -16.751307 0
M  V30 13 N 11.284477 0.873509 -17.354465 0
M  V30 14 C 12.097504 0.483048 -18.410021 0
M  V30 15 C 11.707281 -0.880789 -18.966284 0
M  V30 16 O 13.050838 1.078114 -18.921907 0
M  V30 17 N 12.481226 2.962400 -16.956154 0
M  V30 18 C 12.274753 3.996318 -16.069523 0
M  V30 19 C 13.183638 5.209523 -16.070986 0
M  V30 20 C 11.163591 5.496528 -13.519250 0
M  V30 21 N 10.209722 6.058919 -12.679590 0
M  V30 22 S 10.556095 7.274360 -11.506881 0
M  V30 23 O 9.683942 8.407643 -11.847969 0
M  V30 24 O 12.020205 7.409679 -11.519881 0
M  V30 25 C 10.046145 6.640485 -9.899096 0
M  V30 26 C 9.377695 5.397373 -9.803049 0
M  V30 27 C 8.690561 5.055483 -8.633884 0
M  V30 28 C 8.743813 5.915379 -7.529346 0
M  V30 29 C 9.581341 7.035285 -7.540518 0
M  V30 30 C 9.756154 7.741866 -6.342798 0
M  V30 31 C 10.569644 8.877888 -6.302945 0
M  V30 32 C 11.188693 9.301141 -7.486594 0
M  V30 33 C 11.017452 8.606046 -8.699112 0
M  V30 34 C 10.225698 7.434794 -8.735090 0
M  V30 35 H 4.256714 1.782122 -13.104007 0
M  V30 36 H 5.134620 2.668115 -11.866446 0
M  V30 37 H 4.123926 3.540118 -13.046557 0
M  V30 38 H 5.684345 5.030173 -12.184001 0
M  V30 39 H 7.527097 6.566554 -11.715567 0
M  V30 40 H 8.210929 2.777304 -14.855239 0
M  V30 41 H 9.970801 2.003819 -15.257063 0
M  V30 42 H 11.187820 -1.484567 -18.220804 0
M  V30 43 H 12.598989 6.126429 -16.152191 0
M  V30 44 H 13.761196 5.249030 -15.146717 0
M  V30 45 H 13.881430 5.173840 -16.906754 0
M  V30 46 H 12.190619 5.835750 -13.502615 0
M  V30 47 H 9.301684 4.717042 -10.632143 0
M  V30 48 H 8.088260 4.158271 -8.593484 0
M  V30 49 H 8.159228 5.729916 -6.646480 0
M  V30 50 H 9.283272 7.382754 -5.446743 0
M  V30 51 H 10.710936 9.420355 -5.380051 0
M  V30 52 H 11.794224 10.177001 -7.446654 0
M  V30 53 H 11.524517 8.974098 -9.577295 0
M  V30 54 H 11.050377 -0.760641 -19.828075 0
M  V30 55 H 12.595821 -1.425491 -19.284590 0
M  V30 56 H 13.219550 2.927330 -17.646164 0
M  V30 END ATOM
M  V30 BEGIN BOND
M  V30 1 1 2 1
M  V30 2 1 3 2
M  V30 3 1 4 3
M  V30 4 2 5 4
M  V30 5 1 6 5
M  V30 6 2 7 6
M  V30 7 2 8 3
M  V30 8 1 8 7
M  V30 9 1 9 7
M  V30 10 1 10 9
M  V30 11 1 11 10
M  V30 12 1 12 11
M  V30 13 2 13 12
M  V30 14 1 14 13
M  V30 15 1 15 14
M  V30 16 2 16 14
M  V30 17 1 17 12
M  V30 18 2 18 10
M  V30 19 1 18 17
M  V30 20 1 19 18
M  V30 21 2 20 9
M  V30 22 1 21 6
M  V30 23 1 21 20
M  V30 24 1 22 21
M  V30 25 2 23 22
M  V30 26 2 24 22
M  V30 27 1 25 22
M  V30 28 2 26 25
M  V30 29 1 27 26
M  V30 30 2 28 27
M  V30 31 1 29 28
M  V30 32 2 30 29
M  V30 33 1 31 30
M  V30 34 2 32 31
M  V30 35 1 33 32
M  V30 36 1 34 25
M  V30 37 1 34 29
M  V30 38 2 34 33
M  V30 39 1 35 1
M  V30 40 1 36 1
M  V30 41 1 37 1
M  V30 42 1 38 4
M  V30 43 1 39 5
M  V30 44 1 40 8
M  V30 45 1 41 11
M  V30 46 1 42 15
M  V30 47 1 43 19
M  V30 48 1 44 19
M  V30 49 1 45 19
M  V30 50 1 46 20
M  V30 51 1 47 26
M  V30 52 1 48 27
M  V30 53 1 49 28
M  V30 54 1 50 30
M  V30 55 1 51 31
M  V30 56 1 52 32
M  V30 57 1 53 33
M  V30 58 1 54 15
M  V30 59 1 55 15
M  V30 60 1 56 17
M  V30 END BOND
M  V30 END CTAB
M  END
>  <b_m_subgroup_collapsed>  (1880) 
0

>  <r_i_docking_score>  (1880) 
-6.5323140427212296

>  <s_m_subgroup_title>  (1880) 
glide-dock_SP_D22_pv

>  <s_m_subgroupid>  (1880) 
glide-dock_SP_D22_pv

>  <Molecule ChEMBL ID>  (1880) 
CHEMBL4469792

>  <Standard Type>  (1880) 
Ki

>  <Standard Value>  (1880) 
10000.0

>  <label>  (1880) 
0

$$$$
CHEMBL5184911
     RDKit          3D

  0  0  0  0  0  0  0  0  0  0999 V3000
M  V30 BEGIN CTAB
M  V30 COUNTS 46 47 0 0 1
M  V30 BEGIN ATOM
M  V30 1 C 10.879563 1.517906 -15.043595 0
M  V30 2 C 9.611158 2.370054 -14.971836 0 CFG=2
M  V30 3 N 9.512873 2.980217 -13.646598 0
M  V30 4 C 8.963782 4.183625 -13.413782 0
M  V30 5 O 8.486499 4.910883 -14.280419 0
M  V30 6 N 8.966989 4.572426 -12.033508 0 CHG=1
M  V30 7 C 8.385986 5.683644 -11.514245 0
M  V30 8 N 7.681317 6.571915 -12.241381 0
M  V30 9 N 8.486022 5.938323 -10.193199 0
M  V30 10 C 9.186536 5.150726 -9.161768 0
M  V30 11 C 10.120088 6.023210 -8.303895 0
M  V30 12 C 9.385649 6.825653 -7.216153 0
M  V30 13 C 10.293730 7.654887 -6.362008 0
M  V30 14 N 10.431507 8.974402 -6.536750 0
M  V30 15 N 11.222759 9.559004 -5.555519 0
M  V30 16 C 11.689884 8.653641 -4.693638 0
M  V30 17 N 12.473916 8.968786 -3.597634 0
M  V30 18 S 11.267456 6.987268 -5.049056 0
M  V30 19 C 8.372917 1.560828 -15.335611 0
M  V30 20 C 7.808552 0.642044 -14.423144 0
M  V30 21 C 6.665759 -0.101202 -14.779058 0
M  V30 22 C 6.086660 0.062867 -16.052948 0
M  V30 23 C 6.648632 0.972239 -16.969679 0
M  V30 24 F 6.090890 1.139546 -18.191893 0
M  V30 25 C 7.788367 1.716185 -16.611176 0
M  V30 26 H 11.000769 1.072364 -16.032022 0
M  V30 27 H 11.752908 2.139023 -14.853756 0
M  V30 28 H 10.873541 0.709202 -14.312121 0
M  V30 29 H 9.726099 3.163704 -15.711723 0
M  V30 30 H 9.851851 2.419981 -12.873809 0
M  V30 31 H 7.565207 6.460537 -13.236777 0
M  V30 32 H 7.142332 7.272977 -11.714835 0
M  V30 33 H 7.901418 6.699958 -9.846810 0
M  V30 34 H 8.450998 4.640579 -8.537811 0
M  V30 35 H 9.783394 4.367819 -9.627829 0
M  V30 36 H 10.865360 5.372500 -7.844106 0
M  V30 37 H 10.679901 6.705973 -8.945407 0
M  V30 38 H 8.648213 7.484710 -7.678573 0
M  V30 39 H 8.817868 6.165619 -6.560995 0
M  V30 40 H 12.550449 9.931828 -3.302495 0
M  V30 41 H 12.598016 8.282634 -2.868605 0
M  V30 42 H 8.255776 0.499723 -13.450195 0
M  V30 43 H 6.242852 -0.809398 -14.081668 0
M  V30 44 H 5.214387 -0.510980 -16.328878 0
M  V30 45 H 8.211475 2.408920 -17.323273 0
M  V30 46 H 9.393601 3.989843 -11.330980 0
M  V30 END ATOM
M  V30 BEGIN BOND
M  V30 1 1 2 1
M  V30 2 1 3 2
M  V30 3 1 4 3
M  V30 4 2 5 4
M  V30 5 1 6 4
M  V30 6 2 7 6
M  V30 7 1 8 7
M  V30 8 1 9 7
M  V30 9 1 10 9
M  V30 10 1 11 10
M  V30 11 1 12 11
M  V30 12 1 13 12
M  V30 13 2 14 13
M  V30 14 1 15 14
M  V30 15 2 16 15
M  V30 16 1 17 16
M  V30 17 1 18 13
M  V30 18 1 18 16
M  V30 19 1 19 2
M  V30 20 2 20 19
M  V30 21 1 21 20
M  V30 22 2 22 21
M  V30 23 1 23 22
M  V30 24 1 24 23
M  V30 25 1 25 19
M  V30 26 2 25 23
M  V30 27 1 26 1
M  V30 28 1 27 1
M  V30 29 1 28 1
M  V30 30 1 2 29 CFG=3
M  V30 31 1 30 3
M  V30 32 1 31 8
M  V30 33 1 32 8
M  V30 34 1 33 9
M  V30 35 1 34 10
M  V30 36 1 35 10
M  V30 37 1 36 11
M  V30 38 1 37 11
M  V30 39 1 38 12
M  V30 40 1 39 12
M  V30 41 1 40 17
M  V30 42 1 41 17
M  V30 43 1 42 20
M  V30 44 1 43 21
M  V30 45 1 44 22
M  V30 46 1 45 25
M  V30 47 1 46 6
M  V30 END BOND
M  V30 END CTAB
M  END
>  <b_m_subgroup_collapsed>  (1881) 
0

>  <r_i_docking_score>  (1881) 
-6.5280434845912199

>  <s_m_subgroup_title>  (1881) 
glide-dock_SP_D22_pv

>  <s_m_subgroupid>  (1881) 
glide-dock_SP_D22_pv

>  <Molecule ChEMBL ID>  (1881) 
CHEMBL5184911

>  <Standard Type>  (1881) 
Ki

>  <Standard Value>  (1881) 
10000.0

>  <label>  (1881) 
0

$$$$
CHEMBL3941529
     RDKit          3D

  0  0  0  0  0  0  0  0  0  0999 V3000
M  V30 BEGIN CTAB
M  V30 COUNTS 72 75 0 0 1
M  V30 BEGIN ATOM
M  V30 1 C 3.287481 -1.632612 -17.608149 0
M  V30 2 C 4.827312 -1.642234 -17.666073 0 CFG=2
M  V30 3 N 5.453342 -1.608127 -16.338776 0
M  V30 4 C 5.096712 -0.894410 -15.259495 0
M  V30 5 O 4.064683 -0.227892 -15.180975 0
M  V30 6 C 6.087520 -0.920702 -14.090798 0
M  V30 7 C 5.860181 0.207805 -13.066822 0
M  V30 8 C 6.165037 1.610086 -13.622791 0
M  V30 9 C 5.678599 2.729337 -12.685481 0
M  V30 10 C 6.036595 4.154950 -13.143830 0
M  V30 11 N 7.227621 4.689732 -12.437399 0 CHG=1
M  V30 12 C 7.209790 6.170963 -12.304961 0
M  V30 13 C 8.384757 6.665947 -11.448331 0
M  V30 14 N 9.625710 6.109129 -11.955120 0
M  V30 15 C 10.805636 6.862692 -12.010577 0
M  V30 16 C 11.506667 6.847575 -13.237358 0
M  V30 17 C 12.720157 7.530856 -13.390180 0
M  V30 18 C 13.285744 8.172557 -12.278402 0
M  V30 19 C 12.602136 8.172398 -11.047153 0
M  V30 20 C 11.348954 7.549140 -10.886003 0
M  V30 21 C 10.745168 7.608004 -9.535885 0
M  V30 22 C 10.646164 8.846324 -8.861430 0
M  V30 23 C 10.133209 8.919729 -7.552126 0
M  V30 24 C 9.684590 7.757705 -6.902881 0
M  V30 25 C 9.772530 6.520720 -7.560723 0
M  V30 26 C 10.316365 6.446162 -8.855820 0
M  V30 27 C 9.702971 4.672319 -12.163259 0
M  V30 28 C 8.513619 4.202431 -13.004576 0
M  V30 29 C 5.411402 -0.623032 -18.653038 0
M  V30 30 C 6.657366 0.006528 -18.406374 0
M  V30 31 C 7.206957 0.904540 -19.342115 0
M  V30 32 C 6.522617 1.180854 -20.540651 0
M  V30 33 C 5.284454 0.563228 -20.797611 0
M  V30 34 C 4.734735 -0.333591 -19.861654 0
M  V30 35 H 2.845868 -2.048341 -18.512825 0
M  V30 36 H 2.936683 -2.227665 -16.769115 0
M  V30 37 H 2.892468 -0.628157 -17.474689 0
M  V30 38 H 5.107600 -2.618293 -18.063711 0
M  V30 39 H 6.307607 -2.147239 -16.248388 0
M  V30 40 H 7.103469 -0.856629 -14.482395 0
M  V30 41 H 6.014122 -1.889782 -13.600162 0
M  V30 42 H 6.485155 0.020480 -12.194903 0
M  V30 43 H 4.832280 0.173515 -12.705750 0
M  V30 44 H 5.686211 1.743258 -14.587857 0
M  V30 45 H 7.228480 1.674400 -13.839744 0
M  V30 46 H 6.027262 2.567507 -11.666131 0
M  V30 47 H 4.591146 2.653192 -12.637761 0
M  V30 48 H 5.184726 4.791406 -12.905801 0
M  V30 49 H 6.155704 4.215465 -14.226754 0
M  V30 50 H 6.265790 6.490996 -11.863562 0
M  V30 51 H 7.285008 6.630428 -13.289118 0
M  V30 52 H 8.231743 6.350071 -10.416935 0
M  V30 53 H 8.419977 7.756480 -11.450585 0
M  V30 54 H 11.101848 6.314742 -14.085552 0
M  V30 55 H 13.240803 7.518334 -14.335924 0
M  V30 56 H 14.245934 8.658057 -12.362042 0
M  V30 57 H 13.068662 8.640500 -10.194982 0
M  V30 58 H 10.981288 9.751774 -9.347445 0
M  V30 59 H 10.085038 9.868486 -7.043850 0
M  V30 60 H 9.278204 7.810627 -5.903790 0
M  V30 61 H 9.432216 5.624819 -7.065680 0
M  V30 62 H 10.404681 5.481326 -9.331090 0
M  V30 63 H 10.637633 4.386158 -12.648058 0
M  V30 64 H 9.688643 4.177492 -11.191321 0
M  V30 65 H 8.546053 3.118876 -13.046588 0
M  V30 66 H 8.616814 4.564284 -14.029137 0
M  V30 67 H 7.214858 -0.200903 -17.505287 0
M  V30 68 H 8.161548 1.370856 -19.145216 0
M  V30 69 H 6.945584 1.861416 -21.264639 0
M  V30 70 H 4.757500 0.765670 -21.719913 0
M  V30 71 H 3.791022 -0.803259 -20.096884 0
M  V30 72 H 7.173592 4.351294 -11.486714 0
M  V30 END ATOM
M  V30 BEGIN BOND
M  V30 1 1 2 1
M  V30 2 1 3 2
M  V30 3 1 4 3
M  V30 4 2 5 4
M  V30 5 1 6 4
M  V30 6 1 7 6
M  V30 7 1 8 7
M  V30 8 1 9 8
M  V30 9 1 10 9
M  V30 10 1 11 10
M  V30 11 1 12 11
M  V30 12 1 13 12
M  V30 13 1 14 13
M  V30 14 1 15 14
M  V30 15 2 16 15
M  V30 16 1 17 16
M  V30 17 2 18 17
M  V30 18 1 19 18
M  V30 19 1 20 15
M  V30 20 2 20 19
M  V30 21 1 21 20
M  V30 22 2 22 21
M  V30 23 1 23 22
M  V30 24 2 24 23
M  V30 25 1 25 24
M  V30 26 1 26 21
M  V30 27 2 26 25
M  V30 28 1 27 14
M  V30 29 1 28 11
M  V30 30 1 28 27
M  V30 31 1 29 2
M  V30 32 2 30 29
M  V30 33 1 31 30
M  V30 34 2 32 31
M  V30 35 1 33 32
M  V30 36 1 34 29
M  V30 37 2 34 33
M  V30 38 1 35 1
M  V30 39 1 36 1
M  V30 40 1 37 1
M  V30 41 1 2 38 CFG=3
M  V30 42 1 39 3
M  V30 43 1 40 6
M  V30 44 1 41 6
M  V30 45 1 42 7
M  V30 46 1 43 7
M  V30 47 1 44 8
M  V30 48 1 45 8
M  V30 49 1 46 9
M  V30 50 1 47 9
M  V30 51 1 48 10
M  V30 52 1 49 10
M  V30 53 1 50 12
M  V30 54 1 51 12
M  V30 55 1 52 13
M  V30 56 1 53 13
M  V30 57 1 54 16
M  V30 58 1 55 17
M  V30 59 1 56 18
M  V30 60 1 57 19
M  V30 61 1 58 22
M  V30 62 1 59 23
M  V30 63 1 60 24
M  V30 64 1 61 25
M  V30 65 1 62 26
M  V30 66 1 63 27
M  V30 67 1 64 27
M  V30 68 1 65 28
M  V30 69 1 66 28
M  V30 70 1 67 30
M  V30 71 1 68 31
M  V30 72 1 69 32
M  V30 73 1 70 33
M  V30 74 1 71 34
M  V30 75 1 72 11
M  V30 END BOND
M  V30 END CTAB
M  END
>  <b_m_subgroup_collapsed>  (1882) 
0

>  <r_i_docking_score>  (1882) 
-6.5271360584167004

>  <s_m_subgroup_title>  (1882) 
glide-dock_SP_D22_pv

>  <s_m_subgroupid>  (1882) 
glide-dock_SP_D22_pv

>  <Molecule ChEMBL ID>  (1882) 
CHEMBL3941529

>  <Standard Type>  (1882) 
Ki

>  <Standard Value>  (1882) 
53.0

>  <label>  (1882) 
1

$$$$
CHEMBL242599
     RDKit          3D

  0  0  0  0  0  0  0  0  0  0999 V3000
M  V30 BEGIN CTAB
M  V30 COUNTS 67 71 0 0 1
M  V30 BEGIN ATOM
M  V30 1 C 3.680082 -1.303447 -18.027390 0
M  V30 2 O 3.786230 -1.339620 -16.611010 0
M  V30 3 C 4.923746 -0.817589 -16.036491 0
M  V30 4 C 5.081836 -0.994129 -14.647015 0
M  V30 5 C 6.215598 -0.492168 -13.979180 0
M  V30 6 C 7.201377 0.206189 -14.698199 0
M  V30 7 C 7.056922 0.397015 -16.088348 0
M  V30 8 C 8.045378 1.155640 -16.842913 0
M  V30 9 N 7.686129 2.171348 -17.634699 0
M  V30 10 N 8.851246 2.703969 -18.127447 0
M  V30 11 C 9.824138 1.971603 -17.593363 0
M  V30 12 S 11.520333 2.368783 -17.831846 0
M  V30 13 C 12.014832 2.705428 -16.113003 0
M  V30 14 C 11.095998 3.688806 -15.360200 0
M  V30 15 C 11.389272 3.698410 -13.846965 0
M  V30 16 N 10.486016 4.562564 -13.036359 0 CFG=2 CHG=1
M  V30 17 C 9.103462 4.018358 -12.908103 0
M  V30 18 C 8.216997 4.645024 -11.804195 0
M  V30 19 C 8.964848 5.380335 -10.697952 0
M  V30 20 C 8.854242 4.985844 -9.349849 0
M  V30 21 C 9.428613 5.773486 -8.332644 0
M  V30 22 C 10.131537 6.958540 -8.641327 0
M  V30 23 C 10.683062 7.795902 -7.560263 0
M  V30 24 C 10.655054 7.573224 -6.150623 0
M  V30 25 C 11.285984 8.666606 -5.625925 0
M  V30 26 C 11.603250 9.091061 -4.232522 0
M  V30 27 O 11.686871 9.497664 -6.618693 0
M  V30 28 N 11.299709 8.938355 -7.840062 0
M  V30 29 C 10.276658 7.325457 -10.001936 0
M  V30 30 C 9.694469 6.543293 -11.018587 0
M  V30 31 C 9.789745 6.958337 -12.472759 0
M  V30 32 C 10.657804 6.009603 -13.325208 0
M  V30 33 N 9.381335 0.956441 -16.816618 0
M  V30 34 C 10.130676 -0.077430 -16.119509 0
M  V30 35 C 5.922164 -0.113869 -16.753588 0
M  V30 36 H 2.785005 -1.837205 -18.343166 0
M  V30 37 H 4.529436 -1.788659 -18.506441 0
M  V30 38 H 3.593518 -0.282230 -18.395491 0
M  V30 39 H 4.321487 -1.525877 -14.094768 0
M  V30 40 H 6.331577 -0.644203 -12.917186 0
M  V30 41 H 8.063072 0.599773 -14.176631 0
M  V30 42 H 12.071576 1.761284 -15.582831 0
M  V30 43 H 13.028475 3.101686 -16.137794 0
M  V30 44 H 11.223543 4.674389 -15.802038 0
M  V30 45 H 10.053151 3.421838 -15.502868 0
M  V30 46 H 11.298536 2.677398 -13.472508 0
M  V30 47 H 12.424335 3.995530 -13.671190 0
M  V30 48 H 8.579258 4.035563 -13.865459 0
M  V30 49 H 9.233804 2.971593 -12.650654 0
M  V30 50 H 7.509491 5.342561 -12.253212 0
M  V30 51 H 7.583281 3.872200 -11.368687 0
M  V30 52 H 8.269430 4.119117 -9.078276 0
M  V30 53 H 9.291662 5.474068 -7.305279 0
M  V30 54 H 10.225018 6.745964 -5.605228 0
M  V30 55 H 11.286664 8.338884 -3.511173 0
M  V30 56 H 11.097879 10.027629 -3.989317 0
M  V30 57 H 12.676708 9.244711 -4.110384 0
M  V30 58 H 10.807237 8.230289 -10.264874 0
M  V30 59 H 8.782127 7.019238 -12.879672 0
M  V30 60 H 10.181976 7.973888 -12.536342 0
M  V30 61 H 11.707784 6.253844 -13.149115 0
M  V30 62 H 10.482803 6.172282 -14.384518 0
M  V30 63 H 11.104881 -0.218956 -16.590185 0
M  V30 64 H 9.593833 -1.026833 -16.168690 0
M  V30 65 H 10.272747 0.207206 -15.074430 0
M  V30 66 H 5.835979 0.053133 -17.816538 0
M  V30 67 H 10.830696 4.474490 -12.090302 0
M  V30 END ATOM
M  V30 BEGIN BOND
M  V30 1 1 2 1
M  V30 2 1 3 2
M  V30 3 1 4 3
M  V30 4 2 5 4
M  V30 5 1 6 5
M  V30 6 2 7 6
M  V30 7 1 8 7
M  V30 8 2 9 8
M  V30 9 1 10 9
M  V30 10 2 11 10
M  V30 11 1 12 11
M  V30 12 1 13 12
M  V30 13 1 14 13
M  V30 14 1 15 14
M  V30 15 1 16 15
M  V30 16 1 17 16
M  V30 17 1 18 17
M  V30 18 1 19 18
M  V30 19 1 20 19
M  V30 20 2 21 20
M  V30 21 1 22 21
M  V30 22 1 23 22
M  V30 23 1 24 23
M  V30 24 2 25 24
M  V30 25 1 26 25
M  V30 26 1 27 25
M  V30 27 2 28 23
M  V30 28 1 28 27
M  V30 29 2 29 22
M  V30 30 2 30 19
M  V30 31 1 30 29
M  V30 32 1 31 30
M  V30 33 1 32 16
M  V30 34 1 32 31
M  V30 35 1 33 8
M  V30 36 1 33 11
M  V30 37 1 34 33
M  V30 38 2 35 3
M  V30 39 1 35 7
M  V30 40 1 36 1
M  V30 41 1 37 1
M  V30 42 1 38 1
M  V30 43 1 39 4
M  V30 44 1 40 5
M  V30 45 1 41 6
M  V30 46 1 42 13
M  V30 47 1 43 13
M  V30 48 1 44 14
M  V30 49 1 45 14
M  V30 50 1 46 15
M  V30 51 1 47 15
M  V30 52 1 48 17
M  V30 53 1 49 17
M  V30 54 1 50 18
M  V30 55 1 51 18
M  V30 56 1 52 20
M  V30 57 1 53 21
M  V30 58 1 54 24
M  V30 59 1 55 26
M  V30 60 1 56 26
M  V30 61 1 57 26
M  V30 62 1 58 29
M  V30 63 1 59 31
M  V30 64 1 60 31
M  V30 65 1 61 32
M  V30 66 1 62 32
M  V30 67 1 63 34
M  V30 68 1 64 34
M  V30 69 1 65 34
M  V30 70 1 66 35
M  V30 71 1 16 67 CFG=1
M  V30 END BOND
M  V30 END CTAB
M  END
>  <b_m_subgroup_collapsed>  (1883) 
0

>  <r_i_docking_score>  (1883) 
-6.5270374330522998

>  <s_m_subgroup_title>  (1883) 
glide-dock_SP_D22_pv

>  <s_m_subgroupid>  (1883) 
glide-dock_SP_D22_pv

>  <Molecule ChEMBL ID>  (1883) 
CHEMBL242599

>  <Standard Type>  (1883) 
Ki

>  <Standard Value>  (1883) 
7.943

>  <label>  (1883) 
1

$$$$
CHEMBL3763200
     RDKit          3D

  0  0  0  0  0  0  0  0  0  0999 V3000
M  V30 BEGIN CTAB
M  V30 COUNTS 56 59 0 0 1
M  V30 BEGIN ATOM
M  V30 1 C 8.629849 5.771745 -8.496192 0
M  V30 2 N 9.549564 6.465833 -9.378726 0
M  V30 3 C 9.589983 6.434529 -10.725926 0
M  V30 4 S 8.461258 5.470247 -11.683726 0
M  V30 5 C 9.616327 4.325017 -12.483276 0
M  V30 6 C 10.012277 4.796009 -13.892049 0
M  V30 7 C 11.104712 3.961571 -14.592500 0
M  V30 8 N 10.634516 2.853274 -15.431397 0
M  V30 9 C 10.237209 1.682685 -14.651469 0
M  V30 10 C 9.819506 0.500013 -15.542511 0
M  V30 11 O 10.868211 0.186577 -16.452957 0
M  V30 12 C 11.228435 1.276792 -17.302158 0 CFG=2
M  V30 13 C 12.287670 0.850371 -18.320408 0
M  V30 14 C 12.444152 -0.516524 -18.647171 0
M  V30 15 C 13.438404 -0.932316 -19.554249 0
M  V30 16 C 14.274268 0.016457 -20.175865 0
M  V30 17 C 15.376273 -0.432822 -21.120962 0
M  V30 18 F 15.050728 -1.567990 -21.739706 0
M  V30 19 F 15.616639 0.494435 -22.048971 0
M  V30 20 F 16.485928 -0.627641 -20.413427 0
M  V30 21 C 14.098208 1.384884 -19.883963 0
M  V30 22 C 13.108927 1.799928 -18.971388 0
M  V30 23 C 11.664315 2.453229 -16.391209 0
M  V30 24 N 10.550647 7.198677 -11.245402 0
M  V30 25 N 11.181678 7.775591 -10.164599 0
M  V30 26 C 10.555455 7.315423 -9.073332 0
M  V30 27 C 10.937292 7.726746 -7.718715 0
M  V30 28 C 10.958118 6.821843 -6.636443 0
M  V30 29 C 11.285216 7.297915 -5.352981 0
M  V30 30 N 11.599667 8.584983 -5.098813 0
M  V30 31 C 11.603654 9.445379 -6.138407 0
M  V30 32 C 11.282207 9.066005 -7.455820 0
M  V30 33 H 7.686067 5.631682 -9.004717 0
M  V30 34 H 9.034254 4.796075 -8.229226 0
M  V30 35 H 8.435863 6.358959 -7.598777 0
M  V30 36 H 10.485845 4.175682 -11.848392 0
M  V30 37 H 9.103692 3.371675 -12.531805 0
M  V30 38 H 9.130136 4.871834 -14.528191 0
M  V30 39 H 10.394123 5.812508 -13.799771 0
M  V30 40 H 11.642227 4.662091 -15.232416 0
M  V30 41 H 11.844913 3.612219 -13.870970 0
M  V30 42 H 11.057561 1.375760 -14.002283 0
M  V30 43 H 9.396063 1.922913 -14.007528 0
M  V30 44 H 9.608415 -0.375936 -14.928440 0
M  V30 45 H 8.907278 0.735514 -16.091055 0
M  V30 46 H 10.348810 1.575442 -17.875336 0
M  V30 47 H 11.814925 -1.261508 -18.184097 0
M  V30 48 H 13.568612 -1.984070 -19.762493 0
M  V30 49 H 14.727889 2.123638 -20.355919 0
M  V30 50 H 12.999137 2.855407 -18.777149 0
M  V30 51 H 11.916717 3.318327 -17.003540 0
M  V30 52 H 12.569472 2.173418 -15.856802 0
M  V30 53 H 10.726452 5.778465 -6.778458 0
M  V30 54 H 11.298656 6.622880 -4.507874 0
M  V30 55 H 11.864486 10.469069 -5.913043 0
M  V30 56 H 11.286088 9.786841 -8.257580 0
M  V30 END ATOM
M  V30 BEGIN BOND
M  V30 1 1 2 1
M  V30 2 1 3 2
M  V30 3 1 4 3
M  V30 4 1 5 4
M  V30 5 1 6 5
M  V30 6 1 7 6
M  V30 7 1 8 7
M  V30 8 1 9 8
M  V30 9 1 10 9
M  V30 10 1 11 10
M  V30 11 1 12 11
M  V30 12 1 13 12
M  V30 13 1 14 13
M  V30 14 2 15 14
M  V30 15 1 16 15
M  V30 16 1 17 16
M  V30 17 1 18 17
M  V30 18 1 19 17
M  V30 19 1 20 17
M  V30 20 2 21 16
M  V30 21 2 22 13
M  V30 22 1 22 21
M  V30 23 1 23 8
M  V30 24 1 23 12
M  V30 25 2 24 3
M  V30 26 1 25 24
M  V30 27 1 26 2
M  V30 28 2 26 25
M  V30 29 1 27 26
M  V30 30 1 28 27
M  V30 31 2 29 28
M  V30 32 1 30 29
M  V30 33 2 31 30
M  V30 34 2 32 27
M  V30 35 1 32 31
M  V30 36 1 33 1
M  V30 37 1 34 1
M  V30 38 1 35 1
M  V30 39 1 36 5
M  V30 40 1 37 5
M  V30 41 1 38 6
M  V30 42 1 39 6
M  V30 43 1 40 7
M  V30 44 1 41 7
M  V30 45 1 42 9
M  V30 46 1 43 9
M  V30 47 1 44 10
M  V30 48 1 45 10
M  V30 49 1 12 46 CFG=3
M  V30 50 1 47 14
M  V30 51 1 48 15
M  V30 52 1 49 21
M  V30 53 1 50 22
M  V30 54 1 51 23
M  V30 55 1 52 23
M  V30 56 1 53 28
M  V30 57 1 54 29
M  V30 58 1 55 31
M  V30 59 1 56 32
M  V30 END BOND
M  V30 END CTAB
M  END
>  <b_m_subgroup_collapsed>  (1884) 
0

>  <r_i_docking_score>  (1884) 
-6.5265070231467197

>  <s_m_subgroup_title>  (1884) 
glide-dock_SP_D22_pv

>  <s_m_subgroupid>  (1884) 
glide-dock_SP_D22_pv

>  <Molecule ChEMBL ID>  (1884) 
CHEMBL3763200

>  <Standard Type>  (1884) 
Ki

>  <Standard Value>  (1884) 
11749.0

>  <label>  (1884) 
0

$$$$
CHEMBL2312934
     RDKit          3D

  0  0  0  0  0  0  0  0  0  0999 V3000
M  V30 BEGIN CTAB
M  V30 COUNTS 55 58 0 0 1
M  V30 BEGIN ATOM
M  V30 1 O 9.611781 9.372151 -8.765375 0
M  V30 2 S 10.196296 8.139447 -8.225036 0
M  V30 3 O 11.295950 7.467717 -8.931869 0
M  V30 4 N 8.886338 7.027602 -8.009089 0
M  V30 5 C 9.055713 5.582015 -8.085769 0
M  V30 6 C 9.366673 5.109236 -9.509665 0
M  V30 7 C 8.147796 4.934421 -10.428211 0
M  V30 8 N 8.502943 4.876177 -11.848682 0
M  V30 9 C 9.646788 4.009408 -12.132756 0
M  V30 10 C 10.049853 4.170398 -13.599269 0
M  V30 11 N 8.953583 3.756443 -14.458228 0
M  V30 12 C 9.059276 2.484320 -15.044701 0
M  V30 13 C 8.163487 1.453970 -14.679985 0
M  V30 14 C 8.276759 0.176267 -15.255318 0
M  V30 15 C 9.285165 -0.079251 -16.201189 0
M  V30 16 C 10.184312 0.932189 -16.574980 0
M  V30 17 Cl 11.401790 0.572774 -17.748327 0
M  V30 18 C 10.074572 2.218556 -16.004406 0
M  V30 19 Cl 11.164293 3.463279 -16.526991 0
M  V30 20 C 7.659755 4.350707 -14.125069 0
M  V30 21 C 7.359275 4.369767 -12.610401 0
M  V30 22 C 10.780595 8.449096 -6.559677 0
M  V30 23 C 10.826437 9.764230 -6.064366 0
M  V30 24 C 11.276940 10.007584 -4.763545 0
M  V30 25 C 11.689439 8.939356 -3.957701 0
M  V30 26 C 12.098837 9.189235 -2.639418 0
M  V30 27 C 12.485825 8.100938 -1.846936 0
M  V30 28 C 12.454874 6.812329 -2.410484 0
M  V30 29 N 12.073649 6.572365 -3.677118 0
M  V30 30 C 11.685828 7.607046 -4.447872 0
M  V30 31 C 11.228154 7.379096 -5.759472 0
M  V30 32 H 7.947583 7.375197 -8.246331 0
M  V30 33 H 9.888055 5.315618 -7.446974 0
M  V30 34 H 8.164339 5.090424 -7.695685 0
M  V30 35 H 10.073523 5.778078 -9.990247 0
M  V30 36 H 9.875846 4.148702 -9.423348 0
M  V30 37 H 7.632154 4.023433 -10.134356 0
M  V30 38 H 7.456688 5.768699 -10.290174 0
M  V30 39 H 10.486012 4.326112 -11.541699 0
M  V30 40 H 9.458032 2.972366 -11.862749 0
M  V30 41 H 10.301132 5.209790 -13.815089 0
M  V30 42 H 10.948166 3.582319 -13.787805 0
M  V30 43 H 7.391553 1.630283 -13.945917 0
M  V30 44 H 7.590930 -0.610079 -14.972899 0
M  V30 45 H 9.367747 -1.054598 -16.651634 0
M  V30 46 H 7.686519 5.372214 -14.490676 0
M  V30 47 H 6.848176 3.843431 -14.646563 0
M  V30 48 H 7.089556 3.372537 -12.269831 0
M  V30 49 H 6.490812 5.003165 -12.422274 0
M  V30 50 H 10.486797 10.598036 -6.646931 0
M  V30 51 H 11.283653 11.011425 -4.378323 0
M  V30 52 H 12.111325 10.192556 -2.241256 0
M  V30 53 H 12.814794 8.251429 -0.831180 0
M  V30 54 H 12.753860 5.950413 -1.831962 0
M  V30 55 H 11.223878 6.373032 -6.144343 0
M  V30 END ATOM
M  V30 BEGIN BOND
M  V30 1 2 2 1
M  V30 2 2 3 2
M  V30 3 1 4 2
M  V30 4 1 5 4
M  V30 5 1 6 5
M  V30 6 1 7 6
M  V30 7 1 8 7
M  V30 8 1 9 8
M  V30 9 1 10 9
M  V30 10 1 11 10
M  V30 11 1 12 11
M  V30 12 2 13 12
M  V30 13 1 14 13
M  V30 14 2 15 14
M  V30 15 1 16 15
M  V30 16 1 17 16
M  V30 17 1 18 12
M  V30 18 2 18 16
M  V30 19 1 19 18
M  V30 20 1 20 11
M  V30 21 1 21 8
M  V30 22 1 21 20
M  V30 23 1 22 2
M  V30 24 1 23 22
M  V30 25 2 24 23
M  V30 26 1 25 24
M  V30 27 2 26 25
M  V30 28 1 27 26
M  V30 29 2 28 27
M  V30 30 1 29 28
M  V30 31 1 30 25
M  V30 32 2 30 29
M  V30 33 2 31 22
M  V30 34 1 31 30
M  V30 35 1 32 4
M  V30 36 1 33 5
M  V30 37 1 34 5
M  V30 38 1 35 6
M  V30 39 1 36 6
M  V30 40 1 37 7
M  V30 41 1 38 7
M  V30 42 1 39 9
M  V30 43 1 40 9
M  V30 44 1 41 10
M  V30 45 1 42 10
M  V30 46 1 43 13
M  V30 47 1 44 14
M  V30 48 1 45 15
M  V30 49 1 46 20
M  V30 50 1 47 20
M  V30 51 1 48 21
M  V30 52 1 49 21
M  V30 53 1 50 23
M  V30 54 1 51 24
M  V30 55 1 52 26
M  V30 56 1 53 27
M  V30 57 1 54 28
M  V30 58 1 55 31
M  V30 END BOND
M  V30 END CTAB
M  END
>  <b_m_subgroup_collapsed>  (1885) 
0

>  <r_i_docking_score>  (1885) 
-6.52543881173162

>  <s_m_subgroup_title>  (1885) 
glide-dock_SP_D22_pv

>  <s_m_subgroupid>  (1885) 
glide-dock_SP_D22_pv

>  <Molecule ChEMBL ID>  (1885) 
CHEMBL2312934

>  <Standard Type>  (1885) 
Ki

>  <Standard Value>  (1885) 
16.0

>  <label>  (1885) 
1

$$$$
CHEMBL5283457
     RDKit          3D

  0  0  0  0  0  0  0  0  0  0999 V3000
M  V30 BEGIN CTAB
M  V30 COUNTS 43 45 0 0 1
M  V30 BEGIN ATOM
M  V30 1 C 8.886015 6.314953 -8.962370 0
M  V30 2 N 8.886023 7.041887 -10.253572 0 CHG=1
M  V30 3 C 9.715055 8.265765 -10.199368 0
M  V30 4 C 9.211165 6.174990 -11.413678 0
M  V30 5 C 8.002594 5.354829 -11.926659 0
M  V30 6 C 8.322349 4.302045 -12.999670 0
M  V30 7 C 9.637071 4.187234 -13.499132 0
M  V30 8 C 9.997108 3.120587 -14.328403 0
M  V30 9 O 11.286023 3.033581 -14.770808 0
M  V30 10 C 9.052953 2.139538 -14.678173 0
M  V30 11 O 9.527866 1.043630 -15.343176 0
M  V30 12 C 7.688844 2.268230 -14.286138 0
M  V30 13 C 7.337507 3.372324 -13.446865 0
M  V30 14 C 5.888387 3.476718 -12.970689 0
M  V30 15 C 5.265833 2.104147 -12.679112 0
M  V30 16 C 5.493649 1.124405 -13.807824 0
M  V30 17 C 4.502223 0.153504 -14.068296 0
M  V30 18 C 4.627965 -0.710153 -15.167530 0
M  V30 19 C 5.734686 -0.578147 -16.020231 0
M  V30 20 C 6.719999 0.394177 -15.758021 0
M  V30 21 C 6.646596 1.247663 -14.626094 0
M  V30 22 H 9.879909 5.938217 -8.717172 0
M  V30 23 H 8.559876 6.972322 -8.154955 0
M  V30 24 H 8.195024 5.472304 -8.983132 0
M  V30 25 H 10.771315 8.021694 -10.078184 0
M  V30 26 H 9.597910 8.850412 -11.112575 0
M  V30 27 H 9.410400 8.900040 -9.365742 0
M  V30 28 H 10.032793 5.519177 -11.121433 0
M  V30 29 H 9.575606 6.792076 -12.236635 0
M  V30 30 H 7.236275 6.031025 -12.308653 0
M  V30 31 H 7.564228 4.827684 -11.079520 0
M  V30 32 H 10.415731 4.883290 -13.231146 0
M  V30 33 H 11.367646 2.544401 -15.575231 0
M  V30 34 H 10.421554 0.845535 -15.111124 0
M  V30 35 H 5.764039 4.104340 -12.090972 0
M  V30 36 H 5.325495 3.962868 -13.768640 0
M  V30 37 H 4.195900 2.215813 -12.510259 0
M  V30 38 H 5.686023 1.674793 -11.772445 0
M  V30 39 H 3.621707 0.086751 -13.446866 0
M  V30 40 H 3.869003 -1.452366 -15.372722 0
M  V30 41 H 5.830427 -1.224355 -16.880560 0
M  V30 42 H 7.531224 0.468583 -16.463079 0
M  V30 43 H 7.916078 7.372323 -10.359310 0
M  V30 END ATOM
M  V30 BEGIN BOND
M  V30 1 1 2 1
M  V30 2 1 3 2
M  V30 3 1 4 2
M  V30 4 1 5 4
M  V30 5 1 6 5
M  V30 6 1 7 6
M  V30 7 2 8 7
M  V30 8 1 9 8
M  V30 9 1 10 8
M  V30 10 1 11 10
M  V30 11 2 12 10
M  V30 12 2 13 6
M  V30 13 1 13 12
M  V30 14 1 14 13
M  V30 15 1 15 14
M  V30 16 1 16 15
M  V30 17 2 17 16
M  V30 18 1 18 17
M  V30 19 2 19 18
M  V30 20 1 20 19
M  V30 21 1 21 12
M  V30 22 1 21 16
M  V30 23 2 21 20
M  V30 24 1 22 1
M  V30 25 1 23 1
M  V30 26 1 24 1
M  V30 27 1 25 3
M  V30 28 1 26 3
M  V30 29 1 27 3
M  V30 30 1 28 4
M  V30 31 1 29 4
M  V30 32 1 30 5
M  V30 33 1 31 5
M  V30 34 1 32 7
M  V30 35 1 33 9
M  V30 36 1 34 11
M  V30 37 1 35 14
M  V30 38 1 36 14
M  V30 39 1 37 15
M  V30 40 1 38 15
M  V30 41 1 39 17
M  V30 42 1 40 18
M  V30 43 1 41 19
M  V30 44 1 42 20
M  V30 45 1 43 2
M  V30 END BOND
M  V30 END CTAB
M  END
>  <b_m_subgroup_collapsed>  (1886) 
0

>  <r_i_docking_score>  (1886) 
-6.52335537113622

>  <s_m_subgroup_title>  (1886) 
glide-dock_SP_D22_pv

>  <s_m_subgroupid>  (1886) 
glide-dock_SP_D22_pv

>  <Molecule ChEMBL ID>  (1886) 
CHEMBL5283457

>  <Standard Type>  (1886) 
Ki

>  <Standard Value>  (1886) 
38.9

>  <label>  (1886) 
1

$$$$
CHEMBL611973
     RDKit          3D

  0  0  0  0  0  0  0  0  0  0999 V3000
M  V30 BEGIN CTAB
M  V30 COUNTS 53 57 0 0 1
M  V30 BEGIN ATOM
M  V30 1 C 9.643117 6.568619 -7.232220 0
M  V30 2 C 9.559654 7.264295 -8.596307 0
M  V30 3 C 9.253293 6.280632 -9.742600 0
M  V30 4 N 8.885919 6.941809 -11.030914 0 CFG=1 CHG=1
M  V30 5 C 9.804401 8.007978 -11.481646 0
M  V30 6 C 11.139493 7.380492 -11.886122 0
M  V30 7 C 11.030208 6.281973 -12.935765 0
M  V30 8 C 12.083419 5.908873 -13.786409 0
M  V30 9 C 11.951963 4.776836 -14.594921 0
M  V30 10 C 10.761342 4.032335 -14.575077 0
M  V30 11 C 9.625004 4.384886 -13.797757 0
M  V30 12 C 9.818557 5.532565 -12.972555 0
M  V30 13 C 8.588898 6.024627 -12.172087 0 CFG=1
M  V30 14 C 7.571402 4.926436 -11.807220 0
M  V30 15 C 7.313692 3.928863 -12.912797 0
M  V30 16 C 6.086125 3.222852 -12.893863 0
M  V30 17 C 5.876950 2.136727 -13.763519 0
M  V30 18 C 6.892709 1.829927 -14.677374 0
M  V30 19 C 8.075747 2.550680 -14.739706 0
M  V30 20 C 8.344394 3.621620 -13.842137 0
M  V30 21 O 8.890730 2.070960 -15.730579 0
M  V30 22 C 8.229061 1.018406 -16.450754 0
M  V30 23 C 7.960735 1.541433 -17.869843 0
M  V30 24 C 9.166076 -0.202003 -16.472185 0
M  V30 25 C 6.907049 0.736248 -15.690836 0
M  V30 26 H 9.907153 7.277506 -6.447202 0
M  V30 27 H 10.393023 5.776568 -7.232213 0
M  V30 28 H 8.682812 6.127975 -6.961349 0
M  V30 29 H 8.783003 8.029741 -8.547772 0
M  V30 30 H 10.503936 7.777485 -8.776983 0
M  V30 31 H 10.083460 5.590536 -9.888852 0
M  V30 32 H 8.404963 5.683772 -9.410201 0
M  V30 33 H 9.365557 8.525861 -12.334268 0
M  V30 34 H 9.945616 8.772260 -10.719559 0
M  V30 35 H 11.829597 8.140521 -12.246076 0
M  V30 36 H 11.634829 6.973168 -11.005677 0
M  V30 37 H 13.004668 6.470194 -13.797788 0
M  V30 38 H 12.771154 4.467875 -15.229426 0
M  V30 39 H 10.760610 3.167253 -15.211412 0
M  V30 40 H 8.064275 6.649340 -12.896281 0
M  V30 41 H 7.946327 4.312713 -10.989895 0
M  V30 42 H 6.638135 5.374459 -11.460995 0
M  V30 43 H 5.329505 3.474111 -12.161743 0
M  V30 44 H 4.960574 1.565453 -13.741348 0
M  V30 45 H 7.434721 0.801079 -18.473341 0
M  V30 46 H 8.891600 1.788545 -18.380825 0
M  V30 47 H 7.352283 2.443049 -17.835402 0
M  V30 48 H 8.737890 -1.026906 -17.043968 0
M  V30 49 H 9.367524 -0.564065 -15.463842 0
M  V30 50 H 10.125487 0.048754 -16.926556 0
M  V30 51 H 6.920050 -0.226567 -15.182630 0
M  V30 52 H 6.032927 0.777467 -16.337082 0
M  V30 53 H 7.985390 7.378743 -10.814107 0
M  V30 END ATOM
M  V30 BEGIN BOND
M  V30 1 1 2 1
M  V30 2 1 3 2
M  V30 3 1 4 3
M  V30 4 1 5 4
M  V30 5 1 6 5
M  V30 6 1 7 6
M  V30 7 1 8 7
M  V30 8 2 9 8
M  V30 9 1 10 9
M  V30 10 2 11 10
M  V30 11 2 12 7
M  V30 12 1 12 11
M  V30 13 1 13 4
M  V30 14 1 13 12
M  V30 15 1 14 13
M  V30 16 1 15 14
M  V30 17 1 16 15
M  V30 18 2 17 16
M  V30 19 1 18 17
M  V30 20 2 19 18
M  V30 21 1 20 11
M  V30 22 2 20 15
M  V30 23 1 20 19
M  V30 24 1 21 19
M  V30 25 1 22 21
M  V30 26 1 23 22
M  V30 27 1 24 22
M  V30 28 1 25 18
M  V30 29 1 25 22
M  V30 30 1 26 1
M  V30 31 1 27 1
M  V30 32 1 28 1
M  V30 33 1 29 2
M  V30 34 1 30 2
M  V30 35 1 31 3
M  V30 36 1 32 3
M  V30 37 1 33 5
M  V30 38 1 34 5
M  V30 39 1 35 6
M  V30 40 1 36 6
M  V30 41 1 37 8
M  V30 42 1 38 9
M  V30 43 1 39 10
M  V30 44 1 13 40 CFG=3
M  V30 45 1 41 14
M  V30 46 1 42 14
M  V30 47 1 43 16
M  V30 48 1 44 17
M  V30 49 1 45 23
M  V30 50 1 46 23
M  V30 51 1 47 23
M  V30 52 1 48 24
M  V30 53 1 49 24
M  V30 54 1 50 24
M  V30 55 1 51 25
M  V30 56 1 52 25
M  V30 57 1 4 53 CFG=1
M  V30 END BOND
M  V30 END CTAB
M  END
>  <b_m_subgroup_collapsed>  (1887) 
0

>  <r_i_docking_score>  (1887) 
-6.5224012375048801

>  <s_m_subgroup_title>  (1887) 
glide-dock_SP_D22_pv

>  <s_m_subgroupid>  (1887) 
glide-dock_SP_D22_pv

>  <Molecule ChEMBL ID>  (1887) 
CHEMBL611973

>  <Standard Type>  (1887) 
Ki

>  <Standard Value>  (1887) 
10000.0

>  <label>  (1887) 
0

$$$$
CHEMBL520821
     RDKit          3D

  0  0  0  0  0  0  0  0  0  0999 V3000
M  V30 BEGIN CTAB
M  V30 COUNTS 59 63 0 0 1
M  V30 BEGIN ATOM
M  V30 1 C 5.281128 0.007426 -18.225693 0
M  V30 2 C 5.870443 -0.071472 -16.832212 0
M  V30 3 C 5.299619 -0.934071 -15.875413 0
M  V30 4 C 5.834210 -0.989204 -14.575401 0
M  V30 5 C 6.936192 -0.183945 -14.227078 0
M  V30 6 C 7.518238 0.689367 -15.174774 0
M  V30 7 C 8.651143 1.633887 -14.735516 0 CFG=1
M  V30 8 C 9.635474 1.923916 -15.889942 0
M  V30 9 N 10.994073 2.343600 -15.463140 0 CFG=1 CHG=1
M  V30 10 C 11.926517 2.341363 -16.614510 0
M  V30 11 C 11.082647 3.613430 -14.701286 0
M  V30 12 C 10.421752 3.547614 -13.317060 0
M  V30 13 C 8.942063 3.824374 -13.347423 0
M  V30 14 C 8.116532 2.920698 -14.070279 0
M  V30 15 C 6.740567 3.184418 -14.120424 0
M  V30 16 C 6.201145 4.293397 -13.478988 0
M  V30 17 O 4.886022 4.572309 -13.589598 0
M  V30 18 C 7.002189 5.171828 -12.754694 0
M  V30 19 O 6.364541 6.267478 -12.246871 0
M  V30 20 C 8.388921 4.935019 -12.633798 0
M  V30 21 C 9.183662 5.815619 -11.750838 0
M  V30 22 C 10.240307 6.609647 -12.246605 0
M  V30 23 C 11.002684 7.421130 -11.384661 0
M  V30 24 C 10.700902 7.473104 -10.009953 0
M  V30 25 C 11.451364 8.293648 -9.141426 0
M  V30 26 C 11.134834 8.342023 -7.769379 0
M  V30 27 C 10.066666 7.574814 -7.263444 0
M  V30 28 C 9.317207 6.751731 -8.126795 0
M  V30 29 C 9.634019 6.694655 -9.500062 0
M  V30 30 C 8.890360 5.869606 -10.369111 0
M  V30 31 C 6.973843 0.735320 -16.482250 0
M  V30 32 H 6.051202 0.233938 -18.963614 0
M  V30 33 H 4.521322 0.788903 -18.269545 0
M  V30 34 H 4.815242 -0.938888 -18.505112 0
M  V30 35 H 4.454159 -1.556694 -16.133820 0
M  V30 36 H 5.402513 -1.658433 -13.846888 0
M  V30 37 H 7.320702 -0.227183 -13.218633 0
M  V30 38 H 9.191660 1.076161 -13.969807 0
M  V30 39 H 9.768015 0.997922 -16.452673 0
M  V30 40 H 9.215211 2.654172 -16.583368 0
M  V30 41 H 11.608487 3.053647 -17.377003 0
M  V30 42 H 11.984763 1.352608 -17.071627 0
M  V30 43 H 12.932623 2.613778 -16.304020 0
M  V30 44 H 12.141422 3.820929 -14.536817 0
M  V30 45 H 10.696842 4.452275 -15.283085 0
M  V30 46 H 10.486040 2.572319 -12.862311 0
M  V30 47 H 10.958262 4.206955 -12.646783 0
M  V30 48 H 6.081475 2.548884 -14.672380 0
M  V30 49 H 4.748329 5.403874 -13.153524 0
M  V30 50 H 6.756519 6.747845 -11.516041 0
M  V30 51 H 10.486984 6.572271 -13.296722 0
M  V30 52 H 11.820624 8.003313 -11.783028 0
M  V30 53 H 12.267636 8.891913 -9.521914 0
M  V30 54 H 11.708921 8.973015 -7.106817 0
M  V30 55 H 9.816761 7.618896 -6.213566 0
M  V30 56 H 8.490999 6.176274 -7.733641 0
M  V30 57 H 8.080261 5.274097 -9.972021 0
M  V30 58 H 7.373531 1.412366 -17.221096 0
M  V30 59 H 11.330007 1.623325 -14.838585 0
M  V30 END ATOM
M  V30 BEGIN BOND
M  V30 1 1 2 1
M  V30 2 1 3 2
M  V30 3 2 4 3
M  V30 4 1 5 4
M  V30 5 2 6 5
M  V30 6 1 7 6
M  V30 7 1 8 7
M  V30 8 1 9 8
M  V30 9 1 10 9
M  V30 10 1 11 9
M  V30 11 1 12 11
M  V30 12 1 13 12
M  V30 13 1 14 7
M  V30 14 2 14 13
M  V30 15 1 15 14
M  V30 16 2 16 15
M  V30 17 1 17 16
M  V30 18 1 18 16
M  V30 19 1 19 18
M  V30 20 1 20 13
M  V30 21 2 20 18
M  V30 22 1 21 20
M  V30 23 1 22 21
M  V30 24 2 23 22
M  V30 25 1 24 23
M  V30 26 2 25 24
M  V30 27 1 26 25
M  V30 28 2 27 26
M  V30 29 1 28 27
M  V30 30 1 29 24
M  V30 31 2 29 28
M  V30 32 2 30 21
M  V30 33 1 30 29
M  V30 34 2 31 2
M  V30 35 1 31 6
M  V30 36 1 32 1
M  V30 37 1 33 1
M  V30 38 1 34 1
M  V30 39 1 35 3
M  V30 40 1 36 4
M  V30 41 1 37 5
M  V30 42 1 7 38 CFG=1
M  V30 43 1 39 8
M  V30 44 1 40 8
M  V30 45 1 41 10
M  V30 46 1 42 10
M  V30 47 1 43 10
M  V30 48 1 44 11
M  V30 49 1 45 11
M  V30 50 1 46 12
M  V30 51 1 47 12
M  V30 52 1 48 15
M  V30 53 1 49 17
M  V30 54 1 50 19
M  V30 55 1 51 22
M  V30 56 1 52 23
M  V30 57 1 53 25
M  V30 58 1 54 26
M  V30 59 1 55 27
M  V30 60 1 56 28
M  V30 61 1 57 30
M  V30 62 1 58 31
M  V30 63 1 9 59 CFG=1
M  V30 END BOND
M  V30 END CTAB
M  END
>  <b_m_subgroup_collapsed>  (1888) 
0

>  <r_i_docking_score>  (1888) 
-6.5189666264200596

>  <s_m_subgroup_title>  (1888) 
glide-dock_SP_D22_pv

>  <s_m_subgroupid>  (1888) 
glide-dock_SP_D22_pv

>  <Molecule ChEMBL ID>  (1888) 
CHEMBL520821

>  <Standard Type>  (1888) 
Ki

>  <Standard Value>  (1888) 
29.0

>  <label>  (1888) 
1

$$$$
CHEMBL5400983
     RDKit          3D

  0  0  0  0  0  0  0  0  0  0999 V3000
M  V30 BEGIN CTAB
M  V30 COUNTS 46 49 0 0 1
M  V30 BEGIN ATOM
M  V30 1 Cl 12.085925 7.386566 -3.221896 0
M  V30 2 C 11.585590 7.855463 -4.806045 0
M  V30 3 C 11.757870 9.185159 -5.231001 0
M  V30 4 C 11.394778 9.554957 -6.538986 0
M  V30 5 C 10.842021 8.596060 -7.408857 0
M  V30 6 S 10.319363 8.789253 -9.079938 0
M  V30 7 C 9.736867 7.119137 -9.051211 0
M  V30 8 C 8.888809 6.572327 -10.159728 0
M  V30 9 C 9.566700 5.637903 -11.176644 0
M  V30 10 C 10.468083 6.378588 -12.189959 0
M  V30 11 N 11.043315 5.504381 -13.222411 0
M  V30 12 C 10.041872 4.967882 -14.155841 0
M  V30 13 C 10.727649 4.055602 -15.195271 0
M  V30 14 N 11.731141 4.804108 -15.949915 0
M  V30 15 C 11.366256 5.563295 -17.089016 0
M  V30 16 C 10.084474 5.465401 -17.687281 0
M  V30 17 C 9.790167 6.247232 -18.819962 0
M  V30 18 C 10.782572 7.095695 -19.338926 0
M  V30 19 C 12.029547 7.125415 -18.693468 0
M  V30 20 N 12.312456 6.385648 -17.602659 0
M  V30 21 C 12.738311 5.345432 -15.039826 0
M  V30 22 C 12.069359 6.243340 -13.974321 0
M  V30 23 N 10.031436 6.418763 -7.944916 0
M  V30 24 C 10.625319 7.249268 -6.994191 0
M  V30 25 C 11.021137 6.904577 -5.679624 0
M  V30 26 H 12.189158 9.912380 -4.559620 0
M  V30 27 H 11.540566 10.569868 -6.874828 0
M  V30 28 H 8.486183 7.422526 -10.705989 0
M  V30 29 H 8.042562 6.057463 -9.704210 0
M  V30 30 H 8.756445 5.153515 -11.718581 0
M  V30 31 H 10.086347 4.834407 -10.659122 0
M  V30 32 H 11.282208 6.850320 -11.637205 0
M  V30 33 H 9.907524 7.192402 -12.647818 0
M  V30 34 H 9.500689 5.770569 -14.653749 0
M  V30 35 H 9.304669 4.374307 -13.618143 0
M  V30 36 H 10.000260 3.569014 -15.841423 0
M  V30 37 H 11.231209 3.237362 -14.677758 0
M  V30 38 H 9.309482 4.825459 -17.301514 0
M  V30 39 H 8.815533 6.197415 -19.281399 0
M  V30 40 H 10.593671 7.712243 -20.204763 0
M  V30 41 H 12.819404 7.766499 -19.057199 0
M  V30 42 H 13.254922 4.506148 -14.577566 0
M  V30 43 H 13.518408 5.900531 -15.559281 0
M  V30 44 H 11.633795 7.119720 -14.455235 0
M  V30 45 H 12.832095 6.610141 -13.287115 0
M  V30 46 H 10.886448 5.887581 -5.340159 0
M  V30 END ATOM
M  V30 BEGIN BOND
M  V30 1 1 2 1
M  V30 2 1 3 2
M  V30 3 2 4 3
M  V30 4 1 5 4
M  V30 5 1 6 5
M  V30 6 1 7 6
M  V30 7 1 8 7
M  V30 8 1 9 8
M  V30 9 1 10 9
M  V30 10 1 11 10
M  V30 11 1 12 11
M  V30 12 1 13 12
M  V30 13 1 14 13
M  V30 14 1 15 14
M  V30 15 2 16 15
M  V30 16 1 17 16
M  V30 17 2 18 17
M  V30 18 1 19 18
M  V30 19 1 20 15
M  V30 20 2 20 19
M  V30 21 1 21 14
M  V30 22 1 22 11
M  V30 23 1 22 21
M  V30 24 2 23 7
M  V30 25 2 24 5
M  V30 26 1 24 23
M  V30 27 2 25 2
M  V30 28 1 25 24
M  V30 29 1 26 3
M  V30 30 1 27 4
M  V30 31 1 28 8
M  V30 32 1 29 8
M  V30 33 1 30 9
M  V30 34 1 31 9
M  V30 35 1 32 10
M  V30 36 1 33 10
M  V30 37 1 34 12
M  V30 38 1 35 12
M  V30 39 1 36 13
M  V30 40 1 37 13
M  V30 41 1 38 16
M  V30 42 1 39 17
M  V30 43 1 40 18
M  V30 44 1 41 19
M  V30 45 1 42 21
M  V30 46 1 43 21
M  V30 47 1 44 22
M  V30 48 1 45 22
M  V30 49 1 46 25
M  V30 END BOND
M  V30 END CTAB
M  END
>  <b_m_subgroup_collapsed>  (1889) 
0

>  <r_i_docking_score>  (1889) 
-6.5187786982757698

>  <s_m_subgroup_title>  (1889) 
glide-dock_SP_D22_pv

>  <s_m_subgroupid>  (1889) 
glide-dock_SP_D22_pv

>  <Molecule ChEMBL ID>  (1889) 
CHEMBL5400983

>  <Standard Type>  (1889) 
Ki

>  <Standard Value>  (1889) 
14000.0

>  <label>  (1889) 
0

$$$$
CHEMBL113524
     RDKit          3D

  0  0  0  0  0  0  0  0  0  0999 V3000
M  V30 BEGIN CTAB
M  V30 COUNTS 65 68 0 0 1
M  V30 BEGIN ATOM
M  V30 1 C 11.759370 3.228137 -13.886227 0
M  V30 2 C 11.672420 4.160403 -15.082231 0
M  V30 3 N 11.890184 5.579628 -14.678916 0 CFG=2 CHG=1
M  V30 4 C 10.896246 6.014606 -13.640162 0
M  V30 5 C 11.362473 6.972229 -12.556568 0
M  V30 6 C 12.485911 7.725406 -12.314517 0
M  V30 7 C 12.458131 8.172067 -10.958802 0
M  V30 8 C 11.327086 7.690296 -10.367702 0
M  V30 9 C 10.867674 7.674210 -8.966844 0
M  V30 10 C 11.375569 8.631290 -8.047202 0
M  V30 11 C 10.968817 8.630102 -6.692494 0
M  V30 12 S 11.558167 9.857135 -5.501910 0
M  V30 13 O 12.140982 10.972245 -6.246870 0
M  V30 14 O 10.485907 10.165895 -4.554450 0
M  V30 15 C 12.887521 9.077163 -4.500095 0
M  V30 16 C 12.452862 7.758266 -3.847042 0
M  V30 17 C 10.081994 7.645217 -6.243484 0
M  V30 18 C 9.582773 6.683633 -7.128961 0
M  V30 19 C 9.964398 6.679617 -8.492311 0
M  V30 20 O 9.515444 5.713166 -9.370968 0
M  V30 21 C 8.497631 4.823955 -8.941743 0
M  V30 22 N 10.631079 7.058560 -11.382681 0
M  V30 23 C 12.107850 6.517174 -15.839483 0 CFG=1
M  V30 24 C 13.548026 7.054187 -15.813790 0
M  V30 25 C 14.565711 6.014091 -16.283609 0
M  V30 26 C 14.318954 5.602322 -17.734703 0
M  V30 27 C 12.848348 5.466923 -18.094936 0
M  V30 28 C 12.526610 4.903047 -19.348013 0
M  V30 29 C 11.187673 4.793103 -19.762215 0
M  V30 30 C 10.159824 5.257507 -18.924784 0
M  V30 31 C 10.478196 5.817741 -17.674797 0
M  V30 32 C 11.812205 5.922279 -17.232424 0
M  V30 33 H 12.084949 2.237920 -14.188962 0
M  V30 34 H 12.487282 3.687185 -13.215028 0
M  V30 35 H 10.803800 3.097810 -13.376898 0
M  V30 36 H 10.713625 4.025914 -15.584946 0
M  V30 37 H 12.453375 3.855510 -15.780036 0
M  V30 38 H 9.918070 6.172292 -14.075253 0
M  V30 39 H 10.624037 5.160792 -13.031873 0
M  V30 40 H 13.312538 7.895304 -12.975288 0
M  V30 41 H 13.242302 8.701477 -10.446424 0
M  V30 42 H 12.080616 9.372532 -8.388018 0
M  V30 43 H 13.777794 8.972601 -5.111681 0
M  V30 44 H 13.145671 9.788219 -3.717099 0
M  V30 45 H 13.243102 7.367478 -3.206257 0
M  V30 46 H 11.566539 7.899963 -3.228294 0
M  V30 47 H 12.229263 6.993320 -4.590096 0
M  V30 48 H 9.782058 7.615645 -5.210991 0
M  V30 49 H 8.907869 5.947499 -6.722362 0
M  V30 50 H 8.085576 4.298040 -9.802121 0
M  V30 51 H 8.886856 4.078933 -8.247071 0
M  V30 52 H 7.685822 5.371163 -8.466490 0
M  V30 53 H 9.759429 6.574089 -11.203658 0
M  V30 54 H 11.446302 7.371495 -15.703817 0
M  V30 55 H 13.819947 7.373438 -14.821778 0
M  V30 56 H 13.621734 7.937297 -16.450912 0
M  V30 57 H 14.485943 5.137105 -15.644532 0
M  V30 58 H 15.584717 6.384234 -16.167898 0
M  V30 59 H 14.838848 4.666997 -17.947001 0
M  V30 60 H 14.747158 6.356004 -18.397388 0
M  V30 61 H 13.313498 4.560525 -20.004593 0
M  V30 62 H 10.951935 4.365249 -20.725639 0
M  V30 63 H 9.129159 5.187577 -19.241385 0
M  V30 64 H 9.685109 6.171449 -17.046986 0
M  V30 65 H 12.775584 5.577081 -14.191171 0
M  V30 END ATOM
M  V30 BEGIN BOND
M  V30 1 1 2 1
M  V30 2 1 3 2
M  V30 3 1 4 3
M  V30 4 1 5 4
M  V30 5 2 6 5
M  V30 6 1 7 6
M  V30 7 2 8 7
M  V30 8 1 9 8
M  V30 9 1 10 9
M  V30 10 2 11 10
M  V30 11 1 12 11
M  V30 12 2 13 12
M  V30 13 2 14 12
M  V30 14 1 15 12
M  V30 15 1 16 15
M  V30 16 1 17 11
M  V30 17 2 18 17
M  V30 18 2 19 9
M  V30 19 1 19 18
M  V30 20 1 20 19
M  V30 21 1 21 20
M  V30 22 1 22 5
M  V30 23 1 22 8
M  V30 24 1 23 3
M  V30 25 1 24 23
M  V30 26 1 25 24
M  V30 27 1 26 25
M  V30 28 1 27 26
M  V30 29 2 28 27
M  V30 30 1 29 28
M  V30 31 2 30 29
M  V30 32 1 31 30
M  V30 33 1 32 23
M  V30 34 1 32 27
M  V30 35 2 32 31
M  V30 36 1 33 1
M  V30 37 1 34 1
M  V30 38 1 35 1
M  V30 39 1 36 2
M  V30 40 1 37 2
M  V30 41 1 38 4
M  V30 42 1 39 4
M  V30 43 1 40 6
M  V30 44 1 41 7
M  V30 45 1 42 10
M  V30 46 1 43 15
M  V30 47 1 44 15
M  V30 48 1 45 16
M  V30 49 1 46 16
M  V30 50 1 47 16
M  V30 51 1 48 17
M  V30 52 1 49 18
M  V30 53 1 50 21
M  V30 54 1 51 21
M  V30 55 1 52 21
M  V30 56 1 53 22
M  V30 57 1 23 54 CFG=1
M  V30 58 1 55 24
M  V30 59 1 56 24
M  V30 60 1 57 25
M  V30 61 1 58 25
M  V30 62 1 59 26
M  V30 63 1 60 26
M  V30 64 1 61 28
M  V30 65 1 62 29
M  V30 66 1 63 30
M  V30 67 1 64 31
M  V30 68 1 3 65 CFG=1
M  V30 END BOND
M  V30 END CTAB
M  END
>  <b_m_subgroup_collapsed>  (1890) 
0

>  <r_i_docking_score>  (1890) 
-6.5186230337126698

>  <s_m_subgroup_title>  (1890) 
glide-dock_SP_D22_pv

>  <s_m_subgroupid>  (1890) 
glide-dock_SP_D22_pv

>  <Molecule ChEMBL ID>  (1890) 
CHEMBL113524

>  <Standard Type>  (1890) 
Ki

>  <Standard Value>  (1890) 
12.59

>  <label>  (1890) 
1

$$$$
CHEMBL4242192
     RDKit          3D

  0  0  0  0  0  0  0  0  0  0999 V3000
M  V30 BEGIN CTAB
M  V30 COUNTS 63 65 0 0 1
M  V30 BEGIN ATOM
M  V30 1 C 12.484982 7.022752 -2.150127 0
M  V30 2 C 12.255767 8.129805 -2.610807 0
M  V30 3 C 11.894787 9.388195 -3.288019 0
M  V30 4 C 12.076728 9.412749 -4.821938 0
M  V30 5 C 11.286249 8.347405 -5.601496 0
M  V30 6 O 11.286241 7.179775 -5.215050 0
M  V30 7 N 10.681639 8.746836 -6.731829 0
M  V30 8 C 10.093767 7.891473 -7.695458 0
M  V30 9 C 10.218677 8.239661 -9.053867 0
M  V30 10 C 9.686404 7.399432 -10.050553 0
M  V30 11 C 9.030258 6.201173 -9.693538 0
M  V30 12 C 8.397124 5.310547 -10.741887 0
M  V30 13 C 9.318089 5.016419 -11.941880 0
M  V30 14 N 8.690251 4.116956 -12.941647 0 CFG=1 CHG=1
M  V30 15 C 7.515636 4.733941 -13.620614 0
M  V30 16 C 6.261488 3.844318 -13.585619 0
M  V30 17 C 5.642261 3.700992 -12.196120 0
M  V30 18 C 9.693982 3.457254 -13.844337 0 CFG=2
M  V30 19 C 10.384041 4.416553 -14.839861 0
M  V30 20 C 11.503361 3.720597 -15.623112 0
M  V30 21 C 11.118307 2.349994 -16.173609 0
M  V30 22 C 11.861423 1.779332 -17.236938 0
M  V30 23 O 12.902897 2.451275 -17.811951 0
M  V30 24 C 11.538277 0.499596 -17.725277 0
M  V30 25 C 10.477638 -0.226827 -17.155329 0
M  V30 26 C 9.723019 0.335617 -16.110151 0
M  V30 27 C 10.029367 1.624839 -15.624037 0
M  V30 28 C 9.112834 2.230231 -14.573158 0
M  V30 29 C 8.886134 5.863674 -8.335180 0
M  V30 30 C 9.395249 6.713905 -7.341400 0
M  V30 31 H 12.672339 6.041179 -1.779375 0
M  V30 32 H 10.867791 9.613458 -3.043495 0
M  V30 33 H 12.486917 10.174418 -2.826497 0
M  V30 34 H 11.790748 10.398311 -5.191160 0
M  V30 35 H 13.134360 9.300473 -5.063251 0
M  V30 36 H 10.815678 9.708564 -7.004902 0
M  V30 37 H 10.726998 9.148264 -9.341778 0
M  V30 38 H 9.770490 7.701489 -11.081680 0
M  V30 39 H 8.103400 4.371035 -10.273811 0
M  V30 40 H 7.469964 5.793037 -11.045403 0
M  V30 41 H 9.629652 5.937940 -12.432796 0
M  V30 42 H 10.215550 4.540596 -11.552394 0
M  V30 43 H 7.268966 5.705326 -13.192312 0
M  V30 44 H 7.762551 4.967752 -14.646851 0
M  V30 45 H 5.511096 4.278022 -14.246321 0
M  V30 46 H 6.459546 2.850858 -13.979175 0
M  V30 47 H 4.795761 3.016263 -12.246990 0
M  V30 48 H 6.344229 3.296019 -11.469238 0
M  V30 49 H 5.286323 4.658833 -11.819629 0
M  V30 50 H 10.478483 3.059554 -13.196877 0
M  V30 51 H 9.664959 4.791350 -15.565280 0
M  V30 52 H 10.794757 5.290054 -14.334039 0
M  V30 53 H 12.372861 3.582596 -14.979261 0
M  V30 54 H 11.818499 4.373719 -16.435808 0
M  V30 55 H 13.128792 3.246978 -17.356546 0
M  V30 56 H 12.112459 0.068765 -18.530880 0
M  V30 57 H 10.234482 -1.209667 -17.528648 0
M  V30 58 H 8.892787 -0.221767 -15.697527 0
M  V30 59 H 8.820495 1.467931 -13.850133 0
M  V30 60 H 8.221031 2.511650 -15.129532 0
M  V30 61 H 8.350602 4.971217 -8.046431 0
M  V30 62 H 9.237292 6.442694 -6.307867 0
M  V30 63 H 8.308195 3.364799 -12.382454 0
M  V30 END ATOM
M  V30 BEGIN BOND
M  V30 1 3 2 1
M  V30 2 1 3 2
M  V30 3 1 4 3
M  V30 4 1 5 4
M  V30 5 2 6 5
M  V30 6 1 7 5
M  V30 7 1 8 7
M  V30 8 1 9 8
M  V30 9 2 10 9
M  V30 10 1 11 10
M  V30 11 1 12 11
M  V30 12 1 13 12
M  V30 13 1 14 13
M  V30 14 1 15 14
M  V30 15 1 16 15
M  V30 16 1 17 16
M  V30 17 1 18 14
M  V30 18 1 19 18
M  V30 19 1 20 19
M  V30 20 1 21 20
M  V30 21 2 22 21
M  V30 22 1 23 22
M  V30 23 1 24 22
M  V30 24 2 25 24
M  V30 25 1 26 25
M  V30 26 1 27 21
M  V30 27 2 27 26
M  V30 28 1 28 18
M  V30 29 1 28 27
M  V30 30 2 29 11
M  V30 31 2 30 8
M  V30 32 1 30 29
M  V30 33 1 31 1
M  V30 34 1 32 3
M  V30 35 1 33 3
M  V30 36 1 34 4
M  V30 37 1 35 4
M  V30 38 1 36 7
M  V30 39 1 37 9
M  V30 40 1 38 10
M  V30 41 1 39 12
M  V30 42 1 40 12
M  V30 43 1 41 13
M  V30 44 1 42 13
M  V30 45 1 43 15
M  V30 46 1 44 15
M  V30 47 1 45 16
M  V30 48 1 46 16
M  V30 49 1 47 17
M  V30 50 1 48 17
M  V30 51 1 49 17
M  V30 52 1 18 50 CFG=1
M  V30 53 1 51 19
M  V30 54 1 52 19
M  V30 55 1 53 20
M  V30 56 1 54 20
M  V30 57 1 55 23
M  V30 58 1 56 24
M  V30 59 1 57 25
M  V30 60 1 58 26
M  V30 61 1 59 28
M  V30 62 1 60 28
M  V30 63 1 61 29
M  V30 64 1 62 30
M  V30 65 1 14 63 CFG=1
M  V30 END BOND
M  V30 END CTAB
M  END
>  <b_m_subgroup_collapsed>  (1891) 
0

>  <r_i_docking_score>  (1891) 
-6.5181033852133101

>  <s_m_subgroup_title>  (1891) 
glide-dock_SP_D22_pv

>  <s_m_subgroupid>  (1891) 
glide-dock_SP_D22_pv

>  <Molecule ChEMBL ID>  (1891) 
CHEMBL4242192

>  <Standard Type>  (1891) 
Ki

>  <Standard Value>  (1891) 
17.0

>  <label>  (1891) 
1

$$$$
CHEMBL383102
     RDKit          3D

  0  0  0  0  0  0  0  0  0  0999 V3000
M  V30 BEGIN CTAB
M  V30 COUNTS 43 47 0 0 1
M  V30 BEGIN ATOM
M  V30 1 C 5.934027 4.636743 -13.076944 0
M  V30 2 C 6.110404 5.963099 -12.646864 0
M  V30 3 C 7.382401 6.411910 -12.260404 0
M  V30 4 C 8.469718 5.529830 -12.204626 0
M  V30 5 C 9.779166 5.985247 -11.586657 0 CFG=1
M  V30 6 C 10.404687 7.273254 -12.178415 0
M  V30 7 C 10.943139 8.029397 -10.953905 0
M  V30 8 C 9.892627 7.693744 -9.920381 0 CFG=2
M  V30 9 C 10.270191 7.920536 -8.507879 0
M  V30 10 N 11.016309 8.972272 -8.012076 0
M  V30 11 C 11.287057 8.761048 -6.674888 0
M  V30 12 C 12.037642 9.495087 -5.738168 0
M  V30 13 C 12.231452 8.972843 -4.446362 0
M  V30 14 C 11.686073 7.718945 -4.112703 0
M  V30 15 C 10.900697 7.009612 -5.046901 0
M  V30 16 C 10.664104 7.516534 -6.344548 0
M  V30 17 C 9.935148 7.065857 -7.502513 0
M  V30 18 C 9.105134 5.830779 -7.763670 0
M  V30 19 C 8.669200 5.667617 -9.248571 0
M  V30 20 N 9.716338 6.245699 -10.124720 0 CFG=1 CHG=1
M  V30 21 C 8.303202 4.205505 -12.660230 0
M  V30 22 C 7.041035 3.772004 -13.112936 0
M  V30 23 H 4.960967 4.291661 -13.394728 0
M  V30 24 H 5.286114 6.656766 -12.626365 0
M  V30 25 H 7.505276 7.432886 -11.935693 0
M  V30 26 H 10.485940 5.171033 -11.734108 0
M  V30 27 H 11.169316 7.068309 -12.928577 0
M  V30 28 H 9.644101 7.897351 -12.646833 0
M  V30 29 H 11.913889 7.622400 -10.664227 0
M  V30 30 H 11.054824 9.105620 -11.046931 0
M  V30 31 H 8.958016 8.214474 -10.141721 0
M  V30 32 H 11.362908 9.732214 -8.579601 0
M  V30 33 H 12.494395 10.433208 -6.017744 0
M  V30 34 H 12.819899 9.518766 -3.722340 0
M  V30 35 H 11.850125 7.305697 -3.127696 0
M  V30 36 H 10.474084 6.061155 -4.761880 0
M  V30 37 H 9.696495 4.972357 -7.484475 0
M  V30 38 H 8.225025 5.810329 -7.119329 0
M  V30 39 H 8.504589 4.613812 -9.476655 0
M  V30 40 H 7.720658 6.172140 -9.425460 0
M  V30 41 H 9.128061 3.507356 -12.641357 0
M  V30 42 H 6.913142 2.754440 -13.451558 0
M  V30 43 H 10.572560 5.846840 -9.770129 0
M  V30 END ATOM
M  V30 BEGIN BOND
M  V30 1 2 2 1
M  V30 2 1 3 2
M  V30 3 2 4 3
M  V30 4 1 5 4
M  V30 5 1 6 5
M  V30 6 1 7 6
M  V30 7 1 8 7
M  V30 8 1 9 8
M  V30 9 1 10 9
M  V30 10 1 11 10
M  V30 11 2 12 11
M  V30 12 1 13 12
M  V30 13 2 14 13
M  V30 14 1 15 14
M  V30 15 1 16 11
M  V30 16 2 16 15
M  V30 17 2 17 9
M  V30 18 1 17 16
M  V30 19 1 18 17
M  V30 20 1 19 18
M  V30 21 1 20 5
M  V30 22 1 20 8
M  V30 23 1 20 19
M  V30 24 1 21 4
M  V30 25 1 22 1
M  V30 26 2 22 21
M  V30 27 1 23 1
M  V30 28 1 24 2
M  V30 29 1 25 3
M  V30 30 1 5 26 CFG=1
M  V30 31 1 27 6
M  V30 32 1 28 6
M  V30 33 1 29 7
M  V30 34 1 30 7
M  V30 35 1 8 31 CFG=3
M  V30 36 1 32 10
M  V30 37 1 33 12
M  V30 38 1 34 13
M  V30 39 1 35 14
M  V30 40 1 36 15
M  V30 41 1 37 18
M  V30 42 1 38 18
M  V30 43 1 39 19
M  V30 44 1 40 19
M  V30 45 1 41 21
M  V30 46 1 42 22
M  V30 47 1 20 43 CFG=1
M  V30 END BOND
M  V30 END CTAB
M  END
>  <b_m_subgroup_collapsed>  (1892) 
0

>  <r_i_docking_score>  (1892) 
-6.5115051707922804

>  <s_m_subgroup_title>  (1892) 
glide-dock_SP_D22_pv

>  <s_m_subgroupid>  (1892) 
glide-dock_SP_D22_pv

>  <Molecule ChEMBL ID>  (1892) 
CHEMBL383102

>  <Standard Type>  (1892) 
Ki

>  <Standard Value>  (1892) 
10000.0

>  <label>  (1892) 
0

$$$$
CHEMBL5273758
     RDKit          3D

  0  0  0  0  0  0  0  0  0  0999 V3000
M  V30 BEGIN CTAB
M  V30 COUNTS 43 46 0 0 1
M  V30 BEGIN ATOM
M  V30 1 C 13.519922 5.651584 -15.484145 0
M  V30 2 N 12.486252 4.934946 -14.698262 0 CFG=2 CHG=1
M  V30 3 C 11.825826 3.851754 -15.514460 0
M  V30 4 C 10.545931 3.212858 -14.876343 0
M  V30 5 C 9.610716 4.335053 -14.403662 0 CFG=1
M  V30 6 C 8.228581 4.033615 -13.845851 0
M  V30 7 C 7.612339 4.932262 -13.040888 0
M  V30 8 O 6.350023 4.720013 -12.647086 0
M  V30 9 C 8.328040 6.134250 -12.601999 0
M  V30 10 O 7.686194 7.252713 -12.246939 0
M  V30 11 C 9.673532 6.150224 -12.646894 0
M  V30 12 C 10.650219 7.250090 -12.259818 0 CFG=1
M  V30 13 C 10.879105 7.430298 -10.752914 0
M  V30 14 C 11.991131 8.172266 -10.296488 0
M  V30 15 C 12.216024 8.357224 -8.918276 0
M  V30 16 C 11.326557 7.812778 -7.974658 0
M  V30 17 C 10.210536 7.079584 -8.413487 0
M  V30 18 C 9.990361 6.888545 -9.790751 0
M  V30 19 C 11.950650 6.893498 -13.051517 0
M  V30 20 C 11.496258 5.880002 -14.119037 0 CFG=2
M  V30 21 C 10.432134 5.104399 -13.384291 0 CFG=2
M  V30 22 H 13.075742 6.142710 -16.351032 0
M  V30 23 H 14.288819 4.972781 -15.847839 0
M  V30 24 H 14.010755 6.422653 -14.891506 0
M  V30 25 H 11.537549 4.281073 -16.475670 0
M  V30 26 H 12.552788 3.071461 -15.740602 0
M  V30 27 H 10.041951 2.582088 -15.609594 0
M  V30 28 H 10.816593 2.561247 -14.043314 0
M  V30 29 H 9.393552 4.964538 -15.269350 0
M  V30 30 H 7.719262 3.144608 -14.188494 0
M  V30 31 H 6.115359 5.415577 -12.049294 0
M  V30 32 H 7.165745 7.124568 -11.455272 0
M  V30 33 H 10.225068 8.172256 -12.646280 0
M  V30 34 H 12.679355 8.615379 -11.001431 0
M  V30 35 H 13.071917 8.928472 -8.587672 0
M  V30 36 H 11.496346 7.960891 -6.918611 0
M  V30 37 H 9.516569 6.666253 -7.695576 0
M  V30 38 H 9.117284 6.325424 -10.080248 0
M  V30 39 H 12.429011 7.773976 -13.480608 0
M  V30 40 H 12.682331 6.422205 -12.397639 0
M  V30 41 H 11.049302 6.443007 -14.940971 0
M  V30 42 H 10.870570 4.437010 -12.641088 0
M  V30 43 H 12.946135 4.488863 -13.917708 0
M  V30 END ATOM
M  V30 BEGIN BOND
M  V30 1 1 2 1
M  V30 2 1 3 2
M  V30 3 1 4 3
M  V30 4 1 5 4
M  V30 5 1 6 5
M  V30 6 2 7 6
M  V30 7 1 8 7
M  V30 8 1 9 7
M  V30 9 1 10 9
M  V30 10 2 11 9
M  V30 11 1 12 11
M  V30 12 1 13 12
M  V30 13 2 14 13
M  V30 14 1 15 14
M  V30 15 2 16 15
M  V30 16 1 17 16
M  V30 17 1 18 13
M  V30 18 2 18 17
M  V30 19 1 19 12
M  V30 20 1 20 2
M  V30 21 1 20 19
M  V30 22 1 21 5
M  V30 23 1 21 11
M  V30 24 1 21 20
M  V30 25 1 22 1
M  V30 26 1 23 1
M  V30 27 1 24 1
M  V30 28 1 25 3
M  V30 29 1 26 3
M  V30 30 1 27 4
M  V30 31 1 28 4
M  V30 32 1 5 29 CFG=3
M  V30 33 1 30 6
M  V30 34 1 31 8
M  V30 35 1 32 10
M  V30 36 1 12 33 CFG=3
M  V30 37 1 34 14
M  V30 38 1 35 15
M  V30 39 1 36 16
M  V30 40 1 37 17
M  V30 41 1 38 18
M  V30 42 1 39 19
M  V30 43 1 40 19
M  V30 44 1 20 41 CFG=3
M  V30 45 1 21 42 CFG=1
M  V30 46 1 2 43 CFG=1
M  V30 END BOND
M  V30 END CTAB
M  END
>  <b_m_subgroup_collapsed>  (1893) 
0

>  <r_i_docking_score>  (1893) 
-6.5081673065059498

>  <s_m_subgroup_title>  (1893) 
glide-dock_SP_D22_pv

>  <s_m_subgroupid>  (1893) 
glide-dock_SP_D22_pv

>  <Molecule ChEMBL ID>  (1893) 
CHEMBL5273758

>  <Standard Type>  (1893) 
Ki

>  <Standard Value>  (1893) 
12.88

>  <label>  (1893) 
1

$$$$
CHEMBL3775534
     RDKit          3D

  0  0  0  0  0  0  0  0  0  0999 V3000
M  V30 BEGIN CTAB
M  V30 COUNTS 60 64 0 0 1
M  V30 BEGIN ATOM
M  V30 1 C 5.653422 -1.224596 -14.392280 0
M  V30 2 C 5.861451 0.225253 -14.091954 0
M  V30 3 N 5.318475 0.823451 -12.962308 0
M  V30 4 C 5.686031 2.100455 -13.051466 0
M  V30 5 O 6.432815 2.384634 -14.154190 0
M  V30 6 C 6.524666 1.186045 -14.813722 0
M  V30 7 C 7.195246 1.151647 -16.108341 0
M  V30 8 N 6.696014 1.772315 -17.179489 0
M  V30 9 N 7.542025 1.481038 -18.219875 0
M  V30 10 C 8.501242 0.719526 -17.695671 0
M  V30 11 S 9.805625 0.063011 -18.689739 0
M  V30 12 C 11.273217 0.687578 -17.820345 0
M  V30 13 C 11.246980 2.201966 -17.541937 0
M  V30 14 C 12.465117 2.577607 -16.685526 0
M  V30 15 N 12.477796 3.948731 -16.125097 0 CFG=1 CHG=1
M  V30 16 C 12.330094 5.075196 -17.066339 0
M  V30 17 C 11.974716 6.269217 -16.181465 0 CFG=2
M  V30 18 C 13.156380 7.016772 -15.552116 0
M  V30 19 C 12.608347 7.453003 -14.193233 0
M  V30 20 N 11.685882 6.396879 -13.801983 0
M  V30 21 C 10.880106 6.521434 -12.646850 0
M  V30 22 C 9.683639 5.772019 -12.503249 0
M  V30 23 C 8.888985 5.888060 -11.346605 0
M  V30 24 C 9.287988 6.735083 -10.299272 0
M  V30 25 C 10.484694 7.468659 -10.411954 0
M  V30 26 C 10.927670 8.307918 -9.312201 0
M  V30 27 N 11.283740 8.971915 -8.433691 0
M  V30 28 C 11.266782 7.372325 -11.582363 0
M  V30 29 C 11.230495 5.673248 -14.986791 0 CFG=2
M  V30 30 C 11.597958 4.181706 -14.957779 0
M  V30 31 N 8.353134 0.510373 -16.369303 0
M  V30 32 C 9.187047 -0.220886 -15.438123 0
M  V30 33 H 6.083265 -1.499862 -15.355123 0
M  V30 34 H 4.592007 -1.469254 -14.425111 0
M  V30 35 H 6.120088 -1.849581 -13.632303 0
M  V30 36 H 5.434572 2.861696 -12.326028 0
M  V30 37 H 11.402699 0.129115 -16.895575 0
M  V30 38 H 12.144943 0.447092 -18.429775 0
M  V30 39 H 11.247281 2.747095 -18.486935 0
M  V30 40 H 10.335746 2.479133 -17.014044 0
M  V30 41 H 12.486498 1.886682 -15.846754 0
M  V30 42 H 13.379079 2.423851 -17.259632 0
M  V30 43 H 13.234297 5.238158 -17.654625 0
M  V30 44 H 11.505122 4.892178 -17.755812 0
M  V30 45 H 11.337172 6.972354 -16.715717 0
M  V30 46 H 14.004680 6.346599 -15.402318 0
M  V30 47 H 13.495597 7.858720 -16.157095 0
M  V30 48 H 13.410474 7.589092 -13.467580 0
M  V30 49 H 12.067543 8.394343 -14.281571 0
M  V30 50 H 9.342346 5.096628 -13.272185 0
M  V30 51 H 7.970701 5.325580 -11.258287 0
M  V30 52 H 8.667912 6.814064 -9.415251 0
M  V30 53 H 12.183192 7.940749 -11.638830 0
M  V30 54 H 10.156988 5.779124 -15.144616 0
M  V30 55 H 10.687403 3.583041 -15.024693 0
M  V30 56 H 12.110986 3.891497 -14.037542 0
M  V30 57 H 9.691541 -1.038974 -15.945743 0
M  V30 58 H 8.565982 -0.627416 -14.646827 0
M  V30 59 H 9.924881 0.448578 -14.995381 0
M  V30 60 H 13.409534 4.070660 -15.749151 0
M  V30 END ATOM
M  V30 BEGIN BOND
M  V30 1 1 2 1
M  V30 2 1 3 2
M  V30 3 2 4 3
M  V30 4 1 5 4
M  V30 5 2 6 2
M  V30 6 1 6 5
M  V30 7 1 7 6
M  V30 8 2 8 7
M  V30 9 1 9 8
M  V30 10 2 10 9
M  V30 11 1 11 10
M  V30 12 1 12 11
M  V30 13 1 13 12
M  V30 14 1 14 13
M  V30 15 1 15 14
M  V30 16 1 16 15
M  V30 17 1 17 16
M  V30 18 1 18 17
M  V30 19 1 19 18
M  V30 20 1 20 19
M  V30 21 1 21 20
M  V30 22 2 22 21
M  V30 23 1 23 22
M  V30 24 2 24 23
M  V30 25 1 25 24
M  V30 26 1 26 25
M  V30 27 3 27 26
M  V30 28 1 28 21
M  V30 29 2 28 25
M  V30 30 1 29 17
M  V30 31 1 29 20
M  V30 32 1 30 15
M  V30 33 1 30 29
M  V30 34 1 31 7
M  V30 35 1 31 10
M  V30 36 1 32 31
M  V30 37 1 33 1
M  V30 38 1 34 1
M  V30 39 1 35 1
M  V30 40 1 36 4
M  V30 41 1 37 12
M  V30 42 1 38 12
M  V30 43 1 39 13
M  V30 44 1 40 13
M  V30 45 1 41 14
M  V30 46 1 42 14
M  V30 47 1 43 16
M  V30 48 1 44 16
M  V30 49 1 17 45 CFG=3
M  V30 50 1 46 18
M  V30 51 1 47 18
M  V30 52 1 48 19
M  V30 53 1 49 19
M  V30 54 1 50 22
M  V30 55 1 51 23
M  V30 56 1 52 24
M  V30 57 1 53 28
M  V30 58 1 29 54 CFG=3
M  V30 59 1 55 30
M  V30 60 1 56 30
M  V30 61 1 57 32
M  V30 62 1 58 32
M  V30 63 1 59 32
M  V30 64 1 15 60 CFG=1
M  V30 END BOND
M  V30 END CTAB
M  END
>  <b_m_subgroup_collapsed>  (1894) 
0

>  <r_i_docking_score>  (1894) 
-6.5057057457659599

>  <s_m_subgroup_title>  (1894) 
glide-dock_SP_D22_pv

>  <s_m_subgroupid>  (1894) 
glide-dock_SP_D22_pv

>  <Molecule ChEMBL ID>  (1894) 
CHEMBL3775534

>  <Standard Type>  (1894) 
Ki

>  <Standard Value>  (1894) 
5.75

>  <label>  (1894) 
1

$$$$
CHEMBL381102
     RDKit          3D

  0  0  0  0  0  0  0  0  0  0999 V3000
M  V30 BEGIN CTAB
M  V30 COUNTS 25 26 0 0 1
M  V30 BEGIN ATOM
M  V30 1 O 8.945908 5.536062 -8.252350 0
M  V30 2 C 9.478719 6.611131 -7.982103 0
M  V30 3 C 9.659569 7.699442 -9.047024 0
M  V30 4 C 11.061508 8.341956 -9.016061 0
M  V30 5 C 11.684992 8.400373 -7.609199 0
M  V30 6 C 10.640474 8.156257 -6.500691 0 CFG=2
M  V30 7 C 11.285954 8.164100 -5.117033 0
M  V30 8 C 11.669796 6.962453 -4.480943 0
M  V30 9 C 12.224807 6.972773 -3.185216 0
M  V30 10 C 12.435358 8.198080 -2.524961 0
M  V30 11 C 12.084441 9.402249 -3.159373 0
M  V30 12 C 11.514073 9.387444 -4.449253 0
M  V30 13 O 9.961134 6.923882 -6.753476 0
M  V30 14 H 9.450295 7.286712 -10.033946 0
M  V30 15 H 8.898988 8.460041 -8.868235 0
M  V30 16 H 11.731791 7.792083 -9.678501 0
M  V30 17 H 10.994323 9.347366 -9.433707 0
M  V30 18 H 12.183974 9.359638 -7.462153 0
M  V30 19 H 12.456325 7.633078 -7.543555 0
M  V30 20 H 9.900339 8.958694 -6.523614 0
M  V30 21 H 11.521572 6.014295 -4.976784 0
M  V30 22 H 12.493767 6.044897 -2.701649 0
M  V30 23 H 12.867271 8.216932 -1.534227 0
M  V30 24 H 12.239985 10.342504 -2.649432 0
M  V30 25 H 11.241284 10.320333 -4.920238 0
M  V30 END ATOM
M  V30 BEGIN BOND
M  V30 1 2 2 1
M  V30 2 1 3 2
M  V30 3 1 4 3
M  V30 4 1 5 4
M  V30 5 1 6 5
M  V30 6 1 7 6
M  V30 7 2 8 7
M  V30 8 1 9 8
M  V30 9 2 10 9
M  V30 10 1 11 10
M  V30 11 1 12 7
M  V30 12 2 12 11
M  V30 13 1 13 2
M  V30 14 1 13 6
M  V30 15 1 14 3
M  V30 16 1 15 3
M  V30 17 1 16 4
M  V30 18 1 17 4
M  V30 19 1 18 5
M  V30 20 1 19 5
M  V30 21 1 6 20 CFG=1
M  V30 22 1 21 8
M  V30 23 1 22 9
M  V30 24 1 23 10
M  V30 25 1 24 11
M  V30 26 1 25 12
M  V30 END BOND
M  V30 END CTAB
M  END
>  <b_m_subgroup_collapsed>  (1895) 
0

>  <r_i_docking_score>  (1895) 
-6.5052647702381998

>  <s_m_subgroup_title>  (1895) 
glide-dock_SP_D22_pv

>  <s_m_subgroupid>  (1895) 
glide-dock_SP_D22_pv

>  <Molecule ChEMBL ID>  (1895) 
CHEMBL381102

>  <Standard Type>  (1895) 
Ki

>  <Standard Value>  (1895) 
10000.0

>  <label>  (1895) 
0

$$$$
CHEMBL3187365
     RDKit          3D

  0  0  0  0  0  0  0  0  0  0999 V3000
M  V30 BEGIN CTAB
M  V30 COUNTS 37 40 0 0 1
M  V30 BEGIN ATOM
M  V30 1 C 5.868314 5.448424 -12.077909 0
M  V30 2 N 7.286997 5.772347 -11.841228 0 CFG=1 CHG=1
M  V30 3 C 7.903829 5.077297 -10.694725 0
M  V30 4 C 9.406309 5.072721 -10.953216 0 CFG=2
M  V30 5 C 10.086098 6.243510 -10.230012 0
M  V30 6 C 10.151833 6.172276 -8.817739 0
M  V30 7 C 10.779773 7.181741 -8.064857 0
M  V30 8 C 11.355631 8.284399 -8.718202 0
M  V30 9 C 11.281966 8.379838 -10.119020 0
M  V30 10 C 10.646450 7.373341 -10.875345 0
M  V30 11 O 10.548781 7.563741 -12.220488 0
M  V30 12 C 11.209574 6.701953 -13.046892 0
M  V30 13 C 12.283990 7.178091 -13.823155 0
M  V30 14 C 12.818053 6.381070 -14.850565 0
M  V30 15 C 12.292136 5.098252 -15.084501 0
M  V30 16 Cl 12.885284 4.168783 -16.408106 0
M  V30 17 C 11.252825 4.599219 -14.272893 0
M  V30 18 C 10.693972 5.408270 -13.258350 0
M  V30 19 C 9.463253 4.942596 -12.494472 0 CFG=2
M  V30 20 C 8.173179 5.601985 -13.008780 0
M  V30 21 H 5.715580 4.379134 -12.230309 0
M  V30 22 H 5.496542 5.982815 -12.952829 0
M  V30 23 H 5.280540 5.772296 -11.219616 0
M  V30 24 H 7.685513 5.559729 -9.743623 0
M  V30 25 H 7.528815 4.055121 -10.653710 0
M  V30 26 H 9.848836 4.175303 -10.517583 0
M  V30 27 H 9.726536 5.325051 -8.299243 0
M  V30 28 H 10.824454 7.104844 -6.988192 0
M  V30 29 H 11.845193 9.059657 -8.147362 0
M  V30 30 H 11.710195 9.237923 -10.617057 0
M  V30 31 H 12.667701 8.174173 -13.669380 0
M  V30 32 H 13.616837 6.762471 -15.469714 0
M  V30 33 H 10.848166 3.618000 -14.474687 0
M  V30 34 H 9.352172 3.875253 -12.696678 0
M  V30 35 H 7.718472 4.992497 -13.791731 0
M  V30 36 H 8.355397 6.583176 -13.436539 0
M  V30 37 H 7.295524 6.754018 -11.572476 0
M  V30 END ATOM
M  V30 BEGIN BOND
M  V30 1 1 2 1
M  V30 2 1 3 2
M  V30 3 1 4 3
M  V30 4 1 5 4
M  V30 5 2 6 5
M  V30 6 1 7 6
M  V30 7 2 8 7
M  V30 8 1 9 8
M  V30 9 1 10 5
M  V30 10 2 10 9
M  V30 11 1 11 10
M  V30 12 1 12 11
M  V30 13 1 13 12
M  V30 14 2 14 13
M  V30 15 1 15 14
M  V30 16 1 16 15
M  V30 17 2 17 15
M  V30 18 2 18 12
M  V30 19 1 18 17
M  V30 20 1 19 4
M  V30 21 1 19 18
M  V30 22 1 20 2
M  V30 23 1 20 19
M  V30 24 1 21 1
M  V30 25 1 22 1
M  V30 26 1 23 1
M  V30 27 1 24 3
M  V30 28 1 25 3
M  V30 29 1 4 26 CFG=1
M  V30 30 1 27 6
M  V30 31 1 28 7
M  V30 32 1 29 8
M  V30 33 1 30 9
M  V30 34 1 31 13
M  V30 35 1 32 14
M  V30 36 1 33 17
M  V30 37 1 19 34 CFG=1
M  V30 38 1 35 20
M  V30 39 1 36 20
M  V30 40 1 2 37 CFG=1
M  V30 END BOND
M  V30 END CTAB
M  END
>  <b_m_subgroup_collapsed>  (1896) 
0

>  <r_i_docking_score>  (1896) 
-6.5040875870558201

>  <s_m_subgroup_title>  (1896) 
glide-dock_SP_D22_pv

>  <s_m_subgroupid>  (1896) 
glide-dock_SP_D22_pv

>  <Molecule ChEMBL ID>  (1896) 
CHEMBL3187365

>  <Standard Type>  (1896) 
Ki

>  <Standard Value>  (1896) 
8.9

>  <label>  (1896) 
1

$$$$
CHEMBL2443003
     RDKit          3D

  0  0  0  0  0  0  0  0  0  0999 V3000
M  V30 BEGIN CTAB
M  V30 COUNTS 59 62 0 0 1
M  V30 BEGIN ATOM
M  V30 1 C 11.807068 11.059094 -6.153965 0
M  V30 2 O 11.225281 9.787770 -6.294284 0
M  V30 3 C 11.452892 8.877604 -5.284564 0
M  V30 4 C 12.174021 9.185216 -4.098248 0
M  V30 5 C 12.448497 8.199674 -3.136723 0
M  V30 6 C 12.015260 6.884920 -3.352340 0
M  V30 7 C 11.286745 6.577924 -4.513383 0
M  V30 8 C 10.969621 7.563091 -5.467329 0
M  V30 9 N 10.166376 7.214868 -6.571206 0
M  V30 10 C 10.531102 6.116590 -7.449919 0
M  V30 11 C 10.718517 6.629409 -8.891632 0
M  V30 12 N 9.516782 7.332954 -9.344674 0
M  V30 13 C 9.651937 7.765357 -10.731841 0
M  V30 14 C 9.792444 6.736663 -11.815296 0
M  V30 15 C 8.935036 5.736677 -12.170039 0
M  V30 16 N 9.581583 5.098603 -13.213823 0
M  V30 17 C 9.101941 3.988554 -14.041567 0 CFG=2
M  V30 18 O 7.928749 3.522414 -13.448213 0
M  V30 19 C 7.199174 2.559646 -14.202865 0 CFG=2
M  V30 20 C 5.901912 2.295969 -13.426327 0
M  V30 21 F 5.214715 3.429466 -13.298449 0
M  V30 22 C 8.060489 1.291349 -14.389590 0 CFG=1
M  V30 23 O 7.421007 0.436325 -15.314990 0
M  V30 24 C 9.443394 1.663968 -14.948415 0 CFG=2
M  V30 25 O 10.275321 0.522208 -14.842494 0
M  V30 26 C 10.097554 2.803138 -14.135846 0 CFG=1
M  V30 27 O 11.285873 3.142923 -14.824176 0
M  V30 28 N 10.767599 5.702091 -13.482719 0
M  V30 29 N 10.908243 6.680351 -12.646266 0
M  V30 30 C 9.294596 8.496707 -8.480156 0
M  V30 31 C 9.051232 8.034977 -7.028197 0
M  V30 32 H 11.683176 11.667571 -7.046826 0
M  V30 33 H 11.308315 11.562797 -5.327022 0
M  V30 34 H 12.882215 10.972327 -5.980746 0
M  V30 35 H 12.548633 10.172234 -3.894819 0
M  V30 36 H 12.993898 8.456069 -2.241287 0
M  V30 37 H 12.214821 6.116916 -2.619777 0
M  V30 38 H 10.913109 5.582478 -4.645386 0
M  V30 39 H 9.734281 5.372422 -7.431311 0
M  V30 40 H 11.444917 5.631914 -7.103757 0
M  V30 41 H 10.885642 5.772947 -9.541577 0
M  V30 42 H 11.591319 7.280038 -8.963073 0
M  V30 43 H 10.490532 8.461460 -10.791412 0
M  V30 44 H 8.768158 8.360588 -10.963416 0
M  V30 45 H 7.965613 5.449955 -11.785543 0
M  V30 46 H 8.878675 4.399861 -15.028538 0
M  V30 47 H 6.948019 2.972409 -15.178924 0
M  V30 48 H 5.263845 1.577444 -13.937295 0
M  V30 49 H 6.085164 1.922046 -12.421073 0
M  V30 50 H 8.169907 0.761076 -13.446870 0
M  V30 51 H 7.967388 -0.329273 -15.446572 0
M  V30 52 H 9.355387 1.958171 -15.995298 0
M  V30 53 H 10.353225 0.310855 -13.922734 0
M  V30 54 H 10.340571 2.496697 -13.120547 0
M  V30 55 H 11.770961 2.341358 -14.972821 0
M  V30 56 H 10.152698 9.169336 -8.528069 0
M  V30 57 H 8.429525 9.060277 -8.829192 0
M  V30 58 H 8.136768 7.441610 -6.977937 0
M  V30 59 H 8.891925 8.888701 -6.371335 0
M  V30 END ATOM
M  V30 BEGIN BOND
M  V30 1 1 2 1
M  V30 2 1 3 2
M  V30 3 2 4 3
M  V30 4 1 5 4
M  V30 5 2 6 5
M  V30 6 1 7 6
M  V30 7 1 8 3
M  V30 8 2 8 7
M  V30 9 1 9 8
M  V30 10 1 10 9
M  V30 11 1 11 10
M  V30 12 1 12 11
M  V30 13 1 13 12
M  V30 14 1 14 13
M  V30 15 2 15 14
M  V30 16 1 16 15
M  V30 17 1 17 16
M  V30 18 1 18 17
M  V30 19 1 19 18
M  V30 20 1 20 19
M  V30 21 1 21 20
M  V30 22 1 22 19
M  V30 23 1 23 22
M  V30 24 1 24 22
M  V30 25 1 25 24
M  V30 26 1 26 17
M  V30 27 1 26 24
M  V30 28 1 27 26
M  V30 29 1 28 16
M  V30 30 1 29 14
M  V30 31 2 29 28
M  V30 32 1 30 12
M  V30 33 1 31 9
M  V30 34 1 31 30
M  V30 35 1 32 1
M  V30 36 1 33 1
M  V30 37 1 34 1
M  V30 38 1 35 4
M  V30 39 1 36 5
M  V30 40 1 37 6
M  V30 41 1 38 7
M  V30 42 1 39 10
M  V30 43 1 40 10
M  V30 44 1 41 11
M  V30 45 1 42 11
M  V30 46 1 43 13
M  V30 47 1 44 13
M  V30 48 1 45 15
M  V30 49 1 17 46 CFG=3
M  V30 50 1 19 47 CFG=3
M  V30 51 1 48 20
M  V30 52 1 49 20
M  V30 53 1 22 50 CFG=1
M  V30 54 1 51 23
M  V30 55 1 24 52 CFG=3
M  V30 56 1 53 25
M  V30 57 1 26 54 CFG=1
M  V30 58 1 55 27
M  V30 59 1 56 30
M  V30 60 1 57 30
M  V30 61 1 58 31
M  V30 62 1 59 31
M  V30 END BOND
M  V30 END CTAB
M  END
>  <b_m_subgroup_collapsed>  (1897) 
0

>  <r_i_docking_score>  (1897) 
-6.5020346002588898

>  <s_m_subgroup_title>  (1897) 
glide-dock_SP_D22_pv

>  <s_m_subgroupid>  (1897) 
glide-dock_SP_D22_pv

>  <Molecule ChEMBL ID>  (1897) 
CHEMBL2443003

>  <Standard Type>  (1897) 
Ki

>  <Standard Value>  (1897) 
24000.0

>  <label>  (1897) 
0

$$$$
CHEMBL2031884
     RDKit          3D

  0  0  0  0  0  0  0  0  0  0999 V3000
M  V30 BEGIN CTAB
M  V30 COUNTS 62 65 0 0 1
M  V30 BEGIN ATOM
M  V30 1 C 1.943972 -4.936242 -20.334110 0
M  V30 2 C 2.993732 -5.508948 -19.372013 0
M  V30 3 N 3.686067 -4.450444 -18.646875 0
M  V30 4 C 4.686259 -3.710504 -19.147770 0
M  V30 5 O 5.157767 -3.888922 -20.272125 0
M  V30 6 C 5.177657 -2.587592 -18.279869 0
M  V30 7 C 4.988124 -2.606154 -16.881577 0
M  V30 8 C 5.477635 -1.563367 -16.079237 0
M  V30 9 C 6.214225 -0.498811 -16.641436 0
M  V30 10 C 6.773937 0.563082 -15.785198 0
M  V30 11 C 7.978600 1.222546 -16.116909 0
M  V30 12 C 8.446662 2.303560 -15.346994 0
M  V30 13 C 7.697058 2.771811 -14.246852 0
M  V30 14 C 6.506408 2.097602 -13.891955 0
M  V30 15 C 6.086047 0.972629 -14.624333 0
M  V30 16 C 5.658963 2.610663 -12.747669 0
M  V30 17 C 5.866257 4.115845 -12.526975 0
M  V30 18 N 7.277013 4.528913 -12.609125 0
M  V30 19 C 7.628076 5.718410 -11.829712 0
M  V30 20 C 8.580857 5.404552 -10.655123 0
M  V30 21 N 8.886020 6.615459 -9.855587 0 CFG=2 CHG=1
M  V30 22 C 9.611972 7.682056 -10.576077 0
M  V30 23 C 10.263093 8.520625 -9.483096 0
M  V30 24 C 10.656485 7.475043 -8.445251 0
M  V30 25 C 9.596470 6.364804 -8.575267 0 CFG=1
M  V30 26 C 8.618920 6.346407 -7.390754 0
M  V30 27 C 8.173063 3.957772 -13.449518 0
M  V30 28 O 9.322679 4.379808 -13.589191 0
M  V30 29 C 6.393641 -0.478548 -18.043102 0
M  V30 30 C 5.880026 -1.507365 -18.854538 0
M  V30 31 H 1.397744 -5.736618 -20.833176 0
M  V30 32 H 1.218962 -4.320405 -19.802273 0
M  V30 33 H 2.406104 -4.319072 -21.105021 0
M  V30 34 H 3.710212 -6.129632 -19.912363 0
M  V30 35 H 2.505626 -6.159457 -18.646961 0
M  V30 36 H 3.341063 -4.259464 -17.698950 0
M  V30 37 H 4.486207 -3.427319 -16.396034 0
M  V30 38 H 5.334088 -1.629311 -15.011458 0
M  V30 39 H 8.552038 0.908840 -16.976593 0
M  V30 40 H 9.369514 2.790655 -15.627856 0
M  V30 41 H 5.158710 0.493790 -14.347298 0
M  V30 42 H 4.604733 2.409917 -12.943350 0
M  V30 43 H 5.913767 2.057093 -11.846963 0
M  V30 44 H 5.326242 4.667487 -13.298337 0
M  V30 45 H 5.418139 4.397707 -11.573280 0
M  V30 46 H 8.065323 6.460229 -12.499581 0
M  V30 47 H 6.716860 6.172273 -11.446834 0
M  V30 48 H 8.104825 4.669438 -10.003994 0
M  V30 49 H 9.512337 4.957315 -11.005092 0
M  V30 50 H 10.380763 7.244024 -11.214961 0
M  V30 51 H 8.942301 8.272682 -11.202410 0
M  V30 52 H 11.109924 9.107059 -9.842003 0
M  V30 53 H 9.530532 9.209144 -9.058792 0
M  V30 54 H 11.638418 7.072580 -8.695913 0
M  V30 55 H 10.724976 7.893754 -7.440331 0
M  V30 56 H 10.111160 5.402680 -8.618608 0
M  V30 57 H 9.144392 6.172329 -6.451625 0
M  V30 58 H 8.087047 7.293622 -7.288919 0
M  V30 59 H 7.872240 5.559530 -7.503809 0
M  V30 60 H 6.932321 0.330563 -18.512339 0
M  V30 61 H 6.040584 -1.467359 -19.922413 0
M  V30 62 H 7.978850 7.024658 -9.626400 0
M  V30 END ATOM
M  V30 BEGIN BOND
M  V30 1 1 2 1
M  V30 2 1 3 2
M  V30 3 1 4 3
M  V30 4 2 5 4
M  V30 5 1 6 4
M  V30 6 1 7 6
M  V30 7 2 8 7
M  V30 8 1 9 8
M  V30 9 1 10 9
M  V30 10 1 11 10
M  V30 11 2 12 11
M  V30 12 1 13 12
M  V30 13 2 14 13
M  V30 14 2 15 10
M  V30 15 1 15 14
M  V30 16 1 16 14
M  V30 17 1 17 16
M  V30 18 1 18 17
M  V30 19 1 19 18
M  V30 20 1 20 19
M  V30 21 1 21 20
M  V30 22 1 22 21
M  V30 23 1 23 22
M  V30 24 1 24 23
M  V30 25 1 25 21
M  V30 26 1 25 24
M  V30 27 1 26 25
M  V30 28 1 27 13
M  V30 29 1 27 18
M  V30 30 2 28 27
M  V30 31 2 29 9
M  V30 32 2 30 6
M  V30 33 1 30 29
M  V30 34 1 31 1
M  V30 35 1 32 1
M  V30 36 1 33 1
M  V30 37 1 34 2
M  V30 38 1 35 2
M  V30 39 1 36 3
M  V30 40 1 37 7
M  V30 41 1 38 8
M  V30 42 1 39 11
M  V30 43 1 40 12
M  V30 44 1 41 15
M  V30 45 1 42 16
M  V30 46 1 43 16
M  V30 47 1 44 17
M  V30 48 1 45 17
M  V30 49 1 46 19
M  V30 50 1 47 19
M  V30 51 1 48 20
M  V30 52 1 49 20
M  V30 53 1 50 22
M  V30 54 1 51 22
M  V30 55 1 52 23
M  V30 56 1 53 23
M  V30 57 1 54 24
M  V30 58 1 55 24
M  V30 59 1 25 56 CFG=3
M  V30 60 1 57 26
M  V30 61 1 58 26
M  V30 62 1 59 26
M  V30 63 1 60 29
M  V30 64 1 61 30
M  V30 65 1 21 62 CFG=1
M  V30 END BOND
M  V30 END CTAB
M  END
>  <b_m_subgroup_collapsed>  (1898) 
0

>  <r_i_docking_score>  (1898) 
-6.5008932852172103

>  <s_m_subgroup_title>  (1898) 
glide-dock_SP_D22_pv

>  <s_m_subgroupid>  (1898) 
glide-dock_SP_D22_pv

>  <Molecule ChEMBL ID>  (1898) 
CHEMBL2031884

>  <Standard Type>  (1898) 
Ki

>  <Standard Value>  (1898) 
10000.0

>  <label>  (1898) 
0

$$$$
CHEMBL3187365
     RDKit          3D

  0  0  0  0  0  0  0  0  0  0999 V3000
M  V30 BEGIN CTAB
M  V30 COUNTS 37 40 0 0 1
M  V30 BEGIN ATOM
M  V30 1 C 5.933880 5.305291 -12.512593 0
M  V30 2 N 7.232604 4.837089 -12.001961 0 CFG=1 CHG=1
M  V30 3 C 8.286533 4.669028 -13.017644 0
M  V30 4 C 9.607784 4.663198 -12.227657 0 CFG=1
M  V30 5 C 10.761297 5.199203 -13.068258 0
M  V30 6 C 11.407752 4.310976 -13.957053 0
M  V30 7 C 12.413004 4.770466 -14.827793 0
M  V30 8 C 12.778929 6.128040 -14.819704 0
M  V30 9 C 12.156173 7.015858 -13.922909 0
M  V30 10 C 11.152359 6.558657 -13.046283 0
M  V30 11 O 10.517678 7.467885 -12.246879 0
M  V30 12 C 10.705500 7.374309 -10.897682 0
M  V30 13 C 11.453305 8.362631 -10.223960 0
M  V30 14 C 11.541747 8.350823 -8.818121 0
M  V30 15 C 10.874433 7.354596 -8.081137 0
M  V30 16 Cl 10.910536 7.372986 -6.356236 0
M  V30 17 C 10.160484 6.347081 -8.754592 0
M  V30 18 C 10.086052 6.340757 -10.165149 0
M  V30 19 C 9.245047 5.272960 -10.843301 0 CFG=1
M  V30 20 C 7.819908 5.754111 -11.021751 0
M  V30 21 H 6.023563 6.253131 -13.044744 0
M  V30 22 H 5.284699 5.467877 -11.656000 0
M  V30 23 H 5.475922 4.567841 -13.172511 0
M  V30 24 H 8.147608 3.768305 -13.616220 0
M  V30 25 H 8.261560 5.526122 -13.693780 0
M  V30 26 H 9.859911 3.620365 -12.024487 0
M  V30 27 H 11.120311 3.269572 -13.990616 0
M  V30 28 H 12.895795 4.084459 -15.508804 0
M  V30 29 H 13.547072 6.485522 -15.489463 0
M  V30 30 H 12.442536 8.056981 -13.919320 0
M  V30 31 H 11.938685 9.151673 -10.779422 0
M  V30 32 H 12.100118 9.120499 -8.306691 0
M  V30 33 H 9.650213 5.588959 -8.178015 0
M  V30 34 H 9.205808 4.432577 -10.147816 0
M  V30 35 H 7.824418 6.758929 -11.446936 0
M  V30 36 H 7.286110 5.772347 -10.076488 0
M  V30 37 H 7.090324 3.955218 -11.530253 0
M  V30 END ATOM
M  V30 BEGIN BOND
M  V30 1 1 2 1
M  V30 2 1 3 2
M  V30 3 1 4 3
M  V30 4 1 5 4
M  V30 5 2 6 5
M  V30 6 1 7 6
M  V30 7 2 8 7
M  V30 8 1 9 8
M  V30 9 1 10 5
M  V30 10 2 10 9
M  V30 11 1 11 10
M  V30 12 1 12 11
M  V30 13 1 13 12
M  V30 14 2 14 13
M  V30 15 1 15 14
M  V30 16 1 16 15
M  V30 17 2 17 15
M  V30 18 2 18 12
M  V30 19 1 18 17
M  V30 20 1 19 4
M  V30 21 1 19 18
M  V30 22 1 20 2
M  V30 23 1 20 19
M  V30 24 1 21 1
M  V30 25 1 22 1
M  V30 26 1 23 1
M  V30 27 1 24 3
M  V30 28 1 25 3
M  V30 29 1 4 26 CFG=1
M  V30 30 1 27 6
M  V30 31 1 28 7
M  V30 32 1 29 8
M  V30 33 1 30 9
M  V30 34 1 31 13
M  V30 35 1 32 14
M  V30 36 1 33 17
M  V30 37 1 19 34 CFG=1
M  V30 38 1 35 20
M  V30 39 1 36 20
M  V30 40 1 2 37 CFG=1
M  V30 END BOND
M  V30 END CTAB
M  END
>  <b_m_subgroup_collapsed>  (1899) 
0

>  <r_i_docking_score>  (1899) 
-6.5008549099692496

>  <s_m_subgroup_title>  (1899) 
glide-dock_SP_D22_pv

>  <s_m_subgroupid>  (1899) 
glide-dock_SP_D22_pv

>  <Molecule ChEMBL ID>  (1899) 
CHEMBL3187365

>  <Standard Type>  (1899) 
Ki

>  <Standard Value>  (1899) 
8.9

>  <label>  (1899) 
1

$$$$
CHEMBL4451063
     RDKit          3D

  0  0  0  0  0  0  0  0  0  0999 V3000
M  V30 BEGIN CTAB
M  V30 COUNTS 61 65 0 0 1
M  V30 BEGIN ATOM
M  V30 1 C 6.108453 3.668844 -13.891508 0
M  V30 2 C 7.299863 4.562022 -13.506720 0 CFG=1
M  V30 3 C 6.812547 5.678289 -12.553566 0
M  V30 4 O 7.924005 6.455432 -12.149022 0
M  V30 5 C 8.768245 5.690894 -11.311384 0 CFG=2
M  V30 6 C 9.793699 6.560590 -10.612627 0
M  V30 7 C 10.688708 7.371592 -11.340184 0
M  V30 8 C 11.684584 8.075514 -10.638734 0
M  V30 9 C 11.725949 7.953650 -9.238570 0
M  V30 10 N 12.735488 8.571973 -8.518932 0
M  V30 11 N 10.851860 7.219678 -8.526896 0
M  V30 12 C 9.901789 6.542668 -9.205516 0
M  V30 13 C 9.424616 4.630172 -12.216712 0
M  V30 14 N 8.413146 3.773224 -12.893911 0 CFG=2 CHG=1
M  V30 15 C 9.043351 2.747020 -13.769637 0
M  V30 16 C 9.813250 3.300231 -14.958280 0 CFG=2
M  V30 17 C 10.764238 2.395147 -15.707677 0
M  V30 18 C 11.314097 3.536857 -14.887114 0 CFG=1
M  V30 19 C 11.971739 4.734192 -15.552433 0
M  V30 20 N 11.233305 5.291683 -16.675949 0
M  V30 21 C 11.707563 6.156715 -17.579409 0
M  V30 22 O 12.859255 6.592628 -17.573431 0
M  V30 23 C 10.728092 6.565005 -18.603722 0
M  V30 24 C 9.411280 6.230645 -18.809753 0
M  V30 25 C 8.965393 6.972328 -19.954704 0
M  V30 26 C 7.738576 7.083106 -20.648907 0
M  V30 27 C 7.613023 7.924110 -21.773642 0
M  V30 28 C 8.718022 8.667100 -22.231825 0
M  V30 29 C 9.952223 8.574480 -21.562387 0
M  V30 30 C 10.065100 7.742057 -20.436317 0
M  V30 31 N 11.111857 7.469956 -19.580185 0
M  V30 32 H 5.275743 4.275332 -14.245740 0
M  V30 33 H 6.357452 2.972541 -14.691956 0
M  V30 34 H 5.748129 3.091961 -13.038721 0
M  V30 35 H 7.687115 5.051250 -14.397752 0
M  V30 36 H 6.286367 5.267780 -11.688672 0
M  V30 37 H 6.097942 6.335643 -13.046837 0
M  V30 38 H 8.178425 5.199658 -10.533262 0
M  V30 39 H 10.639754 7.423862 -12.418470 0
M  V30 40 H 12.411306 8.679132 -11.162876 0
M  V30 41 H 13.311760 9.274719 -8.971392 0
M  V30 42 H 12.682305 8.614786 -7.513255 0
M  V30 43 H 9.233500 5.941847 -8.605762 0
M  V30 44 H 10.039008 5.127199 -12.966815 0
M  V30 45 H 10.085753 3.997349 -11.624685 0
M  V30 46 H 9.734026 2.172645 -13.159641 0
M  V30 47 H 8.300674 2.034113 -14.124567 0
M  V30 48 H 9.225471 3.948716 -15.600373 0
M  V30 49 H 10.920116 1.388602 -15.325970 0
M  V30 50 H 10.799667 2.486010 -16.790915 0
M  V30 51 H 11.805391 3.242368 -13.962027 0
M  V30 52 H 12.102456 5.517374 -14.804688 0
M  V30 53 H 12.971986 4.441245 -15.874410 0
M  V30 54 H 10.274082 5.001861 -16.786718 0
M  V30 55 H 8.804339 5.553874 -18.227068 0
M  V30 56 H 6.886031 6.514709 -20.308327 0
M  V30 57 H 6.666532 7.995969 -22.288822 0
M  V30 58 H 8.619545 9.308447 -23.096195 0
M  V30 59 H 10.800352 9.148594 -21.905878 0
M  V30 60 H 12.040154 7.871586 -19.608383 0
M  V30 61 H 7.977471 3.257137 -12.143321 0
M  V30 END ATOM
M  V30 BEGIN BOND
M  V30 1 1 2 1
M  V30 2 1 3 2
M  V30 3 1 4 3
M  V30 4 1 5 4
M  V30 5 1 6 5
M  V30 6 1 7 6
M  V30 7 2 8 7
M  V30 8 1 9 8
M  V30 9 1 10 9
M  V30 10 2 11 9
M  V30 11 2 12 6
M  V30 12 1 12 11
M  V30 13 1 13 5
M  V30 14 1 14 2
M  V30 15 1 14 13
M  V30 16 1 15 14
M  V30 17 1 16 15
M  V30 18 1 17 16
M  V30 19 1 18 16
M  V30 20 1 18 17
M  V30 21 1 19 18
M  V30 22 1 20 19
M  V30 23 1 21 20
M  V30 24 2 22 21
M  V30 25 1 23 21
M  V30 26 2 24 23
M  V30 27 1 25 24
M  V30 28 2 26 25
M  V30 29 1 27 26
M  V30 30 2 28 27
M  V30 31 1 29 28
M  V30 32 1 30 25
M  V30 33 2 30 29
M  V30 34 1 31 23
M  V30 35 1 31 30
M  V30 36 1 32 1
M  V30 37 1 33 1
M  V30 38 1 34 1
M  V30 39 1 2 35 CFG=3
M  V30 40 1 36 3
M  V30 41 1 37 3
M  V30 42 1 5 38 CFG=1
M  V30 43 1 39 7
M  V30 44 1 40 8
M  V30 45 1 41 10
M  V30 46 1 42 10
M  V30 47 1 43 12
M  V30 48 1 44 13
M  V30 49 1 45 13
M  V30 50 1 46 15
M  V30 51 1 47 15
M  V30 52 1 16 48 CFG=3
M  V30 53 1 49 17
M  V30 54 1 50 17
M  V30 55 1 18 51 CFG=1
M  V30 56 1 52 19
M  V30 57 1 53 19
M  V30 58 1 54 20
M  V30 59 1 55 24
M  V30 60 1 56 26
M  V30 61 1 57 27
M  V30 62 1 58 28
M  V30 63 1 59 29
M  V30 64 1 60 31
M  V30 65 1 14 61 CFG=1
M  V30 END BOND
M  V30 END CTAB
M  END
>  <b_m_subgroup_collapsed>  (1900) 
0

>  <r_i_docking_score>  (1900) 
-6.4995294787730096

>  <s_m_subgroup_title>  (1900) 
glide-dock_SP_D22_pv

>  <s_m_subgroupid>  (1900) 
glide-dock_SP_D22_pv

>  <Molecule ChEMBL ID>  (1900) 
CHEMBL4451063

>  <Standard Type>  (1900) 
Ki

>  <Standard Value>  (1900) 
14100.0

>  <label>  (1900) 
0

$$$$
CHEMBL191795
     RDKit          3D

  0  0  0  0  0  0  0  0  0  0999 V3000
M  V30 BEGIN CTAB
M  V30 COUNTS 53 55 0 0 1
M  V30 BEGIN ATOM
M  V30 1 O 7.305087 1.910184 -14.247274 0
M  V30 2 C 7.267313 0.835522 -14.846329 0
M  V30 3 N 8.355669 0.172065 -15.271372 0
M  V30 4 C 9.746202 0.611178 -15.203733 0
M  V30 5 C 9.913317 2.030914 -15.706887 0
M  V30 6 C 10.615138 2.978907 -15.071404 0
M  V30 7 C 10.670697 4.426834 -15.521860 0
M  V30 8 N 10.304411 5.372212 -14.432693 0 CHG=1
M  V30 9 C 9.064872 5.016468 -13.682562 0
M  V30 10 C 8.672809 6.120647 -12.683756 0
M  V30 11 N 9.811741 6.488929 -11.841954 0
M  V30 12 C 9.690005 6.428275 -10.433784 0
M  V30 13 C 8.988552 5.339647 -9.868106 0
M  V30 14 C 8.790539 5.238640 -8.482324 0
M  V30 15 C 9.286903 6.234224 -7.628624 0
M  V30 16 C 10.009293 7.315485 -8.160082 0
M  V30 17 Cl 10.619102 8.518272 -7.074207 0
M  V30 18 C 10.225513 7.413682 -9.554607 0
M  V30 19 Cl 11.126327 8.770744 -10.140356 0
M  V30 20 C 11.075400 6.786050 -12.512770 0
M  V30 21 C 11.443299 5.690822 -13.536607 0
M  V30 22 C 5.953583 0.171901 -15.150689 0
M  V30 23 C 4.991868 0.068391 -14.120130 0
M  V30 24 C 3.733187 -0.520594 -14.365819 0
M  V30 25 C 3.443355 -1.027776 -15.643893 0
M  V30 26 C 4.386842 -0.924664 -16.678600 0
M  V30 27 C 5.627090 -0.291248 -16.459389 0
M  V30 28 N 6.511560 -0.079223 -17.617685 0 CHG=1
M  V30 29 O 6.819656 1.077053 -17.897032 0
M  V30 30 O 6.872246 -1.065058 -18.248163 0 CHG=-1
M  V30 31 H 8.195079 -0.748603 -15.666453 0
M  V30 32 H 10.347588 -0.057432 -15.820800 0
M  V30 33 H 10.115194 0.512404 -14.184114 0
M  V30 34 H 9.400823 2.269634 -16.628416 0
M  V30 35 H 11.158969 2.721048 -14.171419 0
M  V30 36 H 11.667648 4.649086 -15.908099 0
M  V30 37 H 9.976437 4.568804 -16.354391 0
M  V30 38 H 8.243629 4.845715 -14.381433 0
M  V30 39 H 9.212006 4.085483 -13.135264 0
M  V30 40 H 8.330731 7.007421 -13.209435 0
M  V30 41 H 7.811139 5.806071 -12.094925 0
M  V30 42 H 8.585643 4.556848 -10.493905 0
M  V30 43 H 8.234696 4.405981 -8.079232 0
M  V30 44 H 9.114500 6.173762 -6.562813 0
M  V30 45 H 10.974519 7.747782 -13.018478 0
M  V30 46 H 11.894536 6.893678 -11.801507 0
M  V30 47 H 11.760108 4.773543 -13.045510 0
M  V30 48 H 12.296083 6.032399 -14.126445 0
M  V30 49 H 5.211608 0.454842 -13.134835 0
M  V30 50 H 2.992061 -0.577588 -13.585603 0
M  V30 51 H 2.487080 -1.482075 -15.847976 0
M  V30 52 H 4.129218 -1.290939 -17.663052 0
M  V30 53 H 10.092321 6.246092 -14.893525 0
M  V30 END ATOM
M  V30 BEGIN BOND
M  V30 1 2 2 1
M  V30 2 1 3 2
M  V30 3 1 4 3
M  V30 4 1 5 4
M  V30 5 2 6 5
M  V30 6 1 7 6
M  V30 7 1 8 7
M  V30 8 1 9 8
M  V30 9 1 10 9
M  V30 10 1 11 10
M  V30 11 1 12 11
M  V30 12 2 13 12
M  V30 13 1 14 13
M  V30 14 2 15 14
M  V30 15 1 16 15
M  V30 16 1 17 16
M  V30 17 1 18 12
M  V30 18 2 18 16
M  V30 19 1 19 18
M  V30 20 1 20 11
M  V30 21 1 21 8
M  V30 22 1 21 20
M  V30 23 1 22 2
M  V30 24 2 23 22
M  V30 25 1 24 23
M  V30 26 2 25 24
M  V30 27 1 26 25
M  V30 28 1 27 22
M  V30 29 2 27 26
M  V30 30 1 28 27
M  V30 31 2 29 28
M  V30 32 1 30 28
M  V30 33 1 31 3
M  V30 34 1 32 4
M  V30 35 1 33 4
M  V30 36 1 34 5
M  V30 37 1 35 6
M  V30 38 1 36 7
M  V30 39 1 37 7
M  V30 40 1 38 9
M  V30 41 1 39 9
M  V30 42 1 40 10
M  V30 43 1 41 10
M  V30 44 1 42 13
M  V30 45 1 43 14
M  V30 46 1 44 15
M  V30 47 1 45 20
M  V30 48 1 46 20
M  V30 49 1 47 21
M  V30 50 1 48 21
M  V30 51 1 49 23
M  V30 52 1 50 24
M  V30 53 1 51 25
M  V30 54 1 52 26
M  V30 55 1 53 8
M  V30 END BOND
M  V30 END CTAB
M  END
>  <b_m_subgroup_collapsed>  (1901) 
0

>  <r_i_docking_score>  (1901) 
-6.4990616676524304

>  <s_m_subgroup_title>  (1901) 
glide-dock_SP_D22_pv

>  <s_m_subgroupid>  (1901) 
glide-dock_SP_D22_pv

>  <Molecule ChEMBL ID>  (1901) 
CHEMBL191795

>  <Standard Type>  (1901) 
Ki

>  <Standard Value>  (1901) 
7.4

>  <label>  (1901) 
1

$$$$
CHEMBL6025845
     RDKit          3D

  0  0  0  0  0  0  0  0  0  0999 V3000
M  V30 BEGIN CTAB
M  V30 COUNTS 70 73 0 0 1
M  V30 BEGIN ATOM
M  V30 1 C 12.735728 8.562448 -1.486316 0
M  V30 2 C 12.206959 8.410264 -2.861543 0
M  V30 3 N 12.071823 7.238127 -3.478254 0
M  V30 4 C 11.545050 7.375034 -4.765463 0
M  V30 5 C 11.286237 8.679996 -5.122241 0
M  V30 6 C 10.706396 9.230089 -6.386432 0
M  V30 7 C 10.953259 8.336516 -7.599483 0
M  V30 8 O 12.087317 8.203650 -8.058331 0
M  V30 9 N 9.876411 7.716145 -8.095903 0
M  V30 10 C 9.892750 6.791619 -9.219209 0 CFG=1
M  V30 11 C 8.817254 5.725004 -8.971078 0
M  V30 12 C 8.687675 4.782549 -10.159033 0
M  V30 13 C 8.435871 5.531212 -11.478111 0 CFG=2
M  V30 14 C 8.243864 4.540348 -12.636405 0
M  V30 15 C 9.539981 3.889866 -13.166429 0
M  V30 16 N 9.338825 2.586492 -13.847195 0 CFG=2 CHG=1
M  V30 17 C 10.593744 2.099190 -14.485675 0
M  V30 18 C 10.412193 0.717076 -15.136262 0
M  V30 19 N 9.218637 0.703730 -15.972912 0
M  V30 20 C 9.234892 -0.029003 -17.176346 0
M  V30 21 N 10.086551 -1.026887 -17.354218 0
M  V30 22 O 9.871987 -1.474588 -18.655336 0
M  V30 23 C 8.897362 -0.721394 -19.210964 0
M  V30 24 C 8.446382 0.236837 -18.346113 0
M  V30 25 C 7.403491 1.282560 -18.676224 0
M  V30 26 C 5.967368 0.765305 -18.491199 0
M  V30 27 F 7.598901 2.402045 -17.980118 0
M  V30 28 F 7.535230 1.609109 -19.962330 0
M  V30 29 C 7.974152 1.136057 -15.352316 0 CFG=1
M  V30 30 C 7.474852 0.153822 -14.277548 0
M  V30 31 C 8.185495 2.552077 -14.787884 0
M  V30 32 C 9.525559 6.590284 -11.736672 0
M  V30 33 C 9.660763 7.550395 -10.543536 0
M  V30 34 S 11.683760 9.771723 -3.830092 0
M  V30 35 H 13.685891 9.087849 -1.507810 0
M  V30 36 H 12.035142 9.131292 -0.876958 0
M  V30 37 H 12.886215 7.580147 -1.049844 0
M  V30 38 H 11.382672 6.485914 -5.357808 0
M  V30 39 H 9.634807 9.372183 -6.246560 0
M  V30 40 H 11.128201 10.212065 -6.594950 0
M  V30 41 H 8.977439 7.875724 -7.658054 0
M  V30 42 H 10.858923 6.284155 -9.265548 0
M  V30 43 H 9.055761 5.153552 -8.071317 0
M  V30 44 H 7.842873 6.172621 -8.789088 0
M  V30 45 H 9.585053 4.171723 -10.223879 0
M  V30 46 H 7.844605 4.126493 -9.958066 0
M  V30 47 H 7.490963 6.065414 -11.366164 0
M  V30 48 H 7.546491 3.774158 -12.293262 0
M  V30 49 H 7.741331 5.052428 -13.460621 0
M  V30 50 H 10.033821 4.588122 -13.845641 0
M  V30 51 H 10.235567 3.715079 -12.346443 0
M  V30 52 H 10.908385 2.816667 -15.245969 0
M  V30 53 H 11.393842 2.053157 -13.746953 0
M  V30 54 H 11.297028 0.484492 -15.723668 0
M  V30 55 H 10.328714 -0.058772 -14.373761 0
M  V30 56 H 8.641083 -0.968232 -20.230520 0
M  V30 57 H 5.234868 1.539542 -18.720327 0
M  V30 58 H 5.768401 -0.075739 -19.158407 0
M  V30 59 H 5.772316 0.418117 -17.478539 0
M  V30 60 H 7.188522 1.192328 -16.092520 0
M  V30 61 H 6.528891 0.499128 -13.857811 0
M  V30 62 H 7.290856 -0.833226 -14.702105 0
M  V30 63 H 8.174908 0.043253 -13.449143 0
M  V30 64 H 7.254320 2.864099 -14.316883 0
M  V30 65 H 8.388721 3.251638 -15.599577 0
M  V30 66 H 10.486356 6.111826 -11.905532 0
M  V30 67 H 9.296224 7.149234 -12.645374 0
M  V30 68 H 8.761986 8.162426 -10.467970 0
M  V30 69 H 10.484180 8.243296 -10.725124 0
M  V30 70 H 9.138118 1.914318 -13.118856 0
M  V30 END ATOM
M  V30 BEGIN BOND
M  V30 1 1 2 1
M  V30 2 2 3 2
M  V30 3 1 4 3
M  V30 4 2 5 4
M  V30 5 1 6 5
M  V30 6 1 7 6
M  V30 7 2 8 7
M  V30 8 1 9 7
M  V30 9 1 10 9
M  V30 10 1 11 10
M  V30 11 1 12 11
M  V30 12 1 13 12
M  V30 13 1 14 13
M  V30 14 1 15 14
M  V30 15 1 16 15
M  V30 16 1 17 16
M  V30 17 1 18 17
M  V30 18 1 19 18
M  V30 19 1 20 19
M  V30 20 2 21 20
M  V30 21 1 22 21
M  V30 22 1 23 22
M  V30 23 1 24 20
M  V30 24 2 24 23
M  V30 25 1 25 24
M  V30 26 1 26 25
M  V30 27 1 27 25
M  V30 28 1 28 25
M  V30 29 1 29 19
M  V30 30 1 30 29
M  V30 31 1 31 16
M  V30 32 1 31 29
M  V30 33 1 32 13
M  V30 34 1 33 10
M  V30 35 1 33 32
M  V30 36 1 34 2
M  V30 37 1 34 5
M  V30 38 1 35 1
M  V30 39 1 36 1
M  V30 40 1 37 1
M  V30 41 1 38 4
M  V30 42 1 39 6
M  V30 43 1 40 6
M  V30 44 1 41 9
M  V30 45 1 10 42 CFG=3
M  V30 46 1 43 11
M  V30 47 1 44 11
M  V30 48 1 45 12
M  V30 49 1 46 12
M  V30 50 1 13 47 CFG=1
M  V30 51 1 48 14
M  V30 52 1 49 14
M  V30 53 1 50 15
M  V30 54 1 51 15
M  V30 55 1 52 17
M  V30 56 1 53 17
M  V30 57 1 54 18
M  V30 58 1 55 18
M  V30 59 1 56 23
M  V30 60 1 57 26
M  V30 61 1 58 26
M  V30 62 1 59 26
M  V30 63 1 29 60 CFG=3
M  V30 64 1 61 30
M  V30 65 1 62 30
M  V30 66 1 63 30
M  V30 67 1 64 31
M  V30 68 1 65 31
M  V30 69 1 66 32
M  V30 70 1 67 32
M  V30 71 1 68 33
M  V30 72 1 69 33
M  V30 73 1 16 70 CFG=1
M  V30 END BOND
M  V30 END CTAB
M  END
>  <b_m_subgroup_collapsed>  (1902) 
0

>  <r_i_docking_score>  (1902) 
-6.4989391964088998

>  <s_m_subgroup_title>  (1902) 
glide-dock_SP_D22_pv

>  <s_m_subgroupid>  (1902) 
glide-dock_SP_D22_pv

>  <Molecule ChEMBL ID>  (1902) 
CHEMBL6025845

>  <Standard Type>  (1902) 
Ki

>  <Standard Value>  (1902) 
68.0

>  <label>  (1902) 
1

$$$$
CHEMBL127114
     RDKit          3D

  0  0  0  0  0  0  0  0  0  0999 V3000
M  V30 BEGIN CTAB
M  V30 COUNTS 64 67 0 0 1
M  V30 BEGIN ATOM
M  V30 1 C 11.803811 11.069702 -6.162540 0
M  V30 2 O 11.227668 9.798315 -6.316038 0
M  V30 3 C 11.459209 8.888270 -5.307907 0
M  V30 4 C 12.202332 9.187069 -4.132360 0
M  V30 5 C 12.485730 8.196371 -3.178808 0
M  V30 6 C 12.037148 6.885719 -3.389919 0
M  V30 7 C 11.285979 6.587456 -4.540721 0
M  V30 8 C 10.957900 7.579065 -5.489532 0
M  V30 9 N 10.134514 7.264676 -6.588848 0
M  V30 10 C 10.394304 6.093409 -7.404724 0
M  V30 11 C 10.445454 6.468148 -8.895882 0
M  V30 12 N 9.286031 7.308726 -9.317456 0 CHG=1
M  V30 13 C 9.293380 7.657806 -10.764816 0
M  V30 14 C 9.092006 6.442029 -11.694755 0
M  V30 15 C 7.653792 5.893991 -11.720042 0
M  V30 16 C 7.464334 4.485169 -12.304128 0
M  V30 17 N 8.079153 4.265308 -13.613295 0
M  V30 18 C 9.313819 3.767388 -13.781563 0
M  V30 19 O 10.085935 3.602209 -12.840856 0
M  V30 20 C 9.679490 3.411601 -15.184309 0 CFG=1
M  V30 21 C 11.047236 3.853048 -15.671687 0
M  V30 22 C 10.795688 2.395740 -15.366261 0 CFG=2
M  V30 23 C 10.739662 1.359306 -16.444860 0
M  V30 24 C 9.715146 0.389304 -16.446762 0
M  V30 25 C 9.673096 -0.599042 -17.449270 0
M  V30 26 C 10.658665 -0.628656 -18.454077 0
M  V30 27 C 11.687660 0.330601 -18.453014 0
M  V30 28 C 11.726330 1.321737 -17.452347 0
M  V30 29 C 9.127414 8.507627 -8.448036 0
M  V30 30 C 9.001947 8.099689 -6.970120 0
M  V30 31 H 11.686001 11.689320 -7.046854 0
M  V30 32 H 11.296492 11.563226 -5.329781 0
M  V30 33 H 12.877770 10.972266 -5.990129 0
M  V30 34 H 12.584238 10.172206 -3.927997 0
M  V30 35 H 13.050093 8.446625 -2.291201 0
M  V30 36 H 12.243998 6.113239 -2.663314 0
M  V30 37 H 10.890514 5.597038 -4.653655 0
M  V30 38 H 9.593014 5.374496 -7.235862 0
M  V30 39 H 11.331406 5.618009 -7.109602 0
M  V30 40 H 10.486151 5.538712 -9.458019 0
M  V30 41 H 11.367785 7.012112 -9.103693 0
M  V30 42 H 10.238383 8.149153 -11.000899 0
M  V30 43 H 8.513484 8.391188 -10.975795 0
M  V30 44 H 9.791389 5.652792 -11.442772 0
M  V30 45 H 9.362391 6.737386 -12.705564 0
M  V30 46 H 7.005426 6.599070 -12.243059 0
M  V30 47 H 7.285824 5.822877 -10.697583 0
M  V30 48 H 6.397799 4.270939 -12.385627 0
M  V30 49 H 7.852226 3.772490 -11.579823 0
M  V30 50 H 7.490234 4.380286 -14.425548 0
M  V30 51 H 8.878701 3.424549 -15.922379 0
M  V30 52 H 11.680841 4.409346 -14.981313 0
M  V30 53 H 11.117631 4.162744 -16.713175 0
M  V30 54 H 11.283270 1.981335 -14.483080 0
M  V30 55 H 8.960120 0.398603 -15.674462 0
M  V30 56 H 8.881633 -1.332874 -17.447823 0
M  V30 57 H 10.627226 -1.390252 -19.218199 0
M  V30 58 H 12.447307 0.310536 -19.219843 0
M  V30 59 H 12.523987 2.050507 -17.453823 0
M  V30 60 H 9.988940 9.163457 -8.579649 0
M  V30 61 H 8.251026 9.084134 -8.742847 0
M  V30 62 H 8.086295 7.524274 -6.824020 0
M  V30 63 H 8.911258 8.972042 -6.325750 0
M  V30 64 H 8.439030 6.774333 -9.168903 0
M  V30 END ATOM
M  V30 BEGIN BOND
M  V30 1 1 2 1
M  V30 2 1 3 2
M  V30 3 2 4 3
M  V30 4 1 5 4
M  V30 5 2 6 5
M  V30 6 1 7 6
M  V30 7 1 8 3
M  V30 8 2 8 7
M  V30 9 1 9 8
M  V30 10 1 10 9
M  V30 11 1 11 10
M  V30 12 1 12 11
M  V30 13 1 13 12
M  V30 14 1 14 13
M  V30 15 1 15 14
M  V30 16 1 16 15
M  V30 17 1 17 16
M  V30 18 1 18 17
M  V30 19 2 19 18
M  V30 20 1 20 18
M  V30 21 1 21 20
M  V30 22 1 22 20
M  V30 23 1 22 21
M  V30 24 1 23 22
M  V30 25 2 24 23
M  V30 26 1 25 24
M  V30 27 2 26 25
M  V30 28 1 27 26
M  V30 29 1 28 23
M  V30 30 2 28 27
M  V30 31 1 29 12
M  V30 32 1 30 9
M  V30 33 1 30 29
M  V30 34 1 31 1
M  V30 35 1 32 1
M  V30 36 1 33 1
M  V30 37 1 34 4
M  V30 38 1 35 5
M  V30 39 1 36 6
M  V30 40 1 37 7
M  V30 41 1 38 10
M  V30 42 1 39 10
M  V30 43 1 40 11
M  V30 44 1 41 11
M  V30 45 1 42 13
M  V30 46 1 43 13
M  V30 47 1 44 14
M  V30 48 1 45 14
M  V30 49 1 46 15
M  V30 50 1 47 15
M  V30 51 1 48 16
M  V30 52 1 49 16
M  V30 53 1 50 17
M  V30 54 1 20 51 CFG=3
M  V30 55 1 52 21
M  V30 56 1 53 21
M  V30 57 1 22 54 CFG=1
M  V30 58 1 55 24
M  V30 59 1 56 25
M  V30 60 1 57 26
M  V30 61 1 58 27
M  V30 62 1 59 28
M  V30 63 1 60 29
M  V30 64 1 61 29
M  V30 65 1 62 30
M  V30 66 1 63 30
M  V30 67 1 64 12
M  V30 END BOND
M  V30 END CTAB
M  END
>  <b_m_subgroup_collapsed>  (1903) 
0

>  <r_i_docking_score>  (1903) 
-6.4974252823096803

>  <s_m_subgroup_title>  (1903) 
glide-dock_SP_D22_pv

>  <s_m_subgroupid>  (1903) 
glide-dock_SP_D22_pv

>  <Molecule ChEMBL ID>  (1903) 
CHEMBL127114

>  <Standard Type>  (1903) 
Ki

>  <Standard Value>  (1903) 
81.0

>  <label>  (1903) 
1

$$$$
CHEMBL5880427
     RDKit          3D

  0  0  0  0  0  0  0  0  0  0999 V3000
M  V30 BEGIN CTAB
M  V30 COUNTS 45 47 0 0 1
M  V30 BEGIN ATOM
M  V30 1 C 10.662337 6.725597 -12.029186 0
M  V30 2 C 9.364059 6.557106 -11.209270 0 CFG=1
M  V30 3 O 8.221887 6.618075 -12.069038 0
M  V30 4 C 7.703741 5.482345 -12.650489 0
M  V30 5 C 8.470784 4.466121 -13.264570 0
M  V30 6 C 7.801679 3.372992 -13.846848 0
M  V30 7 N 6.461052 3.232206 -13.838769 0
M  V30 8 C 5.732893 4.196006 -13.239026 0
M  V30 9 C 6.304787 5.337407 -12.646716 0
M  V30 10 C 9.334467 5.335503 -10.249825 0
M  V30 11 C 9.485121 5.897931 -8.840163 0
M  V30 12 N 8.886911 7.239326 -8.923302 0 CFG=1 CHG=1
M  V30 13 C 9.130053 8.133892 -7.760116 0
M  V30 14 C 10.567165 8.689384 -7.656741 0
M  V30 15 O 10.715898 9.473319 -6.483800 0
M  V30 16 C 11.140346 8.873878 -5.319851 0
M  V30 17 C 11.436220 9.740259 -4.250539 0
M  V30 18 C 11.928457 9.239374 -3.031564 0
M  V30 19 C 12.086360 7.853123 -2.853260 0
M  V30 20 C 11.752173 6.972733 -3.898645 0
M  V30 21 C 11.286035 7.475801 -5.129418 0
M  V30 22 C 9.232718 7.771657 -10.261065 0
M  V30 23 H 11.518871 6.919731 -11.382771 0
M  V30 24 H 10.914242 5.868286 -12.646318 0
M  V30 25 H 10.579648 7.590331 -12.685355 0
M  V30 26 H 9.543468 4.494983 -13.319400 0
M  V30 27 H 8.361873 2.585588 -14.329320 0
M  V30 28 H 4.661927 4.059906 -13.239770 0
M  V30 29 H 5.686342 6.089148 -12.176701 0
M  V30 30 H 8.368546 4.830285 -10.282393 0
M  V30 31 H 10.085982 4.584184 -10.485885 0
M  V30 32 H 8.989490 5.280839 -8.089258 0
M  V30 33 H 10.542374 5.962304 -8.582882 0
M  V30 34 H 8.433884 8.970714 -7.827765 0
M  V30 35 H 8.859887 7.595959 -6.850564 0
M  V30 36 H 11.333090 7.918163 -7.734457 0
M  V30 37 H 10.762903 9.372324 -8.480650 0
M  V30 38 H 11.285731 10.802356 -4.374263 0
M  V30 39 H 12.165822 9.918687 -2.225892 0
M  V30 40 H 12.449103 7.465530 -1.912494 0
M  V30 41 H 11.858696 5.907112 -3.757941 0
M  V30 42 H 11.041974 6.765287 -5.903910 0
M  V30 43 H 10.175781 8.311738 -10.229126 0
M  V30 44 H 8.486195 8.491954 -10.599891 0
M  V30 45 H 7.877505 7.099048 -8.958389 0
M  V30 END ATOM
M  V30 BEGIN BOND
M  V30 1 1 2 1
M  V30 2 1 2 3 CFG=3
M  V30 3 1 4 3
M  V30 4 1 5 4
M  V30 5 2 6 5
M  V30 6 1 7 6
M  V30 7 2 8 7
M  V30 8 2 9 4
M  V30 9 1 9 8
M  V30 10 1 10 2
M  V30 11 1 11 10
M  V30 12 1 12 11
M  V30 13 1 13 12
M  V30 14 1 14 13
M  V30 15 1 15 14
M  V30 16 1 16 15
M  V30 17 2 17 16
M  V30 18 1 18 17
M  V30 19 2 19 18
M  V30 20 1 20 19
M  V30 21 1 21 16
M  V30 22 2 21 20
M  V30 23 1 22 2
M  V30 24 1 22 12
M  V30 25 1 23 1
M  V30 26 1 24 1
M  V30 27 1 25 1
M  V30 28 1 26 5
M  V30 29 1 27 6
M  V30 30 1 28 8
M  V30 31 1 29 9
M  V30 32 1 30 10
M  V30 33 1 31 10
M  V30 34 1 32 11
M  V30 35 1 33 11
M  V30 36 1 34 13
M  V30 37 1 35 13
M  V30 38 1 36 14
M  V30 39 1 37 14
M  V30 40 1 38 17
M  V30 41 1 39 18
M  V30 42 1 40 19
M  V30 43 1 41 20
M  V30 44 1 42 21
M  V30 45 1 43 22
M  V30 46 1 44 22
M  V30 47 1 12 45 CFG=3
M  V30 END BOND
M  V30 END CTAB
M  END
>  <b_m_subgroup_collapsed>  (1904) 
0

>  <r_i_docking_score>  (1904) 
-6.4958596442538301

>  <s_m_subgroup_title>  (1904) 
glide-dock_SP_D22_pv

>  <s_m_subgroupid>  (1904) 
glide-dock_SP_D22_pv

>  <Molecule ChEMBL ID>  (1904) 
CHEMBL5880427

>  <Standard Type>  (1904) 
Ki

>  <Standard Value>  (1904) 
20000.0

>  <label>  (1904) 
0

$$$$
CHEMBL325710
     RDKit          3D

  0  0  0  0  0  0  0  0  0  0999 V3000
M  V30 BEGIN CTAB
M  V30 COUNTS 44 46 0 0 1
M  V30 BEGIN ATOM
M  V30 1 C 10.493941 4.988388 -13.358443 0
M  V30 2 C 9.073329 5.372055 -13.789917 0
M  V30 3 C 8.367521 6.415221 -12.878709 0
M  V30 4 N 8.036981 5.968310 -11.494441 0 CHG=1
M  V30 5 C 7.459038 4.591326 -11.447993 0
M  V30 6 C 6.116488 4.483297 -12.207177 0
M  V30 7 C 5.644200 3.039911 -12.396399 0
M  V30 8 C 9.113261 6.246176 -10.495314 0 CFG=2
M  V30 9 C 8.737718 5.953722 -9.022637 0
M  V30 10 C 9.583886 6.932562 -8.257241 0
M  V30 11 C 9.852601 6.921030 -6.884273 0
M  V30 12 C 10.677517 7.916673 -6.325430 0
M  V30 13 N 11.089017 7.968627 -5.004941 0
M  V30 14 C 11.790606 9.077178 -4.790833 0
M  V30 15 N 12.311028 9.372787 -3.546993 0
M  V30 16 S 12.018865 10.147645 -6.180243 0
M  V30 17 C 11.149175 8.970757 -7.171371 0
M  V30 18 C 10.882249 8.971679 -8.560559 0
M  V30 19 C 10.100031 7.923186 -9.078135 0
M  V30 20 C 9.664806 7.707743 -10.497829 0
M  V30 21 H 10.990187 4.416205 -14.141593 0
M  V30 22 H 11.103490 5.868810 -13.158319 0
M  V30 23 H 10.485966 4.363717 -12.469670 0
M  V30 24 H 8.470588 4.473998 -13.918324 0
M  V30 25 H 9.137413 5.772304 -14.798318 0
M  V30 26 H 7.437000 6.721096 -13.349440 0
M  V30 27 H 8.934948 7.336264 -12.842380 0
M  V30 28 H 8.180266 3.870592 -11.830453 0
M  V30 29 H 7.287210 4.272934 -10.425539 0
M  V30 30 H 5.358505 5.052591 -11.667910 0
M  V30 31 H 6.174848 4.926366 -13.200532 0
M  V30 32 H 4.655051 3.014464 -12.853159 0
M  V30 33 H 6.321809 2.488110 -13.047411 0
M  V30 34 H 5.584786 2.514452 -11.447671 0
M  V30 35 H 9.962687 5.600863 -10.713062 0
M  V30 36 H 8.947500 4.923060 -8.730385 0
M  V30 37 H 7.688650 6.168616 -8.827582 0
M  V30 38 H 9.425931 6.172322 -6.246361 0
M  V30 39 H 12.054500 8.807610 -2.751302 0
M  V30 40 H 12.701021 10.280887 -3.336428 0
M  V30 41 H 11.262848 9.751092 -9.200403 0
M  V30 42 H 8.884116 8.433032 -10.726893 0
M  V30 43 H 10.495183 7.844912 -11.192745 0
M  V30 44 H 7.296369 6.596239 -11.173014 0
M  V30 END ATOM
M  V30 BEGIN BOND
M  V30 1 1 2 1
M  V30 2 1 3 2
M  V30 3 1 4 3
M  V30 4 1 5 4
M  V30 5 1 6 5
M  V30 6 1 7 6
M  V30 7 1 8 4
M  V30 8 1 9 8
M  V30 9 1 10 9
M  V30 10 2 11 10
M  V30 11 1 12 11
M  V30 12 1 13 12
M  V30 13 2 14 13
M  V30 14 1 15 14
M  V30 15 1 16 14
M  V30 16 2 17 12
M  V30 17 1 17 16
M  V30 18 1 18 17
M  V30 19 1 19 10
M  V30 20 2 19 18
M  V30 21 1 20 8
M  V30 22 1 20 19
M  V30 23 1 21 1
M  V30 24 1 22 1
M  V30 25 1 23 1
M  V30 26 1 24 2
M  V30 27 1 25 2
M  V30 28 1 26 3
M  V30 29 1 27 3
M  V30 30 1 28 5
M  V30 31 1 29 5
M  V30 32 1 30 6
M  V30 33 1 31 6
M  V30 34 1 32 7
M  V30 35 1 33 7
M  V30 36 1 34 7
M  V30 37 1 8 35 CFG=3
M  V30 38 1 36 9
M  V30 39 1 37 9
M  V30 40 1 38 11
M  V30 41 1 39 15
M  V30 42 1 40 15
M  V30 43 1 41 18
M  V30 44 1 42 20
M  V30 45 1 43 20
M  V30 46 1 44 4
M  V30 END BOND
M  V30 END CTAB
M  END
>  <b_m_subgroup_collapsed>  (1905) 
0

>  <r_i_docking_score>  (1905) 
-6.4952349502269202

>  <s_m_subgroup_title>  (1905) 
glide-dock_SP_D22_pv

>  <s_m_subgroupid>  (1905) 
glide-dock_SP_D22_pv

>  <Molecule ChEMBL ID>  (1905) 
CHEMBL325710

>  <Standard Type>  (1905) 
Ki

>  <Standard Value>  (1905) 
27.0

>  <label>  (1905) 
1

$$$$
CHEMBL417001
     RDKit          3D

  0  0  0  0  0  0  0  0  0  0999 V3000
M  V30 BEGIN CTAB
M  V30 COUNTS 42 43 0 0 1
M  V30 BEGIN ATOM
M  V30 1 N 12.086239 6.592895 -2.246823 0
M  V30 2 C 11.903541 7.079840 -3.270795 0
M  V30 3 C 11.686057 7.674937 -4.566281 0
M  V30 4 C 11.888288 9.052469 -4.773218 0
M  V30 5 C 11.852140 9.565730 -6.083078 0
M  V30 6 C 11.647321 8.709172 -7.185424 0
M  V30 7 O 11.686028 9.289096 -8.432319 0
M  V30 8 C 11.390928 8.542785 -9.606443 0
M  V30 9 C 9.887982 8.679867 -9.872888 0 CFG=1
M  V30 10 C 9.449082 8.359307 -11.309700 0
M  V30 11 C 9.420105 6.855895 -11.599015 0
M  V30 12 N 8.486001 6.175124 -10.669893 0 CFG=1 CHG=1
M  V30 13 C 8.227360 4.751475 -11.012036 0
M  V30 14 C 7.418473 4.558080 -12.313584 0
M  V30 15 C 5.981904 5.091566 -12.247333 0
M  V30 16 F 5.358551 4.814203 -13.392652 0
M  V30 17 C 8.886429 6.375438 -9.256073 0
M  V30 18 C 9.017085 7.879317 -8.905510 0
M  V30 19 C 11.419262 7.330756 -6.951424 0
M  V30 20 C 11.387980 6.828313 -5.644104 0
M  V30 21 H 12.113741 9.708320 -3.943944 0
M  V30 22 H 12.027343 10.619050 -6.247252 0
M  V30 23 H 11.940208 9.023526 -10.416566 0
M  V30 24 H 11.740385 7.511761 -9.594863 0
M  V30 25 H 9.658825 9.735351 -9.716622 0
M  V30 26 H 8.450729 8.768280 -11.475343 0
M  V30 27 H 10.085966 8.860656 -12.024292 0
M  V30 28 H 10.418342 6.424719 -11.511973 0
M  V30 29 H 9.107305 6.720328 -12.632579 0
M  V30 30 H 9.181312 4.227102 -11.088638 0
M  V30 31 H 7.686020 4.271756 -10.196867 0
M  V30 32 H 7.932372 4.990153 -13.170790 0
M  V30 33 H 7.363238 3.492258 -12.533225 0
M  V30 34 H 5.410158 4.620404 -11.447642 0
M  V30 35 H 5.945525 6.172372 -12.103608 0
M  V30 36 H 9.818403 5.840746 -9.081439 0
M  V30 37 H 8.137054 5.927385 -8.601496 0
M  V30 38 H 9.257202 8.024798 -7.860993 0
M  V30 39 H 8.086022 8.395227 -8.946815 0
M  V30 40 H 11.282332 6.626240 -7.750366 0
M  V30 41 H 11.242759 5.772332 -5.482126 0
M  V30 42 H 7.596014 6.678695 -10.717674 0
M  V30 END ATOM
M  V30 BEGIN BOND
M  V30 1 3 2 1
M  V30 2 1 3 2
M  V30 3 1 4 3
M  V30 4 2 5 4
M  V30 5 1 6 5
M  V30 6 1 7 6
M  V30 7 1 8 7
M  V30 8 1 9 8
M  V30 9 1 10 9
M  V30 10 1 11 10
M  V30 11 1 12 11
M  V30 12 1 13 12
M  V30 13 1 14 13
M  V30 14 1 15 14
M  V30 15 1 16 15
M  V30 16 1 17 12
M  V30 17 1 18 9
M  V30 18 1 18 17
M  V30 19 2 19 6
M  V30 20 2 20 3
M  V30 21 1 20 19
M  V30 22 1 21 4
M  V30 23 1 22 5
M  V30 24 1 23 8
M  V30 25 1 24 8
M  V30 26 1 9 25 CFG=1
M  V30 27 1 26 10
M  V30 28 1 27 10
M  V30 29 1 28 11
M  V30 30 1 29 11
M  V30 31 1 30 13
M  V30 32 1 31 13
M  V30 33 1 32 14
M  V30 34 1 33 14
M  V30 35 1 34 15
M  V30 36 1 35 15
M  V30 37 1 36 17
M  V30 38 1 37 17
M  V30 39 1 38 18
M  V30 40 1 39 18
M  V30 41 1 40 19
M  V30 42 1 41 20
M  V30 43 1 12 42 CFG=1
M  V30 END BOND
M  V30 END CTAB
M  END
>  <b_m_subgroup_collapsed>  (1906) 
0

>  <r_i_docking_score>  (1906) 
-6.4926141437501101

>  <s_m_subgroup_title>  (1906) 
glide-dock_SP_D22_pv

>  <s_m_subgroupid>  (1906) 
glide-dock_SP_D22_pv

>  <Molecule ChEMBL ID>  (1906) 
CHEMBL417001

>  <Standard Type>  (1906) 
Ki

>  <Standard Value>  (1906) 
10000.0

>  <label>  (1906) 
0

$$$$
CHEMBL270595
     RDKit          3D

  0  0  0  0  0  0  0  0  0  0999 V3000
M  V30 BEGIN CTAB
M  V30 COUNTS 30 31 0 0 1
M  V30 BEGIN ATOM
M  V30 1 C 12.088412 8.587503 -2.644370 0
M  V30 2 C 12.085988 7.216386 -2.957281 0
M  V30 3 C 11.685968 6.821870 -4.246654 0
M  V30 4 C 11.288234 7.814676 -5.166065 0
M  V30 5 C 10.882792 7.442463 -6.578709 0
M  V30 6 C 9.353095 7.486461 -6.773551 0
M  V30 7 N 8.886050 7.134344 -8.138629 0 CHG=1
M  V30 8 C 9.317348 8.016563 -9.250039 0
M  V30 9 C 9.674603 7.092149 -10.421255 0
M  V30 10 C 9.001315 5.763402 -10.081021 0
M  V30 11 C 9.058681 5.726811 -8.557126 0
M  V30 12 N 11.286356 9.132890 -4.869363 0
M  V30 13 C 11.685947 9.503626 -3.633603 0
M  V30 14 H 12.387920 8.934826 -1.666373 0
M  V30 15 H 12.387360 6.480529 -2.225809 0
M  V30 16 H 11.679160 5.774738 -4.516276 0
M  V30 17 H 11.391144 8.124660 -7.259261 0
M  V30 18 H 11.275444 6.449609 -6.795818 0
M  V30 19 H 8.886050 6.799380 -6.068708 0
M  V30 20 H 8.976188 8.481628 -6.532377 0
M  V30 21 H 8.486027 8.670661 -9.513598 0
M  V30 22 H 10.155066 8.664406 -8.995393 0
M  V30 23 H 9.349782 7.491239 -11.382932 0
M  V30 24 H 10.755687 6.955287 -10.464618 0
M  V30 25 H 7.960602 5.775460 -10.411245 0
M  V30 26 H 9.490573 4.905801 -10.544543 0
M  V30 27 H 10.028469 5.340012 -8.246727 0
M  V30 28 H 8.286956 5.085868 -8.128663 0
M  V30 29 H 11.667702 10.562505 -3.419583 0
M  V30 30 H 7.873002 7.256399 -8.117420 0
M  V30 END ATOM
M  V30 BEGIN BOND
M  V30 1 2 2 1
M  V30 2 1 3 2
M  V30 3 2 4 3
M  V30 4 1 5 4
M  V30 5 1 6 5
M  V30 6 1 7 6
M  V30 7 1 8 7
M  V30 8 1 9 8
M  V30 9 1 10 9
M  V30 10 1 11 7
M  V30 11 1 11 10
M  V30 12 1 12 4
M  V30 13 1 13 1
M  V30 14 2 13 12
M  V30 15 1 14 1
M  V30 16 1 15 2
M  V30 17 1 16 3
M  V30 18 1 17 5
M  V30 19 1 18 5
M  V30 20 1 19 6
M  V30 21 1 20 6
M  V30 22 1 21 8
M  V30 23 1 22 8
M  V30 24 1 23 9
M  V30 25 1 24 9
M  V30 26 1 25 10
M  V30 27 1 26 10
M  V30 28 1 27 11
M  V30 29 1 28 11
M  V30 30 1 29 13
M  V30 31 1 30 7
M  V30 END BOND
M  V30 END CTAB
M  END
>  <b_m_subgroup_collapsed>  (1907) 
0

>  <r_i_docking_score>  (1907) 
-6.4926035492780496

>  <s_m_subgroup_title>  (1907) 
glide-dock_SP_D22_pv

>  <s_m_subgroupid>  (1907) 
glide-dock_SP_D22_pv

>  <Molecule ChEMBL ID>  (1907) 
CHEMBL270595

>  <Standard Type>  (1907) 
Ki

>  <Standard Value>  (1907) 
10000.0

>  <label>  (1907) 
0

$$$$
CHEMBL593395
     RDKit          3D

  0  0  0  0  0  0  0  0  0  0999 V3000
M  V30 BEGIN CTAB
M  V30 COUNTS 40 43 0 0 1
M  V30 BEGIN ATOM
M  V30 1 C 11.817037 9.639168 -4.484168 0
M  V30 2 O 11.286146 8.379193 -4.868056 0
M  V30 3 C 10.957249 8.189591 -6.193446 0
M  V30 4 C 11.099710 9.175194 -7.198459 0
M  V30 5 C 10.748630 8.890673 -8.532758 0
M  V30 6 C 10.287714 7.609174 -8.906257 0
M  V30 7 C 10.088755 6.647022 -7.891600 0
M  V30 8 C 10.435366 6.933077 -6.554859 0
M  V30 9 C 9.439326 5.327778 -8.246974 0
M  V30 10 C 8.485549 5.482387 -9.407404 0
M  V30 11 N 9.247663 5.977970 -10.546380 0 CFG=1 CHG=1
M  V30 12 C 8.545942 5.898729 -11.836910 0
M  V30 13 C 9.624361 5.779038 -12.908308 0
M  V30 14 C 10.810609 6.712143 -12.667002 0
M  V30 15 C 11.738458 6.860041 -13.712890 0
M  V30 16 C 12.886015 7.639050 -13.527482 0
M  V30 17 C 13.168635 8.172338 -12.257883 0
M  V30 18 C 12.238928 8.047622 -11.208132 0
M  V30 19 C 11.012824 7.372297 -11.420494 0
M  V30 20 C 9.898535 7.303425 -10.365235 0 CFG=2
M  V30 21 H 12.029553 9.632030 -3.414989 0
M  V30 22 H 11.106596 10.445728 -4.672317 0
M  V30 23 H 12.752467 9.848863 -5.005438 0
M  V30 24 H 11.472078 10.162237 -6.970980 0
M  V30 25 H 10.848502 9.667131 -9.277632 0
M  V30 26 H 10.287450 6.184216 -5.789950 0
M  V30 27 H 10.201299 4.578500 -8.462392 0
M  V30 28 H 8.821140 4.972244 -7.446585 0
M  V30 29 H 8.048373 4.512502 -9.642416 0
M  V30 30 H 7.686005 6.172294 -9.159590 0
M  V30 31 H 7.882941 5.033667 -11.886973 0
M  V30 32 H 7.922776 6.782423 -11.987189 0
M  V30 33 H 10.014259 4.759817 -12.911557 0
M  V30 34 H 9.186451 5.933932 -13.892918 0
M  V30 35 H 11.570970 6.378069 -14.665545 0
M  V30 36 H 13.593138 7.751985 -14.335214 0
M  V30 37 H 14.086220 8.718112 -12.097112 0
M  V30 38 H 12.494658 8.510045 -10.269802 0
M  V30 39 H 9.168441 8.074836 -10.619411 0
M  V30 40 H 10.013569 5.325386 -10.620748 0
M  V30 END ATOM
M  V30 BEGIN BOND
M  V30 1 1 2 1
M  V30 2 1 3 2
M  V30 3 1 4 3
M  V30 4 2 5 4
M  V30 5 1 6 5
M  V30 6 2 7 6
M  V30 7 2 8 3
M  V30 8 1 8 7
M  V30 9 1 9 7
M  V30 10 1 10 9
M  V30 11 1 11 10
M  V30 12 1 12 11
M  V30 13 1 13 12
M  V30 14 1 14 13
M  V30 15 2 15 14
M  V30 16 1 16 15
M  V30 17 2 17 16
M  V30 18 1 18 17
M  V30 19 1 19 14
M  V30 20 2 19 18
M  V30 21 1 20 6
M  V30 22 1 20 11
M  V30 23 1 20 19
M  V30 24 1 21 1
M  V30 25 1 22 1
M  V30 26 1 23 1
M  V30 27 1 24 4
M  V30 28 1 25 5
M  V30 29 1 26 8
M  V30 30 1 27 9
M  V30 31 1 28 9
M  V30 32 1 29 10
M  V30 33 1 30 10
M  V30 34 1 31 12
M  V30 35 1 32 12
M  V30 36 1 33 13
M  V30 37 1 34 13
M  V30 38 1 35 15
M  V30 39 1 36 16
M  V30 40 1 37 17
M  V30 41 1 38 18
M  V30 42 1 20 39 CFG=3
M  V30 43 1 11 40 CFG=3
M  V30 END BOND
M  V30 END CTAB
M  END
>  <b_m_subgroup_collapsed>  (1908) 
0

>  <r_i_docking_score>  (1908) 
-6.48796886602649

>  <s_m_subgroup_title>  (1908) 
glide-dock_SP_D22_pv

>  <s_m_subgroupid>  (1908) 
glide-dock_SP_D22_pv

>  <Molecule ChEMBL ID>  (1908) 
CHEMBL593395

>  <Standard Type>  (1908) 
Ki

>  <Standard Value>  (1908) 
10000.0

>  <label>  (1908) 
0

$$$$
CHEMBL2159475
     RDKit          3D

  0  0  0  0  0  0  0  0  0  0999 V3000
M  V30 BEGIN CTAB
M  V30 COUNTS 44 46 0 0 1
M  V30 BEGIN ATOM
M  V30 1 O 10.485874 9.766804 -7.042534 0
M  V30 2 S 10.967251 8.379989 -7.055096 0
M  V30 3 O 12.146314 8.003954 -7.846752 0
M  V30 4 N 9.668651 7.320034 -7.500968 0
M  V30 5 C 9.760290 6.608988 -8.786125 0 CFG=2
M  V30 6 C 9.602885 7.587257 -9.948642 0
M  V30 7 C 9.021252 6.723918 -11.056654 0
M  V30 8 N 8.113629 5.772383 -10.379569 0 CFG=1 CHG=1
M  V30 9 C 7.831854 4.551074 -11.167749 0
M  V30 10 C 7.013270 4.848061 -12.445595 0
M  V30 11 O 6.888862 3.691533 -13.269306 0
M  V30 12 C 8.007673 3.193807 -13.913687 0
M  V30 13 C 9.222252 3.911139 -14.062905 0
M  V30 14 C 10.340103 3.311618 -14.674333 0
M  V30 15 Cl 11.820052 4.187856 -14.796979 0
M  V30 16 C 10.255944 1.998317 -15.171710 0
M  V30 17 C 9.049561 1.284625 -15.052887 0
M  V30 18 C 7.934357 1.877442 -14.427667 0
M  V30 19 Cl 6.486387 0.954383 -14.247994 0
M  V30 20 C 8.645300 5.561052 -9.007312 0
M  V30 21 C 11.342625 7.985421 -5.368796 0
M  V30 22 C 11.286315 6.755911 -4.766048 0
M  V30 23 C 11.701074 6.791643 -3.400865 0
M  V30 24 C 12.059461 8.051465 -3.006701 0
M  V30 25 Cl 12.575335 8.573508 -1.461010 0
M  V30 26 S 11.886602 9.229684 -4.271524 0
M  V30 27 H 8.745964 7.706091 -7.288577 0
M  V30 28 H 10.726206 6.107345 -8.857985 0
M  V30 29 H 8.887206 8.372020 -9.696115 0
M  V30 30 H 10.539212 8.068870 -10.232814 0
M  V30 31 H 8.498322 7.325163 -11.800982 0
M  V30 32 H 9.827145 6.185134 -11.557405 0
M  V30 33 H 8.782657 4.078105 -11.409852 0
M  V30 34 H 7.286507 3.830979 -10.559004 0
M  V30 35 H 6.008983 5.160195 -12.157335 0
M  V30 36 H 7.414995 5.676793 -13.027388 0
M  V30 37 H 9.333776 4.918886 -13.696762 0
M  V30 38 H 11.115436 1.538158 -15.638168 0
M  V30 39 H 8.983638 0.272832 -15.426648 0
M  V30 40 H 9.042068 4.551791 -8.881599 0
M  V30 41 H 7.829436 5.680507 -8.292802 0
M  V30 42 H 10.975301 5.844750 -5.253250 0
M  V30 43 H 11.718884 5.914539 -2.770157 0
M  V30 44 H 7.254846 6.312817 -10.248248 0
M  V30 END ATOM
M  V30 BEGIN BOND
M  V30 1 2 2 1
M  V30 2 2 3 2
M  V30 3 1 4 2
M  V30 4 1 5 4
M  V30 5 1 6 5
M  V30 6 1 7 6
M  V30 7 1 8 7
M  V30 8 1 9 8
M  V30 9 1 10 9
M  V30 10 1 11 10
M  V30 11 1 12 11
M  V30 12 1 13 12
M  V30 13 2 14 13
M  V30 14 1 15 14
M  V30 15 1 16 14
M  V30 16 2 17 16
M  V30 17 2 18 12
M  V30 18 1 18 17
M  V30 19 1 19 18
M  V30 20 1 20 5
M  V30 21 1 20 8
M  V30 22 1 21 2
M  V30 23 2 22 21
M  V30 24 1 23 22
M  V30 25 2 24 23
M  V30 26 1 25 24
M  V30 27 1 26 21
M  V30 28 1 26 24
M  V30 29 1 27 4
M  V30 30 1 5 28 CFG=3
M  V30 31 1 29 6
M  V30 32 1 30 6
M  V30 33 1 31 7
M  V30 34 1 32 7
M  V30 35 1 33 9
M  V30 36 1 34 9
M  V30 37 1 35 10
M  V30 38 1 36 10
M  V30 39 1 37 13
M  V30 40 1 38 16
M  V30 41 1 39 17
M  V30 42 1 40 20
M  V30 43 1 41 20
M  V30 44 1 42 22
M  V30 45 1 43 23
M  V30 46 1 8 44 CFG=1
M  V30 END BOND
M  V30 END CTAB
M  END
>  <b_m_subgroup_collapsed>  (1909) 
0

>  <r_i_docking_score>  (1909) 
-6.4868661849973899

>  <s_m_subgroup_title>  (1909) 
glide-dock_SP_D22_pv

>  <s_m_subgroupid>  (1909) 
glide-dock_SP_D22_pv

>  <Molecule ChEMBL ID>  (1909) 
CHEMBL2159475

>  <Standard Type>  (1909) 
Ki

>  <Standard Value>  (1909) 
78.0

>  <label>  (1909) 
1

$$$$
CHEMBL1813595
     RDKit          3D

  0  0  0  0  0  0  0  0  0  0999 V3000
M  V30 BEGIN CTAB
M  V30 COUNTS 63 66 0 0 1
M  V30 BEGIN ATOM
M  V30 1 O 12.485639 6.574177 -2.416687 0
M  V30 2 C 12.086005 7.254831 -3.356615 0
M  V30 3 C 12.332461 8.692124 -3.482264 0
M  V30 4 C 11.961509 9.375693 -4.584631 0
M  V30 5 C 11.286116 8.736350 -5.701335 0
M  V30 6 C 10.992483 9.393279 -6.912539 0
M  V30 7 C 10.310270 8.714526 -7.946535 0
M  V30 8 C 9.877846 7.382948 -7.744203 0
M  V30 9 O 9.150169 6.619656 -8.633821 0
M  V30 10 C 9.003642 7.032115 -9.981972 0
M  V30 11 C 10.161279 6.487659 -10.817978 0
M  V30 12 C 10.138679 7.007935 -12.258778 0
M  V30 13 C 11.095396 6.246815 -13.201921 0
M  V30 14 N 10.622975 4.880070 -13.560061 0 CHG=1
M  V30 15 C 11.727001 4.070357 -14.139516 0
M  V30 16 C 11.294375 2.621160 -14.422140 0
M  V30 17 N 10.054931 2.603033 -15.170386 0
M  V30 18 C 9.978427 1.871082 -16.366692 0
M  V30 19 C 10.260712 0.486866 -16.335764 0
M  V30 20 C 10.195825 -0.281929 -17.510254 0
M  V30 21 C 9.855003 0.332218 -18.728987 0
M  V30 22 C 9.585814 1.712501 -18.771662 0
M  V30 23 C 9.651038 2.501043 -17.595669 0
M  V30 24 O 9.434838 3.866857 -17.584339 0
M  V30 25 C 9.369208 4.556879 -18.825172 0
M  V30 26 C 9.306607 6.061975 -18.547293 0
M  V30 27 F 9.289944 6.744703 -19.690788 0
M  V30 28 C 8.944540 3.411506 -14.701651 0
M  V30 29 C 9.408460 4.857607 -14.429605 0
M  V30 30 C 10.190846 6.758214 -6.528093 0
M  V30 31 C 10.941155 7.392114 -5.531507 0
M  V30 32 N 11.364028 6.703849 -4.360765 0
M  V30 33 H 12.802738 9.221712 -2.665013 0
M  V30 34 H 12.086247 10.440190 -4.654283 0
M  V30 35 H 11.287465 10.421229 -7.046645 0
M  V30 36 H 10.104388 9.250691 -8.859192 0
M  V30 37 H 8.885233 8.108437 -10.101234 0
M  V30 38 H 8.087331 6.572339 -10.354027 0
M  V30 39 H 10.086207 5.401142 -10.806470 0
M  V30 40 H 11.111817 6.746934 -10.348825 0
M  V30 41 H 10.430211 8.058306 -12.238926 0
M  V30 42 H 9.122663 7.010478 -12.646216 0
M  V30 43 H 12.066603 6.173943 -12.710336 0
M  V30 44 H 11.285211 6.816572 -14.114945 0
M  V30 45 H 12.585188 4.073556 -13.467746 0
M  V30 46 H 12.062181 4.541134 -15.066133 0
M  V30 47 H 11.156379 2.066052 -13.494845 0
M  V30 48 H 12.085344 2.127423 -14.993246 0
M  V30 49 H 10.517704 0.006819 -15.402843 0
M  V30 50 H 10.405303 -1.342678 -17.476637 0
M  V30 51 H 9.802186 -0.257127 -19.632498 0
M  V30 52 H 9.336552 2.145220 -19.730385 0
M  V30 53 H 10.252241 4.335853 -19.427950 0
M  V30 54 H 8.486072 4.249161 -19.386259 0
M  V30 55 H 8.407145 6.330908 -17.996107 0
M  V30 56 H 10.171523 6.402985 -17.976036 0
M  V30 57 H 8.122580 3.372402 -15.418029 0
M  V30 58 H 8.566202 2.965726 -13.780804 0
M  V30 59 H 8.584445 5.399602 -13.968603 0
M  V30 60 H 9.628715 5.366775 -15.369118 0
M  V30 61 H 9.830487 5.771853 -6.367290 0
M  V30 62 H 11.141957 5.720823 -4.290140 0
M  V30 63 H 10.361284 4.424120 -12.698192 0
M  V30 END ATOM
M  V30 BEGIN BOND
M  V30 1 2 2 1
M  V30 2 1 3 2
M  V30 3 2 4 3
M  V30 4 1 5 4
M  V30 5 1 6 5
M  V30 6 2 7 6
M  V30 7 1 8 7
M  V30 8 1 9 8
M  V30 9 1 10 9
M  V30 10 1 11 10
M  V30 11 1 12 11
M  V30 12 1 13 12
M  V30 13 1 14 13
M  V30 14 1 15 14
M  V30 15 1 16 15
M  V30 16 1 17 16
M  V30 17 1 18 17
M  V30 18 2 19 18
M  V30 19 1 20 19
M  V30 20 2 21 20
M  V30 21 1 22 21
M  V30 22 1 23 18
M  V30 23 2 23 22
M  V30 24 1 24 23
M  V30 25 1 25 24
M  V30 26 1 26 25
M  V30 27 1 27 26
M  V30 28 1 28 17
M  V30 29 1 29 14
M  V30 30 1 29 28
M  V30 31 2 30 8
M  V30 32 2 31 5
M  V30 33 1 31 30
M  V30 34 1 32 2
M  V30 35 1 32 31
M  V30 36 1 33 3
M  V30 37 1 34 4
M  V30 38 1 35 6
M  V30 39 1 36 7
M  V30 40 1 37 10
M  V30 41 1 38 10
M  V30 42 1 39 11
M  V30 43 1 40 11
M  V30 44 1 41 12
M  V30 45 1 42 12
M  V30 46 1 43 13
M  V30 47 1 44 13
M  V30 48 1 45 15
M  V30 49 1 46 15
M  V30 50 1 47 16
M  V30 51 1 48 16
M  V30 52 1 49 19
M  V30 53 1 50 20
M  V30 54 1 51 21
M  V30 55 1 52 22
M  V30 56 1 53 25
M  V30 57 1 54 25
M  V30 58 1 55 26
M  V30 59 1 56 26
M  V30 60 1 57 28
M  V30 61 1 58 28
M  V30 62 1 59 29
M  V30 63 1 60 29
M  V30 64 1 61 30
M  V30 65 1 62 32
M  V30 66 1 63 14
M  V30 END BOND
M  V30 END CTAB
M  END
>  <b_m_subgroup_collapsed>  (1910) 
0

>  <r_i_docking_score>  (1910) 
-6.4851486963671698

>  <s_m_subgroup_title>  (1910) 
glide-dock_SP_D22_pv

>  <s_m_subgroupid>  (1910) 
glide-dock_SP_D22_pv

>  <Molecule ChEMBL ID>  (1910) 
CHEMBL1813595

>  <Standard Type>  (1910) 
Ki

>  <Standard Value>  (1910) 
0.07

>  <label>  (1910) 
1

$$$$
CHEMBL561054
     RDKit          3D

  0  0  0  0  0  0  0  0  0  0999 V3000
M  V30 BEGIN CTAB
M  V30 COUNTS 47 49 0 0 1
M  V30 BEGIN ATOM
M  V30 1 C 10.796253 10.322972 -5.465602 0
M  V30 2 C 11.533807 9.097350 -4.905739 0 CFG=1
M  V30 3 C 11.545730 9.239638 -3.375487 0
M  V30 4 C 12.230488 8.061014 -2.678848 0
M  V30 5 C 11.612612 6.730440 -3.109972 0
M  V30 6 C 11.499987 6.627823 -4.641651 0
M  V30 7 N 10.887767 7.808994 -5.312807 0 CFG=2 CHG=1
M  V30 8 C 10.822529 7.602145 -6.786836 0
M  V30 9 C 9.403437 7.822256 -7.340339 0
M  V30 10 N 9.383118 7.632444 -8.787972 0
M  V30 11 C 9.433110 8.773226 -9.682226 0
M  V30 12 C 9.486703 8.116896 -11.059688 0
M  V30 13 N 9.285821 6.709788 -10.760813 0
M  V30 14 C 8.935686 5.782541 -11.772459 0
M  V30 15 C 9.859780 5.470911 -12.791496 0
M  V30 16 C 9.502618 4.572862 -13.816688 0
M  V30 17 C 8.214746 4.001698 -13.838771 0
M  V30 18 C 7.281049 4.329422 -12.835867 0
M  V30 19 Cl 5.691387 3.658008 -12.878427 0
M  V30 20 C 7.643624 5.213855 -11.802395 0
M  V30 21 C 9.286057 6.462314 -9.439231 0
M  V30 22 O 9.252265 5.352821 -8.904460 0
M  V30 23 H 11.286007 11.251204 -5.178165 0
M  V30 24 H 10.734965 10.324664 -6.553109 0
M  V30 25 H 9.791293 10.367692 -5.046875 0
M  V30 26 H 12.562605 9.103497 -5.270645 0
M  V30 27 H 10.513082 9.337522 -3.046936 0
M  V30 28 H 12.044758 10.165515 -3.083793 0
M  V30 29 H 12.173538 8.174072 -1.595507 0
M  V30 30 H 13.285872 8.061228 -2.936075 0
M  V30 31 H 10.647592 6.572248 -2.631796 0
M  V30 32 H 12.233043 5.911833 -2.741463 0
M  V30 33 H 10.885635 5.772267 -4.886948 0
M  V30 34 H 12.485935 6.439823 -5.054729 0
M  V30 35 H 11.128665 6.585184 -7.042637 0
M  V30 36 H 11.539242 8.247852 -7.297426 0
M  V30 37 H 9.033582 8.820921 -7.108143 0
M  V30 38 H 8.699701 7.127440 -6.876806 0
M  V30 39 H 8.528173 9.372244 -9.566566 0
M  V30 40 H 10.305089 9.399205 -9.488939 0
M  V30 41 H 10.456990 8.261001 -11.534795 0
M  V30 42 H 8.705769 8.497232 -11.720565 0
M  V30 43 H 10.844301 5.915410 -12.787005 0
M  V30 44 H 10.214015 4.327770 -14.591281 0
M  V30 45 H 7.939957 3.318552 -14.628922 0
M  V30 46 H 6.916990 5.476192 -11.046754 0
M  V30 47 H 9.929736 7.840929 -4.996732 0
M  V30 END ATOM
M  V30 BEGIN BOND
M  V30 1 1 2 1
M  V30 2 1 3 2
M  V30 3 1 4 3
M  V30 4 1 5 4
M  V30 5 1 6 5
M  V30 6 1 7 2
M  V30 7 1 7 6
M  V30 8 1 8 7
M  V30 9 1 9 8
M  V30 10 1 10 9
M  V30 11 1 11 10
M  V30 12 1 12 11
M  V30 13 1 13 12
M  V30 14 1 14 13
M  V30 15 2 15 14
M  V30 16 1 16 15
M  V30 17 2 17 16
M  V30 18 1 18 17
M  V30 19 1 19 18
M  V30 20 1 20 14
M  V30 21 2 20 18
M  V30 22 1 21 10
M  V30 23 1 21 13
M  V30 24 2 22 21
M  V30 25 1 23 1
M  V30 26 1 24 1
M  V30 27 1 25 1
M  V30 28 1 2 26 CFG=3
M  V30 29 1 27 3
M  V30 30 1 28 3
M  V30 31 1 29 4
M  V30 32 1 30 4
M  V30 33 1 31 5
M  V30 34 1 32 5
M  V30 35 1 33 6
M  V30 36 1 34 6
M  V30 37 1 35 8
M  V30 38 1 36 8
M  V30 39 1 37 9
M  V30 40 1 38 9
M  V30 41 1 39 11
M  V30 42 1 40 11
M  V30 43 1 41 12
M  V30 44 1 42 12
M  V30 45 1 43 15
M  V30 46 1 44 16
M  V30 47 1 45 17
M  V30 48 1 46 20
M  V30 49 1 7 47 CFG=1
M  V30 END BOND
M  V30 END CTAB
M  END
>  <b_m_subgroup_collapsed>  (1911) 
0

>  <r_i_docking_score>  (1911) 
-6.4844058747220101

>  <s_m_subgroup_title>  (1911) 
glide-dock_SP_D22_pv

>  <s_m_subgroupid>  (1911) 
glide-dock_SP_D22_pv

>  <Molecule ChEMBL ID>  (1911) 
CHEMBL561054

>  <Standard Type>  (1911) 
Ki

>  <Standard Value>  (1911) 
25.12

>  <label>  (1911) 
1

$$$$
CHEMBL2030623
     RDKit          3D

  0  0  0  0  0  0  0  0  0  0999 V3000
M  V30 BEGIN CTAB
M  V30 COUNTS 32 34 0 0 1
M  V30 BEGIN ATOM
M  V30 1 F 12.728402 6.172668 -2.647922 0
M  V30 2 C 12.254196 7.277048 -3.264058 0
M  V30 3 C 12.464992 8.539284 -2.681496 0
M  V30 4 C 11.955806 9.691175 -3.304324 0
M  V30 5 C 11.237293 9.588166 -4.511698 0
M  V30 6 C 10.986893 8.319091 -5.078580 0
M  V30 7 C 10.036990 8.193792 -6.256772 0
M  V30 8 N 10.702911 8.459289 -7.550030 0 CFG=1 CHG=1
M  V30 9 C 11.515525 7.380754 -8.117565 0 CFG=2
M  V30 10 C 12.081036 8.087431 -9.364035 0
M  V30 11 C 10.883338 8.953024 -9.804365 0
M  V30 12 C 9.834032 8.622938 -8.723885 0 CFG=1
M  V30 13 C 9.288547 7.208194 -8.981760 0
M  V30 14 C 10.485782 6.332867 -8.588345 0
M  V30 15 C 11.528525 7.163507 -4.468851 0
M  V30 16 H 13.006105 8.625300 -1.750403 0
M  V30 17 H 12.086503 10.649995 -2.829619 0
M  V30 18 H 10.822347 10.480514 -4.956990 0
M  V30 19 H 9.540968 7.223458 -6.229047 0
M  V30 20 H 9.244131 8.933980 -6.147654 0
M  V30 21 H 12.277872 6.984974 -7.447095 0
M  V30 22 H 12.402789 7.390019 -10.137530 0
M  V30 23 H 12.935828 8.711270 -9.101747 0
M  V30 24 H 10.535228 8.712473 -10.810691 0
M  V30 25 H 11.155612 10.008479 -9.785638 0
M  V30 26 H 9.053436 9.376461 -8.621719 0
M  V30 27 H 8.434878 6.990342 -8.341719 0
M  V30 28 H 8.971097 7.059633 -10.015199 0
M  V30 29 H 10.849303 5.754657 -9.434871 0
M  V30 30 H 10.219342 5.631154 -7.797438 0
M  V30 31 H 11.339850 6.180522 -4.880158 0
M  V30 32 H 11.271983 9.285785 -7.442770 0
M  V30 END ATOM
M  V30 BEGIN BOND
M  V30 1 1 2 1
M  V30 2 1 3 2
M  V30 3 2 4 3
M  V30 4 1 5 4
M  V30 5 2 6 5
M  V30 6 1 7 6
M  V30 7 1 8 7
M  V30 8 1 9 8
M  V30 9 1 10 9
M  V30 10 1 11 10
M  V30 11 1 12 8
M  V30 12 1 12 11
M  V30 13 1 13 12
M  V30 14 1 14 9
M  V30 15 1 14 13
M  V30 16 2 15 2
M  V30 17 1 15 6
M  V30 18 1 16 3
M  V30 19 1 17 4
M  V30 20 1 18 5
M  V30 21 1 19 7
M  V30 22 1 20 7
M  V30 23 1 9 21 CFG=3
M  V30 24 1 22 10
M  V30 25 1 23 10
M  V30 26 1 24 11
M  V30 27 1 25 11
M  V30 28 1 12 26 CFG=3
M  V30 29 1 27 13
M  V30 30 1 28 13
M  V30 31 1 29 14
M  V30 32 1 30 14
M  V30 33 1 31 15
M  V30 34 1 8 32 CFG=1
M  V30 END BOND
M  V30 END CTAB
M  END
>  <b_m_subgroup_collapsed>  (1912) 
0

>  <r_i_docking_score>  (1912) 
-6.4827388097491303

>  <s_m_subgroup_title>  (1912) 
glide-dock_SP_D22_pv

>  <s_m_subgroupid>  (1912) 
glide-dock_SP_D22_pv

>  <Molecule ChEMBL ID>  (1912) 
CHEMBL2030623

>  <Standard Type>  (1912) 
Ki

>  <Standard Value>  (1912) 
10000.0

>  <label>  (1912) 
0

$$$$
CHEMBL4582714
     RDKit          3D

  0  0  0  0  0  0  0  0  0  0999 V3000
M  V30 BEGIN CTAB
M  V30 COUNTS 61 64 0 0 1
M  V30 BEGIN ATOM
M  V30 1 C 6.294828 0.261304 -16.304871 0
M  V30 2 O 7.140005 1.372249 -16.036829 0
M  V30 3 C 8.500303 1.215806 -16.218884 0
M  V30 4 C 9.041725 0.102008 -16.912634 0
M  V30 5 C 10.424518 -0.015865 -17.126051 0
M  V30 6 C 11.287260 0.979354 -16.646227 0
M  V30 7 C 10.772145 2.082475 -15.946602 0
M  V30 8 C 9.381505 2.222923 -15.729074 0
M  V30 9 N 8.900698 3.360450 -15.046474 0
M  V30 10 C 7.881828 3.257702 -14.007793 0
M  V30 11 C 8.418956 3.812532 -12.677371 0
M  V30 12 N 8.892720 5.190856 -12.831354 0
M  V30 13 C 9.267448 5.661812 -11.499223 0
M  V30 14 C 9.612141 7.162640 -11.438789 0
M  V30 15 C 10.240251 7.562684 -10.094365 0
M  V30 16 C 9.271962 7.510023 -8.900409 0
M  V30 17 N 10.011458 7.775765 -7.638186 0 CFG=1 CHG=1
M  V30 18 C 9.685952 9.084327 -7.026929 0
M  V30 19 C 10.886717 9.736381 -6.310642 0
M  V30 20 C 11.337309 9.032467 -5.063885 0
M  V30 21 N 11.658650 9.773588 -3.925839 0
M  V30 22 C 12.086899 9.017870 -2.917193 0
M  V30 23 S 12.086001 7.307117 -3.272842 0
M  V30 24 C 11.501937 7.683937 -4.881339 0
M  V30 25 C 11.268930 6.593258 -5.860608 0
M  V30 26 C 9.969321 6.655203 -6.667115 0
M  V30 27 C 10.034438 5.140665 -13.756680 0
M  V30 28 C 9.555923 4.662510 -15.143405 0
M  V30 29 H 5.285180 0.485776 -15.969380 0
M  V30 30 H 6.244922 0.046127 -17.372633 0
M  V30 31 H 6.621935 -0.630345 -15.769034 0
M  V30 32 H 8.410921 -0.678979 -17.308569 0
M  V30 33 H 10.821732 -0.865944 -17.661230 0
M  V30 34 H 12.352366 0.897555 -16.806412 0
M  V30 35 H 11.469202 2.815750 -15.570419 0
M  V30 36 H 7.581440 2.222899 -13.847518 0
M  V30 37 H 6.992272 3.806735 -14.316478 0
M  V30 38 H 9.239444 3.188555 -12.312918 0
M  V30 39 H 7.621646 3.772582 -11.933292 0
M  V30 40 H 10.086065 5.056534 -11.114652 0
M  V30 41 H 8.423880 5.491147 -10.828259 0
M  V30 42 H 8.716924 7.756960 -11.630379 0
M  V30 43 H 10.322515 7.428292 -12.219490 0
M  V30 44 H 10.635242 8.576087 -10.181712 0
M  V30 45 H 11.101246 6.919820 -9.904525 0
M  V30 46 H 8.756774 6.550055 -8.861838 0
M  V30 47 H 8.486059 8.245825 -9.053627 0
M  V30 48 H 9.375478 9.771257 -7.815161 0
M  V30 49 H 8.828173 8.972281 -6.361234 0
M  V30 50 H 10.623732 10.766255 -6.065866 0
M  V30 51 H 11.722914 9.809319 -7.006729 0
M  V30 52 H 12.378457 9.462234 -1.975844 0
M  V30 53 H 12.085839 6.556006 -6.571288 0
M  V30 54 H 11.305847 5.676863 -5.295205 0
M  V30 55 H 9.895355 5.714891 -7.212780 0
M  V30 56 H 9.090086 6.706111 -6.024096 0
M  V30 57 H 10.483813 6.125151 -13.871056 0
M  V30 58 H 10.813599 4.479709 -13.372500 0
M  V30 59 H 10.381874 4.656690 -15.853282 0
M  V30 60 H 8.835261 5.372353 -15.542427 0
M  V30 61 H 10.973871 7.841552 -7.935083 0
M  V30 END ATOM
M  V30 BEGIN BOND
M  V30 1 1 2 1
M  V30 2 1 3 2
M  V30 3 2 4 3
M  V30 4 1 5 4
M  V30 5 2 6 5
M  V30 6 1 7 6
M  V30 7 1 8 3
M  V30 8 2 8 7
M  V30 9 1 9 8
M  V30 10 1 10 9
M  V30 11 1 11 10
M  V30 12 1 12 11
M  V30 13 1 13 12
M  V30 14 1 14 13
M  V30 15 1 15 14
M  V30 16 1 16 15
M  V30 17 1 17 16
M  V30 18 1 18 17
M  V30 19 1 19 18
M  V30 20 1 20 19
M  V30 21 1 21 20
M  V30 22 2 22 21
M  V30 23 1 23 22
M  V30 24 2 24 20
M  V30 25 1 24 23
M  V30 26 1 25 24
M  V30 27 1 26 17
M  V30 28 1 26 25
M  V30 29 1 27 12
M  V30 30 1 28 9
M  V30 31 1 28 27
M  V30 32 1 29 1
M  V30 33 1 30 1
M  V30 34 1 31 1
M  V30 35 1 32 4
M  V30 36 1 33 5
M  V30 37 1 34 6
M  V30 38 1 35 7
M  V30 39 1 36 10
M  V30 40 1 37 10
M  V30 41 1 38 11
M  V30 42 1 39 11
M  V30 43 1 40 13
M  V30 44 1 41 13
M  V30 45 1 42 14
M  V30 46 1 43 14
M  V30 47 1 44 15
M  V30 48 1 45 15
M  V30 49 1 46 16
M  V30 50 1 47 16
M  V30 51 1 48 18
M  V30 52 1 49 18
M  V30 53 1 50 19
M  V30 54 1 51 19
M  V30 55 1 52 22
M  V30 56 1 53 25
M  V30 57 1 54 25
M  V30 58 1 55 26
M  V30 59 1 56 26
M  V30 60 1 57 27
M  V30 61 1 58 27
M  V30 62 1 59 28
M  V30 63 1 60 28
M  V30 64 1 17 61 CFG=3
M  V30 END BOND
M  V30 END CTAB
M  END
>  <b_m_subgroup_collapsed>  (1913) 
0

>  <r_i_docking_score>  (1913) 
-6.4826211954533797

>  <s_m_subgroup_title>  (1913) 
glide-dock_SP_D22_pv

>  <s_m_subgroupid>  (1913) 
glide-dock_SP_D22_pv

>  <Molecule ChEMBL ID>  (1913) 
CHEMBL4582714

>  <Standard Type>  (1913) 
Ki

>  <Standard Value>  (1913) 
85.11

>  <label>  (1913) 
1

$$$$
CHEMBL4570209
     RDKit          3D

  0  0  0  0  0  0  0  0  0  0999 V3000
M  V30 BEGIN CTAB
M  V30 COUNTS 78 83 0 0 1
M  V30 BEGIN ATOM
M  V30 1 C 5.383724 3.832887 -12.139594 0
M  V30 2 O 5.286125 2.427249 -12.331105 0
M  V30 3 C 5.895451 1.894778 -13.446776 0
M  V30 4 C 6.761580 2.628730 -14.291898 0
M  V30 5 C 7.314742 2.029811 -15.436766 0
M  V30 6 C 7.006737 0.694686 -15.759127 0
M  V30 7 C 7.563523 0.131910 -17.003174 0
M  V30 8 C 8.989461 -0.213701 -17.024126 0
M  V30 9 O 9.717669 -0.127428 -16.032021 0
M  V30 10 N 9.499106 -0.637197 -18.269968 0
M  V30 11 C 10.932097 -0.869894 -18.386272 0
M  V30 12 C 11.760921 0.359717 -18.821329 0
M  V30 13 C 11.636054 1.546995 -17.855896 0
M  V30 14 C 12.464007 2.777495 -18.237652 0
M  V30 15 N 12.036767 3.921225 -17.392927 0 CFG=2 CHG=1
M  V30 16 C 11.596712 5.098384 -18.171669 0
M  V30 17 C 10.934410 6.117622 -17.236937 0
M  V30 18 C 11.904169 6.536720 -16.118587 0
M  V30 19 C 12.401080 5.307497 -15.327286 0 CFG=1
M  V30 20 C 11.334742 4.740860 -14.411746 0
M  V30 21 C 10.776543 3.483289 -14.448578 0
M  V30 22 N 9.872703 3.353797 -13.414439 0
M  V30 23 C 9.803925 4.514292 -12.676823 0
M  V30 24 C 9.053986 4.871161 -11.543731 0
M  V30 25 C 9.197489 6.153024 -10.982968 0
M  V30 26 C 10.130655 7.062507 -11.532993 0
M  V30 27 O 10.356996 8.324876 -11.032783 0
M  V30 28 C 9.589849 8.752433 -9.913029 0
M  V30 29 C 10.890204 6.669804 -12.653913 0
M  V30 30 C 10.735626 5.405863 -13.276558 0
M  V30 31 C 12.999186 4.276965 -16.320122 0
M  V30 32 C 8.721684 -0.774177 -19.435549 0
M  V30 33 O 9.224797 -1.123244 -20.507156 0
M  V30 34 N 7.345110 -0.490584 -19.335518 0
M  V30 35 C 6.527426 -0.637740 -20.451706 0
M  V30 36 C 5.213411 -0.344880 -20.420221 0
M  V30 37 C 4.606708 0.139609 -19.203945 0
M  V30 38 C 5.367270 0.287491 -18.107965 0
M  V30 39 C 6.799499 -0.037744 -18.124090 0
M  V30 40 C 6.194464 -0.065712 -14.892930 0
M  V30 41 C 5.640213 0.540944 -13.747090 0
M  V30 42 H 4.887374 4.136903 -11.219445 0
M  V30 43 H 6.423471 4.145033 -12.037717 0
M  V30 44 H 4.928710 4.379899 -12.969049 0
M  V30 45 H 7.009588 3.660642 -14.097741 0
M  V30 46 H 7.962472 2.605951 -16.080860 0
M  V30 47 H 11.283970 -1.265265 -17.446484 0
M  V30 48 H 11.066955 -1.712401 -19.055382 0
M  V30 49 H 12.808585 0.065775 -18.897234 0
M  V30 50 H 11.459485 0.666947 -19.824406 0
M  V30 51 H 10.592405 1.854853 -17.819519 0
M  V30 52 H 11.909216 1.228573 -16.848177 0
M  V30 53 H 13.529212 2.573994 -18.129833 0
M  V30 54 H 12.299820 2.999144 -19.293552 0
M  V30 55 H 12.446995 5.547016 -18.687342 0
M  V30 56 H 10.877909 4.796708 -18.935059 0
M  V30 57 H 10.617432 6.972433 -17.831335 0
M  V30 58 H 10.025768 5.696578 -16.805033 0
M  V30 59 H 12.757789 7.046321 -16.569208 0
M  V30 60 H 11.438852 7.265786 -15.457414 0
M  V30 61 H 13.220625 5.645239 -14.691998 0
M  V30 62 H 10.957099 2.641852 -15.098779 0
M  V30 63 H 9.386563 2.490444 -13.204164 0
M  V30 64 H 8.369501 4.172058 -11.090767 0
M  V30 65 H 8.580784 6.407982 -10.133133 0
M  V30 66 H 9.907925 9.750619 -9.611795 0
M  V30 67 H 8.527263 8.809117 -10.156109 0
M  V30 68 H 9.732378 8.094939 -9.053655 0
M  V30 69 H 11.605744 7.367031 -13.062815 0
M  V30 70 H 13.285922 3.375228 -15.784068 0
M  V30 71 H 13.907590 4.676905 -16.775492 0
M  V30 72 H 6.936874 -0.995751 -21.387096 0
M  V30 73 H 4.609140 -0.473729 -21.308304 0
M  V30 74 H 3.551306 0.375931 -19.176741 0
M  V30 75 H 4.885529 0.643181 -17.211834 0
M  V30 76 H 5.976836 -1.101294 -15.120836 0
M  V30 77 H 4.997888 -0.033986 -13.099299 0
M  V30 78 H 11.207181 3.606037 -16.915546 0
M  V30 END ATOM
M  V30 BEGIN BOND
M  V30 1 1 2 1
M  V30 2 1 3 2
M  V30 3 1 4 3
M  V30 4 2 5 4
M  V30 5 1 6 5
M  V30 6 1 7 6
M  V30 7 1 8 7
M  V30 8 2 9 8
M  V30 9 1 10 8
M  V30 10 1 11 10
M  V30 11 1 12 11
M  V30 12 1 13 12
M  V30 13 1 14 13
M  V30 14 1 15 14
M  V30 15 1 16 15
M  V30 16 1 17 16
M  V30 17 1 18 17
M  V30 18 1 19 18
M  V30 19 1 20 19
M  V30 20 2 21 20
M  V30 21 1 22 21
M  V30 22 1 23 22
M  V30 23 1 24 23
M  V30 24 2 25 24
M  V30 25 1 26 25
M  V30 26 1 27 26
M  V30 27 1 28 27
M  V30 28 2 29 26
M  V30 29 1 30 20
M  V30 30 2 30 23
M  V30 31 1 30 29
M  V30 32 1 31 15
M  V30 33 1 31 19
M  V30 34 1 32 10
M  V30 35 2 33 32
M  V30 36 1 34 32
M  V30 37 1 35 34
M  V30 38 2 36 35
M  V30 39 1 37 36
M  V30 40 2 38 37
M  V30 41 2 39 7
M  V30 42 1 39 34
M  V30 43 1 39 38
M  V30 44 2 40 6
M  V30 45 2 41 3
M  V30 46 1 41 40
M  V30 47 1 42 1
M  V30 48 1 43 1
M  V30 49 1 44 1
M  V30 50 1 45 4
M  V30 51 1 46 5
M  V30 52 1 47 11
M  V30 53 1 48 11
M  V30 54 1 49 12
M  V30 55 1 50 12
M  V30 56 1 51 13
M  V30 57 1 52 13
M  V30 58 1 53 14
M  V30 59 1 54 14
M  V30 60 1 55 16
M  V30 61 1 56 16
M  V30 62 1 57 17
M  V30 63 1 58 17
M  V30 64 1 59 18
M  V30 65 1 60 18
M  V30 66 1 19 61 CFG=1
M  V30 67 1 62 21
M  V30 68 1 63 22
M  V30 69 1 64 24
M  V30 70 1 65 25
M  V30 71 1 66 28
M  V30 72 1 67 28
M  V30 73 1 68 28
M  V30 74 1 69 29
M  V30 75 1 70 31
M  V30 76 1 71 31
M  V30 77 1 72 35
M  V30 78 1 73 36
M  V30 79 1 74 37
M  V30 80 1 75 38
M  V30 81 1 76 40
M  V30 82 1 77 41
M  V30 83 1 15 78 CFG=1
M  V30 END BOND
M  V30 END CTAB
M  END
>  <b_m_subgroup_collapsed>  (1914) 
0

>  <r_i_docking_score>  (1914) 
-6.4823834762696597

>  <s_m_subgroup_title>  (1914) 
glide-dock_SP_D22_pv

>  <s_m_subgroupid>  (1914) 
glide-dock_SP_D22_pv

>  <Molecule ChEMBL ID>  (1914) 
CHEMBL4570209

>  <Standard Type>  (1914) 
Ki

>  <Standard Value>  (1914) 
11160.0

>  <label>  (1914) 
0

$$$$
CHEMBL3774621
     RDKit          3D

  0  0  0  0  0  0  0  0  0  0999 V3000
M  V30 BEGIN CTAB
M  V30 COUNTS 62 66 0 0 1
M  V30 BEGIN ATOM
M  V30 1 C 11.544722 8.857950 -8.960999 0
M  V30 2 N 10.695377 7.747270 -8.566515 0
M  V30 3 C 9.961232 6.939188 -9.356867 0
M  V30 4 S 9.836320 7.203723 -11.097060 0
M  V30 5 C 8.368425 6.191429 -11.460871 0
M  V30 6 C 8.725403 4.755269 -11.852176 0
M  V30 7 C 9.537041 4.704910 -13.156818 0
M  V30 8 N 9.487136 3.380332 -13.812379 0 CFG=2 CHG=1
M  V30 9 C 10.410209 3.264042 -14.960202 0
M  V30 10 C 9.842414 2.152696 -15.844134 0 CFG=1
M  V30 11 C 10.422142 0.760723 -15.571967 0
M  V30 12 C 9.198639 -0.143174 -15.648575 0
M  V30 13 N 8.122188 0.661229 -15.096655 0
M  V30 14 C 6.792861 0.202461 -15.178200 0
M  V30 15 C 6.052945 0.170507 -13.976904 0
M  V30 16 C 4.704454 -0.227163 -13.970064 0
M  V30 17 C 4.093760 -0.642715 -15.162206 0
M  V30 18 C 4.821821 -0.626755 -16.365164 0
M  V30 19 C 6.169852 -0.179081 -16.397169 0
M  V30 20 O 6.896005 -0.061789 -17.565392 0
M  V30 21 C 6.485861 -0.658941 -18.718592 0
M  V30 22 F 7.456299 -0.534461 -19.656153 0
M  V30 23 F 6.268384 -1.989600 -18.552448 0
M  V30 24 F 5.371361 -0.071764 -19.223112 0
M  V30 25 C 8.358532 2.044586 -15.473158 0 CFG=1
M  V30 26 C 8.141656 3.001732 -14.297830 0
M  V30 27 N 9.361087 5.952416 -8.695180 0
M  V30 28 N 9.651274 6.172454 -7.375152 0
M  V30 29 C 10.431737 7.256466 -7.333043 0
M  V30 30 C 10.887129 7.831081 -6.066844 0
M  V30 31 C 10.886881 9.229798 -5.848266 0
M  V30 32 N 11.286285 9.773392 -4.676353 0
M  V30 33 C 11.692200 8.911852 -3.717798 0
M  V30 34 C 11.688272 7.515933 -3.926113 0
M  V30 35 N 11.285979 6.973135 -5.095289 0
M  V30 36 H 10.955337 9.771906 -9.012788 0
M  V30 37 H 11.988280 8.671038 -9.938754 0
M  V30 38 H 12.359727 8.979375 -8.248874 0
M  V30 39 H 7.686402 6.171021 -10.612851 0
M  V30 40 H 7.815194 6.671944 -12.267562 0
M  V30 41 H 9.273393 4.261400 -11.047625 0
M  V30 42 H 7.785261 4.215316 -11.950499 0
M  V30 43 H 9.170972 5.458512 -13.857643 0
M  V30 44 H 10.576174 4.963464 -12.944422 0
M  V30 45 H 10.410591 4.199053 -15.523926 0
M  V30 46 H 11.435155 3.071430 -14.640222 0
M  V30 47 H 9.954827 2.395605 -16.902231 0
M  V30 48 H 11.203621 0.474957 -16.276875 0
M  V30 49 H 10.843893 0.705401 -14.566376 0
M  V30 50 H 9.011897 -0.449373 -16.675594 0
M  V30 51 H 9.353337 -1.029775 -15.049054 0
M  V30 52 H 6.517891 0.463835 -13.047785 0
M  V30 53 H 4.144510 -0.223726 -13.046841 0
M  V30 54 H 3.062548 -0.964796 -15.160514 0
M  V30 55 H 4.306670 -0.940027 -17.259501 0
M  V30 56 H 7.719569 2.316795 -16.314734 0
M  V30 57 H 7.529932 2.573538 -13.504988 0
M  V30 58 H 7.618425 3.891878 -14.646665 0
M  V30 59 H 10.546464 9.919682 -6.606010 0
M  V30 60 H 12.014954 9.335062 -2.778036 0
M  V30 61 H 12.007380 6.833438 -3.151898 0
M  V30 62 H 9.761198 2.668801 -13.144269 0
M  V30 END ATOM
M  V30 BEGIN BOND
M  V30 1 1 2 1
M  V30 2 1 3 2
M  V30 3 1 4 3
M  V30 4 1 5 4
M  V30 5 1 6 5
M  V30 6 1 7 6
M  V30 7 1 8 7
M  V30 8 1 9 8
M  V30 9 1 10 9
M  V30 10 1 11 10
M  V30 11 1 12 11
M  V30 12 1 13 12
M  V30 13 1 14 13
M  V30 14 2 15 14
M  V30 15 1 16 15
M  V30 16 2 17 16
M  V30 17 1 18 17
M  V30 18 1 19 14
M  V30 19 2 19 18
M  V30 20 1 20 19
M  V30 21 1 21 20
M  V30 22 1 22 21
M  V30 23 1 23 21
M  V30 24 1 24 21
M  V30 25 1 25 10
M  V30 26 1 25 13
M  V30 27 1 26 8
M  V30 28 1 26 25
M  V30 29 2 27 3
M  V30 30 1 28 27
M  V30 31 1 29 2
M  V30 32 2 29 28
M  V30 33 1 30 29
M  V30 34 1 31 30
M  V30 35 2 32 31
M  V30 36 1 33 32
M  V30 37 2 34 33
M  V30 38 2 35 30
M  V30 39 1 35 34
M  V30 40 1 36 1
M  V30 41 1 37 1
M  V30 42 1 38 1
M  V30 43 1 39 5
M  V30 44 1 40 5
M  V30 45 1 41 6
M  V30 46 1 42 6
M  V30 47 1 43 7
M  V30 48 1 44 7
M  V30 49 1 45 9
M  V30 50 1 46 9
M  V30 51 1 10 47 CFG=3
M  V30 52 1 48 11
M  V30 53 1 49 11
M  V30 54 1 50 12
M  V30 55 1 51 12
M  V30 56 1 52 15
M  V30 57 1 53 16
M  V30 58 1 54 17
M  V30 59 1 55 18
M  V30 60 1 25 56 CFG=3
M  V30 61 1 57 26
M  V30 62 1 58 26
M  V30 63 1 59 31
M  V30 64 1 60 33
M  V30 65 1 61 34
M  V30 66 1 8 62 CFG=1
M  V30 END BOND
M  V30 END CTAB
M  END
>  <b_m_subgroup_collapsed>  (1915) 
0

>  <r_i_docking_score>  (1915) 
-6.4793172709345797

>  <s_m_subgroup_title>  (1915) 
glide-dock_SP_D22_pv

>  <s_m_subgroupid>  (1915) 
glide-dock_SP_D22_pv

>  <Molecule ChEMBL ID>  (1915) 
CHEMBL3774621

>  <Standard Type>  (1915) 
Ki

>  <Standard Value>  (1915) 
11.5

>  <label>  (1915) 
1

$$$$
CHEMBL2030628
     RDKit          3D

  0  0  0  0  0  0  0  0  0  0999 V3000
M  V30 BEGIN CTAB
M  V30 COUNTS 35 37 0 0 1
M  V30 BEGIN ATOM
M  V30 1 F 11.690547 6.933677 -4.016900 0
M  V30 2 C 11.285420 7.602508 -5.121796 0
M  V30 3 C 11.693081 8.933262 -5.329907 0
M  V30 4 C 11.282755 9.616392 -6.487438 0
M  V30 5 C 10.447052 8.974999 -7.422420 0
M  V30 6 C 10.000674 7.657824 -7.207453 0
M  V30 7 C 9.009218 7.028467 -8.177011 0
M  V30 8 C 9.539003 6.942268 -9.620465 0
M  V30 9 N 8.486241 6.571720 -10.606917 0 CFG=2 CHG=1
M  V30 10 C 8.127528 5.157151 -10.780226 0 CFG=1
M  V30 11 C 7.004254 5.261560 -11.832759 0
M  V30 12 C 7.510252 6.414732 -12.719223 0
M  V30 13 C 8.818477 6.812316 -12.017725 0 CFG=2
M  V30 14 C 9.866488 5.726737 -12.331500 0
M  V30 15 C 9.358828 4.548114 -11.472799 0
M  V30 16 C 10.439114 6.972646 -6.057082 0
M  V30 17 H 12.332554 9.423730 -4.611709 0
M  V30 18 H 11.604355 10.633980 -6.651768 0
M  V30 19 H 10.122843 9.514143 -8.297864 0
M  V30 20 H 8.705859 6.041302 -7.824053 0
M  V30 21 H 8.117431 7.651103 -8.145129 0
M  V30 22 H 9.905544 7.923833 -9.919714 0
M  V30 23 H 10.397128 6.271587 -9.659994 0
M  V30 24 H 7.830958 4.639058 -9.869206 0
M  V30 25 H 6.854280 4.333366 -12.386775 0
M  V30 26 H 6.049971 5.535970 -11.383794 0
M  V30 27 H 6.796810 7.240358 -12.726228 0
M  V30 28 H 7.687381 6.091278 -13.744883 0
M  V30 29 H 9.141058 7.828580 -12.246436 0
M  V30 30 H 10.858913 6.056594 -12.026410 0
M  V30 31 H 9.913910 5.483633 -13.393394 0
M  V30 32 H 10.086331 4.229619 -10.731793 0
M  V30 33 H 9.110619 3.676233 -12.077640 0
M  V30 34 H 10.107534 5.965814 -5.873686 0
M  V30 35 H 7.622332 7.102710 -10.387672 0
M  V30 END ATOM
M  V30 BEGIN BOND
M  V30 1 1 2 1
M  V30 2 1 3 2
M  V30 3 2 4 3
M  V30 4 1 5 4
M  V30 5 2 6 5
M  V30 6 1 7 6
M  V30 7 1 8 7
M  V30 8 1 9 8
M  V30 9 1 10 9
M  V30 10 1 11 10
M  V30 11 1 12 11
M  V30 12 1 13 9
M  V30 13 1 13 12
M  V30 14 1 14 13
M  V30 15 1 15 10
M  V30 16 1 15 14
M  V30 17 2 16 2
M  V30 18 1 16 6
M  V30 19 1 17 3
M  V30 20 1 18 4
M  V30 21 1 19 5
M  V30 22 1 20 7
M  V30 23 1 21 7
M  V30 24 1 22 8
M  V30 25 1 23 8
M  V30 26 1 10 24 CFG=1
M  V30 27 1 25 11
M  V30 28 1 26 11
M  V30 29 1 27 12
M  V30 30 1 28 12
M  V30 31 1 13 29 CFG=1
M  V30 32 1 30 14
M  V30 33 1 31 14
M  V30 34 1 32 15
M  V30 35 1 33 15
M  V30 36 1 34 16
M  V30 37 1 9 35 CFG=1
M  V30 END BOND
M  V30 END CTAB
M  END
>  <b_m_subgroup_collapsed>  (1916) 
0

>  <r_i_docking_score>  (1916) 
-6.4781295661762401

>  <s_m_subgroup_title>  (1916) 
glide-dock_SP_D22_pv

>  <s_m_subgroupid>  (1916) 
glide-dock_SP_D22_pv

>  <Molecule ChEMBL ID>  (1916) 
CHEMBL2030628

>  <Standard Type>  (1916) 
Ki

>  <Standard Value>  (1916) 
10000.0

>  <label>  (1916) 
0

$$$$
CHEMBL5290993
     RDKit          3D

  0  0  0  0  0  0  0  0  0  0999 V3000
M  V30 BEGIN CTAB
M  V30 COUNTS 50 52 0 0 1
M  V30 BEGIN ATOM
M  V30 1 C 10.397639 1.327097 -15.044752 0
M  V30 2 C 8.902005 1.239267 -14.686155 0
M  V30 3 C 8.159583 0.422366 -15.758181 0
M  V30 4 N 8.282351 2.585578 -14.514359 0 CFG=2 CHG=1
M  V30 5 C 8.984947 3.507241 -13.603863 0
M  V30 6 C 7.952512 4.592379 -13.255190 0 CFG=2
M  V30 7 N 8.335535 5.352854 -12.059751 0
M  V30 8 C 9.503302 6.012425 -11.937449 0
M  V30 9 O 10.286783 6.128286 -12.880438 0
M  V30 10 N 9.760629 6.547146 -10.723894 0
M  V30 11 C 10.908433 7.451921 -10.535921 0
M  V30 12 C 10.925072 7.746048 -9.068736 0
M  V30 13 C 11.827400 8.559121 -8.365501 0
M  V30 14 C 11.635145 8.713924 -6.974749 0
M  V30 15 C 10.568311 8.048779 -6.321331 0
M  V30 16 C 9.681545 7.222026 -7.048489 0
M  V30 17 C 9.890741 7.083945 -8.433470 0
M  V30 18 C 9.112025 6.252594 -9.421766 0 CFG=2
M  V30 19 C 9.147267 4.763239 -9.051444 0
M  V30 20 C 6.661941 3.768568 -13.111008 0 CFG=1
M  V30 21 C 5.337355 4.507992 -13.359037 0
M  V30 22 C 6.866080 2.577251 -14.071607 0
M  V30 23 H 10.814875 0.332000 -15.201208 0
M  V30 24 H 10.563224 1.898525 -15.960405 0
M  V30 25 H 10.986854 1.788885 -14.250771 0
M  V30 26 H 8.819866 0.704365 -13.739594 0
M  V30 27 H 8.624794 -0.555540 -15.895761 0
M  V30 28 H 7.120739 0.238475 -15.483858 0
M  V30 29 H 8.167331 0.927684 -16.723745 0
M  V30 30 H 9.875102 3.914930 -14.083471 0
M  V30 31 H 9.296739 2.975629 -12.701872 0
M  V30 32 H 7.857594 5.284294 -14.094406 0
M  V30 33 H 7.697488 5.363900 -11.274215 0
M  V30 34 H 10.775028 8.373326 -11.105268 0
M  V30 35 H 11.844968 6.978748 -10.834042 0
M  V30 36 H 12.643391 9.047134 -8.875540 0
M  V30 37 H 12.310337 9.338883 -6.409584 0
M  V30 38 H 10.436167 8.168386 -5.257212 0
M  V30 39 H 8.865870 6.710614 -6.556878 0
M  V30 40 H 8.085082 6.598526 -9.435723 0
M  V30 41 H 8.716642 4.601339 -8.065462 0
M  V30 42 H 8.555471 4.173038 -9.744487 0
M  V30 43 H 10.164566 4.371290 -9.042068 0
M  V30 44 H 6.632388 3.377945 -12.092504 0
M  V30 45 H 5.224673 4.802253 -14.397881 0
M  V30 46 H 4.485100 3.875516 -13.101461 0
M  V30 47 H 5.286472 5.408871 -12.746499 0
M  V30 48 H 6.232254 2.649144 -14.954329 0
M  V30 49 H 6.617134 1.645332 -13.560819 0
M  V30 50 H 8.298115 3.033801 -15.418313 0
M  V30 END ATOM
M  V30 BEGIN BOND
M  V30 1 1 2 1
M  V30 2 1 3 2
M  V30 3 1 4 2
M  V30 4 1 5 4
M  V30 5 1 6 5
M  V30 6 1 7 6
M  V30 7 1 8 7
M  V30 8 2 9 8
M  V30 9 1 10 8
M  V30 10 1 11 10
M  V30 11 1 12 11
M  V30 12 2 13 12
M  V30 13 1 14 13
M  V30 14 2 15 14
M  V30 15 1 16 15
M  V30 16 1 17 12
M  V30 17 2 17 16
M  V30 18 1 18 10
M  V30 19 1 18 17
M  V30 20 1 19 18
M  V30 21 1 20 6
M  V30 22 1 21 20
M  V30 23 1 22 4
M  V30 24 1 22 20
M  V30 25 1 23 1
M  V30 26 1 24 1
M  V30 27 1 25 1
M  V30 28 1 26 2
M  V30 29 1 27 3
M  V30 30 1 28 3
M  V30 31 1 29 3
M  V30 32 1 30 5
M  V30 33 1 31 5
M  V30 34 1 6 32 CFG=3
M  V30 35 1 33 7
M  V30 36 1 34 11
M  V30 37 1 35 11
M  V30 38 1 36 13
M  V30 39 1 37 14
M  V30 40 1 38 15
M  V30 41 1 39 16
M  V30 42 1 18 40 CFG=3
M  V30 43 1 41 19
M  V30 44 1 42 19
M  V30 45 1 43 19
M  V30 46 1 20 44 CFG=1
M  V30 47 1 45 21
M  V30 48 1 46 21
M  V30 49 1 47 21
M  V30 50 1 48 22
M  V30 51 1 49 22
M  V30 52 1 4 50 CFG=3
M  V30 END BOND
M  V30 END CTAB
M  END
>  <b_m_subgroup_collapsed>  (1917) 
0

>  <r_i_docking_score>  (1917) 
-6.4777387899213297

>  <s_m_subgroup_title>  (1917) 
glide-dock_SP_D22_pv

>  <s_m_subgroupid>  (1917) 
glide-dock_SP_D22_pv

>  <Molecule ChEMBL ID>  (1917) 
CHEMBL5290993

>  <Standard Type>  (1917) 
Ki

>  <Standard Value>  (1917) 
10000.0

>  <label>  (1917) 
0

$$$$
CHEMBL105512
     RDKit          3D

  0  0  0  0  0  0  0  0  0  0999 V3000
M  V30 BEGIN CTAB
M  V30 COUNTS 41 42 0 0 1
M  V30 BEGIN ATOM
M  V30 1 C 8.086288 6.378103 -6.871276 0
M  V30 2 C 8.583945 5.601910 -8.092830 0
M  V30 3 C 10.066315 5.828931 -8.473151 0
M  V30 4 N 10.521729 7.251561 -8.539268 0 CHG=1
M  V30 5 C 9.764539 8.038578 -9.553416 0
M  V30 6 C 10.669472 8.514546 -10.700833 0
M  V30 7 C 11.456573 7.394073 -11.394531 0
M  V30 8 C 10.758819 7.955822 -7.230717 0 CFG=2
M  V30 9 C 11.644853 9.215595 -7.382202 0
M  V30 10 C 11.680787 10.057714 -6.085174 0
M  V30 11 C 11.839997 9.185781 -4.876572 0
M  V30 12 N 12.179522 9.700397 -3.627781 0
M  V30 13 C 12.379803 8.736794 -2.731570 0
M  V30 14 N 12.828115 8.972141 -1.448856 0
M  V30 15 S 12.085206 7.115621 -3.343954 0
M  V30 16 C 11.685592 7.825964 -4.888874 0
M  V30 17 C 11.317092 7.039059 -6.101391 0
M  V30 18 H 7.054329 6.172354 -6.646649 0
M  V30 19 H 8.627518 6.172250 -5.958162 0
M  V30 20 H 8.086110 7.445138 -7.055497 0
M  V30 21 H 7.938395 5.841321 -8.937594 0
M  V30 22 H 8.428438 4.536924 -7.919328 0
M  V30 23 H 10.216442 5.394691 -9.462315 0
M  V30 24 H 10.727796 5.246523 -7.841037 0
M  V30 25 H 8.963655 7.448184 -10.001418 0
M  V30 26 H 9.258218 8.887757 -9.090907 0
M  V30 27 H 10.025283 8.972540 -11.448329 0
M  V30 28 H 11.359456 9.287905 -10.362082 0
M  V30 29 H 11.979050 7.772716 -12.272902 0
M  V30 30 H 12.209584 6.972612 -10.731606 0
M  V30 31 H 10.797859 6.590425 -11.726340 0
M  V30 32 H 9.826557 8.372056 -6.869390 0
M  V30 33 H 12.658645 8.913785 -7.649071 0
M  V30 34 H 11.286065 9.845628 -8.190415 0
M  V30 35 H 10.755812 10.628116 -5.996926 0
M  V30 36 H 12.485976 10.790087 -6.145754 0
M  V30 37 H 13.241535 9.884783 -1.269769 0
M  V30 38 H 13.175723 8.213391 -0.884116 0
M  V30 39 H 12.176078 6.493181 -6.476198 0
M  V30 40 H 10.636436 6.254798 -5.795280 0
M  V30 41 H 11.446217 7.173807 -8.937058 0
M  V30 END ATOM
M  V30 BEGIN BOND
M  V30 1 1 2 1
M  V30 2 1 3 2
M  V30 3 1 4 3
M  V30 4 1 5 4
M  V30 5 1 6 5
M  V30 6 1 7 6
M  V30 7 1 8 4
M  V30 8 1 9 8
M  V30 9 1 10 9
M  V30 10 1 11 10
M  V30 11 1 12 11
M  V30 12 2 13 12
M  V30 13 1 14 13
M  V30 14 1 15 13
M  V30 15 2 16 11
M  V30 16 1 16 15
M  V30 17 1 17 8
M  V30 18 1 17 16
M  V30 19 1 18 1
M  V30 20 1 19 1
M  V30 21 1 20 1
M  V30 22 1 21 2
M  V30 23 1 22 2
M  V30 24 1 23 3
M  V30 25 1 24 3
M  V30 26 1 25 5
M  V30 27 1 26 5
M  V30 28 1 27 6
M  V30 29 1 28 6
M  V30 30 1 29 7
M  V30 31 1 30 7
M  V30 32 1 31 7
M  V30 33 1 8 32 CFG=1
M  V30 34 1 33 9
M  V30 35 1 34 9
M  V30 36 1 35 10
M  V30 37 1 36 10
M  V30 38 1 37 14
M  V30 39 1 38 14
M  V30 40 1 39 17
M  V30 41 1 40 17
M  V30 42 1 41 4
M  V30 END BOND
M  V30 END CTAB
M  END
>  <b_m_subgroup_collapsed>  (1918) 
0

>  <r_i_docking_score>  (1918) 
-6.4775339539494796

>  <s_m_subgroup_title>  (1918) 
glide-dock_SP_D22_pv

>  <s_m_subgroupid>  (1918) 
glide-dock_SP_D22_pv

>  <Molecule ChEMBL ID>  (1918) 
CHEMBL105512

>  <Standard Type>  (1918) 
Ki

>  <Standard Value>  (1918) 
57.0

>  <label>  (1918) 
1

$$$$
CHEMBL394473
     RDKit          3D

  0  0  0  0  0  0  0  0  0  0999 V3000
M  V30 BEGIN CTAB
M  V30 COUNTS 48 50 0 0 1
M  V30 BEGIN ATOM
M  V30 1 C 12.489715 6.198839 -2.229733 0
M  V30 2 C 12.142898 6.970138 -3.107742 0
M  V30 3 C 11.717140 7.842756 -4.180786 0
M  V30 4 C 11.729276 9.241907 -4.014816 0
M  V30 5 C 11.287998 10.069958 -5.063362 0
M  V30 6 C 10.845192 9.505466 -6.271407 0
M  V30 7 C 10.816371 8.102480 -6.439033 0
M  V30 8 C 10.231737 7.470940 -7.669128 0
M  V30 9 O 9.811904 6.314749 -7.640432 0
M  V30 10 N 10.209463 8.236890 -8.771230 0
M  V30 11 C 9.465172 7.877172 -9.969216 0
M  V30 12 C 10.176418 6.793143 -10.791223 0
M  V30 13 N 9.287909 6.300890 -11.837090 0
M  V30 14 C 8.438792 5.222705 -11.299932 0
M  V30 15 C 7.477894 4.673728 -12.375550 0
M  V30 16 N 8.239921 4.287301 -13.556613 0
M  V30 17 C 8.139890 3.005932 -14.130136 0
M  V30 18 C 6.858404 2.420604 -14.249901 0
M  V30 19 C 6.694647 1.151802 -14.834092 0
M  V30 20 C 7.810382 0.461619 -15.331419 0
M  V30 21 C 9.092814 1.022166 -15.209654 0
M  V30 22 Cl 10.450919 0.167254 -15.845734 0
M  V30 23 C 9.269290 2.271008 -14.580686 0
M  V30 24 Cl 10.888935 2.824154 -14.319715 0
M  V30 25 C 9.108329 5.330031 -14.074210 0
M  V30 26 C 10.072948 5.785238 -12.961862 0
M  V30 27 C 11.261688 7.275677 -5.385791 0
M  V30 28 H 12.799638 5.526896 -1.461095 0
M  V30 29 H 12.063826 9.681649 -3.087420 0
M  V30 30 H 11.283620 11.141410 -4.944684 0
M  V30 31 H 10.492465 10.168245 -7.045903 0
M  V30 32 H 10.611431 9.158741 -8.732371 0
M  V30 33 H 8.486197 7.533939 -9.650128 0
M  V30 34 H 9.304326 8.770134 -10.573131 0
M  V30 35 H 11.081246 7.229529 -11.222633 0
M  V30 36 H 10.491302 5.963702 -10.157645 0
M  V30 37 H 9.065471 4.411251 -10.926596 0
M  V30 38 H 7.852785 5.582880 -10.452387 0
M  V30 39 H 6.920804 3.831028 -11.966519 0
M  V30 40 H 6.750664 5.436110 -12.653818 0
M  V30 41 H 5.983590 2.953218 -13.907115 0
M  V30 42 H 5.707595 0.720133 -14.924742 0
M  V30 43 H 7.683127 -0.504036 -15.802399 0
M  V30 44 H 9.642502 5.019198 -14.970405 0
M  V30 45 H 8.483259 6.171899 -14.366165 0
M  V30 46 H 10.727653 6.571653 -13.342213 0
M  V30 47 H 10.713987 4.966277 -12.643187 0
M  V30 48 H 11.227406 6.199742 -5.489778 0
M  V30 END ATOM
M  V30 BEGIN BOND
M  V30 1 3 2 1
M  V30 2 1 3 2
M  V30 3 1 4 3
M  V30 4 2 5 4
M  V30 5 1 6 5
M  V30 6 2 7 6
M  V30 7 1 8 7
M  V30 8 2 9 8
M  V30 9 1 10 8
M  V30 10 1 11 10
M  V30 11 1 12 11
M  V30 12 1 13 12
M  V30 13 1 14 13
M  V30 14 1 15 14
M  V30 15 1 16 15
M  V30 16 1 17 16
M  V30 17 2 18 17
M  V30 18 1 19 18
M  V30 19 2 20 19
M  V30 20 1 21 20
M  V30 21 1 22 21
M  V30 22 1 23 17
M  V30 23 2 23 21
M  V30 24 1 24 23
M  V30 25 1 25 16
M  V30 26 1 26 13
M  V30 27 1 26 25
M  V30 28 2 27 3
M  V30 29 1 27 7
M  V30 30 1 28 1
M  V30 31 1 29 4
M  V30 32 1 30 5
M  V30 33 1 31 6
M  V30 34 1 32 10
M  V30 35 1 33 11
M  V30 36 1 34 11
M  V30 37 1 35 12
M  V30 38 1 36 12
M  V30 39 1 37 14
M  V30 40 1 38 14
M  V30 41 1 39 15
M  V30 42 1 40 15
M  V30 43 1 41 18
M  V30 44 1 42 19
M  V30 45 1 43 20
M  V30 46 1 44 25
M  V30 47 1 45 25
M  V30 48 1 46 26
M  V30 49 1 47 26
M  V30 50 1 48 27
M  V30 END BOND
M  V30 END CTAB
M  END
>  <b_m_subgroup_collapsed>  (1919) 
0

>  <r_i_docking_score>  (1919) 
-6.4762029203973901

>  <s_m_subgroup_title>  (1919) 
glide-dock_SP_D22_pv

>  <s_m_subgroupid>  (1919) 
glide-dock_SP_D22_pv

>  <Molecule ChEMBL ID>  (1919) 
CHEMBL394473

>  <Standard Type>  (1919) 
Ki

>  <Standard Value>  (1919) 
83.0

>  <label>  (1919) 
1

$$$$
CHEMBL562464
     RDKit          3D

  0  0  0  0  0  0  0  0  0  0999 V3000
M  V30 BEGIN CTAB
M  V30 COUNTS 58 62 0 0 1
M  V30 BEGIN ATOM
M  V30 1 O 12.640974 8.178279 -10.728554 0
M  V30 2 C 11.535611 7.716450 -10.998446 0
M  V30 3 N 11.136822 7.366654 -12.232250 0
M  V30 4 C 11.920692 7.475022 -13.468720 0
M  V30 5 C 12.117741 6.114777 -14.166798 0
M  V30 6 N 12.914238 6.253196 -15.415446 0 CFG=1 CHG=1
M  V30 7 C 13.849474 5.128569 -15.673733 0
M  V30 8 C 14.262220 4.973338 -17.165363 0 CFG=2
M  V30 9 C 14.479208 6.363448 -17.787491 0
M  V30 10 C 13.227071 7.258642 -17.671312 0
M  V30 11 C 12.200704 6.760699 -16.623175 0 CFG=1
M  V30 12 C 11.077254 5.855763 -17.231264 0
M  V30 13 C 11.077925 4.366836 -16.903662 0
M  V30 14 C 9.979282 3.822443 -16.201811 0
M  V30 15 C 9.928023 2.447666 -15.908606 0
M  V30 16 C 10.974409 1.599913 -16.319942 0
M  V30 17 C 12.068013 2.132949 -17.029524 0
M  V30 18 C 12.130901 3.513166 -17.317822 0
M  V30 19 C 13.345840 4.072803 -18.039980 0
M  V30 20 C 9.751325 6.930386 -12.249357 0
M  V30 21 C 9.464525 6.718090 -10.775097 0
M  V30 22 N 10.552824 7.427614 -10.123508 0
M  V30 23 C 10.557169 7.660928 -8.716713 0
M  V30 24 C 9.917475 6.732190 -7.864582 0
M  V30 25 C 9.893893 6.939756 -6.475188 0
M  V30 26 C 10.488371 8.084366 -5.924968 0
M  V30 27 C 11.080148 9.042177 -6.758763 0
M  V30 28 Cl 11.686179 10.487120 -6.038849 0
M  V30 29 C 11.135663 8.825891 -8.152047 0
M  V30 30 H 11.411652 8.172359 -14.127632 0
M  V30 31 H 12.906033 7.911660 -13.264876 0
M  V30 32 H 12.643600 5.457086 -13.472741 0
M  V30 33 H 11.165638 5.635669 -14.385547 0
M  V30 34 H 14.743715 5.372190 -15.101769 0
M  V30 35 H 13.474856 4.193577 -15.247802 0
M  V30 36 H 15.233990 4.476875 -17.158812 0
M  V30 37 H 15.300651 6.848969 -17.259777 0
M  V30 38 H 14.800047 6.283767 -18.827101 0
M  V30 39 H 12.752977 7.374032 -18.646343 0
M  V30 40 H 13.552706 8.265841 -17.404572 0
M  V30 41 H 11.690977 7.660028 -16.291994 0
M  V30 42 H 11.087657 5.935367 -18.320168 0
M  V30 43 H 10.099279 6.252942 -16.968683 0
M  V30 44 H 9.162093 4.460731 -15.892115 0
M  V30 45 H 9.083683 2.042402 -15.367519 0
M  V30 46 H 10.939156 0.543479 -16.093023 0
M  V30 47 H 12.870414 1.468549 -17.324945 0
M  V30 48 H 13.002187 4.606398 -18.928009 0
M  V30 49 H 13.934224 3.241863 -18.430292 0
M  V30 50 H 9.118827 7.727368 -12.646064 0
M  V30 51 H 9.583011 6.022598 -12.828589 0
M  V30 52 H 9.520399 5.655610 -10.534095 0
M  V30 53 H 8.486082 7.093288 -10.481645 0
M  V30 54 H 9.445948 5.844883 -8.260975 0
M  V30 55 H 9.410804 6.222948 -5.828537 0
M  V30 56 H 10.487123 8.240348 -4.858431 0
M  V30 57 H 11.595453 9.568783 -8.786489 0
M  V30 58 H 13.549658 7.007491 -15.198652 0
M  V30 END ATOM
M  V30 BEGIN BOND
M  V30 1 2 2 1
M  V30 2 1 3 2
M  V30 3 1 4 3
M  V30 4 1 5 4
M  V30 5 1 6 5
M  V30 6 1 7 6
M  V30 7 1 8 7
M  V30 8 1 9 8
M  V30 9 1 10 9
M  V30 10 1 11 6
M  V30 11 1 11 10
M  V30 12 1 12 11
M  V30 13 1 13 12
M  V30 14 2 14 13
M  V30 15 1 15 14
M  V30 16 2 16 15
M  V30 17 1 17 16
M  V30 18 1 18 13
M  V30 19 2 18 17
M  V30 20 1 19 8
M  V30 21 1 19 18
M  V30 22 1 20 3
M  V30 23 1 21 20
M  V30 24 1 22 2
M  V30 25 1 22 21
M  V30 26 1 23 22
M  V30 27 2 24 23
M  V30 28 1 25 24
M  V30 29 2 26 25
M  V30 30 1 27 26
M  V30 31 1 28 27
M  V30 32 1 29 23
M  V30 33 2 29 27
M  V30 34 1 30 4
M  V30 35 1 31 4
M  V30 36 1 32 5
M  V30 37 1 33 5
M  V30 38 1 34 7
M  V30 39 1 35 7
M  V30 40 1 8 36 CFG=1
M  V30 41 1 37 9
M  V30 42 1 38 9
M  V30 43 1 39 10
M  V30 44 1 40 10
M  V30 45 1 11 41 CFG=1
M  V30 46 1 42 12
M  V30 47 1 43 12
M  V30 48 1 44 14
M  V30 49 1 45 15
M  V30 50 1 46 16
M  V30 51 1 47 17
M  V30 52 1 48 19
M  V30 53 1 49 19
M  V30 54 1 50 20
M  V30 55 1 51 20
M  V30 56 1 52 21
M  V30 57 1 53 21
M  V30 58 1 54 24
M  V30 59 1 55 25
M  V30 60 1 56 26
M  V30 61 1 57 29
M  V30 62 1 6 58 CFG=1
M  V30 END BOND
M  V30 END CTAB
M  END
>  <b_m_subgroup_collapsed>  (1920) 
0

>  <r_i_docking_score>  (1920) 
-6.4759700557867497

>  <s_m_subgroup_title>  (1920) 
glide-dock_SP_D22_pv

>  <s_m_subgroupid>  (1920) 
glide-dock_SP_D22_pv

>  <Molecule ChEMBL ID>  (1920) 
CHEMBL562464

>  <Standard Type>  (1920) 
Ki

>  <Standard Value>  (1920) 
25.12

>  <label>  (1920) 
1

$$$$
CHEMBL457899
     RDKit          3D

  0  0  0  0  0  0  0  0  0  0999 V3000
M  V30 BEGIN CTAB
M  V30 COUNTS 69 72 0 0 1
M  V30 BEGIN ATOM
M  V30 1 C 6.838674 -0.149508 -15.923862 0
M  V30 2 O 6.934342 -0.128898 -17.340958 0
M  V30 3 C 7.628488 0.905208 -17.931753 0
M  V30 4 C 7.744432 0.875979 -19.336975 0
M  V30 5 C 8.440335 1.889004 -20.023758 0
M  V30 6 C 9.019310 2.954259 -19.312521 0
M  V30 7 C 8.906005 3.004850 -17.909105 0
M  V30 8 C 9.508027 4.164992 -17.138140 0
M  V30 9 C 10.938684 3.887234 -16.666882 0
M  V30 10 C 11.481112 5.018944 -15.810953 0
M  V30 11 C 12.368237 5.954043 -16.384253 0
M  V30 12 C 12.890368 7.004926 -15.609998 0
M  V30 13 C 12.551719 7.104447 -14.250083 0
M  V30 14 C 11.683711 6.161590 -13.668732 0
M  V30 15 C 11.099532 5.134581 -14.452060 0
M  V30 16 O 10.157655 4.238142 -13.980211 0
M  V30 17 C 9.734369 4.277618 -12.619349 0
M  V30 18 C 8.846496 5.482268 -12.258016 0
M  V30 19 C 8.467610 5.498194 -10.766033 0
M  V30 20 N 9.535336 5.893747 -9.837556 0
M  V30 21 C 9.795758 7.342672 -9.899758 0
M  V30 22 C 10.825771 7.796414 -8.829910 0
M  V30 23 N 10.398104 7.387028 -7.491646 0
M  V30 24 C 10.876011 8.049249 -6.336845 0
M  V30 25 C 10.893390 9.460555 -6.293129 0
M  V30 26 C 11.287819 10.151829 -5.132987 0
M  V30 27 C 11.686364 9.433445 -3.989653 0
M  V30 28 C 11.685866 8.022182 -4.003015 0
M  V30 29 C 12.003333 7.232240 -2.740046 0
M  V30 30 F 12.886093 6.296868 -3.033845 0
M  V30 31 F 12.501720 8.027816 -1.795788 0
M  V30 32 F 10.931615 6.612168 -2.246974 0
M  V30 33 C 11.285979 7.342062 -5.175646 0
M  V30 34 C 10.047859 5.978313 -7.415407 0
M  V30 35 C 9.018798 5.611163 -8.494252 0
M  V30 36 C 8.219148 1.980084 -17.220716 0
M  V30 37 H 6.261638 -1.021724 -15.617768 0
M  V30 38 H 7.822884 -0.221185 -15.457795 0
M  V30 39 H 6.321161 0.733262 -15.547127 0
M  V30 40 H 7.302444 0.063919 -19.895721 0
M  V30 41 H 8.525520 1.849284 -21.099531 0
M  V30 42 H 9.543242 3.734559 -19.846481 0
M  V30 43 H 8.886147 4.373016 -16.270241 0
M  V30 44 H 9.481463 5.063788 -17.754536 0
M  V30 45 H 11.589724 3.730047 -17.527227 0
M  V30 46 H 10.970707 2.962538 -16.088552 0
M  V30 47 H 12.649758 5.871927 -17.423784 0
M  V30 48 H 13.565267 7.721777 -16.054205 0
M  V30 49 H 12.971061 7.896087 -13.645972 0
M  V30 50 H 11.468897 6.260654 -12.618859 0
M  V30 51 H 9.150503 3.372714 -12.457153 0
M  V30 52 H 10.572971 4.178193 -11.943375 0
M  V30 53 H 9.273832 6.437518 -12.552282 0
M  V30 54 H 7.927614 5.401096 -12.838276 0
M  V30 55 H 7.632586 6.172263 -10.631349 0
M  V30 56 H 8.096625 4.506401 -10.504687 0
M  V30 57 H 10.168856 7.608850 -10.888510 0
M  V30 58 H 8.865992 7.896334 -9.758633 0
M  V30 59 H 11.803085 7.360420 -9.039441 0
M  V30 60 H 10.953613 8.875680 -8.896185 0
M  V30 61 H 10.563859 10.033100 -7.140709 0
M  V30 62 H 11.281250 11.231924 -5.118232 0
M  V30 63 H 11.966201 9.974415 -3.096556 0
M  V30 64 H 11.281672 6.262310 -5.150758 0
M  V30 65 H 10.949936 5.373344 -7.513267 0
M  V30 66 H 9.599124 5.772476 -6.447482 0
M  V30 67 H 8.092029 6.160882 -8.319581 0
M  V30 68 H 8.777366 4.550558 -8.405184 0
M  V30 69 H 8.153186 2.043027 -16.145144 0
M  V30 END ATOM
M  V30 BEGIN BOND
M  V30 1 1 2 1
M  V30 2 1 3 2
M  V30 3 2 4 3
M  V30 4 1 5 4
M  V30 5 2 6 5
M  V30 6 1 7 6
M  V30 7 1 8 7
M  V30 8 1 9 8
M  V30 9 1 10 9
M  V30 10 2 11 10
M  V30 11 1 12 11
M  V30 12 2 13 12
M  V30 13 1 14 13
M  V30 14 1 15 10
M  V30 15 2 15 14
M  V30 16 1 16 15
M  V30 17 1 17 16
M  V30 18 1 18 17
M  V30 19 1 19 18
M  V30 20 1 20 19
M  V30 21 1 21 20
M  V30 22 1 22 21
M  V30 23 1 23 22
M  V30 24 1 24 23
M  V30 25 1 25 24
M  V30 26 2 26 25
M  V30 27 1 27 26
M  V30 28 2 28 27
M  V30 29 1 29 28
M  V30 30 1 30 29
M  V30 31 1 31 29
M  V30 32 1 32 29
M  V30 33 2 33 24
M  V30 34 1 33 28
M  V30 35 1 34 23
M  V30 36 1 35 20
M  V30 37 1 35 34
M  V30 38 1 36 3
M  V30 39 2 36 7
M  V30 40 1 37 1
M  V30 41 1 38 1
M  V30 42 1 39 1
M  V30 43 1 40 4
M  V30 44 1 41 5
M  V30 45 1 42 6
M  V30 46 1 43 8
M  V30 47 1 44 8
M  V30 48 1 45 9
M  V30 49 1 46 9
M  V30 50 1 47 11
M  V30 51 1 48 12
M  V30 52 1 49 13
M  V30 53 1 50 14
M  V30 54 1 51 17
M  V30 55 1 52 17
M  V30 56 1 53 18
M  V30 57 1 54 18
M  V30 58 1 55 19
M  V30 59 1 56 19
M  V30 60 1 57 21
M  V30 61 1 58 21
M  V30 62 1 59 22
M  V30 63 1 60 22
M  V30 64 1 61 25
M  V30 65 1 62 26
M  V30 66 1 63 27
M  V30 67 1 64 33
M  V30 68 1 65 34
M  V30 69 1 66 34
M  V30 70 1 67 35
M  V30 71 1 68 35
M  V30 72 1 69 36
M  V30 END BOND
M  V30 END CTAB
M  END
>  <b_m_subgroup_collapsed>  (1921) 
0

>  <r_i_docking_score>  (1921) 
-6.4736782383646299

>  <s_m_subgroup_title>  (1921) 
glide-dock_SP_D22_pv

>  <s_m_subgroupid>  (1921) 
glide-dock_SP_D22_pv

>  <Molecule ChEMBL ID>  (1921) 
CHEMBL457899

>  <Standard Type>  (1921) 
Ki

>  <Standard Value>  (1921) 
1412000.0

>  <label>  (1921) 
0

$$$$
CHEMBL603542
     RDKit          3D

  0  0  0  0  0  0  0  0  0  0999 V3000
M  V30 BEGIN CTAB
M  V30 COUNTS 56 59 0 0 1
M  V30 BEGIN ATOM
M  V30 1 C 13.220659 2.252742 -18.305410 0
M  V30 2 C 12.070893 1.680206 -17.467730 0
M  V30 3 C 11.035416 2.744740 -17.062471 0
M  V30 4 N 10.024973 2.211179 -16.100491 0 CFG=2 CHG=1
M  V30 5 C 9.012959 1.393835 -16.801577 0
M  V30 6 C 8.168020 0.657900 -15.778777 0
M  V30 7 C 7.447866 1.587350 -14.825555 0
M  V30 8 C 6.241715 1.273768 -14.183605 0
M  V30 9 C 5.685221 2.176155 -13.269732 0
M  V30 10 C 6.354835 3.372487 -12.964777 0
M  V30 11 C 7.593726 3.750867 -13.561607 0
M  V30 12 C 8.087690 2.822654 -14.520543 0
M  V30 13 C 9.389107 3.250212 -15.234175 0 CFG=1
M  V30 14 C 10.381720 3.826066 -14.201445 0
M  V30 15 C 9.776743 4.969704 -13.398824 0
M  V30 16 C 10.586711 6.047801 -12.940270 0
M  V30 17 C 12.071850 6.173025 -13.252736 0
M  V30 18 C 12.318509 7.069033 -14.455519 0
M  V30 19 C 13.060399 6.821883 -15.553392 0
M  V30 20 C 13.187703 7.859650 -16.652338 0
M  V30 21 C 13.826006 5.538999 -15.824797 0
M  V30 22 C 10.003176 7.084300 -12.193496 0
M  V30 23 C 8.622046 7.100730 -11.975533 0
M  V30 24 C 7.807975 6.062858 -12.460923 0
M  V30 25 O 6.468327 6.200973 -12.246978 0
M  V30 26 C 8.377234 4.947948 -13.138968 0
M  V30 27 H 13.897605 1.461457 -18.632286 0
M  V30 28 H 13.808870 2.969577 -17.731714 0
M  V30 29 H 12.850063 2.757848 -19.198158 0
M  V30 30 H 11.599030 0.879542 -18.035868 0
M  V30 31 H 12.485064 1.215054 -16.574499 0
M  V30 32 H 11.581203 3.584150 -16.643671 0
M  V30 33 H 10.533621 3.144309 -17.944122 0
M  V30 34 H 8.386537 2.028611 -17.430376 0
M  V30 35 H 9.478660 0.662701 -17.457825 0
M  V30 36 H 7.424271 0.039889 -16.288025 0
M  V30 37 H 8.784655 -0.026429 -15.193320 0
M  V30 38 H 5.744750 0.336470 -14.390196 0
M  V30 39 H 4.760291 1.932110 -12.765250 0
M  V30 40 H 5.905175 3.963230 -12.185139 0
M  V30 41 H 9.099183 4.065614 -15.902120 0
M  V30 42 H 10.684816 3.048353 -13.498784 0
M  V30 43 H 11.282767 4.169749 -14.691286 0
M  V30 44 H 12.549256 6.653304 -12.399632 0
M  V30 45 H 12.555614 5.203679 -13.326391 0
M  V30 46 H 11.826746 8.028441 -14.391253 0
M  V30 47 H 12.781704 7.473699 -17.587517 0
M  V30 48 H 14.233925 8.116718 -16.816883 0
M  V30 49 H 12.653247 8.779048 -16.409500 0
M  V30 50 H 13.515292 5.119590 -16.781120 0
M  V30 51 H 13.685414 4.775803 -15.064900 0
M  V30 52 H 14.893847 5.752385 -15.886240 0
M  V30 53 H 10.602323 7.909078 -11.830070 0
M  V30 54 H 8.174149 7.932638 -11.447510 0
M  V30 55 H 6.310387 6.838473 -11.550278 0
M  V30 56 H 10.513503 1.588497 -15.470495 0
M  V30 END ATOM
M  V30 BEGIN BOND
M  V30 1 1 2 1
M  V30 2 1 3 2
M  V30 3 1 4 3
M  V30 4 1 5 4
M  V30 5 1 6 5
M  V30 6 1 7 6
M  V30 7 1 8 7
M  V30 8 2 9 8
M  V30 9 1 10 9
M  V30 10 2 11 10
M  V30 11 2 12 7
M  V30 12 1 12 11
M  V30 13 1 13 4
M  V30 14 1 13 12
M  V30 15 1 14 13
M  V30 16 1 15 14
M  V30 17 2 16 15
M  V30 18 1 17 16
M  V30 19 1 18 17
M  V30 20 2 19 18
M  V30 21 1 20 19
M  V30 22 1 21 19
M  V30 23 1 22 16
M  V30 24 2 23 22
M  V30 25 1 24 23
M  V30 26 1 25 24
M  V30 27 1 26 11
M  V30 28 1 26 15
M  V30 29 2 26 24
M  V30 30 1 27 1
M  V30 31 1 28 1
M  V30 32 1 29 1
M  V30 33 1 30 2
M  V30 34 1 31 2
M  V30 35 1 32 3
M  V30 36 1 33 3
M  V30 37 1 34 5
M  V30 38 1 35 5
M  V30 39 1 36 6
M  V30 40 1 37 6
M  V30 41 1 38 8
M  V30 42 1 39 9
M  V30 43 1 40 10
M  V30 44 1 13 41 CFG=3
M  V30 45 1 42 14
M  V30 46 1 43 14
M  V30 47 1 44 17
M  V30 48 1 45 17
M  V30 49 1 46 18
M  V30 50 1 47 20
M  V30 51 1 48 20
M  V30 52 1 49 20
M  V30 53 1 50 21
M  V30 54 1 51 21
M  V30 55 1 52 21
M  V30 56 1 53 22
M  V30 57 1 54 23
M  V30 58 1 55 25
M  V30 59 1 4 56 CFG=1
M  V30 END BOND
M  V30 END CTAB
M  END
>  <b_m_subgroup_collapsed>  (1922) 
0

>  <r_i_docking_score>  (1922) 
-6.4712946390217496

>  <s_m_subgroup_title>  (1922) 
glide-dock_SP_D22_pv

>  <s_m_subgroupid>  (1922) 
glide-dock_SP_D22_pv

>  <Molecule ChEMBL ID>  (1922) 
CHEMBL603542

>  <Standard Type>  (1922) 
Ki

>  <Standard Value>  (1922) 
10000.0

>  <label>  (1922) 
0

$$$$
CHEMBL597881
     RDKit          3D

  0  0  0  0  0  0  0  0  0  0999 V3000
M  V30 BEGIN CTAB
M  V30 COUNTS 48 52 0 0 1
M  V30 BEGIN ATOM
M  V30 1 C 9.780864 6.911868 -7.376349 0
M  V30 2 C 9.634340 7.544110 -8.767146 0
M  V30 3 C 9.249501 6.509579 -9.842757 0
M  V30 4 N 8.886016 7.099178 -11.169579 0 CFG=1 CHG=1
M  V30 5 C 9.854454 8.073703 -11.714524 0
M  V30 6 C 11.148776 7.344336 -12.084356 0
M  V30 7 C 10.969287 6.172947 -13.042874 0
M  V30 8 C 11.998852 5.664993 -13.846919 0
M  V30 9 C 11.795196 4.485956 -14.568810 0
M  V30 10 C 10.560146 3.822788 -14.494526 0
M  V30 11 C 9.449838 4.300481 -13.743774 0
M  V30 12 C 9.716812 5.494772 -13.011640 0
M  V30 13 C 8.528346 6.113905 -12.235178 0 CFG=1
M  V30 14 C 7.476424 5.098421 -11.758969 0
M  V30 15 C 7.157345 4.027724 -12.769710 0
M  V30 16 C 5.915210 3.372073 -12.655633 0
M  V30 17 C 5.631502 2.239911 -13.437143 0
M  V30 18 C 6.567837 1.761305 -14.372294 0
M  V30 19 C 6.623107 0.662280 -15.290937 0
M  V30 20 C 7.829251 0.773826 -15.931544 0
M  V30 21 C 8.470019 -0.067571 -16.981895 0
M  V30 22 O 8.536189 1.858061 -15.492588 0
M  V30 23 C 7.789882 2.477010 -14.505349 0
M  V30 24 C 8.131902 3.603898 -13.705172 0
M  V30 25 H 10.048911 7.663337 -6.632823 0
M  V30 26 H 10.556984 6.145206 -7.370129 0
M  V30 27 H 8.846337 6.448286 -7.052249 0
M  V30 28 H 8.874971 8.326596 -8.719001 0
M  V30 29 H 10.576790 8.029336 -9.022360 0
M  V30 30 H 10.038948 5.765440 -9.956943 0
M  V30 31 H 8.378417 5.988075 -9.447330 0
M  V30 32 H 9.428526 8.548876 -12.598635 0
M  V30 33 H 10.042294 8.886087 -11.015171 0
M  V30 34 H 11.888225 8.019320 -12.510111 0
M  V30 35 H 11.629679 6.972210 -11.180912 0
M  V30 36 H 12.957447 6.158865 -13.879187 0
M  V30 37 H 12.594927 4.075051 -15.167749 0
M  V30 38 H 10.508469 2.910520 -15.059360 0
M  V30 39 H 8.018740 6.704113 -12.999403 0
M  V30 40 H 7.835825 4.534146 -10.899605 0
M  V30 41 H 6.565303 5.613776 -11.446744 0
M  V30 42 H 5.199670 3.704090 -11.916601 0
M  V30 43 H 4.689420 1.726496 -13.315509 0
M  V30 44 H 5.868215 -0.095093 -15.442880 0
M  V30 45 H 7.762498 -0.791768 -17.387646 0
M  V30 46 H 9.314952 -0.619614 -16.569645 0
M  V30 47 H 8.832587 0.546990 -17.806160 0
M  V30 48 H 8.013441 7.595338 -10.968188 0
M  V30 END ATOM
M  V30 BEGIN BOND
M  V30 1 1 2 1
M  V30 2 1 3 2
M  V30 3 1 4 3
M  V30 4 1 5 4
M  V30 5 1 6 5
M  V30 6 1 7 6
M  V30 7 1 8 7
M  V30 8 2 9 8
M  V30 9 1 10 9
M  V30 10 2 11 10
M  V30 11 2 12 7
M  V30 12 1 12 11
M  V30 13 1 13 4
M  V30 14 1 13 12
M  V30 15 1 14 13
M  V30 16 1 15 14
M  V30 17 1 16 15
M  V30 18 2 17 16
M  V30 19 1 18 17
M  V30 20 1 19 18
M  V30 21 2 20 19
M  V30 22 1 21 20
M  V30 23 1 22 20
M  V30 24 2 23 18
M  V30 25 1 23 22
M  V30 26 1 24 11
M  V30 27 2 24 15
M  V30 28 1 24 23
M  V30 29 1 25 1
M  V30 30 1 26 1
M  V30 31 1 27 1
M  V30 32 1 28 2
M  V30 33 1 29 2
M  V30 34 1 30 3
M  V30 35 1 31 3
M  V30 36 1 32 5
M  V30 37 1 33 5
M  V30 38 1 34 6
M  V30 39 1 35 6
M  V30 40 1 36 8
M  V30 41 1 37 9
M  V30 42 1 38 10
M  V30 43 1 13 39 CFG=3
M  V30 44 1 40 14
M  V30 45 1 41 14
M  V30 46 1 42 16
M  V30 47 1 43 17
M  V30 48 1 44 19
M  V30 49 1 45 21
M  V30 50 1 46 21
M  V30 51 1 47 21
M  V30 52 1 4 48 CFG=1
M  V30 END BOND
M  V30 END CTAB
M  END
>  <b_m_subgroup_collapsed>  (1923) 
0

>  <r_i_docking_score>  (1923) 
-6.4700605576422898

>  <s_m_subgroup_title>  (1923) 
glide-dock_SP_D22_pv

>  <s_m_subgroupid>  (1923) 
glide-dock_SP_D22_pv

>  <Molecule ChEMBL ID>  (1923) 
CHEMBL597881

>  <Standard Type>  (1923) 
Ki

>  <Standard Value>  (1923) 
10000.0

>  <label>  (1923) 
0

$$$$
CHEMBL594799
     RDKit          3D

  0  0  0  0  0  0  0  0  0  0999 V3000
M  V30 BEGIN CTAB
M  V30 COUNTS 45 47 0 0 1
M  V30 BEGIN ATOM
M  V30 1 C 12.350205 6.212247 -14.204764 0
M  V30 2 C 11.561841 6.642959 -12.956967 0
M  V30 3 C 10.273191 5.869536 -12.646199 0
M  V30 4 C 9.733945 4.972497 -13.602334 0
M  V30 5 C 8.508662 4.300211 -13.375206 0
M  V30 6 O 7.940461 3.396382 -14.245964 0
M  V30 7 C 8.722938 2.943371 -15.341664 0
M  V30 8 C 7.805300 4.562088 -12.189794 0
M  V30 9 C 8.343777 5.408721 -11.213192 0
M  V30 10 C 9.584490 6.056190 -11.408695 0
M  V30 11 C 10.095106 6.969293 -10.278478 0 CFG=2
M  V30 12 C 10.177573 6.222229 -8.929291 0
M  V30 13 C 10.545848 7.128467 -7.768844 0
M  V30 14 C 11.065197 6.572225 -6.587374 0
M  V30 15 C 11.285955 7.366351 -5.449680 0
M  V30 16 C 11.081237 8.752945 -5.520693 0
M  V30 17 C 10.613541 9.326463 -6.716248 0
M  V30 18 C 10.312702 8.516588 -7.838324 0
M  V30 19 C 9.754281 9.138948 -9.110204 0
M  V30 20 N 9.238170 8.167725 -10.110561 0 CFG=1 CHG=1
M  V30 21 C 8.831654 8.822589 -11.376865 0
M  V30 22 H 13.283086 6.777662 -14.274945 0
M  V30 23 H 12.620111 5.156336 -14.159051 0
M  V30 24 H 11.786939 6.390277 -15.122825 0
M  V30 25 H 11.289864 7.693850 -13.058082 0
M  V30 26 H 12.252850 6.572762 -12.119793 0
M  V30 27 H 10.257521 4.810072 -14.529443 0
M  V30 28 H 8.184292 2.154183 -15.865511 0
M  V30 29 H 8.905263 3.745882 -16.057238 0
M  V30 30 H 9.676097 2.527915 -15.009055 0
M  V30 31 H 6.856710 4.077799 -12.007357 0
M  V30 32 H 7.768509 5.572494 -10.312444 0
M  V30 33 H 11.092381 7.337278 -10.507726 0
M  V30 34 H 10.884658 5.398374 -8.991912 0
M  V30 35 H 9.219095 5.774721 -8.666706 0
M  V30 36 H 11.286387 5.520182 -6.551224 0
M  V30 37 H 11.658764 6.915745 -4.540639 0
M  V30 38 H 11.287952 9.376761 -4.663015 0
M  V30 39 H 10.485942 10.395658 -6.732803 0
M  V30 40 H 8.919412 9.772139 -8.818995 0
M  V30 41 H 10.526607 9.767983 -9.554729 0
M  V30 42 H 9.685501 8.992383 -12.027471 0
M  V30 43 H 8.115014 8.207338 -11.922060 0
M  V30 44 H 8.332360 9.771101 -11.181316 0
M  V30 45 H 8.352349 7.822870 -9.744476 0
M  V30 END ATOM
M  V30 BEGIN BOND
M  V30 1 1 2 1
M  V30 2 1 3 2
M  V30 3 1 4 3
M  V30 4 2 5 4
M  V30 5 1 6 5
M  V30 6 1 7 6
M  V30 7 1 8 5
M  V30 8 2 9 8
M  V30 9 2 10 3
M  V30 10 1 10 9
M  V30 11 1 11 10
M  V30 12 1 12 11
M  V30 13 1 13 12
M  V30 14 2 14 13
M  V30 15 1 15 14
M  V30 16 2 16 15
M  V30 17 1 17 16
M  V30 18 1 18 13
M  V30 19 2 18 17
M  V30 20 1 19 18
M  V30 21 1 20 11
M  V30 22 1 20 19
M  V30 23 1 21 20
M  V30 24 1 22 1
M  V30 25 1 23 1
M  V30 26 1 24 1
M  V30 27 1 25 2
M  V30 28 1 26 2
M  V30 29 1 27 4
M  V30 30 1 28 7
M  V30 31 1 29 7
M  V30 32 1 30 7
M  V30 33 1 31 8
M  V30 34 1 32 9
M  V30 35 1 11 33 CFG=3
M  V30 36 1 34 12
M  V30 37 1 35 12
M  V30 38 1 36 14
M  V30 39 1 37 15
M  V30 40 1 38 16
M  V30 41 1 39 17
M  V30 42 1 40 19
M  V30 43 1 41 19
M  V30 44 1 42 21
M  V30 45 1 43 21
M  V30 46 1 44 21
M  V30 47 1 20 45 CFG=1
M  V30 END BOND
M  V30 END CTAB
M  END
>  <b_m_subgroup_collapsed>  (1924) 
0

>  <r_i_docking_score>  (1924) 
-6.4621310553014801

>  <s_m_subgroup_title>  (1924) 
glide-dock_SP_D22_pv

>  <s_m_subgroupid>  (1924) 
glide-dock_SP_D22_pv

>  <Molecule ChEMBL ID>  (1924) 
CHEMBL594799

>  <Standard Type>  (1924) 
Ki

>  <Standard Value>  (1924) 
10000.0

>  <label>  (1924) 
0

$$$$
CHEMBL109897
     RDKit          3D

  0  0  0  0  0  0  0  0  0  0999 V3000
M  V30 BEGIN CTAB
M  V30 COUNTS 91 98 0 0 1
M  V30 BEGIN ATOM
M  V30 1 C 13.056497 7.536004 -15.857903 0
M  V30 2 C 12.549354 6.580647 -14.773325 0
M  V30 3 C 11.861080 7.340322 -13.613412 0
M  V30 4 N 11.031797 6.489171 -12.704519 0 CFG=2 CHG=1
M  V30 5 C 9.975592 5.699349 -13.416019 0
M  V30 6 C 10.095059 4.202817 -13.064603 0
M  V30 7 C 9.131059 3.318626 -13.819518 0
M  V30 8 C 7.739729 3.475085 -13.651887 0
M  V30 9 C 6.853802 2.560326 -14.255178 0
M  V30 10 C 7.355458 1.512708 -15.058471 0
M  V30 11 N 6.479052 0.593923 -15.638569 0
M  V30 12 C 6.382872 0.130054 -16.936419 0
M  V30 13 S 5.033557 -1.087480 -17.105534 0
M  V30 14 N 7.127079 0.497006 -17.925116 0
M  V30 15 C 7.020167 -0.140824 -19.158724 0
M  V30 16 C 7.642955 -1.400477 -19.355543 0
M  V30 17 C 7.658397 -2.008125 -20.628483 0
M  V30 18 C 7.041389 -1.325927 -21.688911 0
M  V30 19 C 6.415326 -0.110617 -21.497133 0
M  V30 20 C 6.380065 0.510048 -20.237265 0
M  V30 21 C 5.901297 0.351941 -22.788128 0
M  V30 22 O 5.288095 1.390517 -23.011219 0
M  V30 23 O 6.265262 -0.587916 -23.709988 0
M  V30 24 C 7.013908 -1.684075 -23.150919 0 CFG=2
M  V30 25 C 6.324621 -3.027626 -23.366768 0
M  V30 26 C 4.915972 -3.135750 -23.392996 0
M  V30 27 C 4.298357 -4.390255 -23.569933 0
M  V30 28 C 5.089148 -5.545316 -23.706493 0
M  V30 29 O 4.497440 -6.761654 -23.881334 0 CHG=-1
M  V30 30 C 6.492280 -5.447268 -23.665956 0
M  V30 31 C 7.113964 -4.194128 -23.500700 0
M  V30 32 O 8.487265 -4.140560 -23.456812 0
M  V30 33 C 9.120370 -2.962619 -23.764126 0
M  V30 34 C 10.474866 -3.005702 -24.144264 0
M  V30 35 C 11.171504 -1.815824 -24.421135 0
M  V30 36 O 12.493042 -1.860230 -24.749754 0
M  V30 37 C 10.506791 -0.578564 -24.342581 0
M  V30 38 C 9.150957 -0.528193 -23.970285 0
M  V30 39 C 8.451178 -1.719203 -23.668415 0
M  V30 40 C 8.744628 1.381266 -15.251956 0
M  V30 41 C 9.632958 2.283056 -14.637731 0
M  V30 42 C 10.540740 7.208243 -11.475808 0 CFG=1
M  V30 43 C 9.571409 6.385484 -10.592254 0
M  V30 44 C 9.000607 7.270020 -9.485868 0
M  V30 45 C 10.071659 7.876318 -8.615620 0
M  V30 46 C 9.773065 8.284213 -7.294460 0
M  V30 47 O 8.509562 8.168321 -6.787463 0
M  V30 48 C 10.781969 8.833627 -6.482835 0
M  V30 49 C 12.085823 8.973543 -6.987721 0
M  V30 50 C 12.380142 8.573430 -8.303922 0
M  V30 51 C 11.368077 8.068960 -9.141913 0
M  V30 52 C 11.710026 7.723329 -10.589628 0
M  V30 53 H 13.635735 7.003102 -16.610680 0
M  V30 54 H 12.217907 8.014278 -16.365683 0
M  V30 55 H 13.684570 8.321866 -15.445532 0
M  V30 56 H 13.363845 5.984464 -14.374320 0
M  V30 57 H 11.907438 5.868224 -15.278739 0
M  V30 58 H 11.286170 8.172160 -14.006727 0
M  V30 59 H 12.664959 7.800147 -13.040424 0
M  V30 60 H 10.033547 5.774187 -14.497603 0
M  V30 61 H 8.983514 6.099669 -13.213923 0
M  V30 62 H 9.940869 4.034854 -12.000463 0
M  V30 63 H 11.102360 3.844934 -13.277348 0
M  V30 64 H 7.345331 4.261418 -13.023375 0
M  V30 65 H 5.789429 2.667748 -14.097567 0
M  V30 66 H 5.731906 0.344208 -15.014233 0
M  V30 67 H 5.202844 -1.342409 -18.406689 0
M  V30 68 H 8.139365 -1.888312 -18.530647 0
M  V30 69 H 8.154541 -2.950880 -20.789072 0
M  V30 70 H 5.904307 1.472161 -20.110205 0
M  V30 71 H 4.299321 -2.255653 -23.277729 0
M  V30 72 H 3.220058 -4.467525 -23.597111 0
M  V30 73 H 7.094242 -6.336215 -23.766577 0
M  V30 74 H 10.979166 -3.958069 -24.205551 0
M  V30 75 H 12.846682 -2.736876 -24.741486 0
M  V30 76 H 11.035739 0.337094 -24.561512 0
M  V30 77 H 8.659189 0.430476 -23.894327 0
M  V30 78 H 9.138311 0.572916 -15.852699 0
M  V30 79 H 10.696065 2.150634 -14.776857 0
M  V30 80 H 9.975398 8.073536 -11.823275 0
M  V30 81 H 8.711425 5.990855 -11.133962 0
M  V30 82 H 10.084902 5.527657 -10.154378 0
M  V30 83 H 8.281982 6.696926 -8.897725 0
M  V30 84 H 8.486096 8.114828 -9.937927 0
M  V30 85 H 7.851473 7.782892 -7.360883 0
M  V30 86 H 10.556480 9.141397 -5.473017 0
M  V30 87 H 12.864248 9.389263 -6.363878 0
M  V30 88 H 13.384493 8.698744 -8.682437 0
M  V30 89 H 12.486034 6.971827 -10.531705 0
M  V30 90 H 12.168170 8.605613 -11.036069 0
M  V30 91 H 11.676579 5.790414 -12.371107 0
M  V30 END ATOM
M  V30 BEGIN BOND
M  V30 1 1 2 1
M  V30 2 1 3 2
M  V30 3 1 4 3
M  V30 4 1 5 4
M  V30 5 1 6 5
M  V30 6 1 7 6
M  V30 7 1 8 7
M  V30 8 2 9 8
M  V30 9 1 10 9
M  V30 10 1 11 10
M  V30 11 1 12 11
M  V30 12 1 13 12
M  V30 13 2 14 12
M  V30 14 1 15 14
M  V30 15 1 16 15
M  V30 16 2 17 16
M  V30 17 1 18 17
M  V30 18 2 19 18
M  V30 19 2 20 15
M  V30 20 1 20 19
M  V30 21 1 21 19
M  V30 22 2 22 21
M  V30 23 1 23 21
M  V30 24 1 24 18
M  V30 25 1 24 23 CFG=3
M  V30 26 1 25 24
M  V30 27 1 26 25
M  V30 28 2 27 26
M  V30 29 1 28 27
M  V30 30 1 29 28
M  V30 31 2 30 28
M  V30 32 2 31 25
M  V30 33 1 31 30
M  V30 34 1 32 31
M  V30 35 1 33 32
M  V30 36 1 34 33
M  V30 37 2 35 34
M  V30 38 1 36 35
M  V30 39 1 37 35
M  V30 40 2 38 37
M  V30 41 1 39 24
M  V30 42 2 39 33
M  V30 43 1 39 38
M  V30 44 2 40 10
M  V30 45 2 41 7
M  V30 46 1 41 40
M  V30 47 1 42 4
M  V30 48 1 43 42
M  V30 49 1 44 43
M  V30 50 1 45 44
M  V30 51 2 46 45
M  V30 52 1 47 46
M  V30 53 1 48 46
M  V30 54 2 49 48
M  V30 55 1 50 49
M  V30 56 1 51 45
M  V30 57 2 51 50
M  V30 58 1 52 42
M  V30 59 1 52 51
M  V30 60 1 53 1
M  V30 61 1 54 1
M  V30 62 1 55 1
M  V30 63 1 56 2
M  V30 64 1 57 2
M  V30 65 1 58 3
M  V30 66 1 59 3
M  V30 67 1 60 5
M  V30 68 1 61 5
M  V30 69 1 62 6
M  V30 70 1 63 6
M  V30 71 1 64 8
M  V30 72 1 65 9
M  V30 73 1 66 11
M  V30 74 1 67 13
M  V30 75 1 68 16
M  V30 76 1 69 17
M  V30 77 1 70 20
M  V30 78 1 71 26
M  V30 79 1 72 27
M  V30 80 1 73 30
M  V30 81 1 74 34
M  V30 82 1 75 36
M  V30 83 1 76 37
M  V30 84 1 77 38
M  V30 85 1 78 40
M  V30 86 1 79 41
M  V30 87 1 42 80 CFG=3
M  V30 88 1 81 43
M  V30 89 1 82 43
M  V30 90 1 83 44
M  V30 91 1 84 44
M  V30 92 1 85 47
M  V30 93 1 86 48
M  V30 94 1 87 49
M  V30 95 1 88 50
M  V30 96 1 89 52
M  V30 97 1 90 52
M  V30 98 1 4 91 CFG=1
M  V30 END BOND
M  V30 END CTAB
M  END
>  <b_m_subgroup_collapsed>  (1925) 
0

>  <r_i_docking_score>  (1925) 
-6.4618486580565602

>  <s_m_subgroup_title>  (1925) 
glide-dock_SP_D22_pv

>  <s_m_subgroupid>  (1925) 
glide-dock_SP_D22_pv

>  <Molecule ChEMBL ID>  (1925) 
CHEMBL109897

>  <Standard Type>  (1925) 
Ki

>  <Standard Value>  (1925) 
4.8

>  <label>  (1925) 
1

$$$$
CHEMBL4159188
     RDKit          3D

  0  0  0  0  0  0  0  0  0  0999 V3000
M  V30 BEGIN CTAB
M  V30 COUNTS 49 51 0 0 1
M  V30 BEGIN ATOM
M  V30 1 C 11.999521 9.591239 -3.397963 0
M  V30 2 C 11.657145 8.834338 -4.637847 0
M  V30 3 C 11.288393 7.516445 -4.732419 0
M  V30 4 C 11.007685 7.111433 -6.066381 0
M  V30 5 C 11.207656 8.105406 -6.984910 0
M  V30 6 C 11.053914 7.990108 -8.416254 0
M  V30 7 C 10.125582 7.290377 -9.136264 0
M  V30 8 C 10.542568 7.452091 -10.493524 0
M  V30 9 C 9.813681 6.794400 -11.627807 0
M  V30 10 O 10.419044 6.467276 -12.646833 0
M  V30 11 N 8.486072 6.685867 -11.486580 0
M  V30 12 C 7.521656 6.439360 -12.551258 0
M  V30 13 C 7.248276 4.952769 -12.844853 0
M  V30 14 C 8.426891 4.236612 -13.516796 0
M  V30 15 C 8.032469 2.901288 -14.168661 0
M  V30 16 N 9.222201 2.125644 -14.597404 0 CHG=1
M  V30 17 C 8.901522 0.704119 -14.860124 0
M  V30 18 C 10.170520 -0.061758 -15.258040 0
M  V30 19 O 10.761348 0.544353 -16.399294 0
M  V30 20 C 11.156044 1.886011 -16.149141 0
M  V30 21 C 9.927960 2.724451 -15.762799 0
M  V30 22 N 11.652830 8.171661 -10.595603 0
M  V30 23 N 11.946942 8.513783 -9.327372 0
M  V30 24 S 11.685843 9.597281 -6.210106 0
M  V30 25 H 11.711314 9.036797 -2.503356 0
M  V30 26 H 13.073575 9.774490 -3.345834 0
M  V30 27 H 11.482620 10.552345 -3.371476 0
M  V30 28 H 11.210868 6.835008 -3.899822 0
M  V30 29 H 10.694205 6.108658 -6.308659 0
M  V30 30 H 9.285262 6.730138 -8.750516 0
M  V30 31 H 8.047489 7.042825 -10.639506 0
M  V30 32 H 6.587594 6.910645 -12.247586 0
M  V30 33 H 7.830555 6.970091 -13.447090 0
M  V30 34 H 6.965914 4.435017 -11.926843 0
M  V30 35 H 6.380357 4.897954 -13.501775 0
M  V30 36 H 8.851201 4.901989 -14.269924 0
M  V30 37 H 9.206738 4.065477 -12.774328 0
M  V30 38 H 7.458324 2.321773 -13.447658 0
M  V30 39 H 7.366110 3.059441 -15.020008 0
M  V30 40 H 8.464513 0.250053 -13.970572 0
M  V30 41 H 8.158412 0.631688 -15.656226 0
M  V30 42 H 10.884999 -0.090886 -14.434138 0
M  V30 43 H 9.923518 -1.091172 -15.503717 0
M  V30 44 H 11.909093 1.919800 -15.363128 0
M  V30 45 H 11.621756 2.290446 -17.048407 0
M  V30 46 H 9.244104 2.792125 -16.610884 0
M  V30 47 H 10.254898 3.738852 -15.534108 0
M  V30 48 H 12.758624 9.080290 -9.111337 0
M  V30 49 H 9.861208 2.132061 -13.812332 0
M  V30 END ATOM
M  V30 BEGIN BOND
M  V30 1 1 2 1
M  V30 2 2 3 2
M  V30 3 1 4 3
M  V30 4 2 5 4
M  V30 5 1 6 5
M  V30 6 2 7 6
M  V30 7 1 8 7
M  V30 8 1 9 8
M  V30 9 2 10 9
M  V30 10 1 11 9
M  V30 11 1 12 11
M  V30 12 1 13 12
M  V30 13 1 14 13
M  V30 14 1 15 14
M  V30 15 1 16 15
M  V30 16 1 17 16
M  V30 17 1 18 17
M  V30 18 1 19 18
M  V30 19 1 20 19
M  V30 20 1 21 16
M  V30 21 1 21 20
M  V30 22 2 22 8
M  V30 23 1 23 6
M  V30 24 1 23 22
M  V30 25 1 24 2
M  V30 26 1 24 5
M  V30 27 1 25 1
M  V30 28 1 26 1
M  V30 29 1 27 1
M  V30 30 1 28 3
M  V30 31 1 29 4
M  V30 32 1 30 7
M  V30 33 1 31 11
M  V30 34 1 32 12
M  V30 35 1 33 12
M  V30 36 1 34 13
M  V30 37 1 35 13
M  V30 38 1 36 14
M  V30 39 1 37 14
M  V30 40 1 38 15
M  V30 41 1 39 15
M  V30 42 1 40 17
M  V30 43 1 41 17
M  V30 44 1 42 18
M  V30 45 1 43 18
M  V30 46 1 44 20
M  V30 47 1 45 20
M  V30 48 1 46 21
M  V30 49 1 47 21
M  V30 50 1 48 23
M  V30 51 1 49 16
M  V30 END BOND
M  V30 END CTAB
M  END
>  <b_m_subgroup_collapsed>  (1926) 
0

>  <r_i_docking_score>  (1926) 
-6.4607639343783401

>  <s_m_subgroup_title>  (1926) 
glide-dock_SP_D22_pv

>  <s_m_subgroupid>  (1926) 
glide-dock_SP_D22_pv

>  <Molecule ChEMBL ID>  (1926) 
CHEMBL4159188

>  <Standard Type>  (1926) 
Ki

>  <Standard Value>  (1926) 
10000.0

>  <label>  (1926) 
0

$$$$
CHEMBL4528479
     RDKit          3D

  0  0  0  0  0  0  0  0  0  0999 V3000
M  V30 BEGIN CTAB
M  V30 COUNTS 66 70 0 0 1
M  V30 BEGIN ATOM
M  V30 1 C 3.446326 -3.283714 -19.113865 0
M  V30 2 C 4.478306 -2.865254 -18.061146 0
M  V30 3 C 4.012033 -1.638057 -17.257788 0
M  V30 4 N 4.937381 -1.211485 -16.203276 0
M  V30 5 C 4.192554 -0.744544 -15.034637 0
M  V30 6 C 5.118927 -0.330237 -13.879183 0
M  V30 7 O 6.013747 0.674475 -14.327754 0
M  V30 8 C 6.798677 0.242150 -15.435985 0 CFG=2
M  V30 9 C 7.798723 1.299131 -15.855650 0
M  V30 10 C 8.399513 2.120074 -14.880775 0
M  V30 11 C 9.286398 3.155350 -15.256988 0
M  V30 12 O 9.844477 4.055543 -14.376317 0
M  V30 13 C 9.364804 4.103163 -13.036526 0
M  V30 14 C 9.609690 5.523081 -12.519138 0
M  V30 15 C 9.359507 5.682557 -11.013165 0
M  V30 16 C 9.462391 7.151823 -10.582604 0
M  V30 17 N 9.694457 7.261164 -9.147674 0
M  V30 18 C 10.337589 8.288716 -8.575078 0
M  V30 19 O 10.658307 9.312372 -9.179703 0
M  V30 20 C 10.657489 8.127264 -7.144715 0
M  V30 21 C 10.837576 7.022011 -6.349151 0
M  V30 22 C 11.286017 7.501299 -5.069863 0
M  V30 23 C 11.685971 6.926517 -3.846139 0
M  V30 24 C 12.087913 7.765664 -2.787460 0
M  V30 25 C 12.076116 9.162376 -2.977751 0
M  V30 26 N 11.686849 9.772017 -4.119320 0
M  V30 27 C 11.325421 8.921715 -5.120899 0
M  V30 28 N 10.947280 9.262031 -6.399719 0
M  V30 29 C 9.614774 3.302097 -16.618881 0
M  V30 30 C 9.035570 2.467113 -17.593649 0
M  V30 31 C 8.119211 1.464500 -17.222191 0
M  V30 32 O 7.536261 0.712253 -18.218554 0
M  V30 33 C 6.771160 -0.429287 -17.831888 0
M  V30 34 C 5.872984 -0.145641 -16.610661 0 CFG=1
M  V30 35 H 3.777875 -4.174220 -19.649809 0
M  V30 36 H 3.289845 -2.488387 -19.845200 0
M  V30 37 H 2.485082 -3.515316 -18.648327 0
M  V30 38 H 4.637455 -3.699089 -17.375774 0
M  V30 39 H 5.436247 -2.699100 -18.547583 0
M  V30 40 H 3.783471 -0.802514 -17.923466 0
M  V30 41 H 3.056719 -1.917280 -16.808355 0
M  V30 42 H 3.557306 0.100673 -15.307298 0
M  V30 43 H 3.521659 -1.529942 -14.683679 0
M  V30 44 H 4.535411 0.064206 -13.046695 0
M  V30 45 H 5.686016 -1.185134 -13.507256 0
M  V30 46 H 7.380607 -0.627627 -15.126522 0
M  V30 47 H 8.145562 1.950308 -13.846968 0
M  V30 48 H 8.295268 3.905274 -12.961895 0
M  V30 49 H 9.894216 3.365007 -12.433621 0
M  V30 50 H 10.636618 5.817441 -12.741540 0
M  V30 51 H 8.965946 6.209831 -13.069068 0
M  V30 52 H 8.375030 5.293718 -10.745876 0
M  V30 53 H 10.085775 5.077452 -10.469689 0
M  V30 54 H 10.284492 7.628978 -11.120183 0
M  V30 55 H 8.551671 7.688797 -10.853780 0
M  V30 56 H 9.392205 6.497131 -8.562857 0
M  V30 57 H 10.709815 5.988135 -6.628335 0
M  V30 58 H 11.688879 5.852961 -3.726072 0
M  V30 59 H 12.400529 7.344694 -1.845126 0
M  V30 60 H 12.376286 9.816717 -2.173474 0
M  V30 61 H 10.912717 10.190568 -6.792460 0
M  V30 62 H 10.298126 4.082035 -16.921946 0
M  V30 63 H 9.286645 2.606257 -18.634521 0
M  V30 64 H 6.165370 -0.674377 -18.702003 0
M  V30 65 H 7.436712 -1.273657 -17.642954 0
M  V30 66 H 5.286250 0.733619 -16.876158 0
M  V30 END ATOM
M  V30 BEGIN BOND
M  V30 1 1 2 1
M  V30 2 1 3 2
M  V30 3 1 4 3
M  V30 4 1 5 4
M  V30 5 1 6 5
M  V30 6 1 7 6
M  V30 7 1 8 7
M  V30 8 1 9 8
M  V30 9 1 10 9
M  V30 10 2 11 10
M  V30 11 1 12 11
M  V30 12 1 13 12
M  V30 13 1 14 13
M  V30 14 1 15 14
M  V30 15 1 16 15
M  V30 16 1 17 16
M  V30 17 1 18 17
M  V30 18 2 19 18
M  V30 19 1 20 18
M  V30 20 2 21 20
M  V30 21 1 22 21
M  V30 22 2 23 22
M  V30 23 1 24 23
M  V30 24 2 25 24
M  V30 25 1 26 25
M  V30 26 1 27 22
M  V30 27 2 27 26
M  V30 28 1 28 20
M  V30 29 1 28 27
M  V30 30 1 29 11
M  V30 31 2 30 29
M  V30 32 2 31 9
M  V30 33 1 31 30
M  V30 34 1 32 31
M  V30 35 1 33 32
M  V30 36 1 34 4
M  V30 37 1 34 8
M  V30 38 1 34 33
M  V30 39 1 35 1
M  V30 40 1 36 1
M  V30 41 1 37 1
M  V30 42 1 38 2
M  V30 43 1 39 2
M  V30 44 1 40 3
M  V30 45 1 41 3
M  V30 46 1 42 5
M  V30 47 1 43 5
M  V30 48 1 44 6
M  V30 49 1 45 6
M  V30 50 1 8 46 CFG=1
M  V30 51 1 47 10
M  V30 52 1 48 13
M  V30 53 1 49 13
M  V30 54 1 50 14
M  V30 55 1 51 14
M  V30 56 1 52 15
M  V30 57 1 53 15
M  V30 58 1 54 16
M  V30 59 1 55 16
M  V30 60 1 56 17
M  V30 61 1 57 21
M  V30 62 1 58 23
M  V30 63 1 59 24
M  V30 64 1 60 25
M  V30 65 1 61 28
M  V30 66 1 62 29
M  V30 67 1 63 30
M  V30 68 1 64 33
M  V30 69 1 65 33
M  V30 70 1 34 66 CFG=3
M  V30 END BOND
M  V30 END CTAB
M  END
>  <b_m_subgroup_collapsed>  (1927) 
0

>  <r_i_docking_score>  (1927) 
-6.45621858723689

>  <s_m_subgroup_title>  (1927) 
glide-dock_SP_D22_pv

>  <s_m_subgroupid>  (1927) 
glide-dock_SP_D22_pv

>  <Molecule ChEMBL ID>  (1927) 
CHEMBL4528479

>  <Standard Type>  (1927) 
Ki

>  <Standard Value>  (1927) 
27000.0

>  <label>  (1927) 
0

$$$$
CHEMBL493384
     RDKit          3D

  0  0  0  0  0  0  0  0  0  0999 V3000
M  V30 BEGIN CTAB
M  V30 COUNTS 49 50 0 0 1
M  V30 BEGIN ATOM
M  V30 1 C 12.535696 9.010640 -1.541905 0
M  V30 2 O 12.086197 9.772116 -2.646153 0
M  V30 3 C 11.715462 9.108576 -3.789239 0
M  V30 4 C 11.282166 9.917706 -4.851440 0
M  V30 5 C 10.844454 9.347098 -6.054501 0
M  V30 6 C 10.846811 7.948571 -6.218058 0
M  V30 7 C 10.394779 7.372740 -7.542705 0
M  V30 8 C 11.331861 7.850177 -8.669851 0
M  V30 9 N 10.878592 7.531133 -10.020844 0
M  V30 10 C 11.980057 7.871188 -10.915927 0
M  V30 11 C 9.685765 8.312045 -10.361379 0
M  V30 12 C 9.122629 8.027256 -11.769910 0
M  V30 13 N 8.371381 6.749067 -11.822394 0 CHG=1
M  V30 14 C 7.253017 6.786555 -12.790278 0
M  V30 15 C 6.365599 5.539572 -12.647490 0
M  V30 16 C 7.190246 4.261287 -12.849749 0
M  V30 17 C 8.384453 4.252891 -11.886103 0
M  V30 18 C 9.218576 5.539512 -12.010676 0
M  V30 19 C 11.286334 7.123777 -5.163086 0
M  V30 20 C 11.728154 7.699567 -3.954559 0
M  V30 21 H 12.657030 9.675824 -0.691141 0
M  V30 22 H 11.827868 8.231730 -1.259342 0
M  V30 23 H 13.506750 8.572285 -1.758784 0
M  V30 24 H 11.280357 10.990284 -4.740694 0
M  V30 25 H 10.502645 9.988842 -6.851453 0
M  V30 26 H 10.382179 6.281579 -7.498368 0
M  V30 27 H 9.363345 7.690322 -7.686626 0
M  V30 28 H 11.499946 8.926747 -8.604725 0
M  V30 29 H 12.297604 7.372601 -8.491377 0
M  V30 30 H 12.885921 7.372446 -10.584395 0
M  V30 31 H 11.801006 7.533075 -11.935166 0
M  V30 32 H 12.176421 8.946675 -10.929432 0
M  V30 33 H 8.886512 8.121757 -9.649940 0
M  V30 34 H 9.921442 9.371904 -10.257200 0
M  V30 35 H 8.428104 8.841577 -11.979226 0
M  V30 36 H 9.867456 8.080848 -12.562978 0
M  V30 37 H 6.642433 7.679444 -12.646605 0
M  V30 38 H 7.686032 6.850701 -13.786099 0
M  V30 39 H 5.902637 5.532881 -11.659422 0
M  V30 40 H 5.549325 5.574193 -13.369600 0
M  V30 41 H 6.565313 3.382011 -12.686929 0
M  V30 42 H 7.543564 4.208507 -13.879200 0
M  V30 43 H 8.019403 4.172550 -10.861056 0
M  V30 44 H 9.011496 3.375947 -12.073230 0
M  V30 45 H 9.702519 5.582425 -12.987238 0
M  V30 46 H 10.012771 5.499628 -11.269675 0
M  V30 47 H 11.294147 6.050436 -5.277064 0
M  V30 48 H 12.061009 7.040683 -3.165973 0
M  V30 49 H 7.903986 6.690842 -10.921427 0
M  V30 END ATOM
M  V30 BEGIN BOND
M  V30 1 1 2 1
M  V30 2 1 3 2
M  V30 3 1 4 3
M  V30 4 2 5 4
M  V30 5 1 6 5
M  V30 6 1 7 6
M  V30 7 1 8 7
M  V30 8 1 9 8
M  V30 9 1 10 9
M  V30 10 1 11 9
M  V30 11 1 12 11
M  V30 12 1 13 12
M  V30 13 1 14 13
M  V30 14 1 15 14
M  V30 15 1 16 15
M  V30 16 1 17 16
M  V30 17 1 18 13
M  V30 18 1 18 17
M  V30 19 2 19 6
M  V30 20 2 20 3
M  V30 21 1 20 19
M  V30 22 1 21 1
M  V30 23 1 22 1
M  V30 24 1 23 1
M  V30 25 1 24 4
M  V30 26 1 25 5
M  V30 27 1 26 7
M  V30 28 1 27 7
M  V30 29 1 28 8
M  V30 30 1 29 8
M  V30 31 1 30 10
M  V30 32 1 31 10
M  V30 33 1 32 10
M  V30 34 1 33 11
M  V30 35 1 34 11
M  V30 36 1 35 12
M  V30 37 1 36 12
M  V30 38 1 37 14
M  V30 39 1 38 14
M  V30 40 1 39 15
M  V30 41 1 40 15
M  V30 42 1 41 16
M  V30 43 1 42 16
M  V30 44 1 43 17
M  V30 45 1 44 17
M  V30 46 1 45 18
M  V30 47 1 46 18
M  V30 48 1 47 19
M  V30 49 1 48 20
M  V30 50 1 49 13
M  V30 END BOND
M  V30 END CTAB
M  END
>  <b_m_subgroup_collapsed>  (1928) 
0

>  <r_i_docking_score>  (1928) 
-6.45572571704494

>  <s_m_subgroup_title>  (1928) 
glide-dock_SP_D22_pv

>  <s_m_subgroupid>  (1928) 
glide-dock_SP_D22_pv

>  <Molecule ChEMBL ID>  (1928) 
CHEMBL493384

>  <Standard Type>  (1928) 
Ki

>  <Standard Value>  (1928) 
10000.0

>  <label>  (1928) 
0

$$$$
CHEMBL46880
     RDKit          3D

  0  0  0  0  0  0  0  0  0  0999 V3000
M  V30 BEGIN CTAB
M  V30 COUNTS 42 44 0 0 1
M  V30 BEGIN ATOM
M  V30 1 Br 12.487416 8.972315 -1.588133 0
M  V30 2 C 11.984045 8.505808 -3.349699 0
M  V30 3 C 12.069474 7.163029 -3.746098 0
M  V30 4 C 11.684126 6.803358 -5.046831 0
M  V30 5 C 11.225747 7.767366 -5.965041 0
M  V30 6 O 10.916642 7.307458 -7.221856 0
M  V30 7 C 10.286617 8.184760 -8.140818 0
M  V30 8 C 9.979305 7.349654 -9.394401 0 CFG=1
M  V30 9 C 9.025713 6.187397 -9.070644 0
M  V30 10 C 8.736178 5.349865 -10.319845 0
M  V30 11 N 8.145010 6.172324 -11.410911 0 CFG=2 CHG=1
M  V30 12 C 7.821224 5.366587 -12.617112 0
M  V30 13 C 6.690114 4.365276 -12.430063 0
M  V30 14 C 5.386484 4.497254 -13.180132 0
M  V30 15 C 6.362541 3.421296 -13.568680 0
M  V30 16 C 9.022141 7.325333 -11.754951 0
M  V30 17 C 9.375151 8.192239 -10.527266 0
M  V30 18 C 11.133142 9.119919 -5.553752 0
M  V30 19 C 11.509065 9.483811 -4.245125 0
M  V30 20 H 12.422348 6.409899 -3.056059 0
M  V30 21 H 11.756473 5.773327 -5.356702 0
M  V30 22 H 9.366588 8.595487 -7.720162 0
M  V30 23 H 10.950608 9.014123 -8.390623 0
M  V30 24 H 10.923059 6.931884 -9.750253 0
M  V30 25 H 9.455497 5.544607 -8.302906 0
M  V30 26 H 8.092836 6.571422 -8.658368 0
M  V30 27 H 8.065492 4.544934 -10.030586 0
M  V30 28 H 9.654288 4.876763 -10.670012 0
M  V30 29 H 7.563702 6.029679 -13.444119 0
M  V30 30 H 8.715475 4.826398 -12.932652 0
M  V30 31 H 6.621892 3.905724 -11.446941 0
M  V30 32 H 4.486109 4.170184 -12.671807 0
M  V30 33 H 5.268119 5.349142 -13.846403 0
M  V30 34 H 6.901253 3.544864 -14.506157 0
M  V30 35 H 6.099404 2.395356 -13.315391 0
M  V30 36 H 8.520613 7.950923 -12.495521 0
M  V30 37 H 9.939669 6.956974 -12.215785 0
M  V30 38 H 8.486320 8.711612 -10.170314 0
M  V30 39 H 10.077578 8.971115 -10.823923 0
M  V30 40 H 10.781093 9.888934 -6.224204 0
M  V30 41 H 11.429735 10.511882 -3.926341 0
M  V30 42 H 7.293877 6.604202 -11.039663 0
M  V30 END ATOM
M  V30 BEGIN BOND
M  V30 1 1 2 1
M  V30 2 1 3 2
M  V30 3 2 4 3
M  V30 4 1 5 4
M  V30 5 1 6 5
M  V30 6 1 7 6
M  V30 7 1 8 7
M  V30 8 1 9 8
M  V30 9 1 10 9
M  V30 10 1 11 10
M  V30 11 1 12 11
M  V30 12 1 13 12
M  V30 13 1 14 13
M  V30 14 1 15 13
M  V30 15 1 15 14
M  V30 16 1 16 11
M  V30 17 1 17 8
M  V30 18 1 17 16
M  V30 19 2 18 5
M  V30 20 2 19 2
M  V30 21 1 19 18
M  V30 22 1 20 3
M  V30 23 1 21 4
M  V30 24 1 22 7
M  V30 25 1 23 7
M  V30 26 1 8 24 CFG=3
M  V30 27 1 25 9
M  V30 28 1 26 9
M  V30 29 1 27 10
M  V30 30 1 28 10
M  V30 31 1 29 12
M  V30 32 1 30 12
M  V30 33 1 31 13
M  V30 34 1 32 14
M  V30 35 1 33 14
M  V30 36 1 34 15
M  V30 37 1 35 15
M  V30 38 1 36 16
M  V30 39 1 37 16
M  V30 40 1 38 17
M  V30 41 1 39 17
M  V30 42 1 40 18
M  V30 43 1 41 19
M  V30 44 1 11 42 CFG=1
M  V30 END BOND
M  V30 END CTAB
M  END
>  <b_m_subgroup_collapsed>  (1929) 
0

>  <r_i_docking_score>  (1929) 
-6.45475936859419

>  <s_m_subgroup_title>  (1929) 
glide-dock_SP_D22_pv

>  <s_m_subgroupid>  (1929) 
glide-dock_SP_D22_pv

>  <Molecule ChEMBL ID>  (1929) 
CHEMBL46880

>  <Standard Type>  (1929) 
Ki

>  <Standard Value>  (1929) 
10000.0

>  <label>  (1929) 
0

$$$$
CHEMBL93917
     RDKit          3D

  0  0  0  0  0  0  0  0  0  0999 V3000
M  V30 BEGIN CTAB
M  V30 COUNTS 41 42 0 0 1
M  V30 BEGIN ATOM
M  V30 1 C 10.093380 7.032772 -6.091651 0
M  V30 2 C 9.430259 7.393270 -7.423679 0
M  V30 3 C 9.481445 6.222711 -8.421847 0
M  V30 4 N 8.886027 6.550114 -9.742439 0 CFG=1 CHG=1
M  V30 5 C 9.698892 7.503570 -10.543757 0
M  V30 6 C 8.948881 7.935833 -11.812595 0
M  V30 7 C 8.509828 6.721304 -12.639431 0
M  V30 8 C 7.749938 5.690495 -11.785727 0 CFG=1
M  V30 9 C 7.329183 4.454886 -12.576920 0
M  V30 10 C 6.053811 3.897324 -12.344487 0
M  V30 11 C 5.636288 2.752971 -13.046993 0
M  V30 12 C 6.485973 2.160919 -13.999735 0
M  V30 13 C 7.760868 2.707575 -14.246993 0
M  V30 14 C 8.674001 2.057050 -15.268260 0
M  V30 15 C 8.120602 2.114941 -16.630579 0
M  V30 16 N 7.686502 2.160633 -17.703526 0
M  V30 17 C 8.184176 3.844517 -13.526586 0
M  V30 18 C 8.560603 5.328855 -10.527889 0
M  V30 19 H 10.084369 7.891622 -5.423201 0
M  V30 20 H 9.573019 6.213016 -5.596948 0
M  V30 21 H 11.133106 6.734786 -6.233783 0
M  V30 22 H 9.935189 8.275091 -7.819350 0
M  V30 23 H 8.393562 7.683479 -7.244029 0
M  V30 24 H 8.938453 5.385075 -7.980289 0
M  V30 25 H 10.509815 5.884091 -8.561358 0
M  V30 26 H 10.648874 7.038248 -10.811011 0
M  V30 27 H 9.935169 8.399408 -9.971889 0
M  V30 28 H 9.584579 8.582048 -12.417188 0
M  V30 29 H 8.085838 8.539940 -11.537730 0
M  V30 30 H 9.401974 6.277794 -13.075584 0
M  V30 31 H 7.862570 7.046587 -13.447760 0
M  V30 32 H 6.830416 6.172297 -11.448720 0
M  V30 33 H 5.391475 4.339751 -11.614847 0
M  V30 34 H 4.660284 2.330155 -12.858591 0
M  V30 35 H 6.156810 1.284778 -14.539612 0
M  V30 36 H 9.650270 2.540933 -15.275131 0
M  V30 37 H 8.827109 1.010183 -15.005675 0
M  V30 38 H 9.172771 4.232728 -13.710772 0
M  V30 39 H 7.979813 4.639946 -9.912913 0
M  V30 40 H 9.478591 4.804592 -10.799671 0
M  V30 41 H 7.983565 6.999469 -9.578575 0
M  V30 END ATOM
M  V30 BEGIN BOND
M  V30 1 1 2 1
M  V30 2 1 3 2
M  V30 3 1 4 3
M  V30 4 1 5 4
M  V30 5 1 6 5
M  V30 6 1 7 6
M  V30 7 1 8 7
M  V30 8 1 9 8
M  V30 9 2 10 9
M  V30 10 1 11 10
M  V30 11 2 12 11
M  V30 12 1 13 12
M  V30 13 1 14 13
M  V30 14 1 15 14
M  V30 15 3 16 15
M  V30 16 1 17 9
M  V30 17 2 17 13
M  V30 18 1 18 4
M  V30 19 1 18 8
M  V30 20 1 19 1
M  V30 21 1 20 1
M  V30 22 1 21 1
M  V30 23 1 22 2
M  V30 24 1 23 2
M  V30 25 1 24 3
M  V30 26 1 25 3
M  V30 27 1 26 5
M  V30 28 1 27 5
M  V30 29 1 28 6
M  V30 30 1 29 6
M  V30 31 1 30 7
M  V30 32 1 31 7
M  V30 33 1 8 32 CFG=1
M  V30 34 1 33 10
M  V30 35 1 34 11
M  V30 36 1 35 12
M  V30 37 1 36 14
M  V30 38 1 37 14
M  V30 39 1 38 17
M  V30 40 1 39 18
M  V30 41 1 40 18
M  V30 42 1 4 41 CFG=1
M  V30 END BOND
M  V30 END CTAB
M  END
>  <b_m_subgroup_collapsed>  (1930) 
0

>  <r_i_docking_score>  (1930) 
-6.4542270561191497

>  <s_m_subgroup_title>  (1930) 
glide-dock_SP_D22_pv

>  <s_m_subgroupid>  (1930) 
glide-dock_SP_D22_pv

>  <Molecule ChEMBL ID>  (1930) 
CHEMBL93917

>  <Standard Type>  (1930) 
Ki

>  <Standard Value>  (1930) 
69.0

>  <label>  (1930) 
1

$$$$
CHEMBL5438081
     RDKit          3D

  0  0  0  0  0  0  0  0  0  0999 V3000
M  V30 BEGIN CTAB
M  V30 COUNTS 63 65 0 0 1
M  V30 BEGIN ATOM
M  V30 1 C 12.628607 8.888167 -1.447006 0
M  V30 2 O 11.823747 8.703160 -2.595389 0
M  V30 3 C 12.238309 9.580512 -3.622111 0
M  V30 4 C 11.313472 9.570583 -4.843064 0
M  V30 5 C 11.110403 8.189560 -5.486899 0
M  V30 6 O 11.677966 7.206403 -5.008338 0
M  V30 7 N 10.251579 8.085985 -6.527080 0
M  V30 8 C 9.803874 6.794537 -7.051129 0
M  V30 9 C 10.485427 6.564175 -8.404159 0
M  V30 10 C 10.119071 7.688308 -9.397338 0
M  V30 11 C 10.800735 7.514369 -10.769082 0
M  V30 12 C 9.914713 6.846059 -11.832353 0
M  V30 13 C 9.285900 5.519166 -11.387244 0
M  V30 14 N 8.591517 4.862884 -12.517541 0 CHG=1
M  V30 15 C 7.171352 4.542661 -12.220455 0
M  V30 16 C 6.474552 3.987279 -13.471354 0
M  V30 17 N 7.226606 2.859744 -14.012383 0
M  V30 18 C 6.550766 1.666578 -14.351532 0
M  V30 19 C 5.577302 1.182510 -13.447175 0
M  V30 20 C 4.770557 0.081684 -13.770714 0
M  V30 21 C 4.959705 -0.600101 -14.984345 0
M  V30 22 C 5.939086 -0.153656 -15.892317 0
M  V30 23 Cl 6.085205 -0.958311 -17.415588 0
M  V30 24 C 6.735662 0.977606 -15.588879 0
M  V30 25 Cl 7.822600 1.562247 -16.806179 0
M  V30 26 C 8.653583 3.042395 -14.253811 0
M  V30 27 C 9.350173 3.700634 -13.048842 0
M  V30 28 C 10.459040 9.047976 -8.773773 0
M  V30 29 C 9.816812 9.196922 -7.381924 0
M  V30 30 H 12.364366 8.172900 -0.676897 0
M  V30 31 H 13.685875 8.760682 -1.673107 0
M  V30 32 H 12.485440 9.884289 -1.032469 0
M  V30 33 H 13.265320 9.377600 -3.923608 0
M  V30 34 H 12.206836 10.572261 -3.184049 0
M  V30 35 H 11.749373 10.242429 -5.582325 0
M  V30 36 H 10.345491 9.985946 -4.564909 0
M  V30 37 H 8.717945 6.798374 -7.165954 0
M  V30 38 H 10.032127 5.974190 -6.372637 0
M  V30 39 H 10.218983 5.579701 -8.785067 0
M  V30 40 H 11.562536 6.570685 -8.244974 0
M  V30 41 H 9.036803 7.686595 -9.540295 0
M  V30 42 H 11.739086 6.973544 -10.653630 0
M  V30 43 H 11.088870 8.491576 -11.156706 0
M  V30 44 H 10.517005 6.689688 -12.728148 0
M  V30 45 H 9.119309 7.538070 -12.114456 0
M  V30 46 H 8.579329 5.703550 -10.576706 0
M  V30 47 H 10.048633 4.857685 -10.974943 0
M  V30 48 H 6.649105 5.438650 -11.880142 0
M  V30 49 H 7.118710 3.818527 -11.406210 0
M  V30 50 H 6.425445 4.754629 -14.240529 0
M  V30 51 H 5.439280 3.735148 -13.244511 0
M  V30 52 H 5.411635 1.675438 -12.499081 0
M  V30 53 H 4.002084 -0.228938 -13.078481 0
M  V30 54 H 4.339636 -1.450483 -15.233395 0
M  V30 55 H 9.134986 2.086360 -14.461510 0
M  V30 56 H 8.780261 3.669241 -15.137990 0
M  V30 57 H 10.353857 4.015172 -13.336875 0
M  V30 58 H 9.479749 2.972308 -12.251164 0
M  V30 59 H 11.540239 9.168619 -8.697247 0
M  V30 60 H 10.105010 9.827637 -9.444840 0
M  V30 61 H 8.728743 9.186221 -7.467084 0
M  V30 62 H 10.086070 10.170784 -6.984113 0
M  V30 63 H 8.556746 5.545001 -13.259500 0
M  V30 END ATOM
M  V30 BEGIN BOND
M  V30 1 1 2 1
M  V30 2 1 3 2
M  V30 3 1 4 3
M  V30 4 1 5 4
M  V30 5 2 6 5
M  V30 6 1 7 5
M  V30 7 1 8 7
M  V30 8 1 9 8
M  V30 9 1 10 9
M  V30 10 1 11 10
M  V30 11 1 12 11
M  V30 12 1 13 12
M  V30 13 1 14 13
M  V30 14 1 15 14
M  V30 15 1 16 15
M  V30 16 1 17 16
M  V30 17 1 18 17
M  V30 18 2 19 18
M  V30 19 1 20 19
M  V30 20 2 21 20
M  V30 21 1 22 21
M  V30 22 1 23 22
M  V30 23 1 24 18
M  V30 24 2 24 22
M  V30 25 1 25 24
M  V30 26 1 26 17
M  V30 27 1 27 14
M  V30 28 1 27 26
M  V30 29 1 28 10
M  V30 30 1 29 7
M  V30 31 1 29 28
M  V30 32 1 30 1
M  V30 33 1 31 1
M  V30 34 1 32 1
M  V30 35 1 33 3
M  V30 36 1 34 3
M  V30 37 1 35 4
M  V30 38 1 36 4
M  V30 39 1 37 8
M  V30 40 1 38 8
M  V30 41 1 39 9
M  V30 42 1 40 9
M  V30 43 1 41 10
M  V30 44 1 42 11
M  V30 45 1 43 11
M  V30 46 1 44 12
M  V30 47 1 45 12
M  V30 48 1 46 13
M  V30 49 1 47 13
M  V30 50 1 48 15
M  V30 51 1 49 15
M  V30 52 1 50 16
M  V30 53 1 51 16
M  V30 54 1 52 19
M  V30 55 1 53 20
M  V30 56 1 54 21
M  V30 57 1 55 26
M  V30 58 1 56 26
M  V30 59 1 57 27
M  V30 60 1 58 27
M  V30 61 1 59 28
M  V30 62 1 60 28
M  V30 63 1 61 29
M  V30 64 1 62 29
M  V30 65 1 63 14
M  V30 END BOND
M  V30 END CTAB
M  END
>  <b_m_subgroup_collapsed>  (1931) 
0

>  <r_i_docking_score>  (1931) 
-6.4533746141531401

>  <s_m_subgroup_title>  (1931) 
glide-dock_SP_D22_pv

>  <s_m_subgroupid>  (1931) 
glide-dock_SP_D22_pv

>  <Molecule ChEMBL ID>  (1931) 
CHEMBL5438081

>  <Standard Type>  (1931) 
Ki

>  <Standard Value>  (1931) 
19.4

>  <label>  (1931) 
1

$$$$
CHEMBL118254
     RDKit          3D

  0  0  0  0  0  0  0  0  0  0999 V3000
M  V30 BEGIN CTAB
M  V30 COUNTS 42 45 0 0 1
M  V30 BEGIN ATOM
M  V30 1 C 14.103818 5.494571 -16.622074 0
M  V30 2 C 12.569895 5.563348 -16.709381 0
M  V30 3 C 11.877872 4.315864 -16.168684 0
M  V30 4 C 11.969658 3.162331 -16.979813 0
M  V30 5 C 11.288268 1.982337 -16.645071 0
M  V30 6 C 10.462348 1.962849 -15.513474 0
M  V30 7 C 10.354804 3.107594 -14.699266 0
M  V30 8 C 11.110108 4.281463 -14.961259 0
M  V30 9 C 11.029489 5.368068 -13.942283 0
M  V30 10 C 12.085785 6.276756 -13.681040 0
M  V30 11 C 12.039408 7.260541 -12.677684 0
M  V30 12 C 10.922434 7.351240 -11.837409 0
M  V30 13 C 9.858245 6.450625 -12.004946 0
M  V30 14 C 9.925215 5.494615 -13.055018 0
M  V30 15 C 8.770432 4.505505 -13.317093 0 CFG=1
M  V30 16 C 9.347895 3.095839 -13.565056 0
M  V30 17 N 7.682472 4.492074 -12.298406 0 CFG=2 CHG=1
M  V30 18 C 6.424242 3.854020 -12.762586 0
M  V30 19 C 7.409472 5.833755 -11.765684 0
M  V30 20 C 8.661778 6.361335 -11.083241 0
M  V30 21 H 14.553961 6.404723 -17.017975 0
M  V30 22 H 14.494642 4.656077 -17.199018 0
M  V30 23 H 14.455212 5.372432 -15.598676 0
M  V30 24 H 12.181139 6.472287 -16.253954 0
M  V30 25 H 12.293319 5.660126 -17.759977 0
M  V30 26 H 12.561147 3.185414 -17.882940 0
M  V30 27 H 11.369219 1.109580 -17.275675 0
M  V30 28 H 9.896674 1.070929 -15.283511 0
M  V30 29 H 13.001797 6.213261 -14.238869 0
M  V30 30 H 12.882460 7.921237 -12.532987 0
M  V30 31 H 10.901167 8.083245 -11.042634 0
M  V30 32 H 8.311240 4.851143 -14.245884 0
M  V30 33 H 8.565737 2.381967 -13.819059 0
M  V30 34 H 9.841224 2.729703 -12.665059 0
M  V30 35 H 6.000081 4.393713 -13.610763 0
M  V30 36 H 5.681482 3.850263 -11.963008 0
M  V30 37 H 6.564241 2.816817 -13.059609 0
M  V30 38 H 7.085865 6.508422 -12.559544 0
M  V30 39 H 6.594363 5.772241 -11.047010 0
M  V30 40 H 8.923266 5.728251 -10.234511 0
M  V30 41 H 8.486250 7.356224 -10.675574 0
M  V30 42 H 8.021522 3.953481 -11.514112 0
M  V30 END ATOM
M  V30 BEGIN BOND
M  V30 1 1 2 1
M  V30 2 1 3 2
M  V30 3 1 4 3
M  V30 4 2 5 4
M  V30 5 1 6 5
M  V30 6 2 7 6
M  V30 7 2 8 3
M  V30 8 1 8 7
M  V30 9 1 9 8
M  V30 10 2 10 9
M  V30 11 1 11 10
M  V30 12 2 12 11
M  V30 13 1 13 12
M  V30 14 1 14 9
M  V30 15 2 14 13
M  V30 16 1 15 14
M  V30 17 1 16 7
M  V30 18 1 16 15
M  V30 19 1 17 15
M  V30 20 1 18 17
M  V30 21 1 19 17
M  V30 22 1 20 13
M  V30 23 1 20 19
M  V30 24 1 21 1
M  V30 25 1 22 1
M  V30 26 1 23 1
M  V30 27 1 24 2
M  V30 28 1 25 2
M  V30 29 1 26 4
M  V30 30 1 27 5
M  V30 31 1 28 6
M  V30 32 1 29 10
M  V30 33 1 30 11
M  V30 34 1 31 12
M  V30 35 1 15 32 CFG=3
M  V30 36 1 33 16
M  V30 37 1 34 16
M  V30 38 1 35 18
M  V30 39 1 36 18
M  V30 40 1 37 18
M  V30 41 1 38 19
M  V30 42 1 39 19
M  V30 43 1 40 20
M  V30 44 1 41 20
M  V30 45 1 17 42 CFG=1
M  V30 END BOND
M  V30 END CTAB
M  END
>  <b_m_subgroup_collapsed>  (1932) 
0

>  <r_i_docking_score>  (1932) 
-6.45179170469574

>  <s_m_subgroup_title>  (1932) 
glide-dock_SP_D22_pv

>  <s_m_subgroupid>  (1932) 
glide-dock_SP_D22_pv

>  <Molecule ChEMBL ID>  (1932) 
CHEMBL118254

>  <Standard Type>  (1932) 
Ki

>  <Standard Value>  (1932) 
79.2

>  <label>  (1932) 
1

$$$$
CHEMBL609611
     RDKit          3D

  0  0  0  0  0  0  0  0  0  0999 V3000
M  V30 BEGIN CTAB
M  V30 COUNTS 44 48 0 0 1
M  V30 BEGIN ATOM
M  V30 1 C 9.464376 0.895196 -15.555289 0
M  V30 2 C 8.643474 2.144642 -15.909286 0 CFG=1
M  V30 3 C 7.182463 2.052247 -15.416636 0
M  V30 4 C 7.208306 2.974086 -14.246951 0
M  V30 5 C 6.190568 3.184817 -13.308981 0
M  V30 6 C 6.477389 4.051489 -12.241090 0
M  V30 7 C 7.734036 4.698685 -12.152443 0
M  V30 8 C 8.712987 4.583169 -13.170717 0
M  V30 9 C 8.421506 3.648723 -14.201349 0
M  V30 10 O 9.226524 3.275452 -15.244419 0
M  V30 11 C 9.942467 5.425065 -13.090261 0
M  V30 12 C 10.999557 5.337410 -14.033700 0
M  V30 13 C 12.114412 6.190646 -14.024047 0
M  V30 14 C 12.259295 7.157034 -13.021840 0
M  V30 15 C 11.278850 7.282594 -12.027815 0
M  V30 16 C 10.130588 6.442123 -12.104159 0
M  V30 17 C 8.950963 6.692403 -11.148639 0 CFG=1
M  V30 18 C 8.073699 5.462798 -10.896694 0
M  V30 19 N 9.285555 7.409575 -9.887006 0 CFG=1 CHG=1
M  V30 20 C 9.806587 6.574633 -8.774050 0
M  V30 21 C 10.096687 8.599325 -10.166342 0
M  V30 22 C 11.418197 8.175227 -10.798555 0
M  V30 23 H 9.054248 0.004605 -16.030518 0
M  V30 24 H 9.475096 0.723635 -14.478832 0
M  V30 25 H 10.498999 1.002167 -15.882638 0
M  V30 26 H 8.669059 2.301889 -16.988041 0
M  V30 27 H 6.486416 2.431747 -16.163956 0
M  V30 28 H 6.883791 1.042511 -15.131807 0
M  V30 29 H 5.248328 2.660051 -13.369959 0
M  V30 30 H 5.747649 4.177518 -11.452684 0
M  V30 31 H 10.980642 4.614393 -14.829087 0
M  V30 32 H 12.883378 6.079875 -14.775053 0
M  V30 33 H 13.147893 7.772628 -12.995199 0
M  V30 34 H 8.320641 7.384464 -11.711095 0
M  V30 35 H 7.171481 5.772294 -10.383064 0
M  V30 36 H 8.580380 4.745401 -10.250464 0
M  V30 37 H 10.638119 5.947910 -9.095611 0
M  V30 38 H 9.025554 5.928161 -8.372508 0
M  V30 39 H 10.150430 7.198897 -7.948738 0
M  V30 40 H 9.534470 9.242158 -10.842381 0
M  V30 41 H 10.264189 9.175674 -9.255705 0
M  V30 42 H 12.026510 7.636967 -10.071362 0
M  V30 43 H 12.001313 9.060499 -11.046504 0
M  V30 44 H 8.382739 7.761398 -9.573199 0
M  V30 END ATOM
M  V30 BEGIN BOND
M  V30 1 1 2 1
M  V30 2 1 3 2
M  V30 3 1 4 3
M  V30 4 1 5 4
M  V30 5 2 6 5
M  V30 6 1 7 6
M  V30 7 2 8 7
M  V30 8 2 9 4
M  V30 9 1 9 8
M  V30 10 1 10 2
M  V30 11 1 10 9
M  V30 12 1 11 8
M  V30 13 2 12 11
M  V30 14 1 13 12
M  V30 15 2 14 13
M  V30 16 1 15 14
M  V30 17 1 16 11
M  V30 18 2 16 15
M  V30 19 1 17 16
M  V30 20 1 18 7
M  V30 21 1 18 17
M  V30 22 1 19 17
M  V30 23 1 20 19
M  V30 24 1 21 19
M  V30 25 1 22 15
M  V30 26 1 22 21
M  V30 27 1 23 1
M  V30 28 1 24 1
M  V30 29 1 25 1
M  V30 30 1 2 26 CFG=3
M  V30 31 1 27 3
M  V30 32 1 28 3
M  V30 33 1 29 5
M  V30 34 1 30 6
M  V30 35 1 31 12
M  V30 36 1 32 13
M  V30 37 1 33 14
M  V30 38 1 17 34 CFG=3
M  V30 39 1 35 18
M  V30 40 1 36 18
M  V30 41 1 37 20
M  V30 42 1 38 20
M  V30 43 1 39 20
M  V30 44 1 40 21
M  V30 45 1 41 21
M  V30 46 1 42 22
M  V30 47 1 43 22
M  V30 48 1 19 44 CFG=1
M  V30 END BOND
M  V30 END CTAB
M  END
>  <b_m_subgroup_collapsed>  (1933) 
0

>  <r_i_docking_score>  (1933) 
-6.4516287812247102

>  <s_m_subgroup_title>  (1933) 
glide-dock_SP_D22_pv

>  <s_m_subgroupid>  (1933) 
glide-dock_SP_D22_pv

>  <Molecule ChEMBL ID>  (1933) 
CHEMBL609611

>  <Standard Type>  (1933) 
Ki

>  <Standard Value>  (1933) 
10000.0

>  <label>  (1933) 
0

$$$$
CHEMBL609317
     RDKit          3D

  0  0  0  0  0  0  0  0  0  0999 V3000
M  V30 BEGIN CTAB
M  V30 COUNTS 44 48 0 0 1
M  V30 BEGIN ATOM
M  V30 1 C 9.464376 0.895196 -15.555289 0
M  V30 2 C 8.643474 2.144642 -15.909286 0 CFG=1
M  V30 3 C 7.182463 2.052247 -15.416636 0
M  V30 4 C 7.208306 2.974086 -14.246951 0
M  V30 5 C 6.190568 3.184817 -13.308981 0
M  V30 6 C 6.477389 4.051489 -12.241090 0
M  V30 7 C 7.734036 4.698685 -12.152443 0
M  V30 8 C 8.712987 4.583169 -13.170717 0
M  V30 9 C 8.421506 3.648723 -14.201349 0
M  V30 10 O 9.226524 3.275452 -15.244419 0
M  V30 11 C 9.942467 5.425065 -13.090261 0
M  V30 12 C 10.999557 5.337410 -14.033700 0
M  V30 13 C 12.114412 6.190646 -14.024047 0
M  V30 14 C 12.259295 7.157034 -13.021840 0
M  V30 15 C 11.278850 7.282594 -12.027815 0
M  V30 16 C 10.130588 6.442123 -12.104159 0
M  V30 17 C 8.950963 6.692403 -11.148639 0 CFG=1
M  V30 18 C 8.073699 5.462798 -10.896694 0
M  V30 19 N 9.285555 7.409575 -9.887006 0 CFG=1 CHG=1
M  V30 20 C 9.806587 6.574633 -8.774050 0
M  V30 21 C 10.096687 8.599325 -10.166342 0
M  V30 22 C 11.418197 8.175227 -10.798555 0
M  V30 23 H 9.054248 0.004605 -16.030518 0
M  V30 24 H 9.475096 0.723635 -14.478832 0
M  V30 25 H 10.498999 1.002167 -15.882638 0
M  V30 26 H 8.669059 2.301889 -16.988041 0
M  V30 27 H 6.486416 2.431747 -16.163956 0
M  V30 28 H 6.883791 1.042511 -15.131807 0
M  V30 29 H 5.248328 2.660051 -13.369959 0
M  V30 30 H 5.747649 4.177518 -11.452684 0
M  V30 31 H 10.980642 4.614393 -14.829087 0
M  V30 32 H 12.883378 6.079875 -14.775053 0
M  V30 33 H 13.147893 7.772628 -12.995199 0
M  V30 34 H 8.320641 7.384464 -11.711095 0
M  V30 35 H 7.171481 5.772294 -10.383064 0
M  V30 36 H 8.580380 4.745401 -10.250464 0
M  V30 37 H 10.638119 5.947910 -9.095611 0
M  V30 38 H 9.025554 5.928161 -8.372508 0
M  V30 39 H 10.150430 7.198897 -7.948738 0
M  V30 40 H 9.534470 9.242158 -10.842381 0
M  V30 41 H 10.264189 9.175674 -9.255705 0
M  V30 42 H 12.026510 7.636967 -10.071362 0
M  V30 43 H 12.001313 9.060499 -11.046504 0
M  V30 44 H 8.382739 7.761398 -9.573199 0
M  V30 END ATOM
M  V30 BEGIN BOND
M  V30 1 1 2 1
M  V30 2 1 3 2
M  V30 3 1 4 3
M  V30 4 1 5 4
M  V30 5 2 6 5
M  V30 6 1 7 6
M  V30 7 2 8 7
M  V30 8 2 9 4
M  V30 9 1 9 8
M  V30 10 1 10 2
M  V30 11 1 10 9
M  V30 12 1 11 8
M  V30 13 2 12 11
M  V30 14 1 13 12
M  V30 15 2 14 13
M  V30 16 1 15 14
M  V30 17 1 16 11
M  V30 18 2 16 15
M  V30 19 1 17 16
M  V30 20 1 18 7
M  V30 21 1 18 17
M  V30 22 1 19 17
M  V30 23 1 20 19
M  V30 24 1 21 19
M  V30 25 1 22 15
M  V30 26 1 22 21
M  V30 27 1 23 1
M  V30 28 1 24 1
M  V30 29 1 25 1
M  V30 30 1 2 26 CFG=3
M  V30 31 1 27 3
M  V30 32 1 28 3
M  V30 33 1 29 5
M  V30 34 1 30 6
M  V30 35 1 31 12
M  V30 36 1 32 13
M  V30 37 1 33 14
M  V30 38 1 17 34 CFG=3
M  V30 39 1 35 18
M  V30 40 1 36 18
M  V30 41 1 37 20
M  V30 42 1 38 20
M  V30 43 1 39 20
M  V30 44 1 40 21
M  V30 45 1 41 21
M  V30 46 1 42 22
M  V30 47 1 43 22
M  V30 48 1 19 44 CFG=1
M  V30 END BOND
M  V30 END CTAB
M  END
>  <b_m_subgroup_collapsed>  (1934) 
0

>  <r_i_docking_score>  (1934) 
-6.4516287812247102

>  <s_m_subgroup_title>  (1934) 
glide-dock_SP_D22_pv

>  <s_m_subgroupid>  (1934) 
glide-dock_SP_D22_pv

>  <Molecule ChEMBL ID>  (1934) 
CHEMBL609317

>  <Standard Type>  (1934) 
Ki

>  <Standard Value>  (1934) 
10000.0

>  <label>  (1934) 
0

$$$$
CHEMBL4636881
     RDKit          3D

  0  0  0  0  0  0  0  0  0  0999 V3000
M  V30 BEGIN CTAB
M  V30 COUNTS 57 59 0 0 1
M  V30 BEGIN ATOM
M  V30 1 C 5.321592 -0.617331 -14.818085 0
M  V30 2 C 5.775951 0.553034 -13.952573 0
M  V30 3 O 5.485491 0.572156 -12.756065 0
M  V30 4 N 6.486499 1.506778 -14.581606 0
M  V30 5 C 7.096926 2.633159 -13.974214 0
M  V30 6 C 6.390054 3.502496 -13.106061 0
M  V30 7 F 5.054914 3.361549 -12.920703 0
M  V30 8 C 7.074874 4.515883 -12.406888 0
M  V30 9 C 8.467438 4.668502 -12.576003 0
M  V30 10 C 9.255800 5.657731 -11.769696 0
M  V30 11 O 10.251868 6.200292 -12.248237 0
M  V30 12 N 8.886029 5.794302 -10.486271 0
M  V30 13 C 9.673926 6.479285 -9.464179 0 CFG=1
M  V30 14 C 9.691479 8.007705 -9.676526 0
M  V30 15 C 10.514963 8.692114 -8.579937 0
M  V30 16 C 9.927685 8.384289 -7.193090 0 CFG=2
M  V30 17 O 10.702866 9.019639 -6.197350 0
M  V30 18 C 9.910553 6.866727 -6.950182 0
M  V30 19 C 9.140159 6.131103 -8.060531 0
M  V30 20 C 9.140706 3.871356 -13.524017 0
M  V30 21 C 8.466309 2.856342 -14.246139 0
M  V30 22 O 9.077503 2.026557 -15.168862 0
M  V30 23 C 10.472234 2.171887 -15.441628 0 CFG=1
M  V30 24 C 10.886360 0.954896 -16.275299 0
M  V30 25 C 10.811918 3.470046 -16.165855 0
M  V30 26 C 12.007855 4.157686 -15.859832 0
M  V30 27 C 12.317338 5.367291 -16.511370 0
M  V30 28 C 11.434478 5.895101 -17.474459 0
M  V30 29 C 10.245892 5.207204 -17.794069 0
M  V30 30 C 9.938850 3.995547 -17.143833 0
M  V30 31 H 6.148597 -0.998862 -15.421558 0
M  V30 32 H 4.953377 -1.435406 -14.201120 0
M  V30 33 H 4.517539 -0.306499 -15.485431 0
M  V30 34 H 6.788187 1.297658 -15.522319 0
M  V30 35 H 6.528234 5.148330 -11.721064 0
M  V30 36 H 8.033121 5.345797 -10.183771 0
M  V30 37 H 10.700015 6.112756 -9.531917 0
M  V30 38 H 8.673623 8.399443 -9.670226 0
M  V30 39 H 10.112884 8.264201 -10.648940 0
M  V30 40 H 10.535056 9.760371 -8.763119 0
M  V30 41 H 11.551247 8.354127 -8.637200 0
M  V30 42 H 8.908487 8.773064 -7.131885 0
M  V30 43 H 11.588411 8.694494 -6.251127 0
M  V30 44 H 10.930364 6.481548 -6.904040 0
M  V30 45 H 9.454617 6.645993 -5.983573 0
M  V30 46 H 8.085852 6.395362 -7.997843 0
M  V30 47 H 9.195417 5.055011 -7.891127 0
M  V30 48 H 10.199639 4.030503 -13.649370 0
M  V30 49 H 11.022702 2.124086 -14.500119 0
M  V30 50 H 11.955438 0.972493 -16.489264 0
M  V30 51 H 10.668718 0.027506 -15.743525 0
M  V30 52 H 10.354300 0.926463 -17.226479 0
M  V30 53 H 12.687778 3.766752 -15.116092 0
M  V30 54 H 13.226728 5.896258 -16.263950 0
M  V30 55 H 11.671508 6.825389 -17.971066 0
M  V30 56 H 9.569613 5.611207 -18.534613 0
M  V30 57 H 9.024299 3.475198 -17.387938 0
M  V30 END ATOM
M  V30 BEGIN BOND
M  V30 1 1 2 1
M  V30 2 2 3 2
M  V30 3 1 4 2
M  V30 4 1 5 4
M  V30 5 2 6 5
M  V30 6 1 7 6
M  V30 7 1 8 6
M  V30 8 2 9 8
M  V30 9 1 10 9
M  V30 10 2 11 10
M  V30 11 1 12 10
M  V30 12 1 13 12
M  V30 13 1 14 13
M  V30 14 1 15 14
M  V30 15 1 16 15
M  V30 16 1 17 16
M  V30 17 1 18 16
M  V30 18 1 19 13
M  V30 19 1 19 18
M  V30 20 1 20 9
M  V30 21 1 21 5
M  V30 22 2 21 20
M  V30 23 1 22 21
M  V30 24 1 23 22
M  V30 25 1 24 23
M  V30 26 1 25 23
M  V30 27 2 26 25
M  V30 28 1 27 26
M  V30 29 2 28 27
M  V30 30 1 29 28
M  V30 31 1 30 25
M  V30 32 2 30 29
M  V30 33 1 31 1
M  V30 34 1 32 1
M  V30 35 1 33 1
M  V30 36 1 34 4
M  V30 37 1 35 8
M  V30 38 1 36 12
M  V30 39 1 13 37 CFG=1
M  V30 40 1 38 14
M  V30 41 1 39 14
M  V30 42 1 40 15
M  V30 43 1 41 15
M  V30 44 1 16 42 CFG=3
M  V30 45 1 43 17
M  V30 46 1 44 18
M  V30 47 1 45 18
M  V30 48 1 46 19
M  V30 49 1 47 19
M  V30 50 1 48 20
M  V30 51 1 23 49 CFG=1
M  V30 52 1 50 24
M  V30 53 1 51 24
M  V30 54 1 52 24
M  V30 55 1 53 26
M  V30 56 1 54 27
M  V30 57 1 55 28
M  V30 58 1 56 29
M  V30 59 1 57 30
M  V30 END BOND
M  V30 END CTAB
M  END
>  <b_m_subgroup_collapsed>  (1935) 
0

>  <r_i_docking_score>  (1935) 
-6.4495848411239898

>  <s_m_subgroup_title>  (1935) 
glide-dock_SP_D22_pv

>  <s_m_subgroupid>  (1935) 
glide-dock_SP_D22_pv

>  <Molecule ChEMBL ID>  (1935) 
CHEMBL4636881

>  <Standard Type>  (1935) 
Ki

>  <Standard Value>  (1935) 
100000.0

>  <label>  (1935) 
0

$$$$
CHEMBL397180
     RDKit          3D

  0  0  0  0  0  0  0  0  0  0999 V3000
M  V30 BEGIN CTAB
M  V30 COUNTS 45 47 0 0 1
M  V30 BEGIN ATOM
M  V30 1 C 4.823956 -0.687457 -14.731556 0
M  V30 2 O 6.057830 0.001874 -14.877401 0
M  V30 3 C 6.206803 1.217165 -14.244788 0
M  V30 4 C 5.331306 1.691058 -13.234222 0
M  V30 5 C 5.539083 2.955707 -12.645028 0
M  V30 6 C 6.611423 3.766441 -13.057340 0
M  V30 7 C 6.875448 5.102788 -12.394855 0
M  V30 8 C 8.043492 4.971773 -11.402668 0
M  V30 9 N 8.486409 6.227374 -10.734591 0 CFG=2 CHG=1
M  V30 10 C 8.908013 7.278516 -11.705817 0
M  V30 11 C 9.289298 8.631908 -11.074414 0
M  V30 12 C 10.625632 8.611708 -10.309175 0
M  V30 13 C 10.419043 8.130737 -8.892653 0
M  V30 14 C 10.798784 8.959078 -7.816518 0
M  V30 15 C 10.547954 8.564127 -6.491169 0
M  V30 16 C 9.903693 7.340262 -6.246996 0
M  V30 17 C 9.522068 6.512850 -7.315872 0
M  V30 18 C 9.807027 6.882971 -8.642596 0
M  V30 19 C 9.551215 5.884180 -9.755835 0
M  V30 20 C 7.481662 3.300137 -14.062280 0
M  V30 21 C 7.286915 2.032996 -14.645981 0
M  V30 22 Cl 8.380258 1.499992 -15.870742 0
M  V30 23 H 4.822609 -1.569174 -15.373824 0
M  V30 24 H 3.977217 -0.064584 -15.026814 0
M  V30 25 H 4.676908 -1.027489 -13.709232 0
M  V30 26 H 4.491838 1.101835 -12.897677 0
M  V30 27 H 4.886051 3.294628 -11.858709 0
M  V30 28 H 7.095204 5.808824 -13.190008 0
M  V30 29 H 5.979122 5.461349 -11.884478 0
M  V30 30 H 7.742149 4.245683 -10.643809 0
M  V30 31 H 8.905219 4.538468 -11.913567 0
M  V30 32 H 9.721870 6.907293 -12.331145 0
M  V30 33 H 8.079309 7.498746 -12.376073 0
M  V30 34 H 9.358216 9.366517 -11.880459 0
M  V30 35 H 8.486625 9.001694 -10.436057 0
M  V30 36 H 11.373239 8.000081 -10.813422 0
M  V30 37 H 11.045589 9.616323 -10.250801 0
M  V30 38 H 11.285830 9.903783 -7.997856 0
M  V30 39 H 10.839175 9.200341 -5.669559 0
M  V30 40 H 9.701604 7.025176 -5.235184 0
M  V30 41 H 9.044004 5.569709 -7.106472 0
M  V30 42 H 9.326284 4.924741 -9.281506 0
M  V30 43 H 10.486014 5.725800 -10.287459 0
M  V30 44 H 8.313975 3.909089 -14.384147 0
M  V30 45 H 7.677841 6.620269 -10.245914 0
M  V30 END ATOM
M  V30 BEGIN BOND
M  V30 1 1 2 1
M  V30 2 1 3 2
M  V30 3 1 4 3
M  V30 4 2 5 4
M  V30 5 1 6 5
M  V30 6 1 7 6
M  V30 7 1 8 7
M  V30 8 1 9 8
M  V30 9 1 10 9
M  V30 10 1 11 10
M  V30 11 1 12 11
M  V30 12 1 13 12
M  V30 13 2 14 13
M  V30 14 1 15 14
M  V30 15 2 16 15
M  V30 16 1 17 16
M  V30 17 1 18 13
M  V30 18 2 18 17
M  V30 19 1 19 9
M  V30 20 1 19 18
M  V30 21 2 20 6
M  V30 22 2 21 3
M  V30 23 1 21 20
M  V30 24 1 22 21
M  V30 25 1 23 1
M  V30 26 1 24 1
M  V30 27 1 25 1
M  V30 28 1 26 4
M  V30 29 1 27 5
M  V30 30 1 28 7
M  V30 31 1 29 7
M  V30 32 1 30 8
M  V30 33 1 31 8
M  V30 34 1 32 10
M  V30 35 1 33 10
M  V30 36 1 34 11
M  V30 37 1 35 11
M  V30 38 1 36 12
M  V30 39 1 37 12
M  V30 40 1 38 14
M  V30 41 1 39 15
M  V30 42 1 40 16
M  V30 43 1 41 17
M  V30 44 1 42 19
M  V30 45 1 43 19
M  V30 46 1 44 20
M  V30 47 1 9 45 CFG=1
M  V30 END BOND
M  V30 END CTAB
M  END
>  <b_m_subgroup_collapsed>  (1936) 
0

>  <r_i_docking_score>  (1936) 
-6.4489702300128702

>  <s_m_subgroup_title>  (1936) 
glide-dock_SP_D22_pv

>  <s_m_subgroupid>  (1936) 
glide-dock_SP_D22_pv

>  <Molecule ChEMBL ID>  (1936) 
CHEMBL397180

>  <Standard Type>  (1936) 
Ki

>  <Standard Value>  (1936) 
10000.0

>  <label>  (1936) 
0

$$$$
CHEMBL201561
     RDKit          3D

  0  0  0  0  0  0  0  0  0  0999 V3000
M  V30 BEGIN CTAB
M  V30 COUNTS 41 43 0 0 1
M  V30 BEGIN ATOM
M  V30 1 C 11.624523 7.786861 -10.089556 0
M  V30 2 N 10.338235 8.346356 -10.575768 0 CFG=1 CHG=1
M  V30 3 C 9.333077 7.438857 -11.193499 0
M  V30 4 C 9.799213 6.040085 -11.638168 0
M  V30 5 C 9.288659 4.862117 -10.768415 0
M  V30 6 C 9.691714 4.805908 -9.274077 0
M  V30 7 C 8.878722 5.686234 -8.309503 0
M  V30 8 C 9.697896 6.635774 -7.476170 0
M  V30 9 N 10.529403 6.172585 -6.481327 0
M  V30 10 C 10.979329 7.200733 -5.685966 0
M  V30 11 C 11.691672 7.208869 -4.479523 0
M  V30 12 C 12.038562 8.436504 -3.873636 0
M  V30 13 C 11.584614 9.632507 -4.471883 0
M  V30 14 C 10.884668 9.612185 -5.693576 0
M  V30 15 C 10.539316 8.392057 -6.325143 0
M  V30 16 C 9.765780 8.007188 -7.474520 0
M  V30 17 C 9.017012 8.900733 -8.401589 0
M  V30 18 C 9.743968 9.372354 -9.677176 0
M  V30 19 H 11.505219 7.006392 -9.348097 0
M  V30 20 H 12.233566 8.566469 -9.631795 0
M  V30 21 H 12.219218 7.398041 -10.914471 0
M  V30 22 H 8.486023 7.328556 -10.542139 0
M  V30 23 H 8.942552 7.968251 -12.064299 0
M  V30 24 H 9.364189 5.871212 -12.623424 0
M  V30 25 H 10.864804 5.991538 -11.846863 0
M  V30 26 H 8.202500 4.805761 -10.839012 0
M  V30 27 H 9.651179 3.947525 -11.240250 0
M  V30 28 H 9.579229 3.773424 -8.939427 0
M  V30 29 H 10.744889 5.004064 -9.138305 0
M  V30 30 H 8.084595 6.213604 -8.826897 0
M  V30 31 H 8.323104 5.037142 -7.635580 0
M  V30 32 H 10.626925 5.192115 -6.253561 0
M  V30 33 H 11.988099 6.275453 -4.019993 0
M  V30 34 H 12.572947 8.468931 -2.939051 0
M  V30 35 H 11.743821 10.569838 -3.964079 0
M  V30 36 H 10.552325 10.545150 -6.124882 0
M  V30 37 H 8.088760 8.424841 -8.667325 0
M  V30 38 H 8.691724 9.771870 -7.846539 0
M  V30 39 H 10.514617 10.105183 -9.445180 0
M  V30 40 H 8.966983 9.877266 -10.246656 0
M  V30 41 H 10.644566 8.894201 -11.366257 0
M  V30 END ATOM
M  V30 BEGIN BOND
M  V30 1 1 2 1
M  V30 2 1 3 2
M  V30 3 1 4 3
M  V30 4 1 5 4
M  V30 5 1 6 5
M  V30 6 1 7 6
M  V30 7 1 8 7
M  V30 8 1 9 8
M  V30 9 1 10 9
M  V30 10 2 11 10
M  V30 11 1 12 11
M  V30 12 2 13 12
M  V30 13 1 14 13
M  V30 14 1 15 10
M  V30 15 2 15 14
M  V30 16 2 16 8
M  V30 17 1 16 15
M  V30 18 1 17 16
M  V30 19 1 18 2
M  V30 20 1 18 17
M  V30 21 1 19 1
M  V30 22 1 20 1
M  V30 23 1 21 1
M  V30 24 1 22 3
M  V30 25 1 23 3
M  V30 26 1 24 4
M  V30 27 1 25 4
M  V30 28 1 26 5
M  V30 29 1 27 5
M  V30 30 1 28 6
M  V30 31 1 29 6
M  V30 32 1 30 7
M  V30 33 1 31 7
M  V30 34 1 32 9
M  V30 35 1 33 11
M  V30 36 1 34 12
M  V30 37 1 35 13
M  V30 38 1 36 14
M  V30 39 1 37 17
M  V30 40 1 38 17
M  V30 41 1 39 18
M  V30 42 1 40 18
M  V30 43 1 2 41 CFG=3
M  V30 END BOND
M  V30 END CTAB
M  END
>  <b_m_subgroup_collapsed>  (1937) 
0

>  <r_i_docking_score>  (1937) 
-6.4488390828307898

>  <s_m_subgroup_title>  (1937) 
glide-dock_SP_D22_pv

>  <s_m_subgroupid>  (1937) 
glide-dock_SP_D22_pv

>  <Molecule ChEMBL ID>  (1937) 
CHEMBL201561

>  <Standard Type>  (1937) 
Ki

>  <Standard Value>  (1937) 
10000.0

>  <label>  (1937) 
0

$$$$
CHEMBL4642292
     RDKit          3D

  0  0  0  0  0  0  0  0  0  0999 V3000
M  V30 BEGIN CTAB
M  V30 COUNTS 33 35 0 0 1
M  V30 BEGIN ATOM
M  V30 1 C 9.667356 4.266461 -14.401673 0
M  V30 2 C 10.553412 5.372480 -13.855729 0
M  V30 3 N 11.612365 5.616619 -14.656926 0
M  V30 4 C 12.486034 6.573880 -14.304891 0
M  V30 5 C 12.388119 7.290564 -13.104524 0
M  V30 6 C 11.311252 7.021632 -12.233425 0
M  V30 7 C 10.309941 6.098816 -12.646862 0
M  V30 8 C 9.053277 5.942920 -11.752302 0
M  V30 9 C 7.738464 5.881807 -12.557883 0
M  V30 10 C 9.188758 4.685605 -10.870833 0
M  V30 11 N 8.886005 7.087433 -10.860601 0
M  V30 12 C 9.995285 7.619331 -10.210653 0
M  V30 13 C 9.868226 8.113931 -8.896059 0
M  V30 14 C 11.008572 8.573080 -8.212289 0
M  V30 15 Br 10.886025 9.195482 -6.416791 0
M  V30 16 C 12.252603 8.572324 -8.864175 0
M  V30 17 C 12.357820 8.138901 -10.199048 0
M  V30 18 C 11.233089 7.625449 -10.883535 0
M  V30 19 H 9.305581 3.601720 -13.621196 0
M  V30 20 H 8.823439 4.693084 -14.942415 0
M  V30 21 H 10.217328 3.642048 -15.107277 0
M  V30 22 H 13.311337 6.745573 -14.980035 0
M  V30 23 H 13.156346 8.006568 -12.856758 0
M  V30 24 H 7.588450 4.946289 -13.087941 0
M  V30 25 H 6.873107 5.973650 -11.898447 0
M  V30 26 H 7.685763 6.701017 -13.275480 0
M  V30 27 H 9.286084 3.772360 -11.453817 0
M  V30 28 H 10.064053 4.744268 -10.223070 0
M  V30 29 H 8.316576 4.570110 -10.225697 0
M  V30 30 H 7.933575 7.321921 -10.536427 0
M  V30 31 H 8.907290 8.102861 -8.400552 0
M  V30 32 H 13.130424 8.936624 -8.349736 0
M  V30 33 H 13.326666 8.172276 -10.671594 0
M  V30 END ATOM
M  V30 BEGIN BOND
M  V30 1 1 2 1
M  V30 2 2 3 2
M  V30 3 1 4 3
M  V30 4 2 5 4
M  V30 5 1 6 5
M  V30 6 1 7 2
M  V30 7 2 7 6
M  V30 8 1 8 7
M  V30 9 1 9 8
M  V30 10 1 10 8
M  V30 11 1 11 8
M  V30 12 1 12 11
M  V30 13 2 13 12
M  V30 14 1 14 13
M  V30 15 1 15 14
M  V30 16 2 16 14
M  V30 17 1 17 16
M  V30 18 1 18 6
M  V30 19 1 18 12
M  V30 20 2 18 17
M  V30 21 1 19 1
M  V30 22 1 20 1
M  V30 23 1 21 1
M  V30 24 1 22 4
M  V30 25 1 23 5
M  V30 26 1 24 9
M  V30 27 1 25 9
M  V30 28 1 26 9
M  V30 29 1 27 10
M  V30 30 1 28 10
M  V30 31 1 29 10
M  V30 32 1 30 11
M  V30 33 1 31 13
M  V30 34 1 32 16
M  V30 35 1 33 17
M  V30 END BOND
M  V30 END CTAB
M  END
>  <b_m_subgroup_collapsed>  (1938) 
0

>  <r_i_docking_score>  (1938) 
-6.4485351881856703

>  <s_m_subgroup_title>  (1938) 
glide-dock_SP_D22_pv

>  <s_m_subgroupid>  (1938) 
glide-dock_SP_D22_pv

>  <Molecule ChEMBL ID>  (1938) 
CHEMBL4642292

>  <Standard Type>  (1938) 
Ki

>  <Standard Value>  (1938) 
10000.0

>  <label>  (1938) 
0

$$$$
CHEMBL4591203
     RDKit          3D

  0  0  0  0  0  0  0  0  0  0999 V3000
M  V30 BEGIN CTAB
M  V30 COUNTS 46 48 0 0 1
M  V30 BEGIN ATOM
M  V30 1 C 8.884501 7.476261 -6.852410 0
M  V30 2 N 10.120452 8.025807 -7.381845 0
M  V30 3 C 10.482410 8.299934 -8.655862 0
M  V30 4 S 9.490875 8.036464 -10.081587 0
M  V30 5 C 9.468887 6.216874 -10.143568 0
M  V30 6 C 8.677795 5.692068 -11.353251 0
M  V30 7 C 9.331139 6.020075 -12.711866 0
M  V30 8 N 10.272168 4.986248 -13.150890 0
M  V30 9 C 11.220071 5.573495 -14.101678 0
M  V30 10 C 12.250502 4.516492 -14.535065 0
M  V30 11 N 11.563581 3.379411 -15.182294 0 CHG=1
M  V30 12 C 10.532549 2.803456 -14.292529 0
M  V30 13 C 9.551396 3.895919 -13.819046 0
M  V30 14 N 11.684673 8.859337 -8.756697 0
M  V30 15 N 12.147589 8.969993 -7.472446 0
M  V30 16 C 11.207913 8.434383 -6.693239 0
M  V30 17 C 11.418145 8.320848 -5.257522 0
M  V30 18 C 11.686021 9.479078 -4.499523 0
M  V30 19 C 12.017946 9.371626 -3.134951 0
M  V30 20 C 12.086130 8.106489 -2.522614 0
M  V30 21 C 11.809548 6.949008 -3.274383 0
M  V30 22 C 11.475000 7.053872 -4.639361 0
M  V30 23 H 8.207554 7.179316 -7.649116 0
M  V30 24 H 9.094678 6.603075 -6.234055 0
M  V30 25 H 8.379718 8.229487 -6.250312 0
M  V30 26 H 10.486296 5.843559 -10.172726 0
M  V30 27 H 9.018453 5.825627 -9.233541 0
M  V30 28 H 8.513242 4.620140 -11.246271 0
M  V30 29 H 7.685072 6.143565 -11.325463 0
M  V30 30 H 8.557334 6.162254 -13.469230 0
M  V30 31 H 9.839672 6.982243 -12.634145 0
M  V30 32 H 10.693340 5.977782 -14.968576 0
M  V30 33 H 11.743657 6.405587 -13.627895 0
M  V30 34 H 12.965405 4.950885 -15.233567 0
M  V30 35 H 12.822743 4.172086 -13.672025 0
M  V30 36 H 11.114293 3.712396 -16.022711 0
M  V30 37 H 9.991480 2.023715 -14.828474 0
M  V30 38 H 11.017365 2.320533 -13.447046 0
M  V30 39 H 8.827350 3.453223 -13.134925 0
M  V30 40 H 8.984612 4.282161 -14.668332 0
M  V30 41 H 11.659317 10.451268 -4.971964 0
M  V30 42 H 12.220408 10.262477 -2.560549 0
M  V30 43 H 12.341072 8.027764 -1.475813 0
M  V30 44 H 11.858436 5.975882 -2.806425 0
M  V30 45 H 11.291107 6.160146 -5.215362 0
M  V30 46 H 12.240320 2.670261 -15.426124 0
M  V30 END ATOM
M  V30 BEGIN BOND
M  V30 1 1 2 1
M  V30 2 1 3 2
M  V30 3 1 4 3
M  V30 4 1 5 4
M  V30 5 1 6 5
M  V30 6 1 7 6
M  V30 7 1 8 7
M  V30 8 1 9 8
M  V30 9 1 10 9
M  V30 10 1 11 10
M  V30 11 1 12 11
M  V30 12 1 13 8
M  V30 13 1 13 12
M  V30 14 2 14 3
M  V30 15 1 15 14
M  V30 16 1 16 2
M  V30 17 2 16 15
M  V30 18 1 17 16
M  V30 19 2 18 17
M  V30 20 1 19 18
M  V30 21 2 20 19
M  V30 22 1 21 20
M  V30 23 1 22 17
M  V30 24 2 22 21
M  V30 25 1 23 1
M  V30 26 1 24 1
M  V30 27 1 25 1
M  V30 28 1 26 5
M  V30 29 1 27 5
M  V30 30 1 28 6
M  V30 31 1 29 6
M  V30 32 1 30 7
M  V30 33 1 31 7
M  V30 34 1 32 9
M  V30 35 1 33 9
M  V30 36 1 34 10
M  V30 37 1 35 10
M  V30 38 1 36 11
M  V30 39 1 37 12
M  V30 40 1 38 12
M  V30 41 1 39 13
M  V30 42 1 40 13
M  V30 43 1 41 18
M  V30 44 1 42 19
M  V30 45 1 43 20
M  V30 46 1 44 21
M  V30 47 1 45 22
M  V30 48 1 46 11
M  V30 END BOND
M  V30 END CTAB
M  END
>  <b_m_subgroup_collapsed>  (1939) 
0

>  <r_i_docking_score>  (1939) 
-6.4482817703846997

>  <s_m_subgroup_title>  (1939) 
glide-dock_SP_D22_pv

>  <s_m_subgroupid>  (1939) 
glide-dock_SP_D22_pv

>  <Molecule ChEMBL ID>  (1939) 
CHEMBL4591203

>  <Standard Type>  (1939) 
Ki

>  <Standard Value>  (1939) 
74272.0

>  <label>  (1939) 
0

$$$$
CHEMBL3966484
     RDKit          3D

  0  0  0  0  0  0  0  0  0  0999 V3000
M  V30 BEGIN CTAB
M  V30 COUNTS 46 49 0 0 1
M  V30 BEGIN ATOM
M  V30 1 C 6.572591 0.586570 -13.751974 0
M  V30 2 N 7.962432 0.587234 -14.247187 0 CHG=1
M  V30 3 C 8.307235 1.743549 -15.096071 0 CFG=1
M  V30 4 C 8.915664 2.905491 -14.346765 0
M  V30 5 C 10.193816 2.743271 -14.954330 0
M  V30 6 C 11.284821 3.582467 -14.712269 0
M  V30 7 C 11.015528 4.658792 -13.819987 0
M  V30 8 C 9.713567 4.857199 -13.247619 0
M  V30 9 C 8.674219 3.979745 -13.516940 0
M  V30 10 C 7.463611 4.363660 -12.913737 0
M  V30 11 C 7.788795 5.523046 -12.249727 0
M  V30 12 N 9.140497 5.835843 -12.435242 0
M  V30 13 S 9.880414 7.293730 -11.846319 0
M  V30 14 O 11.197449 7.372273 -12.495399 0
M  V30 15 O 8.886420 8.355224 -12.063784 0
M  V30 16 C 10.151421 7.115355 -10.081629 0
M  V30 17 C 11.235357 7.812328 -9.507140 0
M  V30 18 C 11.440449 7.771571 -8.114144 0
M  V30 19 C 10.569460 7.020993 -7.298619 0
M  V30 20 C 9.490031 6.321913 -7.874593 0
M  V30 21 C 9.281444 6.364256 -9.267071 0
M  V30 22 C 9.761154 1.553980 -15.777110 0 CFG=2
M  V30 23 C 10.013259 1.743116 -17.280092 0
M  V30 24 C 9.096955 2.749982 -18.003040 0
M  V30 25 O 7.837603 2.172129 -18.297441 0
M  V30 26 H 6.405280 -0.282012 -13.114452 0
M  V30 27 H 5.867446 0.539824 -14.583119 0
M  V30 28 H 6.357468 1.481857 -13.169993 0
M  V30 29 H 8.609454 0.571371 -13.467488 0
M  V30 30 H 7.512699 2.055141 -15.772274 0
M  V30 31 H 12.246833 3.442294 -15.183931 0
M  V30 32 H 11.815819 5.350084 -13.606765 0
M  V30 33 H 6.527905 3.834214 -13.007607 0
M  V30 34 H 7.151136 6.172935 -11.664656 0
M  V30 35 H 11.893097 8.400720 -10.129807 0
M  V30 36 H 12.263748 8.314883 -7.673840 0
M  V30 37 H 10.721839 6.989015 -6.228440 0
M  V30 38 H 8.804136 5.769879 -7.248341 0
M  V30 39 H 8.429140 5.855054 -9.686924 0
M  V30 40 H 10.289110 0.683665 -15.381930 0
M  V30 41 H 11.048150 2.058929 -17.421021 0
M  V30 42 H 9.945135 0.780324 -17.787148 0
M  V30 43 H 8.963658 3.660491 -17.417246 0
M  V30 44 H 9.556178 3.047410 -18.947741 0
M  V30 45 H 7.981413 1.390372 -18.817539 0
M  V30 46 H 8.089205 -0.254404 -14.792762 0
M  V30 END ATOM
M  V30 BEGIN BOND
M  V30 1 1 2 1
M  V30 2 1 3 2
M  V30 3 1 4 3
M  V30 4 2 5 4
M  V30 5 1 6 5
M  V30 6 2 7 6
M  V30 7 1 8 7
M  V30 8 1 9 4
M  V30 9 2 9 8
M  V30 10 1 10 9
M  V30 11 2 11 10
M  V30 12 1 12 8
M  V30 13 1 12 11
M  V30 14 1 13 12
M  V30 15 2 14 13
M  V30 16 2 15 13
M  V30 17 1 16 13
M  V30 18 2 17 16
M  V30 19 1 18 17
M  V30 20 2 19 18
M  V30 21 1 20 19
M  V30 22 1 21 16
M  V30 23 2 21 20
M  V30 24 1 22 3
M  V30 25 1 22 5
M  V30 26 1 23 22
M  V30 27 1 24 23
M  V30 28 1 25 24
M  V30 29 1 26 1
M  V30 30 1 27 1
M  V30 31 1 28 1
M  V30 32 1 29 2
M  V30 33 1 3 30 CFG=3
M  V30 34 1 31 6
M  V30 35 1 32 7
M  V30 36 1 33 10
M  V30 37 1 34 11
M  V30 38 1 35 17
M  V30 39 1 36 18
M  V30 40 1 37 19
M  V30 41 1 38 20
M  V30 42 1 39 21
M  V30 43 1 22 40 CFG=1
M  V30 44 1 41 23
M  V30 45 1 42 23
M  V30 46 1 43 24
M  V30 47 1 44 24
M  V30 48 1 45 25
M  V30 49 1 46 2
M  V30 END BOND
M  V30 END CTAB
M  END
>  <b_m_subgroup_collapsed>  (1940) 
0

>  <r_i_docking_score>  (1940) 
-6.4468870268725098

>  <s_m_subgroup_title>  (1940) 
glide-dock_SP_D22_pv

>  <s_m_subgroupid>  (1940) 
glide-dock_SP_D22_pv

>  <Molecule ChEMBL ID>  (1940) 
CHEMBL3966484

>  <Standard Type>  (1940) 
Ki

>  <Standard Value>  (1940) 
15848.93

>  <label>  (1940) 
0

$$$$
CHEMBL4065797
     RDKit          3D

  0  0  0  0  0  0  0  0  0  0999 V3000
M  V30 BEGIN CTAB
M  V30 COUNTS 46 48 0 0 1
M  V30 BEGIN ATOM
M  V30 1 C 9.088353 8.452601 -7.775807 0
M  V30 2 C 9.093853 6.938489 -7.525609 0
M  V30 3 C 9.697906 6.106358 -8.666720 0
M  V30 4 N 8.886131 6.154906 -9.918672 0 CFG=1 CHG=1
M  V30 5 C 9.567986 6.961863 -10.963750 0
M  V30 6 C 8.681444 7.281494 -12.174271 0
M  V30 7 C 8.648222 6.169531 -13.235877 0
M  V30 8 N 8.017759 4.918177 -12.822472 0
M  V30 9 C 8.248775 3.757041 -13.600409 0
M  V30 10 C 9.545740 3.470629 -14.093951 0
M  V30 11 C 9.816713 2.274752 -14.784253 0
M  V30 12 C 8.809198 1.312575 -14.966895 0
M  V30 13 O 9.130063 0.135397 -15.581895 0
M  V30 14 C 7.509442 1.573893 -14.483518 0
M  V30 15 C 7.218000 2.807134 -13.846880 0
M  V30 16 O 5.928752 3.040795 -13.419607 0
M  V30 17 C 5.195701 1.902311 -12.946425 0
M  V30 18 C 5.365441 0.665205 -13.846405 0
M  V30 19 O 4.518865 -0.226112 -13.845423 0
M  V30 20 N 6.486036 0.598054 -14.577972 0
M  V30 21 C 7.442499 4.771310 -11.483976 0
M  V30 22 C 8.510884 4.790556 -10.376246 0
M  V30 23 H 8.659041 8.970704 -6.919432 0
M  V30 24 H 10.096770 8.836571 -7.930890 0
M  V30 25 H 8.486781 8.715188 -8.644945 0
M  V30 26 H 8.086639 6.589812 -7.313019 0
M  V30 27 H 9.662286 6.744541 -6.615168 0
M  V30 28 H 9.786747 5.078295 -8.309822 0
M  V30 29 H 10.725976 6.422667 -8.852301 0
M  V30 30 H 10.487041 6.471220 -11.284095 0
M  V30 31 H 9.866264 7.910504 -10.516447 0
M  V30 32 H 9.083576 8.177634 -12.646766 0
M  V30 33 H 7.684503 7.564549 -11.859455 0
M  V30 34 H 9.668478 6.011143 -13.575562 0
M  V30 35 H 8.086048 6.510795 -14.099925 0
M  V30 36 H 10.375852 4.135659 -13.917983 0
M  V30 37 H 10.818474 2.076134 -15.136614 0
M  V30 38 H 8.478233 -0.546897 -15.518941 0
M  V30 39 H 4.140428 2.170484 -12.889536 0
M  V30 40 H 5.520517 1.655852 -11.934943 0
M  V30 41 H 6.629396 -0.214236 -15.157777 0
M  V30 42 H 6.684955 5.537567 -11.315125 0
M  V30 43 H 6.915225 3.822418 -11.405455 0
M  V30 44 H 9.396075 4.225353 -10.674359 0
M  V30 45 H 8.086882 4.265055 -9.519384 0
M  V30 46 H 8.015162 6.639306 -9.707124 0
M  V30 END ATOM
M  V30 BEGIN BOND
M  V30 1 1 2 1
M  V30 2 1 3 2
M  V30 3 1 4 3
M  V30 4 1 5 4
M  V30 5 1 6 5
M  V30 6 1 7 6
M  V30 7 1 8 7
M  V30 8 1 9 8
M  V30 9 1 10 9
M  V30 10 2 11 10
M  V30 11 1 12 11
M  V30 12 1 13 12
M  V30 13 2 14 12
M  V30 14 2 15 9
M  V30 15 1 15 14
M  V30 16 1 16 15
M  V30 17 1 17 16
M  V30 18 1 18 17
M  V30 19 2 19 18
M  V30 20 1 20 14
M  V30 21 1 20 18
M  V30 22 1 21 8
M  V30 23 1 22 4
M  V30 24 1 22 21
M  V30 25 1 23 1
M  V30 26 1 24 1
M  V30 27 1 25 1
M  V30 28 1 26 2
M  V30 29 1 27 2
M  V30 30 1 28 3
M  V30 31 1 29 3
M  V30 32 1 30 5
M  V30 33 1 31 5
M  V30 34 1 32 6
M  V30 35 1 33 6
M  V30 36 1 34 7
M  V30 37 1 35 7
M  V30 38 1 36 10
M  V30 39 1 37 11
M  V30 40 1 38 13
M  V30 41 1 39 17
M  V30 42 1 40 17
M  V30 43 1 41 20
M  V30 44 1 42 21
M  V30 45 1 43 21
M  V30 46 1 44 22
M  V30 47 1 45 22
M  V30 48 1 4 46 CFG=1
M  V30 END BOND
M  V30 END CTAB
M  END
>  <b_m_subgroup_collapsed>  (1941) 
0

>  <r_i_docking_score>  (1941) 
-6.4449227040831403

>  <s_m_subgroup_title>  (1941) 
glide-dock_SP_D22_pv

>  <s_m_subgroupid>  (1941) 
glide-dock_SP_D22_pv

>  <Molecule ChEMBL ID>  (1941) 
CHEMBL4065797

>  <Standard Type>  (1941) 
Ki

>  <Standard Value>  (1941) 
56.0

>  <label>  (1941) 
1

$$$$
CHEMBL4065797
     RDKit          3D

  0  0  0  0  0  0  0  0  0  0999 V3000
M  V30 BEGIN CTAB
M  V30 COUNTS 46 48 0 0 1
M  V30 BEGIN ATOM
M  V30 1 C 10.151032 8.696175 -6.485578 0
M  V30 2 C 9.333023 8.395738 -7.750274 0
M  V30 3 C 9.451465 6.910799 -8.149396 0
M  V30 4 N 8.886049 6.572220 -9.485870 0 CFG=2 CHG=1
M  V30 5 C 8.638709 5.108131 -9.583763 0
M  V30 6 C 7.796395 4.703552 -10.805817 0
M  V30 7 C 8.614640 4.431947 -12.069568 0
M  V30 8 N 9.397793 5.571674 -12.534945 0
M  V30 9 C 10.455589 5.371978 -13.463685 0
M  V30 10 C 11.476204 6.349898 -13.571392 0
M  V30 11 C 12.492896 6.249805 -14.531904 0
M  V30 12 C 12.579256 5.127695 -15.368917 0
M  V30 13 O 13.614692 5.036156 -16.254831 0
M  V30 14 C 11.607155 4.116146 -15.257270 0
M  V30 15 C 10.549506 4.226963 -14.316143 0
M  V30 16 O 9.595359 3.230028 -14.306104 0
M  V30 17 C 10.024218 1.910905 -14.664279 0
M  V30 18 C 10.884719 1.915685 -15.933096 0
M  V30 19 O 10.890745 0.952999 -16.697624 0
M  V30 20 N 11.643473 2.999281 -16.126701 0
M  V30 21 C 9.111197 6.904965 -11.990886 0
M  V30 22 C 9.724897 7.102785 -10.595378 0
M  V30 23 H 10.085965 9.745743 -6.199453 0
M  V30 24 H 9.808713 8.089782 -5.646929 0
M  V30 25 H 11.208588 8.474005 -6.642263 0
M  V30 26 H 9.685509 9.061108 -8.536173 0
M  V30 27 H 8.283202 8.646385 -7.579012 0
M  V30 28 H 8.942660 6.332657 -7.375030 0
M  V30 29 H 10.495416 6.592124 -8.120893 0
M  V30 30 H 8.086556 4.794322 -8.697542 0
M  V30 31 H 9.580865 4.559310 -9.564153 0
M  V30 32 H 6.998425 5.420222 -11.005663 0
M  V30 33 H 7.286494 3.772502 -10.573092 0
M  V30 34 H 7.927486 4.128707 -12.860462 0
M  V30 35 H 9.289376 3.594910 -11.878535 0
M  V30 36 H 11.499187 7.218165 -12.933825 0
M  V30 37 H 13.246095 7.021457 -14.596025 0
M  V30 38 H 13.858548 4.148914 -16.479696 0
M  V30 39 H 9.149413 1.276091 -14.810414 0
M  V30 40 H 10.605787 1.484463 -13.847215 0
M  V30 41 H 12.247107 3.027859 -16.933811 0
M  V30 42 H 9.480457 7.686272 -12.646852 0
M  V30 43 H 8.036045 7.087396 -11.967477 0
M  V30 44 H 9.844188 8.174493 -10.467160 0
M  V30 45 H 10.728284 6.678553 -10.549940 0
M  V30 46 H 7.968995 7.017616 -9.556180 0
M  V30 END ATOM
M  V30 BEGIN BOND
M  V30 1 1 2 1
M  V30 2 1 3 2
M  V30 3 1 4 3
M  V30 4 1 5 4
M  V30 5 1 6 5
M  V30 6 1 7 6
M  V30 7 1 8 7
M  V30 8 1 9 8
M  V30 9 1 10 9
M  V30 10 2 11 10
M  V30 11 1 12 11
M  V30 12 1 13 12
M  V30 13 2 14 12
M  V30 14 2 15 9
M  V30 15 1 15 14
M  V30 16 1 16 15
M  V30 17 1 17 16
M  V30 18 1 18 17
M  V30 19 2 19 18
M  V30 20 1 20 14
M  V30 21 1 20 18
M  V30 22 1 21 8
M  V30 23 1 22 4
M  V30 24 1 22 21
M  V30 25 1 23 1
M  V30 26 1 24 1
M  V30 27 1 25 1
M  V30 28 1 26 2
M  V30 29 1 27 2
M  V30 30 1 28 3
M  V30 31 1 29 3
M  V30 32 1 30 5
M  V30 33 1 31 5
M  V30 34 1 32 6
M  V30 35 1 33 6
M  V30 36 1 34 7
M  V30 37 1 35 7
M  V30 38 1 36 10
M  V30 39 1 37 11
M  V30 40 1 38 13
M  V30 41 1 39 17
M  V30 42 1 40 17
M  V30 43 1 41 20
M  V30 44 1 42 21
M  V30 45 1 43 21
M  V30 46 1 44 22
M  V30 47 1 45 22
M  V30 48 1 4 46 CFG=1
M  V30 END BOND
M  V30 END CTAB
M  END
>  <b_m_subgroup_collapsed>  (1942) 
0

>  <r_i_docking_score>  (1942) 
-6.4432168067587297

>  <s_m_subgroup_title>  (1942) 
glide-dock_SP_D22_pv

>  <s_m_subgroupid>  (1942) 
glide-dock_SP_D22_pv

>  <Molecule ChEMBL ID>  (1942) 
CHEMBL4065797

>  <Standard Type>  (1942) 
Ki

>  <Standard Value>  (1942) 
56.0

>  <label>  (1942) 
1

$$$$
CHEMBL4444268
     RDKit          3D

  0  0  0  0  0  0  0  0  0  0999 V3000
M  V30 BEGIN CTAB
M  V30 COUNTS 30 32 0 0 1
M  V30 BEGIN ATOM
M  V30 1 C 11.443964 6.775777 -12.641966 0
M  V30 2 N 11.285741 5.887015 -13.778125 0
M  V30 3 C 12.238025 5.622082 -14.683487 0
M  V30 4 N 11.862540 4.812253 -15.660710 0
M  V30 5 C 10.535084 4.525875 -15.358773 0
M  V30 6 C 10.161393 5.155365 -14.189037 0
M  V30 7 C 8.876602 5.153387 -13.473810 0
M  V30 8 C 8.391852 6.144708 -12.648358 0
M  V30 9 N 7.169104 5.785784 -12.131072 0
M  V30 10 C 6.787171 4.563160 -12.620307 0
M  V30 11 C 5.640357 3.797372 -12.389039 0
M  V30 12 C 5.502085 2.545844 -13.006550 0
M  V30 13 C 6.520450 2.049482 -13.846845 0
M  V30 14 C 6.374789 0.652170 -14.397417 0
M  V30 15 N 7.496868 0.008938 -14.717410 0
M  V30 16 O 5.276694 0.104320 -14.461308 0
M  V30 17 C 7.666070 2.858902 -14.100718 0
M  V30 18 F 8.650704 2.389334 -14.902004 0
M  V30 19 C 7.839904 4.130687 -13.481448 0
M  V30 20 H 10.888475 6.399692 -11.783236 0
M  V30 21 H 12.495420 6.850287 -12.367779 0
M  V30 22 H 11.082066 7.771416 -12.900957 0
M  V30 23 H 13.231388 6.044510 -14.633098 0
M  V30 24 H 9.959141 3.900228 -16.021225 0
M  V30 25 H 8.812400 7.099053 -12.370957 0
M  V30 26 H 6.667346 6.373937 -11.463510 0
M  V30 27 H 4.886892 4.172029 -11.713137 0
M  V30 28 H 4.620544 1.953612 -12.801730 0
M  V30 29 H 8.376988 0.501628 -14.655856 0
M  V30 30 H 7.458097 -0.947834 -15.049159 0
M  V30 END ATOM
M  V30 BEGIN BOND
M  V30 1 1 2 1
M  V30 2 1 3 2
M  V30 3 2 4 3
M  V30 4 1 5 4
M  V30 5 1 6 2
M  V30 6 2 6 5
M  V30 7 1 7 6
M  V30 8 2 8 7
M  V30 9 1 9 8
M  V30 10 1 10 9
M  V30 11 1 11 10
M  V30 12 2 12 11
M  V30 13 1 13 12
M  V30 14 1 14 13
M  V30 15 1 15 14
M  V30 16 2 16 14
M  V30 17 2 17 13
M  V30 18 1 18 17
M  V30 19 1 19 7
M  V30 20 2 19 10
M  V30 21 1 19 17
M  V30 22 1 20 1
M  V30 23 1 21 1
M  V30 24 1 22 1
M  V30 25 1 23 3
M  V30 26 1 24 5
M  V30 27 1 25 8
M  V30 28 1 26 9
M  V30 29 1 27 11
M  V30 30 1 28 12
M  V30 31 1 29 15
M  V30 32 1 30 15
M  V30 END BOND
M  V30 END CTAB
M  END
>  <b_m_subgroup_collapsed>  (1943) 
0

>  <r_i_docking_score>  (1943) 
-6.44318136206308

>  <s_m_subgroup_title>  (1943) 
glide-dock_SP_D22_pv

>  <s_m_subgroupid>  (1943) 
glide-dock_SP_D22_pv

>  <Molecule ChEMBL ID>  (1943) 
CHEMBL4444268

>  <Standard Type>  (1943) 
Ki

>  <Standard Value>  (1943) 
10000.0

>  <label>  (1943) 
0

$$$$
CHEMBL63321
     RDKit          3D

  0  0  0  0  0  0  0  0  0  0999 V3000
M  V30 BEGIN CTAB
M  V30 COUNTS 39 41 0 0 1
M  V30 BEGIN ATOM
M  V30 1 C 9.063818 4.974723 -9.856749 0
M  V30 2 N 8.598271 4.796169 -11.251836 0 CFG=1 CHG=1
M  V30 3 C 7.425597 5.643144 -11.575580 0
M  V30 4 C 6.476830 5.026925 -12.642536 0
M  V30 5 C 6.965945 3.761511 -13.351357 0
M  V30 6 C 6.085683 2.660496 -13.451413 0
M  V30 7 C 6.494305 1.460290 -14.068109 0
M  V30 8 Cl 5.402562 0.124340 -14.138475 0
M  V30 9 C 7.799191 1.349478 -14.593534 0
M  V30 10 O 8.229387 0.186743 -15.171479 0
M  V30 11 C 8.683362 2.443234 -14.493979 0
M  V30 12 C 8.279703 3.653521 -13.881129 0
M  V30 13 C 9.254539 4.819520 -13.707563 0 CFG=2
M  V30 14 C 10.399843 4.871310 -14.730228 0
M  V30 15 C 10.085634 4.972204 -16.103554 0
M  V30 16 C 11.102127 5.060034 -17.074799 0
M  V30 17 C 12.451570 5.058738 -16.681526 0
M  V30 18 C 12.779697 4.964370 -15.318081 0
M  V30 19 C 11.764135 4.864495 -14.347212 0
M  V30 20 C 9.712322 4.894853 -12.231426 0
M  V30 21 H 9.395350 6.000863 -9.684541 0
M  V30 22 H 9.893050 4.302543 -9.631368 0
M  V30 23 H 8.263301 4.752799 -9.147870 0
M  V30 24 H 6.860292 5.772009 -10.652310 0
M  V30 25 H 7.749227 6.644031 -11.864676 0
M  V30 26 H 5.522402 4.813277 -12.160068 0
M  V30 27 H 6.247993 5.761993 -13.417974 0
M  V30 28 H 5.085821 2.727375 -13.047580 0
M  V30 29 H 7.577468 -0.501977 -15.190182 0
M  V30 30 H 9.687849 2.331288 -14.873778 0
M  V30 31 H 8.695634 5.729171 -13.930011 0
M  V30 32 H 9.056917 4.990583 -16.425993 0
M  V30 33 H 10.844462 5.137360 -18.119942 0
M  V30 34 H 13.229652 5.132880 -17.426497 0
M  V30 35 H 13.816290 4.971847 -15.016992 0
M  V30 36 H 12.062600 4.796837 -13.314487 0
M  V30 37 H 10.262068 5.821429 -12.063601 0
M  V30 38 H 10.387397 4.066601 -12.016764 0
M  V30 39 H 8.256712 3.847866 -11.310800 0
M  V30 END ATOM
M  V30 BEGIN BOND
M  V30 1 1 2 1
M  V30 2 1 3 2
M  V30 3 1 4 3
M  V30 4 1 5 4
M  V30 5 1 6 5
M  V30 6 2 7 6
M  V30 7 1 8 7
M  V30 8 1 9 7
M  V30 9 1 10 9
M  V30 10 2 11 9
M  V30 11 2 12 5
M  V30 12 1 12 11
M  V30 13 1 13 12
M  V30 14 1 14 13
M  V30 15 2 15 14
M  V30 16 1 16 15
M  V30 17 2 17 16
M  V30 18 1 18 17
M  V30 19 1 19 14
M  V30 20 2 19 18
M  V30 21 1 20 2
M  V30 22 1 20 13
M  V30 23 1 21 1
M  V30 24 1 22 1
M  V30 25 1 23 1
M  V30 26 1 24 3
M  V30 27 1 25 3
M  V30 28 1 26 4
M  V30 29 1 27 4
M  V30 30 1 28 6
M  V30 31 1 29 10
M  V30 32 1 30 11
M  V30 33 1 13 31 CFG=3
M  V30 34 1 32 15
M  V30 35 1 33 16
M  V30 36 1 34 17
M  V30 37 1 35 18
M  V30 38 1 36 19
M  V30 39 1 37 20
M  V30 40 1 38 20
M  V30 41 1 2 39 CFG=1
M  V30 END BOND
M  V30 END CTAB
M  END
>  <b_m_subgroup_collapsed>  (1944) 
0

>  <r_i_docking_score>  (1944) 
-6.4429138152199199

>  <s_m_subgroup_title>  (1944) 
glide-dock_SP_D22_pv

>  <s_m_subgroupid>  (1944) 
glide-dock_SP_D22_pv

>  <Molecule ChEMBL ID>  (1944) 
CHEMBL63321

>  <Standard Type>  (1944) 
Ki

>  <Standard Value>  (1944) 
20.0

>  <label>  (1944) 
1

$$$$
CHEMBL3287393
     RDKit          3D

  0  0  0  0  0  0  0  0  0  0999 V3000
M  V30 BEGIN CTAB
M  V30 COUNTS 53 56 0 0 1
M  V30 BEGIN ATOM
M  V30 1 Cl 10.084227 0.236484 -15.699614 0
M  V30 2 C 8.766218 1.109015 -14.999393 0
M  V30 3 C 7.499141 0.500874 -14.953880 0
M  V30 4 C 6.412705 1.182079 -14.381687 0
M  V30 5 C 6.586018 2.472280 -13.847667 0
M  V30 6 C 7.862552 3.085372 -13.847614 0
M  V30 7 N 8.079948 4.302342 -13.166991 0
M  V30 8 C 6.978735 5.230050 -12.951572 0
M  V30 9 C 7.539252 6.615537 -12.569087 0
M  V30 10 N 8.486217 6.573127 -11.419037 0 CHG=1
M  V30 11 C 9.147053 7.889163 -11.188470 0
M  V30 12 C 9.738714 8.071575 -9.769009 0
M  V30 13 C 11.205139 7.610736 -9.601117 0
M  V30 14 C 11.858768 8.080817 -8.296024 0
M  V30 15 O 11.140121 7.583520 -7.163890 0
M  V30 16 C 11.145951 8.409421 -6.062750 0
M  V30 17 C 10.824789 9.742790 -6.125441 0
M  V30 18 C 10.896522 10.555347 -4.980083 0
M  V30 19 C 11.345992 10.044198 -3.788418 0
M  V30 20 C 11.676650 8.676659 -3.700654 0
M  V30 21 C 12.086973 7.848965 -2.698936 0
M  V30 22 C 12.084763 6.572372 -3.299327 0
M  V30 23 N 11.743951 6.572559 -4.570019 0
M  V30 24 N 11.512498 7.884787 -4.855982 0
M  V30 25 C 9.457206 5.449141 -11.479704 0
M  V30 26 C 8.832210 4.131259 -11.933453 0
M  V30 27 C 8.951353 2.402692 -14.461199 0
M  V30 28 Cl 10.519835 3.139086 -14.555349 0
M  V30 29 H 7.360462 -0.492723 -15.356596 0
M  V30 30 H 5.441653 0.710091 -14.348145 0
M  V30 31 H 5.736711 2.953206 -13.386319 0
M  V30 32 H 6.339999 4.861591 -12.146591 0
M  V30 33 H 6.351991 5.287447 -13.840779 0
M  V30 34 H 6.718972 7.281213 -12.295395 0
M  V30 35 H 8.044886 7.039596 -13.435375 0
M  V30 36 H 8.396586 8.668639 -11.325979 0
M  V30 37 H 9.900563 8.078501 -11.954441 0
M  V30 38 H 9.095320 7.600804 -9.023025 0
M  V30 39 H 9.708360 9.138317 -9.540742 0
M  V30 40 H 11.800448 7.985739 -10.434391 0
M  V30 41 H 11.285419 6.530982 -9.632609 0
M  V30 42 H 11.949557 9.165686 -8.328645 0
M  V30 43 H 12.881948 7.707372 -8.243988 0
M  V30 44 H 10.482024 10.169407 -7.052657 0
M  V30 45 H 10.640244 11.600765 -5.046589 0
M  V30 46 H 11.444714 10.664327 -2.905404 0
M  V30 47 H 12.305670 8.101965 -1.672825 0
M  V30 48 H 12.333954 5.642139 -2.815132 0
M  V30 49 H 10.280030 5.708141 -12.148832 0
M  V30 50 H 9.867067 5.273469 -10.489588 0
M  V30 51 H 8.142336 3.775964 -11.167505 0
M  V30 52 H 9.611084 3.372978 -12.023074 0
M  V30 53 H 7.875066 6.431864 -10.621135 0
M  V30 END ATOM
M  V30 BEGIN BOND
M  V30 1 1 2 1
M  V30 2 1 3 2
M  V30 3 2 4 3
M  V30 4 1 5 4
M  V30 5 2 6 5
M  V30 6 1 7 6
M  V30 7 1 8 7
M  V30 8 1 9 8
M  V30 9 1 10 9
M  V30 10 1 11 10
M  V30 11 1 12 11
M  V30 12 1 13 12
M  V30 13 1 14 13
M  V30 14 1 15 14
M  V30 15 1 16 15
M  V30 16 2 17 16
M  V30 17 1 18 17
M  V30 18 2 19 18
M  V30 19 1 20 19
M  V30 20 2 21 20
M  V30 21 1 22 21
M  V30 22 2 23 22
M  V30 23 1 24 16
M  V30 24 1 24 20
M  V30 25 1 24 23
M  V30 26 1 25 10
M  V30 27 1 26 7
M  V30 28 1 26 25
M  V30 29 2 27 2
M  V30 30 1 27 6
M  V30 31 1 28 27
M  V30 32 1 29 3
M  V30 33 1 30 4
M  V30 34 1 31 5
M  V30 35 1 32 8
M  V30 36 1 33 8
M  V30 37 1 34 9
M  V30 38 1 35 9
M  V30 39 1 36 11
M  V30 40 1 37 11
M  V30 41 1 38 12
M  V30 42 1 39 12
M  V30 43 1 40 13
M  V30 44 1 41 13
M  V30 45 1 42 14
M  V30 46 1 43 14
M  V30 47 1 44 17
M  V30 48 1 45 18
M  V30 49 1 46 19
M  V30 50 1 47 21
M  V30 51 1 48 22
M  V30 52 1 49 25
M  V30 53 1 50 25
M  V30 54 1 51 26
M  V30 55 1 52 26
M  V30 56 1 53 10
M  V30 END BOND
M  V30 END CTAB
M  END
>  <b_m_subgroup_collapsed>  (1945) 
0

>  <r_i_docking_score>  (1945) 
-6.4408209982100102

>  <s_m_subgroup_title>  (1945) 
glide-dock_SP_D22_pv

>  <s_m_subgroupid>  (1945) 
glide-dock_SP_D22_pv

>  <Molecule ChEMBL ID>  (1945) 
CHEMBL3287393

>  <Standard Type>  (1945) 
Ki

>  <Standard Value>  (1945) 
16.0

>  <label>  (1945) 
1

$$$$
CHEMBL1632223
     RDKit          3D

  0  0  0  0  0  0  0  0  0  0999 V3000
M  V30 BEGIN CTAB
M  V30 COUNTS 67 71 0 0 1
M  V30 BEGIN ATOM
M  V30 1 C 3.402361 -0.772208 -14.515471 0
M  V30 2 C 4.741931 -0.312120 -15.044354 0
M  V30 3 C 5.627790 0.431157 -14.243070 0
M  V30 4 C 6.817915 0.896224 -14.829370 0
M  V30 5 C 7.095373 0.595782 -16.184956 0
M  V30 6 C 8.254457 1.090675 -16.843071 0
M  V30 7 N 9.161618 1.941908 -16.193880 0
M  V30 8 C 10.086267 1.429783 -15.199449 0
M  V30 9 C 10.231026 2.443382 -14.046176 0
M  V30 10 N 10.410286 3.851039 -14.508908 0 CHG=1
M  V30 11 C 10.468006 4.847310 -13.404006 0
M  V30 12 C 9.176981 4.980624 -12.555522 0
M  V30 13 C 9.254491 6.163571 -11.608775 0
M  V30 14 C 8.889040 7.445051 -12.062138 0
M  V30 15 C 9.027868 8.570627 -11.235417 0
M  V30 16 C 9.495131 8.416468 -9.919243 0
M  V30 17 C 9.812242 7.126195 -9.430016 0
M  V30 18 N 10.201173 6.878231 -8.092126 0
M  V30 19 C 10.730087 7.737218 -7.210419 0
M  V30 20 O 11.130524 8.869130 -7.481250 0
M  V30 21 N 10.822467 7.164525 -6.002325 0
M  V30 22 C 11.288166 7.734611 -4.795668 0
M  V30 23 C 11.714275 6.835346 -3.800081 0
M  V30 24 C 12.168282 7.308206 -2.557865 0
M  V30 25 C 12.180640 8.688492 -2.293685 0
M  V30 26 C 11.729502 9.591657 -3.272567 0
M  V30 27 C 11.289353 9.124864 -4.525318 0
M  V30 28 C 9.686747 6.005637 -10.277972 0
M  V30 29 C 9.483253 4.265374 -15.595398 0
M  V30 30 C 9.445081 3.251723 -16.746284 0
M  V30 31 C 8.471043 0.772442 -18.200153 0
M  V30 32 C 7.554083 -0.029791 -18.898392 0
M  V30 33 C 6.401002 -0.501440 -18.248405 0
M  V30 34 C 6.148066 -0.196100 -16.895979 0
M  V30 35 N 5.001562 -0.628140 -16.326874 0
M  V30 36 H 3.319496 -0.632172 -13.439384 0
M  V30 37 H 2.592577 -0.224116 -14.997726 0
M  V30 38 H 3.277147 -1.827823 -14.738644 0
M  V30 39 H 5.389604 0.671814 -13.217601 0
M  V30 40 H 7.486364 1.498360 -14.238147 0
M  V30 41 H 11.052126 1.265708 -15.680464 0
M  V30 42 H 9.756129 0.462819 -14.818281 0
M  V30 43 H 11.092227 2.159526 -13.446620 0
M  V30 44 H 9.351614 2.373843 -13.408849 0
M  V30 45 H 10.722923 5.815534 -13.837356 0
M  V30 46 H 11.292603 4.581930 -12.748222 0
M  V30 47 H 9.001467 4.076856 -11.971176 0
M  V30 48 H 8.293036 5.121918 -13.175208 0
M  V30 49 H 8.485178 7.574925 -13.046844 0
M  V30 50 H 8.724317 9.540146 -11.599130 0
M  V30 51 H 9.549730 9.290586 -9.288437 0
M  V30 52 H 10.020278 5.942391 -7.764520 0
M  V30 53 H 10.553021 6.193962 -5.938849 0
M  V30 54 H 11.703052 5.772299 -3.987734 0
M  V30 55 H 12.500015 6.603456 -1.811134 0
M  V30 56 H 12.518327 9.057086 -1.335897 0
M  V30 57 H 11.706195 10.646409 -3.047408 0
M  V30 58 H 10.934930 9.842681 -5.250103 0
M  V30 59 H 9.933079 5.021155 -9.908471 0
M  V30 60 H 8.486927 4.347021 -15.171979 0
M  V30 61 H 9.758137 5.250947 -15.973277 0
M  V30 62 H 10.402567 3.223591 -17.269962 0
M  V30 63 H 8.686740 3.537762 -17.475981 0
M  V30 64 H 9.346296 1.144354 -18.712364 0
M  V30 65 H 7.727780 -0.273916 -19.937180 0
M  V30 66 H 5.687390 -1.103048 -18.794634 0
M  V30 67 H 11.323858 3.866487 -14.939027 0
M  V30 END ATOM
M  V30 BEGIN BOND
M  V30 1 1 2 1
M  V30 2 1 3 2
M  V30 3 2 4 3
M  V30 4 1 5 4
M  V30 5 2 6 5
M  V30 6 1 7 6
M  V30 7 1 8 7
M  V30 8 1 9 8
M  V30 9 1 10 9
M  V30 10 1 11 10
M  V30 11 1 12 11
M  V30 12 1 13 12
M  V30 13 1 14 13
M  V30 14 2 15 14
M  V30 15 1 16 15
M  V30 16 2 17 16
M  V30 17 1 18 17
M  V30 18 1 19 18
M  V30 19 2 20 19
M  V30 20 1 21 19
M  V30 21 1 22 21
M  V30 22 2 23 22
M  V30 23 1 24 23
M  V30 24 2 25 24
M  V30 25 1 26 25
M  V30 26 1 27 22
M  V30 27 2 27 26
M  V30 28 2 28 13
M  V30 29 1 28 17
M  V30 30 1 29 10
M  V30 31 1 30 7
M  V30 32 1 30 29
M  V30 33 1 31 6
M  V30 34 2 32 31
M  V30 35 1 33 32
M  V30 36 1 34 5
M  V30 37 2 34 33
M  V30 38 2 35 2
M  V30 39 1 35 34
M  V30 40 1 36 1
M  V30 41 1 37 1
M  V30 42 1 38 1
M  V30 43 1 39 3
M  V30 44 1 40 4
M  V30 45 1 41 8
M  V30 46 1 42 8
M  V30 47 1 43 9
M  V30 48 1 44 9
M  V30 49 1 45 11
M  V30 50 1 46 11
M  V30 51 1 47 12
M  V30 52 1 48 12
M  V30 53 1 49 14
M  V30 54 1 50 15
M  V30 55 1 51 16
M  V30 56 1 52 18
M  V30 57 1 53 21
M  V30 58 1 54 23
M  V30 59 1 55 24
M  V30 60 1 56 25
M  V30 61 1 57 26
M  V30 62 1 58 27
M  V30 63 1 59 28
M  V30 64 1 60 29
M  V30 65 1 61 29
M  V30 66 1 62 30
M  V30 67 1 63 30
M  V30 68 1 64 31
M  V30 69 1 65 32
M  V30 70 1 66 33
M  V30 71 1 67 10
M  V30 END BOND
M  V30 END CTAB
M  END
>  <b_m_subgroup_collapsed>  (1946) 
0

>  <r_i_docking_score>  (1946) 
-6.4396779685531298

>  <s_m_subgroup_title>  (1946) 
glide-dock_SP_D22_pv

>  <s_m_subgroupid>  (1946) 
glide-dock_SP_D22_pv

>  <Molecule ChEMBL ID>  (1946) 
CHEMBL1632223

>  <Standard Type>  (1946) 
Ki

>  <Standard Value>  (1946) 
79.43

>  <label>  (1946) 
1

$$$$
CHEMBL716
     RDKit          3D

  0  0  0  0  0  0  0  0  0  0999 V3000
M  V30 BEGIN CTAB
M  V30 COUNTS 52 55 0 0 1
M  V30 BEGIN ATOM
M  V30 1 O 12.740331 8.972226 -2.094616 0
M  V30 2 C 11.799016 9.330043 -3.086965 0
M  V30 3 C 12.327296 9.019892 -4.494817 0
M  V30 4 O 11.382132 9.467448 -5.459698 0
M  V30 5 C 11.814530 9.323827 -6.807929 0
M  V30 6 C 11.564422 7.904968 -7.374487 0
M  V30 7 N 10.464773 7.784481 -8.337903 0
M  V30 8 C 10.159607 6.374960 -8.621511 0
M  V30 9 C 9.010089 6.195148 -9.637315 0
M  V30 10 N 9.294738 6.931558 -10.869733 0
M  V30 11 C 9.693160 6.326620 -12.063777 0
M  V30 12 N 10.875621 6.573381 -12.555775 0
M  V30 13 C 11.360391 6.170965 -13.807877 0
M  V30 14 C 12.086328 7.144521 -14.530796 0
M  V30 15 C 12.647159 6.852884 -15.787464 0
M  V30 16 C 12.505727 5.565820 -16.335125 0
M  V30 17 C 11.812110 4.575057 -15.617118 0
M  V30 18 C 11.251666 4.869661 -14.357706 0
M  V30 19 S 10.485906 3.569401 -13.473217 0
M  V30 20 C 8.874102 4.205099 -13.335906 0
M  V30 21 C 7.825971 3.413188 -13.846496 0
M  V30 22 C 6.492207 3.816449 -13.683191 0
M  V30 23 C 6.220815 5.036644 -13.046660 0
M  V30 24 C 7.272187 5.849264 -12.583029 0
M  V30 25 C 8.623458 5.444498 -12.692322 0
M  V30 26 C 9.579889 8.337388 -10.590054 0
M  V30 27 C 10.756927 8.456104 -9.606885 0
M  V30 28 H 13.287063 9.728555 -1.916261 0
M  V30 29 H 10.886126 8.768682 -2.907566 0
M  V30 30 H 11.553678 10.387357 -2.987134 0
M  V30 31 H 13.282891 9.522719 -4.646530 0
M  V30 32 H 12.488200 7.947718 -4.599528 0
M  V30 33 H 11.286030 10.075882 -7.388847 0
M  V30 34 H 12.870142 9.578672 -6.895686 0
M  V30 35 H 12.481304 7.550169 -7.846551 0
M  V30 36 H 11.387492 7.225555 -6.539874 0
M  V30 37 H 11.041753 5.880037 -9.013888 0
M  V30 38 H 9.900874 5.860854 -7.696197 0
M  V30 39 H 8.852972 5.136786 -9.845015 0
M  V30 40 H 8.085351 6.571861 -9.206276 0
M  V30 41 H 12.206172 8.140272 -14.124377 0
M  V30 42 H 13.185342 7.615732 -16.328903 0
M  V30 43 H 12.941836 5.333719 -17.295279 0
M  V30 44 H 11.723886 3.579508 -16.026882 0
M  V30 45 H 8.045584 2.471282 -14.327824 0
M  V30 46 H 5.684822 3.202208 -14.054889 0
M  V30 47 H 5.206170 5.373760 -12.933022 0
M  V30 48 H 7.019238 6.789669 -12.116355 0
M  V30 49 H 9.801934 8.871504 -11.513897 0
M  V30 50 H 8.687582 8.804783 -10.173557 0
M  V30 51 H 10.965134 9.514063 -9.445152 0
M  V30 52 H 11.654837 8.031710 -10.060232 0
M  V30 END ATOM
M  V30 BEGIN BOND
M  V30 1 1 2 1
M  V30 2 1 3 2
M  V30 3 1 4 3
M  V30 4 1 5 4
M  V30 5 1 6 5
M  V30 6 1 7 6
M  V30 7 1 8 7
M  V30 8 1 9 8
M  V30 9 1 10 9
M  V30 10 1 11 10
M  V30 11 2 12 11
M  V30 12 1 13 12
M  V30 13 2 14 13
M  V30 14 1 15 14
M  V30 15 2 16 15
M  V30 16 1 17 16
M  V30 17 1 18 13
M  V30 18 2 18 17
M  V30 19 1 19 18
M  V30 20 1 20 19
M  V30 21 2 21 20
M  V30 22 1 22 21
M  V30 23 2 23 22
M  V30 24 1 24 23
M  V30 25 1 25 11
M  V30 26 1 25 20
M  V30 27 2 25 24
M  V30 28 1 26 10
M  V30 29 1 27 7
M  V30 30 1 27 26
M  V30 31 1 28 1
M  V30 32 1 29 2
M  V30 33 1 30 2
M  V30 34 1 31 3
M  V30 35 1 32 3
M  V30 36 1 33 5
M  V30 37 1 34 5
M  V30 38 1 35 6
M  V30 39 1 36 6
M  V30 40 1 37 8
M  V30 41 1 38 8
M  V30 42 1 39 9
M  V30 43 1 40 9
M  V30 44 1 41 14
M  V30 45 1 42 15
M  V30 46 1 43 16
M  V30 47 1 44 17
M  V30 48 1 45 21
M  V30 49 1 46 22
M  V30 50 1 47 23
M  V30 51 1 48 24
M  V30 52 1 49 26
M  V30 53 1 50 26
M  V30 54 1 51 27
M  V30 55 1 52 27
M  V30 END BOND
M  V30 END CTAB
M  END
>  <b_m_subgroup_collapsed>  (1947) 
0

>  <r_i_docking_score>  (1947) 
-6.4393584814387701

>  <s_m_subgroup_title>  (1947) 
glide-dock_SP_D22_pv

>  <s_m_subgroupid>  (1947) 
glide-dock_SP_D22_pv

>  <Molecule ChEMBL ID>  (1947) 
CHEMBL716

>  <Standard Type>  (1947) 
Ki

>  <Standard Value>  (1947) 
63.1

>  <label>  (1947) 
1

$$$$
CHEMBL317535
     RDKit          3D

  0  0  0  0  0  0  0  0  0  0999 V3000
M  V30 BEGIN CTAB
M  V30 COUNTS 40 41 0 0 1
M  V30 BEGIN ATOM
M  V30 1 C 11.747730 5.763849 -14.827403 0
M  V30 2 C 12.326685 6.986513 -14.111820 0
M  V30 3 O 11.900414 6.971579 -12.758363 0
M  V30 4 C 12.485931 7.772353 -11.860312 0
M  V30 5 O 13.408745 8.549862 -12.125710 0
M  V30 6 C 11.883278 7.732109 -10.524875 0
M  V30 7 N 12.406587 8.571014 -9.551994 0
M  V30 8 C 11.760868 8.396743 -8.346412 0
M  V30 9 C 11.927368 8.985373 -7.079803 0
M  V30 10 C 11.085922 8.598412 -6.021686 0
M  V30 11 C 10.095845 7.622839 -6.244151 0
M  V30 12 C 9.940298 7.034726 -7.510292 0
M  V30 13 C 10.766929 7.408544 -8.593278 0
M  V30 14 C 10.847189 7.010138 -9.971292 0
M  V30 15 C 9.940736 6.006648 -10.617987 0
M  V30 16 C 8.503104 6.535380 -10.677147 0
M  V30 17 N 7.584224 5.703911 -11.479850 0 CHG=1
M  V30 18 C 7.698293 5.924698 -12.935028 0
M  V30 19 C 7.605751 4.274930 -11.115418 0
M  V30 20 H 12.057406 5.744961 -15.872160 0
M  V30 21 H 12.089931 4.839007 -14.361566 0
M  V30 22 H 10.657946 5.771760 -14.802671 0
M  V30 23 H 11.984870 7.904212 -14.591295 0
M  V30 24 H 13.414839 6.971631 -14.181084 0
M  V30 25 H 13.144914 9.245053 -9.760382 0
M  V30 26 H 12.696174 9.727482 -6.919191 0
M  V30 27 H 11.201482 9.044059 -5.044275 0
M  V30 28 H 9.441504 7.312668 -5.446839 0
M  V30 29 H 9.170372 6.290646 -7.649885 0
M  V30 30 H 10.267211 5.728187 -11.613994 0
M  V30 31 H 9.971977 5.082669 -10.039885 0
M  V30 32 H 8.087034 6.572314 -9.668666 0
M  V30 33 H 8.486578 7.557940 -11.057755 0
M  V30 34 H 8.646128 5.551422 -13.323091 0
M  V30 35 H 6.890316 5.402393 -13.447000 0
M  V30 36 H 7.629544 6.986851 -13.171584 0
M  V30 37 H 8.460194 3.772854 -11.571073 0
M  V30 38 H 7.685975 4.170763 -10.033233 0
M  V30 39 H 6.694282 3.776711 -11.447370 0
M  V30 40 H 6.676488 6.066133 -11.203300 0
M  V30 END ATOM
M  V30 BEGIN BOND
M  V30 1 1 2 1
M  V30 2 1 3 2
M  V30 3 1 4 3
M  V30 4 2 5 4
M  V30 5 1 6 4
M  V30 6 1 7 6
M  V30 7 1 8 7
M  V30 8 2 9 8
M  V30 9 1 10 9
M  V30 10 2 11 10
M  V30 11 1 12 11
M  V30 12 1 13 8
M  V30 13 2 13 12
M  V30 14 2 14 6
M  V30 15 1 14 13
M  V30 16 1 15 14
M  V30 17 1 16 15
M  V30 18 1 17 16
M  V30 19 1 18 17
M  V30 20 1 19 17
M  V30 21 1 20 1
M  V30 22 1 21 1
M  V30 23 1 22 1
M  V30 24 1 23 2
M  V30 25 1 24 2
M  V30 26 1 25 7
M  V30 27 1 26 9
M  V30 28 1 27 10
M  V30 29 1 28 11
M  V30 30 1 29 12
M  V30 31 1 30 15
M  V30 32 1 31 15
M  V30 33 1 32 16
M  V30 34 1 33 16
M  V30 35 1 34 18
M  V30 36 1 35 18
M  V30 37 1 36 18
M  V30 38 1 37 19
M  V30 39 1 38 19
M  V30 40 1 39 19
M  V30 41 1 40 17
M  V30 END BOND
M  V30 END CTAB
M  END
>  <b_m_subgroup_collapsed>  (1948) 
0

>  <r_i_docking_score>  (1948) 
-6.4385472605445599

>  <s_m_subgroup_title>  (1948) 
glide-dock_SP_D22_pv

>  <s_m_subgroupid>  (1948) 
glide-dock_SP_D22_pv

>  <Molecule ChEMBL ID>  (1948) 
CHEMBL317535

>  <Standard Type>  (1948) 
Ki

>  <Standard Value>  (1948) 
59.0

>  <label>  (1948) 
1

$$$$
CHEMBL204098
     RDKit          3D

  0  0  0  0  0  0  0  0  0  0999 V3000
M  V30 BEGIN CTAB
M  V30 COUNTS 44 46 0 0 1
M  V30 BEGIN ATOM
M  V30 1 C 9.954123 5.198429 -16.974857 0
M  V30 2 N 10.255364 3.747022 -16.999823 0 CFG=1 CHG=1
M  V30 3 C 11.623574 3.356651 -17.452040 0
M  V30 4 C 12.824243 3.779872 -16.573881 0
M  V30 5 C 12.965742 5.281599 -16.373856 0
M  V30 6 C 13.344067 6.047517 -17.499434 0
M  V30 7 C 13.452844 7.445988 -17.418705 0
M  V30 8 C 13.195934 8.092790 -16.200569 0
M  V30 9 C 12.839985 7.340116 -15.066243 0
M  V30 10 C 12.714067 5.933438 -15.132819 0
M  V30 11 C 12.329634 5.192710 -13.850006 0
M  V30 12 C 10.861973 5.309273 -13.445524 0
M  V30 13 C 10.501528 6.418913 -12.646843 0
M  V30 14 C 9.188851 6.587103 -12.172550 0
M  V30 15 N 8.886050 7.696486 -11.384177 0
M  V30 16 C 8.202772 5.638686 -12.504289 0
M  V30 17 O 6.922094 5.772285 -12.045829 0
M  V30 18 C 8.548327 4.527652 -13.298307 0
M  V30 19 C 9.872316 4.336843 -13.760161 0
M  V30 20 C 10.179311 3.035551 -14.495033 0
M  V30 21 C 9.624491 2.916297 -15.933763 0
M  V30 22 H 10.283462 5.688962 -16.065775 0
M  V30 23 H 8.886002 5.367568 -17.054020 0
M  V30 24 H 10.416762 5.708051 -17.820602 0
M  V30 25 H 11.647576 2.273890 -17.580992 0
M  V30 26 H 11.763338 3.766717 -18.453054 0
M  V30 27 H 12.858062 3.225037 -15.648481 0
M  V30 28 H 13.731539 3.453062 -17.083303 0
M  V30 29 H 13.542242 5.562490 -18.443970 0
M  V30 30 H 13.731893 8.023345 -18.288504 0
M  V30 31 H 13.280572 9.167976 -16.135544 0
M  V30 32 H 12.662104 7.856082 -14.134417 0
M  V30 33 H 12.693252 4.172833 -13.807782 0
M  V30 34 H 12.885927 5.668961 -13.048070 0
M  V30 35 H 11.248672 7.153007 -12.383611 0
M  V30 36 H 7.974446 7.772526 -10.916236 0
M  V30 37 H 9.617785 8.259058 -10.978574 0
M  V30 38 H 6.818392 6.459128 -11.390143 0
M  V30 39 H 7.789219 3.791392 -13.519061 0
M  V30 40 H 11.224881 2.762189 -14.439288 0
M  V30 41 H 9.699325 2.251848 -13.906113 0
M  V30 42 H 8.552966 3.116630 -15.922853 0
M  V30 43 H 9.715776 1.874302 -16.243170 0
M  V30 44 H 9.715490 3.459759 -17.803991 0
M  V30 END ATOM
M  V30 BEGIN BOND
M  V30 1 1 2 1
M  V30 2 1 3 2
M  V30 3 1 4 3
M  V30 4 1 5 4
M  V30 5 2 6 5
M  V30 6 1 7 6
M  V30 7 2 8 7
M  V30 8 1 9 8
M  V30 9 1 10 5
M  V30 10 2 10 9
M  V30 11 1 11 10
M  V30 12 1 12 11
M  V30 13 1 13 12
M  V30 14 2 14 13
M  V30 15 1 15 14
M  V30 16 1 16 14
M  V30 17 1 17 16
M  V30 18 2 18 16
M  V30 19 2 19 12
M  V30 20 1 19 18
M  V30 21 1 20 19
M  V30 22 1 21 2
M  V30 23 1 21 20
M  V30 24 1 22 1
M  V30 25 1 23 1
M  V30 26 1 24 1
M  V30 27 1 25 3
M  V30 28 1 26 3
M  V30 29 1 27 4
M  V30 30 1 28 4
M  V30 31 1 29 6
M  V30 32 1 30 7
M  V30 33 1 31 8
M  V30 34 1 32 9
M  V30 35 1 33 11
M  V30 36 1 34 11
M  V30 37 1 35 13
M  V30 38 1 36 15
M  V30 39 1 37 15
M  V30 40 1 38 17
M  V30 41 1 39 18
M  V30 42 1 40 20
M  V30 43 1 41 20
M  V30 44 1 42 21
M  V30 45 1 43 21
M  V30 46 1 2 44 CFG=3
M  V30 END BOND
M  V30 END CTAB
M  END
>  <b_m_subgroup_collapsed>  (1949) 
0

>  <r_i_docking_score>  (1949) 
-6.4379051269010299

>  <s_m_subgroup_title>  (1949) 
glide-dock_SP_D22_pv

>  <s_m_subgroupid>  (1949) 
glide-dock_SP_D22_pv

>  <Molecule ChEMBL ID>  (1949) 
CHEMBL204098

>  <Standard Type>  (1949) 
Ki

>  <Standard Value>  (1949) 
26.1

>  <label>  (1949) 
1

$$$$
CHEMBL5189614
     RDKit          3D

  0  0  0  0  0  0  0  0  0  0999 V3000
M  V30 BEGIN CTAB
M  V30 COUNTS 57 60 0 0 1
M  V30 BEGIN ATOM
M  V30 1 C 11.810715 11.361939 -6.328566 0
M  V30 2 O 11.157684 10.157303 -6.645376 0
M  V30 3 C 11.347010 9.093658 -5.793934 0
M  V30 4 C 11.919097 9.231490 -4.499808 0
M  V30 5 C 12.092759 8.135521 -3.644327 0
M  V30 6 C 11.685323 6.868515 -4.070967 0
M  V30 7 C 11.103821 6.728117 -5.341428 0
M  V30 8 C 10.937388 7.808036 -6.224046 0
M  V30 9 N 10.417472 7.529206 -7.506876 0
M  V30 10 C 9.125543 6.860694 -7.636792 0
M  V30 11 C 9.104642 5.974903 -8.903675 0
M  V30 12 N 9.427882 6.770973 -10.094625 0
M  V30 13 C 9.388041 5.976807 -11.323572 0
M  V30 14 C 7.974841 5.466347 -11.681304 0
M  V30 15 C 7.717910 5.314614 -13.198895 0
M  V30 16 N 8.236071 4.053817 -13.760324 0
M  V30 17 C 9.541922 3.995414 -14.142118 0
M  V30 18 O 10.294141 4.971254 -14.149362 0
M  V30 19 C 10.122811 2.641183 -14.558409 0
M  V30 20 C 9.111127 1.816664 -15.357327 0
M  V30 21 C 7.775327 1.780914 -14.646101 0
M  V30 22 C 6.970358 0.624978 -14.723319 0
M  V30 23 C 5.739353 0.575371 -14.046847 0
M  V30 24 C 5.303051 1.693276 -13.312233 0
M  V30 25 C 6.095670 2.854799 -13.241238 0
M  V30 26 C 7.361062 2.910498 -13.887962 0
M  V30 27 C 10.760327 7.361789 -9.933829 0
M  V30 28 C 10.808767 8.278380 -8.693687 0
M  V30 29 H 11.686035 12.104177 -7.112073 0
M  V30 30 H 11.389602 11.771429 -5.416534 0
M  V30 31 H 12.878738 11.190165 -6.246587 0
M  V30 32 H 12.250772 10.172522 -4.114002 0
M  V30 33 H 12.537990 8.269378 -2.669962 0
M  V30 34 H 11.809787 6.010286 -3.428435 0
M  V30 35 H 10.791893 5.772552 -5.677028 0
M  V30 36 H 8.888900 6.258800 -6.760252 0
M  V30 37 H 8.349783 7.623275 -7.704083 0
M  V30 38 H 9.810490 5.149068 -8.802414 0
M  V30 39 H 8.111270 5.537949 -9.009295 0
M  V30 40 H 9.737633 6.618346 -12.132631 0
M  V30 41 H 10.085379 5.139912 -11.267492 0
M  V30 42 H 7.762838 4.533482 -11.156820 0
M  V30 43 H 7.240847 6.171737 -11.309897 0
M  V30 44 H 6.650721 5.395087 -13.397482 0
M  V30 45 H 8.125673 6.174639 -13.730428 0
M  V30 46 H 11.039573 2.778219 -15.133758 0
M  V30 47 H 10.402445 2.113374 -13.646891 0
M  V30 48 H 8.974339 2.242085 -16.353012 0
M  V30 49 H 9.487700 0.801967 -15.494089 0
M  V30 50 H 7.300921 -0.233942 -15.289792 0
M  V30 51 H 5.128766 -0.313064 -14.099493 0
M  V30 52 H 4.356502 1.671789 -12.797420 0
M  V30 53 H 5.729149 3.668989 -12.636439 0
M  V30 54 H 11.506967 6.572381 -9.847964 0
M  V30 55 H 11.010833 7.947286 -10.819268 0
M  V30 56 H 10.135064 9.126822 -8.824515 0
M  V30 57 H 11.817041 8.675877 -8.575481 0
M  V30 END ATOM
M  V30 BEGIN BOND
M  V30 1 1 2 1
M  V30 2 1 3 2
M  V30 3 2 4 3
M  V30 4 1 5 4
M  V30 5 2 6 5
M  V30 6 1 7 6
M  V30 7 1 8 3
M  V30 8 2 8 7
M  V30 9 1 9 8
M  V30 10 1 10 9
M  V30 11 1 11 10
M  V30 12 1 12 11
M  V30 13 1 13 12
M  V30 14 1 14 13
M  V30 15 1 15 14
M  V30 16 1 16 15
M  V30 17 1 17 16
M  V30 18 2 18 17
M  V30 19 1 19 17
M  V30 20 1 20 19
M  V30 21 1 21 20
M  V30 22 2 22 21
M  V30 23 1 23 22
M  V30 24 2 24 23
M  V30 25 1 25 24
M  V30 26 1 26 16
M  V30 27 1 26 21
M  V30 28 2 26 25
M  V30 29 1 27 12
M  V30 30 1 28 9
M  V30 31 1 28 27
M  V30 32 1 29 1
M  V30 33 1 30 1
M  V30 34 1 31 1
M  V30 35 1 32 4
M  V30 36 1 33 5
M  V30 37 1 34 6
M  V30 38 1 35 7
M  V30 39 1 36 10
M  V30 40 1 37 10
M  V30 41 1 38 11
M  V30 42 1 39 11
M  V30 43 1 40 13
M  V30 44 1 41 13
M  V30 45 1 42 14
M  V30 46 1 43 14
M  V30 47 1 44 15
M  V30 48 1 45 15
M  V30 49 1 46 19
M  V30 50 1 47 19
M  V30 51 1 48 20
M  V30 52 1 49 20
M  V30 53 1 50 22
M  V30 54 1 51 23
M  V30 55 1 52 24
M  V30 56 1 53 25
M  V30 57 1 54 27
M  V30 58 1 55 27
M  V30 59 1 56 28
M  V30 60 1 57 28
M  V30 END BOND
M  V30 END CTAB
M  END
>  <b_m_subgroup_collapsed>  (1950) 
0

>  <r_i_docking_score>  (1950) 
-6.4329177528424504

>  <s_m_subgroup_title>  (1950) 
glide-dock_SP_D22_pv

>  <s_m_subgroupid>  (1950) 
glide-dock_SP_D22_pv

>  <Molecule ChEMBL ID>  (1950) 
CHEMBL5189614

>  <Standard Type>  (1950) 
Ki

>  <Standard Value>  (1950) 
81.28

>  <label>  (1950) 
1

$$$$
CHEMBL540285
     RDKit          3D

  0  0  0  0  0  0  0  0  0  0999 V3000
M  V30 BEGIN CTAB
M  V30 COUNTS 44 45 0 0 1
M  V30 BEGIN ATOM
M  V30 1 C 6.181545 7.554121 -13.003371 0
M  V30 2 C 6.259688 6.151876 -12.353926 0
M  V30 3 N 7.633924 5.630919 -12.044084 0 CHG=1
M  V30 4 C 8.153240 4.759617 -13.135129 0
M  V30 5 C 9.437520 3.998073 -12.766726 0
M  V30 6 C 8.616220 6.655252 -11.585653 0
M  V30 7 C 9.338867 6.296195 -10.256939 0
M  V30 8 C 10.268932 7.410789 -9.690337 0 CFG=2
M  V30 9 C 11.452640 7.779836 -10.608590 0
M  V30 10 O 10.820205 7.024210 -8.414531 0
M  V30 11 C 10.457259 7.951742 -7.460790 0
M  V30 12 C 11.024749 7.961037 -6.100274 0
M  V30 13 C 11.285538 9.185848 -5.440556 0
M  V30 14 C 11.819483 9.193748 -4.136317 0
M  V30 15 C 12.083531 7.978505 -3.476842 0
M  V30 16 C 11.795762 6.759106 -4.119707 0
M  V30 17 C 11.285052 6.749105 -5.433837 0
M  V30 18 C 9.678718 8.915699 -7.948809 0
M  V30 19 C 9.497836 8.670021 -9.340322 0
M  V30 20 O 8.886144 9.371616 -10.139361 0
M  V30 21 H 5.286210 7.666043 -13.611136 0
M  V30 22 H 6.132398 8.340077 -12.248115 0
M  V30 23 H 7.047794 7.772485 -13.615378 0
M  V30 24 H 5.734176 5.440225 -12.991488 0
M  V30 25 H 5.673137 6.169244 -11.439639 0
M  V30 26 H 7.393656 4.018838 -13.389943 0
M  V30 27 H 8.317507 5.356767 -14.033930 0
M  V30 28 H 9.701662 3.292355 -13.555228 0
M  V30 29 H 10.289749 4.665717 -12.640522 0
M  V30 30 H 9.316912 3.424347 -11.848459 0
M  V30 31 H 8.090157 7.586303 -11.447139 0
M  V30 32 H 9.335963 6.859600 -12.377522 0
M  V30 33 H 9.919737 5.382618 -10.375084 0
M  V30 34 H 8.580731 6.067034 -9.505568 0
M  V30 35 H 11.125080 8.037042 -11.614429 0
M  V30 36 H 12.001162 8.640989 -10.222072 0
M  V30 37 H 12.172250 6.972400 -10.689517 0
M  V30 38 H 11.092268 10.128048 -5.931729 0
M  V30 39 H 12.023107 10.130729 -3.638209 0
M  V30 40 H 12.487421 7.982163 -2.475072 0
M  V30 41 H 11.985179 5.824439 -3.611020 0
M  V30 42 H 11.085783 5.808923 -5.926212 0
M  V30 43 H 9.286003 9.772231 -7.446895 0
M  V30 44 H 7.484595 5.027760 -11.246403 0
M  V30 END ATOM
M  V30 BEGIN BOND
M  V30 1 1 2 1
M  V30 2 1 3 2
M  V30 3 1 4 3
M  V30 4 1 5 4
M  V30 5 1 6 3
M  V30 6 1 7 6
M  V30 7 1 8 7 CFG=3
M  V30 8 1 9 8
M  V30 9 1 10 8
M  V30 10 1 11 10
M  V30 11 1 12 11
M  V30 12 2 13 12
M  V30 13 1 14 13
M  V30 14 2 15 14
M  V30 15 1 16 15
M  V30 16 1 17 12
M  V30 17 2 17 16
M  V30 18 2 18 11
M  V30 19 1 19 8
M  V30 20 1 19 18
M  V30 21 2 20 19
M  V30 22 1 21 1
M  V30 23 1 22 1
M  V30 24 1 23 1
M  V30 25 1 24 2
M  V30 26 1 25 2
M  V30 27 1 26 4
M  V30 28 1 27 4
M  V30 29 1 28 5
M  V30 30 1 29 5
M  V30 31 1 30 5
M  V30 32 1 31 6
M  V30 33 1 32 6
M  V30 34 1 33 7
M  V30 35 1 34 7
M  V30 36 1 35 9
M  V30 37 1 36 9
M  V30 38 1 37 9
M  V30 39 1 38 13
M  V30 40 1 39 14
M  V30 41 1 40 15
M  V30 42 1 41 16
M  V30 43 1 42 17
M  V30 44 1 43 18
M  V30 45 1 44 3
M  V30 END BOND
M  V30 END CTAB
M  END
>  <b_m_subgroup_collapsed>  (1951) 
0

>  <r_i_docking_score>  (1951) 
-6.4324219138737799

>  <s_m_subgroup_title>  (1951) 
glide-dock_SP_D22_pv

>  <s_m_subgroupid>  (1951) 
glide-dock_SP_D22_pv

>  <Molecule ChEMBL ID>  (1951) 
CHEMBL540285

>  <Standard Type>  (1951) 
Ki

>  <Standard Value>  (1951) 
10000.0

>  <label>  (1951) 
0

$$$$
CHEMBL434
     RDKit          3D

  0  0  0  0  0  0  0  0  0  0999 V3000
M  V30 BEGIN CTAB
M  V30 COUNTS 33 33 0 0 1
M  V30 BEGIN ATOM
M  V30 1 C 9.631413 6.332158 -12.245441 0
M  V30 2 C 8.889529 5.373513 -11.301039 0
M  V30 3 C 7.648899 4.785237 -11.984423 0
M  V30 4 N 8.486042 6.044755 -10.048048 0 CHG=1
M  V30 5 C 9.577468 6.443172 -9.133977 0
M  V30 6 C 8.975564 7.090010 -7.884875 0 CFG=1
M  V30 7 O 8.086102 6.172086 -7.280799 0
M  V30 8 C 10.003710 7.643028 -6.919911 0
M  V30 9 C 10.483794 6.878984 -5.839924 0
M  V30 10 C 11.323113 7.452302 -4.870581 0
M  V30 11 C 11.706204 8.799337 -4.992269 0
M  V30 12 O 12.486111 9.374089 -4.032476 0
M  V30 13 C 11.285510 9.549717 -6.107707 0
M  V30 14 O 11.685217 10.842157 -6.246461 0
M  V30 15 C 10.435799 8.972419 -7.066954 0
M  V30 16 H 9.869219 5.837411 -13.188257 0
M  V30 17 H 9.024948 7.209038 -12.475883 0
M  V30 18 H 10.574722 6.677291 -11.823298 0
M  V30 19 H 9.554191 4.546611 -11.044960 0
M  V30 20 H 7.917503 4.243798 -12.892630 0
M  V30 21 H 7.131390 4.085058 -11.326887 0
M  V30 22 H 6.938188 5.565659 -12.259786 0
M  V30 23 H 7.911121 5.397394 -9.524609 0
M  V30 24 H 10.238291 7.156674 -9.626236 0
M  V30 25 H 10.177025 5.572274 -8.864212 0
M  V30 26 H 8.379439 7.945571 -8.200594 0
M  V30 27 H 7.201374 6.538854 -7.420624 0
M  V30 28 H 10.172338 5.856375 -5.725111 0
M  V30 29 H 11.651519 6.856182 -4.031243 0
M  V30 30 H 12.634205 8.815031 -3.286237 0
M  V30 31 H 12.281551 11.063770 -5.544847 0
M  V30 32 H 10.083615 9.562497 -7.899095 0
M  V30 33 H 7.882033 6.846040 -10.245973 0
M  V30 END ATOM
M  V30 BEGIN BOND
M  V30 1 1 2 1
M  V30 2 1 3 2
M  V30 3 1 4 2
M  V30 4 1 5 4
M  V30 5 1 6 5
M  V30 6 1 7 6
M  V30 7 1 8 6
M  V30 8 1 9 8
M  V30 9 2 10 9
M  V30 10 1 11 10
M  V30 11 1 12 11
M  V30 12 2 13 11
M  V30 13 1 14 13
M  V30 14 2 15 8
M  V30 15 1 15 13
M  V30 16 1 16 1
M  V30 17 1 17 1
M  V30 18 1 18 1
M  V30 19 1 19 2
M  V30 20 1 20 3
M  V30 21 1 21 3
M  V30 22 1 22 3
M  V30 23 1 23 4
M  V30 24 1 24 5
M  V30 25 1 25 5
M  V30 26 1 6 26 CFG=3
M  V30 27 1 27 7
M  V30 28 1 28 9
M  V30 29 1 29 10
M  V30 30 1 30 12
M  V30 31 1 31 14
M  V30 32 1 32 15
M  V30 33 1 33 4
M  V30 END BOND
M  V30 END CTAB
M  END
>  <b_m_subgroup_collapsed>  (1952) 
0

>  <r_i_docking_score>  (1952) 
-6.4318985776453896

>  <s_m_subgroup_title>  (1952) 
glide-dock_SP_D22_pv

>  <s_m_subgroupid>  (1952) 
glide-dock_SP_D22_pv

>  <Molecule ChEMBL ID>  (1952) 
CHEMBL434

>  <Standard Type>  (1952) 
Ki

>  <Standard Value>  (1952) 
12000.0

>  <label>  (1952) 
0

$$$$
CHEMBL5959945
     RDKit          3D

  0  0  0  0  0  0  0  0  0  0999 V3000
M  V30 BEGIN CTAB
M  V30 COUNTS 51 53 0 0 1
M  V30 BEGIN ATOM
M  V30 1 C 5.853653 3.691973 -12.159513 0
M  V30 2 C 6.579846 5.001861 -12.511422 0
M  V30 3 N 8.045836 4.868903 -12.585696 0
M  V30 4 C 8.773147 5.825436 -11.737372 0
M  V30 5 C 8.693787 5.422338 -10.256317 0
M  V30 6 N 9.658998 6.106061 -9.396544 0
M  V30 7 C 9.307651 5.748695 -8.019936 0
M  V30 8 C 10.313204 6.337881 -7.019431 0
M  V30 9 N 10.467205 7.769830 -7.207291 0
M  V30 10 C 10.917500 8.589338 -6.158239 0
M  V30 11 N 10.886116 9.915487 -6.247060 0
M  V30 12 O 11.285924 10.428181 -4.988849 0
M  V30 13 C 11.630462 9.387254 -4.144115 0
M  V30 14 C 12.086041 9.395226 -2.820779 0
M  V30 15 C 12.353670 8.160453 -2.203827 0
M  V30 16 C 12.152132 6.957183 -2.915918 0
M  V30 17 C 11.686127 6.973185 -4.250258 0
M  V30 18 C 11.408365 8.215967 -4.874393 0
M  V30 19 C 10.631888 8.216266 -8.586968 0
M  V30 20 C 9.566268 7.568841 -9.491660 0
M  V30 21 C 8.640338 4.046052 -13.490836 0
M  V30 22 O 7.986582 3.408476 -14.318456 0
M  V30 23 C 10.169950 3.850689 -13.472644 0 CFG=1
M  V30 24 C 10.619766 2.576696 -14.211942 0
M  V30 25 O 10.812462 4.949349 -14.094374 0
M  V30 26 H 4.781100 3.842370 -12.244897 0
M  V30 27 H 6.092720 2.868304 -12.829293 0
M  V30 28 H 6.085801 3.372346 -11.144317 0
M  V30 29 H 6.291981 5.759418 -11.779567 0
M  V30 30 H 6.202263 5.372612 -13.456111 0
M  V30 31 H 9.814831 5.947602 -12.024188 0
M  V30 32 H 8.327997 6.811872 -11.878753 0
M  V30 33 H 7.686023 5.616673 -9.894639 0
M  V30 34 H 8.860163 4.349038 -10.163482 0
M  V30 35 H 8.303135 6.108186 -7.783370 0
M  V30 36 H 9.284240 4.664059 -7.911145 0
M  V30 37 H 9.907292 6.169067 -6.024229 0
M  V30 38 H 11.281719 5.842339 -7.097906 0
M  V30 39 H 12.212563 10.324184 -2.288981 0
M  V30 40 H 12.706773 8.138871 -1.183581 0
M  V30 41 H 12.357701 6.011092 -2.435895 0
M  V30 42 H 11.564938 6.032197 -4.760719 0
M  V30 43 H 10.549664 9.300376 -8.666544 0
M  V30 44 H 11.631930 7.948665 -8.930412 0
M  V30 45 H 9.744058 7.901321 -10.513474 0
M  V30 46 H 8.566612 7.908512 -9.213077 0
M  V30 47 H 10.485895 3.778523 -12.432427 0
M  V30 48 H 10.093632 1.694560 -13.847003 0
M  V30 49 H 10.429526 2.648099 -15.283879 0
M  V30 50 H 11.685212 2.399406 -14.076462 0
M  V30 51 H 11.746996 4.813376 -14.064392 0
M  V30 END ATOM
M  V30 BEGIN BOND
M  V30 1 1 2 1
M  V30 2 1 3 2
M  V30 3 1 4 3
M  V30 4 1 5 4
M  V30 5 1 6 5
M  V30 6 1 7 6
M  V30 7 1 8 7
M  V30 8 1 9 8
M  V30 9 1 10 9
M  V30 10 2 11 10
M  V30 11 1 12 11
M  V30 12 1 13 12
M  V30 13 2 14 13
M  V30 14 1 15 14
M  V30 15 2 16 15
M  V30 16 1 17 16
M  V30 17 1 18 10
M  V30 18 1 18 13
M  V30 19 2 18 17
M  V30 20 1 19 9
M  V30 21 1 20 6
M  V30 22 1 20 19
M  V30 23 1 21 3
M  V30 24 2 22 21
M  V30 25 1 23 21
M  V30 26 1 24 23
M  V30 27 1 25 23
M  V30 28 1 26 1
M  V30 29 1 27 1
M  V30 30 1 28 1
M  V30 31 1 29 2
M  V30 32 1 30 2
M  V30 33 1 31 4
M  V30 34 1 32 4
M  V30 35 1 33 5
M  V30 36 1 34 5
M  V30 37 1 35 7
M  V30 38 1 36 7
M  V30 39 1 37 8
M  V30 40 1 38 8
M  V30 41 1 39 14
M  V30 42 1 40 15
M  V30 43 1 41 16
M  V30 44 1 42 17
M  V30 45 1 43 19
M  V30 46 1 44 19
M  V30 47 1 45 20
M  V30 48 1 46 20
M  V30 49 1 23 47 CFG=1
M  V30 50 1 48 24
M  V30 51 1 49 24
M  V30 52 1 50 24
M  V30 53 1 51 25
M  V30 END BOND
M  V30 END CTAB
M  END
>  <b_m_subgroup_collapsed>  (1953) 
0

>  <r_i_docking_score>  (1953) 
-6.42853933963596

>  <s_m_subgroup_title>  (1953) 
glide-dock_SP_D22_pv

>  <s_m_subgroupid>  (1953) 
glide-dock_SP_D22_pv

>  <Molecule ChEMBL ID>  (1953) 
CHEMBL5959945

>  <Standard Type>  (1953) 
Ki

>  <Standard Value>  (1953) 
10000.0

>  <label>  (1953) 
0

$$$$
CHEMBL1125
     RDKit          3D

  0  0  0  0  0  0  0  0  0  0999 V3000
M  V30 BEGIN CTAB
M  V30 COUNTS 40 43 0 0 1
M  V30 BEGIN ATOM
M  V30 1 C 11.822820 8.972423 -9.495836 0
M  V30 2 C 11.021756 8.231977 -10.500788 0
M  V30 3 C 11.451672 7.372305 -11.473653 0
M  V30 4 C 10.386515 6.774661 -12.229167 0
M  V30 5 C 9.171148 7.249668 -11.828025 0
M  V30 6 S 9.303568 8.428617 -10.556266 0
M  V30 7 N 7.916713 6.889859 -12.246866 0
M  V30 8 C 7.556779 5.630735 -12.712704 0
M  V30 9 C 6.212956 5.264500 -12.488179 0
M  V30 10 C 5.708836 4.036180 -12.945814 0
M  V30 11 C 6.556506 3.158574 -13.636812 0
M  V30 12 C 7.903301 3.508729 -13.846716 0
M  V30 13 C 8.437150 4.736608 -13.391972 0
M  V30 14 N 9.783278 4.933843 -13.759030 0
M  V30 15 C 10.667001 5.772318 -13.305861 0
M  V30 16 N 11.952597 5.837728 -13.849879 0
M  V30 17 C 12.387481 7.029443 -14.579309 0
M  V30 18 C 12.105801 6.886756 -16.086784 0
M  V30 19 N 12.724192 5.652642 -16.619740 0 CHG=1
M  V30 20 C 12.332981 4.439880 -15.867895 0
M  V30 21 C 12.603491 4.630956 -14.363827 0
M  V30 22 H 12.883096 8.732152 -9.577633 0
M  V30 23 H 11.685856 10.042433 -9.644227 0
M  V30 24 H 11.499023 8.727181 -8.484436 0
M  V30 25 H 12.486790 7.123854 -11.635445 0
M  V30 26 H 7.208959 7.326552 -11.642996 0
M  V30 27 H 5.556528 5.938632 -11.955838 0
M  V30 28 H 4.677446 3.770548 -12.768427 0
M  V30 29 H 6.179279 2.212832 -13.997401 0
M  V30 30 H 8.539243 2.815965 -14.378884 0
M  V30 31 H 11.891616 7.923526 -14.200221 0
M  V30 32 H 13.454038 7.175897 -14.407231 0
M  V30 33 H 11.031439 6.843221 -16.264420 0
M  V30 34 H 12.487165 7.751541 -16.631184 0
M  V30 35 H 12.468348 5.542512 -17.590878 0
M  V30 36 H 11.275469 4.236481 -16.041695 0
M  V30 37 H 12.886515 3.580696 -16.247671 0
M  V30 38 H 13.677269 4.704084 -14.194418 0
M  V30 39 H 12.266084 3.755058 -13.808195 0
M  V30 40 H 13.727531 5.750669 -16.556646 0
M  V30 END ATOM
M  V30 BEGIN BOND
M  V30 1 1 2 1
M  V30 2 2 3 2
M  V30 3 1 4 3
M  V30 4 2 5 4
M  V30 5 1 6 2
M  V30 6 1 6 5
M  V30 7 1 7 5
M  V30 8 1 8 7
M  V30 9 2 9 8
M  V30 10 1 10 9
M  V30 11 2 11 10
M  V30 12 1 12 11
M  V30 13 1 13 8
M  V30 14 2 13 12
M  V30 15 1 14 13
M  V30 16 1 15 4
M  V30 17 2 15 14
M  V30 18 1 16 15
M  V30 19 1 17 16
M  V30 20 1 18 17
M  V30 21 1 19 18
M  V30 22 1 20 19
M  V30 23 1 21 16
M  V30 24 1 21 20
M  V30 25 1 22 1
M  V30 26 1 23 1
M  V30 27 1 24 1
M  V30 28 1 25 3
M  V30 29 1 26 7
M  V30 30 1 27 9
M  V30 31 1 28 10
M  V30 32 1 29 11
M  V30 33 1 30 12
M  V30 34 1 31 17
M  V30 35 1 32 17
M  V30 36 1 33 18
M  V30 37 1 34 18
M  V30 38 1 35 19
M  V30 39 1 36 20
M  V30 40 1 37 20
M  V30 41 1 38 21
M  V30 42 1 39 21
M  V30 43 1 40 19
M  V30 END BOND
M  V30 END CTAB
M  END
>  <b_m_subgroup_collapsed>  (1954) 
0

>  <r_i_docking_score>  (1954) 
-6.4281454543871401

>  <s_m_subgroup_title>  (1954) 
glide-dock_SP_D22_pv

>  <s_m_subgroupid>  (1954) 
glide-dock_SP_D22_pv

>  <Molecule ChEMBL ID>  (1954) 
CHEMBL1125

>  <Standard Type>  (1954) 
Ki

>  <Standard Value>  (1954) 
9.0

>  <label>  (1954) 
1

$$$$
CHEMBL201393
     RDKit          3D

  0  0  0  0  0  0  0  0  0  0999 V3000
M  V30 BEGIN CTAB
M  V30 COUNTS 43 47 0 0 1
M  V30 BEGIN ATOM
M  V30 1 C 5.978098 5.067942 -12.879962 0
M  V30 2 C 6.533959 6.336830 -12.646991 0
M  V30 3 C 7.931499 6.523181 -12.646544 0
M  V30 4 C 8.814369 5.428838 -12.834865 0
M  V30 5 C 10.346959 5.519031 -12.645548 0 CFG=2
M  V30 6 C 10.956103 6.942406 -12.412335 0
M  V30 7 C 11.925292 7.203389 -13.581290 0
M  V30 8 N 11.646255 6.124043 -14.534542 0 CFG=1 CHG=1
M  V30 9 C 12.618442 5.888880 -15.627525 0
M  V30 10 C 11.980804 4.928062 -16.658186 0
M  V30 11 C 11.364828 3.749839 -15.958087 0
M  V30 12 C 11.041672 3.772013 -14.625555 0
M  V30 13 N 10.672494 2.489285 -14.247722 0
M  V30 14 C 10.560130 1.671088 -15.355675 0
M  V30 15 C 10.134013 0.339936 -15.511665 0
M  V30 16 C 10.166090 -0.247653 -16.789043 0
M  V30 17 C 10.637457 0.490074 -17.891397 0
M  V30 18 C 11.062499 1.823291 -17.725740 0
M  V30 19 C 11.020759 2.449979 -16.458181 0
M  V30 20 C 11.326854 4.940075 -13.717869 0 CFG=2
M  V30 21 C 8.221999 4.161617 -13.004974 0
M  V30 22 C 6.830464 3.971429 -13.058837 0
M  V30 23 H 4.906029 4.939096 -12.909801 0
M  V30 24 H 5.882992 7.181062 -12.468903 0
M  V30 25 H 8.264624 7.523564 -12.434455 0
M  V30 26 H 10.479002 4.924005 -11.744232 0
M  V30 27 H 10.245945 7.758036 -12.343512 0
M  V30 28 H 11.510460 6.974373 -11.474009 0
M  V30 29 H 11.763046 8.173691 -14.052555 0
M  V30 30 H 12.958529 7.154633 -13.240543 0
M  V30 31 H 12.888795 6.830679 -16.107019 0
M  V30 32 H 13.534112 5.461828 -15.213687 0
M  V30 33 H 11.215703 5.454487 -17.230654 0
M  V30 34 H 12.734603 4.601855 -17.376488 0
M  V30 35 H 10.483310 2.204734 -13.293559 0
M  V30 36 H 9.787355 -0.227100 -14.660449 0
M  V30 37 H 9.839497 -1.268548 -16.925385 0
M  V30 38 H 10.670670 0.032305 -18.869886 0
M  V30 39 H 11.419731 2.377527 -18.580946 0
M  V30 40 H 12.250058 4.688626 -13.190950 0
M  V30 41 H 8.844349 3.305362 -13.029993 0
M  V30 42 H 6.420750 2.982216 -13.199064 0
M  V30 43 H 10.778275 6.370205 -14.988894 0
M  V30 END ATOM
M  V30 BEGIN BOND
M  V30 1 2 2 1
M  V30 2 1 3 2
M  V30 3 2 4 3
M  V30 4 1 5 4
M  V30 5 1 6 5
M  V30 6 1 7 6
M  V30 7 1 8 7
M  V30 8 1 9 8
M  V30 9 1 10 9
M  V30 10 1 11 10
M  V30 11 2 12 11
M  V30 12 1 13 12
M  V30 13 1 14 13
M  V30 14 2 15 14
M  V30 15 1 16 15
M  V30 16 2 17 16
M  V30 17 1 18 17
M  V30 18 1 19 11
M  V30 19 1 19 14
M  V30 20 2 19 18
M  V30 21 1 20 5
M  V30 22 1 20 8
M  V30 23 1 20 12
M  V30 24 1 21 4
M  V30 25 1 22 1
M  V30 26 2 22 21
M  V30 27 1 23 1
M  V30 28 1 24 2
M  V30 29 1 25 3
M  V30 30 1 5 26 CFG=1
M  V30 31 1 27 6
M  V30 32 1 28 6
M  V30 33 1 29 7
M  V30 34 1 30 7
M  V30 35 1 31 9
M  V30 36 1 32 9
M  V30 37 1 33 10
M  V30 38 1 34 10
M  V30 39 1 35 13
M  V30 40 1 36 15
M  V30 41 1 37 16
M  V30 42 1 38 17
M  V30 43 1 39 18
M  V30 44 1 20 40 CFG=1
M  V30 45 1 41 21
M  V30 46 1 42 22
M  V30 47 1 8 43 CFG=3
M  V30 END BOND
M  V30 END CTAB
M  END
>  <b_m_subgroup_collapsed>  (1955) 
0

>  <r_i_docking_score>  (1955) 
-6.4258364786589004

>  <s_m_subgroup_title>  (1955) 
glide-dock_SP_D22_pv

>  <s_m_subgroupid>  (1955) 
glide-dock_SP_D22_pv

>  <Molecule ChEMBL ID>  (1955) 
CHEMBL201393

>  <Standard Type>  (1955) 
Ki

>  <Standard Value>  (1955) 
10000.0

>  <label>  (1955) 
0

$$$$
CHEMBL5396600
     RDKit          3D

  0  0  0  0  0  0  0  0  0  0999 V3000
M  V30 BEGIN CTAB
M  V30 COUNTS 55 58 0 0 1
M  V30 BEGIN ATOM
M  V30 1 C 14.598224 6.081848 -17.798449 0
M  V30 2 N 14.034467 6.054017 -16.430426 0 CHG=1
M  V30 3 C 13.172291 4.867971 -16.193970 0
M  V30 4 C 12.743731 4.803543 -14.721904 0
M  V30 5 N 12.119055 6.064965 -14.340959 0
M  V30 6 C 11.064790 6.070097 -13.414506 0
M  V30 7 C 9.967257 5.204640 -13.603106 0
M  V30 8 C 8.856599 5.288120 -12.733301 0
M  V30 9 C 7.652236 4.458120 -12.913630 0
M  V30 10 C 7.601439 3.367275 -13.843574 0
M  V30 11 C 6.406129 2.701001 -13.846938 0
M  V30 12 S 5.287757 3.390191 -12.710587 0
M  V30 13 C 6.457430 4.592196 -12.246357 0
M  V30 14 C 8.925359 6.226957 -11.684719 0
M  V30 15 C 10.067093 7.038763 -11.559653 0
M  V30 16 C 10.163486 8.060765 -10.443346 0
M  V30 17 C 11.014545 7.593575 -9.239589 0
M  V30 18 C 11.182811 8.717487 -8.196889 0
M  V30 19 C 9.894039 8.972155 -7.390028 0
M  V30 20 C 9.363720 7.686498 -6.738866 0
M  V30 21 C 9.181664 6.572319 -7.780444 0
M  V30 22 C 10.485624 6.313141 -8.550932 0
M  V30 23 N 11.115586 6.970852 -12.407529 0
M  V30 24 C 12.851893 7.299066 -14.610889 0
M  V30 25 C 13.344350 7.319674 -16.070711 0
M  V30 26 H 13.809891 6.182320 -18.548887 0
M  V30 27 H 15.283613 6.922041 -17.918203 0
M  V30 28 H 15.153642 5.164330 -18.001907 0
M  V30 29 H 13.692538 3.948786 -16.466730 0
M  V30 30 H 12.289945 4.923180 -16.835440 0
M  V30 31 H 13.624061 4.630023 -14.096871 0
M  V30 32 H 12.080550 3.952253 -14.563192 0
M  V30 33 H 9.961363 4.534216 -14.446139 0
M  V30 34 H 8.432905 3.082124 -14.467149 0
M  V30 35 H 6.119239 1.844419 -14.437837 0
M  V30 36 H 6.192042 5.317703 -11.487919 0
M  V30 37 H 8.107280 6.345695 -10.987444 0
M  V30 38 H 10.595395 8.970931 -10.859689 0
M  V30 39 H 9.154510 8.329723 -10.128290 0
M  V30 40 H 12.006207 7.371994 -9.635004 0
M  V30 41 H 11.987318 8.454099 -7.508523 0
M  V30 42 H 11.498101 9.635336 -8.693542 0
M  V30 43 H 10.085946 9.721405 -6.621507 0
M  V30 44 H 9.123370 9.387434 -8.040303 0
M  V30 45 H 10.050236 7.352161 -5.960791 0
M  V30 46 H 8.411210 7.890542 -6.249028 0
M  V30 47 H 8.846554 5.658845 -7.289903 0
M  V30 48 H 8.389539 6.844946 -8.478422 0
M  V30 49 H 10.341177 5.508972 -9.273639 0
M  V30 50 H 11.234774 5.949546 -7.844544 0
M  V30 51 H 12.214776 8.167247 -14.437767 0
M  V30 52 H 13.683960 7.381340 -13.912133 0
M  V30 53 H 14.011550 8.167785 -16.232008 0
M  V30 54 H 12.492467 7.458581 -16.738857 0
M  V30 55 H 14.814297 5.965662 -15.794068 0
M  V30 END ATOM
M  V30 BEGIN BOND
M  V30 1 1 2 1
M  V30 2 1 3 2
M  V30 3 1 4 3
M  V30 4 1 5 4
M  V30 5 1 6 5
M  V30 6 2 7 6
M  V30 7 1 8 7
M  V30 8 1 9 8
M  V30 9 1 10 9
M  V30 10 2 11 10
M  V30 11 1 12 11
M  V30 12 2 13 9
M  V30 13 1 13 12
M  V30 14 2 14 8
M  V30 15 1 15 14
M  V30 16 1 16 15
M  V30 17 1 17 16
M  V30 18 1 18 17
M  V30 19 1 19 18
M  V30 20 1 20 19
M  V30 21 1 21 20
M  V30 22 1 22 17
M  V30 23 1 22 21
M  V30 24 1 23 6
M  V30 25 2 23 15
M  V30 26 1 24 5
M  V30 27 1 25 2
M  V30 28 1 25 24
M  V30 29 1 26 1
M  V30 30 1 27 1
M  V30 31 1 28 1
M  V30 32 1 29 3
M  V30 33 1 30 3
M  V30 34 1 31 4
M  V30 35 1 32 4
M  V30 36 1 33 7
M  V30 37 1 34 10
M  V30 38 1 35 11
M  V30 39 1 36 13
M  V30 40 1 37 14
M  V30 41 1 38 16
M  V30 42 1 39 16
M  V30 43 1 40 17
M  V30 44 1 41 18
M  V30 45 1 42 18
M  V30 46 1 43 19
M  V30 47 1 44 19
M  V30 48 1 45 20
M  V30 49 1 46 20
M  V30 50 1 47 21
M  V30 51 1 48 21
M  V30 52 1 49 22
M  V30 53 1 50 22
M  V30 54 1 51 24
M  V30 55 1 52 24
M  V30 56 1 53 25
M  V30 57 1 54 25
M  V30 58 1 55 2
M  V30 END BOND
M  V30 END CTAB
M  END
>  <b_m_subgroup_collapsed>  (1956) 
0

>  <r_i_docking_score>  (1956) 
-6.4256765666363798

>  <s_m_subgroup_title>  (1956) 
glide-dock_SP_D22_pv

>  <s_m_subgroupid>  (1956) 
glide-dock_SP_D22_pv

>  <Molecule ChEMBL ID>  (1956) 
CHEMBL5396600

>  <Standard Type>  (1956) 
Ki

>  <Standard Value>  (1956) 
83.4

>  <label>  (1956) 
1

$$$$
CHEMBL25074
     RDKit          3D

  0  0  0  0  0  0  0  0  0  0999 V3000
M  V30 BEGIN CTAB
M  V30 COUNTS 52 55 0 0 1
M  V30 BEGIN ATOM
M  V30 1 C 6.378848 7.637772 -12.899691 0
M  V30 2 N 7.685871 7.270779 -12.280807 0 CFG=2 CHG=1
M  V30 3 C 8.494213 8.504048 -12.081122 0
M  V30 4 C 9.768259 8.202107 -11.291957 0 CFG=1
M  V30 5 N 9.416991 7.665720 -9.982045 0
M  V30 6 C 10.253101 7.549393 -8.939719 0
M  V30 7 O 11.461004 7.769497 -9.031479 0
M  V30 8 C 9.607771 7.181180 -7.588058 0
M  V30 9 C 8.688013 5.950675 -7.751432 0
M  V30 10 C 10.683058 6.851944 -6.528489 0
M  V30 11 C 8.796934 8.402691 -7.113146 0
M  V30 12 C 10.636797 7.260266 -12.129752 0
M  V30 13 C 9.882432 5.967988 -12.470175 0 CFG=2
M  V30 14 C 10.655031 5.090338 -13.446524 0
M  V30 15 C 11.989268 5.196335 -13.887318 0
M  V30 16 C 12.482875 4.252341 -14.804104 0
M  V30 17 C 11.656136 3.193898 -15.230725 0
M  V30 18 C 10.348470 3.090188 -14.785757 0
M  V30 19 N 9.370090 2.173393 -15.046571 0
M  V30 20 C 8.206950 2.556629 -14.408609 0
M  V30 21 Cl 6.808440 1.584200 -14.579281 0
M  V30 22 C 8.465204 3.731721 -13.758819 0
M  V30 23 C 9.835743 4.053743 -13.926337 0
M  V30 24 C 7.708842 4.785588 -12.968569 0
M  V30 25 C 8.422002 6.172054 -12.980635 0 CFG=1
M  V30 26 H 6.486294 8.171570 -13.846276 0
M  V30 27 H 5.827696 8.320575 -12.251971 0
M  V30 28 H 5.727700 6.777691 -13.044751 0
M  V30 29 H 8.735756 8.965315 -13.040219 0
M  V30 30 H 7.908397 9.245646 -11.534704 0
M  V30 31 H 10.327263 9.116822 -11.117416 0
M  V30 32 H 8.428067 7.533982 -9.786742 0
M  V30 33 H 9.261567 5.048681 -7.968604 0
M  V30 34 H 7.956179 6.071323 -8.548311 0
M  V30 35 H 8.119927 5.772374 -6.839098 0
M  V30 36 H 10.225934 6.573653 -5.578197 0
M  V30 37 H 11.338325 7.703824 -6.338453 0
M  V30 38 H 11.311517 6.016939 -6.842605 0
M  V30 39 H 8.190955 8.159403 -6.245897 0
M  V30 40 H 8.098911 8.767459 -7.867447 0
M  V30 41 H 9.453086 9.231120 -6.847429 0
M  V30 42 H 10.926908 7.769596 -13.046676 0
M  V30 43 H 11.567040 7.031950 -11.609951 0
M  V30 44 H 9.824073 5.402112 -11.537721 0
M  V30 45 H 12.633315 5.991774 -13.542247 0
M  V30 46 H 13.496135 4.330318 -15.169747 0
M  V30 47 H 12.050922 2.455133 -15.913093 0
M  V30 48 H 9.464373 1.351328 -15.625061 0
M  V30 49 H 6.704422 4.864931 -13.382471 0
M  V30 50 H 7.578769 4.448695 -11.938792 0
M  V30 51 H 8.456814 6.477520 -14.015403 0
M  V30 52 H 7.429736 6.975270 -11.341179 0
M  V30 END ATOM
M  V30 BEGIN BOND
M  V30 1 1 2 1
M  V30 2 1 3 2
M  V30 3 1 4 3
M  V30 4 1 5 4
M  V30 5 1 6 5
M  V30 6 2 7 6
M  V30 7 1 8 6
M  V30 8 1 9 8
M  V30 9 1 10 8
M  V30 10 1 11 8
M  V30 11 1 12 4
M  V30 12 1 13 12
M  V30 13 1 14 13
M  V30 14 1 15 14
M  V30 15 2 16 15
M  V30 16 1 17 16
M  V30 17 2 18 17
M  V30 18 1 19 18
M  V30 19 1 20 19
M  V30 20 1 21 20
M  V30 21 2 22 20
M  V30 22 2 23 14
M  V30 23 1 23 18
M  V30 24 1 23 22
M  V30 25 1 24 22
M  V30 26 1 25 2
M  V30 27 1 25 13
M  V30 28 1 25 24
M  V30 29 1 26 1
M  V30 30 1 27 1
M  V30 31 1 28 1
M  V30 32 1 29 3
M  V30 33 1 30 3
M  V30 34 1 4 31 CFG=1
M  V30 35 1 32 5
M  V30 36 1 33 9
M  V30 37 1 34 9
M  V30 38 1 35 9
M  V30 39 1 36 10
M  V30 40 1 37 10
M  V30 41 1 38 10
M  V30 42 1 39 11
M  V30 43 1 40 11
M  V30 44 1 41 11
M  V30 45 1 42 12
M  V30 46 1 43 12
M  V30 47 1 13 44 CFG=1
M  V30 48 1 45 15
M  V30 49 1 46 16
M  V30 50 1 47 17
M  V30 51 1 48 19
M  V30 52 1 49 24
M  V30 53 1 50 24
M  V30 54 1 25 51 CFG=3
M  V30 55 1 2 52 CFG=1
M  V30 END BOND
M  V30 END CTAB
M  END
>  <b_m_subgroup_collapsed>  (1957) 
0

>  <r_i_docking_score>  (1957) 
-6.4205454673922198

>  <s_m_subgroup_title>  (1957) 
glide-dock_SP_D22_pv

>  <s_m_subgroupid>  (1957) 
glide-dock_SP_D22_pv

>  <Molecule ChEMBL ID>  (1957) 
CHEMBL25074

>  <Standard Type>  (1957) 
Ki

>  <Standard Value>  (1957) 
3.6

>  <label>  (1957) 
1

$$$$
CHEMBL240021
     RDKit          3D

  0  0  0  0  0  0  0  0  0  0999 V3000
M  V30 BEGIN CTAB
M  V30 COUNTS 64 67 0 0 1
M  V30 BEGIN ATOM
M  V30 1 C 12.285599 10.058704 -6.338329 0
M  V30 2 O 11.484973 8.934394 -6.045224 0
M  V30 3 C 11.037521 8.164490 -7.097253 0
M  V30 4 C 11.269300 8.495732 -8.453471 0
M  V30 5 C 10.747037 7.705838 -9.489697 0
M  V30 6 C 9.933984 6.591513 -9.197610 0
M  V30 7 C 9.712467 6.247341 -7.848231 0
M  V30 8 C 10.294335 6.997983 -6.801270 0
M  V30 9 O 10.082196 6.573323 -5.511184 0
M  V30 10 C 11.212019 6.509423 -4.653124 0
M  V30 11 C 9.301523 5.758600 -10.312362 0
M  V30 12 N 9.685963 6.167401 -11.683576 0 CHG=1
M  V30 13 C 9.710689 5.335003 -12.746679 0
M  V30 14 N 9.409460 4.022998 -12.710207 0
M  V30 15 C 9.654461 3.227154 -13.884001 0
M  V30 16 C 8.748350 2.201181 -14.246889 0
M  V30 17 C 9.030448 1.361349 -15.345300 0
M  V30 18 C 10.191327 1.613961 -16.095001 0
M  V30 19 C 11.041544 2.673634 -15.792740 0
M  V30 20 C 10.816176 3.469546 -14.648977 0
M  V30 21 N 12.079859 2.728156 -16.758512 0
M  V30 22 C 12.885979 3.817665 -17.112228 0
M  V30 23 O 13.711518 3.814521 -18.025856 0
M  V30 24 O 12.581627 4.904727 -16.359669 0
M  V30 25 C 13.049705 6.232363 -16.605047 0
M  V30 26 C 14.577716 6.337537 -16.456137 0
M  V30 27 C 12.568675 6.752494 -17.975355 0
M  V30 28 C 12.380614 7.061213 -15.494108 0
M  V30 29 C 12.010687 1.554587 -17.638826 0
M  V30 30 C 10.689307 0.837597 -17.281401 0
M  V30 31 C 10.036007 7.577816 -11.916230 0
M  V30 32 C 11.073977 8.078142 -10.916151 0
M  V30 33 H 12.724631 10.453886 -5.429157 0
M  V30 34 H 13.106119 9.772212 -6.993864 0
M  V30 35 H 11.686482 10.846137 -6.795915 0
M  V30 36 H 11.848698 9.361584 -8.733696 0
M  V30 37 H 9.105178 5.387820 -7.607447 0
M  V30 38 H 11.030738 5.773269 -3.871458 0
M  V30 39 H 12.093184 6.184566 -5.203441 0
M  V30 40 H 11.413248 7.459134 -4.154727 0
M  V30 41 H 8.215772 5.815794 -10.219489 0
M  V30 42 H 9.583584 4.717538 -10.151145 0
M  V30 43 H 9.982754 5.765095 -13.704523 0
M  V30 44 H 7.846533 2.036006 -13.680456 0
M  V30 45 H 8.368196 0.548001 -15.605865 0
M  V30 46 H 11.507195 4.240942 -14.347319 0
M  V30 47 H 14.904856 6.003939 -15.472182 0
M  V30 48 H 15.115556 5.754450 -17.202194 0
M  V30 49 H 14.887100 7.372436 -16.579947 0
M  V30 50 H 11.489499 6.638974 -18.082386 0
M  V30 51 H 12.799530 7.811291 -18.097088 0
M  V30 52 H 13.040254 6.225510 -18.804766 0
M  V30 53 H 12.696654 6.729007 -14.505136 0
M  V30 54 H 12.632370 8.118653 -15.580348 0
M  V30 55 H 11.295362 6.972470 -15.541174 0
M  V30 56 H 12.028145 1.832968 -18.694149 0
M  V30 57 H 12.872998 0.914457 -17.449827 0
M  V30 58 H 10.851760 -0.208234 -17.022104 0
M  V30 59 H 9.964794 0.892963 -18.093479 0
M  V30 60 H 10.449386 7.708416 -12.914237 0
M  V30 61 H 9.123852 8.172479 -11.846779 0
M  V30 62 H 11.156296 9.159982 -10.984167 0
M  V30 63 H 12.057339 7.674694 -11.163268 0
M  V30 64 H 8.823568 3.680251 -11.961909 0
M  V30 END ATOM
M  V30 BEGIN BOND
M  V30 1 1 2 1
M  V30 2 1 3 2
M  V30 3 1 4 3
M  V30 4 2 5 4
M  V30 5 1 6 5
M  V30 6 2 7 6
M  V30 7 2 8 3
M  V30 8 1 8 7
M  V30 9 1 9 8
M  V30 10 1 10 9
M  V30 11 1 11 6
M  V30 12 1 12 11
M  V30 13 2 13 12 CFG=2
M  V30 14 1 14 13
M  V30 15 1 15 14
M  V30 16 1 16 15
M  V30 17 2 17 16
M  V30 18 1 18 17
M  V30 19 2 19 18
M  V30 20 2 20 15
M  V30 21 1 20 19
M  V30 22 1 21 19
M  V30 23 1 22 21
M  V30 24 2 23 22
M  V30 25 1 24 22
M  V30 26 1 25 24
M  V30 27 1 26 25
M  V30 28 1 27 25
M  V30 29 1 28 25
M  V30 30 1 29 21
M  V30 31 1 30 18
M  V30 32 1 30 29
M  V30 33 1 31 12
M  V30 34 1 32 5
M  V30 35 1 32 31
M  V30 36 1 33 1
M  V30 37 1 34 1
M  V30 38 1 35 1
M  V30 39 1 36 4
M  V30 40 1 37 7
M  V30 41 1 38 10
M  V30 42 1 39 10
M  V30 43 1 40 10
M  V30 44 1 41 11
M  V30 45 1 42 11
M  V30 46 1 43 13
M  V30 47 1 44 16
M  V30 48 1 45 17
M  V30 49 1 46 20
M  V30 50 1 47 26
M  V30 51 1 48 26
M  V30 52 1 49 26
M  V30 53 1 50 27
M  V30 54 1 51 27
M  V30 55 1 52 27
M  V30 56 1 53 28
M  V30 57 1 54 28
M  V30 58 1 55 28
M  V30 59 1 56 29
M  V30 60 1 57 29
M  V30 61 1 58 30
M  V30 62 1 59 30
M  V30 63 1 60 31
M  V30 64 1 61 31
M  V30 65 1 62 32
M  V30 66 1 63 32
M  V30 67 1 64 14
M  V30 END BOND
M  V30 END CTAB
M  END
>  <b_m_subgroup_collapsed>  (1958) 
0

>  <r_i_docking_score>  (1958) 
-6.4181043752593103

>  <s_m_subgroup_title>  (1958) 
glide-dock_SP_D22_pv

>  <s_m_subgroupid>  (1958) 
glide-dock_SP_D22_pv

>  <Molecule ChEMBL ID>  (1958) 
CHEMBL240021

>  <Standard Type>  (1958) 
Ki

>  <Standard Value>  (1958) 
54000.0

>  <label>  (1958) 
0

$$$$
CHEMBL4073520
     RDKit          3D

  0  0  0  0  0  0  0  0  0  0999 V3000
M  V30 BEGIN CTAB
M  V30 COUNTS 29 30 0 0 1
M  V30 BEGIN ATOM
M  V30 1 C 9.083132 4.700642 -9.476288 0
M  V30 2 C 9.118511 6.233032 -9.465683 0
M  V30 3 C 9.730799 6.793787 -10.763258 0
M  V30 4 N 9.846066 6.687594 -8.284307 0
M  V30 5 C 9.867682 7.943155 -7.805265 0
M  V30 6 O 9.352149 8.899635 -8.383909 0
M  V30 7 C 10.560668 8.155104 -6.515656 0
M  V30 8 C 10.837409 9.315364 -5.837811 0
M  V30 9 C 11.415880 8.941783 -4.580446 0
M  V30 10 C 11.817225 9.642249 -3.421138 0
M  V30 11 C 12.352895 8.971791 -2.304413 0
M  V30 12 C 12.485698 7.573750 -2.317502 0
M  V30 13 C 12.084549 6.846319 -3.450220 0
M  V30 14 C 11.550236 7.524681 -4.559449 0
M  V30 15 N 11.016336 7.084060 -5.753158 0
M  V30 16 H 8.518970 4.339748 -10.336647 0
M  V30 17 H 10.085932 4.275548 -9.530675 0
M  V30 18 H 8.599338 4.308499 -8.579648 0
M  V30 19 H 8.086246 6.572320 -9.386742 0
M  V30 20 H 9.237692 6.372458 -11.639816 0
M  V30 21 H 9.612948 7.875610 -10.824987 0
M  V30 22 H 10.795410 6.572620 -10.837449 0
M  V30 23 H 10.314426 5.973691 -7.750220 0
M  V30 24 H 10.603046 10.320556 -6.155194 0
M  V30 25 H 11.685246 10.709239 -3.372349 0
M  V30 26 H 12.645618 9.534344 -1.430418 0
M  V30 27 H 12.885836 7.058065 -1.456794 0
M  V30 28 H 12.157942 5.772418 -3.454713 0
M  V30 29 H 10.897799 6.115676 -6.011283 0
M  V30 END ATOM
M  V30 BEGIN BOND
M  V30 1 1 2 1
M  V30 2 1 3 2
M  V30 3 1 4 2
M  V30 4 1 5 4
M  V30 5 2 6 5
M  V30 6 1 7 5
M  V30 7 2 8 7
M  V30 8 1 9 8
M  V30 9 2 10 9
M  V30 10 1 11 10
M  V30 11 2 12 11
M  V30 12 1 13 12
M  V30 13 1 14 9
M  V30 14 2 14 13
M  V30 15 1 15 7
M  V30 16 1 15 14
M  V30 17 1 16 1
M  V30 18 1 17 1
M  V30 19 1 18 1
M  V30 20 1 19 2
M  V30 21 1 20 3
M  V30 22 1 21 3
M  V30 23 1 22 3
M  V30 24 1 23 4
M  V30 25 1 24 8
M  V30 26 1 25 10
M  V30 27 1 26 11
M  V30 28 1 27 12
M  V30 29 1 28 13
M  V30 30 1 29 15
M  V30 END BOND
M  V30 END CTAB
M  END
>  <b_m_subgroup_collapsed>  (1959) 
0

>  <r_i_docking_score>  (1959) 
-6.4180650504969101

>  <s_m_subgroup_title>  (1959) 
glide-dock_SP_D22_pv

>  <s_m_subgroupid>  (1959) 
glide-dock_SP_D22_pv

>  <Molecule ChEMBL ID>  (1959) 
CHEMBL4073520

>  <Standard Type>  (1959) 
Ki

>  <Standard Value>  (1959) 
100000.0

>  <label>  (1959) 
0

$$$$
CHEMBL241102
     RDKit          3D

  0  0  0  0  0  0  0  0  0  0999 V3000
M  V30 BEGIN CTAB
M  V30 COUNTS 56 59 0 0 1
M  V30 BEGIN ATOM
M  V30 1 C 12.589215 9.877889 -5.742999 0
M  V30 2 O 11.475348 9.050447 -5.473370 0
M  V30 3 C 10.952188 8.352576 -6.536881 0
M  V30 4 C 11.049613 8.821606 -7.864707 0
M  V30 5 C 10.447142 8.116899 -8.921285 0
M  V30 6 C 9.687348 6.956666 -8.664974 0
M  V30 7 C 9.595523 6.485943 -7.344739 0
M  V30 8 C 10.261601 7.143094 -6.291776 0
M  V30 9 O 10.197356 6.572386 -5.047493 0
M  V30 10 C 11.439147 6.352161 -4.393146 0
M  V30 11 C 8.966710 6.211946 -9.783260 0
M  V30 12 N 9.180278 6.793445 -11.125519 0 CHG=1
M  V30 13 C 9.248083 6.054760 -12.250991 0
M  V30 14 N 8.969791 4.740775 -12.310233 0
M  V30 15 C 9.426754 3.959102 -13.425518 0
M  V30 16 C 10.688853 4.231874 -14.008554 0
M  V30 17 C 11.208120 3.373227 -15.003361 0
M  V30 18 C 10.460644 2.233809 -15.356257 0
M  V30 19 C 9.227063 1.969803 -14.774738 0
M  V30 20 C 8.656149 2.855930 -13.849934 0
M  V30 21 C 8.722285 0.605327 -15.171061 0 CFG=1
M  V30 22 O 7.317511 0.508077 -15.388811 0
M  V30 23 C 6.513281 0.029969 -14.409750 0
M  V30 24 C 5.067658 -0.145488 -14.853678 0
M  V30 25 O 6.856066 -0.244769 -13.260814 0
M  V30 26 C 9.565661 0.277732 -16.424358 0
M  V30 27 C 10.844041 1.149680 -16.330408 0
M  V30 28 C 9.413886 8.242270 -11.214378 0
M  V30 29 C 10.596837 8.640945 -10.325955 0
M  V30 30 H 13.123031 10.081846 -4.815188 0
M  V30 31 H 13.285700 9.373045 -6.413558 0
M  V30 32 H 12.284908 10.829395 -6.180651 0
M  V30 33 H 11.570498 9.739759 -8.087664 0
M  V30 34 H 9.027554 5.592652 -7.137596 0
M  V30 35 H 11.274734 5.777236 -3.485777 0
M  V30 36 H 12.098428 5.777183 -5.040340 0
M  V30 37 H 11.948253 7.258388 -4.075000 0
M  V30 38 H 7.899002 6.172671 -9.567599 0
M  V30 39 H 9.328904 5.184126 -9.774517 0
M  V30 40 H 9.560285 6.554995 -13.155279 0
M  V30 41 H 11.280386 5.071030 -13.673084 0
M  V30 42 H 12.174746 3.559504 -15.447194 0
M  V30 43 H 7.680539 2.639365 -13.446558 0
M  V30 44 H 9.031528 -0.080159 -14.381079 0
M  V30 45 H 4.402134 0.440170 -14.217812 0
M  V30 46 H 4.937292 0.172821 -15.887058 0
M  V30 47 H 4.781384 -1.194662 -14.785789 0
M  V30 48 H 9.766973 -0.786711 -16.546238 0
M  V30 49 H 9.006166 0.602924 -17.302418 0
M  V30 50 H 11.140420 1.556815 -17.297029 0
M  V30 51 H 11.680224 0.583349 -15.921558 0
M  V30 52 H 9.586433 8.546547 -12.245854 0
M  V30 53 H 8.507340 8.751177 -10.882396 0
M  V30 54 H 10.698400 9.718687 -10.247005 0
M  V30 55 H 11.531322 8.266562 -10.746132 0
M  V30 56 H 8.307510 4.361998 -11.643989 0
M  V30 END ATOM
M  V30 BEGIN BOND
M  V30 1 1 2 1
M  V30 2 1 3 2
M  V30 3 1 4 3
M  V30 4 2 5 4
M  V30 5 1 6 5
M  V30 6 2 7 6
M  V30 7 2 8 3
M  V30 8 1 8 7
M  V30 9 1 9 8
M  V30 10 1 10 9
M  V30 11 1 11 6
M  V30 12 1 12 11
M  V30 13 2 13 12 CFG=2
M  V30 14 1 14 13
M  V30 15 1 15 14
M  V30 16 1 16 15
M  V30 17 2 17 16
M  V30 18 1 18 17
M  V30 19 2 19 18
M  V30 20 2 20 15
M  V30 21 1 20 19
M  V30 22 1 21 19
M  V30 23 1 22 21
M  V30 24 1 23 22
M  V30 25 1 24 23
M  V30 26 2 25 23
M  V30 27 1 26 21
M  V30 28 1 27 18
M  V30 29 1 27 26
M  V30 30 1 28 12
M  V30 31 1 29 5
M  V30 32 1 29 28
M  V30 33 1 30 1
M  V30 34 1 31 1
M  V30 35 1 32 1
M  V30 36 1 33 4
M  V30 37 1 34 7
M  V30 38 1 35 10
M  V30 39 1 36 10
M  V30 40 1 37 10
M  V30 41 1 38 11
M  V30 42 1 39 11
M  V30 43 1 40 13
M  V30 44 1 41 16
M  V30 45 1 42 17
M  V30 46 1 43 20
M  V30 47 1 21 44 CFG=1
M  V30 48 1 45 24
M  V30 49 1 46 24
M  V30 50 1 47 24
M  V30 51 1 48 26
M  V30 52 1 49 26
M  V30 53 1 50 27
M  V30 54 1 51 27
M  V30 55 1 52 28
M  V30 56 1 53 28
M  V30 57 1 54 29
M  V30 58 1 55 29
M  V30 59 1 56 14
M  V30 END BOND
M  V30 END CTAB
M  END
>  <b_m_subgroup_collapsed>  (1960) 
0

>  <r_i_docking_score>  (1960) 
-6.41733641020795

>  <s_m_subgroup_title>  (1960) 
glide-dock_SP_D22_pv

>  <s_m_subgroupid>  (1960) 
glide-dock_SP_D22_pv

>  <Molecule ChEMBL ID>  (1960) 
CHEMBL241102

>  <Standard Type>  (1960) 
Ki

>  <Standard Value>  (1960) 
12000.0

>  <label>  (1960) 
0

$$$$
CHEMBL5882462
     RDKit          3D

  0  0  0  0  0  0  0  0  0  0999 V3000
M  V30 BEGIN CTAB
M  V30 COUNTS 64 68 0 0 1
M  V30 BEGIN ATOM
M  V30 1 C 3.998036 -1.159223 -15.174626 0
M  V30 2 N 5.233127 -0.478749 -15.526808 0
M  V30 3 C 6.014465 0.315429 -14.763536 0
M  V30 4 S 5.684474 0.600138 -13.046262 0
M  V30 5 C 5.673251 2.427919 -12.932425 0
M  V30 6 C 6.950428 3.103421 -13.463245 0
M  V30 7 C 7.413411 4.362646 -12.706899 0
M  V30 8 N 8.825890 4.647416 -13.038441 0 CFG=2 CHG=1
M  V30 9 C 9.483617 5.719335 -12.270863 0
M  V30 10 C 10.742703 6.059779 -13.096181 0
M  V30 11 C 10.538099 5.418157 -14.455625 0 CFG=1
M  V30 12 C 11.230955 5.912054 -15.704336 0
M  V30 13 C 11.644720 4.594968 -15.096907 0 CFG=2
M  V30 14 C 11.361651 3.293271 -15.786624 0
M  V30 15 C 11.605587 3.160307 -17.170746 0
M  V30 16 C 11.309477 1.958093 -17.837770 0
M  V30 17 C 10.764118 0.863898 -17.134777 0
M  V30 18 C 10.451665 -0.423471 -17.879862 0
M  V30 19 F 9.467182 -0.209869 -18.753805 0
M  V30 20 F 11.533243 -0.824547 -18.548477 0
M  V30 21 F 10.086167 -1.399177 -17.049767 0
M  V30 22 C 10.521612 0.990199 -15.748811 0
M  V30 23 C 10.837411 2.187790 -15.078025 0
M  V30 24 C 9.100425 4.953140 -14.453588 0
M  V30 25 N 7.058665 0.829110 -15.421654 0
M  V30 26 N 6.951186 0.373750 -16.711893 0
M  V30 27 C 5.885633 -0.427701 -16.709587 0
M  V30 28 N 5.438408 -1.123550 -17.829929 0
M  V30 29 C 5.027357 -2.524680 -17.888506 0
M  V30 30 C 3.641386 -2.660366 -18.538374 0
M  V30 31 O 3.691928 -2.110057 -19.849260 0
M  V30 32 C 4.080914 -0.740711 -19.842165 0
M  V30 33 C 5.468811 -0.604994 -19.192595 0
M  V30 34 H 3.262085 -1.014415 -15.963683 0
M  V30 35 H 4.185330 -2.224671 -15.048696 0
M  V30 36 H 3.574430 -0.761665 -14.253903 0
M  V30 37 H 5.538933 2.669647 -11.878488 0
M  V30 38 H 4.800088 2.821472 -13.447188 0
M  V30 39 H 6.797707 3.349444 -14.515571 0
M  V30 40 H 7.771255 2.388135 -13.447405 0
M  V30 41 H 7.345462 4.194925 -11.628991 0
M  V30 42 H 6.773229 5.215914 -12.939136 0
M  V30 43 H 9.713862 5.406085 -11.250841 0
M  V30 44 H 8.823346 6.589345 -12.217847 0
M  V30 45 H 11.648733 5.660782 -12.647191 0
M  V30 46 H 10.886765 7.137496 -13.183405 0
M  V30 47 H 11.904448 6.758353 -15.589911 0
M  V30 48 H 10.651333 5.897780 -16.624889 0
M  V30 49 H 12.614930 4.559320 -14.602776 0
M  V30 50 H 12.015161 3.992176 -17.727489 0
M  V30 51 H 11.498505 1.876062 -18.899414 0
M  V30 52 H 10.100952 0.163553 -15.194544 0
M  V30 53 H 10.649729 2.258999 -14.016307 0
M  V30 54 H 8.466089 5.772289 -14.785501 0
M  V30 55 H 8.931968 4.106803 -15.119562 0
M  V30 56 H 5.758502 -3.086527 -18.472158 0
M  V30 57 H 5.032725 -2.978701 -16.899067 0
M  V30 58 H 3.347007 -3.708757 -18.601948 0
M  V30 59 H 2.886946 -2.145305 -17.945585 0
M  V30 60 H 4.106852 -0.369665 -20.865528 0
M  V30 61 H 3.337395 -0.141299 -19.309881 0
M  V30 62 H 5.764528 0.445497 -19.183971 0
M  V30 63 H 6.217543 -1.141306 -19.777349 0
M  V30 64 H 9.345387 3.807280 -12.831736 0
M  V30 END ATOM
M  V30 BEGIN BOND
M  V30 1 1 2 1
M  V30 2 1 3 2
M  V30 3 1 4 3
M  V30 4 1 5 4
M  V30 5 1 6 5
M  V30 6 1 7 6
M  V30 7 1 8 7
M  V30 8 1 9 8
M  V30 9 1 10 9
M  V30 10 1 11 10 CFG=1
M  V30 11 1 12 11
M  V30 12 1 13 11
M  V30 13 1 13 12
M  V30 14 1 14 13
M  V30 15 1 15 14
M  V30 16 2 16 15
M  V30 17 1 17 16
M  V30 18 1 18 17
M  V30 19 1 19 18
M  V30 20 1 20 18
M  V30 21 1 21 18
M  V30 22 2 22 17
M  V30 23 2 23 14
M  V30 24 1 23 22
M  V30 25 1 24 8
M  V30 26 1 24 11
M  V30 27 2 25 3
M  V30 28 1 26 25
M  V30 29 1 27 2
M  V30 30 2 27 26
M  V30 31 1 28 27
M  V30 32 1 29 28
M  V30 33 1 30 29
M  V30 34 1 31 30
M  V30 35 1 32 31
M  V30 36 1 33 28
M  V30 37 1 33 32
M  V30 38 1 34 1
M  V30 39 1 35 1
M  V30 40 1 36 1
M  V30 41 1 37 5
M  V30 42 1 38 5
M  V30 43 1 39 6
M  V30 44 1 40 6
M  V30 45 1 41 7
M  V30 46 1 42 7
M  V30 47 1 43 9
M  V30 48 1 44 9
M  V30 49 1 45 10
M  V30 50 1 46 10
M  V30 51 1 47 12
M  V30 52 1 48 12
M  V30 53 1 13 49 CFG=1
M  V30 54 1 50 15
M  V30 55 1 51 16
M  V30 56 1 52 22
M  V30 57 1 53 23
M  V30 58 1 54 24
M  V30 59 1 55 24
M  V30 60 1 56 29
M  V30 61 1 57 29
M  V30 62 1 58 30
M  V30 63 1 59 30
M  V30 64 1 60 32
M  V30 65 1 61 32
M  V30 66 1 62 33
M  V30 67 1 63 33
M  V30 68 1 8 64 CFG=1
M  V30 END BOND
M  V30 END CTAB
M  END
>  <b_m_subgroup_collapsed>  (1961) 
0

>  <r_i_docking_score>  (1961) 
-6.4157039056419798

>  <s_m_subgroup_title>  (1961) 
glide-dock_SP_D22_pv

>  <s_m_subgroupid>  (1961) 
glide-dock_SP_D22_pv

>  <Molecule ChEMBL ID>  (1961) 
CHEMBL5882462

>  <Standard Type>  (1961) 
Ki

>  <Standard Value>  (1961) 
41.7

>  <label>  (1961) 
1

$$$$
CHEMBL4209888
     RDKit          3D

  0  0  0  0  0  0  0  0  0  0999 V3000
M  V30 BEGIN CTAB
M  V30 COUNTS 56 58 0 0 1
M  V30 BEGIN ATOM
M  V30 1 C 11.874679 10.682878 -6.246693 0
M  V30 2 O 10.925872 10.317611 -5.262492 0
M  V30 3 C 11.286290 9.182486 -4.585942 0
M  V30 4 C 11.742361 9.338334 -3.262689 0
M  V30 5 C 12.138773 8.220320 -2.508693 0
M  V30 6 C 12.088893 6.940205 -3.085328 0
M  V30 7 C 11.644812 6.776723 -4.411511 0
M  V30 8 C 11.218930 7.888232 -5.175506 0
M  V30 9 N 10.721561 7.712226 -6.483880 0
M  V30 10 C 11.122703 6.591232 -7.319499 0
M  V30 11 C 11.045006 7.015357 -8.808257 0
M  V30 12 N 9.706644 7.496390 -9.172567 0
M  V30 13 C 9.693803 7.960022 -10.565368 0
M  V30 14 C 8.955594 6.990006 -11.503812 0
M  V30 15 C 9.767419 5.824025 -12.070623 0
M  V30 16 O 10.886189 6.311018 -12.809207 0
M  V30 17 C 11.388786 5.536871 -13.837841 0
M  V30 18 C 10.987121 4.198935 -14.085045 0
M  V30 19 C 11.505405 3.483255 -15.178438 0
M  V30 20 C 12.446195 4.086468 -16.033169 0
M  V30 21 C 13.016835 3.326228 -17.207804 0
M  V30 22 C 12.880554 5.399222 -15.776243 0
M  V30 23 C 12.361635 6.120852 -14.682681 0
M  V30 24 C 12.864104 7.527260 -14.420959 0
M  V30 25 C 9.335717 8.604787 -8.287202 0
M  V30 26 C 9.375211 8.164562 -6.813042 0
M  V30 27 H 11.691972 11.699698 -6.591880 0
M  V30 28 H 12.886386 10.631602 -5.847792 0
M  V30 29 H 11.816555 10.022573 -7.107318 0
M  V30 30 H 11.787943 10.324431 -2.822329 0
M  V30 31 H 12.479811 8.346952 -1.491291 0
M  V30 32 H 12.385938 6.077328 -2.507687 0
M  V30 33 H 11.600608 5.776846 -4.819550 0
M  V30 34 H 12.131045 6.266985 -7.058029 0
M  V30 35 H 10.452257 5.753200 -7.135304 0
M  V30 36 H 11.787122 7.791406 -9.002337 0
M  V30 37 H 11.285566 6.172386 -9.449614 0
M  V30 38 H 9.139561 8.898644 -10.619947 0
M  V30 39 H 10.693389 8.193421 -10.934964 0
M  V30 40 H 8.085978 6.575665 -11.005001 0
M  V30 41 H 8.565915 7.565784 -12.343657 0
M  V30 42 H 10.086736 5.152931 -11.274206 0
M  V30 43 H 9.075843 5.274081 -12.708120 0
M  V30 44 H 10.280275 3.687388 -13.450921 0
M  V30 45 H 11.181574 2.468303 -15.350262 0
M  V30 46 H 12.874539 3.887859 -18.132450 0
M  V30 47 H 14.085779 3.179334 -17.050570 0
M  V30 48 H 12.546213 2.348617 -17.323874 0
M  V30 49 H 13.619069 5.851232 -16.421955 0
M  V30 50 H 13.685858 7.776371 -15.091525 0
M  V30 51 H 12.075548 8.258384 -14.582303 0
M  V30 52 H 13.222507 7.622369 -13.394980 0
M  V30 53 H 10.015553 9.441323 -8.444167 0
M  V30 54 H 8.334132 8.957967 -8.532841 0
M  V30 55 H 8.662887 7.354923 -6.649148 0
M  V30 56 H 9.054920 8.979775 -6.176387 0
M  V30 END ATOM
M  V30 BEGIN BOND
M  V30 1 1 2 1
M  V30 2 1 3 2
M  V30 3 2 4 3
M  V30 4 1 5 4
M  V30 5 2 6 5
M  V30 6 1 7 6
M  V30 7 1 8 3
M  V30 8 2 8 7
M  V30 9 1 9 8
M  V30 10 1 10 9
M  V30 11 1 11 10
M  V30 12 1 12 11
M  V30 13 1 13 12
M  V30 14 1 14 13
M  V30 15 1 15 14
M  V30 16 1 16 15
M  V30 17 1 17 16
M  V30 18 1 18 17
M  V30 19 2 19 18
M  V30 20 1 20 19
M  V30 21 1 21 20
M  V30 22 2 22 20
M  V30 23 2 23 17
M  V30 24 1 23 22
M  V30 25 1 24 23
M  V30 26 1 25 12
M  V30 27 1 26 9
M  V30 28 1 26 25
M  V30 29 1 27 1
M  V30 30 1 28 1
M  V30 31 1 29 1
M  V30 32 1 30 4
M  V30 33 1 31 5
M  V30 34 1 32 6
M  V30 35 1 33 7
M  V30 36 1 34 10
M  V30 37 1 35 10
M  V30 38 1 36 11
M  V30 39 1 37 11
M  V30 40 1 38 13
M  V30 41 1 39 13
M  V30 42 1 40 14
M  V30 43 1 41 14
M  V30 44 1 42 15
M  V30 45 1 43 15
M  V30 46 1 44 18
M  V30 47 1 45 19
M  V30 48 1 46 21
M  V30 49 1 47 21
M  V30 50 1 48 21
M  V30 51 1 49 22
M  V30 52 1 50 24
M  V30 53 1 51 24
M  V30 54 1 52 24
M  V30 55 1 53 25
M  V30 56 1 54 25
M  V30 57 1 55 26
M  V30 58 1 56 26
M  V30 END BOND
M  V30 END CTAB
M  END
>  <b_m_subgroup_collapsed>  (1962) 
0

>  <r_i_docking_score>  (1962) 
-6.4144791469794704

>  <s_m_subgroup_title>  (1962) 
glide-dock_SP_D22_pv

>  <s_m_subgroupid>  (1962) 
glide-dock_SP_D22_pv

>  <Molecule ChEMBL ID>  (1962) 
CHEMBL4209888

>  <Standard Type>  (1962) 
Ki

>  <Standard Value>  (1962) 
97.0

>  <label>  (1962) 
1

$$$$
CHEMBL4555115
     RDKit          3D

  0  0  0  0  0  0  0  0  0  0999 V3000
M  V30 BEGIN CTAB
M  V30 COUNTS 29 31 0 0 1
M  V30 BEGIN ATOM
M  V30 1 C 11.540586 6.650813 -2.454247 0
M  V30 2 C 11.390940 6.517384 -3.982941 0
M  V30 3 N 11.653149 7.762280 -4.681776 0
M  V30 4 C 12.410515 8.764268 -4.214702 0
M  V30 5 N 12.558874 9.772325 -5.046862 0
M  V30 6 C 11.820881 9.418613 -6.160063 0
M  V30 7 C 11.286022 8.167396 -5.974951 0
M  V30 8 C 10.506958 7.400031 -6.938710 0
M  V30 9 C 9.394223 6.634205 -6.716262 0
M  V30 10 N 8.881620 6.185751 -7.915946 0
M  V30 11 C 9.644925 6.631751 -8.965635 0
M  V30 12 C 9.513593 6.482231 -10.356837 0
M  V30 13 C 10.486021 7.039729 -11.203933 0
M  V30 14 C 11.586576 7.717394 -10.646865 0
M  V30 15 F 12.568800 8.172325 -11.456467 0
M  V30 16 C 11.692534 7.885840 -9.251286 0
M  V30 17 F 12.772865 8.525059 -8.745127 0
M  V30 18 C 10.713447 7.363482 -8.370488 0
M  V30 19 H 11.177197 5.772325 -1.935553 0
M  V30 20 H 12.583477 6.777854 -2.164796 0
M  V30 21 H 10.975143 7.497213 -2.064190 0
M  V30 22 H 10.389002 6.172325 -4.221498 0
M  V30 23 H 12.085631 5.772325 -4.365378 0
M  V30 24 H 12.886022 8.763527 -3.245667 0
M  V30 25 H 11.756655 10.072862 -7.016678 0
M  V30 26 H 8.886022 6.409939 -5.796132 0
M  V30 27 H 7.992281 5.710225 -7.995894 0
M  V30 28 H 8.666744 5.949726 -10.765992 0
M  V30 29 H 10.406462 6.922979 -12.274733 0
M  V30 END ATOM
M  V30 BEGIN BOND
M  V30 1 1 2 1
M  V30 2 1 3 2
M  V30 3 1 4 3
M  V30 4 2 5 4
M  V30 5 1 6 5
M  V30 6 1 7 3
M  V30 7 2 7 6
M  V30 8 1 8 7
M  V30 9 2 9 8
M  V30 10 1 10 9
M  V30 11 1 11 10
M  V30 12 1 12 11
M  V30 13 2 13 12
M  V30 14 1 14 13
M  V30 15 1 15 14
M  V30 16 2 16 14
M  V30 17 1 17 16
M  V30 18 1 18 8
M  V30 19 2 18 11
M  V30 20 1 18 16
M  V30 21 1 19 1
M  V30 22 1 20 1
M  V30 23 1 21 1
M  V30 24 1 22 2
M  V30 25 1 23 2
M  V30 26 1 24 4
M  V30 27 1 25 6
M  V30 28 1 26 9
M  V30 29 1 27 10
M  V30 30 1 28 12
M  V30 31 1 29 13
M  V30 END BOND
M  V30 END CTAB
M  END
>  <b_m_subgroup_collapsed>  (1963) 
0

>  <r_i_docking_score>  (1963) 
-6.4136925739659896

>  <s_m_subgroup_title>  (1963) 
glide-dock_SP_D22_pv

>  <s_m_subgroupid>  (1963) 
glide-dock_SP_D22_pv

>  <Molecule ChEMBL ID>  (1963) 
CHEMBL4555115

>  <Standard Type>  (1963) 
Ki

>  <Standard Value>  (1963) 
10000.0

>  <label>  (1963) 
0

$$$$
CHEMBL241083
     RDKit          3D

  0  0  0  0  0  0  0  0  0  0999 V3000
M  V30 BEGIN CTAB
M  V30 COUNTS 36 39 0 0 1
M  V30 BEGIN ATOM
M  V30 1 C 10.886023 7.379870 -8.698781 0
M  V30 2 C 10.824478 8.157713 -9.870536 0
M  V30 3 C 10.025441 7.737738 -10.951758 0
M  V30 4 C 9.297891 6.529561 -10.874453 0
M  V30 5 C 8.358781 6.137483 -12.005570 0 CFG=2
M  V30 6 N 7.039516 5.772324 -11.446865 0 CHG=1
M  V30 7 C 6.086021 5.192868 -12.418680 0
M  V30 8 C 6.626360 3.896152 -13.056968 0
M  V30 9 C 8.076597 4.041197 -13.409279 0
M  V30 10 C 8.854996 5.042957 -12.898094 0
M  V30 11 N 10.140018 4.921614 -13.397243 0
M  V30 12 C 10.224683 3.823969 -14.234859 0
M  V30 13 C 11.286025 3.284426 -14.981201 0
M  V30 14 C 11.070620 2.128395 -15.753933 0
M  V30 15 C 9.800658 1.520382 -15.770428 0
M  V30 16 C 8.738001 2.072932 -15.027113 0
M  V30 17 C 8.922027 3.238651 -14.246865 0
M  V30 18 C 9.389392 5.737928 -9.706348 0
M  V30 19 C 10.166668 6.172324 -8.616376 0
M  V30 20 H 11.487782 7.707907 -7.863917 0
M  V30 21 H 11.377709 9.084130 -9.933274 0
M  V30 22 H 9.959076 8.358812 -11.833058 0
M  V30 23 H 8.190707 7.020382 -12.624275 0
M  V30 24 H 7.169982 5.102915 -10.702601 0
M  V30 25 H 5.861277 5.940982 -13.177020 0
M  V30 26 H 5.158183 4.972325 -11.896318 0
M  V30 27 H 6.038180 3.647489 -13.941193 0
M  V30 28 H 6.486021 3.068766 -12.361135 0
M  V30 29 H 10.891202 5.557488 -13.169087 0
M  V30 30 H 12.261045 3.748382 -14.961468 0
M  V30 31 H 11.883383 1.701443 -16.324301 0
M  V30 32 H 9.639627 0.627284 -16.356916 0
M  V30 33 H 7.768514 1.598007 -15.051978 0
M  V30 34 H 8.844072 4.809167 -9.622111 0
M  V30 35 H 10.217150 5.575530 -7.717660 0
M  V30 36 H 6.662153 6.632810 -11.010326 0
M  V30 END ATOM
M  V30 BEGIN BOND
M  V30 1 2 2 1
M  V30 2 1 3 2
M  V30 3 2 4 3
M  V30 4 1 5 4
M  V30 5 1 6 5
M  V30 6 1 7 6
M  V30 7 1 8 7
M  V30 8 1 9 8
M  V30 9 1 10 5
M  V30 10 2 10 9
M  V30 11 1 11 10
M  V30 12 1 12 11
M  V30 13 2 13 12
M  V30 14 1 14 13
M  V30 15 2 15 14
M  V30 16 1 16 15
M  V30 17 1 17 9
M  V30 18 1 17 12
M  V30 19 2 17 16
M  V30 20 1 18 4
M  V30 21 1 19 1
M  V30 22 2 19 18
M  V30 23 1 20 1
M  V30 24 1 21 2
M  V30 25 1 22 3
M  V30 26 1 5 23 CFG=3
M  V30 27 1 24 6
M  V30 28 1 25 7
M  V30 29 1 26 7
M  V30 30 1 27 8
M  V30 31 1 28 8
M  V30 32 1 29 11
M  V30 33 1 30 13
M  V30 34 1 31 14
M  V30 35 1 32 15
M  V30 36 1 33 16
M  V30 37 1 34 18
M  V30 38 1 35 19
M  V30 39 1 36 6
M  V30 END BOND
M  V30 END CTAB
M  END
>  <b_m_subgroup_collapsed>  (1964) 
0

>  <r_i_docking_score>  (1964) 
-6.41181602634627

>  <s_m_subgroup_title>  (1964) 
glide-dock_SP_D22_pv

>  <s_m_subgroupid>  (1964) 
glide-dock_SP_D22_pv

>  <Molecule ChEMBL ID>  (1964) 
CHEMBL241083

>  <Standard Type>  (1964) 
Ki

>  <Standard Value>  (1964) 
300000.0

>  <label>  (1964) 
0

$$$$
CHEMBL482977
     RDKit          3D

  0  0  0  0  0  0  0  0  0  0999 V3000
M  V30 BEGIN CTAB
M  V30 COUNTS 41 43 0 0 1
M  V30 BEGIN ATOM
M  V30 1 C 9.882981 4.303872 -12.881311 0
M  V30 2 C 8.702674 5.269841 -12.708585 0
M  V30 3 C 8.979467 6.421637 -11.719828 0
M  V30 4 N 9.422920 5.967490 -10.367951 0 CFG=2 CHG=1
M  V30 5 C 8.381141 5.152382 -9.703575 0
M  V30 6 C 8.848833 4.661100 -8.333093 0
M  V30 7 O 9.203751 5.772207 -7.518273 0
M  V30 8 C 10.297503 6.480156 -8.070015 0 CFG=2
M  V30 9 C 10.863897 7.516487 -7.098474 0
M  V30 10 C 11.118099 7.175679 -5.744916 0
M  V30 11 C 11.685531 8.121323 -4.850412 0
M  V30 12 C 12.072616 7.756103 -3.441484 0
M  V30 13 O 11.963692 6.570857 -3.075067 0
M  V30 14 O 12.486035 8.652451 -2.673264 0 CHG=-1
M  V30 15 C 11.920275 9.430717 -5.308202 0
M  V30 16 C 11.682520 9.770855 -6.648112 0
M  V30 17 C 11.210633 8.807712 -7.561021 0
M  V30 18 C 11.071781 9.176696 -9.031788 0
M  V30 19 C 10.940451 7.983433 -9.972500 0
M  V30 20 C 9.835748 7.063284 -9.438054 0 CFG=1
M  V30 21 H 9.667126 3.570867 -13.657475 0
M  V30 22 H 10.085210 3.749404 -11.965618 0
M  V30 23 H 10.790011 4.831061 -13.168886 0
M  V30 24 H 8.470141 5.706408 -13.680616 0
M  V30 25 H 7.808916 4.711999 -12.429812 0
M  V30 26 H 9.741817 7.037232 -12.189182 0
M  V30 27 H 8.087369 7.046589 -11.624779 0
M  V30 28 H 7.498715 5.778843 -9.592054 0
M  V30 29 H 8.093534 4.291224 -10.303806 0
M  V30 30 H 8.064709 4.089271 -7.847230 0
M  V30 31 H 9.686065 3.976310 -8.462393 0
M  V30 32 H 11.111992 5.775759 -8.235004 0
M  V30 33 H 10.904737 6.173662 -5.397564 0
M  V30 34 H 12.322888 10.172175 -4.636068 0
M  V30 35 H 11.875833 10.779984 -6.968338 0
M  V30 36 H 10.169228 9.772564 -9.134302 0
M  V30 37 H 11.918526 9.772121 -9.362513 0
M  V30 38 H 10.728340 8.387961 -10.959479 0
M  V30 39 H 11.886344 7.444889 -10.044548 0
M  V30 40 H 8.947969 7.680269 -9.268240 0
M  V30 41 H 10.226439 5.372308 -10.506507 0
M  V30 END ATOM
M  V30 BEGIN BOND
M  V30 1 1 2 1
M  V30 2 1 3 2
M  V30 3 1 4 3
M  V30 4 1 5 4
M  V30 5 1 6 5
M  V30 6 1 7 6
M  V30 7 1 8 7
M  V30 8 1 9 8
M  V30 9 1 10 9
M  V30 10 2 11 10
M  V30 11 1 12 11
M  V30 12 2 13 12
M  V30 13 1 14 12
M  V30 14 1 15 11
M  V30 15 2 16 15
M  V30 16 2 17 9
M  V30 17 1 17 16
M  V30 18 1 18 17
M  V30 19 1 19 18
M  V30 20 1 20 4
M  V30 21 1 20 8
M  V30 22 1 20 19
M  V30 23 1 21 1
M  V30 24 1 22 1
M  V30 25 1 23 1
M  V30 26 1 24 2
M  V30 27 1 25 2
M  V30 28 1 26 3
M  V30 29 1 27 3
M  V30 30 1 28 5
M  V30 31 1 29 5
M  V30 32 1 30 6
M  V30 33 1 31 6
M  V30 34 1 8 32 CFG=3
M  V30 35 1 33 10
M  V30 36 1 34 15
M  V30 37 1 35 16
M  V30 38 1 36 18
M  V30 39 1 37 18
M  V30 40 1 38 19
M  V30 41 1 39 19
M  V30 42 1 20 40 CFG=1
M  V30 43 1 4 41 CFG=3
M  V30 END BOND
M  V30 END CTAB
M  END
>  <b_m_subgroup_collapsed>  (1965) 
0

>  <r_i_docking_score>  (1965) 
-6.4117229486415601

>  <s_m_subgroup_title>  (1965) 
glide-dock_SP_D22_pv

>  <s_m_subgroupid>  (1965) 
glide-dock_SP_D22_pv

>  <Molecule ChEMBL ID>  (1965) 
CHEMBL482977

>  <Standard Type>  (1965) 
Ki

>  <Standard Value>  (1965) 
10000.0

>  <label>  (1965) 
0

$$$$
CHEMBL2443002
     RDKit          3D

  0  0  0  0  0  0  0  0  0  0999 V3000
M  V30 BEGIN CTAB
M  V30 COUNTS 59 62 0 0 1
M  V30 BEGIN ATOM
M  V30 1 C 11.788024 11.059351 -6.147153 0
M  V30 2 O 11.208276 9.786939 -6.287296 0
M  V30 3 C 11.443366 8.874697 -5.283615 0
M  V30 4 C 12.175170 9.180637 -4.100734 0
M  V30 5 C 12.462385 8.190877 -3.144483 0
M  V30 6 C 12.027719 6.876686 -3.361678 0
M  V30 7 C 11.285986 6.572702 -4.518944 0
M  V30 8 C 10.960432 7.560717 -5.468711 0
M  V30 9 N 10.153870 7.215823 -6.569499 0
M  V30 10 C 10.517506 6.115161 -7.448253 0
M  V30 11 C 10.717949 6.624398 -8.888288 0
M  V30 12 N 9.524086 7.334777 -9.353194 0
M  V30 13 C 9.674034 7.744341 -10.746586 0
M  V30 14 C 9.770449 6.696045 -11.819490 0
M  V30 15 C 8.860662 5.740948 -12.170783 0
M  V30 16 N 9.473846 5.061686 -13.209000 0
M  V30 17 C 8.943664 3.976476 -14.037001 0 CFG=2
M  V30 18 O 7.779086 3.524553 -13.414775 0
M  V30 19 C 7.004400 2.564440 -14.129150 0 CFG=2
M  V30 20 C 5.782830 2.275474 -13.239157 0
M  V30 21 O 5.029281 3.453867 -13.047082 0
M  V30 22 C 7.854071 1.294457 -14.375040 0 CFG=1
M  V30 23 O 7.168338 0.455467 -15.284098 0
M  V30 24 C 9.220732 1.659186 -14.981429 0 CFG=2
M  V30 25 O 10.037669 0.502621 -14.944575 0
M  V30 26 C 9.907369 2.775759 -14.170885 0 CFG=1
M  V30 27 F 11.003263 3.159631 -14.828155 0
M  V30 28 N 10.691066 5.597451 -13.477522 0
M  V30 29 N 10.885807 6.572976 -12.646119 0
M  V30 30 C 9.314402 8.505873 -8.494651 0
M  V30 31 C 9.052906 8.050121 -7.044187 0
M  V30 32 H 11.682696 11.658158 -7.046582 0
M  V30 33 H 11.286285 11.569735 -5.323307 0
M  V30 34 H 12.858150 10.969206 -5.965611 0
M  V30 35 H 12.545890 10.170425 -3.900245 0
M  V30 36 H 13.017385 8.439531 -2.251121 0
M  V30 37 H 12.238400 6.104076 -2.637907 0
M  V30 38 H 10.910987 5.577470 -4.647965 0
M  V30 39 H 9.719569 5.373076 -7.431794 0
M  V30 40 H 11.427629 5.625805 -7.099173 0
M  V30 41 H 10.885066 5.771254 -9.540573 0
M  V30 42 H 11.596108 7.271381 -8.952225 0
M  V30 43 H 10.535747 8.410294 -10.814577 0
M  V30 44 H 8.813996 8.372525 -10.983961 0
M  V30 45 H 7.876608 5.518095 -11.782863 0
M  V30 46 H 8.691054 4.403195 -15.009300 0
M  V30 47 H 6.677240 2.976263 -15.084281 0
M  V30 48 H 6.084668 1.878913 -12.271078 0
M  V30 49 H 5.143362 1.527518 -13.708655 0
M  V30 50 H 5.586572 4.088249 -12.617819 0
M  V30 51 H 7.999949 0.747764 -13.447012 0
M  V30 52 H 7.696491 -0.316152 -15.445546 0
M  V30 53 H 9.097415 1.984779 -16.017916 0
M  V30 54 H 10.221323 0.304155 -14.037933 0
M  V30 55 H 10.203433 2.458553 -13.172235 0
M  V30 56 H 10.178756 9.169778 -8.541098 0
M  V30 57 H 8.457372 9.075774 -8.853801 0
M  V30 58 H 8.130653 7.468379 -7.001782 0
M  V30 59 H 8.897844 8.909079 -6.391710 0
M  V30 END ATOM
M  V30 BEGIN BOND
M  V30 1 1 2 1
M  V30 2 1 3 2
M  V30 3 2 4 3
M  V30 4 1 5 4
M  V30 5 2 6 5
M  V30 6 1 7 6
M  V30 7 1 8 3
M  V30 8 2 8 7
M  V30 9 1 9 8
M  V30 10 1 10 9
M  V30 11 1 11 10
M  V30 12 1 12 11
M  V30 13 1 13 12
M  V30 14 1 14 13
M  V30 15 2 15 14
M  V30 16 1 16 15
M  V30 17 1 17 16
M  V30 18 1 18 17
M  V30 19 1 19 18
M  V30 20 1 20 19
M  V30 21 1 21 20
M  V30 22 1 22 19
M  V30 23 1 23 22
M  V30 24 1 24 22
M  V30 25 1 25 24
M  V30 26 1 26 17
M  V30 27 1 26 24
M  V30 28 1 27 26
M  V30 29 1 28 16
M  V30 30 1 29 14
M  V30 31 2 29 28
M  V30 32 1 30 12
M  V30 33 1 31 9
M  V30 34 1 31 30
M  V30 35 1 32 1
M  V30 36 1 33 1
M  V30 37 1 34 1
M  V30 38 1 35 4
M  V30 39 1 36 5
M  V30 40 1 37 6
M  V30 41 1 38 7
M  V30 42 1 39 10
M  V30 43 1 40 10
M  V30 44 1 41 11
M  V30 45 1 42 11
M  V30 46 1 43 13
M  V30 47 1 44 13
M  V30 48 1 45 15
M  V30 49 1 17 46 CFG=3
M  V30 50 1 19 47 CFG=3
M  V30 51 1 48 20
M  V30 52 1 49 20
M  V30 53 1 50 21
M  V30 54 1 22 51 CFG=1
M  V30 55 1 52 23
M  V30 56 1 24 53 CFG=3
M  V30 57 1 54 25
M  V30 58 1 26 55 CFG=1
M  V30 59 1 56 30
M  V30 60 1 57 30
M  V30 61 1 58 31
M  V30 62 1 59 31
M  V30 END BOND
M  V30 END CTAB
M  END
>  <b_m_subgroup_collapsed>  (1966) 
0

>  <r_i_docking_score>  (1966) 
-6.4109380476200801

>  <s_m_subgroup_title>  (1966) 
glide-dock_SP_D22_pv

>  <s_m_subgroupid>  (1966) 
glide-dock_SP_D22_pv

>  <Molecule ChEMBL ID>  (1966) 
CHEMBL2443002

>  <Standard Type>  (1966) 
Ki

>  <Standard Value>  (1966) 
23000.0

>  <label>  (1966) 
0

$$$$
CHEMBL351300
     RDKit          3D

  0  0  0  0  0  0  0  0  0  0999 V3000
M  V30 BEGIN CTAB
M  V30 COUNTS 59 62 0 0 1
M  V30 BEGIN ATOM
M  V30 1 O 10.069559 2.528918 -18.531754 0
M  V30 2 C 11.151640 2.214783 -18.031420 0
M  V30 3 C 12.171712 1.408786 -18.673494 0
M  V30 4 C 11.948220 0.884758 -19.890835 0
M  V30 5 C 12.875411 0.030272 -20.644516 0
M  V30 6 C 14.227244 -0.139119 -20.269218 0
M  V30 7 C 15.052017 -1.035927 -20.972570 0
M  V30 8 C 14.521691 -1.799000 -22.030691 0
M  V30 9 F 15.285598 -2.726529 -22.652714 0
M  V30 10 C 13.187208 -1.615423 -22.426992 0
M  V30 11 C 12.370268 -0.698395 -21.742184 0
M  V30 12 N 11.517989 2.570990 -16.793020 0
M  V30 13 C 10.678193 3.309066 -15.860083 0 CFG=1
M  V30 14 C 10.348334 2.431443 -14.646651 0
M  V30 15 C 9.431974 3.188911 -13.677712 0
M  V30 16 C 10.019654 4.536698 -13.228770 0 CFG=2
M  V30 17 C 9.025515 5.282152 -12.310197 0
M  V30 18 C 9.651803 6.542496 -11.688560 0
M  V30 19 N 8.887852 7.151704 -10.571902 0 CFG=1 CHG=1
M  V30 20 C 8.760612 6.276523 -9.363364 0
M  V30 21 C 9.530602 7.000966 -8.303349 0
M  V30 22 C 9.776509 6.583547 -6.993605 0
M  V30 23 C 10.552143 7.412320 -6.154485 0
M  V30 24 C 11.086632 8.624969 -6.649238 0
M  V30 25 Br 12.085741 9.762172 -5.496696 0
M  V30 26 C 10.849159 9.011314 -7.985536 0
M  V30 27 C 10.016982 8.200616 -8.775785 0
M  V30 28 C 9.511010 8.451439 -10.164165 0
M  V30 29 C 10.475427 5.381537 -14.438713 0
M  V30 30 C 11.374750 4.596633 -15.404775 0
M  V30 31 H 13.101822 1.222702 -18.154203 0
M  V30 32 H 11.005792 1.088685 -20.383905 0
M  V30 33 H 14.648822 0.405240 -19.438442 0
M  V30 34 H 16.078022 -1.178232 -20.669979 0
M  V30 35 H 12.782783 -2.192611 -23.247314 0
M  V30 36 H 11.337339 -0.584101 -22.040632 0
M  V30 37 H 12.422059 2.270117 -16.457640 0
M  V30 38 H 9.738369 3.593794 -16.336704 0
M  V30 39 H 9.859280 1.512390 -14.969066 0
M  V30 40 H 11.262025 2.132266 -14.133706 0
M  V30 41 H 8.451937 3.334592 -14.131688 0
M  V30 42 H 9.286087 2.571999 -12.795162 0
M  V30 43 H 10.908854 4.304494 -12.647119 0
M  V30 44 H 8.121508 5.545053 -12.862271 0
M  V30 45 H 8.703861 4.589149 -11.534505 0
M  V30 46 H 10.656243 6.328415 -11.330351 0
M  V30 47 H 9.759462 7.293319 -12.472496 0
M  V30 48 H 7.716333 6.172191 -9.073004 0
M  V30 49 H 9.177608 5.279236 -9.500674 0
M  V30 50 H 9.351229 5.668199 -6.646587 0
M  V30 51 H 10.731873 7.125164 -5.129823 0
M  V30 52 H 11.274024 9.922634 -8.376286 0
M  V30 53 H 10.315072 8.783378 -10.825559 0
M  V30 54 H 8.744462 9.227589 -10.137681 0
M  V30 55 H 9.609017 5.769293 -14.974160 0
M  V30 56 H 11.035535 6.251702 -14.093040 0
M  V30 57 H 12.323459 4.362172 -14.919776 0
M  V30 58 H 11.615694 5.219544 -16.266541 0
M  V30 59 H 7.925642 7.372144 -10.836528 0
M  V30 END ATOM
M  V30 BEGIN BOND
M  V30 1 2 2 1
M  V30 2 1 3 2
M  V30 3 2 4 3
M  V30 4 1 5 4
M  V30 5 1 6 5
M  V30 6 2 7 6
M  V30 7 1 8 7
M  V30 8 1 9 8
M  V30 9 2 10 8
M  V30 10 2 11 5
M  V30 11 1 11 10
M  V30 12 1 12 2
M  V30 13 1 13 12
M  V30 14 1 14 13
M  V30 15 1 15 14
M  V30 16 1 16 15
M  V30 17 1 17 16
M  V30 18 1 18 17
M  V30 19 1 19 18
M  V30 20 1 20 19
M  V30 21 1 21 20
M  V30 22 1 22 21
M  V30 23 2 23 22
M  V30 24 1 24 23
M  V30 25 1 25 24
M  V30 26 2 26 24
M  V30 27 2 27 21
M  V30 28 1 27 26
M  V30 29 1 28 19
M  V30 30 1 28 27
M  V30 31 1 29 16
M  V30 32 1 30 13
M  V30 33 1 30 29
M  V30 34 1 31 3
M  V30 35 1 32 4
M  V30 36 1 33 6
M  V30 37 1 34 7
M  V30 38 1 35 10
M  V30 39 1 36 11
M  V30 40 1 37 12
M  V30 41 1 13 38 CFG=3
M  V30 42 1 39 14
M  V30 43 1 40 14
M  V30 44 1 41 15
M  V30 45 1 42 15
M  V30 46 1 16 43 CFG=1
M  V30 47 1 44 17
M  V30 48 1 45 17
M  V30 49 1 46 18
M  V30 50 1 47 18
M  V30 51 1 48 20
M  V30 52 1 49 20
M  V30 53 1 50 22
M  V30 54 1 51 23
M  V30 55 1 52 26
M  V30 56 1 53 28
M  V30 57 1 54 28
M  V30 58 1 55 29
M  V30 59 1 56 29
M  V30 60 1 57 30
M  V30 61 1 58 30
M  V30 62 1 19 59 CFG=3
M  V30 END BOND
M  V30 END CTAB
M  END
>  <b_m_subgroup_collapsed>  (1967) 
0

>  <r_i_docking_score>  (1967) 
-6.4109172953000497

>  <s_m_subgroup_title>  (1967) 
glide-dock_SP_D22_pv

>  <s_m_subgroupid>  (1967) 
glide-dock_SP_D22_pv

>  <Molecule ChEMBL ID>  (1967) 
CHEMBL351300

>  <Standard Type>  (1967) 
Ki

>  <Standard Value>  (1967) 
100.0

>  <label>  (1967) 
1

$$$$
CHEMBL3265329
     RDKit          3D

  0  0  0  0  0  0  0  0  0  0999 V3000
M  V30 BEGIN CTAB
M  V30 COUNTS 48 49 0 0 1
M  V30 BEGIN ATOM
M  V30 1 C 6.245697 3.900324 -13.500552 0
M  V30 2 C 6.384652 4.454143 -12.286711 0
M  V30 3 C 7.691626 4.529012 -11.522333 0
M  V30 4 N 8.086085 5.935359 -11.287868 0 CFG=2 CHG=1
M  V30 5 C 8.367216 6.722105 -12.513321 0
M  V30 6 C 9.610692 7.566589 -12.217785 0
M  V30 7 C 9.701659 7.553823 -10.699377 0
M  V30 8 C 9.199671 6.150346 -10.339670 0 CFG=1
M  V30 9 C 8.770350 5.892364 -8.871195 0
M  V30 10 N 9.668394 6.484278 -7.880654 0
M  V30 11 C 9.577445 7.752571 -7.445121 0
M  V30 12 O 8.755801 8.569909 -7.847219 0
M  V30 13 C 10.627626 8.209952 -6.494799 0
M  V30 14 C 11.136819 9.513147 -6.644619 0
M  V30 15 C 12.086121 10.015494 -5.755720 0
M  V30 16 C 12.536200 9.212746 -4.702443 0
M  V30 17 C 12.041041 7.903992 -4.534598 0
M  V30 18 C 12.612720 7.015667 -3.451707 0
M  V30 19 C 11.963806 7.203225 -2.085817 0
M  V30 20 C 12.322816 8.501020 -1.346034 0
M  V30 21 F 12.085862 9.603894 -2.038677 0
M  V30 22 C 11.077808 7.398510 -5.432736 0
M  V30 23 H 7.084453 3.458550 -14.019218 0
M  V30 24 H 5.285728 3.881120 -13.994519 0
M  V30 25 H 5.520624 4.884161 -11.799459 0
M  V30 26 H 7.541399 4.025270 -10.570582 0
M  V30 27 H 8.484033 3.997803 -12.052132 0
M  V30 28 H 8.530169 6.088510 -13.386925 0
M  V30 29 H 7.504604 7.357273 -12.720052 0
M  V30 30 H 10.493937 7.090369 -12.645577 0
M  V30 31 H 9.539620 8.575456 -12.624594 0
M  V30 32 H 10.706979 7.761850 -10.331652 0
M  V30 33 H 9.025911 8.316368 -10.311941 0
M  V30 34 H 9.998990 5.449603 -10.588709 0
M  V30 35 H 7.737875 6.186052 -8.695057 0
M  V30 36 H 8.769383 4.817091 -8.690701 0
M  V30 37 H 10.403350 5.905375 -7.503546 0
M  V30 38 H 10.810697 10.145734 -7.446846 0
M  V30 39 H 12.484540 11.006201 -5.895098 0
M  V30 40 H 13.286188 9.607176 -4.038753 0
M  V30 41 H 12.483922 5.976415 -3.754523 0
M  V30 42 H 13.685892 7.185045 -3.393052 0
M  V30 43 H 10.885868 7.109357 -2.178579 0
M  V30 44 H 12.285452 6.362710 -1.468700 0
M  V30 45 H 11.686151 8.578634 -0.468140 0
M  V30 46 H 13.367615 8.541552 -1.043253 0
M  V30 47 H 10.691219 6.397473 -5.302402 0
M  V30 48 H 7.299092 6.419267 -10.851604 0
M  V30 END ATOM
M  V30 BEGIN BOND
M  V30 1 2 2 1
M  V30 2 1 3 2
M  V30 3 1 4 3
M  V30 4 1 5 4
M  V30 5 1 6 5
M  V30 6 1 7 6
M  V30 7 1 8 4
M  V30 8 1 8 7
M  V30 9 1 9 8
M  V30 10 1 10 9
M  V30 11 1 11 10
M  V30 12 2 12 11
M  V30 13 1 13 11
M  V30 14 2 14 13
M  V30 15 1 15 14
M  V30 16 2 16 15
M  V30 17 1 17 16
M  V30 18 1 18 17
M  V30 19 1 19 18
M  V30 20 1 20 19
M  V30 21 1 21 20
M  V30 22 1 22 13
M  V30 23 2 22 17
M  V30 24 1 23 1
M  V30 25 1 24 1
M  V30 26 1 25 2
M  V30 27 1 26 3
M  V30 28 1 27 3
M  V30 29 1 28 5
M  V30 30 1 29 5
M  V30 31 1 30 6
M  V30 32 1 31 6
M  V30 33 1 32 7
M  V30 34 1 33 7
M  V30 35 1 8 34 CFG=3
M  V30 36 1 35 9
M  V30 37 1 36 9
M  V30 38 1 37 10
M  V30 39 1 38 14
M  V30 40 1 39 15
M  V30 41 1 40 16
M  V30 42 1 41 18
M  V30 43 1 42 18
M  V30 44 1 43 19
M  V30 45 1 44 19
M  V30 46 1 45 20
M  V30 47 1 46 20
M  V30 48 1 47 22
M  V30 49 1 4 48 CFG=1
M  V30 END BOND
M  V30 END CTAB
M  END
>  <b_m_subgroup_collapsed>  (1968) 
0

>  <r_i_docking_score>  (1968) 
-6.4102906684299903

>  <s_m_subgroup_title>  (1968) 
glide-dock_SP_D22_pv

>  <s_m_subgroupid>  (1968) 
glide-dock_SP_D22_pv

>  <Molecule ChEMBL ID>  (1968) 
CHEMBL3265329

>  <Standard Type>  (1968) 
Ki

>  <Standard Value>  (1968) 
0.63

>  <label>  (1968) 
1

$$$$
CHEMBL4162575
     RDKit          3D

  0  0  0  0  0  0  0  0  0  0999 V3000
M  V30 BEGIN CTAB
M  V30 COUNTS 54 56 0 0 1
M  V30 BEGIN ATOM
M  V30 1 C 5.360917 0.206611 -14.008333 0
M  V30 2 C 5.684068 1.596815 -13.459805 0
M  V30 3 O 4.898515 2.082572 -12.647051 0
M  V30 4 N 6.786658 2.236103 -13.931556 0
M  V30 5 C 7.780493 1.595110 -14.810153 0
M  V30 6 C 9.054191 2.471201 -14.731825 0
M  V30 7 C 8.632618 3.606858 -13.844465 0
M  V30 8 C 9.439128 4.658198 -13.369194 0
M  V30 9 C 8.881125 5.592020 -12.459289 0
M  V30 10 C 9.752376 6.662667 -11.850652 0
M  V30 11 O 10.859831 6.926786 -12.320745 0
M  V30 12 N 9.285713 7.247872 -10.736708 0
M  V30 13 C 9.992471 8.212662 -9.907451 0
M  V30 14 C 11.087308 7.538186 -9.061383 0
M  V30 15 C 11.607675 8.422600 -7.913140 0
M  V30 16 N 10.593934 8.675027 -6.883941 0
M  V30 17 C 10.165046 7.497160 -6.121840 0
M  V30 18 C 11.250896 6.992881 -5.154438 0
M  V30 19 N 11.686037 8.080358 -4.241593 0 CHG=1
M  V30 20 C 12.689418 7.640959 -3.249781 0
M  V30 21 C 12.087257 9.300851 -4.983566 0
M  V30 22 C 10.974536 9.742353 -5.954383 0
M  V30 23 C 7.503748 5.478897 -12.123136 0
M  V30 24 C 6.710091 4.421856 -12.607740 0
M  V30 25 C 7.307526 3.462564 -13.447795 0
M  V30 26 H 5.336248 0.209553 -15.099034 0
M  V30 27 H 6.098654 -0.524753 -13.673438 0
M  V30 28 H 4.380373 -0.122808 -13.657962 0
M  V30 29 H 7.396014 1.559615 -15.829621 0
M  V30 30 H 8.008412 0.575764 -14.495976 0
M  V30 31 H 9.363652 2.835399 -15.711476 0
M  V30 32 H 9.886176 1.929600 -14.277858 0
M  V30 33 H 10.478656 4.715976 -13.660125 0
M  V30 34 H 8.332076 7.037164 -10.457062 0
M  V30 35 H 10.422848 8.997801 -10.527988 0
M  V30 36 H 9.249949 8.686554 -9.264905 0
M  V30 37 H 10.743268 6.574591 -8.688496 0
M  V30 38 H 11.924116 7.303854 -9.719060 0
M  V30 39 H 12.485976 7.960631 -7.470343 0
M  V30 40 H 11.937469 9.371742 -8.335214 0
M  V30 41 H 9.285818 7.771437 -5.546867 0
M  V30 42 H 9.836711 6.694927 -6.780989 0
M  V30 43 H 10.843791 6.173259 -4.561695 0
M  V30 44 H 12.086021 6.573244 -5.709697 0
M  V30 45 H 13.627994 7.372320 -3.732092 0
M  V30 46 H 12.888884 8.436430 -2.530973 0
M  V30 47 H 12.329623 6.774662 -2.695031 0
M  V30 48 H 12.265334 10.101721 -4.265540 0
M  V30 49 H 13.025462 9.150346 -5.512913 0
M  V30 50 H 11.285405 10.625867 -6.514204 0
M  V30 51 H 10.090912 10.040197 -5.386250 0
M  V30 52 H 7.032928 6.172715 -11.446983 0
M  V30 53 H 5.681993 4.349235 -12.288206 0
M  V30 54 H 10.867770 8.340774 -3.711661 0
M  V30 END ATOM
M  V30 BEGIN BOND
M  V30 1 1 2 1
M  V30 2 2 3 2
M  V30 3 1 4 2
M  V30 4 1 5 4
M  V30 5 1 6 5
M  V30 6 1 7 6
M  V30 7 1 8 7
M  V30 8 2 9 8
M  V30 9 1 10 9
M  V30 10 2 11 10
M  V30 11 1 12 10
M  V30 12 1 13 12
M  V30 13 1 14 13
M  V30 14 1 15 14
M  V30 15 1 16 15
M  V30 16 1 17 16
M  V30 17 1 18 17
M  V30 18 1 19 18
M  V30 19 1 20 19
M  V30 20 1 21 19
M  V30 21 1 22 16
M  V30 22 1 22 21
M  V30 23 1 23 9
M  V30 24 2 24 23
M  V30 25 1 25 4
M  V30 26 2 25 7
M  V30 27 1 25 24
M  V30 28 1 26 1
M  V30 29 1 27 1
M  V30 30 1 28 1
M  V30 31 1 29 5
M  V30 32 1 30 5
M  V30 33 1 31 6
M  V30 34 1 32 6
M  V30 35 1 33 8
M  V30 36 1 34 12
M  V30 37 1 35 13
M  V30 38 1 36 13
M  V30 39 1 37 14
M  V30 40 1 38 14
M  V30 41 1 39 15
M  V30 42 1 40 15
M  V30 43 1 41 17
M  V30 44 1 42 17
M  V30 45 1 43 18
M  V30 46 1 44 18
M  V30 47 1 45 20
M  V30 48 1 46 20
M  V30 49 1 47 20
M  V30 50 1 48 21
M  V30 51 1 49 21
M  V30 52 1 50 22
M  V30 53 1 51 22
M  V30 54 1 52 23
M  V30 55 1 53 24
M  V30 56 1 54 19
M  V30 END BOND
M  V30 END CTAB
M  END
>  <b_m_subgroup_collapsed>  (1969) 
0

>  <r_i_docking_score>  (1969) 
-6.41003460156639

>  <s_m_subgroup_title>  (1969) 
glide-dock_SP_D22_pv

>  <s_m_subgroupid>  (1969) 
glide-dock_SP_D22_pv

>  <Molecule ChEMBL ID>  (1969) 
CHEMBL4162575

>  <Standard Type>  (1969) 
Ki

>  <Standard Value>  (1969) 
10000.0

>  <label>  (1969) 
0

$$$$
CHEMBL5075990
     RDKit          3D

  0  0  0  0  0  0  0  0  0  0999 V3000
M  V30 BEGIN CTAB
M  V30 COUNTS 97 100 0 0 1
M  V30 BEGIN ATOM
M  V30 1 C 10.597479 7.693167 -9.380479 0
M  V30 2 C 10.642334 8.157064 -10.843339 0
M  V30 3 C 10.297602 7.046609 -11.828479 0
M  V30 4 C 9.004724 6.488829 -11.779362 0
M  V30 5 C 8.636345 5.447152 -12.643286 0
M  V30 6 Cl 7.049809 4.768597 -12.541388 0
M  V30 7 C 9.558175 4.956836 -13.588446 0
M  V30 8 O 9.164927 3.935482 -14.423427 0
M  V30 9 C 9.661014 2.654519 -14.054134 0
M  V30 10 C 10.853127 5.539062 -13.685531 0
M  V30 11 C 11.786812 5.059175 -14.756326 0
M  V30 12 O 12.885089 4.578899 -14.480497 0
M  V30 13 N 11.287629 5.153049 -15.996550 0
M  V30 14 C 11.747601 4.405512 -17.157656 0
M  V30 15 C 13.153595 4.792705 -17.659809 0 CFG=2
M  V30 16 C 13.324034 6.281128 -17.966816 0
M  V30 17 C 14.472979 6.333179 -18.977114 0
M  V30 18 C 14.621417 4.900878 -19.506960 0
M  V30 19 N 13.504987 4.117270 -18.932533 0 CFG=1 CHG=1
M  V30 20 C 13.753386 2.652281 -18.851410 0
M  V30 21 C 12.515024 1.823938 -19.254557 0
M  V30 22 C 12.654307 0.331118 -18.898216 0
M  V30 23 C 11.384645 -0.499532 -19.158783 0
M  V30 24 N 10.331227 -0.189034 -18.176342 0 CHG=1
M  V30 25 C 9.013580 -0.818857 -18.420073 0
M  V30 26 C 8.037601 -0.335025 -17.335047 0
M  V30 27 C 6.474106 -0.608800 -17.433254 0
M  V30 28 C 5.890815 0.378214 -18.509052 0
M  V30 29 O 6.570637 1.373408 -18.767706 0
M  V30 30 N 4.724067 0.196662 -19.193773 0
M  V30 31 C 4.394909 1.151574 -20.254011 0
M  V30 32 C 3.773850 -0.917523 -19.141256 0
M  V30 33 C 6.236427 -2.086620 -17.893581 0
M  V30 34 C 6.536851 -2.479425 -19.228699 0
M  V30 35 C 6.272622 -3.780050 -19.700109 0
M  V30 36 C 5.678967 -4.727492 -18.849638 0
M  V30 37 C 5.380398 -4.375486 -17.522718 0
M  V30 38 C 5.685880 -3.084791 -17.045870 0
M  V30 39 C 5.851060 -0.191754 -16.049297 0
M  V30 40 C 4.578756 -0.627552 -15.583766 0
M  V30 41 C 4.093038 -0.271420 -14.307171 0
M  V30 42 C 4.848931 0.562052 -13.464074 0
M  V30 43 C 6.066966 1.071775 -13.920809 0
M  V30 44 C 6.549891 0.705930 -15.185352 0
M  V30 45 C 11.231816 6.572377 -12.785711 0
M  V30 46 O 12.485600 7.122922 -12.842232 0
M  V30 47 H 10.870407 8.508225 -8.709208 0
M  V30 48 H 9.596571 7.364310 -9.097023 0
M  V30 49 H 11.286036 6.864700 -9.206882 0
M  V30 50 H 11.627585 8.575518 -11.046860 0
M  V30 51 H 9.931152 8.970966 -10.986510 0
M  V30 52 H 8.280869 6.858051 -11.066410 0
M  V30 53 H 9.837041 2.060232 -14.950606 0
M  V30 54 H 10.594193 2.692489 -13.491362 0
M  V30 55 H 8.927939 2.128221 -13.447165 0
M  V30 56 H 10.386638 5.601698 -16.081760 0
M  V30 57 H 11.724339 3.352579 -16.879463 0
M  V30 58 H 11.010466 4.543291 -17.948040 0
M  V30 59 H 13.901201 4.511830 -16.914703 0
M  V30 60 H 12.418489 6.678590 -18.424456 0
M  V30 61 H 13.527017 6.871226 -17.070633 0
M  V30 62 H 14.255154 7.042876 -19.778307 0
M  V30 63 H 15.397707 6.656247 -18.493561 0
M  V30 64 H 14.607024 4.858177 -20.597828 0
M  V30 65 H 15.579269 4.493294 -19.176382 0
M  V30 66 H 14.577032 2.374501 -19.513033 0
M  V30 67 H 14.081404 2.395396 -17.846210 0
M  V30 68 H 11.621870 2.218849 -18.775639 0
M  V30 69 H 12.344882 1.929598 -20.326397 0
M  V30 70 H 13.481648 -0.093068 -19.469744 0
M  V30 71 H 12.927075 0.230202 -17.847218 0
M  V30 72 H 11.026155 -0.342957 -20.176781 0
M  V30 73 H 11.626561 -1.552406 -19.047434 0
M  V30 74 H 10.655186 -0.467466 -17.259893 0
M  V30 75 H 8.671664 -0.514110 -19.409983 0
M  V30 76 H 9.112386 -1.905269 -18.405451 0
M  V30 77 H 8.418468 -0.673245 -16.375658 0
M  V30 78 H 8.232224 0.733535 -17.271519 0
M  V30 79 H 4.484863 2.172224 -19.881437 0
M  V30 80 H 5.081527 1.037769 -21.093527 0
M  V30 81 H 3.386368 1.029750 -20.646360 0
M  V30 82 H 3.717336 -1.418342 -18.184662 0
M  V30 83 H 2.761147 -0.581013 -19.358725 0
M  V30 84 H 4.022244 -1.659016 -19.900099 0
M  V30 85 H 6.938419 -1.773118 -19.937943 0
M  V30 86 H 6.495692 -4.040652 -20.725311 0
M  V30 87 H 5.439396 -5.716638 -19.212814 0
M  V30 88 H 4.895546 -5.087768 -16.867874 0
M  V30 89 H 5.482677 -2.895570 -16.005186 0
M  V30 90 H 3.955954 -1.284147 -16.164448 0
M  V30 91 H 3.130585 -0.638603 -13.979684 0
M  V30 92 H 4.495071 0.865905 -12.497017 0
M  V30 93 H 6.616278 1.774769 -13.317748 0
M  V30 94 H 7.484151 1.169794 -15.441272 0
M  V30 95 H 13.135287 6.573669 -13.264650 0
M  V30 96 H 10.189522 0.810685 -18.174698 0
M  V30 97 H 12.728601 4.261294 -19.561415 0
M  V30 END ATOM
M  V30 BEGIN BOND
M  V30 1 1 2 1
M  V30 2 1 3 2
M  V30 3 1 4 3
M  V30 4 2 5 4
M  V30 5 1 6 5
M  V30 6 1 7 5
M  V30 7 1 8 7
M  V30 8 1 9 8
M  V30 9 2 10 7
M  V30 10 1 11 10
M  V30 11 2 12 11
M  V30 12 1 13 11
M  V30 13 1 14 13
M  V30 14 1 15 14
M  V30 15 1 16 15
M  V30 16 1 17 16
M  V30 17 1 18 17
M  V30 18 1 19 15
M  V30 19 1 19 18
M  V30 20 1 20 19
M  V30 21 1 21 20
M  V30 22 1 22 21
M  V30 23 1 23 22
M  V30 24 1 24 23
M  V30 25 1 25 24
M  V30 26 1 26 25
M  V30 27 1 27 26
M  V30 28 1 28 27
M  V30 29 2 29 28
M  V30 30 1 30 28
M  V30 31 1 31 30
M  V30 32 1 32 30
M  V30 33 1 33 27
M  V30 34 2 34 33
M  V30 35 1 35 34
M  V30 36 2 36 35
M  V30 37 1 37 36
M  V30 38 1 38 33
M  V30 39 2 38 37
M  V30 40 1 39 27
M  V30 41 2 40 39
M  V30 42 1 41 40
M  V30 43 2 42 41
M  V30 44 1 43 42
M  V30 45 1 44 39
M  V30 46 2 44 43
M  V30 47 2 45 3
M  V30 48 1 45 10
M  V30 49 1 46 45
M  V30 50 1 47 1
M  V30 51 1 48 1
M  V30 52 1 49 1
M  V30 53 1 50 2
M  V30 54 1 51 2
M  V30 55 1 52 4
M  V30 56 1 53 9
M  V30 57 1 54 9
M  V30 58 1 55 9
M  V30 59 1 56 13
M  V30 60 1 57 14
M  V30 61 1 58 14
M  V30 62 1 15 59 CFG=1
M  V30 63 1 60 16
M  V30 64 1 61 16
M  V30 65 1 62 17
M  V30 66 1 63 17
M  V30 67 1 64 18
M  V30 68 1 65 18
M  V30 69 1 66 20
M  V30 70 1 67 20
M  V30 71 1 68 21
M  V30 72 1 69 21
M  V30 73 1 70 22
M  V30 74 1 71 22
M  V30 75 1 72 23
M  V30 76 1 73 23
M  V30 77 1 74 24
M  V30 78 1 75 25
M  V30 79 1 76 25
M  V30 80 1 77 26
M  V30 81 1 78 26
M  V30 82 1 79 31
M  V30 83 1 80 31
M  V30 84 1 81 31
M  V30 85 1 82 32
M  V30 86 1 83 32
M  V30 87 1 84 32
M  V30 88 1 85 34
M  V30 89 1 86 35
M  V30 90 1 87 36
M  V30 91 1 88 37
M  V30 92 1 89 38
M  V30 93 1 90 40
M  V30 94 1 91 41
M  V30 95 1 92 42
M  V30 96 1 93 43
M  V30 97 1 94 44
M  V30 98 1 95 46
M  V30 99 1 96 24
M  V30 100 1 19 97 CFG=3
M  V30 END BOND
M  V30 END CTAB
M  END
>  <b_m_subgroup_collapsed>  (1970) 
0

>  <r_i_docking_score>  (1970) 
-6.4091425031411404

>  <s_m_subgroup_title>  (1970) 
glide-dock_SP_D22_pv

>  <s_m_subgroupid>  (1970) 
glide-dock_SP_D22_pv

>  <Molecule ChEMBL ID>  (1970) 
CHEMBL5075990

>  <Standard Type>  (1970) 
Ki

>  <Standard Value>  (1970) 
93.7

>  <label>  (1970) 
1

$$$$
CHEMBL4435235
     RDKit          3D

  0  0  0  0  0  0  0  0  0  0999 V3000
M  V30 BEGIN CTAB
M  V30 COUNTS 33 35 0 0 1
M  V30 BEGIN ATOM
M  V30 1 C 11.757257 6.706763 -3.271979 0
M  V30 2 C 11.154872 6.627702 -4.688160 0
M  V30 3 N 11.285933 7.863581 -5.449612 0
M  V30 4 C 11.864983 9.009439 -5.046003 0
M  V30 5 N 11.934030 9.956496 -5.967689 0
M  V30 6 C 11.334387 9.372771 -7.076149 0
M  V30 7 C 10.875767 8.116702 -6.762935 0
M  V30 8 C 10.090358 7.203398 -7.590550 0
M  V30 9 C 9.009686 6.457227 -7.194876 0
M  V30 10 N 8.486110 5.772225 -8.271352 0
M  V30 11 C 9.147046 6.112787 -9.423785 0
M  V30 12 C 8.925791 5.769291 -10.765527 0
M  V30 13 C 9.801994 6.245691 -11.752899 0
M  V30 14 C 10.927861 7.025558 -11.390433 0
M  V30 15 C 11.985695 7.372288 -12.412654 0
M  V30 16 N 11.959094 6.700781 -13.565211 0
M  V30 17 O 12.886167 8.172322 -12.178828 0
M  V30 18 C 11.094963 7.408924 -10.029907 0
M  V30 19 F 12.151494 8.170066 -9.654647 0
M  V30 20 C 10.204944 6.974642 -9.017219 0
M  V30 21 H 11.627247 5.772491 -2.731443 0
M  V30 22 H 12.827944 6.910792 -3.307936 0
M  V30 23 H 11.285786 7.486866 -2.673731 0
M  V30 24 H 10.101406 6.360938 -4.635056 0
M  V30 25 H 11.650455 5.836600 -5.251270 0
M  V30 26 H 12.282001 9.158080 -4.060994 0
M  V30 27 H 11.250736 9.910509 -8.006643 0
M  V30 28 H 8.534258 6.374195 -6.231846 0
M  V30 29 H 7.644247 5.215932 -8.221711 0
M  V30 30 H 8.082318 5.148408 -11.030660 0
M  V30 31 H 9.617954 5.958973 -12.777147 0
M  V30 32 H 11.251760 6.004420 -13.738420 0
M  V30 33 H 12.695852 6.865481 -14.235159 0
M  V30 END ATOM
M  V30 BEGIN BOND
M  V30 1 1 2 1
M  V30 2 1 3 2
M  V30 3 1 4 3
M  V30 4 2 5 4
M  V30 5 1 6 5
M  V30 6 1 7 3
M  V30 7 2 7 6
M  V30 8 1 8 7
M  V30 9 2 9 8
M  V30 10 1 10 9
M  V30 11 1 11 10
M  V30 12 1 12 11
M  V30 13 2 13 12
M  V30 14 1 14 13
M  V30 15 1 15 14
M  V30 16 1 16 15
M  V30 17 2 17 15
M  V30 18 2 18 14
M  V30 19 1 19 18
M  V30 20 1 20 8
M  V30 21 2 20 11
M  V30 22 1 20 18
M  V30 23 1 21 1
M  V30 24 1 22 1
M  V30 25 1 23 1
M  V30 26 1 24 2
M  V30 27 1 25 2
M  V30 28 1 26 4
M  V30 29 1 27 6
M  V30 30 1 28 9
M  V30 31 1 29 10
M  V30 32 1 30 12
M  V30 33 1 31 13
M  V30 34 1 32 16
M  V30 35 1 33 16
M  V30 END BOND
M  V30 END CTAB
M  END
>  <b_m_subgroup_collapsed>  (1971) 
0

>  <r_i_docking_score>  (1971) 
-6.4080651583170498

>  <s_m_subgroup_title>  (1971) 
glide-dock_SP_D22_pv

>  <s_m_subgroupid>  (1971) 
glide-dock_SP_D22_pv

>  <Molecule ChEMBL ID>  (1971) 
CHEMBL4435235

>  <Standard Type>  (1971) 
Ki

>  <Standard Value>  (1971) 
10000.0

>  <label>  (1971) 
0

$$$$
CHEMBL432762
     RDKit          3D

  0  0  0  0  0  0  0  0  0  0999 V3000
M  V30 BEGIN CTAB
M  V30 COUNTS 48 51 0 0 1
M  V30 BEGIN ATOM
M  V30 1 C 11.019893 2.798644 -14.196772 0
M  V30 2 C 10.805557 4.220596 -13.634295 0 CFG=1
M  V30 3 C 11.507404 5.319173 -14.431183 0
M  V30 4 C 11.974133 5.085747 -15.749527 0
M  V30 5 C 12.684485 6.075587 -16.451000 0
M  V30 6 C 12.947261 7.313428 -15.842280 0
M  V30 7 C 12.486015 7.558992 -14.537359 0
M  V30 8 C 11.749460 6.581532 -13.830609 0
M  V30 9 C 11.229384 6.957163 -12.500889 0
M  V30 10 C 10.065893 6.577385 -11.916297 0
M  V30 11 N 9.774071 6.924692 -10.589212 0
M  V30 12 C 9.019446 6.071355 -9.666454 0
M  V30 13 C 9.819930 5.783102 -8.390924 0
M  V30 14 N 10.244830 7.045337 -7.743695 0 CHG=1
M  V30 15 C 10.975050 6.809987 -6.478861 0
M  V30 16 C 10.989338 7.925341 -8.682215 0
M  V30 17 C 10.169800 8.182832 -9.959909 0
M  V30 18 C 9.036236 5.724545 -12.579208 0
M  V30 19 C 7.673931 6.061669 -12.395975 0
M  V30 20 C 6.639013 5.230870 -12.849662 0
M  V30 21 C 6.951548 4.068552 -13.570945 0
M  V30 22 C 8.295403 3.764302 -13.848056 0
M  V30 23 C 9.346656 4.577113 -13.361611 0
M  V30 24 H 10.558406 2.658030 -15.173542 0
M  V30 25 H 12.080621 2.586840 -14.308245 0
M  V30 26 H 10.609396 2.053680 -13.516235 0
M  V30 27 H 11.286232 4.201065 -12.658284 0
M  V30 28 H 11.802936 4.144334 -16.248356 0
M  V30 29 H 13.030304 5.882940 -17.456348 0
M  V30 30 H 13.491092 8.078237 -16.377735 0
M  V30 31 H 12.680706 8.521844 -14.091705 0
M  V30 32 H 11.925438 7.544234 -11.922892 0
M  V30 33 H 8.086161 6.571429 -9.414825 0
M  V30 34 H 8.749726 5.118467 -10.122249 0
M  V30 35 H 9.208694 5.201502 -7.703196 0
M  V30 36 H 10.690832 5.174914 -8.637850 0
M  V30 37 H 11.912070 6.275764 -6.655584 0
M  V30 38 H 11.205212 7.755880 -5.988067 0
M  V30 39 H 10.373683 6.219123 -5.788617 0
M  V30 40 H 11.224880 8.871948 -8.195109 0
M  V30 41 H 11.940452 7.457620 -8.946894 0
M  V30 42 H 10.730829 8.814911 -10.646873 0
M  V30 43 H 9.262465 8.740219 -9.717124 0
M  V30 44 H 7.410758 6.957642 -11.852392 0
M  V30 45 H 5.610117 5.491980 -12.652659 0
M  V30 46 H 6.162197 3.429445 -13.935235 0
M  V30 47 H 8.487036 2.880328 -14.432112 0
M  V30 48 H 9.390985 7.532653 -7.508389 0
M  V30 END ATOM
M  V30 BEGIN BOND
M  V30 1 1 2 1
M  V30 2 1 3 2
M  V30 3 2 4 3
M  V30 4 1 5 4
M  V30 5 2 6 5
M  V30 6 1 7 6
M  V30 7 1 8 3
M  V30 8 2 8 7
M  V30 9 1 9 8
M  V30 10 2 10 9
M  V30 11 1 11 10
M  V30 12 1 12 11
M  V30 13 1 13 12
M  V30 14 1 14 13
M  V30 15 1 15 14
M  V30 16 1 16 14
M  V30 17 1 17 11
M  V30 18 1 17 16
M  V30 19 1 18 10
M  V30 20 2 19 18
M  V30 21 1 20 19
M  V30 22 2 21 20
M  V30 23 1 22 21
M  V30 24 1 23 2
M  V30 25 1 23 18
M  V30 26 2 23 22
M  V30 27 1 24 1
M  V30 28 1 25 1
M  V30 29 1 26 1
M  V30 30 1 2 27 CFG=1
M  V30 31 1 28 4
M  V30 32 1 29 5
M  V30 33 1 30 6
M  V30 34 1 31 7
M  V30 35 1 32 9
M  V30 36 1 33 12
M  V30 37 1 34 12
M  V30 38 1 35 13
M  V30 39 1 36 13
M  V30 40 1 37 15
M  V30 41 1 38 15
M  V30 42 1 39 15
M  V30 43 1 40 16
M  V30 44 1 41 16
M  V30 45 1 42 17
M  V30 46 1 43 17
M  V30 47 1 44 19
M  V30 48 1 45 20
M  V30 49 1 46 21
M  V30 50 1 47 22
M  V30 51 1 48 14
M  V30 END BOND
M  V30 END CTAB
M  END
>  <b_m_subgroup_collapsed>  (1972) 
0

>  <r_i_docking_score>  (1972) 
-6.4071963827490102

>  <s_m_subgroup_title>  (1972) 
glide-dock_SP_D22_pv

>  <s_m_subgroupid>  (1972) 
glide-dock_SP_D22_pv

>  <Molecule ChEMBL ID>  (1972) 
CHEMBL432762

>  <Standard Type>  (1972) 
Ki

>  <Standard Value>  (1972) 
94.0

>  <label>  (1972) 
1

$$$$
CHEMBL24110
     RDKit          3D

  0  0  0  0  0  0  0  0  0  0999 V3000
M  V30 BEGIN CTAB
M  V30 COUNTS 47 49 0 0 1
M  V30 BEGIN ATOM
M  V30 1 C 9.351688 6.572710 -6.596330 0
M  V30 2 C 9.076820 7.379590 -7.859814 0
M  V30 3 C 9.211442 6.516635 -9.134140 0
M  V30 4 N 8.886954 7.246729 -10.393297 0 CHG=1
M  V30 5 C 9.639660 8.530941 -10.578385 0
M  V30 6 C 11.200131 8.467319 -10.575737 0
M  V30 7 C 11.935843 8.456985 -9.226254 0
M  V30 8 C 8.781272 6.396745 -11.628773 0 CFG=2
M  V30 9 C 7.462561 5.616134 -11.651019 0
M  V30 10 C 7.333806 4.471401 -12.646186 0
M  V30 11 C 6.132072 3.767552 -12.855405 0
M  V30 12 C 6.085701 2.668543 -13.730515 0
M  V30 13 C 7.232812 2.277187 -14.443702 0
M  V30 14 C 8.445415 2.967822 -14.264773 0
M  V30 15 C 8.497788 4.046051 -13.344510 0
M  V30 16 N 9.766201 4.683868 -13.106370 0
M  V30 17 C 9.944903 5.429955 -11.858025 0
M  V30 18 C 10.772021 4.685126 -14.023113 0
M  V30 19 O 11.698571 5.493234 -14.031782 0
M  V30 20 N 10.693373 3.738634 -14.964578 0
M  V30 21 C 9.767255 2.623273 -14.923377 0
M  V30 22 H 9.286161 7.201924 -5.709672 0
M  V30 23 H 10.348653 6.133565 -6.615883 0
M  V30 24 H 8.620029 5.772671 -6.501347 0
M  V30 25 H 8.086095 7.815092 -7.788700 0
M  V30 26 H 9.750516 8.230370 -7.862495 0
M  V30 27 H 10.213011 6.094932 -9.196065 0
M  V30 28 H 8.542724 5.664954 -9.022590 0
M  V30 29 H 9.316619 8.970672 -11.522616 0
M  V30 30 H 9.306137 9.250137 -9.830662 0
M  V30 31 H 11.607968 7.702637 -11.219743 0
M  V30 32 H 11.550130 9.373621 -11.046647 0
M  V30 33 H 13.008523 8.572671 -9.383120 0
M  V30 34 H 11.806825 7.527382 -8.675386 0
M  V30 35 H 11.620142 9.289511 -8.596215 0
M  V30 36 H 8.747378 7.059687 -12.494854 0
M  V30 37 H 7.285515 5.169246 -10.677563 0
M  V30 38 H 6.634930 6.299390 -11.846759 0
M  V30 39 H 5.243650 4.054488 -12.311960 0
M  V30 40 H 5.162739 2.121074 -13.846642 0
M  V30 41 H 7.184554 1.432608 -15.116211 0
M  V30 42 H 10.884785 5.965913 -11.856228 0
M  V30 43 H 10.014946 4.697083 -11.053640 0
M  V30 44 H 11.405110 3.734899 -15.679943 0
M  V30 45 H 10.227921 1.797198 -14.379724 0
M  V30 46 H 9.583499 2.278131 -15.941542 0
M  V30 47 H 7.909861 7.547543 -10.248641 0
M  V30 END ATOM
M  V30 BEGIN BOND
M  V30 1 1 2 1
M  V30 2 1 3 2
M  V30 3 1 4 3
M  V30 4 1 5 4
M  V30 5 1 6 5
M  V30 6 1 7 6
M  V30 7 1 8 4
M  V30 8 1 9 8
M  V30 9 1 10 9
M  V30 10 2 11 10
M  V30 11 1 12 11
M  V30 12 2 13 12
M  V30 13 1 14 13
M  V30 14 1 15 10
M  V30 15 2 15 14
M  V30 16 1 16 15
M  V30 17 1 17 8
M  V30 18 1 17 16
M  V30 19 1 18 16
M  V30 20 2 19 18
M  V30 21 1 20 18
M  V30 22 1 21 14
M  V30 23 1 21 20
M  V30 24 1 22 1
M  V30 25 1 23 1
M  V30 26 1 24 1
M  V30 27 1 25 2
M  V30 28 1 26 2
M  V30 29 1 27 3
M  V30 30 1 28 3
M  V30 31 1 29 5
M  V30 32 1 30 5
M  V30 33 1 31 6
M  V30 34 1 32 6
M  V30 35 1 33 7
M  V30 36 1 34 7
M  V30 37 1 35 7
M  V30 38 1 8 36 CFG=3
M  V30 39 1 37 9
M  V30 40 1 38 9
M  V30 41 1 39 11
M  V30 42 1 40 12
M  V30 43 1 41 13
M  V30 44 1 42 17
M  V30 45 1 43 17
M  V30 46 1 44 20
M  V30 47 1 45 21
M  V30 48 1 46 21
M  V30 49 1 47 4
M  V30 END BOND
M  V30 END CTAB
M  END
>  <b_m_subgroup_collapsed>  (1973) 
0

>  <r_i_docking_score>  (1973) 
-6.4052896433204198

>  <s_m_subgroup_title>  (1973) 
glide-dock_SP_D22_pv

>  <s_m_subgroupid>  (1973) 
glide-dock_SP_D22_pv

>  <Molecule ChEMBL ID>  (1973) 
CHEMBL24110

>  <Standard Type>  (1973) 
Ki

>  <Standard Value>  (1973) 
58.0

>  <label>  (1973) 
1

$$$$
CHEMBL390473
     RDKit          3D

  0  0  0  0  0  0  0  0  0  0999 V3000
M  V30 BEGIN CTAB
M  V30 COUNTS 77 80 0 0 1
M  V30 BEGIN ATOM
M  V30 1 C 8.136086 0.152903 -15.118201 0
M  V30 2 O 8.104672 0.722217 -16.416555 0
M  V30 3 C 9.230799 1.377327 -16.868902 0
M  V30 4 C 10.449393 1.428332 -16.143272 0
M  V30 5 C 11.550175 2.143189 -16.647282 0
M  V30 6 C 11.431964 2.829671 -17.867332 0
M  V30 7 S 12.773044 3.865717 -18.436516 0
M  V30 8 O 12.651280 4.055131 -19.889629 0
M  V30 9 O 14.030088 3.382040 -17.847780 0
M  V30 10 N 12.392684 5.373166 -17.688721 0
M  V30 11 C 12.340256 5.480142 -16.227764 0 CFG=1
M  V30 12 C 13.143826 6.696143 -15.759147 0
M  V30 13 C 12.995677 6.862614 -14.242249 0
M  V30 14 C 11.548849 7.103644 -13.774725 0 CFG=2
M  V30 15 N 11.347918 7.372309 -12.302036 0 CFG=2 CHG=1
M  V30 16 C 10.039299 8.007075 -11.929462 0
M  V30 17 C 9.846610 8.151399 -10.400441 0
M  V30 18 C 11.076360 8.678514 -9.596432 0 CFG=1
M  V30 19 C 11.002816 8.464801 -8.069247 0
M  V30 20 C 11.178263 9.540714 -7.167460 0
M  V30 21 C 11.195777 9.350445 -5.776569 0
M  V30 22 F 11.285869 10.414272 -4.946153 0
M  V30 23 C 11.114218 8.056469 -5.251967 0
M  V30 24 C 10.926368 6.972415 -6.121038 0
M  V30 25 C 10.833524 7.172856 -7.520448 0
M  V30 26 O 10.599669 6.131020 -8.380244 0
M  V30 27 C 9.505025 5.295591 -8.059753 0
M  V30 28 C 9.522375 4.085986 -8.986882 0
M  V30 29 C 8.152905 5.993317 -8.110579 0
M  V30 30 C 12.360722 8.021673 -10.117258 0
M  V30 31 C 12.493608 8.039177 -11.631377 0
M  V30 32 C 10.760013 5.843938 -14.241858 0
M  V30 33 C 10.884492 5.626493 -15.766492 0
M  V30 34 C 10.243323 2.760241 -18.615562 0
M  V30 35 C 9.138555 2.020238 -18.127565 0
M  V30 36 O 7.946358 1.911747 -18.813299 0
M  V30 37 C 7.951026 2.217960 -20.201126 0
M  V30 38 H 7.174925 -0.311855 -14.903379 0
M  V30 39 H 8.900214 -0.621539 -15.047481 0
M  V30 40 H 8.316924 0.907823 -14.352388 0
M  V30 41 H 10.561959 0.937568 -15.188533 0
M  V30 42 H 12.470136 2.191205 -16.082390 0
M  V30 43 H 12.925694 6.132469 -18.111673 0
M  V30 44 H 12.778208 4.585246 -15.784608 0
M  V30 45 H 12.808225 7.602836 -16.265965 0
M  V30 46 H 14.196220 6.566358 -16.013184 0
M  V30 47 H 13.680896 7.650548 -13.930579 0
M  V30 48 H 13.286005 5.918767 -13.796926 0
M  V30 49 H 11.286065 8.015530 -14.300524 0
M  V30 50 H 9.232522 7.379160 -12.305909 0
M  V30 51 H 9.857677 8.971792 -12.393790 0
M  V30 52 H 9.566050 7.158645 -10.093129 0
M  V30 53 H 8.969621 8.763600 -10.185454 0
M  V30 54 H 11.159651 9.750540 -9.785457 0
M  V30 55 H 11.288144 10.548633 -7.509839 0
M  V30 56 H 11.175272 7.897676 -4.185799 0
M  V30 57 H 10.868128 5.986834 -5.688194 0
M  V30 58 H 9.632192 4.975868 -7.046925 0
M  V30 59 H 8.771961 3.372653 -8.646933 0
M  V30 60 H 9.298208 4.368397 -10.015084 0
M  V30 61 H 10.487424 3.582850 -8.985173 0
M  V30 62 H 7.397233 5.372140 -7.638511 0
M  V30 63 H 8.157143 6.940351 -7.571670 0
M  V30 64 H 7.827229 6.172614 -9.133211 0
M  V30 65 H 13.236679 8.477160 -9.652812 0
M  V30 66 H 12.375509 6.972333 -9.842932 0
M  V30 67 H 13.286064 7.372453 -11.846978 0
M  V30 68 H 12.885959 8.979952 -12.020842 0
M  V30 69 H 11.139742 4.960834 -13.727037 0
M  V30 70 H 9.707585 5.893455 -13.968548 0
M  V30 71 H 10.485935 6.487062 -16.299133 0
M  V30 72 H 10.289826 4.762813 -16.064901 0
M  V30 73 H 10.192148 3.302079 -19.546978 0
M  V30 74 H 6.990037 1.934820 -20.630756 0
M  V30 75 H 8.084547 3.286281 -20.372906 0
M  V30 76 H 8.727405 1.663997 -20.731041 0
M  V30 77 H 11.313911 6.456493 -11.879272 0
M  V30 END ATOM
M  V30 BEGIN BOND
M  V30 1 1 2 1
M  V30 2 1 3 2
M  V30 3 1 4 3
M  V30 4 2 5 4
M  V30 5 1 6 5
M  V30 6 1 7 6
M  V30 7 2 8 7
M  V30 8 2 9 7
M  V30 9 1 10 7
M  V30 10 1 11 10
M  V30 11 1 12 11
M  V30 12 1 13 12
M  V30 13 1 14 13
M  V30 14 1 15 14
M  V30 15 1 16 15
M  V30 16 1 17 16
M  V30 17 1 18 17
M  V30 18 1 19 18
M  V30 19 1 20 19
M  V30 20 2 21 20
M  V30 21 1 22 21
M  V30 22 1 23 21
M  V30 23 2 24 23
M  V30 24 2 25 19
M  V30 25 1 25 24
M  V30 26 1 26 25
M  V30 27 1 27 26
M  V30 28 1 28 27
M  V30 29 1 29 27
M  V30 30 1 30 18
M  V30 31 1 31 15
M  V30 32 1 31 30
M  V30 33 1 32 14
M  V30 34 1 33 11
M  V30 35 1 33 32
M  V30 36 2 34 6
M  V30 37 2 35 3
M  V30 38 1 35 34
M  V30 39 1 36 35
M  V30 40 1 37 36
M  V30 41 1 38 1
M  V30 42 1 39 1
M  V30 43 1 40 1
M  V30 44 1 41 4
M  V30 45 1 42 5
M  V30 46 1 43 10
M  V30 47 1 11 44 CFG=1
M  V30 48 1 45 12
M  V30 49 1 46 12
M  V30 50 1 47 13
M  V30 51 1 48 13
M  V30 52 1 14 49 CFG=3
M  V30 53 1 50 16
M  V30 54 1 51 16
M  V30 55 1 52 17
M  V30 56 1 53 17
M  V30 57 1 18 54 CFG=1
M  V30 58 1 55 20
M  V30 59 1 56 23
M  V30 60 1 57 24
M  V30 61 1 58 27
M  V30 62 1 59 28
M  V30 63 1 60 28
M  V30 64 1 61 28
M  V30 65 1 62 29
M  V30 66 1 63 29
M  V30 67 1 64 29
M  V30 68 1 65 30
M  V30 69 1 66 30
M  V30 70 1 67 31
M  V30 71 1 68 31
M  V30 72 1 69 32
M  V30 73 1 70 32
M  V30 74 1 71 33
M  V30 75 1 72 33
M  V30 76 1 73 34
M  V30 77 1 74 37
M  V30 78 1 75 37
M  V30 79 1 76 37
M  V30 80 1 15 77 CFG=1
M  V30 END BOND
M  V30 END CTAB
M  END
>  <b_m_subgroup_collapsed>  (1974) 
0

>  <r_i_docking_score>  (1974) 
-6.4031800629576496

>  <s_m_subgroup_title>  (1974) 
glide-dock_SP_D22_pv

>  <s_m_subgroupid>  (1974) 
glide-dock_SP_D22_pv

>  <Molecule ChEMBL ID>  (1974) 
CHEMBL390473

>  <Standard Type>  (1974) 
Ki

>  <Standard Value>  (1974) 
94.0

>  <label>  (1974) 
1

$$$$
CHEMBL599135
     RDKit          3D

  0  0  0  0  0  0  0  0  0  0999 V3000
M  V30 BEGIN CTAB
M  V30 COUNTS 60 64 0 0 1
M  V30 BEGIN ATOM
M  V30 1 C 8.433011 0.486563 -14.585861 0
M  V30 2 N 9.047190 1.248021 -15.700029 0 CFG=1 CHG=1
M  V30 3 C 8.113177 1.364885 -16.852978 0
M  V30 4 C 8.660720 2.237005 -18.002148 0
M  V30 5 C 10.073544 1.841874 -18.380091 0
M  V30 6 C 10.280335 1.201617 -19.624046 0
M  V30 7 C 11.559943 0.754273 -20.000334 0
M  V30 8 Cl 11.774399 -0.054102 -21.512022 0
M  V30 9 C 12.648890 0.953572 -19.130291 0
M  V30 10 O 13.896277 0.518805 -19.472502 0
M  V30 11 C 12.447780 1.597582 -17.898743 0
M  V30 12 C 11.171542 2.058527 -17.503128 0
M  V30 13 C 11.057197 2.688703 -16.097206 0 CFG=1
M  V30 14 C 11.649046 4.096875 -15.910013 0
M  V30 15 C 12.439001 4.691377 -16.921021 0
M  V30 16 C 13.050920 5.937275 -16.715437 0
M  V30 17 C 12.882827 6.606727 -15.495818 0
M  V30 18 C 12.076040 6.064225 -14.472455 0
M  V30 19 C 11.970450 6.872570 -13.228553 0
M  V30 20 N 10.942023 6.969492 -12.496131 0
M  V30 21 O 11.224967 7.671694 -11.318633 0
M  V30 22 C 10.045499 7.670731 -10.519509 0
M  V30 23 C 10.325581 8.001146 -9.065701 0
M  V30 24 C 11.501810 8.676898 -8.680290 0
M  V30 25 C 11.730769 8.971739 -7.319975 0
M  V30 26 C 10.796663 8.590434 -6.338753 0
M  V30 27 C 9.624516 7.914127 -6.723257 0
M  V30 28 C 9.390020 7.621477 -8.080324 0
M  V30 29 C 11.440515 4.798843 -14.684526 0
M  V30 30 C 10.528347 4.195903 -13.606634 0
M  V30 31 C 9.989315 2.782241 -13.868035 0
M  V30 32 C 9.699256 2.552428 -15.361947 0 CFG=2
M  V30 33 H 7.643847 1.058610 -14.097000 0
M  V30 34 H 9.180549 0.201979 -13.847789 0
M  V30 35 H 7.988167 -0.438989 -14.952389 0
M  V30 36 H 7.910267 0.360740 -17.228569 0
M  V30 37 H 7.155046 1.771393 -16.517916 0
M  V30 38 H 8.003561 2.121866 -18.864098 0
M  V30 39 H 8.634003 3.299405 -17.767963 0
M  V30 40 H 9.447600 1.029366 -20.291157 0
M  V30 41 H 13.919202 0.114833 -20.328426 0
M  V30 42 H 13.286355 1.742199 -17.239862 0
M  V30 43 H 11.746661 2.062045 -15.526178 0
M  V30 44 H 12.607486 4.204387 -17.868851 0
M  V30 45 H 13.655817 6.376071 -17.492933 0
M  V30 46 H 13.370731 7.562019 -15.357508 0
M  V30 47 H 12.876845 7.420308 -12.952138 0
M  V30 48 H 9.328915 8.390018 -10.919739 0
M  V30 49 H 9.562230 6.691125 -10.544147 0
M  V30 50 H 12.232962 8.974290 -9.420534 0
M  V30 51 H 12.634026 9.490850 -7.031194 0
M  V30 52 H 10.979848 8.812882 -5.299560 0
M  V30 53 H 8.895425 7.616787 -5.982957 0
M  V30 54 H 8.484407 7.107213 -8.367940 0
M  V30 55 H 11.042043 4.184823 -12.645994 0
M  V30 56 H 9.673925 4.863717 -13.500300 0
M  V30 57 H 10.728776 2.060457 -13.523136 0
M  V30 58 H 9.106346 2.644299 -13.248920 0
M  V30 59 H 9.026194 3.360820 -15.653440 0
M  V30 60 H 9.803236 0.665780 -16.031641 0
M  V30 END ATOM
M  V30 BEGIN BOND
M  V30 1 1 2 1
M  V30 2 1 3 2
M  V30 3 1 4 3
M  V30 4 1 5 4
M  V30 5 1 6 5
M  V30 6 2 7 6
M  V30 7 1 8 7
M  V30 8 1 9 7
M  V30 9 1 10 9
M  V30 10 2 11 9
M  V30 11 2 12 5
M  V30 12 1 12 11
M  V30 13 1 13 12
M  V30 14 1 14 13
M  V30 15 2 15 14
M  V30 16 1 16 15
M  V30 17 2 17 16
M  V30 18 1 18 17
M  V30 19 1 19 18
M  V30 20 2 20 19
M  V30 21 1 21 20
M  V30 22 1 22 21
M  V30 23 1 23 22
M  V30 24 2 24 23
M  V30 25 1 25 24
M  V30 26 2 26 25
M  V30 27 1 27 26
M  V30 28 1 28 23
M  V30 29 2 28 27
M  V30 30 1 29 14
M  V30 31 2 29 18
M  V30 32 1 30 29
M  V30 33 1 31 30
M  V30 34 1 32 2
M  V30 35 1 32 13
M  V30 36 1 32 31
M  V30 37 1 33 1
M  V30 38 1 34 1
M  V30 39 1 35 1
M  V30 40 1 36 3
M  V30 41 1 37 3
M  V30 42 1 38 4
M  V30 43 1 39 4
M  V30 44 1 40 6
M  V30 45 1 41 10
M  V30 46 1 42 11
M  V30 47 1 13 43 CFG=1
M  V30 48 1 44 15
M  V30 49 1 45 16
M  V30 50 1 46 17
M  V30 51 1 47 19
M  V30 52 1 48 22
M  V30 53 1 49 22
M  V30 54 1 50 24
M  V30 55 1 51 25
M  V30 56 1 52 26
M  V30 57 1 53 27
M  V30 58 1 54 28
M  V30 59 1 55 30
M  V30 60 1 56 30
M  V30 61 1 57 31
M  V30 62 1 58 31
M  V30 63 1 32 59 CFG=3
M  V30 64 1 2 60 CFG=3
M  V30 END BOND
M  V30 END CTAB
M  END
>  <b_m_subgroup_collapsed>  (1975) 
0

>  <r_i_docking_score>  (1975) 
-6.4008316281762703

>  <s_m_subgroup_title>  (1975) 
glide-dock_SP_D22_pv

>  <s_m_subgroupid>  (1975) 
glide-dock_SP_D22_pv

>  <Molecule ChEMBL ID>  (1975) 
CHEMBL599135

>  <Standard Type>  (1975) 
Ki

>  <Standard Value>  (1975) 
69.0

>  <label>  (1975) 
1

$$$$
CHEMBL5723009
     RDKit          3D

  0  0  0  0  0  0  0  0  0  0999 V3000
M  V30 BEGIN CTAB
M  V30 COUNTS 38 40 0 0 1
M  V30 BEGIN ATOM
M  V30 1 O 10.968705 4.394872 -13.845477 0
M  V30 2 C 10.103534 5.045335 -13.258986 0
M  V30 3 C 10.431109 6.306044 -12.558232 0
M  V30 4 C 9.483100 7.001698 -11.893561 0
M  V30 5 C 9.776461 8.331537 -11.214229 0
M  V30 6 N 9.285904 8.408267 -9.848169 0
M  V30 7 C 10.039804 7.573070 -8.924181 0
M  V30 8 C 9.234419 7.391748 -7.626972 0
M  V30 9 C 10.073736 6.888976 -6.433419 0
M  V30 10 N 10.885530 7.896917 -5.758418 0
M  V30 11 C 11.685901 7.718216 -4.646317 0
M  V30 12 C 12.154877 8.972846 -4.380485 0
M  V30 13 N 11.644105 9.848629 -5.334332 0
M  V30 14 N 10.888291 9.193741 -6.157044 0
M  V30 15 N 8.160842 6.571911 -11.846926 0
M  V30 16 C 7.734029 5.407482 -12.495348 0
M  V30 17 C 6.382650 5.014016 -12.441142 0
M  V30 18 C 5.958526 3.852288 -13.117677 0
M  V30 19 C 6.887270 3.082981 -13.846477 0
M  V30 20 F 6.486588 1.959672 -14.485646 0
M  V30 21 C 8.241362 3.465869 -13.891842 0
M  V30 22 C 8.673022 4.627612 -13.216488 0
M  V30 23 H 11.449989 6.661509 -12.606417 0
M  V30 24 H 9.289261 9.113604 -11.797881 0
M  V30 25 H 10.846786 8.540930 -11.225547 0
M  V30 26 H 8.294034 8.172078 -9.844915 0
M  V30 27 H 11.000216 8.049649 -8.730145 0
M  V30 28 H 10.243254 6.593792 -9.358460 0
M  V30 29 H 8.451041 6.659153 -7.826864 0
M  V30 30 H 8.703248 8.306169 -7.354396 0
M  V30 31 H 10.729776 6.076942 -6.750135 0
M  V30 32 H 9.400559 6.466252 -5.686409 0
M  V30 33 H 11.823329 6.763191 -4.158731 0
M  V30 34 H 12.810019 9.318124 -3.593344 0
M  V30 35 H 7.477102 7.094515 -11.290003 0
M  V30 36 H 5.673090 5.604858 -11.880630 0
M  V30 37 H 4.923256 3.549239 -13.078700 0
M  V30 38 H 8.944489 2.860126 -14.446054 0
M  V30 END ATOM
M  V30 BEGIN BOND
M  V30 1 2 2 1
M  V30 2 1 3 2
M  V30 3 2 4 3
M  V30 4 1 5 4
M  V30 5 1 6 5
M  V30 6 1 7 6
M  V30 7 1 8 7
M  V30 8 1 9 8
M  V30 9 1 10 9
M  V30 10 1 11 10
M  V30 11 2 12 11
M  V30 12 1 13 12
M  V30 13 1 14 10
M  V30 14 2 14 13
M  V30 15 1 15 4
M  V30 16 1 16 15
M  V30 17 2 17 16
M  V30 18 1 18 17
M  V30 19 2 19 18
M  V30 20 1 20 19
M  V30 21 1 21 19
M  V30 22 1 22 2
M  V30 23 1 22 16
M  V30 24 2 22 21
M  V30 25 1 23 3
M  V30 26 1 24 5
M  V30 27 1 25 5
M  V30 28 1 26 6
M  V30 29 1 27 7
M  V30 30 1 28 7
M  V30 31 1 29 8
M  V30 32 1 30 8
M  V30 33 1 31 9
M  V30 34 1 32 9
M  V30 35 1 33 11
M  V30 36 1 34 12
M  V30 37 1 35 15
M  V30 38 1 36 17
M  V30 39 1 37 18
M  V30 40 1 38 21
M  V30 END BOND
M  V30 END CTAB
M  END
>  <b_m_subgroup_collapsed>  (1976) 
0

>  <r_i_docking_score>  (1976) 
-6.3998974575697503

>  <s_m_subgroup_title>  (1976) 
glide-dock_SP_D22_pv

>  <s_m_subgroupid>  (1976) 
glide-dock_SP_D22_pv

>  <Molecule ChEMBL ID>  (1976) 
CHEMBL5723009

>  <Standard Type>  (1976) 
Ki

>  <Standard Value>  (1976) 
10000.0

>  <label>  (1976) 
0

$$$$
CHEMBL296512
     RDKit          3D

  0  0  0  0  0  0  0  0  0  0999 V3000
M  V30 BEGIN CTAB
M  V30 COUNTS 42 45 0 0 1
M  V30 BEGIN ATOM
M  V30 1 F 10.658350 9.425234 -6.400709 0
M  V30 2 C 10.743700 8.972325 -7.674040 0
M  V30 3 C 9.607986 8.972324 -8.502909 0
M  V30 4 C 9.700215 8.504395 -9.827431 0
M  V30 5 C 10.908894 7.961476 -10.322438 0
M  V30 6 C 10.982312 7.284962 -11.622602 0
M  V30 7 N 12.130784 7.372324 -12.394512 0
M  V30 8 C 12.032969 6.614500 -13.542615 0
M  V30 9 C 12.886022 6.439566 -14.646864 0
M  V30 10 C 12.543991 5.525436 -15.656128 0
M  V30 11 F 13.371679 5.334360 -16.709709 0
M  V30 12 C 11.343915 4.800815 -15.558949 0
M  V30 13 C 10.478883 5.007118 -14.466111 0
M  V30 14 C 10.790528 5.934712 -13.436686 0
M  V30 15 C 10.105238 6.435329 -12.261399 0
M  V30 16 C 8.717012 6.051242 -11.840297 0 CFG=1
M  V30 17 C 7.686022 6.410168 -12.926176 0
M  V30 18 C 6.281424 5.858321 -12.622821 0
M  V30 19 C 6.340833 4.373072 -12.278662 0
M  V30 20 N 7.286022 4.172325 -11.167828 0 CHG=1
M  V30 21 C 8.665721 4.572324 -11.480191 0
M  V30 22 C 12.054952 8.029826 -9.496871 0
M  V30 23 C 11.976787 8.534818 -8.185324 0
M  V30 24 H 8.663579 9.339762 -8.127426 0
M  V30 25 H 8.815338 8.545623 -10.444314 0
M  V30 26 H 12.915197 7.956376 -12.142366 0
M  V30 27 H 13.822544 6.972326 -14.702295 0
M  V30 28 H 11.082231 4.094641 -16.333338 0
M  V30 29 H 9.552327 4.456187 -14.438357 0
M  V30 30 H 8.420770 6.571398 -10.936004 0
M  V30 31 H 7.639193 7.493200 -13.046865 0
M  V30 32 H 8.017486 6.005590 -13.877921 0
M  V30 33 H 5.834591 6.411746 -11.803430 0
M  V30 34 H 5.594372 6.015595 -13.446864 0
M  V30 35 H 5.355104 4.014327 -11.980198 0
M  V30 36 H 6.652709 3.785470 -13.143390 0
M  V30 37 H 6.939437 4.693226 -10.366884 0
M  V30 38 H 9.033062 3.941303 -12.288670 0
M  V30 39 H 9.300830 4.373999 -10.615595 0
M  V30 40 H 13.004619 7.657771 -9.846864 0
M  V30 41 H 12.860006 8.572323 -7.565712 0
M  V30 42 H 7.283892 3.195688 -10.913959 0
M  V30 END ATOM
M  V30 BEGIN BOND
M  V30 1 1 2 1
M  V30 2 1 3 2
M  V30 3 2 4 3
M  V30 4 1 5 4
M  V30 5 1 6 5
M  V30 6 1 7 6
M  V30 7 1 8 7
M  V30 8 1 9 8
M  V30 9 2 10 9
M  V30 10 1 11 10
M  V30 11 1 12 10
M  V30 12 2 13 12
M  V30 13 2 14 8
M  V30 14 1 14 13
M  V30 15 2 15 6
M  V30 16 1 15 14
M  V30 17 1 16 15
M  V30 18 1 17 16
M  V30 19 1 18 17
M  V30 20 1 19 18
M  V30 21 1 20 19
M  V30 22 1 21 16
M  V30 23 1 21 20
M  V30 24 2 22 5
M  V30 25 2 23 2
M  V30 26 1 23 22
M  V30 27 1 24 3
M  V30 28 1 25 4
M  V30 29 1 26 7
M  V30 30 1 27 9
M  V30 31 1 28 12
M  V30 32 1 29 13
M  V30 33 1 16 30 CFG=1
M  V30 34 1 31 17
M  V30 35 1 32 17
M  V30 36 1 33 18
M  V30 37 1 34 18
M  V30 38 1 35 19
M  V30 39 1 36 19
M  V30 40 1 37 20
M  V30 41 1 38 21
M  V30 42 1 39 21
M  V30 43 1 40 22
M  V30 44 1 41 23
M  V30 45 1 42 20
M  V30 END BOND
M  V30 END CTAB
M  END
>  <b_m_subgroup_collapsed>  (1977) 
0

>  <r_i_docking_score>  (1977) 
-6.39935480573003

>  <s_m_subgroup_title>  (1977) 
glide-dock_SP_D22_pv

>  <s_m_subgroupid>  (1977) 
glide-dock_SP_D22_pv

>  <Molecule ChEMBL ID>  (1977) 
CHEMBL296512

>  <Standard Type>  (1977) 
Ki

>  <Standard Value>  (1977) 
28.0

>  <label>  (1977) 
1

$$$$
CHEMBL544532
     RDKit          3D

  0  0  0  0  0  0  0  0  0  0999 V3000
M  V30 BEGIN CTAB
M  V30 COUNTS 40 43 0 0 1
M  V30 BEGIN ATOM
M  V30 1 O 8.488707 8.966992 -7.689526 0
M  V30 2 C 9.414791 8.600677 -8.401489 0
M  V30 3 C 9.285441 8.618537 -9.905904 0
M  V30 4 C 9.803343 7.287523 -10.486471 0 CFG=1
M  V30 5 C 9.111401 5.978558 -9.944720 0
M  V30 6 N 8.612929 5.100841 -11.052333 0 CFG=2 CHG=1
M  V30 7 C 9.706533 4.735782 -11.983944 0
M  V30 8 C 10.307677 6.021488 -12.628409 0
M  V30 9 C 9.625328 7.268768 -12.033051 0 CFG=1
M  V30 10 C 8.119547 7.120790 -12.379247 0
M  V30 11 C 7.559700 5.774372 -11.845657 0
M  V30 12 O 11.205911 7.291481 -10.132911 0
M  V30 13 C 11.544531 7.640072 -8.827290 0
M  V30 14 C 10.720144 8.189187 -7.908340 0
M  V30 15 C 11.068631 8.288934 -6.482451 0
M  V30 16 C 11.286187 7.108457 -5.741125 0
M  V30 17 C 11.653933 7.186522 -4.381266 0
M  V30 18 C 11.727217 8.441098 -3.745917 0
M  V30 19 C 11.450337 9.615602 -4.471564 0
M  V30 20 C 11.135507 9.545542 -5.841945 0
M  V30 21 H 8.268459 8.874354 -10.188828 0
M  V30 22 H 9.912675 9.433345 -10.249197 0
M  V30 23 H 9.802203 5.409550 -9.322543 0
M  V30 24 H 8.264194 6.220569 -9.304084 0
M  V30 25 H 10.467902 4.172076 -11.449465 0
M  V30 26 H 9.329670 4.062057 -12.755083 0
M  V30 27 H 10.160789 5.989671 -13.708635 0
M  V30 28 H 11.383307 6.109285 -12.487813 0
M  V30 29 H 10.039400 8.170313 -12.479828 0
M  V30 30 H 7.970956 7.136696 -13.447068 0
M  V30 31 H 7.561930 7.978199 -12.017426 0
M  V30 32 H 7.250716 5.133559 -12.672853 0
M  V30 33 H 6.665313 5.908237 -11.238867 0
M  V30 34 H 12.558690 7.372691 -8.584556 0
M  V30 35 H 11.211736 6.142634 -6.218411 0
M  V30 36 H 11.846069 6.283215 -3.821372 0
M  V30 37 H 11.978373 8.500499 -2.695859 0
M  V30 38 H 11.478901 10.572127 -3.972508 0
M  V30 39 H 10.935312 10.451165 -6.394207 0
M  V30 40 H 8.218046 4.263196 -10.649069 0
M  V30 END ATOM
M  V30 BEGIN BOND
M  V30 1 2 2 1
M  V30 2 1 3 2
M  V30 3 1 4 3
M  V30 4 1 5 4
M  V30 5 1 6 5
M  V30 6 1 7 6
M  V30 7 1 8 7
M  V30 8 1 9 4
M  V30 9 1 9 8
M  V30 10 1 10 9
M  V30 11 1 11 6
M  V30 12 1 11 10
M  V30 13 1 4 12 CFG=3
M  V30 14 1 13 12
M  V30 15 1 14 2
M  V30 16 2 14 13
M  V30 17 1 15 14
M  V30 18 2 16 15
M  V30 19 1 17 16
M  V30 20 2 18 17
M  V30 21 1 19 18
M  V30 22 1 20 15
M  V30 23 2 20 19
M  V30 24 1 21 3
M  V30 25 1 22 3
M  V30 26 1 23 5
M  V30 27 1 24 5
M  V30 28 1 25 7
M  V30 29 1 26 7
M  V30 30 1 27 8
M  V30 31 1 28 8
M  V30 32 1 9 29 CFG=1
M  V30 33 1 30 10
M  V30 34 1 31 10
M  V30 35 1 32 11
M  V30 36 1 33 11
M  V30 37 1 34 13
M  V30 38 1 35 16
M  V30 39 1 36 17
M  V30 40 1 37 18
M  V30 41 1 38 19
M  V30 42 1 39 20
M  V30 43 1 6 40 CFG=3
M  V30 END BOND
M  V30 END CTAB
M  END
>  <b_m_subgroup_collapsed>  (1978) 
0

>  <r_i_docking_score>  (1978) 
-6.3960155123314602

>  <s_m_subgroup_title>  (1978) 
glide-dock_SP_D22_pv

>  <s_m_subgroupid>  (1978) 
glide-dock_SP_D22_pv

>  <Molecule ChEMBL ID>  (1978) 
CHEMBL544532

>  <Standard Type>  (1978) 
Ki

>  <Standard Value>  (1978) 
10000.0

>  <label>  (1978) 
0

$$$$
CHEMBL5290570
     RDKit          3D

  0  0  0  0  0  0  0  0  0  0999 V3000
M  V30 BEGIN CTAB
M  V30 COUNTS 46 48 0 0 1
M  V30 BEGIN ATOM
M  V30 1 C 12.290820 8.031244 -3.294644 0
M  V30 2 C 11.544312 9.106910 -4.101419 0
M  V30 3 O 11.572591 8.876119 -5.505260 0
M  V30 4 C 10.888160 7.851577 -6.068941 0
M  V30 5 O 10.274628 6.988558 -5.446782 0
M  V30 6 C 10.957302 7.834929 -7.526033 0
M  V30 7 S 12.347832 8.571108 -8.265953 0
M  V30 8 C 11.845161 8.004366 -9.838315 0
M  V30 9 N 12.609352 8.172306 -10.952356 0
M  V30 10 C 12.079378 7.582343 -12.020520 0
M  V30 11 N 10.897518 6.981640 -12.130173 0
M  V30 12 C 10.117686 6.868292 -11.031746 0
M  V30 13 N 8.885451 6.230321 -11.153206 0
M  V30 14 C 8.293923 5.973152 -12.454595 0 CFG=1
M  V30 15 C 8.974946 4.806787 -13.202662 0
M  V30 16 C 7.843213 3.846883 -13.562722 0
M  V30 17 N 6.819108 4.099062 -12.534723 0 CFG=2 CHG=1
M  V30 18 C 5.469518 3.575788 -12.804697 0
M  V30 19 C 5.391155 2.044745 -12.850247 0
M  V30 20 C 6.836320 5.546836 -12.275603 0
M  V30 21 C 10.587008 7.332258 -9.774808 0
M  V30 22 C 10.082560 7.237522 -8.411300 0
M  V30 23 C 8.819686 6.535790 -7.986728 0
M  V30 24 H 12.394347 8.330116 -2.250449 0
M  V30 25 H 11.759403 7.079157 -3.303673 0
M  V30 26 H 13.285853 7.854841 -3.701280 0
M  V30 27 H 12.016813 10.072447 -3.919916 0
M  V30 28 H 10.514341 9.208144 -3.760095 0
M  V30 29 H 12.657390 7.657332 -12.928924 0
M  V30 30 H 8.327746 6.888961 -13.045981 0
M  V30 31 H 9.517533 5.146924 -14.086999 0
M  V30 32 H 9.693107 4.294860 -12.558351 0
M  V30 33 H 7.443652 4.084925 -14.547410 0
M  V30 34 H 8.178509 2.809219 -13.571822 0
M  V30 35 H 4.885695 3.929237 -11.961071 0
M  V30 36 H 5.058555 4.017713 -13.714075 0
M  V30 37 H 4.368420 1.723617 -13.048123 0
M  V30 38 H 6.021231 1.626367 -13.636406 0
M  V30 39 H 5.685759 1.601063 -11.899777 0
M  V30 40 H 6.425756 5.771982 -11.291117 0
M  V30 41 H 6.215132 6.058829 -13.010931 0
M  V30 42 H 8.325297 7.047541 -7.160482 0
M  V30 43 H 8.086531 6.489154 -8.781856 0
M  V30 44 H 9.023322 5.513465 -7.671423 0
M  V30 45 H 8.226035 6.459363 -10.416448 0
M  V30 46 H 7.152595 3.673368 -11.680079 0
M  V30 END ATOM
M  V30 BEGIN BOND
M  V30 1 1 2 1
M  V30 2 1 3 2
M  V30 3 1 4 3
M  V30 4 2 5 4
M  V30 5 1 6 4
M  V30 6 1 7 6
M  V30 7 1 8 7
M  V30 8 2 9 8
M  V30 9 1 10 9
M  V30 10 2 11 10
M  V30 11 1 12 11
M  V30 12 1 13 12
M  V30 13 1 14 13
M  V30 14 1 15 14
M  V30 15 1 16 15
M  V30 16 1 17 16
M  V30 17 1 18 17
M  V30 18 1 19 18
M  V30 19 1 20 14
M  V30 20 1 20 17
M  V30 21 1 21 8
M  V30 22 2 21 12
M  V30 23 2 22 6
M  V30 24 1 22 21
M  V30 25 1 23 22
M  V30 26 1 24 1
M  V30 27 1 25 1
M  V30 28 1 26 1
M  V30 29 1 27 2
M  V30 30 1 28 2
M  V30 31 1 29 10
M  V30 32 1 14 30 CFG=3
M  V30 33 1 31 15
M  V30 34 1 32 15
M  V30 35 1 33 16
M  V30 36 1 34 16
M  V30 37 1 35 18
M  V30 38 1 36 18
M  V30 39 1 37 19
M  V30 40 1 38 19
M  V30 41 1 39 19
M  V30 42 1 40 20
M  V30 43 1 41 20
M  V30 44 1 42 23
M  V30 45 1 43 23
M  V30 46 1 44 23
M  V30 47 1 45 13
M  V30 48 1 17 46 CFG=1
M  V30 END BOND
M  V30 END CTAB
M  END
>  <b_m_subgroup_collapsed>  (1979) 
0

>  <r_i_docking_score>  (1979) 
-6.3956591007832602

>  <s_m_subgroup_title>  (1979) 
glide-dock_SP_D22_pv

>  <s_m_subgroupid>  (1979) 
glide-dock_SP_D22_pv

>  <Molecule ChEMBL ID>  (1979) 
CHEMBL5290570

>  <Standard Type>  (1979) 
Ki

>  <Standard Value>  (1979) 
10000.0

>  <label>  (1979) 
0

$$$$
CHEMBL125459
     RDKit          3D

  0  0  0  0  0  0  0  0  0  0999 V3000
M  V30 BEGIN CTAB
M  V30 COUNTS 64 67 0 0 1
M  V30 BEGIN ATOM
M  V30 1 C 11.815742 11.153094 -6.246970 0
M  V30 2 O 11.220984 9.893947 -6.430235 0
M  V30 3 C 11.454501 8.963413 -5.442801 0
M  V30 4 C 12.243744 9.222116 -4.284951 0
M  V30 5 C 12.485921 8.234718 -3.317883 0
M  V30 6 C 11.950689 6.956204 -3.500099 0
M  V30 7 C 11.176155 6.701363 -4.641727 0
M  V30 8 C 10.899940 7.675719 -5.609880 0
M  V30 9 N 10.068036 7.315311 -6.686366 0
M  V30 10 C 10.409245 6.173385 -7.513199 0
M  V30 11 C 10.714129 6.644622 -8.939945 0
M  V30 12 N 9.657881 7.528071 -9.509333 0 CHG=1
M  V30 13 C 10.044062 7.995241 -10.866190 0
M  V30 14 C 8.863146 8.076771 -11.843934 0
M  V30 15 C 8.235245 6.723300 -12.248155 0
M  V30 16 C 9.214677 5.637620 -12.729151 0
M  V30 17 N 8.476759 4.440478 -13.115706 0
M  V30 18 C 8.661607 3.742457 -14.246858 0
M  V30 19 O 9.517801 4.032085 -15.084122 0
M  V30 20 C 7.720739 2.639253 -14.349376 0
M  V30 21 C 7.562692 1.970325 -15.509508 0
M  V30 22 C 6.657142 0.827929 -15.713911 0
M  V30 23 C 6.213397 0.001381 -14.649455 0
M  V30 24 C 5.286414 -1.045304 -14.879636 0
M  V30 25 C 4.765848 -1.280520 -16.171280 0
M  V30 26 C 5.201505 -0.440271 -17.208561 0
M  V30 27 C 6.115626 0.572172 -16.989683 0
M  V30 28 O 6.328936 1.244207 -18.152458 0
M  V30 29 C 5.515532 0.620324 -19.112869 0
M  V30 30 O 4.822731 -0.440478 -18.511421 0
M  V30 31 C 9.291744 8.651453 -8.601568 0
M  V30 32 C 8.991018 8.160560 -7.171981 0
M  V30 33 H 11.685884 11.825445 -7.082276 0
M  V30 34 H 11.367537 11.621499 -5.374158 0
M  V30 35 H 12.885987 11.027539 -6.133130 0
M  V30 36 H 12.701703 10.172202 -4.096251 0
M  V30 37 H 13.078803 8.461063 -2.443600 0
M  V30 38 H 12.105679 6.181491 -2.761971 0
M  V30 39 H 10.680927 5.770181 -4.737926 0
M  V30 40 H 9.571255 5.474791 -7.513248 0
M  V30 41 H 11.273050 5.641748 -7.114759 0
M  V30 42 H 10.837915 5.772475 -9.578899 0
M  V30 43 H 11.662119 7.187336 -8.940816 0
M  V30 44 H 10.805830 7.344603 -11.295653 0
M  V30 45 H 10.530547 8.967454 -10.792212 0
M  V30 46 H 9.215661 8.592128 -12.732277 0
M  V30 47 H 8.086377 8.730058 -11.447074 0
M  V30 48 H 7.501209 6.916625 -13.031537 0
M  V30 49 H 7.664382 6.318228 -11.418598 0
M  V30 50 H 9.895480 5.348567 -11.929545 0
M  V30 51 H 9.833051 6.014743 -13.543813 0
M  V30 52 H 7.744682 4.136737 -12.490866 0
M  V30 53 H 7.134662 2.356987 -13.487573 0
M  V30 54 H 8.141687 2.264772 -16.374485 0
M  V30 55 H 6.590960 0.153196 -13.649454 0
M  V30 56 H 4.977838 -1.678048 -14.061848 0
M  V30 57 H 4.054534 -2.074919 -16.353855 0
M  V30 58 H 4.797724 1.341674 -19.506746 0
M  V30 59 H 6.132112 0.239157 -19.927908 0
M  V30 60 H 10.113560 9.366015 -8.574311 0
M  V30 61 H 8.432964 9.188146 -9.003736 0
M  V30 62 H 8.086105 7.558053 -7.171987 0
M  V30 63 H 8.803352 8.976267 -6.482169 0
M  V30 64 H 8.817704 6.971622 -9.607629 0
M  V30 END ATOM
M  V30 BEGIN BOND
M  V30 1 1 2 1
M  V30 2 1 3 2
M  V30 3 2 4 3
M  V30 4 1 5 4
M  V30 5 2 6 5
M  V30 6 1 7 6
M  V30 7 1 8 3
M  V30 8 2 8 7
M  V30 9 1 9 8
M  V30 10 1 10 9
M  V30 11 1 11 10
M  V30 12 1 12 11
M  V30 13 1 13 12
M  V30 14 1 14 13
M  V30 15 1 15 14
M  V30 16 1 16 15
M  V30 17 1 17 16
M  V30 18 1 18 17
M  V30 19 2 19 18
M  V30 20 1 20 18
M  V30 21 2 21 20
M  V30 22 1 22 21
M  V30 23 1 23 22
M  V30 24 2 24 23
M  V30 25 1 25 24
M  V30 26 2 26 25
M  V30 27 2 27 22
M  V30 28 1 27 26
M  V30 29 1 28 27
M  V30 30 1 29 28
M  V30 31 1 30 26
M  V30 32 1 30 29
M  V30 33 1 31 12
M  V30 34 1 32 9
M  V30 35 1 32 31
M  V30 36 1 33 1
M  V30 37 1 34 1
M  V30 38 1 35 1
M  V30 39 1 36 4
M  V30 40 1 37 5
M  V30 41 1 38 6
M  V30 42 1 39 7
M  V30 43 1 40 10
M  V30 44 1 41 10
M  V30 45 1 42 11
M  V30 46 1 43 11
M  V30 47 1 44 13
M  V30 48 1 45 13
M  V30 49 1 46 14
M  V30 50 1 47 14
M  V30 51 1 48 15
M  V30 52 1 49 15
M  V30 53 1 50 16
M  V30 54 1 51 16
M  V30 55 1 52 17
M  V30 56 1 53 20
M  V30 57 1 54 21
M  V30 58 1 55 23
M  V30 59 1 56 24
M  V30 60 1 57 25
M  V30 61 1 58 29
M  V30 62 1 59 29
M  V30 63 1 60 31
M  V30 64 1 61 31
M  V30 65 1 62 32
M  V30 66 1 63 32
M  V30 67 1 64 12
M  V30 END BOND
M  V30 END CTAB
M  END
>  <b_m_subgroup_collapsed>  (1980) 
0

>  <r_i_docking_score>  (1980) 
-6.3897751531703904

>  <s_m_subgroup_title>  (1980) 
glide-dock_SP_D22_pv

>  <s_m_subgroupid>  (1980) 
glide-dock_SP_D22_pv

>  <Molecule ChEMBL ID>  (1980) 
CHEMBL125459

>  <Standard Type>  (1980) 
Ki

>  <Standard Value>  (1980) 
8.0

>  <label>  (1980) 
1

$$$$
CHEMBL539057
     RDKit          3D

  0  0  0  0  0  0  0  0  0  0999 V3000
M  V30 BEGIN CTAB
M  V30 COUNTS 44 47 0 0 1
M  V30 BEGIN ATOM
M  V30 1 C 11.040275 8.149107 -7.323178 0
M  V30 2 N 10.162770 7.834925 -8.472070 0 CFG=2 CHG=1
M  V30 3 C 10.177589 6.397920 -8.824187 0
M  V30 4 C 9.048410 6.075808 -9.812019 0
M  V30 5 C 9.098682 6.959318 -11.076773 0 CFG=2
M  V30 6 C 9.890792 6.340573 -12.244584 0
M  V30 7 C 11.053613 6.902581 -12.657789 0
M  V30 8 C 11.892368 6.502884 -13.799279 0
M  V30 9 C 12.511654 7.504387 -14.576678 0
M  V30 10 C 13.258996 7.165620 -15.721591 0
M  V30 11 C 13.399288 5.816915 -16.096476 0
M  V30 12 C 12.785166 4.811543 -15.327746 0
M  V30 13 C 12.029193 5.155380 -14.190030 0
M  V30 14 O 11.447371 4.172652 -13.447900 0
M  V30 15 C 10.085859 4.122207 -13.499027 0
M  V30 16 C 9.509756 3.009790 -14.144498 0
M  V30 17 C 8.115486 2.888185 -14.246909 0
M  V30 18 C 7.297764 3.882353 -13.688537 0
M  V30 19 C 7.873393 4.993657 -13.043083 0
M  V30 20 C 9.281985 5.142599 -12.921495 0
M  V30 21 C 9.395272 8.445401 -10.744673 0
M  V30 22 C 10.466269 8.660946 -9.663612 0
M  V30 23 H 12.083393 7.930736 -7.556578 0
M  V30 24 H 10.964139 9.203802 -7.055195 0
M  V30 25 H 10.754325 7.564546 -6.447917 0
M  V30 26 H 10.064862 5.784979 -7.928943 0
M  V30 27 H 11.144993 6.166145 -9.265930 0
M  V30 28 H 8.092624 6.232197 -9.308286 0
M  V30 29 H 9.066596 5.017857 -10.076898 0
M  V30 30 H 8.085602 7.039093 -11.446691 0
M  V30 31 H 11.439546 7.763778 -12.139588 0
M  V30 32 H 12.407275 8.544770 -14.307305 0
M  V30 33 H 13.722240 7.941667 -16.313606 0
M  V30 34 H 13.974988 5.553228 -16.971504 0
M  V30 35 H 12.890401 3.774718 -15.612186 0
M  V30 36 H 10.146441 2.244510 -14.563930 0
M  V30 37 H 7.677744 2.034525 -14.743082 0
M  V30 38 H 6.222893 3.800698 -13.762835 0
M  V30 39 H 7.182364 5.726588 -12.661538 0
M  V30 40 H 9.628077 8.992748 -11.655238 0
M  V30 41 H 8.486111 8.909039 -10.369585 0
M  V30 42 H 10.488025 9.716864 -9.389611 0
M  V30 43 H 11.463402 8.420142 -10.033797 0
M  V30 44 H 9.213686 8.050258 -8.193057 0
M  V30 END ATOM
M  V30 BEGIN BOND
M  V30 1 1 2 1
M  V30 2 1 3 2
M  V30 3 1 4 3
M  V30 4 1 5 4
M  V30 5 1 6 5
M  V30 6 2 7 6
M  V30 7 1 8 7
M  V30 8 2 9 8
M  V30 9 1 10 9
M  V30 10 2 11 10
M  V30 11 1 12 11
M  V30 12 1 13 8
M  V30 13 2 13 12
M  V30 14 1 14 13
M  V30 15 1 15 14
M  V30 16 2 16 15
M  V30 17 1 17 16
M  V30 18 2 18 17
M  V30 19 1 19 18
M  V30 20 1 20 6
M  V30 21 1 20 15
M  V30 22 2 20 19
M  V30 23 1 21 5
M  V30 24 1 22 2
M  V30 25 1 22 21
M  V30 26 1 23 1
M  V30 27 1 24 1
M  V30 28 1 25 1
M  V30 29 1 26 3
M  V30 30 1 27 3
M  V30 31 1 28 4
M  V30 32 1 29 4
M  V30 33 1 5 30 CFG=3
M  V30 34 1 31 7
M  V30 35 1 32 9
M  V30 36 1 33 10
M  V30 37 1 34 11
M  V30 38 1 35 12
M  V30 39 1 36 16
M  V30 40 1 37 17
M  V30 41 1 38 18
M  V30 42 1 39 19
M  V30 43 1 40 21
M  V30 44 1 41 21
M  V30 45 1 42 22
M  V30 46 1 43 22
M  V30 47 1 2 44 CFG=1
M  V30 END BOND
M  V30 END CTAB
M  END
>  <b_m_subgroup_collapsed>  (1981) 
0

>  <r_i_docking_score>  (1981) 
-6.3880540847454697

>  <s_m_subgroup_title>  (1981) 
glide-dock_SP_D22_pv

>  <s_m_subgroupid>  (1981) 
glide-dock_SP_D22_pv

>  <Molecule ChEMBL ID>  (1981) 
CHEMBL539057

>  <Standard Type>  (1981) 
Ki

>  <Standard Value>  (1981) 
82.0

>  <label>  (1981) 
1

$$$$
CHEMBL3084523
     RDKit          3D

  0  0  0  0  0  0  0  0  0  0999 V3000
M  V30 BEGIN CTAB
M  V30 COUNTS 55 60 0 0 1
M  V30 BEGIN ATOM
M  V30 1 O 10.570052 1.823514 -16.699133 0
M  V30 2 C 9.787643 2.384599 -15.659299 0 CFG=1
M  V30 3 C 8.535753 1.503789 -15.493069 0
M  V30 4 C 7.650217 1.355055 -16.587690 0
M  V30 5 C 6.485738 0.571231 -16.480391 0
M  V30 6 C 6.179564 -0.075274 -15.271256 0
M  V30 7 Cl 4.734534 -1.002586 -15.119948 0
M  V30 8 C 7.061030 0.038859 -14.183693 0
M  V30 9 C 8.233854 0.806140 -14.299004 0
M  V30 10 C 10.699009 2.495689 -14.391910 0
M  V30 11 C 11.623022 3.753007 -14.363366 0 CFG=1
M  V30 12 C 12.540216 3.832009 -15.595558 0
M  V30 13 C 11.737602 4.612895 -16.641735 0
M  V30 14 C 10.424118 4.926786 -15.916601 0 CFG=1
M  V30 15 C 9.354096 3.815748 -16.084600 0
M  V30 16 N 10.843737 4.993948 -14.511369 0 CFG=1 CHG=1
M  V30 17 C 9.826458 5.357797 -13.481344 0
M  V30 18 C 10.432223 6.260228 -12.433428 0
M  V30 19 C 11.517541 7.109905 -12.532284 0
M  V30 20 O 11.851260 7.772610 -11.364702 0
M  V30 21 C 10.927949 7.372181 -10.424433 0
M  V30 22 C 10.072298 6.469891 -11.071533 0
M  V30 23 C 9.033146 5.867600 -10.324244 0
M  V30 24 C 8.891156 6.179049 -8.950586 0
M  V30 25 C 9.778765 7.081541 -8.314696 0
M  V30 26 C 9.655449 7.375198 -6.939132 0
M  V30 27 C 10.564753 8.259532 -6.320893 0
M  V30 28 C 11.594083 8.862593 -7.071918 0
M  V30 29 C 11.724454 8.571378 -8.444159 0
M  V30 30 C 10.817682 7.689399 -9.061225 0
M  V30 31 H 11.350101 2.340361 -16.822876 0
M  V30 32 H 7.871627 1.837276 -17.528870 0
M  V30 33 H 5.820664 0.475340 -17.327044 0
M  V30 34 H 6.843206 -0.475685 -13.259227 0
M  V30 35 H 8.885530 0.843892 -13.446946 0
M  V30 36 H 10.089560 2.550334 -13.493143 0
M  V30 37 H 11.286099 1.584569 -14.271541 0
M  V30 38 H 12.209212 3.776978 -13.446796 0
M  V30 39 H 12.878432 2.859942 -15.949751 0
M  V30 40 H 13.440285 4.396218 -15.347861 0
M  V30 41 H 11.592522 4.077835 -17.579538 0
M  V30 42 H 12.259497 5.539079 -16.890219 0
M  V30 43 H 10.078715 5.896077 -16.258759 0
M  V30 44 H 8.974833 3.821542 -17.106409 0
M  V30 45 H 8.509442 4.083590 -15.446437 0
M  V30 46 H 8.997694 5.896196 -13.942366 0
M  V30 47 H 9.383912 4.489012 -12.999293 0
M  V30 48 H 12.184895 7.354780 -13.345724 0
M  V30 49 H 8.342392 5.176629 -10.786507 0
M  V30 50 H 8.086004 5.729456 -8.387658 0
M  V30 51 H 8.866878 6.922283 -6.354546 0
M  V30 52 H 10.476726 8.478078 -5.268353 0
M  V30 53 H 12.291318 9.537376 -6.596446 0
M  V30 54 H 12.520142 9.020343 -9.020079 0
M  V30 55 H 11.515885 5.745147 -14.480783 0
M  V30 END ATOM
M  V30 BEGIN BOND
M  V30 1 1 2 1 CFG=3
M  V30 2 1 3 2
M  V30 3 1 4 3
M  V30 4 2 5 4
M  V30 5 1 6 5
M  V30 6 1 7 6
M  V30 7 2 8 6
M  V30 8 2 9 3
M  V30 9 1 9 8
M  V30 10 1 10 2
M  V30 11 1 11 10
M  V30 12 1 12 11
M  V30 13 1 13 12
M  V30 14 1 14 13
M  V30 15 1 15 2
M  V30 16 1 15 14
M  V30 17 1 16 11
M  V30 18 1 16 14
M  V30 19 1 17 16
M  V30 20 1 18 17
M  V30 21 2 19 18
M  V30 22 1 20 19
M  V30 23 1 21 20
M  V30 24 1 22 18
M  V30 25 2 22 21
M  V30 26 1 23 22
M  V30 27 2 24 23
M  V30 28 1 25 24
M  V30 29 2 26 25
M  V30 30 1 27 26
M  V30 31 2 28 27
M  V30 32 1 29 28
M  V30 33 1 30 21
M  V30 34 1 30 25
M  V30 35 2 30 29
M  V30 36 1 31 1
M  V30 37 1 32 4
M  V30 38 1 33 5
M  V30 39 1 34 8
M  V30 40 1 35 9
M  V30 41 1 36 10
M  V30 42 1 37 10
M  V30 43 1 11 38 CFG=1
M  V30 44 1 39 12
M  V30 45 1 40 12
M  V30 46 1 41 13
M  V30 47 1 42 13
M  V30 48 1 14 43 CFG=3
M  V30 49 1 44 15
M  V30 50 1 45 15
M  V30 51 1 46 17
M  V30 52 1 47 17
M  V30 53 1 48 19
M  V30 54 1 49 23
M  V30 55 1 50 24
M  V30 56 1 51 26
M  V30 57 1 52 27
M  V30 58 1 53 28
M  V30 59 1 54 29
M  V30 60 1 16 55 CFG=3
M  V30 END BOND
M  V30 END CTAB
M  END
>  <b_m_subgroup_collapsed>  (1982) 
0

>  <r_i_docking_score>  (1982) 
-6.3842999153798896

>  <s_m_subgroup_title>  (1982) 
glide-dock_SP_D22_pv

>  <s_m_subgroupid>  (1982) 
glide-dock_SP_D22_pv

>  <Molecule ChEMBL ID>  (1982) 
CHEMBL3084523

>  <Standard Type>  (1982) 
Ki

>  <Standard Value>  (1982) 
5.6

>  <label>  (1982) 
1

$$$$
CHEMBL11493
     RDKit          3D

  0  0  0  0  0  0  0  0  0  0999 V3000
M  V30 BEGIN CTAB
M  V30 COUNTS 58 61 0 0 1
M  V30 BEGIN ATOM
M  V30 1 C 11.816428 7.020269 -3.773619 0
M  V30 2 C 11.070449 7.015882 -5.113796 0
M  V30 3 C 10.927248 8.428302 -5.709715 0
M  V30 4 C 10.064275 8.484685 -6.990374 0
M  V30 5 N 10.908540 8.554754 -8.213953 0 CFG=1 CHG=1
M  V30 6 C 11.542106 7.305177 -8.647593 0 CFG=2
M  V30 7 C 12.344904 7.766294 -9.870645 0
M  V30 8 C 11.501369 8.901474 -10.453317 0
M  V30 9 C 10.330679 9.055593 -9.478443 0 CFG=1
M  V30 10 C 9.122082 8.191084 -9.880598 0
M  V30 11 C 9.469944 6.703162 -10.119459 0 CFG=1
M  V30 12 O 10.005757 6.603791 -11.447789 0
M  V30 13 C 9.910347 5.381193 -12.193945 0
M  V30 14 C 10.937722 5.372211 -13.338925 0
M  V30 15 C 11.334718 4.167210 -13.962500 0
M  V30 16 C 12.261327 4.172363 -15.023625 0
M  V30 17 C 12.836674 5.379339 -15.454270 0
M  V30 18 F 13.733342 5.381039 -16.468447 0
M  V30 19 C 12.485505 6.582195 -14.817905 0
M  V30 20 C 11.554362 6.572298 -13.763047 0
M  V30 21 C 8.483041 5.050340 -12.655165 0
M  V30 22 C 8.178676 3.773125 -13.177394 0
M  V30 23 C 6.847557 3.374139 -13.398573 0
M  V30 24 C 5.798096 4.234459 -13.045284 0
M  V30 25 F 4.526081 3.772738 -13.047174 0
M  V30 26 C 6.085681 5.552482 -12.646778 0
M  V30 27 C 7.422370 5.966156 -12.477805 0
M  V30 28 C 10.456661 6.236962 -9.020927 0
M  V30 29 H 11.920085 6.008433 -3.382324 0
M  V30 30 H 12.818770 7.435463 -3.877151 0
M  V30 31 H 11.286510 7.608841 -3.024151 0
M  V30 32 H 10.084185 6.572746 -4.970613 0
M  V30 33 H 11.593170 6.357365 -5.805602 0
M  V30 34 H 11.912235 8.858018 -5.894975 0
M  V30 35 H 10.485827 9.076762 -4.954381 0
M  V30 36 H 9.453594 9.375544 -6.965991 0
M  V30 37 H 9.335818 7.677034 -7.008251 0
M  V30 38 H 12.199639 6.971974 -7.846783 0
M  V30 39 H 12.485875 6.972754 -10.600024 0
M  V30 40 H 13.326271 8.140100 -9.575459 0
M  V30 41 H 11.151339 8.651548 -11.446773 0
M  V30 42 H 12.085930 9.814629 -10.525282 0
M  V30 43 H 10.033131 10.098513 -9.446861 0
M  V30 44 H 8.614298 8.611800 -10.748526 0
M  V30 45 H 8.423055 8.254405 -9.055907 0
M  V30 46 H 8.556727 6.111043 -10.054385 0
M  V30 47 H 10.184286 4.570946 -11.518620 0
M  V30 48 H 10.950697 3.216255 -13.632044 0
M  V30 49 H 12.541462 3.245628 -15.499851 0
M  V30 50 H 12.931814 7.511475 -15.138350 0
M  V30 51 H 11.287819 7.510523 -13.306789 0
M  V30 52 H 8.944294 3.034645 -13.333107 0
M  V30 53 H 6.631722 2.369281 -13.729933 0
M  V30 54 H 5.286397 6.236543 -12.398913 0
M  V30 55 H 7.607002 6.964341 -12.113127 0
M  V30 56 H 9.891010 5.958875 -8.133273 0
M  V30 57 H 10.885939 5.299735 -9.332016 0
M  V30 58 H 11.661067 9.190171 -7.993699 0
M  V30 END ATOM
M  V30 BEGIN BOND
M  V30 1 1 2 1
M  V30 2 1 3 2
M  V30 3 1 4 3
M  V30 4 1 5 4
M  V30 5 1 6 5
M  V30 6 1 7 6
M  V30 7 1 8 7
M  V30 8 1 9 5
M  V30 9 1 9 8
M  V30 10 1 10 9
M  V30 11 1 11 10
M  V30 12 1 12 11
M  V30 13 1 13 12
M  V30 14 1 14 13
M  V30 15 1 15 14
M  V30 16 2 16 15
M  V30 17 1 17 16
M  V30 18 1 18 17
M  V30 19 2 19 17
M  V30 20 2 20 14
M  V30 21 1 20 19
M  V30 22 1 21 13
M  V30 23 1 22 21
M  V30 24 2 23 22
M  V30 25 1 24 23
M  V30 26 1 25 24
M  V30 27 2 26 24
M  V30 28 2 27 21
M  V30 29 1 27 26
M  V30 30 1 28 6
M  V30 31 1 28 11
M  V30 32 1 29 1
M  V30 33 1 30 1
M  V30 34 1 31 1
M  V30 35 1 32 2
M  V30 36 1 33 2
M  V30 37 1 34 3
M  V30 38 1 35 3
M  V30 39 1 36 4
M  V30 40 1 37 4
M  V30 41 1 6 38 CFG=1
M  V30 42 1 39 7
M  V30 43 1 40 7
M  V30 44 1 41 8
M  V30 45 1 42 8
M  V30 46 1 9 43 CFG=1
M  V30 47 1 44 10
M  V30 48 1 45 10
M  V30 49 1 11 46 CFG=3
M  V30 50 1 47 13
M  V30 51 1 48 15
M  V30 52 1 49 16
M  V30 53 1 50 19
M  V30 54 1 51 20
M  V30 55 1 52 22
M  V30 56 1 53 23
M  V30 57 1 54 26
M  V30 58 1 55 27
M  V30 59 1 56 28
M  V30 60 1 57 28
M  V30 61 1 5 58 CFG=1
M  V30 END BOND
M  V30 END CTAB
M  END
>  <b_m_subgroup_collapsed>  (1983) 
0

>  <r_i_docking_score>  (1983) 
-6.38135294388369

>  <s_m_subgroup_title>  (1983) 
glide-dock_SP_D22_pv

>  <s_m_subgroupid>  (1983) 
glide-dock_SP_D22_pv

>  <Molecule ChEMBL ID>  (1983) 
CHEMBL11493

>  <Standard Type>  (1983) 
Ki

>  <Standard Value>  (1983) 
68.1

>  <label>  (1983) 
1

$$$$
CHEMBL45168
     RDKit          3D

  0  0  0  0  0  0  0  0  0  0999 V3000
M  V30 BEGIN CTAB
M  V30 COUNTS 38 39 0 0 1
M  V30 BEGIN ATOM
M  V30 1 F 5.559587 4.358488 -13.305940 0
M  V30 2 C 6.092317 4.899722 -12.211800 0
M  V30 3 C 7.497355 5.434910 -12.524672 0
M  V30 4 N 8.086031 6.172240 -11.381620 0 CFG=2 CHG=1
M  V30 5 C 9.092586 7.183139 -11.792050 0
M  V30 6 C 9.518214 8.051359 -10.594374 0
M  V30 7 C 10.030173 7.190412 -9.426668 0 CFG=1
M  V30 8 C 10.388624 8.046994 -8.203990 0
M  V30 9 O 10.975013 7.175529 -7.252935 0
M  V30 10 C 11.276335 7.663819 -6.004839 0
M  V30 11 C 11.685876 6.712215 -5.053939 0
M  V30 12 C 12.042478 7.088335 -3.751881 0
M  V30 13 C 11.983562 8.441290 -3.390317 0
M  V30 14 I 12.486265 8.972353 -1.446923 0
M  V30 15 C 11.571341 9.411215 -4.322743 0
M  V30 16 C 11.220704 9.029016 -5.633008 0
M  V30 17 C 8.986360 6.110169 -9.075858 0
M  V30 18 C 8.604660 5.285035 -10.311189 0
M  V30 19 H 6.102923 4.123163 -11.447539 0
M  V30 20 H 5.425648 5.695668 -11.879549 0
M  V30 21 H 7.420450 6.105802 -13.380383 0
M  V30 22 H 8.162209 4.624757 -12.831313 0
M  V30 23 H 8.670022 7.831412 -12.560388 0
M  V30 24 H 9.958327 6.686227 -12.232839 0
M  V30 25 H 8.673678 8.657542 -10.265057 0
M  V30 26 H 10.292827 8.752173 -10.908106 0
M  V30 27 H 10.940856 6.687983 -9.757162 0
M  V30 28 H 9.494229 8.522654 -7.798531 0
M  V30 29 H 11.099314 8.826496 -8.483178 0
M  V30 30 H 11.746010 5.681426 -5.346017 0
M  V30 31 H 12.355466 6.341815 -3.036394 0
M  V30 32 H 11.517784 10.449479 -4.030190 0
M  V30 33 H 10.916018 9.792756 -6.333147 0
M  V30 34 H 9.373368 5.446298 -8.302995 0
M  V30 35 H 8.088385 6.571742 -8.661915 0
M  V30 36 H 7.853604 4.549034 -10.029967 0
M  V30 37 H 9.468171 4.726680 -10.677800 0
M  V30 38 H 7.337230 6.730717 -10.955977 0
M  V30 END ATOM
M  V30 BEGIN BOND
M  V30 1 1 2 1
M  V30 2 1 3 2
M  V30 3 1 4 3
M  V30 4 1 5 4
M  V30 5 1 6 5
M  V30 6 1 7 6
M  V30 7 1 8 7
M  V30 8 1 9 8
M  V30 9 1 10 9
M  V30 10 1 11 10
M  V30 11 2 12 11
M  V30 12 1 13 12
M  V30 13 1 14 13
M  V30 14 2 15 13
M  V30 15 2 16 10
M  V30 16 1 16 15
M  V30 17 1 17 7
M  V30 18 1 18 4
M  V30 19 1 18 17
M  V30 20 1 19 2
M  V30 21 1 20 2
M  V30 22 1 21 3
M  V30 23 1 22 3
M  V30 24 1 23 5
M  V30 25 1 24 5
M  V30 26 1 25 6
M  V30 27 1 26 6
M  V30 28 1 7 27 CFG=3
M  V30 29 1 28 8
M  V30 30 1 29 8
M  V30 31 1 30 11
M  V30 32 1 31 12
M  V30 33 1 32 15
M  V30 34 1 33 16
M  V30 35 1 34 17
M  V30 36 1 35 17
M  V30 37 1 36 18
M  V30 38 1 37 18
M  V30 39 1 4 38 CFG=1
M  V30 END BOND
M  V30 END CTAB
M  END
>  <b_m_subgroup_collapsed>  (1984) 
0

>  <r_i_docking_score>  (1984) 
-6.3807341748680697

>  <s_m_subgroup_title>  (1984) 
glide-dock_SP_D22_pv

>  <s_m_subgroupid>  (1984) 
glide-dock_SP_D22_pv

>  <Molecule ChEMBL ID>  (1984) 
CHEMBL45168

>  <Standard Type>  (1984) 
Ki

>  <Standard Value>  (1984) 
10000.0

>  <label>  (1984) 
0

$$$$
CHEMBL1398
     RDKit          3D

  0  0  0  0  0  0  0  0  0  0999 V3000
M  V30 BEGIN CTAB
M  V30 COUNTS 22 23 0 0 1
M  V30 BEGIN ATOM
M  V30 1 O 12.481936 8.172768 -8.384312 0
M  V30 2 C 11.325418 7.921846 -8.053308 0
M  V30 3 O 10.549790 6.958487 -8.554620 0
M  V30 4 C 9.286254 6.854896 -7.922683 0
M  V30 5 C 9.137320 8.181033 -7.173913 0
M  V30 6 C 10.564311 8.688059 -6.976867 0 CFG=1
M  V30 7 C 11.109597 8.453422 -5.569973 0
M  V30 8 C 11.427147 9.564655 -4.758954 0
M  V30 9 C 11.914541 9.376933 -3.449848 0
M  V30 10 C 12.086920 8.078591 -2.937849 0
M  V30 11 C 11.771173 6.966774 -3.739842 0
M  V30 12 C 11.286068 7.149946 -5.048419 0
M  V30 13 H 8.484210 6.695019 -8.644003 0
M  V30 14 H 9.297366 6.013343 -7.229680 0
M  V30 15 H 8.572932 8.081109 -6.247677 0
M  V30 16 H 8.591963 8.881901 -7.807588 0
M  V30 17 H 10.615495 9.753205 -7.202396 0
M  V30 18 H 11.292401 10.568591 -5.135560 0
M  V30 19 H 12.151319 10.231494 -2.832349 0
M  V30 20 H 12.455118 7.935831 -1.932612 0
M  V30 21 H 11.898248 5.966599 -3.349747 0
M  V30 22 H 11.047287 6.280857 -5.645070 0
M  V30 END ATOM
M  V30 BEGIN BOND
M  V30 1 2 2 1
M  V30 2 1 3 2
M  V30 3 1 4 3
M  V30 4 1 5 4
M  V30 5 1 6 2
M  V30 6 1 6 5
M  V30 7 1 7 6
M  V30 8 2 8 7
M  V30 9 1 9 8
M  V30 10 2 10 9
M  V30 11 1 11 10
M  V30 12 1 12 7
M  V30 13 2 12 11
M  V30 14 1 13 4
M  V30 15 1 14 4
M  V30 16 1 15 5
M  V30 17 1 16 5
M  V30 18 1 6 17 CFG=3
M  V30 19 1 18 8
M  V30 20 1 19 9
M  V30 21 1 20 10
M  V30 22 1 21 11
M  V30 23 1 22 12
M  V30 END BOND
M  V30 END CTAB
M  END
>  <b_m_subgroup_collapsed>  (1985) 
0

>  <r_i_docking_score>  (1985) 
-6.3805204835871798

>  <s_m_subgroup_title>  (1985) 
glide-dock_SP_D22_pv

>  <s_m_subgroupid>  (1985) 
glide-dock_SP_D22_pv

>  <Molecule ChEMBL ID>  (1985) 
CHEMBL1398

>  <Standard Type>  (1985) 
Ki

>  <Standard Value>  (1985) 
10000.0

>  <label>  (1985) 
0

$$$$
CHEMBL598760
     RDKit          3D

  0  0  0  0  0  0  0  0  0  0999 V3000
M  V30 BEGIN CTAB
M  V30 COUNTS 53 56 0 0 1
M  V30 BEGIN ATOM
M  V30 1 C 3.303632 -0.869866 -14.893274 0
M  V30 2 C 4.524349 -0.580744 -14.414234 0
M  V30 3 C 5.694291 -1.523599 -14.590079 0
M  V30 4 C 4.814261 0.711112 -13.671536 0
M  V30 5 O 6.005442 1.333256 -14.146362 0
M  V30 6 C 6.388229 2.546520 -13.609390 0
M  V30 7 C 5.530448 3.296021 -12.765111 0
M  V30 8 C 5.924081 4.538936 -12.248669 0
M  V30 9 C 7.162447 5.078256 -12.610751 0
M  V30 10 C 8.026175 4.348825 -13.445964 0
M  V30 11 C 7.686495 3.057894 -13.914302 0
M  V30 12 C 8.720883 2.306041 -14.676382 0
M  V30 13 C 8.769572 0.888860 -14.718335 0
M  V30 14 C 9.727432 0.172380 -15.458226 0
M  V30 15 C 10.714607 0.855609 -16.183064 0
M  V30 16 C 10.768046 2.257078 -16.133841 0
M  V30 17 C 9.791553 2.948103 -15.358774 0
M  V30 18 C 9.827369 4.482852 -15.224582 0 CFG=1
M  V30 19 C 9.341977 4.968945 -13.840272 0
M  V30 20 N 11.102280 5.125886 -15.656100 0 CFG=1 CHG=1
M  V30 21 C 12.196564 5.170619 -14.643686 0
M  V30 22 C 12.247995 6.527704 -13.917077 0
M  V30 23 C 12.797181 7.654807 -14.800954 0
M  V30 24 C 11.529491 4.575517 -16.955038 0
M  V30 25 C 11.851324 3.088115 -16.809330 0
M  V30 26 H 3.117082 -1.791243 -15.428648 0
M  V30 27 H 2.471844 -0.195134 -14.760693 0
M  V30 28 H 6.448346 -1.068691 -15.235827 0
M  V30 29 H 5.387086 -2.465105 -15.044605 0
M  V30 30 H 6.156898 -1.745718 -13.629021 0
M  V30 31 H 3.954544 1.368382 -13.790601 0
M  V30 32 H 4.927535 0.489108 -12.608950 0
M  V30 33 H 4.552579 2.938174 -12.487166 0
M  V30 34 H 5.276599 5.095744 -11.587672 0
M  V30 35 H 7.444624 6.051443 -12.230254 0
M  V30 36 H 8.067567 0.298204 -14.150255 0
M  V30 37 H 9.703969 -0.908256 -15.459926 0
M  V30 38 H 11.450793 0.299925 -16.745024 0
M  V30 39 H 9.085456 4.828136 -15.946795 0
M  V30 40 H 9.216089 6.048112 -13.834511 0
M  V30 41 H 10.051254 4.708391 -13.055379 0
M  V30 42 H 12.092697 4.347818 -13.934128 0
M  V30 43 H 13.167371 5.009498 -15.120063 0
M  V30 44 H 11.282261 6.821305 -13.516726 0
M  V30 45 H 12.885730 6.427247 -13.039448 0
M  V30 46 H 12.939328 8.570635 -14.228285 0
M  V30 47 H 12.112779 7.883626 -15.622617 0
M  V30 48 H 13.757321 7.381533 -15.236041 0
M  V30 49 H 10.729759 4.711119 -17.685112 0
M  V30 50 H 12.390762 5.121327 -17.341352 0
M  V30 51 H 12.778172 2.947821 -16.250635 0
M  V30 52 H 12.038442 2.663324 -17.800327 0
M  V30 53 H 10.878591 6.095556 -15.834921 0
M  V30 END ATOM
M  V30 BEGIN BOND
M  V30 1 2 2 1
M  V30 2 1 3 2
M  V30 3 1 4 2
M  V30 4 1 5 4
M  V30 5 1 6 5
M  V30 6 2 7 6
M  V30 7 1 8 7
M  V30 8 2 9 8
M  V30 9 1 10 9
M  V30 10 1 11 6
M  V30 11 2 11 10
M  V30 12 1 12 11
M  V30 13 2 13 12
M  V30 14 1 14 13
M  V30 15 2 15 14
M  V30 16 1 16 15
M  V30 17 1 17 12
M  V30 18 2 17 16
M  V30 19 1 18 17
M  V30 20 1 19 10
M  V30 21 1 19 18
M  V30 22 1 20 18
M  V30 23 1 21 20
M  V30 24 1 22 21
M  V30 25 1 23 22
M  V30 26 1 24 20
M  V30 27 1 25 16
M  V30 28 1 25 24
M  V30 29 1 26 1
M  V30 30 1 27 1
M  V30 31 1 28 3
M  V30 32 1 29 3
M  V30 33 1 30 3
M  V30 34 1 31 4
M  V30 35 1 32 4
M  V30 36 1 33 7
M  V30 37 1 34 8
M  V30 38 1 35 9
M  V30 39 1 36 13
M  V30 40 1 37 14
M  V30 41 1 38 15
M  V30 42 1 18 39 CFG=3
M  V30 43 1 40 19
M  V30 44 1 41 19
M  V30 45 1 42 21
M  V30 46 1 43 21
M  V30 47 1 44 22
M  V30 48 1 45 22
M  V30 49 1 46 23
M  V30 50 1 47 23
M  V30 51 1 48 23
M  V30 52 1 49 24
M  V30 53 1 50 24
M  V30 54 1 51 25
M  V30 55 1 52 25
M  V30 56 1 20 53 CFG=3
M  V30 END BOND
M  V30 END CTAB
M  END
>  <b_m_subgroup_collapsed>  (1986) 
0

>  <r_i_docking_score>  (1986) 
-6.3801291221615797

>  <s_m_subgroup_title>  (1986) 
glide-dock_SP_D22_pv

>  <s_m_subgroupid>  (1986) 
glide-dock_SP_D22_pv

>  <Molecule ChEMBL ID>  (1986) 
CHEMBL598760

>  <Standard Type>  (1986) 
Ki

>  <Standard Value>  (1986) 
10000.0

>  <label>  (1986) 
0

$$$$
CHEMBL5272965
     RDKit          3D

  0  0  0  0  0  0  0  0  0  0999 V3000
M  V30 BEGIN CTAB
M  V30 COUNTS 63 67 0 0 1
M  V30 BEGIN ATOM
M  V30 1 C 9.095012 8.685982 -11.369925 0
M  V30 2 C 10.140389 7.833253 -10.621718 0 CFG=1
M  V30 3 C 11.129071 8.710574 -9.805313 0
M  V30 4 C 10.950915 8.219391 -8.401280 0
M  V30 5 C 11.587899 8.697702 -7.242849 0
M  V30 6 C 11.269855 8.089599 -6.008903 0
M  V30 7 C 10.330747 7.030938 -5.951835 0
M  V30 8 C 9.692925 6.574862 -7.126167 0
M  V30 9 C 10.029358 7.181538 -8.350619 0
M  V30 10 N 9.534033 6.899640 -9.643031 0
M  V30 11 C 9.047579 5.690723 -10.001848 0
M  V30 12 O 9.454997 4.626758 -9.539777 0
M  V30 13 N 8.086807 5.772184 -10.930890 0
M  V30 14 C 7.577226 4.698642 -11.772860 0
M  V30 15 C 8.685695 4.076626 -12.646649 0
M  V30 16 C 8.153470 3.311653 -13.871237 0
M  V30 17 C 9.198501 2.319152 -14.417170 0
M  V30 18 N 9.067482 2.003725 -15.843538 0
M  V30 19 C 10.192604 1.135045 -16.195839 0
M  V30 20 C 7.748031 1.490846 -16.260714 0 CFG=1
M  V30 21 C 7.676489 1.293697 -17.805857 0
M  V30 22 C 6.351337 0.733225 -18.312649 0
M  V30 23 C 5.758863 0.796000 -19.593988 0
M  V30 24 C 4.531741 0.121150 -19.845512 0
M  V30 25 C 3.887700 -0.643281 -18.835764 0
M  V30 26 C 4.485633 -0.717571 -17.563997 0
M  V30 27 N 4.147706 -1.343992 -16.366653 0
M  V30 28 C 5.069377 -1.016996 -15.438048 0
M  V30 29 O 5.030477 -1.316904 -14.246866 0
M  V30 30 N 6.020719 -0.269909 -16.042892 0
M  V30 31 C 5.662774 -0.038350 -17.373997 0
M  V30 32 C 7.260489 0.247160 -15.472455 0
M  V30 33 H 9.586244 9.372265 -12.058888 0
M  V30 34 H 8.421464 8.089067 -11.983709 0
M  V30 35 H 8.486129 9.272377 -10.680793 0
M  V30 36 H 10.711175 7.254292 -11.351958 0
M  V30 37 H 10.891747 9.772984 -9.847462 0
M  V30 38 H 12.161376 8.570838 -10.131300 0
M  V30 39 H 12.306258 9.501421 -7.293674 0
M  V30 40 H 11.748256 8.428916 -5.105588 0
M  V30 41 H 10.092995 6.566801 -5.006562 0
M  V30 42 H 8.967878 5.771988 -7.078484 0
M  V30 43 H 7.657889 6.688431 -11.035466 0
M  V30 44 H 7.097939 3.936804 -11.153419 0
M  V30 45 H 6.799799 5.128487 -12.403105 0
M  V30 46 H 9.362569 4.857597 -12.996984 0
M  V30 47 H 9.289244 3.408012 -12.031071 0
M  V30 48 H 7.242905 2.774285 -13.608460 0
M  V30 49 H 7.877626 4.040040 -14.633293 0
M  V30 50 H 10.187569 2.760750 -14.274130 0
M  V30 51 H 9.187288 1.402200 -13.827817 0
M  V30 52 H 10.291677 1.005884 -17.270956 0
M  V30 53 H 11.135098 1.573490 -15.867555 0
M  V30 54 H 10.105375 0.150869 -15.734607 0
M  V30 55 H 7.030581 2.281568 -16.039789 0
M  V30 56 H 7.889313 2.234631 -18.315458 0
M  V30 57 H 8.424343 0.575440 -18.143497 0
M  V30 58 H 6.242862 1.347118 -20.385788 0
M  V30 59 H 4.086475 0.174868 -20.828617 0
M  V30 60 H 2.957064 -1.154039 -19.036938 0
M  V30 61 H 3.353630 -1.954438 -16.241613 0
M  V30 62 H 7.995171 -0.557094 -15.504528 0
M  V30 63 H 7.101428 0.486895 -14.421868 0
M  V30 END ATOM
M  V30 BEGIN BOND
M  V30 1 1 2 1
M  V30 2 1 3 2
M  V30 3 1 4 3
M  V30 4 2 5 4
M  V30 5 1 6 5
M  V30 6 2 7 6
M  V30 7 1 8 7
M  V30 8 1 9 4
M  V30 9 2 9 8
M  V30 10 1 10 2
M  V30 11 1 10 9
M  V30 12 1 11 10
M  V30 13 2 12 11
M  V30 14 1 13 11
M  V30 15 1 14 13
M  V30 16 1 15 14
M  V30 17 1 16 15
M  V30 18 1 17 16
M  V30 19 1 18 17
M  V30 20 1 19 18
M  V30 21 1 20 18
M  V30 22 1 21 20
M  V30 23 1 22 21
M  V30 24 1 23 22
M  V30 25 2 24 23
M  V30 26 1 25 24
M  V30 27 2 26 25
M  V30 28 1 27 26
M  V30 29 1 28 27
M  V30 30 2 29 28
M  V30 31 1 30 28
M  V30 32 2 31 22
M  V30 33 1 31 26
M  V30 34 1 31 30
M  V30 35 1 32 20
M  V30 36 1 32 30
M  V30 37 1 33 1
M  V30 38 1 34 1
M  V30 39 1 35 1
M  V30 40 1 2 36 CFG=3
M  V30 41 1 37 3
M  V30 42 1 38 3
M  V30 43 1 39 5
M  V30 44 1 40 6
M  V30 45 1 41 7
M  V30 46 1 42 8
M  V30 47 1 43 13
M  V30 48 1 44 14
M  V30 49 1 45 14
M  V30 50 1 46 15
M  V30 51 1 47 15
M  V30 52 1 48 16
M  V30 53 1 49 16
M  V30 54 1 50 17
M  V30 55 1 51 17
M  V30 56 1 52 19
M  V30 57 1 53 19
M  V30 58 1 54 19
M  V30 59 1 20 55 CFG=3
M  V30 60 1 56 21
M  V30 61 1 57 21
M  V30 62 1 58 23
M  V30 63 1 59 24
M  V30 64 1 60 25
M  V30 65 1 61 27
M  V30 66 1 62 32
M  V30 67 1 63 32
M  V30 END BOND
M  V30 END CTAB
M  END
>  <b_m_subgroup_collapsed>  (1987) 
0

>  <r_i_docking_score>  (1987) 
-6.3797948582343498

>  <s_m_subgroup_title>  (1987) 
glide-dock_SP_D22_pv

>  <s_m_subgroupid>  (1987) 
glide-dock_SP_D22_pv

>  <Molecule ChEMBL ID>  (1987) 
CHEMBL5272965

>  <Standard Type>  (1987) 
Ki

>  <Standard Value>  (1987) 
26.9

>  <label>  (1987) 
1

$$$$
CHEMBL103622
     RDKit          3D

  0  0  0  0  0  0  0  0  0  0999 V3000
M  V30 BEGIN CTAB
M  V30 COUNTS 40 41 0 0 1
M  V30 BEGIN ATOM
M  V30 1 C 9.559593 8.304312 -11.984228 0
M  V30 2 C 9.286930 7.966961 -10.521062 0
M  V30 3 C 10.498805 8.079453 -9.571123 0
M  V30 4 N 10.226046 7.388508 -8.274438 0 CHG=1
M  V30 5 C 10.180079 5.917575 -8.453822 0
M  V30 6 C 8.760370 5.393322 -8.218326 0
M  V30 7 C 8.671347 3.936039 -8.646269 0
M  V30 8 C 11.027081 7.899860 -7.114659 0 CFG=1
M  V30 9 C 10.385819 9.203343 -6.602579 0
M  V30 10 C 11.232806 9.894736 -5.523446 0
M  V30 11 C 11.652987 8.914071 -4.488220 0
M  V30 12 S 12.086103 9.372191 -2.872205 0
M  V30 13 C 12.353889 7.713644 -2.436949 0
M  V30 14 C 12.083681 6.867364 -3.475161 0
M  V30 15 C 11.672097 7.555495 -4.653001 0
M  V30 16 C 11.217031 6.901297 -5.926034 0
M  V30 17 H 8.707722 8.011542 -12.599278 0
M  V30 18 H 9.685758 9.371757 -12.125145 0
M  V30 19 H 10.439462 7.780638 -12.361956 0
M  V30 20 H 8.889044 6.955794 -10.534334 0
M  V30 21 H 8.486073 8.604576 -10.148929 0
M  V30 22 H 10.723443 9.134724 -9.422785 0
M  V30 23 H 11.392604 7.652774 -10.029099 0
M  V30 24 H 10.483499 5.668619 -9.470507 0
M  V30 25 H 10.890307 5.369929 -7.847410 0
M  V30 26 H 8.440565 5.527845 -7.186037 0
M  V30 27 H 8.048114 5.964078 -8.812589 0
M  V30 28 H 7.686602 3.701128 -9.032645 0
M  V30 29 H 9.380637 3.772577 -9.453574 0
M  V30 30 H 8.886227 3.231690 -7.846995 0
M  V30 31 H 12.026046 8.140491 -7.483794 0
M  V30 32 H 10.214479 9.876336 -7.427982 0
M  V30 33 H 9.398397 8.971463 -6.201782 0
M  V30 34 H 10.670161 10.710893 -5.068371 0
M  V30 35 H 12.120321 10.339517 -5.975959 0
M  V30 36 H 12.680967 7.464227 -1.442972 0
M  V30 37 H 12.146822 5.789622 -3.424891 0
M  V30 38 H 11.945197 6.133866 -6.187702 0
M  V30 39 H 10.276589 6.388742 -5.721625 0
M  V30 40 H 9.270510 7.632102 -8.046080 0
M  V30 END ATOM
M  V30 BEGIN BOND
M  V30 1 1 2 1
M  V30 2 1 3 2
M  V30 3 1 4 3
M  V30 4 1 5 4
M  V30 5 1 6 5
M  V30 6 1 7 6
M  V30 7 1 8 4
M  V30 8 1 9 8
M  V30 9 1 10 9
M  V30 10 1 11 10
M  V30 11 1 12 11
M  V30 12 1 13 12
M  V30 13 2 14 13
M  V30 14 2 15 11
M  V30 15 1 15 14
M  V30 16 1 16 8
M  V30 17 1 16 15
M  V30 18 1 17 1
M  V30 19 1 18 1
M  V30 20 1 19 1
M  V30 21 1 20 2
M  V30 22 1 21 2
M  V30 23 1 22 3
M  V30 24 1 23 3
M  V30 25 1 24 5
M  V30 26 1 25 5
M  V30 27 1 26 6
M  V30 28 1 27 6
M  V30 29 1 28 7
M  V30 30 1 29 7
M  V30 31 1 30 7
M  V30 32 1 8 31 CFG=3
M  V30 33 1 32 9
M  V30 34 1 33 9
M  V30 35 1 34 10
M  V30 36 1 35 10
M  V30 37 1 36 13
M  V30 38 1 37 14
M  V30 39 1 38 16
M  V30 40 1 39 16
M  V30 41 1 40 4
M  V30 END BOND
M  V30 END CTAB
M  END
>  <b_m_subgroup_collapsed>  (1988) 
0

>  <r_i_docking_score>  (1988) 
-6.3796311420618901

>  <s_m_subgroup_title>  (1988) 
glide-dock_SP_D22_pv

>  <s_m_subgroupid>  (1988) 
glide-dock_SP_D22_pv

>  <Molecule ChEMBL ID>  (1988) 
CHEMBL103622

>  <Standard Type>  (1988) 
Ki

>  <Standard Value>  (1988) 
20.0

>  <label>  (1988) 
1

$$$$
CHEMBL3187365
     RDKit          3D

  0  0  0  0  0  0  0  0  0  0999 V3000
M  V30 BEGIN CTAB
M  V30 COUNTS 37 40 0 0 1
M  V30 BEGIN ATOM
M  V30 1 C 5.792225 5.071103 -13.286201 0
M  V30 2 N 7.229623 5.279078 -12.999665 0 CFG=2 CHG=1
M  V30 3 C 8.032375 4.055694 -13.073810 0
M  V30 4 C 9.271964 4.306348 -12.202996 0 CFG=1
M  V30 5 C 10.432522 4.835684 -13.047361 0
M  V30 6 C 11.054482 3.908512 -13.913950 0
M  V30 7 C 12.090016 4.304460 -14.777642 0
M  V30 8 C 12.528654 5.638206 -14.774514 0
M  V30 9 C 11.935801 6.568110 -13.903685 0
M  V30 10 C 10.886416 6.178792 -13.047286 0
M  V30 11 O 10.299356 7.157520 -12.295224 0
M  V30 12 C 10.394324 7.053367 -10.942666 0
M  V30 13 C 11.219787 7.947091 -10.232822 0
M  V30 14 C 11.251689 7.904662 -8.828347 0
M  V30 15 C 10.456328 6.971206 -8.137245 0
M  V30 16 Cl 10.465897 6.972231 -6.411922 0
M  V30 17 C 9.649376 6.059232 -8.852565 0
M  V30 18 C 9.615396 6.095934 -10.265861 0
M  V30 19 C 8.694109 5.169049 -11.056698 0 CFG=1
M  V30 20 C 7.495938 5.897924 -11.688138 0
M  V30 21 H 5.314861 4.461681 -12.516800 0
M  V30 22 H 5.652364 4.571794 -14.246076 0
M  V30 23 H 5.285943 6.035007 -13.322713 0
M  V30 24 H 7.407453 3.282240 -12.646846 0
M  V30 25 H 8.255937 3.763014 -14.100302 0
M  V30 26 H 9.640240 3.371832 -11.781067 0
M  V30 27 H 10.727175 2.878409 -13.928559 0
M  V30 28 H 12.549677 3.585909 -15.441344 0
M  V30 29 H 13.327754 5.946324 -15.432814 0
M  V30 30 H 12.272978 7.594350 -13.908634 0
M  V30 31 H 11.811154 8.679779 -10.762507 0
M  V30 32 H 11.871564 8.600855 -8.282331 0
M  V30 33 H 9.035899 5.354509 -8.309899 0
M  V30 34 H 8.264024 4.468245 -10.339073 0
M  V30 35 H 7.682449 6.961402 -11.846376 0
M  V30 36 H 6.625394 5.773329 -11.045202 0
M  V30 37 H 7.611554 5.912631 -13.687217 0
M  V30 END ATOM
M  V30 BEGIN BOND
M  V30 1 1 2 1
M  V30 2 1 3 2
M  V30 3 1 4 3
M  V30 4 1 5 4
M  V30 5 2 6 5
M  V30 6 1 7 6
M  V30 7 2 8 7
M  V30 8 1 9 8
M  V30 9 1 10 5
M  V30 10 2 10 9
M  V30 11 1 11 10
M  V30 12 1 12 11
M  V30 13 1 13 12
M  V30 14 2 14 13
M  V30 15 1 15 14
M  V30 16 1 16 15
M  V30 17 2 17 15
M  V30 18 2 18 12
M  V30 19 1 18 17
M  V30 20 1 19 4
M  V30 21 1 19 18
M  V30 22 1 20 2
M  V30 23 1 20 19
M  V30 24 1 21 1
M  V30 25 1 22 1
M  V30 26 1 23 1
M  V30 27 1 24 3
M  V30 28 1 25 3
M  V30 29 1 4 26 CFG=1
M  V30 30 1 27 6
M  V30 31 1 28 7
M  V30 32 1 29 8
M  V30 33 1 30 9
M  V30 34 1 31 13
M  V30 35 1 32 14
M  V30 36 1 33 17
M  V30 37 1 19 34 CFG=1
M  V30 38 1 35 20
M  V30 39 1 36 20
M  V30 40 1 2 37 CFG=3
M  V30 END BOND
M  V30 END CTAB
M  END
>  <b_m_subgroup_collapsed>  (1989) 
0

>  <r_i_docking_score>  (1989) 
-6.3779152402783197

>  <s_m_subgroup_title>  (1989) 
glide-dock_SP_D22_pv

>  <s_m_subgroupid>  (1989) 
glide-dock_SP_D22_pv

>  <Molecule ChEMBL ID>  (1989) 
CHEMBL3187365

>  <Standard Type>  (1989) 
Ki

>  <Standard Value>  (1989) 
8.9

>  <label>  (1989) 
1

$$$$
CHEMBL240022
     RDKit          3D

  0  0  0  0  0  0  0  0  0  0999 V3000
M  V30 BEGIN CTAB
M  V30 COUNTS 59 62 0 0 1
M  V30 BEGIN ATOM
M  V30 1 C 11.061687 6.539324 -4.314483 0
M  V30 2 O 11.210786 7.708250 -5.089234 0
M  V30 3 C 10.986917 7.626575 -6.446153 0
M  V30 4 C 10.287994 6.573524 -7.083380 0
M  V30 5 C 10.124798 6.560359 -8.483939 0
M  V30 6 C 10.712667 7.579317 -9.269327 0
M  V30 7 C 11.397837 8.631764 -8.636172 0
M  V30 8 C 11.497303 8.677519 -7.234100 0
M  V30 9 O 12.106149 9.748748 -6.638722 0
M  V30 10 C 11.191070 10.568754 -5.930344 0
M  V30 11 C 10.609944 7.575724 -10.786459 0
M  V30 12 N 9.951648 6.375669 -11.338642 0 CHG=1
M  V30 13 C 10.311917 5.784970 -12.496387 0
M  V30 14 N 11.361594 6.173149 -13.249312 0
M  V30 15 C 11.601061 5.544714 -14.515173 0
M  V30 16 C 12.083139 6.325291 -15.581793 0
M  V30 17 C 12.284967 5.727351 -16.838398 0
M  V30 18 C 12.016072 4.354658 -17.030678 0
M  V30 19 C 11.556335 3.567427 -15.942227 0
M  V30 20 C 11.360409 4.166739 -14.681962 0
M  V30 21 C 11.254316 2.081292 -16.095282 0 CFG=1
M  V30 22 O 9.853307 1.841719 -16.017168 0
M  V30 23 C 9.394314 0.694706 -15.480653 0
M  V30 24 C 7.874302 0.625587 -15.456871 0
M  V30 25 O 10.086082 -0.226730 -15.048188 0
M  V30 26 C 11.817067 1.480113 -17.396721 0
M  V30 27 C 11.560060 2.392215 -18.598066 0
M  V30 28 C 12.245583 3.750251 -18.407507 0
M  V30 29 C 8.852030 5.803341 -10.552803 0
M  V30 30 C 9.312016 5.450100 -9.130895 0
M  V30 31 H 11.300087 6.757626 -3.273346 0
M  V30 32 H 10.039115 6.172395 -4.341640 0
M  V30 33 H 11.746518 5.772289 -4.664870 0
M  V30 34 H 9.846830 5.772692 -6.513199 0
M  V30 35 H 11.829099 9.422220 -9.231351 0
M  V30 36 H 11.685953 11.405600 -5.451956 0
M  V30 37 H 10.486100 10.972115 -6.643144 0
M  V30 38 H 10.631426 10.046328 -5.153243 0
M  V30 39 H 11.619370 7.668802 -11.184953 0
M  V30 40 H 10.054066 8.457391 -11.107501 0
M  V30 41 H 9.704782 4.952842 -12.833497 0
M  V30 42 H 12.277476 7.380550 -15.452118 0
M  V30 43 H 12.642479 6.330031 -17.661652 0
M  V30 44 H 11.017638 3.560242 -13.857316 0
M  V30 45 H 11.731633 1.587303 -15.250399 0
M  V30 46 H 7.470584 1.412071 -14.819425 0
M  V30 47 H 7.475039 0.751004 -16.463404 0
M  V30 48 H 7.543729 -0.339023 -15.072057 0
M  V30 49 H 12.894248 1.364821 -17.285734 0
M  V30 50 H 11.421791 0.478326 -17.570837 0
M  V30 51 H 11.906466 1.923721 -19.518740 0
M  V30 52 H 10.485143 2.536182 -18.712053 0
M  V30 53 H 11.907837 4.445631 -19.176100 0
M  V30 54 H 13.321527 3.635308 -18.542292 0
M  V30 55 H 8.086034 6.571537 -10.499211 0
M  V30 56 H 8.410485 4.938226 -11.047247 0
M  V30 57 H 9.906760 4.535363 -9.143059 0
M  V30 58 H 8.435099 5.248050 -8.513755 0
M  V30 59 H 11.793941 7.060329 -13.039575 0
M  V30 END ATOM
M  V30 BEGIN BOND
M  V30 1 1 2 1
M  V30 2 1 3 2
M  V30 3 1 4 3
M  V30 4 2 5 4
M  V30 5 1 6 5
M  V30 6 2 7 6
M  V30 7 2 8 3
M  V30 8 1 8 7
M  V30 9 1 9 8
M  V30 10 1 10 9
M  V30 11 1 11 6
M  V30 12 1 12 11
M  V30 13 2 13 12 CFG=2
M  V30 14 1 14 13
M  V30 15 1 15 14
M  V30 16 1 16 15
M  V30 17 2 17 16
M  V30 18 1 18 17
M  V30 19 2 19 18
M  V30 20 2 20 15
M  V30 21 1 20 19
M  V30 22 1 21 19
M  V30 23 1 22 21
M  V30 24 1 23 22
M  V30 25 1 24 23
M  V30 26 2 25 23
M  V30 27 1 26 21
M  V30 28 1 27 26
M  V30 29 1 28 18
M  V30 30 1 28 27
M  V30 31 1 29 12
M  V30 32 1 30 5
M  V30 33 1 30 29
M  V30 34 1 31 1
M  V30 35 1 32 1
M  V30 36 1 33 1
M  V30 37 1 34 4
M  V30 38 1 35 7
M  V30 39 1 36 10
M  V30 40 1 37 10
M  V30 41 1 38 10
M  V30 42 1 39 11
M  V30 43 1 40 11
M  V30 44 1 41 13
M  V30 45 1 42 16
M  V30 46 1 43 17
M  V30 47 1 44 20
M  V30 48 1 21 45 CFG=1
M  V30 49 1 46 24
M  V30 50 1 47 24
M  V30 51 1 48 24
M  V30 52 1 49 26
M  V30 53 1 50 26
M  V30 54 1 51 27
M  V30 55 1 52 27
M  V30 56 1 53 28
M  V30 57 1 54 28
M  V30 58 1 55 29
M  V30 59 1 56 29
M  V30 60 1 57 30
M  V30 61 1 58 30
M  V30 62 1 59 14
M  V30 END BOND
M  V30 END CTAB
M  END
>  <b_m_subgroup_collapsed>  (1990) 
0

>  <r_i_docking_score>  (1990) 
-6.3768088152425602

>  <s_m_subgroup_title>  (1990) 
glide-dock_SP_D22_pv

>  <s_m_subgroupid>  (1990) 
glide-dock_SP_D22_pv

>  <Molecule ChEMBL ID>  (1990) 
CHEMBL240022

>  <Standard Type>  (1990) 
Ki

>  <Standard Value>  (1990) 
11000.0

>  <label>  (1990) 
0

$$$$
CHEMBL4228054
     RDKit          3D

  0  0  0  0  0  0  0  0  0  0999 V3000
M  V30 BEGIN CTAB
M  V30 COUNTS 41 42 0 0 1
M  V30 BEGIN ATOM
M  V30 1 C 12.258535 8.275244 -2.368420 0
M  V30 2 C 12.268034 9.625231 -3.096392 0
M  V30 3 C 11.188632 9.791967 -4.175178 0
M  V30 4 C 11.236974 8.747912 -5.296376 0
M  V30 5 C 10.117576 8.958740 -6.329986 0
M  V30 6 N 10.117905 7.952137 -7.406667 0 CFG=1 CHG=1
M  V30 7 C 10.039570 6.538789 -6.989019 0
M  V30 8 C 9.552958 5.768902 -8.224588 0
M  V30 9 C 9.093619 6.838970 -9.231624 0 CFG=2
M  V30 10 C 10.048016 6.938346 -10.423987 0
M  V30 11 C 9.752318 6.181240 -11.576797 0
M  V30 12 C 10.623836 6.203396 -12.681913 0
M  V30 13 C 11.793184 6.990450 -12.646124 0
M  V30 14 C 12.084110 7.772319 -11.507576 0
M  V30 15 O 13.198373 8.570638 -11.493949 0
M  V30 16 C 11.213415 7.744682 -10.404083 0
M  V30 17 C 9.030950 8.117890 -8.389427 0
M  V30 18 H 12.954893 8.287737 -1.530101 0
M  V30 19 H 11.277001 8.043681 -1.960924 0
M  V30 20 H 12.550929 7.456747 -3.028064 0
M  V30 21 H 13.256392 9.788073 -3.525764 0
M  V30 22 H 12.104668 10.411852 -2.358319 0
M  V30 23 H 11.278605 10.785634 -4.614291 0
M  V30 24 H 10.216099 9.774951 -3.692580 0
M  V30 25 H 11.154606 7.752375 -4.860117 0
M  V30 26 H 12.205536 8.798148 -5.793764 0
M  V30 27 H 10.232673 9.941001 -6.788057 0
M  V30 28 H 9.140606 8.941723 -5.860922 0
M  V30 29 H 9.315253 6.434309 -6.179810 0
M  V30 30 H 11.002747 6.171824 -6.632440 0
M  V30 31 H 8.721122 5.117603 -7.948061 0
M  V30 32 H 10.332863 5.127921 -8.638925 0
M  V30 33 H 8.099797 6.575652 -9.601271 0
M  V30 34 H 8.864626 5.566927 -11.612223 0
M  V30 35 H 10.396850 5.614736 -13.558061 0
M  V30 36 H 12.459801 7.005310 -13.495726 0
M  V30 37 H 13.278737 9.190802 -10.773805 0
M  V30 38 H 11.463312 8.358800 -9.556480 0
M  V30 39 H 9.108733 9.029906 -8.980467 0
M  V30 40 H 8.086208 8.163181 -7.845339 0
M  V30 41 H 10.983404 8.045814 -7.917768 0
M  V30 END ATOM
M  V30 BEGIN BOND
M  V30 1 1 2 1
M  V30 2 1 3 2
M  V30 3 1 4 3
M  V30 4 1 5 4
M  V30 5 1 6 5
M  V30 6 1 7 6
M  V30 7 1 8 7
M  V30 8 1 9 8
M  V30 9 1 10 9
M  V30 10 2 11 10
M  V30 11 1 12 11
M  V30 12 2 13 12
M  V30 13 1 14 13
M  V30 14 1 15 14
M  V30 15 1 16 10
M  V30 16 2 16 14
M  V30 17 1 17 6
M  V30 18 1 17 9
M  V30 19 1 18 1
M  V30 20 1 19 1
M  V30 21 1 20 1
M  V30 22 1 21 2
M  V30 23 1 22 2
M  V30 24 1 23 3
M  V30 25 1 24 3
M  V30 26 1 25 4
M  V30 27 1 26 4
M  V30 28 1 27 5
M  V30 29 1 28 5
M  V30 30 1 29 7
M  V30 31 1 30 7
M  V30 32 1 31 8
M  V30 33 1 32 8
M  V30 34 1 9 33 CFG=3
M  V30 35 1 34 11
M  V30 36 1 35 12
M  V30 37 1 36 13
M  V30 38 1 37 15
M  V30 39 1 38 16
M  V30 40 1 39 17
M  V30 41 1 40 17
M  V30 42 1 6 41 CFG=3
M  V30 END BOND
M  V30 END CTAB
M  END
>  <b_m_subgroup_collapsed>  (1991) 
0

>  <r_i_docking_score>  (1991) 
-6.3752082672080697

>  <s_m_subgroup_title>  (1991) 
glide-dock_SP_D22_pv

>  <s_m_subgroupid>  (1991) 
glide-dock_SP_D22_pv

>  <Molecule ChEMBL ID>  (1991) 
CHEMBL4228054

>  <Standard Type>  (1991) 
Ki

>  <Standard Value>  (1991) 
10000.0

>  <label>  (1991) 
0

$$$$
CHEMBL5273758
     RDKit          3D

  0  0  0  0  0  0  0  0  0  0999 V3000
M  V30 BEGIN CTAB
M  V30 COUNTS 43 46 0 0 1
M  V30 BEGIN ATOM
M  V30 1 C 8.717681 5.407052 -8.917981 0
M  V30 2 N 8.486025 6.172322 -10.166954 0 CFG=1 CHG=1
M  V30 3 C 9.286039 7.434183 -10.193377 0
M  V30 4 C 10.722492 7.247794 -10.731399 0
M  V30 5 C 10.579263 6.729788 -12.156180 0 CFG=1
M  V30 6 C 11.815635 6.605798 -13.043578 0
M  V30 7 C 11.754734 5.870567 -14.178114 0
M  V30 8 O 12.820980 5.776628 -14.983331 0
M  V30 9 C 10.486010 5.239173 -14.547412 0
M  V30 10 O 10.222709 4.972329 -15.832257 0
M  V30 11 C 9.557649 5.040450 -13.583749 0
M  V30 12 C 8.074188 4.766595 -13.728984 0 CFG=1
M  V30 13 C 7.704125 3.286972 -13.871068 0
M  V30 14 C 8.668064 2.320655 -14.254324 0
M  V30 15 C 8.305941 0.972493 -14.443243 0
M  V30 16 C 6.976349 0.565268 -14.237505 0
M  V30 17 C 6.012067 1.512340 -13.846861 0
M  V30 18 C 6.367281 2.867201 -13.686063 0
M  V30 19 C 7.478862 5.500310 -12.483648 0
M  V30 20 C 8.543889 5.310678 -11.394590 0 CFG=1
M  V30 21 C 9.861075 5.378177 -12.152925 0 CFG=2
M  V30 22 H 9.755525 5.078976 -8.847738 0
M  V30 23 H 8.086024 4.521139 -8.865330 0
M  V30 24 H 8.489307 6.018361 -8.043668 0
M  V30 25 H 8.755691 8.151663 -10.821336 0
M  V30 26 H 9.307627 7.884960 -9.200279 0
M  V30 27 H 11.245881 8.204838 -10.728967 0
M  V30 28 H 11.293939 6.572330 -10.098595 0
M  V30 29 H 9.945831 7.466381 -12.646865 0
M  V30 30 H 12.715751 7.124990 -12.746286 0
M  V30 31 H 13.554266 6.172333 -14.532493 0
M  V30 32 H 10.990755 5.224261 -16.324402 0
M  V30 33 H 7.736622 5.251868 -14.639814 0
M  V30 34 H 9.698305 2.592699 -14.423621 0
M  V30 35 H 9.051145 0.248975 -14.740040 0
M  V30 36 H 6.699774 -0.470008 -14.377934 0
M  V30 37 H 4.987767 1.204510 -13.696300 0
M  V30 38 H 5.597312 3.577569 -13.425613 0
M  V30 39 H 7.389280 6.565652 -12.702953 0
M  V30 40 H 6.491446 5.158403 -12.175816 0
M  V30 41 H 8.412912 4.273900 -11.077611 0
M  V30 42 H 10.486021 4.583307 -11.761128 0
M  V30 43 H 7.522808 6.508738 -10.106241 0
M  V30 END ATOM
M  V30 BEGIN BOND
M  V30 1 1 2 1
M  V30 2 1 3 2
M  V30 3 1 4 3
M  V30 4 1 5 4
M  V30 5 1 6 5
M  V30 6 2 7 6
M  V30 7 1 8 7
M  V30 8 1 9 7
M  V30 9 1 10 9
M  V30 10 2 11 9
M  V30 11 1 12 11
M  V30 12 1 13 12
M  V30 13 2 14 13
M  V30 14 1 15 14
M  V30 15 2 16 15
M  V30 16 1 17 16
M  V30 17 1 18 13
M  V30 18 2 18 17
M  V30 19 1 19 12
M  V30 20 1 20 2
M  V30 21 1 20 19
M  V30 22 1 21 5
M  V30 23 1 21 11
M  V30 24 1 21 20
M  V30 25 1 22 1
M  V30 26 1 23 1
M  V30 27 1 24 1
M  V30 28 1 25 3
M  V30 29 1 26 3
M  V30 30 1 27 4
M  V30 31 1 28 4
M  V30 32 1 5 29 CFG=3
M  V30 33 1 30 6
M  V30 34 1 31 8
M  V30 35 1 32 10
M  V30 36 1 12 33 CFG=3
M  V30 37 1 34 14
M  V30 38 1 35 15
M  V30 39 1 36 16
M  V30 40 1 37 17
M  V30 41 1 38 18
M  V30 42 1 39 19
M  V30 43 1 40 19
M  V30 44 1 20 41 CFG=1
M  V30 45 1 21 42 CFG=1
M  V30 46 1 2 43 CFG=1
M  V30 END BOND
M  V30 END CTAB
M  END
>  <b_m_subgroup_collapsed>  (1992) 
0

>  <r_i_docking_score>  (1992) 
-6.3750276541318804

>  <s_m_subgroup_title>  (1992) 
glide-dock_SP_D22_pv

>  <s_m_subgroupid>  (1992) 
glide-dock_SP_D22_pv

>  <Molecule ChEMBL ID>  (1992) 
CHEMBL5273758

>  <Standard Type>  (1992) 
Ki

>  <Standard Value>  (1992) 
12.88

>  <label>  (1992) 
1

$$$$
CHEMBL193639
     RDKit          3D

  0  0  0  0  0  0  0  0  0  0999 V3000
M  V30 BEGIN CTAB
M  V30 COUNTS 44 47 0 0 1
M  V30 BEGIN ATOM
M  V30 1 C 8.085902 8.949437 -12.192707 0
M  V30 2 N 8.486653 7.568779 -11.846205 0 CHG=1
M  V30 3 C 9.956240 7.415620 -11.738450 0
M  V30 4 C 7.792129 6.508307 -12.624085 0
M  V30 5 C 8.020596 5.101608 -12.018330 0 CFG=1
M  V30 6 C 6.905201 4.082513 -12.274089 0
M  V30 7 C 7.331578 3.371786 -13.550303 0 CFG=2
M  V30 8 C 6.655319 2.013374 -13.848483 0
M  V30 9 C 5.305501 1.849138 -13.438824 0
M  V30 10 C 4.572422 0.682456 -13.734262 0
M  V30 11 C 5.166840 -0.352328 -14.464662 0
M  V30 12 C 6.501685 -0.220354 -14.864915 0
M  V30 13 C 7.263008 0.926641 -14.556505 0
M  V30 14 S 8.979458 0.808322 -15.004711 0
M  V30 15 C 9.431973 2.371740 -15.674401 0
M  V30 16 C 9.867883 2.448361 -17.010338 0
M  V30 17 C 10.351435 3.667250 -17.522892 0
M  V30 18 C 10.407144 4.804718 -16.695721 0
M  V30 19 F 10.885123 5.974334 -17.183205 0
M  V30 20 C 9.957270 4.729630 -15.363092 0
M  V30 21 C 9.460352 3.513236 -14.849459 0
M  V30 22 C 8.864785 3.428088 -13.457385 0 CFG=1
M  V30 23 O 9.180988 4.556686 -12.641681 0
M  V30 24 H 8.518904 9.289474 -13.129480 0
M  V30 25 H 8.412032 9.637162 -11.410763 0
M  V30 26 H 6.999298 9.018446 -12.246778 0
M  V30 27 H 10.437935 7.425273 -12.714669 0
M  V30 28 H 10.226543 6.485463 -11.237967 0
M  V30 29 H 10.382780 8.227534 -11.147798 0
M  V30 30 H 6.722709 6.731797 -12.591864 0
M  V30 31 H 8.086069 6.541327 -13.672467 0
M  V30 32 H 8.174342 5.182441 -10.940860 0
M  V30 33 H 6.877576 3.376668 -11.444502 0
M  V30 34 H 5.918513 4.539993 -12.336532 0
M  V30 35 H 7.023192 4.034805 -14.357491 0
M  V30 36 H 4.794817 2.640257 -12.911329 0
M  V30 37 H 3.535236 0.602020 -13.446855 0
M  V30 38 H 4.608634 -1.241107 -14.716901 0
M  V30 39 H 6.953539 -1.027479 -15.415172 0
M  V30 40 H 9.854197 1.569171 -17.635933 0
M  V30 41 H 10.695217 3.727477 -18.545527 0
M  V30 42 H 9.988913 5.615905 -14.749273 0
M  V30 43 H 9.285595 2.572404 -12.929568 0
M  V30 44 H 8.104430 7.462875 -10.908447 0
M  V30 END ATOM
M  V30 BEGIN BOND
M  V30 1 1 2 1
M  V30 2 1 3 2
M  V30 3 1 4 2
M  V30 4 1 5 4
M  V30 5 1 6 5
M  V30 6 1 7 6
M  V30 7 1 8 7
M  V30 8 2 9 8
M  V30 9 1 10 9
M  V30 10 2 11 10
M  V30 11 1 12 11
M  V30 12 1 13 8
M  V30 13 2 13 12
M  V30 14 1 14 13
M  V30 15 1 15 14
M  V30 16 1 16 15
M  V30 17 2 17 16
M  V30 18 1 18 17
M  V30 19 1 19 18
M  V30 20 2 20 18
M  V30 21 2 21 15
M  V30 22 1 21 20
M  V30 23 1 22 7
M  V30 24 1 22 21
M  V30 25 1 23 5
M  V30 26 1 23 22
M  V30 27 1 24 1
M  V30 28 1 25 1
M  V30 29 1 26 1
M  V30 30 1 27 3
M  V30 31 1 28 3
M  V30 32 1 29 3
M  V30 33 1 30 4
M  V30 34 1 31 4
M  V30 35 1 5 32 CFG=1
M  V30 36 1 33 6
M  V30 37 1 34 6
M  V30 38 1 7 35 CFG=3
M  V30 39 1 36 9
M  V30 40 1 37 10
M  V30 41 1 38 11
M  V30 42 1 39 12
M  V30 43 1 40 16
M  V30 44 1 41 17
M  V30 45 1 42 20
M  V30 46 1 22 43 CFG=1
M  V30 47 1 44 2
M  V30 END BOND
M  V30 END CTAB
M  END
>  <b_m_subgroup_collapsed>  (1993) 
0

>  <r_i_docking_score>  (1993) 
-6.3730798046867401

>  <s_m_subgroup_title>  (1993) 
glide-dock_SP_D22_pv

>  <s_m_subgroupid>  (1993) 
glide-dock_SP_D22_pv

>  <Molecule ChEMBL ID>  (1993) 
CHEMBL193639

>  <Standard Type>  (1993) 
Ki

>  <Standard Value>  (1993) 
2.3

>  <label>  (1993) 
1

$$$$
CHEMBL201444
     RDKit          3D

  0  0  0  0  0  0  0  0  0  0999 V3000
M  V30 BEGIN CTAB
M  V30 COUNTS 27 27 0 0 1
M  V30 BEGIN ATOM
M  V30 1 C 8.956516 4.660258 -9.147738 0
M  V30 2 C 8.600601 5.772109 -8.162789 0
M  V30 3 O 9.806790 6.231026 -7.586373 0
M  V30 4 C 9.847494 7.390467 -6.913562 0
M  V30 5 O 8.893243 8.115917 -6.647027 0
M  V30 6 C 11.285686 7.785916 -6.577128 0 CFG=1
M  V30 7 C 11.737796 8.972722 -7.449256 0
M  V30 8 Br 11.685147 8.482320 -9.382513 0
M  V30 9 C 11.522921 7.983159 -5.078517 0
M  V30 10 C 11.685912 6.843008 -4.259488 0
M  V30 11 C 11.992011 6.972880 -2.892481 0
M  V30 12 C 12.137164 8.250686 -2.326844 0
M  V30 13 C 11.971699 9.393532 -3.128740 0
M  V30 14 C 11.663700 9.265141 -4.498030 0
M  V30 15 H 8.066863 4.274648 -9.642212 0
M  V30 16 H 9.626849 5.027408 -9.925724 0
M  V30 17 H 9.448936 3.826149 -8.646932 0
M  V30 18 H 7.920338 5.406707 -7.392568 0
M  V30 19 H 8.090820 6.581381 -8.685963 0
M  V30 20 H 11.914331 6.939809 -6.859201 0
M  V30 21 H 11.098963 9.845588 -7.313333 0
M  V30 22 H 12.765945 9.264426 -7.225603 0
M  V30 23 H 11.586724 5.855556 -4.688468 0
M  V30 24 H 12.116968 6.089277 -2.281772 0
M  V30 25 H 12.367986 8.359046 -1.278033 0
M  V30 26 H 12.081648 10.375411 -2.687534 0
M  V30 27 H 11.551716 10.163258 -5.089833 0
M  V30 END ATOM
M  V30 BEGIN BOND
M  V30 1 1 2 1
M  V30 2 1 3 2
M  V30 3 1 4 3
M  V30 4 2 5 4
M  V30 5 1 6 4
M  V30 6 1 7 6
M  V30 7 1 8 7
M  V30 8 1 9 6
M  V30 9 2 10 9
M  V30 10 1 11 10
M  V30 11 2 12 11
M  V30 12 1 13 12
M  V30 13 1 14 9
M  V30 14 2 14 13
M  V30 15 1 15 1
M  V30 16 1 16 1
M  V30 17 1 17 1
M  V30 18 1 18 2
M  V30 19 1 19 2
M  V30 20 1 6 20 CFG=3
M  V30 21 1 21 7
M  V30 22 1 22 7
M  V30 23 1 23 10
M  V30 24 1 24 11
M  V30 25 1 25 12
M  V30 26 1 26 13
M  V30 27 1 27 14
M  V30 END BOND
M  V30 END CTAB
M  END
>  <b_m_subgroup_collapsed>  (1994) 
0

>  <r_i_docking_score>  (1994) 
-6.3725769326592498

>  <s_m_subgroup_title>  (1994) 
glide-dock_SP_D22_pv

>  <s_m_subgroupid>  (1994) 
glide-dock_SP_D22_pv

>  <Molecule ChEMBL ID>  (1994) 
CHEMBL201444

>  <Standard Type>  (1994) 
Ki

>  <Standard Value>  (1994) 
10000.0

>  <label>  (1994) 
0

$$$$
CHEMBL3745815
     RDKit          3D

  0  0  0  0  0  0  0  0  0  0999 V3000
M  V30 BEGIN CTAB
M  V30 COUNTS 63 66 0 0 1
M  V30 BEGIN ATOM
M  V30 1 C 9.013255 8.426812 -7.151634 0
M  V30 2 N 10.467332 8.404288 -7.406317 0
M  V30 3 C 11.057627 7.316459 -8.238593 0 CFG=1
M  V30 4 C 10.140545 6.111697 -8.552186 0
M  V30 5 C 9.081683 6.394187 -9.636617 0
M  V30 6 N 9.640377 7.073423 -10.840538 0 CFG=1 CHG=1
M  V30 7 C 8.617541 7.530757 -11.813720 0
M  V30 8 C 7.630572 6.450821 -12.285975 0
M  V30 9 O 8.360516 5.506829 -13.052725 0
M  V30 10 C 7.756252 4.323411 -13.427174 0
M  V30 11 C 6.439312 3.959736 -13.042900 0
M  V30 12 C 5.890440 2.729625 -13.446661 0
M  V30 13 C 6.642019 1.853348 -14.246887 0
M  V30 14 C 7.939992 2.213953 -14.647099 0
M  V30 15 C 8.509466 3.443136 -14.246938 0
M  V30 16 C 9.863881 3.800284 -14.712108 0
M  V30 17 C 10.186883 3.762384 -16.087349 0
M  V30 18 C 11.470322 4.128929 -16.539053 0
M  V30 19 C 12.451267 4.539393 -15.617494 0
M  V30 20 C 12.145329 4.572918 -14.245219 0
M  V30 21 C 10.864408 4.200104 -13.799113 0
M  V30 22 C 10.526495 8.221582 -10.522099 0
M  V30 23 C 11.639425 7.865952 -9.545615 0
M  V30 24 S 11.529387 9.376794 -6.419931 0
M  V30 25 O 12.853151 9.372189 -7.046820 0
M  V30 26 O 10.886013 10.649622 -6.097960 0
M  V30 27 C 11.682392 8.494718 -4.898566 0
M  V30 28 C 12.261254 9.135085 -3.784975 0
M  V30 29 C 12.587538 8.391341 -2.636837 0
M  V30 30 C 12.372902 7.003734 -2.647106 0
M  V30 31 F 12.885834 6.202437 -1.690625 0
M  V30 32 C 11.686034 6.421872 -3.714780 0
M  V30 33 C 11.313981 7.146824 -4.841039 0
M  V30 34 H 8.485997 8.910632 -7.973988 0
M  V30 35 H 8.592081 7.438981 -6.979101 0
M  V30 36 H 8.794699 8.972493 -6.246806 0
M  V30 37 H 11.899643 6.925937 -7.666859 0
M  V30 38 H 10.771443 5.305037 -8.918882 0
M  V30 39 H 9.683325 5.703013 -7.651101 0
M  V30 40 H 8.265859 6.975124 -9.221655 0
M  V30 41 H 8.640228 5.441855 -9.928609 0
M  V30 42 H 9.161583 7.939986 -12.648306 0
M  V30 43 H 8.086047 8.391352 -11.417981 0
M  V30 44 H 6.865126 6.906070 -12.915524 0
M  V30 45 H 7.117964 5.993098 -11.444549 0
M  V30 46 H 5.821318 4.600792 -12.432469 0
M  V30 47 H 4.890505 2.459997 -13.141524 0
M  V30 48 H 6.221434 0.908599 -14.559275 0
M  V30 49 H 8.507088 1.534625 -15.266916 0
M  V30 50 H 9.440618 3.460162 -16.807367 0
M  V30 51 H 11.699921 4.099243 -17.594172 0
M  V30 52 H 13.435885 4.821486 -15.962034 0
M  V30 53 H 12.890916 4.884256 -13.529660 0
M  V30 54 H 10.643387 4.223719 -12.742612 0
M  V30 55 H 10.984200 8.572324 -11.445268 0
M  V30 56 H 9.935870 9.047230 -10.120546 0
M  V30 57 H 12.287564 7.120583 -10.005568 0
M  V30 58 H 12.266682 8.739657 -9.373420 0
M  V30 59 H 12.528162 10.172317 -3.836195 0
M  V30 60 H 13.098680 8.864294 -1.810041 0
M  V30 61 H 11.514282 5.372353 -3.717985 0
M  V30 62 H 10.841945 6.628217 -5.658384 0
M  V30 63 H 10.205713 6.384911 -11.316254 0
M  V30 END ATOM
M  V30 BEGIN BOND
M  V30 1 1 2 1
M  V30 2 1 3 2
M  V30 3 1 4 3
M  V30 4 1 5 4
M  V30 5 1 6 5
M  V30 6 1 7 6
M  V30 7 1 8 7
M  V30 8 1 9 8
M  V30 9 1 10 9
M  V30 10 2 11 10
M  V30 11 1 12 11
M  V30 12 2 13 12
M  V30 13 1 14 13
M  V30 14 1 15 10
M  V30 15 2 15 14
M  V30 16 1 16 15
M  V30 17 2 17 16
M  V30 18 1 18 17
M  V30 19 2 19 18
M  V30 20 1 20 19
M  V30 21 1 21 16
M  V30 22 2 21 20
M  V30 23 1 22 6
M  V30 24 1 23 3
M  V30 25 1 23 22
M  V30 26 1 24 2
M  V30 27 2 25 24
M  V30 28 2 26 24
M  V30 29 1 27 24
M  V30 30 1 28 27
M  V30 31 2 29 28
M  V30 32 1 30 29
M  V30 33 1 31 30
M  V30 34 2 32 30
M  V30 35 2 33 27
M  V30 36 1 33 32
M  V30 37 1 34 1
M  V30 38 1 35 1
M  V30 39 1 36 1
M  V30 40 1 3 37 CFG=1
M  V30 41 1 38 4
M  V30 42 1 39 4
M  V30 43 1 40 5
M  V30 44 1 41 5
M  V30 45 1 42 7
M  V30 46 1 43 7
M  V30 47 1 44 8
M  V30 48 1 45 8
M  V30 49 1 46 11
M  V30 50 1 47 12
M  V30 51 1 48 13
M  V30 52 1 49 14
M  V30 53 1 50 17
M  V30 54 1 51 18
M  V30 55 1 52 19
M  V30 56 1 53 20
M  V30 57 1 54 21
M  V30 58 1 55 22
M  V30 59 1 56 22
M  V30 60 1 57 23
M  V30 61 1 58 23
M  V30 62 1 59 28
M  V30 63 1 60 29
M  V30 64 1 61 32
M  V30 65 1 62 33
M  V30 66 1 6 63 CFG=3
M  V30 END BOND
M  V30 END CTAB
M  END
>  <b_m_subgroup_collapsed>  (1995) 
0

>  <r_i_docking_score>  (1995) 
-6.3702253959863704

>  <s_m_subgroup_title>  (1995) 
glide-dock_SP_D22_pv

>  <s_m_subgroupid>  (1995) 
glide-dock_SP_D22_pv

>  <Molecule ChEMBL ID>  (1995) 
CHEMBL3745815

>  <Standard Type>  (1995) 
Ki

>  <Standard Value>  (1995) 
54.0

>  <label>  (1995) 
1

$$$$
CHEMBL596678
     RDKit          3D

  0  0  0  0  0  0  0  0  0  0999 V3000
M  V30 BEGIN CTAB
M  V30 COUNTS 51 54 0 0 1
M  V30 BEGIN ATOM
M  V30 1 C 5.050738 0.841921 -18.915703 0
M  V30 2 C 6.061535 0.876621 -17.849398 0
M  V30 3 C 6.895736 0.877401 -16.957806 0
M  V30 4 C 7.882949 0.841020 -15.863253 0
M  V30 5 O 8.095423 2.144797 -15.322659 0
M  V30 6 C 7.347243 2.586551 -14.248604 0
M  V30 7 C 6.093754 1.994778 -13.944100 0
M  V30 8 C 5.263037 2.520981 -12.951048 0
M  V30 9 C 5.687117 3.634206 -12.225404 0
M  V30 10 C 6.964939 4.171734 -12.440687 0
M  V30 11 C 7.828948 3.672440 -13.447387 0
M  V30 12 C 9.194094 4.274078 -13.557851 0
M  V30 13 C 10.265884 3.658681 -14.263945 0
M  V30 14 C 11.535580 4.239830 -14.417056 0
M  V30 15 C 11.820714 5.468039 -13.814405 0
M  V30 16 C 10.841382 6.097976 -13.031317 0
M  V30 17 C 9.557787 5.493883 -12.911271 0
M  V30 18 C 8.445289 6.198231 -12.097672 0 CFG=1
M  V30 19 C 7.435478 5.227105 -11.479516 0
M  V30 20 N 8.886168 7.242082 -11.123569 0 CFG=1 CHG=1
M  V30 21 C 9.284989 6.765378 -9.762143 0
M  V30 22 C 9.563458 7.901600 -8.751592 0
M  V30 23 C 11.052586 8.212770 -8.529914 0
M  V30 24 C 9.867002 8.132022 -11.773908 0
M  V30 25 C 11.110061 7.323111 -12.174613 0
M  V30 26 H 4.486669 1.771909 -18.918634 0
M  V30 27 H 4.364156 0.012184 -18.746632 0
M  V30 28 H 5.534122 0.713315 -19.883726 0
M  V30 29 H 7.597251 0.104259 -15.111135 0
M  V30 30 H 8.823571 0.494694 -16.290907 0
M  V30 31 H 5.709979 1.156925 -14.503905 0
M  V30 32 H 4.294365 2.084152 -12.759370 0
M  V30 33 H 5.058477 4.041560 -11.448585 0
M  V30 34 H 10.158786 2.689077 -14.715340 0
M  V30 35 H 12.298941 3.723743 -14.980783 0
M  V30 36 H 12.810228 5.894004 -13.902352 0
M  V30 37 H 7.886643 6.749111 -12.856734 0
M  V30 38 H 6.586167 5.772187 -11.065673 0
M  V30 39 H 7.884636 4.660568 -10.664630 0
M  V30 40 H 8.446051 6.220639 -9.331238 0
M  V30 41 H 10.111822 6.055809 -9.809959 0
M  V30 42 H 9.013574 8.804889 -9.018975 0
M  V30 43 H 9.151613 7.601290 -7.786600 0
M  V30 44 H 11.171702 8.976924 -7.761731 0
M  V30 45 H 11.545068 8.581697 -9.428526 0
M  V30 46 H 11.592812 7.326742 -8.195223 0
M  V30 47 H 9.400306 8.581055 -12.647056 0
M  V30 48 H 10.130553 8.971534 -11.132907 0
M  V30 49 H 11.639992 6.989731 -11.283895 0
M  V30 50 H 11.836882 7.923039 -12.715622 0
M  V30 51 H 8.028964 7.770292 -10.934485 0
M  V30 END ATOM
M  V30 BEGIN BOND
M  V30 1 1 2 1
M  V30 2 3 3 2
M  V30 3 1 4 3
M  V30 4 1 5 4
M  V30 5 1 6 5
M  V30 6 2 7 6
M  V30 7 1 8 7
M  V30 8 2 9 8
M  V30 9 1 10 9
M  V30 10 1 11 6
M  V30 11 2 11 10
M  V30 12 1 12 11
M  V30 13 2 13 12
M  V30 14 1 14 13
M  V30 15 2 15 14
M  V30 16 1 16 15
M  V30 17 1 17 12
M  V30 18 2 17 16
M  V30 19 1 18 17
M  V30 20 1 19 10
M  V30 21 1 19 18
M  V30 22 1 20 18
M  V30 23 1 21 20
M  V30 24 1 22 21
M  V30 25 1 23 22
M  V30 26 1 24 20
M  V30 27 1 25 16
M  V30 28 1 25 24
M  V30 29 1 26 1
M  V30 30 1 27 1
M  V30 31 1 28 1
M  V30 32 1 29 4
M  V30 33 1 30 4
M  V30 34 1 31 7
M  V30 35 1 32 8
M  V30 36 1 33 9
M  V30 37 1 34 13
M  V30 38 1 35 14
M  V30 39 1 36 15
M  V30 40 1 18 37 CFG=3
M  V30 41 1 38 19
M  V30 42 1 39 19
M  V30 43 1 40 21
M  V30 44 1 41 21
M  V30 45 1 42 22
M  V30 46 1 43 22
M  V30 47 1 44 23
M  V30 48 1 45 23
M  V30 49 1 46 23
M  V30 50 1 47 24
M  V30 51 1 48 24
M  V30 52 1 49 25
M  V30 53 1 50 25
M  V30 54 1 20 51 CFG=1
M  V30 END BOND
M  V30 END CTAB
M  END
>  <b_m_subgroup_collapsed>  (1996) 
0

>  <r_i_docking_score>  (1996) 
-6.36868137009

>  <s_m_subgroup_title>  (1996) 
glide-dock_SP_D22_pv

>  <s_m_subgroupid>  (1996) 
glide-dock_SP_D22_pv

>  <Molecule ChEMBL ID>  (1996) 
CHEMBL596678

>  <Standard Type>  (1996) 
Ki

>  <Standard Value>  (1996) 
10000.0

>  <label>  (1996) 
0

$$$$
CHEMBL145584
     RDKit          3D

  0  0  0  0  0  0  0  0  0  0999 V3000
M  V30 BEGIN CTAB
M  V30 COUNTS 22 22 0 0 1
M  V30 BEGIN ATOM
M  V30 1 N 8.486022 7.633780 -7.362195 0 CHG=1
M  V30 2 C 9.294913 6.486539 -6.919365 0
M  V30 3 C 10.799716 6.812801 -6.849629 0
M  V30 4 C 11.138150 7.849289 -5.790705 0
M  V30 5 C 10.907556 9.217625 -6.044187 0
M  V30 6 C 11.169127 10.172325 -5.046859 0
M  V30 7 C 11.686023 9.772249 -3.800858 0
M  V30 8 C 11.965072 8.414683 -3.557072 0
M  V30 9 O 12.486004 8.035000 -2.355076 0
M  V30 10 C 11.686013 7.452169 -4.548845 0
M  V30 11 H 7.496385 7.372324 -7.477180 0
M  V30 12 H 8.542336 8.379142 -6.684937 0
M  V30 13 H 9.124777 5.660522 -7.610824 0
M  V30 14 H 8.933277 6.172324 -5.941133 0
M  V30 15 H 11.156826 7.162498 -7.819355 0
M  V30 16 H 11.359278 5.899828 -6.640764 0
M  V30 17 H 10.521945 9.543919 -6.998808 0
M  V30 18 H 10.976878 11.217524 -5.236683 0
M  V30 19 H 11.881072 10.515409 -3.040758 0
M  V30 20 H 12.615121 8.763812 -1.766537 0
M  V30 21 H 11.879442 6.407853 -4.347546 0
M  V30 22 H 8.805942 7.957734 -8.262898 0
M  V30 END ATOM
M  V30 BEGIN BOND
M  V30 1 1 2 1
M  V30 2 1 3 2
M  V30 3 1 4 3
M  V30 4 2 5 4
M  V30 5 1 6 5
M  V30 6 2 7 6
M  V30 7 1 8 7
M  V30 8 1 9 8
M  V30 9 1 10 4
M  V30 10 2 10 8
M  V30 11 1 11 1
M  V30 12 1 12 1
M  V30 13 1 13 2
M  V30 14 1 14 2
M  V30 15 1 15 3
M  V30 16 1 16 3
M  V30 17 1 17 5
M  V30 18 1 18 6
M  V30 19 1 19 7
M  V30 20 1 20 9
M  V30 21 1 21 10
M  V30 22 1 22 1
M  V30 END BOND
M  V30 END CTAB
M  END
>  <b_m_subgroup_collapsed>  (1997) 
0

>  <r_i_docking_score>  (1997) 
-6.36545958309177

>  <s_m_subgroup_title>  (1997) 
glide-dock_SP_D22_pv

>  <s_m_subgroupid>  (1997) 
glide-dock_SP_D22_pv

>  <Molecule ChEMBL ID>  (1997) 
CHEMBL145584

>  <Standard Type>  (1997) 
Ki

>  <Standard Value>  (1997) 
20000.0

>  <label>  (1997) 
0

$$$$
CHEMBL515187
     RDKit          3D

  0  0  0  0  0  0  0  0  0  0999 V3000
M  V30 BEGIN CTAB
M  V30 COUNTS 51 54 0 0 1
M  V30 BEGIN ATOM
M  V30 1 C 12.565336 6.907869 -15.654236 0
M  V30 2 C 12.474217 7.356244 -14.191943 0
M  V30 3 C 12.102323 6.250197 -13.189789 0
M  V30 4 N 10.626975 6.059861 -13.096611 0 CFG=2 CHG=1
M  V30 5 C 10.083606 6.522343 -11.808270 0
M  V30 6 C 8.584857 6.689511 -11.947479 0
M  V30 7 C 7.852124 5.464902 -12.458319 0
M  V30 8 C 6.475675 5.257557 -12.282518 0
M  V30 9 C 5.853836 4.172042 -12.911936 0
M  V30 10 C 6.612037 3.279541 -13.690500 0
M  V30 11 C 8.019239 3.380476 -13.846727 0
M  V30 12 C 8.595850 4.526627 -13.227732 0
M  V30 13 C 10.118712 4.701143 -13.434881 0 CFG=1
M  V30 14 C 10.501993 4.292962 -14.874830 0
M  V30 15 C 10.050208 2.885373 -15.184701 0
M  V30 16 C 10.880666 2.059086 -15.966663 0
M  V30 17 C 10.525231 0.723387 -16.192139 0
M  V30 18 C 9.349705 0.218492 -15.618641 0
M  V30 19 C 8.495678 1.043499 -14.851550 0
M  V30 20 O 7.405926 0.460458 -14.247915 0
M  V30 21 C 6.370637 0.005075 -14.991982 0
M  V30 22 O 6.241943 0.140686 -16.210199 0
M  V30 23 C 5.313247 -0.686169 -14.129863 0
M  V30 24 C 3.949937 -0.837101 -14.823822 0
M  V30 25 C 8.832914 2.413998 -14.637414 0
M  V30 26 H 12.932574 7.721295 -16.281004 0
M  V30 27 H 11.593016 6.616558 -16.048428 0
M  V30 28 H 13.251908 6.068277 -15.770152 0
M  V30 29 H 13.440545 7.771807 -13.906051 0
M  V30 30 H 11.761787 8.172339 -14.116406 0
M  V30 31 H 12.635183 5.323284 -13.403894 0
M  V30 32 H 12.485955 6.572329 -12.222651 0
M  V30 33 H 10.314731 5.811468 -11.014536 0
M  V30 34 H 10.518700 7.482316 -11.524515 0
M  V30 35 H 8.173047 6.948577 -10.976749 0
M  V30 36 H 8.354935 7.524991 -12.609912 0
M  V30 37 H 5.892043 5.956419 -11.700837 0
M  V30 38 H 4.789551 4.029851 -12.811545 0
M  V30 39 H 6.061743 2.496974 -14.178929 0
M  V30 40 H 10.593440 4.002560 -12.745092 0
M  V30 41 H 10.027345 4.962173 -15.593397 0
M  V30 42 H 11.576304 4.346766 -15.042331 0
M  V30 43 H 11.806772 2.438191 -16.375957 0
M  V30 44 H 11.168186 0.081855 -16.777609 0
M  V30 45 H 9.108148 -0.820826 -15.765145 0
M  V30 46 H 5.692467 -1.668231 -13.847890 0
M  V30 47 H 5.195612 -0.115117 -13.209170 0
M  V30 48 H 3.229725 -1.314189 -14.159711 0
M  V30 49 H 4.024380 -1.453810 -15.721229 0
M  V30 50 H 3.539177 0.130639 -15.111365 0
M  V30 51 H 10.228711 6.670101 -13.794949 0
M  V30 END ATOM
M  V30 BEGIN BOND
M  V30 1 1 2 1
M  V30 2 1 3 2
M  V30 3 1 4 3
M  V30 4 1 5 4
M  V30 5 1 6 5
M  V30 6 1 7 6
M  V30 7 1 8 7
M  V30 8 2 9 8
M  V30 9 1 10 9
M  V30 10 2 11 10
M  V30 11 2 12 7
M  V30 12 1 12 11
M  V30 13 1 13 4
M  V30 14 1 13 12
M  V30 15 1 14 13
M  V30 16 1 15 14
M  V30 17 1 16 15
M  V30 18 2 17 16
M  V30 19 1 18 17
M  V30 20 2 19 18
M  V30 21 1 20 19
M  V30 22 1 21 20
M  V30 23 2 22 21
M  V30 24 1 23 21
M  V30 25 1 24 23
M  V30 26 1 25 11
M  V30 27 2 25 15
M  V30 28 1 25 19
M  V30 29 1 26 1
M  V30 30 1 27 1
M  V30 31 1 28 1
M  V30 32 1 29 2
M  V30 33 1 30 2
M  V30 34 1 31 3
M  V30 35 1 32 3
M  V30 36 1 33 5
M  V30 37 1 34 5
M  V30 38 1 35 6
M  V30 39 1 36 6
M  V30 40 1 37 8
M  V30 41 1 38 9
M  V30 42 1 39 10
M  V30 43 1 13 40 CFG=1
M  V30 44 1 41 14
M  V30 45 1 42 14
M  V30 46 1 43 16
M  V30 47 1 44 17
M  V30 48 1 45 18
M  V30 49 1 46 23
M  V30 50 1 47 23
M  V30 51 1 48 24
M  V30 52 1 49 24
M  V30 53 1 50 24
M  V30 54 1 4 51 CFG=3
M  V30 END BOND
M  V30 END CTAB
M  END
>  <b_m_subgroup_collapsed>  (1998) 
0

>  <r_i_docking_score>  (1998) 
-6.3634912170842401

>  <s_m_subgroup_title>  (1998) 
glide-dock_SP_D22_pv

>  <s_m_subgroupid>  (1998) 
glide-dock_SP_D22_pv

>  <Molecule ChEMBL ID>  (1998) 
CHEMBL515187

>  <Standard Type>  (1998) 
Ki

>  <Standard Value>  (1998) 
10000.0

>  <label>  (1998) 
0

$$$$
CHEMBL22022
     RDKit          3D

  0  0  0  0  0  0  0  0  0  0999 V3000
M  V30 BEGIN CTAB
M  V30 COUNTS 58 60 0 0 1
M  V30 BEGIN ATOM
M  V30 1 C 12.810349 7.970898 -16.585327 0
M  V30 2 C 13.066317 6.886592 -17.644812 0
M  V30 3 S 13.813907 5.358903 -16.925680 0
M  V30 4 O 14.720819 5.775392 -15.848165 0
M  V30 5 O 14.330916 4.549695 -18.040419 0
M  V30 6 C 12.462012 4.453517 -16.164068 0
M  V30 7 C 12.086178 3.193468 -16.660763 0
M  V30 8 C 11.037544 2.486887 -16.043480 0
M  V30 9 C 10.322474 3.048358 -14.953185 0
M  V30 10 O 9.289368 2.387238 -14.320614 0
M  V30 11 C 9.090345 1.008930 -14.602387 0
M  V30 12 C 10.673621 4.343209 -14.485769 0
M  V30 13 C 9.900096 5.024538 -13.442694 0
M  V30 14 C 8.594442 4.948970 -13.036450 0
M  V30 15 C 8.378474 5.948625 -12.041927 0
M  V30 16 C 9.560658 6.605289 -11.824692 0
M  V30 17 C 9.928082 7.769646 -10.942904 0 CFG=2
M  V30 18 C 11.459500 8.001919 -10.863639 0
M  V30 19 N 9.286040 7.696938 -9.591237 0 CHG=1
M  V30 20 C 9.482010 6.400441 -8.877877 0
M  V30 21 C 8.980637 6.388058 -7.422762 0
M  V30 22 C 10.040025 6.812816 -6.396944 0
M  V30 23 C 10.302133 8.320363 -6.398377 0
M  V30 24 C 10.685959 8.864179 -7.777730 0
M  V30 25 C 9.493867 8.925426 -8.768517 0
M  V30 26 N 10.472071 6.023345 -12.682821 0
M  V30 27 C 11.777531 5.008781 -15.069931 0
M  V30 28 H 12.559937 8.922960 -17.047363 0
M  V30 29 H 11.982526 7.714114 -15.930287 0
M  V30 30 H 13.686190 8.143984 -15.962925 0
M  V30 31 H 13.777544 7.265764 -18.378220 0
M  V30 32 H 12.157868 6.617032 -18.182423 0
M  V30 33 H 12.613098 2.754144 -17.495119 0
M  V30 34 H 10.791830 1.512504 -16.436563 0
M  V30 35 H 8.328353 0.612705 -13.931249 0
M  V30 36 H 8.741085 0.856580 -15.624596 0
M  V30 37 H 10.000422 0.429603 -14.439236 0
M  V30 38 H 7.852975 4.273887 -13.437359 0
M  V30 39 H 7.444221 6.168182 -11.542735 0
M  V30 40 H 9.505442 8.651654 -11.426426 0
M  V30 41 H 11.905855 8.091410 -11.852124 0
M  V30 42 H 11.711600 8.930252 -10.352533 0
M  V30 43 H 11.971483 7.185898 -10.354524 0
M  V30 44 H 8.929125 5.630936 -9.415803 0
M  V30 45 H 10.526774 6.091836 -8.912011 0
M  V30 46 H 8.086069 6.991133 -7.302206 0
M  V30 47 H 8.673855 5.372366 -7.194736 0
M  V30 48 H 9.702924 6.529466 -5.399782 0
M  V30 49 H 10.968358 6.265243 -6.565667 0
M  V30 50 H 9.423855 8.850574 -6.031706 0
M  V30 51 H 11.102350 8.536306 -5.689419 0
M  V30 52 H 11.067268 9.871292 -7.624934 0
M  V30 53 H 11.529466 8.301560 -8.175373 0
M  V30 54 H 9.625875 9.772186 -9.440557 0
M  V30 55 H 8.571121 9.143359 -8.228289 0
M  V30 56 H 11.435368 6.312572 -12.772147 0
M  V30 57 H 12.092712 5.970172 -14.700953 0
M  V30 58 H 8.287929 7.717456 -9.804345 0
M  V30 END ATOM
M  V30 BEGIN BOND
M  V30 1 1 2 1
M  V30 2 1 3 2
M  V30 3 2 4 3
M  V30 4 2 5 3
M  V30 5 1 6 3
M  V30 6 1 7 6
M  V30 7 2 8 7
M  V30 8 1 9 8
M  V30 9 1 10 9
M  V30 10 1 11 10
M  V30 11 2 12 9
M  V30 12 1 13 12
M  V30 13 2 14 13
M  V30 14 1 15 14
M  V30 15 2 16 15
M  V30 16 1 17 16
M  V30 17 1 18 17
M  V30 18 1 19 17
M  V30 19 1 20 19
M  V30 20 1 21 20
M  V30 21 1 22 21
M  V30 22 1 23 22
M  V30 23 1 24 23
M  V30 24 1 25 19
M  V30 25 1 25 24
M  V30 26 1 26 13
M  V30 27 1 26 16
M  V30 28 2 27 6
M  V30 29 1 27 12
M  V30 30 1 28 1
M  V30 31 1 29 1
M  V30 32 1 30 1
M  V30 33 1 31 2
M  V30 34 1 32 2
M  V30 35 1 33 7
M  V30 36 1 34 8
M  V30 37 1 35 11
M  V30 38 1 36 11
M  V30 39 1 37 11
M  V30 40 1 38 14
M  V30 41 1 39 15
M  V30 42 1 17 40 CFG=3
M  V30 43 1 41 18
M  V30 44 1 42 18
M  V30 45 1 43 18
M  V30 46 1 44 20
M  V30 47 1 45 20
M  V30 48 1 46 21
M  V30 49 1 47 21
M  V30 50 1 48 22
M  V30 51 1 49 22
M  V30 52 1 50 23
M  V30 53 1 51 23
M  V30 54 1 52 24
M  V30 55 1 53 24
M  V30 56 1 54 25
M  V30 57 1 55 25
M  V30 58 1 56 26
M  V30 59 1 57 27
M  V30 60 1 58 19
M  V30 END BOND
M  V30 END CTAB
M  END
>  <b_m_subgroup_collapsed>  (1999) 
0

>  <r_i_docking_score>  (1999) 
-6.3634126825735304

>  <s_m_subgroup_title>  (1999) 
glide-dock_SP_D22_pv

>  <s_m_subgroupid>  (1999) 
glide-dock_SP_D22_pv

>  <Molecule ChEMBL ID>  (1999) 
CHEMBL22022

>  <Standard Type>  (1999) 
Ki

>  <Standard Value>  (1999) 
79.43

>  <label>  (1999) 
1

$$$$
CHEMBL198463
     RDKit          3D

  0  0  0  0  0  0  0  0  0  0999 V3000
M  V30 BEGIN CTAB
M  V30 COUNTS 63 68 0 0 1
M  V30 BEGIN ATOM
M  V30 1 C 8.669111 7.031930 -6.874413 0
M  V30 2 N 8.886029 6.895845 -8.323324 0 CFG=2 CHG=1
M  V30 3 C 8.617887 5.523381 -8.822794 0
M  V30 4 C 8.528016 5.523380 -10.361341 0
M  V30 5 C 9.686302 6.265560 -10.959055 0
M  V30 6 C 10.435829 7.124647 -10.196849 0
M  V30 7 S 11.790820 7.772345 -11.070394 0
M  V30 8 C 11.314910 6.918276 -12.514328 0
M  V30 9 N 12.085984 6.954079 -13.654166 0
M  V30 10 C 11.686022 6.119925 -14.574033 0
M  V30 11 N 10.520555 5.308939 -14.493731 0
M  V30 12 C 10.209090 4.467079 -15.660750 0
M  V30 13 C 10.067291 2.977623 -15.277841 0
M  V30 14 N 9.972653 2.088926 -16.434359 0
M  V30 15 C 9.953341 0.684733 -15.999659 0
M  V30 16 C 8.600271 0.296820 -15.357523 0
M  V30 17 N 7.532266 0.558227 -16.314058 0
M  V30 18 C 6.352383 -0.210039 -16.302830 0
M  V30 19 C 5.780551 -0.611614 -15.074645 0
M  V30 20 C 4.634079 -1.427636 -15.074778 0
M  V30 21 N 4.084841 -1.827607 -16.239168 0 CHG=1
M  V30 22 C 4.568625 -1.456944 -17.440887 0
M  V30 23 C 3.930212 -1.909162 -18.612070 0
M  V30 24 C 4.437634 -1.542090 -19.872099 0
M  V30 25 C 5.588274 -0.737186 -19.959721 0
M  V30 26 C 6.234166 -0.293139 -18.788425 0
M  V30 27 C 5.725247 -0.632029 -17.510946 0
M  V30 28 C 7.478182 1.952502 -16.724176 0
M  V30 29 C 8.840308 2.348191 -17.340378 0
M  V30 30 C 9.669489 5.372321 -13.430513 0
M  V30 31 O 8.576060 4.806651 -13.387788 0
M  V30 32 C 10.178920 6.181252 -12.295033 0
M  V30 33 C 10.194826 7.435367 -8.761249 0
M  V30 34 H 9.411604 6.480931 -6.296741 0
M  V30 35 H 8.690913 8.079062 -6.570767 0
M  V30 36 H 7.685051 6.635051 -6.645316 0
M  V30 37 H 7.686200 5.144547 -8.399781 0
M  V30 38 H 9.415229 4.857630 -8.488184 0
M  V30 39 H 7.596105 5.978131 -10.688423 0
M  V30 40 H 8.500216 4.494888 -10.718656 0
M  V30 41 H 12.243157 6.012258 -15.506130 0
M  V30 42 H 10.965031 4.556005 -16.442999 0
M  V30 43 H 9.283813 4.841571 -16.099165 0
M  V30 44 H 9.204424 2.831185 -14.632850 0
M  V30 45 H 10.942372 2.684839 -14.695601 0
M  V30 46 H 10.774069 0.493047 -15.306532 0
M  V30 47 H 10.135335 0.050885 -16.868311 0
M  V30 48 H 8.420597 0.859812 -14.441803 0
M  V30 49 H 8.620782 -0.746674 -15.059981 0
M  V30 50 H 6.228338 -0.316763 -14.137483 0
M  V30 51 H 4.160405 -1.799589 -14.180928 0
M  V30 52 H 3.053419 -2.539754 -18.550911 0
M  V30 53 H 3.949661 -1.882495 -20.774807 0
M  V30 54 H 5.979882 -0.468419 -20.931160 0
M  V30 55 H 7.129392 0.300735 -18.885853 0
M  V30 56 H 6.672646 2.115403 -17.439659 0
M  V30 57 H 7.251433 2.571756 -15.856056 0
M  V30 58 H 8.828146 3.387357 -17.665228 0
M  V30 59 H 9.002240 1.763089 -18.246422 0
M  V30 60 H 10.994321 6.996768 -8.161801 0
M  V30 61 H 10.218719 8.513374 -8.596755 0
M  V30 62 H 3.294636 -2.487396 -16.221186 0
M  V30 63 H 8.164020 7.454998 -8.766921 0
M  V30 END ATOM
M  V30 BEGIN BOND
M  V30 1 1 2 1
M  V30 2 1 3 2
M  V30 3 1 4 3
M  V30 4 1 5 4
M  V30 5 2 6 5
M  V30 6 1 7 6
M  V30 7 1 8 7
M  V30 8 1 9 8
M  V30 9 2 10 9
M  V30 10 1 11 10
M  V30 11 1 12 11
M  V30 12 1 13 12
M  V30 13 1 14 13
M  V30 14 1 15 14
M  V30 15 1 16 15
M  V30 16 1 17 16
M  V30 17 1 18 17
M  V30 18 2 19 18
M  V30 19 1 20 19
M  V30 20 2 21 20
M  V30 21 1 22 21
M  V30 22 2 23 22
M  V30 23 1 24 23
M  V30 24 2 25 24
M  V30 25 1 26 25
M  V30 26 1 27 18
M  V30 27 1 27 22
M  V30 28 2 27 26
M  V30 29 1 28 17
M  V30 30 1 29 14
M  V30 31 1 29 28
M  V30 32 1 30 11
M  V30 33 2 31 30
M  V30 34 1 32 5
M  V30 35 2 32 8
M  V30 36 1 32 30
M  V30 37 1 33 2
M  V30 38 1 33 6
M  V30 39 1 34 1
M  V30 40 1 35 1
M  V30 41 1 36 1
M  V30 42 1 37 3
M  V30 43 1 38 3
M  V30 44 1 39 4
M  V30 45 1 40 4
M  V30 46 1 41 10
M  V30 47 1 42 12
M  V30 48 1 43 12
M  V30 49 1 44 13
M  V30 50 1 45 13
M  V30 51 1 46 15
M  V30 52 1 47 15
M  V30 53 1 48 16
M  V30 54 1 49 16
M  V30 55 1 50 19
M  V30 56 1 51 20
M  V30 57 1 52 23
M  V30 58 1 53 24
M  V30 59 1 54 25
M  V30 60 1 55 26
M  V30 61 1 56 28
M  V30 62 1 57 28
M  V30 63 1 58 29
M  V30 64 1 59 29
M  V30 65 1 60 33
M  V30 66 1 61 33
M  V30 67 1 62 21
M  V30 68 1 2 63 CFG=3
M  V30 END BOND
M  V30 END CTAB
M  END
>  <b_m_subgroup_collapsed>  (2000) 
0

>  <r_i_docking_score>  (2000) 
-6.3612015344220501

>  <s_m_subgroup_title>  (2000) 
glide-dock_SP_D22_pv

>  <s_m_subgroupid>  (2000) 
glide-dock_SP_D22_pv

>  <Molecule ChEMBL ID>  (2000) 
CHEMBL198463

>  <Standard Type>  (2000) 
Ki

>  <Standard Value>  (2000) 
1.46

>  <label>  (2000) 
1

$$$$
CHEMBL46
     RDKit          3D

  0  0  0  0  0  0  0  0  0  0999 V3000
M  V30 BEGIN CTAB
M  V30 COUNTS 42 45 0 0 1
M  V30 BEGIN ATOM
M  V30 1 C 10.880646 10.442832 -5.687030 0
M  V30 2 C 11.324333 9.140224 -5.113917 0
M  V30 3 N 12.250144 8.999700 -4.158953 0 CHG=1
M  V30 4 C 12.408908 7.679563 -3.842295 0
M  V30 5 C 11.547499 6.981740 -4.646361 0
M  V30 6 N 10.885352 7.903306 -5.416204 0
M  V30 7 C 9.774737 7.596464 -6.337332 0
M  V30 8 C 10.063226 7.743609 -7.862862 0 CFG=1
M  V30 9 C 11.565918 7.881701 -8.236097 0
M  V30 10 C 11.804706 8.097044 -9.746869 0
M  V30 11 C 10.881259 7.262856 -10.576624 0
M  V30 12 C 9.765218 6.612643 -10.114727 0
M  V30 13 C 9.218865 5.883696 -11.223838 0
M  V30 14 C 8.096291 5.043935 -11.418946 0
M  V30 15 C 7.861120 4.401222 -12.649284 0
M  V30 16 C 8.766100 4.556948 -13.713144 0
M  V30 17 C 9.887189 5.389260 -13.553840 0
M  V30 18 C 10.086433 6.076413 -12.337192 0
M  V30 19 N 11.070207 6.972302 -11.929063 0
M  V30 20 C 12.177155 7.392612 -12.767506 0
M  V30 21 C 9.371504 6.643487 -8.713367 0
M  V30 22 O 8.578178 5.852436 -8.202285 0
M  V30 23 H 10.486075 10.269079 -6.683004 0
M  V30 24 H 10.104677 10.859758 -5.045292 0
M  V30 25 H 11.731977 11.117500 -5.758756 0
M  V30 26 H 13.103260 7.339798 -3.087795 0
M  V30 27 H 11.339437 5.924360 -4.708197 0
M  V30 28 H 8.937670 8.238987 -6.067444 0
M  V30 29 H 9.450027 6.588302 -6.077659 0
M  V30 30 H 9.586239 8.672707 -8.176322 0
M  V30 31 H 12.072846 6.978164 -7.891649 0
M  V30 32 H 12.041867 8.706429 -7.709203 0
M  V30 33 H 12.846934 7.880826 -9.984350 0
M  V30 34 H 11.643804 9.147347 -9.993793 0
M  V30 35 H 7.401775 4.895376 -10.607909 0
M  V30 36 H 6.991537 3.771849 -12.766996 0
M  V30 37 H 8.596114 4.045803 -14.648871 0
M  V30 38 H 10.578055 5.525730 -14.372211 0
M  V30 39 H 12.766967 8.171457 -12.287915 0
M  V30 40 H 12.823471 6.539325 -12.968392 0
M  V30 41 H 11.796947 7.768269 -13.717186 0
M  V30 42 H 12.748827 9.764882 -3.720669 0
M  V30 END ATOM
M  V30 BEGIN BOND
M  V30 1 1 2 1
M  V30 2 2 3 2
M  V30 3 1 4 3
M  V30 4 2 5 4
M  V30 5 1 6 2
M  V30 6 1 6 5
M  V30 7 1 7 6
M  V30 8 1 8 7
M  V30 9 1 9 8
M  V30 10 1 10 9
M  V30 11 1 11 10
M  V30 12 2 12 11
M  V30 13 1 13 12
M  V30 14 2 14 13
M  V30 15 1 15 14
M  V30 16 2 16 15
M  V30 17 1 17 16
M  V30 18 1 18 13
M  V30 19 2 18 17
M  V30 20 1 19 11
M  V30 21 1 19 18
M  V30 22 1 20 19
M  V30 23 1 21 8
M  V30 24 1 21 12
M  V30 25 2 22 21
M  V30 26 1 23 1
M  V30 27 1 24 1
M  V30 28 1 25 1
M  V30 29 1 26 4
M  V30 30 1 27 5
M  V30 31 1 28 7
M  V30 32 1 29 7
M  V30 33 1 8 30 CFG=3
M  V30 34 1 31 9
M  V30 35 1 32 9
M  V30 36 1 33 10
M  V30 37 1 34 10
M  V30 38 1 35 14
M  V30 39 1 36 15
M  V30 40 1 37 16
M  V30 41 1 38 17
M  V30 42 1 39 20
M  V30 43 1 40 20
M  V30 44 1 41 20
M  V30 45 1 42 3
M  V30 END BOND
M  V30 END CTAB
M  END
>  <b_m_subgroup_collapsed>  (2001) 
0

>  <r_i_docking_score>  (2001) 
-6.36090773335326

>  <s_m_subgroup_title>  (2001) 
glide-dock_SP_D22_pv

>  <s_m_subgroupid>  (2001) 
glide-dock_SP_D22_pv

>  <Molecule ChEMBL ID>  (2001) 
CHEMBL46

>  <Standard Type>  (2001) 
Ki

>  <Standard Value>  (2001) 
10000.0

>  <label>  (2001) 
0

$$$$
CHEMBL5413237
     RDKit          3D

  0  0  0  0  0  0  0  0  0  0999 V3000
M  V30 BEGIN CTAB
M  V30 COUNTS 65 67 0 0 1
M  V30 BEGIN ATOM
M  V30 1 C 10.330494 2.331922 -17.508179 0
M  V30 2 C 9.455107 3.326911 -16.723162 0
M  V30 3 C 10.208612 4.263427 -15.738619 0
M  V30 4 C 9.188283 4.997228 -14.823162 0
M  V30 5 C 8.397374 4.112947 -13.841463 0
M  V30 6 C 11.100156 5.271721 -16.542168 0
M  V30 7 C 12.276827 5.922997 -15.771440 0 CFG=2
M  V30 8 O 11.729767 6.910818 -14.887046 0
M  V30 9 C 12.619239 7.662770 -14.056432 0
M  V30 10 C 12.225718 7.451963 -12.588379 0
M  V30 11 C 12.968444 8.361588 -11.590870 0
M  V30 12 N 12.486394 8.173331 -10.206738 0 CHG=1
M  V30 13 C 11.211481 8.842872 -9.884375 0
M  V30 14 C 10.739303 8.343384 -8.542184 0
M  V30 15 C 9.847713 7.257702 -8.461200 0
M  V30 16 C 9.509551 6.767989 -7.189148 0
M  V30 17 C 10.088915 7.372505 -6.059351 0
M  V30 18 C 10.951296 8.476520 -6.237692 0
M  V30 19 C 11.528427 9.237166 -5.047418 0
M  V30 20 F 10.967313 10.445937 -4.992288 0
M  V30 21 F 11.295950 8.612724 -3.894694 0
M  V30 22 F 12.846452 9.373631 -5.173375 0
M  V30 23 N 11.282944 8.945091 -7.463797 0
M  V30 24 C 13.273095 6.543825 -16.771259 0
M  V30 25 C 13.212693 7.912753 -17.117542 0
M  V30 26 C 14.107074 8.419546 -18.077715 0
M  V30 27 C 15.029208 7.540511 -18.671144 0
M  V30 28 C 14.999989 6.187612 -18.289352 0
M  V30 29 N 14.140623 5.696187 -17.373943 0
M  V30 30 C 12.927031 4.822589 -14.912709 0
M  V30 31 C 11.907609 4.083864 -14.063692 0
M  V30 32 O 11.011406 3.406865 -14.926642 0
M  V30 33 H 9.703665 1.654650 -18.088541 0
M  V30 34 H 11.000220 2.823496 -18.212166 0
M  V30 35 H 10.935760 1.718924 -16.839922 0
M  V30 36 H 8.723959 2.730288 -16.181049 0
M  V30 37 H 8.886470 3.930235 -17.430679 0
M  V30 38 H 9.677850 5.770921 -14.237631 0
M  V30 39 H 8.486020 5.533754 -15.447037 0
M  V30 40 H 7.775969 4.730336 -13.192311 0
M  V30 41 H 7.731104 3.418018 -14.350321 0
M  V30 42 H 9.060830 3.532573 -13.199951 0
M  V30 43 H 10.484735 6.043540 -17.006035 0
M  V30 44 H 11.550730 4.734626 -17.373762 0
M  V30 45 H 13.668437 7.416074 -14.217528 0
M  V30 46 H 12.510192 8.712473 -14.322145 0
M  V30 47 H 11.148636 7.594150 -12.501355 0
M  V30 48 H 12.425016 6.419544 -12.325996 0
M  V30 49 H 14.039114 8.172381 -11.629958 0
M  V30 50 H 12.886045 9.408211 -11.846937 0
M  V30 51 H 12.387823 7.189079 -10.008081 0
M  V30 52 H 11.351240 9.923562 -9.850449 0
M  V30 53 H 10.446916 8.635546 -10.632674 0
M  V30 54 H 9.423582 6.803661 -9.346591 0
M  V30 55 H 8.825252 5.938620 -7.083038 0
M  V30 56 H 9.846991 6.998622 -5.075710 0
M  V30 57 H 12.486231 8.574889 -16.672606 0
M  V30 58 H 14.083654 9.463815 -18.355110 0
M  V30 59 H 15.731615 7.891296 -19.412281 0
M  V30 60 H 15.683516 5.479194 -18.732990 0
M  V30 61 H 13.413772 4.084116 -15.548083 0
M  V30 62 H 13.685989 5.222872 -14.263000 0
M  V30 63 H 12.433895 3.372096 -13.446906 0
M  V30 64 H 11.388897 4.738102 -13.367643 0
M  V30 65 H 13.172465 8.569688 -9.577089 0
M  V30 END ATOM
M  V30 BEGIN BOND
M  V30 1 1 2 1
M  V30 2 1 3 2
M  V30 3 1 4 3
M  V30 4 1 5 4
M  V30 5 1 6 3
M  V30 6 1 7 6
M  V30 7 1 7 8 CFG=1
M  V30 8 1 9 8
M  V30 9 1 10 9
M  V30 10 1 11 10
M  V30 11 1 12 11
M  V30 12 1 13 12
M  V30 13 1 14 13
M  V30 14 1 15 14
M  V30 15 2 16 15
M  V30 16 1 17 16
M  V30 17 2 18 17
M  V30 18 1 19 18
M  V30 19 1 20 19
M  V30 20 1 21 19
M  V30 21 1 22 19
M  V30 22 2 23 14
M  V30 23 1 23 18
M  V30 24 1 24 7
M  V30 25 2 25 24
M  V30 26 1 26 25
M  V30 27 2 27 26
M  V30 28 1 28 27
M  V30 29 1 29 24
M  V30 30 2 29 28
M  V30 31 1 30 7
M  V30 32 1 31 30
M  V30 33 1 32 3
M  V30 34 1 32 31
M  V30 35 1 33 1
M  V30 36 1 34 1
M  V30 37 1 35 1
M  V30 38 1 36 2
M  V30 39 1 37 2
M  V30 40 1 38 4
M  V30 41 1 39 4
M  V30 42 1 40 5
M  V30 43 1 41 5
M  V30 44 1 42 5
M  V30 45 1 43 6
M  V30 46 1 44 6
M  V30 47 1 45 9
M  V30 48 1 46 9
M  V30 49 1 47 10
M  V30 50 1 48 10
M  V30 51 1 49 11
M  V30 52 1 50 11
M  V30 53 1 51 12
M  V30 54 1 52 13
M  V30 55 1 53 13
M  V30 56 1 54 15
M  V30 57 1 55 16
M  V30 58 1 56 17
M  V30 59 1 57 25
M  V30 60 1 58 26
M  V30 61 1 59 27
M  V30 62 1 60 28
M  V30 63 1 61 30
M  V30 64 1 62 30
M  V30 65 1 63 31
M  V30 66 1 64 31
M  V30 67 1 65 12
M  V30 END BOND
M  V30 END CTAB
M  END
>  <b_m_subgroup_collapsed>  (2002) 
0

>  <r_i_docking_score>  (2002) 
-6.3587052102992798

>  <s_m_subgroup_title>  (2002) 
glide-dock_SP_D22_pv

>  <s_m_subgroupid>  (2002) 
glide-dock_SP_D22_pv

>  <Molecule ChEMBL ID>  (2002) 
CHEMBL5413237

>  <Standard Type>  (2002) 
Ki

>  <Standard Value>  (2002) 
100000.0

>  <label>  (2002) 
0

$$$$
CHEMBL201010
     RDKit          3D

  0  0  0  0  0  0  0  0  0  0999 V3000
M  V30 BEGIN CTAB
M  V30 COUNTS 49 53 0 0 1
M  V30 BEGIN ATOM
M  V30 1 C 13.015473 5.230949 -14.408806 0
M  V30 2 N 11.646308 5.670161 -13.976365 0 CFG=2 CHG=1
M  V30 3 C 11.844884 6.818552 -13.021738 0
M  V30 4 C 10.650255 7.206616 -12.117623 0
M  V30 5 C 10.076595 6.022036 -11.352815 0
M  V30 6 C 9.759712 4.842478 -12.320866 0 CFG=1
M  V30 7 C 8.300386 4.836804 -12.826569 0
M  V30 8 C 7.403402 5.881941 -12.492947 0
M  V30 9 C 6.019575 5.725486 -12.653146 0
M  V30 10 C 5.503654 4.572600 -13.274951 0
M  V30 11 C 6.375520 3.559867 -13.689203 0
M  V30 12 C 7.750886 3.689387 -13.446705 0
M  V30 13 C 10.942962 4.507854 -13.322959 0 CFG=1
M  V30 14 C 10.690148 3.448400 -14.381087 0
M  V30 15 N 10.561193 2.086926 -14.166476 0
M  V30 16 C 10.323584 1.422611 -15.355535 0
M  V30 17 C 10.087613 0.070929 -15.653024 0
M  V30 18 C 9.905239 -0.322246 -16.991615 0
M  V30 19 C 9.951441 0.640629 -18.017576 0
M  V30 20 C 10.173296 1.997896 -17.708555 0
M  V30 21 C 10.356551 2.420276 -16.371090 0
M  V30 22 C 10.592537 3.679183 -15.728578 0
M  V30 23 C 10.796550 5.032782 -16.322023 0
M  V30 24 C 10.885915 6.085926 -15.194060 0
M  V30 25 H 13.042944 4.570072 -15.271519 0
M  V30 26 H 13.512641 4.642366 -13.637042 0
M  V30 27 H 13.645910 6.085224 -14.660583 0
M  V30 28 H 12.667593 6.571687 -12.350713 0
M  V30 29 H 12.184305 7.699384 -13.569217 0
M  V30 30 H 10.987897 7.953976 -11.398363 0
M  V30 31 H 9.842753 7.697206 -12.646896 0
M  V30 32 H 10.731920 5.772444 -10.526832 0
M  V30 33 H 9.213984 6.318807 -10.760050 0
M  V30 34 H 9.726110 3.970779 -11.664458 0
M  V30 35 H 7.714314 6.806708 -12.034736 0
M  V30 36 H 5.357053 6.517039 -12.332844 0
M  V30 37 H 4.444701 4.463120 -13.446823 0
M  V30 38 H 5.987620 2.663695 -14.150561 0
M  V30 39 H 8.340440 2.825566 -13.672022 0
M  V30 40 H 11.708725 4.172299 -12.646894 0
M  V30 41 H 10.534855 1.658993 -13.242445 0
M  V30 42 H 10.055363 -0.658010 -14.859491 0
M  V30 43 H 9.729456 -1.360438 -17.232862 0
M  V30 44 H 9.811811 0.337724 -19.045242 0
M  V30 45 H 10.201678 2.727755 -18.503887 0
M  V30 46 H 11.692299 5.047547 -16.943373 0
M  V30 47 H 9.972029 5.282827 -16.990894 0
M  V30 48 H 9.859638 6.172317 -14.861031 0
M  V30 49 H 11.259313 7.031418 -15.590801 0
M  V30 END ATOM
M  V30 BEGIN BOND
M  V30 1 1 2 1 CFG=3
M  V30 2 1 3 2
M  V30 3 1 4 3
M  V30 4 1 5 4
M  V30 5 1 6 5
M  V30 6 1 7 6
M  V30 7 2 8 7
M  V30 8 1 9 8
M  V30 9 2 10 9
M  V30 10 1 11 10
M  V30 11 1 12 7
M  V30 12 2 12 11
M  V30 13 1 13 2
M  V30 14 1 13 6
M  V30 15 1 14 13
M  V30 16 1 15 14
M  V30 17 1 16 15
M  V30 18 2 17 16
M  V30 19 1 18 17
M  V30 20 2 19 18
M  V30 21 1 20 19
M  V30 22 1 21 16
M  V30 23 2 21 20
M  V30 24 2 22 14
M  V30 25 1 22 21
M  V30 26 1 23 22
M  V30 27 1 24 2
M  V30 28 1 24 23
M  V30 29 1 25 1
M  V30 30 1 26 1
M  V30 31 1 27 1
M  V30 32 1 28 3
M  V30 33 1 29 3
M  V30 34 1 30 4
M  V30 35 1 31 4
M  V30 36 1 32 5
M  V30 37 1 33 5
M  V30 38 1 6 34 CFG=1
M  V30 39 1 35 8
M  V30 40 1 36 9
M  V30 41 1 37 10
M  V30 42 1 38 11
M  V30 43 1 39 12
M  V30 44 1 13 40 CFG=1
M  V30 45 1 41 15
M  V30 46 1 42 17
M  V30 47 1 43 18
M  V30 48 1 44 19
M  V30 49 1 45 20
M  V30 50 1 46 23
M  V30 51 1 47 23
M  V30 52 1 48 24
M  V30 53 1 49 24
M  V30 END BOND
M  V30 END CTAB
M  END
>  <b_m_subgroup_collapsed>  (2003) 
0

>  <r_i_docking_score>  (2003) 
-6.3580945640249702

>  <s_m_subgroup_title>  (2003) 
glide-dock_SP_D22_pv

>  <s_m_subgroupid>  (2003) 
glide-dock_SP_D22_pv

>  <Molecule ChEMBL ID>  (2003) 
CHEMBL201010

>  <Standard Type>  (2003) 
Ki

>  <Standard Value>  (2003) 
10000.0

>  <label>  (2003) 
0

$$$$
CHEMBL1080907
     RDKit          3D

  0  0  0  0  0  0  0  0  0  0999 V3000
M  V30 BEGIN CTAB
M  V30 COUNTS 60 64 0 0 1
M  V30 BEGIN ATOM
M  V30 1 C 8.584156 5.809600 -12.418238 0
M  V30 2 C 9.787469 6.612490 -11.956021 0
M  V30 3 C 9.656655 7.410743 -10.799048 0
M  V30 4 C 10.738524 8.171202 -10.323455 0
M  V30 5 C 11.958203 8.151960 -11.019204 0
M  V30 6 C 12.086138 7.372339 -12.184465 0
M  V30 7 C 11.022463 6.572398 -12.656105 0
M  V30 8 C 11.276635 5.671286 -13.796391 0
M  V30 9 C 11.187773 4.280029 -13.610608 0
M  V30 10 C 11.546823 3.381456 -14.628656 0
M  V30 11 C 11.893971 3.842016 -15.919570 0
M  V30 12 C 12.287548 2.930009 -17.068850 0
M  V30 13 O 13.132495 3.358101 -17.857550 0
M  V30 14 N 11.641607 1.750747 -17.308214 0
M  V30 15 C 10.865213 0.959303 -16.337877 0
M  V30 16 C 10.033463 -0.160731 -16.986835 0
M  V30 17 N 9.343190 0.373830 -18.170155 0
M  V30 18 C 8.000410 0.255424 -18.353628 0
M  V30 19 O 7.472848 0.263490 -19.465849 0
M  V30 20 C 7.116179 0.181377 -17.136101 0
M  V30 21 C 7.311264 1.068022 -16.053028 0
M  V30 22 C 6.485895 1.017805 -14.916534 0
M  V30 23 C 5.368476 0.155208 -14.875449 0
M  V30 24 C 4.288728 -0.033686 -13.954380 0
M  V30 25 C 3.474364 -0.995814 -14.485719 0
M  V30 26 N 4.015098 -1.427696 -15.685861 0
M  V30 27 C 5.162083 -0.714762 -15.985803 0
M  V30 28 C 6.024786 -0.713523 -17.098509 0
M  V30 29 C 10.272128 0.897412 -19.206379 0 CFG=1
M  V30 30 C 9.782857 2.234742 -19.813248 0
M  V30 31 C 11.705781 1.103369 -18.634268 0
M  V30 32 C 11.964153 5.244029 -16.111605 0
M  V30 33 C 11.685833 6.144620 -15.060796 0
M  V30 34 H 8.636760 4.790655 -12.036183 0
M  V30 35 H 7.657717 6.257905 -12.053352 0
M  V30 36 H 8.527594 5.771123 -13.506326 0
M  V30 37 H 8.717320 7.435055 -10.264671 0
M  V30 38 H 10.629119 8.772017 -9.432682 0
M  V30 39 H 12.793772 8.736827 -10.666148 0
M  V30 40 H 13.032678 7.363918 -12.704174 0
M  V30 41 H 10.885972 3.894272 -12.646928 0
M  V30 42 H 11.560833 2.338933 -14.364633 0
M  V30 43 H 11.533491 0.518900 -15.602382 0
M  V30 44 H 10.169828 1.608202 -15.816353 0
M  V30 45 H 10.676298 -0.982848 -17.303835 0
M  V30 46 H 9.374619 -0.614568 -16.246367 0
M  V30 47 H 8.091939 1.810286 -16.088619 0
M  V30 48 H 6.657447 1.702919 -14.098085 0
M  V30 49 H 4.139009 0.521753 -13.047018 0
M  V30 50 H 2.549519 -1.395109 -14.097045 0
M  V30 51 H 3.598712 -2.164133 -16.246038 0
M  V30 52 H 5.832802 -1.378630 -17.927483 0
M  V30 53 H 10.327841 0.162730 -20.011419 0
M  V30 54 H 10.521428 2.643744 -20.503529 0
M  V30 55 H 8.861930 2.127296 -20.384783 0
M  V30 56 H 9.613317 2.982740 -19.039042 0
M  V30 57 H 12.307442 1.654176 -19.358801 0
M  V30 58 H 12.219144 0.146613 -18.527023 0
M  V30 59 H 12.258919 5.645861 -17.070763 0
M  V30 60 H 11.775511 7.207689 -15.232521 0
M  V30 END ATOM
M  V30 BEGIN BOND
M  V30 1 1 2 1
M  V30 2 2 3 2
M  V30 3 1 4 3
M  V30 4 2 5 4
M  V30 5 1 6 5
M  V30 6 1 7 2
M  V30 7 2 7 6
M  V30 8 1 8 7
M  V30 9 1 9 8
M  V30 10 2 10 9
M  V30 11 1 11 10
M  V30 12 1 12 11
M  V30 13 2 13 12
M  V30 14 1 14 12
M  V30 15 1 15 14
M  V30 16 1 16 15
M  V30 17 1 17 16
M  V30 18 1 18 17
M  V30 19 2 19 18
M  V30 20 1 20 18
M  V30 21 2 21 20
M  V30 22 1 22 21
M  V30 23 2 23 22
M  V30 24 1 24 23
M  V30 25 2 25 24
M  V30 26 1 26 25
M  V30 27 1 27 23
M  V30 28 1 27 26
M  V30 29 1 28 20
M  V30 30 2 28 27
M  V30 31 1 29 17
M  V30 32 1 30 29
M  V30 33 1 31 14
M  V30 34 1 31 29
M  V30 35 2 32 11
M  V30 36 2 33 8
M  V30 37 1 33 32
M  V30 38 1 34 1
M  V30 39 1 35 1
M  V30 40 1 36 1
M  V30 41 1 37 3
M  V30 42 1 38 4
M  V30 43 1 39 5
M  V30 44 1 40 6
M  V30 45 1 41 9
M  V30 46 1 42 10
M  V30 47 1 43 15
M  V30 48 1 44 15
M  V30 49 1 45 16
M  V30 50 1 46 16
M  V30 51 1 47 21
M  V30 52 1 48 22
M  V30 53 1 49 24
M  V30 54 1 50 25
M  V30 55 1 51 26
M  V30 56 1 52 28
M  V30 57 1 29 53 CFG=3
M  V30 58 1 54 30
M  V30 59 1 55 30
M  V30 60 1 56 30
M  V30 61 1 57 31
M  V30 62 1 58 31
M  V30 63 1 59 32
M  V30 64 1 60 33
M  V30 END BOND
M  V30 END CTAB
M  END
>  <b_m_subgroup_collapsed>  (2004) 
0

>  <r_i_docking_score>  (2004) 
-6.3573770328324297

>  <s_m_subgroup_title>  (2004) 
glide-dock_SP_D22_pv

>  <s_m_subgroupid>  (2004) 
glide-dock_SP_D22_pv

>  <Molecule ChEMBL ID>  (2004) 
CHEMBL1080907

>  <Standard Type>  (2004) 
Ki

>  <Standard Value>  (2004) 
10000.0

>  <label>  (2004) 
0

$$$$
CHEMBL201010
     RDKit          3D

  0  0  0  0  0  0  0  0  0  0999 V3000
M  V30 BEGIN CTAB
M  V30 COUNTS 49 53 0 0 1
M  V30 BEGIN ATOM
M  V30 1 C 8.018414 4.670458 -10.972383 0
M  V30 2 N 7.753842 5.331900 -12.285114 0 CFG=1 CHG=1
M  V30 3 C 8.427979 6.663045 -12.286573 0
M  V30 4 C 9.969647 6.559694 -12.212072 0
M  V30 5 C 10.569211 5.650409 -13.295277 0
M  V30 6 C 9.807890 4.325964 -13.483986 0 CFG=2
M  V30 7 C 10.294338 3.638300 -14.764204 0
M  V30 8 C 10.116223 4.260019 -16.023495 0
M  V30 9 C 10.528421 3.617081 -17.205662 0
M  V30 10 C 11.110559 2.338486 -17.141996 0
M  V30 11 C 11.279897 1.709035 -15.896091 0
M  V30 12 C 10.885960 2.358709 -14.710098 0
M  V30 13 C 8.260624 4.543898 -13.479743 0 CFG=1
M  V30 14 C 7.427307 3.308722 -13.700407 0
M  V30 15 N 7.803909 2.149586 -14.361007 0
M  V30 16 C 6.805807 1.198689 -14.302681 0
M  V30 17 C 6.712247 -0.119421 -14.781707 0
M  V30 18 C 5.515159 -0.837094 -14.607868 0
M  V30 19 C 4.424674 -0.227544 -13.958270 0
M  V30 20 C 4.547399 1.079071 -13.447274 0
M  V30 21 C 5.733236 1.823877 -13.606232 0
M  V30 22 C 6.150650 3.150176 -13.251483 0
M  V30 23 C 5.453125 4.205348 -12.470568 0
M  V30 24 C 6.267220 5.529279 -12.427226 0
M  V30 25 H 7.424449 3.773021 -10.835192 0
M  V30 26 H 7.748022 5.340424 -10.153525 0
M  V30 27 H 9.058244 4.387460 -10.824696 0
M  V30 28 H 8.114836 7.220233 -13.169830 0
M  V30 29 H 8.086195 7.264174 -11.446716 0
M  V30 30 H 10.402072 7.557333 -12.295010 0
M  V30 31 H 10.272500 6.201142 -11.228882 0
M  V30 32 H 10.570857 6.172560 -14.245708 0
M  V30 33 H 11.616991 5.450759 -13.071529 0
M  V30 34 H 10.061645 3.667070 -12.652425 0
M  V30 35 H 9.654254 5.233623 -16.097927 0
M  V30 36 H 10.388740 4.101192 -18.160902 0
M  V30 37 H 11.416946 1.833958 -18.048910 0
M  V30 38 H 11.687090 0.711001 -15.847716 0
M  V30 39 H 11.017595 1.855292 -13.762506 0
M  V30 40 H 8.061511 5.180832 -14.342572 0
M  V30 41 H 8.711605 2.033918 -14.794042 0
M  V30 42 H 7.541425 -0.577974 -15.299224 0
M  V30 43 H 5.425472 -1.841810 -14.996550 0
M  V30 44 H 3.484829 -0.755955 -13.872436 0
M  V30 45 H 3.685222 1.581966 -13.046943 0
M  V30 46 H 4.487251 4.374095 -12.942122 0
M  V30 47 H 5.270858 3.850665 -11.456245 0
M  V30 48 H 5.878817 6.171713 -11.633941 0
M  V30 49 H 6.059695 6.063155 -13.350677 0
M  V30 END ATOM
M  V30 BEGIN BOND
M  V30 1 1 2 1 CFG=1
M  V30 2 1 3 2
M  V30 3 1 4 3
M  V30 4 1 5 4
M  V30 5 1 6 5
M  V30 6 1 7 6
M  V30 7 2 8 7
M  V30 8 1 9 8
M  V30 9 2 10 9
M  V30 10 1 11 10
M  V30 11 1 12 7
M  V30 12 2 12 11
M  V30 13 1 13 2
M  V30 14 1 13 6
M  V30 15 1 14 13
M  V30 16 1 15 14
M  V30 17 1 16 15
M  V30 18 2 17 16
M  V30 19 1 18 17
M  V30 20 2 19 18
M  V30 21 1 20 19
M  V30 22 1 21 16
M  V30 23 2 21 20
M  V30 24 2 22 14
M  V30 25 1 22 21
M  V30 26 1 23 22
M  V30 27 1 24 2
M  V30 28 1 24 23
M  V30 29 1 25 1
M  V30 30 1 26 1
M  V30 31 1 27 1
M  V30 32 1 28 3
M  V30 33 1 29 3
M  V30 34 1 30 4
M  V30 35 1 31 4
M  V30 36 1 32 5
M  V30 37 1 33 5
M  V30 38 1 6 34 CFG=1
M  V30 39 1 35 8
M  V30 40 1 36 9
M  V30 41 1 37 10
M  V30 42 1 38 11
M  V30 43 1 39 12
M  V30 44 1 13 40 CFG=3
M  V30 45 1 41 15
M  V30 46 1 42 17
M  V30 47 1 43 18
M  V30 48 1 44 19
M  V30 49 1 45 20
M  V30 50 1 46 23
M  V30 51 1 47 23
M  V30 52 1 48 24
M  V30 53 1 49 24
M  V30 END BOND
M  V30 END CTAB
M  END
>  <b_m_subgroup_collapsed>  (2005) 
0

>  <r_i_docking_score>  (2005) 
-6.3568652661467802

>  <s_m_subgroup_title>  (2005) 
glide-dock_SP_D22_pv

>  <s_m_subgroupid>  (2005) 
glide-dock_SP_D22_pv

>  <Molecule ChEMBL ID>  (2005) 
CHEMBL201010

>  <Standard Type>  (2005) 
Ki

>  <Standard Value>  (2005) 
10000.0

>  <label>  (2005) 
0

$$$$
CHEMBL93868
     RDKit          3D

  0  0  0  0  0  0  0  0  0  0999 V3000
M  V30 BEGIN CTAB
M  V30 COUNTS 44 46 0 0 1
M  V30 BEGIN ATOM
M  V30 1 C 8.736374 6.547288 -7.425274 0
M  V30 2 N 8.886138 7.193889 -8.747705 0 CHG=1
M  V30 3 C 9.771168 8.377885 -8.690742 0
M  V30 4 C 9.214669 6.223718 -9.819909 0
M  V30 5 C 9.230283 6.842111 -11.232823 0
M  V30 6 C 9.312287 5.787119 -12.287962 0
M  V30 7 C 10.398497 5.473348 -13.054477 0
M  V30 8 N 10.090149 4.422454 -13.905788 0
M  V30 9 S 11.213008 3.778621 -15.040345 0
M  V30 10 O 10.860139 2.362945 -15.222035 0
M  V30 11 O 12.537048 4.172348 -14.533388 0
M  V30 12 C 10.862177 4.685760 -16.545290 0
M  V30 13 C 9.757378 4.324179 -17.341288 0
M  V30 14 C 9.478486 5.050848 -18.517656 0
M  V30 15 C 10.307191 6.127562 -18.895514 0
M  V30 16 C 11.415658 6.480048 -18.098930 0
M  V30 17 C 11.691837 5.764040 -16.920012 0
M  V30 18 C 8.774820 4.023026 -13.695794 0
M  V30 19 C 7.969242 3.009309 -14.258053 0
M  V30 20 C 6.631664 2.870624 -13.847526 0
M  V30 21 C 6.096263 3.748649 -12.885838 0
M  V30 22 C 6.904026 4.752654 -12.317790 0
M  V30 23 C 8.259746 4.903926 -12.698931 0
M  V30 24 H 9.685563 6.152295 -7.061843 0
M  V30 25 H 8.357033 7.262638 -6.690588 0
M  V30 26 H 8.014816 5.730687 -7.477314 0
M  V30 27 H 10.815208 8.088683 -8.565408 0
M  V30 28 H 9.680586 8.980435 -9.596587 0
M  V30 29 H 9.490809 9.022796 -7.857897 0
M  V30 30 H 8.460043 5.434986 -9.791424 0
M  V30 31 H 10.172272 5.741239 -9.611064 0
M  V30 32 H 10.068896 7.528447 -11.335108 0
M  V30 33 H 8.333120 7.436241 -11.403646 0
M  V30 34 H 11.383502 5.917122 -13.064276 0
M  V30 35 H 9.124916 3.498769 -17.053040 0
M  V30 36 H 8.628166 4.786452 -19.129522 0
M  V30 37 H 10.092369 6.683130 -19.798018 0
M  V30 38 H 12.047804 7.307218 -18.391289 0
M  V30 39 H 12.537756 6.040855 -16.307617 0
M  V30 40 H 8.372077 2.326387 -14.990267 0
M  V30 41 H 6.015591 2.083508 -14.259768 0
M  V30 42 H 5.068970 3.641707 -12.567891 0
M  V30 43 H 6.485910 5.415989 -11.573249 0
M  V30 44 H 7.954215 7.525444 -8.980806 0
M  V30 END ATOM
M  V30 BEGIN BOND
M  V30 1 1 2 1
M  V30 2 1 3 2
M  V30 3 1 4 2
M  V30 4 1 5 4
M  V30 5 1 6 5
M  V30 6 2 7 6
M  V30 7 1 8 7
M  V30 8 1 9 8
M  V30 9 2 10 9
M  V30 10 2 11 9
M  V30 11 1 12 9
M  V30 12 2 13 12
M  V30 13 1 14 13
M  V30 14 2 15 14
M  V30 15 1 16 15
M  V30 16 1 17 12
M  V30 17 2 17 16
M  V30 18 1 18 8
M  V30 19 2 19 18
M  V30 20 1 20 19
M  V30 21 2 21 20
M  V30 22 1 22 21
M  V30 23 1 23 6
M  V30 24 1 23 18
M  V30 25 2 23 22
M  V30 26 1 24 1
M  V30 27 1 25 1
M  V30 28 1 26 1
M  V30 29 1 27 3
M  V30 30 1 28 3
M  V30 31 1 29 3
M  V30 32 1 30 4
M  V30 33 1 31 4
M  V30 34 1 32 5
M  V30 35 1 33 5
M  V30 36 1 34 7
M  V30 37 1 35 13
M  V30 38 1 36 14
M  V30 39 1 37 15
M  V30 40 1 38 16
M  V30 41 1 39 17
M  V30 42 1 40 19
M  V30 43 1 41 20
M  V30 44 1 42 21
M  V30 45 1 43 22
M  V30 46 1 44 2
M  V30 END BOND
M  V30 END CTAB
M  END
>  <b_m_subgroup_collapsed>  (2006) 
0

>  <r_i_docking_score>  (2006) 
-6.3566609602408004

>  <s_m_subgroup_title>  (2006) 
glide-dock_SP_D22_pv

>  <s_m_subgroupid>  (2006) 
glide-dock_SP_D22_pv

>  <Molecule ChEMBL ID>  (2006) 
CHEMBL93868

>  <Standard Type>  (2006) 
Ki

>  <Standard Value>  (2006) 
62.0

>  <label>  (2006) 
1

$$$$
CHEMBL4541869
     RDKit          3D

  0  0  0  0  0  0  0  0  0  0999 V3000
M  V30 BEGIN CTAB
M  V30 COUNTS 81 85 0 0 1
M  V30 BEGIN ATOM
M  V30 1 C 11.840660 11.278433 -6.265554 0
M  V30 2 O 10.886734 10.241241 -6.244362 0
M  V30 3 C 11.214169 9.182690 -5.440573 0
M  V30 4 C 11.515608 9.378075 -4.072103 0
M  V30 5 C 11.756591 8.273934 -3.235780 0
M  V30 6 C 11.686150 6.972347 -3.763178 0
M  V30 7 C 11.391576 6.778086 -5.127217 0
M  V30 8 C 11.183018 7.878920 -5.988348 0
M  V30 9 N 10.962296 7.685221 -7.366704 0
M  V30 10 C 11.689941 8.467872 -8.363952 0
M  V30 11 C 10.720181 8.970155 -9.455462 0
M  V30 12 C 9.931457 7.815604 -10.117622 0
M  V30 13 C 10.901100 6.969275 -10.956233 0
M  V30 14 C 10.183120 5.840864 -11.725537 0
M  V30 15 N 9.165374 6.387100 -12.635180 0 CHG=1
M  V30 16 C 8.566031 5.339899 -13.496676 0
M  V30 17 C 9.464674 5.022830 -14.717336 0
M  V30 18 C 10.124435 3.635725 -14.681876 0
M  V30 19 S 8.920785 2.281585 -14.792517 0
M  V30 20 C 8.698284 2.144383 -16.541273 0
M  V30 21 N 8.920638 3.106049 -17.435881 0
M  V30 22 N 8.587677 2.558730 -18.652887 0
M  V30 23 C 8.218292 1.298828 -18.406122 0
M  V30 24 C 7.828354 0.387019 -19.476631 0
M  V30 25 C 6.883165 0.789689 -20.442394 0
M  V30 26 C 6.512702 -0.080799 -21.485550 0
M  V30 27 C 7.076664 -1.379737 -21.588219 0
M  V30 28 N 6.718434 -2.256872 -22.639032 0
M  V30 29 C 5.843084 -1.796842 -23.710289 0
M  V30 30 C 7.171922 -3.642820 -22.629782 0
M  V30 31 C 8.024016 -1.769860 -20.610653 0
M  V30 32 C 8.401409 -0.897919 -19.571125 0
M  V30 33 N 8.253301 1.000825 -17.088753 0
M  V30 34 C 7.931422 -0.227073 -16.391886 0
M  V30 35 C 8.186076 7.205732 -11.895636 0
M  V30 36 C 8.889277 8.353014 -11.128242 0
M  V30 37 C 9.239758 7.015605 -8.966532 0
M  V30 38 C 10.195544 6.548932 -7.854382 0
M  V30 39 H 11.686054 11.893394 -7.145545 0
M  V30 40 H 11.685960 11.944713 -5.447047 0
M  V30 41 H 12.869791 10.915042 -6.247114 0
M  V30 42 H 11.526559 10.371290 -3.648807 0
M  V30 43 H 11.976791 8.424106 -2.189044 0
M  V30 44 H 11.856939 6.119048 -3.120978 0
M  V30 45 H 11.367611 5.772530 -5.516232 0
M  V30 46 H 12.236183 9.298181 -7.925307 0
M  V30 47 H 12.469549 7.840832 -8.793622 0
M  V30 48 H 10.006290 9.655811 -9.002307 0
M  V30 49 H 11.274952 9.541961 -10.202412 0
M  V30 50 H 11.426270 7.605199 -11.670815 0
M  V30 51 H 11.670497 6.572361 -10.303383 0
M  V30 52 H 10.886158 5.286163 -12.336449 0
M  V30 53 H 9.735801 5.120069 -11.040259 0
M  V30 54 H 8.338408 4.448491 -12.908489 0
M  V30 55 H 7.605639 5.700480 -13.846952 0
M  V30 56 H 8.885144 5.120243 -15.632455 0
M  V30 57 H 10.249720 5.772639 -14.811368 0
M  V30 58 H 10.854279 3.536534 -15.485838 0
M  V30 59 H 10.682974 3.512122 -13.754230 0
M  V30 60 H 6.436771 1.772908 -20.391062 0
M  V30 61 H 5.786437 0.272352 -22.201567 0
M  V30 62 H 4.873427 -1.506442 -23.307055 0
M  V30 63 H 6.280644 -0.938583 -24.224764 0
M  V30 64 H 5.671279 -2.576523 -24.451986 0
M  V30 65 H 8.253659 -3.693570 -22.756067 0
M  V30 66 H 6.905636 -4.130902 -21.692043 0
M  V30 67 H 6.717078 -4.215930 -23.437716 0
M  V30 68 H 8.486506 -2.743712 -20.644011 0
M  V30 69 H 9.135945 -1.220379 -18.847435 0
M  V30 70 H 7.446891 -0.947671 -17.052361 0
M  V30 71 H 8.866118 -0.632758 -15.994800 0
M  V30 72 H 7.253667 -0.016342 -15.560093 0
M  V30 73 H 7.435027 7.619203 -12.570117 0
M  V30 74 H 7.685532 6.522457 -11.217658 0
M  V30 75 H 8.160113 8.991812 -10.628948 0
M  V30 76 H 9.380134 8.999454 -11.855057 0
M  V30 77 H 8.486105 7.656011 -8.505744 0
M  V30 78 H 8.690853 6.148884 -9.328581 0
M  V30 79 H 10.878571 5.783433 -8.222723 0
M  V30 80 H 9.611115 6.102395 -7.050842 0
M  V30 81 H 9.637506 7.027534 -13.253764 0
M  V30 END ATOM
M  V30 BEGIN BOND
M  V30 1 1 2 1
M  V30 2 1 3 2
M  V30 3 2 4 3
M  V30 4 1 5 4
M  V30 5 2 6 5
M  V30 6 1 7 6
M  V30 7 1 8 3
M  V30 8 2 8 7
M  V30 9 1 9 8
M  V30 10 1 10 9
M  V30 11 1 11 10
M  V30 12 1 12 11
M  V30 13 1 13 12
M  V30 14 1 14 13
M  V30 15 1 15 14
M  V30 16 1 16 15
M  V30 17 1 17 16
M  V30 18 1 18 17
M  V30 19 1 19 18
M  V30 20 1 20 19
M  V30 21 2 21 20
M  V30 22 1 22 21
M  V30 23 2 23 22
M  V30 24 1 24 23
M  V30 25 1 25 24
M  V30 26 2 26 25
M  V30 27 1 27 26
M  V30 28 1 28 27
M  V30 29 1 29 28
M  V30 30 1 30 28
M  V30 31 2 31 27
M  V30 32 2 32 24
M  V30 33 1 32 31
M  V30 34 1 33 20
M  V30 35 1 33 23
M  V30 36 1 34 33
M  V30 37 1 35 15
M  V30 38 1 36 12
M  V30 39 1 36 35
M  V30 40 1 37 12
M  V30 41 1 38 9
M  V30 42 1 38 37
M  V30 43 1 39 1
M  V30 44 1 40 1
M  V30 45 1 41 1
M  V30 46 1 42 4
M  V30 47 1 43 5
M  V30 48 1 44 6
M  V30 49 1 45 7
M  V30 50 1 46 10
M  V30 51 1 47 10
M  V30 52 1 48 11
M  V30 53 1 49 11
M  V30 54 1 50 13
M  V30 55 1 51 13
M  V30 56 1 52 14
M  V30 57 1 53 14
M  V30 58 1 54 16
M  V30 59 1 55 16
M  V30 60 1 56 17
M  V30 61 1 57 17
M  V30 62 1 58 18
M  V30 63 1 59 18
M  V30 64 1 60 25
M  V30 65 1 61 26
M  V30 66 1 62 29
M  V30 67 1 63 29
M  V30 68 1 64 29
M  V30 69 1 65 30
M  V30 70 1 66 30
M  V30 71 1 67 30
M  V30 72 1 68 31
M  V30 73 1 69 32
M  V30 74 1 70 34
M  V30 75 1 71 34
M  V30 76 1 72 34
M  V30 77 1 73 35
M  V30 78 1 74 35
M  V30 79 1 75 36
M  V30 80 1 76 36
M  V30 81 1 77 37
M  V30 82 1 78 37
M  V30 83 1 79 38
M  V30 84 1 80 38
M  V30 85 1 81 15
M  V30 END BOND
M  V30 END CTAB
M  END
>  <b_m_subgroup_collapsed>  (2007) 
0

>  <r_i_docking_score>  (2007) 
-6.3561868312149796

>  <s_m_subgroup_title>  (2007) 
glide-dock_SP_D22_pv

>  <s_m_subgroupid>  (2007) 
glide-dock_SP_D22_pv

>  <Molecule ChEMBL ID>  (2007) 
CHEMBL4541869

>  <Standard Type>  (2007) 
Ki

>  <Standard Value>  (2007) 
12137.0

>  <label>  (2007) 
0

$$$$
CHEMBL4541526
     RDKit          3D

  0  0  0  0  0  0  0  0  0  0999 V3000
M  V30 BEGIN CTAB
M  V30 COUNTS 26 28 0 0 1
M  V30 BEGIN ATOM
M  V30 1 C 11.464220 10.451569 -6.288236 0
M  V30 2 N 11.686136 9.275674 -5.477999 0
M  V30 3 C 12.236785 9.243920 -4.255191 0
M  V30 4 N 12.276171 8.042573 -3.694956 0
M  V30 5 C 11.685817 7.217005 -4.647147 0
M  V30 6 C 11.322160 7.960907 -5.750339 0
M  V30 7 C 10.600851 7.553486 -6.946838 0
M  V30 8 C 9.378676 6.950688 -6.857211 0
M  V30 9 N 8.885207 6.711060 -8.112114 0
M  V30 10 C 9.771863 7.106663 -9.073188 0
M  V30 11 C 9.686390 7.051866 -10.471386 0
M  V30 12 C 10.768224 7.493505 -11.239983 0
M  V30 13 C 11.912113 8.006525 -10.605297 0
M  V30 14 I 13.500150 8.572322 -11.846849 0
M  V30 15 C 11.970914 8.105177 -9.189914 0
M  V30 16 C 10.898237 7.642098 -8.373803 0
M  V30 17 H 11.286305 10.172350 -7.325034 0
M  V30 18 H 10.587087 10.972409 -5.910360 0
M  V30 19 H 12.332187 11.109283 -6.246754 0
M  V30 20 H 12.603203 10.123412 -3.747408 0
M  V30 21 H 11.549449 6.161824 -4.461152 0
M  V30 22 H 8.799074 6.704082 -5.981839 0
M  V30 23 H 7.920152 6.437022 -8.275055 0
M  V30 24 H 8.794457 6.662631 -10.942910 0
M  V30 25 H 10.725312 7.432570 -12.317970 0
M  V30 26 H 12.854532 8.516208 -8.724452 0
M  V30 END ATOM
M  V30 BEGIN BOND
M  V30 1 1 2 1
M  V30 2 1 3 2
M  V30 3 2 4 3
M  V30 4 1 5 4
M  V30 5 1 6 2
M  V30 6 2 6 5
M  V30 7 1 7 6
M  V30 8 2 8 7
M  V30 9 1 9 8
M  V30 10 1 10 9
M  V30 11 1 11 10
M  V30 12 2 12 11
M  V30 13 1 13 12
M  V30 14 1 14 13
M  V30 15 2 15 13
M  V30 16 1 16 7
M  V30 17 2 16 10
M  V30 18 1 16 15
M  V30 19 1 17 1
M  V30 20 1 18 1
M  V30 21 1 19 1
M  V30 22 1 20 3
M  V30 23 1 21 5
M  V30 24 1 22 8
M  V30 25 1 23 9
M  V30 26 1 24 11
M  V30 27 1 25 12
M  V30 28 1 26 15
M  V30 END BOND
M  V30 END CTAB
M  END
>  <b_m_subgroup_collapsed>  (2008) 
0

>  <r_i_docking_score>  (2008) 
-6.3558720868707601

>  <s_m_subgroup_title>  (2008) 
glide-dock_SP_D22_pv

>  <s_m_subgroupid>  (2008) 
glide-dock_SP_D22_pv

>  <Molecule ChEMBL ID>  (2008) 
CHEMBL4541526

>  <Standard Type>  (2008) 
Ki

>  <Standard Value>  (2008) 
10000.0

>  <label>  (2008) 
0

$$$$
CHEMBL3187365
     RDKit          3D

  0  0  0  0  0  0  0  0  0  0999 V3000
M  V30 BEGIN CTAB
M  V30 COUNTS 37 40 0 0 1
M  V30 BEGIN ATOM
M  V30 1 C 5.808280 3.605428 -12.586877 0
M  V30 2 N 6.844688 4.636616 -12.816896 0 CFG=2 CHG=1
M  V30 3 C 8.094878 4.188533 -13.482450 0
M  V30 4 C 9.260732 4.790793 -12.671249 0 CFG=1
M  V30 5 C 10.552253 5.045298 -13.454379 0
M  V30 6 C 11.029676 4.002407 -14.281960 0
M  V30 7 C 12.178375 4.172323 -15.076401 0
M  V30 8 C 12.881550 5.387601 -15.045136 0
M  V30 9 C 12.435515 6.424843 -14.206590 0
M  V30 10 C 11.290534 6.265905 -13.395095 0
M  V30 11 O 10.921396 7.368062 -12.649156 0
M  V30 12 C 10.650919 7.243378 -11.313154 0
M  V30 13 C 11.508070 7.841030 -10.367768 0
M  V30 14 C 11.203854 7.766369 -8.996215 0
M  V30 15 C 10.045864 7.085069 -8.569220 0
M  V30 16 Cl 9.686490 6.975205 -6.885291 0
M  V30 17 C 9.186216 6.495293 -9.515678 0
M  V30 18 C 9.479435 6.582820 -10.894930 0
M  V30 19 C 8.605648 5.980184 -11.981945 0 CFG=2
M  V30 20 C 7.230073 5.410902 -11.622276 0
M  V30 21 H 6.105495 2.878359 -11.831562 0
M  V30 22 H 5.580881 3.071976 -13.510771 0
M  V30 23 H 4.888278 4.079947 -12.240531 0
M  V30 24 H 8.171723 3.101521 -13.549491 0
M  V30 25 H 8.087419 4.584423 -14.499353 0
M  V30 26 H 9.523376 4.068957 -11.893553 0
M  V30 27 H 10.506886 3.056982 -14.323924 0
M  V30 28 H 12.521897 3.370418 -15.713887 0
M  V30 29 H 13.764720 5.523215 -15.654196 0
M  V30 30 H 12.982852 7.354766 -14.180470 0
M  V30 31 H 12.391938 8.370856 -10.693686 0
M  V30 32 H 11.858603 8.226841 -8.270740 0
M  V30 33 H 8.289400 6.002214 -9.167417 0
M  V30 34 H 8.435282 6.769209 -12.720251 0
M  V30 35 H 6.475058 6.172199 -11.446861 0
M  V30 36 H 7.286812 4.747895 -10.758733 0
M  V30 37 H 6.433675 5.313355 -13.444386 0
M  V30 END ATOM
M  V30 BEGIN BOND
M  V30 1 1 2 1
M  V30 2 1 3 2
M  V30 3 1 4 3
M  V30 4 1 5 4
M  V30 5 2 6 5
M  V30 6 1 7 6
M  V30 7 2 8 7
M  V30 8 1 9 8
M  V30 9 1 10 5
M  V30 10 2 10 9
M  V30 11 1 11 10
M  V30 12 1 12 11
M  V30 13 1 13 12
M  V30 14 2 14 13
M  V30 15 1 15 14
M  V30 16 1 16 15
M  V30 17 2 17 15
M  V30 18 2 18 12
M  V30 19 1 18 17
M  V30 20 1 19 4
M  V30 21 1 19 18
M  V30 22 1 20 2
M  V30 23 1 20 19
M  V30 24 1 21 1
M  V30 25 1 22 1
M  V30 26 1 23 1
M  V30 27 1 24 3
M  V30 28 1 25 3
M  V30 29 1 4 26 CFG=1
M  V30 30 1 27 6
M  V30 31 1 28 7
M  V30 32 1 29 8
M  V30 33 1 30 9
M  V30 34 1 31 13
M  V30 35 1 32 14
M  V30 36 1 33 17
M  V30 37 1 19 34 CFG=3
M  V30 38 1 35 20
M  V30 39 1 36 20
M  V30 40 1 2 37 CFG=3
M  V30 END BOND
M  V30 END CTAB
M  END
>  <b_m_subgroup_collapsed>  (2009) 
0

>  <r_i_docking_score>  (2009) 
-6.3536225801258803

>  <s_m_subgroup_title>  (2009) 
glide-dock_SP_D22_pv

>  <s_m_subgroupid>  (2009) 
glide-dock_SP_D22_pv

>  <Molecule ChEMBL ID>  (2009) 
CHEMBL3187365

>  <Standard Type>  (2009) 
Ki

>  <Standard Value>  (2009) 
8.9

>  <label>  (2009) 
1

$$$$
CHEMBL4573880
     RDKit          3D

  0  0  0  0  0  0  0  0  0  0999 V3000
M  V30 BEGIN CTAB
M  V30 COUNTS 49 52 0 0 1
M  V30 BEGIN ATOM
M  V30 1 C 5.285796 -2.229325 -15.670404 0
M  V30 2 C 5.307346 -0.940659 -14.858932 0
M  V30 3 O 4.300530 -0.628349 -14.218591 0
M  V30 4 N 6.452722 -0.222416 -14.870883 0
M  V30 5 C 6.628274 1.082644 -14.333420 0
M  V30 6 N 5.646353 1.731816 -13.730490 0
M  V30 7 C 6.061701 3.021345 -13.492185 0
M  V30 8 C 5.063879 3.991138 -12.954832 0
M  V30 9 C 7.407732 3.064827 -13.845665 0
M  V30 10 C 8.463258 4.086476 -13.600925 0
M  V30 11 C 8.490568 5.189403 -12.765983 0
M  V30 12 C 7.390749 5.726886 -11.908864 0
M  V30 13 N 9.761867 5.778299 -12.768004 0
M  V30 14 S 10.225356 7.202219 -11.839131 0
M  V30 15 O 9.303276 8.273784 -12.246836 0
M  V30 16 O 11.677292 7.372128 -11.993464 0
M  V30 17 C 9.928145 6.888823 -10.101481 0
M  V30 18 C 9.896127 8.009470 -9.246749 0
M  V30 19 C 9.579162 7.846679 -7.885665 0
M  V30 20 C 9.284949 6.563190 -7.389111 0
M  V30 21 C 9.323935 5.443621 -8.246982 0
M  V30 22 C 9.667251 5.597833 -9.602929 0
M  V30 23 C 10.565044 5.107837 -13.690094 0
M  V30 24 C 11.892567 5.311890 -14.135326 0
M  V30 25 C 12.450640 4.477692 -15.116510 0
M  V30 26 C 11.686815 3.429421 -15.651534 0
M  V30 27 C 10.369121 3.221703 -15.208523 0
M  V30 28 C 9.764244 4.050178 -14.227043 0
M  V30 29 N 7.730224 1.815439 -14.423559 0
M  V30 30 H 5.879820 -2.133310 -16.579473 0
M  V30 31 H 5.680990 -3.053306 -15.078581 0
M  V30 32 H 4.265361 -2.483402 -15.960403 0
M  V30 33 H 7.239377 -0.613342 -15.369848 0
M  V30 34 H 5.082295 4.924580 -13.514479 0
M  V30 35 H 4.053488 3.597059 -13.046923 0
M  V30 36 H 5.206401 4.177256 -11.893378 0
M  V30 37 H 7.048875 4.973085 -11.203293 0
M  V30 38 H 7.686349 6.572413 -11.310061 0
M  V30 39 H 6.568431 6.101376 -12.509972 0
M  V30 40 H 10.089599 8.995877 -9.641079 0
M  V30 41 H 9.533576 8.705221 -7.231572 0
M  V30 42 H 9.014273 6.437287 -6.350514 0
M  V30 43 H 9.080337 4.464263 -7.864548 0
M  V30 44 H 9.687977 4.735814 -10.252230 0
M  V30 45 H 12.507332 6.109321 -13.751738 0
M  V30 46 H 13.463182 4.640539 -15.457181 0
M  V30 47 H 12.113822 2.779329 -16.402050 0
M  V30 48 H 9.810913 2.410895 -15.647915 0
M  V30 49 H 4.715977 1.357260 -13.595820 0
M  V30 END ATOM
M  V30 BEGIN BOND
M  V30 1 1 2 1
M  V30 2 2 3 2
M  V30 3 1 4 2
M  V30 4 1 5 4
M  V30 5 1 6 5
M  V30 6 1 7 6
M  V30 7 1 8 7
M  V30 8 2 9 7
M  V30 9 1 10 9
M  V30 10 2 11 10
M  V30 11 1 12 11
M  V30 12 1 13 11
M  V30 13 1 14 13
M  V30 14 2 15 14
M  V30 15 2 16 14
M  V30 16 1 17 14
M  V30 17 2 18 17
M  V30 18 1 19 18
M  V30 19 2 20 19
M  V30 20 1 21 20
M  V30 21 1 22 17
M  V30 22 2 22 21
M  V30 23 1 23 13
M  V30 24 2 24 23
M  V30 25 1 25 24
M  V30 26 2 26 25
M  V30 27 1 27 26
M  V30 28 1 28 10
M  V30 29 1 28 23
M  V30 30 2 28 27
M  V30 31 2 29 5
M  V30 32 1 29 9
M  V30 33 1 30 1
M  V30 34 1 31 1
M  V30 35 1 32 1
M  V30 36 1 33 4
M  V30 37 1 34 8
M  V30 38 1 35 8
M  V30 39 1 36 8
M  V30 40 1 37 12
M  V30 41 1 38 12
M  V30 42 1 39 12
M  V30 43 1 40 18
M  V30 44 1 41 19
M  V30 45 1 42 20
M  V30 46 1 43 21
M  V30 47 1 44 22
M  V30 48 1 45 24
M  V30 49 1 46 25
M  V30 50 1 47 26
M  V30 51 1 48 27
M  V30 52 1 49 6
M  V30 END BOND
M  V30 END CTAB
M  END
>  <b_m_subgroup_collapsed>  (2010) 
0

>  <r_i_docking_score>  (2010) 
-6.3527893889381701

>  <s_m_subgroup_title>  (2010) 
glide-dock_SP_D22_pv

>  <s_m_subgroupid>  (2010) 
glide-dock_SP_D22_pv

>  <Molecule ChEMBL ID>  (2010) 
CHEMBL4573880

>  <Standard Type>  (2010) 
Ki

>  <Standard Value>  (2010) 
10000.0

>  <label>  (2010) 
0

$$$$
CHEMBL5722958
     RDKit          3D

  0  0  0  0  0  0  0  0  0  0999 V3000
M  V30 BEGIN CTAB
M  V30 COUNTS 46 48 0 0 1
M  V30 BEGIN ATOM
M  V30 1 C 9.344941 5.433710 -9.743005 0
M  V30 2 N 9.949038 6.631365 -10.335608 0
M  V30 3 C 9.741554 7.777713 -9.449661 0
M  V30 4 C 10.745439 7.791340 -8.279708 0
M  V30 5 C 10.302277 8.750342 -7.164711 0
M  V30 6 C 11.152192 8.721146 -5.927105 0
M  V30 7 N 11.900411 9.727404 -5.459757 0 CHG=1
M  V30 8 C 12.486659 9.372360 -4.271643 0
M  V30 9 C 12.088243 8.093407 -4.006568 0
M  V30 10 N 11.284779 7.718432 -5.045703 0
M  V30 11 C 10.621716 6.433891 -5.177278 0
M  V30 12 C 9.332644 6.924191 -11.634031 0
M  V30 13 C 9.446828 5.771611 -12.619721 0
M  V30 14 C 10.602558 5.437317 -13.231017 0
M  V30 15 C 10.675050 4.273170 -14.137931 0
M  V30 16 O 11.730454 3.951866 -14.682961 0
M  V30 17 C 9.404981 3.511507 -14.328476 0
M  V30 18 C 9.372530 2.353014 -15.135273 0
M  V30 19 C 8.172733 1.633147 -15.290562 0
M  V30 20 C 6.999032 2.070353 -14.646639 0
M  V30 21 C 7.018211 3.229762 -13.846572 0
M  V30 22 Cl 5.573636 3.744633 -13.046828 0
M  V30 23 C 8.222403 3.945936 -13.677773 0
M  V30 24 N 8.270851 5.077856 -12.855089 0
M  V30 25 H 9.538530 4.550765 -10.351896 0
M  V30 26 H 9.744492 5.214880 -8.754230 0
M  V30 27 H 8.262772 5.545650 -9.648520 0
M  V30 28 H 9.861962 8.708687 -10.008027 0
M  V30 29 H 8.713188 7.773227 -9.082392 0
M  V30 30 H 10.855092 6.793030 -7.869216 0
M  V30 31 H 11.733171 8.069135 -8.646391 0
M  V30 32 H 10.303958 9.772080 -7.530272 0
M  V30 33 H 9.281869 8.530001 -6.848530 0
M  V30 34 H 13.131226 10.035192 -3.710851 0
M  V30 35 H 12.318708 7.435452 -3.180358 0
M  V30 36 H 10.582662 5.957526 -4.198255 0
M  V30 37 H 9.605046 6.572642 -5.550022 0
M  V30 38 H 11.200959 5.807322 -5.857440 0
M  V30 39 H 9.803997 7.802145 -12.077927 0
M  V30 40 H 8.278888 7.173179 -11.488837 0
M  V30 41 H 11.508449 5.995254 -13.044636 0
M  V30 42 H 10.266936 2.006001 -15.632775 0
M  V30 43 H 8.154793 0.740225 -15.899284 0
M  V30 44 H 6.086199 1.505342 -14.761214 0
M  V30 45 H 7.428902 5.348770 -12.360608 0
M  V30 46 H 12.015227 10.620040 -5.922553 0
M  V30 END ATOM
M  V30 BEGIN BOND
M  V30 1 1 2 1
M  V30 2 1 3 2
M  V30 3 1 4 3
M  V30 4 1 5 4
M  V30 5 1 6 5
M  V30 6 2 7 6
M  V30 7 1 8 7
M  V30 8 2 9 8
M  V30 9 1 10 6
M  V30 10 1 10 9
M  V30 11 1 11 10
M  V30 12 1 12 2
M  V30 13 1 13 12
M  V30 14 2 14 13
M  V30 15 1 15 14
M  V30 16 2 16 15
M  V30 17 1 17 15
M  V30 18 2 18 17
M  V30 19 1 19 18
M  V30 20 2 20 19
M  V30 21 1 21 20
M  V30 22 1 22 21
M  V30 23 1 23 17
M  V30 24 2 23 21
M  V30 25 1 24 13
M  V30 26 1 24 23
M  V30 27 1 25 1
M  V30 28 1 26 1
M  V30 29 1 27 1
M  V30 30 1 28 3
M  V30 31 1 29 3
M  V30 32 1 30 4
M  V30 33 1 31 4
M  V30 34 1 32 5
M  V30 35 1 33 5
M  V30 36 1 34 8
M  V30 37 1 35 9
M  V30 38 1 36 11
M  V30 39 1 37 11
M  V30 40 1 38 11
M  V30 41 1 39 12
M  V30 42 1 40 12
M  V30 43 1 41 14
M  V30 44 1 42 18
M  V30 45 1 43 19
M  V30 46 1 44 20
M  V30 47 1 45 24
M  V30 48 1 46 7
M  V30 END BOND
M  V30 END CTAB
M  END
>  <b_m_subgroup_collapsed>  (2011) 
0

>  <r_i_docking_score>  (2011) 
-6.3523703470017203

>  <s_m_subgroup_title>  (2011) 
glide-dock_SP_D22_pv

>  <s_m_subgroupid>  (2011) 
glide-dock_SP_D22_pv

>  <Molecule ChEMBL ID>  (2011) 
CHEMBL5722958

>  <Standard Type>  (2011) 
Ki

>  <Standard Value>  (2011) 
10000.0

>  <label>  (2011) 
0

$$$$
CHEMBL4225278
     RDKit          3D

  0  0  0  0  0  0  0  0  0  0999 V3000
M  V30 BEGIN CTAB
M  V30 COUNTS 53 54 0 0 1
M  V30 BEGIN ATOM
M  V30 1 C 10.000191 0.169565 -15.342794 0
M  V30 2 C 9.884836 1.683926 -15.551155 0
M  V30 3 C 11.046895 2.449505 -14.898646 0
M  V30 4 C 11.004799 3.977098 -15.088005 0
M  V30 5 C 9.719766 4.676272 -14.608542 0
M  V30 6 C 9.362113 4.417932 -13.135831 0
M  V30 7 C 8.132370 5.227424 -12.689690 0
M  V30 8 C 7.552588 4.801936 -11.327074 0
M  V30 9 C 8.491857 4.894930 -10.107466 0
M  V30 10 N 8.573807 6.266981 -9.557700 0 CFG=2 CHG=1
M  V30 11 C 9.418340 7.206421 -10.336126 0
M  V30 12 C 10.224438 8.031879 -9.326727 0
M  V30 13 C 9.534821 7.782121 -7.985371 0 CFG=2
M  V30 14 C 10.415663 8.082952 -6.772400 0
M  V30 15 C 11.033500 9.348088 -6.679372 0
M  V30 16 C 11.860759 9.672555 -5.592628 0
M  V30 17 C 12.072963 8.738080 -4.566610 0
M  V30 18 C 11.469130 7.470401 -4.646161 0
M  V30 19 O 11.686110 6.572258 -3.643957 0
M  V30 20 C 10.641227 7.142338 -5.741465 0
M  V30 21 C 9.031410 6.342979 -8.153502 0
M  V30 22 H 9.150530 -0.349406 -15.786148 0
M  V30 23 H 10.905888 -0.225001 -15.801564 0
M  V30 24 H 10.025078 -0.081041 -14.281846 0
M  V30 25 H 8.935315 2.018856 -15.134346 0
M  V30 26 H 9.850564 1.904261 -16.618574 0
M  V30 27 H 11.982585 2.088156 -15.325488 0
M  V30 28 H 11.088983 2.210373 -13.836125 0
M  V30 29 H 11.149669 4.205055 -16.145012 0
M  V30 30 H 11.860966 4.415314 -14.573140 0
M  V30 31 H 8.886127 4.378687 -15.243702 0
M  V30 32 H 9.839471 5.748660 -14.763281 0
M  V30 33 H 10.219249 4.661373 -12.508717 0
M  V30 34 H 9.163373 3.355475 -12.991197 0
M  V30 35 H 7.344811 5.099586 -13.433383 0
M  V30 36 H 8.362260 6.291854 -12.697963 0
M  V30 37 H 7.210310 3.772201 -11.417657 0
M  V30 38 H 6.652605 5.382589 -11.120548 0
M  V30 39 H 9.484676 4.497383 -10.319901 0
M  V30 40 H 8.086259 4.252823 -9.324244 0
M  V30 41 H 8.774891 7.849959 -10.936517 0
M  V30 42 H 10.094655 6.687967 -11.016875 0
M  V30 43 H 10.276540 9.088778 -9.590633 0
M  V30 44 H 11.246341 7.649853 -9.291646 0
M  V30 45 H 8.661489 8.434333 -7.917839 0
M  V30 46 H 10.887023 10.084638 -7.448723 0
M  V30 47 H 12.340128 10.635563 -5.559805 0
M  V30 48 H 12.707362 8.988287 -3.728595 0
M  V30 49 H 11.259139 5.737369 -3.773141 0
M  V30 50 H 10.172505 6.172424 -5.770497 0
M  V30 51 H 9.851249 5.635944 -8.014398 0
M  V30 52 H 8.233817 6.090371 -7.453019 0
M  V30 53 H 7.637913 6.679624 -9.582742 0
M  V30 END ATOM
M  V30 BEGIN BOND
M  V30 1 1 2 1
M  V30 2 1 3 2
M  V30 3 1 4 3
M  V30 4 1 5 4
M  V30 5 1 6 5
M  V30 6 1 7 6
M  V30 7 1 8 7
M  V30 8 1 9 8
M  V30 9 1 10 9
M  V30 10 1 11 10
M  V30 11 1 12 11
M  V30 12 1 13 12
M  V30 13 1 14 13
M  V30 14 2 15 14
M  V30 15 1 16 15
M  V30 16 2 17 16
M  V30 17 1 18 17
M  V30 18 1 19 18
M  V30 19 1 20 14
M  V30 20 2 20 18
M  V30 21 1 21 10
M  V30 22 1 21 13
M  V30 23 1 22 1
M  V30 24 1 23 1
M  V30 25 1 24 1
M  V30 26 1 25 2
M  V30 27 1 26 2
M  V30 28 1 27 3
M  V30 29 1 28 3
M  V30 30 1 29 4
M  V30 31 1 30 4
M  V30 32 1 31 5
M  V30 33 1 32 5
M  V30 34 1 33 6
M  V30 35 1 34 6
M  V30 36 1 35 7
M  V30 37 1 36 7
M  V30 38 1 37 8
M  V30 39 1 38 8
M  V30 40 1 39 9
M  V30 41 1 40 9
M  V30 42 1 41 11
M  V30 43 1 42 11
M  V30 44 1 43 12
M  V30 45 1 44 12
M  V30 46 1 13 45 CFG=1
M  V30 47 1 46 15
M  V30 48 1 47 16
M  V30 49 1 48 17
M  V30 50 1 49 19
M  V30 51 1 50 20
M  V30 52 1 51 21
M  V30 53 1 52 21
M  V30 54 1 10 53 CFG=1
M  V30 END BOND
M  V30 END CTAB
M  END
>  <b_m_subgroup_collapsed>  (2012) 
0

>  <r_i_docking_score>  (2012) 
-6.3518210271105398

>  <s_m_subgroup_title>  (2012) 
glide-dock_SP_D22_pv

>  <s_m_subgroupid>  (2012) 
glide-dock_SP_D22_pv

>  <Molecule ChEMBL ID>  (2012) 
CHEMBL4225278

>  <Standard Type>  (2012) 
Ki

>  <Standard Value>  (2012) 
42.0

>  <label>  (2012) 
1

$$$$
CHEMBL1744087
     RDKit          3D

  0  0  0  0  0  0  0  0  0  0999 V3000
M  V30 BEGIN CTAB
M  V30 COUNTS 52 55 0 0 1
M  V30 BEGIN ATOM
M  V30 1 C 11.739206 8.610991 -8.626786 0
M  V30 2 C 10.851526 8.748827 -7.631516 0
M  V30 3 C 11.172120 9.470757 -6.330523 0
M  V30 4 N 11.686054 8.617777 -5.252244 0
M  V30 5 C 10.989524 7.350483 -5.086412 0
M  V30 6 C 11.465175 6.572360 -3.847550 0
M  V30 7 O 11.471623 7.356271 -2.662502 0
M  V30 8 C 12.256894 8.520693 -2.807948 0
M  V30 9 C 11.747962 9.352754 -3.993375 0
M  V30 10 C 9.414377 8.283283 -7.846561 0
M  V30 11 O 9.302364 7.213258 -8.786029 0
M  V30 12 C 10.101558 7.281031 -9.906872 0
M  V30 13 C 11.342810 7.953784 -9.870340 0
M  V30 14 C 12.146785 8.006703 -11.023518 0
M  V30 15 C 11.722064 7.372336 -12.206861 0
M  V30 16 C 10.487127 6.696262 -12.244736 0
M  V30 17 C 9.672261 6.643539 -11.088830 0
M  V30 18 O 8.467716 5.987119 -11.026677 0
M  V30 19 C 7.684743 5.850515 -12.204326 0
M  V30 20 C 7.738759 4.389875 -12.669580 0 CFG=1
M  V30 21 C 6.451437 3.935669 -13.388241 0
M  V30 22 N 6.582232 2.536731 -13.847080 0 CHG=1
M  V30 23 C 7.802032 2.326488 -14.657353 0
M  V30 24 C 9.047473 2.869723 -13.932000 0
M  V30 25 O 8.828723 4.227432 -13.572466 0
M  V30 26 H 12.754255 8.970431 -8.530443 0
M  V30 27 H 11.899772 10.256282 -6.538584 0
M  V30 28 H 10.264995 9.978117 -6.002952 0
M  V30 29 H 9.917635 7.517401 -5.046970 0
M  V30 30 H 11.149737 6.721549 -5.963029 0
M  V30 31 H 10.765825 5.772271 -3.680606 0
M  V30 32 H 12.453872 6.143311 -4.004617 0
M  V30 33 H 12.222059 9.102292 -1.886001 0
M  V30 34 H 13.286032 8.219971 -2.963396 0
M  V30 35 H 12.441231 10.172275 -4.118682 0
M  V30 36 H 10.771372 9.773284 -3.750056 0
M  V30 37 H 8.963381 7.953373 -6.913407 0
M  V30 38 H 8.817648 9.128850 -8.191216 0
M  V30 39 H 13.089724 8.534810 -11.003847 0
M  V30 40 H 12.346699 7.404090 -13.087683 0
M  V30 41 H 10.195168 6.207467 -13.159730 0
M  V30 42 H 6.665329 6.094567 -11.903393 0
M  V30 43 H 7.934412 6.555932 -12.997863 0
M  V30 44 H 7.889801 3.772372 -11.785034 0
M  V30 45 H 5.591601 4.014795 -12.721403 0
M  V30 46 H 6.247412 4.572307 -14.247029 0
M  V30 47 H 5.768733 2.281972 -14.390000 0
M  V30 48 H 7.687205 2.833374 -15.614886 0
M  V30 49 H 7.917849 1.263511 -14.872661 0
M  V30 50 H 9.916869 2.814140 -14.587816 0
M  V30 51 H 9.287751 2.282658 -13.046779 0
M  V30 52 H 6.628149 1.936453 -13.035683 0
M  V30 END ATOM
M  V30 BEGIN BOND
M  V30 1 2 2 1
M  V30 2 1 3 2
M  V30 3 1 4 3
M  V30 4 1 5 4
M  V30 5 1 6 5
M  V30 6 1 7 6
M  V30 7 1 8 7
M  V30 8 1 9 4
M  V30 9 1 9 8
M  V30 10 1 10 2
M  V30 11 1 11 10
M  V30 12 1 12 11
M  V30 13 1 13 1
M  V30 14 2 13 12
M  V30 15 1 14 13
M  V30 16 2 15 14
M  V30 17 1 16 15
M  V30 18 1 17 12
M  V30 19 2 17 16
M  V30 20 1 18 17
M  V30 21 1 19 18
M  V30 22 1 20 19
M  V30 23 1 21 20
M  V30 24 1 22 21
M  V30 25 1 23 22
M  V30 26 1 24 23
M  V30 27 1 25 20
M  V30 28 1 25 24
M  V30 29 1 26 1
M  V30 30 1 27 3
M  V30 31 1 28 3
M  V30 32 1 29 5
M  V30 33 1 30 5
M  V30 34 1 31 6
M  V30 35 1 32 6
M  V30 36 1 33 8
M  V30 37 1 34 8
M  V30 38 1 35 9
M  V30 39 1 36 9
M  V30 40 1 37 10
M  V30 41 1 38 10
M  V30 42 1 39 14
M  V30 43 1 40 15
M  V30 44 1 41 16
M  V30 45 1 42 19
M  V30 46 1 43 19
M  V30 47 1 20 44 CFG=1
M  V30 48 1 45 21
M  V30 49 1 46 21
M  V30 50 1 47 22
M  V30 51 1 48 23
M  V30 52 1 49 23
M  V30 53 1 50 24
M  V30 54 1 51 24
M  V30 55 1 52 22
M  V30 END BOND
M  V30 END CTAB
M  END
>  <b_m_subgroup_collapsed>  (2013) 
0

>  <r_i_docking_score>  (2013) 
-6.3477259844615803

>  <s_m_subgroup_title>  (2013) 
glide-dock_SP_D22_pv

>  <s_m_subgroupid>  (2013) 
glide-dock_SP_D22_pv

>  <Molecule ChEMBL ID>  (2013) 
CHEMBL1744087

>  <Standard Type>  (2013) 
Ki

>  <Standard Value>  (2013) 
10000.0

>  <label>  (2013) 
0

$$$$
CHEMBL497550
     RDKit          3D

  0  0  0  0  0  0  0  0  0  0999 V3000
M  V30 BEGIN CTAB
M  V30 COUNTS 52 53 0 0 1
M  V30 BEGIN ATOM
M  V30 1 C 9.150129 5.999739 -7.650962 0
M  V30 2 C 8.993257 7.312609 -8.437859 0
M  V30 3 N 10.245389 7.948404 -8.890586 0
M  V30 4 C 10.811334 7.238499 -10.037416 0
M  V30 5 C 10.029894 7.504780 -11.337786 0
M  V30 6 C 10.488678 6.571422 -12.436296 0
M  V30 7 C 11.667647 6.837380 -13.162854 0
M  V30 8 C 12.087605 5.940594 -14.164664 0
M  V30 9 C 11.344873 4.772177 -14.429492 0
M  V30 10 C 10.164752 4.488151 -13.696535 0
M  V30 11 O 9.381136 3.365088 -13.870634 0
M  V30 12 C 9.671925 2.443586 -14.825659 0
M  V30 13 F 8.753415 1.449023 -14.785416 0
M  V30 14 F 9.619982 2.976211 -16.072134 0
M  V30 15 F 10.884114 1.868568 -14.629788 0
M  V30 16 C 9.748794 5.401470 -12.705286 0
M  V30 17 C 11.261325 8.072895 -7.845101 0
M  V30 18 C 10.773203 8.912407 -6.645051 0
M  V30 19 N 11.642118 8.779539 -5.450603 0 CHG=1
M  V30 20 C 11.332593 9.843666 -4.460822 0
M  V30 21 C 12.258750 9.764485 -3.242830 0
M  V30 22 C 12.148945 8.397699 -2.565261 0
M  V30 23 C 12.471026 7.301669 -3.579273 0
M  V30 24 C 11.599819 7.413623 -4.847837 0
M  V30 25 H 8.163889 5.581575 -7.445880 0
M  V30 26 H 9.708117 5.246308 -8.206839 0
M  V30 27 H 9.639037 6.152494 -6.690965 0
M  V30 28 H 8.426143 8.025166 -7.838222 0
M  V30 29 H 8.354438 7.101872 -9.286463 0
M  V30 30 H 10.867934 6.171580 -9.827519 0
M  V30 31 H 11.839302 7.562504 -10.203981 0
M  V30 32 H 10.163566 8.541228 -11.654710 0
M  V30 33 H 8.955985 7.375299 -11.223294 0
M  V30 34 H 12.251279 7.723048 -12.957641 0
M  V30 35 H 12.989070 6.145806 -14.724290 0
M  V30 36 H 11.705839 4.108315 -15.199741 0
M  V30 37 H 8.853840 5.191252 -12.138007 0
M  V30 38 H 11.567640 7.071025 -7.555315 0
M  V30 39 H 12.149702 8.550872 -8.259762 0
M  V30 40 H 10.731836 9.955878 -6.957771 0
M  V30 41 H 9.763048 8.651206 -6.330191 0
M  V30 42 H 11.421952 10.817959 -4.943135 0
M  V30 43 H 10.300099 9.772450 -4.133198 0
M  V30 44 H 13.286255 9.933382 -3.555556 0
M  V30 45 H 12.019665 10.558675 -2.538560 0
M  V30 46 H 12.827216 8.341168 -1.711869 0
M  V30 47 H 11.144949 8.243796 -2.177561 0
M  V30 48 H 13.523149 7.373116 -3.846477 0
M  V30 49 H 12.335711 6.318667 -3.123533 0
M  V30 50 H 10.564941 7.141728 -4.645168 0
M  V30 51 H 11.960089 6.665868 -5.551275 0
M  V30 52 H 12.591659 8.948811 -5.752764 0
M  V30 END ATOM
M  V30 BEGIN BOND
M  V30 1 1 2 1
M  V30 2 1 3 2
M  V30 3 1 4 3
M  V30 4 1 5 4
M  V30 5 1 6 5
M  V30 6 1 7 6
M  V30 7 2 8 7
M  V30 8 1 9 8
M  V30 9 2 10 9
M  V30 10 1 11 10
M  V30 11 1 12 11
M  V30 12 1 13 12
M  V30 13 1 14 12
M  V30 14 1 15 12
M  V30 15 2 16 6
M  V30 16 1 16 10
M  V30 17 1 17 3
M  V30 18 1 18 17
M  V30 19 1 19 18
M  V30 20 1 20 19
M  V30 21 1 21 20
M  V30 22 1 22 21
M  V30 23 1 23 22
M  V30 24 1 24 19
M  V30 25 1 24 23
M  V30 26 1 25 1
M  V30 27 1 26 1
M  V30 28 1 27 1
M  V30 29 1 28 2
M  V30 30 1 29 2
M  V30 31 1 30 4
M  V30 32 1 31 4
M  V30 33 1 32 5
M  V30 34 1 33 5
M  V30 35 1 34 7
M  V30 36 1 35 8
M  V30 37 1 36 9
M  V30 38 1 37 16
M  V30 39 1 38 17
M  V30 40 1 39 17
M  V30 41 1 40 18
M  V30 42 1 41 18
M  V30 43 1 42 20
M  V30 44 1 43 20
M  V30 45 1 44 21
M  V30 46 1 45 21
M  V30 47 1 46 22
M  V30 48 1 47 22
M  V30 49 1 48 23
M  V30 50 1 49 23
M  V30 51 1 50 24
M  V30 52 1 51 24
M  V30 53 1 52 19
M  V30 END BOND
M  V30 END CTAB
M  END
>  <b_m_subgroup_collapsed>  (2014) 
0

>  <r_i_docking_score>  (2014) 
-6.34348300995459

>  <s_m_subgroup_title>  (2014) 
glide-dock_SP_D22_pv

>  <s_m_subgroupid>  (2014) 
glide-dock_SP_D22_pv

>  <Molecule ChEMBL ID>  (2014) 
CHEMBL497550

>  <Standard Type>  (2014) 
Ki

>  <Standard Value>  (2014) 
10000.0

>  <label>  (2014) 
0

$$$$
CHEMBL555362
     RDKit          3D

  0  0  0  0  0  0  0  0  0  0999 V3000
M  V30 BEGIN CTAB
M  V30 COUNTS 47 50 0 0 1
M  V30 BEGIN ATOM
M  V30 1 C 11.316817 9.212689 -4.668218 0
M  V30 2 C 10.681365 9.298850 -5.847750 0
M  V30 3 C 9.841989 8.181442 -6.448336 0
M  V30 4 N 10.323583 7.729067 -7.756901 0
M  V30 5 C 9.543116 6.551604 -8.155174 0
M  V30 6 C 9.749281 6.139512 -9.604218 0
M  V30 7 C 10.356335 6.908229 -10.533154 0
M  V30 8 C 10.487568 6.471046 -11.932777 0
M  V30 9 C 11.547257 6.942814 -12.642522 0
M  V30 10 C 11.955523 6.681669 -14.036457 0
M  V30 11 C 12.575211 7.728037 -14.753817 0
M  V30 12 C 12.947711 7.558992 -16.101797 0
M  V30 13 C 12.708058 6.332295 -16.745880 0
M  V30 14 C 12.105865 5.275730 -16.039873 0
M  V30 15 C 11.732660 5.448939 -14.689721 0
M  V30 16 C 11.145638 4.293372 -13.919874 0
M  V30 17 C 9.724878 4.572475 -13.480879 0
M  V30 18 C 8.690827 3.754101 -13.988154 0
M  V30 19 C 7.360347 3.944733 -13.577206 0
M  V30 20 C 7.055943 4.967411 -12.664756 0
M  V30 21 C 8.083559 5.783793 -12.160689 0
M  V30 22 C 9.436555 5.599877 -12.542116 0
M  V30 23 C 10.880280 8.266116 -10.089469 0
M  V30 24 C 10.231580 8.764783 -8.786077 0
M  V30 25 H 11.279632 8.313425 -4.068013 0
M  V30 26 H 11.892817 10.045043 -4.289629 0
M  V30 27 H 10.757745 10.215217 -6.414312 0
M  V30 28 H 9.837343 7.339397 -5.753943 0
M  V30 29 H 8.809143 8.526872 -6.528464 0
M  V30 30 H 9.796657 5.713491 -7.506397 0
M  V30 31 H 8.478286 6.742792 -8.023672 0
M  V30 32 H 9.350806 5.170643 -9.868956 0
M  V30 33 H 12.256827 7.572782 -12.128790 0
M  V30 34 H 12.761256 8.675469 -14.272386 0
M  V30 35 H 13.413208 8.371792 -16.639015 0
M  V30 36 H 12.995635 6.199120 -17.779341 0
M  V30 37 H 11.936672 4.330468 -16.535151 0
M  V30 38 H 11.196447 3.375610 -14.510373 0
M  V30 39 H 11.772884 4.133111 -13.047235 0
M  V30 40 H 8.918912 2.966252 -14.691100 0
M  V30 41 H 6.576115 3.309446 -13.965837 0
M  V30 42 H 6.036015 5.128468 -12.345303 0
M  V30 43 H 7.810700 6.569393 -11.470043 0
M  V30 44 H 11.960620 8.202205 -9.956736 0
M  V30 45 H 10.694774 8.978958 -10.888100 0
M  V30 46 H 9.184176 9.029711 -8.954514 0
M  V30 47 H 10.752727 9.666233 -8.473126 0
M  V30 END ATOM
M  V30 BEGIN BOND
M  V30 1 2 2 1
M  V30 2 1 3 2
M  V30 3 1 4 3
M  V30 4 1 5 4
M  V30 5 1 6 5
M  V30 6 2 7 6
M  V30 7 1 8 7
M  V30 8 2 9 8
M  V30 9 1 10 9
M  V30 10 2 11 10
M  V30 11 1 12 11
M  V30 12 2 13 12
M  V30 13 1 14 13
M  V30 14 1 15 10
M  V30 15 2 15 14
M  V30 16 1 16 15
M  V30 17 1 17 16
M  V30 18 2 18 17
M  V30 19 1 19 18
M  V30 20 2 20 19
M  V30 21 1 21 20
M  V30 22 1 22 8
M  V30 23 1 22 17
M  V30 24 2 22 21
M  V30 25 1 23 7
M  V30 26 1 24 4
M  V30 27 1 24 23
M  V30 28 1 25 1
M  V30 29 1 26 1
M  V30 30 1 27 2
M  V30 31 1 28 3
M  V30 32 1 29 3
M  V30 33 1 30 5
M  V30 34 1 31 5
M  V30 35 1 32 6
M  V30 36 1 33 9
M  V30 37 1 34 11
M  V30 38 1 35 12
M  V30 39 1 36 13
M  V30 40 1 37 14
M  V30 41 1 38 16
M  V30 42 1 39 16
M  V30 43 1 40 18
M  V30 44 1 41 19
M  V30 45 1 42 20
M  V30 46 1 43 21
M  V30 47 1 44 23
M  V30 48 1 45 23
M  V30 49 1 46 24
M  V30 50 1 47 24
M  V30 END BOND
M  V30 END CTAB
M  END
>  <b_m_subgroup_collapsed>  (2015) 
0

>  <r_i_docking_score>  (2015) 
-6.34221890281058

>  <s_m_subgroup_title>  (2015) 
glide-dock_SP_D22_pv

>  <s_m_subgroupid>  (2015) 
glide-dock_SP_D22_pv

>  <Molecule ChEMBL ID>  (2015) 
CHEMBL555362

>  <Standard Type>  (2015) 
Ki

>  <Standard Value>  (2015) 
83.0

>  <label>  (2015) 
1

$$$$
CHEMBL10270
     RDKit          3D

  0  0  0  0  0  0  0  0  0  0999 V3000
M  V30 BEGIN CTAB
M  V30 COUNTS 40 42 0 0 1
M  V30 BEGIN ATOM
M  V30 1 C 10.218376 7.257939 -6.078129 0
M  V30 2 C 9.170311 7.058689 -6.891971 0
M  V30 3 C 9.230973 6.241995 -8.167018 0
M  V30 4 N 8.886023 7.062320 -9.356572 0 CFG=1 CHG=1
M  V30 5 C 9.735400 8.266946 -9.582623 0
M  V30 6 C 10.302346 8.153116 -11.013177 0
M  V30 7 C 10.192492 6.649782 -11.258821 0 CFG=2
M  V30 8 C 10.389014 6.033413 -12.646865 0
M  V30 9 C 9.532435 4.979096 -13.063993 0
M  V30 10 C 9.715722 4.369889 -14.320043 0
M  V30 11 C 10.769155 4.774459 -15.153481 0
M  V30 12 C 11.651423 5.780392 -14.726545 0
M  V30 13 C 11.475881 6.411998 -13.468156 0
M  V30 14 O 12.332587 7.372327 -12.990283 0
M  V30 15 C 13.135669 8.052790 -13.936097 0
M  V30 16 C 8.421086 4.451912 -12.166849 0
M  V30 17 C 8.574895 4.853766 -10.691250 0
M  V30 18 C 8.849169 6.356324 -10.655200 0 CFG=1
M  V30 19 H 11.187157 6.830573 -6.293150 0
M  V30 20 H 10.122837 7.851593 -5.182703 0
M  V30 21 H 8.211186 7.496356 -6.646868 0
M  V30 22 H 10.221697 5.800059 -8.284913 0
M  V30 23 H 8.518679 5.423537 -8.059599 0
M  V30 24 H 9.148532 9.177668 -9.456522 0
M  V30 25 H 10.559205 8.305002 -8.868599 0
M  V30 26 H 9.682499 8.703698 -11.722594 0
M  V30 27 H 11.320604 8.537929 -11.065355 0
M  V30 28 H 10.886023 6.172325 -10.588551 0
M  V30 29 H 9.058163 3.574667 -14.640369 0
M  V30 30 H 10.914455 4.298613 -16.112120 0
M  V30 31 H 12.464684 6.040042 -15.385822 0
M  V30 32 H 13.686022 8.847034 -13.432549 0
M  V30 33 H 13.851519 7.372324 -14.394589 0
M  V30 34 H 12.527760 8.512444 -14.716795 0
M  V30 35 H 7.469038 4.818111 -12.553569 0
M  V30 36 H 8.401881 3.372325 -12.261964 0
M  V30 37 H 7.686022 4.587676 -10.131370 0
M  V30 38 H 9.404114 4.303888 -10.243124 0
M  V30 39 H 8.086022 6.851333 -11.258909 0
M  V30 40 H 7.921155 7.372324 -9.235688 0
M  V30 END ATOM
M  V30 BEGIN BOND
M  V30 1 2 2 1
M  V30 2 1 3 2
M  V30 3 1 4 3
M  V30 4 1 5 4
M  V30 5 1 6 5
M  V30 6 1 7 6
M  V30 7 1 8 7
M  V30 8 2 9 8
M  V30 9 1 10 9
M  V30 10 2 11 10
M  V30 11 1 12 11
M  V30 12 1 13 8
M  V30 13 2 13 12
M  V30 14 1 14 13
M  V30 15 1 15 14
M  V30 16 1 16 9
M  V30 17 1 17 16
M  V30 18 1 18 4
M  V30 19 1 18 7
M  V30 20 1 18 17
M  V30 21 1 19 1
M  V30 22 1 20 1
M  V30 23 1 21 2
M  V30 24 1 22 3
M  V30 25 1 23 3
M  V30 26 1 24 5
M  V30 27 1 25 5
M  V30 28 1 26 6
M  V30 29 1 27 6
M  V30 30 1 7 28 CFG=1
M  V30 31 1 29 10
M  V30 32 1 30 11
M  V30 33 1 31 12
M  V30 34 1 32 15
M  V30 35 1 33 15
M  V30 36 1 34 15
M  V30 37 1 35 16
M  V30 38 1 36 16
M  V30 39 1 37 17
M  V30 40 1 38 17
M  V30 41 1 18 39 CFG=3
M  V30 42 1 4 40 CFG=1
M  V30 END BOND
M  V30 END CTAB
M  END
>  <b_m_subgroup_collapsed>  (2016) 
0

>  <r_i_docking_score>  (2016) 
-6.3418661868815001

>  <s_m_subgroup_title>  (2016) 
glide-dock_SP_D22_pv

>  <s_m_subgroupid>  (2016) 
glide-dock_SP_D22_pv

>  <Molecule ChEMBL ID>  (2016) 
CHEMBL10270

>  <Standard Type>  (2016) 
Ki

>  <Standard Value>  (2016) 
6.7

>  <label>  (2016) 
1

$$$$
CHEMBL201575
     RDKit          3D

  0  0  0  0  0  0  0  0  0  0999 V3000
M  V30 BEGIN CTAB
M  V30 COUNTS 33 33 0 0 1
M  V30 BEGIN ATOM
M  V30 1 C 8.788327 4.539731 -8.872863 0
M  V30 2 C 8.455718 5.772810 -8.026764 0
M  V30 3 O 9.651078 6.189052 -7.399626 0
M  V30 4 C 9.751793 7.410804 -6.856005 0
M  V30 5 O 8.836901 8.201513 -6.646887 0
M  V30 6 C 11.212288 7.793672 -6.621786 0 CFG=1
M  V30 7 C 11.749238 8.859612 -7.631095 0
M  V30 8 C 11.047376 8.967602 -9.010035 0
M  V30 9 C 10.959280 7.662744 -9.823265 0
M  V30 10 Br 12.086086 7.772301 -11.446791 0
M  V30 11 C 11.482538 8.068138 -5.139485 0
M  V30 12 C 11.755873 6.972671 -4.288998 0
M  V30 13 C 12.071906 7.172777 -2.931778 0
M  V30 14 C 12.086098 8.475936 -2.403242 0
M  V30 15 C 11.775241 9.570753 -3.230646 0
M  V30 16 C 11.468834 9.371997 -4.590186 0
M  V30 17 H 7.935258 4.224368 -9.470062 0
M  V30 18 H 9.606345 4.746330 -9.563087 0
M  V30 19 H 9.080677 3.697326 -8.247169 0
M  V30 20 H 7.686150 5.555284 -7.286167 0
M  V30 21 H 8.086033 6.569631 -8.673137 0
M  V30 22 H 11.775382 6.886893 -6.846508 0
M  V30 23 H 11.683471 9.854079 -7.199624 0
M  V30 24 H 12.815008 8.687384 -7.786939 0
M  V30 25 H 10.036897 9.353349 -8.864533 0
M  V30 26 H 11.544154 9.734020 -9.606313 0
M  V30 27 H 11.286098 6.786798 -9.266792 0
M  V30 28 H 9.935369 7.482548 -10.155611 0
M  V30 29 H 11.746447 5.966968 -4.684581 0
M  V30 30 H 12.292057 6.325579 -2.298046 0
M  V30 31 H 12.318376 8.637177 -1.360801 0
M  V30 32 H 11.769902 10.569180 -2.817187 0
M  V30 33 H 11.222924 10.235005 -5.188880 0
M  V30 END ATOM
M  V30 BEGIN BOND
M  V30 1 1 2 1
M  V30 2 1 3 2
M  V30 3 1 4 3
M  V30 4 2 5 4
M  V30 5 1 6 4
M  V30 6 1 7 6
M  V30 7 1 8 7
M  V30 8 1 9 8
M  V30 9 1 10 9
M  V30 10 1 11 6
M  V30 11 2 12 11
M  V30 12 1 13 12
M  V30 13 2 14 13
M  V30 14 1 15 14
M  V30 15 1 16 11
M  V30 16 2 16 15
M  V30 17 1 17 1
M  V30 18 1 18 1
M  V30 19 1 19 1
M  V30 20 1 20 2
M  V30 21 1 21 2
M  V30 22 1 6 22 CFG=3
M  V30 23 1 23 7
M  V30 24 1 24 7
M  V30 25 1 25 8
M  V30 26 1 26 8
M  V30 27 1 27 9
M  V30 28 1 28 9
M  V30 29 1 29 12
M  V30 30 1 30 13
M  V30 31 1 31 14
M  V30 32 1 32 15
M  V30 33 1 33 16
M  V30 END BOND
M  V30 END CTAB
M  END
>  <b_m_subgroup_collapsed>  (2017) 
0

>  <r_i_docking_score>  (2017) 
-6.3415748660486697

>  <s_m_subgroup_title>  (2017) 
glide-dock_SP_D22_pv

>  <s_m_subgroupid>  (2017) 
glide-dock_SP_D22_pv

>  <Molecule ChEMBL ID>  (2017) 
CHEMBL201575

>  <Standard Type>  (2017) 
Ki

>  <Standard Value>  (2017) 
10000.0

>  <label>  (2017) 
0

$$$$
CHEMBL1201343
     RDKit          3D

  0  0  0  0  0  0  0  0  0  0999 V3000
M  V30 BEGIN CTAB
M  V30 COUNTS 35 36 0 0 1
M  V30 BEGIN ATOM
M  V30 1 C 9.524191 5.161690 -11.015914 0
M  V30 2 C 8.296150 5.352179 -10.125218 0
M  V30 3 C 8.594953 5.528465 -8.622669 0
M  V30 4 N 8.886059 6.930842 -8.236638 0 CHG=1
M  V30 5 C 10.311880 7.350996 -8.179265 0 CFG=1
M  V30 6 C 10.428960 8.906014 -8.115983 0
M  V30 7 C 10.298536 9.500616 -6.689679 0
M  V30 8 C 11.274768 8.790415 -5.775196 0 CFG=1
M  V30 9 N 11.422078 9.316686 -4.412727 0 CHG=1
M  V30 10 C 11.779786 8.382260 -3.517815 0
M  V30 11 N 12.183785 8.547937 -2.252314 0
M  V30 12 S 11.686130 6.731887 -4.209831 0
M  V30 13 C 10.849564 7.333004 -5.681663 0 CFG=2
M  V30 14 C 11.114949 6.655856 -7.036561 0
M  V30 15 H 9.220674 4.993477 -12.050118 0
M  V30 16 H 10.086005 4.284115 -10.699083 0
M  V30 17 H 10.178806 6.030694 -11.009744 0
M  V30 18 H 7.686322 6.170673 -10.502303 0
M  V30 19 H 7.686138 4.456804 -10.246295 0
M  V30 20 H 7.688032 5.267563 -8.075574 0
M  V30 21 H 9.353086 4.822682 -8.286875 0
M  V30 22 H 8.379699 7.500150 -8.906425 0
M  V30 23 H 10.754340 7.043454 -9.124923 0
M  V30 24 H 11.406636 9.189320 -8.510016 0
M  V30 25 H 9.703174 9.371746 -8.785047 0
M  V30 26 H 10.487956 10.572105 -6.647006 0
M  V30 27 H 9.284765 9.347602 -6.327947 0
M  V30 28 H 12.272188 8.859882 -6.211653 0
M  V30 29 H 12.286385 9.469037 -1.845647 0
M  V30 30 H 12.393190 7.733805 -1.693218 0
M  V30 31 H 9.784514 7.264688 -5.454122 0
M  V30 32 H 10.913165 5.591969 -6.996309 0
M  V30 33 H 12.175700 6.732887 -7.266698 0
M  V30 34 H 11.480232 10.308805 -4.233232 0
M  V30 35 H 8.440958 7.096235 -7.344365 0
M  V30 END ATOM
M  V30 BEGIN BOND
M  V30 1 1 2 1
M  V30 2 1 3 2
M  V30 3 1 4 3
M  V30 4 1 5 4
M  V30 5 1 6 5
M  V30 6 1 7 6
M  V30 7 1 8 7
M  V30 8 1 9 8
M  V30 9 2 10 9
M  V30 10 1 11 10
M  V30 11 1 12 10
M  V30 12 1 13 8
M  V30 13 1 13 12
M  V30 14 1 14 5
M  V30 15 1 14 13
M  V30 16 1 15 1
M  V30 17 1 16 1
M  V30 18 1 17 1
M  V30 19 1 18 2
M  V30 20 1 19 2
M  V30 21 1 20 3
M  V30 22 1 21 3
M  V30 23 1 22 4
M  V30 24 1 5 23 CFG=3
M  V30 25 1 24 6
M  V30 26 1 25 6
M  V30 27 1 26 7
M  V30 28 1 27 7
M  V30 29 1 8 28 CFG=3
M  V30 30 1 29 11
M  V30 31 1 30 11
M  V30 32 1 13 31 CFG=1
M  V30 33 1 32 14
M  V30 34 1 33 14
M  V30 35 1 34 9
M  V30 36 1 35 4
M  V30 END BOND
M  V30 END CTAB
M  END
>  <b_m_subgroup_collapsed>  (2018) 
0

>  <r_i_docking_score>  (2018) 
-6.3407108821294802

>  <s_m_subgroup_title>  (2018) 
glide-dock_SP_D22_pv

>  <s_m_subgroupid>  (2018) 
glide-dock_SP_D22_pv

>  <Molecule ChEMBL ID>  (2018) 
CHEMBL1201343

>  <Standard Type>  (2018) 
Ki

>  <Standard Value>  (2018) 
3.9

>  <label>  (2018) 
1

$$$$
CHEMBL3084505
     RDKit          3D

  0  0  0  0  0  0  0  0  0  0999 V3000
M  V30 BEGIN CTAB
M  V30 COUNTS 50 54 0 0 1
M  V30 BEGIN ATOM
M  V30 1 O 8.196698 -0.627651 -17.444857 0
M  V30 2 C 8.042738 0.400322 -16.486135 0 CFG=1
M  V30 3 C 6.735878 0.173967 -15.697293 0
M  V30 4 C 5.726869 -0.696195 -16.188969 0
M  V30 5 C 4.561945 -0.956387 -15.441996 0
M  V30 6 C 4.373791 -0.333125 -14.198125 0
M  V30 7 F 3.286160 -0.627043 -13.447217 0
M  V30 8 C 5.338244 0.571685 -13.716531 0
M  V30 9 C 6.504257 0.831616 -14.464441 0
M  V30 10 C 9.321821 0.339350 -15.582635 0
M  V30 11 C 10.575071 1.041736 -16.184305 0 CFG=1
M  V30 12 C 10.991421 0.448496 -17.542852 0
M  V30 13 C 10.185083 1.270396 -18.578085 0
M  V30 14 C 9.379250 2.272922 -17.728329 0 CFG=1
M  V30 15 C 7.988188 1.736259 -17.277748 0
M  V30 16 N 10.272573 2.431080 -16.569185 0 CFG=1 CHG=1
M  V30 17 C 9.935974 3.429325 -15.527532 0
M  V30 18 C 11.077707 4.394298 -15.417064 0
M  V30 19 C 11.959223 4.496647 -14.369799 0
M  V30 20 N 12.885970 5.486000 -14.647408 0
M  V30 21 C 12.640861 6.050257 -15.880388 0
M  V30 22 C 13.293421 7.065481 -16.602137 0
M  V30 23 C 12.816200 7.427691 -17.873449 0
M  V30 24 C 11.685853 6.778358 -18.404970 0
M  V30 25 C 11.026362 5.772972 -17.667440 0
M  V30 26 C 11.491039 5.375967 -16.390129 0
M  V30 27 H 8.083578 -1.449564 -16.982489 0
M  V30 28 H 5.837053 -1.205036 -17.134951 0
M  V30 29 H 3.822017 -1.650499 -15.816271 0
M  V30 30 H 5.188485 1.061634 -12.765439 0
M  V30 31 H 7.218256 1.535237 -14.066619 0
M  V30 32 H 9.138849 0.802784 -14.617581 0
M  V30 33 H 9.558242 -0.696742 -15.336259 0
M  V30 34 H 11.399426 1.008274 -15.470857 0
M  V30 35 H 10.806480 -0.623758 -17.609589 0
M  V30 36 H 12.059962 0.596998 -17.705790 0
M  V30 37 H 9.554333 0.656771 -19.222399 0
M  V30 38 H 10.875191 1.803918 -19.232689 0
M  V30 39 H 9.257015 3.215595 -18.261898 0
M  V30 40 H 7.327196 1.629299 -18.138968 0
M  V30 41 H 7.514530 2.494544 -16.654623 0
M  V30 42 H 9.028419 3.970901 -15.790119 0
M  V30 43 H 9.743005 2.951184 -14.568549 0
M  V30 44 H 12.003774 3.940659 -13.446046 0
M  V30 45 H 13.631120 5.756133 -14.009879 0
M  V30 46 H 14.154627 7.563106 -16.185280 0
M  V30 47 H 13.304827 8.211966 -18.435320 0
M  V30 48 H 11.313733 7.067840 -19.377035 0
M  V30 49 H 10.150114 5.310072 -18.092316 0
M  V30 50 H 11.135946 2.785299 -16.957130 0
M  V30 END ATOM
M  V30 BEGIN BOND
M  V30 1 1 2 1 CFG=3
M  V30 2 1 3 2
M  V30 3 1 4 3
M  V30 4 2 5 4
M  V30 5 1 6 5
M  V30 6 1 7 6
M  V30 7 2 8 6
M  V30 8 2 9 3
M  V30 9 1 9 8
M  V30 10 1 10 2
M  V30 11 1 11 10
M  V30 12 1 12 11
M  V30 13 1 13 12
M  V30 14 1 14 13
M  V30 15 1 15 2
M  V30 16 1 15 14
M  V30 17 1 16 11
M  V30 18 1 16 14
M  V30 19 1 17 16
M  V30 20 1 18 17
M  V30 21 2 19 18
M  V30 22 1 20 19
M  V30 23 1 21 20
M  V30 24 2 22 21
M  V30 25 1 23 22
M  V30 26 2 24 23
M  V30 27 1 25 24
M  V30 28 1 26 18
M  V30 29 1 26 21
M  V30 30 2 26 25
M  V30 31 1 27 1
M  V30 32 1 28 4
M  V30 33 1 29 5
M  V30 34 1 30 8
M  V30 35 1 31 9
M  V30 36 1 32 10
M  V30 37 1 33 10
M  V30 38 1 11 34 CFG=1
M  V30 39 1 35 12
M  V30 40 1 36 12
M  V30 41 1 37 13
M  V30 42 1 38 13
M  V30 43 1 14 39 CFG=3
M  V30 44 1 40 15
M  V30 45 1 41 15
M  V30 46 1 42 17
M  V30 47 1 43 17
M  V30 48 1 44 19
M  V30 49 1 45 20
M  V30 50 1 46 22
M  V30 51 1 47 23
M  V30 52 1 48 24
M  V30 53 1 49 25
M  V30 54 1 16 50 CFG=3
M  V30 END BOND
M  V30 END CTAB
M  END
>  <b_m_subgroup_collapsed>  (2019) 
0

>  <r_i_docking_score>  (2019) 
-6.3395357113755404

>  <s_m_subgroup_title>  (2019) 
glide-dock_SP_D22_pv

>  <s_m_subgroupid>  (2019) 
glide-dock_SP_D22_pv

>  <Molecule ChEMBL ID>  (2019) 
CHEMBL3084505

>  <Standard Type>  (2019) 
Ki

>  <Standard Value>  (2019) 
41.4

>  <label>  (2019) 
1

$$$$
CHEMBL43819
     RDKit          3D

  0  0  0  0  0  0  0  0  0  0999 V3000
M  V30 BEGIN CTAB
M  V30 COUNTS 45 48 0 0 1
M  V30 BEGIN ATOM
M  V30 1 C 8.590323 5.324859 -8.548306 0
M  V30 2 N 8.748045 6.163368 -9.757433 0 CFG=1 CHG=1
M  V30 3 C 9.628356 7.322195 -9.478856 0
M  V30 4 C 9.814326 8.195118 -10.722490 0
M  V30 5 C 10.357420 7.355010 -11.882568 0
M  V30 6 C 9.391713 6.201592 -12.217380 0 CFG=1
M  V30 7 C 9.774405 5.371878 -13.450184 0
M  V30 8 C 9.006794 4.383268 -14.056033 0
M  V30 9 C 7.706448 3.768732 -13.759398 0
M  V30 10 C 6.726425 4.432890 -12.992471 0
M  V30 11 C 5.553986 3.779435 -12.592555 0
M  V30 12 C 5.285682 2.467142 -13.015183 0
M  V30 13 C 6.210640 1.812055 -13.846747 0
M  V30 14 C 7.404277 2.459724 -14.221064 0
M  V30 15 N 9.679790 3.905847 -15.164363 0
M  V30 16 C 10.876764 4.541214 -15.341894 0
M  V30 17 C 11.866016 4.383718 -16.329388 0
M  V30 18 C 13.012814 5.190991 -16.292555 0
M  V30 19 C 13.148452 6.141229 -15.268246 0
M  V30 20 C 12.155620 6.276501 -14.275590 0
M  V30 21 C 10.977774 5.480869 -14.273344 0
M  V30 22 C 9.177836 5.352188 -10.934158 0
M  V30 23 H 9.564054 5.049519 -8.139071 0
M  V30 24 H 8.034996 5.856689 -7.773661 0
M  V30 25 H 8.072421 4.393924 -8.772455 0
M  V30 26 H 10.601590 6.969271 -9.131348 0
M  V30 27 H 9.194410 7.918071 -8.672518 0
M  V30 28 H 10.506442 9.007388 -10.496971 0
M  V30 29 H 8.864413 8.657777 -11.001284 0
M  V30 30 H 11.339464 6.971325 -11.607957 0
M  V30 31 H 10.486578 8.005898 -12.744336 0
M  V30 32 H 8.456172 6.707048 -12.448178 0
M  V30 33 H 6.859989 5.441824 -12.649821 0
M  V30 34 H 4.885072 4.301836 -11.932117 0
M  V30 35 H 4.380301 1.967769 -12.707832 0
M  V30 36 H 6.013757 0.804029 -14.184116 0
M  V30 37 H 8.110304 1.905477 -14.822282 0
M  V30 38 H 9.310932 3.173328 -15.751058 0
M  V30 39 H 11.744357 3.654641 -17.116997 0
M  V30 40 H 13.783830 5.081886 -17.041958 0
M  V30 41 H 14.031727 6.762664 -15.227428 0
M  V30 42 H 12.336147 7.016870 -13.517018 0
M  V30 43 H 8.437484 4.573511 -11.093257 0
M  V30 44 H 10.087228 4.817348 -10.680385 0
M  V30 45 H 7.835139 6.562092 -9.971750 0
M  V30 END ATOM
M  V30 BEGIN BOND
M  V30 1 1 2 1
M  V30 2 1 3 2
M  V30 3 1 4 3
M  V30 4 1 5 4
M  V30 5 1 6 5
M  V30 6 1 7 6
M  V30 7 2 8 7
M  V30 8 1 9 8
M  V30 9 2 10 9
M  V30 10 1 11 10
M  V30 11 2 12 11
M  V30 12 1 13 12
M  V30 13 1 14 9
M  V30 14 2 14 13
M  V30 15 1 15 8
M  V30 16 1 16 15
M  V30 17 2 17 16
M  V30 18 1 18 17
M  V30 19 2 19 18
M  V30 20 1 20 19
M  V30 21 1 21 7
M  V30 22 1 21 16
M  V30 23 2 21 20
M  V30 24 1 22 2
M  V30 25 1 22 6
M  V30 26 1 23 1
M  V30 27 1 24 1
M  V30 28 1 25 1
M  V30 29 1 26 3
M  V30 30 1 27 3
M  V30 31 1 28 4
M  V30 32 1 29 4
M  V30 33 1 30 5
M  V30 34 1 31 5
M  V30 35 1 6 32 CFG=3
M  V30 36 1 33 10
M  V30 37 1 34 11
M  V30 38 1 35 12
M  V30 39 1 36 13
M  V30 40 1 37 14
M  V30 41 1 38 15
M  V30 42 1 39 17
M  V30 43 1 40 18
M  V30 44 1 41 19
M  V30 45 1 42 20
M  V30 46 1 43 22
M  V30 47 1 44 22
M  V30 48 1 2 45 CFG=3
M  V30 END BOND
M  V30 END CTAB
M  END
>  <b_m_subgroup_collapsed>  (2020) 
0

>  <r_i_docking_score>  (2020) 
-6.3392448647175197

>  <s_m_subgroup_title>  (2020) 
glide-dock_SP_D22_pv

>  <s_m_subgroupid>  (2020) 
glide-dock_SP_D22_pv

>  <Molecule ChEMBL ID>  (2020) 
CHEMBL43819

>  <Standard Type>  (2020) 
Ki

>  <Standard Value>  (2020) 
28.0

>  <label>  (2020) 
1

$$$$
CHEMBL3104092
     RDKit          3D

  0  0  0  0  0  0  0  0  0  0999 V3000
M  V30 BEGIN CTAB
M  V30 COUNTS 43 47 0 0 1
M  V30 BEGIN ATOM
M  V30 1 C 7.292162 0.814989 -15.100045 0
M  V30 2 N 7.699557 1.954199 -14.247290 0 CFG=2 CHG=1
M  V30 3 C 6.548563 2.819812 -13.846286 0
M  V30 4 C 6.929926 3.829340 -12.735406 0
M  V30 5 C 8.293390 4.385256 -12.985207 0
M  V30 6 C 9.159613 3.902727 -13.945045 0
M  V30 7 C 10.252674 4.796681 -13.856052 0
M  V30 8 C 11.372788 4.779015 -14.679996 0
M  V30 9 C 12.342252 5.782913 -14.501664 0
M  V30 10 C 12.182498 6.753907 -13.497988 0
M  V30 11 C 11.061936 6.728850 -12.647617 0
M  V30 12 C 10.073039 5.727129 -12.861300 0
M  V30 13 N 8.890458 5.445842 -12.293806 0
M  V30 14 C 8.346004 6.248095 -11.218861 0
M  V30 15 C 9.285141 6.429647 -10.040864 0
M  V30 16 C 8.933998 5.921294 -8.772534 0
M  V30 17 C 9.731070 6.212300 -7.652040 0
M  V30 18 C 10.891115 6.993885 -7.797263 0
M  V30 19 C 11.263396 7.475472 -9.067760 0
M  V30 20 C 10.456446 7.195439 -10.192108 0
M  V30 21 C 10.802467 7.761304 -11.555097 0
M  V30 22 C 8.839897 2.726043 -14.820905 0
M  V30 23 H 6.873166 1.165420 -16.044708 0
M  V30 24 H 6.540865 0.207648 -14.594855 0
M  V30 25 H 8.143582 0.168787 -15.316132 0
M  V30 26 H 6.201443 3.361863 -14.725780 0
M  V30 27 H 5.707232 2.212960 -13.508322 0
M  V30 28 H 6.194493 4.633791 -12.713233 0
M  V30 29 H 6.884822 3.372457 -11.748689 0
M  V30 30 H 11.501885 4.044025 -15.459252 0
M  V30 31 H 13.218948 5.810866 -15.135059 0
M  V30 32 H 12.937178 7.516942 -13.374717 0
M  V30 33 H 8.085560 7.225730 -11.621758 0
M  V30 34 H 7.421701 5.777452 -10.870915 0
M  V30 35 H 8.028971 5.349393 -8.647428 0
M  V30 36 H 9.441732 5.855923 -6.676725 0
M  V30 37 H 11.504083 7.220974 -6.933280 0
M  V30 38 H 12.159832 8.071590 -9.172086 0
M  V30 39 H 11.701707 8.365346 -11.445809 0
M  V30 40 H 10.020089 8.448601 -11.879848 0
M  V30 41 H 9.705262 2.071741 -14.902777 0
M  V30 42 H 8.592798 3.057392 -15.829029 0
M  V30 43 H 8.057999 1.552273 -13.392485 0
M  V30 END ATOM
M  V30 BEGIN BOND
M  V30 1 1 2 1
M  V30 2 1 3 2
M  V30 3 1 4 3
M  V30 4 1 5 4
M  V30 5 2 6 5
M  V30 6 1 7 6
M  V30 7 2 8 7
M  V30 8 1 9 8
M  V30 9 2 10 9
M  V30 10 1 11 10
M  V30 11 1 12 7
M  V30 12 2 12 11
M  V30 13 1 13 5
M  V30 14 1 13 12
M  V30 15 1 14 13
M  V30 16 1 15 14
M  V30 17 2 16 15
M  V30 18 1 17 16
M  V30 19 2 18 17
M  V30 20 1 19 18
M  V30 21 1 20 15
M  V30 22 2 20 19
M  V30 23 1 21 11
M  V30 24 1 21 20
M  V30 25 1 22 2
M  V30 26 1 22 6
M  V30 27 1 23 1
M  V30 28 1 24 1
M  V30 29 1 25 1
M  V30 30 1 26 3
M  V30 31 1 27 3
M  V30 32 1 28 4
M  V30 33 1 29 4
M  V30 34 1 30 8
M  V30 35 1 31 9
M  V30 36 1 32 10
M  V30 37 1 33 14
M  V30 38 1 34 14
M  V30 39 1 35 16
M  V30 40 1 36 17
M  V30 41 1 37 18
M  V30 42 1 38 19
M  V30 43 1 39 21
M  V30 44 1 40 21
M  V30 45 1 41 22
M  V30 46 1 42 22
M  V30 47 1 2 43 CFG=1
M  V30 END BOND
M  V30 END CTAB
M  END
>  <b_m_subgroup_collapsed>  (2021) 
0

>  <r_i_docking_score>  (2021) 
-6.3382227064067198

>  <s_m_subgroup_title>  (2021) 
glide-dock_SP_D22_pv

>  <s_m_subgroupid>  (2021) 
glide-dock_SP_D22_pv

>  <Molecule ChEMBL ID>  (2021) 
CHEMBL3104092

>  <Standard Type>  (2021) 
Ki

>  <Standard Value>  (2021) 
10000.0

>  <label>  (2021) 
0

$$$$
CHEMBL2159455
     RDKit          3D

  0  0  0  0  0  0  0  0  0  0999 V3000
M  V30 BEGIN CTAB
M  V30 COUNTS 60 63 0 0 1
M  V30 BEGIN ATOM
M  V30 1 O 11.594078 6.173215 -6.849092 0
M  V30 2 S 10.735056 7.346978 -6.646334 0
M  V30 3 O 9.285254 7.225598 -6.463036 0
M  V30 4 N 11.032186 8.441307 -7.941327 0
M  V30 5 C 10.065876 8.576579 -9.038900 0
M  V30 6 C 9.932858 7.298756 -9.908526 0 CFG=1
M  V30 7 C 9.024646 6.232994 -9.255942 0
M  V30 8 C 8.728532 5.061082 -10.171553 0
M  V30 9 N 8.086574 5.504396 -11.428964 0 CFG=2 CHG=1
M  V30 10 C 7.699971 4.294060 -12.198043 0
M  V30 11 C 7.103972 4.507956 -13.603897 0
M  V30 12 O 6.929088 3.244059 -14.246528 0
M  V30 13 C 8.040545 2.521688 -14.650964 0
M  V30 14 C 9.345422 3.081312 -14.720870 0
M  V30 15 C 10.448736 2.307383 -15.121143 0
M  V30 16 C 10.265623 0.963031 -15.475355 0
M  V30 17 C 8.977358 0.405206 -15.431862 0
M  V30 18 C 7.855358 1.162332 -15.024443 0
M  V30 19 C 6.529308 0.508609 -15.011741 0
M  V30 20 C 5.678274 0.578795 -13.884995 0
M  V30 21 C 4.409286 -0.034807 -13.901786 0
M  V30 22 C 3.980583 -0.748326 -15.034927 0
M  V30 23 C 4.825064 -0.847716 -16.153868 0
M  V30 24 C 6.086582 -0.222508 -16.138958 0
M  V30 25 C 8.978292 6.448851 -12.154620 0
M  V30 26 C 9.357780 7.668006 -11.290185 0
M  V30 27 C 11.298859 8.150280 -5.194112 0
M  V30 28 C 11.214860 9.486588 -4.908740 0
M  V30 29 C 11.686197 9.772349 -3.600201 0
M  V30 30 C 12.169418 8.665377 -2.974283 0
M  V30 31 Cl 12.885783 8.572390 -1.446807 0
M  V30 32 S 12.015272 7.222110 -3.902621 0
M  V30 33 H 12.005234 8.421645 -8.246387 0
M  V30 34 H 9.094521 8.873565 -8.637779 0
M  V30 35 H 10.402575 9.406132 -9.660394 0
M  V30 36 H 10.921469 6.864781 -10.067921 0
M  V30 37 H 9.501456 5.789505 -8.390141 0
M  V30 38 H 8.086061 6.670926 -8.916768 0
M  V30 39 H 8.085341 4.356931 -9.641794 0
M  V30 40 H 9.655438 4.527663 -10.389572 0
M  V30 41 H 8.587306 3.668239 -12.264589 0
M  V30 42 H 6.967748 3.747414 -11.602550 0
M  V30 43 H 6.124449 4.976854 -13.512317 0
M  V30 44 H 7.696814 5.161906 -14.239835 0
M  V30 45 H 9.539787 4.111026 -14.465683 0
M  V30 46 H 11.436215 2.744586 -15.158388 0
M  V30 47 H 11.108778 0.363202 -15.785568 0
M  V30 48 H 8.850099 -0.627567 -15.713673 0
M  V30 49 H 5.993378 1.119902 -13.005529 0
M  V30 50 H 3.757588 0.039618 -13.048514 0
M  V30 51 H 3.009440 -1.222387 -15.047628 0
M  V30 52 H 4.501905 -1.400866 -17.024048 0
M  V30 53 H 6.718069 -0.303504 -17.011496 0
M  V30 54 H 8.478093 6.820680 -13.046591 0
M  V30 55 H 9.879563 5.927163 -12.480359 0
M  V30 56 H 8.485687 8.303266 -11.155334 0
M  V30 57 H 10.079386 8.277620 -11.834266 0
M  V30 58 H 10.804881 10.240148 -5.565668 0
M  V30 59 H 11.685840 10.759501 -3.165028 0
M  V30 60 H 7.250331 6.018226 -11.164325 0
M  V30 END ATOM
M  V30 BEGIN BOND
M  V30 1 2 2 1
M  V30 2 2 3 2
M  V30 3 1 4 2
M  V30 4 1 5 4
M  V30 5 1 6 5
M  V30 6 1 7 6
M  V30 7 1 8 7
M  V30 8 1 9 8
M  V30 9 1 10 9
M  V30 10 1 11 10
M  V30 11 1 12 11
M  V30 12 1 13 12
M  V30 13 2 14 13
M  V30 14 1 15 14
M  V30 15 2 16 15
M  V30 16 1 17 16
M  V30 17 1 18 13
M  V30 18 2 18 17
M  V30 19 1 19 18
M  V30 20 2 20 19
M  V30 21 1 21 20
M  V30 22 2 22 21
M  V30 23 1 23 22
M  V30 24 1 24 19
M  V30 25 2 24 23
M  V30 26 1 25 9
M  V30 27 1 26 6
M  V30 28 1 26 25
M  V30 29 1 27 2
M  V30 30 2 28 27
M  V30 31 1 29 28
M  V30 32 2 30 29
M  V30 33 1 31 30
M  V30 34 1 32 27
M  V30 35 1 32 30
M  V30 36 1 33 4
M  V30 37 1 34 5
M  V30 38 1 35 5
M  V30 39 1 6 36 CFG=3
M  V30 40 1 37 7
M  V30 41 1 38 7
M  V30 42 1 39 8
M  V30 43 1 40 8
M  V30 44 1 41 10
M  V30 45 1 42 10
M  V30 46 1 43 11
M  V30 47 1 44 11
M  V30 48 1 45 14
M  V30 49 1 46 15
M  V30 50 1 47 16
M  V30 51 1 48 17
M  V30 52 1 49 20
M  V30 53 1 50 21
M  V30 54 1 51 22
M  V30 55 1 52 23
M  V30 56 1 53 24
M  V30 57 1 54 25
M  V30 58 1 55 25
M  V30 59 1 56 26
M  V30 60 1 57 26
M  V30 61 1 58 28
M  V30 62 1 59 29
M  V30 63 1 9 60 CFG=1
M  V30 END BOND
M  V30 END CTAB
M  END
>  <b_m_subgroup_collapsed>  (2022) 
0

>  <r_i_docking_score>  (2022) 
-6.3364022006799603

>  <s_m_subgroup_title>  (2022) 
glide-dock_SP_D22_pv

>  <s_m_subgroupid>  (2022) 
glide-dock_SP_D22_pv

>  <Molecule ChEMBL ID>  (2022) 
CHEMBL2159455

>  <Standard Type>  (2022) 
Ki

>  <Standard Value>  (2022) 
32.0

>  <label>  (2022) 
1

$$$$
CHEMBL3187365
     RDKit          3D

  0  0  0  0  0  0  0  0  0  0999 V3000
M  V30 BEGIN CTAB
M  V30 COUNTS 37 40 0 0 1
M  V30 BEGIN ATOM
M  V30 1 C 10.884974 0.683718 -17.349991 0
M  V30 2 N 11.189935 1.490101 -16.150618 0 CFG=1 CHG=1
M  V30 3 C 11.804998 2.811260 -16.434992 0
M  V30 4 C 10.912188 3.852088 -15.739794 0 CFG=2
M  V30 5 C 11.571483 5.197866 -15.439149 0
M  V30 6 C 12.219620 5.865688 -16.504299 0
M  V30 7 C 12.844844 7.109047 -16.305906 0
M  V30 8 C 12.819963 7.709054 -15.036207 0
M  V30 9 C 12.171368 7.061091 -13.968199 0
M  V30 10 C 11.540189 5.816492 -14.156956 0
M  V30 11 O 10.951390 5.259273 -13.050600 0
M  V30 12 C 9.627822 4.919062 -13.100587 0
M  V30 13 C 8.680424 5.654401 -12.364323 0
M  V30 14 C 7.332016 5.253460 -12.358834 0
M  V30 15 C 6.932310 4.118897 -13.093305 0
M  V30 16 Cl 5.285973 3.612978 -13.048209 0
M  V30 17 C 7.880404 3.388355 -13.845974 0
M  V30 18 C 9.237083 3.782177 -13.832924 0
M  V30 19 C 10.339128 3.052327 -14.577905 0 CFG=1
M  V30 20 C 10.028190 1.717434 -15.256698 0
M  V30 21 H 10.182920 1.199917 -18.005022 0
M  V30 22 H 10.447849 -0.275449 -17.065496 0
M  V30 23 H 11.797180 0.483264 -17.916777 0
M  V30 24 H 12.806023 2.825418 -16.000771 0
M  V30 25 H 11.909777 3.015749 -17.501719 0
M  V30 26 H 10.083892 4.082554 -16.414047 0
M  V30 27 H 12.240325 5.426301 -17.491104 0
M  V30 28 H 13.336048 7.608826 -17.130148 0
M  V30 29 H 13.285977 8.669070 -14.880056 0
M  V30 30 H 12.163088 7.521163 -12.990680 0
M  V30 31 H 8.986696 6.513258 -11.783491 0
M  V30 32 H 6.607742 5.808251 -11.776074 0
M  V30 33 H 7.551477 2.521756 -14.395643 0
M  V30 34 H 11.132375 2.861442 -13.852022 0
M  V30 35 H 9.124129 1.799583 -15.860239 0
M  V30 36 H 9.889993 0.904461 -14.540561 0
M  V30 37 H 11.877278 0.978365 -15.613416 0
M  V30 END ATOM
M  V30 BEGIN BOND
M  V30 1 1 2 1
M  V30 2 1 3 2
M  V30 3 1 4 3
M  V30 4 1 5 4
M  V30 5 2 6 5
M  V30 6 1 7 6
M  V30 7 2 8 7
M  V30 8 1 9 8
M  V30 9 1 10 5
M  V30 10 2 10 9
M  V30 11 1 11 10
M  V30 12 1 12 11
M  V30 13 1 13 12
M  V30 14 2 14 13
M  V30 15 1 15 14
M  V30 16 1 16 15
M  V30 17 2 17 15
M  V30 18 2 18 12
M  V30 19 1 18 17
M  V30 20 1 19 4
M  V30 21 1 19 18
M  V30 22 1 20 2
M  V30 23 1 20 19
M  V30 24 1 21 1
M  V30 25 1 22 1
M  V30 26 1 23 1
M  V30 27 1 24 3
M  V30 28 1 25 3
M  V30 29 1 4 26 CFG=3
M  V30 30 1 27 6
M  V30 31 1 28 7
M  V30 32 1 29 8
M  V30 33 1 30 9
M  V30 34 1 31 13
M  V30 35 1 32 14
M  V30 36 1 33 17
M  V30 37 1 19 34 CFG=1
M  V30 38 1 35 20
M  V30 39 1 36 20
M  V30 40 1 2 37 CFG=1
M  V30 END BOND
M  V30 END CTAB
M  END
>  <b_m_subgroup_collapsed>  (2023) 
0

>  <r_i_docking_score>  (2023) 
-6.3355053602952403

>  <s_m_subgroup_title>  (2023) 
glide-dock_SP_D22_pv

>  <s_m_subgroupid>  (2023) 
glide-dock_SP_D22_pv

>  <Molecule ChEMBL ID>  (2023) 
CHEMBL3187365

>  <Standard Type>  (2023) 
Ki

>  <Standard Value>  (2023) 
8.9

>  <label>  (2023) 
1

$$$$
CHEMBL4858961
     RDKit          3D

  0  0  0  0  0  0  0  0  0  0999 V3000
M  V30 BEGIN CTAB
M  V30 COUNTS 52 53 0 0 1
M  V30 BEGIN ATOM
M  V30 1 C 12.223698 8.037714 -3.581175 0
M  V30 2 C 11.541995 9.334448 -4.044442 0
M  V30 3 C 11.701084 9.633831 -5.545667 0
M  V30 4 N 11.280551 8.517111 -6.430861 0 CFG=1 CHG=1
M  V30 5 C 9.861370 8.104369 -6.361127 0
M  V30 6 C 9.538084 7.437300 -7.704206 0
M  V30 7 C 10.736586 7.737109 -8.619225 0 CFG=1
M  V30 8 C 10.353868 8.211333 -10.028524 0
M  V30 9 N 9.801822 7.109267 -10.795042 0
M  V30 10 C 8.986688 7.236778 -11.848014 0
M  V30 11 O 8.526156 8.308056 -12.246650 0
M  V30 12 C 8.707105 5.948441 -12.569839 0
M  V30 13 C 7.377500 5.477699 -12.732543 0
M  V30 14 O 6.301765 6.172301 -12.246878 0
M  V30 15 C 7.138808 4.267902 -13.424953 0
M  V30 16 C 5.726724 3.744811 -13.627700 0
M  V30 17 C 5.285490 2.819861 -12.490145 0
M  V30 18 C 8.220022 3.520052 -13.925830 0
M  V30 19 C 9.537545 3.985687 -13.787165 0
M  V30 20 Cl 10.824866 3.006994 -14.398617 0
M  V30 21 C 9.786402 5.220610 -13.141260 0
M  V30 22 O 11.062983 5.727939 -13.046868 0
M  V30 23 C 11.700269 6.046896 -14.277849 0
M  V30 24 C 11.563986 8.767122 -7.853893 0
M  V30 25 H 12.155444 7.936131 -2.497272 0
M  V30 26 H 11.755614 7.155227 -4.018144 0
M  V30 27 H 13.280324 8.021154 -3.847502 0
M  V30 28 H 11.961669 10.167755 -3.479024 0
M  V30 29 H 10.488424 9.319097 -3.778775 0
M  V30 30 H 12.750279 9.853860 -5.750290 0
M  V30 31 H 11.142302 10.536326 -5.800627 0
M  V30 32 H 9.215215 8.972264 -6.247025 0
M  V30 33 H 9.685841 7.434544 -5.518458 0
M  V30 34 H 8.602097 7.829957 -8.107529 0
M  V30 35 H 9.406040 6.360948 -7.587786 0
M  V30 36 H 11.330558 6.826416 -8.698004 0
M  V30 37 H 11.233934 8.583066 -10.555966 0
M  V30 38 H 9.642605 9.038335 -9.970426 0
M  V30 39 H 10.108490 6.176385 -10.562962 0
M  V30 40 H 6.485969 6.842776 -11.583062 0
M  V30 41 H 5.026952 4.574651 -13.731521 0
M  V30 42 H 5.686810 3.210218 -14.574539 0
M  V30 43 H 4.268456 2.464345 -12.654099 0
M  V30 44 H 5.931957 1.946515 -12.417924 0
M  V30 45 H 5.309866 3.341814 -11.532531 0
M  V30 46 H 8.039047 2.580344 -14.427415 0
M  V30 47 H 12.099044 7.060110 -14.226121 0
M  V30 48 H 12.536616 5.369870 -14.453817 0
M  V30 49 H 11.030894 6.000010 -15.138532 0
M  V30 50 H 12.630137 8.695108 -8.075717 0
M  V30 51 H 11.235881 9.772319 -8.117409 0
M  V30 52 H 11.818486 7.702360 -6.171956 0
M  V30 END ATOM
M  V30 BEGIN BOND
M  V30 1 1 2 1
M  V30 2 1 3 2
M  V30 3 1 4 3
M  V30 4 1 5 4
M  V30 5 1 6 5
M  V30 6 1 7 6
M  V30 7 1 8 7
M  V30 8 1 9 8
M  V30 9 1 10 9
M  V30 10 2 11 10
M  V30 11 1 12 10
M  V30 12 1 13 12
M  V30 13 1 14 13
M  V30 14 2 15 13
M  V30 15 1 16 15
M  V30 16 1 17 16
M  V30 17 1 18 15
M  V30 18 2 19 18
M  V30 19 1 20 19
M  V30 20 2 21 12
M  V30 21 1 21 19
M  V30 22 1 22 21
M  V30 23 1 23 22
M  V30 24 1 24 4
M  V30 25 1 24 7
M  V30 26 1 25 1
M  V30 27 1 26 1
M  V30 28 1 27 1
M  V30 29 1 28 2
M  V30 30 1 29 2
M  V30 31 1 30 3
M  V30 32 1 31 3
M  V30 33 1 32 5
M  V30 34 1 33 5
M  V30 35 1 34 6
M  V30 36 1 35 6
M  V30 37 1 7 36 CFG=3
M  V30 38 1 37 8
M  V30 39 1 38 8
M  V30 40 1 39 9
M  V30 41 1 40 14
M  V30 42 1 41 16
M  V30 43 1 42 16
M  V30 44 1 43 17
M  V30 45 1 44 17
M  V30 46 1 45 17
M  V30 47 1 46 18
M  V30 48 1 47 23
M  V30 49 1 48 23
M  V30 50 1 49 23
M  V30 51 1 50 24
M  V30 52 1 51 24
M  V30 53 1 4 52 CFG=1
M  V30 END BOND
M  V30 END CTAB
M  END
>  <b_m_subgroup_collapsed>  (2024) 
0

>  <r_i_docking_score>  (2024) 
-6.3353355343030797

>  <s_m_subgroup_title>  (2024) 
glide-dock_SP_D22_pv

>  <s_m_subgroupid>  (2024) 
glide-dock_SP_D22_pv

>  <Molecule ChEMBL ID>  (2024) 
CHEMBL4858961

>  <Standard Type>  (2024) 
Ki

>  <Standard Value>  (2024) 
66.4

>  <label>  (2024) 
1

$$$$
CHEMBL1202783
     RDKit          3D

  0  0  0  0  0  0  0  0  0  0999 V3000
M  V30 BEGIN CTAB
M  V30 COUNTS 52 55 0 0 1
M  V30 BEGIN ATOM
M  V30 1 C 10.382382 7.807395 -6.445952 0
M  V30 2 C 11.316900 8.759200 -6.570633 0
M  V30 3 C 11.918391 9.546780 -5.420450 0
M  V30 4 N 11.797625 8.908997 -4.111462 0
M  V30 5 C 12.469321 7.609899 -4.034201 0
M  V30 6 C 12.321209 6.975036 -2.646995 0
M  V30 7 O 12.885939 7.857112 -1.687957 0
M  V30 8 C 12.320077 9.150838 -1.706329 0
M  V30 9 C 12.364190 9.776366 -3.094242 0
M  V30 10 C 11.816757 9.146484 -7.948435 0
M  V30 11 O 11.668468 8.145855 -8.948665 0
M  V30 12 C 10.581203 7.311155 -8.854078 0
M  V30 13 C 9.932623 7.085852 -7.622162 0
M  V30 14 C 8.877414 6.169997 -7.542514 0
M  V30 15 C 8.486225 5.455380 -8.686674 0
M  V30 16 C 9.095411 5.709670 -9.928307 0
M  V30 17 C 10.147776 6.651182 -10.017178 0
M  V30 18 O 10.809420 6.972203 -11.179619 0
M  V30 19 C 10.119171 6.807410 -12.402597 0
M  V30 20 C 10.384889 5.431154 -13.037183 0 CFG=2
M  V30 21 C 11.676100 5.416460 -13.880593 0
M  V30 22 N 11.841419 4.109922 -14.550049 0 CHG=1
M  V30 23 C 10.641836 3.734172 -15.325378 0
M  V30 24 C 9.390081 3.792521 -14.432625 0
M  V30 25 O 9.278156 5.095062 -13.869728 0
M  V30 26 H 9.975713 7.523248 -5.486367 0
M  V30 27 H 12.973084 9.720934 -5.637981 0
M  V30 28 H 11.439704 10.527218 -5.406144 0
M  V30 29 H 12.085967 6.910157 -4.774463 0
M  V30 30 H 13.528632 7.743094 -4.246812 0
M  V30 31 H 11.274094 6.780284 -2.412714 0
M  V30 32 H 12.844293 6.019372 -2.605260 0
M  V30 33 H 11.286047 9.067532 -1.447104 0
M  V30 34 H 12.808853 9.772044 -0.961130 0
M  V30 35 H 13.388695 10.025363 -3.359649 0
M  V30 36 H 11.804549 10.709788 -3.047415 0
M  V30 37 H 11.286072 10.039532 -8.274159 0
M  V30 38 H 12.880547 9.372101 -7.885237 0
M  V30 39 H 8.365964 6.005486 -6.606134 0
M  V30 40 H 7.687809 4.735394 -8.613809 0
M  V30 41 H 8.737260 5.172779 -10.792410 0
M  V30 42 H 9.050251 6.991237 -12.276435 0
M  V30 43 H 10.487167 7.601363 -13.046788 0
M  V30 44 H 10.450133 4.678998 -12.249415 0
M  V30 45 H 11.643991 6.199997 -14.639245 0
M  V30 46 H 12.545416 5.615837 -13.253300 0
M  V30 47 H 12.002588 3.402530 -13.847420 0
M  V30 48 H 10.773277 2.732396 -15.735978 0
M  V30 49 H 10.531478 4.415879 -16.169985 0
M  V30 50 H 9.433923 3.040617 -13.642434 0
M  V30 51 H 8.497481 3.581916 -15.022031 0
M  V30 52 H 12.642426 4.146967 -15.165693 0
M  V30 END ATOM
M  V30 BEGIN BOND
M  V30 1 2 2 1
M  V30 2 1 3 2
M  V30 3 1 4 3
M  V30 4 1 5 4
M  V30 5 1 6 5
M  V30 6 1 7 6
M  V30 7 1 8 7
M  V30 8 1 9 4
M  V30 9 1 9 8
M  V30 10 1 10 2
M  V30 11 1 11 10
M  V30 12 1 12 11
M  V30 13 1 13 1
M  V30 14 2 13 12
M  V30 15 1 14 13
M  V30 16 2 15 14
M  V30 17 1 16 15
M  V30 18 1 17 12
M  V30 19 2 17 16
M  V30 20 1 18 17
M  V30 21 1 19 18
M  V30 22 1 20 19
M  V30 23 1 21 20
M  V30 24 1 22 21
M  V30 25 1 23 22
M  V30 26 1 24 23
M  V30 27 1 25 20
M  V30 28 1 25 24
M  V30 29 1 26 1
M  V30 30 1 27 3
M  V30 31 1 28 3
M  V30 32 1 29 5
M  V30 33 1 30 5
M  V30 34 1 31 6
M  V30 35 1 32 6
M  V30 36 1 33 8
M  V30 37 1 34 8
M  V30 38 1 35 9
M  V30 39 1 36 9
M  V30 40 1 37 10
M  V30 41 1 38 10
M  V30 42 1 39 14
M  V30 43 1 40 15
M  V30 44 1 41 16
M  V30 45 1 42 19
M  V30 46 1 43 19
M  V30 47 1 20 44 CFG=1
M  V30 48 1 45 21
M  V30 49 1 46 21
M  V30 50 1 47 22
M  V30 51 1 48 23
M  V30 52 1 49 23
M  V30 53 1 50 24
M  V30 54 1 51 24
M  V30 55 1 52 22
M  V30 END BOND
M  V30 END CTAB
M  END
>  <b_m_subgroup_collapsed>  (2025) 
0

>  <r_i_docking_score>  (2025) 
-6.33513006710489

>  <s_m_subgroup_title>  (2025) 
glide-dock_SP_D22_pv

>  <s_m_subgroupid>  (2025) 
glide-dock_SP_D22_pv

>  <Molecule ChEMBL ID>  (2025) 
CHEMBL1202783

>  <Standard Type>  (2025) 
Ki

>  <Standard Value>  (2025) 
10000.0

>  <label>  (2025) 
0

$$$$
CHEMBL5880427
     RDKit          3D

  0  0  0  0  0  0  0  0  0  0999 V3000
M  V30 BEGIN CTAB
M  V30 COUNTS 45 47 0 0 1
M  V30 BEGIN ATOM
M  V30 1 C 7.839614 6.217630 -12.676740 0
M  V30 2 C 9.163922 5.939156 -11.931598 0 CFG=2
M  V30 3 O 10.203657 5.568168 -12.844264 0
M  V30 4 C 10.186791 4.390985 -13.563775 0
M  V30 5 C 9.212797 3.372233 -13.459969 0
M  V30 6 C 9.346604 2.215204 -14.249248 0
M  V30 7 N 10.360385 2.023070 -15.118025 0
M  V30 8 C 11.287746 2.994802 -15.222842 0
M  V30 9 C 11.246675 4.182123 -14.469617 0
M  V30 10 C 8.999459 4.978800 -10.729771 0
M  V30 11 C 9.244897 5.799411 -9.457444 0
M  V30 12 N 9.271769 7.215734 -9.872161 0 CFG=1 CHG=1
M  V30 13 C 10.055300 8.111776 -8.986996 0
M  V30 14 C 9.267932 8.532532 -7.736082 0
M  V30 15 O 10.086280 9.369991 -6.922433 0
M  V30 16 C 10.777163 8.823389 -5.862449 0
M  V30 17 C 11.292510 9.732643 -4.915226 0
M  V30 18 C 11.982431 9.275420 -3.775848 0
M  V30 19 C 12.172748 7.893855 -3.577181 0
M  V30 20 C 11.683285 6.976371 -4.527185 0
M  V30 21 C 10.988582 7.433763 -5.664937 0
M  V30 22 C 9.701449 7.230781 -11.281564 0
M  V30 23 H 7.072042 6.572778 -11.991704 0
M  V30 24 H 7.971627 6.974356 -13.445131 0
M  V30 25 H 7.425148 5.338843 -13.168951 0
M  V30 26 H 8.378236 3.441931 -12.784324 0
M  V30 27 H 8.618887 1.418878 -14.179867 0
M  V30 28 H 12.094934 2.812716 -15.918667 0
M  V30 29 H 12.021247 4.926332 -14.586867 0
M  V30 30 H 7.996278 4.549140 -10.709460 0
M  V30 31 H 9.701022 4.147177 -10.773195 0
M  V30 32 H 8.476178 5.626923 -8.700655 0
M  V30 33 H 10.206640 5.511550 -9.027881 0
M  V30 34 H 11.000912 7.643401 -8.716419 0
M  V30 35 H 10.313607 9.015504 -9.538821 0
M  V30 36 H 8.409227 9.127330 -8.043479 0
M  V30 37 H 8.854629 7.684931 -7.187890 0
M  V30 38 H 11.141763 10.794642 -5.057731 0
M  V30 39 H 12.362429 9.983993 -3.050273 0
M  V30 40 H 12.699739 7.540836 -2.703866 0
M  V30 41 H 11.832083 5.916254 -4.376527 0
M  V30 42 H 10.626644 6.700930 -6.370599 0
M  V30 43 H 10.793014 7.225603 -11.299672 0
M  V30 44 H 9.373793 8.137323 -11.792748 0
M  V30 45 H 8.298578 7.526760 -9.878248 0
M  V30 END ATOM
M  V30 BEGIN BOND
M  V30 1 1 2 1
M  V30 2 1 2 3 CFG=3
M  V30 3 1 4 3
M  V30 4 1 5 4
M  V30 5 2 6 5
M  V30 6 1 7 6
M  V30 7 2 8 7
M  V30 8 2 9 4
M  V30 9 1 9 8
M  V30 10 1 10 2
M  V30 11 1 11 10
M  V30 12 1 12 11
M  V30 13 1 13 12
M  V30 14 1 14 13
M  V30 15 1 15 14
M  V30 16 1 16 15
M  V30 17 2 17 16
M  V30 18 1 18 17
M  V30 19 2 19 18
M  V30 20 1 20 19
M  V30 21 1 21 16
M  V30 22 2 21 20
M  V30 23 1 22 2
M  V30 24 1 22 12
M  V30 25 1 23 1
M  V30 26 1 24 1
M  V30 27 1 25 1
M  V30 28 1 26 5
M  V30 29 1 27 6
M  V30 30 1 28 8
M  V30 31 1 29 9
M  V30 32 1 30 10
M  V30 33 1 31 10
M  V30 34 1 32 11
M  V30 35 1 33 11
M  V30 36 1 34 13
M  V30 37 1 35 13
M  V30 38 1 36 14
M  V30 39 1 37 14
M  V30 40 1 38 17
M  V30 41 1 39 18
M  V30 42 1 40 19
M  V30 43 1 41 20
M  V30 44 1 42 21
M  V30 45 1 43 22
M  V30 46 1 44 22
M  V30 47 1 12 45 CFG=3
M  V30 END BOND
M  V30 END CTAB
M  END
>  <b_m_subgroup_collapsed>  (2026) 
0

>  <r_i_docking_score>  (2026) 
-6.3350019662564696

>  <s_m_subgroup_title>  (2026) 
glide-dock_SP_D22_pv

>  <s_m_subgroupid>  (2026) 
glide-dock_SP_D22_pv

>  <Molecule ChEMBL ID>  (2026) 
CHEMBL5880427

>  <Standard Type>  (2026) 
Ki

>  <Standard Value>  (2026) 
20000.0

>  <label>  (2026) 
0

$$$$
CHEMBL4467359
     RDKit          3D

  0  0  0  0  0  0  0  0  0  0999 V3000
M  V30 BEGIN CTAB
M  V30 COUNTS 43 46 0 0 1
M  V30 BEGIN ATOM
M  V30 1 C 4.900013 -1.628906 -15.504451 0
M  V30 2 C 4.944166 -0.424137 -14.573054 0
M  V30 3 O 4.025335 -0.228091 -13.777676 0
M  V30 4 N 6.034108 0.354182 -14.671727 0
M  V30 5 C 6.281337 1.587979 -14.018879 0
M  V30 6 N 5.449286 2.178744 -13.156132 0
M  V30 7 C 6.043044 3.375157 -12.784760 0
M  V30 8 C 7.256601 3.427830 -13.446758 0
M  V30 9 C 8.345310 4.401918 -13.313507 0
M  V30 10 C 8.373889 5.548306 -12.562797 0
M  V30 11 N 9.655111 6.084489 -12.558260 0
M  V30 12 S 10.107671 7.451635 -11.595275 0
M  V30 13 O 9.275731 8.566804 -12.075315 0
M  V30 14 O 11.575341 7.533479 -11.635717 0
M  V30 15 C 9.652479 7.068783 -9.912009 0
M  V30 16 C 9.666356 8.120753 -8.973233 0
M  V30 17 C 9.286208 7.867903 -7.640664 0
M  V30 18 C 8.886561 6.572305 -7.261207 0
M  V30 19 C 8.886930 5.525550 -8.202811 0
M  V30 20 C 9.290713 5.762552 -9.524771 0
M  V30 21 C 10.464050 5.358709 -13.428907 0
M  V30 22 C 11.805776 5.511990 -13.846828 0
M  V30 23 C 12.377259 4.592763 -14.741113 0
M  V30 24 C 11.610445 3.516177 -15.213168 0
M  V30 25 C 10.272385 3.365194 -14.801009 0
M  V30 26 C 9.654461 4.283067 -13.912496 0
M  V30 27 N 7.380271 2.288470 -14.247253 0
M  V30 28 H 5.685275 -2.338897 -15.244138 0
M  V30 29 H 3.938475 -2.141755 -15.444857 0
M  V30 30 H 5.049764 -1.316572 -16.536131 0
M  V30 31 H 6.743644 0.056329 -15.325928 0
M  V30 32 H 5.594344 4.050058 -12.069334 0
M  V30 33 H 7.596222 5.989798 -11.952658 0
M  V30 34 H 9.951133 9.119968 -9.277798 0
M  V30 35 H 9.273901 8.668193 -6.915864 0
M  V30 36 H 8.569694 6.383286 -6.247813 0
M  V30 37 H 8.582457 4.534234 -7.907320 0
M  V30 38 H 9.304872 4.935496 -10.219483 0
M  V30 39 H 12.416233 6.329373 -13.496794 0
M  V30 40 H 13.402434 4.710200 -15.056773 0
M  V30 41 H 12.049919 2.801163 -15.893724 0
M  V30 42 H 9.710053 2.528440 -15.182687 0
M  V30 43 H 4.558157 1.809786 -12.855725 0
M  V30 END ATOM
M  V30 BEGIN BOND
M  V30 1 1 2 1
M  V30 2 2 3 2
M  V30 3 1 4 2
M  V30 4 1 5 4
M  V30 5 1 6 5
M  V30 6 1 7 6
M  V30 7 2 8 7
M  V30 8 1 9 8
M  V30 9 2 10 9
M  V30 10 1 11 10
M  V30 11 1 12 11
M  V30 12 2 13 12
M  V30 13 2 14 12
M  V30 14 1 15 12
M  V30 15 2 16 15
M  V30 16 1 17 16
M  V30 17 2 18 17
M  V30 18 1 19 18
M  V30 19 1 20 15
M  V30 20 2 20 19
M  V30 21 1 21 11
M  V30 22 2 22 21
M  V30 23 1 23 22
M  V30 24 2 24 23
M  V30 25 1 25 24
M  V30 26 1 26 9
M  V30 27 1 26 21
M  V30 28 2 26 25
M  V30 29 2 27 5
M  V30 30 1 27 8
M  V30 31 1 28 1
M  V30 32 1 29 1
M  V30 33 1 30 1
M  V30 34 1 31 4
M  V30 35 1 32 7
M  V30 36 1 33 10
M  V30 37 1 34 16
M  V30 38 1 35 17
M  V30 39 1 36 18
M  V30 40 1 37 19
M  V30 41 1 38 20
M  V30 42 1 39 22
M  V30 43 1 40 23
M  V30 44 1 41 24
M  V30 45 1 42 25
M  V30 46 1 43 6
M  V30 END BOND
M  V30 END CTAB
M  END
>  <b_m_subgroup_collapsed>  (2027) 
0

>  <r_i_docking_score>  (2027) 
-6.3341177270879001

>  <s_m_subgroup_title>  (2027) 
glide-dock_SP_D22_pv

>  <s_m_subgroupid>  (2027) 
glide-dock_SP_D22_pv

>  <Molecule ChEMBL ID>  (2027) 
CHEMBL4467359

>  <Standard Type>  (2027) 
Ki

>  <Standard Value>  (2027) 
10000.0

>  <label>  (2027) 
0

$$$$
CHEMBL379673
     RDKit          3D

  0  0  0  0  0  0  0  0  0  0999 V3000
M  V30 BEGIN CTAB
M  V30 COUNTS 38 40 0 0 1
M  V30 BEGIN ATOM
M  V30 1 C 8.258249 9.133573 -11.993485 0
M  V30 2 N 8.599545 7.700399 -11.846893 0 CFG=1 CHG=1
M  V30 3 C 7.653428 6.816579 -12.567631 0
M  V30 4 C 7.844779 5.320938 -12.269125 0
M  V30 5 C 7.904601 4.993717 -10.766425 0
M  V30 6 C 9.318018 4.859743 -10.162732 0
M  V30 7 C 9.748569 5.990523 -9.279858 0
M  V30 8 N 9.533840 5.897747 -7.914647 0
M  V30 9 C 10.115214 6.947958 -7.242982 0
M  V30 10 C 10.244773 7.252385 -5.876616 0
M  V30 11 C 10.906997 8.432621 -5.490046 0
M  V30 12 C 11.418882 9.300272 -6.473394 0
M  V30 13 C 11.287468 8.972952 -7.838815 0
M  V30 14 C 10.650043 7.785744 -8.257522 0
M  V30 15 C 10.417424 7.169065 -9.536569 0
M  V30 16 C 10.895233 7.753799 -10.838421 0
M  V30 17 C 10.046308 7.416736 -12.067844 0
M  V30 18 H 8.539922 9.514096 -12.977140 0
M  V30 19 H 8.772475 9.708710 -11.227599 0
M  V30 20 H 7.195269 9.326884 -11.846874 0
M  V30 21 H 6.643194 7.081905 -12.251137 0
M  V30 22 H 7.686229 6.994362 -13.637073 0
M  V30 23 H 6.982936 4.803267 -12.693766 0
M  V30 24 H 8.698225 4.899531 -12.799152 0
M  V30 25 H 7.304739 5.707554 -10.199833 0
M  V30 26 H 7.403734 4.032440 -10.646686 0
M  V30 27 H 9.337633 3.962403 -9.544993 0
M  V30 28 H 10.067358 4.662482 -10.928047 0
M  V30 29 H 9.041795 5.127250 -7.487084 0
M  V30 30 H 9.840161 6.579667 -5.134044 0
M  V30 31 H 11.015456 8.676640 -4.443913 0
M  V30 32 H 11.922276 10.211494 -6.181824 0
M  V30 33 H 11.685771 9.638488 -8.587849 0
M  V30 34 H 10.955204 8.838744 -10.745457 0
M  V30 35 H 11.920022 7.429297 -11.022861 0
M  V30 36 H 10.220012 6.376494 -12.322044 0
M  V30 37 H 10.438096 7.976711 -12.916260 0
M  V30 38 H 8.392390 7.490359 -10.875115 0
M  V30 END ATOM
M  V30 BEGIN BOND
M  V30 1 1 2 1
M  V30 2 1 3 2
M  V30 3 1 4 3
M  V30 4 1 5 4
M  V30 5 1 6 5
M  V30 6 1 7 6
M  V30 7 1 8 7
M  V30 8 1 9 8
M  V30 9 2 10 9
M  V30 10 1 11 10
M  V30 11 2 12 11
M  V30 12 1 13 12
M  V30 13 1 14 9
M  V30 14 2 14 13
M  V30 15 2 15 7
M  V30 16 1 15 14
M  V30 17 1 16 15
M  V30 18 1 17 2
M  V30 19 1 17 16
M  V30 20 1 18 1
M  V30 21 1 19 1
M  V30 22 1 20 1
M  V30 23 1 21 3
M  V30 24 1 22 3
M  V30 25 1 23 4
M  V30 26 1 24 4
M  V30 27 1 25 5
M  V30 28 1 26 5
M  V30 29 1 27 6
M  V30 30 1 28 6
M  V30 31 1 29 8
M  V30 32 1 30 10
M  V30 33 1 31 11
M  V30 34 1 32 12
M  V30 35 1 33 13
M  V30 36 1 34 16
M  V30 37 1 35 16
M  V30 38 1 36 17
M  V30 39 1 37 17
M  V30 40 1 2 38 CFG=1
M  V30 END BOND
M  V30 END CTAB
M  END
>  <b_m_subgroup_collapsed>  (2028) 
0

>  <r_i_docking_score>  (2028) 
-6.3324516987007398

>  <s_m_subgroup_title>  (2028) 
glide-dock_SP_D22_pv

>  <s_m_subgroupid>  (2028) 
glide-dock_SP_D22_pv

>  <Molecule ChEMBL ID>  (2028) 
CHEMBL379673

>  <Standard Type>  (2028) 
Ki

>  <Standard Value>  (2028) 
10000.0

>  <label>  (2028) 
0

$$$$
CHEMBL500627
     RDKit          3D

  0  0  0  0  0  0  0  0  0  0999 V3000
M  V30 BEGIN CTAB
M  V30 COUNTS 43 45 0 0 1
M  V30 BEGIN ATOM
M  V30 1 C 12.597596 6.770560 -15.574763 0
M  V30 2 C 12.162299 5.749098 -16.636669 0
M  V30 3 C 10.858290 5.011563 -16.277924 0
M  V30 4 N 10.982935 4.209513 -15.025990 0 CFG=2 CHG=1
M  V30 5 C 11.757725 2.955581 -15.203621 0
M  V30 6 C 10.909801 1.837641 -15.840919 0
M  V30 7 O 9.729153 1.631812 -15.076699 0
M  V30 8 C 8.911594 2.797754 -15.002292 0 CFG=1
M  V30 9 C 7.583866 2.510724 -14.311584 0
M  V30 10 C 6.930025 1.282976 -14.563624 0
M  V30 11 C 5.697219 0.973433 -13.941639 0
M  V30 12 C 4.959249 -0.303307 -14.246955 0
M  V30 13 N 5.645143 -1.294194 -14.821285 0
M  V30 14 O 3.785509 -0.450979 -13.912409 0
M  V30 15 C 5.116355 1.934502 -13.080768 0
M  V30 16 C 5.748371 3.165949 -12.839621 0
M  V30 17 C 6.983509 3.460154 -13.446196 0
M  V30 18 C 7.673415 4.761889 -13.066037 0
M  V30 19 C 8.851494 5.133386 -13.971558 0
M  V30 20 C 9.720114 3.906303 -14.293179 0 CFG=2
M  V30 21 H 13.475760 7.324297 -15.909944 0
M  V30 22 H 12.860868 6.288303 -14.632322 0
M  V30 23 H 11.807798 7.497287 -15.374477 0
M  V30 24 H 12.008849 6.277292 -17.579248 0
M  V30 25 H 12.975523 5.047743 -16.826365 0
M  V30 26 H 10.088543 5.772033 -16.185736 0
M  V30 27 H 10.545196 4.377810 -17.107727 0
M  V30 28 H 12.662618 3.122138 -15.785506 0
M  V30 29 H 12.085336 2.630050 -14.217929 0
M  V30 30 H 10.652089 2.070957 -16.874144 0
M  V30 31 H 11.475903 0.906660 -15.864162 0
M  V30 32 H 8.659135 3.114209 -16.016014 0
M  V30 33 H 7.389440 0.586660 -15.249026 0
M  V30 34 H 6.625773 -1.205974 -15.046093 0
M  V30 35 H 5.163072 -2.156375 -15.032865 0
M  V30 36 H 4.143907 1.771925 -12.646591 0
M  V30 37 H 5.287246 3.882556 -12.174301 0
M  V30 38 H 6.945116 5.574481 -13.046162 0
M  V30 39 H 8.030763 4.647921 -12.041089 0
M  V30 40 H 8.439594 5.546144 -14.888845 0
M  V30 41 H 9.440159 5.920467 -13.499109 0
M  V30 42 H 10.031095 3.501745 -13.326542 0
M  V30 43 H 11.521155 4.794501 -14.401799 0
M  V30 END ATOM
M  V30 BEGIN BOND
M  V30 1 1 2 1
M  V30 2 1 3 2
M  V30 3 1 4 3
M  V30 4 1 5 4
M  V30 5 1 6 5
M  V30 6 1 7 6
M  V30 7 1 8 7
M  V30 8 1 9 8
M  V30 9 1 10 9
M  V30 10 2 11 10
M  V30 11 1 12 11
M  V30 12 1 13 12
M  V30 13 2 14 12
M  V30 14 1 15 11
M  V30 15 2 16 15
M  V30 16 2 17 9
M  V30 17 1 17 16
M  V30 18 1 18 17
M  V30 19 1 19 18
M  V30 20 1 20 4
M  V30 21 1 20 8
M  V30 22 1 20 19
M  V30 23 1 21 1
M  V30 24 1 22 1
M  V30 25 1 23 1
M  V30 26 1 24 2
M  V30 27 1 25 2
M  V30 28 1 26 3
M  V30 29 1 27 3
M  V30 30 1 28 5
M  V30 31 1 29 5
M  V30 32 1 30 6
M  V30 33 1 31 6
M  V30 34 1 8 32 CFG=3
M  V30 35 1 33 10
M  V30 36 1 34 13
M  V30 37 1 35 13
M  V30 38 1 36 15
M  V30 39 1 37 16
M  V30 40 1 38 18
M  V30 41 1 39 18
M  V30 42 1 40 19
M  V30 43 1 41 19
M  V30 44 1 20 42 CFG=1
M  V30 45 1 4 43 CFG=1
M  V30 END BOND
M  V30 END CTAB
M  END
>  <b_m_subgroup_collapsed>  (2029) 
0

>  <r_i_docking_score>  (2029) 
-6.3312190159034598

>  <s_m_subgroup_title>  (2029) 
glide-dock_SP_D22_pv

>  <s_m_subgroupid>  (2029) 
glide-dock_SP_D22_pv

>  <Molecule ChEMBL ID>  (2029) 
CHEMBL500627

>  <Standard Type>  (2029) 
Ki

>  <Standard Value>  (2029) 
10000.0

>  <label>  (2029) 
0

$$$$
CHEMBL10085
     RDKit          3D

  0  0  0  0  0  0  0  0  0  0999 V3000
M  V30 BEGIN CTAB
M  V30 COUNTS 67 70 0 0 1
M  V30 BEGIN ATOM
M  V30 1 C 11.682187 7.896995 -7.868275 0
M  V30 2 C 10.664759 8.392804 -8.908081 0
M  V30 3 C 9.286114 8.605864 -8.274079 0
M  V30 4 O 10.490930 7.423948 -9.940217 0
M  V30 5 C 11.264276 7.480187 -11.084206 0
M  V30 6 C 12.495990 8.172292 -11.130761 0
M  V30 7 C 13.285622 8.173025 -12.297836 0
M  V30 8 C 12.836845 7.531457 -13.461026 0
M  V30 9 C 11.641192 6.804959 -13.417836 0
M  V30 10 C 10.848496 6.767556 -12.244860 0
M  V30 11 N 9.682411 5.982216 -12.284229 0
M  V30 12 C 8.490954 6.321668 -11.522476 0
M  V30 13 C 7.238852 5.789923 -12.234730 0
M  V30 14 N 7.354113 4.355138 -12.608386 0 CHG=1
M  V30 15 C 6.144902 3.920653 -13.352791 0
M  V30 16 C 6.128624 2.454573 -13.758914 0
M  V30 17 C 5.285916 1.554511 -13.077837 0
M  V30 18 C 5.172853 0.226137 -13.524597 0
M  V30 19 C 5.943829 -0.232410 -14.608663 0
M  V30 20 C 6.823074 0.648281 -15.269858 0
M  V30 21 C 7.611717 0.172500 -16.453621 0
M  V30 22 O 6.997664 -0.192312 -17.455587 0
M  V30 23 N 8.967049 0.176617 -16.372765 0
M  V30 24 C 9.818001 -0.164754 -17.520212 0
M  V30 25 C 10.599920 1.090432 -17.948298 0
M  V30 26 C 11.417299 1.657515 -16.773508 0
M  V30 27 C 10.557383 1.827871 -15.505924 0
M  V30 28 C 9.771231 0.540405 -15.195376 0
M  V30 29 C 6.886131 1.996745 -14.863222 0
M  V30 30 C 8.631222 4.048468 -13.312300 0
M  V30 31 C 9.853547 4.569784 -12.563618 0
M  V30 32 H 11.772066 8.605840 -7.044658 0
M  V30 33 H 11.376009 6.938686 -7.448573 0
M  V30 34 H 12.677579 7.767509 -8.290169 0
M  V30 35 H 10.979855 9.354014 -9.316727 0
M  V30 36 H 9.326215 9.346154 -7.474880 0
M  V30 37 H 8.568934 8.962864 -9.013618 0
M  V30 38 H 8.889817 7.678921 -7.857644 0
M  V30 39 H 12.878465 8.701945 -10.273984 0
M  V30 40 H 14.227811 8.698785 -12.305027 0
M  V30 41 H 13.430749 7.549328 -14.362777 0
M  V30 42 H 11.321194 6.281643 -14.306873 0
M  V30 43 H 8.560789 5.894189 -10.521426 0
M  V30 44 H 8.415010 7.403731 -11.409700 0
M  V30 45 H 6.365854 5.932692 -11.596997 0
M  V30 46 H 7.072296 6.395406 -13.120685 0
M  V30 47 H 5.264677 4.126476 -12.741252 0
M  V30 48 H 6.030529 4.528855 -14.247844 0
M  V30 49 H 4.681245 1.893920 -12.250154 0
M  V30 50 H 4.470860 -0.434436 -13.047182 0
M  V30 51 H 5.851832 -1.257902 -14.940712 0
M  V30 52 H 10.504666 -0.963776 -17.238434 0
M  V30 53 H 9.250182 -0.549659 -18.369093 0
M  V30 54 H 11.260828 0.854193 -18.783031 0
M  V30 55 H 9.902550 1.847951 -18.309311 0
M  V30 56 H 12.239641 0.975096 -16.561396 0
M  V30 57 H 11.873900 2.607958 -17.051376 0
M  V30 58 H 11.188712 2.095916 -14.658323 0
M  V30 59 H 9.866673 2.656577 -15.654203 0
M  V30 60 H 9.186135 0.658582 -14.284045 0
M  V30 61 H 10.468019 -0.270225 -14.978443 0
M  V30 62 H 7.504204 2.683312 -15.421315 0
M  V30 63 H 8.764004 2.974837 -13.413476 0
M  V30 64 H 8.608872 4.479743 -14.314487 0
M  V30 65 H 10.755206 4.368642 -13.141925 0
M  V30 66 H 9.969145 4.038272 -11.618059 0
M  V30 67 H 7.375220 3.843398 -11.737993 0
M  V30 END ATOM
M  V30 BEGIN BOND
M  V30 1 1 2 1
M  V30 2 1 3 2
M  V30 3 1 4 2
M  V30 4 1 5 4
M  V30 5 2 6 5
M  V30 6 1 7 6
M  V30 7 2 8 7
M  V30 8 1 9 8
M  V30 9 1 10 5
M  V30 10 2 10 9
M  V30 11 1 11 10
M  V30 12 1 12 11
M  V30 13 1 13 12
M  V30 14 1 14 13
M  V30 15 1 15 14
M  V30 16 1 16 15
M  V30 17 1 17 16
M  V30 18 2 18 17
M  V30 19 1 19 18
M  V30 20 2 20 19
M  V30 21 1 21 20
M  V30 22 2 22 21
M  V30 23 1 23 21
M  V30 24 1 24 23
M  V30 25 1 25 24
M  V30 26 1 26 25
M  V30 27 1 27 26
M  V30 28 1 28 23
M  V30 29 1 28 27
M  V30 30 2 29 16
M  V30 31 1 29 20
M  V30 32 1 30 14
M  V30 33 1 31 11
M  V30 34 1 31 30
M  V30 35 1 32 1
M  V30 36 1 33 1
M  V30 37 1 34 1
M  V30 38 1 35 2
M  V30 39 1 36 3
M  V30 40 1 37 3
M  V30 41 1 38 3
M  V30 42 1 39 6
M  V30 43 1 40 7
M  V30 44 1 41 8
M  V30 45 1 42 9
M  V30 46 1 43 12
M  V30 47 1 44 12
M  V30 48 1 45 13
M  V30 49 1 46 13
M  V30 50 1 47 15
M  V30 51 1 48 15
M  V30 52 1 49 17
M  V30 53 1 50 18
M  V30 54 1 51 19
M  V30 55 1 52 24
M  V30 56 1 53 24
M  V30 57 1 54 25
M  V30 58 1 55 25
M  V30 59 1 56 26
M  V30 60 1 57 26
M  V30 61 1 58 27
M  V30 62 1 59 27
M  V30 63 1 60 28
M  V30 64 1 61 28
M  V30 65 1 62 29
M  V30 66 1 63 30
M  V30 67 1 64 30
M  V30 68 1 65 31
M  V30 69 1 66 31
M  V30 70 1 67 14
M  V30 END BOND
M  V30 END CTAB
M  END
>  <b_m_subgroup_collapsed>  (2030) 
0

>  <r_i_docking_score>  (2030) 
-6.3300422698176204

>  <s_m_subgroup_title>  (2030) 
glide-dock_SP_D22_pv

>  <s_m_subgroupid>  (2030) 
glide-dock_SP_D22_pv

>  <Molecule ChEMBL ID>  (2030) 
CHEMBL10085

>  <Standard Type>  (2030) 
Ki

>  <Standard Value>  (2030) 
2.2

>  <label>  (2030) 
1

$$$$
CHEMBL4898361
     RDKit          3D

  0  0  0  0  0  0  0  0  0  0999 V3000
M  V30 BEGIN CTAB
M  V30 COUNTS 35 37 0 0 1
M  V30 BEGIN ATOM
M  V30 1 O 7.649408 4.172420 -12.376992 0
M  V30 2 C 8.524466 4.991910 -12.094142 0
M  V30 3 C 8.484481 5.772266 -10.839189 0
M  V30 4 C 9.387923 6.741432 -10.579178 0
M  V30 5 C 9.408290 7.564195 -9.300419 0
M  V30 6 N 9.035628 6.766685 -8.137079 0
M  V30 7 C 9.386424 7.421192 -6.883072 0
M  V30 8 C 10.899774 7.363204 -6.615372 0
M  V30 9 C 11.285995 7.955366 -5.301035 0
M  V30 10 N 11.686815 7.233984 -4.250321 0
M  V30 11 C 12.085249 8.029505 -3.173008 0
M  V30 12 C 11.931708 9.372203 -3.403767 0
M  V30 13 S 11.293721 9.690820 -4.995900 0
M  V30 14 N 10.417276 7.018121 -11.465348 0
M  V30 15 C 10.595997 6.294293 -12.646930 0
M  V30 16 C 11.692363 6.572121 -13.481618 0
M  V30 17 F 12.556635 7.564743 -13.154787 0
M  V30 18 C 11.897085 5.818504 -14.653519 0
M  V30 19 C 10.996145 4.791861 -14.998087 0
M  V30 20 C 9.887524 4.521231 -14.171409 0
M  V30 21 C 9.681180 5.269663 -12.992146 0
M  V30 22 H 7.685964 5.560042 -10.144560 0
M  V30 23 H 8.709518 8.393625 -9.399026 0
M  V30 24 H 10.398478 7.997026 -9.188225 0
M  V30 25 H 8.020539 6.673237 -8.173142 0
M  V30 26 H 8.879061 6.884840 -6.081780 0
M  V30 27 H 9.011173 8.445249 -6.870854 0
M  V30 28 H 11.464402 7.886867 -7.384475 0
M  V30 29 H 11.237625 6.326274 -6.641018 0
M  V30 30 H 12.452825 7.553596 -2.275774 0
M  V30 31 H 12.150941 10.190540 -2.732153 0
M  V30 32 H 12.746690 6.030679 -15.284910 0
M  V30 33 H 11.155048 4.212183 -15.894655 0
M  V30 34 H 9.199064 3.732754 -14.445224 0
M  V30 35 H 11.096198 7.730912 -11.237845 0
M  V30 END ATOM
M  V30 BEGIN BOND
M  V30 1 2 2 1
M  V30 2 1 3 2
M  V30 3 2 4 3
M  V30 4 1 5 4
M  V30 5 1 6 5
M  V30 6 1 7 6
M  V30 7 1 8 7
M  V30 8 1 9 8
M  V30 9 2 10 9
M  V30 10 1 11 10
M  V30 11 2 12 11
M  V30 12 1 13 9
M  V30 13 1 13 12
M  V30 14 1 14 4
M  V30 15 1 15 14
M  V30 16 2 16 15
M  V30 17 1 17 16
M  V30 18 1 18 16
M  V30 19 2 19 18
M  V30 20 1 20 19
M  V30 21 1 21 2
M  V30 22 1 21 15
M  V30 23 2 21 20
M  V30 24 1 22 3
M  V30 25 1 23 5
M  V30 26 1 24 5
M  V30 27 1 25 6
M  V30 28 1 26 7
M  V30 29 1 27 7
M  V30 30 1 28 8
M  V30 31 1 29 8
M  V30 32 1 30 11
M  V30 33 1 31 12
M  V30 34 1 32 18
M  V30 35 1 33 19
M  V30 36 1 34 20
M  V30 37 1 35 14
M  V30 END BOND
M  V30 END CTAB
M  END
>  <b_m_subgroup_collapsed>  (2031) 
0

>  <r_i_docking_score>  (2031) 
-6.3288600978049798

>  <s_m_subgroup_title>  (2031) 
glide-dock_SP_D22_pv

>  <s_m_subgroupid>  (2031) 
glide-dock_SP_D22_pv

>  <Molecule ChEMBL ID>  (2031) 
CHEMBL4898361

>  <Standard Type>  (2031) 
Ki

>  <Standard Value>  (2031) 
10000.0

>  <label>  (2031) 
0

$$$$
CHEMBL46519
     RDKit          3D

  0  0  0  0  0  0  0  0  0  0999 V3000
M  V30 BEGIN CTAB
M  V30 COUNTS 39 40 0 0 1
M  V30 BEGIN ATOM
M  V30 1 N 12.083293 6.973392 -2.246832 0
M  V30 2 C 11.900412 7.364090 -3.312071 0
M  V30 3 C 11.686063 7.839313 -4.657229 0
M  V30 4 C 12.017200 9.161388 -5.007407 0
M  V30 5 C 12.066274 9.524824 -6.365752 0
M  V30 6 C 11.817519 8.572192 -7.374797 0
M  V30 7 O 12.033020 8.972241 -8.672219 0
M  V30 8 C 11.477448 8.250441 -9.760509 0
M  V30 9 C 9.997867 8.639341 -9.967673 0 CFG=1
M  V30 10 C 9.471782 8.276708 -11.369730 0
M  V30 11 C 9.380312 6.761432 -11.566158 0
M  V30 12 N 8.484083 6.171682 -10.549982 0 CFG=1 CHG=1
M  V30 13 C 8.229203 4.718969 -10.749516 0
M  V30 14 C 7.073961 4.439100 -11.727495 0
M  V30 15 F 7.405855 4.752542 -12.979274 0
M  V30 16 C 8.861298 6.500296 -9.156314 0
M  V30 17 C 9.037126 8.021784 -8.946541 0
M  V30 18 C 11.430658 7.262650 -6.998769 0
M  V30 19 C 11.305091 6.915466 -5.644516 0
M  V30 20 H 12.304711 9.873731 -4.248553 0
M  V30 21 H 12.368038 10.522774 -6.646553 0
M  V30 22 H 12.042439 8.568477 -10.636658 0
M  V30 23 H 11.639134 7.176187 -9.695454 0
M  V30 24 H 9.937535 9.721275 -9.846683 0
M  V30 25 H 8.483952 8.719638 -11.509155 0
M  V30 26 H 10.085927 8.689813 -12.157447 0
M  V30 27 H 10.365949 6.297784 -11.514964 0
M  V30 28 H 8.993814 6.559411 -12.564380 0
M  V30 29 H 9.141066 4.209658 -11.068383 0
M  V30 30 H 7.961475 4.266552 -9.793774 0
M  V30 31 H 6.807268 3.378124 -11.724949 0
M  V30 32 H 6.179979 5.008073 -11.467517 0
M  V30 33 H 9.759726 5.938213 -8.925140 0
M  V30 34 H 8.085871 6.143573 -8.476259 0
M  V30 35 H 9.304902 8.247578 -7.920788 0
M  V30 36 H 8.095926 8.548630 -9.047012 0
M  V30 37 H 11.298340 6.480287 -7.719410 0
M  V30 38 H 11.065383 5.897188 -5.374392 0
M  V30 39 H 7.588374 6.659371 -10.646959 0
M  V30 END ATOM
M  V30 BEGIN BOND
M  V30 1 3 2 1
M  V30 2 1 3 2
M  V30 3 1 4 3
M  V30 4 2 5 4
M  V30 5 1 6 5
M  V30 6 1 7 6
M  V30 7 1 8 7
M  V30 8 1 9 8
M  V30 9 1 10 9
M  V30 10 1 11 10
M  V30 11 1 12 11
M  V30 12 1 13 12
M  V30 13 1 14 13
M  V30 14 1 15 14
M  V30 15 1 16 12
M  V30 16 1 17 9
M  V30 17 1 17 16
M  V30 18 2 18 6
M  V30 19 2 19 3
M  V30 20 1 19 18
M  V30 21 1 20 4
M  V30 22 1 21 5
M  V30 23 1 22 8
M  V30 24 1 23 8
M  V30 25 1 9 24 CFG=3
M  V30 26 1 25 10
M  V30 27 1 26 10
M  V30 28 1 27 11
M  V30 29 1 28 11
M  V30 30 1 29 13
M  V30 31 1 30 13
M  V30 32 1 31 14
M  V30 33 1 32 14
M  V30 34 1 33 16
M  V30 35 1 34 16
M  V30 36 1 35 17
M  V30 37 1 36 17
M  V30 38 1 37 18
M  V30 39 1 38 19
M  V30 40 1 12 39 CFG=3
M  V30 END BOND
M  V30 END CTAB
M  END
>  <b_m_subgroup_collapsed>  (2032) 
0

>  <r_i_docking_score>  (2032) 
-6.3282595785599201

>  <s_m_subgroup_title>  (2032) 
glide-dock_SP_D22_pv

>  <s_m_subgroupid>  (2032) 
glide-dock_SP_D22_pv

>  <Molecule ChEMBL ID>  (2032) 
CHEMBL46519

>  <Standard Type>  (2032) 
Ki

>  <Standard Value>  (2032) 
10000.0

>  <label>  (2032) 
0

$$$$
CHEMBL324073
     RDKit          3D

  0  0  0  0  0  0  0  0  0  0999 V3000
M  V30 BEGIN CTAB
M  V30 COUNTS 40 43 0 0 1
M  V30 BEGIN ATOM
M  V30 1 C 5.674131 4.586281 -12.400926 0
M  V30 2 N 6.861768 3.778522 -12.763994 0 CFG=2 CHG=1
M  V30 3 C 7.959315 4.657606 -13.200441 0
M  V30 4 C 9.243604 3.852381 -13.299125 0
M  V30 5 C 9.146944 2.650729 -14.220081 0
M  V30 6 C 10.259508 2.014479 -14.794560 0
M  V30 7 C 10.082558 0.833510 -15.522714 0
M  V30 8 C 8.794583 0.298940 -15.688910 0
M  V30 9 C 7.619874 0.907394 -15.172969 0
M  V30 10 C 7.856557 2.079431 -14.404707 0
M  V30 11 C 6.596505 2.701644 -13.764046 0 CFG=1
M  V30 12 C 5.655944 1.593393 -13.207278 0
M  V30 13 C 5.345005 0.540441 -14.252749 0
M  V30 14 C 4.085634 -0.097627 -14.235715 0
M  V30 15 C 3.705360 -0.945126 -15.284186 0
M  V30 16 C 4.552724 -1.103138 -16.387728 0
M  V30 17 C 5.810390 -0.458120 -16.435177 0
M  V30 18 C 6.562741 -0.520116 -17.734800 0
M  V30 19 N 6.724774 -1.737228 -18.253130 0
M  V30 20 O 7.007459 0.492100 -18.269485 0
M  V30 21 C 6.263293 0.308477 -15.311828 0
M  V30 22 H 5.257746 5.080760 -13.280766 0
M  V30 23 H 5.936522 5.360498 -11.673252 0
M  V30 24 H 4.890732 3.986272 -11.942477 0
M  V30 25 H 7.718271 5.112425 -14.160795 0
M  V30 26 H 8.105556 5.471791 -12.486234 0
M  V30 27 H 10.050942 4.493980 -13.656529 0
M  V30 28 H 9.549610 3.499690 -12.312079 0
M  V30 29 H 11.253820 2.406069 -14.638215 0
M  V30 30 H 10.936539 0.323245 -15.942249 0
M  V30 31 H 8.719048 -0.627604 -16.230778 0
M  V30 32 H 6.085292 3.186363 -14.597952 0
M  V30 33 H 6.085634 1.089289 -12.344069 0
M  V30 34 H 4.711178 2.024110 -12.872015 0
M  V30 35 H 3.377512 0.099343 -13.446717 0
M  V30 36 H 2.735206 -1.419775 -15.283731 0
M  V30 37 H 4.200464 -1.689836 -17.224663 0
M  V30 38 H 6.377737 -2.539861 -17.745836 0
M  V30 39 H 7.216958 -1.845478 -19.125151 0
M  V30 40 H 7.180907 3.327426 -11.918200 0
M  V30 END ATOM
M  V30 BEGIN BOND
M  V30 1 1 2 1
M  V30 2 1 3 2
M  V30 3 1 4 3
M  V30 4 1 5 4
M  V30 5 1 6 5
M  V30 6 2 7 6
M  V30 7 1 8 7
M  V30 8 2 9 8
M  V30 9 2 10 5
M  V30 10 1 10 9
M  V30 11 1 11 2
M  V30 12 1 11 10
M  V30 13 1 12 11
M  V30 14 1 13 12
M  V30 15 1 14 13
M  V30 16 2 15 14
M  V30 17 1 16 15
M  V30 18 2 17 16
M  V30 19 1 18 17
M  V30 20 1 19 18
M  V30 21 2 20 18
M  V30 22 1 21 9
M  V30 23 2 21 13
M  V30 24 1 21 17
M  V30 25 1 22 1
M  V30 26 1 23 1
M  V30 27 1 24 1
M  V30 28 1 25 3
M  V30 29 1 26 3
M  V30 30 1 27 4
M  V30 31 1 28 4
M  V30 32 1 29 6
M  V30 33 1 30 7
M  V30 34 1 31 8
M  V30 35 1 11 32 CFG=3
M  V30 36 1 33 12
M  V30 37 1 34 12
M  V30 38 1 35 14
M  V30 39 1 36 15
M  V30 40 1 37 16
M  V30 41 1 38 19
M  V30 42 1 39 19
M  V30 43 1 2 40 CFG=1
M  V30 END BOND
M  V30 END CTAB
M  END
>  <b_m_subgroup_collapsed>  (2033) 
0

>  <r_i_docking_score>  (2033) 
-6.3267104434081096

>  <s_m_subgroup_title>  (2033) 
glide-dock_SP_D22_pv

>  <s_m_subgroupid>  (2033) 
glide-dock_SP_D22_pv

>  <Molecule ChEMBL ID>  (2033) 
CHEMBL324073

>  <Standard Type>  (2033) 
Ki

>  <Standard Value>  (2033) 
10000.0

>  <label>  (2033) 
0

$$$$
CHEMBL25074
     RDKit          3D

  0  0  0  0  0  0  0  0  0  0999 V3000
M  V30 BEGIN CTAB
M  V30 COUNTS 52 55 0 0 1
M  V30 BEGIN ATOM
M  V30 1 C 6.145133 4.893883 -12.035969 0
M  V30 2 N 7.439855 5.600916 -11.917244 0 CFG=1 CHG=1
M  V30 3 C 8.016690 5.564135 -10.551256 0
M  V30 4 C 9.120798 6.611312 -10.442706 0 CFG=1
M  V30 5 N 9.614428 6.687980 -9.080149 0
M  V30 6 C 10.155146 7.776823 -8.515138 0
M  V30 7 O 10.370592 8.816905 -9.139292 0
M  V30 8 C 10.507421 7.650463 -7.020052 0
M  V30 9 C 11.635933 6.624884 -6.862755 0
M  V30 10 C 10.969366 9.006977 -6.442651 0
M  V30 11 C 9.285887 7.157317 -6.236713 0
M  V30 12 C 10.224776 6.171638 -11.387189 0
M  V30 13 C 9.727049 6.119741 -12.826698 0 CFG=1
M  V30 14 C 10.859715 5.736022 -13.776704 0
M  V30 15 C 11.952930 6.530330 -14.172240 0
M  V30 16 C 12.885971 6.010107 -15.085594 0
M  V30 17 C 12.719604 4.704699 -15.588196 0
M  V30 18 C 11.648945 3.922387 -15.189314 0
M  V30 19 N 11.286713 2.647902 -15.530037 0
M  V30 20 C 10.144423 2.299119 -14.841263 0
M  V30 21 Cl 9.481886 0.727781 -15.046674 0
M  V30 22 C 9.793056 3.380614 -14.083446 0
M  V30 23 C 10.725031 4.426830 -14.280042 0
M  V30 24 C 8.741958 3.736865 -13.072423 0
M  V30 25 C 8.441027 5.254552 -12.972360 0 CFG=1
M  V30 26 H 6.215545 3.864204 -11.682776 0
M  V30 27 H 5.797365 4.885318 -13.069736 0
M  V30 28 H 5.385218 5.405701 -11.446879 0
M  V30 29 H 7.286034 5.772619 -9.791049 0
M  V30 30 H 8.384876 4.566283 -10.314322 0
M  V30 31 H 8.734344 7.589126 -10.739127 0
M  V30 32 H 9.464271 5.886655 -8.485718 0
M  V30 33 H 12.486975 6.950293 -7.446871 0
M  V30 34 H 11.347452 5.635400 -7.215914 0
M  V30 35 H 11.949944 6.522153 -5.823246 0
M  V30 36 H 11.197449 8.928697 -5.379321 0
M  V30 37 H 10.199512 9.770555 -6.554647 0
M  V30 38 H 11.869101 9.371091 -6.941091 0
M  V30 39 H 9.569064 6.971685 -5.201681 0
M  V30 40 H 8.880300 6.218075 -6.614712 0
M  V30 41 H 8.480720 7.893435 -6.246943 0
M  V30 42 H 11.100228 6.816866 -11.294877 0
M  V30 43 H 10.486008 5.158634 -11.105977 0
M  V30 44 H 9.434451 7.134355 -13.046538 0
M  V30 45 H 12.072977 7.531974 -13.785785 0
M  V30 46 H 13.731744 6.608072 -15.393897 0
M  V30 47 H 13.443705 4.308489 -16.285168 0
M  V30 48 H 11.787812 2.037401 -16.159031 0
M  V30 49 H 7.829875 3.192230 -13.315226 0
M  V30 50 H 9.075541 3.372329 -12.103311 0
M  V30 51 H 7.995242 5.534131 -13.927112 0
M  V30 52 H 7.207642 6.578928 -12.043168 0
M  V30 END ATOM
M  V30 BEGIN BOND
M  V30 1 1 2 1
M  V30 2 1 3 2
M  V30 3 1 4 3
M  V30 4 1 5 4
M  V30 5 1 6 5
M  V30 6 2 7 6
M  V30 7 1 8 6
M  V30 8 1 9 8
M  V30 9 1 10 8
M  V30 10 1 11 8
M  V30 11 1 12 4
M  V30 12 1 13 12
M  V30 13 1 14 13
M  V30 14 1 15 14
M  V30 15 2 16 15
M  V30 16 1 17 16
M  V30 17 2 18 17
M  V30 18 1 19 18
M  V30 19 1 20 19
M  V30 20 1 21 20
M  V30 21 2 22 20
M  V30 22 2 23 14
M  V30 23 1 23 18
M  V30 24 1 23 22
M  V30 25 1 24 22
M  V30 26 1 25 2
M  V30 27 1 25 13
M  V30 28 1 25 24
M  V30 29 1 26 1
M  V30 30 1 27 1
M  V30 31 1 28 1
M  V30 32 1 29 3
M  V30 33 1 30 3
M  V30 34 1 4 31 CFG=3
M  V30 35 1 32 5
M  V30 36 1 33 9
M  V30 37 1 34 9
M  V30 38 1 35 9
M  V30 39 1 36 10
M  V30 40 1 37 10
M  V30 41 1 38 10
M  V30 42 1 39 11
M  V30 43 1 40 11
M  V30 44 1 41 11
M  V30 45 1 42 12
M  V30 46 1 43 12
M  V30 47 1 13 44 CFG=3
M  V30 48 1 45 15
M  V30 49 1 46 16
M  V30 50 1 47 17
M  V30 51 1 48 19
M  V30 52 1 49 24
M  V30 53 1 50 24
M  V30 54 1 25 51 CFG=3
M  V30 55 1 2 52 CFG=3
M  V30 END BOND
M  V30 END CTAB
M  END
>  <b_m_subgroup_collapsed>  (2034) 
0

>  <r_i_docking_score>  (2034) 
-6.3235229314237902

>  <s_m_subgroup_title>  (2034) 
glide-dock_SP_D22_pv

>  <s_m_subgroupid>  (2034) 
glide-dock_SP_D22_pv

>  <Molecule ChEMBL ID>  (2034) 
CHEMBL25074

>  <Standard Type>  (2034) 
Ki

>  <Standard Value>  (2034) 
3.6

>  <label>  (2034) 
1

$$$$
CHEMBL4461327
     RDKit          3D

  0  0  0  0  0  0  0  0  0  0999 V3000
M  V30 BEGIN CTAB
M  V30 COUNTS 50 53 0 0 1
M  V30 BEGIN ATOM
M  V30 1 C 9.787057 -0.670819 -16.646826 0
M  V30 2 O 10.561004 0.512476 -16.670265 0
M  V30 3 C 10.174481 1.537622 -15.836311 0
M  V30 4 C 8.974287 1.549580 -15.086628 0
M  V30 5 C 8.678593 2.636435 -14.245084 0
M  V30 6 C 9.584089 3.713200 -14.124876 0
M  V30 7 C 10.779734 3.747327 -14.909852 0
M  V30 8 C 11.044135 2.638618 -15.750126 0
M  V30 9 C 11.416194 5.005269 -14.650138 0
M  V30 10 C 12.562476 5.580317 -15.391229 0
M  V30 11 N 13.253892 4.905243 -16.376770 0
M  V30 12 C 14.240678 5.715601 -16.905260 0
M  V30 13 N 15.100437 5.320503 -17.790230 0
M  V30 14 C 16.083382 6.173200 -18.270386 0
M  V30 15 C 15.669985 7.584571 -18.706135 0
M  V30 16 O 17.240442 5.808724 -18.473515 0
M  V30 17 N 14.097272 6.924997 -16.246929 0
M  V30 18 C 13.094553 6.806700 -15.318495 0
M  V30 19 C 12.752680 7.982251 -14.432405 0
M  V30 20 C 10.700927 5.636301 -13.670850 0
M  V30 21 N 9.570198 4.890494 -13.370151 0
M  V30 22 S 8.314504 5.455576 -12.312989 0
M  V30 23 O 7.539448 4.271129 -11.917820 0
M  V30 24 O 7.686582 6.561685 -13.046792 0
M  V30 25 C 9.144814 6.119541 -10.866756 0
M  V30 26 C 9.686127 7.422492 -10.916595 0
M  V30 27 C 10.295297 7.973020 -9.772647 0
M  V30 28 C 10.348952 7.227743 -8.577733 0
M  V30 29 C 9.795122 5.931398 -8.528044 0
M  V30 30 C 9.195704 5.371820 -9.673607 0
M  V30 31 H 10.282808 -1.443309 -17.234962 0
M  V30 32 H 9.687210 -1.038477 -15.626206 0
M  V30 33 H 8.795129 -0.507519 -17.071346 0
M  V30 34 H 8.265059 0.736475 -15.137810 0
M  V30 35 H 7.756812 2.624468 -13.683401 0
M  V30 36 H 11.938388 2.608740 -16.347658 0
M  V30 37 H 13.097317 3.936972 -16.605318 0
M  V30 38 H 15.710692 8.284596 -17.868408 0
M  V30 39 H 13.023430 7.769588 -13.397663 0
M  V30 40 H 13.283900 8.879798 -14.749642 0
M  V30 41 H 11.686129 8.177101 -14.487658 0
M  V30 42 H 10.852474 6.593188 -13.204450 0
M  V30 43 H 9.613024 8.008117 -11.821368 0
M  V30 44 H 10.706761 8.972631 -9.805904 0
M  V30 45 H 10.801353 7.656256 -7.695651 0
M  V30 46 H 9.825749 5.372628 -7.604067 0
M  V30 47 H 8.759069 4.386140 -9.624330 0
M  V30 48 H 16.358574 7.952381 -19.472189 0
M  V30 49 H 14.664550 7.594401 -19.132557 0
M  V30 50 H 14.648922 7.762091 -16.351690 0
M  V30 END ATOM
M  V30 BEGIN BOND
M  V30 1 1 2 1
M  V30 2 1 3 2
M  V30 3 1 4 3
M  V30 4 2 5 4
M  V30 5 1 6 5
M  V30 6 2 7 6
M  V30 7 2 8 3
M  V30 8 1 8 7
M  V30 9 1 9 7
M  V30 10 1 10 9
M  V30 11 1 11 10
M  V30 12 1 12 11
M  V30 13 2 13 12
M  V30 14 1 14 13
M  V30 15 1 15 14
M  V30 16 2 16 14
M  V30 17 1 17 12
M  V30 18 2 18 10
M  V30 19 1 18 17
M  V30 20 1 19 18
M  V30 21 2 20 9
M  V30 22 1 21 6
M  V30 23 1 21 20
M  V30 24 1 22 21
M  V30 25 2 23 22
M  V30 26 2 24 22
M  V30 27 1 25 22
M  V30 28 2 26 25
M  V30 29 1 27 26
M  V30 30 2 28 27
M  V30 31 1 29 28
M  V30 32 1 30 25
M  V30 33 2 30 29
M  V30 34 1 31 1
M  V30 35 1 32 1
M  V30 36 1 33 1
M  V30 37 1 34 4
M  V30 38 1 35 5
M  V30 39 1 36 8
M  V30 40 1 37 11
M  V30 41 1 38 15
M  V30 42 1 39 19
M  V30 43 1 40 19
M  V30 44 1 41 19
M  V30 45 1 42 20
M  V30 46 1 43 26
M  V30 47 1 44 27
M  V30 48 1 45 28
M  V30 49 1 46 29
M  V30 50 1 47 30
M  V30 51 1 48 15
M  V30 52 1 49 15
M  V30 53 1 50 17
M  V30 END BOND
M  V30 END CTAB
M  END
>  <b_m_subgroup_collapsed>  (2035) 
0

>  <r_i_docking_score>  (2035) 
-6.3227283862477304

>  <s_m_subgroup_title>  (2035) 
glide-dock_SP_D22_pv

>  <s_m_subgroupid>  (2035) 
glide-dock_SP_D22_pv

>  <Molecule ChEMBL ID>  (2035) 
CHEMBL4461327

>  <Standard Type>  (2035) 
Ki

>  <Standard Value>  (2035) 
10000.0

>  <label>  (2035) 
0

$$$$
CHEMBL611973
     RDKit          3D

  0  0  0  0  0  0  0  0  0  0999 V3000
M  V30 BEGIN CTAB
M  V30 COUNTS 53 57 0 0 1
M  V30 BEGIN ATOM
M  V30 1 C 3.494188 -1.327554 -16.213827 0
M  V30 2 C 5.021413 -1.190374 -16.103031 0
M  V30 3 C 5.570317 -1.253904 -14.655630 0
M  V30 4 N 5.804401 0.050552 -13.969570 0 CFG=2 CHG=1
M  V30 5 C 4.533062 0.709427 -13.662284 0
M  V30 6 C 4.759469 1.896326 -12.736388 0
M  V30 7 C 5.847633 2.873821 -13.134789 0
M  V30 8 C 5.970125 4.165143 -12.596344 0
M  V30 9 C 7.098926 4.941114 -12.885178 0
M  V30 10 C 8.115327 4.425151 -13.707841 0
M  V30 11 C 8.051974 3.134836 -14.293194 0
M  V30 12 C 6.885630 2.382692 -13.971314 0
M  V30 13 C 6.805776 0.968309 -14.595690 0 CFG=1
M  V30 14 C 8.198792 0.299787 -14.634447 0
M  V30 15 C 9.253340 1.177365 -15.265532 0
M  V30 16 C 10.308372 0.578238 -15.997192 0
M  V30 17 C 11.285901 1.377759 -16.620321 0
M  V30 18 C 11.160956 2.767990 -16.496149 0
M  V30 19 C 10.126736 3.361825 -15.788674 0
M  V30 20 C 9.149724 2.582027 -15.122139 0
M  V30 21 O 10.191312 4.727579 -15.852823 0
M  V30 22 C 11.286257 5.114610 -16.703064 0
M  V30 23 C 10.688705 5.775482 -17.955547 0
M  V30 24 C 12.166171 6.096570 -15.914104 0
M  V30 25 C 12.049888 3.813508 -17.070711 0
M  V30 26 H 3.190819 -1.402973 -17.258451 0
M  V30 27 H 2.951867 -0.487637 -15.785745 0
M  V30 28 H 3.148021 -2.227565 -15.710369 0
M  V30 29 H 5.449617 -2.033610 -16.646652 0
M  V30 30 H 5.356033 -0.310589 -16.649359 0
M  V30 31 H 4.889778 -1.839133 -14.043594 0
M  V30 32 H 6.486040 -1.827624 -14.644872 0
M  V30 33 H 4.034657 0.972304 -14.585492 0
M  V30 34 H 3.860527 0.004319 -13.173951 0
M  V30 35 H 3.826926 2.451666 -12.647044 0
M  V30 36 H 5.005124 1.534856 -11.738297 0
M  V30 37 H 5.222956 4.550059 -11.918868 0
M  V30 38 H 7.198469 5.924410 -12.447238 0
M  V30 39 H 8.979325 5.050897 -13.863529 0
M  V30 40 H 6.498193 1.159931 -15.621890 0
M  V30 41 H 8.525593 0.068165 -13.620470 0
M  V30 42 H 8.175364 -0.627607 -15.198155 0
M  V30 43 H 10.371382 -0.497121 -16.083611 0
M  V30 44 H 12.099855 0.934630 -17.175877 0
M  V30 45 H 11.469343 6.106301 -18.640211 0
M  V30 46 H 10.086181 6.644235 -17.695303 0
M  V30 47 H 10.044431 5.081903 -18.497263 0
M  V30 48 H 13.018959 6.429224 -16.505625 0
M  V30 49 H 12.551412 5.636913 -15.003572 0
M  V30 50 H 11.601088 6.980039 -15.618427 0
M  V30 51 H 13.030916 3.753517 -16.597187 0
M  V30 52 H 12.174489 3.677750 -18.146177 0
M  V30 53 H 6.203708 -0.185447 -13.072289 0
M  V30 END ATOM
M  V30 BEGIN BOND
M  V30 1 1 2 1
M  V30 2 1 3 2
M  V30 3 1 4 3
M  V30 4 1 5 4
M  V30 5 1 6 5
M  V30 6 1 7 6
M  V30 7 1 8 7
M  V30 8 2 9 8
M  V30 9 1 10 9
M  V30 10 2 11 10
M  V30 11 2 12 7
M  V30 12 1 12 11
M  V30 13 1 13 4
M  V30 14 1 13 12
M  V30 15 1 14 13
M  V30 16 1 15 14
M  V30 17 1 16 15
M  V30 18 2 17 16
M  V30 19 1 18 17
M  V30 20 2 19 18
M  V30 21 1 20 11
M  V30 22 2 20 15
M  V30 23 1 20 19
M  V30 24 1 21 19
M  V30 25 1 22 21
M  V30 26 1 23 22
M  V30 27 1 24 22
M  V30 28 1 25 18
M  V30 29 1 25 22
M  V30 30 1 26 1
M  V30 31 1 27 1
M  V30 32 1 28 1
M  V30 33 1 29 2
M  V30 34 1 30 2
M  V30 35 1 31 3
M  V30 36 1 32 3
M  V30 37 1 33 5
M  V30 38 1 34 5
M  V30 39 1 35 6
M  V30 40 1 36 6
M  V30 41 1 37 8
M  V30 42 1 38 9
M  V30 43 1 39 10
M  V30 44 1 13 40 CFG=3
M  V30 45 1 41 14
M  V30 46 1 42 14
M  V30 47 1 43 16
M  V30 48 1 44 17
M  V30 49 1 45 23
M  V30 50 1 46 23
M  V30 51 1 47 23
M  V30 52 1 48 24
M  V30 53 1 49 24
M  V30 54 1 50 24
M  V30 55 1 51 25
M  V30 56 1 52 25
M  V30 57 1 4 53 CFG=1
M  V30 END BOND
M  V30 END CTAB
M  END
>  <b_m_subgroup_collapsed>  (2036) 
0

>  <r_i_docking_score>  (2036) 
-6.32263750115668

>  <s_m_subgroup_title>  (2036) 
glide-dock_SP_D22_pv

>  <s_m_subgroupid>  (2036) 
glide-dock_SP_D22_pv

>  <Molecule ChEMBL ID>  (2036) 
CHEMBL611973

>  <Standard Type>  (2036) 
Ki

>  <Standard Value>  (2036) 
10000.0

>  <label>  (2036) 
0

$$$$
CHEMBL5934096
     RDKit          3D

  0  0  0  0  0  0  0  0  0  0999 V3000
M  V30 BEGIN CTAB
M  V30 COUNTS 39 40 0 0 1
M  V30 BEGIN ATOM
M  V30 1 C 5.599498 3.839032 -13.185877 0
M  V30 2 O 6.726386 4.509568 -12.642147 0
M  V30 3 C 7.961533 4.307438 -13.224073 0
M  V30 4 C 8.188170 3.356288 -14.246765 0
M  V30 5 C 9.468712 3.177307 -14.811255 0
M  V30 6 C 9.683914 2.126164 -15.896769 0
M  V30 7 F 10.513325 1.183675 -15.449586 0
M  V30 8 F 8.542681 1.536153 -16.252886 0
M  V30 9 F 10.206993 2.688323 -16.985914 0
M  V30 10 C 10.548093 3.973635 -14.365465 0
M  V30 11 O 11.778980 3.782935 -14.958682 0
M  V30 12 C 12.829473 4.691517 -14.650612 0
M  V30 13 C 10.324047 4.915293 -13.331764 0
M  V30 14 C 9.046966 5.081435 -12.749584 0
M  V30 15 C 8.818110 6.046496 -11.581742 0 CFG=2
M  V30 16 C 9.820459 7.222256 -11.483195 0
M  V30 17 C 9.469745 8.120790 -10.287616 0
M  V30 18 C 9.437667 7.296385 -8.989408 0
M  V30 19 N 8.486041 6.173819 -9.114536 0 CHG=1
M  V30 20 C 8.773932 5.271110 -10.247255 0
M  V30 21 H 4.705530 4.164049 -12.655600 0
M  V30 22 H 5.461111 4.083127 -14.240335 0
M  V30 23 H 5.679937 2.758238 -13.065013 0
M  V30 24 H 7.380625 2.740010 -14.608770 0
M  V30 25 H 13.682918 4.496168 -15.299397 0
M  V30 26 H 12.527993 5.727390 -14.817889 0
M  V30 27 H 13.162899 4.572009 -13.618629 0
M  V30 28 H 11.146324 5.507041 -12.969072 0
M  V30 29 H 7.836291 6.500002 -11.740145 0
M  V30 30 H 10.839141 6.862510 -11.341542 0
M  V30 31 H 9.811934 7.810403 -12.399880 0
M  V30 32 H 10.196328 8.929340 -10.200253 0
M  V30 33 H 8.495933 8.593932 -10.451836 0
M  V30 34 H 10.429706 6.907505 -8.753838 0
M  V30 35 H 9.130274 7.925901 -8.152288 0
M  V30 36 H 8.441295 5.652920 -8.250732 0
M  V30 37 H 7.995680 4.507693 -10.276972 0
M  V30 38 H 9.718191 4.753596 -10.069175 0
M  V30 39 H 7.572882 6.602384 -9.277840 0
M  V30 END ATOM
M  V30 BEGIN BOND
M  V30 1 1 2 1
M  V30 2 1 3 2
M  V30 3 1 4 3
M  V30 4 2 5 4
M  V30 5 1 6 5
M  V30 6 1 7 6
M  V30 7 1 8 6
M  V30 8 1 9 6
M  V30 9 1 10 5
M  V30 10 1 11 10
M  V30 11 1 12 11
M  V30 12 2 13 10
M  V30 13 2 14 3
M  V30 14 1 14 13
M  V30 15 1 15 14
M  V30 16 1 16 15
M  V30 17 1 17 16
M  V30 18 1 18 17
M  V30 19 1 19 18
M  V30 20 1 20 15
M  V30 21 1 20 19
M  V30 22 1 21 1
M  V30 23 1 22 1
M  V30 24 1 23 1
M  V30 25 1 24 4
M  V30 26 1 25 12
M  V30 27 1 26 12
M  V30 28 1 27 12
M  V30 29 1 28 13
M  V30 30 1 15 29 CFG=3
M  V30 31 1 30 16
M  V30 32 1 31 16
M  V30 33 1 32 17
M  V30 34 1 33 17
M  V30 35 1 34 18
M  V30 36 1 35 18
M  V30 37 1 36 19
M  V30 38 1 37 20
M  V30 39 1 38 20
M  V30 40 1 39 19
M  V30 END BOND
M  V30 END CTAB
M  END
>  <b_m_subgroup_collapsed>  (2037) 
0

>  <r_i_docking_score>  (2037) 
-6.3223689137126398

>  <s_m_subgroup_title>  (2037) 
glide-dock_SP_D22_pv

>  <s_m_subgroupid>  (2037) 
glide-dock_SP_D22_pv

>  <Molecule ChEMBL ID>  (2037) 
CHEMBL5934096

>  <Standard Type>  (2037) 
Ki

>  <Standard Value>  (2037) 
10000.0

>  <label>  (2037) 
0

$$$$
CHEMBL5278957
     RDKit          3D

  0  0  0  0  0  0  0  0  0  0999 V3000
M  V30 BEGIN CTAB
M  V30 COUNTS 45 47 0 0 1
M  V30 BEGIN ATOM
M  V30 1 C 5.276219 2.705746 -12.645473 0
M  V30 2 C 6.348174 2.959917 -13.708912 0
M  V30 3 C 6.823976 1.599982 -14.267342 0
M  V30 4 N 7.458927 3.772378 -13.139023 0 CFG=1 CHG=1
M  V30 5 C 8.652661 3.890841 -13.998229 0
M  V30 6 C 9.300064 5.243961 -13.711828 0 CFG=2
M  V30 7 C 10.727555 5.085513 -13.172606 0
M  V30 8 C 8.308379 6.014756 -12.811165 0 CFG=2
M  V30 9 N 8.844026 6.368426 -11.503470 0
M  V30 10 C 9.293865 7.569538 -11.120212 0
M  V30 11 O 9.282739 8.573025 -11.830199 0
M  V30 12 C 9.814224 7.584834 -9.744376 0
M  V30 13 C 10.290451 6.560009 -8.972507 0
M  V30 14 C 10.633319 7.120367 -7.706351 0
M  V30 15 C 11.129499 6.572299 -6.509249 0
M  V30 16 C 11.286064 7.356519 -5.358144 0
M  V30 17 C 11.058082 8.739027 -5.420902 0
M  V30 18 Br 11.288667 9.772729 -3.849734 0
M  V30 19 C 10.643489 9.338598 -6.623176 0
M  V30 20 C 10.394323 8.523650 -7.746978 0
M  V30 21 N 9.918944 8.768360 -9.025546 0
M  V30 22 C 7.079474 5.116441 -12.650814 0
M  V30 23 H 4.432247 2.154218 -13.059000 0
M  V30 24 H 5.679007 2.116621 -11.824420 0
M  V30 25 H 4.884082 3.636867 -12.239911 0
M  V30 26 H 5.901864 3.525785 -14.528233 0
M  V30 27 H 5.978910 1.025203 -14.647925 0
M  V30 28 H 7.520890 1.705682 -15.098150 0
M  V30 29 H 7.302380 0.986683 -13.502993 0
M  V30 30 H 9.327781 3.055276 -13.804648 0
M  V30 31 H 8.379657 3.838083 -15.049011 0
M  V30 32 H 9.376701 5.771698 -14.662252 0
M  V30 33 H 10.719615 4.506763 -12.247990 0
M  V30 34 H 11.362966 4.559996 -13.886466 0
M  V30 35 H 11.192841 6.052860 -12.976438 0
M  V30 36 H 7.992389 6.927707 -13.319998 0
M  V30 37 H 8.848723 5.651612 -10.793747 0
M  V30 38 H 10.365411 5.516175 -9.239277 0
M  V30 39 H 11.368863 5.524440 -6.479336 0
M  V30 40 H 11.621369 6.901752 -4.437196 0
M  V30 41 H 10.486417 10.403310 -6.645987 0
M  V30 42 H 9.615240 9.651950 -9.407121 0
M  V30 43 H 6.714388 5.073311 -11.622275 0
M  V30 44 H 6.262983 5.509275 -13.257470 0
M  V30 45 H 7.786083 3.283682 -12.318328 0
M  V30 END ATOM
M  V30 BEGIN BOND
M  V30 1 1 2 1
M  V30 2 1 3 2
M  V30 3 1 4 2
M  V30 4 1 5 4
M  V30 5 1 6 5
M  V30 6 1 7 6
M  V30 7 1 8 6
M  V30 8 1 9 8
M  V30 9 1 10 9
M  V30 10 2 11 10
M  V30 11 1 12 10
M  V30 12 2 13 12
M  V30 13 1 14 13
M  V30 14 1 15 14
M  V30 15 2 16 15
M  V30 16 1 17 16
M  V30 17 1 18 17
M  V30 18 2 19 17
M  V30 19 2 20 14
M  V30 20 1 20 19
M  V30 21 1 21 12
M  V30 22 1 21 20
M  V30 23 1 22 4
M  V30 24 1 22 8
M  V30 25 1 23 1
M  V30 26 1 24 1
M  V30 27 1 25 1
M  V30 28 1 26 2
M  V30 29 1 27 3
M  V30 30 1 28 3
M  V30 31 1 29 3
M  V30 32 1 30 5
M  V30 33 1 31 5
M  V30 34 1 6 32 CFG=3
M  V30 35 1 33 7
M  V30 36 1 34 7
M  V30 37 1 35 7
M  V30 38 1 8 36 CFG=3
M  V30 39 1 37 9
M  V30 40 1 38 13
M  V30 41 1 39 15
M  V30 42 1 40 16
M  V30 43 1 41 19
M  V30 44 1 42 21
M  V30 45 1 43 22
M  V30 46 1 44 22
M  V30 47 1 4 45 CFG=1
M  V30 END BOND
M  V30 END CTAB
M  END
>  <b_m_subgroup_collapsed>  (2038) 
0

>  <r_i_docking_score>  (2038) 
-6.3212715025243602

>  <s_m_subgroup_title>  (2038) 
glide-dock_SP_D22_pv

>  <s_m_subgroupid>  (2038) 
glide-dock_SP_D22_pv

>  <Molecule ChEMBL ID>  (2038) 
CHEMBL5278957

>  <Standard Type>  (2038) 
Ki

>  <Standard Value>  (2038) 
10000.0

>  <label>  (2038) 
0

$$$$
CHEMBL413483
     RDKit          3D

  0  0  0  0  0  0  0  0  0  0999 V3000
M  V30 BEGIN CTAB
M  V30 COUNTS 41 42 0 0 1
M  V30 BEGIN ATOM
M  V30 1 C 8.700832 7.196296 -12.221400 0
M  V30 2 C 9.418793 8.339816 -11.490162 0
M  V30 3 C 10.576663 7.896892 -10.549354 0 CFG=1
M  V30 4 C 11.578757 9.014672 -10.204834 0
M  V30 5 N 10.111267 7.336804 -9.261302 0 CFG=2 CHG=1
M  V30 6 C 9.731861 5.906333 -9.282276 0
M  V30 7 C 9.647105 5.394123 -7.846627 0
M  V30 8 C 8.717752 6.280701 -6.992443 0
M  V30 9 C 9.107341 7.773578 -7.056290 0 CFG=1
M  V30 10 C 10.391706 8.173450 -6.305721 0
M  V30 11 C 11.038216 9.397515 -6.591707 0
M  V30 12 C 12.084879 9.877337 -5.786744 0
M  V30 13 C 12.484342 9.159795 -4.647151 0
M  V30 14 C 11.873182 7.923841 -4.371414 0
M  V30 15 C 12.218151 7.174900 -3.187929 0
M  V30 16 N 12.485675 6.571303 -2.246774 0
M  V30 17 C 10.884847 7.408184 -5.226076 0
M  V30 18 C 9.113934 8.157674 -8.537426 0
M  V30 19 H 8.050131 7.594366 -12.999535 0
M  V30 20 H 9.408164 6.514521 -12.693853 0
M  V30 21 H 8.063955 6.620134 -11.556566 0
M  V30 22 H 8.689303 8.971642 -10.984262 0
M  V30 23 H 9.809532 8.972009 -12.273238 0
M  V30 24 H 11.158442 7.130724 -11.063314 0
M  V30 25 H 12.188366 9.308791 -11.047882 0
M  V30 26 H 11.090688 9.911080 -9.826597 0
M  V30 27 H 12.286193 8.686944 -9.441393 0
M  V30 28 H 10.469934 5.327479 -9.834253 0
M  V30 29 H 8.768313 5.758390 -9.764722 0
M  V30 30 H 10.649870 5.373414 -7.420940 0
M  V30 31 H 9.283371 4.367932 -7.850521 0
M  V30 32 H 8.649030 5.949306 -5.964036 0
M  V30 33 H 7.702988 6.169573 -7.373161 0
M  V30 34 H 8.303853 8.335544 -6.577974 0
M  V30 35 H 10.726826 10.022044 -7.406472 0
M  V30 36 H 12.551414 10.822643 -6.021656 0
M  V30 37 H 13.253399 9.558671 -4.000758 0
M  V30 38 H 10.430854 6.465164 -4.962342 0
M  V30 39 H 8.141742 7.945274 -8.954291 0
M  V30 40 H 9.255212 9.226541 -8.677635 0
M  V30 41 H 10.932089 7.364665 -8.674035 0
M  V30 END ATOM
M  V30 BEGIN BOND
M  V30 1 1 2 1
M  V30 2 1 3 2
M  V30 3 1 4 3
M  V30 4 1 5 3
M  V30 5 1 6 5
M  V30 6 1 7 6
M  V30 7 1 8 7
M  V30 8 1 9 8
M  V30 9 1 10 9
M  V30 10 2 11 10
M  V30 11 1 12 11
M  V30 12 2 13 12
M  V30 13 1 14 13
M  V30 14 1 15 14
M  V30 15 3 16 15
M  V30 16 1 17 10
M  V30 17 2 17 14
M  V30 18 1 18 5
M  V30 19 1 18 9
M  V30 20 1 19 1
M  V30 21 1 20 1
M  V30 22 1 21 1
M  V30 23 1 22 2
M  V30 24 1 23 2
M  V30 25 1 3 24 CFG=3
M  V30 26 1 25 4
M  V30 27 1 26 4
M  V30 28 1 27 4
M  V30 29 1 28 6
M  V30 30 1 29 6
M  V30 31 1 30 7
M  V30 32 1 31 7
M  V30 33 1 32 8
M  V30 34 1 33 8
M  V30 35 1 9 34 CFG=1
M  V30 36 1 35 11
M  V30 37 1 36 12
M  V30 38 1 37 13
M  V30 39 1 38 17
M  V30 40 1 39 18
M  V30 41 1 40 18
M  V30 42 1 5 41 CFG=1
M  V30 END BOND
M  V30 END CTAB
M  END
>  <b_m_subgroup_collapsed>  (2039) 
0

>  <r_i_docking_score>  (2039) 
-6.3208058534105103

>  <s_m_subgroup_title>  (2039) 
glide-dock_SP_D22_pv

>  <s_m_subgroupid>  (2039) 
glide-dock_SP_D22_pv

>  <Molecule ChEMBL ID>  (2039) 
CHEMBL413483

>  <Standard Type>  (2039) 
Ki

>  <Standard Value>  (2039) 
98.0

>  <label>  (2039) 
1

$$$$
CHEMBL611207
     RDKit          3D

  0  0  0  0  0  0  0  0  0  0999 V3000
M  V30 BEGIN CTAB
M  V30 COUNTS 53 56 0 0 1
M  V30 BEGIN ATOM
M  V30 1 C 8.560035 4.849807 -9.515821 0
M  V30 2 N 8.486036 6.089787 -10.325377 0 CFG=1 CHG=1
M  V30 3 C 9.551314 7.048709 -9.933150 0
M  V30 4 C 9.339264 8.430223 -10.572246 0
M  V30 5 C 9.134168 8.337971 -12.089901 0
M  V30 6 C 8.111223 7.250674 -12.458991 0
M  V30 7 C 8.438317 5.889211 -11.805445 0 CFG=2
M  V30 8 C 7.445579 4.789166 -12.275357 0
M  V30 9 C 7.369651 4.522902 -13.807712 0
M  V30 10 N 8.049355 3.291816 -14.260046 0
M  V30 11 C 7.257280 2.113202 -14.247069 0
M  V30 12 C 6.085853 2.024183 -13.446974 0
M  V30 13 C 5.313411 0.853441 -13.394129 0
M  V30 14 C 5.634304 -0.244852 -14.200780 0
M  V30 15 C 6.773015 -0.176771 -15.012791 0
M  V30 16 C 7.601066 0.963959 -15.007887 0
M  V30 17 S 9.070239 0.861404 -15.964601 0
M  V30 18 C 9.900146 2.378165 -15.646415 0
M  V30 19 C 11.175001 2.515864 -16.235659 0
M  V30 20 C 11.905025 3.706016 -16.101839 0
M  V30 21 C 11.341468 4.765250 -15.377921 0
M  V30 22 S 12.245054 6.344408 -15.238749 0
M  V30 23 C 12.367307 6.329245 -13.389772 0
M  V30 24 O 13.653408 6.079959 -15.776300 0
M  V30 25 C 10.076780 4.628965 -14.776069 0
M  V30 26 C 9.322821 3.428324 -14.880216 0
M  V30 27 H 9.460155 4.281444 -9.754272 0
M  V30 28 H 8.580613 5.087886 -8.451363 0
M  V30 29 H 7.692619 4.207260 -9.669424 0
M  V30 30 H 10.525242 6.646274 -10.217285 0
M  V30 31 H 9.562313 7.164034 -8.848181 0
M  V30 32 H 10.197586 9.064266 -10.349629 0
M  V30 33 H 8.485780 8.923405 -10.112172 0
M  V30 34 H 10.086778 8.120063 -12.567869 0
M  V30 35 H 8.814735 9.302958 -12.485864 0
M  V30 36 H 8.085892 7.140792 -13.525179 0
M  V30 37 H 7.094654 7.574203 -12.246841 0
M  V30 38 H 9.433786 5.565931 -12.101582 0
M  V30 39 H 6.449932 5.069775 -11.928148 0
M  V30 40 H 7.670052 3.840535 -11.791898 0
M  V30 41 H 7.692921 5.370819 -14.395467 0
M  V30 42 H 6.318975 4.463720 -14.094627 0
M  V30 43 H 5.769376 2.828353 -12.803075 0
M  V30 44 H 4.485607 0.805530 -12.716323 0
M  V30 45 H 5.031756 -1.141224 -14.182505 0
M  V30 46 H 7.021259 -1.026793 -15.627325 0
M  V30 47 H 11.594881 1.701165 -16.807610 0
M  V30 48 H 12.877415 3.806115 -16.562290 0
M  V30 49 H 11.382180 6.336517 -12.934760 0
M  V30 50 H 12.885859 5.431721 -13.053843 0
M  V30 51 H 12.902398 7.210680 -13.039552 0
M  V30 52 H 9.711209 5.486536 -14.243603 0
M  V30 53 H 7.603652 6.551361 -10.094872 0
M  V30 END ATOM
M  V30 BEGIN BOND
M  V30 1 1 2 1
M  V30 2 1 3 2
M  V30 3 1 4 3
M  V30 4 1 5 4
M  V30 5 1 6 5
M  V30 6 1 7 2
M  V30 7 1 7 6
M  V30 8 1 8 7
M  V30 9 1 9 8
M  V30 10 1 10 9
M  V30 11 1 11 10
M  V30 12 2 12 11
M  V30 13 1 13 12
M  V30 14 2 14 13
M  V30 15 1 15 14
M  V30 16 1 16 11
M  V30 17 2 16 15
M  V30 18 1 17 16
M  V30 19 1 18 17
M  V30 20 2 19 18
M  V30 21 1 20 19
M  V30 22 2 21 20
M  V30 23 1 22 21
M  V30 24 1 22 23 CFG=1
M  V30 25 2 24 22
M  V30 26 1 25 21
M  V30 27 1 26 10
M  V30 28 1 26 18
M  V30 29 2 26 25
M  V30 30 1 27 1
M  V30 31 1 28 1
M  V30 32 1 29 1
M  V30 33 1 30 3
M  V30 34 1 31 3
M  V30 35 1 32 4
M  V30 36 1 33 4
M  V30 37 1 34 5
M  V30 38 1 35 5
M  V30 39 1 36 6
M  V30 40 1 37 6
M  V30 41 1 7 38 CFG=3
M  V30 42 1 39 8
M  V30 43 1 40 8
M  V30 44 1 41 9
M  V30 45 1 42 9
M  V30 46 1 43 12
M  V30 47 1 44 13
M  V30 48 1 45 14
M  V30 49 1 46 15
M  V30 50 1 47 19
M  V30 51 1 48 20
M  V30 52 1 49 23
M  V30 53 1 50 23
M  V30 54 1 51 23
M  V30 55 1 52 25
M  V30 56 1 2 53 CFG=1
M  V30 END BOND
M  V30 END CTAB
M  END
>  <b_m_subgroup_collapsed>  (2040) 
0

>  <r_i_docking_score>  (2040) 
-6.3191778089269501

>  <s_m_subgroup_title>  (2040) 
glide-dock_SP_D22_pv

>  <s_m_subgroupid>  (2040) 
glide-dock_SP_D22_pv

>  <Molecule ChEMBL ID>  (2040) 
CHEMBL611207

>  <Standard Type>  (2040) 
Ki

>  <Standard Value>  (2040) 
2.2

>  <label>  (2040) 
1

$$$$
CHEMBL608728
     RDKit          3D

  0  0  0  0  0  0  0  0  0  0999 V3000
M  V30 BEGIN CTAB
M  V30 COUNTS 44 47 0 0 1
M  V30 BEGIN ATOM
M  V30 1 C 3.602347 -0.627742 -14.599654 0
M  V30 2 C 4.787714 -0.228246 -14.113173 0
M  V30 3 C 5.041098 1.104550 -13.446839 0
M  V30 4 O 6.086209 1.792410 -14.125571 0
M  V30 5 C 6.546714 2.972572 -13.586603 0
M  V30 6 C 5.705103 3.797504 -12.800250 0
M  V30 7 C 6.180175 4.995888 -12.247097 0
M  V30 8 C 7.495767 5.401151 -12.499541 0
M  V30 9 C 8.334146 4.604583 -13.301270 0
M  V30 10 C 7.892161 3.373267 -13.845527 0
M  V30 11 C 8.869269 2.574782 -14.641476 0
M  V30 12 C 8.796486 1.164038 -14.789184 0
M  V30 13 C 9.699962 0.427692 -15.574888 0
M  V30 14 C 10.743205 1.077646 -16.249474 0
M  V30 15 C 10.908343 2.463804 -16.108475 0
M  V30 16 C 9.993903 3.172588 -15.277653 0
M  V30 17 C 10.176027 4.681584 -15.015967 0 CFG=1
M  V30 18 C 9.737653 5.084105 -13.593922 0
M  V30 19 N 11.515140 5.222692 -15.373110 0 CFG=1 CHG=1
M  V30 20 C 12.583222 4.997642 -14.364602 0
M  V30 21 C 11.888527 4.773377 -16.727375 0
M  V30 22 C 12.048385 3.251904 -16.746080 0
M  V30 23 H 2.725701 0.002444 -14.541891 0
M  V30 24 H 3.492900 -1.596421 -15.067680 0
M  V30 25 H 5.637151 -0.890652 -14.194545 0
M  V30 26 H 4.110535 1.670845 -13.447012 0
M  V30 27 H 5.325447 0.926960 -12.407765 0
M  V30 28 H 4.676862 3.537626 -12.609077 0
M  V30 29 H 5.537049 5.610616 -11.632911 0
M  V30 30 H 7.849508 6.329344 -12.071374 0
M  V30 31 H 8.034424 0.597799 -14.277596 0
M  V30 32 H 9.585784 -0.643780 -15.654762 0
M  V30 33 H 11.436555 0.506726 -16.850193 0
M  V30 34 H 9.476911 5.165295 -15.700373 0
M  V30 35 H 9.802507 6.163466 -13.448654 0
M  V30 36 H 10.382148 4.624195 -12.844453 0
M  V30 37 H 12.638746 3.948295 -14.068750 0
M  V30 38 H 12.411267 5.592937 -13.467493 0
M  V30 39 H 13.555295 5.294538 -14.759658 0
M  V30 40 H 11.110130 5.075022 -17.430166 0
M  V30 41 H 12.807826 5.262589 -17.052856 0
M  V30 42 H 12.973944 2.967732 -16.246614 0
M  V30 43 H 12.160385 2.920269 -17.779686 0
M  V30 44 H 11.407635 6.224452 -15.432173 0
M  V30 END ATOM
M  V30 BEGIN BOND
M  V30 1 2 2 1
M  V30 2 1 3 2
M  V30 3 1 4 3
M  V30 4 1 5 4
M  V30 5 2 6 5
M  V30 6 1 7 6
M  V30 7 2 8 7
M  V30 8 1 9 8
M  V30 9 1 10 5
M  V30 10 2 10 9
M  V30 11 1 11 10
M  V30 12 2 12 11
M  V30 13 1 13 12
M  V30 14 2 14 13
M  V30 15 1 15 14
M  V30 16 1 16 11
M  V30 17 2 16 15
M  V30 18 1 17 16
M  V30 19 1 18 9
M  V30 20 1 18 17
M  V30 21 1 19 17
M  V30 22 1 20 19
M  V30 23 1 21 19
M  V30 24 1 22 15
M  V30 25 1 22 21
M  V30 26 1 23 1
M  V30 27 1 24 1
M  V30 28 1 25 2
M  V30 29 1 26 3
M  V30 30 1 27 3
M  V30 31 1 28 6
M  V30 32 1 29 7
M  V30 33 1 30 8
M  V30 34 1 31 12
M  V30 35 1 32 13
M  V30 36 1 33 14
M  V30 37 1 17 34 CFG=3
M  V30 38 1 35 18
M  V30 39 1 36 18
M  V30 40 1 37 20
M  V30 41 1 38 20
M  V30 42 1 39 20
M  V30 43 1 40 21
M  V30 44 1 41 21
M  V30 45 1 42 22
M  V30 46 1 43 22
M  V30 47 1 19 44 CFG=3
M  V30 END BOND
M  V30 END CTAB
M  END
>  <b_m_subgroup_collapsed>  (2041) 
0

>  <r_i_docking_score>  (2041) 
-6.3184074268080597

>  <s_m_subgroup_title>  (2041) 
glide-dock_SP_D22_pv

>  <s_m_subgroupid>  (2041) 
glide-dock_SP_D22_pv

>  <Molecule ChEMBL ID>  (2041) 
CHEMBL608728

>  <Standard Type>  (2041) 
Ki

>  <Standard Value>  (2041) 
10000.0

>  <label>  (2041) 
0

$$$$
CHEMBL257536
     RDKit          3D

  0  0  0  0  0  0  0  0  0  0999 V3000
M  V30 BEGIN CTAB
M  V30 COUNTS 59 63 0 0 1
M  V30 BEGIN ATOM
M  V30 1 C 10.924438 -0.350965 -17.580194 0
M  V30 2 C 11.445587 1.048431 -17.469404 0
M  V30 3 N 12.508835 1.477040 -18.250122 0
M  V30 4 C 12.713380 2.738217 -17.880907 0
M  V30 5 O 11.855996 3.176643 -16.923820 0
M  V30 6 C 11.055784 2.093972 -16.665134 0
M  V30 7 C 10.001976 2.265672 -15.671665 0
M  V30 8 N 10.216137 2.927870 -14.531054 0
M  V30 9 N 9.025338 2.899026 -13.847281 0
M  V30 10 C 8.172497 2.244186 -14.635290 0
M  V30 11 S 6.486154 1.863747 -14.246786 0
M  V30 12 C 5.979156 3.107293 -13.006995 0
M  V30 13 C 6.227767 4.577938 -13.394604 0
M  V30 14 C 6.215580 5.549523 -12.185339 0
M  V30 15 N 7.539735 5.772503 -11.527189 0 CFG=2 CHG=1
M  V30 16 C 8.436620 6.664279 -12.326457 0
M  V30 17 C 9.750924 7.165516 -11.661936 0
M  V30 18 C 9.797820 7.161705 -10.137543 0
M  V30 19 C 10.106303 8.326993 -9.398303 0
M  V30 20 C 10.257031 8.245070 -7.996406 0
M  V30 21 C 10.036104 7.031624 -7.316352 0
M  V30 22 C 9.684690 5.891381 -8.051423 0
M  V30 23 C 9.627758 5.940102 -9.456127 0
M  V30 24 C 9.467724 4.671628 -10.258557 0
M  V30 25 C 8.112893 4.537716 -10.937193 0
M  V30 26 O 10.160879 6.962457 -5.945909 0
M  V30 27 C 11.061354 7.897801 -5.337694 0
M  V30 28 C 10.922711 9.306182 -5.935155 0
M  V30 29 O 11.096316 10.306927 -5.244034 0
M  V30 30 N 10.613871 9.372175 -7.235755 0
M  V30 31 N 8.721473 1.853250 -15.802547 0
M  V30 32 C 8.076753 1.166252 -16.908937 0
M  V30 33 H 10.486133 -0.690871 -16.638979 0
M  V30 34 H 11.721209 -1.047070 -17.846920 0
M  V30 35 H 10.162101 -0.426053 -18.356123 0
M  V30 36 H 13.479832 3.380291 -18.291830 0
M  V30 37 H 4.908587 2.971705 -12.844602 0
M  V30 38 H 6.416119 2.858401 -12.050686 0
M  V30 39 H 7.141716 4.703514 -13.969344 0
M  V30 40 H 5.424791 4.862230 -14.075635 0
M  V30 41 H 5.831577 6.517963 -12.510272 0
M  V30 42 H 5.493937 5.203560 -11.446886 0
M  V30 43 H 8.679029 6.194962 -13.279831 0
M  V30 44 H 7.847757 7.550819 -12.569879 0
M  V30 45 H 10.592481 6.574363 -12.022977 0
M  V30 46 H 9.957612 8.174295 -12.022637 0
M  V30 47 H 10.272731 9.266116 -9.905379 0
M  V30 48 H 9.513900 4.972106 -7.524613 0
M  V30 49 H 10.212593 4.629878 -11.046082 0
M  V30 50 H 9.685924 3.806661 -9.629997 0
M  V30 51 H 7.390692 4.120465 -10.246809 0
M  V30 52 H 8.251805 3.788473 -11.701069 0
M  V30 53 H 10.886075 7.935875 -4.264159 0
M  V30 54 H 12.085761 7.551221 -5.468449 0
M  V30 55 H 10.594815 10.275143 -7.681848 0
M  V30 56 H 7.050737 1.516439 -17.024481 0
M  V30 57 H 8.062865 0.093381 -16.717310 0
M  V30 58 H 8.603932 1.364883 -17.841604 0
M  V30 59 H 7.295135 6.369009 -10.734787 0
M  V30 END ATOM
M  V30 BEGIN BOND
M  V30 1 1 2 1
M  V30 2 1 3 2
M  V30 3 2 4 3
M  V30 4 1 5 4
M  V30 5 2 6 2
M  V30 6 1 6 5
M  V30 7 1 7 6
M  V30 8 2 8 7
M  V30 9 1 9 8
M  V30 10 2 10 9
M  V30 11 1 11 10
M  V30 12 1 12 11
M  V30 13 1 13 12
M  V30 14 1 14 13
M  V30 15 1 15 14
M  V30 16 1 16 15
M  V30 17 1 17 16
M  V30 18 1 18 17
M  V30 19 2 19 18
M  V30 20 1 20 19
M  V30 21 2 21 20
M  V30 22 1 22 21
M  V30 23 1 23 18
M  V30 24 2 23 22
M  V30 25 1 24 23
M  V30 26 1 25 15
M  V30 27 1 25 24
M  V30 28 1 26 21
M  V30 29 1 27 26
M  V30 30 1 28 27
M  V30 31 2 29 28
M  V30 32 1 30 20
M  V30 33 1 30 28
M  V30 34 1 31 7
M  V30 35 1 31 10
M  V30 36 1 32 31
M  V30 37 1 33 1
M  V30 38 1 34 1
M  V30 39 1 35 1
M  V30 40 1 36 4
M  V30 41 1 37 12
M  V30 42 1 38 12
M  V30 43 1 39 13
M  V30 44 1 40 13
M  V30 45 1 41 14
M  V30 46 1 42 14
M  V30 47 1 43 16
M  V30 48 1 44 16
M  V30 49 1 45 17
M  V30 50 1 46 17
M  V30 51 1 47 19
M  V30 52 1 48 22
M  V30 53 1 49 24
M  V30 54 1 50 24
M  V30 55 1 51 25
M  V30 56 1 52 25
M  V30 57 1 53 27
M  V30 58 1 54 27
M  V30 59 1 55 30
M  V30 60 1 56 32
M  V30 61 1 57 32
M  V30 62 1 58 32
M  V30 63 1 15 59 CFG=1
M  V30 END BOND
M  V30 END CTAB
M  END
>  <b_m_subgroup_collapsed>  (2042) 
0

>  <r_i_docking_score>  (2042) 
-6.3166939708056002

>  <s_m_subgroup_title>  (2042) 
glide-dock_SP_D22_pv

>  <s_m_subgroupid>  (2042) 
glide-dock_SP_D22_pv

>  <Molecule ChEMBL ID>  (2042) 
CHEMBL257536

>  <Standard Type>  (2042) 
Ki

>  <Standard Value>  (2042) 
10000.0

>  <label>  (2042) 
0

$$$$
CHEMBL135954
     RDKit          3D

  0  0  0  0  0  0  0  0  0  0999 V3000
M  V30 BEGIN CTAB
M  V30 COUNTS 48 50 0 0 1
M  V30 BEGIN ATOM
M  V30 1 C 8.496165 4.233427 -8.492369 0
M  V30 2 C 9.572664 5.309525 -8.384238 0
M  V30 3 C 9.041723 6.695361 -8.782499 0
M  V30 4 N 10.132725 7.691723 -9.004248 0 CFG=1 CHG=1
M  V30 5 C 10.929794 7.964329 -7.764685 0
M  V30 6 C 10.097111 8.449814 -6.563920 0
M  V30 7 C 10.912770 8.690947 -5.335089 0
M  V30 8 C 11.119466 9.879078 -4.684834 0
M  V30 9 C 11.858702 9.733587 -3.474748 0
M  V30 10 C 12.236120 8.440704 -3.231188 0
M  V30 11 S 11.686017 7.368905 -4.486417 0
M  V30 12 C 11.002391 7.369771 -10.189328 0 CFG=2
M  V30 13 C 11.841335 8.579256 -10.657066 0
M  V30 14 C 12.778387 8.269717 -11.839316 0
M  V30 15 C 12.176710 7.372308 -12.910008 0
M  V30 16 C 12.812904 7.274422 -14.165514 0
M  V30 17 C 12.362951 6.350879 -15.128264 0
M  V30 18 C 11.262805 5.521036 -14.840130 0
M  V30 19 O 10.823245 4.616280 -15.760957 0
M  V30 20 C 10.595079 5.644750 -13.607681 0
M  V30 21 C 11.031152 6.584270 -12.649666 0
M  V30 22 C 10.219109 6.777611 -11.388867 0
M  V30 23 H 8.885818 3.247241 -8.239788 0
M  V30 24 H 7.686731 4.472899 -7.814728 0
M  V30 25 H 8.087505 4.178898 -9.501164 0
M  V30 26 H 10.411427 4.996336 -9.003524 0
M  V30 27 H 9.947756 5.372302 -7.365081 0
M  V30 28 H 8.345257 7.056105 -8.030722 0
M  V30 29 H 8.404331 6.617065 -9.659893 0
M  V30 30 H 11.497431 7.074461 -7.492072 0
M  V30 31 H 11.669951 8.738635 -7.948863 0
M  V30 32 H 9.574940 9.366764 -6.839314 0
M  V30 33 H 9.329286 7.728626 -6.290232 0
M  V30 34 H 10.739947 10.835378 -5.011021 0
M  V30 35 H 12.084868 10.572149 -2.829958 0
M  V30 36 H 12.801235 8.055460 -2.395264 0
M  V30 37 H 11.689301 6.594430 -9.863887 0
M  V30 38 H 11.150779 9.372051 -10.931166 0
M  V30 39 H 12.465948 8.973021 -9.860647 0
M  V30 40 H 13.651425 7.781734 -11.453806 0
M  V30 41 H 13.215656 9.173743 -12.264296 0
M  V30 42 H 13.685778 7.868433 -14.377970 0
M  V30 43 H 12.878097 6.274531 -16.075243 0
M  V30 44 H 11.335125 4.615105 -16.556273 0
M  V30 45 H 9.721808 5.037553 -13.414818 0
M  V30 46 H 9.376835 7.422965 -11.642796 0
M  V30 47 H 9.811241 5.796845 -11.142837 0
M  V30 48 H 9.652367 8.549250 -9.241809 0
M  V30 END ATOM
M  V30 BEGIN BOND
M  V30 1 1 2 1
M  V30 2 1 3 2
M  V30 3 1 4 3
M  V30 4 1 5 4
M  V30 5 1 6 5
M  V30 6 1 7 6
M  V30 7 2 8 7
M  V30 8 1 9 8
M  V30 9 2 10 9
M  V30 10 1 11 7
M  V30 11 1 11 10
M  V30 12 1 12 4
M  V30 13 1 13 12
M  V30 14 1 14 13
M  V30 15 1 15 14
M  V30 16 1 16 15
M  V30 17 2 17 16
M  V30 18 1 18 17
M  V30 19 1 19 18
M  V30 20 2 20 18
M  V30 21 2 21 15
M  V30 22 1 21 20
M  V30 23 1 22 12
M  V30 24 1 22 21
M  V30 25 1 23 1
M  V30 26 1 24 1
M  V30 27 1 25 1
M  V30 28 1 26 2
M  V30 29 1 27 2
M  V30 30 1 28 3
M  V30 31 1 29 3
M  V30 32 1 30 5
M  V30 33 1 31 5
M  V30 34 1 32 6
M  V30 35 1 33 6
M  V30 36 1 34 8
M  V30 37 1 35 9
M  V30 38 1 36 10
M  V30 39 1 12 37 CFG=1
M  V30 40 1 38 13
M  V30 41 1 39 13
M  V30 42 1 40 14
M  V30 43 1 41 14
M  V30 44 1 42 16
M  V30 45 1 43 17
M  V30 46 1 44 19
M  V30 47 1 45 20
M  V30 48 1 46 22
M  V30 49 1 47 22
M  V30 50 1 4 48 CFG=3
M  V30 END BOND
M  V30 END CTAB
M  END
>  <b_m_subgroup_collapsed>  (2043) 
0

>  <r_i_docking_score>  (2043) 
-6.31542654231915

>  <s_m_subgroup_title>  (2043) 
glide-dock_SP_D22_pv

>  <s_m_subgroupid>  (2043) 
glide-dock_SP_D22_pv

>  <Molecule ChEMBL ID>  (2043) 
CHEMBL135954

>  <Standard Type>  (2043) 
Ki

>  <Standard Value>  (2043) 
0.76

>  <label>  (2043) 
1

$$$$
CHEMBL253096
     RDKit          3D

  0  0  0  0  0  0  0  0  0  0999 V3000
M  V30 BEGIN CTAB
M  V30 COUNTS 46 49 0 0 1
M  V30 BEGIN ATOM
M  V30 1 C 7.868822 0.662506 -15.904974 0
M  V30 2 C 8.795413 1.886333 -15.624984 0 CFG=1
M  V30 3 C 8.205831 2.818060 -14.521699 0
M  V30 4 C 6.813607 2.826455 -14.249247 0
M  V30 5 C 6.256219 3.694025 -13.293049 0
M  V30 6 C 7.078213 4.565702 -12.564042 0
M  V30 7 C 8.475409 4.571711 -12.784093 0
M  V30 8 O 9.360839 5.370587 -12.088809 0
M  V30 9 C 8.829807 6.174036 -11.039142 0
M  V30 10 C 9.885216 6.949299 -10.278306 0
M  V30 11 C 11.036449 7.441103 -10.930100 0
M  V30 12 C 12.000409 8.171993 -10.206326 0
M  V30 13 C 11.813503 8.418542 -8.832778 0
M  V30 14 C 10.654636 7.952012 -8.183674 0
M  V30 15 C 9.691459 7.223230 -8.907859 0
M  V30 16 C 9.015401 3.711424 -13.764519 0
M  V30 17 C 10.182652 1.323609 -15.197003 0
M  V30 18 O 10.276119 0.228084 -14.646796 0
M  V30 19 N 11.285934 2.047330 -15.448493 0
M  V30 20 C 11.295392 3.243154 -16.202925 0
M  V30 21 C 12.446168 4.051574 -16.164808 0
M  V30 22 C 12.501270 5.232177 -16.921728 0
M  V30 23 Cl 13.903132 6.235155 -16.852594 0
M  V30 24 C 11.415383 5.588674 -17.738962 0
M  V30 25 C 10.259340 4.781123 -17.793674 0
M  V30 26 Cl 8.993520 5.297291 -18.849951 0
M  V30 27 C 10.174353 3.609100 -16.988510 0
M  V30 28 C 8.987319 2.693481 -16.944027 0
M  V30 29 O 8.176382 2.572389 -17.864923 0
M  V30 30 H 8.336642 -0.044170 -16.592815 0
M  V30 31 H 7.640868 0.112760 -14.989363 0
M  V30 32 H 6.916917 0.942324 -16.357944 0
M  V30 33 H 6.135427 2.177885 -14.777596 0
M  V30 34 H 5.190319 3.687121 -13.115823 0
M  V30 35 H 6.610001 5.210708 -11.832561 0
M  V30 36 H 8.287613 5.545289 -10.330533 0
M  V30 37 H 8.126593 6.897334 -11.452818 0
M  V30 38 H 11.184735 7.255296 -11.984230 0
M  V30 39 H 12.882283 8.549965 -10.703654 0
M  V30 40 H 12.558124 8.972459 -8.279337 0
M  V30 41 H 10.500506 8.154074 -7.133284 0
M  V30 42 H 8.793916 6.879871 -8.411366 0
M  V30 43 H 10.081608 3.757131 -13.905055 0
M  V30 44 H 12.168633 1.699929 -15.097255 0
M  V30 45 H 13.286561 3.772661 -15.547221 0
M  V30 46 H 11.464886 6.490585 -18.331820 0
M  V30 END ATOM
M  V30 BEGIN BOND
M  V30 1 1 2 1 CFG=3
M  V30 2 1 3 2
M  V30 3 2 4 3
M  V30 4 1 5 4
M  V30 5 2 6 5
M  V30 6 1 7 6
M  V30 7 1 8 7
M  V30 8 1 9 8
M  V30 9 1 10 9
M  V30 10 2 11 10
M  V30 11 1 12 11
M  V30 12 2 13 12
M  V30 13 1 14 13
M  V30 14 1 15 10
M  V30 15 2 15 14
M  V30 16 1 16 3
M  V30 17 2 16 7
M  V30 18 1 17 2
M  V30 19 2 18 17
M  V30 20 1 19 17
M  V30 21 1 20 19
M  V30 22 2 21 20
M  V30 23 1 22 21
M  V30 24 1 23 22
M  V30 25 2 24 22
M  V30 26 1 25 24
M  V30 27 1 26 25
M  V30 28 1 27 20
M  V30 29 2 27 25
M  V30 30 1 28 2
M  V30 31 1 28 27
M  V30 32 2 29 28
M  V30 33 1 30 1
M  V30 34 1 31 1
M  V30 35 1 32 1
M  V30 36 1 33 4
M  V30 37 1 34 5
M  V30 38 1 35 6
M  V30 39 1 36 9
M  V30 40 1 37 9
M  V30 41 1 38 11
M  V30 42 1 39 12
M  V30 43 1 40 13
M  V30 44 1 41 14
M  V30 45 1 42 15
M  V30 46 1 43 16
M  V30 47 1 44 19
M  V30 48 1 45 21
M  V30 49 1 46 24
M  V30 END BOND
M  V30 END CTAB
M  END
>  <b_m_subgroup_collapsed>  (2044) 
0

>  <r_i_docking_score>  (2044) 
-6.3148791767712398

>  <s_m_subgroup_title>  (2044) 
glide-dock_SP_D22_pv

>  <s_m_subgroupid>  (2044) 
glide-dock_SP_D22_pv

>  <Molecule ChEMBL ID>  (2044) 
CHEMBL253096

>  <Standard Type>  (2044) 
Ki

>  <Standard Value>  (2044) 
10000.0

>  <label>  (2044) 
0

$$$$
CHEMBL607559
     RDKit          3D

  0  0  0  0  0  0  0  0  0  0999 V3000
M  V30 BEGIN CTAB
M  V30 COUNTS 42 46 0 0 1
M  V30 BEGIN ATOM
M  V30 1 C 11.915198 8.727927 -10.170963 0
M  V30 2 C 10.917055 7.772854 -10.716003 0
M  V30 3 C 9.675206 7.409493 -10.265058 0
M  V30 4 C 9.219243 6.388046 -11.158466 0
M  V30 5 C 8.083374 5.562169 -11.255281 0
M  V30 6 C 7.986524 4.572974 -12.247701 0
M  V30 7 C 9.028269 4.398502 -13.181617 0
M  V30 8 C 10.152021 5.259251 -13.174876 0
M  V30 9 C 10.222717 6.227561 -12.144533 0
M  V30 10 O 11.256093 7.103692 -11.860342 0
M  V30 11 C 11.173007 5.090569 -14.234664 0
M  V30 12 C 12.019271 6.140631 -14.669571 0
M  V30 13 C 12.894440 6.006611 -15.762913 0
M  V30 14 C 12.930700 4.812228 -16.495630 0
M  V30 15 C 12.113989 3.732910 -16.116385 0
M  V30 16 C 11.287892 3.882142 -14.970617 0
M  V30 17 C 10.410169 2.723988 -14.449467 0 CFG=1
M  V30 18 C 8.980022 3.232354 -14.151277 0
M  V30 19 N 10.483153 1.466251 -15.248491 0 CFG=1 CHG=1
M  V30 20 C 9.447710 0.444931 -14.955400 0
M  V30 21 C 10.679988 1.706783 -16.684296 0
M  V30 22 C 12.019798 2.414759 -16.862947 0
M  V30 23 H 11.573841 9.158578 -9.229413 0
M  V30 24 H 12.086107 9.543033 -10.868464 0
M  V30 25 H 12.869067 8.233041 -9.988998 0
M  V30 26 H 9.137715 7.776606 -9.402352 0
M  V30 27 H 7.285998 5.690614 -10.539048 0
M  V30 28 H 7.117873 3.929520 -12.265764 0
M  V30 29 H 11.981388 7.102827 -14.184625 0
M  V30 30 H 13.515471 6.839154 -16.059271 0
M  V30 31 H 13.579671 4.726762 -17.355473 0
M  V30 32 H 10.836719 2.441667 -13.485795 0
M  V30 33 H 8.354568 2.455267 -13.717871 0
M  V30 34 H 8.487808 3.564322 -15.062745 0
M  V30 35 H 8.474656 0.739183 -15.348208 0
M  V30 36 H 9.351362 0.279428 -13.881598 0
M  V30 37 H 9.713634 -0.512485 -15.407385 0
M  V30 38 H 10.693528 0.760112 -17.228901 0
M  V30 39 H 9.858457 2.301255 -17.086336 0
M  V30 40 H 12.186296 2.603958 -17.923267 0
M  V30 41 H 12.839948 1.772833 -16.542196 0
M  V30 42 H 11.352449 1.042271 -14.955510 0
M  V30 END ATOM
M  V30 BEGIN BOND
M  V30 1 1 2 1
M  V30 2 2 3 2
M  V30 3 1 4 3
M  V30 4 1 5 4
M  V30 5 2 6 5
M  V30 6 1 7 6
M  V30 7 2 8 7
M  V30 8 2 9 4
M  V30 9 1 9 8
M  V30 10 1 10 2
M  V30 11 1 10 9
M  V30 12 1 11 8
M  V30 13 2 12 11
M  V30 14 1 13 12
M  V30 15 2 14 13
M  V30 16 1 15 14
M  V30 17 1 16 11
M  V30 18 2 16 15
M  V30 19 1 17 16
M  V30 20 1 18 7
M  V30 21 1 18 17
M  V30 22 1 19 17
M  V30 23 1 20 19
M  V30 24 1 21 19
M  V30 25 1 22 15
M  V30 26 1 22 21
M  V30 27 1 23 1
M  V30 28 1 24 1
M  V30 29 1 25 1
M  V30 30 1 26 3
M  V30 31 1 27 5
M  V30 32 1 28 6
M  V30 33 1 29 12
M  V30 34 1 30 13
M  V30 35 1 31 14
M  V30 36 1 17 32 CFG=1
M  V30 37 1 33 18
M  V30 38 1 34 18
M  V30 39 1 35 20
M  V30 40 1 36 20
M  V30 41 1 37 20
M  V30 42 1 38 21
M  V30 43 1 39 21
M  V30 44 1 40 22
M  V30 45 1 41 22
M  V30 46 1 19 42 CFG=1
M  V30 END BOND
M  V30 END CTAB
M  END
>  <b_m_subgroup_collapsed>  (2045) 
0

>  <r_i_docking_score>  (2045) 
-6.3120191311320104

>  <s_m_subgroup_title>  (2045) 
glide-dock_SP_D22_pv

>  <s_m_subgroupid>  (2045) 
glide-dock_SP_D22_pv

>  <Molecule ChEMBL ID>  (2045) 
CHEMBL607559

>  <Standard Type>  (2045) 
Ki

>  <Standard Value>  (2045) 
10000.0

>  <label>  (2045) 
0

$$$$
CHEMBL4584746
     RDKit          3D

  0  0  0  0  0  0  0  0  0  0999 V3000
M  V30 BEGIN CTAB
M  V30 COUNTS 46 49 0 0 1
M  V30 BEGIN ATOM
M  V30 1 C 5.158929 -1.845406 -15.376963 0
M  V30 2 C 5.207688 -0.535921 -14.602873 0
M  V30 3 O 4.273989 -0.239305 -13.853822 0
M  V30 4 N 6.311042 0.216400 -14.772358 0
M  V30 5 C 6.555830 1.504335 -14.231931 0
M  V30 6 N 5.678759 2.168934 -13.479828 0
M  V30 7 C 6.231923 3.399486 -13.195204 0
M  V30 8 C 5.519619 4.445150 -12.415563 0
M  V30 9 C 7.505662 3.374599 -13.723123 0
M  V30 10 C 8.576168 4.349983 -13.517241 0
M  V30 11 C 8.566477 5.449197 -12.699841 0
M  V30 12 N 9.823085 6.020930 -12.645630 0
M  V30 13 S 10.171611 7.399267 -11.661615 0
M  V30 14 O 9.286628 8.461782 -12.164812 0
M  V30 15 O 11.633543 7.559206 -11.665758 0
M  V30 16 C 9.684410 7.016092 -9.981538 0
M  V30 17 C 9.305406 5.717677 -9.584879 0
M  V30 18 C 8.887893 5.496655 -8.258836 0
M  V30 19 C 8.886326 6.557873 -7.329458 0
M  V30 20 C 9.286619 7.846855 -7.722921 0
M  V30 21 C 9.683334 8.077538 -9.054579 0
M  V30 22 C 10.657607 5.376921 -13.555662 0
M  V30 23 C 11.990434 5.604156 -13.964579 0
M  V30 24 C 12.565098 4.796790 -14.961282 0
M  V30 25 C 11.820795 3.752079 -15.532048 0
M  V30 26 F 12.368937 2.976190 -16.497162 0
M  V30 27 C 10.504384 3.508098 -15.105467 0
M  V30 28 C 9.879007 4.319979 -14.125426 0
M  V30 29 N 7.687148 2.170282 -14.421685 0
M  V30 30 H 5.686944 -2.624644 -14.826759 0
M  V30 31 H 4.127468 -2.169453 -15.524304 0
M  V30 32 H 5.616481 -1.738301 -16.360428 0
M  V30 33 H 7.034287 -0.162811 -15.363982 0
M  V30 34 H 5.989538 4.592908 -11.447754 0
M  V30 35 H 5.525570 5.398329 -12.945988 0
M  V30 36 H 4.487459 4.163207 -12.247042 0
M  V30 37 H 7.776392 5.855459 -12.084370 0
M  V30 38 H 9.323802 4.883954 -10.271456 0
M  V30 39 H 8.571020 4.509686 -7.957179 0
M  V30 40 H 8.552586 6.384828 -6.316414 0
M  V30 41 H 9.270756 8.659471 -7.010684 0
M  V30 42 H 9.972299 9.070207 -9.369382 0
M  V30 43 H 12.582759 6.401743 -13.541782 0
M  V30 44 H 13.578652 4.981739 -15.283013 0
M  V30 45 H 9.953931 2.699266 -15.560373 0
M  V30 46 H 4.759746 1.830871 -13.225290 0
M  V30 END ATOM
M  V30 BEGIN BOND
M  V30 1 1 2 1
M  V30 2 2 3 2
M  V30 3 1 4 2
M  V30 4 1 5 4
M  V30 5 1 6 5
M  V30 6 1 7 6
M  V30 7 1 8 7
M  V30 8 2 9 7
M  V30 9 1 10 9
M  V30 10 2 11 10
M  V30 11 1 12 11
M  V30 12 1 13 12
M  V30 13 2 14 13
M  V30 14 2 15 13
M  V30 15 1 16 13
M  V30 16 2 17 16
M  V30 17 1 18 17
M  V30 18 2 19 18
M  V30 19 1 20 19
M  V30 20 1 21 16
M  V30 21 2 21 20
M  V30 22 1 22 12
M  V30 23 1 23 22
M  V30 24 2 24 23
M  V30 25 1 25 24
M  V30 26 1 26 25
M  V30 27 2 27 25
M  V30 28 1 28 10
M  V30 29 2 28 22
M  V30 30 1 28 27
M  V30 31 2 29 5
M  V30 32 1 29 9
M  V30 33 1 30 1
M  V30 34 1 31 1
M  V30 35 1 32 1
M  V30 36 1 33 4
M  V30 37 1 34 8
M  V30 38 1 35 8
M  V30 39 1 36 8
M  V30 40 1 37 11
M  V30 41 1 38 17
M  V30 42 1 39 18
M  V30 43 1 40 19
M  V30 44 1 41 20
M  V30 45 1 42 21
M  V30 46 1 43 23
M  V30 47 1 44 24
M  V30 48 1 45 27
M  V30 49 1 46 6
M  V30 END BOND
M  V30 END CTAB
M  END
>  <b_m_subgroup_collapsed>  (2046) 
0

>  <r_i_docking_score>  (2046) 
-6.3096114558781702

>  <s_m_subgroup_title>  (2046) 
glide-dock_SP_D22_pv

>  <s_m_subgroupid>  (2046) 
glide-dock_SP_D22_pv

>  <Molecule ChEMBL ID>  (2046) 
CHEMBL4584746

>  <Standard Type>  (2046) 
Ki

>  <Standard Value>  (2046) 
10000.0

>  <label>  (2046) 
0

$$$$
CHEMBL380124
     RDKit          3D

  0  0  0  0  0  0  0  0  0  0999 V3000
M  V30 BEGIN CTAB
M  V30 COUNTS 22 23 0 0 1
M  V30 BEGIN ATOM
M  V30 1 O 11.169579 7.948173 -10.408401 0
M  V30 2 C 10.773125 8.026336 -9.247355 0
M  V30 3 C 11.687017 8.239884 -8.054606 0
M  V30 4 C 10.693638 8.701714 -6.997378 0 CFG=2
M  V30 5 C 11.158141 8.469781 -5.567002 0
M  V30 6 C 11.493104 9.572694 -4.752415 0
M  V30 7 C 11.955952 9.372539 -3.437524 0
M  V30 8 C 12.086128 8.068819 -2.925940 0
M  V30 9 C 11.747032 6.965483 -3.730870 0
M  V30 10 C 11.285926 7.162290 -5.047594 0
M  V30 11 C 9.386585 8.010829 -7.405959 0
M  V30 12 O 9.509024 7.949172 -8.819383 0
M  V30 13 H 12.471506 8.971585 -8.249700 0
M  V30 14 H 12.143310 7.285864 -7.791988 0
M  V30 15 H 10.546016 9.772574 -7.132320 0
M  V30 16 H 11.402722 10.578408 -5.134502 0
M  V30 17 H 12.209069 10.219059 -2.816479 0
M  V30 18 H 12.436704 7.916699 -1.915594 0
M  V30 19 H 11.841478 5.963099 -3.338416 0
M  V30 20 H 11.039810 6.302874 -5.655053 0
M  V30 21 H 9.322495 6.993851 -7.018407 0
M  V30 22 H 8.500296 8.561503 -7.088821 0
M  V30 END ATOM
M  V30 BEGIN BOND
M  V30 1 2 2 1
M  V30 2 1 3 2
M  V30 3 1 4 3
M  V30 4 1 5 4
M  V30 5 2 6 5
M  V30 6 1 7 6
M  V30 7 2 8 7
M  V30 8 1 9 8
M  V30 9 1 10 5
M  V30 10 2 10 9
M  V30 11 1 11 4
M  V30 12 1 12 2
M  V30 13 1 12 11
M  V30 14 1 13 3
M  V30 15 1 14 3
M  V30 16 1 4 15 CFG=1
M  V30 17 1 16 6
M  V30 18 1 17 7
M  V30 19 1 18 8
M  V30 20 1 19 9
M  V30 21 1 20 10
M  V30 22 1 21 11
M  V30 23 1 22 11
M  V30 END BOND
M  V30 END CTAB
M  END
>  <b_m_subgroup_collapsed>  (2047) 
0

>  <r_i_docking_score>  (2047) 
-6.3095857179597896

>  <s_m_subgroup_title>  (2047) 
glide-dock_SP_D22_pv

>  <s_m_subgroupid>  (2047) 
glide-dock_SP_D22_pv

>  <Molecule ChEMBL ID>  (2047) 
CHEMBL380124

>  <Standard Type>  (2047) 
Ki

>  <Standard Value>  (2047) 
10000.0

>  <label>  (2047) 
0

$$$$
CHEMBL4453955
     RDKit          3D

  0  0  0  0  0  0  0  0  0  0999 V3000
M  V30 BEGIN CTAB
M  V30 COUNTS 53 55 0 0 1
M  V30 BEGIN ATOM
M  V30 1 C 12.507687 8.567533 -1.987422 0
M  V30 2 C 12.069897 7.443344 -2.936059 0
M  V30 3 C 11.630237 7.982291 -4.305234 0
M  V30 4 C 11.052350 6.892130 -5.232644 0
M  V30 5 N 10.526502 7.452919 -6.505808 0 CFG=1 CHG=1
M  V30 6 C 11.599652 7.851908 -7.452178 0
M  V30 7 C 11.024488 8.567367 -8.676427 0
M  V30 8 C 9.928353 7.763429 -9.408542 0 CFG=1
M  V30 9 C 8.891041 7.273489 -8.371763 0
M  V30 10 C 9.535346 6.566711 -7.166981 0
M  V30 11 C 9.285775 8.669701 -10.466807 0
M  V30 12 C 8.992807 7.760125 -11.639550 0
M  V30 13 N 10.128195 6.864004 -11.646525 0
M  V30 14 C 10.087084 5.771988 -12.531125 0
M  V30 15 C 11.155523 5.651693 -13.446912 0
M  V30 16 C 11.200390 4.588801 -14.366550 0
M  V30 17 C 10.167762 3.636072 -14.381653 0
M  V30 18 C 9.094357 3.750072 -13.480423 0
M  V30 19 C 9.037615 4.813438 -12.545895 0
M  V30 20 O 8.006765 4.923879 -11.638375 0
M  V30 21 C 6.729699 4.445478 -12.039490 0
M  V30 22 C 10.488132 6.596576 -10.260141 0
M  V30 23 H 12.886348 8.167747 -1.049092 0
M  V30 24 H 13.286449 9.182500 -2.432741 0
M  V30 25 H 11.685809 9.239180 -1.749838 0
M  V30 26 H 11.259575 6.880121 -2.472587 0
M  V30 27 H 12.892688 6.737584 -3.065054 0
M  V30 28 H 12.485492 8.472132 -4.769408 0
M  V30 29 H 10.885945 8.764307 -4.155734 0
M  V30 30 H 10.242745 6.389303 -4.701922 0
M  V30 31 H 11.800824 6.126714 -5.440212 0
M  V30 32 H 12.301547 8.535336 -6.977112 0
M  V30 33 H 12.162766 6.971899 -7.759166 0
M  V30 34 H 11.830936 8.823696 -9.364597 0
M  V30 35 H 10.602989 9.516152 -8.346904 0
M  V30 36 H 8.332135 8.130497 -7.995643 0
M  V30 37 H 8.163969 6.610797 -8.845621 0
M  V30 38 H 8.750834 6.294606 -6.458659 0
M  V30 39 H 10.016105 5.640015 -7.478349 0
M  V30 40 H 10.037789 9.369740 -10.802566 0
M  V30 41 H 8.426417 9.242330 -10.121025 0
M  V30 42 H 8.892520 8.314811 -12.572881 0
M  V30 43 H 8.071409 7.222752 -11.452233 0
M  V30 44 H 11.952758 6.380827 -13.439362 0
M  V30 45 H 12.026801 4.505356 -15.056999 0
M  V30 46 H 10.200885 2.814276 -15.082289 0
M  V30 47 H 8.324609 2.993637 -13.504453 0
M  V30 48 H 5.960286 4.936137 -11.446912 0
M  V30 49 H 6.515592 4.672140 -13.085351 0
M  V30 50 H 6.637173 3.373031 -11.882758 0
M  V30 51 H 10.102196 5.626935 -9.937789 0
M  V30 52 H 11.573690 6.572351 -10.190857 0
M  V30 53 H 10.016419 8.289231 -6.261328 0
M  V30 END ATOM
M  V30 BEGIN BOND
M  V30 1 1 2 1
M  V30 2 1 3 2
M  V30 3 1 4 3
M  V30 4 1 5 4
M  V30 5 1 6 5
M  V30 6 1 7 6
M  V30 7 1 8 7 CFG=1
M  V30 8 1 9 8
M  V30 9 1 10 5
M  V30 10 1 10 9
M  V30 11 1 11 8
M  V30 12 1 12 11
M  V30 13 1 13 12
M  V30 14 1 14 13
M  V30 15 2 15 14
M  V30 16 1 16 15
M  V30 17 2 17 16
M  V30 18 1 18 17
M  V30 19 1 19 14
M  V30 20 2 19 18
M  V30 21 1 20 19
M  V30 22 1 21 20
M  V30 23 1 22 8
M  V30 24 1 22 13
M  V30 25 1 23 1
M  V30 26 1 24 1
M  V30 27 1 25 1
M  V30 28 1 26 2
M  V30 29 1 27 2
M  V30 30 1 28 3
M  V30 31 1 29 3
M  V30 32 1 30 4
M  V30 33 1 31 4
M  V30 34 1 32 6
M  V30 35 1 33 6
M  V30 36 1 34 7
M  V30 37 1 35 7
M  V30 38 1 36 9
M  V30 39 1 37 9
M  V30 40 1 38 10
M  V30 41 1 39 10
M  V30 42 1 40 11
M  V30 43 1 41 11
M  V30 44 1 42 12
M  V30 45 1 43 12
M  V30 46 1 44 15
M  V30 47 1 45 16
M  V30 48 1 46 17
M  V30 49 1 47 18
M  V30 50 1 48 21
M  V30 51 1 49 21
M  V30 52 1 50 21
M  V30 53 1 51 22
M  V30 54 1 52 22
M  V30 55 1 5 53 CFG=1
M  V30 END BOND
M  V30 END CTAB
M  END
>  <b_m_subgroup_collapsed>  (2048) 
0

>  <r_i_docking_score>  (2048) 
-6.30950920756095

>  <s_m_subgroup_title>  (2048) 
glide-dock_SP_D22_pv

>  <s_m_subgroupid>  (2048) 
glide-dock_SP_D22_pv

>  <Molecule ChEMBL ID>  (2048) 
CHEMBL4453955

>  <Standard Type>  (2048) 
Ki

>  <Standard Value>  (2048) 
25823.0

>  <label>  (2048) 
0

$$$$
CHEMBL3764246
     RDKit          3D

  0  0  0  0  0  0  0  0  0  0999 V3000
M  V30 BEGIN CTAB
M  V30 COUNTS 65 69 0 0 1
M  V30 BEGIN ATOM
M  V30 1 C 3.148496 -3.260581 -19.045187 0
M  V30 2 C 4.193533 -2.184870 -18.827616 0
M  V30 3 C 5.492533 -2.540852 -18.416441 0
M  V30 4 C 6.475883 -1.547898 -18.242331 0
M  V30 5 C 6.170097 -0.192369 -18.473650 0
M  V30 6 C 7.248516 0.864054 -18.297636 0 CFG=1
M  V30 7 C 7.522555 1.179174 -16.808317 0
M  V30 8 N 8.584465 2.170516 -16.633667 0
M  V30 9 C 8.829670 2.443350 -15.213582 0
M  V30 10 C 9.850348 3.565521 -14.938243 0
M  V30 11 C 9.988155 3.937400 -13.454842 0
M  V30 12 S 8.587026 4.936157 -12.865538 0
M  V30 13 C 9.481783 6.022631 -11.800717 0
M  V30 14 N 10.366629 6.911904 -12.246973 0
M  V30 15 N 10.838008 7.550667 -11.129728 0
M  V30 16 C 10.211152 6.995959 -10.087070 0
M  V30 17 C 10.497161 7.437258 -8.723554 0
M  V30 18 C 10.566813 6.526455 -7.649366 0
M  V30 19 C 10.885790 6.972332 -6.353732 0
M  V30 20 C 11.153081 8.334732 -6.102534 0
M  V30 21 C 11.500834 8.804213 -4.752780 0
M  V30 22 N 11.230226 10.043194 -4.370890 0
M  V30 23 O 11.685796 10.059855 -3.046983 0
M  V30 24 C 12.174220 8.821054 -2.803617 0
M  V30 25 C 12.732203 8.530250 -1.460159 0
M  V30 26 N 12.085782 7.986617 -3.835465 0
M  V30 27 C 11.080319 9.242572 -7.180053 0
M  V30 28 C 10.753436 8.802150 -8.475333 0
M  V30 29 N 9.347244 6.022119 -10.459899 0
M  V30 30 C 8.486209 5.185488 -9.643815 0
M  V30 31 C 9.782273 1.705460 -17.330490 0
M  V30 32 C 9.505344 1.409815 -18.812050 0
M  V30 33 O 8.463037 0.448026 -18.920696 0
M  V30 34 C 4.863217 0.167169 -18.866604 0
M  V30 35 C 3.879764 -0.827219 -19.045370 0
M  V30 36 H 3.032357 -3.458972 -20.110312 0
M  V30 37 H 3.430310 -4.192024 -18.554411 0
M  V30 38 H 2.183303 -2.951875 -18.646847 0
M  V30 39 H 5.742353 -3.575118 -18.236635 0
M  V30 40 H 7.470874 -1.831965 -17.930912 0
M  V30 41 H 6.912206 1.771321 -18.799170 0
M  V30 42 H 7.794454 0.257409 -16.290770 0
M  V30 43 H 6.605276 1.536991 -16.340090 0
M  V30 44 H 9.154337 1.530922 -14.709666 0
M  V30 45 H 7.884110 2.722747 -14.745419 0
M  V30 46 H 9.587695 4.455339 -15.515367 0
M  V30 47 H 10.837199 3.255409 -15.285966 0
M  V30 48 H 10.910709 4.504492 -13.329519 0
M  V30 49 H 10.086186 3.046478 -12.832104 0
M  V30 50 H 10.403518 5.472663 -7.808694 0
M  V30 51 H 10.932208 6.252953 -5.547977 0
M  V30 52 H 12.886018 7.456887 -1.347439 0
M  V30 53 H 13.685722 9.037082 -1.334544 0
M  V30 54 H 12.043708 8.878860 -0.691461 0
M  V30 55 H 11.287385 10.290561 -7.017718 0
M  V30 56 H 10.711945 9.519788 -9.282312 0
M  V30 57 H 7.686090 4.765747 -10.247466 0
M  V30 58 H 9.059456 4.361776 -9.221914 0
M  V30 59 H 8.044643 5.775272 -8.841719 0
M  V30 60 H 10.572476 2.454120 -17.278917 0
M  V30 61 H 10.168974 0.805908 -16.848213 0
M  V30 62 H 9.227329 2.320766 -19.342638 0
M  V30 63 H 10.401558 1.018408 -19.294676 0
M  V30 64 H 4.611498 1.202544 -19.040434 0
M  V30 65 H 2.886472 -0.543192 -19.357143 0
M  V30 END ATOM
M  V30 BEGIN BOND
M  V30 1 1 2 1
M  V30 2 1 3 2
M  V30 3 2 4 3
M  V30 4 1 5 4
M  V30 5 1 6 5
M  V30 6 1 7 6
M  V30 7 1 8 7
M  V30 8 1 9 8
M  V30 9 1 10 9
M  V30 10 1 11 10
M  V30 11 1 12 11
M  V30 12 1 13 12
M  V30 13 2 14 13
M  V30 14 1 15 14
M  V30 15 2 16 15
M  V30 16 1 17 16
M  V30 17 1 18 17
M  V30 18 2 19 18
M  V30 19 1 20 19
M  V30 20 1 21 20
M  V30 21 2 22 21
M  V30 22 1 23 22
M  V30 23 1 24 23
M  V30 24 1 25 24
M  V30 25 1 26 21
M  V30 26 2 26 24
M  V30 27 2 27 20
M  V30 28 2 28 17
M  V30 29 1 28 27
M  V30 30 1 29 13
M  V30 31 1 29 16
M  V30 32 1 30 29
M  V30 33 1 31 8
M  V30 34 1 32 31
M  V30 35 1 33 6
M  V30 36 1 33 32
M  V30 37 2 34 5
M  V30 38 2 35 2
M  V30 39 1 35 34
M  V30 40 1 36 1
M  V30 41 1 37 1
M  V30 42 1 38 1
M  V30 43 1 39 3
M  V30 44 1 40 4
M  V30 45 1 6 41 CFG=3
M  V30 46 1 42 7
M  V30 47 1 43 7
M  V30 48 1 44 9
M  V30 49 1 45 9
M  V30 50 1 46 10
M  V30 51 1 47 10
M  V30 52 1 48 11
M  V30 53 1 49 11
M  V30 54 1 50 18
M  V30 55 1 51 19
M  V30 56 1 52 25
M  V30 57 1 53 25
M  V30 58 1 54 25
M  V30 59 1 55 27
M  V30 60 1 56 28
M  V30 61 1 57 30
M  V30 62 1 58 30
M  V30 63 1 59 30
M  V30 64 1 60 31
M  V30 65 1 61 31
M  V30 66 1 62 32
M  V30 67 1 63 32
M  V30 68 1 64 34
M  V30 69 1 65 35
M  V30 END BOND
M  V30 END CTAB
M  END
>  <b_m_subgroup_collapsed>  (2049) 
0

>  <r_i_docking_score>  (2049) 
-6.3074650126027896

>  <s_m_subgroup_title>  (2049) 
glide-dock_SP_D22_pv

>  <s_m_subgroupid>  (2049) 
glide-dock_SP_D22_pv

>  <Molecule ChEMBL ID>  (2049) 
CHEMBL3764246

>  <Standard Type>  (2049) 
Ki

>  <Standard Value>  (2049) 
25118.86

>  <label>  (2049) 
0

$$$$
CHEMBL113524
     RDKit          3D

  0  0  0  0  0  0  0  0  0  0999 V3000
M  V30 BEGIN CTAB
M  V30 COUNTS 65 68 0 0 1
M  V30 BEGIN ATOM
M  V30 1 C 8.726037 5.240089 -8.638340 0
M  V30 2 C 9.408800 5.476235 -9.993398 0
M  V30 3 N 9.060081 6.784915 -10.628065 0 CFG=2 CHG=1
M  V30 4 C 8.662882 6.684145 -12.066196 0
M  V30 5 C 9.471444 5.746274 -12.939420 0
M  V30 6 C 10.738680 5.760469 -13.470895 0
M  V30 7 C 10.925700 4.587845 -14.253408 0
M  V30 8 C 9.757365 3.880816 -14.241814 0
M  V30 9 C 9.319613 2.642415 -14.890086 0
M  V30 10 C 8.176973 1.987856 -14.384281 0
M  V30 11 C 7.691591 0.814714 -14.974734 0
M  V30 12 S 6.328154 -0.056953 -14.216785 0
M  V30 13 O 5.645604 -0.818730 -15.271990 0
M  V30 14 O 6.883891 -0.748771 -13.046937 0
M  V30 15 C 5.146412 1.238483 -13.629369 0
M  V30 16 C 5.320730 1.622609 -12.157214 0
M  V30 17 C 8.333450 0.274783 -16.099655 0
M  V30 18 C 9.486865 0.899334 -16.606676 0
M  V30 19 C 10.000766 2.078027 -16.004398 0
M  V30 20 O 11.135025 2.710936 -16.469351 0
M  V30 21 C 11.959821 2.030091 -17.404640 0
M  V30 22 N 8.892596 4.596772 -13.434560 0
M  V30 23 C 9.972776 7.942468 -10.340213 0 CFG=2
M  V30 24 C 11.267582 7.893373 -11.164685 0
M  V30 25 C 12.396003 8.765872 -10.637281 0
M  V30 26 C 12.740304 8.370478 -9.206880 0
M  V30 27 C 11.516595 8.428326 -8.322558 0
M  V30 28 C 11.678419 8.753156 -6.960687 0
M  V30 29 C 10.560685 8.802961 -6.113326 0
M  V30 30 C 9.282291 8.572279 -6.646754 0
M  V30 31 C 9.109726 8.331207 -8.009001 0
M  V30 32 C 10.219185 8.211007 -8.857645 0
M  V30 33 H 8.706473 4.176029 -8.400819 0
M  V30 34 H 9.257867 5.725903 -7.822241 0
M  V30 35 H 7.695985 5.597430 -8.635419 0
M  V30 36 H 9.083490 4.655140 -10.631935 0
M  V30 37 H 10.485745 5.371795 -9.886252 0
M  V30 38 H 7.624586 6.348986 -12.063654 0
M  V30 39 H 8.625859 7.675584 -12.518802 0
M  V30 40 H 11.492926 6.519398 -13.358364 0
M  V30 41 H 11.824061 4.317764 -14.787665 0
M  V30 42 H 7.667592 2.379929 -13.522711 0
M  V30 43 H 5.286280 2.119341 -14.246765 0
M  V30 44 H 4.140924 0.853744 -13.801069 0
M  V30 45 H 4.480900 2.172331 -11.780590 0
M  V30 46 H 5.485674 0.766436 -11.501991 0
M  V30 47 H 6.087663 2.362259 -12.018551 0
M  V30 48 H 7.958337 -0.627868 -16.555483 0
M  V30 49 H 9.962375 0.448752 -17.464449 0
M  V30 50 H 12.874667 2.602079 -17.557838 0
M  V30 51 H 12.249765 1.042881 -17.041603 0
M  V30 52 H 11.466220 1.931359 -18.372240 0
M  V30 53 H 7.940014 4.318380 -13.248637 0
M  V30 54 H 9.435592 8.834248 -10.669475 0
M  V30 55 H 11.033309 8.171605 -12.186049 0
M  V30 56 H 11.658334 6.884617 -11.178399 0
M  V30 57 H 12.085402 9.807280 -10.647220 0
M  V30 58 H 13.273484 8.680264 -11.279574 0
M  V30 59 H 13.541081 8.972303 -8.788331 0
M  V30 60 H 13.143721 7.372329 -9.201153 0
M  V30 61 H 12.657990 8.972486 -6.562039 0
M  V30 62 H 10.681871 9.029826 -5.064606 0
M  V30 63 H 8.399886 8.604624 -6.030257 0
M  V30 64 H 8.107594 8.203346 -8.382010 0
M  V30 65 H 8.182685 7.063555 -10.194480 0
M  V30 END ATOM
M  V30 BEGIN BOND
M  V30 1 1 2 1
M  V30 2 1 3 2
M  V30 3 1 4 3
M  V30 4 1 5 4
M  V30 5 2 6 5
M  V30 6 1 7 6
M  V30 7 2 8 7
M  V30 8 1 9 8
M  V30 9 1 10 9
M  V30 10 2 11 10
M  V30 11 1 12 11
M  V30 12 2 13 12
M  V30 13 2 14 12
M  V30 14 1 15 12
M  V30 15 1 16 15
M  V30 16 1 17 11
M  V30 17 2 18 17
M  V30 18 2 19 9
M  V30 19 1 19 18
M  V30 20 1 20 19
M  V30 21 1 21 20
M  V30 22 1 22 5
M  V30 23 1 22 8
M  V30 24 1 23 3
M  V30 25 1 24 23
M  V30 26 1 25 24
M  V30 27 1 26 25
M  V30 28 1 27 26
M  V30 29 2 28 27
M  V30 30 1 29 28
M  V30 31 2 30 29
M  V30 32 1 31 30
M  V30 33 1 32 23
M  V30 34 1 32 27
M  V30 35 2 32 31
M  V30 36 1 33 1
M  V30 37 1 34 1
M  V30 38 1 35 1
M  V30 39 1 36 2
M  V30 40 1 37 2
M  V30 41 1 38 4
M  V30 42 1 39 4
M  V30 43 1 40 6
M  V30 44 1 41 7
M  V30 45 1 42 10
M  V30 46 1 43 15
M  V30 47 1 44 15
M  V30 48 1 45 16
M  V30 49 1 46 16
M  V30 50 1 47 16
M  V30 51 1 48 17
M  V30 52 1 49 18
M  V30 53 1 50 21
M  V30 54 1 51 21
M  V30 55 1 52 21
M  V30 56 1 53 22
M  V30 57 1 23 54 CFG=3
M  V30 58 1 55 24
M  V30 59 1 56 24
M  V30 60 1 57 25
M  V30 61 1 58 25
M  V30 62 1 59 26
M  V30 63 1 60 26
M  V30 64 1 61 28
M  V30 65 1 62 29
M  V30 66 1 63 30
M  V30 67 1 64 31
M  V30 68 1 3 65 CFG=1
M  V30 END BOND
M  V30 END CTAB
M  END
>  <b_m_subgroup_collapsed>  (2050) 
0

>  <r_i_docking_score>  (2050) 
-6.3065045646164499

>  <s_m_subgroup_title>  (2050) 
glide-dock_SP_D22_pv

>  <s_m_subgroupid>  (2050) 
glide-dock_SP_D22_pv

>  <Molecule ChEMBL ID>  (2050) 
CHEMBL113524

>  <Standard Type>  (2050) 
Ki

>  <Standard Value>  (2050) 
12.59

>  <label>  (2050) 
1

$$$$
CHEMBL5934096
     RDKit          3D

  0  0  0  0  0  0  0  0  0  0999 V3000
M  V30 BEGIN CTAB
M  V30 COUNTS 39 40 0 0 1
M  V30 BEGIN ATOM
M  V30 1 C 5.408408 3.519687 -13.194214 0
M  V30 2 O 6.476605 4.257924 -12.628245 0
M  V30 3 C 7.736950 4.115454 -13.169703 0
M  V30 4 C 8.027229 3.240300 -14.246279 0
M  V30 5 C 9.338393 3.106613 -14.753208 0
M  V30 6 C 9.623711 2.138910 -15.898802 0
M  V30 7 F 10.145153 2.798974 -16.932713 0
M  V30 8 F 10.486577 1.204703 -15.498928 0
M  V30 9 F 8.517750 1.525470 -16.320986 0
M  V30 10 C 10.386309 3.872391 -14.193790 0
M  V30 11 O 11.650339 3.734269 -14.729779 0
M  V30 12 C 12.665678 4.636350 -14.311000 0
M  V30 13 C 10.097074 4.734043 -13.110123 0
M  V30 14 C 8.790304 4.861254 -12.593215 0
M  V30 15 C 8.540351 5.766814 -11.386716 0 CFG=1
M  V30 16 C 9.038814 5.102428 -10.087824 0
M  V30 17 C 8.863873 6.025407 -8.872467 0
M  V30 18 C 9.453958 7.421676 -9.128085 0
M  V30 19 N 8.886067 7.998677 -10.364497 0 CHG=1
M  V30 20 C 9.145477 7.178875 -11.561961 0
M  V30 21 H 4.484687 3.774670 -12.677334 0
M  V30 22 H 5.285834 3.772859 -14.246368 0
M  V30 23 H 5.560097 2.444444 -13.090665 0
M  V30 24 H 7.247044 2.643093 -14.689794 0
M  V30 25 H 13.555548 4.488835 -14.920938 0
M  V30 26 H 12.359602 5.676156 -14.434295 0
M  V30 27 H 12.942109 4.463063 -13.270863 0
M  V30 28 H 10.888713 5.297526 -12.648017 0
M  V30 29 H 7.465993 5.913774 -11.275640 0
M  V30 30 H 8.495692 4.172680 -9.917980 0
M  V30 31 H 10.085162 4.829535 -10.187137 0
M  V30 32 H 7.802174 6.116695 -8.649121 0
M  V30 33 H 9.322107 5.576015 -7.990285 0
M  V30 34 H 9.225394 8.082785 -8.290631 0
M  V30 35 H 10.540334 7.368338 -9.211797 0
M  V30 36 H 7.857303 8.011303 -10.241168 0
M  V30 37 H 10.222048 7.151850 -11.728666 0
M  V30 38 H 8.698654 7.672414 -12.425618 0
M  V30 39 H 9.213054 8.941936 -10.501255 0
M  V30 END ATOM
M  V30 BEGIN BOND
M  V30 1 1 2 1
M  V30 2 1 3 2
M  V30 3 1 4 3
M  V30 4 2 5 4
M  V30 5 1 6 5
M  V30 6 1 7 6
M  V30 7 1 8 6
M  V30 8 1 9 6
M  V30 9 1 10 5
M  V30 10 1 11 10
M  V30 11 1 12 11
M  V30 12 2 13 10
M  V30 13 2 14 3
M  V30 14 1 14 13
M  V30 15 1 15 14
M  V30 16 1 16 15
M  V30 17 1 17 16
M  V30 18 1 18 17
M  V30 19 1 19 18
M  V30 20 1 20 15
M  V30 21 1 20 19
M  V30 22 1 21 1
M  V30 23 1 22 1
M  V30 24 1 23 1
M  V30 25 1 24 4
M  V30 26 1 25 12
M  V30 27 1 26 12
M  V30 28 1 27 12
M  V30 29 1 28 13
M  V30 30 1 15 29 CFG=1
M  V30 31 1 30 16
M  V30 32 1 31 16
M  V30 33 1 32 17
M  V30 34 1 33 17
M  V30 35 1 34 18
M  V30 36 1 35 18
M  V30 37 1 36 19
M  V30 38 1 37 20
M  V30 39 1 38 20
M  V30 40 1 39 19
M  V30 END BOND
M  V30 END CTAB
M  END
>  <b_m_subgroup_collapsed>  (2051) 
0

>  <r_i_docking_score>  (2051) 
-6.3064257380725097

>  <s_m_subgroup_title>  (2051) 
glide-dock_SP_D22_pv

>  <s_m_subgroupid>  (2051) 
glide-dock_SP_D22_pv

>  <Molecule ChEMBL ID>  (2051) 
CHEMBL5934096

>  <Standard Type>  (2051) 
Ki

>  <Standard Value>  (2051) 
10000.0

>  <label>  (2051) 
0

$$$$
CHEMBL4204595
     RDKit          3D

  0  0  0  0  0  0  0  0  0  0999 V3000
M  V30 BEGIN CTAB
M  V30 COUNTS 33 35 0 0 1
M  V30 BEGIN ATOM
M  V30 1 C 11.814314 6.730789 -3.031724 0
M  V30 2 C 11.287148 6.690437 -4.478468 0
M  V30 3 N 11.375572 7.974345 -5.165096 0
M  V30 4 C 11.921251 9.111723 -4.696399 0
M  V30 5 N 11.952321 10.114257 -5.559714 0
M  V30 6 C 11.374115 9.581399 -6.700821 0
M  V30 7 C 10.968878 8.290147 -6.465041 0
M  V30 8 C 10.243420 7.393842 -7.357702 0
M  V30 9 C 9.169782 6.597849 -7.047535 0
M  V30 10 N 8.682475 5.997420 -8.190910 0
M  V30 11 C 9.414189 6.382602 -9.287172 0
M  V30 12 C 9.285872 6.089993 -10.654374 0
M  V30 13 C 10.236810 6.591383 -11.559402 0
M  V30 14 C 11.321541 7.372339 -11.084879 0
M  V30 15 O 12.380668 7.773205 -11.866990 0
M  V30 16 C 12.431116 7.337718 -13.217321 0
M  V30 17 C 11.378057 7.725217 -9.719109 0
M  V30 18 C 10.439173 7.232943 -8.780714 0
M  V30 19 H 11.686485 5.772402 -2.537264 0
M  V30 20 H 12.879024 6.966338 -3.006093 0
M  V30 21 H 11.286621 7.470662 -2.429081 0
M  V30 22 H 10.253744 6.350668 -4.488506 0
M  V30 23 H 11.856677 5.962566 -5.057433 0
M  V30 24 H 12.336327 9.215670 -3.704914 0
M  V30 25 H 11.278086 10.170774 -7.597650 0
M  V30 26 H 8.664311 6.450992 -6.107110 0
M  V30 27 H 7.820058 5.471794 -8.216718 0
M  V30 28 H 8.468969 5.473969 -11.000413 0
M  V30 29 H 10.141962 6.323607 -12.600640 0
M  V30 30 H 13.329467 7.737629 -13.687275 0
M  V30 31 H 12.478248 6.249681 -13.283070 0
M  V30 32 H 11.578119 7.699967 -13.789972 0
M  V30 33 H 12.191648 8.346034 -9.373436 0
M  V30 END ATOM
M  V30 BEGIN BOND
M  V30 1 1 2 1
M  V30 2 1 3 2
M  V30 3 1 4 3
M  V30 4 2 5 4
M  V30 5 1 6 5
M  V30 6 1 7 3
M  V30 7 2 7 6
M  V30 8 1 8 7
M  V30 9 2 9 8
M  V30 10 1 10 9
M  V30 11 1 11 10
M  V30 12 1 12 11
M  V30 13 2 13 12
M  V30 14 1 14 13
M  V30 15 1 15 14
M  V30 16 1 16 15
M  V30 17 2 17 14
M  V30 18 1 18 8
M  V30 19 2 18 11
M  V30 20 1 18 17
M  V30 21 1 19 1
M  V30 22 1 20 1
M  V30 23 1 21 1
M  V30 24 1 22 2
M  V30 25 1 23 2
M  V30 26 1 24 4
M  V30 27 1 25 6
M  V30 28 1 26 9
M  V30 29 1 27 10
M  V30 30 1 28 12
M  V30 31 1 29 13
M  V30 32 1 30 16
M  V30 33 1 31 16
M  V30 34 1 32 16
M  V30 35 1 33 17
M  V30 END BOND
M  V30 END CTAB
M  END
>  <b_m_subgroup_collapsed>  (2052) 
0

>  <r_i_docking_score>  (2052) 
-6.30489143692746

>  <s_m_subgroup_title>  (2052) 
glide-dock_SP_D22_pv

>  <s_m_subgroupid>  (2052) 
glide-dock_SP_D22_pv

>  <Molecule ChEMBL ID>  (2052) 
CHEMBL4204595

>  <Standard Type>  (2052) 
Ki

>  <Standard Value>  (2052) 
10000.0

>  <label>  (2052) 
0

$$$$
CHEMBL118254
     RDKit          3D

  0  0  0  0  0  0  0  0  0  0999 V3000
M  V30 BEGIN CTAB
M  V30 COUNTS 42 45 0 0 1
M  V30 BEGIN ATOM
M  V30 1 C 12.076319 7.684246 -11.233084 0
M  V30 2 C 11.772377 6.998248 -12.574066 0
M  V30 3 C 10.483084 6.172955 -12.646888 0
M  V30 4 C 9.457378 6.413198 -11.702232 0
M  V30 5 C 8.291406 5.631718 -11.679955 0
M  V30 6 C 8.152758 4.569520 -12.580079 0
M  V30 7 C 9.158715 4.314333 -13.526899 0
M  V30 8 C 10.302346 5.152606 -13.633480 0
M  V30 9 C 11.215277 4.890973 -14.781946 0
M  V30 10 C 11.922773 5.909354 -15.476621 0
M  V30 11 C 12.722552 5.662929 -16.605289 0
M  V30 12 C 12.802108 4.371024 -17.139183 0
M  V30 13 C 12.075336 3.330362 -16.545935 0
M  V30 14 C 11.316916 3.603657 -15.372702 0
M  V30 15 C 10.470832 2.509254 -14.685111 0 CFG=1
M  V30 16 C 9.058319 3.065521 -14.388603 0
M  V30 17 N 10.490525 1.171789 -15.351520 0 CFG=1 CHG=1
M  V30 18 C 9.441013 0.213904 -14.933413 0
M  V30 19 C 10.660434 1.242949 -16.809809 0
M  V30 20 C 11.996294 1.920488 -17.092251 0
M  V30 21 H 13.050653 8.172448 -11.266418 0
M  V30 22 H 12.089456 6.972634 -10.407530 0
M  V30 23 H 11.347021 8.461411 -11.007832 0
M  V30 24 H 11.720051 7.774000 -13.327876 0
M  V30 25 H 12.612988 6.354403 -12.827814 0
M  V30 26 H 9.540441 7.197780 -10.965010 0
M  V30 27 H 7.518610 5.822439 -10.946146 0
M  V30 28 H 7.281076 3.934721 -12.517119 0
M  V30 29 H 11.836553 6.937374 -15.177337 0
M  V30 30 H 13.245768 6.479394 -17.082329 0
M  V30 31 H 13.390425 4.190924 -18.026705 0
M  V30 32 H 10.941881 2.328372 -13.715693 0
M  V30 33 H 8.444102 2.343747 -13.851169 0
M  V30 34 H 8.535670 3.311334 -15.312917 0
M  V30 35 H 8.461511 0.491069 -15.333991 0
M  V30 36 H 9.372247 0.172800 -13.846912 0
M  V30 37 H 9.681152 -0.789577 -15.288984 0
M  V30 38 H 10.662468 0.238927 -17.235676 0
M  V30 39 H 9.828771 1.787318 -17.262417 0
M  V30 40 H 12.166495 1.951726 -18.170427 0
M  V30 41 H 12.826488 1.363949 -16.662939 0
M  V30 42 H 11.355445 0.764514 -15.032662 0
M  V30 END ATOM
M  V30 BEGIN BOND
M  V30 1 1 2 1
M  V30 2 1 3 2
M  V30 3 1 4 3
M  V30 4 2 5 4
M  V30 5 1 6 5
M  V30 6 2 7 6
M  V30 7 2 8 3
M  V30 8 1 8 7
M  V30 9 1 9 8
M  V30 10 2 10 9
M  V30 11 1 11 10
M  V30 12 2 12 11
M  V30 13 1 13 12
M  V30 14 1 14 9
M  V30 15 2 14 13
M  V30 16 1 15 14
M  V30 17 1 16 7
M  V30 18 1 16 15
M  V30 19 1 17 15
M  V30 20 1 18 17
M  V30 21 1 19 17
M  V30 22 1 20 13
M  V30 23 1 20 19
M  V30 24 1 21 1
M  V30 25 1 22 1
M  V30 26 1 23 1
M  V30 27 1 24 2
M  V30 28 1 25 2
M  V30 29 1 26 4
M  V30 30 1 27 5
M  V30 31 1 28 6
M  V30 32 1 29 10
M  V30 33 1 30 11
M  V30 34 1 31 12
M  V30 35 1 15 32 CFG=1
M  V30 36 1 33 16
M  V30 37 1 34 16
M  V30 38 1 35 18
M  V30 39 1 36 18
M  V30 40 1 37 18
M  V30 41 1 38 19
M  V30 42 1 39 19
M  V30 43 1 40 20
M  V30 44 1 41 20
M  V30 45 1 17 42 CFG=1
M  V30 END BOND
M  V30 END CTAB
M  END
>  <b_m_subgroup_collapsed>  (2053) 
0

>  <r_i_docking_score>  (2053) 
-6.3044934663159102

>  <s_m_subgroup_title>  (2053) 
glide-dock_SP_D22_pv

>  <s_m_subgroupid>  (2053) 
glide-dock_SP_D22_pv

>  <Molecule ChEMBL ID>  (2053) 
CHEMBL118254

>  <Standard Type>  (2053) 
Ki

>  <Standard Value>  (2053) 
79.2

>  <label>  (2053) 
1

$$$$
CHEMBL2159475
     RDKit          3D

  0  0  0  0  0  0  0  0  0  0999 V3000
M  V30 BEGIN CTAB
M  V30 COUNTS 44 46 0 0 1
M  V30 BEGIN ATOM
M  V30 1 O 11.061702 9.457731 -9.656100 0
M  V30 2 S 11.613564 8.172472 -9.216521 0
M  V30 3 O 13.020372 7.819962 -9.446678 0
M  V30 4 N 10.652432 6.925472 -9.896562 0
M  V30 5 C 9.223948 7.137749 -10.106318 0 CFG=1
M  V30 6 C 8.993955 7.751110 -11.498064 0
M  V30 7 C 8.416607 6.612020 -12.331526 0
M  V30 8 N 7.686096 5.772324 -11.366609 0 CFG=1 CHG=1
M  V30 9 C 7.324019 4.416299 -11.841953 0
M  V30 10 C 6.306398 4.445775 -12.996907 0
M  V30 11 O 5.895517 3.134775 -13.354657 0
M  V30 12 C 6.761141 2.314772 -14.051019 0
M  V30 13 C 8.007000 2.729996 -14.590305 0
M  V30 14 C 8.842370 1.812071 -15.254722 0
M  V30 15 Cl 10.367616 2.327327 -15.874056 0
M  V30 16 C 8.436326 0.475212 -15.408828 0
M  V30 17 C 7.199005 0.056506 -14.887750 0
M  V30 18 C 6.373037 0.966423 -14.206152 0
M  V30 19 Cl 4.885478 0.409937 -13.531097 0
M  V30 20 C 8.456418 5.803530 -10.106587 0
M  V30 21 C 11.351612 8.063035 -7.467042 0
M  V30 22 C 10.929884 6.971722 -6.750244 0
M  V30 23 C 10.964322 7.197654 -5.342499 0
M  V30 24 C 11.389829 8.463478 -5.034896 0
M  V30 25 Cl 11.686052 9.156265 -3.490614 0
M  V30 26 S 11.686676 9.432951 -6.443415 0
M  V30 27 H 10.915879 5.989341 -9.591634 0
M  V30 28 H 8.840416 7.799274 -9.328096 0
M  V30 29 H 8.266578 8.561847 -11.436789 0
M  V30 30 H 9.895149 8.171002 -11.947615 0
M  V30 31 H 7.766738 6.980415 -13.125399 0
M  V30 32 H 9.225257 6.036935 -12.786197 0
M  V30 33 H 8.233569 3.887445 -12.124795 0
M  V30 34 H 6.885656 3.850852 -11.020736 0
M  V30 35 H 5.415272 4.988736 -12.680841 0
M  V30 36 H 6.686365 4.972098 -13.867647 0
M  V30 37 H 8.358484 3.745637 -14.498359 0
M  V30 38 H 9.071692 -0.232320 -15.921691 0
M  V30 39 H 6.886121 -0.972062 -14.999876 0
M  V30 40 H 9.137965 4.951872 -10.066411 0
M  V30 41 H 7.784853 5.735065 -9.250007 0
M  V30 42 H 10.650082 6.019073 -7.173915 0
M  V30 43 H 10.709229 6.432270 -4.623943 0
M  V30 44 H 6.850297 6.305037 -11.128586 0
M  V30 END ATOM
M  V30 BEGIN BOND
M  V30 1 2 2 1
M  V30 2 2 3 2
M  V30 3 1 4 2
M  V30 4 1 5 4
M  V30 5 1 6 5
M  V30 6 1 7 6
M  V30 7 1 8 7
M  V30 8 1 9 8
M  V30 9 1 10 9
M  V30 10 1 11 10
M  V30 11 1 12 11
M  V30 12 1 13 12
M  V30 13 2 14 13
M  V30 14 1 15 14
M  V30 15 1 16 14
M  V30 16 2 17 16
M  V30 17 2 18 12
M  V30 18 1 18 17
M  V30 19 1 19 18
M  V30 20 1 20 5
M  V30 21 1 20 8
M  V30 22 1 21 2
M  V30 23 2 22 21
M  V30 24 1 23 22
M  V30 25 2 24 23
M  V30 26 1 25 24
M  V30 27 1 26 21
M  V30 28 1 26 24
M  V30 29 1 27 4
M  V30 30 1 5 28 CFG=1
M  V30 31 1 29 6
M  V30 32 1 30 6
M  V30 33 1 31 7
M  V30 34 1 32 7
M  V30 35 1 33 9
M  V30 36 1 34 9
M  V30 37 1 35 10
M  V30 38 1 36 10
M  V30 39 1 37 13
M  V30 40 1 38 16
M  V30 41 1 39 17
M  V30 42 1 40 20
M  V30 43 1 41 20
M  V30 44 1 42 22
M  V30 45 1 43 23
M  V30 46 1 8 44 CFG=1
M  V30 END BOND
M  V30 END CTAB
M  END
>  <b_m_subgroup_collapsed>  (2054) 
0

>  <r_i_docking_score>  (2054) 
-6.3006800779957697

>  <s_m_subgroup_title>  (2054) 
glide-dock_SP_D22_pv

>  <s_m_subgroupid>  (2054) 
glide-dock_SP_D22_pv

>  <Molecule ChEMBL ID>  (2054) 
CHEMBL2159475

>  <Standard Type>  (2054) 
Ki

>  <Standard Value>  (2054) 
78.0

>  <label>  (2054) 
1

$$$$
CHEMBL5870203
     RDKit          3D

  0  0  0  0  0  0  0  0  0  0999 V3000
M  V30 BEGIN CTAB
M  V30 COUNTS 71 74 0 0 1
M  V30 BEGIN ATOM
M  V30 1 C 12.172544 7.459164 -1.979507 0
M  V30 2 N 11.904280 8.138226 -3.217440 0
M  V30 3 C 11.686043 7.594832 -4.460969 0
M  V30 4 C 11.432032 8.633275 -5.311193 0
M  V30 5 C 11.146641 8.597112 -6.709318 0
M  V30 6 C 10.894224 7.459300 -7.374608 0
M  V30 7 C 10.643267 7.477888 -8.797777 0
M  V30 8 O 10.876637 8.412569 -9.565678 0
M  V30 9 N 10.134394 6.306443 -9.185777 0
M  V30 10 C 9.802035 5.951552 -10.552963 0 CFG=1
M  V30 11 C 9.625685 4.440667 -10.650677 0
M  V30 12 C 9.296599 4.047914 -12.094608 0
M  V30 13 C 7.944183 4.646341 -12.527044 0 CFG=2
M  V30 14 F 6.984509 4.172268 -11.735258 0
M  V30 15 C 7.513330 4.296074 -13.956702 0
M  V30 16 C 7.373822 2.797677 -14.317197 0
M  V30 17 N 8.648348 2.043100 -14.481536 0 CFG=2 CHG=1
M  V30 18 C 9.650500 2.738873 -15.343090 0
M  V30 19 C 10.934291 1.942497 -15.604385 0
M  V30 20 C 10.765456 0.904851 -16.665569 0
M  V30 21 N 11.854120 0.594998 -17.476322 0
M  V30 22 C 11.543694 -0.318470 -18.390871 0
M  V30 23 O 12.380513 -0.822579 -19.312782 0
M  V30 24 C 11.984289 -0.627802 -20.668381 0
M  V30 25 C 12.097675 0.844105 -21.115679 0
M  V30 26 C 13.459432 1.479370 -20.797573 0
M  V30 27 F 11.932166 0.875225 -22.437431 0
M  V30 28 F 11.126386 1.570990 -20.564236 0
M  V30 29 S 9.896362 -0.925310 -18.277876 0
M  V30 30 C 9.622565 0.203325 -16.972454 0
M  V30 31 C 8.291070 0.303162 -16.300352 0
M  V30 32 C 8.395114 0.606220 -14.794724 0
M  V30 33 C 8.018141 6.174218 -12.358141 0
M  V30 34 C 8.470695 6.572219 -10.948670 0
M  V30 35 C 11.470885 9.772304 -4.467824 0
M  V30 36 N 11.770702 9.476632 -3.217228 0
M  V30 37 H 12.568327 6.461611 -2.174594 0
M  V30 38 H 12.885992 8.029346 -1.379419 0
M  V30 39 H 11.227181 7.371740 -1.447056 0
M  V30 40 H 11.734748 6.529014 -4.632239 0
M  V30 41 H 11.144631 9.531607 -7.252652 0
M  V30 42 H 10.881604 6.517412 -6.843357 0
M  V30 43 H 9.946410 5.614491 -8.476752 0
M  V30 44 H 10.585516 6.298308 -11.228224 0
M  V30 45 H 10.482224 3.886775 -10.288198 0
M  V30 46 H 8.807442 4.172397 -9.981512 0
M  V30 47 H 10.098566 4.402826 -12.743319 0
M  V30 48 H 9.289332 2.972227 -12.182509 0
M  V30 49 H 6.523036 4.728964 -14.097622 0
M  V30 50 H 8.144506 4.832703 -14.654579 0
M  V30 51 H 6.758811 2.309243 -13.559942 0
M  V30 52 H 6.812072 2.721544 -15.248563 0
M  V30 53 H 9.198370 3.048259 -16.287310 0
M  V30 54 H 9.960501 3.653019 -14.847682 0
M  V30 55 H 11.715882 2.640663 -15.909891 0
M  V30 56 H 11.288932 1.489433 -14.677653 0
M  V30 57 H 12.658107 -1.230844 -21.277681 0
M  V30 58 H 10.983606 -1.015484 -20.860556 0
M  V30 59 H 13.506781 2.503302 -21.168289 0
M  V30 60 H 13.640112 1.511654 -19.722773 0
M  V30 61 H 14.272091 0.919042 -21.261299 0
M  V30 62 H 7.680518 1.055200 -16.799791 0
M  V30 63 H 7.748040 -0.628674 -16.432808 0
M  V30 64 H 9.183517 -0.003143 -14.350712 0
M  V30 65 H 7.480734 0.283467 -14.296952 0
M  V30 66 H 8.725780 6.574443 -13.079964 0
M  V30 67 H 7.051018 6.630179 -12.573168 0
M  V30 68 H 7.720258 6.172792 -10.257160 0
M  V30 69 H 8.489619 7.657997 -10.851479 0
M  V30 70 H 11.286077 10.802868 -4.729567 0
M  V30 71 H 9.062380 2.025754 -13.559666 0
M  V30 END ATOM
M  V30 BEGIN BOND
M  V30 1 1 2 1
M  V30 2 1 3 2
M  V30 3 2 4 3
M  V30 4 1 5 4
M  V30 5 2 6 5
M  V30 6 1 7 6
M  V30 7 2 8 7
M  V30 8 1 9 7
M  V30 9 1 10 9
M  V30 10 1 11 10
M  V30 11 1 12 11
M  V30 12 1 13 12
M  V30 13 1 13 14 CFG=1
M  V30 14 1 15 13
M  V30 15 1 16 15
M  V30 16 1 17 16
M  V30 17 1 18 17
M  V30 18 1 19 18
M  V30 19 1 20 19
M  V30 20 1 21 20
M  V30 21 2 22 21
M  V30 22 1 23 22
M  V30 23 1 24 23
M  V30 24 1 25 24
M  V30 25 1 26 25
M  V30 26 1 27 25
M  V30 27 1 28 25
M  V30 28 1 29 22
M  V30 29 2 30 20
M  V30 30 1 30 29
M  V30 31 1 31 30
M  V30 32 1 32 17
M  V30 33 1 32 31
M  V30 34 1 33 13
M  V30 35 1 34 10
M  V30 36 1 34 33
M  V30 37 1 35 4
M  V30 38 1 36 2
M  V30 39 2 36 35
M  V30 40 1 37 1
M  V30 41 1 38 1
M  V30 42 1 39 1
M  V30 43 1 40 3
M  V30 44 1 41 5
M  V30 45 1 42 6
M  V30 46 1 43 9
M  V30 47 1 10 44 CFG=3
M  V30 48 1 45 11
M  V30 49 1 46 11
M  V30 50 1 47 12
M  V30 51 1 48 12
M  V30 52 1 49 15
M  V30 53 1 50 15
M  V30 54 1 51 16
M  V30 55 1 52 16
M  V30 56 1 53 18
M  V30 57 1 54 18
M  V30 58 1 55 19
M  V30 59 1 56 19
M  V30 60 1 57 24
M  V30 61 1 58 24
M  V30 62 1 59 26
M  V30 63 1 60 26
M  V30 64 1 61 26
M  V30 65 1 62 31
M  V30 66 1 63 31
M  V30 67 1 64 32
M  V30 68 1 65 32
M  V30 69 1 66 33
M  V30 70 1 67 33
M  V30 71 1 68 34
M  V30 72 1 69 34
M  V30 73 1 70 35
M  V30 74 1 17 71 CFG=1
M  V30 END BOND
M  V30 END CTAB
M  END
>  <b_m_subgroup_collapsed>  (2055) 
0

>  <r_i_docking_score>  (2055) 
-6.2974930895426899

>  <s_m_subgroup_title>  (2055) 
glide-dock_SP_D22_pv

>  <s_m_subgroupid>  (2055) 
glide-dock_SP_D22_pv

>  <Molecule ChEMBL ID>  (2055) 
CHEMBL5870203

>  <Standard Type>  (2055) 
Ki

>  <Standard Value>  (2055) 
63.0

>  <label>  (2055) 
1

$$$$
CHEMBL3104093
     RDKit          3D

  0  0  0  0  0  0  0  0  0  0999 V3000
M  V30 BEGIN CTAB
M  V30 COUNTS 43 47 0 0 1
M  V30 BEGIN ATOM
M  V30 1 C 9.566236 8.068958 -6.655411 0
M  V30 2 N 10.111846 7.717026 -7.986310 0 CFG=2 CHG=1
M  V30 3 C 11.017408 8.771040 -8.536164 0
M  V30 4 C 11.755020 8.305717 -9.813924 0
M  V30 5 C 10.861275 7.478180 -10.674976 0
M  V30 6 C 9.625480 7.020555 -10.276318 0
M  V30 7 C 9.219119 6.210683 -11.364290 0
M  V30 8 C 8.027784 5.513455 -11.439467 0
M  V30 9 C 7.791046 4.754483 -12.594231 0
M  V30 10 C 8.762620 4.692293 -13.609351 0
M  V30 11 C 10.008688 5.372194 -13.531423 0
M  V30 12 C 10.162850 6.172569 -12.358126 0
M  V30 13 N 11.157690 6.972363 -11.943941 0
M  V30 14 C 12.374665 7.100950 -12.707687 0
M  V30 15 C 12.128501 7.475536 -14.163175 0
M  V30 16 C 11.953830 6.215044 -14.987919 0
M  V30 17 C 12.837291 6.017519 -16.072660 0
M  V30 18 C 12.822363 4.817642 -16.801613 0
M  V30 19 C 11.925635 3.802847 -16.437025 0
M  V30 20 C 11.034648 4.004580 -15.366848 0
M  V30 21 C 11.006459 5.216288 -14.629170 0
M  V30 22 C 9.030733 7.374848 -8.949488 0
M  V30 23 H 8.953263 8.971284 -6.708237 0
M  V30 24 H 10.372442 8.246501 -5.942774 0
M  V30 25 H 8.948851 7.258447 -6.263090 0
M  V30 26 H 10.410440 9.643049 -8.782032 0
M  V30 27 H 11.742311 9.095135 -7.787147 0
M  V30 28 H 12.096979 9.180157 -10.367963 0
M  V30 29 H 12.639359 7.727066 -9.546210 0
M  V30 30 H 7.286061 5.569275 -10.654361 0
M  V30 31 H 6.860271 4.214163 -12.697075 0
M  V30 32 H 8.524446 4.096381 -14.477177 0
M  V30 33 H 13.005054 7.851676 -12.231183 0
M  V30 34 H 12.885959 6.144831 -12.646918 0
M  V30 35 H 11.290486 8.166368 -14.247460 0
M  V30 36 H 12.998478 8.020649 -14.531697 0
M  V30 37 H 13.556390 6.779532 -16.336521 0
M  V30 38 H 13.510125 4.668501 -17.621161 0
M  V30 39 H 11.922866 2.865884 -16.974945 0
M  V30 40 H 10.374144 3.190969 -15.113496 0
M  V30 41 H 8.399359 6.572833 -8.564827 0
M  V30 42 H 8.431605 8.274862 -9.051828 0
M  V30 43 H 10.662027 6.877481 -7.870159 0
M  V30 END ATOM
M  V30 BEGIN BOND
M  V30 1 1 2 1
M  V30 2 1 3 2
M  V30 3 1 4 3
M  V30 4 1 5 4
M  V30 5 2 6 5
M  V30 6 1 7 6
M  V30 7 1 8 7
M  V30 8 2 9 8
M  V30 9 1 10 9
M  V30 10 2 11 10
M  V30 11 2 12 7
M  V30 12 1 12 11
M  V30 13 1 13 5
M  V30 14 1 13 12
M  V30 15 1 14 13
M  V30 16 1 15 14
M  V30 17 1 16 15
M  V30 18 2 17 16
M  V30 19 1 18 17
M  V30 20 2 19 18
M  V30 21 1 20 19
M  V30 22 1 21 11
M  V30 23 1 21 16
M  V30 24 2 21 20
M  V30 25 1 22 2
M  V30 26 1 22 6
M  V30 27 1 23 1
M  V30 28 1 24 1
M  V30 29 1 25 1
M  V30 30 1 26 3
M  V30 31 1 27 3
M  V30 32 1 28 4
M  V30 33 1 29 4
M  V30 34 1 30 8
M  V30 35 1 31 9
M  V30 36 1 32 10
M  V30 37 1 33 14
M  V30 38 1 34 14
M  V30 39 1 35 15
M  V30 40 1 36 15
M  V30 41 1 37 17
M  V30 42 1 38 18
M  V30 43 1 39 19
M  V30 44 1 40 20
M  V30 45 1 41 22
M  V30 46 1 42 22
M  V30 47 1 2 43 CFG=1
M  V30 END BOND
M  V30 END CTAB
M  END
>  <b_m_subgroup_collapsed>  (2056) 
0

>  <r_i_docking_score>  (2056) 
-6.2968425536054697

>  <s_m_subgroup_title>  (2056) 
glide-dock_SP_D22_pv

>  <s_m_subgroupid>  (2056) 
glide-dock_SP_D22_pv

>  <Molecule ChEMBL ID>  (2056) 
CHEMBL3104093

>  <Standard Type>  (2056) 
Ki

>  <Standard Value>  (2056) 
10000.0

>  <label>  (2056) 
0

$$$$
CHEMBL5883189
     RDKit          3D

  0  0  0  0  0  0  0  0  0  0999 V3000
M  V30 BEGIN CTAB
M  V30 COUNTS 57 60 0 0 1
M  V30 BEGIN ATOM
M  V30 1 C 5.149420 1.238106 -13.239412 0
M  V30 2 N 4.916336 0.171729 -14.193465 0
M  V30 3 N 3.688369 -0.386901 -14.245004 0
M  V30 4 C 3.763293 -1.268422 -15.228490 0
M  V30 5 C 5.052784 -1.321722 -15.820218 0
M  V30 6 C 5.770710 -0.385129 -15.131042 0
M  V30 7 C 7.164005 0.030065 -15.291158 0
M  V30 8 N 7.971282 0.260039 -14.249102 0
M  V30 9 N 9.199427 0.575233 -14.779788 0
M  V30 10 C 9.030563 0.558757 -16.102942 0
M  V30 11 S 10.301156 0.937215 -17.276628 0
M  V30 12 C 11.258300 2.152630 -16.316938 0
M  V30 13 C 10.433355 3.404155 -15.949599 0
M  V30 14 C 10.686432 3.870941 -14.502838 0
M  V30 15 N 9.618100 4.664468 -13.891572 0
M  V30 16 C 8.433395 3.845588 -13.621523 0
M  V30 17 C 7.343418 4.603278 -12.847077 0
M  V30 18 O 7.892828 5.116070 -11.642840 0
M  V30 19 C 8.993421 5.995957 -11.854723 0 CFG=1
M  V30 20 C 9.526227 6.556900 -10.543552 0
M  V30 21 C 10.352047 7.700862 -10.551822 0
M  V30 22 C 10.839223 8.237598 -9.343405 0
M  V30 23 C 10.505617 7.633363 -8.110852 0
M  V30 24 C 10.997919 8.218032 -6.795987 0
M  V30 25 F 10.038637 8.971624 -6.267259 0
M  V30 26 F 11.287559 7.243399 -5.932997 0
M  V30 27 F 12.085468 8.973166 -6.971990 0
M  V30 28 C 9.688214 6.483657 -8.104445 0
M  V30 29 C 9.207285 5.943827 -9.311885 0
M  V30 30 C 10.087859 5.229899 -12.627769 0
M  V30 31 N 7.776770 0.237349 -16.479174 0
M  V30 32 C 7.236980 0.130489 -17.825018 0
M  V30 33 H 5.530947 0.822569 -12.306518 0
M  V30 34 H 5.869619 1.948441 -13.642346 0
M  V30 35 H 4.218746 1.773674 -13.048015 0
M  V30 36 H 2.890561 -1.853815 -15.475468 0
M  V30 37 H 5.397563 -1.958334 -16.622059 0
M  V30 38 H 11.637019 1.644622 -15.430699 0
M  V30 39 H 12.139688 2.442523 -16.889402 0
M  V30 40 H 10.659316 4.214933 -16.642979 0
M  V30 41 H 9.377093 3.201037 -16.104528 0
M  V30 42 H 10.875359 3.003077 -13.868228 0
M  V30 43 H 11.616182 4.441560 -14.499049 0
M  V30 44 H 7.997039 3.474160 -14.546756 0
M  V30 45 H 8.727490 2.968745 -13.048011 0
M  V30 46 H 6.921194 5.408793 -13.446818 0
M  V30 47 H 6.520419 3.936044 -12.594339 0
M  V30 48 H 8.645110 6.839975 -12.453552 0
M  V30 49 H 10.604759 8.174298 -11.488669 0
M  V30 50 H 11.461896 9.120557 -9.367646 0
M  V30 51 H 9.414936 6.018973 -7.168399 0
M  V30 52 H 8.571357 5.070405 -9.282917 0
M  V30 53 H 10.474403 4.430079 -11.993402 0
M  V30 54 H 10.925910 5.900938 -12.820617 0
M  V30 55 H 7.679302 0.888552 -18.472393 0
M  V30 56 H 7.459261 -0.858213 -18.228682 0
M  V30 57 H 6.158059 0.281255 -17.816690 0
M  V30 END ATOM
M  V30 BEGIN BOND
M  V30 1 1 2 1
M  V30 2 1 3 2
M  V30 3 2 4 3
M  V30 4 1 5 4
M  V30 5 1 6 2
M  V30 6 2 6 5
M  V30 7 1 7 6
M  V30 8 2 8 7
M  V30 9 1 9 8
M  V30 10 2 10 9
M  V30 11 1 11 10
M  V30 12 1 12 11
M  V30 13 1 13 12
M  V30 14 1 14 13
M  V30 15 1 15 14
M  V30 16 1 16 15
M  V30 17 1 17 16
M  V30 18 1 18 17
M  V30 19 1 19 18
M  V30 20 1 20 19
M  V30 21 1 21 20
M  V30 22 2 22 21
M  V30 23 1 23 22
M  V30 24 1 24 23
M  V30 25 1 25 24
M  V30 26 1 26 24
M  V30 27 1 27 24
M  V30 28 2 28 23
M  V30 29 2 29 20
M  V30 30 1 29 28
M  V30 31 1 30 15
M  V30 32 1 30 19
M  V30 33 1 31 7
M  V30 34 1 31 10
M  V30 35 1 32 31
M  V30 36 1 33 1
M  V30 37 1 34 1
M  V30 38 1 35 1
M  V30 39 1 36 4
M  V30 40 1 37 5
M  V30 41 1 38 12
M  V30 42 1 39 12
M  V30 43 1 40 13
M  V30 44 1 41 13
M  V30 45 1 42 14
M  V30 46 1 43 14
M  V30 47 1 44 16
M  V30 48 1 45 16
M  V30 49 1 46 17
M  V30 50 1 47 17
M  V30 51 1 19 48 CFG=3
M  V30 52 1 49 21
M  V30 53 1 50 22
M  V30 54 1 51 28
M  V30 55 1 52 29
M  V30 56 1 53 30
M  V30 57 1 54 30
M  V30 58 1 55 32
M  V30 59 1 56 32
M  V30 60 1 57 32
M  V30 END BOND
M  V30 END CTAB
M  END
>  <b_m_subgroup_collapsed>  (2057) 
0

>  <r_i_docking_score>  (2057) 
-6.29334534995282

>  <s_m_subgroup_title>  (2057) 
glide-dock_SP_D22_pv

>  <s_m_subgroupid>  (2057) 
glide-dock_SP_D22_pv

>  <Molecule ChEMBL ID>  (2057) 
CHEMBL5883189

>  <Standard Type>  (2057) 
Ki

>  <Standard Value>  (2057) 
10000.0

>  <label>  (2057) 
0

$$$$
CHEMBL4170001
     RDKit          3D

  0  0  0  0  0  0  0  0  0  0999 V3000
M  V30 BEGIN CTAB
M  V30 COUNTS 55 58 0 0 1
M  V30 BEGIN ATOM
M  V30 1 C 11.386429 8.929134 -7.326950 0
M  V30 2 O 9.965714 8.967707 -7.376710 0
M  V30 3 C 9.303241 7.915925 -8.081845 0 CFG=2
M  V30 4 C 9.544819 6.530082 -7.457519 0
M  V30 5 C 8.745293 5.479983 -8.241089 0
M  V30 6 C 9.071927 5.504725 -9.740500 0
M  V30 7 N 8.886124 6.859818 -10.334666 0 CFG=2 CHG=1
M  V30 8 C 9.208547 6.926827 -11.786109 0
M  V30 9 C 8.667618 5.779265 -12.586679 0
M  V30 10 N 9.494131 4.864621 -13.219386 0
M  V30 11 C 8.671722 4.019308 -13.842045 0
M  V30 12 C 8.984897 2.837208 -14.636948 0
M  V30 13 C 10.294741 2.314654 -14.679580 0
M  V30 14 C 10.555419 1.129519 -15.392478 0
M  V30 15 C 9.512434 0.433246 -16.028540 0
M  V30 16 C 8.203212 0.944500 -15.988936 0
M  V30 17 O 7.200152 0.255170 -16.625507 0
M  V30 18 C 6.076525 -0.170624 -15.948622 0
M  V30 19 C 5.770666 0.171086 -14.605025 0
M  V30 20 C 4.554342 -0.227499 -14.027241 0
M  V30 21 C 3.655340 -1.024499 -14.755212 0
M  V30 22 C 3.972456 -1.415418 -16.068657 0
M  V30 23 C 5.169187 -0.976016 -16.664692 0
M  V30 24 C 7.956036 2.172338 -15.337176 0
M  V30 25 O 7.358077 4.323550 -13.645315 0
M  V30 26 C 7.371202 5.434669 -12.854671 0
M  V30 27 C 6.063570 6.026775 -12.472919 0
M  V30 28 C 9.638805 7.905714 -9.587488 0
M  V30 29 H 11.746696 9.775060 -6.739009 0
M  V30 30 H 11.752693 8.024939 -6.843538 0
M  V30 31 H 11.837198 9.011312 -8.315518 0
M  V30 32 H 8.243078 8.148286 -7.971334 0
M  V30 33 H 9.239197 6.531060 -6.410180 0
M  V30 34 H 10.599841 6.258865 -7.485850 0
M  V30 35 H 7.684115 5.664729 -8.094413 0
M  V30 36 H 8.935704 4.482214 -7.847311 0
M  V30 37 H 8.426642 4.773575 -10.227291 0
M  V30 38 H 10.098100 5.177316 -9.897037 0
M  V30 39 H 10.292462 6.968442 -11.907262 0
M  V30 40 H 8.822924 7.868370 -12.180336 0
M  V30 41 H 11.099007 2.812858 -14.157766 0
M  V30 42 H 11.560358 0.738755 -15.446951 0
M  V30 43 H 9.713642 -0.490259 -16.552631 0
M  V30 44 H 6.435925 0.753434 -13.990781 0
M  V30 45 H 4.316834 0.082836 -13.021330 0
M  V30 46 H 2.732351 -1.339503 -14.298001 0
M  V30 47 H 3.286698 -2.044428 -16.623579 0
M  V30 48 H 5.395616 -1.263697 -17.682850 0
M  V30 49 H 6.952484 2.571505 -15.330976 0
M  V30 50 H 5.807796 5.770133 -11.446936 0
M  V30 51 H 6.079367 7.112268 -12.561616 0
M  V30 52 H 5.278234 5.648231 -13.124266 0
M  V30 53 H 10.705219 7.735760 -9.734675 0
M  V30 54 H 9.409717 8.885112 -10.013872 0
M  V30 55 H 7.894549 7.102037 -10.246578 0
M  V30 END ATOM
M  V30 BEGIN BOND
M  V30 1 1 2 1
M  V30 2 1 3 2
M  V30 3 1 4 3
M  V30 4 1 5 4
M  V30 5 1 6 5
M  V30 6 1 7 6
M  V30 7 1 8 7
M  V30 8 1 9 8
M  V30 9 1 10 9
M  V30 10 2 11 10
M  V30 11 1 12 11
M  V30 12 2 13 12
M  V30 13 1 14 13
M  V30 14 2 15 14
M  V30 15 1 16 15
M  V30 16 1 17 16
M  V30 17 1 18 17
M  V30 18 2 19 18
M  V30 19 1 20 19
M  V30 20 2 21 20
M  V30 21 1 22 21
M  V30 22 1 23 18
M  V30 23 2 23 22
M  V30 24 1 24 12
M  V30 25 2 24 16
M  V30 26 1 25 11
M  V30 27 2 26 9
M  V30 28 1 26 25
M  V30 29 1 27 26
M  V30 30 1 28 3
M  V30 31 1 28 7
M  V30 32 1 29 1
M  V30 33 1 30 1
M  V30 34 1 31 1
M  V30 35 1 3 32 CFG=3
M  V30 36 1 33 4
M  V30 37 1 34 4
M  V30 38 1 35 5
M  V30 39 1 36 5
M  V30 40 1 37 6
M  V30 41 1 38 6
M  V30 42 1 39 8
M  V30 43 1 40 8
M  V30 44 1 41 13
M  V30 45 1 42 14
M  V30 46 1 43 15
M  V30 47 1 44 19
M  V30 48 1 45 20
M  V30 49 1 46 21
M  V30 50 1 47 22
M  V30 51 1 48 23
M  V30 52 1 49 24
M  V30 53 1 50 27
M  V30 54 1 51 27
M  V30 55 1 52 27
M  V30 56 1 53 28
M  V30 57 1 54 28
M  V30 58 1 7 55 CFG=3
M  V30 END BOND
M  V30 END CTAB
M  END
>  <b_m_subgroup_collapsed>  (2058) 
0

>  <r_i_docking_score>  (2058) 
-6.29243808286044

>  <s_m_subgroup_title>  (2058) 
glide-dock_SP_D22_pv

>  <s_m_subgroupid>  (2058) 
glide-dock_SP_D22_pv

>  <Molecule ChEMBL ID>  (2058) 
CHEMBL4170001

>  <Standard Type>  (2058) 
Ki

>  <Standard Value>  (2058) 
10000.0

>  <label>  (2058) 
0

$$$$
CHEMBL286080
     RDKit          3D

  0  0  0  0  0  0  0  0  0  0999 V3000
M  V30 BEGIN CTAB
M  V30 COUNTS 37 39 0 0 1
M  V30 BEGIN ATOM
M  V30 1 O 8.886023 7.707336 -10.746612 0
M  V30 2 C 9.264333 6.864773 -11.752917 0
M  V30 3 C 10.572534 6.972324 -12.246865 0
M  V30 4 C 11.013050 6.164930 -13.317305 0
M  V30 5 C 10.148293 5.200937 -13.894517 0
M  V30 6 C 8.829728 5.095105 -13.376374 0
M  V30 7 C 8.386581 5.914341 -12.314797 0
M  V30 8 O 7.110067 5.772325 -11.846865 0
M  V30 9 C 10.636473 4.303565 -15.051321 0 CFG=1
M  V30 10 C 9.720853 3.105491 -15.333363 0
M  V30 11 C 9.661364 2.072460 -14.376575 0
M  V30 12 C 8.870133 0.930116 -14.598595 0
M  V30 13 C 8.125915 0.802103 -15.783702 0
M  V30 14 C 8.171230 1.826916 -16.745478 0
M  V30 15 C 8.961704 2.972324 -16.522379 0
M  V30 16 C 10.997761 5.101211 -16.332569 0
M  V30 17 N 12.289854 5.822047 -16.272955 0 CHG=1
M  V30 18 C 12.433289 6.910410 -15.288737 0
M  V30 19 C 12.409793 6.398152 -13.846863 0
M  V30 20 H 7.936680 7.772323 -10.575554 0
M  V30 21 H 11.230769 7.710292 -11.811553 0
M  V30 22 H 8.128272 4.383858 -13.786160 0
M  V30 23 H 6.862742 6.406369 -11.176218 0
M  V30 24 H 11.558869 3.837940 -14.700418 0
M  V30 25 H 10.221454 2.163226 -13.456350 0
M  V30 26 H 8.831717 0.157436 -13.846865 0
M  V30 27 H 7.520635 -0.077808 -15.950213 0
M  V30 28 H 7.597187 1.732537 -17.655052 0
M  V30 29 H 8.963794 3.741033 -17.280014 0
M  V30 30 H 11.135737 4.406133 -17.161289 0
M  V30 31 H 10.187511 5.772326 -16.619246 0
M  V30 32 H 13.020729 5.145985 -16.100573 0
M  V30 33 H 13.403452 7.371916 -15.476936 0
M  V30 34 H 11.686023 7.687728 -15.446864 0
M  V30 35 H 12.906493 7.129426 -13.209047 0
M  V30 36 H 12.977612 5.473533 -13.753114 0
M  V30 37 H 12.449657 6.223806 -17.186487 0
M  V30 END ATOM
M  V30 BEGIN BOND
M  V30 1 1 2 1
M  V30 2 2 3 2
M  V30 3 1 4 3
M  V30 4 2 5 4
M  V30 5 1 6 5
M  V30 6 1 7 2
M  V30 7 2 7 6
M  V30 8 1 8 7
M  V30 9 1 9 5
M  V30 10 1 10 9
M  V30 11 2 11 10
M  V30 12 1 12 11
M  V30 13 2 13 12
M  V30 14 1 14 13
M  V30 15 1 15 10
M  V30 16 2 15 14
M  V30 17 1 16 9
M  V30 18 1 17 16
M  V30 19 1 18 17
M  V30 20 1 19 4
M  V30 21 1 19 18
M  V30 22 1 20 1
M  V30 23 1 21 3
M  V30 24 1 22 6
M  V30 25 1 23 8
M  V30 26 1 9 24 CFG=1
M  V30 27 1 25 11
M  V30 28 1 26 12
M  V30 29 1 27 13
M  V30 30 1 28 14
M  V30 31 1 29 15
M  V30 32 1 30 16
M  V30 33 1 31 16
M  V30 34 1 32 17
M  V30 35 1 33 18
M  V30 36 1 34 18
M  V30 37 1 35 19
M  V30 38 1 36 19
M  V30 39 1 37 17
M  V30 END BOND
M  V30 END CTAB
M  END
>  <b_m_subgroup_collapsed>  (2059) 
0

>  <r_i_docking_score>  (2059) 
-6.2916018541223497

>  <s_m_subgroup_title>  (2059) 
glide-dock_SP_D22_pv

>  <s_m_subgroupid>  (2059) 
glide-dock_SP_D22_pv

>  <Molecule ChEMBL ID>  (2059) 
CHEMBL286080

>  <Standard Type>  (2059) 
Ki

>  <Standard Value>  (2059) 
720000.0

>  <label>  (2059) 
0

$$$$
CHEMBL503958
     RDKit          3D

  0  0  0  0  0  0  0  0  0  0999 V3000
M  V30 BEGIN CTAB
M  V30 COUNTS 37 39 0 0 1
M  V30 BEGIN ATOM
M  V30 1 O 8.886023 7.707336 -10.746612 0
M  V30 2 C 9.264333 6.864773 -11.752917 0
M  V30 3 C 10.572534 6.972324 -12.246865 0
M  V30 4 C 11.013050 6.164930 -13.317305 0
M  V30 5 C 10.148293 5.200937 -13.894517 0
M  V30 6 C 8.829728 5.095105 -13.376374 0
M  V30 7 C 8.386581 5.914341 -12.314797 0
M  V30 8 O 7.110067 5.772325 -11.846865 0
M  V30 9 C 10.636473 4.303565 -15.051321 0 CFG=1
M  V30 10 C 9.720853 3.105491 -15.333363 0
M  V30 11 C 9.661364 2.072460 -14.376575 0
M  V30 12 C 8.870133 0.930116 -14.598595 0
M  V30 13 C 8.125915 0.802103 -15.783702 0
M  V30 14 C 8.171230 1.826916 -16.745478 0
M  V30 15 C 8.961704 2.972324 -16.522379 0
M  V30 16 C 10.997761 5.101211 -16.332569 0
M  V30 17 N 12.289854 5.822047 -16.272955 0 CHG=1
M  V30 18 C 12.433289 6.910410 -15.288737 0
M  V30 19 C 12.409793 6.398152 -13.846863 0
M  V30 20 H 7.936680 7.772323 -10.575554 0
M  V30 21 H 11.230769 7.710292 -11.811553 0
M  V30 22 H 8.128272 4.383858 -13.786160 0
M  V30 23 H 6.862742 6.406369 -11.176218 0
M  V30 24 H 11.558869 3.837940 -14.700418 0
M  V30 25 H 10.221454 2.163226 -13.456350 0
M  V30 26 H 8.831717 0.157436 -13.846865 0
M  V30 27 H 7.520635 -0.077808 -15.950213 0
M  V30 28 H 7.597187 1.732537 -17.655052 0
M  V30 29 H 8.963794 3.741033 -17.280014 0
M  V30 30 H 11.135737 4.406133 -17.161289 0
M  V30 31 H 10.187511 5.772326 -16.619246 0
M  V30 32 H 13.020729 5.145985 -16.100573 0
M  V30 33 H 13.403452 7.371916 -15.476936 0
M  V30 34 H 11.686023 7.687728 -15.446864 0
M  V30 35 H 12.906493 7.129426 -13.209047 0
M  V30 36 H 12.977612 5.473533 -13.753114 0
M  V30 37 H 12.449657 6.223806 -17.186487 0
M  V30 END ATOM
M  V30 BEGIN BOND
M  V30 1 1 2 1
M  V30 2 2 3 2
M  V30 3 1 4 3
M  V30 4 2 5 4
M  V30 5 1 6 5
M  V30 6 1 7 2
M  V30 7 2 7 6
M  V30 8 1 8 7
M  V30 9 1 9 5
M  V30 10 1 10 9
M  V30 11 2 11 10
M  V30 12 1 12 11
M  V30 13 2 13 12
M  V30 14 1 14 13
M  V30 15 1 15 10
M  V30 16 2 15 14
M  V30 17 1 16 9
M  V30 18 1 17 16
M  V30 19 1 18 17
M  V30 20 1 19 4
M  V30 21 1 19 18
M  V30 22 1 20 1
M  V30 23 1 21 3
M  V30 24 1 22 6
M  V30 25 1 23 8
M  V30 26 1 9 24 CFG=1
M  V30 27 1 25 11
M  V30 28 1 26 12
M  V30 29 1 27 13
M  V30 30 1 28 14
M  V30 31 1 29 15
M  V30 32 1 30 16
M  V30 33 1 31 16
M  V30 34 1 32 17
M  V30 35 1 33 18
M  V30 36 1 34 18
M  V30 37 1 35 19
M  V30 38 1 36 19
M  V30 39 1 37 17
M  V30 END BOND
M  V30 END CTAB
M  END
>  <b_m_subgroup_collapsed>  (2060) 
0

>  <r_i_docking_score>  (2060) 
-6.2916018541223497

>  <s_m_subgroup_title>  (2060) 
glide-dock_SP_D22_pv

>  <s_m_subgroupid>  (2060) 
glide-dock_SP_D22_pv

>  <Molecule ChEMBL ID>  (2060) 
CHEMBL503958

>  <Standard Type>  (2060) 
Ki

>  <Standard Value>  (2060) 
10000.0

>  <label>  (2060) 
0

$$$$
CHEMBL44739
     RDKit          3D

  0  0  0  0  0  0  0  0  0  0999 V3000
M  V30 BEGIN CTAB
M  V30 COUNTS 42 44 0 0 1
M  V30 BEGIN ATOM
M  V30 1 I 12.086011 6.575210 -2.246864 0
M  V30 2 C 11.783545 7.570023 -4.036063 0
M  V30 3 C 12.087070 8.934831 -4.188138 0
M  V30 4 C 12.000604 9.517110 -5.466633 0
M  V30 5 C 11.637985 8.738701 -6.585169 0
M  V30 6 O 11.685961 9.358190 -7.808936 0
M  V30 7 C 11.471332 8.606637 -8.996710 0
M  V30 8 C 9.995352 8.732832 -9.397904 0 CFG=1
M  V30 9 C 9.746256 8.519735 -10.892351 0
M  V30 10 C 9.674959 7.051967 -11.294947 0
M  V30 11 N 8.614863 6.349128 -10.535663 0 CFG=1 CHG=1
M  V30 12 C 8.352315 4.982823 -11.048554 0
M  V30 13 C 7.682014 5.013026 -12.415200 0
M  V30 14 C 8.480619 5.051900 -13.704889 0
M  V30 15 C 7.740448 3.804371 -13.322909 0
M  V30 16 C 8.887537 6.411423 -9.077603 0
M  V30 17 C 9.011122 7.878927 -8.593563 0
M  V30 18 C 11.285994 7.380462 -6.395350 0
M  V30 19 C 11.332018 6.812419 -5.120555 0
M  V30 20 H 12.425583 9.518312 -3.343935 0
M  V30 21 H 12.266850 10.554896 -5.605283 0
M  V30 22 H 12.086202 9.090168 -9.755855 0
M  V30 23 H 11.826210 7.577528 -8.964054 0
M  V30 24 H 9.737062 9.772294 -9.207027 0
M  V30 25 H 8.823454 9.021683 -11.188738 0
M  V30 26 H 10.551292 8.972387 -11.446881 0
M  V30 27 H 10.639056 6.569679 -11.133854 0
M  V30 28 H 9.477782 7.021284 -12.362878 0
M  V30 29 H 9.279822 4.409194 -11.093528 0
M  V30 30 H 7.686350 4.457600 -10.363133 0
M  V30 31 H 6.739289 5.559381 -12.422207 0
M  V30 32 H 8.086179 5.636064 -14.530976 0
M  V30 33 H 9.566401 5.015734 -13.641581 0
M  V30 34 H 8.377999 2.972262 -13.046906 0
M  V30 35 H 6.846369 3.550233 -13.888206 0
M  V30 36 H 9.799212 5.853445 -8.861877 0
M  V30 37 H 8.084026 5.920400 -8.529856 0
M  V30 38 H 9.157233 7.940587 -7.521397 0
M  V30 39 H 8.086178 8.404263 -8.708020 0
M  V30 40 H 11.015686 6.729444 -7.206947 0
M  V30 41 H 11.091678 5.772390 -4.982934 0
M  V30 42 H 7.749759 6.883940 -10.646601 0
M  V30 END ATOM
M  V30 BEGIN BOND
M  V30 1 1 2 1
M  V30 2 1 3 2
M  V30 3 2 4 3
M  V30 4 1 5 4
M  V30 5 1 6 5
M  V30 6 1 7 6
M  V30 7 1 8 7
M  V30 8 1 9 8
M  V30 9 1 10 9
M  V30 10 1 11 10
M  V30 11 1 12 11
M  V30 12 1 13 12
M  V30 13 1 14 13
M  V30 14 1 15 13
M  V30 15 1 15 14
M  V30 16 1 16 11
M  V30 17 1 17 8
M  V30 18 1 17 16
M  V30 19 2 18 5
M  V30 20 2 19 2
M  V30 21 1 19 18
M  V30 22 1 20 3
M  V30 23 1 21 4
M  V30 24 1 22 7
M  V30 25 1 23 7
M  V30 26 1 8 24 CFG=1
M  V30 27 1 25 9
M  V30 28 1 26 9
M  V30 29 1 27 10
M  V30 30 1 28 10
M  V30 31 1 29 12
M  V30 32 1 30 12
M  V30 33 1 31 13
M  V30 34 1 32 14
M  V30 35 1 33 14
M  V30 36 1 34 15
M  V30 37 1 35 15
M  V30 38 1 36 16
M  V30 39 1 37 16
M  V30 40 1 38 17
M  V30 41 1 39 17
M  V30 42 1 40 18
M  V30 43 1 41 19
M  V30 44 1 11 42 CFG=1
M  V30 END BOND
M  V30 END CTAB
M  END
>  <b_m_subgroup_collapsed>  (2061) 
0

>  <r_i_docking_score>  (2061) 
-6.2894885894219899

>  <s_m_subgroup_title>  (2061) 
glide-dock_SP_D22_pv

>  <s_m_subgroupid>  (2061) 
glide-dock_SP_D22_pv

>  <Molecule ChEMBL ID>  (2061) 
CHEMBL44739

>  <Standard Type>  (2061) 
Ki

>  <Standard Value>  (2061) 
10000.0

>  <label>  (2061) 
0

$$$$
CHEMBL4583507
     RDKit          3D

  0  0  0  0  0  0  0  0  0  0999 V3000
M  V30 BEGIN CTAB
M  V30 COUNTS 33 35 0 0 1
M  V30 BEGIN ATOM
M  V30 1 C 11.816097 6.729303 -3.016706 0
M  V30 2 C 11.291752 6.684561 -4.464593 0
M  V30 3 N 11.389827 7.964817 -5.153518 0
M  V30 4 C 11.947972 9.094989 -4.686133 0
M  V30 5 N 11.974274 10.104051 -5.542028 0
M  V30 6 C 11.383136 9.579640 -6.678198 0
M  V30 7 C 10.975916 8.286469 -6.449931 0
M  V30 8 C 10.247234 7.395536 -7.349005 0
M  V30 9 C 9.162629 6.612809 -7.045931 0
M  V30 10 N 8.669481 6.022093 -8.190120 0
M  V30 11 C 9.413698 6.393558 -9.282440 0
M  V30 12 C 9.285831 6.104016 -10.649271 0
M  V30 13 C 10.234427 6.604164 -11.555276 0
M  V30 14 C 11.327347 7.372477 -11.082949 0
M  V30 15 O 12.377980 7.772841 -11.876698 0
M  V30 16 C 12.394806 7.370649 -13.236514 0
M  V30 17 C 11.398727 7.707844 -9.710675 0
M  V30 18 F 12.435669 8.456120 -9.269132 0
M  V30 19 C 10.448045 7.230333 -8.772960 0
M  V30 20 H 11.695456 5.772113 -2.517676 0
M  V30 21 H 12.879822 6.969983 -2.990110 0
M  V30 22 H 11.286232 7.470252 -2.417317 0
M  V30 23 H 10.256631 6.347946 -4.477075 0
M  V30 24 H 11.860917 5.954068 -5.037653 0
M  V30 25 H 12.375348 9.192723 -3.698219 0
M  V30 26 H 11.286054 10.172116 -7.570615 0
M  V30 27 H 8.654174 6.466413 -6.106934 0
M  V30 28 H 7.801897 5.506187 -8.220302 0
M  V30 29 H 8.460999 5.499926 -10.998349 0
M  V30 30 H 10.130053 6.345585 -12.597248 0
M  V30 31 H 13.288949 7.767079 -13.715970 0
M  V30 32 H 12.427045 6.284557 -13.331297 0
M  V30 33 H 11.537949 7.762107 -13.782637 0
M  V30 END ATOM
M  V30 BEGIN BOND
M  V30 1 1 2 1
M  V30 2 1 3 2
M  V30 3 1 4 3
M  V30 4 2 5 4
M  V30 5 1 6 5
M  V30 6 1 7 3
M  V30 7 2 7 6
M  V30 8 1 8 7
M  V30 9 2 9 8
M  V30 10 1 10 9
M  V30 11 1 11 10
M  V30 12 1 12 11
M  V30 13 2 13 12
M  V30 14 1 14 13
M  V30 15 1 15 14
M  V30 16 1 16 15
M  V30 17 2 17 14
M  V30 18 1 18 17
M  V30 19 1 19 8
M  V30 20 2 19 11
M  V30 21 1 19 17
M  V30 22 1 20 1
M  V30 23 1 21 1
M  V30 24 1 22 1
M  V30 25 1 23 2
M  V30 26 1 24 2
M  V30 27 1 25 4
M  V30 28 1 26 6
M  V30 29 1 27 9
M  V30 30 1 28 10
M  V30 31 1 29 12
M  V30 32 1 30 13
M  V30 33 1 31 16
M  V30 34 1 32 16
M  V30 35 1 33 16
M  V30 END BOND
M  V30 END CTAB
M  END
>  <b_m_subgroup_collapsed>  (2062) 
0

>  <r_i_docking_score>  (2062) 
-6.2892431896111098

>  <s_m_subgroup_title>  (2062) 
glide-dock_SP_D22_pv

>  <s_m_subgroupid>  (2062) 
glide-dock_SP_D22_pv

>  <Molecule ChEMBL ID>  (2062) 
CHEMBL4583507

>  <Standard Type>  (2062) 
Ki

>  <Standard Value>  (2062) 
10000.0

>  <label>  (2062) 
0

$$$$
CHEMBL4764692
     RDKit          3D

  0  0  0  0  0  0  0  0  0  0999 V3000
M  V30 BEGIN CTAB
M  V30 COUNTS 56 59 0 0 1
M  V30 BEGIN ATOM
M  V30 1 C 11.829654 9.575166 -3.047871 0
M  V30 2 C 11.302534 9.540977 -4.474374 0
M  V30 3 O 10.886785 10.572694 -4.994627 0
M  V30 4 N 11.286056 8.336719 -5.067589 0
M  V30 5 C 11.063204 8.080208 -6.443211 0
M  V30 6 C 10.477714 6.858855 -6.812876 0
M  V30 7 C 10.342785 6.518124 -8.170949 0
M  V30 8 C 10.786659 7.392823 -9.185011 0
M  V30 9 O 10.676709 6.938966 -10.481372 0
M  V30 10 C 11.066660 7.771842 -11.564499 0
M  V30 11 C 11.447557 6.894428 -12.769376 0
M  V30 12 C 10.419119 5.791569 -13.088391 0
M  V30 13 N 10.642640 5.224034 -14.418248 0
M  V30 14 C 11.805955 4.325774 -14.444421 0
M  V30 15 C 12.071139 3.818447 -15.877874 0
M  V30 16 N 10.871507 3.214084 -16.440105 0
M  V30 17 C 10.853642 1.882807 -16.898476 0
M  V30 18 C 9.850959 1.005872 -16.436583 0
M  V30 19 C 9.780726 -0.309424 -16.915806 0
M  V30 20 C 10.722711 -0.772663 -17.847872 0
M  V30 21 C 11.754664 0.061019 -18.334957 0
M  V30 22 C 12.813318 -0.225129 -19.280254 0
M  V30 23 C 13.597709 0.875485 -19.509680 0
M  V30 24 S 13.109180 2.291601 -18.635439 0
M  V30 25 C 11.794893 1.409823 -17.846367 0
M  V30 26 C 9.638813 3.975628 -16.290613 0
M  V30 27 C 9.465203 4.450593 -14.833768 0
M  V30 28 C 11.335718 8.642658 -8.810193 0
M  V30 29 C 11.483468 8.972659 -7.449967 0
M  V30 30 H 12.886018 9.310536 -3.029510 0
M  V30 31 H 11.729236 10.581853 -2.645754 0
M  V30 32 H 11.286415 8.883028 -2.403443 0
M  V30 33 H 11.465712 7.532398 -4.486228 0
M  V30 34 H 10.141692 6.172169 -6.050614 0
M  V30 35 H 9.912004 5.564267 -8.441697 0
M  V30 36 H 11.936214 8.382058 -11.337887 0
M  V30 37 H 10.232208 8.429646 -11.812782 0
M  V30 38 H 12.424795 6.450663 -12.591805 0
M  V30 39 H 11.577152 7.541768 -13.637733 0
M  V30 40 H 9.422775 6.236099 -13.045442 0
M  V30 41 H 10.432791 5.006261 -12.329668 0
M  V30 42 H 11.637994 3.483854 -13.773948 0
M  V30 43 H 12.694557 4.846862 -14.086020 0
M  V30 44 H 12.886578 3.095668 -15.853895 0
M  V30 45 H 12.388222 4.639386 -16.519777 0
M  V30 46 H 9.123919 1.334622 -15.706429 0
M  V30 47 H 8.999828 -0.968444 -16.565401 0
M  V30 48 H 10.656170 -1.788982 -18.202044 0
M  V30 49 H 12.957165 -1.189165 -19.746487 0
M  V30 50 H 14.451427 0.938082 -20.171761 0
M  V30 51 H 9.685147 4.837879 -16.958057 0
M  V30 52 H 8.781582 3.384066 -16.603550 0
M  V30 53 H 9.315143 3.601106 -14.166430 0
M  V30 54 H 8.572570 5.075213 -14.765767 0
M  V30 55 H 11.679583 9.362627 -9.536499 0
M  V30 56 H 11.952362 9.906195 -7.186604 0
M  V30 END ATOM
M  V30 BEGIN BOND
M  V30 1 1 2 1
M  V30 2 2 3 2
M  V30 3 1 4 2
M  V30 4 1 5 4
M  V30 5 1 6 5
M  V30 6 2 7 6
M  V30 7 1 8 7
M  V30 8 1 9 8
M  V30 9 1 10 9
M  V30 10 1 11 10
M  V30 11 1 12 11
M  V30 12 1 13 12
M  V30 13 1 14 13
M  V30 14 1 15 14
M  V30 15 1 16 15
M  V30 16 1 17 16
M  V30 17 1 18 17
M  V30 18 2 19 18
M  V30 19 1 20 19
M  V30 20 2 21 20
M  V30 21 1 22 21
M  V30 22 2 23 22
M  V30 23 1 24 23
M  V30 24 2 25 17
M  V30 25 1 25 21
M  V30 26 1 25 24
M  V30 27 1 26 16
M  V30 28 1 27 13
M  V30 29 1 27 26
M  V30 30 2 28 8
M  V30 31 2 29 5
M  V30 32 1 29 28
M  V30 33 1 30 1
M  V30 34 1 31 1
M  V30 35 1 32 1
M  V30 36 1 33 4
M  V30 37 1 34 6
M  V30 38 1 35 7
M  V30 39 1 36 10
M  V30 40 1 37 10
M  V30 41 1 38 11
M  V30 42 1 39 11
M  V30 43 1 40 12
M  V30 44 1 41 12
M  V30 45 1 42 14
M  V30 46 1 43 14
M  V30 47 1 44 15
M  V30 48 1 45 15
M  V30 49 1 46 18
M  V30 50 1 47 19
M  V30 51 1 48 20
M  V30 52 1 49 22
M  V30 53 1 50 23
M  V30 54 1 51 26
M  V30 55 1 52 26
M  V30 56 1 53 27
M  V30 57 1 54 27
M  V30 58 1 55 28
M  V30 59 1 56 29
M  V30 END BOND
M  V30 END CTAB
M  END
>  <b_m_subgroup_collapsed>  (2063) 
0

>  <r_i_docking_score>  (2063) 
-6.2867299050010601

>  <s_m_subgroup_title>  (2063) 
glide-dock_SP_D22_pv

>  <s_m_subgroupid>  (2063) 
glide-dock_SP_D22_pv

>  <Molecule ChEMBL ID>  (2063) 
CHEMBL4764692

>  <Standard Type>  (2063) 
Ki

>  <Standard Value>  (2063) 
16.3

>  <label>  (2063) 
1

$$$$
CHEMBL4451231
     RDKit          3D

  0  0  0  0  0  0  0  0  0  0999 V3000
M  V30 BEGIN CTAB
M  V30 COUNTS 70 75 0 0 1
M  V30 BEGIN ATOM
M  V30 1 O 8.038106 1.455768 -15.188976 0
M  V30 2 C 7.099968 0.737275 -15.546926 0
M  V30 3 C 7.084220 0.029000 -16.827972 0
M  V30 4 C 8.256648 0.186734 -17.718410 0
M  V30 5 C 9.498479 -0.379971 -17.354116 0
M  V30 6 C 10.621874 -0.220682 -18.188223 0
M  V30 7 C 10.509368 0.511199 -19.386120 0
M  V30 8 C 9.275437 1.088976 -19.746738 0
M  V30 9 C 8.150868 0.931764 -18.912800 0
M  V30 10 C 5.977954 -0.687187 -17.189968 0
M  V30 11 C 5.930421 -1.370581 -18.488628 0
M  V30 12 C 4.843937 -2.055136 -18.873310 0
M  V30 13 C 3.712795 -2.130028 -17.983425 0
M  V30 14 C 3.752843 -1.534772 -16.777163 0
M  V30 15 N 4.862879 -0.819749 -16.345154 0
M  V30 16 C 4.852893 -0.227769 -15.066512 0
M  V30 17 O 3.896502 -0.372763 -14.298434 0
M  V30 18 N 5.960702 0.572118 -14.726107 0
M  V30 19 C 5.957607 1.298831 -13.463575 0
M  V30 20 C 5.820908 2.851686 -13.562778 0
M  V30 21 C 6.678578 3.670925 -12.557922 0
M  V30 22 C 6.571620 5.198384 -12.784903 0
M  V30 23 N 7.540217 6.095942 -12.074122 0 CFG=2 CHG=1
M  V30 24 C 7.465882 7.466363 -12.649390 0
M  V30 25 C 8.442732 8.486372 -12.021089 0
M  V30 26 C 9.869513 7.952442 -11.871724 0
M  V30 27 C 9.892359 6.540502 -11.278656 0 CFG=1
M  V30 28 C 9.677592 6.519703 -9.786337 0
M  V30 29 C 8.769728 5.742471 -9.113070 0
M  V30 30 N 8.805390 6.053062 -7.772965 0
M  V30 31 C 9.786187 6.976313 -7.513227 0
M  V30 32 C 10.205036 7.578614 -6.318229 0
M  V30 33 C 11.286377 8.472136 -6.337268 0
M  V30 34 C 11.944092 8.734240 -7.553540 0
M  V30 35 C 11.493508 8.152375 -8.755772 0
M  V30 36 C 10.392134 7.261151 -8.771379 0
M  V30 37 C 8.947317 5.606437 -12.064270 0
M  V30 38 H 9.592533 -0.935447 -16.432608 0
M  V30 39 H 11.570298 -0.655097 -17.907982 0
M  V30 40 H 11.370999 0.634724 -20.024994 0
M  V30 41 H 9.192248 1.654033 -20.663664 0
M  V30 42 H 7.206966 1.374363 -19.195082 0
M  V30 43 H 6.771979 -1.351205 -19.163094 0
M  V30 44 H 4.821935 -2.561989 -19.826824 0
M  V30 45 H 2.839289 -2.696358 -18.269886 0
M  V30 46 H 2.886981 -1.641544 -16.138559 0
M  V30 47 H 5.206664 0.880771 -12.793451 0
M  V30 48 H 6.896615 0.984994 -13.046889 0
M  V30 49 H 6.086785 3.178692 -14.567924 0
M  V30 50 H 4.773045 3.121761 -13.441447 0
M  V30 51 H 6.423699 3.419578 -11.527414 0
M  V30 52 H 7.709573 3.372217 -12.727209 0
M  V30 53 H 6.730057 5.345399 -13.846729 0
M  V30 54 H 5.558162 5.535667 -12.568291 0
M  V30 55 H 7.685966 7.371847 -13.704486 0
M  V30 56 H 6.444100 7.844615 -12.592218 0
M  V30 57 H 8.458718 9.390767 -12.629027 0
M  V30 58 H 8.086135 8.810206 -11.046664 0
M  V30 59 H 10.369234 7.921596 -12.836339 0
M  V30 60 H 10.460245 8.643158 -11.275225 0
M  V30 61 H 10.885860 6.172426 -11.470186 0
M  V30 62 H 8.060060 5.016719 -9.476265 0
M  V30 63 H 8.144364 5.688311 -7.102702 0
M  V30 64 H 9.703633 7.333212 -5.397553 0
M  V30 65 H 11.630330 8.928820 -5.420650 0
M  V30 66 H 12.813230 9.372509 -7.562366 0
M  V30 67 H 12.014852 8.379793 -9.672571 0
M  V30 68 H 9.021795 4.612727 -11.623240 0
M  V30 69 H 9.292027 5.513207 -13.095686 0
M  V30 70 H 7.235048 6.218947 -11.111908 0
M  V30 END ATOM
M  V30 BEGIN BOND
M  V30 1 2 2 1
M  V30 2 1 3 2
M  V30 3 1 4 3
M  V30 4 2 5 4
M  V30 5 1 6 5
M  V30 6 2 7 6
M  V30 7 1 8 7
M  V30 8 1 9 4
M  V30 9 2 9 8
M  V30 10 2 10 3
M  V30 11 1 11 10
M  V30 12 2 12 11
M  V30 13 1 13 12
M  V30 14 2 14 13
M  V30 15 1 15 10
M  V30 16 1 15 14
M  V30 17 1 16 15
M  V30 18 2 17 16
M  V30 19 1 18 2
M  V30 20 1 18 16
M  V30 21 1 19 18
M  V30 22 1 20 19
M  V30 23 1 21 20
M  V30 24 1 22 21
M  V30 25 1 23 22
M  V30 26 1 24 23
M  V30 27 1 25 24
M  V30 28 1 26 25
M  V30 29 1 27 26
M  V30 30 1 28 27
M  V30 31 2 29 28
M  V30 32 1 30 29
M  V30 33 1 31 30
M  V30 34 2 32 31
M  V30 35 1 33 32
M  V30 36 2 34 33
M  V30 37 1 35 34
M  V30 38 1 36 28
M  V30 39 1 36 31
M  V30 40 2 36 35
M  V30 41 1 37 23
M  V30 42 1 37 27
M  V30 43 1 38 5
M  V30 44 1 39 6
M  V30 45 1 40 7
M  V30 46 1 41 8
M  V30 47 1 42 9
M  V30 48 1 43 11
M  V30 49 1 44 12
M  V30 50 1 45 13
M  V30 51 1 46 14
M  V30 52 1 47 19
M  V30 53 1 48 19
M  V30 54 1 49 20
M  V30 55 1 50 20
M  V30 56 1 51 21
M  V30 57 1 52 21
M  V30 58 1 53 22
M  V30 59 1 54 22
M  V30 60 1 55 24
M  V30 61 1 56 24
M  V30 62 1 57 25
M  V30 63 1 58 25
M  V30 64 1 59 26
M  V30 65 1 60 26
M  V30 66 1 27 61 CFG=1
M  V30 67 1 62 29
M  V30 68 1 63 30
M  V30 69 1 64 32
M  V30 70 1 65 33
M  V30 71 1 66 34
M  V30 72 1 67 35
M  V30 73 1 68 37
M  V30 74 1 69 37
M  V30 75 1 23 70 CFG=1
M  V30 END BOND
M  V30 END CTAB
M  END
>  <b_m_subgroup_collapsed>  (2064) 
0

>  <r_i_docking_score>  (2064) 
-6.2865508770519796

>  <s_m_subgroup_title>  (2064) 
glide-dock_SP_D22_pv

>  <s_m_subgroupid>  (2064) 
glide-dock_SP_D22_pv

>  <Molecule ChEMBL ID>  (2064) 
CHEMBL4451231

>  <Standard Type>  (2064) 
Ki

>  <Standard Value>  (2064) 
17670.0

>  <label>  (2064) 
0

$$$$
CHEMBL596678
     RDKit          3D

  0  0  0  0  0  0  0  0  0  0999 V3000
M  V30 BEGIN CTAB
M  V30 COUNTS 51 54 0 0 1
M  V30 BEGIN ATOM
M  V30 1 C 3.440420 -1.199799 -15.526870 0
M  V30 2 C 3.995212 -0.235182 -14.568749 0
M  V30 3 C 4.472322 0.624666 -13.845931 0
M  V30 4 C 5.061149 1.754201 -13.111668 0
M  V30 5 O 6.193948 2.193621 -13.847318 0
M  V30 6 C 6.881864 3.319149 -13.449777 0
M  V30 7 C 6.309999 4.286512 -12.587966 0
M  V30 8 C 7.021336 5.446548 -12.246977 0
M  V30 9 C 8.297366 5.672636 -12.783098 0
M  V30 10 C 8.876900 4.715943 -13.638145 0
M  V30 11 C 8.203541 3.510271 -13.945178 0
M  V30 12 C 8.945008 2.506457 -14.754252 0
M  V30 13 C 8.727478 1.109229 -14.647691 0
M  V30 14 C 9.481940 0.164201 -15.361733 0
M  V30 15 C 10.525730 0.572641 -16.198130 0
M  V30 16 C 10.822745 1.936971 -16.316744 0
M  V30 17 C 10.022540 2.872517 -15.607903 0
M  V30 18 C 10.278616 4.391516 -15.707616 0 CFG=1
M  V30 19 C 10.217680 5.001780 -14.288961 0
M  V30 20 N 11.502511 4.801421 -16.463396 0 CFG=2 CHG=1
M  V30 21 C 11.506907 6.221217 -16.925636 0
M  V30 22 C 12.274523 7.174061 -15.993218 0
M  V30 23 C 13.651089 6.656538 -15.572529 0
M  V30 24 C 11.782002 3.896140 -17.594900 0
M  V30 25 C 12.008004 2.489955 -17.076880 0
M  V30 26 H 2.486950 -0.833211 -15.902425 0
M  V30 27 H 3.288564 -2.164114 -15.049134 0
M  V30 28 H 4.125994 -1.325512 -16.364779 0
M  V30 29 H 4.287657 2.517555 -13.039400 0
M  V30 30 H 5.341480 1.429689 -12.108503 0
M  V30 31 H 5.322863 4.171267 -12.169245 0
M  V30 32 H 6.575401 6.171437 -11.581898 0
M  V30 33 H 8.819394 6.586312 -12.538032 0
M  V30 34 H 7.981752 0.721845 -13.971617 0
M  V30 35 H 9.282432 -0.888570 -15.239733 0
M  V30 36 H 11.123371 -0.163569 -16.715797 0
M  V30 37 H 9.427239 4.772637 -16.275373 0
M  V30 38 H 10.359810 6.073737 -14.300085 0
M  V30 39 H 11.007654 4.588119 -13.660419 0
M  V30 40 H 11.986677 6.297775 -17.902527 0
M  V30 41 H 10.488963 6.572077 -17.089657 0
M  V30 42 H 12.414234 8.128124 -16.504999 0
M  V30 43 H 11.698083 7.423440 -15.106654 0
M  V30 44 H 14.085995 7.369308 -14.880163 0
M  V30 45 H 14.323569 6.549767 -16.424866 0
M  V30 46 H 13.601701 5.701125 -15.049909 0
M  V30 47 H 10.956814 3.917585 -18.309427 0
M  V30 48 H 12.681108 4.214933 -18.124947 0
M  V30 49 H 12.879972 2.463062 -16.421913 0
M  V30 50 H 12.229830 1.823989 -17.912256 0
M  V30 51 H 12.286519 4.696087 -15.835972 0
M  V30 END ATOM
M  V30 BEGIN BOND
M  V30 1 1 2 1
M  V30 2 3 3 2
M  V30 3 1 4 3
M  V30 4 1 5 4
M  V30 5 1 6 5
M  V30 6 2 7 6
M  V30 7 1 8 7
M  V30 8 2 9 8
M  V30 9 1 10 9
M  V30 10 1 11 6
M  V30 11 2 11 10
M  V30 12 1 12 11
M  V30 13 2 13 12
M  V30 14 1 14 13
M  V30 15 2 15 14
M  V30 16 1 16 15
M  V30 17 1 17 12
M  V30 18 2 17 16
M  V30 19 1 18 17
M  V30 20 1 19 10
M  V30 21 1 19 18
M  V30 22 1 20 18
M  V30 23 1 21 20
M  V30 24 1 22 21
M  V30 25 1 23 22
M  V30 26 1 24 20
M  V30 27 1 25 16
M  V30 28 1 25 24
M  V30 29 1 26 1
M  V30 30 1 27 1
M  V30 31 1 28 1
M  V30 32 1 29 4
M  V30 33 1 30 4
M  V30 34 1 31 7
M  V30 35 1 32 8
M  V30 36 1 33 9
M  V30 37 1 34 13
M  V30 38 1 35 14
M  V30 39 1 36 15
M  V30 40 1 18 37 CFG=3
M  V30 41 1 38 19
M  V30 42 1 39 19
M  V30 43 1 40 21
M  V30 44 1 41 21
M  V30 45 1 42 22
M  V30 46 1 43 22
M  V30 47 1 44 23
M  V30 48 1 45 23
M  V30 49 1 46 23
M  V30 50 1 47 24
M  V30 51 1 48 24
M  V30 52 1 49 25
M  V30 53 1 50 25
M  V30 54 1 20 51 CFG=1
M  V30 END BOND
M  V30 END CTAB
M  END
>  <b_m_subgroup_collapsed>  (2065) 
0

>  <r_i_docking_score>  (2065) 
-6.2860152908330402

>  <s_m_subgroup_title>  (2065) 
glide-dock_SP_D22_pv

>  <s_m_subgroupid>  (2065) 
glide-dock_SP_D22_pv

>  <Molecule ChEMBL ID>  (2065) 
CHEMBL596678

>  <Standard Type>  (2065) 
Ki

>  <Standard Value>  (2065) 
10000.0

>  <label>  (2065) 
0

$$$$
CHEMBL2336893
     RDKit          3D

  0  0  0  0  0  0  0  0  0  0999 V3000
M  V30 BEGIN CTAB
M  V30 COUNTS 67 72 0 0 1
M  V30 BEGIN ATOM
M  V30 1 C 11.285542 8.117841 -5.821107 0
M  V30 2 C 11.662028 8.907081 -6.922874 0
M  V30 3 C 11.229162 8.561790 -8.217881 0
M  V30 4 C 10.409068 7.424155 -8.425313 0
M  V30 5 N 9.925638 7.104340 -9.724592 0
M  V30 6 C 9.216861 5.988945 -10.148829 0
M  V30 7 C 8.860499 6.178323 -11.457716 0
M  V30 8 C 7.958932 5.330743 -12.329208 0
M  V30 9 N 8.688082 4.388738 -13.225501 0 CHG=1
M  V30 10 C 7.790641 3.369594 -13.828100 0
M  V30 11 C 8.630242 2.308601 -14.565289 0
M  V30 12 N 9.404655 2.939794 -15.633630 0
M  V30 13 C 9.135198 2.711317 -17.011351 0
M  V30 14 C 7.907974 2.122224 -17.428942 0
M  V30 15 C 7.686357 1.772595 -18.781769 0
M  V30 16 C 8.518543 2.323272 -19.771696 0
M  V30 17 C 9.737211 2.904797 -19.388269 0
M  V30 18 C 10.118890 2.920501 -18.026659 0
M  V30 19 C 11.630429 2.815321 -17.756794 0
M  V30 20 C 12.090744 1.371579 -17.373854 0
M  V30 21 C 11.190251 0.272395 -17.927427 0
M  V30 22 C 10.214844 -0.299756 -17.084522 0
M  V30 23 C 9.040547 -0.820968 -17.652369 0
M  V30 24 C 8.860677 -0.774913 -19.047041 0
M  V30 25 C 9.969223 -0.509598 -19.883286 0
M  V30 26 C 11.145986 0.022205 -19.315931 0
M  V30 27 C 7.440013 -0.672613 -19.598335 0
M  V30 28 C 6.715068 0.646026 -19.149694 0
M  V30 29 C 10.225174 4.077439 -15.213225 0
M  V30 30 C 9.474791 5.059116 -14.288892 0
M  V30 31 C 9.414930 7.455260 -11.750835 0
M  V30 32 N 10.084015 7.976382 -10.744493 0
M  V30 33 C 10.041736 6.637171 -7.309583 0
M  V30 34 C 10.483294 6.979152 -6.016562 0
M  V30 35 H 11.622140 8.380304 -4.829117 0
M  V30 36 H 12.287963 9.774000 -6.775533 0
M  V30 37 H 11.526937 9.187622 -9.047271 0
M  V30 38 H 8.966890 5.179527 -9.478588 0
M  V30 39 H 7.288404 4.754066 -11.689674 0
M  V30 40 H 7.305026 5.961244 -12.933084 0
M  V30 41 H 7.184489 2.916251 -13.046879 0
M  V30 42 H 7.083766 3.838308 -14.513148 0
M  V30 43 H 9.337353 1.859716 -13.865403 0
M  V30 44 H 8.014050 1.478334 -14.902465 0
M  V30 45 H 7.176628 1.792917 -16.708673 0
M  V30 46 H 8.340299 2.114121 -20.816095 0
M  V30 47 H 10.457585 3.114055 -20.164457 0
M  V30 48 H 12.139750 3.077818 -18.684502 0
M  V30 49 H 12.011307 3.536764 -17.039743 0
M  V30 50 H 13.121931 1.206310 -17.685991 0
M  V30 51 H 12.087594 1.286745 -16.286289 0
M  V30 52 H 10.249769 -0.143001 -16.016352 0
M  V30 53 H 8.198998 -1.026333 -17.008852 0
M  V30 54 H 9.856276 -0.494869 -20.956970 0
M  V30 55 H 11.908105 0.422944 -19.968483 0
M  V30 56 H 7.502640 -0.687417 -20.687031 0
M  V30 57 H 6.856548 -1.549728 -19.317482 0
M  V30 58 H 6.112380 0.426196 -18.267281 0
M  V30 59 H 6.014240 0.979372 -19.915110 0
M  V30 60 H 11.112535 3.690599 -14.711988 0
M  V30 61 H 10.559202 4.660222 -16.069536 0
M  V30 62 H 8.791250 5.657362 -14.891178 0
M  V30 63 H 10.193456 5.751242 -13.853159 0
M  V30 64 H 9.337266 8.044035 -12.646749 0
M  V30 65 H 9.405849 5.773001 -7.420979 0
M  V30 66 H 10.196325 6.371157 -5.171745 0
M  V30 67 H 9.341959 3.884540 -12.643881 0
M  V30 END ATOM
M  V30 BEGIN BOND
M  V30 1 2 2 1
M  V30 2 1 3 2
M  V30 3 2 4 3
M  V30 4 1 5 4
M  V30 5 1 6 5
M  V30 6 2 7 6
M  V30 7 1 8 7
M  V30 8 1 9 8
M  V30 9 1 10 9
M  V30 10 1 11 10
M  V30 11 1 12 11
M  V30 12 1 13 12
M  V30 13 1 14 13
M  V30 14 2 15 14
M  V30 15 1 16 15
M  V30 16 2 17 16
M  V30 17 2 18 13
M  V30 18 1 18 17
M  V30 19 1 19 18
M  V30 20 1 20 19
M  V30 21 1 21 20
M  V30 22 1 22 21
M  V30 23 2 23 22
M  V30 24 1 24 23
M  V30 25 2 25 24
M  V30 26 2 26 21
M  V30 27 1 26 25
M  V30 28 1 27 24
M  V30 29 1 28 15
M  V30 30 1 28 27
M  V30 31 1 29 12
M  V30 32 1 30 9
M  V30 33 1 30 29
M  V30 34 1 31 7
M  V30 35 1 32 5
M  V30 36 2 32 31
M  V30 37 1 33 4
M  V30 38 1 34 1
M  V30 39 2 34 33
M  V30 40 1 35 1
M  V30 41 1 36 2
M  V30 42 1 37 3
M  V30 43 1 38 6
M  V30 44 1 39 8
M  V30 45 1 40 8
M  V30 46 1 41 10
M  V30 47 1 42 10
M  V30 48 1 43 11
M  V30 49 1 44 11
M  V30 50 1 45 14
M  V30 51 1 46 16
M  V30 52 1 47 17
M  V30 53 1 48 19
M  V30 54 1 49 19
M  V30 55 1 50 20
M  V30 56 1 51 20
M  V30 57 1 52 22
M  V30 58 1 53 23
M  V30 59 1 54 25
M  V30 60 1 55 26
M  V30 61 1 56 27
M  V30 62 1 57 27
M  V30 63 1 58 28
M  V30 64 1 59 28
M  V30 65 1 60 29
M  V30 66 1 61 29
M  V30 67 1 62 30
M  V30 68 1 63 30
M  V30 69 1 64 31
M  V30 70 1 65 33
M  V30 71 1 66 34
M  V30 72 1 67 9
M  V30 END BOND
M  V30 END CTAB
M  END
>  <b_m_subgroup_collapsed>  (2066) 
0

>  <r_i_docking_score>  (2066) 
-6.2851897118700197

>  <s_m_subgroup_title>  (2066) 
glide-dock_SP_D22_pv

>  <s_m_subgroupid>  (2066) 
glide-dock_SP_D22_pv

>  <Molecule ChEMBL ID>  (2066) 
CHEMBL2336893

>  <Standard Type>  (2066) 
Ki

>  <Standard Value>  (2066) 
28.0

>  <label>  (2066) 
1

$$$$
CHEMBL594557
     RDKit          3D

  0  0  0  0  0  0  0  0  0  0999 V3000
M  V30 BEGIN CTAB
M  V30 COUNTS 40 43 0 0 1
M  V30 BEGIN ATOM
M  V30 1 C 9.847836 8.947644 -7.780373 0
M  V30 2 O 10.967750 8.922035 -8.658276 0
M  V30 3 C 10.863275 8.176855 -9.815625 0
M  V30 4 C 12.003392 8.097961 -10.636915 0
M  V30 5 C 11.978193 7.372592 -11.843717 0
M  V30 6 C 10.804718 6.696962 -12.248541 0
M  V30 7 C 9.664543 6.743937 -11.411068 0
M  V30 8 C 9.693117 7.486906 -10.214079 0
M  V30 9 C 8.405736 5.963699 -11.757465 0
M  V30 10 C 8.664093 4.447473 -11.789229 0
M  V30 11 C 9.301946 3.914763 -13.088927 0
M  V30 12 N 10.671204 4.430275 -13.316631 0 CFG=1 CHG=1
M  V30 13 C 11.415084 3.726071 -14.403751 0
M  V30 14 C 12.189267 4.820980 -15.080301 0
M  V30 15 C 13.127790 4.696828 -16.118490 0
M  V30 16 C 13.719291 5.873657 -16.628145 0
M  V30 17 C 13.360613 7.140977 -16.107317 0
M  V30 18 C 12.410371 7.243937 -15.067179 0
M  V30 19 C 11.836995 6.058338 -14.568400 0
M  V30 20 C 10.733080 5.897871 -13.553384 0 CFG=2
M  V30 21 H 10.084004 9.567237 -6.915289 0
M  V30 22 H 9.606452 7.949452 -7.414383 0
M  V30 23 H 8.961654 9.372033 -8.258732 0
M  V30 24 H 12.904820 8.603642 -10.333246 0
M  V30 25 H 12.880277 7.334458 -12.437698 0
M  V30 26 H 8.797872 7.504979 -9.607368 0
M  V30 27 H 7.655429 6.168167 -10.995172 0
M  V30 28 H 7.975845 6.320692 -12.694024 0
M  V30 29 H 9.257488 4.167231 -10.917962 0
M  V30 30 H 7.701102 3.947868 -11.667767 0
M  V30 31 H 9.346291 2.829021 -13.034040 0
M  V30 32 H 8.663701 4.147960 -13.943589 0
M  V30 33 H 12.084895 2.972342 -13.994997 0
M  V30 34 H 10.745653 3.256999 -15.125497 0
M  V30 35 H 13.393861 3.728194 -16.522156 0
M  V30 36 H 14.444647 5.811249 -17.425764 0
M  V30 37 H 13.809894 8.035151 -16.515137 0
M  V30 38 H 12.115549 8.209515 -14.680640 0
M  V30 39 H 9.825756 6.172081 -14.078422 0
M  V30 40 H 11.199625 4.273713 -12.469790 0
M  V30 END ATOM
M  V30 BEGIN BOND
M  V30 1 1 2 1
M  V30 2 1 3 2
M  V30 3 1 4 3
M  V30 4 2 5 4
M  V30 5 1 6 5
M  V30 6 2 7 6
M  V30 7 2 8 3
M  V30 8 1 8 7
M  V30 9 1 9 7
M  V30 10 1 10 9
M  V30 11 1 11 10
M  V30 12 1 12 11
M  V30 13 1 13 12
M  V30 14 1 14 13
M  V30 15 2 15 14
M  V30 16 1 16 15
M  V30 17 2 17 16
M  V30 18 1 18 17
M  V30 19 1 19 14
M  V30 20 2 19 18
M  V30 21 1 20 6
M  V30 22 1 20 12
M  V30 23 1 20 19
M  V30 24 1 21 1
M  V30 25 1 22 1
M  V30 26 1 23 1
M  V30 27 1 24 4
M  V30 28 1 25 5
M  V30 29 1 26 8
M  V30 30 1 27 9
M  V30 31 1 28 9
M  V30 32 1 29 10
M  V30 33 1 30 10
M  V30 34 1 31 11
M  V30 35 1 32 11
M  V30 36 1 33 13
M  V30 37 1 34 13
M  V30 38 1 35 15
M  V30 39 1 36 16
M  V30 40 1 37 17
M  V30 41 1 38 18
M  V30 42 1 20 39 CFG=3
M  V30 43 1 12 40 CFG=1
M  V30 END BOND
M  V30 END CTAB
M  END
>  <b_m_subgroup_collapsed>  (2067) 
0

>  <r_i_docking_score>  (2067) 
-6.2848172774612099

>  <s_m_subgroup_title>  (2067) 
glide-dock_SP_D22_pv

>  <s_m_subgroupid>  (2067) 
glide-dock_SP_D22_pv

>  <Molecule ChEMBL ID>  (2067) 
CHEMBL594557

>  <Standard Type>  (2067) 
Ki

>  <Standard Value>  (2067) 
10000.0

>  <label>  (2067) 
0

$$$$
CHEMBL3774621
     RDKit          3D

  0  0  0  0  0  0  0  0  0  0999 V3000
M  V30 BEGIN CTAB
M  V30 COUNTS 62 66 0 0 1
M  V30 BEGIN ATOM
M  V30 1 C 11.258502 8.857188 -9.416335 0
M  V30 2 N 10.485663 7.753217 -8.862003 0
M  V30 3 C 9.785264 6.797116 -9.517429 0
M  V30 4 S 9.686590 6.711197 -11.282788 0
M  V30 5 C 8.432112 5.398439 -11.481404 0
M  V30 6 C 8.496010 4.747388 -12.870354 0
M  V30 7 C 9.716018 3.818887 -13.030421 0
M  V30 8 N 9.795504 3.226810 -14.384551 0 CFG=1 CHG=1
M  V30 9 C 11.064326 2.533847 -14.679859 0
M  V30 10 C 10.760364 1.651277 -15.888130 0 CFG=2
M  V30 11 C 10.837401 2.364740 -17.240158 0
M  V30 12 C 9.701939 1.737281 -18.043993 0
M  V30 13 N 8.688157 1.359043 -17.064808 0
M  V30 14 C 7.416381 0.843042 -17.445576 0
M  V30 15 C 7.023660 0.972080 -18.803774 0
M  V30 16 C 5.772514 0.521353 -19.256567 0
M  V30 17 C 4.882550 -0.077424 -18.360275 0
M  V30 18 C 5.246883 -0.227555 -17.014021 0
M  V30 19 C 6.508611 0.217111 -16.533175 0
M  V30 20 O 6.880099 0.048560 -15.213971 0
M  V30 21 C 6.061138 -0.520733 -14.283985 0
M  V30 22 F 6.729775 -0.613569 -13.107165 0
M  V30 23 F 4.956563 0.231718 -14.052451 0
M  V30 24 F 5.685415 -1.779875 -14.622127 0
M  V30 25 C 9.285120 1.273840 -15.735243 0 CFG=2
M  V30 26 C 8.701463 2.294618 -14.738670 0
M  V30 27 N 9.233654 5.900155 -8.702806 0
M  V30 28 N 9.570491 6.292330 -7.441050 0
M  V30 29 C 10.318316 7.391429 -7.564801 0
M  V30 30 C 10.846237 8.081542 -6.379140 0
M  V30 31 C 10.860995 9.491847 -6.264835 0
M  V30 32 N 11.287293 10.126884 -5.148733 0
M  V30 33 C 11.718863 9.340829 -4.138420 0
M  V30 34 C 11.710382 7.933455 -4.242842 0
M  V30 35 N 11.281193 7.302320 -5.357707 0
M  V30 36 H 10.661353 9.771671 -9.420238 0
M  V30 37 H 11.569860 8.634982 -10.435581 0
M  V30 38 H 12.158546 9.014581 -8.822489 0
M  V30 39 H 8.554556 4.613704 -10.735652 0
M  V30 40 H 7.450570 5.842645 -11.313639 0
M  V30 41 H 7.578355 4.175610 -13.017148 0
M  V30 42 H 8.499814 5.523791 -13.637509 0
M  V30 43 H 10.630098 4.387437 -12.848615 0
M  V30 44 H 9.689882 3.024989 -12.281678 0
M  V30 45 H 11.883123 3.233501 -14.857038 0
M  V30 46 H 11.336787 1.896134 -13.841552 0
M  V30 47 H 11.390062 0.760503 -15.910889 0
M  V30 48 H 10.649247 3.433815 -17.125582 0
M  V30 49 H 11.808410 2.250225 -17.722986 0
M  V30 50 H 9.333512 2.454074 -18.777134 0
M  V30 51 H 10.046127 0.845109 -18.568621 0
M  V30 52 H 7.668376 1.417942 -19.541313 0
M  V30 53 H 5.499140 0.635526 -20.296844 0
M  V30 54 H 3.917222 -0.422796 -18.701385 0
M  V30 55 H 4.523733 -0.694450 -16.363688 0
M  V30 56 H 9.220954 0.256504 -15.345201 0
M  V30 57 H 8.362069 1.765357 -13.848071 0
M  V30 58 H 7.846785 2.840344 -15.139813 0
M  V30 59 H 10.487120 10.126733 -7.047146 0
M  V30 60 H 12.062942 9.831903 -3.239951 0
M  V30 61 H 12.057732 7.310710 -3.432043 0
M  V30 62 H 9.739631 3.985918 -15.049282 0
M  V30 END ATOM
M  V30 BEGIN BOND
M  V30 1 1 2 1
M  V30 2 1 3 2
M  V30 3 1 4 3
M  V30 4 1 5 4
M  V30 5 1 6 5
M  V30 6 1 7 6
M  V30 7 1 8 7
M  V30 8 1 9 8
M  V30 9 1 10 9
M  V30 10 1 11 10
M  V30 11 1 12 11
M  V30 12 1 13 12
M  V30 13 1 14 13
M  V30 14 2 15 14
M  V30 15 1 16 15
M  V30 16 2 17 16
M  V30 17 1 18 17
M  V30 18 1 19 14
M  V30 19 2 19 18
M  V30 20 1 20 19
M  V30 21 1 21 20
M  V30 22 1 22 21
M  V30 23 1 23 21
M  V30 24 1 24 21
M  V30 25 1 25 10
M  V30 26 1 25 13
M  V30 27 1 26 8
M  V30 28 1 26 25
M  V30 29 2 27 3
M  V30 30 1 28 27
M  V30 31 1 29 2
M  V30 32 2 29 28
M  V30 33 1 30 29
M  V30 34 1 31 30
M  V30 35 2 32 31
M  V30 36 1 33 32
M  V30 37 2 34 33
M  V30 38 2 35 30
M  V30 39 1 35 34
M  V30 40 1 36 1
M  V30 41 1 37 1
M  V30 42 1 38 1
M  V30 43 1 39 5
M  V30 44 1 40 5
M  V30 45 1 41 6
M  V30 46 1 42 6
M  V30 47 1 43 7
M  V30 48 1 44 7
M  V30 49 1 45 9
M  V30 50 1 46 9
M  V30 51 1 10 47 CFG=3
M  V30 52 1 48 11
M  V30 53 1 49 11
M  V30 54 1 50 12
M  V30 55 1 51 12
M  V30 56 1 52 15
M  V30 57 1 53 16
M  V30 58 1 54 17
M  V30 59 1 55 18
M  V30 60 1 25 56 CFG=1
M  V30 61 1 57 26
M  V30 62 1 58 26
M  V30 63 1 59 31
M  V30 64 1 60 33
M  V30 65 1 61 34
M  V30 66 1 8 62 CFG=3
M  V30 END BOND
M  V30 END CTAB
M  END
>  <b_m_subgroup_collapsed>  (2068) 
0

>  <r_i_docking_score>  (2068) 
-6.2841175395736801

>  <s_m_subgroup_title>  (2068) 
glide-dock_SP_D22_pv

>  <s_m_subgroupid>  (2068) 
glide-dock_SP_D22_pv

>  <Molecule ChEMBL ID>  (2068) 
CHEMBL3774621

>  <Standard Type>  (2068) 
Ki

>  <Standard Value>  (2068) 
11.5

>  <label>  (2068) 
1

$$$$
CHEMBL45156
     RDKit          3D

  0  0  0  0  0  0  0  0  0  0999 V3000
M  V30 BEGIN CTAB
M  V30 COUNTS 41 42 0 0 1
M  V30 BEGIN ATOM
M  V30 1 F 5.686614 2.808900 -13.444225 0
M  V30 2 C 5.943618 4.098961 -13.231901 0
M  V30 3 C 7.160609 4.248387 -12.312310 0
M  V30 4 C 7.479787 5.718249 -11.987916 0
M  V30 5 N 8.690277 5.882850 -11.134943 0 CFG=2 CHG=1
M  V30 6 C 8.458965 5.455434 -9.731641 0
M  V30 7 C 9.748383 5.532538 -8.911104 0
M  V30 8 C 10.309558 6.961572 -8.892723 0 CFG=2
M  V30 9 C 9.440409 7.900301 -8.023875 0
M  V30 10 O 10.211149 8.954160 -7.460553 0
M  V30 11 C 10.786952 8.733183 -6.227711 0
M  V30 12 C 11.037340 9.866331 -5.429819 0
M  V30 13 C 11.552231 9.722066 -4.128865 0
M  V30 14 C 11.869212 8.451698 -3.631207 0
M  V30 15 Br 12.485998 8.289871 -1.846866 0
M  V30 16 C 11.684358 7.312857 -4.431190 0
M  V30 17 C 11.121708 7.451880 -5.716040 0
M  V30 18 C 10.495990 7.465743 -10.337032 0
M  V30 19 C 9.238979 7.268366 -11.210081 0
M  V30 20 H 5.048492 4.535795 -12.787867 0
M  V30 21 H 6.105589 4.562981 -14.204403 0
M  V30 22 H 8.026842 3.771287 -12.771740 0
M  V30 23 H 6.944623 3.703672 -11.394489 0
M  V30 24 H 6.618082 6.172235 -11.501061 0
M  V30 25 H 7.627705 6.253984 -12.925838 0
M  V30 26 H 8.091789 4.431830 -9.692561 0
M  V30 27 H 7.687418 6.079304 -9.279303 0
M  V30 28 H 10.484926 4.847775 -9.327375 0
M  V30 29 H 9.560794 5.186044 -7.894680 0
M  V30 30 H 11.300211 6.910789 -8.442347 0
M  V30 31 H 8.920562 7.352980 -7.235078 0
M  V30 32 H 8.644403 8.346687 -8.618316 0
M  V30 33 H 10.787045 10.848348 -5.802344 0
M  V30 34 H 11.686402 10.573648 -3.486239 0
M  V30 35 H 11.922125 6.330972 -4.046398 0
M  V30 36 H 10.948012 6.552422 -6.284680 0
M  V30 37 H 10.770459 8.521799 -10.326377 0
M  V30 38 H 11.337671 6.952347 -10.795929 0
M  V30 39 H 9.486131 7.505878 -12.245778 0
M  V30 40 H 8.486150 7.990721 -10.908850 0
M  V30 41 H 9.398468 5.272917 -11.514425 0
M  V30 END ATOM
M  V30 BEGIN BOND
M  V30 1 1 2 1
M  V30 2 1 3 2
M  V30 3 1 4 3
M  V30 4 1 5 4
M  V30 5 1 6 5
M  V30 6 1 7 6
M  V30 7 1 8 7
M  V30 8 1 9 8
M  V30 9 1 10 9
M  V30 10 1 11 10
M  V30 11 1 12 11
M  V30 12 2 13 12
M  V30 13 1 14 13
M  V30 14 1 15 14
M  V30 15 2 16 14
M  V30 16 2 17 11
M  V30 17 1 17 16
M  V30 18 1 18 8
M  V30 19 1 19 5
M  V30 20 1 19 18
M  V30 21 1 20 2
M  V30 22 1 21 2
M  V30 23 1 22 3
M  V30 24 1 23 3
M  V30 25 1 24 4
M  V30 26 1 25 4
M  V30 27 1 26 6
M  V30 28 1 27 6
M  V30 29 1 28 7
M  V30 30 1 29 7
M  V30 31 1 8 30 CFG=1
M  V30 32 1 31 9
M  V30 33 1 32 9
M  V30 34 1 33 12
M  V30 35 1 34 13
M  V30 36 1 35 16
M  V30 37 1 36 17
M  V30 38 1 37 18
M  V30 39 1 38 18
M  V30 40 1 39 19
M  V30 41 1 40 19
M  V30 42 1 5 41 CFG=3
M  V30 END BOND
M  V30 END CTAB
M  END
>  <b_m_subgroup_collapsed>  (2069) 
0

>  <r_i_docking_score>  (2069) 
-6.2820302612857004

>  <s_m_subgroup_title>  (2069) 
glide-dock_SP_D22_pv

>  <s_m_subgroupid>  (2069) 
glide-dock_SP_D22_pv

>  <Molecule ChEMBL ID>  (2069) 
CHEMBL45156

>  <Standard Type>  (2069) 
Ki

>  <Standard Value>  (2069) 
10000.0

>  <label>  (2069) 
0

$$$$
CHEMBL44739
     RDKit          3D

  0  0  0  0  0  0  0  0  0  0999 V3000
M  V30 BEGIN CTAB
M  V30 COUNTS 42 44 0 0 1
M  V30 BEGIN ATOM
M  V30 1 I 12.822716 8.972242 -1.446769 0
M  V30 2 C 12.085942 8.464712 -3.318474 0
M  V30 3 C 12.084435 7.115561 -3.692510 0
M  V30 4 C 11.614029 6.759126 -4.962111 0
M  V30 5 C 11.148878 7.725190 -5.868299 0
M  V30 6 O 10.763300 7.247885 -7.094148 0
M  V30 7 C 10.294535 8.160089 -8.065383 0
M  V30 8 C 10.049414 7.347813 -9.343354 0 CFG=1
M  V30 9 C 9.004733 6.235583 -9.118154 0
M  V30 10 C 8.689519 5.483348 -10.416338 0
M  V30 11 N 8.254765 6.427421 -11.473179 0 CFG=2 CHG=1
M  V30 12 C 7.755127 5.747130 -12.687572 0
M  V30 13 C 6.272556 5.466968 -12.583837 0
M  V30 14 C 5.608541 4.495967 -13.534142 0
M  V30 15 C 5.765529 4.138823 -12.080911 0
M  V30 16 C 9.287874 7.451895 -11.762618 0
M  V30 17 C 9.617997 8.260521 -10.501764 0
M  V30 18 C 11.134283 9.086864 -5.478550 0
M  V30 19 C 11.600862 9.450093 -4.199112 0
M  V30 20 H 12.454961 6.358178 -3.015333 0
M  V30 21 H 11.635253 5.731309 -5.268007 0
M  V30 22 H 9.375001 8.642459 -7.728387 0
M  V30 23 H 11.041268 8.933949 -8.255055 0
M  V30 24 H 10.992251 6.874074 -9.624788 0
M  V30 25 H 9.360876 5.525498 -8.370425 0
M  V30 26 H 8.086100 6.661536 -8.715237 0
M  V30 27 H 7.907428 4.748017 -10.229056 0
M  V30 28 H 9.568286 4.929538 -10.754033 0
M  V30 29 H 7.906976 6.386525 -13.555158 0
M  V30 30 H 8.308299 4.826076 -12.879009 0
M  V30 31 H 5.681183 6.340143 -12.313421 0
M  V30 32 H 4.605635 4.733253 -13.881883 0
M  V30 33 H 6.235966 3.964124 -14.246800 0
M  V30 34 H 6.498099 3.379152 -11.820104 0
M  V30 35 H 4.886241 4.172040 -11.446934 0
M  V30 36 H 8.926455 8.136104 -12.530722 0
M  V30 37 H 10.184503 6.970204 -12.156118 0
M  V30 38 H 8.747963 8.849410 -10.205527 0
M  V30 39 H 10.413713 8.972182 -10.723994 0
M  V30 40 H 10.778517 9.861027 -6.140552 0
M  V30 41 H 11.590089 10.485585 -3.894270 0
M  V30 42 H 7.465636 6.948143 -11.073381 0
M  V30 END ATOM
M  V30 BEGIN BOND
M  V30 1 1 2 1
M  V30 2 1 3 2
M  V30 3 2 4 3
M  V30 4 1 5 4
M  V30 5 1 6 5
M  V30 6 1 7 6
M  V30 7 1 8 7
M  V30 8 1 9 8
M  V30 9 1 10 9
M  V30 10 1 11 10
M  V30 11 1 12 11
M  V30 12 1 13 12
M  V30 13 1 14 13
M  V30 14 1 15 13
M  V30 15 1 15 14
M  V30 16 1 16 11
M  V30 17 1 17 8
M  V30 18 1 17 16
M  V30 19 2 18 5
M  V30 20 2 19 2
M  V30 21 1 19 18
M  V30 22 1 20 3
M  V30 23 1 21 4
M  V30 24 1 22 7
M  V30 25 1 23 7
M  V30 26 1 8 24 CFG=3
M  V30 27 1 25 9
M  V30 28 1 26 9
M  V30 29 1 27 10
M  V30 30 1 28 10
M  V30 31 1 29 12
M  V30 32 1 30 12
M  V30 33 1 31 13
M  V30 34 1 32 14
M  V30 35 1 33 14
M  V30 36 1 34 15
M  V30 37 1 35 15
M  V30 38 1 36 16
M  V30 39 1 37 16
M  V30 40 1 38 17
M  V30 41 1 39 17
M  V30 42 1 40 18
M  V30 43 1 41 19
M  V30 44 1 11 42 CFG=1
M  V30 END BOND
M  V30 END CTAB
M  END
>  <b_m_subgroup_collapsed>  (2070) 
0

>  <r_i_docking_score>  (2070) 
-6.2808908004124904

>  <s_m_subgroup_title>  (2070) 
glide-dock_SP_D22_pv

>  <s_m_subgroupid>  (2070) 
glide-dock_SP_D22_pv

>  <Molecule ChEMBL ID>  (2070) 
CHEMBL44739

>  <Standard Type>  (2070) 
Ki

>  <Standard Value>  (2070) 
10000.0

>  <label>  (2070) 
0

$$$$
CHEMBL2062848
     RDKit          3D

  0  0  0  0  0  0  0  0  0  0999 V3000
M  V30 BEGIN CTAB
M  V30 COUNTS 61 64 0 0 1
M  V30 BEGIN ATOM
M  V30 1 C 8.496959 8.116170 -7.047180 0
M  V30 2 C 8.816662 6.628050 -7.216171 0
M  V30 3 N 10.121373 6.288742 -7.844325 0 CHG=1
M  V30 4 C 11.333217 6.407619 -6.976478 0
M  V30 5 C 11.154707 6.847133 -5.498954 0
M  V30 6 C 10.365756 6.608767 -9.296815 0 CFG=2
M  V30 7 C 10.434094 8.082918 -9.715889 0 CFG=1
M  V30 8 C 11.736745 8.706290 -10.189816 0
M  V30 9 O 12.737663 8.572159 -9.213211 0
M  V30 10 C 9.326513 7.784844 -10.741647 0 CFG=1
M  V30 11 C 9.506874 7.756732 -12.244739 0
M  V30 12 N 9.927861 6.379267 -12.626571 0 CFG=1 CHG=1
M  V30 13 C 11.340288 6.149623 -13.047444 0
M  V30 14 C 11.689469 6.572179 -14.457519 0
M  V30 15 C 12.485998 7.713386 -14.682930 0
M  V30 16 C 12.885485 8.046733 -15.991699 0
M  V30 17 C 12.487769 7.244939 -17.079046 0
M  V30 18 C 11.683357 6.110588 -16.858601 0
M  V30 19 C 11.287299 5.772250 -15.549731 0
M  V30 20 C 9.457927 5.460047 -11.561673 0 CFG=2
M  V30 21 C 8.276816 4.725718 -12.179094 0
M  V30 22 C 8.532942 3.772531 -13.195116 0
M  V30 23 C 7.473652 3.109295 -13.846402 0
M  V30 24 C 6.147660 3.370975 -13.459536 0
M  V30 25 C 5.889407 4.332561 -12.467888 0
M  V30 26 C 6.940669 5.023685 -11.846578 0
M  V30 27 C 9.220363 6.333745 -10.304065 0 CFG=1
M  V30 28 H 7.686995 8.173271 -6.321519 0
M  V30 29 H 8.094586 8.559484 -7.958285 0
M  V30 30 H 9.325606 8.725838 -6.694685 0
M  V30 31 H 8.765635 6.170313 -6.231949 0
M  V30 32 H 8.004542 6.137980 -7.745695 0
M  V30 33 H 11.794000 5.418075 -6.971629 0
M  V30 34 H 12.080904 7.035140 -7.441910 0
M  V30 35 H 12.117669 6.829754 -4.992663 0
M  V30 36 H 10.511968 6.182137 -4.918222 0
M  V30 37 H 10.783761 7.864512 -5.400225 0
M  V30 38 H 11.286155 6.154633 -9.629904 0
M  V30 39 H 10.029793 8.716500 -8.933738 0
M  V30 40 H 12.103091 8.285418 -11.120317 0
M  V30 41 H 11.597445 9.772024 -10.367112 0
M  V30 42 H 13.409389 9.219755 -9.421122 0
M  V30 43 H 8.486072 8.399837 -10.451980 0
M  V30 44 H 8.515255 7.897110 -12.677969 0
M  V30 45 H 10.086976 8.571860 -12.646498 0
M  V30 46 H 12.041593 6.572089 -12.333043 0
M  V30 47 H 11.533563 5.076164 -13.050008 0
M  V30 48 H 12.820738 8.321146 -13.855280 0
M  V30 49 H 13.497123 8.919972 -16.166649 0
M  V30 50 H 12.791916 7.510562 -18.080471 0
M  V30 51 H 11.373847 5.496507 -17.692076 0
M  V30 52 H 10.689081 4.887327 -15.389409 0
M  V30 53 H 10.178595 4.680316 -11.328677 0
M  V30 54 H 9.548176 3.539071 -13.482966 0
M  V30 55 H 7.679232 2.377749 -14.614695 0
M  V30 56 H 5.329854 2.842139 -13.923388 0
M  V30 57 H 4.883657 4.556167 -12.168158 0
M  V30 58 H 6.682915 5.770323 -11.110229 0
M  V30 59 H 8.276660 6.138740 -9.806616 0
M  V30 60 H 10.025349 5.284640 -7.885547 0
M  V30 61 H 9.380287 6.136635 -13.440356 0
M  V30 END ATOM
M  V30 BEGIN BOND
M  V30 1 1 2 1
M  V30 2 1 3 2
M  V30 3 1 4 3
M  V30 4 1 5 4
M  V30 5 1 6 3
M  V30 6 1 7 6
M  V30 7 1 8 7
M  V30 8 1 9 8
M  V30 9 1 10 7
M  V30 10 1 11 10
M  V30 11 1 12 11
M  V30 12 1 13 12
M  V30 13 1 14 13
M  V30 14 2 15 14
M  V30 15 1 16 15
M  V30 16 2 17 16
M  V30 17 1 18 17
M  V30 18 1 19 14
M  V30 19 2 19 18
M  V30 20 1 20 12
M  V30 21 1 21 20
M  V30 22 2 22 21
M  V30 23 1 23 22
M  V30 24 2 24 23
M  V30 25 1 25 24
M  V30 26 1 26 21
M  V30 27 2 26 25
M  V30 28 1 27 6
M  V30 29 1 27 10
M  V30 30 1 27 20
M  V30 31 1 28 1
M  V30 32 1 29 1
M  V30 33 1 30 1
M  V30 34 1 31 2
M  V30 35 1 32 2
M  V30 36 1 33 4
M  V30 37 1 34 4
M  V30 38 1 35 5
M  V30 39 1 36 5
M  V30 40 1 37 5
M  V30 41 1 6 38 CFG=3
M  V30 42 1 7 39 CFG=1
M  V30 43 1 40 8
M  V30 44 1 41 8
M  V30 45 1 42 9
M  V30 46 1 10 43 CFG=3
M  V30 47 1 44 11
M  V30 48 1 45 11
M  V30 49 1 46 13
M  V30 50 1 47 13
M  V30 51 1 48 15
M  V30 52 1 49 16
M  V30 53 1 50 17
M  V30 54 1 51 18
M  V30 55 1 52 19
M  V30 56 1 20 53 CFG=1
M  V30 57 1 54 22
M  V30 58 1 55 23
M  V30 59 1 56 24
M  V30 60 1 57 25
M  V30 61 1 58 26
M  V30 62 1 27 59 CFG=1
M  V30 63 1 60 3
M  V30 64 1 12 61 CFG=3
M  V30 END BOND
M  V30 END CTAB
M  END
>  <b_m_subgroup_collapsed>  (2071) 
0

>  <r_i_docking_score>  (2071) 
-6.2807054599282797

>  <s_m_subgroup_title>  (2071) 
glide-dock_SP_D22_pv

>  <s_m_subgroupid>  (2071) 
glide-dock_SP_D22_pv

>  <Molecule ChEMBL ID>  (2071) 
CHEMBL2062848

>  <Standard Type>  (2071) 
Ki

>  <Standard Value>  (2071) 
12000.0

>  <label>  (2071) 
0

$$$$
CHEMBL98330
     RDKit          3D

  0  0  0  0  0  0  0  0  0  0999 V3000
M  V30 BEGIN CTAB
M  V30 COUNTS 29 31 0 0 1
M  V30 BEGIN ATOM
M  V30 1 C 11.911094 10.039367 -5.970981 0
M  V30 2 N 11.344434 9.021544 -6.829363 0
M  V30 3 C 10.458005 8.025189 -6.511917 0
M  V30 4 C 10.200002 7.316639 -7.650705 0
M  V30 5 C 11.005279 7.958433 -8.651902 0
M  V30 6 N 11.686021 8.972322 -8.128154 0
M  V30 7 C 11.170382 7.664421 -10.093881 0
M  V30 8 C 12.350286 8.063150 -10.760865 0
M  V30 9 C 12.545533 7.772312 -12.124075 0
M  V30 10 C 11.583564 7.047098 -12.844316 0
M  V30 11 C 10.395575 6.659914 -12.205257 0
M  V30 12 C 10.186412 6.972590 -10.845101 0
M  V30 13 C 8.886235 6.567446 -10.204897 0
M  V30 14 C 9.087965 5.516462 -9.115359 0
M  V30 15 C 9.249825 6.148449 -7.730913 0
M  V30 16 H 11.327610 10.121578 -5.053689 0
M  V30 17 H 11.904321 11.004321 -6.478650 0
M  V30 18 H 12.936522 9.772519 -5.717381 0
M  V30 19 H 10.076430 7.902052 -5.509551 0
M  V30 20 H 13.134636 8.572326 -10.222635 0
M  V30 21 H 13.457570 8.083300 -12.612881 0
M  V30 22 H 11.746922 6.809931 -13.885420 0
M  V30 23 H 9.642220 6.123460 -12.763552 0
M  V30 24 H 8.486022 7.481529 -9.777543 0
M  V30 25 H 8.176473 6.214432 -10.954510 0
M  V30 26 H 8.220102 4.856467 -9.082777 0
M  V30 27 H 9.940042 4.879552 -9.357982 0
M  V30 28 H 9.569026 5.372329 -7.046863 0
M  V30 29 H 8.263260 6.458028 -7.381749 0
M  V30 END ATOM
M  V30 BEGIN BOND
M  V30 1 1 2 1
M  V30 2 1 3 2
M  V30 3 2 4 3
M  V30 4 1 5 4
M  V30 5 1 6 2
M  V30 6 2 6 5
M  V30 7 1 7 5
M  V30 8 2 8 7
M  V30 9 1 9 8
M  V30 10 2 10 9
M  V30 11 1 11 10
M  V30 12 1 12 7
M  V30 13 2 12 11
M  V30 14 1 13 12
M  V30 15 1 14 13
M  V30 16 1 15 4
M  V30 17 1 15 14
M  V30 18 1 16 1
M  V30 19 1 17 1
M  V30 20 1 18 1
M  V30 21 1 19 3
M  V30 22 1 20 8
M  V30 23 1 21 9
M  V30 24 1 22 10
M  V30 25 1 23 11
M  V30 26 1 24 13
M  V30 27 1 25 13
M  V30 28 1 26 14
M  V30 29 1 27 14
M  V30 30 1 28 15
M  V30 31 1 29 15
M  V30 END BOND
M  V30 END CTAB
M  END
>  <b_m_subgroup_collapsed>  (2072) 
0

>  <r_i_docking_score>  (2072) 
-6.2802534362781399

>  <s_m_subgroup_title>  (2072) 
glide-dock_SP_D22_pv

>  <s_m_subgroupid>  (2072) 
glide-dock_SP_D22_pv

>  <Molecule ChEMBL ID>  (2072) 
CHEMBL98330

>  <Standard Type>  (2072) 
Ki

>  <Standard Value>  (2072) 
10000.0

>  <label>  (2072) 
0

$$$$
CHEMBL482977
     RDKit          3D

  0  0  0  0  0  0  0  0  0  0999 V3000
M  V30 BEGIN CTAB
M  V30 COUNTS 41 43 0 0 1
M  V30 BEGIN ATOM
M  V30 1 C 9.762906 4.992942 -14.084014 0
M  V30 2 C 8.916812 5.521480 -12.919656 0
M  V30 3 C 9.724779 5.657820 -11.617955 0
M  V30 4 N 8.886133 6.219666 -10.531595 0 CFG=1 CHG=1
M  V30 5 C 8.099199 5.203431 -9.816990 0
M  V30 6 C 8.898889 4.535063 -8.690556 0
M  V30 7 O 9.322392 5.539999 -7.783500 0
M  V30 8 C 10.218596 6.466741 -8.372444 0 CFG=2
M  V30 9 C 10.744862 7.483550 -7.353155 0
M  V30 10 C 11.120449 7.083677 -6.044404 0
M  V30 11 C 11.611757 8.026621 -5.101033 0
M  V30 12 C 12.082861 7.610724 -3.733348 0
M  V30 13 O 12.463273 8.489561 -2.928079 0
M  V30 14 O 12.084486 6.398299 -3.442666 0 CHG=-1
M  V30 15 C 11.694163 9.380664 -5.475366 0
M  V30 16 C 11.336411 9.775024 -6.770504 0
M  V30 17 C 10.884893 8.844028 -7.720021 0
M  V30 18 C 10.498970 9.350680 -9.104348 0
M  V30 19 C 10.360290 8.259455 -10.157598 0
M  V30 20 C 9.494241 7.157614 -9.551288 0 CFG=1
M  V30 21 H 9.167209 4.914742 -14.993358 0
M  V30 22 H 10.162878 4.002438 -13.862460 0
M  V30 23 H 10.603610 5.654615 -14.296371 0
M  V30 24 H 8.490599 6.488307 -13.191707 0
M  V30 25 H 8.069680 4.850514 -12.768688 0
M  V30 26 H 10.088283 4.675285 -11.319234 0
M  V30 27 H 10.593875 6.281328 -11.819328 0
M  V30 28 H 7.286269 5.772325 -9.378783 0
M  V30 29 H 7.685672 4.464620 -10.502104 0
M  V30 30 H 8.271619 3.820831 -8.159594 0
M  V30 31 H 9.753543 3.976446 -9.073998 0
M  V30 32 H 11.082095 5.925125 -8.749063 0
M  V30 33 H 11.042028 6.044732 -5.762378 0
M  V30 34 H 12.056027 10.122278 -4.777966 0
M  V30 35 H 11.424435 10.814995 -7.044516 0
M  V30 36 H 9.504365 9.772253 -8.990388 0
M  V30 37 H 11.174689 10.136529 -9.446413 0
M  V30 38 H 9.907603 8.671846 -11.059961 0
M  V30 39 H 11.346467 7.879357 -10.426707 0
M  V30 40 H 8.623804 7.653146 -9.114706 0
M  V30 41 H 8.190097 6.793149 -10.996189 0
M  V30 END ATOM
M  V30 BEGIN BOND
M  V30 1 1 2 1
M  V30 2 1 3 2
M  V30 3 1 4 3
M  V30 4 1 5 4
M  V30 5 1 6 5
M  V30 6 1 7 6
M  V30 7 1 8 7
M  V30 8 1 9 8
M  V30 9 1 10 9
M  V30 10 2 11 10
M  V30 11 1 12 11
M  V30 12 2 13 12
M  V30 13 1 14 12
M  V30 14 1 15 11
M  V30 15 2 16 15
M  V30 16 2 17 9
M  V30 17 1 17 16
M  V30 18 1 18 17
M  V30 19 1 19 18
M  V30 20 1 20 4
M  V30 21 1 20 8
M  V30 22 1 20 19
M  V30 23 1 21 1
M  V30 24 1 22 1
M  V30 25 1 23 1
M  V30 26 1 24 2
M  V30 27 1 25 2
M  V30 28 1 26 3
M  V30 29 1 27 3
M  V30 30 1 28 5
M  V30 31 1 29 5
M  V30 32 1 30 6
M  V30 33 1 31 6
M  V30 34 1 8 32 CFG=3
M  V30 35 1 33 10
M  V30 36 1 34 15
M  V30 37 1 35 16
M  V30 38 1 36 18
M  V30 39 1 37 18
M  V30 40 1 38 19
M  V30 41 1 39 19
M  V30 42 1 20 40 CFG=1
M  V30 43 1 4 41 CFG=3
M  V30 END BOND
M  V30 END CTAB
M  END
>  <b_m_subgroup_collapsed>  (2073) 
0

>  <r_i_docking_score>  (2073) 
-6.2799393193510502

>  <s_m_subgroup_title>  (2073) 
glide-dock_SP_D22_pv

>  <s_m_subgroupid>  (2073) 
glide-dock_SP_D22_pv

>  <Molecule ChEMBL ID>  (2073) 
CHEMBL482977

>  <Standard Type>  (2073) 
Ki

>  <Standard Value>  (2073) 
10000.0

>  <label>  (2073) 
0

$$$$
CHEMBL607559
     RDKit          3D

  0  0  0  0  0  0  0  0  0  0999 V3000
M  V30 BEGIN CTAB
M  V30 COUNTS 42 46 0 0 1
M  V30 BEGIN ATOM
M  V30 1 C 5.386088 3.870813 -12.425048 0
M  V30 2 C 6.777353 4.348840 -12.644735 0
M  V30 3 C 7.458195 5.425682 -12.137506 0
M  V30 4 C 8.769526 5.371242 -12.711908 0
M  V30 5 C 9.944756 6.150079 -12.646601 0
M  V30 6 C 11.068573 5.818599 -13.430332 0
M  V30 7 C 11.053674 4.673546 -14.254108 0
M  V30 8 C 9.929807 3.821106 -14.287509 0
M  V30 9 C 8.795313 4.218810 -13.541262 0
M  V30 10 O 7.552946 3.614054 -13.496430 0
M  V30 11 C 9.995338 2.583735 -15.097899 0
M  V30 12 C 9.196635 1.444281 -14.824812 0
M  V30 13 C 9.266005 0.262791 -15.582050 0
M  V30 14 C 10.162267 0.168937 -16.654734 0
M  V30 15 C 10.999788 1.253652 -16.963987 0
M  V30 16 C 10.913307 2.431670 -16.170740 0
M  V30 17 C 11.820376 3.653599 -16.449263 0 CFG=1
M  V30 18 C 12.239221 4.375389 -15.143465 0
M  V30 19 N 12.993075 3.347950 -17.314278 0 CFG=2 CHG=1
M  V30 20 C 13.815383 4.523889 -17.694052 0
M  V30 21 C 12.570270 2.580144 -18.497828 0
M  V30 22 C 12.064378 1.217519 -18.046520 0
M  V30 23 H 4.887381 4.483863 -11.673985 0
M  V30 24 H 5.381699 2.839238 -12.074862 0
M  V30 25 H 4.810015 3.925859 -13.347212 0
M  V30 26 H 7.084802 6.172341 -11.447515 0
M  V30 27 H 9.960675 7.031466 -12.022250 0
M  V30 28 H 11.941022 6.456197 -13.398838 0
M  V30 29 H 8.513149 1.449934 -13.989400 0
M  V30 30 H 8.635134 -0.579084 -15.329949 0
M  V30 31 H 10.220144 -0.745574 -17.228151 0
M  V30 32 H 11.191283 4.346349 -17.009644 0
M  V30 33 H 12.739896 5.320395 -15.356186 0
M  V30 34 H 12.942298 3.772382 -14.571651 0
M  V30 35 H 13.207143 5.294446 -18.170904 0
M  V30 36 H 14.604091 4.236331 -18.388584 0
M  V30 37 H 14.318221 4.959857 -16.832157 0
M  V30 38 H 11.795699 3.124693 -19.038891 0
M  V30 39 H 13.403143 2.438407 -19.187159 0
M  V30 40 H 12.886645 0.612951 -17.670065 0
M  V30 41 H 11.666698 0.678511 -18.907753 0
M  V30 42 H 13.596022 2.739312 -16.776096 0
M  V30 END ATOM
M  V30 BEGIN BOND
M  V30 1 1 2 1
M  V30 2 2 3 2
M  V30 3 1 4 3
M  V30 4 1 5 4
M  V30 5 2 6 5
M  V30 6 1 7 6
M  V30 7 2 8 7
M  V30 8 2 9 4
M  V30 9 1 9 8
M  V30 10 1 10 2
M  V30 11 1 10 9
M  V30 12 1 11 8
M  V30 13 2 12 11
M  V30 14 1 13 12
M  V30 15 2 14 13
M  V30 16 1 15 14
M  V30 17 1 16 11
M  V30 18 2 16 15
M  V30 19 1 17 16
M  V30 20 1 18 7
M  V30 21 1 18 17
M  V30 22 1 19 17
M  V30 23 1 20 19
M  V30 24 1 21 19
M  V30 25 1 22 15
M  V30 26 1 22 21
M  V30 27 1 23 1
M  V30 28 1 24 1
M  V30 29 1 25 1
M  V30 30 1 26 3
M  V30 31 1 27 5
M  V30 32 1 28 6
M  V30 33 1 29 12
M  V30 34 1 30 13
M  V30 35 1 31 14
M  V30 36 1 17 32 CFG=3
M  V30 37 1 33 18
M  V30 38 1 34 18
M  V30 39 1 35 20
M  V30 40 1 36 20
M  V30 41 1 37 20
M  V30 42 1 38 21
M  V30 43 1 39 21
M  V30 44 1 40 22
M  V30 45 1 41 22
M  V30 46 1 19 42 CFG=1
M  V30 END BOND
M  V30 END CTAB
M  END
>  <b_m_subgroup_collapsed>  (2074) 
0

>  <r_i_docking_score>  (2074) 
-6.2775974646768002

>  <s_m_subgroup_title>  (2074) 
glide-dock_SP_D22_pv

>  <s_m_subgroupid>  (2074) 
glide-dock_SP_D22_pv

>  <Molecule ChEMBL ID>  (2074) 
CHEMBL607559

>  <Standard Type>  (2074) 
Ki

>  <Standard Value>  (2074) 
10000.0

>  <label>  (2074) 
0

$$$$
CHEMBL4466071
     RDKit          3D

  0  0  0  0  0  0  0  0  0  0999 V3000
M  V30 BEGIN CTAB
M  V30 COUNTS 56 59 0 0 1
M  V30 BEGIN ATOM
M  V30 1 C 10.475640 8.871499 -6.740943 0
M  V30 2 C 9.410725 7.952769 -7.361696 0
M  V30 3 C 9.854280 7.284601 -8.670560 0
M  V30 4 O 11.020950 7.372613 -9.055629 0
M  V30 5 N 8.886005 6.612241 -9.312243 0
M  V30 6 C 8.925149 5.982109 -10.581032 0
M  V30 7 N 7.838502 5.371592 -11.050753 0
M  V30 8 C 8.131522 4.921583 -12.327587 0
M  V30 9 C 7.101800 4.282718 -13.210601 0
M  V30 10 C 5.686040 4.852725 -13.037798 0
M  V30 11 C 9.469240 5.222572 -12.529810 0
M  V30 12 C 10.357718 4.949252 -13.659070 0
M  V30 13 C 11.280515 5.772619 -14.243122 0
M  V30 14 N 11.825556 5.165763 -15.362834 0
M  V30 15 S 12.898491 5.963224 -16.454229 0
M  V30 16 O 13.840718 4.942901 -16.936644 0
M  V30 17 O 13.375799 7.156935 -15.738662 0
M  V30 18 C 11.879732 6.503948 -17.830183 0
M  V30 19 C 12.447508 7.400348 -18.755833 0
M  V30 20 C 11.683181 7.863601 -19.844175 0
M  V30 21 C 10.351027 7.433077 -20.004078 0
M  V30 22 C 9.782825 6.535089 -19.078932 0
M  V30 23 C 10.546584 6.064781 -17.992786 0
M  V30 24 C 11.338615 3.870314 -15.466813 0
M  V30 25 C 11.577782 2.832470 -16.388500 0
M  V30 26 C 10.888190 1.614123 -16.262094 0
M  V30 27 C 9.957743 1.423888 -15.223421 0
M  V30 28 O 9.287078 0.221791 -15.185915 0
M  V30 29 C 8.086760 0.172511 -14.424626 0
M  V30 30 C 9.751291 2.466088 -14.287133 0
M  V30 31 C 10.406987 3.714786 -14.396710 0
M  V30 32 N 9.943698 5.948146 -11.430378 0
M  V30 33 H 10.087250 9.362305 -5.848042 0
M  V30 34 H 11.362354 8.308535 -6.449273 0
M  V30 35 H 10.789434 9.650220 -7.437191 0
M  V30 36 H 8.502424 8.526437 -7.554502 0
M  V30 37 H 9.137155 7.174785 -6.648252 0
M  V30 38 H 7.963525 6.671516 -8.895152 0
M  V30 39 H 7.404495 4.410845 -14.249564 0
M  V30 40 H 7.070257 3.209679 -13.037261 0
M  V30 41 H 5.001468 4.422105 -13.768852 0
M  V30 42 H 5.287819 4.637547 -12.046001 0
M  V30 43 H 5.674662 5.934508 -13.167557 0
M  V30 44 H 11.544150 6.786630 -13.976479 0
M  V30 45 H 13.463988 7.741421 -18.625435 0
M  V30 46 H 12.116475 8.557893 -20.549206 0
M  V30 47 H 9.763888 7.793683 -20.836113 0
M  V30 48 H 8.761149 6.206524 -19.203323 0
M  V30 49 H 10.088658 5.382978 -17.294859 0
M  V30 50 H 12.282649 2.966445 -17.195566 0
M  V30 51 H 11.061761 0.821674 -16.974924 0
M  V30 52 H 7.538155 -0.740239 -14.647526 0
M  V30 53 H 8.301012 0.172266 -13.358798 0
M  V30 54 H 7.426363 1.008023 -14.658021 0
M  V30 55 H 9.086644 2.326796 -13.451565 0
M  V30 56 H 6.940002 5.315902 -10.586040 0
M  V30 END ATOM
M  V30 BEGIN BOND
M  V30 1 1 2 1
M  V30 2 1 3 2
M  V30 3 2 4 3
M  V30 4 1 5 3
M  V30 5 1 6 5
M  V30 6 1 7 6
M  V30 7 1 8 7
M  V30 8 1 9 8
M  V30 9 1 10 9
M  V30 10 2 11 8
M  V30 11 1 12 11
M  V30 12 2 13 12
M  V30 13 1 14 13
M  V30 14 1 15 14
M  V30 15 2 16 15
M  V30 16 2 17 15
M  V30 17 1 18 15
M  V30 18 2 19 18
M  V30 19 1 20 19
M  V30 20 2 21 20
M  V30 21 1 22 21
M  V30 22 1 23 18
M  V30 23 2 23 22
M  V30 24 1 24 14
M  V30 25 1 25 24
M  V30 26 2 26 25
M  V30 27 1 27 26
M  V30 28 1 28 27
M  V30 29 1 29 28
M  V30 30 2 30 27
M  V30 31 1 31 12
M  V30 32 2 31 24
M  V30 33 1 31 30
M  V30 34 2 32 6
M  V30 35 1 32 11
M  V30 36 1 33 1
M  V30 37 1 34 1
M  V30 38 1 35 1
M  V30 39 1 36 2
M  V30 40 1 37 2
M  V30 41 1 38 5
M  V30 42 1 39 9
M  V30 43 1 40 9
M  V30 44 1 41 10
M  V30 45 1 42 10
M  V30 46 1 43 10
M  V30 47 1 44 13
M  V30 48 1 45 19
M  V30 49 1 46 20
M  V30 50 1 47 21
M  V30 51 1 48 22
M  V30 52 1 49 23
M  V30 53 1 50 25
M  V30 54 1 51 26
M  V30 55 1 52 29
M  V30 56 1 53 29
M  V30 57 1 54 29
M  V30 58 1 55 30
M  V30 59 1 56 7
M  V30 END BOND
M  V30 END CTAB
M  END
>  <b_m_subgroup_collapsed>  (2075) 
0

>  <r_i_docking_score>  (2075) 
-6.27402395456759

>  <s_m_subgroup_title>  (2075) 
glide-dock_SP_D22_pv

>  <s_m_subgroupid>  (2075) 
glide-dock_SP_D22_pv

>  <Molecule ChEMBL ID>  (2075) 
CHEMBL4466071

>  <Standard Type>  (2075) 
Ki

>  <Standard Value>  (2075) 
10000.0

>  <label>  (2075) 
0

$$$$
CHEMBL3890882
     RDKit          3D

  0  0  0  0  0  0  0  0  0  0999 V3000
M  V30 BEGIN CTAB
M  V30 COUNTS 46 49 0 0 1
M  V30 BEGIN ATOM
M  V30 1 C 9.492699 8.331254 -10.614531 0
M  V30 2 N 8.486032 7.651208 -11.447776 0 CHG=1
M  V30 3 C 8.743141 6.211955 -11.635840 0 CFG=2
M  V30 4 C 9.774042 5.877999 -12.690374 0
M  V30 5 C 11.114644 6.049165 -13.046817 0
M  V30 6 C 11.512655 5.497588 -14.303139 0
M  V30 7 C 12.763938 5.484537 -14.997197 0
M  V30 8 C 12.555117 4.857842 -16.192179 0
M  V30 9 N 11.222857 4.491354 -16.310423 0
M  V30 10 S 10.573184 3.832717 -17.769297 0
M  V30 11 O 9.178306 4.289945 -17.842497 0
M  V30 12 O 11.531698 4.202356 -18.823515 0
M  V30 13 C 10.594245 2.055909 -17.564165 0
M  V30 14 C 11.572196 1.289766 -18.231588 0
M  V30 15 C 11.513387 -0.116337 -18.175007 0
M  V30 16 C 10.485680 -0.747878 -17.446676 0
M  V30 17 C 9.529757 0.021265 -16.753914 0
M  V30 18 C 9.579368 1.427637 -16.814898 0
M  V30 19 C 10.540867 4.812741 -15.136174 0
M  V30 20 C 9.189122 4.625349 -14.736193 0
M  V30 21 C 8.834672 5.197353 -13.512467 0
M  V30 22 C 7.663472 5.518744 -12.602432 0 CFG=1
M  V30 23 C 6.837692 4.346845 -12.096452 0
M  V30 24 C 6.174716 3.519809 -13.209970 0
M  V30 25 O 5.301967 2.562189 -12.647422 0
M  V30 26 H 9.174699 9.353587 -10.420273 0
M  V30 27 H 10.464879 8.352626 -11.106962 0
M  V30 28 H 9.597574 7.827991 -9.652976 0
M  V30 29 H 7.574275 7.761239 -10.951998 0
M  V30 30 H 8.909708 5.661684 -10.708140 0
M  V30 31 H 11.817505 6.573073 -12.417196 0
M  V30 32 H 13.686649 5.916169 -14.647207 0
M  V30 33 H 13.251559 4.682512 -17.000038 0
M  V30 34 H 12.346851 1.770833 -18.810413 0
M  V30 35 H 12.250029 -0.710262 -18.696287 0
M  V30 36 H 10.437741 -1.826183 -17.410769 0
M  V30 37 H 8.748276 -0.469206 -16.191460 0
M  V30 38 H 8.825134 2.014726 -16.313538 0
M  V30 39 H 8.486038 4.117233 -15.367729 0
M  V30 40 H 7.041532 6.274364 -13.079693 0
M  V30 41 H 7.454845 3.726474 -11.454910 0
M  V30 42 H 6.054719 4.739315 -11.447086 0
M  V30 43 H 5.605639 4.164565 -13.881004 0
M  V30 44 H 6.924156 3.002581 -13.809531 0
M  V30 45 H 4.654064 3.013872 -12.128449 0
M  V30 46 H 8.413631 8.103619 -12.345881 0
M  V30 END ATOM
M  V30 BEGIN BOND
M  V30 1 1 2 1
M  V30 2 1 3 2
M  V30 3 1 4 3
M  V30 4 1 5 4
M  V30 5 2 6 5
M  V30 6 1 7 6
M  V30 7 2 8 7
M  V30 8 1 9 8
M  V30 9 1 10 9
M  V30 10 2 11 10
M  V30 11 2 12 10
M  V30 12 1 13 10
M  V30 13 2 14 13
M  V30 14 1 15 14
M  V30 15 2 16 15
M  V30 16 1 17 16
M  V30 17 1 18 13
M  V30 18 2 18 17
M  V30 19 1 19 6
M  V30 20 1 19 9
M  V30 21 2 20 19
M  V30 22 2 21 4
M  V30 23 1 21 20
M  V30 24 1 22 3
M  V30 25 1 22 21
M  V30 26 1 23 22
M  V30 27 1 24 23
M  V30 28 1 25 24
M  V30 29 1 26 1
M  V30 30 1 27 1
M  V30 31 1 28 1
M  V30 32 1 29 2
M  V30 33 1 3 30 CFG=1
M  V30 34 1 31 5
M  V30 35 1 32 7
M  V30 36 1 33 8
M  V30 37 1 34 14
M  V30 38 1 35 15
M  V30 39 1 36 16
M  V30 40 1 37 17
M  V30 41 1 38 18
M  V30 42 1 39 20
M  V30 43 1 22 40 CFG=3
M  V30 44 1 41 23
M  V30 45 1 42 23
M  V30 46 1 43 24
M  V30 47 1 44 24
M  V30 48 1 45 25
M  V30 49 1 46 2
M  V30 END BOND
M  V30 END CTAB
M  END
>  <b_m_subgroup_collapsed>  (2076) 
0

>  <r_i_docking_score>  (2076) 
-6.2718112563209401

>  <s_m_subgroup_title>  (2076) 
glide-dock_SP_D22_pv

>  <s_m_subgroupid>  (2076) 
glide-dock_SP_D22_pv

>  <Molecule ChEMBL ID>  (2076) 
CHEMBL3890882

>  <Standard Type>  (2076) 
Ki

>  <Standard Value>  (2076) 
15848.93

>  <label>  (2076) 
0

$$$$
CHEMBL65547
     RDKit          3D

  0  0  0  0  0  0  0  0  0  0999 V3000
M  V30 BEGIN CTAB
M  V30 COUNTS 32 33 0 0 1
M  V30 BEGIN ATOM
M  V30 1 C 7.551617 4.171948 -12.143486 0
M  V30 2 N 7.514560 5.634762 -12.346717 0 CHG=1
M  V30 3 C 6.120506 6.123141 -12.465025 0
M  V30 4 C 8.253550 6.388722 -11.308266 0
M  V30 5 C 9.749102 6.052165 -11.196239 0
M  V30 6 C 10.521297 7.042509 -10.362506 0
M  V30 7 C 11.582240 7.771597 -10.841087 0
M  V30 8 N 12.085984 8.572296 -9.835377 0
M  V30 9 C 11.375538 8.389978 -8.670203 0
M  V30 10 C 11.517119 8.971075 -7.396674 0
M  V30 11 C 10.628461 8.612432 -6.372422 0
M  V30 12 C 9.617489 7.673037 -6.634624 0
M  V30 13 C 9.488175 7.079343 -7.903560 0
M  V30 14 O 8.486058 6.172360 -8.075835 0
M  V30 15 C 10.363548 7.422761 -8.970321 0
M  V30 16 H 7.141445 3.901009 -11.168948 0
M  V30 17 H 6.967411 3.661279 -12.909831 0
M  V30 18 H 8.569695 3.787249 -12.207632 0
M  V30 19 H 5.567905 5.942109 -11.541419 0
M  V30 20 H 6.094557 7.195440 -12.663421 0
M  V30 21 H 5.595455 5.619442 -13.277116 0
M  V30 22 H 7.757918 6.172094 -10.366201 0
M  V30 23 H 8.145989 7.454852 -11.513173 0
M  V30 24 H 10.179977 6.004538 -12.197134 0
M  V30 25 H 9.869315 5.056993 -10.767654 0
M  V30 26 H 12.025523 7.780535 -11.826935 0
M  V30 27 H 12.857294 9.223639 -9.964088 0
M  V30 28 H 12.301892 9.686049 -7.199911 0
M  V30 29 H 10.721570 9.052445 -5.390464 0
M  V30 30 H 8.934144 7.393209 -5.846937 0
M  V30 31 H 7.619886 6.549767 -7.901552 0
M  V30 32 H 7.969656 5.828310 -13.226684 0
M  V30 END ATOM
M  V30 BEGIN BOND
M  V30 1 1 2 1
M  V30 2 1 3 2
M  V30 3 1 4 2
M  V30 4 1 5 4
M  V30 5 1 6 5
M  V30 6 2 7 6
M  V30 7 1 8 7
M  V30 8 1 9 8
M  V30 9 2 10 9
M  V30 10 1 11 10
M  V30 11 2 12 11
M  V30 12 1 13 12
M  V30 13 1 14 13
M  V30 14 1 15 6
M  V30 15 1 15 9
M  V30 16 2 15 13
M  V30 17 1 16 1
M  V30 18 1 17 1
M  V30 19 1 18 1
M  V30 20 1 19 3
M  V30 21 1 20 3
M  V30 22 1 21 3
M  V30 23 1 22 4
M  V30 24 1 23 4
M  V30 25 1 24 5
M  V30 26 1 25 5
M  V30 27 1 26 7
M  V30 28 1 27 8
M  V30 29 1 28 10
M  V30 30 1 29 11
M  V30 31 1 30 12
M  V30 32 1 31 14
M  V30 33 1 32 2
M  V30 END BOND
M  V30 END CTAB
M  END
>  <b_m_subgroup_collapsed>  (2077) 
0

>  <r_i_docking_score>  (2077) 
-6.27116873178307

>  <s_m_subgroup_title>  (2077) 
glide-dock_SP_D22_pv

>  <s_m_subgroupid>  (2077) 
glide-dock_SP_D22_pv

>  <Molecule ChEMBL ID>  (2077) 
CHEMBL65547

>  <Standard Type>  (2077) 
Ki

>  <Standard Value>  (2077) 
10000.0

>  <label>  (2077) 
0

$$$$
CHEMBL603542
     RDKit          3D

  0  0  0  0  0  0  0  0  0  0999 V3000
M  V30 BEGIN CTAB
M  V30 COUNTS 56 59 0 0 1
M  V30 BEGIN ATOM
M  V30 1 C 6.555098 -0.296639 -13.515049 0
M  V30 2 C 6.845957 0.344802 -14.875834 0
M  V30 3 C 7.720854 1.614952 -14.787754 0
M  V30 4 N 9.102489 1.400481 -14.247566 0 CFG=1 CHG=1
M  V30 5 C 9.868814 0.323167 -14.903255 0
M  V30 6 C 10.123844 0.667459 -16.369211 0
M  V30 7 C 10.671011 2.066389 -16.609192 0
M  V30 8 C 11.200501 2.501318 -17.834719 0
M  V30 9 C 11.635778 3.826645 -17.978565 0
M  V30 10 C 11.585338 4.705065 -16.882149 0
M  V30 11 C 11.116322 4.321266 -15.599941 0
M  V30 12 C 10.599430 3.000727 -15.534657 0
M  V30 13 C 9.955264 2.619405 -14.187959 0 CFG=1
M  V30 14 C 9.257534 3.817351 -13.492742 0
M  V30 15 C 10.168841 5.031466 -13.392325 0
M  V30 16 C 10.086757 5.920233 -12.282592 0
M  V30 17 C 9.067214 5.722404 -11.159228 0
M  V30 18 C 8.891434 6.911504 -10.220996 0
M  V30 19 C 9.141705 6.993266 -8.895764 0
M  V30 20 C 8.902369 8.285752 -8.130691 0
M  V30 21 C 9.678967 5.865312 -8.031534 0
M  V30 22 C 11.024418 6.972050 -12.190323 0
M  V30 23 C 12.040000 7.109462 -13.145553 0
M  V30 24 C 12.100983 6.247859 -14.248138 0
M  V30 25 O 13.157877 6.400023 -15.100195 0
M  V30 26 C 11.128351 5.227390 -14.420918 0
M  V30 27 H 5.913982 -1.170467 -13.627847 0
M  V30 28 H 6.057473 0.401593 -12.838707 0
M  V30 29 H 7.479115 -0.627753 -13.045855 0
M  V30 30 H 7.277093 -0.393133 -15.551046 0
M  V30 31 H 5.890309 0.614145 -15.330116 0
M  V30 32 H 7.779526 2.080369 -15.774413 0
M  V30 33 H 7.187459 2.320054 -14.151003 0
M  V30 34 H 10.820184 0.188537 -14.384480 0
M  V30 35 H 9.354450 -0.627773 -14.824793 0
M  V30 36 H 10.832548 -0.051613 -16.784613 0
M  V30 37 H 9.209795 0.554283 -16.951790 0
M  V30 38 H 11.249292 1.823816 -18.676826 0
M  V30 39 H 12.016103 4.171062 -18.928959 0
M  V30 40 H 11.925258 5.714577 -17.048950 0
M  V30 41 H 10.798875 2.353084 -13.545982 0
M  V30 42 H 8.386951 4.149432 -14.057492 0
M  V30 43 H 8.909419 3.501295 -12.511127 0
M  V30 44 H 8.087974 5.538491 -11.602443 0
M  V30 45 H 9.333781 4.820236 -10.614226 0
M  V30 46 H 8.506896 7.796337 -10.711015 0
M  V30 47 H 8.194934 8.120099 -7.316733 0
M  V30 48 H 8.489092 9.059985 -8.777963 0
M  V30 49 H 9.835066 8.657460 -7.704998 0
M  V30 50 H 9.066332 5.772442 -7.135436 0
M  V30 51 H 10.698494 6.090487 -7.716825 0
M  V30 52 H 9.682122 4.895544 -8.522887 0
M  V30 53 H 11.020065 7.660929 -11.358653 0
M  V30 54 H 12.783381 7.884775 -13.023478 0
M  V30 55 H 13.876409 6.876767 -14.709641 0
M  V30 56 H 8.996733 1.106107 -13.282678 0
M  V30 END ATOM
M  V30 BEGIN BOND
M  V30 1 1 2 1
M  V30 2 1 3 2
M  V30 3 1 4 3
M  V30 4 1 5 4
M  V30 5 1 6 5
M  V30 6 1 7 6
M  V30 7 1 8 7
M  V30 8 2 9 8
M  V30 9 1 10 9
M  V30 10 2 11 10
M  V30 11 2 12 7
M  V30 12 1 12 11
M  V30 13 1 13 4
M  V30 14 1 13 12
M  V30 15 1 14 13
M  V30 16 1 15 14
M  V30 17 2 16 15
M  V30 18 1 17 16
M  V30 19 1 18 17
M  V30 20 2 19 18
M  V30 21 1 20 19
M  V30 22 1 21 19
M  V30 23 1 22 16
M  V30 24 2 23 22
M  V30 25 1 24 23
M  V30 26 1 25 24
M  V30 27 1 26 11
M  V30 28 1 26 15
M  V30 29 2 26 24
M  V30 30 1 27 1
M  V30 31 1 28 1
M  V30 32 1 29 1
M  V30 33 1 30 2
M  V30 34 1 31 2
M  V30 35 1 32 3
M  V30 36 1 33 3
M  V30 37 1 34 5
M  V30 38 1 35 5
M  V30 39 1 36 6
M  V30 40 1 37 6
M  V30 41 1 38 8
M  V30 42 1 39 9
M  V30 43 1 40 10
M  V30 44 1 13 41 CFG=1
M  V30 45 1 42 14
M  V30 46 1 43 14
M  V30 47 1 44 17
M  V30 48 1 45 17
M  V30 49 1 46 18
M  V30 50 1 47 20
M  V30 51 1 48 20
M  V30 52 1 49 20
M  V30 53 1 50 21
M  V30 54 1 51 21
M  V30 55 1 52 21
M  V30 56 1 53 22
M  V30 57 1 54 23
M  V30 58 1 55 25
M  V30 59 1 4 56 CFG=1
M  V30 END BOND
M  V30 END CTAB
M  END
>  <b_m_subgroup_collapsed>  (2078) 
0

>  <r_i_docking_score>  (2078) 
-6.26923584715178

>  <s_m_subgroup_title>  (2078) 
glide-dock_SP_D22_pv

>  <s_m_subgroupid>  (2078) 
glide-dock_SP_D22_pv

>  <Molecule ChEMBL ID>  (2078) 
CHEMBL603542

>  <Standard Type>  (2078) 
Ki

>  <Standard Value>  (2078) 
10000.0

>  <label>  (2078) 
0

$$$$
CHEMBL3187365
     RDKit          3D

  0  0  0  0  0  0  0  0  0  0999 V3000
M  V30 BEGIN CTAB
M  V30 COUNTS 37 40 0 0 1
M  V30 BEGIN ATOM
M  V30 1 C 10.020731 0.185133 -16.436867 0
M  V30 2 N 10.250026 1.068813 -15.275027 0 CFG=2 CHG=1
M  V30 3 C 9.016829 1.513454 -14.588880 0
M  V30 4 C 9.406299 2.857275 -13.972601 0 CFG=2
M  V30 5 C 8.316925 3.769448 -13.447037 0
M  V30 6 C 6.936258 3.516823 -13.612634 0
M  V30 7 C 5.991854 4.392039 -13.046953 0
M  V30 8 C 6.423381 5.523675 -12.329275 0
M  V30 9 C 7.796782 5.785837 -12.179288 0
M  V30 10 C 8.745749 4.907623 -12.736811 0
M  V30 11 O 10.085944 5.105578 -12.517085 0
M  V30 12 C 10.896224 5.484200 -13.561777 0
M  V30 13 C 11.680813 6.641083 -13.366266 0
M  V30 14 C 12.513898 7.130926 -14.385991 0
M  V30 15 C 12.606141 6.434733 -15.603486 0
M  V30 16 Cl 13.643534 7.018729 -16.852037 0
M  V30 17 C 11.863194 5.258374 -15.796611 0
M  V30 18 C 11.005754 4.762827 -14.786876 0
M  V30 19 C 10.225518 3.481450 -15.088005 0 CFG=1
M  V30 20 C 11.059340 2.282718 -15.570432 0
M  V30 21 H 9.486365 0.709076 -17.231762 0
M  V30 22 H 9.431569 -0.683779 -16.147816 0
M  V30 23 H 10.967637 -0.173493 -16.847099 0
M  V30 24 H 8.224845 1.640693 -15.328325 0
M  V30 25 H 8.676988 0.785518 -13.846192 0
M  V30 26 H 10.065095 2.639188 -13.126590 0
M  V30 27 H 6.586524 2.647409 -14.145506 0
M  V30 28 H 4.935019 4.191658 -13.153861 0
M  V30 29 H 5.702742 6.190149 -11.875470 0
M  V30 30 H 8.114166 6.644916 -11.603392 0
M  V30 31 H 11.618146 7.174939 -12.428987 0
M  V30 32 H 13.093424 8.027643 -14.225798 0
M  V30 33 H 11.950786 4.736516 -16.737864 0
M  V30 34 H 9.531894 3.741050 -15.890440 0
M  V30 35 H 11.989785 2.214772 -15.010806 0
M  V30 36 H 11.324481 2.371482 -16.624914 0
M  V30 37 H 10.776946 0.541089 -14.593877 0
M  V30 END ATOM
M  V30 BEGIN BOND
M  V30 1 1 2 1
M  V30 2 1 3 2
M  V30 3 1 4 3
M  V30 4 1 5 4
M  V30 5 2 6 5
M  V30 6 1 7 6
M  V30 7 2 8 7
M  V30 8 1 9 8
M  V30 9 1 10 5
M  V30 10 2 10 9
M  V30 11 1 11 10
M  V30 12 1 12 11
M  V30 13 1 13 12
M  V30 14 2 14 13
M  V30 15 1 15 14
M  V30 16 1 16 15
M  V30 17 2 17 15
M  V30 18 2 18 12
M  V30 19 1 18 17
M  V30 20 1 19 4
M  V30 21 1 19 18
M  V30 22 1 20 2
M  V30 23 1 20 19
M  V30 24 1 21 1
M  V30 25 1 22 1
M  V30 26 1 23 1
M  V30 27 1 24 3
M  V30 28 1 25 3
M  V30 29 1 4 26 CFG=1
M  V30 30 1 27 6
M  V30 31 1 28 7
M  V30 32 1 29 8
M  V30 33 1 30 9
M  V30 34 1 31 13
M  V30 35 1 32 14
M  V30 36 1 33 17
M  V30 37 1 19 34 CFG=3
M  V30 38 1 35 20
M  V30 39 1 36 20
M  V30 40 1 2 37 CFG=1
M  V30 END BOND
M  V30 END CTAB
M  END
>  <b_m_subgroup_collapsed>  (2079) 
0

>  <r_i_docking_score>  (2079) 
-6.2691693298615503

>  <s_m_subgroup_title>  (2079) 
glide-dock_SP_D22_pv

>  <s_m_subgroupid>  (2079) 
glide-dock_SP_D22_pv

>  <Molecule ChEMBL ID>  (2079) 
CHEMBL3187365

>  <Standard Type>  (2079) 
Ki

>  <Standard Value>  (2079) 
8.9

>  <label>  (2079) 
1

$$$$
CHEMBL531
     RDKit          3D

  0  0  0  0  0  0  0  0  0  0999 V3000
M  V30 BEGIN CTAB
M  V30 COUNTS 49 52 0 0 1
M  V30 BEGIN ATOM
M  V30 1 C 13.397765 7.455535 -16.761076 0
M  V30 2 C 12.355195 6.339785 -16.624466 0
M  V30 3 C 12.869987 5.158373 -15.773734 0
M  V30 4 N 11.891005 4.044314 -15.603373 0 CFG=2 CHG=1
M  V30 5 C 11.727744 3.242923 -16.844755 0
M  V30 6 C 10.959343 1.936825 -16.575710 0 CFG=2
M  V30 7 C 10.855590 1.083572 -17.856613 0
M  V30 8 S 10.335323 -0.627557 -17.533298 0
M  V30 9 C 8.583691 -0.571439 -18.002146 0
M  V30 10 C 9.583507 2.269107 -15.972946 0
M  V30 11 C 9.721963 3.136635 -14.708632 0 CFG=2
M  V30 12 C 8.367352 3.463300 -14.075880 0
M  V30 13 C 7.146381 2.763735 -14.179719 0
M  V30 14 C 6.031108 3.213916 -13.447312 0
M  V30 15 C 6.139724 4.360744 -12.637101 0
M  V30 16 C 7.335828 5.051354 -12.546614 0
M  V30 17 N 7.686402 6.172318 -11.846862 0
M  V30 18 C 9.014788 6.489005 -12.077562 0
M  V30 19 C 9.466957 5.533616 -12.948515 0
M  V30 20 C 8.443250 4.608161 -13.256683 0
M  V30 21 C 10.751632 5.227028 -13.670729 0
M  V30 22 C 10.578707 4.408582 -14.980432 0 CFG=1
M  V30 23 H 13.002834 8.285336 -17.349306 0
M  V30 24 H 14.301072 7.097578 -17.255903 0
M  V30 25 H 13.685807 7.850410 -15.786123 0
M  V30 26 H 11.456434 6.770279 -16.184042 0
M  V30 27 H 12.077247 5.998695 -17.621929 0
M  V30 28 H 13.777943 4.757593 -16.226877 0
M  V30 29 H 13.188326 5.517968 -14.794912 0
M  V30 30 H 11.211215 3.833411 -17.602901 0
M  V30 31 H 12.711685 3.001022 -17.249542 0
M  V30 32 H 11.528541 1.360536 -15.844306 0
M  V30 33 H 10.196144 1.547403 -18.590712 0
M  V30 34 H 11.838636 1.017910 -18.323708 0
M  V30 35 H 8.145914 -1.567202 -17.923464 0
M  V30 36 H 8.475149 -0.229566 -19.031715 0
M  V30 37 H 8.019044 0.094781 -17.352383 0
M  V30 38 H 8.960154 2.776541 -16.710987 0
M  V30 39 H 9.077218 1.341703 -15.711428 0
M  V30 40 H 10.248206 2.536296 -13.963252 0
M  V30 41 H 7.061590 1.875842 -14.788287 0
M  V30 42 H 5.095950 2.675581 -13.497636 0
M  V30 43 H 5.286133 4.699158 -12.066308 0
M  V30 44 H 7.078824 6.726899 -11.226914 0
M  V30 45 H 9.494074 7.345095 -11.623708 0
M  V30 46 H 11.250137 6.173696 -13.874338 0
M  V30 47 H 11.416414 4.676432 -13.008097 0
M  V30 48 H 10.027112 5.025097 -15.691929 0
M  V30 49 H 12.331695 3.415722 -14.947464 0
M  V30 END ATOM
M  V30 BEGIN BOND
M  V30 1 1 2 1
M  V30 2 1 3 2
M  V30 3 1 4 3
M  V30 4 1 5 4
M  V30 5 1 6 5
M  V30 6 1 7 6
M  V30 7 1 8 7
M  V30 8 1 9 8
M  V30 9 1 10 6
M  V30 10 1 11 10
M  V30 11 1 12 11
M  V30 12 1 13 12
M  V30 13 2 14 13
M  V30 14 1 15 14
M  V30 15 2 16 15
M  V30 16 1 17 16
M  V30 17 1 18 17
M  V30 18 2 19 18
M  V30 19 2 20 12
M  V30 20 1 20 16
M  V30 21 1 20 19
M  V30 22 1 21 19
M  V30 23 1 22 4
M  V30 24 1 22 11
M  V30 25 1 22 21
M  V30 26 1 23 1
M  V30 27 1 24 1
M  V30 28 1 25 1
M  V30 29 1 26 2
M  V30 30 1 27 2
M  V30 31 1 28 3
M  V30 32 1 29 3
M  V30 33 1 30 5
M  V30 34 1 31 5
M  V30 35 1 6 32 CFG=1
M  V30 36 1 33 7
M  V30 37 1 34 7
M  V30 38 1 35 9
M  V30 39 1 36 9
M  V30 40 1 37 9
M  V30 41 1 38 10
M  V30 42 1 39 10
M  V30 43 1 11 40 CFG=1
M  V30 44 1 41 13
M  V30 45 1 42 14
M  V30 46 1 43 15
M  V30 47 1 44 17
M  V30 48 1 45 18
M  V30 49 1 46 21
M  V30 50 1 47 21
M  V30 51 1 22 48 CFG=3
M  V30 52 1 4 49 CFG=1
M  V30 END BOND
M  V30 END CTAB
M  END
>  <b_m_subgroup_collapsed>  (2080) 
0

>  <r_i_docking_score>  (2080) 
-6.2688080271747397

>  <s_m_subgroup_title>  (2080) 
glide-dock_SP_D22_pv

>  <s_m_subgroupid>  (2080) 
glide-dock_SP_D22_pv

>  <Molecule ChEMBL ID>  (2080) 
CHEMBL531

>  <Standard Type>  (2080) 
Ki

>  <Standard Value>  (2080) 
0.62

>  <label>  (2080) 
1

$$$$
CHEMBL3344462
     RDKit          3D

  0  0  0  0  0  0  0  0  0  0999 V3000
M  V30 BEGIN CTAB
M  V30 COUNTS 53 56 0 0 1
M  V30 BEGIN ATOM
M  V30 1 C 11.451848 6.744791 -4.288551 0
M  V30 2 C 11.663173 8.139050 -4.898456 0
M  V30 3 C 11.495030 8.162168 -6.430761 0 CFG=2
M  V30 4 C 12.210228 9.372080 -7.046050 0
M  V30 5 C 10.012832 8.134958 -6.859083 0
M  V30 6 C 9.800333 7.505220 -8.197684 0
M  V30 7 C 9.493317 8.112580 -9.391009 0
M  V30 8 C 9.286194 7.181013 -10.454833 0
M  V30 9 C 9.495185 5.884786 -10.062272 0
M  V30 10 S 9.890022 5.772298 -8.375849 0
M  V30 11 C 9.280017 4.699275 -10.939017 0
M  V30 12 C 9.130235 5.131122 -12.420428 0 CFG=1
M  V30 13 C 8.636893 3.980756 -13.277175 0
M  V30 14 C 9.562919 3.081119 -13.845165 0
M  V30 15 C 9.110497 1.940101 -14.532036 0
M  V30 16 O 10.009735 1.054522 -15.048759 0
M  V30 17 C 7.731429 1.677454 -14.656889 0
M  V30 18 O 7.377167 0.510085 -15.296173 0
M  V30 19 C 6.073153 -0.001928 -15.065815 0
M  V30 20 C 6.804444 2.617845 -14.134823 0
M  V30 21 C 7.250402 3.772505 -13.454309 0
M  V30 22 C 6.239599 4.811263 -12.971711 0
M  V30 23 C 6.834218 5.976257 -12.144656 0
M  V30 24 N 8.229118 6.309159 -12.540340 0 CFG=1 CHG=1
M  V30 25 C 8.804246 7.505762 -11.846808 0
M  V30 26 H 11.612586 6.756136 -3.210339 0
M  V30 27 H 12.131385 6.016179 -4.722543 0
M  V30 28 H 10.452102 6.366665 -4.469406 0
M  V30 29 H 10.986238 8.859568 -4.438223 0
M  V30 30 H 12.668699 8.470193 -4.636723 0
M  V30 31 H 11.977918 7.264327 -6.820796 0
M  V30 32 H 11.799641 10.306842 -6.664462 0
M  V30 33 H 12.095106 9.370922 -8.130969 0
M  V30 34 H 13.282594 9.371348 -6.833155 0
M  V30 35 H 9.422490 7.572437 -6.134205 0
M  V30 36 H 9.594414 9.141762 -6.847650 0
M  V30 37 H 9.355566 9.175318 -9.518553 0
M  V30 38 H 10.086062 3.977115 -10.830118 0
M  V30 39 H 8.382822 4.178999 -10.603394 0
M  V30 40 H 10.109152 5.432656 -12.798880 0
M  V30 41 H 10.624334 3.236915 -13.718729 0
M  V30 42 H 9.560450 0.320166 -15.445024 0
M  V30 43 H 6.026166 -1.028753 -15.430269 0
M  V30 44 H 5.319281 0.572290 -15.605081 0
M  V30 45 H 5.827204 -0.019556 -14.002725 0
M  V30 46 H 5.742013 2.459795 -14.245872 0
M  V30 47 H 5.722255 5.205394 -13.846708 0
M  V30 48 H 5.472169 4.307842 -12.382569 0
M  V30 49 H 6.196198 6.854244 -12.247539 0
M  V30 50 H 6.804284 5.728301 -11.084583 0
M  V30 51 H 8.075683 8.316186 -11.838741 0
M  V30 52 H 9.643825 7.873909 -12.436109 0
M  V30 53 H 8.190364 6.540421 -13.521708 0
M  V30 END ATOM
M  V30 BEGIN BOND
M  V30 1 1 2 1
M  V30 2 1 3 2
M  V30 3 1 4 3
M  V30 4 1 5 3
M  V30 5 1 6 5
M  V30 6 2 7 6
M  V30 7 1 8 7
M  V30 8 2 9 8
M  V30 9 1 10 6
M  V30 10 1 10 9
M  V30 11 1 11 9
M  V30 12 1 12 11
M  V30 13 1 13 12
M  V30 14 2 14 13
M  V30 15 1 15 14
M  V30 16 1 16 15
M  V30 17 2 17 15
M  V30 18 1 18 17
M  V30 19 1 19 18
M  V30 20 1 20 17
M  V30 21 1 21 13
M  V30 22 2 21 20
M  V30 23 1 22 21
M  V30 24 1 23 22
M  V30 25 1 24 12
M  V30 26 1 24 23
M  V30 27 1 25 8
M  V30 28 1 25 24
M  V30 29 1 26 1
M  V30 30 1 27 1
M  V30 31 1 28 1
M  V30 32 1 29 2
M  V30 33 1 30 2
M  V30 34 1 3 31 CFG=3
M  V30 35 1 32 4
M  V30 36 1 33 4
M  V30 37 1 34 4
M  V30 38 1 35 5
M  V30 39 1 36 5
M  V30 40 1 37 7
M  V30 41 1 38 11
M  V30 42 1 39 11
M  V30 43 1 12 40 CFG=3
M  V30 44 1 41 14
M  V30 45 1 42 16
M  V30 46 1 43 19
M  V30 47 1 44 19
M  V30 48 1 45 19
M  V30 49 1 46 20
M  V30 50 1 47 22
M  V30 51 1 48 22
M  V30 52 1 49 23
M  V30 53 1 50 23
M  V30 54 1 51 25
M  V30 55 1 52 25
M  V30 56 1 24 53 CFG=3
M  V30 END BOND
M  V30 END CTAB
M  END
>  <b_m_subgroup_collapsed>  (2081) 
0

>  <r_i_docking_score>  (2081) 
-6.2686813786162201

>  <s_m_subgroup_title>  (2081) 
glide-dock_SP_D22_pv

>  <s_m_subgroupid>  (2081) 
glide-dock_SP_D22_pv

>  <Molecule ChEMBL ID>  (2081) 
CHEMBL3344462

>  <Standard Type>  (2081) 
Ki

>  <Standard Value>  (2081) 
29.1

>  <label>  (2081) 
1

$$$$
CHEMBL1632158
     RDKit          3D

  0  0  0  0  0  0  0  0  0  0999 V3000
M  V30 BEGIN CTAB
M  V30 COUNTS 68 71 0 0 1
M  V30 BEGIN ATOM
M  V30 1 C 12.140844 8.721595 -1.798038 0
M  V30 2 O 12.084334 9.438890 -3.014782 0
M  V30 3 C 11.934266 8.772557 -4.162304 0
M  V30 4 O 11.851733 7.549125 -4.274055 0
M  V30 5 C 11.867305 9.717902 -5.361947 0
M  V30 6 C 11.362622 9.081790 -6.670497 0
M  V30 7 C 9.884727 8.641887 -6.638544 0
M  V30 8 C 9.283589 8.470325 -8.044374 0
M  V30 9 C 9.252126 7.002858 -8.479897 0
M  V30 10 N 8.969413 6.832562 -9.929890 0 CFG=2 CHG=1
M  V30 11 C 8.222800 5.584063 -10.174846 0
M  V30 12 C 7.958421 5.303304 -11.661734 0
M  V30 13 C 9.268651 5.295410 -12.462967 0 CFG=1
M  V30 14 C 9.061894 5.011064 -13.961180 0
M  V30 15 N 8.416675 3.727290 -14.216667 0
M  V30 16 C 8.997333 2.669983 -14.800198 0
M  V30 17 O 10.204030 2.600340 -15.027025 0
M  V30 18 C 8.032952 1.632723 -15.260368 0
M  V30 19 C 6.872039 1.204624 -14.668910 0
M  V30 20 N 6.286335 0.227902 -15.478918 0
M  V30 21 C 7.069109 0.034009 -16.610010 0
M  V30 22 C 6.901079 -0.804052 -17.730320 0
M  V30 23 C 7.882477 -0.829438 -18.736753 0
M  V30 24 C 9.020728 -0.009456 -18.621359 0
M  V30 25 C 9.176616 0.841105 -17.508011 0
M  V30 26 C 8.204840 0.888164 -16.477083 0
M  V30 27 C 5.052577 -0.474246 -15.169767 0
M  V30 28 C 4.358829 0.128001 -13.939237 0
M  V30 29 C 5.400678 0.618703 -12.924538 0
M  V30 30 O 6.244301 1.593082 -13.528523 0
M  V30 31 C 9.948631 6.658420 -12.243095 0
M  V30 32 C 10.202181 6.923825 -10.749950 0
M  V30 33 H 12.123177 9.415526 -0.957916 0
M  V30 34 H 11.288608 8.044815 -1.706611 0
M  V30 35 H 13.060344 8.138839 -1.741480 0
M  V30 36 H 12.864902 10.126419 -5.521872 0
M  V30 37 H 11.231761 10.564672 -5.100321 0
M  V30 38 H 11.993230 8.241140 -6.960236 0
M  V30 39 H 11.493453 9.829627 -7.449188 0
M  V30 40 H 9.292150 9.372279 -6.098402 0
M  V30 41 H 9.771669 7.723643 -6.059440 0
M  V30 42 H 9.816435 9.089137 -8.766869 0
M  V30 43 H 8.261876 8.849382 -8.037829 0
M  V30 44 H 8.485443 6.506152 -7.882536 0
M  V30 45 H 10.187196 6.503265 -8.225938 0
M  V30 46 H 7.286100 5.772287 -9.674043 0
M  V30 47 H 8.716836 4.735043 -9.698871 0
M  V30 48 H 7.280910 6.060441 -12.059614 0
M  V30 49 H 7.440060 4.347697 -11.753741 0
M  V30 50 H 9.917218 4.512472 -12.062213 0
M  V30 51 H 10.015915 5.076912 -14.485981 0
M  V30 52 H 8.428231 5.777852 -14.399551 0
M  V30 53 H 7.423138 3.669428 -14.050658 0
M  V30 54 H 6.031549 -1.439502 -17.803501 0
M  V30 55 H 7.764001 -1.478625 -19.592564 0
M  V30 56 H 9.777291 -0.029260 -19.392101 0
M  V30 57 H 10.051820 1.469623 -17.441753 0
M  V30 58 H 4.390899 -0.452966 -16.037600 0
M  V30 59 H 5.310872 -1.517821 -14.981897 0
M  V30 60 H 3.741791 0.972291 -14.243433 0
M  V30 61 H 3.680443 -0.599000 -13.491199 0
M  V30 62 H 4.910906 1.071866 -12.062638 0
M  V30 63 H 6.007183 -0.209996 -12.554572 0
M  V30 64 H 10.895416 6.698859 -12.785069 0
M  V30 65 H 9.324578 7.456128 -12.646686 0
M  V30 66 H 10.675172 7.896885 -10.615623 0
M  V30 67 H 10.886024 6.172875 -10.366114 0
M  V30 68 H 8.307678 7.555810 -10.206577 0
M  V30 END ATOM
M  V30 BEGIN BOND
M  V30 1 1 2 1
M  V30 2 1 3 2
M  V30 3 2 4 3
M  V30 4 1 5 3
M  V30 5 1 6 5
M  V30 6 1 7 6
M  V30 7 1 8 7
M  V30 8 1 9 8
M  V30 9 1 10 9
M  V30 10 1 11 10
M  V30 11 1 12 11
M  V30 12 1 13 12
M  V30 13 1 14 13
M  V30 14 1 15 14
M  V30 15 1 16 15
M  V30 16 2 17 16
M  V30 17 1 18 16
M  V30 18 2 19 18
M  V30 19 1 20 19
M  V30 20 1 21 20
M  V30 21 2 22 21
M  V30 22 1 23 22
M  V30 23 2 24 23
M  V30 24 1 25 24
M  V30 25 1 26 18
M  V30 26 1 26 21
M  V30 27 2 26 25
M  V30 28 1 27 20
M  V30 29 1 28 27
M  V30 30 1 29 28
M  V30 31 1 30 19
M  V30 32 1 30 29
M  V30 33 1 31 13
M  V30 34 1 32 10
M  V30 35 1 32 31
M  V30 36 1 33 1
M  V30 37 1 34 1
M  V30 38 1 35 1
M  V30 39 1 36 5
M  V30 40 1 37 5
M  V30 41 1 38 6
M  V30 42 1 39 6
M  V30 43 1 40 7
M  V30 44 1 41 7
M  V30 45 1 42 8
M  V30 46 1 43 8
M  V30 47 1 44 9
M  V30 48 1 45 9
M  V30 49 1 46 11
M  V30 50 1 47 11
M  V30 51 1 48 12
M  V30 52 1 49 12
M  V30 53 1 13 50 CFG=1
M  V30 54 1 51 14
M  V30 55 1 52 14
M  V30 56 1 53 15
M  V30 57 1 54 22
M  V30 58 1 55 23
M  V30 59 1 56 24
M  V30 60 1 57 25
M  V30 61 1 58 27
M  V30 62 1 59 27
M  V30 63 1 60 28
M  V30 64 1 61 28
M  V30 65 1 62 29
M  V30 66 1 63 29
M  V30 67 1 64 31
M  V30 68 1 65 31
M  V30 69 1 66 32
M  V30 70 1 67 32
M  V30 71 1 10 68 CFG=3
M  V30 END BOND
M  V30 END CTAB
M  END
>  <b_m_subgroup_collapsed>  (2082) 
0

>  <r_i_docking_score>  (2082) 
-6.2685891038236097

>  <s_m_subgroup_title>  (2082) 
glide-dock_SP_D22_pv

>  <s_m_subgroupid>  (2082) 
glide-dock_SP_D22_pv

>  <Molecule ChEMBL ID>  (2082) 
CHEMBL1632158

>  <Standard Type>  (2082) 
Ki

>  <Standard Value>  (2082) 
10000.0

>  <label>  (2082) 
0

$$$$
CHEMBL201444
     RDKit          3D

  0  0  0  0  0  0  0  0  0  0999 V3000
M  V30 BEGIN CTAB
M  V30 COUNTS 27 27 0 0 1
M  V30 BEGIN ATOM
M  V30 1 C 9.284767 4.809084 -9.176232 0
M  V30 2 C 8.759316 5.926628 -8.276257 0
M  V30 3 O 9.851210 6.673662 -7.776947 0
M  V30 4 C 9.680204 7.960169 -7.416402 0
M  V30 5 O 8.615958 8.572370 -7.391684 0
M  V30 6 C 10.977503 8.665575 -7.013756 0 CFG=2
M  V30 7 C 12.149244 8.327808 -7.957447 0
M  V30 8 Br 11.667714 8.570277 -9.877540 0
M  V30 9 C 11.331714 8.438704 -5.545040 0
M  V30 10 C 11.385930 7.142380 -4.978248 0
M  V30 11 C 11.760137 6.969819 -3.631059 0
M  V30 12 C 12.084902 8.082601 -2.834168 0
M  V30 13 C 12.023290 9.372425 -3.387760 0
M  V30 14 C 11.649632 9.550920 -4.734631 0
M  V30 15 H 8.457561 4.208033 -9.551634 0
M  V30 16 H 9.814630 5.220733 -10.036409 0
M  V30 17 H 9.969277 4.146236 -8.646867 0
M  V30 18 H 8.180458 5.523809 -7.447066 0
M  V30 19 H 8.086966 6.562382 -8.857575 0
M  V30 20 H 10.771688 9.728815 -7.131581 0
M  V30 21 H 13.006724 8.971238 -7.755145 0
M  V30 22 H 12.477400 7.298742 -7.840823 0
M  V30 23 H 11.156423 6.267264 -5.569719 0
M  V30 24 H 11.802129 5.977256 -3.205188 0
M  V30 25 H 12.370563 7.948427 -1.801802 0
M  V30 26 H 12.262874 10.227079 -2.774134 0
M  V30 27 H 11.612309 10.549686 -5.147088 0
M  V30 END ATOM
M  V30 BEGIN BOND
M  V30 1 1 2 1
M  V30 2 1 3 2
M  V30 3 1 4 3
M  V30 4 2 5 4
M  V30 5 1 6 4
M  V30 6 1 7 6
M  V30 7 1 8 7
M  V30 8 1 9 6
M  V30 9 2 10 9
M  V30 10 1 11 10
M  V30 11 2 12 11
M  V30 12 1 13 12
M  V30 13 1 14 9
M  V30 14 2 14 13
M  V30 15 1 15 1
M  V30 16 1 16 1
M  V30 17 1 17 1
M  V30 18 1 18 2
M  V30 19 1 19 2
M  V30 20 1 6 20 CFG=1
M  V30 21 1 21 7
M  V30 22 1 22 7
M  V30 23 1 23 10
M  V30 24 1 24 11
M  V30 25 1 25 12
M  V30 26 1 26 13
M  V30 27 1 27 14
M  V30 END BOND
M  V30 END CTAB
M  END
>  <b_m_subgroup_collapsed>  (2083) 
0

>  <r_i_docking_score>  (2083) 
-6.26547634645513

>  <s_m_subgroup_title>  (2083) 
glide-dock_SP_D22_pv

>  <s_m_subgroupid>  (2083) 
glide-dock_SP_D22_pv

>  <Molecule ChEMBL ID>  (2083) 
CHEMBL201444

>  <Standard Type>  (2083) 
Ki

>  <Standard Value>  (2083) 
10000.0

>  <label>  (2083) 
0

$$$$
CHEMBL520821
     RDKit          3D

  0  0  0  0  0  0  0  0  0  0999 V3000
M  V30 BEGIN CTAB
M  V30 COUNTS 59 63 0 0 1
M  V30 BEGIN ATOM
M  V30 1 C 14.739541 10.391208 -18.960192 0
M  V30 2 C 14.764402 8.889367 -18.748335 0
M  V30 3 C 15.993789 8.209994 -18.646698 0
M  V30 4 C 16.012718 6.817426 -18.444553 0
M  V30 5 C 14.804128 6.098781 -18.355581 0
M  V30 6 C 13.563854 6.763848 -18.468466 0
M  V30 7 C 12.265323 5.950287 -18.407503 0 CFG=2
M  V30 8 C 11.116066 6.601269 -19.217060 0
M  V30 9 N 10.089350 5.656590 -19.729996 0 CFG=2 CHG=1
M  V30 10 C 9.168673 6.328732 -20.679838 0
M  V30 11 C 9.335540 4.883549 -18.714262 0
M  V30 12 C 10.204496 3.890314 -17.927433 0
M  V30 13 C 10.898435 4.549235 -16.742470 0
M  V30 14 C 11.839908 5.587721 -16.975967 0
M  V30 15 C 12.369617 6.297901 -15.872550 0
M  V30 16 C 11.991606 5.971437 -14.561496 0
M  V30 17 O 12.486017 6.693018 -13.515356 0
M  V30 18 C 11.103209 4.907263 -14.330798 0
M  V30 19 O 10.762268 4.585902 -13.046975 0
M  V30 20 C 10.555036 4.180032 -15.410400 0
M  V30 21 C 9.615812 3.083559 -15.104652 0
M  V30 22 C 9.953523 1.735321 -15.356830 0
M  V30 23 C 9.034217 0.703922 -15.083791 0
M  V30 24 C 7.773764 1.011156 -14.534508 0
M  V30 25 C 6.849141 -0.011052 -14.248139 0
M  V30 26 C 5.608355 0.296633 -13.661173 0
M  V30 27 C 5.286707 1.631805 -13.353335 0
M  V30 28 C 6.193270 2.663258 -13.659340 0
M  V30 29 C 7.438804 2.354578 -14.246841 0
M  V30 30 C 8.360211 3.374807 -14.532332 0
M  V30 31 C 13.557569 8.166425 -18.650679 0
M  V30 32 H 13.813765 10.706302 -19.447718 0
M  V30 33 H 15.569921 10.707961 -19.592491 0
M  V30 34 H 14.813514 10.911855 -18.003687 0
M  V30 35 H 16.922382 8.755065 -18.718866 0
M  V30 36 H 16.957462 6.301223 -18.360363 0
M  V30 37 H 14.833852 5.028512 -18.204166 0
M  V30 38 H 12.524239 5.015207 -18.906361 0
M  V30 39 H 10.643959 7.399290 -18.645144 0
M  V30 40 H 11.550037 7.069293 -20.103018 0
M  V30 41 H 8.563178 7.081459 -20.172348 0
M  V30 42 H 8.493410 5.611112 -21.148607 0
M  V30 43 H 9.719344 6.820988 -21.482685 0
M  V30 44 H 8.787799 5.548007 -18.044512 0
M  V30 45 H 8.580894 4.301038 -19.244404 0
M  V30 46 H 9.551241 3.084477 -17.603483 0
M  V30 47 H 10.936655 3.401752 -18.569244 0
M  V30 48 H 13.061566 7.115712 -16.006899 0
M  V30 49 H 13.432632 6.627456 -13.446327 0
M  V30 50 H 10.175577 3.846112 -12.993126 0
M  V30 51 H 10.923562 1.491070 -15.769192 0
M  V30 52 H 9.303473 -0.322329 -15.291713 0
M  V30 53 H 7.090660 -1.034076 -14.480536 0
M  V30 54 H 4.905522 -0.492939 -13.448446 0
M  V30 55 H 4.335141 1.870201 -12.903227 0
M  V30 56 H 5.934155 3.688042 -13.428486 0
M  V30 57 H 8.103700 4.403546 -14.315800 0
M  V30 58 H 12.624667 8.699383 -18.729414 0
M  V30 59 H 10.592392 4.974130 -20.280119 0
M  V30 END ATOM
M  V30 BEGIN BOND
M  V30 1 1 2 1
M  V30 2 1 3 2
M  V30 3 2 4 3
M  V30 4 1 5 4
M  V30 5 2 6 5
M  V30 6 1 7 6
M  V30 7 1 8 7
M  V30 8 1 9 8
M  V30 9 1 10 9
M  V30 10 1 11 9
M  V30 11 1 12 11
M  V30 12 1 13 12
M  V30 13 1 14 7
M  V30 14 2 14 13
M  V30 15 1 15 14
M  V30 16 2 16 15
M  V30 17 1 17 16
M  V30 18 1 18 16
M  V30 19 1 19 18
M  V30 20 1 20 13
M  V30 21 2 20 18
M  V30 22 1 21 20
M  V30 23 1 22 21
M  V30 24 2 23 22
M  V30 25 1 24 23
M  V30 26 2 25 24
M  V30 27 1 26 25
M  V30 28 2 27 26
M  V30 29 1 28 27
M  V30 30 1 29 24
M  V30 31 2 29 28
M  V30 32 2 30 21
M  V30 33 1 30 29
M  V30 34 2 31 2
M  V30 35 1 31 6
M  V30 36 1 32 1
M  V30 37 1 33 1
M  V30 38 1 34 1
M  V30 39 1 35 3
M  V30 40 1 36 4
M  V30 41 1 37 5
M  V30 42 1 7 38 CFG=3
M  V30 43 1 39 8
M  V30 44 1 40 8
M  V30 45 1 41 10
M  V30 46 1 42 10
M  V30 47 1 43 10
M  V30 48 1 44 11
M  V30 49 1 45 11
M  V30 50 1 46 12
M  V30 51 1 47 12
M  V30 52 1 48 15
M  V30 53 1 49 17
M  V30 54 1 50 19
M  V30 55 1 51 22
M  V30 56 1 52 23
M  V30 57 1 53 25
M  V30 58 1 54 26
M  V30 59 1 55 27
M  V30 60 1 56 28
M  V30 61 1 57 30
M  V30 62 1 58 31
M  V30 63 1 9 59 CFG=3
M  V30 END BOND
M  V30 END CTAB
M  END
>  <b_m_subgroup_collapsed>  (2084) 
0

>  <r_i_docking_score>  (2084) 
-6.2648685484281597

>  <s_m_subgroup_title>  (2084) 
glide-dock_SP_D22_pv

>  <s_m_subgroupid>  (2084) 
glide-dock_SP_D22_pv

>  <Molecule ChEMBL ID>  (2084) 
CHEMBL520821

>  <Standard Type>  (2084) 
Ki

>  <Standard Value>  (2084) 
29.0

>  <label>  (2084) 
1

$$$$
CHEMBL303979
     RDKit          3D

  0  0  0  0  0  0  0  0  0  0999 V3000
M  V30 BEGIN CTAB
M  V30 COUNTS 40 43 0 0 1
M  V30 BEGIN ATOM
M  V30 1 F 9.686564 6.972419 -6.021732 0
M  V30 2 C 9.840962 7.247819 -7.336946 0
M  V30 3 C 10.271242 8.525109 -7.738605 0
M  V30 4 C 10.477980 8.797621 -9.103437 0
M  V30 5 C 10.258325 7.797772 -10.070564 0
M  V30 6 C 9.778095 6.523548 -9.672376 0
M  V30 7 C 9.585603 6.252984 -8.299866 0
M  V30 8 C 9.508125 5.437422 -10.711192 0 CFG=1
M  V30 9 C 8.089711 4.893882 -10.730847 0
M  V30 10 N 7.312342 5.772285 -11.625067 0 CFG=2 CHG=1
M  V30 11 C 6.118719 5.185469 -12.291750 0
M  V30 12 C 6.298267 3.802742 -12.924649 0
M  V30 13 C 5.534952 2.716284 -12.450332 0
M  V30 14 C 5.625029 1.445795 -13.051906 0
M  V30 15 C 6.499966 1.243103 -14.134983 0
M  V30 16 C 7.291246 2.311035 -14.598290 0
M  V30 17 C 7.192208 3.581012 -13.994000 0
M  V30 18 C 8.271493 6.475634 -12.506295 0
M  V30 19 C 9.672805 5.955930 -12.138232 0 CFG=1
M  V30 20 C 10.781798 7.009171 -12.245590 0
M  V30 21 O 10.516825 8.107790 -11.384191 0
M  V30 22 H 10.456975 9.289324 -6.998911 0
M  V30 23 H 10.828790 9.772255 -9.410454 0
M  V30 24 H 9.248694 5.279617 -7.975145 0
M  V30 25 H 10.172390 4.606381 -10.500398 0
M  V30 26 H 8.124116 3.893469 -11.154652 0
M  V30 27 H 7.686228 4.807241 -9.728335 0
M  V30 28 H 5.336645 5.122638 -11.533944 0
M  V30 29 H 5.738748 5.878877 -13.043253 0
M  V30 30 H 4.886168 2.849352 -11.604224 0
M  V30 31 H 5.030096 0.626193 -12.677966 0
M  V30 32 H 6.575480 0.269295 -14.598306 0
M  V30 33 H 7.972255 2.156958 -15.422765 0
M  V30 34 H 7.800326 4.381342 -14.382687 0
M  V30 35 H 8.072575 6.354692 -13.568439 0
M  V30 36 H 8.175051 7.541302 -12.293202 0
M  V30 37 H 9.902874 5.111392 -12.790008 0
M  V30 38 H 11.748336 6.578756 -11.988544 0
M  V30 39 H 10.886214 7.371826 -13.265656 0
M  V30 40 H 6.941403 6.512738 -11.020911 0
M  V30 END ATOM
M  V30 BEGIN BOND
M  V30 1 1 2 1
M  V30 2 1 3 2
M  V30 3 2 4 3
M  V30 4 1 5 4
M  V30 5 2 6 5
M  V30 6 2 7 2
M  V30 7 1 7 6
M  V30 8 1 8 6
M  V30 9 1 9 8
M  V30 10 1 10 9
M  V30 11 1 11 10
M  V30 12 1 12 11
M  V30 13 2 13 12
M  V30 14 1 14 13
M  V30 15 2 15 14
M  V30 16 1 16 15
M  V30 17 1 17 12
M  V30 18 2 17 16
M  V30 19 1 18 10
M  V30 20 1 19 8
M  V30 21 1 19 18
M  V30 22 1 20 19
M  V30 23 1 21 5
M  V30 24 1 21 20
M  V30 25 1 22 3
M  V30 26 1 23 4
M  V30 27 1 24 7
M  V30 28 1 8 25 CFG=1
M  V30 29 1 26 9
M  V30 30 1 27 9
M  V30 31 1 28 11
M  V30 32 1 29 11
M  V30 33 1 30 13
M  V30 34 1 31 14
M  V30 35 1 32 15
M  V30 36 1 33 16
M  V30 37 1 34 17
M  V30 38 1 35 18
M  V30 39 1 36 18
M  V30 40 1 19 37 CFG=3
M  V30 41 1 38 20
M  V30 42 1 39 20
M  V30 43 1 10 40 CFG=1
M  V30 END BOND
M  V30 END CTAB
M  END
>  <b_m_subgroup_collapsed>  (2085) 
0

>  <r_i_docking_score>  (2085) 
-6.2647571013557997

>  <s_m_subgroup_title>  (2085) 
glide-dock_SP_D22_pv

>  <s_m_subgroupid>  (2085) 
glide-dock_SP_D22_pv

>  <Molecule ChEMBL ID>  (2085) 
CHEMBL303979

>  <Standard Type>  (2085) 
Ki

>  <Standard Value>  (2085) 
25.12

>  <label>  (2085) 
1

$$$$
CHEMBL4472434
     RDKit          3D

  0  0  0  0  0  0  0  0  0  0999 V3000
M  V30 BEGIN CTAB
M  V30 COUNTS 60 63 0 0 1
M  V30 BEGIN ATOM
M  V30 1 C 11.373799 3.919024 -16.430393 0
M  V30 2 N 11.541100 4.913608 -15.383359 0
M  V30 3 C 10.938351 4.971889 -14.180191 0
M  V30 4 S 9.796081 3.750596 -13.616829 0
M  V30 5 C 8.252338 4.724216 -13.550186 0
M  V30 6 C 8.229750 5.839245 -12.485944 0
M  V30 7 C 8.534751 5.358932 -11.050713 0
M  V30 8 N 8.886006 6.473145 -10.131603 0 CHG=1
M  V30 9 C 8.697836 6.091066 -8.712723 0
M  V30 10 C 9.005054 7.269215 -7.772134 0
M  V30 11 C 10.456349 7.786909 -7.934532 0
M  V30 12 C 10.690071 9.098698 -7.167349 0
M  V30 13 C 10.663494 8.909554 -5.656133 0
M  V30 14 N 11.650633 7.913784 -5.203991 0 CHG=1
M  V30 15 C 11.458352 6.604672 -5.868227 0
M  V30 16 C 11.481402 6.753851 -7.405504 0
M  V30 17 C 10.644720 8.128170 -9.428771 0
M  V30 18 C 10.255446 6.991341 -10.374470 0
M  V30 19 N 11.318253 6.015830 -13.446815 0
M  V30 20 N 12.203662 6.714293 -14.227707 0
M  V30 21 C 12.330092 6.013523 -15.360085 0
M  V30 22 C 13.232055 6.436090 -16.427277 0
M  V30 23 C 14.136518 5.523562 -17.012814 0
M  V30 24 C 15.000217 5.942802 -18.043251 0
M  V30 25 C 14.966825 7.276999 -18.492666 0
M  V30 26 C 14.070458 8.192377 -17.908953 0
M  V30 27 C 13.208478 7.773523 -16.877586 0
M  V30 28 H 12.057879 3.087722 -16.258038 0
M  V30 29 H 10.350651 3.543260 -16.437260 0
M  V30 30 H 11.578305 4.357568 -17.407043 0
M  V30 31 H 8.086107 5.155247 -14.537260 0
M  V30 32 H 7.430395 4.031249 -13.367658 0
M  V30 33 H 8.906537 6.627400 -12.798141 0
M  V30 34 H 7.246454 6.312336 -12.489477 0
M  V30 35 H 7.657634 4.829547 -10.677005 0
M  V30 36 H 9.347703 4.632730 -11.032485 0
M  V30 37 H 7.675155 5.772338 -8.553297 0
M  V30 38 H 9.306926 5.219055 -8.476604 0
M  V30 39 H 8.310350 8.082970 -7.980454 0
M  V30 40 H 8.785896 6.961170 -6.751080 0
M  V30 41 H 11.630573 9.566809 -7.463012 0
M  V30 42 H 9.888141 9.772343 -7.446748 0
M  V30 43 H 10.788535 9.854424 -5.125795 0
M  V30 44 H 9.686021 8.517763 -5.446864 0
M  V30 45 H 12.572754 8.267785 -5.412257 0
M  V30 46 H 12.233710 5.912132 -5.543382 0
M  V30 47 H 10.515075 6.172350 -5.534414 0
M  V30 48 H 11.294513 5.776784 -7.846877 0
M  V30 49 H 12.481846 7.056219 -7.714447 0
M  V30 50 H 10.036150 8.997595 -9.685517 0
M  V30 51 H 11.676914 8.422864 -9.625214 0
M  V30 52 H 10.950276 6.172335 -10.246877 0
M  V30 53 H 10.361504 7.355281 -11.393255 0
M  V30 54 H 14.175603 4.499941 -16.669594 0
M  V30 55 H 15.686308 5.239861 -18.490772 0
M  V30 56 H 15.626818 7.598751 -19.285040 0
M  V30 57 H 14.039693 9.217138 -18.251459 0
M  V30 58 H 12.523410 8.484302 -16.438128 0
M  V30 59 H 11.570212 7.790740 -4.204122 0
M  V30 60 H 8.203870 7.212329 -10.293088 0
M  V30 END ATOM
M  V30 BEGIN BOND
M  V30 1 1 2 1
M  V30 2 1 3 2
M  V30 3 1 4 3
M  V30 4 1 5 4
M  V30 5 1 6 5
M  V30 6 1 7 6
M  V30 7 1 8 7
M  V30 8 1 9 8
M  V30 9 1 10 9
M  V30 10 1 11 10
M  V30 11 1 12 11
M  V30 12 1 13 12
M  V30 13 1 14 13
M  V30 14 1 15 14
M  V30 15 1 16 11
M  V30 16 1 16 15
M  V30 17 1 17 11
M  V30 18 1 18 8
M  V30 19 1 18 17
M  V30 20 2 19 3
M  V30 21 1 20 19
M  V30 22 1 21 2
M  V30 23 2 21 20
M  V30 24 1 22 21
M  V30 25 2 23 22
M  V30 26 1 24 23
M  V30 27 2 25 24
M  V30 28 1 26 25
M  V30 29 1 27 22
M  V30 30 2 27 26
M  V30 31 1 28 1
M  V30 32 1 29 1
M  V30 33 1 30 1
M  V30 34 1 31 5
M  V30 35 1 32 5
M  V30 36 1 33 6
M  V30 37 1 34 6
M  V30 38 1 35 7
M  V30 39 1 36 7
M  V30 40 1 37 9
M  V30 41 1 38 9
M  V30 42 1 39 10
M  V30 43 1 40 10
M  V30 44 1 41 12
M  V30 45 1 42 12
M  V30 46 1 43 13
M  V30 47 1 44 13
M  V30 48 1 45 14
M  V30 49 1 46 15
M  V30 50 1 47 15
M  V30 51 1 48 16
M  V30 52 1 49 16
M  V30 53 1 50 17
M  V30 54 1 51 17
M  V30 55 1 52 18
M  V30 56 1 53 18
M  V30 57 1 54 23
M  V30 58 1 55 24
M  V30 59 1 56 25
M  V30 60 1 57 26
M  V30 61 1 58 27
M  V30 62 1 59 14
M  V30 63 1 60 8
M  V30 END BOND
M  V30 END CTAB
M  END
>  <b_m_subgroup_collapsed>  (2086) 
0

>  <r_i_docking_score>  (2086) 
-6.2606328412290901

>  <s_m_subgroup_title>  (2086) 
glide-dock_SP_D22_pv

>  <s_m_subgroupid>  (2086) 
glide-dock_SP_D22_pv

>  <Molecule ChEMBL ID>  (2086) 
CHEMBL4472434

>  <Standard Type>  (2086) 
Ki

>  <Standard Value>  (2086) 
225748.0

>  <label>  (2086) 
0

$$$$
CHEMBL426662
     RDKit          3D

  0  0  0  0  0  0  0  0  0  0999 V3000
M  V30 BEGIN CTAB
M  V30 COUNTS 51 54 0 0 1
M  V30 BEGIN ATOM
M  V30 1 C 7.974417 0.617758 -19.346140 0
M  V30 2 N 9.171190 1.114576 -18.627682 0 CFG=1 CHG=1
M  V30 3 C 10.272265 0.129271 -18.562874 0
M  V30 4 C 10.089671 -0.827858 -17.372557 0
M  V30 5 C 10.370078 -0.188081 -15.993598 0
M  V30 6 C 9.130851 0.193266 -15.160671 0
M  V30 7 C 8.421863 1.522131 -15.503329 0 CFG=1
M  V30 8 C 7.245598 1.797390 -14.558159 0
M  V30 9 C 6.330577 0.753142 -14.276661 0
M  V30 10 C 5.232649 0.966646 -13.430645 0
M  V30 11 C 5.023158 2.235143 -12.869263 0
M  V30 12 C 5.908009 3.295645 -13.145859 0
M  V30 13 C 7.013184 3.076751 -13.989171 0
M  V30 14 C 9.398250 2.658207 -15.640872 0
M  V30 15 N 10.234070 3.010015 -14.589286 0
M  V30 16 C 10.998837 4.110401 -14.911728 0
M  V30 17 C 11.943413 4.857855 -14.186137 0
M  V30 18 C 12.551919 5.975007 -14.787405 0
M  V30 19 C 12.238181 6.313024 -16.116514 0
M  V30 20 C 11.304050 5.545892 -16.838867 0
M  V30 21 C 10.650851 4.435302 -16.251738 0
M  V30 22 C 9.654920 3.500529 -16.702475 0
M  V30 23 C 9.002086 3.518080 -18.056498 0
M  V30 24 C 9.564735 2.482710 -19.038546 0
M  V30 25 H 8.179055 0.469130 -20.408350 0
M  V30 26 H 7.152914 1.325174 -19.257360 0
M  V30 27 H 7.631461 -0.328029 -18.932869 0
M  V30 28 H 10.324545 -0.435212 -19.494711 0
M  V30 29 H 11.237965 0.617071 -18.452204 0
M  V30 30 H 9.109939 -1.305655 -17.395172 0
M  V30 31 H 10.803080 -1.643153 -17.507914 0
M  V30 32 H 10.885568 -0.931452 -15.394857 0
M  V30 33 H 11.081220 0.633987 -16.073067 0
M  V30 34 H 8.423826 -0.627661 -15.219193 0
M  V30 35 H 9.432138 0.235972 -14.112222 0
M  V30 36 H 7.926606 1.385328 -16.458839 0
M  V30 37 H 6.434385 -0.224113 -14.720325 0
M  V30 38 H 4.534933 0.165455 -13.233882 0
M  V30 39 H 4.157372 2.393851 -12.257473 0
M  V30 40 H 5.732315 4.271915 -12.715048 0
M  V30 41 H 7.667354 3.911642 -14.191552 0
M  V30 42 H 10.230733 2.529004 -13.700226 0
M  V30 43 H 12.197993 4.587428 -13.174843 0
M  V30 44 H 13.269101 6.568728 -14.237836 0
M  V30 45 H 12.715324 7.164561 -16.581583 0
M  V30 46 H 11.077232 5.821063 -17.855972 0
M  V30 47 H 7.932466 3.371223 -17.935745 0
M  V30 48 H 9.112056 4.509777 -18.499071 0
M  V30 49 H 10.646061 2.610037 -19.098356 0
M  V30 50 H 9.187553 2.695598 -20.040730 0
M  V30 51 H 8.905221 1.229323 -17.659920 0
M  V30 END ATOM
M  V30 BEGIN BOND
M  V30 1 1 2 1
M  V30 2 1 3 2
M  V30 3 1 4 3
M  V30 4 1 5 4
M  V30 5 1 6 5
M  V30 6 1 7 6
M  V30 7 1 8 7
M  V30 8 2 9 8
M  V30 9 1 10 9
M  V30 10 2 11 10
M  V30 11 1 12 11
M  V30 12 1 13 8
M  V30 13 2 13 12
M  V30 14 1 14 7
M  V30 15 1 15 14
M  V30 16 1 16 15
M  V30 17 2 17 16
M  V30 18 1 18 17
M  V30 19 2 19 18
M  V30 20 1 20 19
M  V30 21 1 21 16
M  V30 22 2 21 20
M  V30 23 2 22 14
M  V30 24 1 22 21
M  V30 25 1 23 22
M  V30 26 1 24 2
M  V30 27 1 24 23
M  V30 28 1 25 1
M  V30 29 1 26 1
M  V30 30 1 27 1
M  V30 31 1 28 3
M  V30 32 1 29 3
M  V30 33 1 30 4
M  V30 34 1 31 4
M  V30 35 1 32 5
M  V30 36 1 33 5
M  V30 37 1 34 6
M  V30 38 1 35 6
M  V30 39 1 7 36 CFG=3
M  V30 40 1 37 9
M  V30 41 1 38 10
M  V30 42 1 39 11
M  V30 43 1 40 12
M  V30 44 1 41 13
M  V30 45 1 42 15
M  V30 46 1 43 17
M  V30 47 1 44 18
M  V30 48 1 45 19
M  V30 49 1 46 20
M  V30 50 1 47 23
M  V30 51 1 48 23
M  V30 52 1 49 24
M  V30 53 1 50 24
M  V30 54 1 2 51 CFG=1
M  V30 END BOND
M  V30 END CTAB
M  END
>  <b_m_subgroup_collapsed>  (2087) 
0

>  <r_i_docking_score>  (2087) 
-6.25993211082067

>  <s_m_subgroup_title>  (2087) 
glide-dock_SP_D22_pv

>  <s_m_subgroupid>  (2087) 
glide-dock_SP_D22_pv

>  <Molecule ChEMBL ID>  (2087) 
CHEMBL426662

>  <Standard Type>  (2087) 
Ki

>  <Standard Value>  (2087) 
10000.0

>  <label>  (2087) 
0

$$$$
CHEMBL1398
     RDKit          3D

  0  0  0  0  0  0  0  0  0  0999 V3000
M  V30 BEGIN CTAB
M  V30 COUNTS 22 23 0 0 1
M  V30 BEGIN ATOM
M  V30 1 O 12.703313 8.572104 -8.058519 0
M  V30 2 C 11.481660 8.457329 -7.983155 0
M  V30 3 O 10.595634 8.930887 -8.853839 0
M  V30 4 C 9.267557 8.530037 -8.576163 0
M  V30 5 C 9.294360 8.095314 -7.110507 0
M  V30 6 C 10.754882 7.715456 -6.864185 0 CFG=2
M  V30 7 C 11.255118 8.018401 -5.452768 0
M  V30 8 C 11.662431 6.952320 -4.621443 0
M  V30 9 C 12.083355 7.189826 -3.298329 0
M  V30 10 C 12.086559 8.500502 -2.790371 0
M  V30 11 C 11.686108 9.570335 -3.613069 0
M  V30 12 C 11.286162 9.337289 -4.942916 0
M  V30 13 H 8.561575 9.343552 -8.744049 0
M  V30 14 H 8.998017 7.698585 -9.229017 0
M  V30 15 H 8.603460 7.275054 -6.907166 0
M  V30 16 H 8.992052 8.936341 -6.486298 0
M  V30 17 H 10.886883 6.651363 -7.065962 0
M  V30 18 H 11.637220 5.938203 -4.993708 0
M  V30 19 H 12.379392 6.361637 -2.671493 0
M  V30 20 H 12.387767 8.690843 -1.769545 0
M  V30 21 H 11.685832 10.572516 -3.211155 0
M  V30 22 H 10.981758 10.169899 -5.560210 0
M  V30 END ATOM
M  V30 BEGIN BOND
M  V30 1 2 2 1
M  V30 2 1 3 2
M  V30 3 1 4 3
M  V30 4 1 5 4
M  V30 5 1 6 2
M  V30 6 1 6 5
M  V30 7 1 7 6
M  V30 8 2 8 7
M  V30 9 1 9 8
M  V30 10 2 10 9
M  V30 11 1 11 10
M  V30 12 1 12 7
M  V30 13 2 12 11
M  V30 14 1 13 4
M  V30 15 1 14 4
M  V30 16 1 15 5
M  V30 17 1 16 5
M  V30 18 1 6 17 CFG=3
M  V30 19 1 18 8
M  V30 20 1 19 9
M  V30 21 1 20 10
M  V30 22 1 21 11
M  V30 23 1 22 12
M  V30 END BOND
M  V30 END CTAB
M  END
>  <b_m_subgroup_collapsed>  (2088) 
0

>  <r_i_docking_score>  (2088) 
-6.2593495285425496

>  <s_m_subgroup_title>  (2088) 
glide-dock_SP_D22_pv

>  <s_m_subgroupid>  (2088) 
glide-dock_SP_D22_pv

>  <Molecule ChEMBL ID>  (2088) 
CHEMBL1398

>  <Standard Type>  (2088) 
Ki

>  <Standard Value>  (2088) 
10000.0

>  <label>  (2088) 
0

$$$$
CHEMBL2062858
     RDKit          3D

  0  0  0  0  0  0  0  0  0  0999 V3000
M  V30 BEGIN CTAB
M  V30 COUNTS 59 62 0 0 1
M  V30 BEGIN ATOM
M  V30 1 C 5.796741 -0.256670 -13.845102 0
M  V30 2 C 6.658044 0.538877 -14.836206 0
M  V30 3 N 7.371850 1.709953 -14.249759 0 CHG=1
M  V30 4 C 6.499662 2.901774 -14.013257 0
M  V30 5 C 5.415911 2.753994 -12.932299 0
M  V30 6 C 8.555228 2.106960 -15.075233 0 CFG=2
M  V30 7 C 9.690601 1.062518 -15.204634 0 CFG=1
M  V30 8 C 10.033474 0.449223 -16.564339 0
M  V30 9 O 8.939777 -0.261317 -17.092537 0
M  V30 10 C 10.668740 2.102359 -14.624008 0 CFG=1
M  V30 11 C 11.673642 2.886730 -15.444706 0
M  V30 12 N 10.994773 4.107484 -15.882066 0
M  V30 13 C 10.568730 4.018431 -17.278521 0
M  V30 14 C 10.514019 5.356359 -17.990412 0
M  V30 15 C 9.349720 5.768972 -18.668898 0
M  V30 16 C 9.352787 6.971688 -19.406410 0
M  V30 17 C 10.520362 7.757548 -19.476156 0
M  V30 18 C 11.684688 7.350206 -18.795685 0
M  V30 19 C 11.676893 6.155590 -18.049828 0
M  V30 20 C 9.905686 4.404648 -14.922015 0 CFG=2
M  V30 21 C 10.287249 5.375912 -13.800181 0
M  V30 22 C 9.341236 5.726138 -12.808709 0
M  V30 23 C 9.676023 6.698034 -11.849158 0
M  V30 24 C 10.943128 7.304019 -11.918565 0
M  V30 25 C 11.823350 6.896540 -12.939753 0
M  V30 26 N 11.517416 5.942071 -13.846606 0
M  V30 27 C 9.536334 3.039815 -14.338207 0 CFG=1
M  V30 28 H 5.641735 -1.268957 -14.218609 0
M  V30 29 H 4.804193 0.168755 -13.709932 0
M  V30 30 H 6.279585 -0.347779 -12.870394 0
M  V30 31 H 7.391377 -0.182962 -15.180591 0
M  V30 32 H 6.086799 0.833551 -15.718113 0
M  V30 33 H 7.125079 3.727920 -13.681417 0
M  V30 34 H 6.085317 3.238610 -14.959673 0
M  V30 35 H 5.066717 3.739272 -12.618956 0
M  V30 36 H 5.782294 2.249792 -12.038750 0
M  V30 37 H 4.535026 2.225812 -13.291457 0
M  V30 38 H 8.251568 2.496349 -16.048252 0
M  V30 39 H 9.559252 0.281350 -14.452672 0
M  V30 40 H 10.306319 1.213614 -17.290359 0
M  V30 41 H 10.888073 -0.223081 -16.482016 0
M  V30 42 H 8.746183 -1.003908 -16.535755 0
M  V30 43 H 11.118785 1.726708 -13.705198 0
M  V30 44 H 12.485977 3.210425 -14.795829 0
M  V30 45 H 12.130486 2.309392 -16.247629 0
M  V30 46 H 11.295149 3.432138 -17.843788 0
M  V30 47 H 9.621058 3.495484 -17.377354 0
M  V30 48 H 8.457082 5.161352 -18.646479 0
M  V30 49 H 8.459071 7.285594 -19.925999 0
M  V30 50 H 10.521514 8.678031 -20.041941 0
M  V30 51 H 12.576665 7.957877 -18.839512 0
M  V30 52 H 12.572927 5.839125 -17.534828 0
M  V30 53 H 9.063823 4.856145 -15.447577 0
M  V30 54 H 8.356606 5.285091 -12.787411 0
M  V30 55 H 8.965549 6.987150 -11.087135 0
M  V30 56 H 11.232137 8.064377 -11.207580 0
M  V30 57 H 12.806044 7.337780 -13.024018 0
M  V30 58 H 9.334297 3.049203 -13.263661 0
M  V30 59 H 7.744289 1.418588 -13.359439 0
M  V30 END ATOM
M  V30 BEGIN BOND
M  V30 1 1 2 1
M  V30 2 1 3 2
M  V30 3 1 4 3
M  V30 4 1 5 4
M  V30 5 1 6 3
M  V30 6 1 7 6
M  V30 7 1 8 7
M  V30 8 1 9 8
M  V30 9 1 10 7
M  V30 10 1 11 10
M  V30 11 1 12 11
M  V30 12 1 13 12
M  V30 13 1 14 13
M  V30 14 2 15 14
M  V30 15 1 16 15
M  V30 16 2 17 16
M  V30 17 1 18 17
M  V30 18 1 19 14
M  V30 19 2 19 18
M  V30 20 1 20 12
M  V30 21 1 21 20
M  V30 22 2 22 21
M  V30 23 1 23 22
M  V30 24 2 24 23
M  V30 25 1 25 24
M  V30 26 1 26 21
M  V30 27 2 26 25
M  V30 28 1 27 6
M  V30 29 1 27 10
M  V30 30 1 27 20
M  V30 31 1 28 1
M  V30 32 1 29 1
M  V30 33 1 30 1
M  V30 34 1 31 2
M  V30 35 1 32 2
M  V30 36 1 33 4
M  V30 37 1 34 4
M  V30 38 1 35 5
M  V30 39 1 36 5
M  V30 40 1 37 5
M  V30 41 1 6 38 CFG=3
M  V30 42 1 7 39 CFG=1
M  V30 43 1 40 8
M  V30 44 1 41 8
M  V30 45 1 42 9
M  V30 46 1 10 43 CFG=1
M  V30 47 1 44 11
M  V30 48 1 45 11
M  V30 49 1 46 13
M  V30 50 1 47 13
M  V30 51 1 48 15
M  V30 52 1 49 16
M  V30 53 1 50 17
M  V30 54 1 51 18
M  V30 55 1 52 19
M  V30 56 1 20 53 CFG=3
M  V30 57 1 54 22
M  V30 58 1 55 23
M  V30 59 1 56 24
M  V30 60 1 57 25
M  V30 61 1 27 58 CFG=1
M  V30 62 1 59 3
M  V30 END BOND
M  V30 END CTAB
M  END
>  <b_m_subgroup_collapsed>  (2089) 
0

>  <r_i_docking_score>  (2089) 
-6.2564721452831797

>  <s_m_subgroup_title>  (2089) 
glide-dock_SP_D22_pv

>  <s_m_subgroupid>  (2089) 
glide-dock_SP_D22_pv

>  <Molecule ChEMBL ID>  (2089) 
CHEMBL2062858

>  <Standard Type>  (2089) 
Ki

>  <Standard Value>  (2089) 
42000.0

>  <label>  (2089) 
0

$$$$
CHEMBL6023207
     RDKit          3D

  0  0  0  0  0  0  0  0  0  0999 V3000
M  V30 BEGIN CTAB
M  V30 COUNTS 59 62 0 0 1
M  V30 BEGIN ATOM
M  V30 1 C 4.999525 -2.610734 -17.438423 0
M  V30 2 C 4.762663 -1.321093 -18.162569 0
M  V30 3 N 3.673167 -1.149161 -18.998932 0
M  V30 4 C 3.784622 0.097503 -19.446899 0
M  V30 5 O 4.880992 0.754928 -18.992428 0
M  V30 6 C 5.496129 -0.159526 -18.181604 0
M  V30 7 C 6.730120 0.242528 -17.532646 0
M  V30 8 N 7.721023 0.829809 -18.211882 0
M  V30 9 N 8.732324 1.030478 -17.303133 0
M  V30 10 C 8.255619 0.571765 -16.146124 0
M  V30 11 S 9.163469 0.581422 -14.647418 0
M  V30 12 C 9.248662 2.377804 -14.413165 0
M  V30 13 C 7.857606 3.014470 -14.224078 0
M  V30 14 C 7.924072 4.511932 -13.901045 0
M  V30 15 C 8.486382 4.821226 -12.503407 0
M  V30 16 N 9.357036 5.991290 -12.451741 0
M  V30 17 C 10.652976 5.744694 -13.084151 0
M  V30 18 C 11.609659 6.944040 -12.959935 0
M  V30 19 O 11.711451 7.372270 -11.606181 0
M  V30 20 C 10.464168 7.659607 -10.966308 0 CFG=2
M  V30 21 C 10.680035 8.087512 -9.518882 0
M  V30 22 C 11.980875 8.383083 -9.063230 0
M  V30 23 C 12.197824 8.762919 -7.730077 0
M  V30 24 C 11.125153 8.860900 -6.822598 0
M  V30 25 C 11.377799 9.257846 -5.375626 0
M  V30 26 F 11.286003 8.178209 -4.602349 0
M  V30 27 F 12.594767 9.772337 -5.214240 0
M  V30 28 F 10.486718 10.167274 -4.978539 0
M  V30 29 C 9.819457 8.572599 -7.274426 0
M  V30 30 C 9.597308 8.202453 -8.616499 0
M  V30 31 C 9.566126 6.409217 -11.072475 0
M  V30 32 N 6.993972 0.112182 -16.217211 0
M  V30 33 C 6.150657 -0.396460 -15.146640 0
M  V30 34 H 4.481281 -2.625464 -16.479015 0
M  V30 35 H 4.635699 -3.462497 -18.014002 0
M  V30 36 H 6.060476 -2.771069 -17.245836 0
M  V30 37 H 3.088118 0.572251 -20.120701 0
M  V30 38 H 9.879292 2.556871 -13.543066 0
M  V30 39 H 9.760055 2.826308 -15.265416 0
M  V30 40 H 7.272247 2.888659 -15.133814 0
M  V30 41 H 7.298865 2.497286 -13.446949 0
M  V30 42 H 8.487050 5.019547 -14.683577 0
M  V30 43 H 6.918850 4.929806 -13.950025 0
M  V30 44 H 7.634845 4.970035 -11.836398 0
M  V30 45 H 9.015074 3.960342 -12.092949 0
M  V30 46 H 11.116466 4.861209 -12.646843 0
M  V30 47 H 10.524681 5.516421 -14.141281 0
M  V30 48 H 12.601826 6.666530 -13.315395 0
M  V30 49 H 11.286061 7.772415 -13.583950 0
M  V30 50 H 9.989973 8.493339 -11.487012 0
M  V30 51 H 12.829815 8.328925 -9.728786 0
M  V30 52 H 13.207218 8.981551 -7.414379 0
M  V30 53 H 8.981458 8.637415 -6.594936 0
M  V30 54 H 8.585886 7.998297 -8.939436 0
M  V30 55 H 8.595833 6.614821 -10.619393 0
M  V30 56 H 10.010309 5.593842 -10.499148 0
M  V30 57 H 6.280666 0.208794 -14.249827 0
M  V30 58 H 5.100536 -0.354351 -15.433539 0
M  V30 59 H 6.419724 -1.427533 -14.919741 0
M  V30 END ATOM
M  V30 BEGIN BOND
M  V30 1 1 2 1
M  V30 2 1 3 2
M  V30 3 2 4 3
M  V30 4 1 5 4
M  V30 5 2 6 2
M  V30 6 1 6 5
M  V30 7 1 7 6
M  V30 8 2 8 7
M  V30 9 1 9 8
M  V30 10 2 10 9
M  V30 11 1 11 10
M  V30 12 1 12 11
M  V30 13 1 13 12
M  V30 14 1 14 13
M  V30 15 1 15 14
M  V30 16 1 16 15
M  V30 17 1 17 16
M  V30 18 1 18 17
M  V30 19 1 19 18
M  V30 20 1 20 19
M  V30 21 1 21 20
M  V30 22 1 22 21
M  V30 23 2 23 22
M  V30 24 1 24 23
M  V30 25 1 25 24
M  V30 26 1 26 25
M  V30 27 1 27 25
M  V30 28 1 28 25
M  V30 29 2 29 24
M  V30 30 2 30 21
M  V30 31 1 30 29
M  V30 32 1 31 16
M  V30 33 1 31 20
M  V30 34 1 32 7
M  V30 35 1 32 10
M  V30 36 1 33 32
M  V30 37 1 34 1
M  V30 38 1 35 1
M  V30 39 1 36 1
M  V30 40 1 37 4
M  V30 41 1 38 12
M  V30 42 1 39 12
M  V30 43 1 40 13
M  V30 44 1 41 13
M  V30 45 1 42 14
M  V30 46 1 43 14
M  V30 47 1 44 15
M  V30 48 1 45 15
M  V30 49 1 46 17
M  V30 50 1 47 17
M  V30 51 1 48 18
M  V30 52 1 49 18
M  V30 53 1 20 50 CFG=3
M  V30 54 1 51 22
M  V30 55 1 52 23
M  V30 56 1 53 29
M  V30 57 1 54 30
M  V30 58 1 55 31
M  V30 59 1 56 31
M  V30 60 1 57 33
M  V30 61 1 58 33
M  V30 62 1 59 33
M  V30 END BOND
M  V30 END CTAB
M  END
>  <b_m_subgroup_collapsed>  (2090) 
0

>  <r_i_docking_score>  (2090) 
-6.2533325165258304

>  <s_m_subgroup_title>  (2090) 
glide-dock_SP_D22_pv

>  <s_m_subgroupid>  (2090) 
glide-dock_SP_D22_pv

>  <Molecule ChEMBL ID>  (2090) 
CHEMBL6023207

>  <Standard Type>  (2090) 
Ki

>  <Standard Value>  (2090) 
10000.0

>  <label>  (2090) 
0

$$$$
CHEMBL3763418
     RDKit          3D

  0  0  0  0  0  0  0  0  0  0999 V3000
M  V30 BEGIN CTAB
M  V30 COUNTS 59 62 0 0 1
M  V30 BEGIN ATOM
M  V30 1 C 4.999525 -2.610734 -17.438423 0
M  V30 2 C 4.762663 -1.321093 -18.162569 0
M  V30 3 N 3.673167 -1.149161 -18.998932 0
M  V30 4 C 3.784622 0.097503 -19.446899 0
M  V30 5 O 4.880992 0.754928 -18.992428 0
M  V30 6 C 5.496129 -0.159526 -18.181604 0
M  V30 7 C 6.730120 0.242528 -17.532646 0
M  V30 8 N 7.721023 0.829809 -18.211882 0
M  V30 9 N 8.732324 1.030478 -17.303133 0
M  V30 10 C 8.255619 0.571765 -16.146124 0
M  V30 11 S 9.163469 0.581422 -14.647418 0
M  V30 12 C 9.248662 2.377804 -14.413165 0
M  V30 13 C 7.857606 3.014470 -14.224078 0
M  V30 14 C 7.924072 4.511932 -13.901045 0
M  V30 15 C 8.486382 4.821226 -12.503407 0
M  V30 16 N 9.357036 5.991290 -12.451741 0
M  V30 17 C 10.652976 5.744694 -13.084151 0
M  V30 18 C 11.609659 6.944040 -12.959935 0
M  V30 19 O 11.711451 7.372270 -11.606181 0
M  V30 20 C 10.464168 7.659607 -10.966308 0 CFG=2
M  V30 21 C 10.680035 8.087512 -9.518882 0
M  V30 22 C 11.980875 8.383083 -9.063230 0
M  V30 23 C 12.197824 8.762919 -7.730077 0
M  V30 24 C 11.125153 8.860900 -6.822598 0
M  V30 25 C 11.377799 9.257846 -5.375626 0
M  V30 26 F 11.286003 8.178209 -4.602349 0
M  V30 27 F 12.594767 9.772337 -5.214240 0
M  V30 28 F 10.486718 10.167274 -4.978539 0
M  V30 29 C 9.819457 8.572599 -7.274426 0
M  V30 30 C 9.597308 8.202453 -8.616499 0
M  V30 31 C 9.566126 6.409217 -11.072475 0
M  V30 32 N 6.993972 0.112182 -16.217211 0
M  V30 33 C 6.150657 -0.396460 -15.146640 0
M  V30 34 H 4.481281 -2.625464 -16.479015 0
M  V30 35 H 4.635699 -3.462497 -18.014002 0
M  V30 36 H 6.060476 -2.771069 -17.245836 0
M  V30 37 H 3.088118 0.572251 -20.120701 0
M  V30 38 H 9.879292 2.556871 -13.543066 0
M  V30 39 H 9.760055 2.826308 -15.265416 0
M  V30 40 H 7.272247 2.888659 -15.133814 0
M  V30 41 H 7.298865 2.497286 -13.446949 0
M  V30 42 H 8.487050 5.019547 -14.683577 0
M  V30 43 H 6.918850 4.929806 -13.950025 0
M  V30 44 H 7.634845 4.970035 -11.836398 0
M  V30 45 H 9.015074 3.960342 -12.092949 0
M  V30 46 H 11.116466 4.861209 -12.646843 0
M  V30 47 H 10.524681 5.516421 -14.141281 0
M  V30 48 H 12.601826 6.666530 -13.315395 0
M  V30 49 H 11.286061 7.772415 -13.583950 0
M  V30 50 H 9.989973 8.493339 -11.487012 0
M  V30 51 H 12.829815 8.328925 -9.728786 0
M  V30 52 H 13.207218 8.981551 -7.414379 0
M  V30 53 H 8.981458 8.637415 -6.594936 0
M  V30 54 H 8.585886 7.998297 -8.939436 0
M  V30 55 H 8.595833 6.614821 -10.619393 0
M  V30 56 H 10.010309 5.593842 -10.499148 0
M  V30 57 H 6.280666 0.208794 -14.249827 0
M  V30 58 H 5.100536 -0.354351 -15.433539 0
M  V30 59 H 6.419724 -1.427533 -14.919741 0
M  V30 END ATOM
M  V30 BEGIN BOND
M  V30 1 1 2 1
M  V30 2 1 3 2
M  V30 3 2 4 3
M  V30 4 1 5 4
M  V30 5 2 6 2
M  V30 6 1 6 5
M  V30 7 1 7 6
M  V30 8 2 8 7
M  V30 9 1 9 8
M  V30 10 2 10 9
M  V30 11 1 11 10
M  V30 12 1 12 11
M  V30 13 1 13 12
M  V30 14 1 14 13
M  V30 15 1 15 14
M  V30 16 1 16 15
M  V30 17 1 17 16
M  V30 18 1 18 17
M  V30 19 1 19 18
M  V30 20 1 20 19
M  V30 21 1 21 20
M  V30 22 1 22 21
M  V30 23 2 23 22
M  V30 24 1 24 23
M  V30 25 1 25 24
M  V30 26 1 26 25
M  V30 27 1 27 25
M  V30 28 1 28 25
M  V30 29 2 29 24
M  V30 30 2 30 21
M  V30 31 1 30 29
M  V30 32 1 31 16
M  V30 33 1 31 20
M  V30 34 1 32 7
M  V30 35 1 32 10
M  V30 36 1 33 32
M  V30 37 1 34 1
M  V30 38 1 35 1
M  V30 39 1 36 1
M  V30 40 1 37 4
M  V30 41 1 38 12
M  V30 42 1 39 12
M  V30 43 1 40 13
M  V30 44 1 41 13
M  V30 45 1 42 14
M  V30 46 1 43 14
M  V30 47 1 44 15
M  V30 48 1 45 15
M  V30 49 1 46 17
M  V30 50 1 47 17
M  V30 51 1 48 18
M  V30 52 1 49 18
M  V30 53 1 20 50 CFG=3
M  V30 54 1 51 22
M  V30 55 1 52 23
M  V30 56 1 53 29
M  V30 57 1 54 30
M  V30 58 1 55 31
M  V30 59 1 56 31
M  V30 60 1 57 33
M  V30 61 1 58 33
M  V30 62 1 59 33
M  V30 END BOND
M  V30 END CTAB
M  END
>  <b_m_subgroup_collapsed>  (2091) 
0

>  <r_i_docking_score>  (2091) 
-6.2533325165258304

>  <s_m_subgroup_title>  (2091) 
glide-dock_SP_D22_pv

>  <s_m_subgroupid>  (2091) 
glide-dock_SP_D22_pv

>  <Molecule ChEMBL ID>  (2091) 
CHEMBL3763418

>  <Standard Type>  (2091) 
Ki

>  <Standard Value>  (2091) 
10000.0

>  <label>  (2091) 
0

$$$$
CHEMBL4447975
     RDKit          3D

  0  0  0  0  0  0  0  0  0  0999 V3000
M  V30 BEGIN CTAB
M  V30 COUNTS 38 40 0 0 1
M  V30 BEGIN ATOM
M  V30 1 C 11.686481 9.538033 -5.617720 0
M  V30 2 O 10.868466 8.403228 -5.867026 0
M  V30 3 C 10.653268 8.034569 -7.178560 0
M  V30 4 C 11.329825 8.604297 -8.283337 0
M  V30 5 C 11.021689 8.207227 -9.599746 0
M  V30 6 O 11.627074 8.845347 -10.645747 0
M  V30 7 C 12.885971 8.306865 -11.003131 0
M  V30 8 C 10.043749 7.216908 -9.837479 0
M  V30 9 C 9.391575 6.617406 -8.736002 0
M  V30 10 C 9.690350 7.036561 -7.424418 0
M  V30 11 O 8.431038 5.656633 -8.901662 0
M  V30 12 C 8.553286 4.843030 -10.055255 0
M  V30 13 C 8.706839 5.619049 -11.382617 0 CFG=1
M  V30 14 C 9.232844 4.632198 -12.450418 0
M  V30 15 N 7.413607 6.172113 -11.846864 0 CHG=1
M  V30 16 C 7.710406 7.338721 -12.670935 0
M  V30 17 C 8.887245 8.002610 -11.964666 0
M  V30 18 C 9.641810 6.852332 -11.265974 0 CFG=1
M  V30 19 H 11.701654 9.738774 -4.546443 0
M  V30 20 H 12.717148 9.372453 -5.934335 0
M  V30 21 H 11.295790 10.427208 -6.113625 0
M  V30 22 H 12.075055 9.371902 -8.149410 0
M  V30 23 H 13.386024 8.972577 -11.705161 0
M  V30 24 H 13.537848 8.172213 -10.137601 0
M  V30 25 H 12.752382 7.355514 -11.511566 0
M  V30 26 H 9.161564 6.590824 -6.594194 0
M  V30 27 H 7.691911 4.172571 -10.108949 0
M  V30 28 H 9.427315 4.208354 -9.895868 0
M  V30 29 H 10.191732 4.205892 -12.155435 0
M  V30 30 H 8.542122 3.801636 -12.597549 0
M  V30 31 H 9.383350 5.107608 -13.419602 0
M  V30 32 H 6.938083 6.608941 -11.044892 0
M  V30 33 H 6.847127 7.997577 -12.769244 0
M  V30 34 H 7.993280 6.972247 -13.653137 0
M  V30 35 H 8.489594 8.699883 -11.224698 0
M  V30 36 H 9.520304 8.573031 -12.645082 0
M  V30 37 H 10.562498 6.651298 -11.814961 0
M  V30 38 H 6.809910 5.494702 -12.287615 0
M  V30 END ATOM
M  V30 BEGIN BOND
M  V30 1 1 2 1
M  V30 2 1 3 2
M  V30 3 2 4 3
M  V30 4 1 5 4
M  V30 5 1 6 5
M  V30 6 1 7 6
M  V30 7 2 8 5
M  V30 8 1 9 8
M  V30 9 1 10 3
M  V30 10 2 10 9
M  V30 11 1 11 9
M  V30 12 1 12 11
M  V30 13 1 13 12
M  V30 14 1 13 14 CFG=3
M  V30 15 1 15 13
M  V30 16 1 16 15
M  V30 17 1 17 16
M  V30 18 1 18 8
M  V30 19 1 18 13
M  V30 20 1 18 17
M  V30 21 1 19 1
M  V30 22 1 20 1
M  V30 23 1 21 1
M  V30 24 1 22 4
M  V30 25 1 23 7
M  V30 26 1 24 7
M  V30 27 1 25 7
M  V30 28 1 26 10
M  V30 29 1 27 12
M  V30 30 1 28 12
M  V30 31 1 29 14
M  V30 32 1 30 14
M  V30 33 1 31 14
M  V30 34 1 32 15
M  V30 35 1 33 16
M  V30 36 1 34 16
M  V30 37 1 35 17
M  V30 38 1 36 17
M  V30 39 1 18 37 CFG=3
M  V30 40 1 38 15
M  V30 END BOND
M  V30 END CTAB
M  END
>  <b_m_subgroup_collapsed>  (2092) 
0

>  <r_i_docking_score>  (2092) 
-6.2523896502027299

>  <s_m_subgroup_title>  (2092) 
glide-dock_SP_D22_pv

>  <s_m_subgroupid>  (2092) 
glide-dock_SP_D22_pv

>  <Molecule ChEMBL ID>  (2092) 
CHEMBL4447975

>  <Standard Type>  (2092) 
Ki

>  <Standard Value>  (2092) 
10000.0

>  <label>  (2092) 
0

$$$$
CHEMBL3216146
     RDKit          3D

  0  0  0  0  0  0  0  0  0  0999 V3000
M  V30 BEGIN CTAB
M  V30 COUNTS 59 63 0 0 1
M  V30 BEGIN ATOM
M  V30 1 C 3.414846 -1.041788 -15.385929 0
M  V30 2 N 4.424601 -0.790882 -16.404474 0
M  V30 3 C 4.112720 -1.060952 -17.804255 0
M  V30 4 C 5.700696 -0.311430 -16.034777 0
M  V30 5 C 6.601330 0.180644 -17.007151 0
M  V30 6 C 7.869659 0.669916 -16.640690 0
M  V30 7 C 8.272776 0.673389 -15.288713 0
M  V30 8 C 9.621054 1.226704 -14.829225 0
M  V30 9 C 10.243989 2.328656 -15.679637 0
M  V30 10 C 10.898329 1.864855 -16.842705 0
M  V30 11 C 11.607629 2.730228 -17.678230 0
M  V30 12 C 11.749016 4.071918 -17.318523 0
M  V30 13 C 11.138994 4.511466 -16.108732 0
M  V30 14 C 10.287980 3.710910 -15.282554 0
M  V30 15 C 9.637470 4.319325 -14.065381 0
M  V30 16 C 10.326536 5.367899 -13.406836 0
M  V30 17 C 9.840130 5.949741 -12.218300 0
M  V30 18 C 8.618287 5.533118 -11.674199 0
M  V30 19 C 7.853128 4.577617 -12.358823 0
M  V30 20 O 6.628916 4.223449 -11.861867 0
M  V30 21 C 8.337525 4.012167 -13.562145 0
M  V30 22 O 7.470716 3.218819 -14.249810 0
M  V30 23 C 11.553239 5.966590 -14.055067 0
M  V30 24 C 11.405427 5.938166 -15.589627 0 CFG=1
M  V30 25 N 12.487298 6.692575 -16.280439 0 CFG=1 CHG=1
M  V30 26 C 13.865232 6.453799 -15.778026 0
M  V30 27 C 12.362123 6.537322 -17.737379 0
M  V30 28 C 12.579730 5.073596 -18.111105 0
M  V30 29 C 7.384235 0.172606 -14.315211 0
M  V30 30 C 6.113176 -0.304701 -14.679682 0
M  V30 31 H 3.203310 -0.139884 -14.812614 0
M  V30 32 H 3.737651 -1.825264 -14.703690 0
M  V30 33 H 2.485854 -1.372751 -15.846004 0
M  V30 34 H 4.900361 -1.652735 -18.271645 0
M  V30 35 H 3.997740 -0.128757 -18.356236 0
M  V30 36 H 3.181937 -1.624482 -17.898699 0
M  V30 37 H 6.331739 0.202437 -18.052134 0
M  V30 38 H 8.512510 1.044387 -17.421022 0
M  V30 39 H 9.527388 1.595264 -13.820321 0
M  V30 40 H 10.322632 0.393035 -14.761421 0
M  V30 41 H 10.856334 0.816385 -17.103758 0
M  V30 42 H 12.083486 2.349443 -18.571566 0
M  V30 43 H 10.392032 6.738119 -11.728755 0
M  V30 44 H 8.246052 5.990901 -10.767397 0
M  V30 45 H 6.408292 4.635042 -11.034718 0
M  V30 46 H 7.861937 2.769519 -14.982862 0
M  V30 47 H 11.693645 6.990727 -13.703202 0
M  V30 48 H 12.418503 5.386772 -13.728801 0
M  V30 49 H 10.491499 6.471968 -15.847331 0
M  V30 50 H 14.098431 5.389217 -15.725848 0
M  V30 51 H 13.987139 6.880061 -14.782322 0
M  V30 52 H 14.602689 6.936882 -16.417492 0
M  V30 53 H 11.367923 6.860281 -18.051468 0
M  V30 54 H 13.076016 7.179976 -18.257542 0
M  V30 55 H 13.629069 4.803605 -17.998280 0
M  V30 56 H 12.352492 4.941486 -19.170216 0
M  V30 57 H 7.669951 0.171519 -13.273615 0
M  V30 58 H 5.472085 -0.674506 -13.894790 0
M  V30 59 H 12.306611 7.669899 -16.094543 0
M  V30 END ATOM
M  V30 BEGIN BOND
M  V30 1 1 2 1
M  V30 2 1 3 2
M  V30 3 1 4 2
M  V30 4 1 5 4
M  V30 5 2 6 5
M  V30 6 1 7 6
M  V30 7 1 8 7
M  V30 8 1 9 8
M  V30 9 1 10 9
M  V30 10 2 11 10
M  V30 11 1 12 11
M  V30 12 2 13 12
M  V30 13 2 14 9
M  V30 14 1 14 13
M  V30 15 1 15 14
M  V30 16 2 16 15
M  V30 17 1 17 16
M  V30 18 2 18 17
M  V30 19 1 19 18
M  V30 20 1 20 19
M  V30 21 1 21 15
M  V30 22 2 21 19
M  V30 23 1 22 21
M  V30 24 1 23 16
M  V30 25 1 24 13
M  V30 26 1 24 23
M  V30 27 1 25 24
M  V30 28 1 26 25
M  V30 29 1 27 25
M  V30 30 1 28 12
M  V30 31 1 28 27
M  V30 32 2 29 7
M  V30 33 2 30 4
M  V30 34 1 30 29
M  V30 35 1 31 1
M  V30 36 1 32 1
M  V30 37 1 33 1
M  V30 38 1 34 3
M  V30 39 1 35 3
M  V30 40 1 36 3
M  V30 41 1 37 5
M  V30 42 1 38 6
M  V30 43 1 39 8
M  V30 44 1 40 8
M  V30 45 1 41 10
M  V30 46 1 42 11
M  V30 47 1 43 17
M  V30 48 1 44 18
M  V30 49 1 45 20
M  V30 50 1 46 22
M  V30 51 1 47 23
M  V30 52 1 48 23
M  V30 53 1 24 49 CFG=1
M  V30 54 1 50 26
M  V30 55 1 51 26
M  V30 56 1 52 26
M  V30 57 1 53 27
M  V30 58 1 54 27
M  V30 59 1 55 28
M  V30 60 1 56 28
M  V30 61 1 57 29
M  V30 62 1 58 30
M  V30 63 1 25 59 CFG=3
M  V30 END BOND
M  V30 END CTAB
M  END
>  <b_m_subgroup_collapsed>  (2093) 
0

>  <r_i_docking_score>  (2093) 
-6.2511274451235996

>  <s_m_subgroup_title>  (2093) 
glide-dock_SP_D22_pv

>  <s_m_subgroupid>  (2093) 
glide-dock_SP_D22_pv

>  <Molecule ChEMBL ID>  (2093) 
CHEMBL3216146

>  <Standard Type>  (2093) 
Ki

>  <Standard Value>  (2093) 
79.0

>  <label>  (2093) 
1

$$$$
CHEMBL1200517
     RDKit          3D

  0  0  0  0  0  0  0  0  0  0999 V3000
M  V30 BEGIN CTAB
M  V30 COUNTS 81 88 0 0 1
M  V30 BEGIN ATOM
M  V30 1 C 6.499827 5.326528 -12.210385 0
M  V30 2 N 7.647416 4.445167 -11.856306 0 CFG=1 CHG=1
M  V30 3 C 8.244765 3.777608 -13.049110 0
M  V30 4 C 9.070788 4.771622 -13.898547 0 CFG=2
M  V30 5 C 9.685826 4.186326 -15.179605 0
M  V30 6 O 9.947552 4.972406 -16.082867 0
M  V30 7 N 9.829144 2.847232 -15.289313 0
M  V30 8 C 10.080740 2.110680 -16.528759 0 CFG=2
M  V30 9 C 9.767589 0.625863 -16.276258 0
M  V30 10 O 11.423856 2.198402 -16.933725 0
M  V30 11 C 11.536144 2.973800 -18.099356 0 CFG=1
M  V30 12 O 12.087336 4.236747 -17.806086 0
M  V30 13 C 12.352847 2.224432 -19.173967 0 CFG=2
M  V30 14 C 13.862678 2.160057 -18.945282 0
M  V30 15 C 14.393655 1.897983 -20.353203 0
M  V30 16 C 13.402896 2.606416 -21.289738 0
M  V30 17 N 12.181782 2.792047 -20.511253 0
M  V30 18 C 11.098725 3.489769 -20.922190 0
M  V30 19 O 11.021706 3.968244 -22.051510 0
M  V30 20 C 9.930962 3.689960 -19.922503 0 CFG=2
M  V30 21 C 9.471831 5.158843 -19.715132 0
M  V30 22 C 8.540790 5.819865 -20.726818 0
M  V30 23 C 8.074581 7.122036 -20.440281 0
M  V30 24 C 7.191078 7.777664 -21.317825 0
M  V30 25 C 6.766095 7.135482 -22.495295 0
M  V30 26 C 7.225336 5.837356 -22.790705 0
M  V30 27 C 8.106864 5.180467 -21.911028 0
M  V30 28 N 10.200090 3.076658 -18.615870 0
M  V30 29 C 9.309621 2.594752 -17.757465 0
M  V30 30 O 8.085435 2.561795 -17.878237 0
M  V30 31 C 10.122428 5.501131 -13.049056 0
M  V30 32 C 9.470807 6.164693 -11.812539 0 CFG=2
M  V30 33 C 10.486047 6.920786 -10.974089 0
M  V30 34 C 11.635990 7.577111 -11.436877 0
M  V30 35 C 12.486848 8.172216 -10.502946 0
M  V30 36 C 12.169482 8.172455 -9.133110 0
M  V30 37 C 11.036726 7.522964 -8.682586 0
M  V30 38 N 10.537047 7.354156 -7.423139 0
M  V30 39 C 9.397136 6.571505 -7.463135 0
M  V30 40 C 9.232946 6.253400 -8.785282 0
M  V30 41 C 10.211680 6.874534 -9.589910 0
M  V30 42 C 8.262749 5.443699 -9.590084 0
M  V30 43 C 8.714370 5.069976 -11.021255 0 CFG=1
M  V30 44 H 6.790363 6.170068 -12.835058 0
M  V30 45 H 5.745292 4.758636 -12.756507 0
M  V30 46 H 6.001931 5.744279 -11.340865 0
M  V30 47 H 7.459542 3.311383 -13.646082 0
M  V30 48 H 8.899159 2.973867 -12.712152 0
M  V30 49 H 8.382023 5.531075 -14.266537 0
M  V30 50 H 9.756599 2.280998 -14.457213 0
M  V30 51 H 8.733274 0.504083 -15.950653 0
M  V30 52 H 9.919391 0.046831 -17.188173 0
M  V30 53 H 10.431346 0.232085 -15.505743 0
M  V30 54 H 12.811662 4.104475 -17.215128 0
M  V30 55 H 11.965447 1.204828 -19.224508 0
M  V30 56 H 14.133545 1.371626 -18.246601 0
M  V30 57 H 14.258969 3.106525 -18.574514 0
M  V30 58 H 14.378612 0.826431 -20.555574 0
M  V30 59 H 15.418481 2.242254 -20.486799 0
M  V30 60 H 13.215404 2.026052 -22.195082 0
M  V30 61 H 13.790908 3.583430 -21.587029 0
M  V30 62 H 9.093330 3.125166 -20.332670 0
M  V30 63 H 8.947889 5.240378 -18.760973 0
M  V30 64 H 10.353151 5.793347 -19.604687 0
M  V30 65 H 8.390553 7.618981 -19.534714 0
M  V30 66 H 6.837445 8.771949 -21.084080 0
M  V30 67 H 6.086937 7.634945 -23.170076 0
M  V30 68 H 6.897967 5.342763 -23.693119 0
M  V30 69 H 8.437983 4.185126 -22.163940 0
M  V30 70 H 10.886255 4.792946 -12.726329 0
M  V30 71 H 10.633146 6.235958 -13.669211 0
M  V30 72 H 8.765398 6.927528 -12.143970 0
M  V30 73 H 11.889468 7.610586 -12.486101 0
M  V30 74 H 13.391234 8.648151 -10.849806 0
M  V30 75 H 12.830370 8.662383 -8.434192 0
M  V30 76 H 10.939262 7.734312 -6.579814 0
M  V30 77 H 8.825231 6.309281 -6.583902 0
M  V30 78 H 8.066996 4.520036 -9.046254 0
M  V30 79 H 7.333592 5.994174 -9.623232 0
M  V30 80 H 9.452860 4.283967 -10.842902 0
M  V30 81 H 7.247861 3.716252 -11.281913 0
M  V30 END ATOM
M  V30 BEGIN BOND
M  V30 1 1 2 1
M  V30 2 1 3 2
M  V30 3 1 4 3
M  V30 4 1 5 4
M  V30 5 2 6 5
M  V30 6 1 7 5
M  V30 7 1 8 7 CFG=1
M  V30 8 1 9 8
M  V30 9 1 10 8
M  V30 10 1 11 10
M  V30 11 1 11 12 CFG=1
M  V30 12 1 13 11
M  V30 13 1 14 13
M  V30 14 1 15 14
M  V30 15 1 16 15
M  V30 16 1 17 13
M  V30 17 1 17 16
M  V30 18 1 18 17
M  V30 19 2 19 18
M  V30 20 1 20 18
M  V30 21 1 21 20
M  V30 22 1 22 21
M  V30 23 2 23 22
M  V30 24 1 24 23
M  V30 25 2 25 24
M  V30 26 1 26 25
M  V30 27 1 27 22
M  V30 28 2 27 26
M  V30 29 1 28 11
M  V30 30 1 28 20
M  V30 31 1 29 8
M  V30 32 1 29 28
M  V30 33 2 30 29
M  V30 34 1 31 4
M  V30 35 1 32 31
M  V30 36 1 33 32
M  V30 37 1 34 33
M  V30 38 2 35 34
M  V30 39 1 36 35
M  V30 40 2 37 36
M  V30 41 1 38 37
M  V30 42 1 39 38
M  V30 43 2 40 39
M  V30 44 2 41 33
M  V30 45 1 41 37
M  V30 46 1 41 40
M  V30 47 1 42 40
M  V30 48 1 43 2
M  V30 49 1 43 32
M  V30 50 1 43 42
M  V30 51 1 44 1
M  V30 52 1 45 1
M  V30 53 1 46 1
M  V30 54 1 47 3
M  V30 55 1 48 3
M  V30 56 1 4 49 CFG=3
M  V30 57 1 50 7
M  V30 58 1 51 9
M  V30 59 1 52 9
M  V30 60 1 53 9
M  V30 61 1 54 12
M  V30 62 1 13 55 CFG=3
M  V30 63 1 56 14
M  V30 64 1 57 14
M  V30 65 1 58 15
M  V30 66 1 59 15
M  V30 67 1 60 16
M  V30 68 1 61 16
M  V30 69 1 20 62 CFG=3
M  V30 70 1 63 21
M  V30 71 1 64 21
M  V30 72 1 65 23
M  V30 73 1 66 24
M  V30 74 1 67 25
M  V30 75 1 68 26
M  V30 76 1 69 27
M  V30 77 1 70 31
M  V30 78 1 71 31
M  V30 79 1 32 72 CFG=3
M  V30 80 1 73 34
M  V30 81 1 74 35
M  V30 82 1 75 36
M  V30 83 1 76 38
M  V30 84 1 77 39
M  V30 85 1 78 42
M  V30 86 1 79 42
M  V30 87 1 43 80 CFG=1
M  V30 88 1 2 81 CFG=1
M  V30 END BOND
M  V30 END CTAB
M  END
>  <b_m_subgroup_collapsed>  (2094) 
0

>  <r_i_docking_score>  (2094) 
-6.2510052914086804

>  <s_m_subgroup_title>  (2094) 
glide-dock_SP_D22_pv

>  <s_m_subgroupid>  (2094) 
glide-dock_SP_D22_pv

>  <Molecule ChEMBL ID>  (2094) 
CHEMBL1200517

>  <Standard Type>  (2094) 
Ki

>  <Standard Value>  (2094) 
60.92

>  <label>  (2094) 
1

$$$$
CHEMBL43475
     RDKit          3D

  0  0  0  0  0  0  0  0  0  0999 V3000
M  V30 BEGIN CTAB
M  V30 COUNTS 47 48 0 0 1
M  V30 BEGIN ATOM
M  V30 1 C 6.219427 3.619400 -13.446542 0
M  V30 2 C 6.385365 4.597611 -12.278178 0
M  V30 3 C 7.553981 5.594658 -12.427307 0
M  V30 4 N 8.864858 5.013866 -12.005770 0 CHG=1
M  V30 5 C 9.909233 5.029560 -13.070107 0
M  V30 6 C 9.605843 4.071613 -14.234274 0
M  V30 7 C 10.736086 4.040573 -15.268716 0
M  V30 8 C 9.374360 5.461603 -10.666881 0 CFG=2
M  V30 9 C 8.323709 5.377543 -9.560091 0
M  V30 10 C 8.899078 5.572497 -8.163977 0
M  V30 11 C 9.945371 6.667030 -8.068060 0
M  V30 12 C 10.285190 7.134717 -6.783081 0
M  V30 13 C 11.285843 8.105546 -6.620806 0
M  V30 14 C 11.993714 8.572605 -7.742562 0
M  V30 15 C 11.662073 8.117695 -9.033190 0
M  V30 16 O 12.384275 8.572248 -10.101875 0
M  V30 17 C 10.600719 7.193336 -9.214979 0
M  V30 18 C 10.150883 6.817437 -10.633377 0 CFG=2
M  V30 19 C 9.388221 8.014884 -11.240412 0
M  V30 20 H 5.339905 2.993015 -13.298272 0
M  V30 21 H 6.088481 4.147425 -14.389603 0
M  V30 22 H 7.075097 2.953168 -13.539674 0
M  V30 23 H 6.471777 4.031268 -11.353553 0
M  V30 24 H 5.461892 5.172147 -12.185929 0
M  V30 25 H 7.310606 6.482485 -11.847019 0
M  V30 26 H 7.604815 5.965398 -13.446943 0
M  V30 27 H 10.050932 6.043065 -13.444425 0
M  V30 28 H 10.864870 4.724162 -12.646731 0
M  V30 29 H 9.450614 3.062812 -13.850626 0
M  V30 30 H 8.685966 4.365822 -14.738463 0
M  V30 31 H 10.479985 3.388503 -16.106689 0
M  V30 32 H 10.931366 5.036901 -15.671302 0
M  V30 33 H 11.664753 3.668687 -14.831845 0
M  V30 34 H 10.086043 4.685454 -10.395839 0
M  V30 35 H 7.601562 6.169944 -9.705082 0
M  V30 36 H 7.800241 4.424087 -9.596773 0
M  V30 37 H 9.358676 4.639107 -7.846830 0
M  V30 38 H 8.088330 5.775600 -7.461941 0
M  V30 39 H 9.776251 6.742807 -5.914298 0
M  V30 40 H 11.539109 8.459699 -5.631889 0
M  V30 41 H 12.793791 9.284266 -7.601528 0
M  V30 42 H 13.008056 9.264894 -9.898110 0
M  V30 43 H 11.055511 6.693273 -11.225793 0
M  V30 44 H 9.998477 8.917195 -11.228510 0
M  V30 45 H 9.108255 7.852263 -12.279091 0
M  V30 46 H 8.486103 8.243469 -10.675039 0
M  V30 47 H 8.660958 4.034927 -11.866108 0
M  V30 END ATOM
M  V30 BEGIN BOND
M  V30 1 1 2 1
M  V30 2 1 3 2
M  V30 3 1 4 3
M  V30 4 1 5 4
M  V30 5 1 6 5
M  V30 6 1 7 6
M  V30 7 1 8 4
M  V30 8 1 9 8
M  V30 9 1 10 9
M  V30 10 1 11 10
M  V30 11 2 12 11
M  V30 12 1 13 12
M  V30 13 2 14 13
M  V30 14 1 15 14
M  V30 15 1 16 15
M  V30 16 1 17 11
M  V30 17 2 17 15
M  V30 18 1 18 8
M  V30 19 1 18 17
M  V30 20 1 19 18
M  V30 21 1 20 1
M  V30 22 1 21 1
M  V30 23 1 22 1
M  V30 24 1 23 2
M  V30 25 1 24 2
M  V30 26 1 25 3
M  V30 27 1 26 3
M  V30 28 1 27 5
M  V30 29 1 28 5
M  V30 30 1 29 6
M  V30 31 1 30 6
M  V30 32 1 31 7
M  V30 33 1 32 7
M  V30 34 1 33 7
M  V30 35 1 8 34 CFG=1
M  V30 36 1 35 9
M  V30 37 1 36 9
M  V30 38 1 37 10
M  V30 39 1 38 10
M  V30 40 1 39 12
M  V30 41 1 40 13
M  V30 42 1 41 14
M  V30 43 1 42 16
M  V30 44 1 18 43 CFG=3
M  V30 45 1 44 19
M  V30 46 1 45 19
M  V30 47 1 46 19
M  V30 48 1 47 4
M  V30 END BOND
M  V30 END CTAB
M  END
>  <b_m_subgroup_collapsed>  (2095) 
0

>  <r_i_docking_score>  (2095) 
-6.25099209517332

>  <s_m_subgroup_title>  (2095) 
glide-dock_SP_D22_pv

>  <s_m_subgroupid>  (2095) 
glide-dock_SP_D22_pv

>  <Molecule ChEMBL ID>  (2095) 
CHEMBL43475

>  <Standard Type>  (2095) 
Ki

>  <Standard Value>  (2095) 
30.0

>  <label>  (2095) 
1

$$$$
CHEMBL3764586
     RDKit          3D

  0  0  0  0  0  0  0  0  0  0999 V3000
M  V30 BEGIN CTAB
M  V30 COUNTS 56 59 0 0 1
M  V30 BEGIN ATOM
M  V30 1 C 5.330142 1.136298 -13.245922 0
M  V30 2 C 5.053403 0.170290 -14.354456 0
M  V30 3 N 3.983745 -0.711607 -14.293994 0
M  V30 4 C 4.033708 -1.380389 -15.446800 0
M  V30 5 O 5.053079 -0.995651 -16.260031 0
M  V30 6 C 5.699977 -0.015254 -15.554123 0
M  V30 7 C 6.885602 0.593827 -16.151800 0
M  V30 8 N 6.889149 1.125840 -17.379803 0
M  V30 9 N 8.184124 1.543688 -17.610512 0
M  V30 10 C 8.863096 1.216231 -16.508818 0
M  V30 11 S 10.599265 1.465844 -16.277777 0
M  V30 12 C 10.781171 3.169626 -16.894831 0
M  V30 13 C 9.923298 4.183910 -16.122971 0
M  V30 14 C 10.302103 4.343212 -14.638373 0
M  V30 15 N 9.263893 4.972299 -13.822667 0
M  V30 16 C 8.155488 4.058543 -13.544816 0
M  V30 17 C 7.080225 4.692603 -12.646049 0
M  V30 18 O 7.684347 5.154934 -11.446587 0
M  V30 19 C 8.715603 6.110117 -11.675555 0 CFG=1
M  V30 20 C 9.286314 6.669522 -10.380386 0
M  V30 21 C 9.695900 8.018970 -10.341604 0
M  V30 22 C 10.228868 8.567994 -9.160293 0
M  V30 23 C 10.357982 7.775996 -8.000816 0
M  V30 24 C 10.940343 8.384176 -6.736236 0
M  V30 25 F 11.179154 7.464679 -5.799876 0
M  V30 26 F 12.086062 8.995770 -7.029006 0
M  V30 27 F 10.093451 9.283994 -6.242826 0
M  V30 28 C 9.950355 6.426731 -8.038369 0
M  V30 29 C 9.425321 5.872927 -9.220645 0
M  V30 30 F 9.075363 4.566939 -9.227487 0
M  V30 31 C 9.801049 5.449614 -12.550432 0
M  V30 32 N 8.097851 0.643191 -15.561055 0
M  V30 33 C 8.486150 0.176329 -14.246195 0
M  V30 34 H 5.593277 0.618272 -12.323340 0
M  V30 35 H 6.150844 1.806312 -13.494866 0
M  V30 36 H 4.457081 1.757636 -13.046883 0
M  V30 37 H 3.343933 -2.161865 -15.734787 0
M  V30 38 H 11.833669 3.447614 -16.835220 0
M  V30 39 H 10.513537 3.185666 -17.951862 0
M  V30 40 H 9.995424 5.158794 -16.606188 0
M  V30 41 H 8.885839 3.892420 -16.227304 0
M  V30 42 H 10.561825 3.377485 -14.203000 0
M  V30 43 H 11.215229 4.938381 -14.595492 0
M  V30 44 H 7.686009 3.722811 -14.467785 0
M  V30 45 H 8.542394 3.168267 -13.051757 0
M  V30 46 H 6.580733 5.519253 -13.152073 0
M  V30 47 H 6.311647 3.962766 -12.392538 0
M  V30 48 H 8.275418 6.946521 -12.222294 0
M  V30 49 H 9.594964 8.639640 -11.219720 0
M  V30 50 H 10.540855 9.601472 -9.144087 0
M  V30 51 H 10.041532 5.801256 -7.162960 0
M  V30 52 H 10.248443 4.618526 -12.003112 0
M  V30 53 H 10.598368 6.169446 -12.737669 0
M  V30 54 H 9.496507 -0.228163 -14.272442 0
M  V30 55 H 8.474996 1.004409 -13.543454 0
M  V30 56 H 7.785959 -0.586962 -13.906396 0
M  V30 END ATOM
M  V30 BEGIN BOND
M  V30 1 1 2 1
M  V30 2 1 3 2
M  V30 3 2 4 3
M  V30 4 1 5 4
M  V30 5 2 6 2
M  V30 6 1 6 5
M  V30 7 1 7 6
M  V30 8 2 8 7
M  V30 9 1 9 8
M  V30 10 2 10 9
M  V30 11 1 11 10
M  V30 12 1 12 11
M  V30 13 1 13 12
M  V30 14 1 14 13
M  V30 15 1 15 14
M  V30 16 1 16 15
M  V30 17 1 17 16
M  V30 18 1 18 17
M  V30 19 1 19 18
M  V30 20 1 20 19
M  V30 21 1 21 20
M  V30 22 2 22 21
M  V30 23 1 23 22
M  V30 24 1 24 23
M  V30 25 1 25 24
M  V30 26 1 26 24
M  V30 27 1 27 24
M  V30 28 2 28 23
M  V30 29 2 29 20
M  V30 30 1 29 28
M  V30 31 1 30 29
M  V30 32 1 31 15
M  V30 33 1 31 19
M  V30 34 1 32 7
M  V30 35 1 32 10
M  V30 36 1 33 32
M  V30 37 1 34 1
M  V30 38 1 35 1
M  V30 39 1 36 1
M  V30 40 1 37 4
M  V30 41 1 38 12
M  V30 42 1 39 12
M  V30 43 1 40 13
M  V30 44 1 41 13
M  V30 45 1 42 14
M  V30 46 1 43 14
M  V30 47 1 44 16
M  V30 48 1 45 16
M  V30 49 1 46 17
M  V30 50 1 47 17
M  V30 51 1 19 48 CFG=3
M  V30 52 1 49 21
M  V30 53 1 50 22
M  V30 54 1 51 28
M  V30 55 1 52 31
M  V30 56 1 53 31
M  V30 57 1 54 33
M  V30 58 1 55 33
M  V30 59 1 56 33
M  V30 END BOND
M  V30 END CTAB
M  END
>  <b_m_subgroup_collapsed>  (2096) 
0

>  <r_i_docking_score>  (2096) 
-6.25088123390164

>  <s_m_subgroup_title>  (2096) 
glide-dock_SP_D22_pv

>  <s_m_subgroupid>  (2096) 
glide-dock_SP_D22_pv

>  <Molecule ChEMBL ID>  (2096) 
CHEMBL3764586

>  <Standard Type>  (2096) 
Ki

>  <Standard Value>  (2096) 
10000.0

>  <label>  (2096) 
0

$$$$
CHEMBL4442337
     RDKit          3D

  0  0  0  0  0  0  0  0  0  0999 V3000
M  V30 BEGIN CTAB
M  V30 COUNTS 29 31 0 0 1
M  V30 BEGIN ATOM
M  V30 1 C 11.880440 6.745282 -2.922030 0
M  V30 2 C 11.381723 6.709294 -4.379565 0
M  V30 3 N 11.439600 8.002200 -5.059741 0
M  V30 4 C 11.997781 9.135239 -4.595458 0
M  V30 5 N 12.007273 10.147935 -5.446872 0
M  V30 6 C 11.392897 9.633480 -6.576849 0
M  V30 7 C 10.999828 8.335691 -6.350986 0
M  V30 8 C 10.273678 7.438799 -7.246015 0
M  V30 9 C 9.273254 6.568770 -6.902513 0
M  V30 10 N 8.807412 5.907260 -8.022908 0
M  V30 11 C 9.446157 6.365011 -9.151184 0
M  V30 12 C 9.293309 6.046810 -10.512399 0
M  V30 13 C 10.085235 6.706784 -11.468803 0
M  V30 14 C 11.031823 7.657543 -11.044814 0
M  V30 15 C 11.175675 7.967627 -9.678211 0
M  V30 16 F 12.087271 8.891950 -9.310255 0
M  V30 17 C 10.385941 7.334547 -8.687600 0
M  V30 18 H 11.744521 5.774591 -2.443591 0
M  V30 19 H 12.941612 6.987861 -2.866472 0
M  V30 20 H 11.329471 7.473055 -2.325427 0
M  V30 21 H 10.361073 6.329095 -4.402597 0
M  V30 22 H 11.988447 6.009437 -4.955270 0
M  V30 23 H 12.449231 9.230227 -3.618708 0
M  V30 24 H 11.285275 10.236447 -7.459359 0
M  V30 25 H 8.841605 6.366573 -5.934062 0
M  V30 26 H 8.022338 5.269969 -8.011436 0
M  V30 27 H 8.557935 5.316816 -10.820360 0
M  V30 28 H 9.975552 6.479789 -12.518760 0
M  V30 29 H 11.656792 8.161092 -11.765806 0
M  V30 END ATOM
M  V30 BEGIN BOND
M  V30 1 1 2 1
M  V30 2 1 3 2
M  V30 3 1 4 3
M  V30 4 2 5 4
M  V30 5 1 6 5
M  V30 6 1 7 3
M  V30 7 2 7 6
M  V30 8 1 8 7
M  V30 9 2 9 8
M  V30 10 1 10 9
M  V30 11 1 11 10
M  V30 12 2 12 11
M  V30 13 1 13 12
M  V30 14 2 14 13
M  V30 15 1 15 14
M  V30 16 1 16 15
M  V30 17 1 17 8
M  V30 18 1 17 11
M  V30 19 2 17 15
M  V30 20 1 18 1
M  V30 21 1 19 1
M  V30 22 1 20 1
M  V30 23 1 21 2
M  V30 24 1 22 2
M  V30 25 1 23 4
M  V30 26 1 24 6
M  V30 27 1 25 9
M  V30 28 1 26 10
M  V30 29 1 27 12
M  V30 30 1 28 13
M  V30 31 1 29 14
M  V30 END BOND
M  V30 END CTAB
M  END
>  <b_m_subgroup_collapsed>  (2097) 
0

>  <r_i_docking_score>  (2097) 
-6.25084166970891

>  <s_m_subgroup_title>  (2097) 
glide-dock_SP_D22_pv

>  <s_m_subgroupid>  (2097) 
glide-dock_SP_D22_pv

>  <Molecule ChEMBL ID>  (2097) 
CHEMBL4442337

>  <Standard Type>  (2097) 
Ki

>  <Standard Value>  (2097) 
10000.0

>  <label>  (2097) 
0

$$$$
CHEMBL2016625
     RDKit          3D

  0  0  0  0  0  0  0  0  0  0999 V3000
M  V30 BEGIN CTAB
M  V30 COUNTS 79 82 0 0 1
M  V30 BEGIN ATOM
M  V30 1 C 12.489113 6.273472 -2.247387 0
M  V30 2 C 12.627505 7.263706 -3.393801 0
M  V30 3 C 12.031445 8.631107 -3.029351 0
M  V30 4 C 12.009262 9.619206 -4.196785 0
M  V30 5 C 11.010922 9.252285 -5.298716 0
M  V30 6 C 11.454844 9.615429 -6.718002 0
M  V30 7 C 10.449726 9.061026 -7.735156 0
M  V30 8 C 10.826119 9.293876 -9.209402 0
M  V30 9 C 9.795733 8.653219 -10.159613 0
M  V30 10 C 9.887249 7.134983 -10.190979 0
M  V30 11 O 10.886048 6.572333 -9.762382 0
M  V30 12 N 8.874969 6.478043 -10.756445 0
M  V30 13 C 8.949203 5.106871 -11.238224 0
M  V30 14 C 9.625911 5.093144 -12.617891 0
M  V30 15 C 9.613165 3.704481 -13.279273 0
M  V30 16 N 10.227078 3.652314 -14.608703 0
M  V30 17 C 9.732080 4.690383 -15.509924 0
M  V30 18 C 10.190663 4.364580 -16.937582 0
M  V30 19 N 11.656166 4.331262 -17.019041 0
M  V30 20 C 12.442544 5.295225 -17.672489 0
M  V30 21 N 13.641087 5.589620 -17.259096 0
M  V30 22 C 14.470082 6.590025 -17.800146 0
M  V30 23 C 15.857058 6.328542 -17.811327 0
M  V30 24 C 16.777853 7.303027 -18.246916 0
M  V30 25 Cl 18.470232 6.972281 -18.220135 0
M  V30 26 C 16.321213 8.568489 -18.652517 0
M  V30 27 C 14.944605 8.852539 -18.637566 0
M  V30 28 C 14.021599 7.870558 -18.224852 0
M  V30 29 N 12.667374 8.172203 -18.309132 0
M  V30 30 C 11.827515 7.360641 -19.066967 0
M  V30 31 C 11.072404 7.952360 -20.100712 0
M  V30 32 C 10.324944 7.154409 -20.983898 0
M  V30 33 C 10.342921 5.755859 -20.843233 0
M  V30 34 C 11.077055 5.163334 -19.797789 0
M  V30 35 C 11.794282 5.957615 -18.869387 0
M  V30 36 C 12.193230 3.388308 -16.033600 0
M  V30 37 C 11.689530 3.711063 -14.606852 0
M  V30 38 H 13.059776 5.372332 -2.455567 0
M  V30 39 H 12.886064 6.705655 -1.336314 0
M  V30 40 H 11.447850 6.002489 -2.074895 0
M  V30 41 H 12.154049 6.836985 -4.277136 0
M  V30 42 H 13.682748 7.374447 -3.639246 0
M  V30 43 H 12.612262 9.065601 -2.214477 0
M  V30 44 H 11.019374 8.513725 -2.646549 0
M  V30 45 H 13.015101 9.750320 -4.596221 0
M  V30 46 H 11.686244 10.571797 -3.788353 0
M  V30 47 H 10.086022 9.775335 -5.086256 0
M  V30 48 H 10.766797 8.192052 -5.264737 0
M  V30 49 H 12.443381 9.194636 -6.917542 0
M  V30 50 H 11.545101 10.697807 -6.812618 0
M  V30 51 H 9.459720 9.474664 -7.544096 0
M  V30 52 H 10.354097 7.988442 -7.558527 0
M  V30 53 H 11.824991 8.899301 -9.402749 0
M  V30 54 H 10.902880 10.349486 -9.446936 0
M  V30 55 H 9.980450 8.972440 -11.183085 0
M  V30 56 H 8.783361 8.969793 -9.901702 0
M  V30 57 H 8.000531 6.982525 -10.895617 0
M  V30 58 H 7.933066 4.717546 -11.308311 0
M  V30 59 H 9.484946 4.471612 -10.531427 0
M  V30 60 H 10.649339 5.455918 -12.532227 0
M  V30 61 H 9.095333 5.811519 -13.243781 0
M  V30 62 H 8.577014 3.380402 -13.383938 0
M  V30 63 H 10.085938 2.972070 -12.627102 0
M  V30 64 H 10.104910 5.674852 -15.222330 0
M  V30 65 H 8.647789 4.727647 -15.445408 0
M  V30 66 H 9.754722 5.111919 -17.597401 0
M  V30 67 H 9.791714 3.401048 -17.253727 0
M  V30 68 H 16.217905 5.372987 -17.462027 0
M  V30 69 H 17.025070 9.323125 -18.973974 0
M  V30 70 H 14.598041 9.824671 -18.959589 0
M  V30 71 H 12.466349 9.169259 -18.375286 0
M  V30 72 H 11.090330 9.021936 -20.241455 0
M  V30 73 H 9.756139 7.612221 -21.780300 0
M  V30 74 H 9.784822 5.136537 -21.530003 0
M  V30 75 H 11.058346 4.087746 -19.692440 0
M  V30 76 H 11.886039 2.379795 -16.315023 0
M  V30 77 H 13.282887 3.381602 -16.049408 0
M  V30 78 H 12.043521 4.690663 -14.283282 0
M  V30 79 H 12.081707 2.975362 -13.905151 0
M  V30 END ATOM
M  V30 BEGIN BOND
M  V30 1 1 2 1
M  V30 2 1 3 2
M  V30 3 1 4 3
M  V30 4 1 5 4
M  V30 5 1 6 5
M  V30 6 1 7 6
M  V30 7 1 8 7
M  V30 8 1 9 8
M  V30 9 1 10 9
M  V30 10 2 11 10
M  V30 11 1 12 10
M  V30 12 1 13 12
M  V30 13 1 14 13
M  V30 14 1 15 14
M  V30 15 1 16 15
M  V30 16 1 17 16
M  V30 17 1 18 17
M  V30 18 1 19 18
M  V30 19 1 20 19
M  V30 20 2 21 20
M  V30 21 1 22 21
M  V30 22 1 23 22
M  V30 23 2 24 23
M  V30 24 1 25 24
M  V30 25 1 26 24
M  V30 26 2 27 26
M  V30 27 2 28 22
M  V30 28 1 28 27
M  V30 29 1 29 28
M  V30 30 1 30 29
M  V30 31 2 31 30
M  V30 32 1 32 31
M  V30 33 2 33 32
M  V30 34 1 34 33
M  V30 35 1 35 20
M  V30 36 1 35 30
M  V30 37 2 35 34
M  V30 38 1 36 19
M  V30 39 1 37 16
M  V30 40 1 37 36
M  V30 41 1 38 1
M  V30 42 1 39 1
M  V30 43 1 40 1
M  V30 44 1 41 2
M  V30 45 1 42 2
M  V30 46 1 43 3
M  V30 47 1 44 3
M  V30 48 1 45 4
M  V30 49 1 46 4
M  V30 50 1 47 5
M  V30 51 1 48 5
M  V30 52 1 49 6
M  V30 53 1 50 6
M  V30 54 1 51 7
M  V30 55 1 52 7
M  V30 56 1 53 8
M  V30 57 1 54 8
M  V30 58 1 55 9
M  V30 59 1 56 9
M  V30 60 1 57 12
M  V30 61 1 58 13
M  V30 62 1 59 13
M  V30 63 1 60 14
M  V30 64 1 61 14
M  V30 65 1 62 15
M  V30 66 1 63 15
M  V30 67 1 64 17
M  V30 68 1 65 17
M  V30 69 1 66 18
M  V30 70 1 67 18
M  V30 71 1 68 23
M  V30 72 1 69 26
M  V30 73 1 70 27
M  V30 74 1 71 29
M  V30 75 1 72 31
M  V30 76 1 73 32
M  V30 77 1 74 33
M  V30 78 1 75 34
M  V30 79 1 76 36
M  V30 80 1 77 36
M  V30 81 1 78 37
M  V30 82 1 79 37
M  V30 END BOND
M  V30 END CTAB
M  END
>  <b_m_subgroup_collapsed>  (2098) 
0

>  <r_i_docking_score>  (2098) 
-6.2503833092221504

>  <s_m_subgroup_title>  (2098) 
glide-dock_SP_D22_pv

>  <s_m_subgroupid>  (2098) 
glide-dock_SP_D22_pv

>  <Molecule ChEMBL ID>  (2098) 
CHEMBL2016625

>  <Standard Type>  (2098) 
Ki

>  <Standard Value>  (2098) 
8.913

>  <label>  (2098) 
1

$$$$
CHEMBL598759
     RDKit          3D

  0  0  0  0  0  0  0  0  0  0999 V3000
M  V30 BEGIN CTAB
M  V30 COUNTS 50 53 0 0 1
M  V30 BEGIN ATOM
M  V30 1 C 9.567052 0.200207 -15.048972 0
M  V30 2 C 10.078605 1.427133 -15.226652 0
M  V30 3 C 9.431811 2.520083 -16.054039 0
M  V30 4 O 9.313016 3.736212 -15.321792 0
M  V30 5 C 8.454753 3.811810 -14.246750 0
M  V30 6 C 7.222623 3.108548 -14.275029 0
M  V30 7 C 6.248511 3.308227 -13.291852 0
M  V30 8 C 6.542463 4.138954 -12.209603 0
M  V30 9 C 7.807205 4.748809 -12.104923 0
M  V30 10 C 8.766879 4.666884 -13.142572 0
M  V30 11 C 10.009083 5.501611 -13.014607 0
M  V30 12 C 11.132491 5.383873 -13.878853 0
M  V30 13 C 12.233794 6.252743 -13.844058 0
M  V30 14 C 12.321445 7.246422 -12.863712 0
M  V30 15 C 11.302791 7.372332 -11.911091 0
M  V30 16 C 10.163909 6.522413 -12.022530 0
M  V30 17 C 8.973239 6.736244 -11.072594 0 CFG=1
M  V30 18 C 8.161488 5.466317 -10.828975 0
M  V30 19 N 9.273755 7.467023 -9.807378 0 CFG=1 CHG=1
M  V30 20 C 9.812760 6.641955 -8.683876 0
M  V30 21 C 10.037221 7.405861 -7.360456 0
M  V30 22 C 11.464925 7.939469 -7.171797 0
M  V30 23 C 10.020764 8.692156 -10.122292 0
M  V30 24 C 11.375798 8.312568 -10.711201 0
M  V30 25 H 8.629295 -0.094711 -15.498081 0
M  V30 26 H 10.086000 -0.528776 -14.446631 0
M  V30 27 H 11.018855 1.679747 -14.757545 0
M  V30 28 H 10.095953 2.721556 -16.894533 0
M  V30 29 H 8.493567 2.193805 -16.500957 0
M  V30 30 H 6.956676 2.467941 -15.099748 0
M  V30 31 H 5.290822 2.813038 -13.358380 0
M  V30 32 H 5.796760 4.265950 -11.443583 0
M  V30 33 H 11.197633 4.621435 -14.631733 0
M  V30 34 H 13.042051 6.126261 -14.549726 0
M  V30 35 H 13.198586 7.875535 -12.815213 0
M  V30 36 H 8.312267 7.397543 -11.636120 0
M  V30 37 H 7.285169 5.720645 -10.246459 0
M  V30 38 H 8.731612 4.739664 -10.250706 0
M  V30 39 H 9.072883 5.879144 -8.444139 0
M  V30 40 H 10.711012 6.103421 -8.988666 0
M  V30 41 H 9.297685 8.197202 -7.227077 0
M  V30 42 H 9.854982 6.704389 -6.544549 0
M  V30 43 H 11.637235 8.215346 -6.130932 0
M  V30 44 H 11.668406 8.824098 -7.772215 0
M  V30 45 H 12.198668 7.181255 -7.445550 0
M  V30 46 H 9.440755 9.264680 -10.846401 0
M  V30 47 H 10.119407 9.341745 -9.254871 0
M  V30 48 H 11.998774 7.829089 -9.959951 0
M  V30 49 H 11.921871 9.215376 -10.981113 0
M  V30 50 H 8.351426 7.770574 -9.502574 0
M  V30 END ATOM
M  V30 BEGIN BOND
M  V30 1 2 2 1
M  V30 2 1 3 2
M  V30 3 1 4 3
M  V30 4 1 5 4
M  V30 5 2 6 5
M  V30 6 1 7 6
M  V30 7 2 8 7
M  V30 8 1 9 8
M  V30 9 1 10 5
M  V30 10 2 10 9
M  V30 11 1 11 10
M  V30 12 2 12 11
M  V30 13 1 13 12
M  V30 14 2 14 13
M  V30 15 1 15 14
M  V30 16 1 16 11
M  V30 17 2 16 15
M  V30 18 1 17 16
M  V30 19 1 18 9
M  V30 20 1 18 17
M  V30 21 1 19 17
M  V30 22 1 20 19
M  V30 23 1 21 20
M  V30 24 1 22 21
M  V30 25 1 23 19
M  V30 26 1 24 15
M  V30 27 1 24 23
M  V30 28 1 25 1
M  V30 29 1 26 1
M  V30 30 1 27 2
M  V30 31 1 28 3
M  V30 32 1 29 3
M  V30 33 1 30 6
M  V30 34 1 31 7
M  V30 35 1 32 8
M  V30 36 1 33 12
M  V30 37 1 34 13
M  V30 38 1 35 14
M  V30 39 1 17 36 CFG=3
M  V30 40 1 37 18
M  V30 41 1 38 18
M  V30 42 1 39 20
M  V30 43 1 40 20
M  V30 44 1 41 21
M  V30 45 1 42 21
M  V30 46 1 43 22
M  V30 47 1 44 22
M  V30 48 1 45 22
M  V30 49 1 46 23
M  V30 50 1 47 23
M  V30 51 1 48 24
M  V30 52 1 49 24
M  V30 53 1 19 50 CFG=1
M  V30 END BOND
M  V30 END CTAB
M  END
>  <b_m_subgroup_collapsed>  (2099) 
0

>  <r_i_docking_score>  (2099) 
-6.2468613350727997

>  <s_m_subgroup_title>  (2099) 
glide-dock_SP_D22_pv

>  <s_m_subgroupid>  (2099) 
glide-dock_SP_D22_pv

>  <Molecule ChEMBL ID>  (2099) 
CHEMBL598759

>  <Standard Type>  (2099) 
Ki

>  <Standard Value>  (2099) 
10000.0

>  <label>  (2099) 
0

$$$$
CHEMBL148042
     RDKit          3D

  0  0  0  0  0  0  0  0  0  0999 V3000
M  V30 BEGIN CTAB
M  V30 COUNTS 45 48 0 0 1
M  V30 BEGIN ATOM
M  V30 1 C 12.368841 8.444261 -8.350346 0
M  V30 2 N 11.243548 7.797681 -9.058087 0 CFG=1 CHG=1
M  V30 3 C 10.321460 7.086305 -8.138537 0
M  V30 4 C 9.882307 5.742146 -8.744953 0
M  V30 5 C 8.918434 5.849240 -9.937392 0
M  V30 6 N 9.391831 6.750407 -10.996819 0
M  V30 7 C 9.951762 6.314574 -12.203231 0
M  V30 8 N 11.050684 6.845726 -12.644331 0
M  V30 9 C 11.743391 6.481907 -13.811662 0
M  V30 10 C 12.486414 7.495775 -14.458916 0
M  V30 11 C 13.277825 7.183856 -15.579460 0
M  V30 12 C 13.332181 5.847534 -16.001156 0
M  V30 13 N 12.643405 4.860208 -15.396924 0
M  V30 14 C 11.857858 5.172712 -14.346856 0
M  V30 15 N 11.154673 4.087945 -13.846650 0
M  V30 16 C 9.785846 4.144883 -13.602607 0
M  V30 17 C 8.997734 3.101858 -14.131727 0
M  V30 18 C 7.602535 3.110091 -13.974728 0
M  V30 19 C 6.988867 4.172833 -13.293016 0
M  V30 20 Cl 5.286739 4.169580 -13.047727 0
M  V30 21 C 7.764461 5.227518 -12.785415 0
M  V30 22 C 9.178348 5.216627 -12.897408 0
M  V30 23 C 9.319860 8.173553 -10.662517 0
M  V30 24 C 10.579012 8.740914 -9.984637 0
M  V30 25 H 12.012254 9.161018 -7.609892 0
M  V30 26 H 12.961911 7.687233 -7.847237 0
M  V30 27 H 13.025961 8.964264 -9.046085 0
M  V30 28 H 9.465253 7.704982 -7.868661 0
M  V30 29 H 10.836303 6.867631 -7.202870 0
M  V30 30 H 9.390510 5.153650 -7.969800 0
M  V30 31 H 10.759210 5.169291 -9.033693 0
M  V30 32 H 7.937528 6.172733 -9.585892 0
M  V30 33 H 8.758266 4.842826 -10.332154 0
M  V30 34 H 12.473215 8.512611 -14.095940 0
M  V30 35 H 13.846639 7.947566 -16.086180 0
M  V30 36 H 13.940769 5.563463 -16.844656 0
M  V30 37 H 11.452295 3.232079 -14.291726 0
M  V30 38 H 9.459397 2.283953 -14.665110 0
M  V30 39 H 7.004066 2.300888 -14.366629 0
M  V30 40 H 7.256730 6.026469 -12.261201 0
M  V30 41 H 9.070353 8.754199 -11.553032 0
M  V30 42 H 8.486040 8.327851 -9.981503 0
M  V30 43 H 10.315706 9.657226 -9.452585 0
M  V30 44 H 11.303312 9.016037 -10.749965 0
M  V30 45 H 11.644186 7.081989 -9.647831 0
M  V30 END ATOM
M  V30 BEGIN BOND
M  V30 1 1 2 1
M  V30 2 1 3 2
M  V30 3 1 4 3
M  V30 4 1 5 4
M  V30 5 1 6 5
M  V30 6 1 7 6
M  V30 7 2 8 7
M  V30 8 1 9 8
M  V30 9 2 10 9
M  V30 10 1 11 10
M  V30 11 2 12 11
M  V30 12 1 13 12
M  V30 13 1 14 9
M  V30 14 2 14 13
M  V30 15 1 15 14
M  V30 16 1 16 15
M  V30 17 1 17 16
M  V30 18 2 18 17
M  V30 19 1 19 18
M  V30 20 1 20 19
M  V30 21 2 21 19
M  V30 22 1 22 7
M  V30 23 2 22 16
M  V30 24 1 22 21
M  V30 25 1 23 6
M  V30 26 1 24 2
M  V30 27 1 24 23
M  V30 28 1 25 1
M  V30 29 1 26 1
M  V30 30 1 27 1
M  V30 31 1 28 3
M  V30 32 1 29 3
M  V30 33 1 30 4
M  V30 34 1 31 4
M  V30 35 1 32 5
M  V30 36 1 33 5
M  V30 37 1 34 10
M  V30 38 1 35 11
M  V30 39 1 36 12
M  V30 40 1 37 15
M  V30 41 1 38 17
M  V30 42 1 39 18
M  V30 43 1 40 21
M  V30 44 1 41 23
M  V30 45 1 42 23
M  V30 46 1 43 24
M  V30 47 1 44 24
M  V30 48 1 2 45 CFG=3
M  V30 END BOND
M  V30 END CTAB
M  END
>  <b_m_subgroup_collapsed>  (2100) 
0

>  <r_i_docking_score>  (2100) 
-6.2461028333662902

>  <s_m_subgroup_title>  (2100) 
glide-dock_SP_D22_pv

>  <s_m_subgroupid>  (2100) 
glide-dock_SP_D22_pv

>  <Molecule ChEMBL ID>  (2100) 
CHEMBL148042

>  <Standard Type>  (2100) 
Ki

>  <Standard Value>  (2100) 
19117.0

>  <label>  (2100) 
0

$$$$
CHEMBL509451
     RDKit          3D

  0  0  0  0  0  0  0  0  0  0999 V3000
M  V30 BEGIN CTAB
M  V30 COUNTS 97 104 0 0 1
M  V30 BEGIN ATOM
M  V30 1 C 11.008778 8.989332 -5.077861 0
M  V30 2 C 10.052717 8.221147 -6.007284 0
M  V30 3 C 10.769697 7.699144 -7.259044 0
M  V30 4 N 9.862815 7.015383 -8.237720 0 CFG=2 CHG=1
M  V30 5 C 9.464372 5.685827 -7.760453 0
M  V30 6 C 8.318375 5.159600 -8.594103 0
M  V30 7 C 8.502611 5.213798 -10.101445 0
M  V30 8 C 7.685647 4.571834 -11.046980 0
M  V30 9 C 7.836830 4.798790 -12.416347 0
M  V30 10 C 8.890112 5.601160 -12.858707 0
M  V30 11 C 9.798984 6.201189 -11.957813 0
M  V30 12 C 9.523189 6.057122 -10.577171 0
M  V30 13 C 10.440570 6.816803 -9.590495 0 CFG=1
M  V30 14 C 11.032401 8.087117 -10.201472 0
M  V30 15 C 11.659095 7.748685 -11.512293 0
M  V30 16 C 12.886065 8.310513 -11.847672 0
M  V30 17 C 13.286326 8.224736 -13.178628 0
M  V30 18 C 12.666300 7.385780 -14.114938 0
M  V30 19 O 13.125167 7.348507 -15.410382 0
M  V30 20 C 13.424858 6.170452 -15.989285 0
M  V30 21 O 13.477547 5.082054 -15.423985 0
M  V30 22 C 13.623158 6.281140 -17.497017 0
M  V30 23 C 12.312998 6.625185 -18.233664 0
M  V30 24 C 11.089661 5.731861 -17.919823 0
M  V30 25 C 11.194487 4.313046 -18.480495 0
M  V30 26 O 10.518780 3.968995 -19.450056 0
M  V30 27 O 12.042410 3.520871 -17.783476 0
M  V30 28 C 12.141456 2.196717 -18.135689 0
M  V30 29 C 13.202869 1.807910 -18.978008 0
M  V30 30 C 13.278271 0.486386 -19.454142 0
M  V30 31 C 12.266545 -0.436468 -19.125546 0
M  V30 32 C 11.210135 -0.050798 -18.275629 0
M  V30 33 C 11.186319 1.237796 -17.696362 0
M  V30 34 C 10.146471 1.514549 -16.680328 0
M  V30 35 C 10.370498 2.369573 -15.575786 0
M  V30 36 C 9.410196 2.565881 -14.568933 0
M  V30 37 C 8.171932 1.910021 -14.632526 0
M  V30 38 C 7.898304 1.028005 -15.689409 0
M  V30 39 C 8.901834 0.835117 -16.676182 0
M  V30 40 C 8.716269 -0.164255 -17.833727 0 CFG=1
M  V30 41 C 10.025095 -0.979783 -18.044725 0
M  V30 42 N 7.509280 -1.028856 -17.712143 0 CFG=2 CHG=1
M  V30 43 C 7.211874 -1.848309 -18.921621 0
M  V30 44 C 7.466763 -3.339922 -18.645893 0
M  V30 45 C 7.241973 -4.207727 -19.886961 0
M  V30 46 C 6.343036 -0.268207 -17.233276 0
M  V30 47 C 6.638372 0.189378 -15.810969 0
M  V30 48 C 11.560718 6.642128 -13.679347 0
M  V30 49 C 10.999744 6.886773 -12.411430 0
M  V30 50 H 10.487269 9.394197 -4.208953 0
M  V30 51 H 11.483239 9.827904 -5.589346 0
M  V30 52 H 11.799190 8.331668 -4.712080 0
M  V30 53 H 9.613738 7.395290 -5.447843 0
M  V30 54 H 9.228098 8.873459 -6.307644 0
M  V30 55 H 11.220073 8.590269 -7.681334 0
M  V30 56 H 11.592752 7.037554 -6.979517 0
M  V30 57 H 10.289811 4.972503 -7.847864 0
M  V30 58 H 9.152009 5.772444 -6.722364 0
M  V30 59 H 8.085911 4.136104 -8.294291 0
M  V30 60 H 7.464797 5.771248 -8.352018 0
M  V30 61 H 6.889614 3.917712 -10.721094 0
M  V30 62 H 7.170212 4.334947 -13.126430 0
M  V30 63 H 9.007314 5.717259 -13.925115 0
M  V30 64 H 11.289603 6.165980 -9.444371 0
M  V30 65 H 10.253350 8.835136 -10.358891 0
M  V30 66 H 11.816404 8.540653 -9.601581 0
M  V30 67 H 13.400599 8.971478 -11.166765 0
M  V30 68 H 14.086311 8.873014 -13.447880 0
M  V30 69 H 14.374597 7.047208 -17.695826 0
M  V30 70 H 14.031240 5.340532 -17.858932 0
M  V30 71 H 12.047826 7.658881 -18.012321 0
M  V30 72 H 12.500322 6.604781 -19.307800 0
M  V30 73 H 10.896348 5.681150 -16.845894 0
M  V30 74 H 10.201385 6.186659 -18.358774 0
M  V30 75 H 13.945038 2.533177 -19.282909 0
M  V30 76 H 14.084914 0.188406 -20.108160 0
M  V30 77 H 12.292562 -1.426220 -19.550369 0
M  V30 78 H 11.319739 2.873455 -15.472242 0
M  V30 79 H 9.646834 3.200122 -13.728359 0
M  V30 80 H 7.440379 2.054109 -13.852109 0
M  V30 81 H 8.563618 0.452602 -18.722143 0
M  V30 82 H 9.950558 -1.655336 -18.897785 0
M  V30 83 H 10.236411 -1.596434 -17.174330 0
M  V30 84 H 6.179177 -1.717899 -19.239483 0
M  V30 85 H 7.809419 -1.516613 -19.769522 0
M  V30 86 H 8.484449 -3.502054 -18.281219 0
M  V30 87 H 6.808980 -3.679792 -17.845318 0
M  V30 88 H 7.416289 -5.260095 -19.661274 0
M  V30 89 H 7.914480 -3.931141 -20.700298 0
M  V30 90 H 6.218400 -4.112858 -20.245770 0
M  V30 91 H 6.144731 0.576754 -17.891739 0
M  V30 92 H 5.454981 -0.898360 -17.227987 0
M  V30 93 H 6.745657 -0.668326 -15.147682 0
M  V30 94 H 5.797495 0.771764 -15.432999 0
M  V30 95 H 11.097142 5.949600 -14.363999 0
M  V30 96 H 9.022962 7.570097 -8.347633 0
M  V30 97 H 7.685050 -1.681972 -16.954443 0
M  V30 END ATOM
M  V30 BEGIN BOND
M  V30 1 1 2 1
M  V30 2 1 3 2
M  V30 3 1 4 3
M  V30 4 1 5 4
M  V30 5 1 6 5
M  V30 6 1 7 6
M  V30 7 1 8 7
M  V30 8 2 9 8
M  V30 9 1 10 9
M  V30 10 2 11 10
M  V30 11 2 12 7
M  V30 12 1 12 11
M  V30 13 1 13 4
M  V30 14 1 13 12
M  V30 15 1 14 13
M  V30 16 1 15 14
M  V30 17 2 16 15
M  V30 18 1 17 16
M  V30 19 2 18 17
M  V30 20 1 19 18
M  V30 21 1 20 19
M  V30 22 2 21 20
M  V30 23 1 22 20
M  V30 24 1 23 22
M  V30 25 1 24 23
M  V30 26 1 25 24
M  V30 27 2 26 25
M  V30 28 1 27 25
M  V30 29 1 28 27
M  V30 30 2 29 28
M  V30 31 1 30 29
M  V30 32 2 31 30
M  V30 33 1 32 31
M  V30 34 1 33 28
M  V30 35 2 33 32
M  V30 36 1 34 33
M  V30 37 2 35 34
M  V30 38 1 36 35
M  V30 39 2 37 36
M  V30 40 1 38 37
M  V30 41 1 39 34
M  V30 42 2 39 38
M  V30 43 1 40 39
M  V30 44 1 41 32
M  V30 45 1 41 40
M  V30 46 1 42 40
M  V30 47 1 43 42
M  V30 48 1 44 43
M  V30 49 1 45 44
M  V30 50 1 46 42
M  V30 51 1 47 38
M  V30 52 1 47 46
M  V30 53 1 48 18
M  V30 54 1 49 11
M  V30 55 1 49 15
M  V30 56 2 49 48
M  V30 57 1 50 1
M  V30 58 1 51 1
M  V30 59 1 52 1
M  V30 60 1 53 2
M  V30 61 1 54 2
M  V30 62 1 55 3
M  V30 63 1 56 3
M  V30 64 1 57 5
M  V30 65 1 58 5
M  V30 66 1 59 6
M  V30 67 1 60 6
M  V30 68 1 61 8
M  V30 69 1 62 9
M  V30 70 1 63 10
M  V30 71 1 13 64 CFG=1
M  V30 72 1 65 14
M  V30 73 1 66 14
M  V30 74 1 67 16
M  V30 75 1 68 17
M  V30 76 1 69 22
M  V30 77 1 70 22
M  V30 78 1 71 23
M  V30 79 1 72 23
M  V30 80 1 73 24
M  V30 81 1 74 24
M  V30 82 1 75 29
M  V30 83 1 76 30
M  V30 84 1 77 31
M  V30 85 1 78 35
M  V30 86 1 79 36
M  V30 87 1 80 37
M  V30 88 1 40 81 CFG=3
M  V30 89 1 82 41
M  V30 90 1 83 41
M  V30 91 1 84 43
M  V30 92 1 85 43
M  V30 93 1 86 44
M  V30 94 1 87 44
M  V30 95 1 88 45
M  V30 96 1 89 45
M  V30 97 1 90 45
M  V30 98 1 91 46
M  V30 99 1 92 46
M  V30 100 1 93 47
M  V30 101 1 94 47
M  V30 102 1 95 48
M  V30 103 1 4 96 CFG=3
M  V30 104 1 42 97 CFG=1
M  V30 END BOND
M  V30 END CTAB
M  END
>  <b_m_subgroup_collapsed>  (2101) 
0

>  <r_i_docking_score>  (2101) 
-6.2389073900709997

>  <s_m_subgroup_title>  (2101) 
glide-dock_SP_D22_pv

>  <s_m_subgroupid>  (2101) 
glide-dock_SP_D22_pv

>  <Molecule ChEMBL ID>  (2101) 
CHEMBL509451

>  <Standard Type>  (2101) 
Ki

>  <Standard Value>  (2101) 
10000.0

>  <label>  (2101) 
0

$$$$
CHEMBL201241
     RDKit          3D

  0  0  0  0  0  0  0  0  0  0999 V3000
M  V30 BEGIN CTAB
M  V30 COUNTS 46 50 0 0 1
M  V30 BEGIN ATOM
M  V30 1 C 10.243004 0.986458 -17.846916 0
M  V30 2 C 10.692842 0.585100 -16.574095 0
M  V30 3 C 9.850376 0.720977 -15.453140 0
M  V30 4 C 8.556334 1.267211 -15.597820 0
M  V30 5 C 7.658603 1.429949 -14.374622 0 CFG=2
M  V30 6 C 6.506687 0.409030 -14.398325 0
M  V30 7 C 5.652843 0.542231 -13.135378 0
M  V30 8 C 5.123433 1.976261 -12.997355 0
M  V30 9 N 6.216121 2.970882 -12.974568 0 CFG=2 CHG=1
M  V30 10 C 5.799771 4.356728 -12.631660 0
M  V30 11 C 7.015779 5.139930 -12.099899 0
M  V30 12 C 8.198688 4.900803 -12.982382 0
M  V30 13 C 8.237192 3.898511 -13.914502 0
M  V30 14 N 9.435551 3.978942 -14.604397 0
M  V30 15 C 10.231143 4.971656 -14.070521 0
M  V30 16 C 11.520718 5.423880 -14.395229 0
M  V30 17 C 12.086914 6.463982 -13.637057 0
M  V30 18 C 11.381540 7.015987 -12.551847 0
M  V30 19 C 10.080326 6.573081 -12.246889 0
M  V30 20 C 9.473664 5.548395 -13.009087 0
M  V30 21 C 7.142941 2.892260 -14.149399 0 CFG=1
M  V30 22 C 8.105367 1.661740 -16.879675 0
M  V30 23 C 8.950071 1.521713 -18.000389 0
M  V30 24 H 10.890082 0.883132 -18.704594 0
M  V30 25 H 11.685683 0.177462 -16.457243 0
M  V30 26 H 10.210876 0.407043 -14.483698 0
M  V30 27 H 8.281828 1.165182 -13.521596 0
M  V30 28 H 5.887424 0.561802 -15.283601 0
M  V30 29 H 6.902314 -0.605017 -14.468724 0
M  V30 30 H 4.815794 -0.152059 -13.195753 0
M  V30 31 H 6.227434 0.255452 -12.252705 0
M  V30 32 H 4.488914 2.171059 -13.843357 0
M  V30 33 H 4.513619 2.068949 -12.098319 0
M  V30 34 H 5.380326 4.834403 -13.520087 0
M  V30 35 H 5.021470 4.351860 -11.868073 0
M  V30 36 H 6.782012 6.202216 -12.042759 0
M  V30 37 H 7.254662 4.825202 -11.082006 0
M  V30 38 H 9.691419 3.346687 -15.352088 0
M  V30 39 H 12.070032 4.978685 -15.209772 0
M  V30 40 H 13.080989 6.817953 -13.864694 0
M  V30 41 H 11.841877 7.787043 -11.951953 0
M  V30 42 H 9.533507 7.020006 -11.429255 0
M  V30 43 H 6.562719 3.194309 -15.022276 0
M  V30 44 H 7.113851 2.069638 -17.011358 0
M  V30 45 H 8.607120 1.824534 -18.977827 0
M  V30 46 H 6.785375 2.701092 -12.186460 0
M  V30 END ATOM
M  V30 BEGIN BOND
M  V30 1 2 2 1
M  V30 2 1 3 2
M  V30 3 2 4 3
M  V30 4 1 5 4
M  V30 5 1 6 5
M  V30 6 1 7 6
M  V30 7 1 8 7
M  V30 8 1 9 8
M  V30 9 1 10 9
M  V30 10 1 11 10
M  V30 11 1 12 11
M  V30 12 2 13 12
M  V30 13 1 14 13
M  V30 14 1 15 14
M  V30 15 2 16 15
M  V30 16 1 17 16
M  V30 17 2 18 17
M  V30 18 1 19 18
M  V30 19 1 20 12
M  V30 20 1 20 15
M  V30 21 2 20 19
M  V30 22 1 21 5
M  V30 23 1 21 9
M  V30 24 1 21 13
M  V30 25 1 22 4
M  V30 26 1 23 1
M  V30 27 2 23 22
M  V30 28 1 24 1
M  V30 29 1 25 2
M  V30 30 1 26 3
M  V30 31 1 5 27 CFG=1
M  V30 32 1 28 6
M  V30 33 1 29 6
M  V30 34 1 30 7
M  V30 35 1 31 7
M  V30 36 1 32 8
M  V30 37 1 33 8
M  V30 38 1 34 10
M  V30 39 1 35 10
M  V30 40 1 36 11
M  V30 41 1 37 11
M  V30 42 1 38 14
M  V30 43 1 39 16
M  V30 44 1 40 17
M  V30 45 1 41 18
M  V30 46 1 42 19
M  V30 47 1 21 43 CFG=3
M  V30 48 1 44 22
M  V30 49 1 45 23
M  V30 50 1 9 46 CFG=1
M  V30 END BOND
M  V30 END CTAB
M  END
>  <b_m_subgroup_collapsed>  (2102) 
0

>  <r_i_docking_score>  (2102) 
-6.2372642293082201

>  <s_m_subgroup_title>  (2102) 
glide-dock_SP_D22_pv

>  <s_m_subgroupid>  (2102) 
glide-dock_SP_D22_pv

>  <Molecule ChEMBL ID>  (2102) 
CHEMBL201241

>  <Standard Type>  (2102) 
Ki

>  <Standard Value>  (2102) 
10000.0

>  <label>  (2102) 
0

$$$$
CHEMBL2031874
     RDKit          3D

  0  0  0  0  0  0  0  0  0  0999 V3000
M  V30 BEGIN CTAB
M  V30 COUNTS 59 62 0 0 1
M  V30 BEGIN ATOM
M  V30 1 C 12.556003 8.438612 -8.690703 0
M  V30 2 N 11.431499 8.792329 -7.822537 0
M  V30 3 C 11.760242 9.626892 -6.660681 0
M  V30 4 C 10.168936 8.327880 -7.985921 0
M  V30 5 O 9.278847 8.570414 -7.169886 0
M  V30 6 C 9.858873 7.439968 -9.164930 0
M  V30 7 C 10.094432 7.848612 -10.499815 0
M  V30 8 C 9.744540 7.009726 -11.581011 0
M  V30 9 C 9.121476 5.761174 -11.359173 0
M  V30 10 C 8.703420 4.876240 -12.466953 0
M  V30 11 C 9.597300 4.483556 -13.488725 0
M  V30 12 C 9.216710 3.527008 -14.458016 0
M  V30 13 C 7.933317 2.933006 -14.419962 0
M  V30 14 C 7.020613 3.372258 -13.441153 0
M  V30 15 C 7.398987 4.339768 -12.487062 0
M  V30 16 C 5.685951 2.677344 -13.300931 0
M  V30 17 C 5.758194 1.215510 -13.790012 0
M  V30 18 N 6.486206 1.050021 -15.068453 0
M  V30 19 C 6.068757 -0.006336 -16.029976 0
M  V30 20 C 4.875238 -0.923711 -15.627200 0
M  V30 21 N 4.474115 -1.944824 -16.639780 0 CHG=1
M  V30 22 C 3.868218 -1.438740 -17.884394 0
M  V30 23 C 3.807816 -2.659656 -18.805174 0
M  V30 24 C 4.896873 -3.615962 -18.287708 0
M  V30 25 C 5.484045 -2.939829 -17.044619 0
M  V30 26 C 7.538568 1.850839 -15.398466 0
M  V30 27 O 8.172174 1.717862 -16.447515 0
M  V30 28 C 8.886239 5.367799 -10.022472 0
M  V30 29 C 9.247149 6.190296 -8.940104 0
M  V30 30 H 12.557549 7.372670 -8.908247 0
M  V30 31 H 12.486840 8.973757 -9.636497 0
M  V30 32 H 13.524374 8.675653 -8.250768 0
M  V30 33 H 11.142066 10.524171 -6.641053 0
M  V30 34 H 11.582684 9.078424 -5.735891 0
M  V30 35 H 12.800961 9.952755 -6.646962 0
M  V30 36 H 10.527028 8.816158 -10.706875 0
M  V30 37 H 9.925694 7.343970 -12.590764 0
M  V30 38 H 10.600560 4.881837 -13.505726 0
M  V30 39 H 9.934365 3.223907 -15.206716 0
M  V30 40 H 6.700481 4.624080 -11.710220 0
M  V30 41 H 5.369079 2.692742 -12.257461 0
M  V30 42 H 4.942609 3.251391 -13.846749 0
M  V30 43 H 6.294091 0.619053 -13.048666 0
M  V30 44 H 4.740595 0.835284 -13.810904 0
M  V30 45 H 5.836216 0.488819 -16.973253 0
M  V30 46 H 6.945230 -0.628533 -16.214792 0
M  V30 47 H 5.110307 -1.445848 -14.698410 0
M  V30 48 H 3.984798 -0.321541 -15.440271 0
M  V30 49 H 2.886011 -1.005489 -17.706656 0
M  V30 50 H 4.504115 -0.677148 -18.340088 0
M  V30 51 H 2.831290 -3.143630 -18.721220 0
M  V30 52 H 3.954001 -2.391453 -19.852942 0
M  V30 53 H 4.448895 -4.575292 -18.022190 0
M  V30 54 H 5.665718 -3.809129 -19.040304 0
M  V30 55 H 6.418362 -2.454069 -17.324451 0
M  V30 56 H 5.688410 -3.650312 -16.242826 0
M  V30 57 H 8.400990 4.425689 -9.818041 0
M  V30 58 H 9.029239 5.867212 -7.933388 0
M  V30 59 H 3.737112 -2.512694 -16.233437 0
M  V30 END ATOM
M  V30 BEGIN BOND
M  V30 1 1 2 1
M  V30 2 1 3 2
M  V30 3 1 4 2
M  V30 4 2 5 4
M  V30 5 1 6 4
M  V30 6 1 7 6
M  V30 7 2 8 7
M  V30 8 1 9 8
M  V30 9 1 10 9
M  V30 10 1 11 10
M  V30 11 2 12 11
M  V30 12 1 13 12
M  V30 13 2 14 13
M  V30 14 2 15 10
M  V30 15 1 15 14
M  V30 16 1 16 14
M  V30 17 1 17 16
M  V30 18 1 18 17
M  V30 19 1 19 18
M  V30 20 1 20 19
M  V30 21 1 21 20
M  V30 22 1 22 21
M  V30 23 1 23 22
M  V30 24 1 24 23
M  V30 25 1 25 21
M  V30 26 1 25 24
M  V30 27 1 26 13
M  V30 28 1 26 18
M  V30 29 2 27 26
M  V30 30 2 28 9
M  V30 31 2 29 6
M  V30 32 1 29 28
M  V30 33 1 30 1
M  V30 34 1 31 1
M  V30 35 1 32 1
M  V30 36 1 33 3
M  V30 37 1 34 3
M  V30 38 1 35 3
M  V30 39 1 36 7
M  V30 40 1 37 8
M  V30 41 1 38 11
M  V30 42 1 39 12
M  V30 43 1 40 15
M  V30 44 1 41 16
M  V30 45 1 42 16
M  V30 46 1 43 17
M  V30 47 1 44 17
M  V30 48 1 45 19
M  V30 49 1 46 19
M  V30 50 1 47 20
M  V30 51 1 48 20
M  V30 52 1 49 22
M  V30 53 1 50 22
M  V30 54 1 51 23
M  V30 55 1 52 23
M  V30 56 1 53 24
M  V30 57 1 54 24
M  V30 58 1 55 25
M  V30 59 1 56 25
M  V30 60 1 57 28
M  V30 61 1 58 29
M  V30 62 1 59 21
M  V30 END BOND
M  V30 END CTAB
M  END
>  <b_m_subgroup_collapsed>  (2103) 
0

>  <r_i_docking_score>  (2103) 
-6.2321996370474499

>  <s_m_subgroup_title>  (2103) 
glide-dock_SP_D22_pv

>  <s_m_subgroupid>  (2103) 
glide-dock_SP_D22_pv

>  <Molecule ChEMBL ID>  (2103) 
CHEMBL2031874

>  <Standard Type>  (2103) 
Ki

>  <Standard Value>  (2103) 
10000.0

>  <label>  (2103) 
0

$$$$
CHEMBL3799120
     RDKit          3D

  0  0  0  0  0  0  0  0  0  0999 V3000
M  V30 BEGIN CTAB
M  V30 COUNTS 58 61 0 0 1
M  V30 BEGIN ATOM
M  V30 1 C 11.421828 6.206582 -18.206301 0
M  V30 2 C 11.014204 4.734488 -18.358789 0
M  V30 3 C 9.498262 4.520575 -18.230457 0
M  V30 4 S 11.986282 3.640287 -17.210405 0
M  V30 5 O 13.422980 3.860361 -17.442156 0
M  V30 6 O 11.416933 2.283195 -17.185818 0
M  V30 7 N 11.644908 4.350756 -15.673295 0
M  V30 8 C 12.492983 5.239939 -15.025665 0
M  V30 9 C 11.926934 5.647549 -13.847178 0
M  V30 10 C 10.652175 4.996152 -13.755490 0
M  V30 11 C 9.568449 4.989421 -12.841370 0
M  V30 12 C 9.600851 5.785478 -11.597200 0
M  V30 13 C 9.207161 5.204792 -10.369462 0
M  V30 14 C 9.280310 5.929443 -9.163517 0
M  V30 15 C 9.743880 7.260158 -9.163219 0
M  V30 16 C 9.847682 8.055738 -7.870986 0
M  V30 17 F 9.730074 7.276266 -6.796356 0
M  V30 18 F 11.028104 8.673748 -7.813010 0
M  V30 19 F 8.886689 8.971894 -7.845387 0
M  V30 20 C 10.114695 7.859195 -10.384350 0
M  V30 21 C 10.044785 7.126400 -11.587313 0
M  V30 22 C 8.457688 4.162378 -13.125560 0
M  V30 23 C 8.449627 3.324360 -14.270124 0
M  V30 24 N 7.387988 2.421608 -14.551704 0
M  V30 25 C 7.284238 1.746131 -15.851908 0
M  V30 26 C 6.969604 0.251514 -15.671943 0
M  V30 27 N 5.767542 0.064002 -14.826570 0 CHG=1
M  V30 28 C 5.355680 -1.355114 -14.723139 0
M  V30 29 C 5.915852 0.719280 -13.503575 0
M  V30 30 C 6.264228 2.217475 -13.637033 0
M  V30 31 N 9.461313 3.336302 -15.162980 0
M  V30 32 C 10.514773 4.155096 -14.892207 0
M  V30 33 H 10.936752 6.828658 -18.959921 0
M  V30 34 H 11.141224 6.594349 -17.226727 0
M  V30 35 H 12.498294 6.330354 -18.319571 0
M  V30 36 H 11.303555 4.409388 -19.357986 0
M  V30 37 H 8.967080 5.033581 -19.033243 0
M  V30 38 H 9.237509 3.463171 -18.280428 0
M  V30 39 H 9.117712 4.916047 -17.289040 0
M  V30 40 H 13.448199 5.510993 -15.458499 0
M  V30 41 H 12.355630 6.335310 -13.130879 0
M  V30 42 H 8.860121 4.182611 -10.340057 0
M  V30 43 H 8.977155 5.456621 -8.240696 0
M  V30 44 H 10.460449 8.881980 -10.400552 0
M  V30 45 H 10.337535 7.605250 -12.511613 0
M  V30 46 H 7.629985 4.195251 -12.434431 0
M  V30 47 H 6.487741 2.227346 -16.422562 0
M  V30 48 H 8.180357 1.824678 -16.464705 0
M  V30 49 H 6.813348 -0.207948 -16.647573 0
M  V30 50 H 7.822410 -0.255405 -15.214343 0
M  V30 51 H 6.078920 -1.933340 -14.145063 0
M  V30 52 H 4.383654 -1.431153 -14.235637 0
M  V30 53 H 5.267922 -1.813721 -15.709671 0
M  V30 54 H 4.997302 0.607306 -12.927957 0
M  V30 55 H 6.702887 0.202892 -12.949140 0
M  V30 56 H 6.469576 2.593592 -12.639513 0
M  V30 57 H 5.405111 2.779523 -14.006362 0
M  V30 58 H 5.013991 0.540990 -15.302621 0
M  V30 END ATOM
M  V30 BEGIN BOND
M  V30 1 1 2 1
M  V30 2 1 3 2
M  V30 3 1 4 2
M  V30 4 2 5 4
M  V30 5 2 6 4
M  V30 6 1 7 4
M  V30 7 1 8 7
M  V30 8 2 9 8
M  V30 9 1 10 9
M  V30 10 2 11 10
M  V30 11 1 12 11
M  V30 12 1 13 12
M  V30 13 2 14 13
M  V30 14 1 15 14
M  V30 15 1 16 15
M  V30 16 1 17 16
M  V30 17 1 18 16
M  V30 18 1 19 16
M  V30 19 2 20 15
M  V30 20 2 21 12
M  V30 21 1 21 20
M  V30 22 1 22 11
M  V30 23 2 23 22
M  V30 24 1 24 23
M  V30 25 1 25 24
M  V30 26 1 26 25
M  V30 27 1 27 26
M  V30 28 1 28 27
M  V30 29 1 29 27
M  V30 30 1 30 24
M  V30 31 1 30 29
M  V30 32 1 31 23
M  V30 33 1 32 7
M  V30 34 1 32 10
M  V30 35 2 32 31
M  V30 36 1 33 1
M  V30 37 1 34 1
M  V30 38 1 35 1
M  V30 39 1 36 2
M  V30 40 1 37 3
M  V30 41 1 38 3
M  V30 42 1 39 3
M  V30 43 1 40 8
M  V30 44 1 41 9
M  V30 45 1 42 13
M  V30 46 1 43 14
M  V30 47 1 44 20
M  V30 48 1 45 21
M  V30 49 1 46 22
M  V30 50 1 47 25
M  V30 51 1 48 25
M  V30 52 1 49 26
M  V30 53 1 50 26
M  V30 54 1 51 28
M  V30 55 1 52 28
M  V30 56 1 53 28
M  V30 57 1 54 29
M  V30 58 1 55 29
M  V30 59 1 56 30
M  V30 60 1 57 30
M  V30 61 1 58 27
M  V30 END BOND
M  V30 END CTAB
M  END
>  <b_m_subgroup_collapsed>  (2104) 
0

>  <r_i_docking_score>  (2104) 
-6.22529419263648

>  <s_m_subgroup_title>  (2104) 
glide-dock_SP_D22_pv

>  <s_m_subgroupid>  (2104) 
glide-dock_SP_D22_pv

>  <Molecule ChEMBL ID>  (2104) 
CHEMBL3799120

>  <Standard Type>  (2104) 
Ki

>  <Standard Value>  (2104) 
25.0

>  <label>  (2104) 
1

$$$$
CHEMBL22022
     RDKit          3D

  0  0  0  0  0  0  0  0  0  0999 V3000
M  V30 BEGIN CTAB
M  V30 COUNTS 58 60 0 0 1
M  V30 BEGIN ATOM
M  V30 1 C 11.774811 2.406551 -17.335279 0
M  V30 2 C 10.498710 1.630257 -17.691347 0
M  V30 3 S 9.784436 0.699061 -16.263371 0
M  V30 4 O 10.885923 0.172569 -15.447788 0
M  V30 5 O 8.787652 -0.226691 -16.821730 0
M  V30 6 C 8.916327 1.899090 -15.255160 0
M  V30 7 C 7.532428 1.765412 -15.061705 0
M  V30 8 C 6.856045 2.685921 -14.246467 0
M  V30 9 C 7.539930 3.772174 -13.644663 0
M  V30 10 O 6.882811 4.694190 -12.854828 0
M  V30 11 C 5.595546 4.375327 -12.358329 0
M  V30 12 C 8.940731 3.923883 -13.865153 0
M  V30 13 C 9.725567 5.039219 -13.314308 0
M  V30 14 C 11.039855 5.404701 -13.447270 0
M  V30 15 C 11.260972 6.578183 -12.660918 0
M  V30 16 C 10.072755 6.939766 -12.087712 0
M  V30 17 C 9.690680 8.088211 -11.195477 0 CFG=1
M  V30 18 C 8.596056 8.942794 -11.868588 0
M  V30 19 N 9.285240 7.707251 -9.807246 0 CHG=1
M  V30 20 C 9.741976 6.365884 -9.344055 0
M  V30 21 C 9.429451 6.052292 -7.875625 0
M  V30 22 C 10.545096 6.488997 -6.909241 0
M  V30 23 C 10.688468 8.002237 -6.736909 0
M  V30 24 C 10.809286 8.765633 -8.060646 0
M  V30 25 C 9.476042 8.817021 -8.831033 0
M  V30 26 N 9.156086 5.999239 -12.504737 0
M  V30 27 C 9.616095 2.953789 -14.641244 0
M  V30 28 H 12.270492 2.761503 -18.237896 0
M  V30 29 H 11.562509 3.287764 -16.732172 0
M  V30 30 H 12.487309 1.779447 -16.795815 0
M  V30 31 H 10.738235 0.889762 -18.455204 0
M  V30 32 H 9.726899 2.283979 -18.100348 0
M  V30 33 H 6.986403 0.950592 -15.517734 0
M  V30 34 H 5.794746 2.541551 -14.109665 0
M  V30 35 H 5.290090 5.146020 -11.651586 0
M  V30 36 H 4.857201 4.350385 -13.160098 0
M  V30 37 H 5.594008 3.419184 -11.829316 0
M  V30 38 H 11.782318 4.880188 -14.029720 0
M  V30 39 H 12.194763 7.111420 -12.547942 0
M  V30 40 H 10.584622 8.704118 -11.088053 0
M  V30 41 H 8.948586 9.358814 -12.811105 0
M  V30 42 H 7.705803 8.352832 -12.088144 0
M  V30 43 H 8.273618 9.770919 -11.240687 0
M  V30 44 H 9.219508 5.613358 -9.933719 0
M  V30 45 H 10.808387 6.235054 -9.537301 0
M  V30 46 H 8.459259 6.451042 -7.572240 0
M  V30 47 H 9.329857 4.967460 -7.826950 0
M  V30 48 H 10.350284 6.073688 -5.920748 0
M  V30 49 H 11.495875 6.062564 -7.232820 0
M  V30 50 H 9.841678 8.387648 -6.166424 0
M  V30 51 H 11.572240 8.201987 -6.129542 0
M  V30 52 H 11.104369 9.780194 -7.806066 0
M  V30 53 H 11.623053 8.379010 -8.677127 0
M  V30 54 H 9.411042 9.772203 -9.345312 0
M  V30 55 H 8.634935 8.819330 -8.135812 0
M  V30 56 H 8.172272 5.988709 -12.259219 0
M  V30 57 H 10.683423 3.017649 -14.766793 0
M  V30 58 H 8.270757 7.619424 -9.872470 0
M  V30 END ATOM
M  V30 BEGIN BOND
M  V30 1 1 2 1
M  V30 2 1 3 2
M  V30 3 2 4 3
M  V30 4 2 5 3
M  V30 5 1 6 3
M  V30 6 1 7 6
M  V30 7 2 8 7
M  V30 8 1 9 8
M  V30 9 1 10 9
M  V30 10 1 11 10
M  V30 11 2 12 9
M  V30 12 1 13 12
M  V30 13 2 14 13
M  V30 14 1 15 14
M  V30 15 2 16 15
M  V30 16 1 17 16
M  V30 17 1 18 17
M  V30 18 1 19 17
M  V30 19 1 20 19
M  V30 20 1 21 20
M  V30 21 1 22 21
M  V30 22 1 23 22
M  V30 23 1 24 23
M  V30 24 1 25 19
M  V30 25 1 25 24
M  V30 26 1 26 13
M  V30 27 1 26 16
M  V30 28 2 27 6
M  V30 29 1 27 12
M  V30 30 1 28 1
M  V30 31 1 29 1
M  V30 32 1 30 1
M  V30 33 1 31 2
M  V30 34 1 32 2
M  V30 35 1 33 7
M  V30 36 1 34 8
M  V30 37 1 35 11
M  V30 38 1 36 11
M  V30 39 1 37 11
M  V30 40 1 38 14
M  V30 41 1 39 15
M  V30 42 1 17 40 CFG=1
M  V30 43 1 41 18
M  V30 44 1 42 18
M  V30 45 1 43 18
M  V30 46 1 44 20
M  V30 47 1 45 20
M  V30 48 1 46 21
M  V30 49 1 47 21
M  V30 50 1 48 22
M  V30 51 1 49 22
M  V30 52 1 50 23
M  V30 53 1 51 23
M  V30 54 1 52 24
M  V30 55 1 53 24
M  V30 56 1 54 25
M  V30 57 1 55 25
M  V30 58 1 56 26
M  V30 59 1 57 27
M  V30 60 1 58 19
M  V30 END BOND
M  V30 END CTAB
M  END
>  <b_m_subgroup_collapsed>  (2105) 
0

>  <r_i_docking_score>  (2105) 
-6.22420869642038

>  <s_m_subgroup_title>  (2105) 
glide-dock_SP_D22_pv

>  <s_m_subgroupid>  (2105) 
glide-dock_SP_D22_pv

>  <Molecule ChEMBL ID>  (2105) 
CHEMBL22022

>  <Standard Type>  (2105) 
Ki

>  <Standard Value>  (2105) 
79.43

>  <label>  (2105) 
1

$$$$
CHEMBL3753266
     RDKit          3D

  0  0  0  0  0  0  0  0  0  0999 V3000
M  V30 BEGIN CTAB
M  V30 COUNTS 44 47 0 0 1
M  V30 BEGIN ATOM
M  V30 1 C 9.507135 4.383471 -18.310852 0
M  V30 2 N 10.453669 3.719266 -17.381580 0 CFG=2 CHG=1
M  V30 3 C 11.795910 3.552821 -18.002335 0
M  V30 4 C 12.946530 3.835279 -17.023165 0
M  V30 5 C 12.901502 5.254298 -16.469288 0
M  V30 6 C 13.288015 6.295089 -17.342888 0
M  V30 7 C 13.279849 7.633708 -16.917988 0
M  V30 8 C 12.885327 7.944433 -15.606565 0
M  V30 9 C 12.492811 6.919730 -14.727703 0
M  V30 10 C 12.499288 5.569346 -15.139750 0
M  V30 11 C 12.128500 4.522723 -14.094358 0
M  V30 12 C 10.654156 4.335985 -13.908606 0
M  V30 13 S 9.823967 5.426458 -12.837313 0
M  V30 14 C 8.311843 4.582329 -13.061434 0
M  V30 15 C 7.072954 4.872176 -12.457935 0
M  V30 16 C 5.958158 4.064832 -12.734578 0
M  V30 17 C 6.086005 2.985218 -13.624936 0
M  V30 18 C 7.320503 2.714718 -14.245050 0
M  V30 19 C 8.476155 3.486320 -13.967237 0
M  V30 20 C 9.843961 3.349147 -14.437516 0
M  V30 21 C 10.292630 2.235682 -15.345896 0
M  V30 22 C 9.891564 2.462514 -16.813566 0
M  V30 23 H 9.358711 3.784764 -19.212555 0
M  V30 24 H 9.884273 5.364637 -18.608717 0
M  V30 25 H 8.534206 4.546395 -17.846909 0
M  V30 26 H 11.901704 2.558080 -18.438444 0
M  V30 27 H 11.901386 4.242588 -18.843084 0
M  V30 28 H 12.990311 3.074054 -16.253126 0
M  V30 29 H 13.887196 3.721030 -17.562193 0
M  V30 30 H 13.599559 6.069927 -18.351843 0
M  V30 31 H 13.576283 8.423156 -17.593111 0
M  V30 32 H 12.886073 8.970019 -15.272913 0
M  V30 33 H 12.207122 7.177203 -13.718295 0
M  V30 34 H 12.607861 3.572978 -14.280960 0
M  V30 35 H 12.562970 4.843154 -13.145338 0
M  V30 36 H 6.982816 5.702582 -11.767771 0
M  V30 37 H 5.012122 4.267100 -12.255458 0
M  V30 38 H 5.233086 2.355710 -13.831923 0
M  V30 39 H 7.392886 1.871505 -14.913365 0
M  V30 40 H 11.359567 2.046657 -15.261839 0
M  V30 41 H 9.838366 1.301771 -15.012539 0
M  V30 42 H 8.801578 2.498576 -16.852646 0
M  V30 43 H 10.172419 1.602482 -17.424860 0
M  V30 44 H 10.561734 4.363178 -16.606544 0
M  V30 END ATOM
M  V30 BEGIN BOND
M  V30 1 1 2 1
M  V30 2 1 3 2
M  V30 3 1 4 3
M  V30 4 1 5 4
M  V30 5 2 6 5
M  V30 6 1 7 6
M  V30 7 2 8 7
M  V30 8 1 9 8
M  V30 9 1 10 5
M  V30 10 2 10 9
M  V30 11 1 11 10
M  V30 12 1 12 11
M  V30 13 1 13 12
M  V30 14 1 14 13
M  V30 15 2 15 14
M  V30 16 1 16 15
M  V30 17 2 17 16
M  V30 18 1 18 17
M  V30 19 1 19 14
M  V30 20 2 19 18
M  V30 21 2 20 12
M  V30 22 1 20 19
M  V30 23 1 21 20
M  V30 24 1 22 2
M  V30 25 1 22 21
M  V30 26 1 23 1
M  V30 27 1 24 1
M  V30 28 1 25 1
M  V30 29 1 26 3
M  V30 30 1 27 3
M  V30 31 1 28 4
M  V30 32 1 29 4
M  V30 33 1 30 6
M  V30 34 1 31 7
M  V30 35 1 32 8
M  V30 36 1 33 9
M  V30 37 1 34 11
M  V30 38 1 35 11
M  V30 39 1 36 15
M  V30 40 1 37 16
M  V30 41 1 38 17
M  V30 42 1 39 18
M  V30 43 1 40 21
M  V30 44 1 41 21
M  V30 45 1 42 22
M  V30 46 1 43 22
M  V30 47 1 2 44 CFG=1
M  V30 END BOND
M  V30 END CTAB
M  END
>  <b_m_subgroup_collapsed>  (2106) 
0

>  <r_i_docking_score>  (2106) 
-6.2230908200908601

>  <s_m_subgroup_title>  (2106) 
glide-dock_SP_D22_pv

>  <s_m_subgroupid>  (2106) 
glide-dock_SP_D22_pv

>  <Molecule ChEMBL ID>  (2106) 
CHEMBL3753266

>  <Standard Type>  (2106) 
Ki

>  <Standard Value>  (2106) 
1.5

>  <label>  (2106) 
1

$$$$
CHEMBL4085752
     RDKit          3D

  0  0  0  0  0  0  0  0  0  0999 V3000
M  V30 BEGIN CTAB
M  V30 COUNTS 63 67 0 0 1
M  V30 BEGIN ATOM
M  V30 1 O 12.361373 6.172436 -2.161600 0
M  V30 2 N 12.348729 7.335405 -2.976815 0
M  V30 3 C 11.686059 7.089409 -4.025579 0
M  V30 4 C 11.548373 8.067004 -5.107854 0
M  V30 5 C 12.086092 9.373310 -5.105498 0
M  V30 6 N 11.925783 10.002226 -6.246762 0
M  V30 7 N 11.286301 9.083240 -7.043238 0
M  V30 8 C 10.982047 9.256420 -8.353080 0
M  V30 9 C 10.301284 8.280889 -9.021692 0
M  V30 10 C 9.919906 7.078140 -8.363632 0
M  V30 11 O 9.217496 6.080335 -8.994561 0
M  V30 12 C 9.026517 6.216457 -10.399343 0
M  V30 13 C 8.215130 5.030832 -10.893760 0
M  V30 14 C 8.389166 4.741060 -12.392743 0
M  V30 15 C 9.728519 4.041474 -12.703560 0
M  V30 16 N 10.148367 4.268950 -14.083114 0
M  V30 17 C 11.554029 3.878332 -14.240063 0
M  V30 18 C 12.040154 4.221765 -15.663161 0
M  V30 19 N 11.192148 3.568813 -16.653360 0
M  V30 20 C 11.719898 2.512701 -17.420580 0
M  V30 21 C 12.877754 2.768191 -18.189192 0
M  V30 22 C 13.446876 1.768181 -18.998089 0
M  V30 23 C 12.862103 0.491427 -19.048866 0
M  V30 24 O 13.417179 -0.480887 -19.832483 0
M  V30 25 C 11.702106 0.216218 -18.296907 0
M  V30 26 C 11.140200 1.215915 -17.455288 0
M  V30 27 O 10.045557 0.922329 -16.669106 0
M  V30 28 C 9.749709 -0.459784 -16.520779 0
M  V30 29 C 9.809596 -1.129336 -17.898216 0
M  V30 30 O 11.136498 -1.034189 -18.392340 0
M  V30 31 C 9.758948 3.774459 -16.467981 0
M  V30 32 C 9.342175 3.470393 -15.012631 0
M  V30 33 C 10.270710 6.884051 -7.043624 0
M  V30 34 C 10.984045 7.896314 -6.343658 0
M  V30 35 H 11.734440 5.601160 -2.583626 0
M  V30 36 H 11.197628 6.122726 -4.179928 0
M  V30 37 H 12.627625 9.850245 -4.300375 0
M  V30 38 H 11.285865 10.172590 -8.831897 0
M  V30 39 H 10.059067 8.473047 -10.060494 0
M  V30 40 H 8.486709 7.128937 -10.652449 0
M  V30 41 H 10.000194 6.252368 -10.888082 0
M  V30 42 H 8.500950 4.172450 -10.305113 0
M  V30 43 H 7.173040 5.229517 -10.661556 0
M  V30 44 H 7.567297 4.112487 -12.735255 0
M  V30 45 H 8.306240 5.679213 -12.944432 0
M  V30 46 H 10.485657 4.460573 -12.045753 0
M  V30 47 H 9.685619 2.975621 -12.473091 0
M  V30 48 H 12.171732 4.413124 -13.516933 0
M  V30 49 H 11.680205 2.811879 -14.042498 0
M  V30 50 H 12.003103 5.300270 -15.824909 0
M  V30 51 H 13.081015 3.921201 -15.776798 0
M  V30 52 H 13.331322 3.748712 -18.168720 0
M  V30 53 H 14.330878 1.988968 -19.577597 0
M  V30 54 H 14.194140 -0.201687 -20.291553 0
M  V30 55 H 10.455082 -0.919356 -15.826320 0
M  V30 56 H 8.755034 -0.564415 -16.087679 0
M  V30 57 H 9.530301 -2.181322 -17.837206 0
M  V30 58 H 9.116831 -0.651751 -18.593727 0
M  V30 59 H 9.533646 4.816171 -16.700859 0
M  V30 60 H 9.182137 3.174885 -17.171469 0
M  V30 61 H 9.456762 2.409374 -14.787528 0
M  V30 62 H 8.285128 3.704737 -14.891215 0
M  V30 63 H 10.004942 5.963815 -6.537673 0
M  V30 END ATOM
M  V30 BEGIN BOND
M  V30 1 1 2 1
M  V30 2 2 3 2
M  V30 3 1 4 3
M  V30 4 1 5 4
M  V30 5 2 6 5
M  V30 6 1 7 6
M  V30 7 1 8 7
M  V30 8 2 9 8
M  V30 9 1 10 9
M  V30 10 1 11 10
M  V30 11 1 12 11
M  V30 12 1 13 12
M  V30 13 1 14 13
M  V30 14 1 15 14
M  V30 15 1 16 15
M  V30 16 1 17 16
M  V30 17 1 18 17
M  V30 18 1 19 18
M  V30 19 1 20 19
M  V30 20 1 21 20
M  V30 21 2 22 21
M  V30 22 1 23 22
M  V30 23 1 24 23
M  V30 24 2 25 23
M  V30 25 2 26 20
M  V30 26 1 26 25
M  V30 27 1 27 26
M  V30 28 1 28 27
M  V30 29 1 29 28
M  V30 30 1 30 25
M  V30 31 1 30 29
M  V30 32 1 31 19
M  V30 33 1 32 16
M  V30 34 1 32 31
M  V30 35 2 33 10
M  V30 36 2 34 4
M  V30 37 1 34 7
M  V30 38 1 34 33
M  V30 39 1 35 1
M  V30 40 1 36 3
M  V30 41 1 37 5
M  V30 42 1 38 8
M  V30 43 1 39 9
M  V30 44 1 40 12
M  V30 45 1 41 12
M  V30 46 1 42 13
M  V30 47 1 43 13
M  V30 48 1 44 14
M  V30 49 1 45 14
M  V30 50 1 46 15
M  V30 51 1 47 15
M  V30 52 1 48 17
M  V30 53 1 49 17
M  V30 54 1 50 18
M  V30 55 1 51 18
M  V30 56 1 52 21
M  V30 57 1 53 22
M  V30 58 1 54 24
M  V30 59 1 55 28
M  V30 60 1 56 28
M  V30 61 1 57 29
M  V30 62 1 58 29
M  V30 63 1 59 31
M  V30 64 1 60 31
M  V30 65 1 61 32
M  V30 66 1 62 32
M  V30 67 1 63 33
M  V30 END BOND
M  V30 END CTAB
M  END
>  <b_m_subgroup_collapsed>  (2107) 
0

>  <r_i_docking_score>  (2107) 
-6.2228151550198598

>  <s_m_subgroup_title>  (2107) 
glide-dock_SP_D22_pv

>  <s_m_subgroupid>  (2107) 
glide-dock_SP_D22_pv

>  <Molecule ChEMBL ID>  (2107) 
CHEMBL4085752

>  <Standard Type>  (2107) 
Ki

>  <Standard Value>  (2107) 
16.0

>  <label>  (2107) 
1

$$$$
CHEMBL255229
     RDKit          3D

  0  0  0  0  0  0  0  0  0  0999 V3000
M  V30 BEGIN CTAB
M  V30 COUNTS 48 51 0 0 1
M  V30 BEGIN ATOM
M  V30 1 C 13.180732 8.389750 -16.830956 0
M  V30 2 C 13.195671 6.898369 -16.477724 0
M  V30 3 C 11.773594 6.306656 -16.433210 0
M  V30 4 N 11.774607 4.823844 -16.286001 0 CFG=2 CHG=1
M  V30 5 C 12.124578 4.178048 -17.570244 0
M  V30 6 C 12.425927 2.715643 -17.318960 0
M  V30 7 C 11.279349 1.961676 -16.683641 0
M  V30 8 C 11.110835 0.573685 -16.783722 0
M  V30 9 C 10.097519 -0.054769 -16.052044 0
M  V30 10 C 9.237878 0.705626 -15.242152 0
M  V30 11 C 9.295663 2.121602 -15.160147 0
M  V30 12 C 10.369861 2.709797 -15.883992 0
M  V30 13 C 10.498181 4.249128 -15.752533 0 CFG=1
M  V30 14 C 10.202689 4.668138 -14.285577 0
M  V30 15 C 8.829563 4.180462 -13.858766 0
M  V30 16 C 8.017555 4.997873 -13.044080 0
M  V30 17 C 6.701858 4.610187 -12.747003 0
M  V30 18 C 6.193860 3.413138 -13.278447 0
M  V30 19 C 7.009522 2.562505 -14.063246 0
M  V30 20 O 6.487539 1.405397 -14.598292 0
M  V30 21 C 5.811245 0.496544 -13.849354 0
M  V30 22 C 5.380004 -0.714085 -14.663115 0
M  V30 23 O 5.546092 0.575909 -12.647923 0
M  V30 24 C 8.357898 2.937724 -14.343842 0
M  V30 25 H 14.186927 8.756129 -17.031090 0
M  V30 26 H 12.746608 8.986349 -16.026566 0
M  V30 27 H 12.597647 8.573257 -17.736013 0
M  V30 28 H 13.821371 6.393523 -17.211475 0
M  V30 29 H 13.683344 6.755099 -15.511037 0
M  V30 30 H 11.279224 6.795534 -15.599558 0
M  V30 31 H 11.207375 6.577057 -17.325968 0
M  V30 32 H 11.304000 4.284218 -18.285238 0
M  V30 33 H 12.999468 4.629587 -18.034113 0
M  V30 34 H 12.699431 2.227342 -18.256689 0
M  V30 35 H 13.285365 2.626467 -16.653389 0
M  V30 36 H 11.793818 -0.012239 -17.380642 0
M  V30 37 H 9.994362 -1.125755 -16.091347 0
M  V30 38 H 8.515813 0.153410 -14.666644 0
M  V30 39 H 9.700843 4.656512 -16.377371 0
M  V30 40 H 10.945318 4.235132 -13.612227 0
M  V30 41 H 10.237597 5.744959 -14.134622 0
M  V30 42 H 8.387627 5.940759 -12.666686 0
M  V30 43 H 6.078466 5.242553 -12.132156 0
M  V30 44 H 5.167940 3.150906 -13.071457 0
M  V30 45 H 4.640494 -0.429767 -15.414192 0
M  V30 46 H 4.941859 -1.474469 -14.015656 0
M  V30 47 H 6.238976 -1.153550 -15.172853 0
M  V30 48 H 12.497766 4.586853 -15.622607 0
M  V30 END ATOM
M  V30 BEGIN BOND
M  V30 1 1 2 1
M  V30 2 1 3 2
M  V30 3 1 4 3
M  V30 4 1 5 4
M  V30 5 1 6 5
M  V30 6 1 7 6
M  V30 7 1 8 7
M  V30 8 2 9 8
M  V30 9 1 10 9
M  V30 10 2 11 10
M  V30 11 2 12 7
M  V30 12 1 12 11
M  V30 13 1 13 4
M  V30 14 1 13 12
M  V30 15 1 14 13
M  V30 16 1 15 14
M  V30 17 1 16 15
M  V30 18 2 17 16
M  V30 19 1 18 17
M  V30 20 2 19 18
M  V30 21 1 20 19
M  V30 22 1 21 20
M  V30 23 1 22 21
M  V30 24 2 23 21
M  V30 25 1 24 11
M  V30 26 2 24 15
M  V30 27 1 24 19
M  V30 28 1 25 1
M  V30 29 1 26 1
M  V30 30 1 27 1
M  V30 31 1 28 2
M  V30 32 1 29 2
M  V30 33 1 30 3
M  V30 34 1 31 3
M  V30 35 1 32 5
M  V30 36 1 33 5
M  V30 37 1 34 6
M  V30 38 1 35 6
M  V30 39 1 36 8
M  V30 40 1 37 9
M  V30 41 1 38 10
M  V30 42 1 13 39 CFG=3
M  V30 43 1 40 14
M  V30 44 1 41 14
M  V30 45 1 42 16
M  V30 46 1 43 17
M  V30 47 1 44 18
M  V30 48 1 45 22
M  V30 49 1 46 22
M  V30 50 1 47 22
M  V30 51 1 4 48 CFG=1
M  V30 END BOND
M  V30 END CTAB
M  END
>  <b_m_subgroup_collapsed>  (2108) 
0

>  <r_i_docking_score>  (2108) 
-6.2200931824090899

>  <s_m_subgroup_title>  (2108) 
glide-dock_SP_D22_pv

>  <s_m_subgroupid>  (2108) 
glide-dock_SP_D22_pv

>  <Molecule ChEMBL ID>  (2108) 
CHEMBL255229

>  <Standard Type>  (2108) 
Ki

>  <Standard Value>  (2108) 
72.3

>  <label>  (2108) 
1

$$$$
CHEMBL1077189
     RDKit          3D

  0  0  0  0  0  0  0  0  0  0999 V3000
M  V30 BEGIN CTAB
M  V30 COUNTS 36 40 0 0 1
M  V30 BEGIN ATOM
M  V30 1 C 10.860046 8.076519 -6.747474 0
M  V30 2 C 11.144001 8.970553 -7.793616 0
M  V30 3 C 10.712548 8.693406 -9.108193 0
M  V30 4 C 9.998932 7.505883 -9.388924 0
M  V30 5 C 9.713749 6.615434 -8.324327 0
M  V30 6 C 10.139239 6.901432 -7.012317 0
M  V30 7 C 8.899053 5.365859 -8.585510 0
M  V30 8 C 8.889028 4.971629 -10.064131 0
M  V30 9 N 8.500596 6.140542 -10.835428 0
M  V30 10 C 8.081151 5.796523 -12.197750 0
M  V30 11 C 9.225874 5.392646 -13.119907 0
M  V30 12 C 9.214293 4.533724 -14.235909 0
M  V30 13 C 10.387496 4.397995 -15.003098 0
M  V30 14 C 11.536819 5.139894 -14.661222 0
M  V30 15 C 11.531678 5.991980 -13.567575 0
M  V30 16 N 12.485542 6.815096 -13.042644 0
M  V30 17 C 12.018093 7.431771 -11.888999 0
M  V30 18 C 10.726403 6.995075 -11.747907 0
M  V30 19 C 10.392999 6.103544 -12.791772 0
M  V30 20 C 9.540356 7.183051 -10.821454 0 CFG=2
M  V30 21 H 11.190117 8.295509 -5.742440 0
M  V30 22 H 11.685767 9.875867 -7.574457 0
M  V30 23 H 10.937227 9.392905 -9.899006 0
M  V30 24 H 9.905326 6.222653 -6.205069 0
M  V30 25 H 9.285780 4.544292 -7.986379 0
M  V30 26 H 7.881692 5.553832 -8.244168 0
M  V30 27 H 9.864134 4.600931 -10.385310 0
M  V30 28 H 8.162882 4.172303 -10.209221 0
M  V30 29 H 7.334500 5.002860 -12.165344 0
M  V30 30 H 7.586438 6.667293 -12.631603 0
M  V30 31 H 8.318720 3.992588 -14.501411 0
M  V30 32 H 10.403472 3.737037 -15.859259 0
M  V30 33 H 12.429408 5.045508 -15.261634 0
M  V30 34 H 13.439214 6.878987 -13.378768 0
M  V30 35 H 12.618119 8.107905 -11.296130 0
M  V30 36 H 9.015619 8.079801 -11.155753 0
M  V30 END ATOM
M  V30 BEGIN BOND
M  V30 1 2 2 1
M  V30 2 1 3 2
M  V30 3 2 4 3
M  V30 4 1 5 4
M  V30 5 1 6 1
M  V30 6 2 6 5
M  V30 7 1 7 5
M  V30 8 1 8 7
M  V30 9 1 9 8
M  V30 10 1 10 9
M  V30 11 1 11 10
M  V30 12 1 12 11
M  V30 13 2 13 12
M  V30 14 1 14 13
M  V30 15 2 15 14
M  V30 16 1 16 15
M  V30 17 1 17 16
M  V30 18 2 18 17
M  V30 19 2 19 11
M  V30 20 1 19 15
M  V30 21 1 19 18
M  V30 22 1 20 4
M  V30 23 1 20 9
M  V30 24 1 20 18
M  V30 25 1 21 1
M  V30 26 1 22 2
M  V30 27 1 23 3
M  V30 28 1 24 6
M  V30 29 1 25 7
M  V30 30 1 26 7
M  V30 31 1 27 8
M  V30 32 1 28 8
M  V30 33 1 29 10
M  V30 34 1 30 10
M  V30 35 1 31 12
M  V30 36 1 32 13
M  V30 37 1 33 14
M  V30 38 1 34 16
M  V30 39 1 35 17
M  V30 40 1 20 36 CFG=3
M  V30 END BOND
M  V30 END CTAB
M  END
>  <b_m_subgroup_collapsed>  (2109) 
0

>  <r_i_docking_score>  (2109) 
-6.2197593544236396

>  <s_m_subgroup_title>  (2109) 
glide-dock_SP_D22_pv

>  <s_m_subgroupid>  (2109) 
glide-dock_SP_D22_pv

>  <Molecule ChEMBL ID>  (2109) 
CHEMBL1077189

>  <Standard Type>  (2109) 
Ki

>  <Standard Value>  (2109) 
10000.0

>  <label>  (2109) 
0

$$$$
CHEMBL34291
     RDKit          3D

  0  0  0  0  0  0  0  0  0  0999 V3000
M  V30 BEGIN CTAB
M  V30 COUNTS 45 47 0 0 1
M  V30 BEGIN ATOM
M  V30 1 C 6.005718 4.558919 -12.971695 0
M  V30 2 O 7.385238 4.626928 -13.311565 0
M  V30 3 C 8.005503 3.519381 -13.858876 0
M  V30 4 C 7.261218 2.382109 -14.266977 0
M  V30 5 C 7.890664 1.267264 -14.850677 0
M  V30 6 N 7.119002 0.171207 -15.229085 0
M  V30 7 C 9.285293 1.275487 -15.046647 0
M  V30 8 Cl 10.086846 -0.060820 -15.796470 0
M  V30 9 C 10.037052 2.391439 -14.646013 0
M  V30 10 C 9.428486 3.518228 -14.045898 0
M  V30 11 C 10.320548 4.670080 -13.646823 0
M  V30 12 O 11.490941 4.746092 -14.024325 0
M  V30 13 N 9.780448 5.571671 -12.824664 0
M  V30 14 C 10.401326 6.765147 -12.273141 0
M  V30 15 C 9.530584 7.244897 -11.100625 0 CFG=2
M  V30 16 C 9.981997 8.580006 -10.447657 0
M  V30 17 C 9.840133 8.401855 -8.914905 0
M  V30 18 N 9.069152 7.157749 -8.818384 0 CFG=2 CHG=1
M  V30 19 C 9.044069 6.300753 -7.628612 0
M  V30 20 C 8.647354 4.931561 -8.224016 0
M  V30 21 C 8.683743 5.076462 -9.761551 0
M  V30 22 C 9.554059 6.313291 -9.894092 0 CFG=1
M  V30 23 H 5.721233 5.472306 -12.453122 0
M  V30 24 H 5.374078 4.473778 -13.855215 0
M  V30 25 H 5.809325 3.723284 -12.300700 0
M  V30 26 H 6.194154 2.340904 -14.140018 0
M  V30 27 H 7.558203 -0.716909 -15.460639 0
M  V30 28 H 6.145263 0.105653 -14.967830 0
M  V30 29 H 11.105587 2.367890 -14.805099 0
M  V30 30 H 8.801644 5.424355 -12.607125 0
M  V30 31 H 11.419873 6.571224 -11.935840 0
M  V30 32 H 10.485939 7.527342 -13.046250 0
M  V30 33 H 8.495799 7.357507 -11.427211 0
M  V30 34 H 11.006967 8.852285 -10.706468 0
M  V30 35 H 9.315354 9.372207 -10.788094 0
M  V30 36 H 10.816945 8.282782 -8.443738 0
M  V30 37 H 9.311124 9.226864 -8.430415 0
M  V30 38 H 10.030760 6.239385 -7.168443 0
M  V30 39 H 8.331605 6.667796 -6.885636 0
M  V30 40 H 9.285474 4.132087 -7.891669 0
M  V30 41 H 7.685155 4.633583 -7.854774 0
M  V30 42 H 9.102269 4.203020 -10.266242 0
M  V30 43 H 7.687459 5.266154 -10.164742 0
M  V30 44 H 10.587738 6.033593 -9.676766 0
M  V30 45 H 8.099476 7.372240 -9.050755 0
M  V30 END ATOM
M  V30 BEGIN BOND
M  V30 1 1 2 1
M  V30 2 1 3 2
M  V30 3 1 4 3
M  V30 4 2 5 4
M  V30 5 1 6 5
M  V30 6 1 7 5
M  V30 7 1 8 7
M  V30 8 2 9 7
M  V30 9 2 10 3
M  V30 10 1 10 9
M  V30 11 1 11 10
M  V30 12 2 12 11
M  V30 13 1 13 11
M  V30 14 1 14 13
M  V30 15 1 15 14
M  V30 16 1 16 15
M  V30 17 1 17 16
M  V30 18 1 18 17
M  V30 19 1 19 18
M  V30 20 1 20 19
M  V30 21 1 21 20
M  V30 22 1 22 15
M  V30 23 1 22 18
M  V30 24 1 22 21
M  V30 25 1 23 1
M  V30 26 1 24 1
M  V30 27 1 25 1
M  V30 28 1 26 4
M  V30 29 1 27 6
M  V30 30 1 28 6
M  V30 31 1 29 9
M  V30 32 1 30 13
M  V30 33 1 31 14
M  V30 34 1 32 14
M  V30 35 1 15 33 CFG=3
M  V30 36 1 34 16
M  V30 37 1 35 16
M  V30 38 1 36 17
M  V30 39 1 37 17
M  V30 40 1 38 19
M  V30 41 1 39 19
M  V30 42 1 40 20
M  V30 43 1 41 20
M  V30 44 1 42 21
M  V30 45 1 43 21
M  V30 46 1 22 44 CFG=1
M  V30 47 1 18 45 CFG=3
M  V30 END BOND
M  V30 END CTAB
M  END
>  <b_m_subgroup_collapsed>  (2110) 
0

>  <r_i_docking_score>  (2110) 
-6.2192534497871002

>  <s_m_subgroup_title>  (2110) 
glide-dock_SP_D22_pv

>  <s_m_subgroupid>  (2110) 
glide-dock_SP_D22_pv

>  <Molecule ChEMBL ID>  (2110) 
CHEMBL34291

>  <Standard Type>  (2110) 
Ki

>  <Standard Value>  (2110) 
10000.0

>  <label>  (2110) 
0

$$$$
CHEMBL85882
     RDKit          3D

  0  0  0  0  0  0  0  0  0  0999 V3000
M  V30 BEGIN CTAB
M  V30 COUNTS 32 34 0 0 1
M  V30 BEGIN ATOM
M  V30 1 N 6.463332 5.772318 -11.846845 0 CHG=1
M  V30 2 C 7.672534 5.739503 -12.689836 0
M  V30 3 C 8.912086 5.112436 -12.011644 0 CFG=2
M  V30 4 C 9.285852 5.822805 -10.712331 0
M  V30 5 C 8.775561 5.375409 -9.475511 0
M  V30 6 C 9.098324 6.056751 -8.285846 0
M  V30 7 C 9.948177 7.177430 -8.321896 0
M  V30 8 C 10.485044 7.612125 -9.547842 0
M  V30 9 C 10.161390 6.932879 -10.740856 0
M  V30 10 C 10.780241 7.372316 -12.053333 0
M  V30 11 C 10.947095 6.233305 -13.046348 0
M  V30 12 C 11.976339 6.290227 -14.005835 0
M  V30 13 C 12.136488 5.242604 -14.929082 0
M  V30 14 Br 13.486896 5.372193 -16.262003 0
M  V30 15 C 11.288739 4.118581 -14.872457 0
M  V30 16 C 10.257820 4.058027 -13.912132 0
M  V30 17 C 10.071624 5.123693 -13.004478 0
M  V30 18 H 5.656384 6.004638 -12.405081 0
M  V30 19 H 6.552956 6.504653 -11.131570 0
M  V30 20 H 7.433856 5.174024 -13.590958 0
M  V30 21 H 7.887204 6.760822 -13.007366 0
M  V30 22 H 8.697751 4.070319 -11.768620 0
M  V30 23 H 8.117956 4.520387 -9.431247 0
M  V30 24 H 8.679870 5.731048 -7.345306 0
M  V30 25 H 10.189291 7.700902 -7.408539 0
M  V30 26 H 11.148018 8.465159 -9.568176 0
M  V30 27 H 10.150858 8.147988 -12.492177 0
M  V30 28 H 11.757283 7.813623 -11.852447 0
M  V30 29 H 12.640540 7.141838 -14.045240 0
M  V30 30 H 11.419840 3.308859 -15.575275 0
M  V30 31 H 9.602585 3.199210 -13.885786 0
M  V30 32 H 6.316983 4.892010 -11.371496 0
M  V30 END ATOM
M  V30 BEGIN BOND
M  V30 1 1 2 1
M  V30 2 1 3 2
M  V30 3 1 4 3
M  V30 4 2 5 4
M  V30 5 1 6 5
M  V30 6 2 7 6
M  V30 7 1 8 7
M  V30 8 1 9 4
M  V30 9 2 9 8
M  V30 10 1 10 9
M  V30 11 1 11 10
M  V30 12 1 12 11
M  V30 13 2 13 12
M  V30 14 1 14 13
M  V30 15 1 15 13
M  V30 16 2 16 15
M  V30 17 1 17 3
M  V30 18 2 17 11
M  V30 19 1 17 16
M  V30 20 1 18 1
M  V30 21 1 19 1
M  V30 22 1 20 2
M  V30 23 1 21 2
M  V30 24 1 3 22 CFG=1
M  V30 25 1 23 5
M  V30 26 1 24 6
M  V30 27 1 25 7
M  V30 28 1 26 8
M  V30 29 1 27 10
M  V30 30 1 28 10
M  V30 31 1 29 12
M  V30 32 1 30 15
M  V30 33 1 31 16
M  V30 34 1 32 1
M  V30 END BOND
M  V30 END CTAB
M  END
>  <b_m_subgroup_collapsed>  (2111) 
0

>  <r_i_docking_score>  (2111) 
-6.2177185460518496

>  <s_m_subgroup_title>  (2111) 
glide-dock_SP_D22_pv

>  <s_m_subgroupid>  (2111) 
glide-dock_SP_D22_pv

>  <Molecule ChEMBL ID>  (2111) 
CHEMBL85882

>  <Standard Type>  (2111) 
Ki

>  <Standard Value>  (2111) 
10000.0

>  <label>  (2111) 
0

$$$$
CHEMBL1087300
     RDKit          3D

  0  0  0  0  0  0  0  0  0  0999 V3000
M  V30 BEGIN CTAB
M  V30 COUNTS 45 48 0 0 1
M  V30 BEGIN ATOM
M  V30 1 C 13.746501 5.426875 -16.972403 0
M  V30 2 N 12.332832 5.242994 -16.576155 0 CFG=2 CHG=1
M  V30 3 C 11.422567 5.087794 -17.741920 0
M  V30 4 C 10.004328 4.586010 -17.371647 0
M  V30 5 C 10.003861 3.402363 -16.403231 0
M  V30 6 C 10.499399 2.176492 -16.896236 0
M  V30 7 C 10.538034 1.033300 -16.083366 0
M  V30 8 C 10.096310 1.111900 -14.753561 0
M  V30 9 C 9.605354 2.327457 -14.245562 0
M  V30 10 C 9.534636 3.481393 -15.055254 0
M  V30 11 C 8.904469 4.753071 -14.472919 0
M  V30 12 C 9.008531 5.048275 -12.998568 0
M  V30 13 C 8.058323 4.915620 -12.021595 0
M  V30 14 N 8.457850 5.755793 -11.011236 0
M  V30 15 C 9.640969 6.353053 -11.325596 0
M  V30 16 C 10.356058 7.278350 -10.587164 0
M  V30 17 C 11.569831 7.798139 -11.056837 0
M  V30 18 C 12.059778 7.366324 -12.297321 0
M  V30 19 C 11.343750 6.405847 -13.046252 0
M  V30 20 C 10.085420 5.912116 -12.576937 0
M  V30 21 C 11.963547 5.597707 -14.171615 0
M  V30 22 C 11.892719 6.236088 -15.565257 0
M  V30 23 H 13.879036 6.358299 -17.525660 0
M  V30 24 H 14.084407 4.602407 -17.600679 0
M  V30 25 H 14.393968 5.454836 -16.093754 0
M  V30 26 H 11.360115 6.024371 -18.297783 0
M  V30 27 H 11.871490 4.362562 -18.421694 0
M  V30 28 H 9.374076 5.404653 -17.043659 0
M  V30 29 H 9.516554 4.251917 -18.288145 0
M  V30 30 H 10.846235 2.103218 -17.918083 0
M  V30 31 H 10.910436 0.099759 -16.475740 0
M  V30 32 H 10.130600 0.235392 -14.124197 0
M  V30 33 H 9.279130 2.361626 -13.218718 0
M  V30 34 H 9.170618 5.642392 -15.020126 0
M  V30 35 H 7.838953 4.634439 -14.646721 0
M  V30 36 H 7.095913 4.420861 -12.009147 0
M  V30 37 H 7.871683 6.011581 -10.224062 0
M  V30 38 H 9.968326 7.603853 -9.633948 0
M  V30 39 H 12.125280 8.516088 -10.468262 0
M  V30 40 H 13.025954 7.708245 -12.636804 0
M  V30 41 H 13.012892 5.466670 -13.918617 0
M  V30 42 H 11.587304 4.581651 -14.156198 0
M  V30 43 H 12.504684 7.137184 -15.602212 0
M  V30 44 H 10.887560 6.573339 -15.783476 0
M  V30 45 H 12.291802 4.347899 -16.105984 0
M  V30 END ATOM
M  V30 BEGIN BOND
M  V30 1 1 2 1
M  V30 2 1 3 2
M  V30 3 1 4 3
M  V30 4 1 5 4
M  V30 5 2 6 5
M  V30 6 1 7 6
M  V30 7 2 8 7
M  V30 8 1 9 8
M  V30 9 1 10 5
M  V30 10 2 10 9
M  V30 11 1 11 10
M  V30 12 1 12 11
M  V30 13 2 13 12
M  V30 14 1 14 13
M  V30 15 1 15 14
M  V30 16 2 16 15
M  V30 17 1 17 16
M  V30 18 2 18 17
M  V30 19 1 19 18
M  V30 20 1 20 12
M  V30 21 1 20 15
M  V30 22 2 20 19
M  V30 23 1 21 19
M  V30 24 1 22 2
M  V30 25 1 22 21
M  V30 26 1 23 1
M  V30 27 1 24 1
M  V30 28 1 25 1
M  V30 29 1 26 3
M  V30 30 1 27 3
M  V30 31 1 28 4
M  V30 32 1 29 4
M  V30 33 1 30 6
M  V30 34 1 31 7
M  V30 35 1 32 8
M  V30 36 1 33 9
M  V30 37 1 34 11
M  V30 38 1 35 11
M  V30 39 1 36 13
M  V30 40 1 37 14
M  V30 41 1 38 16
M  V30 42 1 39 17
M  V30 43 1 40 18
M  V30 44 1 41 21
M  V30 45 1 42 21
M  V30 46 1 43 22
M  V30 47 1 44 22
M  V30 48 1 2 45 CFG=1
M  V30 END BOND
M  V30 END CTAB
M  END
>  <b_m_subgroup_collapsed>  (2112) 
0

>  <r_i_docking_score>  (2112) 
-6.2167086228612103

>  <s_m_subgroup_title>  (2112) 
glide-dock_SP_D22_pv

>  <s_m_subgroupid>  (2112) 
glide-dock_SP_D22_pv

>  <Molecule ChEMBL ID>  (2112) 
CHEMBL1087300

>  <Standard Type>  (2112) 
Ki

>  <Standard Value>  (2112) 
4.0

>  <label>  (2112) 
1

$$$$
CHEMBL5909593
     RDKit          3D

  0  0  0  0  0  0  0  0  0  0999 V3000
M  V30 BEGIN CTAB
M  V30 COUNTS 56 57 0 0 1
M  V30 BEGIN ATOM
M  V30 1 C 12.622519 7.629064 -2.846175 0
M  V30 2 O 12.485951 8.366964 -4.045177 0
M  V30 3 C 11.620018 7.746099 -4.981471 0
M  V30 4 C 11.235217 8.743002 -6.101669 0
M  V30 5 C 10.856715 10.108780 -5.475051 0
M  V30 6 C 12.392133 8.973089 -7.084577 0
M  V30 7 C 10.067944 8.194381 -6.946527 0
M  V30 8 O 9.286101 8.972084 -7.491488 0
M  V30 9 N 9.998715 6.864861 -7.138905 0
M  V30 10 C 9.071901 6.244707 -8.074682 0
M  V30 11 C 9.518197 6.499181 -9.525698 0
M  V30 12 N 8.486027 6.172262 -10.538001 0 CFG=2 CHG=1
M  V30 13 C 8.217783 4.715003 -10.682693 0
M  V30 14 C 7.126014 4.438886 -11.739313 0
M  V30 15 C 7.506495 4.990413 -13.120549 0 CFG=2
M  V30 16 C 8.608748 4.180603 -13.819694 0
M  V30 17 C 9.840895 4.731018 -14.244295 0
M  V30 18 C 10.784739 3.892759 -14.867239 0
M  V30 19 C 10.469227 2.536523 -15.055957 0
M  V30 20 C 9.206203 2.082076 -14.632595 0
M  V30 21 C 8.820831 0.626523 -14.792448 0
M  V30 22 N 8.292387 2.887588 -14.048736 0
M  V30 23 C 7.779153 6.492611 -12.918687 0
M  V30 24 C 8.823141 6.802909 -11.834174 0
M  V30 25 H 13.283991 8.172356 -2.171398 0
M  V30 26 H 11.662823 7.505211 -2.342314 0
M  V30 27 H 13.050426 6.643986 -3.036370 0
M  V30 28 H 10.720664 7.404139 -4.479437 0
M  V30 29 H 12.085809 6.846727 -5.383833 0
M  V30 30 H 11.715185 10.571074 -4.993274 0
M  V30 31 H 10.505365 10.824526 -6.217312 0
M  V30 32 H 10.086585 10.014775 -4.713647 0
M  V30 33 H 13.274232 9.372333 -6.584625 0
M  V30 34 H 12.672599 8.063724 -7.615812 0
M  V30 35 H 12.086005 9.684790 -7.846458 0
M  V30 36 H 10.658181 6.265514 -6.664933 0
M  V30 37 H 8.086031 6.656146 -7.898417 0
M  V30 38 H 9.014492 5.177488 -7.860363 0
M  V30 39 H 10.435928 5.948821 -9.738296 0
M  V30 40 H 9.767272 7.554458 -9.641174 0
M  V30 41 H 7.908704 4.297080 -9.726246 0
M  V30 42 H 9.139366 4.200764 -10.960733 0
M  V30 43 H 6.194713 4.922949 -11.446850 0
M  V30 44 H 6.886066 3.378547 -11.790527 0
M  V30 45 H 6.632658 4.899755 -13.767197 0
M  V30 46 H 10.083164 5.772276 -14.126521 0
M  V30 47 H 11.736603 4.284580 -15.194408 0
M  V30 48 H 11.177805 1.864209 -15.517719 0
M  V30 49 H 7.820125 0.431931 -14.405121 0
M  V30 50 H 8.842926 0.340038 -15.844497 0
M  V30 51 H 9.524044 -0.004622 -14.249018 0
M  V30 52 H 8.085552 6.941838 -13.846859 0
M  V30 53 H 6.845610 6.987372 -12.643497 0
M  V30 54 H 8.874166 7.885316 -11.705324 0
M  V30 55 H 9.820391 6.482183 -12.130131 0
M  V30 56 H 7.620953 6.642139 -10.246881 0
M  V30 END ATOM
M  V30 BEGIN BOND
M  V30 1 1 2 1
M  V30 2 1 3 2
M  V30 3 1 4 3
M  V30 4 1 5 4
M  V30 5 1 6 4
M  V30 6 1 7 4
M  V30 7 2 8 7
M  V30 8 1 9 7
M  V30 9 1 10 9
M  V30 10 1 11 10
M  V30 11 1 12 11
M  V30 12 1 13 12
M  V30 13 1 14 13
M  V30 14 1 15 14
M  V30 15 1 16 15
M  V30 16 2 17 16
M  V30 17 1 18 17
M  V30 18 2 19 18
M  V30 19 1 20 19
M  V30 20 1 21 20
M  V30 21 1 22 16
M  V30 22 2 22 20
M  V30 23 1 23 15
M  V30 24 1 24 12
M  V30 25 1 24 23
M  V30 26 1 25 1
M  V30 27 1 26 1
M  V30 28 1 27 1
M  V30 29 1 28 3
M  V30 30 1 29 3
M  V30 31 1 30 5
M  V30 32 1 31 5
M  V30 33 1 32 5
M  V30 34 1 33 6
M  V30 35 1 34 6
M  V30 36 1 35 6
M  V30 37 1 36 9
M  V30 38 1 37 10
M  V30 39 1 38 10
M  V30 40 1 39 11
M  V30 41 1 40 11
M  V30 42 1 41 13
M  V30 43 1 42 13
M  V30 44 1 43 14
M  V30 45 1 44 14
M  V30 46 1 15 45 CFG=3
M  V30 47 1 46 17
M  V30 48 1 47 18
M  V30 49 1 48 19
M  V30 50 1 49 21
M  V30 51 1 50 21
M  V30 52 1 51 21
M  V30 53 1 52 23
M  V30 54 1 53 23
M  V30 55 1 54 24
M  V30 56 1 55 24
M  V30 57 1 12 56 CFG=1
M  V30 END BOND
M  V30 END CTAB
M  END
>  <b_m_subgroup_collapsed>  (2113) 
0

>  <r_i_docking_score>  (2113) 
-6.2156558382304103

>  <s_m_subgroup_title>  (2113) 
glide-dock_SP_D22_pv

>  <s_m_subgroupid>  (2113) 
glide-dock_SP_D22_pv

>  <Molecule ChEMBL ID>  (2113) 
CHEMBL5909593

>  <Standard Type>  (2113) 
Ki

>  <Standard Value>  (2113) 
80.0

>  <label>  (2113) 
1

$$$$
CHEMBL5420316
     RDKit          3D

  0  0  0  0  0  0  0  0  0  0999 V3000
M  V30 BEGIN CTAB
M  V30 COUNTS 59 61 0 0 1
M  V30 BEGIN ATOM
M  V30 1 C 7.056339 0.166810 -15.161695 0
M  V30 2 N 8.245722 0.558443 -15.925045 0
M  V30 3 C 8.270741 0.014635 -17.282738 0
M  V30 4 C 9.407844 0.892401 -15.317517 0
M  V30 5 O 10.469682 0.331107 -15.597651 0
M  V30 6 N 9.368009 1.983289 -14.512864 0
M  V30 7 C 10.574619 2.537405 -13.903016 0
M  V30 8 C 10.087838 3.549080 -12.869650 0
M  V30 9 C 8.756800 4.047117 -13.413078 0 CFG=2
M  V30 10 O 8.999507 5.095014 -14.326653 0
M  V30 11 C 7.753426 4.567278 -12.357773 0
M  V30 12 C 8.188498 5.776241 -11.508948 0
M  V30 13 C 9.113733 5.461762 -10.321385 0
M  V30 14 N 9.268823 6.645586 -9.433667 0 CHG=1
M  V30 15 C 8.704127 6.424892 -8.082704 0
M  V30 16 C 8.751526 7.724699 -7.254084 0
M  V30 17 N 10.096979 8.289548 -7.206941 0
M  V30 18 C 10.851398 7.977862 -6.060225 0
M  V30 19 C 11.193775 6.649704 -5.765742 0
M  V30 20 C 11.785842 6.352562 -4.531773 0
M  V30 21 C 12.085554 7.314623 -3.579606 0
M  V30 22 C 11.783195 8.633256 -3.876365 0
M  V30 23 Cl 12.086021 9.772341 -2.647080 0
M  V30 24 C 11.202543 8.971938 -5.116324 0
M  V30 25 Cl 10.886030 10.606268 -5.450023 0
M  V30 26 C 10.783453 8.428664 -8.487406 0
M  V30 27 C 10.664104 7.156214 -9.357693 0
M  V30 28 C 8.218438 2.846528 -14.209898 0
M  V30 29 H 7.281356 -0.005140 -14.107456 0
M  V30 30 H 6.289768 0.938981 -15.231033 0
M  V30 31 H 6.625347 -0.759544 -15.544516 0
M  V30 32 H 8.953806 0.577689 -17.921108 0
M  V30 33 H 8.594037 -1.027091 -17.275719 0
M  V30 34 H 7.281809 0.061195 -17.741247 0
M  V30 35 H 11.209915 1.772879 -13.453428 0
M  V30 36 H 11.158489 3.037901 -14.677003 0
M  V30 37 H 10.812806 4.346452 -12.705276 0
M  V30 38 H 9.932472 3.034861 -11.921093 0
M  V30 39 H 8.178299 5.362597 -14.707839 0
M  V30 40 H 6.834354 4.841602 -12.878366 0
M  V30 41 H 7.458112 3.772264 -11.678063 0
M  V30 42 H 8.607510 6.566525 -12.132648 0
M  V30 43 H 7.268844 6.172257 -11.092895 0
M  V30 44 H 8.708148 4.616982 -9.761607 0
M  V30 45 H 10.086063 5.134526 -10.679195 0
M  V30 46 H 7.686032 6.060710 -8.169728 0
M  V30 47 H 9.243722 5.620896 -7.587652 0
M  V30 48 H 8.086230 8.471582 -7.688104 0
M  V30 49 H 8.380537 7.540288 -6.246932 0
M  V30 50 H 11.006556 5.846877 -6.458652 0
M  V30 51 H 12.085970 5.372376 -4.288037 0
M  V30 52 H 12.537195 7.041146 -2.637099 0
M  V30 53 H 10.339924 9.275106 -9.013203 0
M  V30 54 H 11.833261 8.680563 -8.328744 0
M  V30 55 H 11.286018 6.372332 -8.929844 0
M  V30 56 H 11.043727 7.356593 -10.360511 0
M  V30 57 H 7.509342 2.291602 -13.598381 0
M  V30 58 H 7.686912 3.146909 -15.110012 0
M  V30 59 H 8.690516 7.372904 -9.839489 0
M  V30 END ATOM
M  V30 BEGIN BOND
M  V30 1 1 2 1
M  V30 2 1 3 2
M  V30 3 1 4 2
M  V30 4 2 5 4
M  V30 5 1 6 4
M  V30 6 1 7 6
M  V30 7 1 8 7
M  V30 8 1 9 8
M  V30 9 1 9 10 CFG=3
M  V30 10 1 11 9
M  V30 11 1 12 11
M  V30 12 1 13 12
M  V30 13 1 14 13
M  V30 14 1 15 14
M  V30 15 1 16 15
M  V30 16 1 17 16
M  V30 17 1 18 17
M  V30 18 2 19 18
M  V30 19 1 20 19
M  V30 20 2 21 20
M  V30 21 1 22 21
M  V30 22 1 23 22
M  V30 23 1 24 18
M  V30 24 2 24 22
M  V30 25 1 25 24
M  V30 26 1 26 17
M  V30 27 1 27 14
M  V30 28 1 27 26
M  V30 29 1 28 6
M  V30 30 1 28 9
M  V30 31 1 29 1
M  V30 32 1 30 1
M  V30 33 1 31 1
M  V30 34 1 32 3
M  V30 35 1 33 3
M  V30 36 1 34 3
M  V30 37 1 35 7
M  V30 38 1 36 7
M  V30 39 1 37 8
M  V30 40 1 38 8
M  V30 41 1 39 10
M  V30 42 1 40 11
M  V30 43 1 41 11
M  V30 44 1 42 12
M  V30 45 1 43 12
M  V30 46 1 44 13
M  V30 47 1 45 13
M  V30 48 1 46 15
M  V30 49 1 47 15
M  V30 50 1 48 16
M  V30 51 1 49 16
M  V30 52 1 50 19
M  V30 53 1 51 20
M  V30 54 1 52 21
M  V30 55 1 53 26
M  V30 56 1 54 26
M  V30 57 1 55 27
M  V30 58 1 56 27
M  V30 59 1 57 28
M  V30 60 1 58 28
M  V30 61 1 59 14
M  V30 END BOND
M  V30 END CTAB
M  END
>  <b_m_subgroup_collapsed>  (2114) 
0

>  <r_i_docking_score>  (2114) 
-6.2149517073640101

>  <s_m_subgroup_title>  (2114) 
glide-dock_SP_D22_pv

>  <s_m_subgroupid>  (2114) 
glide-dock_SP_D22_pv

>  <Molecule ChEMBL ID>  (2114) 
CHEMBL5420316

>  <Standard Type>  (2114) 
Ki

>  <Standard Value>  (2114) 
89.8

>  <label>  (2114) 
1

$$$$
CHEMBL596866
     RDKit          3D

  0  0  0  0  0  0  0  0  0  0999 V3000
M  V30 BEGIN CTAB
M  V30 COUNTS 53 56 0 0 1
M  V30 BEGIN ATOM
M  V30 1 C 9.062853 8.968599 -9.103771 0
M  V30 2 C 9.756843 8.359428 -10.076497 0
M  V30 3 C 11.139037 7.795090 -9.791218 0
M  V30 4 C 9.196210 8.241666 -11.496168 0
M  V30 5 C 9.401777 6.908949 -12.216523 0
M  V30 6 C 10.699348 6.572463 -12.646875 0
M  V30 7 C 10.935166 5.371752 -13.323028 0
M  V30 8 C 9.879900 4.473100 -13.546228 0
M  V30 9 C 8.550385 4.786172 -13.166540 0
M  V30 10 C 8.318488 6.044014 -12.527039 0
M  V30 11 O 7.043190 6.455578 -12.246913 0
M  V30 12 C 7.510380 3.743509 -13.423397 0
M  V30 13 C 6.288384 3.661952 -12.700986 0
M  V30 14 C 5.389476 2.588992 -12.825526 0
M  V30 15 C 5.686190 1.508176 -13.661183 0
M  V30 16 C 6.860324 1.529186 -14.425287 0
M  V30 17 C 7.735315 2.646665 -14.309967 0
M  V30 18 C 9.036410 2.723198 -15.142431 0 CFG=1
M  V30 19 C 10.193723 3.157928 -14.227512 0
M  V30 20 N 9.383878 1.497291 -15.919065 0 CFG=2 CHG=1
M  V30 21 C 10.395255 1.716808 -16.989952 0
M  V30 22 C 11.256889 0.463387 -17.205093 0
M  V30 23 C 12.382034 0.681058 -18.223904 0
M  V30 24 C 8.187739 0.823728 -16.457767 0
M  V30 25 C 7.312533 0.382237 -15.305147 0
M  V30 26 H 9.451793 9.066608 -8.101010 0
M  V30 27 H 8.085979 9.374647 -9.299055 0
M  V30 28 H 11.155753 6.713210 -9.931581 0
M  V30 29 H 11.440460 7.993382 -8.761960 0
M  V30 30 H 11.881116 8.257610 -10.444460 0
M  V30 31 H 8.148692 8.541252 -11.500232 0
M  V30 32 H 9.685786 8.993341 -12.107616 0
M  V30 33 H 11.524987 7.245522 -12.471418 0
M  V30 34 H 11.941658 5.132535 -13.636614 0
M  V30 35 H 6.925366 7.063696 -11.510829 0
M  V30 36 H 6.025223 4.397326 -11.959349 0
M  V30 37 H 4.485558 2.571484 -12.244524 0
M  V30 38 H 5.011294 0.666927 -13.718182 0
M  V30 39 H 8.881592 3.516470 -15.875806 0
M  V30 40 H 11.136786 3.258814 -14.762722 0
M  V30 41 H 10.359144 2.409068 -13.451778 0
M  V30 42 H 9.903433 2.010893 -17.918791 0
M  V30 43 H 11.061515 2.542432 -16.748032 0
M  V30 44 H 11.686358 0.172327 -16.248035 0
M  V30 45 H 10.645593 -0.376558 -17.535015 0
M  V30 46 H 12.971265 -0.228464 -18.350042 0
M  V30 47 H 13.061365 1.471954 -17.900980 0
M  V30 48 H 11.986090 0.956541 -19.201797 0
M  V30 49 H 7.638531 1.496389 -17.118292 0
M  V30 50 H 8.460255 -0.050741 -17.048302 0
M  V30 51 H 7.836329 -0.343909 -14.682417 0
M  V30 52 H 6.431404 -0.131137 -15.694199 0
M  V30 53 H 9.793480 0.861852 -15.248348 0
M  V30 END ATOM
M  V30 BEGIN BOND
M  V30 1 2 2 1
M  V30 2 1 3 2
M  V30 3 1 4 2
M  V30 4 1 5 4
M  V30 5 1 6 5
M  V30 6 2 7 6
M  V30 7 1 8 7
M  V30 8 2 9 8
M  V30 9 2 10 5
M  V30 10 1 10 9
M  V30 11 1 11 10
M  V30 12 1 12 9
M  V30 13 2 13 12
M  V30 14 1 14 13
M  V30 15 2 15 14
M  V30 16 1 16 15
M  V30 17 1 17 12
M  V30 18 2 17 16
M  V30 19 1 18 17
M  V30 20 1 19 8
M  V30 21 1 19 18
M  V30 22 1 20 18
M  V30 23 1 21 20
M  V30 24 1 22 21
M  V30 25 1 23 22
M  V30 26 1 24 20
M  V30 27 1 25 16
M  V30 28 1 25 24
M  V30 29 1 26 1
M  V30 30 1 27 1
M  V30 31 1 28 3
M  V30 32 1 29 3
M  V30 33 1 30 3
M  V30 34 1 31 4
M  V30 35 1 32 4
M  V30 36 1 33 6
M  V30 37 1 34 7
M  V30 38 1 35 11
M  V30 39 1 36 13
M  V30 40 1 37 14
M  V30 41 1 38 15
M  V30 42 1 18 39 CFG=3
M  V30 43 1 40 19
M  V30 44 1 41 19
M  V30 45 1 42 21
M  V30 46 1 43 21
M  V30 47 1 44 22
M  V30 48 1 45 22
M  V30 49 1 46 23
M  V30 50 1 47 23
M  V30 51 1 48 23
M  V30 52 1 49 24
M  V30 53 1 50 24
M  V30 54 1 51 25
M  V30 55 1 52 25
M  V30 56 1 20 53 CFG=1
M  V30 END BOND
M  V30 END CTAB
M  END
>  <b_m_subgroup_collapsed>  (2115) 
0

>  <r_i_docking_score>  (2115) 
-6.2110774591850904

>  <s_m_subgroup_title>  (2115) 
glide-dock_SP_D22_pv

>  <s_m_subgroupid>  (2115) 
glide-dock_SP_D22_pv

>  <Molecule ChEMBL ID>  (2115) 
CHEMBL596866

>  <Standard Type>  (2115) 
Ki

>  <Standard Value>  (2115) 
10000.0

>  <label>  (2115) 
0

$$$$
CHEMBL328595
     RDKit          3D

  0  0  0  0  0  0  0  0  0  0999 V3000
M  V30 BEGIN CTAB
M  V30 COUNTS 44 46 0 0 1
M  V30 BEGIN ATOM
M  V30 1 C 9.315646 7.903682 -8.600036 0
M  V30 2 C 9.902683 7.525406 -9.969586 0
M  V30 3 N 8.886539 7.550683 -11.053809 0 CFG=1 CHG=1
M  V30 4 C 8.493387 8.925979 -11.444752 0
M  V30 5 C 9.271830 6.802858 -12.276289 0
M  V30 6 C 9.456654 5.282910 -12.139186 0
M  V30 7 C 9.708788 4.658680 -13.490870 0
M  V30 8 C 8.877185 3.822471 -14.204464 0
M  V30 9 C 7.556829 3.292593 -13.892213 0
M  V30 10 C 6.612383 4.084182 -13.204382 0
M  V30 11 C 5.393132 3.535792 -12.781382 0
M  V30 12 C 5.101484 2.187029 -13.046944 0
M  V30 13 C 5.999040 1.407715 -13.802172 0
M  V30 14 F 5.697644 0.119098 -14.088249 0
M  V30 15 C 7.213245 1.966336 -14.246801 0
M  V30 16 N 9.494932 3.469367 -15.391339 0
M  V30 17 C 10.724648 4.075660 -15.503139 0
M  V30 18 C 11.704942 4.039472 -16.510315 0
M  V30 19 C 12.885522 4.785199 -16.349592 0
M  V30 20 C 13.069533 5.552783 -15.184786 0
M  V30 21 C 12.086033 5.572326 -14.175368 0
M  V30 22 C 10.884143 4.837781 -14.308459 0
M  V30 23 H 10.072306 7.812553 -7.820706 0
M  V30 24 H 8.945964 8.928107 -8.570116 0
M  V30 25 H 8.491725 7.242751 -8.329789 0
M  V30 26 H 10.319626 6.524611 -9.869606 0
M  V30 27 H 10.735820 8.182415 -10.224888 0
M  V30 28 H 9.285908 9.372352 -12.038459 0
M  V30 29 H 7.595772 8.907538 -12.063591 0
M  V30 30 H 8.278314 9.566661 -10.590776 0
M  V30 31 H 10.196053 7.244376 -12.646860 0
M  V30 32 H 8.500729 6.972279 -13.030838 0
M  V30 33 H 8.600328 4.834695 -11.638515 0
M  V30 34 H 10.298903 5.063027 -11.492978 0
M  V30 35 H 6.822731 5.116992 -12.973472 0
M  V30 36 H 4.692998 4.155793 -12.246343 0
M  V30 37 H 4.163815 1.772170 -12.716790 0
M  V30 38 H 7.908652 1.341774 -14.787966 0
M  V30 39 H 9.075997 2.849667 -16.068850 0
M  V30 40 H 11.553953 3.447074 -17.400238 0
M  V30 41 H 13.649891 4.766419 -17.113028 0
M  V30 42 H 13.979340 6.121497 -15.053846 0
M  V30 43 H 12.262536 6.158570 -13.286473 0
M  V30 44 H 8.016901 7.167097 -10.676799 0
M  V30 END ATOM
M  V30 BEGIN BOND
M  V30 1 1 2 1
M  V30 2 1 3 2
M  V30 3 1 4 3
M  V30 4 1 5 3
M  V30 5 1 6 5
M  V30 6 1 7 6
M  V30 7 2 8 7
M  V30 8 1 9 8
M  V30 9 2 10 9
M  V30 10 1 11 10
M  V30 11 2 12 11
M  V30 12 1 13 12
M  V30 13 1 14 13
M  V30 14 1 15 9
M  V30 15 2 15 13
M  V30 16 1 16 8
M  V30 17 1 17 16
M  V30 18 2 18 17
M  V30 19 1 19 18
M  V30 20 2 20 19
M  V30 21 1 21 20
M  V30 22 1 22 7
M  V30 23 1 22 17
M  V30 24 2 22 21
M  V30 25 1 23 1
M  V30 26 1 24 1
M  V30 27 1 25 1
M  V30 28 1 26 2
M  V30 29 1 27 2
M  V30 30 1 28 4
M  V30 31 1 29 4
M  V30 32 1 30 4
M  V30 33 1 31 5
M  V30 34 1 32 5
M  V30 35 1 33 6
M  V30 36 1 34 6
M  V30 37 1 35 10
M  V30 38 1 36 11
M  V30 39 1 37 12
M  V30 40 1 38 15
M  V30 41 1 39 16
M  V30 42 1 40 18
M  V30 43 1 41 19
M  V30 44 1 42 20
M  V30 45 1 43 21
M  V30 46 1 3 44 CFG=1
M  V30 END BOND
M  V30 END CTAB
M  END
>  <b_m_subgroup_collapsed>  (2116) 
0

>  <r_i_docking_score>  (2116) 
-6.2102982480997797

>  <s_m_subgroup_title>  (2116) 
glide-dock_SP_D22_pv

>  <s_m_subgroupid>  (2116) 
glide-dock_SP_D22_pv

>  <Molecule ChEMBL ID>  (2116) 
CHEMBL328595

>  <Standard Type>  (2116) 
Ki

>  <Standard Value>  (2116) 
68.0

>  <label>  (2116) 
1

$$$$
CHEMBL3764830
     RDKit          3D

  0  0  0  0  0  0  0  0  0  0999 V3000
M  V30 BEGIN CTAB
M  V30 COUNTS 62 65 0 0 1
M  V30 BEGIN ATOM
M  V30 1 C 9.001418 5.090266 -9.199053 0
M  V30 2 N 9.230291 6.201594 -10.103284 0
M  V30 3 C 8.885748 6.305633 -11.399445 0
M  V30 4 S 8.022279 5.029991 -12.255432 0
M  V30 5 C 9.454511 4.041270 -12.779755 0
M  V30 6 C 10.261142 4.765637 -13.863468 0
M  V30 7 C 11.240529 3.841056 -14.613952 0
M  V30 8 N 11.959579 4.445375 -15.738373 0
M  V30 9 C 12.971260 5.415874 -15.344971 0
M  V30 10 C 13.745813 5.928144 -16.568033 0
M  V30 11 O 12.834835 6.488052 -17.513008 0
M  V30 12 C 11.831919 5.576070 -17.972765 0 CFG=2
M  V30 13 C 10.870262 6.237234 -18.957903 0
M  V30 14 C 9.708465 5.553796 -19.384207 0
M  V30 15 C 8.784800 6.180007 -20.243801 0
M  V30 16 C 9.017883 7.491416 -20.704529 0
M  V30 17 C 8.001822 8.176655 -21.605045 0
M  V30 18 F 8.270094 7.883935 -22.877272 0
M  V30 19 F 6.765298 7.763953 -21.318050 0
M  V30 20 F 8.042269 9.500974 -21.448463 0
M  V30 21 C 10.204255 8.155379 -20.325373 0
M  V30 22 C 11.117226 7.538605 -19.448648 0
M  V30 23 C 11.076755 5.022301 -16.745514 0
M  V30 24 N 9.273809 7.450176 -11.961712 0
M  V30 25 N 9.895870 8.159579 -10.964221 0
M  V30 26 C 9.820518 7.394636 -9.870693 0
M  V30 27 C 10.346122 7.834530 -8.583818 0
M  V30 28 C 9.651217 7.526762 -7.393925 0
M  V30 29 C 10.183652 7.893723 -6.153002 0
M  V30 30 C 11.364080 8.646625 -6.088596 0
M  V30 31 S 11.958427 9.180786 -4.494400 0
M  V30 32 N 12.138730 7.714085 -3.620389 0
M  V30 33 O 13.286053 9.772074 -4.646842 0
M  V30 34 O 10.886317 9.944307 -3.851005 0
M  V30 35 C 12.065168 8.971728 -7.263361 0
M  V30 36 C 11.559380 8.555530 -8.510942 0
M  V30 37 H 8.887529 4.172345 -9.765194 0
M  V30 38 H 9.847394 4.974897 -8.519942 0
M  V30 39 H 8.086163 5.254831 -8.631333 0
M  V30 40 H 10.082008 3.793778 -11.922973 0
M  V30 41 H 9.070706 3.097882 -13.168391 0
M  V30 42 H 9.538924 5.186190 -14.560171 0
M  V30 43 H 10.799180 5.607707 -13.427387 0
M  V30 44 H 11.962608 3.431101 -13.908322 0
M  V30 45 H 10.684670 2.980886 -14.988595 0
M  V30 46 H 12.508018 6.258865 -14.833799 0
M  V30 47 H 13.668655 4.961351 -14.644831 0
M  V30 48 H 14.465957 6.689527 -16.268734 0
M  V30 49 H 14.311033 5.119289 -17.033146 0
M  V30 50 H 12.325510 4.757362 -18.495695 0
M  V30 51 H 9.500701 4.549972 -19.043545 0
M  V30 52 H 7.889015 5.654058 -20.535265 0
M  V30 53 H 10.405847 9.153522 -20.684103 0
M  V30 54 H 11.998452 8.085475 -19.143761 0
M  V30 55 H 10.351069 4.270888 -17.052298 0
M  V30 56 H 10.511704 5.848455 -16.317957 0
M  V30 57 H 8.705458 7.006637 -7.415593 0
M  V30 58 H 9.685548 7.611979 -5.245789 0
M  V30 59 H 12.639727 7.886041 -2.750315 0
M  V30 60 H 11.240843 7.275375 -3.422496 0
M  V30 61 H 12.991879 9.521548 -7.205790 0
M  V30 62 H 12.105179 8.796656 -9.411716 0
M  V30 END ATOM
M  V30 BEGIN BOND
M  V30 1 1 2 1
M  V30 2 1 3 2
M  V30 3 1 4 3
M  V30 4 1 5 4
M  V30 5 1 6 5
M  V30 6 1 7 6
M  V30 7 1 8 7
M  V30 8 1 9 8
M  V30 9 1 10 9
M  V30 10 1 11 10
M  V30 11 1 12 11
M  V30 12 1 13 12
M  V30 13 1 14 13
M  V30 14 2 15 14
M  V30 15 1 16 15
M  V30 16 1 17 16
M  V30 17 1 18 17
M  V30 18 1 19 17
M  V30 19 1 20 17
M  V30 20 2 21 16
M  V30 21 2 22 13
M  V30 22 1 22 21
M  V30 23 1 23 8
M  V30 24 1 23 12
M  V30 25 2 24 3
M  V30 26 1 25 24
M  V30 27 1 26 2
M  V30 28 2 26 25
M  V30 29 1 27 26
M  V30 30 1 28 27
M  V30 31 2 29 28
M  V30 32 1 30 29
M  V30 33 1 31 30
M  V30 34 1 32 31
M  V30 35 2 33 31
M  V30 36 2 34 31
M  V30 37 2 35 30
M  V30 38 2 36 27
M  V30 39 1 36 35
M  V30 40 1 37 1
M  V30 41 1 38 1
M  V30 42 1 39 1
M  V30 43 1 40 5
M  V30 44 1 41 5
M  V30 45 1 42 6
M  V30 46 1 43 6
M  V30 47 1 44 7
M  V30 48 1 45 7
M  V30 49 1 46 9
M  V30 50 1 47 9
M  V30 51 1 48 10
M  V30 52 1 49 10
M  V30 53 1 12 50 CFG=3
M  V30 54 1 51 14
M  V30 55 1 52 15
M  V30 56 1 53 21
M  V30 57 1 54 22
M  V30 58 1 55 23
M  V30 59 1 56 23
M  V30 60 1 57 28
M  V30 61 1 58 29
M  V30 62 1 59 32
M  V30 63 1 60 32
M  V30 64 1 61 35
M  V30 65 1 62 36
M  V30 END BOND
M  V30 END CTAB
M  END
>  <b_m_subgroup_collapsed>  (2117) 
0

>  <r_i_docking_score>  (2117) 
-6.2072243489724404

>  <s_m_subgroup_title>  (2117) 
glide-dock_SP_D22_pv

>  <s_m_subgroupid>  (2117) 
glide-dock_SP_D22_pv

>  <Molecule ChEMBL ID>  (2117) 
CHEMBL3764830

>  <Standard Type>  (2117) 
Ki

>  <Standard Value>  (2117) 
31622.78

>  <label>  (2117) 
0

$$$$
CHEMBL4440402
     RDKit          3D

  0  0  0  0  0  0  0  0  0  0999 V3000
M  V30 BEGIN CTAB
M  V30 COUNTS 53 56 0 0 1
M  V30 BEGIN ATOM
M  V30 1 C 3.844044 -1.757697 -16.427935 0
M  V30 2 C 5.158098 -1.728543 -15.633606 0
M  V30 3 C 5.235251 -0.515595 -14.705411 0
M  V30 4 O 4.325211 -0.292056 -13.902617 0
M  V30 5 N 6.339249 0.242308 -14.823352 0
M  V30 6 C 6.576509 1.509611 -14.240067 0
M  V30 7 N 5.686010 2.163721 -13.490168 0
M  V30 8 C 6.239192 3.393701 -13.190838 0
M  V30 9 C 5.521937 4.442194 -12.417912 0
M  V30 10 C 7.518999 3.374717 -13.707677 0
M  V30 11 C 8.588329 4.353197 -13.504170 0
M  V30 12 C 8.575586 5.453053 -12.688220 0
M  V30 13 N 9.825636 6.038779 -12.645998 0
M  V30 14 S 10.171732 7.414562 -11.656478 0
M  V30 15 O 9.286196 8.478904 -12.156306 0
M  V30 16 O 11.633356 7.577210 -11.661541 0
M  V30 17 C 9.688730 7.026075 -9.975375 0
M  V30 18 C 9.685975 8.089631 -9.050254 0
M  V30 19 C 9.286342 7.861828 -7.720120 0
M  V30 20 C 8.887282 6.571761 -7.322646 0
M  V30 21 C 8.897809 5.507264 -8.246959 0
M  V30 22 C 9.318386 5.725624 -9.571819 0
M  V30 23 C 10.660585 5.398854 -13.558208 0
M  V30 24 C 11.983788 5.640059 -13.979231 0
M  V30 25 C 12.561886 4.832116 -14.971711 0
M  V30 26 C 11.843301 3.763395 -15.535806 0
M  V30 27 O 12.485556 3.020510 -16.502825 0
M  V30 28 C 11.857805 1.832526 -16.962124 0
M  V30 29 C 10.521849 3.516400 -15.090821 0
M  V30 30 C 9.892474 4.329833 -14.115495 0
M  V30 31 N 7.707081 2.178453 -14.414300 0
M  V30 32 H 3.818968 -2.617853 -17.097919 0
M  V30 33 H 2.977552 -1.829976 -15.769675 0
M  V30 34 H 3.725799 -0.861213 -17.037586 0
M  V30 35 H 5.998001 -1.722111 -16.329067 0
M  V30 36 H 5.261780 -2.635978 -15.040499 0
M  V30 37 H 7.055848 -0.090796 -15.450858 0
M  V30 38 H 5.986234 4.588830 -11.446787 0
M  V30 39 H 5.537282 5.394303 -12.948676 0
M  V30 40 H 4.486183 4.170024 -12.257405 0
M  V30 41 H 7.785547 5.852323 -12.067448 0
M  V30 42 H 9.970133 9.081813 -9.367939 0
M  V30 43 H 9.261503 8.676576 -7.012389 0
M  V30 44 H 8.559824 6.399043 -6.308705 0
M  V30 45 H 8.585730 4.520744 -7.940141 0
M  V30 46 H 9.340270 4.893764 -10.257758 0
M  V30 47 H 12.565158 6.450446 -13.566932 0
M  V30 48 H 13.571507 5.030271 -15.301235 0
M  V30 49 H 12.527207 1.317004 -17.650406 0
M  V30 50 H 11.644865 1.148848 -16.139153 0
M  V30 51 H 10.935162 2.052198 -17.500158 0
M  V30 52 H 9.948429 2.707502 -15.512058 0
M  V30 53 H 4.762980 1.827278 -13.250922 0
M  V30 END ATOM
M  V30 BEGIN BOND
M  V30 1 1 2 1
M  V30 2 1 3 2
M  V30 3 2 4 3
M  V30 4 1 5 3
M  V30 5 1 6 5
M  V30 6 1 7 6
M  V30 7 1 8 7
M  V30 8 1 9 8
M  V30 9 2 10 8
M  V30 10 1 11 10
M  V30 11 2 12 11
M  V30 12 1 13 12
M  V30 13 1 14 13
M  V30 14 2 15 14
M  V30 15 2 16 14
M  V30 16 1 17 14
M  V30 17 2 18 17
M  V30 18 1 19 18
M  V30 19 2 20 19
M  V30 20 1 21 20
M  V30 21 1 22 17
M  V30 22 2 22 21
M  V30 23 1 23 13
M  V30 24 1 24 23
M  V30 25 2 25 24
M  V30 26 1 26 25
M  V30 27 1 27 26
M  V30 28 1 28 27
M  V30 29 2 29 26
M  V30 30 1 30 11
M  V30 31 2 30 23
M  V30 32 1 30 29
M  V30 33 2 31 6
M  V30 34 1 31 10
M  V30 35 1 32 1
M  V30 36 1 33 1
M  V30 37 1 34 1
M  V30 38 1 35 2
M  V30 39 1 36 2
M  V30 40 1 37 5
M  V30 41 1 38 9
M  V30 42 1 39 9
M  V30 43 1 40 9
M  V30 44 1 41 12
M  V30 45 1 42 18
M  V30 46 1 43 19
M  V30 47 1 44 20
M  V30 48 1 45 21
M  V30 49 1 46 22
M  V30 50 1 47 24
M  V30 51 1 48 25
M  V30 52 1 49 28
M  V30 53 1 50 28
M  V30 54 1 51 28
M  V30 55 1 52 29
M  V30 56 1 53 7
M  V30 END BOND
M  V30 END CTAB
M  END
>  <b_m_subgroup_collapsed>  (2118) 
0

>  <r_i_docking_score>  (2118) 
-6.20679930984506

>  <s_m_subgroup_title>  (2118) 
glide-dock_SP_D22_pv

>  <s_m_subgroupid>  (2118) 
glide-dock_SP_D22_pv

>  <Molecule ChEMBL ID>  (2118) 
CHEMBL4440402

>  <Standard Type>  (2118) 
Ki

>  <Standard Value>  (2118) 
10000.0

>  <label>  (2118) 
0

$$$$
CHEMBL92887
     RDKit          3D

  0  0  0  0  0  0  0  0  0  0999 V3000
M  V30 BEGIN CTAB
M  V30 COUNTS 40 41 0 0 1
M  V30 BEGIN ATOM
M  V30 1 C 8.195557 5.276929 -13.192429 0
M  V30 2 C 8.531789 6.277925 -12.080736 0
M  V30 3 C 8.656628 5.592917 -10.708033 0
M  V30 4 N 8.886029 6.538056 -9.584280 0 CHG=1
M  V30 5 C 10.199017 7.240009 -9.648780 0
M  V30 6 C 10.437482 8.168885 -8.442081 0
M  V30 7 N 10.162126 7.479950 -7.186257 0
M  V30 8 C 10.852448 7.775912 -5.989230 0
M  V30 9 C 11.020379 6.741328 -5.047050 0
M  V30 10 C 11.686592 6.934448 -3.826899 0
M  V30 11 C 12.218625 8.192359 -3.528407 0
M  V30 12 C 12.073934 9.236256 -4.454425 0
M  V30 13 C 11.384759 9.055089 -5.685989 0
M  V30 14 O 11.187575 10.075467 -6.590784 0
M  V30 15 C 11.819065 11.306162 -6.329335 0
M  V30 16 C 8.859048 6.834600 -7.099179 0
M  V30 17 C 8.679740 5.865171 -8.274442 0
M  V30 18 H 8.145790 5.772066 -14.161694 0
M  V30 19 H 8.951565 4.493994 -13.260763 0
M  V30 20 H 7.232213 4.798123 -13.013326 0
M  V30 21 H 7.756190 7.044171 -12.043440 0
M  V30 22 H 9.459895 6.783157 -12.345357 0
M  V30 23 H 9.451614 4.845393 -10.727487 0
M  V30 24 H 7.727764 5.051429 -10.520372 0
M  V30 25 H 10.274824 7.830205 -10.561113 0
M  V30 26 H 10.994074 6.495251 -9.686193 0
M  V30 27 H 9.789351 9.043736 -8.512035 0
M  V30 28 H 11.468643 8.523677 -8.466595 0
M  V30 29 H 10.623153 5.772390 -5.260285 0
M  V30 30 H 11.788600 6.118075 -3.126702 0
M  V30 31 H 12.738892 8.358572 -2.596226 0
M  V30 32 H 12.511841 10.172324 -4.171243 0
M  V30 33 H 11.685998 12.022305 -7.134301 0
M  V30 34 H 11.410523 11.748143 -5.430228 0
M  V30 35 H 12.886122 11.154109 -6.246849 0
M  V30 36 H 8.723460 6.295391 -6.164047 0
M  V30 37 H 8.086024 7.604315 -7.119097 0
M  V30 38 H 7.685981 5.426215 -8.228261 0
M  V30 39 H 9.388222 5.040701 -8.178514 0
M  V30 40 H 8.149580 7.237096 -9.657194 0
M  V30 END ATOM
M  V30 BEGIN BOND
M  V30 1 1 2 1
M  V30 2 1 3 2
M  V30 3 1 4 3
M  V30 4 1 5 4
M  V30 5 1 6 5
M  V30 6 1 7 6
M  V30 7 1 8 7
M  V30 8 2 9 8
M  V30 9 1 10 9
M  V30 10 2 11 10
M  V30 11 1 12 11
M  V30 12 1 13 8
M  V30 13 2 13 12
M  V30 14 1 14 13
M  V30 15 1 15 14
M  V30 16 1 16 7
M  V30 17 1 17 4
M  V30 18 1 17 16
M  V30 19 1 18 1
M  V30 20 1 19 1
M  V30 21 1 20 1
M  V30 22 1 21 2
M  V30 23 1 22 2
M  V30 24 1 23 3
M  V30 25 1 24 3
M  V30 26 1 25 5
M  V30 27 1 26 5
M  V30 28 1 27 6
M  V30 29 1 28 6
M  V30 30 1 29 9
M  V30 31 1 30 10
M  V30 32 1 31 11
M  V30 33 1 32 12
M  V30 34 1 33 15
M  V30 35 1 34 15
M  V30 36 1 35 15
M  V30 37 1 36 16
M  V30 38 1 37 16
M  V30 39 1 38 17
M  V30 40 1 39 17
M  V30 41 1 40 4
M  V30 END BOND
M  V30 END CTAB
M  END
>  <b_m_subgroup_collapsed>  (2119) 
0

>  <r_i_docking_score>  (2119) 
-6.2033491473136504

>  <s_m_subgroup_title>  (2119) 
glide-dock_SP_D22_pv

>  <s_m_subgroupid>  (2119) 
glide-dock_SP_D22_pv

>  <Molecule ChEMBL ID>  (2119) 
CHEMBL92887

>  <Standard Type>  (2119) 
Ki

>  <Standard Value>  (2119) 
22.0

>  <label>  (2119) 
1

$$$$
CHEMBL92416
     RDKit          3D

  0  0  0  0  0  0  0  0  0  0999 V3000
M  V30 BEGIN CTAB
M  V30 COUNTS 41 43 0 0 1
M  V30 BEGIN ATOM
M  V30 1 C 8.436790 9.002512 -12.057049 0
M  V30 2 C 9.504772 8.129916 -11.382553 0
M  V30 3 N 8.886023 6.972324 -10.687730 0 CFG=2 CHG=1
M  V30 4 C 9.329097 6.836301 -9.282115 0
M  V30 5 C 8.963694 5.681352 -11.425528 0
M  V30 6 C 8.280709 5.712505 -12.808632 0
M  V30 7 C 8.345773 4.389913 -13.515326 0
M  V30 8 C 9.365388 3.868781 -14.288980 0
M  V30 9 C 10.662757 4.401153 -14.675301 0
M  V30 10 C 11.317739 5.517433 -14.217911 0
M  V30 11 C 12.577988 5.736345 -14.844534 0
M  V30 12 C 12.886002 4.777582 -15.769672 0
M  V30 13 S 11.621179 3.590486 -15.897309 0
M  V30 14 N 8.985428 2.603611 -14.708591 0
M  V30 15 C 7.733319 2.273359 -14.246890 0
M  V30 16 C 6.948838 1.114275 -14.385278 0
M  V30 17 C 5.686022 1.063341 -13.770761 0
M  V30 18 C 5.218241 2.177762 -13.046865 0
M  V30 19 C 6.010710 3.335577 -12.916490 0
M  V30 20 C 7.295876 3.406018 -13.503243 0
M  V30 21 H 8.886230 9.772324 -12.681647 0
M  V30 22 H 7.766374 8.426872 -12.692548 0
M  V30 23 H 7.817125 9.501511 -11.311530 0
M  V30 24 H 10.053513 8.753554 -10.675112 0
M  V30 25 H 10.243250 7.794377 -12.108833 0
M  V30 26 H 10.391036 6.594235 -9.223665 0
M  V30 27 H 9.151114 7.761926 -8.732823 0
M  V30 28 H 8.766501 6.050812 -8.775345 0
M  V30 29 H 8.477521 4.910525 -10.824579 0
M  V30 30 H 10.007492 5.380358 -11.519327 0
M  V30 31 H 8.713780 6.475131 -13.446788 0
M  V30 32 H 7.238717 6.007636 -12.678782 0
M  V30 33 H 10.953481 6.190865 -13.463753 0
M  V30 34 H 13.213609 6.572328 -14.589643 0
M  V30 35 H 13.775941 4.690730 -16.376488 0
M  V30 36 H 9.581492 2.015612 -15.272479 0
M  V30 37 H 7.313176 0.268233 -14.950052 0
M  V30 38 H 5.070323 0.181269 -13.870929 0
M  V30 39 H 4.237757 2.156141 -12.596411 0
M  V30 40 H 5.638262 4.172339 -12.343559 0
M  V30 41 H 7.892264 7.216684 -10.606169 0
M  V30 END ATOM
M  V30 BEGIN BOND
M  V30 1 1 2 1
M  V30 2 1 3 2
M  V30 3 1 4 3
M  V30 4 1 5 3
M  V30 5 1 6 5
M  V30 6 1 7 6
M  V30 7 2 8 7
M  V30 8 1 9 8
M  V30 9 2 10 9
M  V30 10 1 11 10
M  V30 11 2 12 11
M  V30 12 1 13 9
M  V30 13 1 13 12
M  V30 14 1 14 8
M  V30 15 1 15 14
M  V30 16 2 16 15
M  V30 17 1 17 16
M  V30 18 2 18 17
M  V30 19 1 19 18
M  V30 20 1 20 7
M  V30 21 1 20 15
M  V30 22 2 20 19
M  V30 23 1 21 1
M  V30 24 1 22 1
M  V30 25 1 23 1
M  V30 26 1 24 2
M  V30 27 1 25 2
M  V30 28 1 26 4
M  V30 29 1 27 4
M  V30 30 1 28 4
M  V30 31 1 29 5
M  V30 32 1 30 5
M  V30 33 1 31 6
M  V30 34 1 32 6
M  V30 35 1 33 10
M  V30 36 1 34 11
M  V30 37 1 35 12
M  V30 38 1 36 14
M  V30 39 1 37 16
M  V30 40 1 38 17
M  V30 41 1 39 18
M  V30 42 1 40 19
M  V30 43 1 3 41 CFG=1
M  V30 END BOND
M  V30 END CTAB
M  END
>  <b_m_subgroup_collapsed>  (2120) 
0

>  <r_i_docking_score>  (2120) 
-6.1913384221480197

>  <s_m_subgroup_title>  (2120) 
glide-dock_SP_D22_pv

>  <s_m_subgroupid>  (2120) 
glide-dock_SP_D22_pv

>  <Molecule ChEMBL ID>  (2120) 
CHEMBL92416

>  <Standard Type>  (2120) 
Ki

>  <Standard Value>  (2120) 
78.0

>  <label>  (2120) 
1

$$$$
CHEMBL4531898
     RDKit          3D

  0  0  0  0  0  0  0  0  0  0999 V3000
M  V30 BEGIN CTAB
M  V30 COUNTS 29 31 0 0 1
M  V30 BEGIN ATOM
M  V30 1 C 11.824394 6.722528 -3.607171 0
M  V30 2 C 11.085715 6.634241 -4.954904 0
M  V30 3 N 11.173561 7.845518 -5.762153 0
M  V30 4 C 11.684220 9.035977 -5.397626 0
M  V30 5 N 11.692635 9.956165 -6.350598 0
M  V30 6 C 11.138437 9.297948 -7.442588 0
M  V30 7 C 10.746480 8.035720 -7.080645 0
M  V30 8 C 9.997828 7.070261 -7.877059 0
M  V30 9 C 8.989250 6.248345 -7.443231 0
M  V30 10 N 8.486023 5.517840 -8.499240 0
M  V30 11 C 9.095101 5.889051 -9.671863 0
M  V30 12 C 8.885582 5.486745 -11.000432 0
M  V30 13 C 9.702859 6.011899 -12.013100 0
M  V30 14 F 9.548271 5.579542 -13.287326 0
M  V30 15 C 10.720847 6.933615 -11.687597 0
M  V30 16 Cl 11.876272 7.372237 -12.891031 0
M  V30 17 C 10.885361 7.372404 -10.354617 0
M  V30 18 C 10.080622 6.854901 -9.306315 0
M  V30 19 H 11.778542 5.772579 -3.075790 0
M  V30 20 H 12.877217 6.972229 -3.742286 0
M  V30 21 H 11.380749 7.475731 -2.955522 0
M  V30 22 H 10.036918 6.406233 -4.778169 0
M  V30 23 H 11.499864 5.813719 -5.541562 0
M  V30 24 H 12.082600 9.241262 -4.415131 0
M  V30 25 H 11.006292 9.772496 -8.400482 0
M  V30 26 H 8.554538 6.156495 -6.459544 0
M  V30 27 H 7.691562 4.896807 -8.422318 0
M  V30 28 H 8.117261 4.766319 -11.236865 0
M  V30 29 H 11.672861 8.073584 -10.122615 0
M  V30 END ATOM
M  V30 BEGIN BOND
M  V30 1 1 2 1
M  V30 2 1 3 2
M  V30 3 1 4 3
M  V30 4 2 5 4
M  V30 5 1 6 5
M  V30 6 1 7 3
M  V30 7 2 7 6
M  V30 8 1 8 7
M  V30 9 2 9 8
M  V30 10 1 10 9
M  V30 11 1 11 10
M  V30 12 2 12 11
M  V30 13 1 13 12
M  V30 14 1 14 13
M  V30 15 2 15 13
M  V30 16 1 16 15
M  V30 17 1 17 15
M  V30 18 1 18 8
M  V30 19 1 18 11
M  V30 20 2 18 17
M  V30 21 1 19 1
M  V30 22 1 20 1
M  V30 23 1 21 1
M  V30 24 1 22 2
M  V30 25 1 23 2
M  V30 26 1 24 4
M  V30 27 1 25 6
M  V30 28 1 26 9
M  V30 29 1 27 10
M  V30 30 1 28 12
M  V30 31 1 29 17
M  V30 END BOND
M  V30 END CTAB
M  END
>  <b_m_subgroup_collapsed>  (2121) 
0

>  <r_i_docking_score>  (2121) 
-6.1905386773905997

>  <s_m_subgroup_title>  (2121) 
glide-dock_SP_D22_pv

>  <s_m_subgroupid>  (2121) 
glide-dock_SP_D22_pv

>  <Molecule ChEMBL ID>  (2121) 
CHEMBL4531898

>  <Standard Type>  (2121) 
Ki

>  <Standard Value>  (2121) 
10000.0

>  <label>  (2121) 
0

$$$$
CHEMBL107973
     RDKit          3D

  0  0  0  0  0  0  0  0  0  0999 V3000
M  V30 BEGIN CTAB
M  V30 COUNTS 60 63 0 0 1
M  V30 BEGIN ATOM
M  V30 1 C 17.752609 9.062626 -18.666348 0
M  V30 2 C 17.258020 7.814908 -19.411577 0
M  V30 3 O 15.977117 7.416287 -18.943937 0
M  V30 4 C 15.845877 6.608009 -17.869137 0
M  V30 5 O 16.801390 6.147155 -17.240465 0
M  V30 6 C 14.418469 6.357531 -17.510708 0
M  V30 7 C 14.114077 5.773404 -16.262665 0
M  V30 8 C 12.781684 5.504194 -15.895620 0
M  V30 9 C 12.492393 4.868577 -14.547867 0
M  V30 10 S 11.638057 6.053269 -13.450699 0
M  V30 11 C 10.012190 5.355050 -13.360663 0
M  V30 12 N 9.656161 4.234226 -13.990792 0
M  V30 13 C 8.332409 4.078718 -13.631062 0
M  V30 14 C 7.403932 3.076664 -13.987411 0
M  V30 15 C 6.088239 3.117100 -13.485940 0
M  V30 16 C 5.686578 4.164298 -12.634081 0
M  V30 17 C 6.592754 5.183136 -12.277713 0
M  V30 18 C 7.908293 5.134312 -12.776705 0
M  V30 19 N 9.027575 5.949901 -12.642051 0
M  V30 20 C 9.094459 7.206297 -11.906541 0
M  V30 21 C 9.685580 7.062567 -10.511956 0
M  V30 22 C 9.070196 6.215672 -9.563643 0
M  V30 23 C 9.541533 6.176001 -8.237027 0
M  V30 24 C 10.635429 6.975420 -7.851943 0
M  V30 25 Cl 11.173047 6.973410 -6.212103 0
M  V30 26 C 11.279527 7.789360 -8.803058 0
M  V30 27 C 10.804004 7.833700 -10.130434 0
M  V30 28 C 11.734596 5.816859 -16.790432 0
M  V30 29 C 12.015362 6.415429 -18.044996 0
M  V30 30 C 10.937343 6.776187 -19.014948 0
M  V30 31 O 11.159269 7.300494 -20.110434 0
M  V30 32 O 9.695936 6.479744 -18.569151 0
M  V30 33 C 8.547026 6.807317 -19.339542 0
M  V30 34 C 8.232636 5.706403 -20.359081 0
M  V30 35 C 13.359942 6.682854 -18.388849 0
M  V30 36 H 18.691792 9.417133 -19.093445 0
M  V30 37 H 17.028381 9.875075 -18.733810 0
M  V30 38 H 17.929655 8.853711 -17.611355 0
M  V30 39 H 17.978319 7.000075 -19.326870 0
M  V30 40 H 17.168556 8.042539 -20.473789 0
M  V30 41 H 14.909687 5.528616 -15.575594 0
M  V30 42 H 13.426238 4.580653 -14.067566 0
M  V30 43 H 11.961338 3.927376 -14.695646 0
M  V30 44 H 7.711379 2.269969 -14.636542 0
M  V30 45 H 5.384358 2.343557 -13.752354 0
M  V30 46 H 4.682090 4.173398 -12.246741 0
M  V30 47 H 6.286744 5.981468 -11.616287 0
M  V30 48 H 8.087481 7.618821 -11.832726 0
M  V30 49 H 9.666851 7.931534 -12.485305 0
M  V30 50 H 8.202052 5.634706 -9.837008 0
M  V30 51 H 9.041642 5.554063 -7.508838 0
M  V30 52 H 12.121758 8.400908 -8.513347 0
M  V30 53 H 11.286985 8.486371 -10.844288 0
M  V30 54 H 10.718524 5.594589 -16.496126 0
M  V30 55 H 7.706785 6.926017 -18.657574 0
M  V30 56 H 8.672451 7.768263 -19.842686 0
M  V30 57 H 7.313353 5.931847 -20.900808 0
M  V30 58 H 9.032636 5.598832 -21.093048 0
M  V30 59 H 8.098174 4.742717 -19.865370 0
M  V30 60 H 13.575427 7.137216 -19.346823 0
M  V30 END ATOM
M  V30 BEGIN BOND
M  V30 1 1 2 1
M  V30 2 1 3 2
M  V30 3 1 4 3
M  V30 4 2 5 4
M  V30 5 1 6 4
M  V30 6 1 7 6
M  V30 7 2 8 7
M  V30 8 1 9 8
M  V30 9 1 10 9
M  V30 10 1 11 10
M  V30 11 2 12 11
M  V30 12 1 13 12
M  V30 13 2 14 13
M  V30 14 1 15 14
M  V30 15 2 16 15
M  V30 16 1 17 16
M  V30 17 1 18 13
M  V30 18 2 18 17
M  V30 19 1 19 11
M  V30 20 1 19 18
M  V30 21 1 20 19
M  V30 22 1 21 20
M  V30 23 1 22 21
M  V30 24 2 23 22
M  V30 25 1 24 23
M  V30 26 1 25 24
M  V30 27 2 26 24
M  V30 28 2 27 21
M  V30 29 1 27 26
M  V30 30 1 28 8
M  V30 31 2 29 28
M  V30 32 1 30 29
M  V30 33 2 31 30
M  V30 34 1 32 30
M  V30 35 1 33 32
M  V30 36 1 34 33
M  V30 37 2 35 6
M  V30 38 1 35 29
M  V30 39 1 36 1
M  V30 40 1 37 1
M  V30 41 1 38 1
M  V30 42 1 39 2
M  V30 43 1 40 2
M  V30 44 1 41 7
M  V30 45 1 42 9
M  V30 46 1 43 9
M  V30 47 1 44 14
M  V30 48 1 45 15
M  V30 49 1 46 16
M  V30 50 1 47 17
M  V30 51 1 48 20
M  V30 52 1 49 20
M  V30 53 1 50 22
M  V30 54 1 51 23
M  V30 55 1 52 26
M  V30 56 1 53 27
M  V30 57 1 54 28
M  V30 58 1 55 33
M  V30 59 1 56 33
M  V30 60 1 57 34
M  V30 61 1 58 34
M  V30 62 1 59 34
M  V30 63 1 60 35
M  V30 END BOND
M  V30 END CTAB
M  END
>  <b_m_subgroup_collapsed>  (2122) 
0

>  <r_i_docking_score>  (2122) 
-6.1884831706423302

>  <s_m_subgroup_title>  (2122) 
glide-dock_SP_D22_pv

>  <s_m_subgroupid>  (2122) 
glide-dock_SP_D22_pv

>  <Molecule ChEMBL ID>  (2122) 
CHEMBL107973

>  <Standard Type>  (2122) 
Ki

>  <Standard Value>  (2122) 
43000.0

>  <label>  (2122) 
0

$$$$
CHEMBL241282
     RDKit          3D

  0  0  0  0  0  0  0  0  0  0999 V3000
M  V30 BEGIN CTAB
M  V30 COUNTS 59 63 0 0 1
M  V30 BEGIN ATOM
M  V30 1 C 12.173838 10.137653 -6.307334 0
M  V30 2 O 11.277441 9.113993 -5.923832 0
M  V30 3 C 10.728187 8.330532 -6.914296 0
M  V30 4 C 10.697167 8.714297 -8.280035 0
M  V30 5 C 10.070957 7.894832 -9.240866 0
M  V30 6 C 9.454082 6.695687 -8.848422 0
M  V30 7 C 9.476710 6.312182 -7.499277 0
M  V30 8 C 10.134976 7.099518 -6.537994 0
M  V30 9 O 10.143467 6.626416 -5.251283 0
M  V30 10 C 11.411890 6.535537 -4.624556 0
M  V30 11 C 8.746355 5.822114 -9.865419 0
M  V30 12 N 9.236809 5.950698 -11.248357 0 CHG=1
M  V30 13 C 8.955313 4.944151 -12.101943 0
M  V30 14 N 9.490745 4.857081 -13.333713 0
M  V30 15 C 9.392234 3.624848 -14.058250 0
M  V30 16 C 10.551660 3.114726 -14.666769 0
M  V30 17 C 10.469233 1.926126 -15.413928 0
M  V30 18 C 9.235762 1.259878 -15.558924 0
M  V30 19 C 8.071241 1.755114 -14.913383 0
M  V30 20 C 8.157487 2.957591 -14.175561 0
M  V30 21 C 6.711511 1.062222 -15.067459 0 CFG=2
M  V30 22 S 5.943518 0.711723 -13.447011 0
M  V30 23 C 4.293982 0.106237 -13.944430 0
M  V30 24 C 4.340513 -1.073422 -14.928092 0
M  V30 25 S 5.091557 -0.631110 -16.517477 0
M  V30 26 C 6.744996 -0.227599 -15.898800 0 CFG=1
M  V30 27 C 7.779351 -0.194583 -17.024992 0
M  V30 28 C 9.180273 0.030941 -16.448082 0
M  V30 29 C 10.136436 7.065887 -11.626524 0
M  V30 30 C 10.030241 8.287549 -10.699996 0
M  V30 31 H 12.753058 10.461226 -5.446790 0
M  V30 32 H 11.639003 11.005156 -6.692092 0
M  V30 33 H 12.885375 9.772293 -7.047613 0
M  V30 34 H 11.138202 9.644063 -8.606257 0
M  V30 35 H 8.998223 5.391725 -7.202363 0
M  V30 36 H 11.325504 5.909185 -3.735793 0
M  V30 37 H 11.803174 7.497475 -4.289224 0
M  V30 38 H 12.127926 6.059656 -5.295989 0
M  V30 39 H 8.840381 4.778656 -9.559530 0
M  V30 40 H 7.685950 6.061395 -9.848163 0
M  V30 41 H 8.263765 4.175966 -11.772365 0
M  V30 42 H 11.500777 3.623491 -14.574241 0
M  V30 43 H 11.355896 1.537920 -15.895079 0
M  V30 44 H 7.272851 3.370223 -13.715732 0
M  V30 45 H 6.092898 1.786075 -15.585566 0
M  V30 46 H 3.772143 -0.225889 -13.047355 0
M  V30 47 H 3.711356 0.931003 -14.351593 0
M  V30 48 H 4.899383 -1.902211 -14.492950 0
M  V30 49 H 3.329283 -1.437494 -15.118144 0
M  V30 50 H 7.037677 -1.027640 -15.222988 0
M  V30 51 H 7.755514 -1.128111 -17.587900 0
M  V30 52 H 7.531286 0.601527 -17.728060 0
M  V30 53 H 9.895653 0.132298 -17.264656 0
M  V30 54 H 9.498750 -0.830418 -15.861309 0
M  V30 55 H 11.156858 6.685483 -11.610380 0
M  V30 56 H 9.930897 7.381739 -12.646817 0
M  V30 57 H 9.100764 8.827310 -10.891294 0
M  V30 58 H 10.849444 8.971766 -10.911478 0
M  V30 59 H 10.246468 5.491121 -13.537894 0
M  V30 END ATOM
M  V30 BEGIN BOND
M  V30 1 1 2 1
M  V30 2 1 3 2
M  V30 3 1 4 3
M  V30 4 2 5 4
M  V30 5 1 6 5
M  V30 6 2 7 6
M  V30 7 2 8 3
M  V30 8 1 8 7
M  V30 9 1 9 8
M  V30 10 1 10 9
M  V30 11 1 11 6
M  V30 12 1 12 11
M  V30 13 2 13 12 CFG=2
M  V30 14 1 14 13
M  V30 15 1 15 14
M  V30 16 1 16 15
M  V30 17 2 17 16
M  V30 18 1 18 17
M  V30 19 2 19 18
M  V30 20 2 20 15
M  V30 21 1 20 19
M  V30 22 1 21 19
M  V30 23 1 22 21
M  V30 24 1 23 22
M  V30 25 1 24 23
M  V30 26 1 25 24
M  V30 27 1 26 21
M  V30 28 1 26 25
M  V30 29 1 27 26
M  V30 30 1 28 18
M  V30 31 1 28 27
M  V30 32 1 29 12
M  V30 33 1 30 5
M  V30 34 1 30 29
M  V30 35 1 31 1
M  V30 36 1 32 1
M  V30 37 1 33 1
M  V30 38 1 34 4
M  V30 39 1 35 7
M  V30 40 1 36 10
M  V30 41 1 37 10
M  V30 42 1 38 10
M  V30 43 1 39 11
M  V30 44 1 40 11
M  V30 45 1 41 13
M  V30 46 1 42 16
M  V30 47 1 43 17
M  V30 48 1 44 20
M  V30 49 1 21 45 CFG=3
M  V30 50 1 46 23
M  V30 51 1 47 23
M  V30 52 1 48 24
M  V30 53 1 49 24
M  V30 54 1 26 50 CFG=1
M  V30 55 1 51 27
M  V30 56 1 52 27
M  V30 57 1 53 28
M  V30 58 1 54 28
M  V30 59 1 55 29
M  V30 60 1 56 29
M  V30 61 1 57 30
M  V30 62 1 58 30
M  V30 63 1 59 14
M  V30 END BOND
M  V30 END CTAB
M  END
>  <b_m_subgroup_collapsed>  (2123) 
0

>  <r_i_docking_score>  (2123) 
-6.1874264137018304

>  <s_m_subgroup_title>  (2123) 
glide-dock_SP_D22_pv

>  <s_m_subgroupid>  (2123) 
glide-dock_SP_D22_pv

>  <Molecule ChEMBL ID>  (2123) 
CHEMBL241282

>  <Standard Type>  (2123) 
Ki

>  <Standard Value>  (2123) 
100000.0

>  <label>  (2123) 
0

$$$$
CHEMBL4469847
     RDKit          3D

  0  0  0  0  0  0  0  0  0  0999 V3000
M  V30 BEGIN CTAB
M  V30 COUNTS 33 35 0 0 1
M  V30 BEGIN ATOM
M  V30 1 C 8.485230 5.257121 -8.249002 0
M  V30 2 C 9.953568 5.624369 -8.511870 0
M  V30 3 N 10.214506 7.041551 -8.312733 0
M  V30 4 C 10.013666 7.709177 -7.166233 0
M  V30 5 N 10.403554 8.974937 -7.185339 0
M  V30 6 C 10.896312 9.144967 -8.475676 0
M  V30 7 C 10.786164 7.976187 -9.183271 0
M  V30 8 C 11.201008 7.674325 -10.546700 0
M  V30 9 C 12.396924 7.982098 -11.146156 0
M  V30 10 N 12.457858 7.372258 -12.392615 0
M  V30 11 C 11.291074 6.675952 -12.647233 0
M  V30 12 C 10.883657 5.805532 -13.675492 0
M  V30 13 C 9.563381 5.299473 -13.659966 0
M  V30 14 C 8.657634 5.671183 -12.634643 0
M  V30 15 C 7.251535 5.131442 -12.608890 0
M  V30 16 N 6.355711 5.772283 -11.847058 0
M  V30 17 O 6.934697 4.159622 -13.291464 0
M  V30 18 C 9.118919 6.498656 -11.591006 0
M  V30 19 C 10.443730 6.973360 -11.544996 0
M  V30 20 H 8.324352 4.186333 -8.372053 0
M  V30 21 H 8.170918 5.529763 -7.242767 0
M  V30 22 H 7.814401 5.772107 -8.934728 0
M  V30 23 H 10.247160 5.314935 -9.510173 0
M  V30 24 H 10.612842 5.075408 -7.846478 0
M  V30 25 H 9.590554 7.248582 -6.285236 0
M  V30 26 H 11.285972 10.093437 -8.808720 0
M  V30 27 H 13.240047 8.534835 -10.754015 0
M  V30 28 H 13.288499 7.368500 -12.972367 0
M  V30 29 H 11.558272 5.552136 -14.479740 0
M  V30 30 H 9.239882 4.641000 -14.453500 0
M  V30 31 H 6.570591 6.616265 -11.297996 0
M  V30 32 H 5.425490 5.394208 -11.778934 0
M  V30 33 H 8.472854 6.767220 -10.770600 0
M  V30 END ATOM
M  V30 BEGIN BOND
M  V30 1 1 2 1
M  V30 2 1 3 2
M  V30 3 1 4 3
M  V30 4 2 5 4
M  V30 5 1 6 5
M  V30 6 1 7 3
M  V30 7 2 7 6
M  V30 8 1 8 7
M  V30 9 2 9 8
M  V30 10 1 10 9
M  V30 11 1 11 10
M  V30 12 1 12 11
M  V30 13 2 13 12
M  V30 14 1 14 13
M  V30 15 1 15 14
M  V30 16 1 16 15
M  V30 17 2 17 15
M  V30 18 2 18 14
M  V30 19 1 19 8
M  V30 20 2 19 11
M  V30 21 1 19 18
M  V30 22 1 20 1
M  V30 23 1 21 1
M  V30 24 1 22 1
M  V30 25 1 23 2
M  V30 26 1 24 2
M  V30 27 1 25 4
M  V30 28 1 26 6
M  V30 29 1 27 9
M  V30 30 1 28 10
M  V30 31 1 29 12
M  V30 32 1 30 13
M  V30 33 1 31 16
M  V30 34 1 32 16
M  V30 35 1 33 18
M  V30 END BOND
M  V30 END CTAB
M  END
>  <b_m_subgroup_collapsed>  (2124) 
0

>  <r_i_docking_score>  (2124) 
-6.1864344269871898

>  <s_m_subgroup_title>  (2124) 
glide-dock_SP_D22_pv

>  <s_m_subgroupid>  (2124) 
glide-dock_SP_D22_pv

>  <Molecule ChEMBL ID>  (2124) 
CHEMBL4469847

>  <Standard Type>  (2124) 
Ki

>  <Standard Value>  (2124) 
10000.0

>  <label>  (2124) 
0

$$$$
CHEMBL4847432
     RDKit          3D

  0  0  0  0  0  0  0  0  0  0999 V3000
M  V30 BEGIN CTAB
M  V30 COUNTS 57 58 0 0 1
M  V30 BEGIN ATOM
M  V30 1 C 4.547856 2.144789 -13.040978 0
M  V30 2 C 4.999453 3.615637 -13.074019 0
M  V30 3 C 6.490718 3.840338 -13.276900 0
M  V30 4 C 7.219780 2.972526 -14.113230 0
M  V30 5 C 8.585757 3.171582 -14.329786 0
M  V30 6 Cl 9.452435 2.038762 -15.307783 0
M  V30 7 C 9.239024 4.276516 -13.752684 0
M  V30 8 O 10.578937 4.425326 -14.023254 0
M  V30 9 C 10.852435 5.142353 -15.219841 0
M  V30 10 C 8.525290 5.179976 -12.903081 0
M  V30 11 C 9.279265 6.313501 -12.246652 0
M  V30 12 O 10.494708 6.256075 -12.150181 0
M  V30 13 N 8.626538 7.407183 -11.835574 0
M  V30 14 C 9.280858 8.542006 -11.182740 0
M  V30 15 C 10.103724 8.208552 -9.901662 0 CFG=2
M  V30 16 C 9.286264 7.794092 -8.672832 0
M  V30 17 C 10.050836 8.325819 -7.452967 0 CFG=1
M  V30 18 O 10.524541 7.289304 -6.604298 0
M  V30 19 C 11.153148 7.797880 -5.433417 0
M  V30 20 C 11.553835 6.655722 -4.495903 0
M  V30 21 C 12.472826 7.136813 -3.363927 0
M  V30 22 C 11.785311 8.057472 -2.346064 0
M  V30 23 O 12.743894 8.572324 -1.448743 0
M  V30 24 C 11.216688 9.138026 -8.039437 0
M  V30 25 N 10.881495 9.372185 -9.448875 0 CHG=1
M  V30 26 C 7.137281 4.945233 -12.664444 0
M  V30 27 O 6.354904 5.768323 -11.887624 0
M  V30 28 H 3.460950 2.093054 -13.045259 0
M  V30 29 H 4.875492 1.557454 -13.890380 0
M  V30 30 H 4.916410 1.649011 -12.141829 0
M  V30 31 H 4.693465 4.080866 -12.142713 0
M  V30 32 H 4.484483 4.172856 -13.848868 0
M  V30 33 H 6.754015 2.134660 -14.603065 0
M  V30 34 H 11.930168 5.180069 -15.377966 0
M  V30 35 H 10.404652 4.666681 -16.093384 0
M  V30 36 H 10.488665 6.167338 -15.159314 0
M  V30 37 H 7.622884 7.463135 -11.953062 0
M  V30 38 H 9.940664 8.972175 -11.927285 0
M  V30 39 H 8.520449 9.294195 -10.964220 0
M  V30 40 H 10.848160 7.436476 -10.085358 0
M  V30 41 H 8.324421 8.295248 -8.688968 0
M  V30 42 H 9.097782 6.719989 -8.631188 0
M  V30 43 H 9.377478 8.973999 -6.888133 0
M  V30 44 H 12.046358 8.365978 -5.698734 0
M  V30 45 H 10.485536 8.488551 -4.920464 0
M  V30 46 H 10.664332 6.172299 -4.092716 0
M  V30 47 H 12.084854 5.898207 -5.075813 0
M  V30 48 H 12.882054 6.273247 -2.839465 0
M  V30 49 H 13.317888 7.657975 -3.809283 0
M  V30 50 H 11.286119 8.901608 -2.825774 0
M  V30 51 H 11.028474 7.494932 -1.796533 0
M  V30 52 H 13.158144 9.331071 -1.837341 0
M  V30 53 H 11.386832 10.061982 -7.488114 0
M  V30 54 H 12.140187 8.557606 -8.019863 0
M  V30 55 H 11.717798 9.509536 -10.005229 0
M  V30 56 H 6.726869 6.292329 -11.181545 0
M  V30 57 H 10.289297 10.186568 -9.501985 0
M  V30 END ATOM
M  V30 BEGIN BOND
M  V30 1 1 2 1
M  V30 2 1 3 2
M  V30 3 1 4 3
M  V30 4 2 5 4
M  V30 5 1 6 5
M  V30 6 1 7 5
M  V30 7 1 8 7
M  V30 8 1 9 8
M  V30 9 2 10 7
M  V30 10 1 11 10
M  V30 11 2 12 11
M  V30 12 1 13 11
M  V30 13 1 14 13
M  V30 14 1 15 14
M  V30 15 1 16 15
M  V30 16 1 17 16
M  V30 17 1 18 17
M  V30 18 1 19 18
M  V30 19 1 20 19
M  V30 20 1 21 20
M  V30 21 1 22 21
M  V30 22 1 23 22
M  V30 23 1 24 17
M  V30 24 1 25 15
M  V30 25 1 25 24
M  V30 26 2 26 3
M  V30 27 1 26 10
M  V30 28 1 27 26
M  V30 29 1 28 1
M  V30 30 1 29 1
M  V30 31 1 30 1
M  V30 32 1 31 2
M  V30 33 1 32 2
M  V30 34 1 33 4
M  V30 35 1 34 9
M  V30 36 1 35 9
M  V30 37 1 36 9
M  V30 38 1 37 13
M  V30 39 1 38 14
M  V30 40 1 39 14
M  V30 41 1 15 40 CFG=3
M  V30 42 1 41 16
M  V30 43 1 42 16
M  V30 44 1 17 43 CFG=1
M  V30 45 1 44 19
M  V30 46 1 45 19
M  V30 47 1 46 20
M  V30 48 1 47 20
M  V30 49 1 48 21
M  V30 50 1 49 21
M  V30 51 1 50 22
M  V30 52 1 51 22
M  V30 53 1 52 23
M  V30 54 1 53 24
M  V30 55 1 54 24
M  V30 56 1 55 25
M  V30 57 1 56 27
M  V30 58 1 57 25
M  V30 END BOND
M  V30 END CTAB
M  END
>  <b_m_subgroup_collapsed>  (2125) 
0

>  <r_i_docking_score>  (2125) 
-6.1858546347806298

>  <s_m_subgroup_title>  (2125) 
glide-dock_SP_D22_pv

>  <s_m_subgroupid>  (2125) 
glide-dock_SP_D22_pv

>  <Molecule ChEMBL ID>  (2125) 
CHEMBL4847432

>  <Standard Type>  (2125) 
Ki

>  <Standard Value>  (2125) 
1.9

>  <label>  (2125) 
1

$$$$
CHEMBL4565881
     RDKit          3D

  0  0  0  0  0  0  0  0  0  0999 V3000
M  V30 BEGIN CTAB
M  V30 COUNTS 29 31 0 0 1
M  V30 BEGIN ATOM
M  V30 1 C 11.820049 6.766417 -3.422750 0
M  V30 2 C 11.132368 6.671852 -4.795575 0
M  V30 3 N 11.250741 7.875049 -5.612881 0
M  V30 4 C 11.802749 9.052190 -5.267150 0
M  V30 5 N 11.854926 9.952301 -6.238172 0
M  V30 6 C 11.262029 9.303092 -7.314154 0
M  V30 7 C 10.820449 8.062349 -6.930844 0
M  V30 8 C 10.032229 7.106869 -7.707522 0
M  V30 9 C 9.016095 6.301400 -7.259468 0
M  V30 10 N 8.486499 5.578103 -8.310588 0
M  V30 11 C 9.100217 5.922114 -9.487815 0
M  V30 12 C 8.887230 5.505766 -10.815411 0
M  V30 13 C 9.686202 6.039302 -11.840533 0
M  V30 14 C 10.693376 6.972304 -11.529047 0
M  V30 15 F 11.524292 7.393919 -12.506874 0
M  V30 16 C 10.885856 7.395007 -10.196155 0
M  V30 17 C 10.095452 6.882051 -9.137262 0
M  V30 18 H 11.717252 5.831177 -2.873126 0
M  V30 19 H 12.886824 6.970277 -3.516080 0
M  V30 20 H 11.379441 7.550407 -2.806135 0
M  V30 21 H 10.079121 6.449753 -4.650184 0
M  V30 22 H 11.562483 5.843774 -5.359892 0
M  V30 23 H 12.214266 9.255707 -4.290032 0
M  V30 24 H 11.148152 9.772829 -8.277571 0
M  V30 25 H 8.598222 6.197656 -6.269204 0
M  V30 26 H 7.687140 4.962887 -8.225890 0
M  V30 27 H 8.109693 4.790775 -11.040347 0
M  V30 28 H 9.544829 5.716402 -12.862236 0
M  V30 29 H 11.665380 8.110702 -9.983454 0
M  V30 END ATOM
M  V30 BEGIN BOND
M  V30 1 1 2 1
M  V30 2 1 3 2
M  V30 3 1 4 3
M  V30 4 2 5 4
M  V30 5 1 6 5
M  V30 6 1 7 3
M  V30 7 2 7 6
M  V30 8 1 8 7
M  V30 9 2 9 8
M  V30 10 1 10 9
M  V30 11 1 11 10
M  V30 12 1 12 11
M  V30 13 2 13 12
M  V30 14 1 14 13
M  V30 15 1 15 14
M  V30 16 2 16 14
M  V30 17 1 17 8
M  V30 18 2 17 11
M  V30 19 1 17 16
M  V30 20 1 18 1
M  V30 21 1 19 1
M  V30 22 1 20 1
M  V30 23 1 21 2
M  V30 24 1 22 2
M  V30 25 1 23 4
M  V30 26 1 24 6
M  V30 27 1 25 9
M  V30 28 1 26 10
M  V30 29 1 27 12
M  V30 30 1 28 13
M  V30 31 1 29 16
M  V30 END BOND
M  V30 END CTAB
M  END
>  <b_m_subgroup_collapsed>  (2126) 
0

>  <r_i_docking_score>  (2126) 
-6.1850992154373703

>  <s_m_subgroup_title>  (2126) 
glide-dock_SP_D22_pv

>  <s_m_subgroupid>  (2126) 
glide-dock_SP_D22_pv

>  <Molecule ChEMBL ID>  (2126) 
CHEMBL4565881

>  <Standard Type>  (2126) 
Ki

>  <Standard Value>  (2126) 
10000.0

>  <label>  (2126) 
0

$$$$
CHEMBL597094
     RDKit          3D

  0  0  0  0  0  0  0  0  0  0999 V3000
M  V30 BEGIN CTAB
M  V30 COUNTS 44 48 0 0 1
M  V30 BEGIN ATOM
M  V30 1 C 5.937568 4.648515 -12.580794 0
M  V30 2 C 7.359360 4.500937 -12.031965 0 CFG=2
M  V30 3 C 7.984267 5.838437 -11.579073 0
M  V30 4 C 9.285789 5.822240 -12.298422 0
M  V30 5 C 10.311071 6.778449 -12.242643 0
M  V30 6 C 11.448911 6.571896 -13.049487 0
M  V30 7 C 11.531067 5.427776 -13.881171 0
M  V30 8 C 10.489199 4.466551 -13.929996 0
M  V30 9 C 9.355798 4.708733 -13.118747 0
M  V30 10 O 8.216816 3.953516 -13.047272 0
M  V30 11 C 10.629770 3.301481 -14.833793 0
M  V30 12 C 9.925384 2.086758 -14.644011 0
M  V30 13 C 10.059546 0.982121 -15.502788 0
M  V30 14 C 10.918680 1.050956 -16.605515 0
M  V30 15 C 11.665279 2.217320 -16.840338 0
M  V30 16 C 11.520291 3.311948 -15.941227 0
M  V30 17 C 12.329603 4.616873 -16.134642 0 CFG=1
M  V30 18 C 12.733370 5.241031 -14.778949 0
M  V30 19 N 13.495737 4.477873 -17.053650 0 CFG=2 CHG=1
M  V30 20 C 14.192041 5.754628 -17.359829 0
M  V30 21 C 13.081540 3.794678 -18.291590 0
M  V30 22 C 12.681198 2.362034 -17.964462 0
M  V30 23 H 5.286160 5.077325 -11.821437 0
M  V30 24 H 5.527189 3.681751 -12.872876 0
M  V30 25 H 5.911863 5.304731 -13.450051 0
M  V30 26 H 7.351772 3.801473 -11.193040 0
M  V30 27 H 7.396337 6.696990 -11.906165 0
M  V30 28 H 8.109492 5.892691 -10.496201 0
M  V30 29 H 10.228523 7.647336 -11.606682 0
M  V30 30 H 12.248987 7.297799 -13.030046 0
M  V30 31 H 9.266683 1.973996 -13.797954 0
M  V30 32 H 9.499299 0.080942 -15.308402 0
M  V30 33 H 11.028769 0.193021 -17.252485 0
M  V30 34 H 11.634538 5.310859 -16.613558 0
M  V30 35 H 13.214316 6.212203 -14.901494 0
M  V30 36 H 13.443193 4.594237 -14.260287 0
M  V30 37 H 13.494911 6.498925 -17.753231 0
M  V30 38 H 14.973063 5.598209 -18.106096 0
M  V30 39 H 14.688534 6.171461 -16.483931 0
M  V30 40 H 12.249400 4.330074 -18.755312 0
M  V30 41 H 13.896286 3.777050 -19.018274 0
M  V30 42 H 13.564797 1.781856 -17.699152 0
M  V30 43 H 12.274109 1.892063 -18.860836 0
M  V30 44 H 14.168565 3.877131 -16.593182 0
M  V30 END ATOM
M  V30 BEGIN BOND
M  V30 1 1 2 1
M  V30 2 1 3 2
M  V30 3 1 4 3
M  V30 4 1 5 4
M  V30 5 2 6 5
M  V30 6 1 7 6
M  V30 7 2 8 7
M  V30 8 2 9 4
M  V30 9 1 9 8
M  V30 10 1 10 2
M  V30 11 1 10 9
M  V30 12 1 11 8
M  V30 13 2 12 11
M  V30 14 1 13 12
M  V30 15 2 14 13
M  V30 16 1 15 14
M  V30 17 1 16 11
M  V30 18 2 16 15
M  V30 19 1 17 16
M  V30 20 1 18 7
M  V30 21 1 18 17
M  V30 22 1 19 17
M  V30 23 1 20 19
M  V30 24 1 21 19
M  V30 25 1 22 15
M  V30 26 1 22 21
M  V30 27 1 23 1
M  V30 28 1 24 1
M  V30 29 1 25 1
M  V30 30 1 2 26 CFG=1
M  V30 31 1 27 3
M  V30 32 1 28 3
M  V30 33 1 29 5
M  V30 34 1 30 6
M  V30 35 1 31 12
M  V30 36 1 32 13
M  V30 37 1 33 14
M  V30 38 1 17 34 CFG=3
M  V30 39 1 35 18
M  V30 40 1 36 18
M  V30 41 1 37 20
M  V30 42 1 38 20
M  V30 43 1 39 20
M  V30 44 1 40 21
M  V30 45 1 41 21
M  V30 46 1 42 22
M  V30 47 1 43 22
M  V30 48 1 19 44 CFG=1
M  V30 END BOND
M  V30 END CTAB
M  END
>  <b_m_subgroup_collapsed>  (2127) 
0

>  <r_i_docking_score>  (2127) 
-6.1840908021922001

>  <s_m_subgroup_title>  (2127) 
glide-dock_SP_D22_pv

>  <s_m_subgroupid>  (2127) 
glide-dock_SP_D22_pv

>  <Molecule ChEMBL ID>  (2127) 
CHEMBL597094

>  <Standard Type>  (2127) 
Ki

>  <Standard Value>  (2127) 
10000.0

>  <label>  (2127) 
0

$$$$
CHEMBL609317
     RDKit          3D

  0  0  0  0  0  0  0  0  0  0999 V3000
M  V30 BEGIN CTAB
M  V30 COUNTS 44 48 0 0 1
M  V30 BEGIN ATOM
M  V30 1 C 5.937568 4.648515 -12.580794 0
M  V30 2 C 7.359360 4.500937 -12.031965 0 CFG=2
M  V30 3 C 7.984267 5.838437 -11.579073 0
M  V30 4 C 9.285789 5.822240 -12.298422 0
M  V30 5 C 10.311071 6.778449 -12.242643 0
M  V30 6 C 11.448911 6.571896 -13.049487 0
M  V30 7 C 11.531067 5.427776 -13.881171 0
M  V30 8 C 10.489199 4.466551 -13.929996 0
M  V30 9 C 9.355798 4.708733 -13.118747 0
M  V30 10 O 8.216816 3.953516 -13.047272 0
M  V30 11 C 10.629770 3.301481 -14.833793 0
M  V30 12 C 9.925384 2.086758 -14.644011 0
M  V30 13 C 10.059546 0.982121 -15.502788 0
M  V30 14 C 10.918680 1.050956 -16.605515 0
M  V30 15 C 11.665279 2.217320 -16.840338 0
M  V30 16 C 11.520291 3.311948 -15.941227 0
M  V30 17 C 12.329603 4.616873 -16.134642 0 CFG=1
M  V30 18 C 12.733370 5.241031 -14.778949 0
M  V30 19 N 13.495737 4.477873 -17.053650 0 CFG=2 CHG=1
M  V30 20 C 14.192041 5.754628 -17.359829 0
M  V30 21 C 13.081540 3.794678 -18.291590 0
M  V30 22 C 12.681198 2.362034 -17.964462 0
M  V30 23 H 5.286160 5.077325 -11.821437 0
M  V30 24 H 5.527189 3.681751 -12.872876 0
M  V30 25 H 5.911863 5.304731 -13.450051 0
M  V30 26 H 7.351772 3.801473 -11.193040 0
M  V30 27 H 7.396337 6.696990 -11.906165 0
M  V30 28 H 8.109492 5.892691 -10.496201 0
M  V30 29 H 10.228523 7.647336 -11.606682 0
M  V30 30 H 12.248987 7.297799 -13.030046 0
M  V30 31 H 9.266683 1.973996 -13.797954 0
M  V30 32 H 9.499299 0.080942 -15.308402 0
M  V30 33 H 11.028769 0.193021 -17.252485 0
M  V30 34 H 11.634538 5.310859 -16.613558 0
M  V30 35 H 13.214316 6.212203 -14.901494 0
M  V30 36 H 13.443193 4.594237 -14.260287 0
M  V30 37 H 13.494911 6.498925 -17.753231 0
M  V30 38 H 14.973063 5.598209 -18.106096 0
M  V30 39 H 14.688534 6.171461 -16.483931 0
M  V30 40 H 12.249400 4.330074 -18.755312 0
M  V30 41 H 13.896286 3.777050 -19.018274 0
M  V30 42 H 13.564797 1.781856 -17.699152 0
M  V30 43 H 12.274109 1.892063 -18.860836 0
M  V30 44 H 14.168565 3.877131 -16.593182 0
M  V30 END ATOM
M  V30 BEGIN BOND
M  V30 1 1 2 1
M  V30 2 1 3 2
M  V30 3 1 4 3
M  V30 4 1 5 4
M  V30 5 2 6 5
M  V30 6 1 7 6
M  V30 7 2 8 7
M  V30 8 2 9 4
M  V30 9 1 9 8
M  V30 10 1 10 2
M  V30 11 1 10 9
M  V30 12 1 11 8
M  V30 13 2 12 11
M  V30 14 1 13 12
M  V30 15 2 14 13
M  V30 16 1 15 14
M  V30 17 1 16 11
M  V30 18 2 16 15
M  V30 19 1 17 16
M  V30 20 1 18 7
M  V30 21 1 18 17
M  V30 22 1 19 17
M  V30 23 1 20 19
M  V30 24 1 21 19
M  V30 25 1 22 15
M  V30 26 1 22 21
M  V30 27 1 23 1
M  V30 28 1 24 1
M  V30 29 1 25 1
M  V30 30 1 2 26 CFG=1
M  V30 31 1 27 3
M  V30 32 1 28 3
M  V30 33 1 29 5
M  V30 34 1 30 6
M  V30 35 1 31 12
M  V30 36 1 32 13
M  V30 37 1 33 14
M  V30 38 1 17 34 CFG=3
M  V30 39 1 35 18
M  V30 40 1 36 18
M  V30 41 1 37 20
M  V30 42 1 38 20
M  V30 43 1 39 20
M  V30 44 1 40 21
M  V30 45 1 41 21
M  V30 46 1 42 22
M  V30 47 1 43 22
M  V30 48 1 19 44 CFG=1
M  V30 END BOND
M  V30 END CTAB
M  END
>  <b_m_subgroup_collapsed>  (2128) 
0

>  <r_i_docking_score>  (2128) 
-6.1840908021922001

>  <s_m_subgroup_title>  (2128) 
glide-dock_SP_D22_pv

>  <s_m_subgroupid>  (2128) 
glide-dock_SP_D22_pv

>  <Molecule ChEMBL ID>  (2128) 
CHEMBL609317

>  <Standard Type>  (2128) 
Ki

>  <Standard Value>  (2128) 
10000.0

>  <label>  (2128) 
0

$$$$
CHEMBL4558215
     RDKit          3D

  0  0  0  0  0  0  0  0  0  0999 V3000
M  V30 BEGIN CTAB
M  V30 COUNTS 59 63 0 0 1
M  V30 BEGIN ATOM
M  V30 1 C 11.821377 8.574591 -8.171408 0
M  V30 2 C 10.528177 8.654964 -9.000235 0
M  V30 3 C 10.485165 7.627131 -10.134950 0
M  V30 4 O 11.513649 7.372662 -10.762938 0
M  V30 5 N 9.285905 7.066465 -10.370864 0
M  V30 6 C 8.939583 6.123557 -11.369030 0
M  V30 7 N 7.668733 5.772349 -11.539398 0
M  V30 8 C 7.611768 4.943662 -12.648649 0
M  V30 9 C 6.306046 4.457862 -13.184377 0
M  V30 10 C 8.923219 4.799317 -13.076830 0
M  V30 11 C 9.535909 4.130768 -14.224790 0
M  V30 12 C 10.648770 4.544364 -14.903939 0
M  V30 13 N 10.910428 3.700673 -15.967819 0
M  V30 14 S 12.210408 3.989461 -17.062807 0
M  V30 15 O 12.422032 2.746886 -17.820236 0
M  V30 16 O 13.286261 4.574178 -16.248119 0
M  V30 17 C 11.559982 5.245614 -18.156454 0
M  V30 18 C 12.294104 6.429874 -18.363359 0
M  V30 19 C 11.779337 7.429882 -19.210230 0
M  V30 20 C 10.530566 7.249784 -19.841175 0
M  V30 21 C 10.012833 8.251166 -20.688166 0
M  V30 22 C 8.757586 8.076849 -21.303667 0
M  V30 23 C 8.021003 6.897478 -21.082657 0
M  V30 24 C 8.539988 5.887812 -20.249081 0
M  V30 25 C 9.792733 6.058409 -19.624487 0
M  V30 26 C 10.311836 5.053594 -18.782049 0
M  V30 27 C 9.970620 2.675613 -15.983629 0
M  V30 28 C 9.770434 1.570768 -16.835936 0
M  V30 29 C 8.719662 0.671472 -16.584234 0
M  V30 30 C 7.861912 0.862957 -15.485974 0
M  V30 31 O 6.863344 -0.066967 -15.300854 0
M  V30 32 C 6.082788 0.006325 -14.116856 0
M  V30 33 C 8.063439 1.984252 -14.646272 0
M  V30 34 C 9.102960 2.919137 -14.871941 0
M  V30 35 N 9.753558 5.557966 -12.247280 0
M  V30 36 H 11.799623 9.290226 -7.350325 0
M  V30 37 H 11.956237 7.580903 -7.742743 0
M  V30 38 H 12.698928 8.797766 -8.779824 0
M  V30 39 H 10.431497 9.647883 -9.441270 0
M  V30 40 H 9.667100 8.519281 -8.343371 0
M  V30 41 H 8.509181 7.387205 -9.807407 0
M  V30 42 H 5.972203 3.567538 -12.649331 0
M  V30 43 H 5.534028 5.219172 -13.069003 0
M  V30 44 H 6.375405 4.220962 -14.245700 0
M  V30 45 H 11.271876 5.408396 -14.719937 0
M  V30 46 H 13.246471 6.576152 -17.875700 0
M  V30 47 H 12.339935 8.340635 -19.363195 0
M  V30 48 H 10.567006 9.161758 -20.860731 0
M  V30 49 H 8.361086 8.848180 -21.948372 0
M  V30 50 H 7.057723 6.764452 -21.553360 0
M  V30 51 H 7.969898 4.984948 -20.090906 0
M  V30 52 H 9.756025 4.143899 -18.610180 0
M  V30 53 H 10.421126 1.395382 -17.678680 0
M  V30 54 H 8.574154 -0.180088 -17.231201 0
M  V30 55 H 5.395201 -0.838969 -14.089020 0
M  V30 56 H 6.705623 -0.050647 -13.223916 0
M  V30 57 H 5.486304 0.919055 -14.086041 0
M  V30 58 H 7.423966 2.146786 -13.799252 0
M  V30 59 H 6.890384 6.210519 -11.046499 0
M  V30 END ATOM
M  V30 BEGIN BOND
M  V30 1 1 2 1
M  V30 2 1 3 2
M  V30 3 2 4 3
M  V30 4 1 5 3
M  V30 5 1 6 5
M  V30 6 1 7 6
M  V30 7 1 8 7
M  V30 8 1 9 8
M  V30 9 2 10 8
M  V30 10 1 11 10
M  V30 11 2 12 11
M  V30 12 1 13 12
M  V30 13 1 14 13
M  V30 14 2 15 14
M  V30 15 2 16 14
M  V30 16 1 17 14
M  V30 17 1 18 17
M  V30 18 2 19 18
M  V30 19 1 20 19
M  V30 20 2 21 20
M  V30 21 1 22 21
M  V30 22 2 23 22
M  V30 23 1 24 23
M  V30 24 1 25 20
M  V30 25 2 25 24
M  V30 26 2 26 17
M  V30 27 1 26 25
M  V30 28 1 27 13
M  V30 29 1 28 27
M  V30 30 2 29 28
M  V30 31 1 30 29
M  V30 32 1 31 30
M  V30 33 1 32 31
M  V30 34 2 33 30
M  V30 35 1 34 11
M  V30 36 2 34 27
M  V30 37 1 34 33
M  V30 38 2 35 6
M  V30 39 1 35 10
M  V30 40 1 36 1
M  V30 41 1 37 1
M  V30 42 1 38 1
M  V30 43 1 39 2
M  V30 44 1 40 2
M  V30 45 1 41 5
M  V30 46 1 42 9
M  V30 47 1 43 9
M  V30 48 1 44 9
M  V30 49 1 45 12
M  V30 50 1 46 18
M  V30 51 1 47 19
M  V30 52 1 48 21
M  V30 53 1 49 22
M  V30 54 1 50 23
M  V30 55 1 51 24
M  V30 56 1 52 26
M  V30 57 1 53 28
M  V30 58 1 54 29
M  V30 59 1 55 32
M  V30 60 1 56 32
M  V30 61 1 57 32
M  V30 62 1 58 33
M  V30 63 1 59 7
M  V30 END BOND
M  V30 END CTAB
M  END
>  <b_m_subgroup_collapsed>  (2129) 
0

>  <r_i_docking_score>  (2129) 
-6.1814219758649704

>  <s_m_subgroup_title>  (2129) 
glide-dock_SP_D22_pv

>  <s_m_subgroupid>  (2129) 
glide-dock_SP_D22_pv

>  <Molecule ChEMBL ID>  (2129) 
CHEMBL4558215

>  <Standard Type>  (2129) 
Ki

>  <Standard Value>  (2129) 
10000.0

>  <label>  (2129) 
0

$$$$
CHEMBL5273758
     RDKit          3D

  0  0  0  0  0  0  0  0  0  0999 V3000
M  V30 BEGIN CTAB
M  V30 COUNTS 43 46 0 0 1
M  V30 BEGIN ATOM
M  V30 1 C 5.912048 3.959858 -12.696104 0
M  V30 2 N 7.138825 4.124248 -13.509047 0 CFG=2 CHG=1
M  V30 3 C 7.547391 2.855113 -14.206417 0
M  V30 4 C 8.926802 2.913992 -14.948876 0
M  V30 5 C 10.018486 3.571570 -14.080922 0 CFG=1
M  V30 6 C 11.368870 3.839804 -14.730476 0
M  V30 7 C 12.113917 4.930582 -14.424841 0
M  V30 8 O 13.285842 5.098126 -15.046893 0
M  V30 9 C 11.644678 5.924053 -13.446814 0
M  V30 10 O 12.471824 6.869586 -12.967911 0
M  V30 11 C 10.358292 5.861403 -13.039356 0
M  V30 12 C 9.537323 6.741413 -12.099773 0 CFG=2
M  V30 13 C 10.048470 6.849122 -10.662179 0
M  V30 14 C 10.863316 7.945095 -10.300463 0
M  V30 15 C 11.286581 8.118320 -8.968068 0
M  V30 16 C 10.886971 7.199400 -7.979372 0
M  V30 17 C 10.086366 6.096000 -8.329546 0
M  V30 18 C 9.677804 5.916191 -9.665376 0
M  V30 19 C 8.088997 6.158755 -12.207526 0
M  V30 20 C 8.259095 4.723537 -12.739143 0 CFG=2
M  V30 21 C 9.416031 4.899429 -13.675238 0 CFG=2
M  V30 22 H 6.083749 3.286914 -11.853122 0
M  V30 23 H 5.099469 3.554764 -13.298953 0
M  V30 24 H 5.576979 4.916894 -12.294478 0
M  V30 25 H 7.575543 2.054072 -13.472212 0
M  V30 26 H 6.768126 2.575791 -14.916172 0
M  V30 27 H 9.234996 1.908149 -15.235990 0
M  V30 28 H 8.828216 3.469186 -15.882505 0
M  V30 29 H 10.207162 2.949074 -13.203918 0
M  V30 30 H 11.730819 3.111881 -15.442487 0
M  V30 31 H 13.635528 5.936227 -14.789472 0
M  V30 32 H 13.367697 6.564052 -13.052577 0
M  V30 33 H 9.527412 7.750096 -12.514600 0
M  V30 34 H 11.159650 8.667848 -11.045396 0
M  V30 35 H 11.909288 8.963235 -8.706460 0
M  V30 36 H 11.199024 7.336966 -6.954017 0
M  V30 37 H 9.781310 5.383494 -7.576362 0
M  V30 38 H 9.056957 5.066168 -9.902939 0
M  V30 39 H 7.525105 6.172959 -11.274557 0
M  V30 40 H 7.523206 6.753119 -12.926619 0
M  V30 41 H 8.537701 4.062034 -11.916200 0
M  V30 42 H 9.071510 5.424214 -14.571578 0
M  V30 43 H 6.914340 4.788567 -14.235803 0
M  V30 END ATOM
M  V30 BEGIN BOND
M  V30 1 1 2 1
M  V30 2 1 3 2
M  V30 3 1 4 3
M  V30 4 1 5 4
M  V30 5 1 6 5
M  V30 6 2 7 6
M  V30 7 1 8 7
M  V30 8 1 9 7
M  V30 9 1 10 9
M  V30 10 2 11 9
M  V30 11 1 12 11
M  V30 12 1 13 12
M  V30 13 2 14 13
M  V30 14 1 15 14
M  V30 15 2 16 15
M  V30 16 1 17 16
M  V30 17 1 18 13
M  V30 18 2 18 17
M  V30 19 1 19 12
M  V30 20 1 20 2
M  V30 21 1 20 19
M  V30 22 1 21 5
M  V30 23 1 21 11
M  V30 24 1 21 20
M  V30 25 1 22 1
M  V30 26 1 23 1
M  V30 27 1 24 1
M  V30 28 1 25 3
M  V30 29 1 26 3
M  V30 30 1 27 4
M  V30 31 1 28 4
M  V30 32 1 5 29 CFG=1
M  V30 33 1 30 6
M  V30 34 1 31 8
M  V30 35 1 32 10
M  V30 36 1 12 33 CFG=3
M  V30 37 1 34 14
M  V30 38 1 35 15
M  V30 39 1 36 16
M  V30 40 1 37 17
M  V30 41 1 38 18
M  V30 42 1 39 19
M  V30 43 1 40 19
M  V30 44 1 20 41 CFG=1
M  V30 45 1 21 42 CFG=3
M  V30 46 1 2 43 CFG=3
M  V30 END BOND
M  V30 END CTAB
M  END
>  <b_m_subgroup_collapsed>  (2130) 
0

>  <r_i_docking_score>  (2130) 
-6.18047336123748

>  <s_m_subgroup_title>  (2130) 
glide-dock_SP_D22_pv

>  <s_m_subgroupid>  (2130) 
glide-dock_SP_D22_pv

>  <Molecule ChEMBL ID>  (2130) 
CHEMBL5273758

>  <Standard Type>  (2130) 
Ki

>  <Standard Value>  (2130) 
12.88

>  <label>  (2130) 
1

$$$$
CHEMBL156164
     RDKit          3D

  0  0  0  0  0  0  0  0  0  0999 V3000
M  V30 BEGIN CTAB
M  V30 COUNTS 49 52 0 0 1
M  V30 BEGIN ATOM
M  V30 1 N 2.886104 -0.627968 -14.235797 0
M  V30 2 C 4.155381 -0.235386 -14.250053 0
M  V30 3 O 4.539670 0.656252 -13.496919 0
M  V30 4 C 5.119545 -0.977447 -15.206561 0 CFG=1
M  V30 5 C 4.364674 -1.465145 -16.475704 0
M  V30 6 C 5.309987 -2.093393 -17.506901 0
M  V30 7 S 6.524380 -0.898574 -18.147846 0
M  V30 8 C 6.336354 0.453431 -16.944063 0 CFG=2
M  V30 9 C 7.553717 1.385637 -16.909178 0
M  V30 10 C 8.321103 1.036485 -15.614698 0 CFG=1
M  V30 11 C 9.594975 0.216279 -15.895773 0
M  V30 12 C 10.677580 1.269401 -16.027626 0
M  V30 13 C 10.264930 2.337870 -15.019472 0
M  V30 14 N 8.804749 2.257911 -14.916549 0
M  V30 15 C 8.032729 3.155994 -14.246885 0
M  V30 16 O 6.810193 3.027253 -14.162197 0
M  V30 17 C 8.655216 4.432459 -13.629700 0 CFG=2
M  V30 18 C 9.684443 4.169051 -12.519559 0
M  V30 19 C 9.546761 5.353913 -11.573619 0
M  V30 20 C 8.089458 5.780735 -11.698859 0
M  V30 21 N 7.599266 5.246940 -12.983403 0 CHG=1
M  V30 22 C 7.309703 0.172128 -14.846888 0
M  V30 23 O 7.490901 -0.226452 -13.697275 0
M  V30 24 N 6.236085 -0.100651 -15.599406 0
M  V30 25 H 2.202205 -0.158323 -13.652607 0
M  V30 26 H 2.589943 -1.367588 -14.855269 0
M  V30 27 H 5.524594 -1.842727 -14.677612 0
M  V30 28 H 3.633138 -2.226962 -16.198711 0
M  V30 29 H 3.796447 -0.655632 -16.939657 0
M  V30 30 H 4.744723 -2.505828 -18.342714 0
M  V30 31 H 5.849230 -2.924286 -17.049442 0
M  V30 32 H 5.434203 1.009905 -17.189913 0
M  V30 33 H 7.207477 2.419177 -16.891787 0
M  V30 34 H 8.171498 1.288188 -17.802670 0
M  V30 35 H 9.836596 -0.441711 -15.057063 0
M  V30 36 H 9.514707 -0.411880 -16.784559 0
M  V30 37 H 10.659540 1.688281 -17.035078 0
M  V30 38 H 11.678713 0.877764 -15.849448 0
M  V30 39 H 10.614932 3.324186 -15.327803 0
M  V30 40 H 10.702775 2.101688 -14.048935 0
M  V30 41 H 9.103724 5.037474 -14.417854 0
M  V30 42 H 9.469840 3.244933 -11.984849 0
M  V30 43 H 10.704278 4.098071 -12.903085 0
M  V30 44 H 9.824969 5.111032 -10.546108 0
M  V30 45 H 10.195986 6.165403 -11.910933 0
M  V30 46 H 7.487369 5.366651 -10.888883 0
M  V30 47 H 7.994597 6.867026 -11.668237 0
M  V30 48 H 7.307945 5.998054 -13.591096 0
M  V30 49 H 6.813379 4.632613 -12.807331 0
M  V30 END ATOM
M  V30 BEGIN BOND
M  V30 1 1 2 1
M  V30 2 2 3 2
M  V30 3 1 4 2
M  V30 4 1 5 4
M  V30 5 1 6 5
M  V30 6 1 7 6
M  V30 7 1 8 7
M  V30 8 1 9 8
M  V30 9 1 10 9
M  V30 10 1 11 10
M  V30 11 1 12 11
M  V30 12 1 13 12
M  V30 13 1 10 14 CFG=1
M  V30 14 1 14 13
M  V30 15 1 15 14
M  V30 16 2 16 15
M  V30 17 1 17 15
M  V30 18 1 18 17
M  V30 19 1 19 18
M  V30 20 1 20 19
M  V30 21 1 21 17
M  V30 22 1 21 20
M  V30 23 1 22 10
M  V30 24 2 23 22
M  V30 25 1 24 4
M  V30 26 1 24 8
M  V30 27 1 24 22
M  V30 28 1 25 1
M  V30 29 1 26 1
M  V30 30 1 4 27 CFG=1
M  V30 31 1 28 5
M  V30 32 1 29 5
M  V30 33 1 30 6
M  V30 34 1 31 6
M  V30 35 1 8 32 CFG=3
M  V30 36 1 33 9
M  V30 37 1 34 9
M  V30 38 1 35 11
M  V30 39 1 36 11
M  V30 40 1 37 12
M  V30 41 1 38 12
M  V30 42 1 39 13
M  V30 43 1 40 13
M  V30 44 1 17 41 CFG=3
M  V30 45 1 42 18
M  V30 46 1 43 18
M  V30 47 1 44 19
M  V30 48 1 45 19
M  V30 49 1 46 20
M  V30 50 1 47 20
M  V30 51 1 48 21
M  V30 52 1 49 21
M  V30 END BOND
M  V30 END CTAB
M  END
>  <b_m_subgroup_collapsed>  (2131) 
0

>  <r_i_docking_score>  (2131) 
-6.1751063375000497

>  <s_m_subgroup_title>  (2131) 
glide-dock_SP_D22_pv

>  <s_m_subgroupid>  (2131) 
glide-dock_SP_D22_pv

>  <Molecule ChEMBL ID>  (2131) 
CHEMBL156164

>  <Standard Type>  (2131) 
Ki

>  <Standard Value>  (2131) 
0.031

>  <label>  (2131) 
1

$$$$
CHEMBL5646887
     RDKit          3D

  0  0  0  0  0  0  0  0  0  0999 V3000
M  V30 BEGIN CTAB
M  V30 COUNTS 69 70 0 0 1
M  V30 BEGIN ATOM
M  V30 1 C 3.748122 -0.661383 -18.303610 0
M  V30 2 C 4.933117 -0.294057 -17.791845 0
M  V30 3 C 5.858454 -1.222800 -17.018522 0
M  V30 4 N 6.083231 -0.818903 -15.601791 0 CFG=2 CHG=1
M  V30 5 C 4.877566 -0.847816 -14.741628 0
M  V30 6 C 4.911973 0.423821 -13.880704 0
M  V30 7 C 6.323504 1.007286 -14.035402 0 CFG=2
M  V30 8 O 6.383270 2.432585 -14.097369 0
M  V30 9 C 5.903985 3.178591 -12.988290 0
M  V30 10 C 6.030285 4.666820 -13.355423 0
M  V30 11 C 5.937095 5.630458 -12.162325 0
M  V30 12 N 7.212967 5.772357 -11.447756 0 CHG=1
M  V30 13 C 6.808701 0.460728 -15.389808 0 CFG=1
M  V30 14 C 8.332514 0.243900 -15.466886 0
M  V30 15 N 9.109764 1.478931 -15.398176 0
M  V30 16 C 10.346452 1.589778 -15.916771 0
M  V30 17 O 10.902829 0.658014 -16.502153 0
M  V30 18 C 10.996078 2.945928 -15.843345 0
M  V30 19 C 11.623656 3.445603 -17.003403 0
M  V30 20 C 12.217480 4.719796 -17.007776 0
M  V30 21 C 12.872964 5.260371 -18.266691 0
M  V30 22 C 14.399648 5.061845 -18.313681 0
M  V30 23 C 15.173675 5.851643 -17.246201 0
M  V30 24 F 16.485964 5.772051 -17.467293 0
M  V30 25 C 12.190078 5.499623 -15.838955 0
M  V30 26 C 11.617187 5.003850 -14.642139 0
M  V30 27 O 11.660616 5.722328 -13.463578 0
M  V30 28 C 12.247306 7.016530 -13.469111 0
M  V30 29 C 11.006984 3.714389 -14.648383 0
M  V30 30 O 10.467112 3.142335 -13.513838 0
M  V30 31 C 9.667767 3.973634 -12.684155 0
M  V30 32 H 3.364267 -1.664914 -18.180872 0
M  V30 33 H 3.140058 0.043252 -18.855850 0
M  V30 34 H 5.263897 0.724200 -17.942627 0
M  V30 35 H 5.453832 -2.236345 -17.026417 0
M  V30 36 H 6.813859 -1.275255 -17.540699 0
M  V30 37 H 3.948123 -0.884195 -15.324351 0
M  V30 38 H 4.905748 -1.755475 -14.126575 0
M  V30 39 H 4.148776 1.114943 -14.247386 0
M  V30 40 H 4.675360 0.202985 -12.836541 0
M  V30 41 H 6.945918 0.615742 -13.230338 0
M  V30 42 H 4.864664 2.934534 -12.761140 0
M  V30 43 H 6.487605 2.971972 -12.096180 0
M  V30 44 H 6.969126 4.837511 -13.881875 0
M  V30 45 H 5.244492 4.928984 -14.064590 0
M  V30 46 H 5.664069 6.626350 -12.519746 0
M  V30 47 H 5.173275 5.322168 -11.448825 0
M  V30 48 H 7.051281 6.536362 -10.780528 0
M  V30 49 H 7.427631 4.933017 -10.929327 0
M  V30 50 H 6.510813 1.168812 -16.166059 0
M  V30 51 H 8.666581 -0.394092 -14.653790 0
M  V30 52 H 8.564404 -0.283904 -16.392757 0
M  V30 53 H 8.706938 2.281763 -14.933514 0
M  V30 54 H 11.633738 2.852974 -17.907942 0
M  V30 55 H 12.420727 4.774198 -19.130526 0
M  V30 56 H 12.638132 6.320959 -18.364454 0
M  V30 57 H 14.638384 4.001520 -18.227755 0
M  V30 58 H 14.756526 5.377061 -19.295216 0
M  V30 59 H 14.915038 6.910788 -17.256920 0
M  V30 60 H 14.993543 5.457247 -16.246901 0
M  V30 61 H 12.649781 6.473834 -15.880549 0
M  V30 62 H 12.244472 7.418250 -12.457973 0
M  V30 63 H 13.280914 6.992335 -13.812652 0
M  V30 64 H 11.691119 7.704020 -14.105320 0
M  V30 65 H 10.258696 4.408588 -11.876311 0
M  V30 66 H 9.185367 4.769856 -13.258681 0
M  V30 67 H 8.880651 3.373852 -12.220797 0
M  V30 68 H 7.960641 6.032359 -12.069833 0
M  V30 69 H 6.692422 -1.546110 -15.236336 0
M  V30 END ATOM
M  V30 BEGIN BOND
M  V30 1 2 2 1
M  V30 2 1 3 2
M  V30 3 1 4 3
M  V30 4 1 5 4
M  V30 5 1 6 5
M  V30 6 1 7 6
M  V30 7 1 8 7
M  V30 8 1 9 8
M  V30 9 1 10 9
M  V30 10 1 11 10
M  V30 11 1 12 11
M  V30 12 1 13 4
M  V30 13 1 13 7
M  V30 14 1 14 13
M  V30 15 1 15 14
M  V30 16 1 16 15
M  V30 17 2 17 16
M  V30 18 1 18 16
M  V30 19 2 19 18
M  V30 20 1 20 19
M  V30 21 1 21 20
M  V30 22 1 22 21
M  V30 23 1 23 22
M  V30 24 1 24 23
M  V30 25 2 25 20
M  V30 26 1 26 25
M  V30 27 1 27 26
M  V30 28 1 28 27
M  V30 29 1 29 18
M  V30 30 2 29 26
M  V30 31 1 30 29
M  V30 32 1 31 30
M  V30 33 1 32 1
M  V30 34 1 33 1
M  V30 35 1 34 2
M  V30 36 1 35 3
M  V30 37 1 36 3
M  V30 38 1 37 5
M  V30 39 1 38 5
M  V30 40 1 39 6
M  V30 41 1 40 6
M  V30 42 1 7 41 CFG=1
M  V30 43 1 42 9
M  V30 44 1 43 9
M  V30 45 1 44 10
M  V30 46 1 45 10
M  V30 47 1 46 11
M  V30 48 1 47 11
M  V30 49 1 48 12
M  V30 50 1 49 12
M  V30 51 1 13 50 CFG=3
M  V30 52 1 51 14
M  V30 53 1 52 14
M  V30 54 1 53 15
M  V30 55 1 54 19
M  V30 56 1 55 21
M  V30 57 1 56 21
M  V30 58 1 57 22
M  V30 59 1 58 22
M  V30 60 1 59 23
M  V30 61 1 60 23
M  V30 62 1 61 25
M  V30 63 1 62 28
M  V30 64 1 63 28
M  V30 65 1 64 28
M  V30 66 1 65 31
M  V30 67 1 66 31
M  V30 68 1 67 31
M  V30 69 1 68 12
M  V30 70 1 4 69 CFG=1
M  V30 END BOND
M  V30 END CTAB
M  END
>  <b_m_subgroup_collapsed>  (2132) 
0

>  <r_i_docking_score>  (2132) 
-6.1730313131977397

>  <s_m_subgroup_title>  (2132) 
glide-dock_SP_D22_pv

>  <s_m_subgroupid>  (2132) 
glide-dock_SP_D22_pv

>  <Molecule ChEMBL ID>  (2132) 
CHEMBL5646887

>  <Standard Type>  (2132) 
Ki

>  <Standard Value>  (2132) 
21.4

>  <label>  (2132) 
1

$$$$
CHEMBL5273758
     RDKit          3D

  0  0  0  0  0  0  0  0  0  0999 V3000
M  V30 BEGIN CTAB
M  V30 COUNTS 43 46 0 0 1
M  V30 BEGIN ATOM
M  V30 1 C 5.973416 5.246632 -11.999961 0
M  V30 2 N 7.265645 4.570708 -12.250901 0 CFG=1 CHG=1
M  V30 3 C 7.273441 3.857519 -13.558805 0
M  V30 4 C 8.642921 3.259048 -13.958315 0
M  V30 5 C 9.650468 4.395620 -13.971802 0 CFG=2
M  V30 6 C 11.059464 4.114685 -14.476928 0
M  V30 7 C 12.040344 5.006319 -14.213551 0
M  V30 8 O 13.283944 4.799635 -14.651548 0
M  V30 9 C 11.724392 6.210478 -13.446960 0
M  V30 10 O 12.419614 7.339758 -13.646673 0
M  V30 11 C 10.634386 6.192019 -12.649481 0
M  V30 12 C 9.892454 7.373320 -12.068134 0 CFG=2
M  V30 13 C 10.337591 7.690648 -10.632160 0
M  V30 14 C 9.488200 7.528304 -9.513911 0
M  V30 15 C 9.922789 7.833005 -8.209416 0
M  V30 16 C 11.229980 8.304561 -8.000916 0
M  V30 17 C 12.090227 8.470452 -9.100756 0
M  V30 18 C 11.648687 8.168185 -10.405877 0
M  V30 19 C 8.426109 6.918458 -12.307405 0
M  V30 20 C 8.450047 5.426756 -11.939082 0 CFG=2
M  V30 21 C 9.767909 4.957230 -12.554580 0 CFG=1
M  V30 22 H 5.745331 5.977571 -12.774155 0
M  V30 23 H 5.985240 5.767903 -11.047678 0
M  V30 24 H 5.165369 4.520983 -11.966449 0
M  V30 25 H 6.518211 3.071639 -13.545694 0
M  V30 26 H 6.959573 4.570077 -14.315065 0
M  V30 27 H 8.960553 2.475690 -13.275188 0
M  V30 28 H 8.572162 2.802618 -14.946310 0
M  V30 29 H 9.257604 5.163385 -14.640925 0
M  V30 30 H 11.239298 3.218122 -15.053742 0
M  V30 31 H 13.859179 5.371663 -14.158642 0
M  V30 32 H 13.015973 7.184942 -14.363914 0
M  V30 33 H 10.080308 8.272274 -12.647565 0
M  V30 34 H 8.485809 7.166875 -9.635068 0
M  V30 35 H 9.248065 7.702606 -7.375933 0
M  V30 36 H 11.570035 8.541323 -7.003537 0
M  V30 37 H 13.095244 8.838543 -8.945839 0
M  V30 38 H 12.326060 8.315464 -11.231895 0
M  V30 39 H 7.686014 7.551571 -11.845427 0
M  V30 40 H 8.171207 6.973156 -13.364950 0
M  V30 41 H 8.551976 5.352969 -10.857316 0
M  V30 42 H 10.234292 4.221395 -11.897004 0
M  V30 43 H 7.314386 3.837013 -11.557944 0
M  V30 END ATOM
M  V30 BEGIN BOND
M  V30 1 1 2 1
M  V30 2 1 3 2
M  V30 3 1 4 3
M  V30 4 1 5 4
M  V30 5 1 6 5
M  V30 6 2 7 6
M  V30 7 1 8 7
M  V30 8 1 9 7
M  V30 9 1 10 9
M  V30 10 2 11 9
M  V30 11 1 12 11
M  V30 12 1 13 12
M  V30 13 2 14 13
M  V30 14 1 15 14
M  V30 15 2 16 15
M  V30 16 1 17 16
M  V30 17 1 18 13
M  V30 18 2 18 17
M  V30 19 1 19 12
M  V30 20 1 20 2
M  V30 21 1 20 19
M  V30 22 1 21 5
M  V30 23 1 21 11
M  V30 24 1 21 20
M  V30 25 1 22 1
M  V30 26 1 23 1
M  V30 27 1 24 1
M  V30 28 1 25 3
M  V30 29 1 26 3
M  V30 30 1 27 4
M  V30 31 1 28 4
M  V30 32 1 5 29 CFG=3
M  V30 33 1 30 6
M  V30 34 1 31 8
M  V30 35 1 32 10
M  V30 36 1 12 33 CFG=3
M  V30 37 1 34 14
M  V30 38 1 35 15
M  V30 39 1 36 16
M  V30 40 1 37 17
M  V30 41 1 38 18
M  V30 42 1 39 19
M  V30 43 1 40 19
M  V30 44 1 20 41 CFG=1
M  V30 45 1 21 42 CFG=1
M  V30 46 1 2 43 CFG=1
M  V30 END BOND
M  V30 END CTAB
M  END
>  <b_m_subgroup_collapsed>  (2133) 
0

>  <r_i_docking_score>  (2133) 
-6.1710500144104001

>  <s_m_subgroup_title>  (2133) 
glide-dock_SP_D22_pv

>  <s_m_subgroupid>  (2133) 
glide-dock_SP_D22_pv

>  <Molecule ChEMBL ID>  (2133) 
CHEMBL5273758

>  <Standard Type>  (2133) 
Ki

>  <Standard Value>  (2133) 
12.88

>  <label>  (2133) 
1

$$$$
CHEMBL4544802
     RDKit          3D

  0  0  0  0  0  0  0  0  0  0999 V3000
M  V30 BEGIN CTAB
M  V30 COUNTS 35 37 0 0 1
M  V30 BEGIN ATOM
M  V30 1 C 10.198063 0.241286 -15.389962 0
M  V30 2 C 10.406520 1.491969 -14.528040 0
M  V30 3 N 10.558531 2.700607 -15.319433 0
M  V30 4 C 11.462521 2.881957 -16.294924 0
M  V30 5 N 11.449680 4.083933 -16.852995 0
M  V30 6 C 10.451829 4.756485 -16.156992 0
M  V30 7 C 9.896292 3.927764 -15.207314 0
M  V30 8 C 8.872347 4.237136 -14.211832 0
M  V30 9 C 8.860473 5.362552 -13.423055 0
M  V30 10 N 7.744303 5.360680 -12.608227 0
M  V30 11 C 6.997674 4.226537 -12.827928 0
M  V30 12 C 5.809126 3.762011 -12.247055 0
M  V30 13 C 5.286473 2.522050 -12.647458 0
M  V30 14 C 5.929759 1.755551 -13.644827 0
M  V30 15 C 5.363503 0.422840 -14.012682 0
M  V30 16 O 4.389611 -0.078252 -13.446832 0
M  V30 17 O 6.008804 -0.167631 -15.035119 0
M  V30 18 C 5.546223 -1.419784 -15.518139 0
M  V30 19 C 7.093320 2.277359 -14.263565 0
M  V30 20 C 7.681268 3.499291 -13.846747 0
M  V30 21 H 10.044834 -0.629431 -14.756625 0
M  V30 22 H 9.322760 0.340600 -16.031754 0
M  V30 23 H 11.061831 0.040727 -16.023190 0
M  V30 24 H 11.285984 1.380931 -13.898760 0
M  V30 25 H 9.573267 1.601881 -13.846102 0
M  V30 26 H 12.159274 2.113930 -16.599871 0
M  V30 27 H 10.219019 5.785485 -16.382296 0
M  V30 28 H 9.572675 6.171970 -13.374457 0
M  V30 29 H 7.530065 6.088490 -11.935045 0
M  V30 30 H 5.320873 4.339056 -11.473836 0
M  V30 31 H 4.384007 2.168101 -12.179744 0
M  V30 32 H 6.094066 -1.702099 -16.416285 0
M  V30 33 H 5.688009 -2.200520 -14.770354 0
M  V30 34 H 4.486939 -1.374181 -15.775068 0
M  V30 35 H 7.584858 1.720035 -15.045797 0
M  V30 END ATOM
M  V30 BEGIN BOND
M  V30 1 1 2 1
M  V30 2 1 3 2
M  V30 3 1 4 3
M  V30 4 2 5 4
M  V30 5 1 6 5
M  V30 6 1 7 3
M  V30 7 2 7 6
M  V30 8 1 8 7
M  V30 9 2 9 8
M  V30 10 1 10 9
M  V30 11 1 11 10
M  V30 12 1 12 11
M  V30 13 2 13 12
M  V30 14 1 14 13
M  V30 15 1 15 14
M  V30 16 2 16 15
M  V30 17 1 17 15
M  V30 18 1 18 17
M  V30 19 2 19 14
M  V30 20 1 20 8
M  V30 21 2 20 11
M  V30 22 1 20 19
M  V30 23 1 21 1
M  V30 24 1 22 1
M  V30 25 1 23 1
M  V30 26 1 24 2
M  V30 27 1 25 2
M  V30 28 1 26 4
M  V30 29 1 27 6
M  V30 30 1 28 9
M  V30 31 1 29 10
M  V30 32 1 30 12
M  V30 33 1 31 13
M  V30 34 1 32 18
M  V30 35 1 33 18
M  V30 36 1 34 18
M  V30 37 1 35 19
M  V30 END BOND
M  V30 END CTAB
M  END
>  <b_m_subgroup_collapsed>  (2134) 
0

>  <r_i_docking_score>  (2134) 
-6.1708800627934597

>  <s_m_subgroup_title>  (2134) 
glide-dock_SP_D22_pv

>  <s_m_subgroupid>  (2134) 
glide-dock_SP_D22_pv

>  <Molecule ChEMBL ID>  (2134) 
CHEMBL4544802

>  <Standard Type>  (2134) 
Ki

>  <Standard Value>  (2134) 
10000.0

>  <label>  (2134) 
0

$$$$
CHEMBL4442148
     RDKit          3D

  0  0  0  0  0  0  0  0  0  0999 V3000
M  V30 BEGIN CTAB
M  V30 COUNTS 48 52 0 0 1
M  V30 BEGIN ATOM
M  V30 1 C 5.304131 1.500101 -13.366136 0
M  V30 2 O 5.110425 2.876853 -13.065803 0
M  V30 3 C 6.222203 3.687277 -13.100886 0
M  V30 4 C 6.175988 4.876214 -12.353706 0
M  V30 5 C 7.316449 5.681881 -12.237634 0
M  V30 6 C 8.529644 5.261522 -12.802717 0
M  V30 7 C 8.607269 4.101507 -13.627919 0
M  V30 8 C 7.406911 3.371448 -13.813275 0
M  V30 9 C 9.967143 3.984543 -14.093406 0
M  V30 10 C 10.460410 2.999269 -15.061004 0
M  V30 11 N 11.404230 3.427505 -15.992486 0
M  V30 12 C 11.630589 2.408712 -16.814571 0
M  V30 13 N 12.435780 2.357337 -17.890390 0
M  V30 14 C 12.462017 1.218602 -18.571840 0
M  V30 15 C 11.699387 0.073993 -18.241529 0
M  V30 16 C 10.885981 0.136677 -17.133703 0
M  V30 17 N 10.853446 1.297023 -16.417278 0
M  V30 18 C 10.155975 1.672069 -15.278650 0
M  V30 19 C 9.281396 0.700520 -14.549807 0
M  V30 20 C 10.662802 5.004415 -13.491283 0
M  V30 21 N 9.811289 5.773444 -12.709186 0
M  V30 22 S 10.281121 7.201072 -11.847049 0
M  V30 23 O 11.713021 7.372275 -12.146318 0
M  V30 24 O 9.306337 8.233852 -12.228045 0
M  V30 25 C 10.118154 6.887798 -10.089732 0
M  V30 26 C 10.789000 7.764343 -9.208894 0
M  V30 27 C 10.637583 7.610286 -7.816373 0
M  V30 28 C 9.807440 6.590219 -7.308753 0
M  V30 29 C 9.149445 5.711958 -8.193312 0
M  V30 30 C 9.316890 5.844653 -9.581562 0
M  V30 31 H 4.367593 0.964313 -13.222739 0
M  V30 32 H 5.615756 1.335357 -14.395827 0
M  V30 33 H 6.044920 1.054850 -12.700691 0
M  V30 34 H 5.286012 5.151631 -11.811336 0
M  V30 35 H 7.285705 6.572403 -11.628316 0
M  V30 36 H 7.432471 2.514499 -14.462397 0
M  V30 37 H 13.115551 1.196848 -19.437922 0
M  V30 38 H 11.755333 -0.828294 -18.842381 0
M  V30 39 H 10.261675 -0.683638 -16.795179 0
M  V30 40 H 8.937379 1.104042 -13.598595 0
M  V30 41 H 8.405688 0.440337 -15.148366 0
M  V30 42 H 9.823492 -0.220531 -14.328504 0
M  V30 43 H 11.707227 5.262412 -13.593326 0
M  V30 44 H 11.404519 8.560826 -9.602673 0
M  V30 45 H 11.143688 8.284166 -7.140160 0
M  V30 46 H 9.672819 6.481359 -6.241302 0
M  V30 47 H 8.506006 4.932637 -7.817991 0
M  V30 48 H 8.804657 5.147343 -10.222118 0
M  V30 END ATOM
M  V30 BEGIN BOND
M  V30 1 1 2 1
M  V30 2 1 3 2
M  V30 3 1 4 3
M  V30 4 2 5 4
M  V30 5 1 6 5
M  V30 6 2 7 6
M  V30 7 2 8 3
M  V30 8 1 8 7
M  V30 9 1 9 7
M  V30 10 1 10 9
M  V30 11 1 11 10
M  V30 12 2 12 11
M  V30 13 1 13 12
M  V30 14 2 14 13
M  V30 15 1 15 14
M  V30 16 2 16 15
M  V30 17 1 17 12
M  V30 18 1 17 16
M  V30 19 2 18 10
M  V30 20 1 18 17
M  V30 21 1 19 18
M  V30 22 2 20 9
M  V30 23 1 21 6
M  V30 24 1 21 20
M  V30 25 1 22 21
M  V30 26 2 23 22
M  V30 27 2 24 22
M  V30 28 1 25 22
M  V30 29 2 26 25
M  V30 30 1 27 26
M  V30 31 2 28 27
M  V30 32 1 29 28
M  V30 33 1 30 25
M  V30 34 2 30 29
M  V30 35 1 31 1
M  V30 36 1 32 1
M  V30 37 1 33 1
M  V30 38 1 34 4
M  V30 39 1 35 5
M  V30 40 1 36 8
M  V30 41 1 37 14
M  V30 42 1 38 15
M  V30 43 1 39 16
M  V30 44 1 40 19
M  V30 45 1 41 19
M  V30 46 1 42 19
M  V30 47 1 43 20
M  V30 48 1 44 26
M  V30 49 1 45 27
M  V30 50 1 46 28
M  V30 51 1 47 29
M  V30 52 1 48 30
M  V30 END BOND
M  V30 END CTAB
M  END
>  <b_m_subgroup_collapsed>  (2135) 
0

>  <r_i_docking_score>  (2135) 
-6.1705490052304004

>  <s_m_subgroup_title>  (2135) 
glide-dock_SP_D22_pv

>  <s_m_subgroupid>  (2135) 
glide-dock_SP_D22_pv

>  <Molecule ChEMBL ID>  (2135) 
CHEMBL4442148

>  <Standard Type>  (2135) 
Ki

>  <Standard Value>  (2135) 
10000.0

>  <label>  (2135) 
0

$$$$
CHEMBL4096141
     RDKit          3D

  0  0  0  0  0  0  0  0  0  0999 V3000
M  V30 BEGIN CTAB
M  V30 COUNTS 39 42 0 0 1
M  V30 BEGIN ATOM
M  V30 1 C 11.154371 2.084232 -14.699509 0
M  V30 2 C 9.787458 2.633505 -14.355458 0
M  V30 3 C 8.603610 1.881883 -14.647083 0
M  V30 4 C 8.714215 0.492223 -15.260116 0
M  V30 5 O 7.499029 -0.227674 -15.240751 0
M  V30 6 O 7.323737 2.355397 -14.355352 0
M  V30 7 C 7.236144 3.574763 -13.720345 0
M  V30 8 C 6.039511 4.198596 -13.308754 0
M  V30 9 C 6.086138 5.449380 -12.643754 0
M  V30 10 C 7.305612 6.096839 -12.372424 0
M  V30 11 C 8.506074 5.489850 -12.756486 0
M  V30 12 C 8.389185 4.288579 -13.404118 0
M  V30 13 C 9.658620 3.881417 -13.693006 0
M  V30 14 C 10.583741 4.797075 -13.237790 0
M  V30 15 N 9.806379 5.813083 -12.619712 0
M  V30 16 S 10.397491 7.255320 -11.851628 0
M  V30 17 O 11.811230 7.369410 -12.247523 0
M  V30 18 O 9.441958 8.318212 -12.200348 0
M  V30 19 C 10.322266 6.991881 -10.078341 0
M  V30 20 C 11.245903 7.684852 -9.268449 0
M  V30 21 C 11.191303 7.545596 -7.867545 0
M  V30 22 C 10.213340 6.717333 -7.278840 0
M  V30 23 C 9.285648 6.035429 -8.090394 0
M  V30 24 C 9.339794 6.167148 -9.491624 0
M  V30 25 H 11.953547 2.769208 -14.423136 0
M  V30 26 H 11.286041 1.150200 -14.157625 0
M  V30 27 H 11.237219 1.886308 -15.768679 0
M  V30 28 H 9.446819 -0.096803 -14.706260 0
M  V30 29 H 9.067052 0.573375 -16.289686 0
M  V30 30 H 7.679756 -1.143072 -15.446970 0
M  V30 31 H 5.089021 3.721420 -13.495509 0
M  V30 32 H 5.202805 5.947677 -12.309302 0
M  V30 33 H 7.306473 7.036476 -11.847085 0
M  V30 34 H 11.663207 4.838538 -13.270879 0
M  V30 35 H 11.985375 8.330002 -9.719787 0
M  V30 36 H 11.895445 8.077669 -7.245228 0
M  V30 37 H 10.164570 6.615485 -6.203934 0
M  V30 38 H 8.522388 5.415708 -7.640855 0
M  V30 39 H 8.608426 5.646678 -10.088504 0
M  V30 END ATOM
M  V30 BEGIN BOND
M  V30 1 1 2 1
M  V30 2 2 3 2
M  V30 3 1 4 3
M  V30 4 1 5 4
M  V30 5 1 6 3
M  V30 6 1 7 6
M  V30 7 1 8 7
M  V30 8 2 9 8
M  V30 9 1 10 9
M  V30 10 2 11 10
M  V30 11 2 12 7
M  V30 12 1 12 11
M  V30 13 1 13 2
M  V30 14 1 13 12
M  V30 15 2 14 13
M  V30 16 1 15 11
M  V30 17 1 15 14
M  V30 18 1 16 15
M  V30 19 2 17 16
M  V30 20 2 18 16
M  V30 21 1 19 16
M  V30 22 2 20 19
M  V30 23 1 21 20
M  V30 24 2 22 21
M  V30 25 1 23 22
M  V30 26 1 24 19
M  V30 27 2 24 23
M  V30 28 1 25 1
M  V30 29 1 26 1
M  V30 30 1 27 1
M  V30 31 1 28 4
M  V30 32 1 29 4
M  V30 33 1 30 5
M  V30 34 1 31 8
M  V30 35 1 32 9
M  V30 36 1 33 10
M  V30 37 1 34 14
M  V30 38 1 35 20
M  V30 39 1 36 21
M  V30 40 1 37 22
M  V30 41 1 38 23
M  V30 42 1 39 24
M  V30 END BOND
M  V30 END CTAB
M  END
>  <b_m_subgroup_collapsed>  (2136) 
0

>  <r_i_docking_score>  (2136) 
-6.1696452041257803

>  <s_m_subgroup_title>  (2136) 
glide-dock_SP_D22_pv

>  <s_m_subgroupid>  (2136) 
glide-dock_SP_D22_pv

>  <Molecule ChEMBL ID>  (2136) 
CHEMBL4096141

>  <Standard Type>  (2136) 
Ki

>  <Standard Value>  (2136) 
10000.0

>  <label>  (2136) 
0

$$$$
CHEMBL1744088
     RDKit          3D

  0  0  0  0  0  0  0  0  0  0999 V3000
M  V30 BEGIN CTAB
M  V30 COUNTS 70 73 0 0 1
M  V30 BEGIN ATOM
M  V30 1 C 8.740753 5.415756 -8.274577 0
M  V30 2 C 9.056497 5.749669 -9.736131 0
M  V30 3 C 8.792246 4.573134 -10.702041 0
M  V30 4 N 8.630379 4.907039 -12.155947 0 CFG=2 CHG=1
M  V30 5 C 7.836247 3.856097 -12.901005 0
M  V30 6 C 6.436798 3.452871 -12.367823 0
M  V30 7 C 5.673142 2.522429 -13.350894 0
M  V30 8 C 6.169846 1.050922 -13.442021 0
M  V30 9 N 5.606821 0.307949 -14.602503 0
M  V30 10 C 4.368427 -0.255383 -14.490458 0
M  V30 11 O 3.727210 -0.228032 -13.447060 0
M  V30 12 C 3.689745 -0.942138 -15.686118 0
M  V30 13 C 4.681383 -1.490441 -16.718889 0
M  V30 14 C 5.327143 -2.771821 -16.159826 0
M  V30 15 C 3.934793 -1.846452 -18.018475 0
M  V30 16 C 5.735999 -0.405217 -17.013550 0
M  V30 17 C 6.331408 0.255013 -15.756567 0
M  V30 18 O 7.441700 0.777641 -15.868826 0
M  V30 19 C 9.939932 5.210030 -12.860017 0 CFG=2
M  V30 20 C 10.582494 6.564215 -12.469877 0
M  V30 21 C 11.940091 6.799653 -13.150955 0
M  V30 22 C 11.961654 6.499265 -14.635118 0
M  V30 23 C 12.960526 7.082078 -15.437949 0
M  V30 24 C 13.006405 6.829878 -16.819197 0
M  V30 25 C 12.034036 5.998459 -17.396181 0
M  V30 26 N 11.808724 5.595430 -18.699970 0
M  V30 27 C 10.687009 4.791748 -18.743359 0
M  V30 28 C 10.170019 4.228443 -19.925320 0
M  V30 29 N 9.742397 3.764280 -20.894949 0
M  V30 30 C 10.153892 4.630080 -17.496340 0
M  V30 31 C 11.000322 5.393331 -16.614670 0
M  V30 32 C 10.987275 5.663673 -15.222762 0
M  V30 33 C 9.828307 5.124046 -14.408747 0
M  V30 34 H 9.010648 6.242842 -7.615731 0
M  V30 35 H 7.685986 5.220268 -8.127026 0
M  V30 36 H 9.286023 4.534411 -7.942884 0
M  V30 37 H 10.108373 6.010150 -9.708168 0
M  V30 38 H 8.487784 6.632476 -10.032591 0
M  V30 39 H 7.854373 4.172101 -10.336669 0
M  V30 40 H 9.566028 3.810365 -10.577831 0
M  V30 41 H 7.605568 4.226949 -13.895926 0
M  V30 42 H 8.460971 2.972795 -13.046655 0
M  V30 43 H 6.481747 2.972696 -11.393681 0
M  V30 44 H 5.846750 4.358871 -12.218584 0
M  V30 45 H 4.623974 2.505012 -13.052220 0
M  V30 46 H 5.689208 2.978043 -14.339836 0
M  V30 47 H 7.258956 1.021251 -13.468739 0
M  V30 48 H 5.931305 0.535044 -12.508919 0
M  V30 49 H 3.052825 -1.750684 -15.320338 0
M  V30 50 H 3.012091 -0.227760 -16.141273 0
M  V30 51 H 6.085464 -3.166352 -16.836147 0
M  V30 52 H 5.788109 -2.607518 -15.187483 0
M  V30 53 H 4.587795 -3.551935 -16.009037 0
M  V30 54 H 4.622168 -2.214327 -18.781315 0
M  V30 55 H 3.191580 -2.627935 -17.846972 0
M  V30 56 H 3.411789 -0.983727 -18.437050 0
M  V30 57 H 6.543779 -0.820878 -17.616903 0
M  V30 58 H 5.289229 0.393046 -17.608387 0
M  V30 59 H 10.644746 4.426426 -12.577448 0
M  V30 60 H 9.891231 7.387150 -12.646711 0
M  V30 61 H 10.817341 6.632905 -11.423606 0
M  V30 62 H 12.690516 6.167788 -12.678599 0
M  V30 63 H 12.268573 7.821087 -12.978125 0
M  V30 64 H 13.686004 7.736978 -14.987432 0
M  V30 65 H 13.769027 7.285452 -17.431908 0
M  V30 66 H 12.346194 5.853674 -19.515471 0
M  V30 67 H 9.279960 4.057245 -17.221449 0
M  V30 68 H 8.956784 5.685362 -14.745407 0
M  V30 69 H 9.691047 4.087906 -14.722616 0
M  V30 70 H 8.066008 5.744936 -12.188412 0
M  V30 END ATOM
M  V30 BEGIN BOND
M  V30 1 1 2 1
M  V30 2 1 3 2
M  V30 3 1 4 3
M  V30 4 1 5 4
M  V30 5 1 6 5
M  V30 6 1 7 6
M  V30 7 1 8 7
M  V30 8 1 9 8
M  V30 9 1 10 9
M  V30 10 2 11 10
M  V30 11 1 12 10
M  V30 12 1 13 12
M  V30 13 1 14 13
M  V30 14 1 15 13
M  V30 15 1 16 13
M  V30 16 1 17 9
M  V30 17 1 17 16
M  V30 18 2 18 17
M  V30 19 1 19 4
M  V30 20 1 20 19
M  V30 21 1 21 20
M  V30 22 1 22 21
M  V30 23 1 23 22
M  V30 24 2 24 23
M  V30 25 1 25 24
M  V30 26 1 26 25
M  V30 27 1 27 26
M  V30 28 1 28 27
M  V30 29 3 29 28
M  V30 30 2 30 27
M  V30 31 2 31 25
M  V30 32 1 31 30
M  V30 33 2 32 22
M  V30 34 1 32 31
M  V30 35 1 33 19
M  V30 36 1 33 32
M  V30 37 1 34 1
M  V30 38 1 35 1
M  V30 39 1 36 1
M  V30 40 1 37 2
M  V30 41 1 38 2
M  V30 42 1 39 3
M  V30 43 1 40 3
M  V30 44 1 41 5
M  V30 45 1 42 5
M  V30 46 1 43 6
M  V30 47 1 44 6
M  V30 48 1 45 7
M  V30 49 1 46 7
M  V30 50 1 47 8
M  V30 51 1 48 8
M  V30 52 1 49 12
M  V30 53 1 50 12
M  V30 54 1 51 14
M  V30 55 1 52 14
M  V30 56 1 53 14
M  V30 57 1 54 15
M  V30 58 1 55 15
M  V30 59 1 56 15
M  V30 60 1 57 16
M  V30 61 1 58 16
M  V30 62 1 19 59 CFG=1
M  V30 63 1 60 20
M  V30 64 1 61 20
M  V30 65 1 62 21
M  V30 66 1 63 21
M  V30 67 1 64 23
M  V30 68 1 65 24
M  V30 69 1 66 26
M  V30 70 1 67 30
M  V30 71 1 68 33
M  V30 72 1 69 33
M  V30 73 1 4 70 CFG=1
M  V30 END BOND
M  V30 END CTAB
M  END
>  <b_m_subgroup_collapsed>  (2137) 
0

>  <r_i_docking_score>  (2137) 
-6.1681856442439003

>  <s_m_subgroup_title>  (2137) 
glide-dock_SP_D22_pv

>  <s_m_subgroupid>  (2137) 
glide-dock_SP_D22_pv

>  <Molecule ChEMBL ID>  (2137) 
CHEMBL1744088

>  <Standard Type>  (2137) 
Ki

>  <Standard Value>  (2137) 
44.0

>  <label>  (2137) 
1

$$$$
CHEMBL591448
     RDKit          3D

  0  0  0  0  0  0  0  0  0  0999 V3000
M  V30 BEGIN CTAB
M  V30 COUNTS 48 51 0 0 1
M  V30 BEGIN ATOM
M  V30 1 C 11.874508 1.770929 -16.654799 0
M  V30 2 C 10.725227 1.976624 -16.298887 0
M  V30 3 C 9.360689 2.243869 -15.825123 0
M  V30 4 O 9.340944 3.528750 -15.216825 0
M  V30 5 C 8.442732 3.746428 -14.200275 0
M  V30 6 C 7.179889 3.103426 -14.246675 0
M  V30 7 C 6.201724 3.349441 -13.279551 0
M  V30 8 C 6.518081 4.176230 -12.201150 0
M  V30 9 C 7.796380 4.761478 -12.097019 0
M  V30 10 C 8.760469 4.640096 -13.127700 0
M  V30 11 C 10.009518 5.470775 -13.021378 0
M  V30 12 C 11.120089 5.347922 -13.901052 0
M  V30 13 C 12.231651 6.203436 -13.876261 0
M  V30 14 C 12.335111 7.204039 -12.905470 0
M  V30 15 C 11.318533 7.359400 -11.955574 0
M  V30 16 C 10.175236 6.510187 -12.049084 0
M  V30 17 C 8.984449 6.752971 -11.107271 0 CFG=1
M  V30 18 C 8.160104 5.497830 -10.832066 0
M  V30 19 N 9.282771 7.526047 -9.868291 0 CFG=1 CHG=1
M  V30 20 C 9.792321 6.755109 -8.694343 0
M  V30 21 C 10.023162 7.628928 -7.443190 0
M  V30 22 C 10.319072 6.808097 -6.185254 0
M  V30 23 C 10.043084 8.734334 -10.216611 0
M  V30 24 C 11.399426 8.317905 -10.770935 0
M  V30 25 H 12.885462 1.590285 -16.942129 0
M  V30 26 H 8.676019 2.205745 -16.672956 0
M  V30 27 H 9.104723 1.447467 -15.124370 0
M  V30 28 H 6.919159 2.451119 -15.065990 0
M  V30 29 H 5.228983 2.885132 -13.349569 0
M  V30 30 H 5.768154 4.336871 -11.446600 0
M  V30 31 H 11.171369 4.591885 -14.660680 0
M  V30 32 H 13.033420 6.064431 -14.586861 0
M  V30 33 H 13.220030 7.823325 -12.867360 0
M  V30 34 H 8.330061 7.400632 -11.695845 0
M  V30 35 H 7.284821 5.768128 -10.253727 0
M  V30 36 H 8.727265 4.784044 -10.234813 0
M  V30 37 H 9.051981 6.004253 -8.419543 0
M  V30 38 H 10.701030 6.213017 -8.956858 0
M  V30 39 H 10.860637 8.308757 -7.601286 0
M  V30 40 H 9.142607 8.246823 -7.257022 0
M  V30 41 H 10.509345 7.459745 -5.332403 0
M  V30 42 H 11.195598 6.173701 -6.320667 0
M  V30 43 H 9.472340 6.172322 -5.928198 0
M  V30 44 H 9.474371 9.283090 -10.967837 0
M  V30 45 H 10.147853 9.416201 -9.374622 0
M  V30 46 H 11.998060 7.840089 -9.995152 0
M  V30 47 H 11.968987 9.204597 -11.046601 0
M  V30 48 H 8.355891 7.839272 -9.589189 0
M  V30 END ATOM
M  V30 BEGIN BOND
M  V30 1 3 2 1
M  V30 2 1 3 2
M  V30 3 1 4 3
M  V30 4 1 5 4
M  V30 5 2 6 5
M  V30 6 1 7 6
M  V30 7 2 8 7
M  V30 8 1 9 8
M  V30 9 1 10 5
M  V30 10 2 10 9
M  V30 11 1 11 10
M  V30 12 2 12 11
M  V30 13 1 13 12
M  V30 14 2 14 13
M  V30 15 1 15 14
M  V30 16 1 16 11
M  V30 17 2 16 15
M  V30 18 1 17 16
M  V30 19 1 18 9
M  V30 20 1 18 17
M  V30 21 1 19 17
M  V30 22 1 20 19
M  V30 23 1 21 20
M  V30 24 1 22 21
M  V30 25 1 23 19
M  V30 26 1 24 15
M  V30 27 1 24 23
M  V30 28 1 25 1
M  V30 29 1 26 3
M  V30 30 1 27 3
M  V30 31 1 28 6
M  V30 32 1 29 7
M  V30 33 1 30 8
M  V30 34 1 31 12
M  V30 35 1 32 13
M  V30 36 1 33 14
M  V30 37 1 17 34 CFG=3
M  V30 38 1 35 18
M  V30 39 1 36 18
M  V30 40 1 37 20
M  V30 41 1 38 20
M  V30 42 1 39 21
M  V30 43 1 40 21
M  V30 44 1 41 22
M  V30 45 1 42 22
M  V30 46 1 43 22
M  V30 47 1 44 23
M  V30 48 1 45 23
M  V30 49 1 46 24
M  V30 50 1 47 24
M  V30 51 1 19 48 CFG=1
M  V30 END BOND
M  V30 END CTAB
M  END
>  <b_m_subgroup_collapsed>  (2138) 
0

>  <r_i_docking_score>  (2138) 
-6.1658743136448502

>  <s_m_subgroup_title>  (2138) 
glide-dock_SP_D22_pv

>  <s_m_subgroupid>  (2138) 
glide-dock_SP_D22_pv

>  <Molecule ChEMBL ID>  (2138) 
CHEMBL591448

>  <Standard Type>  (2138) 
Ki

>  <Standard Value>  (2138) 
10000.0

>  <label>  (2138) 
0

$$$$
CHEMBL4446215
     RDKit          3D

  0  0  0  0  0  0  0  0  0  0999 V3000
M  V30 BEGIN CTAB
M  V30 COUNTS 46 49 0 0 1
M  V30 BEGIN ATOM
M  V30 1 C 5.187186 -1.845608 -15.359825 0
M  V30 2 C 5.220962 -0.532098 -14.589776 0
M  V30 3 O 4.280605 -0.238950 -13.847600 0
M  V30 4 N 6.320454 0.226174 -14.755210 0
M  V30 5 C 6.562980 1.514587 -14.214478 0
M  V30 6 N 5.678941 2.182636 -13.470613 0
M  V30 7 C 6.236084 3.412278 -13.184861 0
M  V30 8 C 5.516892 4.460827 -12.416484 0
M  V30 9 C 7.515760 3.384225 -13.700296 0
M  V30 10 C 8.589003 4.360649 -13.496430 0
M  V30 11 C 8.574603 5.471563 -12.694083 0
M  V30 12 N 9.828000 6.051486 -12.644773 0
M  V30 13 S 10.174607 7.431875 -11.660614 0
M  V30 14 O 9.286294 8.494230 -12.159346 0
M  V30 15 O 11.635665 7.597212 -11.668251 0
M  V30 16 C 9.697968 7.042449 -9.978746 0
M  V30 17 C 9.359293 5.734544 -9.573516 0
M  V30 18 C 8.950498 5.507916 -8.246385 0
M  V30 19 C 8.917825 6.572453 -7.322994 0
M  V30 20 C 9.285590 7.870934 -7.722886 0
M  V30 21 C 9.674110 8.107025 -9.055141 0
M  V30 22 C 10.671858 5.391295 -13.533754 0
M  V30 23 C 12.006818 5.615040 -13.934101 0
M  V30 24 C 12.602713 4.779554 -14.892882 0
M  V30 25 C 11.873247 3.710534 -15.437373 0
M  V30 26 C 10.546992 3.478354 -15.028339 0
M  V30 27 C 9.903420 4.316305 -14.083694 0
M  V30 28 N 7.697723 2.178412 -14.396016 0
M  V30 29 H 5.685921 -2.625925 -14.786736 0
M  V30 30 H 4.158402 -2.160540 -15.539853 0
M  V30 31 H 5.685670 -1.752012 -16.323784 0
M  V30 32 H 7.049597 -0.148289 -15.344002 0
M  V30 33 H 5.982088 4.618686 -11.446934 0
M  V30 34 H 5.520018 5.409317 -12.954855 0
M  V30 35 H 4.486101 4.170848 -12.253987 0
M  V30 36 H 7.780721 5.883617 -12.086106 0
M  V30 37 H 9.397876 4.903840 -10.260756 0
M  V30 38 H 8.666210 4.514213 -7.936279 0
M  V30 39 H 8.597878 6.394008 -6.307189 0
M  V30 40 H 9.244612 8.685270 -7.015584 0
M  V30 41 H 9.934553 9.105468 -9.374054 0
M  V30 42 H 12.584395 6.431071 -13.527648 0
M  V30 43 H 13.621042 4.957783 -15.205939 0
M  V30 44 H 12.336224 3.061480 -16.166487 0
M  V30 45 H 10.006766 2.649709 -15.458810 0
M  V30 46 H 4.757155 1.850386 -13.220563 0
M  V30 END ATOM
M  V30 BEGIN BOND
M  V30 1 1 2 1
M  V30 2 2 3 2
M  V30 3 1 4 2
M  V30 4 1 5 4
M  V30 5 1 6 5
M  V30 6 1 7 6
M  V30 7 1 8 7
M  V30 8 2 9 7
M  V30 9 1 10 9
M  V30 10 2 11 10
M  V30 11 1 12 11
M  V30 12 1 13 12
M  V30 13 2 14 13
M  V30 14 2 15 13
M  V30 15 1 16 13
M  V30 16 2 17 16
M  V30 17 1 18 17
M  V30 18 2 19 18
M  V30 19 1 20 19
M  V30 20 1 21 16
M  V30 21 2 21 20
M  V30 22 1 22 12
M  V30 23 2 23 22
M  V30 24 1 24 23
M  V30 25 2 25 24
M  V30 26 1 26 25
M  V30 27 1 27 10
M  V30 28 1 27 22
M  V30 29 2 27 26
M  V30 30 2 28 5
M  V30 31 1 28 9
M  V30 32 1 29 1
M  V30 33 1 30 1
M  V30 34 1 31 1
M  V30 35 1 32 4
M  V30 36 1 33 8
M  V30 37 1 34 8
M  V30 38 1 35 8
M  V30 39 1 36 11
M  V30 40 1 37 17
M  V30 41 1 38 18
M  V30 42 1 39 19
M  V30 43 1 40 20
M  V30 44 1 41 21
M  V30 45 1 42 23
M  V30 46 1 43 24
M  V30 47 1 44 25
M  V30 48 1 45 26
M  V30 49 1 46 6
M  V30 END BOND
M  V30 END CTAB
M  END
>  <b_m_subgroup_collapsed>  (2139) 
0

>  <r_i_docking_score>  (2139) 
-6.1654898136658502

>  <s_m_subgroup_title>  (2139) 
glide-dock_SP_D22_pv

>  <s_m_subgroupid>  (2139) 
glide-dock_SP_D22_pv

>  <Molecule ChEMBL ID>  (2139) 
CHEMBL4446215

>  <Standard Type>  (2139) 
Ki

>  <Standard Value>  (2139) 
10000.0

>  <label>  (2139) 
0

$$$$
CHEMBL201086
     RDKit          3D

  0  0  0  0  0  0  0  0  0  0999 V3000
M  V30 BEGIN CTAB
M  V30 COUNTS 25 26 0 0 1
M  V30 BEGIN ATOM
M  V30 1 O 11.819777 10.652662 -6.246616 0
M  V30 2 C 11.658298 9.724574 -5.458296 0
M  V30 3 O 12.098032 9.772287 -4.181765 0
M  V30 4 C 11.688996 8.820299 -3.223016 0
M  V30 5 C 12.000875 7.416158 -3.741969 0
M  V30 6 C 11.299036 7.160100 -5.090669 0
M  V30 7 C 10.888994 8.443244 -5.862224 0 CFG=2
M  V30 8 C 10.835950 8.212741 -7.373025 0
M  V30 9 C 9.611197 7.852710 -7.973763 0
M  V30 10 C 9.534941 7.647729 -9.364782 0
M  V30 11 C 10.676854 7.813225 -10.170679 0
M  V30 12 C 11.903304 8.170679 -9.581076 0
M  V30 13 C 11.985968 8.349007 -8.187256 0
M  V30 14 H 12.212712 9.007897 -2.285479 0
M  V30 15 H 10.628180 8.972778 -3.040832 0
M  V30 16 H 13.081979 7.334355 -3.852225 0
M  V30 17 H 11.709523 6.659315 -3.012165 0
M  V30 18 H 10.404278 6.557560 -4.931961 0
M  V30 19 H 11.953215 6.537471 -5.703689 0
M  V30 20 H 9.864935 8.665133 -5.567986 0
M  V30 21 H 8.719051 7.734455 -7.374616 0
M  V30 22 H 8.590188 7.373931 -9.813578 0
M  V30 23 H 10.608838 7.668375 -11.239188 0
M  V30 24 H 12.782399 8.306190 -10.194226 0
M  V30 25 H 12.936824 8.622365 -7.755171 0
M  V30 END ATOM
M  V30 BEGIN BOND
M  V30 1 2 2 1
M  V30 2 1 3 2
M  V30 3 1 4 3
M  V30 4 1 5 4
M  V30 5 1 6 5
M  V30 6 1 7 2
M  V30 7 1 7 6
M  V30 8 1 8 7
M  V30 9 2 9 8
M  V30 10 1 10 9
M  V30 11 2 11 10
M  V30 12 1 12 11
M  V30 13 1 13 8
M  V30 14 2 13 12
M  V30 15 1 14 4
M  V30 16 1 15 4
M  V30 17 1 16 5
M  V30 18 1 17 5
M  V30 19 1 18 6
M  V30 20 1 19 6
M  V30 21 1 7 20 CFG=1
M  V30 22 1 21 9
M  V30 23 1 22 10
M  V30 24 1 23 11
M  V30 25 1 24 12
M  V30 26 1 25 13
M  V30 END BOND
M  V30 END CTAB
M  END
>  <b_m_subgroup_collapsed>  (2140) 
0

>  <r_i_docking_score>  (2140) 
-6.1647432945883702

>  <s_m_subgroup_title>  (2140) 
glide-dock_SP_D22_pv

>  <s_m_subgroupid>  (2140) 
glide-dock_SP_D22_pv

>  <Molecule ChEMBL ID>  (2140) 
CHEMBL201086

>  <Standard Type>  (2140) 
Ki

>  <Standard Value>  (2140) 
10000.0

>  <label>  (2140) 
0

$$$$
CHEMBL201093
     RDKit          3D

  0  0  0  0  0  0  0  0  0  0999 V3000
M  V30 BEGIN CTAB
M  V30 COUNTS 38 40 0 0 1
M  V30 BEGIN ATOM
M  V30 1 C 10.327625 5.181016 -8.856859 0
M  V30 2 N 8.895003 5.462171 -8.932986 0 CFG=2 CHG=1
M  V30 3 C 8.373104 5.772326 -10.298359 0
M  V30 4 C 8.812692 7.087759 -10.994499 0
M  V30 5 C 10.270207 7.278347 -11.359382 0
M  V30 6 C 10.754796 6.630418 -12.517343 0
M  V30 7 C 12.044283 6.912687 -13.003355 0
M  V30 8 C 12.886018 7.772324 -12.277668 0
M  V30 9 C 12.452223 8.316773 -11.058417 0
M  V30 10 C 11.116292 8.172324 -10.646865 0
M  V30 11 C 10.628106 9.128230 -9.562368 0
M  V30 12 C 10.836914 8.691997 -8.147147 0
M  V30 13 C 12.046110 8.972324 -7.446865 0
M  V30 14 C 11.936121 8.795872 -6.099014 0
M  V30 15 S 10.520375 7.887445 -5.725261 0
M  V30 16 C 9.904932 8.090514 -7.334185 0
M  V30 17 C 8.504101 7.658879 -7.604312 0
M  V30 18 C 8.322204 6.130686 -7.736439 0
M  V30 19 H 10.929219 6.001737 -9.223362 0
M  V30 20 H 10.486021 4.285469 -9.450913 0
M  V30 21 H 10.659768 4.972326 -7.846865 0
M  V30 22 H 8.627369 4.935507 -10.949869 0
M  V30 23 H 7.286023 5.772324 -10.246865 0
M  V30 24 H 8.248392 7.161450 -11.925118 0
M  V30 25 H 8.486022 7.947106 -10.443025 0
M  V30 26 H 10.111142 5.968450 -13.078326 0
M  V30 27 H 12.392174 6.463547 -13.922220 0
M  V30 28 H 13.874249 8.001560 -12.646865 0
M  V30 29 H 13.108994 8.972322 -10.519419 0
M  V30 30 H 11.189107 10.052789 -9.707792 0
M  V30 31 H 9.607999 9.464395 -9.722589 0
M  V30 32 H 12.920133 9.372324 -7.934731 0
M  V30 33 H 12.667700 9.007697 -5.332585 0
M  V30 34 H 7.907944 7.975161 -6.746713 0
M  V30 35 H 8.086029 8.222910 -8.426158 0
M  V30 36 H 7.293599 5.772325 -7.660857 0
M  V30 37 H 8.786682 5.731974 -6.841878 0
M  V30 38 H 8.509394 4.537732 -8.801451 0
M  V30 END ATOM
M  V30 BEGIN BOND
M  V30 1 1 2 1
M  V30 2 1 3 2
M  V30 3 1 4 3
M  V30 4 1 5 4
M  V30 5 2 6 5
M  V30 6 1 7 6
M  V30 7 2 8 7
M  V30 8 1 9 8
M  V30 9 1 10 5
M  V30 10 2 10 9
M  V30 11 1 11 10
M  V30 12 1 12 11
M  V30 13 1 13 12
M  V30 14 2 14 13
M  V30 15 1 15 14
M  V30 16 2 16 12
M  V30 17 1 16 15
M  V30 18 1 17 16
M  V30 19 1 18 2
M  V30 20 1 18 17
M  V30 21 1 19 1
M  V30 22 1 20 1
M  V30 23 1 21 1
M  V30 24 1 22 3
M  V30 25 1 23 3
M  V30 26 1 24 4
M  V30 27 1 25 4
M  V30 28 1 26 6
M  V30 29 1 27 7
M  V30 30 1 28 8
M  V30 31 1 29 9
M  V30 32 1 30 11
M  V30 33 1 31 11
M  V30 34 1 32 13
M  V30 35 1 33 14
M  V30 36 1 34 17
M  V30 37 1 35 17
M  V30 38 1 36 18
M  V30 39 1 37 18
M  V30 40 1 2 38 CFG=1
M  V30 END BOND
M  V30 END CTAB
M  END
>  <b_m_subgroup_collapsed>  (2141) 
0

>  <r_i_docking_score>  (2141) 
-6.1635288771338299

>  <s_m_subgroup_title>  (2141) 
glide-dock_SP_D22_pv

>  <s_m_subgroupid>  (2141) 
glide-dock_SP_D22_pv

>  <Molecule ChEMBL ID>  (2141) 
CHEMBL201093

>  <Standard Type>  (2141) 
Ki

>  <Standard Value>  (2141) 
92.0

>  <label>  (2141) 
1

$$$$
CHEMBL201241
     RDKit          3D

  0  0  0  0  0  0  0  0  0  0999 V3000
M  V30 BEGIN CTAB
M  V30 COUNTS 46 50 0 0 1
M  V30 BEGIN ATOM
M  V30 1 C 11.493697 2.601067 -17.366693 0
M  V30 2 C 11.027224 3.926428 -17.291426 0
M  V30 3 C 10.453719 4.402932 -16.097662 0
M  V30 4 C 10.383573 3.576494 -14.951680 0
M  V30 5 C 9.783750 4.103400 -13.647751 0 CFG=1
M  V30 6 C 10.491819 5.402718 -13.206269 0
M  V30 7 C 9.867749 5.988536 -11.935117 0
M  V30 8 C 8.361598 6.192286 -12.113128 0
M  V30 9 N 7.707268 4.911416 -12.459758 0 CFG=1 CHG=1
M  V30 10 C 6.222502 5.010541 -12.437442 0
M  V30 11 C 5.581794 3.608930 -12.447369 0
M  V30 12 C 6.255258 2.725726 -13.445328 0
M  V30 13 C 7.457266 3.041314 -14.013309 0
M  V30 14 N 7.809001 2.024359 -14.887453 0
M  V30 15 C 6.870510 1.012016 -14.867599 0
M  V30 16 C 6.763853 -0.207300 -15.558040 0
M  V30 17 C 5.638597 -1.026156 -15.352303 0
M  V30 18 C 4.639403 -0.630712 -14.443092 0
M  V30 19 C 4.779633 0.572510 -13.726038 0
M  V30 20 C 5.881289 1.429893 -13.932398 0
M  V30 21 C 8.238939 4.298473 -13.722257 0 CFG=2
M  V30 22 C 10.857839 2.248337 -15.036202 0
M  V30 23 C 11.386007 1.757543 -16.247131 0
M  V30 24 H 11.929406 2.232809 -18.283125 0
M  V30 25 H 11.103206 4.575134 -18.152233 0
M  V30 26 H 10.077961 5.413347 -16.070629 0
M  V30 27 H 9.980836 3.350760 -12.880428 0
M  V30 28 H 11.554688 5.213822 -13.049366 0
M  V30 29 H 10.442959 6.155515 -13.990428 0
M  V30 30 H 10.048409 5.324675 -11.088204 0
M  V30 31 H 10.346169 6.936504 -11.685520 0
M  V30 32 H 7.954267 6.570936 -11.176966 0
M  V30 33 H 8.149343 6.943020 -12.876457 0
M  V30 34 H 5.888032 5.552913 -11.550457 0
M  V30 35 H 5.888559 5.591252 -13.298574 0
M  V30 36 H 5.668184 3.171394 -11.452697 0
M  V30 37 H 4.513385 3.684226 -12.655308 0
M  V30 38 H 8.661493 2.030434 -15.433812 0
M  V30 39 H 7.536050 -0.523538 -16.243839 0
M  V30 40 H 5.543611 -1.961200 -15.885386 0
M  V30 41 H 3.762849 -1.247345 -14.308437 0
M  V30 42 H 4.007434 0.887522 -13.049008 0
M  V30 43 H 8.036142 5.002664 -14.528953 0
M  V30 44 H 10.798965 1.588838 -14.182610 0
M  V30 45 H 11.726836 0.734374 -16.310905 0
M  V30 46 H 7.941255 4.269190 -11.716730 0
M  V30 END ATOM
M  V30 BEGIN BOND
M  V30 1 2 2 1
M  V30 2 1 3 2
M  V30 3 2 4 3
M  V30 4 1 5 4
M  V30 5 1 6 5
M  V30 6 1 7 6
M  V30 7 1 8 7
M  V30 8 1 9 8
M  V30 9 1 10 9
M  V30 10 1 11 10
M  V30 11 1 12 11
M  V30 12 2 13 12
M  V30 13 1 14 13
M  V30 14 1 15 14
M  V30 15 2 16 15
M  V30 16 1 17 16
M  V30 17 2 18 17
M  V30 18 1 19 18
M  V30 19 1 20 12
M  V30 20 1 20 15
M  V30 21 2 20 19
M  V30 22 1 21 5
M  V30 23 1 21 9
M  V30 24 1 21 13
M  V30 25 1 22 4
M  V30 26 1 23 1
M  V30 27 2 23 22
M  V30 28 1 24 1
M  V30 29 1 25 2
M  V30 30 1 26 3
M  V30 31 1 5 27 CFG=1
M  V30 32 1 28 6
M  V30 33 1 29 6
M  V30 34 1 30 7
M  V30 35 1 31 7
M  V30 36 1 32 8
M  V30 37 1 33 8
M  V30 38 1 34 10
M  V30 39 1 35 10
M  V30 40 1 36 11
M  V30 41 1 37 11
M  V30 42 1 38 14
M  V30 43 1 39 16
M  V30 44 1 40 17
M  V30 45 1 41 18
M  V30 46 1 42 19
M  V30 47 1 21 43 CFG=3
M  V30 48 1 44 22
M  V30 49 1 45 23
M  V30 50 1 9 46 CFG=1
M  V30 END BOND
M  V30 END CTAB
M  END
>  <b_m_subgroup_collapsed>  (2142) 
0

>  <r_i_docking_score>  (2142) 
-6.1620686188966296

>  <s_m_subgroup_title>  (2142) 
glide-dock_SP_D22_pv

>  <s_m_subgroupid>  (2142) 
glide-dock_SP_D22_pv

>  <Molecule ChEMBL ID>  (2142) 
CHEMBL201241

>  <Standard Type>  (2142) 
Ki

>  <Standard Value>  (2142) 
10000.0

>  <label>  (2142) 
0

$$$$
CHEMBL69259
     RDKit          3D

  0  0  0  0  0  0  0  0  0  0999 V3000
M  V30 BEGIN CTAB
M  V30 COUNTS 41 43 0 0 1
M  V30 BEGIN ATOM
M  V30 1 C 9.458631 7.061665 -8.047067 0
M  V30 2 N 8.886008 6.633028 -9.340360 0 CFG=2 CHG=1
M  V30 3 C 8.727554 5.165467 -9.446132 0
M  V30 4 C 7.930291 4.830250 -10.709157 0
M  V30 5 C 8.590561 5.342265 -11.991903 0 CFG=1
M  V30 6 C 8.847449 6.859876 -11.824511 0
M  V30 7 C 9.591836 7.193269 -10.516094 0
M  V30 8 O 9.806548 4.669557 -12.328432 0
M  V30 9 C 9.905737 4.399875 -13.746894 0 CFG=2
M  V30 10 C 10.330279 2.930122 -13.897190 0
M  V30 11 C 10.909088 5.316474 -14.451005 0
M  V30 12 C 11.045323 5.270812 -15.858428 0
M  V30 13 C 11.933906 6.138673 -16.523207 0
M  V30 14 C 12.696576 7.062485 -15.786909 0
M  V30 15 C 12.574790 7.110225 -14.386335 0
M  V30 16 C 11.698513 6.230781 -13.721358 0
M  V30 17 C 8.497810 4.595570 -14.335226 0
M  V30 18 C 7.682470 5.026936 -13.155726 0
M  V30 19 O 6.452097 5.020041 -13.117284 0
M  V30 20 H 10.470321 6.673744 -7.917337 0
M  V30 21 H 9.490921 8.150282 -7.983710 0
M  V30 22 H 8.846975 6.702777 -7.217788 0
M  V30 23 H 8.190294 4.791326 -8.572607 0
M  V30 24 H 9.702785 4.676147 -9.463478 0
M  V30 25 H 6.972576 5.347040 -10.646932 0
M  V30 26 H 7.685893 3.772460 -10.772161 0
M  V30 27 H 9.425648 7.260549 -12.647121 0
M  V30 28 H 7.897550 7.395330 -11.847239 0
M  V30 29 H 9.670010 8.276458 -10.413187 0
M  V30 30 H 10.610309 6.803526 -10.547589 0
M  V30 31 H 10.403899 2.639818 -14.945363 0
M  V30 32 H 11.301414 2.749109 -13.447230 0
M  V30 33 H 9.612345 2.254760 -13.433422 0
M  V30 34 H 10.457477 4.574536 -16.437912 0
M  V30 35 H 12.025805 6.096787 -17.599195 0
M  V30 36 H 13.377372 7.730643 -16.293278 0
M  V30 37 H 13.169799 7.811482 -13.820601 0
M  V30 38 H 11.635333 6.275604 -12.647770 0
M  V30 39 H 8.485250 5.374935 -15.094844 0
M  V30 40 H 8.088253 3.677377 -14.758034 0
M  V30 41 H 7.940478 7.017709 -9.379260 0
M  V30 END ATOM
M  V30 BEGIN BOND
M  V30 1 1 2 1
M  V30 2 1 3 2
M  V30 3 1 4 3
M  V30 4 1 5 4
M  V30 5 1 6 5
M  V30 6 1 7 2
M  V30 7 1 7 6
M  V30 8 1 5 8 CFG=3
M  V30 9 1 9 8
M  V30 10 1 9 10 CFG=1
M  V30 11 1 11 9
M  V30 12 2 12 11
M  V30 13 1 13 12
M  V30 14 2 14 13
M  V30 15 1 15 14
M  V30 16 1 16 11
M  V30 17 2 16 15
M  V30 18 1 17 9
M  V30 19 1 18 5
M  V30 20 1 18 17
M  V30 21 2 19 18
M  V30 22 1 20 1
M  V30 23 1 21 1
M  V30 24 1 22 1
M  V30 25 1 23 3
M  V30 26 1 24 3
M  V30 27 1 25 4
M  V30 28 1 26 4
M  V30 29 1 27 6
M  V30 30 1 28 6
M  V30 31 1 29 7
M  V30 32 1 30 7
M  V30 33 1 31 10
M  V30 34 1 32 10
M  V30 35 1 33 10
M  V30 36 1 34 12
M  V30 37 1 35 13
M  V30 38 1 36 14
M  V30 39 1 37 15
M  V30 40 1 38 16
M  V30 41 1 39 17
M  V30 42 1 40 17
M  V30 43 1 2 41 CFG=1
M  V30 END BOND
M  V30 END CTAB
M  END
>  <b_m_subgroup_collapsed>  (2143) 
0

>  <r_i_docking_score>  (2143) 
-6.1574508803985797

>  <s_m_subgroup_title>  (2143) 
glide-dock_SP_D22_pv

>  <s_m_subgroupid>  (2143) 
glide-dock_SP_D22_pv

>  <Molecule ChEMBL ID>  (2143) 
CHEMBL69259

>  <Standard Type>  (2143) 
Ki

>  <Standard Value>  (2143) 
10000.0

>  <label>  (2143) 
0

$$$$
CHEMBL4858961
     RDKit          3D

  0  0  0  0  0  0  0  0  0  0999 V3000
M  V30 BEGIN CTAB
M  V30 COUNTS 52 53 0 0 1
M  V30 BEGIN ATOM
M  V30 1 C 12.728021 9.646337 -4.007516 0
M  V30 2 C 12.194725 9.561023 -5.440372 0
M  V30 3 C 10.781936 8.967187 -5.503389 0
M  V30 4 N 10.539203 8.235074 -6.768013 0 CFG=1 CHG=1
M  V30 5 C 10.967093 6.817286 -6.748088 0
M  V30 6 C 10.151782 6.112410 -7.835815 0
M  V30 7 C 9.065549 7.111179 -8.260381 0 CFG=2
M  V30 8 C 9.286180 7.634627 -9.688704 0
M  V30 9 N 9.046465 6.571376 -10.651764 0
M  V30 10 C 9.596658 6.501890 -11.867753 0
M  V30 11 O 10.468764 7.283634 -12.246964 0
M  V30 12 C 9.111368 5.360871 -12.729377 0
M  V30 13 C 7.721661 5.049694 -12.832923 0
M  V30 14 O 6.737239 5.804399 -12.243107 0
M  V30 15 C 7.301744 3.930047 -13.590014 0
M  V30 16 C 5.825433 3.582221 -13.725011 0
M  V30 17 C 5.286497 2.793093 -12.524534 0
M  V30 18 C 8.251612 3.128911 -14.247078 0
M  V30 19 C 9.614797 3.452564 -14.194515 0
M  V30 20 Cl 10.743405 2.433548 -15.014667 0
M  V30 21 C 10.049335 4.582392 -13.465750 0
M  V30 22 O 11.391719 4.876406 -13.446977 0
M  V30 23 C 11.853720 5.593561 -14.582882 0
M  V30 24 C 9.134450 8.227813 -7.216296 0
M  V30 25 H 13.683304 10.172303 -3.987970 0
M  V30 26 H 12.036235 10.173014 -3.351443 0
M  V30 27 H 12.885744 8.651459 -3.589319 0
M  V30 28 H 12.885517 8.972397 -6.035214 0
M  V30 29 H 12.193826 10.554186 -5.893523 0
M  V30 30 H 10.075849 9.788831 -5.426469 0
M  V30 31 H 10.592625 8.316047 -4.646961 0
M  V30 32 H 10.729548 6.361315 -5.779542 0
M  V30 33 H 12.044291 6.713105 -6.911582 0
M  V30 34 H 9.685744 5.206601 -7.447378 0
M  V30 35 H 10.789602 5.817277 -8.672351 0
M  V30 36 H 8.088959 6.629560 -8.215168 0
M  V30 37 H 10.292504 8.041918 -9.793720 0
M  V30 38 H 8.595315 8.449630 -9.910235 0
M  V30 39 H 8.354540 5.878398 -10.400908 0
M  V30 40 H 6.977325 6.531895 -11.676879 0
M  V30 41 H 5.241945 4.494407 -13.863777 0
M  V30 42 H 5.689380 3.005485 -14.637484 0
M  V30 43 H 4.226190 2.572449 -12.644553 0
M  V30 44 H 5.808449 1.842415 -12.407832 0
M  V30 45 H 5.402962 3.359596 -11.598678 0
M  V30 46 H 7.932616 2.266005 -14.812196 0
M  V30 47 H 12.896857 5.869261 -14.431314 0
M  V30 48 H 11.795339 4.997464 -15.492604 0
M  V30 49 H 11.286571 6.511513 -14.734258 0
M  V30 50 H 8.822527 9.199018 -7.605712 0
M  V30 51 H 8.481392 7.979308 -6.374372 0
M  V30 52 H 11.065852 8.696952 -7.499909 0
M  V30 END ATOM
M  V30 BEGIN BOND
M  V30 1 1 2 1
M  V30 2 1 3 2
M  V30 3 1 4 3
M  V30 4 1 5 4
M  V30 5 1 6 5
M  V30 6 1 7 6
M  V30 7 1 8 7
M  V30 8 1 9 8
M  V30 9 1 10 9
M  V30 10 2 11 10
M  V30 11 1 12 10
M  V30 12 1 13 12
M  V30 13 1 14 13
M  V30 14 2 15 13
M  V30 15 1 16 15
M  V30 16 1 17 16
M  V30 17 1 18 15
M  V30 18 2 19 18
M  V30 19 1 20 19
M  V30 20 2 21 12
M  V30 21 1 21 19
M  V30 22 1 22 21
M  V30 23 1 23 22
M  V30 24 1 24 4
M  V30 25 1 24 7
M  V30 26 1 25 1
M  V30 27 1 26 1
M  V30 28 1 27 1
M  V30 29 1 28 2
M  V30 30 1 29 2
M  V30 31 1 30 3
M  V30 32 1 31 3
M  V30 33 1 32 5
M  V30 34 1 33 5
M  V30 35 1 34 6
M  V30 36 1 35 6
M  V30 37 1 7 36 CFG=3
M  V30 38 1 37 8
M  V30 39 1 38 8
M  V30 40 1 39 9
M  V30 41 1 40 14
M  V30 42 1 41 16
M  V30 43 1 42 16
M  V30 44 1 43 17
M  V30 45 1 44 17
M  V30 46 1 45 17
M  V30 47 1 46 18
M  V30 48 1 47 23
M  V30 49 1 48 23
M  V30 50 1 49 23
M  V30 51 1 50 24
M  V30 52 1 51 24
M  V30 53 1 4 52 CFG=3
M  V30 END BOND
M  V30 END CTAB
M  END
>  <b_m_subgroup_collapsed>  (2144) 
0

>  <r_i_docking_score>  (2144) 
-6.15655476558568

>  <s_m_subgroup_title>  (2144) 
glide-dock_SP_D22_pv

>  <s_m_subgroupid>  (2144) 
glide-dock_SP_D22_pv

>  <Molecule ChEMBL ID>  (2144) 
CHEMBL4858961

>  <Standard Type>  (2144) 
Ki

>  <Standard Value>  (2144) 
66.4

>  <label>  (2144) 
1

$$$$
CHEMBL611207
     RDKit          3D

  0  0  0  0  0  0  0  0  0  0999 V3000
M  V30 BEGIN CTAB
M  V30 COUNTS 53 56 0 0 1
M  V30 BEGIN ATOM
M  V30 1 C 12.271858 2.660238 -17.085741 0
M  V30 2 N 11.334210 1.620417 -17.577286 0 CFG=1 CHG=1
M  V30 3 C 11.948112 0.867672 -18.704979 0
M  V30 4 C 10.972866 -0.148157 -19.318167 0
M  V30 5 C 10.463829 -1.121072 -18.250900 0
M  V30 6 C 9.833727 -0.334425 -17.100515 0
M  V30 7 C 10.807520 0.709844 -16.510670 0 CFG=2
M  V30 8 C 10.152905 1.437845 -15.310135 0
M  V30 9 C 9.048111 2.462479 -15.676702 0
M  V30 10 N 8.235937 2.870130 -14.519320 0
M  V30 11 C 8.683049 3.987412 -13.763842 0
M  V30 12 C 10.013433 4.479945 -13.868806 0
M  V30 13 C 10.458649 5.580579 -13.114211 0
M  V30 14 C 9.579148 6.231417 -12.236854 0
M  V30 15 C 8.257844 5.773530 -12.121244 0
M  V30 16 C 7.813646 4.664951 -12.868510 0
M  V30 17 S 6.136491 4.188304 -12.646861 0
M  V30 18 C 6.064428 2.590399 -13.369293 0
M  V30 19 C 4.935080 1.813803 -13.046825 0
M  V30 20 C 4.725871 0.571962 -13.657252 0
M  V30 21 C 5.669503 0.103038 -14.579585 0
M  V30 22 S 5.279708 -1.437058 -15.466413 0
M  V30 23 C 5.635320 -0.823392 -17.180082 0
M  V30 24 O 3.758411 -1.570696 -15.380696 0
M  V30 25 C 6.850719 0.826514 -14.836814 0
M  V30 26 C 7.070855 2.103610 -14.247322 0
M  V30 27 H 13.158813 2.204992 -16.646992 0
M  V30 28 H 12.599293 3.299885 -17.905766 0
M  V30 29 H 11.818873 3.312145 -16.344997 0
M  V30 30 H 12.845667 0.351831 -18.355194 0
M  V30 31 H 12.269824 1.563986 -19.480614 0
M  V30 32 H 11.465938 -0.698060 -20.120159 0
M  V30 33 H 10.129883 0.373359 -19.774708 0
M  V30 34 H 11.285640 -1.728730 -17.872921 0
M  V30 35 H 9.735481 -1.809425 -18.680914 0
M  V30 36 H 9.522644 -1.027903 -16.320580 0
M  V30 37 H 8.926482 0.150407 -17.461369 0
M  V30 38 H 11.668459 0.172365 -16.114927 0
M  V30 39 H 10.926526 1.907360 -14.705347 0
M  V30 40 H 9.735308 0.680991 -14.644810 0
M  V30 41 H 8.394637 2.073303 -16.455713 0
M  V30 42 H 9.484377 3.341807 -16.151188 0
M  V30 43 H 10.738784 4.032547 -14.521284 0
M  V30 44 H 11.476824 5.930257 -13.213977 0
M  V30 45 H 9.910689 7.079828 -11.655878 0
M  V30 46 H 7.579464 6.275544 -11.447062 0
M  V30 47 H 4.194820 2.194344 -12.363318 0
M  V30 48 H 3.822949 0.014490 -13.456436 0
M  V30 49 H 5.470728 0.251796 -17.262733 0
M  V30 50 H 6.665950 -1.048973 -17.454878 0
M  V30 51 H 4.974661 -1.323697 -17.889187 0
M  V30 52 H 7.559132 0.381891 -15.514172 0
M  V30 53 H 10.537750 2.108942 -17.962170 0
M  V30 END ATOM
M  V30 BEGIN BOND
M  V30 1 1 2 1
M  V30 2 1 3 2
M  V30 3 1 4 3
M  V30 4 1 5 4
M  V30 5 1 6 5
M  V30 6 1 7 2
M  V30 7 1 7 6
M  V30 8 1 8 7
M  V30 9 1 9 8
M  V30 10 1 10 9
M  V30 11 1 11 10
M  V30 12 2 12 11
M  V30 13 1 13 12
M  V30 14 2 14 13
M  V30 15 1 15 14
M  V30 16 1 16 11
M  V30 17 2 16 15
M  V30 18 1 17 16
M  V30 19 1 18 17
M  V30 20 2 19 18
M  V30 21 1 20 19
M  V30 22 2 21 20
M  V30 23 1 22 21
M  V30 24 1 22 23 CFG=3
M  V30 25 2 24 22
M  V30 26 1 25 21
M  V30 27 1 26 10
M  V30 28 1 26 18
M  V30 29 2 26 25
M  V30 30 1 27 1
M  V30 31 1 28 1
M  V30 32 1 29 1
M  V30 33 1 30 3
M  V30 34 1 31 3
M  V30 35 1 32 4
M  V30 36 1 33 4
M  V30 37 1 34 5
M  V30 38 1 35 5
M  V30 39 1 36 6
M  V30 40 1 37 6
M  V30 41 1 7 38 CFG=1
M  V30 42 1 39 8
M  V30 43 1 40 8
M  V30 44 1 41 9
M  V30 45 1 42 9
M  V30 46 1 43 12
M  V30 47 1 44 13
M  V30 48 1 45 14
M  V30 49 1 46 15
M  V30 50 1 47 19
M  V30 51 1 48 20
M  V30 52 1 49 23
M  V30 53 1 50 23
M  V30 54 1 51 23
M  V30 55 1 52 25
M  V30 56 1 2 53 CFG=3
M  V30 END BOND
M  V30 END CTAB
M  END
>  <b_m_subgroup_collapsed>  (2145) 
0

>  <r_i_docking_score>  (2145) 
-6.15480439097706

>  <s_m_subgroup_title>  (2145) 
glide-dock_SP_D22_pv

>  <s_m_subgroupid>  (2145) 
glide-dock_SP_D22_pv

>  <Molecule ChEMBL ID>  (2145) 
CHEMBL611207

>  <Standard Type>  (2145) 
Ki

>  <Standard Value>  (2145) 
2.2

>  <label>  (2145) 
1

$$$$
CHEMBL1258036
     RDKit          3D

  0  0  0  0  0  0  0  0  0  0999 V3000
M  V30 BEGIN CTAB
M  V30 COUNTS 67 71 0 0 1
M  V30 BEGIN ATOM
M  V30 1 O 9.883530 8.111428 -10.292803 0
M  V30 2 C 9.932327 7.308404 -9.358681 0
M  V30 3 C 9.479293 5.852096 -9.571644 0
M  V30 4 C 8.629856 5.572415 -10.830201 0
M  V30 5 C 9.328306 5.842330 -12.182817 0
M  V30 6 N 9.484309 4.636524 -13.000092 0
M  V30 7 C 10.351338 4.936630 -14.146358 0
M  V30 8 C 10.626139 3.653374 -14.956001 0
M  V30 9 N 9.375885 3.021253 -15.364823 0
M  V30 10 C 9.060247 2.730905 -16.707453 0
M  V30 11 C 9.487115 3.596404 -17.743979 0
M  V30 12 C 9.326882 3.225000 -19.098886 0
M  V30 13 C 8.450188 2.173387 -19.423651 0
M  V30 14 C 8.002682 1.314921 -18.402847 0
M  V30 15 C 8.454882 1.497622 -17.076208 0
M  V30 16 C 8.588129 0.241730 -16.198513 0
M  V30 17 C 10.067204 -0.262934 -16.061777 0
M  V30 18 C 10.949748 0.154554 -17.240559 0
M  V30 19 C 10.704993 -0.361565 -18.529510 0
M  V30 20 C 11.062039 0.407366 -19.657831 0
M  V30 21 C 11.659195 1.675994 -19.473940 0
M  V30 22 C 12.195057 2.012098 -18.214655 0
M  V30 23 C 11.832889 1.244566 -17.090805 0
M  V30 24 C 11.451249 2.769420 -20.521704 0
M  V30 25 C 10.289991 3.765762 -20.158007 0
M  V30 26 C 8.395658 2.842995 -14.301813 0
M  V30 27 C 8.196400 4.163599 -13.527765 0
M  V30 28 C 10.446738 7.682207 -8.004029 0
M  V30 29 C 10.412004 6.794913 -6.900598 0
M  V30 30 C 10.853631 7.213296 -5.627281 0
M  V30 31 C 11.331975 8.523358 -5.438969 0
M  V30 32 F 11.726768 8.936543 -4.210623 0
M  V30 33 C 11.404464 9.401112 -6.534609 0
M  V30 34 C 10.970284 8.980482 -7.805130 0
M  V30 35 H 10.369416 5.224274 -9.581304 0
M  V30 36 H 8.887020 5.550201 -8.708659 0
M  V30 37 H 8.293675 4.540070 -10.766398 0
M  V30 38 H 7.718511 6.168884 -10.779578 0
M  V30 39 H 8.772458 6.597913 -12.741130 0
M  V30 40 H 10.317792 6.263495 -12.000656 0
M  V30 41 H 9.893954 5.697851 -14.781954 0
M  V30 42 H 11.300727 5.345026 -13.793476 0
M  V30 43 H 11.267053 3.881767 -15.805350 0
M  V30 44 H 11.184025 2.951362 -14.336135 0
M  V30 45 H 10.092196 4.456316 -17.508369 0
M  V30 46 H 8.286997 1.899915 -20.456131 0
M  V30 47 H 7.510373 0.396642 -18.692051 0
M  V30 48 H 8.118483 0.363490 -15.224002 0
M  V30 49 H 8.019894 -0.552893 -16.685165 0
M  V30 50 H 10.496450 0.170842 -15.157120 0
M  V30 51 H 10.091844 -1.343538 -15.922952 0
M  V30 52 H 10.064160 -1.220369 -18.659708 0
M  V30 53 H 10.681775 0.118426 -20.625803 0
M  V30 54 H 12.691242 2.959496 -18.064293 0
M  V30 55 H 12.078671 1.614631 -16.107973 0
M  V30 56 H 12.381994 3.311672 -20.690561 0
M  V30 57 H 11.215699 2.281981 -21.468023 0
M  V30 58 H 9.742597 4.059370 -21.054119 0
M  V30 59 H 10.729942 4.682527 -19.765928 0
M  V30 60 H 7.438601 2.517615 -14.708401 0
M  V30 61 H 8.745978 2.061665 -13.626153 0
M  V30 62 H 7.486791 3.996314 -12.716811 0
M  V30 63 H 7.756444 4.918876 -14.180775 0
M  V30 64 H 10.039788 5.784392 -7.003189 0
M  V30 65 H 10.805103 6.533369 -4.789012 0
M  V30 66 H 11.786592 10.401959 -6.397666 0
M  V30 67 H 11.032162 9.675446 -8.631088 0
M  V30 END ATOM
M  V30 BEGIN BOND
M  V30 1 2 2 1
M  V30 2 1 3 2
M  V30 3 1 4 3
M  V30 4 1 5 4
M  V30 5 1 6 5
M  V30 6 1 7 6
M  V30 7 1 8 7
M  V30 8 1 9 8
M  V30 9 1 10 9
M  V30 10 1 11 10
M  V30 11 2 12 11
M  V30 12 1 13 12
M  V30 13 2 14 13
M  V30 14 2 15 10
M  V30 15 1 15 14
M  V30 16 1 16 15
M  V30 17 1 17 16
M  V30 18 1 18 17
M  V30 19 1 19 18
M  V30 20 2 20 19
M  V30 21 1 21 20
M  V30 22 2 22 21
M  V30 23 2 23 18
M  V30 24 1 23 22
M  V30 25 1 24 21
M  V30 26 1 25 12
M  V30 27 1 25 24
M  V30 28 1 26 9
M  V30 29 1 27 6
M  V30 30 1 27 26
M  V30 31 1 28 2
M  V30 32 1 29 28
M  V30 33 2 30 29
M  V30 34 1 31 30
M  V30 35 1 32 31
M  V30 36 2 33 31
M  V30 37 2 34 28
M  V30 38 1 34 33
M  V30 39 1 35 3
M  V30 40 1 36 3
M  V30 41 1 37 4
M  V30 42 1 38 4
M  V30 43 1 39 5
M  V30 44 1 40 5
M  V30 45 1 41 7
M  V30 46 1 42 7
M  V30 47 1 43 8
M  V30 48 1 44 8
M  V30 49 1 45 11
M  V30 50 1 46 13
M  V30 51 1 47 14
M  V30 52 1 48 16
M  V30 53 1 49 16
M  V30 54 1 50 17
M  V30 55 1 51 17
M  V30 56 1 52 19
M  V30 57 1 53 20
M  V30 58 1 54 22
M  V30 59 1 55 23
M  V30 60 1 56 24
M  V30 61 1 57 24
M  V30 62 1 58 25
M  V30 63 1 59 25
M  V30 64 1 60 26
M  V30 65 1 61 26
M  V30 66 1 62 27
M  V30 67 1 63 27
M  V30 68 1 64 29
M  V30 69 1 65 30
M  V30 70 1 66 33
M  V30 71 1 67 34
M  V30 END BOND
M  V30 END CTAB
M  END
>  <b_m_subgroup_collapsed>  (2146) 
0

>  <r_i_docking_score>  (2146) 
-6.1544084721127801

>  <s_m_subgroup_title>  (2146) 
glide-dock_SP_D22_pv

>  <s_m_subgroupid>  (2146) 
glide-dock_SP_D22_pv

>  <Molecule ChEMBL ID>  (2146) 
CHEMBL1258036

>  <Standard Type>  (2146) 
Ki

>  <Standard Value>  (2146) 
19.0

>  <label>  (2146) 
1

$$$$
CHEMBL1171630
     RDKit          3D

  0  0  0  0  0  0  0  0  0  0999 V3000
M  V30 BEGIN CTAB
M  V30 COUNTS 66 71 0 0 1
M  V30 BEGIN ATOM
M  V30 1 O 10.486273 0.272019 -15.055062 0
M  V30 2 C 10.355266 1.224212 -15.825336 0
M  V30 3 N 10.357881 1.177808 -17.157419 0
M  V30 4 C 10.387692 -0.020835 -17.988003 0
M  V30 5 C 9.027731 -0.347608 -18.528696 0
M  V30 6 C 7.861626 -0.608677 -17.864834 0
M  V30 7 N 6.944741 -0.781969 -18.881968 0
M  V30 8 C 5.526623 -1.081439 -18.790546 0
M  V30 9 C 4.664455 0.188148 -18.711205 0
M  V30 10 F 4.816865 0.944204 -19.799280 0
M  V30 11 N 7.522246 -0.633525 -20.097876 0
M  V30 12 N 8.775206 -0.370372 -19.897909 0
M  V30 13 C 10.119351 2.490729 -17.745186 0
M  V30 14 N 10.277012 3.433927 -16.632015 0
M  V30 15 C 11.386461 4.286655 -16.793076 0
M  V30 16 C 11.170219 5.678424 -16.869530 0
M  V30 17 C 12.255099 6.565100 -17.019907 0
M  V30 18 C 13.566107 6.063277 -17.106829 0
M  V30 19 C 13.787595 4.675095 -17.055681 0
M  V30 20 C 12.704693 3.788579 -16.907103 0
M  V30 21 C 10.114820 2.665460 -15.384163 0 CFG=2
M  V30 22 C 11.020409 3.073633 -14.186608 0
M  V30 23 C 10.621925 4.413116 -13.523864 0
M  V30 24 N 9.188043 4.436508 -13.131999 0 CFG=1 CHG=1
M  V30 25 C 8.770747 5.698445 -12.464464 0
M  V30 26 C 9.098723 5.718334 -11.003003 0
M  V30 27 C 8.487463 4.973575 -10.020494 0
M  V30 28 O 8.961565 5.265245 -8.770635 0
M  V30 29 C 9.896317 6.264564 -8.931154 0
M  V30 30 C 10.637517 6.908589 -7.926168 0
M  V30 31 C 11.563680 7.899829 -8.303895 0
M  V30 32 C 11.730053 8.220893 -9.667530 0
M  V30 33 C 10.963311 7.572142 -10.659659 0
M  V30 34 C 10.025833 6.572036 -10.310989 0
M  V30 35 C 8.327171 4.134058 -14.297273 0
M  V30 36 C 8.649969 2.756056 -14.893888 0
M  V30 37 H 11.095171 0.143579 -18.801289 0
M  V30 38 H 10.778316 -0.868477 -17.423185 0
M  V30 39 H 7.619025 -0.686329 -16.814316 0
M  V30 40 H 5.233737 -1.683125 -19.652998 0
M  V30 41 H 5.362197 -1.700664 -17.907700 0
M  V30 42 H 3.604919 -0.063405 -18.645536 0
M  V30 43 H 4.923745 0.799358 -17.846365 0
M  V30 44 H 10.805539 2.673442 -18.575052 0
M  V30 45 H 9.102798 2.551294 -18.137512 0
M  V30 46 H 10.166466 6.070627 -16.811659 0
M  V30 47 H 12.086526 7.630515 -17.073671 0
M  V30 48 H 14.398979 6.742025 -17.220453 0
M  V30 49 H 14.793209 4.286826 -17.124447 0
M  V30 50 H 12.894519 2.725902 -16.863125 0
M  V30 51 H 10.938745 2.288022 -13.439179 0
M  V30 52 H 12.077702 3.085875 -14.452215 0
M  V30 53 H 10.826593 5.244562 -14.197040 0
M  V30 54 H 11.244613 4.577816 -12.649674 0
M  V30 55 H 7.691783 5.830633 -12.561573 0
M  V30 56 H 9.211583 6.552530 -12.979065 0
M  V30 57 H 7.699546 4.233441 -10.044802 0
M  V30 58 H 10.497126 6.641171 -6.889271 0
M  V30 59 H 12.150750 8.409949 -7.553854 0
M  V30 60 H 12.452473 8.971876 -9.954473 0
M  V30 61 H 11.099426 7.836265 -11.696815 0
M  V30 62 H 7.276048 4.158211 -14.005415 0
M  V30 63 H 8.481755 4.912228 -15.047056 0
M  V30 64 H 8.456997 1.993053 -14.136309 0
M  V30 65 H 7.958164 2.544909 -15.711553 0
M  V30 66 H 9.044409 3.694033 -12.461460 0
M  V30 END ATOM
M  V30 BEGIN BOND
M  V30 1 2 2 1
M  V30 2 1 3 2
M  V30 3 1 4 3
M  V30 4 1 5 4
M  V30 5 2 6 5
M  V30 6 1 7 6
M  V30 7 1 8 7
M  V30 8 1 9 8
M  V30 9 1 10 9
M  V30 10 1 11 7
M  V30 11 1 12 5
M  V30 12 2 12 11
M  V30 13 1 13 3
M  V30 14 1 14 13
M  V30 15 1 15 14
M  V30 16 2 16 15
M  V30 17 1 17 16
M  V30 18 2 18 17
M  V30 19 1 19 18
M  V30 20 1 20 15
M  V30 21 2 20 19
M  V30 22 1 21 2
M  V30 23 1 21 14 CFG=3
M  V30 24 1 22 21
M  V30 25 1 23 22
M  V30 26 1 24 23
M  V30 27 1 25 24
M  V30 28 1 26 25
M  V30 29 2 27 26
M  V30 30 1 28 27
M  V30 31 1 29 28
M  V30 32 2 30 29
M  V30 33 1 31 30
M  V30 34 2 32 31
M  V30 35 1 33 32
M  V30 36 1 34 26
M  V30 37 1 34 29
M  V30 38 2 34 33
M  V30 39 1 35 24
M  V30 40 1 36 21
M  V30 41 1 36 35
M  V30 42 1 37 4
M  V30 43 1 38 4
M  V30 44 1 39 6
M  V30 45 1 40 8
M  V30 46 1 41 8
M  V30 47 1 42 9
M  V30 48 1 43 9
M  V30 49 1 44 13
M  V30 50 1 45 13
M  V30 51 1 46 16
M  V30 52 1 47 17
M  V30 53 1 48 18
M  V30 54 1 49 19
M  V30 55 1 50 20
M  V30 56 1 51 22
M  V30 57 1 52 22
M  V30 58 1 53 23
M  V30 59 1 54 23
M  V30 60 1 55 25
M  V30 61 1 56 25
M  V30 62 1 57 27
M  V30 63 1 58 30
M  V30 64 1 59 31
M  V30 65 1 60 32
M  V30 66 1 61 33
M  V30 67 1 62 35
M  V30 68 1 63 35
M  V30 69 1 64 36
M  V30 70 1 65 36
M  V30 71 1 24 66 CFG=1
M  V30 END BOND
M  V30 END CTAB
M  END
>  <b_m_subgroup_collapsed>  (2147) 
0

>  <r_i_docking_score>  (2147) 
-6.1521443349844196

>  <s_m_subgroup_title>  (2147) 
glide-dock_SP_D22_pv

>  <s_m_subgroupid>  (2147) 
glide-dock_SP_D22_pv

>  <Molecule ChEMBL ID>  (2147) 
CHEMBL1171630

>  <Standard Type>  (2147) 
Ki

>  <Standard Value>  (2147) 
2.0

>  <label>  (2147) 
1

$$$$
CHEMBL2298829
     RDKit          3D

  0  0  0  0  0  0  0  0  0  0999 V3000
M  V30 BEGIN CTAB
M  V30 COUNTS 51 54 0 0 1
M  V30 BEGIN ATOM
M  V30 1 C 11.814921 11.302876 -6.246874 0
M  V30 2 O 11.245530 10.060421 -6.557918 0
M  V30 3 C 11.419843 9.048427 -5.641319 0
M  V30 4 C 12.052781 9.228300 -4.379727 0
M  V30 5 C 12.187718 8.168215 -3.469202 0
M  V30 6 C 11.686023 6.906065 -3.806751 0
M  V30 7 C 11.048403 6.727424 -5.046588 0
M  V30 8 C 10.920223 7.770234 -5.978102 0
M  V30 9 N 10.332294 7.483213 -7.222734 0
M  V30 10 C 8.967703 6.979318 -7.297974 0
M  V30 11 C 8.840023 6.000737 -8.484885 0
M  V30 12 N 9.285964 6.618433 -9.742580 0
M  V30 13 C 9.159539 5.638422 -10.821690 0
M  V30 14 C 9.262103 6.282224 -12.221539 0
M  V30 15 O 10.086060 5.493933 -13.075302 0
M  V30 16 C 9.582686 4.356598 -13.670043 0
M  V30 17 C 8.221568 3.929209 -13.576040 0
M  V30 18 C 7.768429 2.766177 -14.246867 0
M  V30 19 C 8.714749 2.049139 -14.992608 0
M  V30 20 N 8.598804 0.898754 -15.779379 0
M  V30 21 C 9.784066 0.598334 -16.370979 0
M  V30 22 S 10.086051 -0.626965 -17.446798 0
M  V30 23 N 10.664033 1.530786 -15.922892 0
M  V30 24 C 10.028111 2.448932 -15.081851 0
M  V30 25 C 10.503948 3.598644 -14.435223 0
M  V30 26 C 10.681205 7.043594 -9.594254 0
M  V30 27 C 10.823676 8.069528 -8.460465 0
M  V30 28 H 11.686014 12.021988 -7.048086 0
M  V30 29 H 11.327925 11.694127 -5.352299 0
M  V30 30 H 12.885988 11.172035 -6.127731 0
M  V30 31 H 12.455780 10.172176 -4.067654 0
M  V30 32 H 12.672019 8.326729 -2.516694 0
M  V30 33 H 11.772848 6.080419 -3.115553 0
M  V30 34 H 10.647532 5.772321 -5.300680 0
M  V30 35 H 8.675795 6.484762 -6.371793 0
M  V30 36 H 8.288014 7.822137 -7.430876 0
M  V30 37 H 9.420415 5.098652 -8.284523 0
M  V30 38 H 7.797284 5.696883 -8.580553 0
M  V30 39 H 9.915181 4.861150 -10.698221 0
M  V30 40 H 8.193105 5.137150 -10.748930 0
M  V30 41 H 8.278482 6.477988 -12.648990 0
M  V30 42 H 9.731586 7.263692 -12.174230 0
M  V30 43 H 7.498991 4.483521 -12.997372 0
M  V30 44 H 6.738226 2.447651 -14.185814 0
M  V30 45 H 7.745607 0.375002 -15.912756 0
M  V30 46 H 11.636725 1.575786 -16.190233 0
M  V30 47 H 11.535411 3.905238 -14.527491 0
M  V30 48 H 11.286026 6.172314 -9.369967 0
M  V30 49 H 11.066637 7.476076 -10.516229 0
M  V30 50 H 10.255859 8.971768 -8.692131 0
M  V30 51 H 11.871035 8.355825 -8.357153 0
M  V30 END ATOM
M  V30 BEGIN BOND
M  V30 1 1 2 1
M  V30 2 1 3 2
M  V30 3 2 4 3
M  V30 4 1 5 4
M  V30 5 2 6 5
M  V30 6 1 7 6
M  V30 7 1 8 3
M  V30 8 2 8 7
M  V30 9 1 9 8
M  V30 10 1 10 9
M  V30 11 1 11 10
M  V30 12 1 12 11
M  V30 13 1 13 12
M  V30 14 1 14 13
M  V30 15 1 15 14
M  V30 16 1 16 15
M  V30 17 1 17 16
M  V30 18 2 18 17
M  V30 19 1 19 18
M  V30 20 1 20 19
M  V30 21 1 21 20
M  V30 22 2 22 21
M  V30 23 1 23 21
M  V30 24 2 24 19
M  V30 25 1 24 23
M  V30 26 2 25 16
M  V30 27 1 25 24
M  V30 28 1 26 12
M  V30 29 1 27 9
M  V30 30 1 27 26
M  V30 31 1 28 1
M  V30 32 1 29 1
M  V30 33 1 30 1
M  V30 34 1 31 4
M  V30 35 1 32 5
M  V30 36 1 33 6
M  V30 37 1 34 7
M  V30 38 1 35 10
M  V30 39 1 36 10
M  V30 40 1 37 11
M  V30 41 1 38 11
M  V30 42 1 39 13
M  V30 43 1 40 13
M  V30 44 1 41 14
M  V30 45 1 42 14
M  V30 46 1 43 17
M  V30 47 1 44 18
M  V30 48 1 45 20
M  V30 49 1 46 23
M  V30 50 1 47 25
M  V30 51 1 48 26
M  V30 52 1 49 26
M  V30 53 1 50 27
M  V30 54 1 51 27
M  V30 END BOND
M  V30 END CTAB
M  END
>  <b_m_subgroup_collapsed>  (2148) 
0

>  <r_i_docking_score>  (2148) 
-6.1503308895606201

>  <s_m_subgroup_title>  (2148) 
glide-dock_SP_D22_pv

>  <s_m_subgroupid>  (2148) 
glide-dock_SP_D22_pv

>  <Molecule ChEMBL ID>  (2148) 
CHEMBL2298829

>  <Standard Type>  (2148) 
Ki

>  <Standard Value>  (2148) 
0.19

>  <label>  (2148) 
1

$$$$
CHEMBL252430
     RDKit          3D

  0  0  0  0  0  0  0  0  0  0999 V3000
M  V30 BEGIN CTAB
M  V30 COUNTS 64 69 0 0 1
M  V30 BEGIN ATOM
M  V30 1 O 10.887239 10.170691 -6.338474 0
M  V30 2 C 10.929113 8.953594 -6.166902 0
M  V30 3 N 10.506910 8.052224 -7.070609 0
M  V30 4 C 9.782127 8.342797 -8.303387 0 CFG=1
M  V30 5 C 10.493484 9.336009 -9.262273 0
M  V30 6 C 10.966829 8.563435 -10.503345 0
M  V30 7 C 10.235864 7.284765 -10.402463 0
M  V30 8 C 10.086199 6.370679 -11.445327 0
M  V30 9 C 9.340699 5.209603 -11.200822 0
M  V30 10 C 9.283512 4.166042 -12.288345 0
M  V30 11 C 7.994396 4.220567 -13.113375 0
M  V30 12 N 7.890654 2.970466 -13.848418 0
M  V30 13 C 8.786687 2.842744 -15.002840 0
M  V30 14 C 8.766866 1.377754 -15.483994 0
M  V30 15 N 7.404247 0.938329 -15.776855 0
M  V30 16 C 6.934360 0.768982 -17.100367 0
M  V30 17 N 7.530974 1.380306 -18.106256 0
M  V30 18 S 6.792931 0.972152 -19.554995 0
M  V30 19 C 5.574098 -0.052135 -18.836344 0
M  V30 20 C 4.531734 -0.770883 -19.447607 0
M  V30 21 C 3.686371 -1.562637 -18.653702 0
M  V30 22 C 3.891296 -1.628583 -17.265762 0
M  V30 23 C 4.946974 -0.921347 -16.668343 0
M  V30 24 C 5.805688 -0.087895 -17.427666 0
M  V30 25 C 6.486325 1.182794 -14.667582 0
M  V30 26 C 6.521406 2.660746 -14.244330 0
M  V30 27 C 8.718435 5.021511 -9.939988 0
M  V30 28 C 8.862720 5.973343 -8.905837 0
M  V30 29 C 9.617473 7.124175 -9.172724 0
M  V30 30 C 11.427739 8.409608 -4.862084 0
M  V30 31 C 11.625750 7.026947 -4.640779 0
M  V30 32 C 12.085887 6.604366 -3.382314 0
M  V30 33 C 12.350011 7.576096 -2.404714 0
M  V30 34 N 12.171583 8.895266 -2.597585 0
M  V30 35 C 11.715003 9.295709 -3.799324 0
M  V30 36 H 10.588414 7.074709 -6.837933 0
M  V30 37 H 8.791323 8.718483 -8.038060 0
M  V30 38 H 9.722755 10.021876 -9.602094 0
M  V30 39 H 11.285340 9.933201 -8.820560 0
M  V30 40 H 12.044220 8.395541 -10.511903 0
M  V30 41 H 10.636327 8.972530 -11.446847 0
M  V30 42 H 10.562316 6.542936 -12.399587 0
M  V30 43 H 10.146382 4.304814 -12.939787 0
M  V30 44 H 9.430671 3.185162 -11.846673 0
M  V30 45 H 7.150558 4.297609 -12.425950 0
M  V30 46 H 7.959059 5.088946 -13.773489 0
M  V30 47 H 8.487533 3.513250 -15.805428 0
M  V30 48 H 9.807880 3.106149 -14.733698 0
M  V30 49 H 9.414304 1.255449 -16.352274 0
M  V30 50 H 9.176877 0.730013 -14.707971 0
M  V30 51 H 4.385421 -0.721373 -20.516600 0
M  V30 52 H 2.887722 -2.129710 -19.102560 0
M  V30 53 H 3.242490 -2.227837 -16.647251 0
M  V30 54 H 5.096556 -1.032184 -15.605805 0
M  V30 55 H 5.463221 0.925621 -14.921142 0
M  V30 56 H 6.766557 0.542527 -13.829347 0
M  V30 57 H 5.845167 2.802945 -13.400549 0
M  V30 58 H 6.184864 3.320122 -15.044909 0
M  V30 59 H 8.087744 4.172159 -9.761664 0
M  V30 60 H 8.342781 5.855517 -7.965783 0
M  V30 61 H 11.433203 6.289414 -5.405908 0
M  V30 62 H 12.263526 5.564405 -3.169635 0
M  V30 63 H 12.739469 7.280407 -1.446715 0
M  V30 64 H 11.571424 10.360911 -3.901518 0
M  V30 END ATOM
M  V30 BEGIN BOND
M  V30 1 2 2 1
M  V30 2 1 3 2
M  V30 3 1 4 3
M  V30 4 1 5 4
M  V30 5 1 6 5
M  V30 6 1 7 6
M  V30 7 1 8 7
M  V30 8 2 9 8
M  V30 9 1 10 9
M  V30 10 1 11 10
M  V30 11 1 12 11
M  V30 12 1 13 12
M  V30 13 1 14 13
M  V30 14 1 15 14
M  V30 15 1 16 15
M  V30 16 2 17 16
M  V30 17 1 18 17
M  V30 18 1 19 18
M  V30 19 2 20 19
M  V30 20 1 21 20
M  V30 21 2 22 21
M  V30 22 1 23 22
M  V30 23 1 24 16
M  V30 24 1 24 19
M  V30 25 2 24 23
M  V30 26 1 25 15
M  V30 27 1 26 12
M  V30 28 1 26 25
M  V30 29 1 27 9
M  V30 30 2 28 27
M  V30 31 1 29 4
M  V30 32 2 29 7
M  V30 33 1 29 28
M  V30 34 1 30 2
M  V30 35 2 31 30
M  V30 36 1 32 31
M  V30 37 2 33 32
M  V30 38 1 34 33
M  V30 39 1 35 30
M  V30 40 2 35 34
M  V30 41 1 36 3
M  V30 42 1 4 37 CFG=1
M  V30 43 1 38 5
M  V30 44 1 39 5
M  V30 45 1 40 6
M  V30 46 1 41 6
M  V30 47 1 42 8
M  V30 48 1 43 10
M  V30 49 1 44 10
M  V30 50 1 45 11
M  V30 51 1 46 11
M  V30 52 1 47 13
M  V30 53 1 48 13
M  V30 54 1 49 14
M  V30 55 1 50 14
M  V30 56 1 51 20
M  V30 57 1 52 21
M  V30 58 1 53 22
M  V30 59 1 54 23
M  V30 60 1 55 25
M  V30 61 1 56 25
M  V30 62 1 57 26
M  V30 63 1 58 26
M  V30 64 1 59 27
M  V30 65 1 60 28
M  V30 66 1 61 31
M  V30 67 1 62 32
M  V30 68 1 63 33
M  V30 69 1 64 35
M  V30 END BOND
M  V30 END CTAB
M  END
>  <b_m_subgroup_collapsed>  (2149) 
0

>  <r_i_docking_score>  (2149) 
-6.1503139387905597

>  <s_m_subgroup_title>  (2149) 
glide-dock_SP_D22_pv

>  <s_m_subgroupid>  (2149) 
glide-dock_SP_D22_pv

>  <Molecule ChEMBL ID>  (2149) 
CHEMBL252430

>  <Standard Type>  (2149) 
Ki

>  <Standard Value>  (2149) 
5.0

>  <label>  (2149) 
1

$$$$
CHEMBL540033
     RDKit          3D

  0  0  0  0  0  0  0  0  0  0999 V3000
M  V30 BEGIN CTAB
M  V30 COUNTS 35 36 0 0 1
M  V30 BEGIN ATOM
M  V30 1 C 8.887830 9.261191 -10.014844 0
M  V30 2 N 9.815129 8.110797 -10.098125 0 CHG=1
M  V30 3 C 9.812279 7.485153 -11.439011 0
M  V30 4 C 11.193022 8.393933 -9.595639 0
M  V30 5 C 11.303692 8.799936 -8.094464 0
M  V30 6 C 10.810657 7.760128 -7.045108 0 CFG=2
M  V30 7 C 11.286340 8.034872 -5.611833 0
M  V30 8 C 11.287865 9.345834 -5.078331 0
M  V30 9 C 11.685812 9.573092 -3.745642 0
M  V30 10 C 12.086026 8.500484 -2.929377 0
M  V30 11 C 12.086314 7.192991 -3.445955 0
M  V30 12 C 11.682138 6.964112 -4.775563 0
M  V30 13 O 11.209089 6.473649 -7.522205 0
M  V30 14 C 10.078027 5.772347 -7.850882 0
M  V30 15 C 8.925275 6.377962 -7.571899 0
M  V30 16 C 9.296707 7.657821 -7.035778 0
M  V30 17 O 8.565352 8.572142 -6.689658 0
M  V30 18 H 9.446872 10.172068 -9.846828 0
M  V30 19 H 8.275424 9.375742 -10.910898 0
M  V30 20 H 8.209312 9.156964 -9.172653 0
M  V30 21 H 10.187048 8.172161 -12.197663 0
M  V30 22 H 10.430481 6.586890 -11.451581 0
M  V30 23 H 8.799346 7.189216 -11.717373 0
M  V30 24 H 11.634725 9.180211 -10.210942 0
M  V30 25 H 11.813702 7.512318 -9.762289 0
M  V30 26 H 10.827695 9.766583 -7.929423 0
M  V30 27 H 12.363383 8.974195 -7.902845 0
M  V30 28 H 10.967362 10.184098 -5.678561 0
M  V30 29 H 11.674630 10.572162 -3.337379 0
M  V30 30 H 12.383502 8.682649 -1.906843 0
M  V30 31 H 12.382652 6.362110 -2.821617 0
M  V30 32 H 11.673230 5.950662 -5.149146 0
M  V30 33 H 10.246120 4.799292 -8.286745 0
M  V30 34 H 7.914503 6.028415 -7.722872 0
M  V30 35 H 9.417732 7.405892 -9.491225 0
M  V30 END ATOM
M  V30 BEGIN BOND
M  V30 1 1 2 1
M  V30 2 1 3 2
M  V30 3 1 4 2
M  V30 4 1 5 4
M  V30 5 1 6 5 CFG=3
M  V30 6 1 7 6
M  V30 7 2 8 7
M  V30 8 1 9 8
M  V30 9 2 10 9
M  V30 10 1 11 10
M  V30 11 1 12 7
M  V30 12 2 12 11
M  V30 13 1 13 6
M  V30 14 1 14 13
M  V30 15 2 15 14
M  V30 16 1 16 6
M  V30 17 1 16 15
M  V30 18 2 17 16
M  V30 19 1 18 1
M  V30 20 1 19 1
M  V30 21 1 20 1
M  V30 22 1 21 3
M  V30 23 1 22 3
M  V30 24 1 23 3
M  V30 25 1 24 4
M  V30 26 1 25 4
M  V30 27 1 26 5
M  V30 28 1 27 5
M  V30 29 1 28 8
M  V30 30 1 29 9
M  V30 31 1 30 10
M  V30 32 1 31 11
M  V30 33 1 32 12
M  V30 34 1 33 14
M  V30 35 1 34 15
M  V30 36 1 35 2
M  V30 END BOND
M  V30 END CTAB
M  END
>  <b_m_subgroup_collapsed>  (2150) 
0

>  <r_i_docking_score>  (2150) 
-6.1494520221411104

>  <s_m_subgroup_title>  (2150) 
glide-dock_SP_D22_pv

>  <s_m_subgroupid>  (2150) 
glide-dock_SP_D22_pv

>  <Molecule ChEMBL ID>  (2150) 
CHEMBL540033

>  <Standard Type>  (2150) 
Ki

>  <Standard Value>  (2150) 
10000.0

>  <label>  (2150) 
0

$$$$
CHEMBL598759
     RDKit          3D

  0  0  0  0  0  0  0  0  0  0999 V3000
M  V30 BEGIN CTAB
M  V30 COUNTS 50 53 0 0 1
M  V30 BEGIN ATOM
M  V30 1 C 14.083720 7.158709 -17.212780 0
M  V30 2 C 14.360578 6.018634 -17.866669 0
M  V30 3 C 13.658328 4.692680 -17.650301 0
M  V30 4 O 12.728354 4.771597 -16.577847 0
M  V30 5 C 11.923229 3.690717 -16.288479 0
M  V30 6 C 11.965474 2.497618 -17.057062 0
M  V30 7 C 11.084367 1.435983 -16.793020 0
M  V30 8 C 10.125437 1.566305 -15.779949 0
M  V30 9 C 10.075162 2.743025 -15.007377 0
M  V30 10 C 11.002988 3.799239 -15.204013 0
M  V30 11 C 10.962531 4.943990 -14.245539 0
M  V30 12 C 12.063601 5.805171 -13.995089 0
M  V30 13 C 12.031538 6.842641 -13.046050 0
M  V30 14 C 10.907976 7.010204 -12.225116 0
M  V30 15 C 9.797808 6.171975 -12.388840 0
M  V30 16 C 9.830680 5.195181 -13.419147 0
M  V30 17 C 8.583733 4.355196 -13.752056 0 CFG=1
M  V30 18 C 8.975875 2.881938 -13.975219 0
M  V30 19 N 7.413853 4.471941 -12.833401 0 CFG=2 CHG=1
M  V30 20 C 6.127048 4.050948 -13.462176 0
M  V30 21 C 5.327286 3.085424 -12.573283 0
M  V30 22 C 5.448716 1.609737 -12.982412 0
M  V30 23 C 7.291985 5.810062 -12.221228 0
M  V30 24 C 8.576320 6.167702 -11.490832 0
M  V30 25 H 13.312924 7.208005 -16.454847 0
M  V30 26 H 14.627988 8.066988 -17.430838 0
M  V30 27 H 15.137766 6.021815 -18.617981 0
M  V30 28 H 13.151588 4.432617 -18.580858 0
M  V30 29 H 14.408162 3.927937 -17.440874 0
M  V30 30 H 12.668629 2.366434 -17.863171 0
M  V30 31 H 11.129305 0.533234 -17.383717 0
M  V30 32 H 9.425305 0.763426 -15.599971 0
M  V30 33 H 12.997305 5.675544 -14.516738 0
M  V30 34 H 12.899674 7.468585 -12.908352 0
M  V30 35 H 10.913546 7.767441 -11.453756 0
M  V30 36 H 8.252733 4.772662 -14.702678 0
M  V30 37 H 8.119628 2.286791 -14.289343 0
M  V30 38 H 9.340174 2.448489 -13.047468 0
M  V30 39 H 5.515499 4.932165 -13.664938 0
M  V30 40 H 6.277149 3.600092 -14.443938 0
M  V30 41 H 5.594266 3.219718 -11.523645 0
M  V30 42 H 4.275449 3.354472 -12.652606 0
M  V30 43 H 4.907175 0.974748 -12.278807 0
M  V30 44 H 6.482611 1.269875 -13.039449 0
M  V30 45 H 5.003772 1.437357 -13.960306 0
M  V30 46 H 7.077002 6.559422 -12.987732 0
M  V30 47 H 6.456620 5.810678 -11.517226 0
M  V30 48 H 8.747404 5.473103 -10.667502 0
M  V30 49 H 8.485963 7.155189 -11.037767 0
M  V30 50 H 7.595332 3.838319 -12.067023 0
M  V30 END ATOM
M  V30 BEGIN BOND
M  V30 1 2 2 1
M  V30 2 1 3 2
M  V30 3 1 4 3
M  V30 4 1 5 4
M  V30 5 2 6 5
M  V30 6 1 7 6
M  V30 7 2 8 7
M  V30 8 1 9 8
M  V30 9 1 10 5
M  V30 10 2 10 9
M  V30 11 1 11 10
M  V30 12 2 12 11
M  V30 13 1 13 12
M  V30 14 2 14 13
M  V30 15 1 15 14
M  V30 16 1 16 11
M  V30 17 2 16 15
M  V30 18 1 17 16
M  V30 19 1 18 9
M  V30 20 1 18 17
M  V30 21 1 19 17
M  V30 22 1 20 19
M  V30 23 1 21 20
M  V30 24 1 22 21
M  V30 25 1 23 19
M  V30 26 1 24 15
M  V30 27 1 24 23
M  V30 28 1 25 1
M  V30 29 1 26 1
M  V30 30 1 27 2
M  V30 31 1 28 3
M  V30 32 1 29 3
M  V30 33 1 30 6
M  V30 34 1 31 7
M  V30 35 1 32 8
M  V30 36 1 33 12
M  V30 37 1 34 13
M  V30 38 1 35 14
M  V30 39 1 17 36 CFG=3
M  V30 40 1 37 18
M  V30 41 1 38 18
M  V30 42 1 39 20
M  V30 43 1 40 20
M  V30 44 1 41 21
M  V30 45 1 42 21
M  V30 46 1 43 22
M  V30 47 1 44 22
M  V30 48 1 45 22
M  V30 49 1 46 23
M  V30 50 1 47 23
M  V30 51 1 48 24
M  V30 52 1 49 24
M  V30 53 1 19 50 CFG=1
M  V30 END BOND
M  V30 END CTAB
M  END
>  <b_m_subgroup_collapsed>  (2151) 
0

>  <r_i_docking_score>  (2151) 
-6.1487673126370099

>  <s_m_subgroup_title>  (2151) 
glide-dock_SP_D22_pv

>  <s_m_subgroupid>  (2151) 
glide-dock_SP_D22_pv

>  <Molecule ChEMBL ID>  (2151) 
CHEMBL598759

>  <Standard Type>  (2151) 
Ki

>  <Standard Value>  (2151) 
10000.0

>  <label>  (2151) 
0

$$$$
CHEMBL27441
     RDKit          3D

  0  0  0  0  0  0  0  0  0  0999 V3000
M  V30 BEGIN CTAB
M  V30 COUNTS 41 42 0 0 1
M  V30 BEGIN ATOM
M  V30 1 C 7.490775 5.435439 -12.086027 0
M  V30 2 C 8.701886 6.339912 -11.829670 0
M  V30 3 C 9.200809 6.241001 -10.382038 0
M  V30 4 N 10.378229 7.116389 -10.157798 0 CHG=1
M  V30 5 C 10.865013 7.280732 -8.758623 0 CFG=2
M  V30 6 C 10.557203 6.090994 -7.833132 0
M  V30 7 C 11.193050 6.242327 -6.448040 0
M  V30 8 C 11.278247 7.641537 -5.898274 0
M  V30 9 C 11.686022 7.789778 -4.547385 0
M  V30 10 O 12.031384 6.656392 -3.840338 0
M  V30 11 C 12.100670 6.749927 -2.424407 0
M  V30 12 C 11.686022 9.076894 -3.973226 0
M  V30 13 C 11.286021 10.172325 -4.743502 0
M  V30 14 C 10.923876 10.028184 -6.088293 0
M  V30 15 C 10.894909 8.756484 -6.682502 0
M  V30 16 C 10.409584 8.612395 -8.127316 0 CFG=2
M  V30 17 C 8.886022 8.799650 -8.204003 0
M  V30 18 H 7.157140 5.513160 -13.120432 0
M  V30 19 H 7.725967 4.389039 -11.889093 0
M  V30 20 H 6.651909 5.716062 -11.446864 0
M  V30 21 H 8.424588 7.371446 -12.052949 0
M  V30 22 H 9.502297 6.072645 -12.520648 0
M  V30 23 H 9.468072 5.206072 -10.165231 0
M  V30 24 H 8.391055 6.508093 -9.703568 0
M  V30 25 H 10.154035 8.035504 -10.511142 0
M  V30 26 H 11.949873 7.361320 -8.844386 0
M  V30 27 H 9.478895 6.010434 -7.692033 0
M  V30 28 H 10.876165 5.145075 -8.268815 0
M  V30 29 H 12.175956 5.772324 -6.412323 0
M  V30 30 H 10.551784 5.772325 -5.715270 0
M  V30 31 H 12.330493 5.772324 -2.005578 0
M  V30 32 H 12.886022 7.431410 -2.101141 0
M  V30 33 H 11.149467 7.075600 -2.001206 0
M  V30 34 H 11.972034 9.253882 -2.947673 0
M  V30 35 H 11.277020 11.148988 -4.298642 0
M  V30 36 H 10.643888 10.904432 -6.646857 0
M  V30 37 H 10.869473 9.419620 -8.699329 0
M  V30 38 H 8.583602 9.772324 -7.846865 0
M  V30 39 H 8.506817 8.745317 -9.223220 0
M  V30 40 H 8.358436 8.059691 -7.601967 0
M  V30 41 H 11.135298 6.744477 -10.711294 0
M  V30 END ATOM
M  V30 BEGIN BOND
M  V30 1 1 2 1
M  V30 2 1 3 2
M  V30 3 1 4 3
M  V30 4 1 5 4
M  V30 5 1 6 5
M  V30 6 1 7 6
M  V30 7 1 8 7
M  V30 8 2 9 8
M  V30 9 1 10 9
M  V30 10 1 11 10
M  V30 11 1 12 9
M  V30 12 2 13 12
M  V30 13 1 14 13
M  V30 14 1 15 8
M  V30 15 2 15 14
M  V30 16 1 16 5
M  V30 17 1 16 15
M  V30 18 1 17 16
M  V30 19 1 18 1
M  V30 20 1 19 1
M  V30 21 1 20 1
M  V30 22 1 21 2
M  V30 23 1 22 2
M  V30 24 1 23 3
M  V30 25 1 24 3
M  V30 26 1 25 4
M  V30 27 1 5 26 CFG=3
M  V30 28 1 27 6
M  V30 29 1 28 6
M  V30 30 1 29 7
M  V30 31 1 30 7
M  V30 32 1 31 11
M  V30 33 1 32 11
M  V30 34 1 33 11
M  V30 35 1 34 12
M  V30 36 1 35 13
M  V30 37 1 36 14
M  V30 38 1 16 37 CFG=3
M  V30 39 1 38 17
M  V30 40 1 39 17
M  V30 41 1 40 17
M  V30 42 1 41 4
M  V30 END BOND
M  V30 END CTAB
M  END
>  <b_m_subgroup_collapsed>  (2152) 
0

>  <r_i_docking_score>  (2152) 
-6.1445538598612002

>  <s_m_subgroup_title>  (2152) 
glide-dock_SP_D22_pv

>  <s_m_subgroupid>  (2152) 
glide-dock_SP_D22_pv

>  <Molecule ChEMBL ID>  (2152) 
CHEMBL27441

>  <Standard Type>  (2152) 
Ki

>  <Standard Value>  (2152) 
14.0

>  <label>  (2152) 
1

$$$$
CHEMBL3764586
     RDKit          3D

  0  0  0  0  0  0  0  0  0  0999 V3000
M  V30 BEGIN CTAB
M  V30 COUNTS 56 59 0 0 1
M  V30 BEGIN ATOM
M  V30 1 C 5.766225 0.866386 -13.004965 0
M  V30 2 C 5.005368 0.172502 -14.089664 0
M  V30 3 N 3.712986 -0.273620 -13.859935 0
M  V30 4 C 3.299740 -0.705766 -15.046848 0
M  V30 5 O 4.237399 -0.626774 -16.025335 0
M  V30 6 C 5.315285 -0.038744 -15.416272 0
M  V30 7 C 6.457316 0.314215 -16.263056 0
M  V30 8 N 6.297078 0.779292 -17.508535 0
M  V30 9 N 7.562253 1.013654 -18.001295 0
M  V30 10 C 8.392353 0.650975 -17.024143 0
M  V30 11 S 10.156055 0.742069 -17.155422 0
M  V30 12 C 10.425440 2.431549 -16.525230 0
M  V30 13 C 9.837871 2.593046 -15.121960 0
M  V30 14 C 10.097319 3.913626 -14.404320 0
M  V30 15 N 9.118434 4.125530 -13.340300 0
M  V30 16 C 7.872233 4.691729 -13.846718 0
M  V30 17 C 6.845040 4.928913 -12.730444 0
M  V30 18 O 7.429254 5.772393 -11.748775 0
M  V30 19 C 8.604523 5.222259 -11.168750 0 CFG=2
M  V30 20 C 9.163460 6.086610 -10.044090 0
M  V30 21 C 9.181663 5.573914 -8.729519 0
M  V30 22 C 9.731822 6.328291 -7.676744 0
M  V30 23 C 10.284186 7.601557 -7.922093 0
M  V30 24 C 10.923528 8.400864 -6.796707 0
M  V30 25 F 11.219934 7.629341 -5.749868 0
M  V30 26 F 12.050115 8.972222 -7.224815 0
M  V30 27 F 10.086690 9.353456 -6.396253 0
M  V30 28 C 10.243399 8.128412 -9.229868 0
M  V30 29 C 9.685396 7.380576 -10.285728 0
M  V30 30 F 9.674931 7.914286 -11.531404 0
M  V30 31 C 9.635227 4.976331 -12.286146 0
M  V30 32 N 7.755721 0.216816 -15.914817 0
M  V30 33 C 8.315900 -0.227754 -14.656305 0
M  V30 34 H 6.392716 1.660875 -13.410540 0
M  V30 35 H 5.096164 1.327075 -12.278539 0
M  V30 36 H 6.402147 0.168992 -12.461314 0
M  V30 37 H 2.294364 -1.027637 -15.258728 0
M  V30 38 H 11.498277 2.627477 -16.512901 0
M  V30 39 H 9.972017 3.146400 -17.213991 0
M  V30 40 H 8.762610 2.474461 -15.199519 0
M  V30 41 H 10.207258 1.791873 -14.481341 0
M  V30 42 H 11.108362 3.881899 -13.994163 0
M  V30 43 H 10.078340 4.749849 -15.105288 0
M  V30 44 H 8.086659 5.639711 -14.342741 0
M  V30 45 H 7.427429 4.035551 -14.593518 0
M  V30 46 H 5.950595 5.409163 -13.127123 0
M  V30 47 H 6.531330 3.986323 -12.279441 0
M  V30 48 H 8.331704 4.256864 -10.739036 0
M  V30 49 H 8.771917 4.595838 -8.521605 0
M  V30 50 H 9.738286 5.918617 -6.677757 0
M  V30 51 H 10.650062 9.109159 -9.430579 0
M  V30 52 H 10.486091 4.477200 -11.843312 0
M  V30 53 H 9.984714 5.916523 -12.711883 0
M  V30 54 H 9.318562 -0.627732 -14.810638 0
M  V30 55 H 8.362195 0.586396 -13.936213 0
M  V30 56 H 7.685829 -1.019179 -14.246996 0
M  V30 END ATOM
M  V30 BEGIN BOND
M  V30 1 1 2 1
M  V30 2 1 3 2
M  V30 3 2 4 3
M  V30 4 1 5 4
M  V30 5 2 6 2
M  V30 6 1 6 5
M  V30 7 1 7 6
M  V30 8 2 8 7
M  V30 9 1 9 8
M  V30 10 2 10 9
M  V30 11 1 11 10
M  V30 12 1 12 11
M  V30 13 1 13 12
M  V30 14 1 14 13
M  V30 15 1 15 14
M  V30 16 1 16 15
M  V30 17 1 17 16
M  V30 18 1 18 17
M  V30 19 1 19 18
M  V30 20 1 20 19
M  V30 21 1 21 20
M  V30 22 2 22 21
M  V30 23 1 23 22
M  V30 24 1 24 23
M  V30 25 1 25 24
M  V30 26 1 26 24
M  V30 27 1 27 24
M  V30 28 2 28 23
M  V30 29 2 29 20
M  V30 30 1 29 28
M  V30 31 1 30 29
M  V30 32 1 31 15
M  V30 33 1 31 19
M  V30 34 1 32 7
M  V30 35 1 32 10
M  V30 36 1 33 32
M  V30 37 1 34 1
M  V30 38 1 35 1
M  V30 39 1 36 1
M  V30 40 1 37 4
M  V30 41 1 38 12
M  V30 42 1 39 12
M  V30 43 1 40 13
M  V30 44 1 41 13
M  V30 45 1 42 14
M  V30 46 1 43 14
M  V30 47 1 44 16
M  V30 48 1 45 16
M  V30 49 1 46 17
M  V30 50 1 47 17
M  V30 51 1 19 48 CFG=1
M  V30 52 1 49 21
M  V30 53 1 50 22
M  V30 54 1 51 28
M  V30 55 1 52 31
M  V30 56 1 53 31
M  V30 57 1 54 33
M  V30 58 1 55 33
M  V30 59 1 56 33
M  V30 END BOND
M  V30 END CTAB
M  END
>  <b_m_subgroup_collapsed>  (2153) 
0

>  <r_i_docking_score>  (2153) 
-6.1434644835988896

>  <s_m_subgroup_title>  (2153) 
glide-dock_SP_D22_pv

>  <s_m_subgroupid>  (2153) 
glide-dock_SP_D22_pv

>  <Molecule ChEMBL ID>  (2153) 
CHEMBL3764586

>  <Standard Type>  (2153) 
Ki

>  <Standard Value>  (2153) 
10000.0

>  <label>  (2153) 
0

$$$$
CHEMBL164631
     RDKit          3D

  0  0  0  0  0  0  0  0  0  0999 V3000
M  V30 BEGIN CTAB
M  V30 COUNTS 38 38 0 0 1
M  V30 BEGIN ATOM
M  V30 1 C 11.952066 7.874039 -11.549042 0
M  V30 2 C 10.736421 8.038330 -10.639087 0
M  V30 3 C 11.161693 8.000514 -9.156697 0
M  V30 4 N 10.023479 7.941628 -8.196795 0 CHG=1
M  V30 5 C 9.076182 6.809220 -8.439783 0
M  V30 6 C 9.738331 5.432290 -8.699166 0
M  V30 7 C 8.733319 4.286203 -8.704548 0
M  V30 8 C 10.380388 8.140533 -6.750175 0 CFG=1
M  V30 9 C 10.898400 6.864444 -6.049432 0
M  V30 10 C 11.405533 7.106849 -4.646531 0
M  V30 11 C 11.688784 8.326566 -4.161379 0
M  V30 12 C 12.151869 8.470849 -2.823183 0
M  V30 13 N 12.503829 8.572728 -1.727658 0
M  V30 14 C 11.544670 9.588052 -4.990392 0
M  V30 15 C 11.363496 9.305711 -6.493423 0
M  V30 16 H 11.658615 7.771750 -12.594275 0
M  V30 17 H 12.647499 8.707642 -11.447606 0
M  V30 18 H 12.486194 6.972250 -11.289533 0
M  V30 19 H 10.037676 7.243510 -10.890655 0
M  V30 20 H 10.221756 8.971725 -10.861865 0
M  V30 21 H 11.760409 8.895899 -8.994806 0
M  V30 22 H 11.822721 7.156366 -8.969844 0
M  V30 23 H 8.366614 6.749699 -7.612406 0
M  V30 24 H 8.485016 7.063146 -9.315736 0
M  V30 25 H 10.270992 5.417088 -9.647930 0
M  V30 26 H 10.488661 5.204957 -7.951293 0
M  V30 27 H 9.250427 3.329205 -8.646919 0
M  V30 28 H 8.072204 4.340133 -7.846914 0
M  V30 29 H 8.114400 4.299795 -9.603324 0
M  V30 30 H 9.442626 8.415166 -6.259429 0
M  V30 31 H 11.710284 6.400935 -6.608520 0
M  V30 32 H 10.081141 6.153436 -5.962304 0
M  V30 33 H 11.542528 6.231993 -4.023568 0
M  V30 34 H 10.704637 10.166986 -4.604767 0
M  V30 35 H 12.446840 10.172388 -4.844113 0
M  V30 36 H 11.032039 10.210680 -6.999302 0
M  V30 37 H 12.346076 9.061122 -6.898260 0
M  V30 38 H 9.470925 8.757608 -8.418538 0
M  V30 END ATOM
M  V30 BEGIN BOND
M  V30 1 1 2 1
M  V30 2 1 3 2
M  V30 3 1 4 3
M  V30 4 1 5 4
M  V30 5 1 6 5
M  V30 6 1 7 6
M  V30 7 1 8 4
M  V30 8 1 9 8
M  V30 9 1 10 9
M  V30 10 2 11 10
M  V30 11 1 12 11
M  V30 12 3 13 12
M  V30 13 1 14 11
M  V30 14 1 15 8
M  V30 15 1 15 14
M  V30 16 1 16 1
M  V30 17 1 17 1
M  V30 18 1 18 1
M  V30 19 1 19 2
M  V30 20 1 20 2
M  V30 21 1 21 3
M  V30 22 1 22 3
M  V30 23 1 23 5
M  V30 24 1 24 5
M  V30 25 1 25 6
M  V30 26 1 26 6
M  V30 27 1 27 7
M  V30 28 1 28 7
M  V30 29 1 29 7
M  V30 30 1 8 30 CFG=1
M  V30 31 1 31 9
M  V30 32 1 32 9
M  V30 33 1 33 10
M  V30 34 1 34 14
M  V30 35 1 35 14
M  V30 36 1 36 15
M  V30 37 1 37 15
M  V30 38 1 38 4
M  V30 END BOND
M  V30 END CTAB
M  END
>  <b_m_subgroup_collapsed>  (2154) 
0

>  <r_i_docking_score>  (2154) 
-6.1405456535487302

>  <s_m_subgroup_title>  (2154) 
glide-dock_SP_D22_pv

>  <s_m_subgroupid>  (2154) 
glide-dock_SP_D22_pv

>  <Molecule ChEMBL ID>  (2154) 
CHEMBL164631

>  <Standard Type>  (2154) 
Ki

>  <Standard Value>  (2154) 
20000.0

>  <label>  (2154) 
0

$$$$
CHEMBL4088416
     RDKit          3D

  0  0  0  0  0  0  0  0  0  0999 V3000
M  V30 BEGIN CTAB
M  V30 COUNTS 36 39 0 0 1
M  V30 BEGIN ATOM
M  V30 1 O 11.900931 7.372320 -12.220106 0
M  V30 2 S 10.480389 7.273349 -11.846868 0
M  V30 3 O 9.521844 8.314897 -12.246217 0
M  V30 4 C 10.373193 7.057583 -10.067748 0
M  V30 5 C 9.379076 6.254220 -9.469805 0
M  V30 6 C 9.300178 6.172304 -8.066003 0
M  V30 7 C 10.213687 6.882795 -7.262039 0
M  V30 8 C 11.207767 7.682004 -7.860594 0
M  V30 9 C 11.286059 7.772319 -9.264272 0
M  V30 10 N 9.919806 5.820341 -12.596177 0
M  V30 11 C 10.737934 4.830917 -13.204726 0
M  V30 12 C 9.845797 3.893876 -13.666107 0
M  V30 13 C 8.558776 4.265111 -13.400060 0
M  V30 14 C 7.434910 3.519927 -13.743470 0
M  V30 15 C 6.211855 4.097198 -13.334772 0
M  V30 16 C 6.201562 5.337475 -12.646864 0
M  V30 17 C 7.398004 6.029169 -12.367785 0
M  V30 18 C 8.626799 5.464181 -12.742690 0
M  V30 19 O 7.579106 2.311456 -14.387946 0
M  V30 20 C 8.882028 1.881336 -14.646843 0
M  V30 21 C 9.067859 0.504832 -15.249764 0
M  V30 22 O 7.860444 -0.227675 -15.282241 0
M  V30 23 C 10.033424 2.653002 -14.317789 0
M  V30 24 H 8.657748 5.715921 -10.061947 0
M  V30 25 H 8.526251 5.574326 -7.607147 0
M  V30 26 H 10.144474 6.817450 -6.185829 0
M  V30 27 H 11.903326 8.233154 -7.245027 0
M  V30 28 H 12.036996 8.399721 -9.723395 0
M  V30 29 H 11.815741 4.900412 -13.228846 0
M  V30 30 H 5.283036 3.586287 -13.539379 0
M  V30 31 H 5.286022 5.786478 -12.317554 0
M  V30 32 H 7.362599 6.972333 -11.846865 0
M  V30 33 H 9.797866 -0.048535 -14.657425 0
M  V30 34 H 9.465053 0.596494 -16.260900 0
M  V30 35 H 8.041903 -1.152661 -15.446864 0
M  V30 36 H 11.027514 2.286478 -14.528086 0
M  V30 END ATOM
M  V30 BEGIN BOND
M  V30 1 2 2 1
M  V30 2 2 3 2
M  V30 3 1 4 2
M  V30 4 2 5 4
M  V30 5 1 6 5
M  V30 6 2 7 6
M  V30 7 1 8 7
M  V30 8 1 9 4
M  V30 9 2 9 8
M  V30 10 1 10 2
M  V30 11 1 11 10
M  V30 12 2 12 11
M  V30 13 1 13 12
M  V30 14 2 14 13
M  V30 15 1 15 14
M  V30 16 2 16 15
M  V30 17 1 17 16
M  V30 18 1 18 10
M  V30 19 1 18 13
M  V30 20 2 18 17
M  V30 21 1 19 14
M  V30 22 1 20 19
M  V30 23 1 21 20
M  V30 24 1 22 21
M  V30 25 1 23 12
M  V30 26 2 23 20
M  V30 27 1 24 5
M  V30 28 1 25 6
M  V30 29 1 26 7
M  V30 30 1 27 8
M  V30 31 1 28 9
M  V30 32 1 29 11
M  V30 33 1 30 15
M  V30 34 1 31 16
M  V30 35 1 32 17
M  V30 36 1 33 21
M  V30 37 1 34 21
M  V30 38 1 35 22
M  V30 39 1 36 23
M  V30 END BOND
M  V30 END CTAB
M  END
>  <b_m_subgroup_collapsed>  (2155) 
0

>  <r_i_docking_score>  (2155) 
-6.1403827496400796

>  <s_m_subgroup_title>  (2155) 
glide-dock_SP_D22_pv

>  <s_m_subgroupid>  (2155) 
glide-dock_SP_D22_pv

>  <Molecule ChEMBL ID>  (2155) 
CHEMBL4088416

>  <Standard Type>  (2155) 
Ki

>  <Standard Value>  (2155) 
10000.0

>  <label>  (2155) 
0

$$$$
CHEMBL516580
     RDKit          3D

  0  0  0  0  0  0  0  0  0  0999 V3000
M  V30 BEGIN CTAB
M  V30 COUNTS 63 66 0 0 1
M  V30 BEGIN ATOM
M  V30 1 C 13.621122 -1.292656 -20.423384 0
M  V30 2 C 12.437602 -0.475143 -19.893166 0
M  V30 3 C 12.573585 -0.172640 -18.391890 0
M  V30 4 C 11.361480 0.543943 -17.776262 0
M  V30 5 C 10.138785 -0.371271 -17.584925 0
M  V30 6 C 8.868730 0.391106 -17.173439 0
M  V30 7 C 8.857655 0.889211 -15.727215 0
M  V30 8 O 9.196909 0.171730 -14.786136 0
M  V30 9 O 8.364142 2.151277 -15.628568 0
M  V30 10 C 7.678276 2.544825 -14.502094 0
M  V30 11 C 6.470136 1.862158 -14.247202 0
M  V30 12 C 5.601412 2.266721 -13.225988 0
M  V30 13 C 5.939085 3.374265 -12.444588 0
M  V30 14 C 7.166010 4.030216 -12.646785 0
M  V30 15 C 8.081203 3.631963 -13.658896 0
M  V30 16 C 9.401710 4.331006 -13.727032 0
M  V30 17 C 10.508637 3.839102 -14.477695 0
M  V30 18 C 11.748324 4.488158 -14.563735 0
M  V30 19 C 11.965275 5.668767 -13.847951 0
M  V30 20 C 10.944615 6.190686 -13.042518 0
M  V30 21 C 9.689069 5.521832 -12.994240 0
M  V30 22 C 8.522147 6.132158 -12.180017 0 CFG=1
M  V30 23 C 7.534040 5.090784 -11.646003 0
M  V30 24 N 8.886106 7.138931 -11.136101 0 CFG=1 CHG=1
M  V30 25 C 9.245834 6.582100 -9.795476 0
M  V30 26 C 9.625484 7.647633 -8.745695 0
M  V30 27 C 9.724925 7.062449 -7.330195 0
M  V30 28 C 9.859804 8.100079 -11.697259 0
M  V30 29 C 11.146688 7.361114 -12.087357 0
M  V30 30 H 13.517699 -1.485058 -21.491796 0
M  V30 31 H 13.687367 -2.257814 -19.920012 0
M  V30 32 H 14.565652 -0.770785 -20.270884 0
M  V30 33 H 12.363656 0.460992 -20.449701 0
M  V30 34 H 11.519237 -1.026825 -20.091057 0
M  V30 35 H 12.775811 -1.095273 -17.850204 0
M  V30 36 H 13.449250 0.462917 -18.248800 0
M  V30 37 H 11.652357 0.951156 -16.806658 0
M  V30 38 H 11.097785 1.399769 -18.398506 0
M  V30 39 H 9.919690 -0.894341 -18.515352 0
M  V30 40 H 10.362363 -1.150310 -16.855806 0
M  V30 41 H 8.699231 1.227863 -17.850204 0
M  V30 42 H 8.009735 -0.271098 -17.285145 0
M  V30 43 H 6.177173 1.034077 -14.876258 0
M  V30 44 H 4.672538 1.740933 -13.056179 0
M  V30 45 H 5.283168 3.684487 -11.643308 0
M  V30 46 H 10.453822 2.916003 -15.019317 0
M  V30 47 H 12.542441 4.063200 -15.161212 0
M  V30 48 H 12.930135 6.149755 -13.883307 0
M  V30 49 H 7.967179 6.699266 -12.930876 0
M  V30 50 H 6.638192 5.591480 -11.272643 0
M  V30 51 H 7.964236 4.528425 -10.817253 0
M  V30 52 H 8.372980 6.068071 -9.390990 0
M  V30 53 H 10.038465 5.838021 -9.887198 0
M  V30 54 H 10.583527 8.107468 -8.996744 0
M  V30 55 H 8.879691 8.445036 -8.741699 0
M  V30 56 H 9.993337 7.834151 -6.608605 0
M  V30 57 H 10.482697 6.279588 -7.280894 0
M  V30 58 H 8.773363 6.631199 -7.010077 0
M  V30 59 H 9.415297 8.574694 -12.569615 0
M  V30 60 H 10.070432 8.913991 -11.004442 0
M  V30 61 H 11.630434 6.972313 -11.191865 0
M  V30 62 H 11.893452 8.019970 -12.529844 0
M  V30 63 H 8.013389 7.638415 -10.946584 0
M  V30 END ATOM
M  V30 BEGIN BOND
M  V30 1 1 2 1
M  V30 2 1 3 2
M  V30 3 1 4 3
M  V30 4 1 5 4
M  V30 5 1 6 5
M  V30 6 1 7 6
M  V30 7 2 8 7
M  V30 8 1 9 7
M  V30 9 1 10 9
M  V30 10 2 11 10
M  V30 11 1 12 11
M  V30 12 2 13 12
M  V30 13 1 14 13
M  V30 14 1 15 10
M  V30 15 2 15 14
M  V30 16 1 16 15
M  V30 17 2 17 16
M  V30 18 1 18 17
M  V30 19 2 19 18
M  V30 20 1 20 19
M  V30 21 1 21 16
M  V30 22 2 21 20
M  V30 23 1 22 21
M  V30 24 1 23 14
M  V30 25 1 23 22
M  V30 26 1 24 22
M  V30 27 1 25 24
M  V30 28 1 26 25
M  V30 29 1 27 26
M  V30 30 1 28 24
M  V30 31 1 29 20
M  V30 32 1 29 28
M  V30 33 1 30 1
M  V30 34 1 31 1
M  V30 35 1 32 1
M  V30 36 1 33 2
M  V30 37 1 34 2
M  V30 38 1 35 3
M  V30 39 1 36 3
M  V30 40 1 37 4
M  V30 41 1 38 4
M  V30 42 1 39 5
M  V30 43 1 40 5
M  V30 44 1 41 6
M  V30 45 1 42 6
M  V30 46 1 43 11
M  V30 47 1 44 12
M  V30 48 1 45 13
M  V30 49 1 46 17
M  V30 50 1 47 18
M  V30 51 1 48 19
M  V30 52 1 22 49 CFG=3
M  V30 53 1 50 23
M  V30 54 1 51 23
M  V30 55 1 52 25
M  V30 56 1 53 25
M  V30 57 1 54 26
M  V30 58 1 55 26
M  V30 59 1 56 27
M  V30 60 1 57 27
M  V30 61 1 58 27
M  V30 62 1 59 28
M  V30 63 1 60 28
M  V30 64 1 61 29
M  V30 65 1 62 29
M  V30 66 1 24 63 CFG=1
M  V30 END BOND
M  V30 END CTAB
M  END
>  <b_m_subgroup_collapsed>  (2156) 
0

>  <r_i_docking_score>  (2156) 
-6.1398840579731502

>  <s_m_subgroup_title>  (2156) 
glide-dock_SP_D22_pv

>  <s_m_subgroupid>  (2156) 
glide-dock_SP_D22_pv

>  <Molecule ChEMBL ID>  (2156) 
CHEMBL516580

>  <Standard Type>  (2156) 
Ki

>  <Standard Value>  (2156) 
10000.0

>  <label>  (2156) 
0

$$$$
CHEMBL328595
     RDKit          3D

  0  0  0  0  0  0  0  0  0  0999 V3000
M  V30 BEGIN CTAB
M  V30 COUNTS 44 46 0 0 1
M  V30 BEGIN ATOM
M  V30 1 C 6.075696 3.442549 -12.568968 0
M  V30 2 C 7.122589 4.500358 -12.953230 0
M  V30 3 N 6.917826 5.771836 -12.212618 0 CFG=2 CHG=1
M  V30 4 C 5.781716 6.572535 -12.703561 0
M  V30 5 C 8.142850 6.589719 -12.075752 0
M  V30 6 C 9.017469 6.073100 -10.933928 0
M  V30 7 C 10.176755 6.972825 -10.623654 0
M  V30 8 C 11.259332 7.345502 -11.404255 0
M  V30 9 C 11.654908 6.971853 -12.781782 0
M  V30 10 C 12.544975 7.765618 -13.542184 0
M  V30 11 C 12.877272 7.436282 -14.869974 0
M  V30 12 C 12.371919 6.266421 -15.457999 0
M  V30 13 C 11.532962 5.428345 -14.707660 0
M  V30 14 F 11.052778 4.283710 -15.247730 0
M  V30 15 C 11.184961 5.779746 -13.391055 0
M  V30 16 N 12.086441 8.148120 -10.618850 0
M  V30 17 C 11.593461 8.267807 -9.330793 0
M  V30 18 C 12.086163 8.886437 -8.168396 0
M  V30 19 C 11.321407 8.880403 -6.988319 0
M  V30 20 C 10.068972 8.241427 -6.977293 0
M  V30 21 C 9.595544 7.596551 -8.136126 0
M  V30 22 C 10.352103 7.580344 -9.334351 0
M  V30 23 H 6.277452 2.499319 -13.076999 0
M  V30 24 H 6.086200 3.249612 -11.495214 0
M  V30 25 H 5.063488 3.744946 -12.842404 0
M  V30 26 H 7.112272 4.687364 -14.028525 0
M  V30 27 H 8.108189 4.091964 -12.726239 0
M  V30 28 H 6.096028 7.395713 -13.345695 0
M  V30 29 H 5.078144 5.964167 -13.265767 0
M  V30 30 H 5.273510 7.005013 -11.847632 0
M  V30 31 H 7.876458 7.623785 -11.847366 0
M  V30 32 H 8.674303 6.619250 -13.024290 0
M  V30 33 H 9.366632 5.058042 -11.110987 0
M  V30 34 H 8.382191 5.984088 -10.051769 0
M  V30 35 H 12.988975 8.649702 -13.114769 0
M  V30 36 H 13.541004 8.075395 -15.434012 0
M  V30 37 H 12.635592 6.005836 -16.472202 0
M  V30 38 H 10.553915 5.093924 -12.854759 0
M  V30 39 H 12.954196 8.548439 -10.943895 0
M  V30 40 H 13.051847 9.370420 -8.181337 0
M  V30 41 H 11.694327 9.363686 -6.096254 0
M  V30 42 H 9.466996 8.232345 -6.079924 0
M  V30 43 H 8.634115 7.104319 -8.100141 0
M  V30 44 H 6.661000 5.526799 -11.263664 0
M  V30 END ATOM
M  V30 BEGIN BOND
M  V30 1 1 2 1
M  V30 2 1 3 2
M  V30 3 1 4 3
M  V30 4 1 5 3
M  V30 5 1 6 5
M  V30 6 1 7 6
M  V30 7 2 8 7
M  V30 8 1 9 8
M  V30 9 2 10 9
M  V30 10 1 11 10
M  V30 11 2 12 11
M  V30 12 1 13 12
M  V30 13 1 14 13
M  V30 14 1 15 9
M  V30 15 2 15 13
M  V30 16 1 16 8
M  V30 17 1 17 16
M  V30 18 2 18 17
M  V30 19 1 19 18
M  V30 20 2 20 19
M  V30 21 1 21 20
M  V30 22 1 22 7
M  V30 23 1 22 17
M  V30 24 2 22 21
M  V30 25 1 23 1
M  V30 26 1 24 1
M  V30 27 1 25 1
M  V30 28 1 26 2
M  V30 29 1 27 2
M  V30 30 1 28 4
M  V30 31 1 29 4
M  V30 32 1 30 4
M  V30 33 1 31 5
M  V30 34 1 32 5
M  V30 35 1 33 6
M  V30 36 1 34 6
M  V30 37 1 35 10
M  V30 38 1 36 11
M  V30 39 1 37 12
M  V30 40 1 38 15
M  V30 41 1 39 16
M  V30 42 1 40 18
M  V30 43 1 41 19
M  V30 44 1 42 20
M  V30 45 1 43 21
M  V30 46 1 3 44 CFG=1
M  V30 END BOND
M  V30 END CTAB
M  END
>  <b_m_subgroup_collapsed>  (2157) 
0

>  <r_i_docking_score>  (2157) 
-6.1397711006667199

>  <s_m_subgroup_title>  (2157) 
glide-dock_SP_D22_pv

>  <s_m_subgroupid>  (2157) 
glide-dock_SP_D22_pv

>  <Molecule ChEMBL ID>  (2157) 
CHEMBL328595

>  <Standard Type>  (2157) 
Ki

>  <Standard Value>  (2157) 
68.0

>  <label>  (2157) 
1

$$$$
CHEMBL201739
     RDKit          3D

  0  0  0  0  0  0  0  0  0  0999 V3000
M  V30 BEGIN CTAB
M  V30 COUNTS 36 40 0 0 1
M  V30 BEGIN ATOM
M  V30 1 C 11.116866 7.939184 -6.646192 0
M  V30 2 C 11.736026 8.577458 -7.750729 0
M  V30 3 C 11.347071 8.274485 -9.076522 0
M  V30 4 C 10.345689 7.302158 -9.251801 0
M  V30 5 C 9.745285 6.671497 -8.169616 0
M  V30 6 C 10.105453 6.972419 -6.845599 0
M  V30 7 C 8.693687 5.714131 -8.678327 0
M  V30 8 N 9.140676 5.509310 -10.054710 0
M  V30 9 C 8.210443 4.970900 -11.046679 0
M  V30 10 C 9.026379 4.577638 -12.318117 0
M  V30 11 C 10.084751 5.600704 -12.646324 0
M  V30 12 C 10.386787 6.611470 -11.775288 0
M  V30 13 N 11.418488 7.372151 -12.286771 0
M  V30 14 C 11.782682 6.893544 -13.531622 0
M  V30 15 C 12.714221 7.352827 -14.477299 0
M  V30 16 C 12.893787 6.636177 -15.674207 0
M  V30 17 C 12.136136 5.473914 -15.916580 0
M  V30 18 C 11.182850 5.034596 -14.974574 0
M  V30 19 C 10.972471 5.739594 -13.766674 0
M  V30 20 C 9.647520 6.813103 -10.493910 0 CFG=2
M  V30 21 H 11.421416 8.196288 -5.642873 0
M  V30 22 H 12.504412 9.315161 -7.576240 0
M  V30 23 H 11.799967 8.785837 -9.911333 0
M  V30 24 H 9.623727 6.485756 -6.010349 0
M  V30 25 H 8.674575 4.778783 -8.120290 0
M  V30 26 H 7.706379 6.172330 -8.649184 0
M  V30 27 H 7.682176 4.108587 -10.646127 0
M  V30 28 H 7.454411 5.722119 -11.277857 0
M  V30 29 H 9.503442 3.611932 -12.148718 0
M  V30 30 H 8.348862 4.441013 -13.160089 0
M  V30 31 H 11.806849 8.171685 -11.811385 0
M  V30 32 H 13.286393 8.246380 -14.282190 0
M  V30 33 H 13.613276 6.975542 -16.403589 0
M  V30 34 H 12.279068 4.923131 -16.834398 0
M  V30 35 H 10.594217 4.154009 -15.181812 0
M  V30 36 H 8.808194 7.486720 -10.669439 0
M  V30 END ATOM
M  V30 BEGIN BOND
M  V30 1 2 2 1
M  V30 2 1 3 2
M  V30 3 2 4 3
M  V30 4 1 5 4
M  V30 5 1 6 1
M  V30 6 2 6 5
M  V30 7 1 7 5
M  V30 8 1 8 7
M  V30 9 1 9 8
M  V30 10 1 10 9
M  V30 11 1 11 10
M  V30 12 2 12 11
M  V30 13 1 13 12
M  V30 14 1 14 13
M  V30 15 2 15 14
M  V30 16 1 16 15
M  V30 17 2 17 16
M  V30 18 1 18 17
M  V30 19 1 19 11
M  V30 20 1 19 14
M  V30 21 2 19 18
M  V30 22 1 20 4
M  V30 23 1 20 8
M  V30 24 1 20 12
M  V30 25 1 21 1
M  V30 26 1 22 2
M  V30 27 1 23 3
M  V30 28 1 24 6
M  V30 29 1 25 7
M  V30 30 1 26 7
M  V30 31 1 27 9
M  V30 32 1 28 9
M  V30 33 1 29 10
M  V30 34 1 30 10
M  V30 35 1 31 13
M  V30 36 1 32 15
M  V30 37 1 33 16
M  V30 38 1 34 17
M  V30 39 1 35 18
M  V30 40 1 20 36 CFG=3
M  V30 END BOND
M  V30 END CTAB
M  END
>  <b_m_subgroup_collapsed>  (2158) 
0

>  <r_i_docking_score>  (2158) 
-6.13957204741516

>  <s_m_subgroup_title>  (2158) 
glide-dock_SP_D22_pv

>  <s_m_subgroupid>  (2158) 
glide-dock_SP_D22_pv

>  <Molecule ChEMBL ID>  (2158) 
CHEMBL201739

>  <Standard Type>  (2158) 
Ki

>  <Standard Value>  (2158) 
10000.0

>  <label>  (2158) 
0

$$$$
CHEMBL531
     RDKit          3D

  0  0  0  0  0  0  0  0  0  0999 V3000
M  V30 BEGIN CTAB
M  V30 COUNTS 49 52 0 0 1
M  V30 BEGIN ATOM
M  V30 1 C 12.498533 6.884557 -16.343061 0
M  V30 2 C 12.016625 6.339547 -14.994159 0
M  V30 3 C 10.882218 5.303172 -15.137200 0
M  V30 4 N 10.618147 4.518617 -13.896147 0 CFG=1 CHG=1
M  V30 5 C 10.469817 5.311704 -12.652656 0
M  V30 6 C 9.117743 6.010099 -12.544818 0 CFG=2
M  V30 7 C 9.098061 7.059470 -11.417534 0
M  V30 8 S 9.908957 6.572502 -9.855861 0
M  V30 9 C 8.617912 5.615937 -9.025628 0
M  V30 10 C 8.010167 4.952995 -12.519558 0
M  V30 11 C 8.102391 4.086968 -13.797615 0 CFG=2
M  V30 12 C 7.034626 2.994720 -13.813711 0
M  V30 13 C 5.805914 2.968986 -13.123048 0
M  V30 14 C 5.037246 1.793495 -13.141341 0
M  V30 15 C 5.482522 0.667062 -13.856236 0
M  V30 16 C 6.677274 0.709698 -14.551484 0
M  V30 17 N 7.317005 -0.227676 -15.303700 0
M  V30 18 C 8.534927 0.244259 -15.756967 0
M  V30 19 C 8.620472 1.511225 -15.256846 0
M  V30 20 C 7.456439 1.853697 -14.526785 0
M  V30 21 C 9.633023 2.612021 -15.251824 0
M  V30 22 C 9.537766 3.494329 -13.985299 0 CFG=1
M  V30 23 H 13.275002 7.637161 -16.201773 0
M  V30 24 H 11.686026 7.349514 -16.899143 0
M  V30 25 H 12.916930 6.091815 -16.963936 0
M  V30 26 H 12.868637 5.892704 -14.479096 0
M  V30 27 H 11.686056 7.180875 -14.384339 0
M  V30 28 H 9.964849 5.772324 -15.486532 0
M  V30 29 H 11.188615 4.611509 -15.921198 0
M  V30 30 H 10.486023 4.603818 -11.825239 0
M  V30 31 H 11.286041 6.018315 -12.519719 0
M  V30 32 H 8.927027 6.572322 -13.446864 0
M  V30 33 H 9.642116 7.937417 -11.767370 0
M  V30 34 H 8.086022 7.400908 -11.250571 0
M  V30 35 H 8.890887 5.442050 -7.984943 0
M  V30 36 H 8.465019 4.649247 -9.500326 0
M  V30 37 H 7.686021 6.172324 -9.046829 0
M  V30 38 H 8.096093 4.318232 -11.639237 0
M  V30 39 H 7.041082 5.449736 -12.458323 0
M  V30 40 H 7.891741 4.734663 -14.646859 0
M  V30 41 H 5.460680 3.823219 -12.558798 0
M  V30 42 H 4.086022 1.772936 -12.646867 0
M  V30 43 H 4.877868 -0.226802 -13.884622 0
M  V30 44 H 7.016901 -1.187239 -15.446883 0
M  V30 45 H 9.217781 -0.355346 -16.341415 0
M  V30 46 H 10.634366 2.186764 -15.331162 0
M  V30 47 H 9.478315 3.212721 -16.148167 0
M  V30 48 H 9.713078 2.827430 -13.137384 0
M  V30 49 H 11.467054 3.987974 -13.762073 0
M  V30 END ATOM
M  V30 BEGIN BOND
M  V30 1 1 2 1
M  V30 2 1 3 2
M  V30 3 1 4 3
M  V30 4 1 5 4
M  V30 5 1 6 5
M  V30 6 1 7 6
M  V30 7 1 8 7
M  V30 8 1 9 8
M  V30 9 1 10 6
M  V30 10 1 11 10
M  V30 11 1 12 11
M  V30 12 1 13 12
M  V30 13 2 14 13
M  V30 14 1 15 14
M  V30 15 2 16 15
M  V30 16 1 17 16
M  V30 17 1 18 17
M  V30 18 2 19 18
M  V30 19 2 20 12
M  V30 20 1 20 16
M  V30 21 1 20 19
M  V30 22 1 21 19
M  V30 23 1 22 4
M  V30 24 1 22 11
M  V30 25 1 22 21
M  V30 26 1 23 1
M  V30 27 1 24 1
M  V30 28 1 25 1
M  V30 29 1 26 2
M  V30 30 1 27 2
M  V30 31 1 28 3
M  V30 32 1 29 3
M  V30 33 1 30 5
M  V30 34 1 31 5
M  V30 35 1 6 32 CFG=3
M  V30 36 1 33 7
M  V30 37 1 34 7
M  V30 38 1 35 9
M  V30 39 1 36 9
M  V30 40 1 37 9
M  V30 41 1 38 10
M  V30 42 1 39 10
M  V30 43 1 11 40 CFG=3
M  V30 44 1 41 13
M  V30 45 1 42 14
M  V30 46 1 43 15
M  V30 47 1 44 17
M  V30 48 1 45 18
M  V30 49 1 46 21
M  V30 50 1 47 21
M  V30 51 1 22 48 CFG=1
M  V30 52 1 4 49 CFG=1
M  V30 END BOND
M  V30 END CTAB
M  END
>  <b_m_subgroup_collapsed>  (2159) 
0

>  <r_i_docking_score>  (2159) 
-6.1392832076958301

>  <s_m_subgroup_title>  (2159) 
glide-dock_SP_D22_pv

>  <s_m_subgroupid>  (2159) 
glide-dock_SP_D22_pv

>  <Molecule ChEMBL ID>  (2159) 
CHEMBL531

>  <Standard Type>  (2159) 
Ki

>  <Standard Value>  (2159) 
0.62

>  <label>  (2159) 
1

$$$$
CHEMBL558058
     RDKit          3D

  0  0  0  0  0  0  0  0  0  0999 V3000
M  V30 BEGIN CTAB
M  V30 COUNTS 63 66 0 0 1
M  V30 BEGIN ATOM
M  V30 1 C 8.086102 5.269600 -9.971350 0
M  V30 2 N 9.252949 6.094870 -10.348268 0 CFG=2 CHG=1
M  V30 3 C 9.650739 5.936962 -11.779531 0
M  V30 4 C 9.739091 4.471545 -12.277640 0
M  V30 5 N 10.032205 4.382350 -13.710968 0
M  V30 6 C 8.963840 4.057951 -14.631788 0
M  V30 7 C 9.698788 3.900055 -15.957172 0
M  V30 8 N 11.082955 4.221215 -15.629349 0
M  V30 9 C 12.131245 4.140159 -16.599009 0
M  V30 10 C 12.099939 3.126920 -17.585974 0
M  V30 11 C 13.107392 3.048621 -18.565561 0
M  V30 12 C 14.149466 3.993666 -18.584082 0
M  V30 13 C 14.193286 5.019848 -17.616928 0
M  V30 14 C 15.295041 6.070553 -17.646563 0
M  V30 15 F 16.258238 5.772377 -18.522352 0
M  V30 16 F 14.769268 7.249515 -17.977369 0
M  V30 17 F 15.847232 6.172286 -16.440466 0
M  V30 18 C 13.189399 5.081856 -16.623837 0
M  V30 19 C 11.231880 4.467643 -14.311192 0
M  V30 20 O 12.288420 4.715463 -13.734504 0
M  V30 21 C 10.351413 6.009775 -9.345206 0
M  V30 22 C 10.287864 7.086693 -8.228012 0 CFG=2
M  V30 23 C 10.784930 6.589952 -6.844711 0
M  V30 24 C 11.052840 7.902261 -6.076113 0
M  V30 25 C 10.688903 8.978626 -7.119231 0 CFG=2
M  V30 26 C 9.155886 8.965153 -7.221326 0
M  V30 27 C 8.885679 7.660085 -7.950374 0
M  V30 28 C 11.141461 8.364663 -8.461514 0
M  V30 29 C 12.672257 8.140910 -8.545277 0
M  V30 30 C 10.761847 9.194212 -9.716928 0
M  V30 31 H 8.332137 4.210403 -9.900918 0
M  V30 32 H 7.688107 5.562015 -9.002455 0
M  V30 33 H 7.286136 5.395851 -10.699966 0
M  V30 34 H 10.587628 6.463027 -11.969448 0
M  V30 35 H 8.895233 6.453972 -12.374941 0
M  V30 36 H 8.796010 3.950717 -12.109766 0
M  V30 37 H 10.483650 3.911629 -11.719567 0
M  V30 38 H 8.462230 3.134106 -14.340097 0
M  V30 39 H 8.234642 4.869756 -14.647470 0
M  V30 40 H 9.306897 4.581679 -16.712791 0
M  V30 41 H 9.598604 2.879567 -16.325418 0
M  V30 42 H 11.312660 2.388845 -17.601570 0
M  V30 43 H 13.076713 2.266637 -19.310562 0
M  V30 44 H 14.907304 3.929496 -19.351048 0
M  V30 45 H 13.231085 5.877769 -15.894459 0
M  V30 46 H 10.400904 5.002135 -8.925060 0
M  V30 47 H 11.291996 6.173136 -9.847407 0
M  V30 48 H 10.031242 5.987041 -6.341135 0
M  V30 49 H 11.679191 5.970971 -6.914512 0
M  V30 50 H 10.453725 7.978320 -5.169038 0
M  V30 51 H 12.083677 7.989793 -5.758465 0
M  V30 52 H 11.101398 9.961567 -6.889223 0
M  V30 53 H 8.653458 8.973073 -6.253390 0
M  V30 54 H 8.769338 9.772303 -7.840622 0
M  V30 55 H 8.372199 7.905913 -8.870018 0
M  V30 56 H 8.247915 6.994262 -7.366154 0
M  V30 57 H 13.219492 9.055975 -8.329946 0
M  V30 58 H 13.035457 7.395902 -7.856465 0
M  V30 59 H 12.979944 7.808638 -9.536056 0
M  V30 60 H 11.288725 10.148202 -9.719566 0
M  V30 61 H 11.051087 8.672447 -10.629748 0
M  V30 62 H 9.701777 9.419017 -9.812176 0
M  V30 63 H 8.922832 7.050879 -10.286939 0
M  V30 END ATOM
M  V30 BEGIN BOND
M  V30 1 1 2 1
M  V30 2 1 3 2
M  V30 3 1 4 3
M  V30 4 1 5 4
M  V30 5 1 6 5
M  V30 6 1 7 6
M  V30 7 1 8 7
M  V30 8 1 9 8
M  V30 9 1 10 9
M  V30 10 2 11 10
M  V30 11 1 12 11
M  V30 12 2 13 12
M  V30 13 1 14 13
M  V30 14 1 15 14
M  V30 15 1 16 14
M  V30 16 1 17 14
M  V30 17 2 18 9
M  V30 18 1 18 13
M  V30 19 1 19 5
M  V30 20 1 19 8
M  V30 21 2 20 19
M  V30 22 1 21 2
M  V30 23 1 22 21 CFG=3
M  V30 24 1 23 22
M  V30 25 1 24 23
M  V30 26 1 25 24
M  V30 27 1 26 25
M  V30 28 1 27 22
M  V30 29 1 27 26
M  V30 30 1 28 22
M  V30 31 1 28 25
M  V30 32 1 29 28
M  V30 33 1 30 28
M  V30 34 1 31 1
M  V30 35 1 32 1
M  V30 36 1 33 1
M  V30 37 1 34 3
M  V30 38 1 35 3
M  V30 39 1 36 4
M  V30 40 1 37 4
M  V30 41 1 38 6
M  V30 42 1 39 6
M  V30 43 1 40 7
M  V30 44 1 41 7
M  V30 45 1 42 10
M  V30 46 1 43 11
M  V30 47 1 44 12
M  V30 48 1 45 18
M  V30 49 1 46 21
M  V30 50 1 47 21
M  V30 51 1 48 23
M  V30 52 1 49 23
M  V30 53 1 50 24
M  V30 54 1 51 24
M  V30 55 1 25 52 CFG=1
M  V30 56 1 53 26
M  V30 57 1 54 26
M  V30 58 1 55 27
M  V30 59 1 56 27
M  V30 60 1 57 29
M  V30 61 1 58 29
M  V30 62 1 59 29
M  V30 63 1 60 30
M  V30 64 1 61 30
M  V30 65 1 62 30
M  V30 66 1 2 63 CFG=3
M  V30 END BOND
M  V30 END CTAB
M  END
>  <b_m_subgroup_collapsed>  (2160) 
0

>  <r_i_docking_score>  (2160) 
-6.1374613807269096

>  <s_m_subgroup_title>  (2160) 
glide-dock_SP_D22_pv

>  <s_m_subgroupid>  (2160) 
glide-dock_SP_D22_pv

>  <Molecule ChEMBL ID>  (2160) 
CHEMBL558058

>  <Standard Type>  (2160) 
Ki

>  <Standard Value>  (2160) 
19.95

>  <label>  (2160) 
1

$$$$
CHEMBL166366
     RDKit          3D

  0  0  0  0  0  0  0  0  0  0999 V3000
M  V30 BEGIN CTAB
M  V30 COUNTS 56 60 0 0 1
M  V30 BEGIN ATOM
M  V30 1 N 12.207744 8.173429 -10.188799 0
M  V30 2 C 11.186754 7.666477 -9.375915 0
M  V30 3 C 11.359150 7.805070 -7.981818 0
M  V30 4 C 10.415172 7.275088 -7.085716 0
M  V30 5 C 9.291814 6.601495 -7.585014 0
M  V30 6 C 9.101267 6.471150 -8.973399 0
M  V30 7 C 10.029352 7.011780 -9.901481 0
M  V30 8 C 9.762457 6.904594 -11.384870 0
M  V30 9 O 10.512782 7.369093 -12.245708 0
M  V30 10 C 8.521421 6.150290 -11.894353 0
M  V30 11 C 8.783502 4.659405 -12.186738 0
M  V30 12 C 9.783763 4.414373 -13.337542 0
M  V30 13 N 9.950265 2.972086 -13.661690 0 CFG=1 CHG=1
M  V30 14 C 8.798333 2.384633 -14.406595 0
M  V30 15 C 9.159286 1.011555 -15.005807 0
M  V30 16 C 10.258233 1.131915 -16.087278 0 CFG=2
M  V30 17 C 11.260942 2.259149 -15.743638 0 CFG=2
M  V30 18 C 11.285981 2.636516 -14.245868 0
M  V30 19 C 10.873821 3.388693 -16.674105 0
M  V30 20 C 11.178104 4.759340 -16.740454 0
M  V30 21 C 10.562719 5.527580 -17.760712 0
M  V30 22 C 9.667668 4.936728 -18.693686 0
M  V30 23 C 9.350834 3.558081 -18.660027 0
M  V30 24 C 9.990037 2.873964 -17.611839 0
M  V30 25 N 9.735496 1.508907 -17.393755 0
M  V30 26 C 8.569642 0.976547 -18.086660 0
M  V30 27 C 8.510784 1.528359 -19.525738 0
M  V30 28 O 8.485021 2.956629 -19.542303 0
M  V30 29 H 12.008302 8.242555 -11.179728 0
M  V30 30 H 12.817765 8.909244 -9.845348 0
M  V30 31 H 12.230833 8.312339 -7.591762 0
M  V30 32 H 10.552931 7.381759 -6.020338 0
M  V30 33 H 8.553391 6.200542 -6.903963 0
M  V30 34 H 8.201488 5.965427 -9.289100 0
M  V30 35 H 7.688163 6.261038 -11.206271 0
M  V30 36 H 8.194563 6.642107 -12.809436 0
M  V30 37 H 9.136333 4.171517 -11.276533 0
M  V30 38 H 7.822859 4.200630 -12.427937 0
M  V30 39 H 9.485787 4.961124 -14.235094 0
M  V30 40 H 10.749831 4.826605 -13.041717 0
M  V30 41 H 7.933565 2.287997 -13.753517 0
M  V30 42 H 8.486377 3.058382 -15.209029 0
M  V30 43 H 9.517353 0.360494 -14.206501 0
M  V30 44 H 8.268703 0.518927 -15.400778 0
M  V30 45 H 10.774096 0.175008 -16.175610 0
M  V30 46 H 12.258693 1.946523 -16.047398 0
M  V30 47 H 12.023342 3.421183 -14.068069 0
M  V30 48 H 11.644822 1.772604 -13.690331 0
M  V30 49 H 11.851581 5.218629 -16.030592 0
M  V30 50 H 10.778379 6.584917 -17.829065 0
M  V30 51 H 9.214073 5.557776 -19.454487 0
M  V30 52 H 8.623717 -0.111796 -18.103542 0
M  V30 53 H 7.663667 1.251877 -17.543230 0
M  V30 54 H 9.372253 1.179584 -20.099779 0
M  V30 55 H 7.617835 1.157895 -20.031073 0
M  V30 56 H 9.963211 2.488933 -12.768825 0
M  V30 END ATOM
M  V30 BEGIN BOND
M  V30 1 1 2 1
M  V30 2 2 3 2
M  V30 3 1 4 3
M  V30 4 2 5 4
M  V30 5 1 6 5
M  V30 6 1 7 2
M  V30 7 2 7 6
M  V30 8 1 8 7
M  V30 9 2 9 8
M  V30 10 1 10 8
M  V30 11 1 11 10
M  V30 12 1 12 11
M  V30 13 1 13 12
M  V30 14 1 14 13
M  V30 15 1 15 14
M  V30 16 1 16 15
M  V30 17 1 17 16
M  V30 18 1 18 13
M  V30 19 1 18 17
M  V30 20 1 19 17
M  V30 21 2 20 19
M  V30 22 1 21 20
M  V30 23 2 22 21
M  V30 24 1 23 22
M  V30 25 1 24 19
M  V30 26 2 24 23
M  V30 27 1 25 16
M  V30 28 1 25 24
M  V30 29 1 26 25
M  V30 30 1 27 26
M  V30 31 1 28 23
M  V30 32 1 28 27
M  V30 33 1 29 1
M  V30 34 1 30 1
M  V30 35 1 31 3
M  V30 36 1 32 4
M  V30 37 1 33 5
M  V30 38 1 34 6
M  V30 39 1 35 10
M  V30 40 1 36 10
M  V30 41 1 37 11
M  V30 42 1 38 11
M  V30 43 1 39 12
M  V30 44 1 40 12
M  V30 45 1 41 14
M  V30 46 1 42 14
M  V30 47 1 43 15
M  V30 48 1 44 15
M  V30 49 1 16 45 CFG=3
M  V30 50 1 17 46 CFG=3
M  V30 51 1 47 18
M  V30 52 1 48 18
M  V30 53 1 49 20
M  V30 54 1 50 21
M  V30 55 1 51 22
M  V30 56 1 52 26
M  V30 57 1 53 26
M  V30 58 1 54 27
M  V30 59 1 55 27
M  V30 60 1 13 56 CFG=1
M  V30 END BOND
M  V30 END CTAB
M  END
>  <b_m_subgroup_collapsed>  (2161) 
0

>  <r_i_docking_score>  (2161) 
-6.1360748021709401

>  <s_m_subgroup_title>  (2161) 
glide-dock_SP_D22_pv

>  <s_m_subgroupid>  (2161) 
glide-dock_SP_D22_pv

>  <Molecule ChEMBL ID>  (2161) 
CHEMBL166366

>  <Standard Type>  (2161) 
Ki

>  <Standard Value>  (2161) 
60.0

>  <label>  (2161) 
1

$$$$
CHEMBL526849
     RDKit          3D

  0  0  0  0  0  0  0  0  0  0999 V3000
M  V30 BEGIN CTAB
M  V30 COUNTS 52 53 0 0 1
M  V30 BEGIN ATOM
M  V30 1 C 8.504091 5.335534 -8.463076 0
M  V30 2 C 9.621404 6.075378 -7.709999 0
M  V30 3 N 10.126928 7.257139 -8.426921 0
M  V30 4 C 10.711200 6.845790 -9.706086 0
M  V30 5 C 9.813236 7.210025 -10.898296 0
M  V30 6 C 10.340257 6.570994 -12.169906 0
M  V30 7 C 9.635715 5.513787 -12.780712 0
M  V30 8 C 10.157142 4.890366 -13.931273 0
M  V30 9 C 11.378633 5.315035 -14.494363 0
M  V30 10 O 11.818105 4.654053 -15.621614 0
M  V30 11 C 12.691646 5.251755 -16.477594 0
M  V30 12 F 12.814395 4.497313 -17.596066 0
M  V30 13 F 12.251998 6.473288 -16.872787 0
M  V30 14 F 13.931632 5.372664 -15.942718 0
M  V30 15 C 12.085848 6.371179 -13.869719 0
M  V30 16 C 11.572273 6.984860 -12.713444 0
M  V30 17 C 11.160268 7.937262 -7.644474 0
M  V30 18 C 10.606424 8.676416 -6.406230 0
M  V30 19 N 11.550661 8.644115 -5.259613 0 CHG=1
M  V30 20 C 11.287352 9.746468 -4.296249 0
M  V30 21 C 12.330688 9.772184 -3.177661 0
M  V30 22 C 12.411466 8.428915 -2.444522 0
M  V30 23 C 12.660420 7.293230 -3.444952 0
M  V30 24 C 11.643866 7.303506 -4.603450 0
M  V30 25 H 8.085565 4.541434 -7.847305 0
M  V30 26 H 7.691679 6.010861 -8.725887 0
M  V30 27 H 8.854722 4.864155 -9.380297 0
M  V30 28 H 10.439882 5.383147 -7.506169 0
M  V30 29 H 9.215900 6.362134 -6.741597 0
M  V30 30 H 10.886029 5.772098 -9.701602 0
M  V30 31 H 11.690923 7.296967 -9.868696 0
M  V30 32 H 9.778869 8.292315 -11.027574 0
M  V30 33 H 8.783723 6.892735 -10.730991 0
M  V30 34 H 8.698917 5.171080 -12.364854 0
M  V30 35 H 9.611780 4.078270 -14.389384 0
M  V30 36 H 13.033195 6.722961 -14.248085 0
M  V30 37 H 12.136113 7.773808 -12.239732 0
M  V30 38 H 11.928802 7.210344 -7.381499 0
M  V30 39 H 11.660001 8.682515 -8.266275 0
M  V30 40 H 10.416874 9.708899 -6.702892 0
M  V30 41 H 9.640627 8.296062 -6.076187 0
M  V30 42 H 11.289813 10.702239 -4.821791 0
M  V30 43 H 10.301774 9.664593 -3.852951 0
M  V30 44 H 13.301489 10.015469 -3.602215 0
M  V30 45 H 12.086225 10.567618 -2.473414 0
M  V30 46 H 13.215381 8.463592 -1.705918 0
M  V30 47 H 11.485905 8.244551 -1.897761 0
M  V30 48 H 13.671149 7.372478 -3.845107 0
M  V30 49 H 12.620543 6.332246 -2.929420 0
M  V30 50 H 10.670820 6.974788 -4.246726 0
M  V30 51 H 11.939801 6.545568 -5.328000 0
M  V30 52 H 12.463541 8.842974 -5.643820 0
M  V30 END ATOM
M  V30 BEGIN BOND
M  V30 1 1 2 1
M  V30 2 1 3 2
M  V30 3 1 4 3
M  V30 4 1 5 4
M  V30 5 1 6 5
M  V30 6 1 7 6
M  V30 7 2 8 7
M  V30 8 1 9 8
M  V30 9 1 10 9
M  V30 10 1 11 10
M  V30 11 1 12 11
M  V30 12 1 13 11
M  V30 13 1 14 11
M  V30 14 2 15 9
M  V30 15 2 16 6
M  V30 16 1 16 15
M  V30 17 1 17 3
M  V30 18 1 18 17
M  V30 19 1 19 18
M  V30 20 1 20 19
M  V30 21 1 21 20
M  V30 22 1 22 21
M  V30 23 1 23 22
M  V30 24 1 24 19
M  V30 25 1 24 23
M  V30 26 1 25 1
M  V30 27 1 26 1
M  V30 28 1 27 1
M  V30 29 1 28 2
M  V30 30 1 29 2
M  V30 31 1 30 4
M  V30 32 1 31 4
M  V30 33 1 32 5
M  V30 34 1 33 5
M  V30 35 1 34 7
M  V30 36 1 35 8
M  V30 37 1 36 15
M  V30 38 1 37 16
M  V30 39 1 38 17
M  V30 40 1 39 17
M  V30 41 1 40 18
M  V30 42 1 41 18
M  V30 43 1 42 20
M  V30 44 1 43 20
M  V30 45 1 44 21
M  V30 46 1 45 21
M  V30 47 1 46 22
M  V30 48 1 47 22
M  V30 49 1 48 23
M  V30 50 1 49 23
M  V30 51 1 50 24
M  V30 52 1 51 24
M  V30 53 1 52 19
M  V30 END BOND
M  V30 END CTAB
M  END
>  <b_m_subgroup_collapsed>  (2162) 
0

>  <r_i_docking_score>  (2162) 
-6.1329067461220701

>  <s_m_subgroup_title>  (2162) 
glide-dock_SP_D22_pv

>  <s_m_subgroupid>  (2162) 
glide-dock_SP_D22_pv

>  <Molecule ChEMBL ID>  (2162) 
CHEMBL526849

>  <Standard Type>  (2162) 
Ki

>  <Standard Value>  (2162) 
10000.0

>  <label>  (2162) 
0

$$$$
CHEMBL3764306
     RDKit          3D

  0  0  0  0  0  0  0  0  0  0999 V3000
M  V30 BEGIN CTAB
M  V30 COUNTS 60 63 0 0 1
M  V30 BEGIN ATOM
M  V30 1 C 8.875038 8.803612 -8.410076 0
M  V30 2 N 10.167003 8.560033 -9.007823 0
M  V30 3 C 10.494911 8.350430 -10.290134 0
M  V30 4 S 9.286313 8.277905 -11.566201 0
M  V30 5 C 9.684393 6.612552 -12.156682 0
M  V30 6 C 8.897185 5.509305 -11.441809 0
M  V30 7 C 7.986390 4.742831 -12.417726 0
M  V30 8 N 8.633165 3.675720 -13.186113 0
M  V30 9 C 9.724938 4.098719 -14.059543 0
M  V30 10 C 10.354838 2.916551 -14.810196 0
M  V30 11 O 9.350965 2.256771 -15.568810 0
M  V30 12 C 8.276658 1.767282 -14.766989 0 CFG=2
M  V30 13 C 7.244835 1.048026 -15.619271 0
M  V30 14 C 7.089282 1.375937 -16.984650 0
M  V30 15 C 6.140450 0.701908 -17.775078 0
M  V30 16 C 5.329875 -0.304135 -17.208437 0
M  V30 17 C 4.314820 -1.036765 -18.069733 0
M  V30 18 F 3.857805 -0.247545 -19.045420 0
M  V30 19 F 4.889198 -2.110606 -18.613607 0
M  V30 20 F 3.286336 -1.427312 -17.325146 0
M  V30 21 C 5.479713 -0.627590 -15.841004 0
M  V30 22 C 6.429622 0.047332 -15.049433 0
M  V30 23 C 7.649289 2.937596 -13.971701 0
M  V30 24 N 11.802032 8.160812 -10.480574 0
M  V30 25 N 12.359076 8.172454 -9.222027 0
M  V30 26 C 11.341564 8.384734 -8.386600 0
M  V30 27 C 11.464952 8.320042 -6.953044 0
M  V30 28 C 11.114017 7.124360 -6.300085 0
M  V30 29 C 11.286704 7.049219 -4.912926 0
M  V30 30 C 11.798172 8.174638 -4.232846 0
M  V30 31 C 12.085994 8.076446 -2.769072 0
M  V30 32 N 12.086761 9.236121 -2.112328 0
M  V30 33 O 12.262501 6.990200 -2.229387 0
M  V30 34 N 12.089322 9.344001 -4.852674 0
M  V30 35 C 11.932192 9.407925 -6.188729 0
M  V30 36 H 8.239493 9.370065 -9.091000 0
M  V30 37 H 8.414753 7.846941 -8.178049 0
M  V30 38 H 8.984186 9.372178 -7.487873 0
M  V30 39 H 9.440712 6.571935 -13.208988 0
M  V30 40 H 10.755116 6.424305 -12.104417 0
M  V30 41 H 9.571274 4.821036 -10.930300 0
M  V30 42 H 8.273949 5.951202 -10.661826 0
M  V30 43 H 7.194381 4.292637 -11.817111 0
M  V30 44 H 7.476409 5.440827 -13.084227 0
M  V30 45 H 9.364220 4.839001 -14.775742 0
M  V30 46 H 10.517542 4.560521 -13.475638 0
M  V30 47 H 11.134549 3.271882 -15.484342 0
M  V30 48 H 10.825279 2.216880 -14.114823 0
M  V30 49 H 8.691725 1.037773 -14.063559 0
M  V30 50 H 7.704242 2.145591 -17.431910 0
M  V30 51 H 6.034235 0.954762 -18.820398 0
M  V30 52 H 4.868923 -1.402822 -15.398975 0
M  V30 53 H 6.540855 -0.217582 -14.005700 0
M  V30 54 H 6.871358 2.546442 -13.316226 0
M  V30 55 H 7.144433 3.623693 -14.646933 0
M  V30 56 H 10.742644 6.273083 -6.852526 0
M  V30 57 H 11.057957 6.134793 -4.385495 0
M  V30 58 H 11.974075 10.083912 -2.647803 0
M  V30 59 H 12.245764 9.262379 -1.118423 0
M  V30 60 H 12.196589 10.348960 -6.645338 0
M  V30 END ATOM
M  V30 BEGIN BOND
M  V30 1 1 2 1
M  V30 2 1 3 2
M  V30 3 1 4 3
M  V30 4 1 5 4
M  V30 5 1 6 5
M  V30 6 1 7 6
M  V30 7 1 8 7
M  V30 8 1 9 8
M  V30 9 1 10 9
M  V30 10 1 11 10
M  V30 11 1 12 11
M  V30 12 1 13 12
M  V30 13 1 14 13
M  V30 14 2 15 14
M  V30 15 1 16 15
M  V30 16 1 17 16
M  V30 17 1 18 17
M  V30 18 1 19 17
M  V30 19 1 20 17
M  V30 20 2 21 16
M  V30 21 2 22 13
M  V30 22 1 22 21
M  V30 23 1 23 8
M  V30 24 1 23 12
M  V30 25 2 24 3
M  V30 26 1 25 24
M  V30 27 1 26 2
M  V30 28 2 26 25
M  V30 29 1 27 26
M  V30 30 1 28 27
M  V30 31 2 29 28
M  V30 32 1 30 29
M  V30 33 1 31 30
M  V30 34 1 32 31
M  V30 35 2 33 31
M  V30 36 2 34 30
M  V30 37 2 35 27
M  V30 38 1 35 34
M  V30 39 1 36 1
M  V30 40 1 37 1
M  V30 41 1 38 1
M  V30 42 1 39 5
M  V30 43 1 40 5
M  V30 44 1 41 6
M  V30 45 1 42 6
M  V30 46 1 43 7
M  V30 47 1 44 7
M  V30 48 1 45 9
M  V30 49 1 46 9
M  V30 50 1 47 10
M  V30 51 1 48 10
M  V30 52 1 12 49 CFG=1
M  V30 53 1 50 14
M  V30 54 1 51 15
M  V30 55 1 52 21
M  V30 56 1 53 22
M  V30 57 1 54 23
M  V30 58 1 55 23
M  V30 59 1 56 28
M  V30 60 1 57 29
M  V30 61 1 58 32
M  V30 62 1 59 32
M  V30 63 1 60 35
M  V30 END BOND
M  V30 END CTAB
M  END
>  <b_m_subgroup_collapsed>  (2163) 
0

>  <r_i_docking_score>  (2163) 
-6.1327279392182801

>  <s_m_subgroup_title>  (2163) 
glide-dock_SP_D22_pv

>  <s_m_subgroupid>  (2163) 
glide-dock_SP_D22_pv

>  <Molecule ChEMBL ID>  (2163) 
CHEMBL3764306

>  <Standard Type>  (2163) 
Ki

>  <Standard Value>  (2163) 
24547.0

>  <label>  (2163) 
0

$$$$
CHEMBL596179
     RDKit          3D

  0  0  0  0  0  0  0  0  0  0999 V3000
M  V30 BEGIN CTAB
M  V30 COUNTS 42 44 0 0 1
M  V30 BEGIN ATOM
M  V30 1 C 10.861928 5.596884 -17.477617 0
M  V30 2 N 11.715053 4.871190 -16.506182 0 CFG=2 CHG=1
M  V30 3 C 12.727453 5.745076 -15.861942 0
M  V30 4 C 12.148298 6.471705 -14.642089 0
M  V30 5 C 11.813731 5.556310 -13.447021 0
M  V30 6 C 10.407995 4.955348 -13.485222 0
M  V30 7 C 9.352965 5.772402 -13.013955 0
M  V30 8 C 8.015989 5.336700 -13.045165 0
M  V30 9 O 6.994689 6.149176 -12.640325 0
M  V30 10 C 7.722916 4.051703 -13.522345 0
M  V30 11 C 8.763126 3.209654 -13.949594 0
M  V30 12 C 10.111833 3.637424 -13.945662 0
M  V30 13 C 11.183997 2.635979 -14.389306 0
M  V30 14 C 10.885118 1.938062 -15.717896 0
M  V30 15 C 10.129504 0.744074 -15.693014 0
M  V30 16 C 9.796487 0.076839 -16.884068 0
M  V30 17 C 10.223125 0.594280 -18.119139 0
M  V30 18 C 11.001373 1.765612 -18.157375 0
M  V30 19 C 11.353309 2.435496 -16.965406 0
M  V30 20 C 12.299607 3.623041 -17.056948 0
M  V30 21 H 11.423012 5.852403 -18.378067 0
M  V30 22 H 10.485490 6.531668 -17.054434 0
M  V30 23 H 10.007275 4.986286 -17.769300 0
M  V30 24 H 13.592584 5.175414 -15.522779 0
M  V30 25 H 13.112550 6.461139 -16.590307 0
M  V30 26 H 12.912307 7.175520 -14.309907 0
M  V30 27 H 11.288162 7.081192 -14.915158 0
M  V30 28 H 12.588319 4.812486 -13.274430 0
M  V30 29 H 11.850414 6.192266 -12.564843 0
M  V30 30 H 9.568176 6.764688 -12.646600 0
M  V30 31 H 7.193389 6.767683 -11.945075 0
M  V30 32 H 6.699961 3.703861 -13.548265 0
M  V30 33 H 8.501039 2.215806 -14.275620 0
M  V30 34 H 12.161573 3.097341 -14.445174 0
M  V30 35 H 11.279246 1.876159 -13.613595 0
M  V30 36 H 9.792635 0.336453 -14.750937 0
M  V30 37 H 9.209155 -0.829254 -16.850382 0
M  V30 38 H 9.965646 0.086044 -19.036936 0
M  V30 39 H 11.348589 2.131742 -19.113239 0
M  V30 40 H 12.626937 3.786854 -18.085741 0
M  V30 41 H 13.198087 3.328610 -16.515989 0
M  V30 42 H 11.108572 4.571402 -15.752898 0
M  V30 END ATOM
M  V30 BEGIN BOND
M  V30 1 1 2 1
M  V30 2 1 3 2
M  V30 3 1 4 3
M  V30 4 1 5 4
M  V30 5 1 6 5
M  V30 6 1 7 6
M  V30 7 2 8 7
M  V30 8 1 9 8
M  V30 9 1 10 8
M  V30 10 2 11 10
M  V30 11 2 12 6
M  V30 12 1 12 11
M  V30 13 1 13 12
M  V30 14 1 14 13
M  V30 15 2 15 14
M  V30 16 1 16 15
M  V30 17 2 17 16
M  V30 18 1 18 17
M  V30 19 1 19 14
M  V30 20 2 19 18
M  V30 21 1 20 2
M  V30 22 1 20 19
M  V30 23 1 21 1
M  V30 24 1 22 1
M  V30 25 1 23 1
M  V30 26 1 24 3
M  V30 27 1 25 3
M  V30 28 1 26 4
M  V30 29 1 27 4
M  V30 30 1 28 5
M  V30 31 1 29 5
M  V30 32 1 30 7
M  V30 33 1 31 9
M  V30 34 1 32 10
M  V30 35 1 33 11
M  V30 36 1 34 13
M  V30 37 1 35 13
M  V30 38 1 36 15
M  V30 39 1 37 16
M  V30 40 1 38 17
M  V30 41 1 39 18
M  V30 42 1 40 20
M  V30 43 1 41 20
M  V30 44 1 2 42 CFG=1
M  V30 END BOND
M  V30 END CTAB
M  END
>  <b_m_subgroup_collapsed>  (2164) 
0

>  <r_i_docking_score>  (2164) 
-6.1323069141401403

>  <s_m_subgroup_title>  (2164) 
glide-dock_SP_D22_pv

>  <s_m_subgroupid>  (2164) 
glide-dock_SP_D22_pv

>  <Molecule ChEMBL ID>  (2164) 
CHEMBL596179

>  <Standard Type>  (2164) 
Ki

>  <Standard Value>  (2164) 
10000.0

>  <label>  (2164) 
0

$$$$
CHEMBL4876353
     RDKit          3D

  0  0  0  0  0  0  0  0  0  0999 V3000
M  V30 BEGIN CTAB
M  V30 COUNTS 71 74 0 0 1
M  V30 BEGIN ATOM
M  V30 1 C 4.328068 0.172110 -19.587997 0
M  V30 2 C 4.909019 -1.012377 -18.800114 0
M  V30 3 C 5.257122 -0.629651 -17.368156 0
M  V30 4 C 4.285625 -0.794293 -16.368061 0
M  V30 5 C 4.544331 -0.401076 -15.047579 0
M  V30 6 Cl 3.291167 -0.628401 -13.879543 0
M  V30 7 C 5.793439 0.173307 -14.702497 0
M  V30 8 O 6.030566 0.572476 -13.407118 0
M  V30 9 C 5.386915 1.787743 -13.033221 0
M  V30 10 C 6.808039 0.306375 -15.694889 0
M  V30 11 C 8.178873 0.848722 -15.354549 0
M  V30 12 O 9.197335 0.312909 -15.800895 0
M  V30 13 N 8.208099 1.988122 -14.646612 0
M  V30 14 C 9.417131 2.715204 -14.250676 0
M  V30 15 C 9.550356 4.086700 -14.974848 0 CFG=2
M  V30 16 C 9.796713 3.910325 -16.479399 0
M  V30 17 C 11.313375 3.719104 -16.594662 0
M  V30 18 C 11.895384 4.332248 -15.310324 0
M  V30 19 N 10.738492 4.885800 -14.572835 0 CFG=2 CHG=1
M  V30 20 C 10.965640 5.174409 -13.134398 0
M  V30 21 C 10.088196 6.338871 -12.631004 0
M  V30 22 C 10.013412 6.485466 -11.104959 0
M  V30 23 C 9.169356 5.737167 -10.346854 0
M  V30 24 C 8.259859 4.674338 -10.928219 0
M  V30 25 N 9.071867 5.916566 -8.967592 0
M  V30 26 C 9.736316 6.862712 -8.391260 0
M  V30 27 N 10.637918 7.696341 -9.104115 0
M  V30 28 C 10.845318 7.514094 -10.443248 0
M  V30 29 O 11.699158 8.166401 -11.047318 0
M  V30 30 C 11.488964 8.696968 -8.411083 0
M  V30 31 C 11.057995 9.079392 -6.991773 0
M  V30 32 C 10.724064 7.821604 -6.210928 0
M  V30 33 C 9.552423 7.120886 -6.895042 0
M  V30 34 C 6.526591 -0.101836 -17.028578 0
M  V30 35 O 7.473986 0.024162 -18.010815 0
M  V30 36 H 4.087650 -0.125482 -20.609497 0
M  V30 37 H 3.414130 0.547335 -19.124155 0
M  V30 38 H 5.041189 0.997192 -19.637903 0
M  V30 39 H 5.790710 -1.402599 -19.307552 0
M  V30 40 H 4.187175 -1.831452 -18.788132 0
M  V30 41 H 3.320034 -1.212696 -16.614164 0
M  V30 42 H 5.684023 2.059858 -12.019518 0
M  V30 43 H 5.671372 2.611393 -13.693328 0
M  V30 44 H 4.300506 1.710168 -13.048529 0
M  V30 45 H 7.324128 2.348241 -14.320633 0
M  V30 46 H 9.338006 2.840707 -13.174373 0
M  V30 47 H 10.311608 2.104485 -14.398543 0
M  V30 48 H 8.646186 4.670571 -14.800444 0
M  V30 49 H 9.233062 3.096673 -16.934202 0
M  V30 50 H 9.512242 4.827679 -16.997843 0
M  V30 51 H 11.564010 2.659063 -16.643772 0
M  V30 52 H 11.709321 4.194688 -17.489725 0
M  V30 53 H 12.380152 3.554892 -14.713979 0
M  V30 54 H 12.635659 5.113244 -15.516940 0
M  V30 55 H 10.860265 4.276035 -12.531599 0
M  V30 56 H 12.007094 5.479558 -13.046150 0
M  V30 57 H 10.484982 7.263660 -13.046371 0
M  V30 58 H 9.073767 6.241210 -13.013853 0
M  V30 59 H 7.558187 5.103006 -11.645401 0
M  V30 60 H 8.853261 3.905121 -11.417802 0
M  V30 61 H 7.686204 4.173934 -10.152244 0
M  V30 62 H 12.502803 8.297568 -8.371134 0
M  V30 63 H 11.545500 9.613471 -8.999856 0
M  V30 64 H 11.854239 9.636786 -6.498128 0
M  V30 65 H 10.191673 9.740026 -7.025015 0
M  V30 66 H 11.590785 7.159593 -6.171579 0
M  V30 67 H 10.473111 8.066169 -5.179131 0
M  V30 68 H 8.641711 7.707188 -6.765494 0
M  V30 69 H 9.369013 6.172094 -6.394483 0
M  V30 70 H 8.341906 0.127576 -17.645536 0
M  V30 71 H 10.590593 5.790493 -14.998354 0
M  V30 END ATOM
M  V30 BEGIN BOND
M  V30 1 1 2 1
M  V30 2 1 3 2
M  V30 3 1 4 3
M  V30 4 2 5 4
M  V30 5 1 6 5
M  V30 6 1 7 5
M  V30 7 1 8 7
M  V30 8 1 9 8
M  V30 9 2 10 7
M  V30 10 1 11 10
M  V30 11 2 12 11
M  V30 12 1 13 11
M  V30 13 1 14 13
M  V30 14 1 15 14
M  V30 15 1 16 15
M  V30 16 1 17 16
M  V30 17 1 18 17
M  V30 18 1 19 15
M  V30 19 1 19 18
M  V30 20 1 20 19
M  V30 21 1 21 20
M  V30 22 1 22 21
M  V30 23 2 23 22
M  V30 24 1 24 23
M  V30 25 1 25 23
M  V30 26 2 26 25
M  V30 27 1 27 26
M  V30 28 1 28 22
M  V30 29 1 28 27
M  V30 30 2 29 28
M  V30 31 1 30 27
M  V30 32 1 31 30
M  V30 33 1 32 31
M  V30 34 1 33 26
M  V30 35 1 33 32
M  V30 36 2 34 3
M  V30 37 1 34 10
M  V30 38 1 35 34
M  V30 39 1 36 1
M  V30 40 1 37 1
M  V30 41 1 38 1
M  V30 42 1 39 2
M  V30 43 1 40 2
M  V30 44 1 41 4
M  V30 45 1 42 9
M  V30 46 1 43 9
M  V30 47 1 44 9
M  V30 48 1 45 13
M  V30 49 1 46 14
M  V30 50 1 47 14
M  V30 51 1 15 48 CFG=3
M  V30 52 1 49 16
M  V30 53 1 50 16
M  V30 54 1 51 17
M  V30 55 1 52 17
M  V30 56 1 53 18
M  V30 57 1 54 18
M  V30 58 1 55 20
M  V30 59 1 56 20
M  V30 60 1 57 21
M  V30 61 1 58 21
M  V30 62 1 59 24
M  V30 63 1 60 24
M  V30 64 1 61 24
M  V30 65 1 62 30
M  V30 66 1 63 30
M  V30 67 1 64 31
M  V30 68 1 65 31
M  V30 69 1 66 32
M  V30 70 1 67 32
M  V30 71 1 68 33
M  V30 72 1 69 33
M  V30 73 1 70 35
M  V30 74 1 19 71 CFG=3
M  V30 END BOND
M  V30 END CTAB
M  END
>  <b_m_subgroup_collapsed>  (2165) 
0

>  <r_i_docking_score>  (2165) 
-6.1278223148503397

>  <s_m_subgroup_title>  (2165) 
glide-dock_SP_D22_pv

>  <s_m_subgroupid>  (2165) 
glide-dock_SP_D22_pv

>  <Molecule ChEMBL ID>  (2165) 
CHEMBL4876353

>  <Standard Type>  (2165) 
Ki

>  <Standard Value>  (2165) 
74.4

>  <label>  (2165) 
1

$$$$
CHEMBL423198
     RDKit          3D

  0  0  0  0  0  0  0  0  0  0999 V3000
M  V30 BEGIN CTAB
M  V30 COUNTS 72 76 0 0 1
M  V30 BEGIN ATOM
M  V30 1 C 8.762185 4.358446 -12.298944 0
M  V30 2 O 9.716290 5.287680 -12.791868 0
M  V30 3 C 10.408340 4.976788 -13.947783 0
M  V30 4 C 10.023438 3.898620 -14.786603 0
M  V30 5 C 10.753642 3.587762 -15.945476 0
M  V30 6 C 11.864028 4.370617 -16.295736 0
M  V30 7 S 12.811241 3.942182 -17.753809 0
M  V30 8 O 14.141245 4.561727 -17.650414 0
M  V30 9 O 12.688765 2.491947 -17.965084 0
M  V30 10 N 11.961402 4.731572 -19.046663 0
M  V30 11 C 10.643073 4.225893 -19.471357 0
M  V30 12 C 9.507136 5.117717 -18.933619 0
M  V30 13 O 9.735442 6.470806 -19.296633 0
M  V30 14 C 10.944852 6.972885 -18.745296 0
M  V30 15 C 12.146133 6.174955 -19.273705 0
M  V30 16 C 12.255931 5.450122 -15.484476 0
M  V30 17 C 11.547147 5.760982 -14.300365 0
M  V30 18 C 12.072624 6.835309 -13.446795 0
M  V30 19 C 13.048791 7.772854 -13.630444 0
M  V30 20 C 13.286312 8.408841 -12.375340 0
M  V30 21 C 12.485663 7.836469 -11.430344 0
M  V30 22 C 12.485678 7.992702 -9.931555 0
M  V30 23 N 11.172281 7.746678 -9.292871 0 CFG=2 CHG=1
M  V30 24 C 10.216209 8.848524 -9.539617 0
M  V30 25 C 8.800756 8.512761 -9.122049 0
M  V30 26 C 8.592582 8.280791 -7.617552 0
M  V30 27 C 8.775067 6.813430 -7.193738 0
M  V30 28 C 10.040140 6.171508 -7.760113 0
M  V30 29 C 11.211257 7.151799 -7.912680 0 CFG=2
M  V30 30 C 11.450745 8.032103 -6.686555 0
M  V30 31 C 11.285142 7.494470 -5.385399 0
M  V30 32 C 11.453310 8.305350 -4.248600 0
M  V30 33 C 11.738323 9.670234 -4.397221 0
M  V30 34 C 11.954771 10.186928 -5.686317 0
M  V30 35 C 11.858776 9.366778 -6.809913 0
M  V30 36 N 11.669711 6.972960 -12.135119 0
M  V30 37 H 8.405157 4.693099 -11.324361 0
M  V30 38 H 7.895106 4.284996 -12.957299 0
M  V30 39 H 9.212888 3.372646 -12.170710 0
M  V30 40 H 9.170732 3.278214 -14.557838 0
M  V30 41 H 10.458771 2.752426 -16.563324 0
M  V30 42 H 10.612854 4.220495 -20.561565 0
M  V30 43 H 10.508953 3.193187 -19.150942 0
M  V30 44 H 8.552270 4.799450 -19.351723 0
M  V30 45 H 9.413596 5.038383 -17.851208 0
M  V30 46 H 11.045947 8.019504 -19.033619 0
M  V30 47 H 10.904091 6.941103 -17.656443 0
M  V30 48 H 13.070066 6.525313 -18.815395 0
M  V30 49 H 12.248837 6.345130 -20.345383 0
M  V30 50 H 13.131277 6.018123 -15.762105 0
M  V30 51 H 13.648995 7.920345 -14.522651 0
M  V30 52 H 14.039742 9.151083 -12.167350 0
M  V30 53 H 12.834210 8.972492 -9.665647 0
M  V30 54 H 13.264489 7.372335 -9.505704 0
M  V30 55 H 10.197583 9.039051 -10.612780 0
M  V30 56 H 10.527681 9.773574 -9.081540 0
M  V30 57 H 8.487039 7.632618 -9.681510 0
M  V30 58 H 8.158452 9.337462 -9.438875 0
M  V30 59 H 7.611561 8.572275 -7.309903 0
M  V30 60 H 9.192780 8.972317 -7.036127 0
M  V30 61 H 7.923166 6.201472 -7.491638 0
M  V30 62 H 8.795574 6.764619 -6.107792 0
M  V30 63 H 9.825325 5.679439 -8.709633 0
M  V30 64 H 10.328954 5.372291 -7.087874 0
M  V30 65 H 12.091396 6.566700 -7.845689 0
M  V30 66 H 11.029845 6.455069 -5.241343 0
M  V30 67 H 11.322773 7.887568 -3.260753 0
M  V30 68 H 11.817597 10.299814 -3.522855 0
M  V30 69 H 12.201564 11.225339 -5.845905 0
M  V30 70 H 12.087446 9.772292 -7.769139 0
M  V30 71 H 10.943254 6.380283 -11.754555 0
M  V30 72 H 10.796642 6.983438 -9.834108 0
M  V30 END ATOM
M  V30 BEGIN BOND
M  V30 1 1 2 1
M  V30 2 1 3 2
M  V30 3 1 4 3
M  V30 4 2 5 4
M  V30 5 1 6 5
M  V30 6 1 7 6
M  V30 7 2 8 7
M  V30 8 2 9 7
M  V30 9 1 10 7
M  V30 10 1 11 10
M  V30 11 1 12 11
M  V30 12 1 13 12
M  V30 13 1 14 13
M  V30 14 1 15 10
M  V30 15 1 15 14
M  V30 16 2 16 6
M  V30 17 2 17 3
M  V30 18 1 17 16
M  V30 19 1 18 17
M  V30 20 2 19 18
M  V30 21 1 20 19
M  V30 22 2 21 20
M  V30 23 1 22 21
M  V30 24 1 23 22
M  V30 25 1 24 23
M  V30 26 1 25 24
M  V30 27 1 26 25
M  V30 28 1 27 26
M  V30 29 1 28 27
M  V30 30 1 29 23
M  V30 31 1 29 28
M  V30 32 1 30 29
M  V30 33 2 31 30
M  V30 34 1 32 31
M  V30 35 2 33 32
M  V30 36 1 34 33
M  V30 37 1 35 30
M  V30 38 2 35 34
M  V30 39 1 36 18
M  V30 40 1 36 21
M  V30 41 1 37 1
M  V30 42 1 38 1
M  V30 43 1 39 1
M  V30 44 1 40 4
M  V30 45 1 41 5
M  V30 46 1 42 11
M  V30 47 1 43 11
M  V30 48 1 44 12
M  V30 49 1 45 12
M  V30 50 1 46 14
M  V30 51 1 47 14
M  V30 52 1 48 15
M  V30 53 1 49 15
M  V30 54 1 50 16
M  V30 55 1 51 19
M  V30 56 1 52 20
M  V30 57 1 53 22
M  V30 58 1 54 22
M  V30 59 1 55 24
M  V30 60 1 56 24
M  V30 61 1 57 25
M  V30 62 1 58 25
M  V30 63 1 59 26
M  V30 64 1 60 26
M  V30 65 1 61 27
M  V30 66 1 62 27
M  V30 67 1 63 28
M  V30 68 1 64 28
M  V30 69 1 29 65 CFG=3
M  V30 70 1 66 31
M  V30 71 1 67 32
M  V30 72 1 68 33
M  V30 73 1 69 34
M  V30 74 1 70 35
M  V30 75 1 71 36
M  V30 76 1 23 72 CFG=3
M  V30 END BOND
M  V30 END CTAB
M  END
>  <b_m_subgroup_collapsed>  (2166) 
0

>  <r_i_docking_score>  (2166) 
-6.1258952588770503

>  <s_m_subgroup_title>  (2166) 
glide-dock_SP_D22_pv

>  <s_m_subgroupid>  (2166) 
glide-dock_SP_D22_pv

>  <Molecule ChEMBL ID>  (2166) 
CHEMBL423198

>  <Standard Type>  (2166) 
Ki

>  <Standard Value>  (2166) 
100.0

>  <label>  (2166) 
1

$$$$
CHEMBL5722963
     RDKit          3D

  0  0  0  0  0  0  0  0  0  0999 V3000
M  V30 BEGIN CTAB
M  V30 COUNTS 45 47 0 0 1
M  V30 BEGIN ATOM
M  V30 1 C 12.608355 9.057158 -1.457671 0
M  V30 2 C 12.158552 8.491519 -2.784951 0
M  V30 3 C 11.951200 7.108322 -2.947809 0
M  V30 4 C 11.499269 6.612373 -4.185391 0
M  V30 5 C 11.286057 7.480555 -5.270175 0
M  V30 6 N 10.843175 6.990798 -6.503682 0
M  V30 7 C 10.707741 7.805100 -7.618010 0
M  V30 8 C 10.252923 7.121159 -8.898293 0
M  V30 9 N 9.427983 5.942159 -8.650543 0
M  V30 10 C 9.247109 5.146344 -9.861034 0
M  V30 11 C 8.250037 5.766995 -10.855693 0
M  V30 12 C 8.156230 4.990220 -12.146941 0
M  V30 13 C 9.159234 4.810897 -13.151002 0
M  V30 14 C 10.557800 5.352879 -13.192980 0
M  V30 15 N 8.742319 4.064055 -14.162631 0
M  V30 16 N 7.469519 3.772559 -13.846331 0
M  V30 17 C 7.069290 4.330087 -12.655176 0
M  V30 18 C 5.679955 4.163966 -12.139419 0
M  V30 19 C 10.976635 9.126223 -7.559102 0
M  V30 20 C 11.415846 9.763713 -6.297744 0
M  V30 21 O 11.683943 10.962733 -6.246741 0
M  V30 22 C 11.543450 8.863811 -5.121311 0
M  V30 23 C 11.941533 9.364570 -3.865007 0
M  V30 24 H 13.683822 8.946136 -1.316323 0
M  V30 25 H 12.387426 10.119305 -1.396192 0
M  V30 26 H 12.076519 8.572093 -0.648296 0
M  V30 27 H 12.111872 6.426946 -2.124407 0
M  V30 28 H 11.309560 5.562614 -4.302516 0
M  V30 29 H 10.598248 6.013276 -6.601811 0
M  V30 30 H 9.689140 7.835207 -9.499354 0
M  V30 31 H 11.144109 6.852609 -9.465817 0
M  V30 32 H 8.522051 6.241971 -8.305882 0
M  V30 33 H 10.208310 4.970420 -10.335425 0
M  V30 34 H 8.871404 4.172274 -9.555964 0
M  V30 35 H 7.285930 5.772772 -10.359031 0
M  V30 36 H 8.488351 6.808051 -11.062005 0
M  V30 37 H 10.764463 5.813475 -14.159708 0
M  V30 38 H 10.718702 6.111743 -12.426098 0
M  V30 39 H 11.287606 4.556817 -13.046629 0
M  V30 40 H 6.889468 3.205249 -14.448425 0
M  V30 41 H 5.352677 5.060059 -11.611308 0
M  V30 42 H 4.974238 3.985605 -12.950697 0
M  V30 43 H 5.623549 3.324789 -11.447325 0
M  V30 44 H 10.881569 9.756667 -8.433088 0
M  V30 45 H 12.085783 10.419714 -3.712841 0
M  V30 END ATOM
M  V30 BEGIN BOND
M  V30 1 1 2 1
M  V30 2 2 3 2
M  V30 3 1 4 3
M  V30 4 2 5 4
M  V30 5 1 6 5
M  V30 6 1 7 6
M  V30 7 1 8 7
M  V30 8 1 9 8
M  V30 9 1 10 9
M  V30 10 1 11 10
M  V30 11 1 12 11
M  V30 12 1 13 12
M  V30 13 1 14 13
M  V30 14 2 15 13
M  V30 15 1 16 15
M  V30 16 2 17 12
M  V30 17 1 17 16
M  V30 18 1 18 17
M  V30 19 2 19 7
M  V30 20 1 20 19
M  V30 21 2 21 20
M  V30 22 1 22 5
M  V30 23 1 22 20
M  V30 24 1 23 2
M  V30 25 2 23 22
M  V30 26 1 24 1
M  V30 27 1 25 1
M  V30 28 1 26 1
M  V30 29 1 27 3
M  V30 30 1 28 4
M  V30 31 1 29 6
M  V30 32 1 30 8
M  V30 33 1 31 8
M  V30 34 1 32 9
M  V30 35 1 33 10
M  V30 36 1 34 10
M  V30 37 1 35 11
M  V30 38 1 36 11
M  V30 39 1 37 14
M  V30 40 1 38 14
M  V30 41 1 39 14
M  V30 42 1 40 16
M  V30 43 1 41 18
M  V30 44 1 42 18
M  V30 45 1 43 18
M  V30 46 1 44 19
M  V30 47 1 45 23
M  V30 END BOND
M  V30 END CTAB
M  END
>  <b_m_subgroup_collapsed>  (2167) 
0

>  <r_i_docking_score>  (2167) 
-6.1238693277572303

>  <s_m_subgroup_title>  (2167) 
glide-dock_SP_D22_pv

>  <s_m_subgroupid>  (2167) 
glide-dock_SP_D22_pv

>  <Molecule ChEMBL ID>  (2167) 
CHEMBL5722963

>  <Standard Type>  (2167) 
Ki

>  <Standard Value>  (2167) 
10000.0

>  <label>  (2167) 
0

$$$$
CHEMBL1201343
     RDKit          3D

  0  0  0  0  0  0  0  0  0  0999 V3000
M  V30 BEGIN CTAB
M  V30 COUNTS 35 36 0 0 1
M  V30 BEGIN ATOM
M  V30 1 C 5.681336 3.336658 -12.432412 0
M  V30 2 C 6.222403 4.756964 -12.247401 0
M  V30 3 C 7.599865 4.784957 -11.568439 0
M  V30 4 N 8.086012 6.172350 -11.445707 0 CHG=1
M  V30 5 C 9.364498 6.349318 -10.719699 0 CFG=1
M  V30 6 C 10.262513 7.361448 -11.487450 0
M  V30 7 C 11.527494 7.792193 -10.708989 0
M  V30 8 C 11.086969 8.267461 -9.327695 0 CFG=2
M  V30 9 N 12.118277 8.818948 -8.452352 0 CHG=1
M  V30 10 C 11.785991 8.780903 -7.150551 0
M  V30 11 N 12.389055 9.382470 -6.115708 0
M  V30 12 S 10.333622 7.765116 -6.869346 0
M  V30 13 C 10.408619 7.139826 -8.559118 0 CFG=1
M  V30 14 C 9.093883 6.794562 -9.256167 0
M  V30 15 H 4.701047 3.354030 -12.909047 0
M  V30 16 H 5.574748 2.833429 -11.472316 0
M  V30 17 H 6.343219 2.737957 -13.058910 0
M  V30 18 H 6.278877 5.244602 -13.221109 0
M  V30 19 H 5.512414 5.334991 -11.653696 0
M  V30 20 H 7.549130 4.323293 -10.583267 0
M  V30 21 H 8.317501 4.207282 -12.152564 0
M  V30 22 H 8.190537 6.545002 -12.376895 0
M  V30 23 H 9.895925 5.395449 -10.696411 0
M  V30 24 H 10.553740 6.945202 -12.452877 0
M  V30 25 H 9.679392 8.257035 -11.710568 0
M  V30 26 H 12.233855 6.972406 -10.618207 0
M  V30 27 H 12.054330 8.582718 -11.241402 0
M  V30 28 H 10.371724 9.081065 -9.460606 0
M  V30 29 H 13.245846 9.910720 -6.246853 0
M  V30 30 H 12.011010 9.270689 -5.185181 0
M  V30 31 H 11.047845 6.256564 -8.544470 0
M  V30 32 H 8.486016 7.695194 -9.247330 0
M  V30 33 H 8.548256 6.027730 -8.704946 0
M  V30 34 H 12.876921 9.372448 -8.834692 0
M  V30 35 H 7.378917 6.743314 -10.966320 0
M  V30 END ATOM
M  V30 BEGIN BOND
M  V30 1 1 2 1
M  V30 2 1 3 2
M  V30 3 1 4 3
M  V30 4 1 5 4
M  V30 5 1 6 5
M  V30 6 1 7 6
M  V30 7 1 8 7
M  V30 8 1 9 8
M  V30 9 2 10 9
M  V30 10 1 11 10
M  V30 11 1 12 10
M  V30 12 1 13 8
M  V30 13 1 13 12
M  V30 14 1 14 5
M  V30 15 1 14 13
M  V30 16 1 15 1
M  V30 17 1 16 1
M  V30 18 1 17 1
M  V30 19 1 18 2
M  V30 20 1 19 2
M  V30 21 1 20 3
M  V30 22 1 21 3
M  V30 23 1 22 4
M  V30 24 1 5 23 CFG=1
M  V30 25 1 24 6
M  V30 26 1 25 6
M  V30 27 1 26 7
M  V30 28 1 27 7
M  V30 29 1 8 28 CFG=3
M  V30 30 1 29 11
M  V30 31 1 30 11
M  V30 32 1 13 31 CFG=1
M  V30 33 1 32 14
M  V30 34 1 33 14
M  V30 35 1 34 9
M  V30 36 1 35 4
M  V30 END BOND
M  V30 END CTAB
M  END
>  <b_m_subgroup_collapsed>  (2168) 
0

>  <r_i_docking_score>  (2168) 
-6.1222525910709198

>  <s_m_subgroup_title>  (2168) 
glide-dock_SP_D22_pv

>  <s_m_subgroupid>  (2168) 
glide-dock_SP_D22_pv

>  <Molecule ChEMBL ID>  (2168) 
CHEMBL1201343

>  <Standard Type>  (2168) 
Ki

>  <Standard Value>  (2168) 
3.9

>  <label>  (2168) 
1

$$$$
CHEMBL4465638
     RDKit          3D

  0  0  0  0  0  0  0  0  0  0999 V3000
M  V30 BEGIN CTAB
M  V30 COUNTS 53 56 0 0 1
M  V30 BEGIN ATOM
M  V30 1 C 3.925045 -1.789742 -16.517202 0
M  V30 2 C 5.206557 -1.818549 -15.670861 0
M  V30 3 C 5.279436 -0.615189 -14.735646 0
M  V30 4 O 4.365928 -0.397768 -13.934370 0
M  V30 5 N 6.381812 0.144322 -14.850283 0
M  V30 6 C 6.597789 1.428437 -14.298772 0
M  V30 7 N 5.692502 2.086054 -13.574246 0
M  V30 8 C 6.221087 3.336925 -13.315815 0
M  V30 9 C 5.464779 4.364240 -12.552342 0
M  V30 10 C 7.499044 3.334824 -13.845555 0
M  V30 11 C 8.561384 4.325843 -13.670140 0
M  V30 12 C 8.550875 5.434755 -12.867124 0
M  V30 13 N 9.810616 5.998949 -12.805937 0
M  V30 14 S 10.173855 7.353242 -11.791217 0
M  V30 15 O 9.285868 8.435480 -12.246776 0
M  V30 16 O 11.636886 7.502268 -11.800179 0
M  V30 17 C 9.695306 6.890920 -10.130802 0
M  V30 18 C 9.685472 7.895687 -9.142790 0
M  V30 19 C 9.287038 7.576911 -7.831809 0
M  V30 20 C 8.886986 6.261591 -7.520839 0
M  V30 21 C 8.888982 5.264606 -8.517962 0
M  V30 22 F 8.486094 4.003029 -8.246911 0
M  V30 23 C 9.326419 5.569397 -9.813072 0
M  V30 24 C 10.644921 5.353784 -13.716552 0
M  V30 25 C 11.975803 5.576062 -14.125555 0
M  V30 26 C 12.551362 4.758586 -15.112709 0
M  V30 27 C 11.823341 3.697687 -15.681094 0
M  V30 28 O 12.465314 2.941338 -16.639814 0
M  V30 29 C 11.838842 1.746113 -17.080914 0
M  V30 30 C 10.496211 3.466999 -15.244054 0
M  V30 31 C 9.868814 4.292398 -14.276943 0
M  V30 32 N 7.709067 2.117176 -14.508707 0
M  V30 33 H 3.895974 -2.626044 -17.212065 0
M  V30 34 H 3.028972 -1.836603 -15.894876 0
M  V30 35 H 3.862962 -0.876552 -17.111092 0
M  V30 36 H 6.077328 -1.827600 -16.329220 0
M  V30 37 H 5.262745 -2.735375 -15.080887 0
M  V30 38 H 7.104488 -0.189835 -15.470736 0
M  V30 39 H 5.648189 5.364755 -12.940335 0
M  V30 40 H 4.401862 4.170465 -12.647346 0
M  V30 41 H 5.733483 4.344173 -11.497290 0
M  V30 42 H 7.762138 5.835998 -12.246755 0
M  V30 43 H 9.964920 8.908002 -9.398274 0
M  V30 44 H 9.257226 8.343539 -7.071758 0
M  V30 45 H 8.543945 6.037651 -6.523052 0
M  V30 46 H 9.359246 4.773289 -10.538033 0
M  V30 47 H 12.566787 6.376107 -13.709984 0
M  V30 48 H 13.567499 4.943379 -15.432393 0
M  V30 49 H 12.515510 1.217589 -17.753683 0
M  V30 50 H 11.613436 1.080392 -16.244606 0
M  V30 51 H 10.924321 1.959481 -17.636965 0
M  V30 52 H 9.919167 2.660265 -15.664174 0
M  V30 53 H 4.779664 1.735507 -13.316790 0
M  V30 END ATOM
M  V30 BEGIN BOND
M  V30 1 1 2 1
M  V30 2 1 3 2
M  V30 3 2 4 3
M  V30 4 1 5 3
M  V30 5 1 6 5
M  V30 6 1 7 6
M  V30 7 1 8 7
M  V30 8 1 9 8
M  V30 9 2 10 8
M  V30 10 1 11 10
M  V30 11 2 12 11
M  V30 12 1 13 12
M  V30 13 1 14 13
M  V30 14 2 15 14
M  V30 15 2 16 14
M  V30 16 1 17 14
M  V30 17 2 18 17
M  V30 18 1 19 18
M  V30 19 2 20 19
M  V30 20 1 21 20
M  V30 21 1 22 21
M  V30 22 1 23 17
M  V30 23 2 23 21
M  V30 24 1 24 13
M  V30 25 1 25 24
M  V30 26 2 26 25
M  V30 27 1 27 26
M  V30 28 1 28 27
M  V30 29 1 29 28
M  V30 30 2 30 27
M  V30 31 1 31 11
M  V30 32 2 31 24
M  V30 33 1 31 30
M  V30 34 2 32 6
M  V30 35 1 32 10
M  V30 36 1 33 1
M  V30 37 1 34 1
M  V30 38 1 35 1
M  V30 39 1 36 2
M  V30 40 1 37 2
M  V30 41 1 38 5
M  V30 42 1 39 9
M  V30 43 1 40 9
M  V30 44 1 41 9
M  V30 45 1 42 12
M  V30 46 1 43 18
M  V30 47 1 44 19
M  V30 48 1 45 20
M  V30 49 1 46 23
M  V30 50 1 47 25
M  V30 51 1 48 26
M  V30 52 1 49 29
M  V30 53 1 50 29
M  V30 54 1 51 29
M  V30 55 1 52 30
M  V30 56 1 53 7
M  V30 END BOND
M  V30 END CTAB
M  END
>  <b_m_subgroup_collapsed>  (2169) 
0

>  <r_i_docking_score>  (2169) 
-6.1175923617990398

>  <s_m_subgroup_title>  (2169) 
glide-dock_SP_D22_pv

>  <s_m_subgroupid>  (2169) 
glide-dock_SP_D22_pv

>  <Molecule ChEMBL ID>  (2169) 
CHEMBL4465638

>  <Standard Type>  (2169) 
Ki

>  <Standard Value>  (2169) 
10000.0

>  <label>  (2169) 
0

$$$$
CHEMBL4568693
     RDKit          3D

  0  0  0  0  0  0  0  0  0  0999 V3000
M  V30 BEGIN CTAB
M  V30 COUNTS 68 72 0 0 1
M  V30 BEGIN ATOM
M  V30 1 C 3.723340 -3.322518 -19.623232 0
M  V30 2 C 4.610977 -2.932593 -18.436516 0
M  V30 3 C 4.020567 -1.764608 -17.633078 0
M  V30 4 N 4.860994 -1.320668 -16.516056 0
M  V30 5 C 4.028847 -0.972374 -15.365481 0
M  V30 6 C 4.868266 -0.535352 -14.157272 0
M  V30 7 O 5.715477 0.549123 -14.514159 0
M  V30 8 C 6.580678 0.212677 -15.594561 0 CFG=2
M  V30 9 C 7.566329 1.315264 -15.914150 0
M  V30 10 C 8.123338 2.080181 -14.868615 0
M  V30 11 C 9.028738 3.129984 -15.146852 0
M  V30 12 O 9.547382 3.980825 -14.194798 0
M  V30 13 C 9.133381 3.819422 -12.844173 0
M  V30 14 C 9.456667 5.098749 -12.078633 0
M  V30 15 C 9.210662 4.975771 -10.566703 0
M  V30 16 C 9.579572 6.266439 -9.837121 0
M  V30 17 O 9.571117 6.063049 -8.429627 0
M  V30 18 C 10.190120 7.031683 -7.670227 0
M  V30 19 C 10.523539 8.312749 -8.163884 0
M  V30 20 C 11.206551 9.221681 -7.345022 0
M  V30 21 C 11.569736 8.881416 -6.033429 0
M  V30 22 C 11.241381 7.614320 -5.525190 0
M  V30 23 C 10.529204 6.717226 -6.337962 0
M  V30 24 N 11.659053 7.239468 -4.220216 0
M  V30 25 C 12.086257 8.115623 -3.296827 0
M  V30 26 O 12.485175 7.762602 -2.191219 0
M  V30 27 C 12.032910 9.604807 -3.664906 0
M  V30 28 C 12.336646 9.838104 -5.157949 0
M  V30 29 C 9.412370 3.356939 -16.483849 0
M  V30 30 C 8.876538 2.578719 -17.528883 0
M  V30 31 C 7.946388 1.559626 -17.254457 0
M  V30 32 O 7.413555 0.859102 -18.314573 0
M  V30 33 C 6.697831 -0.341473 -18.021608 0
M  V30 34 C 5.736040 -0.173541 -16.827576 0 CFG=1
M  V30 35 H 4.138247 -4.178052 -20.155706 0
M  V30 36 H 2.722323 -3.596524 -19.286724 0
M  V30 37 H 3.631635 -2.499056 -20.331821 0
M  V30 38 H 5.613035 -2.706497 -18.793879 0
M  V30 39 H 4.716207 -3.794483 -17.775047 0
M  V30 40 H 3.058487 -2.111697 -17.253309 0
M  V30 41 H 3.785015 -0.921753 -18.287088 0
M  V30 42 H 3.416754 -1.827607 -15.079214 0
M  V30 43 H 3.334224 -0.177781 -15.635060 0
M  V30 44 H 5.475754 -1.372255 -13.804859 0
M  V30 45 H 4.217992 -0.227472 -13.338006 0
M  V30 46 H 7.196895 -0.630254 -15.286895 0
M  V30 47 H 7.825472 1.844879 -13.858159 0
M  V30 48 H 9.667368 2.972516 -12.407007 0
M  V30 49 H 8.061066 3.652566 -12.760869 0
M  V30 50 H 8.859145 5.920372 -12.477116 0
M  V30 51 H 10.496536 5.363315 -12.253778 0
M  V30 52 H 9.812439 4.162104 -10.165279 0
M  V30 53 H 8.168029 4.724436 -10.367261 0
M  V30 54 H 8.885587 7.062862 -10.107283 0
M  V30 55 H 10.576311 6.570239 -10.161809 0
M  V30 56 H 10.272042 8.625201 -9.167762 0
M  V30 57 H 11.462593 10.173839 -7.751967 0
M  V30 58 H 10.249266 5.772378 -5.933735 0
M  V30 59 H 11.604727 6.262229 -3.968762 0
M  V30 60 H 11.031156 9.966858 -3.429802 0
M  V30 61 H 12.725396 10.171288 -3.043668 0
M  V30 62 H 13.397527 9.710262 -5.350939 0
M  V30 63 H 12.073886 10.854524 -5.447574 0
M  V30 64 H 10.106976 4.152192 -16.713903 0
M  V30 65 H 9.175280 2.777278 -18.548380 0
M  V30 66 H 7.405291 -1.152507 -17.839266 0
M  V30 67 H 6.147671 -0.588914 -18.926617 0
M  V30 68 H 5.097543 0.678708 -17.057728 0
M  V30 END ATOM
M  V30 BEGIN BOND
M  V30 1 1 2 1
M  V30 2 1 3 2
M  V30 3 1 4 3
M  V30 4 1 5 4
M  V30 5 1 6 5
M  V30 6 1 7 6
M  V30 7 1 8 7
M  V30 8 1 9 8
M  V30 9 1 10 9
M  V30 10 2 11 10
M  V30 11 1 12 11
M  V30 12 1 13 12
M  V30 13 1 14 13
M  V30 14 1 15 14
M  V30 15 1 16 15
M  V30 16 1 17 16
M  V30 17 1 18 17
M  V30 18 1 19 18
M  V30 19 2 20 19
M  V30 20 1 21 20
M  V30 21 2 22 21
M  V30 22 2 23 18
M  V30 23 1 23 22
M  V30 24 1 24 22
M  V30 25 1 25 24
M  V30 26 2 26 25
M  V30 27 1 27 25
M  V30 28 1 28 21
M  V30 29 1 28 27
M  V30 30 1 29 11
M  V30 31 2 30 29
M  V30 32 2 31 9
M  V30 33 1 31 30
M  V30 34 1 32 31
M  V30 35 1 33 32
M  V30 36 1 34 4
M  V30 37 1 34 8
M  V30 38 1 34 33
M  V30 39 1 35 1
M  V30 40 1 36 1
M  V30 41 1 37 1
M  V30 42 1 38 2
M  V30 43 1 39 2
M  V30 44 1 40 3
M  V30 45 1 41 3
M  V30 46 1 42 5
M  V30 47 1 43 5
M  V30 48 1 44 6
M  V30 49 1 45 6
M  V30 50 1 8 46 CFG=1
M  V30 51 1 47 10
M  V30 52 1 48 13
M  V30 53 1 49 13
M  V30 54 1 50 14
M  V30 55 1 51 14
M  V30 56 1 52 15
M  V30 57 1 53 15
M  V30 58 1 54 16
M  V30 59 1 55 16
M  V30 60 1 56 19
M  V30 61 1 57 20
M  V30 62 1 58 23
M  V30 63 1 59 24
M  V30 64 1 60 27
M  V30 65 1 61 27
M  V30 66 1 62 28
M  V30 67 1 63 28
M  V30 68 1 64 29
M  V30 69 1 65 30
M  V30 70 1 66 33
M  V30 71 1 67 33
M  V30 72 1 34 68 CFG=3
M  V30 END BOND
M  V30 END CTAB
M  END
>  <b_m_subgroup_collapsed>  (2170) 
0

>  <r_i_docking_score>  (2170) 
-6.1131847072022696

>  <s_m_subgroup_title>  (2170) 
glide-dock_SP_D22_pv

>  <s_m_subgroupid>  (2170) 
glide-dock_SP_D22_pv

>  <Molecule ChEMBL ID>  (2170) 
CHEMBL4568693

>  <Standard Type>  (2170) 
Ki

>  <Standard Value>  (2170) 
10100.0

>  <label>  (2170) 
0

$$$$
CHEMBL201177
     RDKit          3D

  0  0  0  0  0  0  0  0  0  0999 V3000
M  V30 BEGIN CTAB
M  V30 COUNTS 48 51 0 0 1
M  V30 BEGIN ATOM
M  V30 1 C 9.319941 -0.142574 -19.566879 0
M  V30 2 N 10.097697 0.062293 -18.323561 0 CFG=2 CHG=1
M  V30 3 C 11.563849 0.036096 -18.548059 0
M  V30 4 C 12.172653 1.437772 -18.446619 0
M  V30 5 C 12.179585 2.060770 -17.033031 0
M  V30 6 C 10.951519 2.929668 -16.652021 0 CFG=2
M  V30 7 C 11.446651 4.225866 -16.016453 0
M  V30 8 C 11.585522 5.387672 -16.807280 0
M  V30 9 C 12.086293 6.575086 -16.242579 0
M  V30 10 C 12.439095 6.614299 -14.881531 0
M  V30 11 C 12.294880 5.461117 -14.088369 0
M  V30 12 C 11.811866 4.266782 -14.653128 0
M  V30 13 C 9.821250 2.307808 -15.841889 0
M  V30 14 N 8.886104 3.166898 -15.278610 0
M  V30 15 C 7.867558 2.491103 -14.646909 0
M  V30 16 C 6.715024 2.926395 -13.965139 0
M  V30 17 C 5.817919 1.973357 -13.446857 0
M  V30 18 C 6.085914 0.601122 -13.616330 0
M  V30 19 C 7.253072 0.180563 -14.286757 0
M  V30 20 C 8.178369 1.115516 -14.815188 0
M  V30 21 C 9.429148 1.016257 -15.530352 0
M  V30 22 C 10.083460 -0.292895 -15.854407 0
M  V30 23 C 9.669795 -0.836428 -17.229801 0
M  V30 24 H 9.471275 -1.147711 -19.963873 0
M  V30 25 H 9.618367 0.577016 -20.330526 0
M  V30 26 H 8.253313 -0.004990 -19.384600 0
M  V30 27 H 12.071516 -0.625900 -17.845795 0
M  V30 28 H 11.783200 -0.381516 -19.532339 0
M  V30 29 H 13.211810 1.349777 -18.767673 0
M  V30 30 H 11.710928 2.112985 -19.168190 0
M  V30 31 H 12.471484 1.371709 -16.247622 0
M  V30 32 H 13.034241 2.738983 -17.075819 0
M  V30 33 H 10.492357 3.240138 -17.591192 0
M  V30 34 H 11.323216 5.372894 -17.855064 0
M  V30 35 H 12.198219 7.459243 -16.853350 0
M  V30 36 H 12.823467 7.525328 -14.447043 0
M  V30 37 H 12.575023 5.490065 -13.047152 0
M  V30 38 H 11.721364 3.382910 -14.038377 0
M  V30 39 H 8.982722 4.171812 -15.327638 0
M  V30 40 H 6.513467 3.981056 -13.847355 0
M  V30 41 H 4.926353 2.293830 -12.927084 0
M  V30 42 H 5.397550 -0.134205 -13.228605 0
M  V30 43 H 7.431891 -0.877037 -14.408605 0
M  V30 44 H 11.161901 -0.227508 -15.751730 0
M  V30 45 H 9.792253 -1.026260 -15.103979 0
M  V30 46 H 8.584199 -0.947954 -17.246351 0
M  V30 47 H 10.085757 -1.830141 -17.391335 0
M  V30 48 H 9.873096 0.992929 -17.999643 0
M  V30 END ATOM
M  V30 BEGIN BOND
M  V30 1 1 2 1
M  V30 2 1 3 2
M  V30 3 1 4 3
M  V30 4 1 5 4
M  V30 5 1 6 5
M  V30 6 1 7 6
M  V30 7 2 8 7
M  V30 8 1 9 8
M  V30 9 2 10 9
M  V30 10 1 11 10
M  V30 11 1 12 7
M  V30 12 2 12 11
M  V30 13 1 13 6
M  V30 14 1 14 13
M  V30 15 1 15 14
M  V30 16 2 16 15
M  V30 17 1 17 16
M  V30 18 2 18 17
M  V30 19 1 19 18
M  V30 20 1 20 15
M  V30 21 2 20 19
M  V30 22 2 21 13
M  V30 23 1 21 20
M  V30 24 1 22 21
M  V30 25 1 23 2
M  V30 26 1 23 22
M  V30 27 1 24 1
M  V30 28 1 25 1
M  V30 29 1 26 1
M  V30 30 1 27 3
M  V30 31 1 28 3
M  V30 32 1 29 4
M  V30 33 1 30 4
M  V30 34 1 31 5
M  V30 35 1 32 5
M  V30 36 1 6 33 CFG=3
M  V30 37 1 34 8
M  V30 38 1 35 9
M  V30 39 1 36 10
M  V30 40 1 37 11
M  V30 41 1 38 12
M  V30 42 1 39 14
M  V30 43 1 40 16
M  V30 44 1 41 17
M  V30 45 1 42 18
M  V30 46 1 43 19
M  V30 47 1 44 22
M  V30 48 1 45 22
M  V30 49 1 46 23
M  V30 50 1 47 23
M  V30 51 1 2 48 CFG=1
M  V30 END BOND
M  V30 END CTAB
M  END
>  <b_m_subgroup_collapsed>  (2171) 
0

>  <r_i_docking_score>  (2171) 
-6.1111627745253001

>  <s_m_subgroup_title>  (2171) 
glide-dock_SP_D22_pv

>  <s_m_subgroupid>  (2171) 
glide-dock_SP_D22_pv

>  <Molecule ChEMBL ID>  (2171) 
CHEMBL201177

>  <Standard Type>  (2171) 
Ki

>  <Standard Value>  (2171) 
10000.0

>  <label>  (2171) 
0

$$$$
CHEMBL3187365
     RDKit          3D

  0  0  0  0  0  0  0  0  0  0999 V3000
M  V30 BEGIN CTAB
M  V30 COUNTS 37 40 0 0 1
M  V30 BEGIN ATOM
M  V30 1 C 5.776857 3.648529 -12.655424 0
M  V30 2 N 6.820155 4.677476 -12.869922 0 CFG=1 CHG=1
M  V30 3 C 7.235542 5.406370 -11.657550 0
M  V30 4 C 8.612463 5.973102 -12.017291 0 CFG=1
M  V30 5 C 9.500030 6.531322 -10.916849 0
M  V30 6 C 9.198230 6.421629 -9.540330 0
M  V30 7 C 10.057709 6.994187 -8.580756 0
M  V30 8 C 11.220546 7.675726 -8.988647 0
M  V30 9 C 11.532257 7.772194 -10.357871 0
M  V30 10 C 10.677839 7.191306 -11.317292 0
M  V30 11 O 10.957053 7.349392 -12.646787 0
M  V30 12 C 11.286298 6.276127 -13.446508 0
M  V30 13 C 12.411260 6.464206 -14.273479 0
M  V30 14 C 12.764739 5.513898 -15.245991 0
M  V30 15 C 11.993532 4.349360 -15.394202 0
M  V30 16 Cl 12.364077 3.222993 -16.646257 0
M  V30 17 C 10.894592 4.125483 -14.545490 0
M  V30 18 C 10.506250 5.087635 -13.583679 0
M  V30 19 C 9.243471 4.804829 -12.764895 0 CFG=2
M  V30 20 C 8.054781 4.233290 -13.567151 0
M  V30 21 H 6.100363 2.866575 -11.968188 0
M  V30 22 H 5.492365 3.185930 -13.601663 0
M  V30 23 H 4.886606 4.112877 -12.230590 0
M  V30 24 H 6.494239 6.170942 -11.446649 0
M  V30 25 H 7.289908 4.712168 -10.818148 0
M  V30 26 H 8.436237 6.787955 -12.723300 0
M  V30 27 H 8.294525 5.935362 -9.202953 0
M  V30 28 H 9.812999 6.923007 -7.530711 0
M  V30 29 H 11.871216 8.127414 -8.253016 0
M  V30 30 H 12.417588 8.305222 -10.671278 0
M  V30 31 H 12.993196 7.369524 -14.181955 0
M  V30 32 H 13.614538 5.688491 -15.890049 0
M  V30 33 H 10.322446 3.219469 -14.673383 0
M  V30 34 H 9.525466 4.057467 -12.019860 0
M  V30 35 H 8.117444 3.145570 -13.657727 0
M  V30 36 H 8.034955 4.652957 -14.574703 0
M  V30 37 H 6.403494 5.378089 -13.469879 0
M  V30 END ATOM
M  V30 BEGIN BOND
M  V30 1 1 2 1
M  V30 2 1 3 2
M  V30 3 1 4 3
M  V30 4 1 5 4
M  V30 5 2 6 5
M  V30 6 1 7 6
M  V30 7 2 8 7
M  V30 8 1 9 8
M  V30 9 1 10 5
M  V30 10 2 10 9
M  V30 11 1 11 10
M  V30 12 1 12 11
M  V30 13 1 13 12
M  V30 14 2 14 13
M  V30 15 1 15 14
M  V30 16 1 16 15
M  V30 17 2 17 15
M  V30 18 2 18 12
M  V30 19 1 18 17
M  V30 20 1 19 4
M  V30 21 1 19 18
M  V30 22 1 20 2
M  V30 23 1 20 19
M  V30 24 1 21 1
M  V30 25 1 22 1
M  V30 26 1 23 1
M  V30 27 1 24 3
M  V30 28 1 25 3
M  V30 29 1 4 26 CFG=3
M  V30 30 1 27 6
M  V30 31 1 28 7
M  V30 32 1 29 8
M  V30 33 1 30 9
M  V30 34 1 31 13
M  V30 35 1 32 14
M  V30 36 1 33 17
M  V30 37 1 19 34 CFG=1
M  V30 38 1 35 20
M  V30 39 1 36 20
M  V30 40 1 2 37 CFG=3
M  V30 END BOND
M  V30 END CTAB
M  END
>  <b_m_subgroup_collapsed>  (2172) 
0

>  <r_i_docking_score>  (2172) 
-6.1093263551631001

>  <s_m_subgroup_title>  (2172) 
glide-dock_SP_D22_pv

>  <s_m_subgroupid>  (2172) 
glide-dock_SP_D22_pv

>  <Molecule ChEMBL ID>  (2172) 
CHEMBL3187365

>  <Standard Type>  (2172) 
Ki

>  <Standard Value>  (2172) 
8.9

>  <label>  (2172) 
1

$$$$
CHEMBL126331
     RDKit          3D

  0  0  0  0  0  0  0  0  0  0999 V3000
M  V30 BEGIN CTAB
M  V30 COUNTS 69 72 0 0 1
M  V30 BEGIN ATOM
M  V30 1 C 11.477042 6.747865 -3.898271 0
M  V30 2 O 11.444942 7.999751 -4.581619 0
M  V30 3 C 11.109123 7.963974 -5.915554 0
M  V30 4 C 11.581770 8.993755 -6.754915 0
M  V30 5 C 11.320389 8.967972 -8.141060 0
M  V30 6 C 10.609138 7.895359 -8.707192 0
M  V30 7 C 10.399853 7.832035 -10.099811 0
M  V30 8 C 9.683677 6.753408 -10.660204 0
M  V30 9 C 9.392509 6.735476 -12.152945 0 CFG=2
M  V30 10 C 7.914056 7.056438 -12.406683 0
M  V30 11 C 9.811421 5.408870 -12.808966 0
M  V30 12 O 9.078645 4.420603 -12.754729 0
M  V30 13 N 10.990951 5.403930 -13.450812 0
M  V30 14 C 11.528811 4.260917 -14.177201 0
M  V30 15 C 10.906526 4.154668 -15.583577 0
M  V30 16 C 11.323870 2.868181 -16.334183 0
M  V30 17 N 10.334339 1.788680 -16.317709 0
M  V30 18 C 9.992908 1.353882 -14.959226 0
M  V30 19 C 9.119794 0.089857 -15.022640 0
M  V30 20 N 7.940710 0.327779 -15.846438 0
M  V30 21 C 6.637637 0.167335 -15.331036 0
M  V30 22 C 6.352614 0.644715 -14.033898 0
M  V30 23 C 5.073639 0.497795 -13.475569 0
M  V30 24 C 4.057534 -0.138426 -14.211666 0
M  V30 25 C 4.331399 -0.627507 -15.500882 0
M  V30 26 C 5.618805 -0.483247 -16.079912 0
M  V30 27 O 5.933542 -0.975194 -17.332371 0
M  V30 28 C 4.965889 -1.766487 -18.008945 0
M  V30 29 C 8.192975 0.880909 -17.171242 0
M  V30 30 C 9.109723 2.118247 -17.060127 0
M  V30 31 C 9.165972 5.747627 -9.814179 0
M  V30 32 C 9.369886 5.809223 -8.425438 0
M  V30 33 C 10.098221 6.877888 -7.869550 0
M  V30 34 C 10.324068 6.935937 -6.483398 0
M  V30 35 H 11.919849 6.889397 -2.912821 0
M  V30 36 H 10.488734 6.308481 -3.758619 0
M  V30 37 H 12.085125 6.025028 -4.437554 0
M  V30 38 H 12.164009 9.802257 -6.334362 0
M  V30 39 H 11.685743 9.760636 -8.778759 0
M  V30 40 H 10.776550 8.624909 -10.730778 0
M  V30 41 H 9.978820 7.527096 -12.620321 0
M  V30 42 H 7.255403 6.388322 -11.851908 0
M  V30 43 H 7.686632 8.079380 -12.107217 0
M  V30 44 H 7.666758 6.967709 -13.456010 0
M  V30 45 H 11.536838 6.253319 -13.454612 0
M  V30 46 H 11.349290 3.349159 -13.604446 0
M  V30 47 H 12.610350 4.369186 -14.250005 0
M  V30 48 H 11.236762 5.017146 -16.167046 0
M  V30 49 H 9.822332 4.246436 -15.523952 0
M  V30 50 H 12.266906 2.490436 -15.935179 0
M  V30 51 H 11.521976 3.113082 -17.378798 0
M  V30 52 H 9.462232 2.141198 -14.422828 0
M  V30 53 H 10.901610 1.137305 -14.398294 0
M  V30 54 H 8.844941 -0.223567 -14.019859 0
M  V30 55 H 9.686978 -0.729813 -15.462623 0
M  V30 56 H 7.118248 1.148991 -13.459288 0
M  V30 57 H 4.885998 0.882067 -12.482182 0
M  V30 58 H 3.066145 -0.251185 -13.793797 0
M  V30 59 H 3.526949 -1.115629 -16.028782 0
M  V30 60 H 5.396243 -2.133155 -18.940369 0
M  V30 61 H 4.674545 -2.637829 -17.420071 0
M  V30 62 H 4.078056 -1.184756 -18.261250 0
M  V30 63 H 8.656981 0.112411 -17.790554 0
M  V30 64 H 7.258502 1.163110 -17.654339 0
M  V30 65 H 8.568393 2.921913 -16.561392 0
M  V30 66 H 9.370498 2.472224 -18.057734 0
M  V30 67 H 8.586409 4.933306 -10.224122 0
M  V30 68 H 8.961300 5.028539 -7.803354 0
M  V30 69 H 9.897265 6.171364 -5.856581 0
M  V30 END ATOM
M  V30 BEGIN BOND
M  V30 1 1 2 1
M  V30 2 1 3 2
M  V30 3 1 4 3
M  V30 4 2 5 4
M  V30 5 1 6 5
M  V30 6 2 7 6
M  V30 7 1 8 7
M  V30 8 1 9 8
M  V30 9 1 10 9
M  V30 10 1 11 9
M  V30 11 2 12 11
M  V30 12 1 13 11
M  V30 13 1 14 13
M  V30 14 1 15 14
M  V30 15 1 16 15
M  V30 16 1 17 16
M  V30 17 1 18 17
M  V30 18 1 19 18
M  V30 19 1 20 19
M  V30 20 1 21 20
M  V30 21 2 22 21
M  V30 22 1 23 22
M  V30 23 2 24 23
M  V30 24 1 25 24
M  V30 25 1 26 21
M  V30 26 2 26 25
M  V30 27 1 27 26
M  V30 28 1 28 27
M  V30 29 1 29 20
M  V30 30 1 30 17
M  V30 31 1 30 29
M  V30 32 2 31 8
M  V30 33 1 32 31
M  V30 34 1 33 6
M  V30 35 2 33 32
M  V30 36 2 34 3
M  V30 37 1 34 33
M  V30 38 1 35 1
M  V30 39 1 36 1
M  V30 40 1 37 1
M  V30 41 1 38 4
M  V30 42 1 39 5
M  V30 43 1 40 7
M  V30 44 1 9 41 CFG=3
M  V30 45 1 42 10
M  V30 46 1 43 10
M  V30 47 1 44 10
M  V30 48 1 45 13
M  V30 49 1 46 14
M  V30 50 1 47 14
M  V30 51 1 48 15
M  V30 52 1 49 15
M  V30 53 1 50 16
M  V30 54 1 51 16
M  V30 55 1 52 18
M  V30 56 1 53 18
M  V30 57 1 54 19
M  V30 58 1 55 19
M  V30 59 1 56 22
M  V30 60 1 57 23
M  V30 61 1 58 24
M  V30 62 1 59 25
M  V30 63 1 60 28
M  V30 64 1 61 28
M  V30 65 1 62 28
M  V30 66 1 63 29
M  V30 67 1 64 29
M  V30 68 1 65 30
M  V30 69 1 66 30
M  V30 70 1 67 31
M  V30 71 1 68 32
M  V30 72 1 69 34
M  V30 END BOND
M  V30 END CTAB
M  END
>  <b_m_subgroup_collapsed>  (2173) 
0

>  <r_i_docking_score>  (2173) 
-6.1058726465538102

>  <s_m_subgroup_title>  (2173) 
glide-dock_SP_D22_pv

>  <s_m_subgroupid>  (2173) 
glide-dock_SP_D22_pv

>  <Molecule ChEMBL ID>  (2173) 
CHEMBL126331

>  <Standard Type>  (2173) 
Ki

>  <Standard Value>  (2173) 
94.6

>  <label>  (2173) 
1

$$$$
CHEMBL5273758
     RDKit          3D

  0  0  0  0  0  0  0  0  0  0999 V3000
M  V30 BEGIN CTAB
M  V30 COUNTS 43 46 0 0 1
M  V30 BEGIN ATOM
M  V30 1 C 6.453783 6.087342 -12.495994 0
M  V30 2 N 7.050879 4.852490 -11.941955 0 CFG=1 CHG=1
M  V30 3 C 6.064022 3.741299 -11.845311 0
M  V30 4 C 5.690209 3.084457 -13.201064 0
M  V30 5 C 6.841701 2.864439 -14.214106 0 CFG=2
M  V30 6 C 7.305608 1.439875 -14.479425 0
M  V30 7 C 8.577061 1.128202 -14.806462 0
M  V30 8 O 8.890100 -0.138323 -15.112065 0
M  V30 9 C 9.633283 2.136223 -14.782248 0
M  V30 10 O 10.898365 1.764743 -15.010807 0
M  V30 11 C 9.360191 3.401156 -14.406505 0
M  V30 12 C 10.348874 4.422097 -13.850761 0 CFG=1
M  V30 13 C 11.088759 5.297303 -14.851760 0
M  V30 14 C 10.807638 5.258770 -16.237759 0
M  V30 15 C 11.518450 6.085074 -17.130043 0
M  V30 16 C 12.511406 6.956963 -16.647827 0
M  V30 17 C 12.798289 6.997151 -15.270873 0
M  V30 18 C 12.088083 6.171375 -14.378431 0
M  V30 19 C 9.505859 5.222197 -12.812084 0
M  V30 20 C 8.263662 4.332776 -12.619605 0 CFG=2
M  V30 21 C 7.985588 3.875627 -14.039106 0 CFG=2
M  V30 22 H 5.974693 5.885173 -13.446054 0
M  V30 23 H 7.181665 6.892113 -12.608935 0
M  V30 24 H 5.663534 6.462578 -11.846024 0
M  V30 25 H 6.473256 2.992369 -11.169548 0
M  V30 26 H 5.149043 4.114799 -11.388320 0
M  V30 27 H 5.153474 2.153541 -13.026065 0
M  V30 28 H 4.963438 3.741964 -13.677430 0
M  V30 29 H 6.391369 3.077649 -15.180398 0
M  V30 30 H 6.541288 0.675516 -14.490154 0
M  V30 31 H 8.105992 -0.666883 -15.060321 0
M  V30 32 H 11.443035 2.533516 -14.933569 0
M  V30 33 H 11.105751 3.858071 -13.304586 0
M  V30 34 H 10.046079 4.604301 -16.631687 0
M  V30 35 H 11.298078 6.050938 -18.186090 0
M  V30 36 H 13.053755 7.594454 -17.330879 0
M  V30 37 H 13.561780 7.659502 -14.895227 0
M  V30 38 H 12.318992 6.214208 -13.323393 0
M  V30 39 H 10.045386 5.426121 -11.886342 0
M  V30 40 H 9.210101 6.175188 -13.244763 0
M  V30 41 H 8.609362 3.484220 -12.028222 0
M  V30 42 H 7.764907 4.754941 -14.646143 0
M  V30 43 H 7.308213 5.091218 -10.992107 0
M  V30 END ATOM
M  V30 BEGIN BOND
M  V30 1 1 2 1
M  V30 2 1 3 2
M  V30 3 1 4 3
M  V30 4 1 5 4
M  V30 5 1 6 5
M  V30 6 2 7 6
M  V30 7 1 8 7
M  V30 8 1 9 7
M  V30 9 1 10 9
M  V30 10 2 11 9
M  V30 11 1 12 11
M  V30 12 1 13 12
M  V30 13 2 14 13
M  V30 14 1 15 14
M  V30 15 2 16 15
M  V30 16 1 17 16
M  V30 17 1 18 13
M  V30 18 2 18 17
M  V30 19 1 19 12
M  V30 20 1 20 2
M  V30 21 1 20 19
M  V30 22 1 21 5
M  V30 23 1 21 11
M  V30 24 1 21 20
M  V30 25 1 22 1
M  V30 26 1 23 1
M  V30 27 1 24 1
M  V30 28 1 25 3
M  V30 29 1 26 3
M  V30 30 1 27 4
M  V30 31 1 28 4
M  V30 32 1 5 29 CFG=3
M  V30 33 1 30 6
M  V30 34 1 31 8
M  V30 35 1 32 10
M  V30 36 1 12 33 CFG=1
M  V30 37 1 34 14
M  V30 38 1 35 15
M  V30 39 1 36 16
M  V30 40 1 37 17
M  V30 41 1 38 18
M  V30 42 1 39 19
M  V30 43 1 40 19
M  V30 44 1 20 41 CFG=1
M  V30 45 1 21 42 CFG=3
M  V30 46 1 2 43 CFG=1
M  V30 END BOND
M  V30 END CTAB
M  END
>  <b_m_subgroup_collapsed>  (2174) 
0

>  <r_i_docking_score>  (2174) 
-6.1032164583926001

>  <s_m_subgroup_title>  (2174) 
glide-dock_SP_D22_pv

>  <s_m_subgroupid>  (2174) 
glide-dock_SP_D22_pv

>  <Molecule ChEMBL ID>  (2174) 
CHEMBL5273758

>  <Standard Type>  (2174) 
Ki

>  <Standard Value>  (2174) 
12.88

>  <label>  (2174) 
1

$$$$
CHEMBL455318
     RDKit          3D

  0  0  0  0  0  0  0  0  0  0999 V3000
M  V30 BEGIN CTAB
M  V30 COUNTS 94 101 0 0 1
M  V30 BEGIN ATOM
M  V30 1 C 4.586092 -7.642901 -17.045359 0
M  V30 2 C 4.363913 -6.467216 -17.999441 0
M  V30 3 C 5.134350 -5.204672 -17.566841 0
M  V30 4 N 4.767026 -3.976746 -18.336432 0 CFG=2 CHG=1
M  V30 5 C 5.083953 -4.113511 -19.774122 0
M  V30 6 C 4.549966 -2.917902 -20.543913 0
M  V30 7 C 5.120797 -1.596407 -20.079229 0
M  V30 8 C 5.287194 -0.465948 -20.891750 0
M  V30 9 C 5.739041 0.737295 -20.331720 0
M  V30 10 C 5.985755 0.817845 -18.948797 0
M  V30 11 C 5.817109 -0.277171 -18.070654 0
M  V30 12 C 5.419465 -1.492378 -18.695448 0
M  V30 13 C 5.351100 -2.723752 -17.759258 0 CFG=1
M  V30 14 C 4.673387 -2.336975 -16.434832 0
M  V30 15 C 5.326665 -1.129613 -15.802990 0
M  V30 16 C 5.330585 -1.027358 -14.407467 0
M  V30 17 C 5.894568 0.088959 -13.776129 0
M  V30 18 C 6.460593 1.124280 -14.549231 0
M  V30 19 O 6.902339 2.281588 -13.946002 0
M  V30 20 C 6.085263 2.972283 -13.099700 0
M  V30 21 O 4.864604 2.880328 -13.046785 0
M  V30 22 C 6.844639 3.805733 -12.077769 0
M  V30 23 C 6.525271 5.308881 -12.126001 0
M  V30 24 C 7.761455 6.171042 -12.357981 0
M  V30 25 O 7.686088 7.187176 -13.042189 0
M  V30 26 O 8.877146 5.702756 -11.745447 0
M  V30 27 C 10.074161 6.347007 -11.925897 0
M  V30 28 C 10.485849 7.254947 -10.928155 0
M  V30 29 C 11.708964 7.936810 -11.046634 0
M  V30 30 C 12.486045 7.772146 -12.206779 0
M  V30 31 C 12.069232 6.876731 -13.217865 0
M  V30 32 C 10.915071 6.081089 -13.046850 0
M  V30 33 C 10.663856 5.020052 -14.048423 0
M  V30 34 C 10.101256 3.766892 -13.709259 0
M  V30 35 C 9.839923 2.764516 -14.662179 0
M  V30 36 C 10.124681 2.989663 -16.016191 0
M  V30 37 C 10.760653 4.181860 -16.406858 0
M  V30 38 C 11.080200 5.131558 -15.397508 0
M  V30 39 C 11.969045 6.352594 -15.708073 0 CFG=1
M  V30 40 C 12.855880 6.749203 -14.507358 0
M  V30 41 N 12.736535 6.225172 -16.979397 0 CFG=1 CHG=1
M  V30 42 C 13.914074 5.303229 -16.947094 0
M  V30 43 C 15.253254 6.032948 -16.744326 0
M  V30 44 C 15.610701 6.972607 -17.903612 0
M  V30 45 C 11.787571 5.893286 -18.060450 0
M  V30 46 C 11.204620 4.490566 -17.835436 0
M  V30 47 C 6.537949 0.971848 -15.954067 0
M  V30 48 C 5.930085 -0.138054 -16.601837 0
M  V30 49 H 4.066802 -8.532191 -17.399355 0
M  V30 50 H 4.207566 -7.412705 -16.049189 0
M  V30 51 H 5.645467 -7.891185 -16.953341 0
M  V30 52 H 4.667529 -6.788086 -18.996210 0
M  V30 53 H 3.296126 -6.249464 -18.051935 0
M  V30 54 H 4.922529 -5.060784 -16.510834 0
M  V30 55 H 6.208649 -5.378485 -17.642078 0
M  V30 56 H 6.162341 -4.209287 -19.915228 0
M  V30 57 H 4.623202 -5.003555 -20.201340 0
M  V30 58 H 4.771105 -3.036305 -21.606781 0
M  V30 59 H 3.463001 -2.869592 -20.464029 0
M  V30 60 H 5.048533 -0.515008 -21.945940 0
M  V30 61 H 5.865146 1.608848 -20.957842 0
M  V30 62 H 6.278193 1.771956 -18.545986 0
M  V30 63 H 6.393917 -2.953892 -17.525742 0
M  V30 64 H 3.616731 -2.115956 -16.600849 0
M  V30 65 H 4.711742 -3.146562 -15.711803 0
M  V30 66 H 4.877010 -1.825641 -13.846841 0
M  V30 67 H 5.856521 0.168739 -12.700064 0
M  V30 68 H 6.598883 3.421618 -11.087589 0
M  V30 69 H 7.900581 3.618303 -12.213416 0
M  V30 70 H 5.796649 5.531056 -12.905909 0
M  V30 71 H 6.073557 5.629041 -11.188046 0
M  V30 72 H 9.858398 7.422790 -10.065242 0
M  V30 73 H 12.026109 8.624435 -10.276475 0
M  V30 74 H 13.395259 8.340991 -12.327518 0
M  V30 75 H 9.887124 3.547646 -12.674987 0
M  V30 76 H 9.412610 1.822673 -14.349322 0
M  V30 77 H 9.902155 2.224342 -16.746712 0
M  V30 78 H 11.285833 7.186259 -15.850592 0
M  V30 79 H 13.392762 7.677197 -14.709821 0
M  V30 80 H 13.585332 5.962501 -14.343308 0
M  V30 81 H 13.774163 4.537293 -16.183395 0
M  V30 82 H 13.993824 4.761750 -17.889980 0
M  V30 83 H 15.276590 6.573383 -15.799747 0
M  V30 84 H 16.039516 5.282355 -16.657024 0
M  V30 85 H 16.621244 7.368303 -17.790089 0
M  V30 86 H 14.931154 7.822647 -17.957809 0
M  V30 87 H 15.574745 6.454259 -18.862667 0
M  V30 88 H 10.983685 6.629676 -18.074400 0
M  V30 89 H 12.275023 5.956648 -19.033798 0
M  V30 90 H 11.929749 3.727611 -18.124277 0
M  V30 91 H 10.348031 4.346585 -18.496052 0
M  V30 92 H 6.991803 1.765921 -16.528193 0
M  V30 93 H 3.762286 -3.883974 -18.249140 0
M  V30 94 H 13.103441 7.142714 -17.193253 0
M  V30 END ATOM
M  V30 BEGIN BOND
M  V30 1 1 2 1
M  V30 2 1 3 2
M  V30 3 1 4 3
M  V30 4 1 5 4
M  V30 5 1 6 5
M  V30 6 1 7 6
M  V30 7 1 8 7
M  V30 8 2 9 8
M  V30 9 1 10 9
M  V30 10 2 11 10
M  V30 11 2 12 7
M  V30 12 1 12 11
M  V30 13 1 13 4
M  V30 14 1 13 12
M  V30 15 1 14 13
M  V30 16 1 15 14
M  V30 17 2 16 15
M  V30 18 1 17 16
M  V30 19 2 18 17
M  V30 20 1 19 18
M  V30 21 1 20 19
M  V30 22 2 21 20
M  V30 23 1 22 20
M  V30 24 1 23 22
M  V30 25 1 24 23
M  V30 26 2 25 24
M  V30 27 1 26 24
M  V30 28 1 27 26
M  V30 29 2 28 27
M  V30 30 1 29 28
M  V30 31 2 30 29
M  V30 32 1 31 30
M  V30 33 1 32 27
M  V30 34 2 32 31
M  V30 35 1 33 32
M  V30 36 2 34 33
M  V30 37 1 35 34
M  V30 38 2 36 35
M  V30 39 1 37 36
M  V30 40 1 38 33
M  V30 41 2 38 37
M  V30 42 1 39 38
M  V30 43 1 40 31
M  V30 44 1 40 39
M  V30 45 1 41 39
M  V30 46 1 42 41
M  V30 47 1 43 42
M  V30 48 1 44 43
M  V30 49 1 45 41
M  V30 50 1 46 37
M  V30 51 1 46 45
M  V30 52 1 47 18
M  V30 53 1 48 11
M  V30 54 1 48 15
M  V30 55 2 48 47
M  V30 56 1 49 1
M  V30 57 1 50 1
M  V30 58 1 51 1
M  V30 59 1 52 2
M  V30 60 1 53 2
M  V30 61 1 54 3
M  V30 62 1 55 3
M  V30 63 1 56 5
M  V30 64 1 57 5
M  V30 65 1 58 6
M  V30 66 1 59 6
M  V30 67 1 60 8
M  V30 68 1 61 9
M  V30 69 1 62 10
M  V30 70 1 13 63 CFG=1
M  V30 71 1 64 14
M  V30 72 1 65 14
M  V30 73 1 66 16
M  V30 74 1 67 17
M  V30 75 1 68 22
M  V30 76 1 69 22
M  V30 77 1 70 23
M  V30 78 1 71 23
M  V30 79 1 72 28
M  V30 80 1 73 29
M  V30 81 1 74 30
M  V30 82 1 75 34
M  V30 83 1 76 35
M  V30 84 1 77 36
M  V30 85 1 39 78 CFG=3
M  V30 86 1 79 40
M  V30 87 1 80 40
M  V30 88 1 81 42
M  V30 89 1 82 42
M  V30 90 1 83 43
M  V30 91 1 84 43
M  V30 92 1 85 44
M  V30 93 1 86 44
M  V30 94 1 87 44
M  V30 95 1 88 45
M  V30 96 1 89 45
M  V30 97 1 90 46
M  V30 98 1 91 46
M  V30 99 1 92 47
M  V30 100 1 4 93 CFG=3
M  V30 101 1 41 94 CFG=3
M  V30 END BOND
M  V30 END CTAB
M  END
>  <b_m_subgroup_collapsed>  (2175) 
0

>  <r_i_docking_score>  (2175) 
-6.1020645172272197

>  <s_m_subgroup_title>  (2175) 
glide-dock_SP_D22_pv

>  <s_m_subgroupid>  (2175) 
glide-dock_SP_D22_pv

>  <Molecule ChEMBL ID>  (2175) 
CHEMBL455318

>  <Standard Type>  (2175) 
Ki

>  <Standard Value>  (2175) 
10000.0

>  <label>  (2175) 
0

$$$$
CHEMBL212292
     RDKit          3D

  0  0  0  0  0  0  0  0  0  0999 V3000
M  V30 BEGIN CTAB
M  V30 COUNTS 51 53 0 0 1
M  V30 BEGIN ATOM
M  V30 1 C 12.637868 5.396104 -16.388754 0
M  V30 2 O 11.659392 5.036185 -15.431586 0
M  V30 3 N 11.635014 6.035476 -14.449645 0
M  V30 4 C 10.908279 5.734445 -13.446984 0
M  V30 5 C 10.182342 4.387185 -13.319762 0
M  V30 6 C 8.952415 4.235025 -14.245782 0
M  V30 7 N 8.251462 2.978784 -13.948217 0
M  V30 8 C 6.795084 3.182096 -14.011687 0
M  V30 9 C 6.020159 1.958676 -13.475545 0
M  V30 10 N 6.482215 0.739079 -14.132190 0
M  V30 11 C 5.577358 -0.018024 -14.891761 0
M  V30 12 C 5.912878 -0.503569 -16.176483 0
M  V30 13 C 4.951067 -1.229865 -16.900515 0
M  V30 14 C 3.686036 -1.427599 -16.325838 0
M  V30 15 C 3.441792 -0.906152 -15.044322 0
M  V30 16 N 4.362120 -0.226473 -14.335206 0
M  V30 17 C 7.924025 0.572505 -14.273413 0
M  V30 18 C 8.587461 1.847378 -14.840433 0 CFG=2
M  V30 19 C 10.098667 1.592877 -14.999025 0
M  V30 20 C 10.838959 6.630821 -12.257319 0
M  V30 21 C 11.980344 7.372442 -11.865659 0
M  V30 22 C 11.990119 8.105810 -10.662534 0
M  V30 23 C 10.845709 8.133691 -9.847527 0
M  V30 24 Cl 10.879964 8.972130 -8.341790 0
M  V30 25 C 9.682986 7.457310 -10.256377 0
M  V30 26 C 9.676362 6.715965 -11.454567 0
M  V30 27 H 12.679646 4.637637 -17.170326 0
M  V30 28 H 12.401012 6.351543 -16.859932 0
M  V30 29 H 13.628219 5.463261 -15.935664 0
M  V30 30 H 9.877592 4.225116 -12.285768 0
M  V30 31 H 10.913340 3.603299 -13.502051 0
M  V30 32 H 9.217575 4.295006 -15.302073 0
M  V30 33 H 8.295005 5.084333 -14.053641 0
M  V30 34 H 6.494391 3.371599 -15.044177 0
M  V30 35 H 6.507199 4.055839 -13.425241 0
M  V30 36 H 4.960129 2.122452 -13.667288 0
M  V30 37 H 6.085741 1.861322 -12.393051 0
M  V30 38 H 6.880739 -0.326488 -16.618746 0
M  V30 39 H 5.176442 -1.620239 -17.881992 0
M  V30 40 H 2.922948 -1.983285 -16.849356 0
M  V30 41 H 2.483672 -1.027702 -14.567133 0
M  V30 42 H 8.343251 0.338320 -13.298553 0
M  V30 43 H 8.163085 -0.289696 -14.894926 0
M  V30 44 H 8.182052 2.050458 -15.833000 0
M  V30 45 H 10.276521 0.713280 -15.617967 0
M  V30 46 H 10.607982 2.422713 -15.488214 0
M  V30 47 H 10.578434 1.410128 -14.037557 0
M  V30 48 H 12.883141 7.338784 -12.459552 0
M  V30 49 H 12.884768 8.626618 -10.356937 0
M  V30 50 H 8.794688 7.485533 -9.640766 0
M  V30 51 H 8.773827 6.187521 -11.727476 0
M  V30 END ATOM
M  V30 BEGIN BOND
M  V30 1 1 2 1
M  V30 2 1 3 2
M  V30 3 2 4 3
M  V30 4 1 5 4
M  V30 5 1 6 5
M  V30 6 1 7 6
M  V30 7 1 8 7
M  V30 8 1 9 8
M  V30 9 1 10 9
M  V30 10 1 11 10
M  V30 11 2 12 11
M  V30 12 1 13 12
M  V30 13 2 14 13
M  V30 14 1 15 14
M  V30 15 1 16 11
M  V30 16 2 16 15
M  V30 17 1 17 10
M  V30 18 1 18 7
M  V30 19 1 18 17
M  V30 20 1 19 18
M  V30 21 1 20 4
M  V30 22 1 21 20
M  V30 23 2 22 21
M  V30 24 1 23 22
M  V30 25 1 24 23
M  V30 26 2 25 23
M  V30 27 2 26 20
M  V30 28 1 26 25
M  V30 29 1 27 1
M  V30 30 1 28 1
M  V30 31 1 29 1
M  V30 32 1 30 5
M  V30 33 1 31 5
M  V30 34 1 32 6
M  V30 35 1 33 6
M  V30 36 1 34 8
M  V30 37 1 35 8
M  V30 38 1 36 9
M  V30 39 1 37 9
M  V30 40 1 38 12
M  V30 41 1 39 13
M  V30 42 1 40 14
M  V30 43 1 41 15
M  V30 44 1 42 17
M  V30 45 1 43 17
M  V30 46 1 18 44 CFG=3
M  V30 47 1 45 19
M  V30 48 1 46 19
M  V30 49 1 47 19
M  V30 50 1 48 21
M  V30 51 1 49 22
M  V30 52 1 50 25
M  V30 53 1 51 26
M  V30 END BOND
M  V30 END CTAB
M  END
>  <b_m_subgroup_collapsed>  (2176) 
0

>  <r_i_docking_score>  (2176) 
-6.0959925175105498

>  <s_m_subgroup_title>  (2176) 
glide-dock_SP_D22_pv

>  <s_m_subgroupid>  (2176) 
glide-dock_SP_D22_pv

>  <Molecule ChEMBL ID>  (2176) 
CHEMBL212292

>  <Standard Type>  (2176) 
Ki

>  <Standard Value>  (2176) 
76.5

>  <label>  (2176) 
1

$$$$
CHEMBL15242
     RDKit          3D

  0  0  0  0  0  0  0  0  0  0999 V3000
M  V30 BEGIN CTAB
M  V30 COUNTS 46 49 0 0 1
M  V30 BEGIN ATOM
M  V30 1 C 9.732532 7.844757 -9.781342 0
M  V30 2 N 8.886023 7.029542 -10.677113 0 CHG=1
M  V30 3 C 8.657501 5.653974 -10.166369 0
M  V30 4 C 7.686016 4.892187 -11.081780 0
M  V30 5 N 8.176260 4.938776 -12.450376 0
M  V30 6 C 7.954162 3.849011 -13.305640 0
M  V30 7 N 6.710406 3.325999 -13.290923 0
M  V30 8 C 6.501757 2.111428 -13.846834 0
M  V30 9 C 5.286026 1.440349 -13.599813 0
M  V30 10 C 5.022708 0.172340 -14.151443 0
M  V30 11 C 5.997947 -0.454132 -14.943499 0
M  V30 12 C 7.239422 0.172325 -15.154424 0
M  V30 13 C 7.511520 1.435889 -14.583970 0
M  V30 14 C 8.797751 2.020613 -14.666020 0
M  V30 15 Cl 10.093937 1.205493 -15.481990 0
M  V30 16 C 9.033615 3.241699 -13.993130 0
M  V30 17 S 10.685376 3.891746 -13.858191 0
M  V30 18 C 10.963715 4.769990 -15.371441 0
M  V30 19 C 12.117668 5.573716 -15.468764 0
M  V30 20 C 12.395754 6.276082 -16.657064 0
M  V30 21 C 11.521504 6.172336 -17.755928 0
M  V30 22 C 10.366765 5.372361 -17.663662 0
M  V30 23 C 10.086018 4.672772 -16.474352 0
M  V30 24 C 8.383363 6.258717 -13.008899 0
M  V30 25 C 9.330552 7.064895 -12.096633 0
M  V30 26 H 10.744902 7.442704 -9.724813 0
M  V30 27 H 9.789868 8.874249 -10.136704 0
M  V30 28 H 9.313464 7.866046 -8.774378 0
M  V30 29 H 8.244970 5.699481 -9.157205 0
M  V30 30 H 9.608495 5.122168 -10.104239 0
M  V30 31 H 6.701191 5.359927 -11.047559 0
M  V30 32 H 7.561412 3.864195 -10.743122 0
M  V30 33 H 4.528830 1.926076 -13.002308 0
M  V30 34 H 4.070511 -0.309758 -13.982066 0
M  V30 35 H 5.807861 -1.428383 -15.373276 0
M  V30 36 H 7.983903 -0.357842 -15.729846 0
M  V30 37 H 12.796647 5.649968 -14.631411 0
M  V30 38 H 13.281116 6.891083 -16.726912 0
M  V30 39 H 11.734979 6.710609 -18.668066 0
M  V30 40 H 9.696012 5.294656 -18.506847 0
M  V30 41 H 9.200712 4.060540 -16.439180 0
M  V30 42 H 8.778087 6.172324 -14.019319 0
M  V30 43 H 7.417731 6.761581 -13.076851 0
M  V30 44 H 9.381918 8.099532 -12.437499 0
M  V30 45 H 10.340071 6.656095 -12.165246 0
M  V30 46 H 7.946239 7.442827 -10.646872 0
M  V30 END ATOM
M  V30 BEGIN BOND
M  V30 1 1 2 1
M  V30 2 1 3 2
M  V30 3 1 4 3
M  V30 4 1 5 4
M  V30 5 1 6 5
M  V30 6 2 7 6
M  V30 7 1 8 7
M  V30 8 2 9 8
M  V30 9 1 10 9
M  V30 10 2 11 10
M  V30 11 1 12 11
M  V30 12 1 13 8
M  V30 13 2 13 12
M  V30 14 1 14 13
M  V30 15 1 15 14
M  V30 16 1 16 6
M  V30 17 2 16 14
M  V30 18 1 17 16
M  V30 19 1 18 17
M  V30 20 2 19 18
M  V30 21 1 20 19
M  V30 22 2 21 20
M  V30 23 1 22 21
M  V30 24 1 23 18
M  V30 25 2 23 22
M  V30 26 1 24 5
M  V30 27 1 25 2
M  V30 28 1 25 24
M  V30 29 1 26 1
M  V30 30 1 27 1
M  V30 31 1 28 1
M  V30 32 1 29 3
M  V30 33 1 30 3
M  V30 34 1 31 4
M  V30 35 1 32 4
M  V30 36 1 33 9
M  V30 37 1 34 10
M  V30 38 1 35 11
M  V30 39 1 36 12
M  V30 40 1 37 19
M  V30 41 1 38 20
M  V30 42 1 39 21
M  V30 43 1 40 22
M  V30 44 1 41 23
M  V30 45 1 42 24
M  V30 46 1 43 24
M  V30 47 1 44 25
M  V30 48 1 45 25
M  V30 49 1 46 2
M  V30 END BOND
M  V30 END CTAB
M  END
>  <b_m_subgroup_collapsed>  (2177) 
0

>  <r_i_docking_score>  (2177) 
-6.09579728209573

>  <s_m_subgroup_title>  (2177) 
glide-dock_SP_D22_pv

>  <s_m_subgroupid>  (2177) 
glide-dock_SP_D22_pv

>  <Molecule ChEMBL ID>  (2177) 
CHEMBL15242

>  <Standard Type>  (2177) 
Ki

>  <Standard Value>  (2177) 
31.0

>  <label>  (2177) 
1

$$$$
CHEMBL610449
     RDKit          3D

  0  0  0  0  0  0  0  0  0  0999 V3000
M  V30 BEGIN CTAB
M  V30 COUNTS 44 47 0 0 1
M  V30 BEGIN ATOM
M  V30 1 C 8.327762 4.972485 -10.715059 0
M  V30 2 N 8.112481 4.615910 -12.136545 0 CFG=2 CHG=1
M  V30 3 C 9.132389 5.220187 -13.036782 0
M  V30 4 C 10.349835 4.298242 -13.211399 0
M  V30 5 C 10.034912 2.895825 -13.769798 0
M  V30 6 C 9.503504 2.868120 -15.197388 0
M  V30 7 C 10.340170 3.360741 -16.229828 0
M  V30 8 C 9.896005 3.256613 -17.555902 0
M  V30 9 C 8.689346 2.672247 -17.865925 0
M  V30 10 C 7.839939 2.172469 -16.870285 0
M  V30 11 C 8.232985 2.292857 -15.515350 0
M  V30 12 C 7.304367 1.767676 -14.502831 0
M  V30 13 C 7.287727 0.368614 -14.315292 0
M  V30 14 C 6.419458 -0.227397 -13.387491 0
M  V30 15 C 5.540843 0.581412 -12.646887 0
M  V30 16 C 5.525181 1.970430 -12.833825 0
M  V30 17 C 6.414608 2.578986 -13.738861 0
M  V30 18 C 6.350317 4.095278 -13.854334 0
M  V30 19 C 6.713903 4.862326 -12.565276 0
M  V30 20 O 8.499479 2.695612 -19.209055 0
M  V30 21 C 9.638297 3.321234 -19.743408 0
M  V30 22 O 10.511096 3.660483 -18.696093 0
M  V30 23 H 8.100700 6.024622 -10.531898 0
M  V30 24 H 9.358060 4.784340 -10.411819 0
M  V30 25 H 7.686552 4.368464 -10.074090 0
M  V30 26 H 8.732071 5.447518 -14.022966 0
M  V30 27 H 9.447811 6.185716 -12.638072 0
M  V30 28 H 11.087575 4.792846 -13.843864 0
M  V30 29 H 10.833286 4.172753 -12.246826 0
M  V30 30 H 10.949022 2.301017 -13.762670 0
M  V30 31 H 9.358875 2.377778 -13.093398 0
M  V30 32 H 11.306696 3.791770 -16.013514 0
M  V30 33 H 6.894361 1.720984 -17.133751 0
M  V30 34 H 7.954977 -0.259473 -14.888576 0
M  V30 35 H 6.439298 -1.298415 -13.241443 0
M  V30 36 H 4.886439 0.165200 -11.903280 0
M  V30 37 H 4.841635 2.571614 -12.253101 0
M  V30 38 H 7.004512 4.418237 -14.646830 0
M  V30 39 H 5.341492 4.368153 -14.167385 0
M  V30 40 H 6.028452 4.567735 -11.769776 0
M  V30 41 H 6.566420 5.934746 -12.705493 0
M  V30 42 H 10.140001 2.641643 -20.432552 0
M  V30 43 H 9.341660 4.224570 -20.277737 0
M  V30 44 H 8.234228 3.614858 -12.198516 0
M  V30 END ATOM
M  V30 BEGIN BOND
M  V30 1 1 2 1
M  V30 2 1 3 2
M  V30 3 1 4 3
M  V30 4 1 5 4
M  V30 5 1 6 5
M  V30 6 2 7 6
M  V30 7 1 8 7
M  V30 8 2 9 8
M  V30 9 1 10 9
M  V30 10 1 11 6
M  V30 11 2 11 10
M  V30 12 1 12 11
M  V30 13 2 13 12
M  V30 14 1 14 13
M  V30 15 2 15 14
M  V30 16 1 16 15
M  V30 17 1 17 12
M  V30 18 2 17 16
M  V30 19 1 18 17
M  V30 20 1 19 2
M  V30 21 1 19 18
M  V30 22 1 20 9
M  V30 23 1 21 20
M  V30 24 1 22 8
M  V30 25 1 22 21
M  V30 26 1 23 1
M  V30 27 1 24 1
M  V30 28 1 25 1
M  V30 29 1 26 3
M  V30 30 1 27 3
M  V30 31 1 28 4
M  V30 32 1 29 4
M  V30 33 1 30 5
M  V30 34 1 31 5
M  V30 35 1 32 7
M  V30 36 1 33 10
M  V30 37 1 34 13
M  V30 38 1 35 14
M  V30 39 1 36 15
M  V30 40 1 37 16
M  V30 41 1 38 18
M  V30 42 1 39 18
M  V30 43 1 40 19
M  V30 44 1 41 19
M  V30 45 1 42 21
M  V30 46 1 43 21
M  V30 47 1 2 44 CFG=1
M  V30 END BOND
M  V30 END CTAB
M  END
>  <b_m_subgroup_collapsed>  (2178) 
0

>  <r_i_docking_score>  (2178) 
-6.0930230552553404

>  <s_m_subgroup_title>  (2178) 
glide-dock_SP_D22_pv

>  <s_m_subgroupid>  (2178) 
glide-dock_SP_D22_pv

>  <Molecule ChEMBL ID>  (2178) 
CHEMBL610449

>  <Standard Type>  (2178) 
Ki

>  <Standard Value>  (2178) 
10000.0

>  <label>  (2178) 
0

$$$$
CHEMBL4517552
     RDKit          3D

  0  0  0  0  0  0  0  0  0  0999 V3000
M  V30 BEGIN CTAB
M  V30 COUNTS 34 36 0 0 1
M  V30 BEGIN ATOM
M  V30 1 C 12.461871 6.987807 -13.828664 0
M  V30 2 C 11.907320 5.607956 -13.445966 0
M  V30 3 N 11.295627 4.929268 -14.577908 0
M  V30 4 C 11.961853 4.511170 -15.664031 0
M  V30 5 N 11.222679 3.888173 -16.569592 0
M  V30 6 C 9.948850 3.895411 -16.012106 0
M  V30 7 C 9.968033 4.526172 -14.786005 0
M  V30 8 C 8.859154 4.729876 -13.847165 0
M  V30 9 C 8.638072 5.777134 -12.981478 0
M  V30 10 N 7.460381 5.587656 -12.283825 0
M  V30 11 C 6.867222 4.408659 -12.670544 0
M  V30 12 C 5.686156 3.772799 -12.252620 0
M  V30 13 C 5.320801 2.541829 -12.827075 0
M  V30 14 C 6.144008 1.964568 -13.813341 0
M  V30 15 S 5.750695 0.347281 -14.470867 0
M  V30 16 N 6.885694 -0.628777 -13.665215 0
M  V30 17 O 4.423627 -0.051454 -13.974624 0
M  V30 18 O 6.085432 0.309785 -15.902213 0
M  V30 19 C 7.320380 2.616600 -14.246039 0
M  V30 20 C 7.722291 3.851790 -13.671801 0
M  V30 21 H 12.881809 7.489909 -12.955790 0
M  V30 22 H 13.257048 6.903316 -14.569226 0
M  V30 23 H 11.686220 7.631649 -14.243028 0
M  V30 24 H 11.185921 5.707815 -12.647198 0
M  V30 25 H 12.706783 4.978733 -13.051049 0
M  V30 26 H 13.022635 4.665000 -15.791263 0
M  V30 27 H 9.120704 3.442031 -16.537363 0
M  V30 28 H 9.220716 6.666964 -12.798375 0
M  V30 29 H 7.105277 6.242294 -11.590078 0
M  V30 30 H 5.083527 4.224720 -11.479072 0
M  V30 31 H 4.428242 2.036130 -12.497268 0
M  V30 32 H 6.564192 -0.891716 -12.734564 0
M  V30 33 H 7.089839 -1.455772 -14.232546 0
M  V30 34 H 7.942488 2.136186 -14.985902 0
M  V30 END ATOM
M  V30 BEGIN BOND
M  V30 1 1 2 1
M  V30 2 1 3 2
M  V30 3 1 4 3
M  V30 4 2 5 4
M  V30 5 1 6 5
M  V30 6 1 7 3
M  V30 7 2 7 6
M  V30 8 1 8 7
M  V30 9 2 9 8
M  V30 10 1 10 9
M  V30 11 1 11 10
M  V30 12 1 12 11
M  V30 13 2 13 12
M  V30 14 1 14 13
M  V30 15 1 15 14
M  V30 16 1 16 15
M  V30 17 2 17 15
M  V30 18 2 18 15
M  V30 19 2 19 14
M  V30 20 1 20 8
M  V30 21 2 20 11
M  V30 22 1 20 19
M  V30 23 1 21 1
M  V30 24 1 22 1
M  V30 25 1 23 1
M  V30 26 1 24 2
M  V30 27 1 25 2
M  V30 28 1 26 4
M  V30 29 1 27 6
M  V30 30 1 28 9
M  V30 31 1 29 10
M  V30 32 1 30 12
M  V30 33 1 31 13
M  V30 34 1 32 16
M  V30 35 1 33 16
M  V30 36 1 34 19
M  V30 END BOND
M  V30 END CTAB
M  END
>  <b_m_subgroup_collapsed>  (2179) 
0

>  <r_i_docking_score>  (2179) 
-6.0920664715063797

>  <s_m_subgroup_title>  (2179) 
glide-dock_SP_D22_pv

>  <s_m_subgroupid>  (2179) 
glide-dock_SP_D22_pv

>  <Molecule ChEMBL ID>  (2179) 
CHEMBL4517552

>  <Standard Type>  (2179) 
Ki

>  <Standard Value>  (2179) 
10000.0

>  <label>  (2179) 
0

$$$$
CHEMBL498566
     RDKit          3D

  0  0  0  0  0  0  0  0  0  0999 V3000
M  V30 BEGIN CTAB
M  V30 COUNTS 49 50 0 0 1
M  V30 BEGIN ATOM
M  V30 1 C 13.008402 8.368955 -11.651601 0
M  V30 2 C 11.662954 7.639449 -11.798301 0
M  V30 3 N 10.646420 8.113549 -10.854387 0
M  V30 4 C 11.006926 7.809113 -9.464354 0
M  V30 5 C 9.973165 8.294124 -8.433087 0
M  V30 6 C 10.559898 8.325195 -7.035079 0
M  V30 7 C 10.973343 9.554420 -6.491168 0
M  V30 8 C 11.512524 9.615131 -5.202064 0
M  V30 9 C 11.684116 8.450790 -4.437684 0
M  V30 10 O 12.236449 8.645277 -3.196276 0
M  V30 11 C 12.240185 7.679396 -2.246283 0
M  V30 12 F 12.886023 8.172322 -1.162666 0
M  V30 13 F 10.998737 7.325882 -1.846865 0
M  V30 14 F 12.886023 6.561416 -2.646858 0
M  V30 15 C 11.286021 7.204284 -4.985583 0
M  V30 16 C 10.717345 7.146441 -6.276156 0
M  V30 17 C 9.302958 7.685890 -11.261259 0
M  V30 18 C 9.107255 6.155097 -11.292237 0
M  V30 19 N 7.686016 5.772324 -11.446758 0 CHG=1
M  V30 20 C 7.037694 6.189264 -12.709991 0
M  V30 21 C 6.262490 4.972333 -13.244271 0
M  V30 22 C 6.158308 4.033267 -12.053078 0
M  V30 23 C 7.453779 4.320264 -11.301691 0
M  V30 24 H 13.686017 8.090814 -12.457679 0
M  V30 25 H 12.886024 9.442373 -11.698404 0
M  V30 26 H 13.511226 8.172326 -10.707017 0
M  V30 27 H 11.813986 6.572325 -11.693865 0
M  V30 28 H 11.302084 7.772325 -12.818643 0
M  V30 29 H 11.942559 8.320881 -9.241849 0
M  V30 30 H 11.199611 6.744152 -9.332391 0
M  V30 31 H 9.092964 7.649294 -8.429025 0
M  V30 32 H 9.622478 9.294411 -8.692536 0
M  V30 33 H 10.886020 10.470423 -7.046860 0
M  V30 34 H 11.791287 10.572321 -4.795914 0
M  V30 35 H 11.386082 6.282255 -4.433440 0
M  V30 36 H 10.406099 6.194064 -6.680503 0
M  V30 37 H 8.565700 8.145108 -10.603833 0
M  V30 38 H 9.096793 8.103662 -12.246871 0
M  V30 39 H 9.693826 5.704145 -12.093684 0
M  V30 40 H 9.458314 5.716760 -10.357745 0
M  V30 41 H 6.359749 7.016962 -12.497614 0
M  V30 42 H 7.762377 6.536551 -13.446858 0
M  V30 43 H 5.286039 5.238323 -13.651473 0
M  V30 44 H 6.834570 4.490849 -14.038373 0
M  V30 45 H 5.293439 4.303117 -11.446864 0
M  V30 46 H 6.055544 2.986706 -12.341372 0
M  V30 47 H 8.267307 3.775037 -11.784616 0
M  V30 48 H 7.427052 4.009729 -10.259115 0
M  V30 49 H 7.166614 6.271163 -10.721719 0
M  V30 END ATOM
M  V30 BEGIN BOND
M  V30 1 1 2 1
M  V30 2 1 3 2
M  V30 3 1 4 3
M  V30 4 1 5 4
M  V30 5 1 6 5
M  V30 6 1 7 6
M  V30 7 2 8 7
M  V30 8 1 9 8
M  V30 9 1 10 9
M  V30 10 1 11 10
M  V30 11 1 12 11
M  V30 12 1 13 11
M  V30 13 1 14 11
M  V30 14 2 15 9
M  V30 15 2 16 6
M  V30 16 1 16 15
M  V30 17 1 17 3
M  V30 18 1 18 17
M  V30 19 1 19 18
M  V30 20 1 20 19
M  V30 21 1 21 20
M  V30 22 1 22 21
M  V30 23 1 23 19
M  V30 24 1 23 22
M  V30 25 1 24 1
M  V30 26 1 25 1
M  V30 27 1 26 1
M  V30 28 1 27 2
M  V30 29 1 28 2
M  V30 30 1 29 4
M  V30 31 1 30 4
M  V30 32 1 31 5
M  V30 33 1 32 5
M  V30 34 1 33 7
M  V30 35 1 34 8
M  V30 36 1 35 15
M  V30 37 1 36 16
M  V30 38 1 37 17
M  V30 39 1 38 17
M  V30 40 1 39 18
M  V30 41 1 40 18
M  V30 42 1 41 20
M  V30 43 1 42 20
M  V30 44 1 43 21
M  V30 45 1 44 21
M  V30 46 1 45 22
M  V30 47 1 46 22
M  V30 48 1 47 23
M  V30 49 1 48 23
M  V30 50 1 49 19
M  V30 END BOND
M  V30 END CTAB
M  END
>  <b_m_subgroup_collapsed>  (2180) 
0

>  <r_i_docking_score>  (2180) 
-6.0919728925609302

>  <s_m_subgroup_title>  (2180) 
glide-dock_SP_D22_pv

>  <s_m_subgroupid>  (2180) 
glide-dock_SP_D22_pv

>  <Molecule ChEMBL ID>  (2180) 
CHEMBL498566

>  <Standard Type>  (2180) 
Ki

>  <Standard Value>  (2180) 
10000.0

>  <label>  (2180) 
0

$$$$
CHEMBL201393
     RDKit          3D

  0  0  0  0  0  0  0  0  0  0999 V3000
M  V30 BEGIN CTAB
M  V30 COUNTS 43 47 0 0 1
M  V30 BEGIN ATOM
M  V30 1 C 9.910280 0.136420 -17.936573 0
M  V30 2 C 8.523190 0.340193 -18.053579 0
M  V30 3 C 7.746572 0.578135 -16.903019 0
M  V30 4 C 8.348982 0.596872 -15.626163 0
M  V30 5 C 7.521262 0.893054 -14.383486 0 CFG=2
M  V30 6 C 6.215410 0.084550 -14.208273 0
M  V30 7 C 5.247430 1.019252 -13.445542 0
M  V30 8 N 5.998488 2.275159 -13.256851 0 CFG=2 CHG=1
M  V30 9 C 5.305421 3.568224 -13.046994 0
M  V30 10 C 6.308759 4.594477 -12.461871 0
M  V30 11 C 7.666012 4.461997 -13.094367 0
M  V30 12 C 7.999106 3.418719 -13.914288 0
M  V30 13 N 9.310897 3.563345 -14.329385 0
M  V30 14 C 9.875485 4.682341 -13.737927 0
M  V30 15 C 11.163095 5.246754 -13.808778 0
M  V30 16 C 11.455463 6.401285 -13.056489 0
M  V30 17 C 10.463686 6.971705 -12.236596 0
M  V30 18 C 9.171707 6.410225 -12.180579 0
M  V30 19 C 8.846424 5.259024 -12.932052 0
M  V30 20 C 7.035385 2.341279 -14.301141 0 CFG=1
M  V30 21 C 9.740833 0.388315 -15.513223 0
M  V30 22 C 10.518291 0.172883 -16.668207 0
M  V30 23 H 10.507994 -0.035754 -18.818798 0
M  V30 24 H 8.054183 0.325472 -19.026270 0
M  V30 25 H 6.687099 0.749795 -17.013863 0
M  V30 26 H 8.142228 0.687985 -13.511837 0
M  V30 27 H 5.766423 -0.171435 -15.166672 0
M  V30 28 H 6.397454 -0.856069 -13.684819 0
M  V30 29 H 4.332094 1.183973 -14.011971 0
M  V30 30 H 4.969861 0.607513 -12.473148 0
M  V30 31 H 4.894270 3.935038 -13.986250 0
M  V30 32 H 4.486492 3.439852 -12.355304 0
M  V30 33 H 5.922360 5.609827 -12.570292 0
M  V30 34 H 6.409956 4.420195 -11.392620 0
M  V30 35 H 9.775508 2.919603 -14.954987 0
M  V30 36 H 11.926472 4.790806 -14.423406 0
M  V30 37 H 12.443298 6.839642 -13.095318 0
M  V30 38 H 10.682708 7.853299 -11.651760 0
M  V30 39 H 8.410803 6.862388 -11.556722 0
M  V30 40 H 6.551176 2.614665 -15.243022 0
M  V30 41 H 10.221552 0.406384 -14.544777 0
M  V30 42 H 11.586925 0.041772 -16.590048 0
M  V30 43 H 6.486258 2.128186 -12.386876 0
M  V30 END ATOM
M  V30 BEGIN BOND
M  V30 1 2 2 1
M  V30 2 1 3 2
M  V30 3 2 4 3
M  V30 4 1 5 4
M  V30 5 1 6 5
M  V30 6 1 7 6
M  V30 7 1 8 7
M  V30 8 1 9 8
M  V30 9 1 10 9
M  V30 10 1 11 10
M  V30 11 2 12 11
M  V30 12 1 13 12
M  V30 13 1 14 13
M  V30 14 2 15 14
M  V30 15 1 16 15
M  V30 16 2 17 16
M  V30 17 1 18 17
M  V30 18 1 19 11
M  V30 19 1 19 14
M  V30 20 2 19 18
M  V30 21 1 20 5
M  V30 22 1 20 8
M  V30 23 1 20 12
M  V30 24 1 21 4
M  V30 25 1 22 1
M  V30 26 2 22 21
M  V30 27 1 23 1
M  V30 28 1 24 2
M  V30 29 1 25 3
M  V30 30 1 5 26 CFG=1
M  V30 31 1 27 6
M  V30 32 1 28 6
M  V30 33 1 29 7
M  V30 34 1 30 7
M  V30 35 1 31 9
M  V30 36 1 32 9
M  V30 37 1 33 10
M  V30 38 1 34 10
M  V30 39 1 35 13
M  V30 40 1 36 15
M  V30 41 1 37 16
M  V30 42 1 38 17
M  V30 43 1 39 18
M  V30 44 1 20 40 CFG=3
M  V30 45 1 41 21
M  V30 46 1 42 22
M  V30 47 1 8 43 CFG=1
M  V30 END BOND
M  V30 END CTAB
M  END
>  <b_m_subgroup_collapsed>  (2181) 
0

>  <r_i_docking_score>  (2181) 
-6.0911008804064402

>  <s_m_subgroup_title>  (2181) 
glide-dock_SP_D22_pv

>  <s_m_subgroupid>  (2181) 
glide-dock_SP_D22_pv

>  <Molecule ChEMBL ID>  (2181) 
CHEMBL201393

>  <Standard Type>  (2181) 
Ki

>  <Standard Value>  (2181) 
10000.0

>  <label>  (2181) 
0

$$$$
CHEMBL4100358
     RDKit          3D

  0  0  0  0  0  0  0  0  0  0999 V3000
M  V30 BEGIN CTAB
M  V30 COUNTS 35 36 0 0 1
M  V30 BEGIN ATOM
M  V30 1 C 9.604684 4.473323 -12.095222 0
M  V30 2 C 8.426437 5.142218 -11.373675 0
M  V30 3 C 8.813298 5.825821 -10.047867 0
M  V30 4 C 9.800997 7.010341 -10.142418 0 CFG=1
M  V30 5 C 9.288269 8.169403 -11.022112 0
M  V30 6 N 10.084941 7.444212 -8.775100 0
M  V30 7 C 10.826119 8.486302 -8.367944 0
M  V30 8 O 11.285300 9.341870 -9.121240 0
M  V30 9 C 11.051967 8.574150 -6.913277 0
M  V30 10 C 11.208853 9.638932 -6.057675 0
M  V30 11 C 11.485918 9.093165 -4.755185 0
M  V30 12 C 11.739960 9.630146 -3.469588 0
M  V30 13 C 12.086057 8.801108 -2.381749 0
M  V30 14 C 12.113355 7.404397 -2.540095 0
M  V30 15 C 11.799110 6.839259 -3.785055 0
M  V30 16 C 11.500989 7.675047 -4.871807 0
M  V30 17 N 11.195251 7.402834 -6.186387 0
M  V30 18 H 9.265521 3.956504 -12.993626 0
M  V30 19 H 10.353777 5.203856 -12.400043 0
M  V30 20 H 10.084531 3.735617 -11.453247 0
M  V30 21 H 7.679572 4.378222 -11.156425 0
M  V30 22 H 7.928886 5.847493 -12.041451 0
M  V30 23 H 9.229086 5.064202 -9.387601 0
M  V30 24 H 7.900465 6.170512 -9.561001 0
M  V30 25 H 10.737524 6.647117 -10.568635 0
M  V30 26 H 8.923240 7.825468 -11.990025 0
M  V30 27 H 8.486035 8.715165 -10.529923 0
M  V30 28 H 10.079673 8.885976 -11.236369 0
M  V30 29 H 9.666309 6.883019 -8.048670 0
M  V30 30 H 11.157071 10.686333 -6.309587 0
M  V30 31 H 11.686761 10.694512 -3.315529 0
M  V30 32 H 12.303006 9.241600 -1.419092 0
M  V30 33 H 12.377267 6.763780 -1.713700 0
M  V30 34 H 11.808592 5.771931 -3.910397 0
M  V30 35 H 11.152824 6.483032 -6.600801 0
M  V30 END ATOM
M  V30 BEGIN BOND
M  V30 1 1 2 1
M  V30 2 1 3 2
M  V30 3 1 4 3
M  V30 4 1 5 4
M  V30 5 1 6 4
M  V30 6 1 7 6
M  V30 7 2 8 7
M  V30 8 1 9 7
M  V30 9 2 10 9
M  V30 10 1 11 10
M  V30 11 2 12 11
M  V30 12 1 13 12
M  V30 13 2 14 13
M  V30 14 1 15 14
M  V30 15 1 16 11
M  V30 16 2 16 15
M  V30 17 1 17 9
M  V30 18 1 17 16
M  V30 19 1 18 1
M  V30 20 1 19 1
M  V30 21 1 20 1
M  V30 22 1 21 2
M  V30 23 1 22 2
M  V30 24 1 23 3
M  V30 25 1 24 3
M  V30 26 1 4 25 CFG=3
M  V30 27 1 26 5
M  V30 28 1 27 5
M  V30 29 1 28 5
M  V30 30 1 29 6
M  V30 31 1 30 10
M  V30 32 1 31 12
M  V30 33 1 32 13
M  V30 34 1 33 14
M  V30 35 1 34 15
M  V30 36 1 35 17
M  V30 END BOND
M  V30 END CTAB
M  END
>  <b_m_subgroup_collapsed>  (2182) 
0

>  <r_i_docking_score>  (2182) 
-6.0901291491358496

>  <s_m_subgroup_title>  (2182) 
glide-dock_SP_D22_pv

>  <s_m_subgroupid>  (2182) 
glide-dock_SP_D22_pv

>  <Molecule ChEMBL ID>  (2182) 
CHEMBL4100358

>  <Standard Type>  (2182) 
Ki

>  <Standard Value>  (2182) 
30000.0

>  <label>  (2182) 
0

$$$$
CHEMBL611207
     RDKit          3D

  0  0  0  0  0  0  0  0  0  0999 V3000
M  V30 BEGIN CTAB
M  V30 COUNTS 53 56 0 0 1
M  V30 BEGIN ATOM
M  V30 1 C 6.138021 5.379302 -12.258954 0
M  V30 2 N 7.318894 6.172321 -11.885697 0 CFG=2 CHG=1
M  V30 3 C 7.457382 7.442153 -12.646830 0
M  V30 4 C 8.538403 8.361585 -12.035504 0
M  V30 5 C 9.850851 7.619143 -11.728775 0
M  V30 6 C 9.573637 6.281286 -11.019447 0
M  V30 7 C 8.576472 5.401416 -11.791543 0 CFG=2
M  V30 8 C 9.063521 4.926927 -13.190318 0
M  V30 9 C 10.143645 3.828029 -13.176080 0
M  V30 10 N 10.498139 3.388470 -14.538486 0
M  V30 11 C 11.527225 4.102054 -15.209506 0
M  V30 12 C 12.003366 5.357308 -14.738722 0
M  V30 13 C 12.997066 6.079077 -15.426500 0
M  V30 14 C 13.562404 5.557058 -16.598629 0
M  V30 15 C 13.127231 4.310573 -17.074047 0
M  V30 16 C 12.123013 3.591531 -16.393211 0
M  V30 17 S 11.685997 2.029447 -17.070169 0
M  V30 18 C 10.188282 1.625212 -16.247118 0
M  V30 19 C 9.445212 0.558943 -16.789419 0
M  V30 20 C 8.225141 0.172350 -16.216345 0
M  V30 21 C 7.745312 0.860355 -15.090980 0
M  V30 22 S 6.177516 0.372866 -14.269414 0
M  V30 23 C 5.232235 -0.221444 -15.753829 0
M  V30 24 O 6.501093 -0.864809 -13.433851 0
M  V30 25 C 8.491725 1.918972 -14.541602 0
M  V30 26 C 9.735977 2.326537 -15.098754 0
M  V30 27 H 6.113294 5.120201 -13.316995 0
M  V30 28 H 6.050000 4.470450 -11.660813 0
M  V30 29 H 5.285929 6.005052 -12.039297 0
M  V30 30 H 6.503598 7.972319 -12.649612 0
M  V30 31 H 7.686055 7.209519 -13.680256 0
M  V30 32 H 8.163776 8.808765 -11.114016 0
M  V30 33 H 8.731647 9.201936 -12.703234 0
M  V30 34 H 10.492346 8.243862 -11.106067 0
M  V30 35 H 10.408944 7.446979 -12.646766 0
M  V30 36 H 9.170794 6.487629 -10.025776 0
M  V30 37 H 10.485977 5.732610 -10.845303 0
M  V30 38 H 8.372719 4.518580 -11.183249 0
M  V30 39 H 9.416099 5.771830 -13.777491 0
M  V30 40 H 8.216000 4.554787 -13.760192 0
M  V30 41 H 9.816504 2.974329 -12.580075 0
M  V30 42 H 11.029888 4.173317 -12.647650 0
M  V30 43 H 11.619582 5.817183 -13.844088 0
M  V30 44 H 13.332759 7.031589 -15.044417 0
M  V30 45 H 14.330671 6.105159 -17.124146 0
M  V30 46 H 13.570230 3.900015 -17.969809 0
M  V30 47 H 9.815540 0.030564 -17.655678 0
M  V30 48 H 7.681846 -0.657235 -16.639751 0
M  V30 49 H 5.456630 0.377363 -16.634991 0
M  V30 50 H 5.468860 -1.265772 -15.961543 0
M  V30 51 H 4.161394 -0.149867 -15.563343 0
M  V30 52 H 8.069966 2.401087 -13.676713 0
M  V30 53 H 7.098873 6.511631 -10.946992 0
M  V30 END ATOM
M  V30 BEGIN BOND
M  V30 1 1 2 1
M  V30 2 1 3 2
M  V30 3 1 4 3
M  V30 4 1 5 4
M  V30 5 1 6 5
M  V30 6 1 7 2
M  V30 7 1 7 6
M  V30 8 1 8 7
M  V30 9 1 9 8
M  V30 10 1 10 9
M  V30 11 1 11 10
M  V30 12 2 12 11
M  V30 13 1 13 12
M  V30 14 2 14 13
M  V30 15 1 15 14
M  V30 16 1 16 11
M  V30 17 2 16 15
M  V30 18 1 17 16
M  V30 19 1 18 17
M  V30 20 2 19 18
M  V30 21 1 20 19
M  V30 22 2 21 20
M  V30 23 1 22 21
M  V30 24 1 22 23 CFG=3
M  V30 25 2 24 22
M  V30 26 1 25 21
M  V30 27 1 26 10
M  V30 28 1 26 18
M  V30 29 2 26 25
M  V30 30 1 27 1
M  V30 31 1 28 1
M  V30 32 1 29 1
M  V30 33 1 30 3
M  V30 34 1 31 3
M  V30 35 1 32 4
M  V30 36 1 33 4
M  V30 37 1 34 5
M  V30 38 1 35 5
M  V30 39 1 36 6
M  V30 40 1 37 6
M  V30 41 1 7 38 CFG=1
M  V30 42 1 39 8
M  V30 43 1 40 8
M  V30 44 1 41 9
M  V30 45 1 42 9
M  V30 46 1 43 12
M  V30 47 1 44 13
M  V30 48 1 45 14
M  V30 49 1 46 15
M  V30 50 1 47 19
M  V30 51 1 48 20
M  V30 52 1 49 23
M  V30 53 1 50 23
M  V30 54 1 51 23
M  V30 55 1 52 25
M  V30 56 1 2 53 CFG=1
M  V30 END BOND
M  V30 END CTAB
M  END
>  <b_m_subgroup_collapsed>  (2183) 
0

>  <r_i_docking_score>  (2183) 
-6.0898114934816201

>  <s_m_subgroup_title>  (2183) 
glide-dock_SP_D22_pv

>  <s_m_subgroupid>  (2183) 
glide-dock_SP_D22_pv

>  <Molecule ChEMBL ID>  (2183) 
CHEMBL611207

>  <Standard Type>  (2183) 
Ki

>  <Standard Value>  (2183) 
2.2

>  <label>  (2183) 
1

$$$$
CHEMBL381573
     RDKit          3D

  0  0  0  0  0  0  0  0  0  0999 V3000
M  V30 BEGIN CTAB
M  V30 COUNTS 51 54 0 0 1
M  V30 BEGIN ATOM
M  V30 1 C 9.936817 5.453533 -17.933945 0
M  V30 2 N 10.715187 4.575931 -17.022064 0 CFG=1 CHG=1
M  V30 3 C 11.125526 3.296905 -17.674990 0
M  V30 4 C 9.946548 2.331523 -17.978321 0
M  V30 5 C 9.435313 1.429216 -16.827339 0
M  V30 6 C 9.050064 2.173532 -15.528530 0 CFG=1
M  V30 7 C 7.835583 1.596919 -14.805418 0
M  V30 8 C 7.679071 0.202849 -14.635080 0
M  V30 9 C 6.581313 -0.305511 -13.910663 0
M  V30 10 C 5.642853 0.572354 -13.339315 0
M  V30 11 C 5.794646 1.962701 -13.496525 0
M  V30 12 C 6.876731 2.470723 -14.245741 0
M  V30 13 C 10.251129 2.282792 -14.565670 0
M  V30 14 C 10.315504 3.589974 -13.850183 0
M  V30 15 N 9.431043 3.885402 -12.832570 0
M  V30 16 C 9.682630 5.129907 -12.306376 0
M  V30 17 C 9.075974 5.843368 -11.259489 0
M  V30 18 C 9.591006 7.096919 -10.891473 0
M  V30 19 C 10.704570 7.618088 -11.573292 0
M  V30 20 C 11.286272 6.911067 -12.648179 0
M  V30 21 C 10.789953 5.643314 -13.046874 0
M  V30 22 C 11.163486 4.657477 -14.033832 0
M  V30 23 C 12.283089 4.742623 -15.035916 0
M  V30 24 C 11.843126 5.321160 -16.393581 0
M  V30 25 H 10.504605 5.685982 -18.835758 0
M  V30 26 H 9.685817 6.395382 -17.450628 0
M  V30 27 H 8.990670 5.003644 -18.230659 0
M  V30 28 H 11.626820 3.547842 -18.610268 0
M  V30 29 H 11.878041 2.775751 -17.085014 0
M  V30 30 H 9.102595 2.864970 -18.412493 0
M  V30 31 H 10.273478 1.660792 -18.774689 0
M  V30 32 H 8.552498 0.917830 -17.215136 0
M  V30 33 H 10.149868 0.633879 -16.610340 0
M  V30 34 H 8.750201 3.175126 -15.836313 0
M  V30 35 H 8.404294 -0.483684 -15.045486 0
M  V30 36 H 6.469801 -1.373556 -13.786507 0
M  V30 37 H 4.809144 0.179165 -12.778500 0
M  V30 38 H 5.077051 2.639097 -13.055694 0
M  V30 39 H 6.979485 3.540699 -14.353660 0
M  V30 40 H 10.233206 1.462721 -13.847297 0
M  V30 41 H 11.184809 2.135391 -15.100012 0
M  V30 42 H 8.730352 3.234739 -12.506431 0
M  V30 43 H 8.226295 5.437462 -10.729353 0
M  V30 44 H 9.129193 7.652144 -10.085807 0
M  V30 45 H 11.108409 8.572203 -11.268703 0
M  V30 46 H 12.140268 7.330280 -13.158911 0
M  V30 47 H 13.077732 5.372520 -14.634053 0
M  V30 48 H 12.752480 3.770179 -15.172735 0
M  V30 49 H 12.687109 5.367327 -17.081976 0
M  V30 50 H 11.544991 6.355706 -16.215927 0
M  V30 51 H 10.103729 4.337414 -16.252951 0
M  V30 END ATOM
M  V30 BEGIN BOND
M  V30 1 1 2 1
M  V30 2 1 3 2
M  V30 3 1 4 3
M  V30 4 1 5 4
M  V30 5 1 6 5
M  V30 6 1 7 6
M  V30 7 2 8 7
M  V30 8 1 9 8
M  V30 9 2 10 9
M  V30 10 1 11 10
M  V30 11 1 12 7
M  V30 12 2 12 11
M  V30 13 1 13 6
M  V30 14 1 14 13
M  V30 15 1 15 14
M  V30 16 1 16 15
M  V30 17 2 17 16
M  V30 18 1 18 17
M  V30 19 2 19 18
M  V30 20 1 20 19
M  V30 21 1 21 16
M  V30 22 2 21 20
M  V30 23 2 22 14
M  V30 24 1 22 21
M  V30 25 1 23 22
M  V30 26 1 24 2
M  V30 27 1 24 23
M  V30 28 1 25 1
M  V30 29 1 26 1
M  V30 30 1 27 1
M  V30 31 1 28 3
M  V30 32 1 29 3
M  V30 33 1 30 4
M  V30 34 1 31 4
M  V30 35 1 32 5
M  V30 36 1 33 5
M  V30 37 1 6 34 CFG=3
M  V30 38 1 35 8
M  V30 39 1 36 9
M  V30 40 1 37 10
M  V30 41 1 38 11
M  V30 42 1 39 12
M  V30 43 1 40 13
M  V30 44 1 41 13
M  V30 45 1 42 15
M  V30 46 1 43 17
M  V30 47 1 44 18
M  V30 48 1 45 19
M  V30 49 1 46 20
M  V30 50 1 47 23
M  V30 51 1 48 23
M  V30 52 1 49 24
M  V30 53 1 50 24
M  V30 54 1 2 51 CFG=1
M  V30 END BOND
M  V30 END CTAB
M  END
>  <b_m_subgroup_collapsed>  (2184) 
0

>  <r_i_docking_score>  (2184) 
-6.0868756940787101

>  <s_m_subgroup_title>  (2184) 
glide-dock_SP_D22_pv

>  <s_m_subgroupid>  (2184) 
glide-dock_SP_D22_pv

>  <Molecule ChEMBL ID>  (2184) 
CHEMBL381573

>  <Standard Type>  (2184) 
Ki

>  <Standard Value>  (2184) 
10000.0

>  <label>  (2184) 
0

$$$$
CHEMBL2021539
     RDKit          3D

  0  0  0  0  0  0  0  0  0  0999 V3000
M  V30 BEGIN CTAB
M  V30 COUNTS 43 44 0 0 1
M  V30 BEGIN ATOM
M  V30 1 C 9.209089 4.679785 -8.928267 0
M  V30 2 C 9.287491 6.104861 -9.494954 0
M  V30 3 C 9.067642 6.153788 -11.011743 0
M  V30 4 N 7.682946 5.754525 -11.324998 0 CHG=1
M  V30 5 C 7.254589 5.779593 -12.743338 0 CFG=2
M  V30 6 C 5.730770 5.577283 -12.784928 0
M  V30 7 C 5.305458 4.132479 -12.506463 0
M  V30 8 C 6.102997 3.090755 -13.261216 0
M  V30 9 C 5.552101 1.799492 -13.377173 0
M  V30 10 C 6.254220 0.784141 -14.041047 0
M  V30 11 C 7.514397 1.055785 -14.595655 0
M  V30 12 C 8.092601 2.345594 -14.492599 0
M  V30 13 C 9.480686 2.632674 -15.073917 0
M  V30 14 S 10.086358 1.387852 -16.301758 0
M  V30 15 O 10.486633 0.172037 -15.575640 0
M  V30 16 O 9.101439 1.302825 -17.391520 0
M  V30 17 C 11.600512 2.216351 -16.951324 0
M  V30 18 F 12.252539 1.364074 -17.741138 0
M  V30 19 F 11.241553 3.294262 -17.647316 0
M  V30 20 F 12.377142 2.573184 -15.930591 0
M  V30 21 C 7.383715 3.373230 -13.804512 0
M  V30 22 C 8.006158 4.767446 -13.650603 0
M  V30 23 H 9.293932 4.702856 -7.845325 0
M  V30 24 H 8.258965 4.195179 -9.156191 0
M  V30 25 H 10.010925 4.050848 -9.316227 0
M  V30 26 H 10.263883 6.528999 -9.256836 0
M  V30 27 H 8.552351 6.738799 -8.995495 0
M  V30 28 H 9.791513 5.504003 -11.500596 0
M  V30 29 H 9.236587 7.166676 -11.379348 0
M  V30 30 H 7.093725 6.433749 -10.833025 0
M  V30 31 H 7.479542 6.789376 -13.089205 0
M  V30 32 H 5.285971 6.256117 -12.058967 0
M  V30 33 H 5.296997 5.848742 -13.747993 0
M  V30 34 H 4.258207 4.001293 -12.773764 0
M  V30 35 H 5.390596 3.911309 -11.446166 0
M  V30 36 H 4.581932 1.583607 -12.954111 0
M  V30 37 H 5.829806 -0.205752 -14.127051 0
M  V30 38 H 8.015786 0.237110 -15.086845 0
M  V30 39 H 9.481381 3.591181 -15.588538 0
M  V30 40 H 10.211409 2.675915 -14.266938 0
M  V30 41 H 9.040293 4.658354 -13.333754 0
M  V30 42 H 8.069796 5.200564 -14.647629 0
M  V30 43 H 7.493857 4.844147 -10.930192 0
M  V30 END ATOM
M  V30 BEGIN BOND
M  V30 1 1 2 1
M  V30 2 1 3 2
M  V30 3 1 4 3
M  V30 4 1 5 4
M  V30 5 1 6 5
M  V30 6 1 7 6
M  V30 7 1 8 7
M  V30 8 1 9 8
M  V30 9 2 10 9
M  V30 10 1 11 10
M  V30 11 2 12 11
M  V30 12 1 13 12
M  V30 13 1 14 13
M  V30 14 2 15 14
M  V30 15 2 16 14
M  V30 16 1 17 14
M  V30 17 1 18 17
M  V30 18 1 19 17
M  V30 19 1 20 17
M  V30 20 2 21 8
M  V30 21 1 21 12
M  V30 22 1 22 5
M  V30 23 1 22 21
M  V30 24 1 23 1
M  V30 25 1 24 1
M  V30 26 1 25 1
M  V30 27 1 26 2
M  V30 28 1 27 2
M  V30 29 1 28 3
M  V30 30 1 29 3
M  V30 31 1 30 4
M  V30 32 1 5 31 CFG=3
M  V30 33 1 32 6
M  V30 34 1 33 6
M  V30 35 1 34 7
M  V30 36 1 35 7
M  V30 37 1 36 9
M  V30 38 1 37 10
M  V30 39 1 38 11
M  V30 40 1 39 13
M  V30 41 1 40 13
M  V30 42 1 41 22
M  V30 43 1 42 22
M  V30 44 1 43 4
M  V30 END BOND
M  V30 END CTAB
M  END
>  <b_m_subgroup_collapsed>  (2185) 
0

>  <r_i_docking_score>  (2185) 
-6.0863215666171104

>  <s_m_subgroup_title>  (2185) 
glide-dock_SP_D22_pv

>  <s_m_subgroupid>  (2185) 
glide-dock_SP_D22_pv

>  <Molecule ChEMBL ID>  (2185) 
CHEMBL2021539

>  <Standard Type>  (2185) 
Ki

>  <Standard Value>  (2185) 
69.0

>  <label>  (2185) 
1

$$$$
CHEMBL516
     RDKit          3D

  0  0  0  0  0  0  0  0  0  0999 V3000
M  V30 BEGIN CTAB
M  V30 COUNTS 44 47 0 0 1
M  V30 BEGIN ATOM
M  V30 1 C 10.077556 -1.051948 -16.967566 0
M  V30 2 N 10.592968 0.184989 -16.355463 0 CHG=1
M  V30 3 C 9.777260 0.653991 -15.204438 0
M  V30 4 C 10.426127 1.869386 -14.515607 0
M  V30 5 C 10.752151 2.960031 -15.529940 0
M  V30 6 C 10.440579 4.270825 -15.391283 0
M  V30 7 C 9.802156 4.835306 -14.197291 0
M  V30 8 C 8.483732 4.474661 -13.841994 0
M  V30 9 C 7.885417 5.013437 -12.688182 0
M  V30 10 C 8.603111 5.919252 -11.887599 0
M  V30 11 C 9.912781 6.292342 -12.246205 0
M  V30 12 C 10.522597 5.765299 -13.405155 0
M  V30 13 C 11.863350 6.264995 -13.779905 0
M  V30 14 C 12.386896 6.431650 -15.013830 0
M  V30 15 C 11.740719 6.172464 -16.316404 0
M  V30 16 C 12.089680 6.973777 -17.421747 0
M  V30 17 C 11.409793 6.862567 -18.648113 0
M  V30 18 C 10.360527 5.937126 -18.782120 0
M  V30 19 C 10.021759 5.108328 -17.698349 0
M  V30 20 C 10.724298 5.207932 -16.477215 0
M  V30 21 C 11.555300 2.413410 -16.708355 0
M  V30 22 C 10.831305 1.241349 -17.360609 0
M  V30 23 H 9.057315 -0.923643 -17.335485 0
M  V30 24 H 10.708022 -1.383983 -17.793844 0
M  V30 25 H 10.086315 -1.830895 -16.215439 0
M  V30 26 H 9.666043 -0.154634 -14.480311 0
M  V30 27 H 8.775236 0.911271 -15.550397 0
M  V30 28 H 11.349242 1.568415 -14.026815 0
M  V30 29 H 9.779683 2.220552 -13.714463 0
M  V30 30 H 7.928264 3.780285 -14.454045 0
M  V30 31 H 6.875459 4.740784 -12.416599 0
M  V30 32 H 8.137928 6.342264 -11.006263 0
M  V30 33 H 10.440001 7.007558 -11.632844 0
M  V30 34 H 12.534985 6.511884 -12.970282 0
M  V30 35 H 13.409673 6.782067 -15.029058 0
M  V30 36 H 12.866450 7.720033 -17.321495 0
M  V30 37 H 11.677177 7.503400 -19.476591 0
M  V30 38 H 9.825245 5.855548 -19.716936 0
M  V30 39 H 9.232616 4.380748 -17.812016 0
M  V30 40 H 11.795680 3.156266 -17.465567 0
M  V30 41 H 12.518991 2.077680 -16.324060 0
M  V30 42 H 11.440956 0.847844 -18.175144 0
M  V30 43 H 9.885183 1.566573 -17.795700 0
M  V30 44 H 11.504110 -0.038657 -15.977709 0
M  V30 END ATOM
M  V30 BEGIN BOND
M  V30 1 1 2 1
M  V30 2 1 3 2
M  V30 3 1 4 3
M  V30 4 1 5 4
M  V30 5 2 6 5 CFG=2
M  V30 6 1 7 6
M  V30 7 2 8 7
M  V30 8 1 9 8
M  V30 9 2 10 9
M  V30 10 1 11 10
M  V30 11 1 12 7
M  V30 12 2 12 11
M  V30 13 1 13 12
M  V30 14 2 14 13
M  V30 15 1 15 14
M  V30 16 2 16 15
M  V30 17 1 17 16
M  V30 18 2 18 17
M  V30 19 1 19 18
M  V30 20 1 20 6
M  V30 21 1 20 15
M  V30 22 2 20 19
M  V30 23 1 21 5
M  V30 24 1 22 2
M  V30 25 1 22 21
M  V30 26 1 23 1
M  V30 27 1 24 1
M  V30 28 1 25 1
M  V30 29 1 26 3
M  V30 30 1 27 3
M  V30 31 1 28 4
M  V30 32 1 29 4
M  V30 33 1 30 8
M  V30 34 1 31 9
M  V30 35 1 32 10
M  V30 36 1 33 11
M  V30 37 1 34 13
M  V30 38 1 35 14
M  V30 39 1 36 16
M  V30 40 1 37 17
M  V30 41 1 38 18
M  V30 42 1 39 19
M  V30 43 1 40 21
M  V30 44 1 41 21
M  V30 45 1 42 22
M  V30 46 1 43 22
M  V30 47 1 44 2
M  V30 END BOND
M  V30 END CTAB
M  END
>  <b_m_subgroup_collapsed>  (2186) 
0

>  <r_i_docking_score>  (2186) 
-6.0855198874760204

>  <s_m_subgroup_title>  (2186) 
glide-dock_SP_D22_pv

>  <s_m_subgroupid>  (2186) 
glide-dock_SP_D22_pv

>  <Molecule ChEMBL ID>  (2186) 
CHEMBL516

>  <Standard Type>  (2186) 
Ki

>  <Standard Value>  (2186) 
55.0

>  <label>  (2186) 
1

$$$$
CHEMBL91362
     RDKit          3D

  0  0  0  0  0  0  0  0  0  0999 V3000
M  V30 BEGIN CTAB
M  V30 COUNTS 51 54 0 0 1
M  V30 BEGIN ATOM
M  V30 1 C 11.048732 8.064662 -20.310423 0
M  V30 2 C 11.633430 7.263480 -19.147299 0
M  V30 3 O 10.820975 6.124037 -18.912422 0
M  V30 4 C 11.020823 5.363808 -17.813301 0
M  V30 5 O 11.886245 5.635028 -16.983700 0
M  V30 6 C 10.113244 4.215309 -17.779989 0
M  V30 7 C 9.258040 3.803872 -18.834835 0
M  V30 8 N 8.529083 2.751988 -18.558537 0
M  V30 9 N 8.892557 2.425375 -17.279602 0
M  V30 10 C 8.361805 1.376297 -16.592869 0
M  V30 11 C 8.785557 1.129502 -15.313682 0
M  V30 12 C 9.761237 1.962062 -14.725185 0
M  V30 13 C 10.311149 3.020282 -15.414481 0
M  V30 14 C 11.376568 3.825528 -14.693227 0
M  V30 15 N 10.904821 5.098005 -14.140236 0
M  V30 16 C 10.003593 4.853650 -13.006248 0
M  V30 17 C 9.553064 6.171092 -12.344056 0
M  V30 18 N 10.714336 6.971119 -11.953846 0
M  V30 19 C 10.783794 7.602207 -10.688884 0
M  V30 20 C 12.023677 7.986434 -10.129669 0
M  V30 21 C 12.094080 8.540752 -8.834309 0
M  V30 22 C 10.926188 8.731025 -8.078508 0
M  V30 23 Cl 11.023629 9.372818 -6.479385 0
M  V30 24 C 9.681553 8.390362 -8.633055 0
M  V30 25 C 9.614679 7.835127 -9.925558 0
M  V30 26 C 11.704992 7.165353 -13.013380 0
M  V30 27 C 12.086415 5.828166 -13.674921 0
M  V30 28 C 9.879175 3.308653 -16.754744 0
M  V30 29 H 11.656385 8.944919 -20.517172 0
M  V30 30 H 11.010178 7.460166 -21.218937 0
M  V30 31 H 10.036238 8.402066 -20.089468 0
M  V30 32 H 11.686806 7.887419 -18.253288 0
M  V30 33 H 12.649974 6.944503 -19.380459 0
M  V30 34 H 9.157453 4.272335 -19.803354 0
M  V30 35 H 7.615380 0.776050 -17.102312 0
M  V30 36 H 8.371535 0.295358 -14.756241 0
M  V30 37 H 10.082819 1.770069 -13.709518 0
M  V30 38 H 11.792202 3.223239 -13.883128 0
M  V30 39 H 12.212423 3.970188 -15.374650 0
M  V30 40 H 9.120234 4.314572 -13.347940 0
M  V30 41 H 10.485831 4.217099 -12.264231 0
M  V30 42 H 8.923925 6.743937 -13.025397 0
M  V30 43 H 8.930074 5.907101 -11.491104 0
M  V30 44 H 12.947675 7.839230 -10.661501 0
M  V30 45 H 13.055690 8.812778 -8.423377 0
M  V30 46 H 8.772594 8.541976 -8.065946 0
M  V30 47 H 8.634494 7.594460 -10.309030 0
M  V30 48 H 11.286576 7.815386 -13.778326 0
M  V30 49 H 12.607078 7.665487 -12.665431 0
M  V30 50 H 12.669114 5.208173 -12.993745 0
M  V30 51 H 12.740457 6.031410 -14.523064 0
M  V30 END ATOM
M  V30 BEGIN BOND
M  V30 1 1 2 1
M  V30 2 1 3 2
M  V30 3 1 4 3
M  V30 4 2 5 4
M  V30 5 1 6 4
M  V30 6 1 7 6
M  V30 7 2 8 7
M  V30 8 1 9 8
M  V30 9 1 10 9
M  V30 10 2 11 10
M  V30 11 1 12 11
M  V30 12 2 13 12
M  V30 13 1 14 13
M  V30 14 1 15 14
M  V30 15 1 16 15
M  V30 16 1 17 16
M  V30 17 1 18 17
M  V30 18 1 19 18
M  V30 19 1 20 19
M  V30 20 2 21 20
M  V30 21 1 22 21
M  V30 22 1 23 22
M  V30 23 2 24 22
M  V30 24 2 25 19
M  V30 25 1 25 24
M  V30 26 1 26 18
M  V30 27 1 27 15
M  V30 28 1 27 26
M  V30 29 2 28 6
M  V30 30 1 28 9
M  V30 31 1 28 13
M  V30 32 1 29 1
M  V30 33 1 30 1
M  V30 34 1 31 1
M  V30 35 1 32 2
M  V30 36 1 33 2
M  V30 37 1 34 7
M  V30 38 1 35 10
M  V30 39 1 36 11
M  V30 40 1 37 12
M  V30 41 1 38 14
M  V30 42 1 39 14
M  V30 43 1 40 16
M  V30 44 1 41 16
M  V30 45 1 42 17
M  V30 46 1 43 17
M  V30 47 1 44 20
M  V30 48 1 45 21
M  V30 49 1 46 24
M  V30 50 1 47 25
M  V30 51 1 48 26
M  V30 52 1 49 26
M  V30 53 1 50 27
M  V30 54 1 51 27
M  V30 END BOND
M  V30 END CTAB
M  END
>  <b_m_subgroup_collapsed>  (2187) 
0

>  <r_i_docking_score>  (2187) 
-6.0838274433715904

>  <s_m_subgroup_title>  (2187) 
glide-dock_SP_D22_pv

>  <s_m_subgroupid>  (2187) 
glide-dock_SP_D22_pv

>  <Molecule ChEMBL ID>  (2187) 
CHEMBL91362

>  <Standard Type>  (2187) 
Ki

>  <Standard Value>  (2187) 
37000.0

>  <label>  (2187) 
0

$$$$
CHEMBL4636778
     RDKit          3D

  0  0  0  0  0  0  0  0  0  0999 V3000
M  V30 BEGIN CTAB
M  V30 COUNTS 63 65 0 0 1
M  V30 BEGIN ATOM
M  V30 1 C 11.768375 8.733682 -4.754068 0
M  V30 2 C 11.014923 8.814364 -6.088766 0 CFG=1
M  V30 3 O 11.285602 10.081532 -6.646025 0
M  V30 4 C 11.436498 7.718217 -7.090712 0
M  V30 5 N 10.476961 7.596299 -8.228836 0 CFG=1 CHG=1
M  V30 6 C 11.135706 7.720317 -9.564654 0 CFG=2
M  V30 7 C 11.688166 9.135316 -9.769011 0
M  V30 8 C 10.161873 7.451892 -10.723475 0
M  V30 9 N 9.597890 6.117997 -10.595221 0
M  V30 10 C 8.753798 5.866997 -11.767329 0
M  V30 11 C 8.314223 4.397564 -11.812333 0
M  V30 12 S 7.751138 3.867092 -13.457977 0
M  V30 13 C 9.259284 3.079021 -14.125774 0
M  V30 14 C 10.205836 4.143766 -14.670138 0
M  V30 15 C 11.229744 4.651955 -13.846668 0
M  V30 16 C 12.113428 5.638378 -14.325250 0
M  V30 17 C 11.995146 6.108674 -15.645260 0
M  V30 18 F 12.846402 7.053545 -16.108768 0
M  V30 19 C 10.981873 5.601370 -16.480072 0
M  V30 20 C 10.085072 4.629867 -15.993888 0
M  V30 21 C 8.976168 1.980384 -15.151874 0
M  V30 22 C 10.004469 1.052521 -15.431540 0
M  V30 23 C 9.829105 0.061367 -16.415514 0
M  V30 24 C 8.617862 -0.019025 -17.125847 0
M  V30 25 F 8.456656 -0.960697 -18.084887 0
M  V30 26 C 7.575896 0.883364 -16.838736 0
M  V30 27 C 7.753577 1.880098 -15.859518 0
M  V30 28 C 8.783937 6.153865 -9.384602 0
M  V30 29 C 9.624226 6.375107 -8.118971 0 CFG=2
M  V30 30 C 8.655933 6.502816 -6.929340 0
M  V30 31 H 11.631950 7.758411 -4.282937 0
M  V30 32 H 12.839850 8.898994 -4.883749 0
M  V30 33 H 11.404103 9.485505 -4.051961 0
M  V30 34 H 9.944377 8.752718 -5.885050 0
M  V30 35 H 11.110518 10.745811 -5.996654 0
M  V30 36 H 12.447993 7.910502 -7.446734 0
M  V30 37 H 11.514918 6.763224 -6.568407 0
M  V30 38 H 11.941906 6.984243 -9.631677 0
M  V30 39 H 12.103850 9.251109 -10.769583 0
M  V30 40 H 10.909101 9.889153 -9.644734 0
M  V30 41 H 12.485197 9.371033 -9.068020 0
M  V30 42 H 10.703339 7.520197 -11.668381 0
M  V30 43 H 9.371880 8.203466 -10.760779 0
M  V30 44 H 7.888838 6.533779 -11.783824 0
M  V30 45 H 9.326624 6.088816 -12.667298 0
M  V30 46 H 9.137809 3.765411 -11.491583 0
M  V30 47 H 7.493268 4.231482 -11.114779 0
M  V30 48 H 9.750150 2.572765 -13.293721 0
M  V30 49 H 11.320370 4.298688 -12.832460 0
M  V30 50 H 12.885719 6.032157 -13.682069 0
M  V30 51 H 10.888137 5.965017 -17.493677 0
M  V30 52 H 9.305898 4.258876 -16.643335 0
M  V30 53 H 10.945610 1.112585 -14.903042 0
M  V30 54 H 10.630954 -0.627428 -16.632746 0
M  V30 55 H 6.642347 0.815061 -17.378922 0
M  V30 56 H 6.943896 2.572272 -15.678524 0
M  V30 57 H 8.205931 5.236535 -9.276000 0
M  V30 58 H 8.086029 6.972284 -9.453602 0
M  V30 59 H 10.257677 5.497930 -7.981432 0
M  V30 60 H 7.909629 5.712046 -6.942060 0
M  V30 61 H 9.171043 6.452818 -5.970424 0
M  V30 62 H 8.092433 7.438093 -6.963332 0
M  V30 63 H 9.848745 8.387105 -8.170535 0
M  V30 END ATOM
M  V30 BEGIN BOND
M  V30 1 1 2 1
M  V30 2 1 3 2
M  V30 3 1 4 2
M  V30 4 1 5 4
M  V30 5 1 6 5
M  V30 6 1 7 6
M  V30 7 1 8 6
M  V30 8 1 9 8
M  V30 9 1 10 9
M  V30 10 1 11 10
M  V30 11 1 12 11
M  V30 12 1 13 12
M  V30 13 1 14 13
M  V30 14 1 15 14
M  V30 15 2 16 15
M  V30 16 1 17 16
M  V30 17 1 18 17
M  V30 18 2 19 17
M  V30 19 2 20 14
M  V30 20 1 20 19
M  V30 21 1 21 13
M  V30 22 1 22 21
M  V30 23 2 23 22
M  V30 24 1 24 23
M  V30 25 1 25 24
M  V30 26 2 26 24
M  V30 27 2 27 21
M  V30 28 1 27 26
M  V30 29 1 28 9
M  V30 30 1 29 5
M  V30 31 1 29 28
M  V30 32 1 30 29
M  V30 33 1 31 1
M  V30 34 1 32 1
M  V30 35 1 33 1
M  V30 36 1 2 34 CFG=1
M  V30 37 1 35 3
M  V30 38 1 36 4
M  V30 39 1 37 4
M  V30 40 1 6 38 CFG=1
M  V30 41 1 39 7
M  V30 42 1 40 7
M  V30 43 1 41 7
M  V30 44 1 42 8
M  V30 45 1 43 8
M  V30 46 1 44 10
M  V30 47 1 45 10
M  V30 48 1 46 11
M  V30 49 1 47 11
M  V30 50 1 48 13
M  V30 51 1 49 15
M  V30 52 1 50 16
M  V30 53 1 51 19
M  V30 54 1 52 20
M  V30 55 1 53 22
M  V30 56 1 54 23
M  V30 57 1 55 26
M  V30 58 1 56 27
M  V30 59 1 57 28
M  V30 60 1 58 28
M  V30 61 1 29 59 CFG=1
M  V30 62 1 60 30
M  V30 63 1 61 30
M  V30 64 1 62 30
M  V30 65 1 5 63 CFG=1
M  V30 END BOND
M  V30 END CTAB
M  END
>  <b_m_subgroup_collapsed>  (2188) 
0

>  <r_i_docking_score>  (2188) 
-6.0815246369759501

>  <s_m_subgroup_title>  (2188) 
glide-dock_SP_D22_pv

>  <s_m_subgroupid>  (2188) 
glide-dock_SP_D22_pv

>  <Molecule ChEMBL ID>  (2188) 
CHEMBL4636778

>  <Standard Type>  (2188) 
Ki

>  <Standard Value>  (2188) 
11900.0

>  <label>  (2188) 
0

$$$$
CHEMBL4064919
     RDKit          3D

  0  0  0  0  0  0  0  0  0  0999 V3000
M  V30 BEGIN CTAB
M  V30 COUNTS 41 42 0 0 1
M  V30 BEGIN ATOM
M  V30 1 C 6.866230 4.590403 -12.295934 0
M  V30 2 C 8.388428 4.419570 -12.402983 0
M  V30 3 C 9.159462 4.850160 -11.137036 0
M  V30 4 C 9.135475 6.363401 -10.830118 0
M  V30 5 C 9.653164 7.259354 -11.989058 0
M  V30 6 C 11.138103 7.131536 -12.400187 0
M  V30 7 C 12.140647 7.707772 -11.391363 0
M  V30 8 N 9.762151 6.650636 -9.537404 0
M  V30 9 C 9.726637 7.826051 -8.883853 0
M  V30 10 O 9.285890 8.873255 -9.357943 0
M  V30 11 C 10.314878 7.825829 -7.532003 0
M  V30 12 C 10.721078 6.829508 -6.683318 0
M  V30 13 C 11.174290 7.457031 -5.474034 0
M  V30 14 C 11.688865 6.992860 -4.241877 0
M  V30 15 C 12.088193 7.895698 -3.231963 0
M  V30 16 C 11.947087 9.283885 -3.423699 0
M  V30 17 C 11.405041 9.772327 -4.627073 0
M  V30 18 C 11.036360 8.866144 -5.636353 0
M  V30 19 N 10.499124 9.039133 -6.893471 0
M  V30 20 H 6.367195 4.219028 -13.190139 0
M  V30 21 H 6.468258 4.036703 -11.446263 0
M  V30 22 H 6.584719 5.637960 -12.178056 0
M  V30 23 H 8.762973 4.937183 -13.285363 0
M  V30 24 H 8.607325 3.372363 -12.596992 0
M  V30 25 H 10.180574 4.504819 -11.242490 0
M  V30 26 H 8.754633 4.312669 -10.279388 0
M  V30 27 H 8.086173 6.585617 -10.685223 0
M  V30 28 H 9.030452 7.032788 -12.851128 0
M  V30 29 H 9.434721 8.307264 -11.786336 0
M  V30 30 H 11.379242 6.097375 -12.642713 0
M  V30 31 H 11.285672 7.682976 -13.331071 0
M  V30 32 H 13.126204 7.807287 -11.846983 0
M  V30 33 H 11.842672 8.698224 -11.047339 0
M  V30 34 H 12.243487 7.067299 -10.517441 0
M  V30 35 H 10.163797 5.867484 -9.047978 0
M  V30 36 H 10.697611 5.770514 -6.874686 0
M  V30 37 H 11.791931 5.930789 -4.079095 0
M  V30 38 H 12.490241 7.520109 -2.302819 0
M  V30 39 H 12.244211 9.972918 -2.644404 0
M  V30 40 H 11.281439 10.834851 -4.776611 0
M  V30 41 H 10.241428 9.909493 -7.336663 0
M  V30 END ATOM
M  V30 BEGIN BOND
M  V30 1 1 2 1
M  V30 2 1 3 2
M  V30 3 1 4 3
M  V30 4 1 5 4
M  V30 5 1 6 5
M  V30 6 1 7 6
M  V30 7 1 8 4
M  V30 8 1 9 8
M  V30 9 2 10 9
M  V30 10 1 11 9
M  V30 11 2 12 11
M  V30 12 1 13 12
M  V30 13 2 14 13
M  V30 14 1 15 14
M  V30 15 2 16 15
M  V30 16 1 17 16
M  V30 17 1 18 13
M  V30 18 2 18 17
M  V30 19 1 19 11
M  V30 20 1 19 18
M  V30 21 1 20 1
M  V30 22 1 21 1
M  V30 23 1 22 1
M  V30 24 1 23 2
M  V30 25 1 24 2
M  V30 26 1 25 3
M  V30 27 1 26 3
M  V30 28 1 27 4
M  V30 29 1 28 5
M  V30 30 1 29 5
M  V30 31 1 30 6
M  V30 32 1 31 6
M  V30 33 1 32 7
M  V30 34 1 33 7
M  V30 35 1 34 7
M  V30 36 1 35 8
M  V30 37 1 36 12
M  V30 38 1 37 14
M  V30 39 1 38 15
M  V30 40 1 39 16
M  V30 41 1 40 17
M  V30 42 1 41 19
M  V30 END BOND
M  V30 END CTAB
M  END
>  <b_m_subgroup_collapsed>  (2189) 
0

>  <r_i_docking_score>  (2189) 
-6.0793711370881098

>  <s_m_subgroup_title>  (2189) 
glide-dock_SP_D22_pv

>  <s_m_subgroupid>  (2189) 
glide-dock_SP_D22_pv

>  <Molecule ChEMBL ID>  (2189) 
CHEMBL4064919

>  <Standard Type>  (2189) 
Ki

>  <Standard Value>  (2189) 
13400.0

>  <label>  (2189) 
0

$$$$
CHEMBL5647307
     RDKit          3D

  0  0  0  0  0  0  0  0  0  0999 V3000
M  V30 BEGIN CTAB
M  V30 COUNTS 78 81 0 0 1
M  V30 BEGIN ATOM
M  V30 1 C 11.195331 -0.980271 -18.752945 0
M  V30 2 C 12.148175 -0.112053 -18.379669 0
M  V30 3 C 12.559304 1.105880 -19.177820 0
M  V30 4 N 12.096780 2.320053 -18.462238 0 CFG=1 CHG=1
M  V30 5 C 13.072211 2.939380 -17.548050 0
M  V30 6 C 12.550300 4.359097 -17.282352 0 CFG=2
M  V30 7 O 11.849829 4.393273 -16.044914 0
M  V30 8 C 11.850428 5.509557 -15.299869 0
M  V30 9 O 12.471549 6.535023 -15.581983 0
M  V30 10 N 11.008902 5.304137 -14.216348 0
M  V30 11 C 10.886120 6.099033 -13.046574 0
M  V30 12 C 9.784931 5.855484 -12.203651 0
M  V30 13 C 9.676629 6.511683 -10.962561 0
M  V30 14 C 10.672457 7.419017 -10.532604 0
M  V30 15 C 10.632660 8.014639 -9.185681 0
M  V30 16 C 9.432674 8.039790 -8.401856 0
M  V30 17 C 9.603369 8.568213 -7.151762 0
M  V30 18 S 11.241184 9.084271 -6.891120 0
M  V30 19 C 11.686162 8.572134 -8.497568 0
M  V30 20 C 11.751725 7.694993 -11.401461 0
M  V30 21 C 11.860891 7.042034 -12.646687 0
M  V30 22 C 11.571116 4.655736 -18.425274 0
M  V30 23 C 11.571956 3.404938 -19.315702 0 CFG=2
M  V30 24 C 10.189569 3.078929 -19.913256 0
M  V30 25 N 9.294787 2.384137 -18.982662 0
M  V30 26 C 8.089363 1.935924 -19.360477 0
M  V30 27 O 7.667622 2.141131 -20.496552 0
M  V30 28 C 7.281324 1.171072 -18.332773 0
M  V30 29 C 7.536862 1.344889 -16.946596 0
M  V30 30 C 6.791193 0.640120 -15.978101 0
M  V30 31 C 7.081059 0.793434 -14.491918 0
M  V30 32 C 6.015979 1.620252 -13.747551 0
M  V30 33 C 6.137172 3.128782 -13.985780 0
M  V30 34 F 7.301487 3.592816 -13.534818 0
M  V30 35 C 5.764450 -0.230343 -16.388542 0
M  V30 36 C 5.476431 -0.409220 -17.761757 0
M  V30 37 O 4.505596 -1.269346 -18.228035 0
M  V30 38 C 3.712357 -1.985458 -17.296549 0
M  V30 39 C 6.225524 0.302064 -18.727051 0
M  V30 40 O 5.940387 0.098774 -20.057165 0
M  V30 41 C 4.724354 0.685535 -20.497742 0
M  V30 42 H 10.654528 -0.861267 -19.679268 0
M  V30 43 H 10.941675 -1.827110 -18.130962 0
M  V30 44 H 12.666903 -0.260737 -17.446196 0
M  V30 45 H 13.639797 1.112363 -19.328945 0
M  V30 46 H 12.101721 1.043323 -20.165663 0
M  V30 47 H 13.198197 2.348453 -16.645996 0
M  V30 48 H 14.044592 3.006226 -18.036169 0
M  V30 49 H 13.391598 5.055984 -17.281355 0
M  V30 50 H 10.475784 4.447205 -14.244672 0
M  V30 51 H 9.030525 5.134763 -12.483802 0
M  V30 52 H 8.835522 6.265997 -10.332446 0
M  V30 53 H 8.486842 7.665648 -8.762175 0
M  V30 54 H 8.851277 8.679820 -6.383800 0
M  V30 55 H 12.707498 8.699285 -8.824749 0
M  V30 56 H 12.530148 8.387734 -11.109414 0
M  V30 57 H 12.729347 7.251354 -13.250677 0
M  V30 58 H 10.569425 4.850332 -18.034895 0
M  V30 59 H 11.865093 5.542901 -18.985502 0
M  V30 60 H 12.284330 3.580982 -20.126591 0
M  V30 61 H 9.715966 3.989695 -20.277634 0
M  V30 62 H 10.330041 2.443170 -20.789595 0
M  V30 63 H 9.564513 2.249748 -18.022749 0
M  V30 64 H 8.308180 2.019525 -16.604593 0
M  V30 65 H 7.121757 -0.207742 -14.062471 0
M  V30 66 H 8.071264 1.220632 -14.338616 0
M  V30 67 H 5.020432 1.275537 -14.026758 0
M  V30 68 H 6.086020 1.433865 -12.673353 0
M  V30 69 H 6.086242 3.371912 -15.046071 0
M  V30 70 H 5.348929 3.681539 -13.473379 0
M  V30 71 H 5.214261 -0.766232 -15.627803 0
M  V30 72 H 3.019500 -2.625219 -17.846537 0
M  V30 73 H 4.321012 -2.628740 -16.660042 0
M  V30 74 H 3.121028 -1.315332 -16.669537 0
M  V30 75 H 4.493870 0.345228 -21.508442 0
M  V30 76 H 3.868151 0.436016 -19.872438 0
M  V30 77 H 4.816071 1.771899 -20.525751 0
M  V30 78 H 11.323606 2.027229 -17.885799 0
M  V30 END ATOM
M  V30 BEGIN BOND
M  V30 1 2 2 1
M  V30 2 1 3 2
M  V30 3 1 4 3
M  V30 4 1 5 4
M  V30 5 1 6 5
M  V30 6 1 7 6
M  V30 7 1 8 7
M  V30 8 2 9 8
M  V30 9 1 10 8
M  V30 10 1 11 10
M  V30 11 1 12 11
M  V30 12 2 13 12
M  V30 13 1 14 13
M  V30 14 1 15 14
M  V30 15 1 16 15
M  V30 16 2 17 16
M  V30 17 1 18 17
M  V30 18 2 19 15
M  V30 19 1 19 18
M  V30 20 2 20 14
M  V30 21 2 21 11
M  V30 22 1 21 20
M  V30 23 1 22 6
M  V30 24 1 23 4
M  V30 25 1 23 22
M  V30 26 1 24 23
M  V30 27 1 25 24
M  V30 28 1 26 25
M  V30 29 2 27 26
M  V30 30 1 28 26
M  V30 31 2 29 28
M  V30 32 1 30 29
M  V30 33 1 31 30
M  V30 34 1 32 31
M  V30 35 1 33 32
M  V30 36 1 34 33
M  V30 37 2 35 30
M  V30 38 1 36 35
M  V30 39 1 37 36
M  V30 40 1 38 37
M  V30 41 1 39 28
M  V30 42 2 39 36
M  V30 43 1 40 39
M  V30 44 1 41 40
M  V30 45 1 42 1
M  V30 46 1 43 1
M  V30 47 1 44 2
M  V30 48 1 45 3
M  V30 49 1 46 3
M  V30 50 1 47 5
M  V30 51 1 48 5
M  V30 52 1 6 49 CFG=1
M  V30 53 1 50 10
M  V30 54 1 51 12
M  V30 55 1 52 13
M  V30 56 1 53 16
M  V30 57 1 54 17
M  V30 58 1 55 19
M  V30 59 1 56 20
M  V30 60 1 57 21
M  V30 61 1 58 22
M  V30 62 1 59 22
M  V30 63 1 23 60 CFG=3
M  V30 64 1 61 24
M  V30 65 1 62 24
M  V30 66 1 63 25
M  V30 67 1 64 29
M  V30 68 1 65 31
M  V30 69 1 66 31
M  V30 70 1 67 32
M  V30 71 1 68 32
M  V30 72 1 69 33
M  V30 73 1 70 33
M  V30 74 1 71 35
M  V30 75 1 72 38
M  V30 76 1 73 38
M  V30 77 1 74 38
M  V30 78 1 75 41
M  V30 79 1 76 41
M  V30 80 1 77 41
M  V30 81 1 4 78 CFG=1
M  V30 END BOND
M  V30 END CTAB
M  END
>  <b_m_subgroup_collapsed>  (2190) 
0

>  <r_i_docking_score>  (2190) 
-6.0792865862034402

>  <s_m_subgroup_title>  (2190) 
glide-dock_SP_D22_pv

>  <s_m_subgroupid>  (2190) 
glide-dock_SP_D22_pv

>  <Molecule ChEMBL ID>  (2190) 
CHEMBL5647307

>  <Standard Type>  (2190) 
Ki

>  <Standard Value>  (2190) 
41000.0

>  <label>  (2190) 
0

$$$$
CHEMBL382642
     RDKit          3D

  0  0  0  0  0  0  0  0  0  0999 V3000
M  V30 BEGIN CTAB
M  V30 COUNTS 46 50 0 0 1
M  V30 BEGIN ATOM
M  V30 1 C 12.340868 5.934399 -14.413423 0
M  V30 2 C 11.377783 4.914499 -14.350667 0
M  V30 3 C 10.375307 4.948144 -13.362778 0
M  V30 4 C 10.307660 6.001081 -12.413611 0
M  V30 5 C 9.149593 6.127964 -11.385459 0 CFG=2
M  V30 6 C 8.345023 4.808146 -11.178468 0
M  V30 7 C 7.252232 4.465524 -12.222797 0
M  V30 8 C 6.447122 5.694526 -12.634610 0
M  V30 9 C 7.396188 6.832211 -13.024675 0
M  V30 10 N 8.191233 7.188711 -11.846865 0 CFG=2 CHG=1
M  V30 11 C 8.688623 8.590946 -11.801168 0
M  V30 12 C 8.981515 8.975390 -10.329453 0
M  V30 13 C 9.554021 7.857444 -9.552178 0
M  V30 14 C 9.658246 6.585889 -10.031460 0
M  V30 15 N 10.262642 5.813777 -9.046941 0
M  V30 16 C 10.565433 6.585845 -7.933068 0
M  V30 17 C 11.231011 6.329022 -6.721969 0
M  V30 18 C 11.286021 7.317172 -5.721933 0
M  V30 19 C 10.729193 8.584128 -5.963073 0
M  V30 20 C 10.122207 8.849365 -7.204038 0
M  V30 21 C 10.043320 7.871358 -8.214624 0
M  V30 22 C 11.340146 6.972325 -12.451053 0
M  V30 23 C 12.323978 6.961895 -13.455867 0
M  V30 24 H 13.108277 5.914298 -15.173608 0
M  V30 25 H 11.404047 4.105457 -15.066221 0
M  V30 26 H 9.676137 4.133474 -13.362983 0
M  V30 27 H 9.034310 3.975805 -11.046868 0
M  V30 28 H 7.806500 4.895393 -10.233561 0
M  V30 29 H 7.662060 4.002481 -13.116103 0
M  V30 30 H 6.577785 3.718489 -11.802224 0
M  V30 31 H 5.769214 5.439790 -13.446862 0
M  V30 32 H 5.811110 6.014794 -11.807323 0
M  V30 33 H 8.057184 6.551280 -13.846825 0
M  V30 34 H 6.807984 7.693367 -13.346791 0
M  V30 35 H 9.544003 8.739576 -12.451904 0
M  V30 36 H 7.926741 9.273956 -12.178339 0
M  V30 37 H 9.702271 9.772324 -10.246864 0
M  V30 38 H 8.086021 9.370417 -9.847856 0
M  V30 39 H 10.473804 4.832297 -9.162072 0
M  V30 40 H 11.686043 5.372324 -6.546151 0
M  V30 41 H 11.769038 7.106492 -4.778649 0
M  V30 42 H 10.772499 9.350728 -5.203201 0
M  V30 43 H 9.686244 9.805461 -7.406739 0
M  V30 44 H 11.379531 7.766318 -11.720587 0
M  V30 45 H 13.084779 7.728894 -13.477358 0
M  V30 46 H 7.478502 7.250746 -11.107238 0
M  V30 END ATOM
M  V30 BEGIN BOND
M  V30 1 2 2 1
M  V30 2 1 3 2
M  V30 3 2 4 3
M  V30 4 1 5 4 CFG=3
M  V30 5 1 6 5
M  V30 6 1 7 6
M  V30 7 1 8 7
M  V30 8 1 9 8
M  V30 9 1 10 5
M  V30 10 1 10 9
M  V30 11 1 11 10
M  V30 12 1 12 11
M  V30 13 1 13 12
M  V30 14 1 14 5
M  V30 15 2 14 13
M  V30 16 1 15 14
M  V30 17 1 16 15
M  V30 18 2 17 16
M  V30 19 1 18 17
M  V30 20 2 19 18
M  V30 21 1 20 19
M  V30 22 1 21 13
M  V30 23 1 21 16
M  V30 24 2 21 20
M  V30 25 1 22 4
M  V30 26 1 23 1
M  V30 27 2 23 22
M  V30 28 1 24 1
M  V30 29 1 25 2
M  V30 30 1 26 3
M  V30 31 1 27 6
M  V30 32 1 28 6
M  V30 33 1 29 7
M  V30 34 1 30 7
M  V30 35 1 31 8
M  V30 36 1 32 8
M  V30 37 1 33 9
M  V30 38 1 34 9
M  V30 39 1 35 11
M  V30 40 1 36 11
M  V30 41 1 37 12
M  V30 42 1 38 12
M  V30 43 1 39 15
M  V30 44 1 40 17
M  V30 45 1 41 18
M  V30 46 1 42 19
M  V30 47 1 43 20
M  V30 48 1 44 22
M  V30 49 1 45 23
M  V30 50 1 10 46 CFG=1
M  V30 END BOND
M  V30 END CTAB
M  END
>  <b_m_subgroup_collapsed>  (2191) 
0

>  <r_i_docking_score>  (2191) 
-6.07737165437503

>  <s_m_subgroup_title>  (2191) 
glide-dock_SP_D22_pv

>  <s_m_subgroupid>  (2191) 
glide-dock_SP_D22_pv

>  <Molecule ChEMBL ID>  (2191) 
CHEMBL382642

>  <Standard Type>  (2191) 
Ki

>  <Standard Value>  (2191) 
10000.0

>  <label>  (2191) 
0

$$$$
CHEMBL5407845
     RDKit          3D

  0  0  0  0  0  0  0  0  0  0999 V3000
M  V30 BEGIN CTAB
M  V30 COUNTS 63 65 0 0 1
M  V30 BEGIN ATOM
M  V30 1 C 10.657273 -0.566717 -17.445728 0
M  V30 2 C 10.983388 0.340213 -16.241653 0
M  V30 3 C 9.865414 1.291306 -15.765253 0
M  V30 4 C 10.414340 2.153701 -14.595921 0
M  V30 5 C 11.455243 3.220994 -14.977398 0
M  V30 6 C 8.592895 0.487932 -15.338557 0
M  V30 7 C 7.253277 1.271155 -15.344813 0 CFG=2
M  V30 8 O 7.256224 2.126841 -14.180120 0
M  V30 9 C 6.189102 3.060487 -13.951525 0
M  V30 10 C 6.397792 3.829618 -12.635067 0
M  V30 11 C 7.624804 4.750053 -12.644086 0
M  V30 12 N 7.849010 5.378580 -11.322851 0 CHG=1
M  V30 13 C 9.281772 5.583313 -11.012072 0
M  V30 14 C 9.490144 6.166407 -9.623302 0
M  V30 15 C 8.761124 5.624044 -8.546735 0
M  V30 16 C 8.867806 6.175098 -7.262071 0
M  V30 17 C 9.762955 7.226866 -7.015713 0
M  V30 18 C 10.548851 7.732646 -8.063932 0
M  V30 19 Cl 11.687276 8.972209 -7.702836 0
M  V30 20 C 10.409680 7.219080 -9.374599 0
M  V30 21 Cl 11.392968 7.862053 -10.646420 0
M  V30 22 C 6.081133 0.268965 -15.338937 0
M  V30 23 C 5.300438 0.020434 -14.186941 0
M  V30 24 C 4.166172 -0.806106 -14.302882 0
M  V30 25 C 3.896955 -1.427647 -15.532760 0
M  V30 26 C 4.772996 -1.191483 -16.604231 0
M  V30 27 N 5.829333 -0.357997 -16.514980 0
M  V30 28 C 7.224439 2.126990 -16.634275 0
M  V30 29 C 8.489382 2.972246 -16.780088 0
M  V30 30 O 9.596988 2.106889 -16.902809 0
M  V30 31 H 11.562509 -1.027750 -17.842466 0
M  V30 32 H 9.981820 -1.379990 -17.183092 0
M  V30 33 H 10.204977 -0.000753 -18.261488 0
M  V30 34 H 11.859345 0.925941 -16.521530 0
M  V30 35 H 11.285845 -0.257326 -15.389859 0
M  V30 36 H 9.602049 2.658724 -14.086974 0
M  V30 37 H 10.849396 1.493552 -13.846780 0
M  V30 38 H 11.788958 3.761686 -14.091172 0
M  V30 39 H 12.340738 2.791870 -15.447089 0
M  V30 40 H 11.044288 3.953837 -15.670709 0
M  V30 41 H 8.748012 0.010017 -14.370121 0
M  V30 42 H 8.463594 -0.331044 -16.041021 0
M  V30 43 H 6.088132 3.772029 -14.766252 0
M  V30 44 H 5.234401 2.554988 -13.858935 0
M  V30 45 H 5.508750 4.426892 -12.428403 0
M  V30 46 H 6.482420 3.118344 -11.814134 0
M  V30 47 H 8.496723 4.155081 -12.910414 0
M  V30 48 H 7.533709 5.526584 -13.403769 0
M  V30 49 H 7.354638 6.267006 -11.250658 0
M  V30 50 H 9.810239 4.629230 -11.059773 0
M  V30 51 H 9.704148 6.222817 -11.785861 0
M  V30 52 H 8.084458 4.797060 -8.698481 0
M  V30 53 H 8.258748 5.791833 -6.459444 0
M  V30 54 H 9.856905 7.633684 -6.019571 0
M  V30 55 H 5.534228 0.483337 -13.241259 0
M  V30 56 H 3.515511 -0.976153 -13.458464 0
M  V30 57 H 3.054415 -2.093731 -15.655026 0
M  V30 58 H 4.610072 -1.668322 -17.560049 0
M  V30 59 H 7.196890 1.485941 -17.515306 0
M  V30 60 H 6.315670 2.717130 -16.696636 0
M  V30 61 H 8.448169 3.583454 -17.682644 0
M  V30 62 H 8.626857 3.647738 -15.934976 0
M  V30 63 H 7.462664 4.776047 -10.610974 0
M  V30 END ATOM
M  V30 BEGIN BOND
M  V30 1 1 2 1
M  V30 2 1 3 2
M  V30 3 1 4 3
M  V30 4 1 5 4
M  V30 5 1 6 3
M  V30 6 1 7 6
M  V30 7 1 7 8 CFG=1
M  V30 8 1 9 8
M  V30 9 1 10 9
M  V30 10 1 11 10
M  V30 11 1 12 11
M  V30 12 1 13 12
M  V30 13 1 14 13
M  V30 14 2 15 14
M  V30 15 1 16 15
M  V30 16 2 17 16
M  V30 17 1 18 17
M  V30 18 1 19 18
M  V30 19 1 20 14
M  V30 20 2 20 18
M  V30 21 1 21 20
M  V30 22 1 22 7
M  V30 23 2 23 22
M  V30 24 1 24 23
M  V30 25 2 25 24
M  V30 26 1 26 25
M  V30 27 1 27 22
M  V30 28 2 27 26
M  V30 29 1 28 7
M  V30 30 1 29 28
M  V30 31 1 30 3
M  V30 32 1 30 29
M  V30 33 1 31 1
M  V30 34 1 32 1
M  V30 35 1 33 1
M  V30 36 1 34 2
M  V30 37 1 35 2
M  V30 38 1 36 4
M  V30 39 1 37 4
M  V30 40 1 38 5
M  V30 41 1 39 5
M  V30 42 1 40 5
M  V30 43 1 41 6
M  V30 44 1 42 6
M  V30 45 1 43 9
M  V30 46 1 44 9
M  V30 47 1 45 10
M  V30 48 1 46 10
M  V30 49 1 47 11
M  V30 50 1 48 11
M  V30 51 1 49 12
M  V30 52 1 50 13
M  V30 53 1 51 13
M  V30 54 1 52 15
M  V30 55 1 53 16
M  V30 56 1 54 17
M  V30 57 1 55 23
M  V30 58 1 56 24
M  V30 59 1 57 25
M  V30 60 1 58 26
M  V30 61 1 59 28
M  V30 62 1 60 28
M  V30 63 1 61 29
M  V30 64 1 62 29
M  V30 65 1 63 12
M  V30 END BOND
M  V30 END CTAB
M  END
>  <b_m_subgroup_collapsed>  (2192) 
0

>  <r_i_docking_score>  (2192) 
-6.0750188758703398

>  <s_m_subgroup_title>  (2192) 
glide-dock_SP_D22_pv

>  <s_m_subgroupid>  (2192) 
glide-dock_SP_D22_pv

>  <Molecule ChEMBL ID>  (2192) 
CHEMBL5407845

>  <Standard Type>  (2192) 
Ki

>  <Standard Value>  (2192) 
13400.0

>  <label>  (2192) 
0

$$$$
CHEMBL109532
     RDKit          3D

  0  0  0  0  0  0  0  0  0  0999 V3000
M  V30 BEGIN CTAB
M  V30 COUNTS 61 63 0 0 1
M  V30 BEGIN ATOM
M  V30 1 C 8.534247 4.927103 -9.399950 0
M  V30 2 C 9.661111 5.634113 -10.167455 0
M  V30 3 N 9.244347 6.969369 -10.684900 0 CFG=2 CHG=1
M  V30 4 C 8.723638 6.993219 -12.079945 0
M  V30 5 C 7.819075 5.873184 -12.464509 0
M  V30 6 C 6.493399 5.623090 -12.247059 0
M  V30 7 C 6.165533 4.389444 -12.868988 0
M  V30 8 C 7.295612 3.905707 -13.473494 0
M  V30 9 C 7.539754 2.688054 -14.244466 0
M  V30 10 C 6.486231 1.755699 -14.273525 0
M  V30 11 C 6.599893 0.564743 -14.994394 0
M  V30 12 S 5.207011 -0.549650 -15.043425 0
M  V30 13 O 5.685900 -1.876314 -14.646706 0
M  V30 14 O 4.089471 0.053717 -14.296611 0
M  V30 15 C 4.756651 -0.590419 -16.825705 0
M  V30 16 C 3.499964 -1.427872 -17.044601 0
M  V30 17 C 7.783293 0.273297 -15.690027 0
M  V30 18 C 8.860464 1.174579 -15.642504 0
M  V30 19 C 8.759477 2.391700 -14.917814 0
M  V30 20 O 9.800963 3.298500 -14.850797 0
M  V30 21 C 11.059326 2.933499 -15.401751 0
M  V30 22 N 8.288079 4.822065 -13.220988 0
M  V30 23 C 10.249091 8.057735 -10.439021 0 CFG=2
M  V30 24 C 11.598872 7.800182 -11.158081 0
M  V30 25 C 10.416936 8.349795 -8.943933 0
M  V30 26 C 9.285854 8.315886 -8.109350 0
M  V30 27 C 9.388331 8.572001 -6.737153 0
M  V30 28 C 10.629940 8.913822 -6.173388 0
M  V30 29 C 11.767651 8.974145 -6.994999 0
M  V30 30 C 11.669530 8.675241 -8.366709 0
M  V30 31 H 8.905781 4.026713 -8.911676 0
M  V30 32 H 8.108840 5.565758 -8.623891 0
M  V30 33 H 7.718136 4.620485 -10.052163 0
M  V30 34 H 10.046738 5.004803 -10.971310 0
M  V30 35 H 10.487677 5.746246 -9.464608 0
M  V30 36 H 8.208336 7.941470 -12.247042 0
M  V30 37 H 9.564429 6.972366 -12.766844 0
M  V30 38 H 5.811336 6.232152 -11.678105 0
M  V30 39 H 5.194306 3.918153 -12.862353 0
M  V30 40 H 5.564240 1.955984 -13.749037 0
M  V30 41 H 4.605349 0.433945 -17.162556 0
M  V30 42 H 5.597116 -1.007731 -17.379967 0
M  V30 43 H 3.186927 -1.412131 -18.089712 0
M  V30 44 H 3.687005 -2.463266 -16.761631 0
M  V30 45 H 2.674901 -1.051087 -16.438021 0
M  V30 46 H 7.864705 -0.628352 -16.269758 0
M  V30 47 H 9.754629 0.909841 -16.184334 0
M  V30 48 H 11.785985 3.721232 -15.198925 0
M  V30 49 H 11.440866 2.014189 -14.953875 0
M  V30 50 H 11.005774 2.815605 -16.484394 0
M  V30 51 H 9.232713 4.712100 -13.569836 0
M  V30 52 H 9.828005 8.971673 -10.856257 0
M  V30 53 H 12.245045 8.677012 -11.098585 0
M  V30 54 H 12.141060 6.972739 -10.707689 0
M  V30 55 H 11.499950 7.589226 -12.220600 0
M  V30 56 H 8.310777 8.082562 -8.504364 0
M  V30 57 H 8.491498 8.526752 -6.143737 0
M  V30 58 H 10.707869 9.135621 -5.120095 0
M  V30 59 H 12.724096 9.251691 -6.574222 0
M  V30 60 H 12.573224 8.733829 -8.952895 0
M  V30 61 H 8.422167 7.222842 -10.142737 0
M  V30 END ATOM
M  V30 BEGIN BOND
M  V30 1 1 2 1
M  V30 2 1 3 2
M  V30 3 1 4 3
M  V30 4 1 5 4
M  V30 5 2 6 5
M  V30 6 1 7 6
M  V30 7 2 8 7
M  V30 8 1 9 8
M  V30 9 1 10 9
M  V30 10 2 11 10
M  V30 11 1 12 11
M  V30 12 2 13 12
M  V30 13 2 14 12
M  V30 14 1 15 12
M  V30 15 1 16 15
M  V30 16 1 17 11
M  V30 17 2 18 17
M  V30 18 2 19 9
M  V30 19 1 19 18
M  V30 20 1 20 19
M  V30 21 1 21 20
M  V30 22 1 22 5
M  V30 23 1 22 8
M  V30 24 1 23 3
M  V30 25 1 24 23
M  V30 26 1 25 23
M  V30 27 2 26 25
M  V30 28 1 27 26
M  V30 29 2 28 27
M  V30 30 1 29 28
M  V30 31 1 30 25
M  V30 32 2 30 29
M  V30 33 1 31 1
M  V30 34 1 32 1
M  V30 35 1 33 1
M  V30 36 1 34 2
M  V30 37 1 35 2
M  V30 38 1 36 4
M  V30 39 1 37 4
M  V30 40 1 38 6
M  V30 41 1 39 7
M  V30 42 1 40 10
M  V30 43 1 41 15
M  V30 44 1 42 15
M  V30 45 1 43 16
M  V30 46 1 44 16
M  V30 47 1 45 16
M  V30 48 1 46 17
M  V30 49 1 47 18
M  V30 50 1 48 21
M  V30 51 1 49 21
M  V30 52 1 50 21
M  V30 53 1 51 22
M  V30 54 1 23 52 CFG=3
M  V30 55 1 53 24
M  V30 56 1 54 24
M  V30 57 1 55 24
M  V30 58 1 56 26
M  V30 59 1 57 27
M  V30 60 1 58 28
M  V30 61 1 59 29
M  V30 62 1 60 30
M  V30 63 1 3 61 CFG=1
M  V30 END BOND
M  V30 END CTAB
M  END
>  <b_m_subgroup_collapsed>  (2193) 
0

>  <r_i_docking_score>  (2193) 
-6.0730467336987903

>  <s_m_subgroup_title>  (2193) 
glide-dock_SP_D22_pv

>  <s_m_subgroupid>  (2193) 
glide-dock_SP_D22_pv

>  <Molecule ChEMBL ID>  (2193) 
CHEMBL109532

>  <Standard Type>  (2193) 
Ki

>  <Standard Value>  (2193) 
7.943

>  <label>  (2193) 
1

$$$$
CHEMBL201010
     RDKit          3D

  0  0  0  0  0  0  0  0  0  0999 V3000
M  V30 BEGIN CTAB
M  V30 COUNTS 49 53 0 0 1
M  V30 BEGIN ATOM
M  V30 1 C 9.897223 4.270961 -17.581827 0
M  V30 2 N 10.767478 4.093524 -16.375801 0 CFG=1 CHG=1
M  V30 3 C 11.974180 4.946393 -16.618999 0
M  V30 4 C 12.910887 5.051663 -15.410292 0
M  V30 5 C 12.153041 5.676216 -14.250285 0
M  V30 6 C 10.931432 4.810441 -13.893435 0 CFG=1
M  V30 7 C 10.199851 5.333518 -12.646957 0
M  V30 8 C 9.536020 4.426641 -11.796784 0
M  V30 9 C 8.878734 4.871395 -10.633365 0
M  V30 10 C 8.895809 6.228678 -10.286181 0
M  V30 11 C 9.585864 7.143734 -11.101550 0
M  V30 12 C 10.233853 6.698895 -12.267084 0
M  V30 13 C 10.006674 4.528940 -15.133788 0 CFG=2
M  V30 14 C 8.929252 3.507052 -14.839689 0
M  V30 15 N 7.756961 3.731177 -14.132710 0
M  V30 16 C 7.007542 2.571001 -14.055737 0
M  V30 17 C 5.777917 2.277416 -13.443892 0
M  V30 18 C 5.273080 0.965795 -13.507774 0
M  V30 19 C 5.986586 -0.033570 -14.197516 0
M  V30 20 C 7.213110 0.273520 -14.818574 0
M  V30 21 C 7.757077 1.578267 -14.754340 0
M  V30 22 C 8.943129 2.204871 -15.259859 0
M  V30 23 C 10.008858 1.656472 -16.147356 0
M  V30 24 C 11.187652 2.650094 -16.262732 0
M  V30 25 H 8.960414 3.716334 -17.525782 0
M  V30 26 H 10.408563 3.944678 -18.489117 0
M  V30 27 H 9.620986 5.318604 -17.721029 0
M  V30 28 H 12.536307 4.569695 -17.476881 0
M  V30 29 H 11.658348 5.957679 -16.885424 0
M  V30 30 H 13.304298 4.078475 -15.122598 0
M  V30 31 H 13.776367 5.667132 -15.663104 0
M  V30 32 H 12.817795 5.760962 -13.391003 0
M  V30 33 H 11.859437 6.687100 -14.533468 0
M  V30 34 H 11.339631 3.849726 -13.581701 0
M  V30 35 H 9.525759 3.372057 -12.031274 0
M  V30 36 H 8.356107 4.172745 -9.998918 0
M  V30 37 H 8.385510 6.568820 -9.396317 0
M  V30 38 H 9.609137 8.190611 -10.831059 0
M  V30 39 H 10.760800 7.431419 -12.857573 0
M  V30 40 H 9.517299 5.475081 -15.369239 0
M  V30 41 H 7.527847 4.616758 -13.698109 0
M  V30 42 H 5.232845 3.045361 -12.912981 0
M  V30 43 H 4.329046 0.725882 -13.049940 0
M  V30 44 H 5.597748 -1.039606 -14.258087 0
M  V30 45 H 7.745642 -0.503405 -15.350636 0
M  V30 46 H 10.371493 0.699581 -15.766467 0
M  V30 47 H 9.591427 1.453210 -17.135176 0
M  V30 48 H 11.817966 2.360166 -17.105303 0
M  V30 49 H 11.802203 2.516219 -15.373269 0
M  V30 END ATOM
M  V30 BEGIN BOND
M  V30 1 1 2 1 CFG=3
M  V30 2 1 3 2
M  V30 3 1 4 3
M  V30 4 1 5 4
M  V30 5 1 6 5
M  V30 6 1 7 6
M  V30 7 2 8 7
M  V30 8 1 9 8
M  V30 9 2 10 9
M  V30 10 1 11 10
M  V30 11 1 12 7
M  V30 12 2 12 11
M  V30 13 1 13 2
M  V30 14 1 13 6
M  V30 15 1 14 13
M  V30 16 1 15 14
M  V30 17 1 16 15
M  V30 18 2 17 16
M  V30 19 1 18 17
M  V30 20 2 19 18
M  V30 21 1 20 19
M  V30 22 1 21 16
M  V30 23 2 21 20
M  V30 24 2 22 14
M  V30 25 1 22 21
M  V30 26 1 23 22
M  V30 27 1 24 2
M  V30 28 1 24 23
M  V30 29 1 25 1
M  V30 30 1 26 1
M  V30 31 1 27 1
M  V30 32 1 28 3
M  V30 33 1 29 3
M  V30 34 1 30 4
M  V30 35 1 31 4
M  V30 36 1 32 5
M  V30 37 1 33 5
M  V30 38 1 6 34 CFG=1
M  V30 39 1 35 8
M  V30 40 1 36 9
M  V30 41 1 37 10
M  V30 42 1 38 11
M  V30 43 1 39 12
M  V30 44 1 13 40 CFG=3
M  V30 45 1 41 15
M  V30 46 1 42 17
M  V30 47 1 43 18
M  V30 48 1 44 19
M  V30 49 1 45 20
M  V30 50 1 46 23
M  V30 51 1 47 23
M  V30 52 1 48 24
M  V30 53 1 49 24
M  V30 END BOND
M  V30 END CTAB
M  END
>  <b_m_subgroup_collapsed>  (2194) 
0

>  <r_i_docking_score>  (2194) 
-6.0730389236720299

>  <s_m_subgroup_title>  (2194) 
glide-dock_SP_D22_pv

>  <s_m_subgroupid>  (2194) 
glide-dock_SP_D22_pv

>  <Molecule ChEMBL ID>  (2194) 
CHEMBL201010

>  <Standard Type>  (2194) 
Ki

>  <Standard Value>  (2194) 
10000.0

>  <label>  (2194) 
0

$$$$
CHEMBL3897499
     RDKit          3D

  0  0  0  0  0  0  0  0  0  0999 V3000
M  V30 BEGIN CTAB
M  V30 COUNTS 62 66 0 0 1
M  V30 BEGIN ATOM
M  V30 1 C 9.717923 5.219743 -8.428286 0
M  V30 2 C 9.198399 5.863100 -9.714737 0
M  V30 3 C 8.543762 4.838226 -10.662655 0
M  V30 4 N 7.833237 5.458792 -11.817880 0 CFG=1 CHG=1
M  V30 5 C 8.718907 6.285728 -12.671744 0
M  V30 6 C 9.652532 5.406724 -13.527918 0
M  V30 7 C 8.816774 4.504198 -14.460283 0 CFG=1
M  V30 8 C 9.627207 3.658437 -15.440907 0
M  V30 9 C 10.855525 4.112180 -15.970062 0
M  V30 10 C 11.575592 3.292256 -16.858820 0
M  V30 11 C 12.779257 3.748327 -17.433857 0
M  V30 12 C 13.485627 2.923948 -18.330221 0
M  V30 13 C 13.005218 1.636409 -18.641123 0
M  V30 14 C 13.774792 0.741713 -19.605696 0
M  V30 15 F 13.483544 -0.545538 -19.407696 0
M  V30 16 F 13.449388 1.066604 -20.856617 0
M  V30 17 F 15.091568 0.905563 -19.446884 0
M  V30 18 C 11.797885 1.190785 -18.055914 0
M  V30 19 C 11.068256 2.007743 -17.170189 0
M  V30 20 N 9.896414 1.572682 -16.660341 0
M  V30 21 C 9.161040 2.388362 -15.871466 0
M  V30 22 C 7.779559 1.826643 -15.493952 0 CFG=2
M  V30 23 C 6.933398 1.523534 -16.770401 0
M  V30 24 C 6.183346 0.183623 -16.748581 0
M  V30 25 C 6.984645 2.707823 -14.483985 0 CFG=1
M  V30 26 C 5.993434 1.891615 -13.627066 0
M  V30 27 C 5.132823 2.804405 -12.760066 0
M  V30 28 C 5.967863 3.733633 -11.885418 0
M  V30 29 C 7.019627 4.530197 -12.672626 0 CFG=2
M  V30 30 C 7.878017 3.627739 -13.611577 0 CFG=2
M  V30 31 H 10.172862 5.963673 -7.772884 0
M  V30 32 H 10.476506 4.467177 -8.647928 0
M  V30 33 H 8.907849 4.743646 -7.872442 0
M  V30 34 H 8.486427 6.647871 -9.454819 0
M  V30 35 H 10.043408 6.355542 -10.193713 0
M  V30 36 H 9.296437 4.132172 -11.011381 0
M  V30 37 H 7.842518 4.269088 -10.058534 0
M  V30 38 H 8.086302 6.888346 -13.325132 0
M  V30 39 H 9.287597 7.013151 -12.093870 0
M  V30 40 H 10.297263 6.070679 -14.101069 0
M  V30 41 H 10.321897 4.811351 -12.909389 0
M  V30 42 H 8.204564 5.185891 -15.046053 0
M  V30 43 H 11.248030 5.085370 -15.725391 0
M  V30 44 H 13.161359 4.731333 -17.201645 0
M  V30 45 H 14.405783 3.280068 -18.772894 0
M  V30 46 H 11.411721 0.211449 -18.296263 0
M  V30 47 H 8.008582 0.881003 -14.999380 0
M  V30 48 H 6.248623 2.337947 -17.002504 0
M  V30 49 H 7.576537 1.475152 -17.647848 0
M  V30 50 H 5.740448 -0.026003 -17.722002 0
M  V30 51 H 5.376266 0.157793 -16.018723 0
M  V30 52 H 6.862767 -0.637703 -16.529007 0
M  V30 53 H 6.353112 3.382399 -15.046929 0
M  V30 54 H 5.309049 1.325353 -14.249541 0
M  V30 55 H 6.491510 1.138463 -13.025956 0
M  V30 56 H 4.486084 3.410378 -13.390363 0
M  V30 57 H 4.485877 2.188240 -12.134922 0
M  V30 58 H 5.279937 4.442481 -11.435892 0
M  V30 59 H 6.423913 3.139316 -11.096936 0
M  V30 60 H 6.436526 5.183251 -13.324810 0
M  V30 61 H 8.529873 2.973161 -13.044694 0
M  V30 62 H 7.177862 6.102582 -11.388064 0
M  V30 END ATOM
M  V30 BEGIN BOND
M  V30 1 1 2 1
M  V30 2 1 3 2
M  V30 3 1 4 3
M  V30 4 1 5 4
M  V30 5 1 6 5
M  V30 6 1 7 6
M  V30 7 1 8 7
M  V30 8 1 9 8
M  V30 9 2 10 9
M  V30 10 1 11 10
M  V30 11 2 12 11
M  V30 12 1 13 12
M  V30 13 1 14 13
M  V30 14 1 15 14
M  V30 15 1 16 14
M  V30 16 1 17 14
M  V30 17 2 18 13
M  V30 18 1 19 10
M  V30 19 1 19 18
M  V30 20 2 20 19
M  V30 21 2 21 8
M  V30 22 1 21 20
M  V30 23 1 22 21
M  V30 24 1 23 22
M  V30 25 1 24 23
M  V30 26 1 25 22
M  V30 27 1 26 25
M  V30 28 1 27 26
M  V30 29 1 28 27
M  V30 30 1 29 4
M  V30 31 1 29 28
M  V30 32 1 30 7
M  V30 33 1 30 25
M  V30 34 1 30 29
M  V30 35 1 31 1
M  V30 36 1 32 1
M  V30 37 1 33 1
M  V30 38 1 34 2
M  V30 39 1 35 2
M  V30 40 1 36 3
M  V30 41 1 37 3
M  V30 42 1 38 5
M  V30 43 1 39 5
M  V30 44 1 40 6
M  V30 45 1 41 6
M  V30 46 1 7 42 CFG=3
M  V30 47 1 43 9
M  V30 48 1 44 11
M  V30 49 1 45 12
M  V30 50 1 46 18
M  V30 51 1 22 47 CFG=1
M  V30 52 1 48 23
M  V30 53 1 49 23
M  V30 54 1 50 24
M  V30 55 1 51 24
M  V30 56 1 52 24
M  V30 57 1 25 53 CFG=3
M  V30 58 1 54 26
M  V30 59 1 55 26
M  V30 60 1 56 27
M  V30 61 1 57 27
M  V30 62 1 58 28
M  V30 63 1 59 28
M  V30 64 1 29 60 CFG=3
M  V30 65 1 30 61 CFG=1
M  V30 66 1 4 62 CFG=1
M  V30 END BOND
M  V30 END CTAB
M  END
>  <b_m_subgroup_collapsed>  (2195) 
0

>  <r_i_docking_score>  (2195) 
-6.0719461384694

>  <s_m_subgroup_title>  (2195) 
glide-dock_SP_D22_pv

>  <s_m_subgroupid>  (2195) 
glide-dock_SP_D22_pv

>  <Molecule ChEMBL ID>  (2195) 
CHEMBL3897499

>  <Standard Type>  (2195) 
Ki

>  <Standard Value>  (2195) 
10000.0

>  <label>  (2195) 
0

$$$$
CHEMBL243712
     RDKit          3D

  0  0  0  0  0  0  0  0  0  0999 V3000
M  V30 BEGIN CTAB
M  V30 COUNTS 53 54 0 0 1
M  V30 BEGIN ATOM
M  V30 1 C 9.508507 4.775286 -8.730522 0
M  V30 2 C 8.419641 5.827069 -8.970646 0
M  V30 3 N 8.888762 7.238413 -9.020607 0 CFG=1 CHG=1
M  V30 4 C 8.998524 7.880043 -7.684934 0
M  V30 5 C 10.370168 8.556397 -7.628131 0
M  V30 6 C 10.722224 8.784125 -9.091611 0
M  V30 7 C 10.129974 7.554829 -9.788342 0 CFG=2
M  V30 8 C 9.896207 7.806979 -11.289333 0
M  V30 9 N 9.330091 6.643794 -11.952755 0
M  V30 10 C 9.951225 5.767531 -12.755034 0
M  V30 11 O 11.140917 5.877995 -13.046609 0
M  V30 12 C 9.117478 4.621979 -13.300512 0
M  V30 13 C 9.750637 3.650506 -14.111809 0
M  V30 14 C 9.037199 2.549289 -14.628372 0
M  V30 15 S 9.894819 1.390637 -15.706636 0
M  V30 16 O 11.288031 1.838443 -15.830101 0
M  V30 17 O 9.608659 0.025182 -15.241542 0
M  V30 18 C 9.105816 1.619362 -17.358858 0
M  V30 19 C 9.333614 3.035481 -17.902723 0
M  V30 20 C 7.665171 2.390679 -14.331016 0
M  V30 21 N 6.926904 1.289833 -14.773194 0
M  V30 22 C 7.015439 3.373834 -13.564853 0
M  V30 23 C 7.719987 4.490741 -13.048399 0
M  V30 24 O 7.086642 5.452792 -12.295003 0
M  V30 25 C 5.682013 5.498949 -12.293487 0
M  V30 26 H 9.063180 3.819564 -8.448794 0
M  V30 27 H 10.086766 4.597808 -9.636065 0
M  V30 28 H 10.186122 5.081071 -7.936727 0
M  V30 29 H 7.686077 5.763664 -8.170390 0
M  V30 30 H 7.875610 5.591161 -9.883383 0
M  V30 31 H 8.877824 7.177661 -6.857952 0
M  V30 32 H 8.204855 8.622475 -7.595107 0
M  V30 33 H 11.096728 7.878386 -7.177952 0
M  V30 34 H 10.363375 9.476365 -7.043645 0
M  V30 35 H 11.795495 8.889871 -9.258053 0
M  V30 36 H 10.239882 9.695845 -9.447786 0
M  V30 37 H 10.857574 6.752296 -9.672738 0
M  V30 38 H 10.830419 8.103451 -11.767453 0
M  V30 39 H 9.202291 8.637325 -11.428119 0
M  V30 40 H 8.336108 6.479964 -11.822283 0
M  V30 41 H 10.802420 3.746415 -14.339692 0
M  V30 42 H 9.538666 0.880335 -18.032328 0
M  V30 43 H 8.042930 1.398344 -17.267918 0
M  V30 44 H 8.884539 3.152032 -18.889412 0
M  V30 45 H 8.893655 3.787709 -17.248177 0
M  V30 46 H 10.398157 3.253995 -17.995316 0
M  V30 47 H 7.430234 0.445688 -15.025723 0
M  V30 48 H 6.021779 1.113813 -14.361723 0
M  V30 49 H 5.964157 3.237500 -13.361902 0
M  V30 50 H 5.355821 6.426999 -11.826035 0
M  V30 51 H 5.281727 5.489735 -13.308996 0
M  V30 52 H 5.262335 4.669150 -11.723991 0
M  V30 53 H 8.123117 7.730872 -9.478346 0
M  V30 END ATOM
M  V30 BEGIN BOND
M  V30 1 1 2 1
M  V30 2 1 3 2
M  V30 3 1 4 3
M  V30 4 1 5 4
M  V30 5 1 6 5
M  V30 6 1 7 3
M  V30 7 1 7 6
M  V30 8 1 8 7
M  V30 9 1 9 8
M  V30 10 1 10 9
M  V30 11 2 11 10
M  V30 12 1 12 10
M  V30 13 1 13 12
M  V30 14 2 14 13
M  V30 15 1 15 14
M  V30 16 2 16 15
M  V30 17 2 17 15
M  V30 18 1 18 15
M  V30 19 1 19 18
M  V30 20 1 20 14
M  V30 21 1 21 20
M  V30 22 2 22 20
M  V30 23 2 23 12
M  V30 24 1 23 22
M  V30 25 1 24 23
M  V30 26 1 25 24
M  V30 27 1 26 1
M  V30 28 1 27 1
M  V30 29 1 28 1
M  V30 30 1 29 2
M  V30 31 1 30 2
M  V30 32 1 31 4
M  V30 33 1 32 4
M  V30 34 1 33 5
M  V30 35 1 34 5
M  V30 36 1 35 6
M  V30 37 1 36 6
M  V30 38 1 7 37 CFG=3
M  V30 39 1 38 8
M  V30 40 1 39 8
M  V30 41 1 40 9
M  V30 42 1 41 13
M  V30 43 1 42 18
M  V30 44 1 43 18
M  V30 45 1 44 19
M  V30 46 1 45 19
M  V30 47 1 46 19
M  V30 48 1 47 21
M  V30 49 1 48 21
M  V30 50 1 49 22
M  V30 51 1 50 25
M  V30 52 1 51 25
M  V30 53 1 52 25
M  V30 54 1 3 53 CFG=3
M  V30 END BOND
M  V30 END CTAB
M  END
>  <b_m_subgroup_collapsed>  (2196) 
0

>  <r_i_docking_score>  (2196) 
-6.0712151014370601

>  <s_m_subgroup_title>  (2196) 
glide-dock_SP_D22_pv

>  <s_m_subgroupid>  (2196) 
glide-dock_SP_D22_pv

>  <Molecule ChEMBL ID>  (2196) 
CHEMBL243712

>  <Standard Type>  (2196) 
Ki

>  <Standard Value>  (2196) 
3.0

>  <label>  (2196) 
1

$$$$
CHEMBL4099997
     RDKit          3D

  0  0  0  0  0  0  0  0  0  0999 V3000
M  V30 BEGIN CTAB
M  V30 COUNTS 63 66 0 0 1
M  V30 BEGIN ATOM
M  V30 1 C 12.522369 6.169090 -1.859125 0
M  V30 2 C 12.222490 7.353080 -2.733079 0
M  V30 3 C 12.310466 8.661074 -2.221330 0
M  V30 4 C 12.029112 9.760356 -3.051851 0
M  V30 5 C 11.685303 9.554840 -4.402209 0
M  V30 6 C 11.612481 8.241831 -4.904117 0
M  V30 7 S 11.237292 7.961470 -6.620173 0
M  V30 8 O 11.565862 6.572251 -6.971731 0
M  V30 9 O 11.789231 9.081840 -7.396652 0
M  V30 10 N 9.527438 8.092581 -6.646960 0
M  V30 11 C 8.907444 8.767804 -7.774597 0
M  V30 12 C 9.154428 8.008602 -9.084071 0
M  V30 13 C 8.978300 8.936627 -10.291028 0
M  V30 14 C 9.350996 8.299421 -11.633820 0
M  V30 15 N 8.695162 6.984406 -11.841594 0 CFG=2 CHG=1
M  V30 16 C 9.676648 5.962320 -12.283361 0
M  V30 17 C 9.049366 4.712577 -12.857259 0
M  V30 18 C 7.737079 4.541648 -13.092511 0
M  V30 19 C 7.274252 3.295947 -13.744451 0
M  V30 20 C 6.085885 2.658591 -13.492598 0
M  V30 21 C 4.929482 3.047062 -12.646813 0
M  V30 22 N 6.088619 1.453607 -14.174434 0
M  V30 23 C 7.258905 1.293081 -14.890512 0
M  V30 24 C 7.712529 0.247599 -15.712478 0
M  V30 25 C 8.974051 0.344738 -16.326008 0
M  V30 26 C 9.760766 1.493601 -16.125784 0
M  V30 27 Cl 11.300826 1.623487 -16.890980 0
M  V30 28 C 9.294345 2.541347 -15.307411 0
M  V30 29 C 8.037643 2.466168 -14.650059 0
M  V30 30 C 6.771029 5.658799 -12.712953 0
M  V30 31 C 7.454187 7.036358 -12.647097 0
M  V30 32 C 11.861884 7.138571 -4.073504 0
M  V30 33 H 13.008647 5.390179 -2.442527 0
M  V30 34 H 13.198398 6.418634 -1.046979 0
M  V30 35 H 11.594995 5.772489 -1.449344 0
M  V30 36 H 12.581082 8.829928 -1.188814 0
M  V30 37 H 12.084208 10.760487 -2.646673 0
M  V30 38 H 11.486045 10.396676 -5.048763 0
M  V30 39 H 9.061728 7.218934 -6.397101 0
M  V30 40 H 9.320947 9.769709 -7.840337 0
M  V30 41 H 7.846727 8.880530 -7.577377 0
M  V30 42 H 8.485857 7.148359 -9.135202 0
M  V30 43 H 10.167004 7.607381 -9.121790 0
M  V30 44 H 9.643890 9.772288 -10.115832 0
M  V30 45 H 7.985059 9.372687 -10.331830 0
M  V30 46 H 10.434655 8.174447 -11.634152 0
M  V30 47 H 9.130198 8.976793 -12.458867 0
M  V30 48 H 10.297883 5.693979 -11.431023 0
M  V30 49 H 10.333897 6.372504 -13.050029 0
M  V30 50 H 9.754768 3.927528 -13.082723 0
M  V30 51 H 4.474904 3.964196 -13.018119 0
M  V30 52 H 4.161295 2.271974 -12.646345 0
M  V30 53 H 5.262726 3.212935 -11.621459 0
M  V30 54 H 5.325587 0.793814 -14.141445 0
M  V30 55 H 7.101122 -0.629055 -15.863827 0
M  V30 56 H 9.331676 -0.457665 -16.953323 0
M  V30 57 H 9.916329 3.413184 -15.188536 0
M  V30 58 H 5.965985 5.705592 -13.446861 0
M  V30 59 H 6.308964 5.415186 -11.755136 0
M  V30 60 H 7.686038 7.371160 -13.648787 0
M  V30 61 H 6.767843 7.781231 -12.246963 0
M  V30 62 H 11.796126 6.133727 -4.465236 0
M  V30 63 H 8.363745 6.698731 -10.929431 0
M  V30 END ATOM
M  V30 BEGIN BOND
M  V30 1 1 2 1
M  V30 2 1 3 2
M  V30 3 2 4 3
M  V30 4 1 5 4
M  V30 5 2 6 5
M  V30 6 1 7 6
M  V30 7 2 8 7
M  V30 8 2 9 7
M  V30 9 1 10 7
M  V30 10 1 11 10
M  V30 11 1 12 11
M  V30 12 1 13 12
M  V30 13 1 14 13
M  V30 14 1 15 14
M  V30 15 1 16 15
M  V30 16 1 17 16
M  V30 17 2 18 17
M  V30 18 1 19 18
M  V30 19 2 20 19
M  V30 20 1 21 20
M  V30 21 1 22 20
M  V30 22 1 23 22
M  V30 23 1 24 23
M  V30 24 2 25 24
M  V30 25 1 26 25
M  V30 26 1 27 26
M  V30 27 2 28 26
M  V30 28 1 29 19
M  V30 29 2 29 23
M  V30 30 1 29 28
M  V30 31 1 30 18
M  V30 32 1 31 15
M  V30 33 1 31 30
M  V30 34 2 32 2
M  V30 35 1 32 6
M  V30 36 1 33 1
M  V30 37 1 34 1
M  V30 38 1 35 1
M  V30 39 1 36 3
M  V30 40 1 37 4
M  V30 41 1 38 5
M  V30 42 1 39 10
M  V30 43 1 40 11
M  V30 44 1 41 11
M  V30 45 1 42 12
M  V30 46 1 43 12
M  V30 47 1 44 13
M  V30 48 1 45 13
M  V30 49 1 46 14
M  V30 50 1 47 14
M  V30 51 1 48 16
M  V30 52 1 49 16
M  V30 53 1 50 17
M  V30 54 1 51 21
M  V30 55 1 52 21
M  V30 56 1 53 21
M  V30 57 1 54 22
M  V30 58 1 55 24
M  V30 59 1 56 25
M  V30 60 1 57 28
M  V30 61 1 58 30
M  V30 62 1 59 30
M  V30 63 1 60 31
M  V30 64 1 61 31
M  V30 65 1 62 32
M  V30 66 1 15 63 CFG=1
M  V30 END BOND
M  V30 END CTAB
M  END
>  <b_m_subgroup_collapsed>  (2197) 
0

>  <r_i_docking_score>  (2197) 
-6.0679821759344099

>  <s_m_subgroup_title>  (2197) 
glide-dock_SP_D22_pv

>  <s_m_subgroupid>  (2197) 
glide-dock_SP_D22_pv

>  <Molecule ChEMBL ID>  (2197) 
CHEMBL4099997

>  <Standard Type>  (2197) 
Ki

>  <Standard Value>  (2197) 
56.0

>  <label>  (2197) 
1

$$$$
CHEMBL303979
     RDKit          3D

  0  0  0  0  0  0  0  0  0  0999 V3000
M  V30 BEGIN CTAB
M  V30 COUNTS 40 43 0 0 1
M  V30 BEGIN ATOM
M  V30 1 F 10.278158 0.601538 -16.084795 0
M  V30 2 C 9.214594 1.154639 -15.452631 0
M  V30 3 C 8.025549 0.417378 -15.304372 0
M  V30 4 C 6.922965 0.989232 -14.639183 0
M  V30 5 C 7.002466 2.295546 -14.119579 0
M  V30 6 C 8.209033 3.030478 -14.246467 0
M  V30 7 C 9.306818 2.458511 -14.926704 0
M  V30 8 C 8.348747 4.393850 -13.576173 0 CFG=2
M  V30 9 C 9.327242 4.389233 -12.383153 0
M  V30 10 N 8.701432 5.214934 -11.326372 0 CFG=2 CHG=1
M  V30 11 C 9.202149 4.971486 -9.952939 0
M  V30 12 C 9.562603 6.255326 -9.229546 0
M  V30 13 C 10.560546 7.112059 -9.745512 0
M  V30 14 C 10.921881 8.282847 -9.050041 0
M  V30 15 C 10.288756 8.600355 -7.833514 0
M  V30 16 C 9.286360 7.757076 -7.318867 0
M  V30 17 C 8.927727 6.584860 -8.014894 0
M  V30 18 C 7.259371 4.988276 -11.493509 0
M  V30 19 C 7.037575 4.945008 -12.998985 0 CFG=2
M  V30 20 C 5.770097 4.196452 -13.447035 0
M  V30 21 O 5.922779 2.785192 -13.424885 0
M  V30 22 H 7.957510 -0.591617 -15.690196 0
M  V30 23 H 6.015143 0.416097 -14.518149 0
M  V30 24 H 10.232907 3.004938 -15.025085 0
M  V30 25 H 8.704352 5.091422 -14.337276 0
M  V30 26 H 9.445568 3.373911 -12.005295 0
M  V30 27 H 10.317571 4.750107 -12.654398 0
M  V30 28 H 8.469205 4.415030 -9.367382 0
M  V30 29 H 10.086215 4.337770 -9.977278 0
M  V30 30 H 11.060871 6.874141 -10.671506 0
M  V30 31 H 11.690263 8.933189 -9.445836 0
M  V30 32 H 10.565894 9.495839 -7.297082 0
M  V30 33 H 8.786427 8.006806 -6.393882 0
M  V30 34 H 8.147396 5.952994 -7.607666 0
M  V30 35 H 6.976232 4.030447 -11.047840 0
M  V30 36 H 6.667308 5.772275 -11.027885 0
M  V30 37 H 6.947859 5.984443 -13.304131 0
M  V30 38 H 4.919896 4.471295 -12.821539 0
M  V30 39 H 5.501861 4.490746 -14.460397 0
M  V30 40 H 8.866078 6.187919 -11.543651 0
M  V30 END ATOM
M  V30 BEGIN BOND
M  V30 1 1 2 1
M  V30 2 1 3 2
M  V30 3 2 4 3
M  V30 4 1 5 4
M  V30 5 2 6 5
M  V30 6 2 7 2
M  V30 7 1 7 6
M  V30 8 1 8 6
M  V30 9 1 9 8
M  V30 10 1 10 9
M  V30 11 1 11 10
M  V30 12 1 12 11
M  V30 13 2 13 12
M  V30 14 1 14 13
M  V30 15 2 15 14
M  V30 16 1 16 15
M  V30 17 1 17 12
M  V30 18 2 17 16
M  V30 19 1 18 10
M  V30 20 1 19 8
M  V30 21 1 19 18
M  V30 22 1 20 19
M  V30 23 1 21 5
M  V30 24 1 21 20
M  V30 25 1 22 3
M  V30 26 1 23 4
M  V30 27 1 24 7
M  V30 28 1 8 25 CFG=3
M  V30 29 1 26 9
M  V30 30 1 27 9
M  V30 31 1 28 11
M  V30 32 1 29 11
M  V30 33 1 30 13
M  V30 34 1 31 14
M  V30 35 1 32 15
M  V30 36 1 33 16
M  V30 37 1 34 17
M  V30 38 1 35 18
M  V30 39 1 36 18
M  V30 40 1 19 37 CFG=3
M  V30 41 1 38 20
M  V30 42 1 39 20
M  V30 43 1 10 40 CFG=3
M  V30 END BOND
M  V30 END CTAB
M  END
>  <b_m_subgroup_collapsed>  (2198) 
0

>  <r_i_docking_score>  (2198) 
-6.0664244162570604

>  <s_m_subgroup_title>  (2198) 
glide-dock_SP_D22_pv

>  <s_m_subgroupid>  (2198) 
glide-dock_SP_D22_pv

>  <Molecule ChEMBL ID>  (2198) 
CHEMBL303979

>  <Standard Type>  (2198) 
Ki

>  <Standard Value>  (2198) 
25.12

>  <label>  (2198) 
1

$$$$
CHEMBL598516
     RDKit          3D

  0  0  0  0  0  0  0  0  0  0999 V3000
M  V30 BEGIN CTAB
M  V30 COUNTS 54 58 0 0 1
M  V30 BEGIN ATOM
M  V30 1 C 13.498796 4.585493 -17.023527 0
M  V30 2 N 12.384170 5.552434 -16.829908 0 CFG=2 CHG=1
M  V30 3 C 12.670871 6.574593 -15.795925 0
M  V30 4 C 12.693454 6.032063 -14.358574 0
M  V30 5 C 11.307617 5.855466 -13.761850 0
M  V30 6 C 10.971568 6.655480 -12.647032 0
M  V30 7 C 9.683806 6.618465 -12.094751 0
M  V30 8 Cl 9.315729 7.642551 -10.755898 0
M  V30 9 C 8.704443 5.779777 -12.659806 0
M  V30 10 O 7.431160 5.772512 -12.165789 0
M  V30 11 C 9.040808 4.964512 -13.762202 0
M  V30 12 C 10.347387 4.972633 -14.319668 0
M  V30 13 C 10.710366 4.086504 -15.528047 0 CFG=1
M  V30 14 C 9.702639 2.947099 -15.778492 0
M  V30 15 C 9.521880 1.959946 -14.784187 0
M  V30 16 C 8.595021 0.913958 -14.969308 0
M  V30 17 C 7.827955 0.840762 -16.148535 0
M  V30 18 N 6.901095 -0.227691 -16.279131 0
M  V30 19 C 5.749472 -0.256177 -16.972923 0
M  V30 20 O 5.352026 0.658460 -17.696247 0
M  V30 21 C 4.973125 -1.519318 -16.768850 0
M  V30 22 C 3.612415 -1.382100 -16.119772 0
M  V30 23 C 3.708445 -1.734945 -17.578730 0
M  V30 24 C 8.042159 1.794238 -17.167036 0
M  V30 25 C 8.974516 2.835306 -16.990055 0
M  V30 26 C 9.205092 3.812384 -18.125467 0
M  V30 27 C 10.651440 4.297146 -18.129753 0
M  V30 28 C 11.012765 4.960709 -16.788975 0 CFG=2
M  V30 29 H 13.557945 3.846533 -16.227030 0
M  V30 30 H 13.405623 4.050986 -17.967932 0
M  V30 31 H 14.457872 5.104833 -17.056541 0
M  V30 32 H 11.954498 7.393026 -15.876254 0
M  V30 33 H 13.643239 7.015274 -16.022715 0
M  V30 34 H 13.230524 6.768996 -13.764387 0
M  V30 35 H 13.264400 5.108530 -14.269948 0
M  V30 36 H 11.702394 7.326172 -12.220707 0
M  V30 37 H 7.279275 6.414193 -11.476308 0
M  V30 38 H 8.263064 4.340030 -14.175247 0
M  V30 39 H 11.615428 3.548765 -15.248581 0
M  V30 40 H 10.078208 2.006439 -13.858677 0
M  V30 41 H 8.465046 0.177095 -14.189565 0
M  V30 42 H 7.105575 -1.054956 -15.731345 0
M  V30 43 H 5.548859 -2.404954 -16.493790 0
M  V30 44 H 3.310306 -2.172458 -15.434976 0
M  V30 45 H 3.268852 -0.382575 -15.853547 0
M  V30 46 H 3.400859 -0.975599 -18.296480 0
M  V30 47 H 3.474422 -2.759095 -17.867832 0
M  V30 48 H 7.501731 1.725089 -18.099533 0
M  V30 49 H 8.510156 4.648783 -18.029491 0
M  V30 50 H 8.986622 3.329458 -19.078419 0
M  V30 51 H 10.800868 5.001399 -18.951330 0
M  V30 52 H 11.300284 3.442002 -18.324308 0
M  V30 53 H 10.325285 5.807217 -16.735371 0
M  V30 54 H 12.382504 6.089389 -17.686308 0
M  V30 END ATOM
M  V30 BEGIN BOND
M  V30 1 1 2 1
M  V30 2 1 3 2
M  V30 3 1 4 3
M  V30 4 1 5 4
M  V30 5 1 6 5
M  V30 6 2 7 6
M  V30 7 1 8 7
M  V30 8 1 9 7
M  V30 9 1 10 9
M  V30 10 2 11 9
M  V30 11 2 12 5
M  V30 12 1 12 11
M  V30 13 1 13 12
M  V30 14 1 14 13
M  V30 15 1 15 14
M  V30 16 2 16 15
M  V30 17 1 17 16
M  V30 18 1 18 17
M  V30 19 1 19 18
M  V30 20 2 20 19
M  V30 21 1 21 19
M  V30 22 1 22 21
M  V30 23 1 23 21
M  V30 24 1 23 22
M  V30 25 2 24 17
M  V30 26 2 25 14
M  V30 27 1 25 24
M  V30 28 1 26 25
M  V30 29 1 27 26
M  V30 30 1 28 2
M  V30 31 1 28 13
M  V30 32 1 28 27
M  V30 33 1 29 1
M  V30 34 1 30 1
M  V30 35 1 31 1
M  V30 36 1 32 3
M  V30 37 1 33 3
M  V30 38 1 34 4
M  V30 39 1 35 4
M  V30 40 1 36 6
M  V30 41 1 37 10
M  V30 42 1 38 11
M  V30 43 1 13 39 CFG=1
M  V30 44 1 40 15
M  V30 45 1 41 16
M  V30 46 1 42 18
M  V30 47 1 43 21
M  V30 48 1 44 22
M  V30 49 1 45 22
M  V30 50 1 46 23
M  V30 51 1 47 23
M  V30 52 1 48 24
M  V30 53 1 49 26
M  V30 54 1 50 26
M  V30 55 1 51 27
M  V30 56 1 52 27
M  V30 57 1 28 53 CFG=1
M  V30 58 1 2 54 CFG=3
M  V30 END BOND
M  V30 END CTAB
M  END
>  <b_m_subgroup_collapsed>  (2199) 
0

>  <r_i_docking_score>  (2199) 
-6.0614026315073302

>  <s_m_subgroup_title>  (2199) 
glide-dock_SP_D22_pv

>  <s_m_subgroupid>  (2199) 
glide-dock_SP_D22_pv

>  <Molecule ChEMBL ID>  (2199) 
CHEMBL598516

>  <Standard Type>  (2199) 
Ki

>  <Standard Value>  (2199) 
10000.0

>  <label>  (2199) 
0

$$$$
CHEMBL4082195
     RDKit          3D

  0  0  0  0  0  0  0  0  0  0999 V3000
M  V30 BEGIN CTAB
M  V30 COUNTS 58 61 0 0 1
M  V30 BEGIN ATOM
M  V30 1 O 8.486220 6.361362 -7.447857 0
M  V30 2 C 9.546655 7.190771 -7.228144 0
M  V30 3 C 10.238489 7.107674 -6.003098 0
M  V30 4 C 11.285420 8.004447 -5.717047 0
M  V30 5 C 11.665060 8.971064 -6.669172 0
M  V30 6 C 10.999008 9.028687 -7.907297 0
M  V30 7 C 9.945838 8.141018 -8.197637 0
M  V30 8 O 9.322903 8.247020 -9.415423 0
M  V30 9 C 9.440890 7.106559 -10.258413 0
M  V30 10 C 10.382215 7.430032 -11.422953 0
M  V30 11 N 10.354390 6.360126 -12.444444 0 CHG=1
M  V30 12 C 11.495234 6.395394 -13.384998 0
M  V30 13 C 11.510951 5.171658 -14.316969 0 CFG=2
M  V30 14 C 12.941543 4.850344 -14.761849 0
M  V30 15 O 12.886199 3.772329 -15.673145 0
M  V30 16 C 12.181340 4.130808 -16.837677 0
M  V30 17 C 10.702474 4.351205 -16.455805 0
M  V30 18 C 10.036081 3.101472 -15.843804 0
M  V30 19 C 10.532609 1.787794 -16.044144 0
M  V30 20 C 9.894299 0.678992 -15.452779 0
M  V30 21 C 8.744233 0.865023 -14.664932 0
M  V30 22 C 8.234953 2.160916 -14.467044 0
M  V30 23 C 8.883287 3.268344 -15.048452 0
M  V30 24 C 10.009809 4.801181 -17.747643 0
M  V30 25 C 10.067347 6.158493 -18.136488 0
M  V30 26 C 9.509001 6.585586 -19.356031 0
M  V30 27 C 8.915977 5.651227 -20.222374 0
M  V30 28 C 8.887083 4.291953 -19.866158 0
M  V30 29 C 9.423533 3.867246 -18.635389 0
M  V30 30 O 10.711525 5.418860 -15.483934 0
M  V30 31 H 7.736818 6.801278 -7.846599 0
M  V30 32 H 9.945697 6.372288 -5.267665 0
M  V30 33 H 11.800608 7.948092 -4.768268 0
M  V30 34 H 12.470819 9.658824 -6.454108 0
M  V30 35 H 11.286075 9.768315 -8.639500 0
M  V30 36 H 9.801110 6.218295 -9.734135 0
M  V30 37 H 8.465922 6.856109 -10.655028 0
M  V30 38 H 10.086513 8.367952 -11.891681 0
M  V30 39 H 11.393270 7.567399 -11.036220 0
M  V30 40 H 10.367276 5.468220 -11.968563 0
M  V30 41 H 11.499395 7.321962 -13.957455 0
M  V30 42 H 12.408922 6.402631 -12.789983 0
M  V30 43 H 11.133501 4.307823 -13.767863 0
M  V30 44 H 13.431020 5.718076 -15.209261 0
M  V30 45 H 13.541479 4.544613 -13.905304 0
M  V30 46 H 12.293437 3.347289 -17.587740 0
M  V30 47 H 12.620332 5.028016 -17.278482 0
M  V30 48 H 11.413181 1.605637 -16.640362 0
M  V30 49 H 10.288343 -0.315954 -15.605027 0
M  V30 50 H 8.253345 0.014656 -14.216341 0
M  V30 51 H 7.349355 2.306405 -13.863571 0
M  V30 52 H 8.485937 4.259574 -14.884177 0
M  V30 53 H 10.553775 6.882393 -17.500544 0
M  V30 54 H 9.552820 7.627459 -19.633337 0
M  V30 55 H 8.494360 5.975377 -21.162174 0
M  V30 56 H 8.447195 3.571198 -20.540470 0
M  V30 57 H 9.397307 2.815213 -18.394110 0
M  V30 58 H 9.488836 6.422719 -12.964617 0
M  V30 END ATOM
M  V30 BEGIN BOND
M  V30 1 1 2 1
M  V30 2 2 3 2
M  V30 3 1 4 3
M  V30 4 2 5 4
M  V30 5 1 6 5
M  V30 6 1 7 2
M  V30 7 2 7 6
M  V30 8 1 8 7
M  V30 9 1 9 8
M  V30 10 1 10 9
M  V30 11 1 11 10
M  V30 12 1 12 11
M  V30 13 1 13 12
M  V30 14 1 14 13
M  V30 15 1 15 14
M  V30 16 1 16 15
M  V30 17 1 17 16
M  V30 18 1 18 17
M  V30 19 2 19 18
M  V30 20 1 20 19
M  V30 21 2 21 20
M  V30 22 1 22 21
M  V30 23 1 23 18
M  V30 24 2 23 22
M  V30 25 1 24 17
M  V30 26 2 25 24
M  V30 27 1 26 25
M  V30 28 2 27 26
M  V30 29 1 28 27
M  V30 30 1 29 24
M  V30 31 2 29 28
M  V30 32 1 30 13
M  V30 33 1 30 17
M  V30 34 1 31 1
M  V30 35 1 32 3
M  V30 36 1 33 4
M  V30 37 1 34 5
M  V30 38 1 35 6
M  V30 39 1 36 9
M  V30 40 1 37 9
M  V30 41 1 38 10
M  V30 42 1 39 10
M  V30 43 1 40 11
M  V30 44 1 41 12
M  V30 45 1 42 12
M  V30 46 1 13 43 CFG=1
M  V30 47 1 44 14
M  V30 48 1 45 14
M  V30 49 1 46 16
M  V30 50 1 47 16
M  V30 51 1 48 19
M  V30 52 1 49 20
M  V30 53 1 50 21
M  V30 54 1 51 22
M  V30 55 1 52 23
M  V30 56 1 53 25
M  V30 57 1 54 26
M  V30 58 1 55 27
M  V30 59 1 56 28
M  V30 60 1 57 29
M  V30 61 1 58 11
M  V30 END BOND
M  V30 END CTAB
M  END
>  <b_m_subgroup_collapsed>  (2200) 
0

>  <r_i_docking_score>  (2200) 
-6.0607264572917803

>  <s_m_subgroup_title>  (2200) 
glide-dock_SP_D22_pv

>  <s_m_subgroupid>  (2200) 
glide-dock_SP_D22_pv

>  <Molecule ChEMBL ID>  (2200) 
CHEMBL4082195

>  <Standard Type>  (2200) 
Ki

>  <Standard Value>  (2200) 
15.49

>  <label>  (2200) 
1

$$$$
CHEMBL241082
     RDKit          3D

  0  0  0  0  0  0  0  0  0  0999 V3000
M  V30 BEGIN CTAB
M  V30 COUNTS 41 44 0 0 1
M  V30 BEGIN ATOM
M  V30 1 C 7.185660 1.160470 -15.249782 0
M  V30 2 O 8.193110 2.051070 -14.798623 0
M  V30 3 C 7.818453 3.107664 -13.997170 0
M  V30 4 C 6.486527 3.378517 -13.596630 0
M  V30 5 C 6.205984 4.478755 -12.762897 0
M  V30 6 C 7.242292 5.320735 -12.318083 0
M  V30 7 C 8.575638 5.050345 -12.694160 0
M  V30 8 C 9.700741 5.897027 -12.225473 0
M  V30 9 N 10.646358 6.172328 -13.046904 0
M  V30 10 C 11.876369 6.893215 -12.663895 0
M  V30 11 C 11.865645 7.665152 -11.306878 0
M  V30 12 C 10.804687 7.173436 -10.399226 0
M  V30 13 C 9.808560 6.370034 -10.852975 0
M  V30 14 N 8.978583 6.024548 -9.801657 0
M  V30 15 C 9.434012 6.618379 -8.639095 0
M  V30 16 C 8.981203 6.572314 -7.316771 0
M  V30 17 C 9.687123 7.276864 -6.329982 0
M  V30 18 C 10.805010 8.070404 -6.648943 0
M  V30 19 O 11.402469 8.752619 -5.612123 0
M  V30 20 C 12.352104 9.758419 -5.931958 0
M  V30 21 C 11.249149 8.112164 -7.992824 0
M  V30 22 C 10.586773 7.376317 -9.002673 0
M  V30 23 C 8.848406 3.951202 -13.539404 0
M  V30 24 H 7.647306 0.352918 -15.817527 0
M  V30 25 H 6.486192 1.670879 -15.911300 0
M  V30 26 H 6.642897 0.708212 -14.419106 0
M  V30 27 H 5.663627 2.757431 -13.914241 0
M  V30 28 H 5.191040 4.677469 -12.458836 0
M  V30 29 H 7.002426 6.168524 -11.690179 0
M  V30 30 H 12.687174 6.167142 -12.646845 0
M  V30 31 H 12.150233 7.586152 -13.459945 0
M  V30 32 H 12.840130 7.591803 -10.826810 0
M  V30 33 H 11.721706 8.726132 -11.446633 0
M  V30 34 H 8.142655 5.465377 -9.900706 0
M  V30 35 H 8.098686 6.004739 -7.060031 0
M  V30 36 H 9.352103 7.211224 -5.313385 0
M  V30 37 H 12.743252 10.172199 -5.004951 0
M  V30 38 H 11.891488 10.568708 -6.498404 0
M  V30 39 H 13.203741 9.372395 -6.489564 0
M  V30 40 H 12.111815 8.691095 -8.283603 0
M  V30 41 H 9.865288 3.733706 -13.833735 0
M  V30 END ATOM
M  V30 BEGIN BOND
M  V30 1 1 2 1
M  V30 2 1 3 2
M  V30 3 1 4 3
M  V30 4 2 5 4
M  V30 5 1 6 5
M  V30 6 2 7 6
M  V30 7 1 8 7
M  V30 8 2 9 8
M  V30 9 1 10 9
M  V30 10 1 11 10
M  V30 11 1 12 11
M  V30 12 1 13 8
M  V30 13 2 13 12
M  V30 14 1 14 13
M  V30 15 1 15 14
M  V30 16 1 16 15
M  V30 17 2 17 16
M  V30 18 1 18 17
M  V30 19 1 19 18
M  V30 20 1 20 19
M  V30 21 2 21 18
M  V30 22 1 22 12
M  V30 23 2 22 15
M  V30 24 1 22 21
M  V30 25 2 23 3
M  V30 26 1 23 7
M  V30 27 1 24 1
M  V30 28 1 25 1
M  V30 29 1 26 1
M  V30 30 1 27 4
M  V30 31 1 28 5
M  V30 32 1 29 6
M  V30 33 1 30 10
M  V30 34 1 31 10
M  V30 35 1 32 11
M  V30 36 1 33 11
M  V30 37 1 34 14
M  V30 38 1 35 16
M  V30 39 1 36 17
M  V30 40 1 37 20
M  V30 41 1 38 20
M  V30 42 1 39 20
M  V30 43 1 40 21
M  V30 44 1 41 23
M  V30 END BOND
M  V30 END CTAB
M  END
>  <b_m_subgroup_collapsed>  (2201) 
0

>  <r_i_docking_score>  (2201) 
-6.0591885718688996

>  <s_m_subgroup_title>  (2201) 
glide-dock_SP_D22_pv

>  <s_m_subgroupid>  (2201) 
glide-dock_SP_D22_pv

>  <Molecule ChEMBL ID>  (2201) 
CHEMBL241082

>  <Standard Type>  (2201) 
Ki

>  <Standard Value>  (2201) 
25000.0

>  <label>  (2201) 
0

$$$$
CHEMBL593395
     RDKit          3D

  0  0  0  0  0  0  0  0  0  0999 V3000
M  V30 BEGIN CTAB
M  V30 COUNTS 40 43 0 0 1
M  V30 BEGIN ATOM
M  V30 1 C 10.007465 -1.218629 -17.839273 0
M  V30 2 O 10.731066 -0.028923 -18.119553 0
M  V30 3 C 10.788600 0.940456 -17.140921 0
M  V30 4 C 10.375004 0.738569 -15.803164 0
M  V30 5 C 10.461713 1.787328 -14.868895 0
M  V30 6 C 10.920268 3.069056 -15.251724 0
M  V30 7 C 11.394700 3.250135 -16.571836 0
M  V30 8 C 11.313904 2.194900 -17.505905 0
M  V30 9 C 12.045496 4.562858 -16.960129 0
M  V30 10 C 12.708463 5.218269 -15.742060 0
M  V30 11 N 11.696327 5.432630 -14.684452 0 CFG=2 CHG=1
M  V30 12 C 12.192568 6.202960 -13.520410 0
M  V30 13 C 11.015119 6.692496 -12.650194 0
M  V30 14 C 9.793894 5.772704 -12.648909 0
M  V30 15 C 8.661328 6.153713 -11.898088 0
M  V30 16 C 7.463919 5.422826 -11.992022 0
M  V30 17 C 7.383607 4.319897 -12.859000 0
M  V30 18 C 8.510262 3.927289 -13.604632 0
M  V30 19 C 9.740047 4.621194 -13.479916 0
M  V30 20 C 11.020801 4.193015 -14.208067 0 CFG=1
M  V30 21 H 9.967579 -1.827531 -18.742451 0
M  V30 22 H 8.979137 -1.006682 -17.541908 0
M  V30 23 H 10.486519 -1.813978 -17.060970 0
M  V30 24 H 9.996204 -0.215279 -15.464650 0
M  V30 25 H 10.160062 1.605023 -13.846513 0
M  V30 26 H 11.667150 2.343668 -18.516346 0
M  V30 27 H 12.789087 4.390796 -17.739471 0
M  V30 28 H 11.288640 5.222975 -17.386305 0
M  V30 29 H 13.515009 4.593122 -15.357812 0
M  V30 30 H 13.149392 6.172921 -16.030174 0
M  V30 31 H 12.860947 5.564565 -12.945144 0
M  V30 32 H 12.794238 7.055279 -13.838342 0
M  V30 33 H 11.343836 6.880959 -11.627251 0
M  V30 34 H 10.692080 7.660307 -13.029751 0
M  V30 35 H 8.688236 7.029256 -11.264047 0
M  V30 36 H 6.601590 5.731150 -11.418426 0
M  V30 37 H 6.455380 3.772777 -12.947104 0
M  V30 38 H 8.396582 3.083070 -14.264009 0
M  V30 39 H 11.662241 3.751782 -13.447480 0
M  V30 40 H 10.970761 5.989990 -15.113331 0
M  V30 END ATOM
M  V30 BEGIN BOND
M  V30 1 1 2 1
M  V30 2 1 3 2
M  V30 3 1 4 3
M  V30 4 2 5 4
M  V30 5 1 6 5
M  V30 6 2 7 6
M  V30 7 2 8 3
M  V30 8 1 8 7
M  V30 9 1 9 7
M  V30 10 1 10 9
M  V30 11 1 11 10
M  V30 12 1 12 11
M  V30 13 1 13 12
M  V30 14 1 14 13
M  V30 15 2 15 14
M  V30 16 1 16 15
M  V30 17 2 17 16
M  V30 18 1 18 17
M  V30 19 1 19 14
M  V30 20 2 19 18
M  V30 21 1 20 6
M  V30 22 1 20 11
M  V30 23 1 20 19
M  V30 24 1 21 1
M  V30 25 1 22 1
M  V30 26 1 23 1
M  V30 27 1 24 4
M  V30 28 1 25 5
M  V30 29 1 26 8
M  V30 30 1 27 9
M  V30 31 1 28 9
M  V30 32 1 29 10
M  V30 33 1 30 10
M  V30 34 1 31 12
M  V30 35 1 32 12
M  V30 36 1 33 13
M  V30 37 1 34 13
M  V30 38 1 35 15
M  V30 39 1 36 16
M  V30 40 1 37 17
M  V30 41 1 38 18
M  V30 42 1 20 39 CFG=1
M  V30 43 1 11 40 CFG=3
M  V30 END BOND
M  V30 END CTAB
M  END
>  <b_m_subgroup_collapsed>  (2202) 
0

>  <r_i_docking_score>  (2202) 
-6.0562035788952198

>  <s_m_subgroup_title>  (2202) 
glide-dock_SP_D22_pv

>  <s_m_subgroupid>  (2202) 
glide-dock_SP_D22_pv

>  <Molecule ChEMBL ID>  (2202) 
CHEMBL593395

>  <Standard Type>  (2202) 
Ki

>  <Standard Value>  (2202) 
10000.0

>  <label>  (2202) 
0

$$$$
CHEMBL3085820
     RDKit          3D

  0  0  0  0  0  0  0  0  0  0999 V3000
M  V30 BEGIN CTAB
M  V30 COUNTS 69 71 0 0 1
M  V30 BEGIN ATOM
M  V30 1 C 12.980048 6.440102 -2.999424 0
M  V30 2 C 11.977249 7.455346 -2.521041 0
M  V30 3 C 12.608932 8.351188 -1.447925 0
M  V30 4 C 10.806226 6.608634 -2.004049 0
M  V30 5 O 11.650177 8.387671 -3.562030 0
M  V30 6 C 11.287209 8.029757 -4.815182 0
M  V30 7 O 11.085968 6.882254 -5.203995 0
M  V30 8 N 11.196700 9.168238 -5.586895 0
M  V30 9 C 10.926041 9.146953 -7.018234 0 CFG=1
M  V30 10 C 12.148022 8.653198 -7.818978 0
M  V30 11 C 11.847461 8.551323 -9.323114 0
M  V30 12 C 10.600965 7.684575 -9.556434 0 CFG=2
M  V30 13 C 10.352315 7.377945 -11.040575 0
M  V30 14 C 9.352961 6.211651 -11.202386 0
M  V30 15 N 9.268377 5.678007 -12.583473 0 CFG=1 CHG=1
M  V30 16 C 10.445903 4.834308 -12.933756 0
M  V30 17 C 10.589123 4.582636 -14.436697 0
M  V30 18 C 9.816393 3.358764 -14.951220 0
M  V30 19 N 8.410777 3.297021 -14.539510 0
M  V30 20 C 7.657763 2.139756 -14.891903 0
M  V30 21 C 8.127253 1.323648 -15.956228 0
M  V30 22 C 7.446651 0.168716 -16.366474 0
M  V30 23 C 6.280194 -0.227738 -15.702125 0
M  V30 24 C 5.791180 0.538519 -14.635489 0
M  V30 25 Cl 4.344954 0.008426 -13.848341 0
M  V30 26 C 6.448105 1.728986 -14.238754 0
M  V30 27 Cl 5.685680 2.623639 -12.958130 0
M  V30 28 C 7.731931 4.553774 -14.241015 0
M  V30 29 C 7.968074 4.991495 -12.789146 0
M  V30 30 C 9.389647 8.353343 -8.882482 0
M  V30 31 C 9.593734 8.444658 -7.371845 0
M  V30 32 H 12.486856 5.764680 -3.700520 0
M  V30 33 H 13.819213 6.972062 -3.447706 0
M  V30 34 H 13.332294 5.799548 -2.190136 0
M  V30 35 H 11.872734 9.026827 -1.013751 0
M  V30 36 H 13.066954 7.772255 -0.647378 0
M  V30 37 H 13.400208 8.973966 -1.864686 0
M  V30 38 H 10.268334 6.168270 -2.836538 0
M  V30 39 H 11.144318 5.772353 -1.400744 0
M  V30 40 H 10.082906 7.172980 -1.444193 0
M  V30 41 H 11.399670 10.041865 -5.127003 0
M  V30 42 H 10.805274 10.172758 -7.298631 0
M  V30 43 H 12.465223 7.676218 -7.453296 0
M  V30 44 H 12.980190 9.347000 -7.659941 0
M  V30 45 H 12.713407 8.128139 -9.832128 0
M  V30 46 H 11.691175 9.545956 -9.747242 0
M  V30 47 H 10.785217 6.730590 -9.060105 0
M  V30 48 H 11.310717 7.139941 -11.495489 0
M  V30 49 H 9.987418 8.265193 -11.558742 0
M  V30 50 H 8.371660 6.575757 -10.897643 0
M  V30 51 H 9.592367 5.390440 -10.523080 0
M  V30 52 H 10.444218 3.897894 -12.372716 0
M  V30 53 H 11.349397 5.361160 -12.648371 0
M  V30 54 H 11.643059 4.410683 -14.658784 0
M  V30 55 H 10.327209 5.478364 -15.000834 0
M  V30 56 H 10.316064 2.450619 -14.606343 0
M  V30 57 H 9.884341 3.376151 -16.038628 0
M  V30 58 H 9.022603 1.557868 -16.509153 0
M  V30 59 H 7.828615 -0.429691 -17.180046 0
M  V30 60 H 5.770296 -1.131606 -16.004316 0
M  V30 61 H 8.085756 5.332918 -14.918146 0
M  V30 62 H 6.661164 4.467011 -14.411234 0
M  V30 63 H 7.882083 4.149065 -12.100690 0
M  V30 64 H 7.167418 5.685318 -12.526229 0
M  V30 65 H 9.212960 9.343575 -9.304406 0
M  V30 66 H 8.487835 7.775449 -9.055938 0
M  V30 67 H 9.552065 7.427897 -6.985952 0
M  V30 68 H 8.753145 8.971231 -6.917680 0
M  V30 69 H 9.269861 6.477769 -13.197985 0
M  V30 END ATOM
M  V30 BEGIN BOND
M  V30 1 1 2 1
M  V30 2 1 3 2
M  V30 3 1 4 2
M  V30 4 1 5 2
M  V30 5 1 6 5
M  V30 6 2 7 6
M  V30 7 1 8 6
M  V30 8 1 9 8
M  V30 9 1 10 9
M  V30 10 1 11 10
M  V30 11 1 12 11
M  V30 12 1 13 12
M  V30 13 1 14 13
M  V30 14 1 15 14
M  V30 15 1 16 15
M  V30 16 1 17 16
M  V30 17 1 18 17
M  V30 18 1 19 18
M  V30 19 1 20 19
M  V30 20 2 21 20
M  V30 21 1 22 21
M  V30 22 2 23 22
M  V30 23 1 24 23
M  V30 24 1 25 24
M  V30 25 1 26 20
M  V30 26 2 26 24
M  V30 27 1 27 26
M  V30 28 1 28 19
M  V30 29 1 29 15
M  V30 30 1 29 28
M  V30 31 1 30 12
M  V30 32 1 31 9
M  V30 33 1 31 30
M  V30 34 1 32 1
M  V30 35 1 33 1
M  V30 36 1 34 1
M  V30 37 1 35 3
M  V30 38 1 36 3
M  V30 39 1 37 3
M  V30 40 1 38 4
M  V30 41 1 39 4
M  V30 42 1 40 4
M  V30 43 1 41 8
M  V30 44 1 9 42 CFG=3
M  V30 45 1 43 10
M  V30 46 1 44 10
M  V30 47 1 45 11
M  V30 48 1 46 11
M  V30 49 1 12 47 CFG=1
M  V30 50 1 48 13
M  V30 51 1 49 13
M  V30 52 1 50 14
M  V30 53 1 51 14
M  V30 54 1 52 16
M  V30 55 1 53 16
M  V30 56 1 54 17
M  V30 57 1 55 17
M  V30 58 1 56 18
M  V30 59 1 57 18
M  V30 60 1 58 21
M  V30 61 1 59 22
M  V30 62 1 60 23
M  V30 63 1 61 28
M  V30 64 1 62 28
M  V30 65 1 63 29
M  V30 66 1 64 29
M  V30 67 1 65 30
M  V30 68 1 66 30
M  V30 69 1 67 31
M  V30 70 1 68 31
M  V30 71 1 15 69 CFG=3
M  V30 END BOND
M  V30 END CTAB
M  END
>  <b_m_subgroup_collapsed>  (2203) 
0

>  <r_i_docking_score>  (2203) 
-6.0555282418919099

>  <s_m_subgroup_title>  (2203) 
glide-dock_SP_D22_pv

>  <s_m_subgroupid>  (2203) 
glide-dock_SP_D22_pv

>  <Molecule ChEMBL ID>  (2203) 
CHEMBL3085820

>  <Standard Type>  (2203) 
Ki

>  <Standard Value>  (2203) 
10.47

>  <label>  (2203) 
1

$$$$
CHEMBL204098
     RDKit          3D

  0  0  0  0  0  0  0  0  0  0999 V3000
M  V30 BEGIN CTAB
M  V30 COUNTS 44 46 0 0 1
M  V30 BEGIN ATOM
M  V30 1 C 9.777982 4.350421 -17.911285 0
M  V30 2 N 10.695172 3.790964 -16.890730 0 CFG=2 CHG=1
M  V30 3 C 12.010283 3.409818 -17.475452 0
M  V30 4 C 13.180721 3.935718 -16.635590 0
M  V30 5 C 13.076365 5.428870 -16.376356 0
M  V30 6 C 13.373443 6.285890 -17.459557 0
M  V30 7 C 13.274488 7.680012 -17.322376 0
M  V30 8 C 12.886766 8.227829 -16.091511 0
M  V30 9 C 12.603996 7.386468 -15.002591 0
M  V30 10 C 12.681351 5.981215 -15.124207 0
M  V30 11 C 12.373354 5.147388 -13.875813 0
M  V30 12 C 10.887172 5.080328 -13.518147 0
M  V30 13 C 10.347333 6.167177 -12.794924 0
M  V30 14 C 8.982171 6.218899 -12.458092 0
M  V30 15 N 8.486032 7.369650 -11.846951 0
M  V30 16 C 8.139892 5.143682 -12.794168 0
M  V30 17 O 6.811361 5.175314 -12.477054 0
M  V30 18 C 8.672765 4.036449 -13.479787 0
M  V30 19 C 10.035593 3.990825 -13.855951 0
M  V30 20 C 10.508574 2.745397 -14.600528 0
M  V30 21 C 10.061943 2.720380 -16.074692 0
M  V30 22 H 9.475908 3.588959 -18.632170 0
M  V30 23 H 10.249519 5.171056 -18.453051 0
M  V30 24 H 8.885875 4.760780 -17.444607 0
M  V30 25 H 12.094907 2.330892 -17.609543 0
M  V30 26 H 12.108127 3.830963 -18.476980 0
M  V30 27 H 13.280235 3.372133 -15.720420 0
M  V30 28 H 14.113959 3.749996 -17.169495 0
M  V30 29 H 13.674532 5.874084 -18.411131 0
M  V30 30 H 13.492690 8.330137 -18.156670 0
M  V30 31 H 12.820162 9.300575 -15.983767 0
M  V30 32 H 12.330243 7.838078 -14.062490 0
M  V30 33 H 12.843575 4.171836 -13.874011 0
M  V30 34 H 12.881094 5.643214 -13.047365 0
M  V30 35 H 10.981581 6.997336 -12.524686 0
M  V30 36 H 7.621585 7.372321 -11.289796 0
M  V30 37 H 9.137307 8.066907 -11.519949 0
M  V30 38 H 6.597419 5.918891 -11.929343 0
M  V30 39 H 8.017445 3.213723 -13.726673 0
M  V30 40 H 11.578482 2.585653 -14.509844 0
M  V30 41 H 10.067538 1.883967 -14.096074 0
M  V30 42 H 8.976414 2.830361 -16.098341 0
M  V30 43 H 10.260200 1.741492 -16.512844 0
M  V30 44 H 10.881597 4.561532 -16.259470 0
M  V30 END ATOM
M  V30 BEGIN BOND
M  V30 1 1 2 1
M  V30 2 1 3 2
M  V30 3 1 4 3
M  V30 4 1 5 4
M  V30 5 2 6 5
M  V30 6 1 7 6
M  V30 7 2 8 7
M  V30 8 1 9 8
M  V30 9 1 10 5
M  V30 10 2 10 9
M  V30 11 1 11 10
M  V30 12 1 12 11
M  V30 13 1 13 12
M  V30 14 2 14 13
M  V30 15 1 15 14
M  V30 16 1 16 14
M  V30 17 1 17 16
M  V30 18 2 18 16
M  V30 19 2 19 12
M  V30 20 1 19 18
M  V30 21 1 20 19
M  V30 22 1 21 2
M  V30 23 1 21 20
M  V30 24 1 22 1
M  V30 25 1 23 1
M  V30 26 1 24 1
M  V30 27 1 25 3
M  V30 28 1 26 3
M  V30 29 1 27 4
M  V30 30 1 28 4
M  V30 31 1 29 6
M  V30 32 1 30 7
M  V30 33 1 31 8
M  V30 34 1 32 9
M  V30 35 1 33 11
M  V30 36 1 34 11
M  V30 37 1 35 13
M  V30 38 1 36 15
M  V30 39 1 37 15
M  V30 40 1 38 17
M  V30 41 1 39 18
M  V30 42 1 40 20
M  V30 43 1 41 20
M  V30 44 1 42 21
M  V30 45 1 43 21
M  V30 46 1 2 44 CFG=1
M  V30 END BOND
M  V30 END CTAB
M  END
>  <b_m_subgroup_collapsed>  (2204) 
0

>  <r_i_docking_score>  (2204) 
-6.0552060455324304

>  <s_m_subgroup_title>  (2204) 
glide-dock_SP_D22_pv

>  <s_m_subgroupid>  (2204) 
glide-dock_SP_D22_pv

>  <Molecule ChEMBL ID>  (2204) 
CHEMBL204098

>  <Standard Type>  (2204) 
Ki

>  <Standard Value>  (2204) 
26.1

>  <label>  (2204) 
1

$$$$
CHEMBL379673
     RDKit          3D

  0  0  0  0  0  0  0  0  0  0999 V3000
M  V30 BEGIN CTAB
M  V30 COUNTS 38 40 0 0 1
M  V30 BEGIN ATOM
M  V30 1 C 9.686358 4.378245 -9.046793 0
M  V30 2 N 9.913267 5.834814 -9.139680 0 CFG=2 CHG=1
M  V30 3 C 10.459055 6.425594 -7.897907 0
M  V30 4 C 10.981194 7.869904 -8.072127 0
M  V30 5 C 11.910491 8.138363 -9.281309 0
M  V30 6 C 11.214020 8.510186 -10.608800 0
M  V30 7 C 11.084393 7.415922 -11.636447 0
M  V30 8 N 12.088707 7.211807 -12.569033 0
M  V30 9 C 11.772108 6.198150 -13.447128 0
M  V30 10 C 12.465553 5.625720 -14.528091 0
M  V30 11 C 11.879943 4.563757 -15.239563 0
M  V30 12 C 10.606320 4.092164 -14.865782 0
M  V30 13 C 9.918936 4.679187 -13.784384 0
M  V30 14 C 10.484135 5.747307 -13.047279 0
M  V30 15 C 10.056306 6.544741 -11.922814 0
M  V30 16 C 8.724566 6.420102 -11.241300 0
M  V30 17 C 8.751635 6.551291 -9.708864 0
M  V30 18 H 8.832645 4.139864 -8.408131 0
M  V30 19 H 10.564701 3.863493 -8.661749 0
M  V30 20 H 9.503823 3.986970 -10.045454 0
M  V30 21 H 9.701160 6.395722 -7.112931 0
M  V30 22 H 11.284386 5.803811 -7.548263 0
M  V30 23 H 10.159412 8.583619 -8.075006 0
M  V30 24 H 11.537569 8.111777 -7.164990 0
M  V30 25 H 12.487541 9.017262 -8.995194 0
M  V30 26 H 12.663333 7.372763 -9.430054 0
M  V30 27 H 10.246416 8.974873 -10.426912 0
M  V30 28 H 11.817261 9.305065 -11.043838 0
M  V30 29 H 12.944359 7.749686 -12.590012 0
M  V30 30 H 13.446256 5.990726 -14.797689 0
M  V30 31 H 12.406642 4.109299 -16.066538 0
M  V30 32 H 10.155849 3.274312 -15.410049 0
M  V30 33 H 8.945245 4.302670 -13.510775 0
M  V30 34 H 8.080519 7.197322 -11.647122 0
M  V30 35 H 8.254548 5.473802 -11.505520 0
M  V30 36 H 7.824017 6.171047 -9.277254 0
M  V30 37 H 8.774445 7.607570 -9.457108 0
M  V30 38 H 10.642767 5.957915 -9.827817 0
M  V30 END ATOM
M  V30 BEGIN BOND
M  V30 1 1 2 1
M  V30 2 1 3 2
M  V30 3 1 4 3
M  V30 4 1 5 4
M  V30 5 1 6 5
M  V30 6 1 7 6
M  V30 7 1 8 7
M  V30 8 1 9 8
M  V30 9 2 10 9
M  V30 10 1 11 10
M  V30 11 2 12 11
M  V30 12 1 13 12
M  V30 13 1 14 9
M  V30 14 2 14 13
M  V30 15 2 15 7
M  V30 16 1 15 14
M  V30 17 1 16 15
M  V30 18 1 17 2
M  V30 19 1 17 16
M  V30 20 1 18 1
M  V30 21 1 19 1
M  V30 22 1 20 1
M  V30 23 1 21 3
M  V30 24 1 22 3
M  V30 25 1 23 4
M  V30 26 1 24 4
M  V30 27 1 25 5
M  V30 28 1 26 5
M  V30 29 1 27 6
M  V30 30 1 28 6
M  V30 31 1 29 8
M  V30 32 1 30 10
M  V30 33 1 31 11
M  V30 34 1 32 12
M  V30 35 1 33 13
M  V30 36 1 34 16
M  V30 37 1 35 16
M  V30 38 1 36 17
M  V30 39 1 37 17
M  V30 40 1 2 38 CFG=3
M  V30 END BOND
M  V30 END CTAB
M  END
>  <b_m_subgroup_collapsed>  (2205) 
0

>  <r_i_docking_score>  (2205) 
-6.0532395658458604

>  <s_m_subgroup_title>  (2205) 
glide-dock_SP_D22_pv

>  <s_m_subgroupid>  (2205) 
glide-dock_SP_D22_pv

>  <Molecule ChEMBL ID>  (2205) 
CHEMBL379673

>  <Standard Type>  (2205) 
Ki

>  <Standard Value>  (2205) 
10000.0

>  <label>  (2205) 
0

$$$$
CHEMBL397103
     RDKit          3D

  0  0  0  0  0  0  0  0  0  0999 V3000
M  V30 BEGIN CTAB
M  V30 COUNTS 43 44 0 0 1
M  V30 BEGIN ATOM
M  V30 1 C 11.645242 8.972377 -8.068778 0
M  V30 2 C 10.978643 8.658161 -9.190694 0
M  V30 3 C 9.464492 8.647049 -9.330382 0
M  V30 4 N 8.887379 7.276700 -9.377215 0 CFG=2 CHG=1
M  V30 5 C 8.874974 6.576736 -8.078379 0
M  V30 6 C 8.686405 5.099048 -8.411210 0
M  V30 7 C 8.928130 4.962152 -9.915540 0
M  V30 8 C 9.446564 6.330400 -10.365666 0 CFG=1
M  V30 9 C 9.072598 6.686418 -11.816233 0
M  V30 10 N 9.710890 5.773838 -12.755936 0
M  V30 11 C 9.110050 4.783310 -13.429925 0
M  V30 12 O 7.927023 4.483827 -13.275326 0
M  V30 13 C 9.992207 3.987722 -14.357806 0
M  V30 14 C 9.726273 2.607966 -14.500889 0
M  V30 15 C 10.485149 1.814384 -15.377945 0
M  V30 16 I 10.085326 -0.227063 -15.549122 0
M  V30 17 C 11.518184 2.396058 -16.130911 0
M  V30 18 C 11.799923 3.765782 -15.995518 0
M  V30 19 C 11.043368 4.582273 -15.115952 0
M  V30 20 O 11.286652 5.935192 -14.970576 0
M  V30 21 C 12.350785 6.529268 -15.701723 0
M  V30 22 H 11.124601 9.244462 -7.159281 0
M  V30 23 H 12.724032 8.961288 -8.045093 0
M  V30 24 H 11.545542 8.390443 -10.072932 0
M  V30 25 H 9.008219 9.192140 -8.503850 0
M  V30 26 H 9.190950 9.187979 -10.237107 0
M  V30 27 H 9.827590 6.712031 -7.563222 0
M  V30 28 H 8.086675 6.956749 -7.423355 0
M  V30 29 H 9.384096 4.493632 -7.847243 0
M  V30 30 H 7.686609 4.766685 -8.142739 0
M  V30 31 H 9.641452 4.171748 -10.147499 0
M  V30 32 H 7.988227 4.719723 -10.410312 0
M  V30 33 H 10.532084 6.314493 -10.262883 0
M  V30 34 H 7.987105 6.695827 -11.944309 0
M  V30 35 H 9.417034 7.689850 -12.060834 0
M  V30 36 H 10.677516 5.949895 -12.995980 0
M  V30 37 H 8.933485 2.143365 -13.930565 0
M  V30 38 H 12.105394 1.784988 -16.798420 0
M  V30 39 H 12.605610 4.166509 -16.590464 0
M  V30 40 H 12.400427 7.590509 -15.455362 0
M  V30 41 H 13.312147 6.084607 -15.439052 0
M  V30 42 H 12.191450 6.449332 -16.778353 0
M  V30 43 H 7.901441 7.387937 -9.635973 0
M  V30 END ATOM
M  V30 BEGIN BOND
M  V30 1 2 2 1
M  V30 2 1 3 2
M  V30 3 1 4 3
M  V30 4 1 5 4
M  V30 5 1 6 5
M  V30 6 1 7 6
M  V30 7 1 8 4
M  V30 8 1 8 7
M  V30 9 1 9 8
M  V30 10 1 10 9
M  V30 11 1 11 10
M  V30 12 2 12 11
M  V30 13 1 13 11
M  V30 14 1 14 13
M  V30 15 2 15 14
M  V30 16 1 16 15
M  V30 17 1 17 15
M  V30 18 2 18 17
M  V30 19 2 19 13
M  V30 20 1 19 18
M  V30 21 1 20 19
M  V30 22 1 21 20
M  V30 23 1 22 1
M  V30 24 1 23 1
M  V30 25 1 24 2
M  V30 26 1 25 3
M  V30 27 1 26 3
M  V30 28 1 27 5
M  V30 29 1 28 5
M  V30 30 1 29 6
M  V30 31 1 30 6
M  V30 32 1 31 7
M  V30 33 1 32 7
M  V30 34 1 8 33 CFG=3
M  V30 35 1 34 9
M  V30 36 1 35 9
M  V30 37 1 36 10
M  V30 38 1 37 14
M  V30 39 1 38 17
M  V30 40 1 39 18
M  V30 41 1 40 21
M  V30 42 1 41 21
M  V30 43 1 42 21
M  V30 44 1 4 43 CFG=3
M  V30 END BOND
M  V30 END CTAB
M  END
>  <b_m_subgroup_collapsed>  (2206) 
0

>  <r_i_docking_score>  (2206) 
-6.0523546277001099

>  <s_m_subgroup_title>  (2206) 
glide-dock_SP_D22_pv

>  <s_m_subgroupid>  (2206) 
glide-dock_SP_D22_pv

>  <Molecule ChEMBL ID>  (2206) 
CHEMBL397103

>  <Standard Type>  (2206) 
Ki

>  <Standard Value>  (2206) 
14.0

>  <label>  (2206) 
1

$$$$
CHEMBL4524906
     RDKit          3D

  0  0  0  0  0  0  0  0  0  0999 V3000
M  V30 BEGIN CTAB
M  V30 COUNTS 54 58 0 0 1
M  V30 BEGIN ATOM
M  V30 1 C 12.446817 8.786640 -7.671762 0
M  V30 2 C 10.989540 8.618722 -7.244715 0
M  V30 3 O 10.643467 9.155426 -6.192280 0
M  V30 4 N 10.139398 7.879213 -8.003235 0
M  V30 5 C 8.920980 7.353831 -7.370252 0
M  V30 6 C 8.668883 5.906644 -7.822252 0
M  V30 7 C 8.619612 5.779634 -9.348186 0
M  V30 8 N 9.645715 6.578788 -10.025764 0
M  V30 9 C 10.343367 7.523061 -9.380017 0
M  V30 10 N 11.244363 8.023557 -10.230595 0 CHG=1
M  V30 11 C 11.174130 7.372351 -11.433162 0
M  V30 12 C 12.199155 7.614867 -12.498874 0
M  V30 13 C 10.090436 6.515911 -11.331550 0
M  V30 14 C 9.686493 5.591121 -12.410058 0
M  V30 15 C 10.532825 5.045961 -13.343261 0
M  V30 16 N 9.873164 4.172444 -14.183277 0
M  V30 17 S 10.661061 3.360746 -15.481627 0
M  V30 18 O 9.939965 2.096862 -15.696181 0
M  V30 19 O 12.085911 3.372334 -15.122790 0
M  V30 20 C 10.431318 4.448966 -16.883759 0
M  V30 21 C 9.443714 4.165941 -17.847727 0
M  V30 22 C 9.284589 5.027412 -18.951532 0
M  V30 23 C 10.112978 6.158590 -19.092869 0
M  V30 24 C 11.109769 6.428773 -18.134430 0
M  V30 25 C 11.266622 5.576742 -17.023073 0
M  V30 26 C 8.550145 4.080709 -13.791845 0
M  V30 27 C 7.477088 3.287461 -14.246498 0
M  V30 28 C 6.206579 3.439495 -13.668400 0
M  V30 29 C 6.002782 4.423775 -12.689212 0
M  V30 30 C 7.073747 5.220710 -12.247744 0
M  V30 31 C 8.390511 5.033895 -12.733967 0
M  V30 32 H 12.896833 7.810866 -7.850406 0
M  V30 33 H 12.541300 9.372268 -8.576823 0
M  V30 34 H 13.015709 9.298647 -6.894895 0
M  V30 35 H 8.086883 8.001614 -7.638130 0
M  V30 36 H 8.969333 7.358927 -6.279605 0
M  V30 37 H 7.740718 5.532448 -7.387954 0
M  V30 38 H 9.474301 5.278136 -7.446967 0
M  V30 39 H 7.669739 6.171355 -9.665929 0
M  V30 40 H 8.692726 4.741899 -9.673795 0
M  V30 41 H 11.720324 7.772420 -13.465563 0
M  V30 42 H 12.836416 8.467664 -12.252602 0
M  V30 43 H 12.859428 6.753017 -12.583901 0
M  V30 44 H 11.592856 5.188763 -13.479345 0
M  V30 45 H 8.811929 3.296530 -17.743023 0
M  V30 46 H 8.524096 4.820991 -19.690207 0
M  V30 47 H 9.986559 6.816119 -19.940916 0
M  V30 48 H 11.745085 7.295133 -18.247429 0
M  V30 49 H 12.027325 5.785297 -16.285175 0
M  V30 50 H 7.619699 2.554825 -15.025925 0
M  V30 51 H 5.384152 2.819205 -13.987573 0
M  V30 52 H 5.022312 4.569558 -12.264100 0
M  V30 53 H 6.862330 5.988939 -11.523129 0
M  V30 54 H 11.919434 8.742467 -9.999739 0
M  V30 END ATOM
M  V30 BEGIN BOND
M  V30 1 1 2 1
M  V30 2 2 3 2
M  V30 3 1 4 2
M  V30 4 1 5 4
M  V30 5 1 6 5
M  V30 6 1 7 6
M  V30 7 1 8 7
M  V30 8 1 9 4
M  V30 9 1 9 8
M  V30 10 2 10 9
M  V30 11 1 11 10
M  V30 12 1 12 11
M  V30 13 1 13 8
M  V30 14 2 13 11
M  V30 15 1 14 13
M  V30 16 2 15 14
M  V30 17 1 16 15
M  V30 18 1 17 16
M  V30 19 2 18 17
M  V30 20 2 19 17
M  V30 21 1 20 17
M  V30 22 2 21 20
M  V30 23 1 22 21
M  V30 24 2 23 22
M  V30 25 1 24 23
M  V30 26 1 25 20
M  V30 27 2 25 24
M  V30 28 1 26 16
M  V30 29 2 27 26
M  V30 30 1 28 27
M  V30 31 2 29 28
M  V30 32 1 30 29
M  V30 33 1 31 14
M  V30 34 1 31 26
M  V30 35 2 31 30
M  V30 36 1 32 1
M  V30 37 1 33 1
M  V30 38 1 34 1
M  V30 39 1 35 5
M  V30 40 1 36 5
M  V30 41 1 37 6
M  V30 42 1 38 6
M  V30 43 1 39 7
M  V30 44 1 40 7
M  V30 45 1 41 12
M  V30 46 1 42 12
M  V30 47 1 43 12
M  V30 48 1 44 15
M  V30 49 1 45 21
M  V30 50 1 46 22
M  V30 51 1 47 23
M  V30 52 1 48 24
M  V30 53 1 49 25
M  V30 54 1 50 27
M  V30 55 1 51 28
M  V30 56 1 52 29
M  V30 57 1 53 30
M  V30 58 1 54 10
M  V30 END BOND
M  V30 END CTAB
M  END
>  <b_m_subgroup_collapsed>  (2207) 
0

>  <r_i_docking_score>  (2207) 
-6.0457464292483998

>  <s_m_subgroup_title>  (2207) 
glide-dock_SP_D22_pv

>  <s_m_subgroupid>  (2207) 
glide-dock_SP_D22_pv

>  <Molecule ChEMBL ID>  (2207) 
CHEMBL4524906

>  <Standard Type>  (2207) 
Ki

>  <Standard Value>  (2207) 
10000.0

>  <label>  (2207) 
0

$$$$
CHEMBL592752
     RDKit          3D

  0  0  0  0  0  0  0  0  0  0999 V3000
M  V30 BEGIN CTAB
M  V30 COUNTS 48 51 0 0 1
M  V30 BEGIN ATOM
M  V30 1 C 12.710629 3.819323 -16.382166 0
M  V30 2 C 11.930144 4.489949 -15.268704 0
M  V30 3 C 12.486330 5.576006 -14.563342 0
M  V30 4 C 11.752073 6.206095 -13.540697 0
M  V30 5 C 10.452021 5.759459 -13.239980 0
M  V30 6 C 9.865161 4.659961 -13.941271 0
M  V30 7 C 10.635424 4.033267 -14.948570 0
M  V30 8 C 8.550229 4.461329 -13.411249 0
M  V30 9 C 8.356199 5.433727 -12.478805 0
M  V30 10 N 9.509107 6.191998 -12.312551 0
M  V30 11 C 9.690857 7.240753 -11.316165 0
M  V30 12 C 10.486470 6.692103 -10.123239 0
M  V30 13 C 10.464669 7.552755 -8.879011 0
M  V30 14 C 9.309999 7.578140 -8.072270 0
M  V30 15 C 9.313430 8.293321 -6.862099 0
M  V30 16 C 10.471321 8.982047 -6.451966 0
M  V30 17 C 11.621417 8.971959 -7.263272 0
M  V30 18 C 11.617989 8.261120 -8.478477 0
M  V30 19 C 7.093853 5.599336 -11.713443 0
M  V30 20 C 5.962410 4.700162 -12.240522 0
M  V30 21 N 6.483831 3.372385 -12.646605 0 CFG=1 CHG=1
M  V30 22 C 5.423923 2.388203 -12.946085 0
M  V30 23 C 7.498003 3.447392 -13.734237 0
M  V30 24 H 13.737511 4.181551 -16.425024 0
M  V30 25 H 12.738507 2.739724 -16.238695 0
M  V30 26 H 12.238218 4.019753 -17.345083 0
M  V30 27 H 13.480625 5.927974 -14.802467 0
M  V30 28 H 12.186321 7.033864 -13.000853 0
M  V30 29 H 10.217177 3.199552 -15.493122 0
M  V30 30 H 8.713085 7.595878 -10.990557 0
M  V30 31 H 10.195703 8.094509 -11.769843 0
M  V30 32 H 11.524454 6.574790 -10.420591 0
M  V30 33 H 10.118693 5.699766 -9.850322 0
M  V30 34 H 8.428830 7.032347 -8.369550 0
M  V30 35 H 8.425088 8.300848 -6.249043 0
M  V30 36 H 10.474346 9.524641 -5.517401 0
M  V30 37 H 12.509699 9.502427 -6.951803 0
M  V30 38 H 12.509762 8.244515 -9.087729 0
M  V30 39 H 7.285504 5.432680 -10.652374 0
M  V30 40 H 6.748060 6.614305 -11.847002 0
M  V30 41 H 5.485025 5.168769 -13.103963 0
M  V30 42 H 5.204101 4.601147 -11.457802 0
M  V30 43 H 4.886493 2.677212 -13.846314 0
M  V30 44 H 5.856986 1.400401 -13.111084 0
M  V30 45 H 4.716480 2.303593 -12.121979 0
M  V30 46 H 6.987104 3.729543 -14.646577 0
M  V30 47 H 7.947332 2.466955 -13.894593 0
M  V30 48 H 6.974353 3.026210 -11.832218 0
M  V30 END ATOM
M  V30 BEGIN BOND
M  V30 1 1 2 1
M  V30 2 1 3 2
M  V30 3 2 4 3
M  V30 4 1 5 4
M  V30 5 2 6 5
M  V30 6 2 7 2
M  V30 7 1 7 6
M  V30 8 1 8 6
M  V30 9 2 9 8
M  V30 10 1 10 5
M  V30 11 1 10 9
M  V30 12 1 11 10
M  V30 13 1 12 11
M  V30 14 1 13 12
M  V30 15 2 14 13
M  V30 16 1 15 14
M  V30 17 2 16 15
M  V30 18 1 17 16
M  V30 19 1 18 13
M  V30 20 2 18 17
M  V30 21 1 19 9
M  V30 22 1 20 19
M  V30 23 1 21 20
M  V30 24 1 22 21
M  V30 25 1 23 8
M  V30 26 1 23 21
M  V30 27 1 24 1
M  V30 28 1 25 1
M  V30 29 1 26 1
M  V30 30 1 27 3
M  V30 31 1 28 4
M  V30 32 1 29 7
M  V30 33 1 30 11
M  V30 34 1 31 11
M  V30 35 1 32 12
M  V30 36 1 33 12
M  V30 37 1 34 14
M  V30 38 1 35 15
M  V30 39 1 36 16
M  V30 40 1 37 17
M  V30 41 1 38 18
M  V30 42 1 39 19
M  V30 43 1 40 19
M  V30 44 1 41 20
M  V30 45 1 42 20
M  V30 46 1 43 22
M  V30 47 1 44 22
M  V30 48 1 45 22
M  V30 49 1 46 23
M  V30 50 1 47 23
M  V30 51 1 21 48 CFG=1
M  V30 END BOND
M  V30 END CTAB
M  END
>  <b_m_subgroup_collapsed>  (2208) 
0

>  <r_i_docking_score>  (2208) 
-6.0445479093535699

>  <s_m_subgroup_title>  (2208) 
glide-dock_SP_D22_pv

>  <s_m_subgroupid>  (2208) 
glide-dock_SP_D22_pv

>  <Molecule ChEMBL ID>  (2208) 
CHEMBL592752

>  <Standard Type>  (2208) 
Ki

>  <Standard Value>  (2208) 
85.11

>  <label>  (2208) 
1

$$$$
CHEMBL1626
     RDKit          3D

  0  0  0  0  0  0  0  0  0  0999 V3000
M  V30 BEGIN CTAB
M  V30 COUNTS 51 53 0 0 1
M  V30 BEGIN ATOM
M  V30 1 C 9.297684 8.374722 -10.010465 0
M  V30 2 N 8.886590 7.481490 -8.907046 0 CFG=2 CHG=1
M  V30 3 C 9.663597 7.608967 -7.656720 0
M  V30 4 C 9.708543 6.209119 -7.038398 0
M  V30 5 C 8.671469 5.404212 -7.823474 0
M  V30 6 C 8.672948 6.042566 -9.197606 0 CFG=2
M  V30 7 C 9.724470 5.389094 -10.118719 0
M  V30 8 C 9.365427 5.551250 -11.594619 0
M  V30 9 O 9.864367 4.486034 -12.403929 0
M  V30 10 C 9.568813 4.518199 -13.815952 0 CFG=2
M  V30 11 C 8.289872 5.351431 -14.093596 0
M  V30 12 C 9.392227 3.061635 -14.300855 0
M  V30 13 C 8.116074 2.490346 -14.546952 0
M  V30 14 C 7.989630 1.169753 -15.016285 0
M  V30 15 C 9.134015 0.390581 -15.257485 0
M  V30 16 C 10.404599 0.938818 -15.015612 0
M  V30 17 C 10.530556 2.252149 -14.524762 0
M  V30 18 C 10.692407 5.198858 -14.616103 0
M  V30 19 C 11.720589 5.934587 -13.981431 0
M  V30 20 C 12.689980 6.613636 -14.745754 0
M  V30 21 C 12.661162 6.547771 -16.150425 0
M  V30 22 Cl 13.856679 7.368257 -17.082777 0
M  V30 23 C 11.660240 5.798077 -16.792347 0
M  V30 24 C 10.680055 5.136303 -16.031992 0
M  V30 25 H 10.318272 8.167399 -10.334675 0
M  V30 26 H 8.619313 8.278154 -10.860686 0
M  V30 27 H 9.261319 9.413998 -9.679276 0
M  V30 28 H 9.168548 8.323903 -6.996275 0
M  V30 29 H 10.676405 7.972987 -7.846251 0
M  V30 30 H 9.498683 6.226050 -5.967942 0
M  V30 31 H 10.702147 5.775436 -7.172963 0
M  V30 32 H 7.688689 5.543359 -7.364269 0
M  V30 33 H 8.876116 4.333312 -7.847734 0
M  V30 34 H 7.684862 5.903930 -9.624062 0
M  V30 35 H 9.756298 4.319429 -9.914145 0
M  V30 36 H 10.718199 5.771903 -9.889967 0
M  V30 37 H 9.711630 6.511688 -11.968506 0
M  V30 38 H 8.280557 5.552320 -11.647065 0
M  V30 39 H 8.093695 5.374586 -15.147655 0
M  V30 40 H 7.401644 4.974848 -13.585768 0
M  V30 41 H 8.391041 6.396623 -13.817158 0
M  V30 42 H 7.203768 3.038573 -14.383172 0
M  V30 43 H 7.010345 0.750202 -15.196779 0
M  V30 44 H 9.037659 -0.624913 -15.616785 0
M  V30 45 H 11.284995 0.341932 -15.189074 0
M  V30 46 H 11.519330 2.641358 -14.331703 0
M  V30 47 H 11.776111 5.998940 -12.907752 0
M  V30 48 H 13.466007 7.176363 -14.248371 0
M  V30 49 H 11.638496 5.745562 -17.871077 0
M  V30 50 H 9.907334 4.582147 -16.545782 0
M  V30 51 H 7.938359 7.773663 -8.686071 0
M  V30 END ATOM
M  V30 BEGIN BOND
M  V30 1 1 2 1
M  V30 2 1 3 2
M  V30 3 1 4 3
M  V30 4 1 5 4
M  V30 5 1 6 2
M  V30 6 1 6 5
M  V30 7 1 7 6
M  V30 8 1 8 7
M  V30 9 1 9 8
M  V30 10 1 10 9 CFG=1
M  V30 11 1 11 10
M  V30 12 1 12 10
M  V30 13 2 13 12
M  V30 14 1 14 13
M  V30 15 2 15 14
M  V30 16 1 16 15
M  V30 17 1 17 12
M  V30 18 2 17 16
M  V30 19 1 18 10
M  V30 20 1 19 18
M  V30 21 2 20 19
M  V30 22 1 21 20
M  V30 23 1 22 21
M  V30 24 2 23 21
M  V30 25 2 24 18
M  V30 26 1 24 23
M  V30 27 1 25 1
M  V30 28 1 26 1
M  V30 29 1 27 1
M  V30 30 1 28 3
M  V30 31 1 29 3
M  V30 32 1 30 4
M  V30 33 1 31 4
M  V30 34 1 32 5
M  V30 35 1 33 5
M  V30 36 1 6 34 CFG=3
M  V30 37 1 35 7
M  V30 38 1 36 7
M  V30 39 1 37 8
M  V30 40 1 38 8
M  V30 41 1 39 11
M  V30 42 1 40 11
M  V30 43 1 41 11
M  V30 44 1 42 13
M  V30 45 1 43 14
M  V30 46 1 44 15
M  V30 47 1 45 16
M  V30 48 1 46 17
M  V30 49 1 47 19
M  V30 50 1 48 20
M  V30 51 1 49 23
M  V30 52 1 50 24
M  V30 53 1 2 51 CFG=1
M  V30 END BOND
M  V30 END CTAB
M  END
>  <b_m_subgroup_collapsed>  (2209) 
0

>  <r_i_docking_score>  (2209) 
-6.0439939777945497

>  <s_m_subgroup_title>  (2209) 
glide-dock_SP_D22_pv

>  <s_m_subgroupid>  (2209) 
glide-dock_SP_D22_pv

>  <Molecule ChEMBL ID>  (2209) 
CHEMBL1626

>  <Standard Type>  (2209) 
Ki

>  <Standard Value>  (2209) 
45.0

>  <label>  (2209) 
1

$$$$
CHEMBL570998
     RDKit          3D

  0  0  0  0  0  0  0  0  0  0999 V3000
M  V30 BEGIN CTAB
M  V30 COUNTS 52 54 0 0 1
M  V30 BEGIN ATOM
M  V30 1 C 9.269463 6.869664 -7.488964 0
M  V30 2 C 9.662313 7.389107 -8.889620 0
M  V30 3 C 9.529356 8.924788 -8.903981 0
M  V30 4 N 8.886025 6.767741 -10.010682 0 CHG=1
M  V30 5 C 8.603053 5.314919 -9.859998 0
M  V30 6 C 7.715912 4.814405 -11.020235 0
M  V30 7 N 8.373782 4.988484 -12.308795 0
M  V30 8 C 9.533225 4.115827 -12.508521 0
M  V30 9 C 9.831720 3.899508 -14.006510 0
M  V30 10 N 9.373614 2.588819 -14.466874 0
M  V30 11 C 10.317250 1.573636 -14.893904 0
M  V30 12 C 9.407824 0.485458 -15.461259 0
M  V30 13 N 8.070921 0.973045 -15.149798 0
M  V30 14 C 6.887048 0.290518 -15.547510 0
M  V30 15 C 6.778349 -0.227585 -16.857990 0
M  V30 16 C 5.603313 -0.888199 -17.268044 0
M  V30 17 C 4.523572 -1.027749 -16.376072 0
M  V30 18 C 4.625195 -0.511932 -15.070909 0
M  V30 19 Cl 3.286029 -0.627805 -13.996472 0
M  V30 20 C 5.806826 0.126244 -14.646422 0
M  V30 21 F 5.897405 0.571382 -13.368173 0
M  V30 22 C 8.096066 2.220587 -14.646950 0
M  V30 23 O 7.112419 2.921146 -14.407384 0
M  V30 24 C 8.627091 6.416708 -12.485183 0
M  V30 25 C 9.486658 7.019065 -11.350082 0
M  V30 26 H 9.804977 7.410944 -6.708321 0
M  V30 27 H 8.203569 6.994574 -7.293400 0
M  V30 28 H 9.520419 5.817393 -7.354525 0
M  V30 29 H 10.714190 7.137177 -9.032916 0
M  V30 30 H 10.057343 9.371152 -8.060939 0
M  V30 31 H 9.950812 9.372611 -9.801940 0
M  V30 32 H 8.486032 9.233453 -8.831642 0
M  V30 33 H 8.068228 5.123927 -8.932306 0
M  V30 34 H 9.535072 4.751189 -9.802160 0
M  V30 35 H 6.778461 5.372046 -11.046892 0
M  V30 36 H 7.437630 3.772372 -10.880147 0
M  V30 37 H 9.359572 3.149403 -12.038981 0
M  V30 38 H 10.411128 4.524664 -12.013344 0
M  V30 39 H 10.909714 3.960393 -14.160726 0
M  V30 40 H 9.395504 4.677631 -14.634446 0
M  V30 41 H 11.010805 1.958751 -15.642434 0
M  V30 42 H 10.886092 1.213277 -14.036732 0
M  V30 43 H 9.591444 -0.484247 -14.997759 0
M  V30 44 H 9.550389 0.386417 -16.537439 0
M  V30 45 H 7.588750 -0.118860 -17.562508 0
M  V30 46 H 5.526993 -1.283824 -18.270550 0
M  V30 47 H 3.618698 -1.528129 -16.692116 0
M  V30 48 H 9.105211 6.562543 -13.446804 0
M  V30 49 H 7.670260 6.939693 -12.534107 0
M  V30 50 H 9.568408 8.089487 -11.531631 0
M  V30 51 H 10.502357 6.625116 -11.381407 0
M  V30 52 H 7.959593 7.211033 -10.017404 0
M  V30 END ATOM
M  V30 BEGIN BOND
M  V30 1 1 2 1
M  V30 2 1 3 2
M  V30 3 1 4 2
M  V30 4 1 5 4
M  V30 5 1 6 5
M  V30 6 1 7 6
M  V30 7 1 8 7
M  V30 8 1 9 8
M  V30 9 1 10 9
M  V30 10 1 11 10
M  V30 11 1 12 11
M  V30 12 1 13 12
M  V30 13 1 14 13
M  V30 14 2 15 14
M  V30 15 1 16 15
M  V30 16 2 17 16
M  V30 17 1 18 17
M  V30 18 1 19 18
M  V30 19 1 20 14
M  V30 20 2 20 18
M  V30 21 1 21 20
M  V30 22 1 22 10
M  V30 23 1 22 13
M  V30 24 2 23 22
M  V30 25 1 24 7
M  V30 26 1 25 4
M  V30 27 1 25 24
M  V30 28 1 26 1
M  V30 29 1 27 1
M  V30 30 1 28 1
M  V30 31 1 29 2
M  V30 32 1 30 3
M  V30 33 1 31 3
M  V30 34 1 32 3
M  V30 35 1 33 5
M  V30 36 1 34 5
M  V30 37 1 35 6
M  V30 38 1 36 6
M  V30 39 1 37 8
M  V30 40 1 38 8
M  V30 41 1 39 9
M  V30 42 1 40 9
M  V30 43 1 41 11
M  V30 44 1 42 11
M  V30 45 1 43 12
M  V30 46 1 44 12
M  V30 47 1 45 15
M  V30 48 1 46 16
M  V30 49 1 47 17
M  V30 50 1 48 24
M  V30 51 1 49 24
M  V30 52 1 50 25
M  V30 53 1 51 25
M  V30 54 1 52 4
M  V30 END BOND
M  V30 END CTAB
M  END
>  <b_m_subgroup_collapsed>  (2210) 
0

>  <r_i_docking_score>  (2210) 
-6.04383350110517

>  <s_m_subgroup_title>  (2210) 
glide-dock_SP_D22_pv

>  <s_m_subgroupid>  (2210) 
glide-dock_SP_D22_pv

>  <Molecule ChEMBL ID>  (2210) 
CHEMBL570998

>  <Standard Type>  (2210) 
Ki

>  <Standard Value>  (2210) 
10000.0

>  <label>  (2210) 
0

$$$$
CHEMBL156164
     RDKit          3D

  0  0  0  0  0  0  0  0  0  0999 V3000
M  V30 BEGIN CTAB
M  V30 COUNTS 49 52 0 0 1
M  V30 BEGIN ATOM
M  V30 1 N 7.664006 -0.030545 -19.125849 0
M  V30 2 C 8.194990 1.169736 -19.370262 0
M  V30 3 O 7.958580 1.772586 -20.412428 0
M  V30 4 C 9.095825 1.814325 -18.294018 0 CFG=2
M  V30 5 C 10.579961 1.421299 -18.496857 0
M  V30 6 C 10.888477 -0.055547 -18.177389 0
M  V30 7 S 10.086032 -0.627499 -16.646736 0
M  V30 8 C 9.570968 0.957693 -15.936407 0 CFG=2
M  V30 9 C 8.768547 0.805028 -14.635033 0
M  V30 10 C 7.344526 1.341688 -14.914115 0 CFG=1
M  V30 11 C 6.244810 0.262901 -14.745703 0
M  V30 12 C 5.515206 0.623904 -13.464311 0
M  V30 13 C 5.694917 2.130922 -13.316457 0
M  V30 14 N 6.952384 2.455281 -13.999204 0
M  V30 15 C 7.614398 3.635966 -13.846725 0
M  V30 16 O 8.666242 3.862208 -14.445056 0
M  V30 17 C 7.074522 4.716333 -12.867826 0 CFG=2
M  V30 18 C 7.753394 6.088361 -13.006533 0
M  V30 19 C 8.918351 6.041714 -12.028983 0
M  V30 20 C 8.383735 5.178382 -10.890821 0
M  V30 21 N 7.286192 4.355451 -11.446920 0 CHG=1
M  V30 22 C 7.444224 1.759039 -16.390671 0
M  V30 23 O 6.486130 2.171628 -17.036488 0
M  V30 24 N 8.671641 1.577175 -16.894567 0
M  V30 25 H 7.053568 -0.448175 -19.812471 0
M  V30 26 H 7.866265 -0.507885 -18.258949 0
M  V30 27 H 9.024868 2.892740 -18.446608 0
M  V30 28 H 10.883192 1.634786 -19.523022 0
M  V30 29 H 11.210177 2.063990 -17.880917 0
M  V30 30 H 11.965612 -0.195677 -18.084261 0
M  V30 31 H 10.561203 -0.701876 -18.992014 0
M  V30 32 H 10.442292 1.590043 -15.760085 0
M  V30 33 H 9.268184 1.360129 -13.843246 0
M  V30 34 H 8.757253 -0.227629 -14.296856 0
M  V30 35 H 5.528318 0.277430 -15.568710 0
M  V30 36 H 6.636015 -0.754591 -14.707447 0
M  V30 37 H 5.998511 0.118465 -12.626507 0
M  V30 38 H 4.466908 0.323025 -13.473569 0
M  V30 39 H 5.682957 2.404943 -12.262345 0
M  V30 40 H 4.886213 2.664665 -13.812992 0
M  V30 41 H 6.006196 4.834098 -13.055122 0
M  V30 42 H 8.086070 6.309030 -14.018264 0
M  V30 43 H 7.059175 6.876568 -12.708255 0
M  V30 44 H 9.776370 5.555732 -12.496090 0
M  V30 45 H 9.232647 7.031758 -11.696239 0
M  V30 46 H 9.164880 4.557834 -10.450796 0
M  V30 47 H 7.972873 5.805442 -10.098023 0
M  V30 48 H 6.458827 4.569614 -10.896701 0
M  V30 49 H 7.505634 3.374348 -11.362139 0
M  V30 END ATOM
M  V30 BEGIN BOND
M  V30 1 1 2 1
M  V30 2 2 3 2
M  V30 3 1 4 2
M  V30 4 1 5 4
M  V30 5 1 6 5
M  V30 6 1 7 6
M  V30 7 1 8 7
M  V30 8 1 9 8
M  V30 9 1 10 9
M  V30 10 1 11 10
M  V30 11 1 12 11
M  V30 12 1 13 12
M  V30 13 1 10 14 CFG=1
M  V30 14 1 14 13
M  V30 15 1 15 14
M  V30 16 2 16 15
M  V30 17 1 17 15
M  V30 18 1 18 17
M  V30 19 1 19 18
M  V30 20 1 20 19
M  V30 21 1 21 17
M  V30 22 1 21 20
M  V30 23 1 22 10
M  V30 24 2 23 22
M  V30 25 1 24 4
M  V30 26 1 24 8
M  V30 27 1 24 22
M  V30 28 1 25 1
M  V30 29 1 26 1
M  V30 30 1 4 27 CFG=3
M  V30 31 1 28 5
M  V30 32 1 29 5
M  V30 33 1 30 6
M  V30 34 1 31 6
M  V30 35 1 8 32 CFG=1
M  V30 36 1 33 9
M  V30 37 1 34 9
M  V30 38 1 35 11
M  V30 39 1 36 11
M  V30 40 1 37 12
M  V30 41 1 38 12
M  V30 42 1 39 13
M  V30 43 1 40 13
M  V30 44 1 17 41 CFG=1
M  V30 45 1 42 18
M  V30 46 1 43 18
M  V30 47 1 44 19
M  V30 48 1 45 19
M  V30 49 1 46 20
M  V30 50 1 47 20
M  V30 51 1 48 21
M  V30 52 1 49 21
M  V30 END BOND
M  V30 END CTAB
M  END
>  <b_m_subgroup_collapsed>  (2211) 
0

>  <r_i_docking_score>  (2211) 
-6.0404137634605197

>  <s_m_subgroup_title>  (2211) 
glide-dock_SP_D22_pv

>  <s_m_subgroupid>  (2211) 
glide-dock_SP_D22_pv

>  <Molecule ChEMBL ID>  (2211) 
CHEMBL156164

>  <Standard Type>  (2211) 
Ki

>  <Standard Value>  (2211) 
0.031

>  <label>  (2211) 
1

$$$$
CHEMBL4453250
     RDKit          3D

  0  0  0  0  0  0  0  0  0  0999 V3000
M  V30 BEGIN CTAB
M  V30 COUNTS 56 60 0 0 1
M  V30 BEGIN ATOM
M  V30 1 C 8.489203 0.240316 -15.007231 0
M  V30 2 O 8.586163 1.435535 -14.246956 0
M  V30 3 C 9.527781 2.374708 -14.604674 0
M  V30 4 C 10.307187 2.280440 -15.777135 0
M  V30 5 C 11.221066 3.295039 -16.091324 0
M  V30 6 C 11.350526 4.417329 -15.249138 0
M  V30 7 C 10.583371 4.555355 -14.048117 0
M  V30 8 C 9.698400 3.486328 -13.749845 0
M  V30 9 C 10.966723 5.822440 -13.459547 0
M  V30 10 C 10.446643 6.513618 -12.248151 0
M  V30 11 N 11.237267 7.365871 -11.493878 0
M  V30 12 C 10.561701 7.743945 -10.346155 0
M  V30 13 N 11.112188 8.394691 -9.368274 0
M  V30 14 C 10.381672 8.677834 -8.222977 0
M  V30 15 C 11.262320 9.167304 -7.076941 0
M  V30 16 O 9.168504 8.582386 -8.031882 0
M  V30 17 N 9.285783 7.219664 -10.498700 0
M  V30 18 C 9.259129 6.434352 -11.625921 0
M  V30 19 C 7.989366 5.690204 -11.982907 0
M  V30 20 C 11.913390 6.389852 -14.270377 0
M  V30 21 N 12.135242 5.557492 -15.359610 0
M  V30 22 S 13.228538 5.920007 -16.648930 0
M  V30 23 O 13.785698 4.636929 -17.102345 0
M  V30 24 O 14.108248 6.972242 -16.122332 0
M  V30 25 C 12.233992 6.621050 -17.968203 0
M  V30 26 C 12.814421 7.604286 -18.796164 0
M  V30 27 C 12.062344 8.171240 -19.843983 0
M  V30 28 C 10.726133 7.771190 -20.051687 0
M  V30 29 C 9.958878 8.356867 -21.079529 0
M  V30 30 C 8.622515 7.958920 -21.278257 0
M  V30 31 C 8.049256 6.973933 -20.452263 0
M  V30 32 C 8.811730 6.382493 -19.426609 0
M  V30 33 C 10.148981 6.779154 -19.219273 0
M  V30 34 C 10.906468 6.197308 -18.183727 0
M  V30 35 H 7.736411 -0.408705 -14.558486 0
M  V30 36 H 8.172421 0.442563 -16.029915 0
M  V30 37 H 9.434011 -0.305056 -15.022276 0
M  V30 38 H 10.218836 1.443368 -16.452225 0
M  V30 39 H 11.804324 3.208864 -16.994932 0
M  V30 40 H 9.130770 3.497965 -12.838175 0
M  V30 41 H 12.206356 7.550577 -11.706898 0
M  V30 42 H 11.679989 10.148210 -7.297390 0
M  V30 43 H 7.848285 5.646933 -13.064265 0
M  V30 44 H 8.009286 4.682340 -11.569572 0
M  V30 45 H 7.115146 6.172459 -11.545370 0
M  V30 46 H 12.434713 7.333151 -14.183249 0
M  V30 47 H 13.830976 7.925302 -18.625113 0
M  V30 48 H 12.508658 8.929414 -20.471334 0
M  V30 49 H 10.388154 9.117144 -21.716444 0
M  V30 50 H 8.036205 8.410662 -22.063202 0
M  V30 51 H 7.025377 6.667189 -20.605236 0
M  V30 52 H 8.362894 5.627263 -18.797918 0
M  V30 53 H 10.457657 5.443607 -17.557377 0
M  V30 54 H 10.683387 9.244661 -6.155528 0
M  V30 55 H 12.085814 8.473235 -6.906198 0
M  V30 56 H 8.459652 7.372858 -9.916640 0
M  V30 END ATOM
M  V30 BEGIN BOND
M  V30 1 1 2 1
M  V30 2 1 3 2
M  V30 3 1 4 3
M  V30 4 2 5 4
M  V30 5 1 6 5
M  V30 6 2 7 6
M  V30 7 2 8 3
M  V30 8 1 8 7
M  V30 9 1 9 7
M  V30 10 1 10 9
M  V30 11 1 11 10
M  V30 12 1 12 11
M  V30 13 2 13 12
M  V30 14 1 14 13
M  V30 15 1 15 14
M  V30 16 2 16 14
M  V30 17 1 17 12
M  V30 18 2 18 10
M  V30 19 1 18 17
M  V30 20 1 19 18
M  V30 21 2 20 9
M  V30 22 1 21 6
M  V30 23 1 21 20
M  V30 24 1 22 21
M  V30 25 2 23 22
M  V30 26 2 24 22
M  V30 27 1 25 22
M  V30 28 1 26 25
M  V30 29 2 27 26
M  V30 30 1 28 27
M  V30 31 2 29 28
M  V30 32 1 30 29
M  V30 33 2 31 30
M  V30 34 1 32 31
M  V30 35 1 33 28
M  V30 36 2 33 32
M  V30 37 2 34 25
M  V30 38 1 34 33
M  V30 39 1 35 1
M  V30 40 1 36 1
M  V30 41 1 37 1
M  V30 42 1 38 4
M  V30 43 1 39 5
M  V30 44 1 40 8
M  V30 45 1 41 11
M  V30 46 1 42 15
M  V30 47 1 43 19
M  V30 48 1 44 19
M  V30 49 1 45 19
M  V30 50 1 46 20
M  V30 51 1 47 26
M  V30 52 1 48 27
M  V30 53 1 49 29
M  V30 54 1 50 30
M  V30 55 1 51 31
M  V30 56 1 52 32
M  V30 57 1 53 34
M  V30 58 1 54 15
M  V30 59 1 55 15
M  V30 60 1 56 17
M  V30 END BOND
M  V30 END CTAB
M  END
>  <b_m_subgroup_collapsed>  (2212) 
0

>  <r_i_docking_score>  (2212) 
-6.03887096803353

>  <s_m_subgroup_title>  (2212) 
glide-dock_SP_D22_pv

>  <s_m_subgroupid>  (2212) 
glide-dock_SP_D22_pv

>  <Molecule ChEMBL ID>  (2212) 
CHEMBL4453250

>  <Standard Type>  (2212) 
Ki

>  <Standard Value>  (2212) 
10000.0

>  <label>  (2212) 
0

$$$$
CHEMBL201241
     RDKit          3D

  0  0  0  0  0  0  0  0  0  0999 V3000
M  V30 BEGIN CTAB
M  V30 COUNTS 46 50 0 0 1
M  V30 BEGIN ATOM
M  V30 1 C 5.686600 1.158373 -13.204683 0
M  V30 2 C 5.949529 2.519072 -13.447205 0
M  V30 3 C 7.049369 2.894480 -14.244086 0
M  V30 4 C 7.929088 1.920764 -14.768447 0
M  V30 5 C 9.111516 2.352902 -15.644556 0 CFG=2
M  V30 6 C 9.367123 1.360819 -16.801645 0
M  V30 7 C 10.477276 1.870301 -17.722921 0
M  V30 8 C 11.760442 2.081030 -16.909887 0
M  V30 9 N 11.550816 3.045234 -15.798993 0 CFG=1 CHG=1
M  V30 10 C 11.528177 4.469611 -16.248512 0
M  V30 11 C 11.723561 5.428075 -15.056409 0
M  V30 12 C 10.839825 5.021868 -13.921812 0
M  V30 13 C 10.287043 3.773626 -13.838205 0
M  V30 14 N 9.588985 3.683443 -12.647899 0
M  V30 15 C 9.615377 4.884851 -11.966759 0
M  V30 16 C 9.033511 5.307735 -10.760116 0
M  V30 17 C 9.286212 6.609781 -10.295365 0
M  V30 18 C 10.117591 7.474794 -11.032937 0
M  V30 19 C 10.688584 7.043399 -12.246112 0
M  V30 20 C 10.436960 5.748975 -12.750764 0
M  V30 21 C 10.429166 2.675956 -14.864371 0 CFG=1
M  V30 22 C 7.668856 0.555776 -14.491888 0
M  V30 23 C 6.546141 0.176601 -13.729468 0
M  V30 24 H 4.836284 0.871036 -12.606563 0
M  V30 25 H 5.301931 3.277100 -13.033191 0
M  V30 26 H 7.229898 3.944496 -14.421550 0
M  V30 27 H 8.789232 3.283299 -16.113369 0
M  V30 28 H 9.665460 0.386131 -16.413315 0
M  V30 29 H 8.450870 1.207659 -17.377230 0
M  V30 30 H 10.653694 1.147599 -18.519621 0
M  V30 31 H 10.171821 2.797230 -18.212837 0
M  V30 32 H 12.084762 1.127722 -16.487661 0
M  V30 33 H 12.573959 2.418786 -17.555849 0
M  V30 34 H 12.312244 4.654870 -16.985666 0
M  V30 35 H 10.578853 4.679132 -16.741478 0
M  V30 36 H 12.764826 5.409235 -14.730559 0
M  V30 37 H 11.512704 6.454017 -15.360182 0
M  V30 38 H 9.122914 2.839141 -12.340981 0
M  V30 39 H 8.391483 4.646618 -10.196165 0
M  V30 40 H 8.824642 6.951115 -9.380907 0
M  V30 41 H 10.307772 8.471455 -10.667870 0
M  V30 42 H 11.321518 7.714169 -12.805279 0
M  V30 43 H 10.739042 1.763916 -14.347522 0
M  V30 44 H 8.312396 -0.225690 -14.866590 0
M  V30 45 H 6.349613 -0.869725 -13.542315 0
M  V30 46 H 12.387191 2.981821 -15.237099 0
M  V30 END ATOM
M  V30 BEGIN BOND
M  V30 1 2 2 1
M  V30 2 1 3 2
M  V30 3 2 4 3
M  V30 4 1 5 4
M  V30 5 1 6 5
M  V30 6 1 7 6
M  V30 7 1 8 7
M  V30 8 1 9 8
M  V30 9 1 10 9
M  V30 10 1 11 10
M  V30 11 1 12 11
M  V30 12 2 13 12
M  V30 13 1 14 13
M  V30 14 1 15 14
M  V30 15 2 16 15
M  V30 16 1 17 16
M  V30 17 2 18 17
M  V30 18 1 19 18
M  V30 19 1 20 12
M  V30 20 1 20 15
M  V30 21 2 20 19
M  V30 22 1 21 5
M  V30 23 1 21 9
M  V30 24 1 21 13
M  V30 25 1 22 4
M  V30 26 1 23 1
M  V30 27 2 23 22
M  V30 28 1 24 1
M  V30 29 1 25 2
M  V30 30 1 26 3
M  V30 31 1 5 27 CFG=3
M  V30 32 1 28 6
M  V30 33 1 29 6
M  V30 34 1 30 7
M  V30 35 1 31 7
M  V30 36 1 32 8
M  V30 37 1 33 8
M  V30 38 1 34 10
M  V30 39 1 35 10
M  V30 40 1 36 11
M  V30 41 1 37 11
M  V30 42 1 38 14
M  V30 43 1 39 16
M  V30 44 1 40 17
M  V30 45 1 41 18
M  V30 46 1 42 19
M  V30 47 1 21 43 CFG=1
M  V30 48 1 44 22
M  V30 49 1 45 23
M  V30 50 1 9 46 CFG=1
M  V30 END BOND
M  V30 END CTAB
M  END
>  <b_m_subgroup_collapsed>  (2213) 
0

>  <r_i_docking_score>  (2213) 
-6.0384569279474603

>  <s_m_subgroup_title>  (2213) 
glide-dock_SP_D22_pv

>  <s_m_subgroupid>  (2213) 
glide-dock_SP_D22_pv

>  <Molecule ChEMBL ID>  (2213) 
CHEMBL201241

>  <Standard Type>  (2213) 
Ki

>  <Standard Value>  (2213) 
10000.0

>  <label>  (2213) 
0

$$$$
CHEMBL46880
     RDKit          3D

  0  0  0  0  0  0  0  0  0  0999 V3000
M  V30 BEGIN CTAB
M  V30 COUNTS 42 44 0 0 1
M  V30 BEGIN ATOM
M  V30 1 Br 12.485862 8.421264 -2.045002 0
M  V30 2 C 11.793167 8.430284 -3.812191 0
M  V30 3 C 11.501200 9.654963 -4.432106 0
M  V30 4 C 10.950134 9.680152 -5.725585 0
M  V30 5 C 10.637535 8.477489 -6.392138 0
M  V30 6 O 10.046500 8.593205 -7.628377 0
M  V30 7 C 9.294981 7.489570 -8.113725 0
M  V30 8 C 10.151053 6.556709 -8.993328 0 CFG=1
M  V30 9 C 9.491642 5.178744 -9.180991 0
M  V30 10 C 8.270701 5.260488 -10.103351 0
M  V30 11 N 8.621373 5.822239 -11.430004 0 CFG=1 CHG=1
M  V30 12 C 7.473730 5.815792 -12.369323 0
M  V30 13 C 7.079432 4.411667 -12.797500 0
M  V30 14 C 5.875751 3.722918 -12.196047 0
M  V30 15 C 5.831773 4.192209 -13.625044 0
M  V30 16 C 9.237736 7.170296 -11.315849 0
M  V30 17 C 10.461110 7.170516 -10.371841 0
M  V30 18 C 10.934427 7.243124 -5.761203 0
M  V30 19 C 11.529627 7.221951 -4.483849 0
M  V30 20 H 11.687089 10.572173 -3.899306 0
M  V30 21 H 10.731184 10.624880 -6.198211 0
M  V30 22 H 8.807365 6.952867 -7.299685 0
M  V30 23 H 8.486576 7.906493 -8.702311 0
M  V30 24 H 11.097144 6.396822 -8.480071 0
M  V30 25 H 10.203066 4.467509 -9.593270 0
M  V30 26 H 9.193737 4.766294 -8.216351 0
M  V30 27 H 7.514063 5.885276 -9.639800 0
M  V30 28 H 7.837355 4.266923 -10.213780 0
M  V30 29 H 6.617250 6.326794 -11.929146 0
M  V30 30 H 7.740520 6.369036 -13.269304 0
M  V30 31 H 7.922011 3.779473 -13.073452 0
M  V30 32 H 5.942422 2.652383 -12.019286 0
M  V30 33 H 5.287428 4.275725 -11.468053 0
M  V30 34 H 5.205924 5.053740 -13.846479 0
M  V30 35 H 5.871400 3.433157 -14.403977 0
M  V30 36 H 8.487111 7.885988 -10.977322 0
M  V30 37 H 9.554510 7.509418 -12.301138 0
M  V30 38 H 10.836643 8.189084 -10.253904 0
M  V30 39 H 11.275024 6.613715 -10.838834 0
M  V30 40 H 10.719372 6.298822 -6.234316 0
M  V30 41 H 11.746861 6.277411 -4.006297 0
M  V30 42 H 9.323359 5.214741 -11.825333 0
M  V30 END ATOM
M  V30 BEGIN BOND
M  V30 1 1 2 1
M  V30 2 1 3 2
M  V30 3 2 4 3
M  V30 4 1 5 4
M  V30 5 1 6 5
M  V30 6 1 7 6
M  V30 7 1 8 7
M  V30 8 1 9 8
M  V30 9 1 10 9
M  V30 10 1 11 10
M  V30 11 1 12 11
M  V30 12 1 13 12
M  V30 13 1 14 13
M  V30 14 1 15 13
M  V30 15 1 15 14
M  V30 16 1 16 11
M  V30 17 1 17 8
M  V30 18 1 17 16
M  V30 19 2 18 5
M  V30 20 2 19 2
M  V30 21 1 19 18
M  V30 22 1 20 3
M  V30 23 1 21 4
M  V30 24 1 22 7
M  V30 25 1 23 7
M  V30 26 1 8 24 CFG=1
M  V30 27 1 25 9
M  V30 28 1 26 9
M  V30 29 1 27 10
M  V30 30 1 28 10
M  V30 31 1 29 12
M  V30 32 1 30 12
M  V30 33 1 31 13
M  V30 34 1 32 14
M  V30 35 1 33 14
M  V30 36 1 34 15
M  V30 37 1 35 15
M  V30 38 1 36 16
M  V30 39 1 37 16
M  V30 40 1 38 17
M  V30 41 1 39 17
M  V30 42 1 40 18
M  V30 43 1 41 19
M  V30 44 1 11 42 CFG=3
M  V30 END BOND
M  V30 END CTAB
M  END
>  <b_m_subgroup_collapsed>  (2214) 
0

>  <r_i_docking_score>  (2214) 
-6.0379276322652498

>  <s_m_subgroup_title>  (2214) 
glide-dock_SP_D22_pv

>  <s_m_subgroupid>  (2214) 
glide-dock_SP_D22_pv

>  <Molecule ChEMBL ID>  (2214) 
CHEMBL46880

>  <Standard Type>  (2214) 
Ki

>  <Standard Value>  (2214) 
10000.0

>  <label>  (2214) 
0

$$$$
CHEMBL4455588
     RDKit          3D

  0  0  0  0  0  0  0  0  0  0999 V3000
M  V30 BEGIN CTAB
M  V30 COUNTS 32 34 0 0 1
M  V30 BEGIN ATOM
M  V30 1 C 12.188919 6.401638 -15.008374 0
M  V30 2 C 11.907162 5.430839 -13.853795 0
M  V30 3 N 10.550488 5.573010 -13.350525 0
M  V30 4 C 9.474476 4.972275 -13.879763 0
M  V30 5 N 8.327617 5.248983 -13.278347 0
M  V30 6 C 8.696554 6.104633 -12.244715 0
M  V30 7 C 10.060826 6.311663 -12.264445 0
M  V30 8 C 10.885835 7.110917 -11.355442 0
M  V30 9 C 12.066839 7.772244 -11.603744 0
M  V30 10 N 12.485774 8.439254 -10.467302 0
M  V30 11 C 11.641571 8.175153 -9.417376 0
M  V30 12 C 11.662566 8.571185 -8.068137 0
M  V30 13 C 10.640115 8.134646 -7.208652 0
M  V30 14 C 9.611638 7.314764 -7.712057 0
M  V30 15 C 8.502846 6.848130 -6.803699 0
M  V30 16 C 9.599170 6.933921 -9.067396 0
M  V30 17 C 10.614902 7.347624 -9.957567 0
M  V30 18 H 13.217929 6.302300 -15.353993 0
M  V30 19 H 11.532539 6.205627 -15.856752 0
M  V30 20 H 12.037622 7.438556 -14.708759 0
M  V30 21 H 12.620332 5.572117 -13.046770 0
M  V30 22 H 12.042274 4.403556 -14.194132 0
M  V30 23 H 9.532480 4.322066 -14.740429 0
M  V30 24 H 7.953114 6.503651 -11.569327 0
M  V30 25 H 12.631657 7.863942 -12.519378 0
M  V30 26 H 13.266451 9.093226 -10.435307 0
M  V30 27 H 12.458677 9.197160 -7.693996 0
M  V30 28 H 10.642913 8.428415 -6.169184 0
M  V30 29 H 7.964680 6.001522 -7.230291 0
M  V30 30 H 8.913877 6.536916 -5.846875 0
M  V30 31 H 7.794064 7.660948 -6.646457 0
M  V30 32 H 8.790787 6.316705 -9.431435 0
M  V30 END ATOM
M  V30 BEGIN BOND
M  V30 1 1 2 1
M  V30 2 1 3 2
M  V30 3 1 4 3
M  V30 4 2 5 4
M  V30 5 1 6 5
M  V30 6 1 7 3
M  V30 7 2 7 6
M  V30 8 1 8 7
M  V30 9 2 9 8
M  V30 10 1 10 9
M  V30 11 1 11 10
M  V30 12 1 12 11
M  V30 13 2 13 12
M  V30 14 1 14 13
M  V30 15 1 15 14
M  V30 16 2 16 14
M  V30 17 1 17 8
M  V30 18 2 17 11
M  V30 19 1 17 16
M  V30 20 1 18 1
M  V30 21 1 19 1
M  V30 22 1 20 1
M  V30 23 1 21 2
M  V30 24 1 22 2
M  V30 25 1 23 4
M  V30 26 1 24 6
M  V30 27 1 25 9
M  V30 28 1 26 10
M  V30 29 1 27 12
M  V30 30 1 28 13
M  V30 31 1 29 15
M  V30 32 1 30 15
M  V30 33 1 31 15
M  V30 34 1 32 16
M  V30 END BOND
M  V30 END CTAB
M  END
>  <b_m_subgroup_collapsed>  (2215) 
0

>  <r_i_docking_score>  (2215) 
-6.0376868189876696

>  <s_m_subgroup_title>  (2215) 
glide-dock_SP_D22_pv

>  <s_m_subgroupid>  (2215) 
glide-dock_SP_D22_pv

>  <Molecule ChEMBL ID>  (2215) 
CHEMBL4455588

>  <Standard Type>  (2215) 
Ki

>  <Standard Value>  (2215) 
10000.0

>  <label>  (2215) 
0

$$$$
CHEMBL609611
     RDKit          3D

  0  0  0  0  0  0  0  0  0  0999 V3000
M  V30 BEGIN CTAB
M  V30 COUNTS 44 48 0 0 1
M  V30 BEGIN ATOM
M  V30 1 C 6.143424 -3.210443 -18.075369 0
M  V30 2 C 5.567945 -1.792433 -18.166735 0 CFG=1
M  V30 3 C 4.140109 -1.714018 -17.580853 0
M  V30 4 C 4.390511 -0.990817 -16.302292 0
M  V30 5 C 3.471845 -0.709876 -15.281790 0
M  V30 6 C 3.910754 0.075877 -14.203568 0
M  V30 7 C 5.236665 0.572204 -14.169187 0
M  V30 8 C 6.167401 0.263206 -15.193609 0
M  V30 9 C 5.699408 -0.537557 -16.264387 0
M  V30 10 O 6.389256 -0.902299 -17.389444 0
M  V30 11 C 7.525096 0.850970 -15.126690 0
M  V30 12 C 8.646012 0.270591 -15.769707 0
M  V30 13 C 9.945150 0.798093 -15.669920 0
M  V30 14 C 10.175257 1.948060 -14.904086 0
M  V30 15 C 9.106734 2.579213 -14.246785 0
M  V30 16 C 7.804508 2.023370 -14.373412 0
M  V30 17 C 6.573426 2.683156 -13.703883 0 CFG=1
M  V30 18 C 5.620053 1.601433 -13.117593 0
M  V30 19 N 6.882323 3.774015 -12.730096 0 CFG=2 CHG=1
M  V30 20 C 5.717850 4.615084 -12.359010 0
M  V30 21 C 7.998351 4.616490 -13.195634 0
M  V30 22 C 9.254363 3.771458 -13.319407 0
M  V30 23 H 5.586661 -3.900711 -18.709957 0
M  V30 24 H 6.088358 -3.583574 -17.052628 0
M  V30 25 H 7.186653 -3.233449 -18.390978 0
M  V30 26 H 5.570764 -1.466544 -19.207312 0
M  V30 27 H 3.478484 -1.116351 -18.209448 0
M  V30 28 H 3.686212 -2.692121 -17.424763 0
M  V30 29 H 2.444765 -1.029915 -15.351139 0
M  V30 30 H 3.194560 0.357728 -13.446937 0
M  V30 31 H 8.520395 -0.627637 -16.352037 0
M  V30 32 H 10.766740 0.309282 -16.170113 0
M  V30 33 H 11.178581 2.335553 -14.806315 0
M  V30 34 H 6.053864 3.168958 -14.531134 0
M  V30 35 H 4.707016 2.050736 -12.729490 0
M  V30 36 H 6.085450 1.072070 -12.285902 0
M  V30 37 H 5.285232 5.089964 -13.240635 0
M  V30 38 H 6.014897 5.404335 -11.665621 0
M  V30 39 H 4.942533 4.041865 -11.854835 0
M  V30 40 H 7.748361 5.071225 -14.154434 0
M  V30 41 H 8.179430 5.430586 -12.489422 0
M  V30 42 H 9.565443 3.405810 -12.340869 0
M  V30 43 H 10.073702 4.393313 -13.683739 0
M  V30 44 H 7.202242 3.334276 -11.877813 0
M  V30 END ATOM
M  V30 BEGIN BOND
M  V30 1 1 2 1
M  V30 2 1 3 2
M  V30 3 1 4 3
M  V30 4 1 5 4
M  V30 5 2 6 5
M  V30 6 1 7 6
M  V30 7 2 8 7
M  V30 8 2 9 4
M  V30 9 1 9 8
M  V30 10 1 10 2
M  V30 11 1 10 9
M  V30 12 1 11 8
M  V30 13 2 12 11
M  V30 14 1 13 12
M  V30 15 2 14 13
M  V30 16 1 15 14
M  V30 17 1 16 11
M  V30 18 2 16 15
M  V30 19 1 17 16
M  V30 20 1 18 7
M  V30 21 1 18 17
M  V30 22 1 19 17
M  V30 23 1 20 19
M  V30 24 1 21 19
M  V30 25 1 22 15
M  V30 26 1 22 21
M  V30 27 1 23 1
M  V30 28 1 24 1
M  V30 29 1 25 1
M  V30 30 1 2 26 CFG=3
M  V30 31 1 27 3
M  V30 32 1 28 3
M  V30 33 1 29 5
M  V30 34 1 30 6
M  V30 35 1 31 12
M  V30 36 1 32 13
M  V30 37 1 33 14
M  V30 38 1 17 34 CFG=3
M  V30 39 1 35 18
M  V30 40 1 36 18
M  V30 41 1 37 20
M  V30 42 1 38 20
M  V30 43 1 39 20
M  V30 44 1 40 21
M  V30 45 1 41 21
M  V30 46 1 42 22
M  V30 47 1 43 22
M  V30 48 1 19 44 CFG=1
M  V30 END BOND
M  V30 END CTAB
M  END
>  <b_m_subgroup_collapsed>  (2216) 
0

>  <r_i_docking_score>  (2216) 
-6.0285250501612904

>  <s_m_subgroup_title>  (2216) 
glide-dock_SP_D22_pv

>  <s_m_subgroupid>  (2216) 
glide-dock_SP_D22_pv

>  <Molecule ChEMBL ID>  (2216) 
CHEMBL609611

>  <Standard Type>  (2216) 
Ki

>  <Standard Value>  (2216) 
10000.0

>  <label>  (2216) 
0

$$$$
CHEMBL609317
     RDKit          3D

  0  0  0  0  0  0  0  0  0  0999 V3000
M  V30 BEGIN CTAB
M  V30 COUNTS 44 48 0 0 1
M  V30 BEGIN ATOM
M  V30 1 C 6.143424 -3.210443 -18.075369 0
M  V30 2 C 5.567945 -1.792433 -18.166735 0 CFG=1
M  V30 3 C 4.140109 -1.714018 -17.580853 0
M  V30 4 C 4.390511 -0.990817 -16.302292 0
M  V30 5 C 3.471845 -0.709876 -15.281790 0
M  V30 6 C 3.910754 0.075877 -14.203568 0
M  V30 7 C 5.236665 0.572204 -14.169187 0
M  V30 8 C 6.167401 0.263206 -15.193609 0
M  V30 9 C 5.699408 -0.537557 -16.264387 0
M  V30 10 O 6.389256 -0.902299 -17.389444 0
M  V30 11 C 7.525096 0.850970 -15.126690 0
M  V30 12 C 8.646012 0.270591 -15.769707 0
M  V30 13 C 9.945150 0.798093 -15.669920 0
M  V30 14 C 10.175257 1.948060 -14.904086 0
M  V30 15 C 9.106734 2.579213 -14.246785 0
M  V30 16 C 7.804508 2.023370 -14.373412 0
M  V30 17 C 6.573426 2.683156 -13.703883 0 CFG=1
M  V30 18 C 5.620053 1.601433 -13.117593 0
M  V30 19 N 6.882323 3.774015 -12.730096 0 CFG=2 CHG=1
M  V30 20 C 5.717850 4.615084 -12.359010 0
M  V30 21 C 7.998351 4.616490 -13.195634 0
M  V30 22 C 9.254363 3.771458 -13.319407 0
M  V30 23 H 5.586661 -3.900711 -18.709957 0
M  V30 24 H 6.088358 -3.583574 -17.052628 0
M  V30 25 H 7.186653 -3.233449 -18.390978 0
M  V30 26 H 5.570764 -1.466544 -19.207312 0
M  V30 27 H 3.478484 -1.116351 -18.209448 0
M  V30 28 H 3.686212 -2.692121 -17.424763 0
M  V30 29 H 2.444765 -1.029915 -15.351139 0
M  V30 30 H 3.194560 0.357728 -13.446937 0
M  V30 31 H 8.520395 -0.627637 -16.352037 0
M  V30 32 H 10.766740 0.309282 -16.170113 0
M  V30 33 H 11.178581 2.335553 -14.806315 0
M  V30 34 H 6.053864 3.168958 -14.531134 0
M  V30 35 H 4.707016 2.050736 -12.729490 0
M  V30 36 H 6.085450 1.072070 -12.285902 0
M  V30 37 H 5.285232 5.089964 -13.240635 0
M  V30 38 H 6.014897 5.404335 -11.665621 0
M  V30 39 H 4.942533 4.041865 -11.854835 0
M  V30 40 H 7.748361 5.071225 -14.154434 0
M  V30 41 H 8.179430 5.430586 -12.489422 0
M  V30 42 H 9.565443 3.405810 -12.340869 0
M  V30 43 H 10.073702 4.393313 -13.683739 0
M  V30 44 H 7.202242 3.334276 -11.877813 0
M  V30 END ATOM
M  V30 BEGIN BOND
M  V30 1 1 2 1
M  V30 2 1 3 2
M  V30 3 1 4 3
M  V30 4 1 5 4
M  V30 5 2 6 5
M  V30 6 1 7 6
M  V30 7 2 8 7
M  V30 8 2 9 4
M  V30 9 1 9 8
M  V30 10 1 10 2
M  V30 11 1 10 9
M  V30 12 1 11 8
M  V30 13 2 12 11
M  V30 14 1 13 12
M  V30 15 2 14 13
M  V30 16 1 15 14
M  V30 17 1 16 11
M  V30 18 2 16 15
M  V30 19 1 17 16
M  V30 20 1 18 7
M  V30 21 1 18 17
M  V30 22 1 19 17
M  V30 23 1 20 19
M  V30 24 1 21 19
M  V30 25 1 22 15
M  V30 26 1 22 21
M  V30 27 1 23 1
M  V30 28 1 24 1
M  V30 29 1 25 1
M  V30 30 1 2 26 CFG=3
M  V30 31 1 27 3
M  V30 32 1 28 3
M  V30 33 1 29 5
M  V30 34 1 30 6
M  V30 35 1 31 12
M  V30 36 1 32 13
M  V30 37 1 33 14
M  V30 38 1 17 34 CFG=3
M  V30 39 1 35 18
M  V30 40 1 36 18
M  V30 41 1 37 20
M  V30 42 1 38 20
M  V30 43 1 39 20
M  V30 44 1 40 21
M  V30 45 1 41 21
M  V30 46 1 42 22
M  V30 47 1 43 22
M  V30 48 1 19 44 CFG=1
M  V30 END BOND
M  V30 END CTAB
M  END
>  <b_m_subgroup_collapsed>  (2217) 
0

>  <r_i_docking_score>  (2217) 
-6.0285250501612904

>  <s_m_subgroup_title>  (2217) 
glide-dock_SP_D22_pv

>  <s_m_subgroupid>  (2217) 
glide-dock_SP_D22_pv

>  <Molecule ChEMBL ID>  (2217) 
CHEMBL609317

>  <Standard Type>  (2217) 
Ki

>  <Standard Value>  (2217) 
10000.0

>  <label>  (2217) 
0

$$$$
CHEMBL4746800
     RDKit          3D

  0  0  0  0  0  0  0  0  0  0999 V3000
M  V30 BEGIN CTAB
M  V30 COUNTS 43 45 0 0 1
M  V30 BEGIN ATOM
M  V30 1 C 8.484954 5.174329 -10.102744 0
M  V30 2 N 8.486251 6.171987 -11.197094 0 CHG=1
M  V30 3 C 9.585812 7.151159 -11.067418 0
M  V30 4 C 8.380935 5.581771 -12.562217 0
M  V30 5 C 9.388865 4.433412 -12.858670 0
M  V30 6 N 9.346130 3.925288 -14.249723 0
M  V30 7 C 10.081936 4.561301 -15.205984 0
M  V30 8 O 10.751305 5.563814 -14.953362 0
M  V30 9 C 10.089174 4.059719 -16.630201 0
M  V30 10 C 9.645819 4.924385 -17.658327 0
M  V30 11 C 9.703934 4.538497 -19.008173 0
M  V30 12 C 10.247419 3.293472 -19.358540 0
M  V30 13 C 10.734302 2.439565 -18.353472 0
M  V30 14 C 10.657417 2.808998 -16.994682 0
M  V30 15 C 11.218994 1.873027 -16.020525 0
M  V30 16 C 10.517489 1.286130 -15.039761 0
M  V30 17 C 9.096786 1.496203 -14.783740 0
M  V30 18 C 8.276996 0.349885 -14.815906 0
M  V30 19 C 6.904380 0.438766 -14.536940 0
M  V30 20 C 6.342457 1.690830 -14.246934 0
M  V30 21 C 7.143533 2.847432 -14.241816 0
M  V30 22 C 8.535318 2.764615 -14.478247 0
M  V30 23 H 9.431628 4.632610 -10.050290 0
M  V30 24 H 7.686255 4.449247 -10.247499 0
M  V30 25 H 8.317797 5.663004 -9.141994 0
M  V30 26 H 10.558429 6.673385 -11.176867 0
M  V30 27 H 9.551795 7.635333 -10.091093 0
M  V30 28 H 9.501039 7.934003 -11.821106 0
M  V30 29 H 7.361278 5.216569 -12.649814 0
M  V30 30 H 8.473866 6.373595 -13.305296 0
M  V30 31 H 10.404496 4.750816 -12.614916 0
M  V30 32 H 9.201889 3.592009 -12.190872 0
M  V30 33 H 9.249954 5.901454 -17.431271 0
M  V30 34 H 9.344618 5.208539 -19.777386 0
M  V30 35 H 10.305905 2.997348 -20.396683 0
M  V30 36 H 11.171153 1.491210 -18.630423 0
M  V30 37 H 12.273527 1.664030 -16.113554 0
M  V30 38 H 11.017971 0.618295 -14.357419 0
M  V30 39 H 8.704300 -0.616265 -15.047240 0
M  V30 40 H 6.290505 -0.450346 -14.550529 0
M  V30 41 H 5.288291 1.763561 -14.027726 0
M  V30 42 H 6.670176 3.791775 -14.028981 0
M  V30 43 H 7.638386 6.719807 -11.043027 0
M  V30 END ATOM
M  V30 BEGIN BOND
M  V30 1 1 2 1
M  V30 2 1 3 2
M  V30 3 1 4 2
M  V30 4 1 5 4
M  V30 5 1 6 5
M  V30 6 1 7 6
M  V30 7 2 8 7
M  V30 8 1 9 7
M  V30 9 2 10 9
M  V30 10 1 11 10
M  V30 11 2 12 11
M  V30 12 1 13 12
M  V30 13 1 14 9
M  V30 14 2 14 13
M  V30 15 1 15 14
M  V30 16 2 16 15
M  V30 17 1 17 16
M  V30 18 2 18 17
M  V30 19 1 19 18
M  V30 20 2 20 19
M  V30 21 1 21 20
M  V30 22 1 22 6
M  V30 23 1 22 17
M  V30 24 2 22 21
M  V30 25 1 23 1
M  V30 26 1 24 1
M  V30 27 1 25 1
M  V30 28 1 26 3
M  V30 29 1 27 3
M  V30 30 1 28 3
M  V30 31 1 29 4
M  V30 32 1 30 4
M  V30 33 1 31 5
M  V30 34 1 32 5
M  V30 35 1 33 10
M  V30 36 1 34 11
M  V30 37 1 35 12
M  V30 38 1 36 13
M  V30 39 1 37 15
M  V30 40 1 38 16
M  V30 41 1 39 18
M  V30 42 1 40 19
M  V30 43 1 41 20
M  V30 44 1 42 21
M  V30 45 1 43 2
M  V30 END BOND
M  V30 END CTAB
M  END
>  <b_m_subgroup_collapsed>  (2218) 
0

>  <r_i_docking_score>  (2218) 
-6.0262417803197801

>  <s_m_subgroup_title>  (2218) 
glide-dock_SP_D22_pv

>  <s_m_subgroupid>  (2218) 
glide-dock_SP_D22_pv

>  <Molecule ChEMBL ID>  (2218) 
CHEMBL4746800

>  <Standard Type>  (2218) 
Ki

>  <Standard Value>  (2218) 
11600.0

>  <label>  (2218) 
0

$$$$
CHEMBL1949726
     RDKit          3D

  0  0  0  0  0  0  0  0  0  0999 V3000
M  V30 BEGIN CTAB
M  V30 COUNTS 48 51 0 0 1
M  V30 BEGIN ATOM
M  V30 1 C 10.374112 0.601752 -17.047592 0
M  V30 2 C 10.614441 1.906739 -16.260389 0 CFG=2
M  V30 3 C 9.671468 1.985689 -15.039137 0
M  V30 4 C 9.586862 3.308075 -14.314075 0
M  V30 5 C 10.577260 4.218081 -13.994322 0
M  V30 6 N 10.000026 5.253790 -13.275413 0
M  V30 7 C 8.650191 5.059848 -13.105818 0
M  V30 8 C 7.664427 5.813107 -12.444698 0
M  V30 9 C 6.341459 5.343900 -12.416698 0
M  V30 10 C 6.012203 4.137286 -13.064720 0
M  V30 11 C 7.007942 3.398616 -13.739347 0
M  V30 12 C 8.357204 3.835799 -13.767108 0
M  V30 13 C 12.058558 4.246105 -14.252860 0
M  V30 14 C 12.478462 5.366169 -15.201844 0
M  V30 15 C 12.495509 6.681902 -14.683922 0
M  V30 16 C 12.885513 7.772787 -15.481358 0
M  V30 17 C 13.232907 7.567146 -16.826193 0
M  V30 18 C 13.223729 6.265422 -17.355669 0
M  V30 19 C 12.871150 5.154322 -16.555140 0
M  V30 20 C 12.977067 3.779526 -17.203684 0
M  V30 21 C 11.717727 3.357761 -17.981115 0
M  V30 22 N 10.532054 3.135696 -17.111923 0 CFG=1 CHG=1
M  V30 23 C 9.262940 3.273428 -17.867342 0
M  V30 24 H 10.501952 -0.263435 -16.395884 0
M  V30 25 H 11.077292 0.482970 -17.872293 0
M  V30 26 H 9.363634 0.546527 -17.454502 0
M  V30 27 H 11.620347 1.820247 -15.863739 0
M  V30 28 H 8.669988 1.700830 -15.360286 0
M  V30 29 H 9.959082 1.212023 -14.326118 0
M  V30 30 H 10.525414 6.034881 -12.914879 0
M  V30 31 H 7.912844 6.736014 -11.938747 0
M  V30 32 H 5.589957 5.912580 -11.884136 0
M  V30 33 H 4.995222 3.774565 -13.034517 0
M  V30 34 H 6.738420 2.470476 -14.219598 0
M  V30 35 H 12.575882 4.409286 -13.306989 0
M  V30 36 H 12.419708 3.280711 -14.575381 0
M  V30 37 H 12.239338 6.861266 -13.650878 0
M  V30 38 H 12.902769 8.769070 -15.064284 0
M  V30 39 H 13.508006 8.407517 -17.448059 0
M  V30 40 H 13.507998 6.121717 -18.387014 0
M  V30 41 H 13.809287 3.818059 -17.907848 0
M  V30 42 H 13.287345 3.020131 -16.491940 0
M  V30 43 H 11.495440 4.140512 -18.708609 0
M  V30 44 H 11.921368 2.462784 -18.567165 0
M  V30 45 H 9.218285 2.569857 -18.699451 0
M  V30 46 H 9.169074 4.280912 -18.276558 0
M  V30 47 H 8.399091 3.100715 -17.227274 0
M  V30 48 H 10.540026 3.910280 -16.460815 0
M  V30 END ATOM
M  V30 BEGIN BOND
M  V30 1 1 2 1
M  V30 2 1 3 2
M  V30 3 1 4 3
M  V30 4 2 5 4
M  V30 5 1 6 5
M  V30 6 1 7 6
M  V30 7 2 8 7
M  V30 8 1 9 8
M  V30 9 2 10 9
M  V30 10 1 11 10
M  V30 11 1 12 4
M  V30 12 1 12 7
M  V30 13 2 12 11
M  V30 14 1 13 5
M  V30 15 1 14 13
M  V30 16 2 15 14
M  V30 17 1 16 15
M  V30 18 2 17 16
M  V30 19 1 18 17
M  V30 20 1 19 14
M  V30 21 2 19 18
M  V30 22 1 20 19
M  V30 23 1 21 20
M  V30 24 1 22 2
M  V30 25 1 22 21
M  V30 26 1 23 22
M  V30 27 1 24 1
M  V30 28 1 25 1
M  V30 29 1 26 1
M  V30 30 1 2 27 CFG=1
M  V30 31 1 28 3
M  V30 32 1 29 3
M  V30 33 1 30 6
M  V30 34 1 31 8
M  V30 35 1 32 9
M  V30 36 1 33 10
M  V30 37 1 34 11
M  V30 38 1 35 13
M  V30 39 1 36 13
M  V30 40 1 37 15
M  V30 41 1 38 16
M  V30 42 1 39 17
M  V30 43 1 40 18
M  V30 44 1 41 20
M  V30 45 1 42 20
M  V30 46 1 43 21
M  V30 47 1 44 21
M  V30 48 1 45 23
M  V30 49 1 46 23
M  V30 50 1 47 23
M  V30 51 1 22 48 CFG=1
M  V30 END BOND
M  V30 END CTAB
M  END
>  <b_m_subgroup_collapsed>  (2219) 
0

>  <r_i_docking_score>  (2219) 
-6.0253182168338704

>  <s_m_subgroup_title>  (2219) 
glide-dock_SP_D22_pv

>  <s_m_subgroupid>  (2219) 
glide-dock_SP_D22_pv

>  <Molecule ChEMBL ID>  (2219) 
CHEMBL1949726

>  <Standard Type>  (2219) 
Ki

>  <Standard Value>  (2219) 
10000.0

>  <label>  (2219) 
0

$$$$
CHEMBL157910
     RDKit          3D

  0  0  0  0  0  0  0  0  0  0999 V3000
M  V30 BEGIN CTAB
M  V30 COUNTS 45 47 0 0 1
M  V30 BEGIN ATOM
M  V30 1 C 12.779832 7.886194 -13.937331 0
M  V30 2 O 11.851799 7.061717 -13.250329 0
M  V30 3 C 11.453554 5.881898 -13.848680 0
M  V30 4 C 12.004577 5.432827 -15.077696 0
M  V30 5 C 11.629321 4.199244 -15.631483 0
M  V30 6 C 10.722574 3.379349 -14.942344 0
M  V30 7 S 10.175831 1.839989 -15.693994 0
M  V30 8 O 10.275440 0.803000 -14.655034 0
M  V30 9 O 10.983597 1.668486 -16.912281 0
M  V30 10 N 8.650126 2.301824 -16.018265 0 CHG=-1
M  V30 11 C 7.590676 2.036454 -15.235955 0
M  V30 12 C 7.160065 2.960187 -14.258383 0
M  V30 13 C 6.087220 2.673043 -13.409906 0
M  V30 14 Cl 5.643029 3.854698 -12.250571 0
M  V30 15 C 5.428040 1.435573 -13.496282 0
M  V30 16 C 5.804387 0.516947 -14.493951 0
M  V30 17 Cl 4.915351 -0.955434 -14.651469 0
M  V30 18 C 6.864174 0.829414 -15.378944 0
M  V30 19 Cl 7.222320 -0.227804 -16.700678 0
M  V30 20 C 10.194427 3.795254 -13.705005 0
M  V30 21 C 10.486945 5.077482 -13.179816 0
M  V30 22 N 9.846731 5.525514 -11.996730 0
M  V30 23 C 9.250157 6.858542 -11.928233 0
M  V30 24 C 9.425960 7.441793 -10.518647 0
M  V30 25 N 8.879922 6.516013 -9.506350 0 CHG=1
M  V30 26 C 9.435724 5.145055 -9.584231 0
M  V30 27 C 9.352657 4.566094 -11.012779 0
M  V30 28 H 13.089187 8.698517 -13.285411 0
M  V30 29 H 13.686338 7.360921 -14.217040 0
M  V30 30 H 12.333523 8.320025 -14.831778 0
M  V30 31 H 12.721515 6.017241 -15.631783 0
M  V30 32 H 12.040395 3.889003 -16.581017 0
M  V30 33 H 7.641467 3.922301 -14.168431 0
M  V30 34 H 4.609391 1.212590 -12.831074 0
M  V30 35 H 9.518138 3.128170 -13.193748 0
M  V30 36 H 9.668448 7.554223 -12.646955 0
M  V30 37 H 8.188321 6.775829 -12.165567 0
M  V30 38 H 10.481907 7.623298 -10.313471 0
M  V30 39 H 8.911628 8.400427 -10.439949 0
M  V30 40 H 9.023390 6.897923 -8.583373 0
M  V30 41 H 10.477458 5.182288 -9.260836 0
M  V30 42 H 8.910304 4.497391 -8.881098 0
M  V30 43 H 8.322150 4.307621 -11.257421 0
M  V30 44 H 9.937444 3.646028 -11.051023 0
M  V30 45 H 7.876870 6.488423 -9.672023 0
M  V30 END ATOM
M  V30 BEGIN BOND
M  V30 1 1 2 1
M  V30 2 1 3 2
M  V30 3 1 4 3
M  V30 4 2 5 4
M  V30 5 1 6 5
M  V30 6 1 7 6
M  V30 7 2 8 7
M  V30 8 2 9 7
M  V30 9 1 10 7
M  V30 10 1 11 10
M  V30 11 2 12 11
M  V30 12 1 13 12
M  V30 13 1 14 13
M  V30 14 2 15 13
M  V30 15 1 16 15
M  V30 16 1 17 16
M  V30 17 1 18 11
M  V30 18 2 18 16
M  V30 19 1 19 18
M  V30 20 2 20 6
M  V30 21 2 21 3
M  V30 22 1 21 20
M  V30 23 1 22 21
M  V30 24 1 23 22
M  V30 25 1 24 23
M  V30 26 1 25 24
M  V30 27 1 26 25
M  V30 28 1 27 22
M  V30 29 1 27 26
M  V30 30 1 28 1
M  V30 31 1 29 1
M  V30 32 1 30 1
M  V30 33 1 31 4
M  V30 34 1 32 5
M  V30 35 1 33 12
M  V30 36 1 34 15
M  V30 37 1 35 20
M  V30 38 1 36 23
M  V30 39 1 37 23
M  V30 40 1 38 24
M  V30 41 1 39 24
M  V30 42 1 40 25
M  V30 43 1 41 26
M  V30 44 1 42 26
M  V30 45 1 43 27
M  V30 46 1 44 27
M  V30 47 1 45 25
M  V30 END BOND
M  V30 END CTAB
M  END
>  <b_m_subgroup_collapsed>  (2220) 
0

>  <r_i_docking_score>  (2220) 
-6.0243622116756104

>  <s_m_subgroup_title>  (2220) 
glide-dock_SP_D22_pv

>  <s_m_subgroupid>  (2220) 
glide-dock_SP_D22_pv

>  <Molecule ChEMBL ID>  (2220) 
CHEMBL157910

>  <Standard Type>  (2220) 
Ki

>  <Standard Value>  (2220) 
10000.0

>  <label>  (2220) 
0

$$$$
CHEMBL201288
     RDKit          3D

  0  0  0  0  0  0  0  0  0  0999 V3000
M  V30 BEGIN CTAB
M  V30 COUNTS 45 48 0 0 1
M  V30 BEGIN ATOM
M  V30 1 C 9.298131 5.726012 -18.603235 0
M  V30 2 C 9.692060 4.241144 -18.510565 0
M  V30 3 N 10.283997 3.869679 -17.189133 0 CFG=1 CHG=1
M  V30 4 C 9.741292 2.577908 -16.674540 0
M  V30 5 C 10.052225 2.320992 -15.187109 0
M  V30 6 C 9.697250 3.491504 -14.317781 0
M  V30 7 C 10.551753 4.484546 -13.900022 0
M  V30 8 N 9.845141 5.371556 -13.108086 0
M  V30 9 C 8.523684 4.995637 -13.003638 0
M  V30 10 C 7.432112 5.560953 -12.324596 0
M  V30 11 C 6.175118 4.936622 -12.401412 0
M  V30 12 C 6.018327 3.765968 -13.165545 0
M  V30 13 C 7.120556 3.208382 -13.846837 0
M  V30 14 C 8.402394 3.804494 -13.774963 0
M  V30 15 C 12.008595 4.678722 -14.175803 0
M  V30 16 C 12.277377 5.681354 -15.290387 0
M  V30 17 C 12.617673 7.000204 -14.919751 0
M  V30 18 C 12.917643 7.965612 -15.895035 0
M  V30 19 C 12.896584 7.619102 -17.255032 0
M  V30 20 C 12.553946 6.311203 -17.638020 0
M  V30 21 C 12.216151 5.340131 -16.669960 0
M  V30 22 C 11.773194 3.964135 -17.152296 0
M  V30 23 H 8.849222 5.936043 -19.574278 0
M  V30 24 H 10.148373 6.394857 -18.494776 0
M  V30 25 H 8.561594 5.994214 -17.846331 0
M  V30 26 H 8.778704 3.668896 -18.687073 0
M  V30 27 H 10.361942 3.970722 -19.333231 0
M  V30 28 H 8.653440 2.598382 -16.770714 0
M  V30 29 H 10.092486 1.747076 -17.290064 0
M  V30 30 H 9.491485 1.444020 -14.861553 0
M  V30 31 H 11.094669 2.035879 -15.048839 0
M  V30 32 H 10.262003 6.177610 -12.665731 0
M  V30 33 H 7.548022 6.461780 -11.736672 0
M  V30 34 H 5.339172 5.354948 -11.862211 0
M  V30 35 H 5.051873 3.285381 -13.219184 0
M  V30 36 H 6.985659 2.301685 -14.418859 0
M  V30 37 H 12.499801 5.025188 -13.266404 0
M  V30 38 H 12.492414 3.731774 -14.397405 0
M  V30 39 H 12.666398 7.274162 -13.877831 0
M  V30 40 H 13.177933 8.970914 -15.599721 0
M  V30 41 H 13.125779 8.363963 -18.003153 0
M  V30 42 H 12.527156 6.062079 -18.689034 0
M  V30 43 H 12.217555 3.202287 -16.516140 0
M  V30 44 H 12.196985 3.759995 -18.138067 0
M  V30 45 H 9.955076 4.557684 -16.523052 0
M  V30 END ATOM
M  V30 BEGIN BOND
M  V30 1 1 2 1
M  V30 2 1 3 2
M  V30 3 1 4 3
M  V30 4 1 5 4
M  V30 5 1 6 5
M  V30 6 2 7 6
M  V30 7 1 8 7
M  V30 8 1 9 8
M  V30 9 2 10 9
M  V30 10 1 11 10
M  V30 11 2 12 11
M  V30 12 1 13 12
M  V30 13 1 14 6
M  V30 14 1 14 9
M  V30 15 2 14 13
M  V30 16 1 15 7
M  V30 17 1 16 15
M  V30 18 2 17 16
M  V30 19 1 18 17
M  V30 20 2 19 18
M  V30 21 1 20 19
M  V30 22 1 21 16
M  V30 23 2 21 20
M  V30 24 1 22 3
M  V30 25 1 22 21
M  V30 26 1 23 1
M  V30 27 1 24 1
M  V30 28 1 25 1
M  V30 29 1 26 2
M  V30 30 1 27 2
M  V30 31 1 28 4
M  V30 32 1 29 4
M  V30 33 1 30 5
M  V30 34 1 31 5
M  V30 35 1 32 8
M  V30 36 1 33 10
M  V30 37 1 34 11
M  V30 38 1 35 12
M  V30 39 1 36 13
M  V30 40 1 37 15
M  V30 41 1 38 15
M  V30 42 1 39 17
M  V30 43 1 40 18
M  V30 44 1 41 19
M  V30 45 1 42 20
M  V30 46 1 43 22
M  V30 47 1 44 22
M  V30 48 1 3 45 CFG=1
M  V30 END BOND
M  V30 END CTAB
M  END
>  <b_m_subgroup_collapsed>  (2221) 
0

>  <r_i_docking_score>  (2221) 
-6.0226028265477103

>  <s_m_subgroup_title>  (2221) 
glide-dock_SP_D22_pv

>  <s_m_subgroupid>  (2221) 
glide-dock_SP_D22_pv

>  <Molecule ChEMBL ID>  (2221) 
CHEMBL201288

>  <Standard Type>  (2221) 
Ki

>  <Standard Value>  (2221) 
10000.0

>  <label>  (2221) 
0

$$$$
CHEMBL3979230
     RDKit          3D

  0  0  0  0  0  0  0  0  0  0999 V3000
M  V30 BEGIN CTAB
M  V30 COUNTS 46 49 0 0 1
M  V30 BEGIN ATOM
M  V30 1 C 10.416218 0.350410 -16.873318 0
M  V30 2 N 9.081588 0.933614 -16.625145 0 CHG=1
M  V30 3 C 8.750687 1.068477 -15.195961 0 CFG=1
M  V30 4 C 9.344988 2.298054 -14.555250 0
M  V30 5 C 10.556322 2.899077 -14.195815 0
M  V30 6 C 10.422275 4.128890 -13.488530 0
M  V30 7 C 9.135377 4.663362 -13.145653 0
M  V30 8 C 7.968369 4.010023 -13.511762 0
M  V30 9 C 6.810834 4.657340 -13.048035 0
M  V30 10 C 7.301552 5.776381 -12.417488 0
M  V30 11 N 8.699759 5.805782 -12.478168 0
M  V30 12 S 9.660138 7.108159 -11.846746 0
M  V30 13 O 10.999561 6.965031 -12.438873 0
M  V30 14 O 8.880882 8.331768 -12.086895 0
M  V30 15 C 9.799153 6.857321 -10.080474 0
M  V30 16 C 10.829312 7.531204 -9.392499 0
M  V30 17 C 10.935733 7.404565 -7.993817 0
M  V30 18 C 10.010579 6.609702 -7.287697 0
M  V30 19 C 8.986283 5.935437 -7.981045 0
M  V30 20 C 8.886214 6.046899 -9.378522 0
M  V30 21 C 8.064610 2.844777 -14.245445 0
M  V30 22 C 7.301664 1.728919 -14.924068 0 CFG=2
M  V30 23 C 6.257226 1.023285 -14.057715 0
M  V30 24 C 5.584812 -0.144214 -14.798351 0
M  V30 25 O 4.475008 -0.627173 -14.071119 0
M  V30 26 H 10.598452 0.271492 -17.944616 0
M  V30 27 H 10.484496 -0.649447 -16.442505 0
M  V30 28 H 11.203581 0.970298 -16.441370 0
M  V30 29 H 9.036196 1.849481 -17.047146 0
M  V30 30 H 8.933871 0.171237 -14.600802 0
M  V30 31 H 11.518313 2.464242 -14.423258 0
M  V30 32 H 11.318282 4.649511 -13.187769 0
M  V30 33 H 5.801108 4.306090 -13.206505 0
M  V30 34 H 6.765192 6.572052 -11.917899 0
M  V30 35 H 11.527163 8.153816 -9.933665 0
M  V30 36 H 11.719409 7.922939 -7.463008 0
M  V30 37 H 10.080623 6.520258 -6.213459 0
M  V30 38 H 8.259219 5.344857 -7.447062 0
M  V30 39 H 8.078892 5.541611 -9.884611 0
M  V30 40 H 6.872652 2.141913 -15.838193 0
M  V30 41 H 6.705610 0.644220 -13.138961 0
M  V30 42 H 5.495213 1.741637 -13.752746 0
M  V30 43 H 5.233113 0.172776 -15.780660 0
M  V30 44 H 6.291711 -0.959329 -14.958272 0
M  V30 45 H 4.012171 -1.246485 -14.620425 0
M  V30 46 H 8.391138 0.334972 -17.055267 0
M  V30 END ATOM
M  V30 BEGIN BOND
M  V30 1 1 2 1
M  V30 2 1 3 2
M  V30 3 1 4 3
M  V30 4 1 5 4
M  V30 5 2 6 5
M  V30 6 1 7 6
M  V30 7 2 8 7
M  V30 8 1 9 8
M  V30 9 2 10 9
M  V30 10 1 11 7
M  V30 11 1 11 10
M  V30 12 1 12 11
M  V30 13 2 13 12
M  V30 14 2 14 12
M  V30 15 1 15 12
M  V30 16 2 16 15
M  V30 17 1 17 16
M  V30 18 2 18 17
M  V30 19 1 19 18
M  V30 20 1 20 15
M  V30 21 2 20 19
M  V30 22 2 21 4
M  V30 23 1 21 8
M  V30 24 1 22 3
M  V30 25 1 22 21
M  V30 26 1 23 22
M  V30 27 1 24 23
M  V30 28 1 25 24
M  V30 29 1 26 1
M  V30 30 1 27 1
M  V30 31 1 28 1
M  V30 32 1 29 2
M  V30 33 1 3 30 CFG=1
M  V30 34 1 31 5
M  V30 35 1 32 6
M  V30 36 1 33 9
M  V30 37 1 34 10
M  V30 38 1 35 16
M  V30 39 1 36 17
M  V30 40 1 37 18
M  V30 41 1 38 19
M  V30 42 1 39 20
M  V30 43 1 22 40 CFG=3
M  V30 44 1 41 23
M  V30 45 1 42 23
M  V30 46 1 43 24
M  V30 47 1 44 24
M  V30 48 1 45 25
M  V30 49 1 46 2
M  V30 END BOND
M  V30 END CTAB
M  END
>  <b_m_subgroup_collapsed>  (2222) 
0

>  <r_i_docking_score>  (2222) 
-6.0207096599736198

>  <s_m_subgroup_title>  (2222) 
glide-dock_SP_D22_pv

>  <s_m_subgroupid>  (2222) 
glide-dock_SP_D22_pv

>  <Molecule ChEMBL ID>  (2222) 
CHEMBL3979230

>  <Standard Type>  (2222) 
Ki

>  <Standard Value>  (2222) 
10000.0

>  <label>  (2222) 
0

$$$$
CHEMBL597882
     RDKit          3D

  0  0  0  0  0  0  0  0  0  0999 V3000
M  V30 BEGIN CTAB
M  V30 COUNTS 51 55 0 0 1
M  V30 BEGIN ATOM
M  V30 1 C 6.133419 -0.467554 -14.445445 0
M  V30 2 C 7.089467 0.449773 -15.217192 0
M  V30 3 C 8.529853 0.376159 -14.680700 0
M  V30 4 N 9.411390 1.401294 -15.308992 0 CFG=2 CHG=1
M  V30 5 C 10.646928 0.806143 -15.845572 0
M  V30 6 C 11.349377 1.819728 -16.738308 0
M  V30 7 C 11.606199 3.173427 -16.097084 0
M  V30 8 C 12.558978 4.094825 -16.560074 0
M  V30 9 C 12.672437 5.351421 -15.949296 0
M  V30 10 C 11.827374 5.695627 -14.879473 0
M  V30 11 C 10.854024 4.810011 -14.350213 0
M  V30 12 C 10.774708 3.547917 -15.005671 0
M  V30 13 C 9.728830 2.564614 -14.429965 0 CFG=1
M  V30 14 C 8.448921 3.307394 -13.996342 0
M  V30 15 C 8.762466 4.442999 -13.054911 0
M  V30 16 C 7.883093 4.720689 -11.990884 0
M  V30 17 C 8.207932 5.708164 -11.047875 0
M  V30 18 C 9.397990 6.454366 -11.154752 0
M  V30 19 C 10.048894 7.472634 -10.381103 0
M  V30 20 C 9.544699 8.107656 -9.121139 0
M  V30 21 C 11.241933 7.708851 -11.019397 0
M  V30 22 C 12.398872 8.572091 -10.659343 0
M  V30 23 O 11.364731 6.972348 -12.166554 0
M  V30 24 C 10.241899 6.172342 -12.259962 0
M  V30 25 C 9.959681 5.171143 -13.222634 0
M  V30 26 H 5.129410 -0.426217 -14.867627 0
M  V30 27 H 6.066776 -0.179022 -13.396864 0
M  V30 28 H 6.463309 -1.505464 -14.480583 0
M  V30 29 H 7.079950 0.170714 -16.271662 0
M  V30 30 H 6.703996 1.468091 -15.170144 0
M  V30 31 H 8.540730 0.467808 -13.593456 0
M  V30 32 H 8.906951 -0.626585 -14.887614 0
M  V30 33 H 11.286128 0.490066 -15.022988 0
M  V30 34 H 10.424056 -0.084839 -16.435194 0
M  V30 35 H 12.303419 1.406083 -17.068640 0
M  V30 36 H 10.760330 1.986278 -17.641285 0
M  V30 37 H 13.198684 3.842825 -17.393757 0
M  V30 38 H 13.400652 6.063264 -16.309868 0
M  V30 39 H 11.939343 6.687988 -14.474196 0
M  V30 40 H 10.194877 2.172305 -13.524713 0
M  V30 41 H 7.947495 3.722883 -14.866662 0
M  V30 42 H 7.740046 2.643627 -13.503930 0
M  V30 43 H 6.966478 4.160535 -11.867537 0
M  V30 44 H 7.543666 5.890798 -10.216386 0
M  V30 45 H 10.349990 8.561761 -8.541643 0
M  V30 46 H 9.051778 7.373785 -8.481417 0
M  V30 47 H 8.813217 8.886796 -9.342799 0
M  V30 48 H 12.077138 9.430919 -10.072656 0
M  V30 49 H 12.902660 8.949248 -11.548370 0
M  V30 50 H 13.126279 8.020939 -10.063729 0
M  V30 51 H 8.910403 1.766915 -16.106483 0
M  V30 END ATOM
M  V30 BEGIN BOND
M  V30 1 1 2 1
M  V30 2 1 3 2
M  V30 3 1 4 3
M  V30 4 1 5 4
M  V30 5 1 6 5
M  V30 6 1 7 6
M  V30 7 1 8 7
M  V30 8 2 9 8
M  V30 9 1 10 9
M  V30 10 2 11 10
M  V30 11 2 12 7
M  V30 12 1 12 11
M  V30 13 1 13 4
M  V30 14 1 13 12
M  V30 15 1 14 13
M  V30 16 1 15 14
M  V30 17 1 16 15
M  V30 18 2 17 16
M  V30 19 1 18 17
M  V30 20 1 19 18
M  V30 21 1 20 19
M  V30 22 2 21 19
M  V30 23 1 22 21
M  V30 24 1 23 21
M  V30 25 2 24 18
M  V30 26 1 24 23
M  V30 27 1 25 11
M  V30 28 2 25 15
M  V30 29 1 25 24
M  V30 30 1 26 1
M  V30 31 1 27 1
M  V30 32 1 28 1
M  V30 33 1 29 2
M  V30 34 1 30 2
M  V30 35 1 31 3
M  V30 36 1 32 3
M  V30 37 1 33 5
M  V30 38 1 34 5
M  V30 39 1 35 6
M  V30 40 1 36 6
M  V30 41 1 37 8
M  V30 42 1 38 9
M  V30 43 1 39 10
M  V30 44 1 13 40 CFG=1
M  V30 45 1 41 14
M  V30 46 1 42 14
M  V30 47 1 43 16
M  V30 48 1 44 17
M  V30 49 1 45 20
M  V30 50 1 46 20
M  V30 51 1 47 20
M  V30 52 1 48 22
M  V30 53 1 49 22
M  V30 54 1 50 22
M  V30 55 1 4 51 CFG=3
M  V30 END BOND
M  V30 END CTAB
M  END
>  <b_m_subgroup_collapsed>  (2223) 
0

>  <r_i_docking_score>  (2223) 
-6.0206727842321799

>  <s_m_subgroup_title>  (2223) 
glide-dock_SP_D22_pv

>  <s_m_subgroupid>  (2223) 
glide-dock_SP_D22_pv

>  <Molecule ChEMBL ID>  (2223) 
CHEMBL597882

>  <Standard Type>  (2223) 
Ki

>  <Standard Value>  (2223) 
10000.0

>  <label>  (2223) 
0

$$$$
CHEMBL515342
     RDKit          3D

  0  0  0  0  0  0  0  0  0  0999 V3000
M  V30 BEGIN CTAB
M  V30 COUNTS 60 63 0 0 1
M  V30 BEGIN ATOM
M  V30 1 C 3.507759 -1.979659 -18.326448 0
M  V30 2 C 3.957288 -1.044286 -17.199966 0
M  V30 3 C 4.833782 -1.749050 -16.150604 0
M  V30 4 C 5.569897 -0.779980 -15.208772 0
M  V30 5 C 4.636164 0.040914 -14.302013 0
M  V30 6 C 5.384463 1.066468 -13.446643 0
M  V30 7 O 5.286965 1.062477 -12.222389 0
M  V30 8 O 6.103165 1.946300 -14.195331 0
M  V30 9 C 6.752194 3.034176 -13.649960 0
M  V30 10 C 6.050269 3.937041 -12.816251 0
M  V30 11 C 6.679979 5.083465 -12.306865 0
M  V30 12 C 8.004700 5.371886 -12.665021 0
M  V30 13 C 8.714499 4.488936 -13.504252 0
M  V30 14 C 8.118355 3.292276 -13.969969 0
M  V30 15 C 8.972089 2.386292 -14.775855 0
M  V30 16 C 8.828038 0.973622 -14.760589 0
M  V30 17 C 9.657449 0.114433 -15.499559 0
M  V30 18 C 10.689129 0.636877 -16.285990 0
M  V30 19 C 10.919309 2.020321 -16.306900 0
M  V30 20 C 10.071982 2.866352 -15.538408 0
M  V30 21 C 10.318684 4.392866 -15.450165 0 CFG=1
M  V30 22 C 10.113903 4.846074 -13.978243 0
M  V30 23 N 11.620422 4.853481 -16.030403 0 CFG=2 CHG=1
M  V30 24 C 11.716238 6.329237 -16.217821 0
M  V30 25 C 13.167471 6.830440 -16.365530 0
M  V30 26 C 13.227608 8.328739 -16.680908 0
M  V30 27 C 11.887448 4.149944 -17.306252 0
M  V30 28 C 12.081161 2.671362 -17.031925 0
M  V30 29 H 2.886623 -1.443109 -19.046696 0
M  V30 30 H 2.919959 -2.812637 -17.939384 0
M  V30 31 H 4.359588 -2.393046 -18.865583 0
M  V30 32 H 4.501807 -0.205789 -17.637716 0
M  V30 33 H 3.073314 -0.629841 -16.714510 0
M  V30 34 H 4.224720 -2.446265 -15.572890 0
M  V30 35 H 5.582876 -2.356148 -16.660015 0
M  V30 36 H 6.256034 -1.355236 -14.585284 0
M  V30 37 H 6.195577 -0.116915 -15.810312 0
M  V30 38 H 3.895572 0.571442 -14.901406 0
M  V30 39 H 4.074942 -0.626670 -13.648174 0
M  V30 40 H 5.018191 3.752191 -12.566607 0
M  V30 41 H 6.137034 5.762651 -11.661171 0
M  V30 42 H 8.468312 6.275844 -12.298210 0
M  V30 43 H 8.078353 0.512786 -14.136859 0
M  V30 44 H 9.509807 -0.954659 -15.445516 0
M  V30 45 H 11.335741 -0.028740 -16.838840 0
M  V30 46 H 9.534268 4.854282 -16.056326 0
M  V30 47 H 10.259217 5.915936 -13.836711 0
M  V30 48 H 10.836341 4.348254 -13.327991 0
M  V30 49 H 11.123355 6.615512 -17.087666 0
M  V30 50 H 11.286704 6.870466 -15.378566 0
M  V30 51 H 13.731663 6.623743 -15.454160 0
M  V30 52 H 13.688096 6.309909 -17.169188 0
M  V30 53 H 14.245541 8.623929 -16.932442 0
M  V30 54 H 12.886513 8.936738 -15.839722 0
M  V30 55 H 12.603459 8.571863 -17.542330 0
M  V30 56 H 11.058405 4.302743 -18.002350 0
M  V30 57 H 12.783116 4.519037 -17.800083 0
M  V30 58 H 12.976915 2.517885 -16.429714 0
M  V30 59 H 12.247231 2.140759 -17.972143 0
M  V30 60 H 12.344846 4.576449 -15.379443 0
M  V30 END ATOM
M  V30 BEGIN BOND
M  V30 1 1 2 1
M  V30 2 1 3 2
M  V30 3 1 4 3
M  V30 4 1 5 4
M  V30 5 1 6 5
M  V30 6 2 7 6
M  V30 7 1 8 6
M  V30 8 1 9 8
M  V30 9 2 10 9
M  V30 10 1 11 10
M  V30 11 2 12 11
M  V30 12 1 13 12
M  V30 13 1 14 9
M  V30 14 2 14 13
M  V30 15 1 15 14
M  V30 16 2 16 15
M  V30 17 1 17 16
M  V30 18 2 18 17
M  V30 19 1 19 18
M  V30 20 1 20 15
M  V30 21 2 20 19
M  V30 22 1 21 20
M  V30 23 1 22 13
M  V30 24 1 22 21
M  V30 25 1 23 21
M  V30 26 1 24 23
M  V30 27 1 25 24
M  V30 28 1 26 25
M  V30 29 1 27 23
M  V30 30 1 28 19
M  V30 31 1 28 27
M  V30 32 1 29 1
M  V30 33 1 30 1
M  V30 34 1 31 1
M  V30 35 1 32 2
M  V30 36 1 33 2
M  V30 37 1 34 3
M  V30 38 1 35 3
M  V30 39 1 36 4
M  V30 40 1 37 4
M  V30 41 1 38 5
M  V30 42 1 39 5
M  V30 43 1 40 10
M  V30 44 1 41 11
M  V30 45 1 42 12
M  V30 46 1 43 16
M  V30 47 1 44 17
M  V30 48 1 45 18
M  V30 49 1 21 46 CFG=3
M  V30 50 1 47 22
M  V30 51 1 48 22
M  V30 52 1 49 24
M  V30 53 1 50 24
M  V30 54 1 51 25
M  V30 55 1 52 25
M  V30 56 1 53 26
M  V30 57 1 54 26
M  V30 58 1 55 26
M  V30 59 1 56 27
M  V30 60 1 57 27
M  V30 61 1 58 28
M  V30 62 1 59 28
M  V30 63 1 23 60 CFG=1
M  V30 END BOND
M  V30 END CTAB
M  END
>  <b_m_subgroup_collapsed>  (2224) 
0

>  <r_i_docking_score>  (2224) 
-6.0200053347607199

>  <s_m_subgroup_title>  (2224) 
glide-dock_SP_D22_pv

>  <s_m_subgroupid>  (2224) 
glide-dock_SP_D22_pv

>  <Molecule ChEMBL ID>  (2224) 
CHEMBL515342

>  <Standard Type>  (2224) 
Ki

>  <Standard Value>  (2224) 
10000.0

>  <label>  (2224) 
0

$$$$
CHEMBL201598
     RDKit          3D

  0  0  0  0  0  0  0  0  0  0999 V3000
M  V30 BEGIN CTAB
M  V30 COUNTS 47 50 0 0 1
M  V30 BEGIN ATOM
M  V30 1 O 12.320227 4.325711 -13.834044 0
M  V30 2 C 11.377851 4.105499 -14.594911 0
M  V30 3 C 11.698587 4.054682 -16.094210 0
M  V30 4 C 10.479574 4.314340 -16.977955 0
M  V30 5 C 9.342927 3.405145 -16.530725 0
M  V30 6 C 8.948606 3.693361 -15.060688 0 CFG=1
M  V30 7 C 7.922465 2.665156 -14.562309 0
M  V30 8 C 6.731977 3.108627 -13.935807 0
M  V30 9 C 5.787906 2.183398 -13.446946 0
M  V30 10 C 6.007640 0.802985 -13.622301 0
M  V30 11 C 7.188355 0.350623 -14.244992 0
M  V30 12 C 8.153259 1.276603 -14.688650 0
M  V30 13 N 10.103268 3.915180 -14.157735 0
M  V30 14 C 9.777010 4.101430 -12.728096 0
M  V30 15 C 9.752775 5.584455 -12.298833 0
M  V30 16 C 9.470127 5.751253 -10.813328 0
M  V30 17 C 8.670351 5.005288 -10.032340 0
M  V30 18 C 8.680415 5.437241 -8.579072 0
M  V30 19 C 9.656830 6.585957 -8.658835 0
M  V30 20 C 10.108692 7.403516 -7.608678 0
M  V30 21 C 11.042164 8.417911 -7.914293 0
M  V30 22 C 11.497344 8.596538 -9.244066 0
M  V30 23 C 11.024393 7.773909 -10.290664 0
M  V30 24 C 10.098608 6.764875 -9.971498 0
M  V30 25 H 12.481506 4.779851 -16.317326 0
M  V30 26 H 12.118203 3.070292 -16.312292 0
M  V30 27 H 10.177598 5.359719 -16.914583 0
M  V30 28 H 10.729451 4.116892 -18.021671 0
M  V30 29 H 8.486893 3.513395 -17.195223 0
M  V30 30 H 9.676516 2.376227 -16.650324 0
M  V30 31 H 8.473899 4.674492 -15.048348 0
M  V30 32 H 6.548769 4.165856 -13.809343 0
M  V30 33 H 4.887980 2.534288 -12.964519 0
M  V30 34 H 5.275731 0.090639 -13.275493 0
M  V30 35 H 7.358250 -0.708971 -14.371166 0
M  V30 36 H 9.064771 0.905069 -15.132573 0
M  V30 37 H 10.485767 3.553175 -12.121667 0
M  V30 38 H 8.823976 3.653982 -12.465816 0
M  V30 39 H 9.030909 6.165042 -12.873187 0
M  V30 40 H 10.733972 6.018860 -12.504109 0
M  V30 41 H 8.064657 4.174645 -10.364717 0
M  V30 42 H 7.701902 5.772414 -8.248221 0
M  V30 43 H 9.045897 4.643066 -7.928789 0
M  V30 44 H 9.749988 7.256128 -6.600809 0
M  V30 45 H 11.413606 9.060001 -7.129523 0
M  V30 46 H 12.214585 9.371540 -9.466188 0
M  V30 47 H 11.372240 7.913742 -11.301993 0
M  V30 END ATOM
M  V30 BEGIN BOND
M  V30 1 2 2 1
M  V30 2 1 3 2
M  V30 3 1 4 3
M  V30 4 1 5 4
M  V30 5 1 6 5
M  V30 6 1 7 6
M  V30 7 2 8 7
M  V30 8 1 9 8
M  V30 9 2 10 9
M  V30 10 1 11 10
M  V30 11 1 12 7
M  V30 12 2 12 11
M  V30 13 1 13 2
M  V30 14 1 13 6
M  V30 15 1 14 13
M  V30 16 1 15 14
M  V30 17 1 16 15
M  V30 18 2 17 16
M  V30 19 1 18 17
M  V30 20 1 19 18
M  V30 21 2 20 19
M  V30 22 1 21 20
M  V30 23 2 22 21
M  V30 24 1 23 22
M  V30 25 1 24 16
M  V30 26 1 24 19
M  V30 27 2 24 23
M  V30 28 1 25 3
M  V30 29 1 26 3
M  V30 30 1 27 4
M  V30 31 1 28 4
M  V30 32 1 29 5
M  V30 33 1 30 5
M  V30 34 1 6 31 CFG=3
M  V30 35 1 32 8
M  V30 36 1 33 9
M  V30 37 1 34 10
M  V30 38 1 35 11
M  V30 39 1 36 12
M  V30 40 1 37 14
M  V30 41 1 38 14
M  V30 42 1 39 15
M  V30 43 1 40 15
M  V30 44 1 41 17
M  V30 45 1 42 18
M  V30 46 1 43 18
M  V30 47 1 44 20
M  V30 48 1 45 21
M  V30 49 1 46 22
M  V30 50 1 47 23
M  V30 END BOND
M  V30 END CTAB
M  END
>  <b_m_subgroup_collapsed>  (2225) 
0

>  <r_i_docking_score>  (2225) 
-6.0191702408335699

>  <s_m_subgroup_title>  (2225) 
glide-dock_SP_D22_pv

>  <s_m_subgroupid>  (2225) 
glide-dock_SP_D22_pv

>  <Molecule ChEMBL ID>  (2225) 
CHEMBL201598

>  <Standard Type>  (2225) 
Ki

>  <Standard Value>  (2225) 
10000.0

>  <label>  (2225) 
0

$$$$
CHEMBL498564
     RDKit          3D

  0  0  0  0  0  0  0  0  0  0999 V3000
M  V30 BEGIN CTAB
M  V30 COUNTS 49 50 0 0 1
M  V30 BEGIN ATOM
M  V30 1 C 5.841857 3.634181 -12.232333 0
M  V30 2 N 6.787773 4.485040 -12.951756 0
M  V30 3 C 7.873295 3.760219 -13.617450 0
M  V30 4 C 7.397519 2.621965 -14.540734 0
M  V30 5 C 8.549702 2.002377 -15.310254 0
M  V30 6 C 8.981984 0.695039 -15.013041 0
M  V30 7 C 10.039062 0.118857 -15.740424 0
M  V30 8 C 10.677406 0.828172 -16.776886 0
M  V30 9 O 11.686605 0.171523 -17.447672 0
M  V30 10 C 12.275384 0.716479 -18.546120 0
M  V30 11 F 13.183758 -0.154675 -19.047470 0
M  V30 12 F 11.376470 0.959521 -19.531637 0
M  V30 13 F 12.944323 1.858494 -18.250517 0
M  V30 14 C 10.248058 2.146951 -17.064432 0
M  V30 15 C 9.194636 2.726978 -16.333567 0
M  V30 16 C 7.307319 5.562102 -12.101181 0
M  V30 17 C 8.195328 5.086851 -10.920461 0
M  V30 18 N 8.486040 6.172291 -9.952298 0 CHG=1
M  V30 19 C 8.860699 5.645465 -8.611653 0
M  V30 20 C 9.065396 6.772593 -7.584703 0
M  V30 21 C 10.085846 7.803350 -8.085618 0
M  V30 22 C 9.672902 8.319530 -9.469802 0
M  V30 23 C 9.480283 7.156112 -10.458741 0
M  V30 24 H 5.117946 4.244152 -11.690229 0
M  V30 25 H 5.274304 3.011967 -12.926971 0
M  V30 26 H 6.334183 2.974779 -11.517352 0
M  V30 27 H 8.569594 3.349772 -12.887701 0
M  V30 28 H 8.439702 4.483312 -14.206528 0
M  V30 29 H 6.647557 2.972076 -15.248176 0
M  V30 30 H 6.914018 1.838016 -13.956391 0
M  V30 31 H 8.506152 0.125557 -14.228413 0
M  V30 32 H 10.355686 -0.886187 -15.505762 0
M  V30 33 H 10.709090 2.735964 -17.841896 0
M  V30 34 H 8.886159 3.734244 -16.568359 0
M  V30 35 H 7.861351 6.258664 -12.731098 0
M  V30 36 H 6.453959 6.125534 -11.719543 0
M  V30 37 H 7.685987 4.286542 -10.384851 0
M  V30 38 H 9.136731 4.664356 -11.271198 0
M  V30 39 H 8.085943 4.971430 -8.246792 0
M  V30 40 H 9.774694 5.053949 -8.699460 0
M  V30 41 H 8.114491 7.265481 -7.378627 0
M  V30 42 H 9.397086 6.352886 -6.634228 0
M  V30 43 H 10.161180 8.632387 -7.380208 0
M  V30 44 H 11.076614 7.348574 -8.138521 0
M  V30 45 H 8.746059 8.890161 -9.389050 0
M  V30 46 H 10.426522 9.010753 -9.848141 0
M  V30 47 H 10.434037 6.656696 -10.637384 0
M  V30 48 H 9.150167 7.561347 -11.414939 0
M  V30 49 H 7.613587 6.703609 -9.847166 0
M  V30 END ATOM
M  V30 BEGIN BOND
M  V30 1 1 2 1
M  V30 2 1 3 2
M  V30 3 1 4 3
M  V30 4 1 5 4
M  V30 5 1 6 5
M  V30 6 2 7 6
M  V30 7 1 8 7
M  V30 8 1 9 8
M  V30 9 1 10 9
M  V30 10 1 11 10
M  V30 11 1 12 10
M  V30 12 1 13 10
M  V30 13 2 14 8
M  V30 14 2 15 5
M  V30 15 1 15 14
M  V30 16 1 16 2
M  V30 17 1 17 16
M  V30 18 1 18 17
M  V30 19 1 19 18
M  V30 20 1 20 19
M  V30 21 1 21 20
M  V30 22 1 22 21
M  V30 23 1 23 18
M  V30 24 1 23 22
M  V30 25 1 24 1
M  V30 26 1 25 1
M  V30 27 1 26 1
M  V30 28 1 27 3
M  V30 29 1 28 3
M  V30 30 1 29 4
M  V30 31 1 30 4
M  V30 32 1 31 6
M  V30 33 1 32 7
M  V30 34 1 33 14
M  V30 35 1 34 15
M  V30 36 1 35 16
M  V30 37 1 36 16
M  V30 38 1 37 17
M  V30 39 1 38 17
M  V30 40 1 39 19
M  V30 41 1 40 19
M  V30 42 1 41 20
M  V30 43 1 42 20
M  V30 44 1 43 21
M  V30 45 1 44 21
M  V30 46 1 45 22
M  V30 47 1 46 22
M  V30 48 1 47 23
M  V30 49 1 48 23
M  V30 50 1 49 18
M  V30 END BOND
M  V30 END CTAB
M  END
>  <b_m_subgroup_collapsed>  (2226) 
0

>  <r_i_docking_score>  (2226) 
-6.0177054068780604

>  <s_m_subgroup_title>  (2226) 
glide-dock_SP_D22_pv

>  <s_m_subgroupid>  (2226) 
glide-dock_SP_D22_pv

>  <Molecule ChEMBL ID>  (2226) 
CHEMBL498564

>  <Standard Type>  (2226) 
Ki

>  <Standard Value>  (2226) 
10000.0

>  <label>  (2226) 
0

$$$$
CHEMBL329566
     RDKit          3D

  0  0  0  0  0  0  0  0  0  0999 V3000
M  V30 BEGIN CTAB
M  V30 COUNTS 46 49 0 0 1
M  V30 BEGIN ATOM
M  V30 1 C 5.504640 -0.894934 -17.206390 0
M  V30 2 N 6.484883 -0.627805 -16.128494 0 CHG=1
M  V30 3 C 5.803981 -0.417504 -14.828004 0
M  V30 4 C 7.443376 0.448996 -16.502235 0
M  V30 5 C 8.647568 0.562230 -15.537775 0 CFG=1
M  V30 6 C 9.798134 1.418763 -16.091055 0
M  V30 7 C 9.492202 2.812243 -15.559249 0 CFG=2
M  V30 8 C 10.650168 3.819986 -15.608313 0
M  V30 9 C 11.396218 3.872474 -16.811029 0
M  V30 10 C 12.480412 4.751427 -16.965441 0
M  V30 11 C 12.834964 5.609353 -15.914410 0
M  V30 12 C 12.093364 5.591866 -14.721951 0
M  V30 13 C 10.992984 4.720430 -14.549787 0
M  V30 14 C 10.293672 4.795358 -13.188880 0
M  V30 15 C 8.775057 4.740930 -13.178511 0
M  V30 16 C 8.024097 5.813103 -12.650372 0
M  V30 17 C 6.621383 5.728168 -12.581384 0
M  V30 18 C 5.959782 4.575267 -13.044638 0
M  V30 19 C 6.701399 3.506735 -13.574524 0
M  V30 20 C 8.109349 3.583738 -13.625868 0
M  V30 21 C 8.933130 2.450948 -14.189458 0 CFG=1
M  V30 22 O 8.196411 1.253232 -14.379916 0
M  V30 23 H 4.875959 -0.017705 -17.383421 0
M  V30 24 H 4.855042 -1.735327 -16.940990 0
M  V30 25 H 6.008962 -1.156776 -18.140659 0
M  V30 26 H 5.274017 0.538735 -14.805471 0
M  V30 27 H 6.517900 -0.448137 -14.002681 0
M  V30 28 H 5.080846 -1.216958 -14.645453 0
M  V30 29 H 7.828650 0.217515 -17.499182 0
M  V30 30 H 6.922145 1.403789 -16.582970 0
M  V30 31 H 9.015988 -0.429338 -15.270488 0
M  V30 32 H 10.741970 1.068887 -15.668965 0
M  V30 33 H 9.885193 1.369918 -17.176508 0
M  V30 34 H 8.688685 3.231680 -16.163679 0
M  V30 35 H 11.141729 3.229099 -17.638447 0
M  V30 36 H 13.042066 4.766552 -17.888615 0
M  V30 37 H 13.674536 6.281388 -16.020399 0
M  V30 38 H 12.391275 6.260121 -13.925673 0
M  V30 39 H 10.676615 3.995301 -12.557846 0
M  V30 40 H 10.595087 5.716900 -12.687465 0
M  V30 41 H 8.515518 6.698843 -12.274991 0
M  V30 42 H 6.054737 6.547854 -12.163154 0
M  V30 43 H 4.885771 4.513077 -12.994967 0
M  V30 44 H 6.183682 2.631479 -13.934078 0
M  V30 45 H 9.743676 2.191853 -13.505084 0
M  V30 46 H 7.026982 -1.484383 -16.022308 0
M  V30 END ATOM
M  V30 BEGIN BOND
M  V30 1 1 2 1
M  V30 2 1 3 2
M  V30 3 1 4 2
M  V30 4 1 5 4
M  V30 5 1 6 5
M  V30 6 1 7 6
M  V30 7 1 8 7
M  V30 8 2 9 8
M  V30 9 1 10 9
M  V30 10 2 11 10
M  V30 11 1 12 11
M  V30 12 1 13 8
M  V30 13 2 13 12
M  V30 14 1 14 13
M  V30 15 1 15 14
M  V30 16 2 16 15
M  V30 17 1 17 16
M  V30 18 2 18 17
M  V30 19 1 19 18
M  V30 20 1 20 15
M  V30 21 2 20 19
M  V30 22 1 21 7
M  V30 23 1 21 20
M  V30 24 1 22 5
M  V30 25 1 22 21
M  V30 26 1 23 1
M  V30 27 1 24 1
M  V30 28 1 25 1
M  V30 29 1 26 3
M  V30 30 1 27 3
M  V30 31 1 28 3
M  V30 32 1 29 4
M  V30 33 1 30 4
M  V30 34 1 5 31 CFG=1
M  V30 35 1 32 6
M  V30 36 1 33 6
M  V30 37 1 7 34 CFG=3
M  V30 38 1 35 9
M  V30 39 1 36 10
M  V30 40 1 37 11
M  V30 41 1 38 12
M  V30 42 1 39 14
M  V30 43 1 40 14
M  V30 44 1 41 16
M  V30 45 1 42 17
M  V30 46 1 43 18
M  V30 47 1 44 19
M  V30 48 1 21 45 CFG=1
M  V30 49 1 46 2
M  V30 END BOND
M  V30 END CTAB
M  END
>  <b_m_subgroup_collapsed>  (2227) 
0

>  <r_i_docking_score>  (2227) 
-6.0147540225417497

>  <s_m_subgroup_title>  (2227) 
glide-dock_SP_D22_pv

>  <s_m_subgroupid>  (2227) 
glide-dock_SP_D22_pv

>  <Molecule ChEMBL ID>  (2227) 
CHEMBL329566

>  <Standard Type>  (2227) 
Ki

>  <Standard Value>  (2227) 
61.0

>  <label>  (2227) 
1

$$$$
CHEMBL605405
     RDKit          3D

  0  0  0  0  0  0  0  0  0  0999 V3000
M  V30 BEGIN CTAB
M  V30 COUNTS 46 49 0 0 1
M  V30 BEGIN ATOM
M  V30 1 C 13.149104 4.597216 -15.072639 0
M  V30 2 C 12.078979 5.148703 -14.166071 0
M  V30 3 C 12.290536 6.377771 -13.504697 0
M  V30 4 C 11.286025 6.922383 -12.692751 0
M  V30 5 C 10.035432 6.288043 -12.648005 0
M  V30 6 C 9.795666 5.035553 -13.293455 0
M  V30 7 C 10.862893 4.455637 -14.010338 0
M  V30 8 C 8.419828 4.687939 -13.095620 0
M  V30 9 C 7.832063 5.758384 -12.486179 0
M  V30 10 N 8.797432 6.720247 -12.228825 0
M  V30 11 C 8.432163 8.022218 -11.846851 0
M  V30 12 C 8.914409 8.635044 -10.747272 0
M  V30 13 C 9.743595 8.056656 -9.679997 0
M  V30 14 C 10.860157 8.762245 -9.183070 0
M  V30 15 C 11.605624 8.243301 -8.105323 0
M  V30 16 C 11.233515 7.021608 -7.513029 0
M  V30 17 C 10.128385 6.308803 -8.013594 0
M  V30 18 C 9.394474 6.819448 -9.098422 0
M  V30 19 C 6.390791 5.815302 -12.127283 0
M  V30 20 C 5.617484 4.630304 -12.731593 0
M  V30 21 N 6.405714 3.372560 -12.718904 0 CFG=1 CHG=1
M  V30 22 C 5.586016 2.187713 -13.054156 0
M  V30 23 C 7.647188 3.481524 -13.533842 0
M  V30 24 H 14.085960 4.572636 -14.526375 0
M  V30 25 H 12.904902 3.591136 -15.416313 0
M  V30 26 H 13.278748 5.240145 -15.943962 0
M  V30 27 H 13.223311 6.909835 -13.625364 0
M  V30 28 H 11.435341 7.863589 -12.193224 0
M  V30 29 H 10.706621 3.519231 -14.523612 0
M  V30 30 H 7.730415 8.484545 -12.523148 0
M  V30 31 H 8.604364 9.656073 -10.579868 0
M  V30 32 H 11.142255 9.711251 -9.617221 0
M  V30 33 H 12.456998 8.791008 -7.727357 0
M  V30 34 H 11.796498 6.627420 -6.677965 0
M  V30 35 H 9.837096 5.374464 -7.559560 0
M  V30 36 H 8.526607 6.281526 -9.456014 0
M  V30 37 H 6.309702 5.772321 -11.046768 0
M  V30 38 H 5.940118 6.759862 -12.432199 0
M  V30 39 H 5.293029 4.852050 -13.749095 0
M  V30 40 H 4.742136 4.458956 -12.119099 0
M  V30 41 H 5.294296 2.210774 -14.100626 0
M  V30 42 H 6.123086 1.256480 -12.879039 0
M  V30 43 H 4.679891 2.157576 -12.449321 0
M  V30 44 H 7.382334 3.573100 -14.587061 0
M  V30 45 H 8.253107 2.579105 -13.447128 0
M  V30 46 H 6.707209 3.258664 -11.760381 0
M  V30 END ATOM
M  V30 BEGIN BOND
M  V30 1 1 2 1
M  V30 2 1 3 2
M  V30 3 2 4 3
M  V30 4 1 5 4
M  V30 5 2 6 5
M  V30 6 2 7 2
M  V30 7 1 7 6
M  V30 8 1 8 6
M  V30 9 2 9 8
M  V30 10 1 10 5
M  V30 11 1 10 9
M  V30 12 1 11 10
M  V30 13 2 12 11
M  V30 14 1 13 12
M  V30 15 2 14 13
M  V30 16 1 15 14
M  V30 17 2 16 15
M  V30 18 1 17 16
M  V30 19 1 18 13
M  V30 20 2 18 17
M  V30 21 1 19 9
M  V30 22 1 20 19
M  V30 23 1 21 20
M  V30 24 1 22 21
M  V30 25 1 23 8
M  V30 26 1 23 21
M  V30 27 1 24 1
M  V30 28 1 25 1
M  V30 29 1 26 1
M  V30 30 1 27 3
M  V30 31 1 28 4
M  V30 32 1 29 7
M  V30 33 1 30 11
M  V30 34 1 31 12
M  V30 35 1 32 14
M  V30 36 1 33 15
M  V30 37 1 34 16
M  V30 38 1 35 17
M  V30 39 1 36 18
M  V30 40 1 37 19
M  V30 41 1 38 19
M  V30 42 1 39 20
M  V30 43 1 40 20
M  V30 44 1 41 22
M  V30 45 1 42 22
M  V30 46 1 43 22
M  V30 47 1 44 23
M  V30 48 1 45 23
M  V30 49 1 21 46 CFG=1
M  V30 END BOND
M  V30 END CTAB
M  END
>  <b_m_subgroup_collapsed>  (2228) 
0

>  <r_i_docking_score>  (2228) 
-6.0131745222247996

>  <s_m_subgroup_title>  (2228) 
glide-dock_SP_D22_pv

>  <s_m_subgroupid>  (2228) 
glide-dock_SP_D22_pv

>  <Molecule ChEMBL ID>  (2228) 
CHEMBL605405

>  <Standard Type>  (2228) 
Ki

>  <Standard Value>  (2228) 
34.67

>  <label>  (2228) 
1

$$$$
CHEMBL2443262
     RDKit          3D

  0  0  0  0  0  0  0  0  0  0999 V3000
M  V30 BEGIN CTAB
M  V30 COUNTS 58 61 0 0 1
M  V30 BEGIN ATOM
M  V30 1 C 9.261840 1.892210 -15.919545 0
M  V30 2 O 8.308767 2.629448 -15.168954 0
M  V30 3 C 7.329645 1.922498 -14.553141 0
M  V30 4 C 7.112131 0.506116 -14.626649 0
M  V30 5 C 6.052976 0.081383 -13.872104 0
M  V30 6 S 5.285969 1.405459 -13.047017 0
M  V30 7 C 6.411164 2.546108 -13.741327 0
M  V30 8 C 6.331542 4.000183 -13.405913 0
M  V30 9 N 7.135707 4.310135 -12.209348 0 CHG=1
M  V30 10 C 7.433980 5.739747 -11.997662 0
M  V30 11 C 8.428084 5.902576 -10.811785 0
M  V30 12 C 9.650401 6.861393 -11.031696 0 CFG=1
M  V30 13 C 10.485428 6.410927 -12.261588 0
M  V30 14 C 11.568261 7.193969 -12.733378 0
M  V30 15 C 12.307698 6.752512 -13.846330 0
M  V30 16 C 11.982467 5.516231 -14.429072 0
M  V30 17 C 10.933536 4.772259 -13.865154 0
M  V30 18 N 10.209565 5.198520 -12.810027 0
M  V30 19 C 9.136254 8.317555 -11.255847 0
M  V30 20 C 8.943852 9.144335 -9.976853 0
M  V30 21 O 10.123157 9.096247 -9.194530 0
M  V30 22 C 10.355995 7.813603 -8.634553 0
M  V30 23 C 9.269173 7.419111 -7.619026 0
M  V30 24 C 9.942520 6.438550 -6.672774 0
M  V30 25 C 11.416653 6.843324 -6.636099 0
M  V30 26 C 11.587653 7.919854 -7.717306 0
M  V30 27 C 10.599184 6.798692 -9.787862 0
M  V30 28 H 9.991263 2.577388 -16.350649 0
M  V30 29 H 9.802235 1.184698 -15.288410 0
M  V30 30 H 8.790657 1.352193 -16.741888 0
M  V30 31 H 7.726287 -0.160308 -15.215018 0
M  V30 32 H 5.686309 -0.929209 -13.757908 0
M  V30 33 H 5.297159 4.307262 -13.246969 0
M  V30 34 H 6.709494 4.574780 -14.247223 0
M  V30 35 H 8.027602 3.847160 -12.317401 0
M  V30 36 H 6.501548 6.280085 -11.846775 0
M  V30 37 H 7.844389 6.153840 -12.917922 0
M  V30 38 H 8.830091 4.921707 -10.552793 0
M  V30 39 H 7.852496 6.171900 -9.932793 0
M  V30 40 H 11.848619 8.119361 -12.246505 0
M  V30 41 H 13.129375 7.339964 -14.229539 0
M  V30 42 H 12.538603 5.138853 -15.274124 0
M  V30 43 H 10.669069 3.806541 -14.267778 0
M  V30 44 H 9.844501 8.890763 -11.845135 0
M  V30 45 H 8.221086 8.329126 -11.847622 0
M  V30 46 H 8.741186 10.172322 -10.247020 0
M  V30 47 H 8.086108 8.867118 -9.379844 0
M  V30 48 H 8.956731 8.299506 -7.054730 0
M  V30 49 H 8.374059 6.992802 -8.057449 0
M  V30 50 H 9.481039 6.439247 -5.685327 0
M  V30 51 H 9.843559 5.438694 -7.093232 0
M  V30 52 H 11.686823 7.232336 -5.654186 0
M  V30 53 H 12.050329 5.978684 -6.836808 0
M  V30 54 H 12.537873 7.839382 -8.246237 0
M  V30 55 H 11.586905 8.897864 -7.232725 0
M  V30 56 H 10.655601 5.781017 -9.402178 0
M  V30 57 H 11.611162 7.008906 -10.131186 0
M  V30 58 H 6.674854 3.950728 -11.383637 0
M  V30 END ATOM
M  V30 BEGIN BOND
M  V30 1 1 2 1
M  V30 2 1 3 2
M  V30 3 1 4 3
M  V30 4 2 5 4
M  V30 5 1 6 5
M  V30 6 2 7 3
M  V30 7 1 7 6
M  V30 8 1 8 7
M  V30 9 1 9 8
M  V30 10 1 10 9
M  V30 11 1 11 10
M  V30 12 1 12 11 CFG=1
M  V30 13 1 13 12
M  V30 14 2 14 13
M  V30 15 1 15 14
M  V30 16 2 16 15
M  V30 17 1 17 16
M  V30 18 1 18 13
M  V30 19 2 18 17
M  V30 20 1 19 12
M  V30 21 1 20 19
M  V30 22 1 21 20
M  V30 23 1 22 21
M  V30 24 1 23 22
M  V30 25 1 24 23
M  V30 26 1 25 24
M  V30 27 1 26 22
M  V30 28 1 26 25
M  V30 29 1 27 12
M  V30 30 1 27 22
M  V30 31 1 28 1
M  V30 32 1 29 1
M  V30 33 1 30 1
M  V30 34 1 31 4
M  V30 35 1 32 5
M  V30 36 1 33 8
M  V30 37 1 34 8
M  V30 38 1 35 9
M  V30 39 1 36 10
M  V30 40 1 37 10
M  V30 41 1 38 11
M  V30 42 1 39 11
M  V30 43 1 40 14
M  V30 44 1 41 15
M  V30 45 1 42 16
M  V30 46 1 43 17
M  V30 47 1 44 19
M  V30 48 1 45 19
M  V30 49 1 46 20
M  V30 50 1 47 20
M  V30 51 1 48 23
M  V30 52 1 49 23
M  V30 53 1 50 24
M  V30 54 1 51 24
M  V30 55 1 52 25
M  V30 56 1 53 25
M  V30 57 1 54 26
M  V30 58 1 55 26
M  V30 59 1 56 27
M  V30 60 1 57 27
M  V30 61 1 58 9
M  V30 END BOND
M  V30 END CTAB
M  END
>  <b_m_subgroup_collapsed>  (2229) 
0

>  <r_i_docking_score>  (2229) 
-6.01116474796983

>  <s_m_subgroup_title>  (2229) 
glide-dock_SP_D22_pv

>  <s_m_subgroupid>  (2229) 
glide-dock_SP_D22_pv

>  <Molecule ChEMBL ID>  (2229) 
CHEMBL2443262

>  <Standard Type>  (2229) 
Ki

>  <Standard Value>  (2229) 
83200.0

>  <label>  (2229) 
0

$$$$
CHEMBL350161
     RDKit          3D

  0  0  0  0  0  0  0  0  0  0999 V3000
M  V30 BEGIN CTAB
M  V30 COUNTS 41 41 0 0 1
M  V30 BEGIN ATOM
M  V30 1 C 11.138556 9.194157 -9.855484 0
M  V30 2 C 9.895173 8.324550 -10.104289 0
M  V30 3 C 9.082479 7.874517 -8.859527 0
M  V30 4 N 9.798480 7.021060 -7.861907 0 CHG=1
M  V30 5 C 10.486301 5.858140 -8.496964 0
M  V30 6 C 9.559720 4.925070 -9.310738 0
M  V30 7 C 8.483323 4.241845 -8.474910 0
M  V30 8 C 10.661876 7.731030 -6.854327 0
M  V30 9 C 10.785026 6.934135 -5.533705 0
M  V30 10 C 11.684098 7.609546 -4.472802 0
M  V30 11 C 11.524203 9.125357 -4.364163 0
M  V30 12 C 11.775455 9.794108 -3.231708 0
M  V30 13 C 12.337862 9.139406 -2.116260 0
M  V30 14 N 12.885855 8.570942 -1.283358 0
M  V30 15 C 11.208126 9.876778 -5.635987 0
M  V30 16 C 10.168365 9.142892 -6.467238 0
M  V30 17 H 11.660279 9.375807 -10.792202 0
M  V30 18 H 10.884364 10.168484 -9.443868 0
M  V30 19 H 11.868745 8.716659 -9.207642 0
M  V30 20 H 10.189516 7.459524 -10.697602 0
M  V30 21 H 9.218179 8.881139 -10.754519 0
M  V30 22 H 8.280296 7.236804 -9.214268 0
M  V30 23 H 8.537137 8.701794 -8.408489 0
M  V30 24 H 11.281480 6.229296 -9.142122 0
M  V30 25 H 10.993409 5.269558 -7.742002 0
M  V30 26 H 9.094185 5.453842 -10.140931 0
M  V30 27 H 10.138405 4.136859 -9.785623 0
M  V30 28 H 7.750068 3.772486 -9.130099 0
M  V30 29 H 8.886077 3.451570 -7.847135 0
M  V30 30 H 7.945466 4.952402 -7.847202 0
M  V30 31 H 11.662313 7.822692 -7.274833 0
M  V30 32 H 11.184814 5.937295 -5.705280 0
M  V30 33 H 9.789825 6.781719 -5.114794 0
M  V30 34 H 12.732192 7.397638 -4.646841 0
M  V30 35 H 11.471138 7.143980 -3.509615 0
M  V30 36 H 11.685572 10.865497 -3.170342 0
M  V30 37 H 10.859225 10.883937 -5.401911 0
M  V30 38 H 12.130049 9.992480 -6.208992 0
M  V30 39 H 9.977079 9.771899 -7.331530 0
M  V30 40 H 9.254374 9.073297 -5.875722 0
M  V30 41 H 9.044514 6.629186 -7.314198 0
M  V30 END ATOM
M  V30 BEGIN BOND
M  V30 1 1 2 1
M  V30 2 1 3 2
M  V30 3 1 4 3
M  V30 4 1 5 4
M  V30 5 1 6 5
M  V30 6 1 7 6
M  V30 7 1 8 4
M  V30 8 1 9 8
M  V30 9 1 10 9
M  V30 10 1 11 10
M  V30 11 2 12 11
M  V30 12 1 13 12
M  V30 13 3 14 13
M  V30 14 1 15 11
M  V30 15 1 16 8
M  V30 16 1 16 15
M  V30 17 1 17 1
M  V30 18 1 18 1
M  V30 19 1 19 1
M  V30 20 1 20 2
M  V30 21 1 21 2
M  V30 22 1 22 3
M  V30 23 1 23 3
M  V30 24 1 24 5
M  V30 25 1 25 5
M  V30 26 1 26 6
M  V30 27 1 27 6
M  V30 28 1 28 7
M  V30 29 1 29 7
M  V30 30 1 30 7
M  V30 31 1 31 8
M  V30 32 1 32 9
M  V30 33 1 33 9
M  V30 34 1 34 10
M  V30 35 1 35 10
M  V30 36 1 36 12
M  V30 37 1 37 15
M  V30 38 1 38 15
M  V30 39 1 39 16
M  V30 40 1 40 16
M  V30 41 1 41 4
M  V30 END BOND
M  V30 END CTAB
M  END
>  <b_m_subgroup_collapsed>  (2230) 
0

>  <r_i_docking_score>  (2230) 
-6.0058988209831803

>  <s_m_subgroup_title>  (2230) 
glide-dock_SP_D22_pv

>  <s_m_subgroupid>  (2230) 
glide-dock_SP_D22_pv

>  <Molecule ChEMBL ID>  (2230) 
CHEMBL350161

>  <Standard Type>  (2230) 
Ki

>  <Standard Value>  (2230) 
20000.0

>  <label>  (2230) 
0

$$$$
CHEMBL594789
     RDKit          3D

  0  0  0  0  0  0  0  0  0  0999 V3000
M  V30 BEGIN CTAB
M  V30 COUNTS 45 47 0 0 1
M  V30 BEGIN ATOM
M  V30 1 C 6.232021 5.733922 -12.411885 0
M  V30 2 O 5.986570 4.527636 -13.131154 0
M  V30 3 C 7.077090 3.810228 -13.580123 0
M  V30 4 C 6.831710 2.568264 -14.192099 0
M  V30 5 C 7.898900 1.771665 -14.646561 0
M  V30 6 C 9.238528 2.192418 -14.501652 0
M  V30 7 C 9.497716 3.467981 -13.925513 0
M  V30 8 C 8.414477 4.253673 -13.468891 0
M  V30 9 C 10.890961 4.062034 -13.727427 0
M  V30 10 C 11.163680 5.293364 -14.621049 0
M  V30 11 C 12.166191 5.114487 -15.789355 0
M  V30 12 N 11.746862 4.189726 -16.878902 0 CFG=2 CHG=1
M  V30 13 C 10.341662 4.354188 -17.327843 0
M  V30 14 C 12.248563 2.797252 -16.691298 0
M  V30 15 C 11.361817 1.683283 -17.230236 0
M  V30 16 C 11.469349 1.351725 -18.601061 0
M  V30 17 C 10.687540 0.322920 -19.156542 0
M  V30 18 C 9.789954 -0.388993 -18.342365 0
M  V30 19 C 9.682296 -0.072790 -16.976618 0
M  V30 20 C 10.463704 0.954994 -16.399937 0
M  V30 21 C 10.331067 1.196142 -14.897298 0
M  V30 22 H 5.287700 6.166289 -12.078004 0
M  V30 23 H 6.726613 6.475079 -13.040630 0
M  V30 24 H 6.837952 5.549425 -11.520248 0
M  V30 25 H 5.819009 2.205834 -14.263807 0
M  V30 26 H 7.679029 0.804759 -15.073277 0
M  V30 27 H 8.640182 5.206682 -13.014812 0
M  V30 28 H 10.914408 4.390931 -12.687001 0
M  V30 29 H 11.694707 3.338323 -13.788429 0
M  V30 30 H 10.234509 5.744963 -14.967855 0
M  V30 31 H 11.601813 6.056007 -13.973048 0
M  V30 32 H 12.314067 6.091249 -16.251295 0
M  V30 33 H 13.149193 4.828974 -15.409534 0
M  V30 34 H 9.629721 3.930542 -16.622133 0
M  V30 35 H 10.180874 3.874424 -18.292992 0
M  V30 36 H 10.100675 5.409295 -17.458286 0
M  V30 37 H 13.217194 2.736266 -17.192320 0
M  V30 38 H 12.485430 2.608914 -15.651902 0
M  V30 39 H 12.154563 1.891059 -19.238657 0
M  V30 40 H 10.772484 0.083033 -20.207165 0
M  V30 41 H 9.186215 -1.183179 -18.766588 0
M  V30 42 H 8.990412 -0.628450 -16.361197 0
M  V30 43 H 11.285286 1.399084 -14.428188 0
M  V30 44 H 10.050943 0.243453 -14.444402 0
M  V30 45 H 12.276354 4.509220 -17.678288 0
M  V30 END ATOM
M  V30 BEGIN BOND
M  V30 1 1 2 1
M  V30 2 1 3 2
M  V30 3 1 4 3
M  V30 4 2 5 4
M  V30 5 1 6 5
M  V30 6 2 7 6
M  V30 7 2 8 3
M  V30 8 1 8 7
M  V30 9 1 9 7
M  V30 10 1 10 9
M  V30 11 1 11 10
M  V30 12 1 12 11
M  V30 13 1 13 12
M  V30 14 1 14 12
M  V30 15 1 15 14
M  V30 16 2 16 15
M  V30 17 1 17 16
M  V30 18 2 18 17
M  V30 19 1 19 18
M  V30 20 1 20 15
M  V30 21 2 20 19
M  V30 22 1 21 6
M  V30 23 1 21 20
M  V30 24 1 22 1
M  V30 25 1 23 1
M  V30 26 1 24 1
M  V30 27 1 25 4
M  V30 28 1 26 5
M  V30 29 1 27 8
M  V30 30 1 28 9
M  V30 31 1 29 9
M  V30 32 1 30 10
M  V30 33 1 31 10
M  V30 34 1 32 11
M  V30 35 1 33 11
M  V30 36 1 34 13
M  V30 37 1 35 13
M  V30 38 1 36 13
M  V30 39 1 37 14
M  V30 40 1 38 14
M  V30 41 1 39 16
M  V30 42 1 40 17
M  V30 43 1 41 18
M  V30 44 1 42 19
M  V30 45 1 43 21
M  V30 46 1 44 21
M  V30 47 1 12 45 CFG=3
M  V30 END BOND
M  V30 END CTAB
M  END
>  <b_m_subgroup_collapsed>  (2231) 
0

>  <r_i_docking_score>  (2231) 
-5.9947479199997602

>  <s_m_subgroup_title>  (2231) 
glide-dock_SP_D22_pv

>  <s_m_subgroupid>  (2231) 
glide-dock_SP_D22_pv

>  <Molecule ChEMBL ID>  (2231) 
CHEMBL594789

>  <Standard Type>  (2231) 
Ki

>  <Standard Value>  (2231) 
10000.0

>  <label>  (2231) 
0

$$$$
CHEMBL497549
     RDKit          3D

  0  0  0  0  0  0  0  0  0  0999 V3000
M  V30 BEGIN CTAB
M  V30 COUNTS 49 50 0 0 1
M  V30 BEGIN ATOM
M  V30 1 C 8.450508 5.934155 -13.087538 0
M  V30 2 N 8.267644 4.846192 -12.129635 0
M  V30 3 C 6.852753 4.569935 -11.850545 0
M  V30 4 C 6.021651 4.111396 -13.074156 0
M  V30 5 C 6.458821 2.787565 -13.687343 0
M  V30 6 C 5.716621 1.611134 -13.445585 0
M  V30 7 C 6.138844 0.387310 -13.998742 0
M  V30 8 C 7.293149 0.330492 -14.805907 0
M  V30 9 C 8.033373 1.509104 -15.072423 0
M  V30 10 O 9.161486 1.573465 -15.864739 0
M  V30 11 C 9.870048 0.454852 -16.164036 0
M  V30 12 F 11.023384 0.803081 -16.784863 0
M  V30 13 F 10.217474 -0.227640 -15.047009 0
M  V30 14 F 9.196484 -0.364501 -17.009329 0
M  V30 15 C 7.603508 2.721429 -14.505896 0
M  V30 16 C 9.043932 5.070259 -10.903242 0
M  V30 17 C 8.637816 6.329015 -10.101684 0
M  V30 18 N 9.659532 6.753103 -9.112163 0 CHG=1
M  V30 19 C 9.803466 8.234307 -9.051360 0
M  V30 20 C 10.933793 8.653429 -8.096076 0
M  V30 21 C 10.697947 8.084500 -6.691954 0
M  V30 22 C 10.531778 6.562532 -6.774124 0
M  V30 23 C 9.417691 6.173124 -7.765007 0
M  V30 24 H 9.509187 6.171951 -13.194736 0
M  V30 25 H 8.089861 5.660714 -14.077081 0
M  V30 26 H 7.917174 6.839562 -12.796852 0
M  V30 27 H 6.388505 5.464150 -11.434452 0
M  V30 28 H 6.792695 3.796316 -11.082623 0
M  V30 29 H 6.011753 4.878680 -13.846893 0
M  V30 30 H 4.981294 4.018333 -12.763326 0
M  V30 31 H 4.830927 1.641753 -12.829000 0
M  V30 32 H 5.575898 -0.515934 -13.812333 0
M  V30 33 H 7.585968 -0.625893 -15.213341 0
M  V30 34 H 8.176907 3.612651 -14.705162 0
M  V30 35 H 8.981934 4.189349 -10.264716 0
M  V30 36 H 10.086172 5.154961 -11.201123 0
M  V30 37 H 8.486066 7.159784 -10.787207 0
M  V30 38 H 7.686008 6.171981 -9.600356 0
M  V30 39 H 10.021628 8.627747 -10.046008 0
M  V30 40 H 8.856904 8.680277 -8.736436 0
M  V30 41 H 11.895184 8.306340 -8.479419 0
M  V30 42 H 10.999512 9.740164 -8.046602 0
M  V30 43 H 11.530146 8.341203 -6.034833 0
M  V30 44 H 9.803108 8.532267 -6.255250 0
M  V30 45 H 11.475624 6.102280 -7.073365 0
M  V30 46 H 10.300277 6.173291 -5.780840 0
M  V30 47 H 8.453767 6.520510 -7.387532 0
M  V30 48 H 9.352203 5.085743 -7.844573 0
M  V30 49 H 10.545823 6.397109 -9.440377 0
M  V30 END ATOM
M  V30 BEGIN BOND
M  V30 1 1 2 1
M  V30 2 1 3 2
M  V30 3 1 4 3
M  V30 4 1 5 4
M  V30 5 1 6 5
M  V30 6 2 7 6
M  V30 7 1 8 7
M  V30 8 2 9 8
M  V30 9 1 10 9
M  V30 10 1 11 10
M  V30 11 1 12 11
M  V30 12 1 13 11
M  V30 13 1 14 11
M  V30 14 2 15 5
M  V30 15 1 15 9
M  V30 16 1 16 2
M  V30 17 1 17 16
M  V30 18 1 18 17
M  V30 19 1 19 18
M  V30 20 1 20 19
M  V30 21 1 21 20
M  V30 22 1 22 21
M  V30 23 1 23 18
M  V30 24 1 23 22
M  V30 25 1 24 1
M  V30 26 1 25 1
M  V30 27 1 26 1
M  V30 28 1 27 3
M  V30 29 1 28 3
M  V30 30 1 29 4
M  V30 31 1 30 4
M  V30 32 1 31 6
M  V30 33 1 32 7
M  V30 34 1 33 8
M  V30 35 1 34 15
M  V30 36 1 35 16
M  V30 37 1 36 16
M  V30 38 1 37 17
M  V30 39 1 38 17
M  V30 40 1 39 19
M  V30 41 1 40 19
M  V30 42 1 41 20
M  V30 43 1 42 20
M  V30 44 1 43 21
M  V30 45 1 44 21
M  V30 46 1 45 22
M  V30 47 1 46 22
M  V30 48 1 47 23
M  V30 49 1 48 23
M  V30 50 1 49 18
M  V30 END BOND
M  V30 END CTAB
M  END
>  <b_m_subgroup_collapsed>  (2232) 
0

>  <r_i_docking_score>  (2232) 
-5.9947401321158198

>  <s_m_subgroup_title>  (2232) 
glide-dock_SP_D22_pv

>  <s_m_subgroupid>  (2232) 
glide-dock_SP_D22_pv

>  <Molecule ChEMBL ID>  (2232) 
CHEMBL497549

>  <Standard Type>  (2232) 
Ki

>  <Standard Value>  (2232) 
10000.0

>  <label>  (2232) 
0

$$$$
CHEMBL3765169
     RDKit          3D

  0  0  0  0  0  0  0  0  0  0999 V3000
M  V30 BEGIN CTAB
M  V30 COUNTS 55 58 0 0 1
M  V30 BEGIN ATOM
M  V30 1 C 9.724962 0.027115 -15.675331 0
M  V30 2 N 8.993264 0.675937 -16.753391 0
M  V30 3 C 9.473892 1.421713 -17.772272 0
M  V30 4 S 11.175714 1.848023 -17.996077 0
M  V30 5 C 11.561581 2.637988 -16.399990 0
M  V30 6 C 10.549431 3.720073 -15.976571 0
M  V30 7 C 10.761013 4.142284 -14.514314 0
M  V30 8 N 9.610216 4.774808 -13.871418 0
M  V30 9 C 8.528425 3.820020 -13.610941 0
M  V30 10 C 7.365031 4.445741 -12.823224 0
M  V30 11 O 7.863729 4.981035 -11.605634 0
M  V30 12 C 8.856069 5.984212 -11.809134 0 CFG=1
M  V30 13 C 9.364217 6.563449 -10.501543 0
M  V30 14 C 9.976797 7.833313 -10.495115 0
M  V30 15 C 10.490893 8.367488 -9.298998 0
M  V30 16 C 10.395685 7.634729 -8.096300 0
M  V30 17 C 10.943220 8.216866 -6.806160 0
M  V30 18 F 12.015862 8.971934 -7.042120 0
M  V30 19 F 10.008586 8.974044 -6.245437 0
M  V30 20 F 11.285550 7.253476 -5.949369 0
M  V30 21 C 9.775082 6.367510 -8.103436 0
M  V30 22 C 9.267761 5.829910 -9.300016 0
M  V30 23 C 10.022414 5.359997 -12.600183 0
M  V30 24 N 8.531006 1.854414 -18.607531 0
M  V30 25 N 7.346563 1.376066 -18.105074 0
M  V30 26 C 7.657822 0.688986 -16.998011 0
M  V30 27 C 6.608058 0.094696 -16.167433 0
M  V30 28 C 6.599782 0.239949 -14.757945 0
M  V30 29 N 5.588916 -0.235388 -13.993173 0
M  V30 30 C 4.592031 -0.875628 -14.646952 0
M  V30 31 C 4.597815 -1.035295 -16.048389 0
M  V30 32 N 5.598538 -0.542340 -16.811449 0
M  V30 33 H 10.760978 -0.153591 -15.970206 0
M  V30 34 H 9.706502 0.651112 -14.780977 0
M  V30 35 H 9.285180 -0.940464 -15.445127 0
M  V30 36 H 11.629371 1.864438 -15.637878 0
M  V30 37 H 12.560012 3.074517 -16.470524 0
M  V30 38 H 10.628343 4.588831 -16.631643 0
M  V30 39 H 9.536963 3.352947 -16.101763 0
M  V30 40 H 11.054128 3.273546 -13.922666 0
M  V30 41 H 11.616240 4.819591 -14.487211 0
M  V30 42 H 8.133025 3.420659 -14.543713 0
M  V30 43 H 8.918262 2.971894 -13.046844 0
M  V30 44 H 6.873062 5.229093 -13.402746 0
M  V30 45 H 6.610574 3.691440 -12.597604 0
M  V30 46 H 8.413457 6.799212 -12.385454 0
M  V30 47 H 10.055864 8.398332 -11.412601 0
M  V30 48 H 10.952430 9.343787 -9.305660 0
M  V30 49 H 9.681955 5.803267 -7.187735 0
M  V30 50 H 8.800429 4.855758 -9.291029 0
M  V30 51 H 10.485345 4.588235 -11.985062 0
M  V30 52 H 10.785118 6.119200 -12.778367 0
M  V30 53 H 7.386759 0.770474 -14.241126 0
M  V30 54 H 3.779691 -1.261151 -14.050166 0
M  V30 55 H 3.794481 -1.549379 -16.555681 0
M  V30 END ATOM
M  V30 BEGIN BOND
M  V30 1 1 2 1
M  V30 2 1 3 2
M  V30 3 1 4 3
M  V30 4 1 5 4
M  V30 5 1 6 5
M  V30 6 1 7 6
M  V30 7 1 8 7
M  V30 8 1 9 8
M  V30 9 1 10 9
M  V30 10 1 11 10
M  V30 11 1 12 11
M  V30 12 1 13 12
M  V30 13 1 14 13
M  V30 14 2 15 14
M  V30 15 1 16 15
M  V30 16 1 17 16
M  V30 17 1 18 17
M  V30 18 1 19 17
M  V30 19 1 20 17
M  V30 20 2 21 16
M  V30 21 2 22 13
M  V30 22 1 22 21
M  V30 23 1 23 8
M  V30 24 1 23 12
M  V30 25 2 24 3
M  V30 26 1 25 24
M  V30 27 1 26 2
M  V30 28 2 26 25
M  V30 29 1 27 26
M  V30 30 1 28 27
M  V30 31 2 29 28
M  V30 32 1 30 29
M  V30 33 2 31 30
M  V30 34 2 32 27
M  V30 35 1 32 31
M  V30 36 1 33 1
M  V30 37 1 34 1
M  V30 38 1 35 1
M  V30 39 1 36 5
M  V30 40 1 37 5
M  V30 41 1 38 6
M  V30 42 1 39 6
M  V30 43 1 40 7
M  V30 44 1 41 7
M  V30 45 1 42 9
M  V30 46 1 43 9
M  V30 47 1 44 10
M  V30 48 1 45 10
M  V30 49 1 12 46 CFG=3
M  V30 50 1 47 14
M  V30 51 1 48 15
M  V30 52 1 49 21
M  V30 53 1 50 22
M  V30 54 1 51 23
M  V30 55 1 52 23
M  V30 56 1 53 28
M  V30 57 1 54 30
M  V30 58 1 55 31
M  V30 END BOND
M  V30 END CTAB
M  END
>  <b_m_subgroup_collapsed>  (2233) 
0

>  <r_i_docking_score>  (2233) 
-5.9913759954250798

>  <s_m_subgroup_title>  (2233) 
glide-dock_SP_D22_pv

>  <s_m_subgroupid>  (2233) 
glide-dock_SP_D22_pv

>  <Molecule ChEMBL ID>  (2233) 
CHEMBL3765169

>  <Standard Type>  (2233) 
Ki

>  <Standard Value>  (2233) 
10000.0

>  <label>  (2233) 
0

$$$$
CHEMBL544532
     RDKit          3D

  0  0  0  0  0  0  0  0  0  0999 V3000
M  V30 BEGIN CTAB
M  V30 COUNTS 40 43 0 0 1
M  V30 BEGIN ATOM
M  V30 1 O 10.287303 7.719475 -12.172355 0
M  V30 2 C 9.674021 7.375577 -11.165117 0
M  V30 3 C 9.490838 8.369165 -10.028540 0
M  V30 4 C 9.683701 7.671324 -8.667571 0 CFG=2
M  V30 5 C 9.183447 8.572279 -7.498956 0
M  V30 6 N 10.176223 8.608906 -6.388150 0 CFG=1 CHG=1
M  V30 7 C 10.490289 7.227400 -5.934330 0
M  V30 8 C 11.191962 6.454053 -7.077742 0
M  V30 9 C 11.165080 7.295663 -8.374930 0 CFG=2
M  V30 10 C 11.988784 8.572685 -8.089803 0
M  V30 11 C 11.421548 9.289804 -6.835940 0
M  V30 12 O 8.885880 6.481081 -8.586620 0
M  V30 13 C 8.681611 5.731030 -9.724723 0
M  V30 14 C 9.069589 6.045773 -10.979250 0
M  V30 15 C 8.738418 5.154557 -12.110801 0
M  V30 16 C 7.427110 4.644753 -12.247421 0
M  V30 17 C 7.109664 3.776729 -13.311666 0
M  V30 18 C 8.104159 3.400779 -14.235198 0
M  V30 19 C 9.411660 3.907380 -14.104613 0
M  V30 20 C 9.727901 4.783362 -13.047625 0
M  V30 21 H 10.175600 9.206023 -10.154234 0
M  V30 22 H 8.485979 8.778284 -10.103177 0
M  V30 23 H 9.006195 9.591075 -7.847429 0
M  V30 24 H 8.221478 8.219087 -7.120598 0
M  V30 25 H 11.123828 7.256346 -5.046515 0
M  V30 26 H 9.568996 6.719948 -5.642767 0
M  V30 27 H 10.696096 5.499186 -7.244177 0
M  V30 28 H 12.213971 6.199390 -6.800083 0
M  V30 29 H 11.595963 6.743317 -9.208212 0
M  V30 30 H 11.975636 9.241968 -8.949697 0
M  V30 31 H 13.038150 8.323063 -7.932771 0
M  V30 32 H 11.221436 10.339498 -7.046838 0
M  V30 33 H 12.154617 9.278414 -6.027606 0
M  V30 34 H 8.160291 4.814151 -9.487424 0
M  V30 35 H 6.658155 4.922972 -11.539186 0
M  V30 36 H 6.104971 3.392822 -13.411539 0
M  V30 37 H 7.863775 2.727240 -15.044656 0
M  V30 38 H 10.173738 3.623015 -14.815085 0
M  V30 39 H 10.734867 5.161916 -12.955935 0
M  V30 40 H 9.777779 9.125018 -5.617534 0
M  V30 END ATOM
M  V30 BEGIN BOND
M  V30 1 2 2 1
M  V30 2 1 3 2
M  V30 3 1 4 3
M  V30 4 1 5 4
M  V30 5 1 6 5
M  V30 6 1 7 6
M  V30 7 1 8 7
M  V30 8 1 9 4
M  V30 9 1 9 8
M  V30 10 1 10 9
M  V30 11 1 11 6
M  V30 12 1 11 10
M  V30 13 1 4 12 CFG=3
M  V30 14 1 13 12
M  V30 15 1 14 2
M  V30 16 2 14 13
M  V30 17 1 15 14
M  V30 18 2 16 15
M  V30 19 1 17 16
M  V30 20 2 18 17
M  V30 21 1 19 18
M  V30 22 1 20 15
M  V30 23 2 20 19
M  V30 24 1 21 3
M  V30 25 1 22 3
M  V30 26 1 23 5
M  V30 27 1 24 5
M  V30 28 1 25 7
M  V30 29 1 26 7
M  V30 30 1 27 8
M  V30 31 1 28 8
M  V30 32 1 9 29 CFG=3
M  V30 33 1 30 10
M  V30 34 1 31 10
M  V30 35 1 32 11
M  V30 36 1 33 11
M  V30 37 1 34 13
M  V30 38 1 35 16
M  V30 39 1 36 17
M  V30 40 1 37 18
M  V30 41 1 38 19
M  V30 42 1 39 20
M  V30 43 1 6 40 CFG=1
M  V30 END BOND
M  V30 END CTAB
M  END
>  <b_m_subgroup_collapsed>  (2234) 
0

>  <r_i_docking_score>  (2234) 
-5.9911229318235497

>  <s_m_subgroup_title>  (2234) 
glide-dock_SP_D22_pv

>  <s_m_subgroupid>  (2234) 
glide-dock_SP_D22_pv

>  <Molecule ChEMBL ID>  (2234) 
CHEMBL544532

>  <Standard Type>  (2234) 
Ki

>  <Standard Value>  (2234) 
10000.0

>  <label>  (2234) 
0

$$$$
CHEMBL91446
     RDKit          3D

  0  0  0  0  0  0  0  0  0  0999 V3000
M  V30 BEGIN CTAB
M  V30 COUNTS 52 55 0 0 1
M  V30 BEGIN ATOM
M  V30 1 C 11.992332 9.194551 -7.077064 0
M  V30 2 O 10.916320 8.285830 -7.196407 0
M  V30 3 C 10.602344 7.973376 -8.544533 0
M  V30 4 C 9.325096 7.103858 -8.543460 0 CFG=2
M  V30 5 C 9.484997 5.877604 -7.626462 0
M  V30 6 C 8.815677 4.736015 -8.378185 0
M  V30 7 C 9.065787 5.107649 -9.827998 0
M  V30 8 N 8.886419 6.571954 -9.870111 0 CFG=2 CHG=1
M  V30 9 C 9.387199 7.251266 -11.091572 0
M  V30 10 C 8.701878 6.776989 -12.392795 0
M  V30 11 C 9.409873 5.652800 -13.136497 0
M  V30 12 C 8.932901 4.417124 -13.549709 0
M  V30 13 C 7.654239 3.702874 -13.434048 0
M  V30 14 C 7.398732 2.569090 -14.253228 0
M  V30 15 C 6.266397 1.758146 -14.051600 0
M  V30 16 C 5.342126 2.084480 -13.047092 0
M  V30 17 C 5.555284 3.232739 -12.268388 0
M  V30 18 C 6.681275 4.039033 -12.468245 0
M  V30 19 N 9.951890 3.758602 -14.221097 0
M  V30 20 C 11.030627 4.571643 -14.431057 0
M  V30 21 C 12.208369 4.395675 -15.177094 0
M  V30 22 C 13.113415 5.462860 -15.291825 0
M  V30 23 C 12.850322 6.669902 -14.619125 0
M  V30 24 C 11.698222 6.804170 -13.815893 0
M  V30 25 C 10.729990 5.771775 -13.732211 0
M  V30 26 H 12.275717 9.293631 -6.029297 0
M  V30 27 H 12.870325 8.867482 -7.637122 0
M  V30 28 H 11.685233 10.172068 -7.443344 0
M  V30 29 H 11.448246 7.446060 -8.994236 0
M  V30 30 H 10.439711 8.894711 -9.106084 0
M  V30 31 H 8.499397 7.712676 -8.171401 0
M  V30 32 H 9.047076 6.051494 -6.644059 0
M  V30 33 H 10.539842 5.643683 -7.472085 0
M  V30 34 H 7.747174 4.746943 -8.168870 0
M  V30 35 H 9.195509 3.746061 -8.131888 0
M  V30 36 H 8.397963 4.571693 -10.490343 0
M  V30 37 H 10.086182 4.852028 -10.110331 0
M  V30 38 H 10.471902 7.178394 -11.173304 0
M  V30 39 H 9.149582 8.309331 -10.970111 0
M  V30 40 H 8.624300 7.641394 -13.043446 0
M  V30 41 H 7.653422 6.584272 -12.208011 0
M  V30 42 H 8.088870 2.270699 -15.027373 0
M  V30 43 H 6.110785 0.882972 -14.665692 0
M  V30 44 H 4.482621 1.456445 -12.879551 0
M  V30 45 H 4.886999 3.502803 -11.473789 0
M  V30 46 H 6.780264 4.863564 -11.791879 0
M  V30 47 H 9.850516 2.819451 -14.575290 0
M  V30 48 H 12.398681 3.465906 -15.693489 0
M  V30 49 H 14.010510 5.355379 -15.884373 0
M  V30 50 H 13.552741 7.486262 -14.695932 0
M  V30 51 H 11.519317 7.742200 -13.313928 0
M  V30 52 H 7.881217 6.748988 -9.874687 0
M  V30 END ATOM
M  V30 BEGIN BOND
M  V30 1 1 2 1
M  V30 2 1 3 2
M  V30 3 1 4 3
M  V30 4 1 5 4
M  V30 5 1 6 5
M  V30 6 1 7 6
M  V30 7 1 8 4
M  V30 8 1 8 7
M  V30 9 1 9 8
M  V30 10 1 10 9
M  V30 11 1 11 10
M  V30 12 2 12 11
M  V30 13 1 13 12
M  V30 14 2 14 13
M  V30 15 1 15 14
M  V30 16 2 16 15
M  V30 17 1 17 16
M  V30 18 1 18 13
M  V30 19 2 18 17
M  V30 20 1 19 12
M  V30 21 1 20 19
M  V30 22 2 21 20
M  V30 23 1 22 21
M  V30 24 2 23 22
M  V30 25 1 24 23
M  V30 26 1 25 11
M  V30 27 1 25 20
M  V30 28 2 25 24
M  V30 29 1 26 1
M  V30 30 1 27 1
M  V30 31 1 28 1
M  V30 32 1 29 3
M  V30 33 1 30 3
M  V30 34 1 4 31 CFG=1
M  V30 35 1 32 5
M  V30 36 1 33 5
M  V30 37 1 34 6
M  V30 38 1 35 6
M  V30 39 1 36 7
M  V30 40 1 37 7
M  V30 41 1 38 9
M  V30 42 1 39 9
M  V30 43 1 40 10
M  V30 44 1 41 10
M  V30 45 1 42 14
M  V30 46 1 43 15
M  V30 47 1 44 16
M  V30 48 1 45 17
M  V30 49 1 46 18
M  V30 50 1 47 19
M  V30 51 1 48 21
M  V30 52 1 49 22
M  V30 53 1 50 23
M  V30 54 1 51 24
M  V30 55 1 8 52 CFG=1
M  V30 END BOND
M  V30 END CTAB
M  END
>  <b_m_subgroup_collapsed>  (2235) 
0

>  <r_i_docking_score>  (2235) 
-5.9890669375583103

>  <s_m_subgroup_title>  (2235) 
glide-dock_SP_D22_pv

>  <s_m_subgroupid>  (2235) 
glide-dock_SP_D22_pv

>  <Molecule ChEMBL ID>  (2235) 
CHEMBL91446

>  <Standard Type>  (2235) 
Ki

>  <Standard Value>  (2235) 
92.0

>  <label>  (2235) 
1

$$$$
CHEMBL104700
     RDKit          3D

  0  0  0  0  0  0  0  0  0  0999 V3000
M  V30 BEGIN CTAB
M  V30 COUNTS 31 33 0 0 1
M  V30 BEGIN ATOM
M  V30 1 C 11.781248 9.691627 -3.302844 0
M  V30 2 C 12.377107 8.859209 -2.338435 0
M  V30 3 N 12.485966 7.524962 -2.489037 0
M  V30 4 C 12.001253 6.972865 -3.617979 0
M  V30 5 C 11.380179 7.713576 -4.646859 0
M  V30 6 C 10.750839 6.966787 -5.812393 0
M  V30 7 N 10.473398 7.811971 -6.999379 0 CFG=2 CHG=1
M  V30 8 C 9.110826 7.756113 -7.548562 0 CFG=2
M  V30 9 C 9.011620 6.357492 -8.183080 0
M  V30 10 C 10.443017 6.156810 -8.698252 0
M  V30 11 C 11.149994 7.454774 -8.253251 0 CFG=1
M  V30 12 C 10.675681 8.589619 -9.173576 0
M  V30 13 C 9.226000 8.781897 -8.684468 0
M  V30 14 C 11.286032 9.114296 -4.484569 0
M  V30 15 H 11.685949 10.749312 -3.111689 0
M  V30 16 H 12.760068 9.273519 -1.417378 0
M  V30 17 H 12.082806 5.898065 -3.688127 0
M  V30 18 H 11.403616 6.135761 -6.081388 0
M  V30 19 H 9.822367 6.526927 -5.445798 0
M  V30 20 H 8.311787 7.981237 -6.839417 0
M  V30 21 H 8.748014 5.599048 -7.446567 0
M  V30 22 H 8.265983 6.312775 -8.979145 0
M  V30 23 H 10.477960 6.012826 -9.778857 0
M  V30 24 H 10.885975 5.274889 -8.238203 0
M  V30 25 H 12.235081 7.372881 -8.182729 0
M  V30 26 H 10.732792 8.328427 -10.231202 0
M  V30 27 H 11.262197 9.496734 -9.020075 0
M  V30 28 H 8.486063 8.626954 -9.471149 0
M  V30 29 H 9.069094 9.772297 -8.277787 0
M  V30 30 H 10.798178 9.740780 -5.216441 0
M  V30 31 H 10.692769 8.769397 -6.772434 0
M  V30 END ATOM
M  V30 BEGIN BOND
M  V30 1 2 2 1
M  V30 2 1 3 2
M  V30 3 2 4 3
M  V30 4 1 5 4
M  V30 5 1 6 5
M  V30 6 1 7 6
M  V30 7 1 8 7
M  V30 8 1 9 8
M  V30 9 1 10 9
M  V30 10 1 11 7
M  V30 11 1 11 10
M  V30 12 1 12 11
M  V30 13 1 13 8
M  V30 14 1 13 12
M  V30 15 1 14 1
M  V30 16 2 14 5
M  V30 17 1 15 1
M  V30 18 1 16 2
M  V30 19 1 17 4
M  V30 20 1 18 6
M  V30 21 1 19 6
M  V30 22 1 8 20 CFG=3
M  V30 23 1 21 9
M  V30 24 1 22 9
M  V30 25 1 23 10
M  V30 26 1 24 10
M  V30 27 1 11 25 CFG=3
M  V30 28 1 26 12
M  V30 29 1 27 12
M  V30 30 1 28 13
M  V30 31 1 29 13
M  V30 32 1 30 14
M  V30 33 1 7 31 CFG=1
M  V30 END BOND
M  V30 END CTAB
M  END
>  <b_m_subgroup_collapsed>  (2236) 
0

>  <r_i_docking_score>  (2236) 
-5.9856372851360202

>  <s_m_subgroup_title>  (2236) 
glide-dock_SP_D22_pv

>  <s_m_subgroupid>  (2236) 
glide-dock_SP_D22_pv

>  <Molecule ChEMBL ID>  (2236) 
CHEMBL104700

>  <Standard Type>  (2236) 
Ki

>  <Standard Value>  (2236) 
10000.0

>  <label>  (2236) 
0

$$$$
CHEMBL426662
     RDKit          3D

  0  0  0  0  0  0  0  0  0  0999 V3000
M  V30 BEGIN CTAB
M  V30 COUNTS 51 54 0 0 1
M  V30 BEGIN ATOM
M  V30 1 C 14.045546 4.875446 -17.262396 0
M  V30 2 N 12.592864 5.056533 -17.008881 0 CFG=1 CHG=1
M  V30 3 C 12.278779 6.374843 -16.389738 0
M  V30 4 C 12.723499 6.481986 -14.915082 0
M  V30 5 C 11.743356 5.949769 -13.852063 0
M  V30 6 C 11.284665 4.482255 -14.002587 0
M  V30 7 C 9.948319 4.294194 -14.762779 0 CFG=2
M  V30 8 C 8.702008 4.219434 -13.858566 0
M  V30 9 C 7.588941 3.402134 -14.187014 0
M  V30 10 C 6.428396 3.401944 -13.389912 0
M  V30 11 C 6.356958 4.222353 -12.248713 0
M  V30 12 C 7.448964 5.038657 -11.910460 0
M  V30 13 C 8.610138 5.034011 -12.705230 0
M  V30 14 C 10.064621 3.153445 -15.730985 0
M  V30 15 N 10.059026 1.832725 -15.308910 0
M  V30 16 C 10.129285 0.975768 -16.385380 0
M  V30 17 C 10.088728 -0.425024 -16.488543 0
M  V30 18 C 10.206867 -1.026645 -17.753971 0
M  V30 19 C 10.361726 -0.227097 -18.900089 0
M  V30 20 C 10.383713 1.177433 -18.787268 0
M  V30 21 C 10.260667 1.812541 -17.530621 0
M  V30 22 C 10.226591 3.182864 -17.095438 0
M  V30 23 C 10.341944 4.398126 -17.969065 0
M  V30 24 C 11.806048 4.790287 -18.244324 0
M  V30 25 H 14.405134 5.601154 -17.993792 0
M  V30 26 H 14.251207 3.874618 -17.647696 0
M  V30 27 H 14.645625 4.986183 -16.360037 0
M  V30 28 H 12.769674 7.153427 -16.976154 0
M  V30 29 H 11.214025 6.595689 -16.451935 0
M  V30 30 H 13.694502 6.023930 -14.759035 0
M  V30 31 H 12.880878 7.538881 -14.698436 0
M  V30 32 H 12.247890 6.050644 -12.892022 0
M  V30 33 H 10.885556 6.607286 -13.787251 0
M  V30 34 H 12.089001 3.931138 -14.493598 0
M  V30 35 H 11.197094 3.997522 -13.037203 0
M  V30 36 H 9.772245 5.195889 -15.345351 0
M  V30 37 H 7.593017 2.779696 -15.068817 0
M  V30 38 H 5.588374 2.777005 -13.655686 0
M  V30 39 H 5.467316 4.232171 -11.636074 0
M  V30 40 H 7.388786 5.681268 -11.042345 0
M  V30 41 H 9.422854 5.678791 -12.414613 0
M  V30 42 H 9.958235 1.566419 -14.337320 0
M  V30 43 H 9.965866 -1.028143 -15.601085 0
M  V30 44 H 10.179978 -2.104016 -17.849184 0
M  V30 45 H 10.451577 -0.688353 -19.873127 0
M  V30 46 H 10.483988 1.779622 -19.677156 0
M  V30 47 H 9.859313 4.198563 -18.925217 0
M  V30 48 H 9.785239 5.236704 -17.554403 0
M  V30 49 H 11.853818 5.657269 -18.904215 0
M  V30 50 H 12.267251 3.965455 -18.791637 0
M  V30 51 H 12.320240 4.341662 -16.346996 0
M  V30 END ATOM
M  V30 BEGIN BOND
M  V30 1 1 2 1
M  V30 2 1 3 2
M  V30 3 1 4 3
M  V30 4 1 5 4
M  V30 5 1 6 5
M  V30 6 1 7 6
M  V30 7 1 8 7
M  V30 8 2 9 8
M  V30 9 1 10 9
M  V30 10 2 11 10
M  V30 11 1 12 11
M  V30 12 1 13 8
M  V30 13 2 13 12
M  V30 14 1 14 7
M  V30 15 1 15 14
M  V30 16 1 16 15
M  V30 17 2 17 16
M  V30 18 1 18 17
M  V30 19 2 19 18
M  V30 20 1 20 19
M  V30 21 1 21 16
M  V30 22 2 21 20
M  V30 23 2 22 14
M  V30 24 1 22 21
M  V30 25 1 23 22
M  V30 26 1 24 2
M  V30 27 1 24 23
M  V30 28 1 25 1
M  V30 29 1 26 1
M  V30 30 1 27 1
M  V30 31 1 28 3
M  V30 32 1 29 3
M  V30 33 1 30 4
M  V30 34 1 31 4
M  V30 35 1 32 5
M  V30 36 1 33 5
M  V30 37 1 34 6
M  V30 38 1 35 6
M  V30 39 1 7 36 CFG=3
M  V30 40 1 37 9
M  V30 41 1 38 10
M  V30 42 1 39 11
M  V30 43 1 40 12
M  V30 44 1 41 13
M  V30 45 1 42 15
M  V30 46 1 43 17
M  V30 47 1 44 18
M  V30 48 1 45 19
M  V30 49 1 46 20
M  V30 50 1 47 23
M  V30 51 1 48 23
M  V30 52 1 49 24
M  V30 53 1 50 24
M  V30 54 1 2 51 CFG=1
M  V30 END BOND
M  V30 END CTAB
M  END
>  <b_m_subgroup_collapsed>  (2237) 
0

>  <r_i_docking_score>  (2237) 
-5.9841271106835503

>  <s_m_subgroup_title>  (2237) 
glide-dock_SP_D22_pv

>  <s_m_subgroupid>  (2237) 
glide-dock_SP_D22_pv

>  <Molecule ChEMBL ID>  (2237) 
CHEMBL426662

>  <Standard Type>  (2237) 
Ki

>  <Standard Value>  (2237) 
10000.0

>  <label>  (2237) 
0

$$$$
CHEMBL5722949
     RDKit          3D

  0  0  0  0  0  0  0  0  0  0999 V3000
M  V30 BEGIN CTAB
M  V30 COUNTS 34 36 0 0 1
M  V30 BEGIN ATOM
M  V30 1 O 10.931307 4.422327 -13.843737 0
M  V30 2 C 10.054865 5.062973 -13.262949 0
M  V30 3 C 10.362022 6.328455 -12.564963 0
M  V30 4 C 9.401454 7.007645 -11.901146 0
M  V30 5 C 9.679769 8.320895 -11.189566 0
M  V30 6 N 9.286059 8.295222 -9.790608 0
M  V30 7 C 10.078175 7.356797 -8.998382 0 CFG=2
M  V30 8 C 9.189065 6.704673 -7.939163 0
M  V30 9 C 9.031867 7.689978 -6.779093 0
M  V30 10 S 10.521680 8.717578 -6.691366 0
M  V30 11 C 11.199452 8.094234 -8.254158 0
M  V30 12 N 8.086688 6.563285 -11.847066 0
M  V30 13 C 7.678084 5.392740 -12.495543 0
M  V30 14 C 6.333109 4.979311 -12.442897 0
M  V30 15 C 5.926505 3.811404 -13.118775 0
M  V30 16 C 6.867033 3.053901 -13.846362 0
M  V30 17 F 6.485919 1.922758 -14.483587 0
M  V30 18 C 8.214371 3.459729 -13.894623 0
M  V30 19 C 8.628254 4.626200 -13.218746 0
M  V30 20 H 11.378373 6.692252 -12.604582 0
M  V30 21 H 10.739343 8.571594 -11.263730 0
M  V30 22 H 9.121177 9.110307 -11.695565 0
M  V30 23 H 8.293849 8.061444 -9.752637 0
M  V30 24 H 10.499635 6.574717 -9.628761 0
M  V30 25 H 8.227599 6.377215 -8.339259 0
M  V30 26 H 9.689991 5.808374 -7.569011 0
M  V30 27 H 8.886013 7.153616 -5.846933 0
M  V30 28 H 8.167408 8.334605 -6.941877 0
M  V30 29 H 11.995502 7.390019 -8.011453 0
M  V30 30 H 11.642821 8.898145 -8.841821 0
M  V30 31 H 7.402593 7.077806 -11.275512 0
M  V30 32 H 5.613800 5.559786 -11.881925 0
M  V30 33 H 4.894887 3.494921 -13.076703 0
M  V30 34 H 8.927537 2.863754 -14.447850 0
M  V30 END ATOM
M  V30 BEGIN BOND
M  V30 1 2 2 1
M  V30 2 1 3 2
M  V30 3 2 4 3
M  V30 4 1 5 4
M  V30 5 1 6 5
M  V30 6 1 7 6
M  V30 7 1 8 7
M  V30 8 1 9 8
M  V30 9 1 10 9
M  V30 10 1 11 7
M  V30 11 1 11 10
M  V30 12 1 12 4
M  V30 13 1 13 12
M  V30 14 2 14 13
M  V30 15 1 15 14
M  V30 16 2 16 15
M  V30 17 1 17 16
M  V30 18 1 18 16
M  V30 19 1 19 2
M  V30 20 1 19 13
M  V30 21 2 19 18
M  V30 22 1 20 3
M  V30 23 1 21 5
M  V30 24 1 22 5
M  V30 25 1 23 6
M  V30 26 1 7 24 CFG=3
M  V30 27 1 25 8
M  V30 28 1 26 8
M  V30 29 1 27 9
M  V30 30 1 28 9
M  V30 31 1 29 11
M  V30 32 1 30 11
M  V30 33 1 31 12
M  V30 34 1 32 14
M  V30 35 1 33 15
M  V30 36 1 34 18
M  V30 END BOND
M  V30 END CTAB
M  END
>  <b_m_subgroup_collapsed>  (2238) 
0

>  <r_i_docking_score>  (2238) 
-5.98317124293267

>  <s_m_subgroup_title>  (2238) 
glide-dock_SP_D22_pv

>  <s_m_subgroupid>  (2238) 
glide-dock_SP_D22_pv

>  <Molecule ChEMBL ID>  (2238) 
CHEMBL5722949

>  <Standard Type>  (2238) 
Ki

>  <Standard Value>  (2238) 
10000.0

>  <label>  (2238) 
0

$$$$
CHEMBL193435
     RDKit          3D

  0  0  0  0  0  0  0  0  0  0999 V3000
M  V30 BEGIN CTAB
M  V30 COUNTS 44 47 0 0 1
M  V30 BEGIN ATOM
M  V30 1 C 8.257264 9.318404 -11.626813 0
M  V30 2 N 8.886066 8.080997 -11.125544 0 CHG=1
M  V30 3 C 9.977572 8.360435 -10.162067 0
M  V30 4 C 9.279162 7.195005 -12.244900 0
M  V30 5 C 9.427548 5.717075 -11.848969 0 CFG=1
M  V30 6 C 8.203881 4.862230 -12.200889 0
M  V30 7 C 8.592503 4.198487 -13.518174 0 CFG=2
M  V30 8 C 7.820545 2.925153 -13.864882 0
M  V30 9 C 6.436518 2.898758 -13.568074 0
M  V30 10 C 5.686293 1.720520 -13.722338 0
M  V30 11 C 6.283170 0.569396 -14.256591 0
M  V30 12 C 7.641584 0.594593 -14.607863 0
M  V30 13 C 8.429252 1.746730 -14.404226 0
M  V30 14 O 9.772614 1.565168 -14.647135 0
M  V30 15 C 10.547631 2.523036 -15.244929 0
M  V30 16 C 11.190178 2.235760 -16.465015 0
M  V30 17 C 12.093259 3.163545 -17.023510 0
M  V30 18 C 12.360386 4.375587 -16.358021 0
M  V30 19 Br 13.607171 5.615200 -17.089857 0
M  V30 20 C 11.709757 4.671736 -15.145505 0
M  V30 21 C 10.809494 3.739501 -14.587473 0
M  V30 22 C 10.085436 4.014307 -13.293783 0 CFG=1
M  V30 23 O 10.485366 5.214539 -12.655332 0
M  V30 24 H 8.886116 9.773168 -12.389495 0
M  V30 25 H 8.077871 10.024771 -10.815292 0
M  V30 26 H 7.295023 9.089080 -12.085077 0
M  V30 27 H 10.797313 8.897569 -10.642612 0
M  V30 28 H 10.376895 7.442868 -9.731441 0
M  V30 29 H 9.611124 8.972414 -9.335822 0
M  V30 30 H 8.536399 7.265830 -13.043642 0
M  V30 31 H 10.220309 7.574711 -12.646273 0
M  V30 32 H 9.698094 5.590143 -10.799625 0
M  V30 33 H 8.073450 4.104543 -11.427953 0
M  V30 34 H 7.275541 5.432467 -12.254095 0
M  V30 35 H 8.438965 4.916569 -14.326857 0
M  V30 36 H 5.942513 3.768833 -13.163353 0
M  V30 37 H 4.641246 1.708484 -13.450153 0
M  V30 38 H 5.705362 -0.332939 -14.393317 0
M  V30 39 H 8.098883 -0.302927 -14.996304 0
M  V30 40 H 11.013152 1.292827 -16.961248 0
M  V30 41 H 12.594352 2.934688 -17.952227 0
M  V30 42 H 11.916601 5.607060 -14.647549 0
M  V30 43 H 10.259555 3.190377 -12.601493 0
M  V30 44 H 8.124480 7.636159 -10.616659 0
M  V30 END ATOM
M  V30 BEGIN BOND
M  V30 1 1 2 1
M  V30 2 1 3 2
M  V30 3 1 4 2
M  V30 4 1 5 4
M  V30 5 1 6 5
M  V30 6 1 7 6
M  V30 7 1 8 7
M  V30 8 2 9 8
M  V30 9 1 10 9
M  V30 10 2 11 10
M  V30 11 1 12 11
M  V30 12 1 13 8
M  V30 13 2 13 12
M  V30 14 1 14 13
M  V30 15 1 15 14
M  V30 16 1 16 15
M  V30 17 2 17 16
M  V30 18 1 18 17
M  V30 19 1 19 18
M  V30 20 2 20 18
M  V30 21 2 21 15
M  V30 22 1 21 20
M  V30 23 1 22 7
M  V30 24 1 22 21
M  V30 25 1 23 5
M  V30 26 1 23 22
M  V30 27 1 24 1
M  V30 28 1 25 1
M  V30 29 1 26 1
M  V30 30 1 27 3
M  V30 31 1 28 3
M  V30 32 1 29 3
M  V30 33 1 30 4
M  V30 34 1 31 4
M  V30 35 1 5 32 CFG=1
M  V30 36 1 33 6
M  V30 37 1 34 6
M  V30 38 1 7 35 CFG=3
M  V30 39 1 36 9
M  V30 40 1 37 10
M  V30 41 1 38 11
M  V30 42 1 39 12
M  V30 43 1 40 16
M  V30 44 1 41 17
M  V30 45 1 42 20
M  V30 46 1 22 43 CFG=1
M  V30 47 1 44 2
M  V30 END BOND
M  V30 END CTAB
M  END
>  <b_m_subgroup_collapsed>  (2239) 
0

>  <r_i_docking_score>  (2239) 
-5.9824962405990201

>  <s_m_subgroup_title>  (2239) 
glide-dock_SP_D22_pv

>  <s_m_subgroupid>  (2239) 
glide-dock_SP_D22_pv

>  <Molecule ChEMBL ID>  (2239) 
CHEMBL193435

>  <Standard Type>  (2239) 
Ki

>  <Standard Value>  (2239) 
66.0

>  <label>  (2239) 
1

$$$$
CHEMBL4876353
     RDKit          3D

  0  0  0  0  0  0  0  0  0  0999 V3000
M  V30 BEGIN CTAB
M  V30 COUNTS 71 74 0 0 1
M  V30 BEGIN ATOM
M  V30 1 C 4.268858 -0.235860 -19.632626 0
M  V30 2 C 4.924645 -1.319492 -18.764095 0
M  V30 3 C 5.227519 -0.817535 -17.358177 0
M  V30 4 C 4.274555 -1.027617 -16.342680 0
M  V30 5 C 4.496484 -0.530859 -15.046256 0
M  V30 6 Cl 3.286005 -0.758193 -13.847341 0
M  V30 7 C 5.686665 0.160798 -14.736205 0
M  V30 8 O 5.909007 0.587040 -13.445944 0
M  V30 9 C 5.284736 1.817199 -13.095335 0
M  V30 10 C 6.665237 0.353740 -15.744040 0
M  V30 11 C 7.908358 1.130019 -15.418774 0
M  V30 12 O 7.830641 2.280067 -14.989820 0
M  V30 13 N 9.076883 0.499744 -15.613959 0
M  V30 14 C 10.366971 1.096691 -15.287658 0
M  V30 15 C 10.753414 2.211378 -16.290831 0 CFG=2
M  V30 16 C 11.049368 1.684256 -17.702072 0
M  V30 17 C 12.098913 2.640600 -18.286983 0
M  V30 18 C 12.490621 3.583246 -17.144377 0
M  V30 19 N 11.983216 2.945531 -15.914433 0 CFG=1 CHG=1
M  V30 20 C 11.910412 3.806972 -14.702179 0
M  V30 21 C 10.930794 4.994948 -14.803437 0
M  V30 22 C 10.681701 5.644087 -13.444265 0
M  V30 23 C 11.310557 6.776337 -13.027591 0
M  V30 24 C 12.387015 7.471695 -13.842457 0
M  V30 25 N 10.998732 7.372346 -11.801925 0
M  V30 26 C 10.085526 6.843048 -11.052180 0
M  V30 27 N 9.396466 5.662587 -11.405397 0
M  V30 28 C 9.668493 5.014691 -12.577592 0
M  V30 29 O 9.117941 3.956962 -12.879267 0
M  V30 30 C 8.387605 5.142170 -10.460558 0
M  V30 31 C 8.939123 5.047814 -9.027824 0
M  V30 32 C 9.669479 6.330428 -8.585386 0
M  V30 33 C 9.728153 7.412083 -9.683561 0
M  V30 34 C 6.424867 -0.125345 -17.060333 0
M  V30 35 O 7.327491 0.103922 -18.063860 0
M  V30 36 H 4.086962 -0.606562 -20.644001 0
M  V30 37 H 3.310279 0.072845 -19.216757 0
M  V30 38 H 4.901293 0.648366 -19.709318 0
M  V30 39 H 5.836895 -1.684657 -19.235924 0
M  V30 40 H 4.259455 -2.183687 -18.701967 0
M  V30 41 H 3.354916 -1.557225 -16.561050 0
M  V30 42 H 5.629313 2.122957 -12.105641 0
M  V30 43 H 5.533603 2.613595 -13.794220 0
M  V30 44 H 4.198621 1.730229 -13.050771 0
M  V30 45 H 9.048005 -0.442823 -15.978361 0
M  V30 46 H 10.308200 1.482921 -14.269737 0
M  V30 47 H 11.123705 0.310422 -15.273339 0
M  V30 48 H 9.943270 2.934805 -16.383905 0
M  V30 49 H 11.464013 0.673348 -17.658241 0
M  V30 50 H 10.146221 1.634766 -18.311924 0
M  V30 51 H 12.964126 2.077009 -18.643648 0
M  V30 52 H 11.705016 3.199337 -19.136827 0
M  V30 53 H 13.564984 3.755482 -17.093214 0
M  V30 54 H 12.005569 4.544106 -17.302595 0
M  V30 55 H 11.649773 3.187242 -13.846845 0
M  V30 56 H 12.909400 4.182625 -14.485615 0
M  V30 57 H 11.299509 5.741855 -15.505229 0
M  V30 58 H 9.966498 4.688292 -15.205260 0
M  V30 59 H 11.945168 8.025321 -14.671286 0
M  V30 60 H 12.952408 8.175735 -13.228024 0
M  V30 61 H 13.100886 6.753155 -14.245826 0
M  V30 62 H 7.521334 5.796211 -10.484419 0
M  V30 63 H 7.990267 4.172320 -10.751095 0
M  V30 64 H 8.127785 4.820904 -8.334527 0
M  V30 65 H 9.629625 4.206671 -8.971087 0
M  V30 66 H 9.188322 6.741701 -7.698410 0
M  V30 67 H 10.686880 6.070328 -8.285936 0
M  V30 68 H 10.445230 8.182185 -9.403327 0
M  V30 69 H 8.765586 7.915166 -9.761348 0
M  V30 70 H 7.038365 -0.244745 -18.892622 0
M  V30 71 H 12.660339 2.223911 -15.700892 0
M  V30 END ATOM
M  V30 BEGIN BOND
M  V30 1 1 2 1
M  V30 2 1 3 2
M  V30 3 1 4 3
M  V30 4 2 5 4
M  V30 5 1 6 5
M  V30 6 1 7 5
M  V30 7 1 8 7
M  V30 8 1 9 8
M  V30 9 2 10 7
M  V30 10 1 11 10
M  V30 11 2 12 11
M  V30 12 1 13 11
M  V30 13 1 14 13
M  V30 14 1 15 14
M  V30 15 1 16 15
M  V30 16 1 17 16
M  V30 17 1 18 17
M  V30 18 1 19 15
M  V30 19 1 19 18
M  V30 20 1 20 19
M  V30 21 1 21 20
M  V30 22 1 22 21
M  V30 23 2 23 22
M  V30 24 1 24 23
M  V30 25 1 25 23
M  V30 26 2 26 25
M  V30 27 1 27 26
M  V30 28 1 28 22
M  V30 29 1 28 27
M  V30 30 2 29 28
M  V30 31 1 30 27
M  V30 32 1 31 30
M  V30 33 1 32 31
M  V30 34 1 33 26
M  V30 35 1 33 32
M  V30 36 2 34 3
M  V30 37 1 34 10
M  V30 38 1 35 34
M  V30 39 1 36 1
M  V30 40 1 37 1
M  V30 41 1 38 1
M  V30 42 1 39 2
M  V30 43 1 40 2
M  V30 44 1 41 4
M  V30 45 1 42 9
M  V30 46 1 43 9
M  V30 47 1 44 9
M  V30 48 1 45 13
M  V30 49 1 46 14
M  V30 50 1 47 14
M  V30 51 1 15 48 CFG=3
M  V30 52 1 49 16
M  V30 53 1 50 16
M  V30 54 1 51 17
M  V30 55 1 52 17
M  V30 56 1 53 18
M  V30 57 1 54 18
M  V30 58 1 55 20
M  V30 59 1 56 20
M  V30 60 1 57 21
M  V30 61 1 58 21
M  V30 62 1 59 24
M  V30 63 1 60 24
M  V30 64 1 61 24
M  V30 65 1 62 30
M  V30 66 1 63 30
M  V30 67 1 64 31
M  V30 68 1 65 31
M  V30 69 1 66 32
M  V30 70 1 67 32
M  V30 71 1 68 33
M  V30 72 1 69 33
M  V30 73 1 70 35
M  V30 74 1 19 71 CFG=1
M  V30 END BOND
M  V30 END CTAB
M  END
>  <b_m_subgroup_collapsed>  (2240) 
0

>  <r_i_docking_score>  (2240) 
-5.9806824682235904

>  <s_m_subgroup_title>  (2240) 
glide-dock_SP_D22_pv

>  <s_m_subgroupid>  (2240) 
glide-dock_SP_D22_pv

>  <Molecule ChEMBL ID>  (2240) 
CHEMBL4876353

>  <Standard Type>  (2240) 
Ki

>  <Standard Value>  (2240) 
74.4

>  <label>  (2240) 
1

$$$$
CHEMBL426662
     RDKit          3D

  0  0  0  0  0  0  0  0  0  0999 V3000
M  V30 BEGIN CTAB
M  V30 COUNTS 51 54 0 0 1
M  V30 BEGIN ATOM
M  V30 1 C 8.485998 5.179824 -9.710910 0
M  V30 2 N 8.476410 5.474727 -11.165347 0 CFG=2 CHG=1
M  V30 3 C 8.972039 6.850486 -11.462371 0
M  V30 4 C 10.510954 6.969755 -11.405834 0
M  V30 5 C 11.296023 6.470004 -12.644930 0
M  V30 6 C 11.043447 5.001103 -13.060636 0
M  V30 7 C 10.243919 4.862489 -14.376018 0 CFG=1
M  V30 8 C 11.086670 4.820673 -15.658965 0
M  V30 9 C 12.480910 5.081456 -15.659855 0
M  V30 10 C 13.216775 5.049938 -16.860981 0
M  V30 11 C 12.570434 4.775074 -18.078939 0
M  V30 12 C 11.183959 4.536002 -18.096115 0
M  V30 13 C 10.448980 4.564180 -16.895771 0
M  V30 14 C 9.225193 3.764347 -14.283045 0
M  V30 15 N 9.496614 2.454902 -14.648290 0
M  V30 16 C 8.374627 1.664182 -14.509563 0
M  V30 17 C 8.131951 0.300338 -14.746062 0
M  V30 18 C 6.855318 -0.227576 -14.479610 0
M  V30 19 C 5.832974 0.604123 -13.992058 0
M  V30 20 C 6.085636 1.969560 -13.765813 0
M  V30 21 C 7.359582 2.531524 -14.012163 0
M  V30 22 C 7.926970 3.836125 -13.833870 0
M  V30 23 C 7.198164 5.038499 -13.312046 0
M  V30 24 C 7.156985 5.163244 -11.772388 0
M  V30 25 H 7.848568 5.875629 -9.165697 0
M  V30 26 H 9.490149 5.241685 -9.294599 0
M  V30 27 H 8.119338 4.172859 -9.511732 0
M  V30 28 H 8.641107 7.214994 -12.430934 0
M  V30 29 H 8.531184 7.539927 -10.742511 0
M  V30 30 H 10.753172 8.026442 -11.287069 0
M  V30 31 H 10.887474 6.502597 -10.499594 0
M  V30 32 H 11.140020 7.146700 -13.483239 0
M  V30 33 H 12.359156 6.573636 -12.424101 0
M  V30 34 H 11.968507 4.427001 -13.104590 0
M  V30 35 H 10.505783 4.498414 -12.260221 0
M  V30 36 H 9.669391 5.772615 -14.500509 0
M  V30 37 H 13.015378 5.320233 -14.753538 0
M  V30 38 H 14.279783 5.243634 -16.845362 0
M  V30 39 H 13.134779 4.755994 -18.999035 0
M  V30 40 H 10.682876 4.334630 -19.031660 0
M  V30 41 H 9.383546 4.386621 -16.931986 0
M  V30 42 H 10.396980 2.156003 -14.996975 0
M  V30 43 H 8.915018 -0.341513 -15.122244 0
M  V30 44 H 6.658579 -1.278587 -14.648116 0
M  V30 45 H 4.852229 0.194984 -13.796695 0
M  V30 46 H 5.293750 2.595912 -13.383243 0
M  V30 47 H 7.640557 5.928090 -13.749148 0
M  V30 48 H 6.169561 4.993826 -13.672587 0
M  V30 49 H 6.783025 4.217535 -11.377041 0
M  V30 50 H 6.440510 5.920146 -11.449339 0
M  V30 51 H 9.120831 4.828584 -11.597198 0
M  V30 END ATOM
M  V30 BEGIN BOND
M  V30 1 1 2 1
M  V30 2 1 3 2
M  V30 3 1 4 3
M  V30 4 1 5 4
M  V30 5 1 6 5
M  V30 6 1 7 6
M  V30 7 1 8 7
M  V30 8 2 9 8
M  V30 9 1 10 9
M  V30 10 2 11 10
M  V30 11 1 12 11
M  V30 12 1 13 8
M  V30 13 2 13 12
M  V30 14 1 14 7
M  V30 15 1 15 14
M  V30 16 1 16 15
M  V30 17 2 17 16
M  V30 18 1 18 17
M  V30 19 2 19 18
M  V30 20 1 20 19
M  V30 21 1 21 16
M  V30 22 2 21 20
M  V30 23 2 22 14
M  V30 24 1 22 21
M  V30 25 1 23 22
M  V30 26 1 24 2
M  V30 27 1 24 23
M  V30 28 1 25 1
M  V30 29 1 26 1
M  V30 30 1 27 1
M  V30 31 1 28 3
M  V30 32 1 29 3
M  V30 33 1 30 4
M  V30 34 1 31 4
M  V30 35 1 32 5
M  V30 36 1 33 5
M  V30 37 1 34 6
M  V30 38 1 35 6
M  V30 39 1 7 36 CFG=3
M  V30 40 1 37 9
M  V30 41 1 38 10
M  V30 42 1 39 11
M  V30 43 1 40 12
M  V30 44 1 41 13
M  V30 45 1 42 15
M  V30 46 1 43 17
M  V30 47 1 44 18
M  V30 48 1 45 19
M  V30 49 1 46 20
M  V30 50 1 47 23
M  V30 51 1 48 23
M  V30 52 1 49 24
M  V30 53 1 50 24
M  V30 54 1 2 51 CFG=3
M  V30 END BOND
M  V30 END CTAB
M  END
>  <b_m_subgroup_collapsed>  (2241) 
0

>  <r_i_docking_score>  (2241) 
-5.9799060424803203

>  <s_m_subgroup_title>  (2241) 
glide-dock_SP_D22_pv

>  <s_m_subgroupid>  (2241) 
glide-dock_SP_D22_pv

>  <Molecule ChEMBL ID>  (2241) 
CHEMBL426662

>  <Standard Type>  (2241) 
Ki

>  <Standard Value>  (2241) 
10000.0

>  <label>  (2241) 
0

$$$$
CHEMBL515342
     RDKit          3D

  0  0  0  0  0  0  0  0  0  0999 V3000
M  V30 BEGIN CTAB
M  V30 COUNTS 60 63 0 0 1
M  V30 BEGIN ATOM
M  V30 1 C 8.487647 7.065682 -19.428564 0
M  V30 2 C 8.944566 5.601717 -19.507462 0
M  V30 3 C 9.581817 5.109210 -18.198450 0
M  V30 4 C 9.946127 3.611107 -18.241095 0
M  V30 5 C 10.706128 3.095284 -17.000118 0
M  V30 6 C 9.828167 2.863973 -15.767942 0
M  V30 7 O 9.701742 1.742052 -15.277884 0
M  V30 8 O 9.290088 4.013000 -15.292985 0
M  V30 9 C 8.494802 4.023962 -14.174015 0
M  V30 10 C 7.264101 3.330594 -14.246852 0
M  V30 11 C 6.319799 3.420209 -13.220640 0
M  V30 12 C 6.632071 4.170333 -12.083317 0
M  V30 13 C 7.880293 4.811624 -11.961392 0
M  V30 14 C 8.826032 4.798064 -13.017164 0
M  V30 15 C 10.062442 5.629250 -12.858467 0
M  V30 16 C 11.193646 5.531999 -13.713106 0
M  V30 17 C 12.296221 6.398228 -13.649183 0
M  V30 18 C 12.369274 7.371039 -12.647715 0
M  V30 19 C 11.337764 7.474838 -11.706086 0
M  V30 20 C 10.204460 6.623707 -11.842669 0
M  V30 21 C 9.004767 6.808730 -10.895581 0 CFG=1
M  V30 22 C 8.201136 5.524794 -10.668268 0
M  V30 23 N 9.285214 7.552882 -9.637933 0 CFG=1 CHG=1
M  V30 24 C 9.861928 6.767285 -8.504576 0
M  V30 25 C 10.158305 7.624458 -7.252855 0
M  V30 26 C 10.517594 6.794961 -6.021904 0
M  V30 27 C 9.990493 8.801174 -9.966650 0
M  V30 28 C 11.362019 8.456248 -10.536704 0
M  V30 29 H 8.021898 7.376593 -20.366976 0
M  V30 30 H 9.326624 7.742959 -19.237165 0
M  V30 31 H 7.751982 7.206893 -18.634735 0
M  V30 32 H 8.086084 4.974461 -19.755329 0
M  V30 33 H 9.650664 5.486463 -20.329836 0
M  V30 34 H 10.477536 5.700768 -17.993263 0
M  V30 35 H 8.886847 5.311119 -17.385979 0
M  V30 36 H 9.044667 3.017350 -18.394829 0
M  V30 37 H 10.572157 3.433736 -19.114321 0
M  V30 38 H 11.184837 2.145929 -17.243904 0
M  V30 39 H 11.509931 3.784269 -16.739218 0
M  V30 40 H 7.013428 2.764343 -15.133115 0
M  V30 41 H 5.368804 2.908167 -13.303765 0
M  V30 42 H 5.903517 4.216912 -11.295815 0
M  V30 43 H 11.273713 4.780145 -14.476355 0
M  V30 44 H 13.110980 6.288000 -14.347811 0
M  V30 45 H 13.238667 8.008124 -12.583164 0
M  V30 46 H 8.331970 7.461856 -11.452065 0
M  V30 47 H 7.289433 5.772313 -10.135633 0
M  V30 48 H 8.759884 4.810454 -10.063091 0
M  V30 49 H 9.140867 6.001113 -8.215456 0
M  V30 50 H 10.761122 6.243271 -8.831360 0
M  V30 51 H 10.985741 8.308113 -7.447463 0
M  V30 52 H 9.289361 8.237718 -7.015316 0
M  V30 53 H 10.771050 7.437275 -5.178828 0
M  V30 54 H 11.375801 6.151471 -6.213471 0
M  V30 55 H 9.680870 6.172810 -5.715114 0
M  V30 56 H 9.398952 9.354422 -10.696473 0
M  V30 57 H 10.070683 9.467243 -9.109364 0
M  V30 58 H 11.997990 8.030085 -9.760724 0
M  V30 59 H 11.871360 9.370610 -10.843094 0
M  V30 60 H 8.355419 7.818861 -9.331145 0
M  V30 END ATOM
M  V30 BEGIN BOND
M  V30 1 1 2 1
M  V30 2 1 3 2
M  V30 3 1 4 3
M  V30 4 1 5 4
M  V30 5 1 6 5
M  V30 6 2 7 6
M  V30 7 1 8 6
M  V30 8 1 9 8
M  V30 9 2 10 9
M  V30 10 1 11 10
M  V30 11 2 12 11
M  V30 12 1 13 12
M  V30 13 1 14 9
M  V30 14 2 14 13
M  V30 15 1 15 14
M  V30 16 2 16 15
M  V30 17 1 17 16
M  V30 18 2 18 17
M  V30 19 1 19 18
M  V30 20 1 20 15
M  V30 21 2 20 19
M  V30 22 1 21 20
M  V30 23 1 22 13
M  V30 24 1 22 21
M  V30 25 1 23 21
M  V30 26 1 24 23
M  V30 27 1 25 24
M  V30 28 1 26 25
M  V30 29 1 27 23
M  V30 30 1 28 19
M  V30 31 1 28 27
M  V30 32 1 29 1
M  V30 33 1 30 1
M  V30 34 1 31 1
M  V30 35 1 32 2
M  V30 36 1 33 2
M  V30 37 1 34 3
M  V30 38 1 35 3
M  V30 39 1 36 4
M  V30 40 1 37 4
M  V30 41 1 38 5
M  V30 42 1 39 5
M  V30 43 1 40 10
M  V30 44 1 41 11
M  V30 45 1 42 12
M  V30 46 1 43 16
M  V30 47 1 44 17
M  V30 48 1 45 18
M  V30 49 1 21 46 CFG=3
M  V30 50 1 47 22
M  V30 51 1 48 22
M  V30 52 1 49 24
M  V30 53 1 50 24
M  V30 54 1 51 25
M  V30 55 1 52 25
M  V30 56 1 53 26
M  V30 57 1 54 26
M  V30 58 1 55 26
M  V30 59 1 56 27
M  V30 60 1 57 27
M  V30 61 1 58 28
M  V30 62 1 59 28
M  V30 63 1 23 60 CFG=1
M  V30 END BOND
M  V30 END CTAB
M  END
>  <b_m_subgroup_collapsed>  (2242) 
0

>  <r_i_docking_score>  (2242) 
-5.9792652110161697

>  <s_m_subgroup_title>  (2242) 
glide-dock_SP_D22_pv

>  <s_m_subgroupid>  (2242) 
glide-dock_SP_D22_pv

>  <Molecule ChEMBL ID>  (2242) 
CHEMBL515342

>  <Standard Type>  (2242) 
Ki

>  <Standard Value>  (2242) 
10000.0

>  <label>  (2242) 
0

$$$$
CHEMBL3764639
     RDKit          3D

  0  0  0  0  0  0  0  0  0  0999 V3000
M  V30 BEGIN CTAB
M  V30 COUNTS 58 61 0 0 1
M  V30 BEGIN ATOM
M  V30 1 C 8.702283 5.742725 -7.829412 0
M  V30 2 N 9.574405 6.541284 -8.669086 0
M  V30 3 C 9.653120 6.515486 -10.012368 0
M  V30 4 S 8.676548 5.372629 -10.951959 0
M  V30 5 C 8.882326 5.997407 -12.644895 0
M  V30 6 C 10.007516 5.277964 -13.404696 0
M  V30 7 C 9.731939 3.774605 -13.616741 0
M  V30 8 N 10.380513 3.193049 -14.792766 0
M  V30 9 C 10.368567 1.735533 -14.739059 0
M  V30 10 C 11.026605 1.112608 -15.982533 0
M  V30 11 O 10.374893 1.577640 -17.160091 0
M  V30 12 C 10.399825 2.999666 -17.288000 0 CFG=1
M  V30 13 C 9.738549 3.479307 -18.575243 0
M  V30 14 C 9.082618 2.578009 -19.443098 0
M  V30 15 C 8.486367 3.040540 -20.633617 0
M  V30 16 C 8.524431 4.412714 -20.966038 0
M  V30 17 C 7.876805 4.925205 -22.244247 0
M  V30 18 F 8.814031 5.082274 -23.177765 0
M  V30 19 F 6.958479 4.071905 -22.699263 0
M  V30 20 F 7.284861 6.100295 -22.027334 0
M  V30 21 C 9.182467 5.311685 -20.100246 0
M  V30 22 C 9.786742 4.848287 -18.915680 0
M  V30 23 C 9.733018 3.612641 -16.038326 0
M  V30 24 N 10.542623 7.382402 -10.503604 0
M  V30 25 N 11.090337 8.011265 -9.403017 0
M  V30 26 C 10.502920 7.464939 -8.331482 0
M  V30 27 C 10.887823 7.813483 -6.961920 0
M  V30 28 C 11.259578 6.795908 -6.061125 0
M  V30 29 C 11.646504 7.099725 -4.742610 0
M  V30 30 C 11.686209 8.440793 -4.316250 0
M  V30 31 C 12.127973 8.741136 -2.965292 0
M  V30 32 N 12.486013 8.970832 -1.889878 0
M  V30 33 C 11.317313 9.470515 -5.208609 0
M  V30 34 C 10.922990 9.155231 -6.526587 0
M  V30 35 H 9.043897 4.708356 -7.846601 0
M  V30 36 H 8.683455 6.123347 -6.808719 0
M  V30 37 H 7.685981 5.772200 -8.219683 0
M  V30 38 H 7.939339 5.845948 -13.170522 0
M  V30 39 H 9.042289 7.075203 -12.635676 0
M  V30 40 H 10.128981 5.772327 -14.363994 0
M  V30 41 H 10.958546 5.410872 -12.889133 0
M  V30 42 H 10.059015 3.248476 -12.718120 0
M  V30 43 H 8.656577 3.599805 -13.679989 0
M  V30 44 H 10.893625 1.393080 -13.847547 0
M  V30 45 H 9.342541 1.373729 -14.653891 0
M  V30 46 H 12.085027 1.371928 -16.028339 0
M  V30 47 H 10.960091 0.025685 -15.941481 0
M  V30 48 H 11.442871 3.318884 -17.330631 0
M  V30 49 H 9.037555 1.524845 -19.206846 0
M  V30 50 H 7.995955 2.335829 -21.288795 0
M  V30 51 H 9.226074 6.362690 -20.345602 0
M  V30 52 H 10.290269 5.551636 -18.268253 0
M  V30 53 H 8.681102 3.324219 -16.020708 0
M  V30 54 H 9.751761 4.696798 -16.128239 0
M  V30 55 H 11.256895 5.772258 -6.391858 0
M  V30 56 H 11.926941 6.298873 -4.072423 0
M  V30 57 H 11.342697 10.503598 -4.892445 0
M  V30 58 H 10.653840 9.945457 -7.207218 0
M  V30 END ATOM
M  V30 BEGIN BOND
M  V30 1 1 2 1
M  V30 2 1 3 2
M  V30 3 1 4 3
M  V30 4 1 5 4
M  V30 5 1 6 5
M  V30 6 1 7 6
M  V30 7 1 8 7
M  V30 8 1 9 8
M  V30 9 1 10 9
M  V30 10 1 11 10
M  V30 11 1 12 11
M  V30 12 1 13 12
M  V30 13 1 14 13
M  V30 14 2 15 14
M  V30 15 1 16 15
M  V30 16 1 17 16
M  V30 17 1 18 17
M  V30 18 1 19 17
M  V30 19 1 20 17
M  V30 20 2 21 16
M  V30 21 2 22 13
M  V30 22 1 22 21
M  V30 23 1 23 8
M  V30 24 1 23 12
M  V30 25 2 24 3
M  V30 26 1 25 24
M  V30 27 1 26 2
M  V30 28 2 26 25
M  V30 29 1 27 26
M  V30 30 1 28 27
M  V30 31 2 29 28
M  V30 32 1 30 29
M  V30 33 1 31 30
M  V30 34 3 32 31
M  V30 35 2 33 30
M  V30 36 2 34 27
M  V30 37 1 34 33
M  V30 38 1 35 1
M  V30 39 1 36 1
M  V30 40 1 37 1
M  V30 41 1 38 5
M  V30 42 1 39 5
M  V30 43 1 40 6
M  V30 44 1 41 6
M  V30 45 1 42 7
M  V30 46 1 43 7
M  V30 47 1 44 9
M  V30 48 1 45 9
M  V30 49 1 46 10
M  V30 50 1 47 10
M  V30 51 1 12 48 CFG=3
M  V30 52 1 49 14
M  V30 53 1 50 15
M  V30 54 1 51 21
M  V30 55 1 52 22
M  V30 56 1 53 23
M  V30 57 1 54 23
M  V30 58 1 55 28
M  V30 59 1 56 29
M  V30 60 1 57 33
M  V30 61 1 58 34
M  V30 END BOND
M  V30 END CTAB
M  END
>  <b_m_subgroup_collapsed>  (2243) 
0

>  <r_i_docking_score>  (2243) 
-5.97862336546976

>  <s_m_subgroup_title>  (2243) 
glide-dock_SP_D22_pv

>  <s_m_subgroupid>  (2243) 
glide-dock_SP_D22_pv

>  <Molecule ChEMBL ID>  (2243) 
CHEMBL3764639

>  <Standard Type>  (2243) 
Ki

>  <Standard Value>  (2243) 
10000.0

>  <label>  (2243) 
0

$$$$
CHEMBL285341
     RDKit          3D

  0  0  0  0  0  0  0  0  0  0999 V3000
M  V30 BEGIN CTAB
M  V30 COUNTS 55 58 0 0 1
M  V30 BEGIN ATOM
M  V30 1 C 9.811176 5.964365 -7.956738 0
M  V30 2 C 9.452264 7.304043 -8.614911 0
M  V30 3 N 10.465317 7.747238 -9.587824 0
M  V30 4 C 11.384534 8.787169 -9.095418 0
M  V30 5 C 12.727343 8.198131 -8.637750 0
M  V30 6 C 10.553861 7.294055 -10.865704 0
M  V30 7 O 11.418385 7.676984 -11.651570 0
M  V30 8 N 9.643864 6.363720 -11.214543 0
M  V30 9 C 9.490602 5.756722 -12.541224 0 CFG=2
M  V30 10 C 8.264107 4.830819 -12.547573 0
M  V30 11 C 8.114489 4.043835 -13.873887 0 CFG=2
M  V30 12 C 6.932712 3.073128 -13.795620 0
M  V30 13 C 5.784125 3.169221 -12.982386 0
M  V30 14 C 4.887608 2.081300 -12.884365 0
M  V30 15 C 5.080285 0.880467 -13.600277 0
M  V30 16 C 6.191068 0.793598 -14.450411 0
M  V30 17 C 7.077006 1.872336 -14.515049 0
M  V30 18 C 8.195237 1.527158 -15.365741 0
M  V30 19 C 8.033001 0.285279 -15.830403 0
M  V30 20 C 6.736275 -0.310560 -15.330751 0
M  V30 21 C 9.328626 2.500296 -15.546828 0
M  V30 22 C 9.451336 3.338389 -14.258798 0 CFG=1
M  V30 23 N 10.593049 4.284322 -14.284955 0 CFG=1 CHG=1
M  V30 24 C 10.637131 5.210713 -15.439306 0
M  V30 25 C 10.742887 4.962775 -12.980089 0
M  V30 26 H 9.048504 5.698406 -7.226280 0
M  V30 27 H 10.764093 6.018443 -7.427391 0
M  V30 28 H 9.872066 5.152109 -8.680594 0
M  V30 29 H 8.482456 7.227390 -9.099042 0
M  V30 30 H 9.307209 8.050112 -7.833591 0
M  V30 31 H 11.562744 9.534219 -9.872318 0
M  V30 32 H 10.942194 9.346714 -8.271457 0
M  V30 33 H 13.378464 8.976121 -8.240501 0
M  V30 34 H 13.256826 7.731153 -9.467522 0
M  V30 35 H 12.582009 7.457029 -7.850426 0
M  V30 36 H 8.957703 6.120599 -10.512436 0
M  V30 37 H 9.301807 6.572124 -13.230232 0
M  V30 38 H 8.346723 4.123899 -11.719466 0
M  V30 39 H 7.371172 5.426193 -12.353747 0
M  V30 40 H 7.859314 4.767076 -14.646049 0
M  V30 41 H 5.598620 4.050993 -12.386480 0
M  V30 42 H 4.035941 2.172718 -12.245905 0
M  V30 43 H 4.382653 0.060667 -13.514602 0
M  V30 44 H 8.715141 -0.258728 -16.468176 0
M  V30 45 H 6.885745 -1.200102 -14.719853 0
M  V30 46 H 6.054354 -0.539481 -16.150650 0
M  V30 47 H 10.249369 1.977891 -15.808985 0
M  V30 48 H 9.063353 3.145711 -16.384787 0
M  V30 49 H 9.675247 2.623813 -13.460597 0
M  V30 50 H 9.710049 5.771974 -15.517952 0
M  V30 51 H 10.788043 4.671824 -16.374680 0
M  V30 52 H 11.465364 5.915217 -15.339655 0
M  V30 53 H 11.641475 5.575499 -13.008854 0
M  V30 54 H 10.887278 4.172816 -12.247355 0
M  V30 55 H 11.417524 3.708154 -14.378259 0
M  V30 END ATOM
M  V30 BEGIN BOND
M  V30 1 1 2 1
M  V30 2 1 3 2
M  V30 3 1 4 3
M  V30 4 1 5 4
M  V30 5 1 6 3
M  V30 6 2 7 6
M  V30 7 1 8 6
M  V30 8 1 9 8
M  V30 9 1 10 9
M  V30 10 1 11 10
M  V30 11 1 12 11
M  V30 12 2 13 12
M  V30 13 1 14 13
M  V30 14 2 15 14
M  V30 15 1 16 15
M  V30 16 1 17 12
M  V30 17 2 17 16
M  V30 18 1 18 17
M  V30 19 2 19 18
M  V30 20 1 20 16
M  V30 21 1 20 19
M  V30 22 1 21 18
M  V30 23 1 22 11
M  V30 24 1 22 21
M  V30 25 1 23 22
M  V30 26 1 24 23
M  V30 27 1 25 9
M  V30 28 1 25 23
M  V30 29 1 26 1
M  V30 30 1 27 1
M  V30 31 1 28 1
M  V30 32 1 29 2
M  V30 33 1 30 2
M  V30 34 1 31 4
M  V30 35 1 32 4
M  V30 36 1 33 5
M  V30 37 1 34 5
M  V30 38 1 35 5
M  V30 39 1 36 8
M  V30 40 1 9 37 CFG=3
M  V30 41 1 38 10
M  V30 42 1 39 10
M  V30 43 1 11 40 CFG=3
M  V30 44 1 41 13
M  V30 45 1 42 14
M  V30 46 1 43 15
M  V30 47 1 44 19
M  V30 48 1 45 20
M  V30 49 1 46 20
M  V30 50 1 47 21
M  V30 51 1 48 21
M  V30 52 1 22 49 CFG=1
M  V30 53 1 50 24
M  V30 54 1 51 24
M  V30 55 1 52 24
M  V30 56 1 53 25
M  V30 57 1 54 25
M  V30 58 1 23 55 CFG=3
M  V30 END BOND
M  V30 END CTAB
M  END
>  <b_m_subgroup_collapsed>  (2244) 
0

>  <r_i_docking_score>  (2244) 
-5.9751914523929504

>  <s_m_subgroup_title>  (2244) 
glide-dock_SP_D22_pv

>  <s_m_subgroupid>  (2244) 
glide-dock_SP_D22_pv

>  <Molecule ChEMBL ID>  (2244) 
CHEMBL285341

>  <Standard Type>  (2244) 
Ki

>  <Standard Value>  (2244) 
0.8

>  <label>  (2244) 
1

$$$$
CHEMBL201288
     RDKit          3D

  0  0  0  0  0  0  0  0  0  0999 V3000
M  V30 BEGIN CTAB
M  V30 COUNTS 45 48 0 0 1
M  V30 BEGIN ATOM
M  V30 1 C 9.716910 5.141112 -18.544176 0
M  V30 2 C 9.853371 4.556980 -17.131306 0
M  V30 3 N 10.899946 3.493490 -17.057804 0 CFG=2 CHG=1
M  V30 4 C 10.465022 2.267161 -16.327120 0
M  V30 5 C 10.612839 2.309321 -14.791867 0
M  V30 6 C 10.028998 3.522017 -14.129539 0
M  V30 7 C 10.719444 4.650301 -13.754920 0
M  V30 8 N 9.850169 5.502110 -13.095453 0
M  V30 9 C 8.575395 4.978716 -13.062648 0
M  V30 10 C 7.373230 5.450484 -12.509424 0
M  V30 11 C 6.203676 4.683361 -12.645895 0
M  V30 12 C 6.240302 3.465094 -13.350640 0
M  V30 13 C 7.455274 2.995974 -13.891205 0
M  V30 14 C 8.656084 3.733280 -13.749047 0
M  V30 15 C 12.163358 4.999773 -13.936902 0
M  V30 16 C 12.432431 5.890339 -15.143435 0
M  V30 17 C 12.598549 7.275166 -14.918571 0
M  V30 18 C 12.888083 8.146393 -15.983643 0
M  V30 19 C 13.033215 7.641367 -17.285009 0
M  V30 20 C 12.867289 6.266349 -17.521980 0
M  V30 21 C 12.543347 5.381908 -16.468348 0
M  V30 22 C 12.318944 3.909119 -16.808926 0
M  V30 23 H 8.913227 5.879408 -18.574017 0
M  V30 24 H 9.474131 4.366290 -19.272335 0
M  V30 25 H 10.627185 5.637765 -18.876348 0
M  V30 26 H 9.995718 5.346366 -16.395048 0
M  V30 27 H 8.886013 4.124991 -16.881275 0
M  V30 28 H 9.433609 2.030998 -16.590027 0
M  V30 29 H 11.052819 1.428794 -16.704567 0
M  V30 30 H 10.133473 1.419822 -14.382749 0
M  V30 31 H 11.657392 2.190964 -14.512499 0
M  V30 32 H 10.132985 6.384051 -12.693534 0
M  V30 33 H 7.341377 6.386231 -11.966758 0
M  V30 34 H 5.285868 5.033905 -12.200462 0
M  V30 35 H 5.338801 2.878823 -13.456999 0
M  V30 36 H 7.473806 2.045420 -14.402701 0
M  V30 37 H 12.516454 5.519162 -13.046694 0
M  V30 38 H 12.780614 4.105567 -13.989604 0
M  V30 39 H 12.510967 7.676967 -13.919977 0
M  V30 40 H 13.012153 9.204457 -15.810727 0
M  V30 41 H 13.262360 8.312856 -18.099930 0
M  V30 42 H 12.975204 5.896222 -18.530493 0
M  V30 43 H 12.806919 3.279611 -16.068882 0
M  V30 44 H 12.866062 3.693210 -17.727678 0
M  V30 45 H 10.926169 3.165177 -18.013174 0
M  V30 END ATOM
M  V30 BEGIN BOND
M  V30 1 1 2 1
M  V30 2 1 3 2
M  V30 3 1 4 3
M  V30 4 1 5 4
M  V30 5 1 6 5
M  V30 6 2 7 6
M  V30 7 1 8 7
M  V30 8 1 9 8
M  V30 9 2 10 9
M  V30 10 1 11 10
M  V30 11 2 12 11
M  V30 12 1 13 12
M  V30 13 1 14 6
M  V30 14 1 14 9
M  V30 15 2 14 13
M  V30 16 1 15 7
M  V30 17 1 16 15
M  V30 18 2 17 16
M  V30 19 1 18 17
M  V30 20 2 19 18
M  V30 21 1 20 19
M  V30 22 1 21 16
M  V30 23 2 21 20
M  V30 24 1 22 3
M  V30 25 1 22 21
M  V30 26 1 23 1
M  V30 27 1 24 1
M  V30 28 1 25 1
M  V30 29 1 26 2
M  V30 30 1 27 2
M  V30 31 1 28 4
M  V30 32 1 29 4
M  V30 33 1 30 5
M  V30 34 1 31 5
M  V30 35 1 32 8
M  V30 36 1 33 10
M  V30 37 1 34 11
M  V30 38 1 35 12
M  V30 39 1 36 13
M  V30 40 1 37 15
M  V30 41 1 38 15
M  V30 42 1 39 17
M  V30 43 1 40 18
M  V30 44 1 41 19
M  V30 45 1 42 20
M  V30 46 1 43 22
M  V30 47 1 44 22
M  V30 48 1 3 45 CFG=3
M  V30 END BOND
M  V30 END CTAB
M  END
>  <b_m_subgroup_collapsed>  (2245) 
0

>  <r_i_docking_score>  (2245) 
-5.9740666827034401

>  <s_m_subgroup_title>  (2245) 
glide-dock_SP_D22_pv

>  <s_m_subgroupid>  (2245) 
glide-dock_SP_D22_pv

>  <Molecule ChEMBL ID>  (2245) 
CHEMBL201288

>  <Standard Type>  (2245) 
Ki

>  <Standard Value>  (2245) 
10000.0

>  <label>  (2245) 
0

$$$$
CHEMBL4588709
     RDKit          3D

  0  0  0  0  0  0  0  0  0  0999 V3000
M  V30 BEGIN CTAB
M  V30 COUNTS 31 32 0 0 1
M  V30 BEGIN ATOM
M  V30 1 C 7.801199 4.874324 -11.624546 0
M  V30 2 C 9.148157 5.306609 -11.032796 0
M  V30 3 C 9.289452 6.836839 -10.998433 0
M  V30 4 S 10.875960 7.392986 -10.310977 0
M  V30 5 C 10.544763 7.301376 -8.572946 0
M  V30 6 N 9.532030 6.644184 -8.007380 0
M  V30 7 N 9.687816 6.823379 -6.652367 0
M  V30 8 C 10.786798 7.566257 -6.500801 0
M  V30 9 C 11.284693 7.931388 -5.179714 0
M  V30 10 C 11.685174 6.916152 -4.284715 0
M  V30 11 C 12.092803 7.238979 -2.977420 0
M  V30 12 C 12.098803 8.581509 -2.558792 0
M  V30 13 C 11.695786 9.597280 -3.445486 0
M  V30 14 C 11.293274 9.277894 -4.757738 0
M  V30 15 N 11.353982 7.901229 -7.679081 0
M  V30 16 C 12.544875 8.680013 -7.950402 0
M  V30 17 H 7.688956 3.789963 -11.601863 0
M  V30 18 H 6.972402 5.306498 -11.059099 0
M  V30 19 H 7.703184 5.200050 -12.661353 0
M  V30 20 H 9.957964 4.873775 -11.620566 0
M  V30 21 H 9.243322 4.894171 -10.028273 0
M  V30 22 H 8.486699 7.287507 -10.422729 0
M  V30 23 H 9.205488 7.233211 -12.010445 0
M  V30 24 H 11.661425 5.882047 -4.599702 0
M  V30 25 H 12.387736 6.453574 -2.294957 0
M  V30 26 H 12.396326 8.836274 -1.552863 0
M  V30 27 H 11.684149 10.621537 -3.106426 0
M  V30 28 H 10.966720 10.060068 -5.428149 0
M  V30 29 H 12.343726 9.369758 -8.769495 0
M  V30 30 H 12.857386 9.249651 -7.075348 0
M  V30 31 H 13.347556 8.010533 -8.254227 0
M  V30 END ATOM
M  V30 BEGIN BOND
M  V30 1 1 2 1
M  V30 2 1 3 2
M  V30 3 1 4 3
M  V30 4 1 5 4
M  V30 5 2 6 5
M  V30 6 1 7 6
M  V30 7 2 8 7
M  V30 8 1 9 8
M  V30 9 2 10 9
M  V30 10 1 11 10
M  V30 11 2 12 11
M  V30 12 1 13 12
M  V30 13 1 14 9
M  V30 14 2 14 13
M  V30 15 1 15 5
M  V30 16 1 15 8
M  V30 17 1 16 15
M  V30 18 1 17 1
M  V30 19 1 18 1
M  V30 20 1 19 1
M  V30 21 1 20 2
M  V30 22 1 21 2
M  V30 23 1 22 3
M  V30 24 1 23 3
M  V30 25 1 24 10
M  V30 26 1 25 11
M  V30 27 1 26 12
M  V30 28 1 27 13
M  V30 29 1 28 14
M  V30 30 1 29 16
M  V30 31 1 30 16
M  V30 32 1 31 16
M  V30 END BOND
M  V30 END CTAB
M  END
>  <b_m_subgroup_collapsed>  (2246) 
0

>  <r_i_docking_score>  (2246) 
-5.9710767527525697

>  <s_m_subgroup_title>  (2246) 
glide-dock_SP_D22_pv

>  <s_m_subgroupid>  (2246) 
glide-dock_SP_D22_pv

>  <Molecule ChEMBL ID>  (2246) 
CHEMBL4588709

>  <Standard Type>  (2246) 
Ki

>  <Standard Value>  (2246) 
180375.0

>  <label>  (2246) 
0

$$$$
CHEMBL597881
     RDKit          3D

  0  0  0  0  0  0  0  0  0  0999 V3000
M  V30 BEGIN CTAB
M  V30 COUNTS 48 52 0 0 1
M  V30 BEGIN ATOM
M  V30 1 C 16.029242 6.999639 -18.485235 0
M  V30 2 C 15.479243 5.709114 -17.859619 0
M  V30 3 C 13.972206 5.797131 -17.549654 0
M  V30 4 N 13.410139 4.471588 -17.167639 0 CFG=2 CHG=1
M  V30 5 C 13.065825 3.698374 -18.380785 0
M  V30 6 C 12.778712 2.257365 -18.004595 0
M  V30 7 C 11.685766 2.100989 -16.964207 0
M  V30 8 C 10.940463 0.924062 -16.770475 0
M  V30 9 C 10.005853 0.849423 -15.728981 0
M  V30 10 C 9.808757 1.952966 -14.879439 0
M  V30 11 C 10.508853 3.176780 -15.032326 0
M  V30 12 C 11.458132 3.202506 -16.091084 0
M  V30 13 C 12.242731 4.533710 -16.237947 0 CFG=1
M  V30 14 C 12.628155 5.078327 -14.837330 0
M  V30 15 C 11.397907 5.236228 -13.962499 0
M  V30 16 C 11.306522 6.308816 -13.047174 0
M  V30 17 C 10.144621 6.483780 -12.266534 0
M  V30 18 C 9.035717 5.627700 -12.431417 0
M  V30 19 C 7.718750 5.527936 -11.882086 0
M  V30 20 C 7.116540 4.477918 -12.525494 0
M  V30 21 C 5.744291 3.910197 -12.412001 0
M  V30 22 O 7.958939 3.879962 -13.420923 0
M  V30 23 C 9.158758 4.565845 -13.365775 0
M  V30 24 C 10.333142 4.321893 -14.111423 0
M  V30 25 H 17.103848 6.920444 -18.664812 0
M  V30 26 H 15.861682 7.866397 -17.845879 0
M  V30 27 H 15.548255 7.204863 -19.444746 0
M  V30 28 H 15.685908 4.890601 -18.551302 0
M  V30 29 H 16.029732 5.482350 -16.943253 0
M  V30 30 H 13.842465 6.548635 -16.770758 0
M  V30 31 H 13.430045 6.193073 -18.413280 0
M  V30 32 H 12.198870 4.145210 -18.874491 0
M  V30 33 H 13.879451 3.717665 -19.107199 0
M  V30 34 H 12.484288 1.707073 -18.898079 0
M  V30 35 H 13.685143 1.775957 -17.642002 0
M  V30 36 H 11.102477 0.065564 -17.405315 0
M  V30 37 H 9.446925 -0.060324 -15.561943 0
M  V30 38 H 9.109670 1.830737 -14.067430 0
M  V30 39 H 11.535517 5.236000 -16.684561 0
M  V30 40 H 13.304557 4.381123 -14.341905 0
M  V30 41 H 13.140058 6.037700 -14.876439 0
M  V30 42 H 12.131038 6.999333 -12.935884 0
M  V30 43 H 10.080161 7.303470 -11.565292 0
M  V30 44 H 7.286264 6.171270 -11.127487 0
M  V30 45 H 5.167719 4.450883 -11.660689 0
M  V30 46 H 5.777335 2.859644 -12.121257 0
M  V30 47 H 5.215813 3.982235 -13.363741 0
M  V30 48 H 14.136209 3.965387 -16.675508 0
M  V30 END ATOM
M  V30 BEGIN BOND
M  V30 1 1 2 1
M  V30 2 1 3 2
M  V30 3 1 4 3
M  V30 4 1 5 4
M  V30 5 1 6 5
M  V30 6 1 7 6
M  V30 7 1 8 7
M  V30 8 2 9 8
M  V30 9 1 10 9
M  V30 10 2 11 10
M  V30 11 2 12 7
M  V30 12 1 12 11
M  V30 13 1 13 4
M  V30 14 1 13 12
M  V30 15 1 14 13
M  V30 16 1 15 14
M  V30 17 1 16 15
M  V30 18 2 17 16
M  V30 19 1 18 17
M  V30 20 1 19 18
M  V30 21 2 20 19
M  V30 22 1 21 20
M  V30 23 1 22 20
M  V30 24 2 23 18
M  V30 25 1 23 22
M  V30 26 1 24 11
M  V30 27 2 24 15
M  V30 28 1 24 23
M  V30 29 1 25 1
M  V30 30 1 26 1
M  V30 31 1 27 1
M  V30 32 1 28 2
M  V30 33 1 29 2
M  V30 34 1 30 3
M  V30 35 1 31 3
M  V30 36 1 32 5
M  V30 37 1 33 5
M  V30 38 1 34 6
M  V30 39 1 35 6
M  V30 40 1 36 8
M  V30 41 1 37 9
M  V30 42 1 38 10
M  V30 43 1 13 39 CFG=3
M  V30 44 1 40 14
M  V30 45 1 41 14
M  V30 46 1 42 16
M  V30 47 1 43 17
M  V30 48 1 44 19
M  V30 49 1 45 21
M  V30 50 1 46 21
M  V30 51 1 47 21
M  V30 52 1 4 48 CFG=1
M  V30 END BOND
M  V30 END CTAB
M  END
>  <b_m_subgroup_collapsed>  (2247) 
0

>  <r_i_docking_score>  (2247) 
-5.9631606648964199

>  <s_m_subgroup_title>  (2247) 
glide-dock_SP_D22_pv

>  <s_m_subgroupid>  (2247) 
glide-dock_SP_D22_pv

>  <Molecule ChEMBL ID>  (2247) 
CHEMBL597881

>  <Standard Type>  (2247) 
Ki

>  <Standard Value>  (2247) 
10000.0

>  <label>  (2247) 
0

$$$$
CHEMBL3085216
     RDKit          3D

  0  0  0  0  0  0  0  0  0  0999 V3000
M  V30 BEGIN CTAB
M  V30 COUNTS 45 46 0 0 1
M  V30 BEGIN ATOM
M  V30 1 C 11.290170 10.171623 -4.129527 0
M  V30 2 C 12.344433 9.556777 -5.068535 0
M  V30 3 C 11.953737 9.560568 -6.569050 0
M  V30 4 N 11.410049 8.283738 -7.134571 0 CFG=1 CHG=1
M  V30 5 C 10.223842 7.793865 -6.369752 0
M  V30 6 C 10.055568 6.294931 -6.307839 0
M  V30 7 C 8.905911 8.509549 -6.639434 0
M  V30 8 C 11.293529 8.327721 -8.639101 0 CFG=1
M  V30 9 C 12.667643 8.301113 -9.337245 0
M  V30 10 O 12.546264 8.513675 -10.734177 0
M  V30 11 C 11.741120 7.624135 -11.396095 0
M  V30 12 C 12.042714 7.336545 -12.740189 0
M  V30 13 C 11.285930 6.386386 -13.445043 0
M  V30 14 C 10.177975 5.770263 -12.827107 0
M  V30 15 C 9.854543 6.055280 -11.479718 0
M  V30 16 C 8.742680 5.291541 -10.815733 0
M  V30 17 N 7.571027 5.300533 -11.446682 0
M  V30 18 O 8.905836 4.723455 -9.737467 0
M  V30 19 C 10.663443 6.972163 -10.750756 0
M  V30 20 C 10.486091 7.164336 -9.250188 0
M  V30 21 H 11.738009 10.472543 -3.181042 0
M  V30 22 H 10.840461 11.053771 -4.582819 0
M  V30 23 H 10.486479 9.487890 -3.876308 0
M  V30 24 H 12.643403 8.568402 -4.720806 0
M  V30 25 H 13.242092 10.170320 -4.974757 0
M  V30 26 H 12.886471 9.771903 -7.074102 0
M  V30 27 H 11.287064 10.393464 -6.796437 0
M  V30 28 H 10.445416 7.971143 -5.325861 0
M  V30 29 H 9.429595 6.155072 -5.428519 0
M  V30 30 H 9.520058 5.858263 -7.149233 0
M  V30 31 H 11.003980 5.779120 -6.157564 0
M  V30 32 H 8.062500 7.921115 -6.279234 0
M  V30 33 H 8.918635 9.372298 -6.006604 0
M  V30 34 H 8.721523 8.810178 -7.669464 0
M  V30 35 H 10.796356 9.259595 -8.914488 0
M  V30 36 H 13.392620 8.974559 -8.921540 0
M  V30 37 H 13.176994 7.372332 -9.175904 0
M  V30 38 H 12.882044 7.818558 -13.220460 0
M  V30 39 H 11.535776 6.149153 -14.468964 0
M  V30 40 H 9.600565 5.045635 -13.383368 0
M  V30 41 H 7.443167 5.859983 -12.274421 0
M  V30 42 H 6.774805 4.903672 -10.962435 0
M  V30 43 H 9.424673 7.258853 -9.028031 0
M  V30 44 H 10.851988 6.230703 -8.824636 0
M  V30 45 H 12.114977 7.586198 -6.947023 0
M  V30 END ATOM
M  V30 BEGIN BOND
M  V30 1 1 2 1
M  V30 2 1 3 2
M  V30 3 1 4 3
M  V30 4 1 5 4
M  V30 5 1 6 5
M  V30 6 1 7 5
M  V30 7 1 8 4
M  V30 8 1 9 8
M  V30 9 1 10 9
M  V30 10 1 11 10
M  V30 11 1 12 11
M  V30 12 2 13 12
M  V30 13 1 14 13
M  V30 14 2 15 14
M  V30 15 1 16 15
M  V30 16 1 17 16
M  V30 17 2 18 16
M  V30 18 2 19 11
M  V30 19 1 19 15
M  V30 20 1 20 8
M  V30 21 1 20 19
M  V30 22 1 21 1
M  V30 23 1 22 1
M  V30 24 1 23 1
M  V30 25 1 24 2
M  V30 26 1 25 2
M  V30 27 1 26 3
M  V30 28 1 27 3
M  V30 29 1 28 5
M  V30 30 1 29 6
M  V30 31 1 30 6
M  V30 32 1 31 6
M  V30 33 1 32 7
M  V30 34 1 33 7
M  V30 35 1 34 7
M  V30 36 1 8 35 CFG=1
M  V30 37 1 36 9
M  V30 38 1 37 9
M  V30 39 1 38 12
M  V30 40 1 39 13
M  V30 41 1 40 14
M  V30 42 1 41 17
M  V30 43 1 42 17
M  V30 44 1 43 20
M  V30 45 1 44 20
M  V30 46 1 4 45 CFG=3
M  V30 END BOND
M  V30 END CTAB
M  END
>  <b_m_subgroup_collapsed>  (2248) 
0

>  <r_i_docking_score>  (2248) 
-5.9610061406579398

>  <s_m_subgroup_title>  (2248) 
glide-dock_SP_D22_pv

>  <s_m_subgroupid>  (2248) 
glide-dock_SP_D22_pv

>  <Molecule ChEMBL ID>  (2248) 
CHEMBL3085216

>  <Standard Type>  (2248) 
Ki

>  <Standard Value>  (2248) 
50000.0

>  <label>  (2248) 
0

$$$$
CHEMBL2062848
     RDKit          3D

  0  0  0  0  0  0  0  0  0  0999 V3000
M  V30 BEGIN CTAB
M  V30 COUNTS 61 64 0 0 1
M  V30 BEGIN ATOM
M  V30 1 C 12.272285 6.684569 -14.507650 0
M  V30 2 C 12.501956 5.184553 -14.729943 0
M  V30 3 N 12.223103 4.760091 -16.132860 0 CHG=1
M  V30 4 C 13.442453 4.706617 -16.991671 0
M  V30 5 C 14.243924 6.016794 -17.053173 0
M  V30 6 C 11.455073 3.477773 -16.158337 0 CFG=2
M  V30 7 C 10.956265 3.010556 -17.543024 0 CFG=1
M  V30 8 C 11.516142 1.717607 -18.144239 0
M  V30 9 O 12.886038 1.866569 -18.438108 0
M  V30 10 C 9.509453 3.020620 -17.007978 0 CFG=1
M  V30 11 C 8.741635 1.748063 -16.670784 0
M  V30 12 N 9.104523 1.466180 -15.261020 0 CFG=2 CHG=1
M  V30 13 C 8.411899 0.377845 -14.519351 0
M  V30 14 C 6.916601 0.186854 -14.744188 0
M  V30 15 C 6.428358 -0.357894 -15.952802 0
M  V30 16 C 5.055284 -0.632345 -16.109657 0
M  V30 17 C 4.159672 -0.374512 -15.055851 0
M  V30 18 C 4.639329 0.172277 -13.852759 0
M  V30 19 C 6.010874 0.443890 -13.693976 0
M  V30 20 C 9.476745 2.732747 -14.567046 0 CFG=2
M  V30 21 C 8.396630 3.443485 -13.755219 0
M  V30 22 C 8.788294 4.172354 -12.610035 0
M  V30 23 C 7.837416 4.891506 -11.860007 0
M  V30 24 C 6.486072 4.891697 -12.247306 0
M  V30 25 C 6.084732 4.168013 -13.385258 0
M  V30 26 C 7.036711 3.452797 -14.138228 0
M  V30 27 C 9.990447 3.620962 -15.695364 0 CFG=1
M  V30 28 H 12.338645 6.931193 -13.447756 0
M  V30 29 H 11.286498 6.976704 -14.855207 0
M  V30 30 H 13.000902 7.305732 -15.023461 0
M  V30 31 H 13.514260 4.907650 -14.436808 0
M  V30 32 H 11.848070 4.657421 -14.035871 0
M  V30 33 H 14.086736 3.898852 -16.648050 0
M  V30 34 H 13.158536 4.463933 -18.014828 0
M  V30 35 H 15.041794 5.938552 -17.794382 0
M  V30 36 H 14.724687 6.249513 -16.101974 0
M  V30 37 H 13.615585 6.861048 -17.341808 0
M  V30 38 H 11.982015 2.677290 -15.634048 0
M  V30 39 H 11.027209 3.826834 -18.263622 0
M  V30 40 H 11.401099 0.870917 -17.467548 0
M  V30 41 H 10.990207 1.465924 -19.065290 0
M  V30 42 H 13.398235 1.483697 -17.739933 0
M  V30 43 H 8.904149 3.728772 -17.578018 0
M  V30 44 H 7.672440 1.929016 -16.767960 0
M  V30 45 H 8.993464 0.907617 -17.318295 0
M  V30 46 H 8.892184 -0.552363 -14.825848 0
M  V30 47 H 8.615442 0.471767 -13.451935 0
M  V30 48 H 7.107017 -0.607327 -16.756216 0
M  V30 49 H 4.690342 -1.062743 -17.031683 0
M  V30 50 H 3.107249 -0.591895 -15.173419 0
M  V30 51 H 3.954559 0.373935 -13.049561 0
M  V30 52 H 6.362008 0.834674 -12.750889 0
M  V30 53 H 10.286751 2.483185 -13.879456 0
M  V30 54 H 9.822826 4.189121 -12.298331 0
M  V30 55 H 8.138805 5.452964 -10.986319 0
M  V30 56 H 5.762877 5.450696 -11.668267 0
M  V30 57 H 5.048284 4.171996 -13.687167 0
M  V30 58 H 6.699676 2.931227 -15.020299 0
M  V30 59 H 9.697472 4.669618 -15.606635 0
M  V30 60 H 11.621315 5.465518 -16.535505 0
M  V30 61 H 10.018753 1.053426 -15.371181 0
M  V30 END ATOM
M  V30 BEGIN BOND
M  V30 1 1 2 1
M  V30 2 1 3 2
M  V30 3 1 4 3
M  V30 4 1 5 4
M  V30 5 1 6 3
M  V30 6 1 7 6
M  V30 7 1 8 7
M  V30 8 1 9 8
M  V30 9 1 10 7
M  V30 10 1 11 10
M  V30 11 1 12 11
M  V30 12 1 13 12
M  V30 13 1 14 13
M  V30 14 2 15 14
M  V30 15 1 16 15
M  V30 16 2 17 16
M  V30 17 1 18 17
M  V30 18 1 19 14
M  V30 19 2 19 18
M  V30 20 1 20 12
M  V30 21 1 21 20
M  V30 22 2 22 21
M  V30 23 1 23 22
M  V30 24 2 24 23
M  V30 25 1 25 24
M  V30 26 1 26 21
M  V30 27 2 26 25
M  V30 28 1 27 6
M  V30 29 1 27 10
M  V30 30 1 27 20
M  V30 31 1 28 1
M  V30 32 1 29 1
M  V30 33 1 30 1
M  V30 34 1 31 2
M  V30 35 1 32 2
M  V30 36 1 33 4
M  V30 37 1 34 4
M  V30 38 1 35 5
M  V30 39 1 36 5
M  V30 40 1 37 5
M  V30 41 1 6 38 CFG=1
M  V30 42 1 7 39 CFG=3
M  V30 43 1 40 8
M  V30 44 1 41 8
M  V30 45 1 42 9
M  V30 46 1 10 43 CFG=3
M  V30 47 1 44 11
M  V30 48 1 45 11
M  V30 49 1 46 13
M  V30 50 1 47 13
M  V30 51 1 48 15
M  V30 52 1 49 16
M  V30 53 1 50 17
M  V30 54 1 51 18
M  V30 55 1 52 19
M  V30 56 1 20 53 CFG=1
M  V30 57 1 54 22
M  V30 58 1 55 23
M  V30 59 1 56 24
M  V30 60 1 57 25
M  V30 61 1 58 26
M  V30 62 1 27 59 CFG=1
M  V30 63 1 60 3
M  V30 64 1 12 61 CFG=3
M  V30 END BOND
M  V30 END CTAB
M  END
>  <b_m_subgroup_collapsed>  (2249) 
0

>  <r_i_docking_score>  (2249) 
-5.9577732409764099

>  <s_m_subgroup_title>  (2249) 
glide-dock_SP_D22_pv

>  <s_m_subgroupid>  (2249) 
glide-dock_SP_D22_pv

>  <Molecule ChEMBL ID>  (2249) 
CHEMBL2062848

>  <Standard Type>  (2249) 
Ki

>  <Standard Value>  (2249) 
12000.0

>  <label>  (2249) 
0

$$$$
CHEMBL1940412
     RDKit          3D

  0  0  0  0  0  0  0  0  0  0999 V3000
M  V30 BEGIN CTAB
M  V30 COUNTS 46 48 0 0 1
M  V30 BEGIN ATOM
M  V30 1 F 12.858624 8.209843 -1.423911 0
M  V30 2 C 12.302960 8.344357 -2.648353 0
M  V30 3 C 11.955740 9.619716 -3.124125 0
M  V30 4 C 11.443731 9.772411 -4.424450 0
M  V30 5 C 11.285086 8.659465 -5.269510 0
M  V30 6 O 10.840045 8.928960 -6.545419 0
M  V30 7 C 10.853914 7.891930 -7.516165 0
M  V30 8 C 9.530881 7.109262 -7.491518 0
M  V30 9 C 9.553705 5.855798 -8.382888 0
M  V30 10 N 8.886748 6.049083 -9.668673 0
M  V30 11 C 9.641976 6.914018 -10.583479 0
M  V30 12 C 8.940606 7.022481 -11.960280 0
M  V30 13 N 8.706398 5.702215 -12.543769 0
M  V30 14 C 9.712671 5.067948 -13.310246 0
M  V30 15 C 11.014616 5.614008 -13.449450 0
M  V30 16 C 11.992266 4.967301 -14.230339 0
M  V30 17 C 11.685885 3.764069 -14.889370 0
M  V30 18 C 10.400433 3.208509 -14.765593 0
M  V30 19 C 9.423180 3.858039 -13.987266 0
M  V30 20 C 7.929665 4.879289 -11.619341 0
M  V30 21 C 8.681323 4.738735 -10.284051 0
M  V30 22 C 11.583352 7.367372 -4.762774 0
M  V30 23 C 12.087440 7.213684 -3.456409 0
M  V30 24 H 12.087209 10.487935 -2.496123 0
M  V30 25 H 11.196363 10.757793 -4.790706 0
M  V30 26 H 11.719536 7.238101 -7.402750 0
M  V30 27 H 10.986881 8.371181 -8.484544 0
M  V30 28 H 8.690180 7.756596 -7.747966 0
M  V30 29 H 9.339158 6.785556 -6.468495 0
M  V30 30 H 9.007260 5.078735 -7.846725 0
M  V30 31 H 10.566687 5.473565 -8.517420 0
M  V30 32 H 10.659961 6.543905 -10.698398 0
M  V30 33 H 9.707804 7.914684 -10.160681 0
M  V30 34 H 9.505835 7.660230 -12.638348 0
M  V30 35 H 7.975497 7.516421 -11.848038 0
M  V30 36 H 11.298378 6.532184 -12.959678 0
M  V30 37 H 12.979866 5.396368 -14.320066 0
M  V30 38 H 12.435446 3.268271 -15.489357 0
M  V30 39 H 10.159924 2.286951 -15.275249 0
M  V30 40 H 8.438804 3.419020 -13.935472 0
M  V30 41 H 6.964074 5.357490 -11.447614 0
M  V30 42 H 7.704965 3.893694 -12.022039 0
M  V30 43 H 9.633437 4.224176 -10.429660 0
M  V30 44 H 8.081974 4.141158 -9.599945 0
M  V30 45 H 11.446368 6.478184 -5.359209 0
M  V30 46 H 12.332280 6.229612 -3.084022 0
M  V30 END ATOM
M  V30 BEGIN BOND
M  V30 1 1 2 1
M  V30 2 1 3 2
M  V30 3 2 4 3
M  V30 4 1 5 4
M  V30 5 1 6 5
M  V30 6 1 7 6
M  V30 7 1 8 7
M  V30 8 1 9 8
M  V30 9 1 10 9
M  V30 10 1 11 10
M  V30 11 1 12 11
M  V30 12 1 13 12
M  V30 13 1 14 13
M  V30 14 2 15 14
M  V30 15 1 16 15
M  V30 16 2 17 16
M  V30 17 1 18 17
M  V30 18 1 19 14
M  V30 19 2 19 18
M  V30 20 1 20 13
M  V30 21 1 21 10
M  V30 22 1 21 20
M  V30 23 2 22 5
M  V30 24 2 23 2
M  V30 25 1 23 22
M  V30 26 1 24 3
M  V30 27 1 25 4
M  V30 28 1 26 7
M  V30 29 1 27 7
M  V30 30 1 28 8
M  V30 31 1 29 8
M  V30 32 1 30 9
M  V30 33 1 31 9
M  V30 34 1 32 11
M  V30 35 1 33 11
M  V30 36 1 34 12
M  V30 37 1 35 12
M  V30 38 1 36 15
M  V30 39 1 37 16
M  V30 40 1 38 17
M  V30 41 1 39 18
M  V30 42 1 40 19
M  V30 43 1 41 20
M  V30 44 1 42 20
M  V30 45 1 43 21
M  V30 46 1 44 21
M  V30 47 1 45 22
M  V30 48 1 46 23
M  V30 END BOND
M  V30 END CTAB
M  END
>  <b_m_subgroup_collapsed>  (2250) 
0

>  <r_i_docking_score>  (2250) 
-5.9563873924999697

>  <s_m_subgroup_title>  (2250) 
glide-dock_SP_D22_pv

>  <s_m_subgroupid>  (2250) 
glide-dock_SP_D22_pv

>  <Molecule ChEMBL ID>  (2250) 
CHEMBL1940412

>  <Standard Type>  (2250) 
Ki

>  <Standard Value>  (2250) 
37.0

>  <label>  (2250) 
1

$$$$
CHEMBL1080735
     RDKit          3D

  0  0  0  0  0  0  0  0  0  0999 V3000
M  V30 BEGIN CTAB
M  V30 COUNTS 60 64 0 0 1
M  V30 BEGIN ATOM
M  V30 1 C 11.772145 7.981558 -10.531922 0
M  V30 2 C 10.235877 7.979959 -10.465778 0 CFG=1
M  V30 3 C 9.538012 7.331015 -11.692246 0
M  V30 4 N 9.437051 5.870034 -11.595844 0
M  V30 5 C 9.694092 4.967766 -12.584349 0
M  V30 6 O 9.284855 3.808331 -12.547333 0
M  V30 7 C 10.522602 5.372325 -13.776974 0
M  V30 8 C 11.742509 6.061256 -13.620262 0
M  V30 9 C 12.517220 6.416910 -14.735385 0
M  V30 10 C 12.119631 6.067504 -16.041327 0
M  V30 11 C 12.969965 6.464580 -17.181841 0
M  V30 12 C 13.272176 7.838335 -17.326540 0
M  V30 13 C 14.084787 8.308086 -18.373154 0
M  V30 14 C 14.612960 7.401423 -19.303404 0
M  V30 15 C 14.331297 6.029634 -19.174858 0
M  V30 16 C 13.525706 5.544292 -18.118107 0
M  V30 17 C 13.291863 4.036442 -18.026897 0
M  V30 18 F 12.136504 3.727633 -18.614679 0
M  V30 19 F 14.265260 3.363945 -18.644627 0
M  V30 20 F 13.264866 3.614841 -16.765465 0
M  V30 21 C 10.912944 5.347903 -16.199072 0
M  V30 22 C 10.132880 4.984339 -15.079041 0
M  V30 23 C 8.735672 5.495843 -10.365555 0
M  V30 24 C 9.527541 5.969083 -9.135673 0
M  V30 25 N 9.829537 7.410720 -9.163751 0
M  V30 26 C 9.638309 8.241064 -8.105939 0
M  V30 27 O 9.057113 9.316294 -8.246802 0
M  V30 28 C 10.391132 8.011149 -6.808112 0
M  V30 29 C 10.772602 6.729823 -6.348848 0
M  V30 30 C 11.408257 6.572194 -5.105652 0
M  V30 31 C 11.686085 7.642587 -4.253463 0
M  V30 32 C 12.270947 7.760254 -2.949888 0
M  V30 33 C 12.246947 9.090849 -2.642780 0
M  V30 34 N 11.685021 9.776549 -3.704160 0
M  V30 35 C 11.324313 8.926936 -4.725770 0
M  V30 36 C 10.711865 9.120750 -5.981213 0
M  V30 37 H 12.139579 8.432457 -11.449502 0
M  V30 38 H 12.199269 8.555990 -9.708955 0
M  V30 39 H 12.173612 6.972948 -10.463656 0
M  V30 40 H 9.940478 9.027904 -10.513675 0
M  V30 41 H 10.000585 7.679785 -12.612442 0
M  V30 42 H 8.515965 7.713180 -11.742546 0
M  V30 43 H 12.108893 6.324529 -12.644365 0
M  V30 44 H 13.443471 6.952293 -14.579999 0
M  V30 45 H 12.865154 8.554907 -16.627590 0
M  V30 46 H 14.287217 9.365575 -18.465000 0
M  V30 47 H 15.230492 7.757127 -20.114952 0
M  V30 48 H 14.745749 5.345866 -19.900730 0
M  V30 49 H 10.579985 5.068629 -17.186674 0
M  V30 50 H 9.221447 4.423007 -15.227443 0
M  V30 51 H 7.737493 5.934954 -10.367284 0
M  V30 52 H 8.579193 4.420965 -10.284334 0
M  V30 53 H 8.929812 5.720528 -8.257097 0
M  V30 54 H 10.461804 5.411854 -9.070047 0
M  V30 55 H 10.586222 5.822097 -6.897736 0
M  V30 56 H 11.681540 5.589963 -4.770029 0
M  V30 57 H 12.639030 6.947151 -2.341430 0
M  V30 58 H 12.576461 9.611761 -1.754524 0
M  V30 59 H 11.551956 10.777208 -3.691628 0
M  V30 60 H 10.468769 10.125366 -6.293126 0
M  V30 END ATOM
M  V30 BEGIN BOND
M  V30 1 1 2 1
M  V30 2 1 3 2
M  V30 3 1 4 3
M  V30 4 1 5 4
M  V30 5 2 6 5
M  V30 6 1 7 5
M  V30 7 1 8 7
M  V30 8 2 9 8
M  V30 9 1 10 9
M  V30 10 1 11 10
M  V30 11 2 12 11
M  V30 12 1 13 12
M  V30 13 2 14 13
M  V30 14 1 15 14
M  V30 15 1 16 11
M  V30 16 2 16 15
M  V30 17 1 17 16
M  V30 18 1 18 17
M  V30 19 1 19 17
M  V30 20 1 20 17
M  V30 21 2 21 10
M  V30 22 2 22 7
M  V30 23 1 22 21
M  V30 24 1 23 4
M  V30 25 1 24 23
M  V30 26 1 25 2
M  V30 27 1 25 24
M  V30 28 1 26 25
M  V30 29 2 27 26
M  V30 30 1 28 26
M  V30 31 2 29 28
M  V30 32 1 30 29
M  V30 33 2 31 30
M  V30 34 1 32 31
M  V30 35 2 33 32
M  V30 36 1 34 33
M  V30 37 1 35 31
M  V30 38 1 35 34
M  V30 39 1 36 28
M  V30 40 2 36 35
M  V30 41 1 37 1
M  V30 42 1 38 1
M  V30 43 1 39 1
M  V30 44 1 2 40 CFG=1
M  V30 45 1 41 3
M  V30 46 1 42 3
M  V30 47 1 43 8
M  V30 48 1 44 9
M  V30 49 1 45 12
M  V30 50 1 46 13
M  V30 51 1 47 14
M  V30 52 1 48 15
M  V30 53 1 49 21
M  V30 54 1 50 22
M  V30 55 1 51 23
M  V30 56 1 52 23
M  V30 57 1 53 24
M  V30 58 1 54 24
M  V30 59 1 55 29
M  V30 60 1 56 30
M  V30 61 1 57 32
M  V30 62 1 58 33
M  V30 63 1 59 34
M  V30 64 1 60 36
M  V30 END BOND
M  V30 END CTAB
M  END
>  <b_m_subgroup_collapsed>  (2251) 
0

>  <r_i_docking_score>  (2251) 
-5.95310994334708

>  <s_m_subgroup_title>  (2251) 
glide-dock_SP_D22_pv

>  <s_m_subgroupid>  (2251) 
glide-dock_SP_D22_pv

>  <Molecule ChEMBL ID>  (2251) 
CHEMBL1080735

>  <Standard Type>  (2251) 
Ki

>  <Standard Value>  (2251) 
10000.0

>  <label>  (2251) 
0

$$$$
CHEMBL2159457
     RDKit          3D

  0  0  0  0  0  0  0  0  0  0999 V3000
M  V30 BEGIN CTAB
M  V30 COUNTS 62 64 0 0 1
M  V30 BEGIN ATOM
M  V30 1 C 8.646522 1.650227 -17.286249 0
M  V30 2 C 8.890593 1.789826 -15.775340 0
M  V30 3 C 10.084634 0.937241 -15.311528 0
M  V30 4 C 7.626811 1.469156 -14.976716 0
M  V30 5 C 7.112750 0.154313 -15.004816 0
M  V30 6 C 5.985718 -0.197941 -14.243405 0
M  V30 7 C 5.344897 0.776563 -13.462773 0
M  V30 8 C 5.825844 2.098812 -13.446742 0
M  V30 9 C 6.983805 2.454040 -14.183288 0
M  V30 10 O 7.524240 3.720716 -14.133143 0
M  V30 11 C 7.332937 4.474275 -12.941552 0
M  V30 12 C 8.460515 5.517592 -12.890718 0
M  V30 13 N 8.486278 6.321568 -11.640827 0 CFG=2 CHG=1
M  V30 14 C 9.267105 7.575817 -11.805922 0
M  V30 15 C 9.186539 8.476835 -10.566759 0
M  V30 16 C 9.483069 7.727277 -9.261164 0 CFG=1
M  V30 17 C 9.151739 8.634606 -8.059635 0
M  V30 18 N 9.593107 8.048955 -6.801434 0
M  V30 19 S 11.240746 7.609030 -6.663792 0
M  V30 20 O 11.335529 6.172556 -6.961147 0
M  V30 21 O 12.031476 8.587614 -7.429200 0
M  V30 22 C 11.551746 7.881410 -4.940685 0
M  V30 23 C 11.691535 6.786285 -4.065562 0
M  V30 24 C 12.086027 7.019919 -2.735856 0
M  V30 25 C 12.304595 8.340613 -2.295009 0
M  V30 26 F 12.750709 8.572302 -1.046985 0
M  V30 27 C 12.086042 9.428891 -3.156048 0
M  V30 28 C 11.716328 9.202865 -4.491255 0
M  V30 29 C 8.772684 6.357176 -9.193640 0
M  V30 30 C 8.986584 5.551825 -10.472360 0
M  V30 31 H 7.822277 2.287930 -17.607925 0
M  V30 32 H 9.529127 1.944343 -17.854118 0
M  V30 33 H 8.402182 0.624277 -17.564466 0
M  V30 34 H 9.167569 2.828922 -15.601044 0
M  V30 35 H 10.275400 1.082532 -14.247420 0
M  V30 36 H 9.917776 -0.127818 -15.477740 0
M  V30 37 H 10.994601 1.212220 -15.845153 0
M  V30 38 H 7.593140 -0.615530 -15.593731 0
M  V30 39 H 5.619675 -1.215229 -14.261909 0
M  V30 40 H 4.485738 0.511385 -12.873813 0
M  V30 41 H 5.298722 2.824801 -12.847061 0
M  V30 42 H 6.356977 4.960750 -12.952467 0
M  V30 43 H 7.378878 3.818075 -12.072750 0
M  V30 44 H 9.427478 5.030877 -13.021447 0
M  V30 45 H 8.336891 6.171848 -13.751481 0
M  V30 46 H 10.306738 7.336298 -12.031857 0
M  V30 47 H 8.877197 8.143096 -12.646793 0
M  V30 48 H 9.906455 9.287855 -10.658552 0
M  V30 49 H 8.215458 8.972532 -10.528958 0
M  V30 50 H 10.554798 7.526062 -9.288455 0
M  V30 51 H 9.640083 9.600564 -8.173120 0
M  V30 52 H 8.086180 8.837024 -7.993353 0
M  V30 53 H 8.972117 7.310314 -6.469434 0
M  V30 54 H 11.553301 5.772978 -4.417131 0
M  V30 55 H 12.238219 6.189541 -2.061976 0
M  V30 56 H 12.239339 10.433594 -2.793910 0
M  V30 57 H 11.594325 10.033215 -5.171888 0
M  V30 58 H 9.130654 5.782489 -8.340792 0
M  V30 59 H 7.701035 6.467381 -9.046884 0
M  V30 60 H 8.456054 4.606548 -10.362931 0
M  V30 61 H 10.046915 5.313711 -10.596875 0
M  V30 62 H 7.541163 6.620520 -11.409193 0
M  V30 END ATOM
M  V30 BEGIN BOND
M  V30 1 1 2 1
M  V30 2 1 3 2
M  V30 3 1 4 2
M  V30 4 2 5 4
M  V30 5 1 6 5
M  V30 6 2 7 6
M  V30 7 1 8 7
M  V30 8 1 9 4
M  V30 9 2 9 8
M  V30 10 1 10 9
M  V30 11 1 11 10
M  V30 12 1 12 11
M  V30 13 1 13 12
M  V30 14 1 14 13
M  V30 15 1 15 14
M  V30 16 1 16 15
M  V30 17 1 17 16
M  V30 18 1 18 17
M  V30 19 1 19 18
M  V30 20 2 20 19
M  V30 21 2 21 19
M  V30 22 1 22 19
M  V30 23 1 23 22
M  V30 24 2 24 23
M  V30 25 1 25 24
M  V30 26 1 26 25
M  V30 27 2 27 25
M  V30 28 2 28 22
M  V30 29 1 28 27
M  V30 30 1 29 16
M  V30 31 1 30 13
M  V30 32 1 30 29
M  V30 33 1 31 1
M  V30 34 1 32 1
M  V30 35 1 33 1
M  V30 36 1 34 2
M  V30 37 1 35 3
M  V30 38 1 36 3
M  V30 39 1 37 3
M  V30 40 1 38 5
M  V30 41 1 39 6
M  V30 42 1 40 7
M  V30 43 1 41 8
M  V30 44 1 42 11
M  V30 45 1 43 11
M  V30 46 1 44 12
M  V30 47 1 45 12
M  V30 48 1 46 14
M  V30 49 1 47 14
M  V30 50 1 48 15
M  V30 51 1 49 15
M  V30 52 1 16 50 CFG=3
M  V30 53 1 51 17
M  V30 54 1 52 17
M  V30 55 1 53 18
M  V30 56 1 54 23
M  V30 57 1 55 24
M  V30 58 1 56 27
M  V30 59 1 57 28
M  V30 60 1 58 29
M  V30 61 1 59 29
M  V30 62 1 60 30
M  V30 63 1 61 30
M  V30 64 1 13 62 CFG=1
M  V30 END BOND
M  V30 END CTAB
M  END
>  <b_m_subgroup_collapsed>  (2252) 
0

>  <r_i_docking_score>  (2252) 
-5.9518833360969401

>  <s_m_subgroup_title>  (2252) 
glide-dock_SP_D22_pv

>  <s_m_subgroupid>  (2252) 
glide-dock_SP_D22_pv

>  <Molecule ChEMBL ID>  (2252) 
CHEMBL2159457

>  <Standard Type>  (2252) 
Ki

>  <Standard Value>  (2252) 
50.0

>  <label>  (2252) 
1

$$$$
CHEMBL329443
     RDKit          3D

  0  0  0  0  0  0  0  0  0  0999 V3000
M  V30 BEGIN CTAB
M  V30 COUNTS 48 49 0 0 1
M  V30 BEGIN ATOM
M  V30 1 C 10.103022 7.038826 -6.001997 0
M  V30 2 C 9.322818 7.363686 -7.284434 0
M  V30 3 C 9.444888 6.247597 -8.339914 0
M  V30 4 N 8.886996 6.610215 -9.671991 0 CFG=1 CHG=1
M  V30 5 C 9.693953 7.639343 -10.386589 0
M  V30 6 C 9.001390 8.090115 -11.681196 0
M  V30 7 C 8.693582 6.895517 -12.593040 0
M  V30 8 C 7.951569 5.780224 -11.840456 0 CFG=1
M  V30 9 C 7.743537 4.560875 -12.729598 0
M  V30 10 C 6.448084 4.032111 -12.915105 0
M  V30 11 C 6.252723 2.899202 -13.729703 0
M  V30 12 C 7.346875 2.289160 -14.375256 0
M  V30 13 C 8.639892 2.817830 -14.197575 0
M  V30 14 S 10.045407 2.037421 -14.989503 0
M  V30 15 O 11.278787 2.572589 -14.387824 0
M  V30 16 O 9.810489 0.584413 -15.044799 0
M  V30 17 N 9.948463 2.653698 -16.608820 0
M  V30 18 C 8.912755 2.119484 -17.499165 0
M  V30 19 C 10.272907 4.068240 -16.834290 0
M  V30 20 C 8.840245 3.945079 -13.377984 0
M  V30 21 C 8.670373 5.412884 -10.524740 0
M  V30 22 H 10.086300 7.887560 -5.314258 0
M  V30 23 H 9.679502 6.174558 -5.478564 0
M  V30 24 H 11.151663 6.816732 -6.220840 0
M  V30 25 H 9.710177 8.311436 -7.656658 0
M  V30 26 H 8.269607 7.533876 -7.041771 0
M  V30 27 H 8.921133 5.368304 -7.958962 0
M  V30 28 H 10.488792 5.948350 -8.460912 0
M  V30 29 H 10.683014 7.238173 -10.611799 0
M  V30 30 H 9.846218 8.522120 -9.768491 0
M  V30 31 H 9.634260 8.798443 -12.212651 0
M  V30 32 H 8.085988 8.628615 -11.447281 0
M  V30 33 H 9.637703 6.528854 -12.994078 0
M  V30 34 H 8.085267 7.206978 -13.441813 0
M  V30 35 H 6.968593 6.172057 -11.579680 0
M  V30 36 H 5.601681 4.486151 -12.421031 0
M  V30 37 H 5.258932 2.495604 -13.846745 0
M  V30 38 H 7.193423 1.413538 -14.990705 0
M  V30 39 H 9.138731 2.357608 -18.538940 0
M  V30 40 H 8.855631 1.033776 -17.410440 0
M  V30 41 H 7.939060 2.539338 -17.247002 0
M  V30 42 H 10.426800 4.264458 -17.896788 0
M  V30 43 H 9.464970 4.706177 -16.473574 0
M  V30 44 H 11.190029 4.337182 -16.308056 0
M  V30 45 H 9.844736 4.320234 -13.238328 0
M  V30 46 H 8.073921 4.676354 -9.983531 0
M  V30 47 H 9.627831 4.937304 -10.735722 0
M  V30 48 H 7.957734 7.008606 -9.535409 0
M  V30 END ATOM
M  V30 BEGIN BOND
M  V30 1 1 2 1
M  V30 2 1 3 2
M  V30 3 1 4 3
M  V30 4 1 5 4
M  V30 5 1 6 5
M  V30 6 1 7 6
M  V30 7 1 8 7
M  V30 8 1 9 8
M  V30 9 1 10 9
M  V30 10 2 11 10
M  V30 11 1 12 11
M  V30 12 2 13 12
M  V30 13 1 14 13
M  V30 14 2 15 14
M  V30 15 2 16 14
M  V30 16 1 17 14
M  V30 17 1 18 17
M  V30 18 1 19 17
M  V30 19 2 20 9
M  V30 20 1 20 13
M  V30 21 1 21 4
M  V30 22 1 21 8
M  V30 23 1 22 1
M  V30 24 1 23 1
M  V30 25 1 24 1
M  V30 26 1 25 2
M  V30 27 1 26 2
M  V30 28 1 27 3
M  V30 29 1 28 3
M  V30 30 1 29 5
M  V30 31 1 30 5
M  V30 32 1 31 6
M  V30 33 1 32 6
M  V30 34 1 33 7
M  V30 35 1 34 7
M  V30 36 1 8 35 CFG=1
M  V30 37 1 36 10
M  V30 38 1 37 11
M  V30 39 1 38 12
M  V30 40 1 39 18
M  V30 41 1 40 18
M  V30 42 1 41 18
M  V30 43 1 42 19
M  V30 44 1 43 19
M  V30 45 1 44 19
M  V30 46 1 45 20
M  V30 47 1 46 21
M  V30 48 1 47 21
M  V30 49 1 4 48 CFG=1
M  V30 END BOND
M  V30 END CTAB
M  END
>  <b_m_subgroup_collapsed>  (2253) 
0

>  <r_i_docking_score>  (2253) 
-5.9511851522305204

>  <s_m_subgroup_title>  (2253) 
glide-dock_SP_D22_pv

>  <s_m_subgroupid>  (2253) 
glide-dock_SP_D22_pv

>  <Molecule ChEMBL ID>  (2253) 
CHEMBL329443

>  <Standard Type>  (2253) 
Ki

>  <Standard Value>  (2253) 
91.0

>  <label>  (2253) 
1

$$$$
CHEMBL352207
     RDKit          3D

  0  0  0  0  0  0  0  0  0  0999 V3000
M  V30 BEGIN CTAB
M  V30 COUNTS 55 59 0 0 1
M  V30 BEGIN ATOM
M  V30 1 O 8.086642 2.572207 -18.148527 0
M  V30 2 C 9.103959 3.025834 -17.616917 0
M  V30 3 C 9.473050 2.500298 -16.208096 0 CFG=2
M  V30 4 N 9.025719 3.437660 -15.126287 0
M  V30 5 C 10.040957 4.293955 -14.494092 0
M  V30 6 C 9.369796 5.351566 -13.603010 0
M  V30 7 N 8.527958 4.718052 -12.563389 0 CHG=1
M  V30 8 C 7.913204 5.691655 -11.629485 0
M  V30 9 C 8.923533 6.295388 -10.668652 0
M  V30 10 C 9.192033 5.667392 -9.433117 0
M  V30 11 C 10.056317 6.277983 -8.502745 0
M  V30 12 C 10.658518 7.515078 -8.805912 0
M  V30 13 Cl 11.684137 8.287131 -7.655164 0
M  V30 14 C 10.413315 8.132520 -10.046365 0
M  V30 15 C 9.545197 7.526568 -10.973762 0
M  V30 16 C 7.526889 3.850541 -13.225059 0
M  V30 17 C 8.237111 2.780934 -14.081402 0
M  V30 18 C 10.892345 1.889271 -16.056410 0
M  V30 19 C 11.953485 2.369019 -17.056816 0
M  V30 20 C 12.110481 3.877002 -17.145649 0
M  V30 21 C 13.242802 4.644571 -16.790300 0
M  V30 22 C 13.305323 6.028398 -17.082058 0
M  V30 23 C 12.255174 6.667291 -17.778152 0
M  V30 24 C 11.126080 5.911845 -18.140194 0
M  V30 25 C 11.055682 4.562366 -17.785295 0
M  V30 26 N 9.819647 4.014169 -18.205992 0
M  V30 27 C 9.210954 4.897628 -19.196077 0
M  V30 28 C 9.887971 6.250017 -18.934544 0
M  V30 29 H 8.829968 1.621482 -16.131144 0
M  V30 30 H 10.741115 3.715103 -13.892242 0
M  V30 31 H 10.619138 4.826622 -15.240406 0
M  V30 32 H 10.141015 5.973415 -13.149621 0
M  V30 33 H 8.741251 6.000294 -14.212727 0
M  V30 34 H 7.404444 6.483614 -12.182631 0
M  V30 35 H 7.139698 5.197772 -11.041806 0
M  V30 36 H 8.707492 4.735558 -9.178324 0
M  V30 37 H 10.240659 5.805364 -7.548908 0
M  V30 38 H 10.874938 9.081848 -10.276026 0
M  V30 39 H 9.333903 8.027792 -11.906808 0
M  V30 40 H 6.897574 3.375948 -12.471514 0
M  V30 41 H 6.859705 4.452628 -13.845763 0
M  V30 42 H 7.472947 2.139032 -14.522172 0
M  V30 43 H 8.876319 2.147169 -13.459178 0
M  V30 44 H 10.813079 0.807676 -16.175348 0
M  V30 45 H 11.273072 2.004529 -15.044292 0
M  V30 46 H 11.742003 1.976603 -18.052803 0
M  V30 47 H 12.914090 1.938010 -16.779541 0
M  V30 48 H 14.084617 4.172168 -16.312853 0
M  V30 49 H 14.183126 6.593637 -16.803816 0
M  V30 50 H 12.323556 7.713986 -18.038576 0
M  V30 51 H 9.462384 4.522773 -20.189205 0
M  V30 52 H 8.124084 4.980051 -19.126423 0
M  V30 53 H 9.249267 6.900194 -18.335569 0
M  V30 54 H 10.136694 6.769470 -19.860289 0
M  V30 55 H 9.121141 4.116493 -12.009501 0
M  V30 END ATOM
M  V30 BEGIN BOND
M  V30 1 2 2 1
M  V30 2 1 3 2
M  V30 3 1 4 3
M  V30 4 1 5 4
M  V30 5 1 6 5
M  V30 6 1 7 6
M  V30 7 1 8 7
M  V30 8 1 9 8
M  V30 9 1 10 9
M  V30 10 2 11 10
M  V30 11 1 12 11
M  V30 12 1 13 12
M  V30 13 2 14 12
M  V30 14 2 15 9
M  V30 15 1 15 14
M  V30 16 1 16 7
M  V30 17 1 17 4
M  V30 18 1 17 16
M  V30 19 1 18 3
M  V30 20 1 19 18
M  V30 21 1 20 19
M  V30 22 1 21 20
M  V30 23 2 22 21
M  V30 24 1 23 22
M  V30 25 2 24 23
M  V30 26 2 25 20
M  V30 27 1 25 24
M  V30 28 1 26 2
M  V30 29 1 26 25
M  V30 30 1 27 26
M  V30 31 1 28 24
M  V30 32 1 28 27
M  V30 33 1 3 29 CFG=1
M  V30 34 1 30 5
M  V30 35 1 31 5
M  V30 36 1 32 6
M  V30 37 1 33 6
M  V30 38 1 34 8
M  V30 39 1 35 8
M  V30 40 1 36 10
M  V30 41 1 37 11
M  V30 42 1 38 14
M  V30 43 1 39 15
M  V30 44 1 40 16
M  V30 45 1 41 16
M  V30 46 1 42 17
M  V30 47 1 43 17
M  V30 48 1 44 18
M  V30 49 1 45 18
M  V30 50 1 46 19
M  V30 51 1 47 19
M  V30 52 1 48 21
M  V30 53 1 49 22
M  V30 54 1 50 23
M  V30 55 1 51 27
M  V30 56 1 52 27
M  V30 57 1 53 28
M  V30 58 1 54 28
M  V30 59 1 55 7
M  V30 END BOND
M  V30 END CTAB
M  END
>  <b_m_subgroup_collapsed>  (2254) 
0

>  <r_i_docking_score>  (2254) 
-5.9505262585162004

>  <s_m_subgroup_title>  (2254) 
glide-dock_SP_D22_pv

>  <s_m_subgroupid>  (2254) 
glide-dock_SP_D22_pv

>  <Molecule ChEMBL ID>  (2254) 
CHEMBL352207

>  <Standard Type>  (2254) 
Ki

>  <Standard Value>  (2254) 
62.0

>  <label>  (2254) 
1

$$$$
CHEMBL201241
     RDKit          3D

  0  0  0  0  0  0  0  0  0  0999 V3000
M  V30 BEGIN CTAB
M  V30 COUNTS 46 50 0 0 1
M  V30 BEGIN ATOM
M  V30 1 C 9.292027 4.349693 -19.225941 0
M  V30 2 C 9.531680 5.510497 -18.469286 0
M  V30 3 C 10.313877 5.443590 -17.301273 0
M  V30 4 C 10.851672 4.214617 -16.865105 0
M  V30 5 C 11.695457 4.115611 -15.591581 0 CFG=1
M  V30 6 C 12.984431 4.965809 -15.629100 0
M  V30 7 C 12.809163 6.410631 -15.141311 0
M  V30 8 C 12.084918 6.440560 -13.787832 0
M  V30 9 N 10.786086 5.735425 -13.876141 0 CFG=2 CHG=1
M  V30 10 C 9.925080 5.941347 -12.674064 0
M  V30 11 C 8.468269 5.539108 -12.990120 0
M  V30 12 C 8.448368 4.188612 -13.627407 0
M  V30 13 C 9.560948 3.643823 -14.208776 0
M  V30 14 N 9.258468 2.362970 -14.641223 0
M  V30 15 C 7.948676 2.045884 -14.330971 0
M  V30 16 C 7.201713 0.863832 -14.486020 0
M  V30 17 C 5.890962 0.807592 -13.976317 0
M  V30 18 C 5.329619 1.938645 -13.356502 0
M  V30 19 C 6.072189 3.134679 -13.241760 0
M  V30 20 C 7.403754 3.209218 -13.707463 0
M  V30 21 C 10.921552 4.290902 -14.250309 0 CFG=1
M  V30 22 C 10.608475 3.052263 -17.636972 0
M  V30 23 C 9.833576 3.119835 -18.810829 0
M  V30 24 H 8.689745 4.404962 -20.120794 0
M  V30 25 H 9.111970 6.455174 -18.781523 0
M  V30 26 H 10.485453 6.349420 -16.747372 0
M  V30 27 H 12.040492 3.079316 -15.586293 0
M  V30 28 H 13.686794 4.493806 -14.948090 0
M  V30 29 H 13.446886 4.935462 -16.615688 0
M  V30 30 H 13.787162 6.881706 -15.041442 0
M  V30 31 H 12.273250 7.013785 -15.871389 0
M  V30 32 H 12.699849 5.980330 -13.012092 0
M  V30 33 H 11.924265 7.481278 -13.493652 0
M  V30 34 H 10.305882 5.341751 -11.844517 0
M  V30 35 H 9.943373 6.983775 -12.346746 0
M  V30 36 H 7.869170 5.550759 -12.077673 0
M  V30 37 H 8.027767 6.272902 -13.662725 0
M  V30 38 H 9.932885 1.738501 -15.061999 0
M  V30 39 H 7.640175 -0.002837 -14.959044 0
M  V30 40 H 5.317270 -0.102629 -14.068672 0
M  V30 41 H 4.318749 1.896393 -12.976917 0
M  V30 42 H 5.632661 3.988133 -12.747643 0
M  V30 43 H 11.528625 3.838552 -13.462655 0
M  V30 44 H 11.011550 2.097775 -17.331654 0
M  V30 45 H 9.653949 2.226949 -19.391504 0
M  V30 46 H 10.283549 6.164310 -14.639914 0
M  V30 END ATOM
M  V30 BEGIN BOND
M  V30 1 2 2 1
M  V30 2 1 3 2
M  V30 3 2 4 3
M  V30 4 1 5 4
M  V30 5 1 6 5
M  V30 6 1 7 6
M  V30 7 1 8 7
M  V30 8 1 9 8
M  V30 9 1 10 9
M  V30 10 1 11 10
M  V30 11 1 12 11
M  V30 12 2 13 12
M  V30 13 1 14 13
M  V30 14 1 15 14
M  V30 15 2 16 15
M  V30 16 1 17 16
M  V30 17 2 18 17
M  V30 18 1 19 18
M  V30 19 1 20 12
M  V30 20 1 20 15
M  V30 21 2 20 19
M  V30 22 1 21 5
M  V30 23 1 21 9
M  V30 24 1 21 13
M  V30 25 1 22 4
M  V30 26 1 23 1
M  V30 27 2 23 22
M  V30 28 1 24 1
M  V30 29 1 25 2
M  V30 30 1 26 3
M  V30 31 1 5 27 CFG=1
M  V30 32 1 28 6
M  V30 33 1 29 6
M  V30 34 1 30 7
M  V30 35 1 31 7
M  V30 36 1 32 8
M  V30 37 1 33 8
M  V30 38 1 34 10
M  V30 39 1 35 10
M  V30 40 1 36 11
M  V30 41 1 37 11
M  V30 42 1 38 14
M  V30 43 1 39 16
M  V30 44 1 40 17
M  V30 45 1 41 18
M  V30 46 1 42 19
M  V30 47 1 21 43 CFG=1
M  V30 48 1 44 22
M  V30 49 1 45 23
M  V30 50 1 9 46 CFG=3
M  V30 END BOND
M  V30 END CTAB
M  END
>  <b_m_subgroup_collapsed>  (2255) 
0

>  <r_i_docking_score>  (2255) 
-5.94877960003436

>  <s_m_subgroup_title>  (2255) 
glide-dock_SP_D22_pv

>  <s_m_subgroupid>  (2255) 
glide-dock_SP_D22_pv

>  <Molecule ChEMBL ID>  (2255) 
CHEMBL201241

>  <Standard Type>  (2255) 
Ki

>  <Standard Value>  (2255) 
10000.0

>  <label>  (2255) 
0

$$$$
CHEMBL380124
     RDKit          3D

  0  0  0  0  0  0  0  0  0  0999 V3000
M  V30 BEGIN CTAB
M  V30 COUNTS 22 23 0 0 1
M  V30 BEGIN ATOM
M  V30 1 O 12.004644 9.607858 -3.332215 0
M  V30 2 C 11.689997 8.879813 -4.271724 0
M  V30 3 C 11.239394 9.396224 -5.626790 0
M  V30 4 C 10.606384 8.152534 -6.246545 0 CFG=1
M  V30 5 C 10.724135 8.054130 -7.761133 0
M  V30 6 C 11.962181 8.267767 -8.408738 0
M  V30 7 C 12.059635 8.172432 -9.809481 0
M  V30 8 C 10.924825 7.847697 -10.575432 0
M  V30 9 C 9.690818 7.627376 -9.936133 0
M  V30 10 C 9.589047 7.731186 -8.534255 0
M  V30 11 C 11.239385 6.977280 -5.496109 0
M  V30 12 O 11.684892 7.543912 -4.273404 0
M  V30 13 H 12.122601 9.739964 -6.166563 0
M  V30 14 H 10.531030 10.220891 -5.544127 0
M  V30 15 H 9.544851 8.170719 -5.988534 0
M  V30 16 H 12.850832 8.511580 -7.845273 0
M  V30 17 H 13.006343 8.352248 -10.296706 0
M  V30 18 H 10.996486 7.772855 -11.650451 0
M  V30 19 H 8.812550 7.387063 -10.516807 0
M  V30 20 H 8.629455 7.560036 -8.064564 0
M  V30 21 H 10.523651 6.171981 -5.330413 0
M  V30 22 H 12.087055 6.568916 -6.041157 0
M  V30 END ATOM
M  V30 BEGIN BOND
M  V30 1 2 2 1
M  V30 2 1 3 2
M  V30 3 1 4 3
M  V30 4 1 5 4
M  V30 5 2 6 5
M  V30 6 1 7 6
M  V30 7 2 8 7
M  V30 8 1 9 8
M  V30 9 1 10 5
M  V30 10 2 10 9
M  V30 11 1 11 4
M  V30 12 1 12 2
M  V30 13 1 12 11
M  V30 14 1 13 3
M  V30 15 1 14 3
M  V30 16 1 4 15 CFG=3
M  V30 17 1 16 6
M  V30 18 1 17 7
M  V30 19 1 18 8
M  V30 20 1 19 9
M  V30 21 1 20 10
M  V30 22 1 21 11
M  V30 23 1 22 11
M  V30 END BOND
M  V30 END CTAB
M  END
>  <b_m_subgroup_collapsed>  (2256) 
0

>  <r_i_docking_score>  (2256) 
-5.9440384677100999

>  <s_m_subgroup_title>  (2256) 
glide-dock_SP_D22_pv

>  <s_m_subgroupid>  (2256) 
glide-dock_SP_D22_pv

>  <Molecule ChEMBL ID>  (2256) 
CHEMBL380124

>  <Standard Type>  (2256) 
Ki

>  <Standard Value>  (2256) 
10000.0

>  <label>  (2256) 
0

$$$$
CHEMBL3265329
     RDKit          3D

  0  0  0  0  0  0  0  0  0  0999 V3000
M  V30 BEGIN CTAB
M  V30 COUNTS 48 49 0 0 1
M  V30 BEGIN ATOM
M  V30 1 C 11.754182 7.108618 -4.472778 0
M  V30 2 C 10.813910 7.668096 -5.248660 0
M  V30 3 C 10.141848 6.966348 -6.411448 0
M  V30 4 N 9.970885 7.880238 -7.564971 0 CFG=1 CHG=1
M  V30 5 C 11.213094 8.438738 -8.152101 0
M  V30 6 C 10.877333 8.787294 -9.609482 0
M  V30 7 C 9.385042 8.472482 -9.755359 0
M  V30 8 C 9.133883 7.399663 -8.687452 0 CFG=1
M  V30 9 C 9.498714 5.958076 -9.133407 0
M  V30 10 N 8.679245 5.468163 -10.232851 0
M  V30 11 C 9.051478 5.438471 -11.520805 0
M  V30 12 O 10.086036 5.958361 -11.941730 0
M  V30 13 C 8.174668 4.622020 -12.419120 0
M  V30 14 C 6.771408 4.608718 -12.247199 0
M  V30 15 C 5.969198 3.780275 -13.052000 0
M  V30 16 C 6.564404 2.971495 -14.039347 0
M  V30 17 C 7.956751 3.006502 -14.246662 0
M  V30 18 C 8.587630 2.142218 -15.321795 0
M  V30 19 C 9.189458 0.848785 -14.750907 0
M  V30 20 C 9.701778 -0.103719 -15.840236 0
M  V30 21 F 10.700480 0.454269 -16.523232 0
M  V30 22 C 8.757855 3.841322 -13.441802 0
M  V30 23 H 12.086097 6.094044 -4.639085 0
M  V30 24 H 12.201203 7.655587 -3.655121 0
M  V30 25 H 10.491628 8.679848 -5.043181 0
M  V30 26 H 10.729846 6.090430 -6.688958 0
M  V30 27 H 9.159868 6.614953 -6.085708 0
M  V30 28 H 11.544196 9.312676 -7.587865 0
M  V30 29 H 12.016478 7.696689 -8.124605 0
M  V30 30 H 11.108283 9.826324 -9.846632 0
M  V30 31 H 11.462238 8.159476 -10.285814 0
M  V30 32 H 8.800013 9.363222 -9.517665 0
M  V30 33 H 9.103419 8.175508 -10.764094 0
M  V30 34 H 8.094801 7.408030 -8.369562 0
M  V30 35 H 10.558079 5.884395 -9.386421 0
M  V30 36 H 9.335389 5.258105 -8.316794 0
M  V30 37 H 7.793688 5.040735 -9.995067 0
M  V30 38 H 6.301521 5.219106 -11.486632 0
M  V30 39 H 4.898753 3.755920 -12.905534 0
M  V30 40 H 5.958717 2.314848 -14.639728 0
M  V30 41 H 7.834163 1.903711 -16.074434 0
M  V30 42 H 9.357238 2.719520 -15.837029 0
M  V30 43 H 10.005179 1.094058 -14.070234 0
M  V30 44 H 8.436991 0.327177 -14.158127 0
M  V30 45 H 10.086076 -1.026468 -15.408582 0
M  V30 46 H 8.916857 -0.369280 -16.549234 0
M  V30 47 H 9.829864 3.853536 -13.586215 0
M  V30 48 H 9.459336 8.677175 -7.212478 0
M  V30 END ATOM
M  V30 BEGIN BOND
M  V30 1 2 2 1
M  V30 2 1 3 2
M  V30 3 1 4 3
M  V30 4 1 5 4
M  V30 5 1 6 5
M  V30 6 1 7 6
M  V30 7 1 8 4
M  V30 8 1 8 7
M  V30 9 1 9 8
M  V30 10 1 10 9
M  V30 11 1 11 10
M  V30 12 2 12 11
M  V30 13 1 13 11
M  V30 14 2 14 13
M  V30 15 1 15 14
M  V30 16 2 16 15
M  V30 17 1 17 16
M  V30 18 1 18 17
M  V30 19 1 19 18
M  V30 20 1 20 19
M  V30 21 1 21 20
M  V30 22 1 22 13
M  V30 23 2 22 17
M  V30 24 1 23 1
M  V30 25 1 24 1
M  V30 26 1 25 2
M  V30 27 1 26 3
M  V30 28 1 27 3
M  V30 29 1 28 5
M  V30 30 1 29 5
M  V30 31 1 30 6
M  V30 32 1 31 6
M  V30 33 1 32 7
M  V30 34 1 33 7
M  V30 35 1 8 34 CFG=1
M  V30 36 1 35 9
M  V30 37 1 36 9
M  V30 38 1 37 10
M  V30 39 1 38 14
M  V30 40 1 39 15
M  V30 41 1 40 16
M  V30 42 1 41 18
M  V30 43 1 42 18
M  V30 44 1 43 19
M  V30 45 1 44 19
M  V30 46 1 45 20
M  V30 47 1 46 20
M  V30 48 1 47 22
M  V30 49 1 4 48 CFG=1
M  V30 END BOND
M  V30 END CTAB
M  END
>  <b_m_subgroup_collapsed>  (2257) 
0

>  <r_i_docking_score>  (2257) 
-5.9390924590463596

>  <s_m_subgroup_title>  (2257) 
glide-dock_SP_D22_pv

>  <s_m_subgroupid>  (2257) 
glide-dock_SP_D22_pv

>  <Molecule ChEMBL ID>  (2257) 
CHEMBL3265329

>  <Standard Type>  (2257) 
Ki

>  <Standard Value>  (2257) 
0.63

>  <label>  (2257) 
1

$$$$
CHEMBL3289969
     RDKit          3D

  0  0  0  0  0  0  0  0  0  0999 V3000
M  V30 BEGIN CTAB
M  V30 COUNTS 52 55 0 0 1
M  V30 BEGIN ATOM
M  V30 1 O 10.876842 2.759675 -14.237690 0
M  V30 2 S 9.890746 3.427971 -15.098975 0
M  V30 3 O 10.320886 4.139231 -16.311697 0
M  V30 4 N 9.023793 4.577168 -14.130239 0
M  V30 5 C 8.464467 4.214281 -12.821347 0
M  V30 6 C 8.362061 5.434580 -11.879925 0
M  V30 7 C 9.715366 5.769624 -11.230518 0
M  V30 8 N 9.665409 6.869998 -10.259546 0
M  V30 9 C 9.155691 6.380230 -8.964792 0
M  V30 10 C 9.242194 7.455678 -7.854331 0
M  V30 11 N 10.613725 7.937057 -7.724865 0
M  V30 12 C 10.881208 8.734293 -6.600355 0
M  V30 13 N 10.931344 10.061674 -6.610806 0
M  V30 14 O 11.286821 10.481859 -5.301575 0
M  V30 15 C 11.514790 9.372858 -4.504385 0
M  V30 16 C 11.946976 9.254699 -3.175230 0
M  V30 17 C 12.087175 7.954081 -2.646465 0
M  V30 18 C 11.782214 6.822778 -3.442759 0
M  V30 19 C 11.344465 6.970593 -4.780859 0
M  V30 20 C 11.227844 8.270276 -5.315063 0
M  V30 21 C 11.078382 8.480185 -8.995152 0
M  V30 22 C 11.025745 7.385189 -10.075394 0
M  V30 23 C 8.641957 2.225520 -15.571855 0
M  V30 24 C 8.157228 2.171886 -16.894768 0
M  V30 25 C 7.141563 1.253553 -17.230083 0
M  V30 26 C 6.608572 0.392952 -16.248720 0
M  V30 27 Cl 5.322489 -0.680050 -16.673941 0
M  V30 28 C 7.120486 0.428226 -14.932170 0
M  V30 29 Cl 6.484128 -0.602601 -13.701809 0
M  V30 30 C 8.151260 1.329769 -14.605533 0
M  V30 31 H 8.426529 5.189085 -14.683504 0
M  V30 32 H 7.475699 3.780534 -12.976686 0
M  V30 33 H 9.082582 3.440346 -12.362519 0
M  V30 34 H 7.964282 6.301601 -12.408788 0
M  V30 35 H 7.637797 5.202398 -11.098464 0
M  V30 36 H 10.085958 4.869674 -10.741203 0
M  V30 37 H 10.426153 6.012471 -12.023890 0
M  V30 38 H 8.116780 6.066836 -9.072733 0
M  V30 39 H 9.722794 5.502887 -8.650649 0
M  V30 40 H 8.570495 8.284947 -8.082934 0
M  V30 41 H 8.904478 7.034092 -6.907198 0
M  V30 42 H 12.164773 10.130452 -2.580647 0
M  V30 43 H 12.417498 7.822740 -1.627205 0
M  V30 44 H 11.885244 5.831382 -3.023559 0
M  V30 45 H 11.123280 6.105826 -5.389220 0
M  V30 46 H 10.468120 9.336233 -9.287920 0
M  V30 47 H 12.103745 8.837194 -8.889001 0
M  V30 48 H 11.685281 6.571104 -9.789216 0
M  V30 49 H 11.397251 7.787174 -11.019407 0
M  V30 50 H 8.547664 2.842947 -17.645521 0
M  V30 51 H 6.756458 1.216296 -18.238480 0
M  V30 52 H 8.555609 1.348994 -13.605307 0
M  V30 END ATOM
M  V30 BEGIN BOND
M  V30 1 2 2 1
M  V30 2 2 3 2
M  V30 3 1 4 2
M  V30 4 1 5 4
M  V30 5 1 6 5
M  V30 6 1 7 6
M  V30 7 1 8 7
M  V30 8 1 9 8
M  V30 9 1 10 9
M  V30 10 1 11 10
M  V30 11 1 12 11
M  V30 12 2 13 12
M  V30 13 1 14 13
M  V30 14 1 15 14
M  V30 15 2 16 15
M  V30 16 1 17 16
M  V30 17 2 18 17
M  V30 18 1 19 18
M  V30 19 1 20 12
M  V30 20 1 20 15
M  V30 21 2 20 19
M  V30 22 1 21 11
M  V30 23 1 22 8
M  V30 24 1 22 21
M  V30 25 1 23 2
M  V30 26 1 24 23
M  V30 27 2 25 24
M  V30 28 1 26 25
M  V30 29 1 27 26
M  V30 30 2 28 26
M  V30 31 1 29 28
M  V30 32 2 30 23
M  V30 33 1 30 28
M  V30 34 1 31 4
M  V30 35 1 32 5
M  V30 36 1 33 5
M  V30 37 1 34 6
M  V30 38 1 35 6
M  V30 39 1 36 7
M  V30 40 1 37 7
M  V30 41 1 38 9
M  V30 42 1 39 9
M  V30 43 1 40 10
M  V30 44 1 41 10
M  V30 45 1 42 16
M  V30 46 1 43 17
M  V30 47 1 44 18
M  V30 48 1 45 19
M  V30 49 1 46 21
M  V30 50 1 47 21
M  V30 51 1 48 22
M  V30 52 1 49 22
M  V30 53 1 50 24
M  V30 54 1 51 25
M  V30 55 1 52 30
M  V30 END BOND
M  V30 END CTAB
M  END
>  <b_m_subgroup_collapsed>  (2258) 
0

>  <r_i_docking_score>  (2258) 
-5.9359449986495303

>  <s_m_subgroup_title>  (2258) 
glide-dock_SP_D22_pv

>  <s_m_subgroupid>  (2258) 
glide-dock_SP_D22_pv

>  <Molecule ChEMBL ID>  (2258) 
CHEMBL3289969

>  <Standard Type>  (2258) 
Ki

>  <Standard Value>  (2258) 
10000.0

>  <label>  (2258) 
0

$$$$
CHEMBL592752
     RDKit          3D

  0  0  0  0  0  0  0  0  0  0999 V3000
M  V30 BEGIN CTAB
M  V30 COUNTS 48 51 0 0 1
M  V30 BEGIN ATOM
M  V30 1 C 6.222401 2.416858 -13.943251 0
M  V30 2 C 7.129697 3.520938 -13.446890 0
M  V30 3 C 6.733405 4.328076 -12.360845 0
M  V30 4 C 7.599339 5.327970 -11.877706 0
M  V30 5 C 8.855951 5.516021 -12.480996 0
M  V30 6 C 9.276223 4.711981 -13.585339 0
M  V30 7 C 8.390097 3.712480 -14.049672 0
M  V30 8 C 10.578823 5.149417 -13.983097 0
M  V30 9 C 10.914249 6.172269 -13.145020 0
M  V30 10 N 9.898368 6.407511 -12.220426 0
M  V30 11 C 9.908710 7.409793 -11.162154 0
M  V30 12 C 10.809448 6.970028 -9.997359 0
M  V30 13 C 10.681888 7.810716 -8.740999 0
M  V30 14 C 11.785279 8.546973 -8.256782 0
M  V30 15 C 11.687504 9.247963 -7.038198 0
M  V30 16 C 10.486642 9.223729 -6.306267 0
M  V30 17 C 9.378720 8.509146 -6.801530 0
M  V30 18 C 9.475722 7.801964 -8.011794 0
M  V30 19 C 12.207701 6.905272 -13.248335 0
M  V30 20 C 12.828428 6.698610 -14.644143 0
M  V30 21 N 12.821805 5.261322 -15.024827 0 CFG=2 CHG=1
M  V30 22 C 13.631991 4.990723 -16.234388 0
M  V30 23 C 11.448940 4.679771 -15.114285 0
M  V30 24 H 5.176995 2.691414 -13.808322 0
M  V30 25 H 6.402307 2.228888 -15.002115 0
M  V30 26 H 6.408211 1.490973 -13.397343 0
M  V30 27 H 5.775146 4.180969 -11.881155 0
M  V30 28 H 7.286998 5.943623 -11.045774 0
M  V30 29 H 8.688616 3.083344 -14.874207 0
M  V30 30 H 8.885806 7.554877 -10.810778 0
M  V30 31 H 10.225689 8.371488 -11.568543 0
M  V30 32 H 11.850245 6.973137 -10.322626 0
M  V30 33 H 10.564501 5.944631 -9.717798 0
M  V30 34 H 12.717686 8.563853 -8.804126 0
M  V30 35 H 12.538675 9.797858 -6.662777 0
M  V30 36 H 10.412536 9.764758 -5.374563 0
M  V30 37 H 8.449646 8.491106 -6.250672 0
M  V30 38 H 8.620708 7.243972 -8.368175 0
M  V30 39 H 12.084368 7.967666 -13.063308 0
M  V30 40 H 12.885115 6.540283 -12.481421 0
M  V30 41 H 13.844646 7.089120 -14.648069 0
M  V30 42 H 12.267234 7.267790 -15.389724 0
M  V30 43 H 13.195384 5.471438 -17.111443 0
M  V30 44 H 14.648598 5.367607 -16.111671 0
M  V30 45 H 13.686009 3.920156 -16.425327 0
M  V30 46 H 11.517430 3.588911 -15.126781 0
M  V30 47 H 10.997141 4.979292 -16.063719 0
M  V30 48 H 13.282961 4.794148 -14.257490 0
M  V30 END ATOM
M  V30 BEGIN BOND
M  V30 1 1 2 1
M  V30 2 1 3 2
M  V30 3 2 4 3
M  V30 4 1 5 4
M  V30 5 2 6 5
M  V30 6 2 7 2
M  V30 7 1 7 6
M  V30 8 1 8 6
M  V30 9 2 9 8
M  V30 10 1 10 5
M  V30 11 1 10 9
M  V30 12 1 11 10
M  V30 13 1 12 11
M  V30 14 1 13 12
M  V30 15 2 14 13
M  V30 16 1 15 14
M  V30 17 2 16 15
M  V30 18 1 17 16
M  V30 19 1 18 13
M  V30 20 2 18 17
M  V30 21 1 19 9
M  V30 22 1 20 19
M  V30 23 1 21 20
M  V30 24 1 22 21
M  V30 25 1 23 8
M  V30 26 1 23 21
M  V30 27 1 24 1
M  V30 28 1 25 1
M  V30 29 1 26 1
M  V30 30 1 27 3
M  V30 31 1 28 4
M  V30 32 1 29 7
M  V30 33 1 30 11
M  V30 34 1 31 11
M  V30 35 1 32 12
M  V30 36 1 33 12
M  V30 37 1 34 14
M  V30 38 1 35 15
M  V30 39 1 36 16
M  V30 40 1 37 17
M  V30 41 1 38 18
M  V30 42 1 39 19
M  V30 43 1 40 19
M  V30 44 1 41 20
M  V30 45 1 42 20
M  V30 46 1 43 22
M  V30 47 1 44 22
M  V30 48 1 45 22
M  V30 49 1 46 23
M  V30 50 1 47 23
M  V30 51 1 21 48 CFG=1
M  V30 END BOND
M  V30 END CTAB
M  END
>  <b_m_subgroup_collapsed>  (2259) 
0

>  <r_i_docking_score>  (2259) 
-5.9311422752762804

>  <s_m_subgroup_title>  (2259) 
glide-dock_SP_D22_pv

>  <s_m_subgroupid>  (2259) 
glide-dock_SP_D22_pv

>  <Molecule ChEMBL ID>  (2259) 
CHEMBL592752

>  <Standard Type>  (2259) 
Ki

>  <Standard Value>  (2259) 
85.11

>  <label>  (2259) 
1

$$$$
CHEMBL5273758
     RDKit          3D

  0  0  0  0  0  0  0  0  0  0999 V3000
M  V30 BEGIN CTAB
M  V30 COUNTS 43 46 0 0 1
M  V30 BEGIN ATOM
M  V30 1 C 6.031537 4.633060 -12.290132 0
M  V30 2 N 7.471578 4.489351 -11.960042 0 CFG=1 CHG=1
M  V30 3 C 8.229749 3.778314 -13.055365 0
M  V30 4 C 9.156406 4.663043 -13.907740 0
M  V30 5 C 10.086689 5.361792 -12.927932 0 CFG=1
M  V30 6 C 11.284740 6.107891 -13.485152 0
M  V30 7 C 11.841323 7.117194 -12.779442 0
M  V30 8 O 12.887355 7.772890 -13.283757 0
M  V30 9 C 11.315532 7.470878 -11.454986 0
M  V30 10 O 12.080716 8.124861 -10.572087 0
M  V30 11 C 10.063247 7.076941 -11.145263 0
M  V30 12 C 9.279870 7.108542 -9.848194 0 CFG=2
M  V30 13 C 10.000134 7.349090 -8.527326 0
M  V30 14 C 9.936532 8.633349 -7.945017 0
M  V30 15 C 10.544714 8.891027 -6.701884 0
M  V30 16 C 11.218561 7.858205 -6.025165 0
M  V30 17 C 11.285471 6.574871 -6.598653 0
M  V30 18 C 10.679572 6.320558 -7.843678 0
M  V30 19 C 8.495881 5.779897 -9.937552 0
M  V30 20 C 8.047953 5.760882 -11.410998 0 CFG=1
M  V30 21 C 9.227126 6.351321 -12.164263 0 CFG=2
M  V30 22 H 5.893646 5.286038 -13.154877 0
M  V30 23 H 5.481368 5.061505 -11.448905 0
M  V30 24 H 5.580326 3.665352 -12.513138 0
M  V30 25 H 8.886655 3.026002 -12.614686 0
M  V30 26 H 7.546535 3.217241 -13.698688 0
M  V30 27 H 9.724639 4.040883 -14.599890 0
M  V30 28 H 8.588262 5.372547 -14.511812 0
M  V30 29 H 10.489058 4.616393 -12.239664 0
M  V30 30 H 11.667070 5.808885 -14.451734 0
M  V30 31 H 13.190553 7.298201 -14.040887 0
M  V30 32 H 11.577695 8.218943 -9.776129 0
M  V30 33 H 8.564126 7.922851 -9.959060 0
M  V30 34 H 9.400616 9.423713 -8.447887 0
M  V30 35 H 10.486886 9.876431 -6.263496 0
M  V30 36 H 11.682109 8.049011 -5.068215 0
M  V30 37 H 11.805443 5.781231 -6.082782 0
M  V30 38 H 10.742540 5.327750 -8.261016 0
M  V30 39 H 9.137946 4.921275 -9.738697 0
M  V30 40 H 7.686315 5.763196 -9.216811 0
M  V30 41 H 7.284254 6.526644 -11.503018 0
M  V30 42 H 8.830126 7.098900 -12.849971 0
M  V30 43 H 7.470625 3.855249 -11.171906 0
M  V30 END ATOM
M  V30 BEGIN BOND
M  V30 1 1 2 1
M  V30 2 1 3 2
M  V30 3 1 4 3
M  V30 4 1 5 4
M  V30 5 1 6 5
M  V30 6 2 7 6
M  V30 7 1 8 7
M  V30 8 1 9 7
M  V30 9 1 10 9
M  V30 10 2 11 9
M  V30 11 1 12 11
M  V30 12 1 13 12
M  V30 13 2 14 13
M  V30 14 1 15 14
M  V30 15 2 16 15
M  V30 16 1 17 16
M  V30 17 1 18 13
M  V30 18 2 18 17
M  V30 19 1 19 12
M  V30 20 1 20 2
M  V30 21 1 20 19
M  V30 22 1 21 5
M  V30 23 1 21 11
M  V30 24 1 21 20
M  V30 25 1 22 1
M  V30 26 1 23 1
M  V30 27 1 24 1
M  V30 28 1 25 3
M  V30 29 1 26 3
M  V30 30 1 27 4
M  V30 31 1 28 4
M  V30 32 1 5 29 CFG=1
M  V30 33 1 30 6
M  V30 34 1 31 8
M  V30 35 1 32 10
M  V30 36 1 12 33 CFG=3
M  V30 37 1 34 14
M  V30 38 1 35 15
M  V30 39 1 36 16
M  V30 40 1 37 17
M  V30 41 1 38 18
M  V30 42 1 39 19
M  V30 43 1 40 19
M  V30 44 1 20 41 CFG=1
M  V30 45 1 21 42 CFG=3
M  V30 46 1 2 43 CFG=1
M  V30 END BOND
M  V30 END CTAB
M  END
>  <b_m_subgroup_collapsed>  (2260) 
0

>  <r_i_docking_score>  (2260) 
-5.9311115745421299

>  <s_m_subgroup_title>  (2260) 
glide-dock_SP_D22_pv

>  <s_m_subgroupid>  (2260) 
glide-dock_SP_D22_pv

>  <Molecule ChEMBL ID>  (2260) 
CHEMBL5273758

>  <Standard Type>  (2260) 
Ki

>  <Standard Value>  (2260) 
12.88

>  <label>  (2260) 
1

$$$$
CHEMBL3084513
     RDKit          3D

  0  0  0  0  0  0  0  0  0  0999 V3000
M  V30 BEGIN CTAB
M  V30 COUNTS 49 53 0 0 1
M  V30 BEGIN ATOM
M  V30 1 O 9.279367 -0.789538 -17.442533 0
M  V30 2 C 8.806566 0.450157 -16.958643 0 CFG=1
M  V30 3 C 7.443985 0.207876 -16.278028 0
M  V30 4 C 6.385582 -0.335996 -17.046862 0
M  V30 5 C 5.128061 -0.603336 -16.472101 0
M  V30 6 C 4.898952 -0.326762 -15.112734 0
M  V30 7 Cl 3.337713 -0.627675 -14.436844 0
M  V30 8 C 5.938913 0.209368 -14.324879 0
M  V30 9 Cl 5.676238 0.572276 -12.653543 0
M  V30 10 C 7.201878 0.467499 -14.902227 0
M  V30 11 C 9.927480 0.989467 -16.006834 0
M  V30 12 C 11.090693 1.719672 -16.733904 0 CFG=1
M  V30 13 C 11.812406 0.827922 -17.759298 0
M  V30 14 C 11.036358 1.050932 -19.075502 0
M  V30 15 C 9.935458 2.057747 -18.697664 0 CFG=1
M  V30 16 C 8.632051 1.367019 -18.210510 0
M  V30 17 N 10.562613 2.800068 -17.590679 0 CFG=1 CHG=1
M  V30 18 C 9.754360 3.878704 -16.966902 0
M  V30 19 C 10.589632 4.709884 -16.047218 0
M  V30 20 C 10.608292 4.562715 -14.680526 0
M  V30 21 S 11.632533 5.685359 -13.847044 0
M  V30 22 C 12.086070 6.443508 -15.361266 0
M  V30 23 C 12.921348 7.556459 -15.538858 0
M  V30 24 C 13.218145 8.016623 -16.833517 0
M  V30 25 C 12.654778 7.369057 -17.946556 0
M  V30 26 C 11.787484 6.273963 -17.761806 0
M  V30 27 C 11.470824 5.782178 -16.470177 0
M  V30 28 H 9.076685 -1.427754 -16.775055 0
M  V30 29 H 6.537119 -0.569833 -18.091959 0
M  V30 30 H 4.332777 -1.019296 -17.075586 0
M  V30 31 H 7.965404 0.859412 -14.250711 0
M  V30 32 H 9.521423 1.720121 -15.312015 0
M  V30 33 H 10.313721 0.187034 -15.375237 0
M  V30 34 H 11.800440 2.112757 -16.004910 0
M  V30 35 H 11.844328 -0.219804 -17.453100 0
M  V30 36 H 12.845325 1.153962 -17.884220 0
M  V30 37 H 10.634178 0.127866 -19.492071 0
M  V30 38 H 11.701683 1.476080 -19.829763 0
M  V30 39 H 9.716203 2.722200 -19.534962 0
M  V30 40 H 8.190369 0.802911 -19.033203 0
M  V30 41 H 7.900577 2.140344 -17.982937 0
M  V30 42 H 9.354548 4.511480 -17.760498 0
M  V30 43 H 8.885569 3.488726 -16.441652 0
M  V30 44 H 10.053132 3.846092 -14.089030 0
M  V30 45 H 13.324506 8.057177 -14.672441 0
M  V30 46 H 13.853588 8.878710 -16.979702 0
M  V30 47 H 12.870208 7.729307 -18.942257 0
M  V30 48 H 11.347132 5.817491 -18.634773 0
M  V30 49 H 11.367851 3.265277 -17.984804 0
M  V30 END ATOM
M  V30 BEGIN BOND
M  V30 1 1 2 1 CFG=3
M  V30 2 1 3 2
M  V30 3 1 4 3
M  V30 4 2 5 4
M  V30 5 1 6 5
M  V30 6 1 7 6
M  V30 7 2 8 6
M  V30 8 1 9 8
M  V30 9 2 10 3
M  V30 10 1 10 8
M  V30 11 1 11 2
M  V30 12 1 12 11
M  V30 13 1 13 12
M  V30 14 1 14 13
M  V30 15 1 15 14
M  V30 16 1 16 2
M  V30 17 1 16 15
M  V30 18 1 17 12
M  V30 19 1 17 15
M  V30 20 1 18 17
M  V30 21 1 19 18
M  V30 22 2 20 19
M  V30 23 1 21 20
M  V30 24 1 22 21
M  V30 25 2 23 22
M  V30 26 1 24 23
M  V30 27 2 25 24
M  V30 28 1 26 25
M  V30 29 1 27 19
M  V30 30 1 27 22
M  V30 31 2 27 26
M  V30 32 1 28 1
M  V30 33 1 29 4
M  V30 34 1 30 5
M  V30 35 1 31 10
M  V30 36 1 32 11
M  V30 37 1 33 11
M  V30 38 1 12 34 CFG=1
M  V30 39 1 35 13
M  V30 40 1 36 13
M  V30 41 1 37 14
M  V30 42 1 38 14
M  V30 43 1 15 39 CFG=3
M  V30 44 1 40 16
M  V30 45 1 41 16
M  V30 46 1 42 18
M  V30 47 1 43 18
M  V30 48 1 44 20
M  V30 49 1 45 23
M  V30 50 1 46 24
M  V30 51 1 47 25
M  V30 52 1 48 26
M  V30 53 1 17 49 CFG=3
M  V30 END BOND
M  V30 END CTAB
M  END
>  <b_m_subgroup_collapsed>  (2261) 
0

>  <r_i_docking_score>  (2261) 
-5.9303868698178004

>  <s_m_subgroup_title>  (2261) 
glide-dock_SP_D22_pv

>  <s_m_subgroupid>  (2261) 
glide-dock_SP_D22_pv

>  <Molecule ChEMBL ID>  (2261) 
CHEMBL3084513

>  <Standard Type>  (2261) 
Ki

>  <Standard Value>  (2261) 
29.8

>  <label>  (2261) 
1

$$$$
CHEMBL1169728
     RDKit          3D

  0  0  0  0  0  0  0  0  0  0999 V3000
M  V30 BEGIN CTAB
M  V30 COUNTS 54 58 0 0 1
M  V30 BEGIN ATOM
M  V30 1 C 10.677755 -0.285704 -17.573713 0
M  V30 2 N 10.320280 0.926101 -16.846945 0
M  V30 3 C 10.080227 2.184248 -17.536661 0
M  V30 4 N 10.184255 3.202244 -16.483606 0
M  V30 5 C 11.287723 4.066724 -16.621708 0
M  V30 6 C 11.077971 5.452997 -16.491644 0
M  V30 7 C 12.151041 6.358221 -16.603186 0
M  V30 8 C 13.444474 5.883374 -16.886108 0
M  V30 9 C 13.661254 4.502640 -17.048204 0
M  V30 10 C 12.592134 3.596341 -16.903715 0
M  V30 11 C 9.940696 2.528910 -15.193883 0 CFG=2
M  V30 12 C 8.452405 2.667425 -14.791786 0
M  V30 13 C 8.130252 4.068123 -14.246531 0
M  V30 14 N 8.918786 4.359203 -13.030038 0 CFG=2 CHG=1
M  V30 15 C 8.498571 5.628646 -12.381497 0
M  V30 16 C 9.002007 5.743573 -10.972091 0
M  V30 17 C 8.485720 5.006566 -9.936905 0
M  V30 18 S 9.109655 5.396444 -8.370698 0
M  V30 19 C 10.199381 6.574913 -9.067489 0
M  V30 20 C 11.134228 7.372441 -8.382265 0
M  V30 21 C 11.969645 8.240572 -9.102760 0
M  V30 22 C 11.846078 8.321408 -10.499428 0
M  V30 23 C 10.885805 7.544792 -11.177011 0
M  V30 24 C 10.036647 6.643363 -10.490216 0
M  V30 25 C 10.371172 4.310071 -13.318045 0
M  V30 26 C 10.807845 2.984297 -13.980964 0
M  V30 27 C 10.205584 1.062429 -15.526313 0
M  V30 28 O 10.312346 0.172386 -14.684755 0
M  V30 29 H 10.473423 -1.184548 -16.991545 0
M  V30 30 H 10.114915 -0.353913 -18.505283 0
M  V30 31 H 11.740938 -0.274795 -17.817192 0
M  V30 32 H 10.778491 2.324369 -18.364283 0
M  V30 33 H 9.073033 2.190638 -17.955244 0
M  V30 34 H 10.083924 5.818875 -16.293409 0
M  V30 35 H 11.982603 7.416577 -16.474932 0
M  V30 36 H 14.268045 6.576588 -16.977528 0
M  V30 37 H 14.654454 4.132500 -17.257584 0
M  V30 38 H 12.785069 2.538018 -17.004784 0
M  V30 39 H 8.197435 1.927902 -14.030298 0
M  V30 40 H 7.804485 2.450237 -15.642822 0
M  V30 41 H 7.062603 4.137030 -14.028998 0
M  V30 42 H 8.362635 4.829309 -14.992640 0
M  V30 43 H 7.408288 5.682817 -12.363467 0
M  V30 44 H 8.822663 6.477253 -12.985786 0
M  V30 45 H 7.687375 4.279201 -9.993297 0
M  V30 46 H 11.219850 7.298944 -7.307866 0
M  V30 47 H 12.703318 8.847530 -8.590289 0
M  V30 48 H 12.487909 8.994752 -11.049087 0
M  V30 49 H 10.803684 7.637375 -12.248782 0
M  V30 50 H 10.656334 5.165932 -13.926389 0
M  V30 51 H 10.886402 4.420683 -12.370946 0
M  V30 52 H 10.746855 2.211344 -13.216593 0
M  V30 53 H 11.865735 3.027686 -14.239605 0
M  V30 54 H 8.720858 3.621298 -12.368389 0
M  V30 END ATOM
M  V30 BEGIN BOND
M  V30 1 1 2 1
M  V30 2 1 3 2
M  V30 3 1 4 3
M  V30 4 1 5 4
M  V30 5 2 6 5
M  V30 6 1 7 6
M  V30 7 2 8 7
M  V30 8 1 9 8
M  V30 9 1 10 5
M  V30 10 2 10 9
M  V30 11 1 11 4 CFG=3
M  V30 12 1 12 11
M  V30 13 1 13 12
M  V30 14 1 14 13
M  V30 15 1 15 14
M  V30 16 1 16 15
M  V30 17 2 17 16
M  V30 18 1 18 17
M  V30 19 1 19 18
M  V30 20 2 20 19
M  V30 21 1 21 20
M  V30 22 2 22 21
M  V30 23 1 23 22
M  V30 24 1 24 16
M  V30 25 1 24 19
M  V30 26 2 24 23
M  V30 27 1 25 14
M  V30 28 1 26 11
M  V30 29 1 26 25
M  V30 30 1 27 2
M  V30 31 1 27 11
M  V30 32 2 28 27
M  V30 33 1 29 1
M  V30 34 1 30 1
M  V30 35 1 31 1
M  V30 36 1 32 3
M  V30 37 1 33 3
M  V30 38 1 34 6
M  V30 39 1 35 7
M  V30 40 1 36 8
M  V30 41 1 37 9
M  V30 42 1 38 10
M  V30 43 1 39 12
M  V30 44 1 40 12
M  V30 45 1 41 13
M  V30 46 1 42 13
M  V30 47 1 43 15
M  V30 48 1 44 15
M  V30 49 1 45 17
M  V30 50 1 46 20
M  V30 51 1 47 21
M  V30 52 1 48 22
M  V30 53 1 49 23
M  V30 54 1 50 25
M  V30 55 1 51 25
M  V30 56 1 52 26
M  V30 57 1 53 26
M  V30 58 1 14 54 CFG=1
M  V30 END BOND
M  V30 END CTAB
M  END
>  <b_m_subgroup_collapsed>  (2262) 
0

>  <r_i_docking_score>  (2262) 
-5.9301439722086098

>  <s_m_subgroup_title>  (2262) 
glide-dock_SP_D22_pv

>  <s_m_subgroupid>  (2262) 
glide-dock_SP_D22_pv

>  <Molecule ChEMBL ID>  (2262) 
CHEMBL1169728

>  <Standard Type>  (2262) 
Ki

>  <Standard Value>  (2262) 
71.4

>  <label>  (2262) 
1

$$$$
CHEMBL2432047
     RDKit          3D

  0  0  0  0  0  0  0  0  0  0999 V3000
M  V30 BEGIN CTAB
M  V30 COUNTS 40 45 0 0 1
M  V30 BEGIN ATOM
M  V30 1 C 8.616170 3.665290 -13.709578 0
M  V30 2 C 7.210014 3.600035 -13.675212 0
M  V30 3 N 6.438840 4.572309 -13.148518 0
M  V30 4 C 7.052599 5.661686 -12.640055 0
M  V30 5 C 8.456117 5.822497 -12.614388 0
M  V30 6 C 9.094483 7.060877 -12.010259 0
M  V30 7 N 8.886025 7.075484 -10.554833 0 CHG=1
M  V30 8 C 9.795279 7.916201 -9.756697 0 CFG=1
M  V30 9 C 9.200747 8.201157 -8.350161 0 CFG=2
M  V30 10 C 10.229533 8.915918 -7.375023 0 CFG=2
M  V30 11 C 11.585485 9.170933 -8.046203 0
M  V30 12 C 11.991046 7.772325 -8.403630 0 CFG=1
M  V30 13 C 11.466915 6.913105 -7.258828 0 CFG=1
M  V30 14 C 10.593081 7.793747 -6.381237 0 CFG=2
M  V30 15 C 9.286088 7.059824 -6.256202 0
M  V30 16 C 9.140694 6.779405 -7.733758 0 CFG=2
M  V30 17 C 10.486048 6.232102 -8.191631 0 CFG=1
M  V30 18 C 10.993900 7.084523 -9.360111 0 CFG=1
M  V30 19 C 9.251171 4.793601 -13.160454 0
M  V30 20 H 9.194219 2.857543 -14.133601 0
M  V30 21 H 6.691681 2.742441 -14.079083 0
M  V30 22 H 6.402253 6.428762 -12.245479 0
M  V30 23 H 10.161666 7.069419 -12.236843 0
M  V30 24 H 8.661325 7.961254 -12.448775 0
M  V30 25 H 7.916160 7.378510 -10.381003 0
M  V30 26 H 10.043436 8.830934 -10.296897 0
M  V30 27 H 8.239410 8.713396 -8.362363 0
M  V30 28 H 9.804320 9.772316 -6.875235 0
M  V30 29 H 11.511814 9.800157 -8.929000 0
M  V30 30 H 12.288544 9.622353 -7.344751 0
M  V30 31 H 13.041629 7.627294 -8.656164 0
M  V30 32 H 12.159752 6.226556 -6.772718 0
M  V30 33 H 11.055119 8.125084 -5.450529 0
M  V30 34 H 9.361326 6.172412 -5.635812 0
M  V30 35 H 8.486373 7.704276 -5.889402 0
M  V30 36 H 8.273448 6.178579 -8.014524 0
M  V30 37 H 10.600884 5.151053 -8.274812 0
M  V30 38 H 11.499912 6.572380 -10.171082 0
M  V30 39 H 10.329165 4.865021 -13.162598 0
M  V30 40 H 8.962276 6.132226 -10.204937 0
M  V30 END ATOM
M  V30 BEGIN BOND
M  V30 1 2 2 1
M  V30 2 1 3 2
M  V30 3 2 4 3
M  V30 4 1 5 4
M  V30 5 1 6 5
M  V30 6 1 7 6
M  V30 7 1 8 7
M  V30 8 1 9 8
M  V30 9 1 10 9
M  V30 10 1 11 10
M  V30 11 1 12 11
M  V30 12 1 13 12
M  V30 13 1 14 10
M  V30 14 1 14 13
M  V30 15 1 15 14
M  V30 16 1 16 9
M  V30 17 1 16 15
M  V30 18 1 17 13
M  V30 19 1 17 16
M  V30 20 1 18 8
M  V30 21 1 18 12
M  V30 22 1 18 17
M  V30 23 1 19 1
M  V30 24 2 19 5
M  V30 25 1 20 1
M  V30 26 1 21 2
M  V30 27 1 22 4
M  V30 28 1 23 6
M  V30 29 1 24 6
M  V30 30 1 25 7
M  V30 31 1 8 26 CFG=3
M  V30 32 1 9 27 CFG=3
M  V30 33 1 10 28 CFG=1
M  V30 34 1 29 11
M  V30 35 1 30 11
M  V30 36 1 12 31 CFG=3
M  V30 37 1 13 32 CFG=1
M  V30 38 1 14 33 CFG=1
M  V30 39 1 34 15
M  V30 40 1 35 15
M  V30 41 1 16 36 CFG=1
M  V30 42 1 17 37 CFG=3
M  V30 43 1 18 38 CFG=3
M  V30 44 1 39 19
M  V30 45 1 40 7
M  V30 END BOND
M  V30 END CTAB
M  END
>  <b_m_subgroup_collapsed>  (2263) 
0

>  <r_i_docking_score>  (2263) 
-5.9263268445322899

>  <s_m_subgroup_title>  (2263) 
glide-dock_SP_D22_pv

>  <s_m_subgroupid>  (2263) 
glide-dock_SP_D22_pv

>  <Molecule ChEMBL ID>  (2263) 
CHEMBL2432047

>  <Standard Type>  (2263) 
Ki

>  <Standard Value>  (2263) 
10000.0

>  <label>  (2263) 
0

$$$$
CHEMBL381573
     RDKit          3D

  0  0  0  0  0  0  0  0  0  0999 V3000
M  V30 BEGIN CTAB
M  V30 COUNTS 51 54 0 0 1
M  V30 BEGIN ATOM
M  V30 1 C 10.398266 6.063669 -18.306467 0
M  V30 2 N 11.660005 5.654119 -17.646482 0 CFG=2 CHG=1
M  V30 3 C 12.618632 6.790378 -17.546484 0
M  V30 4 C 13.533578 6.734971 -16.310175 0
M  V30 5 C 12.867940 7.042011 -14.946886 0
M  V30 6 C 11.885486 5.980568 -14.368568 0 CFG=2
M  V30 7 C 11.198429 6.394200 -13.063155 0
M  V30 8 C 11.743455 7.370105 -12.197252 0
M  V30 9 C 11.059381 7.748674 -11.023343 0
M  V30 10 C 9.830444 7.143217 -10.696959 0
M  V30 11 C 9.289115 6.154893 -11.540302 0
M  V30 12 C 9.969509 5.781281 -12.715407 0
M  V30 13 C 12.496572 4.565660 -14.233666 0
M  V30 14 C 11.686144 3.500204 -14.912407 0
M  V30 15 N 10.683454 2.816283 -14.247015 0
M  V30 16 C 10.075546 1.898507 -15.075358 0
M  V30 17 C 9.022331 0.993630 -14.865664 0
M  V30 18 C 8.604362 0.172633 -15.927525 0
M  V30 19 C 9.249447 0.257453 -17.178789 0
M  V30 20 C 10.311170 1.162938 -17.370598 0
M  V30 21 C 10.749468 2.008823 -16.323856 0
M  V30 22 C 11.777216 3.009244 -16.194202 0
M  V30 23 C 12.772700 3.413696 -17.241842 0
M  V30 24 C 12.216628 4.417139 -18.266335 0
M  V30 25 H 10.564392 6.276414 -19.363855 0
M  V30 26 H 9.975298 6.957573 -17.847145 0
M  V30 27 H 9.646888 5.274766 -18.227358 0
M  V30 28 H 13.218897 6.843403 -18.454773 0
M  V30 29 H 12.086371 7.740312 -17.509573 0
M  V30 30 H 14.115273 5.817727 -16.283308 0
M  V30 31 H 14.289008 7.507904 -16.458031 0
M  V30 32 H 13.682752 7.200346 -14.245025 0
M  V30 33 H 12.354269 8.000481 -15.021071 0
M  V30 34 H 11.064791 5.930539 -15.081654 0
M  V30 35 H 12.685172 7.848420 -12.414854 0
M  V30 36 H 11.474531 8.503432 -10.373866 0
M  V30 37 H 9.296125 7.437493 -9.806214 0
M  V30 38 H 8.341477 5.701485 -11.292119 0
M  V30 39 H 9.523851 5.046671 -13.364790 0
M  V30 40 H 13.512738 4.546887 -14.617863 0
M  V30 41 H 12.625234 4.319365 -13.178691 0
M  V30 42 H 10.460481 2.956227 -13.270747 0
M  V30 43 H 8.542508 0.930724 -13.898997 0
M  V30 44 H 7.797284 -0.529332 -15.784421 0
M  V30 45 H 8.927991 -0.380138 -17.990911 0
M  V30 46 H 10.797543 1.210206 -18.332100 0
M  V30 47 H 13.686644 3.787512 -16.783861 0
M  V30 48 H 13.096269 2.522043 -17.779562 0
M  V30 49 H 11.431954 3.903228 -18.823015 0
M  V30 50 H 12.977103 4.665495 -19.008694 0
M  V30 51 H 11.399201 5.401846 -16.704453 0
M  V30 END ATOM
M  V30 BEGIN BOND
M  V30 1 1 2 1
M  V30 2 1 3 2
M  V30 3 1 4 3
M  V30 4 1 5 4
M  V30 5 1 6 5
M  V30 6 1 7 6
M  V30 7 2 8 7
M  V30 8 1 9 8
M  V30 9 2 10 9
M  V30 10 1 11 10
M  V30 11 1 12 7
M  V30 12 2 12 11
M  V30 13 1 13 6
M  V30 14 1 14 13
M  V30 15 1 15 14
M  V30 16 1 16 15
M  V30 17 2 17 16
M  V30 18 1 18 17
M  V30 19 2 19 18
M  V30 20 1 20 19
M  V30 21 1 21 16
M  V30 22 2 21 20
M  V30 23 2 22 14
M  V30 24 1 22 21
M  V30 25 1 23 22
M  V30 26 1 24 2
M  V30 27 1 24 23
M  V30 28 1 25 1
M  V30 29 1 26 1
M  V30 30 1 27 1
M  V30 31 1 28 3
M  V30 32 1 29 3
M  V30 33 1 30 4
M  V30 34 1 31 4
M  V30 35 1 32 5
M  V30 36 1 33 5
M  V30 37 1 6 34 CFG=3
M  V30 38 1 35 8
M  V30 39 1 36 9
M  V30 40 1 37 10
M  V30 41 1 38 11
M  V30 42 1 39 12
M  V30 43 1 40 13
M  V30 44 1 41 13
M  V30 45 1 42 15
M  V30 46 1 43 17
M  V30 47 1 44 18
M  V30 48 1 45 19
M  V30 49 1 46 20
M  V30 50 1 47 23
M  V30 51 1 48 23
M  V30 52 1 49 24
M  V30 53 1 50 24
M  V30 54 1 2 51 CFG=1
M  V30 END BOND
M  V30 END CTAB
M  END
>  <b_m_subgroup_collapsed>  (2264) 
0

>  <r_i_docking_score>  (2264) 
-5.9245550032812204

>  <s_m_subgroup_title>  (2264) 
glide-dock_SP_D22_pv

>  <s_m_subgroupid>  (2264) 
glide-dock_SP_D22_pv

>  <Molecule ChEMBL ID>  (2264) 
CHEMBL381573

>  <Standard Type>  (2264) 
Ki

>  <Standard Value>  (2264) 
10000.0

>  <label>  (2264) 
0

$$$$
CHEMBL541559
     RDKit          3D

  0  0  0  0  0  0  0  0  0  0999 V3000
M  V30 BEGIN CTAB
M  V30 COUNTS 37 39 0 0 1
M  V30 BEGIN ATOM
M  V30 1 O 8.087488 7.039388 -12.246636 0
M  V30 2 C 7.987219 5.807579 -12.841852 0
M  V30 3 C 9.017248 5.372308 -13.693501 0
M  V30 4 C 8.929452 4.144718 -14.400369 0
M  V30 5 C 7.794733 3.316954 -14.192835 0
M  V30 6 C 6.777732 3.735769 -13.289335 0
M  V30 7 Br 5.286204 2.613444 -12.876192 0
M  V30 8 C 6.863084 4.987788 -12.647699 0
M  V30 9 O 5.844575 5.404093 -11.846926 0
M  V30 10 C 7.678078 1.982323 -14.929190 0
M  V30 11 C 8.761181 0.970738 -14.528609 0
M  V30 12 N 10.058926 1.191653 -15.198550 0 CHG=1
M  V30 13 C 10.785294 2.449573 -14.912385 0
M  V30 14 C 10.036926 3.718291 -15.381640 0 CFG=2
M  V30 15 C 11.007688 4.835727 -15.767508 0
M  V30 16 C 10.850578 5.487200 -17.012373 0
M  V30 17 C 11.730849 6.514528 -17.401285 0
M  V30 18 C 12.772218 6.908822 -16.543062 0
M  V30 19 C 12.934834 6.267260 -15.302131 0
M  V30 20 C 12.069041 5.225248 -14.917377 0
M  V30 21 H 7.420779 7.283584 -11.606576 0
M  V30 22 H 9.867444 6.023588 -13.808466 0
M  V30 23 H 6.084022 6.074850 -11.216574 0
M  V30 24 H 6.710201 1.519559 -14.758256 0
M  V30 25 H 7.697041 2.157260 -16.004633 0
M  V30 26 H 8.885571 0.941483 -13.447052 0
M  V30 27 H 8.431057 -0.027855 -14.824482 0
M  V30 28 H 10.665652 0.429379 -14.932870 0
M  V30 29 H 11.053985 2.513943 -13.856499 0
M  V30 30 H 11.724415 2.364892 -15.463485 0
M  V30 31 H 9.536791 3.464891 -16.316727 0
M  V30 32 H 10.048492 5.209854 -17.679504 0
M  V30 33 H 11.599634 7.010594 -18.351776 0
M  V30 34 H 13.441344 7.705553 -16.833267 0
M  V30 35 H 13.734553 6.574575 -14.647184 0
M  V30 36 H 12.208528 4.750970 -13.956334 0
M  V30 37 H 9.907983 1.137821 -16.196823 0
M  V30 END ATOM
M  V30 BEGIN BOND
M  V30 1 1 2 1
M  V30 2 2 3 2
M  V30 3 1 4 3
M  V30 4 2 5 4
M  V30 5 1 6 5
M  V30 6 1 7 6
M  V30 7 1 8 2
M  V30 8 2 8 6
M  V30 9 1 9 8
M  V30 10 1 10 5
M  V30 11 1 11 10
M  V30 12 1 12 11
M  V30 13 1 13 12
M  V30 14 1 14 4
M  V30 15 1 14 13
M  V30 16 1 15 14
M  V30 17 2 16 15
M  V30 18 1 17 16
M  V30 19 2 18 17
M  V30 20 1 19 18
M  V30 21 1 20 15
M  V30 22 2 20 19
M  V30 23 1 21 1
M  V30 24 1 22 3
M  V30 25 1 23 9
M  V30 26 1 24 10
M  V30 27 1 25 10
M  V30 28 1 26 11
M  V30 29 1 27 11
M  V30 30 1 28 12
M  V30 31 1 29 13
M  V30 32 1 30 13
M  V30 33 1 14 31 CFG=3
M  V30 34 1 32 16
M  V30 35 1 33 17
M  V30 36 1 34 18
M  V30 37 1 35 19
M  V30 38 1 36 20
M  V30 39 1 37 12
M  V30 END BOND
M  V30 END CTAB
M  END
>  <b_m_subgroup_collapsed>  (2265) 
0

>  <r_i_docking_score>  (2265) 
-5.9220346351777797

>  <s_m_subgroup_title>  (2265) 
glide-dock_SP_D22_pv

>  <s_m_subgroupid>  (2265) 
glide-dock_SP_D22_pv

>  <Molecule ChEMBL ID>  (2265) 
CHEMBL541559

>  <Standard Type>  (2265) 
Ki

>  <Standard Value>  (2265) 
39.0

>  <label>  (2265) 
1

$$$$
CHEMBL3085215
     RDKit          3D

  0  0  0  0  0  0  0  0  0  0999 V3000
M  V30 BEGIN CTAB
M  V30 COUNTS 46 47 0 0 1
M  V30 BEGIN ATOM
M  V30 1 C 11.716833 9.904492 -6.492574 0
M  V30 2 C 11.553555 9.018064 -7.739681 0
M  V30 3 C 10.120819 9.050082 -8.346817 0
M  V30 4 N 9.569749 7.758419 -8.861043 0 CFG=2 CHG=1
M  V30 5 C 8.966283 6.917812 -7.761225 0
M  V30 6 C 9.852584 6.681844 -6.525159 0
M  V30 7 C 8.352427 5.594215 -8.220029 0
M  V30 8 C 10.318107 7.099305 -10.003086 0 CFG=2
M  V30 9 C 11.146529 8.072502 -10.881185 0
M  V30 10 O 11.922295 7.373845 -11.839272 0
M  V30 11 C 11.218493 6.572228 -12.697845 0
M  V30 12 C 11.850739 6.172612 -13.889070 0
M  V30 13 C 11.190738 5.318489 -14.787245 0
M  V30 14 C 9.888237 4.873911 -14.500272 0
M  V30 15 C 9.225557 5.269866 -13.314184 0
M  V30 16 C 7.843420 4.734139 -13.112336 0
M  V30 17 C 6.777547 5.665257 -12.539470 0
M  V30 18 O 7.502962 3.610074 -13.477267 0
M  V30 19 C 9.923378 6.092101 -12.378463 0
M  V30 20 C 9.345996 6.422678 -11.006041 0
M  V30 21 H 12.725824 9.808617 -6.085279 0
M  V30 22 H 11.564599 10.959270 -6.718038 0
M  V30 23 H 11.016017 9.636617 -5.701702 0
M  V30 24 H 11.872581 8.002937 -7.509857 0
M  V30 25 H 12.283436 9.372292 -8.459938 0
M  V30 26 H 10.081502 9.772346 -9.157348 0
M  V30 27 H 9.417945 9.429743 -7.605866 0
M  V30 28 H 8.127730 7.512174 -7.396594 0
M  V30 29 H 9.282955 6.171490 -5.753959 0
M  V30 30 H 10.735248 6.086934 -6.754753 0
M  V30 31 H 10.159899 7.603501 -6.041034 0
M  V30 32 H 7.729839 5.156930 -7.445893 0
M  V30 33 H 7.685885 5.769994 -9.058193 0
M  V30 34 H 9.107166 4.857561 -8.495046 0
M  V30 35 H 11.003551 6.362518 -9.584661 0
M  V30 36 H 10.485865 8.772217 -11.398406 0
M  V30 37 H 11.866851 8.661922 -10.333506 0
M  V30 38 H 12.850202 6.519164 -14.106923 0
M  V30 39 H 11.679597 5.007776 -15.698467 0
M  V30 40 H 9.391309 4.226123 -15.208460 0
M  V30 41 H 6.997960 6.706904 -12.774095 0
M  V30 42 H 5.803910 5.424963 -12.967175 0
M  V30 43 H 6.706295 5.554563 -11.458237 0
M  V30 44 H 8.486526 7.076648 -11.145992 0
M  V30 45 H 9.008138 5.460966 -10.638463 0
M  V30 46 H 8.725633 8.064655 -9.332086 0
M  V30 END ATOM
M  V30 BEGIN BOND
M  V30 1 1 2 1
M  V30 2 1 3 2
M  V30 3 1 4 3
M  V30 4 1 5 4
M  V30 5 1 6 5
M  V30 6 1 7 5
M  V30 7 1 8 4
M  V30 8 1 9 8
M  V30 9 1 10 9
M  V30 10 1 11 10
M  V30 11 1 12 11
M  V30 12 2 13 12
M  V30 13 1 14 13
M  V30 14 2 15 14
M  V30 15 1 16 15
M  V30 16 1 17 16
M  V30 17 2 18 16
M  V30 18 2 19 11
M  V30 19 1 19 15
M  V30 20 1 20 8
M  V30 21 1 20 19
M  V30 22 1 21 1
M  V30 23 1 22 1
M  V30 24 1 23 1
M  V30 25 1 24 2
M  V30 26 1 25 2
M  V30 27 1 26 3
M  V30 28 1 27 3
M  V30 29 1 28 5
M  V30 30 1 29 6
M  V30 31 1 30 6
M  V30 32 1 31 6
M  V30 33 1 32 7
M  V30 34 1 33 7
M  V30 35 1 34 7
M  V30 36 1 8 35 CFG=1
M  V30 37 1 36 9
M  V30 38 1 37 9
M  V30 39 1 38 12
M  V30 40 1 39 13
M  V30 41 1 40 14
M  V30 42 1 41 17
M  V30 43 1 42 17
M  V30 44 1 43 17
M  V30 45 1 44 20
M  V30 46 1 45 20
M  V30 47 1 4 46 CFG=3
M  V30 END BOND
M  V30 END CTAB
M  END
>  <b_m_subgroup_collapsed>  (2266) 
0

>  <r_i_docking_score>  (2266) 
-5.92079382489234

>  <s_m_subgroup_title>  (2266) 
glide-dock_SP_D22_pv

>  <s_m_subgroupid>  (2266) 
glide-dock_SP_D22_pv

>  <Molecule ChEMBL ID>  (2266) 
CHEMBL3085215

>  <Standard Type>  (2266) 
Ki

>  <Standard Value>  (2266) 
30100.0

>  <label>  (2266) 
0

$$$$
CHEMBL4090568
     RDKit          3D

  0  0  0  0  0  0  0  0  0  0999 V3000
M  V30 BEGIN CTAB
M  V30 COUNTS 53 57 0 0 1
M  V30 BEGIN ATOM
M  V30 1 O 4.084953 -0.227745 -13.446897 0
M  V30 2 C 4.778029 -0.279847 -14.464749 0
M  V30 3 C 4.380046 -1.228786 -15.604723 0
M  V30 4 O 4.609538 -0.649645 -16.887894 0
M  V30 5 C 5.804599 0.007093 -17.054319 0
M  V30 6 C 6.309540 0.165166 -18.359583 0
M  V30 7 C 7.510500 0.865048 -18.574673 0
M  V30 8 C 8.200359 1.420687 -17.482430 0
M  V30 9 C 7.690642 1.282420 -16.177147 0
M  V30 10 C 6.486005 0.572308 -15.944459 0
M  V30 11 N 5.892503 0.467058 -14.640369 0
M  V30 12 C 6.382612 1.273886 -13.509459 0
M  V30 13 C 5.769174 2.686061 -13.532491 0
M  V30 14 C 6.177927 3.615440 -12.380079 0
M  V30 15 N 7.170688 4.602245 -12.804853 0
M  V30 16 C 7.019149 5.788957 -11.956281 0
M  V30 17 C 8.022622 6.868172 -12.390423 0
M  V30 18 N 9.368095 6.347456 -12.235744 0
M  V30 19 C 10.368190 7.026286 -11.513170 0
M  V30 20 N 11.483211 7.372159 -12.120653 0
M  V30 21 S 12.486012 8.172295 -11.046811 0
M  V30 22 C 11.432448 8.022936 -9.666770 0
M  V30 23 C 11.619298 8.456730 -8.341096 0
M  V30 24 C 10.618092 8.210328 -7.385435 0
M  V30 25 C 9.449617 7.526419 -7.767087 0
M  V30 26 C 9.285957 7.090554 -9.097752 0
M  V30 27 C 10.259930 7.334586 -10.093830 0
M  V30 28 C 9.602240 5.141176 -13.013580 0
M  V30 29 C 8.538085 4.080842 -12.646057 0
M  V30 30 H 3.324792 -1.491019 -15.520089 0
M  V30 31 H 4.950933 -2.153883 -15.516870 0
M  V30 32 H 5.773037 -0.255329 -19.197296 0
M  V30 33 H 7.900086 0.976706 -19.575840 0
M  V30 34 H 9.119504 1.964639 -17.645252 0
M  V30 35 H 8.244917 1.748737 -15.378797 0
M  V30 36 H 6.127470 0.797784 -12.560627 0
M  V30 37 H 7.467197 1.296404 -13.510829 0
M  V30 38 H 5.947169 3.173330 -14.492526 0
M  V30 39 H 4.690657 2.560872 -13.446924 0
M  V30 40 H 5.272350 4.149010 -12.088023 0
M  V30 41 H 6.485889 3.073490 -11.486070 0
M  V30 42 H 6.007633 6.186628 -12.047095 0
M  V30 43 H 7.166373 5.529713 -10.908380 0
M  V30 44 H 7.853891 7.112437 -13.439757 0
M  V30 45 H 7.893806 7.800338 -11.845648 0
M  V30 46 H 12.527567 8.972034 -8.062767 0
M  V30 47 H 10.745470 8.540268 -6.365154 0
M  V30 48 H 8.668942 7.335917 -7.043304 0
M  V30 49 H 8.376681 6.572716 -9.363753 0
M  V30 50 H 9.552828 5.380646 -14.076427 0
M  V30 51 H 10.602074 4.753010 -12.817636 0
M  V30 52 H 8.693475 3.772408 -11.611820 0
M  V30 53 H 8.677336 3.199619 -13.271235 0
M  V30 END ATOM
M  V30 BEGIN BOND
M  V30 1 2 2 1
M  V30 2 1 3 2
M  V30 3 1 4 3
M  V30 4 1 5 4
M  V30 5 2 6 5
M  V30 6 1 7 6
M  V30 7 2 8 7
M  V30 8 1 9 8
M  V30 9 1 10 5
M  V30 10 2 10 9
M  V30 11 1 11 2
M  V30 12 1 11 10
M  V30 13 1 12 11
M  V30 14 1 13 12
M  V30 15 1 14 13
M  V30 16 1 15 14
M  V30 17 1 16 15
M  V30 18 1 17 16
M  V30 19 1 18 17
M  V30 20 1 19 18
M  V30 21 2 20 19
M  V30 22 1 21 20
M  V30 23 1 22 21
M  V30 24 2 23 22
M  V30 25 1 24 23
M  V30 26 2 25 24
M  V30 27 1 26 25
M  V30 28 1 27 19
M  V30 29 1 27 22
M  V30 30 2 27 26
M  V30 31 1 28 18
M  V30 32 1 29 15
M  V30 33 1 29 28
M  V30 34 1 30 3
M  V30 35 1 31 3
M  V30 36 1 32 6
M  V30 37 1 33 7
M  V30 38 1 34 8
M  V30 39 1 35 9
M  V30 40 1 36 12
M  V30 41 1 37 12
M  V30 42 1 38 13
M  V30 43 1 39 13
M  V30 44 1 40 14
M  V30 45 1 41 14
M  V30 46 1 42 16
M  V30 47 1 43 16
M  V30 48 1 44 17
M  V30 49 1 45 17
M  V30 50 1 46 23
M  V30 51 1 47 24
M  V30 52 1 48 25
M  V30 53 1 49 26
M  V30 54 1 50 28
M  V30 55 1 51 28
M  V30 56 1 52 29
M  V30 57 1 53 29
M  V30 END BOND
M  V30 END CTAB
M  END
>  <b_m_subgroup_collapsed>  (2267) 
0

>  <r_i_docking_score>  (2267) 
-5.9203091980806102

>  <s_m_subgroup_title>  (2267) 
glide-dock_SP_D22_pv

>  <s_m_subgroupid>  (2267) 
glide-dock_SP_D22_pv

>  <Molecule ChEMBL ID>  (2267) 
CHEMBL4090568

>  <Standard Type>  (2267) 
Ki

>  <Standard Value>  (2267) 
17.7

>  <label>  (2267) 
1

$$$$
CHEMBL1794855
     RDKit          3D

  0  0  0  0  0  0  0  0  0  0999 V3000
M  V30 BEGIN CTAB
M  V30 COUNTS 33 34 0 0 1
M  V30 BEGIN ATOM
M  V30 1 C 6.451147 4.324484 -13.135486 0
M  V30 2 C 6.691049 5.074881 -11.816015 0
M  V30 3 N 7.699238 6.170689 -11.845746 0 CFG=2 CHG=1
M  V30 4 C 7.356984 7.363517 -12.651244 0
M  V30 5 C 9.138270 5.752223 -11.842494 0 CFG=1
M  V30 6 C 9.672927 5.314468 -13.241570 0
M  V30 7 C 11.161588 5.583594 -13.520618 0
M  V30 8 C 11.638865 6.970605 -13.065824 0
M  V30 9 C 11.184634 7.324193 -11.662309 0
M  V30 10 C 11.976787 8.172740 -10.864495 0
M  V30 11 C 11.558517 8.460798 -9.553768 0
M  V30 12 N 10.439209 7.946832 -9.009931 0
M  V30 13 C 9.693027 7.117956 -9.767447 0
M  V30 14 C 10.009751 6.768948 -11.101448 0
M  V30 15 H 5.704151 3.543957 -12.982943 0
M  V30 16 H 6.063966 4.972127 -13.916013 0
M  V30 17 H 7.344991 3.829773 -13.508928 0
M  V30 18 H 6.982229 4.357167 -11.047400 0
M  V30 19 H 5.748852 5.499237 -11.463063 0
M  V30 20 H 7.685911 7.272496 -13.676489 0
M  V30 21 H 6.282940 7.554235 -12.646230 0
M  V30 22 H 7.846819 8.246458 -12.240476 0
M  V30 23 H 9.208558 4.867435 -11.206677 0
M  V30 24 H 9.111444 5.773730 -14.048502 0
M  V30 25 H 9.494348 4.247823 -13.372688 0
M  V30 26 H 11.361803 5.465991 -14.586210 0
M  V30 27 H 11.763638 4.812096 -13.046206 0
M  V30 28 H 11.286057 7.742382 -13.747706 0
M  V30 29 H 12.728563 7.008363 -13.114158 0
M  V30 30 H 12.888896 8.610133 -11.244987 0
M  V30 31 H 12.142442 9.113694 -8.922550 0
M  V30 32 H 8.818181 6.704962 -9.287189 0
M  V30 33 H 7.545413 6.559752 -10.917851 0
M  V30 END ATOM
M  V30 BEGIN BOND
M  V30 1 1 2 1
M  V30 2 1 3 2
M  V30 3 1 4 3
M  V30 4 1 5 3
M  V30 5 1 6 5
M  V30 6 1 7 6
M  V30 7 1 8 7
M  V30 8 1 9 8
M  V30 9 1 10 9
M  V30 10 2 11 10
M  V30 11 1 12 11
M  V30 12 2 13 12
M  V30 13 1 14 5
M  V30 14 2 14 9
M  V30 15 1 14 13
M  V30 16 1 15 1
M  V30 17 1 16 1
M  V30 18 1 17 1
M  V30 19 1 18 2
M  V30 20 1 19 2
M  V30 21 1 20 4
M  V30 22 1 21 4
M  V30 23 1 22 4
M  V30 24 1 5 23 CFG=1
M  V30 25 1 24 6
M  V30 26 1 25 6
M  V30 27 1 26 7
M  V30 28 1 27 7
M  V30 29 1 28 8
M  V30 30 1 29 8
M  V30 31 1 30 10
M  V30 32 1 31 11
M  V30 33 1 32 13
M  V30 34 1 3 33 CFG=1
M  V30 END BOND
M  V30 END CTAB
M  END
>  <b_m_subgroup_collapsed>  (2268) 
0

>  <r_i_docking_score>  (2268) 
-5.9198087968243698

>  <s_m_subgroup_title>  (2268) 
glide-dock_SP_D22_pv

>  <s_m_subgroupid>  (2268) 
glide-dock_SP_D22_pv

>  <Molecule ChEMBL ID>  (2268) 
CHEMBL1794855

>  <Standard Type>  (2268) 
Ki

>  <Standard Value>  (2268) 
10000.0

>  <label>  (2268) 
0

$$$$
CHEMBL1672288
     RDKit          3D

  0  0  0  0  0  0  0  0  0  0999 V3000
M  V30 BEGIN CTAB
M  V30 COUNTS 21 22 0 0 1
M  V30 BEGIN ATOM
M  V30 1 N 12.484923 7.546729 -13.804439 0
M  V30 2 C 11.768237 7.294829 -12.931114 0
M  V30 3 C 10.866263 6.972927 -11.833940 0
M  V30 4 C 9.741873 6.155957 -12.071811 0
M  V30 5 C 8.903691 5.776978 -11.005761 0
M  V30 6 F 7.843152 4.972158 -11.241574 0
M  V30 7 C 9.185719 6.215899 -9.697339 0
M  V30 8 C 10.300651 7.043179 -9.450705 0
M  V30 9 C 10.606073 7.465473 -8.090003 0
M  V30 10 C 10.889821 7.773606 -6.941657 0
M  V30 11 C 11.286666 8.107196 -5.616887 0
M  V30 12 C 11.384549 9.375417 -5.089031 0
M  V30 13 S 12.010362 9.368410 -3.457211 0
M  V30 14 C 12.085202 7.621817 -3.555721 0
M  V30 15 F 12.487162 6.928795 -2.514799 0
M  V30 16 N 11.685915 7.108669 -4.716033 0
M  V30 17 C 11.136409 7.429371 -10.521928 0
M  V30 18 H 9.524636 5.801090 -13.068660 0
M  V30 19 H 8.532922 5.921644 -8.887843 0
M  V30 20 H 11.154837 10.312171 -5.573171 0
M  V30 21 H 12.005610 8.045742 -10.332791 0
M  V30 END ATOM
M  V30 BEGIN BOND
M  V30 1 3 2 1
M  V30 2 1 3 2
M  V30 3 1 4 3
M  V30 4 2 5 4
M  V30 5 1 6 5
M  V30 6 1 7 5
M  V30 7 2 8 7
M  V30 8 1 9 8
M  V30 9 3 10 9
M  V30 10 1 11 10
M  V30 11 2 12 11
M  V30 12 1 13 12
M  V30 13 1 14 13
M  V30 14 1 15 14
M  V30 15 1 16 11
M  V30 16 2 16 14
M  V30 17 2 17 3
M  V30 18 1 17 8
M  V30 19 1 18 4
M  V30 20 1 19 7
M  V30 21 1 20 12
M  V30 22 1 21 17
M  V30 END BOND
M  V30 END CTAB
M  END
>  <b_m_subgroup_collapsed>  (2269) 
0

>  <r_i_docking_score>  (2269) 
-5.9158252141569703

>  <s_m_subgroup_title>  (2269) 
glide-dock_SP_D22_pv

>  <s_m_subgroupid>  (2269) 
glide-dock_SP_D22_pv

>  <Molecule ChEMBL ID>  (2269) 
CHEMBL1672288

>  <Standard Type>  (2269) 
Ki

>  <Standard Value>  (2269) 
10000.0

>  <label>  (2269) 
0

$$$$
CHEMBL394777
     RDKit          3D

  0  0  0  0  0  0  0  0  0  0999 V3000
M  V30 BEGIN CTAB
M  V30 COUNTS 43 46 0 0 1
M  V30 BEGIN ATOM
M  V30 1 C 8.484788 5.695735 -7.742766 0
M  V30 2 O 9.434260 6.724351 -7.957294 0
M  V30 3 C 9.928124 6.876540 -9.234008 0
M  V30 4 C 9.607880 6.013371 -10.311442 0
M  V30 5 C 10.163334 6.199631 -11.597100 0
M  V30 6 C 11.075870 7.262887 -11.794723 0
M  V30 7 C 11.394741 8.132284 -10.729539 0
M  V30 8 C 10.827620 7.937167 -9.457573 0
M  V30 9 Cl 11.285854 8.972283 -8.153774 0
M  V30 10 C 11.816046 7.372234 -13.108549 0
M  V30 11 C 12.024120 5.990201 -13.712561 0
M  V30 12 N 10.736922 5.278399 -13.927526 0 CFG=1 CHG=1
M  V30 13 C 11.026435 3.985498 -14.609477 0
M  V30 14 C 9.800474 3.280649 -15.197820 0
M  V30 15 C 8.867187 2.703883 -14.131396 0
M  V30 16 C 7.925704 3.757016 -13.581008 0
M  V30 17 C 6.538260 3.525326 -13.689265 0
M  V30 18 C 5.621261 4.469497 -13.205063 0
M  V30 19 C 6.085971 5.671508 -12.646970 0
M  V30 20 C 7.464120 5.923142 -12.569145 0
M  V30 21 C 8.406731 4.949287 -12.980723 0
M  V30 22 C 9.901720 5.139432 -12.685137 0 CFG=2
M  V30 23 H 8.074213 5.781260 -6.737285 0
M  V30 24 H 8.941340 4.711004 -7.846922 0
M  V30 25 H 7.658678 5.771323 -8.443821 0
M  V30 26 H 8.948138 5.170552 -10.169176 0
M  V30 27 H 12.111605 8.929504 -10.869484 0
M  V30 28 H 11.286114 8.014016 -13.810038 0
M  V30 29 H 12.789172 7.836467 -12.939700 0
M  V30 30 H 12.560252 6.099377 -14.656913 0
M  V30 31 H 12.661040 5.395241 -13.054786 0
M  V30 32 H 11.710694 4.171259 -15.439047 0
M  V30 33 H 11.558051 3.315566 -13.931446 0
M  V30 34 H 9.260053 3.927499 -15.889742 0
M  V30 35 H 10.168189 2.447619 -15.798270 0
M  V30 36 H 8.281326 1.899673 -14.579103 0
M  V30 37 H 9.430767 2.240447 -13.323061 0
M  V30 38 H 6.165103 2.615501 -14.137002 0
M  V30 39 H 4.561680 4.273959 -13.281436 0
M  V30 40 H 5.390013 6.411996 -12.278646 0
M  V30 41 H 7.766553 6.859324 -12.122080 0
M  V30 42 H 10.227720 4.217140 -12.201202 0
M  V30 43 H 10.198476 5.847870 -14.564316 0
M  V30 END ATOM
M  V30 BEGIN BOND
M  V30 1 1 2 1
M  V30 2 1 3 2
M  V30 3 2 4 3
M  V30 4 1 5 4
M  V30 5 2 6 5
M  V30 6 1 7 6
M  V30 7 1 8 3
M  V30 8 2 8 7
M  V30 9 1 9 8
M  V30 10 1 10 6
M  V30 11 1 11 10
M  V30 12 1 12 11
M  V30 13 1 13 12
M  V30 14 1 14 13
M  V30 15 1 15 14
M  V30 16 1 16 15
M  V30 17 2 17 16
M  V30 18 1 18 17
M  V30 19 2 19 18
M  V30 20 1 20 19
M  V30 21 1 21 16
M  V30 22 2 21 20
M  V30 23 1 22 5
M  V30 24 1 22 12
M  V30 25 1 22 21
M  V30 26 1 23 1
M  V30 27 1 24 1
M  V30 28 1 25 1
M  V30 29 1 26 4
M  V30 30 1 27 7
M  V30 31 1 28 10
M  V30 32 1 29 10
M  V30 33 1 30 11
M  V30 34 1 31 11
M  V30 35 1 32 13
M  V30 36 1 33 13
M  V30 37 1 34 14
M  V30 38 1 35 14
M  V30 39 1 36 15
M  V30 40 1 37 15
M  V30 41 1 38 17
M  V30 42 1 39 18
M  V30 43 1 40 19
M  V30 44 1 41 20
M  V30 45 1 22 42 CFG=1
M  V30 46 1 12 43 CFG=3
M  V30 END BOND
M  V30 END CTAB
M  END
>  <b_m_subgroup_collapsed>  (2270) 
0

>  <r_i_docking_score>  (2270) 
-5.9127222236117998

>  <s_m_subgroup_title>  (2270) 
glide-dock_SP_D22_pv

>  <s_m_subgroupid>  (2270) 
glide-dock_SP_D22_pv

>  <Molecule ChEMBL ID>  (2270) 
CHEMBL394777

>  <Standard Type>  (2270) 
Ki

>  <Standard Value>  (2270) 
10000.0

>  <label>  (2270) 
0

$$$$
CHEMBL5880427
     RDKit          3D

  0  0  0  0  0  0  0  0  0  0999 V3000
M  V30 BEGIN CTAB
M  V30 COUNTS 45 47 0 0 1
M  V30 BEGIN ATOM
M  V30 1 C 7.597497 6.349308 -12.627922 0
M  V30 2 C 8.840833 6.028886 -11.771799 0 CFG=2
M  V30 3 O 9.972590 5.719185 -12.593980 0
M  V30 4 C 10.029218 4.589201 -13.386933 0
M  V30 5 C 9.048387 3.573094 -13.448287 0
M  V30 6 C 9.266316 2.457470 -14.278695 0
M  V30 7 N 10.364331 2.312837 -15.049729 0
M  V30 8 C 11.288495 3.292353 -15.009767 0
M  V30 9 C 11.171385 4.433859 -14.195477 0
M  V30 10 C 8.595599 4.976364 -10.663383 0
M  V30 11 C 8.738177 5.728559 -9.338913 0
M  V30 12 N 9.682355 6.813068 -9.642047 0 CFG=2 CHG=1
M  V30 13 C 9.772503 7.884684 -8.621034 0
M  V30 14 C 10.399177 7.392435 -7.304247 0
M  V30 15 O 10.734138 8.523608 -6.516905 0
M  V30 16 C 11.284474 8.323277 -5.268416 0
M  V30 17 C 11.562928 9.476348 -4.509389 0
M  V30 18 C 12.085881 9.372829 -3.205605 0
M  V30 19 C 12.349875 8.111324 -2.648151 0
M  V30 20 C 12.086111 6.954741 -3.399348 0
M  V30 21 C 11.553279 7.053004 -4.700957 0
M  V30 22 C 9.303931 7.281084 -10.988478 0
M  V30 23 H 6.736853 6.562151 -11.993178 0
M  V30 24 H 7.765294 7.222394 -13.256496 0
M  V30 25 H 7.302504 5.536234 -13.281354 0
M  V30 26 H 8.143982 3.602868 -12.868139 0
M  V30 27 H 8.538283 1.659665 -14.326548 0
M  V30 28 H 12.157129 3.155881 -15.638492 0
M  V30 29 H 11.949392 5.181394 -14.193182 0
M  V30 30 H 7.618705 4.497325 -10.742051 0
M  V30 31 H 9.344378 4.182642 -10.708478 0
M  V30 32 H 7.777723 6.158234 -9.047978 0
M  V30 33 H 9.084267 5.082347 -8.533185 0
M  V30 34 H 10.391540 8.683187 -9.032894 0
M  V30 35 H 8.787403 8.318275 -8.440474 0
M  V30 36 H 9.696103 6.750032 -6.772637 0
M  V30 37 H 11.299026 6.814507 -7.517592 0
M  V30 38 H 11.361174 10.452626 -4.926439 0
M  V30 39 H 12.284339 10.269535 -2.638059 0
M  V30 40 H 12.747323 8.036839 -1.646876 0
M  V30 41 H 12.285790 5.982092 -2.972443 0
M  V30 42 H 11.359155 6.137616 -5.237751 0
M  V30 43 H 10.127325 7.806107 -11.475844 0
M  V30 44 H 8.486637 7.998576 -10.903616 0
M  V30 45 H 10.595010 6.391554 -9.736201 0
M  V30 END ATOM
M  V30 BEGIN BOND
M  V30 1 1 2 1
M  V30 2 1 2 3 CFG=3
M  V30 3 1 4 3
M  V30 4 1 5 4
M  V30 5 2 6 5
M  V30 6 1 7 6
M  V30 7 2 8 7
M  V30 8 2 9 4
M  V30 9 1 9 8
M  V30 10 1 10 2
M  V30 11 1 11 10
M  V30 12 1 12 11
M  V30 13 1 13 12
M  V30 14 1 14 13
M  V30 15 1 15 14
M  V30 16 1 16 15
M  V30 17 2 17 16
M  V30 18 1 18 17
M  V30 19 2 19 18
M  V30 20 1 20 19
M  V30 21 1 21 16
M  V30 22 2 21 20
M  V30 23 1 22 2
M  V30 24 1 22 12
M  V30 25 1 23 1
M  V30 26 1 24 1
M  V30 27 1 25 1
M  V30 28 1 26 5
M  V30 29 1 27 6
M  V30 30 1 28 8
M  V30 31 1 29 9
M  V30 32 1 30 10
M  V30 33 1 31 10
M  V30 34 1 32 11
M  V30 35 1 33 11
M  V30 36 1 34 13
M  V30 37 1 35 13
M  V30 38 1 36 14
M  V30 39 1 37 14
M  V30 40 1 38 17
M  V30 41 1 39 18
M  V30 42 1 40 19
M  V30 43 1 41 20
M  V30 44 1 42 21
M  V30 45 1 43 22
M  V30 46 1 44 22
M  V30 47 1 12 45 CFG=3
M  V30 END BOND
M  V30 END CTAB
M  END
>  <b_m_subgroup_collapsed>  (2271) 
0

>  <r_i_docking_score>  (2271) 
-5.9120906653287602

>  <s_m_subgroup_title>  (2271) 
glide-dock_SP_D22_pv

>  <s_m_subgroupid>  (2271) 
glide-dock_SP_D22_pv

>  <Molecule ChEMBL ID>  (2271) 
CHEMBL5880427

>  <Standard Type>  (2271) 
Ki

>  <Standard Value>  (2271) 
20000.0

>  <label>  (2271) 
0

$$$$
CHEMBL5273758
     RDKit          3D

  0  0  0  0  0  0  0  0  0  0999 V3000
M  V30 BEGIN CTAB
M  V30 COUNTS 43 46 0 0 1
M  V30 BEGIN ATOM
M  V30 1 C 11.848198 6.573305 -16.859837 0
M  V30 2 N 12.284909 5.337376 -16.174213 0 CFG=2 CHG=1
M  V30 3 C 13.174440 4.505655 -17.045372 0
M  V30 4 C 12.447319 3.400540 -17.845249 0
M  V30 5 C 11.745110 2.508820 -16.833015 0 CFG=2
M  V30 6 C 11.103647 1.209570 -17.302952 0
M  V30 7 C 10.189952 0.594648 -16.516239 0
M  V30 8 O 9.685909 -0.593692 -16.871145 0
M  V30 9 C 9.832178 1.190719 -15.229164 0
M  V30 10 O 9.347014 0.420770 -14.247043 0
M  V30 11 C 10.106021 2.499112 -15.026559 0
M  V30 12 C 10.188276 3.263784 -13.720983 0 CFG=2
M  V30 13 C 8.877204 3.913819 -13.269795 0
M  V30 14 C 8.893908 4.844447 -12.206874 0
M  V30 15 C 7.701856 5.449322 -11.767684 0
M  V30 16 C 6.475986 5.114352 -12.370216 0
M  V30 17 C 6.441605 4.172204 -13.414024 0
M  V30 18 C 7.634243 3.574010 -13.857673 0
M  V30 19 C 11.336483 4.272992 -14.008722 0
M  V30 20 C 11.146882 4.638668 -15.487072 0 CFG=2
M  V30 21 C 10.674670 3.340115 -16.138760 0 CFG=1
M  V30 22 H 11.137689 6.357837 -17.662710 0
M  V30 23 H 12.695701 7.115004 -17.284298 0
M  V30 24 H 11.369355 7.241659 -16.142654 0
M  V30 25 H 13.748194 5.136529 -17.726238 0
M  V30 26 H 13.911106 4.039255 -16.395433 0
M  V30 27 H 11.737984 3.824180 -18.555756 0
M  V30 28 H 13.171477 2.822744 -18.422668 0
M  V30 29 H 12.490936 2.188313 -16.100611 0
M  V30 30 H 11.430034 0.777498 -18.240963 0
M  V30 31 H 9.103913 -0.862218 -16.172974 0
M  V30 32 H 9.444945 0.886299 -13.420979 0
M  V30 33 H 10.485628 2.574415 -12.934330 0
M  V30 34 H 9.819235 5.099922 -11.711552 0
M  V30 35 H 7.717244 6.171380 -10.963016 0
M  V30 36 H 5.568444 5.578498 -12.014789 0
M  V30 37 H 5.499169 3.906309 -13.867355 0
M  V30 38 H 7.572266 2.849722 -14.654043 0
M  V30 39 H 11.350635 5.146781 -13.356253 0
M  V30 40 H 12.299932 3.772611 -13.886535 0
M  V30 41 H 10.285787 5.311767 -15.492853 0
M  V30 42 H 9.879224 3.569190 -16.848930 0
M  V30 43 H 12.881549 5.672846 -15.429953 0
M  V30 END ATOM
M  V30 BEGIN BOND
M  V30 1 1 2 1
M  V30 2 1 3 2
M  V30 3 1 4 3
M  V30 4 1 5 4
M  V30 5 1 6 5
M  V30 6 2 7 6
M  V30 7 1 8 7
M  V30 8 1 9 7
M  V30 9 1 10 9
M  V30 10 2 11 9
M  V30 11 1 12 11
M  V30 12 1 13 12
M  V30 13 2 14 13
M  V30 14 1 15 14
M  V30 15 2 16 15
M  V30 16 1 17 16
M  V30 17 1 18 13
M  V30 18 2 18 17
M  V30 19 1 19 12
M  V30 20 1 20 2
M  V30 21 1 20 19
M  V30 22 1 21 5
M  V30 23 1 21 11
M  V30 24 1 21 20
M  V30 25 1 22 1
M  V30 26 1 23 1
M  V30 27 1 24 1
M  V30 28 1 25 3
M  V30 29 1 26 3
M  V30 30 1 27 4
M  V30 31 1 28 4
M  V30 32 1 5 29 CFG=1
M  V30 33 1 30 6
M  V30 34 1 31 8
M  V30 35 1 32 10
M  V30 36 1 12 33 CFG=1
M  V30 37 1 34 14
M  V30 38 1 35 15
M  V30 39 1 36 16
M  V30 40 1 37 17
M  V30 41 1 38 18
M  V30 42 1 39 19
M  V30 43 1 40 19
M  V30 44 1 20 41 CFG=1
M  V30 45 1 21 42 CFG=3
M  V30 46 1 2 43 CFG=1
M  V30 END BOND
M  V30 END CTAB
M  END
>  <b_m_subgroup_collapsed>  (2272) 
0

>  <r_i_docking_score>  (2272) 
-5.9094986645799299

>  <s_m_subgroup_title>  (2272) 
glide-dock_SP_D22_pv

>  <s_m_subgroupid>  (2272) 
glide-dock_SP_D22_pv

>  <Molecule ChEMBL ID>  (2272) 
CHEMBL5273758

>  <Standard Type>  (2272) 
Ki

>  <Standard Value>  (2272) 
12.88

>  <label>  (2272) 
1

$$$$
CHEMBL1087872
     RDKit          3D

  0  0  0  0  0  0  0  0  0  0999 V3000
M  V30 BEGIN CTAB
M  V30 COUNTS 62 65 0 0 1
M  V30 BEGIN ATOM
M  V30 1 C 2.890481 -3.526997 -19.014500 0
M  V30 2 S 4.115511 -2.191561 -18.744074 0
M  V30 3 O 3.686094 -0.974071 -19.447416 0
M  V30 4 O 5.460806 -2.750055 -18.945772 0
M  V30 5 N 3.965416 -1.828030 -17.054045 0
M  V30 6 C 4.834920 -1.083471 -16.245052 0
M  V30 7 C 6.084819 -0.641233 -16.727621 0
M  V30 8 C 7.006186 0.013012 -15.888869 0
M  V30 9 O 8.240899 0.277109 -16.439142 0
M  V30 10 C 9.211972 0.977312 -15.679157 0
M  V30 11 C 8.845778 2.467432 -15.664984 0
M  V30 12 N 10.019477 3.352008 -15.491919 0 CFG=2 CHG=1
M  V30 13 C 10.636621 3.271363 -14.138083 0
M  V30 14 C 11.869267 4.194462 -14.036160 0
M  V30 15 C 11.495746 5.638249 -14.378557 0 CFG=2
M  V30 16 O 10.501161 6.096935 -13.447174 0
M  V30 17 C 10.857185 6.769962 -12.296214 0
M  V30 18 C 12.121844 7.372544 -12.103655 0
M  V30 19 C 12.430658 8.046973 -10.908645 0
M  V30 20 C 11.494729 8.079669 -9.865656 0
M  V30 21 C 10.220991 7.492398 -10.034781 0
M  V30 22 C 9.898857 6.862470 -11.257447 0
M  V30 23 N 9.287905 7.536516 -8.960698 0
M  V30 24 C 9.639981 7.819385 -7.690060 0
M  V30 25 O 8.832375 7.924286 -6.774569 0
M  V30 26 C 11.131124 8.012689 -7.390898 0
M  V30 27 C 11.827518 8.742039 -8.546860 0
M  V30 28 C 10.922120 5.643759 -15.797050 0
M  V30 29 C 9.687937 4.743837 -15.887382 0
M  V30 30 C 6.633046 0.300493 -14.552889 0
M  V30 31 C 5.366968 -0.086389 -14.077274 0
M  V30 32 C 4.479450 -0.791489 -14.912222 0
M  V30 33 F 3.285925 -1.190085 -14.418904 0
M  V30 34 H 2.844788 -3.777819 -20.072445 0
M  V30 35 H 3.201801 -4.409308 -18.453585 0
M  V30 36 H 1.912994 -3.215557 -18.650295 0
M  V30 37 H 3.292274 -2.401882 -16.553465 0
M  V30 38 H 6.387679 -0.843611 -17.743044 0
M  V30 39 H 9.345965 0.560926 -14.679744 0
M  V30 40 H 10.162837 0.839226 -16.194078 0
M  V30 41 H 8.393378 2.695933 -16.630318 0
M  V30 42 H 8.090210 2.692087 -14.913189 0
M  V30 43 H 9.897264 3.540657 -13.380935 0
M  V30 44 H 10.941467 2.246801 -13.923998 0
M  V30 45 H 12.307743 4.172194 -13.046866 0
M  V30 46 H 12.646627 3.845127 -14.716382 0
M  V30 47 H 12.391641 6.250179 -14.420436 0
M  V30 48 H 12.890869 7.373383 -12.856450 0
M  V30 49 H 13.395288 8.519279 -10.788141 0
M  V30 50 H 8.924440 6.413885 -11.388339 0
M  V30 51 H 8.305566 7.372351 -9.166862 0
M  V30 52 H 11.260511 8.564479 -6.459002 0
M  V30 53 H 11.580384 7.030070 -7.244118 0
M  V30 54 H 12.907234 8.762454 -8.391498 0
M  V30 55 H 11.481941 9.772163 -8.591479 0
M  V30 56 H 10.689786 6.651627 -16.118410 0
M  V30 57 H 11.680481 5.289656 -16.496872 0
M  V30 58 H 9.316547 4.759457 -16.913996 0
M  V30 59 H 8.886197 5.129600 -15.254321 0
M  V30 60 H 7.299973 0.799029 -13.865536 0
M  V30 61 H 5.089104 0.141735 -13.059301 0
M  V30 62 H 10.721999 3.036597 -16.147764 0
M  V30 END ATOM
M  V30 BEGIN BOND
M  V30 1 1 2 1
M  V30 2 2 3 2
M  V30 3 2 4 2
M  V30 4 1 5 2
M  V30 5 1 6 5
M  V30 6 1 7 6
M  V30 7 2 8 7
M  V30 8 1 9 8
M  V30 9 1 10 9
M  V30 10 1 11 10
M  V30 11 1 12 11
M  V30 12 1 13 12
M  V30 13 1 14 13
M  V30 14 1 15 14
M  V30 15 1 16 15
M  V30 16 1 17 16
M  V30 17 1 18 17
M  V30 18 2 19 18
M  V30 19 1 20 19
M  V30 20 2 21 20
M  V30 21 2 22 17
M  V30 22 1 22 21
M  V30 23 1 23 21
M  V30 24 1 24 23
M  V30 25 2 25 24
M  V30 26 1 26 24
M  V30 27 1 27 20
M  V30 28 1 27 26
M  V30 29 1 28 15
M  V30 30 1 29 12
M  V30 31 1 29 28
M  V30 32 1 30 8
M  V30 33 2 31 30
M  V30 34 2 32 6
M  V30 35 1 32 31
M  V30 36 1 33 32
M  V30 37 1 34 1
M  V30 38 1 35 1
M  V30 39 1 36 1
M  V30 40 1 37 5
M  V30 41 1 38 7
M  V30 42 1 39 10
M  V30 43 1 40 10
M  V30 44 1 41 11
M  V30 45 1 42 11
M  V30 46 1 43 13
M  V30 47 1 44 13
M  V30 48 1 45 14
M  V30 49 1 46 14
M  V30 50 1 15 47 CFG=3
M  V30 51 1 48 18
M  V30 52 1 49 19
M  V30 53 1 50 22
M  V30 54 1 51 23
M  V30 55 1 52 26
M  V30 56 1 53 26
M  V30 57 1 54 27
M  V30 58 1 55 27
M  V30 59 1 56 28
M  V30 60 1 57 28
M  V30 61 1 58 29
M  V30 62 1 59 29
M  V30 63 1 60 30
M  V30 64 1 61 31
M  V30 65 1 12 62 CFG=3
M  V30 END BOND
M  V30 END CTAB
M  END
>  <b_m_subgroup_collapsed>  (2273) 
0

>  <r_i_docking_score>  (2273) 
-5.9072528785988299

>  <s_m_subgroup_title>  (2273) 
glide-dock_SP_D22_pv

>  <s_m_subgroupid>  (2273) 
glide-dock_SP_D22_pv

>  <Molecule ChEMBL ID>  (2273) 
CHEMBL1087872

>  <Standard Type>  (2273) 
Ki

>  <Standard Value>  (2273) 
9.0

>  <label>  (2273) 
1

$$$$
CHEMBL508399
     RDKit          3D

  0  0  0  0  0  0  0  0  0  0999 V3000
M  V30 BEGIN CTAB
M  V30 COUNTS 45 47 0 0 1
M  V30 BEGIN ATOM
M  V30 1 C 12.605965 6.702245 -17.918615 0
M  V30 2 C 11.365626 6.091971 -17.242214 0
M  V30 3 N 11.675408 4.928632 -16.369932 0 CFG=2 CHG=1
M  V30 4 C 12.493606 5.316698 -15.187094 0
M  V30 5 C 12.109065 4.570287 -13.903921 0
M  V30 6 C 10.678294 4.823579 -13.445654 0
M  V30 7 C 10.421047 6.044492 -12.780536 0
M  V30 8 C 9.145736 6.335427 -12.259911 0
M  V30 9 C 8.101335 5.413045 -12.425373 0
M  V30 10 C 8.344735 4.194149 -13.086550 0
M  V30 11 C 9.627625 3.870980 -13.586217 0
M  V30 12 C 9.826360 2.469517 -14.166623 0
M  V30 13 C 9.325300 2.282291 -15.594906 0
M  V30 14 C 7.941482 2.052465 -15.769172 0
M  V30 15 C 7.393428 1.853143 -17.047173 0
M  V30 16 C 8.226315 1.898185 -18.177950 0
M  V30 17 O 7.684605 1.769092 -19.422016 0
M  V30 18 C 9.610964 2.093708 -18.018320 0
M  V30 19 C 10.176288 2.274158 -16.734121 0
M  V30 20 C 11.691277 2.411856 -16.650658 0
M  V30 21 C 12.212366 3.771486 -17.140043 0
M  V30 22 H 12.326041 7.568422 -18.520121 0
M  V30 23 H 13.101871 5.991632 -18.580687 0
M  V30 24 H 13.335528 7.044513 -17.184830 0
M  V30 25 H 10.882524 6.854733 -16.637236 0
M  V30 26 H 10.636486 5.795745 -17.995504 0
M  V30 27 H 13.554804 5.178523 -15.394810 0
M  V30 28 H 12.373330 6.383643 -14.985065 0
M  V30 29 H 12.336254 3.515696 -13.987048 0
M  V30 30 H 12.768314 4.912470 -13.105488 0
M  V30 31 H 11.213288 6.766848 -12.647108 0
M  V30 32 H 8.960882 7.268682 -11.745269 0
M  V30 33 H 7.121377 5.636864 -12.028898 0
M  V30 34 H 7.532969 3.488345 -13.175744 0
M  V30 35 H 10.826935 2.083872 -14.010775 0
M  V30 36 H 9.237054 1.793907 -13.545820 0
M  V30 37 H 7.283822 2.020897 -14.914495 0
M  V30 38 H 6.332146 1.686712 -17.160063 0
M  V30 39 H 8.325772 1.682790 -20.112440 0
M  V30 40 H 10.248171 2.099838 -18.890085 0
M  V30 41 H 12.086198 2.173019 -15.670227 0
M  V30 42 H 12.114519 1.637557 -17.290913 0
M  V30 43 H 11.924221 3.865226 -18.189026 0
M  V30 44 H 13.302717 3.778026 -17.136219 0
M  V30 45 H 10.780321 4.632042 -16.003428 0
M  V30 END ATOM
M  V30 BEGIN BOND
M  V30 1 1 2 1
M  V30 2 1 3 2
M  V30 3 1 4 3
M  V30 4 1 5 4
M  V30 5 1 6 5
M  V30 6 2 7 6
M  V30 7 1 8 7
M  V30 8 2 9 8
M  V30 9 1 10 9
M  V30 10 1 11 6
M  V30 11 2 11 10
M  V30 12 1 12 11
M  V30 13 1 13 12
M  V30 14 1 14 13
M  V30 15 2 15 14
M  V30 16 1 16 15
M  V30 17 1 17 16
M  V30 18 2 18 16
M  V30 19 2 19 13
M  V30 20 1 19 18
M  V30 21 1 20 19
M  V30 22 1 21 3
M  V30 23 1 21 20
M  V30 24 1 22 1
M  V30 25 1 23 1
M  V30 26 1 24 1
M  V30 27 1 25 2
M  V30 28 1 26 2
M  V30 29 1 27 4
M  V30 30 1 28 4
M  V30 31 1 29 5
M  V30 32 1 30 5
M  V30 33 1 31 7
M  V30 34 1 32 8
M  V30 35 1 33 9
M  V30 36 1 34 10
M  V30 37 1 35 12
M  V30 38 1 36 12
M  V30 39 1 37 14
M  V30 40 1 38 15
M  V30 41 1 39 17
M  V30 42 1 40 18
M  V30 43 1 41 20
M  V30 44 1 42 20
M  V30 45 1 43 21
M  V30 46 1 44 21
M  V30 47 1 3 45 CFG=1
M  V30 END BOND
M  V30 END CTAB
M  END
>  <b_m_subgroup_collapsed>  (2274) 
0

>  <r_i_docking_score>  (2274) 
-5.9066294707202003

>  <s_m_subgroup_title>  (2274) 
glide-dock_SP_D22_pv

>  <s_m_subgroupid>  (2274) 
glide-dock_SP_D22_pv

>  <Molecule ChEMBL ID>  (2274) 
CHEMBL508399

>  <Standard Type>  (2274) 
Ki

>  <Standard Value>  (2274) 
77.62

>  <label>  (2274) 
1

$$$$
CHEMBL594789
     RDKit          3D

  0  0  0  0  0  0  0  0  0  0999 V3000
M  V30 BEGIN CTAB
M  V30 COUNTS 45 47 0 0 1
M  V30 BEGIN ATOM
M  V30 1 C 6.242289 5.801157 -12.242617 0
M  V30 2 O 6.051264 4.650413 -13.056092 0
M  V30 3 C 7.172259 4.009407 -13.538678 0
M  V30 4 C 6.984683 2.771188 -14.174835 0
M  V30 5 C 8.085154 2.032523 -14.646394 0
M  V30 6 C 9.409675 2.502321 -14.488990 0
M  V30 7 C 9.606124 3.778005 -13.880671 0
M  V30 8 C 8.487556 4.514316 -13.427285 0
M  V30 9 C 10.970356 4.413459 -13.619893 0
M  V30 10 C 11.357242 5.504193 -14.639210 0
M  V30 11 C 12.114003 4.979051 -15.865402 0
M  V30 12 N 11.284126 4.030093 -16.642521 0 CFG=1 CHG=1
M  V30 13 C 10.415530 4.688774 -17.645107 0
M  V30 14 C 12.061462 2.891537 -17.185827 0
M  V30 15 C 11.186539 1.668563 -17.402102 0
M  V30 16 C 11.096658 1.125497 -18.702332 0
M  V30 17 C 10.345236 -0.039050 -18.942499 0
M  V30 18 C 9.678534 -0.672440 -17.881039 0
M  V30 19 C 9.756348 -0.133400 -16.584822 0
M  V30 20 C 10.495495 1.042484 -16.329439 0
M  V30 21 C 10.554983 1.564968 -14.893548 0
M  V30 22 H 5.286068 6.129998 -11.837477 0
M  V30 23 H 6.658844 6.631885 -12.813869 0
M  V30 24 H 6.893778 5.588033 -11.393941 0
M  V30 25 H 5.987525 2.365643 -14.255921 0
M  V30 26 H 7.893569 1.065680 -15.083759 0
M  V30 27 H 8.664305 5.470763 -12.957267 0
M  V30 28 H 10.886450 4.894604 -12.646781 0
M  V30 29 H 11.769128 3.689111 -13.487707 0
M  V30 30 H 10.486419 6.088060 -14.934395 0
M  V30 31 H 12.022296 6.207573 -14.136289 0
M  V30 32 H 12.436640 5.804202 -16.502409 0
M  V30 33 H 13.029498 4.504381 -15.509797 0
M  V30 34 H 11.006148 5.171546 -18.424547 0
M  V30 35 H 9.785959 5.444871 -17.175549 0
M  V30 36 H 9.753219 3.964365 -18.119473 0
M  V30 37 H 12.560237 3.191329 -18.108801 0
M  V30 38 H 12.855014 2.587438 -16.503544 0
M  V30 39 H 11.616514 1.590972 -19.527296 0
M  V30 40 H 10.286747 -0.450352 -19.939505 0
M  V30 41 H 9.102899 -1.568211 -18.061834 0
M  V30 42 H 9.238010 -0.627347 -15.776854 0
M  V30 43 H 11.534948 1.991433 -14.704718 0
M  V30 44 H 10.508327 0.698370 -14.234760 0
M  V30 45 H 10.660301 3.611797 -15.963967 0
M  V30 END ATOM
M  V30 BEGIN BOND
M  V30 1 1 2 1
M  V30 2 1 3 2
M  V30 3 1 4 3
M  V30 4 2 5 4
M  V30 5 1 6 5
M  V30 6 2 7 6
M  V30 7 2 8 3
M  V30 8 1 8 7
M  V30 9 1 9 7
M  V30 10 1 10 9
M  V30 11 1 11 10
M  V30 12 1 12 11
M  V30 13 1 13 12
M  V30 14 1 14 12
M  V30 15 1 15 14
M  V30 16 2 16 15
M  V30 17 1 17 16
M  V30 18 2 18 17
M  V30 19 1 19 18
M  V30 20 1 20 15
M  V30 21 2 20 19
M  V30 22 1 21 6
M  V30 23 1 21 20
M  V30 24 1 22 1
M  V30 25 1 23 1
M  V30 26 1 24 1
M  V30 27 1 25 4
M  V30 28 1 26 5
M  V30 29 1 27 8
M  V30 30 1 28 9
M  V30 31 1 29 9
M  V30 32 1 30 10
M  V30 33 1 31 10
M  V30 34 1 32 11
M  V30 35 1 33 11
M  V30 36 1 34 13
M  V30 37 1 35 13
M  V30 38 1 36 13
M  V30 39 1 37 14
M  V30 40 1 38 14
M  V30 41 1 39 16
M  V30 42 1 40 17
M  V30 43 1 41 18
M  V30 44 1 42 19
M  V30 45 1 43 21
M  V30 46 1 44 21
M  V30 47 1 12 45 CFG=1
M  V30 END BOND
M  V30 END CTAB
M  END
>  <b_m_subgroup_collapsed>  (2275) 
0

>  <r_i_docking_score>  (2275) 
-5.9049999618731803

>  <s_m_subgroup_title>  (2275) 
glide-dock_SP_D22_pv

>  <s_m_subgroupid>  (2275) 
glide-dock_SP_D22_pv

>  <Molecule ChEMBL ID>  (2275) 
CHEMBL594789

>  <Standard Type>  (2275) 
Ki

>  <Standard Value>  (2275) 
10000.0

>  <label>  (2275) 
0

$$$$
CHEMBL2062859
     RDKit          3D

  0  0  0  0  0  0  0  0  0  0999 V3000
M  V30 BEGIN CTAB
M  V30 COUNTS 59 62 0 0 1
M  V30 BEGIN ATOM
M  V30 1 C 7.251138 4.391994 -12.389764 0
M  V30 2 C 8.266643 4.640009 -13.513433 0
M  V30 3 N 9.603306 5.152345 -13.085979 0 CHG=1
M  V30 4 C 9.526869 6.387952 -12.247591 0
M  V30 5 C 9.390140 6.103831 -10.740611 0
M  V30 6 C 10.473270 5.320594 -14.294538 0 CFG=1
M  V30 7 C 11.960112 5.667737 -14.063393 0 CFG=2
M  V30 8 C 12.485535 7.059704 -14.444003 0
M  V30 9 O 12.886011 7.772326 -13.297318 0
M  V30 10 C 12.328034 4.466772 -14.954428 0 CFG=2
M  V30 11 C 12.760504 4.581612 -16.407114 0
M  V30 12 N 11.547548 4.414066 -17.220362 0
M  V30 13 C 11.113843 5.693283 -17.787840 0
M  V30 14 C 10.051215 5.588159 -18.874462 0
M  V30 15 C 9.046833 6.574714 -18.971083 0
M  V30 16 C 8.107358 6.542818 -20.021429 0
M  V30 17 C 8.165981 5.514839 -20.981848 0
M  V30 18 C 9.153298 4.514791 -20.882402 0
M  V30 19 C 10.094441 4.553634 -19.834332 0
M  V30 20 C 10.509746 3.734176 -16.416487 0 CFG=1
M  V30 21 C 10.407180 2.232633 -16.678631 0
M  V30 22 C 11.380267 1.527547 -17.421993 0
M  V30 23 C 11.211189 0.146372 -17.615990 0
M  V30 24 C 10.085382 -0.483793 -17.056601 0
M  V30 25 C 9.170939 0.301768 -16.329828 0
M  V30 26 N 9.319999 1.630476 -16.145493 0
M  V30 27 C 10.897851 4.004079 -14.963441 0 CFG=2
M  V30 28 H 6.377150 3.867480 -12.779072 0
M  V30 29 H 6.883689 5.324450 -11.960405 0
M  V30 30 H 7.668685 3.777376 -11.591777 0
M  V30 31 H 8.406097 3.698983 -14.047375 0
M  V30 32 H 7.832657 5.334759 -14.233590 0
M  V30 33 H 10.439381 6.970831 -12.370868 0
M  V30 34 H 8.720718 7.037064 -12.596456 0
M  V30 35 H 9.598963 7.005478 -10.165955 0
M  V30 36 H 10.086037 5.333939 -10.407121 0
M  V30 37 H 8.388379 5.791838 -10.452574 0
M  V30 38 H 10.026439 5.981155 -15.028877 0
M  V30 39 H 12.247978 5.398118 -13.046947 0
M  V30 40 H 13.352744 7.002310 -15.098315 0
M  V30 41 H 11.729528 7.640661 -14.973103 0
M  V30 42 H 13.732346 7.426905 -13.035609 0
M  V30 43 H 12.958615 3.772149 -14.402379 0
M  V30 44 H 13.299306 5.499242 -16.638071 0
M  V30 45 H 13.440480 3.763310 -16.648985 0
M  V30 46 H 10.779841 6.371351 -17.005627 0
M  V30 47 H 11.972365 6.175449 -18.259054 0
M  V30 48 H 9.001941 7.372968 -18.247330 0
M  V30 49 H 7.345104 7.303721 -20.087822 0
M  V30 50 H 7.445468 5.486877 -21.784908 0
M  V30 51 H 9.194359 3.724027 -21.615486 0
M  V30 52 H 10.861618 3.795312 -19.781843 0
M  V30 53 H 9.528307 4.154745 -16.639412 0
M  V30 54 H 12.242757 2.021381 -17.843866 0
M  V30 55 H 11.936482 -0.422981 -18.178936 0
M  V30 56 H 9.926032 -1.544430 -17.184067 0
M  V30 57 H 8.294815 -0.148877 -15.886720 0
M  V30 58 H 10.758301 3.153255 -14.291753 0
M  V30 59 H 10.036190 4.441189 -12.513539 0
M  V30 END ATOM
M  V30 BEGIN BOND
M  V30 1 1 2 1
M  V30 2 1 3 2
M  V30 3 1 4 3
M  V30 4 1 5 4
M  V30 5 1 6 3
M  V30 6 1 7 6
M  V30 7 1 8 7
M  V30 8 1 9 8
M  V30 9 1 10 7
M  V30 10 1 11 10
M  V30 11 1 12 11
M  V30 12 1 13 12
M  V30 13 1 14 13
M  V30 14 2 15 14
M  V30 15 1 16 15
M  V30 16 2 17 16
M  V30 17 1 18 17
M  V30 18 1 19 14
M  V30 19 2 19 18
M  V30 20 1 20 12
M  V30 21 1 21 20
M  V30 22 2 22 21
M  V30 23 1 23 22
M  V30 24 2 24 23
M  V30 25 1 25 24
M  V30 26 1 26 21
M  V30 27 2 26 25
M  V30 28 1 27 6
M  V30 29 1 27 10
M  V30 30 1 27 20
M  V30 31 1 28 1
M  V30 32 1 29 1
M  V30 33 1 30 1
M  V30 34 1 31 2
M  V30 35 1 32 2
M  V30 36 1 33 4
M  V30 37 1 34 4
M  V30 38 1 35 5
M  V30 39 1 36 5
M  V30 40 1 37 5
M  V30 41 1 6 38 CFG=3
M  V30 42 1 7 39 CFG=1
M  V30 43 1 40 8
M  V30 44 1 41 8
M  V30 45 1 42 9
M  V30 46 1 10 43 CFG=1
M  V30 47 1 44 11
M  V30 48 1 45 11
M  V30 49 1 46 13
M  V30 50 1 47 13
M  V30 51 1 48 15
M  V30 52 1 49 16
M  V30 53 1 50 17
M  V30 54 1 51 18
M  V30 55 1 52 19
M  V30 56 1 20 53 CFG=3
M  V30 57 1 54 22
M  V30 58 1 55 23
M  V30 59 1 56 24
M  V30 60 1 57 25
M  V30 61 1 27 58 CFG=1
M  V30 62 1 59 3
M  V30 END BOND
M  V30 END CTAB
M  END
>  <b_m_subgroup_collapsed>  (2276) 
0

>  <r_i_docking_score>  (2276) 
-5.9043453562407304

>  <s_m_subgroup_title>  (2276) 
glide-dock_SP_D22_pv

>  <s_m_subgroupid>  (2276) 
glide-dock_SP_D22_pv

>  <Molecule ChEMBL ID>  (2276) 
CHEMBL2062859

>  <Standard Type>  (2276) 
Ki

>  <Standard Value>  (2276) 
12000.0

>  <label>  (2276) 
0

$$$$
CHEMBL2112882
     RDKit          3D

  0  0  0  0  0  0  0  0  0  0999 V3000
M  V30 BEGIN CTAB
M  V30 COUNTS 83 89 0 0 1
M  V30 BEGIN ATOM
M  V30 1 C 7.892599 2.870866 -21.239176 0
M  V30 2 C 8.684834 1.771572 -20.515251 0
M  V30 3 C 10.094288 2.263231 -20.162258 0
M  V30 4 C 8.743958 0.462764 -21.333332 0
M  V30 5 C 7.415329 -0.324277 -21.508633 0 CFG=1
M  V30 6 C 7.559855 -1.486970 -22.509302 0
M  V30 7 O 7.894552 -1.257871 -23.670065 0
M  V30 8 N 7.321772 -2.739299 -22.097454 0
M  V30 9 C 6.860503 -3.132309 -20.767544 0 CFG=1
M  V30 10 C 7.332405 -4.557981 -20.405128 0
M  V30 11 C 6.621359 -5.156857 -19.204796 0
M  V30 12 C 5.254105 -5.493651 -19.295675 0
M  V30 13 C 4.588871 -6.055614 -18.190006 0
M  V30 14 C 5.287005 -6.286942 -16.993492 0
M  V30 15 C 6.649130 -5.950146 -16.894819 0
M  V30 16 C 7.317176 -5.384929 -17.997177 0
M  V30 17 C 7.152132 -2.052673 -19.678244 0 CFG=2
M  V30 18 O 8.474137 -2.107066 -19.175922 0
M  V30 19 O 6.223126 -2.198400 -18.647238 0
M  V30 20 C 5.855073 -0.946027 -18.150856 0 CFG=1
M  V30 21 C 4.396093 -1.024432 -17.677755 0
M  V30 22 N 6.743054 -0.643516 -17.032001 0
M  V30 23 C 7.281355 0.540487 -16.686399 0
M  V30 24 O 7.063907 1.603538 -17.270706 0
M  V30 25 C 8.182416 0.517153 -15.439285 0 CFG=2
M  V30 26 C 7.951309 1.705556 -14.540554 0
M  V30 27 C 8.753638 2.784529 -14.567604 0
M  V30 28 C 8.563689 3.931101 -13.674913 0
M  V30 29 C 7.370883 4.276824 -13.002975 0
M  V30 30 C 7.330527 5.394922 -12.150162 0
M  V30 31 C 8.484264 6.185688 -11.986154 0
M  V30 32 C 9.656331 5.860612 -12.642392 0
M  V30 33 N 10.887112 6.454220 -12.673270 0
M  V30 34 C 11.752606 5.726444 -13.483824 0
M  V30 35 C 11.012094 4.663919 -13.940988 0
M  V30 36 C 9.687740 4.741319 -13.456359 0
M  V30 37 C 11.227807 3.427907 -14.795985 0
M  V30 38 C 9.948282 2.902949 -15.533013 0 CFG=1
M  V30 39 N 10.138425 1.711284 -16.391861 0
M  V30 40 C 11.446665 1.588760 -17.020309 0
M  V30 41 C 9.688449 0.453392 -15.793465 0
M  V30 42 C 6.008296 -0.104373 -19.424250 0
M  V30 43 O 5.447047 0.972644 -19.630342 0
M  V30 44 N 6.853746 -0.755139 -20.220894 0
M  V30 45 H 8.328124 3.100438 -22.212648 0
M  V30 46 H 7.879711 3.793408 -20.658020 0
M  V30 47 H 6.855400 2.574182 -21.402832 0
M  V30 48 H 8.197456 1.573572 -19.566626 0
M  V30 49 H 10.666409 2.518770 -21.053955 0
M  V30 50 H 10.644011 1.496607 -19.622746 0
M  V30 51 H 10.056666 3.143137 -19.519602 0
M  V30 52 H 9.156031 0.696871 -22.317867 0
M  V30 53 H 9.475841 -0.204181 -20.876886 0
M  V30 54 H 6.685262 0.343412 -21.970901 0
M  V30 55 H 7.422763 -3.470660 -22.780727 0
M  V30 56 H 5.775658 -3.161857 -20.867241 0
M  V30 57 H 7.135181 -5.220909 -21.246872 0
M  V30 58 H 8.410935 -4.601933 -20.257122 0
M  V30 59 H 4.705438 -5.315939 -20.208921 0
M  V30 60 H 3.536235 -6.296313 -18.250673 0
M  V30 61 H 4.769311 -6.713761 -16.148275 0
M  V30 62 H 7.180672 -6.120299 -15.970648 0
M  V30 63 H 8.359633 -5.118541 -17.914059 0
M  V30 64 H 8.754311 -1.221169 -19.010233 0
M  V30 65 H 4.118024 -0.108524 -17.160589 0
M  V30 66 H 4.270202 -1.864547 -16.991484 0
M  V30 67 H 3.722425 -1.169371 -18.525707 0
M  V30 68 H 6.906862 -1.421605 -16.403608 0
M  V30 69 H 7.942390 -0.372640 -14.856827 0
M  V30 70 H 7.114768 1.643881 -13.862695 0
M  V30 71 H 6.475668 3.684892 -13.130141 0
M  V30 72 H 6.423213 5.656327 -11.627779 0
M  V30 73 H 8.436904 7.049807 -11.338876 0
M  V30 74 H 11.139646 7.292537 -12.170967 0
M  V30 75 H 12.785287 6.004430 -13.640580 0
M  V30 76 H 12.010679 3.654361 -15.518367 0
M  V30 77 H 11.627471 2.627654 -14.169051 0
M  V30 78 H 9.673341 3.699311 -16.224344 0
M  V30 79 H 11.460743 0.770162 -17.736755 0
M  V30 80 H 12.220973 1.392467 -16.281382 0
M  V30 81 H 11.694695 2.503501 -17.560257 0
M  V30 82 H 10.284247 0.242758 -14.905208 0
M  V30 83 H 9.863230 -0.368772 -16.491693 0
M  V30 END ATOM
M  V30 BEGIN BOND
M  V30 1 1 2 1
M  V30 2 1 3 2
M  V30 3 1 4 2
M  V30 4 1 5 4
M  V30 5 1 6 5
M  V30 6 2 7 6
M  V30 7 1 8 6
M  V30 8 1 9 8
M  V30 9 1 10 9
M  V30 10 1 11 10
M  V30 11 2 12 11
M  V30 12 1 13 12
M  V30 13 2 14 13
M  V30 14 1 15 14
M  V30 15 1 16 11
M  V30 16 2 16 15
M  V30 17 1 17 9
M  V30 18 1 17 18 CFG=1
M  V30 19 1 19 17
M  V30 20 1 20 19
M  V30 21 1 21 20
M  V30 22 1 20 22 CFG=1
M  V30 23 1 23 22
M  V30 24 2 24 23
M  V30 25 1 25 23
M  V30 26 1 26 25
M  V30 27 2 27 26
M  V30 28 1 28 27
M  V30 29 1 29 28
M  V30 30 2 30 29
M  V30 31 1 31 30
M  V30 32 2 32 31
M  V30 33 1 33 32
M  V30 34 1 34 33
M  V30 35 2 35 34
M  V30 36 2 36 28
M  V30 37 1 36 32
M  V30 38 1 36 35
M  V30 39 1 37 35
M  V30 40 1 38 27
M  V30 41 1 38 37
M  V30 42 1 39 38
M  V30 43 1 40 39
M  V30 44 1 41 25
M  V30 45 1 41 39
M  V30 46 1 42 20
M  V30 47 2 43 42
M  V30 48 1 44 5
M  V30 49 1 44 17
M  V30 50 1 44 42
M  V30 51 1 45 1
M  V30 52 1 46 1
M  V30 53 1 47 1
M  V30 54 1 48 2
M  V30 55 1 49 3
M  V30 56 1 50 3
M  V30 57 1 51 3
M  V30 58 1 52 4
M  V30 59 1 53 4
M  V30 60 1 5 54 CFG=3
M  V30 61 1 55 8
M  V30 62 1 9 56 CFG=3
M  V30 63 1 57 10
M  V30 64 1 58 10
M  V30 65 1 59 12
M  V30 66 1 60 13
M  V30 67 1 61 14
M  V30 68 1 62 15
M  V30 69 1 63 16
M  V30 70 1 64 18
M  V30 71 1 65 21
M  V30 72 1 66 21
M  V30 73 1 67 21
M  V30 74 1 68 22
M  V30 75 1 25 69 CFG=1
M  V30 76 1 70 26
M  V30 77 1 71 29
M  V30 78 1 72 30
M  V30 79 1 73 31
M  V30 80 1 74 33
M  V30 81 1 75 34
M  V30 82 1 76 37
M  V30 83 1 77 37
M  V30 84 1 38 78 CFG=3
M  V30 85 1 79 40
M  V30 86 1 80 40
M  V30 87 1 81 40
M  V30 88 1 82 41
M  V30 89 1 83 41
M  V30 END BOND
M  V30 END CTAB
M  END
>  <b_m_subgroup_collapsed>  (2277) 
0

>  <r_i_docking_score>  (2277) 
-5.9030015093464598

>  <s_m_subgroup_title>  (2277) 
glide-dock_SP_D22_pv

>  <s_m_subgroupid>  (2277) 
glide-dock_SP_D22_pv

>  <Molecule ChEMBL ID>  (2277) 
CHEMBL2112882

>  <Standard Type>  (2277) 
Ki

>  <Standard Value>  (2277) 
3.162

>  <label>  (2277) 
1

$$$$
CHEMBL3084520
     RDKit          3D

  0  0  0  0  0  0  0  0  0  0999 V3000
M  V30 BEGIN CTAB
M  V30 COUNTS 53 57 0 0 1
M  V30 BEGIN ATOM
M  V30 1 C 10.245402 -0.582504 -16.299690 0
M  V30 2 O 10.854261 -0.001138 -17.441782 0
M  V30 3 C 11.106374 1.353742 -17.426828 0
M  V30 4 C 11.555957 1.929445 -18.633356 0
M  V30 5 C 11.812888 3.310156 -18.724394 0
M  V30 6 C 11.613958 4.102686 -17.580656 0
M  V30 7 O 11.792320 5.464249 -17.458244 0
M  V30 8 C 11.491840 5.779845 -16.158920 0
M  V30 9 C 11.120962 4.673869 -15.428185 0
M  V30 10 C 10.776834 4.598720 -13.977440 0
M  V30 11 N 9.313439 4.450447 -13.766339 0 CFG=1 CHG=1
M  V30 12 C 8.895236 3.716331 -12.568315 0 CFG=2
M  V30 13 C 7.362073 3.737482 -12.669643 0
M  V30 14 C 7.059806 5.009303 -13.445895 0
M  V30 15 C 8.447324 5.638747 -13.701428 0 CFG=1
M  V30 16 C 8.876101 6.589938 -12.546167 0
M  V30 17 C 8.977369 5.915172 -11.147556 0 CFG=2
M  V30 18 O 7.686408 5.771146 -10.646024 0
M  V30 19 C 9.802931 6.684924 -10.093286 0
M  V30 20 C 9.682755 6.304100 -8.735833 0
M  V30 21 C 10.300784 7.040982 -7.713689 0
M  V30 22 C 11.047249 8.192254 -8.031260 0
M  V30 23 Cl 11.717015 9.156284 -6.769528 0
M  V30 24 C 11.216668 8.559826 -9.378662 0
M  V30 25 C 10.603556 7.808176 -10.404631 0
M  V30 26 C 9.433598 4.448009 -11.302981 0
M  V30 27 C 11.185955 3.569713 -16.344646 0
M  V30 28 C 10.938124 2.178576 -16.281040 0
M  V30 29 H 10.086043 -1.641701 -16.495159 0
M  V30 30 H 10.886923 -0.502993 -15.423387 0
M  V30 31 H 9.276127 -0.132096 -16.079489 0
M  V30 32 H 11.692758 1.300301 -19.500982 0
M  V30 33 H 12.149175 3.754293 -19.647928 0
M  V30 34 H 11.606366 6.825370 -15.908066 0
M  V30 35 H 11.207867 5.434495 -13.427490 0
M  V30 36 H 11.268538 3.710412 -13.573791 0
M  V30 37 H 9.286451 2.702482 -12.644623 0
M  V30 38 H 6.875336 3.708435 -11.694828 0
M  V30 39 H 6.990596 2.881540 -13.238429 0
M  V30 40 H 6.385614 5.692155 -12.922618 0
M  V30 41 H 6.566061 4.698818 -14.359332 0
M  V30 42 H 8.483122 6.160695 -14.646227 0
M  V30 43 H 8.216831 7.462348 -12.503561 0
M  V30 44 H 9.851300 6.968112 -12.825905 0
M  V30 45 H 7.312395 6.645144 -10.415773 0
M  V30 46 H 9.062748 5.458251 -8.462096 0
M  V30 47 H 10.173076 6.743595 -6.681488 0
M  V30 48 H 11.793509 9.437139 -9.629206 0
M  V30 49 H 10.748066 8.158393 -11.413956 0
M  V30 50 H 10.485997 4.448784 -11.407281 0
M  V30 51 H 9.283813 3.894139 -10.383339 0
M  V30 52 H 10.623714 1.762591 -15.339253 0
M  V30 53 H 8.982339 3.890854 -14.542140 0
M  V30 END ATOM
M  V30 BEGIN BOND
M  V30 1 1 2 1
M  V30 2 1 3 2
M  V30 3 1 4 3
M  V30 4 2 5 4
M  V30 5 1 6 5
M  V30 6 1 7 6
M  V30 7 1 8 7
M  V30 8 2 9 8
M  V30 9 1 10 9
M  V30 10 1 11 10
M  V30 11 1 12 11
M  V30 12 1 13 12
M  V30 13 1 14 13
M  V30 14 1 15 11
M  V30 15 1 15 14
M  V30 16 1 16 15
M  V30 17 1 17 16
M  V30 18 1 17 18 CFG=1
M  V30 19 1 19 17
M  V30 20 1 20 19
M  V30 21 2 21 20
M  V30 22 1 22 21
M  V30 23 1 23 22
M  V30 24 2 24 22
M  V30 25 2 25 19
M  V30 26 1 25 24
M  V30 27 1 26 12
M  V30 28 1 26 17
M  V30 29 2 27 6
M  V30 30 1 27 9
M  V30 31 2 28 3
M  V30 32 1 28 27
M  V30 33 1 29 1
M  V30 34 1 30 1
M  V30 35 1 31 1
M  V30 36 1 32 4
M  V30 37 1 33 5
M  V30 38 1 34 8
M  V30 39 1 35 10
M  V30 40 1 36 10
M  V30 41 1 12 37 CFG=3
M  V30 42 1 38 13
M  V30 43 1 39 13
M  V30 44 1 40 14
M  V30 45 1 41 14
M  V30 46 1 15 42 CFG=3
M  V30 47 1 43 16
M  V30 48 1 44 16
M  V30 49 1 45 18
M  V30 50 1 46 20
M  V30 51 1 47 21
M  V30 52 1 48 24
M  V30 53 1 49 25
M  V30 54 1 50 26
M  V30 55 1 51 26
M  V30 56 1 52 28
M  V30 57 1 11 53 CFG=3
M  V30 END BOND
M  V30 END CTAB
M  END
>  <b_m_subgroup_collapsed>  (2278) 
0

>  <r_i_docking_score>  (2278) 
-5.9001578868479196

>  <s_m_subgroup_title>  (2278) 
glide-dock_SP_D22_pv

>  <s_m_subgroupid>  (2278) 
glide-dock_SP_D22_pv

>  <Molecule ChEMBL ID>  (2278) 
CHEMBL3084520

>  <Standard Type>  (2278) 
Ki

>  <Standard Value>  (2278) 
1.5

>  <label>  (2278) 
1

$$$$
CHEMBL4204059
     RDKit          3D

  0  0  0  0  0  0  0  0  0  0999 V3000
M  V30 BEGIN CTAB
M  V30 COUNTS 47 49 0 0 1
M  V30 BEGIN ATOM
M  V30 1 C 14.785329 6.591831 -17.473103 0
M  V30 2 C 13.636970 7.464296 -16.948545 0
M  V30 3 C 12.494617 6.669387 -16.294527 0
M  V30 4 C 12.900039 5.913324 -15.018787 0
M  V30 5 C 11.736365 5.142282 -14.432253 0
M  V30 6 C 11.420860 3.853220 -14.893740 0
M  V30 7 C 10.257721 3.259108 -14.369324 0
M  V30 8 C 9.763808 1.942633 -14.808728 0
M  V30 9 C 8.453217 1.414988 -14.645165 0
M  V30 10 C 8.484066 0.174052 -15.216626 0
M  V30 11 O 9.718339 -0.095449 -15.732823 0
M  V30 12 C 10.486428 1.001458 -15.485826 0
M  V30 13 N 9.517114 3.903591 -13.443914 0
M  V30 14 C 9.908402 5.118682 -13.051272 0
M  V30 15 N 9.123256 5.763547 -12.092629 0
M  V30 16 C 8.243113 5.029879 -11.182965 0
M  V30 17 C 8.759507 5.153882 -9.739676 0
M  V30 18 N 8.885938 6.581405 -9.360169 0 CHG=1
M  V30 19 C 9.217833 6.779025 -7.933037 0
M  V30 20 C 9.768311 7.332288 -10.289518 0
M  V30 21 C 9.282543 7.177006 -11.741883 0
M  V30 22 N 10.980090 5.771085 -13.509536 0
M  V30 23 H 15.524609 7.203303 -17.991096 0
M  V30 24 H 15.302363 6.075330 -16.664574 0
M  V30 25 H 14.422873 5.842554 -18.177107 0
M  V30 26 H 13.227224 8.041504 -17.778881 0
M  V30 27 H 14.029925 8.195465 -16.243870 0
M  V30 28 H 12.081965 5.967432 -17.021139 0
M  V30 29 H 11.686927 7.358476 -16.046026 0
M  V30 30 H 13.285782 6.611953 -14.274837 0
M  V30 31 H 13.704809 5.208994 -15.228742 0
M  V30 32 H 12.020718 3.365209 -15.649894 0
M  V30 33 H 7.606022 1.880559 -14.163754 0
M  V30 34 H 7.753737 -0.615065 -15.339223 0
M  V30 35 H 11.503662 0.945941 -15.844563 0
M  V30 36 H 7.240037 5.450515 -11.255287 0
M  V30 37 H 8.149230 3.978254 -11.446626 0
M  V30 38 H 8.085636 4.643396 -9.054518 0
M  V30 39 H 9.730438 4.664246 -9.646288 0
M  V30 40 H 10.202244 6.373183 -7.697226 0
M  V30 41 H 9.212584 7.839643 -7.680626 0
M  V30 42 H 8.480530 6.287761 -7.296553 0
M  V30 43 H 9.777626 8.386774 -10.015207 0
M  V30 44 H 10.791063 6.966543 -10.195174 0
M  V30 45 H 9.956512 7.702353 -12.416682 0
M  V30 46 H 8.311079 7.661760 -11.856401 0
M  V30 47 H 7.952730 6.977032 -9.493360 0
M  V30 END ATOM
M  V30 BEGIN BOND
M  V30 1 1 2 1
M  V30 2 1 3 2
M  V30 3 1 4 3
M  V30 4 1 5 4
M  V30 5 2 6 5
M  V30 6 1 7 6
M  V30 7 1 8 7
M  V30 8 1 9 8
M  V30 9 2 10 9
M  V30 10 1 11 10
M  V30 11 2 12 8
M  V30 12 1 12 11
M  V30 13 2 13 7
M  V30 14 1 14 13
M  V30 15 1 15 14
M  V30 16 1 16 15
M  V30 17 1 17 16
M  V30 18 1 18 17
M  V30 19 1 19 18
M  V30 20 1 20 18
M  V30 21 1 21 15
M  V30 22 1 21 20
M  V30 23 1 22 5
M  V30 24 2 22 14
M  V30 25 1 23 1
M  V30 26 1 24 1
M  V30 27 1 25 1
M  V30 28 1 26 2
M  V30 29 1 27 2
M  V30 30 1 28 3
M  V30 31 1 29 3
M  V30 32 1 30 4
M  V30 33 1 31 4
M  V30 34 1 32 6
M  V30 35 1 33 9
M  V30 36 1 34 10
M  V30 37 1 35 12
M  V30 38 1 36 16
M  V30 39 1 37 16
M  V30 40 1 38 17
M  V30 41 1 39 17
M  V30 42 1 40 19
M  V30 43 1 41 19
M  V30 44 1 42 19
M  V30 45 1 43 20
M  V30 46 1 44 20
M  V30 47 1 45 21
M  V30 48 1 46 21
M  V30 49 1 47 18
M  V30 END BOND
M  V30 END CTAB
M  END
>  <b_m_subgroup_collapsed>  (2279) 
0

>  <r_i_docking_score>  (2279) 
-5.8995984638382897

>  <s_m_subgroup_title>  (2279) 
glide-dock_SP_D22_pv

>  <s_m_subgroupid>  (2279) 
glide-dock_SP_D22_pv

>  <Molecule ChEMBL ID>  (2279) 
CHEMBL4204059

>  <Standard Type>  (2279) 
Ki

>  <Standard Value>  (2279) 
37.0

>  <label>  (2279) 
1

$$$$
CHEMBL198125
     RDKit          3D

  0  0  0  0  0  0  0  0  0  0999 V3000
M  V30 BEGIN CTAB
M  V30 COUNTS 44 45 0 0 1
M  V30 BEGIN ATOM
M  V30 1 C 11.816801 9.321098 -10.246943 0
M  V30 2 C 10.570654 8.484837 -10.547134 0
M  V30 3 C 10.713748 7.076331 -9.960773 0
M  V30 4 N 10.002324 6.865798 -8.664854 0 CHG=1
M  V30 5 C 9.726516 5.412555 -8.483703 0
M  V30 6 C 8.421755 4.984083 -9.154452 0
M  V30 7 C 8.434686 4.737278 -10.669742 0
M  V30 8 C 10.660235 7.593190 -7.516109 0 CFG=1
M  V30 9 C 10.054989 9.006184 -7.306756 0
M  V30 10 C 10.955848 9.872940 -6.408545 0
M  V30 11 N 11.329207 9.135148 -5.228470 0
M  V30 12 N 11.812554 9.772133 -4.150550 0
M  V30 13 C 12.086756 8.807878 -3.295300 0
M  V30 14 C 11.772032 7.519755 -3.813724 0
M  V30 15 C 11.893768 6.201643 -3.137544 0
M  V30 16 O 12.486049 6.291721 -1.872496 0
M  V30 17 C 11.285840 7.771252 -5.063499 0
M  V30 18 C 10.716653 6.885164 -6.134195 0
M  V30 19 H 11.650036 10.392943 -10.246834 0
M  V30 20 H 12.579740 9.096705 -10.993052 0
M  V30 21 H 12.255830 9.102239 -9.278052 0
M  V30 22 H 9.644466 8.964712 -10.234388 0
M  V30 23 H 10.473793 8.406326 -11.629715 0
M  V30 24 H 10.352139 6.389596 -10.717265 0
M  V30 25 H 11.764267 6.812770 -9.852970 0
M  V30 26 H 10.558940 4.786603 -8.795872 0
M  V30 27 H 9.552267 5.174448 -7.446452 0
M  V30 28 H 8.085644 4.064322 -8.674570 0
M  V30 29 H 7.685874 5.745176 -8.921220 0
M  V30 30 H 7.550681 4.172593 -10.966133 0
M  V30 31 H 9.311998 4.172679 -10.985005 0
M  V30 32 H 8.393325 5.670475 -11.230489 0
M  V30 33 H 11.711340 7.708375 -7.776473 0
M  V30 34 H 9.893896 9.536779 -8.234801 0
M  V30 35 H 9.065951 8.914392 -6.853626 0
M  V30 36 H 11.872154 10.133678 -6.937326 0
M  V30 37 H 10.486282 10.810359 -6.116866 0
M  V30 38 H 12.488473 9.068847 -2.326538 0
M  V30 39 H 10.905302 5.773524 -3.003537 0
M  V30 40 H 12.482338 5.511579 -3.737902 0
M  V30 41 H 12.410670 5.444064 -1.455971 0
M  V30 42 H 9.714437 6.594068 -5.816160 0
M  V30 43 H 11.317116 5.977365 -6.198860 0
M  V30 44 H 9.082336 7.278675 -8.761345 0
M  V30 END ATOM
M  V30 BEGIN BOND
M  V30 1 1 2 1
M  V30 2 1 3 2
M  V30 3 1 4 3
M  V30 4 1 5 4
M  V30 5 1 6 5
M  V30 6 1 7 6
M  V30 7 1 8 4
M  V30 8 1 9 8
M  V30 9 1 10 9
M  V30 10 1 11 10
M  V30 11 1 12 11
M  V30 12 2 13 12
M  V30 13 1 14 13
M  V30 14 1 15 14
M  V30 15 1 16 15
M  V30 16 1 17 11
M  V30 17 2 17 14
M  V30 18 1 18 8
M  V30 19 1 18 17
M  V30 20 1 19 1
M  V30 21 1 20 1
M  V30 22 1 21 1
M  V30 23 1 22 2
M  V30 24 1 23 2
M  V30 25 1 24 3
M  V30 26 1 25 3
M  V30 27 1 26 5
M  V30 28 1 27 5
M  V30 29 1 28 6
M  V30 30 1 29 6
M  V30 31 1 30 7
M  V30 32 1 31 7
M  V30 33 1 32 7
M  V30 34 1 8 33 CFG=3
M  V30 35 1 34 9
M  V30 36 1 35 9
M  V30 37 1 36 10
M  V30 38 1 37 10
M  V30 39 1 38 13
M  V30 40 1 39 15
M  V30 41 1 40 15
M  V30 42 1 41 16
M  V30 43 1 42 18
M  V30 44 1 43 18
M  V30 45 1 44 4
M  V30 END BOND
M  V30 END CTAB
M  END
>  <b_m_subgroup_collapsed>  (2280) 
0

>  <r_i_docking_score>  (2280) 
-5.8986028699477702

>  <s_m_subgroup_title>  (2280) 
glide-dock_SP_D22_pv

>  <s_m_subgroupid>  (2280) 
glide-dock_SP_D22_pv

>  <Molecule ChEMBL ID>  (2280) 
CHEMBL198125

>  <Standard Type>  (2280) 
Ki

>  <Standard Value>  (2280) 
20000.0

>  <label>  (2280) 
0

$$$$
CHEMBL230930
     RDKit          3D

  0  0  0  0  0  0  0  0  0  0999 V3000
M  V30 BEGIN CTAB
M  V30 COUNTS 55 58 0 0 1
M  V30 BEGIN ATOM
M  V30 1 C 13.154738 4.940458 -16.161348 0
M  V30 2 C 12.607107 3.740669 -16.882750 0
M  V30 3 N 13.326389 3.191166 -17.848076 0
M  V30 4 O 12.601789 2.080572 -18.297079 0
M  V30 5 C 11.442223 1.998290 -17.594229 0
M  V30 6 C 10.531987 0.873116 -17.957029 0
M  V30 7 C 11.387695 3.026126 -16.692734 0
M  V30 8 C 10.302444 3.333877 -15.737843 0
M  V30 9 C 9.970022 4.669959 -15.424893 0
M  V30 10 C 8.934947 4.970052 -14.518928 0
M  V30 11 C 8.211170 3.938567 -13.898810 0
M  V30 12 S 6.897671 4.328057 -12.724483 0
M  V30 13 O 6.277069 5.618371 -13.046814 0
M  V30 14 O 6.066159 3.129341 -12.543054 0
M  V30 15 N 7.686112 4.572041 -11.199018 0
M  V30 16 C 8.507135 5.601284 -10.729728 0
M  V30 17 C 8.893090 6.703705 -11.513664 0
M  V30 18 C 9.720581 7.701594 -10.970984 0
M  V30 19 C 10.144100 7.649508 -9.626520 0
M  V30 20 C 9.701831 6.572708 -8.810596 0
M  V30 21 C 8.915307 5.548759 -9.384281 0
M  V30 22 C 9.974329 6.474836 -7.317789 0
M  V30 23 C 9.776290 7.793636 -6.558725 0
M  V30 24 N 10.915740 8.746004 -6.645296 0 CFG=1 CHG=1
M  V30 25 C 11.685184 8.819459 -5.378814 0
M  V30 26 C 11.793951 8.597208 -7.833450 0
M  V30 27 C 11.041241 8.791633 -9.157064 0
M  V30 28 C 8.491385 2.601393 -14.246478 0
M  V30 29 C 9.541907 2.305404 -15.137027 0
M  V30 30 H 12.919580 4.900997 -15.097406 0
M  V30 31 H 14.239413 4.996697 -16.251951 0
M  V30 32 H 12.741348 5.864351 -16.565451 0
M  V30 33 H 9.488761 1.176866 -17.888247 0
M  V30 34 H 10.713916 0.539766 -18.979067 0
M  V30 35 H 10.687538 0.024234 -17.293297 0
M  V30 36 H 10.491423 5.488066 -15.898173 0
M  V30 37 H 8.669838 5.993596 -14.337444 0
M  V30 38 H 7.207088 4.089199 -10.449070 0
M  V30 39 H 8.531528 6.828753 -12.515405 0
M  V30 40 H 10.007895 8.534842 -11.594929 0
M  V30 41 H 8.583246 4.723866 -8.771271 0
M  V30 42 H 9.253492 5.772760 -6.901184 0
M  V30 43 H 10.952499 6.030884 -7.132060 0
M  V30 44 H 8.868139 8.285801 -6.913197 0
M  V30 45 H 9.587142 7.554769 -5.512582 0
M  V30 46 H 12.086183 7.841718 -5.106574 0
M  V30 47 H 12.515189 9.524312 -5.456674 0
M  V30 48 H 11.047021 9.158842 -4.560965 0
M  V30 49 H 12.559301 9.371140 -7.770675 0
M  V30 50 H 12.341232 7.654109 -7.829829 0
M  V30 51 H 11.784747 8.959593 -9.939022 0
M  V30 52 H 10.446480 9.704201 -9.119822 0
M  V30 53 H 7.910317 1.788331 -13.843451 0
M  V30 54 H 9.756718 1.271023 -15.355431 0
M  V30 55 H 10.489632 9.657406 -6.741601 0
M  V30 END ATOM
M  V30 BEGIN BOND
M  V30 1 1 2 1
M  V30 2 2 3 2
M  V30 3 1 4 3
M  V30 4 1 5 4
M  V30 5 1 6 5
M  V30 6 1 7 2
M  V30 7 2 7 5
M  V30 8 1 8 7
M  V30 9 1 9 8
M  V30 10 2 10 9
M  V30 11 1 11 10
M  V30 12 1 12 11
M  V30 13 2 13 12
M  V30 14 2 14 12
M  V30 15 1 15 12
M  V30 16 1 16 15
M  V30 17 1 17 16
M  V30 18 2 18 17
M  V30 19 1 19 18
M  V30 20 2 20 19
M  V30 21 2 21 16
M  V30 22 1 21 20
M  V30 23 1 22 20
M  V30 24 1 23 22
M  V30 25 1 24 23
M  V30 26 1 25 24
M  V30 27 1 26 24
M  V30 28 1 27 19
M  V30 29 1 27 26
M  V30 30 2 28 11
M  V30 31 2 29 8
M  V30 32 1 29 28
M  V30 33 1 30 1
M  V30 34 1 31 1
M  V30 35 1 32 1
M  V30 36 1 33 6
M  V30 37 1 34 6
M  V30 38 1 35 6
M  V30 39 1 36 9
M  V30 40 1 37 10
M  V30 41 1 38 15
M  V30 42 1 39 17
M  V30 43 1 40 18
M  V30 44 1 41 21
M  V30 45 1 42 22
M  V30 46 1 43 22
M  V30 47 1 44 23
M  V30 48 1 45 23
M  V30 49 1 46 25
M  V30 50 1 47 25
M  V30 51 1 48 25
M  V30 52 1 49 26
M  V30 53 1 50 26
M  V30 54 1 51 27
M  V30 55 1 52 27
M  V30 56 1 53 28
M  V30 57 1 54 29
M  V30 58 1 24 55 CFG=3
M  V30 END BOND
M  V30 END CTAB
M  END
>  <b_m_subgroup_collapsed>  (2281) 
0

>  <r_i_docking_score>  (2281) 
-5.8964249296195899

>  <s_m_subgroup_title>  (2281) 
glide-dock_SP_D22_pv

>  <s_m_subgroupid>  (2281) 
glide-dock_SP_D22_pv

>  <Molecule ChEMBL ID>  (2281) 
CHEMBL230930

>  <Standard Type>  (2281) 
Ki

>  <Standard Value>  (2281) 
100.0

>  <label>  (2281) 
1

$$$$
CHEMBL607689
     RDKit          3D

  0  0  0  0  0  0  0  0  0  0999 V3000
M  V30 BEGIN CTAB
M  V30 COUNTS 46 49 0 0 1
M  V30 BEGIN ATOM
M  V30 1 C 12.976743 5.258199 -15.106184 0
M  V30 2 N 11.762074 5.090035 -14.327914 0
M  V30 3 C 10.838434 4.105587 -14.440937 0
M  V30 4 C 11.032046 2.985119 -15.443457 0
M  V30 5 N 9.917731 2.055902 -15.676109 0
M  V30 6 C 9.635948 1.224484 -14.496390 0
M  V30 7 C 8.453236 0.272905 -14.732401 0
M  V30 8 C 7.220047 1.047942 -15.207842 0
M  V30 9 C 5.994422 0.160469 -15.367616 0
M  V30 10 C 5.851642 -0.658521 -16.510866 0
M  V30 11 C 4.704060 -1.453750 -16.677660 0
M  V30 12 C 3.686497 -1.427908 -15.708842 0
M  V30 13 C 3.821789 -0.627100 -14.561076 0
M  V30 14 C 4.980733 0.155041 -14.379828 0
M  V30 15 F 5.101752 0.909727 -13.261227 0
M  V30 16 C 7.594881 1.811404 -16.487421 0
M  V30 17 C 8.746214 2.774558 -16.182487 0
M  V30 18 N 9.796391 4.211384 -13.608638 0
M  V30 19 C 10.085792 5.333863 -12.874324 0
M  V30 20 C 9.377580 5.943070 -11.815841 0
M  V30 21 C 9.910109 7.071409 -11.161162 0
M  V30 22 C 11.153703 7.601469 -11.560849 0
M  V30 23 C 11.854583 7.030323 -12.645545 0
M  V30 24 C 11.320420 5.902783 -13.289578 0
M  V30 25 H 13.457911 6.209667 -14.867890 0
M  V30 26 H 13.671817 4.447189 -14.884657 0
M  V30 27 H 12.738923 5.255376 -16.170927 0
M  V30 28 H 11.904963 2.407593 -15.139583 0
M  V30 29 H 11.291574 3.432147 -16.402882 0
M  V30 30 H 9.403292 1.828326 -13.623372 0
M  V30 31 H 10.526092 0.646564 -14.248459 0
M  V30 32 H 8.215585 -0.227717 -13.795488 0
M  V30 33 H 8.725430 -0.494969 -15.456764 0
M  V30 34 H 6.982585 1.794800 -14.449101 0
M  V30 35 H 6.624945 -0.695061 -17.262512 0
M  V30 36 H 4.603263 -2.087532 -17.545641 0
M  V30 37 H 2.816270 -2.046195 -15.846960 0
M  V30 38 H 3.036391 -0.611742 -13.820048 0
M  V30 39 H 7.891039 1.133178 -17.288260 0
M  V30 40 H 6.734471 2.374058 -16.851583 0
M  V30 41 H 8.399231 3.495608 -15.447351 0
M  V30 42 H 9.014806 3.330616 -17.081486 0
M  V30 43 H 8.429086 5.536381 -11.492969 0
M  V30 44 H 9.363551 7.525023 -10.345075 0
M  V30 45 H 11.559615 8.460362 -11.046294 0
M  V30 46 H 12.802810 7.441659 -12.963322 0
M  V30 END ATOM
M  V30 BEGIN BOND
M  V30 1 1 2 1
M  V30 2 1 3 2
M  V30 3 1 4 3
M  V30 4 1 5 4
M  V30 5 1 6 5
M  V30 6 1 7 6
M  V30 7 1 8 7
M  V30 8 1 9 8
M  V30 9 2 10 9
M  V30 10 1 11 10
M  V30 11 2 12 11
M  V30 12 1 13 12
M  V30 13 1 14 9
M  V30 14 2 14 13
M  V30 15 1 15 14
M  V30 16 1 16 8
M  V30 17 1 17 5
M  V30 18 1 17 16
M  V30 19 2 18 3
M  V30 20 1 19 18
M  V30 21 2 20 19
M  V30 22 1 21 20
M  V30 23 2 22 21
M  V30 24 1 23 22
M  V30 25 1 24 2
M  V30 26 1 24 19
M  V30 27 2 24 23
M  V30 28 1 25 1
M  V30 29 1 26 1
M  V30 30 1 27 1
M  V30 31 1 28 4
M  V30 32 1 29 4
M  V30 33 1 30 6
M  V30 34 1 31 6
M  V30 35 1 32 7
M  V30 36 1 33 7
M  V30 37 1 34 8
M  V30 38 1 35 10
M  V30 39 1 36 11
M  V30 40 1 37 12
M  V30 41 1 38 13
M  V30 42 1 39 16
M  V30 43 1 40 16
M  V30 44 1 41 17
M  V30 45 1 42 17
M  V30 46 1 43 20
M  V30 47 1 44 21
M  V30 48 1 45 22
M  V30 49 1 46 23
M  V30 END BOND
M  V30 END CTAB
M  END
>  <b_m_subgroup_collapsed>  (2282) 
0

>  <r_i_docking_score>  (2282) 
-5.8932005642469703

>  <s_m_subgroup_title>  (2282) 
glide-dock_SP_D22_pv

>  <s_m_subgroupid>  (2282) 
glide-dock_SP_D22_pv

>  <Molecule ChEMBL ID>  (2282) 
CHEMBL607689

>  <Standard Type>  (2282) 
Ki

>  <Standard Value>  (2282) 
39.81

>  <label>  (2282) 
1

$$$$
CHEMBL596886
     RDKit          3D

  0  0  0  0  0  0  0  0  0  0999 V3000
M  V30 BEGIN CTAB
M  V30 COUNTS 48 51 0 0 1
M  V30 BEGIN ATOM
M  V30 1 C 5.282960 2.033733 -12.647393 0
M  V30 2 C 5.688260 3.248871 -13.045468 0
M  V30 3 C 6.606985 4.155146 -12.258639 0
M  V30 4 O 7.864321 4.245311 -12.915741 0
M  V30 5 C 8.782384 5.180618 -12.486542 0
M  V30 6 C 8.526987 6.047852 -11.396354 0
M  V30 7 C 9.429260 7.065991 -11.053844 0
M  V30 8 C 10.590056 7.252244 -11.815487 0
M  V30 9 C 10.870720 6.379214 -12.884503 0
M  V30 10 C 10.010406 5.299795 -13.196332 0
M  V30 11 C 10.449523 4.357030 -14.256402 0
M  V30 12 C 10.055326 2.994666 -14.284670 0
M  V30 13 C 10.468112 2.082861 -15.274046 0
M  V30 14 O 9.977097 0.800710 -15.181552 0
M  V30 15 C 10.219694 -0.075793 -16.266991 0
M  V30 16 C 11.362001 2.519434 -16.273092 0
M  V30 17 C 11.844869 3.837773 -16.267801 0
M  V30 18 C 11.377784 4.731405 -15.265107 0
M  V30 19 C 11.855142 6.200243 -15.214193 0 CFG=1
M  V30 20 C 12.087727 6.626771 -13.744821 0
M  V30 21 N 13.029771 6.514894 -16.079218 0 CFG=2 CHG=1
M  V30 22 C 13.291335 7.968311 -16.256165 0
M  V30 23 C 12.910892 5.863366 -17.396433 0
M  V30 24 C 12.913887 4.354228 -17.217045 0
M  V30 25 H 5.606054 1.612600 -11.708474 0
M  V30 26 H 4.623980 1.441750 -13.263567 0
M  V30 27 H 5.354188 3.633499 -13.998994 0
M  V30 28 H 6.118810 5.127013 -12.186658 0
M  V30 29 H 6.746784 3.768684 -11.249101 0
M  V30 30 H 7.629042 5.969179 -10.804998 0
M  V30 31 H 9.202464 7.724464 -10.227763 0
M  V30 32 H 11.262024 8.059336 -11.569553 0
M  V30 33 H 9.412767 2.607930 -13.509102 0
M  V30 34 H 9.766493 -1.042183 -16.055382 0
M  V30 35 H 11.285906 -0.227458 -16.416737 0
M  V30 36 H 9.777876 0.305458 -17.188820 0
M  V30 37 H 11.731235 1.846216 -17.033648 0
M  V30 38 H 11.020000 6.772992 -15.619896 0
M  V30 39 H 12.365923 7.674941 -13.656647 0
M  V30 40 H 12.883452 6.032833 -13.309082 0
M  V30 41 H 12.485571 8.462916 -16.806896 0
M  V30 42 H 14.209515 8.114326 -16.829639 0
M  V30 43 H 13.421845 8.495308 -15.312232 0
M  V30 44 H 11.995810 6.189522 -17.896040 0
M  V30 45 H 13.748169 6.146785 -18.038769 0
M  V30 46 H 13.886879 4.022089 -16.846256 0
M  V30 47 H 12.775285 3.877019 -18.190592 0
M  V30 48 H 13.840679 6.115113 -15.623402 0
M  V30 END ATOM
M  V30 BEGIN BOND
M  V30 1 2 2 1
M  V30 2 1 3 2
M  V30 3 1 4 3
M  V30 4 1 5 4
M  V30 5 2 6 5
M  V30 6 1 7 6
M  V30 7 2 8 7
M  V30 8 1 9 8
M  V30 9 1 10 5
M  V30 10 2 10 9
M  V30 11 1 11 10
M  V30 12 2 12 11
M  V30 13 1 13 12
M  V30 14 1 14 13
M  V30 15 1 15 14
M  V30 16 2 16 13
M  V30 17 1 17 16
M  V30 18 1 18 11
M  V30 19 2 18 17
M  V30 20 1 19 18
M  V30 21 1 20 9
M  V30 22 1 20 19
M  V30 23 1 21 19
M  V30 24 1 22 21
M  V30 25 1 23 21
M  V30 26 1 24 17
M  V30 27 1 24 23
M  V30 28 1 25 1
M  V30 29 1 26 1
M  V30 30 1 27 2
M  V30 31 1 28 3
M  V30 32 1 29 3
M  V30 33 1 30 6
M  V30 34 1 31 7
M  V30 35 1 32 8
M  V30 36 1 33 12
M  V30 37 1 34 15
M  V30 38 1 35 15
M  V30 39 1 36 15
M  V30 40 1 37 16
M  V30 41 1 19 38 CFG=3
M  V30 42 1 39 20
M  V30 43 1 40 20
M  V30 44 1 41 22
M  V30 45 1 42 22
M  V30 46 1 43 22
M  V30 47 1 44 23
M  V30 48 1 45 23
M  V30 49 1 46 24
M  V30 50 1 47 24
M  V30 51 1 21 48 CFG=1
M  V30 END BOND
M  V30 END CTAB
M  END
>  <b_m_subgroup_collapsed>  (2283) 
0

>  <r_i_docking_score>  (2283) 
-5.8905003976277897

>  <s_m_subgroup_title>  (2283) 
glide-dock_SP_D22_pv

>  <s_m_subgroupid>  (2283) 
glide-dock_SP_D22_pv

>  <Molecule ChEMBL ID>  (2283) 
CHEMBL596886

>  <Standard Type>  (2283) 
Ki

>  <Standard Value>  (2283) 
10000.0

>  <label>  (2283) 
0

$$$$
CHEMBL4440301
     RDKit          3D

  0  0  0  0  0  0  0  0  0  0999 V3000
M  V30 BEGIN CTAB
M  V30 COUNTS 49 50 0 0 1
M  V30 BEGIN ATOM
M  V30 1 C 11.932740 8.053948 -3.740313 0
M  V30 2 C 11.474403 9.422085 -4.265096 0
M  V30 3 C 11.499501 9.549557 -5.800604 0
M  V30 4 C 10.459006 8.659254 -6.522234 0
M  V30 5 N 10.537133 8.747231 -8.005386 0 CHG=1
M  V30 6 C 9.290124 8.256973 -8.660871 0
M  V30 7 C 9.362842 8.355631 -10.198563 0
M  V30 8 N 10.612820 7.793623 -10.701582 0
M  V30 9 C 10.642009 6.968376 -11.846334 0
M  V30 10 C 11.681732 7.103668 -12.800730 0
M  V30 11 C 11.745486 6.267951 -13.934741 0
M  V30 12 C 12.868093 6.425785 -14.942457 0
M  V30 13 C 12.429651 7.164847 -16.208323 0
M  V30 14 C 10.761122 5.283833 -14.132463 0
M  V30 15 C 9.734324 5.115647 -13.189392 0
M  V30 16 Cl 8.550756 3.884618 -13.447739 0
M  V30 17 C 9.687241 5.927792 -12.035010 0
M  V30 18 O 8.745005 5.636537 -11.081830 0
M  V30 19 C 9.235912 4.794771 -10.052329 0
M  V30 20 C 11.844103 8.263092 -10.085155 0
M  V30 21 C 11.753332 8.092050 -8.561542 0
M  V30 22 H 11.927206 8.038663 -2.650815 0
M  V30 23 H 11.285916 7.244549 -4.077275 0
M  V30 24 H 12.945875 7.822678 -4.066447 0
M  V30 25 H 12.136203 10.172502 -3.837941 0
M  V30 26 H 10.486106 9.660775 -3.879373 0
M  V30 27 H 12.513381 9.331774 -6.132625 0
M  V30 28 H 11.316926 10.590919 -6.065833 0
M  V30 29 H 9.463426 8.971265 -6.205043 0
M  V30 30 H 10.561171 7.614475 -6.225797 0
M  V30 31 H 8.440965 8.837932 -8.304716 0
M  V30 32 H 9.104004 7.223805 -8.365191 0
M  V30 33 H 9.319024 9.396688 -10.496055 0
M  V30 34 H 8.486085 7.903306 -10.656168 0
M  V30 35 H 12.445344 7.855999 -12.672387 0
M  V30 36 H 13.686035 6.972857 -14.480084 0
M  V30 37 H 13.256173 5.438336 -15.197060 0
M  V30 38 H 13.256718 7.248620 -16.914335 0
M  V30 39 H 11.613329 6.645426 -16.708620 0
M  V30 40 H 12.091729 8.172225 -15.968327 0
M  V30 41 H 10.795431 4.648493 -15.004582 0
M  V30 42 H 8.418736 4.494501 -9.399660 0
M  V30 43 H 9.686213 3.892830 -10.466911 0
M  V30 44 H 9.986121 5.300752 -9.446433 0
M  V30 45 H 12.708991 7.711679 -10.453434 0
M  V30 46 H 11.997699 9.311423 -10.346897 0
M  V30 47 H 12.663432 8.494611 -8.117186 0
M  V30 48 H 11.715096 7.029755 -8.310238 0
M  V30 49 H 10.604044 9.726099 -8.243621 0
M  V30 END ATOM
M  V30 BEGIN BOND
M  V30 1 1 2 1
M  V30 2 1 3 2
M  V30 3 1 4 3
M  V30 4 1 5 4
M  V30 5 1 6 5
M  V30 6 1 7 6
M  V30 7 1 8 7
M  V30 8 1 9 8
M  V30 9 2 10 9
M  V30 10 1 11 10
M  V30 11 1 12 11
M  V30 12 1 13 12
M  V30 13 2 14 11
M  V30 14 1 15 14
M  V30 15 1 16 15
M  V30 16 1 17 9
M  V30 17 2 17 15
M  V30 18 1 18 17
M  V30 19 1 19 18
M  V30 20 1 20 8
M  V30 21 1 21 5
M  V30 22 1 21 20
M  V30 23 1 22 1
M  V30 24 1 23 1
M  V30 25 1 24 1
M  V30 26 1 25 2
M  V30 27 1 26 2
M  V30 28 1 27 3
M  V30 29 1 28 3
M  V30 30 1 29 4
M  V30 31 1 30 4
M  V30 32 1 31 6
M  V30 33 1 32 6
M  V30 34 1 33 7
M  V30 35 1 34 7
M  V30 36 1 35 10
M  V30 37 1 36 12
M  V30 38 1 37 12
M  V30 39 1 38 13
M  V30 40 1 39 13
M  V30 41 1 40 13
M  V30 42 1 41 14
M  V30 43 1 42 19
M  V30 44 1 43 19
M  V30 45 1 44 19
M  V30 46 1 45 20
M  V30 47 1 46 20
M  V30 48 1 47 21
M  V30 49 1 48 21
M  V30 50 1 49 5
M  V30 END BOND
M  V30 END CTAB
M  END
>  <b_m_subgroup_collapsed>  (2284) 
0

>  <r_i_docking_score>  (2284) 
-5.8902498236582002

>  <s_m_subgroup_title>  (2284) 
glide-dock_SP_D22_pv

>  <s_m_subgroupid>  (2284) 
glide-dock_SP_D22_pv

>  <Molecule ChEMBL ID>  (2284) 
CHEMBL4440301

>  <Standard Type>  (2284) 
Ki

>  <Standard Value>  (2284) 
29.8

>  <label>  (2284) 
1

$$$$
CHEMBL5940523
     RDKit          3D

  0  0  0  0  0  0  0  0  0  0999 V3000
M  V30 BEGIN CTAB
M  V30 COUNTS 74 77 0 0 1
M  V30 BEGIN ATOM
M  V30 1 C 13.249065 9.128037 -20.131176 0
M  V30 2 C 13.893440 8.202515 -19.125004 0
M  V30 3 N 13.104918 7.530936 -18.287346 0
M  V30 4 C 13.639332 6.680907 -17.390017 0
M  V30 5 N 12.756397 5.955290 -16.560047 0
M  V30 6 C 13.179198 5.476420 -15.245645 0
M  V30 7 C 12.442234 4.162578 -14.910708 0
M  V30 8 N 10.988441 4.337688 -14.930556 0
M  V30 9 C 10.547262 5.184857 -13.825305 0
M  V30 10 C 9.035805 5.083545 -13.563849 0
M  V30 11 C 8.632764 5.832084 -12.284674 0
M  V30 12 C 9.050766 5.093957 -10.998947 0
M  V30 13 N 8.885818 5.926250 -9.816012 0
M  V30 14 C 9.731427 6.894569 -9.425599 0
M  V30 15 O 10.707281 7.238575 -10.096565 0
M  V30 16 N 9.341331 7.522191 -8.297840 0
M  V30 17 C 8.886914 6.784047 -7.107365 0
M  V30 18 C 10.080741 6.603834 -6.145527 0
M  V30 19 N 10.710720 7.895532 -5.932978 0
M  V30 20 C 11.564535 8.347744 -4.993762 0
M  V30 21 C 12.079145 7.488961 -3.887317 0
M  V30 22 N 11.922972 9.622272 -5.173605 0
M  V30 23 N 11.286260 10.029229 -6.328923 0
M  V30 24 C 10.600374 8.961667 -6.747257 0
M  V30 25 C 9.749989 8.909007 -7.994239 0
M  V30 26 C 10.579815 4.804263 -16.260128 0
M  V30 27 C 11.301593 6.101378 -16.696215 0
M  V30 28 C 15.040398 6.510389 -17.345873 0
M  V30 29 C 15.833450 7.254581 -18.246841 0
M  V30 30 C 17.365540 7.153497 -18.328159 0
M  V30 31 C 17.756027 6.411369 -19.619993 0
M  V30 32 C 17.988670 8.566057 -18.330791 0
M  V30 33 C 17.970579 6.389136 -17.126657 0
M  V30 34 N 15.222572 8.079792 -19.127579 0 CHG=1
M  V30 35 H 12.170004 8.972068 -20.164474 0
M  V30 36 H 13.445141 10.166396 -19.855482 0
M  V30 37 H 13.647345 8.952084 -21.131195 0
M  V30 38 H 14.243921 5.287423 -15.176653 0
M  V30 39 H 12.978900 6.244859 -14.501449 0
M  V30 40 H 12.714640 3.401423 -15.644258 0
M  V30 41 H 12.756276 3.777336 -13.940288 0
M  V30 42 H 11.078182 4.852992 -12.937402 0
M  V30 43 H 10.837682 6.221546 -13.972302 0
M  V30 44 H 8.490888 5.512425 -14.401714 0
M  V30 45 H 8.727371 4.039885 -13.496420 0
M  V30 46 H 9.064148 6.833138 -12.311275 0
M  V30 47 H 7.551886 5.973552 -12.272582 0
M  V30 48 H 8.444808 4.196084 -10.880288 0
M  V30 49 H 10.084666 4.756539 -11.039653 0
M  V30 50 H 8.026770 5.825062 -9.293964 0
M  V30 51 H 8.088227 7.359493 -6.639487 0
M  V30 52 H 8.445765 5.813190 -7.336866 0
M  V30 53 H 10.821441 5.935288 -6.579377 0
M  V30 54 H 9.766251 6.178470 -5.192091 0
M  V30 55 H 11.286004 7.244452 -3.186250 0
M  V30 56 H 12.484617 6.566525 -4.293005 0
M  V30 57 H 12.871811 8.002931 -3.346985 0
M  V30 58 H 10.295576 9.370152 -8.818769 0
M  V30 59 H 8.850876 9.504882 -7.846547 0
M  V30 60 H 10.808430 4.015724 -16.978731 0
M  V30 61 H 9.500520 4.941370 -16.306345 0
M  V30 62 H 10.951307 6.947613 -16.104506 0
M  V30 63 H 11.023276 6.309729 -17.728590 0
M  V30 64 H 15.495496 5.816464 -16.665539 0
M  V30 65 H 17.332031 5.407172 -19.649773 0
M  V30 66 H 17.403389 6.937915 -20.508890 0
M  V30 67 H 18.838497 6.314917 -19.710903 0
M  V30 68 H 17.697058 9.137513 -17.449478 0
M  V30 69 H 19.076941 8.518015 -18.343174 0
M  V30 70 H 17.689880 9.144789 -19.204350 0
M  V30 71 H 17.596582 5.371489 -17.055321 0
M  V30 72 H 19.055584 6.317868 -17.203321 0
M  V30 73 H 17.746431 6.883110 -16.182762 0
M  V30 74 H 15.790275 8.609921 -19.788595 0
M  V30 END ATOM
M  V30 BEGIN BOND
M  V30 1 1 2 1
M  V30 2 2 3 2
M  V30 3 1 4 3
M  V30 4 1 5 4
M  V30 5 1 6 5
M  V30 6 1 7 6
M  V30 7 1 8 7
M  V30 8 1 9 8
M  V30 9 1 10 9
M  V30 10 1 11 10
M  V30 11 1 12 11
M  V30 12 1 13 12
M  V30 13 1 14 13
M  V30 14 2 15 14
M  V30 15 1 16 14
M  V30 16 1 17 16
M  V30 17 1 18 17
M  V30 18 1 19 18
M  V30 19 1 20 19
M  V30 20 1 21 20
M  V30 21 2 22 20
M  V30 22 1 23 22
M  V30 23 1 24 19
M  V30 24 2 24 23
M  V30 25 1 25 16
M  V30 26 1 25 24
M  V30 27 1 26 8
M  V30 28 1 27 5
M  V30 29 1 27 26
M  V30 30 2 28 4
M  V30 31 1 29 28
M  V30 32 1 30 29
M  V30 33 1 31 30
M  V30 34 1 32 30
M  V30 35 1 33 30
M  V30 36 1 34 2
M  V30 37 2 34 29
M  V30 38 1 35 1
M  V30 39 1 36 1
M  V30 40 1 37 1
M  V30 41 1 38 6
M  V30 42 1 39 6
M  V30 43 1 40 7
M  V30 44 1 41 7
M  V30 45 1 42 9
M  V30 46 1 43 9
M  V30 47 1 44 10
M  V30 48 1 45 10
M  V30 49 1 46 11
M  V30 50 1 47 11
M  V30 51 1 48 12
M  V30 52 1 49 12
M  V30 53 1 50 13
M  V30 54 1 51 17
M  V30 55 1 52 17
M  V30 56 1 53 18
M  V30 57 1 54 18
M  V30 58 1 55 21
M  V30 59 1 56 21
M  V30 60 1 57 21
M  V30 61 1 58 25
M  V30 62 1 59 25
M  V30 63 1 60 26
M  V30 64 1 61 26
M  V30 65 1 62 27
M  V30 66 1 63 27
M  V30 67 1 64 28
M  V30 68 1 65 31
M  V30 69 1 66 31
M  V30 70 1 67 31
M  V30 71 1 68 32
M  V30 72 1 69 32
M  V30 73 1 70 32
M  V30 74 1 71 33
M  V30 75 1 72 33
M  V30 76 1 73 33
M  V30 77 1 74 34
M  V30 END BOND
M  V30 END CTAB
M  END
>  <b_m_subgroup_collapsed>  (2285) 
0

>  <r_i_docking_score>  (2285) 
-5.8891901674196401

>  <s_m_subgroup_title>  (2285) 
glide-dock_SP_D22_pv

>  <s_m_subgroupid>  (2285) 
glide-dock_SP_D22_pv

>  <Molecule ChEMBL ID>  (2285) 
CHEMBL5940523

>  <Standard Type>  (2285) 
Ki

>  <Standard Value>  (2285) 
10541.0

>  <label>  (2285) 
0

$$$$
CHEMBL3221299
     RDKit          3D

  0  0  0  0  0  0  0  0  0  0999 V3000
M  V30 BEGIN CTAB
M  V30 COUNTS 49 51 0 0 1
M  V30 BEGIN ATOM
M  V30 1 C 9.580254 9.151562 -9.313576 0
M  V30 2 C 9.886411 7.978605 -10.239906 0
M  V30 3 N 8.886026 6.895036 -10.110709 0 CFG=2 CHG=1
M  V30 4 C 8.956343 6.148456 -8.827385 0
M  V30 5 C 8.972422 4.656078 -9.168784 0
M  V30 6 C 8.485472 4.594543 -10.610301 0
M  V30 7 C 8.944654 5.912487 -11.214001 0 CFG=1
M  V30 8 C 8.113577 6.352947 -12.439637 0
M  V30 9 N 7.917808 5.312036 -13.445788 0
M  V30 10 C 8.949400 4.487070 -13.920027 0
M  V30 11 N 10.199301 5.013571 -14.010244 0 CHG=1
M  V30 12 N 11.273586 4.321803 -14.414447 0
M  V30 13 C 11.094952 3.031706 -14.765082 0
M  V30 14 C 9.845554 2.386284 -14.723622 0
M  V30 15 C 9.720607 1.035643 -15.092840 0
M  V30 16 C 8.461686 0.414902 -15.049185 0
M  V30 17 C 7.312458 1.132366 -14.635196 0
M  V30 18 O 6.052227 0.570301 -14.605210 0
M  V30 19 C 5.907444 -0.810677 -14.905741 0
M  V30 20 C 7.443369 2.494838 -14.246952 0
M  V30 21 O 6.339856 3.219844 -13.843720 0
M  V30 22 C 5.544494 2.666860 -12.800109 0
M  V30 23 C 8.720067 3.130408 -14.296815 0
M  V30 24 H 10.338502 9.921649 -9.447116 0
M  V30 25 H 8.605431 9.580606 -9.545909 0
M  V30 26 H 9.580415 8.862049 -8.262609 0
M  V30 27 H 10.886314 7.589579 -10.043636 0
M  V30 28 H 9.892099 8.347396 -11.265862 0
M  V30 29 H 8.086292 6.397770 -8.223161 0
M  V30 30 H 9.837125 6.409520 -8.238404 0
M  V30 31 H 8.352505 4.064793 -8.492554 0
M  V30 32 H 9.992396 4.273344 -9.105801 0
M  V30 33 H 7.399294 4.502775 -10.650720 0
M  V30 34 H 8.924128 3.772421 -11.169947 0
M  V30 35 H 9.993343 5.792114 -11.490911 0
M  V30 36 H 8.542006 7.237331 -12.907095 0
M  V30 37 H 7.117226 6.644954 -12.106501 0
M  V30 38 H 7.008968 4.861044 -13.421000 0
M  V30 39 H 11.981212 2.506664 -15.091388 0
M  V30 40 H 10.584515 0.470583 -15.414283 0
M  V30 41 H 8.400804 -0.620444 -15.349333 0
M  V30 42 H 4.859836 -1.094022 -14.802548 0
M  V30 43 H 6.205918 -1.028351 -15.931910 0
M  V30 44 H 6.483545 -1.429533 -14.216533 0
M  V30 45 H 4.619748 2.247511 -13.194413 0
M  V30 46 H 6.059688 1.890211 -12.237559 0
M  V30 47 H 5.278907 3.455500 -12.096720 0
M  V30 48 H 10.331522 5.994461 -13.764017 0
M  V30 49 H 7.945678 7.313330 -10.146867 0
M  V30 END ATOM
M  V30 BEGIN BOND
M  V30 1 1 2 1
M  V30 2 1 3 2
M  V30 3 1 4 3
M  V30 4 1 5 4
M  V30 5 1 6 5
M  V30 6 1 7 3
M  V30 7 1 7 6
M  V30 8 1 8 7
M  V30 9 1 9 8
M  V30 10 1 10 9
M  V30 11 1 11 10
M  V30 12 2 12 11
M  V30 13 1 13 12
M  V30 14 2 14 13
M  V30 15 1 15 14
M  V30 16 2 16 15
M  V30 17 1 17 16
M  V30 18 1 18 17
M  V30 19 1 19 18
M  V30 20 2 20 17
M  V30 21 1 21 20
M  V30 22 1 22 21
M  V30 23 2 23 10
M  V30 24 1 23 14
M  V30 25 1 23 20
M  V30 26 1 24 1
M  V30 27 1 25 1
M  V30 28 1 26 1
M  V30 29 1 27 2
M  V30 30 1 28 2
M  V30 31 1 29 4
M  V30 32 1 30 4
M  V30 33 1 31 5
M  V30 34 1 32 5
M  V30 35 1 33 6
M  V30 36 1 34 6
M  V30 37 1 7 35 CFG=3
M  V30 38 1 36 8
M  V30 39 1 37 8
M  V30 40 1 38 9
M  V30 41 1 39 13
M  V30 42 1 40 15
M  V30 43 1 41 16
M  V30 44 1 42 19
M  V30 45 1 43 19
M  V30 46 1 44 19
M  V30 47 1 45 22
M  V30 48 1 46 22
M  V30 49 1 47 22
M  V30 50 1 48 11
M  V30 51 1 3 49 CFG=1
M  V30 END BOND
M  V30 END CTAB
M  END
>  <b_m_subgroup_collapsed>  (2286) 
0

>  <r_i_docking_score>  (2286) 
-5.8864743421098797

>  <s_m_subgroup_title>  (2286) 
glide-dock_SP_D22_pv

>  <s_m_subgroupid>  (2286) 
glide-dock_SP_D22_pv

>  <Molecule ChEMBL ID>  (2286) 
CHEMBL3221299

>  <Standard Type>  (2286) 
Ki

>  <Standard Value>  (2286) 
3.9

>  <label>  (2286) 
1

$$$$
CHEMBL405345
     RDKit          3D

  0  0  0  0  0  0  0  0  0  0999 V3000
M  V30 BEGIN CTAB
M  V30 COUNTS 47 50 0 0 1
M  V30 BEGIN ATOM
M  V30 1 C 7.709428 0.293153 -14.052906 0
M  V30 2 C 6.665914 1.418628 -14.059461 0
M  V30 3 C 7.214763 2.769280 -14.560559 0
M  V30 4 N 7.882390 3.553096 -13.479441 0 CFG=2 CHG=1
M  V30 5 C 6.900606 4.399637 -12.777075 0
M  V30 6 C 7.524668 4.981561 -11.522403 0
M  V30 7 C 8.804940 5.755627 -11.765050 0
M  V30 8 C 9.293334 6.752513 -10.906211 0
M  V30 9 C 10.532433 7.372152 -11.167291 0
M  V30 10 O 11.091861 8.345779 -10.369822 0
M  V30 11 C 10.345862 8.802484 -9.251038 0
M  V30 12 C 11.266313 6.973072 -12.300606 0
M  V30 13 C 10.818230 5.995475 -13.228489 0
M  V30 14 C 9.566235 5.402825 -12.910648 0
M  V30 15 C 9.063667 4.345387 -13.919704 0 CFG=1
M  V30 16 C 10.243349 3.440319 -14.346596 0
M  V30 17 C 11.361655 4.277308 -14.936132 0
M  V30 18 C 12.089753 3.780298 -16.036713 0
M  V30 19 C 13.054296 4.585557 -16.662001 0
M  V30 20 C 13.266638 5.896057 -16.205418 0
M  V30 21 C 12.540812 6.399301 -15.106034 0
M  V30 22 O 12.747427 7.703801 -14.762376 0
M  V30 23 C 11.601149 5.576058 -14.423020 0
M  V30 24 H 7.276466 -0.625568 -13.655614 0
M  V30 25 H 8.575850 0.545966 -13.449017 0
M  V30 26 H 8.061303 0.073560 -15.062063 0
M  V30 27 H 5.855494 1.104353 -14.718057 0
M  V30 28 H 6.212902 1.520984 -13.071452 0
M  V30 29 H 7.859956 2.594122 -15.419310 0
M  V30 30 H 6.386664 3.356284 -14.959528 0
M  V30 31 H 6.559313 5.197627 -13.440189 0
M  V30 32 H 6.019407 3.820685 -12.499525 0
M  V30 33 H 6.808025 5.655561 -11.051127 0
M  V30 34 H 7.724151 4.191852 -10.796960 0
M  V30 35 H 8.694561 7.017367 -10.045760 0
M  V30 36 H 10.920798 9.564677 -8.726780 0
M  V30 37 H 10.149876 7.996143 -8.543917 0
M  V30 38 H 9.400229 9.251083 -9.557811 0
M  V30 39 H 12.226747 7.436935 -12.439008 0
M  V30 40 H 8.740200 4.916089 -14.792088 0
M  V30 41 H 10.631860 2.891750 -13.487136 0
M  V30 42 H 9.951551 2.693096 -15.081753 0
M  V30 43 H 11.900369 2.784441 -16.414305 0
M  V30 44 H 13.613130 4.204602 -17.505533 0
M  V30 45 H 13.985125 6.520968 -16.715338 0
M  V30 46 H 13.391524 8.134672 -15.302823 0
M  V30 47 H 8.240060 2.890627 -12.807158 0
M  V30 END ATOM
M  V30 BEGIN BOND
M  V30 1 1 2 1
M  V30 2 1 3 2
M  V30 3 1 4 3
M  V30 4 1 5 4
M  V30 5 1 6 5
M  V30 6 1 7 6
M  V30 7 1 8 7
M  V30 8 2 9 8
M  V30 9 1 10 9
M  V30 10 1 11 10
M  V30 11 1 12 9
M  V30 12 2 13 12
M  V30 13 2 14 7
M  V30 14 1 14 13
M  V30 15 1 15 4
M  V30 16 1 15 14
M  V30 17 1 16 15
M  V30 18 1 17 16
M  V30 19 2 18 17
M  V30 20 1 19 18
M  V30 21 2 20 19
M  V30 22 1 21 20
M  V30 23 1 22 21
M  V30 24 1 23 13
M  V30 25 1 23 17
M  V30 26 2 23 21
M  V30 27 1 24 1
M  V30 28 1 25 1
M  V30 29 1 26 1
M  V30 30 1 27 2
M  V30 31 1 28 2
M  V30 32 1 29 3
M  V30 33 1 30 3
M  V30 34 1 31 5
M  V30 35 1 32 5
M  V30 36 1 33 6
M  V30 37 1 34 6
M  V30 38 1 35 8
M  V30 39 1 36 11
M  V30 40 1 37 11
M  V30 41 1 38 11
M  V30 42 1 39 12
M  V30 43 1 15 40 CFG=3
M  V30 44 1 41 16
M  V30 45 1 42 16
M  V30 46 1 43 18
M  V30 47 1 44 19
M  V30 48 1 45 20
M  V30 49 1 46 22
M  V30 50 1 4 47 CFG=1
M  V30 END BOND
M  V30 END CTAB
M  END
>  <b_m_subgroup_collapsed>  (2287) 
0

>  <r_i_docking_score>  (2287) 
-5.8860893235734499

>  <s_m_subgroup_title>  (2287) 
glide-dock_SP_D22_pv

>  <s_m_subgroupid>  (2287) 
glide-dock_SP_D22_pv

>  <Molecule ChEMBL ID>  (2287) 
CHEMBL405345

>  <Standard Type>  (2287) 
Ki

>  <Standard Value>  (2287) 
44.0

>  <label>  (2287) 
1

$$$$
CHEMBL509451
     RDKit          3D

  0  0  0  0  0  0  0  0  0  0999 V3000
M  V30 BEGIN CTAB
M  V30 COUNTS 97 104 0 0 1
M  V30 BEGIN ATOM
M  V30 1 C 11.192447 9.997377 -6.411900 0
M  V30 2 C 10.249867 9.129766 -7.260070 0
M  V30 3 C 10.992289 8.336210 -8.362700 0
M  V30 4 N 10.104583 7.398764 -9.116222 0 CFG=2 CHG=1
M  V30 5 C 9.658029 6.262763 -8.277099 0
M  V30 6 C 8.469368 5.615778 -8.958529 0
M  V30 7 C 8.610650 5.315131 -10.435049 0
M  V30 8 C 7.687256 4.565802 -11.167036 0
M  V30 9 C 7.803330 4.399522 -12.548314 0
M  V30 10 C 8.907320 4.952425 -13.201247 0
M  V30 11 C 9.908648 5.688429 -12.515421 0
M  V30 12 C 9.685788 5.911691 -11.130925 0
M  V30 13 C 10.681467 6.823034 -10.368670 0 CFG=1
M  V30 14 C 11.424408 7.826343 -11.300985 0
M  V30 15 C 11.823629 7.248707 -12.668475 0
M  V30 16 C 12.886273 7.800043 -13.419291 0
M  V30 17 C 13.193325 7.317302 -14.709200 0
M  V30 18 C 12.510408 6.207843 -15.234734 0
M  V30 19 O 12.856193 5.607301 -16.424887 0
M  V30 20 C 13.094819 6.326009 -17.545120 0
M  V30 21 O 12.892063 7.529545 -17.699186 0
M  V30 22 C 13.686636 5.477531 -18.672909 0
M  V30 23 C 12.631434 4.935615 -19.663841 0
M  V30 24 C 12.668571 3.405917 -19.858740 0
M  V30 25 C 12.252272 2.597975 -18.628672 0
M  V30 26 O 12.891233 1.611022 -18.265921 0
M  V30 27 O 11.115050 3.054904 -18.068808 0
M  V30 28 C 10.523472 2.381338 -17.027859 0
M  V30 29 C 11.138568 2.436498 -15.760038 0
M  V30 30 C 10.551145 1.816124 -14.647403 0
M  V30 31 C 9.367218 1.083123 -14.807716 0
M  V30 32 C 8.765642 0.997325 -16.076645 0
M  V30 33 C 9.300919 1.674835 -17.200691 0
M  V30 34 C 8.580123 1.548388 -18.500032 0
M  V30 35 C 8.653047 2.511219 -19.540974 0
M  V30 36 C 8.025957 2.345578 -20.788092 0
M  V30 37 C 7.263142 1.197344 -21.046463 0
M  V30 38 C 7.103815 0.224583 -20.045238 0
M  V30 39 C 7.738923 0.439131 -18.787426 0
M  V30 40 C 7.571819 -0.571885 -17.636765 0 CFG=1
M  V30 41 C 7.546443 0.122399 -16.257721 0
M  V30 42 N 6.484564 -1.571920 -17.814922 0 CFG=1 CHG=1
M  V30 43 C 5.122957 -1.125821 -17.389940 0
M  V30 44 C 4.051331 -2.228380 -17.459908 0
M  V30 45 C 3.226145 -2.228481 -18.751722 0
M  V30 46 C 6.567358 -2.134940 -19.177607 0
M  V30 47 C 6.273428 -1.039193 -20.205898 0
M  V30 48 C 11.460609 5.662477 -14.485058 0
M  V30 49 C 11.084740 6.191572 -13.228461 0
M  V30 50 H 10.644690 10.515590 -5.622477 0
M  V30 51 H 11.678807 10.753475 -7.028347 0
M  V30 52 H 11.970068 9.393634 -5.937075 0
M  V30 53 H 9.723699 8.474261 -6.565393 0
M  V30 54 H 9.482537 9.769354 -7.712400 0
M  V30 55 H 11.420418 9.078834 -9.031640 0
M  V30 56 H 11.829371 7.778805 -7.938098 0
M  V30 57 H 10.466210 5.545823 -8.122330 0
M  V30 58 H 9.338064 6.564617 -7.284312 0
M  V30 59 H 8.099313 4.739275 -8.419393 0
M  V30 60 H 7.686064 6.341263 -8.904746 0
M  V30 61 H 6.886197 4.066301 -10.653201 0
M  V30 62 H 7.071382 3.827512 -13.094535 0
M  V30 63 H 8.962370 4.796320 -14.266566 0
M  V30 64 H 11.434734 6.172509 -9.953403 0
M  V30 65 H 10.772524 8.690245 -11.446765 0
M  V30 66 H 12.333268 8.188601 -10.819332 0
M  V30 67 H 13.451401 8.629866 -13.024392 0
M  V30 68 H 13.976903 7.767787 -15.294953 0
M  V30 69 H 14.399867 6.100407 -19.213121 0
M  V30 70 H 14.267246 4.663672 -18.239777 0
M  V30 71 H 11.626744 5.249967 -19.379333 0
M  V30 72 H 12.805830 5.403152 -20.633429 0
M  V30 73 H 11.998007 3.130154 -20.674994 0
M  V30 74 H 13.669354 3.089967 -20.161274 0
M  V30 75 H 12.069208 2.967453 -15.635024 0
M  V30 76 H 11.022512 1.878709 -13.679585 0
M  V30 77 H 8.939676 0.575095 -13.955795 0
M  V30 78 H 9.202484 3.429511 -19.403097 0
M  V30 79 H 8.127565 3.103577 -21.551273 0
M  V30 80 H 6.781486 1.068456 -22.004494 0
M  V30 81 H 8.494327 -1.162106 -17.656250 0
M  V30 82 H 7.490717 -0.619502 -15.457405 0
M  V30 83 H 6.677475 0.776310 -16.168257 0
M  V30 84 H 5.168022 -0.847618 -16.336401 0
M  V30 85 H 4.801733 -0.228180 -17.923506 0
M  V30 86 H 4.480881 -3.211112 -17.269060 0
M  V30 87 H 3.345438 -2.066919 -16.646692 0
M  V30 88 H 2.364263 -2.885525 -18.645323 0
M  V30 89 H 3.781314 -2.587255 -19.618597 0
M  V30 90 H 2.859642 -1.226918 -18.980721 0
M  V30 91 H 7.571718 -2.524704 -19.339302 0
M  V30 92 H 5.911104 -2.994276 -19.299002 0
M  V30 93 H 5.222643 -0.750757 -20.180086 0
M  V30 94 H 6.446782 -1.436226 -21.207298 0
M  V30 95 H 10.923387 4.835811 -14.914392 0
M  V30 96 H 9.275622 7.917954 -9.390697 0
M  V30 97 H 6.718779 -2.323272 -17.174734 0
M  V30 END ATOM
M  V30 BEGIN BOND
M  V30 1 1 2 1
M  V30 2 1 3 2
M  V30 3 1 4 3
M  V30 4 1 5 4
M  V30 5 1 6 5
M  V30 6 1 7 6
M  V30 7 1 8 7
M  V30 8 2 9 8
M  V30 9 1 10 9
M  V30 10 2 11 10
M  V30 11 2 12 7
M  V30 12 1 12 11
M  V30 13 1 13 4
M  V30 14 1 13 12
M  V30 15 1 14 13
M  V30 16 1 15 14
M  V30 17 2 16 15
M  V30 18 1 17 16
M  V30 19 2 18 17
M  V30 20 1 19 18
M  V30 21 1 20 19
M  V30 22 2 21 20
M  V30 23 1 22 20
M  V30 24 1 23 22
M  V30 25 1 24 23
M  V30 26 1 25 24
M  V30 27 2 26 25
M  V30 28 1 27 25
M  V30 29 1 28 27
M  V30 30 2 29 28
M  V30 31 1 30 29
M  V30 32 2 31 30
M  V30 33 1 32 31
M  V30 34 1 33 28
M  V30 35 2 33 32
M  V30 36 1 34 33
M  V30 37 2 35 34
M  V30 38 1 36 35
M  V30 39 2 37 36
M  V30 40 1 38 37
M  V30 41 1 39 34
M  V30 42 2 39 38
M  V30 43 1 40 39
M  V30 44 1 41 32
M  V30 45 1 41 40
M  V30 46 1 42 40
M  V30 47 1 43 42
M  V30 48 1 44 43
M  V30 49 1 45 44
M  V30 50 1 46 42
M  V30 51 1 47 38
M  V30 52 1 47 46
M  V30 53 1 48 18
M  V30 54 1 49 11
M  V30 55 1 49 15
M  V30 56 2 49 48
M  V30 57 1 50 1
M  V30 58 1 51 1
M  V30 59 1 52 1
M  V30 60 1 53 2
M  V30 61 1 54 2
M  V30 62 1 55 3
M  V30 63 1 56 3
M  V30 64 1 57 5
M  V30 65 1 58 5
M  V30 66 1 59 6
M  V30 67 1 60 6
M  V30 68 1 61 8
M  V30 69 1 62 9
M  V30 70 1 63 10
M  V30 71 1 13 64 CFG=1
M  V30 72 1 65 14
M  V30 73 1 66 14
M  V30 74 1 67 16
M  V30 75 1 68 17
M  V30 76 1 69 22
M  V30 77 1 70 22
M  V30 78 1 71 23
M  V30 79 1 72 23
M  V30 80 1 73 24
M  V30 81 1 74 24
M  V30 82 1 75 29
M  V30 83 1 76 30
M  V30 84 1 77 31
M  V30 85 1 78 35
M  V30 86 1 79 36
M  V30 87 1 80 37
M  V30 88 1 40 81 CFG=1
M  V30 89 1 82 41
M  V30 90 1 83 41
M  V30 91 1 84 43
M  V30 92 1 85 43
M  V30 93 1 86 44
M  V30 94 1 87 44
M  V30 95 1 88 45
M  V30 96 1 89 45
M  V30 97 1 90 45
M  V30 98 1 91 46
M  V30 99 1 92 46
M  V30 100 1 93 47
M  V30 101 1 94 47
M  V30 102 1 95 48
M  V30 103 1 4 96 CFG=3
M  V30 104 1 42 97 CFG=1
M  V30 END BOND
M  V30 END CTAB
M  END
>  <b_m_subgroup_collapsed>  (2288) 
0

>  <r_i_docking_score>  (2288) 
-5.8844597043830102

>  <s_m_subgroup_title>  (2288) 
glide-dock_SP_D22_pv

>  <s_m_subgroupid>  (2288) 
glide-dock_SP_D22_pv

>  <Molecule ChEMBL ID>  (2288) 
CHEMBL509451

>  <Standard Type>  (2288) 
Ki

>  <Standard Value>  (2288) 
10000.0

>  <label>  (2288) 
0

$$$$
CHEMBL285802
     RDKit          3D

  0  0  0  0  0  0  0  0  0  0999 V3000
M  V30 BEGIN CTAB
M  V30 COUNTS 41 43 0 0 1
M  V30 BEGIN ATOM
M  V30 1 C 8.718435 6.072812 -8.488234 0
M  V30 2 N 8.886024 7.178448 -9.462483 0 CHG=1
M  V30 3 C 9.285811 8.436273 -8.792382 0
M  V30 4 C 9.777987 6.849830 -10.604558 0
M  V30 5 C 9.216905 5.741988 -11.507525 0
M  V30 6 O 10.077037 5.588342 -12.634164 0
M  V30 7 C 9.808845 4.592641 -13.557836 0
M  V30 8 C 8.728390 3.770103 -13.449413 0
M  V30 9 C 8.305110 2.593150 -14.246861 0
M  V30 10 C 6.930369 2.279230 -14.273561 0
M  V30 11 C 6.476930 1.107754 -14.910183 0
M  V30 12 C 7.357933 0.267034 -15.602669 0
M  V30 13 C 8.723849 0.572550 -15.601371 0
M  V30 14 C 9.184511 1.703794 -14.902483 0
M  V30 15 S 10.886024 1.813190 -14.646922 0
M  V30 16 C 11.283479 3.389194 -15.280373 0
M  V30 17 C 12.183612 3.448789 -16.362595 0
M  V30 18 C 12.714341 4.682448 -16.775890 0
M  V30 19 C 12.355967 5.851780 -16.085659 0
M  V30 20 Cl 13.044915 7.369355 -16.532383 0
M  V30 21 C 11.434675 5.784268 -15.024598 0
M  V30 22 C 10.843240 4.562958 -14.625669 0
M  V30 23 H 9.679338 5.753130 -8.082785 0
M  V30 24 H 8.087491 6.383698 -7.653904 0
M  V30 25 H 8.229941 5.211450 -8.942153 0
M  V30 26 H 10.273387 8.345739 -8.338308 0
M  V30 27 H 9.306767 9.264161 -9.502713 0
M  V30 28 H 8.570689 8.699094 -8.010938 0
M  V30 29 H 10.766311 6.572021 -10.235894 0
M  V30 30 H 9.910768 7.745784 -11.212906 0
M  V30 31 H 8.209556 6.008703 -11.832869 0
M  V30 32 H 9.171845 4.804117 -10.952511 0
M  V30 33 H 8.054231 3.911959 -12.621707 0
M  V30 34 H 6.217892 2.908876 -13.760338 0
M  V30 35 H 5.429002 0.851441 -14.871845 0
M  V30 36 H 6.996999 -0.626542 -16.091846 0
M  V30 37 H 9.423226 -0.104685 -16.070059 0
M  V30 38 H 12.513033 2.538721 -16.843039 0
M  V30 39 H 13.422899 4.724487 -17.589609 0
M  V30 40 H 11.196685 6.698566 -14.509358 0
M  V30 41 H 7.947645 7.372061 -9.838930 0
M  V30 END ATOM
M  V30 BEGIN BOND
M  V30 1 1 2 1
M  V30 2 1 3 2
M  V30 3 1 4 2
M  V30 4 1 5 4
M  V30 5 1 6 5
M  V30 6 1 7 6
M  V30 7 2 8 7
M  V30 8 1 9 8
M  V30 9 2 10 9
M  V30 10 1 11 10
M  V30 11 2 12 11
M  V30 12 1 13 12
M  V30 13 1 14 9
M  V30 14 2 14 13
M  V30 15 1 15 14
M  V30 16 1 16 15
M  V30 17 1 17 16
M  V30 18 2 18 17
M  V30 19 1 19 18
M  V30 20 1 20 19
M  V30 21 2 21 19
M  V30 22 1 22 7
M  V30 23 2 22 16
M  V30 24 1 22 21
M  V30 25 1 23 1
M  V30 26 1 24 1
M  V30 27 1 25 1
M  V30 28 1 26 3
M  V30 29 1 27 3
M  V30 30 1 28 3
M  V30 31 1 29 4
M  V30 32 1 30 4
M  V30 33 1 31 5
M  V30 34 1 32 5
M  V30 35 1 33 8
M  V30 36 1 34 10
M  V30 37 1 35 11
M  V30 38 1 36 12
M  V30 39 1 37 13
M  V30 40 1 38 17
M  V30 41 1 39 18
M  V30 42 1 40 21
M  V30 43 1 41 2
M  V30 END BOND
M  V30 END CTAB
M  END
>  <b_m_subgroup_collapsed>  (2289) 
0

>  <r_i_docking_score>  (2289) 
-5.88397447697698

>  <s_m_subgroup_title>  (2289) 
glide-dock_SP_D22_pv

>  <s_m_subgroupid>  (2289) 
glide-dock_SP_D22_pv

>  <Molecule ChEMBL ID>  (2289) 
CHEMBL285802

>  <Standard Type>  (2289) 
Ki

>  <Standard Value>  (2289) 
11.0

>  <label>  (2289) 
1

$$$$
CHEMBL596179
     RDKit          3D

  0  0  0  0  0  0  0  0  0  0999 V3000
M  V30 BEGIN CTAB
M  V30 COUNTS 42 44 0 0 1
M  V30 BEGIN ATOM
M  V30 1 C 10.152690 4.972394 -16.567648 0
M  V30 2 N 11.356831 4.204283 -16.159285 0 CFG=1 CHG=1
M  V30 3 C 12.053492 4.744522 -14.959327 0
M  V30 4 C 11.145395 5.157113 -13.777390 0
M  V30 5 C 10.401948 4.018607 -13.047038 0
M  V30 6 C 8.896661 4.012706 -13.267591 0
M  V30 7 C 8.171288 5.081351 -12.691730 0
M  V30 8 C 6.770581 5.131670 -12.777571 0
M  V30 9 O 6.070805 6.172685 -12.246870 0
M  V30 10 C 6.076575 4.111023 -13.445819 0
M  V30 11 C 6.784792 3.039870 -14.015904 0
M  V30 12 C 8.193597 2.971792 -13.939013 0
M  V30 13 C 8.857701 1.723702 -14.517197 0
M  V30 14 C 8.888462 1.686822 -16.044249 0
M  V30 15 C 7.765437 1.149237 -16.713343 0
M  V30 16 C 7.730145 1.060389 -18.116245 0
M  V30 17 C 8.828510 1.503045 -18.871931 0
M  V30 18 C 9.957598 2.031086 -18.219790 0
M  V30 19 C 9.998955 2.135320 -16.811232 0
M  V30 20 C 11.261109 2.713403 -16.177605 0
M  V30 21 H 9.305668 4.797248 -15.906107 0
M  V30 22 H 9.845208 4.723274 -17.582760 0
M  V30 23 H 10.376150 6.039516 -16.564299 0
M  V30 24 H 12.827393 4.052037 -14.624993 0
M  V30 25 H 12.593121 5.635649 -15.285583 0
M  V30 26 H 11.807796 5.623697 -13.048011 0
M  V30 27 H 10.462762 5.957003 -14.059865 0
M  V30 28 H 10.884819 3.064034 -13.218625 0
M  V30 29 H 10.486288 4.173167 -11.971766 0
M  V30 30 H 8.694766 5.869937 -12.168453 0
M  V30 31 H 6.485853 6.708015 -11.568892 0
M  V30 32 H 4.999963 4.145349 -13.516315 0
M  V30 33 H 6.229434 2.254482 -14.503994 0
M  V30 34 H 9.824421 1.502914 -14.080602 0
M  V30 35 H 8.259536 0.873186 -14.185925 0
M  V30 36 H 6.918913 0.785518 -16.148577 0
M  V30 37 H 6.865591 0.639554 -18.609667 0
M  V30 38 H 8.810382 1.429955 -19.949389 0
M  V30 39 H 10.798226 2.360042 -18.813383 0
M  V30 40 H 12.115562 2.352014 -16.752598 0
M  V30 41 H 11.429041 2.290430 -15.192964 0
M  V30 42 H 12.006646 4.387726 -16.910442 0
M  V30 END ATOM
M  V30 BEGIN BOND
M  V30 1 1 2 1
M  V30 2 1 3 2
M  V30 3 1 4 3
M  V30 4 1 5 4
M  V30 5 1 6 5
M  V30 6 1 7 6
M  V30 7 2 8 7
M  V30 8 1 9 8
M  V30 9 1 10 8
M  V30 10 2 11 10
M  V30 11 2 12 6
M  V30 12 1 12 11
M  V30 13 1 13 12
M  V30 14 1 14 13
M  V30 15 2 15 14
M  V30 16 1 16 15
M  V30 17 2 17 16
M  V30 18 1 18 17
M  V30 19 1 19 14
M  V30 20 2 19 18
M  V30 21 1 20 2
M  V30 22 1 20 19
M  V30 23 1 21 1
M  V30 24 1 22 1
M  V30 25 1 23 1
M  V30 26 1 24 3
M  V30 27 1 25 3
M  V30 28 1 26 4
M  V30 29 1 27 4
M  V30 30 1 28 5
M  V30 31 1 29 5
M  V30 32 1 30 7
M  V30 33 1 31 9
M  V30 34 1 32 10
M  V30 35 1 33 11
M  V30 36 1 34 13
M  V30 37 1 35 13
M  V30 38 1 36 15
M  V30 39 1 37 16
M  V30 40 1 38 17
M  V30 41 1 39 18
M  V30 42 1 40 20
M  V30 43 1 41 20
M  V30 44 1 2 42 CFG=3
M  V30 END BOND
M  V30 END CTAB
M  END
>  <b_m_subgroup_collapsed>  (2290) 
0

>  <r_i_docking_score>  (2290) 
-5.8827943632769699

>  <s_m_subgroup_title>  (2290) 
glide-dock_SP_D22_pv

>  <s_m_subgroupid>  (2290) 
glide-dock_SP_D22_pv

>  <Molecule ChEMBL ID>  (2290) 
CHEMBL596179

>  <Standard Type>  (2290) 
Ki

>  <Standard Value>  (2290) 
10000.0

>  <label>  (2290) 
0

$$$$
CHEMBL229429
     RDKit          3D

  0  0  0  0  0  0  0  0  0  0999 V3000
M  V30 BEGIN CTAB
M  V30 COUNTS 24 25 0 0 1
M  V30 BEGIN ATOM
M  V30 1 N 10.485827 2.086579 -14.874048 0
M  V30 2 C 9.760676 2.744568 -14.257120 0
M  V30 3 C 8.847621 3.573950 -13.487922 0
M  V30 4 C 7.485063 3.645166 -13.845201 0
M  V30 5 C 6.597095 4.436952 -13.090906 0
M  V30 6 F 5.292479 4.512428 -13.446435 0
M  V30 7 C 7.071609 5.164960 -11.984282 0
M  V30 8 C 8.430323 5.089209 -11.617908 0
M  V30 9 C 8.920808 5.828179 -10.466567 0
M  V30 10 C 9.324755 6.444569 -9.494497 0
M  V30 11 C 9.792240 7.153656 -8.355207 0
M  V30 12 C 9.831800 8.514951 -8.195497 0
M  V30 13 S 10.492834 8.972841 -6.650390 0
M  V30 14 C 10.701931 7.274028 -6.266031 0
M  V30 15 C 11.268366 6.779236 -4.977370 0
M  V30 16 F 11.746164 7.778041 -4.233844 0
M  V30 17 N 10.306341 6.467718 -7.252766 0
M  V30 18 C 9.317192 4.294839 -12.371929 0
M  V30 19 H 7.111579 3.092796 -14.694452 0
M  V30 20 H 6.385797 5.772431 -11.412195 0
M  V30 21 H 9.499479 9.267879 -8.891858 0
M  V30 22 H 10.498079 6.267140 -4.400141 0
M  V30 23 H 12.085166 6.083453 -5.166620 0
M  V30 24 H 10.357424 4.229939 -12.090172 0
M  V30 END ATOM
M  V30 BEGIN BOND
M  V30 1 3 2 1
M  V30 2 1 3 2
M  V30 3 1 4 3
M  V30 4 2 5 4
M  V30 5 1 6 5
M  V30 6 1 7 5
M  V30 7 2 8 7
M  V30 8 1 9 8
M  V30 9 3 10 9
M  V30 10 1 11 10
M  V30 11 2 12 11
M  V30 12 1 13 12
M  V30 13 1 14 13
M  V30 14 1 15 14
M  V30 15 1 16 15
M  V30 16 1 17 11
M  V30 17 2 17 14
M  V30 18 2 18 3
M  V30 19 1 18 8
M  V30 20 1 19 4
M  V30 21 1 20 7
M  V30 22 1 21 12
M  V30 23 1 22 15
M  V30 24 1 23 15
M  V30 25 1 24 18
M  V30 END BOND
M  V30 END CTAB
M  END
>  <b_m_subgroup_collapsed>  (2291) 
0

>  <r_i_docking_score>  (2291) 
-5.8823942371181399

>  <s_m_subgroup_title>  (2291) 
glide-dock_SP_D22_pv

>  <s_m_subgroupid>  (2291) 
glide-dock_SP_D22_pv

>  <Molecule ChEMBL ID>  (2291) 
CHEMBL229429

>  <Standard Type>  (2291) 
Ki

>  <Standard Value>  (2291) 
10000.0

>  <label>  (2291) 
0

$$$$
CHEMBL45168
     RDKit          3D

  0  0  0  0  0  0  0  0  0  0999 V3000
M  V30 BEGIN CTAB
M  V30 COUNTS 38 39 0 0 1
M  V30 BEGIN ATOM
M  V30 1 F 6.628553 4.369670 -13.439280 0
M  V30 2 C 7.503019 4.387487 -12.434572 0
M  V30 3 C 7.695060 5.825047 -11.937692 0
M  V30 4 N 8.811769 5.951654 -10.962890 0 CFG=2 CHG=1
M  V30 5 C 8.485009 5.378026 -9.632072 0
M  V30 6 C 9.712659 5.385631 -8.714318 0
M  V30 7 C 10.272712 6.804347 -8.525253 0 CFG=2
M  V30 8 C 9.371537 7.651618 -7.598137 0
M  V30 9 O 10.075991 8.774343 -7.081745 0
M  V30 10 C 10.728580 8.635287 -5.873190 0
M  V30 11 C 10.959915 9.818645 -5.147038 0
M  V30 12 C 11.561700 9.772316 -3.878601 0
M  V30 13 C 11.985987 8.552813 -3.335008 0
M  V30 14 I 12.884464 8.572520 -1.449465 0
M  V30 15 C 11.778650 7.359933 -4.052894 0
M  V30 16 C 11.146950 7.398694 -5.314876 0
M  V30 17 C 10.516890 7.455881 -9.902183 0
M  V30 18 C 9.296181 7.354154 -10.838997 0
M  V30 19 H 8.429513 3.946756 -12.805485 0
M  V30 20 H 7.091250 3.750007 -11.652935 0
M  V30 21 H 6.763209 6.172318 -11.494073 0
M  V30 22 H 7.894705 6.464453 -12.798523 0
M  V30 23 H 8.110970 4.360046 -9.726136 0
M  V30 24 H 7.686338 5.959555 -9.175461 0
M  V30 25 H 10.483293 4.731853 -9.120667 0
M  V30 26 H 9.440703 4.969354 -7.746988 0
M  V30 27 H 11.242086 6.699646 -8.039493 0
M  V30 28 H 8.954879 7.055691 -6.785128 0
M  V30 29 H 8.502079 8.024975 -8.141649 0
M  V30 30 H 10.636580 10.767471 -5.549999 0
M  V30 31 H 11.686153 10.673730 -3.301595 0
M  V30 32 H 12.086369 6.413289 -3.631628 0
M  V30 33 H 10.985502 6.463576 -5.829106 0
M  V30 34 H 10.805014 8.500241 -9.776161 0
M  V30 35 H 11.369600 6.972237 -10.379962 0
M  V30 36 H 9.571342 7.733626 -11.822805 0
M  V30 37 H 8.489388 7.994540 -10.482968 0
M  V30 38 H 9.582664 5.417895 -11.334603 0
M  V30 END ATOM
M  V30 BEGIN BOND
M  V30 1 1 2 1
M  V30 2 1 3 2
M  V30 3 1 4 3
M  V30 4 1 5 4
M  V30 5 1 6 5
M  V30 6 1 7 6
M  V30 7 1 8 7
M  V30 8 1 9 8
M  V30 9 1 10 9
M  V30 10 1 11 10
M  V30 11 2 12 11
M  V30 12 1 13 12
M  V30 13 1 14 13
M  V30 14 2 15 13
M  V30 15 2 16 10
M  V30 16 1 16 15
M  V30 17 1 17 7
M  V30 18 1 18 4
M  V30 19 1 18 17
M  V30 20 1 19 2
M  V30 21 1 20 2
M  V30 22 1 21 3
M  V30 23 1 22 3
M  V30 24 1 23 5
M  V30 25 1 24 5
M  V30 26 1 25 6
M  V30 27 1 26 6
M  V30 28 1 7 27 CFG=1
M  V30 29 1 28 8
M  V30 30 1 29 8
M  V30 31 1 30 11
M  V30 32 1 31 12
M  V30 33 1 32 15
M  V30 34 1 33 16
M  V30 35 1 34 17
M  V30 36 1 35 17
M  V30 37 1 36 18
M  V30 38 1 37 18
M  V30 39 1 4 38 CFG=3
M  V30 END BOND
M  V30 END CTAB
M  END
>  <b_m_subgroup_collapsed>  (2292) 
0

>  <r_i_docking_score>  (2292) 
-5.8801308778052404

>  <s_m_subgroup_title>  (2292) 
glide-dock_SP_D22_pv

>  <s_m_subgroupid>  (2292) 
glide-dock_SP_D22_pv

>  <Molecule ChEMBL ID>  (2292) 
CHEMBL45168

>  <Standard Type>  (2292) 
Ki

>  <Standard Value>  (2292) 
10000.0

>  <label>  (2292) 
0

$$$$
CHEMBL4545912
     RDKit          3D

  0  0  0  0  0  0  0  0  0  0999 V3000
M  V30 BEGIN CTAB
M  V30 COUNTS 52 54 0 0 1
M  V30 BEGIN ATOM
M  V30 1 C 5.293193 1.993246 -12.250463 0
M  V30 2 C 5.839779 2.727234 -13.056673 0
M  V30 3 C 6.522125 3.587082 -14.034927 0
M  V30 4 N 7.291174 4.655018 -13.410647 0
M  V30 5 C 8.649430 4.283191 -13.019446 0 CFG=1
M  V30 6 C 9.595074 4.139914 -14.246897 0
M  V30 7 C 10.688301 5.231256 -14.145882 0
M  V30 8 C 10.409845 5.908310 -12.829119 0
M  V30 9 C 11.126214 6.972729 -12.254397 0
M  V30 10 C 10.707884 7.486055 -11.003263 0
M  V30 11 O 11.432428 8.542965 -10.501118 0
M  V30 12 C 10.933400 9.240582 -9.368046 0
M  V30 13 C 11.459842 8.617671 -8.063390 0
M  V30 14 C 10.839199 9.291481 -6.828179 0
M  V30 15 N 11.549164 8.985208 -5.562563 0 CHG=1
M  V30 16 C 11.189847 9.949026 -4.487880 0
M  V30 17 C 12.065792 9.728648 -3.243576 0
M  V30 18 C 11.901266 8.300578 -2.714173 0
M  V30 19 C 12.220551 7.299921 -3.833357 0
M  V30 20 C 11.400862 7.571805 -5.113718 0
M  V30 21 C 9.584112 6.900666 -10.351275 0
M  V30 22 C 8.870662 5.840062 -10.949896 0
M  V30 23 C 9.295693 5.367671 -12.200212 0
M  V30 24 H 4.886079 1.332337 -11.521776 0
M  V30 25 H 7.139099 2.974824 -14.694574 0
M  V30 26 H 5.741300 4.041223 -14.645844 0
M  V30 27 H 6.798193 5.055467 -12.622119 0
M  V30 28 H 8.639508 3.375191 -12.421352 0
M  V30 29 H 10.061729 3.154369 -14.212236 0
M  V30 30 H 9.068871 4.205326 -15.202106 0
M  V30 31 H 10.610276 5.949790 -14.960197 0
M  V30 32 H 11.690097 4.801345 -14.155317 0
M  V30 33 H 11.983792 7.394176 -12.761708 0
M  V30 34 H 11.285808 10.266789 -9.447639 0
M  V30 35 H 9.843073 9.314290 -9.377789 0
M  V30 36 H 11.245515 7.547907 -8.051262 0
M  V30 37 H 12.546639 8.716909 -8.044359 0
M  V30 38 H 10.893478 10.366775 -6.977643 0
M  V30 39 H 9.779327 9.041020 -6.745562 0
M  V30 40 H 11.288327 10.972186 -4.846801 0
M  V30 41 H 10.140998 9.850863 -4.221680 0
M  V30 42 H 13.112741 9.911091 -3.483576 0
M  V30 43 H 11.799571 10.449002 -2.471310 0
M  V30 44 H 12.566689 8.138140 -1.867061 0
M  V30 45 H 10.887888 8.147312 -2.337587 0
M  V30 46 H 13.285336 7.372452 -4.056323 0
M  V30 47 H 12.046574 6.280663 -3.486067 0
M  V30 48 H 10.346411 7.342315 -4.962758 0
M  V30 49 H 11.735554 6.890280 -5.895448 0
M  V30 50 H 9.234961 7.262090 -9.396945 0
M  V30 51 H 8.003907 5.420825 -10.462949 0
M  V30 52 H 12.531450 9.133718 -5.748115 0
M  V30 END ATOM
M  V30 BEGIN BOND
M  V30 1 3 2 1
M  V30 2 1 3 2
M  V30 3 1 4 3
M  V30 4 1 5 4
M  V30 5 1 6 5
M  V30 6 1 7 6
M  V30 7 1 8 7
M  V30 8 1 9 8
M  V30 9 2 10 9
M  V30 10 1 11 10
M  V30 11 1 12 11
M  V30 12 1 13 12
M  V30 13 1 14 13
M  V30 14 1 15 14
M  V30 15 1 16 15
M  V30 16 1 17 16
M  V30 17 1 18 17
M  V30 18 1 19 18
M  V30 19 1 20 15
M  V30 20 1 20 19
M  V30 21 1 21 10
M  V30 22 2 22 21
M  V30 23 1 23 5
M  V30 24 2 23 8
M  V30 25 1 23 22
M  V30 26 1 24 1
M  V30 27 1 25 3
M  V30 28 1 26 3
M  V30 29 1 27 4
M  V30 30 1 5 28 CFG=1
M  V30 31 1 29 6
M  V30 32 1 30 6
M  V30 33 1 31 7
M  V30 34 1 32 7
M  V30 35 1 33 9
M  V30 36 1 34 12
M  V30 37 1 35 12
M  V30 38 1 36 13
M  V30 39 1 37 13
M  V30 40 1 38 14
M  V30 41 1 39 14
M  V30 42 1 40 16
M  V30 43 1 41 16
M  V30 44 1 42 17
M  V30 45 1 43 17
M  V30 46 1 44 18
M  V30 47 1 45 18
M  V30 48 1 46 19
M  V30 49 1 47 19
M  V30 50 1 48 20
M  V30 51 1 49 20
M  V30 52 1 50 21
M  V30 53 1 51 22
M  V30 54 1 52 15
M  V30 END BOND
M  V30 END CTAB
M  END
>  <b_m_subgroup_collapsed>  (2293) 
0

>  <r_i_docking_score>  (2293) 
-5.8782098668227203

>  <s_m_subgroup_title>  (2293) 
glide-dock_SP_D22_pv

>  <s_m_subgroupid>  (2293) 
glide-dock_SP_D22_pv

>  <Molecule ChEMBL ID>  (2293) 
CHEMBL4545912

>  <Standard Type>  (2293) 
Ki

>  <Standard Value>  (2293) 
10000.0

>  <label>  (2293) 
0

$$$$
CHEMBL3817911
     RDKit          3D

  0  0  0  0  0  0  0  0  0  0999 V3000
M  V30 BEGIN CTAB
M  V30 COUNTS 54 57 0 0 1
M  V30 BEGIN ATOM
M  V30 1 O 4.184159 -0.458286 -13.844576 0
M  V30 2 C 5.007523 -0.254977 -14.734812 0
M  V30 3 C 4.976734 -0.869267 -16.080683 0
M  V30 4 C 4.088372 -1.808662 -16.626627 0
M  V30 5 C 4.312677 -2.203693 -17.967211 0
M  V30 6 C 5.392694 -1.659780 -18.713654 0
M  V30 7 C 6.272727 -0.714887 -18.132608 0
M  V30 8 C 6.026172 -0.351219 -16.797432 0
M  V30 9 C 6.748417 0.584600 -15.905262 0
M  V30 10 O 7.731925 1.251117 -16.223293 0
M  V30 11 N 6.087859 0.572499 -14.716126 0
M  V30 12 C 6.484931 1.394028 -13.565601 0
M  V30 13 C 5.679461 2.707718 -13.446598 0
M  V30 14 C 6.170865 3.681856 -12.351438 0
M  V30 15 C 7.436268 4.455212 -12.775218 0
M  V30 16 N 7.865330 5.509333 -11.812329 0 CFG=2 CHG=1
M  V30 17 C 8.700918 6.526856 -12.502502 0
M  V30 18 C 9.211164 7.641684 -11.567651 0
M  V30 19 C 9.904785 7.075093 -10.314846 0 CFG=1
M  V30 20 C 10.297442 8.195739 -9.328897 0
M  V30 21 C 10.933785 7.626490 -8.048774 0
M  V30 22 C 10.019399 6.587331 -7.382821 0
M  V30 23 C 9.625896 5.470363 -8.365161 0
M  V30 24 C 8.978243 6.048751 -9.633040 0 CFG=2
M  V30 25 C 8.561408 4.945923 -10.625305 0
M  V30 26 H 3.274679 -2.226994 -16.050768 0
M  V30 27 H 3.653455 -2.928603 -18.418081 0
M  V30 28 H 5.542151 -1.974068 -19.734066 0
M  V30 29 H 7.101733 -0.296902 -18.689320 0
M  V30 30 H 6.381551 0.805242 -12.652439 0
M  V30 31 H 7.546348 1.622882 -13.667953 0
M  V30 32 H 5.685505 3.230947 -14.400904 0
M  V30 33 H 4.636232 2.455610 -13.241751 0
M  V30 34 H 5.382388 4.409411 -12.148571 0
M  V30 35 H 6.329366 3.145467 -11.418652 0
M  V30 36 H 8.265316 3.771134 -12.960985 0
M  V30 37 H 7.219336 4.925801 -13.738237 0
M  V30 38 H 9.552954 6.033163 -12.976776 0
M  V30 39 H 8.101846 6.973949 -13.301567 0
M  V30 40 H 9.906127 8.279606 -12.113928 0
M  V30 41 H 8.390635 8.293564 -11.277317 0
M  V30 42 H 10.819324 6.571057 -10.630499 0
M  V30 43 H 10.993865 8.887262 -9.805513 0
M  V30 44 H 9.414034 8.779064 -9.059930 0
M  V30 45 H 11.891903 7.167882 -8.289512 0
M  V30 46 H 11.147471 8.433587 -7.349970 0
M  V30 47 H 10.514402 6.162067 -6.509885 0
M  V30 48 H 9.116220 7.078423 -7.012589 0
M  V30 49 H 10.499337 4.879173 -8.636556 0
M  V30 50 H 8.928216 4.787928 -7.878615 0
M  V30 51 H 8.085983 6.572520 -9.305279 0
M  V30 52 H 7.907269 4.230068 -10.124879 0
M  V30 53 H 9.440252 4.386758 -10.948844 0
M  V30 54 H 7.045209 6.000250 -11.470893 0
M  V30 END ATOM
M  V30 BEGIN BOND
M  V30 1 2 2 1
M  V30 2 1 3 2
M  V30 3 2 4 3
M  V30 4 1 5 4
M  V30 5 2 6 5
M  V30 6 1 7 6
M  V30 7 1 8 3
M  V30 8 2 8 7
M  V30 9 1 9 8
M  V30 10 2 10 9
M  V30 11 1 11 2
M  V30 12 1 11 9
M  V30 13 1 12 11
M  V30 14 1 13 12
M  V30 15 1 14 13
M  V30 16 1 15 14
M  V30 17 1 16 15
M  V30 18 1 17 16
M  V30 19 1 18 17
M  V30 20 1 19 18
M  V30 21 1 20 19
M  V30 22 1 21 20
M  V30 23 1 22 21
M  V30 24 1 23 22
M  V30 25 1 24 19
M  V30 26 1 24 23
M  V30 27 1 25 16
M  V30 28 1 25 24
M  V30 29 1 26 4
M  V30 30 1 27 5
M  V30 31 1 28 6
M  V30 32 1 29 7
M  V30 33 1 30 12
M  V30 34 1 31 12
M  V30 35 1 32 13
M  V30 36 1 33 13
M  V30 37 1 34 14
M  V30 38 1 35 14
M  V30 39 1 36 15
M  V30 40 1 37 15
M  V30 41 1 38 17
M  V30 42 1 39 17
M  V30 43 1 40 18
M  V30 44 1 41 18
M  V30 45 1 19 42 CFG=3
M  V30 46 1 43 20
M  V30 47 1 44 20
M  V30 48 1 45 21
M  V30 49 1 46 21
M  V30 50 1 47 22
M  V30 51 1 48 22
M  V30 52 1 49 23
M  V30 53 1 50 23
M  V30 54 1 24 51 CFG=1
M  V30 55 1 52 25
M  V30 56 1 53 25
M  V30 57 1 16 54 CFG=1
M  V30 END BOND
M  V30 END CTAB
M  END
>  <b_m_subgroup_collapsed>  (2294) 
0

>  <r_i_docking_score>  (2294) 
-5.8778502507204804

>  <s_m_subgroup_title>  (2294) 
glide-dock_SP_D22_pv

>  <s_m_subgroupid>  (2294) 
glide-dock_SP_D22_pv

>  <Molecule ChEMBL ID>  (2294) 
CHEMBL3817911

>  <Standard Type>  (2294) 
Ki

>  <Standard Value>  (2294) 
10000.0

>  <label>  (2294) 
0

$$$$
CHEMBL5898142
     RDKit          3D

  0  0  0  0  0  0  0  0  0  0999 V3000
M  V30 BEGIN CTAB
M  V30 COUNTS 60 63 0 0 1
M  V30 BEGIN ATOM
M  V30 1 C 12.776199 6.753569 -17.920368 0
M  V30 2 C 12.273429 5.667498 -16.991219 0
M  V30 3 C 12.791270 4.362061 -17.076771 0
M  V30 4 C 12.327429 3.371912 -16.194622 0
M  V30 5 C 11.352008 3.674191 -15.223894 0
M  V30 6 C 10.790824 4.969027 -15.155710 0
M  V30 7 C 11.286114 5.958680 -16.032370 0
M  V30 8 N 9.794485 5.345392 -14.238544 0
M  V30 9 C 8.830933 4.610426 -13.822327 0
M  V30 10 C 7.780111 5.272723 -12.887382 0 CFG=1
M  V30 11 C 7.596893 4.593219 -11.521061 0
M  V30 12 C 8.797411 4.819335 -10.580918 0
M  V30 13 N 9.050031 6.266850 -10.336184 0 CFG=1 CHG=1
M  V30 14 C 10.225588 6.488687 -9.440960 0
M  V30 15 C 9.932770 7.409150 -8.224540 0
M  V30 16 C 9.385918 8.783899 -8.654544 0
M  V30 17 C 8.948198 6.696064 -7.270994 0
M  V30 18 C 11.264263 7.691608 -7.489627 0
M  V30 19 O 11.285056 7.615818 -6.239723 0
M  V30 20 O 12.246233 8.009256 -8.195764 0 CHG=-1
M  V30 21 C 9.158992 7.040787 -11.601471 0
M  V30 22 C 7.986738 6.767336 -12.564343 0
M  V30 23 C 8.601776 3.163947 -14.172855 0
M  V30 24 C 7.290902 2.617426 -14.247249 0
M  V30 25 C 7.078671 1.249495 -14.516202 0
M  V30 26 C 5.688275 0.648745 -14.495076 0
M  V30 27 C 8.176024 0.415007 -14.784713 0
M  V30 28 C 9.476067 0.933488 -14.737656 0
M  V30 29 C 9.689750 2.289600 -14.418786 0
M  V30 30 O 10.981536 2.713901 -14.330662 0
M  V30 31 H 11.955944 7.396379 -18.243271 0
M  V30 32 H 13.515843 7.371258 -17.409655 0
M  V30 33 H 13.239551 6.326665 -18.810575 0
M  V30 34 H 13.552036 4.119406 -17.804022 0
M  V30 35 H 12.740883 2.376374 -16.246613 0
M  V30 36 H 10.889225 6.961873 -15.979786 0
M  V30 37 H 6.827519 5.228640 -13.411655 0
M  V30 38 H 6.711788 5.027982 -11.059448 0
M  V30 39 H 7.354849 3.540897 -11.624478 0
M  V30 40 H 9.689655 4.349326 -10.997605 0
M  V30 41 H 8.597951 4.337345 -9.623394 0
M  V30 42 H 10.572015 5.529381 -9.051748 0
M  V30 43 H 11.062613 6.867224 -10.032667 0
M  V30 44 H 8.485378 8.699987 -9.249384 0
M  V30 45 H 9.134327 9.381172 -7.779639 0
M  V30 46 H 10.111618 9.348713 -9.244249 0
M  V30 47 H 8.084385 6.316819 -7.807667 0
M  V30 48 H 9.413610 5.837065 -6.787395 0
M  V30 49 H 8.586569 7.360579 -6.487413 0
M  V30 50 H 10.105553 6.806553 -12.087518 0
M  V30 51 H 9.193210 8.106538 -11.377989 0
M  V30 52 H 8.085522 7.371408 -13.446901 0
M  V30 53 H 7.057081 7.141679 -12.147182 0
M  V30 54 H 6.422425 3.232374 -14.063545 0
M  V30 55 H 5.699512 -0.311368 -13.980065 0
M  V30 56 H 4.983036 1.298113 -13.974041 0
M  V30 57 H 5.331400 0.481253 -15.511618 0
M  V30 58 H 8.020654 -0.627670 -15.011346 0
M  V30 59 H 10.320660 0.286180 -14.922522 0
M  V30 60 H 8.231798 6.630654 -9.858418 0
M  V30 END ATOM
M  V30 BEGIN BOND
M  V30 1 1 2 1
M  V30 2 1 3 2
M  V30 3 2 4 3
M  V30 4 1 5 4
M  V30 5 2 6 5
M  V30 6 2 7 2
M  V30 7 1 7 6
M  V30 8 1 8 6
M  V30 9 2 9 8
M  V30 10 1 10 9
M  V30 11 1 11 10
M  V30 12 1 12 11
M  V30 13 1 13 12
M  V30 14 1 14 13
M  V30 15 1 15 14
M  V30 16 1 16 15
M  V30 17 1 17 15
M  V30 18 1 18 15
M  V30 19 2 19 18
M  V30 20 1 20 18
M  V30 21 1 21 13
M  V30 22 1 22 10
M  V30 23 1 22 21
M  V30 24 1 23 9
M  V30 25 1 24 23
M  V30 26 2 25 24
M  V30 27 1 26 25
M  V30 28 1 27 25
M  V30 29 2 28 27
M  V30 30 2 29 23
M  V30 31 1 29 28
M  V30 32 1 30 5
M  V30 33 1 30 29
M  V30 34 1 31 1
M  V30 35 1 32 1
M  V30 36 1 33 1
M  V30 37 1 34 3
M  V30 38 1 35 4
M  V30 39 1 36 7
M  V30 40 1 10 37 CFG=3
M  V30 41 1 38 11
M  V30 42 1 39 11
M  V30 43 1 40 12
M  V30 44 1 41 12
M  V30 45 1 42 14
M  V30 46 1 43 14
M  V30 47 1 44 16
M  V30 48 1 45 16
M  V30 49 1 46 16
M  V30 50 1 47 17
M  V30 51 1 48 17
M  V30 52 1 49 17
M  V30 53 1 50 21
M  V30 54 1 51 21
M  V30 55 1 52 22
M  V30 56 1 53 22
M  V30 57 1 54 24
M  V30 58 1 55 26
M  V30 59 1 56 26
M  V30 60 1 57 26
M  V30 61 1 58 27
M  V30 62 1 59 28
M  V30 63 1 13 60 CFG=1
M  V30 END BOND
M  V30 END CTAB
M  END
>  <b_m_subgroup_collapsed>  (2295) 
0

>  <r_i_docking_score>  (2295) 
-5.8769227557251096

>  <s_m_subgroup_title>  (2295) 
glide-dock_SP_D22_pv

>  <s_m_subgroupid>  (2295) 
glide-dock_SP_D22_pv

>  <Molecule ChEMBL ID>  (2295) 
CHEMBL5898142

>  <Standard Type>  (2295) 
Ki

>  <Standard Value>  (2295) 
60.0

>  <label>  (2295) 
1

$$$$
CHEMBL4438349
     RDKit          3D

  0  0  0  0  0  0  0  0  0  0999 V3000
M  V30 BEGIN CTAB
M  V30 COUNTS 26 28 0 0 1
M  V30 BEGIN ATOM
M  V30 1 C 10.752805 6.630549 -5.297812 0
M  V30 2 N 10.963873 7.813440 -6.098661 0
M  V30 3 C 11.535755 8.951059 -5.680882 0
M  V30 4 N 11.685169 9.866441 -6.624500 0
M  V30 5 C 11.150749 9.262473 -7.757952 0
M  V30 6 C 10.662864 8.018169 -7.446460 0
M  V30 7 C 9.953309 7.063640 -8.295360 0
M  V30 8 C 8.942774 6.215097 -7.911281 0
M  V30 9 N 8.486057 5.500806 -8.999581 0
M  V30 10 C 9.160961 5.872725 -10.136751 0
M  V30 11 C 9.039050 5.452009 -11.471666 0
M  V30 12 C 9.910150 5.974695 -12.440539 0
M  V30 13 C 10.891867 6.911797 -12.067825 0
M  V30 14 Cl 12.083920 7.371927 -13.232272 0
M  V30 15 C 10.974424 7.368335 -10.731811 0
M  V30 16 F 11.948362 8.249286 -10.401384 0
M  V30 17 C 10.113446 6.853230 -9.722446 0
M  V30 18 H 9.692616 6.515025 -5.069931 0
M  V30 19 H 11.117850 5.772609 -5.861069 0
M  V30 20 H 11.311966 6.698057 -4.361571 0
M  V30 21 H 11.876186 9.102181 -4.666384 0
M  V30 22 H 11.121819 9.772942 -8.707023 0
M  V30 23 H 8.464268 6.094063 -6.950724 0
M  V30 24 H 7.690548 4.874888 -8.963533 0
M  V30 25 H 8.297424 4.714390 -11.742370 0
M  V30 26 H 9.855690 5.624120 -13.460176 0
M  V30 END ATOM
M  V30 BEGIN BOND
M  V30 1 1 2 1
M  V30 2 1 3 2
M  V30 3 2 4 3
M  V30 4 1 5 4
M  V30 5 1 6 2
M  V30 6 2 6 5
M  V30 7 1 7 6
M  V30 8 2 8 7
M  V30 9 1 9 8
M  V30 10 1 10 9
M  V30 11 1 11 10
M  V30 12 2 12 11
M  V30 13 1 13 12
M  V30 14 1 14 13
M  V30 15 2 15 13
M  V30 16 1 16 15
M  V30 17 1 17 7
M  V30 18 2 17 10
M  V30 19 1 17 15
M  V30 20 1 18 1
M  V30 21 1 19 1
M  V30 22 1 20 1
M  V30 23 1 21 3
M  V30 24 1 22 5
M  V30 25 1 23 8
M  V30 26 1 24 9
M  V30 27 1 25 11
M  V30 28 1 26 12
M  V30 END BOND
M  V30 END CTAB
M  END
>  <b_m_subgroup_collapsed>  (2296) 
0

>  <r_i_docking_score>  (2296) 
-5.8738889603404303

>  <s_m_subgroup_title>  (2296) 
glide-dock_SP_D22_pv

>  <s_m_subgroupid>  (2296) 
glide-dock_SP_D22_pv

>  <Molecule ChEMBL ID>  (2296) 
CHEMBL4438349

>  <Standard Type>  (2296) 
Ki

>  <Standard Value>  (2296) 
10000.0

>  <label>  (2296) 
0

$$$$
CHEMBL3187365
     RDKit          3D

  0  0  0  0  0  0  0  0  0  0999 V3000
M  V30 BEGIN CTAB
M  V30 COUNTS 37 40 0 0 1
M  V30 BEGIN ATOM
M  V30 1 C 10.696482 7.405336 -8.460553 0
M  V30 2 N 10.143537 7.536985 -9.824971 0 CFG=2 CHG=1
M  V30 3 C 9.246653 6.438667 -10.230151 0
M  V30 4 C 9.051984 6.674040 -11.725955 0 CFG=2
M  V30 5 C 8.395340 5.510526 -12.457007 0
M  V30 6 C 6.995658 5.504059 -12.646808 0
M  V30 7 C 6.372886 4.441995 -13.331540 0
M  V30 8 C 7.148397 3.384631 -13.846027 0
M  V30 9 C 8.540267 3.372682 -13.634945 0
M  V30 10 C 9.153007 4.418732 -12.917810 0
M  V30 11 O 10.486430 4.370639 -12.653214 0
M  V30 12 C 11.259295 5.160681 -13.447787 0
M  V30 13 C 12.009023 4.542583 -14.467619 0
M  V30 14 C 12.744997 5.319671 -15.376571 0
M  V30 15 C 12.756800 6.717251 -15.240654 0
M  V30 16 Cl 13.533388 7.682941 -16.439638 0
M  V30 17 C 12.083327 7.329140 -14.164815 0
M  V30 18 C 11.286031 6.565718 -13.271729 0
M  V30 19 C 10.413947 7.268515 -12.203313 0 CFG=2
M  V30 20 C 11.153967 7.646383 -10.904387 0
M  V30 21 H 11.284651 6.494422 -8.357564 0
M  V30 22 H 9.889358 7.370931 -7.727406 0
M  V30 23 H 11.335667 8.255160 -8.219816 0
M  V30 24 H 9.733621 5.477057 -10.056637 0
M  V30 25 H 8.306833 6.446095 -9.677047 0
M  V30 26 H 8.332382 7.493193 -11.799460 0
M  V30 27 H 6.390176 6.315701 -12.266384 0
M  V30 28 H 5.302030 4.447623 -13.476242 0
M  V30 29 H 6.673983 2.575338 -14.381522 0
M  V30 30 H 9.135590 2.547876 -13.997494 0
M  V30 31 H 11.980286 3.468762 -14.580935 0
M  V30 32 H 13.273294 4.847366 -16.191616 0
M  V30 33 H 12.107810 8.403789 -14.103171 0
M  V30 34 H 10.112445 8.211840 -12.647473 0
M  V30 35 H 11.577363 8.650832 -10.949974 0
M  V30 36 H 11.983109 6.972237 -10.709927 0
M  V30 37 H 9.576789 8.373716 -9.848577 0
M  V30 END ATOM
M  V30 BEGIN BOND
M  V30 1 1 2 1
M  V30 2 1 3 2
M  V30 3 1 4 3
M  V30 4 1 5 4
M  V30 5 2 6 5
M  V30 6 1 7 6
M  V30 7 2 8 7
M  V30 8 1 9 8
M  V30 9 1 10 5
M  V30 10 2 10 9
M  V30 11 1 11 10
M  V30 12 1 12 11
M  V30 13 1 13 12
M  V30 14 2 14 13
M  V30 15 1 15 14
M  V30 16 1 16 15
M  V30 17 2 17 15
M  V30 18 2 18 12
M  V30 19 1 18 17
M  V30 20 1 19 4
M  V30 21 1 19 18
M  V30 22 1 20 2
M  V30 23 1 20 19
M  V30 24 1 21 1
M  V30 25 1 22 1
M  V30 26 1 23 1
M  V30 27 1 24 3
M  V30 28 1 25 3
M  V30 29 1 4 26 CFG=1
M  V30 30 1 27 6
M  V30 31 1 28 7
M  V30 32 1 29 8
M  V30 33 1 30 9
M  V30 34 1 31 13
M  V30 35 1 32 14
M  V30 36 1 33 17
M  V30 37 1 19 34 CFG=3
M  V30 38 1 35 20
M  V30 39 1 36 20
M  V30 40 1 2 37 CFG=1
M  V30 END BOND
M  V30 END CTAB
M  END
>  <b_m_subgroup_collapsed>  (2297) 
0

>  <r_i_docking_score>  (2297) 
-5.8716802342563996

>  <s_m_subgroup_title>  (2297) 
glide-dock_SP_D22_pv

>  <s_m_subgroupid>  (2297) 
glide-dock_SP_D22_pv

>  <Molecule ChEMBL ID>  (2297) 
CHEMBL3187365

>  <Standard Type>  (2297) 
Ki

>  <Standard Value>  (2297) 
8.9

>  <label>  (2297) 
1

$$$$
CHEMBL93570
     RDKit          3D

  0  0  0  0  0  0  0  0  0  0999 V3000
M  V30 BEGIN CTAB
M  V30 COUNTS 42 44 0 0 1
M  V30 BEGIN ATOM
M  V30 1 C 10.281424 3.166869 -14.105901 0
M  V30 2 C 9.208940 4.182262 -14.518878 0
M  V30 3 C 7.942152 4.031141 -13.735344 0
M  V30 4 S 6.818706 2.792072 -14.235027 0
M  V30 5 C 5.682967 3.258841 -12.999592 0
M  V30 6 C 6.150466 4.301203 -12.246787 0
M  V30 7 C 7.456687 4.718023 -12.636157 0
M  V30 8 N 8.058608 5.868659 -11.868815 0 CFG=2 CHG=1
M  V30 9 C 7.804837 7.141313 -12.588799 0
M  V30 10 C 8.532670 8.364064 -11.990038 0
M  V30 11 C 10.012275 8.089475 -11.749872 0
M  V30 12 C 10.216329 6.851940 -10.865890 0 CFG=1
M  V30 13 C 9.961600 7.109437 -9.381500 0
M  V30 14 C 9.034494 6.348400 -8.635503 0
M  V30 15 C 8.885987 6.572042 -7.255840 0
M  V30 16 C 9.656463 7.548628 -6.607164 0
M  V30 17 C 10.570200 8.324663 -7.335533 0
M  V30 18 C 11.329760 9.353673 -6.647788 0
M  V30 19 N 11.928700 10.172201 -6.092804 0
M  V30 20 C 10.729220 8.097996 -8.717558 0
M  V30 21 C 9.492683 5.641983 -11.505207 0
M  V30 22 H 11.214252 3.332202 -14.645773 0
M  V30 23 H 9.954459 2.146078 -14.313705 0
M  V30 24 H 10.488678 3.224991 -13.038579 0
M  V30 25 H 9.588013 5.202155 -14.458449 0
M  V30 26 H 8.991684 4.035182 -15.577787 0
M  V30 27 H 4.736623 2.744425 -12.912744 0
M  V30 28 H 5.600100 4.770003 -11.447310 0
M  V30 29 H 8.085851 6.972517 -13.621716 0
M  V30 30 H 6.730522 7.332604 -12.607878 0
M  V30 31 H 8.418812 9.217446 -12.661571 0
M  V30 32 H 8.086093 8.679464 -11.048486 0
M  V30 33 H 10.495735 7.911253 -12.709289 0
M  V30 34 H 10.486377 8.967977 -11.316988 0
M  V30 35 H 11.283484 6.630522 -10.897768 0
M  V30 36 H 8.420385 5.588398 -9.091437 0
M  V30 37 H 8.165345 5.999372 -6.693014 0
M  V30 38 H 9.534304 7.700871 -5.544852 0
M  V30 39 H 11.453109 8.682602 -9.267418 0
M  V30 40 H 9.585554 4.751091 -10.880557 0
M  V30 41 H 10.055757 5.420103 -12.402465 0
M  V30 42 H 7.558202 5.988159 -10.995340 0
M  V30 END ATOM
M  V30 BEGIN BOND
M  V30 1 1 2 1
M  V30 2 1 3 2
M  V30 3 1 4 3
M  V30 4 1 5 4
M  V30 5 2 6 5
M  V30 6 2 7 3
M  V30 7 1 7 6
M  V30 8 1 8 7
M  V30 9 1 9 8
M  V30 10 1 10 9
M  V30 11 1 11 10
M  V30 12 1 12 11
M  V30 13 1 13 12
M  V30 14 2 14 13
M  V30 15 1 15 14
M  V30 16 2 16 15
M  V30 17 1 17 16
M  V30 18 1 18 17
M  V30 19 3 19 18
M  V30 20 1 20 13
M  V30 21 2 20 17
M  V30 22 1 21 8
M  V30 23 1 21 12
M  V30 24 1 22 1
M  V30 25 1 23 1
M  V30 26 1 24 1
M  V30 27 1 25 2
M  V30 28 1 26 2
M  V30 29 1 27 5
M  V30 30 1 28 6
M  V30 31 1 29 9
M  V30 32 1 30 9
M  V30 33 1 31 10
M  V30 34 1 32 10
M  V30 35 1 33 11
M  V30 36 1 34 11
M  V30 37 1 12 35 CFG=1
M  V30 38 1 36 14
M  V30 39 1 37 15
M  V30 40 1 38 16
M  V30 41 1 39 20
M  V30 42 1 40 21
M  V30 43 1 41 21
M  V30 44 1 8 42 CFG=1
M  V30 END BOND
M  V30 END CTAB
M  END
>  <b_m_subgroup_collapsed>  (2298) 
0

>  <r_i_docking_score>  (2298) 
-5.8714394831413799

>  <s_m_subgroup_title>  (2298) 
glide-dock_SP_D22_pv

>  <s_m_subgroupid>  (2298) 
glide-dock_SP_D22_pv

>  <Molecule ChEMBL ID>  (2298) 
CHEMBL93570

>  <Standard Type>  (2298) 
Ki

>  <Standard Value>  (2298) 
11.0

>  <label>  (2298) 
1

$$$$
CHEMBL91446
     RDKit          3D

  0  0  0  0  0  0  0  0  0  0999 V3000
M  V30 BEGIN CTAB
M  V30 COUNTS 52 55 0 0 1
M  V30 BEGIN ATOM
M  V30 1 C 9.662457 2.162138 -17.923100 0
M  V30 2 O 11.021246 1.801430 -17.714108 0
M  V30 3 C 11.537200 2.177514 -16.445772 0
M  V30 4 C 11.926141 3.672206 -16.400829 0 CFG=2
M  V30 5 C 13.083289 4.022336 -17.339180 0
M  V30 6 C 13.646803 5.313758 -16.747381 0
M  V30 7 C 13.357733 5.218843 -15.244235 0
M  V30 8 N 12.417834 4.091441 -15.065956 0 CFG=1 CHG=1
M  V30 9 C 11.420085 4.242842 -13.976731 0
M  V30 10 C 10.399119 5.366801 -14.208798 0
M  V30 11 C 9.292809 5.348678 -13.196812 0
M  V30 12 C 9.098902 6.063983 -12.025968 0
M  V30 13 C 9.937721 6.989795 -11.232306 0
M  V30 14 C 9.468828 7.479074 -9.985551 0
M  V30 15 C 10.263049 8.298219 -9.162354 0
M  V30 16 C 11.564843 8.638480 -9.560724 0
M  V30 17 C 12.057267 8.171762 -10.790129 0
M  V30 18 C 11.247036 7.372082 -11.619512 0
M  V30 19 N 7.812529 5.772411 -11.578909 0
M  V30 20 C 7.220756 4.778655 -12.324498 0
M  V30 21 C 5.980827 4.122965 -12.234082 0
M  V30 22 C 5.680304 3.080273 -13.126815 0
M  V30 23 C 6.610656 2.724720 -14.121746 0
M  V30 24 C 7.832977 3.417139 -14.229628 0
M  V30 25 C 8.166271 4.462627 -13.333017 0
M  V30 26 H 9.336221 1.780506 -18.889311 0
M  V30 27 H 9.009530 1.731405 -17.162066 0
M  V30 28 H 9.521518 3.242844 -17.930456 0
M  V30 29 H 12.420325 1.567884 -16.251749 0
M  V30 30 H 10.817511 1.923370 -15.666987 0
M  V30 31 H 11.081140 4.293093 -16.685560 0
M  V30 32 H 12.763173 4.138972 -18.375376 0
M  V30 33 H 13.846501 3.242536 -17.315607 0
M  V30 34 H 13.116152 6.168532 -17.168726 0
M  V30 35 H 14.708246 5.441629 -16.961651 0
M  V30 36 H 12.981999 6.169118 -14.867696 0
M  V30 37 H 14.247716 4.980614 -14.669420 0
M  V30 38 H 11.953940 4.431787 -13.046821 0
M  V30 39 H 10.904140 3.292506 -13.839726 0
M  V30 40 H 9.933625 5.248057 -15.184666 0
M  V30 41 H 10.885914 6.334021 -14.270488 0
M  V30 42 H 8.486072 7.222084 -9.620325 0
M  V30 43 H 9.872102 8.652531 -8.219785 0
M  V30 44 H 12.181442 9.262478 -8.930973 0
M  V30 45 H 13.057073 8.438813 -11.101184 0
M  V30 46 H 11.689152 7.025300 -12.534037 0
M  V30 47 H 7.358424 6.302987 -10.834253 0
M  V30 48 H 5.287797 4.392288 -11.447836 0
M  V30 49 H 4.741525 2.551767 -13.044323 0
M  V30 50 H 6.387627 1.920347 -14.807286 0
M  V30 51 H 8.527558 3.140925 -15.007619 0
M  V30 52 H 13.009775 3.323911 -14.781112 0
M  V30 END ATOM
M  V30 BEGIN BOND
M  V30 1 1 2 1
M  V30 2 1 3 2
M  V30 3 1 4 3
M  V30 4 1 5 4
M  V30 5 1 6 5
M  V30 6 1 7 6
M  V30 7 1 8 4
M  V30 8 1 8 7
M  V30 9 1 9 8
M  V30 10 1 10 9
M  V30 11 1 11 10
M  V30 12 2 12 11
M  V30 13 1 13 12
M  V30 14 2 14 13
M  V30 15 1 15 14
M  V30 16 2 16 15
M  V30 17 1 17 16
M  V30 18 1 18 13
M  V30 19 2 18 17
M  V30 20 1 19 12
M  V30 21 1 20 19
M  V30 22 2 21 20
M  V30 23 1 22 21
M  V30 24 2 23 22
M  V30 25 1 24 23
M  V30 26 1 25 11
M  V30 27 1 25 20
M  V30 28 2 25 24
M  V30 29 1 26 1
M  V30 30 1 27 1
M  V30 31 1 28 1
M  V30 32 1 29 3
M  V30 33 1 30 3
M  V30 34 1 4 31 CFG=3
M  V30 35 1 32 5
M  V30 36 1 33 5
M  V30 37 1 34 6
M  V30 38 1 35 6
M  V30 39 1 36 7
M  V30 40 1 37 7
M  V30 41 1 38 9
M  V30 42 1 39 9
M  V30 43 1 40 10
M  V30 44 1 41 10
M  V30 45 1 42 14
M  V30 46 1 43 15
M  V30 47 1 44 16
M  V30 48 1 45 17
M  V30 49 1 46 18
M  V30 50 1 47 19
M  V30 51 1 48 21
M  V30 52 1 49 22
M  V30 53 1 50 23
M  V30 54 1 51 24
M  V30 55 1 8 52 CFG=1
M  V30 END BOND
M  V30 END CTAB
M  END
>  <b_m_subgroup_collapsed>  (2299) 
0

>  <r_i_docking_score>  (2299) 
-5.8707985381701802

>  <s_m_subgroup_title>  (2299) 
glide-dock_SP_D22_pv

>  <s_m_subgroupid>  (2299) 
glide-dock_SP_D22_pv

>  <Molecule ChEMBL ID>  (2299) 
CHEMBL91446

>  <Standard Type>  (2299) 
Ki

>  <Standard Value>  (2299) 
92.0

>  <label>  (2299) 
1

$$$$
CHEMBL3323112
     RDKit          3D

  0  0  0  0  0  0  0  0  0  0999 V3000
M  V30 BEGIN CTAB
M  V30 COUNTS 80 83 0 0 1
M  V30 BEGIN ATOM
M  V30 1 C 8.780402 8.838549 -12.200367 0
M  V30 2 N 8.435566 7.432845 -11.864792 0 CHG=1
M  V30 3 C 7.567354 6.787318 -12.875695 0
M  V30 4 C 9.534162 6.539380 -11.440863 0
M  V30 5 C 10.585659 7.199166 -10.606554 0
M  V30 6 C 11.849463 7.665994 -10.908802 0
M  V30 7 C 12.534385 7.772288 -12.246070 0
M  V30 8 O 13.458179 8.572322 -12.412674 0
M  V30 9 N 12.064446 7.019341 -13.253832 0
M  V30 10 C 12.285652 7.293962 -14.677309 0
M  V30 11 C 13.175482 6.263208 -15.390473 0
M  V30 12 C 12.694408 4.807519 -15.268576 0
M  V30 13 C 11.494370 4.496431 -16.179176 0
M  V30 14 N 11.110312 3.092809 -16.046507 0
M  V30 15 C 10.642879 2.568791 -17.334187 0
M  V30 16 C 10.361514 1.063075 -17.188368 0
M  V30 17 N 9.326834 0.845746 -16.181692 0
M  V30 18 C 7.987231 0.613129 -16.562920 0
M  V30 19 C 7.027747 0.171199 -15.631583 0
M  V30 20 C 5.771415 -0.215094 -16.144203 0
M  V30 21 C 4.739604 -0.922554 -15.276821 0
M  V30 22 F 4.892159 -2.231786 -15.446018 0
M  V30 23 F 4.916686 -0.627202 -13.986295 0
M  V30 24 F 3.490119 -0.600865 -15.611544 0
M  V30 25 N 5.482318 -0.093374 -17.455399 0
M  V30 26 C 6.425337 0.398128 -18.256264 0
M  V30 27 C 6.143141 0.318294 -19.766493 0
M  V30 28 C 6.356771 -1.130706 -20.243811 0
M  V30 29 C 4.694885 0.762403 -20.079750 0
M  V30 30 C 7.077410 1.252126 -20.571573 0
M  V30 31 N 7.660885 0.730778 -17.870476 0
M  V30 32 C 9.658748 1.439989 -14.888021 0
M  V30 33 C 10.038261 2.930606 -15.054797 0
M  V30 34 N 12.452838 8.172483 -9.762652 0
M  V30 35 C 11.556421 8.100100 -8.786447 0
M  V30 36 C 11.590618 8.519876 -7.430630 0
M  V30 37 C 10.491323 8.330650 -6.626022 0
M  V30 38 C 9.328765 7.716326 -7.143968 0
M  V30 39 C 9.286579 7.296989 -8.451859 0
M  V30 40 N 10.371745 7.488883 -9.260226 0
M  V30 41 H 9.460490 8.963634 -13.043373 0
M  V30 42 H 7.863646 9.372762 -12.445952 0
M  V30 43 H 9.203391 9.342519 -11.333444 0
M  V30 44 H 8.085959 6.572670 -13.818980 0
M  V30 45 H 7.184017 5.843010 -12.486154 0
M  V30 46 H 6.701625 7.419804 -13.076835 0
M  V30 47 H 9.967182 6.060482 -12.314760 0
M  V30 48 H 9.093529 5.716741 -10.877665 0
M  V30 49 H 11.379129 6.316628 -13.032401 0
M  V30 50 H 12.697449 8.294692 -14.830009 0
M  V30 51 H 11.313361 7.300370 -15.167430 0
M  V30 52 H 14.203307 6.349197 -15.046288 0
M  V30 53 H 13.228226 6.525158 -16.448185 0
M  V30 54 H 12.485669 4.549984 -14.231422 0
M  V30 55 H 13.522740 4.170095 -15.574553 0
M  V30 56 H 11.801928 4.700938 -17.205956 0
M  V30 57 H 10.650610 5.156102 -15.979201 0
M  V30 58 H 11.413551 2.711142 -18.092564 0
M  V30 59 H 9.752098 3.102890 -17.671253 0
M  V30 60 H 11.267942 0.548324 -16.868053 0
M  V30 61 H 10.098990 0.626456 -18.152321 0
M  V30 62 H 7.270115 -0.000054 -14.594667 0
M  V30 63 H 7.378271 -1.461100 -20.047729 0
M  V30 64 H 5.686750 -1.821983 -19.731785 0
M  V30 65 H 6.172384 -1.230730 -21.314476 0
M  V30 66 H 4.503655 1.773444 -19.723045 0
M  V30 67 H 4.496395 0.744449 -21.150652 0
M  V30 68 H 3.959324 0.107686 -19.613016 0
M  V30 69 H 8.123626 0.963325 -20.468321 0
M  V30 70 H 6.848575 1.224994 -21.637701 0
M  V30 71 H 6.988903 2.286425 -20.246912 0
M  V30 72 H 8.845708 1.351705 -14.169909 0
M  V30 73 H 10.500373 0.892816 -14.460317 0
M  V30 74 H 10.362646 3.329007 -14.092749 0
M  V30 75 H 9.161488 3.506058 -15.358181 0
M  V30 76 H 12.486770 8.998026 -7.048244 0
M  V30 77 H 10.518047 8.661763 -5.592556 0
M  V30 78 H 8.453261 7.578382 -6.513639 0
M  V30 79 H 8.401260 6.835192 -8.879115 0
M  V30 80 H 7.812237 7.536243 -11.059196 0
M  V30 END ATOM
M  V30 BEGIN BOND
M  V30 1 1 2 1
M  V30 2 1 3 2
M  V30 3 1 4 2
M  V30 4 1 5 4
M  V30 5 2 6 5
M  V30 6 1 7 6
M  V30 7 2 8 7
M  V30 8 1 9 7
M  V30 9 1 10 9
M  V30 10 1 11 10
M  V30 11 1 12 11
M  V30 12 1 13 12
M  V30 13 1 14 13
M  V30 14 1 15 14
M  V30 15 1 16 15
M  V30 16 1 17 16
M  V30 17 1 18 17
M  V30 18 2 19 18
M  V30 19 1 20 19
M  V30 20 1 21 20
M  V30 21 1 22 21
M  V30 22 1 23 21
M  V30 23 1 24 21
M  V30 24 2 25 20
M  V30 25 1 26 25
M  V30 26 1 27 26
M  V30 27 1 28 27
M  V30 28 1 29 27
M  V30 29 1 30 27
M  V30 30 1 31 18
M  V30 31 2 31 26
M  V30 32 1 32 17
M  V30 33 1 33 14
M  V30 34 1 33 32
M  V30 35 1 34 6
M  V30 36 2 35 34
M  V30 37 1 36 35
M  V30 38 2 37 36
M  V30 39 1 38 37
M  V30 40 2 39 38
M  V30 41 1 40 5
M  V30 42 1 40 35
M  V30 43 1 40 39
M  V30 44 1 41 1
M  V30 45 1 42 1
M  V30 46 1 43 1
M  V30 47 1 44 3
M  V30 48 1 45 3
M  V30 49 1 46 3
M  V30 50 1 47 4
M  V30 51 1 48 4
M  V30 52 1 49 9
M  V30 53 1 50 10
M  V30 54 1 51 10
M  V30 55 1 52 11
M  V30 56 1 53 11
M  V30 57 1 54 12
M  V30 58 1 55 12
M  V30 59 1 56 13
M  V30 60 1 57 13
M  V30 61 1 58 15
M  V30 62 1 59 15
M  V30 63 1 60 16
M  V30 64 1 61 16
M  V30 65 1 62 19
M  V30 66 1 63 28
M  V30 67 1 64 28
M  V30 68 1 65 28
M  V30 69 1 66 29
M  V30 70 1 67 29
M  V30 71 1 68 29
M  V30 72 1 69 30
M  V30 73 1 70 30
M  V30 74 1 71 30
M  V30 75 1 72 32
M  V30 76 1 73 32
M  V30 77 1 74 33
M  V30 78 1 75 33
M  V30 79 1 76 36
M  V30 80 1 77 37
M  V30 81 1 78 38
M  V30 82 1 79 39
M  V30 83 1 80 2
M  V30 END BOND
M  V30 END CTAB
M  END
>  <b_m_subgroup_collapsed>  (2300) 
0

>  <r_i_docking_score>  (2300) 
-5.8691039027866099

>  <s_m_subgroup_title>  (2300) 
glide-dock_SP_D22_pv

>  <s_m_subgroupid>  (2300) 
glide-dock_SP_D22_pv

>  <Molecule ChEMBL ID>  (2300) 
CHEMBL3323112

>  <Standard Type>  (2300) 
Ki

>  <Standard Value>  (2300) 
72.0

>  <label>  (2300) 
1

$$$$
CHEMBL4528162
     RDKit          3D

  0  0  0  0  0  0  0  0  0  0999 V3000
M  V30 BEGIN CTAB
M  V30 COUNTS 49 52 0 0 1
M  V30 BEGIN ATOM
M  V30 1 C 8.197879 0.000040 -15.246332 0
M  V30 2 C 9.311806 0.613452 -14.388360 0
M  V30 3 C 10.183285 1.561966 -15.146068 0
M  V30 4 N 10.903567 1.138301 -16.249102 0
M  V30 5 C 11.599574 2.183641 -16.694450 0
M  V30 6 N 12.450780 2.145133 -17.825235 0
M  V30 7 C 12.674166 1.102681 -18.646502 0
M  V30 8 C 13.662027 1.347033 -19.780499 0
M  V30 9 O 12.145849 -0.004811 -18.527702 0
M  V30 10 N 11.413301 3.279035 -15.974571 0
M  V30 11 C 10.488184 2.908154 -14.988437 0
M  V30 12 C 10.014346 3.930419 -14.049283 0
M  V30 13 C 10.721211 4.943176 -13.446560 0
M  V30 14 N 9.872967 5.745652 -12.691588 0
M  V30 15 S 10.347480 7.191526 -11.863007 0
M  V30 16 O 9.358416 8.210545 -12.246516 0
M  V30 17 O 11.771854 7.372159 -12.188334 0
M  V30 18 C 10.211652 6.913856 -10.098188 0
M  V30 19 C 9.413861 5.886133 -9.557332 0
M  V30 20 C 9.287748 5.766029 -8.162407 0
M  V30 21 C 9.978370 6.645884 -7.306756 0
M  V30 22 C 10.793627 7.658051 -7.848010 0
M  V30 23 C 10.907635 7.794840 -9.245607 0
M  V30 24 C 8.582760 5.255253 -12.794757 0
M  V30 25 C 7.367655 5.697993 -12.245861 0
M  V30 26 C 6.190164 4.978598 -12.479148 0
M  V30 27 C 6.211380 3.848097 -13.309820 0
M  V30 28 C 7.424413 3.430286 -13.888585 0
M  V30 29 C 8.646648 4.101182 -13.631742 0
M  V30 30 H 7.544503 -0.627564 -14.640963 0
M  V30 31 H 7.577013 0.756874 -15.721871 0
M  V30 32 H 8.612652 -0.624176 -16.038628 0
M  V30 33 H 9.928701 -0.196016 -13.994374 0
M  V30 34 H 8.884961 1.111740 -13.520330 0
M  V30 35 H 12.938880 3.004689 -18.026558 0
M  V30 36 H 13.322159 2.163678 -20.416111 0
M  V30 37 H 14.644320 1.600342 -19.379761 0
M  V30 38 H 13.766160 0.454352 -20.399357 0
M  V30 39 H 11.773025 5.177380 -13.524035 0
M  V30 40 H 8.880716 5.189844 -10.180644 0
M  V30 41 H 8.654516 4.992164 -7.756657 0
M  V30 42 H 9.876143 6.544562 -6.235361 0
M  V30 43 H 11.320901 8.336655 -7.193655 0
M  V30 44 H 11.516335 8.583935 -9.666245 0
M  V30 45 H 7.338653 6.572310 -11.612546 0
M  V30 46 H 5.285878 5.311597 -12.004169 0
M  V30 47 H 5.299873 3.302684 -13.507959 0
M  V30 48 H 7.414222 2.581021 -14.546597 0
M  V30 49 H 10.913411 0.214576 -16.661255 0
M  V30 END ATOM
M  V30 BEGIN BOND
M  V30 1 1 2 1
M  V30 2 1 3 2
M  V30 3 1 4 3
M  V30 4 1 5 4
M  V30 5 1 6 5
M  V30 6 1 7 6
M  V30 7 1 8 7
M  V30 8 2 9 7
M  V30 9 2 10 5
M  V30 10 2 11 3
M  V30 11 1 11 10
M  V30 12 1 12 11
M  V30 13 2 13 12
M  V30 14 1 14 13
M  V30 15 1 15 14
M  V30 16 2 16 15
M  V30 17 2 17 15
M  V30 18 1 18 15
M  V30 19 2 19 18
M  V30 20 1 20 19
M  V30 21 2 21 20
M  V30 22 1 22 21
M  V30 23 1 23 18
M  V30 24 2 23 22
M  V30 25 1 24 14
M  V30 26 2 25 24
M  V30 27 1 26 25
M  V30 28 2 27 26
M  V30 29 1 28 27
M  V30 30 1 29 12
M  V30 31 1 29 24
M  V30 32 2 29 28
M  V30 33 1 30 1
M  V30 34 1 31 1
M  V30 35 1 32 1
M  V30 36 1 33 2
M  V30 37 1 34 2
M  V30 38 1 35 6
M  V30 39 1 36 8
M  V30 40 1 37 8
M  V30 41 1 38 8
M  V30 42 1 39 13
M  V30 43 1 40 19
M  V30 44 1 41 20
M  V30 45 1 42 21
M  V30 46 1 43 22
M  V30 47 1 44 23
M  V30 48 1 45 25
M  V30 49 1 46 26
M  V30 50 1 47 27
M  V30 51 1 48 28
M  V30 52 1 49 4
M  V30 END BOND
M  V30 END CTAB
M  END
>  <b_m_subgroup_collapsed>  (2301) 
0

>  <r_i_docking_score>  (2301) 
-5.8687575152761902

>  <s_m_subgroup_title>  (2301) 
glide-dock_SP_D22_pv

>  <s_m_subgroupid>  (2301) 
glide-dock_SP_D22_pv

>  <Molecule ChEMBL ID>  (2301) 
CHEMBL4528162

>  <Standard Type>  (2301) 
Ki

>  <Standard Value>  (2301) 
10000.0

>  <label>  (2301) 
0

$$$$
CHEMBL305392
     RDKit          3D

  0  0  0  0  0  0  0  0  0  0999 V3000
M  V30 BEGIN CTAB
M  V30 COUNTS 43 46 0 0 1
M  V30 BEGIN ATOM
M  V30 1 N 3.285649 -0.789736 -14.094566 0
M  V30 2 C 4.269877 -0.544874 -14.646786 0
M  V30 3 C 5.509926 -0.228396 -15.327983 0
M  V30 4 C 5.666120 -0.529032 -16.695623 0
M  V30 5 C 6.877881 -0.226491 -17.346338 0
M  V30 6 C 7.935661 0.371874 -16.631287 0
M  V30 7 C 7.771239 0.692100 -15.263562 0
M  V30 8 C 6.557868 0.386912 -14.615337 0
M  V30 9 C 8.897885 1.358763 -14.487159 0 CFG=2
M  V30 10 C 8.721611 2.877604 -14.364554 0
M  V30 11 N 10.088989 3.428761 -14.252748 0 CFG=2 CHG=1
M  V30 12 C 10.207491 4.884431 -14.535635 0
M  V30 13 C 10.294695 5.730771 -13.276398 0
M  V30 14 C 11.432858 6.539784 -13.046605 0
M  V30 15 C 11.495536 7.372306 -11.908041 0
M  V30 16 C 10.423973 7.396838 -10.994000 0
M  V30 17 C 9.287458 6.598480 -11.222665 0
M  V30 18 C 9.216779 5.774996 -12.363772 0
M  V30 19 C 10.899553 2.584758 -15.152989 0
M  V30 20 C 10.323288 1.164938 -15.043196 0 CFG=2
M  V30 21 C 10.426595 0.347752 -16.344597 0
M  V30 22 C 9.266315 0.633336 -17.308025 0
M  V30 23 H 4.864905 -1.002044 -17.247671 0
M  V30 24 H 6.995622 -0.475853 -18.392006 0
M  V30 25 H 6.433920 0.622770 -13.566757 0
M  V30 26 H 8.885697 0.932541 -13.483696 0
M  V30 27 H 8.259106 3.259133 -15.276891 0
M  V30 28 H 8.080991 3.154456 -13.527736 0
M  V30 29 H 11.110806 5.066845 -15.120797 0
M  V30 30 H 9.381477 5.238287 -15.155797 0
M  V30 31 H 12.263300 6.537241 -13.741125 0
M  V30 32 H 12.367755 7.986480 -11.733886 0
M  V30 33 H 10.469491 8.031525 -10.121088 0
M  V30 34 H 8.458717 6.631691 -10.527500 0
M  V30 35 H 8.322878 5.194086 -12.531803 0
M  V30 36 H 10.799860 2.948846 -16.177628 0
M  V30 37 H 11.958079 2.626971 -14.894525 0
M  V30 38 H 10.887701 0.634557 -14.276817 0
M  V30 39 H 11.386333 0.526521 -16.832497 0
M  V30 40 H 10.410628 -0.713777 -16.094042 0
M  V30 41 H 9.360476 0.009564 -18.197060 0
M  V30 42 H 9.291492 1.669221 -17.646442 0
M  V30 43 H 10.412140 3.260845 -13.309064 0
M  V30 END ATOM
M  V30 BEGIN BOND
M  V30 1 3 2 1
M  V30 2 1 3 2
M  V30 3 1 4 3
M  V30 4 2 5 4
M  V30 5 1 6 5
M  V30 6 2 7 6
M  V30 7 2 8 3
M  V30 8 1 8 7
M  V30 9 1 9 7
M  V30 10 1 10 9
M  V30 11 1 11 10
M  V30 12 1 12 11
M  V30 13 1 13 12
M  V30 14 2 14 13
M  V30 15 1 15 14
M  V30 16 2 16 15
M  V30 17 1 17 16
M  V30 18 1 18 13
M  V30 19 2 18 17
M  V30 20 1 19 11
M  V30 21 1 20 9
M  V30 22 1 20 19
M  V30 23 1 21 20
M  V30 24 1 22 6
M  V30 25 1 22 21
M  V30 26 1 23 4
M  V30 27 1 24 5
M  V30 28 1 25 8
M  V30 29 1 9 26 CFG=1
M  V30 30 1 27 10
M  V30 31 1 28 10
M  V30 32 1 29 12
M  V30 33 1 30 12
M  V30 34 1 31 14
M  V30 35 1 32 15
M  V30 36 1 33 16
M  V30 37 1 34 17
M  V30 38 1 35 18
M  V30 39 1 36 19
M  V30 40 1 37 19
M  V30 41 1 20 38 CFG=1
M  V30 42 1 39 21
M  V30 43 1 40 21
M  V30 44 1 41 22
M  V30 45 1 42 22
M  V30 46 1 11 43 CFG=1
M  V30 END BOND
M  V30 END CTAB
M  END
>  <b_m_subgroup_collapsed>  (2302) 
0

>  <r_i_docking_score>  (2302) 
-5.8668217489680297

>  <s_m_subgroup_title>  (2302) 
glide-dock_SP_D22_pv

>  <s_m_subgroupid>  (2302) 
glide-dock_SP_D22_pv

>  <Molecule ChEMBL ID>  (2302) 
CHEMBL305392

>  <Standard Type>  (2302) 
Ki

>  <Standard Value>  (2302) 
10.0

>  <label>  (2302) 
1

$$$$
CHEMBL164950
     RDKit          3D

  0  0  0  0  0  0  0  0  0  0999 V3000
M  V30 BEGIN CTAB
M  V30 COUNTS 42 42 0 0 1
M  V30 BEGIN ATOM
M  V30 1 C 9.747416 5.507243 -7.859461 0
M  V30 2 C 9.101817 6.337052 -8.957273 0
M  V30 3 C 9.080348 5.548558 -10.271186 0
M  V30 4 N 8.485715 6.306543 -11.403444 0 CHG=1
M  V30 5 C 9.235694 7.540960 -11.784025 0
M  V30 6 C 10.748599 7.347830 -12.073398 0
M  V30 7 C 11.679695 7.977638 -11.026664 0
M  V30 8 C 8.042155 5.458145 -12.558447 0
M  V30 9 C 9.109633 4.450479 -13.057655 0
M  V30 10 C 8.620710 3.639557 -14.261640 0
M  V30 11 C 7.306623 2.924423 -13.960499 0
M  V30 12 C 7.130768 1.591091 -14.131904 0
M  V30 13 C 5.895362 0.974613 -13.775356 0
M  V30 14 N 4.904967 0.472421 -13.446155 0
M  V30 15 C 8.199430 0.790829 -14.636203 0
M  V30 16 N 9.088217 0.172451 -15.047002 0
M  V30 17 C 6.227141 3.872092 -13.435969 0
M  V30 18 C 6.726481 4.708348 -12.242331 0
M  V30 19 H 9.616767 5.973983 -6.882782 0
M  V30 20 H 10.815399 5.374670 -8.033830 0
M  V30 21 H 9.285680 4.521058 -7.846313 0
M  V30 22 H 8.086079 6.577943 -8.660176 0
M  V30 23 H 9.629095 7.284763 -9.045477 0
M  V30 24 H 10.085887 5.209213 -10.513252 0
M  V30 25 H 8.501472 4.642258 -10.097808 0
M  V30 26 H 8.751557 7.998147 -12.646853 0
M  V30 27 H 9.100267 8.281967 -10.995999 0
M  V30 28 H 11.026292 6.305797 -12.177491 0
M  V30 29 H 10.976839 7.772333 -13.048286 0
M  V30 30 H 12.712827 7.968434 -11.375005 0
M  V30 31 H 11.414101 9.013261 -10.816016 0
M  V30 32 H 11.653437 7.428439 -10.086358 0
M  V30 33 H 7.811914 6.130441 -13.386047 0
M  V30 34 H 10.013134 4.959682 -13.378491 0
M  V30 35 H 9.396896 3.757781 -12.265510 0
M  V30 36 H 8.486159 4.315885 -15.102187 0
M  V30 37 H 9.408373 2.950012 -14.562829 0
M  V30 38 H 5.936015 4.539888 -14.246243 0
M  V30 39 H 5.320534 3.339913 -13.148485 0
M  V30 40 H 6.857708 4.037382 -11.394263 0
M  V30 41 H 5.954326 5.420928 -11.946913 0
M  V30 42 H 7.617311 6.690384 -11.025926 0
M  V30 END ATOM
M  V30 BEGIN BOND
M  V30 1 1 2 1
M  V30 2 1 3 2
M  V30 3 1 4 3
M  V30 4 1 5 4
M  V30 5 1 6 5
M  V30 6 1 7 6
M  V30 7 1 8 4
M  V30 8 1 9 8
M  V30 9 1 10 9
M  V30 10 1 11 10
M  V30 11 2 12 11 CFG=2
M  V30 12 1 13 12
M  V30 13 3 14 13
M  V30 14 1 15 12
M  V30 15 3 16 15
M  V30 16 1 17 11
M  V30 17 1 18 8
M  V30 18 1 18 17
M  V30 19 1 19 1
M  V30 20 1 20 1
M  V30 21 1 21 1
M  V30 22 1 22 2
M  V30 23 1 23 2
M  V30 24 1 24 3
M  V30 25 1 25 3
M  V30 26 1 26 5
M  V30 27 1 27 5
M  V30 28 1 28 6
M  V30 29 1 29 6
M  V30 30 1 30 7
M  V30 31 1 31 7
M  V30 32 1 32 7
M  V30 33 1 33 8
M  V30 34 1 34 9
M  V30 35 1 35 9
M  V30 36 1 36 10
M  V30 37 1 37 10
M  V30 38 1 38 17
M  V30 39 1 39 17
M  V30 40 1 40 18
M  V30 41 1 41 18
M  V30 42 1 42 4
M  V30 END BOND
M  V30 END CTAB
M  END
>  <b_m_subgroup_collapsed>  (2303) 
0

>  <r_i_docking_score>  (2303) 
-5.8602138951856597

>  <s_m_subgroup_title>  (2303) 
glide-dock_SP_D22_pv

>  <s_m_subgroupid>  (2303) 
glide-dock_SP_D22_pv

>  <Molecule ChEMBL ID>  (2303) 
CHEMBL164950

>  <Standard Type>  (2303) 
Ki

>  <Standard Value>  (2303) 
15000.0

>  <label>  (2303) 
0

$$$$
CHEMBL591448
     RDKit          3D

  0  0  0  0  0  0  0  0  0  0999 V3000
M  V30 BEGIN CTAB
M  V30 COUNTS 48 51 0 0 1
M  V30 BEGIN ATOM
M  V30 1 C 4.058753 -0.512888 -14.210426 0
M  V30 2 C 4.523002 0.491239 -13.696454 0
M  V30 3 C 5.055070 1.721518 -13.082341 0
M  V30 4 O 6.156240 2.181365 -13.856647 0
M  V30 5 C 6.836154 3.309136 -13.447198 0
M  V30 6 C 6.224117 4.284223 -12.623584 0
M  V30 7 C 6.920132 5.439200 -12.240608 0
M  V30 8 C 8.232633 5.648570 -12.684398 0
M  V30 9 C 8.856080 4.687952 -13.503149 0
M  V30 10 C 8.182533 3.499109 -13.876234 0
M  V30 11 C 8.947088 2.518900 -14.693926 0
M  V30 12 C 8.721217 1.118462 -14.646962 0
M  V30 13 C 9.480422 0.195099 -15.390624 0
M  V30 14 C 10.524104 0.640012 -16.209028 0
M  V30 15 C 10.826634 2.007371 -16.270618 0
M  V30 16 C 10.042160 2.917710 -15.511729 0
M  V30 17 C 10.353416 4.435224 -15.500726 0 CFG=1
M  V30 18 C 10.247433 4.953327 -14.045303 0
M  V30 19 N 11.634830 4.835766 -16.158585 0 CFG=2 CHG=1
M  V30 20 C 11.740400 6.297356 -16.440317 0
M  V30 21 C 13.198399 6.777114 -16.573931 0
M  V30 22 C 13.288381 8.275936 -16.883047 0
M  V30 23 C 11.862969 4.042426 -17.384836 0
M  V30 24 C 12.012692 2.578339 -17.016325 0
M  V30 25 H 3.647511 -1.383821 -14.678627 0
M  V30 26 H 4.237552 2.440152 -13.046903 0
M  V30 27 H 5.366024 1.493519 -12.062977 0
M  V30 28 H 5.213389 4.176718 -12.265306 0
M  V30 29 H 6.440163 6.172319 -11.607655 0
M  V30 30 H 8.752007 6.552024 -12.398936 0
M  V30 31 H 7.963655 0.712086 -13.997294 0
M  V30 32 H 9.284541 -0.861951 -15.313398 0
M  V30 33 H 11.119714 -0.073947 -16.759047 0
M  V30 34 H 9.557218 4.901886 -16.085789 0
M  V30 35 H 10.464218 6.013098 -13.943991 0
M  V30 36 H 10.966431 4.432374 -13.411165 0
M  V30 37 H 11.176213 6.540655 -17.341614 0
M  V30 38 H 11.286461 6.888700 -15.651556 0
M  V30 39 H 13.747168 6.567505 -15.653760 0
M  V30 40 H 13.716354 6.241857 -17.369040 0
M  V30 41 H 14.323784 8.574628 -17.047850 0
M  V30 42 H 12.891892 8.877852 -16.064190 0
M  V30 43 H 12.729446 8.528358 -17.785353 0
M  V30 44 H 11.036480 4.180102 -18.085316 0
M  V30 45 H 12.766232 4.358137 -17.902563 0
M  V30 46 H 12.887320 2.438359 -16.386438 0
M  V30 47 H 12.182447 1.984811 -17.916241 0
M  V30 48 H 12.373207 4.599192 -15.510845 0
M  V30 END ATOM
M  V30 BEGIN BOND
M  V30 1 3 2 1
M  V30 2 1 3 2
M  V30 3 1 4 3
M  V30 4 1 5 4
M  V30 5 2 6 5
M  V30 6 1 7 6
M  V30 7 2 8 7
M  V30 8 1 9 8
M  V30 9 1 10 5
M  V30 10 2 10 9
M  V30 11 1 11 10
M  V30 12 2 12 11
M  V30 13 1 13 12
M  V30 14 2 14 13
M  V30 15 1 15 14
M  V30 16 1 16 11
M  V30 17 2 16 15
M  V30 18 1 17 16
M  V30 19 1 18 9
M  V30 20 1 18 17
M  V30 21 1 19 17
M  V30 22 1 20 19
M  V30 23 1 21 20
M  V30 24 1 22 21
M  V30 25 1 23 19
M  V30 26 1 24 15
M  V30 27 1 24 23
M  V30 28 1 25 1
M  V30 29 1 26 3
M  V30 30 1 27 3
M  V30 31 1 28 6
M  V30 32 1 29 7
M  V30 33 1 30 8
M  V30 34 1 31 12
M  V30 35 1 32 13
M  V30 36 1 33 14
M  V30 37 1 17 34 CFG=3
M  V30 38 1 35 18
M  V30 39 1 36 18
M  V30 40 1 37 20
M  V30 41 1 38 20
M  V30 42 1 39 21
M  V30 43 1 40 21
M  V30 44 1 41 22
M  V30 45 1 42 22
M  V30 46 1 43 22
M  V30 47 1 44 23
M  V30 48 1 45 23
M  V30 49 1 46 24
M  V30 50 1 47 24
M  V30 51 1 19 48 CFG=1
M  V30 END BOND
M  V30 END CTAB
M  END
>  <b_m_subgroup_collapsed>  (2304) 
0

>  <r_i_docking_score>  (2304) 
-5.8597130403474296

>  <s_m_subgroup_title>  (2304) 
glide-dock_SP_D22_pv

>  <s_m_subgroupid>  (2304) 
glide-dock_SP_D22_pv

>  <Molecule ChEMBL ID>  (2304) 
CHEMBL591448

>  <Standard Type>  (2304) 
Ki

>  <Standard Value>  (2304) 
10000.0

>  <label>  (2304) 
0

$$$$
CHEMBL4559312
     RDKit          3D

  0  0  0  0  0  0  0  0  0  0999 V3000
M  V30 BEGIN CTAB
M  V30 COUNTS 29 31 0 0 1
M  V30 BEGIN ATOM
M  V30 1 C 12.855815 7.875419 -14.291880 0
M  V30 2 C 11.862377 7.055528 -13.458043 0
M  V30 3 N 11.641578 5.708434 -13.971860 0
M  V30 4 C 12.523015 4.991433 -14.689905 0
M  V30 5 N 12.132155 3.772214 -15.008070 0
M  V30 6 C 10.889756 3.664520 -14.413367 0
M  V30 7 C 10.543238 4.851029 -13.799872 0
M  V30 8 C 9.291241 5.189723 -13.110547 0
M  V30 9 C 9.009387 6.224672 -12.243977 0
M  V30 10 N 7.686296 6.170449 -11.847046 0
M  V30 11 C 7.071719 5.066710 -12.389291 0
M  V30 12 C 5.775878 4.542831 -12.246372 0
M  V30 13 C 5.447887 3.313337 -12.840644 0
M  V30 14 C 6.407919 2.649106 -13.620969 0
M  V30 15 Br 6.086196 0.881672 -14.246919 0
M  V30 16 C 7.664491 3.235840 -13.847292 0
M  V30 17 C 8.060376 4.431169 -13.194475 0
M  V30 18 H 13.032188 8.852989 -13.846911 0
M  V30 19 H 13.816888 7.372539 -14.349227 0
M  V30 20 H 12.491825 8.029363 -15.307837 0
M  V30 21 H 10.923856 7.596082 -13.441158 0
M  V30 22 H 12.212543 6.974512 -12.428816 0
M  V30 23 H 13.492804 5.354204 -14.994120 0
M  V30 24 H 10.364716 2.727668 -14.487105 0
M  V30 25 H 9.634937 7.011984 -11.854891 0
M  V30 26 H 7.246015 6.836570 -11.196290 0
M  V30 27 H 5.078351 5.036965 -11.587712 0
M  V30 28 H 4.485795 2.858477 -12.658959 0
M  V30 29 H 8.350162 2.689054 -14.466825 0
M  V30 END ATOM
M  V30 BEGIN BOND
M  V30 1 1 2 1
M  V30 2 1 3 2
M  V30 3 1 4 3
M  V30 4 2 5 4
M  V30 5 1 6 5
M  V30 6 1 7 3
M  V30 7 2 7 6
M  V30 8 1 8 7
M  V30 9 2 9 8
M  V30 10 1 10 9
M  V30 11 1 11 10
M  V30 12 1 12 11
M  V30 13 2 13 12
M  V30 14 1 14 13
M  V30 15 1 15 14
M  V30 16 2 16 14
M  V30 17 1 17 8
M  V30 18 2 17 11
M  V30 19 1 17 16
M  V30 20 1 18 1
M  V30 21 1 19 1
M  V30 22 1 20 1
M  V30 23 1 21 2
M  V30 24 1 22 2
M  V30 25 1 23 4
M  V30 26 1 24 6
M  V30 27 1 25 9
M  V30 28 1 26 10
M  V30 29 1 27 12
M  V30 30 1 28 13
M  V30 31 1 29 16
M  V30 END BOND
M  V30 END CTAB
M  END
>  <b_m_subgroup_collapsed>  (2305) 
0

>  <r_i_docking_score>  (2305) 
-5.8582912610066904

>  <s_m_subgroup_title>  (2305) 
glide-dock_SP_D22_pv

>  <s_m_subgroupid>  (2305) 
glide-dock_SP_D22_pv

>  <Molecule ChEMBL ID>  (2305) 
CHEMBL4559312

>  <Standard Type>  (2305) 
Ki

>  <Standard Value>  (2305) 
10000.0

>  <label>  (2305) 
0

$$$$
CHEMBL5273758
     RDKit          3D

  0  0  0  0  0  0  0  0  0  0999 V3000
M  V30 BEGIN CTAB
M  V30 COUNTS 43 46 0 0 1
M  V30 BEGIN ATOM
M  V30 1 C 6.533117 4.120658 -11.846717 0
M  V30 2 N 7.634292 4.843345 -12.516807 0 CFG=2 CHG=1
M  V30 3 C 8.631515 3.959272 -13.184585 0
M  V30 4 C 9.685800 4.757109 -13.991533 0
M  V30 5 C 10.441383 5.603860 -12.975287 0 CFG=1
M  V30 6 C 11.686252 6.384839 -13.391420 0
M  V30 7 C 12.150826 7.372434 -12.585759 0
M  V30 8 O 13.279577 8.042850 -12.886256 0
M  V30 9 C 11.449709 7.685970 -11.331824 0
M  V30 10 O 12.085793 8.351993 -10.359754 0
M  V30 11 C 10.174484 7.262378 -11.178250 0
M  V30 12 C 9.265948 7.205303 -9.963140 0 CFG=2
M  V30 13 C 9.883272 7.370883 -8.577097 0
M  V30 14 C 10.688537 6.369963 -7.996542 0
M  V30 15 C 11.282701 6.572280 -6.734748 0
M  V30 16 C 11.059790 7.769670 -6.031610 0
M  V30 17 C 10.252502 8.770457 -6.599687 0
M  V30 18 C 9.663541 8.570848 -7.863317 0
M  V30 19 C 8.501448 5.871665 -10.218168 0
M  V30 20 C 8.190137 5.983290 -11.727825 0 CFG=1
M  V30 21 C 9.463175 6.572148 -12.309313 0 CFG=2
M  V30 22 H 6.886420 3.571513 -10.975926 0
M  V30 23 H 6.061867 3.411914 -12.528043 0
M  V30 24 H 5.766224 4.822299 -11.516461 0
M  V30 25 H 9.129762 3.365749 -12.419332 0
M  V30 26 H 8.116852 3.261149 -13.845299 0
M  V30 27 H 10.369358 4.070610 -14.492447 0
M  V30 28 H 9.218817 5.371308 -14.762046 0
M  V30 29 H 10.806758 4.886997 -12.246896 0
M  V30 30 H 12.193916 6.103230 -14.302697 0
M  V30 31 H 13.787882 7.500873 -13.471715 0
M  V30 32 H 12.900882 8.675228 -10.717454 0
M  V30 33 H 8.559786 8.025647 -10.093155 0
M  V30 34 H 10.880479 5.449327 -8.526109 0
M  V30 35 H 11.905126 5.800090 -6.305033 0
M  V30 36 H 11.512349 7.920560 -5.062792 0
M  V30 37 H 10.087394 9.692642 -6.063495 0
M  V30 38 H 9.046538 9.350997 -8.286601 0
M  V30 39 H 9.136113 5.006033 -10.026933 0
M  V30 40 H 7.623836 5.778838 -9.588468 0
M  V30 41 H 7.422785 6.750934 -11.846506 0
M  V30 42 H 9.117998 7.318664 -13.012801 0
M  V30 43 H 7.184180 5.307838 -13.291515 0
M  V30 END ATOM
M  V30 BEGIN BOND
M  V30 1 1 2 1
M  V30 2 1 3 2
M  V30 3 1 4 3
M  V30 4 1 5 4
M  V30 5 1 6 5
M  V30 6 2 7 6
M  V30 7 1 8 7
M  V30 8 1 9 7
M  V30 9 1 10 9
M  V30 10 2 11 9
M  V30 11 1 12 11
M  V30 12 1 13 12
M  V30 13 2 14 13
M  V30 14 1 15 14
M  V30 15 2 16 15
M  V30 16 1 17 16
M  V30 17 1 18 13
M  V30 18 2 18 17
M  V30 19 1 19 12
M  V30 20 1 20 2
M  V30 21 1 20 19
M  V30 22 1 21 5
M  V30 23 1 21 11
M  V30 24 1 21 20
M  V30 25 1 22 1
M  V30 26 1 23 1
M  V30 27 1 24 1
M  V30 28 1 25 3
M  V30 29 1 26 3
M  V30 30 1 27 4
M  V30 31 1 28 4
M  V30 32 1 5 29 CFG=1
M  V30 33 1 30 6
M  V30 34 1 31 8
M  V30 35 1 32 10
M  V30 36 1 12 33 CFG=3
M  V30 37 1 34 14
M  V30 38 1 35 15
M  V30 39 1 36 16
M  V30 40 1 37 17
M  V30 41 1 38 18
M  V30 42 1 39 19
M  V30 43 1 40 19
M  V30 44 1 20 41 CFG=1
M  V30 45 1 21 42 CFG=3
M  V30 46 1 2 43 CFG=3
M  V30 END BOND
M  V30 END CTAB
M  END
>  <b_m_subgroup_collapsed>  (2306) 
0

>  <r_i_docking_score>  (2306) 
-5.8573429931321703

>  <s_m_subgroup_title>  (2306) 
glide-dock_SP_D22_pv

>  <s_m_subgroupid>  (2306) 
glide-dock_SP_D22_pv

>  <Molecule ChEMBL ID>  (2306) 
CHEMBL5273758

>  <Standard Type>  (2306) 
Ki

>  <Standard Value>  (2306) 
12.88

>  <label>  (2306) 
1

$$$$
CHEMBL1949727
     RDKit          3D

  0  0  0  0  0  0  0  0  0  0999 V3000
M  V30 BEGIN CTAB
M  V30 COUNTS 47 50 0 0 1
M  V30 BEGIN ATOM
M  V30 1 C 9.352425 3.567430 -17.868839 0
M  V30 2 N 10.656986 3.326902 -17.202917 0 CFG=2 CHG=1
M  V30 3 C 11.805765 3.601970 -18.106668 0
M  V30 4 C 13.082390 4.015061 -17.348999 0
M  V30 5 C 12.954013 5.350900 -16.630714 0
M  V30 6 C 13.291966 6.508977 -17.366014 0
M  V30 7 C 13.258695 7.781510 -16.769264 0
M  V30 8 C 12.885862 7.907634 -15.422371 0
M  V30 9 C 12.528378 6.766543 -14.684157 0
M  V30 10 C 12.547582 5.482173 -15.271132 0
M  V30 11 C 12.154543 4.302886 -14.381685 0
M  V30 12 C 10.666084 4.259510 -14.070163 0
M  V30 13 N 10.009073 5.239322 -13.342499 0
M  V30 14 C 8.672192 4.990602 -13.157552 0
M  V30 15 C 7.647501 5.675461 -12.483201 0
M  V30 16 C 6.348729 5.140047 -12.491322 0
M  V30 17 C 6.090083 3.937960 -13.178712 0
M  V30 18 C 7.133727 3.264601 -13.848264 0
M  V30 19 C 8.458166 3.766004 -13.845270 0
M  V30 20 C 9.738708 3.309245 -14.388847 0
M  V30 21 C 9.966097 2.018149 -15.140094 0
M  V30 22 C 10.762866 2.023575 -16.474360 0 CFG=1
M  V30 23 C 10.478086 0.790106 -17.364279 0
M  V30 24 O 11.471144 0.199636 -17.844494 0
M  V30 25 O 9.286934 0.479227 -17.591980 0 CHG=-1
M  V30 26 H 9.256124 2.963700 -18.775579 0
M  V30 27 H 9.254532 4.617860 -18.153605 0
M  V30 28 H 8.520885 3.322198 -17.204760 0
M  V30 29 H 12.006112 2.731627 -18.736181 0
M  V30 30 H 11.545643 4.409549 -18.795082 0
M  V30 31 H 13.432580 3.237755 -16.677742 0
M  V30 32 H 13.889033 4.105151 -18.078035 0
M  V30 33 H 13.595482 6.429807 -18.398750 0
M  V30 34 H 13.528506 8.659801 -17.338778 0
M  V30 35 H 12.873645 8.879504 -14.955468 0
M  V30 36 H 12.256007 6.884746 -13.647475 0
M  V30 37 H 12.486456 3.351795 -14.771004 0
M  V30 38 H 12.689282 4.408698 -13.436941 0
M  V30 39 H 10.490170 6.048938 -12.978563 0
M  V30 40 H 7.845554 6.598959 -11.956532 0
M  V30 41 H 5.559444 5.652291 -11.961940 0
M  V30 42 H 5.090761 3.526936 -13.185699 0
M  V30 43 H 6.917996 2.335544 -14.358576 0
M  V30 44 H 10.428388 1.303987 -14.453510 0
M  V30 45 H 8.967034 1.617612 -15.321097 0
M  V30 46 H 11.801076 1.904891 -16.170691 0
M  V30 47 H 10.722604 4.033450 -16.482830 0
M  V30 END ATOM
M  V30 BEGIN BOND
M  V30 1 1 2 1
M  V30 2 1 3 2
M  V30 3 1 4 3
M  V30 4 1 5 4
M  V30 5 2 6 5
M  V30 6 1 7 6
M  V30 7 2 8 7
M  V30 8 1 9 8
M  V30 9 1 10 5
M  V30 10 2 10 9
M  V30 11 1 11 10
M  V30 12 1 12 11
M  V30 13 1 13 12
M  V30 14 1 14 13
M  V30 15 2 15 14
M  V30 16 1 16 15
M  V30 17 2 17 16
M  V30 18 1 18 17
M  V30 19 1 19 14
M  V30 20 2 19 18
M  V30 21 2 20 12
M  V30 22 1 20 19
M  V30 23 1 21 20
M  V30 24 1 22 2
M  V30 25 1 22 21
M  V30 26 1 23 22
M  V30 27 2 24 23
M  V30 28 1 25 23
M  V30 29 1 26 1
M  V30 30 1 27 1
M  V30 31 1 28 1
M  V30 32 1 29 3
M  V30 33 1 30 3
M  V30 34 1 31 4
M  V30 35 1 32 4
M  V30 36 1 33 6
M  V30 37 1 34 7
M  V30 38 1 35 8
M  V30 39 1 36 9
M  V30 40 1 37 11
M  V30 41 1 38 11
M  V30 42 1 39 13
M  V30 43 1 40 15
M  V30 44 1 41 16
M  V30 45 1 42 17
M  V30 46 1 43 18
M  V30 47 1 44 21
M  V30 48 1 45 21
M  V30 49 1 22 46 CFG=1
M  V30 50 1 2 47 CFG=1
M  V30 END BOND
M  V30 END CTAB
M  END
>  <b_m_subgroup_collapsed>  (2307) 
0

>  <r_i_docking_score>  (2307) 
-5.8560001448008796

>  <s_m_subgroup_title>  (2307) 
glide-dock_SP_D22_pv

>  <s_m_subgroupid>  (2307) 
glide-dock_SP_D22_pv

>  <Molecule ChEMBL ID>  (2307) 
CHEMBL1949727

>  <Standard Type>  (2307) 
Ki

>  <Standard Value>  (2307) 
10000.0

>  <label>  (2307) 
0

$$$$
CHEMBL209876
     RDKit          3D

  0  0  0  0  0  0  0  0  0  0999 V3000
M  V30 BEGIN CTAB
M  V30 COUNTS 77 81 0 0 1
M  V30 BEGIN ATOM
M  V30 1 C 8.524158 8.724721 -7.733883 0
M  V30 2 O 9.387535 7.609473 -7.647425 0
M  V30 3 C 10.574998 7.801595 -8.299057 0
M  V30 4 C 11.643864 8.406949 -7.605927 0
M  V30 5 Cl 11.450812 8.952219 -5.975368 0
M  V30 6 C 12.881897 8.572374 -8.246691 0
M  V30 7 C 13.054964 8.172305 -9.577976 0
M  V30 8 C 11.979329 7.638052 -10.294014 0
M  V30 9 C 10.749876 7.406092 -9.652256 0
M  V30 10 N 9.761281 6.761640 -10.401505 0
M  V30 11 C 9.144996 7.564135 -11.445756 0
M  V30 12 C 8.387352 6.670640 -12.443379 0
M  V30 13 N 7.555928 5.624324 -11.787715 0 CHG=1
M  V30 14 C 6.911289 4.766362 -12.809826 0
M  V30 15 C 5.990538 3.665565 -12.264005 0
M  V30 16 C 5.380207 2.830834 -13.397580 0
M  V30 17 C 6.187469 1.598912 -13.860670 0
M  V30 18 N 7.382046 1.914281 -14.651795 0
M  V30 19 C 7.478856 1.759202 -15.983961 0
M  V30 20 O 6.487944 1.575575 -16.693748 0
M  V30 21 C 8.844742 1.815319 -16.637354 0
M  V30 22 C 8.898322 2.209533 -17.998779 0
M  V30 23 C 10.122422 2.268132 -18.697145 0
M  V30 24 C 11.245237 1.623242 -18.152740 0
M  V30 25 C 11.222284 1.252131 -16.797455 0
M  V30 26 C 10.085568 1.508108 -15.993112 0
M  V30 27 C 10.372481 1.729613 -14.500059 0
M  V30 28 C 10.632653 3.233537 -14.119469 0
M  V30 29 C 10.906257 4.141834 -15.315386 0
M  V30 30 C 9.834657 4.804299 -15.945544 0
M  V30 31 C 9.931253 5.147697 -17.308357 0
M  V30 32 C 11.105350 4.824027 -18.018576 0
M  V30 33 C 12.271770 4.474227 -17.301798 0
M  V30 34 C 12.171342 4.129775 -15.938996 0
M  V30 35 C 11.027688 4.559397 -19.522121 0
M  V30 36 C 10.286117 3.220861 -19.883684 0
M  V30 37 C 8.320902 4.857328 -10.772437 0
M  V30 38 C 8.907588 5.796665 -9.733499 0
M  V30 39 H 7.698530 8.572268 -7.046238 0
M  V30 40 H 9.050950 9.636186 -7.467495 0
M  V30 41 H 8.094717 8.863727 -8.725082 0
M  V30 42 H 13.695818 9.025860 -7.707281 0
M  V30 43 H 14.008972 8.319763 -10.062709 0
M  V30 44 H 12.121151 7.351055 -11.325657 0
M  V30 45 H 8.485844 8.291994 -10.979978 0
M  V30 46 H 9.897711 8.143402 -11.981413 0
M  V30 47 H 7.759250 7.291786 -13.081942 0
M  V30 48 H 9.116036 6.176254 -13.088861 0
M  V30 49 H 6.311904 5.412926 -13.446889 0
M  V30 50 H 7.675833 4.323705 -13.444111 0
M  V30 51 H 6.485936 2.992752 -11.568693 0
M  V30 52 H 5.191464 4.147787 -11.700432 0
M  V30 53 H 4.409683 2.475273 -13.047174 0
M  V30 54 H 5.196719 3.484437 -14.246818 0
M  V30 55 H 6.483670 0.993399 -13.006483 0
M  V30 56 H 5.525701 0.948011 -14.434851 0
M  V30 57 H 8.239691 2.074644 -14.146716 0
M  V30 58 H 8.014108 2.610345 -18.468229 0
M  V30 59 H 12.182660 1.610261 -18.689734 0
M  V30 60 H 12.158337 0.973127 -16.339142 0
M  V30 61 H 9.641414 1.258687 -13.847294 0
M  V30 62 H 11.285038 1.183000 -14.271821 0
M  V30 63 H 9.778402 3.623296 -13.571314 0
M  V30 64 H 11.481971 3.309688 -13.446544 0
M  V30 65 H 8.880662 4.868627 -15.451408 0
M  V30 66 H 9.041840 5.454836 -17.839489 0
M  V30 67 H 13.190791 4.259676 -17.826365 0
M  V30 68 H 13.014809 3.664460 -15.452017 0
M  V30 69 H 10.562125 5.405307 -20.028391 0
M  V30 70 H 12.048006 4.509108 -19.903170 0
M  V30 71 H 10.791781 2.712574 -20.705503 0
M  V30 72 H 9.289330 3.464783 -20.253370 0
M  V30 73 H 7.686049 4.165660 -10.232960 0
M  V30 74 H 9.108277 4.273248 -11.251576 0
M  V30 75 H 9.474585 5.232907 -8.990858 0
M  V30 76 H 8.089427 6.301552 -9.214971 0
M  V30 77 H 6.840241 6.126609 -11.270444 0
M  V30 END ATOM
M  V30 BEGIN BOND
M  V30 1 1 2 1
M  V30 2 1 3 2
M  V30 3 2 4 3
M  V30 4 1 5 4
M  V30 5 1 6 4
M  V30 6 2 7 6
M  V30 7 1 8 7
M  V30 8 1 9 3
M  V30 9 2 9 8
M  V30 10 1 10 9
M  V30 11 1 11 10
M  V30 12 1 12 11
M  V30 13 1 13 12
M  V30 14 1 14 13
M  V30 15 1 15 14
M  V30 16 1 16 15
M  V30 17 1 17 16
M  V30 18 1 18 17
M  V30 19 1 19 18
M  V30 20 2 20 19
M  V30 21 1 21 19
M  V30 22 1 22 21
M  V30 23 2 23 22
M  V30 24 1 24 23
M  V30 25 2 25 24
M  V30 26 2 26 21
M  V30 27 1 26 25
M  V30 28 1 27 26
M  V30 29 1 28 27
M  V30 30 1 29 28
M  V30 31 1 30 29
M  V30 32 2 31 30
M  V30 33 1 32 31
M  V30 34 2 33 32
M  V30 35 2 34 29
M  V30 36 1 34 33
M  V30 37 1 35 32
M  V30 38 1 36 23
M  V30 39 1 36 35
M  V30 40 1 37 13
M  V30 41 1 38 10
M  V30 42 1 38 37
M  V30 43 1 39 1
M  V30 44 1 40 1
M  V30 45 1 41 1
M  V30 46 1 42 6
M  V30 47 1 43 7
M  V30 48 1 44 8
M  V30 49 1 45 11
M  V30 50 1 46 11
M  V30 51 1 47 12
M  V30 52 1 48 12
M  V30 53 1 49 14
M  V30 54 1 50 14
M  V30 55 1 51 15
M  V30 56 1 52 15
M  V30 57 1 53 16
M  V30 58 1 54 16
M  V30 59 1 55 17
M  V30 60 1 56 17
M  V30 61 1 57 18
M  V30 62 1 58 22
M  V30 63 1 59 24
M  V30 64 1 60 25
M  V30 65 1 61 27
M  V30 66 1 62 27
M  V30 67 1 63 28
M  V30 68 1 64 28
M  V30 69 1 65 30
M  V30 70 1 66 31
M  V30 71 1 67 33
M  V30 72 1 68 34
M  V30 73 1 69 35
M  V30 74 1 70 35
M  V30 75 1 71 36
M  V30 76 1 72 36
M  V30 77 1 73 37
M  V30 78 1 74 37
M  V30 79 1 75 38
M  V30 80 1 76 38
M  V30 81 1 77 13
M  V30 END BOND
M  V30 END CTAB
M  END
>  <b_m_subgroup_collapsed>  (2308) 
0

>  <r_i_docking_score>  (2308) 
-5.8546736687727599

>  <s_m_subgroup_title>  (2308) 
glide-dock_SP_D22_pv

>  <s_m_subgroupid>  (2308) 
glide-dock_SP_D22_pv

>  <Molecule ChEMBL ID>  (2308) 
CHEMBL209876

>  <Standard Type>  (2308) 
Ki

>  <Standard Value>  (2308) 
28.0

>  <label>  (2308) 
1

$$$$
CHEMBL116372
     RDKit          3D

  0  0  0  0  0  0  0  0  0  0999 V3000
M  V30 BEGIN CTAB
M  V30 COUNTS 45 47 0 0 1
M  V30 BEGIN ATOM
M  V30 1 C 9.943331 5.186038 -8.555492 0
M  V30 2 C 8.485971 5.061234 -9.010987 0
M  V30 3 C 8.272264 4.888732 -10.530517 0
M  V30 4 N 8.086314 6.172251 -11.271111 0 CHG=1
M  V30 5 C 9.326981 6.996353 -11.326149 0
M  V30 6 C 9.286358 8.168621 -10.329619 0
M  V30 7 C 10.671905 8.784364 -10.098638 0
M  V30 8 C 7.428481 6.039062 -12.608716 0 CFG=2
M  V30 9 C 5.915837 5.746536 -12.517449 0
M  V30 10 O 5.586841 4.381391 -12.301119 0
M  V30 11 C 6.256224 3.442300 -13.046270 0
M  V30 12 C 5.686078 2.158112 -13.145570 0
M  V30 13 C 6.344837 1.130397 -13.847561 0
M  V30 14 C 7.606264 1.349259 -14.443710 0
M  V30 15 N 8.373816 0.412694 -15.127337 0
M  V30 16 C 9.519156 0.970044 -15.521675 0
M  V30 17 N 10.484654 0.273549 -16.222443 0
M  V30 18 S 9.754965 2.671655 -15.122207 0
M  V30 19 C 8.176409 2.654619 -14.330447 0
M  V30 20 C 7.508831 3.698333 -13.653459 0
M  V30 21 C 8.151565 5.071658 -13.568764 0
M  V30 22 H 9.988159 5.372237 -7.482634 0
M  V30 23 H 10.485582 4.265648 -8.765148 0
M  V30 24 H 10.477800 6.003149 -9.027472 0
M  V30 25 H 7.892357 5.892519 -8.633454 0
M  V30 26 H 8.086639 4.177408 -8.513497 0
M  V30 27 H 7.374184 4.287884 -10.647398 0
M  V30 28 H 9.076732 4.296402 -10.969211 0
M  V30 29 H 10.200912 6.366679 -11.163955 0
M  V30 30 H 9.485674 7.416378 -12.319253 0
M  V30 31 H 8.600165 8.932164 -10.699151 0
M  V30 32 H 8.886225 7.852028 -9.367533 0
M  V30 33 H 10.602612 9.699525 -9.510066 0
M  V30 34 H 11.327146 8.100584 -9.559997 0
M  V30 35 H 11.161162 9.019895 -11.040988 0
M  V30 36 H 7.483864 7.036970 -13.045461 0
M  V30 37 H 5.447148 6.345864 -11.738722 0
M  V30 38 H 5.426757 6.041234 -13.445515 0
M  V30 39 H 4.733323 1.960763 -12.676261 0
M  V30 40 H 5.896460 0.150314 -13.917180 0
M  V30 41 H 10.254929 -0.624995 -16.620476 0
M  V30 42 H 11.258376 0.765702 -16.645451 0
M  V30 43 H 9.207635 4.977044 -13.314111 0
M  V30 44 H 8.130071 5.482625 -14.577633 0
M  V30 45 H 7.425271 6.744267 -10.728076 0
M  V30 END ATOM
M  V30 BEGIN BOND
M  V30 1 1 2 1
M  V30 2 1 3 2
M  V30 3 1 4 3
M  V30 4 1 5 4
M  V30 5 1 6 5
M  V30 6 1 7 6
M  V30 7 1 8 4
M  V30 8 1 9 8
M  V30 9 1 10 9
M  V30 10 1 11 10
M  V30 11 1 12 11
M  V30 12 2 13 12
M  V30 13 1 14 13
M  V30 14 1 15 14
M  V30 15 2 16 15
M  V30 16 1 17 16
M  V30 17 1 18 16
M  V30 18 2 19 14
M  V30 19 1 19 18
M  V30 20 2 20 11
M  V30 21 1 20 19
M  V30 22 1 21 8
M  V30 23 1 21 20
M  V30 24 1 22 1
M  V30 25 1 23 1
M  V30 26 1 24 1
M  V30 27 1 25 2
M  V30 28 1 26 2
M  V30 29 1 27 3
M  V30 30 1 28 3
M  V30 31 1 29 5
M  V30 32 1 30 5
M  V30 33 1 31 6
M  V30 34 1 32 6
M  V30 35 1 33 7
M  V30 36 1 34 7
M  V30 37 1 35 7
M  V30 38 1 8 36 CFG=3
M  V30 39 1 37 9
M  V30 40 1 38 9
M  V30 41 1 39 12
M  V30 42 1 40 13
M  V30 43 1 41 17
M  V30 44 1 42 17
M  V30 45 1 43 21
M  V30 46 1 44 21
M  V30 47 1 45 4
M  V30 END BOND
M  V30 END CTAB
M  END
>  <b_m_subgroup_collapsed>  (2309) 
0

>  <r_i_docking_score>  (2309) 
-5.8545404864104604

>  <s_m_subgroup_title>  (2309) 
glide-dock_SP_D22_pv

>  <s_m_subgroupid>  (2309) 
glide-dock_SP_D22_pv

>  <Molecule ChEMBL ID>  (2309) 
CHEMBL116372

>  <Standard Type>  (2309) 
Ki

>  <Standard Value>  (2309) 
47.0

>  <label>  (2309) 
1

$$$$
CHEMBL1373
     RDKit          3D

  0  0  0  0  0  0  0  0  0  0999 V3000
M  V30 BEGIN CTAB
M  V30 COUNTS 34 35 0 0 1
M  V30 BEGIN ATOM
M  V30 1 N 5.686007 -1.428691 -15.145394 0
M  V30 2 C 5.577834 -0.434487 -14.265146 0
M  V30 3 O 4.485469 -0.075687 -13.831352 0
M  V30 4 C 6.860050 0.239228 -13.777898 0
M  V30 5 S 7.798652 1.042362 -15.169596 0
M  V30 6 O 8.834440 0.026425 -15.655273 0
M  V30 7 C 8.752164 2.358585 -14.246377 0
M  V30 8 C 7.871233 3.426142 -13.586670 0
M  V30 9 C 8.459778 4.305707 -12.648361 0
M  V30 10 C 7.682640 5.274939 -11.984416 0
M  V30 11 C 6.304252 5.373689 -12.247618 0
M  V30 12 C 5.707101 4.506108 -13.178771 0
M  V30 13 C 6.486674 3.546993 -13.847018 0
M  V30 14 C 9.798000 2.984778 -15.166394 0
M  V30 15 C 11.106746 3.207033 -14.686332 0
M  V30 16 C 12.077563 3.813895 -15.506796 0
M  V30 17 C 11.748704 4.199541 -16.819414 0
M  V30 18 C 10.448332 3.977670 -17.309776 0
M  V30 19 C 9.478337 3.373246 -16.487167 0
M  V30 20 H 4.852645 -1.895982 -15.473444 0
M  V30 21 H 6.604994 -1.753735 -15.446976 0
M  V30 22 H 7.496901 -0.475204 -13.259081 0
M  V30 23 H 6.559888 0.986339 -13.047572 0
M  V30 24 H 9.283283 1.838479 -13.448251 0
M  V30 25 H 9.513863 4.232186 -12.424203 0
M  V30 26 H 8.134994 5.941559 -11.264009 0
M  V30 27 H 5.710922 6.115650 -11.730878 0
M  V30 28 H 4.652105 4.572327 -13.396157 0
M  V30 29 H 5.994198 2.913093 -14.565495 0
M  V30 30 H 11.366976 2.915716 -13.680860 0
M  V30 31 H 13.075098 3.985973 -15.130495 0
M  V30 32 H 12.492431 4.665491 -17.448967 0
M  V30 33 H 10.194217 4.273469 -18.316998 0
M  V30 34 H 8.486290 3.213571 -16.879297 0
M  V30 END ATOM
M  V30 BEGIN BOND
M  V30 1 1 2 1
M  V30 2 2 3 2
M  V30 3 1 4 2
M  V30 4 1 5 4 CFG=1
M  V30 5 2 6 5
M  V30 6 1 7 5
M  V30 7 1 8 7
M  V30 8 2 9 8
M  V30 9 1 10 9
M  V30 10 2 11 10
M  V30 11 1 12 11
M  V30 12 1 13 8
M  V30 13 2 13 12
M  V30 14 1 14 7
M  V30 15 2 15 14
M  V30 16 1 16 15
M  V30 17 2 17 16
M  V30 18 1 18 17
M  V30 19 1 19 14
M  V30 20 2 19 18
M  V30 21 1 20 1
M  V30 22 1 21 1
M  V30 23 1 22 4
M  V30 24 1 23 4
M  V30 25 1 24 7
M  V30 26 1 25 9
M  V30 27 1 26 10
M  V30 28 1 27 11
M  V30 29 1 28 12
M  V30 30 1 29 13
M  V30 31 1 30 15
M  V30 32 1 31 16
M  V30 33 1 32 17
M  V30 34 1 33 18
M  V30 35 1 34 19
M  V30 END BOND
M  V30 END CTAB
M  END
>  <b_m_subgroup_collapsed>  (2310) 
0

>  <r_i_docking_score>  (2310) 
-5.8543257071599299

>  <s_m_subgroup_title>  (2310) 
glide-dock_SP_D22_pv

>  <s_m_subgroupid>  (2310) 
glide-dock_SP_D22_pv

>  <Molecule ChEMBL ID>  (2310) 
CHEMBL1373

>  <Standard Type>  (2310) 
Ki

>  <Standard Value>  (2310) 
100000.0

>  <label>  (2310) 
0

$$$$
CHEMBL4159365
     RDKit          3D

  0  0  0  0  0  0  0  0  0  0999 V3000
M  V30 BEGIN CTAB
M  V30 COUNTS 53 56 0 0 1
M  V30 BEGIN ATOM
M  V30 1 C 12.486066 9.171148 -3.132047 0
M  V30 2 O 12.268188 8.917272 -4.507825 0
M  V30 3 C 11.238045 9.508821 -5.136428 0
M  V30 4 O 10.486028 10.334071 -4.622029 0
M  V30 5 C 11.069548 9.011911 -6.515268 0
M  V30 6 C 12.171591 8.972180 -7.390028 0
M  V30 7 C 12.026041 8.472619 -8.694854 0
M  V30 8 C 10.772337 8.001558 -9.135119 0
M  V30 9 C 10.628247 7.458768 -10.476186 0
M  V30 10 N 9.601952 6.795257 -10.993628 0
M  V30 11 C 9.963378 6.501472 -12.297636 0
M  V30 12 C 9.001955 5.745741 -13.185081 0
M  V30 13 N 9.044678 4.287526 -13.300829 0
M  V30 14 C 9.829770 3.651737 -12.258088 0
M  V30 15 C 9.290071 3.719939 -14.626728 0
M  V30 16 C 10.650882 4.073285 -15.256260 0 CFG=2
M  V30 17 C 10.552763 5.104209 -16.415525 0
M  V30 18 C 11.424385 4.476259 -17.444208 0
M  V30 19 C 11.863333 5.010776 -18.667177 0
M  V30 20 C 12.672962 4.194669 -19.488546 0
M  V30 21 C 13.015615 2.882001 -19.081327 0
M  V30 22 C 12.555033 2.370273 -17.847004 0
M  V30 23 C 11.760266 3.198184 -17.036230 0
M  V30 24 O 11.237229 2.882228 -15.814718 0
M  V30 25 C 11.228573 7.004589 -12.504665 0
M  V30 26 C 12.174431 7.060086 -13.656686 0
M  V30 27 O 11.657578 7.603834 -11.352329 0
M  V30 28 C 9.659639 8.063490 -8.268826 0
M  V30 29 C 9.805601 8.572326 -6.964266 0
M  V30 30 H 13.206061 8.459348 -2.728412 0
M  V30 31 H 12.885459 10.172624 -2.997328 0
M  V30 32 H 11.563713 9.079237 -2.556534 0
M  V30 33 H 13.138903 9.330500 -7.065535 0
M  V30 34 H 12.885541 8.451435 -9.349648 0
M  V30 35 H 8.995147 6.172309 -14.183974 0
M  V30 36 H 7.995963 5.957272 -12.819347 0
M  V30 37 H 9.489715 3.956593 -11.267938 0
M  V30 38 H 9.729539 2.572524 -12.330814 0
M  V30 39 H 10.883279 3.914310 -12.361390 0
M  V30 40 H 8.486142 4.011448 -15.293964 0
M  V30 41 H 9.206554 2.635619 -14.540281 0
M  V30 42 H 11.360913 4.413082 -14.506848 0
M  V30 43 H 10.895603 6.097711 -16.138031 0
M  V30 44 H 9.544293 5.188973 -16.820833 0
M  V30 45 H 11.588882 6.010488 -18.970591 0
M  V30 46 H 13.029429 4.573307 -20.435329 0
M  V30 47 H 13.633119 2.266783 -19.719099 0
M  V30 48 H 12.815609 1.372596 -17.525906 0
M  V30 49 H 12.605913 6.083093 -13.864491 0
M  V30 50 H 11.686180 7.436588 -14.553101 0
M  V30 51 H 13.003804 7.733778 -13.438491 0
M  V30 52 H 8.689287 7.715767 -8.599248 0
M  V30 53 H 8.945990 8.602011 -6.309277 0
M  V30 END ATOM
M  V30 BEGIN BOND
M  V30 1 1 2 1
M  V30 2 1 3 2
M  V30 3 2 4 3
M  V30 4 1 5 3
M  V30 5 1 6 5
M  V30 6 2 7 6
M  V30 7 1 8 7
M  V30 8 1 9 8
M  V30 9 2 10 9
M  V30 10 1 11 10
M  V30 11 1 12 11
M  V30 12 1 13 12
M  V30 13 1 14 13
M  V30 14 1 15 13
M  V30 15 1 16 15
M  V30 16 1 17 16
M  V30 17 1 18 17
M  V30 18 2 19 18
M  V30 19 1 20 19
M  V30 20 2 21 20
M  V30 21 1 22 21
M  V30 22 1 23 18
M  V30 23 2 23 22
M  V30 24 1 24 16
M  V30 25 1 24 23
M  V30 26 2 25 11
M  V30 27 1 26 25
M  V30 28 1 27 9
M  V30 29 1 27 25
M  V30 30 2 28 8
M  V30 31 2 29 5
M  V30 32 1 29 28
M  V30 33 1 30 1
M  V30 34 1 31 1
M  V30 35 1 32 1
M  V30 36 1 33 6
M  V30 37 1 34 7
M  V30 38 1 35 12
M  V30 39 1 36 12
M  V30 40 1 37 14
M  V30 41 1 38 14
M  V30 42 1 39 14
M  V30 43 1 40 15
M  V30 44 1 41 15
M  V30 45 1 16 42 CFG=1
M  V30 46 1 43 17
M  V30 47 1 44 17
M  V30 48 1 45 19
M  V30 49 1 46 20
M  V30 50 1 47 21
M  V30 51 1 48 22
M  V30 52 1 49 26
M  V30 53 1 50 26
M  V30 54 1 51 26
M  V30 55 1 52 28
M  V30 56 1 53 29
M  V30 END BOND
M  V30 END CTAB
M  END
>  <b_m_subgroup_collapsed>  (2311) 
0

>  <r_i_docking_score>  (2311) 
-5.8535551950020999

>  <s_m_subgroup_title>  (2311) 
glide-dock_SP_D22_pv

>  <s_m_subgroupid>  (2311) 
glide-dock_SP_D22_pv

>  <Molecule ChEMBL ID>  (2311) 
CHEMBL4159365

>  <Standard Type>  (2311) 
Ki

>  <Standard Value>  (2311) 
10000.0

>  <label>  (2311) 
0

$$$$
CHEMBL394777
     RDKit          3D

  0  0  0  0  0  0  0  0  0  0999 V3000
M  V30 BEGIN CTAB
M  V30 COUNTS 43 46 0 0 1
M  V30 BEGIN ATOM
M  V30 1 C 10.960798 4.051441 -18.434351 0
M  V30 2 O 11.908583 4.765861 -17.653862 0
M  V30 3 C 11.563666 5.119552 -16.366158 0
M  V30 4 C 10.306722 4.827085 -15.778691 0
M  V30 5 C 10.020277 5.183615 -14.440155 0
M  V30 6 C 10.988153 5.905087 -13.705735 0
M  V30 7 C 12.231144 6.216291 -14.285676 0
M  V30 8 C 12.525987 5.811199 -15.599644 0
M  V30 9 Cl 14.076271 6.180457 -16.265879 0
M  V30 10 C 10.651639 6.423494 -12.327399 0
M  V30 11 C 9.666304 5.485280 -11.632045 0
M  V30 12 N 8.435247 5.381415 -12.446424 0 CFG=2 CHG=1
M  V30 13 C 7.317283 4.792538 -11.673409 0
M  V30 14 C 5.967735 4.874166 -12.402438 0
M  V30 15 C 5.774041 3.966781 -13.639364 0
M  V30 16 C 6.885108 2.968235 -13.951859 0
M  V30 17 C 6.521642 1.631434 -14.236785 0
M  V30 18 C 7.498703 0.664588 -14.531573 0
M  V30 19 C 8.855276 1.026020 -14.531298 0
M  V30 20 C 9.229632 2.352450 -14.245930 0
M  V30 21 C 8.253868 3.349597 -13.990933 0
M  V30 22 C 8.654518 4.825543 -13.823985 0 CFG=2
M  V30 23 H 11.389426 3.836089 -19.412510 0
M  V30 24 H 10.052430 4.635066 -18.593340 0
M  V30 25 H 10.702625 3.097456 -17.972588 0
M  V30 26 H 9.545614 4.304215 -16.337564 0
M  V30 27 H 12.964812 6.777964 -13.727057 0
M  V30 28 H 11.557484 6.574677 -11.743453 0
M  V30 29 H 10.207236 7.414143 -12.433155 0
M  V30 30 H 10.088861 4.490042 -11.486424 0
M  V30 31 H 9.437070 5.884566 -10.642809 0
M  V30 32 H 7.543239 3.772289 -11.374692 0
M  V30 33 H 7.236439 5.360050 -10.744882 0
M  V30 34 H 5.206595 4.597841 -11.671262 0
M  V30 35 H 5.741154 5.909600 -12.663218 0
M  V30 36 H 4.847585 3.414356 -13.487121 0
M  V30 37 H 5.599825 4.571874 -14.526657 0
M  V30 38 H 5.483173 1.334152 -14.227224 0
M  V30 39 H 7.211024 -0.355591 -14.745459 0
M  V30 40 H 9.611147 0.282604 -14.738169 0
M  V30 41 H 10.283058 2.590568 -14.245106 0
M  V30 42 H 7.956627 5.372118 -14.452227 0
M  V30 43 H 8.159225 6.342398 -12.591941 0
M  V30 END ATOM
M  V30 BEGIN BOND
M  V30 1 1 2 1
M  V30 2 1 3 2
M  V30 3 2 4 3
M  V30 4 1 5 4
M  V30 5 2 6 5
M  V30 6 1 7 6
M  V30 7 1 8 3
M  V30 8 2 8 7
M  V30 9 1 9 8
M  V30 10 1 10 6
M  V30 11 1 11 10
M  V30 12 1 12 11
M  V30 13 1 13 12
M  V30 14 1 14 13
M  V30 15 1 15 14
M  V30 16 1 16 15
M  V30 17 2 17 16
M  V30 18 1 18 17
M  V30 19 2 19 18
M  V30 20 1 20 19
M  V30 21 1 21 16
M  V30 22 2 21 20
M  V30 23 1 22 5
M  V30 24 1 22 12
M  V30 25 1 22 21
M  V30 26 1 23 1
M  V30 27 1 24 1
M  V30 28 1 25 1
M  V30 29 1 26 4
M  V30 30 1 27 7
M  V30 31 1 28 10
M  V30 32 1 29 10
M  V30 33 1 30 11
M  V30 34 1 31 11
M  V30 35 1 32 13
M  V30 36 1 33 13
M  V30 37 1 34 14
M  V30 38 1 35 14
M  V30 39 1 36 15
M  V30 40 1 37 15
M  V30 41 1 38 17
M  V30 42 1 39 18
M  V30 43 1 40 19
M  V30 44 1 41 20
M  V30 45 1 22 42 CFG=3
M  V30 46 1 12 43 CFG=3
M  V30 END BOND
M  V30 END CTAB
M  END
>  <b_m_subgroup_collapsed>  (2312) 
0

>  <r_i_docking_score>  (2312) 
-5.8492666280354104

>  <s_m_subgroup_title>  (2312) 
glide-dock_SP_D22_pv

>  <s_m_subgroupid>  (2312) 
glide-dock_SP_D22_pv

>  <Molecule ChEMBL ID>  (2312) 
CHEMBL394777

>  <Standard Type>  (2312) 
Ki

>  <Standard Value>  (2312) 
10000.0

>  <label>  (2312) 
0

$$$$
CHEMBL2386617
     RDKit          3D

  0  0  0  0  0  0  0  0  0  0999 V3000
M  V30 BEGIN CTAB
M  V30 COUNTS 70 74 0 0 1
M  V30 BEGIN ATOM
M  V30 1 C 13.281009 8.561810 -11.280875 0
M  V30 2 O 12.244143 7.677342 -10.897530 0
M  V30 3 C 11.527427 7.893418 -9.741378 0
M  V30 4 C 12.084540 8.572390 -8.631682 0
M  V30 5 C 11.346348 8.739859 -7.447551 0
M  V30 6 C 10.045433 8.218985 -7.354397 0
M  V30 7 C 9.491782 7.520720 -8.441536 0
M  V30 8 C 10.215402 7.345460 -9.646508 0
M  V30 9 N 9.635127 6.634071 -10.725776 0
M  V30 10 C 8.607446 5.632735 -10.451462 0
M  V30 11 C 8.313932 4.728194 -11.661302 0
M  V30 12 C 9.581593 4.164334 -12.326084 0
M  V30 13 N 10.131986 5.036891 -13.408797 0 CFG=2 CHG=1
M  V30 14 C 11.183290 4.343859 -14.199391 0
M  V30 15 C 10.592535 3.459229 -15.291272 0
M  V30 16 C 11.644348 2.557844 -15.961894 0
M  V30 17 C 11.095350 1.650035 -17.077850 0
M  V30 18 N 9.921588 0.904304 -16.636572 0
M  V30 19 C 8.665316 1.354766 -16.750984 0
M  V30 20 O 8.360956 2.394792 -17.338570 0
M  V30 21 C 7.628035 0.543138 -16.049278 0
M  V30 22 C 7.735106 0.309041 -14.654927 0
M  V30 23 C 6.713584 -0.368963 -13.950705 0
M  V30 24 C 5.566176 -0.826469 -14.631612 0
M  V30 25 C 5.476977 -0.591200 -16.012918 0
M  V30 26 C 6.484540 0.069129 -16.728165 0
M  V30 27 C 6.063201 0.148777 -18.132805 0
M  V30 28 C 6.697899 0.657259 -19.285828 0
M  V30 29 C 5.996085 0.659944 -20.508541 0
M  V30 30 C 4.687745 0.139065 -20.580137 0
M  V30 31 C 4.078587 -0.426401 -19.440109 0
M  V30 32 C 4.787701 -0.415620 -18.230286 0
M  V30 33 C 4.361373 -0.919250 -16.911749 0
M  V30 34 O 3.286178 -1.427656 -16.609812 0
M  V30 35 C 10.660112 6.348392 -12.960152 0
M  V30 36 C 9.726423 7.190802 -12.069648 0
M  V30 37 H 13.686039 8.225675 -12.234281 0
M  V30 38 H 12.885966 9.558277 -11.446952 0
M  V30 39 H 14.107259 8.572271 -10.569622 0
M  V30 40 H 13.086347 8.972127 -8.666081 0
M  V30 41 H 11.781221 9.265631 -6.608792 0
M  V30 42 H 9.469996 8.345410 -6.449714 0
M  V30 43 H 8.485748 7.142269 -8.335442 0
M  V30 44 H 8.941232 5.017965 -9.614624 0
M  V30 45 H 7.686124 6.119607 -10.135536 0
M  V30 46 H 7.692608 3.905264 -11.308441 0
M  V30 47 H 7.694408 5.248114 -12.392954 0
M  V30 48 H 10.341633 3.956323 -11.576164 0
M  V30 49 H 9.317881 3.196319 -12.750156 0
M  V30 50 H 11.840703 5.062957 -14.693674 0
M  V30 51 H 11.823756 3.769986 -13.527576 0
M  V30 52 H 9.822210 2.837162 -14.842307 0
M  V30 53 H 10.097258 4.080163 -16.039690 0
M  V30 54 H 12.458945 3.164177 -16.360497 0
M  V30 55 H 12.084630 1.923128 -15.197206 0
M  V30 56 H 10.863192 2.241910 -17.964933 0
M  V30 57 H 11.864010 0.938494 -17.382202 0
M  V30 58 H 10.070322 0.034165 -16.146763 0
M  V30 59 H 8.593670 0.668365 -14.105686 0
M  V30 60 H 6.809066 -0.537313 -12.887740 0
M  V30 61 H 4.771847 -1.339406 -14.110435 0
M  V30 62 H 7.699632 1.050772 -19.265774 0
M  V30 63 H 6.457972 1.068133 -21.395670 0
M  V30 64 H 4.149999 0.171642 -21.512938 0
M  V30 65 H 3.079579 -0.835321 -19.486929 0
M  V30 66 H 11.622811 6.171892 -12.493658 0
M  V30 67 H 10.888766 6.933215 -13.846764 0
M  V30 68 H 8.733622 7.269675 -12.512934 0
M  V30 69 H 10.084350 8.218367 -12.019506 0
M  V30 70 H 9.368549 5.239407 -14.038750 0
M  V30 END ATOM
M  V30 BEGIN BOND
M  V30 1 1 2 1
M  V30 2 1 3 2
M  V30 3 2 4 3
M  V30 4 1 5 4
M  V30 5 2 6 5
M  V30 6 1 7 6
M  V30 7 1 8 3
M  V30 8 2 8 7
M  V30 9 1 9 8
M  V30 10 1 10 9
M  V30 11 1 11 10
M  V30 12 1 12 11
M  V30 13 1 13 12
M  V30 14 1 14 13
M  V30 15 1 15 14
M  V30 16 1 16 15
M  V30 17 1 17 16
M  V30 18 1 18 17
M  V30 19 1 19 18
M  V30 20 2 20 19
M  V30 21 1 21 19
M  V30 22 1 22 21
M  V30 23 2 23 22
M  V30 24 1 24 23
M  V30 25 2 25 24
M  V30 26 2 26 21
M  V30 27 1 26 25
M  V30 28 1 27 26
M  V30 29 2 28 27
M  V30 30 1 29 28
M  V30 31 2 30 29
M  V30 32 1 31 30
M  V30 33 1 32 27
M  V30 34 2 32 31
M  V30 35 1 33 25
M  V30 36 1 33 32
M  V30 37 2 34 33
M  V30 38 1 35 13
M  V30 39 1 36 9
M  V30 40 1 36 35
M  V30 41 1 37 1
M  V30 42 1 38 1
M  V30 43 1 39 1
M  V30 44 1 40 4
M  V30 45 1 41 5
M  V30 46 1 42 6
M  V30 47 1 43 7
M  V30 48 1 44 10
M  V30 49 1 45 10
M  V30 50 1 46 11
M  V30 51 1 47 11
M  V30 52 1 48 12
M  V30 53 1 49 12
M  V30 54 1 50 14
M  V30 55 1 51 14
M  V30 56 1 52 15
M  V30 57 1 53 15
M  V30 58 1 54 16
M  V30 59 1 55 16
M  V30 60 1 56 17
M  V30 61 1 57 17
M  V30 62 1 58 18
M  V30 63 1 59 22
M  V30 64 1 60 23
M  V30 65 1 61 24
M  V30 66 1 62 28
M  V30 67 1 63 29
M  V30 68 1 64 30
M  V30 69 1 65 31
M  V30 70 1 66 35
M  V30 71 1 67 35
M  V30 72 1 68 36
M  V30 73 1 69 36
M  V30 74 1 13 70 CFG=3
M  V30 END BOND
M  V30 END CTAB
M  END
>  <b_m_subgroup_collapsed>  (2313) 
0

>  <r_i_docking_score>  (2313) 
-5.8483764483970297

>  <s_m_subgroup_title>  (2313) 
glide-dock_SP_D22_pv

>  <s_m_subgroupid>  (2313) 
glide-dock_SP_D22_pv

>  <Molecule ChEMBL ID>  (2313) 
CHEMBL2386617

>  <Standard Type>  (2313) 
Ki

>  <Standard Value>  (2313) 
100.0

>  <label>  (2313) 
1

$$$$
CHEMBL3764557
     RDKit          3D

  0  0  0  0  0  0  0  0  0  0999 V3000
M  V30 BEGIN CTAB
M  V30 COUNTS 56 59 0 0 1
M  V30 BEGIN ATOM
M  V30 1 C 4.803272 0.738662 -20.313141 0
M  V30 2 C 4.578675 -0.230854 -19.194258 0
M  V30 3 N 3.658463 -1.258400 -19.308290 0
M  V30 4 C 3.694076 -1.883096 -18.135754 0
M  V30 5 O 4.598347 -1.358213 -17.268606 0
M  V30 6 C 5.178187 -0.327007 -17.961456 0
M  V30 7 C 6.272107 0.416398 -17.344368 0
M  V30 8 N 6.990398 1.299437 -18.048126 0
M  V30 9 N 7.981345 1.728495 -17.209793 0
M  V30 10 C 7.770961 1.105521 -16.049967 0
M  V30 11 S 8.822132 1.294968 -14.648830 0
M  V30 12 C 8.434908 3.018576 -14.220153 0
M  V30 13 C 9.108262 4.049459 -15.142177 0
M  V30 14 C 10.635360 4.122498 -15.006791 0
M  V30 15 N 11.121198 5.452807 -14.663645 0
M  V30 16 C 12.553689 5.566958 -14.872561 0
M  V30 17 C 13.048295 6.972354 -14.522272 0
M  V30 18 O 12.739134 7.288493 -13.165282 0
M  V30 19 C 11.357128 7.176343 -12.846555 0 CFG=2
M  V30 20 C 11.075850 7.480640 -11.373816 0
M  V30 21 C 12.095467 7.987617 -10.536476 0
M  V30 22 C 11.848524 8.254487 -9.177387 0
M  V30 23 C 10.568474 8.033935 -8.629618 0
M  V30 24 C 10.318414 8.308426 -7.152507 0
M  V30 25 F 9.015505 8.428958 -6.892612 0
M  V30 26 F 10.806894 7.303458 -6.425199 0
M  V30 27 F 10.924153 9.437528 -6.780396 0
M  V30 28 C 9.541270 7.544472 -9.462537 0
M  V30 29 C 9.789784 7.279687 -10.823710 0
M  V30 30 C 10.829578 5.783368 -13.272892 0
M  V30 31 N 6.693812 0.293558 -16.063408 0
M  V30 32 C 6.137774 -0.508379 -14.982697 0
M  V30 33 H 4.686309 1.769198 -19.970676 0
M  V30 34 H 5.803712 0.635565 -20.729258 0
M  V30 35 H 4.088835 0.574487 -21.120127 0
M  V30 36 H 3.088056 -2.735251 -17.871527 0
M  V30 37 H 7.351042 3.145635 -14.243851 0
M  V30 38 H 8.744595 3.196424 -13.190717 0
M  V30 39 H 8.886422 3.850974 -16.187920 0
M  V30 40 H 8.660484 5.025591 -14.954494 0
M  V30 41 H 10.992328 3.391686 -14.280318 0
M  V30 42 H 11.067651 3.818950 -15.960544 0
M  V30 43 H 13.082088 4.829915 -14.264955 0
M  V30 44 H 12.794707 5.348615 -15.915035 0
M  V30 45 H 14.123783 6.975829 -14.647295 0
M  V30 46 H 12.627457 7.722634 -15.191905 0
M  V30 47 H 10.886232 7.953554 -13.437799 0
M  V30 48 H 13.085676 8.173350 -10.927348 0
M  V30 49 H 12.644100 8.635173 -8.555913 0
M  V30 50 H 8.549792 7.372823 -9.067973 0
M  V30 51 H 8.977051 6.920450 -11.435640 0
M  V30 52 H 9.755501 5.730335 -13.100944 0
M  V30 53 H 11.278110 5.019386 -12.647009 0
M  V30 54 H 6.741454 -0.435851 -14.077553 0
M  V30 55 H 5.128623 -0.159914 -14.758142 0
M  V30 56 H 6.088543 -1.556650 -15.278445 0
M  V30 END ATOM
M  V30 BEGIN BOND
M  V30 1 1 2 1
M  V30 2 1 3 2
M  V30 3 2 4 3
M  V30 4 1 5 4
M  V30 5 2 6 2
M  V30 6 1 6 5
M  V30 7 1 7 6
M  V30 8 2 8 7
M  V30 9 1 9 8
M  V30 10 2 10 9
M  V30 11 1 11 10
M  V30 12 1 12 11
M  V30 13 1 13 12
M  V30 14 1 14 13
M  V30 15 1 15 14
M  V30 16 1 16 15
M  V30 17 1 17 16
M  V30 18 1 18 17
M  V30 19 1 19 18
M  V30 20 1 20 19
M  V30 21 1 21 20
M  V30 22 2 22 21
M  V30 23 1 23 22
M  V30 24 1 24 23
M  V30 25 1 25 24
M  V30 26 1 26 24
M  V30 27 1 27 24
M  V30 28 2 28 23
M  V30 29 2 29 20
M  V30 30 1 29 28
M  V30 31 1 30 15
M  V30 32 1 30 19
M  V30 33 1 31 7
M  V30 34 1 31 10
M  V30 35 1 32 31
M  V30 36 1 33 1
M  V30 37 1 34 1
M  V30 38 1 35 1
M  V30 39 1 36 4
M  V30 40 1 37 12
M  V30 41 1 38 12
M  V30 42 1 39 13
M  V30 43 1 40 13
M  V30 44 1 41 14
M  V30 45 1 42 14
M  V30 46 1 43 16
M  V30 47 1 44 16
M  V30 48 1 45 17
M  V30 49 1 46 17
M  V30 50 1 19 47 CFG=3
M  V30 51 1 48 21
M  V30 52 1 49 22
M  V30 53 1 50 28
M  V30 54 1 51 29
M  V30 55 1 52 30
M  V30 56 1 53 30
M  V30 57 1 54 32
M  V30 58 1 55 32
M  V30 59 1 56 32
M  V30 END BOND
M  V30 END CTAB
M  END
>  <b_m_subgroup_collapsed>  (2314) 
0

>  <r_i_docking_score>  (2314) 
-5.8483741464657202

>  <s_m_subgroup_title>  (2314) 
glide-dock_SP_D22_pv

>  <s_m_subgroupid>  (2314) 
glide-dock_SP_D22_pv

>  <Molecule ChEMBL ID>  (2314) 
CHEMBL3764557

>  <Standard Type>  (2314) 
Ki

>  <Standard Value>  (2314) 
12589.25

>  <label>  (2314) 
0

$$$$
CHEMBL4241050
     RDKit          3D

  0  0  0  0  0  0  0  0  0  0999 V3000
M  V30 BEGIN CTAB
M  V30 COUNTS 66 71 0 0 1
M  V30 BEGIN ATOM
M  V30 1 O 8.351470 5.973280 -12.810976 0
M  V30 2 S 9.330692 6.855949 -12.153627 0
M  V30 3 O 9.166833 8.314877 -12.246815 0
M  V30 4 C 9.377033 6.391742 -10.415366 0
M  V30 5 C 8.687881 5.225816 -10.030111 0
M  V30 6 C 8.547740 4.918118 -8.667682 0
M  V30 7 C 9.097176 5.772370 -7.700555 0
M  V30 8 C 9.884377 6.864922 -8.049163 0
M  V30 9 N 10.506388 7.546804 -7.060137 0
M  V30 10 C 11.309642 8.565242 -7.399179 0
M  V30 11 C 11.457635 8.972471 -8.729012 0
M  V30 12 C 10.744814 8.337054 -9.736741 0
M  V30 13 C 9.999915 7.193039 -9.425251 0
M  V30 14 N 10.903558 6.424006 -12.810390 0
M  V30 15 C 12.105496 7.260787 -12.720613 0
M  V30 16 C 12.505552 7.546482 -14.160293 0
M  V30 17 C 12.114518 6.278203 -14.895639 0
M  V30 18 C 10.981224 5.654983 -14.058757 0 CFG=1
M  V30 19 C 11.264488 4.189105 -13.719488 0
M  V30 20 C 11.213285 3.282538 -14.960607 0
M  V30 21 N 10.303802 2.130091 -14.776691 0 CFG=2 CHG=1
M  V30 22 C 10.543115 1.078846 -15.800452 0
M  V30 23 C 9.644532 -0.149989 -15.571394 0
M  V30 24 C 8.153481 0.224422 -15.441632 0 CFG=2
M  V30 25 C 7.470088 0.499580 -16.757984 0
M  V30 26 N 7.932841 1.413212 -17.614033 0
M  V30 27 O 7.049416 1.440960 -18.725885 0
M  V30 28 C 6.010160 0.554250 -18.512339 0
M  V30 29 C 4.881059 0.244299 -19.275005 0
M  V30 30 C 3.995131 -0.717282 -18.753414 0
M  V30 31 F 2.886151 -1.027750 -19.446863 0
M  V30 32 C 4.248057 -1.347558 -17.512350 0
M  V30 33 C 5.397411 -1.014092 -16.762442 0
M  V30 34 C 6.282497 -0.042887 -17.280167 0
M  V30 35 C 7.968287 1.353932 -14.426339 0
M  V30 36 C 8.877327 2.550337 -14.721583 0
M  V30 37 H 8.205715 4.597987 -10.764241 0
M  V30 38 H 7.991923 4.045702 -8.362906 0
M  V30 39 H 8.949949 5.624108 -6.647087 0
M  V30 40 H 11.835397 9.067080 -6.599163 0
M  V30 41 H 12.086065 9.772324 -9.031668 0
M  V30 42 H 10.814017 8.758412 -10.713495 0
M  V30 43 H 11.994581 8.172017 -12.158784 0
M  V30 44 H 12.885894 6.673550 -12.246670 0
M  V30 45 H 11.947172 8.394942 -14.549000 0
M  V30 46 H 13.565948 7.772155 -14.259892 0
M  V30 47 H 11.802800 6.486262 -15.919827 0
M  V30 48 H 12.980879 5.616150 -14.946785 0
M  V30 49 H 10.041734 5.757240 -14.603058 0
M  V30 50 H 12.254295 4.128398 -13.266903 0
M  V30 51 H 10.576675 3.853684 -12.943218 0
M  V30 52 H 10.905587 3.838080 -15.848538 0
M  V30 53 H 12.222762 2.932047 -15.173188 0
M  V30 54 H 10.389458 1.494141 -16.796425 0
M  V30 55 H 11.586356 0.764082 -15.771078 0
M  V30 56 H 9.787114 -0.891308 -16.359182 0
M  V30 57 H 9.966923 -0.627635 -14.646962 0
M  V30 58 H 7.647601 -0.628287 -15.000351 0
M  V30 59 H 4.690331 0.726452 -20.222288 0
M  V30 60 H 3.555603 -2.087825 -17.133354 0
M  V30 61 H 5.589691 -1.498069 -15.815108 0
M  V30 62 H 6.923974 1.662040 -14.371231 0
M  V30 63 H 8.228921 0.958693 -13.447061 0
M  V30 64 H 8.716546 3.296767 -13.944678 0
M  V30 65 H 8.594562 3.033832 -15.656244 0
M  V30 66 H 10.519018 1.717358 -13.878704 0
M  V30 END ATOM
M  V30 BEGIN BOND
M  V30 1 2 2 1
M  V30 2 2 3 2
M  V30 3 1 4 2
M  V30 4 1 5 4
M  V30 5 2 6 5
M  V30 6 1 7 6
M  V30 7 2 8 7
M  V30 8 1 9 8
M  V30 9 2 10 9
M  V30 10 1 11 10
M  V30 11 2 12 11
M  V30 12 2 13 4
M  V30 13 1 13 8
M  V30 14 1 13 12
M  V30 15 1 14 2
M  V30 16 1 15 14
M  V30 17 1 16 15
M  V30 18 1 17 16
M  V30 19 1 18 14
M  V30 20 1 18 17
M  V30 21 1 19 18
M  V30 22 1 20 19
M  V30 23 1 21 20
M  V30 24 1 22 21
M  V30 25 1 23 22
M  V30 26 1 24 23
M  V30 27 1 25 24
M  V30 28 2 26 25
M  V30 29 1 27 26
M  V30 30 1 28 27
M  V30 31 1 29 28
M  V30 32 2 30 29
M  V30 33 1 31 30
M  V30 34 1 32 30
M  V30 35 2 33 32
M  V30 36 1 34 25
M  V30 37 2 34 28
M  V30 38 1 34 33
M  V30 39 1 35 24
M  V30 40 1 36 21
M  V30 41 1 36 35
M  V30 42 1 37 5
M  V30 43 1 38 6
M  V30 44 1 39 7
M  V30 45 1 40 10
M  V30 46 1 41 11
M  V30 47 1 42 12
M  V30 48 1 43 15
M  V30 49 1 44 15
M  V30 50 1 45 16
M  V30 51 1 46 16
M  V30 52 1 47 17
M  V30 53 1 48 17
M  V30 54 1 18 49 CFG=3
M  V30 55 1 50 19
M  V30 56 1 51 19
M  V30 57 1 52 20
M  V30 58 1 53 20
M  V30 59 1 54 22
M  V30 60 1 55 22
M  V30 61 1 56 23
M  V30 62 1 57 23
M  V30 63 1 24 58 CFG=1
M  V30 64 1 59 29
M  V30 65 1 60 32
M  V30 66 1 61 33
M  V30 67 1 62 35
M  V30 68 1 63 35
M  V30 69 1 64 36
M  V30 70 1 65 36
M  V30 71 1 21 66 CFG=1
M  V30 END BOND
M  V30 END CTAB
M  END
>  <b_m_subgroup_collapsed>  (2315) 
0

>  <r_i_docking_score>  (2315) 
-5.8423214463895601

>  <s_m_subgroup_title>  (2315) 
glide-dock_SP_D22_pv

>  <s_m_subgroupid>  (2315) 
glide-dock_SP_D22_pv

>  <Molecule ChEMBL ID>  (2315) 
CHEMBL4241050

>  <Standard Type>  (2315) 
Ki

>  <Standard Value>  (2315) 
1.7

>  <label>  (2315) 
1

$$$$
CHEMBL508399
     RDKit          3D

  0  0  0  0  0  0  0  0  0  0999 V3000
M  V30 BEGIN CTAB
M  V30 COUNTS 45 47 0 0 1
M  V30 BEGIN ATOM
M  V30 1 C 10.010055 5.495030 -18.228403 0
M  V30 2 C 10.492108 5.227734 -16.795910 0
M  V30 3 N 11.884125 4.715723 -16.725634 0 CFG=1 CHG=1
M  V30 4 C 12.588429 4.973742 -15.437425 0
M  V30 5 C 12.093423 4.204440 -14.190730 0
M  V30 6 C 10.687080 4.519767 -13.703678 0
M  V30 7 C 10.481841 5.780090 -13.102930 0
M  V30 8 C 9.223953 6.146427 -12.593755 0
M  V30 9 C 8.146415 5.253329 -12.690928 0
M  V30 10 C 8.339358 3.992252 -13.281156 0
M  V30 11 C 9.603720 3.596883 -13.776625 0
M  V30 12 C 9.736437 2.175878 -14.332124 0
M  V30 13 C 9.227777 2.019799 -15.761772 0
M  V30 14 C 7.832142 1.880587 -15.929483 0
M  V30 15 C 7.265084 1.766161 -17.207508 0
M  V30 16 C 8.090098 1.772270 -18.341330 0
M  V30 17 O 7.525618 1.688015 -19.579893 0
M  V30 18 C 9.485309 1.872669 -18.191359 0
M  V30 19 C 10.069745 2.006974 -16.910440 0
M  V30 20 C 11.590219 2.115373 -16.846855 0
M  V30 21 C 12.197124 3.424892 -17.413511 0
M  V30 22 H 9.034194 5.981003 -18.214209 0
M  V30 23 H 9.896950 4.573124 -18.798311 0
M  V30 24 H 10.700075 6.148046 -18.764378 0
M  V30 25 H 10.482495 6.173587 -16.256084 0
M  V30 26 H 9.790265 4.578081 -16.284035 0
M  V30 27 H 13.645785 4.748707 -15.583353 0
M  V30 28 H 12.555628 6.044806 -15.234522 0
M  V30 29 H 12.247555 3.144394 -14.297775 0
M  V30 30 H 12.761897 4.467195 -13.369380 0
M  V30 31 H 11.299433 6.484597 -13.025964 0
M  V30 32 H 9.080936 7.112931 -12.130730 0
M  V30 33 H 7.179109 5.530843 -12.296265 0
M  V30 34 H 7.501431 3.312484 -13.322663 0
M  V30 35 H 10.718314 1.741261 -14.182133 0
M  V30 36 H 9.105453 1.537926 -13.711750 0
M  V30 37 H 7.178520 1.873083 -15.069334 0
M  V30 38 H 6.193317 1.674560 -17.313393 0
M  V30 39 H 8.148375 1.532035 -20.275469 0
M  V30 40 H 10.116968 1.860852 -19.068966 0
M  V30 41 H 11.991621 1.855780 -15.875473 0
M  V30 42 H 11.968873 1.304207 -17.471354 0
M  V30 43 H 11.921104 3.516938 -18.463282 0
M  V30 44 H 13.282778 3.316045 -17.424259 0
M  V30 45 H 12.358274 5.373481 -17.328798 0
M  V30 END ATOM
M  V30 BEGIN BOND
M  V30 1 1 2 1
M  V30 2 1 3 2
M  V30 3 1 4 3
M  V30 4 1 5 4
M  V30 5 1 6 5
M  V30 6 2 7 6
M  V30 7 1 8 7
M  V30 8 2 9 8
M  V30 9 1 10 9
M  V30 10 1 11 6
M  V30 11 2 11 10
M  V30 12 1 12 11
M  V30 13 1 13 12
M  V30 14 1 14 13
M  V30 15 2 15 14
M  V30 16 1 16 15
M  V30 17 1 17 16
M  V30 18 2 18 16
M  V30 19 2 19 13
M  V30 20 1 19 18
M  V30 21 1 20 19
M  V30 22 1 21 3
M  V30 23 1 21 20
M  V30 24 1 22 1
M  V30 25 1 23 1
M  V30 26 1 24 1
M  V30 27 1 25 2
M  V30 28 1 26 2
M  V30 29 1 27 4
M  V30 30 1 28 4
M  V30 31 1 29 5
M  V30 32 1 30 5
M  V30 33 1 31 7
M  V30 34 1 32 8
M  V30 35 1 33 9
M  V30 36 1 34 10
M  V30 37 1 35 12
M  V30 38 1 36 12
M  V30 39 1 37 14
M  V30 40 1 38 15
M  V30 41 1 39 17
M  V30 42 1 40 18
M  V30 43 1 41 20
M  V30 44 1 42 20
M  V30 45 1 43 21
M  V30 46 1 44 21
M  V30 47 1 3 45 CFG=3
M  V30 END BOND
M  V30 END CTAB
M  END
>  <b_m_subgroup_collapsed>  (2316) 
0

>  <r_i_docking_score>  (2316) 
-5.8417667154739403

>  <s_m_subgroup_title>  (2316) 
glide-dock_SP_D22_pv

>  <s_m_subgroupid>  (2316) 
glide-dock_SP_D22_pv

>  <Molecule ChEMBL ID>  (2316) 
CHEMBL508399

>  <Standard Type>  (2316) 
Ki

>  <Standard Value>  (2316) 
77.62

>  <label>  (2316) 
1

$$$$
CHEMBL201177
     RDKit          3D

  0  0  0  0  0  0  0  0  0  0999 V3000
M  V30 BEGIN CTAB
M  V30 COUNTS 48 51 0 0 1
M  V30 BEGIN ATOM
M  V30 1 C 6.435382 2.536932 -14.090115 0
M  V30 2 N 7.467233 3.380872 -13.447027 0 CFG=2 CHG=1
M  V30 3 C 7.172230 4.827334 -13.546202 0
M  V30 4 C 6.770141 5.409789 -12.184308 0
M  V30 5 C 7.861261 5.393435 -11.091594 0
M  V30 6 C 9.040927 6.365536 -11.311955 0 CFG=1
M  V30 7 C 9.686929 6.842444 -10.008899 0
M  V30 8 C 9.898616 5.965239 -8.921681 0
M  V30 9 C 10.483886 6.440571 -7.730868 0
M  V30 10 C 10.879324 7.785864 -7.619380 0
M  V30 11 C 10.674872 8.664409 -8.697746 0
M  V30 12 C 10.071706 8.197636 -9.880422 0
M  V30 13 C 10.085990 5.986499 -12.336811 0
M  V30 14 N 10.973734 6.977060 -12.718785 0
M  V30 15 C 11.753243 6.585305 -13.781145 0
M  V30 16 C 12.684095 7.272273 -14.579646 0
M  V30 17 C 13.339952 6.584722 -15.616407 0
M  V30 18 C 13.068770 5.219824 -15.830184 0
M  V30 19 C 12.131521 4.545066 -15.021698 0
M  V30 20 C 11.433352 5.218389 -13.990062 0
M  V30 21 C 10.423906 4.837261 -13.034636 0
M  V30 22 C 9.936424 3.424053 -12.892654 0
M  V30 23 C 8.833568 2.997071 -13.874913 0
M  V30 24 H 6.484834 2.636494 -15.175241 0
M  V30 25 H 5.435429 2.817110 -13.755482 0
M  V30 26 H 6.580621 1.484990 -13.840794 0
M  V30 27 H 8.001547 5.382637 -13.981524 0
M  V30 28 H 6.342200 4.967711 -14.239300 0
M  V30 29 H 6.429752 6.437137 -12.324570 0
M  V30 30 H 5.897293 4.870715 -11.814374 0
M  V30 31 H 7.348110 5.763877 -10.204386 0
M  V30 32 H 8.184013 4.388218 -10.833826 0
M  V30 33 H 8.560127 7.265728 -11.700120 0
M  V30 34 H 9.612217 4.926215 -8.991783 0
M  V30 35 H 10.638525 5.772645 -6.897808 0
M  V30 36 H 11.334703 8.142597 -6.707260 0
M  V30 37 H 10.975235 9.698196 -8.615764 0
M  V30 38 H 9.903102 8.890216 -10.691661 0
M  V30 39 H 10.970497 7.892840 -12.295642 0
M  V30 40 H 12.897368 8.314944 -14.398921 0
M  V30 41 H 14.061439 7.098426 -16.235233 0
M  V30 42 H 13.584977 4.686313 -16.615417 0
M  V30 43 H 11.935996 3.499219 -15.204462 0
M  V30 44 H 10.778379 2.766069 -13.100336 0
M  V30 45 H 9.683307 3.195063 -11.860402 0
M  V30 46 H 8.867861 1.906778 -13.921303 0
M  V30 47 H 9.043450 3.347115 -14.887061 0
M  V30 48 H 7.420074 3.168931 -12.460465 0
M  V30 END ATOM
M  V30 BEGIN BOND
M  V30 1 1 2 1
M  V30 2 1 3 2
M  V30 3 1 4 3
M  V30 4 1 5 4
M  V30 5 1 6 5
M  V30 6 1 7 6
M  V30 7 2 8 7
M  V30 8 1 9 8
M  V30 9 2 10 9
M  V30 10 1 11 10
M  V30 11 1 12 7
M  V30 12 2 12 11
M  V30 13 1 13 6
M  V30 14 1 14 13
M  V30 15 1 15 14
M  V30 16 2 16 15
M  V30 17 1 17 16
M  V30 18 2 18 17
M  V30 19 1 19 18
M  V30 20 1 20 15
M  V30 21 2 20 19
M  V30 22 2 21 13
M  V30 23 1 21 20
M  V30 24 1 22 21
M  V30 25 1 23 2
M  V30 26 1 23 22
M  V30 27 1 24 1
M  V30 28 1 25 1
M  V30 29 1 26 1
M  V30 30 1 27 3
M  V30 31 1 28 3
M  V30 32 1 29 4
M  V30 33 1 30 4
M  V30 34 1 31 5
M  V30 35 1 32 5
M  V30 36 1 6 33 CFG=3
M  V30 37 1 34 8
M  V30 38 1 35 9
M  V30 39 1 36 10
M  V30 40 1 37 11
M  V30 41 1 38 12
M  V30 42 1 39 14
M  V30 43 1 40 16
M  V30 44 1 41 17
M  V30 45 1 42 18
M  V30 46 1 43 19
M  V30 47 1 44 22
M  V30 48 1 45 22
M  V30 49 1 46 23
M  V30 50 1 47 23
M  V30 51 1 2 48 CFG=1
M  V30 END BOND
M  V30 END CTAB
M  END
>  <b_m_subgroup_collapsed>  (2317) 
0

>  <r_i_docking_score>  (2317) 
-5.8409670559105997

>  <s_m_subgroup_title>  (2317) 
glide-dock_SP_D22_pv

>  <s_m_subgroupid>  (2317) 
glide-dock_SP_D22_pv

>  <Molecule ChEMBL ID>  (2317) 
CHEMBL201177

>  <Standard Type>  (2317) 
Ki

>  <Standard Value>  (2317) 
10000.0

>  <label>  (2317) 
0

$$$$
CHEMBL3221299
     RDKit          3D

  0  0  0  0  0  0  0  0  0  0999 V3000
M  V30 BEGIN CTAB
M  V30 COUNTS 49 51 0 0 1
M  V30 BEGIN ATOM
M  V30 1 C 8.934376 4.590669 -9.010473 0
M  V30 2 C 8.486250 5.879564 -8.321393 0
M  V30 3 N 9.637559 6.694857 -7.865381 0 CFG=2 CHG=1
M  V30 4 C 9.325761 7.698827 -6.826114 0
M  V30 5 C 10.471391 8.723644 -6.874155 0
M  V30 6 C 11.346790 8.300538 -8.059044 0
M  V30 7 C 10.461060 7.375181 -8.899488 0 CFG=2
M  V30 8 C 9.642620 8.196533 -9.936709 0
M  V30 9 N 9.123903 7.400865 -11.047153 0
M  V30 10 C 9.962341 6.808368 -12.004701 0
M  V30 11 N 11.188369 7.372174 -12.165261 0 CHG=1
M  V30 12 N 12.086123 6.970058 -13.068270 0
M  V30 13 C 11.772027 5.915725 -13.844811 0
M  V30 14 C 10.542006 5.239710 -13.756362 0
M  V30 15 C 10.276936 4.147762 -14.596295 0
M  V30 16 C 9.044281 3.485810 -14.506162 0
M  V30 17 C 8.056971 3.906252 -13.581192 0
M  V30 18 O 6.851830 3.243247 -13.459129 0
M  V30 19 C 6.617457 2.072041 -14.229862 0
M  V30 20 C 8.322132 5.025807 -12.733981 0
M  V30 21 O 7.421693 5.471412 -11.785773 0
M  V30 22 C 6.026885 5.425289 -12.055486 0
M  V30 23 C 9.583779 5.690543 -12.813723 0
M  V30 24 H 8.085480 4.169380 -9.540550 0
M  V30 25 H 9.716399 4.755235 -9.750792 0
M  V30 26 H 9.285971 3.850844 -8.291525 0
M  V30 27 H 7.856760 5.626989 -7.467474 0
M  V30 28 H 7.853840 6.440426 -8.999654 0
M  V30 29 H 9.248875 7.222376 -5.847631 0
M  V30 30 H 8.370599 8.183625 -7.039943 0
M  V30 31 H 11.045760 8.730433 -5.944204 0
M  V30 32 H 10.086117 9.733927 -7.025551 0
M  V30 33 H 12.205619 7.738484 -7.687700 0
M  V30 34 H 11.742518 9.152491 -8.614458 0
M  V30 35 H 11.094689 6.650310 -9.411856 0
M  V30 36 H 10.256393 8.996225 -10.351637 0
M  V30 37 H 8.804416 8.699283 -9.452547 0
M  V30 38 H 8.155398 7.090010 -10.980155 0
M  V30 39 H 12.530525 5.609564 -14.551398 0
M  V30 40 H 11.011713 3.810100 -15.314301 0
M  V30 41 H 8.883940 2.646710 -15.165833 0
M  V30 42 H 5.647322 1.656210 -13.959363 0
M  V30 43 H 6.594106 2.295288 -15.298015 0
M  V30 44 H 7.365451 1.302148 -14.032726 0
M  V30 45 H 5.516235 6.172172 -11.448758 0
M  V30 46 H 5.798065 5.642117 -13.099155 0
M  V30 47 H 5.601514 4.459394 -11.783313 0
M  V30 48 H 11.429398 8.177775 -11.587802 0
M  V30 49 H 10.263025 6.048406 -7.404626 0
M  V30 END ATOM
M  V30 BEGIN BOND
M  V30 1 1 2 1
M  V30 2 1 3 2
M  V30 3 1 4 3
M  V30 4 1 5 4
M  V30 5 1 6 5
M  V30 6 1 7 3
M  V30 7 1 7 6
M  V30 8 1 8 7
M  V30 9 1 9 8
M  V30 10 1 10 9
M  V30 11 1 11 10
M  V30 12 2 12 11
M  V30 13 1 13 12
M  V30 14 2 14 13
M  V30 15 1 15 14
M  V30 16 2 16 15
M  V30 17 1 17 16
M  V30 18 1 18 17
M  V30 19 1 19 18
M  V30 20 2 20 17
M  V30 21 1 21 20
M  V30 22 1 22 21
M  V30 23 2 23 10
M  V30 24 1 23 14
M  V30 25 1 23 20
M  V30 26 1 24 1
M  V30 27 1 25 1
M  V30 28 1 26 1
M  V30 29 1 27 2
M  V30 30 1 28 2
M  V30 31 1 29 4
M  V30 32 1 30 4
M  V30 33 1 31 5
M  V30 34 1 32 5
M  V30 35 1 33 6
M  V30 36 1 34 6
M  V30 37 1 7 35 CFG=3
M  V30 38 1 36 8
M  V30 39 1 37 8
M  V30 40 1 38 9
M  V30 41 1 39 13
M  V30 42 1 40 15
M  V30 43 1 41 16
M  V30 44 1 42 19
M  V30 45 1 43 19
M  V30 46 1 44 19
M  V30 47 1 45 22
M  V30 48 1 46 22
M  V30 49 1 47 22
M  V30 50 1 48 11
M  V30 51 1 3 49 CFG=1
M  V30 END BOND
M  V30 END CTAB
M  END
>  <b_m_subgroup_collapsed>  (2318) 
0

>  <r_i_docking_score>  (2318) 
-5.8377388505577601

>  <s_m_subgroup_title>  (2318) 
glide-dock_SP_D22_pv

>  <s_m_subgroupid>  (2318) 
glide-dock_SP_D22_pv

>  <Molecule ChEMBL ID>  (2318) 
CHEMBL3221299

>  <Standard Type>  (2318) 
Ki

>  <Standard Value>  (2318) 
3.9

>  <label>  (2318) 
1

$$$$
CHEMBL4742201
     RDKit          3D

  0  0  0  0  0  0  0  0  0  0999 V3000
M  V30 BEGIN CTAB
M  V30 COUNTS 46 48 0 0 1
M  V30 BEGIN ATOM
M  V30 1 C 4.563085 -4.556816 -18.797321 0
M  V30 2 N 4.886049 -4.048633 -17.446161 0 CHG=1
M  V30 3 C 5.624781 -5.051022 -16.644474 0
M  V30 4 C 5.552893 -2.720605 -17.475290 0
M  V30 5 C 5.336922 -1.896039 -16.180267 0
M  V30 6 N 6.092273 -0.619791 -16.129267 0
M  V30 7 C 6.322441 -0.058292 -14.909061 0
M  V30 8 O 5.869019 -0.535249 -13.865989 0
M  V30 9 C 7.079414 1.246089 -14.811477 0
M  V30 10 C 6.481837 2.301133 -14.084267 0
M  V30 11 C 7.161422 3.509409 -13.846612 0
M  V30 12 C 8.468390 3.681632 -14.330235 0
M  V30 13 C 9.081185 2.646076 -15.055231 0
M  V30 14 C 8.409170 1.422546 -15.292736 0
M  V30 15 N 9.169440 0.373704 -15.884050 0
M  V30 16 C 10.435763 0.043701 -15.233540 0
M  V30 17 C 8.915402 -0.177331 -17.096416 0
M  V30 18 O 9.676122 -0.984738 -17.637083 0
M  V30 19 C 7.690845 0.267078 -17.846806 0
M  V30 20 C 7.873958 0.815681 -19.135921 0
M  V30 21 C 6.772806 1.165448 -19.936647 0
M  V30 22 C 5.468561 0.970772 -19.452408 0
M  V30 23 C 5.272601 0.425663 -18.171925 0
M  V30 24 C 6.369282 0.058638 -17.358850 0
M  V30 25 H 5.467734 -4.713875 -19.385923 0
M  V30 26 H 3.920094 -3.855621 -19.331539 0
M  V30 27 H 4.023783 -5.502944 -18.732321 0
M  V30 28 H 6.620879 -5.229722 -17.052063 0
M  V30 29 H 5.085121 -5.998864 -16.629986 0
M  V30 30 H 5.729477 -4.729270 -15.608853 0
M  V30 31 H 6.616682 -2.850899 -17.679451 0
M  V30 32 H 5.145896 -2.169948 -18.322083 0
M  V30 33 H 4.274329 -1.682270 -16.050573 0
M  V30 34 H 5.630615 -2.515969 -15.332314 0
M  V30 35 H 5.486823 2.179017 -13.680551 0
M  V30 36 H 6.684465 4.297917 -13.282188 0
M  V30 37 H 8.999086 4.603920 -14.143221 0
M  V30 38 H 10.095119 2.785667 -15.401860 0
M  V30 39 H 11.286125 0.364760 -15.836067 0
M  V30 40 H 10.491109 -1.027509 -15.092488 0
M  V30 41 H 10.526450 0.497857 -14.246840 0
M  V30 42 H 8.872237 0.953311 -19.527113 0
M  V30 43 H 6.928913 1.574920 -20.924358 0
M  V30 44 H 4.617350 1.229032 -20.065905 0
M  V30 45 H 4.263372 0.243206 -17.835594 0
M  V30 46 H 3.972897 -3.960330 -16.978905 0
M  V30 END ATOM
M  V30 BEGIN BOND
M  V30 1 1 2 1
M  V30 2 1 3 2
M  V30 3 1 4 2
M  V30 4 1 5 4
M  V30 5 1 6 5
M  V30 6 1 7 6
M  V30 7 2 8 7
M  V30 8 1 9 7
M  V30 9 2 10 9
M  V30 10 1 11 10
M  V30 11 2 12 11
M  V30 12 1 13 12
M  V30 13 1 14 9
M  V30 14 2 14 13
M  V30 15 1 15 14
M  V30 16 1 16 15
M  V30 17 1 17 15
M  V30 18 2 18 17
M  V30 19 1 19 17
M  V30 20 2 20 19
M  V30 21 1 21 20
M  V30 22 2 22 21
M  V30 23 1 23 22
M  V30 24 1 24 6
M  V30 25 1 24 19
M  V30 26 2 24 23
M  V30 27 1 25 1
M  V30 28 1 26 1
M  V30 29 1 27 1
M  V30 30 1 28 3
M  V30 31 1 29 3
M  V30 32 1 30 3
M  V30 33 1 31 4
M  V30 34 1 32 4
M  V30 35 1 33 5
M  V30 36 1 34 5
M  V30 37 1 35 10
M  V30 38 1 36 11
M  V30 39 1 37 12
M  V30 40 1 38 13
M  V30 41 1 39 16
M  V30 42 1 40 16
M  V30 43 1 41 16
M  V30 44 1 42 20
M  V30 45 1 43 21
M  V30 46 1 44 22
M  V30 47 1 45 23
M  V30 48 1 46 2
M  V30 END BOND
M  V30 END CTAB
M  END
>  <b_m_subgroup_collapsed>  (2319) 
0

>  <r_i_docking_score>  (2319) 
-5.8363686023634704

>  <s_m_subgroup_title>  (2319) 
glide-dock_SP_D22_pv

>  <s_m_subgroupid>  (2319) 
glide-dock_SP_D22_pv

>  <Molecule ChEMBL ID>  (2319) 
CHEMBL4742201

>  <Standard Type>  (2319) 
Ki

>  <Standard Value>  (2319) 
65300.0

>  <label>  (2319) 
0

$$$$
CHEMBL317988
     RDKit          3D

  0  0  0  0  0  0  0  0  0  0999 V3000
M  V30 BEGIN CTAB
M  V30 COUNTS 32 34 0 0 1
M  V30 BEGIN ATOM
M  V30 1 C 4.952257 3.281452 -12.833049 0
M  V30 2 C 6.150232 2.640670 -13.508522 0
M  V30 3 C 6.085206 1.275955 -13.846691 0
M  V30 4 C 7.192003 0.631420 -14.424582 0
M  V30 5 C 8.394823 1.333097 -14.643481 0
M  V30 6 C 9.589087 0.554167 -15.170640 0
M  V30 7 C 8.475545 2.714592 -14.314309 0
M  V30 8 C 7.339447 3.372509 -13.762934 0
M  V30 9 C 7.415504 4.867286 -13.440392 0
M  V30 10 C 8.215293 5.206045 -12.167749 0
M  V30 11 C 9.660675 4.666487 -12.102036 0
M  V30 12 C 10.264724 4.368901 -13.452283 0
M  V30 13 C 11.412754 4.847158 -14.020328 0
M  V30 14 N 11.504278 4.267607 -15.263887 0
M  V30 15 N 10.476997 3.439005 -15.532042 0
M  V30 16 C 9.731143 3.476733 -14.433265 0
M  V30 17 H 5.252317 3.710565 -11.874982 0
M  V30 18 H 4.165549 2.549271 -12.646931 0
M  V30 19 H 4.529697 4.073024 -13.450333 0
M  V30 20 H 5.183728 0.710721 -13.661256 0
M  V30 21 H 7.125560 -0.420688 -14.666923 0
M  V30 22 H 10.472010 0.745984 -14.559694 0
M  V30 23 H 9.805938 0.843089 -16.198238 0
M  V30 24 H 9.404731 -0.520548 -15.157632 0
M  V30 25 H 7.871968 5.371822 -14.289600 0
M  V30 26 H 6.424019 5.310641 -13.363451 0
M  V30 27 H 8.250986 6.293274 -12.093833 0
M  V30 28 H 7.673705 4.876488 -11.282045 0
M  V30 29 H 10.261238 5.386725 -11.548637 0
M  V30 30 H 9.668201 3.759671 -11.495939 0
M  V30 31 H 12.155662 5.541198 -13.653134 0
M  V30 32 H 12.242757 4.436429 -15.933025 0
M  V30 END ATOM
M  V30 BEGIN BOND
M  V30 1 1 2 1
M  V30 2 1 3 2
M  V30 3 2 4 3
M  V30 4 1 5 4
M  V30 5 1 6 5
M  V30 6 2 7 5
M  V30 7 2 8 2
M  V30 8 1 8 7
M  V30 9 1 9 8
M  V30 10 1 10 9
M  V30 11 1 11 10
M  V30 12 1 12 11
M  V30 13 2 13 12
M  V30 14 1 14 13
M  V30 15 1 15 14
M  V30 16 1 16 7
M  V30 17 1 16 12
M  V30 18 2 16 15
M  V30 19 1 17 1
M  V30 20 1 18 1
M  V30 21 1 19 1
M  V30 22 1 20 3
M  V30 23 1 21 4
M  V30 24 1 22 6
M  V30 25 1 23 6
M  V30 26 1 24 6
M  V30 27 1 25 9
M  V30 28 1 26 9
M  V30 29 1 27 10
M  V30 30 1 28 10
M  V30 31 1 29 11
M  V30 32 1 30 11
M  V30 33 1 31 13
M  V30 34 1 32 14
M  V30 END BOND
M  V30 END CTAB
M  END
>  <b_m_subgroup_collapsed>  (2320) 
0

>  <r_i_docking_score>  (2320) 
-5.8336769920986598

>  <s_m_subgroup_title>  (2320) 
glide-dock_SP_D22_pv

>  <s_m_subgroupid>  (2320) 
glide-dock_SP_D22_pv

>  <Molecule ChEMBL ID>  (2320) 
CHEMBL317988

>  <Standard Type>  (2320) 
Ki

>  <Standard Value>  (2320) 
10000.0

>  <label>  (2320) 
0

$$$$
CHEMBL1257264
     RDKit          3D

  0  0  0  0  0  0  0  0  0  0999 V3000
M  V30 BEGIN CTAB
M  V30 COUNTS 61 65 0 0 1
M  V30 BEGIN ATOM
M  V30 1 O 6.758737 -0.149078 -20.691793 0
M  V30 2 C 5.769879 -0.498294 -20.050581 0
M  V30 3 N 4.578661 -0.907033 -20.518763 0
M  V30 4 C 3.606004 -1.223330 -19.462553 0
M  V30 5 C 4.392128 -0.947106 -18.215801 0
M  V30 6 C 3.992170 -1.027691 -16.876534 0
M  V30 7 C 4.936299 -0.661451 -15.894019 0
M  V30 8 Cl 4.433874 -0.628542 -14.246495 0
M  V30 9 C 6.267145 -0.298597 -16.244720 0
M  V30 10 O 7.150004 -0.077094 -15.209581 0
M  V30 11 C 8.545053 -0.005024 -15.492535 0
M  V30 12 C 8.960750 1.461432 -15.646867 0
M  V30 13 C 8.684422 2.228501 -14.349274 0
M  V30 14 C 9.166395 3.682047 -14.379047 0
M  V30 15 N 8.804239 4.393851 -13.129346 0 CHG=1
M  V30 16 C 9.688015 4.041320 -11.993743 0
M  V30 17 C 9.191093 4.684789 -10.693078 0
M  V30 18 N 9.055862 6.121136 -10.864398 0
M  V30 19 C 10.084584 6.911111 -10.327423 0
M  V30 20 C 11.069983 7.457114 -11.178238 0
M  V30 21 C 12.146424 8.184801 -10.647160 0
M  V30 22 C 12.234353 8.405562 -9.263607 0
M  V30 23 C 11.249770 7.894995 -8.402632 0
M  V30 24 C 11.344862 8.144258 -7.019620 0
M  V30 25 C 10.398814 7.598335 -6.138349 0
M  V30 26 C 9.336514 6.832591 -6.647374 0
M  V30 27 C 9.217001 6.609489 -8.028792 0
M  V30 28 C 10.176345 7.129939 -8.926600 0
M  V30 29 C 8.317358 6.589832 -12.030659 0
M  V30 30 C 8.759903 5.860357 -13.314158 0
M  V30 31 C 6.627943 -0.203134 -17.617434 0
M  V30 32 C 5.656860 -0.529232 -18.574692 0
M  V30 33 H 4.339891 -0.963589 -21.501501 0
M  V30 34 H 3.286934 -2.265018 -19.506029 0
M  V30 35 H 2.744825 -0.560992 -19.515179 0
M  V30 36 H 2.987801 -1.324579 -16.609295 0
M  V30 37 H 9.077859 -0.435274 -14.647278 0
M  V30 38 H 8.849336 -0.618233 -16.341639 0
M  V30 39 H 10.023688 1.510687 -15.884798 0
M  V30 40 H 8.429941 1.921119 -16.479782 0
M  V30 41 H 7.614357 2.205830 -14.136785 0
M  V30 42 H 9.168641 1.696046 -13.533390 0
M  V30 43 H 10.245605 3.729716 -14.542122 0
M  V30 44 H 8.709262 4.182259 -15.231756 0
M  V30 45 H 9.729462 2.972294 -11.847932 0
M  V30 46 H 10.698337 4.363654 -12.245584 0
M  V30 47 H 8.216891 4.280051 -10.414217 0
M  V30 48 H 9.872255 4.448837 -9.873677 0
M  V30 49 H 11.031526 7.304385 -12.244047 0
M  V30 50 H 12.904916 8.587622 -11.302773 0
M  V30 51 H 13.063487 8.972111 -8.866648 0
M  V30 52 H 12.153299 8.741591 -6.626263 0
M  V30 53 H 10.486144 7.767999 -5.075166 0
M  V30 54 H 8.605515 6.402799 -5.982117 0
M  V30 55 H 8.369514 6.040823 -8.384068 0
M  V30 56 H 7.257992 6.406638 -11.847701 0
M  V30 57 H 8.421179 7.670016 -12.143072 0
M  V30 58 H 9.760205 6.172193 -13.608889 0
M  V30 59 H 8.089124 6.122583 -14.129605 0
M  V30 60 H 7.607694 0.105032 -17.949348 0
M  V30 61 H 7.867994 4.112115 -12.874994 0
M  V30 END ATOM
M  V30 BEGIN BOND
M  V30 1 2 2 1
M  V30 2 1 3 2
M  V30 3 1 4 3
M  V30 4 1 5 4
M  V30 5 1 6 5
M  V30 6 2 7 6
M  V30 7 1 8 7
M  V30 8 1 9 7
M  V30 9 1 10 9
M  V30 10 1 11 10
M  V30 11 1 12 11
M  V30 12 1 13 12
M  V30 13 1 14 13
M  V30 14 1 15 14
M  V30 15 1 16 15
M  V30 16 1 17 16
M  V30 17 1 18 17
M  V30 18 1 19 18
M  V30 19 2 20 19
M  V30 20 1 21 20
M  V30 21 2 22 21
M  V30 22 1 23 22
M  V30 23 2 24 23
M  V30 24 1 25 24
M  V30 25 2 26 25
M  V30 26 1 27 26
M  V30 27 1 28 19
M  V30 28 1 28 23
M  V30 29 2 28 27
M  V30 30 1 29 18
M  V30 31 1 30 15
M  V30 32 1 30 29
M  V30 33 2 31 9
M  V30 34 1 32 2
M  V30 35 2 32 5
M  V30 36 1 32 31
M  V30 37 1 33 3
M  V30 38 1 34 4
M  V30 39 1 35 4
M  V30 40 1 36 6
M  V30 41 1 37 11
M  V30 42 1 38 11
M  V30 43 1 39 12
M  V30 44 1 40 12
M  V30 45 1 41 13
M  V30 46 1 42 13
M  V30 47 1 43 14
M  V30 48 1 44 14
M  V30 49 1 45 16
M  V30 50 1 46 16
M  V30 51 1 47 17
M  V30 52 1 48 17
M  V30 53 1 49 20
M  V30 54 1 50 21
M  V30 55 1 51 22
M  V30 56 1 52 24
M  V30 57 1 53 25
M  V30 58 1 54 26
M  V30 59 1 55 27
M  V30 60 1 56 29
M  V30 61 1 57 29
M  V30 62 1 58 30
M  V30 63 1 59 30
M  V30 64 1 60 31
M  V30 65 1 61 15
M  V30 END BOND
M  V30 END CTAB
M  END
>  <b_m_subgroup_collapsed>  (2321) 
0

>  <r_i_docking_score>  (2321) 
-5.8324775801523696

>  <s_m_subgroup_title>  (2321) 
glide-dock_SP_D22_pv

>  <s_m_subgroupid>  (2321) 
glide-dock_SP_D22_pv

>  <Molecule ChEMBL ID>  (2321) 
CHEMBL1257264

>  <Standard Type>  (2321) 
Ki

>  <Standard Value>  (2321) 
9.31

>  <label>  (2321) 
1

$$$$
CHEMBL201788
     RDKit          3D

  0  0  0  0  0  0  0  0  0  0999 V3000
M  V30 BEGIN CTAB
M  V30 COUNTS 62 65 0 0 1
M  V30 BEGIN ATOM
M  V30 1 C 9.691900 1.371446 -21.395153 0
M  V30 2 O 8.522121 1.263832 -20.598463 0
M  V30 3 C 8.654844 1.281711 -19.225519 0
M  V30 4 C 9.891305 1.435599 -18.554567 0
M  V30 5 C 9.969645 1.470617 -17.146929 0
M  V30 6 C 8.779775 1.330497 -16.383337 0
M  V30 7 C 7.551024 1.157553 -17.057541 0
M  V30 8 C 7.474142 1.139195 -18.470274 0
M  V30 9 O 6.297015 0.993613 -19.172785 0
M  V30 10 C 5.076886 0.883579 -18.453501 0
M  V30 11 C 8.749862 1.329884 -14.855078 0
M  V30 12 C 8.202094 2.619325 -14.246464 0
M  V30 13 C 6.798666 2.729326 -14.116739 0
M  V30 14 C 6.206814 3.843078 -13.494178 0
M  V30 15 C 7.016266 4.879694 -13.007432 0
M  V30 16 C 8.412543 4.791610 -13.134760 0
M  V30 17 C 9.023849 3.668908 -13.739825 0
M  V30 18 C 10.548083 3.628759 -13.733099 0
M  V30 19 C 11.199940 4.549997 -14.777993 0
M  V30 20 N 10.911503 4.137918 -16.180700 0 CFG=1 CHG=1
M  V30 21 C 10.790438 5.311306 -17.091248 0
M  V30 22 C 9.996573 4.997465 -18.377613 0
M  V30 23 C 9.835669 6.201653 -19.293928 0
M  V30 24 C 8.556651 6.568245 -19.764860 0
M  V30 25 C 8.407434 7.657382 -20.646748 0
M  V30 26 C 9.534251 8.396804 -21.047529 0
M  V30 27 C 10.812305 8.039632 -20.580608 0
M  V30 28 C 10.963542 6.940418 -19.713949 0
M  V30 29 C 11.867343 3.111355 -16.695423 0
M  V30 30 C 11.350545 1.672755 -16.529673 0
M  V30 31 H 9.413142 1.313642 -22.447792 0
M  V30 32 H 10.388656 0.557526 -21.194948 0
M  V30 33 H 10.194210 2.328502 -21.241156 0
M  V30 34 H 10.808496 1.540967 -19.116095 0
M  V30 35 H 6.660260 1.033647 -16.463556 0
M  V30 36 H 4.252046 0.779060 -19.157808 0
M  V30 37 H 4.889065 1.772971 -17.855989 0
M  V30 38 H 5.070366 0.005489 -17.806578 0
M  V30 39 H 8.079168 0.524722 -14.555172 0
M  V30 40 H 9.682464 1.023603 -14.397720 0
M  V30 41 H 6.157209 1.934250 -14.464838 0
M  V30 42 H 5.134123 3.900394 -13.389888 0
M  V30 43 H 6.569064 5.734011 -12.515275 0
M  V30 44 H 9.020337 5.590229 -12.731054 0
M  V30 45 H 10.862270 3.975006 -12.747465 0
M  V30 46 H 10.938491 2.618906 -13.793604 0
M  V30 47 H 10.835527 5.560724 -14.589885 0
M  V30 48 H 12.276518 4.604838 -14.614375 0
M  V30 49 H 10.264711 6.119310 -16.586792 0
M  V30 50 H 11.786834 5.688156 -17.316931 0
M  V30 51 H 10.481312 4.221273 -18.964769 0
M  V30 52 H 9.011956 4.608943 -18.112961 0
M  V30 53 H 7.685742 6.008041 -19.460855 0
M  V30 54 H 7.425337 7.927193 -21.009472 0
M  V30 55 H 9.421232 9.235289 -21.719421 0
M  V30 56 H 11.680474 8.602126 -20.894558 0
M  V30 57 H 11.955135 6.669182 -19.381332 0
M  V30 58 H 12.057730 3.272155 -17.756123 0
M  V30 59 H 12.846527 3.212983 -16.226015 0
M  V30 60 H 11.403213 1.358856 -15.495734 0
M  V30 61 H 12.041833 1.001511 -17.040203 0
M  V30 62 H 9.995884 3.709248 -16.165991 0
M  V30 END ATOM
M  V30 BEGIN BOND
M  V30 1 1 2 1
M  V30 2 1 3 2
M  V30 3 1 4 3
M  V30 4 2 5 4
M  V30 5 1 6 5
M  V30 6 2 7 6
M  V30 7 2 8 3
M  V30 8 1 8 7
M  V30 9 1 9 8
M  V30 10 1 10 9
M  V30 11 1 11 6
M  V30 12 1 12 11
M  V30 13 2 13 12
M  V30 14 1 14 13
M  V30 15 2 15 14
M  V30 16 1 16 15
M  V30 17 1 17 12
M  V30 18 2 17 16
M  V30 19 1 18 17
M  V30 20 1 19 18
M  V30 21 1 20 19
M  V30 22 1 21 20
M  V30 23 1 22 21
M  V30 24 1 23 22
M  V30 25 2 24 23
M  V30 26 1 25 24
M  V30 27 2 26 25
M  V30 28 1 27 26
M  V30 29 1 28 23
M  V30 30 2 28 27
M  V30 31 1 29 20
M  V30 32 1 30 5
M  V30 33 1 30 29
M  V30 34 1 31 1
M  V30 35 1 32 1
M  V30 36 1 33 1
M  V30 37 1 34 4
M  V30 38 1 35 7
M  V30 39 1 36 10
M  V30 40 1 37 10
M  V30 41 1 38 10
M  V30 42 1 39 11
M  V30 43 1 40 11
M  V30 44 1 41 13
M  V30 45 1 42 14
M  V30 46 1 43 15
M  V30 47 1 44 16
M  V30 48 1 45 18
M  V30 49 1 46 18
M  V30 50 1 47 19
M  V30 51 1 48 19
M  V30 52 1 49 21
M  V30 53 1 50 21
M  V30 54 1 51 22
M  V30 55 1 52 22
M  V30 56 1 53 24
M  V30 57 1 54 25
M  V30 58 1 55 26
M  V30 59 1 56 27
M  V30 60 1 57 28
M  V30 61 1 58 29
M  V30 62 1 59 29
M  V30 63 1 60 30
M  V30 64 1 61 30
M  V30 65 1 20 62 CFG=1
M  V30 END BOND
M  V30 END CTAB
M  END
>  <b_m_subgroup_collapsed>  (2322) 
0

>  <r_i_docking_score>  (2322) 
-5.8324583700015999

>  <s_m_subgroup_title>  (2322) 
glide-dock_SP_D22_pv

>  <s_m_subgroupid>  (2322) 
glide-dock_SP_D22_pv

>  <Molecule ChEMBL ID>  (2322) 
CHEMBL201788

>  <Standard Type>  (2322) 
Ki

>  <Standard Value>  (2322) 
10000.0

>  <label>  (2322) 
0

$$$$
CHEMBL148042
     RDKit          3D

  0  0  0  0  0  0  0  0  0  0999 V3000
M  V30 BEGIN CTAB
M  V30 COUNTS 45 48 0 0 1
M  V30 BEGIN ATOM
M  V30 1 C 8.153394 8.570267 -12.140615 0
M  V30 2 N 8.157017 7.115049 -11.846925 0 CFG=2 CHG=1
M  V30 3 C 9.480602 6.656599 -11.354960 0
M  V30 4 C 9.455322 5.226576 -10.794561 0
M  V30 5 C 9.715472 4.159599 -11.876618 0
M  V30 6 N 8.795560 4.196810 -13.009383 0
M  V30 7 C 9.072972 3.473437 -14.175854 0
M  V30 8 N 8.250932 2.550081 -14.571975 0
M  V30 9 C 8.416340 1.672893 -15.655643 0
M  V30 10 C 7.236545 1.153338 -16.226461 0
M  V30 11 C 7.309026 0.190603 -17.247538 0
M  V30 12 C 8.579370 -0.255095 -17.645159 0
M  V30 13 N 9.722762 0.206110 -17.102728 0
M  V30 14 C 9.642675 1.151706 -16.145035 0
M  V30 15 N 10.879685 1.586793 -15.699828 0
M  V30 16 C 11.192850 2.934601 -15.573049 0
M  V30 17 C 12.381182 3.374919 -16.196226 0
M  V30 18 C 12.788826 4.716822 -16.106377 0
M  V30 19 C 11.991891 5.631892 -15.403078 0
M  V30 20 Cl 12.486906 7.276682 -15.242039 0
M  V30 21 C 10.790058 5.200499 -14.815548 0
M  V30 22 C 10.362202 3.850865 -14.879580 0
M  V30 23 C 7.487259 4.807834 -12.773255 0
M  V30 24 C 7.544092 6.336488 -12.946783 0
M  V30 25 H 8.711515 8.823533 -13.042862 0
M  V30 26 H 7.129162 8.924464 -12.247879 0
M  V30 27 H 8.581758 9.132636 -11.311231 0
M  V30 28 H 9.780707 7.321450 -10.543788 0
M  V30 29 H 10.240803 6.764588 -12.128822 0
M  V30 30 H 8.528991 5.036058 -10.250566 0
M  V30 31 H 10.230288 5.137758 -10.035213 0
M  V30 32 H 9.686224 3.162203 -11.446948 0
M  V30 33 H 10.732477 4.282902 -12.246980 0
M  V30 34 H 6.272057 1.475864 -15.871377 0
M  V30 35 H 6.413924 -0.217131 -17.692080 0
M  V30 36 H 8.680580 -1.009441 -18.411263 0
M  V30 37 H 11.621235 1.031308 -16.097342 0
M  V30 38 H 13.000964 2.675409 -16.739105 0
M  V30 39 H 13.711448 5.035668 -16.568975 0
M  V30 40 H 10.202566 5.929439 -14.288476 0
M  V30 41 H 6.771777 4.413454 -13.496614 0
M  V30 42 H 7.082318 4.528943 -11.800369 0
M  V30 43 H 6.523256 6.708008 -13.046884 0
M  V30 44 H 8.085967 6.569449 -13.852777 0
M  V30 45 H 7.500334 7.075563 -11.059213 0
M  V30 END ATOM
M  V30 BEGIN BOND
M  V30 1 1 2 1
M  V30 2 1 3 2
M  V30 3 1 4 3
M  V30 4 1 5 4
M  V30 5 1 6 5
M  V30 6 1 7 6
M  V30 7 2 8 7
M  V30 8 1 9 8
M  V30 9 2 10 9
M  V30 10 1 11 10
M  V30 11 2 12 11
M  V30 12 1 13 12
M  V30 13 1 14 9
M  V30 14 2 14 13
M  V30 15 1 15 14
M  V30 16 1 16 15
M  V30 17 1 17 16
M  V30 18 2 18 17
M  V30 19 1 19 18
M  V30 20 1 20 19
M  V30 21 2 21 19
M  V30 22 1 22 7
M  V30 23 2 22 16
M  V30 24 1 22 21
M  V30 25 1 23 6
M  V30 26 1 24 2
M  V30 27 1 24 23
M  V30 28 1 25 1
M  V30 29 1 26 1
M  V30 30 1 27 1
M  V30 31 1 28 3
M  V30 32 1 29 3
M  V30 33 1 30 4
M  V30 34 1 31 4
M  V30 35 1 32 5
M  V30 36 1 33 5
M  V30 37 1 34 10
M  V30 38 1 35 11
M  V30 39 1 36 12
M  V30 40 1 37 15
M  V30 41 1 38 17
M  V30 42 1 39 18
M  V30 43 1 40 21
M  V30 44 1 41 23
M  V30 45 1 42 23
M  V30 46 1 43 24
M  V30 47 1 44 24
M  V30 48 1 2 45 CFG=1
M  V30 END BOND
M  V30 END CTAB
M  END
>  <b_m_subgroup_collapsed>  (2323) 
0

>  <r_i_docking_score>  (2323) 
-5.83052588922307

>  <s_m_subgroup_title>  (2323) 
glide-dock_SP_D22_pv

>  <s_m_subgroupid>  (2323) 
glide-dock_SP_D22_pv

>  <Molecule ChEMBL ID>  (2323) 
CHEMBL148042

>  <Standard Type>  (2323) 
Ki

>  <Standard Value>  (2323) 
19117.0

>  <label>  (2323) 
0

$$$$
CHEMBL609151
     RDKit          3D

  0  0  0  0  0  0  0  0  0  0999 V3000
M  V30 BEGIN CTAB
M  V30 COUNTS 37 40 0 0 1
M  V30 BEGIN ATOM
M  V30 1 C 10.868720 1.057128 -15.321012 0
M  V30 2 N 10.207735 2.062356 -16.150448 0
M  V30 3 C 9.321927 1.418749 -17.128868 0
M  V30 4 C 8.160176 0.622989 -16.470060 0 CFG=2
M  V30 5 C 7.103704 0.225157 -17.509226 0
M  V30 6 N 6.633234 -1.022478 -17.445786 0
M  V30 7 O 6.682168 1.040888 -18.328308 0
M  V30 8 C 7.552984 1.407039 -15.329238 0
M  V30 9 C 8.112218 2.528198 -14.838180 0
M  V30 10 C 7.448441 3.377318 -13.846909 0
M  V30 11 C 6.092942 3.273315 -13.468197 0
M  V30 12 C 5.522722 4.229744 -12.616399 0
M  V30 13 C 6.297786 5.292279 -12.132688 0
M  V30 14 C 7.635124 5.373404 -12.447092 0
M  V30 15 N 8.586397 6.285481 -12.090543 0
M  V30 16 C 9.774203 5.942445 -12.708339 0
M  V30 17 Br 11.374612 6.969307 -12.645454 0
M  V30 18 C 9.549591 4.807765 -13.437402 0
M  V30 19 C 8.198027 4.427608 -13.290172 0
M  V30 20 C 10.310374 3.844666 -14.324165 0
M  V30 21 C 9.450183 3.061620 -15.375180 0 CFG=1
M  V30 22 H 11.684349 1.519423 -14.767195 0
M  V30 23 H 11.301890 0.271687 -15.940224 0
M  V30 24 H 10.191239 0.595304 -14.602842 0
M  V30 25 H 8.926473 2.198918 -17.783754 0
M  V30 26 H 9.909205 0.757802 -17.767496 0
M  V30 27 H 8.564009 -0.291127 -16.035471 0
M  V30 28 H 6.995350 -1.669631 -16.749889 0
M  V30 29 H 5.891538 -1.309448 -18.066742 0
M  V30 30 H 6.605954 1.040698 -14.963073 0
M  V30 31 H 5.464121 2.486701 -13.852603 0
M  V30 32 H 4.486193 4.168978 -12.343554 0
M  V30 33 H 5.858497 6.035901 -11.482465 0
M  V30 34 H 8.415765 7.082425 -11.488289 0
M  V30 35 H 11.101995 4.383571 -14.844945 0
M  V30 36 H 10.814599 3.144952 -13.659184 0
M  V30 37 H 9.147227 3.825043 -16.095688 0
M  V30 END ATOM
M  V30 BEGIN BOND
M  V30 1 1 2 1
M  V30 2 1 3 2
M  V30 3 1 4 3
M  V30 4 1 5 4
M  V30 5 1 6 5
M  V30 6 2 7 5
M  V30 7 1 8 4
M  V30 8 2 9 8
M  V30 9 1 10 9
M  V30 10 1 11 10
M  V30 11 2 12 11
M  V30 12 1 13 12
M  V30 13 2 14 13
M  V30 14 1 15 14
M  V30 15 1 16 15
M  V30 16 1 17 16
M  V30 17 2 18 16
M  V30 18 2 19 10
M  V30 19 1 19 14
M  V30 20 1 19 18
M  V30 21 1 20 18
M  V30 22 1 21 2
M  V30 23 1 21 9
M  V30 24 1 21 20
M  V30 25 1 22 1
M  V30 26 1 23 1
M  V30 27 1 24 1
M  V30 28 1 25 3
M  V30 29 1 26 3
M  V30 30 1 4 27 CFG=1
M  V30 31 1 28 6
M  V30 32 1 29 6
M  V30 33 1 30 8
M  V30 34 1 31 11
M  V30 35 1 32 12
M  V30 36 1 33 13
M  V30 37 1 34 15
M  V30 38 1 35 20
M  V30 39 1 36 20
M  V30 40 1 21 37 CFG=3
M  V30 END BOND
M  V30 END CTAB
M  END
>  <b_m_subgroup_collapsed>  (2324) 
0

>  <r_i_docking_score>  (2324) 
-5.8290914029990404

>  <s_m_subgroup_title>  (2324) 
glide-dock_SP_D22_pv

>  <s_m_subgroupid>  (2324) 
glide-dock_SP_D22_pv

>  <Molecule ChEMBL ID>  (2324) 
CHEMBL609151

>  <Standard Type>  (2324) 
Ki

>  <Standard Value>  (2324) 
2.0

>  <label>  (2324) 
1

$$$$
CHEMBL553082
     RDKit          3D

  0  0  0  0  0  0  0  0  0  0999 V3000
M  V30 BEGIN CTAB
M  V30 COUNTS 44 47 0 0 1
M  V30 BEGIN ATOM
M  V30 1 C 12.539296 9.099432 -1.264530 0
M  V30 2 C 12.236807 8.862384 -2.696377 0
M  V30 3 C 11.685908 9.771829 -3.632830 0
M  V30 4 C 11.656520 9.059017 -4.792505 0
M  V30 5 C 11.249328 9.435135 -6.183610 0
M  V30 6 N 10.547436 8.383017 -6.913600 0
M  V30 7 C 11.466985 7.351324 -7.409312 0
M  V30 8 C 10.643864 6.206299 -7.993605 0
M  V30 9 C 9.823663 6.693853 -9.195654 0
M  V30 10 C 8.981207 7.891501 -8.740872 0
M  V30 11 C 9.854749 8.958415 -8.067533 0
M  V30 12 O 10.611300 7.134462 -10.302715 0
M  V30 13 C 10.086726 6.570120 -11.436294 0
M  V30 14 C 9.104655 5.678664 -11.250361 0
M  V30 15 C 8.478444 4.824955 -12.273167 0
M  V30 16 C 9.260322 4.276771 -13.311482 0
M  V30 17 C 8.664655 3.451327 -14.285373 0
M  V30 18 C 7.279955 3.196050 -14.245067 0
M  V30 19 C 6.490521 3.766176 -13.224135 0
M  V30 20 C 7.090655 4.572200 -12.235413 0
M  V30 21 C 8.999558 5.569643 -9.807725 0
M  V30 22 O 8.486031 4.662657 -9.157180 0
M  V30 23 O 12.085716 7.792459 -4.556050 0
M  V30 24 N 12.480683 7.680165 -3.222659 0
M  V30 25 H 12.485628 10.163321 -1.038045 0
M  V30 26 H 11.818122 8.572818 -0.646563 0
M  V30 27 H 13.539528 8.753987 -1.006890 0
M  V30 28 H 11.372750 10.789234 -3.473187 0
M  V30 29 H 12.122115 9.764052 -6.750862 0
M  V30 30 H 10.593369 10.302926 -6.105792 0
M  V30 31 H 12.085449 6.928366 -6.627095 0
M  V30 32 H 12.150007 7.761602 -8.155135 0
M  V30 33 H 9.974603 5.823643 -7.220365 0
M  V30 34 H 11.285583 5.372905 -8.247286 0
M  V30 35 H 8.486106 8.344723 -9.596869 0
M  V30 36 H 8.214817 7.565139 -8.037648 0
M  V30 37 H 9.206030 9.771962 -7.752107 0
M  V30 38 H 10.571497 9.371855 -8.779002 0
M  V30 39 H 10.546294 6.886998 -12.359243 0
M  V30 40 H 10.323029 4.465299 -13.354611 0
M  V30 41 H 9.269228 3.014716 -15.065219 0
M  V30 42 H 6.821941 2.565252 -14.993362 0
M  V30 43 H 5.428289 3.577492 -13.193188 0
M  V30 44 H 6.483709 4.999352 -11.448025 0
M  V30 END ATOM
M  V30 BEGIN BOND
M  V30 1 1 2 1
M  V30 2 1 3 2
M  V30 3 2 4 3
M  V30 4 1 5 4
M  V30 5 1 6 5
M  V30 6 1 7 6
M  V30 7 1 8 7
M  V30 8 1 9 8
M  V30 9 1 10 9
M  V30 10 1 11 6
M  V30 11 1 11 10
M  V30 12 1 12 9
M  V30 13 1 13 12
M  V30 14 2 14 13
M  V30 15 1 15 14
M  V30 16 2 16 15
M  V30 17 1 17 16
M  V30 18 2 18 17
M  V30 19 1 19 18
M  V30 20 1 20 15
M  V30 21 2 20 19
M  V30 22 1 21 9
M  V30 23 1 21 14
M  V30 24 2 22 21
M  V30 25 1 23 4
M  V30 26 2 24 2
M  V30 27 1 24 23
M  V30 28 1 25 1
M  V30 29 1 26 1
M  V30 30 1 27 1
M  V30 31 1 28 3
M  V30 32 1 29 5
M  V30 33 1 30 5
M  V30 34 1 31 7
M  V30 35 1 32 7
M  V30 36 1 33 8
M  V30 37 1 34 8
M  V30 38 1 35 10
M  V30 39 1 36 10
M  V30 40 1 37 11
M  V30 41 1 38 11
M  V30 42 1 39 13
M  V30 43 1 40 16
M  V30 44 1 41 17
M  V30 45 1 42 18
M  V30 46 1 43 19
M  V30 47 1 44 20
M  V30 END BOND
M  V30 END CTAB
M  END
>  <b_m_subgroup_collapsed>  (2325) 
0

>  <r_i_docking_score>  (2325) 
-5.8259845021791499

>  <s_m_subgroup_title>  (2325) 
glide-dock_SP_D22_pv

>  <s_m_subgroupid>  (2325) 
glide-dock_SP_D22_pv

>  <Molecule ChEMBL ID>  (2325) 
CHEMBL553082

>  <Standard Type>  (2325) 
Ki

>  <Standard Value>  (2325) 
32000.0

>  <label>  (2325) 
0

$$$$
CHEMBL1794855
     RDKit          3D

  0  0  0  0  0  0  0  0  0  0999 V3000
M  V30 BEGIN CTAB
M  V30 COUNTS 33 34 0 0 1
M  V30 BEGIN ATOM
M  V30 1 C 7.252391 5.419420 -11.997630 0
M  V30 2 C 8.461933 6.363376 -11.882361 0
M  V30 3 N 8.886023 6.623686 -10.478465 0 CFG=1 CHG=1
M  V30 4 C 9.302556 5.392301 -9.755187 0
M  V30 5 C 9.818111 7.789467 -10.344490 0 CFG=2
M  V30 6 C 11.076362 7.638732 -11.236084 0
M  V30 7 C 12.234238 8.565785 -10.833337 0
M  V30 8 C 12.644671 8.322788 -9.384891 0
M  V30 9 C 11.467419 8.393687 -8.442035 0
M  V30 10 C 11.682563 8.748418 -7.097438 0
M  V30 11 C 10.574763 8.815109 -6.238322 0
M  V30 12 N 9.316059 8.572317 -6.646868 0
M  V30 13 C 9.112576 8.262153 -7.937302 0
M  V30 14 C 10.146746 8.137916 -8.886777 0
M  V30 15 H 6.920021 5.352580 -13.033627 0
M  V30 16 H 7.487747 4.405799 -11.673574 0
M  V30 17 H 6.405591 5.772321 -11.409234 0
M  V30 18 H 8.193610 7.313941 -12.346208 0
M  V30 19 H 9.291922 5.953469 -12.458931 0
M  V30 20 H 10.086020 4.863334 -10.295301 0
M  V30 21 H 9.664621 5.594573 -8.748029 0
M  V30 22 H 8.459773 4.710818 -9.640712 0
M  V30 23 H 9.273501 8.661127 -10.712378 0
M  V30 24 H 10.823142 7.777928 -12.286914 0
M  V30 25 H 11.430702 6.616273 -11.167920 0
M  V30 26 H 11.932480 9.605209 -10.923090 0
M  V30 27 H 13.088859 8.427893 -11.496465 0
M  V30 28 H 13.437581 8.972324 -9.046867 0
M  V30 29 H 13.122334 7.372324 -9.301210 0
M  V30 30 H 12.672900 8.972326 -6.729933 0
M  V30 31 H 10.700818 9.079487 -5.198769 0
M  V30 32 H 8.086022 8.098385 -8.215545 0
M  V30 33 H 8.017281 6.939331 -10.042456 0
M  V30 END ATOM
M  V30 BEGIN BOND
M  V30 1 1 2 1
M  V30 2 1 3 2
M  V30 3 1 4 3
M  V30 4 1 5 3
M  V30 5 1 6 5
M  V30 6 1 7 6
M  V30 7 1 8 7
M  V30 8 1 9 8
M  V30 9 1 10 9
M  V30 10 2 11 10
M  V30 11 1 12 11
M  V30 12 2 13 12
M  V30 13 1 14 5
M  V30 14 2 14 9
M  V30 15 1 14 13
M  V30 16 1 15 1
M  V30 17 1 16 1
M  V30 18 1 17 1
M  V30 19 1 18 2
M  V30 20 1 19 2
M  V30 21 1 20 4
M  V30 22 1 21 4
M  V30 23 1 22 4
M  V30 24 1 5 23 CFG=3
M  V30 25 1 24 6
M  V30 26 1 25 6
M  V30 27 1 26 7
M  V30 28 1 27 7
M  V30 29 1 28 8
M  V30 30 1 29 8
M  V30 31 1 30 10
M  V30 32 1 31 11
M  V30 33 1 32 13
M  V30 34 1 3 33 CFG=1
M  V30 END BOND
M  V30 END CTAB
M  END
>  <b_m_subgroup_collapsed>  (2326) 
0

>  <r_i_docking_score>  (2326) 
-5.8234647357721601

>  <s_m_subgroup_title>  (2326) 
glide-dock_SP_D22_pv

>  <s_m_subgroupid>  (2326) 
glide-dock_SP_D22_pv

>  <Molecule ChEMBL ID>  (2326) 
CHEMBL1794855

>  <Standard Type>  (2326) 
Ki

>  <Standard Value>  (2326) 
10000.0

>  <label>  (2326) 
0

$$$$
CHEMBL433012
     RDKit          3D

  0  0  0  0  0  0  0  0  0  0999 V3000
M  V30 BEGIN CTAB
M  V30 COUNTS 36 39 0 0 1
M  V30 BEGIN ATOM
M  V30 1 Cl 7.839225 0.745596 -14.889192 0
M  V30 2 C 7.952872 2.337541 -14.248232 0
M  V30 3 S 6.487399 3.126400 -13.775615 0
M  V30 4 C 7.406753 4.506477 -13.253344 0
M  V30 5 Cl 6.467059 5.807160 -12.646826 0
M  V30 6 C 8.769114 4.385798 -13.456536 0
M  V30 7 C 9.072881 3.101566 -14.035186 0
M  V30 8 C 10.473394 2.629700 -14.338846 0
M  V30 9 C 11.194183 3.385081 -15.471094 0
M  V30 10 C 11.125883 4.927609 -15.446988 0
M  V30 11 C 10.907461 5.547817 -14.088701 0
M  V30 12 C 11.685989 6.546287 -13.445766 0
M  V30 13 N 11.129506 6.972033 -12.327694 0
M  V30 14 N 9.999237 6.237848 -12.168107 0
M  V30 15 C 9.091469 6.533999 -11.054943 0
M  V30 16 C 9.707891 6.962795 -9.721551 0
M  V30 17 C 10.535778 8.105531 -9.615458 0
M  V30 18 C 11.041325 8.511288 -8.365850 0
M  V30 19 C 10.691734 7.804835 -7.201593 0
M  V30 20 C 9.835560 6.692252 -7.290903 0
M  V30 21 C 9.349289 6.268897 -8.544065 0
M  V30 22 C 9.849245 5.357680 -13.241319 0
M  V30 23 H 11.082875 2.725062 -13.446712 0
M  V30 24 H 10.485162 1.563396 -14.564255 0
M  V30 25 H 12.241485 3.083310 -15.445208 0
M  V30 26 H 10.820316 3.039288 -16.435347 0
M  V30 27 H 12.023759 5.328532 -15.918468 0
M  V30 28 H 10.310441 5.234067 -16.102755 0
M  V30 29 H 12.604154 7.006969 -13.780498 0
M  V30 30 H 8.430430 7.335811 -11.381595 0
M  V30 31 H 8.477076 5.653492 -10.872258 0
M  V30 32 H 10.785001 8.686193 -10.490833 0
M  V30 33 H 11.686884 9.372961 -8.301997 0
M  V30 34 H 11.065586 8.123483 -6.239878 0
M  V30 35 H 9.543528 6.172779 -6.391670 0
M  V30 36 H 8.675655 5.425127 -8.592276 0
M  V30 END ATOM
M  V30 BEGIN BOND
M  V30 1 1 2 1
M  V30 2 1 3 2
M  V30 3 1 4 3
M  V30 4 1 5 4
M  V30 5 2 6 4
M  V30 6 2 7 2
M  V30 7 1 7 6
M  V30 8 1 8 7
M  V30 9 1 9 8
M  V30 10 1 10 9
M  V30 11 1 11 10
M  V30 12 1 12 11
M  V30 13 2 13 12
M  V30 14 1 14 13
M  V30 15 1 15 14
M  V30 16 1 16 15
M  V30 17 2 17 16
M  V30 18 1 18 17
M  V30 19 2 19 18
M  V30 20 1 20 19
M  V30 21 1 21 16
M  V30 22 2 21 20
M  V30 23 1 22 6
M  V30 24 2 22 11
M  V30 25 1 22 14
M  V30 26 1 23 8
M  V30 27 1 24 8
M  V30 28 1 25 9
M  V30 29 1 26 9
M  V30 30 1 27 10
M  V30 31 1 28 10
M  V30 32 1 29 12
M  V30 33 1 30 15
M  V30 34 1 31 15
M  V30 35 1 32 17
M  V30 36 1 33 18
M  V30 37 1 34 19
M  V30 38 1 35 20
M  V30 39 1 36 21
M  V30 END BOND
M  V30 END CTAB
M  END
>  <b_m_subgroup_collapsed>  (2327) 
0

>  <r_i_docking_score>  (2327) 
-5.8232997230569801

>  <s_m_subgroup_title>  (2327) 
glide-dock_SP_D22_pv

>  <s_m_subgroupid>  (2327) 
glide-dock_SP_D22_pv

>  <Molecule ChEMBL ID>  (2327) 
CHEMBL433012

>  <Standard Type>  (2327) 
Ki

>  <Standard Value>  (2327) 
10000.0

>  <label>  (2327) 
0

$$$$
CHEMBL544115
     RDKit          3D

  0  0  0  0  0  0  0  0  0  0999 V3000
M  V30 BEGIN CTAB
M  V30 COUNTS 44 46 0 0 1
M  V30 BEGIN ATOM
M  V30 1 C 4.886248 2.032426 -12.502290 0
M  V30 2 C 5.523695 2.955274 -13.233155 0
M  V30 3 C 6.055566 4.280120 -12.718691 0
M  V30 4 N 7.537624 4.284021 -12.580302 0 CFG=1 CHG=1
M  V30 5 C 8.256280 3.877708 -13.821489 0
M  V30 6 C 9.712327 3.482698 -13.570337 0
M  V30 7 C 10.612100 4.700257 -13.636004 0
M  V30 8 C 10.483779 5.711942 -12.646918 0
M  V30 9 C 11.286148 6.870108 -12.765859 0
M  V30 10 C 12.154110 7.034390 -13.854538 0
M  V30 11 O 12.889061 8.172325 -13.949206 0
M  V30 12 C 12.276721 6.036651 -14.833434 0
M  V30 13 O 13.106306 6.231695 -15.902838 0
M  V30 14 C 11.517004 4.857581 -14.720068 0
M  V30 15 Cl 11.684491 3.650757 -15.954383 0
M  V30 16 C 9.483105 5.538424 -11.480375 0 CFG=1
M  V30 17 C 9.674947 6.498895 -10.302999 0
M  V30 18 C 9.368245 7.873026 -10.416780 0
M  V30 19 C 9.517951 8.727477 -9.309258 0
M  V30 20 C 9.946816 8.220553 -8.068978 0
M  V30 21 C 10.226763 6.848212 -7.937454 0
M  V30 22 C 10.085928 5.993799 -9.047762 0
M  V30 23 C 8.004618 5.547177 -11.940317 0
M  V30 24 H 4.703543 2.169554 -11.448784 0
M  V30 25 H 4.539758 1.117832 -12.962933 0
M  V30 26 H 5.685263 2.754297 -14.279513 0
M  V30 27 H 5.737261 5.075559 -13.394611 0
M  V30 28 H 5.596241 4.484760 -11.750090 0
M  V30 29 H 7.806197 2.985075 -14.247012 0
M  V30 30 H 8.176509 4.648037 -14.589221 0
M  V30 31 H 9.827945 2.972415 -12.614531 0
M  V30 32 H 9.998466 2.729595 -14.300719 0
M  V30 33 H 11.256191 7.664562 -12.039419 0
M  V30 34 H 13.750590 8.007725 -14.303362 0
M  V30 35 H 13.276010 7.144287 -16.077482 0
M  V30 36 H 9.681487 4.553710 -11.057429 0
M  V30 37 H 9.006767 8.278358 -11.350601 0
M  V30 38 H 9.280777 9.771629 -9.412038 0
M  V30 39 H 10.044306 8.879909 -7.218572 0
M  V30 40 H 10.541126 6.448747 -6.984138 0
M  V30 41 H 10.299147 4.941914 -8.924272 0
M  V30 42 H 7.803114 6.407831 -12.579628 0
M  V30 43 H 7.385566 5.685788 -11.050768 0
M  V30 44 H 7.731213 3.558215 -11.905223 0
M  V30 END ATOM
M  V30 BEGIN BOND
M  V30 1 2 2 1
M  V30 2 1 3 2
M  V30 3 1 4 3
M  V30 4 1 5 4
M  V30 5 1 6 5
M  V30 6 1 7 6
M  V30 7 2 8 7
M  V30 8 1 9 8
M  V30 9 2 10 9
M  V30 10 1 11 10
M  V30 11 1 12 10
M  V30 12 1 13 12
M  V30 13 1 14 7
M  V30 14 2 14 12
M  V30 15 1 15 14
M  V30 16 1 16 8
M  V30 17 1 17 16
M  V30 18 2 18 17
M  V30 19 1 19 18
M  V30 20 2 20 19
M  V30 21 1 21 20
M  V30 22 1 22 17
M  V30 23 2 22 21
M  V30 24 1 23 4
M  V30 25 1 23 16
M  V30 26 1 24 1
M  V30 27 1 25 1
M  V30 28 1 26 2
M  V30 29 1 27 3
M  V30 30 1 28 3
M  V30 31 1 29 5
M  V30 32 1 30 5
M  V30 33 1 31 6
M  V30 34 1 32 6
M  V30 35 1 33 9
M  V30 36 1 34 11
M  V30 37 1 35 13
M  V30 38 1 16 36 CFG=1
M  V30 39 1 37 18
M  V30 40 1 38 19
M  V30 41 1 39 20
M  V30 42 1 40 21
M  V30 43 1 41 22
M  V30 44 1 42 23
M  V30 45 1 43 23
M  V30 46 1 4 44 CFG=1
M  V30 END BOND
M  V30 END CTAB
M  END
>  <b_m_subgroup_collapsed>  (2328) 
0

>  <r_i_docking_score>  (2328) 
-5.8214606213788

>  <s_m_subgroup_title>  (2328) 
glide-dock_SP_D22_pv

>  <s_m_subgroupid>  (2328) 
glide-dock_SP_D22_pv

>  <Molecule ChEMBL ID>  (2328) 
CHEMBL544115

>  <Standard Type>  (2328) 
Ki

>  <Standard Value>  (2328) 
55.0

>  <label>  (2328) 
1

$$$$
CHEMBL544118
     RDKit          3D

  0  0  0  0  0  0  0  0  0  0999 V3000
M  V30 BEGIN CTAB
M  V30 COUNTS 39 41 0 0 1
M  V30 BEGIN ATOM
M  V30 1 C 9.260775 6.120010 -10.541747 0
M  V30 2 N 8.731548 5.693876 -11.859962 0 CFG=2 CHG=1
M  V30 3 C 7.565334 4.793302 -11.695952 0
M  V30 4 C 6.808979 4.482026 -12.992811 0
M  V30 5 C 7.455669 3.346694 -13.780757 0
M  V30 6 C 6.796779 2.086096 -13.848561 0
M  V30 7 Cl 5.284526 1.794744 -13.047618 0
M  V30 8 C 7.424271 1.001676 -14.491405 0
M  V30 9 O 6.839481 -0.226904 -14.582346 0
M  V30 10 C 8.718956 1.138446 -15.004137 0
M  V30 11 O 9.311651 0.039884 -15.572574 0 CHG=-1
M  V30 12 C 9.408070 2.366275 -14.900987 0
M  V30 13 Cl 11.058147 2.353132 -15.436750 0
M  V30 14 C 8.762301 3.512724 -14.329505 0
M  V30 15 C 9.426045 4.909533 -14.217817 0 CFG=2
M  V30 16 C 10.513135 5.233937 -15.254333 0
M  V30 17 C 10.143720 5.371567 -16.612835 0
M  V30 18 C 11.103966 5.698667 -17.589159 0
M  V30 19 C 12.448395 5.888983 -17.221958 0
M  V30 20 C 12.836472 5.739143 -15.876647 0
M  V30 21 C 11.876740 5.411977 -14.899302 0
M  V30 22 C 9.833805 5.246347 -12.757755 0
M  V30 23 H 9.672922 5.269822 -9.994050 0
M  V30 24 H 8.482855 6.571914 -9.927965 0
M  V30 25 H 10.050310 6.865088 -10.653796 0
M  V30 26 H 7.837307 3.877258 -11.174878 0
M  V30 27 H 6.873541 5.325943 -11.046864 0
M  V30 28 H 5.778529 4.253124 -12.731828 0
M  V30 29 H 6.715000 5.371428 -13.602694 0
M  V30 30 H 7.469545 -0.783667 -15.034824 0
M  V30 31 H 8.665792 5.636556 -14.498613 0
M  V30 32 H 9.117009 5.232430 -16.914207 0
M  V30 33 H 10.807205 5.802164 -18.622885 0
M  V30 34 H 13.183758 6.138481 -17.973579 0
M  V30 35 H 13.872182 5.869421 -15.597141 0
M  V30 36 H 12.218328 5.283488 -13.883571 0
M  V30 37 H 10.507870 6.102158 -12.776914 0
M  V30 38 H 10.386990 4.416206 -12.313498 0
M  V30 39 H 8.350821 6.533908 -12.274273 0
M  V30 END ATOM
M  V30 BEGIN BOND
M  V30 1 1 2 1
M  V30 2 1 3 2
M  V30 3 1 4 3
M  V30 4 1 5 4
M  V30 5 2 6 5
M  V30 6 1 7 6
M  V30 7 1 8 6
M  V30 8 1 9 8
M  V30 9 2 10 8
M  V30 10 1 11 10
M  V30 11 1 12 10
M  V30 12 1 13 12
M  V30 13 1 14 5
M  V30 14 2 14 12
M  V30 15 1 15 14
M  V30 16 1 16 15
M  V30 17 2 17 16
M  V30 18 1 18 17
M  V30 19 2 19 18
M  V30 20 1 20 19
M  V30 21 1 21 16
M  V30 22 2 21 20
M  V30 23 1 22 2
M  V30 24 1 22 15
M  V30 25 1 23 1
M  V30 26 1 24 1
M  V30 27 1 25 1
M  V30 28 1 26 3
M  V30 29 1 27 3
M  V30 30 1 28 4
M  V30 31 1 29 4
M  V30 32 1 30 9
M  V30 33 1 15 31 CFG=3
M  V30 34 1 32 17
M  V30 35 1 33 18
M  V30 36 1 34 19
M  V30 37 1 35 20
M  V30 38 1 36 21
M  V30 39 1 37 22
M  V30 40 1 38 22
M  V30 41 1 2 39 CFG=3
M  V30 END BOND
M  V30 END CTAB
M  END
>  <b_m_subgroup_collapsed>  (2329) 
0

>  <r_i_docking_score>  (2329) 
-5.8206166209804397

>  <s_m_subgroup_title>  (2329) 
glide-dock_SP_D22_pv

>  <s_m_subgroupid>  (2329) 
glide-dock_SP_D22_pv

>  <Molecule ChEMBL ID>  (2329) 
CHEMBL544118

>  <Standard Type>  (2329) 
Ki

>  <Standard Value>  (2329) 
810000.0

>  <label>  (2329) 
0

$$$$
CHEMBL598760
     RDKit          3D

  0  0  0  0  0  0  0  0  0  0999 V3000
M  V30 BEGIN CTAB
M  V30 COUNTS 53 56 0 0 1
M  V30 BEGIN ATOM
M  V30 1 C 15.400366 6.573075 -17.046103 0
M  V30 2 C 14.625247 7.562095 -17.527956 0
M  V30 3 C 15.081957 8.433818 -18.680565 0
M  V30 4 C 13.241405 7.908479 -16.982887 0
M  V30 5 O 12.884327 7.210727 -15.791553 0
M  V30 6 C 12.296249 5.964722 -15.874782 0
M  V30 7 C 12.404247 5.160971 -17.039797 0
M  V30 8 C 11.794023 3.899519 -17.112871 0
M  V30 9 C 11.025919 3.439024 -16.035648 0
M  V30 10 C 10.889740 4.235020 -14.882540 0
M  V30 11 C 11.552848 5.482330 -14.759597 0
M  V30 12 C 11.382340 6.224395 -13.478829 0
M  V30 13 C 12.330167 7.145258 -12.962314 0
M  V30 14 C 12.191957 7.772324 -11.708899 0
M  V30 15 C 11.068539 7.523024 -10.914385 0
M  V30 16 C 10.085778 6.631926 -11.370987 0
M  V30 17 C 10.258594 6.007582 -12.637072 0
M  V30 18 C 9.209201 5.024017 -13.199977 0 CFG=1
M  V30 19 C 9.931492 3.793213 -13.795491 0
M  V30 20 N 8.110377 4.647111 -12.265408 0 CFG=2 CHG=1
M  V30 21 C 6.943568 4.023910 -12.947920 0
M  V30 22 C 5.959010 3.375417 -11.966629 0
M  V30 23 C 5.152257 2.254169 -12.621973 0
M  V30 24 C 7.704142 5.794444 -11.437116 0
M  V30 25 C 8.871805 6.221218 -10.570051 0
M  V30 26 H 16.372267 6.369992 -17.467772 0
M  V30 27 H 15.083452 5.952277 -16.221094 0
M  V30 28 H 14.385536 8.351801 -19.517258 0
M  V30 29 H 16.072283 8.145098 -19.034924 0
M  V30 30 H 15.124799 9.479837 -18.373545 0
M  V30 31 H 13.241676 8.968832 -16.726974 0
M  V30 32 H 12.481805 7.792037 -17.758387 0
M  V30 33 H 12.965470 5.488970 -17.901340 0
M  V30 34 H 11.895910 3.296848 -18.004507 0
M  V30 35 H 10.522291 2.487247 -16.112679 0
M  V30 36 H 13.231001 7.368996 -13.509793 0
M  V30 37 H 12.953719 8.454868 -11.360673 0
M  V30 38 H 10.968893 8.001737 -9.950304 0
M  V30 39 H 8.728114 5.561359 -14.019803 0
M  V30 40 H 9.249156 3.066902 -14.230748 0
M  V30 41 H 10.485110 3.261364 -13.023495 0
M  V30 42 H 6.427687 4.758998 -13.568089 0
M  V30 43 H 7.276859 3.245874 -13.629535 0
M  V30 44 H 6.485780 2.973388 -11.102442 0
M  V30 45 H 5.279332 4.129719 -11.572703 0
M  V30 46 H 4.486086 1.796053 -11.895631 0
M  V30 47 H 5.800117 1.466388 -13.010270 0
M  V30 48 H 4.548964 2.633594 -13.446819 0
M  V30 49 H 7.359887 6.616946 -12.067348 0
M  V30 50 H 6.886099 5.538068 -10.777294 0
M  V30 51 H 9.158270 5.415408 -9.892628 0
M  V30 52 H 8.566199 7.054724 -9.936511 0
M  V30 53 H 8.493297 3.961274 -11.632066 0
M  V30 END ATOM
M  V30 BEGIN BOND
M  V30 1 2 2 1
M  V30 2 1 3 2
M  V30 3 1 4 2
M  V30 4 1 5 4
M  V30 5 1 6 5
M  V30 6 2 7 6
M  V30 7 1 8 7
M  V30 8 2 9 8
M  V30 9 1 10 9
M  V30 10 1 11 6
M  V30 11 2 11 10
M  V30 12 1 12 11
M  V30 13 2 13 12
M  V30 14 1 14 13
M  V30 15 2 15 14
M  V30 16 1 16 15
M  V30 17 1 17 12
M  V30 18 2 17 16
M  V30 19 1 18 17
M  V30 20 1 19 10
M  V30 21 1 19 18
M  V30 22 1 20 18
M  V30 23 1 21 20
M  V30 24 1 22 21
M  V30 25 1 23 22
M  V30 26 1 24 20
M  V30 27 1 25 16
M  V30 28 1 25 24
M  V30 29 1 26 1
M  V30 30 1 27 1
M  V30 31 1 28 3
M  V30 32 1 29 3
M  V30 33 1 30 3
M  V30 34 1 31 4
M  V30 35 1 32 4
M  V30 36 1 33 7
M  V30 37 1 34 8
M  V30 38 1 35 9
M  V30 39 1 36 13
M  V30 40 1 37 14
M  V30 41 1 38 15
M  V30 42 1 18 39 CFG=3
M  V30 43 1 40 19
M  V30 44 1 41 19
M  V30 45 1 42 21
M  V30 46 1 43 21
M  V30 47 1 44 22
M  V30 48 1 45 22
M  V30 49 1 46 23
M  V30 50 1 47 23
M  V30 51 1 48 23
M  V30 52 1 49 24
M  V30 53 1 50 24
M  V30 54 1 51 25
M  V30 55 1 52 25
M  V30 56 1 20 53 CFG=1
M  V30 END BOND
M  V30 END CTAB
M  END
>  <b_m_subgroup_collapsed>  (2330) 
0

>  <r_i_docking_score>  (2330) 
-5.8183783123242803

>  <s_m_subgroup_title>  (2330) 
glide-dock_SP_D22_pv

>  <s_m_subgroupid>  (2330) 
glide-dock_SP_D22_pv

>  <Molecule ChEMBL ID>  (2330) 
CHEMBL598760

>  <Standard Type>  (2330) 
Ki

>  <Standard Value>  (2330) 
10000.0

>  <label>  (2330) 
0

$$$$
CHEMBL2159477
     RDKit          3D

  0  0  0  0  0  0  0  0  0  0999 V3000
M  V30 BEGIN CTAB
M  V30 COUNTS 61 64 0 0 1
M  V30 BEGIN ATOM
M  V30 1 C 9.185000 4.850987 -10.644674 0
M  V30 2 C 8.890201 6.353836 -10.558327 0
M  V30 3 C 8.289482 6.927827 -11.852087 0
M  V30 4 C 10.109579 7.124185 -10.063460 0
M  V30 5 C 10.116832 7.509192 -8.704325 0
M  V30 6 C 11.219935 8.178205 -8.154538 0
M  V30 7 C 12.311299 8.492683 -8.975897 0
M  V30 8 C 12.297994 8.157729 -10.342765 0
M  V30 9 C 11.215765 7.431241 -10.904408 0
M  V30 10 O 11.180283 6.975307 -12.212967 0
M  V30 11 C 12.284105 7.131254 -13.105284 0
M  V30 12 C 12.484983 5.807357 -13.859966 0
M  V30 13 N 11.301011 5.456109 -14.686313 0 CFG=1 CHG=1
M  V30 14 C 11.487720 5.551392 -16.159042 0
M  V30 15 C 11.012954 4.219409 -16.752134 0
M  V30 16 C 10.046213 3.693747 -15.698479 0 CFG=1
M  V30 17 N 9.877314 2.238605 -15.763493 0
M  V30 18 S 8.623227 1.527466 -16.715052 0
M  V30 19 O 9.200480 0.300588 -17.285351 0
M  V30 20 O 8.083780 2.569070 -17.604435 0
M  V30 21 C 7.319029 1.041031 -15.559515 0
M  V30 22 C 6.718840 -0.212424 -15.801755 0
M  V30 23 C 5.665802 -0.675851 -14.995381 0
M  V30 24 C 5.198788 0.118929 -13.938452 0
M  V30 25 C 5.789236 1.371610 -13.689769 0
M  V30 26 C 5.285519 2.172911 -12.646309 0
M  V30 27 C 5.819193 3.453738 -12.443235 0
M  V30 28 C 6.863190 3.861612 -13.282362 0
M  V30 29 N 7.378251 3.086694 -14.250901 0
M  V30 30 C 6.861491 1.861449 -14.492365 0
M  V30 31 C 10.700591 4.134987 -14.392397 0
M  V30 32 H 9.514747 4.465683 -9.679214 0
M  V30 33 H 8.294259 4.291874 -10.927229 0
M  V30 34 H 9.968859 4.634716 -11.367750 0
M  V30 35 H 8.115253 6.464130 -9.797719 0
M  V30 36 H 8.233755 8.016398 -11.815653 0
M  V30 37 H 8.846191 6.644000 -12.742304 0
M  V30 38 H 7.267437 6.573068 -11.974117 0
M  V30 39 H 9.275346 7.273888 -8.066832 0
M  V30 40 H 11.227238 8.448766 -7.108633 0
M  V30 41 H 13.170491 8.994151 -8.557979 0
M  V30 42 H 13.158028 8.463295 -10.915378 0
M  V30 43 H 13.226851 7.371775 -12.624933 0
M  V30 44 H 12.071790 7.937115 -13.808475 0
M  V30 45 H 12.719801 5.021004 -13.139761 0
M  V30 46 H 13.365736 5.889472 -14.494777 0
M  V30 47 H 12.510524 5.771432 -16.468674 0
M  V30 48 H 10.861199 6.364747 -16.525841 0
M  V30 49 H 11.863134 3.543295 -16.858124 0
M  V30 50 H 10.549944 4.332134 -17.733765 0
M  V30 51 H 9.087393 4.198166 -15.817273 0
M  V30 52 H 10.728614 1.679530 -15.718023 0
M  V30 53 H 7.059055 -0.831780 -16.619123 0
M  V30 54 H 5.213591 -1.637097 -15.198258 0
M  V30 55 H 4.368411 -0.224178 -13.341797 0
M  V30 56 H 4.485975 1.823567 -12.016064 0
M  V30 57 H 5.451145 4.101206 -11.658599 0
M  V30 58 H 7.314549 4.831612 -13.183750 0
M  V30 59 H 9.983644 4.190396 -13.574987 0
M  V30 60 H 11.479046 3.421404 -14.113330 0
M  V30 61 H 10.585193 6.130722 -14.453412 0
M  V30 END ATOM
M  V30 BEGIN BOND
M  V30 1 1 2 1
M  V30 2 1 3 2
M  V30 3 1 4 2
M  V30 4 2 5 4
M  V30 5 1 6 5
M  V30 6 2 7 6
M  V30 7 1 8 7
M  V30 8 1 9 4
M  V30 9 2 9 8
M  V30 10 1 10 9
M  V30 11 1 11 10
M  V30 12 1 12 11
M  V30 13 1 13 12
M  V30 14 1 14 13
M  V30 15 1 15 14
M  V30 16 1 16 15
M  V30 17 1 17 16
M  V30 18 1 18 17
M  V30 19 2 19 18
M  V30 20 2 20 18
M  V30 21 1 21 18
M  V30 22 2 22 21
M  V30 23 1 23 22
M  V30 24 2 24 23
M  V30 25 1 25 24
M  V30 26 2 26 25
M  V30 27 1 27 26
M  V30 28 2 28 27
M  V30 29 1 29 28
M  V30 30 1 30 21
M  V30 31 1 30 25
M  V30 32 2 30 29
M  V30 33 1 31 13
M  V30 34 1 31 16
M  V30 35 1 32 1
M  V30 36 1 33 1
M  V30 37 1 34 1
M  V30 38 1 35 2
M  V30 39 1 36 3
M  V30 40 1 37 3
M  V30 41 1 38 3
M  V30 42 1 39 5
M  V30 43 1 40 6
M  V30 44 1 41 7
M  V30 45 1 42 8
M  V30 46 1 43 11
M  V30 47 1 44 11
M  V30 48 1 45 12
M  V30 49 1 46 12
M  V30 50 1 47 14
M  V30 51 1 48 14
M  V30 52 1 49 15
M  V30 53 1 50 15
M  V30 54 1 16 51 CFG=3
M  V30 55 1 52 17
M  V30 56 1 53 22
M  V30 57 1 54 23
M  V30 58 1 55 24
M  V30 59 1 56 26
M  V30 60 1 57 27
M  V30 61 1 58 28
M  V30 62 1 59 31
M  V30 63 1 60 31
M  V30 64 1 13 61 CFG=1
M  V30 END BOND
M  V30 END CTAB
M  END
>  <b_m_subgroup_collapsed>  (2331) 
0

>  <r_i_docking_score>  (2331) 
-5.81774836037917

>  <s_m_subgroup_title>  (2331) 
glide-dock_SP_D22_pv

>  <s_m_subgroupid>  (2331) 
glide-dock_SP_D22_pv

>  <Molecule ChEMBL ID>  (2331) 
CHEMBL2159477

>  <Standard Type>  (2331) 
Ki

>  <Standard Value>  (2331) 
10.0

>  <label>  (2331) 
1

$$$$
CHEMBL378358
     RDKit          3D

  0  0  0  0  0  0  0  0  0  0999 V3000
M  V30 BEGIN CTAB
M  V30 COUNTS 46 49 0 0 1
M  V30 BEGIN ATOM
M  V30 1 C 9.451958 4.274956 -18.275238 0
M  V30 2 N 10.364301 3.677246 -17.269533 0 CFG=1 CHG=1
M  V30 3 C 9.744720 2.514348 -16.571787 0
M  V30 4 C 10.171661 2.370482 -15.098914 0
M  V30 5 C 9.788168 3.554153 -14.255674 0
M  V30 6 C 10.613627 4.548884 -13.780889 0
M  V30 7 N 9.853527 5.446101 -13.050507 0
M  V30 8 C 8.532096 5.059591 -13.013452 0
M  V30 9 C 7.395978 5.624947 -12.410649 0
M  V30 10 C 6.155041 4.977215 -12.529723 0
M  V30 11 C 6.058137 3.771484 -13.248965 0
M  V30 12 C 7.203886 3.216000 -13.854887 0
M  V30 13 C 8.467975 3.848400 -13.759871 0
M  V30 14 C 12.088221 4.743249 -13.929668 0
M  V30 15 C 12.445951 5.590204 -15.123751 0
M  V30 16 C 12.506966 7.012176 -15.138921 0
M  V30 17 C 12.885225 7.410371 -16.386755 0
M  V30 18 N 13.060286 6.280399 -17.160557 0
M  V30 19 C 13.470126 6.303837 -18.551931 0
M  V30 20 C 12.782246 5.159624 -16.382614 0
M  V30 21 C 12.857277 3.759616 -16.920290 0
M  V30 22 C 11.702148 3.395035 -17.861534 0
M  V30 23 H 9.275539 3.582224 -19.099747 0
M  V30 24 H 9.875803 5.193101 -18.685570 0
M  V30 25 H 8.486413 4.537872 -17.846947 0
M  V30 26 H 8.659219 2.619962 -16.582636 0
M  V30 27 H 9.945991 1.591016 -17.116636 0
M  V30 28 H 9.688462 1.480804 -14.690529 0
M  V30 29 H 11.235679 2.158893 -15.020660 0
M  V30 30 H 10.236477 6.267159 -12.603154 0
M  V30 31 H 7.465308 6.545504 -11.845732 0
M  V30 32 H 5.286498 5.402903 -12.048843 0
M  V30 33 H 5.104558 3.268981 -13.329467 0
M  V30 34 H 7.114444 2.288594 -14.400622 0
M  V30 35 H 12.489258 5.238227 -13.046972 0
M  V30 36 H 12.594962 3.781265 -13.982076 0
M  V30 37 H 12.303038 7.679758 -14.314077 0
M  V30 38 H 13.042147 8.399864 -16.794918 0
M  V30 39 H 14.193352 5.512465 -18.751104 0
M  V30 40 H 13.940242 7.259446 -18.787212 0
M  V30 41 H 12.601249 6.175972 -19.195452 0
M  V30 42 H 13.806674 3.614572 -17.435993 0
M  V30 43 H 12.886964 3.048450 -16.099941 0
M  V30 44 H 11.782803 2.352565 -18.176823 0
M  V30 45 H 11.828510 3.978761 -18.774607 0
M  V30 46 H 10.505132 4.397171 -16.570511 0
M  V30 END ATOM
M  V30 BEGIN BOND
M  V30 1 1 2 1
M  V30 2 1 3 2
M  V30 3 1 4 3
M  V30 4 1 5 4
M  V30 5 2 6 5
M  V30 6 1 7 6
M  V30 7 1 8 7
M  V30 8 2 9 8
M  V30 9 1 10 9
M  V30 10 2 11 10
M  V30 11 1 12 11
M  V30 12 1 13 5
M  V30 13 1 13 8
M  V30 14 2 13 12
M  V30 15 1 14 6
M  V30 16 1 15 14
M  V30 17 1 16 15
M  V30 18 2 17 16
M  V30 19 1 18 17
M  V30 20 1 19 18
M  V30 21 2 20 15
M  V30 22 1 20 18
M  V30 23 1 21 20
M  V30 24 1 22 2
M  V30 25 1 22 21
M  V30 26 1 23 1
M  V30 27 1 24 1
M  V30 28 1 25 1
M  V30 29 1 26 3
M  V30 30 1 27 3
M  V30 31 1 28 4
M  V30 32 1 29 4
M  V30 33 1 30 7
M  V30 34 1 31 9
M  V30 35 1 32 10
M  V30 36 1 33 11
M  V30 37 1 34 12
M  V30 38 1 35 14
M  V30 39 1 36 14
M  V30 40 1 37 16
M  V30 41 1 38 17
M  V30 42 1 39 19
M  V30 43 1 40 19
M  V30 44 1 41 19
M  V30 45 1 42 21
M  V30 46 1 43 21
M  V30 47 1 44 22
M  V30 48 1 45 22
M  V30 49 1 2 46 CFG=1
M  V30 END BOND
M  V30 END CTAB
M  END
>  <b_m_subgroup_collapsed>  (2332) 
0

>  <r_i_docking_score>  (2332) 
-5.8160891691821304

>  <s_m_subgroup_title>  (2332) 
glide-dock_SP_D22_pv

>  <s_m_subgroupid>  (2332) 
glide-dock_SP_D22_pv

>  <Molecule ChEMBL ID>  (2332) 
CHEMBL378358

>  <Standard Type>  (2332) 
Ki

>  <Standard Value>  (2332) 
10000.0

>  <label>  (2332) 
0

$$$$
CHEMBL433121
     RDKit          3D

  0  0  0  0  0  0  0  0  0  0999 V3000
M  V30 BEGIN CTAB
M  V30 COUNTS 53 55 0 0 1
M  V30 BEGIN ATOM
M  V30 1 C 5.362619 8.331502 -12.711014 0
M  V30 2 C 5.727200 6.861862 -12.575047 0
M  V30 3 C 7.242730 6.615060 -12.532742 0
M  V30 4 N 7.544315 5.269061 -11.993179 0 CFG=2 CHG=1
M  V30 5 C 8.951576 5.096596 -11.543624 0
M  V30 6 C 9.310444 5.962923 -10.352851 0
M  V30 7 C 8.909595 5.579751 -9.056764 0
M  V30 8 C 9.296497 6.346329 -7.941777 0
M  V30 9 C 10.095506 7.501029 -8.108238 0
M  V30 10 N 10.550815 8.266990 -6.937688 0 CHG=1
M  V30 11 O 11.043349 9.374007 -7.120834 0
M  V30 12 O 10.443464 7.749815 -5.832577 0 CHG=-1
M  V30 13 C 10.471836 7.894238 -9.412509 0
M  V30 14 C 10.084903 7.128093 -10.527144 0
M  V30 15 C 6.988480 4.158345 -12.829931 0 CFG=2
M  V30 16 C 6.011846 3.330051 -11.989257 0
M  V30 17 C 5.378627 2.155877 -12.744414 0
M  V30 18 C 6.216054 1.515166 -13.846811 0
M  V30 19 C 7.430713 2.100742 -14.290629 0
M  V30 20 C 8.147579 1.511711 -15.350299 0
M  V30 21 C 7.658467 0.355263 -15.977254 0
M  V30 22 C 6.455183 -0.227246 -15.543520 0
M  V30 23 C 5.721108 0.343812 -14.475091 0
M  V30 24 O 4.527681 -0.178117 -14.018142 0
M  V30 25 C 3.828694 -1.078990 -14.867206 0
M  V30 26 C 8.022427 3.333361 -13.628881 0
M  V30 27 H 4.416886 8.572608 -12.234894 0
M  V30 28 H 6.112439 8.969809 -12.246367 0
M  V30 29 H 5.282613 8.572247 -13.769152 0
M  V30 30 H 5.271863 6.315041 -13.394471 0
M  V30 31 H 5.286477 6.484747 -11.653416 0
M  V30 32 H 7.698019 7.366242 -11.891068 0
M  V30 33 H 7.689675 6.744497 -13.511090 0
M  V30 34 H 9.113702 4.071285 -11.215101 0
M  V30 35 H 9.638740 5.280908 -12.370324 0
M  V30 36 H 8.310697 4.692229 -8.909899 0
M  V30 37 H 8.982609 6.036754 -6.955355 0
M  V30 38 H 11.080102 8.775725 -9.565130 0
M  V30 39 H 10.396395 7.433899 -11.515637 0
M  V30 40 H 6.370709 4.569382 -13.625081 0
M  V30 41 H 6.487348 2.972292 -11.082063 0
M  V30 42 H 5.217251 3.975628 -11.618270 0
M  V30 43 H 4.484751 2.526806 -13.234941 0
M  V30 44 H 5.051545 1.393737 -12.034919 0
M  V30 45 H 9.080740 1.944079 -15.682489 0
M  V30 46 H 8.213134 -0.098577 -16.784393 0
M  V30 47 H 6.124579 -1.123643 -16.043854 0
M  V30 48 H 2.886152 -1.352842 -14.396126 0
M  V30 49 H 3.597873 -0.615339 -15.826678 0
M  V30 50 H 4.385152 -1.999603 -15.045391 0
M  V30 51 H 8.854276 2.970877 -13.029354 0
M  V30 52 H 8.463945 3.968415 -14.400181 0
M  V30 53 H 7.006980 5.242561 -11.134299 0
M  V30 END ATOM
M  V30 BEGIN BOND
M  V30 1 1 2 1
M  V30 2 1 3 2
M  V30 3 1 4 3
M  V30 4 1 5 4
M  V30 5 1 6 5
M  V30 6 1 7 6
M  V30 7 2 8 7
M  V30 8 1 9 8
M  V30 9 1 10 9
M  V30 10 2 11 10
M  V30 11 1 12 10
M  V30 12 2 13 9
M  V30 13 2 14 6
M  V30 14 1 14 13
M  V30 15 1 15 4
M  V30 16 1 16 15
M  V30 17 1 17 16
M  V30 18 1 18 17
M  V30 19 2 19 18
M  V30 20 1 20 19
M  V30 21 2 21 20
M  V30 22 1 22 21
M  V30 23 1 23 18
M  V30 24 2 23 22
M  V30 25 1 24 23
M  V30 26 1 25 24
M  V30 27 1 26 15
M  V30 28 1 26 19
M  V30 29 1 27 1
M  V30 30 1 28 1
M  V30 31 1 29 1
M  V30 32 1 30 2
M  V30 33 1 31 2
M  V30 34 1 32 3
M  V30 35 1 33 3
M  V30 36 1 34 5
M  V30 37 1 35 5
M  V30 38 1 36 7
M  V30 39 1 37 8
M  V30 40 1 38 13
M  V30 41 1 39 14
M  V30 42 1 15 40 CFG=3
M  V30 43 1 41 16
M  V30 44 1 42 16
M  V30 45 1 43 17
M  V30 46 1 44 17
M  V30 47 1 45 20
M  V30 48 1 46 21
M  V30 49 1 47 22
M  V30 50 1 48 25
M  V30 51 1 49 25
M  V30 52 1 50 25
M  V30 53 1 51 26
M  V30 54 1 52 26
M  V30 55 1 4 53 CFG=1
M  V30 END BOND
M  V30 END CTAB
M  END
>  <b_m_subgroup_collapsed>  (2333) 
0

>  <r_i_docking_score>  (2333) 
-5.8145114648219902

>  <s_m_subgroup_title>  (2333) 
glide-dock_SP_D22_pv

>  <s_m_subgroupid>  (2333) 
glide-dock_SP_D22_pv

>  <Molecule ChEMBL ID>  (2333) 
CHEMBL433121

>  <Standard Type>  (2333) 
Ki

>  <Standard Value>  (2333) 
59.2

>  <label>  (2333) 
1

$$$$
CHEMBL10289
     RDKit          3D

  0  0  0  0  0  0  0  0  0  0999 V3000
M  V30 BEGIN CTAB
M  V30 COUNTS 37 39 0 0 1
M  V30 BEGIN ATOM
M  V30 1 C 10.860024 10.373505 -5.054636 0
M  V30 2 C 11.291287 9.451421 -5.928064 0
M  V30 3 C 10.737985 8.040392 -6.066335 0
M  V30 4 N 9.916509 7.866194 -7.294613 0 CFG=2 CHG=1
M  V30 5 C 8.987848 6.707591 -7.220154 0
M  V30 6 C 8.922464 6.068861 -8.626512 0
M  V30 7 C 9.578173 7.130273 -9.501245 0 CFG=2
M  V30 8 C 10.135157 6.750417 -10.863169 0
M  V30 9 C 9.513148 5.760883 -11.655790 0
M  V30 10 C 10.047709 5.425893 -12.915195 0
M  V30 11 C 11.188437 6.092818 -13.403381 0
M  V30 12 C 11.793053 7.108588 -12.634022 0
M  V30 13 O 12.885934 7.772299 -13.121915 0
M  V30 14 C 11.281184 7.431505 -11.355384 0
M  V30 15 C 12.013309 8.467634 -10.492208 0
M  V30 16 C 11.284925 8.891941 -9.212386 0
M  V30 17 C 10.645636 7.669645 -8.563967 0 CFG=1
M  V30 18 H 11.285856 11.363915 -5.045999 0
M  V30 19 H 10.085540 10.172414 -4.337230 0
M  V30 20 H 12.101630 9.734019 -6.578221 0
M  V30 21 H 10.102927 7.840981 -5.202474 0
M  V30 22 H 11.551591 7.313973 -6.034587 0
M  V30 23 H 8.016350 7.054914 -6.875346 0
M  V30 24 H 9.340556 5.967775 -6.505406 0
M  V30 25 H 7.906896 5.827379 -8.942890 0
M  V30 26 H 9.506786 5.148585 -8.640549 0
M  V30 27 H 8.844677 7.916996 -9.689877 0
M  V30 28 H 8.629355 5.251767 -11.299139 0
M  V30 29 H 9.574929 4.658488 -13.511275 0
M  V30 30 H 11.581009 5.834412 -14.376765 0
M  V30 31 H 13.392119 7.258000 -13.736183 0
M  V30 32 H 12.972415 8.028152 -10.221327 0
M  V30 33 H 12.251271 9.370465 -11.046746 0
M  V30 34 H 12.014444 9.372230 -8.574026 0
M  V30 35 H 10.522748 9.636467 -9.447434 0
M  V30 36 H 11.411170 6.908436 -8.405357 0
M  V30 37 H 9.331517 8.683077 -7.404058 0
M  V30 END ATOM
M  V30 BEGIN BOND
M  V30 1 2 2 1
M  V30 2 1 3 2
M  V30 3 1 4 3
M  V30 4 1 5 4
M  V30 5 1 6 5
M  V30 6 1 7 6
M  V30 7 1 8 7
M  V30 8 2 9 8
M  V30 9 1 10 9
M  V30 10 2 11 10
M  V30 11 1 12 11
M  V30 12 1 13 12
M  V30 13 1 14 8
M  V30 14 2 14 12
M  V30 15 1 15 14
M  V30 16 1 16 15
M  V30 17 1 17 4
M  V30 18 1 17 7
M  V30 19 1 17 16
M  V30 20 1 18 1
M  V30 21 1 19 1
M  V30 22 1 20 2
M  V30 23 1 21 3
M  V30 24 1 22 3
M  V30 25 1 23 5
M  V30 26 1 24 5
M  V30 27 1 25 6
M  V30 28 1 26 6
M  V30 29 1 7 27 CFG=3
M  V30 30 1 28 9
M  V30 31 1 29 10
M  V30 32 1 30 11
M  V30 33 1 31 13
M  V30 34 1 32 15
M  V30 35 1 33 15
M  V30 36 1 34 16
M  V30 37 1 35 16
M  V30 38 1 17 36 CFG=1
M  V30 39 1 4 37 CFG=3
M  V30 END BOND
M  V30 END CTAB
M  END
>  <b_m_subgroup_collapsed>  (2334) 
0

>  <r_i_docking_score>  (2334) 
-5.8104471360800201

>  <s_m_subgroup_title>  (2334) 
glide-dock_SP_D22_pv

>  <s_m_subgroupid>  (2334) 
glide-dock_SP_D22_pv

>  <Molecule ChEMBL ID>  (2334) 
CHEMBL10289

>  <Standard Type>  (2334) 
Ki

>  <Standard Value>  (2334) 
75.0

>  <label>  (2334) 
1

$$$$
CHEMBL193435
     RDKit          3D

  0  0  0  0  0  0  0  0  0  0999 V3000
M  V30 BEGIN CTAB
M  V30 COUNTS 44 47 0 0 1
M  V30 BEGIN ATOM
M  V30 1 C 9.619761 7.402088 -11.456739 0
M  V30 2 N 8.486112 6.538405 -11.047239 0 CHG=1
M  V30 3 C 8.794930 5.709456 -9.858781 0
M  V30 4 C 7.845708 5.807950 -12.177979 0
M  V30 5 C 8.492884 4.451496 -12.527848 0 CFG=1
M  V30 6 C 7.876849 3.768828 -13.745521 0
M  V30 7 C 8.960394 2.774385 -14.146518 0 CFG=1
M  V30 8 C 8.794865 2.120232 -15.527945 0
M  V30 9 C 7.492589 1.828923 -16.000017 0
M  V30 10 C 7.297368 1.154003 -17.219257 0
M  V30 11 C 8.404083 0.737787 -17.976200 0
M  V30 12 C 9.704675 1.004507 -17.513746 0
M  V30 13 C 9.906444 1.686043 -16.297630 0
M  V30 14 O 11.192418 1.904973 -15.890371 0
M  V30 15 C 11.587234 3.211376 -15.912782 0
M  V30 16 C 12.458658 3.673587 -16.921310 0
M  V30 17 C 12.845768 5.027570 -16.951323 0
M  V30 18 C 12.361278 5.915428 -15.972270 0
M  V30 19 Br 12.886243 7.743724 -15.992626 0
M  V30 20 C 11.496534 5.450825 -14.964605 0
M  V30 21 C 11.108984 4.093832 -14.926309 0
M  V30 22 C 10.248055 3.560066 -13.788883 0 CFG=1
M  V30 23 O 9.846442 4.610947 -12.908903 0
M  V30 24 H 10.461290 6.808354 -11.815291 0
M  V30 25 H 9.959644 8.004224 -10.612577 0
M  V30 26 H 9.314381 8.088628 -12.248716 0
M  V30 27 H 9.640452 5.045115 -10.044282 0
M  V30 28 H 7.931660 5.104595 -9.576748 0
M  V30 29 H 9.039438 6.347320 -9.008372 0
M  V30 30 H 6.802069 5.635582 -11.900924 0
M  V30 31 H 7.819030 6.455905 -13.055367 0
M  V30 32 H 8.451545 3.772840 -11.676977 0
M  V30 33 H 6.917141 3.304622 -13.520179 0
M  V30 34 H 7.731987 4.496637 -14.542211 0
M  V30 35 H 8.888016 1.942441 -13.447647 0
M  V30 36 H 6.623436 2.105029 -15.425242 0
M  V30 37 H 6.294775 0.937834 -17.560349 0
M  V30 38 H 8.255669 0.206510 -18.905632 0
M  V30 39 H 10.555055 0.676271 -18.092905 0
M  V30 40 H 12.824578 2.989014 -17.671844 0
M  V30 41 H 13.512555 5.383601 -17.721859 0
M  V30 42 H 11.149493 6.149854 -14.219302 0
M  V30 43 H 10.885361 2.878532 -13.229757 0
M  V30 44 H 7.754380 7.180001 -10.714079 0
M  V30 END ATOM
M  V30 BEGIN BOND
M  V30 1 1 2 1
M  V30 2 1 3 2
M  V30 3 1 4 2
M  V30 4 1 5 4
M  V30 5 1 6 5
M  V30 6 1 7 6
M  V30 7 1 8 7
M  V30 8 2 9 8
M  V30 9 1 10 9
M  V30 10 2 11 10
M  V30 11 1 12 11
M  V30 12 1 13 8
M  V30 13 2 13 12
M  V30 14 1 14 13
M  V30 15 1 15 14
M  V30 16 1 16 15
M  V30 17 2 17 16
M  V30 18 1 18 17
M  V30 19 1 19 18
M  V30 20 2 20 18
M  V30 21 2 21 15
M  V30 22 1 21 20
M  V30 23 1 22 7
M  V30 24 1 22 21
M  V30 25 1 23 5
M  V30 26 1 23 22
M  V30 27 1 24 1
M  V30 28 1 25 1
M  V30 29 1 26 1
M  V30 30 1 27 3
M  V30 31 1 28 3
M  V30 32 1 29 3
M  V30 33 1 30 4
M  V30 34 1 31 4
M  V30 35 1 5 32 CFG=1
M  V30 36 1 33 6
M  V30 37 1 34 6
M  V30 38 1 7 35 CFG=1
M  V30 39 1 36 9
M  V30 40 1 37 10
M  V30 41 1 38 11
M  V30 42 1 39 12
M  V30 43 1 40 16
M  V30 44 1 41 17
M  V30 45 1 42 20
M  V30 46 1 22 43 CFG=1
M  V30 47 1 44 2
M  V30 END BOND
M  V30 END CTAB
M  END
>  <b_m_subgroup_collapsed>  (2335) 
0

>  <r_i_docking_score>  (2335) 
-5.80769601228433

>  <s_m_subgroup_title>  (2335) 
glide-dock_SP_D22_pv

>  <s_m_subgroupid>  (2335) 
glide-dock_SP_D22_pv

>  <Molecule ChEMBL ID>  (2335) 
CHEMBL193435

>  <Standard Type>  (2335) 
Ki

>  <Standard Value>  (2335) 
66.0

>  <label>  (2335) 
1

$$$$
CHEMBL28437
     RDKit          3D

  0  0  0  0  0  0  0  0  0  0999 V3000
M  V30 BEGIN CTAB
M  V30 COUNTS 50 51 0 0 1
M  V30 BEGIN ATOM
M  V30 1 C 9.278461 4.514090 -9.205503 0
M  V30 2 C 9.380937 6.029060 -9.392604 0
M  V30 3 C 9.432962 6.496932 -10.857763 0
M  V30 4 N 8.086022 6.572324 -11.505601 0 CHG=1
M  V30 5 C 7.844799 7.695060 -12.460949 0
M  V30 6 C 8.542096 9.038222 -12.179685 0
M  V30 7 C 8.086022 9.638893 -10.850064 0
M  V30 8 C 7.571088 5.262028 -12.011795 0 CFG=1
M  V30 9 C 6.071283 5.289517 -12.357359 0
M  V30 10 C 5.532555 3.892524 -12.700862 0
M  V30 11 C 6.506257 2.995325 -13.456710 0
M  V30 12 C 6.067438 1.714004 -13.846865 0
M  V30 13 C 6.949566 0.807089 -14.460296 0
M  V30 14 C 8.296715 1.159863 -14.647556 0
M  V30 15 C 8.761876 2.428761 -14.246865 0
M  V30 16 O 10.108085 2.691057 -14.290956 0
M  V30 17 S 10.755045 3.431876 -15.664732 0
M  V30 18 O 9.686022 4.212193 -16.307867 0
M  V30 19 O 12.004321 4.084964 -15.243742 0
M  V30 20 C 11.153882 1.937119 -16.678816 0
M  V30 21 F 10.176641 1.728169 -17.559948 0
M  V30 22 F 12.305664 2.145649 -17.315210 0
M  V30 23 F 11.286021 0.880190 -15.878905 0
M  V30 24 C 7.860892 3.364295 -13.675262 0
M  V30 25 C 8.380557 4.704728 -13.202261 0
M  V30 26 H 9.686022 4.224613 -8.246864 0
M  V30 27 H 8.244262 4.172325 -9.208718 0
M  V30 28 H 9.840622 3.972693 -9.966733 0
M  V30 29 H 10.309810 6.346527 -8.916584 0
M  V30 30 H 8.583295 6.537621 -8.847525 0
M  V30 31 H 10.138203 5.903968 -11.434020 0
M  V30 32 H 9.902366 7.471775 -10.797504 0
M  V30 33 H 8.086022 7.363524 -13.446865 0
M  V30 34 H 6.772985 7.890628 -12.498492 0
M  V30 35 H 9.626202 8.960559 -12.235121 0
M  V30 36 H 8.282910 9.732197 -12.979434 0
M  V30 37 H 8.486020 10.607102 -10.646866 0
M  V30 38 H 7.008069 9.772325 -10.869854 0
M  V30 39 H 8.368751 9.019764 -9.998965 0
M  V30 40 H 7.658108 4.541925 -11.206725 0
M  V30 41 H 5.898690 5.928322 -13.220202 0
M  V30 42 H 5.491370 5.719492 -11.538719 0
M  V30 43 H 4.601691 3.978710 -13.262195 0
M  V30 44 H 5.286022 3.378388 -11.770998 0
M  V30 45 H 5.043682 1.417469 -13.669569 0
M  V30 46 H 6.603126 -0.173504 -14.753976 0
M  V30 47 H 8.976878 0.432521 -15.063826 0
M  V30 48 H 9.427534 4.592309 -12.931857 0
M  V30 49 H 8.350416 5.363593 -14.068105 0
M  V30 50 H 7.450604 6.867296 -10.752247 0
M  V30 END ATOM
M  V30 BEGIN BOND
M  V30 1 1 2 1
M  V30 2 1 3 2
M  V30 3 1 4 3
M  V30 4 1 5 4
M  V30 5 1 6 5
M  V30 6 1 7 6
M  V30 7 1 8 4
M  V30 8 1 9 8
M  V30 9 1 10 9
M  V30 10 1 11 10
M  V30 11 1 12 11
M  V30 12 2 13 12
M  V30 13 1 14 13
M  V30 14 2 15 14
M  V30 15 1 16 15
M  V30 16 1 17 16
M  V30 17 2 18 17
M  V30 18 2 19 17
M  V30 19 1 20 17
M  V30 20 1 21 20
M  V30 21 1 22 20
M  V30 22 1 23 20
M  V30 23 2 24 11
M  V30 24 1 24 15
M  V30 25 1 25 8
M  V30 26 1 25 24
M  V30 27 1 26 1
M  V30 28 1 27 1
M  V30 29 1 28 1
M  V30 30 1 29 2
M  V30 31 1 30 2
M  V30 32 1 31 3
M  V30 33 1 32 3
M  V30 34 1 33 5
M  V30 35 1 34 5
M  V30 36 1 35 6
M  V30 37 1 36 6
M  V30 38 1 37 7
M  V30 39 1 38 7
M  V30 40 1 39 7
M  V30 41 1 8 40 CFG=1
M  V30 42 1 41 9
M  V30 43 1 42 9
M  V30 44 1 43 10
M  V30 45 1 44 10
M  V30 46 1 45 12
M  V30 47 1 46 13
M  V30 48 1 47 14
M  V30 49 1 48 25
M  V30 50 1 49 25
M  V30 51 1 50 4
M  V30 END BOND
M  V30 END CTAB
M  END
>  <b_m_subgroup_collapsed>  (2336) 
0

>  <r_i_docking_score>  (2336) 
-5.80689365902475

>  <s_m_subgroup_title>  (2336) 
glide-dock_SP_D22_pv

>  <s_m_subgroupid>  (2336) 
glide-dock_SP_D22_pv

>  <Molecule ChEMBL ID>  (2336) 
CHEMBL28437

>  <Standard Type>  (2336) 
Ki

>  <Standard Value>  (2336) 
62.0

>  <label>  (2336) 
1

$$$$
CHEMBL300647
     RDKit          3D

  0  0  0  0  0  0  0  0  0  0999 V3000
M  V30 BEGIN CTAB
M  V30 COUNTS 47 50 0 0 1
M  V30 BEGIN ATOM
M  V30 1 C 13.671017 4.177413 -19.267704 0
M  V30 2 N 12.422851 3.702497 -18.625391 0 CHG=1
M  V30 3 C 12.528324 2.278946 -18.214949 0
M  V30 4 C 11.928734 4.631896 -17.565580 0 CFG=2
M  V30 5 C 12.701742 4.489840 -16.260891 0
M  V30 6 C 12.124301 4.401684 -15.049935 0
M  V30 7 C 10.610250 4.463394 -14.774959 0 CFG=1
M  V30 8 C 9.974905 5.141605 -16.019838 0
M  V30 9 C 10.403760 4.505219 -17.354151 0
M  V30 10 C 10.050206 3.014251 -14.669670 0
M  V30 11 C 10.884293 1.904693 -14.994451 0
M  V30 12 C 10.380450 0.599068 -15.123074 0
M  V30 13 C 9.016192 0.360822 -14.934259 0
M  V30 14 C 8.177499 1.418916 -14.574961 0
M  V30 15 C 8.672964 2.733209 -14.429833 0
M  V30 16 C 7.665164 3.695848 -13.992177 0
M  V30 17 C 7.823553 4.864526 -13.366023 0
M  V30 18 C 9.048684 5.542689 -12.952838 0
M  V30 19 C 8.859621 6.447315 -11.883194 0
M  V30 20 C 9.909920 7.228112 -11.386561 0
M  V30 21 C 11.172663 7.121781 -11.976738 0
M  V30 22 Cl 12.485853 8.063291 -11.362376 0
M  V30 23 C 11.373482 6.227627 -13.047104 0
M  V30 24 C 10.339066 5.374325 -13.538665 0
M  V30 25 H 14.508860 4.167100 -18.568348 0
M  V30 26 H 13.934050 3.541705 -20.114637 0
M  V30 27 H 13.556651 5.195482 -19.644163 0
M  V30 28 H 13.285690 2.136144 -17.443729 0
M  V30 29 H 11.581666 1.894955 -17.839714 0
M  V30 30 H 12.807677 1.657786 -19.067942 0
M  V30 31 H 12.109813 5.656064 -17.900017 0
M  V30 32 H 13.779316 4.439147 -16.327637 0
M  V30 33 H 12.764899 4.243818 -14.194373 0
M  V30 34 H 8.886734 5.180100 -15.954556 0
M  V30 35 H 10.321375 6.172128 -16.046295 0
M  V30 36 H 9.877651 4.990484 -18.176384 0
M  V30 37 H 10.079752 3.465125 -17.371143 0
M  V30 38 H 11.935134 2.008991 -15.203697 0
M  V30 39 H 11.038312 -0.212623 -15.392988 0
M  V30 40 H 8.607437 -0.628148 -15.052918 0
M  V30 41 H 7.131860 1.207652 -14.397723 0
M  V30 42 H 6.644160 3.421523 -14.214051 0
M  V30 43 H 6.911752 5.403656 -13.147861 0
M  V30 44 H 7.880682 6.570382 -11.440872 0
M  V30 45 H 9.741494 7.908478 -10.565379 0
M  V30 46 H 12.369014 6.230000 -13.464933 0
M  V30 47 H 11.723773 3.732418 -19.354471 0
M  V30 END ATOM
M  V30 BEGIN BOND
M  V30 1 1 2 1
M  V30 2 1 3 2
M  V30 3 1 4 2
M  V30 4 1 5 4
M  V30 5 2 6 5
M  V30 6 1 7 6
M  V30 7 1 7 8 CFG=3
M  V30 8 1 9 4
M  V30 9 1 9 8
M  V30 10 1 10 7
M  V30 11 2 11 10
M  V30 12 1 12 11
M  V30 13 2 13 12
M  V30 14 1 14 13
M  V30 15 1 15 10
M  V30 16 2 15 14
M  V30 17 1 16 15
M  V30 18 2 17 16
M  V30 19 1 18 17
M  V30 20 1 19 18
M  V30 21 2 20 19
M  V30 22 1 21 20
M  V30 23 1 22 21
M  V30 24 2 23 21
M  V30 25 1 24 7
M  V30 26 2 24 18
M  V30 27 1 24 23
M  V30 28 1 25 1
M  V30 29 1 26 1
M  V30 30 1 27 1
M  V30 31 1 28 3
M  V30 32 1 29 3
M  V30 33 1 30 3
M  V30 34 1 4 31 CFG=3
M  V30 35 1 32 5
M  V30 36 1 33 6
M  V30 37 1 34 8
M  V30 38 1 35 8
M  V30 39 1 36 9
M  V30 40 1 37 9
M  V30 41 1 38 11
M  V30 42 1 39 12
M  V30 43 1 40 13
M  V30 44 1 41 14
M  V30 45 1 42 16
M  V30 46 1 43 17
M  V30 47 1 44 19
M  V30 48 1 45 20
M  V30 49 1 46 23
M  V30 50 1 47 2
M  V30 END BOND
M  V30 END CTAB
M  END
>  <b_m_subgroup_collapsed>  (2337) 
0

>  <r_i_docking_score>  (2337) 
-5.8064247816708603

>  <s_m_subgroup_title>  (2337) 
glide-dock_SP_D22_pv

>  <s_m_subgroupid>  (2337) 
glide-dock_SP_D22_pv

>  <Molecule ChEMBL ID>  (2337) 
CHEMBL300647

>  <Standard Type>  (2337) 
Ki

>  <Standard Value>  (2337) 
0.66

>  <label>  (2337) 
1

$$$$
CHEMBL3759205
     RDKit          3D

  0  0  0  0  0  0  0  0  0  0999 V3000
M  V30 BEGIN CTAB
M  V30 COUNTS 63 66 0 0 1
M  V30 BEGIN ATOM
M  V30 1 C 12.313025 8.954498 -2.079572 0
M  V30 2 C 11.815385 7.804518 -2.966622 0
M  V30 3 C 12.770699 6.630048 -2.880905 0
M  V30 4 C 11.563277 8.189715 -4.427166 0
M  V30 5 C 11.958352 9.438096 -4.951972 0
M  V30 6 C 11.670466 9.773131 -6.285226 0
M  V30 7 C 10.993014 8.862147 -7.120632 0
M  V30 8 C 10.602263 7.598901 -6.618758 0
M  V30 9 O 9.888639 6.679364 -7.353808 0
M  V30 10 C 10.295866 6.421232 -8.693379 0
M  V30 11 C 9.052694 6.183356 -9.563276 0
M  V30 12 N 9.395839 5.657917 -10.915920 0 CFG=1 CHG=1
M  V30 13 C 8.353717 4.817835 -11.545035 0 CFG=1
M  V30 14 C 7.356827 5.809565 -12.151763 0
M  V30 15 C 8.204003 7.059819 -12.418670 0
M  V30 16 C 9.637723 6.686642 -11.952838 0 CFG=2
M  V30 17 C 10.510899 6.023619 -13.061328 0
M  V30 18 C 9.778510 4.825540 -13.708950 0 CFG=1
M  V30 19 N 10.744653 3.995024 -14.434976 0
M  V30 20 S 10.305117 3.283948 -15.942219 0
M  V30 21 O 11.328320 2.276872 -16.258791 0
M  V30 22 O 8.885580 2.909281 -15.855620 0
M  V30 23 C 10.465215 4.633880 -17.111876 0
M  V30 24 C 9.494200 4.801063 -18.119646 0
M  V30 25 C 9.619267 5.855959 -19.045143 0
M  V30 26 C 10.717379 6.735655 -18.968458 0
M  V30 27 F 10.834377 7.750568 -19.855726 0
M  V30 28 C 11.686152 6.567876 -17.957329 0
M  V30 29 C 11.560136 5.518039 -17.023415 0
M  V30 30 C 9.034751 3.965664 -12.647936 0
M  V30 31 C 10.886502 7.281465 -5.274882 0
M  V30 32 H 11.603646 9.776093 -2.090681 0
M  V30 33 H 12.413385 8.627847 -1.046842 0
M  V30 34 H 13.285216 9.333526 -2.395483 0
M  V30 35 H 10.886095 7.460680 -2.525404 0
M  V30 36 H 12.426142 5.772710 -3.456749 0
M  V30 37 H 13.718618 6.972270 -3.283554 0
M  V30 38 H 12.886131 6.299295 -1.848870 0
M  V30 39 H 12.469075 10.168625 -4.345906 0
M  V30 40 H 11.958413 10.747675 -6.647113 0
M  V30 41 H 10.753325 9.158172 -8.130599 0
M  V30 42 H 10.928488 7.193525 -9.130814 0
M  V30 43 H 10.885957 5.508056 -8.666305 0
M  V30 44 H 8.409732 5.468871 -9.046945 0
M  V30 45 H 8.486029 7.108727 -9.635177 0
M  V30 46 H 7.861313 4.172066 -10.818668 0
M  V30 47 H 6.882320 5.421383 -13.053561 0
M  V30 48 H 6.557651 6.033590 -11.446892 0
M  V30 49 H 8.086101 7.364590 -13.446855 0
M  V30 50 H 7.828359 7.904790 -11.846897 0
M  V30 51 H 10.163819 7.550098 -11.542508 0
M  V30 52 H 10.886003 6.728480 -13.806418 0
M  V30 53 H 11.444626 5.660690 -12.646870 0
M  V30 54 H 9.052250 5.220935 -14.421060 0
M  V30 55 H 11.203027 3.307579 -13.838923 0
M  V30 56 H 8.655407 4.124546 -18.187540 0
M  V30 57 H 8.874870 5.990826 -19.816635 0
M  V30 58 H 12.522910 7.248089 -17.897854 0
M  V30 59 H 12.304430 5.387739 -16.251270 0
M  V30 60 H 9.734514 3.280653 -12.168812 0
M  V30 61 H 8.294312 3.338603 -13.144130 0
M  V30 62 H 10.560722 6.327057 -4.885643 0
M  V30 63 H 10.219144 5.085284 -10.805460 0
M  V30 END ATOM
M  V30 BEGIN BOND
M  V30 1 1 2 1
M  V30 2 1 3 2
M  V30 3 1 4 2
M  V30 4 2 5 4
M  V30 5 1 6 5
M  V30 6 2 7 6
M  V30 7 1 8 7
M  V30 8 1 9 8
M  V30 9 1 10 9
M  V30 10 1 11 10
M  V30 11 1 12 11
M  V30 12 1 13 12
M  V30 13 1 14 13
M  V30 14 1 15 14
M  V30 15 1 16 12
M  V30 16 1 16 15
M  V30 17 1 17 16
M  V30 18 1 18 17
M  V30 19 1 19 18
M  V30 20 1 20 19
M  V30 21 2 21 20
M  V30 22 2 22 20
M  V30 23 1 23 20
M  V30 24 1 24 23
M  V30 25 2 25 24
M  V30 26 1 26 25
M  V30 27 1 27 26
M  V30 28 2 28 26
M  V30 29 2 29 23
M  V30 30 1 29 28
M  V30 31 1 30 13
M  V30 32 1 30 18
M  V30 33 1 31 4
M  V30 34 2 31 8
M  V30 35 1 32 1
M  V30 36 1 33 1
M  V30 37 1 34 1
M  V30 38 1 35 2
M  V30 39 1 36 3
M  V30 40 1 37 3
M  V30 41 1 38 3
M  V30 42 1 39 5
M  V30 43 1 40 6
M  V30 44 1 41 7
M  V30 45 1 42 10
M  V30 46 1 43 10
M  V30 47 1 44 11
M  V30 48 1 45 11
M  V30 49 1 13 46 CFG=1
M  V30 50 1 47 14
M  V30 51 1 48 14
M  V30 52 1 49 15
M  V30 53 1 50 15
M  V30 54 1 16 51 CFG=1
M  V30 55 1 52 17
M  V30 56 1 53 17
M  V30 57 1 18 54 CFG=3
M  V30 58 1 55 19
M  V30 59 1 56 24
M  V30 60 1 57 25
M  V30 61 1 58 28
M  V30 62 1 59 29
M  V30 63 1 60 30
M  V30 64 1 61 30
M  V30 65 1 62 31
M  V30 66 1 12 63 CFG=1
M  V30 END BOND
M  V30 END CTAB
M  END
>  <b_m_subgroup_collapsed>  (2338) 
0

>  <r_i_docking_score>  (2338) 
-5.8060754055600503

>  <s_m_subgroup_title>  (2338) 
glide-dock_SP_D22_pv

>  <s_m_subgroupid>  (2338) 
glide-dock_SP_D22_pv

>  <Molecule ChEMBL ID>  (2338) 
CHEMBL3759205

>  <Standard Type>  (2338) 
Ki

>  <Standard Value>  (2338) 
60.0

>  <label>  (2338) 
1

$$$$
CHEMBL201093
     RDKit          3D

  0  0  0  0  0  0  0  0  0  0999 V3000
M  V30 BEGIN CTAB
M  V30 COUNTS 38 40 0 0 1
M  V30 BEGIN ATOM
M  V30 1 C 10.062324 3.770441 -9.239526 0
M  V30 2 N 9.242383 4.942247 -9.582361 0 CFG=1 CHG=1
M  V30 3 C 8.263955 4.633701 -10.665389 0
M  V30 4 C 8.177587 5.695052 -11.762929 0
M  V30 5 C 9.535630 5.901888 -12.419131 0
M  V30 6 C 9.927283 4.972303 -13.409395 0
M  V30 7 C 11.179811 5.071837 -14.039188 0
M  V30 8 C 12.058739 6.105285 -13.678599 0
M  V30 9 C 11.683372 7.028231 -12.685613 0
M  V30 10 C 10.421998 6.949152 -12.050440 0
M  V30 11 C 10.041642 8.033302 -11.044793 0
M  V30 12 C 10.747661 7.965392 -9.724011 0
M  V30 13 C 12.085798 8.416756 -9.544587 0
M  V30 14 C 12.505993 8.359696 -8.246849 0
M  V30 15 S 11.286011 7.700881 -7.203381 0
M  V30 16 C 10.180938 7.557565 -8.540735 0
M  V30 17 C 8.802293 7.054320 -8.310997 0
M  V30 18 C 8.697860 5.537191 -8.333329 0
M  V30 19 H 9.506270 3.042808 -8.646873 0
M  V30 20 H 10.886020 4.120695 -8.646864 0
M  V30 21 H 10.473260 3.268741 -10.110555 0
M  V30 22 H 8.615964 3.772374 -11.220519 0
M  V30 23 H 7.290803 4.344934 -10.286661 0
M  V30 24 H 7.491874 5.334681 -12.531088 0
M  V30 25 H 7.707387 6.604317 -11.419001 0
M  V30 26 H 9.263009 4.168105 -13.691563 0
M  V30 27 H 11.465169 4.357388 -14.797561 0
M  V30 28 H 13.020288 6.190762 -14.163603 0
M  V30 29 H 12.374318 7.816362 -12.429077 0
M  V30 30 H 10.313248 8.972365 -11.491482 0
M  V30 31 H 8.969732 8.145438 -10.925286 0
M  V30 32 H 12.679209 8.803678 -10.359519 0
M  V30 33 H 13.457010 8.679259 -7.846875 0
M  V30 34 H 8.440805 7.424218 -7.350729 0
M  V30 35 H 8.128480 7.461600 -9.046867 0
M  V30 36 H 7.685965 5.203931 -8.150285 0
M  V30 37 H 9.267341 5.192353 -7.469775 0
M  V30 38 H 9.885370 5.621004 -9.968608 0
M  V30 END ATOM
M  V30 BEGIN BOND
M  V30 1 1 2 1
M  V30 2 1 3 2
M  V30 3 1 4 3
M  V30 4 1 5 4
M  V30 5 2 6 5
M  V30 6 1 7 6
M  V30 7 2 8 7
M  V30 8 1 9 8
M  V30 9 1 10 5
M  V30 10 2 10 9
M  V30 11 1 11 10
M  V30 12 1 12 11
M  V30 13 1 13 12
M  V30 14 2 14 13
M  V30 15 1 15 14
M  V30 16 2 16 12
M  V30 17 1 16 15
M  V30 18 1 17 16
M  V30 19 1 18 2
M  V30 20 1 18 17
M  V30 21 1 19 1
M  V30 22 1 20 1
M  V30 23 1 21 1
M  V30 24 1 22 3
M  V30 25 1 23 3
M  V30 26 1 24 4
M  V30 27 1 25 4
M  V30 28 1 26 6
M  V30 29 1 27 7
M  V30 30 1 28 8
M  V30 31 1 29 9
M  V30 32 1 30 11
M  V30 33 1 31 11
M  V30 34 1 32 13
M  V30 35 1 33 14
M  V30 36 1 34 17
M  V30 37 1 35 17
M  V30 38 1 36 18
M  V30 39 1 37 18
M  V30 40 1 2 38 CFG=3
M  V30 END BOND
M  V30 END CTAB
M  END
>  <b_m_subgroup_collapsed>  (2339) 
0

>  <r_i_docking_score>  (2339) 
-5.8059163963881604

>  <s_m_subgroup_title>  (2339) 
glide-dock_SP_D22_pv

>  <s_m_subgroupid>  (2339) 
glide-dock_SP_D22_pv

>  <Molecule ChEMBL ID>  (2339) 
CHEMBL201093

>  <Standard Type>  (2339) 
Ki

>  <Standard Value>  (2339) 
92.0

>  <label>  (2339) 
1

$$$$
CHEMBL303979
     RDKit          3D

  0  0  0  0  0  0  0  0  0  0999 V3000
M  V30 BEGIN CTAB
M  V30 COUNTS 40 43 0 0 1
M  V30 BEGIN ATOM
M  V30 1 F 11.090541 1.607601 -15.972149 0
M  V30 2 C 9.913990 1.919513 -15.378986 0
M  V30 3 C 8.905730 0.946814 -15.262954 0
M  V30 4 C 7.683150 1.278146 -14.651067 0
M  V30 5 C 7.458414 2.577729 -14.152851 0
M  V30 6 C 8.483293 3.553978 -14.245228 0
M  V30 7 C 9.700837 3.217996 -14.876928 0
M  V30 8 C 8.291536 4.958969 -13.678352 0 CFG=2
M  V30 9 C 9.304680 5.339494 -12.590399 0
M  V30 10 N 8.743262 4.769156 -11.352866 0 CFG=1 CHG=1
M  V30 11 C 9.332105 5.102730 -10.025530 0
M  V30 12 C 9.816682 6.531877 -9.768770 0
M  V30 13 C 9.285429 7.264370 -8.684785 0
M  V30 14 C 9.800055 8.532693 -8.351237 0
M  V30 15 C 10.871503 9.068246 -9.087304 0
M  V30 16 C 11.406100 8.357402 -10.172302 0
M  V30 17 C 10.877852 7.100447 -10.510098 0
M  V30 18 C 7.285815 4.917108 -11.449888 0
M  V30 19 C 6.955074 5.110761 -12.935596 0 CFG=2
M  V30 20 C 5.847371 4.177812 -13.447711 0
M  V30 21 O 6.260297 2.822912 -13.524703 0
M  V30 22 H 9.066412 -0.051885 -15.640443 0
M  V30 23 H 6.913717 0.526222 -14.560191 0
M  V30 24 H 10.486528 3.953010 -14.974244 0
M  V30 25 H 8.352122 5.653720 -14.516301 0
M  V30 26 H 10.317722 4.993376 -12.791382 0
M  V30 27 H 9.315908 6.427116 -12.519331 0
M  V30 28 H 8.616384 4.818215 -9.250957 0
M  V30 29 H 10.172203 4.433859 -9.865473 0
M  V30 30 H 8.479731 6.856660 -8.090553 0
M  V30 31 H 9.382571 9.082543 -7.520629 0
M  V30 32 H 11.285829 10.030663 -8.830521 0
M  V30 33 H 12.228637 8.775932 -10.735187 0
M  V30 34 H 11.315639 6.573100 -11.340370 0
M  V30 35 H 6.817050 4.018722 -11.046752 0
M  V30 36 H 6.940096 5.772261 -10.869814 0
M  V30 37 H 6.617108 6.143022 -13.046568 0
M  V30 38 H 4.973917 4.235016 -12.799393 0
M  V30 39 H 5.511987 4.492094 -14.434554 0
M  V30 40 H 8.886129 3.774094 -11.450045 0
M  V30 END ATOM
M  V30 BEGIN BOND
M  V30 1 1 2 1
M  V30 2 1 3 2
M  V30 3 2 4 3
M  V30 4 1 5 4
M  V30 5 2 6 5
M  V30 6 2 7 2
M  V30 7 1 7 6
M  V30 8 1 8 6
M  V30 9 1 9 8
M  V30 10 1 10 9
M  V30 11 1 11 10
M  V30 12 1 12 11
M  V30 13 2 13 12
M  V30 14 1 14 13
M  V30 15 2 15 14
M  V30 16 1 16 15
M  V30 17 1 17 12
M  V30 18 2 17 16
M  V30 19 1 18 10
M  V30 20 1 19 8
M  V30 21 1 19 18
M  V30 22 1 20 19
M  V30 23 1 21 5
M  V30 24 1 21 20
M  V30 25 1 22 3
M  V30 26 1 23 4
M  V30 27 1 24 7
M  V30 28 1 8 25 CFG=3
M  V30 29 1 26 9
M  V30 30 1 27 9
M  V30 31 1 28 11
M  V30 32 1 29 11
M  V30 33 1 30 13
M  V30 34 1 31 14
M  V30 35 1 32 15
M  V30 36 1 33 16
M  V30 37 1 34 17
M  V30 38 1 35 18
M  V30 39 1 36 18
M  V30 40 1 19 37 CFG=1
M  V30 41 1 38 20
M  V30 42 1 39 20
M  V30 43 1 10 40 CFG=3
M  V30 END BOND
M  V30 END CTAB
M  END
>  <b_m_subgroup_collapsed>  (2340) 
0

>  <r_i_docking_score>  (2340) 
-5.8044560332944704

>  <s_m_subgroup_title>  (2340) 
glide-dock_SP_D22_pv

>  <s_m_subgroupid>  (2340) 
glide-dock_SP_D22_pv

>  <Molecule ChEMBL ID>  (2340) 
CHEMBL303979

>  <Standard Type>  (2340) 
Ki

>  <Standard Value>  (2340) 
25.12

>  <label>  (2340) 
1

$$$$
CHEMBL11388
     RDKit          3D

  0  0  0  0  0  0  0  0  0  0999 V3000
M  V30 BEGIN CTAB
M  V30 COUNTS 42 44 0 0 1
M  V30 BEGIN ATOM
M  V30 1 C 11.798481 9.537039 -5.907376 0
M  V30 2 C 10.654085 8.956255 -6.747552 0
M  V30 3 C 11.140775 8.101061 -7.931147 0
M  V30 4 N 10.025573 7.701365 -8.826670 0 CFG=2 CHG=1
M  V30 5 C 8.990367 6.847191 -8.186530 0
M  V30 6 C 8.555453 5.813661 -9.238981 0
M  V30 7 C 9.167377 6.317354 -10.537243 0 CFG=2
M  V30 8 C 9.446800 5.297729 -11.648223 0
M  V30 9 C 10.485933 5.786444 -12.662131 0
M  V30 10 C 11.244101 6.972439 -12.435390 0
M  V30 11 C 12.219304 7.368580 -13.374614 0
M  V30 12 C 12.441743 6.601721 -14.530867 0
M  V30 13 C 11.706926 5.423113 -14.748466 0
M  V30 14 C 10.732060 4.997931 -13.812067 0
M  V30 15 O 10.002930 3.835166 -13.949423 0
M  V30 16 C 10.352579 2.939741 -14.993358 0
M  V30 17 C 11.037476 7.818360 -11.180221 0
M  V30 18 C 10.437445 6.978086 -10.048461 0 CFG=1
M  V30 19 H 11.409128 10.183495 -5.119961 0
M  V30 20 H 12.481153 10.132424 -6.515404 0
M  V30 21 H 12.378058 8.749805 -5.426181 0
M  V30 22 H 10.003386 8.370433 -6.097640 0
M  V30 23 H 10.044840 9.772473 -7.126273 0
M  V30 24 H 11.864797 8.676001 -8.510473 0
M  V30 25 H 11.663858 7.215007 -7.567185 0
M  V30 26 H 9.378531 6.329607 -7.307610 0
M  V30 27 H 8.154225 7.467535 -7.857055 0
M  V30 28 H 8.926279 4.820662 -8.981847 0
M  V30 29 H 7.477883 5.772486 -9.324629 0
M  V30 30 H 8.513040 7.090859 -10.946154 0
M  V30 31 H 9.821384 4.369316 -11.215247 0
M  V30 32 H 8.516581 5.048654 -12.160849 0
M  V30 33 H 12.825996 8.245602 -13.207297 0
M  V30 34 H 13.194039 6.907802 -15.242988 0
M  V30 35 H 11.918300 4.855909 -15.641683 0
M  V30 36 H 9.748933 2.036517 -14.906194 0
M  V30 37 H 11.399822 2.641161 -14.929937 0
M  V30 38 H 10.157911 3.375647 -15.973850 0
M  V30 39 H 11.986610 8.258574 -10.872489 0
M  V30 40 H 10.366538 8.639123 -11.434072 0
M  V30 41 H 11.144860 6.202233 -9.754273 0
M  V30 42 H 9.543770 8.534154 -9.136090 0
M  V30 END ATOM
M  V30 BEGIN BOND
M  V30 1 1 2 1
M  V30 2 1 3 2
M  V30 3 1 4 3
M  V30 4 1 5 4
M  V30 5 1 6 5
M  V30 6 1 7 6
M  V30 7 1 8 7
M  V30 8 1 9 8
M  V30 9 2 10 9
M  V30 10 1 11 10
M  V30 11 2 12 11
M  V30 12 1 13 12
M  V30 13 1 14 9
M  V30 14 2 14 13
M  V30 15 1 15 14
M  V30 16 1 16 15
M  V30 17 1 17 10
M  V30 18 1 18 4
M  V30 19 1 18 7
M  V30 20 1 18 17
M  V30 21 1 19 1
M  V30 22 1 20 1
M  V30 23 1 21 1
M  V30 24 1 22 2
M  V30 25 1 23 2
M  V30 26 1 24 3
M  V30 27 1 25 3
M  V30 28 1 26 5
M  V30 29 1 27 5
M  V30 30 1 28 6
M  V30 31 1 29 6
M  V30 32 1 7 30 CFG=3
M  V30 33 1 31 8
M  V30 34 1 32 8
M  V30 35 1 33 11
M  V30 36 1 34 12
M  V30 37 1 35 13
M  V30 38 1 36 16
M  V30 39 1 37 16
M  V30 40 1 38 16
M  V30 41 1 39 17
M  V30 42 1 40 17
M  V30 43 1 18 41 CFG=1
M  V30 44 1 4 42 CFG=3
M  V30 END BOND
M  V30 END CTAB
M  END
>  <b_m_subgroup_collapsed>  (2341) 
0

>  <r_i_docking_score>  (2341) 
-5.8043434723526204

>  <s_m_subgroup_title>  (2341) 
glide-dock_SP_D22_pv

>  <s_m_subgroupid>  (2341) 
glide-dock_SP_D22_pv

>  <Molecule ChEMBL ID>  (2341) 
CHEMBL11388

>  <Standard Type>  (2341) 
Ki

>  <Standard Value>  (2341) 
75.0

>  <label>  (2341) 
1

$$$$
CHEMBL4462820
     RDKit          3D

  0  0  0  0  0  0  0  0  0  0999 V3000
M  V30 BEGIN CTAB
M  V30 COUNTS 29 31 0 0 1
M  V30 BEGIN ATOM
M  V30 1 C 11.428823 6.630010 -4.084631 0
M  V30 2 C 10.619198 6.658394 -5.392346 0
M  V30 3 N 10.908251 7.809357 -6.229727 0
M  V30 4 C 11.474327 8.957643 -5.825991 0
M  V30 5 N 11.684713 9.834188 -6.785457 0
M  V30 6 C 11.174444 9.214703 -7.921782 0
M  V30 7 C 10.649653 7.985846 -7.597150 0
M  V30 8 C 9.937036 7.023370 -8.445852 0
M  V30 9 C 8.930993 6.175449 -8.045898 0
M  V30 10 N 8.486077 5.425196 -9.114134 0
M  V30 11 C 9.152326 5.778357 -10.261358 0
M  V30 12 C 9.034473 5.314225 -11.583061 0
M  V30 13 C 9.881660 5.831122 -12.576366 0
M  V30 14 C 10.832846 6.812051 -12.241267 0
M  V30 15 Br 12.086115 7.372247 -13.562399 0
M  V30 16 C 10.915978 7.303555 -10.914209 0
M  V30 17 F 11.864925 8.223143 -10.621977 0
M  V30 18 C 10.084326 6.791586 -9.876884 0
M  V30 19 H 11.168256 5.772454 -3.473841 0
M  V30 20 H 12.486094 6.565943 -4.304031 0
M  V30 21 H 11.286027 7.512027 -3.462353 0
M  V30 22 H 9.553597 6.635448 -5.178088 0
M  V30 23 H 10.855752 5.772340 -5.976079 0
M  V30 24 H 11.776586 9.162850 -4.810728 0
M  V30 25 H 11.179872 9.727331 -8.872385 0
M  V30 26 H 8.457087 6.064649 -7.082002 0
M  V30 27 H 7.700138 4.789574 -9.056409 0
M  V30 28 H 8.309256 4.551691 -11.826078 0
M  V30 29 H 9.823955 5.456605 -13.587915 0
M  V30 END ATOM
M  V30 BEGIN BOND
M  V30 1 1 2 1
M  V30 2 1 3 2
M  V30 3 1 4 3
M  V30 4 2 5 4
M  V30 5 1 6 5
M  V30 6 1 7 3
M  V30 7 2 7 6
M  V30 8 1 8 7
M  V30 9 2 9 8
M  V30 10 1 10 9
M  V30 11 1 11 10
M  V30 12 1 12 11
M  V30 13 2 13 12
M  V30 14 1 14 13
M  V30 15 1 15 14
M  V30 16 2 16 14
M  V30 17 1 17 16
M  V30 18 1 18 8
M  V30 19 2 18 11
M  V30 20 1 18 16
M  V30 21 1 19 1
M  V30 22 1 20 1
M  V30 23 1 21 1
M  V30 24 1 22 2
M  V30 25 1 23 2
M  V30 26 1 24 4
M  V30 27 1 25 6
M  V30 28 1 26 9
M  V30 29 1 27 10
M  V30 30 1 28 12
M  V30 31 1 29 13
M  V30 END BOND
M  V30 END CTAB
M  END
>  <b_m_subgroup_collapsed>  (2342) 
0

>  <r_i_docking_score>  (2342) 
-5.8013246373634697

>  <s_m_subgroup_title>  (2342) 
glide-dock_SP_D22_pv

>  <s_m_subgroupid>  (2342) 
glide-dock_SP_D22_pv

>  <Molecule ChEMBL ID>  (2342) 
CHEMBL4462820

>  <Standard Type>  (2342) 
Ki

>  <Standard Value>  (2342) 
10000.0

>  <label>  (2342) 
0

$$$$
CHEMBL4592085
     RDKit          3D

  0  0  0  0  0  0  0  0  0  0999 V3000
M  V30 BEGIN CTAB
M  V30 COUNTS 47 50 0 0 1
M  V30 BEGIN ATOM
M  V30 1 C 5.077758 1.636415 -13.264818 0
M  V30 2 O 4.970903 3.036677 -13.046674 0
M  V30 3 C 6.140214 3.759972 -13.007133 0
M  V30 4 C 6.143395 4.941058 -12.247330 0
M  V30 5 C 7.314126 5.696553 -12.115168 0
M  V30 6 C 8.505734 5.261233 -12.710129 0
M  V30 7 C 8.545222 4.081280 -13.502288 0
M  V30 8 C 7.330924 3.370657 -13.667473 0
M  V30 9 C 9.894484 3.898527 -13.960298 0
M  V30 10 C 10.300530 2.777471 -14.804189 0
M  V30 11 C 9.849247 1.471874 -14.804234 0
M  V30 12 N 10.482829 0.844782 -15.860423 0
M  V30 13 C 11.279086 1.754140 -16.427647 0
M  V30 14 N 12.085172 1.497494 -17.562992 0
M  V30 15 C 12.085408 0.396857 -18.337057 0
M  V30 16 C 13.092131 0.389391 -19.480986 0
M  V30 17 O 11.344278 -0.573266 -18.176256 0
M  V30 18 N 11.243316 2.937515 -15.827991 0
M  V30 19 C 10.619395 4.945656 -13.446706 0
M  V30 20 N 9.796187 5.761409 -12.675597 0
M  V30 21 S 10.301215 7.211659 -11.873812 0
M  V30 22 O 9.312887 8.235427 -12.246408 0
M  V30 23 O 11.720111 7.372198 -12.231282 0
M  V30 24 C 10.200767 6.948920 -10.103092 0
M  V30 25 C 10.852944 7.881153 -9.269318 0
M  V30 26 C 10.761257 7.757381 -7.869176 0
M  V30 27 C 10.010283 6.706728 -7.306535 0
M  V30 28 C 9.366686 5.772596 -8.143173 0
M  V30 29 C 9.471389 5.881351 -9.540420 0
M  V30 30 H 4.085685 1.192221 -13.206505 0
M  V30 31 H 5.476077 1.388161 -14.246819 0
M  V30 32 H 5.697635 1.167237 -12.499806 0
M  V30 33 H 5.262708 5.258058 -11.714672 0
M  V30 34 H 7.307588 6.572258 -11.490639 0
M  V30 35 H 7.347149 2.485112 -14.280219 0
M  V30 36 H 9.140483 0.962915 -14.167735 0
M  V30 37 H 14.104836 0.512404 -19.097422 0
M  V30 38 H 13.047711 -0.554171 -20.026215 0
M  V30 39 H 12.721287 2.237872 -17.815460 0
M  V30 40 H 11.668226 5.174232 -13.571220 0
M  V30 41 H 11.411664 8.697317 -9.705557 0
M  V30 42 H 11.254988 8.473988 -7.228332 0
M  V30 43 H 9.923398 6.615434 -6.233303 0
M  V30 44 H 8.782863 4.971827 -7.718326 0
M  V30 45 H 8.974553 5.146383 -10.150331 0
M  V30 46 H 12.882920 1.197663 -20.181320 0
M  V30 47 H 10.358644 -0.108470 -16.176846 0
M  V30 END ATOM
M  V30 BEGIN BOND
M  V30 1 1 2 1
M  V30 2 1 3 2
M  V30 3 1 4 3
M  V30 4 2 5 4
M  V30 5 1 6 5
M  V30 6 2 7 6
M  V30 7 2 8 3
M  V30 8 1 8 7
M  V30 9 1 9 7
M  V30 10 1 10 9
M  V30 11 2 11 10
M  V30 12 1 12 11
M  V30 13 1 13 12
M  V30 14 1 14 13
M  V30 15 1 15 14
M  V30 16 1 16 15
M  V30 17 2 17 15
M  V30 18 1 18 10
M  V30 19 2 18 13
M  V30 20 2 19 9
M  V30 21 1 20 6
M  V30 22 1 20 19
M  V30 23 1 21 20
M  V30 24 2 22 21
M  V30 25 2 23 21
M  V30 26 1 24 21
M  V30 27 2 25 24
M  V30 28 1 26 25
M  V30 29 2 27 26
M  V30 30 1 28 27
M  V30 31 1 29 24
M  V30 32 2 29 28
M  V30 33 1 30 1
M  V30 34 1 31 1
M  V30 35 1 32 1
M  V30 36 1 33 4
M  V30 37 1 34 5
M  V30 38 1 35 8
M  V30 39 1 36 11
M  V30 40 1 37 16
M  V30 41 1 38 16
M  V30 42 1 39 14
M  V30 43 1 40 19
M  V30 44 1 41 25
M  V30 45 1 42 26
M  V30 46 1 43 27
M  V30 47 1 44 28
M  V30 48 1 45 29
M  V30 49 1 46 16
M  V30 50 1 47 12
M  V30 END BOND
M  V30 END CTAB
M  END
>  <b_m_subgroup_collapsed>  (2343) 
0

>  <r_i_docking_score>  (2343) 
-5.7990262542327997

>  <s_m_subgroup_title>  (2343) 
glide-dock_SP_D22_pv

>  <s_m_subgroupid>  (2343) 
glide-dock_SP_D22_pv

>  <Molecule ChEMBL ID>  (2343) 
CHEMBL4592085

>  <Standard Type>  (2343) 
Ki

>  <Standard Value>  (2343) 
10000.0

>  <label>  (2343) 
0

$$$$
CHEMBL493369
     RDKit          3D

  0  0  0  0  0  0  0  0  0  0999 V3000
M  V30 BEGIN CTAB
M  V30 COUNTS 46 47 0 0 1
M  V30 BEGIN ATOM
M  V30 1 C 8.886008 8.450042 -7.822299 0
M  V30 2 N 10.320398 8.427374 -8.113891 0
M  V30 3 C 10.551116 7.521124 -9.243792 0
M  V30 4 C 9.960431 8.015053 -10.578712 0
M  V30 5 C 10.182315 6.992862 -11.675751 0
M  V30 6 C 9.219588 5.990510 -11.908360 0
M  V30 7 C 9.434915 5.023484 -12.908768 0
M  V30 8 C 10.603954 5.046156 -13.697649 0
M  V30 9 O 10.731251 4.064358 -14.657924 0
M  V30 10 C 11.591756 4.219204 -15.700067 0
M  V30 11 F 12.885919 4.172288 -15.301191 0
M  V30 12 F 11.413443 3.210171 -16.586382 0
M  V30 13 F 11.366878 5.377218 -16.369932 0
M  V30 14 C 11.571059 6.053771 -13.453781 0
M  V30 15 C 11.358956 7.017510 -12.449890 0
M  V30 16 C 11.060007 7.901865 -6.965859 0
M  V30 17 C 11.093207 8.890697 -5.777882 0
M  V30 18 N 11.918775 8.411914 -4.639459 0 CHG=1
M  V30 19 C 11.841100 9.271109 -3.438403 0
M  V30 20 C 12.271395 8.392847 -2.262222 0
M  V30 21 C 12.085430 6.943743 -2.729939 0
M  V30 22 C 11.641368 7.026318 -4.192867 0
M  V30 23 H 8.641161 8.972965 -6.902331 0
M  V30 24 H 8.342783 8.970757 -8.608672 0
M  V30 25 H 8.484589 7.440104 -7.736591 0
M  V30 26 H 10.151894 6.532254 -9.008717 0
M  V30 27 H 11.625369 7.392110 -9.384969 0
M  V30 28 H 10.408625 8.968741 -10.863103 0
M  V30 29 H 8.886284 8.187418 -10.509771 0
M  V30 30 H 8.313770 5.960514 -11.317931 0
M  V30 31 H 8.691343 4.257984 -13.075708 0
M  V30 32 H 12.487718 6.110423 -14.020476 0
M  V30 33 H 12.110879 7.771551 -12.270534 0
M  V30 34 H 10.632082 6.942144 -6.671826 0
M  V30 35 H 12.086195 7.705801 -7.273679 0
M  V30 36 H 11.486913 9.853099 -6.109158 0
M  V30 37 H 10.086241 9.079405 -5.416005 0
M  V30 38 H 12.451781 10.170841 -3.528182 0
M  V30 39 H 10.813419 9.596057 -3.284043 0
M  V30 40 H 13.315602 8.582553 -2.017668 0
M  V30 41 H 11.690239 8.612606 -1.366693 0
M  V30 42 H 13.021165 6.390611 -2.646090 0
M  V30 43 H 11.344840 6.415417 -2.127372 0
M  V30 44 H 10.577526 6.799521 -4.261857 0
M  V30 45 H 12.148564 6.293030 -4.818789 0
M  V30 46 H 12.884394 8.428914 -4.935698 0
M  V30 END ATOM
M  V30 BEGIN BOND
M  V30 1 1 2 1
M  V30 2 1 3 2
M  V30 3 1 4 3
M  V30 4 1 5 4
M  V30 5 1 6 5
M  V30 6 2 7 6
M  V30 7 1 8 7
M  V30 8 1 9 8
M  V30 9 1 10 9
M  V30 10 1 11 10
M  V30 11 1 12 10
M  V30 12 1 13 10
M  V30 13 2 14 8
M  V30 14 2 15 5
M  V30 15 1 15 14
M  V30 16 1 16 2
M  V30 17 1 17 16
M  V30 18 1 18 17
M  V30 19 1 19 18
M  V30 20 1 20 19
M  V30 21 1 21 20
M  V30 22 1 22 18
M  V30 23 1 22 21
M  V30 24 1 23 1
M  V30 25 1 24 1
M  V30 26 1 25 1
M  V30 27 1 26 3
M  V30 28 1 27 3
M  V30 29 1 28 4
M  V30 30 1 29 4
M  V30 31 1 30 6
M  V30 32 1 31 7
M  V30 33 1 32 14
M  V30 34 1 33 15
M  V30 35 1 34 16
M  V30 36 1 35 16
M  V30 37 1 36 17
M  V30 38 1 37 17
M  V30 39 1 38 19
M  V30 40 1 39 19
M  V30 41 1 40 20
M  V30 42 1 41 20
M  V30 43 1 42 21
M  V30 44 1 43 21
M  V30 45 1 44 22
M  V30 46 1 45 22
M  V30 47 1 46 18
M  V30 END BOND
M  V30 END CTAB
M  END
>  <b_m_subgroup_collapsed>  (2344) 
0

>  <r_i_docking_score>  (2344) 
-5.7989009580696198

>  <s_m_subgroup_title>  (2344) 
glide-dock_SP_D22_pv

>  <s_m_subgroupid>  (2344) 
glide-dock_SP_D22_pv

>  <Molecule ChEMBL ID>  (2344) 
CHEMBL493369

>  <Standard Type>  (2344) 
Ki

>  <Standard Value>  (2344) 
10000.0

>  <label>  (2344) 
0

$$$$
CHEMBL76475
     RDKit          3D

  0  0  0  0  0  0  0  0  0  0999 V3000
M  V30 BEGIN CTAB
M  V30 COUNTS 49 50 0 0 1
M  V30 BEGIN ATOM
M  V30 1 C 6.894241 1.869326 -14.523687 0
M  V30 2 C 6.382643 2.786731 -13.434646 0
M  V30 3 C 6.565696 4.117297 -13.422299 0
M  V30 4 C 6.120348 5.056940 -12.313195 0
M  V30 5 N 7.270053 5.772237 -11.697468 0 CFG=2 CHG=1
M  V30 6 C 7.896862 6.772510 -12.598160 0
M  V30 7 C 8.952383 7.597170 -11.846148 0
M  V30 8 C 10.028177 6.681154 -11.243513 0 CFG=1
M  V30 9 C 11.130453 7.499449 -10.550479 0
M  V30 10 O 10.757555 7.784661 -9.214474 0
M  V30 11 C 11.158179 9.070751 -8.790039 0
M  V30 12 C 11.382366 9.142348 -7.295082 0
M  V30 13 C 11.282352 8.105325 -6.441900 0
M  V30 14 C 11.547559 8.155126 -4.995028 0
M  V30 15 C 11.685865 6.945493 -4.283673 0
M  V30 16 C 12.037908 6.943697 -2.920464 0
M  V30 17 C 12.240429 8.162053 -2.248774 0
M  V30 18 C 12.085872 9.372856 -2.942370 0
M  V30 19 C 11.742355 9.373466 -4.305012 0
M  V30 20 C 9.348839 5.647938 -10.319384 0
M  V30 21 C 8.259131 4.861289 -11.061849 0
M  V30 22 H 6.085262 1.273010 -14.939810 0
M  V30 23 H 7.355597 2.432285 -15.334253 0
M  V30 24 H 7.640075 1.185101 -14.116119 0
M  V30 25 H 5.859936 2.312057 -12.617167 0
M  V30 26 H 7.085056 4.573215 -14.247332 0
M  V30 27 H 5.587236 4.498606 -11.542756 0
M  V30 28 H 5.415278 5.780615 -12.723086 0
M  V30 29 H 7.130386 7.440993 -12.992460 0
M  V30 30 H 8.362785 6.273159 -13.447002 0
M  V30 31 H 8.486170 8.184423 -11.054292 0
M  V30 32 H 9.403909 8.317195 -12.527362 0
M  V30 33 H 10.494408 6.147381 -12.071093 0
M  V30 34 H 11.316102 8.404247 -11.129362 0
M  V30 35 H 12.079220 6.969019 -10.525349 0
M  V30 36 H 10.383407 9.772012 -9.087503 0
M  V30 37 H 12.089242 9.372050 -9.266395 0
M  V30 38 H 11.662291 10.119475 -6.933959 0
M  V30 39 H 10.993191 7.140458 -6.832228 0
M  V30 40 H 11.548096 6.002447 -4.793460 0
M  V30 41 H 12.151616 6.008087 -2.392871 0
M  V30 42 H 12.504662 8.173275 -1.202486 0
M  V30 43 H 12.219893 10.311263 -2.424108 0
M  V30 44 H 11.634254 10.322118 -4.805373 0
M  V30 45 H 10.085252 4.958007 -9.906334 0
M  V30 46 H 8.890224 6.149757 -9.465098 0
M  V30 47 H 7.742661 4.198089 -10.365710 0
M  V30 48 H 8.726789 4.227782 -11.815874 0
M  V30 49 H 6.882423 6.352362 -10.950876 0
M  V30 END ATOM
M  V30 BEGIN BOND
M  V30 1 1 2 1
M  V30 2 2 3 2
M  V30 3 1 4 3
M  V30 4 1 5 4
M  V30 5 1 6 5
M  V30 6 1 7 6
M  V30 7 1 8 7
M  V30 8 1 9 8
M  V30 9 1 10 9
M  V30 10 1 11 10
M  V30 11 1 12 11
M  V30 12 2 13 12
M  V30 13 1 14 13
M  V30 14 2 15 14
M  V30 15 1 16 15
M  V30 16 2 17 16
M  V30 17 1 18 17
M  V30 18 1 19 14
M  V30 19 2 19 18
M  V30 20 1 20 8
M  V30 21 1 21 5
M  V30 22 1 21 20
M  V30 23 1 22 1
M  V30 24 1 23 1
M  V30 25 1 24 1
M  V30 26 1 25 2
M  V30 27 1 26 3
M  V30 28 1 27 4
M  V30 29 1 28 4
M  V30 30 1 29 6
M  V30 31 1 30 6
M  V30 32 1 31 7
M  V30 33 1 32 7
M  V30 34 1 8 33 CFG=3
M  V30 35 1 34 9
M  V30 36 1 35 9
M  V30 37 1 36 11
M  V30 38 1 37 11
M  V30 39 1 38 12
M  V30 40 1 39 13
M  V30 41 1 40 15
M  V30 42 1 41 16
M  V30 43 1 42 17
M  V30 44 1 43 18
M  V30 45 1 44 19
M  V30 46 1 45 20
M  V30 47 1 46 20
M  V30 48 1 47 21
M  V30 49 1 48 21
M  V30 50 1 5 49 CFG=1
M  V30 END BOND
M  V30 END CTAB
M  END
>  <b_m_subgroup_collapsed>  (2345) 
0

>  <r_i_docking_score>  (2345) 
-5.7976169554294996

>  <s_m_subgroup_title>  (2345) 
glide-dock_SP_D22_pv

>  <s_m_subgroupid>  (2345) 
glide-dock_SP_D22_pv

>  <Molecule ChEMBL ID>  (2345) 
CHEMBL76475

>  <Standard Type>  (2345) 
Ki

>  <Standard Value>  (2345) 
10000.0

>  <label>  (2345) 
0

$$$$
CHEMBL231349
     RDKit          3D

  0  0  0  0  0  0  0  0  0  0999 V3000
M  V30 BEGIN CTAB
M  V30 COUNTS 63 66 0 0 1
M  V30 BEGIN ATOM
M  V30 1 C 5.403016 2.466456 -12.423604 0
M  V30 2 C 5.703338 3.980106 -12.457948 0
M  V30 3 C 5.158225 4.737638 -13.677033 0
M  V30 4 O 7.056599 4.337649 -12.163664 0
M  V30 5 C 8.090001 4.176483 -13.071618 0
M  V30 6 C 8.038177 3.348897 -14.215885 0
M  V30 7 C 9.142912 3.198485 -15.080656 0
M  V30 8 C 10.343548 3.901263 -14.798265 0
M  V30 9 C 10.390995 4.734534 -13.660927 0
M  V30 10 C 9.276660 4.892497 -12.814876 0
M  V30 11 N 9.315194 5.757541 -11.717410 0
M  V30 12 S 9.953315 7.374095 -11.650748 0
M  V30 13 O 8.883468 8.265882 -12.122746 0
M  V30 14 O 11.265210 7.349090 -12.316602 0
M  V30 15 C 10.221133 7.644367 -9.910244 0
M  V30 16 C 11.393807 8.308802 -9.508125 0
M  V30 17 C 11.659275 8.476130 -8.137915 0
M  V30 18 C 10.762840 7.982564 -7.166922 0
M  V30 19 C 11.096107 8.122130 -5.748094 0
M  V30 20 C 11.286411 9.401502 -5.183274 0
M  V30 21 C 11.686403 9.532468 -3.842604 0
M  V30 22 C 11.933773 8.387895 -3.066160 0
M  V30 23 Cl 12.486114 8.572496 -1.448991 0
M  V30 24 C 11.722715 7.105965 -3.610683 0
M  V30 25 C 11.286893 6.977009 -4.943182 0
M  V30 26 C 9.575987 7.339842 -7.584463 0
M  V30 27 C 9.299653 7.170669 -8.954897 0
M  V30 28 C 11.602859 3.836489 -15.654787 0
M  V30 29 C 11.373208 3.647353 -17.160189 0
M  V30 30 N 11.121581 2.239835 -17.561747 0 CFG=1 CHG=1
M  V30 31 C 12.368799 1.484609 -17.804327 0
M  V30 32 C 10.194649 1.478068 -16.690369 0
M  V30 33 C 8.950926 2.269764 -16.274317 0
M  V30 34 H 4.337178 2.289025 -12.566456 0
M  V30 35 H 5.915287 1.882457 -13.177868 0
M  V30 36 H 5.684022 2.048821 -11.458021 0
M  V30 37 H 5.155915 4.390464 -11.608068 0
M  V30 38 H 4.093280 4.569931 -13.832945 0
M  V30 39 H 5.285907 5.807961 -13.511812 0
M  V30 40 H 5.657756 4.470237 -14.605718 0
M  V30 41 H 7.141174 2.816597 -14.472089 0
M  V30 42 H 11.309384 5.253612 -13.442406 0
M  V30 43 H 8.460260 5.675528 -11.181314 0
M  V30 44 H 12.095187 8.678565 -10.242363 0
M  V30 45 H 12.573366 8.968955 -7.835298 0
M  V30 46 H 11.131002 10.284645 -5.786544 0
M  V30 47 H 11.813257 10.513045 -3.407704 0
M  V30 48 H 11.896936 6.225565 -3.009578 0
M  V30 49 H 11.142544 5.991131 -5.360716 0
M  V30 50 H 8.871825 6.967742 -6.852147 0
M  V30 51 H 8.389856 6.675342 -9.263140 0
M  V30 52 H 12.141632 4.775116 -15.523564 0
M  V30 53 H 12.262932 3.066726 -15.260516 0
M  V30 54 H 12.242512 4.015450 -17.705036 0
M  V30 55 H 10.545426 4.279089 -17.485191 0
M  V30 56 H 12.915837 1.372317 -16.870975 0
M  V30 57 H 12.154885 0.487589 -18.192511 0
M  V30 58 H 13.010769 1.991539 -18.525930 0
M  V30 59 H 10.706067 1.097490 -15.804613 0
M  V30 60 H 9.877619 0.598772 -17.253010 0
M  V30 61 H 8.179344 1.542433 -16.012304 0
M  V30 62 H 8.547195 2.834558 -17.113701 0
M  V30 63 H 10.666874 2.303270 -18.461151 0
M  V30 END ATOM
M  V30 BEGIN BOND
M  V30 1 1 2 1
M  V30 2 1 3 2
M  V30 3 1 4 2
M  V30 4 1 5 4
M  V30 5 1 6 5
M  V30 6 2 7 6
M  V30 7 1 8 7
M  V30 8 2 9 8
M  V30 9 2 10 5
M  V30 10 1 10 9
M  V30 11 1 11 10
M  V30 12 1 12 11
M  V30 13 2 13 12
M  V30 14 2 14 12
M  V30 15 1 15 12
M  V30 16 1 16 15
M  V30 17 2 17 16
M  V30 18 1 18 17
M  V30 19 1 19 18
M  V30 20 1 20 19
M  V30 21 2 21 20
M  V30 22 1 22 21
M  V30 23 1 23 22
M  V30 24 2 24 22
M  V30 25 2 25 19
M  V30 26 1 25 24
M  V30 27 2 26 18
M  V30 28 2 27 15
M  V30 29 1 27 26
M  V30 30 1 28 8
M  V30 31 1 29 28
M  V30 32 1 30 29
M  V30 33 1 31 30
M  V30 34 1 32 30
M  V30 35 1 33 7
M  V30 36 1 33 32
M  V30 37 1 34 1
M  V30 38 1 35 1
M  V30 39 1 36 1
M  V30 40 1 37 2
M  V30 41 1 38 3
M  V30 42 1 39 3
M  V30 43 1 40 3
M  V30 44 1 41 6
M  V30 45 1 42 9
M  V30 46 1 43 11
M  V30 47 1 44 16
M  V30 48 1 45 17
M  V30 49 1 46 20
M  V30 50 1 47 21
M  V30 51 1 48 24
M  V30 52 1 49 25
M  V30 53 1 50 26
M  V30 54 1 51 27
M  V30 55 1 52 28
M  V30 56 1 53 28
M  V30 57 1 54 29
M  V30 58 1 55 29
M  V30 59 1 56 31
M  V30 60 1 57 31
M  V30 61 1 58 31
M  V30 62 1 59 32
M  V30 63 1 60 32
M  V30 64 1 61 33
M  V30 65 1 62 33
M  V30 66 1 30 63 CFG=3
M  V30 END BOND
M  V30 END CTAB
M  END
>  <b_m_subgroup_collapsed>  (2346) 
0

>  <r_i_docking_score>  (2346) 
-5.7964779901461903

>  <s_m_subgroup_title>  (2346) 
glide-dock_SP_D22_pv

>  <s_m_subgroupid>  (2346) 
glide-dock_SP_D22_pv

>  <Molecule ChEMBL ID>  (2346) 
CHEMBL231349

>  <Standard Type>  (2346) 
Ki

>  <Standard Value>  (2346) 
6.31

>  <label>  (2346) 
1

$$$$
CHEMBL396561
     RDKit          3D

  0  0  0  0  0  0  0  0  0  0999 V3000
M  V30 BEGIN CTAB
M  V30 COUNTS 49 52 0 0 1
M  V30 BEGIN ATOM
M  V30 1 C 5.504404 0.972304 -18.969883 0
M  V30 2 O 6.843461 1.372894 -19.241070 0
M  V30 3 C 7.727155 1.433829 -18.185543 0
M  V30 4 C 7.370202 1.184569 -16.840721 0
M  V30 5 C 8.331136 1.295081 -15.822163 0
M  V30 6 C 9.664919 1.649309 -16.112722 0
M  V30 7 C 10.043180 1.882972 -17.462893 0
M  V30 8 C 9.062768 1.775813 -18.477686 0
M  V30 9 C 11.468599 2.230274 -17.884153 0
M  V30 10 C 11.633588 3.673834 -18.387171 0
M  V30 11 N 11.180463 4.702072 -17.408546 0 CFG=2 CHG=1
M  V30 12 C 10.454425 5.799940 -18.094669 0
M  V30 13 C 12.265550 5.228584 -16.531710 0
M  V30 14 C 12.550500 4.349427 -15.301323 0
M  V30 15 C 11.367295 4.203701 -14.390050 0
M  V30 16 C 10.559395 3.097170 -14.267423 0
M  V30 17 N 9.577157 3.373587 -13.332624 0
M  V30 18 C 9.726689 4.637008 -12.804454 0
M  V30 19 C 8.997982 5.345001 -11.832637 0
M  V30 20 C 9.420518 6.633500 -11.461329 0
M  V30 21 C 10.567415 7.189109 -12.058324 0
M  V30 22 C 11.282029 6.476163 -13.046421 0
M  V30 23 C 10.876496 5.179845 -13.448705 0
M  V30 24 C 10.626809 1.758902 -14.937583 0
M  V30 25 H 4.937687 0.943158 -19.898884 0
M  V30 26 H 5.004365 1.675477 -18.304335 0
M  V30 27 H 5.467071 -0.025765 -18.531738 0
M  V30 28 H 6.364711 0.908665 -16.562757 0
M  V30 29 H 8.034471 1.101148 -14.801890 0
M  V30 30 H 9.339170 1.950932 -19.508055 0
M  V30 31 H 12.210094 2.004178 -17.125822 0
M  V30 32 H 11.730614 1.557525 -18.703789 0
M  V30 33 H 12.666199 3.849528 -18.694603 0
M  V30 34 H 11.048970 3.758129 -19.303734 0
M  V30 35 H 11.102366 6.314774 -18.807051 0
M  V30 36 H 10.086583 6.537438 -17.384607 0
M  V30 37 H 9.589067 5.412122 -18.633688 0
M  V30 38 H 13.182617 5.382169 -17.104351 0
M  V30 39 H 11.987161 6.215827 -16.161858 0
M  V30 40 H 12.928480 3.375550 -15.604862 0
M  V30 41 H 13.366494 4.808235 -14.740947 0
M  V30 42 H 8.896890 2.690163 -13.033008 0
M  V30 43 H 8.128386 4.908077 -11.365746 0
M  V30 44 H 8.862267 7.183040 -10.714437 0
M  V30 45 H 10.892539 8.171924 -11.758042 0
M  V30 46 H 12.161824 6.918586 -13.490391 0
M  V30 47 H 10.357664 0.984620 -14.218285 0
M  V30 48 H 11.648573 1.508971 -15.206889 0
M  V30 49 H 10.505141 4.255425 -16.802637 0
M  V30 END ATOM
M  V30 BEGIN BOND
M  V30 1 1 2 1
M  V30 2 1 3 2
M  V30 3 1 4 3
M  V30 4 2 5 4
M  V30 5 1 6 5
M  V30 6 2 7 6
M  V30 7 2 8 3
M  V30 8 1 8 7
M  V30 9 1 9 7
M  V30 10 1 10 9
M  V30 11 1 11 10
M  V30 12 1 12 11
M  V30 13 1 13 11
M  V30 14 1 14 13
M  V30 15 1 15 14
M  V30 16 2 16 15
M  V30 17 1 17 16
M  V30 18 1 18 17
M  V30 19 2 19 18
M  V30 20 1 20 19
M  V30 21 2 21 20
M  V30 22 1 22 21
M  V30 23 1 23 15
M  V30 24 1 23 18
M  V30 25 2 23 22
M  V30 26 1 24 6
M  V30 27 1 24 16
M  V30 28 1 25 1
M  V30 29 1 26 1
M  V30 30 1 27 1
M  V30 31 1 28 4
M  V30 32 1 29 5
M  V30 33 1 30 8
M  V30 34 1 31 9
M  V30 35 1 32 9
M  V30 36 1 33 10
M  V30 37 1 34 10
M  V30 38 1 35 12
M  V30 39 1 36 12
M  V30 40 1 37 12
M  V30 41 1 38 13
M  V30 42 1 39 13
M  V30 43 1 40 14
M  V30 44 1 41 14
M  V30 45 1 42 17
M  V30 46 1 43 19
M  V30 47 1 44 20
M  V30 48 1 45 21
M  V30 49 1 46 22
M  V30 50 1 47 24
M  V30 51 1 48 24
M  V30 52 1 11 49 CFG=1
M  V30 END BOND
M  V30 END CTAB
M  END
>  <b_m_subgroup_collapsed>  (2347) 
0

>  <r_i_docking_score>  (2347) 
-5.7907655510559604

>  <s_m_subgroup_title>  (2347) 
glide-dock_SP_D22_pv

>  <s_m_subgroupid>  (2347) 
glide-dock_SP_D22_pv

>  <Molecule ChEMBL ID>  (2347) 
CHEMBL396561

>  <Standard Type>  (2347) 
Ki

>  <Standard Value>  (2347) 
22.8

>  <label>  (2347) 
1

$$$$
CHEMBL4457754
     RDKit          3D

  0  0  0  0  0  0  0  0  0  0999 V3000
M  V30 BEGIN CTAB
M  V30 COUNTS 41 44 0 0 1
M  V30 BEGIN ATOM
M  V30 1 C 5.994810 5.779624 -12.551537 0
M  V30 2 C 7.096477 4.732059 -12.762243 0 CFG=1
M  V30 3 C 6.565703 3.618300 -13.686108 0
M  V30 4 N 7.563189 2.616300 -14.062686 0
M  V30 5 C 6.956915 1.473755 -14.615225 0
M  V30 6 C 6.886293 1.300538 -16.015663 0
M  V30 7 C 6.243933 0.171686 -16.561623 0
M  V30 8 C 5.667454 -0.789776 -15.709970 0
M  V30 9 C 5.743193 -0.630101 -14.314060 0
M  V30 10 C 6.383019 0.498985 -13.769850 0
M  V30 11 C 8.865012 3.074533 -14.368234 0
M  V30 12 C 9.786815 2.197538 -14.991999 0
M  V30 13 C 11.076753 2.629506 -15.347120 0
M  V30 14 C 11.472462 3.948989 -15.076139 0
M  V30 15 C 10.582027 4.823944 -14.430483 0
M  V30 16 C 9.291014 4.392867 -14.048519 0
M  V30 17 C 8.388274 5.370818 -13.299925 0 CFG=2
M  V30 18 C 9.043515 5.926750 -12.024091 0
M  V30 19 C 8.604727 4.974463 -10.910489 0
M  V30 20 N 7.474289 4.190712 -11.446585 0 CHG=1
M  V30 21 H 5.407650 5.954009 -13.448385 0
M  V30 22 H 5.292152 5.461362 -11.781475 0
M  V30 23 H 6.387837 6.748479 -12.247005 0
M  V30 24 H 6.175990 4.056705 -14.605630 0
M  V30 25 H 5.714324 3.132075 -13.205761 0
M  V30 26 H 7.316455 2.039247 -16.675014 0
M  V30 27 H 6.189760 0.042667 -17.632774 0
M  V30 28 H 5.179683 -1.659663 -16.126488 0
M  V30 29 H 5.316022 -1.384171 -13.673010 0
M  V30 30 H 6.443678 0.603876 -12.697319 0
M  V30 31 H 9.515544 1.175790 -15.212870 0
M  V30 32 H 11.761933 1.946945 -15.830027 0
M  V30 33 H 12.460627 4.286047 -15.354627 0
M  V30 34 H 10.904566 5.833704 -14.222484 0
M  V30 35 H 8.156134 6.170751 -13.998631 0
M  V30 36 H 10.124752 6.045318 -12.076791 0
M  V30 37 H 8.637693 6.917970 -11.810819 0
M  V30 38 H 9.413008 4.296465 -10.633220 0
M  V30 39 H 8.301948 5.522928 -10.016996 0
M  V30 40 H 7.793808 3.243614 -11.595338 0
M  V30 41 H 6.692876 4.200549 -10.798771 0
M  V30 END ATOM
M  V30 BEGIN BOND
M  V30 1 1 2 1 CFG=1
M  V30 2 1 3 2
M  V30 3 1 4 3
M  V30 4 1 5 4
M  V30 5 2 6 5
M  V30 6 1 7 6
M  V30 7 2 8 7
M  V30 8 1 9 8
M  V30 9 1 10 5
M  V30 10 2 10 9
M  V30 11 1 11 4
M  V30 12 2 12 11
M  V30 13 1 13 12
M  V30 14 2 14 13
M  V30 15 1 15 14
M  V30 16 1 16 11
M  V30 17 2 16 15
M  V30 18 1 17 2
M  V30 19 1 17 16
M  V30 20 1 18 17
M  V30 21 1 19 18
M  V30 22 1 20 2
M  V30 23 1 20 19
M  V30 24 1 21 1
M  V30 25 1 22 1
M  V30 26 1 23 1
M  V30 27 1 24 3
M  V30 28 1 25 3
M  V30 29 1 26 6
M  V30 30 1 27 7
M  V30 31 1 28 8
M  V30 32 1 29 9
M  V30 33 1 30 10
M  V30 34 1 31 12
M  V30 35 1 32 13
M  V30 36 1 33 14
M  V30 37 1 34 15
M  V30 38 1 17 35 CFG=3
M  V30 39 1 36 18
M  V30 40 1 37 18
M  V30 41 1 38 19
M  V30 42 1 39 19
M  V30 43 1 40 20
M  V30 44 1 41 20
M  V30 END BOND
M  V30 END CTAB
M  END
>  <b_m_subgroup_collapsed>  (2348) 
0

>  <r_i_docking_score>  (2348) 
-5.7895988800114102

>  <s_m_subgroup_title>  (2348) 
glide-dock_SP_D22_pv

>  <s_m_subgroupid>  (2348) 
glide-dock_SP_D22_pv

>  <Molecule ChEMBL ID>  (2348) 
CHEMBL4457754

>  <Standard Type>  (2348) 
Ki

>  <Standard Value>  (2348) 
10000.0

>  <label>  (2348) 
0

$$$$
CHEMBL2165673
     RDKit          3D

  0  0  0  0  0  0  0  0  0  0999 V3000
M  V30 BEGIN CTAB
M  V30 COUNTS 30 31 0 0 1
M  V30 BEGIN ATOM
M  V30 1 C 12.341690 8.273333 -2.574022 0
M  V30 2 N 11.685847 8.249287 -3.893620 0 CHG=1
M  V30 3 C 11.516603 6.876688 -4.426368 0
M  V30 4 C 10.754195 6.870005 -5.755509 0
M  V30 5 N 11.285688 7.844993 -6.704088 0
M  V30 6 C 11.151819 7.676652 -8.107963 0
M  V30 7 C 12.132847 8.280760 -8.929585 0
M  V30 8 C 12.092112 8.172851 -10.330301 0
M  V30 9 C 11.067672 7.444321 -10.949636 0
M  V30 10 C 10.091052 6.810439 -10.165458 0
M  V30 11 Cl 8.888390 5.859105 -10.965958 0
M  V30 12 C 10.119099 6.925690 -8.754463 0
M  V30 13 Cl 8.857062 6.135545 -7.883342 0
M  V30 14 C 11.463387 9.200579 -6.185993 0
M  V30 15 C 12.270946 9.189389 -4.873236 0
M  V30 16 H 13.302376 7.776811 -2.645620 0
M  V30 17 H 12.490377 9.291877 -2.212862 0
M  V30 18 H 11.735981 7.739402 -1.841745 0
M  V30 19 H 10.989216 6.256127 -3.700439 0
M  V30 20 H 12.485959 6.419204 -4.574408 0
M  V30 21 H 9.703184 7.091616 -5.565681 0
M  V30 22 H 10.818961 5.868320 -6.178792 0
M  V30 23 H 12.953488 8.831422 -8.493481 0
M  V30 24 H 12.856031 8.647320 -10.929476 0
M  V30 25 H 11.041043 7.354512 -12.025795 0
M  V30 26 H 11.944049 9.864735 -6.902822 0
M  V30 27 H 10.473668 9.622063 -6.005756 0
M  V30 28 H 12.240737 10.172350 -4.427289 0
M  V30 29 H 13.323902 8.972548 -5.046755 0
M  V30 30 H 10.750724 8.594318 -3.740780 0
M  V30 END ATOM
M  V30 BEGIN BOND
M  V30 1 1 2 1
M  V30 2 1 3 2
M  V30 3 1 4 3
M  V30 4 1 5 4
M  V30 5 1 6 5
M  V30 6 2 7 6
M  V30 7 1 8 7
M  V30 8 2 9 8
M  V30 9 1 10 9
M  V30 10 1 11 10
M  V30 11 1 12 6
M  V30 12 2 12 10
M  V30 13 1 13 12
M  V30 14 1 14 5
M  V30 15 1 15 2
M  V30 16 1 15 14
M  V30 17 1 16 1
M  V30 18 1 17 1
M  V30 19 1 18 1
M  V30 20 1 19 3
M  V30 21 1 20 3
M  V30 22 1 21 4
M  V30 23 1 22 4
M  V30 24 1 23 7
M  V30 25 1 24 8
M  V30 26 1 25 9
M  V30 27 1 26 14
M  V30 28 1 27 14
M  V30 29 1 28 15
M  V30 30 1 29 15
M  V30 31 1 30 2
M  V30 END BOND
M  V30 END CTAB
M  END
>  <b_m_subgroup_collapsed>  (2349) 
0

>  <r_i_docking_score>  (2349) 
-5.7890999943085104

>  <s_m_subgroup_title>  (2349) 
glide-dock_SP_D22_pv

>  <s_m_subgroupid>  (2349) 
glide-dock_SP_D22_pv

>  <Molecule ChEMBL ID>  (2349) 
CHEMBL2165673

>  <Standard Type>  (2349) 
Ki

>  <Standard Value>  (2349) 
45.9

>  <label>  (2349) 
1

$$$$
CHEMBL497340
     RDKit          3D

  0  0  0  0  0  0  0  0  0  0999 V3000
M  V30 BEGIN CTAB
M  V30 COUNTS 49 50 0 0 1
M  V30 BEGIN ATOM
M  V30 1 C 8.740765 6.172094 -7.280399 0
M  V30 2 C 8.885979 7.518040 -8.015323 0
M  V30 3 N 10.255967 7.909503 -8.380242 0
M  V30 4 C 10.725064 7.154987 -9.545842 0
M  V30 5 C 10.110698 7.663448 -10.866918 0
M  V30 6 C 10.485885 6.769398 -12.034534 0
M  V30 7 C 11.690728 6.972379 -12.737966 0
M  V30 8 C 12.045030 6.111885 -13.794825 0
M  V30 9 C 11.201095 5.042281 -14.148362 0
M  V30 10 C 9.987970 4.823337 -13.446491 0
M  V30 11 O 9.101960 3.797627 -13.710986 0
M  V30 12 C 9.403353 2.822565 -14.610990 0
M  V30 13 F 9.511646 3.313718 -15.870914 0
M  V30 14 F 10.545122 2.164147 -14.283170 0
M  V30 15 F 8.407519 1.903984 -14.632050 0
M  V30 16 C 9.642179 5.700517 -12.397969 0
M  V30 17 C 11.211431 7.787435 -7.278858 0
M  V30 18 C 10.805562 8.599517 -6.026118 0
M  V30 19 N 11.686727 8.296892 -4.877233 0 CHG=1
M  V30 20 C 11.556238 9.200320 -3.717782 0
M  V30 21 C 12.220058 8.458810 -2.551288 0
M  V30 22 C 12.253193 6.979826 -2.964831 0
M  V30 23 C 11.596636 6.919537 -4.344850 0
M  V30 24 H 7.688895 5.957857 -7.092538 0
M  V30 25 H 9.138246 5.337904 -7.856111 0
M  V30 26 H 9.228071 6.173153 -6.307526 0
M  V30 27 H 8.435552 8.305920 -7.412374 0
M  V30 28 H 8.272239 7.473354 -8.908370 0
M  V30 29 H 10.520929 6.092308 -9.414195 0
M  V30 30 H 11.809140 7.248960 -9.632514 0
M  V30 31 H 10.455043 8.678789 -11.060520 0
M  V30 32 H 9.023619 7.720527 -10.827158 0
M  V30 33 H 12.357537 7.774566 -12.462111 0
M  V30 34 H 12.973962 6.266556 -14.325985 0
M  V30 35 H 11.507745 4.400391 -14.959498 0
M  V30 36 H 8.722520 5.536996 -11.853980 0
M  V30 37 H 11.333039 6.731135 -7.042181 0
M  V30 38 H 12.186768 8.136136 -7.621416 0
M  V30 39 H 10.856826 9.665415 -6.254688 0
M  V30 40 H 9.779510 8.395343 -5.724788 0
M  V30 41 H 12.011710 10.172198 -3.907168 0
M  V30 42 H 10.502562 9.372211 -3.497370 0
M  V30 43 H 13.236384 8.825149 -2.398123 0
M  V30 44 H 11.685986 8.614245 -1.615237 0
M  V30 45 H 13.286539 6.640208 -3.040327 0
M  V30 46 H 11.743848 6.335588 -2.247297 0
M  V30 47 H 10.554734 6.607565 -4.253980 0
M  V30 48 H 12.086829 6.194407 -4.995495 0
M  V30 49 H 12.636337 8.417784 -5.198541 0
M  V30 END ATOM
M  V30 BEGIN BOND
M  V30 1 1 2 1
M  V30 2 1 3 2
M  V30 3 1 4 3
M  V30 4 1 5 4
M  V30 5 1 6 5
M  V30 6 1 7 6
M  V30 7 2 8 7
M  V30 8 1 9 8
M  V30 9 2 10 9
M  V30 10 1 11 10
M  V30 11 1 12 11
M  V30 12 1 13 12
M  V30 13 1 14 12
M  V30 14 1 15 12
M  V30 15 2 16 6
M  V30 16 1 16 10
M  V30 17 1 17 3
M  V30 18 1 18 17
M  V30 19 1 19 18
M  V30 20 1 20 19
M  V30 21 1 21 20
M  V30 22 1 22 21
M  V30 23 1 23 19
M  V30 24 1 23 22
M  V30 25 1 24 1
M  V30 26 1 25 1
M  V30 27 1 26 1
M  V30 28 1 27 2
M  V30 29 1 28 2
M  V30 30 1 29 4
M  V30 31 1 30 4
M  V30 32 1 31 5
M  V30 33 1 32 5
M  V30 34 1 33 7
M  V30 35 1 34 8
M  V30 36 1 35 9
M  V30 37 1 36 16
M  V30 38 1 37 17
M  V30 39 1 38 17
M  V30 40 1 39 18
M  V30 41 1 40 18
M  V30 42 1 41 20
M  V30 43 1 42 20
M  V30 44 1 43 21
M  V30 45 1 44 21
M  V30 46 1 45 22
M  V30 47 1 46 22
M  V30 48 1 47 23
M  V30 49 1 48 23
M  V30 50 1 49 19
M  V30 END BOND
M  V30 END CTAB
M  END
>  <b_m_subgroup_collapsed>  (2350) 
0

>  <r_i_docking_score>  (2350) 
-5.7885344142477697

>  <s_m_subgroup_title>  (2350) 
glide-dock_SP_D22_pv

>  <s_m_subgroupid>  (2350) 
glide-dock_SP_D22_pv

>  <Molecule ChEMBL ID>  (2350) 
CHEMBL497340

>  <Standard Type>  (2350) 
Ki

>  <Standard Value>  (2350) 
10000.0

>  <label>  (2350) 
0

$$$$
CHEMBL5075726
     RDKit          3D

  0  0  0  0  0  0  0  0  0  0999 V3000
M  V30 BEGIN CTAB
M  V30 COUNTS 76 80 0 0 1
M  V30 BEGIN ATOM
M  V30 1 C 15.887197 -0.428811 -19.905005 0
M  V30 2 C 14.765070 0.601101 -19.810070 0
M  V30 3 O 15.345229 1.889497 -19.847654 0
M  V30 4 C 14.564789 2.976228 -19.850266 0
M  V30 5 O 13.338752 2.935813 -19.760754 0
M  V30 6 C 15.402390 4.185799 -19.989552 0
M  V30 7 C 15.022511 5.483513 -19.859764 0
M  V30 8 C 13.615599 5.951114 -19.476843 0 CFG=2
M  V30 9 C 13.028749 6.914598 -20.536715 0
M  V30 10 C 13.971220 8.034839 -21.019190 0
M  V30 11 C 15.439549 7.592433 -21.138926 0
M  V30 12 C 15.974232 6.690947 -19.988400 0 CFG=2
M  V30 13 C 17.446087 6.337687 -20.357908 0
M  V30 14 C 18.550867 6.807178 -19.598248 0
M  V30 15 C 19.872768 6.476079 -19.951601 0
M  V30 16 C 20.123690 5.650187 -21.060127 0
M  V30 17 C 19.052053 5.189758 -21.843699 0
M  V30 18 O 19.286001 4.369826 -22.911375 0
M  V30 19 C 17.733603 5.564249 -21.514807 0
M  V30 20 C 15.904176 7.432581 -18.609694 0
M  V30 21 C 14.501220 7.641830 -17.976715 0
M  V30 22 N 13.602725 6.488739 -18.107599 0
M  V30 23 C 13.975764 5.438072 -17.150133 0
M  V30 24 C 13.474230 5.721556 -15.723058 0
M  V30 25 N 12.221097 4.994045 -15.402303 0 CHG=1
M  V30 26 C 11.992047 4.917519 -13.932800 0
M  V30 27 C 10.723493 4.115983 -13.597106 0
M  V30 28 N 9.605301 4.643459 -14.356728 0
M  V30 29 C 8.334307 4.573069 -13.772177 0
M  V30 30 C 7.906030 5.701789 -13.046655 0
M  V30 31 C 6.663697 5.699288 -12.393243 0
M  V30 32 C 5.856943 4.552333 -12.426904 0
M  V30 33 C 6.276437 3.408462 -13.131492 0
M  V30 34 Cl 5.286657 1.991188 -13.047196 0
M  V30 35 C 7.506483 3.420412 -13.838736 0
M  V30 36 Cl 8.022157 2.008580 -14.698539 0
M  V30 37 C 9.751846 4.734087 -15.799580 0
M  V30 38 C 11.035893 5.514198 -16.142462 0
M  V30 39 H 15.461071 -1.427660 -19.932877 0
M  V30 40 H 16.477394 -0.293293 -20.812925 0
M  V30 41 H 16.560398 -0.365908 -19.048767 0
M  V30 42 H 14.200611 0.468118 -18.886194 0
M  V30 43 H 14.072694 0.477745 -20.643864 0
M  V30 44 H 16.432373 3.960048 -20.199921 0
M  V30 45 H 12.907723 5.132246 -19.453367 0
M  V30 46 H 12.769258 6.312324 -21.408125 0
M  V30 47 H 12.088411 7.340961 -20.186787 0
M  V30 48 H 13.627290 8.394483 -21.989702 0
M  V30 49 H 13.899028 8.910109 -20.378321 0
M  V30 50 H 16.070215 8.476076 -21.245058 0
M  V30 51 H 15.530413 7.056483 -22.083801 0
M  V30 52 H 18.425644 7.434362 -18.730984 0
M  V30 53 H 20.699993 6.835749 -19.357185 0
M  V30 54 H 21.138903 5.371156 -21.310099 0
M  V30 55 H 20.222237 4.172416 -23.046768 0
M  V30 56 H 16.928989 5.207214 -22.140469 0
M  V30 57 H 16.473692 6.857591 -17.879646 0
M  V30 58 H 16.395132 8.404440 -18.678497 0
M  V30 59 H 14.010150 8.512636 -18.399908 0
M  V30 60 H 14.615730 7.906546 -16.927011 0
M  V30 61 H 13.571502 4.476112 -17.468756 0
M  V30 62 H 15.057782 5.304211 -17.136290 0
M  V30 63 H 14.252744 5.373392 -15.048014 0
M  V30 64 H 13.357141 6.785295 -15.517850 0
M  V30 65 H 12.851717 4.460943 -13.440610 0
M  V30 66 H 11.902472 5.928802 -13.531343 0
M  V30 67 H 10.859689 3.061958 -13.845309 0
M  V30 68 H 10.512147 4.168048 -12.527909 0
M  V30 69 H 8.529900 6.581575 -12.994041 0
M  V30 70 H 6.333782 6.570202 -11.847050 0
M  V30 71 H 4.924370 4.553311 -11.882800 0
M  V30 72 H 9.792889 3.729636 -16.222321 0
M  V30 73 H 8.888660 5.234917 -16.237007 0
M  V30 74 H 10.897321 6.565718 -15.891720 0
M  V30 75 H 11.204060 5.466429 -17.218182 0
M  V30 76 H 12.348141 4.041672 -15.712708 0
M  V30 END ATOM
M  V30 BEGIN BOND
M  V30 1 1 2 1
M  V30 2 1 3 2
M  V30 3 1 4 3
M  V30 4 2 5 4
M  V30 5 1 6 4
M  V30 6 2 7 6
M  V30 7 1 8 7
M  V30 8 1 9 8
M  V30 9 1 10 9
M  V30 10 1 11 10
M  V30 11 1 12 7
M  V30 12 1 12 11
M  V30 13 1 12 13 CFG=3
M  V30 14 2 14 13
M  V30 15 1 15 14
M  V30 16 2 16 15
M  V30 17 1 17 16
M  V30 18 1 18 17
M  V30 19 1 19 13
M  V30 20 2 19 17
M  V30 21 1 20 12
M  V30 22 1 21 20
M  V30 23 1 22 8
M  V30 24 1 22 21
M  V30 25 1 23 22
M  V30 26 1 24 23
M  V30 27 1 25 24
M  V30 28 1 26 25
M  V30 29 1 27 26
M  V30 30 1 28 27
M  V30 31 1 29 28
M  V30 32 2 30 29
M  V30 33 1 31 30
M  V30 34 2 32 31
M  V30 35 1 33 32
M  V30 36 1 34 33
M  V30 37 1 35 29
M  V30 38 2 35 33
M  V30 39 1 36 35
M  V30 40 1 37 28
M  V30 41 1 38 25
M  V30 42 1 38 37
M  V30 43 1 39 1
M  V30 44 1 40 1
M  V30 45 1 41 1
M  V30 46 1 42 2
M  V30 47 1 43 2
M  V30 48 1 44 6
M  V30 49 1 8 45 CFG=1
M  V30 50 1 46 9
M  V30 51 1 47 9
M  V30 52 1 48 10
M  V30 53 1 49 10
M  V30 54 1 50 11
M  V30 55 1 51 11
M  V30 56 1 52 14
M  V30 57 1 53 15
M  V30 58 1 54 16
M  V30 59 1 55 18
M  V30 60 1 56 19
M  V30 61 1 57 20
M  V30 62 1 58 20
M  V30 63 1 59 21
M  V30 64 1 60 21
M  V30 65 1 61 23
M  V30 66 1 62 23
M  V30 67 1 63 24
M  V30 68 1 64 24
M  V30 69 1 65 26
M  V30 70 1 66 26
M  V30 71 1 67 27
M  V30 72 1 68 27
M  V30 73 1 69 30
M  V30 74 1 70 31
M  V30 75 1 71 32
M  V30 76 1 72 37
M  V30 77 1 73 37
M  V30 78 1 74 38
M  V30 79 1 75 38
M  V30 80 1 76 25
M  V30 END BOND
M  V30 END CTAB
M  END
>  <b_m_subgroup_collapsed>  (2351) 
0

>  <r_i_docking_score>  (2351) 
-5.7880554099668204

>  <s_m_subgroup_title>  (2351) 
glide-dock_SP_D22_pv

>  <s_m_subgroupid>  (2351) 
glide-dock_SP_D22_pv

>  <Molecule ChEMBL ID>  (2351) 
CHEMBL5075726

>  <Standard Type>  (2351) 
Ki

>  <Standard Value>  (2351) 
51.6

>  <label>  (2351) 
1

$$$$
CHEMBL294951
     RDKit          3D

  0  0  0  0  0  0  0  0  0  0999 V3000
M  V30 BEGIN CTAB
M  V30 COUNTS 43 46 0 0 1
M  V30 BEGIN ATOM
M  V30 1 C 12.584546 2.803930 -17.032505 0
M  V30 2 N 11.662814 1.773768 -16.501266 0 CHG=1
M  V30 3 C 10.802149 1.200723 -17.569775 0
M  V30 4 C 9.835279 0.135376 -17.026789 0
M  V30 5 C 9.012877 0.699750 -15.876523 0
M  V30 6 C 7.655022 0.753935 -15.832775 0
M  V30 7 C 6.772771 0.395498 -16.971369 0
M  V30 8 C 7.010775 1.027040 -18.215431 0
M  V30 9 C 6.186957 0.792135 -19.330652 0
M  V30 10 C 5.091224 -0.075868 -19.215147 0
M  V30 11 C 4.829117 -0.703621 -17.986443 0
M  V30 12 C 5.644990 -0.478326 -16.854435 0
M  V30 13 C 5.202472 -1.221530 -15.583459 0
M  V30 14 C 5.913944 -0.939092 -14.250007 0
M  V30 15 C 6.116927 0.508279 -13.971230 0
M  V30 16 S 5.286013 1.408790 -12.735607 0
M  V30 17 C 6.086035 2.889195 -13.211073 0
M  V30 18 C 6.958457 2.678119 -14.248450 0
M  V30 19 C 6.944763 1.318875 -14.681591 0
M  V30 20 C 9.936896 1.191615 -14.770823 0
M  V30 21 C 10.895565 2.261265 -15.323842 0
M  V30 22 H 12.030996 3.635156 -17.472141 0
M  V30 23 H 13.222706 3.207572 -16.247200 0
M  V30 24 H 13.233075 2.381542 -17.801064 0
M  V30 25 H 11.431342 0.761732 -18.345472 0
M  V30 26 H 10.234054 2.003457 -18.042593 0
M  V30 27 H 10.404761 -0.714122 -16.646357 0
M  V30 28 H 9.221334 -0.272342 -17.827309 0
M  V30 29 H 7.835060 1.715688 -18.318787 0
M  V30 30 H 6.387880 1.283129 -20.271772 0
M  V30 31 H 4.449502 -0.258946 -20.065325 0
M  V30 32 H 3.976855 -1.365152 -17.910812 0
M  V30 33 H 4.147733 -0.980252 -15.443722 0
M  V30 34 H 5.236661 -2.293773 -15.782363 0
M  V30 35 H 6.886005 -1.427612 -14.246956 0
M  V30 36 H 5.360704 -1.415318 -13.447801 0
M  V30 37 H 5.875645 3.811143 -12.686333 0
M  V30 38 H 7.573703 3.436440 -14.706830 0
M  V30 39 H 9.398011 1.584456 -13.910261 0
M  V30 40 H 10.504591 0.340199 -14.392689 0
M  V30 41 H 11.588081 2.570767 -14.539856 0
M  V30 42 H 10.324611 3.147496 -15.607113 0
M  V30 43 H 12.245570 1.019958 -16.161686 0
M  V30 END ATOM
M  V30 BEGIN BOND
M  V30 1 1 2 1
M  V30 2 1 3 2
M  V30 3 1 4 3
M  V30 4 1 5 4
M  V30 5 2 6 5
M  V30 6 1 7 6
M  V30 7 2 8 7
M  V30 8 1 9 8
M  V30 9 2 10 9
M  V30 10 1 11 10
M  V30 11 1 12 7
M  V30 12 2 12 11
M  V30 13 1 13 12
M  V30 14 1 14 13
M  V30 15 1 15 14
M  V30 16 1 16 15
M  V30 17 1 17 16
M  V30 18 2 18 17
M  V30 19 1 19 6
M  V30 20 2 19 15
M  V30 21 1 19 18
M  V30 22 1 20 5
M  V30 23 1 21 2
M  V30 24 1 21 20
M  V30 25 1 22 1
M  V30 26 1 23 1
M  V30 27 1 24 1
M  V30 28 1 25 3
M  V30 29 1 26 3
M  V30 30 1 27 4
M  V30 31 1 28 4
M  V30 32 1 29 8
M  V30 33 1 30 9
M  V30 34 1 31 10
M  V30 35 1 32 11
M  V30 36 1 33 13
M  V30 37 1 34 13
M  V30 38 1 35 14
M  V30 39 1 36 14
M  V30 40 1 37 17
M  V30 41 1 38 18
M  V30 42 1 39 20
M  V30 43 1 40 20
M  V30 44 1 41 21
M  V30 45 1 42 21
M  V30 46 1 43 2
M  V30 END BOND
M  V30 END CTAB
M  END
>  <b_m_subgroup_collapsed>  (2352) 
0

>  <r_i_docking_score>  (2352) 
-5.7879129985553703

>  <s_m_subgroup_title>  (2352) 
glide-dock_SP_D22_pv

>  <s_m_subgroupid>  (2352) 
glide-dock_SP_D22_pv

>  <Molecule ChEMBL ID>  (2352) 
CHEMBL294951

>  <Standard Type>  (2352) 
Ki

>  <Standard Value>  (2352) 
2.4

>  <label>  (2352) 
1

$$$$
CHEMBL392888
     RDKit          3D

  0  0  0  0  0  0  0  0  0  0999 V3000
M  V30 BEGIN CTAB
M  V30 COUNTS 42 44 0 0 1
M  V30 BEGIN ATOM
M  V30 1 C 5.651684 3.909096 -12.208005 0
M  V30 2 N 7.026508 4.423550 -12.244899 0 CHG=1
M  V30 3 C 7.733696 4.455326 -11.102658 0
M  V30 4 N 8.985955 4.932536 -11.002117 0
M  V30 5 C 9.379327 5.676131 -9.841178 0
M  V30 6 C 8.832333 5.408659 -8.562818 0
M  V30 7 C 9.240453 6.172909 -7.446920 0
M  V30 8 C 10.243237 7.138634 -7.624558 0
M  V30 9 C 10.792777 7.371125 -8.875734 0
M  V30 10 C 10.354614 6.677625 -10.013741 0
M  V30 11 C 11.855376 8.420420 -8.828648 0 CFG=1
M  V30 12 O 11.685820 9.372038 -9.846999 0
M  V30 13 C 11.719897 9.016074 -7.402963 0
M  V30 14 C 10.852878 8.031549 -6.578283 0
M  V30 15 C 7.592225 4.842355 -13.533147 0
M  V30 16 C 8.606805 3.853251 -14.071808 0
M  V30 17 C 8.193969 2.558263 -14.452049 0
M  V30 18 C 9.133591 1.628171 -14.935168 0
M  V30 19 C 10.489002 1.991689 -15.041826 0
M  V30 20 C 10.905167 3.284953 -14.669309 0
M  V30 21 C 9.964849 4.217809 -14.190923 0
M  V30 22 H 5.173923 3.936628 -13.187523 0
M  V30 23 H 5.648168 2.878275 -11.853522 0
M  V30 24 H 5.055645 4.508120 -11.518966 0
M  V30 25 H 7.286567 3.984192 -10.246525 0
M  V30 26 H 8.089113 4.642123 -8.417129 0
M  V30 27 H 8.800380 6.015312 -6.474298 0
M  V30 28 H 10.782907 6.891475 -10.981992 0
M  V30 29 H 12.823042 7.931337 -8.947011 0
M  V30 30 H 12.470197 9.909586 -9.890050 0
M  V30 31 H 12.682044 9.238772 -6.940695 0
M  V30 32 H 11.176906 9.959079 -7.454926 0
M  V30 33 H 10.085672 8.542991 -5.995793 0
M  V30 34 H 11.463111 7.430501 -5.903588 0
M  V30 35 H 6.780810 4.931329 -14.248337 0
M  V30 36 H 8.035610 5.834176 -13.435217 0
M  V30 37 H 7.156138 2.269710 -14.370359 0
M  V30 38 H 8.816258 0.635250 -15.220617 0
M  V30 39 H 11.212381 1.278923 -15.410915 0
M  V30 40 H 11.945691 3.561982 -14.757558 0
M  V30 41 H 10.295297 5.209495 -13.917908 0
M  V30 42 H 9.477441 5.087126 -11.869198 0
M  V30 END ATOM
M  V30 BEGIN BOND
M  V30 1 1 2 1
M  V30 2 2 3 2 CFG=2
M  V30 3 1 4 3
M  V30 4 1 5 4
M  V30 5 1 6 5
M  V30 6 2 7 6
M  V30 7 1 8 7
M  V30 8 2 9 8
M  V30 9 2 10 5
M  V30 10 1 10 9
M  V30 11 1 11 9
M  V30 12 1 12 11
M  V30 13 1 13 11
M  V30 14 1 14 8
M  V30 15 1 14 13
M  V30 16 1 15 2
M  V30 17 1 16 15
M  V30 18 2 17 16
M  V30 19 1 18 17
M  V30 20 2 19 18
M  V30 21 1 20 19
M  V30 22 1 21 16
M  V30 23 2 21 20
M  V30 24 1 22 1
M  V30 25 1 23 1
M  V30 26 1 24 1
M  V30 27 1 25 3
M  V30 28 1 26 6
M  V30 29 1 27 7
M  V30 30 1 28 10
M  V30 31 1 11 29 CFG=1
M  V30 32 1 30 12
M  V30 33 1 31 13
M  V30 34 1 32 13
M  V30 35 1 33 14
M  V30 36 1 34 14
M  V30 37 1 35 15
M  V30 38 1 36 15
M  V30 39 1 37 17
M  V30 40 1 38 18
M  V30 41 1 39 19
M  V30 42 1 40 20
M  V30 43 1 41 21
M  V30 44 1 42 4
M  V30 END BOND
M  V30 END CTAB
M  END
>  <b_m_subgroup_collapsed>  (2353) 
0

>  <r_i_docking_score>  (2353) 
-5.7833368380146002

>  <s_m_subgroup_title>  (2353) 
glide-dock_SP_D22_pv

>  <s_m_subgroupid>  (2353) 
glide-dock_SP_D22_pv

>  <Molecule ChEMBL ID>  (2353) 
CHEMBL392888

>  <Standard Type>  (2353) 
Ki

>  <Standard Value>  (2353) 
59000.0

>  <label>  (2353) 
0

$$$$
CHEMBL201393
     RDKit          3D

  0  0  0  0  0  0  0  0  0  0999 V3000
M  V30 BEGIN CTAB
M  V30 COUNTS 43 47 0 0 1
M  V30 BEGIN ATOM
M  V30 1 C 8.797299 6.271064 -7.046744 0
M  V30 2 C 9.231592 5.538975 -8.161876 0
M  V30 3 C 9.735847 6.224186 -9.269682 0
M  V30 4 C 9.713904 7.637566 -9.289173 0
M  V30 5 C 10.147643 8.457611 -10.474110 0 CFG=1
M  V30 6 C 11.595340 8.930660 -10.246866 0
M  V30 7 C 12.450523 8.197353 -11.286348 0
M  V30 8 N 11.534839 7.232692 -11.930614 0 CFG=2 CHG=1
M  V30 9 C 11.846632 6.704636 -13.284128 0
M  V30 10 C 10.964271 5.461058 -13.581221 0
M  V30 11 C 9.568286 5.632221 -13.046865 0
M  V30 12 C 9.223564 6.670664 -12.223822 0
M  V30 13 N 7.901513 6.535095 -11.846868 0
M  V30 14 C 7.357605 5.400358 -12.417947 0
M  V30 15 C 6.079965 4.824127 -12.334056 0
M  V30 16 C 5.799750 3.648595 -13.053721 0
M  V30 17 C 6.802832 3.057429 -13.846865 0
M  V30 18 C 8.090934 3.629085 -13.907251 0
M  V30 19 C 8.397897 4.815441 -13.200750 0
M  V30 20 C 10.167820 7.772325 -11.846864 0 CFG=1
M  V30 21 C 9.313221 8.357285 -8.151316 0
M  V30 22 C 8.885996 7.669422 -7.017732 0
M  V30 23 H 8.376687 5.772325 -6.191828 0
M  V30 24 H 9.175550 4.460642 -8.168629 0
M  V30 25 H 10.085979 5.634350 -10.099833 0
M  V30 26 H 9.460640 9.304248 -10.524155 0
M  V30 27 H 11.686022 10.008725 -10.363223 0
M  V30 28 H 11.947256 8.714948 -9.236231 0
M  V30 29 H 12.886023 8.889142 -12.007889 0
M  V30 30 H 13.286022 7.772325 -10.762524 0
M  V30 31 H 11.685990 7.488357 -14.025999 0
M  V30 32 H 12.886454 6.418950 -13.356614 0
M  V30 33 H 10.946912 5.264596 -14.653747 0
M  V30 34 H 11.414186 4.581055 -13.120081 0
M  V30 35 H 7.397592 7.155765 -11.191447 0
M  V30 36 H 5.325135 5.282407 -11.710930 0
M  V30 37 H 4.819169 3.199280 -12.995590 0
M  V30 38 H 6.588497 2.152661 -14.397245 0
M  V30 39 H 8.855541 3.155560 -14.504888 0
M  V30 40 H 10.068519 8.556617 -12.596237 0
M  V30 41 H 9.314974 9.436214 -8.148176 0
M  V30 42 H 8.538139 8.218040 -6.159054 0
M  V30 43 H 11.517679 6.436559 -11.312322 0
M  V30 END ATOM
M  V30 BEGIN BOND
M  V30 1 2 2 1
M  V30 2 1 3 2
M  V30 3 2 4 3
M  V30 4 1 5 4
M  V30 5 1 6 5
M  V30 6 1 7 6
M  V30 7 1 8 7
M  V30 8 1 9 8
M  V30 9 1 10 9
M  V30 10 1 11 10
M  V30 11 2 12 11
M  V30 12 1 13 12
M  V30 13 1 14 13
M  V30 14 2 15 14
M  V30 15 1 16 15
M  V30 16 2 17 16
M  V30 17 1 18 17
M  V30 18 1 19 11
M  V30 19 1 19 14
M  V30 20 2 19 18
M  V30 21 1 20 5
M  V30 22 1 20 8
M  V30 23 1 20 12
M  V30 24 1 21 4
M  V30 25 1 22 1
M  V30 26 2 22 21
M  V30 27 1 23 1
M  V30 28 1 24 2
M  V30 29 1 25 3
M  V30 30 1 5 26 CFG=3
M  V30 31 1 27 6
M  V30 32 1 28 6
M  V30 33 1 29 7
M  V30 34 1 30 7
M  V30 35 1 31 9
M  V30 36 1 32 9
M  V30 37 1 33 10
M  V30 38 1 34 10
M  V30 39 1 35 13
M  V30 40 1 36 15
M  V30 41 1 37 16
M  V30 42 1 38 17
M  V30 43 1 39 18
M  V30 44 1 20 40 CFG=3
M  V30 45 1 41 21
M  V30 46 1 42 22
M  V30 47 1 8 43 CFG=1
M  V30 END BOND
M  V30 END CTAB
M  END
>  <b_m_subgroup_collapsed>  (2354) 
0

>  <r_i_docking_score>  (2354) 
-5.7790811900660799

>  <s_m_subgroup_title>  (2354) 
glide-dock_SP_D22_pv

>  <s_m_subgroupid>  (2354) 
glide-dock_SP_D22_pv

>  <Molecule ChEMBL ID>  (2354) 
CHEMBL201393

>  <Standard Type>  (2354) 
Ki

>  <Standard Value>  (2354) 
10000.0

>  <label>  (2354) 
0

$$$$
CHEMBL594557
     RDKit          3D

  0  0  0  0  0  0  0  0  0  0999 V3000
M  V30 BEGIN CTAB
M  V30 COUNTS 40 43 0 0 1
M  V30 BEGIN ATOM
M  V30 1 C 9.533403 8.072997 -8.578315 0
M  V30 2 O 10.386495 7.989463 -9.712206 0
M  V30 3 C 10.100328 7.037250 -10.667229 0
M  V30 4 C 9.101719 6.045501 -10.528978 0
M  V30 5 C 8.867573 5.120347 -11.561933 0
M  V30 6 C 9.599242 5.177158 -12.772070 0
M  V30 7 C 10.642995 6.130796 -12.889757 0
M  V30 8 C 10.875434 7.049348 -11.843374 0
M  V30 9 C 11.555832 6.167473 -14.110671 0
M  V30 10 C 12.329853 4.852947 -14.315178 0
M  V30 11 C 11.509356 3.744736 -14.996819 0
M  V30 12 N 10.386530 3.254194 -14.162236 0 CFG=2 CHG=1
M  V30 13 C 9.801761 1.972325 -14.650270 0
M  V30 14 C 8.358599 2.082475 -14.265110 0
M  V30 15 C 7.391304 1.062395 -14.270719 0
M  V30 16 C 6.085435 1.389778 -13.846599 0
M  V30 17 C 5.767794 2.710890 -13.446744 0
M  V30 18 C 6.748617 3.727043 -13.475588 0
M  V30 19 C 8.056868 3.375836 -13.865253 0
M  V30 20 C 9.290791 4.248245 -13.950859 0 CFG=1
M  V30 21 H 9.850125 8.902784 -7.948613 0
M  V30 22 H 9.581569 7.164597 -7.974579 0
M  V30 23 H 8.497622 8.257575 -8.866374 0
M  V30 24 H 8.485876 5.984056 -9.643337 0
M  V30 25 H 8.096696 4.385396 -11.397123 0
M  V30 26 H 11.667729 7.776277 -11.931474 0
M  V30 27 H 10.985033 6.416140 -15.004930 0
M  V30 28 H 12.275725 6.976806 -13.986465 0
M  V30 29 H 13.181845 5.068011 -14.961608 0
M  V30 30 H 12.755955 4.510290 -13.371572 0
M  V30 31 H 11.135125 4.085166 -15.963358 0
M  V30 32 H 12.172027 2.906497 -15.207252 0
M  V30 33 H 9.870354 1.890956 -15.736431 0
M  V30 34 H 10.288904 1.107012 -14.205353 0
M  V30 35 H 7.639149 0.055693 -14.578617 0
M  V30 36 H 5.321961 0.626216 -13.830866 0
M  V30 37 H 4.764642 2.948153 -13.125239 0
M  V30 38 H 6.501904 4.737092 -13.179773 0
M  V30 39 H 9.155856 4.854877 -14.847608 0
M  V30 40 H 10.740335 3.049728 -13.239558 0
M  V30 END ATOM
M  V30 BEGIN BOND
M  V30 1 1 2 1
M  V30 2 1 3 2
M  V30 3 1 4 3
M  V30 4 2 5 4
M  V30 5 1 6 5
M  V30 6 2 7 6
M  V30 7 2 8 3
M  V30 8 1 8 7
M  V30 9 1 9 7
M  V30 10 1 10 9
M  V30 11 1 11 10
M  V30 12 1 12 11
M  V30 13 1 13 12
M  V30 14 1 14 13
M  V30 15 2 15 14
M  V30 16 1 16 15
M  V30 17 2 17 16
M  V30 18 1 18 17
M  V30 19 1 19 14
M  V30 20 2 19 18
M  V30 21 1 20 6
M  V30 22 1 20 12
M  V30 23 1 20 19
M  V30 24 1 21 1
M  V30 25 1 22 1
M  V30 26 1 23 1
M  V30 27 1 24 4
M  V30 28 1 25 5
M  V30 29 1 26 8
M  V30 30 1 27 9
M  V30 31 1 28 9
M  V30 32 1 29 10
M  V30 33 1 30 10
M  V30 34 1 31 11
M  V30 35 1 32 11
M  V30 36 1 33 13
M  V30 37 1 34 13
M  V30 38 1 35 15
M  V30 39 1 36 16
M  V30 40 1 37 17
M  V30 41 1 38 18
M  V30 42 1 20 39 CFG=3
M  V30 43 1 12 40 CFG=1
M  V30 END BOND
M  V30 END CTAB
M  END
>  <b_m_subgroup_collapsed>  (2355) 
0

>  <r_i_docking_score>  (2355) 
-5.7770790498740396

>  <s_m_subgroup_title>  (2355) 
glide-dock_SP_D22_pv

>  <s_m_subgroupid>  (2355) 
glide-dock_SP_D22_pv

>  <Molecule ChEMBL ID>  (2355) 
CHEMBL594557

>  <Standard Type>  (2355) 
Ki

>  <Standard Value>  (2355) 
10000.0

>  <label>  (2355) 
0

$$$$
CHEMBL380464
     RDKit          3D

  0  0  0  0  0  0  0  0  0  0999 V3000
M  V30 BEGIN CTAB
M  V30 COUNTS 42 44 0 0 1
M  V30 BEGIN ATOM
M  V30 1 C 11.023387 5.532182 -17.352837 0
M  V30 2 N 11.173569 4.427670 -16.372946 0 CFG=1 CHG=1
M  V30 3 C 11.806832 3.225653 -16.981701 0
M  V30 4 C 11.178705 1.915175 -16.488468 0
M  V30 5 C 9.688375 1.837790 -16.793119 0
M  V30 6 C 9.343969 1.560997 -18.136923 0
M  V30 7 C 8.004882 1.382247 -18.521164 0
M  V30 8 C 6.991621 1.473759 -17.555273 0
M  V30 9 C 7.321973 1.771462 -16.222898 0
M  V30 10 C 8.662047 1.984484 -15.812395 0
M  V30 11 C 8.933490 2.219042 -14.314936 0
M  V30 12 C 8.766358 3.647922 -13.743867 0
M  V30 13 C 9.884483 4.516703 -13.530061 0
M  V30 14 C 9.700974 5.768388 -12.899039 0
M  V30 15 C 8.434635 6.182996 -12.464750 0
M  V30 16 C 7.328167 5.350124 -12.658153 0
M  V30 17 O 6.102986 5.772220 -12.223536 0
M  V30 18 C 7.486634 4.090623 -13.282928 0
M  V30 19 Cl 6.083718 3.084569 -13.384911 0
M  V30 20 C 11.330498 4.171725 -13.870748 0
M  V30 21 C 11.849792 4.880508 -15.129627 0
M  V30 22 H 11.997663 5.883892 -17.700125 0
M  V30 23 H 10.488150 6.374889 -16.914209 0
M  V30 24 H 10.446598 5.206815 -18.221703 0
M  V30 25 H 11.693143 3.261060 -18.065773 0
M  V30 26 H 12.884486 3.218799 -16.812641 0
M  V30 27 H 11.661725 1.091197 -17.016342 0
M  V30 28 H 11.408461 1.714092 -15.449665 0
M  V30 29 H 10.117374 1.452273 -18.884760 0
M  V30 30 H 7.760843 1.149639 -19.546299 0
M  V30 31 H 5.960735 1.310241 -17.831621 0
M  V30 32 H 6.510705 1.793380 -15.517541 0
M  V30 33 H 8.228235 1.564364 -13.808750 0
M  V30 34 H 9.878778 1.783911 -14.005287 0
M  V30 35 H 10.542073 6.421199 -12.724603 0
M  V30 36 H 8.314800 7.137712 -11.972181 0
M  V30 37 H 6.147192 6.475510 -11.578761 0
M  V30 38 H 11.947729 4.525831 -13.046355 0
M  V30 39 H 11.523627 3.106564 -13.883224 0
M  V30 40 H 12.930212 4.755232 -15.216528 0
M  V30 41 H 11.699781 5.953763 -14.998225 0
M  V30 42 H 10.225652 4.166499 -16.122272 0
M  V30 END ATOM
M  V30 BEGIN BOND
M  V30 1 1 2 1
M  V30 2 1 3 2
M  V30 3 1 4 3
M  V30 4 1 5 4
M  V30 5 2 6 5
M  V30 6 1 7 6
M  V30 7 2 8 7
M  V30 8 1 9 8
M  V30 9 1 10 5
M  V30 10 2 10 9
M  V30 11 1 11 10
M  V30 12 1 12 11
M  V30 13 2 13 12
M  V30 14 1 14 13
M  V30 15 2 15 14
M  V30 16 1 16 15
M  V30 17 1 17 16
M  V30 18 1 18 12
M  V30 19 2 18 16
M  V30 20 1 19 18
M  V30 21 1 20 13
M  V30 22 1 21 2
M  V30 23 1 21 20
M  V30 24 1 22 1
M  V30 25 1 23 1
M  V30 26 1 24 1
M  V30 27 1 25 3
M  V30 28 1 26 3
M  V30 29 1 27 4
M  V30 30 1 28 4
M  V30 31 1 29 6
M  V30 32 1 30 7
M  V30 33 1 31 8
M  V30 34 1 32 9
M  V30 35 1 33 11
M  V30 36 1 34 11
M  V30 37 1 35 14
M  V30 38 1 36 15
M  V30 39 1 37 17
M  V30 40 1 38 20
M  V30 41 1 39 20
M  V30 42 1 40 21
M  V30 43 1 41 21
M  V30 44 1 2 42 CFG=1
M  V30 END BOND
M  V30 END CTAB
M  END
>  <b_m_subgroup_collapsed>  (2356) 
0

>  <r_i_docking_score>  (2356) 
-5.7756215352742801

>  <s_m_subgroup_title>  (2356) 
glide-dock_SP_D22_pv

>  <s_m_subgroupid>  (2356) 
glide-dock_SP_D22_pv

>  <Molecule ChEMBL ID>  (2356) 
CHEMBL380464

>  <Standard Type>  (2356) 
Ki

>  <Standard Value>  (2356) 
0.13

>  <label>  (2356) 
1

$$$$
CHEMBL157138
     RDKit          3D

  0  0  0  0  0  0  0  0  0  0999 V3000
M  V30 BEGIN CTAB
M  V30 COUNTS 51 54 0 0 1
M  V30 BEGIN ATOM
M  V30 1 C 12.864923 8.287414 -8.663310 0
M  V30 2 C 11.353040 8.385720 -8.415945 0
M  V30 3 N 10.638226 7.222267 -8.964652 0
M  V30 4 C 10.232371 6.225655 -7.958297 0
M  V30 5 C 8.761361 6.411201 -7.557025 0
M  V30 6 C 10.294762 7.178914 -10.278355 0
M  V30 7 O 10.485979 8.121805 -11.046858 0
M  V30 8 N 9.777492 6.005472 -10.689939 0
M  V30 9 C 9.156443 5.763691 -11.987577 0 CFG=1
M  V30 10 C 9.697357 4.547073 -12.715973 0
M  V30 11 C 8.886196 3.765467 -13.456256 0
M  V30 12 C 9.317099 2.610886 -14.246861 0
M  V30 13 C 10.618504 2.367279 -14.734846 0
M  V30 14 C 10.886023 1.213131 -15.494590 0
M  V30 15 C 9.866519 0.272704 -15.727686 0
M  V30 16 C 8.590575 0.503947 -15.250683 0
M  V30 17 N 7.441002 -0.227676 -15.326904 0
M  V30 18 C 6.393012 0.434759 -14.709686 0
M  V30 19 C 6.940570 1.600955 -14.246870 0
M  V30 20 C 8.323849 1.659799 -14.544844 0
M  V30 21 C 6.465519 2.819676 -13.482570 0
M  V30 22 C 7.394712 4.066982 -13.616482 0 CFG=1
M  V30 23 N 6.967055 5.311077 -12.987329 0
M  V30 24 C 5.535308 5.459365 -12.830729 0
M  V30 25 C 7.653959 5.612388 -11.753093 0
M  V30 26 H 13.393125 9.115860 -8.194141 0
M  V30 27 H 13.096622 8.306541 -9.728698 0
M  V30 28 H 13.275897 7.372382 -8.246861 0
M  V30 29 H 11.164457 8.483418 -7.346099 0
M  V30 30 H 10.969513 9.310222 -8.851950 0
M  V30 31 H 10.403224 5.210549 -8.318592 0
M  V30 32 H 10.860173 6.309212 -7.070074 0
M  V30 33 H 8.493846 5.772332 -6.718801 0
M  V30 34 H 8.086030 6.172353 -8.379686 0
M  V30 35 H 8.557571 7.438682 -7.253059 0
M  V30 36 H 9.672514 5.281018 -9.996482 0
M  V30 37 H 9.326332 6.614308 -12.648793 0
M  V30 38 H 10.755905 4.348473 -12.646866 0
M  V30 39 H 11.412811 3.074034 -14.545158 0
M  V30 40 H 11.878707 1.041869 -15.883153 0
M  V30 41 H 10.077579 -0.625138 -16.288862 0
M  V30 42 H 7.389960 -1.171825 -15.705810 0
M  V30 43 H 5.392642 0.030237 -14.650733 0
M  V30 44 H 5.468699 3.063900 -13.846868 0
M  V30 45 H 6.324421 2.574976 -12.431958 0
M  V30 46 H 7.315068 4.339969 -14.646866 0
M  V30 47 H 5.293425 6.464899 -12.482730 0
M  V30 48 H 5.157637 4.747932 -12.094712 0
M  V30 49 H 5.018729 5.303903 -13.778437 0
M  V30 50 H 7.420531 4.873989 -10.984309 0
M  V30 51 H 7.286004 6.572325 -11.446280 0
M  V30 END ATOM
M  V30 BEGIN BOND
M  V30 1 1 2 1
M  V30 2 1 3 2
M  V30 3 1 4 3
M  V30 4 1 5 4
M  V30 5 1 6 3
M  V30 6 2 7 6
M  V30 7 1 8 6
M  V30 8 1 9 8
M  V30 9 1 10 9
M  V30 10 2 11 10
M  V30 11 1 12 11
M  V30 12 1 13 12
M  V30 13 2 14 13
M  V30 14 1 15 14
M  V30 15 2 16 15
M  V30 16 1 17 16
M  V30 17 1 18 17
M  V30 18 2 19 18
M  V30 19 2 20 12
M  V30 20 1 20 16
M  V30 21 1 20 19
M  V30 22 1 21 19
M  V30 23 1 22 11
M  V30 24 1 22 21
M  V30 25 1 23 22
M  V30 26 1 24 23
M  V30 27 1 25 9
M  V30 28 1 25 23
M  V30 29 1 26 1
M  V30 30 1 27 1
M  V30 31 1 28 1
M  V30 32 1 29 2
M  V30 33 1 30 2
M  V30 34 1 31 4
M  V30 35 1 32 4
M  V30 36 1 33 5
M  V30 37 1 34 5
M  V30 38 1 35 5
M  V30 39 1 36 8
M  V30 40 1 9 37 CFG=3
M  V30 41 1 38 10
M  V30 42 1 39 13
M  V30 43 1 40 14
M  V30 44 1 41 15
M  V30 45 1 42 17
M  V30 46 1 43 18
M  V30 47 1 44 21
M  V30 48 1 45 21
M  V30 49 1 22 46 CFG=3
M  V30 50 1 47 24
M  V30 51 1 48 24
M  V30 52 1 49 24
M  V30 53 1 50 25
M  V30 54 1 51 25
M  V30 END BOND
M  V30 END CTAB
M  END
>  <b_m_subgroup_collapsed>  (2357) 
0

>  <r_i_docking_score>  (2357) 
-5.7748384570101301

>  <s_m_subgroup_title>  (2357) 
glide-dock_SP_D22_pv

>  <s_m_subgroupid>  (2357) 
glide-dock_SP_D22_pv

>  <Molecule ChEMBL ID>  (2357) 
CHEMBL157138

>  <Standard Type>  (2357) 
Ki

>  <Standard Value>  (2357) 
0.3

>  <label>  (2357) 
1

$$$$
CHEMBL3753266
     RDKit          3D

  0  0  0  0  0  0  0  0  0  0999 V3000
M  V30 BEGIN CTAB
M  V30 COUNTS 44 47 0 0 1
M  V30 BEGIN ATOM
M  V30 1 C 8.768480 3.021835 -18.143805 0
M  V30 2 N 9.520741 2.417088 -17.020441 0 CFG=1 CHG=1
M  V30 3 C 8.804062 1.250937 -16.429010 0
M  V30 4 C 8.857264 1.227416 -14.889703 0
M  V30 5 C 8.281368 2.490730 -14.258053 0
M  V30 6 C 6.874269 2.620241 -14.237123 0
M  V30 7 C 6.254771 3.724637 -13.627375 0
M  V30 8 C 7.042775 4.735678 -13.047984 0
M  V30 9 C 8.444469 4.626849 -13.075377 0
M  V30 10 C 9.078270 3.508026 -13.661205 0
M  V30 11 C 10.594660 3.416332 -13.531264 0
M  V30 12 C 11.360452 4.208175 -14.551697 0
M  V30 13 S 11.663094 5.885654 -14.196126 0
M  V30 14 C 12.494591 6.112865 -15.714413 0
M  V30 15 C 13.023792 7.314631 -16.220276 0
M  V30 16 C 13.671969 7.322656 -17.465593 0
M  V30 17 C 13.813098 6.119480 -18.181822 0
M  V30 18 C 13.293053 4.917698 -17.657772 0
M  V30 19 C 12.595244 4.877325 -16.425348 0
M  V30 20 C 11.932570 3.776174 -15.733499 0
M  V30 21 C 11.908496 2.359077 -16.246256 0
M  V30 22 C 10.928168 2.133977 -17.402914 0
M  V30 23 H 8.696616 2.333318 -18.987284 0
M  V30 24 H 9.250326 3.941707 -18.483637 0
M  V30 25 H 7.756597 3.284195 -17.835337 0
M  V30 26 H 7.751833 1.281794 -16.714190 0
M  V30 27 H 9.183139 0.310378 -16.827875 0
M  V30 28 H 8.252955 0.388973 -14.540599 0
M  V30 29 H 9.853506 0.990192 -14.532066 0
M  V30 30 H 6.255863 1.843738 -14.663063 0
M  V30 31 H 5.179195 3.797876 -13.596401 0
M  V30 32 H 6.572790 5.586462 -12.573259 0
M  V30 33 H 9.033061 5.408119 -12.614100 0
M  V30 34 H 10.830749 3.831286 -12.555233 0
M  V30 35 H 10.947801 2.392370 -13.451697 0
M  V30 36 H 12.922482 8.231976 -15.657201 0
M  V30 37 H 14.061233 8.247401 -17.867981 0
M  V30 38 H 14.315105 6.123275 -19.137505 0
M  V30 39 H 13.423724 4.010223 -18.224174 0
M  V30 40 H 12.899901 2.090959 -16.606085 0
M  V30 41 H 11.707679 1.650231 -15.446940 0
M  V30 42 H 11.029369 1.120436 -17.789555 0
M  V30 43 H 11.231931 2.790622 -18.218826 0
M  V30 44 H 9.558827 3.128589 -16.299976 0
M  V30 END ATOM
M  V30 BEGIN BOND
M  V30 1 1 2 1
M  V30 2 1 3 2
M  V30 3 1 4 3
M  V30 4 1 5 4
M  V30 5 2 6 5
M  V30 6 1 7 6
M  V30 7 2 8 7
M  V30 8 1 9 8
M  V30 9 1 10 5
M  V30 10 2 10 9
M  V30 11 1 11 10
M  V30 12 1 12 11
M  V30 13 1 13 12
M  V30 14 1 14 13
M  V30 15 2 15 14
M  V30 16 1 16 15
M  V30 17 2 17 16
M  V30 18 1 18 17
M  V30 19 1 19 14
M  V30 20 2 19 18
M  V30 21 2 20 12
M  V30 22 1 20 19
M  V30 23 1 21 20
M  V30 24 1 22 2
M  V30 25 1 22 21
M  V30 26 1 23 1
M  V30 27 1 24 1
M  V30 28 1 25 1
M  V30 29 1 26 3
M  V30 30 1 27 3
M  V30 31 1 28 4
M  V30 32 1 29 4
M  V30 33 1 30 6
M  V30 34 1 31 7
M  V30 35 1 32 8
M  V30 36 1 33 9
M  V30 37 1 34 11
M  V30 38 1 35 11
M  V30 39 1 36 15
M  V30 40 1 37 16
M  V30 41 1 38 17
M  V30 42 1 39 18
M  V30 43 1 40 21
M  V30 44 1 41 21
M  V30 45 1 42 22
M  V30 46 1 43 22
M  V30 47 1 2 44 CFG=1
M  V30 END BOND
M  V30 END CTAB
M  END
>  <b_m_subgroup_collapsed>  (2358) 
0

>  <r_i_docking_score>  (2358) 
-5.77349901818351

>  <s_m_subgroup_title>  (2358) 
glide-dock_SP_D22_pv

>  <s_m_subgroupid>  (2358) 
glide-dock_SP_D22_pv

>  <Molecule ChEMBL ID>  (2358) 
CHEMBL3753266

>  <Standard Type>  (2358) 
Ki

>  <Standard Value>  (2358) 
1.5

>  <label>  (2358) 
1

$$$$
CHEMBL230872
     RDKit          3D

  0  0  0  0  0  0  0  0  0  0999 V3000
M  V30 BEGIN CTAB
M  V30 COUNTS 63 67 0 0 1
M  V30 BEGIN ATOM
M  V30 1 C 4.501717 0.943073 -20.863115 0
M  V30 2 O 5.305486 0.970859 -19.695982 0
M  V30 3 C 5.073476 0.027624 -18.712837 0
M  V30 4 C 3.983811 -0.877525 -18.761602 0
M  V30 5 C 3.772515 -1.805093 -17.728895 0
M  V30 6 C 4.631707 -1.827355 -16.619572 0
M  V30 7 C 5.716363 -0.933872 -16.554279 0
M  V30 8 C 5.959935 -0.016546 -17.603405 0
M  V30 9 N 7.097633 0.819900 -17.550741 0
M  V30 10 C 7.520564 1.501442 -16.331104 0
M  V30 11 C 9.024432 1.260177 -16.060472 0
M  V30 12 N 9.814230 1.614712 -17.249586 0
M  V30 13 C 11.252428 1.515200 -17.014235 0
M  V30 14 C 11.792736 2.748690 -16.270468 0
M  V30 15 C 11.416520 4.082987 -16.946310 0
M  V30 16 O 12.124787 5.187703 -16.395161 0
M  V30 17 C 11.742048 5.702886 -15.173039 0
M  V30 18 C 10.675427 5.202791 -14.384332 0
M  V30 19 C 10.391046 5.771756 -13.130473 0
M  V30 20 C 11.159159 6.848894 -12.641711 0
M  V30 21 C 10.908646 7.372342 -11.297725 0
M  V30 22 C 9.739337 7.445995 -10.586526 0
M  V30 23 N 10.062148 7.899455 -9.320566 0
M  V30 24 C 9.290946 8.120397 -8.220012 0
M  V30 25 C 9.876893 8.571975 -7.061415 0
M  V30 26 C 11.270205 8.803677 -7.009808 0
M  V30 27 C 12.055018 8.572991 -8.116543 0
M  V30 28 C 11.458923 8.114079 -9.320902 0
M  V30 29 N 11.970602 7.808055 -10.510164 0
M  V30 30 C 12.204509 7.368425 -13.437269 0
M  V30 31 C 12.486804 6.796741 -14.689961 0
M  V30 32 C 9.425434 0.711922 -18.337795 0
M  V30 33 C 7.959620 0.975080 -18.716478 0
M  V30 34 H 4.859892 1.707445 -21.552284 0
M  V30 35 H 4.564103 -0.017555 -21.377148 0
M  V30 36 H 3.461242 1.161779 -20.629183 0
M  V30 37 H 3.285889 -0.880667 -19.583570 0
M  V30 38 H 2.948824 -2.500129 -17.786392 0
M  V30 39 H 4.467852 -2.547186 -15.830075 0
M  V30 40 H 6.386856 -0.994338 -15.710348 0
M  V30 41 H 7.338875 2.569460 -16.456995 0
M  V30 42 H 6.931048 1.187284 -15.471978 0
M  V30 43 H 9.333858 1.865612 -15.207479 0
M  V30 44 H 9.196832 0.216738 -15.790175 0
M  V30 45 H 11.496151 0.597358 -16.477011 0
M  V30 46 H 11.769350 1.459179 -17.973234 0
M  V30 47 H 11.466369 2.731527 -15.232640 0
M  V30 48 H 12.881274 2.673570 -16.241564 0
M  V30 49 H 11.685722 4.030428 -18.000971 0
M  V30 50 H 10.339114 4.259341 -16.925306 0
M  V30 51 H 10.067030 4.374018 -14.715766 0
M  V30 52 H 9.594532 5.362039 -12.525653 0
M  V30 53 H 8.709375 7.204064 -10.825013 0
M  V30 54 H 8.227676 7.916492 -8.309423 0
M  V30 55 H 9.253839 8.745502 -6.191818 0
M  V30 56 H 11.728439 9.160101 -6.093061 0
M  V30 57 H 13.124668 8.750552 -8.094501 0
M  V30 58 H 12.822520 8.172409 -13.071148 0
M  V30 59 H 13.304183 7.183756 -15.279464 0
M  V30 60 H 10.049020 0.889223 -19.215752 0
M  V30 61 H 9.570589 -0.329960 -18.043032 0
M  V30 62 H 7.674654 0.281917 -19.507561 0
M  V30 63 H 7.849085 1.983070 -19.112284 0
M  V30 END ATOM
M  V30 BEGIN BOND
M  V30 1 1 2 1
M  V30 2 1 3 2
M  V30 3 2 4 3
M  V30 4 1 5 4
M  V30 5 2 6 5
M  V30 6 1 7 6
M  V30 7 1 8 3
M  V30 8 2 8 7
M  V30 9 1 9 8
M  V30 10 1 10 9
M  V30 11 1 11 10
M  V30 12 1 12 11
M  V30 13 1 13 12
M  V30 14 1 14 13
M  V30 15 1 15 14
M  V30 16 1 16 15
M  V30 17 1 17 16
M  V30 18 1 18 17
M  V30 19 2 19 18
M  V30 20 1 20 19
M  V30 21 1 21 20
M  V30 22 2 22 21
M  V30 23 1 23 22
M  V30 24 1 24 23
M  V30 25 2 25 24
M  V30 26 1 26 25
M  V30 27 2 27 26
M  V30 28 1 28 23
M  V30 29 1 28 27
M  V30 30 1 29 21
M  V30 31 2 29 28
M  V30 32 2 30 20
M  V30 33 2 31 17
M  V30 34 1 31 30
M  V30 35 1 32 12
M  V30 36 1 33 9
M  V30 37 1 33 32
M  V30 38 1 34 1
M  V30 39 1 35 1
M  V30 40 1 36 1
M  V30 41 1 37 4
M  V30 42 1 38 5
M  V30 43 1 39 6
M  V30 44 1 40 7
M  V30 45 1 41 10
M  V30 46 1 42 10
M  V30 47 1 43 11
M  V30 48 1 44 11
M  V30 49 1 45 13
M  V30 50 1 46 13
M  V30 51 1 47 14
M  V30 52 1 48 14
M  V30 53 1 49 15
M  V30 54 1 50 15
M  V30 55 1 51 18
M  V30 56 1 52 19
M  V30 57 1 53 22
M  V30 58 1 54 24
M  V30 59 1 55 25
M  V30 60 1 56 26
M  V30 61 1 57 27
M  V30 62 1 58 30
M  V30 63 1 59 31
M  V30 64 1 60 32
M  V30 65 1 61 32
M  V30 66 1 62 33
M  V30 67 1 63 33
M  V30 END BOND
M  V30 END CTAB
M  END
>  <b_m_subgroup_collapsed>  (2359) 
0

>  <r_i_docking_score>  (2359) 
-5.7733794965238499

>  <s_m_subgroup_title>  (2359) 
glide-dock_SP_D22_pv

>  <s_m_subgroupid>  (2359) 
glide-dock_SP_D22_pv

>  <Molecule ChEMBL ID>  (2359) 
CHEMBL230872

>  <Standard Type>  (2359) 
Ki

>  <Standard Value>  (2359) 
49.0

>  <label>  (2359) 
1

$$$$
CHEMBL596885
     RDKit          3D

  0  0  0  0  0  0  0  0  0  0999 V3000
M  V30 BEGIN CTAB
M  V30 COUNTS 42 45 0 0 1
M  V30 BEGIN ATOM
M  V30 1 C 3.920313 -0.228403 -13.851398 0
M  V30 2 C 5.093402 -0.267966 -14.189651 0
M  V30 3 C 6.497466 -0.300112 -14.628341 0
M  V30 4 O 7.123515 0.919011 -14.247083 0
M  V30 5 C 8.335961 1.277091 -14.802845 0
M  V30 6 C 9.105008 0.359788 -15.558179 0
M  V30 7 C 10.366205 0.705372 -16.065145 0
M  V30 8 C 10.884985 1.981591 -15.813775 0
M  V30 9 C 10.125676 2.911226 -15.077549 0
M  V30 10 C 8.838062 2.592673 -14.583482 0
M  V30 11 C 8.093571 3.651327 -13.846459 0
M  V30 12 C 6.677794 3.658885 -13.720913 0
M  V30 13 C 5.971562 4.626597 -12.992129 0
M  V30 14 C 6.659462 5.682692 -12.385267 0
M  V30 15 C 8.053781 5.782941 -12.518202 0
M  V30 16 C 8.742358 4.770471 -13.247478 0
M  V30 17 C 10.277843 4.823422 -13.416870 0 CFG=1
M  V30 18 C 10.714289 4.272231 -14.793307 0
M  V30 19 N 10.854600 6.173336 -13.186328 0 CFG=2 CHG=1
M  V30 20 C 12.326946 6.277321 -13.349426 0
M  V30 21 C 10.362058 6.775215 -11.931173 0
M  V30 22 C 8.856647 6.974350 -12.014092 0
M  V30 23 H 2.885144 -0.187727 -13.593444 0
M  V30 24 H 6.987150 -1.154042 -14.157314 0
M  V30 25 H 6.492004 -0.440362 -15.711431 0
M  V30 26 H 8.743661 -0.628654 -15.760090 0
M  V30 27 H 10.938304 -0.012450 -16.635206 0
M  V30 28 H 11.866293 2.238381 -16.184114 0
M  V30 29 H 6.074778 2.909611 -14.204009 0
M  V30 30 H 4.894805 4.568986 -12.922451 0
M  V30 31 H 6.109241 6.440641 -11.846761 0
M  V30 32 H 10.683796 4.165356 -12.647974 0
M  V30 33 H 11.798961 4.188550 -14.859853 0
M  V30 34 H 10.398151 4.947559 -15.590630 0
M  V30 35 H 12.857250 5.450522 -12.877990 0
M  V30 36 H 12.713026 7.208529 -12.936135 0
M  V30 37 H 12.595098 6.275176 -14.404700 0
M  V30 38 H 10.603666 6.172275 -11.062684 0
M  V30 39 H 10.829399 7.747128 -11.761187 0
M  V30 40 H 8.625338 7.829637 -12.647093 0
M  V30 41 H 8.486122 7.244000 -11.025089 0
M  V30 42 H 10.470335 6.755435 -13.918094 0
M  V30 END ATOM
M  V30 BEGIN BOND
M  V30 1 3 2 1
M  V30 2 1 3 2
M  V30 3 1 4 3
M  V30 4 1 5 4
M  V30 5 2 6 5
M  V30 6 1 7 6
M  V30 7 2 8 7
M  V30 8 1 9 8
M  V30 9 1 10 5
M  V30 10 2 10 9
M  V30 11 1 11 10
M  V30 12 2 12 11
M  V30 13 1 13 12
M  V30 14 2 14 13
M  V30 15 1 15 14
M  V30 16 1 16 11
M  V30 17 2 16 15
M  V30 18 1 17 16
M  V30 19 1 18 9
M  V30 20 1 18 17
M  V30 21 1 19 17
M  V30 22 1 20 19
M  V30 23 1 21 19
M  V30 24 1 22 15
M  V30 25 1 22 21
M  V30 26 1 23 1
M  V30 27 1 24 3
M  V30 28 1 25 3
M  V30 29 1 26 6
M  V30 30 1 27 7
M  V30 31 1 28 8
M  V30 32 1 29 12
M  V30 33 1 30 13
M  V30 34 1 31 14
M  V30 35 1 17 32 CFG=1
M  V30 36 1 33 18
M  V30 37 1 34 18
M  V30 38 1 35 20
M  V30 39 1 36 20
M  V30 40 1 37 20
M  V30 41 1 38 21
M  V30 42 1 39 21
M  V30 43 1 40 22
M  V30 44 1 41 22
M  V30 45 1 19 42 CFG=3
M  V30 END BOND
M  V30 END CTAB
M  END
>  <b_m_subgroup_collapsed>  (2360) 
0

>  <r_i_docking_score>  (2360) 
-5.7732469804580004

>  <s_m_subgroup_title>  (2360) 
glide-dock_SP_D22_pv

>  <s_m_subgroupid>  (2360) 
glide-dock_SP_D22_pv

>  <Molecule ChEMBL ID>  (2360) 
CHEMBL596885

>  <Standard Type>  (2360) 
Ki

>  <Standard Value>  (2360) 
10000.0

>  <label>  (2360) 
0

$$$$
CHEMBL437792
     RDKit          3D

  0  0  0  0  0  0  0  0  0  0999 V3000
M  V30 BEGIN CTAB
M  V30 COUNTS 61 65 0 0 1
M  V30 BEGIN ATOM
M  V30 1 C 12.284359 8.509553 -9.342010 0
M  V30 2 C 11.340868 8.467997 -8.181969 0
M  V30 3 N 11.479815 9.309238 -7.085924 0
M  V30 4 C 10.488988 8.956551 -6.272514 0
M  V30 5 O 9.708160 7.951601 -6.747828 0
M  V30 6 C 10.260237 7.651638 -7.965009 0
M  V30 7 C 9.661515 6.584761 -8.754504 0
M  V30 8 N 9.448724 5.370987 -8.246998 0
M  V30 9 N 8.888737 4.622611 -9.251068 0
M  V30 10 C 8.781547 5.456086 -10.284143 0
M  V30 11 S 8.119357 4.972902 -11.843611 0
M  V30 12 C 9.682057 4.446400 -12.581911 0
M  V30 13 C 9.493988 4.028732 -14.042373 0
M  V30 14 C 10.840281 3.837928 -14.765687 0
M  V30 15 N 10.731462 3.221192 -16.117283 0 CFG=2 CHG=1
M  V30 16 C 12.082190 2.815762 -16.609251 0
M  V30 17 C 12.109705 2.019183 -17.928349 0
M  V30 18 C 10.872256 1.160346 -18.123732 0
M  V30 19 C 10.958591 -0.248368 -18.061810 0
M  V30 20 C 9.802055 -1.030702 -18.250143 0
M  V30 21 C 8.582196 -0.375537 -18.481533 0
M  V30 22 O 7.334624 -0.924833 -18.694025 0
M  V30 23 C 6.528862 0.171501 -18.854980 0
M  V30 24 C 5.067537 -0.072352 -19.073063 0
M  V30 25 C 4.365424 -0.549335 -17.794891 0
M  V30 26 F 4.473913 1.044890 -19.492157 0
M  V30 27 F 4.895684 -1.004689 -20.010712 0
M  V30 28 N 7.132307 1.368136 -18.736290 0
M  V30 29 C 8.457405 1.032625 -18.526381 0
M  V30 30 C 9.631642 1.804285 -18.355347 0
M  V30 31 C 9.602156 3.325587 -18.420237 0
M  V30 32 C 9.867682 3.998899 -17.057823 0
M  V30 33 N 9.261506 6.693847 -10.037568 0
M  V30 34 C 9.288155 7.859634 -10.904425 0
M  V30 35 H 12.195731 7.615561 -9.957284 0
M  V30 36 H 13.320688 8.572147 -9.007460 0
M  V30 37 H 12.085896 9.370730 -9.978013 0
M  V30 38 H 10.297402 9.415354 -5.314573 0
M  V30 39 H 10.388028 5.275471 -12.514076 0
M  V30 40 H 10.085541 3.621479 -11.995523 0
M  V30 41 H 8.908137 3.109543 -14.080501 0
M  V30 42 H 8.908886 4.801833 -14.540557 0
M  V30 43 H 11.357248 4.796550 -14.846091 0
M  V30 44 H 11.469078 3.201357 -14.140584 0
M  V30 45 H 12.753781 3.674086 -16.667732 0
M  V30 46 H 12.485997 2.153833 -15.847137 0
M  V30 47 H 12.226882 2.690073 -18.778559 0
M  V30 48 H 13.003163 1.392691 -17.947809 0
M  V30 49 H 11.907397 -0.731343 -17.876730 0
M  V30 50 H 9.844765 -2.108725 -18.222073 0
M  V30 51 H 3.297567 -0.692599 -17.963341 0
M  V30 52 H 4.486361 0.171380 -16.986948 0
M  V30 53 H 4.775905 -1.499417 -17.451921 0
M  V30 54 H 10.322584 3.670024 -19.161829 0
M  V30 55 H 8.639444 3.662189 -18.806089 0
M  V30 56 H 8.886836 4.097031 -16.595730 0
M  V30 57 H 10.251635 5.010385 -17.197992 0
M  V30 58 H 8.488152 7.800746 -11.643229 0
M  V30 59 H 10.248552 7.919761 -11.418665 0
M  V30 60 H 9.135557 8.764809 -10.318015 0
M  V30 61 H 10.240171 2.346990 -15.987817 0
M  V30 END ATOM
M  V30 BEGIN BOND
M  V30 1 1 2 1
M  V30 2 1 3 2
M  V30 3 2 4 3
M  V30 4 1 5 4
M  V30 5 2 6 2
M  V30 6 1 6 5
M  V30 7 1 7 6
M  V30 8 2 8 7
M  V30 9 1 9 8
M  V30 10 2 10 9
M  V30 11 1 11 10
M  V30 12 1 12 11
M  V30 13 1 13 12
M  V30 14 1 14 13
M  V30 15 1 15 14
M  V30 16 1 16 15
M  V30 17 1 17 16
M  V30 18 1 18 17
M  V30 19 1 19 18
M  V30 20 2 20 19
M  V30 21 1 21 20
M  V30 22 1 22 21
M  V30 23 1 23 22
M  V30 24 1 24 23
M  V30 25 1 25 24
M  V30 26 1 26 24
M  V30 27 1 27 24
M  V30 28 2 28 23
M  V30 29 2 29 21
M  V30 30 1 29 28
M  V30 31 2 30 18
M  V30 32 1 30 29
M  V30 33 1 31 30
M  V30 34 1 32 15
M  V30 35 1 32 31
M  V30 36 1 33 7
M  V30 37 1 33 10
M  V30 38 1 34 33
M  V30 39 1 35 1
M  V30 40 1 36 1
M  V30 41 1 37 1
M  V30 42 1 38 4
M  V30 43 1 39 12
M  V30 44 1 40 12
M  V30 45 1 41 13
M  V30 46 1 42 13
M  V30 47 1 43 14
M  V30 48 1 44 14
M  V30 49 1 45 16
M  V30 50 1 46 16
M  V30 51 1 47 17
M  V30 52 1 48 17
M  V30 53 1 49 19
M  V30 54 1 50 20
M  V30 55 1 51 25
M  V30 56 1 52 25
M  V30 57 1 53 25
M  V30 58 1 54 31
M  V30 59 1 55 31
M  V30 60 1 56 32
M  V30 61 1 57 32
M  V30 62 1 58 34
M  V30 63 1 59 34
M  V30 64 1 60 34
M  V30 65 1 15 61 CFG=1
M  V30 END BOND
M  V30 END CTAB
M  END
>  <b_m_subgroup_collapsed>  (2361) 
0

>  <r_i_docking_score>  (2361) 
-5.76974278427301

>  <s_m_subgroup_title>  (2361) 
glide-dock_SP_D22_pv

>  <s_m_subgroupid>  (2361) 
glide-dock_SP_D22_pv

>  <Molecule ChEMBL ID>  (2361) 
CHEMBL437792

>  <Standard Type>  (2361) 
Ki

>  <Standard Value>  (2361) 
15.85

>  <label>  (2361) 
1

$$$$
CHEMBL5273758
     RDKit          3D

  0  0  0  0  0  0  0  0  0  0999 V3000
M  V30 BEGIN CTAB
M  V30 COUNTS 43 46 0 0 1
M  V30 BEGIN ATOM
M  V30 1 C 5.249930 3.806029 -12.855826 0
M  V30 2 N 6.686713 3.483150 -13.006108 0 CFG=1 CHG=1
M  V30 3 C 6.963116 2.596423 -14.187649 0
M  V30 4 C 8.481306 2.352715 -14.490317 0
M  V30 5 C 9.270526 3.677110 -14.464109 0 CFG=2
M  V30 6 C 10.774724 3.654254 -14.685742 0
M  V30 7 C 11.571157 4.616799 -14.161057 0
M  V30 8 O 12.885940 4.578215 -14.404716 0
M  V30 9 C 11.007250 5.669879 -13.305750 0
M  V30 10 O 11.688943 6.797832 -13.058839 0
M  V30 11 C 9.782826 5.480484 -12.767720 0
M  V30 12 C 8.915206 6.375222 -11.893212 0 CFG=2
M  V30 13 C 9.553360 6.829369 -10.583106 0
M  V30 14 C 10.023326 8.156466 -10.468543 0
M  V30 15 C 10.613161 8.608753 -9.273457 0
M  V30 16 C 10.722394 7.740492 -8.171390 0
M  V30 17 C 10.253123 6.416886 -8.272057 0
M  V30 18 C 9.685797 5.957553 -9.477514 0
M  V30 19 C 7.590170 5.557784 -11.733532 0
M  V30 20 C 7.547004 4.692755 -12.997818 0 CFG=1
M  V30 21 C 8.986336 4.264732 -13.094085 0 CFG=1
M  V30 22 H 4.900716 4.436071 -13.676479 0
M  V30 23 H 5.073548 4.334630 -11.917059 0
M  V30 24 H 4.648163 2.895658 -12.839017 0
M  V30 25 H 6.465070 1.637715 -14.036966 0
M  V30 26 H 6.490470 3.047091 -15.054001 0
M  V30 27 H 8.898128 1.658672 -13.759250 0
M  V30 28 H 8.594682 1.870032 -15.461698 0
M  V30 29 H 8.885678 4.331928 -15.246126 0
M  V30 30 H 11.183144 2.880663 -15.320223 0
M  V30 31 H 13.324598 5.169235 -13.809484 0
M  V30 32 H 12.447422 6.810987 -13.622810 0
M  V30 33 H 8.685325 7.258027 -12.489480 0
M  V30 34 H 9.934149 8.832797 -11.305154 0
M  V30 35 H 10.978784 9.623389 -9.201404 0
M  V30 36 H 11.166625 8.086343 -7.249071 0
M  V30 37 H 10.337774 5.752698 -7.426906 0
M  V30 38 H 9.354584 4.933970 -9.537129 0
M  V30 39 H 7.626760 4.901469 -10.862833 0
M  V30 40 H 6.702957 6.172291 -11.625511 0
M  V30 41 H 7.285700 5.325453 -13.847156 0
M  V30 42 H 9.226153 3.538485 -12.311257 0
M  V30 43 H 6.946530 2.957982 -12.184017 0
M  V30 END ATOM
M  V30 BEGIN BOND
M  V30 1 1 2 1
M  V30 2 1 3 2
M  V30 3 1 4 3
M  V30 4 1 5 4
M  V30 5 1 6 5
M  V30 6 2 7 6
M  V30 7 1 8 7
M  V30 8 1 9 7
M  V30 9 1 10 9
M  V30 10 2 11 9
M  V30 11 1 12 11
M  V30 12 1 13 12
M  V30 13 2 14 13
M  V30 14 1 15 14
M  V30 15 2 16 15
M  V30 16 1 17 16
M  V30 17 1 18 13
M  V30 18 2 18 17
M  V30 19 1 19 12
M  V30 20 1 20 2
M  V30 21 1 20 19
M  V30 22 1 21 5
M  V30 23 1 21 11
M  V30 24 1 21 20
M  V30 25 1 22 1
M  V30 26 1 23 1
M  V30 27 1 24 1
M  V30 28 1 25 3
M  V30 29 1 26 3
M  V30 30 1 27 4
M  V30 31 1 28 4
M  V30 32 1 5 29 CFG=3
M  V30 33 1 30 6
M  V30 34 1 31 8
M  V30 35 1 32 10
M  V30 36 1 12 33 CFG=3
M  V30 37 1 34 14
M  V30 38 1 35 15
M  V30 39 1 36 16
M  V30 40 1 37 17
M  V30 41 1 38 18
M  V30 42 1 39 19
M  V30 43 1 40 19
M  V30 44 1 20 41 CFG=3
M  V30 45 1 21 42 CFG=1
M  V30 46 1 2 43 CFG=1
M  V30 END BOND
M  V30 END CTAB
M  END
>  <b_m_subgroup_collapsed>  (2362) 
0

>  <r_i_docking_score>  (2362) 
-5.7688725446781302

>  <s_m_subgroup_title>  (2362) 
glide-dock_SP_D22_pv

>  <s_m_subgroupid>  (2362) 
glide-dock_SP_D22_pv

>  <Molecule ChEMBL ID>  (2362) 
CHEMBL5273758

>  <Standard Type>  (2362) 
Ki

>  <Standard Value>  (2362) 
12.88

>  <label>  (2362) 
1

$$$$
CHEMBL493
     RDKit          3D

  0  0  0  0  0  0  0  0  0  0999 V3000
M  V30 BEGIN CTAB
M  V30 COUNTS 83 89 0 0 1
M  V30 BEGIN ATOM
M  V30 1 C 9.011594 -1.580028 -20.648806 0
M  V30 2 C 8.734723 -2.375067 -21.938782 0
M  V30 3 C 8.065028 -1.519967 -23.024940 0
M  V30 4 C 8.056467 -3.753547 -21.740580 0
M  V30 5 C 6.558859 -3.851708 -21.328072 0 CFG=1
M  V30 6 C 6.050624 -5.305840 -21.449408 0
M  V30 7 O 6.092269 -5.867115 -22.543360 0
M  V30 8 N 5.605884 -5.934544 -20.342920 0
M  V30 9 C 5.300320 -7.361289 -20.251747 0
M  V30 10 C 5.117980 -7.660794 -18.750942 0
M  V30 11 C 5.762615 -6.476736 -18.026707 0
M  V30 12 C 5.503524 -5.342918 -19.019466 0 CFG=1
M  V30 13 C 6.294710 -4.031460 -18.802843 0 CFG=2
M  V30 14 O 7.614064 -4.250124 -18.353840 0
M  V30 15 O 5.580236 -3.272894 -17.875147 0
M  V30 16 C 5.559211 -1.926683 -18.250345 0 CFG=2
M  V30 17 N 6.567477 -1.258745 -17.450758 0
M  V30 18 C 6.949876 0.024907 -17.557167 0
M  V30 19 O 6.462678 0.834771 -18.346359 0
M  V30 20 C 8.046211 0.464417 -16.583418 0 CFG=2
M  V30 21 C 7.503678 1.289657 -15.434454 0
M  V30 22 C 8.105597 2.411375 -15.002756 0
M  V30 23 C 7.520636 3.297297 -13.985892 0
M  V30 24 C 6.190682 3.244276 -13.507713 0
M  V30 25 C 5.713876 4.211562 -12.607778 0
M  V30 26 C 6.565809 5.241774 -12.175440 0
M  V30 27 C 7.876617 5.289647 -12.603346 0
M  V30 28 N 8.891397 6.164913 -12.328793 0
M  V30 29 C 10.016147 5.772512 -13.032521 0
M  V30 30 Br 11.685884 6.687010 -13.047234 0
M  V30 31 C 9.691697 4.649341 -13.733520 0
M  V30 32 C 8.340407 4.324012 -13.487761 0
M  V30 33 C 10.367625 3.649719 -14.637870 0
M  V30 34 C 9.422843 2.899822 -15.628991 0 CFG=1
M  V30 35 N 10.117818 1.884932 -16.440819 0
M  V30 36 C 10.844446 0.888745 -15.658582 0
M  V30 37 C 9.165893 1.227770 -17.340122 0
M  V30 38 C 4.116617 -1.380280 -17.993565 0
M  V30 39 C 3.811632 -1.271134 -16.485758 0
M  V30 40 C 3.073003 -2.271007 -18.699593 0
M  V30 41 C 5.872550 -2.012507 -19.752005 0
M  V30 42 O 5.696760 -1.096126 -20.554379 0
M  V30 43 N 6.277908 -3.252831 -20.011381 0
M  V30 44 H 8.268162 -0.803460 -20.476078 0
M  V30 45 H 9.028383 -2.223138 -19.769236 0
M  V30 46 H 9.975340 -1.072340 -20.708279 0
M  V30 47 H 9.723389 -2.619440 -22.328991 0
M  V30 48 H 7.060983 -1.212343 -22.738779 0
M  V30 49 H 8.642510 -0.616410 -23.221159 0
M  V30 50 H 7.984909 -2.068875 -23.963001 0
M  V30 51 H 8.645617 -4.349951 -21.047007 0
M  V30 52 H 8.170881 -4.277444 -22.690441 0
M  V30 53 H 5.976112 -3.294895 -22.064690 0
M  V30 54 H 4.405696 -7.609863 -20.824776 0
M  V30 55 H 6.133622 -7.938372 -20.655949 0
M  V30 56 H 4.051587 -7.690550 -18.512512 0
M  V30 57 H 5.550207 -8.618967 -18.456150 0
M  V30 58 H 5.322555 -6.289780 -17.046247 0
M  V30 59 H 6.829250 -6.666579 -17.901461 0
M  V30 60 H 4.448469 -5.071157 -18.938686 0
M  V30 61 H 7.553883 -4.681281 -17.514208 0
M  V30 62 H 7.008398 -1.836343 -16.742903 0
M  V30 63 H 8.475723 -0.432783 -16.137735 0
M  V30 64 H 6.576199 0.949745 -15.001078 0
M  V30 65 H 5.511748 2.478204 -13.847072 0
M  V30 66 H 4.696368 4.171392 -12.254731 0
M  V30 67 H 6.199090 5.987539 -11.482578 0
M  V30 68 H 8.820749 6.968022 -11.718550 0
M  V30 69 H 11.161204 4.139850 -15.201826 0
M  V30 70 H 10.867339 2.933464 -13.986730 0
M  V30 71 H 9.099307 3.666223 -16.335108 0
M  V30 72 H 11.256791 0.115631 -16.305254 0
M  V30 73 H 11.685663 1.357980 -15.157355 0
M  V30 74 H 10.221735 0.415338 -14.899496 0
M  V30 75 H 9.702664 0.546999 -18.001808 0
M  V30 76 H 8.734555 1.995053 -17.984924 0
M  V30 77 H 4.054916 -0.380658 -18.425730 0
M  V30 78 H 3.942928 -2.228267 -15.981660 0
M  V30 79 H 4.449494 -0.539930 -15.991325 0
M  V30 80 H 2.782445 -0.957497 -16.319746 0
M  V30 81 H 3.009806 -3.259633 -18.246853 0
M  V30 82 H 2.085936 -1.827799 -18.646885 0
M  V30 83 H 3.285691 -2.408849 -19.759645 0
M  V30 END ATOM
M  V30 BEGIN BOND
M  V30 1 1 2 1
M  V30 2 1 3 2
M  V30 3 1 4 2
M  V30 4 1 5 4
M  V30 5 1 6 5
M  V30 6 2 7 6
M  V30 7 1 8 6
M  V30 8 1 9 8
M  V30 9 1 10 9
M  V30 10 1 11 10
M  V30 11 1 12 8
M  V30 12 1 12 11
M  V30 13 1 13 12
M  V30 14 1 13 14 CFG=1
M  V30 15 1 15 13
M  V30 16 1 16 15
M  V30 17 1 16 17 CFG=1
M  V30 18 1 18 17
M  V30 19 2 19 18
M  V30 20 1 20 18
M  V30 21 1 21 20
M  V30 22 2 22 21
M  V30 23 1 23 22
M  V30 24 1 24 23
M  V30 25 2 25 24
M  V30 26 1 26 25
M  V30 27 2 27 26
M  V30 28 1 28 27
M  V30 29 1 29 28
M  V30 30 1 30 29
M  V30 31 2 31 29
M  V30 32 2 32 23
M  V30 33 1 32 27
M  V30 34 1 32 31
M  V30 35 1 33 31
M  V30 36 1 34 22
M  V30 37 1 34 33
M  V30 38 1 35 34
M  V30 39 1 36 35
M  V30 40 1 37 20
M  V30 41 1 37 35
M  V30 42 1 38 16
M  V30 43 1 39 38
M  V30 44 1 40 38
M  V30 45 1 41 16
M  V30 46 2 42 41
M  V30 47 1 43 5
M  V30 48 1 43 13
M  V30 49 1 43 41
M  V30 50 1 44 1
M  V30 51 1 45 1
M  V30 52 1 46 1
M  V30 53 1 47 2
M  V30 54 1 48 3
M  V30 55 1 49 3
M  V30 56 1 50 3
M  V30 57 1 51 4
M  V30 58 1 52 4
M  V30 59 1 5 53 CFG=3
M  V30 60 1 54 9
M  V30 61 1 55 9
M  V30 62 1 56 10
M  V30 63 1 57 10
M  V30 64 1 58 11
M  V30 65 1 59 11
M  V30 66 1 12 60 CFG=1
M  V30 67 1 61 14
M  V30 68 1 62 17
M  V30 69 1 20 63 CFG=1
M  V30 70 1 64 21
M  V30 71 1 65 24
M  V30 72 1 66 25
M  V30 73 1 67 26
M  V30 74 1 68 28
M  V30 75 1 69 33
M  V30 76 1 70 33
M  V30 77 1 34 71 CFG=3
M  V30 78 1 72 36
M  V30 79 1 73 36
M  V30 80 1 74 36
M  V30 81 1 75 37
M  V30 82 1 76 37
M  V30 83 1 77 38
M  V30 84 1 78 39
M  V30 85 1 79 39
M  V30 86 1 80 39
M  V30 87 1 81 40
M  V30 88 1 82 40
M  V30 89 1 83 40
M  V30 END BOND
M  V30 END CTAB
M  END
>  <b_m_subgroup_collapsed>  (2363) 
0

>  <r_i_docking_score>  (2363) 
-5.7676950437530996

>  <s_m_subgroup_title>  (2363) 
glide-dock_SP_D22_pv

>  <s_m_subgroupid>  (2363) 
glide-dock_SP_D22_pv

>  <Molecule ChEMBL ID>  (2363) 
CHEMBL493

>  <Standard Type>  (2363) 
Ki

>  <Standard Value>  (2363) 
0.527

>  <label>  (2363) 
1

$$$$
CHEMBL4100358
     RDKit          3D

  0  0  0  0  0  0  0  0  0  0999 V3000
M  V30 BEGIN CTAB
M  V30 COUNTS 35 36 0 0 1
M  V30 BEGIN ATOM
M  V30 1 C 7.351377 5.486328 -12.151069 0
M  V30 2 C 8.706407 4.860848 -11.797997 0
M  V30 3 C 9.184426 5.179490 -10.366957 0
M  V30 4 C 9.445519 6.672868 -10.056351 0 CFG=2
M  V30 5 C 10.404632 7.372530 -11.043496 0
M  V30 6 N 9.961843 6.797627 -8.693383 0
M  V30 7 C 9.931310 7.919733 -7.959111 0
M  V30 8 O 9.438328 8.972457 -8.359858 0
M  V30 9 C 10.587046 7.856168 -6.638854 0
M  V30 10 C 11.081403 6.818116 -5.891523 0
M  V30 11 C 11.535764 7.370360 -4.645478 0
M  V30 12 C 12.085364 6.837803 -3.453349 0
M  V30 13 C 12.423483 7.663192 -2.363397 0
M  V30 14 C 12.219607 9.052769 -2.444849 0
M  V30 15 C 11.665784 9.610831 -3.609365 0
M  V30 16 C 11.331309 8.778914 -4.692235 0
M  V30 17 N 10.761480 9.029884 -5.923885 0
M  V30 18 H 7.032375 5.190037 -13.148926 0
M  V30 19 H 6.580379 5.175064 -11.446894 0
M  V30 20 H 7.397903 6.574631 -12.132580 0
M  V30 21 H 9.457401 5.164285 -12.527037 0
M  V30 22 H 8.624643 3.778743 -11.903264 0
M  V30 23 H 10.086136 4.597474 -10.172433 0
M  V30 24 H 8.439876 4.798745 -9.665796 0
M  V30 25 H 8.486402 7.189118 -10.093557 0
M  V30 26 H 10.055454 7.294259 -12.072468 0
M  V30 27 H 10.478372 8.438925 -10.825516 0
M  V30 28 H 11.414259 6.970523 -10.993238 0
M  V30 29 H 10.366927 5.974313 -8.272462 0
M  V30 30 H 11.100635 5.773164 -6.159836 0
M  V30 31 H 12.236776 5.773912 -3.374816 0
M  V30 32 H 12.825911 7.236933 -1.453095 0
M  V30 33 H 12.474434 9.687813 -1.610173 0
M  V30 34 H 11.465127 10.666439 -3.654933 0
M  V30 35 H 10.467281 9.922860 -6.289611 0
M  V30 END ATOM
M  V30 BEGIN BOND
M  V30 1 1 2 1
M  V30 2 1 3 2
M  V30 3 1 4 3
M  V30 4 1 5 4
M  V30 5 1 6 4
M  V30 6 1 7 6
M  V30 7 2 8 7
M  V30 8 1 9 7
M  V30 9 2 10 9
M  V30 10 1 11 10
M  V30 11 2 12 11
M  V30 12 1 13 12
M  V30 13 2 14 13
M  V30 14 1 15 14
M  V30 15 1 16 11
M  V30 16 2 16 15
M  V30 17 1 17 9
M  V30 18 1 17 16
M  V30 19 1 18 1
M  V30 20 1 19 1
M  V30 21 1 20 1
M  V30 22 1 21 2
M  V30 23 1 22 2
M  V30 24 1 23 3
M  V30 25 1 24 3
M  V30 26 1 4 25 CFG=1
M  V30 27 1 26 5
M  V30 28 1 27 5
M  V30 29 1 28 5
M  V30 30 1 29 6
M  V30 31 1 30 10
M  V30 32 1 31 12
M  V30 33 1 32 13
M  V30 34 1 33 14
M  V30 35 1 34 15
M  V30 36 1 35 17
M  V30 END BOND
M  V30 END CTAB
M  END
>  <b_m_subgroup_collapsed>  (2364) 
0

>  <r_i_docking_score>  (2364) 
-5.76549935655928

>  <s_m_subgroup_title>  (2364) 
glide-dock_SP_D22_pv

>  <s_m_subgroupid>  (2364) 
glide-dock_SP_D22_pv

>  <Molecule ChEMBL ID>  (2364) 
CHEMBL4100358

>  <Standard Type>  (2364) 
Ki

>  <Standard Value>  (2364) 
30000.0

>  <label>  (2364) 
0

$$$$
CHEMBL543109
     RDKit          3D

  0  0  0  0  0  0  0  0  0  0999 V3000
M  V30 BEGIN CTAB
M  V30 COUNTS 37 40 0 0 1
M  V30 BEGIN ATOM
M  V30 1 O 9.813288 3.920897 -15.413561 0
M  V30 2 C 10.368860 4.771285 -14.720243 0
M  V30 3 C 9.928011 5.289695 -13.452740 0
M  V30 4 C 10.850275 6.172380 -13.046941 0
M  V30 5 C 10.814305 6.973205 -11.807878 0
M  V30 6 C 9.675785 6.975679 -10.969840 0
M  V30 7 C 9.684978 7.699697 -9.760907 0
M  V30 8 C 10.830462 8.422071 -9.379414 0
M  V30 9 C 11.964547 8.423209 -10.211146 0
M  V30 10 C 11.955853 7.711943 -11.425788 0
M  V30 11 O 11.891936 6.315152 -13.928308 0
M  V30 12 C 11.702918 5.440357 -15.045981 0 CFG=1
M  V30 13 C 12.878297 4.427008 -15.103374 0
M  V30 14 N 13.637962 4.572560 -16.378122 0 CFG=2 CHG=1
M  V30 15 C 14.204609 5.946536 -16.478676 0
M  V30 16 C 13.058257 6.991138 -16.479055 0
M  V30 17 C 11.699003 6.261070 -16.367376 0 CFG=1
M  V30 18 C 11.605833 5.320845 -17.596010 0
M  V30 19 C 12.755887 4.282088 -17.540691 0
M  V30 20 H 9.013387 4.994078 -12.961912 0
M  V30 21 H 8.781619 6.429414 -11.232906 0
M  V30 22 H 8.807231 7.698624 -9.129089 0
M  V30 23 H 10.837083 8.976386 -8.452247 0
M  V30 24 H 12.844571 8.971706 -9.917607 0
M  V30 25 H 12.837573 7.719925 -12.050252 0
M  V30 26 H 13.552499 4.574339 -14.257601 0
M  V30 27 H 12.521940 3.398277 -15.023641 0
M  V30 28 H 14.882164 6.125806 -15.642430 0
M  V30 29 H 14.803221 6.033075 -17.386185 0
M  V30 30 H 13.092780 7.587644 -17.392008 0
M  V30 31 H 13.186973 7.694386 -15.655426 0
M  V30 32 H 10.885147 6.972240 -16.375332 0
M  V30 33 H 11.680543 5.904923 -18.513176 0
M  V30 34 H 10.639060 4.820055 -17.649200 0
M  V30 35 H 13.339211 4.304926 -18.462708 0
M  V30 36 H 12.354860 3.269745 -17.449888 0
M  V30 37 H 14.403607 3.906037 -16.359175 0
M  V30 END ATOM
M  V30 BEGIN BOND
M  V30 1 2 2 1
M  V30 2 1 3 2
M  V30 3 2 4 3
M  V30 4 1 5 4
M  V30 5 2 6 5
M  V30 6 1 7 6
M  V30 7 2 8 7
M  V30 8 1 9 8
M  V30 9 1 10 5
M  V30 10 2 10 9
M  V30 11 1 11 4
M  V30 12 1 12 2
M  V30 13 1 12 11 CFG=1
M  V30 14 1 13 12
M  V30 15 1 14 13
M  V30 16 1 15 14
M  V30 17 1 16 15
M  V30 18 1 17 12
M  V30 19 1 17 16
M  V30 20 1 18 17
M  V30 21 1 19 14
M  V30 22 1 19 18
M  V30 23 1 20 3
M  V30 24 1 21 6
M  V30 25 1 22 7
M  V30 26 1 23 8
M  V30 27 1 24 9
M  V30 28 1 25 10
M  V30 29 1 26 13
M  V30 30 1 27 13
M  V30 31 1 28 15
M  V30 32 1 29 15
M  V30 33 1 30 16
M  V30 34 1 31 16
M  V30 35 1 17 32 CFG=3
M  V30 36 1 33 18
M  V30 37 1 34 18
M  V30 38 1 35 19
M  V30 39 1 36 19
M  V30 40 1 14 37 CFG=3
M  V30 END BOND
M  V30 END CTAB
M  END
>  <b_m_subgroup_collapsed>  (2365) 
0

>  <r_i_docking_score>  (2365) 
-5.7640259901040602

>  <s_m_subgroup_title>  (2365) 
glide-dock_SP_D22_pv

>  <s_m_subgroupid>  (2365) 
glide-dock_SP_D22_pv

>  <Molecule ChEMBL ID>  (2365) 
CHEMBL543109

>  <Standard Type>  (2365) 
Ki

>  <Standard Value>  (2365) 
10000.0

>  <label>  (2365) 
0

$$$$
CHEMBL380464
     RDKit          3D

  0  0  0  0  0  0  0  0  0  0999 V3000
M  V30 BEGIN CTAB
M  V30 COUNTS 42 44 0 0 1
M  V30 BEGIN ATOM
M  V30 1 C 10.247550 4.850545 -16.829903 0
M  V30 2 N 11.582191 4.310438 -16.480295 0 CFG=2 CHG=1
M  V30 3 C 11.932136 2.975599 -17.043015 0
M  V30 4 C 11.157092 1.745484 -16.518517 0
M  V30 5 C 9.668300 1.731377 -16.835442 0
M  V30 6 C 9.321614 1.502766 -18.186302 0
M  V30 7 C 7.980484 1.363521 -18.578667 0
M  V30 8 C 6.966498 1.442020 -17.613832 0
M  V30 9 C 7.298182 1.697662 -16.272875 0
M  V30 10 C 8.639472 1.864951 -15.854166 0
M  V30 11 C 8.899432 2.072409 -14.353896 0
M  V30 12 C 8.805703 3.509912 -13.792143 0
M  V30 13 C 9.967078 4.325563 -13.605067 0
M  V30 14 C 9.848602 5.597452 -13.006818 0
M  V30 15 C 8.612228 6.079991 -12.560761 0
M  V30 16 C 7.464513 5.292500 -12.716733 0
M  V30 17 O 6.274377 5.772827 -12.246951 0
M  V30 18 C 7.549512 4.022096 -13.335990 0
M  V30 19 Cl 6.086448 3.099711 -13.445759 0
M  V30 20 C 11.395709 3.891312 -13.922374 0
M  V30 21 C 12.078156 4.609972 -15.108558 0
M  V30 22 H 9.441031 4.392080 -16.270006 0
M  V30 23 H 10.037905 4.706662 -17.889362 0
M  V30 24 H 10.215558 5.920447 -16.635439 0
M  V30 25 H 11.819482 3.029634 -18.126238 0
M  V30 26 H 12.996910 2.810292 -16.875046 0
M  V30 27 H 11.570882 0.875126 -17.029608 0
M  V30 28 H 11.366724 1.514211 -15.483721 0
M  V30 29 H 10.093844 1.401978 -18.935034 0
M  V30 30 H 7.735564 1.168322 -19.612278 0
M  V30 31 H 5.932768 1.306704 -17.898615 0
M  V30 32 H 6.492938 1.720098 -15.561233 0
M  V30 33 H 8.153966 1.462641 -13.846889 0
M  V30 34 H 9.818428 1.588317 -14.040368 0
M  V30 35 H 10.727231 6.206071 -12.848076 0
M  V30 36 H 8.552736 7.048779 -12.085958 0
M  V30 37 H 6.363439 6.472672 -11.601861 0
M  V30 38 H 11.976938 4.173053 -13.046943 0
M  V30 39 H 11.523358 2.817867 -13.936886 0
M  V30 40 H 13.141691 4.369871 -15.086138 0
M  V30 41 H 12.030030 5.687760 -14.954336 0
M  V30 42 H 12.178768 4.909608 -17.034210 0
M  V30 END ATOM
M  V30 BEGIN BOND
M  V30 1 1 2 1
M  V30 2 1 3 2
M  V30 3 1 4 3
M  V30 4 1 5 4
M  V30 5 2 6 5
M  V30 6 1 7 6
M  V30 7 2 8 7
M  V30 8 1 9 8
M  V30 9 1 10 5
M  V30 10 2 10 9
M  V30 11 1 11 10
M  V30 12 1 12 11
M  V30 13 2 13 12
M  V30 14 1 14 13
M  V30 15 2 15 14
M  V30 16 1 16 15
M  V30 17 1 17 16
M  V30 18 1 18 12
M  V30 19 2 18 16
M  V30 20 1 19 18
M  V30 21 1 20 13
M  V30 22 1 21 2
M  V30 23 1 21 20
M  V30 24 1 22 1
M  V30 25 1 23 1
M  V30 26 1 24 1
M  V30 27 1 25 3
M  V30 28 1 26 3
M  V30 29 1 27 4
M  V30 30 1 28 4
M  V30 31 1 29 6
M  V30 32 1 30 7
M  V30 33 1 31 8
M  V30 34 1 32 9
M  V30 35 1 33 11
M  V30 36 1 34 11
M  V30 37 1 35 14
M  V30 38 1 36 15
M  V30 39 1 37 17
M  V30 40 1 38 20
M  V30 41 1 39 20
M  V30 42 1 40 21
M  V30 43 1 41 21
M  V30 44 1 2 42 CFG=3
M  V30 END BOND
M  V30 END CTAB
M  END
>  <b_m_subgroup_collapsed>  (2366) 
0

>  <r_i_docking_score>  (2366) 
-5.7627234059499504

>  <s_m_subgroup_title>  (2366) 
glide-dock_SP_D22_pv

>  <s_m_subgroupid>  (2366) 
glide-dock_SP_D22_pv

>  <Molecule ChEMBL ID>  (2366) 
CHEMBL380464

>  <Standard Type>  (2366) 
Ki

>  <Standard Value>  (2366) 
0.13

>  <label>  (2366) 
1

$$$$
CHEMBL5781514
     RDKit          3D

  0  0  0  0  0  0  0  0  0  0999 V3000
M  V30 BEGIN CTAB
M  V30 COUNTS 45 47 0 0 1
M  V30 BEGIN ATOM
M  V30 1 C 9.414017 8.973069 -8.327087 0
M  V30 2 C 9.836099 7.531619 -8.001749 0 CFG=1
M  V30 3 O 11.136836 7.468253 -7.415533 0
M  V30 4 C 11.286034 7.835495 -6.095050 0
M  V30 5 C 11.563711 6.832485 -5.139750 0
M  V30 6 C 11.914128 7.172117 -3.819313 0
M  V30 7 C 11.982286 8.525106 -3.439502 0
M  V30 8 Cl 12.485826 8.946421 -1.847232 0
M  V30 9 C 11.654053 9.530440 -4.369051 0
M  V30 10 C 11.327383 9.190666 -5.697089 0
M  V30 11 C 8.806939 6.754075 -7.154327 0
M  V30 12 C 8.324481 5.610480 -8.044716 0
M  V30 13 N 8.576612 6.064874 -9.420651 0 CFG=2 CHG=1
M  V30 14 C 8.509771 5.005241 -10.453773 0
M  V30 15 C 8.296748 5.604374 -11.856954 0
M  V30 16 N 8.191782 4.544626 -12.866759 0
M  V30 17 C 9.404567 4.029453 -13.364611 0
M  V30 18 C 9.435542 3.024568 -14.254048 0
M  V30 19 C 8.181018 2.474650 -14.706427 0
M  V30 20 C 7.014998 2.966303 -14.240309 0
M  V30 21 C 6.975329 4.055384 -13.258193 0
M  V30 22 O 5.914183 4.494020 -12.813049 0
M  V30 23 C 9.874743 6.759908 -9.334184 0
M  V30 24 H 8.485834 8.994147 -8.898046 0
M  V30 25 H 9.246713 9.566315 -7.439886 0
M  V30 26 H 10.174994 9.471280 -8.926361 0
M  V30 27 H 11.560451 5.788990 -5.431735 0
M  V30 28 H 12.151889 6.396172 -3.107225 0
M  V30 29 H 11.684328 10.568155 -4.069613 0
M  V30 30 H 11.165552 9.980851 -6.414619 0
M  V30 31 H 9.190185 6.340198 -6.225327 0
M  V30 32 H 7.989457 7.414928 -6.870580 0
M  V30 33 H 8.914243 4.713549 -7.847821 0
M  V30 34 H 7.286032 5.372678 -7.846756 0
M  V30 35 H 9.414551 4.394472 -10.424585 0
M  V30 36 H 7.685893 4.331257 -10.228436 0
M  V30 37 H 7.409245 6.242147 -11.859345 0
M  V30 38 H 9.122487 6.267418 -12.116478 0
M  V30 39 H 10.298314 4.489462 -12.967675 0
M  V30 40 H 10.375986 2.632801 -14.616188 0
M  V30 41 H 8.175220 1.665560 -15.422000 0
M  V30 42 H 6.086211 2.542274 -14.588436 0
M  V30 43 H 10.055047 7.400086 -10.198816 0
M  V30 44 H 10.676931 6.021204 -9.307512 0
M  V30 45 H 7.849970 6.750148 -9.632288 0
M  V30 END ATOM
M  V30 BEGIN BOND
M  V30 1 1 2 1
M  V30 2 1 2 3 CFG=1
M  V30 3 1 4 3
M  V30 4 1 5 4
M  V30 5 2 6 5
M  V30 6 1 7 6
M  V30 7 1 8 7
M  V30 8 2 9 7
M  V30 9 2 10 4
M  V30 10 1 10 9
M  V30 11 1 11 2
M  V30 12 1 12 11
M  V30 13 1 13 12
M  V30 14 1 14 13
M  V30 15 1 15 14
M  V30 16 1 16 15
M  V30 17 1 17 16
M  V30 18 2 18 17
M  V30 19 1 19 18
M  V30 20 2 20 19
M  V30 21 1 21 16
M  V30 22 1 21 20
M  V30 23 2 22 21
M  V30 24 1 23 2
M  V30 25 1 23 13
M  V30 26 1 24 1
M  V30 27 1 25 1
M  V30 28 1 26 1
M  V30 29 1 27 5
M  V30 30 1 28 6
M  V30 31 1 29 9
M  V30 32 1 30 10
M  V30 33 1 31 11
M  V30 34 1 32 11
M  V30 35 1 33 12
M  V30 36 1 34 12
M  V30 37 1 35 14
M  V30 38 1 36 14
M  V30 39 1 37 15
M  V30 40 1 38 15
M  V30 41 1 39 17
M  V30 42 1 40 18
M  V30 43 1 41 19
M  V30 44 1 42 20
M  V30 45 1 43 23
M  V30 46 1 44 23
M  V30 47 1 13 45 CFG=3
M  V30 END BOND
M  V30 END CTAB
M  END
>  <b_m_subgroup_collapsed>  (2367) 
0

>  <r_i_docking_score>  (2367) 
-5.7597436205754802

>  <s_m_subgroup_title>  (2367) 
glide-dock_SP_D22_pv

>  <s_m_subgroupid>  (2367) 
glide-dock_SP_D22_pv

>  <Molecule ChEMBL ID>  (2367) 
CHEMBL5781514

>  <Standard Type>  (2367) 
Ki

>  <Standard Value>  (2367) 
20000.0

>  <label>  (2367) 
0

$$$$
CHEMBL1080046
     RDKit          3D

  0  0  0  0  0  0  0  0  0  0999 V3000
M  V30 BEGIN CTAB
M  V30 COUNTS 61 64 0 0 1
M  V30 BEGIN ATOM
M  V30 1 C 3.842171 -1.028099 -17.716732 0
M  V30 2 C 4.989755 -0.661000 -16.768412 0
M  V30 3 C 4.763800 -1.221453 -15.357424 0
M  V30 4 C 5.925496 -0.971703 -14.377372 0
M  V30 5 C 6.181650 0.490768 -14.069013 0
M  V30 6 C 5.323226 1.190677 -13.196126 0
M  V30 7 C 5.560349 2.545335 -12.892593 0
M  V30 8 C 6.684212 3.188709 -13.447144 0
M  V30 9 S 7.020684 4.896305 -13.046882 0
M  V30 10 O 5.734956 5.601856 -12.946282 0
M  V30 11 O 8.088791 5.359052 -13.945488 0
M  V30 12 N 7.686007 4.872818 -11.446803 0
M  V30 13 C 8.652514 5.710752 -10.875904 0
M  V30 14 C 9.364222 6.686778 -11.609324 0
M  V30 15 C 10.360502 7.460733 -10.998569 0
M  V30 16 C 10.649469 7.308407 -9.631077 0
M  V30 17 C 9.915940 6.367072 -8.874060 0
M  V30 18 C 8.931954 5.571948 -9.503455 0
M  V30 19 C 10.173554 6.172444 -7.394217 0
M  V30 20 C 10.026371 7.443606 -6.543216 0
M  V30 21 N 11.238099 8.265938 -6.597827 0
M  V30 22 C 11.300426 9.209224 -5.478780 0
M  V30 23 C 11.686172 8.581745 -4.164986 0
M  V30 24 C 11.928273 7.211243 -3.847749 0
M  V30 25 C 12.240053 7.225313 -2.520718 0
M  V30 26 N 12.200562 8.540562 -2.124129 0
M  V30 27 N 11.861033 9.375244 -3.122299 0
M  V30 28 C 11.300354 9.013050 -7.846830 0
M  V30 29 C 11.754340 8.150701 -9.025136 0
M  V30 30 C 7.550327 2.496256 -14.319970 0
M  V30 31 C 7.293799 1.149317 -14.635374 0
M  V30 32 H 3.992119 -0.593681 -18.706411 0
M  V30 33 H 3.760176 -2.108612 -17.836966 0
M  V30 34 H 2.885930 -0.667066 -17.340006 0
M  V30 35 H 5.093424 0.422707 -16.728680 0
M  V30 36 H 5.925719 -1.050824 -17.171389 0
M  V30 37 H 4.611238 -2.299209 -15.441416 0
M  V30 38 H 3.840677 -0.812814 -14.945756 0
M  V30 39 H 6.844899 -1.425808 -14.737453 0
M  V30 40 H 5.711720 -1.485611 -13.446830 0
M  V30 41 H 4.486040 0.678694 -12.754442 0
M  V30 42 H 4.892101 3.081837 -12.233821 0
M  V30 43 H 7.090577 4.430319 -10.758287 0
M  V30 44 H 9.173211 6.879923 -12.647170 0
M  V30 45 H 10.905063 8.172719 -11.596740 0
M  V30 46 H 8.381673 4.841858 -8.928227 0
M  V30 47 H 9.455530 5.434482 -7.046807 0
M  V30 48 H 11.162130 5.735128 -7.253574 0
M  V30 49 H 9.135615 8.009853 -6.823298 0
M  V30 50 H 9.859288 7.121108 -5.515543 0
M  V30 51 H 12.045002 9.978008 -5.689892 0
M  V30 52 H 10.350651 9.736775 -5.389252 0
M  V30 53 H 11.870112 6.348341 -4.496400 0
M  V30 54 H 12.487665 6.419775 -1.845896 0
M  V30 55 H 12.379167 8.883211 -1.191097 0
M  V30 56 H 10.364596 9.531276 -8.057959 0
M  V30 57 H 12.068069 9.772295 -7.727239 0
M  V30 58 H 12.581165 7.508488 -8.724148 0
M  V30 59 H 12.161011 8.812231 -9.793000 0
M  V30 60 H 8.413096 2.988263 -14.743839 0
M  V30 61 H 7.960991 0.615001 -15.297981 0
M  V30 END ATOM
M  V30 BEGIN BOND
M  V30 1 1 2 1
M  V30 2 1 3 2
M  V30 3 1 4 3
M  V30 4 1 5 4
M  V30 5 1 6 5
M  V30 6 2 7 6
M  V30 7 1 8 7
M  V30 8 1 9 8
M  V30 9 2 10 9
M  V30 10 2 11 9
M  V30 11 1 12 9
M  V30 12 1 13 12
M  V30 13 1 14 13
M  V30 14 2 15 14
M  V30 15 1 16 15
M  V30 16 2 17 16
M  V30 17 2 18 13
M  V30 18 1 18 17
M  V30 19 1 19 17
M  V30 20 1 20 19
M  V30 21 1 21 20
M  V30 22 1 22 21
M  V30 23 1 23 22
M  V30 24 1 24 23
M  V30 25 2 25 24
M  V30 26 1 26 25
M  V30 27 2 27 23
M  V30 28 1 27 26
M  V30 29 1 28 21
M  V30 30 1 29 16
M  V30 31 1 29 28
M  V30 32 2 30 8
M  V30 33 2 31 5
M  V30 34 1 31 30
M  V30 35 1 32 1
M  V30 36 1 33 1
M  V30 37 1 34 1
M  V30 38 1 35 2
M  V30 39 1 36 2
M  V30 40 1 37 3
M  V30 41 1 38 3
M  V30 42 1 39 4
M  V30 43 1 40 4
M  V30 44 1 41 6
M  V30 45 1 42 7
M  V30 46 1 43 12
M  V30 47 1 44 14
M  V30 48 1 45 15
M  V30 49 1 46 18
M  V30 50 1 47 19
M  V30 51 1 48 19
M  V30 52 1 49 20
M  V30 53 1 50 20
M  V30 54 1 51 22
M  V30 55 1 52 22
M  V30 56 1 53 24
M  V30 57 1 54 25
M  V30 58 1 55 26
M  V30 59 1 56 28
M  V30 60 1 57 28
M  V30 61 1 58 29
M  V30 62 1 59 29
M  V30 63 1 60 30
M  V30 64 1 61 31
M  V30 END BOND
M  V30 END CTAB
M  END
>  <b_m_subgroup_collapsed>  (2368) 
0

>  <r_i_docking_score>  (2368) 
-5.7578824867234699

>  <s_m_subgroup_title>  (2368) 
glide-dock_SP_D22_pv

>  <s_m_subgroupid>  (2368) 
glide-dock_SP_D22_pv

>  <Molecule ChEMBL ID>  (2368) 
CHEMBL1080046

>  <Standard Type>  (2368) 
Ki

>  <Standard Value>  (2368) 
100.0

>  <label>  (2368) 
1

$$$$
CHEMBL310867
     RDKit          3D

  0  0  0  0  0  0  0  0  0  0999 V3000
M  V30 BEGIN CTAB
M  V30 COUNTS 46 48 0 0 1
M  V30 BEGIN ATOM
M  V30 1 C 9.879808 6.175433 -7.391490 0
M  V30 2 C 8.813136 6.044221 -8.485733 0
M  V30 3 C 9.418700 5.798330 -9.875484 0
M  V30 4 N 8.492280 6.222464 -10.964113 0 CHG=1
M  V30 5 C 9.077979 7.268798 -11.852106 0
M  V30 6 C 9.079050 8.695950 -11.269304 0
M  V30 7 C 10.101424 8.971095 -10.155285 0
M  V30 8 C 7.913436 5.056159 -11.695993 0 CFG=1
M  V30 9 C 6.496843 5.346071 -12.249258 0
M  V30 10 C 5.823497 4.076317 -12.816108 0
M  V30 11 C 6.804535 3.216560 -13.557146 0
M  V30 12 N 6.483132 2.138298 -14.249917 0
M  V30 13 N 7.692526 1.660476 -14.739298 0
M  V30 14 C 7.903928 0.572970 -15.530010 0
M  V30 15 C 9.214095 0.295605 -15.904625 0
M  V30 16 C 10.309356 1.117265 -15.474878 0
M  V30 17 C 10.088823 2.211528 -14.658947 0
M  V30 18 C 8.746181 2.416227 -14.339130 0
M  V30 19 C 8.199904 3.388266 -13.569371 0
M  V30 20 C 8.863887 4.480331 -12.789830 0
M  V30 21 H 9.426018 6.173033 -6.400100 0
M  V30 22 H 10.610731 5.372587 -7.447100 0
M  V30 23 H 10.431999 7.109583 -7.489464 0
M  V30 24 H 8.220723 6.957789 -8.488254 0
M  V30 25 H 8.120657 5.237456 -8.241975 0
M  V30 26 H 9.691987 4.745143 -9.966346 0
M  V30 27 H 10.370472 6.320268 -9.962509 0
M  V30 28 H 10.081681 6.984896 -12.173147 0
M  V30 29 H 8.476543 7.322346 -12.756513 0
M  V30 30 H 9.286470 9.372258 -12.098174 0
M  V30 31 H 8.086659 8.972417 -10.929502 0
M  V30 32 H 10.082050 10.010619 -9.846748 0
M  V30 33 H 9.876568 8.418174 -9.251076 0
M  V30 34 H 11.118568 8.732649 -10.468647 0
M  V30 35 H 7.751293 4.269523 -10.955647 0
M  V30 36 H 5.861141 5.774621 -11.472431 0
M  V30 37 H 6.563643 6.092588 -13.040902 0
M  V30 38 H 4.987384 4.350724 -13.458469 0
M  V30 39 H 5.399664 3.504209 -11.989614 0
M  V30 40 H 7.042323 -0.019746 -15.822152 0
M  V30 41 H 9.408101 -0.564264 -16.537867 0
M  V30 42 H 11.315305 0.878140 -15.796324 0
M  V30 43 H 10.870924 2.866361 -14.292069 0
M  V30 44 H 9.777922 4.108182 -12.324939 0
M  V30 45 H 9.171131 5.248896 -13.496924 0
M  V30 46 H 7.704266 6.692087 -10.514189 0
M  V30 END ATOM
M  V30 BEGIN BOND
M  V30 1 1 2 1
M  V30 2 1 3 2
M  V30 3 1 4 3
M  V30 4 1 5 4
M  V30 5 1 6 5
M  V30 6 1 7 6
M  V30 7 1 8 4
M  V30 8 1 9 8
M  V30 9 1 10 9
M  V30 10 1 11 10
M  V30 11 2 12 11
M  V30 12 1 13 12
M  V30 13 1 14 13
M  V30 14 2 15 14
M  V30 15 1 16 15
M  V30 16 2 17 16
M  V30 17 1 18 13
M  V30 18 1 18 17
M  V30 19 1 19 11
M  V30 20 2 19 18
M  V30 21 1 20 8
M  V30 22 1 20 19
M  V30 23 1 21 1
M  V30 24 1 22 1
M  V30 25 1 23 1
M  V30 26 1 24 2
M  V30 27 1 25 2
M  V30 28 1 26 3
M  V30 29 1 27 3
M  V30 30 1 28 5
M  V30 31 1 29 5
M  V30 32 1 30 6
M  V30 33 1 31 6
M  V30 34 1 32 7
M  V30 35 1 33 7
M  V30 36 1 34 7
M  V30 37 1 8 35 CFG=1
M  V30 38 1 36 9
M  V30 39 1 37 9
M  V30 40 1 38 10
M  V30 41 1 39 10
M  V30 42 1 40 14
M  V30 43 1 41 15
M  V30 44 1 42 16
M  V30 45 1 43 17
M  V30 46 1 44 20
M  V30 47 1 45 20
M  V30 48 1 46 4
M  V30 END BOND
M  V30 END CTAB
M  END
>  <b_m_subgroup_collapsed>  (2369) 
0

>  <r_i_docking_score>  (2369) 
-5.7559984766085099

>  <s_m_subgroup_title>  (2369) 
glide-dock_SP_D22_pv

>  <s_m_subgroupid>  (2369) 
glide-dock_SP_D22_pv

>  <Molecule ChEMBL ID>  (2369) 
CHEMBL310867

>  <Standard Type>  (2369) 
Ki

>  <Standard Value>  (2369) 
35.0

>  <label>  (2369) 
1

$$$$
CHEMBL554220
     RDKit          3D

  0  0  0  0  0  0  0  0  0  0999 V3000
M  V30 BEGIN CTAB
M  V30 COUNTS 41 42 0 0 1
M  V30 BEGIN ATOM
M  V30 1 C 8.756956 5.957429 -8.045587 0
M  V30 2 C 9.415642 5.049196 -9.088177 0
M  V30 3 C 9.187520 5.496382 -10.542176 0
M  V30 4 N 7.771429 5.372219 -10.955505 0 CHG=1
M  V30 5 C 7.429323 5.863874 -12.310232 0 CFG=2
M  V30 6 C 5.919667 5.688452 -12.547588 0
M  V30 7 C 5.477832 4.219691 -12.724376 0
M  V30 8 C 6.474354 3.323309 -13.447023 0
M  V30 9 C 6.086164 2.005934 -13.776970 0
M  V30 10 C 7.012595 1.110633 -14.347765 0
M  V30 11 C 8.337098 1.523289 -14.595172 0
M  V30 12 O 9.256845 0.613818 -15.049403 0
M  V30 13 S 9.574670 0.558802 -16.710135 0
M  V30 14 O 10.082134 -0.790121 -17.011641 0
M  V30 15 O 8.404927 1.105524 -17.419437 0
M  V30 16 C 10.978868 1.759555 -16.803843 0
M  V30 17 F 10.520269 2.946520 -17.199083 0
M  V30 18 F 11.554739 1.863653 -15.607174 0
M  V30 19 F 11.875599 1.303581 -17.677637 0
M  V30 20 C 8.717949 2.848106 -14.294577 0
M  V30 21 C 7.793548 3.753244 -13.729208 0
M  V30 22 C 8.228673 5.180009 -13.441903 0
M  V30 23 H 9.154862 5.771245 -7.048031 0
M  V30 24 H 8.914050 7.013526 -8.268510 0
M  V30 25 H 7.686601 5.772514 -8.003208 0
M  V30 26 H 9.082211 4.021521 -8.944686 0
M  V30 27 H 10.487738 5.041708 -8.899288 0
M  V30 28 H 9.810498 4.871833 -11.181996 0
M  V30 29 H 9.519330 6.528167 -10.675481 0
M  V30 30 H 7.227278 5.949345 -10.317470 0
M  V30 31 H 7.660746 6.930584 -12.315686 0
M  V30 32 H 5.347040 6.161008 -11.747151 0
M  V30 33 H 5.646858 6.233861 -13.446823 0
M  V30 34 H 4.517401 4.172292 -13.240502 0
M  V30 35 H 5.313447 3.780744 -11.739228 0
M  V30 36 H 5.083514 1.666435 -13.561176 0
M  V30 37 H 6.715895 0.095124 -14.566785 0
M  V30 38 H 9.732037 3.168496 -14.478424 0
M  V30 39 H 9.302073 5.219793 -13.264355 0
M  V30 40 H 8.086405 5.737137 -14.365644 0
M  V30 41 H 7.465123 4.414442 -10.855556 0
M  V30 END ATOM
M  V30 BEGIN BOND
M  V30 1 1 2 1
M  V30 2 1 3 2
M  V30 3 1 4 3
M  V30 4 1 5 4
M  V30 5 1 6 5
M  V30 6 1 7 6
M  V30 7 1 8 7
M  V30 8 1 9 8
M  V30 9 2 10 9
M  V30 10 1 11 10
M  V30 11 1 12 11
M  V30 12 1 13 12
M  V30 13 2 14 13
M  V30 14 2 15 13
M  V30 15 1 16 13
M  V30 16 1 17 16
M  V30 17 1 18 16
M  V30 18 1 19 16
M  V30 19 2 20 11
M  V30 20 2 21 8
M  V30 21 1 21 20
M  V30 22 1 22 5
M  V30 23 1 22 21
M  V30 24 1 23 1
M  V30 25 1 24 1
M  V30 26 1 25 1
M  V30 27 1 26 2
M  V30 28 1 27 2
M  V30 29 1 28 3
M  V30 30 1 29 3
M  V30 31 1 30 4
M  V30 32 1 5 31 CFG=1
M  V30 33 1 32 6
M  V30 34 1 33 6
M  V30 35 1 34 7
M  V30 36 1 35 7
M  V30 37 1 36 9
M  V30 38 1 37 10
M  V30 39 1 38 20
M  V30 40 1 39 22
M  V30 41 1 40 22
M  V30 42 1 41 4
M  V30 END BOND
M  V30 END CTAB
M  END
>  <b_m_subgroup_collapsed>  (2370) 
0

>  <r_i_docking_score>  (2370) 
-5.7546953276286299

>  <s_m_subgroup_title>  (2370) 
glide-dock_SP_D22_pv

>  <s_m_subgroupid>  (2370) 
glide-dock_SP_D22_pv

>  <Molecule ChEMBL ID>  (2370) 
CHEMBL554220

>  <Standard Type>  (2370) 
Ki

>  <Standard Value>  (2370) 
50.0

>  <label>  (2370) 
1

$$$$
CHEMBL407641
     RDKit          3D

  0  0  0  0  0  0  0  0  0  0999 V3000
M  V30 BEGIN CTAB
M  V30 COUNTS 37 38 0 0 1
M  V30 BEGIN ATOM
M  V30 1 C 12.798102 4.865579 -14.545065 0
M  V30 2 N 11.696343 4.022945 -14.982028 0
M  V30 3 C 10.461270 3.992085 -14.374024 0
M  V30 4 N 9.606946 3.109411 -14.869542 0
M  V30 5 C 8.389138 3.044976 -14.297610 0
M  V30 6 Cl 7.288070 1.869414 -14.925472 0
M  V30 7 C 8.021393 3.891126 -13.223724 0
M  V30 8 S 6.390602 3.772620 -12.513591 0
M  V30 9 C 5.238192 4.518655 -13.674332 0
M  V30 10 C 9.034121 4.777249 -12.753206 0
M  V30 11 N 8.921801 5.640403 -11.643941 0
M  V30 12 C 8.126689 5.285109 -10.476484 0
M  V30 13 C 8.715993 5.906963 -9.202934 0
M  V30 14 N 8.886327 7.365137 -9.388544 0 CHG=1
M  V30 15 C 9.253270 8.074591 -8.144738 0
M  V30 16 C 9.760586 7.689133 -10.541233 0
M  V30 17 C 9.214832 7.059032 -11.836209 0
M  V30 18 N 10.238621 4.822654 -13.360411 0
M  V30 19 H 13.642209 4.768451 -15.227274 0
M  V30 20 H 12.498888 5.913692 -14.520512 0
M  V30 21 H 13.124844 4.576853 -13.545724 0
M  V30 22 H 11.847787 3.365805 -15.732806 0
M  V30 23 H 4.225338 4.187401 -13.448450 0
M  V30 24 H 5.277482 5.605210 -13.613663 0
M  V30 25 H 5.481308 4.194873 -14.679410 0
M  V30 26 H 7.119064 5.665788 -10.645199 0
M  V30 27 H 8.066693 4.202974 -10.358071 0
M  V30 28 H 8.051463 5.713562 -8.359933 0
M  V30 29 H 9.677105 5.448481 -8.965115 0
M  V30 30 H 10.237096 7.764714 -7.790648 0
M  V30 31 H 9.266756 9.152777 -8.307377 0
M  V30 32 H 8.523209 7.870935 -7.359705 0
M  V30 33 H 9.831556 8.770532 -10.663341 0
M  V30 34 H 10.769126 7.322211 -10.343657 0
M  V30 35 H 9.932187 7.217013 -12.640827 0
M  V30 36 H 8.292135 7.560436 -12.133192 0
M  V30 37 H 7.946490 7.686461 -9.653439 0
M  V30 END ATOM
M  V30 BEGIN BOND
M  V30 1 1 2 1
M  V30 2 1 3 2
M  V30 3 2 4 3
M  V30 4 1 5 4
M  V30 5 1 6 5
M  V30 6 2 7 5
M  V30 7 1 8 7
M  V30 8 1 9 8
M  V30 9 1 10 7
M  V30 10 1 11 10
M  V30 11 1 12 11
M  V30 12 1 13 12
M  V30 13 1 14 13
M  V30 14 1 15 14
M  V30 15 1 16 14
M  V30 16 1 17 11
M  V30 17 1 17 16
M  V30 18 1 18 3
M  V30 19 2 18 10
M  V30 20 1 19 1
M  V30 21 1 20 1
M  V30 22 1 21 1
M  V30 23 1 22 2
M  V30 24 1 23 9
M  V30 25 1 24 9
M  V30 26 1 25 9
M  V30 27 1 26 12
M  V30 28 1 27 12
M  V30 29 1 28 13
M  V30 30 1 29 13
M  V30 31 1 30 15
M  V30 32 1 31 15
M  V30 33 1 32 15
M  V30 34 1 33 16
M  V30 35 1 34 16
M  V30 36 1 35 17
M  V30 37 1 36 17
M  V30 38 1 37 14
M  V30 END BOND
M  V30 END CTAB
M  END
>  <b_m_subgroup_collapsed>  (2371) 
0

>  <r_i_docking_score>  (2371) 
-5.7539515824903704

>  <s_m_subgroup_title>  (2371) 
glide-dock_SP_D22_pv

>  <s_m_subgroupid>  (2371) 
glide-dock_SP_D22_pv

>  <Molecule ChEMBL ID>  (2371) 
CHEMBL407641

>  <Standard Type>  (2371) 
Ki

>  <Standard Value>  (2371) 
5.4

>  <label>  (2371) 
1

$$$$
CHEMBL18174
     RDKit          3D

  0  0  0  0  0  0  0  0  0  0999 V3000
M  V30 BEGIN CTAB
M  V30 COUNTS 26 28 0 0 1
M  V30 BEGIN ATOM
M  V30 1 C 7.828302 5.092721 -12.184001 0
M  V30 2 C 8.517295 6.172525 -12.747128 0
M  V30 3 C 9.459445 6.895269 -11.986600 0
M  V30 4 C 9.740455 6.549710 -10.642737 0
M  V30 5 C 9.035259 5.453336 -10.083570 0
M  V30 6 C 8.089087 4.743842 -10.853765 0
M  V30 7 C 9.241041 5.033779 -8.646766 0
M  V30 8 C 8.885741 6.172122 -7.684888 0
M  V30 9 C 10.083906 7.032431 -7.291622 0
M  V30 10 C 10.888869 7.538816 -8.457373 0
M  V30 11 C 11.983899 8.345188 -8.345231 0
M  V30 12 N 12.445244 8.572191 -9.613302 0
M  V30 13 N 11.695297 7.970809 -10.550508 0
M  V30 14 C 10.738044 7.334468 -9.875801 0
M  V30 15 H 7.091992 4.550495 -12.756053 0
M  V30 16 H 8.302194 6.452708 -13.764919 0
M  V30 17 H 9.963984 7.729097 -12.448477 0
M  V30 18 H 7.533469 3.929142 -10.419413 0
M  V30 19 H 8.608774 4.173956 -8.426644 0
M  V30 20 H 10.268608 4.700347 -8.513163 0
M  V30 21 H 8.106771 6.793935 -8.124665 0
M  V30 22 H 8.444802 5.774047 -6.771229 0
M  V30 23 H 9.725309 7.864817 -6.685381 0
M  V30 24 H 10.721805 6.445014 -6.630227 0
M  V30 25 H 12.466662 8.772325 -7.478680 0
M  V30 26 H 13.212057 9.205038 -9.847569 0
M  V30 END ATOM
M  V30 BEGIN BOND
M  V30 1 2 2 1
M  V30 2 1 3 2
M  V30 3 2 4 3
M  V30 4 1 5 4
M  V30 5 1 6 1
M  V30 6 2 6 5
M  V30 7 1 7 5
M  V30 8 1 8 7
M  V30 9 1 9 8
M  V30 10 1 10 9
M  V30 11 2 11 10
M  V30 12 1 12 11
M  V30 13 1 13 12
M  V30 14 1 14 4
M  V30 15 1 14 10
M  V30 16 2 14 13
M  V30 17 1 15 1
M  V30 18 1 16 2
M  V30 19 1 17 3
M  V30 20 1 18 6
M  V30 21 1 19 7
M  V30 22 1 20 7
M  V30 23 1 21 8
M  V30 24 1 22 8
M  V30 25 1 23 9
M  V30 26 1 24 9
M  V30 27 1 25 11
M  V30 28 1 26 12
M  V30 END BOND
M  V30 END CTAB
M  END
>  <b_m_subgroup_collapsed>  (2372) 
0

>  <r_i_docking_score>  (2372) 
-5.7490418487735599

>  <s_m_subgroup_title>  (2372) 
glide-dock_SP_D22_pv

>  <s_m_subgroupid>  (2372) 
glide-dock_SP_D22_pv

>  <Molecule ChEMBL ID>  (2372) 
CHEMBL18174

>  <Standard Type>  (2372) 
Ki

>  <Standard Value>  (2372) 
10000.0

>  <label>  (2372) 
0

$$$$
CHEMBL198125
     RDKit          3D

  0  0  0  0  0  0  0  0  0  0999 V3000
M  V30 BEGIN CTAB
M  V30 COUNTS 44 45 0 0 1
M  V30 BEGIN ATOM
M  V30 1 C 8.300923 9.271514 -11.542685 0
M  V30 2 C 9.006172 9.203053 -10.179345 0
M  V30 3 C 10.178267 8.205587 -10.174210 0
M  V30 4 N 10.252783 7.413521 -8.918007 0 CHG=1
M  V30 5 C 9.119123 6.457632 -8.832647 0
M  V30 6 C 9.635418 5.029461 -8.700831 0
M  V30 7 C 8.486018 4.048898 -8.529185 0
M  V30 8 C 10.473354 8.181156 -7.650588 0 CFG=2
M  V30 9 C 11.515456 9.319408 -7.779734 0
M  V30 10 C 11.608349 10.155333 -6.492266 0
M  V30 11 N 11.675942 9.294081 -5.335802 0
M  V30 12 N 12.085158 9.772355 -4.155512 0
M  V30 13 C 12.086678 8.752396 -3.341457 0
M  V30 14 C 11.686046 7.563712 -3.999516 0
M  V30 15 C 11.686210 6.213788 -3.399786 0
M  V30 16 O 12.485772 6.172321 -2.241252 0
M  V30 17 C 11.352587 7.964103 -5.263908 0
M  V30 18 C 10.871973 7.237707 -6.478198 0
M  V30 19 H 7.338537 9.772333 -11.450172 0
M  V30 20 H 8.079238 8.268711 -11.908834 0
M  V30 21 H 8.886170 9.771832 -12.311088 0
M  V30 22 H 9.362788 10.172342 -9.846847 0
M  V30 23 H 8.266800 8.945112 -9.426363 0
M  V30 24 H 10.074787 7.498117 -10.998688 0
M  V30 25 H 11.119907 8.714658 -10.380447 0
M  V30 26 H 8.465670 6.708595 -7.996009 0
M  V30 27 H 8.483194 6.508967 -9.718098 0
M  V30 28 H 10.213512 4.752112 -9.580478 0
M  V30 29 H 10.304523 4.972306 -7.848552 0
M  V30 30 H 8.831153 3.053711 -8.246862 0
M  V30 31 H 7.911407 3.975125 -9.449769 0
M  V30 32 H 7.793928 4.402256 -7.770428 0
M  V30 33 H 9.528985 8.661934 -7.386560 0
M  V30 34 H 12.494833 8.893034 -8.004102 0
M  V30 35 H 11.286097 9.995401 -8.598004 0
M  V30 36 H 12.485948 10.800810 -6.518454 0
M  V30 37 H 10.735073 10.795572 -6.376006 0
M  V30 38 H 12.418432 8.893307 -2.322878 0
M  V30 39 H 10.672620 5.923340 -3.140052 0
M  V30 40 H 12.079349 5.501683 -4.120110 0
M  V30 41 H 12.363037 5.321619 -1.841360 0
M  V30 42 H 10.030500 6.605608 -6.192993 0
M  V30 43 H 11.669351 6.567894 -6.802209 0
M  V30 44 H 11.074935 6.839763 -9.035595 0
M  V30 END ATOM
M  V30 BEGIN BOND
M  V30 1 1 2 1
M  V30 2 1 3 2
M  V30 3 1 4 3
M  V30 4 1 5 4
M  V30 5 1 6 5
M  V30 6 1 7 6
M  V30 7 1 8 4
M  V30 8 1 9 8
M  V30 9 1 10 9
M  V30 10 1 11 10
M  V30 11 1 12 11
M  V30 12 2 13 12
M  V30 13 1 14 13
M  V30 14 1 15 14
M  V30 15 1 16 15
M  V30 16 1 17 11
M  V30 17 2 17 14
M  V30 18 1 18 8
M  V30 19 1 18 17
M  V30 20 1 19 1
M  V30 21 1 20 1
M  V30 22 1 21 1
M  V30 23 1 22 2
M  V30 24 1 23 2
M  V30 25 1 24 3
M  V30 26 1 25 3
M  V30 27 1 26 5
M  V30 28 1 27 5
M  V30 29 1 28 6
M  V30 30 1 29 6
M  V30 31 1 30 7
M  V30 32 1 31 7
M  V30 33 1 32 7
M  V30 34 1 8 33 CFG=1
M  V30 35 1 34 9
M  V30 36 1 35 9
M  V30 37 1 36 10
M  V30 38 1 37 10
M  V30 39 1 38 13
M  V30 40 1 39 15
M  V30 41 1 40 15
M  V30 42 1 41 16
M  V30 43 1 42 18
M  V30 44 1 43 18
M  V30 45 1 44 4
M  V30 END BOND
M  V30 END CTAB
M  END
>  <b_m_subgroup_collapsed>  (2373) 
0

>  <r_i_docking_score>  (2373) 
-5.7463791932032198

>  <s_m_subgroup_title>  (2373) 
glide-dock_SP_D22_pv

>  <s_m_subgroupid>  (2373) 
glide-dock_SP_D22_pv

>  <Molecule ChEMBL ID>  (2373) 
CHEMBL198125

>  <Standard Type>  (2373) 
Ki

>  <Standard Value>  (2373) 
20000.0

>  <label>  (2373) 
0

$$$$
CHEMBL392970
     RDKit          3D

  0  0  0  0  0  0  0  0  0  0999 V3000
M  V30 BEGIN CTAB
M  V30 COUNTS 62 65 0 0 1
M  V30 BEGIN ATOM
M  V30 1 C 11.603447 6.572035 -4.794212 0
M  V30 2 O 10.387860 6.972600 -5.412088 0
M  V30 3 C 10.472438 7.299271 -6.739117 0
M  V30 4 C 9.697271 6.544563 -7.636059 0
M  V30 5 C 9.768808 6.771273 -9.022765 0
M  V30 6 C 10.629056 7.779142 -9.516929 0
M  V30 7 C 11.369783 8.571882 -8.616710 0
M  V30 8 C 11.277830 8.360476 -7.227258 0
M  V30 9 O 11.958273 9.213371 -6.395499 0
M  V30 10 C 11.116809 9.968209 -5.536335 0
M  V30 11 C 10.750484 8.037128 -11.006623 0
M  V30 12 N 10.161770 6.971121 -11.833716 0 CHG=1
M  V30 13 C 10.733632 6.488277 -12.956299 0
M  V30 14 N 11.929942 6.894626 -13.429650 0
M  V30 15 C 12.331305 6.484870 -14.743083 0
M  V30 16 C 12.885552 7.438470 -15.609977 0
M  V30 17 C 13.254471 7.049735 -16.909029 0
M  V30 18 C 13.083007 5.717707 -17.354164 0
M  V30 19 C 12.549537 4.745541 -16.454365 0
M  V30 20 C 12.174255 5.149299 -15.153509 0
M  V30 21 C 12.334396 3.264485 -16.781696 0 CFG=1
M  V30 22 O 10.971189 2.999399 -17.098200 0
M  V30 23 C 10.369225 1.863118 -16.693380 0
M  V30 24 C 8.916615 1.785498 -17.138802 0
M  V30 25 O 10.885457 0.956488 -16.040607 0
M  V30 26 C 13.278502 2.664632 -17.844048 0
M  V30 27 C 12.899956 2.987849 -19.297747 0
M  V30 28 C 12.555877 4.461835 -19.536657 0
M  V30 29 C 13.490384 5.422287 -18.795650 0
M  V30 30 C 8.860776 6.443319 -11.397931 0
M  V30 31 C 8.927763 5.915315 -9.957047 0
M  V30 32 H 11.377623 6.171975 -3.806027 0
M  V30 33 H 12.085550 5.775003 -5.363106 0
M  V30 34 H 12.292059 7.402065 -4.647581 0
M  V30 35 H 9.050910 5.769592 -7.251763 0
M  V30 36 H 11.998925 9.367504 -8.991942 0
M  V30 37 H 11.710278 10.572112 -4.860550 0
M  V30 38 H 10.486652 10.640229 -6.117648 0
M  V30 39 H 10.485860 9.348605 -4.903991 0
M  V30 40 H 11.806871 8.174674 -11.238070 0
M  V30 41 H 10.241903 8.972009 -11.237224 0
M  V30 42 H 10.188695 5.730105 -13.504750 0
M  V30 43 H 13.018155 8.464838 -15.299836 0
M  V30 44 H 13.661958 7.797608 -17.575869 0
M  V30 45 H 11.765818 4.418818 -14.469212 0
M  V30 46 H 12.571863 2.749914 -15.851213 0
M  V30 47 H 8.849628 1.850478 -18.224064 0
M  V30 48 H 8.472281 0.842202 -16.819160 0
M  V30 49 H 8.345860 2.602484 -16.700182 0
M  V30 50 H 14.301057 2.977845 -17.635229 0
M  V30 51 H 13.285385 1.579302 -17.739470 0
M  V30 52 H 13.728081 2.697125 -19.942522 0
M  V30 53 H 12.052500 2.372533 -19.605591 0
M  V30 54 H 12.629684 4.647030 -20.609110 0
M  V30 55 H 11.517762 4.671937 -19.274067 0
M  V30 56 H 13.493512 6.365239 -19.345749 0
M  V30 57 H 14.519816 5.065984 -18.819010 0
M  V30 58 H 8.146903 7.265422 -11.446625 0
M  V30 59 H 8.498389 5.670696 -12.074570 0
M  V30 60 H 9.329553 4.901772 -9.954349 0
M  V30 61 H 7.917902 5.849813 -9.551905 0
M  V30 62 H 12.347532 7.713277 -13.012535 0
M  V30 END ATOM
M  V30 BEGIN BOND
M  V30 1 1 2 1
M  V30 2 1 3 2
M  V30 3 1 4 3
M  V30 4 2 5 4
M  V30 5 1 6 5
M  V30 6 2 7 6
M  V30 7 2 8 3
M  V30 8 1 8 7
M  V30 9 1 9 8
M  V30 10 1 10 9
M  V30 11 1 11 6
M  V30 12 1 12 11
M  V30 13 2 13 12 CFG=2
M  V30 14 1 14 13
M  V30 15 1 15 14
M  V30 16 1 16 15
M  V30 17 2 17 16
M  V30 18 1 18 17
M  V30 19 2 19 18
M  V30 20 2 20 15
M  V30 21 1 20 19
M  V30 22 1 21 19
M  V30 23 1 22 21
M  V30 24 1 23 22
M  V30 25 1 24 23
M  V30 26 2 25 23
M  V30 27 1 26 21
M  V30 28 1 27 26
M  V30 29 1 28 27
M  V30 30 1 29 18
M  V30 31 1 29 28
M  V30 32 1 30 12
M  V30 33 1 31 5
M  V30 34 1 31 30
M  V30 35 1 32 1
M  V30 36 1 33 1
M  V30 37 1 34 1
M  V30 38 1 35 4
M  V30 39 1 36 7
M  V30 40 1 37 10
M  V30 41 1 38 10
M  V30 42 1 39 10
M  V30 43 1 40 11
M  V30 44 1 41 11
M  V30 45 1 42 13
M  V30 46 1 43 16
M  V30 47 1 44 17
M  V30 48 1 45 20
M  V30 49 1 21 46 CFG=1
M  V30 50 1 47 24
M  V30 51 1 48 24
M  V30 52 1 49 24
M  V30 53 1 50 26
M  V30 54 1 51 26
M  V30 55 1 52 27
M  V30 56 1 53 27
M  V30 57 1 54 28
M  V30 58 1 55 28
M  V30 59 1 56 29
M  V30 60 1 57 29
M  V30 61 1 58 30
M  V30 62 1 59 30
M  V30 63 1 60 31
M  V30 64 1 61 31
M  V30 65 1 62 14
M  V30 END BOND
M  V30 END CTAB
M  END
>  <b_m_subgroup_collapsed>  (2374) 
0

>  <r_i_docking_score>  (2374) 
-5.7432490156176303

>  <s_m_subgroup_title>  (2374) 
glide-dock_SP_D22_pv

>  <s_m_subgroupid>  (2374) 
glide-dock_SP_D22_pv

>  <Molecule ChEMBL ID>  (2374) 
CHEMBL392970

>  <Standard Type>  (2374) 
Ki

>  <Standard Value>  (2374) 
14000.0

>  <label>  (2374) 
0

$$$$
CHEMBL4164366
     RDKit          3D

  0  0  0  0  0  0  0  0  0  0999 V3000
M  V30 BEGIN CTAB
M  V30 COUNTS 50 52 0 0 1
M  V30 BEGIN ATOM
M  V30 1 C 9.436008 1.992911 -17.296013 0
M  V30 2 C 9.516229 1.235212 -15.958681 0
M  V30 3 C 10.800960 1.621289 -15.200929 0
M  V30 4 C 9.607832 -0.272914 -16.271196 0
M  V30 5 C 8.301895 1.550102 -15.119764 0
M  V30 6 N 8.056273 2.776421 -14.645699 0
M  V30 7 C 6.886288 2.858524 -13.881073 0
M  V30 8 C 6.505618 4.148013 -13.213236 0
M  V30 9 N 7.546099 5.095673 -12.815274 0
M  V30 10 C 6.943372 6.347301 -12.358020 0
M  V30 11 C 8.085569 7.353208 -12.137300 0
M  V30 12 N 8.886361 6.894708 -10.987801 0 CHG=1
M  V30 13 C 9.886844 7.887340 -10.523968 0
M  V30 14 C 10.133784 7.877400 -9.020866 0
M  V30 15 C 9.521130 6.955441 -8.139582 0
M  V30 16 C 9.799722 7.054727 -6.763241 0
M  V30 17 C 10.671501 8.062821 -6.314958 0
M  V30 18 C 11.233289 8.934578 -7.268847 0
M  V30 19 N 10.973844 8.846239 -8.587757 0
M  V30 20 C 9.445935 5.550116 -11.281937 0
M  V30 21 C 8.333729 4.562301 -11.698130 0
M  V30 22 C 6.189069 1.676022 -13.846886 0
M  V30 23 S 7.030066 0.399919 -14.685754 0
M  V30 24 H 8.540679 1.716610 -17.855724 0
M  V30 25 H 9.404895 3.072639 -17.139225 0
M  V30 26 H 10.298009 1.779331 -17.927858 0
M  V30 27 H 10.884713 1.087234 -14.253349 0
M  V30 28 H 11.688482 1.390765 -15.789248 0
M  V30 29 H 10.827136 2.689033 -14.979256 0
M  V30 30 H 8.736155 -0.627419 -16.825539 0
M  V30 31 H 10.485506 -0.499840 -16.877892 0
M  V30 32 H 9.685101 -0.865886 -15.358263 0
M  V30 33 H 5.900231 3.927086 -12.331191 0
M  V30 34 H 5.832089 4.673938 -13.890525 0
M  V30 35 H 6.365056 6.172275 -11.447064 0
M  V30 36 H 6.238615 6.747456 -13.084050 0
M  V30 37 H 7.685813 8.346506 -11.939954 0
M  V30 38 H 8.687525 7.428811 -13.035615 0
M  V30 39 H 9.544849 8.893936 -10.770560 0
M  V30 40 H 10.831673 7.752324 -11.053397 0
M  V30 41 H 8.833978 6.194995 -8.479911 0
M  V30 42 H 9.346087 6.374877 -6.057682 0
M  V30 43 H 10.907279 8.170655 -5.267649 0
M  V30 44 H 11.908371 9.722730 -6.961849 0
M  V30 45 H 10.182352 5.625449 -12.085290 0
M  V30 46 H 9.974325 5.163482 -10.409764 0
M  V30 47 H 7.688449 4.337934 -10.846076 0
M  V30 48 H 8.803578 3.625795 -12.003842 0
M  V30 49 H 5.252646 1.470982 -13.349957 0
M  V30 50 H 8.197850 6.822499 -10.247127 0
M  V30 END ATOM
M  V30 BEGIN BOND
M  V30 1 1 2 1
M  V30 2 1 3 2
M  V30 3 1 4 2
M  V30 4 1 5 2
M  V30 5 2 6 5
M  V30 6 1 7 6
M  V30 7 1 8 7
M  V30 8 1 9 8
M  V30 9 1 10 9
M  V30 10 1 11 10
M  V30 11 1 12 11
M  V30 12 1 13 12
M  V30 13 1 14 13
M  V30 14 2 15 14
M  V30 15 1 16 15
M  V30 16 2 17 16
M  V30 17 1 18 17
M  V30 18 1 19 14
M  V30 19 2 19 18
M  V30 20 1 20 12
M  V30 21 1 21 9
M  V30 22 1 21 20
M  V30 23 2 22 7
M  V30 24 1 23 5
M  V30 25 1 23 22
M  V30 26 1 24 1
M  V30 27 1 25 1
M  V30 28 1 26 1
M  V30 29 1 27 3
M  V30 30 1 28 3
M  V30 31 1 29 3
M  V30 32 1 30 4
M  V30 33 1 31 4
M  V30 34 1 32 4
M  V30 35 1 33 8
M  V30 36 1 34 8
M  V30 37 1 35 10
M  V30 38 1 36 10
M  V30 39 1 37 11
M  V30 40 1 38 11
M  V30 41 1 39 13
M  V30 42 1 40 13
M  V30 43 1 41 15
M  V30 44 1 42 16
M  V30 45 1 43 17
M  V30 46 1 44 18
M  V30 47 1 45 20
M  V30 48 1 46 20
M  V30 49 1 47 21
M  V30 50 1 48 21
M  V30 51 1 49 22
M  V30 52 1 50 12
M  V30 END BOND
M  V30 END CTAB
M  END
>  <b_m_subgroup_collapsed>  (2375) 
0

>  <r_i_docking_score>  (2375) 
-5.7426437193784903

>  <s_m_subgroup_title>  (2375) 
glide-dock_SP_D22_pv

>  <s_m_subgroupid>  (2375) 
glide-dock_SP_D22_pv

>  <Molecule ChEMBL ID>  (2375) 
CHEMBL4164366

>  <Standard Type>  (2375) 
Ki

>  <Standard Value>  (2375) 
10000.0

>  <label>  (2375) 
0

$$$$
CHEMBL131926
     RDKit          3D

  0  0  0  0  0  0  0  0  0  0999 V3000
M  V30 BEGIN CTAB
M  V30 COUNTS 57 60 0 0 1
M  V30 BEGIN ATOM
M  V30 1 C 12.022461 8.932677 -9.894721 0
M  V30 2 O 10.825042 9.083368 -9.145759 0
M  V30 3 C 10.914237 8.632154 -7.852326 0
M  V30 4 N 11.685077 9.390509 -7.046640 0
M  V30 5 C 11.871318 9.000519 -5.777055 0
M  V30 6 N 12.766487 9.768942 -5.046647 0
M  V30 7 C 11.295821 7.835343 -5.236243 0
M  V30 8 Cl 11.686549 7.295133 -3.639896 0
M  V30 9 C 10.463564 7.065471 -6.067592 0
M  V30 10 C 10.271111 7.446579 -7.415067 0
M  V30 11 C 9.424280 6.585468 -8.313145 0
M  V30 12 O 8.759926 5.663654 -7.846330 0
M  V30 13 N 9.469985 6.838607 -9.630682 0
M  V30 14 C 8.626439 6.178138 -10.612311 0 CFG=1
M  V30 15 C 8.575349 6.952894 -11.944743 0
M  V30 16 C 7.898873 6.150072 -13.088758 0 CFG=2
M  V30 17 C 6.365533 5.925889 -13.001158 0
M  V30 18 C 5.937716 4.992463 -11.900514 0
M  V30 19 C 6.872622 3.775948 -11.771397 0
M  V30 20 C 8.376931 4.059033 -12.032937 0 CFG=2
M  V30 21 C 9.067711 4.730338 -10.832226 0
M  V30 22 N 8.534303 4.836972 -13.272273 0 CFG=2 CHG=1
M  V30 23 C 9.895599 4.836225 -13.873282 0
M  V30 24 C 10.011331 3.709888 -14.883085 0
M  V30 25 C 10.421899 2.421463 -14.479457 0
M  V30 26 C 10.485753 1.370983 -15.415242 0
M  V30 27 C 10.157656 1.607815 -16.763487 0
M  V30 28 C 9.760373 2.895046 -17.174309 0
M  V30 29 C 9.686178 3.943138 -16.236349 0
M  V30 30 H 12.020633 7.973662 -10.411641 0
M  V30 31 H 12.085947 9.717536 -10.647077 0
M  V30 32 H 12.920366 8.971987 -9.279190 0
M  V30 33 H 13.090268 9.399845 -4.164348 0
M  V30 34 H 13.474387 10.255943 -5.585864 0
M  V30 35 H 10.008649 6.172104 -5.671329 0
M  V30 36 H 9.999725 7.644804 -9.931274 0
M  V30 37 H 7.650214 6.165073 -10.156739 0
M  V30 38 H 9.596390 7.190410 -12.245313 0
M  V30 39 H 8.085145 7.917397 -11.815375 0
M  V30 40 H 8.085896 6.675752 -14.005632 0
M  V30 41 H 5.819307 6.869882 -12.953675 0
M  V30 42 H 5.998421 5.372020 -13.847181 0
M  V30 43 H 5.878952 5.632663 -11.046821 0
M  V30 44 H 4.920895 4.629710 -12.052392 0
M  V30 45 H 6.748711 3.371689 -10.770664 0
M  V30 46 H 6.515779 3.015672 -12.469256 0
M  V30 47 H 8.901931 3.133892 -12.246849 0
M  V30 48 H 8.878521 4.172330 -9.919565 0
M  V30 49 H 10.136186 4.698186 -10.975357 0
M  V30 50 H 10.679889 4.749636 -13.121744 0
M  V30 51 H 10.089911 5.772059 -14.397391 0
M  V30 52 H 10.679927 2.223303 -13.448930 0
M  V30 53 H 10.793522 0.384634 -15.099457 0
M  V30 54 H 10.212062 0.802815 -17.481909 0
M  V30 55 H 9.511371 3.077982 -18.209595 0
M  V30 56 H 9.374908 4.925035 -16.563446 0
M  V30 57 H 7.968062 4.365134 -13.962403 0
M  V30 END ATOM
M  V30 BEGIN BOND
M  V30 1 1 2 1
M  V30 2 1 3 2
M  V30 3 1 4 3
M  V30 4 2 5 4
M  V30 5 1 6 5
M  V30 6 1 7 5
M  V30 7 1 8 7
M  V30 8 2 9 7
M  V30 9 2 10 3
M  V30 10 1 10 9
M  V30 11 1 11 10
M  V30 12 2 12 11
M  V30 13 1 13 11
M  V30 14 1 14 13
M  V30 15 1 15 14
M  V30 16 1 16 15
M  V30 17 1 17 16
M  V30 18 1 18 17
M  V30 19 1 19 18
M  V30 20 1 20 19
M  V30 21 1 21 14
M  V30 22 1 21 20
M  V30 23 1 22 16
M  V30 24 1 22 20
M  V30 25 1 23 22
M  V30 26 1 24 23
M  V30 27 2 25 24
M  V30 28 1 26 25
M  V30 29 2 27 26
M  V30 30 1 28 27
M  V30 31 1 29 24
M  V30 32 2 29 28
M  V30 33 1 30 1
M  V30 34 1 31 1
M  V30 35 1 32 1
M  V30 36 1 33 6
M  V30 37 1 34 6
M  V30 38 1 35 9
M  V30 39 1 36 13
M  V30 40 1 14 37 CFG=1
M  V30 41 1 38 15
M  V30 42 1 39 15
M  V30 43 1 16 40 CFG=3
M  V30 44 1 41 17
M  V30 45 1 42 17
M  V30 46 1 43 18
M  V30 47 1 44 18
M  V30 48 1 45 19
M  V30 49 1 46 19
M  V30 50 1 20 47 CFG=3
M  V30 51 1 48 21
M  V30 52 1 49 21
M  V30 53 1 50 23
M  V30 54 1 51 23
M  V30 55 1 52 25
M  V30 56 1 53 26
M  V30 57 1 54 27
M  V30 58 1 55 28
M  V30 59 1 56 29
M  V30 60 1 22 57 CFG=3
M  V30 END BOND
M  V30 END CTAB
M  END
>  <b_m_subgroup_collapsed>  (2376) 
0

>  <r_i_docking_score>  (2376) 
-5.7406834675502498

>  <s_m_subgroup_title>  (2376) 
glide-dock_SP_D22_pv

>  <s_m_subgroupid>  (2376) 
glide-dock_SP_D22_pv

>  <Molecule ChEMBL ID>  (2376) 
CHEMBL131926

>  <Standard Type>  (2376) 
Ki

>  <Standard Value>  (2376) 
1.259

>  <label>  (2376) 
1

$$$$
CHEMBL596271
     RDKit          3D

  0  0  0  0  0  0  0  0  0  0999 V3000
M  V30 BEGIN CTAB
M  V30 COUNTS 45 48 0 0 1
M  V30 BEGIN ATOM
M  V30 1 C 11.292456 2.860902 -15.451271 0
M  V30 2 N 9.946199 2.991641 -14.920211 0
M  V30 3 C 9.450628 4.007060 -14.171114 0
M  V30 4 C 10.345084 5.143433 -13.750255 0
M  V30 5 N 9.888261 5.987092 -12.640516 0
M  V30 6 C 9.663558 5.185682 -11.423919 0
M  V30 7 C 9.412945 6.061119 -10.182631 0
M  V30 8 N 10.486167 7.033310 -10.018005 0
M  V30 9 C 10.639277 7.680378 -8.781348 0
M  V30 10 C 11.861771 8.327233 -8.491785 0
M  V30 11 C 12.057931 8.972081 -7.257339 0
M  V30 12 C 11.032917 8.980389 -6.296252 0
M  V30 13 Cl 11.282378 9.772350 -4.783358 0
M  V30 14 C 9.812095 8.338855 -6.577459 0
M  V30 15 C 9.612506 7.694372 -7.809785 0
M  V30 16 C 10.623474 7.872971 -11.196714 0
M  V30 17 C 10.939918 6.990707 -12.411008 0
M  V30 18 N 8.162155 3.902670 -13.839123 0
M  V30 19 C 7.817358 2.670043 -14.346667 0
M  V30 20 C 6.606130 1.953074 -14.250162 0
M  V30 21 C 6.470361 0.706917 -14.894176 0
M  V30 22 C 7.532761 0.172808 -15.647334 0
M  V30 23 C 8.763647 0.851199 -15.721121 0
M  V30 24 C 8.899968 2.088031 -15.065194 0
M  V30 25 H 11.403775 1.919412 -15.990792 0
M  V30 26 H 11.500331 3.684422 -16.136002 0
M  V30 27 H 12.017911 2.880440 -14.637312 0
M  V30 28 H 10.504728 5.770712 -14.627953 0
M  V30 29 H 11.317655 4.726513 -13.485255 0
M  V30 30 H 10.485817 4.497770 -11.257396 0
M  V30 31 H 8.785684 4.554286 -11.544147 0
M  V30 32 H 9.340328 5.421895 -9.301991 0
M  V30 33 H 8.460995 6.583298 -10.283634 0
M  V30 34 H 12.667741 8.322751 -9.211320 0
M  V30 35 H 13.002024 9.451545 -7.047495 0
M  V30 36 H 9.018071 8.327297 -5.849486 0
M  V30 37 H 8.656486 7.224954 -7.993769 0
M  V30 38 H 9.697664 8.427295 -11.359728 0
M  V30 39 H 11.414705 8.609504 -11.059820 0
M  V30 40 H 11.912483 6.526947 -12.254132 0
M  V30 41 H 11.047443 7.619223 -13.293738 0
M  V30 42 H 5.781240 2.373876 -13.694320 0
M  V30 43 H 5.535851 0.167534 -14.832557 0
M  V30 44 H 7.396914 -0.765972 -16.162430 0
M  V30 45 H 9.585808 0.427770 -16.277218 0
M  V30 END ATOM
M  V30 BEGIN BOND
M  V30 1 1 2 1
M  V30 2 1 3 2
M  V30 3 1 4 3
M  V30 4 1 5 4
M  V30 5 1 6 5
M  V30 6 1 7 6
M  V30 7 1 8 7
M  V30 8 1 9 8
M  V30 9 1 10 9
M  V30 10 2 11 10
M  V30 11 1 12 11
M  V30 12 1 13 12
M  V30 13 2 14 12
M  V30 14 2 15 9
M  V30 15 1 15 14
M  V30 16 1 16 8
M  V30 17 1 17 5
M  V30 18 1 17 16
M  V30 19 2 18 3
M  V30 20 1 19 18
M  V30 21 2 20 19
M  V30 22 1 21 20
M  V30 23 2 22 21
M  V30 24 1 23 22
M  V30 25 1 24 2
M  V30 26 1 24 19
M  V30 27 2 24 23
M  V30 28 1 25 1
M  V30 29 1 26 1
M  V30 30 1 27 1
M  V30 31 1 28 4
M  V30 32 1 29 4
M  V30 33 1 30 6
M  V30 34 1 31 6
M  V30 35 1 32 7
M  V30 36 1 33 7
M  V30 37 1 34 10
M  V30 38 1 35 11
M  V30 39 1 36 14
M  V30 40 1 37 15
M  V30 41 1 38 16
M  V30 42 1 39 16
M  V30 43 1 40 17
M  V30 44 1 41 17
M  V30 45 1 42 20
M  V30 46 1 43 21
M  V30 47 1 44 22
M  V30 48 1 45 23
M  V30 END BOND
M  V30 END CTAB
M  END
>  <b_m_subgroup_collapsed>  (2377) 
0

>  <r_i_docking_score>  (2377) 
-5.7402499659177399

>  <s_m_subgroup_title>  (2377) 
glide-dock_SP_D22_pv

>  <s_m_subgroupid>  (2377) 
glide-dock_SP_D22_pv

>  <Molecule ChEMBL ID>  (2377) 
CHEMBL596271

>  <Standard Type>  (2377) 
Ki

>  <Standard Value>  (2377) 
10000.0

>  <label>  (2377) 
0

$$$$
CHEMBL5880427
     RDKit          3D

  0  0  0  0  0  0  0  0  0  0999 V3000
M  V30 BEGIN CTAB
M  V30 COUNTS 45 47 0 0 1
M  V30 BEGIN ATOM
M  V30 1 C 8.702936 7.313454 -6.679716 0
M  V30 2 C 9.944975 7.847442 -7.417585 0 CFG=1
M  V30 3 O 10.682746 8.777998 -6.619519 0
M  V30 4 C 11.212296 8.444064 -5.388802 0
M  V30 5 C 11.387755 7.134612 -4.881501 0
M  V30 6 C 11.937813 6.972103 -3.593796 0
M  V30 7 N 12.307504 8.001582 -2.808266 0
M  V30 8 C 12.140072 9.247626 -3.291455 0
M  V30 9 C 11.609808 9.515578 -4.566541 0
M  V30 10 C 10.794465 6.719710 -8.034822 0
M  V30 11 C 10.320260 6.578815 -9.489165 0
M  V30 12 N 9.286225 7.613906 -9.695978 0 CFG=2 CHG=1
M  V30 13 C 9.148232 8.125704 -11.079396 0
M  V30 14 C 8.493294 7.073992 -11.985152 0
M  V30 15 O 9.495483 6.157264 -12.404776 0
M  V30 16 C 9.102787 4.995277 -13.034502 0
M  V30 17 C 7.754368 4.593076 -13.216157 0
M  V30 18 C 7.453607 3.373970 -13.853350 0
M  V30 19 C 8.491444 2.553733 -14.335064 0
M  V30 20 C 9.830829 2.948201 -14.167946 0
M  V30 21 C 10.130842 4.158596 -13.515775 0
M  V30 22 C 9.502273 8.635707 -8.660160 0
M  V30 23 H 8.085932 6.705557 -7.339261 0
M  V30 24 H 8.959348 6.669191 -5.845355 0
M  V30 25 H 8.087461 8.132101 -6.303096 0
M  V30 26 H 11.123219 6.250381 -5.434596 0
M  V30 27 H 12.084748 5.984489 -3.183791 0
M  V30 28 H 12.451719 10.057382 -2.649690 0
M  V30 29 H 11.495175 10.532472 -4.908017 0
M  V30 30 H 11.851076 6.979356 -8.009500 0
M  V30 31 H 10.683748 5.774302 -7.503928 0
M  V30 32 H 11.161764 6.741629 -10.166667 0
M  V30 33 H 9.915592 5.586182 -9.694478 0
M  V30 34 H 8.488685 8.993467 -11.045469 0
M  V30 35 H 10.104117 8.466843 -11.477443 0
M  V30 36 H 7.689828 6.571893 -11.447357 0
M  V30 37 H 8.057358 7.551762 -12.862852 0
M  V30 38 H 6.926342 5.193724 -12.873049 0
M  V30 39 H 6.424724 3.071306 -13.979779 0
M  V30 40 H 8.260272 1.619977 -14.826847 0
M  V30 41 H 10.630623 2.318769 -14.531124 0
M  V30 42 H 11.163087 4.452754 -13.387794 0
M  V30 43 H 8.609202 9.237172 -8.487559 0
M  V30 44 H 10.298947 9.307365 -8.984857 0
M  V30 45 H 8.382083 7.205894 -9.470530 0
M  V30 END ATOM
M  V30 BEGIN BOND
M  V30 1 1 2 1
M  V30 2 1 2 3 CFG=1
M  V30 3 1 4 3
M  V30 4 1 5 4
M  V30 5 2 6 5
M  V30 6 1 7 6
M  V30 7 2 8 7
M  V30 8 2 9 4
M  V30 9 1 9 8
M  V30 10 1 10 2
M  V30 11 1 11 10
M  V30 12 1 12 11
M  V30 13 1 13 12
M  V30 14 1 14 13
M  V30 15 1 15 14
M  V30 16 1 16 15
M  V30 17 2 17 16
M  V30 18 1 18 17
M  V30 19 2 19 18
M  V30 20 1 20 19
M  V30 21 1 21 16
M  V30 22 2 21 20
M  V30 23 1 22 2
M  V30 24 1 22 12
M  V30 25 1 23 1
M  V30 26 1 24 1
M  V30 27 1 25 1
M  V30 28 1 26 5
M  V30 29 1 27 6
M  V30 30 1 28 8
M  V30 31 1 29 9
M  V30 32 1 30 10
M  V30 33 1 31 10
M  V30 34 1 32 11
M  V30 35 1 33 11
M  V30 36 1 34 13
M  V30 37 1 35 13
M  V30 38 1 36 14
M  V30 39 1 37 14
M  V30 40 1 38 17
M  V30 41 1 39 18
M  V30 42 1 40 19
M  V30 43 1 41 20
M  V30 44 1 42 21
M  V30 45 1 43 22
M  V30 46 1 44 22
M  V30 47 1 12 45 CFG=1
M  V30 END BOND
M  V30 END CTAB
M  END
>  <b_m_subgroup_collapsed>  (2378) 
0

>  <r_i_docking_score>  (2378) 
-5.7400908051200696

>  <s_m_subgroup_title>  (2378) 
glide-dock_SP_D22_pv

>  <s_m_subgroupid>  (2378) 
glide-dock_SP_D22_pv

>  <Molecule ChEMBL ID>  (2378) 
CHEMBL5880427

>  <Standard Type>  (2378) 
Ki

>  <Standard Value>  (2378) 
20000.0

>  <label>  (2378) 
0

$$$$
CHEMBL3695424
     RDKit          3D

  0  0  0  0  0  0  0  0  0  0999 V3000
M  V30 BEGIN CTAB
M  V30 COUNTS 81 85 0 0 1
M  V30 BEGIN ATOM
M  V30 1 C 11.106888 9.212946 -6.596115 0
M  V30 2 C 10.250092 8.140452 -7.305277 0
M  V30 3 C 8.781939 8.599324 -7.234548 0
M  V30 4 C 10.394916 6.818341 -6.533146 0
M  V30 5 C 10.660759 7.906610 -8.771531 0
M  V30 6 C 11.906017 8.345051 -9.278629 0
M  V30 7 C 12.276254 8.092072 -10.610133 0
M  V30 8 C 11.423672 7.373752 -11.474698 0
M  V30 9 C 11.860955 7.079885 -12.884362 0
M  V30 10 O 12.716684 7.772161 -13.438457 0
M  V30 11 N 11.300835 6.014292 -13.470435 0
M  V30 12 C 11.531135 5.624172 -14.854302 0 CFG=1
M  V30 13 C 12.691039 4.616772 -14.972802 0
M  V30 14 C 12.849423 4.110524 -16.414612 0
M  V30 15 C 11.530270 3.516022 -16.945488 0 CFG=2
M  V30 16 C 11.703305 2.869763 -18.344862 0
M  V30 17 C 11.604520 1.320318 -18.327585 0
M  V30 18 N 10.238372 0.754837 -18.538744 0 CFG=2 CHG=1
M  V30 19 C 9.146214 1.502064 -17.859362 0
M  V30 20 C 7.763041 0.927861 -18.159971 0
M  V30 21 C 7.692988 -0.552344 -17.788023 0 CFG=1
M  V30 22 C 6.278165 -1.061525 -18.005142 0
M  V30 23 C 5.810058 -1.452686 -19.285885 0
M  V30 24 C 4.463791 -1.841020 -19.474977 0
M  V30 25 C 3.557660 -1.828041 -18.392962 0
M  V30 26 C 4.025210 -1.429832 -17.128216 0
M  V30 27 C 5.347724 -1.066658 -16.942915 0
M  V30 28 C 5.553769 -0.700868 -15.510139 0
M  V30 29 C 4.115933 -0.796716 -14.950515 0
M  V30 30 O 3.285739 -1.339175 -15.984484 0
M  V30 31 C 8.801403 -1.310403 -18.543650 0
M  V30 32 C 10.185247 -0.703146 -18.235693 0
M  V30 33 C 10.438999 4.605210 -16.877041 0
M  V30 34 C 10.232876 5.039430 -15.423493 0
M  V30 35 C 10.157367 6.972730 -10.990796 0
M  V30 36 C 9.788547 7.224970 -9.656250 0
M  V30 37 H 12.155480 8.927519 -6.523848 0
M  V30 38 H 11.057480 10.171516 -7.107934 0
M  V30 39 H 10.762909 9.376918 -5.576091 0
M  V30 40 H 8.088746 7.784474 -7.451916 0
M  V30 41 H 8.515965 8.971125 -6.246955 0
M  V30 42 H 8.579483 9.398335 -7.948197 0
M  V30 43 H 11.424740 6.462135 -6.541426 0
M  V30 44 H 10.090684 6.929087 -5.493044 0
M  V30 45 H 9.773649 6.035162 -6.969364 0
M  V30 46 H 12.613109 8.879498 -8.662833 0
M  V30 47 H 13.235624 8.444343 -10.961679 0
M  V30 48 H 10.633530 5.480617 -12.938296 0
M  V30 49 H 11.779422 6.508177 -15.443632 0
M  V30 50 H 12.509809 3.772802 -14.304969 0
M  V30 51 H 13.624846 5.075046 -14.646507 0
M  V30 52 H 13.646289 3.373699 -16.464931 0
M  V30 53 H 13.166530 4.937672 -17.052645 0
M  V30 54 H 11.238239 2.731592 -16.242428 0
M  V30 55 H 12.692505 3.130789 -18.720886 0
M  V30 56 H 11.025363 3.303648 -19.080532 0
M  V30 57 H 12.031298 0.935707 -17.398911 0
M  V30 58 H 12.235829 0.924046 -19.123867 0
M  V30 59 H 9.113953 2.512611 -18.240110 0
M  V30 60 H 9.317002 1.531965 -16.782394 0
M  V30 61 H 7.521437 1.063395 -19.215895 0
M  V30 62 H 7.016281 1.488447 -17.593975 0
M  V30 63 H 7.916503 -0.635854 -16.726158 0
M  V30 64 H 6.466635 -1.440680 -20.140423 0
M  V30 65 H 4.122031 -2.131545 -20.457745 0
M  V30 66 H 2.521683 -2.107394 -18.533213 0
M  V30 67 H 6.210488 -1.427932 -15.034461 0
M  V30 68 H 5.975331 0.297111 -15.400283 0
M  V30 69 H 3.742666 0.191221 -14.680644 0
M  V30 70 H 4.069885 -1.424840 -14.060885 0
M  V30 71 H 8.787938 -2.364444 -18.260986 0
M  V30 72 H 8.633604 -1.274504 -19.621002 0
M  V30 73 H 10.947508 -1.222783 -18.819221 0
M  V30 74 H 10.430055 -0.863717 -17.183123 0
M  V30 75 H 10.724556 5.464490 -17.487972 0
M  V30 76 H 9.480679 4.274851 -17.261421 0
M  V30 77 H 9.906867 4.183999 -14.826693 0
M  V30 78 H 9.434567 5.772096 -15.359117 0
M  V30 79 H 9.451976 6.456744 -11.629608 0
M  V30 80 H 8.818802 6.880360 -9.326616 0
M  V30 81 H 10.046893 0.849224 -19.529182 0
M  V30 END ATOM
M  V30 BEGIN BOND
M  V30 1 1 2 1
M  V30 2 1 3 2
M  V30 3 1 4 2
M  V30 4 1 5 2
M  V30 5 1 6 5
M  V30 6 2 7 6
M  V30 7 1 8 7
M  V30 8 1 9 8
M  V30 9 2 10 9
M  V30 10 1 11 9
M  V30 11 1 12 11
M  V30 12 1 13 12
M  V30 13 1 14 13
M  V30 14 1 15 14
M  V30 15 1 16 15
M  V30 16 1 17 16
M  V30 17 1 18 17
M  V30 18 1 19 18
M  V30 19 1 20 19
M  V30 20 1 21 20
M  V30 21 1 22 21
M  V30 22 2 23 22
M  V30 23 1 24 23
M  V30 24 2 25 24
M  V30 25 1 26 25
M  V30 26 1 27 22
M  V30 27 2 27 26
M  V30 28 1 28 27
M  V30 29 1 29 28
M  V30 30 1 30 26
M  V30 31 1 30 29
M  V30 32 1 31 21
M  V30 33 1 32 18
M  V30 34 1 32 31
M  V30 35 1 33 15
M  V30 36 1 34 12
M  V30 37 1 34 33
M  V30 38 2 35 8
M  V30 39 2 36 5
M  V30 40 1 36 35
M  V30 41 1 37 1
M  V30 42 1 38 1
M  V30 43 1 39 1
M  V30 44 1 40 3
M  V30 45 1 41 3
M  V30 46 1 42 3
M  V30 47 1 43 4
M  V30 48 1 44 4
M  V30 49 1 45 4
M  V30 50 1 46 6
M  V30 51 1 47 7
M  V30 52 1 48 11
M  V30 53 1 12 49 CFG=3
M  V30 54 1 50 13
M  V30 55 1 51 13
M  V30 56 1 52 14
M  V30 57 1 53 14
M  V30 58 1 15 54 CFG=1
M  V30 59 1 55 16
M  V30 60 1 56 16
M  V30 61 1 57 17
M  V30 62 1 58 17
M  V30 63 1 59 19
M  V30 64 1 60 19
M  V30 65 1 61 20
M  V30 66 1 62 20
M  V30 67 1 21 63 CFG=1
M  V30 68 1 64 23
M  V30 69 1 65 24
M  V30 70 1 66 25
M  V30 71 1 67 28
M  V30 72 1 68 28
M  V30 73 1 69 29
M  V30 74 1 70 29
M  V30 75 1 71 31
M  V30 76 1 72 31
M  V30 77 1 73 32
M  V30 78 1 74 32
M  V30 79 1 75 33
M  V30 80 1 76 33
M  V30 81 1 77 34
M  V30 82 1 78 34
M  V30 83 1 79 35
M  V30 84 1 80 36
M  V30 85 1 18 81 CFG=3
M  V30 END BOND
M  V30 END CTAB
M  END
>  <b_m_subgroup_collapsed>  (2379) 
0

>  <r_i_docking_score>  (2379) 
-5.7378189364699699

>  <s_m_subgroup_title>  (2379) 
glide-dock_SP_D22_pv

>  <s_m_subgroupid>  (2379) 
glide-dock_SP_D22_pv

>  <Molecule ChEMBL ID>  (2379) 
CHEMBL3695424

>  <Standard Type>  (2379) 
Ki

>  <Standard Value>  (2379) 
10000000.0

>  <label>  (2379) 
0

$$$$
CHEMBL1255588
     RDKit          3D

  0  0  0  0  0  0  0  0  0  0999 V3000
M  V30 BEGIN CTAB
M  V30 COUNTS 59 63 0 0 1
M  V30 BEGIN ATOM
M  V30 1 C 9.382087 -0.077461 -20.568899 0
M  V30 2 C 8.037372 0.471567 -20.032061 0
M  V30 3 C 6.982951 -0.649047 -20.214066 0
M  V30 4 C 7.618580 1.644519 -20.952295 0
M  V30 5 C 8.140337 0.926778 -18.521341 0 CFG=1
M  V30 6 O 6.854603 1.374164 -18.130205 0
M  V30 7 C 8.532634 -0.216859 -17.552761 0
M  V30 8 C 8.649665 0.254099 -16.096622 0
M  V30 9 N 9.611082 1.375258 -15.966537 0 CFG=2 CHG=1
M  V30 10 C 9.923698 1.684025 -14.549222 0
M  V30 11 C 10.005381 3.185300 -14.194910 0 CFG=2
M  V30 12 C 8.765765 3.883427 -13.660441 0
M  V30 13 C 7.474593 3.334851 -13.846704 0
M  V30 14 C 6.336216 3.978370 -13.327341 0
M  V30 15 C 6.480453 5.180304 -12.615824 0
M  V30 16 C 7.756927 5.743515 -12.442534 0
M  V30 17 C 8.909672 5.117502 -12.965652 0
M  V30 18 C 10.247373 5.831792 -12.706447 0
M  V30 19 C 11.533247 5.463043 -13.498987 0
M  V30 20 C 11.366692 5.174953 -14.985079 0
M  V30 21 C 11.913810 5.940133 -16.033272 0
M  V30 22 C 11.672742 5.584166 -17.374611 0
M  V30 23 C 10.859482 4.475782 -17.682009 0
M  V30 24 C 10.292226 3.686590 -16.654968 0
M  V30 25 C 10.597480 4.033133 -15.315165 0
M  V30 26 C 9.269437 2.549546 -16.811224 0 CFG=1
M  V30 27 C 9.112678 2.115570 -18.291798 0
M  V30 28 H 9.716200 -0.962303 -20.027105 0
M  V30 29 H 10.180373 0.663185 -20.531214 0
M  V30 30 H 9.288581 -0.375875 -21.614597 0
M  V30 31 H 6.893898 -0.937867 -21.263493 0
M  V30 32 H 5.986737 -0.338035 -19.894470 0
M  V30 33 H 7.241942 -1.557005 -19.669191 0
M  V30 34 H 7.481999 1.307384 -21.981350 0
M  V30 35 H 8.370490 2.431940 -20.986074 0
M  V30 36 H 6.674977 2.095646 -20.643124 0
M  V30 37 H 6.233596 0.676355 -18.294008 0
M  V30 38 H 7.806682 -1.028459 -17.589010 0
M  V30 39 H 9.487947 -0.651629 -17.844439 0
M  V30 40 H 7.673049 0.551632 -15.713572 0
M  V30 41 H 8.983543 -0.581594 -15.479767 0
M  V30 42 H 9.269776 1.163427 -13.847547 0
M  V30 43 H 10.908285 1.244275 -14.389691 0
M  V30 44 H 10.669617 3.142016 -13.338189 0
M  V30 45 H 7.332633 2.408272 -14.378397 0
M  V30 46 H 5.356623 3.545791 -13.464945 0
M  V30 47 H 5.619154 5.677103 -12.193950 0
M  V30 48 H 7.842562 6.667864 -11.887477 0
M  V30 49 H 10.060403 6.889020 -12.889357 0
M  V30 50 H 10.458120 5.772151 -11.639509 0
M  V30 51 H 12.236252 6.291032 -13.396039 0
M  V30 52 H 12.068534 4.631286 -13.046865 0
M  V30 53 H 12.517463 6.808668 -15.810568 0
M  V30 54 H 12.091599 6.183827 -18.170282 0
M  V30 55 H 10.657417 4.262051 -18.721199 0
M  V30 56 H 8.312276 2.951250 -16.481125 0
M  V30 57 H 10.100834 1.854695 -18.671963 0
M  V30 58 H 8.776415 2.977672 -18.867172 0
M  V30 59 H 10.483193 1.039641 -16.350904 0
M  V30 END ATOM
M  V30 BEGIN BOND
M  V30 1 1 2 1
M  V30 2 1 3 2
M  V30 3 1 4 2
M  V30 4 1 5 2
M  V30 5 1 5 6 CFG=1
M  V30 6 1 7 5
M  V30 7 1 8 7
M  V30 8 1 9 8
M  V30 9 1 10 9
M  V30 10 1 11 10
M  V30 11 1 12 11
M  V30 12 2 13 12
M  V30 13 1 14 13
M  V30 14 2 15 14
M  V30 15 1 16 15
M  V30 16 1 17 12
M  V30 17 2 17 16
M  V30 18 1 18 17
M  V30 19 1 19 18
M  V30 20 1 20 19
M  V30 21 1 21 20
M  V30 22 2 22 21
M  V30 23 1 23 22
M  V30 24 2 24 23
M  V30 25 1 25 11
M  V30 26 2 25 20
M  V30 27 1 25 24
M  V30 28 1 26 9
M  V30 29 1 26 24
M  V30 30 1 27 5
M  V30 31 1 27 26
M  V30 32 1 28 1
M  V30 33 1 29 1
M  V30 34 1 30 1
M  V30 35 1 31 3
M  V30 36 1 32 3
M  V30 37 1 33 3
M  V30 38 1 34 4
M  V30 39 1 35 4
M  V30 40 1 36 4
M  V30 41 1 37 6
M  V30 42 1 38 7
M  V30 43 1 39 7
M  V30 44 1 40 8
M  V30 45 1 41 8
M  V30 46 1 42 10
M  V30 47 1 43 10
M  V30 48 1 11 44 CFG=1
M  V30 49 1 45 13
M  V30 50 1 46 14
M  V30 51 1 47 15
M  V30 52 1 48 16
M  V30 53 1 49 18
M  V30 54 1 50 18
M  V30 55 1 51 19
M  V30 56 1 52 19
M  V30 57 1 53 21
M  V30 58 1 54 22
M  V30 59 1 55 23
M  V30 60 1 26 56 CFG=1
M  V30 61 1 57 27
M  V30 62 1 58 27
M  V30 63 1 9 59 CFG=3
M  V30 END BOND
M  V30 END CTAB
M  END
>  <b_m_subgroup_collapsed>  (2380) 
0

>  <r_i_docking_score>  (2380) 
-5.7368586697646302

>  <s_m_subgroup_title>  (2380) 
glide-dock_SP_D22_pv

>  <s_m_subgroupid>  (2380) 
glide-dock_SP_D22_pv

>  <Molecule ChEMBL ID>  (2380) 
CHEMBL1255588

>  <Standard Type>  (2380) 
Ki

>  <Standard Value>  (2380) 
0.37

>  <label>  (2380) 
1

$$$$
CHEMBL381573
     RDKit          3D

  0  0  0  0  0  0  0  0  0  0999 V3000
M  V30 BEGIN CTAB
M  V30 COUNTS 51 54 0 0 1
M  V30 BEGIN ATOM
M  V30 1 C 8.485870 4.322858 -14.724002 0
M  V30 2 N 9.378798 4.166772 -13.569983 0 CFG=2 CHG=1
M  V30 3 C 10.161702 2.927878 -13.647033 0
M  V30 4 C 11.374393 3.140661 -14.575796 0
M  V30 5 C 12.411033 4.171893 -14.061830 0
M  V30 6 C 12.409294 5.611307 -14.622624 0 CFG=1
M  V30 7 C 12.597582 5.635101 -16.140446 0
M  V30 8 C 11.509022 5.761591 -17.036619 0
M  V30 9 C 11.729876 5.792235 -18.427160 0
M  V30 10 C 13.037436 5.693515 -18.937757 0
M  V30 11 C 14.125605 5.563401 -18.055183 0
M  V30 12 C 13.905244 5.534527 -16.665012 0
M  V30 13 C 11.286189 6.541794 -14.131161 0
M  V30 14 C 11.092887 6.767676 -12.648468 0
M  V30 15 N 12.096934 7.372633 -11.916123 0
M  V30 16 C 11.710251 7.608469 -10.612498 0
M  V30 17 C 12.374682 8.173276 -9.509945 0
M  V30 18 C 11.698794 8.298064 -8.282468 0
M  V30 19 C 10.368562 7.852239 -8.169041 0
M  V30 20 C 9.717343 7.274613 -9.277265 0
M  V30 21 C 10.375956 7.128929 -10.523835 0
M  V30 22 C 10.007005 6.585595 -11.805742 0
M  V30 23 C 8.654818 5.982656 -12.075158 0
M  V30 24 C 8.711911 4.460915 -12.285303 0
M  V30 25 H 7.644739 3.632484 -14.646358 0
M  V30 26 H 8.992635 4.133619 -15.669221 0
M  V30 27 H 8.094248 5.337772 -14.768005 0
M  V30 28 H 10.485795 2.640058 -12.654913 0
M  V30 29 H 9.538374 2.105186 -14.001070 0
M  V30 30 H 11.865826 2.172940 -14.659883 0
M  V30 31 H 11.071358 3.370819 -15.595666 0
M  V30 32 H 12.404366 4.200655 -12.982143 0
M  V30 33 H 13.383302 3.772845 -14.324851 0
M  V30 34 H 13.306451 6.085450 -14.242768 0
M  V30 35 H 10.493907 5.839143 -16.682703 0
M  V30 36 H 10.894891 5.893637 -19.104551 0
M  V30 37 H 13.205657 5.718584 -20.004599 0
M  V30 38 H 15.129903 5.489261 -18.444363 0
M  V30 39 H 14.750600 5.435208 -15.999512 0
M  V30 40 H 11.469881 7.515896 -14.586235 0
M  V30 41 H 10.367656 6.171641 -14.562490 0
M  V30 42 H 12.988740 7.628682 -12.317478 0
M  V30 43 H 13.387051 8.537685 -9.607133 0
M  V30 44 H 12.196709 8.744810 -7.434211 0
M  V30 45 H 9.839333 7.954966 -7.232304 0
M  V30 46 H 8.689691 6.952174 -9.170729 0
M  V30 47 H 7.991851 6.174495 -11.231009 0
M  V30 48 H 8.175942 6.492540 -12.909536 0
M  V30 49 H 7.710853 4.027390 -12.273540 0
M  V30 50 H 9.253310 4.016859 -11.448521 0
M  V30 51 H 10.078674 4.892256 -13.637815 0
M  V30 END ATOM
M  V30 BEGIN BOND
M  V30 1 1 2 1
M  V30 2 1 3 2
M  V30 3 1 4 3
M  V30 4 1 5 4
M  V30 5 1 6 5
M  V30 6 1 7 6
M  V30 7 2 8 7
M  V30 8 1 9 8
M  V30 9 2 10 9
M  V30 10 1 11 10
M  V30 11 1 12 7
M  V30 12 2 12 11
M  V30 13 1 13 6
M  V30 14 1 14 13
M  V30 15 1 15 14
M  V30 16 1 16 15
M  V30 17 2 17 16
M  V30 18 1 18 17
M  V30 19 2 19 18
M  V30 20 1 20 19
M  V30 21 1 21 16
M  V30 22 2 21 20
M  V30 23 2 22 14
M  V30 24 1 22 21
M  V30 25 1 23 22
M  V30 26 1 24 2
M  V30 27 1 24 23
M  V30 28 1 25 1
M  V30 29 1 26 1
M  V30 30 1 27 1
M  V30 31 1 28 3
M  V30 32 1 29 3
M  V30 33 1 30 4
M  V30 34 1 31 4
M  V30 35 1 32 5
M  V30 36 1 33 5
M  V30 37 1 6 34 CFG=1
M  V30 38 1 35 8
M  V30 39 1 36 9
M  V30 40 1 37 10
M  V30 41 1 38 11
M  V30 42 1 39 12
M  V30 43 1 40 13
M  V30 44 1 41 13
M  V30 45 1 42 15
M  V30 46 1 43 17
M  V30 47 1 44 18
M  V30 48 1 45 19
M  V30 49 1 46 20
M  V30 50 1 47 23
M  V30 51 1 48 23
M  V30 52 1 49 24
M  V30 53 1 50 24
M  V30 54 1 2 51 CFG=3
M  V30 END BOND
M  V30 END CTAB
M  END
>  <b_m_subgroup_collapsed>  (2381) 
0

>  <r_i_docking_score>  (2381) 
-5.7368582857163304

>  <s_m_subgroup_title>  (2381) 
glide-dock_SP_D22_pv

>  <s_m_subgroupid>  (2381) 
glide-dock_SP_D22_pv

>  <Molecule ChEMBL ID>  (2381) 
CHEMBL381573

>  <Standard Type>  (2381) 
Ki

>  <Standard Value>  (2381) 
10000.0

>  <label>  (2381) 
0

$$$$
CHEMBL425208
     RDKit          3D

  0  0  0  0  0  0  0  0  0  0999 V3000
M  V30 BEGIN CTAB
M  V30 COUNTS 56 60 0 0 1
M  V30 BEGIN ATOM
M  V30 1 C 10.640807 9.360985 -7.058446 0
M  V30 2 C 11.194843 7.977071 -7.436295 0 CFG=1
M  V30 3 C 10.387460 6.813493 -6.826571 0
M  V30 4 C 9.079246 6.571533 -7.585406 0
M  V30 5 O 8.087296 6.171846 -6.995163 0
M  V30 6 N 9.070268 6.789125 -8.905250 0
M  V30 7 C 10.192809 7.241305 -9.636411 0
M  V30 8 C 10.238931 7.107519 -11.044553 0
M  V30 9 C 9.122549 6.459516 -11.844561 0
M  V30 10 C 9.565004 5.069088 -12.323233 0
M  V30 11 N 8.707533 4.490016 -13.355849 0
M  V30 12 C 9.370296 3.260410 -13.798743 0
M  V30 13 C 8.559796 2.595346 -14.915542 0
M  V30 14 N 7.228761 2.268641 -14.429405 0
M  V30 15 C 6.598959 1.055798 -14.677094 0
M  V30 16 N 6.047057 0.301327 -13.783759 0
M  V30 17 S 5.286062 -1.026493 -14.392490 0
M  V30 18 O 3.790663 -0.761311 -14.207492 0
M  V30 19 C 5.686064 -0.579798 -16.078341 0
M  V30 20 C 5.306642 -1.248399 -17.253935 0
M  V30 21 C 5.745302 -0.705257 -18.479841 0
M  V30 22 C 6.535148 0.469415 -18.501108 0
M  V30 23 C 6.890383 1.123173 -17.297472 0
M  V30 24 C 6.449810 0.572272 -16.076523 0
M  V30 25 C 6.518924 3.405124 -13.846114 0
M  V30 26 C 7.380517 4.164769 -12.814796 0
M  V30 27 C 11.386747 7.543573 -11.733638 0
M  V30 28 C 12.467410 8.119746 -11.047094 0
M  V30 29 F 13.534157 8.572037 -11.747066 0
M  V30 30 C 12.433489 8.220731 -9.645789 0
M  V30 31 C 11.286868 7.809528 -8.943189 0
M  V30 32 H 11.284703 10.161864 -7.433040 0
M  V30 33 H 9.643708 9.505549 -7.472439 0
M  V30 34 H 10.571677 9.478761 -5.975668 0
M  V30 35 H 12.205533 7.919882 -7.047258 0
M  V30 36 H 10.188602 6.986073 -5.768814 0
M  V30 37 H 10.970912 5.893381 -6.890332 0
M  V30 38 H 8.196900 6.652810 -9.399189 0
M  V30 39 H 8.887311 7.105282 -12.690091 0
M  V30 40 H 8.204291 6.393560 -11.262846 0
M  V30 41 H 9.647316 4.396264 -11.467327 0
M  V30 42 H 10.567139 5.156491 -12.744238 0
M  V30 43 H 9.506002 2.572394 -12.963097 0
M  V30 44 H 10.363708 3.492226 -14.180342 0
M  V30 45 H 9.070914 1.696193 -15.259947 0
M  V30 46 H 8.486753 3.273687 -15.766311 0
M  V30 47 H 4.695283 -2.139974 -17.216763 0
M  V30 48 H 5.472307 -1.188279 -19.407557 0
M  V30 49 H 6.862842 0.872333 -19.448463 0
M  V30 50 H 7.473325 2.029974 -17.327951 0
M  V30 51 H 6.219482 4.080743 -14.646577 0
M  V30 52 H 5.595940 3.075760 -13.367344 0
M  V30 53 H 7.475440 3.582865 -11.902335 0
M  V30 54 H 6.859444 5.081288 -12.533653 0
M  V30 55 H 11.440263 7.448100 -12.809600 0
M  V30 56 H 13.270230 8.653366 -9.118315 0
M  V30 END ATOM
M  V30 BEGIN BOND
M  V30 1 1 2 1
M  V30 2 1 3 2
M  V30 3 1 4 3
M  V30 4 2 5 4
M  V30 5 1 6 4
M  V30 6 1 7 6
M  V30 7 2 8 7
M  V30 8 1 9 8
M  V30 9 1 10 9
M  V30 10 1 11 10
M  V30 11 1 12 11
M  V30 12 1 13 12
M  V30 13 1 14 13
M  V30 14 1 15 14
M  V30 15 2 16 15
M  V30 16 1 17 16 CFG=1
M  V30 17 2 18 17
M  V30 18 1 19 17
M  V30 19 2 20 19
M  V30 20 1 21 20
M  V30 21 2 22 21
M  V30 22 1 23 22
M  V30 23 1 24 15
M  V30 24 1 24 19
M  V30 25 2 24 23
M  V30 26 1 25 14
M  V30 27 1 26 11
M  V30 28 1 26 25
M  V30 29 1 27 8
M  V30 30 2 28 27
M  V30 31 1 29 28
M  V30 32 1 30 28
M  V30 33 1 31 2
M  V30 34 1 31 7
M  V30 35 2 31 30
M  V30 36 1 32 1
M  V30 37 1 33 1
M  V30 38 1 34 1
M  V30 39 1 2 35 CFG=1
M  V30 40 1 36 3
M  V30 41 1 37 3
M  V30 42 1 38 6
M  V30 43 1 39 9
M  V30 44 1 40 9
M  V30 45 1 41 10
M  V30 46 1 42 10
M  V30 47 1 43 12
M  V30 48 1 44 12
M  V30 49 1 45 13
M  V30 50 1 46 13
M  V30 51 1 47 20
M  V30 52 1 48 21
M  V30 53 1 49 22
M  V30 54 1 50 23
M  V30 55 1 51 25
M  V30 56 1 52 25
M  V30 57 1 53 26
M  V30 58 1 54 26
M  V30 59 1 55 27
M  V30 60 1 56 30
M  V30 END BOND
M  V30 END CTAB
M  END
>  <b_m_subgroup_collapsed>  (2382) 
0

>  <r_i_docking_score>  (2382) 
-5.7365815981353103

>  <s_m_subgroup_title>  (2382) 
glide-dock_SP_D22_pv

>  <s_m_subgroupid>  (2382) 
glide-dock_SP_D22_pv

>  <Molecule ChEMBL ID>  (2382) 
CHEMBL425208

>  <Standard Type>  (2382) 
Ki

>  <Standard Value>  (2382) 
92.0

>  <label>  (2382) 
1

$$$$
CHEMBL4636778
     RDKit          3D

  0  0  0  0  0  0  0  0  0  0999 V3000
M  V30 BEGIN CTAB
M  V30 COUNTS 63 65 0 0 1
M  V30 BEGIN ATOM
M  V30 1 C 9.080751 7.876190 -7.194077 0
M  V30 2 C 9.312159 6.458284 -7.737370 0 CFG=1
M  V30 3 O 8.086051 5.772319 -7.787028 0
M  V30 4 C 10.051688 6.357881 -9.092743 0
M  V30 5 N 9.488088 7.235274 -10.169812 0 CFG=2 CHG=1
M  V30 6 C 8.928072 6.521946 -11.361679 0 CFG=2
M  V30 7 C 7.931243 5.413627 -11.006163 0
M  V30 8 C 10.038988 5.951746 -12.263602 0
M  V30 9 N 11.024798 6.972683 -12.646965 0
M  V30 10 C 12.093874 6.392384 -13.463932 0
M  V30 11 C 11.663771 6.179674 -14.923045 0
M  V30 12 S 12.758872 4.995412 -15.754254 0
M  V30 13 C 11.681075 4.182478 -16.992264 0
M  V30 14 C 10.977896 5.177512 -17.933197 0
M  V30 15 C 11.635010 6.363935 -18.339581 0
M  V30 16 C 11.027293 7.254859 -19.246880 0
M  V30 17 C 9.753376 6.969987 -19.768030 0
M  V30 18 F 9.169765 7.822674 -20.643667 0
M  V30 19 C 9.093459 5.787843 -19.389154 0
M  V30 20 C 9.706584 4.892944 -18.489492 0
M  V30 21 C 10.809683 3.128360 -16.294714 0
M  V30 22 C 11.256209 1.787934 -16.247417 0
M  V30 23 C 10.485768 0.794814 -15.608884 0
M  V30 24 C 9.261246 1.131194 -15.003512 0
M  V30 25 F 8.519833 0.177836 -14.391985 0
M  V30 26 C 8.810435 2.462999 -15.034744 0
M  V30 27 C 9.579707 3.453682 -15.674919 0
M  V30 28 C 11.575779 7.644372 -11.467982 0
M  V30 29 C 10.427510 8.290056 -10.663241 0 CFG=2
M  V30 30 C 10.952560 9.240693 -9.572355 0
M  V30 31 H 10.023458 8.390996 -7.010702 0
M  V30 32 H 8.486935 8.482714 -7.876972 0
M  V30 33 H 8.542499 7.845793 -6.246864 0
M  V30 34 H 9.913230 5.918387 -7.005458 0
M  V30 35 H 7.370402 6.411438 -7.847265 0
M  V30 36 H 11.097234 6.598041 -8.912220 0
M  V30 37 H 10.086539 5.316267 -9.406857 0
M  V30 38 H 8.370546 7.266891 -11.933126 0
M  V30 39 H 7.342764 5.118965 -11.875042 0
M  V30 40 H 8.409925 4.516783 -10.615606 0
M  V30 41 H 7.250915 5.772288 -10.247198 0
M  V30 42 H 9.569451 5.547648 -13.159544 0
M  V30 43 H 10.485995 5.095446 -11.769687 0
M  V30 44 H 12.961804 7.053445 -13.467299 0
M  V30 45 H 12.428297 5.443828 -13.044493 0
M  V30 46 H 10.647592 5.810541 -14.977705 0
M  V30 47 H 11.675771 7.125335 -15.465976 0
M  V30 48 H 12.364472 3.634571 -17.642340 0
M  V30 49 H 12.621135 6.603903 -17.970367 0
M  V30 50 H 11.540058 8.159576 -19.541052 0
M  V30 51 H 8.119726 5.561068 -19.798628 0
M  V30 52 H 9.187984 3.978037 -18.247242 0
M  V30 53 H 12.199965 1.512856 -16.696419 0
M  V30 54 H 10.835506 -0.226282 -15.579386 0
M  V30 55 H 7.869853 2.722392 -14.570769 0
M  V30 56 H 9.200208 4.463055 -15.705324 0
M  V30 57 H 12.279468 8.411919 -11.790514 0
M  V30 58 H 12.159058 6.972265 -10.846757 0
M  V30 59 H 9.859760 8.922299 -11.348847 0
M  V30 60 H 11.608668 9.993897 -10.009685 0
M  V30 61 H 10.136075 9.771709 -9.086690 0
M  V30 62 H 11.541659 8.735605 -8.808450 0
M  V30 63 H 8.685244 7.700753 -9.762742 0
M  V30 END ATOM
M  V30 BEGIN BOND
M  V30 1 1 2 1
M  V30 2 1 3 2
M  V30 3 1 4 2
M  V30 4 1 5 4
M  V30 5 1 6 5
M  V30 6 1 7 6
M  V30 7 1 8 6
M  V30 8 1 9 8
M  V30 9 1 10 9
M  V30 10 1 11 10
M  V30 11 1 12 11
M  V30 12 1 13 12
M  V30 13 1 14 13
M  V30 14 1 15 14
M  V30 15 2 16 15
M  V30 16 1 17 16
M  V30 17 1 18 17
M  V30 18 2 19 17
M  V30 19 2 20 14
M  V30 20 1 20 19
M  V30 21 1 21 13
M  V30 22 1 22 21
M  V30 23 2 23 22
M  V30 24 1 24 23
M  V30 25 1 25 24
M  V30 26 2 26 24
M  V30 27 2 27 21
M  V30 28 1 27 26
M  V30 29 1 28 9
M  V30 30 1 29 5
M  V30 31 1 29 28
M  V30 32 1 30 29
M  V30 33 1 31 1
M  V30 34 1 32 1
M  V30 35 1 33 1
M  V30 36 1 2 34 CFG=1
M  V30 37 1 35 3
M  V30 38 1 36 4
M  V30 39 1 37 4
M  V30 40 1 6 38 CFG=3
M  V30 41 1 39 7
M  V30 42 1 40 7
M  V30 43 1 41 7
M  V30 44 1 42 8
M  V30 45 1 43 8
M  V30 46 1 44 10
M  V30 47 1 45 10
M  V30 48 1 46 11
M  V30 49 1 47 11
M  V30 50 1 48 13
M  V30 51 1 49 15
M  V30 52 1 50 16
M  V30 53 1 51 19
M  V30 54 1 52 20
M  V30 55 1 53 22
M  V30 56 1 54 23
M  V30 57 1 55 26
M  V30 58 1 56 27
M  V30 59 1 57 28
M  V30 60 1 58 28
M  V30 61 1 29 59 CFG=3
M  V30 62 1 60 30
M  V30 63 1 61 30
M  V30 64 1 62 30
M  V30 65 1 5 63 CFG=1
M  V30 END BOND
M  V30 END CTAB
M  END
>  <b_m_subgroup_collapsed>  (2383) 
0

>  <r_i_docking_score>  (2383) 
-5.7355179009861903

>  <s_m_subgroup_title>  (2383) 
glide-dock_SP_D22_pv

>  <s_m_subgroupid>  (2383) 
glide-dock_SP_D22_pv

>  <Molecule ChEMBL ID>  (2383) 
CHEMBL4636778

>  <Standard Type>  (2383) 
Ki

>  <Standard Value>  (2383) 
11900.0

>  <label>  (2383) 
0

$$$$
CHEMBL4521199
     RDKit          3D

  0  0  0  0  0  0  0  0  0  0999 V3000
M  V30 BEGIN CTAB
M  V30 COUNTS 50 53 0 0 1
M  V30 BEGIN ATOM
M  V30 1 C 5.436060 1.126691 -13.588069 0
M  V30 2 O 5.166969 2.447579 -13.137693 0
M  V30 3 C 6.213672 3.340521 -13.110145 0
M  V30 4 C 6.079485 4.448496 -12.256701 0
M  V30 5 C 7.140772 5.349305 -12.089041 0
M  V30 6 C 8.367673 5.120597 -12.732629 0
M  V30 7 C 8.534710 4.019820 -13.624886 0
M  V30 8 C 7.414399 3.177273 -13.846877 0
M  V30 9 C 9.895169 4.063624 -14.080217 0
M  V30 10 C 10.491922 3.142456 -15.058531 0
M  V30 11 N 9.978478 1.888688 -15.294741 0
M  V30 12 C 10.646969 1.305263 -16.347313 0
M  V30 13 N 10.261920 0.206921 -16.912062 0
M  V30 14 C 10.929140 -0.261190 -18.029045 0
M  V30 15 C 10.095361 -1.283716 -18.784622 0
M  V30 16 O 12.042433 0.051978 -18.458996 0
M  V30 17 N 11.686852 2.174430 -16.643972 0
M  V30 18 C 11.563676 3.290840 -15.848638 0
M  V30 19 C 12.514743 4.459149 -16.004068 0
M  V30 20 C 10.512806 5.131769 -13.491712 0
M  V30 21 N 9.595642 5.776575 -12.671552 0
M  V30 22 S 9.967883 7.199203 -11.764132 0
M  V30 23 O 9.042288 8.235168 -12.246711 0
M  V30 24 O 11.423513 7.372163 -11.893090 0
M  V30 25 C 9.609818 6.856738 -10.045740 0
M  V30 26 C 9.285329 5.561615 -9.590975 0
M  V30 27 C 8.915697 5.374790 -8.247437 0
M  V30 28 C 8.913764 6.466546 -7.356320 0
M  V30 29 C 9.292408 7.746441 -7.803060 0
M  V30 30 F 9.325212 8.784783 -6.936086 0
M  V30 31 C 9.636281 7.944776 -9.152292 0
M  V30 32 H 4.546594 0.512753 -13.447587 0
M  V30 33 H 5.687002 1.096507 -14.647620 0
M  V30 34 H 6.247663 0.669692 -13.020408 0
M  V30 35 H 5.169909 4.589102 -11.691398 0
M  V30 36 H 7.022492 6.172740 -11.406617 0
M  V30 37 H 7.513988 2.353727 -14.531859 0
M  V30 38 H 9.200912 1.501431 -14.785547 0
M  V30 39 H 10.102451 -2.230787 -18.248945 0
M  V30 40 H 11.959184 5.382010 -16.175892 0
M  V30 41 H 13.119650 4.578422 -15.105076 0
M  V30 42 H 13.189991 4.304915 -16.846722 0
M  V30 43 H 11.523596 5.499583 -13.590230 0
M  V30 44 H 9.285357 4.713079 -10.256371 0
M  V30 45 H 8.627798 4.393479 -7.901618 0
M  V30 46 H 8.627447 6.321344 -6.325162 0
M  V30 47 H 9.897197 8.931218 -9.506078 0
M  V30 48 H 9.061160 -0.948936 -18.875311 0
M  V30 49 H 10.487341 -1.427797 -19.790665 0
M  V30 50 H 12.385119 2.051064 -17.365364 0
M  V30 END ATOM
M  V30 BEGIN BOND
M  V30 1 1 2 1
M  V30 2 1 3 2
M  V30 3 1 4 3
M  V30 4 2 5 4
M  V30 5 1 6 5
M  V30 6 2 7 6
M  V30 7 2 8 3
M  V30 8 1 8 7
M  V30 9 1 9 7
M  V30 10 1 10 9
M  V30 11 1 11 10
M  V30 12 1 12 11
M  V30 13 2 13 12
M  V30 14 1 14 13
M  V30 15 1 15 14
M  V30 16 2 16 14
M  V30 17 1 17 12
M  V30 18 2 18 10
M  V30 19 1 18 17
M  V30 20 1 19 18
M  V30 21 2 20 9
M  V30 22 1 21 6
M  V30 23 1 21 20
M  V30 24 1 22 21
M  V30 25 2 23 22
M  V30 26 2 24 22
M  V30 27 1 25 22
M  V30 28 2 26 25
M  V30 29 1 27 26
M  V30 30 2 28 27
M  V30 31 1 29 28
M  V30 32 1 30 29
M  V30 33 1 31 25
M  V30 34 2 31 29
M  V30 35 1 32 1
M  V30 36 1 33 1
M  V30 37 1 34 1
M  V30 38 1 35 4
M  V30 39 1 36 5
M  V30 40 1 37 8
M  V30 41 1 38 11
M  V30 42 1 39 15
M  V30 43 1 40 19
M  V30 44 1 41 19
M  V30 45 1 42 19
M  V30 46 1 43 20
M  V30 47 1 44 26
M  V30 48 1 45 27
M  V30 49 1 46 28
M  V30 50 1 47 31
M  V30 51 1 48 15
M  V30 52 1 49 15
M  V30 53 1 50 17
M  V30 END BOND
M  V30 END CTAB
M  END
>  <b_m_subgroup_collapsed>  (2384) 
0

>  <r_i_docking_score>  (2384) 
-5.7345159483178501

>  <s_m_subgroup_title>  (2384) 
glide-dock_SP_D22_pv

>  <s_m_subgroupid>  (2384) 
glide-dock_SP_D22_pv

>  <Molecule ChEMBL ID>  (2384) 
CHEMBL4521199

>  <Standard Type>  (2384) 
Ki

>  <Standard Value>  (2384) 
10000.0

>  <label>  (2384) 
0

$$$$
CHEMBL2159457
     RDKit          3D

  0  0  0  0  0  0  0  0  0  0999 V3000
M  V30 BEGIN CTAB
M  V30 COUNTS 62 64 0 0 1
M  V30 BEGIN ATOM
M  V30 1 C 11.195673 2.742269 -14.675546 0
M  V30 2 C 10.180102 2.550154 -15.814410 0
M  V30 3 C 10.053741 3.795532 -16.709774 0
M  V30 4 C 8.832307 2.049830 -15.298209 0
M  V30 5 C 8.426764 0.740307 -15.640885 0
M  V30 6 C 7.216384 0.215259 -15.155039 0
M  V30 7 C 6.400869 0.998441 -14.325145 0
M  V30 8 C 6.776401 2.312923 -13.998824 0
M  V30 9 C 8.005800 2.842999 -14.458337 0
M  V30 10 O 8.419446 4.109372 -14.108513 0
M  V30 11 C 8.055218 4.587679 -12.819954 0
M  V30 12 C 8.974476 5.798079 -12.546448 0
M  V30 13 N 8.876100 6.394483 -11.186996 0 CFG=2 CHG=1
M  V30 14 C 9.642792 7.668409 -11.111070 0
M  V30 15 C 9.496592 8.351374 -9.742211 0
M  V30 16 C 9.801541 7.411928 -8.562088 0 CFG=2
M  V30 17 C 11.312361 7.336931 -8.214449 0
M  V30 18 N 11.896935 8.603477 -7.700303 0
M  V30 19 S 11.284009 9.479212 -6.318758 0
M  V30 20 O 11.943424 10.789865 -6.246566 0
M  V30 21 O 9.830640 9.371107 -6.344040 0
M  V30 22 C 11.733005 8.552930 -4.895182 0
M  V30 23 C 12.451403 9.134075 -3.829241 0
M  V30 24 C 12.780055 8.349382 -2.705410 0
M  V30 25 C 12.449999 6.981855 -2.708544 0
M  V30 26 F 12.886544 6.145868 -1.745043 0
M  V30 27 C 11.687666 6.455976 -3.753894 0
M  V30 28 C 11.284028 7.233065 -4.833123 0
M  V30 29 C 9.121051 6.049594 -8.737659 0
M  V30 30 C 9.311033 5.451986 -10.125297 0
M  V30 31 H 11.300797 1.825600 -14.094401 0
M  V30 32 H 12.179307 2.992005 -15.069872 0
M  V30 33 H 10.901436 3.535356 -13.989626 0
M  V30 34 H 10.586761 1.765656 -16.451784 0
M  V30 35 H 9.381096 3.604597 -17.545462 0
M  V30 36 H 9.675624 4.662373 -16.169861 0
M  V30 37 H 11.021671 4.070387 -17.130362 0
M  V30 38 H 9.045202 0.120084 -16.273643 0
M  V30 39 H 6.905827 -0.784426 -15.422561 0
M  V30 40 H 5.465256 0.600797 -13.959731 0
M  V30 41 H 6.111027 2.894169 -13.378106 0
M  V30 42 H 7.010519 4.891963 -12.793737 0
M  V30 43 H 8.193692 3.778409 -12.098215 0
M  V30 44 H 10.010974 5.504071 -12.720910 0
M  V30 45 H 8.746640 6.569415 -13.285060 0
M  V30 46 H 10.695322 7.473698 -11.319342 0
M  V30 47 H 9.294252 8.353814 -11.884457 0
M  V30 48 H 10.125227 9.240529 -9.700142 0
M  V30 49 H 8.484562 8.727026 -9.637199 0
M  V30 50 H 9.240557 7.766229 -7.713527 0
M  V30 51 H 11.512835 6.536194 -7.505742 0
M  V30 52 H 11.856359 7.057054 -9.116570 0
M  V30 53 H 12.206685 9.231658 -8.444624 0
M  V30 54 H 12.749319 10.168222 -3.866988 0
M  V30 55 H 13.341622 8.776631 -1.887259 0
M  V30 56 H 11.406054 5.427341 -3.745482 0
M  V30 57 H 10.656899 6.806176 -5.597531 0
M  V30 58 H 9.463139 5.351231 -7.970869 0
M  V30 59 H 8.052728 6.174570 -8.565538 0
M  V30 60 H 8.732015 4.533441 -10.161513 0
M  V30 61 H 10.353604 5.186420 -10.269904 0
M  V30 62 H 7.906842 6.647724 -11.002153 0
M  V30 END ATOM
M  V30 BEGIN BOND
M  V30 1 1 2 1
M  V30 2 1 3 2
M  V30 3 1 4 2
M  V30 4 2 5 4
M  V30 5 1 6 5
M  V30 6 2 7 6
M  V30 7 1 8 7
M  V30 8 1 9 4
M  V30 9 2 9 8
M  V30 10 1 10 9
M  V30 11 1 11 10
M  V30 12 1 12 11
M  V30 13 1 13 12
M  V30 14 1 14 13
M  V30 15 1 15 14
M  V30 16 1 16 15
M  V30 17 1 17 16
M  V30 18 1 18 17
M  V30 19 1 19 18
M  V30 20 2 20 19
M  V30 21 2 21 19
M  V30 22 1 22 19
M  V30 23 1 23 22
M  V30 24 2 24 23
M  V30 25 1 25 24
M  V30 26 1 26 25
M  V30 27 2 27 25
M  V30 28 2 28 22
M  V30 29 1 28 27
M  V30 30 1 29 16
M  V30 31 1 30 13
M  V30 32 1 30 29
M  V30 33 1 31 1
M  V30 34 1 32 1
M  V30 35 1 33 1
M  V30 36 1 34 2
M  V30 37 1 35 3
M  V30 38 1 36 3
M  V30 39 1 37 3
M  V30 40 1 38 5
M  V30 41 1 39 6
M  V30 42 1 40 7
M  V30 43 1 41 8
M  V30 44 1 42 11
M  V30 45 1 43 11
M  V30 46 1 44 12
M  V30 47 1 45 12
M  V30 48 1 46 14
M  V30 49 1 47 14
M  V30 50 1 48 15
M  V30 51 1 49 15
M  V30 52 1 16 50 CFG=1
M  V30 53 1 51 17
M  V30 54 1 52 17
M  V30 55 1 53 18
M  V30 56 1 54 23
M  V30 57 1 55 24
M  V30 58 1 56 27
M  V30 59 1 57 28
M  V30 60 1 58 29
M  V30 61 1 59 29
M  V30 62 1 60 30
M  V30 63 1 61 30
M  V30 64 1 13 62 CFG=1
M  V30 END BOND
M  V30 END CTAB
M  END
>  <b_m_subgroup_collapsed>  (2385) 
0

>  <r_i_docking_score>  (2385) 
-5.7338223431302797

>  <s_m_subgroup_title>  (2385) 
glide-dock_SP_D22_pv

>  <s_m_subgroupid>  (2385) 
glide-dock_SP_D22_pv

>  <Molecule ChEMBL ID>  (2385) 
CHEMBL2159457

>  <Standard Type>  (2385) 
Ki

>  <Standard Value>  (2385) 
50.0

>  <label>  (2385) 
1

$$$$
CHEMBL10289
     RDKit          3D

  0  0  0  0  0  0  0  0  0  0999 V3000
M  V30 BEGIN CTAB
M  V30 COUNTS 37 39 0 0 1
M  V30 BEGIN ATOM
M  V30 1 C 7.430928 3.434768 -13.802809 0
M  V30 2 C 7.608064 4.725476 -13.484163 0
M  V30 3 C 7.089627 5.369967 -12.208483 0
M  V30 4 N 8.074561 6.265372 -11.544924 0 CFG=2 CHG=1
M  V30 5 C 8.318048 7.540762 -12.242066 0
M  V30 6 C 9.724443 7.990671 -11.846901 0
M  V30 7 C 10.343029 6.865160 -11.010878 0 CFG=1
M  V30 8 C 10.713271 7.317427 -9.599820 0
M  V30 9 C 11.792785 8.210186 -9.440583 0
M  V30 10 C 12.161709 8.655740 -8.160369 0
M  V30 11 C 11.430801 8.251801 -7.033083 0
M  V30 12 C 10.365474 7.349363 -7.176048 0
M  V30 13 O 9.686911 6.972302 -6.056705 0
M  V30 14 C 10.022117 6.849693 -8.453547 0
M  V30 15 C 8.941469 5.795964 -8.596468 0
M  V30 16 C 9.186496 4.890248 -9.800225 0
M  V30 17 C 9.355378 5.681741 -11.104536 0 CFG=1
M  V30 18 H 6.885588 2.767140 -13.152001 0
M  V30 19 H 7.824377 3.026885 -14.722720 0
M  V30 20 H 8.144344 5.359012 -14.175421 0
M  V30 21 H 6.198813 5.952928 -12.448243 0
M  V30 22 H 6.766773 4.598744 -11.508718 0
M  V30 23 H 8.098467 7.454210 -13.304090 0
M  V30 24 H 7.628663 8.292939 -11.867978 0
M  V30 25 H 10.336452 8.169084 -12.725943 0
M  V30 26 H 9.685248 8.936359 -11.299900 0
M  V30 27 H 11.278908 6.572562 -11.487733 0
M  V30 28 H 12.345752 8.559860 -10.301094 0
M  V30 29 H 12.994699 9.333854 -8.041833 0
M  V30 30 H 11.699543 8.621557 -6.054374 0
M  V30 31 H 8.854239 6.561258 -6.235441 0
M  V30 32 H 8.886775 5.178636 -7.701553 0
M  V30 33 H 7.983479 6.296178 -8.691725 0
M  V30 34 H 10.086297 4.302232 -9.620553 0
M  V30 35 H 8.371408 4.172654 -9.884987 0
M  V30 36 H 9.710511 5.010345 -11.887045 0
M  V30 37 H 7.594894 6.606242 -10.709534 0
M  V30 END ATOM
M  V30 BEGIN BOND
M  V30 1 2 2 1
M  V30 2 1 3 2
M  V30 3 1 4 3
M  V30 4 1 5 4
M  V30 5 1 6 5
M  V30 6 1 7 6
M  V30 7 1 8 7
M  V30 8 2 9 8
M  V30 9 1 10 9
M  V30 10 2 11 10
M  V30 11 1 12 11
M  V30 12 1 13 12
M  V30 13 1 14 8
M  V30 14 2 14 12
M  V30 15 1 15 14
M  V30 16 1 16 15
M  V30 17 1 17 4
M  V30 18 1 17 7
M  V30 19 1 17 16
M  V30 20 1 18 1
M  V30 21 1 19 1
M  V30 22 1 20 2
M  V30 23 1 21 3
M  V30 24 1 22 3
M  V30 25 1 23 5
M  V30 26 1 24 5
M  V30 27 1 25 6
M  V30 28 1 26 6
M  V30 29 1 7 27 CFG=3
M  V30 30 1 28 9
M  V30 31 1 29 10
M  V30 32 1 30 11
M  V30 33 1 31 13
M  V30 34 1 32 15
M  V30 35 1 33 15
M  V30 36 1 34 16
M  V30 37 1 35 16
M  V30 38 1 17 36 CFG=3
M  V30 39 1 4 37 CFG=1
M  V30 END BOND
M  V30 END CTAB
M  END
>  <b_m_subgroup_collapsed>  (2386) 
0

>  <r_i_docking_score>  (2386) 
-5.7335212527316797

>  <s_m_subgroup_title>  (2386) 
glide-dock_SP_D22_pv

>  <s_m_subgroupid>  (2386) 
glide-dock_SP_D22_pv

>  <Molecule ChEMBL ID>  (2386) 
CHEMBL10289

>  <Standard Type>  (2386) 
Ki

>  <Standard Value>  (2386) 
75.0

>  <label>  (2386) 
1

$$$$
CHEMBL4788000
     RDKit          3D

  0  0  0  0  0  0  0  0  0  0999 V3000
M  V30 BEGIN CTAB
M  V30 COUNTS 61 64 0 0 1
M  V30 BEGIN ATOM
M  V30 1 C 18.972088 6.698339 -16.693396 0
M  V30 2 O 17.777119 6.845380 -17.446146 0
M  V30 3 C 17.735674 7.807792 -18.438683 0
M  V30 4 C 18.892563 8.506937 -18.870525 0
M  V30 5 C 18.806545 9.504738 -19.858868 0
M  V30 6 C 17.564531 9.820016 -20.431963 0
M  V30 7 C 16.409472 9.138550 -20.015156 0
M  V30 8 C 16.480740 8.128273 -19.029303 0
M  V30 9 N 15.291959 7.478358 -18.645926 0
M  V30 10 C 15.194032 6.037278 -18.483675 0
M  V30 11 C 14.622264 5.724737 -17.091282 0
M  V30 12 N 13.301950 6.353771 -16.929968 0
M  V30 13 C 12.780043 6.074985 -15.594626 0
M  V30 14 C 12.231136 4.643696 -15.445861 0
M  V30 15 C 11.956074 4.313673 -13.975970 0
M  V30 16 O 10.991911 5.214324 -13.440554 0
M  V30 17 C 9.663582 4.852047 -13.393342 0
M  V30 18 C 8.813873 5.688872 -12.641296 0
M  V30 19 C 7.451248 5.378871 -12.479712 0
M  V30 20 C 6.925318 4.213435 -13.069758 0
M  V30 21 C 7.753149 3.371108 -13.846592 0
M  V30 22 C 9.114934 3.707508 -14.023777 0
M  V30 23 C 7.197592 2.103740 -14.438101 0
M  V30 24 O 7.783823 1.541822 -15.365026 0
M  V30 25 N 6.085793 1.597550 -13.847184 0
M  V30 26 C 5.580032 0.277783 -14.229045 0
M  V30 27 C 5.322472 2.295717 -12.801181 0
M  V30 28 C 5.480752 3.826386 -12.846571 0
M  V30 29 C 13.455520 7.810266 -17.059509 0
M  V30 30 C 14.050141 8.206964 -18.425413 0
M  V30 31 H 18.801849 5.993836 -15.879347 0
M  V30 32 H 19.782652 6.305926 -17.310196 0
M  V30 33 H 19.285311 7.644945 -16.250919 0
M  V30 34 H 19.866434 8.299150 -18.456760 0
M  V30 35 H 19.696148 10.029017 -20.176411 0
M  V30 36 H 17.494617 10.583721 -21.192755 0
M  V30 37 H 15.462867 9.390082 -20.468222 0
M  V30 38 H 14.527737 5.643929 -19.253750 0
M  V30 39 H 16.153309 5.544704 -18.633045 0
M  V30 40 H 14.550763 4.642769 -16.985006 0
M  V30 41 H 15.308556 6.075520 -16.318949 0
M  V30 42 H 13.555261 6.272311 -14.851376 0
M  V30 43 H 11.965938 6.766798 -15.371882 0
M  V30 44 H 11.322086 4.529567 -16.037489 0
M  V30 45 H 12.937959 3.906176 -15.822339 0
M  V30 46 H 11.692683 3.263725 -13.845917 0
M  V30 47 H 12.876876 4.449690 -13.407231 0
M  V30 48 H 9.217910 6.567177 -12.161453 0
M  V30 49 H 6.823832 6.025121 -11.879066 0
M  V30 50 H 9.730151 3.053518 -14.623625 0
M  V30 51 H 6.321986 -0.490506 -14.002903 0
M  V30 52 H 4.663364 0.016485 -13.700048 0
M  V30 53 H 5.367805 0.236601 -15.298419 0
M  V30 54 H 4.261500 2.049889 -12.853580 0
M  V30 55 H 5.686770 1.925529 -11.845224 0
M  V30 56 H 5.112912 4.268756 -11.919525 0
M  V30 57 H 4.887267 4.244467 -13.660596 0
M  V30 58 H 12.486335 8.295977 -16.945730 0
M  V30 59 H 14.087287 8.183815 -16.254646 0
M  V30 60 H 14.215369 9.285146 -18.452082 0
M  V30 61 H 13.348200 7.972107 -19.226562 0
M  V30 END ATOM
M  V30 BEGIN BOND
M  V30 1 1 2 1
M  V30 2 1 3 2
M  V30 3 2 4 3
M  V30 4 1 5 4
M  V30 5 2 6 5
M  V30 6 1 7 6
M  V30 7 1 8 3
M  V30 8 2 8 7
M  V30 9 1 9 8
M  V30 10 1 10 9
M  V30 11 1 11 10
M  V30 12 1 12 11
M  V30 13 1 13 12
M  V30 14 1 14 13
M  V30 15 1 15 14
M  V30 16 1 16 15
M  V30 17 1 17 16
M  V30 18 1 18 17
M  V30 19 2 19 18
M  V30 20 1 20 19
M  V30 21 2 21 20
M  V30 22 2 22 17
M  V30 23 1 22 21
M  V30 24 1 23 21
M  V30 25 2 24 23
M  V30 26 1 25 23
M  V30 27 1 26 25
M  V30 28 1 27 25
M  V30 29 1 28 20
M  V30 30 1 28 27
M  V30 31 1 29 12
M  V30 32 1 30 9
M  V30 33 1 30 29
M  V30 34 1 31 1
M  V30 35 1 32 1
M  V30 36 1 33 1
M  V30 37 1 34 4
M  V30 38 1 35 5
M  V30 39 1 36 6
M  V30 40 1 37 7
M  V30 41 1 38 10
M  V30 42 1 39 10
M  V30 43 1 40 11
M  V30 44 1 41 11
M  V30 45 1 42 13
M  V30 46 1 43 13
M  V30 47 1 44 14
M  V30 48 1 45 14
M  V30 49 1 46 15
M  V30 50 1 47 15
M  V30 51 1 48 18
M  V30 52 1 49 19
M  V30 53 1 50 22
M  V30 54 1 51 26
M  V30 55 1 52 26
M  V30 56 1 53 26
M  V30 57 1 54 27
M  V30 58 1 55 27
M  V30 59 1 56 28
M  V30 60 1 57 28
M  V30 61 1 58 29
M  V30 62 1 59 29
M  V30 63 1 60 30
M  V30 64 1 61 30
M  V30 END BOND
M  V30 END CTAB
M  END
>  <b_m_subgroup_collapsed>  (2387) 
0

>  <r_i_docking_score>  (2387) 
-5.7315997013396096

>  <s_m_subgroup_title>  (2387) 
glide-dock_SP_D22_pv

>  <s_m_subgroupid>  (2387) 
glide-dock_SP_D22_pv

>  <Molecule ChEMBL ID>  (2387) 
CHEMBL4788000

>  <Standard Type>  (2387) 
Ki

>  <Standard Value>  (2387) 
9.6

>  <label>  (2387) 
1

$$$$
CHEMBL599080
     RDKit          3D

  0  0  0  0  0  0  0  0  0  0999 V3000
M  V30 BEGIN CTAB
M  V30 COUNTS 56 59 0 0 1
M  V30 BEGIN ATOM
M  V30 1 C 5.285562 1.828660 -12.625251 0
M  V30 2 C 5.820265 3.168102 -12.108123 0
M  V30 3 C 6.611961 3.948827 -13.162553 0
M  V30 4 N 7.815107 4.569393 -12.552889 0 CFG=2 CHG=1
M  V30 5 C 7.485561 5.822064 -11.845366 0
M  V30 6 C 8.693130 6.243560 -11.026230 0
M  V30 7 C 9.927535 6.478015 -11.866082 0
M  V30 8 C 10.971372 7.345278 -11.513464 0
M  V30 9 C 12.120615 7.376797 -12.309237 0
M  V30 10 C 12.213846 6.602529 -13.474976 0
M  V30 11 C 11.195639 5.719196 -13.892622 0
M  V30 12 C 10.058510 5.693858 -13.044775 0
M  V30 13 C 8.951977 4.726575 -13.500049 0 CFG=1
M  V30 14 C 9.599477 3.370485 -13.884587 0
M  V30 15 C 10.636630 3.568133 -14.977754 0
M  V30 16 C 10.830740 2.566820 -15.947294 0
M  V30 17 C 11.714229 2.791819 -17.013927 0
M  V30 18 C 12.363824 4.030551 -17.136984 0
M  V30 19 C 12.175495 5.052719 -16.171202 0
M  V30 20 O 12.742965 6.306448 -16.300867 0
M  V30 21 C 13.340442 6.665151 -17.542812 0
M  V30 22 C 13.642570 8.153736 -17.591118 0
M  V30 23 C 14.714043 8.758226 -18.148075 0
M  V30 24 C 14.872337 10.267674 -18.125536 0
M  V30 25 C 15.850186 8.033421 -18.850065 0
M  V30 26 C 11.351776 4.789781 -15.039168 0
M  V30 27 H 4.886200 1.237032 -11.803539 0
M  V30 28 H 6.078381 1.232309 -13.078197 0
M  V30 29 H 4.499410 1.964650 -13.368061 0
M  V30 30 H 5.002172 3.788883 -11.746981 0
M  V30 31 H 6.453963 2.973133 -11.242874 0
M  V30 32 H 6.886015 3.272283 -13.966878 0
M  V30 33 H 5.984167 4.706265 -13.635452 0
M  V30 34 H 7.207034 6.604730 -12.553810 0
M  V30 35 H 6.635174 5.680036 -11.180473 0
M  V30 36 H 8.486063 7.163215 -10.479318 0
M  V30 37 H 8.924409 5.491043 -10.272635 0
M  V30 38 H 10.911404 7.947824 -10.618077 0
M  V30 39 H 12.944702 8.018759 -12.033733 0
M  V30 40 H 13.140923 6.658097 -14.023150 0
M  V30 41 H 8.530843 5.177575 -14.402040 0
M  V30 42 H 10.089277 2.928060 -13.016407 0
M  V30 43 H 8.873985 2.638866 -14.232746 0
M  V30 44 H 10.298470 1.629135 -15.882523 0
M  V30 45 H 11.870836 2.023452 -17.756857 0
M  V30 46 H 13.008210 4.172907 -17.991259 0
M  V30 47 H 14.245927 6.074903 -17.682842 0
M  V30 48 H 12.654588 6.450671 -18.363783 0
M  V30 49 H 12.888135 8.775391 -17.129799 0
M  V30 50 H 14.772776 10.672217 -19.133297 0
M  V30 51 H 15.851223 10.550437 -17.741434 0
M  V30 52 H 14.113104 10.743185 -17.501535 0
M  V30 53 H 16.041388 8.496061 -19.819042 0
M  V30 54 H 15.645671 6.981946 -19.035099 0
M  V30 55 H 16.761965 8.105419 -18.257944 0
M  V30 56 H 8.144293 3.931597 -11.842722 0
M  V30 END ATOM
M  V30 BEGIN BOND
M  V30 1 1 2 1
M  V30 2 1 3 2
M  V30 3 1 4 3
M  V30 4 1 5 4
M  V30 5 1 6 5
M  V30 6 1 7 6
M  V30 7 1 8 7
M  V30 8 2 9 8
M  V30 9 1 10 9
M  V30 10 2 11 10
M  V30 11 2 12 7
M  V30 12 1 12 11
M  V30 13 1 13 4
M  V30 14 1 13 12
M  V30 15 1 14 13
M  V30 16 1 15 14
M  V30 17 1 16 15
M  V30 18 2 17 16
M  V30 19 1 18 17
M  V30 20 2 19 18
M  V30 21 1 20 19
M  V30 22 1 21 20
M  V30 23 1 22 21
M  V30 24 2 23 22
M  V30 25 1 24 23
M  V30 26 1 25 23
M  V30 27 1 26 11
M  V30 28 2 26 15
M  V30 29 1 26 19
M  V30 30 1 27 1
M  V30 31 1 28 1
M  V30 32 1 29 1
M  V30 33 1 30 2
M  V30 34 1 31 2
M  V30 35 1 32 3
M  V30 36 1 33 3
M  V30 37 1 34 5
M  V30 38 1 35 5
M  V30 39 1 36 6
M  V30 40 1 37 6
M  V30 41 1 38 8
M  V30 42 1 39 9
M  V30 43 1 40 10
M  V30 44 1 13 41 CFG=3
M  V30 45 1 42 14
M  V30 46 1 43 14
M  V30 47 1 44 16
M  V30 48 1 45 17
M  V30 49 1 46 18
M  V30 50 1 47 21
M  V30 51 1 48 21
M  V30 52 1 49 22
M  V30 53 1 50 24
M  V30 54 1 51 24
M  V30 55 1 52 24
M  V30 56 1 53 25
M  V30 57 1 54 25
M  V30 58 1 55 25
M  V30 59 1 4 56 CFG=1
M  V30 END BOND
M  V30 END CTAB
M  END
>  <b_m_subgroup_collapsed>  (2388) 
0

>  <r_i_docking_score>  (2388) 
-5.7315510949567603

>  <s_m_subgroup_title>  (2388) 
glide-dock_SP_D22_pv

>  <s_m_subgroupid>  (2388) 
glide-dock_SP_D22_pv

>  <Molecule ChEMBL ID>  (2388) 
CHEMBL599080

>  <Standard Type>  (2388) 
Ki

>  <Standard Value>  (2388) 
10000.0

>  <label>  (2388) 
0

$$$$
CHEMBL4529615
     RDKit          3D

  0  0  0  0  0  0  0  0  0  0999 V3000
M  V30 BEGIN CTAB
M  V30 COUNTS 36 38 0 0 1
M  V30 BEGIN ATOM
M  V30 1 C 5.069525 -0.927904 -14.839440 0
M  V30 2 C 5.037698 0.394613 -14.070932 0
M  V30 3 O 6.122571 1.201959 -14.511683 0
M  V30 4 C 6.364376 2.385283 -13.846776 0
M  V30 5 C 5.455854 2.977015 -12.937942 0
M  V30 6 C 5.814266 4.145192 -12.246640 0
M  V30 7 C 7.091395 4.697586 -12.427907 0
M  V30 8 N 7.713958 5.772749 -11.844523 0
M  V30 9 C 9.013232 5.882365 -12.303471 0
M  V30 10 C 9.269324 4.920060 -13.257333 0
M  V30 11 C 10.505867 4.660579 -14.015352 0
M  V30 12 C 10.845172 3.527399 -14.726386 0
M  V30 13 N 12.086174 3.677960 -15.320659 0
M  V30 14 C 12.479362 4.872098 -14.919162 0
M  V30 15 N 11.598201 5.538845 -14.154515 0
M  V30 16 C 11.830720 6.858410 -13.575645 0
M  V30 17 C 12.709455 7.772829 -14.444797 0
M  V30 18 C 8.040105 4.146755 -13.338312 0
M  V30 19 C 7.611471 3.005551 -14.069501 0
M  V30 20 H 4.232584 -1.565724 -14.556779 0
M  V30 21 H 5.007566 -0.757886 -15.914165 0
M  V30 22 H 5.991005 -1.474940 -14.640684 0
M  V30 23 H 5.122709 0.196748 -13.001318 0
M  V30 24 H 4.085314 0.896110 -14.245892 0
M  V30 25 H 4.485761 2.547014 -12.744262 0
M  V30 26 H 5.137042 4.589192 -11.531779 0
M  V30 27 H 7.296952 6.409747 -11.162361 0
M  V30 28 H 9.641739 6.654356 -11.889235 0
M  V30 29 H 10.314915 2.599704 -14.859049 0
M  V30 30 H 13.446804 5.260211 -15.198953 0
M  V30 31 H 10.886052 7.366175 -13.439438 0
M  V30 32 H 12.279458 6.724974 -12.591298 0
M  V30 33 H 12.885900 8.729591 -13.957140 0
M  V30 34 H 13.688403 7.339964 -14.624934 0
M  V30 35 H 12.244164 7.966766 -15.411469 0
M  V30 36 H 8.267600 2.538498 -14.781824 0
M  V30 END ATOM
M  V30 BEGIN BOND
M  V30 1 1 2 1
M  V30 2 1 3 2
M  V30 3 1 4 3
M  V30 4 1 5 4
M  V30 5 2 6 5
M  V30 6 1 7 6
M  V30 7 1 8 7
M  V30 8 1 9 8
M  V30 9 2 10 9
M  V30 10 1 11 10
M  V30 11 2 12 11
M  V30 12 1 13 12
M  V30 13 2 14 13
M  V30 14 1 15 11
M  V30 15 1 15 14
M  V30 16 1 16 15
M  V30 17 1 17 16
M  V30 18 2 18 7
M  V30 19 1 18 10
M  V30 20 2 19 4
M  V30 21 1 19 18
M  V30 22 1 20 1
M  V30 23 1 21 1
M  V30 24 1 22 1
M  V30 25 1 23 2
M  V30 26 1 24 2
M  V30 27 1 25 5
M  V30 28 1 26 6
M  V30 29 1 27 8
M  V30 30 1 28 9
M  V30 31 1 29 12
M  V30 32 1 30 14
M  V30 33 1 31 16
M  V30 34 1 32 16
M  V30 35 1 33 17
M  V30 36 1 34 17
M  V30 37 1 35 17
M  V30 38 1 36 19
M  V30 END BOND
M  V30 END CTAB
M  END
>  <b_m_subgroup_collapsed>  (2389) 
0

>  <r_i_docking_score>  (2389) 
-5.7294331066232003

>  <s_m_subgroup_title>  (2389) 
glide-dock_SP_D22_pv

>  <s_m_subgroupid>  (2389) 
glide-dock_SP_D22_pv

>  <Molecule ChEMBL ID>  (2389) 
CHEMBL4529615

>  <Standard Type>  (2389) 
Ki

>  <Standard Value>  (2389) 
10000.0

>  <label>  (2389) 
0

$$$$
CHEMBL3085216
     RDKit          3D

  0  0  0  0  0  0  0  0  0  0999 V3000
M  V30 BEGIN CTAB
M  V30 COUNTS 45 46 0 0 1
M  V30 BEGIN ATOM
M  V30 1 C 12.010472 8.190339 -10.916758 0
M  V30 2 C 11.009008 7.462265 -11.826405 0
M  V30 3 C 9.515572 7.679286 -11.476027 0
M  V30 4 N 8.883974 6.572009 -10.698543 0 CFG=2 CHG=1
M  V30 5 C 9.501667 6.297568 -9.356507 0
M  V30 6 C 8.787717 5.198403 -8.541375 0
M  V30 7 C 9.505262 7.565360 -8.471134 0
M  V30 8 C 8.390340 5.394111 -11.512036 0 CFG=1
M  V30 9 C 6.917148 5.568913 -11.916053 0
M  V30 10 O 6.381557 4.373278 -12.463464 0
M  V30 11 C 7.128766 3.719377 -13.412263 0
M  V30 12 C 6.487701 2.682128 -14.113037 0
M  V30 13 C 7.177451 1.955950 -15.094207 0
M  V30 14 C 8.511864 2.274660 -15.392724 0
M  V30 15 C 9.192310 3.290764 -14.680049 0
M  V30 16 C 10.612318 3.615257 -15.068038 0
M  V30 17 N 11.366828 2.575857 -15.420835 0
M  V30 18 O 11.057834 4.759345 -15.038441 0
M  V30 19 C 8.499564 3.999679 -13.654427 0
M  V30 20 C 9.198569 5.036603 -12.778953 0
M  V30 21 H 13.006894 8.185410 -11.359735 0
M  V30 22 H 11.735620 9.232300 -10.750203 0
M  V30 23 H 12.091210 7.713803 -9.942077 0
M  V30 24 H 11.268624 6.414306 -11.846947 0
M  V30 25 H 11.172308 7.772843 -12.856017 0
M  V30 26 H 8.938136 7.819782 -12.389521 0
M  V30 27 H 9.384108 8.624602 -10.953852 0
M  V30 28 H 10.528442 5.966923 -9.509141 0
M  V30 29 H 9.160892 5.186138 -7.518877 0
M  V30 30 H 7.714027 5.374046 -8.479942 0
M  V30 31 H 8.960708 4.193442 -8.922410 0
M  V30 32 H 9.932618 7.358167 -7.489774 0
M  V30 33 H 10.090356 8.382911 -8.883958 0
M  V30 34 H 8.490886 7.936777 -8.310847 0
M  V30 35 H 8.399199 4.490576 -10.910790 0
M  V30 36 H 6.303717 5.772562 -11.047098 0
M  V30 37 H 6.785522 6.394401 -12.616758 0
M  V30 38 H 5.458051 2.446952 -13.885309 0
M  V30 39 H 6.677537 1.166131 -15.635965 0
M  V30 40 H 9.004783 1.726867 -16.182827 0
M  V30 41 H 10.984480 1.643185 -15.394380 0
M  V30 42 H 12.328220 2.733339 -15.686362 0
M  V30 43 H 10.167397 4.639448 -12.479158 0
M  V30 44 H 9.360079 5.901936 -13.417433 0
M  V30 45 H 7.989861 6.989122 -10.422741 0
M  V30 END ATOM
M  V30 BEGIN BOND
M  V30 1 1 2 1
M  V30 2 1 3 2
M  V30 3 1 4 3
M  V30 4 1 5 4
M  V30 5 1 6 5
M  V30 6 1 7 5
M  V30 7 1 8 4
M  V30 8 1 9 8
M  V30 9 1 10 9
M  V30 10 1 11 10
M  V30 11 1 12 11
M  V30 12 2 13 12
M  V30 13 1 14 13
M  V30 14 2 15 14
M  V30 15 1 16 15
M  V30 16 1 17 16
M  V30 17 2 18 16
M  V30 18 2 19 11
M  V30 19 1 19 15
M  V30 20 1 20 8
M  V30 21 1 20 19
M  V30 22 1 21 1
M  V30 23 1 22 1
M  V30 24 1 23 1
M  V30 25 1 24 2
M  V30 26 1 25 2
M  V30 27 1 26 3
M  V30 28 1 27 3
M  V30 29 1 28 5
M  V30 30 1 29 6
M  V30 31 1 30 6
M  V30 32 1 31 6
M  V30 33 1 32 7
M  V30 34 1 33 7
M  V30 35 1 34 7
M  V30 36 1 8 35 CFG=1
M  V30 37 1 36 9
M  V30 38 1 37 9
M  V30 39 1 38 12
M  V30 40 1 39 13
M  V30 41 1 40 14
M  V30 42 1 41 17
M  V30 43 1 42 17
M  V30 44 1 43 20
M  V30 45 1 44 20
M  V30 46 1 4 45 CFG=1
M  V30 END BOND
M  V30 END CTAB
M  END
>  <b_m_subgroup_collapsed>  (2390) 
0

>  <r_i_docking_score>  (2390) 
-5.7275526636026797

>  <s_m_subgroup_title>  (2390) 
glide-dock_SP_D22_pv

>  <s_m_subgroupid>  (2390) 
glide-dock_SP_D22_pv

>  <Molecule ChEMBL ID>  (2390) 
CHEMBL3085216

>  <Standard Type>  (2390) 
Ki

>  <Standard Value>  (2390) 
50000.0

>  <label>  (2390) 
0

$$$$
CHEMBL77204
     RDKit          3D

  0  0  0  0  0  0  0  0  0  0999 V3000
M  V30 BEGIN CTAB
M  V30 COUNTS 49 51 0 0 1
M  V30 BEGIN ATOM
M  V30 1 C 12.201431 8.972709 -7.150342 0
M  V30 2 C 11.684872 8.041631 -6.330713 0
M  V30 3 C 11.686024 8.122410 -4.867856 0
M  V30 4 C 11.689010 6.925342 -4.124035 0
M  V30 5 C 11.911844 6.947651 -2.737549 0
M  V30 6 C 12.128286 8.172405 -2.083341 0
M  V30 7 C 12.085831 9.373237 -2.809207 0
M  V30 8 C 11.862676 9.350326 -4.196000 0
M  V30 9 C 12.262766 8.865748 -8.654741 0
M  V30 10 O 11.829451 7.598623 -9.105115 0
M  V30 11 C 11.206217 7.618601 -10.369227 0
M  V30 12 C 9.725067 7.974925 -10.191001 0 CFG=1
M  V30 13 C 8.999251 7.995899 -11.545584 0
M  V30 14 C 8.680791 6.580237 -12.065520 0
M  V30 15 N 7.960938 5.771924 -11.046028 0 CFG=1 CHG=1
M  V30 16 C 7.530020 4.444626 -11.553590 0
M  V30 17 C 6.399823 4.512585 -12.566695 0
M  V30 18 C 6.340359 3.472480 -13.668456 0
M  V30 19 C 5.312757 3.455819 -12.575649 0
M  V30 20 C 8.737329 5.647805 -9.791847 0
M  V30 21 C 9.022689 7.027760 -9.190620 0
M  V30 22 H 12.641473 9.867961 -6.739575 0
M  V30 23 H 11.245651 7.148738 -6.749508 0
M  V30 24 H 11.569178 5.976045 -4.627926 0
M  V30 25 H 11.933160 6.020897 -2.181972 0
M  V30 26 H 12.308352 8.197028 -1.023263 0
M  V30 27 H 12.217639 10.313346 -2.299773 0
M  V30 28 H 11.848806 10.278093 -4.742413 0
M  V30 29 H 11.686234 9.687076 -9.082444 0
M  V30 30 H 13.298296 8.972176 -8.971162 0
M  V30 31 H 11.717530 8.301711 -11.048365 0
M  V30 32 H 11.284720 6.625485 -10.802990 0
M  V30 33 H 9.667008 8.982073 -9.777915 0
M  V30 34 H 8.085845 8.574911 -11.449005 0
M  V30 35 H 9.596622 8.536407 -12.280573 0
M  V30 36 H 9.599202 6.067025 -12.355330 0
M  V30 37 H 8.079690 6.669308 -12.969725 0
M  V30 38 H 8.386629 3.935389 -11.997591 0
M  V30 39 H 7.203755 3.820114 -10.721583 0
M  V30 40 H 6.066914 5.516543 -12.827469 0
M  V30 41 H 5.996673 3.780572 -14.649838 0
M  V30 42 H 7.085164 2.678771 -13.664409 0
M  V30 43 H 5.371438 2.649016 -11.848239 0
M  V30 44 H 4.307861 3.770330 -12.849447 0
M  V30 45 H 9.667046 5.106027 -9.978390 0
M  V30 46 H 8.175497 5.061043 -9.064142 0
M  V30 47 H 9.608503 6.911466 -8.281311 0
M  V30 48 H 8.088367 7.462269 -8.845852 0
M  V30 49 H 7.136368 6.318673 -10.785937 0
M  V30 END ATOM
M  V30 BEGIN BOND
M  V30 1 2 2 1
M  V30 2 1 3 2
M  V30 3 2 4 3
M  V30 4 1 5 4
M  V30 5 2 6 5
M  V30 6 1 7 6
M  V30 7 1 8 3
M  V30 8 2 8 7
M  V30 9 1 9 1
M  V30 10 1 10 9
M  V30 11 1 11 10
M  V30 12 1 12 11
M  V30 13 1 13 12
M  V30 14 1 14 13
M  V30 15 1 15 14
M  V30 16 1 16 15
M  V30 17 1 17 16
M  V30 18 1 18 17
M  V30 19 1 19 17
M  V30 20 1 19 18
M  V30 21 1 20 15
M  V30 22 1 21 12
M  V30 23 1 21 20
M  V30 24 1 22 1
M  V30 25 1 23 2
M  V30 26 1 24 4
M  V30 27 1 25 5
M  V30 28 1 26 6
M  V30 29 1 27 7
M  V30 30 1 28 8
M  V30 31 1 29 9
M  V30 32 1 30 9
M  V30 33 1 31 11
M  V30 34 1 32 11
M  V30 35 1 12 33 CFG=1
M  V30 36 1 34 13
M  V30 37 1 35 13
M  V30 38 1 36 14
M  V30 39 1 37 14
M  V30 40 1 38 16
M  V30 41 1 39 16
M  V30 42 1 40 17
M  V30 43 1 41 18
M  V30 44 1 42 18
M  V30 45 1 43 19
M  V30 46 1 44 19
M  V30 47 1 45 20
M  V30 48 1 46 20
M  V30 49 1 47 21
M  V30 50 1 48 21
M  V30 51 1 15 49 CFG=1
M  V30 END BOND
M  V30 END CTAB
M  END
>  <b_m_subgroup_collapsed>  (2391) 
0

>  <r_i_docking_score>  (2391) 
-5.7250987605120098

>  <s_m_subgroup_title>  (2391) 
glide-dock_SP_D22_pv

>  <s_m_subgroupid>  (2391) 
glide-dock_SP_D22_pv

>  <Molecule ChEMBL ID>  (2391) 
CHEMBL77204

>  <Standard Type>  (2391) 
Ki

>  <Standard Value>  (2391) 
10000.0

>  <label>  (2391) 
0

$$$$
CHEMBL243012
     RDKit          3D

  0  0  0  0  0  0  0  0  0  0999 V3000
M  V30 BEGIN CTAB
M  V30 COUNTS 75 79 0 0 1
M  V30 BEGIN ATOM
M  V30 1 C 6.617745 -0.380157 -14.071851 0
M  V30 2 O 6.579376 0.360550 -15.283328 0
M  V30 3 C 7.745237 0.557411 -15.994184 0
M  V30 4 C 9.027614 0.215347 -15.491447 0
M  V30 5 C 10.189288 0.453249 -16.249388 0
M  V30 6 C 10.093265 1.072089 -17.513325 0
M  V30 7 C 11.304194 1.355662 -18.320051 0
M  V30 8 N 12.387695 0.708845 -18.239981 0
M  V30 9 O 13.376104 1.351676 -19.030695 0
M  V30 10 C 12.948504 2.691855 -19.261915 0 CFG=2
M  V30 11 C 13.490656 3.607236 -18.140265 0
M  V30 12 C 13.174466 5.100788 -18.355679 0
M  V30 13 C 13.373899 5.968849 -17.094906 0
M  V30 14 N 12.551577 5.533738 -15.963438 0
M  V30 15 C 12.886574 6.325048 -14.782091 0
M  V30 16 C 12.182213 5.723867 -13.548454 0
M  V30 17 N 10.703380 5.771933 -13.714885 0 CHG=1
M  V30 18 C 9.940034 5.303638 -12.509432 0
M  V30 19 C 8.466595 4.981863 -12.777166 0
M  V30 20 C 8.122557 3.750890 -13.376879 0
M  V30 21 C 6.777420 3.371723 -13.506422 0
M  V30 22 C 5.762878 4.199201 -13.007961 0
M  V30 23 F 4.486019 3.772318 -13.047060 0
M  V30 24 C 6.085991 5.447697 -12.448812 0
M  V30 25 C 7.430034 5.844838 -12.348004 0
M  V30 26 C 10.063365 6.211121 -11.272071 0
M  V30 27 C 9.686021 5.687033 -10.011835 0
M  V30 28 C 9.742185 6.484293 -8.851767 0
M  V30 29 C 10.183723 7.815496 -8.936097 0
M  V30 30 F 10.253334 8.582079 -7.821887 0
M  V30 31 C 10.548953 8.351722 -10.184428 0
M  V30 32 C 10.469813 7.562597 -11.349012 0
M  V30 33 C 10.338470 5.118970 -15.008137 0
M  V30 34 C 11.121333 5.705597 -16.196516 0
M  V30 35 C 11.439489 2.511414 -19.248762 0
M  V30 36 C 8.826996 1.439534 -18.008650 0
M  V30 37 C 7.657368 1.165425 -17.275282 0
M  V30 38 O 6.466045 1.542779 -17.850170 0
M  V30 39 C 5.458409 0.542345 -17.930080 0
M  V30 40 H 5.620606 -0.375673 -13.629109 0
M  V30 41 H 6.888872 -1.420245 -14.244484 0
M  V30 42 H 7.295194 0.061546 -13.342922 0
M  V30 43 H 9.149911 -0.226056 -14.517233 0
M  V30 44 H 11.153896 0.179392 -15.845782 0
M  V30 45 H 13.306602 3.035171 -20.236050 0
M  V30 46 H 14.571423 3.481624 -18.061691 0
M  V30 47 H 13.094119 3.272040 -17.183050 0
M  V30 48 H 12.165978 5.237059 -18.739594 0
M  V30 49 H 13.822827 5.479375 -19.146614 0
M  V30 50 H 13.167585 7.016042 -17.326120 0
M  V30 51 H 14.426216 5.914295 -16.809027 0
M  V30 52 H 12.611215 7.371059 -14.924383 0
M  V30 53 H 13.966831 6.306543 -14.647141 0
M  V30 54 H 12.487993 6.278144 -12.662412 0
M  V30 55 H 12.510623 4.692456 -13.401091 0
M  V30 56 H 10.393602 4.351223 -12.226631 0
M  V30 57 H 8.889016 3.059885 -13.697801 0
M  V30 58 H 6.521316 2.418442 -13.940282 0
M  V30 59 H 5.311289 6.092933 -12.059228 0
M  V30 60 H 7.642238 6.788969 -11.862440 0
M  V30 61 H 9.337799 4.666477 -9.928401 0
M  V30 62 H 9.446621 6.074239 -7.896893 0
M  V30 63 H 10.883776 9.374038 -10.247788 0
M  V30 64 H 10.716722 8.013780 -12.294488 0
M  V30 65 H 10.526986 4.045887 -14.947805 0
M  V30 66 H 9.281659 5.264493 -15.226016 0
M  V30 67 H 10.886522 6.756770 -16.348560 0
M  V30 68 H 10.808371 5.176526 -17.096506 0
M  V30 69 H 10.891069 3.383495 -18.896223 0
M  V30 70 H 11.065947 2.226050 -20.233885 0
M  V30 71 H 8.738242 1.913748 -18.976301 0
M  V30 72 H 4.761411 0.801694 -18.725222 0
M  V30 73 H 5.873510 -0.438659 -18.169220 0
M  V30 74 H 4.881134 0.467775 -17.008162 0
M  V30 75 H 10.456437 6.743741 -13.830247 0
M  V30 END ATOM
M  V30 BEGIN BOND
M  V30 1 1 2 1
M  V30 2 1 3 2
M  V30 3 1 4 3
M  V30 4 2 5 4
M  V30 5 1 6 5
M  V30 6 1 7 6
M  V30 7 2 8 7
M  V30 8 1 9 8
M  V30 9 1 10 9
M  V30 10 1 11 10
M  V30 11 1 12 11
M  V30 12 1 13 12
M  V30 13 1 14 13
M  V30 14 1 15 14
M  V30 15 1 16 15
M  V30 16 1 17 16
M  V30 17 1 18 17
M  V30 18 1 19 18
M  V30 19 1 20 19
M  V30 20 2 21 20
M  V30 21 1 22 21
M  V30 22 1 23 22
M  V30 23 2 24 22
M  V30 24 2 25 19
M  V30 25 1 25 24
M  V30 26 1 26 18
M  V30 27 1 27 26
M  V30 28 2 28 27
M  V30 29 1 29 28
M  V30 30 1 30 29
M  V30 31 2 31 29
M  V30 32 2 32 26
M  V30 33 1 32 31
M  V30 34 1 33 17
M  V30 35 1 34 14
M  V30 36 1 34 33
M  V30 37 1 35 7
M  V30 38 1 35 10
M  V30 39 2 36 6
M  V30 40 2 37 3
M  V30 41 1 37 36
M  V30 42 1 38 37
M  V30 43 1 39 38
M  V30 44 1 40 1
M  V30 45 1 41 1
M  V30 46 1 42 1
M  V30 47 1 43 4
M  V30 48 1 44 5
M  V30 49 1 10 45 CFG=3
M  V30 50 1 46 11
M  V30 51 1 47 11
M  V30 52 1 48 12
M  V30 53 1 49 12
M  V30 54 1 50 13
M  V30 55 1 51 13
M  V30 56 1 52 15
M  V30 57 1 53 15
M  V30 58 1 54 16
M  V30 59 1 55 16
M  V30 60 1 56 18
M  V30 61 1 57 20
M  V30 62 1 58 21
M  V30 63 1 59 24
M  V30 64 1 60 25
M  V30 65 1 61 27
M  V30 66 1 62 28
M  V30 67 1 63 31
M  V30 68 1 64 32
M  V30 69 1 65 33
M  V30 70 1 66 33
M  V30 71 1 67 34
M  V30 72 1 68 34
M  V30 73 1 69 35
M  V30 74 1 70 35
M  V30 75 1 71 36
M  V30 76 1 72 39
M  V30 77 1 73 39
M  V30 78 1 74 39
M  V30 79 1 75 17
M  V30 END BOND
M  V30 END CTAB
M  END
>  <b_m_subgroup_collapsed>  (2392) 
0

>  <r_i_docking_score>  (2392) 
-5.7239074578508804

>  <s_m_subgroup_title>  (2392) 
glide-dock_SP_D22_pv

>  <s_m_subgroupid>  (2392) 
glide-dock_SP_D22_pv

>  <Molecule ChEMBL ID>  (2392) 
CHEMBL243012

>  <Standard Type>  (2392) 
Ki

>  <Standard Value>  (2392) 
80.0

>  <label>  (2392) 
1

$$$$
CHEMBL155596
     RDKit          3D

  0  0  0  0  0  0  0  0  0  0999 V3000
M  V30 BEGIN CTAB
M  V30 COUNTS 45 46 0 0 1
M  V30 BEGIN ATOM
M  V30 1 C 12.486238 10.207236 -5.889726 0
M  V30 2 C 11.049890 10.106114 -6.367578 0
M  V30 3 C 10.333862 8.866194 -5.847529 0
M  V30 4 N 11.057377 7.599374 -6.152071 0 CHG=1
M  V30 5 C 11.229742 6.700611 -4.971776 0
M  V30 6 C 12.085102 7.315971 -3.834017 0
M  V30 7 C 12.321180 6.347598 -2.674985 0
M  V30 8 C 10.579274 6.875237 -7.367262 0 CFG=1
M  V30 9 C 9.090419 6.497194 -7.336757 0
M  V30 10 C 8.760133 5.545553 -8.488173 0
M  V30 11 C 9.291944 6.013507 -9.837531 0
M  V30 12 C 10.339236 6.972619 -9.904042 0
M  V30 13 C 10.887269 7.345910 -11.146618 0
M  V30 14 C 10.426000 6.730145 -12.320382 0
M  V30 15 C 9.357423 5.815409 -12.268176 0
M  V30 16 O 8.870015 5.253616 -13.410521 0
M  V30 17 C 8.770569 5.468908 -11.037306 0
M  V30 18 O 7.701564 4.609642 -11.046988 0
M  V30 19 C 10.875241 7.648180 -8.659785 0
M  V30 20 H 12.885768 11.153524 -6.246937 0
M  V30 21 H 12.561471 10.169428 -4.802468 0
M  V30 22 H 13.105224 9.408678 -6.299560 0
M  V30 23 H 11.048467 10.172096 -7.447414 0
M  V30 24 H 10.499787 10.972375 -6.011799 0
M  V30 25 H 9.303217 8.860687 -6.191263 0
M  V30 26 H 10.284983 9.020537 -4.778952 0
M  V30 27 H 10.253473 6.393052 -4.599504 0
M  V30 28 H 11.728581 5.784751 -5.291728 0
M  V30 29 H 13.047791 7.647738 -4.217721 0
M  V30 30 H 11.617997 8.200497 -3.405746 0
M  V30 31 H 12.884006 6.826816 -1.875634 0
M  V30 32 H 11.377849 6.006044 -2.249821 0
M  V30 33 H 12.885221 5.476300 -3.002810 0
M  V30 34 H 11.152366 5.950418 -7.428455 0
M  V30 35 H 8.476695 7.387610 -7.468720 0
M  V30 36 H 8.793302 6.066989 -6.384221 0
M  V30 37 H 7.686200 5.426502 -8.533871 0
M  V30 38 H 9.176600 4.558917 -8.282976 0
M  V30 39 H 11.685548 8.071002 -11.201797 0
M  V30 40 H 10.886114 6.974086 -13.266611 0
M  V30 41 H 8.151252 4.681012 -13.178115 0
M  V30 42 H 7.120407 4.690292 -10.297477 0
M  V30 43 H 11.945215 7.835420 -8.764822 0
M  V30 44 H 10.372362 8.611268 -8.649771 0
M  V30 45 H 11.996697 7.889521 -6.376728 0
M  V30 END ATOM
M  V30 BEGIN BOND
M  V30 1 1 2 1
M  V30 2 1 3 2
M  V30 3 1 4 3
M  V30 4 1 5 4
M  V30 5 1 6 5
M  V30 6 1 7 6
M  V30 7 1 8 4
M  V30 8 1 9 8
M  V30 9 1 10 9
M  V30 10 1 11 10
M  V30 11 2 12 11
M  V30 12 1 13 12
M  V30 13 2 14 13
M  V30 14 1 15 14
M  V30 15 1 16 15
M  V30 16 1 17 11
M  V30 17 2 17 15
M  V30 18 1 18 17
M  V30 19 1 19 8
M  V30 20 1 19 12
M  V30 21 1 20 1
M  V30 22 1 21 1
M  V30 23 1 22 1
M  V30 24 1 23 2
M  V30 25 1 24 2
M  V30 26 1 25 3
M  V30 27 1 26 3
M  V30 28 1 27 5
M  V30 29 1 28 5
M  V30 30 1 29 6
M  V30 31 1 30 6
M  V30 32 1 31 7
M  V30 33 1 32 7
M  V30 34 1 33 7
M  V30 35 1 8 34 CFG=3
M  V30 36 1 35 9
M  V30 37 1 36 9
M  V30 38 1 37 10
M  V30 39 1 38 10
M  V30 40 1 39 13
M  V30 41 1 40 14
M  V30 42 1 41 16
M  V30 43 1 42 18
M  V30 44 1 43 19
M  V30 45 1 44 19
M  V30 46 1 45 4
M  V30 END BOND
M  V30 END CTAB
M  END
>  <b_m_subgroup_collapsed>  (2393) 
0

>  <r_i_docking_score>  (2393) 
-5.7221248371772999

>  <s_m_subgroup_title>  (2393) 
glide-dock_SP_D22_pv

>  <s_m_subgroupid>  (2393) 
glide-dock_SP_D22_pv

>  <Molecule ChEMBL ID>  (2393) 
CHEMBL155596

>  <Standard Type>  (2393) 
Ki

>  <Standard Value>  (2393) 
2.0

>  <label>  (2393) 
1

$$$$
CHEMBL595759
     RDKit          3D

  0  0  0  0  0  0  0  0  0  0999 V3000
M  V30 BEGIN CTAB
M  V30 COUNTS 43 46 0 0 1
M  V30 BEGIN ATOM
M  V30 1 C 9.165305 5.449076 -8.395393 0
M  V30 2 N 9.688708 6.795612 -8.309876 0
M  V30 3 C 9.672184 7.716292 -9.294527 0
M  V30 4 C 9.125468 7.332346 -10.642441 0
M  V30 5 N 10.088635 6.572606 -11.438550 0
M  V30 6 C 9.420199 5.865987 -12.531319 0
M  V30 7 C 10.458595 5.093707 -13.380048 0
M  V30 8 N 11.488372 5.996471 -13.908417 0
M  V30 9 C 11.758703 6.168653 -15.269842 0
M  V30 10 N 11.106075 5.382717 -16.134386 0
M  V30 11 C 11.342938 5.566741 -17.448076 0
M  V30 12 C 12.246248 6.544367 -17.904673 0
M  V30 13 Cl 12.546273 6.789522 -19.584608 0
M  V30 14 C 12.886188 7.313114 -16.917959 0
M  V30 15 N 12.634655 7.122276 -15.608639 0
M  V30 16 C 12.120201 6.800577 -12.861683 0
M  V30 17 C 11.049165 7.507364 -12.018175 0
M  V30 18 N 10.191685 8.908902 -8.984653 0
M  V30 19 C 10.598122 8.723886 -7.670521 0
M  V30 20 C 11.227103 9.605426 -6.755566 0
M  V30 21 C 11.571163 9.180360 -5.457026 0
M  V30 22 C 11.286012 7.865299 -5.045918 0
M  V30 23 C 10.649864 6.974176 -5.928758 0
M  V30 24 C 10.308743 7.403223 -7.225348 0
M  V30 25 H 9.288388 4.966292 -7.445830 0
M  V30 26 H 8.099599 5.472274 -8.631101 0
M  V30 27 H 9.702331 4.882765 -9.158217 0
M  V30 28 H 8.781456 8.222514 -11.169764 0
M  V30 29 H 8.245611 6.707909 -10.492439 0
M  V30 30 H 8.845689 6.570234 -13.133509 0
M  V30 31 H 8.703554 5.157446 -12.112752 0
M  V30 32 H 9.936848 4.554321 -14.170006 0
M  V30 33 H 10.941192 4.330792 -12.767393 0
M  V30 34 H 10.812171 4.929774 -18.140270 0
M  V30 35 H 13.591706 8.089362 -17.179029 0
M  V30 36 H 12.756184 6.172655 -12.246918 0
M  V30 37 H 12.791636 7.557547 -13.261691 0
M  V30 38 H 10.485065 8.172385 -12.659834 0
M  V30 39 H 11.529843 8.107767 -11.245277 0
M  V30 40 H 11.454777 10.617371 -7.046993 0
M  V30 41 H 12.057163 9.863354 -4.773026 0
M  V30 42 H 11.553528 7.537113 -4.051702 0
M  V30 43 H 10.428186 5.970401 -5.608862 0
M  V30 END ATOM
M  V30 BEGIN BOND
M  V30 1 1 2 1
M  V30 2 1 3 2
M  V30 3 1 4 3
M  V30 4 1 5 4
M  V30 5 1 6 5
M  V30 6 1 7 6
M  V30 7 1 8 7
M  V30 8 1 9 8
M  V30 9 1 10 9
M  V30 10 2 11 10
M  V30 11 1 12 11
M  V30 12 1 13 12
M  V30 13 2 14 12
M  V30 14 2 15 9
M  V30 15 1 15 14
M  V30 16 1 16 8
M  V30 17 1 17 5
M  V30 18 1 17 16
M  V30 19 2 18 3
M  V30 20 1 19 18
M  V30 21 2 20 19
M  V30 22 1 21 20
M  V30 23 2 22 21
M  V30 24 1 23 22
M  V30 25 1 24 2
M  V30 26 1 24 19
M  V30 27 2 24 23
M  V30 28 1 25 1
M  V30 29 1 26 1
M  V30 30 1 27 1
M  V30 31 1 28 4
M  V30 32 1 29 4
M  V30 33 1 30 6
M  V30 34 1 31 6
M  V30 35 1 32 7
M  V30 36 1 33 7
M  V30 37 1 34 11
M  V30 38 1 35 14
M  V30 39 1 36 16
M  V30 40 1 37 16
M  V30 41 1 38 17
M  V30 42 1 39 17
M  V30 43 1 40 20
M  V30 44 1 41 21
M  V30 45 1 42 22
M  V30 46 1 43 23
M  V30 END BOND
M  V30 END CTAB
M  END
>  <b_m_subgroup_collapsed>  (2394) 
0

>  <r_i_docking_score>  (2394) 
-5.72211821614549

>  <s_m_subgroup_title>  (2394) 
glide-dock_SP_D22_pv

>  <s_m_subgroupid>  (2394) 
glide-dock_SP_D22_pv

>  <Molecule ChEMBL ID>  (2394) 
CHEMBL595759

>  <Standard Type>  (2394) 
Ki

>  <Standard Value>  (2394) 
10000.0

>  <label>  (2394) 
0

$$$$
CHEMBL2164434
     RDKit          3D

  0  0  0  0  0  0  0  0  0  0999 V3000
M  V30 BEGIN CTAB
M  V30 COUNTS 32 33 0 0 1
M  V30 BEGIN ATOM
M  V30 1 C 7.484044 5.566980 -12.260541 0
M  V30 2 C 8.768857 4.850062 -11.822854 0
M  V30 3 C 9.157228 5.117869 -10.358134 0
M  V30 4 C 9.629847 6.556956 -10.109383 0
M  V30 5 N 10.089088 6.718705 -8.738322 0
M  V30 6 C 10.407555 7.899035 -8.188683 0
M  V30 7 O 10.323304 8.972402 -8.788996 0
M  V30 8 C 10.845878 7.848016 -6.782242 0
M  V30 9 C 11.285736 6.830584 -5.972500 0
M  V30 10 C 11.609029 7.412143 -4.698543 0
M  V30 11 C 12.085678 6.911499 -3.465027 0
M  V30 12 C 12.332315 7.771533 -2.377112 0
M  V30 13 C 12.085980 9.150180 -2.490780 0
M  V30 14 C 11.578608 9.671767 -3.695156 0
M  V30 15 C 11.360695 8.812778 -4.784679 0
M  V30 16 N 10.897885 9.031778 -6.065915 0
M  V30 17 H 7.217793 5.295348 -13.283631 0
M  V30 18 H 6.644843 5.298075 -11.616197 0
M  V30 19 H 7.591549 6.651857 -12.226980 0
M  V30 20 H 9.592467 5.124344 -12.485878 0
M  V30 21 H 8.627934 3.777532 -11.954283 0
M  V30 22 H 9.952750 4.424062 -10.082383 0
M  V30 23 H 8.311949 4.889793 -9.706536 0
M  V30 24 H 8.818138 7.261339 -10.300803 0
M  V30 25 H 10.444483 6.812651 -10.788328 0
M  V30 26 H 10.155247 5.889741 -8.166663 0
M  V30 27 H 11.383414 5.787101 -6.228319 0
M  V30 28 H 12.262766 5.851509 -3.358975 0
M  V30 29 H 12.702118 7.367488 -1.446966 0
M  V30 30 H 12.269241 9.795409 -1.645656 0
M  V30 31 H 11.331611 10.719317 -3.777806 0
M  V30 32 H 10.641725 9.915484 -6.482634 0
M  V30 END ATOM
M  V30 BEGIN BOND
M  V30 1 1 2 1
M  V30 2 1 3 2
M  V30 3 1 4 3
M  V30 4 1 5 4
M  V30 5 1 6 5
M  V30 6 2 7 6
M  V30 7 1 8 6
M  V30 8 2 9 8
M  V30 9 1 10 9
M  V30 10 2 11 10
M  V30 11 1 12 11
M  V30 12 2 13 12
M  V30 13 1 14 13
M  V30 14 1 15 10
M  V30 15 2 15 14
M  V30 16 1 16 8
M  V30 17 1 16 15
M  V30 18 1 17 1
M  V30 19 1 18 1
M  V30 20 1 19 1
M  V30 21 1 20 2
M  V30 22 1 21 2
M  V30 23 1 22 3
M  V30 24 1 23 3
M  V30 25 1 24 4
M  V30 26 1 25 4
M  V30 27 1 26 5
M  V30 28 1 27 9
M  V30 29 1 28 11
M  V30 30 1 29 12
M  V30 31 1 30 13
M  V30 32 1 31 14
M  V30 33 1 32 16
M  V30 END BOND
M  V30 END CTAB
M  END
>  <b_m_subgroup_collapsed>  (2395) 
0

>  <r_i_docking_score>  (2395) 
-5.7196363858650399

>  <s_m_subgroup_title>  (2395) 
glide-dock_SP_D22_pv

>  <s_m_subgroupid>  (2395) 
glide-dock_SP_D22_pv

>  <Molecule ChEMBL ID>  (2395) 
CHEMBL2164434

>  <Standard Type>  (2395) 
Ki

>  <Standard Value>  (2395) 
13570.0

>  <label>  (2395) 
0

$$$$
CHEMBL4585956
     RDKit          3D

  0  0  0  0  0  0  0  0  0  0999 V3000
M  V30 BEGIN CTAB
M  V30 COUNTS 26 28 0 0 1
M  V30 BEGIN ATOM
M  V30 1 C 10.886175 6.600788 -5.058642 0
M  V30 2 N 11.044624 7.799559 -5.853833 0
M  V30 3 C 11.587268 8.952495 -5.435096 0
M  V30 4 N 11.688840 9.885938 -6.368804 0
M  V30 5 C 11.163859 9.270572 -7.502169 0
M  V30 6 C 10.707983 8.014093 -7.193023 0
M  V30 7 C 9.980988 7.067517 -8.037049 0
M  V30 8 C 8.968631 6.232431 -7.632504 0
M  V30 9 N 8.486094 5.518176 -8.707995 0
M  V30 10 C 9.120017 5.901362 -9.863101 0
M  V30 11 C 8.934682 5.504109 -11.196946 0
M  V30 12 C 9.772612 6.027699 -12.192880 0
M  V30 13 C 10.792648 6.932046 -11.844845 0
M  V30 14 Br 12.086164 7.372283 -13.171015 0
M  V30 15 C 10.935862 7.372147 -10.506287 0
M  V30 16 F 11.938984 8.227896 -10.199247 0
M  V30 17 C 10.100545 6.863894 -9.471484 0
M  V30 18 H 9.831032 6.380150 -4.915174 0
M  V30 19 H 11.370589 5.772456 -5.572024 0
M  V30 20 H 11.353853 6.725919 -4.081594 0
M  V30 21 H 11.937303 9.105268 -4.424500 0
M  V30 22 H 11.106886 9.772921 -8.452687 0
M  V30 23 H 8.512951 6.117851 -6.660821 0
M  V30 24 H 7.692135 4.893685 -8.652337 0
M  V30 25 H 8.166582 4.787270 -11.446627 0
M  V30 26 H 9.672708 5.691792 -13.214605 0
M  V30 END ATOM
M  V30 BEGIN BOND
M  V30 1 1 2 1
M  V30 2 1 3 2
M  V30 3 2 4 3
M  V30 4 1 5 4
M  V30 5 1 6 2
M  V30 6 2 6 5
M  V30 7 1 7 6
M  V30 8 2 8 7
M  V30 9 1 9 8
M  V30 10 1 10 9
M  V30 11 1 11 10
M  V30 12 2 12 11
M  V30 13 1 13 12
M  V30 14 1 14 13
M  V30 15 2 15 13
M  V30 16 1 16 15
M  V30 17 1 17 7
M  V30 18 2 17 10
M  V30 19 1 17 15
M  V30 20 1 18 1
M  V30 21 1 19 1
M  V30 22 1 20 1
M  V30 23 1 21 3
M  V30 24 1 22 5
M  V30 25 1 23 8
M  V30 26 1 24 9
M  V30 27 1 25 11
M  V30 28 1 26 12
M  V30 END BOND
M  V30 END CTAB
M  END
>  <b_m_subgroup_collapsed>  (2396) 
0

>  <r_i_docking_score>  (2396) 
-5.7156965269451296

>  <s_m_subgroup_title>  (2396) 
glide-dock_SP_D22_pv

>  <s_m_subgroupid>  (2396) 
glide-dock_SP_D22_pv

>  <Molecule ChEMBL ID>  (2396) 
CHEMBL4585956

>  <Standard Type>  (2396) 
Ki

>  <Standard Value>  (2396) 
10000.0

>  <label>  (2396) 
0

$$$$
CHEMBL5830481
     RDKit          3D

  0  0  0  0  0  0  0  0  0  0999 V3000
M  V30 BEGIN CTAB
M  V30 COUNTS 59 63 0 0 1
M  V30 BEGIN ATOM
M  V30 1 C 5.017171 -1.613418 -17.764463 0
M  V30 2 N 5.772382 -0.453168 -17.311325 0
M  V30 3 C 6.084784 -0.115033 -16.044149 0
M  V30 4 S 5.533894 -1.037456 -14.647780 0
M  V30 5 C 4.667826 0.269920 -13.743380 0
M  V30 6 C 5.636717 1.206262 -12.996541 0
M  V30 7 C 5.285513 2.690638 -13.184634 0
M  V30 8 N 6.214233 3.592740 -12.471390 0 CFG=2 CHG=1
M  V30 9 C 5.684860 4.943036 -12.242654 0
M  V30 10 C 6.901166 5.771358 -11.873896 0
M  V30 11 C 8.085840 5.038883 -12.460015 0 CFG=1
M  V30 12 C 9.232265 5.788746 -13.080134 0
M  V30 13 C 9.448783 5.064714 -11.780966 0 CFG=1
M  V30 14 C 9.686050 5.826956 -10.507000 0
M  V30 15 C 9.108635 5.392425 -9.295965 0
M  V30 16 C 9.335699 6.103151 -8.101333 0
M  V30 17 C 10.168644 7.240159 -8.094929 0
M  V30 18 C 10.417774 7.982831 -6.796304 0
M  V30 19 F 11.361860 8.915827 -6.926512 0
M  V30 20 F 9.286019 8.572492 -6.423583 0
M  V30 21 F 10.798743 7.128827 -5.845451 0
M  V30 22 C 10.754361 7.674014 -9.301727 0
M  V30 23 C 10.513253 6.972646 -10.495316 0
M  V30 24 F 11.125426 7.388936 -11.628273 0
M  V30 25 C 7.524493 3.805027 -13.123114 0
M  V30 26 N 6.826920 0.988747 -15.951392 0
M  V30 27 N 6.972166 1.436434 -17.236702 0
M  V30 28 C 6.337781 0.553038 -18.023483 0
M  V30 29 C 6.281373 0.744955 -19.479494 0
M  V30 30 C 5.196455 0.311991 -20.274204 0
M  V30 31 C 5.282619 0.572654 -21.652510 0
M  V30 32 N 6.328791 1.223700 -22.192762 0
M  V30 33 C 7.292152 1.602658 -21.357216 0
M  V30 34 N 7.318669 1.406034 -20.041065 0
M  V30 35 H 5.061695 -2.419318 -17.030729 0
M  V30 36 H 3.971694 -1.340168 -17.916922 0
M  V30 37 H 5.434599 -1.990940 -18.697304 0
M  V30 38 H 4.032847 0.808222 -14.442887 0
M  V30 39 H 3.984766 -0.212115 -13.046879 0
M  V30 40 H 5.633741 0.950838 -11.936347 0
M  V30 41 H 6.655440 1.031699 -13.339412 0
M  V30 42 H 5.286256 2.960267 -14.240528 0
M  V30 43 H 4.275295 2.856658 -12.813578 0
M  V30 44 H 5.251760 5.332920 -13.166316 0
M  V30 45 H 4.929442 4.953663 -11.452232 0
M  V30 46 H 6.834431 6.796820 -12.246990 0
M  V30 47 H 6.989043 5.772084 -10.790569 0
M  V30 48 H 9.675393 5.370696 -13.983110 0
M  V30 49 H 9.158556 6.870214 -13.041597 0
M  V30 50 H 10.046311 4.154245 -11.804691 0
M  V30 51 H 8.471850 4.520142 -9.278628 0
M  V30 52 H 8.868945 5.771862 -7.184209 0
M  V30 53 H 11.396765 8.540569 -9.323026 0
M  V30 54 H 8.218919 2.972390 -13.048090 0
M  V30 55 H 7.384831 4.016404 -14.184645 0
M  V30 56 H 4.330139 -0.182512 -19.867239 0
M  V30 57 H 4.488594 0.282846 -22.324146 0
M  V30 58 H 8.130712 2.128453 -21.788006 0
M  V30 59 H 6.389691 3.210973 -11.552471 0
M  V30 END ATOM
M  V30 BEGIN BOND
M  V30 1 1 2 1
M  V30 2 1 3 2
M  V30 3 1 4 3
M  V30 4 1 5 4
M  V30 5 1 6 5
M  V30 6 1 7 6
M  V30 7 1 8 7
M  V30 8 1 9 8
M  V30 9 1 10 9
M  V30 10 1 11 10 CFG=1
M  V30 11 1 12 11
M  V30 12 1 13 11
M  V30 13 1 13 12
M  V30 14 1 14 13
M  V30 15 1 15 14
M  V30 16 2 16 15
M  V30 17 1 17 16
M  V30 18 1 18 17
M  V30 19 1 19 18
M  V30 20 1 20 18
M  V30 21 1 21 18
M  V30 22 2 22 17
M  V30 23 2 23 14
M  V30 24 1 23 22
M  V30 25 1 24 23
M  V30 26 1 25 8
M  V30 27 1 25 11
M  V30 28 2 26 3
M  V30 29 1 27 26
M  V30 30 1 28 2
M  V30 31 2 28 27
M  V30 32 1 29 28
M  V30 33 1 30 29
M  V30 34 2 31 30
M  V30 35 1 32 31
M  V30 36 2 33 32
M  V30 37 2 34 29
M  V30 38 1 34 33
M  V30 39 1 35 1
M  V30 40 1 36 1
M  V30 41 1 37 1
M  V30 42 1 38 5
M  V30 43 1 39 5
M  V30 44 1 40 6
M  V30 45 1 41 6
M  V30 46 1 42 7
M  V30 47 1 43 7
M  V30 48 1 44 9
M  V30 49 1 45 9
M  V30 50 1 46 10
M  V30 51 1 47 10
M  V30 52 1 48 12
M  V30 53 1 49 12
M  V30 54 1 13 50 CFG=3
M  V30 55 1 51 15
M  V30 56 1 52 16
M  V30 57 1 53 22
M  V30 58 1 54 25
M  V30 59 1 55 25
M  V30 60 1 56 30
M  V30 61 1 57 31
M  V30 62 1 58 33
M  V30 63 1 8 59 CFG=1
M  V30 END BOND
M  V30 END CTAB
M  END
>  <b_m_subgroup_collapsed>  (2397) 
0

>  <r_i_docking_score>  (2397) 
-5.7152195323932604

>  <s_m_subgroup_title>  (2397) 
glide-dock_SP_D22_pv

>  <s_m_subgroupid>  (2397) 
glide-dock_SP_D22_pv

>  <Molecule ChEMBL ID>  (2397) 
CHEMBL5830481

>  <Standard Type>  (2397) 
Ki

>  <Standard Value>  (2397) 
81.3

>  <label>  (2397) 
1

$$$$
CHEMBL1628275
     RDKit          3D

  0  0  0  0  0  0  0  0  0  0999 V3000
M  V30 BEGIN CTAB
M  V30 COUNTS 57 61 0 0 1
M  V30 BEGIN ATOM
M  V30 1 O 12.650295 3.528692 -16.283022 0
M  V30 2 C 12.721179 4.756063 -16.253807 0
M  V30 3 C 13.023026 5.584121 -17.497448 0 CFG=2
M  V30 4 C 14.489179 5.516363 -17.993982 0 CFG=1
M  V30 5 C 14.577715 6.305641 -19.314110 0
M  V30 6 C 14.413745 7.766802 -18.844397 0
M  V30 7 C 14.284931 7.620800 -17.315643 0 CFG=2
M  V30 8 C 15.239841 6.454750 -17.046944 0
M  V30 9 C 12.898465 7.023886 -16.988459 0 CFG=2
M  V30 10 C 12.602691 6.840695 -15.496446 0
M  V30 11 O 12.482462 7.786899 -14.718917 0
M  V30 12 N 12.486003 5.540337 -15.189155 0
M  V30 13 C 12.086015 5.025521 -13.872018 0
M  V30 14 C 10.679121 4.391563 -13.933971 0
M  V30 15 C 9.596136 5.098053 -13.107226 0
M  V30 16 C 8.161366 4.881063 -13.636687 0
M  V30 17 N 7.677490 3.511352 -13.448134 0
M  V30 18 C 7.996293 2.637060 -14.585619 0
M  V30 19 C 7.600247 1.186643 -14.275558 0
M  V30 20 N 6.177384 1.104672 -13.953968 0
M  V30 21 C 5.332640 0.172727 -14.540503 0
M  V30 22 N 5.652860 -0.247493 -15.766393 0
M  V30 23 C 4.783637 -1.067502 -16.384262 0
M  V30 24 C 3.580684 -1.444718 -15.772566 0
M  V30 25 C 3.356498 -0.963015 -14.475255 0
M  V30 26 N 4.235445 -0.157914 -13.856301 0
M  V30 27 C 5.717485 2.072121 -12.956148 0
M  V30 28 C 6.219401 3.496311 -13.284017 0
M  V30 29 H 12.301654 5.348694 -18.281118 0
M  V30 30 H 14.892344 4.504906 -18.055264 0
M  V30 31 H 13.810691 6.008988 -20.030567 0
M  V30 32 H 15.549291 6.162545 -19.789057 0
M  V30 33 H 13.544136 8.255129 -19.286564 0
M  V30 34 H 15.293419 8.356073 -19.107218 0
M  V30 35 H 14.486157 8.548176 -16.783405 0
M  V30 36 H 16.265177 6.653718 -17.363329 0
M  V30 37 H 15.260123 6.118928 -16.009022 0
M  V30 38 H 12.087836 7.565121 -17.472063 0
M  V30 39 H 12.136796 5.796842 -13.099715 0
M  V30 40 H 12.812913 4.270460 -13.566897 0
M  V30 41 H 10.748701 3.353142 -13.607325 0
M  V30 42 H 10.340957 4.357262 -14.969604 0
M  V30 43 H 9.788298 6.171104 -13.125241 0
M  V30 44 H 9.667499 4.799959 -12.060167 0
M  V30 45 H 8.083870 5.186046 -14.679009 0
M  V30 46 H 7.520056 5.562171 -13.074558 0
M  V30 47 H 9.056124 2.641316 -14.816303 0
M  V30 48 H 7.479232 2.971478 -15.482780 0
M  V30 49 H 8.190657 0.794928 -13.450546 0
M  V30 50 H 7.859871 0.562738 -15.130543 0
M  V30 51 H 5.044571 -1.414079 -17.373322 0
M  V30 52 H 2.886172 -2.117658 -16.254320 0
M  V30 53 H 2.485682 -1.233554 -13.903502 0
M  V30 54 H 4.628705 2.101178 -12.910062 0
M  V30 55 H 6.053087 1.755644 -11.970696 0
M  V30 56 H 5.931933 4.163652 -12.469948 0
M  V30 57 H 5.734473 3.870687 -14.187515 0
M  V30 END ATOM
M  V30 BEGIN BOND
M  V30 1 2 2 1
M  V30 2 1 3 2
M  V30 3 1 4 3
M  V30 4 1 5 4
M  V30 5 1 6 5
M  V30 6 1 7 6
M  V30 7 1 8 4
M  V30 8 1 8 7
M  V30 9 1 9 3
M  V30 10 1 9 7
M  V30 11 1 10 9
M  V30 12 2 11 10
M  V30 13 1 12 2
M  V30 14 1 12 10
M  V30 15 1 13 12
M  V30 16 1 14 13
M  V30 17 1 15 14
M  V30 18 1 16 15
M  V30 19 1 17 16
M  V30 20 1 18 17
M  V30 21 1 19 18
M  V30 22 1 20 19
M  V30 23 1 21 20
M  V30 24 2 22 21
M  V30 25 1 23 22
M  V30 26 2 24 23
M  V30 27 1 25 24
M  V30 28 1 26 21
M  V30 29 2 26 25
M  V30 30 1 27 20
M  V30 31 1 28 17
M  V30 32 1 28 27
M  V30 33 1 3 29 CFG=3
M  V30 34 1 4 30 CFG=3
M  V30 35 1 31 5
M  V30 36 1 32 5
M  V30 37 1 33 6
M  V30 38 1 34 6
M  V30 39 1 7 35 CFG=1
M  V30 40 1 36 8
M  V30 41 1 37 8
M  V30 42 1 9 38 CFG=3
M  V30 43 1 39 13
M  V30 44 1 40 13
M  V30 45 1 41 14
M  V30 46 1 42 14
M  V30 47 1 43 15
M  V30 48 1 44 15
M  V30 49 1 45 16
M  V30 50 1 46 16
M  V30 51 1 47 18
M  V30 52 1 48 18
M  V30 53 1 49 19
M  V30 54 1 50 19
M  V30 55 1 51 23
M  V30 56 1 52 24
M  V30 57 1 53 25
M  V30 58 1 54 27
M  V30 59 1 55 27
M  V30 60 1 56 28
M  V30 61 1 57 28
M  V30 END BOND
M  V30 END CTAB
M  END
>  <b_m_subgroup_collapsed>  (2398) 
0

>  <r_i_docking_score>  (2398) 
-5.7114190104021496

>  <s_m_subgroup_title>  (2398) 
glide-dock_SP_D22_pv

>  <s_m_subgroupid>  (2398) 
glide-dock_SP_D22_pv

>  <Molecule ChEMBL ID>  (2398) 
CHEMBL1628275

>  <Standard Type>  (2398) 
Ki

>  <Standard Value>  (2398) 
28.0

>  <label>  (2398) 
1

$$$$
CHEMBL5722959
     RDKit          3D

  0  0  0  0  0  0  0  0  0  0999 V3000
M  V30 BEGIN CTAB
M  V30 COUNTS 37 39 0 0 1
M  V30 BEGIN ATOM
M  V30 1 O 8.241241 4.207047 -12.225939 0
M  V30 2 C 9.023161 5.150186 -12.100841 0
M  V30 3 C 8.896654 6.131039 -10.998720 0
M  V30 4 C 9.763829 7.162850 -10.877636 0
M  V30 5 C 9.718502 8.195383 -9.761160 0
M  V30 6 N 9.286192 7.633322 -8.487841 0
M  V30 7 C 9.351742 8.638224 -7.434600 0
M  V30 8 C 10.743144 8.662292 -6.764538 0 CFG=1
M  V30 9 C 10.972633 9.856743 -5.851594 0
M  V30 10 C 12.057452 9.343851 -4.918256 0
M  V30 11 O 11.667450 8.000989 -4.671272 0
M  V30 12 C 11.002523 7.476889 -5.820247 0
M  V30 13 N 10.806695 7.340999 -11.774010 0
M  V30 14 C 11.018783 6.481801 -12.857656 0
M  V30 15 C 12.085031 6.709543 -13.750154 0
M  V30 16 F 12.887011 7.785077 -13.581232 0
M  V30 17 C 12.308050 5.825307 -14.822428 0
M  V30 18 C 11.464201 4.712677 -15.005428 0
M  V30 19 C 10.389153 4.487561 -14.123007 0
M  V30 20 C 10.157115 5.372484 -13.046168 0
M  V30 21 H 8.086449 5.999277 -10.296033 0
M  V30 22 H 10.701455 8.654831 -9.653563 0
M  V30 23 H 9.025126 8.983751 -10.056537 0
M  V30 24 H 8.308668 7.371601 -8.599419 0
M  V30 25 H 9.091707 9.613907 -7.847294 0
M  V30 26 H 8.588921 8.409677 -6.688306 0
M  V30 27 H 11.527623 8.679509 -7.522901 0
M  V30 28 H 11.267498 10.758309 -6.388833 0
M  V30 29 H 10.086260 10.081520 -5.262791 0
M  V30 30 H 12.120152 9.913120 -3.990911 0
M  V30 31 H 13.032818 9.372046 -5.406407 0
M  V30 32 H 10.075988 7.000426 -5.496869 0
M  V30 33 H 11.615963 6.715965 -6.304418 0
M  V30 34 H 11.454517 8.105948 -11.644952 0
M  V30 35 H 13.128682 6.001927 -15.502090 0
M  V30 36 H 11.639420 4.032999 -15.826142 0
M  V30 37 H 9.746463 3.631984 -14.276544 0
M  V30 END ATOM
M  V30 BEGIN BOND
M  V30 1 2 2 1
M  V30 2 1 3 2
M  V30 3 2 4 3
M  V30 4 1 5 4
M  V30 5 1 6 5
M  V30 6 1 7 6
M  V30 7 1 8 7
M  V30 8 1 9 8
M  V30 9 1 10 9
M  V30 10 1 11 10
M  V30 11 1 12 8
M  V30 12 1 12 11
M  V30 13 1 13 4
M  V30 14 1 14 13
M  V30 15 2 15 14
M  V30 16 1 16 15
M  V30 17 1 17 15
M  V30 18 2 18 17
M  V30 19 1 19 18
M  V30 20 1 20 2
M  V30 21 1 20 14
M  V30 22 2 20 19
M  V30 23 1 21 3
M  V30 24 1 22 5
M  V30 25 1 23 5
M  V30 26 1 24 6
M  V30 27 1 25 7
M  V30 28 1 26 7
M  V30 29 1 8 27 CFG=3
M  V30 30 1 28 9
M  V30 31 1 29 9
M  V30 32 1 30 10
M  V30 33 1 31 10
M  V30 34 1 32 12
M  V30 35 1 33 12
M  V30 36 1 34 13
M  V30 37 1 35 17
M  V30 38 1 36 18
M  V30 39 1 37 19
M  V30 END BOND
M  V30 END CTAB
M  END
>  <b_m_subgroup_collapsed>  (2399) 
0

>  <r_i_docking_score>  (2399) 
-5.7054789611240704

>  <s_m_subgroup_title>  (2399) 
glide-dock_SP_D22_pv

>  <s_m_subgroupid>  (2399) 
glide-dock_SP_D22_pv

>  <Molecule ChEMBL ID>  (2399) 
CHEMBL5722959

>  <Standard Type>  (2399) 
Ki

>  <Standard Value>  (2399) 
10000.0

>  <label>  (2399) 
0

$$$$
CHEMBL4778076
     RDKit          3D

  0  0  0  0  0  0  0  0  0  0999 V3000
M  V30 BEGIN CTAB
M  V30 COUNTS 50 53 0 0 1
M  V30 BEGIN ATOM
M  V30 1 O 9.753247 2.577635 -17.139833 0
M  V30 2 C 9.926549 3.502233 -16.341782 0
M  V30 3 C 10.502868 4.783505 -16.889210 0
M  V30 4 C 9.880741 5.352745 -18.025236 0
M  V30 5 C 10.459371 6.446105 -18.694946 0
M  V30 6 C 11.685183 6.972278 -18.250719 0
M  V30 7 C 12.308335 6.420975 -17.116236 0
M  V30 8 C 11.732183 5.335406 -16.423605 0
M  V30 9 C 12.471937 4.827563 -15.260226 0
M  V30 10 C 11.988778 4.751193 -14.008239 0
M  V30 11 C 10.631469 5.144181 -13.612897 0
M  V30 12 C 10.486036 6.165372 -12.646897 0
M  V30 13 C 9.211451 6.569795 -12.206460 0
M  V30 14 C 8.066596 5.955637 -12.736743 0
M  V30 15 C 8.199351 4.941230 -13.700249 0
M  V30 16 C 9.474249 4.518818 -14.143562 0
M  V30 17 N 9.566822 3.407073 -15.033831 0
M  V30 18 C 9.120659 2.097198 -14.523846 0
M  V30 19 C 7.639917 1.800494 -14.842568 0
M  V30 20 C 7.291240 0.307004 -14.762384 0
M  V30 21 N 5.889201 0.014385 -15.060982 0
M  V30 22 C 4.995687 0.395350 -13.968750 0
M  V30 23 C 3.530818 0.034097 -14.272643 0
M  V30 24 O 3.424499 -1.354079 -14.537678 0
M  V30 25 C 4.212376 -1.725665 -15.660964 0
M  V30 26 C 5.686347 -1.396718 -15.376657 0
M  V30 27 H 8.957855 4.934036 -18.402035 0
M  V30 28 H 9.969688 6.867715 -19.559511 0
M  V30 29 H 12.133595 7.811282 -18.762911 0
M  V30 30 H 13.243415 6.840664 -16.772707 0
M  V30 31 H 13.483489 4.500537 -15.449461 0
M  V30 32 H 12.626565 4.365153 -13.227577 0
M  V30 33 H 11.364429 6.640670 -12.239529 0
M  V30 34 H 9.110509 7.348264 -11.464857 0
M  V30 35 H 7.085563 6.267454 -12.401121 0
M  V30 36 H 7.302726 4.493874 -14.098973 0
M  V30 37 H 9.758759 1.311287 -14.933018 0
M  V30 38 H 9.284963 2.054353 -13.446960 0
M  V30 39 H 7.011127 2.360887 -14.154238 0
M  V30 40 H 7.391373 2.156984 -15.842905 0
M  V30 41 H 7.924636 -0.220422 -15.476941 0
M  V30 42 H 7.556026 -0.090474 -13.782092 0
M  V30 43 H 5.304807 -0.097282 -13.046956 0
M  V30 44 H 5.057910 1.466330 -13.782735 0
M  V30 45 H 2.884418 0.302115 -13.446877 0
M  V30 46 H 3.164079 0.571785 -15.139761 0
M  V30 47 H 4.089571 -2.789140 -15.847725 0
M  V30 48 H 3.860734 -1.209231 -16.554825 0
M  V30 49 H 6.270703 -1.658610 -16.259867 0
M  V30 50 H 6.044508 -2.020598 -14.555226 0
M  V30 END ATOM
M  V30 BEGIN BOND
M  V30 1 2 2 1
M  V30 2 1 3 2
M  V30 3 2 4 3
M  V30 4 1 5 4
M  V30 5 2 6 5
M  V30 6 1 7 6
M  V30 7 1 8 3
M  V30 8 2 8 7
M  V30 9 1 9 8
M  V30 10 2 10 9
M  V30 11 1 11 10
M  V30 12 2 12 11
M  V30 13 1 13 12
M  V30 14 2 14 13
M  V30 15 1 15 14
M  V30 16 1 16 11
M  V30 17 2 16 15
M  V30 18 1 17 2
M  V30 19 1 17 16
M  V30 20 1 18 17
M  V30 21 1 19 18
M  V30 22 1 20 19
M  V30 23 1 21 20
M  V30 24 1 22 21
M  V30 25 1 23 22
M  V30 26 1 24 23
M  V30 27 1 25 24
M  V30 28 1 26 21
M  V30 29 1 26 25
M  V30 30 1 27 4
M  V30 31 1 28 5
M  V30 32 1 29 6
M  V30 33 1 30 7
M  V30 34 1 31 9
M  V30 35 1 32 10
M  V30 36 1 33 12
M  V30 37 1 34 13
M  V30 38 1 35 14
M  V30 39 1 36 15
M  V30 40 1 37 18
M  V30 41 1 38 18
M  V30 42 1 39 19
M  V30 43 1 40 19
M  V30 44 1 41 20
M  V30 45 1 42 20
M  V30 46 1 43 22
M  V30 47 1 44 22
M  V30 48 1 45 23
M  V30 49 1 46 23
M  V30 50 1 47 25
M  V30 51 1 48 25
M  V30 52 1 49 26
M  V30 53 1 50 26
M  V30 END BOND
M  V30 END CTAB
M  END
>  <b_m_subgroup_collapsed>  (2400) 
0

>  <r_i_docking_score>  (2400) 
-5.7047659915780899

>  <s_m_subgroup_title>  (2400) 
glide-dock_SP_D22_pv

>  <s_m_subgroupid>  (2400) 
glide-dock_SP_D22_pv

>  <Molecule ChEMBL ID>  (2400) 
CHEMBL4778076

>  <Standard Type>  (2400) 
Ki

>  <Standard Value>  (2400) 
19100.0

>  <label>  (2400) 
0

$$$$
CHEMBL1949727
     RDKit          3D

  0  0  0  0  0  0  0  0  0  0999 V3000
M  V30 BEGIN CTAB
M  V30 COUNTS 47 50 0 0 1
M  V30 BEGIN ATOM
M  V30 1 C 8.046691 2.457666 -17.498116 0
M  V30 2 N 9.145048 2.261689 -16.521511 0 CFG=1 CHG=1
M  V30 3 C 8.872983 1.153399 -15.570353 0
M  V30 4 C 7.756221 1.468633 -14.557009 0
M  V30 5 C 7.617010 2.885566 -13.968705 0
M  V30 6 C 6.292150 3.362320 -13.841199 0
M  V30 7 C 5.997002 4.570474 -13.187709 0
M  V30 8 C 7.035326 5.342086 -12.646924 0
M  V30 9 C 8.360490 4.896167 -12.777655 0
M  V30 10 C 8.675069 3.680627 -13.429142 0
M  V30 11 C 10.141393 3.273519 -13.415872 0
M  V30 12 C 11.005458 4.136441 -14.324595 0
M  V30 13 N 11.286594 5.470186 -14.078714 0
M  V30 14 C 12.047676 6.065505 -15.053984 0
M  V30 15 C 12.529210 7.371175 -15.245108 0
M  V30 16 C 13.285723 7.659267 -16.393534 0
M  V30 17 C 13.564805 6.637023 -17.322876 0
M  V30 18 C 13.073613 5.332992 -17.115196 0
M  V30 19 C 12.294170 5.015237 -15.977363 0
M  V30 20 C 11.634149 3.808188 -15.489363 0
M  V30 21 C 11.642180 2.462985 -16.158768 0
M  V30 22 C 10.493586 2.212834 -17.165903 0 CFG=1
M  V30 23 C 10.721982 0.954532 -18.028421 0
M  V30 24 O 10.578216 1.083752 -19.262749 0
M  V30 25 O 11.003042 -0.115367 -17.446621 0 CHG=-1
M  V30 26 H 7.957403 1.610672 -18.178862 0
M  V30 27 H 8.215865 3.357149 -18.092175 0
M  V30 28 H 7.088257 2.572463 -16.993202 0
M  V30 29 H 8.597648 0.253573 -16.122776 0
M  V30 30 H 9.765763 0.853410 -15.032747 0
M  V30 31 H 6.810668 1.203200 -15.034257 0
M  V30 32 H 7.843989 0.766284 -13.727830 0
M  V30 33 H 5.470406 2.768693 -14.205441 0
M  V30 34 H 4.973305 4.895857 -13.094062 0
M  V30 35 H 6.814556 6.261879 -12.123542 0
M  V30 36 H 9.142192 5.494099 -12.333144 0
M  V30 37 H 10.485516 3.444972 -12.397026 0
M  V30 38 H 10.305119 2.213202 -13.570293 0
M  V30 39 H 10.936517 5.947618 -13.260432 0
M  V30 40 H 12.318121 8.146249 -14.523237 0
M  V30 41 H 13.656323 8.659353 -16.563286 0
M  V30 42 H 14.151596 6.857781 -18.201731 0
M  V30 43 H 13.286476 4.562750 -17.844580 0
M  V30 44 H 12.595928 2.374339 -16.680479 0
M  V30 45 H 11.686790 1.690049 -15.396690 0
M  V30 46 H 10.531697 3.065475 -17.844307 0
M  V30 47 H 9.166010 3.098071 -15.954196 0
M  V30 END ATOM
M  V30 BEGIN BOND
M  V30 1 1 2 1
M  V30 2 1 3 2
M  V30 3 1 4 3
M  V30 4 1 5 4
M  V30 5 2 6 5
M  V30 6 1 7 6
M  V30 7 2 8 7
M  V30 8 1 9 8
M  V30 9 1 10 5
M  V30 10 2 10 9
M  V30 11 1 11 10
M  V30 12 1 12 11
M  V30 13 1 13 12
M  V30 14 1 14 13
M  V30 15 2 15 14
M  V30 16 1 16 15
M  V30 17 2 17 16
M  V30 18 1 18 17
M  V30 19 1 19 14
M  V30 20 2 19 18
M  V30 21 2 20 12
M  V30 22 1 20 19
M  V30 23 1 21 20
M  V30 24 1 22 2
M  V30 25 1 22 21
M  V30 26 1 23 22
M  V30 27 2 24 23
M  V30 28 1 25 23
M  V30 29 1 26 1
M  V30 30 1 27 1
M  V30 31 1 28 1
M  V30 32 1 29 3
M  V30 33 1 30 3
M  V30 34 1 31 4
M  V30 35 1 32 4
M  V30 36 1 33 6
M  V30 37 1 34 7
M  V30 38 1 35 8
M  V30 39 1 36 9
M  V30 40 1 37 11
M  V30 41 1 38 11
M  V30 42 1 39 13
M  V30 43 1 40 15
M  V30 44 1 41 16
M  V30 45 1 42 17
M  V30 46 1 43 18
M  V30 47 1 44 21
M  V30 48 1 45 21
M  V30 49 1 22 46 CFG=3
M  V30 50 1 2 47 CFG=1
M  V30 END BOND
M  V30 END CTAB
M  END
>  <b_m_subgroup_collapsed>  (2401) 
0

>  <r_i_docking_score>  (2401) 
-5.7042326532740901

>  <s_m_subgroup_title>  (2401) 
glide-dock_SP_D22_pv

>  <s_m_subgroupid>  (2401) 
glide-dock_SP_D22_pv

>  <Molecule ChEMBL ID>  (2401) 
CHEMBL1949727

>  <Standard Type>  (2401) 
Ki

>  <Standard Value>  (2401) 
10000.0

>  <label>  (2401) 
0

$$$$
CHEMBL3975989
     RDKit          3D

  0  0  0  0  0  0  0  0  0  0999 V3000
M  V30 BEGIN CTAB
M  V30 COUNTS 60 64 0 0 1
M  V30 BEGIN ATOM
M  V30 1 C 20.226948 10.391970 -20.435947 0
M  V30 2 C 20.312197 10.505908 -18.945284 0
M  V30 3 N 21.084682 11.477502 -18.326284 0
M  V30 4 C 20.928730 11.247499 -17.025623 0
M  V30 5 O 20.116854 10.195145 -16.738764 0
M  V30 6 C 19.725819 9.739363 -17.968924 0
M  V30 7 C 18.830517 8.596758 -18.023058 0
M  V30 8 N 19.208870 7.363914 -17.675430 0
M  V30 9 N 18.094965 6.572622 -17.838203 0
M  V30 10 C 17.126825 7.395086 -18.247410 0
M  V30 11 S 15.453439 6.915988 -18.542463 0
M  V30 12 C 15.470662 5.225399 -17.884933 0
M  V30 13 C 14.081229 4.792534 -17.425365 0
M  V30 14 C 13.637815 5.557168 -16.157530 0
M  V30 15 N 12.259215 5.259656 -15.703155 0 CFG=1 CHG=1
M  V30 16 C 11.177331 5.680049 -16.610415 0
M  V30 17 C 9.950736 4.974052 -16.056189 0
M  V30 18 C 10.471327 3.691112 -15.433568 0 CFG=2
M  V30 19 C 9.858964 2.372612 -15.851360 0
M  V30 20 C 9.682498 2.855775 -14.433171 0 CFG=2
M  V30 21 C 8.406069 3.393947 -13.846284 0
M  V30 22 C 8.510242 4.580509 -13.083648 0
M  V30 23 C 7.387728 5.158445 -12.471321 0
M  V30 24 C 6.136269 4.542569 -12.605041 0
M  V30 25 C 6.013206 3.348192 -13.336504 0
M  V30 26 C 7.141505 2.746353 -13.943719 0
M  V30 27 C 6.972025 1.391432 -14.633998 0
M  V30 28 F 7.991934 0.575299 -14.361696 0
M  V30 29 F 5.860851 0.780657 -14.218317 0
M  V30 30 F 6.886158 1.561392 -15.952015 0
M  V30 31 C 11.970996 3.869757 -15.280377 0
M  V30 32 N 17.534157 8.670872 -18.382353 0
M  V30 33 C 16.775589 9.850029 -18.761080 0
M  V30 34 H 19.226093 10.630287 -20.796356 0
M  V30 35 H 20.923134 11.072545 -20.928076 0
M  V30 36 H 20.465588 9.379854 -20.765530 0
M  V30 37 H 21.398869 11.826348 -16.246010 0
M  V30 38 H 15.815075 4.572568 -18.685427 0
M  V30 39 H 16.158648 5.123561 -17.045151 0
M  V30 40 H 13.385327 4.936026 -18.251194 0
M  V30 41 H 14.112024 3.720832 -17.230057 0
M  V30 42 H 14.325449 5.352731 -15.337219 0
M  V30 43 H 13.694413 6.633887 -16.327461 0
M  V30 44 H 11.066242 6.763429 -16.634970 0
M  V30 45 H 11.349754 5.333883 -17.628567 0
M  V30 46 H 9.492504 5.595640 -15.291038 0
M  V30 47 H 9.207828 4.781805 -16.829350 0
M  V30 48 H 9.023966 2.427502 -16.542933 0
M  V30 49 H 10.537256 1.538765 -16.014130 0
M  V30 50 H 10.242645 2.325187 -13.665391 0
M  V30 51 H 9.471879 5.057228 -12.958753 0
M  V30 52 H 7.481486 6.064495 -11.887443 0
M  V30 53 H 5.285387 4.982531 -12.113459 0
M  V30 54 H 5.043191 2.877699 -13.402274 0
M  V30 55 H 12.473965 3.130274 -15.903245 0
M  V30 56 H 12.283444 3.716127 -14.245433 0
M  V30 57 H 15.739523 9.606838 -18.992334 0
M  V30 58 H 16.787159 10.562995 -17.935686 0
M  V30 59 H 17.222836 10.308115 -19.642488 0
M  V30 60 H 12.123212 5.816153 -14.870644 0
M  V30 END ATOM
M  V30 BEGIN BOND
M  V30 1 1 2 1
M  V30 2 1 3 2
M  V30 3 2 4 3
M  V30 4 1 5 4
M  V30 5 2 6 2
M  V30 6 1 6 5
M  V30 7 1 7 6
M  V30 8 2 8 7
M  V30 9 1 9 8
M  V30 10 2 10 9
M  V30 11 1 11 10
M  V30 12 1 12 11
M  V30 13 1 13 12
M  V30 14 1 14 13
M  V30 15 1 15 14
M  V30 16 1 16 15
M  V30 17 1 17 16
M  V30 18 1 18 17 CFG=3
M  V30 19 1 19 18
M  V30 20 1 20 18
M  V30 21 1 20 19
M  V30 22 1 21 20
M  V30 23 2 22 21
M  V30 24 1 23 22
M  V30 25 2 24 23
M  V30 26 1 25 24
M  V30 27 1 26 21
M  V30 28 2 26 25
M  V30 29 1 27 26
M  V30 30 1 28 27
M  V30 31 1 29 27
M  V30 32 1 30 27
M  V30 33 1 31 15
M  V30 34 1 31 18
M  V30 35 1 32 7
M  V30 36 1 32 10
M  V30 37 1 33 32
M  V30 38 1 34 1
M  V30 39 1 35 1
M  V30 40 1 36 1
M  V30 41 1 37 4
M  V30 42 1 38 12
M  V30 43 1 39 12
M  V30 44 1 40 13
M  V30 45 1 41 13
M  V30 46 1 42 14
M  V30 47 1 43 14
M  V30 48 1 44 16
M  V30 49 1 45 16
M  V30 50 1 46 17
M  V30 51 1 47 17
M  V30 52 1 48 19
M  V30 53 1 49 19
M  V30 54 1 20 50 CFG=1
M  V30 55 1 51 22
M  V30 56 1 52 23
M  V30 57 1 53 24
M  V30 58 1 54 25
M  V30 59 1 55 31
M  V30 60 1 56 31
M  V30 61 1 57 33
M  V30 62 1 58 33
M  V30 63 1 59 33
M  V30 64 1 15 60 CFG=1
M  V30 END BOND
M  V30 END CTAB
M  END
>  <b_m_subgroup_collapsed>  (2402) 
0

>  <r_i_docking_score>  (2402) 
-5.7039459703025504

>  <s_m_subgroup_title>  (2402) 
glide-dock_SP_D22_pv

>  <s_m_subgroupid>  (2402) 
glide-dock_SP_D22_pv

>  <Molecule ChEMBL ID>  (2402) 
CHEMBL3975989

>  <Standard Type>  (2402) 
Ki

>  <Standard Value>  (2402) 
63.1

>  <label>  (2402) 
1

$$$$
CHEMBL201010
     RDKit          3D

  0  0  0  0  0  0  0  0  0  0999 V3000
M  V30 BEGIN CTAB
M  V30 COUNTS 49 53 0 0 1
M  V30 BEGIN ATOM
M  V30 1 C 10.374353 -0.348786 -16.520847 0
M  V30 2 N 9.822877 0.985791 -16.147160 0 CFG=1 CHG=1
M  V30 3 C 9.680675 1.826438 -17.382444 0
M  V30 4 C 8.561353 1.348944 -18.329874 0
M  V30 5 C 7.219468 1.199206 -17.600599 0
M  V30 6 C 7.374022 0.263001 -16.384193 0 CFG=2
M  V30 7 C 6.021014 -0.125288 -15.749975 0
M  V30 8 C 5.772397 -0.056025 -14.358570 0
M  V30 9 C 4.487748 -0.289775 -13.846978 0
M  V30 10 C 3.460630 -0.751955 -14.688138 0
M  V30 11 C 3.725915 -0.967231 -16.051655 0
M  V30 12 C 4.987959 -0.632025 -16.579124 0
M  V30 13 C 8.485345 0.854256 -15.439748 0 CFG=2
M  V30 14 C 8.155766 2.170328 -14.751869 0
M  V30 15 N 6.899742 2.612077 -14.363255 0
M  V30 16 C 6.985285 3.793733 -13.659754 0
M  V30 17 C 6.014409 4.582981 -13.027047 0
M  V30 18 C 6.413256 5.757345 -12.364432 0
M  V30 19 C 7.769377 6.139027 -12.363964 0
M  V30 20 C 8.736103 5.343632 -13.015335 0
M  V30 21 C 8.364868 4.145091 -13.666571 0
M  V30 22 C 9.066800 3.119459 -14.377755 0
M  V30 23 C 10.510906 3.014214 -14.720893 0
M  V30 24 C 10.840183 1.590181 -15.215398 0
M  V30 25 H 10.486083 -0.990892 -15.645157 0
M  V30 26 H 11.361910 -0.230076 -16.970549 0
M  V30 27 H 9.777608 -0.896064 -17.246048 0
M  V30 28 H 9.452158 2.859947 -17.124222 0
M  V30 29 H 10.630667 1.859678 -17.920811 0
M  V30 30 H 8.455145 2.061063 -19.149780 0
M  V30 31 H 8.832675 0.405865 -18.801744 0
M  V30 32 H 6.846365 2.172999 -17.278614 0
M  V30 33 H 6.489823 0.816257 -18.312628 0
M  V30 34 H 7.720509 -0.695357 -16.761541 0
M  V30 35 H 6.544876 0.219413 -13.659496 0
M  V30 36 H 4.299413 -0.148276 -12.797054 0
M  V30 37 H 2.483871 -0.966984 -14.280145 0
M  V30 38 H 2.943758 -1.350711 -16.695370 0
M  V30 39 H 5.152888 -0.781183 -17.635435 0
M  V30 40 H 8.637556 0.124517 -14.643009 0
M  V30 41 H 6.051137 2.084103 -14.535031 0
M  V30 42 H 4.977540 4.286967 -13.034593 0
M  V30 43 H 5.686710 6.370530 -11.847959 0
M  V30 44 H 8.060461 7.044283 -11.847538 0
M  V30 45 H 9.771993 5.646538 -12.997090 0
M  V30 46 H 10.768050 3.750534 -15.483186 0
M  V30 47 H 11.128884 3.252621 -13.854477 0
M  V30 48 H 10.912524 0.945290 -14.336917 0
M  V30 49 H 11.827002 1.602453 -15.678763 0
M  V30 END ATOM
M  V30 BEGIN BOND
M  V30 1 1 2 1 CFG=3
M  V30 2 1 3 2
M  V30 3 1 4 3
M  V30 4 1 5 4
M  V30 5 1 6 5
M  V30 6 1 7 6
M  V30 7 2 8 7
M  V30 8 1 9 8
M  V30 9 2 10 9
M  V30 10 1 11 10
M  V30 11 1 12 7
M  V30 12 2 12 11
M  V30 13 1 13 2
M  V30 14 1 13 6
M  V30 15 1 14 13
M  V30 16 1 15 14
M  V30 17 1 16 15
M  V30 18 2 17 16
M  V30 19 1 18 17
M  V30 20 2 19 18
M  V30 21 1 20 19
M  V30 22 1 21 16
M  V30 23 2 21 20
M  V30 24 2 22 14
M  V30 25 1 22 21
M  V30 26 1 23 22
M  V30 27 1 24 2
M  V30 28 1 24 23
M  V30 29 1 25 1
M  V30 30 1 26 1
M  V30 31 1 27 1
M  V30 32 1 28 3
M  V30 33 1 29 3
M  V30 34 1 30 4
M  V30 35 1 31 4
M  V30 36 1 32 5
M  V30 37 1 33 5
M  V30 38 1 6 34 CFG=3
M  V30 39 1 35 8
M  V30 40 1 36 9
M  V30 41 1 37 10
M  V30 42 1 38 11
M  V30 43 1 39 12
M  V30 44 1 13 40 CFG=1
M  V30 45 1 41 15
M  V30 46 1 42 17
M  V30 47 1 43 18
M  V30 48 1 44 19
M  V30 49 1 45 20
M  V30 50 1 46 23
M  V30 51 1 47 23
M  V30 52 1 48 24
M  V30 53 1 49 24
M  V30 END BOND
M  V30 END CTAB
M  END
>  <b_m_subgroup_collapsed>  (2403) 
0

>  <r_i_docking_score>  (2403) 
-5.7021629859867602

>  <s_m_subgroup_title>  (2403) 
glide-dock_SP_D22_pv

>  <s_m_subgroupid>  (2403) 
glide-dock_SP_D22_pv

>  <Molecule ChEMBL ID>  (2403) 
CHEMBL201010

>  <Standard Type>  (2403) 
Ki

>  <Standard Value>  (2403) 
10000.0

>  <label>  (2403) 
0

$$$$
CHEMBL4571469
     RDKit          3D

  0  0  0  0  0  0  0  0  0  0999 V3000
M  V30 BEGIN CTAB
M  V30 COUNTS 53 56 0 0 1
M  V30 BEGIN ATOM
M  V30 1 C 8.200729 -0.000586 -15.220948 0
M  V30 2 C 9.311455 0.630838 -14.374296 0
M  V30 3 C 10.156802 1.590142 -15.144975 0
M  V30 4 N 10.886098 1.168349 -16.242645 0
M  V30 5 C 11.555785 2.223225 -16.703674 0
M  V30 6 N 12.407974 2.186111 -17.834572 0
M  V30 7 C 12.643747 1.139572 -18.647003 0
M  V30 8 C 13.625196 1.388307 -19.786039 0
M  V30 9 O 12.133198 0.025721 -18.515619 0
M  V30 10 N 11.341265 3.324306 -16.000093 0
M  V30 11 C 10.427162 2.944885 -15.006299 0
M  V30 12 C 9.943576 3.964074 -14.068108 0
M  V30 13 C 10.647026 4.991192 -13.489259 0
M  V30 14 N 9.807453 5.772326 -12.704626 0
M  V30 15 S 10.294442 7.210460 -11.871609 0
M  V30 16 O 9.312371 8.239862 -12.246667 0
M  V30 17 O 11.719188 7.372203 -12.203230 0
M  V30 18 C 10.171103 6.931839 -10.105608 0
M  V30 19 C 9.402156 5.885155 -9.557117 0
M  V30 20 C 9.282761 5.772071 -8.161489 0
M  V30 21 C 9.950617 6.676830 -7.312629 0
M  V30 22 C 10.740103 7.706054 -7.861541 0
M  V30 23 C 10.846214 7.836786 -9.259888 0
M  V30 24 C 8.524216 5.260926 -12.771959 0
M  V30 25 C 7.319128 5.682675 -12.191037 0
M  V30 26 C 6.171598 4.889324 -12.306241 0
M  V30 27 C 6.200270 3.705022 -13.060102 0
M  V30 28 O 5.070179 2.920151 -13.046856 0
M  V30 29 C 5.240242 1.535832 -13.321140 0
M  V30 30 C 7.383657 3.372403 -13.764337 0
M  V30 31 C 8.589019 4.096642 -13.592169 0
M  V30 32 H 7.554918 -0.627787 -14.607678 0
M  V30 33 H 7.574755 0.749264 -15.702483 0
M  V30 34 H 8.620069 -0.625236 -16.010132 0
M  V30 35 H 9.948674 -0.163057 -13.984489 0
M  V30 36 H 8.885876 1.116995 -13.499008 0
M  V30 37 H 12.880593 3.051744 -18.045938 0
M  V30 38 H 13.295302 2.224667 -20.402786 0
M  V30 39 H 14.614747 1.616748 -19.389580 0
M  V30 40 H 13.708670 0.507288 -20.423595 0
M  V30 41 H 11.692625 5.242718 -13.600608 0
M  V30 42 H 8.883387 5.173705 -10.176246 0
M  V30 43 H 8.670269 4.985648 -7.748103 0
M  V30 44 H 9.853755 6.579906 -6.240766 0
M  V30 45 H 11.251591 8.402263 -7.212711 0
M  V30 46 H 11.433690 8.638172 -9.685033 0
M  V30 47 H 7.286658 6.572319 -11.582272 0
M  V30 48 H 5.286030 5.176327 -11.764987 0
M  V30 49 H 4.292357 1.020247 -13.174999 0
M  V30 50 H 5.550516 1.351562 -14.347589 0
M  V30 51 H 5.970894 1.085666 -12.648129 0
M  V30 52 H 7.402259 2.514852 -14.408174 0
M  V30 53 H 10.916593 0.239639 -16.640814 0
M  V30 END ATOM
M  V30 BEGIN BOND
M  V30 1 1 2 1
M  V30 2 1 3 2
M  V30 3 1 4 3
M  V30 4 1 5 4
M  V30 5 1 6 5
M  V30 6 1 7 6
M  V30 7 1 8 7
M  V30 8 2 9 7
M  V30 9 2 10 5
M  V30 10 2 11 3
M  V30 11 1 11 10
M  V30 12 1 12 11
M  V30 13 2 13 12
M  V30 14 1 14 13
M  V30 15 1 15 14
M  V30 16 2 16 15
M  V30 17 2 17 15
M  V30 18 1 18 15
M  V30 19 2 19 18
M  V30 20 1 20 19
M  V30 21 2 21 20
M  V30 22 1 22 21
M  V30 23 1 23 18
M  V30 24 2 23 22
M  V30 25 1 24 14
M  V30 26 1 25 24
M  V30 27 2 26 25
M  V30 28 1 27 26
M  V30 29 1 28 27
M  V30 30 1 29 28
M  V30 31 2 30 27
M  V30 32 1 31 12
M  V30 33 2 31 24
M  V30 34 1 31 30
M  V30 35 1 32 1
M  V30 36 1 33 1
M  V30 37 1 34 1
M  V30 38 1 35 2
M  V30 39 1 36 2
M  V30 40 1 37 6
M  V30 41 1 38 8
M  V30 42 1 39 8
M  V30 43 1 40 8
M  V30 44 1 41 13
M  V30 45 1 42 19
M  V30 46 1 43 20
M  V30 47 1 44 21
M  V30 48 1 45 22
M  V30 49 1 46 23
M  V30 50 1 47 25
M  V30 51 1 48 26
M  V30 52 1 49 29
M  V30 53 1 50 29
M  V30 54 1 51 29
M  V30 55 1 52 30
M  V30 56 1 53 4
M  V30 END BOND
M  V30 END CTAB
M  END
>  <b_m_subgroup_collapsed>  (2404) 
0

>  <r_i_docking_score>  (2404) 
-5.6980843878841201

>  <s_m_subgroup_title>  (2404) 
glide-dock_SP_D22_pv

>  <s_m_subgroupid>  (2404) 
glide-dock_SP_D22_pv

>  <Molecule ChEMBL ID>  (2404) 
CHEMBL4571469

>  <Standard Type>  (2404) 
Ki

>  <Standard Value>  (2404) 
10000.0

>  <label>  (2404) 
0

$$$$
CHEMBL3104092
     RDKit          3D

  0  0  0  0  0  0  0  0  0  0999 V3000
M  V30 BEGIN CTAB
M  V30 COUNTS 43 47 0 0 1
M  V30 BEGIN ATOM
M  V30 1 C 12.065178 6.879676 -13.576600 0
M  V30 2 N 11.293631 5.733927 -14.105724 0 CFG=1 CHG=1
M  V30 3 C 12.152523 4.547759 -14.395823 0
M  V30 4 C 11.387368 3.474700 -15.205179 0
M  V30 5 C 10.006233 3.303447 -14.667306 0
M  V30 6 C 9.415744 4.197881 -13.796434 0
M  V30 7 C 8.119805 3.665915 -13.619678 0
M  V30 8 C 7.130783 4.217643 -12.812207 0
M  V30 9 C 5.902057 3.538399 -12.704842 0
M  V30 10 C 5.688983 2.341895 -13.415294 0
M  V30 11 C 6.701599 1.817591 -14.246857 0
M  V30 12 C 7.948729 2.503965 -14.326486 0
M  V30 13 N 9.106606 2.278636 -14.981400 0
M  V30 14 C 9.306514 1.107268 -15.822665 0
M  V30 15 C 8.249942 0.996512 -16.903021 0
M  V30 16 C 8.588004 1.178102 -18.260181 0
M  V30 17 C 7.599142 1.052981 -19.254320 0
M  V30 18 C 6.273912 0.744317 -18.892658 0
M  V30 19 C 5.933232 0.572237 -17.537096 0
M  V30 20 C 6.920218 0.706769 -16.537327 0
M  V30 21 C 6.574810 0.537718 -15.066710 0
M  V30 22 C 10.122171 5.396524 -13.246579 0
M  V30 23 H 12.509836 6.637676 -12.610951 0
M  V30 24 H 11.418807 7.748646 -13.444027 0
M  V30 25 H 12.864833 7.161954 -14.262658 0
M  V30 26 H 13.052117 4.843437 -14.937162 0
M  V30 27 H 12.487571 4.125250 -13.446867 0
M  V30 28 H 11.326180 3.775411 -16.251106 0
M  V30 29 H 11.933454 2.531946 -15.185764 0
M  V30 30 H 7.286123 5.130787 -12.253304 0
M  V30 31 H 5.130736 3.936906 -12.062106 0
M  V30 32 H 4.744132 1.826444 -13.320516 0
M  V30 33 H 10.293797 1.162397 -16.281916 0
M  V30 34 H 9.320769 0.213865 -15.196612 0
M  V30 35 H 9.604865 1.407415 -18.544752 0
M  V30 36 H 7.859239 1.186076 -20.294750 0
M  V30 37 H 5.516990 0.638865 -19.656967 0
M  V30 38 H 4.912594 0.339067 -17.270456 0
M  V30 39 H 7.192835 -0.242293 -14.622038 0
M  V30 40 H 5.550944 0.169008 -14.981707 0
M  V30 41 H 10.460799 5.189437 -12.231709 0
M  V30 42 H 9.438152 6.240232 -13.179851 0
M  V30 43 H 10.913821 6.026489 -14.993838 0
M  V30 END ATOM
M  V30 BEGIN BOND
M  V30 1 1 2 1
M  V30 2 1 3 2
M  V30 3 1 4 3
M  V30 4 1 5 4
M  V30 5 2 6 5
M  V30 6 1 7 6
M  V30 7 2 8 7
M  V30 8 1 9 8
M  V30 9 2 10 9
M  V30 10 1 11 10
M  V30 11 1 12 7
M  V30 12 2 12 11
M  V30 13 1 13 5
M  V30 14 1 13 12
M  V30 15 1 14 13
M  V30 16 1 15 14
M  V30 17 2 16 15
M  V30 18 1 17 16
M  V30 19 2 18 17
M  V30 20 1 19 18
M  V30 21 1 20 15
M  V30 22 2 20 19
M  V30 23 1 21 11
M  V30 24 1 21 20
M  V30 25 1 22 2
M  V30 26 1 22 6
M  V30 27 1 23 1
M  V30 28 1 24 1
M  V30 29 1 25 1
M  V30 30 1 26 3
M  V30 31 1 27 3
M  V30 32 1 28 4
M  V30 33 1 29 4
M  V30 34 1 30 8
M  V30 35 1 31 9
M  V30 36 1 32 10
M  V30 37 1 33 14
M  V30 38 1 34 14
M  V30 39 1 35 16
M  V30 40 1 36 17
M  V30 41 1 37 18
M  V30 42 1 38 19
M  V30 43 1 39 21
M  V30 44 1 40 21
M  V30 45 1 41 22
M  V30 46 1 42 22
M  V30 47 1 2 43 CFG=3
M  V30 END BOND
M  V30 END CTAB
M  END
>  <b_m_subgroup_collapsed>  (2405) 
0

>  <r_i_docking_score>  (2405) 
-5.69741034878533

>  <s_m_subgroup_title>  (2405) 
glide-dock_SP_D22_pv

>  <s_m_subgroupid>  (2405) 
glide-dock_SP_D22_pv

>  <Molecule ChEMBL ID>  (2405) 
CHEMBL3104092

>  <Standard Type>  (2405) 
Ki

>  <Standard Value>  (2405) 
10000.0

>  <label>  (2405) 
0

$$$$
CHEMBL3780184
     RDKit          3D

  0  0  0  0  0  0  0  0  0  0999 V3000
M  V30 BEGIN CTAB
M  V30 COUNTS 56 60 0 0 1
M  V30 BEGIN ATOM
M  V30 1 C 3.451489 -1.852075 -18.596966 0
M  V30 2 O 4.622043 -2.354472 -17.974649 0
M  V30 3 C 5.243403 -1.474127 -17.126925 0
M  V30 4 C 6.493127 -0.939680 -17.496370 0
M  V30 5 C 7.190253 -0.085894 -16.614845 0
M  V30 6 C 6.624584 0.283770 -15.377297 0
M  V30 7 C 5.369825 -0.250368 -15.010902 0
M  V30 8 C 4.691302 -1.144980 -15.866677 0
M  V30 9 O 3.521133 -1.711241 -15.446504 0
M  V30 10 C 7.364815 1.232512 -14.427983 0 CFG=2
M  V30 11 C 6.651241 2.607326 -14.375289 0
M  V30 12 C 7.460695 3.640657 -13.612282 0
M  V30 13 C 6.872270 4.527598 -12.696601 0
M  V30 14 C 7.689217 5.420185 -11.978983 0
M  V30 15 C 9.096098 5.448230 -12.161929 0
M  V30 16 O 9.930462 6.248065 -11.404056 0
M  V30 17 C 9.374778 7.017606 -10.340155 0
M  V30 18 C 10.484811 7.500544 -9.426986 0
M  V30 19 C 11.299076 8.731913 -9.750237 0
M  V30 20 C 10.306807 8.767199 -8.616524 0
M  V30 21 C 9.674156 4.588420 -13.143569 0
M  V30 22 O 11.020581 4.564428 -13.440440 0
M  V30 23 C 11.683283 5.812581 -13.591388 0
M  V30 24 C 8.846141 3.675982 -13.838724 0
M  V30 25 C 9.393950 2.701547 -14.863599 0
M  V30 26 N 8.855375 1.331079 -14.649864 0 CFG=2 CHG=1
M  V30 27 C 9.417477 0.366356 -15.626841 0
M  V30 28 C 8.601219 0.345421 -16.928577 0
M  V30 29 H 2.942165 -2.661081 -19.119505 0
M  V30 30 H 2.750960 -1.426169 -17.881937 0
M  V30 31 H 3.702740 -1.080716 -19.325054 0
M  V30 32 H 6.935195 -1.227872 -18.436018 0
M  V30 33 H 4.927990 0.001562 -14.056243 0
M  V30 34 H 3.283761 -2.505559 -15.922617 0
M  V30 35 H 7.271399 0.775647 -13.448273 0
M  V30 36 H 5.664536 2.503710 -13.919106 0
M  V30 37 H 6.485520 2.972242 -15.387903 0
M  V30 38 H 5.804525 4.517664 -12.521521 0
M  V30 39 H 7.201011 6.075908 -11.274659 0
M  V30 40 H 8.834007 7.873000 -10.746919 0
M  V30 41 H 8.687137 6.429404 -9.729718 0
M  V30 42 H 11.023864 6.692400 -8.935494 0
M  V30 43 H 12.355761 8.721571 -9.492433 0
M  V30 44 H 11.046259 9.287886 -10.647445 0
M  V30 45 H 9.400642 9.352193 -8.769564 0
M  V30 46 H 10.699345 8.776263 -7.601543 0
M  V30 47 H 12.523101 5.692882 -14.275968 0
M  V30 48 H 11.026241 6.572184 -14.006065 0
M  V30 49 H 12.088988 6.172549 -12.647051 0
M  V30 50 H 10.482368 2.663985 -14.815084 0
M  V30 51 H 9.133439 3.064685 -15.858856 0
M  V30 52 H 9.405268 -0.627384 -15.172371 0
M  V30 53 H 10.467436 0.585973 -15.830721 0
M  V30 54 H 9.055476 -0.351426 -17.634361 0
M  V30 55 H 8.586982 1.324210 -17.408085 0
M  V30 56 H 9.256277 1.071506 -13.756582 0
M  V30 END ATOM
M  V30 BEGIN BOND
M  V30 1 1 2 1
M  V30 2 1 3 2
M  V30 3 1 4 3
M  V30 4 2 5 4
M  V30 5 1 6 5
M  V30 6 2 7 6
M  V30 7 2 8 3
M  V30 8 1 8 7
M  V30 9 1 9 8
M  V30 10 1 10 6
M  V30 11 1 11 10
M  V30 12 1 12 11
M  V30 13 1 13 12
M  V30 14 2 14 13
M  V30 15 1 15 14
M  V30 16 1 16 15
M  V30 17 1 17 16
M  V30 18 1 18 17
M  V30 19 1 19 18
M  V30 20 1 20 18
M  V30 21 1 20 19
M  V30 22 2 21 15
M  V30 23 1 22 21
M  V30 24 1 23 22
M  V30 25 2 24 12
M  V30 26 1 24 21
M  V30 27 1 25 24
M  V30 28 1 26 10
M  V30 29 1 26 25
M  V30 30 1 27 26
M  V30 31 1 28 5
M  V30 32 1 28 27
M  V30 33 1 29 1
M  V30 34 1 30 1
M  V30 35 1 31 1
M  V30 36 1 32 4
M  V30 37 1 33 7
M  V30 38 1 34 9
M  V30 39 1 10 35 CFG=1
M  V30 40 1 36 11
M  V30 41 1 37 11
M  V30 42 1 38 13
M  V30 43 1 39 14
M  V30 44 1 40 17
M  V30 45 1 41 17
M  V30 46 1 42 18
M  V30 47 1 43 19
M  V30 48 1 44 19
M  V30 49 1 45 20
M  V30 50 1 46 20
M  V30 51 1 47 23
M  V30 52 1 48 23
M  V30 53 1 49 23
M  V30 54 1 50 25
M  V30 55 1 51 25
M  V30 56 1 52 27
M  V30 57 1 53 27
M  V30 58 1 54 28
M  V30 59 1 55 28
M  V30 60 1 26 56 CFG=1
M  V30 END BOND
M  V30 END CTAB
M  END
>  <b_m_subgroup_collapsed>  (2406) 
0

>  <r_i_docking_score>  (2406) 
-5.6946851683677

>  <s_m_subgroup_title>  (2406) 
glide-dock_SP_D22_pv

>  <s_m_subgroupid>  (2406) 
glide-dock_SP_D22_pv

>  <Molecule ChEMBL ID>  (2406) 
CHEMBL3780184

>  <Standard Type>  (2406) 
Ki

>  <Standard Value>  (2406) 
54.0

>  <label>  (2406) 
1

$$$$
CHEMBL3916787
     RDKit          3D

  0  0  0  0  0  0  0  0  0  0999 V3000
M  V30 BEGIN CTAB
M  V30 COUNTS 49 52 0 0 1
M  V30 BEGIN ATOM
M  V30 1 C 5.272633 -1.085133 -15.520093 0
M  V30 2 N 6.621679 -0.557779 -15.213015 0 CHG=1
M  V30 3 C 6.882454 -0.536365 -13.752469 0
M  V30 4 C 6.910775 0.715258 -15.947289 0 CFG=1
M  V30 5 C 7.352235 1.893862 -15.105624 0
M  V30 6 C 6.892872 2.838453 -14.186039 0
M  V30 7 C 7.834542 3.843220 -13.800588 0
M  V30 8 C 7.732075 4.971159 -12.925251 0
M  V30 9 C 8.943530 5.604970 -12.950054 0
M  V30 10 N 9.824306 4.934875 -13.791190 0
M  V30 11 S 11.478608 5.410031 -14.005480 0
M  V30 12 O 11.690649 6.508939 -13.048800 0
M  V30 13 O 12.262980 4.172198 -13.900096 0
M  V30 14 C 11.685642 6.073047 -15.662904 0
M  V30 15 C 12.729372 6.999439 -15.868093 0
M  V30 16 C 12.970682 7.512707 -17.157274 0
M  V30 17 C 12.178829 7.095627 -18.245594 0
M  V30 18 C 11.133669 6.172662 -18.039616 0
M  V30 19 C 10.885721 5.663372 -16.750319 0
M  V30 20 C 9.183325 3.828257 -14.346094 0
M  V30 21 C 9.625904 2.847152 -15.277658 0
M  V30 22 C 8.661420 1.916875 -15.660586 0
M  V30 23 C 8.378613 0.790509 -16.628714 0 CFG=1
M  V30 24 C 9.383325 -0.363357 -16.620058 0
M  V30 25 C 10.605906 -0.139963 -17.530823 0
M  V30 26 O 11.468139 0.865632 -17.046146 0
M  V30 27 H 4.496913 -0.407906 -15.159944 0
M  V30 28 H 5.120283 -2.059326 -15.053119 0
M  V30 29 H 5.144083 -1.216133 -16.595501 0
M  V30 30 H 6.203502 0.141573 -13.236892 0
M  V30 31 H 7.906349 -0.227510 -13.539863 0
M  V30 32 H 6.750213 -1.530506 -13.324435 0
M  V30 33 H 6.125504 1.005103 -16.647978 0
M  V30 34 H 5.881327 2.832113 -13.808475 0
M  V30 35 H 6.861447 5.264128 -12.355117 0
M  V30 36 H 9.253728 6.489552 -12.411747 0
M  V30 37 H 13.349479 7.305539 -15.037489 0
M  V30 38 H 13.766885 8.225707 -17.314848 0
M  V30 39 H 12.364406 7.493474 -19.232349 0
M  V30 40 H 10.517347 5.861912 -18.870758 0
M  V30 41 H 10.072133 4.972844 -16.620804 0
M  V30 42 H 10.619138 2.860454 -15.700322 0
M  V30 43 H 8.281399 1.230355 -17.623251 0
M  V30 44 H 9.681545 -0.631963 -15.606475 0
M  V30 45 H 8.887155 -1.234728 -17.046295 0
M  V30 46 H 11.177128 -1.062797 -17.625828 0
M  V30 47 H 10.285223 0.130959 -18.536806 0
M  V30 48 H 11.879105 0.571931 -16.247015 0
M  V30 49 H 7.263132 -1.258966 -15.576235 0
M  V30 END ATOM
M  V30 BEGIN BOND
M  V30 1 1 2 1
M  V30 2 1 3 2
M  V30 3 1 4 2
M  V30 4 1 5 4
M  V30 5 1 6 5
M  V30 6 2 7 6
M  V30 7 1 8 7
M  V30 8 2 9 8
M  V30 9 1 10 9
M  V30 10 1 11 10
M  V30 11 2 12 11
M  V30 12 2 13 11
M  V30 13 1 14 11
M  V30 14 2 15 14
M  V30 15 1 16 15
M  V30 16 2 17 16
M  V30 17 1 18 17
M  V30 18 1 19 14
M  V30 19 2 19 18
M  V30 20 1 20 7
M  V30 21 1 20 10
M  V30 22 2 21 20
M  V30 23 2 22 5
M  V30 24 1 22 21
M  V30 25 1 23 4
M  V30 26 1 23 22
M  V30 27 1 24 23
M  V30 28 1 25 24
M  V30 29 1 26 25
M  V30 30 1 27 1
M  V30 31 1 28 1
M  V30 32 1 29 1
M  V30 33 1 30 3
M  V30 34 1 31 3
M  V30 35 1 32 3
M  V30 36 1 4 33 CFG=3
M  V30 37 1 34 6
M  V30 38 1 35 8
M  V30 39 1 36 9
M  V30 40 1 37 15
M  V30 41 1 38 16
M  V30 42 1 39 17
M  V30 43 1 40 18
M  V30 44 1 41 19
M  V30 45 1 42 21
M  V30 46 1 23 43 CFG=3
M  V30 47 1 44 24
M  V30 48 1 45 24
M  V30 49 1 46 25
M  V30 50 1 47 25
M  V30 51 1 48 26
M  V30 52 1 49 2
M  V30 END BOND
M  V30 END CTAB
M  END
>  <b_m_subgroup_collapsed>  (2407) 
0

>  <r_i_docking_score>  (2407) 
-5.6925629551007004

>  <s_m_subgroup_title>  (2407) 
glide-dock_SP_D22_pv

>  <s_m_subgroupid>  (2407) 
glide-dock_SP_D22_pv

>  <Molecule ChEMBL ID>  (2407) 
CHEMBL3916787

>  <Standard Type>  (2407) 
Ki

>  <Standard Value>  (2407) 
10000.0

>  <label>  (2407) 
0

$$$$
CHEMBL516580
     RDKit          3D

  0  0  0  0  0  0  0  0  0  0999 V3000
M  V30 BEGIN CTAB
M  V30 COUNTS 63 66 0 0 1
M  V30 BEGIN ATOM
M  V30 1 C 10.946357 9.591736 -4.932078 0
M  V30 2 C 10.853683 9.123309 -6.388872 0
M  V30 3 C 9.648788 8.198784 -6.642416 0
M  V30 4 C 9.410642 7.888247 -8.128507 0
M  V30 5 C 10.543276 7.095125 -8.801574 0
M  V30 6 C 10.327966 6.909406 -10.314432 0
M  V30 7 C 9.286200 5.861656 -10.713674 0
M  V30 8 O 8.902766 4.976227 -9.946152 0
M  V30 9 O 8.937527 6.007336 -12.008084 0
M  V30 10 C 8.109226 5.107007 -12.625508 0
M  V30 11 C 6.758589 5.083296 -12.219063 0
M  V30 12 C 5.851893 4.177079 -12.780785 0
M  V30 13 C 6.291886 3.301136 -13.778113 0
M  V30 14 C 7.621902 3.354433 -14.236677 0
M  V30 15 C 8.562203 4.264515 -13.687503 0
M  V30 16 C 9.932561 4.287457 -14.286074 0
M  V30 17 C 10.838986 5.371540 -14.149481 0
M  V30 18 C 12.093328 5.427237 -14.779420 0
M  V30 19 C 12.499163 4.390033 -15.621037 0
M  V30 20 C 11.665598 3.278300 -15.806091 0
M  V30 21 C 10.417147 3.235923 -15.121037 0
M  V30 22 C 9.506946 1.992815 -15.229986 0 CFG=1
M  V30 23 C 8.032013 2.401562 -15.332628 0
M  V30 24 N 9.853861 1.048938 -16.327900 0 CFG=2 CHG=1
M  V30 25 C 9.092982 -0.227521 -16.304295 0
M  V30 26 C 8.085136 -0.289201 -17.464714 0
M  V30 27 C 8.732838 -0.661863 -18.807240 0
M  V30 28 C 11.301900 0.829845 -16.410740 0
M  V30 29 C 11.967867 2.144825 -16.769093 0
M  V30 30 H 11.855002 10.169037 -4.771461 0
M  V30 31 H 10.974536 8.745069 -4.246208 0
M  V30 32 H 10.095264 10.217303 -4.662600 0
M  V30 33 H 10.800218 9.991450 -7.045323 0
M  V30 34 H 11.778016 8.605517 -6.643629 0
M  V30 35 H 9.771656 7.268397 -6.084232 0
M  V30 36 H 8.746450 8.669517 -6.250802 0
M  V30 37 H 8.483975 7.320055 -8.217928 0
M  V30 38 H 9.239917 8.821193 -8.665312 0
M  V30 39 H 11.485530 7.625392 -8.673166 0
M  V30 40 H 10.673874 6.130600 -8.309151 0
M  V30 41 H 10.061724 7.861925 -10.773847 0
M  V30 42 H 11.268736 6.603908 -10.770996 0
M  V30 43 H 6.417517 5.756056 -11.444790 0
M  V30 44 H 4.829895 4.148084 -12.439878 0
M  V30 45 H 5.596823 2.592494 -14.205435 0
M  V30 46 H 10.586533 6.241320 -13.572393 0
M  V30 47 H 12.732914 6.286634 -14.638499 0
M  V30 48 H 13.448458 4.449185 -16.134426 0
M  V30 49 H 9.645850 1.457428 -14.289361 0
M  V30 50 H 7.370684 1.536950 -15.294406 0
M  V30 51 H 7.860832 2.879948 -16.296078 0
M  V30 52 H 9.763226 -1.086088 -16.361694 0
M  V30 53 H 8.571392 -0.347448 -15.353573 0
M  V30 54 H 7.321222 -1.033408 -17.227631 0
M  V30 55 H 7.545868 0.654512 -17.564850 0
M  V30 56 H 7.981375 -0.708268 -19.595715 0
M  V30 57 H 9.215481 -1.638267 -18.752665 0
M  V30 58 H 9.486526 0.069910 -19.111214 0
M  V30 59 H 11.666297 0.448834 -15.457149 0
M  V30 60 H 11.537925 0.090545 -17.178846 0
M  V30 61 H 11.659526 2.459656 -17.767376 0
M  V30 62 H 13.047252 2.005553 -16.819706 0
M  V30 63 H 9.600786 1.510458 -17.190710 0
M  V30 END ATOM
M  V30 BEGIN BOND
M  V30 1 1 2 1
M  V30 2 1 3 2
M  V30 3 1 4 3
M  V30 4 1 5 4
M  V30 5 1 6 5
M  V30 6 1 7 6
M  V30 7 2 8 7
M  V30 8 1 9 7
M  V30 9 1 10 9
M  V30 10 2 11 10
M  V30 11 1 12 11
M  V30 12 2 13 12
M  V30 13 1 14 13
M  V30 14 1 15 10
M  V30 15 2 15 14
M  V30 16 1 16 15
M  V30 17 2 17 16
M  V30 18 1 18 17
M  V30 19 2 19 18
M  V30 20 1 20 19
M  V30 21 1 21 16
M  V30 22 2 21 20
M  V30 23 1 22 21
M  V30 24 1 23 14
M  V30 25 1 23 22
M  V30 26 1 24 22
M  V30 27 1 25 24
M  V30 28 1 26 25
M  V30 29 1 27 26
M  V30 30 1 28 24
M  V30 31 1 29 20
M  V30 32 1 29 28
M  V30 33 1 30 1
M  V30 34 1 31 1
M  V30 35 1 32 1
M  V30 36 1 33 2
M  V30 37 1 34 2
M  V30 38 1 35 3
M  V30 39 1 36 3
M  V30 40 1 37 4
M  V30 41 1 38 4
M  V30 42 1 39 5
M  V30 43 1 40 5
M  V30 44 1 41 6
M  V30 45 1 42 6
M  V30 46 1 43 11
M  V30 47 1 44 12
M  V30 48 1 45 13
M  V30 49 1 46 17
M  V30 50 1 47 18
M  V30 51 1 48 19
M  V30 52 1 22 49 CFG=1
M  V30 53 1 50 23
M  V30 54 1 51 23
M  V30 55 1 52 25
M  V30 56 1 53 25
M  V30 57 1 54 26
M  V30 58 1 55 26
M  V30 59 1 56 27
M  V30 60 1 57 27
M  V30 61 1 58 27
M  V30 62 1 59 28
M  V30 63 1 60 28
M  V30 64 1 61 29
M  V30 65 1 62 29
M  V30 66 1 24 63 CFG=3
M  V30 END BOND
M  V30 END CTAB
M  END
>  <b_m_subgroup_collapsed>  (2408) 
0

>  <r_i_docking_score>  (2408) 
-5.6924610603694896

>  <s_m_subgroup_title>  (2408) 
glide-dock_SP_D22_pv

>  <s_m_subgroupid>  (2408) 
glide-dock_SP_D22_pv

>  <Molecule ChEMBL ID>  (2408) 
CHEMBL516580

>  <Standard Type>  (2408) 
Ki

>  <Standard Value>  (2408) 
10000.0

>  <label>  (2408) 
0

$$$$
CHEMBL1200517
     RDKit          3D

  0  0  0  0  0  0  0  0  0  0999 V3000
M  V30 BEGIN CTAB
M  V30 COUNTS 81 88 0 0 1
M  V30 BEGIN ATOM
M  V30 1 C 13.447906 6.912848 -15.942217 0
M  V30 2 N 12.737241 5.696548 -15.483211 0 CFG=2 CHG=1
M  V30 3 C 12.308356 4.872659 -16.648479 0
M  V30 4 C 11.715862 3.524517 -16.207132 0 CFG=2
M  V30 5 C 11.236102 2.688726 -17.402641 0
M  V30 6 O 10.161885 2.972791 -17.928064 0
M  V30 7 N 11.991914 1.637141 -17.771837 0
M  V30 8 C 11.558888 0.564208 -18.658035 0 CFG=2
M  V30 9 C 12.698538 -0.460555 -18.790289 0
M  V30 10 O 11.290421 1.025526 -19.956947 0
M  V30 11 C 9.948009 0.787943 -20.297655 0 CFG=1
M  V30 12 O 9.237172 2.000042 -20.425539 0
M  V30 13 C 9.870296 -0.065546 -21.580290 0 CFG=2
M  V30 14 C 10.128500 0.672399 -22.893963 0
M  V30 15 C 9.508450 -0.279538 -23.914896 0
M  V30 16 C 8.334516 -0.948615 -23.179512 0
M  V30 17 N 8.586718 -0.743147 -21.755335 0
M  V30 18 C 7.698748 -1.000558 -20.767050 0
M  V30 19 O 6.624165 -1.558868 -20.979723 0
M  V30 20 C 8.062612 -0.568268 -19.327204 0 CFG=2
M  V30 21 C 7.066758 0.407189 -18.654810 0
M  V30 22 C 5.934546 -0.244980 -17.889139 0
M  V30 23 C 4.731032 -0.576766 -18.542023 0
M  V30 24 C 3.685760 -1.180287 -17.819065 0
M  V30 25 C 3.828556 -1.427980 -16.441038 0
M  V30 26 C 5.030756 -1.102750 -15.788218 0
M  V30 27 C 6.084757 -0.517058 -16.513727 0
M  V30 28 N 9.416980 -0.021570 -19.238083 0
M  V30 29 C 10.276361 -0.152895 -18.239029 0
M  V30 30 O 10.115650 -0.747285 -17.172405 0
M  V30 31 C 10.529706 3.778184 -15.260486 0
M  V30 32 C 10.936134 4.655838 -14.072124 0 CFG=2
M  V30 33 C 9.768178 4.904990 -13.126265 0
M  V30 34 C 8.573388 4.172483 -12.981134 0
M  V30 35 C 7.682384 4.517607 -11.951694 0
M  V30 36 C 8.018014 5.547089 -11.059176 0
M  V30 37 C 9.164079 6.296654 -11.236013 0
M  V30 38 N 9.671865 7.352249 -10.535242 0
M  V30 39 C 10.861223 7.778804 -11.099701 0
M  V30 40 C 11.041429 6.972065 -12.195200 0
M  V30 41 C 10.022339 5.999136 -12.277187 0
M  V30 42 C 12.071373 6.791931 -13.277633 0
M  V30 43 C 11.617685 5.974955 -14.528023 0 CFG=1
M  V30 44 H 12.755870 7.640713 -16.368244 0
M  V30 45 H 13.977534 7.372044 -15.114521 0
M  V30 46 H 14.198451 6.676366 -16.697865 0
M  V30 47 H 13.170249 4.687315 -17.294008 0
M  V30 48 H 11.584491 5.433422 -17.244125 0
M  V30 49 H 12.480599 2.960078 -15.671890 0
M  V30 50 H 12.940334 1.570468 -17.431370 0
M  V30 51 H 12.886187 -0.962576 -17.846710 0
M  V30 52 H 12.441217 -1.215540 -19.532400 0
M  V30 53 H 13.612566 0.036461 -19.116392 0
M  V30 54 H 9.776255 2.597280 -20.921907 0
M  V30 55 H 10.610904 -0.862566 -21.481386 0
M  V30 56 H 11.186136 0.861981 -23.073231 0
M  V30 57 H 9.600206 1.624403 -22.931675 0
M  V30 58 H 10.239409 -1.037622 -24.197500 0
M  V30 59 H 9.193428 0.234399 -24.822340 0
M  V30 60 H 8.256722 -2.009554 -23.419800 0
M  V30 61 H 7.391912 -0.471145 -23.451044 0
M  V30 62 H 8.067463 -1.491814 -18.744978 0
M  V30 63 H 7.589510 1.059420 -17.954046 0
M  V30 64 H 6.645884 1.081721 -19.400221 0
M  V30 65 H 4.608202 -0.379208 -19.596527 0
M  V30 66 H 2.770025 -1.445490 -18.322603 0
M  V30 67 H 3.022768 -1.894327 -15.891907 0
M  V30 68 H 5.151216 -1.315466 -14.736526 0
M  V30 69 H 7.012362 -0.283449 -16.009531 0
M  V30 70 H 9.706137 4.264133 -15.786997 0
M  V30 71 H 10.148232 2.820263 -14.904346 0
M  V30 72 H 11.665399 4.089732 -13.489698 0
M  V30 73 H 8.342241 3.337613 -13.624039 0
M  V30 74 H 6.765248 3.963767 -11.809897 0
M  V30 75 H 7.341981 5.772445 -10.248013 0
M  V30 76 H 9.201468 7.779564 -9.747438 0
M  V30 77 H 11.442180 8.598638 -10.700819 0
M  V30 78 H 12.452478 7.770780 -13.563047 0
M  V30 79 H 12.886171 6.253275 -12.817088 0
M  V30 80 H 10.888194 6.569048 -15.074211 0
M  V30 81 H 13.417265 5.151295 -14.972154 0
M  V30 END ATOM
M  V30 BEGIN BOND
M  V30 1 1 2 1
M  V30 2 1 3 2
M  V30 3 1 4 3
M  V30 4 1 5 4
M  V30 5 2 6 5
M  V30 6 1 7 5
M  V30 7 1 8 7 CFG=1
M  V30 8 1 9 8
M  V30 9 1 10 8
M  V30 10 1 11 10
M  V30 11 1 11 12 CFG=3
M  V30 12 1 13 11
M  V30 13 1 14 13
M  V30 14 1 15 14
M  V30 15 1 16 15
M  V30 16 1 17 13
M  V30 17 1 17 16
M  V30 18 1 18 17
M  V30 19 2 19 18
M  V30 20 1 20 18
M  V30 21 1 21 20
M  V30 22 1 22 21
M  V30 23 2 23 22
M  V30 24 1 24 23
M  V30 25 2 25 24
M  V30 26 1 26 25
M  V30 27 1 27 22
M  V30 28 2 27 26
M  V30 29 1 28 11
M  V30 30 1 28 20
M  V30 31 1 29 8
M  V30 32 1 29 28
M  V30 33 2 30 29
M  V30 34 1 31 4
M  V30 35 1 32 31
M  V30 36 1 33 32
M  V30 37 1 34 33
M  V30 38 2 35 34
M  V30 39 1 36 35
M  V30 40 2 37 36
M  V30 41 1 38 37
M  V30 42 1 39 38
M  V30 43 2 40 39
M  V30 44 2 41 33
M  V30 45 1 41 37
M  V30 46 1 41 40
M  V30 47 1 42 40
M  V30 48 1 43 2
M  V30 49 1 43 32
M  V30 50 1 43 42
M  V30 51 1 44 1
M  V30 52 1 45 1
M  V30 53 1 46 1
M  V30 54 1 47 3
M  V30 55 1 48 3
M  V30 56 1 4 49 CFG=1
M  V30 57 1 50 7
M  V30 58 1 51 9
M  V30 59 1 52 9
M  V30 60 1 53 9
M  V30 61 1 54 12
M  V30 62 1 13 55 CFG=1
M  V30 63 1 56 14
M  V30 64 1 57 14
M  V30 65 1 58 15
M  V30 66 1 59 15
M  V30 67 1 60 16
M  V30 68 1 61 16
M  V30 69 1 20 62 CFG=1
M  V30 70 1 63 21
M  V30 71 1 64 21
M  V30 72 1 65 23
M  V30 73 1 66 24
M  V30 74 1 67 25
M  V30 75 1 68 26
M  V30 76 1 69 27
M  V30 77 1 70 31
M  V30 78 1 71 31
M  V30 79 1 32 72 CFG=1
M  V30 80 1 73 34
M  V30 81 1 74 35
M  V30 82 1 75 36
M  V30 83 1 76 38
M  V30 84 1 77 39
M  V30 85 1 78 42
M  V30 86 1 79 42
M  V30 87 1 43 80 CFG=3
M  V30 88 1 2 81 CFG=1
M  V30 END BOND
M  V30 END CTAB
M  END
>  <b_m_subgroup_collapsed>  (2409) 
0

>  <r_i_docking_score>  (2409) 
-5.6922167830058603

>  <s_m_subgroup_title>  (2409) 
glide-dock_SP_D22_pv

>  <s_m_subgroupid>  (2409) 
glide-dock_SP_D22_pv

>  <Molecule ChEMBL ID>  (2409) 
CHEMBL1200517

>  <Standard Type>  (2409) 
Ki

>  <Standard Value>  (2409) 
60.92

>  <label>  (2409) 
1

$$$$
CHEMBL1794855
     RDKit          3D

  0  0  0  0  0  0  0  0  0  0999 V3000
M  V30 BEGIN CTAB
M  V30 COUNTS 33 34 0 0 1
M  V30 BEGIN ATOM
M  V30 1 C 8.486023 4.551867 -9.033400 0
M  V30 2 C 9.495317 5.361142 -9.840877 0
M  V30 3 N 8.888918 6.597228 -10.410334 0 CFG=2 CHG=1
M  V30 4 C 8.302816 6.382724 -11.755356 0
M  V30 5 C 9.778085 7.799071 -10.329565 0 CFG=2
M  V30 6 C 11.020081 7.669121 -11.249688 0
M  V30 7 C 12.198088 8.572327 -10.843404 0
M  V30 8 C 12.622748 8.325012 -9.397819 0
M  V30 9 C 11.456154 8.401295 -8.446754 0
M  V30 10 C 11.685878 8.752492 -7.103553 0
M  V30 11 C 10.586820 8.817220 -6.233863 0
M  V30 12 N 9.325542 8.572325 -6.632216 0
M  V30 13 C 9.110597 8.265540 -7.919420 0
M  V30 14 C 10.131574 8.151567 -8.880006 0
M  V30 15 H 8.965269 3.694384 -8.561678 0
M  V30 16 H 8.038991 5.154645 -8.242145 0
M  V30 17 H 7.691412 4.172327 -9.676023 0
M  V30 18 H 9.919605 4.744974 -10.634686 0
M  V30 19 H 10.327566 5.597916 -9.177808 0
M  V30 20 H 9.053286 6.063781 -12.479155 0
M  V30 21 H 7.527511 5.617196 -11.710512 0
M  V30 22 H 7.835980 7.295862 -12.127039 0
M  V30 23 H 9.196563 8.651917 -10.684945 0
M  V30 24 H 10.737246 7.842357 -12.287576 0
M  V30 25 H 11.377772 6.645003 -11.228755 0
M  V30 26 H 11.909563 9.616325 -10.921536 0
M  V30 27 H 13.044534 8.430063 -11.516003 0
M  V30 28 H 13.414986 8.972325 -9.048213 0
M  V30 29 H 13.096855 7.372324 -9.321402 0
M  V30 30 H 12.679999 8.974270 -6.744930 0
M  V30 31 H 10.722107 9.078674 -5.194728 0
M  V30 32 H 8.086023 8.094180 -8.189171 0
M  V30 33 H 8.073357 6.833642 -9.846869 0
M  V30 END ATOM
M  V30 BEGIN BOND
M  V30 1 1 2 1
M  V30 2 1 3 2
M  V30 3 1 4 3
M  V30 4 1 5 3
M  V30 5 1 6 5
M  V30 6 1 7 6
M  V30 7 1 8 7
M  V30 8 1 9 8
M  V30 9 1 10 9
M  V30 10 2 11 10
M  V30 11 1 12 11
M  V30 12 2 13 12
M  V30 13 1 14 5
M  V30 14 2 14 9
M  V30 15 1 14 13
M  V30 16 1 15 1
M  V30 17 1 16 1
M  V30 18 1 17 1
M  V30 19 1 18 2
M  V30 20 1 19 2
M  V30 21 1 20 4
M  V30 22 1 21 4
M  V30 23 1 22 4
M  V30 24 1 5 23 CFG=3
M  V30 25 1 24 6
M  V30 26 1 25 6
M  V30 27 1 26 7
M  V30 28 1 27 7
M  V30 29 1 28 8
M  V30 30 1 29 8
M  V30 31 1 30 10
M  V30 32 1 31 11
M  V30 33 1 32 13
M  V30 34 1 3 33 CFG=1
M  V30 END BOND
M  V30 END CTAB
M  END
>  <b_m_subgroup_collapsed>  (2410) 
0

>  <r_i_docking_score>  (2410) 
-5.6893597820776396

>  <s_m_subgroup_title>  (2410) 
glide-dock_SP_D22_pv

>  <s_m_subgroupid>  (2410) 
glide-dock_SP_D22_pv

>  <Molecule ChEMBL ID>  (2410) 
CHEMBL1794855

>  <Standard Type>  (2410) 
Ki

>  <Standard Value>  (2410) 
10000.0

>  <label>  (2410) 
0

$$$$
CHEMBL201598
     RDKit          3D

  0  0  0  0  0  0  0  0  0  0999 V3000
M  V30 BEGIN CTAB
M  V30 COUNTS 47 50 0 0 1
M  V30 BEGIN ATOM
M  V30 1 O 7.815660 2.103106 -18.244438 0
M  V30 2 C 7.936005 1.709893 -17.081703 0
M  V30 3 C 7.393427 0.314797 -16.744129 0
M  V30 4 C 7.047078 0.122886 -15.267838 0
M  V30 5 C 8.167558 0.658056 -14.372410 0
M  V30 6 C 8.566273 2.124255 -14.679179 0 CFG=2
M  V30 7 C 7.807945 3.174869 -13.846977 0
M  V30 8 C 6.396512 3.210380 -13.791574 0
M  V30 9 C 5.723972 4.180418 -13.024152 0
M  V30 10 C 6.455599 5.136947 -12.298783 0
M  V30 11 C 7.860230 5.113675 -12.336747 0
M  V30 12 C 8.529018 4.138832 -13.101676 0
M  V30 13 N 8.588221 2.426365 -16.129372 0
M  V30 14 C 9.352081 3.627583 -16.502525 0
M  V30 15 C 10.801845 3.298767 -16.901503 0
M  V30 16 C 11.579662 4.570329 -17.172823 0
M  V30 17 C 11.975141 5.062521 -18.358162 0
M  V30 18 C 12.611716 6.436389 -18.240486 0
M  V30 19 C 12.494723 6.649984 -16.749443 0
M  V30 20 C 12.886297 7.772040 -16.001682 0
M  V30 21 C 12.681736 7.744168 -14.603923 0
M  V30 22 C 12.103083 6.612936 -13.980262 0
M  V30 23 C 11.728487 5.488958 -14.746720 0
M  V30 24 C 11.912051 5.541067 -16.138685 0
M  V30 25 H 6.519269 0.103628 -17.362036 0
M  V30 26 H 8.155099 -0.410096 -17.033104 0
M  V30 27 H 6.092015 0.590832 -15.049080 0
M  V30 28 H 6.888176 -0.938094 -15.066208 0
M  V30 29 H 7.912436 0.518991 -13.326530 0
M  V30 30 H 9.042791 0.028915 -14.543354 0
M  V30 31 H 9.604445 2.198583 -14.350571 0
M  V30 32 H 5.794930 2.481038 -14.295746 0
M  V30 33 H 4.645098 4.174265 -12.984290 0
M  V30 34 H 5.947991 5.879569 -11.698989 0
M  V30 35 H 8.421471 5.837857 -11.765749 0
M  V30 36 H 9.606420 4.123243 -13.092493 0
M  V30 37 H 9.344736 4.345968 -15.686236 0
M  V30 38 H 8.883845 4.158626 -17.331444 0
M  V30 39 H 10.807864 2.677073 -17.797834 0
M  V30 40 H 11.308619 2.734771 -16.117540 0
M  V30 41 H 11.826100 4.580044 -19.312822 0
M  V30 42 H 13.651450 6.427207 -18.567539 0
M  V30 43 H 12.048838 7.187973 -18.794909 0
M  V30 44 H 13.330548 8.632114 -16.481188 0
M  V30 45 H 12.980300 8.588800 -14.002590 0
M  V30 46 H 11.965467 6.602101 -12.909378 0
M  V30 47 H 11.311287 4.613022 -14.279119 0
M  V30 END ATOM
M  V30 BEGIN BOND
M  V30 1 2 2 1
M  V30 2 1 3 2
M  V30 3 1 4 3
M  V30 4 1 5 4
M  V30 5 1 6 5
M  V30 6 1 7 6
M  V30 7 2 8 7
M  V30 8 1 9 8
M  V30 9 2 10 9
M  V30 10 1 11 10
M  V30 11 1 12 7
M  V30 12 2 12 11
M  V30 13 1 13 2
M  V30 14 1 13 6
M  V30 15 1 14 13
M  V30 16 1 15 14
M  V30 17 1 16 15
M  V30 18 2 17 16
M  V30 19 1 18 17
M  V30 20 1 19 18
M  V30 21 2 20 19
M  V30 22 1 21 20
M  V30 23 2 22 21
M  V30 24 1 23 22
M  V30 25 1 24 16
M  V30 26 1 24 19
M  V30 27 2 24 23
M  V30 28 1 25 3
M  V30 29 1 26 3
M  V30 30 1 27 4
M  V30 31 1 28 4
M  V30 32 1 29 5
M  V30 33 1 30 5
M  V30 34 1 6 31 CFG=1
M  V30 35 1 32 8
M  V30 36 1 33 9
M  V30 37 1 34 10
M  V30 38 1 35 11
M  V30 39 1 36 12
M  V30 40 1 37 14
M  V30 41 1 38 14
M  V30 42 1 39 15
M  V30 43 1 40 15
M  V30 44 1 41 17
M  V30 45 1 42 18
M  V30 46 1 43 18
M  V30 47 1 44 20
M  V30 48 1 45 21
M  V30 49 1 46 22
M  V30 50 1 47 23
M  V30 END BOND
M  V30 END CTAB
M  END
>  <b_m_subgroup_collapsed>  (2411) 
0

>  <r_i_docking_score>  (2411) 
-5.6881038683803196

>  <s_m_subgroup_title>  (2411) 
glide-dock_SP_D22_pv

>  <s_m_subgroupid>  (2411) 
glide-dock_SP_D22_pv

>  <Molecule ChEMBL ID>  (2411) 
CHEMBL201598

>  <Standard Type>  (2411) 
Ki

>  <Standard Value>  (2411) 
10000.0

>  <label>  (2411) 
0

$$$$
CHEMBL4636778
     RDKit          3D

  0  0  0  0  0  0  0  0  0  0999 V3000
M  V30 BEGIN CTAB
M  V30 COUNTS 63 65 0 0 1
M  V30 BEGIN ATOM
M  V30 1 C 10.129683 6.709392 -6.786432 0
M  V30 2 C 9.081780 6.686976 -7.910209 0 CFG=2
M  V30 3 O 8.086022 5.772325 -7.535939 0
M  V30 4 C 9.639833 6.256330 -9.285594 0
M  V30 5 N 9.161563 7.132975 -10.402853 0 CFG=2 CHG=1
M  V30 6 C 8.813882 6.440081 -11.678999 0 CFG=2
M  V30 7 C 7.716151 5.369006 -11.533201 0
M  V30 8 C 10.082602 5.894122 -12.362334 0
M  V30 9 N 11.049292 6.972264 -12.632971 0
M  V30 10 C 12.333202 6.509202 -13.172292 0
M  V30 11 C 12.304551 5.471756 -14.309690 0
M  V30 12 S 11.676098 6.172361 -15.854795 0
M  V30 13 C 11.610190 4.730848 -16.968655 0
M  V30 14 C 11.000544 5.154886 -18.300034 0
M  V30 15 C 11.754012 5.045048 -19.489164 0
M  V30 16 C 11.199730 5.443618 -20.721914 0
M  V30 17 C 9.888919 5.954608 -20.775360 0
M  V30 18 F 9.357299 6.335656 -21.960747 0
M  V30 19 C 9.131486 6.068655 -19.594913 0
M  V30 20 C 9.685997 5.671607 -18.363335 0
M  V30 21 C 10.884852 3.539643 -16.343922 0
M  V30 22 C 11.422610 2.243956 -16.502754 0
M  V30 23 C 10.778296 1.129111 -15.932985 0
M  V30 24 C 9.591964 1.298897 -15.196298 0
M  V30 25 F 8.976667 0.226277 -14.646989 0
M  V30 26 C 9.045480 2.585517 -15.034831 0
M  V30 27 C 9.685968 3.699952 -15.611073 0
M  V30 28 C 11.364357 7.708391 -11.401823 0
M  V30 29 C 10.085151 8.259264 -10.733387 0 CFG=2
M  V30 30 C 10.425518 9.156328 -9.531970 0
M  V30 31 H 10.864805 7.498631 -6.929530 0
M  V30 32 H 9.660638 6.882074 -5.817135 0
M  V30 33 H 10.676702 5.772339 -6.727903 0
M  V30 34 H 8.609090 7.668040 -7.962743 0
M  V30 35 H 7.250637 6.244770 -7.594756 0
M  V30 36 H 10.725840 6.247471 -9.236974 0
M  V30 37 H 9.394608 5.210489 -9.461645 0
M  V30 38 H 8.384189 7.196213 -12.339350 0
M  V30 39 H 7.403243 5.011692 -12.514523 0
M  V30 40 H 8.038546 4.493934 -10.971065 0
M  V30 41 H 6.828998 5.772174 -11.046905 0
M  V30 42 H 9.791116 5.444420 -13.310386 0
M  V30 43 H 10.486025 5.090040 -11.755373 0
M  V30 44 H 12.912365 7.376052 -13.493990 0
M  V30 45 H 12.886036 6.072428 -12.352574 0
M  V30 46 H 13.318177 5.123598 -14.504586 0
M  V30 47 H 11.743200 4.587882 -14.014141 0
M  V30 48 H 12.647597 4.438321 -17.137667 0
M  V30 49 H 12.761667 4.657091 -19.463009 0
M  V30 50 H 11.780372 5.358722 -21.628716 0
M  V30 51 H 8.125237 6.459861 -19.634212 0
M  V30 52 H 9.094114 5.772379 -17.466808 0
M  V30 53 H 12.336663 2.097472 -17.060085 0
M  V30 54 H 11.199031 0.142730 -16.055683 0
M  V30 55 H 8.134610 2.715153 -14.469183 0
M  V30 56 H 9.254853 4.680434 -15.476727 0
M  V30 57 H 12.053735 8.526003 -11.615859 0
M  V30 58 H 11.913622 7.067522 -10.713901 0
M  V30 59 H 9.573504 8.900601 -11.453766 0
M  V30 60 H 11.003086 10.025188 -9.846789 0
M  V30 61 H 9.523884 9.519423 -9.039845 0
M  V30 62 H 11.040568 8.640682 -8.799008 0
M  V30 63 H 8.270091 7.525059 -10.102853 0
M  V30 END ATOM
M  V30 BEGIN BOND
M  V30 1 1 2 1
M  V30 2 1 3 2
M  V30 3 1 4 2
M  V30 4 1 5 4
M  V30 5 1 6 5
M  V30 6 1 7 6
M  V30 7 1 8 6
M  V30 8 1 9 8
M  V30 9 1 10 9
M  V30 10 1 11 10
M  V30 11 1 12 11
M  V30 12 1 13 12
M  V30 13 1 14 13
M  V30 14 1 15 14
M  V30 15 2 16 15
M  V30 16 1 17 16
M  V30 17 1 18 17
M  V30 18 2 19 17
M  V30 19 2 20 14
M  V30 20 1 20 19
M  V30 21 1 21 13
M  V30 22 1 22 21
M  V30 23 2 23 22
M  V30 24 1 24 23
M  V30 25 1 25 24
M  V30 26 2 26 24
M  V30 27 2 27 21
M  V30 28 1 27 26
M  V30 29 1 28 9
M  V30 30 1 29 5
M  V30 31 1 29 28
M  V30 32 1 30 29
M  V30 33 1 31 1
M  V30 34 1 32 1
M  V30 35 1 33 1
M  V30 36 1 2 34 CFG=3
M  V30 37 1 35 3
M  V30 38 1 36 4
M  V30 39 1 37 4
M  V30 40 1 6 38 CFG=3
M  V30 41 1 39 7
M  V30 42 1 40 7
M  V30 43 1 41 7
M  V30 44 1 42 8
M  V30 45 1 43 8
M  V30 46 1 44 10
M  V30 47 1 45 10
M  V30 48 1 46 11
M  V30 49 1 47 11
M  V30 50 1 48 13
M  V30 51 1 49 15
M  V30 52 1 50 16
M  V30 53 1 51 19
M  V30 54 1 52 20
M  V30 55 1 53 22
M  V30 56 1 54 23
M  V30 57 1 55 26
M  V30 58 1 56 27
M  V30 59 1 57 28
M  V30 60 1 58 28
M  V30 61 1 29 59 CFG=3
M  V30 62 1 60 30
M  V30 63 1 61 30
M  V30 64 1 62 30
M  V30 65 1 5 63 CFG=1
M  V30 END BOND
M  V30 END CTAB
M  END
>  <b_m_subgroup_collapsed>  (2412) 
0

>  <r_i_docking_score>  (2412) 
-5.6833811605281204

>  <s_m_subgroup_title>  (2412) 
glide-dock_SP_D22_pv

>  <s_m_subgroupid>  (2412) 
glide-dock_SP_D22_pv

>  <Molecule ChEMBL ID>  (2412) 
CHEMBL4636778

>  <Standard Type>  (2412) 
Ki

>  <Standard Value>  (2412) 
11900.0

>  <label>  (2412) 
0

$$$$
CHEMBL10270
     RDKit          3D

  0  0  0  0  0  0  0  0  0  0999 V3000
M  V30 BEGIN CTAB
M  V30 COUNTS 40 42 0 0 1
M  V30 BEGIN ATOM
M  V30 1 C 11.463519 8.979178 -5.309108 0
M  V30 2 C 10.640386 9.308711 -6.316625 0
M  V30 3 C 9.909976 8.303163 -7.193249 0
M  V30 4 N 10.126475 8.571940 -8.640945 0 CFG=1 CHG=1
M  V30 5 C 11.536913 8.718037 -9.066545 0
M  V30 6 C 11.719941 7.919161 -10.352081 0
M  V30 7 C 10.305080 7.706325 -10.890225 0 CFG=1
M  V30 8 C 10.124944 6.510871 -11.836500 0
M  V30 9 C 9.180384 5.495973 -11.537952 0
M  V30 10 C 8.913407 4.484428 -12.474881 0
M  V30 11 C 9.640530 4.407365 -13.671417 0
M  V30 12 C 10.642265 5.354070 -13.936580 0
M  V30 13 C 10.890171 6.414499 -13.030589 0
M  V30 14 O 11.854259 7.373840 -13.259350 0
M  V30 15 C 12.588942 7.332308 -14.474749 0
M  V30 16 C 8.442672 5.445735 -10.213421 0
M  V30 17 C 9.129957 6.267344 -9.122191 0
M  V30 18 C 9.436875 7.691420 -9.618319 0 CFG=1
M  V30 19 H 11.656606 7.947740 -5.050448 0
M  V30 20 H 11.958044 9.742067 -4.725035 0
M  V30 21 H 10.486429 10.355548 -6.530026 0
M  V30 22 H 10.248383 7.299461 -6.931619 0
M  V30 23 H 8.841959 8.357657 -6.972799 0
M  V30 24 H 11.688430 9.772015 -9.273496 0
M  V30 25 H 12.257565 8.407605 -8.308316 0
M  V30 26 H 12.380666 8.425790 -11.055995 0
M  V30 27 H 12.180367 6.971306 -10.104543 0
M  V30 28 H 10.035570 8.595510 -11.462455 0
M  V30 29 H 8.142240 3.763351 -12.262556 0
M  V30 30 H 9.441043 3.614661 -14.377275 0
M  V30 31 H 11.195659 5.251784 -14.857020 0
M  V30 32 H 13.266580 8.185321 -14.509130 0
M  V30 33 H 11.933071 7.401427 -15.343733 0
M  V30 34 H 13.193439 6.427136 -14.547472 0
M  V30 35 H 7.416426 5.774662 -10.371830 0
M  V30 36 H 8.370291 4.410240 -9.880844 0
M  V30 37 H 8.485611 6.278426 -8.242580 0
M  V30 38 H 10.059055 5.772372 -8.834477 0
M  V30 39 H 8.495112 8.175469 -9.851009 0
M  V30 40 H 9.717455 9.479951 -8.804670 0
M  V30 END ATOM
M  V30 BEGIN BOND
M  V30 1 2 2 1
M  V30 2 1 3 2
M  V30 3 1 4 3
M  V30 4 1 5 4
M  V30 5 1 6 5
M  V30 6 1 7 6
M  V30 7 1 8 7
M  V30 8 2 9 8
M  V30 9 1 10 9
M  V30 10 2 11 10
M  V30 11 1 12 11
M  V30 12 1 13 8
M  V30 13 2 13 12
M  V30 14 1 14 13
M  V30 15 1 15 14
M  V30 16 1 16 9
M  V30 17 1 17 16
M  V30 18 1 18 4
M  V30 19 1 18 7
M  V30 20 1 18 17
M  V30 21 1 19 1
M  V30 22 1 20 1
M  V30 23 1 21 2
M  V30 24 1 22 3
M  V30 25 1 23 3
M  V30 26 1 24 5
M  V30 27 1 25 5
M  V30 28 1 26 6
M  V30 29 1 27 6
M  V30 30 1 7 28 CFG=3
M  V30 31 1 29 10
M  V30 32 1 30 11
M  V30 33 1 31 12
M  V30 34 1 32 15
M  V30 35 1 33 15
M  V30 36 1 34 15
M  V30 37 1 35 16
M  V30 38 1 36 16
M  V30 39 1 37 17
M  V30 40 1 38 17
M  V30 41 1 18 39 CFG=3
M  V30 42 1 4 40 CFG=3
M  V30 END BOND
M  V30 END CTAB
M  END
>  <b_m_subgroup_collapsed>  (2413) 
0

>  <r_i_docking_score>  (2413) 
-5.6788230953575303

>  <s_m_subgroup_title>  (2413) 
glide-dock_SP_D22_pv

>  <s_m_subgroupid>  (2413) 
glide-dock_SP_D22_pv

>  <Molecule ChEMBL ID>  (2413) 
CHEMBL10270

>  <Standard Type>  (2413) 
Ki

>  <Standard Value>  (2413) 
6.7

>  <label>  (2413) 
1

$$$$
CHEMBL201393
     RDKit          3D

  0  0  0  0  0  0  0  0  0  0999 V3000
M  V30 BEGIN CTAB
M  V30 COUNTS 43 47 0 0 1
M  V30 BEGIN ATOM
M  V30 1 C 9.016273 4.110219 -19.274994 0
M  V30 2 C 9.356207 2.795106 -18.909292 0
M  V30 3 C 9.981194 2.548157 -17.672487 0
M  V30 4 C 10.267939 3.609303 -16.784019 0
M  V30 5 C 10.991495 3.300457 -15.470440 0 CFG=1
M  V30 6 C 11.969337 4.388489 -15.007384 0
M  V30 7 C 11.200370 5.234351 -13.983447 0
M  V30 8 N 10.041235 4.427289 -13.528345 0 CFG=1 CHG=1
M  V30 9 C 8.737226 5.152927 -13.611272 0
M  V30 10 C 7.552019 4.286440 -13.138072 0
M  V30 11 C 7.582853 2.972343 -13.846838 0
M  V30 12 C 8.736907 2.488041 -14.393518 0
M  V30 13 N 8.475772 1.258946 -14.972365 0
M  V30 14 C 7.164387 0.888832 -14.737626 0
M  V30 15 C 6.432961 -0.254393 -15.092460 0
M  V30 16 C 5.115835 -0.410752 -14.627480 0
M  V30 17 C 4.550480 0.572145 -13.794605 0
M  V30 18 C 5.286062 1.727754 -13.446870 0
M  V30 19 C 6.593432 1.934045 -13.952248 0
M  V30 20 C 10.094730 3.110015 -14.231272 0 CFG=1
M  V30 21 C 9.915448 4.926813 -17.159775 0
M  V30 22 C 9.290322 5.175014 -18.397141 0
M  V30 23 H 8.538269 4.303738 -20.224092 0
M  V30 24 H 9.146126 1.976074 -19.581684 0
M  V30 25 H 10.249523 1.534190 -17.414816 0
M  V30 26 H 11.551395 2.380057 -15.644910 0
M  V30 27 H 12.804678 3.911148 -14.492829 0
M  V30 28 H 12.400661 4.971413 -15.822785 0
M  V30 29 H 11.834682 5.499760 -13.136807 0
M  V30 30 H 10.878555 6.171231 -14.437280 0
M  V30 31 H 8.783484 6.070718 -13.023653 0
M  V30 32 H 8.563886 5.451210 -14.646038 0
M  V30 33 H 7.608441 4.132928 -12.059240 0
M  V30 34 H 6.611228 4.804428 -13.327656 0
M  V30 35 H 9.172233 0.693768 -15.436642 0
M  V30 36 H 6.885249 -1.020826 -15.703354 0
M  V30 37 H 4.547184 -1.288961 -14.900038 0
M  V30 38 H 3.535004 0.452574 -13.446986 0
M  V30 39 H 4.833859 2.484258 -12.823192 0
M  V30 40 H 10.655862 2.471316 -13.546696 0
M  V30 41 H 10.127327 5.767345 -16.518936 0
M  V30 42 H 9.024880 6.184520 -18.675119 0
M  V30 43 H 10.172418 4.220778 -12.548429 0
M  V30 END ATOM
M  V30 BEGIN BOND
M  V30 1 2 2 1
M  V30 2 1 3 2
M  V30 3 2 4 3
M  V30 4 1 5 4
M  V30 5 1 6 5
M  V30 6 1 7 6
M  V30 7 1 8 7
M  V30 8 1 9 8
M  V30 9 1 10 9
M  V30 10 1 11 10
M  V30 11 2 12 11
M  V30 12 1 13 12
M  V30 13 1 14 13
M  V30 14 2 15 14
M  V30 15 1 16 15
M  V30 16 2 17 16
M  V30 17 1 18 17
M  V30 18 1 19 11
M  V30 19 1 19 14
M  V30 20 2 19 18
M  V30 21 1 20 5
M  V30 22 1 20 8
M  V30 23 1 20 12
M  V30 24 1 21 4
M  V30 25 1 22 1
M  V30 26 2 22 21
M  V30 27 1 23 1
M  V30 28 1 24 2
M  V30 29 1 25 3
M  V30 30 1 5 26 CFG=3
M  V30 31 1 27 6
M  V30 32 1 28 6
M  V30 33 1 29 7
M  V30 34 1 30 7
M  V30 35 1 31 9
M  V30 36 1 32 9
M  V30 37 1 33 10
M  V30 38 1 34 10
M  V30 39 1 35 13
M  V30 40 1 36 15
M  V30 41 1 37 16
M  V30 42 1 38 17
M  V30 43 1 39 18
M  V30 44 1 20 40 CFG=1
M  V30 45 1 41 21
M  V30 46 1 42 22
M  V30 47 1 8 43 CFG=1
M  V30 END BOND
M  V30 END CTAB
M  END
>  <b_m_subgroup_collapsed>  (2414) 
0

>  <r_i_docking_score>  (2414) 
-5.6767733183563696

>  <s_m_subgroup_title>  (2414) 
glide-dock_SP_D22_pv

>  <s_m_subgroupid>  (2414) 
glide-dock_SP_D22_pv

>  <Molecule ChEMBL ID>  (2414) 
CHEMBL201393

>  <Standard Type>  (2414) 
Ki

>  <Standard Value>  (2414) 
10000.0

>  <label>  (2414) 
0

$$$$
CHEMBL243712
     RDKit          3D

  0  0  0  0  0  0  0  0  0  0999 V3000
M  V30 BEGIN CTAB
M  V30 COUNTS 53 54 0 0 1
M  V30 BEGIN ATOM
M  V30 1 C 8.803961 8.653453 -11.571541 0
M  V30 2 C 9.502629 8.598162 -10.200414 0
M  V30 3 N 8.886171 7.630947 -9.251020 0 CFG=2 CHG=1
M  V30 4 C 9.420151 7.675104 -7.871556 0
M  V30 5 C 9.424472 6.233957 -7.361296 0
M  V30 6 C 8.477525 5.511691 -8.314283 0
M  V30 7 C 8.679547 6.220914 -9.660911 0 CFG=2
M  V30 8 C 9.849015 5.595450 -10.441795 0
M  V30 9 N 9.353290 4.651979 -11.435009 0
M  V30 10 C 9.623860 4.729337 -12.748163 0
M  V30 11 O 10.459057 5.497466 -13.226436 0
M  V30 12 C 8.878207 3.772441 -13.631126 0
M  V30 13 C 9.575915 3.164417 -14.696296 0
M  V30 14 C 8.922196 2.275048 -15.567860 0
M  V30 15 S 9.850798 1.580497 -16.942541 0
M  V30 16 O 8.998057 1.628741 -18.141386 0
M  V30 17 O 11.176636 2.216581 -16.983061 0
M  V30 18 C 10.105484 -0.185929 -16.503799 0
M  V30 19 C 10.768126 -0.921796 -17.671566 0
M  V30 20 C 7.563229 1.949773 -15.354605 0
M  V30 21 N 6.885576 1.043060 -16.171991 0
M  V30 22 C 6.863057 2.567158 -14.299643 0
M  V30 23 C 7.494225 3.507969 -13.448035 0
M  V30 24 O 6.824553 4.171187 -12.438130 0
M  V30 25 C 5.440097 3.927941 -12.253699 0
M  V30 26 H 9.285015 9.370277 -12.235909 0
M  V30 27 H 8.806056 7.690201 -12.079970 0
M  V30 28 H 7.767415 8.972812 -11.472525 0
M  V30 29 H 9.436947 9.586790 -9.746766 0
M  V30 30 H 10.567865 8.402745 -10.317913 0
M  V30 31 H 8.763107 8.302126 -7.266804 0
M  V30 32 H 10.423881 8.101294 -7.830805 0
M  V30 33 H 9.104345 6.174586 -6.319695 0
M  V30 34 H 10.425134 5.804326 -7.431291 0
M  V30 35 H 7.467908 5.699557 -7.957405 0
M  V30 36 H 8.625304 4.431638 -8.351297 0
M  V30 37 H 7.772087 6.172237 -10.264546 0
M  V30 38 H 10.485981 5.051466 -9.749918 0
M  V30 39 H 10.487138 6.335004 -10.914175 0
M  V30 40 H 8.650319 3.986487 -11.144784 0
M  V30 41 H 10.620526 3.394038 -14.851777 0
M  V30 42 H 10.718898 -0.225558 -15.603816 0
M  V30 43 H 9.136205 -0.627500 -16.269779 0
M  V30 44 H 10.886154 -1.978459 -17.447725 0
M  V30 45 H 10.168667 -0.843022 -18.578730 0
M  V30 46 H 11.755522 -0.510343 -17.883764 0
M  V30 47 H 7.268339 0.812873 -17.081743 0
M  V30 48 H 5.884345 0.935134 -16.093544 0
M  V30 49 H 5.821816 2.315062 -14.171200 0
M  V30 50 H 5.073869 4.563601 -11.446742 0
M  V30 51 H 4.866341 4.165704 -13.149377 0
M  V30 52 H 5.259147 2.890519 -11.967989 0
M  V30 53 H 7.902668 7.904646 -9.192469 0
M  V30 END ATOM
M  V30 BEGIN BOND
M  V30 1 1 2 1
M  V30 2 1 3 2
M  V30 3 1 4 3
M  V30 4 1 5 4
M  V30 5 1 6 5
M  V30 6 1 7 3
M  V30 7 1 7 6
M  V30 8 1 8 7
M  V30 9 1 9 8
M  V30 10 1 10 9
M  V30 11 2 11 10
M  V30 12 1 12 10
M  V30 13 1 13 12
M  V30 14 2 14 13
M  V30 15 1 15 14
M  V30 16 2 16 15
M  V30 17 2 17 15
M  V30 18 1 18 15
M  V30 19 1 19 18
M  V30 20 1 20 14
M  V30 21 1 21 20
M  V30 22 2 22 20
M  V30 23 2 23 12
M  V30 24 1 23 22
M  V30 25 1 24 23
M  V30 26 1 25 24
M  V30 27 1 26 1
M  V30 28 1 27 1
M  V30 29 1 28 1
M  V30 30 1 29 2
M  V30 31 1 30 2
M  V30 32 1 31 4
M  V30 33 1 32 4
M  V30 34 1 33 5
M  V30 35 1 34 5
M  V30 36 1 35 6
M  V30 37 1 36 6
M  V30 38 1 7 37 CFG=3
M  V30 39 1 38 8
M  V30 40 1 39 8
M  V30 41 1 40 9
M  V30 42 1 41 13
M  V30 43 1 42 18
M  V30 44 1 43 18
M  V30 45 1 44 19
M  V30 46 1 45 19
M  V30 47 1 46 19
M  V30 48 1 47 21
M  V30 49 1 48 21
M  V30 50 1 49 22
M  V30 51 1 50 25
M  V30 52 1 51 25
M  V30 53 1 52 25
M  V30 54 1 3 53 CFG=1
M  V30 END BOND
M  V30 END CTAB
M  END
>  <b_m_subgroup_collapsed>  (2415) 
0

>  <r_i_docking_score>  (2415) 
-5.6760973126782703

>  <s_m_subgroup_title>  (2415) 
glide-dock_SP_D22_pv

>  <s_m_subgroupid>  (2415) 
glide-dock_SP_D22_pv

>  <Molecule ChEMBL ID>  (2415) 
CHEMBL243712

>  <Standard Type>  (2415) 
Ki

>  <Standard Value>  (2415) 
3.0

>  <label>  (2415) 
1

$$$$
CHEMBL245570
     RDKit          3D

  0  0  0  0  0  0  0  0  0  0999 V3000
M  V30 BEGIN CTAB
M  V30 COUNTS 46 49 0 0 1
M  V30 BEGIN ATOM
M  V30 1 C 11.232162 5.872651 -17.633738 0
M  V30 2 N 11.581677 4.662261 -16.849182 0 CFG=1 CHG=1
M  V30 3 C 12.493476 3.764542 -17.616835 0
M  V30 4 C 12.208008 2.258378 -17.439783 0
M  V30 5 C 10.785393 1.841717 -17.805693 0
M  V30 6 C 10.420873 1.886833 -19.170601 0
M  V30 7 C 9.133609 1.504594 -19.590754 0
M  V30 8 C 8.191631 1.065470 -18.645597 0
M  V30 9 C 8.542903 1.008852 -17.284950 0
M  V30 10 C 9.832851 1.390966 -16.848801 0
M  V30 11 C 10.126388 1.301035 -15.355262 0
M  V30 12 C 9.691752 2.535542 -14.629846 0
M  V30 13 N 8.366533 2.690323 -14.260119 0
M  V30 14 C 8.170950 3.876754 -13.591345 0
M  V30 15 C 7.025388 4.466517 -13.030369 0
M  V30 16 C 7.135659 5.712166 -12.387646 0
M  V30 17 C 8.386236 6.357517 -12.324092 0
M  V30 18 O 8.489294 7.579093 -11.725271 0
M  V30 19 C 9.527664 5.753056 -12.888660 0
M  V30 20 C 9.449208 4.499911 -13.541780 0
M  V30 21 C 10.392930 3.649248 -14.223737 0
M  V30 22 C 11.849207 3.949514 -14.431625 0
M  V30 23 C 12.083592 5.034319 -15.496449 0
M  V30 24 H 12.115588 6.485883 -17.822182 0
M  V30 25 H 10.501416 6.486449 -17.106817 0
M  V30 26 H 10.792964 5.604737 -18.595243 0
M  V30 27 H 12.400746 3.980548 -18.681589 0
M  V30 28 H 13.535574 3.977342 -17.373199 0
M  V30 29 H 12.872764 1.710119 -18.108595 0
M  V30 30 H 12.507510 1.915794 -16.458019 0
M  V30 31 H 11.138523 2.206949 -19.912321 0
M  V30 32 H 8.873203 1.539276 -20.638988 0
M  V30 33 H 7.204672 0.761183 -18.963726 0
M  V30 34 H 7.809594 0.660950 -16.571632 0
M  V30 35 H 9.576989 0.447094 -14.955918 0
M  V30 36 H 11.163586 1.057699 -15.139832 0
M  V30 37 H 7.656574 1.999942 -14.455423 0
M  V30 38 H 6.070159 3.968691 -13.086217 0
M  V30 39 H 6.261718 6.173799 -11.949279 0
M  V30 40 H 7.736884 7.772146 -11.160446 0
M  V30 41 H 10.478174 6.260520 -12.826168 0
M  V30 42 H 12.277535 4.294786 -13.489603 0
M  V30 43 H 12.404644 3.050781 -14.674531 0
M  V30 44 H 13.138972 5.307818 -15.541335 0
M  V30 45 H 11.566864 5.933493 -15.156408 0
M  V30 46 H 10.713593 4.159194 -16.715195 0
M  V30 END ATOM
M  V30 BEGIN BOND
M  V30 1 1 2 1
M  V30 2 1 3 2
M  V30 3 1 4 3
M  V30 4 1 5 4
M  V30 5 2 6 5
M  V30 6 1 7 6
M  V30 7 2 8 7
M  V30 8 1 9 8
M  V30 9 1 10 5
M  V30 10 2 10 9
M  V30 11 1 11 10
M  V30 12 1 12 11
M  V30 13 1 13 12
M  V30 14 1 14 13
M  V30 15 1 15 14
M  V30 16 2 16 15
M  V30 17 1 17 16
M  V30 18 1 18 17
M  V30 19 2 19 17
M  V30 20 2 20 14
M  V30 21 1 20 19
M  V30 22 2 21 12
M  V30 23 1 21 20
M  V30 24 1 22 21
M  V30 25 1 23 2
M  V30 26 1 23 22
M  V30 27 1 24 1
M  V30 28 1 25 1
M  V30 29 1 26 1
M  V30 30 1 27 3
M  V30 31 1 28 3
M  V30 32 1 29 4
M  V30 33 1 30 4
M  V30 34 1 31 6
M  V30 35 1 32 7
M  V30 36 1 33 8
M  V30 37 1 34 9
M  V30 38 1 35 11
M  V30 39 1 36 11
M  V30 40 1 37 13
M  V30 41 1 38 15
M  V30 42 1 39 16
M  V30 43 1 40 18
M  V30 44 1 41 19
M  V30 45 1 42 22
M  V30 46 1 43 22
M  V30 47 1 44 23
M  V30 48 1 45 23
M  V30 49 1 2 46 CFG=1
M  V30 END BOND
M  V30 END CTAB
M  END
>  <b_m_subgroup_collapsed>  (2416) 
0

>  <r_i_docking_score>  (2416) 
-5.6759435621292296

>  <s_m_subgroup_title>  (2416) 
glide-dock_SP_D22_pv

>  <s_m_subgroupid>  (2416) 
glide-dock_SP_D22_pv

>  <Molecule ChEMBL ID>  (2416) 
CHEMBL245570

>  <Standard Type>  (2416) 
Ki

>  <Standard Value>  (2416) 
38.4

>  <label>  (2416) 
1

$$$$
CHEMBL367045
     RDKit          3D

  0  0  0  0  0  0  0  0  0  0999 V3000
M  V30 BEGIN CTAB
M  V30 COUNTS 40 43 0 0 1
M  V30 BEGIN ATOM
M  V30 1 C 9.285810 8.930694 -7.304816 0
M  V30 2 N 10.106115 8.129539 -8.195251 0
M  V30 3 C 10.680379 8.991485 -9.230415 0
M  V30 4 C 11.566245 8.151445 -10.168275 0
M  V30 5 N 10.791614 7.080272 -10.798601 0
M  V30 6 C 10.807272 6.777367 -12.169879 0
M  V30 7 C 11.882193 7.131936 -12.921212 0
M  V30 8 N 12.086377 6.777449 -14.263262 0
M  V30 9 C 12.723976 7.587509 -15.176103 0
M  V30 10 C 12.815011 6.851671 -16.331470 0
M  V30 11 C 12.267605 5.547406 -16.085882 0
M  V30 12 C 11.849671 5.537695 -14.785767 0
M  V30 13 S 11.227494 4.134061 -13.953303 0
M  V30 14 C 9.696518 4.800601 -13.414641 0
M  V30 15 C 8.526705 4.100390 -13.770993 0
M  V30 16 C 7.262425 4.568846 -13.372325 0
M  V30 17 C 7.167770 5.767143 -12.645241 0
M  V30 18 C 8.336938 6.476350 -12.306003 0
M  V30 19 C 9.624483 5.996221 -12.647099 0
M  V30 20 C 10.143052 6.260861 -9.766151 0
M  V30 21 C 9.265806 7.130138 -8.849994 0
M  V30 22 H 8.827670 8.308585 -6.535329 0
M  V30 23 H 9.908503 9.678792 -6.810151 0
M  V30 24 H 8.485368 9.436234 -7.846344 0
M  V30 25 H 11.284873 9.772623 -8.767868 0
M  V30 26 H 9.892336 9.484331 -9.803618 0
M  V30 27 H 12.398271 7.718884 -9.612007 0
M  V30 28 H 11.996763 8.822936 -10.910055 0
M  V30 29 H 12.710849 7.716922 -12.548808 0
M  V30 30 H 13.039043 8.591155 -14.932300 0
M  V30 31 H 13.250970 7.203873 -17.254595 0
M  V30 32 H 12.217442 4.711503 -16.769238 0
M  V30 33 H 8.597655 3.186674 -14.339518 0
M  V30 34 H 6.367441 4.018263 -13.630487 0
M  V30 35 H 6.202603 6.145774 -12.332203 0
M  V30 36 H 8.231538 7.391304 -11.743640 0
M  V30 37 H 9.544600 5.453791 -10.187674 0
M  V30 38 H 10.897340 5.771885 -9.155455 0
M  V30 39 H 8.778271 6.502838 -8.100462 0
M  V30 40 H 8.486691 7.613067 -9.429360 0
M  V30 END ATOM
M  V30 BEGIN BOND
M  V30 1 1 2 1
M  V30 2 1 3 2
M  V30 3 1 4 3
M  V30 4 1 5 4
M  V30 5 1 6 5
M  V30 6 2 7 6
M  V30 7 1 8 7
M  V30 8 1 9 8
M  V30 9 2 10 9
M  V30 10 1 11 10
M  V30 11 1 12 8
M  V30 12 2 12 11
M  V30 13 1 13 12
M  V30 14 1 14 13
M  V30 15 2 15 14
M  V30 16 1 16 15
M  V30 17 2 17 16
M  V30 18 1 18 17
M  V30 19 1 19 6
M  V30 20 1 19 14
M  V30 21 2 19 18
M  V30 22 1 20 5
M  V30 23 1 21 2
M  V30 24 1 21 20
M  V30 25 1 22 1
M  V30 26 1 23 1
M  V30 27 1 24 1
M  V30 28 1 25 3
M  V30 29 1 26 3
M  V30 30 1 27 4
M  V30 31 1 28 4
M  V30 32 1 29 7
M  V30 33 1 30 9
M  V30 34 1 31 10
M  V30 35 1 32 11
M  V30 36 1 33 15
M  V30 37 1 34 16
M  V30 38 1 35 17
M  V30 39 1 36 18
M  V30 40 1 37 20
M  V30 41 1 38 20
M  V30 42 1 39 21
M  V30 43 1 40 21
M  V30 END BOND
M  V30 END CTAB
M  END
>  <b_m_subgroup_collapsed>  (2417) 
0

>  <r_i_docking_score>  (2417) 
-5.6690145056494998

>  <s_m_subgroup_title>  (2417) 
glide-dock_SP_D22_pv

>  <s_m_subgroupid>  (2417) 
glide-dock_SP_D22_pv

>  <Molecule ChEMBL ID>  (2417) 
CHEMBL367045

>  <Standard Type>  (2417) 
Ki

>  <Standard Value>  (2417) 
13.0

>  <label>  (2417) 
1

$$$$
CHEMBL201241
     RDKit          3D

  0  0  0  0  0  0  0  0  0  0999 V3000
M  V30 BEGIN CTAB
M  V30 COUNTS 46 50 0 0 1
M  V30 BEGIN ATOM
M  V30 1 C 7.710728 4.920594 -11.669712 0
M  V30 2 C 6.884781 4.527377 -12.734098 0
M  V30 3 C 7.441172 3.866378 -13.846572 0
M  V30 4 C 8.826937 3.589560 -13.924964 0
M  V30 5 C 9.432565 2.973254 -15.202249 0 CFG=1
M  V30 6 C 10.863889 3.496732 -15.474214 0
M  V30 7 C 11.397408 2.976729 -16.810633 0
M  V30 8 C 11.388687 1.444138 -16.810837 0
M  V30 9 N 10.027719 0.907141 -16.569613 0 CFG=2 CHG=1
M  V30 10 C 9.151823 0.955371 -17.778032 0
M  V30 11 C 7.946494 0.007314 -17.617929 0
M  V30 12 C 7.322738 0.207281 -16.274824 0
M  V30 13 C 7.983352 0.826233 -15.246032 0
M  V30 14 N 7.161307 0.830153 -14.136542 0
M  V30 15 C 5.937050 0.267365 -14.432477 0
M  V30 16 C 4.763696 0.121050 -13.677738 0
M  V30 17 C 3.654102 -0.527915 -14.249478 0
M  V30 18 C 3.731448 -1.026789 -15.565913 0
M  V30 19 C 4.903405 -0.842788 -16.326500 0
M  V30 20 C 6.029192 -0.178680 -15.784081 0
M  V30 21 C 9.372725 1.409163 -15.309628 0 CFG=2
M  V30 22 C 9.638096 3.964569 -12.825791 0
M  V30 23 C 9.086232 4.626323 -11.709906 0
M  V30 24 H 7.286977 5.441724 -10.820413 0
M  V30 25 H 5.825111 4.744033 -12.703265 0
M  V30 26 H 6.779420 3.579625 -14.647525 0
M  V30 27 H 8.818197 3.366023 -16.012550 0
M  V30 28 H 10.870721 4.589339 -15.480562 0
M  V30 29 H 11.548995 3.180795 -14.685813 0
M  V30 30 H 10.801722 3.368312 -17.637077 0
M  V30 31 H 12.413363 3.337463 -16.968563 0
M  V30 32 H 11.792138 1.056919 -17.749863 0
M  V30 33 H 12.050580 1.078320 -16.024225 0
M  V30 34 H 8.804003 1.977402 -17.935759 0
M  V30 35 H 9.706654 0.671940 -18.674124 0
M  V30 36 H 7.219623 0.181307 -18.415571 0
M  V30 37 H 8.273709 -1.029864 -17.715029 0
M  V30 38 H 7.429317 1.250409 -13.257671 0
M  V30 39 H 4.725674 0.511894 -12.670816 0
M  V30 40 H 2.741165 -0.646052 -13.686563 0
M  V30 41 H 2.887456 -1.544455 -15.999360 0
M  V30 42 H 4.939401 -1.207586 -17.342171 0
M  V30 43 H 9.950284 1.001307 -14.475638 0
M  V30 44 H 10.697413 3.772358 -12.823408 0
M  V30 45 H 9.713907 4.914547 -10.880236 0
M  V30 46 H 10.158127 -0.081191 -16.411146 0
M  V30 END ATOM
M  V30 BEGIN BOND
M  V30 1 2 2 1
M  V30 2 1 3 2
M  V30 3 2 4 3
M  V30 4 1 5 4
M  V30 5 1 6 5
M  V30 6 1 7 6
M  V30 7 1 8 7
M  V30 8 1 9 8
M  V30 9 1 10 9
M  V30 10 1 11 10
M  V30 11 1 12 11
M  V30 12 2 13 12
M  V30 13 1 14 13
M  V30 14 1 15 14
M  V30 15 2 16 15
M  V30 16 1 17 16
M  V30 17 2 18 17
M  V30 18 1 19 18
M  V30 19 1 20 12
M  V30 20 1 20 15
M  V30 21 2 20 19
M  V30 22 1 21 5
M  V30 23 1 21 9
M  V30 24 1 21 13
M  V30 25 1 22 4
M  V30 26 1 23 1
M  V30 27 2 23 22
M  V30 28 1 24 1
M  V30 29 1 25 2
M  V30 30 1 26 3
M  V30 31 1 5 27 CFG=3
M  V30 32 1 28 6
M  V30 33 1 29 6
M  V30 34 1 30 7
M  V30 35 1 31 7
M  V30 36 1 32 8
M  V30 37 1 33 8
M  V30 38 1 34 10
M  V30 39 1 35 10
M  V30 40 1 36 11
M  V30 41 1 37 11
M  V30 42 1 38 14
M  V30 43 1 39 16
M  V30 44 1 40 17
M  V30 45 1 41 18
M  V30 46 1 42 19
M  V30 47 1 21 43 CFG=1
M  V30 48 1 44 22
M  V30 49 1 45 23
M  V30 50 1 9 46 CFG=1
M  V30 END BOND
M  V30 END CTAB
M  END
>  <b_m_subgroup_collapsed>  (2418) 
0

>  <r_i_docking_score>  (2418) 
-5.6674737067168897

>  <s_m_subgroup_title>  (2418) 
glide-dock_SP_D22_pv

>  <s_m_subgroupid>  (2418) 
glide-dock_SP_D22_pv

>  <Molecule ChEMBL ID>  (2418) 
CHEMBL201241

>  <Standard Type>  (2418) 
Ki

>  <Standard Value>  (2418) 
10000.0

>  <label>  (2418) 
0

$$$$
CHEMBL10270
     RDKit          3D

  0  0  0  0  0  0  0  0  0  0999 V3000
M  V30 BEGIN CTAB
M  V30 COUNTS 40 42 0 0 1
M  V30 BEGIN ATOM
M  V30 1 C 10.699658 9.030598 -5.838277 0
M  V30 2 C 9.612980 8.397967 -6.311337 0
M  V30 3 C 9.572556 6.943900 -6.737307 0
M  V30 4 N 9.051535 6.787502 -8.117573 0 CFG=2 CHG=1
M  V30 5 C 8.512082 5.433431 -8.384634 0
M  V30 6 C 8.678819 5.176669 -9.896821 0
M  V30 7 C 9.286238 6.478079 -10.439002 0 CFG=2
M  V30 8 C 10.177843 6.451118 -11.675985 0
M  V30 9 C 11.259657 7.373067 -11.737274 0
M  V30 10 C 12.130478 7.355668 -12.843770 0
M  V30 11 C 11.951178 6.418196 -13.871782 0
M  V30 12 C 10.876988 5.513601 -13.823149 0
M  V30 13 C 9.964964 5.530719 -12.737320 0
M  V30 14 O 8.871545 4.694815 -12.665232 0
M  V30 15 C 8.676643 3.721483 -13.681176 0
M  V30 16 C 11.558952 8.363503 -10.605773 0
M  V30 17 C 10.488415 8.432708 -9.496331 0
M  V30 18 C 10.013956 7.005160 -9.213737 0 CFG=1
M  V30 19 H 11.647279 8.522247 -5.730809 0
M  V30 20 H 10.656081 10.070534 -5.548608 0
M  V30 21 H 8.684843 8.944940 -6.398056 0
M  V30 22 H 10.552165 6.472622 -6.631721 0
M  V30 23 H 8.900120 6.434563 -6.046013 0
M  V30 24 H 9.085225 4.674362 -7.846676 0
M  V30 25 H 7.485946 5.372729 -8.034533 0
M  V30 26 H 9.372252 4.345142 -10.043927 0
M  V30 27 H 7.734373 4.920671 -10.380963 0
M  V30 28 H 8.485936 7.167297 -10.688567 0
M  V30 29 H 12.969055 8.036990 -12.886565 0
M  V30 30 H 12.637471 6.395223 -14.704476 0
M  V30 31 H 10.767591 4.822298 -14.644707 0
M  V30 32 H 7.777086 3.152012 -13.448199 0
M  V30 33 H 8.532103 4.185884 -14.658763 0
M  V30 34 H 9.510196 3.017750 -13.727262 0
M  V30 35 H 12.497010 8.042773 -10.153214 0
M  V30 36 H 11.750112 9.358280 -11.001842 0
M  V30 37 H 10.913604 8.914108 -8.617617 0
M  V30 38 H 9.646701 9.046600 -9.823226 0
M  V30 39 H 10.887226 6.376001 -9.013832 0
M  V30 40 H 8.262877 7.413787 -8.246890 0
M  V30 END ATOM
M  V30 BEGIN BOND
M  V30 1 2 2 1
M  V30 2 1 3 2
M  V30 3 1 4 3
M  V30 4 1 5 4
M  V30 5 1 6 5
M  V30 6 1 7 6
M  V30 7 1 8 7
M  V30 8 2 9 8
M  V30 9 1 10 9
M  V30 10 2 11 10
M  V30 11 1 12 11
M  V30 12 1 13 8
M  V30 13 2 13 12
M  V30 14 1 14 13
M  V30 15 1 15 14
M  V30 16 1 16 9
M  V30 17 1 17 16
M  V30 18 1 18 4
M  V30 19 1 18 7
M  V30 20 1 18 17
M  V30 21 1 19 1
M  V30 22 1 20 1
M  V30 23 1 21 2
M  V30 24 1 22 3
M  V30 25 1 23 3
M  V30 26 1 24 5
M  V30 27 1 25 5
M  V30 28 1 26 6
M  V30 29 1 27 6
M  V30 30 1 7 28 CFG=3
M  V30 31 1 29 10
M  V30 32 1 30 11
M  V30 33 1 31 12
M  V30 34 1 32 15
M  V30 35 1 33 15
M  V30 36 1 34 15
M  V30 37 1 35 16
M  V30 38 1 36 16
M  V30 39 1 37 17
M  V30 40 1 38 17
M  V30 41 1 18 39 CFG=1
M  V30 42 1 4 40 CFG=3
M  V30 END BOND
M  V30 END CTAB
M  END
>  <b_m_subgroup_collapsed>  (2419) 
0

>  <r_i_docking_score>  (2419) 
-5.6662901912285903

>  <s_m_subgroup_title>  (2419) 
glide-dock_SP_D22_pv

>  <s_m_subgroupid>  (2419) 
glide-dock_SP_D22_pv

>  <Molecule ChEMBL ID>  (2419) 
CHEMBL10270

>  <Standard Type>  (2419) 
Ki

>  <Standard Value>  (2419) 
6.7

>  <label>  (2419) 
1

$$$$
CHEMBL253708
     RDKit          3D

  0  0  0  0  0  0  0  0  0  0999 V3000
M  V30 BEGIN CTAB
M  V30 COUNTS 33 35 0 0 1
M  V30 BEGIN ATOM
M  V30 1 C 7.962367 0.856876 -16.205767 0
M  V30 2 C 8.830122 2.059661 -15.722919 0 CFG=1
M  V30 3 C 8.109746 2.902730 -14.624906 0
M  V30 4 C 6.767666 2.629843 -14.247397 0
M  V30 5 C 6.077270 3.451714 -13.333954 0
M  V30 6 C 6.712691 4.561721 -12.751308 0
M  V30 7 O 6.007278 5.372828 -11.911836 0
M  V30 8 C 8.058239 4.819794 -13.058361 0
M  V30 9 C 8.743451 4.001475 -13.979847 0
M  V30 10 C 10.160600 1.483928 -15.160335 0
M  V30 11 O 10.191934 0.366385 -14.647436 0
M  V30 12 N 11.285853 2.210488 -15.262945 0
M  V30 13 C 11.376481 3.436745 -15.966599 0
M  V30 14 C 12.515820 4.237713 -15.780672 0
M  V30 15 C 12.648801 5.452006 -16.475956 0
M  V30 16 Cl 14.054262 6.424718 -16.252710 0
M  V30 17 C 11.637091 5.864289 -17.359251 0
M  V30 18 C 10.483850 5.076368 -17.549122 0
M  V30 19 Cl 9.287263 5.673632 -18.646957 0
M  V30 20 C 10.340554 3.853552 -16.835190 0
M  V30 21 C 9.163122 2.946857 -16.963789 0
M  V30 22 O 8.467698 2.882659 -17.979000 0
M  V30 23 H 8.490602 0.258477 -16.951019 0
M  V30 24 H 7.704674 0.182118 -15.388658 0
M  V30 25 H 7.027961 1.178234 -16.666830 0
M  V30 26 H 6.214601 1.804683 -14.668973 0
M  V30 27 H 5.047182 3.237464 -13.092820 0
M  V30 28 H 6.486159 6.051135 -11.447691 0
M  V30 29 H 8.566184 5.659097 -12.605520 0
M  V30 30 H 9.767463 4.259923 -14.185051 0
M  V30 31 H 12.125147 1.841562 -14.838806 0
M  V30 32 H 13.286219 3.925568 -15.096325 0
M  V30 33 H 11.742109 6.797236 -17.895092 0
M  V30 END ATOM
M  V30 BEGIN BOND
M  V30 1 1 2 1 CFG=3
M  V30 2 1 3 2
M  V30 3 1 4 3
M  V30 4 2 5 4
M  V30 5 1 6 5
M  V30 6 1 7 6
M  V30 7 2 8 6
M  V30 8 2 9 3
M  V30 9 1 9 8
M  V30 10 1 10 2
M  V30 11 2 11 10
M  V30 12 1 12 10
M  V30 13 1 13 12
M  V30 14 2 14 13
M  V30 15 1 15 14
M  V30 16 1 16 15
M  V30 17 2 17 15
M  V30 18 1 18 17
M  V30 19 1 19 18
M  V30 20 1 20 13
M  V30 21 2 20 18
M  V30 22 1 21 2
M  V30 23 1 21 20
M  V30 24 2 22 21
M  V30 25 1 23 1
M  V30 26 1 24 1
M  V30 27 1 25 1
M  V30 28 1 26 4
M  V30 29 1 27 5
M  V30 30 1 28 7
M  V30 31 1 29 8
M  V30 32 1 30 9
M  V30 33 1 31 12
M  V30 34 1 32 14
M  V30 35 1 33 17
M  V30 END BOND
M  V30 END CTAB
M  END
>  <b_m_subgroup_collapsed>  (2420) 
0

>  <r_i_docking_score>  (2420) 
-5.6653624439864299

>  <s_m_subgroup_title>  (2420) 
glide-dock_SP_D22_pv

>  <s_m_subgroupid>  (2420) 
glide-dock_SP_D22_pv

>  <Molecule ChEMBL ID>  (2420) 
CHEMBL253708

>  <Standard Type>  (2420) 
Ki

>  <Standard Value>  (2420) 
10000.0

>  <label>  (2420) 
0

$$$$
CHEMBL201287
     RDKit          3D

  0  0  0  0  0  0  0  0  0  0999 V3000
M  V30 BEGIN CTAB
M  V30 COUNTS 53 55 0 0 1
M  V30 BEGIN ATOM
M  V30 1 C 12.913853 7.351834 -15.841484 0
M  V30 2 C 12.595714 6.128969 -16.295687 0
M  V30 3 C 11.185459 5.558209 -16.319920 0
M  V30 4 N 11.030817 4.358694 -15.453874 0 CFG=2 CHG=1
M  V30 5 C 11.161807 4.695494 -14.006888 0
M  V30 6 C 10.282487 3.839911 -13.073035 0
M  V30 7 C 8.779999 4.016915 -13.248445 0
M  V30 8 C 8.200403 5.169085 -12.671003 0
M  V30 9 C 6.807132 5.350048 -12.647948 0
M  V30 10 C 5.973356 4.386010 -13.238061 0
M  V30 11 C 6.537416 3.243001 -13.836014 0
M  V30 12 C 7.934766 3.038277 -13.847069 0
M  V30 13 C 8.445069 1.705466 -14.397404 0
M  V30 14 C 8.655375 1.681220 -15.908350 0
M  V30 15 C 7.504551 1.554307 -16.718100 0
M  V30 16 C 7.595820 1.489060 -18.127785 0
M  V30 17 O 6.504126 1.369746 -18.964100 0
M  V30 18 C 5.218894 1.190979 -18.388500 0
M  V30 19 C 8.862076 1.566073 -18.742550 0
M  V30 20 O 8.894434 1.516682 -20.121567 0
M  V30 21 C 10.149513 1.635982 -20.774887 0
M  V30 22 C 10.016486 1.678623 -17.935083 0
M  V30 23 C 9.932590 1.736803 -16.526625 0
M  V30 24 C 11.250019 1.853418 -15.767118 0
M  V30 25 C 11.901510 3.239212 -15.915061 0
M  V30 26 H 12.164173 8.024476 -15.447846 0
M  V30 27 H 13.936654 7.695153 -15.858850 0
M  V30 28 H 13.384684 5.496490 -16.679634 0
M  V30 29 H 10.486009 6.326328 -16.002296 0
M  V30 30 H 10.918525 5.309581 -17.347723 0
M  V30 31 H 12.207383 4.624908 -13.702209 0
M  V30 32 H 10.886497 5.738864 -13.844068 0
M  V30 33 H 10.572910 2.798934 -13.093569 0
M  V30 34 H 10.486804 4.136965 -12.043892 0
M  V30 35 H 8.823722 5.910162 -12.191678 0
M  V30 36 H 6.381973 6.218959 -12.166758 0
M  V30 37 H 4.902268 4.514582 -13.217780 0
M  V30 38 H 5.876282 2.498204 -14.245968 0
M  V30 39 H 9.295181 1.322931 -13.847981 0
M  V30 40 H 7.682199 0.957354 -14.173229 0
M  V30 41 H 6.544223 1.501295 -16.231668 0
M  V30 42 H 4.489306 1.021164 -19.180906 0
M  V30 43 H 4.903748 2.083267 -17.847355 0
M  V30 44 H 5.184362 0.327271 -17.722038 0
M  V30 45 H 9.995412 1.611051 -21.853727 0
M  V30 46 H 10.814550 0.809799 -20.517345 0
M  V30 47 H 10.636147 2.582604 -20.533077 0
M  V30 48 H 10.995509 1.720134 -18.385441 0
M  V30 49 H 11.174175 1.554839 -14.728689 0
M  V30 50 H 11.927086 1.114694 -16.201719 0
M  V30 51 H 12.114036 3.368278 -16.976036 0
M  V30 52 H 12.880622 3.279602 -15.432826 0
M  V30 53 H 10.074246 4.054506 -15.590210 0
M  V30 END ATOM
M  V30 BEGIN BOND
M  V30 1 2 2 1
M  V30 2 1 3 2
M  V30 3 1 4 3
M  V30 4 1 5 4
M  V30 5 1 6 5
M  V30 6 1 7 6
M  V30 7 2 8 7
M  V30 8 1 9 8
M  V30 9 2 10 9
M  V30 10 1 11 10
M  V30 11 1 12 7
M  V30 12 2 12 11
M  V30 13 1 13 12
M  V30 14 1 14 13
M  V30 15 2 15 14
M  V30 16 1 16 15
M  V30 17 1 17 16
M  V30 18 1 18 17
M  V30 19 2 19 16
M  V30 20 1 20 19
M  V30 21 1 21 20
M  V30 22 1 22 19
M  V30 23 1 23 14
M  V30 24 2 23 22
M  V30 25 1 24 23
M  V30 26 1 25 4
M  V30 27 1 25 24
M  V30 28 1 26 1
M  V30 29 1 27 1
M  V30 30 1 28 2
M  V30 31 1 29 3
M  V30 32 1 30 3
M  V30 33 1 31 5
M  V30 34 1 32 5
M  V30 35 1 33 6
M  V30 36 1 34 6
M  V30 37 1 35 8
M  V30 38 1 36 9
M  V30 39 1 37 10
M  V30 40 1 38 11
M  V30 41 1 39 13
M  V30 42 1 40 13
M  V30 43 1 41 15
M  V30 44 1 42 18
M  V30 45 1 43 18
M  V30 46 1 44 18
M  V30 47 1 45 21
M  V30 48 1 46 21
M  V30 49 1 47 21
M  V30 50 1 48 22
M  V30 51 1 49 24
M  V30 52 1 50 24
M  V30 53 1 51 25
M  V30 54 1 52 25
M  V30 55 1 4 53 CFG=1
M  V30 END BOND
M  V30 END CTAB
M  END
>  <b_m_subgroup_collapsed>  (2421) 
0

>  <r_i_docking_score>  (2421) 
-5.6644827058732004

>  <s_m_subgroup_title>  (2421) 
glide-dock_SP_D22_pv

>  <s_m_subgroupid>  (2421) 
glide-dock_SP_D22_pv

>  <Molecule ChEMBL ID>  (2421) 
CHEMBL201287

>  <Standard Type>  (2421) 
Ki

>  <Standard Value>  (2421) 
10000.0

>  <label>  (2421) 
0

$$$$
CHEMBL4476520
     RDKit          3D

  0  0  0  0  0  0  0  0  0  0999 V3000
M  V30 BEGIN CTAB
M  V30 COUNTS 33 35 0 0 1
M  V30 BEGIN ATOM
M  V30 1 C 12.832231 7.873518 -14.286376 0
M  V30 2 C 11.833743 7.051640 -13.460202 0
M  V30 3 N 11.630612 5.701716 -13.973741 0
M  V30 4 C 12.513733 4.996125 -14.700000 0
M  V30 5 N 12.135088 3.772327 -15.014214 0
M  V30 6 C 10.899391 3.648724 -14.408216 0
M  V30 7 C 10.542989 4.833315 -13.797183 0
M  V30 8 C 9.290936 5.165416 -13.107538 0
M  V30 9 C 9.011693 6.191482 -12.230879 0
M  V30 10 N 7.686052 6.142384 -11.846852 0
M  V30 11 C 7.073850 5.036987 -12.389337 0
M  V30 12 C 5.782677 4.507366 -12.246314 0
M  V30 13 C 5.446455 3.305730 -12.890335 0
M  V30 14 C 6.382008 2.652205 -13.712631 0
M  V30 15 O 6.000678 1.438046 -14.246895 0
M  V30 16 C 6.830678 0.712453 -15.044004 0
M  V30 17 F 6.195672 -0.417987 -15.434763 0
M  V30 18 F 7.167420 1.386965 -16.172331 0
M  V30 19 F 7.956062 0.330326 -14.389726 0
M  V30 20 C 7.655581 3.241596 -13.896961 0
M  V30 21 C 8.057197 4.414030 -13.207238 0
M  V30 22 H 12.997855 8.855860 -13.847174 0
M  V30 23 H 13.796205 7.372453 -14.326367 0
M  V30 24 H 12.481588 8.018008 -15.309307 0
M  V30 25 H 10.886542 7.581459 -13.445239 0
M  V30 26 H 12.178541 6.973505 -12.428950 0
M  V30 27 H 13.477673 5.368428 -15.010957 0
M  V30 28 H 10.383554 2.705733 -14.474259 0
M  V30 29 H 9.637103 6.972663 -11.828910 0
M  V30 30 H 7.244573 6.809325 -11.198056 0
M  V30 31 H 5.083487 4.987980 -11.578822 0
M  V30 32 H 4.472430 2.867026 -12.733905 0
M  V30 33 H 8.362601 2.759666 -14.543341 0
M  V30 END ATOM
M  V30 BEGIN BOND
M  V30 1 1 2 1
M  V30 2 1 3 2
M  V30 3 1 4 3
M  V30 4 2 5 4
M  V30 5 1 6 5
M  V30 6 1 7 3
M  V30 7 2 7 6
M  V30 8 1 8 7
M  V30 9 2 9 8
M  V30 10 1 10 9
M  V30 11 1 11 10
M  V30 12 1 12 11
M  V30 13 2 13 12
M  V30 14 1 14 13
M  V30 15 1 15 14
M  V30 16 1 16 15
M  V30 17 1 17 16
M  V30 18 1 18 16
M  V30 19 1 19 16
M  V30 20 2 20 14
M  V30 21 1 21 8
M  V30 22 2 21 11
M  V30 23 1 21 20
M  V30 24 1 22 1
M  V30 25 1 23 1
M  V30 26 1 24 1
M  V30 27 1 25 2
M  V30 28 1 26 2
M  V30 29 1 27 4
M  V30 30 1 28 6
M  V30 31 1 29 9
M  V30 32 1 30 10
M  V30 33 1 31 12
M  V30 34 1 32 13
M  V30 35 1 33 20
M  V30 END BOND
M  V30 END CTAB
M  END
>  <b_m_subgroup_collapsed>  (2422) 
0

>  <r_i_docking_score>  (2422) 
-5.6579145386997496

>  <s_m_subgroup_title>  (2422) 
glide-dock_SP_D22_pv

>  <s_m_subgroupid>  (2422) 
glide-dock_SP_D22_pv

>  <Molecule ChEMBL ID>  (2422) 
CHEMBL4476520

>  <Standard Type>  (2422) 
Ki

>  <Standard Value>  (2422) 
10000.0

>  <label>  (2422) 
0

$$$$
CHEMBL2159475
     RDKit          3D

  0  0  0  0  0  0  0  0  0  0999 V3000
M  V30 BEGIN CTAB
M  V30 COUNTS 44 46 0 0 1
M  V30 BEGIN ATOM
M  V30 1 O 10.258054 9.371857 -9.445140 0
M  V30 2 S 10.678803 8.012210 -9.091729 0
M  V30 3 O 11.831262 7.376759 -9.747913 0
M  V30 4 N 9.324060 6.979056 -9.315291 0
M  V30 5 C 9.323657 6.074794 -10.462292 0 CFG=2
M  V30 6 C 9.254731 6.840876 -11.797479 0
M  V30 7 C 7.975901 6.349783 -12.479577 0
M  V30 8 N 7.695480 5.034667 -11.868985 0 CFG=2 CHG=1
M  V30 9 C 6.321665 4.509792 -12.070700 0
M  V30 10 C 6.010019 4.114520 -13.528290 0
M  V30 11 O 6.285619 2.743264 -13.804840 0
M  V30 12 C 7.530629 2.337985 -14.246902 0
M  V30 13 C 8.627869 3.207287 -14.470560 0
M  V30 14 C 9.880842 2.699151 -14.865497 0
M  V30 15 Cl 11.211972 3.773091 -15.081231 0
M  V30 16 C 10.046904 1.319313 -15.078814 0
M  V30 17 C 8.960247 0.449547 -14.884502 0
M  V30 18 C 7.714967 0.952121 -14.457211 0
M  V30 19 Cl 6.417140 -0.148906 -14.163409 0
M  V30 20 C 8.075777 5.203689 -10.453831 0
M  V30 21 C 10.996395 7.980951 -7.341821 0
M  V30 22 C 10.919390 6.888134 -6.516414 0
M  V30 23 C 11.285247 7.183372 -5.169872 0
M  V30 24 C 11.596390 8.506048 -4.999101 0
M  V30 25 Cl 12.084310 9.306923 -3.559497 0
M  V30 26 S 11.462452 9.422771 -6.473493 0
M  V30 27 H 8.428301 7.461698 -9.183807 0
M  V30 28 H 10.206597 5.439686 -10.432422 0
M  V30 29 H 9.235914 7.926767 -11.678056 0
M  V30 30 H 10.129390 6.598568 -12.403627 0
M  V30 31 H 7.159958 7.037498 -12.255021 0
M  V30 32 H 8.085683 6.309232 -13.561658 0
M  V30 33 H 6.156114 3.644363 -11.429886 0
M  V30 34 H 5.614373 5.273600 -11.742853 0
M  V30 35 H 4.934480 4.222851 -13.674583 0
M  V30 36 H 6.454578 4.793781 -14.246969 0
M  V30 37 H 8.548699 4.271333 -14.344911 0
M  V30 38 H 11.005039 0.929952 -15.392013 0
M  V30 39 H 9.083549 -0.612208 -15.047137 0
M  V30 40 H 8.206002 4.257080 -9.927990 0
M  V30 41 H 7.287415 5.772102 -9.962981 0
M  V30 42 H 10.638576 5.896936 -6.839675 0
M  V30 43 H 11.293665 6.432570 -4.391541 0
M  V30 44 H 8.345738 4.366683 -12.257056 0
M  V30 END ATOM
M  V30 BEGIN BOND
M  V30 1 2 2 1
M  V30 2 2 3 2
M  V30 3 1 4 2
M  V30 4 1 5 4
M  V30 5 1 6 5
M  V30 6 1 7 6
M  V30 7 1 8 7
M  V30 8 1 9 8
M  V30 9 1 10 9
M  V30 10 1 11 10
M  V30 11 1 12 11
M  V30 12 1 13 12
M  V30 13 2 14 13
M  V30 14 1 15 14
M  V30 15 1 16 14
M  V30 16 2 17 16
M  V30 17 2 18 12
M  V30 18 1 18 17
M  V30 19 1 19 18
M  V30 20 1 20 5
M  V30 21 1 20 8
M  V30 22 1 21 2
M  V30 23 2 22 21
M  V30 24 1 23 22
M  V30 25 2 24 23
M  V30 26 1 25 24
M  V30 27 1 26 21
M  V30 28 1 26 24
M  V30 29 1 27 4
M  V30 30 1 5 28 CFG=3
M  V30 31 1 29 6
M  V30 32 1 30 6
M  V30 33 1 31 7
M  V30 34 1 32 7
M  V30 35 1 33 9
M  V30 36 1 34 9
M  V30 37 1 35 10
M  V30 38 1 36 10
M  V30 39 1 37 13
M  V30 40 1 38 16
M  V30 41 1 39 17
M  V30 42 1 40 20
M  V30 43 1 41 20
M  V30 44 1 42 22
M  V30 45 1 43 23
M  V30 46 1 8 44 CFG=3
M  V30 END BOND
M  V30 END CTAB
M  END
>  <b_m_subgroup_collapsed>  (2423) 
0

>  <r_i_docking_score>  (2423) 
-5.6566379863396996

>  <s_m_subgroup_title>  (2423) 
glide-dock_SP_D22_pv

>  <s_m_subgroupid>  (2423) 
glide-dock_SP_D22_pv

>  <Molecule ChEMBL ID>  (2423) 
CHEMBL2159475

>  <Standard Type>  (2423) 
Ki

>  <Standard Value>  (2423) 
78.0

>  <label>  (2423) 
1

$$$$
CHEMBL458342
     RDKit          3D

  0  0  0  0  0  0  0  0  0  0999 V3000
M  V30 BEGIN CTAB
M  V30 COUNTS 49 53 0 0 1
M  V30 BEGIN ATOM
M  V30 1 Cl 9.315785 7.598796 -9.740662 0
M  V30 2 C 9.715652 6.647635 -11.124185 0
M  V30 3 C 8.964643 5.501580 -11.434269 0
M  V30 4 C 9.316156 4.710411 -12.544870 0
M  V30 5 C 10.412024 5.049294 -13.377056 0
M  V30 6 N 10.753742 4.248062 -14.490390 0
M  V30 7 C 11.282554 4.869503 -15.706528 0
M  V30 8 C 10.258525 4.850599 -16.858454 0
M  V30 9 C 9.864914 3.462055 -17.404911 0 CFG=1
M  V30 10 C 11.046033 2.604337 -17.863949 0
M  V30 11 C 11.415038 1.776358 -16.643099 0
M  V30 12 C 10.280115 2.005677 -15.629072 0 CFG=1
M  V30 13 C 10.707025 2.784436 -14.358621 0
M  V30 14 N 9.203327 2.697940 -16.348747 0
M  V30 15 C 8.217420 1.757989 -16.872841 0
M  V30 16 C 7.323817 1.072450 -15.889448 0
M  V30 17 C 6.886493 -0.226493 -15.930819 0
M  V30 18 N 6.110282 -0.483603 -14.812738 0
M  V30 19 C 5.989374 0.651154 -14.043985 0
M  V30 20 N 5.285519 0.786216 -12.886779 0
M  V30 21 C 5.285810 2.039814 -12.381529 0
M  V30 22 C 5.952205 3.140427 -12.955547 0
M  V30 23 C 6.694994 2.940844 -14.133919 0
M  V30 24 C 6.728580 1.658282 -14.721172 0
M  V30 25 C 11.158404 6.207747 -13.049059 0
M  V30 26 C 10.811675 6.998899 -11.934308 0
M  V30 27 H 8.121199 5.227281 -10.816009 0
M  V30 28 H 8.716598 3.840027 -12.744695 0
M  V30 29 H 11.558691 5.908566 -15.543942 0
M  V30 30 H 12.204762 4.368341 -15.998745 0
M  V30 31 H 9.354527 5.370310 -16.540047 0
M  V30 32 H 10.661911 5.439855 -17.682095 0
M  V30 33 H 9.182364 3.632706 -18.238668 0
M  V30 34 H 10.730845 1.945286 -18.673475 0
M  V30 35 H 11.880568 3.199802 -18.235567 0
M  V30 36 H 11.492188 0.721291 -16.906578 0
M  V30 37 H 12.384426 2.073232 -16.242275 0
M  V30 38 H 9.935989 1.030358 -15.280910 0
M  V30 39 H 11.686423 2.438853 -14.031624 0
M  V30 40 H 10.033154 2.485075 -13.559352 0
M  V30 41 H 7.576552 2.309954 -17.560003 0
M  V30 42 H 8.727419 1.014330 -17.487244 0
M  V30 43 H 7.092458 -1.008373 -16.648577 0
M  V30 44 H 5.709738 -1.388266 -14.613515 0
M  V30 45 H 4.728249 2.171365 -11.468421 0
M  V30 46 H 5.909515 4.112783 -12.484152 0
M  V30 47 H 7.230800 3.758528 -14.592135 0
M  V30 48 H 12.027698 6.494175 -13.620281 0
M  V30 49 H 11.402361 7.868322 -11.688470 0
M  V30 END ATOM
M  V30 BEGIN BOND
M  V30 1 1 2 1
M  V30 2 1 3 2
M  V30 3 2 4 3
M  V30 4 1 5 4
M  V30 5 1 6 5
M  V30 6 1 7 6
M  V30 7 1 8 7
M  V30 8 1 9 8
M  V30 9 1 10 9
M  V30 10 1 11 10
M  V30 11 1 12 11
M  V30 12 1 13 6
M  V30 13 1 13 12
M  V30 14 1 14 9
M  V30 15 1 14 12
M  V30 16 1 15 14
M  V30 17 1 16 15
M  V30 18 2 17 16
M  V30 19 1 18 17
M  V30 20 1 19 18
M  V30 21 2 20 19
M  V30 22 1 21 20
M  V30 23 2 22 21
M  V30 24 1 23 22
M  V30 25 1 24 16
M  V30 26 1 24 19
M  V30 27 2 24 23
M  V30 28 2 25 5
M  V30 29 2 26 2
M  V30 30 1 26 25
M  V30 31 1 27 3
M  V30 32 1 28 4
M  V30 33 1 29 7
M  V30 34 1 30 7
M  V30 35 1 31 8
M  V30 36 1 32 8
M  V30 37 1 9 33 CFG=3
M  V30 38 1 34 10
M  V30 39 1 35 10
M  V30 40 1 36 11
M  V30 41 1 37 11
M  V30 42 1 12 38 CFG=1
M  V30 43 1 39 13
M  V30 44 1 40 13
M  V30 45 1 41 15
M  V30 46 1 42 15
M  V30 47 1 43 17
M  V30 48 1 44 18
M  V30 49 1 45 21
M  V30 50 1 46 22
M  V30 51 1 47 23
M  V30 52 1 48 25
M  V30 53 1 49 26
M  V30 END BOND
M  V30 END CTAB
M  END
>  <b_m_subgroup_collapsed>  (2424) 
0

>  <r_i_docking_score>  (2424) 
-5.6521917896307299

>  <s_m_subgroup_title>  (2424) 
glide-dock_SP_D22_pv

>  <s_m_subgroupid>  (2424) 
glide-dock_SP_D22_pv

>  <Molecule ChEMBL ID>  (2424) 
CHEMBL458342

>  <Standard Type>  (2424) 
Ki

>  <Standard Value>  (2424) 
10000.0

>  <label>  (2424) 
0

$$$$
CHEMBL2159477
     RDKit          3D

  0  0  0  0  0  0  0  0  0  0999 V3000
M  V30 BEGIN CTAB
M  V30 COUNTS 61 64 0 0 1
M  V30 BEGIN ATOM
M  V30 1 C 10.371796 6.584819 -6.578869 0
M  V30 2 C 10.316406 7.911149 -7.352418 0
M  V30 3 C 8.931468 8.572838 -7.267765 0
M  V30 4 C 10.800793 7.749557 -8.792143 0
M  V30 5 C 12.047297 8.300679 -9.153407 0
M  V30 6 C 12.527201 8.172235 -10.467442 0
M  V30 7 C 11.759691 7.529109 -11.446407 0
M  V30 8 C 10.522029 6.972795 -11.097445 0
M  V30 9 C 10.048296 7.043886 -9.763454 0
M  V30 10 O 8.884763 6.431230 -9.368053 0
M  V30 11 C 8.525033 5.235454 -10.033677 0
M  V30 12 C 7.553838 5.482265 -11.206034 0
M  V30 13 N 7.441051 4.260616 -12.023787 0 CFG=1 CHG=1
M  V30 14 C 6.209394 4.103305 -12.807834 0
M  V30 15 C 6.553960 2.971942 -13.776489 0
M  V30 16 C 8.032083 3.200909 -14.116137 0 CFG=2
M  V30 17 N 8.778577 1.940751 -14.247266 0
M  V30 18 S 9.685859 1.628577 -15.685701 0
M  V30 19 O 8.754589 1.834456 -16.805418 0
M  V30 20 O 10.357223 0.335068 -15.488391 0
M  V30 21 C 10.955576 2.916162 -15.690978 0
M  V30 22 C 11.414323 3.400941 -14.448515 0
M  V30 23 C 12.339420 4.455658 -14.383210 0
M  V30 24 C 12.845019 5.007473 -15.570168 0
M  V30 25 C 12.426547 4.499736 -16.817549 0
M  V30 26 C 12.963092 5.050715 -17.999233 0
M  V30 27 C 12.543041 4.537343 -19.238537 0
M  V30 28 C 11.607321 3.489782 -19.240841 0
M  V30 29 N 11.092924 2.959907 -18.113701 0
M  V30 30 C 11.475493 3.440225 -16.906509 0
M  V30 31 C 8.568829 4.047039 -12.952549 0
M  V30 32 H 11.382746 6.175237 -6.572566 0
M  V30 33 H 10.065153 6.721152 -5.541521 0
M  V30 34 H 9.713251 5.835219 -7.017335 0
M  V30 35 H 11.005889 8.595339 -6.856196 0
M  V30 36 H 8.887612 9.473722 -7.878104 0
M  V30 37 H 8.131673 7.913154 -7.595679 0
M  V30 38 H 8.694985 8.858543 -6.246826 0
M  V30 39 H 12.650045 8.823223 -8.424730 0
M  V30 40 H 13.494619 8.572436 -10.729287 0
M  V30 41 H 12.131395 7.443691 -12.457570 0
M  V30 42 H 9.975636 6.467067 -11.872895 0
M  V30 43 H 8.081711 4.569115 -9.297558 0
M  V30 44 H 9.421103 4.704527 -10.361055 0
M  V30 45 H 7.857291 6.322310 -11.827479 0
M  V30 46 H 6.577541 5.772319 -10.828200 0
M  V30 47 H 5.996361 5.023054 -13.355575 0
M  V30 48 H 5.352466 3.871467 -12.174678 0
M  V30 49 H 5.912795 2.981634 -14.650319 0
M  V30 50 H 6.420910 2.009383 -13.281341 0
M  V30 51 H 8.099975 3.767781 -15.046113 0
M  V30 52 H 9.270231 1.639341 -13.401564 0
M  V30 53 H 11.071360 2.951457 -13.531747 0
M  V30 54 H 12.682265 4.826087 -13.428672 0
M  V30 55 H 13.570332 5.806326 -15.516055 0
M  V30 56 H 13.683151 5.855562 -17.959160 0
M  V30 57 H 12.928077 4.932297 -20.166342 0
M  V30 58 H 11.263180 3.064263 -20.171389 0
M  V30 59 H 9.373077 3.556717 -12.405250 0
M  V30 60 H 8.953483 4.992807 -13.340896 0
M  V30 61 H 7.433871 3.482671 -11.378670 0
M  V30 END ATOM
M  V30 BEGIN BOND
M  V30 1 1 2 1
M  V30 2 1 3 2
M  V30 3 1 4 2
M  V30 4 2 5 4
M  V30 5 1 6 5
M  V30 6 2 7 6
M  V30 7 1 8 7
M  V30 8 1 9 4
M  V30 9 2 9 8
M  V30 10 1 10 9
M  V30 11 1 11 10
M  V30 12 1 12 11
M  V30 13 1 13 12
M  V30 14 1 14 13
M  V30 15 1 15 14
M  V30 16 1 16 15
M  V30 17 1 17 16
M  V30 18 1 18 17
M  V30 19 2 19 18
M  V30 20 2 20 18
M  V30 21 1 21 18
M  V30 22 2 22 21
M  V30 23 1 23 22
M  V30 24 2 24 23
M  V30 25 1 25 24
M  V30 26 2 26 25
M  V30 27 1 27 26
M  V30 28 2 28 27
M  V30 29 1 29 28
M  V30 30 1 30 21
M  V30 31 1 30 25
M  V30 32 2 30 29
M  V30 33 1 31 13
M  V30 34 1 31 16
M  V30 35 1 32 1
M  V30 36 1 33 1
M  V30 37 1 34 1
M  V30 38 1 35 2
M  V30 39 1 36 3
M  V30 40 1 37 3
M  V30 41 1 38 3
M  V30 42 1 39 5
M  V30 43 1 40 6
M  V30 44 1 41 7
M  V30 45 1 42 8
M  V30 46 1 43 11
M  V30 47 1 44 11
M  V30 48 1 45 12
M  V30 49 1 46 12
M  V30 50 1 47 14
M  V30 51 1 48 14
M  V30 52 1 49 15
M  V30 53 1 50 15
M  V30 54 1 16 51 CFG=3
M  V30 55 1 52 17
M  V30 56 1 53 22
M  V30 57 1 54 23
M  V30 58 1 55 24
M  V30 59 1 56 26
M  V30 60 1 57 27
M  V30 61 1 58 28
M  V30 62 1 59 31
M  V30 63 1 60 31
M  V30 64 1 13 61 CFG=1
M  V30 END BOND
M  V30 END CTAB
M  END
>  <b_m_subgroup_collapsed>  (2425) 
0

>  <r_i_docking_score>  (2425) 
-5.6457789060800696

>  <s_m_subgroup_title>  (2425) 
glide-dock_SP_D22_pv

>  <s_m_subgroupid>  (2425) 
glide-dock_SP_D22_pv

>  <Molecule ChEMBL ID>  (2425) 
CHEMBL2159477

>  <Standard Type>  (2425) 
Ki

>  <Standard Value>  (2425) 
10.0

>  <label>  (2425) 
1

$$$$
CHEMBL108678
     RDKit          3D

  0  0  0  0  0  0  0  0  0  0999 V3000
M  V30 BEGIN CTAB
M  V30 COUNTS 42 45 0 0 1
M  V30 BEGIN ATOM
M  V30 1 F 11.622277 8.120335 -7.279830 0
M  V30 2 C 10.972340 7.644480 -8.368468 0
M  V30 3 C 11.300364 8.127488 -9.650152 0
M  V30 4 C 10.621289 7.635833 -10.782339 0
M  V30 5 C 9.614037 6.657713 -10.638601 0
M  V30 6 C 8.851770 6.156447 -11.852988 0
M  V30 7 S 9.528969 4.572560 -12.446250 0
M  V30 8 C 10.599891 5.172261 -13.715075 0
M  V30 9 N 11.678407 5.905365 -13.447368 0
M  V30 10 C 12.172503 6.188095 -14.703172 0
M  V30 11 C 13.286053 6.953383 -15.092507 0
M  V30 12 C 13.598022 7.135851 -16.455786 0
M  V30 13 C 12.792613 6.548211 -17.451860 0
M  V30 14 C 11.678205 5.769889 -17.085083 0
M  V30 15 C 11.379671 5.596685 -15.719541 0
M  V30 16 N 10.375669 4.930900 -15.030460 0
M  V30 17 C 9.285830 4.208851 -15.645926 0
M  V30 18 C 9.719567 2.901915 -16.280531 0
M  V30 19 C 9.684938 2.765665 -17.684256 0
M  V30 20 C 10.051843 1.549182 -18.286655 0
M  V30 21 C 10.448465 0.460657 -17.488892 0
M  V30 22 Cl 10.880080 -1.027195 -18.245312 0
M  V30 23 C 10.484240 0.590244 -16.085524 0
M  V30 24 C 10.121979 1.810969 -15.480474 0
M  V30 25 C 9.292622 6.172409 -9.352436 0
M  V30 26 C 9.970493 6.665178 -8.219874 0
M  V30 27 H 12.069571 8.877847 -9.764578 0
M  V30 28 H 10.871029 8.014006 -11.762518 0
M  V30 29 H 7.807329 6.009535 -11.574679 0
M  V30 30 H 8.859970 6.901700 -12.647903 0
M  V30 31 H 13.902864 7.372271 -14.316807 0
M  V30 32 H 14.457689 7.726281 -16.738359 0
M  V30 33 H 13.032254 6.694267 -18.495750 0
M  V30 34 H 11.058673 5.318389 -17.844397 0
M  V30 35 H 8.487012 4.026583 -14.928373 0
M  V30 36 H 8.886240 4.865058 -16.417221 0
M  V30 37 H 9.371406 3.590772 -18.306601 0
M  V30 38 H 10.022328 1.448868 -19.361675 0
M  V30 39 H 10.787299 -0.243150 -15.469853 0
M  V30 40 H 10.145012 1.904729 -14.403810 0
M  V30 41 H 8.511517 5.435422 -9.230904 0
M  V30 42 H 9.714862 6.298260 -7.236577 0
M  V30 END ATOM
M  V30 BEGIN BOND
M  V30 1 1 2 1
M  V30 2 1 3 2
M  V30 3 2 4 3
M  V30 4 1 5 4
M  V30 5 1 6 5
M  V30 6 1 7 6
M  V30 7 1 8 7
M  V30 8 2 9 8
M  V30 9 1 10 9
M  V30 10 2 11 10
M  V30 11 1 12 11
M  V30 12 2 13 12
M  V30 13 1 14 13
M  V30 14 1 15 10
M  V30 15 2 15 14
M  V30 16 1 16 8
M  V30 17 1 16 15
M  V30 18 1 17 16
M  V30 19 1 18 17
M  V30 20 1 19 18
M  V30 21 2 20 19
M  V30 22 1 21 20
M  V30 23 1 22 21
M  V30 24 2 23 21
M  V30 25 2 24 18
M  V30 26 1 24 23
M  V30 27 2 25 5
M  V30 28 2 26 2
M  V30 29 1 26 25
M  V30 30 1 27 3
M  V30 31 1 28 4
M  V30 32 1 29 6
M  V30 33 1 30 6
M  V30 34 1 31 11
M  V30 35 1 32 12
M  V30 36 1 33 13
M  V30 37 1 34 14
M  V30 38 1 35 17
M  V30 39 1 36 17
M  V30 40 1 37 19
M  V30 41 1 38 20
M  V30 42 1 39 23
M  V30 43 1 40 24
M  V30 44 1 41 25
M  V30 45 1 42 26
M  V30 END BOND
M  V30 END CTAB
M  END
>  <b_m_subgroup_collapsed>  (2426) 
0

>  <r_i_docking_score>  (2426) 
-5.64413695244665

>  <s_m_subgroup_title>  (2426) 
glide-dock_SP_D22_pv

>  <s_m_subgroupid>  (2426) 
glide-dock_SP_D22_pv

>  <Molecule ChEMBL ID>  (2426) 
CHEMBL108678

>  <Standard Type>  (2426) 
Ki

>  <Standard Value>  (2426) 
42000.0

>  <label>  (2426) 
0

$$$$
CHEMBL316942
     RDKit          3D

  0  0  0  0  0  0  0  0  0  0999 V3000
M  V30 BEGIN CTAB
M  V30 COUNTS 39 42 0 0 1
M  V30 BEGIN ATOM
M  V30 1 C 5.981814 0.891491 -14.102902 0
M  V30 2 C 6.594598 2.239483 -13.883573 0
M  V30 3 S 5.685856 3.445801 -13.041291 0
M  V30 4 C 6.997393 4.572722 -13.151499 0
M  V30 5 C 6.757770 5.961070 -12.640065 0
M  V30 6 C 8.123640 4.023430 -13.739269 0
M  V30 7 C 7.847365 2.691316 -14.245035 0
M  V30 8 C 8.740366 1.772773 -15.067718 0
M  V30 9 C 10.115030 2.258383 -15.569661 0
M  V30 10 C 10.160256 3.689603 -16.117422 0
M  V30 11 C 10.267972 4.619563 -14.959377 0
M  V30 12 C 11.328576 5.505795 -14.638001 0
M  V30 13 N 11.181128 6.049475 -13.446327 0
M  V30 14 N 10.026121 5.535946 -12.957334 0
M  V30 15 C 9.692633 5.821224 -11.610518 0
M  V30 16 C 9.284839 4.779268 -10.751709 0
M  V30 17 C 9.058394 5.028862 -9.384151 0
M  V30 18 C 9.253789 6.322144 -8.864749 0
M  V30 19 C 9.672883 7.366591 -9.713378 0
M  V30 20 C 9.886448 7.119316 -11.085143 0
M  V30 21 C 9.408868 4.714158 -13.901882 0
M  V30 22 H 6.602909 0.237113 -14.713267 0
M  V30 23 H 5.013445 0.970363 -14.595738 0
M  V30 24 H 5.823229 0.391262 -13.146407 0
M  V30 25 H 7.460855 6.684307 -13.050206 0
M  V30 26 H 6.834492 5.988935 -11.552259 0
M  V30 27 H 5.754611 6.302898 -12.900146 0
M  V30 28 H 8.903222 0.847229 -14.515396 0
M  V30 29 H 8.179851 1.477741 -15.955483 0
M  V30 30 H 10.851362 2.156261 -14.772139 0
M  V30 31 H 10.441363 1.568444 -16.348419 0
M  V30 32 H 11.028170 3.794929 -16.770279 0
M  V30 33 H 9.285695 3.899081 -16.736065 0
M  V30 34 H 12.220421 5.725558 -15.204833 0
M  V30 35 H 9.178931 3.778976 -11.143735 0
M  V30 36 H 8.738090 4.225571 -8.736540 0
M  V30 37 H 9.068849 6.515710 -7.818406 0
M  V30 38 H 9.815566 8.359617 -9.315130 0
M  V30 39 H 10.208996 7.923211 -11.726923 0
M  V30 END ATOM
M  V30 BEGIN BOND
M  V30 1 1 2 1
M  V30 2 1 3 2
M  V30 3 1 4 3
M  V30 4 1 5 4
M  V30 5 2 6 4
M  V30 6 2 7 2
M  V30 7 1 7 6
M  V30 8 1 8 7
M  V30 9 1 9 8
M  V30 10 1 10 9
M  V30 11 1 11 10
M  V30 12 1 12 11
M  V30 13 2 13 12
M  V30 14 1 14 13
M  V30 15 1 15 14
M  V30 16 2 16 15
M  V30 17 1 17 16
M  V30 18 2 18 17
M  V30 19 1 19 18
M  V30 20 1 20 15
M  V30 21 2 20 19
M  V30 22 1 21 6
M  V30 23 2 21 11
M  V30 24 1 21 14
M  V30 25 1 22 1
M  V30 26 1 23 1
M  V30 27 1 24 1
M  V30 28 1 25 5
M  V30 29 1 26 5
M  V30 30 1 27 5
M  V30 31 1 28 8
M  V30 32 1 29 8
M  V30 33 1 30 9
M  V30 34 1 31 9
M  V30 35 1 32 10
M  V30 36 1 33 10
M  V30 37 1 34 12
M  V30 38 1 35 16
M  V30 39 1 36 17
M  V30 40 1 37 18
M  V30 41 1 38 19
M  V30 42 1 39 20
M  V30 END BOND
M  V30 END CTAB
M  END
>  <b_m_subgroup_collapsed>  (2427) 
0

>  <r_i_docking_score>  (2427) 
-5.6414944975811698

>  <s_m_subgroup_title>  (2427) 
glide-dock_SP_D22_pv

>  <s_m_subgroupid>  (2427) 
glide-dock_SP_D22_pv

>  <Molecule ChEMBL ID>  (2427) 
CHEMBL316942

>  <Standard Type>  (2427) 
Ki

>  <Standard Value>  (2427) 
10000.0

>  <label>  (2427) 
0

$$$$
CHEMBL164631
     RDKit          3D

  0  0  0  0  0  0  0  0  0  0999 V3000
M  V30 BEGIN CTAB
M  V30 COUNTS 38 38 0 0 1
M  V30 BEGIN ATOM
M  V30 1 C 13.282648 8.172643 -9.236526 0
M  V30 2 C 11.963086 8.050377 -10.019175 0
M  V30 3 C 10.687222 8.547213 -9.288002 0
M  V30 4 N 10.156589 7.670973 -8.193231 0 CHG=1
M  V30 5 C 9.931773 6.253130 -8.611949 0
M  V30 6 C 9.044782 6.093654 -9.858162 0
M  V30 7 C 8.762995 4.630490 -10.179263 0
M  V30 8 C 10.888405 7.845292 -6.891583 0 CFG=2
M  V30 9 C 10.677371 6.698228 -5.873647 0
M  V30 10 C 11.292426 6.996651 -4.522123 0
M  V30 11 C 11.686104 8.222226 -4.133128 0
M  V30 12 C 12.173409 8.421665 -2.810616 0
M  V30 13 N 12.540155 8.572465 -1.725881 0
M  V30 14 C 11.537121 9.445557 -5.020126 0
M  V30 15 C 10.582008 9.195622 -6.203763 0
M  V30 16 H 14.140958 8.172520 -9.907553 0
M  V30 17 H 13.318035 9.086320 -8.647464 0
M  V30 18 H 13.436843 7.372342 -8.529636 0
M  V30 19 H 11.845860 7.038909 -10.404219 0
M  V30 20 H 12.072965 8.673307 -10.908194 0
M  V30 21 H 9.892838 8.664530 -10.025829 0
M  V30 22 H 10.859190 9.562036 -8.937312 0
M  V30 23 H 10.885675 5.749386 -8.755483 0
M  V30 24 H 9.414565 5.713302 -7.820038 0
M  V30 25 H 8.086175 6.572290 -9.680276 0
M  V30 26 H 9.488154 6.560875 -10.736082 0
M  V30 27 H 8.136448 4.539122 -11.066715 0
M  V30 28 H 9.686810 4.080868 -10.356293 0
M  V30 29 H 8.227707 4.168876 -9.350861 0
M  V30 30 H 11.950272 7.839929 -7.097174 0
M  V30 31 H 11.128251 5.772501 -6.235764 0
M  V30 32 H 9.614749 6.515713 -5.711966 0
M  V30 33 H 11.368653 6.166891 -3.833933 0
M  V30 34 H 11.184345 10.288364 -4.423147 0
M  V30 35 H 12.527566 9.714752 -5.391998 0
M  V30 36 H 9.551852 9.193654 -5.852023 0
M  V30 37 H 10.667253 10.041331 -6.881276 0
M  V30 38 H 9.221195 8.011792 -8.009404 0
M  V30 END ATOM
M  V30 BEGIN BOND
M  V30 1 1 2 1
M  V30 2 1 3 2
M  V30 3 1 4 3
M  V30 4 1 5 4
M  V30 5 1 6 5
M  V30 6 1 7 6
M  V30 7 1 8 4
M  V30 8 1 9 8
M  V30 9 1 10 9
M  V30 10 2 11 10
M  V30 11 1 12 11
M  V30 12 3 13 12
M  V30 13 1 14 11
M  V30 14 1 15 8
M  V30 15 1 15 14
M  V30 16 1 16 1
M  V30 17 1 17 1
M  V30 18 1 18 1
M  V30 19 1 19 2
M  V30 20 1 20 2
M  V30 21 1 21 3
M  V30 22 1 22 3
M  V30 23 1 23 5
M  V30 24 1 24 5
M  V30 25 1 25 6
M  V30 26 1 26 6
M  V30 27 1 27 7
M  V30 28 1 28 7
M  V30 29 1 29 7
M  V30 30 1 8 30 CFG=3
M  V30 31 1 31 9
M  V30 32 1 32 9
M  V30 33 1 33 10
M  V30 34 1 34 14
M  V30 35 1 35 14
M  V30 36 1 36 15
M  V30 37 1 37 15
M  V30 38 1 38 4
M  V30 END BOND
M  V30 END CTAB
M  END
>  <b_m_subgroup_collapsed>  (2428) 
0

>  <r_i_docking_score>  (2428) 
-5.6406013667170498

>  <s_m_subgroup_title>  (2428) 
glide-dock_SP_D22_pv

>  <s_m_subgroupid>  (2428) 
glide-dock_SP_D22_pv

>  <Molecule ChEMBL ID>  (2428) 
CHEMBL164631

>  <Standard Type>  (2428) 
Ki

>  <Standard Value>  (2428) 
20000.0

>  <label>  (2428) 
0

$$$$
CHEMBL443843
     RDKit          3D

  0  0  0  0  0  0  0  0  0  0999 V3000
M  V30 BEGIN CTAB
M  V30 COUNTS 46 49 0 0 1
M  V30 BEGIN ATOM
M  V30 1 C 9.080416 -1.349695 -18.717472 0
M  V30 2 O 9.687228 -1.183266 -17.446779 0
M  V30 3 C 9.996138 0.095487 -17.034920 0
M  V30 4 C 10.403120 0.250458 -15.698574 0
M  V30 5 C 10.772483 1.513599 -15.208059 0
M  V30 6 C 10.749876 2.660357 -16.030762 0
M  V30 7 C 10.294054 2.523206 -17.377728 0
M  V30 8 C 9.939043 1.241120 -17.860167 0
M  V30 9 C 10.163381 3.679256 -18.365824 0
M  V30 10 C 9.716095 5.000575 -17.733969 0
M  V30 11 C 10.877693 5.780689 -17.113409 0
M  V30 12 N 11.836619 4.914541 -16.384584 0 CFG=1 CHG=1
M  V30 13 C 13.025367 5.655706 -15.889791 0
M  V30 14 C 12.723696 6.656595 -14.759315 0
M  V30 15 C 12.263660 6.002802 -13.446734 0
M  V30 16 C 10.805610 5.573349 -13.446949 0
M  V30 17 C 9.938367 6.141354 -12.484029 0
M  V30 18 C 8.583694 5.768094 -12.434893 0
M  V30 19 C 8.087209 4.820549 -13.343368 0
M  V30 20 C 8.943906 4.248756 -14.304257 0
M  V30 21 C 10.309835 4.617778 -14.370559 0
M  V30 22 C 11.251568 3.967333 -15.395960 0 CFG=1
M  V30 23 H 8.764322 -2.387486 -18.829351 0
M  V30 24 H 9.780958 -1.125725 -19.523790 0
M  V30 25 H 8.191870 -0.724123 -18.824308 0
M  V30 26 H 10.440402 -0.610944 -15.048866 0
M  V30 27 H 11.092140 1.591450 -14.176991 0
M  V30 28 H 9.628300 1.156010 -18.891350 0
M  V30 29 H 11.097462 3.800264 -18.917784 0
M  V30 30 H 9.414284 3.405275 -19.110558 0
M  V30 31 H 9.264621 5.632627 -18.500252 0
M  V30 32 H 8.921185 4.824832 -17.009453 0
M  V30 33 H 11.420471 6.292802 -17.909500 0
M  V30 34 H 10.488550 6.559491 -16.462782 0
M  V30 35 H 13.788361 4.947177 -15.563559 0
M  V30 36 H 13.472417 6.191628 -16.726877 0
M  V30 37 H 13.656289 7.186130 -14.554980 0
M  V30 38 H 12.019944 7.430400 -15.069778 0
M  V30 39 H 12.885657 5.142625 -13.198519 0
M  V30 40 H 12.421154 6.719733 -12.640685 0
M  V30 41 H 10.305764 6.868337 -11.775863 0
M  V30 42 H 7.925939 6.208216 -11.694308 0
M  V30 43 H 7.047149 4.525563 -13.299621 0
M  V30 44 H 8.531528 3.516119 -14.982925 0
M  V30 45 H 12.095538 3.615164 -14.801233 0
M  V30 46 H 12.210052 4.298694 -17.092144 0
M  V30 END ATOM
M  V30 BEGIN BOND
M  V30 1 1 2 1
M  V30 2 1 3 2
M  V30 3 1 4 3
M  V30 4 2 5 4
M  V30 5 1 6 5
M  V30 6 2 7 6
M  V30 7 2 8 3
M  V30 8 1 8 7
M  V30 9 1 9 7
M  V30 10 1 10 9
M  V30 11 1 11 10
M  V30 12 1 12 11
M  V30 13 1 13 12
M  V30 14 1 14 13
M  V30 15 1 15 14
M  V30 16 1 16 15
M  V30 17 2 17 16
M  V30 18 1 18 17
M  V30 19 2 19 18
M  V30 20 1 20 19
M  V30 21 1 21 16
M  V30 22 2 21 20
M  V30 23 1 22 6
M  V30 24 1 22 12
M  V30 25 1 22 21
M  V30 26 1 23 1
M  V30 27 1 24 1
M  V30 28 1 25 1
M  V30 29 1 26 4
M  V30 30 1 27 5
M  V30 31 1 28 8
M  V30 32 1 29 9
M  V30 33 1 30 9
M  V30 34 1 31 10
M  V30 35 1 32 10
M  V30 36 1 33 11
M  V30 37 1 34 11
M  V30 38 1 35 13
M  V30 39 1 36 13
M  V30 40 1 37 14
M  V30 41 1 38 14
M  V30 42 1 39 15
M  V30 43 1 40 15
M  V30 44 1 41 17
M  V30 45 1 42 18
M  V30 46 1 43 19
M  V30 47 1 44 20
M  V30 48 1 22 45 CFG=1
M  V30 49 1 12 46 CFG=3
M  V30 END BOND
M  V30 END CTAB
M  END
>  <b_m_subgroup_collapsed>  (2429) 
0

>  <r_i_docking_score>  (2429) 
-5.6398733112626802

>  <s_m_subgroup_title>  (2429) 
glide-dock_SP_D22_pv

>  <s_m_subgroupid>  (2429) 
glide-dock_SP_D22_pv

>  <Molecule ChEMBL ID>  (2429) 
CHEMBL443843

>  <Standard Type>  (2429) 
Ki

>  <Standard Value>  (2429) 
10000.0

>  <label>  (2429) 
0

$$$$
CHEMBL275707
     RDKit          3D

  0  0  0  0  0  0  0  0  0  0999 V3000
M  V30 BEGIN CTAB
M  V30 COUNTS 52 55 0 0 1
M  V30 BEGIN ATOM
M  V30 1 C 10.892917 9.348449 -9.393788 0
M  V30 2 C 10.683615 7.870983 -9.711021 0 CFG=2
M  V30 3 C 10.213675 7.638540 -11.159289 0
M  V30 4 N 10.051703 6.202015 -11.414011 0
M  V30 5 C 9.650327 6.035060 -12.806093 0
M  V30 6 C 9.626235 4.568143 -13.269283 0
M  V30 7 C 8.968215 4.435460 -14.644284 0
M  V30 8 N 8.730885 3.042876 -14.974643 0
M  V30 9 C 9.570652 2.221119 -15.729817 0
M  V30 10 C 10.804086 2.506104 -16.351500 0
M  V30 11 C 11.467437 1.512325 -17.094797 0
M  V30 12 C 10.896232 0.233712 -17.218851 0
M  V30 13 C 9.676517 -0.053213 -16.581696 0
M  V30 14 C 8.994446 0.921904 -15.822794 0
M  V30 15 C 7.780593 0.945861 -15.053907 0
M  V30 16 C 6.791021 -0.006077 -14.711117 0
M  V30 17 C 5.692387 0.344433 -13.906319 0
M  V30 18 C 5.548724 1.667390 -13.446940 0
M  V30 19 C 6.503140 2.638106 -13.803772 0
M  V30 20 C 7.628228 2.278178 -14.574704 0
M  V30 21 C 9.028758 5.679341 -10.501782 0
M  V30 22 C 9.487906 5.869731 -9.048655 0 CFG=2
M  V30 23 C 8.487139 5.306584 -8.057038 0
M  V30 24 N 9.679397 7.305466 -8.791677 0 CHG=1
M  V30 25 H 11.601604 9.803326 -10.085278 0
M  V30 26 H 9.944676 9.875246 -9.460250 0
M  V30 27 H 11.281077 9.484430 -8.383572 0
M  V30 28 H 11.633438 7.351677 -9.558052 0
M  V30 29 H 10.955618 8.043913 -11.846258 0
M  V30 30 H 9.276502 8.168384 -11.347592 0
M  V30 31 H 10.359724 6.571233 -13.435876 0
M  V30 32 H 8.670121 6.492311 -12.960486 0
M  V30 33 H 9.064569 3.939931 -12.581867 0
M  V30 34 H 10.637531 4.159920 -13.291337 0
M  V30 35 H 9.577112 4.898160 -15.420082 0
M  V30 36 H 8.013460 4.958106 -14.646593 0
M  V30 37 H 11.244789 3.488285 -16.262991 0
M  V30 38 H 12.410860 1.733066 -17.571537 0
M  V30 39 H 11.396597 -0.528988 -17.795750 0
M  V30 40 H 9.239327 -1.029874 -16.676025 0
M  V30 41 H 6.885844 -1.023613 -15.064670 0
M  V30 42 H 4.953350 -0.400228 -13.653394 0
M  V30 43 H 4.701339 1.940430 -12.835085 0
M  V30 44 H 6.389625 3.651411 -13.446839 0
M  V30 45 H 8.070290 6.173388 -10.672251 0
M  V30 46 H 8.869827 4.615486 -10.655383 0
M  V30 47 H 10.437005 5.355414 -8.896369 0
M  V30 48 H 8.369033 4.228171 -8.170967 0
M  V30 49 H 8.815024 5.525619 -7.046937 0
M  V30 50 H 7.514894 5.769942 -8.184891 0
M  V30 51 H 8.795113 7.765268 -8.945026 0
M  V30 52 H 9.969775 7.441635 -7.835463 0
M  V30 END ATOM
M  V30 BEGIN BOND
M  V30 1 1 2 1
M  V30 2 1 3 2
M  V30 3 1 4 3
M  V30 4 1 5 4
M  V30 5 1 6 5
M  V30 6 1 7 6
M  V30 7 1 8 7
M  V30 8 1 9 8
M  V30 9 2 10 9
M  V30 10 1 11 10
M  V30 11 2 12 11
M  V30 12 1 13 12
M  V30 13 1 14 9
M  V30 14 2 14 13
M  V30 15 1 15 14
M  V30 16 2 16 15
M  V30 17 1 17 16
M  V30 18 2 18 17
M  V30 19 1 19 18
M  V30 20 1 20 8
M  V30 21 1 20 15
M  V30 22 2 20 19
M  V30 23 1 21 4
M  V30 24 1 22 21
M  V30 25 1 23 22
M  V30 26 1 24 2
M  V30 27 1 24 22
M  V30 28 1 25 1
M  V30 29 1 26 1
M  V30 30 1 27 1
M  V30 31 1 2 28 CFG=3
M  V30 32 1 29 3
M  V30 33 1 30 3
M  V30 34 1 31 5
M  V30 35 1 32 5
M  V30 36 1 33 6
M  V30 37 1 34 6
M  V30 38 1 35 7
M  V30 39 1 36 7
M  V30 40 1 37 10
M  V30 41 1 38 11
M  V30 42 1 39 12
M  V30 43 1 40 13
M  V30 44 1 41 16
M  V30 45 1 42 17
M  V30 46 1 43 18
M  V30 47 1 44 19
M  V30 48 1 45 21
M  V30 49 1 46 21
M  V30 50 1 22 47 CFG=3
M  V30 51 1 48 23
M  V30 52 1 49 23
M  V30 53 1 50 23
M  V30 54 1 51 24
M  V30 55 1 52 24
M  V30 END BOND
M  V30 END CTAB
M  END
>  <b_m_subgroup_collapsed>  (2430) 
0

>  <r_i_docking_score>  (2430) 
-5.6393058530500202

>  <s_m_subgroup_title>  (2430) 
glide-dock_SP_D22_pv

>  <s_m_subgroupid>  (2430) 
glide-dock_SP_D22_pv

>  <Molecule ChEMBL ID>  (2430) 
CHEMBL275707

>  <Standard Type>  (2430) 
Ki

>  <Standard Value>  (2430) 
10000.0

>  <label>  (2430) 
0

$$$$
CHEMBL5273758
     RDKit          3D

  0  0  0  0  0  0  0  0  0  0999 V3000
M  V30 BEGIN CTAB
M  V30 COUNTS 43 46 0 0 1
M  V30 BEGIN ATOM
M  V30 1 C 5.685998 5.286684 -12.386930 0
M  V30 2 N 7.010421 4.804155 -12.819416 0 CFG=2 CHG=1
M  V30 3 C 6.920179 3.814891 -13.917109 0
M  V30 4 C 8.289062 3.689818 -14.597753 0
M  V30 5 C 9.401209 3.275925 -13.617208 0 CFG=1
M  V30 6 C 10.757737 3.565219 -14.244218 0
M  V30 7 C 11.461428 4.684026 -13.978975 0
M  V30 8 O 12.660616 4.850384 -14.553435 0
M  V30 9 C 10.943887 5.683571 -13.049985 0
M  V30 10 O 11.474426 6.913295 -13.043439 0
M  V30 11 C 9.941872 5.351810 -12.208840 0
M  V30 12 C 9.215685 6.221755 -11.188198 0 CFG=2
M  V30 13 C 10.052145 6.950585 -10.128980 0
M  V30 14 C 10.533588 8.240715 -10.430489 0
M  V30 15 C 11.285846 8.971929 -9.493714 0
M  V30 16 C 11.544281 8.432758 -8.220935 0
M  V30 17 C 11.050806 7.156798 -7.894110 0
M  V30 18 C 10.320354 6.415293 -8.844436 0
M  V30 19 C 8.145117 5.269852 -10.620856 0
M  V30 20 C 7.848045 4.256717 -11.727337 0 CFG=2
M  V30 21 C 9.276741 3.989090 -12.243565 0 CFG=1
M  V30 22 H 5.139542 4.509169 -11.851802 0
M  V30 23 H 5.108390 5.585014 -13.261683 0
M  V30 24 H 5.758142 6.166029 -11.747251 0
M  V30 25 H 6.586155 2.849373 -13.533176 0
M  V30 26 H 6.172894 4.126382 -14.646362 0
M  V30 27 H 8.236411 2.972140 -15.417872 0
M  V30 28 H 8.540723 4.652707 -15.046505 0
M  V30 29 H 9.327128 2.200809 -13.447201 0
M  V30 30 H 11.146987 2.827060 -14.931227 0
M  V30 31 H 13.153044 5.471591 -14.036366 0
M  V30 32 H 12.040081 6.987372 -13.796346 0
M  V30 33 H 8.690558 6.985933 -11.763516 0
M  V30 34 H 10.326283 8.675912 -11.396101 0
M  V30 35 H 11.662173 9.948345 -9.758664 0
M  V30 36 H 12.119357 8.995066 -7.500027 0
M  V30 37 H 11.244990 6.735850 -6.918625 0
M  V30 38 H 9.984330 5.434028 -8.553615 0
M  V30 39 H 8.533117 4.676963 -9.796215 0
M  V30 40 H 7.283292 5.772413 -10.217859 0
M  V30 41 H 7.320500 3.393874 -11.318056 0
M  V30 42 H 9.807853 3.388201 -11.502789 0
M  V30 43 H 7.498185 5.609556 -13.184502 0
M  V30 END ATOM
M  V30 BEGIN BOND
M  V30 1 1 2 1
M  V30 2 1 3 2
M  V30 3 1 4 3
M  V30 4 1 5 4
M  V30 5 1 6 5
M  V30 6 2 7 6
M  V30 7 1 8 7
M  V30 8 1 9 7
M  V30 9 1 10 9
M  V30 10 2 11 9
M  V30 11 1 12 11
M  V30 12 1 13 12
M  V30 13 2 14 13
M  V30 14 1 15 14
M  V30 15 2 16 15
M  V30 16 1 17 16
M  V30 17 1 18 13
M  V30 18 2 18 17
M  V30 19 1 19 12
M  V30 20 1 20 2
M  V30 21 1 20 19
M  V30 22 1 21 5
M  V30 23 1 21 11
M  V30 24 1 21 20
M  V30 25 1 22 1
M  V30 26 1 23 1
M  V30 27 1 24 1
M  V30 28 1 25 3
M  V30 29 1 26 3
M  V30 30 1 27 4
M  V30 31 1 28 4
M  V30 32 1 5 29 CFG=1
M  V30 33 1 30 6
M  V30 34 1 31 8
M  V30 35 1 32 10
M  V30 36 1 12 33 CFG=3
M  V30 37 1 34 14
M  V30 38 1 35 15
M  V30 39 1 36 16
M  V30 40 1 37 17
M  V30 41 1 38 18
M  V30 42 1 39 19
M  V30 43 1 40 19
M  V30 44 1 20 41 CFG=1
M  V30 45 1 21 42 CFG=1
M  V30 46 1 2 43 CFG=3
M  V30 END BOND
M  V30 END CTAB
M  END
>  <b_m_subgroup_collapsed>  (2431) 
0

>  <r_i_docking_score>  (2431) 
-5.6366589890034202

>  <s_m_subgroup_title>  (2431) 
glide-dock_SP_D22_pv

>  <s_m_subgroupid>  (2431) 
glide-dock_SP_D22_pv

>  <Molecule ChEMBL ID>  (2431) 
CHEMBL5273758

>  <Standard Type>  (2431) 
Ki

>  <Standard Value>  (2431) 
12.88

>  <label>  (2431) 
1

$$$$
CHEMBL230930
     RDKit          3D

  0  0  0  0  0  0  0  0  0  0999 V3000
M  V30 BEGIN CTAB
M  V30 COUNTS 55 58 0 0 1
M  V30 BEGIN ATOM
M  V30 1 C 12.435098 3.660406 -17.268282 0
M  V30 2 C 11.935053 2.243452 -17.294472 0
M  V30 3 N 12.486472 1.380646 -18.134228 0
M  V30 4 O 11.809782 0.166132 -17.953243 0
M  V30 5 C 10.854278 0.333867 -17.001678 0
M  V30 6 C 10.026383 -0.860361 -16.667986 0
M  V30 7 C 10.890513 1.623857 -16.548405 0
M  V30 8 C 10.022179 2.253469 -15.535523 0
M  V30 9 C 8.630755 2.007542 -15.524421 0
M  V30 10 C 7.789149 2.652977 -14.598118 0
M  V30 11 C 8.333475 3.562166 -13.670027 0
M  V30 12 S 7.212720 4.415377 -12.555031 0
M  V30 13 O 7.001346 5.780205 -13.044515 0
M  V30 14 O 6.070352 3.531936 -12.274658 0
M  V30 15 N 8.048852 4.572684 -11.046652 0
M  V30 16 C 8.841475 5.618170 -10.556561 0
M  V30 17 C 9.440676 6.580983 -11.390686 0
M  V30 18 C 10.199770 7.621618 -10.829061 0
M  V30 19 C 10.374588 7.732257 -9.433646 0
M  V30 20 C 9.779661 6.758673 -8.584057 0
M  V30 21 C 9.022907 5.714591 -9.162777 0
M  V30 22 C 9.903964 6.767761 -7.063640 0
M  V30 23 C 11.311801 7.102835 -6.542247 0
M  V30 24 N 11.634567 8.556106 -6.503945 0 CFG=2 CHG=1
M  V30 25 C 11.522878 9.128554 -5.142129 0
M  V30 26 C 10.921848 9.377978 -7.506693 0
M  V30 27 C 11.185742 8.926738 -8.946653 0
M  V30 28 C 9.721921 3.793967 -13.643454 0
M  V30 29 C 10.556350 3.137910 -14.570809 0
M  V30 30 H 13.281318 3.767930 -16.591383 0
M  V30 31 H 12.757158 3.976668 -18.258970 0
M  V30 32 H 11.654235 4.351542 -16.950960 0
M  V30 33 H 9.035048 -0.777866 -17.115526 0
M  V30 34 H 10.483635 -1.778483 -17.038145 0
M  V30 35 H 9.905189 -0.954425 -15.587965 0
M  V30 36 H 8.192037 1.337492 -16.249500 0
M  V30 37 H 6.724763 2.470469 -14.616568 0
M  V30 38 H 7.555350 4.089420 -10.308056 0
M  V30 39 H 9.313799 6.547200 -12.461214 0
M  V30 40 H 10.639649 8.357920 -11.483014 0
M  V30 41 H 8.552281 4.980891 -8.524063 0
M  V30 42 H 9.141334 7.414794 -6.627522 0
M  V30 43 H 9.654963 5.772597 -6.703294 0
M  V30 44 H 11.439474 6.673133 -5.546619 0
M  V30 45 H 12.044969 6.594952 -7.169151 0
M  V30 46 H 10.493235 9.085766 -4.785244 0
M  V30 47 H 12.153758 8.585037 -4.437120 0
M  V30 48 H 11.844070 10.171160 -5.127775 0
M  V30 49 H 9.851170 9.437181 -7.306601 0
M  V30 50 H 11.288344 10.395065 -7.397560 0
M  V30 51 H 12.247106 8.723166 -9.096650 0
M  V30 52 H 10.953058 9.766858 -9.602871 0
M  V30 53 H 10.158072 4.468149 -12.925442 0
M  V30 54 H 11.619135 3.327288 -14.543144 0
M  V30 55 H 12.614053 8.628724 -6.742004 0
M  V30 END ATOM
M  V30 BEGIN BOND
M  V30 1 1 2 1
M  V30 2 2 3 2
M  V30 3 1 4 3
M  V30 4 1 5 4
M  V30 5 1 6 5
M  V30 6 1 7 2
M  V30 7 2 7 5
M  V30 8 1 8 7
M  V30 9 1 9 8
M  V30 10 2 10 9
M  V30 11 1 11 10
M  V30 12 1 12 11
M  V30 13 2 13 12
M  V30 14 2 14 12
M  V30 15 1 15 12
M  V30 16 1 16 15
M  V30 17 1 17 16
M  V30 18 2 18 17
M  V30 19 1 19 18
M  V30 20 2 20 19
M  V30 21 2 21 16
M  V30 22 1 21 20
M  V30 23 1 22 20
M  V30 24 1 23 22
M  V30 25 1 24 23
M  V30 26 1 25 24
M  V30 27 1 26 24
M  V30 28 1 27 19
M  V30 29 1 27 26
M  V30 30 2 28 11
M  V30 31 2 29 8
M  V30 32 1 29 28
M  V30 33 1 30 1
M  V30 34 1 31 1
M  V30 35 1 32 1
M  V30 36 1 33 6
M  V30 37 1 34 6
M  V30 38 1 35 6
M  V30 39 1 36 9
M  V30 40 1 37 10
M  V30 41 1 38 15
M  V30 42 1 39 17
M  V30 43 1 40 18
M  V30 44 1 41 21
M  V30 45 1 42 22
M  V30 46 1 43 22
M  V30 47 1 44 23
M  V30 48 1 45 23
M  V30 49 1 46 25
M  V30 50 1 47 25
M  V30 51 1 48 25
M  V30 52 1 49 26
M  V30 53 1 50 26
M  V30 54 1 51 27
M  V30 55 1 52 27
M  V30 56 1 53 28
M  V30 57 1 54 29
M  V30 58 1 24 55 CFG=3
M  V30 END BOND
M  V30 END CTAB
M  END
>  <b_m_subgroup_collapsed>  (2432) 
0

>  <r_i_docking_score>  (2432) 
-5.6346455005728799

>  <s_m_subgroup_title>  (2432) 
glide-dock_SP_D22_pv

>  <s_m_subgroupid>  (2432) 
glide-dock_SP_D22_pv

>  <Molecule ChEMBL ID>  (2432) 
CHEMBL230930

>  <Standard Type>  (2432) 
Ki

>  <Standard Value>  (2432) 
100.0

>  <label>  (2432) 
1

$$$$
CHEMBL1794855
     RDKit          3D

  0  0  0  0  0  0  0  0  0  0999 V3000
M  V30 BEGIN CTAB
M  V30 COUNTS 33 34 0 0 1
M  V30 BEGIN ATOM
M  V30 1 C 8.301100 8.760303 -12.297890 0
M  V30 2 C 7.495707 7.503592 -12.695585 0
M  V30 3 N 7.685992 6.288444 -11.846882 0 CFG=1 CHG=1
M  V30 4 C 6.616881 5.289316 -12.081918 0
M  V30 5 C 9.042561 5.670639 -11.806073 0 CFG=1
M  V30 6 C 9.492710 5.138649 -13.196414 0
M  V30 7 C 11.008818 5.071909 -13.355701 0
M  V30 8 C 11.640047 6.446979 -13.096892 0
M  V30 9 C 11.242859 6.991767 -11.737089 0
M  V30 10 C 12.090672 7.877372 -11.046748 0
M  V30 11 C 11.729835 8.297429 -9.752934 0
M  V30 12 N 10.611938 7.882531 -9.128922 0
M  V30 13 C 9.796371 7.037847 -9.792228 0
M  V30 14 C 10.050195 6.574455 -11.102933 0
M  V30 15 H 8.086226 9.596447 -12.957931 0
M  V30 16 H 8.087514 9.074773 -11.276523 0
M  V30 17 H 9.371489 8.633276 -12.407273 0
M  V30 18 H 7.685885 7.252927 -13.729389 0
M  V30 19 H 6.441010 7.779157 -12.651543 0
M  V30 20 H 6.610431 4.951600 -13.118627 0
M  V30 21 H 6.736883 4.414072 -11.443923 0
M  V30 22 H 5.642148 5.722880 -11.858879 0
M  V30 23 H 8.984486 4.803072 -11.144839 0
M  V30 24 H 9.139307 5.770415 -14.006168 0
M  V30 25 H 9.048390 4.159686 -13.380206 0
M  V30 26 H 11.273554 4.713877 -14.351412 0
M  V30 27 H 11.388865 4.338449 -12.647120 0
M  V30 28 H 11.330025 7.159905 -13.860085 0
M  V30 29 H 12.726020 6.374057 -13.160936 0
M  V30 30 H 13.011038 8.226842 -11.490756 0
M  V30 31 H 12.365402 8.971663 -9.197521 0
M  V30 32 H 8.897769 6.743028 -9.270832 0
M  V30 33 H 7.472326 6.656808 -10.918926 0
M  V30 END ATOM
M  V30 BEGIN BOND
M  V30 1 1 2 1
M  V30 2 1 3 2
M  V30 3 1 4 3
M  V30 4 1 5 3
M  V30 5 1 6 5
M  V30 6 1 7 6
M  V30 7 1 8 7
M  V30 8 1 9 8
M  V30 9 1 10 9
M  V30 10 2 11 10
M  V30 11 1 12 11
M  V30 12 2 13 12
M  V30 13 1 14 5
M  V30 14 2 14 9
M  V30 15 1 14 13
M  V30 16 1 15 1
M  V30 17 1 16 1
M  V30 18 1 17 1
M  V30 19 1 18 2
M  V30 20 1 19 2
M  V30 21 1 20 4
M  V30 22 1 21 4
M  V30 23 1 22 4
M  V30 24 1 5 23 CFG=1
M  V30 25 1 24 6
M  V30 26 1 25 6
M  V30 27 1 26 7
M  V30 28 1 27 7
M  V30 29 1 28 8
M  V30 30 1 29 8
M  V30 31 1 30 10
M  V30 32 1 31 11
M  V30 33 1 32 13
M  V30 34 1 3 33 CFG=1
M  V30 END BOND
M  V30 END CTAB
M  END
>  <b_m_subgroup_collapsed>  (2433) 
0

>  <r_i_docking_score>  (2433) 
-5.6338541806679396

>  <s_m_subgroup_title>  (2433) 
glide-dock_SP_D22_pv

>  <s_m_subgroupid>  (2433) 
glide-dock_SP_D22_pv

>  <Molecule ChEMBL ID>  (2433) 
CHEMBL1794855

>  <Standard Type>  (2433) 
Ki

>  <Standard Value>  (2433) 
10000.0

>  <label>  (2433) 
0

$$$$
CHEMBL271913
     RDKit          3D

  0  0  0  0  0  0  0  0  0  0999 V3000
M  V30 BEGIN CTAB
M  V30 COUNTS 73 76 0 0 1
M  V30 BEGIN ATOM
M  V30 1 C 6.385834 -2.073244 -20.304396 0
M  V30 2 O 6.854156 -1.228238 -19.263542 0
M  V30 3 C 6.077666 -1.090980 -18.128632 0
M  V30 4 C 4.859032 -1.790048 -17.929203 0
M  V30 5 C 4.139564 -1.648722 -16.728241 0
M  V30 6 C 4.622410 -0.811293 -15.707777 0
M  V30 7 Cl 3.722931 -0.622091 -14.247085 0
M  V30 8 C 5.834763 -0.119893 -15.887967 0
M  V30 9 C 6.546991 -0.233770 -17.099501 0
M  V30 10 N 7.774711 0.468372 -17.220247 0
M  V30 11 C 8.088296 1.337744 -18.194973 0
M  V30 12 O 7.286040 1.772080 -19.022188 0
M  V30 13 N 9.375946 1.707261 -18.149069 0
M  V30 14 C 10.038553 2.612181 -19.094818 0 CFG=1
M  V30 15 C 9.567540 4.074233 -18.933350 0
M  V30 16 C 9.949410 4.644658 -17.558498 0
M  V30 17 C 11.474779 4.539615 -17.296471 0 CFG=1
M  V30 18 N 11.878281 5.044450 -15.950305 0 CHG=1
M  V30 19 C 11.135096 4.427247 -14.811471 0
M  V30 20 C 11.708035 4.870241 -13.467397 0
M  V30 21 N 11.728556 6.320981 -13.427551 0
M  V30 22 C 11.280931 6.976248 -12.270277 0
M  V30 23 C 12.176746 7.770615 -11.522567 0
M  V30 24 C 11.754972 8.415380 -10.344879 0
M  V30 25 C 10.415109 8.323463 -9.940531 0
M  V30 26 C 9.509718 7.561875 -10.697787 0
M  V30 27 C 9.936417 6.850010 -11.847107 0
M  V30 28 O 9.098640 6.032894 -12.583848 0
M  V30 29 C 8.008697 5.397449 -11.921021 0
M  V30 30 C 8.508608 4.572879 -10.723516 0
M  V30 31 C 7.346616 4.456504 -12.939715 0
M  V30 32 C 12.435972 7.025308 -14.483022 0
M  V30 33 C 11.947666 6.536115 -15.865244 0
M  V30 34 C 11.995357 3.098864 -17.532282 0
M  V30 35 C 11.564682 2.542696 -18.901478 0
M  V30 36 H 7.100299 -2.055704 -21.127874 0
M  V30 37 H 6.295996 -3.107005 -19.966354 0
M  V30 38 H 5.425502 -1.729970 -20.692554 0
M  V30 39 H 4.455813 -2.458677 -18.674244 0
M  V30 40 H 3.223620 -2.201653 -16.583265 0
M  V30 41 H 6.208410 0.513517 -15.098700 0
M  V30 42 H 8.455593 0.288047 -16.500261 0
M  V30 43 H 9.960579 1.295537 -17.439981 0
M  V30 44 H 9.798091 2.271849 -20.103481 0
M  V30 45 H 8.490366 4.151886 -19.084629 0
M  V30 46 H 10.020389 4.683507 -19.716961 0
M  V30 47 H 9.379501 4.096203 -16.809603 0
M  V30 48 H 9.620205 5.682768 -17.497484 0
M  V30 49 H 11.975117 5.165833 -18.036627 0
M  V30 50 H 11.160695 3.338791 -14.858836 0
M  V30 51 H 10.084362 4.723823 -14.841305 0
M  V30 52 H 12.725470 4.495495 -13.343003 0
M  V30 53 H 11.113775 4.459440 -12.647558 0
M  V30 54 H 13.202017 7.877419 -11.845327 0
M  V30 55 H 12.461011 8.990870 -9.764162 0
M  V30 56 H 10.075514 8.834482 -9.049649 0
M  V30 57 H 8.486355 7.510366 -10.365752 0
M  V30 58 H 7.276389 6.137531 -11.602677 0
M  V30 59 H 7.686048 4.005416 -10.291737 0
M  V30 60 H 9.288521 3.878716 -11.040901 0
M  V30 61 H 8.914326 5.177251 -9.913054 0
M  V30 62 H 6.475500 3.965571 -12.504045 0
M  V30 63 H 7.014335 4.978277 -13.835006 0
M  V30 64 H 8.041327 3.678989 -13.258130 0
M  V30 65 H 12.285100 8.103044 -14.394834 0
M  V30 66 H 13.507901 6.846156 -14.379456 0
M  V30 67 H 12.612422 6.921739 -16.638599 0
M  V30 68 H 10.967400 6.968478 -16.065481 0
M  V30 69 H 13.083313 3.079370 -17.459253 0
M  V30 70 H 11.633177 2.418617 -16.762747 0
M  V30 71 H 11.913593 1.515664 -19.013716 0
M  V30 72 H 12.052563 3.112766 -19.692074 0
M  V30 73 H 12.837122 4.747205 -15.829347 0
M  V30 END ATOM
M  V30 BEGIN BOND
M  V30 1 1 2 1
M  V30 2 1 3 2
M  V30 3 1 4 3
M  V30 4 2 5 4
M  V30 5 1 6 5
M  V30 6 1 7 6
M  V30 7 2 8 6
M  V30 8 2 9 3
M  V30 9 1 9 8
M  V30 10 1 10 9
M  V30 11 1 11 10
M  V30 12 2 12 11
M  V30 13 1 13 11
M  V30 14 1 14 13
M  V30 15 1 15 14
M  V30 16 1 16 15
M  V30 17 1 17 16
M  V30 18 1 18 17
M  V30 19 1 19 18
M  V30 20 1 20 19
M  V30 21 1 21 20
M  V30 22 1 22 21
M  V30 23 2 23 22
M  V30 24 1 24 23
M  V30 25 2 25 24
M  V30 26 1 26 25
M  V30 27 1 27 22
M  V30 28 2 27 26
M  V30 29 1 28 27
M  V30 30 1 29 28
M  V30 31 1 30 29
M  V30 32 1 31 29
M  V30 33 1 32 21
M  V30 34 1 33 18
M  V30 35 1 33 32
M  V30 36 1 34 17
M  V30 37 1 35 14
M  V30 38 1 35 34
M  V30 39 1 36 1
M  V30 40 1 37 1
M  V30 41 1 38 1
M  V30 42 1 39 4
M  V30 43 1 40 5
M  V30 44 1 41 8
M  V30 45 1 42 10
M  V30 46 1 43 13
M  V30 47 1 14 44 CFG=3
M  V30 48 1 45 15
M  V30 49 1 46 15
M  V30 50 1 47 16
M  V30 51 1 48 16
M  V30 52 1 17 49 CFG=3
M  V30 53 1 50 19
M  V30 54 1 51 19
M  V30 55 1 52 20
M  V30 56 1 53 20
M  V30 57 1 54 23
M  V30 58 1 55 24
M  V30 59 1 56 25
M  V30 60 1 57 26
M  V30 61 1 58 29
M  V30 62 1 59 30
M  V30 63 1 60 30
M  V30 64 1 61 30
M  V30 65 1 62 31
M  V30 66 1 63 31
M  V30 67 1 64 31
M  V30 68 1 65 32
M  V30 69 1 66 32
M  V30 70 1 67 33
M  V30 71 1 68 33
M  V30 72 1 69 34
M  V30 73 1 70 34
M  V30 74 1 71 35
M  V30 75 1 72 35
M  V30 76 1 73 18
M  V30 END BOND
M  V30 END CTAB
M  END
>  <b_m_subgroup_collapsed>  (2434) 
0

>  <r_i_docking_score>  (2434) 
-5.6320250832800802

>  <s_m_subgroup_title>  (2434) 
glide-dock_SP_D22_pv

>  <s_m_subgroupid>  (2434) 
glide-dock_SP_D22_pv

>  <Molecule ChEMBL ID>  (2434) 
CHEMBL271913

>  <Standard Type>  (2434) 
Ki

>  <Standard Value>  (2434) 
1.2

>  <label>  (2434) 
1

$$$$
CHEMBL133085
     RDKit          3D

  0  0  0  0  0  0  0  0  0  0999 V3000
M  V30 BEGIN CTAB
M  V30 COUNTS 39 40 0 0 1
M  V30 BEGIN ATOM
M  V30 1 C 8.492401 3.772971 -8.421365 0
M  V30 2 C 9.605411 4.409462 -9.249227 0
M  V30 3 C 9.262651 5.848278 -9.675661 0
M  V30 4 N 10.486025 6.654510 -9.695438 0
M  V30 5 C 10.600497 7.505519 -10.882996 0
M  V30 6 C 10.822572 6.702833 -12.152329 0
M  V30 7 C 11.881007 6.861728 -12.961757 0
M  V30 8 I 12.083353 5.632615 -14.721248 0
M  V30 9 C 10.748001 7.403244 -8.453965 0 CFG=1
M  V30 10 C 9.742046 8.527583 -8.148571 0
M  V30 11 O 10.281612 9.372326 -7.142187 0
M  V30 12 C 10.843871 8.779967 -6.033614 0
M  V30 13 C 11.165948 9.606769 -4.945643 0
M  V30 14 O 10.886013 10.931847 -5.046864 0
M  V30 15 C 11.749788 9.074018 -3.780500 0
M  V30 16 C 12.006805 7.691232 -3.701149 0
M  V30 17 C 11.686017 6.854308 -4.789120 0
M  V30 18 C 11.131449 7.399395 -5.967327 0
M  V30 19 C 10.879078 6.533220 -7.184642 0
M  V30 20 H 8.852616 2.919791 -7.846882 0
M  V30 21 H 8.066442 4.511356 -7.748268 0
M  V30 22 H 7.686022 3.419012 -9.046881 0
M  V30 23 H 9.840684 3.803503 -10.123978 0
M  V30 24 H 10.507136 4.387070 -8.646862 0
M  V30 25 H 8.524607 6.298511 -9.012095 0
M  V30 26 H 8.774973 5.817019 -10.649741 0
M  V30 27 H 9.699492 8.108610 -11.003479 0
M  V30 28 H 11.436797 8.196879 -10.767715 0
M  V30 29 H 10.076704 5.965111 -12.407984 0
M  V30 30 H 12.674055 7.575565 -12.792214 0
M  V30 31 H 11.719626 7.877355 -8.603346 0
M  V30 32 H 8.779993 8.137390 -7.813014 0
M  V30 33 H 9.545693 9.149566 -9.020904 0
M  V30 34 H 10.545793 11.126676 -5.907909 0
M  V30 35 H 11.990675 9.721092 -2.949071 0
M  V30 36 H 12.446639 7.272058 -2.808173 0
M  V30 37 H 11.893983 5.795811 -4.729972 0
M  V30 38 H 11.686022 5.809412 -7.285901 0
M  V30 39 H 9.960542 5.980071 -6.992147 0
M  V30 END ATOM
M  V30 BEGIN BOND
M  V30 1 1 2 1
M  V30 2 1 3 2
M  V30 3 1 4 3
M  V30 4 1 5 4
M  V30 5 1 6 5
M  V30 6 2 7 6
M  V30 7 1 8 7
M  V30 8 1 9 4
M  V30 9 1 10 9
M  V30 10 1 11 10
M  V30 11 1 12 11
M  V30 12 2 13 12
M  V30 13 1 14 13
M  V30 14 1 15 13
M  V30 15 2 16 15
M  V30 16 1 17 16
M  V30 17 1 18 12
M  V30 18 2 18 17
M  V30 19 1 19 9
M  V30 20 1 19 18
M  V30 21 1 20 1
M  V30 22 1 21 1
M  V30 23 1 22 1
M  V30 24 1 23 2
M  V30 25 1 24 2
M  V30 26 1 25 3
M  V30 27 1 26 3
M  V30 28 1 27 5
M  V30 29 1 28 5
M  V30 30 1 29 6
M  V30 31 1 30 7
M  V30 32 1 9 31 CFG=3
M  V30 33 1 32 10
M  V30 34 1 33 10
M  V30 35 1 34 14
M  V30 36 1 35 15
M  V30 37 1 36 16
M  V30 38 1 37 17
M  V30 39 1 38 19
M  V30 40 1 39 19
M  V30 END BOND
M  V30 END CTAB
M  END
>  <b_m_subgroup_collapsed>  (2435) 
0

>  <r_i_docking_score>  (2435) 
-5.6310115606507498

>  <s_m_subgroup_title>  (2435) 
glide-dock_SP_D22_pv

>  <s_m_subgroupid>  (2435) 
glide-dock_SP_D22_pv

>  <Molecule ChEMBL ID>  (2435) 
CHEMBL133085

>  <Standard Type>  (2435) 
Ki

>  <Standard Value>  (2435) 
10.8

>  <label>  (2435) 
1

$$$$
CHEMBL1258085
     RDKit          3D

  0  0  0  0  0  0  0  0  0  0999 V3000
M  V30 BEGIN CTAB
M  V30 COUNTS 57 61 0 0 1
M  V30 BEGIN ATOM
M  V30 1 O 5.365280 0.481133 -20.515005 0
M  V30 2 C 4.881833 -0.265025 -19.666771 0
M  V30 3 N 3.966454 -1.229745 -19.846958 0
M  V30 4 C 3.545553 -1.895814 -18.602831 0
M  V30 5 C 4.412888 -1.210323 -17.578362 0
M  V30 6 C 4.510747 -1.428279 -16.194803 0
M  V30 7 C 5.471073 -0.675647 -15.476991 0
M  V30 8 C 6.309799 0.265421 -16.142916 0
M  V30 9 O 7.318769 0.965887 -15.526229 0
M  V30 10 C 7.156152 1.403314 -14.185374 0
M  V30 11 C 6.326764 2.703369 -14.161669 0
M  V30 12 C 6.421707 3.591058 -12.904346 0
M  V30 13 N 7.467945 4.618508 -13.004738 0
M  V30 14 C 7.124861 5.755167 -12.124919 0
M  V30 15 C 8.261281 6.808452 -12.097984 0
M  V30 16 N 9.503269 6.164973 -11.722372 0
M  V30 17 C 10.436637 6.856656 -10.943321 0
M  V30 18 C 11.542304 7.422803 -11.605072 0
M  V30 19 C 12.486266 8.172690 -10.889893 0
M  V30 20 C 12.330700 8.368327 -9.508711 0
M  V30 21 C 11.246722 7.793303 -8.826045 0
M  V30 22 C 11.129134 8.010325 -7.437800 0
M  V30 23 C 10.081533 7.414114 -6.717326 0
M  V30 24 C 9.174381 6.573743 -7.383283 0
M  V30 25 C 9.292716 6.344698 -8.767630 0
M  V30 26 F 8.460846 5.439035 -9.325686 0
M  V30 27 C 10.303020 6.994906 -9.527741 0
M  V30 28 C 9.879969 5.113033 -12.638853 0
M  V30 29 C 8.761625 4.070733 -12.568255 0
M  V30 30 C 6.165521 0.475712 -17.534197 0
M  V30 31 F 6.943388 1.378033 -18.181946 0
M  V30 32 C 5.202394 -0.276345 -18.222025 0
M  V30 33 H 3.570194 -1.443450 -20.751842 0
M  V30 34 H 3.746019 -2.967130 -18.633734 0
M  V30 35 H 2.487374 -1.732040 -18.403696 0
M  V30 36 H 3.895046 -2.171684 -15.707261 0
M  V30 37 H 5.583109 -0.874145 -14.423194 0
M  V30 38 H 6.746070 0.650997 -13.513243 0
M  V30 39 H 8.172121 1.564310 -13.846045 0
M  V30 40 H 6.539146 3.300936 -15.046103 0
M  V30 41 H 5.285756 2.400397 -14.246857 0
M  V30 42 H 5.466020 4.112952 -12.834335 0
M  V30 43 H 6.485890 2.989694 -11.995084 0
M  V30 44 H 6.205601 6.227776 -12.472791 0
M  V30 45 H 6.922716 5.397600 -11.115063 0
M  V30 46 H 8.368111 7.245506 -13.082500 0
M  V30 47 H 8.085361 7.653278 -11.444337 0
M  V30 48 H 11.658782 7.305859 -12.672980 0
M  V30 49 H 13.325025 8.616760 -11.405412 0
M  V30 50 H 13.054766 8.967848 -8.974826 0
M  V30 51 H 11.845272 8.631425 -6.919503 0
M  V30 52 H 9.985770 7.577357 -5.654726 0
M  V30 53 H 8.381640 6.092098 -6.829731 0
M  V30 54 H 9.985201 5.506811 -13.650461 0
M  V30 55 H 10.831764 4.663867 -12.364474 0
M  V30 56 H 8.676278 3.763840 -11.526764 0
M  V30 57 H 9.065318 3.219801 -13.165632 0
M  V30 END ATOM
M  V30 BEGIN BOND
M  V30 1 2 2 1
M  V30 2 1 3 2
M  V30 3 1 4 3
M  V30 4 1 5 4
M  V30 5 1 6 5
M  V30 6 2 7 6
M  V30 7 1 8 7
M  V30 8 1 9 8
M  V30 9 1 10 9
M  V30 10 1 11 10
M  V30 11 1 12 11
M  V30 12 1 13 12
M  V30 13 1 14 13
M  V30 14 1 15 14
M  V30 15 1 16 15
M  V30 16 1 17 16
M  V30 17 2 18 17
M  V30 18 1 19 18
M  V30 19 2 20 19
M  V30 20 1 21 20
M  V30 21 2 22 21
M  V30 22 1 23 22
M  V30 23 2 24 23
M  V30 24 1 25 24
M  V30 25 1 26 25
M  V30 26 1 27 17
M  V30 27 1 27 21
M  V30 28 2 27 25
M  V30 29 1 28 16
M  V30 30 1 29 13
M  V30 31 1 29 28
M  V30 32 2 30 8
M  V30 33 1 31 30
M  V30 34 1 32 2
M  V30 35 2 32 5
M  V30 36 1 32 30
M  V30 37 1 33 3
M  V30 38 1 34 4
M  V30 39 1 35 4
M  V30 40 1 36 6
M  V30 41 1 37 7
M  V30 42 1 38 10
M  V30 43 1 39 10
M  V30 44 1 40 11
M  V30 45 1 41 11
M  V30 46 1 42 12
M  V30 47 1 43 12
M  V30 48 1 44 14
M  V30 49 1 45 14
M  V30 50 1 46 15
M  V30 51 1 47 15
M  V30 52 1 48 18
M  V30 53 1 49 19
M  V30 54 1 50 20
M  V30 55 1 51 22
M  V30 56 1 52 23
M  V30 57 1 53 24
M  V30 58 1 54 28
M  V30 59 1 55 28
M  V30 60 1 56 29
M  V30 61 1 57 29
M  V30 END BOND
M  V30 END CTAB
M  END
>  <b_m_subgroup_collapsed>  (2436) 
0

>  <r_i_docking_score>  (2436) 
-5.6293450818786201

>  <s_m_subgroup_title>  (2436) 
glide-dock_SP_D22_pv

>  <s_m_subgroupid>  (2436) 
glide-dock_SP_D22_pv

>  <Molecule ChEMBL ID>  (2436) 
CHEMBL1258085

>  <Standard Type>  (2436) 
Ki

>  <Standard Value>  (2436) 
5.49

>  <label>  (2436) 
1

$$$$
CHEMBL537975
     RDKit          3D

  0  0  0  0  0  0  0  0  0  0999 V3000
M  V30 BEGIN CTAB
M  V30 COUNTS 64 67 0 0 1
M  V30 BEGIN ATOM
M  V30 1 C 10.430947 6.972172 -5.405663 0
M  V30 2 C 9.503063 6.707507 -6.595520 0
M  V30 3 O 9.440571 7.766847 -7.549773 0
M  V30 4 C 10.553527 7.914160 -8.337228 0
M  V30 5 C 11.716043 8.476356 -7.777575 0
M  V30 6 C 12.886001 8.572296 -8.537847 0
M  V30 7 C 12.888114 8.172326 -9.882259 0
M  V30 8 C 11.712595 7.717031 -10.483750 0
M  V30 9 C 10.545645 7.564720 -9.714548 0
M  V30 10 N 9.429116 7.022392 -10.351547 0
M  V30 11 C 8.710652 5.936409 -9.716772 0
M  V30 12 C 8.300520 4.909001 -10.755417 0
M  V30 13 N 7.588232 5.529660 -11.901779 0 CHG=1
M  V30 14 C 7.209642 4.510051 -12.907882 0
M  V30 15 C 6.112368 3.552355 -12.436978 0
M  V30 16 C 5.996101 2.381739 -13.409666 0
M  V30 17 C 4.997835 1.339902 -12.918760 0
M  V30 18 C 4.682603 0.311752 -13.943283 0
M  V30 19 C 5.386004 -0.233102 -14.980650 0
M  V30 20 C 4.426834 -1.049657 -15.638479 0
M  V30 21 C 4.573537 -1.853472 -16.843243 0
M  V30 22 C 3.991789 -1.444845 -18.060305 0
M  V30 23 C 4.137935 -2.241334 -19.211399 0
M  V30 24 C 4.859303 -3.450152 -19.146261 0
M  V30 25 C 5.436898 -3.878972 -17.927790 0
M  V30 26 N 6.181381 -5.151721 -17.848978 0 CHG=1
M  V30 27 O 6.421173 -5.747902 -18.894627 0
M  V30 28 O 6.541819 -5.552850 -16.746407 0 CHG=-1
M  V30 29 C 5.286016 -3.065782 -16.782759 0
M  V30 30 N 3.268759 -1.027749 -15.010614 0
M  V30 31 O 3.424567 -0.183087 -13.912910 0
M  V30 32 C 8.380610 6.615445 -12.540086 0
M  V30 33 C 8.886160 7.666713 -11.539877 0
M  V30 34 H 10.213505 6.280406 -4.592922 0
M  V30 35 H 11.476788 6.818130 -5.669167 0
M  V30 36 H 10.315351 7.992796 -5.046850 0
M  V30 37 H 8.485413 6.548263 -6.246794 0
M  V30 38 H 9.810566 5.772176 -7.054196 0
M  V30 39 H 11.727724 8.822985 -6.756340 0
M  V30 40 H 13.779935 8.977501 -8.093182 0
M  V30 41 H 13.789129 8.274189 -10.467461 0
M  V30 42 H 11.727431 7.436182 -11.526561 0
M  V30 43 H 7.849999 6.308675 -9.164358 0
M  V30 44 H 9.360410 5.424347 -9.013767 0
M  V30 45 H 7.685982 4.172441 -10.246918 0
M  V30 46 H 9.188265 4.387132 -11.117755 0
M  V30 47 H 8.104744 3.948610 -13.182773 0
M  V30 48 H 6.864243 4.979770 -13.827360 0
M  V30 49 H 5.163268 4.084605 -12.361968 0
M  V30 50 H 6.309099 3.149109 -11.447428 0
M  V30 51 H 6.963253 1.906092 -13.570735 0
M  V30 52 H 5.686669 2.777291 -14.374354 0
M  V30 53 H 4.085979 1.864980 -12.646904 0
M  V30 54 H 5.365531 0.857204 -12.012665 0
M  V30 55 H 6.411404 -0.044825 -15.260803 0
M  V30 56 H 3.425084 -0.526660 -18.111378 0
M  V30 57 H 3.690555 -1.928554 -20.144054 0
M  V30 58 H 4.954402 -4.052671 -20.037584 0
M  V30 59 H 5.692608 -3.380781 -15.833853 0
M  V30 60 H 9.239230 6.170999 -13.046391 0
M  V30 61 H 7.776049 7.105005 -13.303834 0
M  V30 62 H 8.086049 8.348495 -11.259718 0
M  V30 63 H 9.634156 8.294332 -12.023966 0
M  V30 64 H 6.759889 5.974189 -11.520945 0
M  V30 END ATOM
M  V30 BEGIN BOND
M  V30 1 1 2 1
M  V30 2 1 3 2
M  V30 3 1 4 3
M  V30 4 2 5 4
M  V30 5 1 6 5
M  V30 6 2 7 6
M  V30 7 1 8 7
M  V30 8 1 9 4
M  V30 9 2 9 8
M  V30 10 1 10 9
M  V30 11 1 11 10
M  V30 12 1 12 11
M  V30 13 1 13 12
M  V30 14 1 14 13
M  V30 15 1 15 14
M  V30 16 1 16 15
M  V30 17 1 17 16
M  V30 18 1 18 17
M  V30 19 2 19 18
M  V30 20 1 20 19
M  V30 21 1 21 20
M  V30 22 1 22 21
M  V30 23 2 23 22
M  V30 24 1 24 23
M  V30 25 2 25 24
M  V30 26 1 26 25
M  V30 27 2 27 26
M  V30 28 1 28 26
M  V30 29 2 29 21
M  V30 30 1 29 25
M  V30 31 2 30 20
M  V30 32 1 31 18
M  V30 33 1 31 30
M  V30 34 1 32 13
M  V30 35 1 33 10
M  V30 36 1 33 32
M  V30 37 1 34 1
M  V30 38 1 35 1
M  V30 39 1 36 1
M  V30 40 1 37 2
M  V30 41 1 38 2
M  V30 42 1 39 5
M  V30 43 1 40 6
M  V30 44 1 41 7
M  V30 45 1 42 8
M  V30 46 1 43 11
M  V30 47 1 44 11
M  V30 48 1 45 12
M  V30 49 1 46 12
M  V30 50 1 47 14
M  V30 51 1 48 14
M  V30 52 1 49 15
M  V30 53 1 50 15
M  V30 54 1 51 16
M  V30 55 1 52 16
M  V30 56 1 53 17
M  V30 57 1 54 17
M  V30 58 1 55 19
M  V30 59 1 56 22
M  V30 60 1 57 23
M  V30 61 1 58 24
M  V30 62 1 59 29
M  V30 63 1 60 32
M  V30 64 1 61 32
M  V30 65 1 62 33
M  V30 66 1 63 33
M  V30 67 1 64 13
M  V30 END BOND
M  V30 END CTAB
M  END
>  <b_m_subgroup_collapsed>  (2437) 
0

>  <r_i_docking_score>  (2437) 
-5.6270004627953298

>  <s_m_subgroup_title>  (2437) 
glide-dock_SP_D22_pv

>  <s_m_subgroupid>  (2437) 
glide-dock_SP_D22_pv

>  <Molecule ChEMBL ID>  (2437) 
CHEMBL537975

>  <Standard Type>  (2437) 
Ki

>  <Standard Value>  (2437) 
95.0

>  <label>  (2437) 
1

$$$$
CHEMBL379450
     RDKit          3D

  0  0  0  0  0  0  0  0  0  0999 V3000
M  V30 BEGIN CTAB
M  V30 COUNTS 58 62 0 0 1
M  V30 BEGIN ATOM
M  V30 1 C 8.928738 8.518837 -21.248348 0
M  V30 2 C 7.984974 7.651733 -20.664461 0
M  V30 3 C 8.417252 6.567421 -19.874920 0
M  V30 4 C 9.792500 6.342801 -19.664024 0
M  V30 5 C 10.253432 5.161542 -18.828070 0
M  V30 6 C 10.897175 5.603543 -17.499632 0
M  V30 7 N 11.352765 4.473385 -16.643265 0 CFG=1 CHG=1
M  V30 8 C 12.510357 3.727665 -17.222321 0
M  V30 9 C 12.349703 2.198190 -17.137173 0
M  V30 10 C 11.055457 1.684108 -17.752811 0
M  V30 11 C 10.949278 1.710919 -19.160702 0
M  V30 12 C 9.781878 1.262194 -19.806261 0
M  V30 13 C 8.708117 0.770127 -19.046543 0
M  V30 14 C 8.805820 0.724128 -17.644920 0
M  V30 15 C 9.970115 1.176159 -16.982347 0
M  V30 16 C 9.993350 1.064836 -15.457992 0
M  V30 17 C 9.334099 2.223625 -14.775568 0
M  V30 18 N 7.961036 2.237205 -14.585236 0
M  V30 19 C 7.569046 3.348513 -13.865695 0
M  V30 20 C 6.317526 3.773545 -13.386191 0
M  V30 21 C 6.234168 4.970068 -12.648156 0
M  V30 22 C 7.397246 5.729107 -12.417866 0
M  V30 23 C 8.646059 5.295927 -12.908518 0
M  V30 24 C 8.763480 4.088090 -13.637397 0
M  V30 25 C 9.862723 3.372860 -14.231359 0
M  V30 26 C 11.297340 3.813413 -14.206278 0
M  V30 27 C 11.588254 4.913686 -15.238902 0
M  V30 28 C 10.736311 7.215792 -20.246742 0
M  V30 29 C 10.304988 8.301939 -21.035353 0
M  V30 30 H 8.600385 9.349777 -21.856817 0
M  V30 31 H 6.927837 7.814886 -20.820700 0
M  V30 32 H 7.686565 5.902302 -19.439001 0
M  V30 33 H 9.404213 4.505024 -18.628735 0
M  V30 34 H 10.941743 4.585957 -19.444118 0
M  V30 35 H 11.731341 6.285269 -17.678520 0
M  V30 36 H 10.133574 6.171809 -16.966976 0
M  V30 37 H 12.654448 3.990929 -18.269688 0
M  V30 38 H 13.444252 4.024277 -16.742512 0
M  V30 39 H 13.176118 1.733670 -17.677631 0
M  V30 40 H 12.481266 1.857599 -16.118925 0
M  V30 41 H 11.768666 2.082463 -19.758942 0
M  V30 42 H 9.714136 1.292674 -20.884069 0
M  V30 43 H 7.811310 0.418745 -19.539108 0
M  V30 44 H 7.974875 0.329265 -17.075117 0
M  V30 45 H 9.459496 0.151151 -15.187989 0
M  V30 46 H 10.990542 0.898264 -15.062436 0
M  V30 47 H 7.349904 1.496912 -14.898761 0
M  V30 48 H 5.428891 3.184964 -13.568416 0
M  V30 49 H 5.287178 5.310003 -12.256941 0
M  V30 50 H 7.325181 6.643193 -11.847808 0
M  V30 51 H 9.524516 5.889498 -12.708243 0
M  V30 52 H 11.530035 4.206628 -13.214523 0
M  V30 53 H 11.970379 2.971215 -14.331511 0
M  V30 54 H 12.605731 5.291075 -15.120650 0
M  V30 55 H 10.943703 5.760182 -14.991818 0
M  V30 56 H 11.794248 7.055792 -20.097008 0
M  V30 57 H 11.029807 8.969387 -21.480301 0
M  V30 58 H 10.573071 3.827301 -16.610609 0
M  V30 END ATOM
M  V30 BEGIN BOND
M  V30 1 2 2 1
M  V30 2 1 3 2
M  V30 3 2 4 3
M  V30 4 1 5 4
M  V30 5 1 6 5
M  V30 6 1 7 6
M  V30 7 1 8 7
M  V30 8 1 9 8
M  V30 9 1 10 9
M  V30 10 2 11 10
M  V30 11 1 12 11
M  V30 12 2 13 12
M  V30 13 1 14 13
M  V30 14 1 15 10
M  V30 15 2 15 14
M  V30 16 1 16 15
M  V30 17 1 17 16
M  V30 18 1 18 17
M  V30 19 1 19 18
M  V30 20 2 20 19
M  V30 21 1 21 20
M  V30 22 2 22 21
M  V30 23 1 23 22
M  V30 24 1 24 19
M  V30 25 2 24 23
M  V30 26 2 25 17
M  V30 27 1 25 24
M  V30 28 1 26 25
M  V30 29 1 27 7
M  V30 30 1 27 26
M  V30 31 1 28 4
M  V30 32 1 29 1
M  V30 33 2 29 28
M  V30 34 1 30 1
M  V30 35 1 31 2
M  V30 36 1 32 3
M  V30 37 1 33 5
M  V30 38 1 34 5
M  V30 39 1 35 6
M  V30 40 1 36 6
M  V30 41 1 37 8
M  V30 42 1 38 8
M  V30 43 1 39 9
M  V30 44 1 40 9
M  V30 45 1 41 11
M  V30 46 1 42 12
M  V30 47 1 43 13
M  V30 48 1 44 14
M  V30 49 1 45 16
M  V30 50 1 46 16
M  V30 51 1 47 18
M  V30 52 1 48 20
M  V30 53 1 49 21
M  V30 54 1 50 22
M  V30 55 1 51 23
M  V30 56 1 52 26
M  V30 57 1 53 26
M  V30 58 1 54 27
M  V30 59 1 55 27
M  V30 60 1 56 28
M  V30 61 1 57 29
M  V30 62 1 7 58 CFG=1
M  V30 END BOND
M  V30 END CTAB
M  END
>  <b_m_subgroup_collapsed>  (2438) 
0

>  <r_i_docking_score>  (2438) 
-5.6262811321126804

>  <s_m_subgroup_title>  (2438) 
glide-dock_SP_D22_pv

>  <s_m_subgroupid>  (2438) 
glide-dock_SP_D22_pv

>  <Molecule ChEMBL ID>  (2438) 
CHEMBL379450

>  <Standard Type>  (2438) 
Ki

>  <Standard Value>  (2438) 
10000.0

>  <label>  (2438) 
0

$$$$
CHEMBL490533
     RDKit          3D

  0  0  0  0  0  0  0  0  0  0999 V3000
M  V30 BEGIN CTAB
M  V30 COUNTS 47 51 0 0 1
M  V30 BEGIN ATOM
M  V30 1 C 11.380062 7.775432 -11.085459 0
M  V30 2 O 11.480269 7.092218 -12.327439 0
M  V30 3 C 10.502626 6.172084 -12.646202 0
M  V30 4 C 9.330404 5.974862 -11.870652 0
M  V30 5 C 8.389960 4.995896 -12.236579 0
M  V30 6 C 8.610000 4.225373 -13.391809 0
M  V30 7 C 9.747316 4.429503 -14.188317 0
M  V30 8 C 10.712683 5.382726 -13.802700 0
M  V30 9 O 11.845776 5.573913 -14.550365 0
M  V30 10 C 12.885361 4.660424 -14.241014 0
M  V30 11 C 9.871163 3.576194 -15.438002 0
M  V30 12 N 9.650386 2.149898 -15.086323 0 CFG=2 CHG=1
M  V30 13 C 9.934331 1.215316 -16.202188 0
M  V30 14 C 8.743032 1.108201 -17.160017 0
M  V30 15 C 7.510752 0.663055 -16.406124 0
M  V30 16 C 6.493524 -0.049943 -17.081366 0
M  V30 17 C 5.373555 -0.447208 -16.337080 0
M  V30 18 C 5.273768 -0.200704 -14.984511 0
M  V30 19 C 6.272907 0.487400 -14.287056 0
M  V30 20 C 7.385346 0.963714 -15.020904 0
M  V30 21 C 8.387213 1.871722 -14.315915 0 CFG=2
M  V30 22 C 7.647256 3.156208 -13.840454 0
M  V30 23 O 4.083053 -0.646729 -14.519878 0
M  V30 24 C 3.427925 -1.182791 -15.635725 0
M  V30 25 O 4.246078 -1.057946 -16.768330 0
M  V30 26 H 12.254043 8.414411 -10.954637 0
M  V30 27 H 11.354260 7.078403 -10.246256 0
M  V30 28 H 10.497853 8.416239 -11.048556 0
M  V30 29 H 9.127762 6.560032 -10.986182 0
M  V30 30 H 7.507470 4.847717 -11.629733 0
M  V30 31 H 13.807778 4.975516 -14.726764 0
M  V30 32 H 12.649536 3.662662 -14.605252 0
M  V30 33 H 13.062284 4.597335 -13.166101 0
M  V30 34 H 9.128673 3.903354 -16.166382 0
M  V30 35 H 10.842179 3.706113 -15.912390 0
M  V30 36 H 10.836261 1.518712 -16.735817 0
M  V30 37 H 10.148476 0.232153 -15.779110 0
M  V30 38 H 8.543559 2.060701 -17.650528 0
M  V30 39 H 8.968825 0.387341 -17.946619 0
M  V30 40 H 6.558136 -0.267442 -18.137463 0
M  V30 41 H 6.152618 0.701344 -13.234224 0
M  V30 42 H 8.740109 1.317863 -13.447024 0
M  V30 43 H 6.931641 2.942879 -13.046295 0
M  V30 44 H 7.051902 3.579172 -14.646542 0
M  V30 45 H 3.251796 -2.231766 -15.447841 0
M  V30 46 H 2.485556 -0.664055 -15.797894 0
M  V30 47 H 10.379493 1.972470 -14.411119 0
M  V30 END ATOM
M  V30 BEGIN BOND
M  V30 1 1 2 1
M  V30 2 1 3 2
M  V30 3 1 4 3
M  V30 4 2 5 4
M  V30 5 1 6 5
M  V30 6 2 7 6
M  V30 7 2 8 3
M  V30 8 1 8 7
M  V30 9 1 9 8
M  V30 10 1 10 9
M  V30 11 1 11 7
M  V30 12 1 12 11
M  V30 13 1 13 12
M  V30 14 1 14 13
M  V30 15 1 15 14
M  V30 16 2 16 15
M  V30 17 1 17 16
M  V30 18 2 18 17
M  V30 19 1 19 18
M  V30 20 1 20 15
M  V30 21 2 20 19
M  V30 22 1 21 12
M  V30 23 1 21 20
M  V30 24 1 22 6
M  V30 25 1 22 21
M  V30 26 1 23 18
M  V30 27 1 24 23
M  V30 28 1 25 17
M  V30 29 1 25 24
M  V30 30 1 26 1
M  V30 31 1 27 1
M  V30 32 1 28 1
M  V30 33 1 29 4
M  V30 34 1 30 5
M  V30 35 1 31 10
M  V30 36 1 32 10
M  V30 37 1 33 10
M  V30 38 1 34 11
M  V30 39 1 35 11
M  V30 40 1 36 13
M  V30 41 1 37 13
M  V30 42 1 38 14
M  V30 43 1 39 14
M  V30 44 1 40 16
M  V30 45 1 41 19
M  V30 46 1 21 42 CFG=1
M  V30 47 1 43 22
M  V30 48 1 44 22
M  V30 49 1 45 24
M  V30 50 1 46 24
M  V30 51 1 12 47 CFG=1
M  V30 END BOND
M  V30 END CTAB
M  END
>  <b_m_subgroup_collapsed>  (2439) 
0

>  <r_i_docking_score>  (2439) 
-5.6246613970044201

>  <s_m_subgroup_title>  (2439) 
glide-dock_SP_D22_pv

>  <s_m_subgroupid>  (2439) 
glide-dock_SP_D22_pv

>  <Molecule ChEMBL ID>  (2439) 
CHEMBL490533

>  <Standard Type>  (2439) 
Ki

>  <Standard Value>  (2439) 
80.2

>  <label>  (2439) 
1

$$$$
CHEMBL596886
     RDKit          3D

  0  0  0  0  0  0  0  0  0  0999 V3000
M  V30 BEGIN CTAB
M  V30 COUNTS 48 51 0 0 1
M  V30 BEGIN ATOM
M  V30 1 C 11.026898 7.738249 -10.314410 0
M  V30 2 C 10.385098 7.449805 -11.458335 0
M  V30 3 C 9.074247 6.700757 -11.547488 0
M  V30 4 O 9.178286 5.653197 -12.506253 0
M  V30 5 C 8.072156 4.874116 -12.780085 0
M  V30 6 C 6.864887 5.022295 -12.051733 0
M  V30 7 C 5.775842 4.171405 -12.274716 0
M  V30 8 C 5.874726 3.146592 -13.219910 0
M  V30 9 C 7.063253 2.988551 -13.958318 0
M  V30 10 C 8.163584 3.867453 -13.787756 0
M  V30 11 C 9.359353 3.663709 -14.653761 0
M  V30 12 C 10.280750 4.697844 -14.964804 0
M  V30 13 C 11.432917 4.514860 -15.754793 0
M  V30 14 O 12.234040 5.619130 -15.953372 0
M  V30 15 C 13.399247 5.471309 -16.753839 0
M  V30 16 C 11.689153 3.240472 -16.298439 0
M  V30 17 C 10.796795 2.180016 -16.076113 0
M  V30 18 C 9.643395 2.418561 -15.277966 0
M  V30 19 C 8.616759 1.296754 -15.009607 0 CFG=1
M  V30 20 C 7.170927 1.829666 -14.920320 0
M  V30 21 N 8.732841 0.116921 -15.907823 0 CFG=1 CHG=1
M  V30 22 C 8.045979 0.227872 -17.222481 0
M  V30 23 C 10.141220 -0.302197 -16.021229 0
M  V30 24 C 10.961579 0.796265 -16.690561 0
M  V30 25 H 10.623425 7.440348 -9.358500 0
M  V30 26 H 11.961556 8.280682 -10.324965 0
M  V30 27 H 10.808177 7.770647 -12.397630 0
M  V30 28 H 8.817513 6.297988 -10.566257 0
M  V30 29 H 8.299508 7.409323 -11.845804 0
M  V30 30 H 6.747341 5.772580 -11.284532 0
M  V30 31 H 4.886039 4.297344 -11.685424 0
M  V30 32 H 5.042930 2.475527 -13.367359 0
M  V30 33 H 10.113686 5.700055 -14.599741 0
M  V30 34 H 13.916498 6.430673 -16.815334 0
M  V30 35 H 13.147651 5.166029 -17.771358 0
M  V30 36 H 14.090383 4.747590 -16.318796 0
M  V30 37 H 12.558031 3.055749 -16.912395 0
M  V30 38 H 8.875628 0.929934 -14.012334 0
M  V30 39 H 6.495057 1.028978 -14.618675 0
M  V30 40 H 6.827362 2.198568 -15.886615 0
M  V30 41 H 8.336777 1.137603 -17.752562 0
M  V30 42 H 6.960420 0.234183 -17.096910 0
M  V30 43 H 8.283739 -0.631155 -17.855036 0
M  V30 44 H 10.536565 -0.506374 -15.025556 0
M  V30 45 H 10.219603 -1.238337 -16.578609 0
M  V30 46 H 10.712934 0.869853 -17.752174 0
M  V30 47 H 12.019306 0.529553 -16.656935 0
M  V30 48 H 8.261845 -0.655160 -15.444593 0
M  V30 END ATOM
M  V30 BEGIN BOND
M  V30 1 2 2 1
M  V30 2 1 3 2
M  V30 3 1 4 3
M  V30 4 1 5 4
M  V30 5 2 6 5
M  V30 6 1 7 6
M  V30 7 2 8 7
M  V30 8 1 9 8
M  V30 9 1 10 5
M  V30 10 2 10 9
M  V30 11 1 11 10
M  V30 12 2 12 11
M  V30 13 1 13 12
M  V30 14 1 14 13
M  V30 15 1 15 14
M  V30 16 2 16 13
M  V30 17 1 17 16
M  V30 18 1 18 11
M  V30 19 2 18 17
M  V30 20 1 19 18
M  V30 21 1 20 9
M  V30 22 1 20 19
M  V30 23 1 21 19
M  V30 24 1 22 21
M  V30 25 1 23 21
M  V30 26 1 24 17
M  V30 27 1 24 23
M  V30 28 1 25 1
M  V30 29 1 26 1
M  V30 30 1 27 2
M  V30 31 1 28 3
M  V30 32 1 29 3
M  V30 33 1 30 6
M  V30 34 1 31 7
M  V30 35 1 32 8
M  V30 36 1 33 12
M  V30 37 1 34 15
M  V30 38 1 35 15
M  V30 39 1 36 15
M  V30 40 1 37 16
M  V30 41 1 19 38 CFG=1
M  V30 42 1 39 20
M  V30 43 1 40 20
M  V30 44 1 41 22
M  V30 45 1 42 22
M  V30 46 1 43 22
M  V30 47 1 44 23
M  V30 48 1 45 23
M  V30 49 1 46 24
M  V30 50 1 47 24
M  V30 51 1 21 48 CFG=1
M  V30 END BOND
M  V30 END CTAB
M  END
>  <b_m_subgroup_collapsed>  (2440) 
0

>  <r_i_docking_score>  (2440) 
-5.6228751185926003

>  <s_m_subgroup_title>  (2440) 
glide-dock_SP_D22_pv

>  <s_m_subgroupid>  (2440) 
glide-dock_SP_D22_pv

>  <Molecule ChEMBL ID>  (2440) 
CHEMBL596886

>  <Standard Type>  (2440) 
Ki

>  <Standard Value>  (2440) 
10000.0

>  <label>  (2440) 
0

$$$$
CHEMBL99654
     RDKit          3D

  0  0  0  0  0  0  0  0  0  0999 V3000
M  V30 BEGIN CTAB
M  V30 COUNTS 35 37 0 0 1
M  V30 BEGIN ATOM
M  V30 1 C 9.486867 0.158481 -17.231417 0
M  V30 2 C 9.429021 1.256458 -16.220524 0
M  V30 3 S 10.886041 2.047840 -15.713387 0
M  V30 4 C 10.014235 3.064541 -14.606014 0
M  V30 5 C 10.765404 4.040165 -13.758051 0
M  V30 6 C 8.658453 2.816621 -14.646761 0
M  V30 7 C 8.329916 1.775086 -15.578411 0
M  V30 8 C 6.926792 1.296947 -15.815007 0
M  V30 9 C 6.271467 0.602891 -14.588282 0
M  V30 10 C 5.155005 -0.344714 -15.087788 0
M  V30 11 C 7.286292 -0.286319 -13.843979 0
M  V30 12 C 5.661600 1.614115 -13.578992 0
M  V30 13 C 6.321903 2.972475 -13.435701 0
M  V30 14 C 5.804979 4.000755 -12.694198 0
M  V30 15 N 6.720282 5.019129 -12.699152 0
M  V30 16 N 7.807099 4.715111 -13.427079 0
M  V30 17 C 7.602428 3.472373 -13.855302 0
M  V30 18 H 9.026908 0.470640 -18.168800 0
M  V30 19 H 8.962727 -0.726432 -16.872406 0
M  V30 20 H 10.516394 -0.130379 -17.441317 0
M  V30 21 H 10.481635 3.940436 -12.709865 0
M  V30 22 H 10.556984 5.063811 -14.069455 0
M  V30 23 H 11.841745 3.882064 -13.829843 0
M  V30 24 H 6.329600 2.131112 -16.170639 0
M  V30 25 H 6.923137 0.596913 -16.650234 0
M  V30 26 H 4.393119 0.172386 -15.669168 0
M  V30 27 H 4.648839 -0.835356 -14.255354 0
M  V30 28 H 5.557685 -1.134919 -15.723926 0
M  V30 29 H 8.127523 0.276900 -13.443938 0
M  V30 30 H 7.686056 -1.027391 -14.529355 0
M  V30 31 H 6.828988 -0.826160 -13.013822 0
M  V30 32 H 4.618343 1.771494 -13.846786 0
M  V30 33 H 5.592803 1.140281 -12.599042 0
M  V30 34 H 4.885953 4.078345 -12.134621 0
M  V30 35 H 6.632056 5.894938 -12.194533 0
M  V30 END ATOM
M  V30 BEGIN BOND
M  V30 1 1 2 1
M  V30 2 1 3 2
M  V30 3 1 4 3
M  V30 4 1 5 4
M  V30 5 2 6 4
M  V30 6 2 7 2
M  V30 7 1 7 6
M  V30 8 1 8 7
M  V30 9 1 9 8
M  V30 10 1 10 9
M  V30 11 1 11 9
M  V30 12 1 12 9
M  V30 13 1 13 12
M  V30 14 2 14 13
M  V30 15 1 15 14
M  V30 16 1 16 15
M  V30 17 1 17 6
M  V30 18 1 17 13
M  V30 19 2 17 16
M  V30 20 1 18 1
M  V30 21 1 19 1
M  V30 22 1 20 1
M  V30 23 1 21 5
M  V30 24 1 22 5
M  V30 25 1 23 5
M  V30 26 1 24 8
M  V30 27 1 25 8
M  V30 28 1 26 10
M  V30 29 1 27 10
M  V30 30 1 28 10
M  V30 31 1 29 11
M  V30 32 1 30 11
M  V30 33 1 31 11
M  V30 34 1 32 12
M  V30 35 1 33 12
M  V30 36 1 34 14
M  V30 37 1 35 15
M  V30 END BOND
M  V30 END CTAB
M  END
>  <b_m_subgroup_collapsed>  (2441) 
0

>  <r_i_docking_score>  (2441) 
-5.6195144602348703

>  <s_m_subgroup_title>  (2441) 
glide-dock_SP_D22_pv

>  <s_m_subgroupid>  (2441) 
glide-dock_SP_D22_pv

>  <Molecule ChEMBL ID>  (2441) 
CHEMBL99654

>  <Standard Type>  (2441) 
Ki

>  <Standard Value>  (2441) 
10000.0

>  <label>  (2441) 
0

$$$$
CHEMBL294951
     RDKit          3D

  0  0  0  0  0  0  0  0  0  0999 V3000
M  V30 BEGIN CTAB
M  V30 COUNTS 43 46 0 0 1
M  V30 BEGIN ATOM
M  V30 1 C 3.526553 -1.395449 -15.334978 0
M  V30 2 N 4.834626 -0.951503 -14.806499 0 CHG=1
M  V30 3 C 5.807930 -0.668999 -15.887407 0
M  V30 4 C 7.160032 -0.243710 -15.304832 0
M  V30 5 C 7.003303 0.993208 -14.443984 0
M  V30 6 C 7.681235 2.154371 -14.655978 0
M  V30 7 C 8.560171 2.302964 -15.836293 0
M  V30 8 C 8.045244 2.173603 -17.146643 0
M  V30 9 C 8.885568 2.324922 -18.266319 0
M  V30 10 C 10.250919 2.609218 -18.086811 0
M  V30 11 C 10.774997 2.737496 -16.787354 0
M  V30 12 C 9.935982 2.582520 -15.663705 0
M  V30 13 C 10.525828 2.693245 -14.270147 0
M  V30 14 C 10.042936 3.929644 -13.494804 0
M  V30 15 C 8.559103 4.111673 -13.350546 0
M  V30 16 S 7.982786 5.441271 -12.377699 0
M  V30 17 C 6.323918 4.995268 -12.646870 0
M  V30 18 C 6.221706 3.893542 -13.453271 0
M  V30 19 C 7.499246 3.372243 -13.834148 0
M  V30 20 C 6.042636 0.682195 -13.299088 0
M  V30 21 C 4.690063 0.159977 -13.827716 0
M  V30 22 H 3.012178 -0.591764 -15.862658 0
M  V30 23 H 3.644895 -2.227707 -16.027163 0
M  V30 24 H 2.889196 -1.722099 -14.514106 0
M  V30 25 H 5.418389 0.113824 -16.540285 0
M  V30 26 H 5.939956 -1.560959 -16.500830 0
M  V30 27 H 7.905629 -0.158964 -16.091612 0
M  V30 28 H 7.533824 -1.027676 -14.647086 0
M  V30 29 H 6.996653 1.962848 -17.293266 0
M  V30 30 H 8.486770 2.224043 -19.265238 0
M  V30 31 H 10.897243 2.728667 -18.943781 0
M  V30 32 H 11.826565 2.948296 -16.656296 0
M  V30 33 H 10.267262 1.784976 -13.729948 0
M  V30 34 H 11.615444 2.703051 -14.326041 0
M  V30 35 H 10.449759 4.817405 -13.981550 0
M  V30 36 H 10.486138 3.911520 -12.499688 0
M  V30 37 H 5.541484 5.582049 -12.184499 0
M  V30 38 H 5.288205 3.448971 -13.766034 0
M  V30 39 H 6.503502 -0.091763 -12.682870 0
M  V30 40 H 5.885700 1.519299 -12.625554 0
M  V30 41 H 4.123897 0.972392 -14.272454 0
M  V30 42 H 4.084867 -0.194890 -12.997302 0
M  V30 43 H 5.222274 -1.736683 -14.301571 0
M  V30 END ATOM
M  V30 BEGIN BOND
M  V30 1 1 2 1
M  V30 2 1 3 2
M  V30 3 1 4 3
M  V30 4 1 5 4
M  V30 5 2 6 5
M  V30 6 1 7 6
M  V30 7 2 8 7
M  V30 8 1 9 8
M  V30 9 2 10 9
M  V30 10 1 11 10
M  V30 11 1 12 7
M  V30 12 2 12 11
M  V30 13 1 13 12
M  V30 14 1 14 13
M  V30 15 1 15 14
M  V30 16 1 16 15
M  V30 17 1 17 16
M  V30 18 2 18 17
M  V30 19 1 19 6
M  V30 20 2 19 15
M  V30 21 1 19 18
M  V30 22 1 20 5
M  V30 23 1 21 2
M  V30 24 1 21 20
M  V30 25 1 22 1
M  V30 26 1 23 1
M  V30 27 1 24 1
M  V30 28 1 25 3
M  V30 29 1 26 3
M  V30 30 1 27 4
M  V30 31 1 28 4
M  V30 32 1 29 8
M  V30 33 1 30 9
M  V30 34 1 31 10
M  V30 35 1 32 11
M  V30 36 1 33 13
M  V30 37 1 34 13
M  V30 38 1 35 14
M  V30 39 1 36 14
M  V30 40 1 37 17
M  V30 41 1 38 18
M  V30 42 1 39 20
M  V30 43 1 40 20
M  V30 44 1 41 21
M  V30 45 1 42 21
M  V30 46 1 43 2
M  V30 END BOND
M  V30 END CTAB
M  END
>  <b_m_subgroup_collapsed>  (2442) 
0

>  <r_i_docking_score>  (2442) 
-5.6180383733182397

>  <s_m_subgroup_title>  (2442) 
glide-dock_SP_D22_pv

>  <s_m_subgroupid>  (2442) 
glide-dock_SP_D22_pv

>  <Molecule ChEMBL ID>  (2442) 
CHEMBL294951

>  <Standard Type>  (2442) 
Ki

>  <Standard Value>  (2442) 
2.4

>  <label>  (2442) 
1

$$$$
CHEMBL3695441
     RDKit          3D

  0  0  0  0  0  0  0  0  0  0999 V3000
M  V30 BEGIN CTAB
M  V30 COUNTS 82 86 0 0 1
M  V30 BEGIN ATOM
M  V30 1 C 17.399357 2.706222 -23.305542 0
M  V30 2 C 18.232969 2.109768 -22.151388 0
M  V30 3 C 18.679270 3.156503 -21.109215 0
M  V30 4 C 19.502037 1.488718 -22.759962 0
M  V30 5 O 17.601410 0.973978 -21.553854 0
M  V30 6 C 16.374252 0.982438 -20.918911 0
M  V30 7 C 15.895322 -0.276728 -20.504740 0
M  V30 8 C 14.657628 -0.408989 -19.845255 0
M  V30 9 C 13.879954 0.730261 -19.553221 0
M  V30 10 C 12.565351 0.584639 -18.835598 0
M  V30 11 O 11.904059 -0.451509 -18.918985 0
M  V30 12 N 12.211130 1.631169 -18.074760 0
M  V30 13 C 10.954592 1.782777 -17.350222 0 CFG=1
M  V30 14 C 11.092813 1.294512 -15.899852 0
M  V30 15 C 9.792607 1.511068 -15.107549 0
M  V30 16 C 9.326690 2.984887 -15.116754 0 CFG=2
M  V30 17 C 7.966366 3.114350 -14.387653 0
M  V30 18 C 7.536530 4.531996 -13.937628 0
M  V30 19 N 8.321271 5.169046 -12.865980 0 CFG=2 CHG=1
M  V30 20 C 8.481396 4.376333 -11.633092 0
M  V30 21 C 9.516406 5.067539 -10.752298 0
M  V30 22 C 9.179160 6.532498 -10.453821 0 CFG=1
M  V30 23 C 10.313974 7.145394 -9.664926 0
M  V30 24 C 11.474728 7.655296 -10.296540 0
M  V30 25 C 12.527618 8.181191 -9.526666 0
M  V30 26 C 12.428476 8.251928 -8.125075 0
M  V30 27 C 11.290080 7.706219 -7.506374 0
M  V30 28 C 10.275508 7.152613 -8.262244 0
M  V30 29 C 9.243763 6.569786 -7.360969 0
M  V30 30 C 9.752343 7.049363 -5.993433 0
M  V30 31 O 11.058114 7.622109 -6.164759 0
M  V30 32 C 8.864303 7.298168 -11.746683 0
M  V30 33 C 7.817706 6.533046 -12.550463 0
M  V30 34 C 9.244290 3.491290 -16.574539 0
M  V30 35 C 10.540353 3.263043 -17.364363 0
M  V30 36 C 14.344834 1.995258 -19.980755 0
M  V30 37 C 15.575792 2.121591 -20.654806 0
M  V30 38 H 17.123293 1.935218 -24.024303 0
M  V30 39 H 16.481558 3.188404 -22.981911 0
M  V30 40 H 17.973753 3.460409 -23.843987 0
M  V30 41 H 19.257046 2.688710 -20.312634 0
M  V30 42 H 19.321821 3.906908 -21.571285 0
M  V30 43 H 17.858236 3.694703 -20.647366 0
M  V30 44 H 19.261238 0.709720 -23.482780 0
M  V30 45 H 20.102835 2.237360 -23.276920 0
M  V30 46 H 20.130558 1.036407 -21.992533 0
M  V30 47 H 16.485052 -1.161043 -20.699148 0
M  V30 48 H 14.327130 -1.392224 -19.541746 0
M  V30 49 H 12.859373 2.402749 -18.021988 0
M  V30 50 H 10.175743 1.198823 -17.846310 0
M  V30 51 H 11.353337 0.236012 -15.881660 0
M  V30 52 H 11.907560 1.830952 -15.414970 0
M  V30 53 H 9.011974 0.873548 -15.525831 0
M  V30 54 H 9.939661 1.177108 -14.080787 0
M  V30 55 H 10.075278 3.571177 -14.581446 0
M  V30 56 H 7.198995 2.738354 -15.066780 0
M  V30 57 H 7.922102 2.430203 -13.544593 0
M  V30 58 H 7.686213 5.220511 -14.753122 0
M  V30 59 H 6.476025 4.533925 -13.680394 0
M  V30 60 H 7.525662 4.259045 -11.120663 0
M  V30 61 H 8.875339 3.391078 -11.878954 0
M  V30 62 H 9.668134 4.508482 -9.827465 0
M  V30 63 H 10.442807 5.052815 -11.305509 0
M  V30 64 H 8.276222 6.558081 -9.847262 0
M  V30 65 H 11.593389 7.633147 -11.368333 0
M  V30 66 H 13.409421 8.567970 -10.016924 0
M  V30 67 H 13.222247 8.693835 -7.542527 0
M  V30 68 H 8.250196 6.959704 -7.576734 0
M  V30 69 H 9.232386 5.482639 -7.441907 0
M  V30 70 H 9.087434 7.842008 -5.680537 0
M  V30 71 H 9.747745 6.266126 -5.234443 0
M  V30 72 H 8.507634 8.303885 -11.521334 0
M  V30 73 H 9.743406 7.415312 -12.376032 0
M  V30 74 H 7.612307 7.109755 -13.446741 0
M  V30 75 H 6.873435 6.470685 -12.007047 0
M  V30 76 H 8.431032 2.980716 -17.094517 0
M  V30 77 H 9.011544 4.554945 -16.594255 0
M  V30 78 H 11.334944 3.878834 -16.940077 0
M  V30 79 H 10.403231 3.598993 -18.393826 0
M  V30 80 H 13.759807 2.885537 -19.804235 0
M  V30 81 H 15.872233 3.110607 -20.954107 0
M  V30 82 H 9.251676 5.284643 -13.240590 0
M  V30 END ATOM
M  V30 BEGIN BOND
M  V30 1 1 2 1
M  V30 2 1 3 2
M  V30 3 1 4 2
M  V30 4 1 5 2
M  V30 5 1 6 5
M  V30 6 1 7 6
M  V30 7 2 8 7
M  V30 8 1 9 8
M  V30 9 1 10 9
M  V30 10 2 11 10
M  V30 11 1 12 10
M  V30 12 1 13 12
M  V30 13 1 14 13
M  V30 14 1 15 14
M  V30 15 1 16 15
M  V30 16 1 17 16
M  V30 17 1 18 17
M  V30 18 1 19 18
M  V30 19 1 20 19
M  V30 20 1 21 20
M  V30 21 1 22 21
M  V30 22 1 23 22
M  V30 23 2 24 23
M  V30 24 1 25 24
M  V30 25 2 26 25
M  V30 26 1 27 26
M  V30 27 1 28 23
M  V30 28 2 28 27
M  V30 29 1 29 28
M  V30 30 1 30 29
M  V30 31 1 31 27
M  V30 32 1 31 30
M  V30 33 1 32 22
M  V30 34 1 33 19
M  V30 35 1 33 32
M  V30 36 1 34 16
M  V30 37 1 35 13
M  V30 38 1 35 34
M  V30 39 2 36 9
M  V30 40 2 37 6
M  V30 41 1 37 36
M  V30 42 1 38 1
M  V30 43 1 39 1
M  V30 44 1 40 1
M  V30 45 1 41 3
M  V30 46 1 42 3
M  V30 47 1 43 3
M  V30 48 1 44 4
M  V30 49 1 45 4
M  V30 50 1 46 4
M  V30 51 1 47 7
M  V30 52 1 48 8
M  V30 53 1 49 12
M  V30 54 1 13 50 CFG=3
M  V30 55 1 51 14
M  V30 56 1 52 14
M  V30 57 1 53 15
M  V30 58 1 54 15
M  V30 59 1 16 55 CFG=1
M  V30 60 1 56 17
M  V30 61 1 57 17
M  V30 62 1 58 18
M  V30 63 1 59 18
M  V30 64 1 60 20
M  V30 65 1 61 20
M  V30 66 1 62 21
M  V30 67 1 63 21
M  V30 68 1 22 64 CFG=1
M  V30 69 1 65 24
M  V30 70 1 66 25
M  V30 71 1 67 26
M  V30 72 1 68 29
M  V30 73 1 69 29
M  V30 74 1 70 30
M  V30 75 1 71 30
M  V30 76 1 72 32
M  V30 77 1 73 32
M  V30 78 1 74 33
M  V30 79 1 75 33
M  V30 80 1 76 34
M  V30 81 1 77 34
M  V30 82 1 78 35
M  V30 83 1 79 35
M  V30 84 1 80 36
M  V30 85 1 81 37
M  V30 86 1 19 82 CFG=3
M  V30 END BOND
M  V30 END CTAB
M  END
>  <b_m_subgroup_collapsed>  (2443) 
0

>  <r_i_docking_score>  (2443) 
-5.6171566576875103

>  <s_m_subgroup_title>  (2443) 
glide-dock_SP_D22_pv

>  <s_m_subgroupid>  (2443) 
glide-dock_SP_D22_pv

>  <Molecule ChEMBL ID>  (2443) 
CHEMBL3695441

>  <Standard Type>  (2443) 
Ki

>  <Standard Value>  (2443) 
10000000.0

>  <label>  (2443) 
0

$$$$
CHEMBL76402
     RDKit          3D

  0  0  0  0  0  0  0  0  0  0999 V3000
M  V30 BEGIN CTAB
M  V30 COUNTS 46 47 0 0 1
M  V30 BEGIN ATOM
M  V30 1 C 8.495222 8.954525 -12.155380 0
M  V30 2 C 9.519831 8.227013 -11.270457 0
M  V30 3 N 8.886023 7.210182 -10.393801 0 CFG=2 CHG=1
M  V30 4 C 9.484206 7.113259 -9.048089 0
M  V30 5 C 9.028212 5.767641 -8.503499 0
M  V30 6 C 8.953742 4.880238 -9.742403 0
M  V30 7 C 8.791578 5.837656 -10.942771 0 CFG=1
M  V30 8 C 7.470237 5.625745 -11.700556 0
M  V30 9 N 7.456639 4.318244 -12.321415 0
M  V30 10 C 6.533335 3.913926 -13.197143 0
M  V30 11 O 5.507838 4.548841 -13.446864 0
M  V30 12 C 6.878532 2.630053 -13.900716 0
M  V30 13 C 6.004141 1.515743 -13.838925 0
M  V30 14 O 4.886022 1.526363 -13.046865 0 CHG=-1
M  V30 15 C 6.293866 0.359337 -14.585464 0
M  V30 16 Br 5.062183 -1.089512 -14.646870 0
M  V30 17 C 7.485146 0.272688 -15.320832 0
M  V30 18 C 8.415002 1.336640 -15.329820 0
M  V30 19 O 9.601120 1.281051 -16.033728 0
M  V30 20 C 10.041950 0.018384 -16.513584 0
M  V30 21 C 8.099788 2.526623 -14.624749 0
M  V30 22 O 8.954104 3.609145 -14.646866 0
M  V30 23 C 10.278927 3.366156 -14.190268 0
M  V30 24 H 8.956167 9.772324 -12.704928 0
M  V30 25 H 8.052699 8.302819 -12.903037 0
M  V30 26 H 7.686022 9.372325 -11.556385 0
M  V30 27 H 10.001212 8.972331 -10.638464 0
M  V30 28 H 10.316319 7.788714 -11.872910 0
M  V30 29 H 9.175867 7.943685 -8.411383 0
M  V30 30 H 10.572812 7.126028 -9.126590 0
M  V30 31 H 8.036544 5.865538 -8.060847 0
M  V30 32 H 9.695670 5.372324 -7.737627 0
M  V30 33 H 8.129102 4.172325 -9.651117 0
M  V30 34 H 9.871629 4.300528 -9.847590 0
M  V30 35 H 9.626260 5.665475 -11.624530 0
M  V30 36 H 7.346931 6.362947 -12.488974 0
M  V30 37 H 6.606009 5.733704 -11.046865 0
M  V30 38 H 8.245910 3.708328 -12.171791 0
M  V30 39 H 7.658350 -0.627676 -15.884599 0
M  V30 40 H 11.051489 0.119623 -16.911827 0
M  V30 41 H 10.077517 -0.724569 -15.715004 0
M  V30 42 H 9.405107 -0.346601 -17.320143 0
M  V30 43 H 10.666737 4.270854 -13.722443 0
M  V30 44 H 10.322082 2.568503 -13.446872 0
M  V30 45 H 10.943534 3.116887 -15.017233 0
M  V30 46 H 7.906972 7.499771 -10.246865 0
M  V30 END ATOM
M  V30 BEGIN BOND
M  V30 1 1 2 1
M  V30 2 1 3 2
M  V30 3 1 4 3
M  V30 4 1 5 4
M  V30 5 1 6 5
M  V30 6 1 7 3
M  V30 7 1 7 6
M  V30 8 1 8 7
M  V30 9 1 9 8
M  V30 10 1 10 9
M  V30 11 2 11 10
M  V30 12 1 12 10
M  V30 13 2 13 12
M  V30 14 1 14 13
M  V30 15 1 15 13
M  V30 16 1 16 15
M  V30 17 2 17 15
M  V30 18 1 18 17
M  V30 19 1 19 18
M  V30 20 1 20 19
M  V30 21 1 21 12
M  V30 22 2 21 18
M  V30 23 1 22 21
M  V30 24 1 23 22
M  V30 25 1 24 1
M  V30 26 1 25 1
M  V30 27 1 26 1
M  V30 28 1 27 2
M  V30 29 1 28 2
M  V30 30 1 29 4
M  V30 31 1 30 4
M  V30 32 1 31 5
M  V30 33 1 32 5
M  V30 34 1 33 6
M  V30 35 1 34 6
M  V30 36 1 7 35 CFG=3
M  V30 37 1 36 8
M  V30 38 1 37 8
M  V30 39 1 38 9
M  V30 40 1 39 17
M  V30 41 1 40 20
M  V30 42 1 41 20
M  V30 43 1 42 20
M  V30 44 1 43 23
M  V30 45 1 44 23
M  V30 46 1 45 23
M  V30 47 1 3 46 CFG=1
M  V30 END BOND
M  V30 END CTAB
M  END
>  <b_m_subgroup_collapsed>  (2444) 
0

>  <r_i_docking_score>  (2444) 
-5.6116251569901099

>  <s_m_subgroup_title>  (2444) 
glide-dock_SP_D22_pv

>  <s_m_subgroupid>  (2444) 
glide-dock_SP_D22_pv

>  <Molecule ChEMBL ID>  (2444) 
CHEMBL76402

>  <Standard Type>  (2444) 
Ki

>  <Standard Value>  (2444) 
0.65

>  <label>  (2444) 
1

$$$$
CHEMBL1949727
     RDKit          3D

  0  0  0  0  0  0  0  0  0  0999 V3000
M  V30 BEGIN CTAB
M  V30 COUNTS 47 50 0 0 1
M  V30 BEGIN ATOM
M  V30 1 C 8.971426 2.407908 -18.767525 0
M  V30 2 N 10.135854 2.470104 -17.851927 0 CFG=1 CHG=1
M  V30 3 C 10.531259 3.870248 -17.559967 0
M  V30 4 C 12.050760 4.033881 -17.378492 0
M  V30 5 C 12.381790 5.393542 -16.791435 0
M  V30 6 C 12.624745 6.466935 -17.674629 0
M  V30 7 C 12.885819 7.754686 -17.175816 0
M  V30 8 C 12.886271 7.979969 -15.788792 0
M  V30 9 C 12.658755 6.914712 -14.900258 0
M  V30 10 C 12.412400 5.613720 -15.387616 0
M  V30 11 C 12.197359 4.490836 -14.378520 0
M  V30 12 C 10.731238 4.150334 -14.163068 0
M  V30 13 N 9.845358 4.972288 -13.488933 0
M  V30 14 C 8.567609 4.471970 -13.425868 0
M  V30 15 C 7.374281 4.941103 -12.847950 0
M  V30 16 C 6.203828 4.172933 -12.976654 0
M  V30 17 C 6.243141 2.953856 -13.680158 0
M  V30 18 C 7.450761 2.493818 -14.247980 0
M  V30 19 C 8.650208 3.238958 -14.131560 0
M  V30 20 C 10.035048 3.047023 -14.567157 0
M  V30 21 C 10.594525 1.864729 -15.323474 0
M  V30 22 C 10.007571 1.491872 -16.721241 0 CFG=2
M  V30 23 C 10.651972 0.181009 -17.198183 0
M  V30 24 O 10.085966 -0.891074 -16.903915 0
M  V30 25 O 11.696166 0.281192 -17.881086 0 CHG=-1
M  V30 26 H 8.086884 2.829195 -18.289040 0
M  V30 27 H 8.748871 1.377873 -19.049969 0
M  V30 28 H 9.164003 2.960891 -19.687349 0
M  V30 29 H 10.257014 4.506652 -18.402658 0
M  V30 30 H 9.948620 4.276165 -16.738604 0
M  V30 31 H 12.499274 3.245212 -16.784163 0
M  V30 32 H 12.537528 3.939378 -18.350321 0
M  V30 33 H 12.602885 6.310184 -18.743277 0
M  V30 34 H 13.064291 8.572970 -17.857611 0
M  V30 35 H 13.077260 8.969864 -15.404985 0
M  V30 36 H 12.685400 7.100978 -13.836436 0
M  V30 37 H 12.782543 3.621957 -14.659789 0
M  V30 38 H 12.610368 4.795143 -13.416692 0
M  V30 39 H 10.132999 5.852263 -13.085291 0
M  V30 40 H 7.352911 5.877714 -12.308125 0
M  V30 41 H 5.282362 4.517375 -12.531111 0
M  V30 42 H 5.345591 2.360732 -13.774835 0
M  V30 43 H 7.461624 1.546307 -14.765454 0
M  V30 44 H 11.678546 1.907757 -15.367133 0
M  V30 45 H 10.409888 1.016589 -14.661648 0
M  V30 46 H 8.944004 1.303295 -16.564629 0
M  V30 47 H 10.910792 2.061658 -18.366028 0
M  V30 END ATOM
M  V30 BEGIN BOND
M  V30 1 1 2 1
M  V30 2 1 3 2
M  V30 3 1 4 3
M  V30 4 1 5 4
M  V30 5 2 6 5
M  V30 6 1 7 6
M  V30 7 2 8 7
M  V30 8 1 9 8
M  V30 9 1 10 5
M  V30 10 2 10 9
M  V30 11 1 11 10
M  V30 12 1 12 11
M  V30 13 1 13 12
M  V30 14 1 14 13
M  V30 15 2 15 14
M  V30 16 1 16 15
M  V30 17 2 17 16
M  V30 18 1 18 17
M  V30 19 1 19 14
M  V30 20 2 19 18
M  V30 21 2 20 12
M  V30 22 1 20 19
M  V30 23 1 21 20
M  V30 24 1 22 2
M  V30 25 1 22 21
M  V30 26 1 23 22
M  V30 27 2 24 23
M  V30 28 1 25 23
M  V30 29 1 26 1
M  V30 30 1 27 1
M  V30 31 1 28 1
M  V30 32 1 29 3
M  V30 33 1 30 3
M  V30 34 1 31 4
M  V30 35 1 32 4
M  V30 36 1 33 6
M  V30 37 1 34 7
M  V30 38 1 35 8
M  V30 39 1 36 9
M  V30 40 1 37 11
M  V30 41 1 38 11
M  V30 42 1 39 13
M  V30 43 1 40 15
M  V30 44 1 41 16
M  V30 45 1 42 17
M  V30 46 1 43 18
M  V30 47 1 44 21
M  V30 48 1 45 21
M  V30 49 1 22 46 CFG=1
M  V30 50 1 2 47 CFG=3
M  V30 END BOND
M  V30 END CTAB
M  END
>  <b_m_subgroup_collapsed>  (2445) 
0

>  <r_i_docking_score>  (2445) 
-5.6058268260436996

>  <s_m_subgroup_title>  (2445) 
glide-dock_SP_D22_pv

>  <s_m_subgroupid>  (2445) 
glide-dock_SP_D22_pv

>  <Molecule ChEMBL ID>  (2445) 
CHEMBL1949727

>  <Standard Type>  (2445) 
Ki

>  <Standard Value>  (2445) 
10000.0

>  <label>  (2445) 
0

$$$$
CHEMBL4441060
     RDKit          3D

  0  0  0  0  0  0  0  0  0  0999 V3000
M  V30 BEGIN CTAB
M  V30 COUNTS 39 42 0 0 1
M  V30 BEGIN ATOM
M  V30 1 N 5.262317 0.784052 -13.813275 0
M  V30 2 C 5.686134 1.995846 -13.453225 0
M  V30 3 N 5.045278 2.842610 -12.646936 0 CHG=1
M  V30 4 C 5.810726 3.962138 -12.445943 0
M  V30 5 C 6.955261 3.769386 -13.180107 0
M  V30 6 C 8.144914 4.605402 -13.082441 0
M  V30 7 C 8.269067 5.767026 -12.368878 0
M  V30 8 N 9.589809 6.182374 -12.338872 0
M  V30 9 S 10.103273 7.571884 -11.447173 0
M  V30 10 O 9.106308 8.605471 -11.760819 0
M  V30 11 O 11.523324 7.771022 -11.773025 0
M  V30 12 C 10.008712 7.168834 -9.699673 0
M  V30 13 C 8.953945 6.399477 -9.165269 0
M  V30 14 C 8.886186 6.173700 -7.778542 0
M  V30 15 C 9.870765 6.708399 -6.924855 0
M  V30 16 C 10.932077 7.463859 -7.458887 0
M  V30 17 C 11.001137 7.696881 -8.846443 0
M  V30 18 C 10.340905 5.376855 -13.191196 0
M  V30 19 C 11.685292 5.408641 -13.621423 0
M  V30 20 C 12.164619 4.430047 -14.506758 0
M  V30 21 C 11.308348 3.409855 -14.951021 0
M  V30 22 C 9.968133 3.378248 -14.527057 0
M  V30 23 C 9.442528 4.366524 -13.656917 0
M  V30 24 N 6.820478 2.577760 -13.846642 0
M  V30 25 H 5.781275 0.187491 -14.444187 0
M  V30 26 H 4.352434 0.427692 -13.557981 0
M  V30 27 H 5.522194 4.754262 -11.766999 0
M  V30 28 H 7.517498 6.320574 -11.818264 0
M  V30 29 H 8.161662 6.014757 -9.783957 0
M  V30 30 H 8.056617 5.617166 -7.370406 0
M  V30 31 H 9.806939 6.542909 -5.859195 0
M  V30 32 H 11.684940 7.874902 -6.803139 0
M  V30 33 H 11.804010 8.295970 -9.250563 0
M  V30 34 H 12.369298 6.173703 -13.288680 0
M  V30 35 H 13.192656 4.457277 -14.838755 0
M  V30 36 H 11.685507 2.652392 -15.623157 0
M  V30 37 H 9.339890 2.585318 -14.896059 0
M  V30 38 H 7.514021 2.151428 -14.445127 0
M  V30 39 H 4.148527 2.663229 -12.215528 0
M  V30 END ATOM
M  V30 BEGIN BOND
M  V30 1 1 2 1
M  V30 2 2 3 2
M  V30 3 1 4 3
M  V30 4 2 5 4
M  V30 5 1 6 5
M  V30 6 2 7 6
M  V30 7 1 8 7
M  V30 8 1 9 8
M  V30 9 2 10 9
M  V30 10 2 11 9
M  V30 11 1 12 9
M  V30 12 2 13 12
M  V30 13 1 14 13
M  V30 14 2 15 14
M  V30 15 1 16 15
M  V30 16 1 17 12
M  V30 17 2 17 16
M  V30 18 1 18 8
M  V30 19 2 19 18
M  V30 20 1 20 19
M  V30 21 2 21 20
M  V30 22 1 22 21
M  V30 23 1 23 6
M  V30 24 1 23 18
M  V30 25 2 23 22
M  V30 26 1 24 2
M  V30 27 1 24 5
M  V30 28 1 25 1
M  V30 29 1 26 1
M  V30 30 1 27 4
M  V30 31 1 28 7
M  V30 32 1 29 13
M  V30 33 1 30 14
M  V30 34 1 31 15
M  V30 35 1 32 16
M  V30 36 1 33 17
M  V30 37 1 34 19
M  V30 38 1 35 20
M  V30 39 1 36 21
M  V30 40 1 37 22
M  V30 41 1 38 24
M  V30 42 1 39 3
M  V30 END BOND
M  V30 END CTAB
M  END
>  <b_m_subgroup_collapsed>  (2446) 
0

>  <r_i_docking_score>  (2446) 
-5.6039022533685303

>  <s_m_subgroup_title>  (2446) 
glide-dock_SP_D22_pv

>  <s_m_subgroupid>  (2446) 
glide-dock_SP_D22_pv

>  <Molecule ChEMBL ID>  (2446) 
CHEMBL4441060

>  <Standard Type>  (2446) 
Ki

>  <Standard Value>  (2446) 
87.0

>  <label>  (2446) 
1

$$$$
CHEMBL433376
     RDKit          3D

  0  0  0  0  0  0  0  0  0  0999 V3000
M  V30 BEGIN CTAB
M  V30 COUNTS 32 34 0 0 1
M  V30 BEGIN ATOM
M  V30 1 C 11.691641 3.257303 -15.772138 0
M  V30 2 C 10.310328 2.731852 -15.571592 0
M  V30 3 O 9.873817 1.858221 -16.522766 0
M  V30 4 C 8.600634 1.504494 -16.197714 0
M  V30 5 C 7.918369 0.617781 -17.186302 0
M  V30 6 C 8.259395 2.112185 -15.017826 0
M  V30 7 C 9.334833 2.957839 -14.637325 0
M  V30 8 C 9.331968 3.920852 -13.480314 0
M  V30 9 C 8.154653 4.906065 -13.605398 0
M  V30 10 C 6.781496 4.394592 -13.109555 0
M  V30 11 C 6.403456 2.969304 -13.461656 0
M  V30 12 C 5.286055 2.270968 -12.925135 0
M  V30 13 N 5.245693 1.001926 -13.276870 0
M  V30 14 N 6.325689 0.833153 -14.062276 0
M  V30 15 C 6.622661 -0.514968 -14.503013 0
M  V30 16 C 7.020297 2.024368 -14.246824 0
M  V30 17 H 12.066311 3.748737 -14.872877 0
M  V30 18 H 11.714293 3.980140 -16.590298 0
M  V30 19 H 12.380647 2.447245 -16.019341 0
M  V30 20 H 6.837898 0.758683 -17.156487 0
M  V30 21 H 8.139591 -0.431126 -16.989632 0
M  V30 22 H 8.253148 0.842255 -18.199486 0
M  V30 23 H 9.292315 3.373801 -12.537563 0
M  V30 24 H 10.272077 4.472595 -13.483187 0
M  V30 25 H 8.388939 5.808889 -13.040427 0
M  V30 26 H 8.086194 5.229469 -14.644798 0
M  V30 27 H 6.777825 4.493924 -12.023238 0
M  V30 28 H 6.009628 5.085006 -13.446972 0
M  V30 29 H 4.530407 2.634433 -12.247134 0
M  V30 30 H 7.695856 -0.628834 -14.644943 0
M  V30 31 H 6.099516 -0.727866 -15.434768 0
M  V30 32 H 6.305911 -1.239437 -13.751423 0
M  V30 END ATOM
M  V30 BEGIN BOND
M  V30 1 1 2 1
M  V30 2 1 3 2
M  V30 3 1 4 3
M  V30 4 1 5 4
M  V30 5 2 6 4
M  V30 6 2 7 2
M  V30 7 1 7 6
M  V30 8 1 8 7
M  V30 9 1 9 8
M  V30 10 1 10 9
M  V30 11 1 11 10
M  V30 12 1 12 11
M  V30 13 2 13 12
M  V30 14 1 14 13
M  V30 15 1 15 14
M  V30 16 1 16 6
M  V30 17 2 16 11
M  V30 18 1 16 14
M  V30 19 1 17 1
M  V30 20 1 18 1
M  V30 21 1 19 1
M  V30 22 1 20 5
M  V30 23 1 21 5
M  V30 24 1 22 5
M  V30 25 1 23 8
M  V30 26 1 24 8
M  V30 27 1 25 9
M  V30 28 1 26 9
M  V30 29 1 27 10
M  V30 30 1 28 10
M  V30 31 1 29 12
M  V30 32 1 30 15
M  V30 33 1 31 15
M  V30 34 1 32 15
M  V30 END BOND
M  V30 END CTAB
M  END
>  <b_m_subgroup_collapsed>  (2447) 
0

>  <r_i_docking_score>  (2447) 
-5.6033105142302801

>  <s_m_subgroup_title>  (2447) 
glide-dock_SP_D22_pv

>  <s_m_subgroupid>  (2447) 
glide-dock_SP_D22_pv

>  <Molecule ChEMBL ID>  (2447) 
CHEMBL433376

>  <Standard Type>  (2447) 
Ki

>  <Standard Value>  (2447) 
28.0

>  <label>  (2447) 
1

$$$$
CHEMBL1258833
     RDKit          3D

  0  0  0  0  0  0  0  0  0  0999 V3000
M  V30 BEGIN CTAB
M  V30 COUNTS 57 61 0 0 1
M  V30 BEGIN ATOM
M  V30 1 C 6.660317 -0.449370 -18.560059 0
M  V30 2 C 8.022923 -0.521017 -17.942226 0
M  V30 3 N 9.065979 -1.194818 -18.564594 0
M  V30 4 C 10.104706 -1.026226 -17.749577 0
M  V30 5 O 9.822621 -0.307592 -16.633543 0
M  V30 6 C 8.496039 0.011154 -16.765184 0
M  V30 7 C 7.891748 0.797299 -15.698071 0
M  V30 8 N 8.496466 1.896785 -15.247951 0
M  V30 9 N 7.692937 2.382441 -14.255964 0
M  V30 10 C 6.656426 1.550335 -14.170710 0
M  V30 11 S 5.286496 1.741502 -13.048656 0
M  V30 12 C 5.659247 3.303890 -12.175024 0
M  V30 13 C 5.771506 4.565436 -13.062086 0
M  V30 14 C 6.270253 5.821796 -12.309954 0
M  V30 15 N 7.678362 5.772684 -11.807068 0 CFG=1 CHG=1
M  V30 16 C 8.583837 4.737024 -12.344921 0
M  V30 17 C 9.953720 5.101985 -11.825379 0
M  V30 18 C 9.925217 6.632627 -11.740194 0 CFG=2
M  V30 19 C 10.936298 7.245111 -12.730047 0
M  V30 20 C 12.217516 7.566556 -11.940941 0
M  V30 21 C 11.720466 7.660934 -10.529292 0
M  V30 22 C 12.410502 8.172632 -9.418935 0
M  V30 23 C 11.773593 8.119205 -8.162581 0
M  V30 24 C 10.488605 7.542469 -8.040011 0
M  V30 25 Br 9.687926 7.384528 -6.335477 0
M  V30 26 C 9.799506 7.051224 -9.166204 0
M  V30 27 C 10.444710 7.121023 -10.410873 0
M  V30 28 C 8.451048 7.014339 -12.007884 0
M  V30 29 N 6.748134 0.515205 -15.029649 0
M  V30 30 C 5.842594 -0.612840 -15.165972 0
M  V30 31 H 6.208642 -1.439447 -18.627207 0
M  V30 32 H 5.990593 0.180119 -17.977518 0
M  V30 33 H 6.704436 -0.036837 -19.567204 0
M  V30 34 H 11.092687 -1.429341 -17.914194 0
M  V30 35 H 4.886470 3.489210 -11.446699 0
M  V30 36 H 6.501816 3.135221 -11.527213 0
M  V30 37 H 6.387356 4.419977 -13.942622 0
M  V30 38 H 4.788528 4.771971 -13.483665 0
M  V30 39 H 6.147006 6.678381 -12.974216 0
M  V30 40 H 5.620095 6.026390 -11.458552 0
M  V30 41 H 8.363035 3.731473 -12.029850 0
M  V30 42 H 8.594619 4.776539 -13.434962 0
M  V30 43 H 10.078574 4.660234 -10.835313 0
M  V30 44 H 10.739082 4.699518 -12.467407 0
M  V30 45 H 11.114437 6.652623 -13.629212 0
M  V30 46 H 10.491940 8.172877 -13.047211 0
M  V30 47 H 12.761832 8.454211 -12.260136 0
M  V30 48 H 12.883797 6.717207 -12.036527 0
M  V30 49 H 13.408555 8.572901 -9.516232 0
M  V30 50 H 12.282578 8.497131 -7.288593 0
M  V30 51 H 8.813621 6.621257 -9.062585 0
M  V30 52 H 8.333892 7.295925 -13.048300 0
M  V30 53 H 8.093743 7.873016 -11.446261 0
M  V30 54 H 4.856000 -0.266553 -15.473201 0
M  V30 55 H 6.213260 -1.328153 -15.894828 0
M  V30 56 H 5.765341 -1.129273 -14.207859 0
M  V30 57 H 7.613440 5.635160 -10.806657 0
M  V30 END ATOM
M  V30 BEGIN BOND
M  V30 1 1 2 1
M  V30 2 1 3 2
M  V30 3 2 4 3
M  V30 4 1 5 4
M  V30 5 2 6 2
M  V30 6 1 6 5
M  V30 7 1 7 6
M  V30 8 2 8 7
M  V30 9 1 9 8
M  V30 10 2 10 9
M  V30 11 1 11 10
M  V30 12 1 12 11
M  V30 13 1 13 12
M  V30 14 1 14 13
M  V30 15 1 15 14
M  V30 16 1 16 15
M  V30 17 1 17 16
M  V30 18 1 18 17 CFG=1
M  V30 19 1 19 18
M  V30 20 1 20 19
M  V30 21 1 21 20
M  V30 22 1 22 21
M  V30 23 2 23 22
M  V30 24 1 24 23
M  V30 25 1 25 24
M  V30 26 2 26 24
M  V30 27 1 27 18
M  V30 28 2 27 21
M  V30 29 1 27 26
M  V30 30 1 28 15
M  V30 31 1 28 18
M  V30 32 1 29 7
M  V30 33 1 29 10
M  V30 34 1 30 29
M  V30 35 1 31 1
M  V30 36 1 32 1
M  V30 37 1 33 1
M  V30 38 1 34 4
M  V30 39 1 35 12
M  V30 40 1 36 12
M  V30 41 1 37 13
M  V30 42 1 38 13
M  V30 43 1 39 14
M  V30 44 1 40 14
M  V30 45 1 41 16
M  V30 46 1 42 16
M  V30 47 1 43 17
M  V30 48 1 44 17
M  V30 49 1 45 19
M  V30 50 1 46 19
M  V30 51 1 47 20
M  V30 52 1 48 20
M  V30 53 1 49 22
M  V30 54 1 50 23
M  V30 55 1 51 26
M  V30 56 1 52 28
M  V30 57 1 53 28
M  V30 58 1 54 30
M  V30 59 1 55 30
M  V30 60 1 56 30
M  V30 61 1 15 57 CFG=1
M  V30 END BOND
M  V30 END CTAB
M  END
>  <b_m_subgroup_collapsed>  (2448) 
0

>  <r_i_docking_score>  (2448) 
-5.6023692416746904

>  <s_m_subgroup_title>  (2448) 
glide-dock_SP_D22_pv

>  <s_m_subgroupid>  (2448) 
glide-dock_SP_D22_pv

>  <Molecule ChEMBL ID>  (2448) 
CHEMBL1258833

>  <Standard Type>  (2448) 
Ki

>  <Standard Value>  (2448) 
39.81

>  <label>  (2448) 
1

$$$$
CHEMBL69259
     RDKit          3D

  0  0  0  0  0  0  0  0  0  0999 V3000
M  V30 BEGIN CTAB
M  V30 COUNTS 41 43 0 0 1
M  V30 BEGIN ATOM
M  V30 1 C 6.081347 3.971390 -12.708760 0
M  V30 2 N 7.275659 4.842250 -12.634697 0 CFG=2 CHG=1
M  V30 3 C 8.310030 4.310701 -11.726054 0
M  V30 4 C 9.594375 5.135116 -11.686453 0
M  V30 5 C 9.379813 6.641012 -11.483870 0 CFG=1
M  V30 6 C 8.196106 7.092836 -12.384802 0
M  V30 7 C 6.945029 6.218044 -12.246905 0
M  V30 8 O 9.187520 6.899297 -10.085045 0
M  V30 9 C 9.961893 8.033608 -9.648640 0 CFG=1
M  V30 10 C 9.120799 9.305428 -9.846928 0
M  V30 11 C 10.385747 7.970615 -8.183312 0
M  V30 12 C 9.876961 6.987948 -7.308579 0
M  V30 13 C 10.279178 6.972325 -5.957748 0
M  V30 14 C 11.173154 7.943014 -5.465521 0
M  V30 15 C 11.672864 8.935438 -6.328284 0
M  V30 16 C 11.286149 8.938806 -7.680757 0
M  V30 17 C 11.202033 8.017504 -10.553898 0
M  V30 18 C 10.677968 7.372319 -11.801908 0
M  V30 19 O 11.286017 7.334559 -12.871058 0
M  V30 20 H 5.598004 3.883605 -11.734178 0
M  V30 21 H 5.353291 4.372537 -13.415171 0
M  V30 22 H 6.353819 2.970808 -13.045889 0
M  V30 23 H 8.623248 3.372324 -12.136699 0
M  V30 24 H 7.904930 4.172327 -10.721652 0
M  V30 25 H 10.152868 4.947217 -12.605845 0
M  V30 26 H 10.185212 4.740005 -10.865360 0
M  V30 27 H 7.929147 8.136790 -12.246854 0
M  V30 28 H 8.486004 6.972327 -13.423761 0
M  V30 29 H 6.139647 6.612361 -12.867725 0
M  V30 30 H 6.579455 6.172322 -11.228677 0
M  V30 31 H 9.718578 10.172302 -9.589474 0
M  V30 32 H 8.784466 9.447791 -10.867767 0
M  V30 33 H 8.241693 9.311932 -9.202666 0
M  V30 34 H 9.173825 6.248903 -7.665125 0
M  V30 35 H 9.890232 6.215811 -5.292145 0
M  V30 36 H 11.471591 7.926509 -4.427578 0
M  V30 37 H 12.360221 9.682971 -5.959087 0
M  V30 38 H 11.680167 9.697230 -8.338818 0
M  V30 39 H 11.622231 9.008234 -10.726849 0
M  V30 40 H 11.980887 7.372282 -10.147193 0
M  V30 41 H 7.675763 4.878459 -13.561136 0
M  V30 END ATOM
M  V30 BEGIN BOND
M  V30 1 1 2 1
M  V30 2 1 3 2
M  V30 3 1 4 3
M  V30 4 1 5 4
M  V30 5 1 6 5
M  V30 6 1 7 2
M  V30 7 1 7 6
M  V30 8 1 5 8 CFG=1
M  V30 9 1 9 8
M  V30 10 1 9 10 CFG=1
M  V30 11 1 11 9
M  V30 12 2 12 11
M  V30 13 1 13 12
M  V30 14 2 14 13
M  V30 15 1 15 14
M  V30 16 1 16 11
M  V30 17 2 16 15
M  V30 18 1 17 9
M  V30 19 1 18 5
M  V30 20 1 18 17
M  V30 21 2 19 18
M  V30 22 1 20 1
M  V30 23 1 21 1
M  V30 24 1 22 1
M  V30 25 1 23 3
M  V30 26 1 24 3
M  V30 27 1 25 4
M  V30 28 1 26 4
M  V30 29 1 27 6
M  V30 30 1 28 6
M  V30 31 1 29 7
M  V30 32 1 30 7
M  V30 33 1 31 10
M  V30 34 1 32 10
M  V30 35 1 33 10
M  V30 36 1 34 12
M  V30 37 1 35 13
M  V30 38 1 36 14
M  V30 39 1 37 15
M  V30 40 1 38 16
M  V30 41 1 39 17
M  V30 42 1 40 17
M  V30 43 1 2 41 CFG=3
M  V30 END BOND
M  V30 END CTAB
M  END
>  <b_m_subgroup_collapsed>  (2449) 
0

>  <r_i_docking_score>  (2449) 
-5.5989299985010001

>  <s_m_subgroup_title>  (2449) 
glide-dock_SP_D22_pv

>  <s_m_subgroupid>  (2449) 
glide-dock_SP_D22_pv

>  <Molecule ChEMBL ID>  (2449) 
CHEMBL69259

>  <Standard Type>  (2449) 
Ki

>  <Standard Value>  (2449) 
10000.0

>  <label>  (2449) 
0

$$$$
CHEMBL432762
     RDKit          3D

  0  0  0  0  0  0  0  0  0  0999 V3000
M  V30 BEGIN CTAB
M  V30 COUNTS 48 51 0 0 1
M  V30 BEGIN ATOM
M  V30 1 C 6.761212 -0.776039 -13.165112 0
M  V30 2 C 5.708597 0.149598 -13.774400 0 CFG=2
M  V30 3 C 5.371901 -0.227693 -15.207103 0
M  V30 4 C 4.148647 -0.890615 -15.459625 0
M  V30 5 C 3.811080 -1.298880 -16.760809 0
M  V30 6 C 4.681479 -1.028720 -17.828203 0
M  V30 7 C 5.902358 -0.376562 -17.583687 0
M  V30 8 C 6.268550 0.016895 -16.278069 0
M  V30 9 C 7.588153 0.646340 -16.120388 0
M  V30 10 C 8.002934 1.603392 -15.259861 0
M  V30 11 N 9.358242 1.972358 -15.229459 0
M  V30 12 C 10.199543 2.025171 -16.426476 0
M  V30 13 C 10.913425 3.382704 -16.545210 0
M  V30 14 N 11.694958 3.676342 -15.319553 0 CHG=1
M  V30 15 C 12.469664 4.933261 -15.416423 0
M  V30 16 C 10.852271 3.615297 -14.101110 0
M  V30 17 C 10.113927 2.263329 -14.007953 0
M  V30 18 C 7.112512 2.275965 -14.272408 0
M  V30 19 C 7.324220 3.653085 -14.014948 0
M  V30 20 C 6.573124 4.361762 -13.065316 0
M  V30 21 C 5.555379 3.702560 -12.370207 0
M  V30 22 C 5.285698 2.351983 -12.646782 0
M  V30 23 C 6.049137 1.624802 -13.586684 0
M  V30 24 H 7.714826 -0.627564 -13.654837 0
M  V30 25 H 6.885986 -0.580075 -12.101741 0
M  V30 26 H 6.486125 -1.824872 -13.279560 0
M  V30 27 H 4.798669 -0.028347 -13.200891 0
M  V30 28 H 3.462495 -1.107670 -14.654327 0
M  V30 29 H 2.886117 -1.822822 -16.939241 0
M  V30 30 H 4.418683 -1.337409 -18.828966 0
M  V30 31 H 6.570959 -0.193875 -18.411856 0
M  V30 32 H 8.333593 0.192143 -16.755600 0
M  V30 33 H 10.925984 1.212346 -16.386568 0
M  V30 34 H 9.604336 1.872944 -17.326769 0
M  V30 35 H 11.574417 3.373539 -17.412720 0
M  V30 36 H 10.180518 4.175069 -16.710855 0
M  V30 37 H 11.810288 5.796800 -15.516828 0
M  V30 38 H 13.087489 5.077479 -14.528279 0
M  V30 39 H 13.135727 4.909217 -16.280397 0
M  V30 40 H 11.468891 3.773632 -13.218267 0
M  V30 41 H 10.146764 4.443769 -14.116967 0
M  V30 42 H 9.462680 2.259262 -13.134337 0
M  V30 43 H 10.835732 1.460909 -13.846894 0
M  V30 44 H 8.077473 4.192655 -14.563954 0
M  V30 45 H 6.771230 5.406655 -12.873275 0
M  V30 46 H 4.977733 4.238811 -11.631336 0
M  V30 47 H 4.485922 1.872182 -12.105831 0
M  V30 48 H 12.369378 2.928090 -15.233820 0
M  V30 END ATOM
M  V30 BEGIN BOND
M  V30 1 1 2 1
M  V30 2 1 3 2
M  V30 3 2 4 3
M  V30 4 1 5 4
M  V30 5 2 6 5
M  V30 6 1 7 6
M  V30 7 1 8 3
M  V30 8 2 8 7
M  V30 9 1 9 8
M  V30 10 2 10 9
M  V30 11 1 11 10
M  V30 12 1 12 11
M  V30 13 1 13 12
M  V30 14 1 14 13
M  V30 15 1 15 14
M  V30 16 1 16 14
M  V30 17 1 17 11
M  V30 18 1 17 16
M  V30 19 1 18 10
M  V30 20 2 19 18
M  V30 21 1 20 19
M  V30 22 2 21 20
M  V30 23 1 22 21
M  V30 24 1 23 2
M  V30 25 1 23 18
M  V30 26 2 23 22
M  V30 27 1 24 1
M  V30 28 1 25 1
M  V30 29 1 26 1
M  V30 30 1 2 27 CFG=1
M  V30 31 1 28 4
M  V30 32 1 29 5
M  V30 33 1 30 6
M  V30 34 1 31 7
M  V30 35 1 32 9
M  V30 36 1 33 12
M  V30 37 1 34 12
M  V30 38 1 35 13
M  V30 39 1 36 13
M  V30 40 1 37 15
M  V30 41 1 38 15
M  V30 42 1 39 15
M  V30 43 1 40 16
M  V30 44 1 41 16
M  V30 45 1 42 17
M  V30 46 1 43 17
M  V30 47 1 44 19
M  V30 48 1 45 20
M  V30 49 1 46 21
M  V30 50 1 47 22
M  V30 51 1 48 14
M  V30 END BOND
M  V30 END CTAB
M  END
>  <b_m_subgroup_collapsed>  (2450) 
0

>  <r_i_docking_score>  (2450) 
-5.5965076975886197

>  <s_m_subgroup_title>  (2450) 
glide-dock_SP_D22_pv

>  <s_m_subgroupid>  (2450) 
glide-dock_SP_D22_pv

>  <Molecule ChEMBL ID>  (2450) 
CHEMBL432762

>  <Standard Type>  (2450) 
Ki

>  <Standard Value>  (2450) 
94.0

>  <label>  (2450) 
1

$$$$
CHEMBL98331
     RDKit          3D

  0  0  0  0  0  0  0  0  0  0999 V3000
M  V30 BEGIN CTAB
M  V30 COUNTS 28 30 0 0 1
M  V30 BEGIN ATOM
M  V30 1 C 6.399216 5.527182 -12.537798 0
M  V30 2 C 6.640522 4.180853 -13.149177 0
M  V30 3 S 5.418633 2.952024 -12.978912 0
M  V30 4 C 6.371393 1.787215 -13.846836 0
M  V30 5 C 5.852695 0.389537 -13.988779 0
M  V30 6 C 7.560484 2.356679 -14.246870 0
M  V30 7 C 7.744256 3.729368 -13.840015 0
M  V30 8 C 8.933678 4.646187 -14.044393 0
M  V30 9 C 10.224143 4.063189 -14.642073 0
M  V30 10 C 10.582624 2.673683 -14.110182 0
M  V30 11 C 9.869298 1.631223 -14.893598 0
M  V30 12 N 10.486252 0.750336 -15.689631 0
M  V30 13 N 9.481109 0.055208 -16.318808 0
M  V30 14 C 8.357311 0.590827 -15.842612 0
M  V30 15 N 8.524758 1.575534 -14.939942 0
M  V30 16 H 7.151186 6.258944 -12.828066 0
M  V30 17 H 6.405108 5.465538 -11.448240 0
M  V30 18 H 5.429049 5.919884 -12.843605 0
M  V30 19 H 6.644347 -0.346646 -13.840865 0
M  V30 20 H 5.409694 0.232740 -14.973558 0
M  V30 21 H 5.081559 0.183614 -13.245495 0
M  V30 22 H 8.631652 5.501276 -14.648472 0
M  V30 23 H 9.202620 5.064909 -13.074834 0
M  V30 24 H 10.153474 4.029104 -15.730256 0
M  V30 25 H 11.036644 4.755594 -14.424715 0
M  V30 26 H 11.656784 2.507290 -14.210044 0
M  V30 27 H 10.343534 2.577570 -13.052254 0
M  V30 28 H 7.390568 0.255972 -16.185753 0
M  V30 END ATOM
M  V30 BEGIN BOND
M  V30 1 1 2 1
M  V30 2 1 3 2
M  V30 3 1 4 3
M  V30 4 1 5 4
M  V30 5 2 6 4
M  V30 6 2 7 2
M  V30 7 1 7 6
M  V30 8 1 8 7
M  V30 9 1 9 8
M  V30 10 1 10 9
M  V30 11 1 11 10
M  V30 12 2 12 11
M  V30 13 1 13 12
M  V30 14 2 14 13
M  V30 15 1 15 6
M  V30 16 1 15 11
M  V30 17 1 15 14
M  V30 18 1 16 1
M  V30 19 1 17 1
M  V30 20 1 18 1
M  V30 21 1 19 5
M  V30 22 1 20 5
M  V30 23 1 21 5
M  V30 24 1 22 8
M  V30 25 1 23 8
M  V30 26 1 24 9
M  V30 27 1 25 9
M  V30 28 1 26 10
M  V30 29 1 27 10
M  V30 30 1 28 14
M  V30 END BOND
M  V30 END CTAB
M  END
>  <b_m_subgroup_collapsed>  (2451) 
0

>  <r_i_docking_score>  (2451) 
-5.5954680971365898

>  <s_m_subgroup_title>  (2451) 
glide-dock_SP_D22_pv

>  <s_m_subgroupid>  (2451) 
glide-dock_SP_D22_pv

>  <Molecule ChEMBL ID>  (2451) 
CHEMBL98331

>  <Standard Type>  (2451) 
Ki

>  <Standard Value>  (2451) 
10000.0

>  <label>  (2451) 
0

$$$$
CHEMBL350161
     RDKit          3D

  0  0  0  0  0  0  0  0  0  0999 V3000
M  V30 BEGIN CTAB
M  V30 COUNTS 41 41 0 0 1
M  V30 BEGIN ATOM
M  V30 1 C 11.300567 6.169530 -6.623075 0
M  V30 2 C 9.973347 6.781694 -6.143716 0
M  V30 3 C 8.805866 6.811369 -7.162226 0
M  V30 4 N 9.018058 7.520652 -8.465524 0 CHG=1
M  V30 5 C 9.543905 8.919677 -8.326612 0
M  V30 6 C 11.067494 9.125064 -8.018213 0
M  V30 7 C 12.120813 8.739539 -9.063235 0
M  V30 8 C 9.521772 6.713425 -9.632169 0
M  V30 9 C 8.649403 5.471787 -9.965472 0
M  V30 10 C 9.194584 4.649054 -11.151688 0
M  V30 11 C 9.548730 5.495321 -12.368691 0
M  V30 12 C 9.244518 5.138616 -13.631560 0
M  V30 13 C 8.545865 3.943360 -13.965691 0
M  V30 14 N 7.962991 2.983823 -14.246880 0
M  V30 15 C 10.302410 6.778493 -12.058781 0
M  V30 16 C 9.603592 7.551504 -10.941426 0
M  V30 17 H 11.857437 5.772349 -5.773839 0
M  V30 18 H 11.118035 5.372689 -7.330914 0
M  V30 19 H 11.985262 6.838168 -7.125576 0
M  V30 20 H 10.126245 7.758541 -5.687312 0
M  V30 21 H 9.629752 6.172091 -5.306560 0
M  V30 22 H 7.985855 7.315748 -6.646574 0
M  V30 23 H 8.433125 5.803213 -7.311723 0
M  V30 24 H 9.259164 9.511878 -9.195789 0
M  V30 25 H 8.981575 9.372933 -7.510972 0
M  V30 26 H 11.246222 10.172302 -7.863231 0
M  V30 27 H 11.346841 8.770615 -7.035943 0
M  V30 28 H 13.110441 8.971455 -8.666172 0
M  V30 29 H 12.132689 7.684230 -9.316008 0
M  V30 30 H 12.007137 9.315988 -9.979235 0
M  V30 31 H 10.512283 6.341007 -9.375876 0
M  V30 32 H 7.631454 5.772119 -10.211343 0
M  V30 33 H 8.565644 4.786294 -9.124745 0
M  V30 34 H 8.464796 3.888601 -11.424986 0
M  V30 35 H 10.086486 4.109062 -10.839441 0
M  V30 36 H 9.534056 5.771875 -14.454243 0
M  V30 37 H 11.322645 6.571754 -11.742918 0
M  V30 38 H 10.410063 7.395409 -12.947727 0
M  V30 39 H 8.601732 7.843388 -11.264868 0
M  V30 40 H 10.153277 8.476829 -10.821076 0
M  V30 41 H 8.052463 7.674823 -8.754177 0
M  V30 END ATOM
M  V30 BEGIN BOND
M  V30 1 1 2 1
M  V30 2 1 3 2
M  V30 3 1 4 3
M  V30 4 1 5 4
M  V30 5 1 6 5
M  V30 6 1 7 6
M  V30 7 1 8 4
M  V30 8 1 9 8
M  V30 9 1 10 9
M  V30 10 1 11 10
M  V30 11 2 12 11
M  V30 12 1 13 12
M  V30 13 3 14 13
M  V30 14 1 15 11
M  V30 15 1 16 8
M  V30 16 1 16 15
M  V30 17 1 17 1
M  V30 18 1 18 1
M  V30 19 1 19 1
M  V30 20 1 20 2
M  V30 21 1 21 2
M  V30 22 1 22 3
M  V30 23 1 23 3
M  V30 24 1 24 5
M  V30 25 1 25 5
M  V30 26 1 26 6
M  V30 27 1 27 6
M  V30 28 1 28 7
M  V30 29 1 29 7
M  V30 30 1 30 7
M  V30 31 1 31 8
M  V30 32 1 32 9
M  V30 33 1 33 9
M  V30 34 1 34 10
M  V30 35 1 35 10
M  V30 36 1 36 12
M  V30 37 1 37 15
M  V30 38 1 38 15
M  V30 39 1 39 16
M  V30 40 1 40 16
M  V30 41 1 41 4
M  V30 END BOND
M  V30 END CTAB
M  END
>  <b_m_subgroup_collapsed>  (2452) 
0

>  <r_i_docking_score>  (2452) 
-5.59350616833889

>  <s_m_subgroup_title>  (2452) 
glide-dock_SP_D22_pv

>  <s_m_subgroupid>  (2452) 
glide-dock_SP_D22_pv

>  <Molecule ChEMBL ID>  (2452) 
CHEMBL350161

>  <Standard Type>  (2452) 
Ki

>  <Standard Value>  (2452) 
20000.0

>  <label>  (2452) 
0

$$$$
CHEMBL4483472
     RDKit          3D

  0  0  0  0  0  0  0  0  0  0999 V3000
M  V30 BEGIN CTAB
M  V30 COUNTS 50 52 0 0 1
M  V30 BEGIN ATOM
M  V30 1 C 11.461264 7.188711 -5.104966 0
M  V30 2 C 10.173105 6.972323 -5.910230 0
M  V30 3 C 10.457604 6.633920 -7.383729 0
M  V30 4 C 9.182763 6.317645 -8.191175 0
M  V30 5 N 9.463342 6.234314 -9.644596 0 CFG=2 CHG=1
M  V30 6 C 9.617142 7.548405 -10.299820 0
M  V30 7 C 9.336461 7.326117 -11.784239 0
M  V30 8 C 8.613210 5.967585 -11.890880 0 CFG=1
M  V30 9 C 7.263741 6.021073 -12.621871 0
M  V30 10 C 7.061579 4.599391 -13.154935 0
M  V30 11 N 8.404370 4.089073 -13.363641 0
M  V30 12 C 8.740295 2.923191 -14.094395 0
M  V30 13 C 10.074979 2.766872 -14.546317 0
M  V30 14 C 10.480510 1.619710 -15.247833 0
M  V30 15 C 9.556733 0.598430 -15.510205 0
M  V30 16 C 8.226980 0.733783 -15.075196 0
M  V30 17 C 7.797172 1.886079 -14.365321 0
M  V30 18 O 6.499048 2.015658 -13.906898 0
M  V30 19 C 5.646169 0.880265 -13.930034 0
M  V30 20 C 9.398548 4.953134 -12.745517 0
M  V30 21 C 8.451265 5.502273 -10.429084 0
M  V30 22 H 11.252193 7.409723 -4.059168 0
M  V30 23 H 12.086918 6.295756 -5.130280 0
M  V30 24 H 12.036136 8.025265 -5.506489 0
M  V30 25 H 9.549387 7.867675 -5.850855 0
M  V30 26 H 9.593166 6.172379 -5.449129 0
M  V30 27 H 11.137716 5.781450 -7.441006 0
M  V30 28 H 10.981222 7.480907 -7.830873 0
M  V30 29 H 8.421796 7.077449 -8.005620 0
M  V30 30 H 8.764672 5.369314 -7.844720 0
M  V30 31 H 10.605914 7.973539 -10.127521 0
M  V30 32 H 8.887104 8.253881 -9.899946 0
M  V30 33 H 10.275553 7.315667 -12.336732 0
M  V30 34 H 8.739320 8.146233 -12.186089 0
M  V30 35 H 7.342080 6.724092 -13.446860 0
M  V30 36 H 6.429394 6.349816 -12.002296 0
M  V30 37 H 6.474371 4.580758 -14.073793 0
M  V30 38 H 6.553449 3.988364 -12.406370 0
M  V30 39 H 10.815660 3.530680 -14.362620 0
M  V30 40 H 11.504262 1.525929 -15.584189 0
M  V30 41 H 9.863964 -0.286011 -16.049667 0
M  V30 42 H 7.552423 -0.078565 -15.301213 0
M  V30 43 H 4.703184 1.135833 -13.444416 0
M  V30 44 H 5.413910 0.570247 -14.950423 0
M  V30 45 H 6.080486 0.040801 -13.385522 0
M  V30 46 H 10.115263 4.382507 -12.150292 0
M  V30 47 H 9.946489 5.461115 -13.541769 0
M  V30 48 H 7.461779 5.772283 -10.059355 0
M  V30 49 H 8.548484 4.422447 -10.310143 0
M  V30 50 H 10.328129 5.727525 -9.767709 0
M  V30 END ATOM
M  V30 BEGIN BOND
M  V30 1 1 2 1
M  V30 2 1 3 2
M  V30 3 1 4 3
M  V30 4 1 5 4
M  V30 5 1 6 5
M  V30 6 1 7 6
M  V30 7 1 8 7 CFG=1
M  V30 8 1 9 8
M  V30 9 1 10 9
M  V30 10 1 11 10
M  V30 11 1 12 11
M  V30 12 2 13 12
M  V30 13 1 14 13
M  V30 14 2 15 14
M  V30 15 1 16 15
M  V30 16 1 17 12
M  V30 17 2 17 16
M  V30 18 1 18 17
M  V30 19 1 19 18
M  V30 20 1 20 8
M  V30 21 1 20 11
M  V30 22 1 21 5
M  V30 23 1 21 8
M  V30 24 1 22 1
M  V30 25 1 23 1
M  V30 26 1 24 1
M  V30 27 1 25 2
M  V30 28 1 26 2
M  V30 29 1 27 3
M  V30 30 1 28 3
M  V30 31 1 29 4
M  V30 32 1 30 4
M  V30 33 1 31 6
M  V30 34 1 32 6
M  V30 35 1 33 7
M  V30 36 1 34 7
M  V30 37 1 35 9
M  V30 38 1 36 9
M  V30 39 1 37 10
M  V30 40 1 38 10
M  V30 41 1 39 13
M  V30 42 1 40 14
M  V30 43 1 41 15
M  V30 44 1 42 16
M  V30 45 1 43 19
M  V30 46 1 44 19
M  V30 47 1 45 19
M  V30 48 1 46 20
M  V30 49 1 47 20
M  V30 50 1 48 21
M  V30 51 1 49 21
M  V30 52 1 5 50 CFG=1
M  V30 END BOND
M  V30 END CTAB
M  END
>  <b_m_subgroup_collapsed>  (2453) 
0

>  <r_i_docking_score>  (2453) 
-5.5920131035946303

>  <s_m_subgroup_title>  (2453) 
glide-dock_SP_D22_pv

>  <s_m_subgroupid>  (2453) 
glide-dock_SP_D22_pv

>  <Molecule ChEMBL ID>  (2453) 
CHEMBL4483472

>  <Standard Type>  (2453) 
Ki

>  <Standard Value>  (2453) 
26050.0

>  <label>  (2453) 
0

$$$$
CHEMBL65274
     RDKit          3D

  0  0  0  0  0  0  0  0  0  0999 V3000
M  V30 BEGIN CTAB
M  V30 COUNTS 52 54 0 0 1
M  V30 BEGIN ATOM
M  V30 1 C 8.485862 4.571499 -8.600669 0
M  V30 2 C 9.796856 5.097464 -9.182511 0
M  V30 3 C 9.582807 6.178771 -10.259578 0
M  V30 4 N 8.806484 5.703900 -11.443520 0 CHG=1
M  V30 5 C 8.085056 6.817187 -12.129948 0
M  V30 6 C 6.599948 6.527002 -12.419043 0
M  V30 7 C 5.927775 7.795761 -12.964795 0
M  V30 8 C 9.566991 4.770883 -12.346614 0 CFG=2
M  V30 9 C 10.642349 5.439682 -13.230030 0
M  V30 10 C 11.436651 4.416329 -14.053102 0
M  V30 11 C 10.600826 3.290101 -14.648616 0
M  V30 12 C 11.198516 2.493383 -15.641080 0
M  V30 13 C 10.487280 1.428926 -16.207062 0
M  V30 14 C 9.183921 1.155575 -15.764791 0
M  V30 15 N 8.303527 0.172460 -16.142138 0
M  V30 16 C 7.149994 0.234500 -15.394574 0
M  V30 17 C 7.206811 1.312329 -14.549137 0
M  V30 18 C 6.085979 1.531652 -13.632151 0
M  V30 19 C 5.576149 2.956413 -13.446087 0
M  V30 20 O 5.477626 0.631038 -13.053052 0
M  V30 21 C 8.521478 1.925570 -14.755009 0
M  V30 22 C 9.272549 3.018784 -14.219979 0
M  V30 23 C 8.616192 3.944913 -13.220384 0
M  V30 24 H 8.669657 3.802284 -7.851891 0
M  V30 25 H 7.912224 5.370631 -8.128314 0
M  V30 26 H 7.869013 4.124274 -9.377528 0
M  V30 27 H 10.385586 4.260251 -9.549868 0
M  V30 28 H 10.386804 5.525892 -8.370701 0
M  V30 29 H 10.536827 6.599968 -10.575689 0
M  V30 30 H 9.046206 6.991645 -9.767211 0
M  V30 31 H 8.105242 7.717727 -11.517722 0
M  V30 32 H 8.572767 7.115719 -13.046825 0
M  V30 33 H 6.453375 5.732254 -13.138706 0
M  V30 34 H 6.093170 6.171922 -11.518810 0
M  V30 35 H 4.886552 7.639647 -13.212776 0
M  V30 36 H 5.950356 8.610724 -12.246893 0
M  V30 37 H 6.437089 8.172299 -13.846807 0
M  V30 38 H 10.081868 4.047852 -11.715428 0
M  V30 39 H 10.173243 6.103117 -13.949344 0
M  V30 40 H 11.327543 6.055226 -12.648353 0
M  V30 41 H 12.211680 3.958775 -13.441737 0
M  V30 42 H 11.963370 4.933356 -14.856388 0
M  V30 43 H 12.209517 2.691942 -15.966753 0
M  V30 44 H 10.947746 0.815472 -16.966740 0
M  V30 45 H 8.476077 -0.560786 -16.815130 0
M  V30 46 H 6.370336 -0.503980 -15.526024 0
M  V30 47 H 5.884155 3.358554 -12.482034 0
M  V30 48 H 5.922185 3.609090 -14.247490 0
M  V30 49 H 4.486587 2.954467 -13.446829 0
M  V30 50 H 8.010828 4.596485 -13.841798 0
M  V30 51 H 7.969440 3.373924 -12.569322 0
M  V30 52 H 8.065564 5.157959 -11.025098 0
M  V30 END ATOM
M  V30 BEGIN BOND
M  V30 1 1 2 1
M  V30 2 1 3 2
M  V30 3 1 4 3
M  V30 4 1 5 4
M  V30 5 1 6 5
M  V30 6 1 7 6
M  V30 7 1 8 4
M  V30 8 1 9 8
M  V30 9 1 10 9
M  V30 10 1 11 10
M  V30 11 1 12 11
M  V30 12 2 13 12
M  V30 13 1 14 13
M  V30 14 1 15 14
M  V30 15 1 16 15
M  V30 16 2 17 16
M  V30 17 1 18 17
M  V30 18 1 19 18
M  V30 19 2 20 18
M  V30 20 2 21 14
M  V30 21 1 21 17
M  V30 22 2 22 11
M  V30 23 1 22 21
M  V30 24 1 23 8
M  V30 25 1 23 22
M  V30 26 1 24 1
M  V30 27 1 25 1
M  V30 28 1 26 1
M  V30 29 1 27 2
M  V30 30 1 28 2
M  V30 31 1 29 3
M  V30 32 1 30 3
M  V30 33 1 31 5
M  V30 34 1 32 5
M  V30 35 1 33 6
M  V30 36 1 34 6
M  V30 37 1 35 7
M  V30 38 1 36 7
M  V30 39 1 37 7
M  V30 40 1 8 38 CFG=1
M  V30 41 1 39 9
M  V30 42 1 40 9
M  V30 43 1 41 10
M  V30 44 1 42 10
M  V30 45 1 43 12
M  V30 46 1 44 13
M  V30 47 1 45 15
M  V30 48 1 46 16
M  V30 49 1 47 19
M  V30 50 1 48 19
M  V30 51 1 49 19
M  V30 52 1 50 23
M  V30 53 1 51 23
M  V30 54 1 52 4
M  V30 END BOND
M  V30 END CTAB
M  END
>  <b_m_subgroup_collapsed>  (2454) 
0

>  <r_i_docking_score>  (2454) 
-5.5894951999761204

>  <s_m_subgroup_title>  (2454) 
glide-dock_SP_D22_pv

>  <s_m_subgroupid>  (2454) 
glide-dock_SP_D22_pv

>  <Molecule ChEMBL ID>  (2454) 
CHEMBL65274

>  <Standard Type>  (2454) 
Ki

>  <Standard Value>  (2454) 
17.0

>  <label>  (2454) 
1

$$$$
CHEMBL485017
     RDKit          3D

  0  0  0  0  0  0  0  0  0  0999 V3000
M  V30 BEGIN CTAB
M  V30 COUNTS 43 46 0 0 1
M  V30 BEGIN ATOM
M  V30 1 C 11.153263 8.884581 -7.256258 0
M  V30 2 C 10.846568 7.820204 -8.317260 0
M  V30 3 C 9.519219 8.094619 -9.060884 0
M  V30 4 N 9.094619 7.002084 -9.979692 0 CFG=2 CHG=1
M  V30 5 C 8.660395 5.785369 -9.249597 0
M  V30 6 C 8.077998 4.783331 -10.246765 0
M  V30 7 O 9.062282 4.437247 -11.203053 0
M  V30 8 C 9.426711 5.552103 -11.993415 0 CFG=2
M  V30 9 C 10.351694 5.125152 -13.126162 0
M  V30 10 C 10.138217 3.885805 -13.767657 0
M  V30 11 C 10.965252 3.445515 -14.828629 0
M  V30 12 C 10.744813 2.133959 -15.488652 0
M  V30 13 N 11.286736 1.823511 -16.674349 0
M  V30 14 N 10.854105 0.571177 -16.880733 0
M  V30 15 N 10.085156 0.176479 -15.851680 0
M  V30 16 N 9.990821 1.164302 -14.951106 0 CHG=-1
M  V30 17 C 12.019429 4.296514 -15.233490 0
M  V30 18 C 12.234004 5.539057 -14.613461 0
M  V30 19 C 11.401835 5.963116 -13.561256 0
M  V30 20 C 11.672170 7.308492 -12.904570 0
M  V30 21 C 10.582248 7.773038 -11.914210 0
M  V30 22 C 10.050853 6.617607 -11.060271 0 CFG=1
M  V30 23 H 12.071623 8.641042 -6.718462 0
M  V30 24 H 10.341250 8.955458 -6.527903 0
M  V30 25 H 11.285992 9.864331 -7.712980 0
M  V30 26 H 11.675820 7.777402 -9.023906 0
M  V30 27 H 10.817491 6.849392 -7.822352 0
M  V30 28 H 8.721498 8.249951 -8.331544 0
M  V30 29 H 9.585525 9.031312 -9.614991 0
M  V30 30 H 9.494250 5.321923 -8.720975 0
M  V30 31 H 7.908012 6.041134 -8.502651 0
M  V30 32 H 7.687278 3.899614 -9.735818 0
M  V30 33 H 7.225361 5.227416 -10.763434 0
M  V30 34 H 8.536338 5.964892 -12.474080 0
M  V30 35 H 9.327050 3.253672 -13.436407 0
M  V30 36 H 12.679325 3.991599 -16.031488 0
M  V30 37 H 13.052480 6.165122 -14.941492 0
M  V30 38 H 12.624195 7.228295 -12.376507 0
M  V30 39 H 11.823674 8.048111 -13.693789 0
M  V30 40 H 10.993218 8.571630 -11.300559 0
M  V30 41 H 9.750400 8.208359 -12.468971 0
M  V30 42 H 10.886396 6.172971 -10.536717 0
M  V30 43 H 8.242052 7.355102 -10.413768 0
M  V30 END ATOM
M  V30 BEGIN BOND
M  V30 1 1 2 1
M  V30 2 1 3 2
M  V30 3 1 4 3
M  V30 4 1 5 4
M  V30 5 1 6 5
M  V30 6 1 7 6
M  V30 7 1 8 7
M  V30 8 1 9 8
M  V30 9 1 10 9
M  V30 10 2 11 10
M  V30 11 1 12 11
M  V30 12 2 13 12
M  V30 13 1 14 13
M  V30 14 2 15 14
M  V30 15 1 16 12
M  V30 16 1 16 15
M  V30 17 1 17 11
M  V30 18 2 18 17
M  V30 19 2 19 9
M  V30 20 1 19 18
M  V30 21 1 20 19
M  V30 22 1 21 20
M  V30 23 1 22 4
M  V30 24 1 22 8
M  V30 25 1 22 21
M  V30 26 1 23 1
M  V30 27 1 24 1
M  V30 28 1 25 1
M  V30 29 1 26 2
M  V30 30 1 27 2
M  V30 31 1 28 3
M  V30 32 1 29 3
M  V30 33 1 30 5
M  V30 34 1 31 5
M  V30 35 1 32 6
M  V30 36 1 33 6
M  V30 37 1 8 34 CFG=3
M  V30 38 1 35 10
M  V30 39 1 36 17
M  V30 40 1 37 18
M  V30 41 1 38 20
M  V30 42 1 39 20
M  V30 43 1 40 21
M  V30 44 1 41 21
M  V30 45 1 22 42 CFG=1
M  V30 46 1 4 43 CFG=3
M  V30 END BOND
M  V30 END CTAB
M  END
>  <b_m_subgroup_collapsed>  (2455) 
0

>  <r_i_docking_score>  (2455) 
-5.5893917972727998

>  <s_m_subgroup_title>  (2455) 
glide-dock_SP_D22_pv

>  <s_m_subgroupid>  (2455) 
glide-dock_SP_D22_pv

>  <Molecule ChEMBL ID>  (2455) 
CHEMBL485017

>  <Standard Type>  (2455) 
Ki

>  <Standard Value>  (2455) 
10000.0

>  <label>  (2455) 
0

$$$$
CHEMBL608728
     RDKit          3D

  0  0  0  0  0  0  0  0  0  0999 V3000
M  V30 BEGIN CTAB
M  V30 COUNTS 44 47 0 0 1
M  V30 BEGIN ATOM
M  V30 1 C 4.742301 0.272911 -19.430304 0
M  V30 2 C 5.293404 -0.949821 -19.497440 0
M  V30 3 C 6.322424 -1.525747 -18.534138 0
M  V30 4 O 6.663129 -0.649772 -17.460960 0
M  V30 5 C 5.829460 -0.538853 -16.362455 0
M  V30 6 C 4.560921 -1.171053 -16.311096 0
M  V30 7 C 3.687735 -0.943934 -15.239850 0
M  V30 8 C 4.051144 -0.054127 -14.221922 0
M  V30 9 C 5.312770 0.572115 -14.246687 0
M  V30 10 C 6.243484 0.288802 -15.278230 0
M  V30 11 C 7.595701 0.899746 -15.174652 0
M  V30 12 C 8.755290 0.299113 -15.730040 0
M  V30 13 C 10.047535 0.836726 -15.584193 0
M  V30 14 C 10.236883 2.009696 -14.843856 0
M  V30 15 C 9.138007 2.646045 -14.246848 0
M  V30 16 C 7.843181 2.080388 -14.422830 0
M  V30 17 C 6.588806 2.728137 -13.790889 0 CFG=1
M  V30 18 C 5.640579 1.639278 -13.215878 0
M  V30 19 N 6.867655 3.817651 -12.806826 0 CFG=2 CHG=1
M  V30 20 C 5.686947 4.636175 -12.442959 0
M  V30 21 C 7.971922 4.680885 -13.259979 0
M  V30 22 C 9.246984 3.859848 -13.341001 0
M  V30 23 H 5.000981 0.969469 -18.647089 0
M  V30 24 H 4.016671 0.592524 -20.164293 0
M  V30 25 H 4.998148 -1.604139 -20.304827 0
M  V30 26 H 6.003759 -2.503688 -18.167158 0
M  V30 27 H 7.232750 -1.709854 -19.103701 0
M  V30 28 H 4.208272 -1.817133 -17.099899 0
M  V30 29 H 2.719131 -1.418228 -15.237551 0
M  V30 30 H 3.333521 0.171631 -13.446973 0
M  V30 31 H 8.673760 -0.627888 -16.271891 0
M  V30 32 H 10.894567 0.334122 -16.027765 0
M  V30 33 H 11.233050 2.403027 -14.708907 0
M  V30 34 H 6.079418 3.202858 -14.633359 0
M  V30 35 H 4.703839 2.079866 -12.878055 0
M  V30 36 H 6.085738 1.144549 -12.351954 0
M  V30 37 H 5.240638 5.091109 -13.330009 0
M  V30 38 H 5.965677 5.439344 -11.756872 0
M  V30 39 H 4.926791 4.050317 -11.931027 0
M  V30 40 H 7.735733 5.113929 -14.233345 0
M  V30 41 H 8.123063 5.510390 -12.566562 0
M  V30 42 H 9.545095 3.518570 -12.349231 0
M  V30 43 H 10.058580 4.491356 -13.706446 0
M  V30 44 H 7.190302 3.375972 -11.955570 0
M  V30 END ATOM
M  V30 BEGIN BOND
M  V30 1 2 2 1
M  V30 2 1 3 2
M  V30 3 1 4 3
M  V30 4 1 5 4
M  V30 5 2 6 5
M  V30 6 1 7 6
M  V30 7 2 8 7
M  V30 8 1 9 8
M  V30 9 1 10 5
M  V30 10 2 10 9
M  V30 11 1 11 10
M  V30 12 2 12 11
M  V30 13 1 13 12
M  V30 14 2 14 13
M  V30 15 1 15 14
M  V30 16 1 16 11
M  V30 17 2 16 15
M  V30 18 1 17 16
M  V30 19 1 18 9
M  V30 20 1 18 17
M  V30 21 1 19 17
M  V30 22 1 20 19
M  V30 23 1 21 19
M  V30 24 1 22 15
M  V30 25 1 22 21
M  V30 26 1 23 1
M  V30 27 1 24 1
M  V30 28 1 25 2
M  V30 29 1 26 3
M  V30 30 1 27 3
M  V30 31 1 28 6
M  V30 32 1 29 7
M  V30 33 1 30 8
M  V30 34 1 31 12
M  V30 35 1 32 13
M  V30 36 1 33 14
M  V30 37 1 17 34 CFG=3
M  V30 38 1 35 18
M  V30 39 1 36 18
M  V30 40 1 37 20
M  V30 41 1 38 20
M  V30 42 1 39 20
M  V30 43 1 40 21
M  V30 44 1 41 21
M  V30 45 1 42 22
M  V30 46 1 43 22
M  V30 47 1 19 44 CFG=1
M  V30 END BOND
M  V30 END CTAB
M  END
>  <b_m_subgroup_collapsed>  (2456) 
0

>  <r_i_docking_score>  (2456) 
-5.5893340275704997

>  <s_m_subgroup_title>  (2456) 
glide-dock_SP_D22_pv

>  <s_m_subgroupid>  (2456) 
glide-dock_SP_D22_pv

>  <Molecule ChEMBL ID>  (2456) 
CHEMBL608728

>  <Standard Type>  (2456) 
Ki

>  <Standard Value>  (2456) 
10000.0

>  <label>  (2456) 
0

$$$$
CHEMBL317597
     RDKit          3D

  0  0  0  0  0  0  0  0  0  0999 V3000
M  V30 BEGIN CTAB
M  V30 COUNTS 29 31 0 0 1
M  V30 BEGIN ATOM
M  V30 1 C 7.409495 0.396637 -14.406204 0
M  V30 2 N 8.575213 1.189932 -14.757051 0
M  V30 3 N 9.562085 0.557625 -15.424002 0
M  V30 4 C 10.509676 1.463579 -15.547114 0
M  V30 5 C 10.172263 2.715436 -14.963485 0
M  V30 6 C 8.894458 2.521155 -14.492957 0
M  V30 7 C 7.987288 3.437253 -13.775538 0
M  V30 8 C 6.583295 3.355619 -13.939909 0
M  V30 9 C 5.701621 4.172597 -13.208704 0
M  V30 10 C 6.214789 5.119302 -12.307669 0
M  V30 11 C 7.604503 5.249602 -12.156280 0
M  V30 12 C 8.489066 4.422521 -12.882647 0
M  V30 13 C 9.980243 4.635070 -12.700996 0
M  V30 14 C 10.648233 5.066804 -14.013789 0
M  V30 15 C 11.109826 3.899492 -14.899905 0
M  V30 16 H 7.003571 0.711539 -13.446557 0
M  V30 17 H 7.685613 -0.651808 -14.321419 0
M  V30 18 H 6.648880 0.489673 -15.180614 0
M  V30 19 H 11.431898 1.176208 -16.031513 0
M  V30 20 H 6.153551 2.660306 -14.641648 0
M  V30 21 H 4.634214 4.081215 -13.345156 0
M  V30 22 H 5.553147 5.756316 -11.738199 0
M  V30 23 H 7.980351 5.999492 -11.474698 0
M  V30 24 H 10.134826 5.411552 -11.951398 0
M  V30 25 H 10.440861 3.733994 -12.297565 0
M  V30 26 H 9.967013 5.714288 -14.566985 0
M  V30 27 H 11.520582 5.681924 -13.789990 0
M  V30 28 H 12.073393 3.559780 -14.516127 0
M  V30 29 H 11.322047 4.278533 -15.900871 0
M  V30 END ATOM
M  V30 BEGIN BOND
M  V30 1 1 2 1
M  V30 2 1 3 2
M  V30 3 2 4 3
M  V30 4 1 5 4
M  V30 5 1 6 2
M  V30 6 2 6 5
M  V30 7 1 7 6
M  V30 8 2 8 7
M  V30 9 1 9 8
M  V30 10 2 10 9
M  V30 11 1 11 10
M  V30 12 1 12 7
M  V30 13 2 12 11
M  V30 14 1 13 12
M  V30 15 1 14 13
M  V30 16 1 15 5
M  V30 17 1 15 14
M  V30 18 1 16 1
M  V30 19 1 17 1
M  V30 20 1 18 1
M  V30 21 1 19 4
M  V30 22 1 20 8
M  V30 23 1 21 9
M  V30 24 1 22 10
M  V30 25 1 23 11
M  V30 26 1 24 13
M  V30 27 1 25 13
M  V30 28 1 26 14
M  V30 29 1 27 14
M  V30 30 1 28 15
M  V30 31 1 29 15
M  V30 END BOND
M  V30 END CTAB
M  END
>  <b_m_subgroup_collapsed>  (2457) 
0

>  <r_i_docking_score>  (2457) 
-5.5875472301446996

>  <s_m_subgroup_title>  (2457) 
glide-dock_SP_D22_pv

>  <s_m_subgroupid>  (2457) 
glide-dock_SP_D22_pv

>  <Molecule ChEMBL ID>  (2457) 
CHEMBL317597

>  <Standard Type>  (2457) 
Ki

>  <Standard Value>  (2457) 
10000.0

>  <label>  (2457) 
0

$$$$
CHEMBL201010
     RDKit          3D

  0  0  0  0  0  0  0  0  0  0999 V3000
M  V30 BEGIN CTAB
M  V30 COUNTS 49 53 0 0 1
M  V30 BEGIN ATOM
M  V30 1 C 10.144460 -0.062204 -15.136693 0
M  V30 2 N 10.045269 0.826001 -16.331615 0 CFG=2 CHG=1
M  V30 3 C 10.761622 0.108488 -17.437981 0
M  V30 4 C 10.986297 0.950019 -18.701862 0
M  V30 5 C 11.790686 2.199409 -18.353350 0
M  V30 6 C 11.032425 3.009400 -17.297140 0 CFG=2
M  V30 7 C 11.750072 4.335446 -17.035822 0
M  V30 8 C 12.811357 4.433741 -16.107405 0
M  V30 9 C 13.470848 5.660391 -15.898200 0
M  V30 10 C 13.095243 6.795755 -16.636215 0
M  V30 11 C 12.058623 6.701395 -17.580301 0
M  V30 12 C 11.379351 5.482660 -17.769302 0
M  V30 13 C 10.699455 2.160213 -16.024012 0 CFG=1
M  V30 14 C 9.841219 2.933128 -15.061458 0
M  V30 15 N 10.270635 3.966128 -14.249897 0
M  V30 16 C 9.224849 4.452119 -13.492707 0
M  V30 17 C 9.155255 5.473818 -12.532284 0
M  V30 18 C 7.927439 5.745991 -11.907177 0
M  V30 19 C 6.780762 5.006227 -12.252059 0
M  V30 20 C 6.855755 3.986880 -13.222637 0
M  V30 21 C 8.079795 3.682395 -13.862223 0
M  V30 22 C 8.503361 2.730092 -14.853178 0
M  V30 23 C 7.744929 1.640047 -15.542492 0
M  V30 24 C 8.590717 1.014284 -16.683632 0
M  V30 25 H 9.659385 0.336009 -14.246940 0
M  V30 26 H 11.184624 -0.229157 -14.860978 0
M  V30 27 H 9.688581 -1.027385 -15.343728 0
M  V30 28 H 11.742743 -0.213996 -17.083683 0
M  V30 29 H 10.225581 -0.805633 -17.702625 0
M  V30 30 H 11.523186 0.362472 -19.446661 0
M  V30 31 H 10.036817 1.224775 -19.164970 0
M  V30 32 H 12.784804 1.929888 -17.992105 0
M  V30 33 H 11.935787 2.798075 -19.254959 0
M  V30 34 H 10.077376 3.285892 -17.746025 0
M  V30 35 H 13.133302 3.570943 -15.547654 0
M  V30 36 H 14.274871 5.728988 -15.179051 0
M  V30 37 H 13.605350 7.734468 -16.485653 0
M  V30 38 H 11.770990 7.570274 -18.153868 0
M  V30 39 H 10.582744 5.430203 -18.496607 0
M  V30 40 H 11.647242 1.934431 -15.532118 0
M  V30 41 H 11.213376 4.331302 -14.262172 0
M  V30 42 H 10.035055 6.042706 -12.271160 0
M  V30 43 H 7.863658 6.524147 -11.159443 0
M  V30 44 H 5.844354 5.226122 -11.761457 0
M  V30 45 H 5.968266 3.428810 -13.476456 0
M  V30 46 H 7.460502 0.874871 -14.817944 0
M  V30 47 H 6.810554 2.024634 -15.949563 0
M  V30 48 H 8.509809 1.664442 -17.554197 0
M  V30 49 H 8.142773 0.063440 -16.978910 0
M  V30 END ATOM
M  V30 BEGIN BOND
M  V30 1 1 2 1 CFG=1
M  V30 2 1 3 2
M  V30 3 1 4 3
M  V30 4 1 5 4
M  V30 5 1 6 5
M  V30 6 1 7 6
M  V30 7 2 8 7
M  V30 8 1 9 8
M  V30 9 2 10 9
M  V30 10 1 11 10
M  V30 11 1 12 7
M  V30 12 2 12 11
M  V30 13 1 13 2
M  V30 14 1 13 6
M  V30 15 1 14 13
M  V30 16 1 15 14
M  V30 17 1 16 15
M  V30 18 2 17 16
M  V30 19 1 18 17
M  V30 20 2 19 18
M  V30 21 1 20 19
M  V30 22 1 21 16
M  V30 23 2 21 20
M  V30 24 2 22 14
M  V30 25 1 22 21
M  V30 26 1 23 22
M  V30 27 1 24 2
M  V30 28 1 24 23
M  V30 29 1 25 1
M  V30 30 1 26 1
M  V30 31 1 27 1
M  V30 32 1 28 3
M  V30 33 1 29 3
M  V30 34 1 30 4
M  V30 35 1 31 4
M  V30 36 1 32 5
M  V30 37 1 33 5
M  V30 38 1 6 34 CFG=3
M  V30 39 1 35 8
M  V30 40 1 36 9
M  V30 41 1 37 10
M  V30 42 1 38 11
M  V30 43 1 39 12
M  V30 44 1 13 40 CFG=1
M  V30 45 1 41 15
M  V30 46 1 42 17
M  V30 47 1 43 18
M  V30 48 1 44 19
M  V30 49 1 45 20
M  V30 50 1 46 23
M  V30 51 1 47 23
M  V30 52 1 48 24
M  V30 53 1 49 24
M  V30 END BOND
M  V30 END CTAB
M  END
>  <b_m_subgroup_collapsed>  (2458) 
0

>  <r_i_docking_score>  (2458) 
-5.5824404863678998

>  <s_m_subgroup_title>  (2458) 
glide-dock_SP_D22_pv

>  <s_m_subgroupid>  (2458) 
glide-dock_SP_D22_pv

>  <Molecule ChEMBL ID>  (2458) 
CHEMBL201010

>  <Standard Type>  (2458) 
Ki

>  <Standard Value>  (2458) 
10000.0

>  <label>  (2458) 
0

$$$$
CHEMBL201393
     RDKit          3D

  0  0  0  0  0  0  0  0  0  0999 V3000
M  V30 BEGIN CTAB
M  V30 COUNTS 43 47 0 0 1
M  V30 BEGIN ATOM
M  V30 1 C 10.860453 7.873721 -8.912864 0
M  V30 2 C 9.899511 6.871083 -8.687298 0
M  V30 3 C 9.328252 6.182151 -9.775242 0
M  V30 4 C 9.702652 6.503016 -11.102151 0
M  V30 5 C 9.106174 5.786203 -12.312099 0 CFG=2
M  V30 6 C 7.642664 5.338977 -12.198974 0
M  V30 7 C 7.553855 4.238518 -13.250735 0
M  V30 8 N 8.850830 3.536934 -13.148600 0 CFG=1 CHG=1
M  V30 9 C 9.158123 2.559593 -14.234338 0
M  V30 10 C 9.682362 3.221607 -15.518260 0
M  V30 11 C 10.743377 4.198731 -15.172403 0
M  V30 12 C 10.835905 4.786242 -13.941302 0
M  V30 13 N 11.944140 5.622363 -13.940882 0
M  V30 14 C 12.560617 5.609607 -15.184418 0
M  V30 15 C 13.686671 6.274090 -15.702491 0
M  V30 16 C 14.084286 6.037116 -17.031591 0
M  V30 17 C 13.348646 5.148709 -17.837669 0
M  V30 18 C 12.218684 4.490812 -17.316124 0
M  V30 19 C 11.805473 4.703905 -15.982205 0
M  V30 20 C 9.897926 4.538148 -12.783459 0 CFG=1
M  V30 21 C 10.664671 7.512163 -11.313972 0
M  V30 22 C 11.246251 8.191384 -10.227695 0
M  V30 23 H 11.297438 8.402145 -8.079968 0
M  V30 24 H 9.593350 6.633060 -7.679199 0
M  V30 25 H 8.593619 5.421495 -9.564743 0
M  V30 26 H 9.102616 6.508326 -13.125449 0
M  V30 27 H 7.413298 4.901841 -11.229005 0
M  V30 28 H 6.941920 6.157381 -12.366488 0
M  V30 29 H 6.706706 3.571809 -13.075747 0
M  V30 30 H 7.444802 4.676842 -14.244183 0
M  V30 31 H 9.925076 1.881879 -13.849806 0
M  V30 32 H 8.285110 1.940398 -14.449522 0
M  V30 33 H 10.070599 2.454328 -16.190722 0
M  V30 34 H 8.888181 3.730723 -16.059076 0
M  V30 35 H 12.254485 6.149052 -13.136776 0
M  V30 36 H 14.252474 6.946986 -15.079023 0
M  V30 37 H 14.953942 6.533803 -17.435257 0
M  V30 38 H 13.648724 4.970891 -18.860012 0
M  V30 39 H 11.658459 3.813714 -17.942867 0
M  V30 40 H 10.451633 4.108908 -11.947993 0
M  V30 41 H 10.958038 7.772310 -12.318715 0
M  V30 42 H 11.980749 8.963785 -10.403949 0
M  V30 43 H 8.762617 2.969809 -12.317067 0
M  V30 END ATOM
M  V30 BEGIN BOND
M  V30 1 2 2 1
M  V30 2 1 3 2
M  V30 3 2 4 3
M  V30 4 1 5 4
M  V30 5 1 6 5
M  V30 6 1 7 6
M  V30 7 1 8 7
M  V30 8 1 9 8
M  V30 9 1 10 9
M  V30 10 1 11 10
M  V30 11 2 12 11
M  V30 12 1 13 12
M  V30 13 1 14 13
M  V30 14 2 15 14
M  V30 15 1 16 15
M  V30 16 2 17 16
M  V30 17 1 18 17
M  V30 18 1 19 11
M  V30 19 1 19 14
M  V30 20 2 19 18
M  V30 21 1 20 5
M  V30 22 1 20 8
M  V30 23 1 20 12
M  V30 24 1 21 4
M  V30 25 1 22 1
M  V30 26 2 22 21
M  V30 27 1 23 1
M  V30 28 1 24 2
M  V30 29 1 25 3
M  V30 30 1 5 26 CFG=3
M  V30 31 1 27 6
M  V30 32 1 28 6
M  V30 33 1 29 7
M  V30 34 1 30 7
M  V30 35 1 31 9
M  V30 36 1 32 9
M  V30 37 1 33 10
M  V30 38 1 34 10
M  V30 39 1 35 13
M  V30 40 1 36 15
M  V30 41 1 37 16
M  V30 42 1 38 17
M  V30 43 1 39 18
M  V30 44 1 20 40 CFG=1
M  V30 45 1 41 21
M  V30 46 1 42 22
M  V30 47 1 8 43 CFG=1
M  V30 END BOND
M  V30 END CTAB
M  END
>  <b_m_subgroup_collapsed>  (2459) 
0

>  <r_i_docking_score>  (2459) 
-5.5821267513895698

>  <s_m_subgroup_title>  (2459) 
glide-dock_SP_D22_pv

>  <s_m_subgroupid>  (2459) 
glide-dock_SP_D22_pv

>  <Molecule ChEMBL ID>  (2459) 
CHEMBL201393

>  <Standard Type>  (2459) 
Ki

>  <Standard Value>  (2459) 
10000.0

>  <label>  (2459) 
0

$$$$
CHEMBL5751862
     RDKit          3D

  0  0  0  0  0  0  0  0  0  0999 V3000
M  V30 BEGIN CTAB
M  V30 COUNTS 86 89 0 0 1
M  V30 BEGIN ATOM
M  V30 1 C 6.731590 1.907883 -21.620089 0
M  V30 2 C 6.001983 0.660687 -21.060669 0
M  V30 3 C 5.451172 -0.090543 -22.292627 0
M  V30 4 C 4.844394 1.105814 -20.141363 0
M  V30 5 C 6.959779 -0.248622 -20.269709 0
M  V30 6 N 8.114499 0.271675 -19.843599 0
M  V30 7 C 8.943168 -0.512658 -19.120358 0
M  V30 8 N 10.210739 -0.015409 -18.755245 0
M  V30 9 C 10.654513 1.283607 -19.260002 0
M  V30 10 C 10.235461 2.409429 -18.293877 0
M  V30 11 N 10.822551 2.167389 -16.968201 0
M  V30 12 C 10.499304 3.246004 -16.030985 0
M  V30 13 C 11.308857 4.524548 -16.331463 0
M  V30 14 C 11.080900 5.647115 -15.306546 0
M  V30 15 C 11.793791 5.416618 -13.965693 0
M  V30 16 N 11.592289 6.534503 -13.046307 0
M  V30 17 C 10.518963 6.690264 -12.246730 0
M  V30 18 O 9.533855 5.957136 -12.328790 0
M  V30 19 N 10.594131 7.760520 -11.416875 0
M  V30 20 C 9.397776 8.298414 -10.756844 0
M  V30 21 C 9.441410 7.998361 -9.249635 0
M  V30 22 C 10.736337 8.561945 -8.628569 0
M  V30 23 N 10.788654 8.340240 -7.155498 0 CHG=1
M  V30 24 C 11.065575 6.938798 -6.733087 0
M  V30 25 C 10.831501 6.788669 -5.224964 0
M  V30 26 C 11.670668 7.781943 -4.407125 0
M  V30 27 C 11.477648 9.214686 -4.918597 0
M  V30 28 C 11.661468 9.310733 -6.442347 0
M  V30 29 C 11.975233 8.046641 -9.390818 0
M  V30 30 C 11.848974 8.333005 -10.892424 0
M  V30 31 C 10.291726 0.896082 -16.459471 0
M  V30 32 C 10.698452 -0.257595 -17.399776 0
M  V30 33 C 8.564407 -1.826074 -18.785931 0
M  V30 34 C 7.308495 -2.271463 -19.241642 0
M  V30 35 C 6.809833 -3.687891 -18.976068 0
M  V30 36 F 7.684278 -4.384783 -18.242371 0
M  V30 37 F 5.637201 -3.657765 -18.331520 0
M  V30 38 F 6.647252 -4.328963 -20.138834 0
M  V30 39 N 6.510230 -1.469805 -19.975792 0
M  V30 40 H 7.113751 2.547919 -20.825031 0
M  V30 41 H 7.578916 1.619902 -22.242229 0
M  V30 42 H 6.073967 2.516376 -22.243546 0
M  V30 43 H 4.886495 -0.978268 -22.006653 0
M  V30 44 H 4.781706 0.540030 -22.878727 0
M  V30 45 H 6.259182 -0.414411 -22.949272 0
M  V30 46 H 5.219026 1.626561 -19.258238 0
M  V30 47 H 4.151414 1.772308 -20.649027 0
M  V30 48 H 4.268102 0.248688 -19.791595 0
M  V30 49 H 11.739872 1.266974 -19.355761 0
M  V30 50 H 10.269661 1.472868 -20.261602 0
M  V30 51 H 10.582701 3.355837 -18.701653 0
M  V30 52 H 9.148542 2.470943 -18.223999 0
M  V30 53 H 9.427175 3.450848 -16.043251 0
M  V30 54 H 10.741993 2.912067 -15.022158 0
M  V30 55 H 12.372563 4.290595 -16.387909 0
M  V30 56 H 11.028818 4.913354 -17.309278 0
M  V30 57 H 11.435023 6.585174 -15.736497 0
M  V30 58 H 10.009829 5.771244 -15.148019 0
M  V30 59 H 11.449145 4.493684 -13.501775 0
M  V30 60 H 12.864142 5.297280 -14.127706 0
M  V30 61 H 12.343781 7.203818 -12.974516 0
M  V30 62 H 9.327139 9.370549 -10.918213 0
M  V30 63 H 8.486281 7.888744 -11.186965 0
M  V30 64 H 8.562937 8.433050 -8.767150 0
M  V30 65 H 9.367307 6.920678 -9.105331 0
M  V30 66 H 10.689814 9.638221 -8.785192 0
M  V30 67 H 10.415419 6.242416 -7.263516 0
M  V30 68 H 12.087003 6.657406 -6.984294 0
M  V30 69 H 9.769149 6.931543 -5.046799 0
M  V30 70 H 11.060997 5.772510 -4.907525 0
M  V30 71 H 11.395991 7.718868 -3.354031 0
M  V30 72 H 12.722796 7.508207 -4.451525 0
M  V30 73 H 10.486185 9.572327 -4.649209 0
M  V30 74 H 12.179797 9.878168 -4.415215 0
M  V30 75 H 12.705883 9.138697 -6.707712 0
M  V30 76 H 11.427188 10.328050 -6.760074 0
M  V30 77 H 12.886699 8.501937 -9.004481 0
M  V30 78 H 12.078617 6.973938 -9.270574 0
M  V30 79 H 12.745886 7.975275 -11.397888 0
M  V30 80 H 11.848681 9.409157 -11.027938 0
M  V30 81 H 10.693109 0.703924 -15.463439 0
M  V30 82 H 9.205983 0.945652 -16.363850 0
M  V30 83 H 10.342950 -1.202418 -16.993576 0
M  V30 84 H 11.786511 -0.335992 -17.441763 0
M  V30 85 H 9.222413 -2.484507 -18.246201 0
M  V30 86 H 9.849382 8.535940 -6.836423 0
M  V30 END ATOM
M  V30 BEGIN BOND
M  V30 1 1 2 1
M  V30 2 1 3 2
M  V30 3 1 4 2
M  V30 4 1 5 2
M  V30 5 2 6 5
M  V30 6 1 7 6
M  V30 7 1 8 7
M  V30 8 1 9 8
M  V30 9 1 10 9
M  V30 10 1 11 10
M  V30 11 1 12 11
M  V30 12 1 13 12
M  V30 13 1 14 13
M  V30 14 1 15 14
M  V30 15 1 16 15
M  V30 16 1 17 16
M  V30 17 2 18 17
M  V30 18 1 19 17
M  V30 19 1 20 19
M  V30 20 1 21 20
M  V30 21 1 22 21
M  V30 22 1 23 22
M  V30 23 1 24 23
M  V30 24 1 25 24
M  V30 25 1 26 25
M  V30 26 1 27 26
M  V30 27 1 28 23
M  V30 28 1 28 27
M  V30 29 1 29 22
M  V30 30 1 30 19
M  V30 31 1 30 29
M  V30 32 1 31 11
M  V30 33 1 32 8
M  V30 34 1 32 31
M  V30 35 2 33 7
M  V30 36 1 34 33
M  V30 37 1 35 34
M  V30 38 1 36 35
M  V30 39 1 37 35
M  V30 40 1 38 35
M  V30 41 1 39 5
M  V30 42 2 39 34
M  V30 43 1 40 1
M  V30 44 1 41 1
M  V30 45 1 42 1
M  V30 46 1 43 3
M  V30 47 1 44 3
M  V30 48 1 45 3
M  V30 49 1 46 4
M  V30 50 1 47 4
M  V30 51 1 48 4
M  V30 52 1 49 9
M  V30 53 1 50 9
M  V30 54 1 51 10
M  V30 55 1 52 10
M  V30 56 1 53 12
M  V30 57 1 54 12
M  V30 58 1 55 13
M  V30 59 1 56 13
M  V30 60 1 57 14
M  V30 61 1 58 14
M  V30 62 1 59 15
M  V30 63 1 60 15
M  V30 64 1 61 16
M  V30 65 1 62 20
M  V30 66 1 63 20
M  V30 67 1 64 21
M  V30 68 1 65 21
M  V30 69 1 66 22
M  V30 70 1 67 24
M  V30 71 1 68 24
M  V30 72 1 69 25
M  V30 73 1 70 25
M  V30 74 1 71 26
M  V30 75 1 72 26
M  V30 76 1 73 27
M  V30 77 1 74 27
M  V30 78 1 75 28
M  V30 79 1 76 28
M  V30 80 1 77 29
M  V30 81 1 78 29
M  V30 82 1 79 30
M  V30 83 1 80 30
M  V30 84 1 81 31
M  V30 85 1 82 31
M  V30 86 1 83 32
M  V30 87 1 84 32
M  V30 88 1 85 33
M  V30 89 1 86 23
M  V30 END BOND
M  V30 END CTAB
M  END
>  <b_m_subgroup_collapsed>  (2460) 
0

>  <r_i_docking_score>  (2460) 
-5.5811153188116602

>  <s_m_subgroup_title>  (2460) 
glide-dock_SP_D22_pv

>  <s_m_subgroupid>  (2460) 
glide-dock_SP_D22_pv

>  <Molecule ChEMBL ID>  (2460) 
CHEMBL5751862

>  <Standard Type>  (2460) 
Ki

>  <Standard Value>  (2460) 
59.3

>  <label>  (2460) 
1

$$$$
CHEMBL394862
     RDKit          3D

  0  0  0  0  0  0  0  0  0  0999 V3000
M  V30 BEGIN CTAB
M  V30 COUNTS 64 68 0 0 1
M  V30 BEGIN ATOM
M  V30 1 O 12.885879 8.172558 -14.663873 0
M  V30 2 C 12.297716 7.165122 -14.278434 0
M  V30 3 N 12.131291 6.069042 -15.030508 0
M  V30 4 C 12.555725 5.943470 -16.419466 0
M  V30 5 C 13.166024 4.559420 -16.698444 0 CFG=2
M  V30 6 O 13.548676 4.484874 -18.058962 0
M  V30 7 C 12.255534 3.359572 -16.350657 0
M  V30 8 C 10.845357 3.449652 -16.968601 0
M  V30 9 N 10.182517 2.151564 -17.039249 0
M  V30 10 C 9.747038 1.670068 -15.719831 0
M  V30 11 C 9.110761 0.268243 -15.854782 0
M  V30 12 N 8.023631 0.288098 -16.830379 0
M  V30 13 C 6.726428 -0.181785 -16.530136 0
M  V30 14 C 6.157174 0.131435 -15.273302 0
M  V30 15 C 4.858856 -0.293425 -14.939219 0
M  V30 16 C 4.098914 -1.027878 -15.866782 0
M  V30 17 C 4.649059 -1.353954 -17.118898 0
M  V30 18 Cl 3.686031 -2.227571 -18.256224 0
M  V30 19 C 5.965889 -0.960314 -17.449242 0
M  V30 20 Cl 6.628225 -1.498246 -18.960192 0
M  V30 21 C 8.341982 0.908376 -18.110308 0
M  V30 22 C 8.997375 2.281344 -17.892096 0
M  V30 23 C 11.723427 7.102264 -12.894403 0
M  V30 24 C 10.485434 6.448176 -12.647242 0
M  V30 25 C 9.895576 6.457351 -11.368269 0
M  V30 26 C 10.590155 7.096343 -10.331218 0
M  V30 27 C 11.812112 7.735057 -10.559167 0
M  V30 28 C 12.389074 7.772242 -11.838021 0
M  V30 29 C 12.392538 8.297607 -9.278603 0
M  V30 30 C 11.313904 7.901612 -8.292368 0
M  V30 31 C 11.286492 8.162984 -6.913582 0
M  V30 32 C 10.193311 7.673024 -6.172124 0
M  V30 33 C 9.151996 6.962494 -6.811144 0
M  V30 34 C 9.182989 6.720989 -8.196340 0
M  V30 35 C 10.279408 7.204734 -8.920603 0
M  V30 36 H 11.660999 5.279679 -14.614005 0
M  V30 37 H 13.286466 6.712893 -16.677048 0
M  V30 38 H 11.689227 6.124713 -17.056641 0
M  V30 39 H 14.085967 4.483006 -16.122824 0
M  V30 40 H 12.773539 4.541917 -18.597162 0
M  V30 41 H 12.748170 2.443150 -16.680937 0
M  V30 42 H 12.169921 3.274156 -15.267539 0
M  V30 43 H 10.227509 4.171415 -16.429659 0
M  V30 44 H 10.945724 3.829599 -17.987379 0
M  V30 45 H 10.598231 1.607156 -15.041193 0
M  V30 46 H 9.035462 2.368614 -15.275996 0
M  V30 47 H 9.861088 -0.444055 -16.197735 0
M  V30 48 H 8.772908 -0.093785 -14.883707 0
M  V30 49 H 6.709367 0.722502 -14.558053 0
M  V30 50 H 4.435600 -0.036868 -13.980277 0
M  V30 51 H 3.094901 -1.342015 -15.623208 0
M  V30 52 H 9.013497 0.253569 -18.666761 0
M  V30 53 H 7.443506 1.042128 -18.712584 0
M  V30 54 H 8.281898 2.971761 -17.442369 0
M  V30 55 H 9.277322 2.696547 -18.861349 0
M  V30 56 H 9.955838 5.956963 -13.449138 0
M  V30 57 H 8.949253 5.969656 -11.185987 0
M  V30 58 H 13.329533 8.278873 -12.002261 0
M  V30 59 H 13.352972 7.844751 -9.035399 0
M  V30 60 H 12.486053 9.372330 -9.337530 0
M  V30 61 H 12.086160 8.707584 -6.434263 0
M  V30 62 H 10.152675 7.843980 -5.108687 0
M  V30 63 H 8.308667 6.599642 -6.247543 0
M  V30 64 H 8.377642 6.188139 -8.682973 0
M  V30 END ATOM
M  V30 BEGIN BOND
M  V30 1 2 2 1
M  V30 2 1 3 2
M  V30 3 1 4 3
M  V30 4 1 5 4
M  V30 5 1 6 5
M  V30 6 1 7 5
M  V30 7 1 8 7
M  V30 8 1 9 8
M  V30 9 1 10 9
M  V30 10 1 11 10
M  V30 11 1 12 11
M  V30 12 1 13 12
M  V30 13 2 14 13
M  V30 14 1 15 14
M  V30 15 2 16 15
M  V30 16 1 17 16
M  V30 17 1 18 17
M  V30 18 1 19 13
M  V30 19 2 19 17
M  V30 20 1 20 19
M  V30 21 1 21 12
M  V30 22 1 22 9
M  V30 23 1 22 21
M  V30 24 1 23 2
M  V30 25 2 24 23
M  V30 26 1 25 24
M  V30 27 2 26 25
M  V30 28 1 27 26
M  V30 29 1 28 23
M  V30 30 2 28 27
M  V30 31 1 29 27
M  V30 32 1 30 29
M  V30 33 2 31 30
M  V30 34 1 32 31
M  V30 35 2 33 32
M  V30 36 1 34 33
M  V30 37 1 35 26
M  V30 38 1 35 30
M  V30 39 2 35 34
M  V30 40 1 36 3
M  V30 41 1 37 4
M  V30 42 1 38 4
M  V30 43 1 5 39 CFG=1
M  V30 44 1 40 6
M  V30 45 1 41 7
M  V30 46 1 42 7
M  V30 47 1 43 8
M  V30 48 1 44 8
M  V30 49 1 45 10
M  V30 50 1 46 10
M  V30 51 1 47 11
M  V30 52 1 48 11
M  V30 53 1 49 14
M  V30 54 1 50 15
M  V30 55 1 51 16
M  V30 56 1 52 21
M  V30 57 1 53 21
M  V30 58 1 54 22
M  V30 59 1 55 22
M  V30 60 1 56 24
M  V30 61 1 57 25
M  V30 62 1 58 28
M  V30 63 1 59 29
M  V30 64 1 60 29
M  V30 65 1 61 31
M  V30 66 1 62 32
M  V30 67 1 63 33
M  V30 68 1 64 34
M  V30 END BOND
M  V30 END CTAB
M  END
>  <b_m_subgroup_collapsed>  (2461) 
0

>  <r_i_docking_score>  (2461) 
-5.5800096106552299

>  <s_m_subgroup_title>  (2461) 
glide-dock_SP_D22_pv

>  <s_m_subgroupid>  (2461) 
glide-dock_SP_D22_pv

>  <Molecule ChEMBL ID>  (2461) 
CHEMBL394862

>  <Standard Type>  (2461) 
Ki

>  <Standard Value>  (2461) 
84.0

>  <label>  (2461) 
1

$$$$
CHEMBL3084517
     RDKit          3D

  0  0  0  0  0  0  0  0  0  0999 V3000
M  V30 BEGIN CTAB
M  V30 COUNTS 49 53 0 0 1
M  V30 BEGIN ATOM
M  V30 1 O 10.884857 2.172375 -14.070603 0
M  V30 2 C 9.706592 2.656798 -14.679565 0 CFG=1
M  V30 3 C 9.137457 3.817495 -13.820020 0
M  V30 4 C 7.766963 3.857596 -13.446504 0
M  V30 5 C 7.256710 4.857998 -12.602302 0
M  V30 6 C 8.108501 5.850461 -12.107512 0
M  V30 7 C 9.459144 5.871590 -12.483036 0
M  V30 8 Cl 10.470087 7.127352 -11.847436 0
M  V30 9 C 9.974318 4.881164 -13.356837 0
M  V30 10 Cl 11.632976 5.037595 -13.846911 0
M  V30 11 C 10.058856 3.142758 -16.121031 0
M  V30 12 C 10.190018 2.014888 -17.187737 0 CFG=1
M  V30 13 C 11.259423 0.970567 -16.822744 0
M  V30 14 C 10.485155 -0.093388 -16.017147 0
M  V30 15 C 9.053906 0.443128 -15.962851 0 CFG=1
M  V30 16 C 8.803510 1.378681 -14.747470 0
M  V30 17 N 8.967268 1.194544 -17.226562 0 CFG=1 CHG=1
M  V30 18 C 7.697860 1.878113 -17.572304 0
M  V30 19 C 6.638672 0.907797 -18.002640 0
M  V30 20 C 6.270371 0.629747 -19.300941 0
M  V30 21 O 5.225263 -0.249690 -19.368923 0
M  V30 22 C 4.898480 -0.573644 -18.072323 0
M  V30 23 C 3.870392 -1.425009 -17.642975 0
M  V30 24 C 3.685110 -1.598707 -16.261536 0
M  V30 25 C 4.537240 -0.967399 -15.339560 0
M  V30 26 C 5.567147 -0.126400 -15.797767 0
M  V30 27 C 5.764820 0.111414 -17.179279 0
M  V30 28 H 10.660456 1.823100 -13.214800 0
M  V30 29 H 7.044213 3.127194 -13.762460 0
M  V30 30 H 6.214318 4.861032 -12.317204 0
M  V30 31 H 7.713485 6.607354 -11.446217 0
M  V30 32 H 9.287759 3.833560 -16.456047 0
M  V30 33 H 10.977149 3.731818 -16.120680 0
M  V30 34 H 10.398180 2.449511 -18.167763 0
M  V30 35 H 12.095050 1.402636 -16.268507 0
M  V30 36 H 11.675513 0.515017 -17.724119 0
M  V30 37 H 10.903144 -0.269472 -15.025574 0
M  V30 38 H 10.486298 -1.044172 -16.552504 0
M  V30 39 H 8.344515 -0.385246 -15.949164 0
M  V30 40 H 8.865197 0.807373 -13.820554 0
M  V30 41 H 7.767120 1.653700 -14.838590 0
M  V30 42 H 7.337141 2.518877 -16.771126 0
M  V30 43 H 7.915288 2.552775 -18.399952 0
M  V30 44 H 6.626491 0.982530 -20.257875 0
M  V30 45 H 3.219286 -1.920655 -18.348391 0
M  V30 46 H 2.886163 -2.227378 -15.900467 0
M  V30 47 H 4.387574 -1.126235 -14.281762 0
M  V30 48 H 6.178556 0.360231 -15.061558 0
M  V30 49 H 9.119450 0.519511 -17.963690 0
M  V30 END ATOM
M  V30 BEGIN BOND
M  V30 1 1 2 1 CFG=1
M  V30 2 1 3 2
M  V30 3 2 4 3
M  V30 4 1 5 4
M  V30 5 2 6 5
M  V30 6 1 7 6
M  V30 7 1 8 7
M  V30 8 1 9 3
M  V30 9 2 9 7
M  V30 10 1 10 9
M  V30 11 1 11 2
M  V30 12 1 12 11
M  V30 13 1 13 12
M  V30 14 1 14 13
M  V30 15 1 15 14
M  V30 16 1 16 2
M  V30 17 1 16 15
M  V30 18 1 17 12
M  V30 19 1 17 15
M  V30 20 1 18 17
M  V30 21 1 19 18
M  V30 22 2 20 19
M  V30 23 1 21 20
M  V30 24 1 22 21
M  V30 25 2 23 22
M  V30 26 1 24 23
M  V30 27 2 25 24
M  V30 28 1 26 25
M  V30 29 1 27 19
M  V30 30 1 27 22
M  V30 31 2 27 26
M  V30 32 1 28 1
M  V30 33 1 29 4
M  V30 34 1 30 5
M  V30 35 1 31 6
M  V30 36 1 32 11
M  V30 37 1 33 11
M  V30 38 1 12 34 CFG=3
M  V30 39 1 35 13
M  V30 40 1 36 13
M  V30 41 1 37 14
M  V30 42 1 38 14
M  V30 43 1 15 39 CFG=3
M  V30 44 1 40 16
M  V30 45 1 41 16
M  V30 46 1 42 18
M  V30 47 1 43 18
M  V30 48 1 44 20
M  V30 49 1 45 23
M  V30 50 1 46 24
M  V30 51 1 47 25
M  V30 52 1 48 26
M  V30 53 1 17 49 CFG=3
M  V30 END BOND
M  V30 END CTAB
M  END
>  <b_m_subgroup_collapsed>  (2462) 
0

>  <r_i_docking_score>  (2462) 
-5.5799488670458803

>  <s_m_subgroup_title>  (2462) 
glide-dock_SP_D22_pv

>  <s_m_subgroupid>  (2462) 
glide-dock_SP_D22_pv

>  <Molecule ChEMBL ID>  (2462) 
CHEMBL3084517

>  <Standard Type>  (2462) 
Ki

>  <Standard Value>  (2462) 
40.1

>  <label>  (2462) 
1

$$$$
CHEMBL99054
     RDKit          3D

  0  0  0  0  0  0  0  0  0  0999 V3000
M  V30 BEGIN CTAB
M  V30 COUNTS 29 31 0 0 1
M  V30 BEGIN ATOM
M  V30 1 C 6.944120 5.177491 -12.316695 0
M  V30 2 C 8.127851 4.607118 -13.030881 0
M  V30 3 S 9.679410 5.366217 -12.819887 0
M  V30 4 C 10.460050 4.213166 -13.856711 0
M  V30 5 C 11.935852 4.342477 -14.074450 0
M  V30 6 C 9.538087 3.301748 -14.333212 0
M  V30 7 C 8.189955 3.504291 -13.854913 0
M  V30 8 C 6.932561 2.702261 -14.127989 0
M  V30 9 C 7.054873 1.375442 -14.894516 0
M  V30 10 C 8.281222 0.544165 -14.513064 0
M  V30 11 C 9.470927 0.995701 -15.283127 0
M  V30 12 N 10.080480 0.238410 -16.190777 0
M  V30 13 C 11.020347 1.076924 -16.773069 0
M  V30 14 C 10.929994 2.321936 -16.201845 0
M  V30 15 N 9.952612 2.253123 -15.207454 0
M  V30 16 H 6.012336 4.976799 -12.845170 0
M  V30 17 H 7.031054 6.261198 -12.209558 0
M  V30 18 H 6.870168 4.754292 -11.315190 0
M  V30 19 H 12.412195 3.372607 -14.190713 0
M  V30 20 H 12.416754 4.833748 -13.228157 0
M  V30 21 H 12.146199 4.941885 -14.961409 0
M  V30 22 H 6.469650 2.470101 -13.169138 0
M  V30 23 H 6.205242 3.328408 -14.645869 0
M  V30 24 H 6.151560 0.794733 -14.708058 0
M  V30 25 H 7.065165 1.560079 -15.969288 0
M  V30 26 H 8.488163 0.583912 -13.446783 0
M  V30 27 H 8.092872 -0.502342 -14.756109 0
M  V30 28 H 11.668645 0.730273 -17.565083 0
M  V30 29 H 11.478584 3.224568 -16.421146 0
M  V30 END ATOM
M  V30 BEGIN BOND
M  V30 1 1 2 1
M  V30 2 1 3 2
M  V30 3 1 4 3
M  V30 4 1 5 4
M  V30 5 2 6 4
M  V30 6 2 7 2
M  V30 7 1 7 6
M  V30 8 1 8 7
M  V30 9 1 9 8
M  V30 10 1 10 9
M  V30 11 1 11 10
M  V30 12 2 12 11
M  V30 13 1 13 12
M  V30 14 2 14 13
M  V30 15 1 15 6
M  V30 16 1 15 11
M  V30 17 1 15 14
M  V30 18 1 16 1
M  V30 19 1 17 1
M  V30 20 1 18 1
M  V30 21 1 19 5
M  V30 22 1 20 5
M  V30 23 1 21 5
M  V30 24 1 22 8
M  V30 25 1 23 8
M  V30 26 1 24 9
M  V30 27 1 25 9
M  V30 28 1 26 10
M  V30 29 1 27 10
M  V30 30 1 28 13
M  V30 31 1 29 14
M  V30 END BOND
M  V30 END CTAB
M  END
>  <b_m_subgroup_collapsed>  (2463) 
0

>  <r_i_docking_score>  (2463) 
-5.5734142175275698

>  <s_m_subgroup_title>  (2463) 
glide-dock_SP_D22_pv

>  <s_m_subgroupid>  (2463) 
glide-dock_SP_D22_pv

>  <Molecule ChEMBL ID>  (2463) 
CHEMBL99054

>  <Standard Type>  (2463) 
Ki

>  <Standard Value>  (2463) 
10000.0

>  <label>  (2463) 
0

$$$$
CHEMBL102175
     RDKit          3D

  0  0  0  0  0  0  0  0  0  0999 V3000
M  V30 BEGIN CTAB
M  V30 COUNTS 73 78 0 0 1
M  V30 BEGIN ATOM
M  V30 1 C 11.281498 7.284461 -5.280208 0
M  V30 2 C 9.980875 7.191133 -6.085824 0
M  V30 3 C 10.207227 6.676235 -7.511080 0
M  V30 4 C 8.918159 6.664927 -8.353977 0
M  V30 5 O 9.177599 6.151240 -9.652706 0
M  V30 6 C 9.743567 6.941019 -10.585106 0
M  V30 7 O 10.045460 8.126243 -10.426076 0
M  V30 8 C 10.083667 6.208236 -11.799170 0
M  V30 9 C 9.686202 4.987660 -12.291912 0
M  V30 10 C 10.427621 4.771096 -13.510741 0
M  V30 11 C 10.487100 3.738188 -14.482915 0
M  V30 12 C 11.375649 3.838109 -15.588714 0
M  V30 13 C 12.189111 4.973724 -15.750108 0
M  V30 14 C 12.149144 6.007982 -14.803307 0
M  V30 15 C 11.281873 5.899390 -13.705267 0
M  V30 16 N 11.031880 6.746560 -12.647120 0
M  V30 17 O 11.472687 2.833699 -16.518799 0
M  V30 18 C 10.952499 1.594423 -16.080185 0
M  V30 19 C 9.547301 1.796372 -15.478134 0 CFG=1
M  V30 20 C 8.895563 0.462872 -15.030850 0
M  V30 21 N 8.066142 -0.217217 -16.068092 0 CFG=1 CHG=1
M  V30 22 C 6.685358 0.316115 -16.197720 0
M  V30 23 C 5.828849 -0.619114 -17.075418 0
M  V30 24 C 6.439062 -0.897454 -18.473181 0 CFG=2
M  V30 25 C 7.914281 -1.349525 -18.290247 0
M  V30 26 C 8.732083 -0.412211 -17.381857 0
M  V30 27 C 6.363719 0.325869 -19.389923 0
M  V30 28 O 6.882242 1.414931 -19.144867 0
M  V30 29 N 5.684810 0.024444 -20.486933 0
M  V30 30 C 5.225440 -1.347312 -20.521793 0
M  V30 31 N 5.631498 -1.868819 -19.217541 0
M  V30 32 C 5.861621 -3.251393 -19.074045 0
M  V30 33 C 5.245773 -3.950052 -18.016378 0
M  V30 34 C 5.479443 -5.325124 -17.830980 0
M  V30 35 C 6.348003 -6.014367 -18.698290 0
M  V30 36 C 6.973043 -5.326963 -19.757027 0
M  V30 37 C 6.727778 -3.952144 -19.947500 0
M  V30 38 O 9.680764 2.628554 -14.327763 0
M  V30 39 H 11.086725 7.575684 -4.249666 0
M  V30 40 H 11.800916 6.324493 -5.258975 0
M  V30 41 H 11.951686 8.029530 -5.708674 0
M  V30 42 H 9.507627 8.171487 -6.123316 0
M  V30 43 H 9.286177 6.531885 -5.570615 0
M  V30 44 H 10.620320 5.668697 -7.472864 0
M  V30 45 H 10.961475 7.297283 -7.995688 0
M  V30 46 H 8.490504 7.665564 -8.420005 0
M  V30 47 H 8.166396 6.034584 -7.876669 0
M  V30 48 H 8.968324 4.308945 -11.853806 0
M  V30 49 H 12.858561 5.041714 -16.594097 0
M  V30 50 H 12.782455 6.877712 -14.916973 0
M  V30 51 H 11.475494 7.636467 -12.464418 0
M  V30 52 H 11.631590 1.158612 -15.353587 0
M  V30 53 H 10.947939 0.925298 -16.938276 0
M  V30 54 H 8.901200 2.315249 -16.185841 0
M  V30 55 H 8.267127 0.641327 -14.156163 0
M  V30 56 H 9.668518 -0.226920 -14.689379 0
M  V30 57 H 6.224939 0.386910 -15.213278 0
M  V30 58 H 6.702343 1.329988 -16.594555 0
M  V30 59 H 4.822891 -0.208344 -17.176975 0
M  V30 60 H 5.706374 -1.562539 -16.543945 0
M  V30 61 H 7.949697 -2.343706 -17.847984 0
M  V30 62 H 8.411646 -1.435490 -19.258354 0
M  V30 63 H 9.713946 -0.863227 -17.221777 0
M  V30 64 H 8.895965 0.545167 -17.874836 0
M  V30 65 H 5.513853 0.665267 -21.247747 0
M  V30 66 H 5.676298 -1.881975 -21.359459 0
M  V30 67 H 4.138806 -1.388615 -20.622101 0
M  V30 68 H 4.563559 -3.436960 -17.350155 0
M  V30 69 H 4.979350 -5.845726 -17.025579 0
M  V30 70 H 6.527518 -7.068054 -18.553841 0
M  V30 71 H 7.635763 -5.855248 -20.425978 0
M  V30 72 H 7.222945 -3.437744 -20.758160 0
M  V30 73 H 7.937410 -1.167009 -15.719426 0
M  V30 END ATOM
M  V30 BEGIN BOND
M  V30 1 1 2 1
M  V30 2 1 3 2
M  V30 3 1 4 3
M  V30 4 1 5 4
M  V30 5 1 6 5
M  V30 6 2 7 6
M  V30 7 1 8 6
M  V30 8 2 9 8
M  V30 9 1 10 9
M  V30 10 1 11 10
M  V30 11 2 12 11
M  V30 12 1 13 12
M  V30 13 2 14 13
M  V30 14 2 15 10
M  V30 15 1 15 14
M  V30 16 1 16 8
M  V30 17 1 16 15
M  V30 18 1 17 12
M  V30 19 1 18 17
M  V30 20 1 19 18
M  V30 21 1 20 19
M  V30 22 1 21 20
M  V30 23 1 22 21
M  V30 24 1 23 22
M  V30 25 1 24 23
M  V30 26 1 25 24
M  V30 27 1 26 21
M  V30 28 1 26 25
M  V30 29 1 27 24
M  V30 30 2 28 27
M  V30 31 1 29 27
M  V30 32 1 30 29
M  V30 33 1 24 31 CFG=3
M  V30 34 1 31 30
M  V30 35 1 32 31
M  V30 36 2 33 32
M  V30 37 1 34 33
M  V30 38 2 35 34
M  V30 39 1 36 35
M  V30 40 1 37 32
M  V30 41 2 37 36
M  V30 42 1 38 11
M  V30 43 1 38 19
M  V30 44 1 39 1
M  V30 45 1 40 1
M  V30 46 1 41 1
M  V30 47 1 42 2
M  V30 48 1 43 2
M  V30 49 1 44 3
M  V30 50 1 45 3
M  V30 51 1 46 4
M  V30 52 1 47 4
M  V30 53 1 48 9
M  V30 54 1 49 13
M  V30 55 1 50 14
M  V30 56 1 51 16
M  V30 57 1 52 18
M  V30 58 1 53 18
M  V30 59 1 19 54 CFG=3
M  V30 60 1 55 20
M  V30 61 1 56 20
M  V30 62 1 57 22
M  V30 63 1 58 22
M  V30 64 1 59 23
M  V30 65 1 60 23
M  V30 66 1 61 25
M  V30 67 1 62 25
M  V30 68 1 63 26
M  V30 69 1 64 26
M  V30 70 1 65 29
M  V30 71 1 66 30
M  V30 72 1 67 30
M  V30 73 1 68 33
M  V30 74 1 69 34
M  V30 75 1 70 35
M  V30 76 1 71 36
M  V30 77 1 72 37
M  V30 78 1 21 73 CFG=1
M  V30 END BOND
M  V30 END CTAB
M  END
>  <b_m_subgroup_collapsed>  (2464) 
0

>  <r_i_docking_score>  (2464) 
-5.57303364086067

>  <s_m_subgroup_title>  (2464) 
glide-dock_SP_D22_pv

>  <s_m_subgroupid>  (2464) 
glide-dock_SP_D22_pv

>  <Molecule ChEMBL ID>  (2464) 
CHEMBL102175

>  <Standard Type>  (2464) 
Ki

>  <Standard Value>  (2464) 
5.7

>  <label>  (2464) 
1

$$$$
CHEMBL15136
     RDKit          3D

  0  0  0  0  0  0  0  0  0  0999 V3000
M  V30 BEGIN CTAB
M  V30 COUNTS 47 48 0 0 1
M  V30 BEGIN ATOM
M  V30 1 C 11.942441 10.716168 -6.256679 0
M  V30 2 C 10.766968 10.162048 -5.485966 0
M  V30 3 C 10.077454 9.033764 -6.289012 0
M  V30 4 N 10.964149 7.875446 -6.586525 0 CHG=1
M  V30 5 C 11.069026 6.874192 -5.474681 0
M  V30 6 C 11.841928 7.363091 -4.226725 0
M  V30 7 C 12.085986 6.268099 -3.191351 0
M  V30 8 C 10.728241 7.265373 -7.946266 0 CFG=2
M  V30 9 C 11.436868 8.084496 -9.042773 0
M  V30 10 C 11.240249 7.513546 -10.439231 0
M  V30 11 C 12.212893 7.772363 -11.424759 0
M  V30 12 C 12.086213 7.236482 -12.719563 0
M  V30 13 C 10.971910 6.444624 -13.043785 0
M  V30 14 C 9.977569 6.201122 -12.077164 0
M  V30 15 O 8.896328 5.441246 -12.420895 0
M  V30 16 C 10.113839 6.718753 -10.765631 0
M  V30 17 C 9.094793 6.335832 -9.707948 0
M  V30 18 C 9.238374 7.037562 -8.342769 0 CFG=1
M  V30 19 C 8.493598 6.189778 -7.320335 0
M  V30 20 H 12.085850 11.771339 -6.044945 0
M  V30 21 H 12.866930 10.168870 -6.069594 0
M  V30 22 H 11.686026 10.629690 -7.306548 0
M  V30 23 H 10.086126 10.988664 -5.342639 0
M  V30 24 H 11.061305 9.922097 -4.473907 0
M  V30 25 H 9.757546 9.488516 -7.225183 0
M  V30 26 H 9.150000 8.692574 -5.848805 0
M  V30 27 H 10.082368 6.533397 -5.166171 0
M  V30 28 H 11.594419 5.994489 -5.846723 0
M  V30 29 H 12.789852 7.818421 -4.508584 0
M  V30 30 H 11.285580 8.111790 -3.679883 0
M  V30 31 H 12.787295 6.598290 -2.425015 0
M  V30 32 H 11.157934 5.999311 -2.688564 0
M  V30 33 H 12.486037 5.372663 -3.653434 0
M  V30 34 H 11.215545 6.289295 -7.959118 0
M  V30 35 H 12.505184 8.145666 -8.828886 0
M  V30 36 H 11.065328 9.108798 -9.065063 0
M  V30 37 H 13.072506 8.383933 -11.188515 0
M  V30 38 H 12.846539 7.429563 -13.462521 0
M  V30 39 H 10.874947 6.033481 -14.038010 0
M  V30 40 H 8.216810 5.449306 -11.762718 0
M  V30 41 H 8.086709 6.490007 -10.092216 0
M  V30 42 H 9.201812 5.258093 -9.572113 0
M  V30 43 H 8.728962 7.996020 -8.442896 0
M  V30 44 H 9.141177 5.372079 -7.046928 0
M  V30 45 H 8.219117 6.748024 -6.430822 0
M  V30 46 H 7.580048 5.765947 -7.728779 0
M  V30 47 H 11.891547 8.266905 -6.663103 0
M  V30 END ATOM
M  V30 BEGIN BOND
M  V30 1 1 2 1
M  V30 2 1 3 2
M  V30 3 1 4 3
M  V30 4 1 5 4
M  V30 5 1 6 5
M  V30 6 1 7 6
M  V30 7 1 8 4
M  V30 8 1 9 8
M  V30 9 1 10 9
M  V30 10 2 11 10
M  V30 11 1 12 11
M  V30 12 2 13 12
M  V30 13 1 14 13
M  V30 14 1 15 14
M  V30 15 1 16 10
M  V30 16 2 16 14
M  V30 17 1 17 16
M  V30 18 1 18 8
M  V30 19 1 18 17
M  V30 20 1 19 18
M  V30 21 1 20 1
M  V30 22 1 21 1
M  V30 23 1 22 1
M  V30 24 1 23 2
M  V30 25 1 24 2
M  V30 26 1 25 3
M  V30 27 1 26 3
M  V30 28 1 27 5
M  V30 29 1 28 5
M  V30 30 1 29 6
M  V30 31 1 30 6
M  V30 32 1 31 7
M  V30 33 1 32 7
M  V30 34 1 33 7
M  V30 35 1 8 34 CFG=1
M  V30 36 1 35 9
M  V30 37 1 36 9
M  V30 38 1 37 11
M  V30 39 1 38 12
M  V30 40 1 39 13
M  V30 41 1 40 15
M  V30 42 1 41 17
M  V30 43 1 42 17
M  V30 44 1 18 43 CFG=3
M  V30 45 1 44 19
M  V30 46 1 45 19
M  V30 47 1 46 19
M  V30 48 1 47 4
M  V30 END BOND
M  V30 END CTAB
M  END
>  <b_m_subgroup_collapsed>  (2465) 
0

>  <r_i_docking_score>  (2465) 
-5.5690371697655499

>  <s_m_subgroup_title>  (2465) 
glide-dock_SP_D22_pv

>  <s_m_subgroupid>  (2465) 
glide-dock_SP_D22_pv

>  <Molecule ChEMBL ID>  (2465) 
CHEMBL15136

>  <Standard Type>  (2465) 
Ki

>  <Standard Value>  (2465) 
14.0

>  <label>  (2465) 
1

$$$$
CHEMBL1087818
     RDKit          3D

  0  0  0  0  0  0  0  0  0  0999 V3000
M  V30 BEGIN CTAB
M  V30 COUNTS 68 72 0 0 1
M  V30 BEGIN ATOM
M  V30 1 C 11.171376 6.988840 -5.628324 0
M  V30 2 S 11.402457 8.745021 -6.120708 0
M  V30 3 O 12.447545 9.371424 -5.296031 0
M  V30 4 O 10.086442 9.372284 -6.252842 0
M  V30 5 N 12.065828 8.633441 -7.720662 0
M  V30 6 C 11.457255 8.223520 -8.914389 0
M  V30 7 C 10.099506 7.848613 -8.972892 0
M  V30 8 C 9.535546 7.439337 -10.190948 0
M  V30 9 C 10.313490 7.379731 -11.359752 0
M  V30 10 C 11.689331 7.703826 -11.310493 0
M  V30 11 O 12.554035 7.582689 -12.381257 0
M  V30 12 C 12.129151 6.965389 -13.596716 0
M  V30 13 C 11.855527 5.446508 -13.446838 0
M  V30 14 N 11.503963 4.732393 -14.703877 0 CFG=2 CHG=1
M  V30 15 C 10.280612 5.226302 -15.396470 0
M  V30 16 C 9.890960 4.322519 -16.595829 0 CFG=1
M  V30 17 C 11.093474 4.127096 -17.543558 0
M  V30 18 C 11.842218 2.899812 -16.979834 0
M  V30 19 C 11.021541 2.477479 -15.745512 0 CFG=1
M  V30 20 C 11.480511 3.261055 -14.493046 0
M  V30 21 C 9.601520 2.880527 -16.149675 0 CFG=1
M  V30 22 C 8.476824 2.668586 -15.098510 0
M  V30 23 C 7.556262 1.489688 -15.385475 0
M  V30 24 C 7.330092 0.517434 -14.387717 0
M  V30 25 C 6.427358 -0.539367 -14.606261 0
M  V30 26 C 5.761921 -0.645806 -15.842909 0
M  V30 27 C 5.999323 0.306210 -16.858257 0
M  V30 28 C 6.888984 1.375728 -16.625868 0
M  V30 29 N 5.335556 0.194048 -18.105036 0
M  V30 30 C 4.300068 -0.628962 -18.341915 0
M  V30 31 O 3.767393 -0.691905 -19.446548 0
M  V30 32 C 3.754664 -1.457381 -17.171183 0
M  V30 33 C 4.838082 -1.814761 -16.136362 0
M  V30 34 C 12.234553 8.164108 -10.091099 0
M  V30 35 H 10.886493 6.942743 -4.579247 0
M  V30 36 H 10.378267 6.546932 -6.229937 0
M  V30 37 H 12.086141 6.424660 -5.778476 0
M  V30 38 H 13.012413 8.974133 -7.812011 0
M  V30 39 H 9.465797 7.872056 -8.100656 0
M  V30 40 H 8.496204 7.159138 -10.226898 0
M  V30 41 H 9.829413 7.065080 -12.271425 0
M  V30 42 H 11.286099 7.511775 -14.000156 0
M  V30 43 H 12.935899 7.104501 -14.315740 0
M  V30 44 H 12.764849 4.990740 -13.047459 0
M  V30 45 H 11.068573 5.249905 -12.718939 0
M  V30 46 H 9.452258 5.311851 -14.692120 0
M  V30 47 H 10.486362 6.222374 -15.778128 0
M  V30 48 H 9.045438 4.755446 -17.130610 0
M  V30 49 H 11.728354 5.012063 -17.605061 0
M  V30 50 H 10.745217 3.911592 -18.554766 0
M  V30 51 H 12.884035 3.117113 -16.736042 0
M  V30 52 H 11.848152 2.098572 -17.720976 0
M  V30 53 H 11.096552 1.404420 -15.565648 0
M  V30 54 H 12.485972 2.972484 -14.247203 0
M  V30 55 H 10.883995 3.009579 -13.618054 0
M  V30 56 H 9.333047 2.321403 -17.047523 0
M  V30 57 H 8.873531 2.560912 -14.091629 0
M  V30 58 H 7.840956 3.547763 -15.046724 0
M  V30 59 H 7.850536 0.572767 -13.446894 0
M  V30 60 H 6.272456 -1.284234 -13.839481 0
M  V30 61 H 7.048399 2.117004 -17.394094 0
M  V30 62 H 5.646390 0.779658 -18.864281 0
M  V30 63 H 2.969114 -0.872720 -16.692425 0
M  V30 64 H 3.286606 -2.366784 -17.548443 0
M  V30 65 H 5.441490 -2.646737 -16.502487 0
M  V30 66 H 4.365577 -2.153462 -15.214749 0
M  V30 67 H 13.278635 8.437074 -10.056895 0
M  V30 68 H 12.260087 4.891206 -15.356768 0
M  V30 END ATOM
M  V30 BEGIN BOND
M  V30 1 1 2 1
M  V30 2 2 3 2
M  V30 3 2 4 2
M  V30 4 1 5 2
M  V30 5 1 6 5
M  V30 6 1 7 6
M  V30 7 2 8 7
M  V30 8 1 9 8
M  V30 9 2 10 9
M  V30 10 1 11 10
M  V30 11 1 12 11
M  V30 12 1 13 12
M  V30 13 1 14 13
M  V30 14 1 15 14
M  V30 15 1 16 15
M  V30 16 1 17 16
M  V30 17 1 18 17
M  V30 18 1 19 18
M  V30 19 1 20 14
M  V30 20 1 20 19
M  V30 21 1 21 16
M  V30 22 1 21 19
M  V30 23 1 22 21
M  V30 24 1 23 22
M  V30 25 1 24 23
M  V30 26 2 25 24
M  V30 27 1 26 25
M  V30 28 2 27 26
M  V30 29 2 28 23
M  V30 30 1 28 27
M  V30 31 1 29 27
M  V30 32 1 30 29
M  V30 33 2 31 30
M  V30 34 1 32 30
M  V30 35 1 33 26
M  V30 36 1 33 32
M  V30 37 2 34 6
M  V30 38 1 34 10
M  V30 39 1 35 1
M  V30 40 1 36 1
M  V30 41 1 37 1
M  V30 42 1 38 5
M  V30 43 1 39 7
M  V30 44 1 40 8
M  V30 45 1 41 9
M  V30 46 1 42 12
M  V30 47 1 43 12
M  V30 48 1 44 13
M  V30 49 1 45 13
M  V30 50 1 46 15
M  V30 51 1 47 15
M  V30 52 1 16 48 CFG=3
M  V30 53 1 49 17
M  V30 54 1 50 17
M  V30 55 1 51 18
M  V30 56 1 52 18
M  V30 57 1 19 53 CFG=1
M  V30 58 1 54 20
M  V30 59 1 55 20
M  V30 60 1 21 56 CFG=3
M  V30 61 1 57 22
M  V30 62 1 58 22
M  V30 63 1 59 24
M  V30 64 1 60 25
M  V30 65 1 61 28
M  V30 66 1 62 29
M  V30 67 1 63 32
M  V30 68 1 64 32
M  V30 69 1 65 33
M  V30 70 1 66 33
M  V30 71 1 67 34
M  V30 72 1 14 68 CFG=3
M  V30 END BOND
M  V30 END CTAB
M  END
>  <b_m_subgroup_collapsed>  (2466) 
0

>  <r_i_docking_score>  (2466) 
-5.5639612609732803

>  <s_m_subgroup_title>  (2466) 
glide-dock_SP_D22_pv

>  <s_m_subgroupid>  (2466) 
glide-dock_SP_D22_pv

>  <Molecule ChEMBL ID>  (2466) 
CHEMBL1087818

>  <Standard Type>  (2466) 
Ki

>  <Standard Value>  (2466) 
11.0

>  <label>  (2466) 
1

$$$$
CHEMBL413483
     RDKit          3D

  0  0  0  0  0  0  0  0  0  0999 V3000
M  V30 BEGIN CTAB
M  V30 COUNTS 41 42 0 0 1
M  V30 BEGIN ATOM
M  V30 1 C 6.704137 3.091138 -13.857038 0
M  V30 2 C 7.618232 4.229186 -13.374906 0
M  V30 3 C 7.180287 4.878243 -12.031301 0 CFG=2
M  V30 4 C 5.685954 5.223815 -12.020137 0
M  V30 5 N 8.016009 6.053394 -11.630613 0 CFG=2 CHG=1
M  V30 6 C 7.800293 7.286705 -12.433891 0
M  V30 7 C 8.603448 8.491681 -11.901120 0
M  V30 8 C 10.075759 8.134367 -11.673689 0
M  V30 9 C 10.244882 6.863740 -10.823321 0 CFG=1
M  V30 10 C 9.969648 7.072381 -9.334407 0
M  V30 11 C 9.077190 6.240502 -8.616464 0
M  V30 12 C 8.885869 6.426728 -7.241594 0
M  V30 13 C 9.591155 7.427631 -6.558413 0
M  V30 14 C 10.473131 8.270252 -7.254026 0
M  V30 15 C 11.152375 9.330419 -6.532279 0
M  V30 16 N 11.687572 10.174711 -5.952463 0
M  V30 17 C 10.670835 8.086579 -8.636712 0
M  V30 18 C 9.460029 5.718454 -11.490496 0
M  V30 19 H 7.167930 2.546545 -14.678619 0
M  V30 20 H 6.485703 2.377866 -13.063120 0
M  V30 21 H 5.754639 3.477761 -14.227127 0
M  V30 22 H 7.684958 4.969927 -14.172792 0
M  V30 23 H 8.619406 3.810669 -13.263172 0
M  V30 24 H 7.321694 4.132876 -11.245574 0
M  V30 25 H 5.080934 4.317137 -12.009936 0
M  V30 26 H 5.409862 5.793612 -11.133621 0
M  V30 27 H 5.392846 5.800621 -12.898446 0
M  V30 28 H 6.748201 7.565895 -12.468656 0
M  V30 29 H 8.085977 7.067306 -13.446974 0
M  V30 30 H 8.172145 8.876160 -10.978183 0
M  V30 31 H 8.533544 9.314922 -12.612703 0
M  V30 32 H 10.603753 8.971901 -11.228448 0
M  V30 33 H 10.528989 7.953992 -12.647011 0
M  V30 34 H 11.296796 6.598636 -10.862710 0
M  V30 35 H 8.518716 5.448025 -9.084953 0
M  V30 36 H 8.194162 5.792530 -6.707043 0
M  V30 37 H 9.443114 7.544592 -5.496865 0
M  V30 38 H 11.372929 8.723546 -9.156831 0
M  V30 39 H 9.881145 5.545235 -12.482014 0
M  V30 40 H 9.596107 4.785821 -10.940806 0
M  V30 41 H 7.672931 6.329072 -10.712502 0
M  V30 END ATOM
M  V30 BEGIN BOND
M  V30 1 1 2 1
M  V30 2 1 3 2
M  V30 3 1 4 3
M  V30 4 1 5 3
M  V30 5 1 6 5
M  V30 6 1 7 6
M  V30 7 1 8 7
M  V30 8 1 9 8
M  V30 9 1 10 9
M  V30 10 2 11 10
M  V30 11 1 12 11
M  V30 12 2 13 12
M  V30 13 1 14 13
M  V30 14 1 15 14
M  V30 15 3 16 15
M  V30 16 1 17 10
M  V30 17 2 17 14
M  V30 18 1 18 5
M  V30 19 1 18 9
M  V30 20 1 19 1
M  V30 21 1 20 1
M  V30 22 1 21 1
M  V30 23 1 22 2
M  V30 24 1 23 2
M  V30 25 1 3 24 CFG=1
M  V30 26 1 25 4
M  V30 27 1 26 4
M  V30 28 1 27 4
M  V30 29 1 28 6
M  V30 30 1 29 6
M  V30 31 1 30 7
M  V30 32 1 31 7
M  V30 33 1 32 8
M  V30 34 1 33 8
M  V30 35 1 9 34 CFG=1
M  V30 36 1 35 11
M  V30 37 1 36 12
M  V30 38 1 37 13
M  V30 39 1 38 17
M  V30 40 1 39 18
M  V30 41 1 40 18
M  V30 42 1 5 41 CFG=1
M  V30 END BOND
M  V30 END CTAB
M  END
>  <b_m_subgroup_collapsed>  (2467) 
0

>  <r_i_docking_score>  (2467) 
-5.5621561402960404

>  <s_m_subgroup_title>  (2467) 
glide-dock_SP_D22_pv

>  <s_m_subgroupid>  (2467) 
glide-dock_SP_D22_pv

>  <Molecule ChEMBL ID>  (2467) 
CHEMBL413483

>  <Standard Type>  (2467) 
Ki

>  <Standard Value>  (2467) 
98.0

>  <label>  (2467) 
1

$$$$
CHEMBL5273758
     RDKit          3D

  0  0  0  0  0  0  0  0  0  0999 V3000
M  V30 BEGIN CTAB
M  V30 COUNTS 43 46 0 0 1
M  V30 BEGIN ATOM
M  V30 1 C 9.459706 0.325212 -16.083237 0
M  V30 2 N 9.218786 0.618346 -14.650093 0 CFG=2 CHG=1
M  V30 3 C 7.874963 0.185673 -14.168112 0
M  V30 4 C 6.718833 1.096498 -14.654826 0
M  V30 5 C 6.987884 2.624868 -14.649862 0 CFG=1
M  V30 6 C 6.291917 3.466249 -13.593269 0
M  V30 7 C 6.829839 4.575970 -13.046710 0
M  V30 8 O 6.057283 5.299568 -12.224595 0
M  V30 9 C 8.209120 4.974612 -13.331541 0
M  V30 10 O 8.786060 5.961528 -12.628548 0
M  V30 11 C 8.962986 4.241184 -14.179764 0
M  V30 12 C 10.490205 4.195669 -14.224923 0 CFG=2
M  V30 13 C 11.170014 5.120271 -15.226405 0
M  V30 14 C 10.628331 5.334851 -16.513191 0
M  V30 15 C 11.289269 6.172103 -17.432856 0
M  V30 16 C 12.491566 6.805988 -17.071011 0
M  V30 17 C 13.038181 6.595928 -15.791314 0
M  V30 18 C 12.382061 5.752911 -14.873831 0
M  V30 19 C 10.804605 2.694123 -14.484022 0
M  V30 20 C 9.444866 2.018913 -14.228655 0 CFG=1
M  V30 21 C 8.466733 2.988024 -14.851967 0 CFG=1
M  V30 22 H 8.789402 0.888584 -16.734098 0
M  V30 23 H 9.305079 -0.733921 -16.283333 0
M  V30 24 H 10.488213 0.552827 -16.364037 0
M  V30 25 H 7.678722 -0.840347 -14.474235 0
M  V30 26 H 7.882410 0.166902 -13.079184 0
M  V30 27 H 6.498934 0.803393 -15.682334 0
M  V30 28 H 5.806458 0.867919 -14.102193 0
M  V30 29 H 6.478756 2.972279 -15.545094 0
M  V30 30 H 5.270936 3.199105 -13.359251 0
M  V30 31 H 6.518557 6.073765 -11.935826 0
M  V30 32 H 8.207173 6.209311 -11.923318 0
M  V30 33 H 10.845860 4.454187 -13.226482 0
M  V30 34 H 9.703470 4.864569 -16.807724 0
M  V30 35 H 10.867249 6.334973 -18.414124 0
M  V30 36 H 12.993395 7.454585 -17.773739 0
M  V30 37 H 13.963474 7.077434 -15.512985 0
M  V30 38 H 12.818146 5.595089 -13.898340 0
M  V30 39 H 11.111918 2.554639 -15.520156 0
M  V30 40 H 11.603059 2.314342 -13.847568 0
M  V30 41 H 9.286948 2.047687 -13.148958 0
M  V30 42 H 8.662146 3.063664 -15.921596 0
M  V30 43 H 9.888912 0.067401 -14.132584 0
M  V30 END ATOM
M  V30 BEGIN BOND
M  V30 1 1 2 1
M  V30 2 1 3 2
M  V30 3 1 4 3
M  V30 4 1 5 4
M  V30 5 1 6 5
M  V30 6 2 7 6
M  V30 7 1 8 7
M  V30 8 1 9 7
M  V30 9 1 10 9
M  V30 10 2 11 9
M  V30 11 1 12 11
M  V30 12 1 13 12
M  V30 13 2 14 13
M  V30 14 1 15 14
M  V30 15 2 16 15
M  V30 16 1 17 16
M  V30 17 1 18 13
M  V30 18 2 18 17
M  V30 19 1 19 12
M  V30 20 1 20 2
M  V30 21 1 20 19
M  V30 22 1 21 5
M  V30 23 1 21 11
M  V30 24 1 21 20
M  V30 25 1 22 1
M  V30 26 1 23 1
M  V30 27 1 24 1
M  V30 28 1 25 3
M  V30 29 1 26 3
M  V30 30 1 27 4
M  V30 31 1 28 4
M  V30 32 1 5 29 CFG=3
M  V30 33 1 30 6
M  V30 34 1 31 8
M  V30 35 1 32 10
M  V30 36 1 12 33 CFG=1
M  V30 37 1 34 14
M  V30 38 1 35 15
M  V30 39 1 36 16
M  V30 40 1 37 17
M  V30 41 1 38 18
M  V30 42 1 39 19
M  V30 43 1 40 19
M  V30 44 1 20 41 CFG=1
M  V30 45 1 21 42 CFG=3
M  V30 46 1 2 43 CFG=1
M  V30 END BOND
M  V30 END CTAB
M  END
>  <b_m_subgroup_collapsed>  (2468) 
0

>  <r_i_docking_score>  (2468) 
-5.5618257755871596

>  <s_m_subgroup_title>  (2468) 
glide-dock_SP_D22_pv

>  <s_m_subgroupid>  (2468) 
glide-dock_SP_D22_pv

>  <Molecule ChEMBL ID>  (2468) 
CHEMBL5273758

>  <Standard Type>  (2468) 
Ki

>  <Standard Value>  (2468) 
12.88

>  <label>  (2468) 
1

$$$$
CHEMBL611207
     RDKit          3D

  0  0  0  0  0  0  0  0  0  0999 V3000
M  V30 BEGIN CTAB
M  V30 COUNTS 53 56 0 0 1
M  V30 BEGIN ATOM
M  V30 1 C 5.979642 5.570184 -12.246088 0
M  V30 2 N 7.325681 6.084200 -11.946687 0 CFG=2 CHG=1
M  V30 3 C 7.635839 7.352635 -12.646300 0
M  V30 4 C 8.922834 7.984482 -12.078348 0
M  V30 5 C 10.096287 6.989264 -12.040400 0
M  V30 6 C 9.669865 5.669161 -11.376918 0
M  V30 7 C 8.408607 5.068749 -12.025597 0 CFG=2
M  V30 8 C 8.641504 4.543013 -13.470512 0
M  V30 9 C 9.629891 3.366983 -13.547333 0
M  V30 10 N 9.858822 2.912971 -14.931853 0
M  V30 11 C 10.817797 3.664820 -15.659097 0
M  V30 12 C 11.989074 4.171382 -15.032888 0
M  V30 13 C 12.907303 4.978093 -15.727622 0
M  V30 14 C 12.693111 5.287468 -17.079269 0
M  V30 15 C 11.564861 4.766458 -17.731516 0
M  V30 16 C 10.643588 3.954284 -17.038294 0
M  V30 17 S 9.287479 3.334961 -17.971424 0
M  V30 18 C 8.491974 2.210849 -16.876024 0
M  V30 19 C 7.451149 1.435310 -17.426706 0
M  V30 20 C 6.694302 0.572833 -16.620729 0
M  V30 21 C 7.008622 0.478273 -15.258606 0
M  V30 22 S 5.984255 -0.582239 -14.195994 0
M  V30 23 C 4.926560 0.775229 -13.497504 0
M  V30 24 O 6.886018 -1.026964 -13.046040 0
M  V30 25 C 8.086014 1.199900 -14.709083 0
M  V30 26 C 8.834159 2.112682 -15.499422 0
M  V30 27 H 5.828733 5.374312 -13.308703 0
M  V30 28 H 5.760111 4.662422 -11.683455 0
M  V30 29 H 5.284888 6.339927 -11.926802 0
M  V30 30 H 6.812430 8.057466 -12.518915 0
M  V30 31 H 7.687905 7.160475 -13.711133 0
M  V30 32 H 8.725385 8.332511 -11.062961 0
M  V30 33 H 9.193991 8.874043 -12.647838 0
M  V30 34 H 10.935014 7.427091 -11.498940 0
M  V30 35 H 10.464292 6.795739 -13.046639 0
M  V30 36 H 9.480352 5.852161 -10.317909 0
M  V30 37 H 10.475688 4.944617 -11.409657 0
M  V30 38 H 8.098124 4.221290 -11.412056 0
M  V30 39 H 8.997701 5.342330 -14.118437 0
M  V30 40 H 7.696464 4.209309 -13.897519 0
M  V30 41 H 9.286733 2.570581 -12.902017 0
M  V30 42 H 10.556037 3.640337 -13.062705 0
M  V30 43 H 12.236822 3.943884 -14.010132 0
M  V30 44 H 13.785781 5.354135 -15.223842 0
M  V30 45 H 13.394958 5.908762 -17.616762 0
M  V30 46 H 11.406504 4.989548 -18.777493 0
M  V30 47 H 7.213604 1.517617 -18.476089 0
M  V30 48 H 5.880911 -0.000632 -17.042891 0
M  V30 49 H 5.249237 1.757262 -13.845789 0
M  V30 50 H 3.885211 0.628050 -13.788631 0
M  V30 51 H 4.988799 0.769216 -12.408066 0
M  V30 52 H 8.304136 1.026122 -13.669089 0
M  V30 53 H 7.252764 6.381660 -10.975098 0
M  V30 END ATOM
M  V30 BEGIN BOND
M  V30 1 1 2 1
M  V30 2 1 3 2
M  V30 3 1 4 3
M  V30 4 1 5 4
M  V30 5 1 6 5
M  V30 6 1 7 2
M  V30 7 1 7 6
M  V30 8 1 8 7
M  V30 9 1 9 8
M  V30 10 1 10 9
M  V30 11 1 11 10
M  V30 12 2 12 11
M  V30 13 1 13 12
M  V30 14 2 14 13
M  V30 15 1 15 14
M  V30 16 1 16 11
M  V30 17 2 16 15
M  V30 18 1 17 16
M  V30 19 1 18 17
M  V30 20 2 19 18
M  V30 21 1 20 19
M  V30 22 2 21 20
M  V30 23 1 22 21
M  V30 24 1 22 23 CFG=1
M  V30 25 2 24 22
M  V30 26 1 25 21
M  V30 27 1 26 10
M  V30 28 1 26 18
M  V30 29 2 26 25
M  V30 30 1 27 1
M  V30 31 1 28 1
M  V30 32 1 29 1
M  V30 33 1 30 3
M  V30 34 1 31 3
M  V30 35 1 32 4
M  V30 36 1 33 4
M  V30 37 1 34 5
M  V30 38 1 35 5
M  V30 39 1 36 6
M  V30 40 1 37 6
M  V30 41 1 7 38 CFG=1
M  V30 42 1 39 8
M  V30 43 1 40 8
M  V30 44 1 41 9
M  V30 45 1 42 9
M  V30 46 1 43 12
M  V30 47 1 44 13
M  V30 48 1 45 14
M  V30 49 1 46 15
M  V30 50 1 47 19
M  V30 51 1 48 20
M  V30 52 1 49 23
M  V30 53 1 50 23
M  V30 54 1 51 23
M  V30 55 1 52 25
M  V30 56 1 2 53 CFG=1
M  V30 END BOND
M  V30 END CTAB
M  END
>  <b_m_subgroup_collapsed>  (2469) 
0

>  <r_i_docking_score>  (2469) 
-5.5608688267244002

>  <s_m_subgroup_title>  (2469) 
glide-dock_SP_D22_pv

>  <s_m_subgroupid>  (2469) 
glide-dock_SP_D22_pv

>  <Molecule ChEMBL ID>  (2469) 
CHEMBL611207

>  <Standard Type>  (2469) 
Ki

>  <Standard Value>  (2469) 
2.2

>  <label>  (2469) 
1

$$$$
CHEMBL3695441
     RDKit          3D

  0  0  0  0  0  0  0  0  0  0999 V3000
M  V30 BEGIN CTAB
M  V30 COUNTS 82 86 0 0 1
M  V30 BEGIN ATOM
M  V30 1 C 12.040386 7.730371 -4.423265 0
M  V30 2 C 11.695910 9.182360 -4.814676 0
M  V30 3 C 12.886189 9.941371 -5.403705 0
M  V30 4 C 11.286381 9.969106 -3.567077 0
M  V30 5 O 10.519347 9.205710 -5.635495 0
M  V30 6 C 10.468473 8.604063 -6.878978 0
M  V30 7 C 9.314240 7.854625 -7.182630 0
M  V30 8 C 9.119501 7.318295 -8.470720 0
M  V30 9 C 10.054754 7.561934 -9.500034 0
M  V30 10 C 9.794582 7.158492 -10.921227 0
M  V30 11 O 10.323333 7.772336 -11.846554 0
M  V30 12 N 9.030802 6.072516 -11.108122 0
M  V30 13 C 8.753665 5.465843 -12.406366 0 CFG=1
M  V30 14 C 10.043356 4.843087 -12.985762 0
M  V30 15 C 9.773090 4.063062 -14.273860 0
M  V30 16 C 8.772386 2.929012 -14.013035 0 CFG=2
M  V30 17 C 8.582924 2.062644 -15.272437 0
M  V30 18 C 8.107825 0.615212 -14.983921 0
M  V30 19 N 7.927197 -0.227341 -16.201729 0 CFG=2 CHG=1
M  V30 20 C 9.180245 -0.434263 -16.980085 0
M  V30 21 C 8.980586 -1.307520 -18.243620 0
M  V30 22 C 7.767224 -0.899987 -19.114637 0 CFG=2
M  V30 23 C 7.957139 0.322637 -20.029457 0
M  V30 24 C 9.052585 1.220889 -19.911734 0
M  V30 25 C 9.174548 2.351179 -20.752518 0
M  V30 26 C 8.226330 2.597930 -21.764044 0
M  V30 27 C 7.176517 1.681256 -21.921568 0
M  V30 28 C 7.042683 0.589242 -21.075853 0
M  V30 29 C 5.838355 -0.186130 -21.508789 0
M  V30 30 C 5.546060 0.461659 -22.878042 0
M  V30 31 O 6.219417 1.726009 -22.893356 0
M  V30 32 C 6.538037 -0.781584 -18.191338 0
M  V30 33 C 6.781312 0.204840 -17.042448 0
M  V30 34 C 7.447997 3.532001 -13.490819 0
M  V30 35 C 7.649505 4.405522 -12.235809 0
M  V30 36 C 11.223714 8.281334 -9.193825 0
M  V30 37 C 11.428846 8.787233 -7.902495 0
M  V30 38 H 11.290288 7.301814 -3.761366 0
M  V30 39 H 12.085943 7.075009 -5.291041 0
M  V30 40 H 12.995501 7.676400 -3.900413 0
M  V30 41 H 12.566148 10.882840 -5.852216 0
M  V30 42 H 13.629910 10.171982 -4.640464 0
M  V30 43 H 13.425956 9.372312 -6.141088 0
M  V30 44 H 10.486219 9.456951 -3.047224 0
M  V30 45 H 12.108185 10.077932 -2.858701 0
M  V30 46 H 10.940431 10.967975 -3.845791 0
M  V30 47 H 8.549726 7.716277 -6.431805 0
M  V30 48 H 8.202436 6.785416 -8.673254 0
M  V30 49 H 8.601617 5.652814 -10.296709 0
M  V30 50 H 8.391443 6.238222 -13.087660 0
M  V30 51 H 10.786710 5.612806 -13.192352 0
M  V30 52 H 10.486208 4.172469 -12.249526 0
M  V30 53 H 9.395715 4.734809 -15.046071 0
M  V30 54 H 10.716303 3.661239 -14.643452 0
M  V30 55 H 9.222096 2.301657 -13.242644 0
M  V30 56 H 7.905930 2.571950 -15.957609 0
M  V30 57 H 9.545912 2.022298 -15.777092 0
M  V30 58 H 8.830935 0.124231 -14.330299 0
M  V30 59 H 7.168895 0.635938 -14.429341 0
M  V30 60 H 9.600316 0.524195 -17.257473 0
M  V30 61 H 9.923802 -0.903281 -16.334066 0
M  V30 62 H 9.891482 -1.336638 -18.842703 0
M  V30 63 H 8.823399 -2.334396 -17.913820 0
M  V30 64 H 7.586588 -1.733876 -19.793516 0
M  V30 65 H 9.842215 1.066285 -19.200033 0
M  V30 66 H 10.014671 3.020746 -20.634094 0
M  V30 67 H 8.323913 3.446935 -22.424524 0
M  V30 68 H 6.026964 -1.256731 -21.583622 0
M  V30 69 H 5.009439 -0.011171 -20.823469 0
M  V30 70 H 5.964484 -0.148489 -23.678911 0
M  V30 71 H 4.483452 0.573283 -23.068727 0
M  V30 72 H 5.649063 -0.488934 -18.746614 0
M  V30 73 H 6.307948 -1.761600 -17.770660 0
M  V30 74 H 5.882608 0.266640 -16.426334 0
M  V30 75 H 6.957211 1.199451 -17.451029 0
M  V30 76 H 6.990547 4.147785 -14.263597 0
M  V30 77 H 6.728088 2.743004 -13.273536 0
M  V30 78 H 7.903153 3.772337 -11.389889 0
M  V30 79 H 6.709046 4.890404 -11.970654 0
M  V30 80 H 11.954028 8.493503 -9.962656 0
M  V30 81 H 12.313132 9.372556 -7.782129 0
M  V30 82 H 7.686805 -1.158132 -15.860597 0
M  V30 END ATOM
M  V30 BEGIN BOND
M  V30 1 1 2 1
M  V30 2 1 3 2
M  V30 3 1 4 2
M  V30 4 1 5 2
M  V30 5 1 6 5
M  V30 6 1 7 6
M  V30 7 2 8 7
M  V30 8 1 9 8
M  V30 9 1 10 9
M  V30 10 2 11 10
M  V30 11 1 12 10
M  V30 12 1 13 12
M  V30 13 1 14 13
M  V30 14 1 15 14
M  V30 15 1 16 15
M  V30 16 1 17 16
M  V30 17 1 18 17
M  V30 18 1 19 18
M  V30 19 1 20 19
M  V30 20 1 21 20
M  V30 21 1 22 21
M  V30 22 1 23 22
M  V30 23 2 24 23
M  V30 24 1 25 24
M  V30 25 2 26 25
M  V30 26 1 27 26
M  V30 27 1 28 23
M  V30 28 2 28 27
M  V30 29 1 29 28
M  V30 30 1 30 29
M  V30 31 1 31 27
M  V30 32 1 31 30
M  V30 33 1 32 22
M  V30 34 1 33 19
M  V30 35 1 33 32
M  V30 36 1 34 16
M  V30 37 1 35 13
M  V30 38 1 35 34
M  V30 39 2 36 9
M  V30 40 2 37 6
M  V30 41 1 37 36
M  V30 42 1 38 1
M  V30 43 1 39 1
M  V30 44 1 40 1
M  V30 45 1 41 3
M  V30 46 1 42 3
M  V30 47 1 43 3
M  V30 48 1 44 4
M  V30 49 1 45 4
M  V30 50 1 46 4
M  V30 51 1 47 7
M  V30 52 1 48 8
M  V30 53 1 49 12
M  V30 54 1 13 50 CFG=3
M  V30 55 1 51 14
M  V30 56 1 52 14
M  V30 57 1 53 15
M  V30 58 1 54 15
M  V30 59 1 16 55 CFG=1
M  V30 60 1 56 17
M  V30 61 1 57 17
M  V30 62 1 58 18
M  V30 63 1 59 18
M  V30 64 1 60 20
M  V30 65 1 61 20
M  V30 66 1 62 21
M  V30 67 1 63 21
M  V30 68 1 22 64 CFG=3
M  V30 69 1 65 24
M  V30 70 1 66 25
M  V30 71 1 67 26
M  V30 72 1 68 29
M  V30 73 1 69 29
M  V30 74 1 70 30
M  V30 75 1 71 30
M  V30 76 1 72 32
M  V30 77 1 73 32
M  V30 78 1 74 33
M  V30 79 1 75 33
M  V30 80 1 76 34
M  V30 81 1 77 34
M  V30 82 1 78 35
M  V30 83 1 79 35
M  V30 84 1 80 36
M  V30 85 1 81 37
M  V30 86 1 19 82 CFG=1
M  V30 END BOND
M  V30 END CTAB
M  END
>  <b_m_subgroup_collapsed>  (2470) 
0

>  <r_i_docking_score>  (2470) 
-5.5602202021520304

>  <s_m_subgroup_title>  (2470) 
glide-dock_SP_D22_pv

>  <s_m_subgroupid>  (2470) 
glide-dock_SP_D22_pv

>  <Molecule ChEMBL ID>  (2470) 
CHEMBL3695441

>  <Standard Type>  (2470) 
Ki

>  <Standard Value>  (2470) 
10000000.0

>  <label>  (2470) 
0

$$$$
CHEMBL593395
     RDKit          3D

  0  0  0  0  0  0  0  0  0  0999 V3000
M  V30 BEGIN CTAB
M  V30 COUNTS 40 43 0 0 1
M  V30 BEGIN ATOM
M  V30 1 C 7.745398 6.514767 -12.387298 0
M  V30 2 O 8.738538 5.688984 -12.980546 0
M  V30 3 C 8.367174 4.446643 -13.445329 0
M  V30 4 C 7.024854 4.017817 -13.594858 0
M  V30 5 C 6.733235 2.743318 -14.121895 0
M  V30 6 C 7.777860 1.855461 -14.463757 0
M  V30 7 C 9.111357 2.280803 -14.303700 0
M  V30 8 C 9.405197 3.567403 -13.812150 0
M  V30 9 C 10.202976 1.313364 -14.709010 0
M  V30 10 C 9.843225 0.689781 -16.066664 0
M  V30 11 N 8.464010 0.110420 -16.122229 0 CFG=2 CHG=1
M  V30 12 C 7.812329 0.361558 -17.427374 0
M  V30 13 C 6.624119 -0.579665 -17.612003 0
M  V30 14 C 5.682108 -0.535288 -16.428797 0
M  V30 15 C 4.372329 -1.027193 -16.586687 0
M  V30 16 C 3.486139 -1.028066 -15.499170 0
M  V30 17 C 3.904279 -0.548263 -14.247733 0
M  V30 18 C 5.225332 -0.089809 -14.075121 0
M  V30 19 C 6.122995 -0.058260 -15.167381 0
M  V30 20 C 7.570189 0.417716 -14.959988 0 CFG=2
M  V30 21 H 8.194246 7.474632 -12.137161 0
M  V30 22 H 7.359458 6.066364 -11.470824 0
M  V30 23 H 6.913759 6.729034 -13.055308 0
M  V30 24 H 6.197226 4.657283 -13.329048 0
M  V30 25 H 5.698527 2.463080 -14.234116 0
M  V30 26 H 10.431292 3.885919 -13.704041 0
M  V30 27 H 11.165972 1.823122 -14.767192 0
M  V30 28 H 10.302044 0.534982 -13.952399 0
M  V30 29 H 9.936686 1.475365 -16.819315 0
M  V30 30 H 10.568041 -0.078208 -16.338299 0
M  V30 31 H 7.488810 1.403342 -17.476837 0
M  V30 32 H 8.519326 0.204998 -18.244282 0
M  V30 33 H 6.081936 -0.319041 -18.521791 0
M  V30 34 H 6.969341 -1.606713 -17.735228 0
M  V30 35 H 4.039593 -1.409536 -17.540770 0
M  V30 36 H 2.485756 -1.403088 -15.634429 0
M  V30 37 H 3.207279 -0.547018 -13.424243 0
M  V30 38 H 5.546792 0.252625 -13.102264 0
M  V30 39 H 7.937960 -0.209240 -14.145535 0
M  V30 40 H 8.568746 -0.894620 -16.070055 0
M  V30 END ATOM
M  V30 BEGIN BOND
M  V30 1 1 2 1
M  V30 2 1 3 2
M  V30 3 1 4 3
M  V30 4 2 5 4
M  V30 5 1 6 5
M  V30 6 2 7 6
M  V30 7 2 8 3
M  V30 8 1 8 7
M  V30 9 1 9 7
M  V30 10 1 10 9
M  V30 11 1 11 10
M  V30 12 1 12 11
M  V30 13 1 13 12
M  V30 14 1 14 13
M  V30 15 2 15 14
M  V30 16 1 16 15
M  V30 17 2 17 16
M  V30 18 1 18 17
M  V30 19 1 19 14
M  V30 20 2 19 18
M  V30 21 1 20 6
M  V30 22 1 20 11
M  V30 23 1 20 19
M  V30 24 1 21 1
M  V30 25 1 22 1
M  V30 26 1 23 1
M  V30 27 1 24 4
M  V30 28 1 25 5
M  V30 29 1 26 8
M  V30 30 1 27 9
M  V30 31 1 28 9
M  V30 32 1 29 10
M  V30 33 1 30 10
M  V30 34 1 31 12
M  V30 35 1 32 12
M  V30 36 1 33 13
M  V30 37 1 34 13
M  V30 38 1 35 15
M  V30 39 1 36 16
M  V30 40 1 37 17
M  V30 41 1 38 18
M  V30 42 1 20 39 CFG=1
M  V30 43 1 11 40 CFG=3
M  V30 END BOND
M  V30 END CTAB
M  END
>  <b_m_subgroup_collapsed>  (2471) 
0

>  <r_i_docking_score>  (2471) 
-5.5591455086849901

>  <s_m_subgroup_title>  (2471) 
glide-dock_SP_D22_pv

>  <s_m_subgroupid>  (2471) 
glide-dock_SP_D22_pv

>  <Molecule ChEMBL ID>  (2471) 
CHEMBL593395

>  <Standard Type>  (2471) 
Ki

>  <Standard Value>  (2471) 
10000.0

>  <label>  (2471) 
0

$$$$
CHEMBL4451666
     RDKit          3D

  0  0  0  0  0  0  0  0  0  0999 V3000
M  V30 BEGIN CTAB
M  V30 COUNTS 47 50 0 0 1
M  V30 BEGIN ATOM
M  V30 1 C 5.079336 1.621648 -13.272892 0
M  V30 2 O 4.965137 3.019698 -13.046844 0
M  V30 3 C 6.129306 3.751328 -13.007657 0
M  V30 4 C 6.119823 4.932367 -12.247046 0
M  V30 5 C 7.284928 5.696784 -12.107134 0
M  V30 6 C 8.474647 5.280651 -12.712151 0
M  V30 7 C 8.530096 4.102421 -13.504090 0
M  V30 8 C 7.325239 3.372243 -13.665772 0
M  V30 9 C 9.883496 3.941003 -13.957836 0
M  V30 10 C 10.300337 2.813750 -14.786290 0
M  V30 11 C 9.861890 1.504173 -14.757620 0
M  V30 12 N 10.488209 0.865846 -15.809496 0
M  V30 13 C 11.275234 1.771211 -16.396471 0
M  V30 14 N 12.076643 1.497946 -17.531015 0
M  V30 15 C 12.084082 0.375720 -18.273361 0
M  V30 16 C 13.075854 0.349563 -19.430468 0
M  V30 17 O 11.359813 -0.600468 -18.071556 0
M  V30 18 N 11.233806 2.965224 -15.818693 0
M  V30 19 C 10.592999 5.001188 -13.446477 0
M  V30 20 N 9.754070 5.801322 -12.676479 0
M  V30 21 S 10.217584 7.233044 -11.817661 0
M  V30 22 O 9.286404 8.287632 -12.246836 0
M  V30 23 O 11.668567 7.372334 -12.020090 0
M  V30 24 C 9.909903 6.923731 -10.083294 0
M  V30 25 C 9.579365 5.639947 -9.603698 0
M  V30 26 C 9.252052 5.474228 -8.246763 0
M  V30 27 C 9.286501 6.575588 -7.367792 0
M  V30 28 C 9.642930 7.850790 -7.846163 0
M  V30 29 F 9.687261 8.906262 -6.999228 0
M  V30 30 C 9.950414 8.027321 -9.207802 0
M  V30 31 H 4.087327 1.173848 -13.244159 0
M  V30 32 H 5.500188 1.383242 -14.247086 0
M  V30 33 H 5.685071 1.148406 -12.498762 0
M  V30 34 H 5.235501 5.235543 -11.711795 0
M  V30 35 H 7.285777 6.572189 -11.481304 0
M  V30 36 H 7.353004 2.486789 -14.278126 0
M  V30 37 H 9.165100 0.997986 -14.105048 0
M  V30 38 H 14.096284 0.453367 -19.059750 0
M  V30 39 H 13.007006 -0.592914 -19.975800 0
M  V30 40 H 12.700012 2.240967 -17.808491 0
M  V30 41 H 11.640270 5.242718 -13.559527 0
M  V30 42 H 9.546478 4.784781 -10.260396 0
M  V30 43 H 8.964708 4.501401 -7.879504 0
M  V30 44 H 9.030635 6.445486 -6.326389 0
M  V30 45 H 10.198662 9.008887 -9.583430 0
M  V30 46 H 12.872498 1.163595 -20.127462 0
M  V30 47 H 10.371161 -0.093309 -16.108168 0
M  V30 END ATOM
M  V30 BEGIN BOND
M  V30 1 1 2 1
M  V30 2 1 3 2
M  V30 3 1 4 3
M  V30 4 2 5 4
M  V30 5 1 6 5
M  V30 6 2 7 6
M  V30 7 2 8 3
M  V30 8 1 8 7
M  V30 9 1 9 7
M  V30 10 1 10 9
M  V30 11 2 11 10
M  V30 12 1 12 11
M  V30 13 1 13 12
M  V30 14 1 14 13
M  V30 15 1 15 14
M  V30 16 1 16 15
M  V30 17 2 17 15
M  V30 18 1 18 10
M  V30 19 2 18 13
M  V30 20 2 19 9
M  V30 21 1 20 6
M  V30 22 1 20 19
M  V30 23 1 21 20
M  V30 24 2 22 21
M  V30 25 2 23 21
M  V30 26 1 24 21
M  V30 27 2 25 24
M  V30 28 1 26 25
M  V30 29 2 27 26
M  V30 30 1 28 27
M  V30 31 1 29 28
M  V30 32 1 30 24
M  V30 33 2 30 28
M  V30 34 1 31 1
M  V30 35 1 32 1
M  V30 36 1 33 1
M  V30 37 1 34 4
M  V30 38 1 35 5
M  V30 39 1 36 8
M  V30 40 1 37 11
M  V30 41 1 38 16
M  V30 42 1 39 16
M  V30 43 1 40 14
M  V30 44 1 41 19
M  V30 45 1 42 25
M  V30 46 1 43 26
M  V30 47 1 44 27
M  V30 48 1 45 30
M  V30 49 1 46 16
M  V30 50 1 47 12
M  V30 END BOND
M  V30 END CTAB
M  END
>  <b_m_subgroup_collapsed>  (2472) 
0

>  <r_i_docking_score>  (2472) 
-5.5589494506414097

>  <s_m_subgroup_title>  (2472) 
glide-dock_SP_D22_pv

>  <s_m_subgroupid>  (2472) 
glide-dock_SP_D22_pv

>  <Molecule ChEMBL ID>  (2472) 
CHEMBL4451666

>  <Standard Type>  (2472) 
Ki

>  <Standard Value>  (2472) 
10000.0

>  <label>  (2472) 
0

$$$$
CHEMBL201010
     RDKit          3D

  0  0  0  0  0  0  0  0  0  0999 V3000
M  V30 BEGIN CTAB
M  V30 COUNTS 49 53 0 0 1
M  V30 BEGIN ATOM
M  V30 1 C 10.226757 -0.227175 -15.694894 0
M  V30 2 N 9.718112 0.544224 -16.870716 0 CFG=2 CHG=1
M  V30 3 C 10.377872 0.037844 -18.116402 0
M  V30 4 C 11.889172 0.341026 -18.186251 0
M  V30 5 C 12.179101 1.833602 -18.006952 0
M  V30 6 C 11.494390 2.404405 -16.748182 0 CFG=1
M  V30 7 C 11.766451 3.903335 -16.645254 0
M  V30 8 C 12.498723 4.423476 -15.553847 0
M  V30 9 C 12.756101 5.804142 -15.459471 0
M  V30 10 C 12.289220 6.676594 -16.458439 0
M  V30 11 C 11.558537 6.171013 -17.547991 0
M  V30 12 C 11.291415 4.791187 -17.639778 0
M  V30 13 C 9.974222 2.031073 -16.742041 0 CFG=2
M  V30 14 C 9.122160 2.613982 -15.645622 0
M  V30 15 N 9.367258 3.769199 -14.922424 0
M  V30 16 C 8.343783 4.015502 -14.029703 0
M  V30 17 C 8.142077 5.030135 -13.075929 0
M  V30 18 C 6.967848 5.027459 -12.302111 0
M  V30 19 C 6.007140 4.017923 -12.494729 0
M  V30 20 C 6.217488 3.001977 -13.449651 0
M  V30 21 C 7.392231 2.969507 -14.238541 0
M  V30 22 C 7.924678 2.089772 -15.241476 0
M  V30 23 C 7.405564 0.794971 -15.777505 0
M  V30 24 C 8.235168 0.318596 -17.002621 0
M  V30 25 H 9.730722 0.036549 -14.763288 0
M  V30 26 H 11.286716 -0.078811 -15.515015 0
M  V30 27 H 10.083624 -1.296872 -15.846532 0
M  V30 28 H 10.219325 -1.038329 -18.211309 0
M  V30 29 H 9.898765 0.488935 -18.987223 0
M  V30 30 H 12.440008 -0.228318 -17.444117 0
M  V30 31 H 12.281436 0.009265 -19.148800 0
M  V30 32 H 13.257719 1.998650 -17.952486 0
M  V30 33 H 11.835996 2.361804 -18.897182 0
M  V30 34 H 11.962335 1.954866 -15.872835 0
M  V30 35 H 12.883373 3.768807 -14.783493 0
M  V30 36 H 13.314883 6.191336 -14.620590 0
M  V30 37 H 12.492169 7.737830 -16.390781 0
M  V30 38 H 11.200444 6.842731 -18.314980 0
M  V30 39 H 10.724966 4.421843 -18.484684 0
M  V30 40 H 9.575245 2.471033 -17.658283 0
M  V30 41 H 10.189463 4.344549 -15.057023 0
M  V30 42 H 8.880771 5.802892 -12.933030 0
M  V30 43 H 6.804200 5.794735 -11.557699 0
M  V30 44 H 5.113974 4.021598 -11.889609 0
M  V30 45 H 5.476153 2.225184 -13.571593 0
M  V30 46 H 7.432425 0.037206 -14.991842 0
M  V30 47 H 6.357429 0.891116 -16.059381 0
M  V30 48 H 7.877008 0.856511 -17.880407 0
M  V30 49 H 8.020354 -0.733603 -17.191107 0
M  V30 END ATOM
M  V30 BEGIN BOND
M  V30 1 1 2 1 CFG=1
M  V30 2 1 3 2
M  V30 3 1 4 3
M  V30 4 1 5 4
M  V30 5 1 6 5
M  V30 6 1 7 6
M  V30 7 2 8 7
M  V30 8 1 9 8
M  V30 9 2 10 9
M  V30 10 1 11 10
M  V30 11 1 12 7
M  V30 12 2 12 11
M  V30 13 1 13 2
M  V30 14 1 13 6
M  V30 15 1 14 13
M  V30 16 1 15 14
M  V30 17 1 16 15
M  V30 18 2 17 16
M  V30 19 1 18 17
M  V30 20 2 19 18
M  V30 21 1 20 19
M  V30 22 1 21 16
M  V30 23 2 21 20
M  V30 24 2 22 14
M  V30 25 1 22 21
M  V30 26 1 23 22
M  V30 27 1 24 2
M  V30 28 1 24 23
M  V30 29 1 25 1
M  V30 30 1 26 1
M  V30 31 1 27 1
M  V30 32 1 28 3
M  V30 33 1 29 3
M  V30 34 1 30 4
M  V30 35 1 31 4
M  V30 36 1 32 5
M  V30 37 1 33 5
M  V30 38 1 6 34 CFG=1
M  V30 39 1 35 8
M  V30 40 1 36 9
M  V30 41 1 37 10
M  V30 42 1 38 11
M  V30 43 1 39 12
M  V30 44 1 13 40 CFG=3
M  V30 45 1 41 15
M  V30 46 1 42 17
M  V30 47 1 43 18
M  V30 48 1 44 19
M  V30 49 1 45 20
M  V30 50 1 46 23
M  V30 51 1 47 23
M  V30 52 1 48 24
M  V30 53 1 49 24
M  V30 END BOND
M  V30 END CTAB
M  END
>  <b_m_subgroup_collapsed>  (2473) 
0

>  <r_i_docking_score>  (2473) 
-5.5529042251914502

>  <s_m_subgroup_title>  (2473) 
glide-dock_SP_D22_pv

>  <s_m_subgroupid>  (2473) 
glide-dock_SP_D22_pv

>  <Molecule ChEMBL ID>  (2473) 
CHEMBL201010

>  <Standard Type>  (2473) 
Ki

>  <Standard Value>  (2473) 
10000.0

>  <label>  (2473) 
0

$$$$
CHEMBL5273758
     RDKit          3D

  0  0  0  0  0  0  0  0  0  0999 V3000
M  V30 BEGIN CTAB
M  V30 COUNTS 43 46 0 0 1
M  V30 BEGIN ATOM
M  V30 1 C 6.370014 5.964460 -12.701155 0
M  V30 2 N 6.547298 4.557412 -12.290078 0 CFG=1 CHG=1
M  V30 3 C 6.484672 3.609579 -13.428838 0
M  V30 4 C 7.769445 3.674840 -14.269400 0
M  V30 5 C 9.022906 3.295718 -13.478362 0 CFG=1
M  V30 6 C 10.283609 3.602523 -14.274847 0
M  V30 7 C 11.050347 4.689152 -14.061012 0
M  V30 8 O 12.173654 4.844377 -14.775254 0
M  V30 9 C 10.681226 5.668047 -13.046743 0
M  V30 10 O 11.285568 6.865271 -13.035436 0
M  V30 11 C 9.745462 5.350030 -12.119508 0
M  V30 12 C 9.143633 6.216782 -11.017657 0 CFG=2
M  V30 13 C 10.072239 6.929300 -10.028906 0
M  V30 14 C 10.495422 8.236167 -10.343543 0
M  V30 15 C 11.287736 8.972279 -9.446862 0
M  V30 16 C 11.656758 8.420823 -8.207196 0
M  V30 17 C 11.231443 7.123669 -7.871074 0
M  V30 18 C 10.456095 6.377070 -8.781291 0
M  V30 19 C 8.086802 5.304256 -10.359913 0
M  V30 20 C 7.689265 4.235997 -11.387725 0 CFG=2
M  V30 21 C 9.048880 4.003337 -12.103173 0 CFG=1
M  V30 22 H 7.261109 6.371012 -13.177524 0
M  V30 23 H 6.117132 6.572327 -11.846864 0
M  V30 24 H 5.531126 6.056579 -13.391517 0
M  V30 25 H 6.339907 2.597448 -13.048315 0
M  V30 26 H 5.615162 3.828028 -14.050238 0
M  V30 27 H 7.678294 3.012682 -15.131896 0
M  V30 28 H 7.897492 4.687981 -14.646865 0
M  V30 29 H 9.018280 2.216531 -13.334719 0
M  V30 30 H 10.564984 2.884104 -15.031883 0
M  V30 31 H 12.736210 5.445335 -14.310738 0
M  V30 32 H 11.761344 6.958608 -13.845758 0
M  V30 33 H 8.603233 7.011998 -11.529474 0
M  V30 34 H 10.204181 8.685342 -11.281298 0
M  V30 35 H 11.612706 9.965310 -9.718213 0
M  V30 36 H 12.265593 8.989107 -7.519352 0
M  V30 37 H 11.512258 6.691006 -6.921980 0
M  V30 38 H 10.171938 5.379268 -8.489901 0
M  V30 39 H 8.521635 4.737370 -9.541204 0
M  V30 40 H 7.286019 5.854346 -9.906341 0
M  V30 41 H 7.286025 3.372325 -10.860350 0
M  V30 42 H 9.685224 3.403287 -11.447649 0
M  V30 43 H 5.729784 4.376594 -11.721910 0
M  V30 END ATOM
M  V30 BEGIN BOND
M  V30 1 1 2 1
M  V30 2 1 3 2
M  V30 3 1 4 3
M  V30 4 1 5 4
M  V30 5 1 6 5
M  V30 6 2 7 6
M  V30 7 1 8 7
M  V30 8 1 9 7
M  V30 9 1 10 9
M  V30 10 2 11 9
M  V30 11 1 12 11
M  V30 12 1 13 12
M  V30 13 2 14 13
M  V30 14 1 15 14
M  V30 15 2 16 15
M  V30 16 1 17 16
M  V30 17 1 18 13
M  V30 18 2 18 17
M  V30 19 1 19 12
M  V30 20 1 20 2
M  V30 21 1 20 19
M  V30 22 1 21 5
M  V30 23 1 21 11
M  V30 24 1 21 20
M  V30 25 1 22 1
M  V30 26 1 23 1
M  V30 27 1 24 1
M  V30 28 1 25 3
M  V30 29 1 26 3
M  V30 30 1 27 4
M  V30 31 1 28 4
M  V30 32 1 5 29 CFG=1
M  V30 33 1 30 6
M  V30 34 1 31 8
M  V30 35 1 32 10
M  V30 36 1 12 33 CFG=3
M  V30 37 1 34 14
M  V30 38 1 35 15
M  V30 39 1 36 16
M  V30 40 1 37 17
M  V30 41 1 38 18
M  V30 42 1 39 19
M  V30 43 1 40 19
M  V30 44 1 20 41 CFG=1
M  V30 45 1 21 42 CFG=1
M  V30 46 1 2 43 CFG=1
M  V30 END BOND
M  V30 END CTAB
M  END
>  <b_m_subgroup_collapsed>  (2474) 
0

>  <r_i_docking_score>  (2474) 
-5.5528670589351998

>  <s_m_subgroup_title>  (2474) 
glide-dock_SP_D22_pv

>  <s_m_subgroupid>  (2474) 
glide-dock_SP_D22_pv

>  <Molecule ChEMBL ID>  (2474) 
CHEMBL5273758

>  <Standard Type>  (2474) 
Ki

>  <Standard Value>  (2474) 
12.88

>  <label>  (2474) 
1

$$$$
CHEMBL201318
     RDKit          3D

  0  0  0  0  0  0  0  0  0  0999 V3000
M  V30 BEGIN CTAB
M  V30 COUNTS 73 76 0 0 1
M  V30 BEGIN ATOM
M  V30 1 C 4.693942 0.773796 -20.326069 0
M  V30 2 C 6.125299 0.380790 -19.899899 0
M  V30 3 C 7.091984 1.362715 -20.606337 0
M  V30 4 C 6.452443 -1.041887 -20.388062 0
M  V30 5 C 6.258502 0.441661 -18.365322 0
M  V30 6 N 7.354707 1.000334 -17.849022 0
M  V30 7 C 7.585348 0.879697 -16.520800 0
M  V30 8 N 8.785611 1.423315 -16.005312 0
M  V30 9 C 9.071272 1.547841 -14.575923 0
M  V30 10 C 9.147447 3.034211 -14.182708 0
M  V30 11 N 10.171576 3.723843 -14.982033 0
M  V30 12 C 10.245992 5.127002 -14.585009 0
M  V30 13 C 11.184818 5.275351 -13.380029 0
M  V30 14 C 11.327807 6.720103 -12.875956 0
M  V30 15 C 10.178110 7.282263 -11.988409 0
M  V30 16 N 10.086793 6.715409 -10.626934 0
M  V30 17 C 9.364167 5.574882 -10.434262 0
M  V30 18 O 8.690604 5.039194 -11.316546 0
M  V30 19 C 9.440941 4.889335 -9.066208 0
M  V30 20 C 8.669608 5.632874 -7.970144 0
M  V30 21 C 8.696829 7.152511 -8.067292 0
M  V30 22 C 10.104488 7.658307 -8.296062 0
M  V30 23 C 10.774446 8.353436 -7.259759 0
M  V30 24 O 10.178465 8.584710 -6.056460 0
M  V30 25 C 12.084279 8.811905 -7.446600 0
M  V30 26 C 12.729040 8.569570 -8.666390 0
M  V30 27 C 12.062425 7.911332 -9.712405 0
M  V30 28 C 10.745770 7.418962 -9.546583 0
M  V30 29 C 9.827550 3.623243 -16.403866 0
M  V30 30 C 9.745165 2.146794 -16.840818 0
M  V30 31 C 6.665856 0.180964 -15.709955 0
M  V30 32 C 5.538940 -0.373469 -16.346062 0
M  V30 33 C 4.552998 -1.247866 -15.584624 0
M  V30 34 F 4.620157 -1.021147 -14.269589 0
M  V30 35 F 3.296791 -1.027603 -15.979653 0
M  V30 36 F 4.876400 -2.521571 -15.813881 0
M  V30 37 N 5.346161 -0.239480 -17.674395 0
M  V30 38 H 3.947950 0.086075 -19.925119 0
M  V30 39 H 4.443204 1.772008 -19.972742 0
M  V30 40 H 4.580612 0.765924 -21.411152 0
M  V30 41 H 8.133862 1.130103 -20.381798 0
M  V30 42 H 6.981505 1.316182 -21.689915 0
M  V30 43 H 6.913607 2.393385 -20.304766 0
M  V30 44 H 5.765478 -1.775452 -19.966866 0
M  V30 45 H 6.381561 -1.117429 -21.473768 0
M  V30 46 H 7.462027 -1.335961 -20.101076 0
M  V30 47 H 10.027840 1.064853 -14.369314 0
M  V30 48 H 8.347132 1.052075 -13.935979 0
M  V30 49 H 9.388422 3.102241 -13.123616 0
M  V30 50 H 8.174368 3.509461 -14.317863 0
M  V30 51 H 9.249843 5.526433 -14.377786 0
M  V30 52 H 10.659556 5.724102 -15.403486 0
M  V30 53 H 12.172059 4.922157 -13.681046 0
M  V30 54 H 10.876829 4.611655 -12.571550 0
M  V30 55 H 11.456161 7.377248 -13.736940 0
M  V30 56 H 12.277578 6.775115 -12.351396 0
M  V30 57 H 9.220830 7.186805 -12.508461 0
M  V30 58 H 10.311022 8.356895 -11.868346 0
M  V30 59 H 10.486704 4.811807 -8.782856 0
M  V30 60 H 9.084194 3.863531 -9.125854 0
M  V30 61 H 9.158743 5.378049 -7.043395 0
M  V30 62 H 7.646736 5.283949 -7.895133 0
M  V30 63 H 8.222841 7.592944 -7.190052 0
M  V30 64 H 8.087753 7.472437 -8.905324 0
M  V30 65 H 9.310658 8.210461 -6.009932 0
M  V30 66 H 12.597478 9.341252 -6.656243 0
M  V30 67 H 13.739784 8.922709 -8.802857 0
M  V30 68 H 12.605426 7.784088 -10.629167 0
M  V30 69 H 8.893083 4.138283 -16.608631 0
M  V30 70 H 10.595797 4.122667 -16.994574 0
M  V30 71 H 10.721250 1.675834 -16.721157 0
M  V30 72 H 9.511876 2.091571 -17.903566 0
M  V30 73 H 6.814059 0.005243 -14.657754 0
M  V30 END ATOM
M  V30 BEGIN BOND
M  V30 1 1 2 1
M  V30 2 1 3 2
M  V30 3 1 4 2
M  V30 4 1 5 2
M  V30 5 2 6 5
M  V30 6 1 7 6
M  V30 7 1 8 7
M  V30 8 1 9 8
M  V30 9 1 10 9
M  V30 10 1 11 10
M  V30 11 1 12 11
M  V30 12 1 13 12
M  V30 13 1 14 13
M  V30 14 1 15 14
M  V30 15 1 16 15
M  V30 16 1 17 16
M  V30 17 2 18 17
M  V30 18 1 19 17
M  V30 19 1 20 19
M  V30 20 1 21 20
M  V30 21 1 22 21
M  V30 22 2 23 22
M  V30 23 1 24 23
M  V30 24 1 25 23
M  V30 25 2 26 25
M  V30 26 1 27 26
M  V30 27 1 28 16
M  V30 28 1 28 22
M  V30 29 2 28 27
M  V30 30 1 29 11
M  V30 31 1 30 8
M  V30 32 1 30 29
M  V30 33 2 31 7
M  V30 34 1 32 31
M  V30 35 1 33 32
M  V30 36 1 34 33
M  V30 37 1 35 33
M  V30 38 1 36 33
M  V30 39 1 37 5
M  V30 40 2 37 32
M  V30 41 1 38 1
M  V30 42 1 39 1
M  V30 43 1 40 1
M  V30 44 1 41 3
M  V30 45 1 42 3
M  V30 46 1 43 3
M  V30 47 1 44 4
M  V30 48 1 45 4
M  V30 49 1 46 4
M  V30 50 1 47 9
M  V30 51 1 48 9
M  V30 52 1 49 10
M  V30 53 1 50 10
M  V30 54 1 51 12
M  V30 55 1 52 12
M  V30 56 1 53 13
M  V30 57 1 54 13
M  V30 58 1 55 14
M  V30 59 1 56 14
M  V30 60 1 57 15
M  V30 61 1 58 15
M  V30 62 1 59 19
M  V30 63 1 60 19
M  V30 64 1 61 20
M  V30 65 1 62 20
M  V30 66 1 63 21
M  V30 67 1 64 21
M  V30 68 1 65 24
M  V30 69 1 66 25
M  V30 70 1 67 26
M  V30 71 1 68 27
M  V30 72 1 69 29
M  V30 73 1 70 29
M  V30 74 1 71 30
M  V30 75 1 72 30
M  V30 76 1 73 31
M  V30 END BOND
M  V30 END CTAB
M  END
>  <b_m_subgroup_collapsed>  (2475) 
0

>  <r_i_docking_score>  (2475) 
-5.5496741333851602

>  <s_m_subgroup_title>  (2475) 
glide-dock_SP_D22_pv

>  <s_m_subgroupid>  (2475) 
glide-dock_SP_D22_pv

>  <Molecule ChEMBL ID>  (2475) 
CHEMBL201318

>  <Standard Type>  (2475) 
Ki

>  <Standard Value>  (2475) 
93.0

>  <label>  (2475) 
1

$$$$
CHEMBL1081868
     RDKit          3D

  0  0  0  0  0  0  0  0  0  0999 V3000
M  V30 BEGIN CTAB
M  V30 COUNTS 57 61 0 0 1
M  V30 BEGIN ATOM
M  V30 1 C 3.854185 -0.154175 -19.217813 0
M  V30 2 C 4.217247 -1.494665 -18.661530 0
M  V30 3 N 4.252889 -2.632590 -19.454182 0
M  V30 4 C 4.630771 -3.603221 -18.624926 0
M  V30 5 O 4.886051 -3.181229 -17.359343 0
M  V30 6 C 4.573518 -1.850437 -17.384607 0
M  V30 7 C 4.700647 -1.095410 -16.149584 0
M  V30 8 N 3.757715 -1.061594 -15.199780 0
M  V30 9 N 4.242027 -0.228857 -14.213468 0
M  V30 10 C 5.434643 0.172672 -14.656093 0
M  V30 11 S 6.485992 1.333392 -13.846860 0
M  V30 12 C 5.288366 2.239706 -12.816166 0
M  V30 13 C 5.893908 3.418090 -12.027946 0
M  V30 14 C 6.676601 4.442512 -12.874785 0
M  V30 15 N 7.443018 5.400953 -12.038786 0 CFG=2 CHG=1
M  V30 16 C 7.709212 6.701401 -12.694280 0
M  V30 17 C 8.883767 7.292880 -11.955112 0 CFG=2
M  V30 18 C 10.325427 6.933630 -12.222479 0
M  V30 19 C 9.526557 6.172822 -11.181278 0 CFG=1
M  V30 20 C 9.646414 6.402365 -9.689904 0
M  V30 21 C 8.677277 5.876462 -8.808104 0
M  V30 22 C 8.684834 6.199664 -7.446943 0
M  V30 23 F 7.686036 5.772385 -6.652325 0
M  V30 24 C 9.673833 7.032350 -6.918772 0
M  V30 25 C 10.651154 7.569447 -7.771216 0
M  V30 26 C 11.608921 8.601242 -7.225599 0
M  V30 27 F 11.051971 9.772337 -7.446203 0
M  V30 28 F 11.762176 8.479913 -5.907065 0
M  V30 29 F 12.787898 8.571991 -7.846859 0
M  V30 30 C 10.647240 7.242753 -9.145127 0
M  V30 31 C 8.767593 4.913862 -11.578869 0
M  V30 32 N 5.773748 -0.340942 -15.850762 0
M  V30 33 C 6.982802 -0.115936 -16.626263 0
M  V30 34 H 2.886036 0.172369 -18.849174 0
M  V30 35 H 4.586601 0.602173 -18.936140 0
M  V30 36 H 3.796896 -0.173603 -20.306158 0
M  V30 37 H 4.764940 -4.635712 -18.911619 0
M  V30 38 H 4.485992 2.603779 -13.446857 0
M  V30 39 H 4.864502 1.530090 -12.109112 0
M  V30 40 H 5.092166 3.955415 -11.524110 0
M  V30 41 H 6.486765 3.019356 -11.213512 0
M  V30 42 H 7.358365 3.960272 -13.575279 0
M  V30 43 H 5.955802 4.990642 -13.483045 0
M  V30 44 H 8.003922 6.553833 -13.733570 0
M  V30 45 H 6.840766 7.360330 -12.647582 0
M  V30 46 H 8.689253 8.223956 -11.424569 0
M  V30 47 H 10.545042 6.429518 -13.161173 0
M  V30 48 H 11.078650 7.651244 -11.909730 0
M  V30 49 H 7.851676 5.283119 -9.162107 0
M  V30 50 H 9.634660 7.300921 -5.873695 0
M  V30 51 H 11.389455 7.699065 -9.780693 0
M  V30 52 H 8.709417 4.172351 -10.786401 0
M  V30 53 H 9.295905 4.442171 -12.409281 0
M  V30 54 H 7.858328 -0.227146 -15.985943 0
M  V30 55 H 7.061907 -0.836288 -17.440046 0
M  V30 56 H 6.968296 0.891678 -17.042170 0
M  V30 57 H 6.894497 5.626929 -11.215961 0
M  V30 END ATOM
M  V30 BEGIN BOND
M  V30 1 1 2 1
M  V30 2 1 3 2
M  V30 3 2 4 3
M  V30 4 1 5 4
M  V30 5 2 6 2
M  V30 6 1 6 5
M  V30 7 1 7 6
M  V30 8 2 8 7
M  V30 9 1 9 8
M  V30 10 2 10 9
M  V30 11 1 11 10
M  V30 12 1 12 11
M  V30 13 1 13 12
M  V30 14 1 14 13
M  V30 15 1 15 14
M  V30 16 1 16 15
M  V30 17 1 17 16
M  V30 18 1 18 17
M  V30 19 1 19 17
M  V30 20 1 19 18
M  V30 21 1 19 20 CFG=1
M  V30 22 2 21 20
M  V30 23 1 22 21
M  V30 24 1 23 22
M  V30 25 2 24 22
M  V30 26 1 25 24
M  V30 27 1 26 25
M  V30 28 1 27 26
M  V30 29 1 28 26
M  V30 30 1 29 26
M  V30 31 1 30 20
M  V30 32 2 30 25
M  V30 33 1 31 15
M  V30 34 1 31 19
M  V30 35 1 32 7
M  V30 36 1 32 10
M  V30 37 1 33 32
M  V30 38 1 34 1
M  V30 39 1 35 1
M  V30 40 1 36 1
M  V30 41 1 37 4
M  V30 42 1 38 12
M  V30 43 1 39 12
M  V30 44 1 40 13
M  V30 45 1 41 13
M  V30 46 1 42 14
M  V30 47 1 43 14
M  V30 48 1 44 16
M  V30 49 1 45 16
M  V30 50 1 17 46 CFG=1
M  V30 51 1 47 18
M  V30 52 1 48 18
M  V30 53 1 49 21
M  V30 54 1 50 24
M  V30 55 1 51 30
M  V30 56 1 52 31
M  V30 57 1 53 31
M  V30 58 1 54 33
M  V30 59 1 55 33
M  V30 60 1 56 33
M  V30 61 1 15 57 CFG=1
M  V30 END BOND
M  V30 END CTAB
M  END
>  <b_m_subgroup_collapsed>  (2476) 
0

>  <r_i_docking_score>  (2476) 
-5.5496001736802096

>  <s_m_subgroup_title>  (2476) 
glide-dock_SP_D22_pv

>  <s_m_subgroupid>  (2476) 
glide-dock_SP_D22_pv

>  <Molecule ChEMBL ID>  (2476) 
CHEMBL1081868

>  <Standard Type>  (2476) 
Ki

>  <Standard Value>  (2476) 
31.62

>  <label>  (2476) 
1

$$$$
CHEMBL2303762
     RDKit          3D

  0  0  0  0  0  0  0  0  0  0999 V3000
M  V30 BEGIN CTAB
M  V30 COUNTS 59 62 0 0 1
M  V30 BEGIN ATOM
M  V30 1 O 8.472492 1.073632 -18.088112 0
M  V30 2 C 7.359968 0.288548 -18.466719 0
M  V30 3 C 7.180178 -0.905633 -17.492569 0 CFG=1
M  V30 4 O 6.884496 -0.482420 -16.156042 0
M  V30 5 C 5.662177 0.154827 -15.940323 0 CFG=2
M  V30 6 O 5.466203 0.529904 -14.603646 0
M  V30 7 C 6.105708 1.657119 -14.140176 0
M  V30 8 C 5.526529 2.333337 -13.047318 0
M  V30 9 C 6.086728 3.531099 -12.561808 0
M  V30 10 C 7.259597 4.064742 -13.144645 0
M  V30 11 C 7.862922 5.346993 -12.562291 0
M  V30 12 C 9.399105 5.318519 -12.308973 0 CFG=1
M  V30 13 N 10.108535 5.372154 -13.612822 0 CHG=1
M  V30 14 C 11.550951 5.662785 -13.562146 0
M  V30 15 C 11.781376 7.033829 -12.921800 0
M  V30 16 C 11.024424 7.204268 -11.615177 0
M  V30 17 C 11.488360 8.139419 -10.664138 0
M  V30 18 C 10.822317 8.301935 -9.435295 0
M  V30 19 O 11.286072 9.220131 -8.539187 0
M  V30 20 C 9.688984 7.516231 -9.144251 0
M  V30 21 O 9.015612 7.670792 -7.963679 0
M  V30 22 C 9.246482 6.562739 -10.080815 0
M  V30 23 C 9.883903 6.407675 -11.333802 0
M  V30 24 C 7.831823 3.384384 -14.246455 0
M  V30 25 C 7.272274 2.191306 -14.729487 0
M  V30 26 C 4.487020 -0.773890 -16.341486 0 CFG=2
M  V30 27 O 4.357034 -1.833622 -15.432818 0
M  V30 28 C 4.695283 -1.290865 -17.777748 0 CFG=2
M  V30 29 O 3.686788 -2.228093 -18.125233 0
M  V30 30 C 6.088943 -1.919662 -17.917082 0 CFG=1
M  V30 31 O 6.279285 -2.337816 -19.253500 0
M  V30 32 H 9.234904 0.515818 -18.053625 0
M  V30 33 H 7.561610 -0.082001 -19.471884 0
M  V30 34 H 6.476507 0.917655 -18.552782 0
M  V30 35 H 8.134975 -1.428519 -17.451065 0
M  V30 36 H 5.686004 1.042880 -16.565275 0
M  V30 37 H 4.629852 1.940672 -12.591485 0
M  V30 38 H 5.619734 4.029060 -11.723226 0
M  V30 39 H 7.332163 5.534378 -11.630387 0
M  V30 40 H 7.605216 6.191342 -13.202140 0
M  V30 41 H 9.653361 4.370624 -11.831986 0
M  V30 42 H 9.974313 4.486042 -14.076669 0
M  V30 43 H 12.072561 4.860587 -13.046632 0
M  V30 44 H 11.947871 5.665222 -14.578116 0
M  V30 45 H 11.455063 7.806531 -13.614322 0
M  V30 46 H 12.848694 7.193104 -12.758561 0
M  V30 47 H 12.361013 8.740125 -10.881907 0
M  V30 48 H 12.044518 9.685791 -8.857512 0
M  V30 49 H 8.113340 7.372545 -7.999210 0
M  V30 50 H 8.394169 5.951684 -9.820958 0
M  V30 51 H 8.692710 3.751778 -14.772025 0
M  V30 52 H 7.749444 1.709994 -15.568212 0
M  V30 53 H 3.551493 -0.227506 -16.272776 0
M  V30 54 H 3.632244 -2.387278 -15.695540 0
M  V30 55 H 4.599245 -0.454096 -18.471064 0
M  V30 56 H 3.690904 -2.959652 -17.518198 0
M  V30 57 H 6.150032 -2.800958 -17.276501 0
M  V30 58 H 5.491562 -2.794998 -19.515020 0
M  V30 59 H 9.671432 6.095417 -14.164814 0
M  V30 END ATOM
M  V30 BEGIN BOND
M  V30 1 1 2 1
M  V30 2 1 3 2
M  V30 3 1 4 3
M  V30 4 1 5 4
M  V30 5 1 6 5
M  V30 6 1 7 6
M  V30 7 1 8 7
M  V30 8 2 9 8
M  V30 9 1 10 9
M  V30 10 1 11 10
M  V30 11 1 12 11
M  V30 12 1 13 12
M  V30 13 1 14 13
M  V30 14 1 15 14
M  V30 15 1 16 15
M  V30 16 1 17 16
M  V30 17 2 18 17
M  V30 18 1 19 18
M  V30 19 1 20 18
M  V30 20 1 21 20
M  V30 21 2 22 20
M  V30 22 1 23 12
M  V30 23 2 23 16
M  V30 24 1 23 22
M  V30 25 2 24 10
M  V30 26 2 25 7
M  V30 27 1 25 24
M  V30 28 1 26 5
M  V30 29 1 27 26
M  V30 30 1 28 26
M  V30 31 1 29 28
M  V30 32 1 30 3
M  V30 33 1 30 28
M  V30 34 1 31 30
M  V30 35 1 32 1
M  V30 36 1 33 2
M  V30 37 1 34 2
M  V30 38 1 3 35 CFG=1
M  V30 39 1 5 36 CFG=3
M  V30 40 1 37 8
M  V30 41 1 38 9
M  V30 42 1 39 11
M  V30 43 1 40 11
M  V30 44 1 12 41 CFG=1
M  V30 45 1 42 13
M  V30 46 1 43 14
M  V30 47 1 44 14
M  V30 48 1 45 15
M  V30 49 1 46 15
M  V30 50 1 47 17
M  V30 51 1 48 19
M  V30 52 1 49 21
M  V30 53 1 50 22
M  V30 54 1 51 24
M  V30 55 1 52 25
M  V30 56 1 26 53 CFG=3
M  V30 57 1 54 27
M  V30 58 1 28 55 CFG=3
M  V30 59 1 56 29
M  V30 60 1 30 57 CFG=1
M  V30 61 1 58 31
M  V30 62 1 59 13
M  V30 END BOND
M  V30 END CTAB
M  END
>  <b_m_subgroup_collapsed>  (2477) 
0

>  <r_i_docking_score>  (2477) 
-5.5492487845397003

>  <s_m_subgroup_title>  (2477) 
glide-dock_SP_D22_pv

>  <s_m_subgroupid>  (2477) 
glide-dock_SP_D22_pv

>  <Molecule ChEMBL ID>  (2477) 
CHEMBL2303762

>  <Standard Type>  (2477) 
Ki

>  <Standard Value>  (2477) 
11400.0

>  <label>  (2477) 
0

$$$$
CHEMBL201241
     RDKit          3D

  0  0  0  0  0  0  0  0  0  0999 V3000
M  V30 BEGIN CTAB
M  V30 COUNTS 46 50 0 0 1
M  V30 BEGIN ATOM
M  V30 1 C 10.366419 7.881948 -9.048389 0
M  V30 2 C 10.022947 8.272841 -10.355647 0
M  V30 3 C 9.502130 7.334928 -11.268237 0
M  V30 4 C 9.346864 5.981292 -10.890146 0
M  V30 5 C 8.784478 4.923945 -11.839927 0 CFG=1
M  V30 6 C 7.597749 5.402109 -12.686126 0
M  V30 7 C 6.962828 4.187753 -13.375477 0
M  V30 8 C 8.000063 3.434364 -14.229955 0
M  V30 9 N 9.197937 3.024593 -13.446853 0 CFG=1 CHG=1
M  V30 10 C 10.174644 2.243282 -14.255562 0
M  V30 11 C 10.811470 3.090879 -15.374817 0
M  V30 12 C 11.183107 4.440499 -14.848336 0
M  V30 13 C 10.735017 4.922994 -13.647004 0
M  V30 14 N 11.298790 6.171551 -13.445299 0
M  V30 15 C 12.023241 6.567762 -14.554916 0
M  V30 16 C 12.694468 7.758934 -14.882240 0
M  V30 17 C 13.285886 7.890713 -16.150990 0
M  V30 18 C 13.254930 6.818403 -17.059509 0
M  V30 19 C 12.606449 5.616967 -16.713160 0
M  V30 20 C 11.956455 5.474433 -15.466046 0
M  V30 21 C 9.837382 4.157364 -12.700433 0 CFG=1
M  V30 22 C 9.686074 5.601169 -9.570347 0
M  V30 23 C 10.187470 6.543565 -8.653782 0
M  V30 24 H 10.753601 8.608978 -8.350574 0
M  V30 25 H 10.153383 9.301169 -10.647863 0
M  V30 26 H 9.219924 7.668756 -12.256643 0
M  V30 27 H 8.351633 4.182624 -11.165824 0
M  V30 28 H 6.856760 5.891920 -12.052258 0
M  V30 29 H 7.921954 6.134353 -13.425523 0
M  V30 30 H 6.533230 3.517924 -12.630271 0
M  V30 31 H 6.135109 4.522114 -14.003572 0
M  V30 32 H 7.535991 2.554937 -14.680239 0
M  V30 33 H 8.318874 4.082053 -15.046768 0
M  V30 34 H 10.962351 1.892689 -13.591207 0
M  V30 35 H 9.706760 1.347990 -14.666355 0
M  V30 36 H 11.688882 2.579653 -15.774195 0
M  V30 37 H 10.120904 3.196122 -16.210672 0
M  V30 38 H 11.137321 6.721586 -12.613377 0
M  V30 39 H 12.730718 8.572477 -14.176450 0
M  V30 40 H 13.765497 8.815880 -16.429817 0
M  V30 41 H 13.720831 6.921659 -18.030012 0
M  V30 42 H 12.578731 4.802053 -17.421408 0
M  V30 43 H 10.483892 3.684492 -11.970232 0
M  V30 44 H 9.558837 4.578211 -9.247887 0
M  V30 45 H 10.439832 6.239487 -7.647348 0
M  V30 46 H 8.871055 2.386503 -12.732783 0
M  V30 END ATOM
M  V30 BEGIN BOND
M  V30 1 2 2 1
M  V30 2 1 3 2
M  V30 3 2 4 3
M  V30 4 1 5 4
M  V30 5 1 6 5
M  V30 6 1 7 6
M  V30 7 1 8 7
M  V30 8 1 9 8
M  V30 9 1 10 9
M  V30 10 1 11 10
M  V30 11 1 12 11
M  V30 12 2 13 12
M  V30 13 1 14 13
M  V30 14 1 15 14
M  V30 15 2 16 15
M  V30 16 1 17 16
M  V30 17 2 18 17
M  V30 18 1 19 18
M  V30 19 1 20 12
M  V30 20 1 20 15
M  V30 21 2 20 19
M  V30 22 1 21 5
M  V30 23 1 21 9
M  V30 24 1 21 13
M  V30 25 1 22 4
M  V30 26 1 23 1
M  V30 27 2 23 22
M  V30 28 1 24 1
M  V30 29 1 25 2
M  V30 30 1 26 3
M  V30 31 1 5 27 CFG=1
M  V30 32 1 28 6
M  V30 33 1 29 6
M  V30 34 1 30 7
M  V30 35 1 31 7
M  V30 36 1 32 8
M  V30 37 1 33 8
M  V30 38 1 34 10
M  V30 39 1 35 10
M  V30 40 1 36 11
M  V30 41 1 37 11
M  V30 42 1 38 14
M  V30 43 1 39 16
M  V30 44 1 40 17
M  V30 45 1 41 18
M  V30 46 1 42 19
M  V30 47 1 21 43 CFG=1
M  V30 48 1 44 22
M  V30 49 1 45 23
M  V30 50 1 9 46 CFG=1
M  V30 END BOND
M  V30 END CTAB
M  END
>  <b_m_subgroup_collapsed>  (2478) 
0

>  <r_i_docking_score>  (2478) 
-5.5489800507406004

>  <s_m_subgroup_title>  (2478) 
glide-dock_SP_D22_pv

>  <s_m_subgroupid>  (2478) 
glide-dock_SP_D22_pv

>  <Molecule ChEMBL ID>  (2478) 
CHEMBL201241

>  <Standard Type>  (2478) 
Ki

>  <Standard Value>  (2478) 
10000.0

>  <label>  (2478) 
0

$$$$
CHEMBL5273758
     RDKit          3D

  0  0  0  0  0  0  0  0  0  0999 V3000
M  V30 BEGIN CTAB
M  V30 COUNTS 43 46 0 0 1
M  V30 BEGIN ATOM
M  V30 1 C 12.736589 6.053949 -14.772721 0
M  V30 2 N 11.862436 5.045172 -14.130512 0 CFG=2 CHG=1
M  V30 3 C 11.456210 3.970868 -15.081666 0
M  V30 4 C 10.616408 2.855552 -14.408557 0
M  V30 5 C 9.519039 3.333283 -13.420458 0 CFG=2
M  V30 6 C 8.073132 3.310680 -13.883079 0
M  V30 7 C 7.146210 4.172605 -13.421810 0
M  V30 8 O 5.870378 4.022358 -13.795989 0
M  V30 9 C 7.497793 5.290946 -12.556582 0
M  V30 10 O 6.534499 6.171155 -12.246876 0
M  V30 11 C 8.785245 5.495690 -12.206096 0
M  V30 12 C 9.431544 6.802079 -11.750196 0 CFG=1
M  V30 13 C 9.664938 6.985929 -10.250287 0
M  V30 14 C 9.069891 6.131443 -9.294357 0
M  V30 15 C 9.284044 6.346357 -7.916861 0
M  V30 16 C 10.103702 7.402538 -7.481606 0
M  V30 17 C 10.703386 8.256443 -8.425588 0
M  V30 18 C 10.476953 8.053530 -9.801316 0
M  V30 19 C 10.765209 6.815582 -12.559500 0
M  V30 20 C 10.640330 5.628994 -13.537419 0 CFG=2
M  V30 21 C 9.903768 4.619023 -12.688381 0 CFG=2
M  V30 22 H 12.221522 6.559051 -15.590549 0
M  V30 23 H 13.634430 5.583375 -15.172344 0
M  V30 24 H 13.058154 6.811021 -14.057212 0
M  V30 25 H 10.885568 4.410257 -15.900991 0
M  V30 26 H 12.344720 3.527096 -15.533162 0
M  V30 27 H 10.188988 2.197490 -15.168077 0
M  V30 28 H 11.308518 2.226657 -13.845835 0
M  V30 29 H 9.501736 2.572441 -12.646978 0
M  V30 30 H 7.779241 2.494534 -14.527644 0
M  V30 31 H 5.390142 4.723330 -13.378259 0
M  V30 32 H 6.833443 6.749518 -11.547705 0
M  V30 33 H 8.796189 7.624565 -12.083098 0
M  V30 34 H 8.419762 5.323472 -9.596697 0
M  V30 35 H 8.799217 5.710999 -7.193072 0
M  V30 36 H 10.261536 7.562603 -6.424458 0
M  V30 37 H 11.328734 9.073874 -8.095730 0
M  V30 38 H 10.934164 8.727760 -10.512200 0
M  V30 39 H 10.920666 7.772463 -13.049363 0
M  V30 40 H 11.617721 6.650528 -11.901589 0
M  V30 41 H 9.994206 5.913768 -14.368107 0
M  V30 42 H 10.485961 4.340314 -11.814648 0
M  V30 43 H 12.392769 4.620021 -13.385867 0
M  V30 END ATOM
M  V30 BEGIN BOND
M  V30 1 1 2 1
M  V30 2 1 3 2
M  V30 3 1 4 3
M  V30 4 1 5 4
M  V30 5 1 6 5
M  V30 6 2 7 6
M  V30 7 1 8 7
M  V30 8 1 9 7
M  V30 9 1 10 9
M  V30 10 2 11 9
M  V30 11 1 12 11
M  V30 12 1 13 12
M  V30 13 2 14 13
M  V30 14 1 15 14
M  V30 15 2 16 15
M  V30 16 1 17 16
M  V30 17 1 18 13
M  V30 18 2 18 17
M  V30 19 1 19 12
M  V30 20 1 20 2
M  V30 21 1 20 19
M  V30 22 1 21 5
M  V30 23 1 21 11
M  V30 24 1 21 20
M  V30 25 1 22 1
M  V30 26 1 23 1
M  V30 27 1 24 1
M  V30 28 1 25 3
M  V30 29 1 26 3
M  V30 30 1 27 4
M  V30 31 1 28 4
M  V30 32 1 5 29 CFG=1
M  V30 33 1 30 6
M  V30 34 1 31 8
M  V30 35 1 32 10
M  V30 36 1 12 33 CFG=3
M  V30 37 1 34 14
M  V30 38 1 35 15
M  V30 39 1 36 16
M  V30 40 1 37 17
M  V30 41 1 38 18
M  V30 42 1 39 19
M  V30 43 1 40 19
M  V30 44 1 20 41 CFG=3
M  V30 45 1 21 42 CFG=1
M  V30 46 1 2 43 CFG=1
M  V30 END BOND
M  V30 END CTAB
M  END
>  <b_m_subgroup_collapsed>  (2479) 
0

>  <r_i_docking_score>  (2479) 
-5.5470161138822798

>  <s_m_subgroup_title>  (2479) 
glide-dock_SP_D22_pv

>  <s_m_subgroupid>  (2479) 
glide-dock_SP_D22_pv

>  <Molecule ChEMBL ID>  (2479) 
CHEMBL5273758

>  <Standard Type>  (2479) 
Ki

>  <Standard Value>  (2479) 
12.88

>  <label>  (2479) 
1

$$$$
CHEMBL4558202
     RDKit          3D

  0  0  0  0  0  0  0  0  0  0999 V3000
M  V30 BEGIN CTAB
M  V30 COUNTS 30 32 0 0 1
M  V30 BEGIN ATOM
M  V30 1 C 12.536558 7.357954 -12.765759 0
M  V30 2 O 11.124005 7.372307 -12.791085 0
M  V30 3 C 10.476099 6.872099 -11.692336 0
M  V30 4 C 9.509382 5.879684 -11.936796 0
M  V30 5 C 8.802238 5.306623 -10.871400 0
M  V30 6 C 9.045372 5.757315 -9.566027 0
M  V30 7 N 8.486037 5.397865 -8.366471 0
M  V30 8 C 8.987053 6.184715 -7.352336 0
M  V30 9 C 9.963162 7.018117 -7.834490 0
M  V30 10 C 10.708885 8.000784 -7.052058 0
M  V30 11 C 11.086099 9.275101 -7.391850 0
M  V30 12 N 11.685466 9.907430 -6.304703 0
M  V30 13 C 11.685883 8.972244 -5.366200 0
M  V30 14 N 11.158929 7.798545 -5.745311 0
M  V30 15 C 11.111957 6.590855 -4.947198 0
M  V30 16 C 9.994290 6.781357 -9.266106 0
M  V30 17 C 10.709704 7.326014 -10.366774 0
M  V30 18 F 11.615352 8.306120 -10.139596 0
M  V30 19 H 12.913106 7.717888 -13.723019 0
M  V30 20 H 12.968533 7.990011 -11.992126 0
M  V30 21 H 12.886005 6.334454 -12.643839 0
M  V30 22 H 9.319338 5.550454 -12.947713 0
M  V30 23 H 8.056893 4.546269 -11.052529 0
M  V30 24 H 7.717278 4.751733 -8.249928 0
M  V30 25 H 8.587193 6.109386 -6.352722 0
M  V30 26 H 10.931293 9.772349 -8.333874 0
M  V30 27 H 12.112463 9.136754 -4.387337 0
M  V30 28 H 11.540617 5.772355 -5.521597 0
M  V30 29 H 11.694871 6.715649 -4.034446 0
M  V30 30 H 10.085950 6.352321 -4.676576 0
M  V30 END ATOM
M  V30 BEGIN BOND
M  V30 1 1 2 1
M  V30 2 1 3 2
M  V30 3 1 4 3
M  V30 4 2 5 4
M  V30 5 1 6 5
M  V30 6 1 7 6
M  V30 7 1 8 7
M  V30 8 2 9 8
M  V30 9 1 10 9
M  V30 10 2 11 10
M  V30 11 1 12 11
M  V30 12 2 13 12
M  V30 13 1 14 10
M  V30 14 1 14 13
M  V30 15 1 15 14
M  V30 16 2 16 6
M  V30 17 1 16 9
M  V30 18 2 17 3
M  V30 19 1 17 16
M  V30 20 1 18 17
M  V30 21 1 19 1
M  V30 22 1 20 1
M  V30 23 1 21 1
M  V30 24 1 22 4
M  V30 25 1 23 5
M  V30 26 1 24 7
M  V30 27 1 25 8
M  V30 28 1 26 11
M  V30 29 1 27 13
M  V30 30 1 28 15
M  V30 31 1 29 15
M  V30 32 1 30 15
M  V30 END BOND
M  V30 END CTAB
M  END
>  <b_m_subgroup_collapsed>  (2480) 
0

>  <r_i_docking_score>  (2480) 
-5.5457859991203504

>  <s_m_subgroup_title>  (2480) 
glide-dock_SP_D22_pv

>  <s_m_subgroupid>  (2480) 
glide-dock_SP_D22_pv

>  <Molecule ChEMBL ID>  (2480) 
CHEMBL4558202

>  <Standard Type>  (2480) 
Ki

>  <Standard Value>  (2480) 
10000.0

>  <label>  (2480) 
0

$$$$
CHEMBL198303
     RDKit          3D

  0  0  0  0  0  0  0  0  0  0999 V3000
M  V30 BEGIN CTAB
M  V30 COUNTS 46 47 0 0 1
M  V30 BEGIN ATOM
M  V30 1 C 10.159522 6.668824 -7.123874 0
M  V30 2 C 9.286354 7.049736 -8.320139 0
M  V30 3 C 9.230030 5.937026 -9.386612 0
M  V30 4 N 8.486108 6.344071 -10.610185 0 CHG=1
M  V30 5 C 9.080081 7.486981 -11.371509 0
M  V30 6 C 10.582019 7.350768 -11.740234 0
M  V30 7 C 11.561290 8.067707 -10.798273 0
M  V30 8 C 7.964197 5.205118 -11.430591 0 CFG=1
M  V30 9 C 6.531956 5.474759 -11.940814 0
M  V30 10 C 5.910265 4.242314 -12.625147 0
M  V30 11 N 6.880083 3.543504 -13.446867 0
M  V30 12 N 6.486169 2.535135 -14.251158 0
M  V30 13 C 7.594533 2.125026 -14.849223 0
M  V30 14 C 8.725640 2.862683 -14.405181 0
M  V30 15 C 10.122642 2.714006 -14.870389 0
M  V30 16 O 11.074464 3.326697 -14.383681 0
M  V30 17 O 10.211159 1.863737 -15.910250 0
M  V30 18 C 11.453891 1.675662 -16.561703 0
M  V30 19 C 8.246654 3.737148 -13.470749 0
M  V30 20 C 8.887226 4.761767 -12.595511 0
M  V30 21 H 10.170589 7.463236 -6.378512 0
M  V30 22 H 11.189973 6.474838 -7.425870 0
M  V30 23 H 9.773186 5.772614 -6.646078 0
M  V30 24 H 8.279766 7.263194 -7.962710 0
M  V30 25 H 9.660767 7.986919 -8.729330 0
M  V30 26 H 10.231915 5.599856 -9.652196 0
M  V30 27 H 8.738361 5.077077 -8.927931 0
M  V30 28 H 8.495155 7.631419 -12.279181 0
M  V30 29 H 8.916510 8.406959 -10.810730 0
M  V30 30 H 10.886291 6.312014 -11.841541 0
M  V30 31 H 10.723908 7.772418 -12.733823 0
M  V30 32 H 12.564764 8.070883 -11.225348 0
M  V30 33 H 11.631586 7.571756 -9.831178 0
M  V30 34 H 11.275271 9.107725 -10.631001 0
M  V30 35 H 7.860456 4.342888 -10.770201 0
M  V30 36 H 5.880651 5.772113 -11.119442 0
M  V30 37 H 6.541275 6.311186 -12.641404 0
M  V30 38 H 5.548362 3.543229 -11.870853 0
M  V30 39 H 5.056159 4.526926 -13.240314 0
M  V30 40 H 7.539492 1.327101 -15.575953 0
M  V30 41 H 11.363251 0.898654 -17.321756 0
M  V30 42 H 12.220253 1.372846 -15.851635 0
M  V30 43 H 11.776277 2.596349 -17.049122 0
M  V30 44 H 9.147135 5.600780 -13.240307 0
M  V30 45 H 9.818143 4.361336 -12.190712 0
M  V30 46 H 7.621093 6.767889 -10.248284 0
M  V30 END ATOM
M  V30 BEGIN BOND
M  V30 1 1 2 1
M  V30 2 1 3 2
M  V30 3 1 4 3
M  V30 4 1 5 4
M  V30 5 1 6 5
M  V30 6 1 7 6
M  V30 7 1 8 4
M  V30 8 1 9 8
M  V30 9 1 10 9
M  V30 10 1 11 10
M  V30 11 1 12 11
M  V30 12 2 13 12
M  V30 13 1 14 13
M  V30 14 1 15 14
M  V30 15 2 16 15
M  V30 16 1 17 15
M  V30 17 1 18 17
M  V30 18 1 19 11
M  V30 19 2 19 14
M  V30 20 1 20 8
M  V30 21 1 20 19
M  V30 22 1 21 1
M  V30 23 1 22 1
M  V30 24 1 23 1
M  V30 25 1 24 2
M  V30 26 1 25 2
M  V30 27 1 26 3
M  V30 28 1 27 3
M  V30 29 1 28 5
M  V30 30 1 29 5
M  V30 31 1 30 6
M  V30 32 1 31 6
M  V30 33 1 32 7
M  V30 34 1 33 7
M  V30 35 1 34 7
M  V30 36 1 8 35 CFG=1
M  V30 37 1 36 9
M  V30 38 1 37 9
M  V30 39 1 38 10
M  V30 40 1 39 10
M  V30 41 1 40 13
M  V30 42 1 41 18
M  V30 43 1 42 18
M  V30 44 1 43 18
M  V30 45 1 44 20
M  V30 46 1 45 20
M  V30 47 1 46 4
M  V30 END BOND
M  V30 END CTAB
M  END
>  <b_m_subgroup_collapsed>  (2481) 
0

>  <r_i_docking_score>  (2481) 
-5.5454641521636798

>  <s_m_subgroup_title>  (2481) 
glide-dock_SP_D22_pv

>  <s_m_subgroupid>  (2481) 
glide-dock_SP_D22_pv

>  <Molecule ChEMBL ID>  (2481) 
CHEMBL198303

>  <Standard Type>  (2481) 
Ki

>  <Standard Value>  (2481) 
20000.0

>  <label>  (2481) 
0

$$$$
CHEMBL544118
     RDKit          3D

  0  0  0  0  0  0  0  0  0  0999 V3000
M  V30 BEGIN CTAB
M  V30 COUNTS 39 41 0 0 1
M  V30 BEGIN ATOM
M  V30 1 C 5.994588 4.370631 -12.719840 0
M  V30 2 N 6.449958 2.992973 -13.030569 0 CFG=1 CHG=1
M  V30 3 C 5.340498 2.015442 -12.866241 0
M  V30 4 C 5.663690 0.534952 -13.137079 0
M  V30 5 C 5.711835 0.235059 -14.630638 0
M  V30 6 C 4.657127 -0.484298 -15.248832 0
M  V30 7 Cl 3.287917 -1.027599 -14.338198 0
M  V30 8 C 4.646485 -0.666500 -16.644602 0
M  V30 9 O 3.672706 -1.429953 -17.226933 0
M  V30 10 C 5.594437 0.001196 -17.444069 0
M  V30 11 O 5.500756 -0.061504 -18.809679 0 CHG=-1
M  V30 12 C 6.610305 0.776610 -16.845079 0
M  V30 13 Cl 7.590441 1.739731 -17.911497 0
M  V30 14 C 6.738710 0.816297 -15.419988 0
M  V30 15 C 7.857816 1.588486 -14.692593 0 CFG=1
M  V30 16 C 9.197911 1.599123 -15.444956 0
M  V30 17 C 9.734288 0.360340 -15.869488 0
M  V30 18 C 10.886174 0.318222 -16.675955 0
M  V30 19 C 11.564019 1.504528 -17.007456 0
M  V30 20 C 11.073380 2.738566 -16.547983 0
M  V30 21 C 9.892630 2.789885 -15.782307 0
M  V30 22 C 7.301983 2.963890 -14.246410 0
M  V30 23 H 5.300454 4.734415 -13.479249 0
M  V30 24 H 6.835805 5.063400 -12.669876 0
M  V30 25 H 5.488773 4.410659 -11.754086 0
M  V30 26 H 5.014771 2.090431 -11.830334 0
M  V30 27 H 4.484470 2.327045 -13.447945 0
M  V30 28 H 6.569212 0.200789 -12.639176 0
M  V30 29 H 4.894961 -0.050853 -12.645131 0
M  V30 30 H 3.286232 -2.075137 -16.650621 0
M  V30 31 H 8.145039 1.030720 -13.805384 0
M  V30 32 H 9.225108 -0.564561 -15.632831 0
M  V30 33 H 11.252472 -0.627253 -17.048466 0
M  V30 34 H 12.457310 1.467176 -17.613745 0
M  V30 35 H 11.589227 3.651835 -16.806635 0
M  V30 36 H 9.534538 3.767347 -15.504939 0
M  V30 37 H 6.707588 3.372578 -15.046808 0
M  V30 38 H 8.111593 3.652164 -14.015975 0
M  V30 39 H 7.089865 2.767141 -12.282391 0
M  V30 END ATOM
M  V30 BEGIN BOND
M  V30 1 1 2 1
M  V30 2 1 3 2
M  V30 3 1 4 3
M  V30 4 1 5 4
M  V30 5 2 6 5
M  V30 6 1 7 6
M  V30 7 1 8 6
M  V30 8 1 9 8
M  V30 9 2 10 8
M  V30 10 1 11 10
M  V30 11 1 12 10
M  V30 12 1 13 12
M  V30 13 1 14 5
M  V30 14 2 14 12
M  V30 15 1 15 14
M  V30 16 1 16 15
M  V30 17 2 17 16
M  V30 18 1 18 17
M  V30 19 2 19 18
M  V30 20 1 20 19
M  V30 21 1 21 16
M  V30 22 2 21 20
M  V30 23 1 22 2
M  V30 24 1 22 15
M  V30 25 1 23 1
M  V30 26 1 24 1
M  V30 27 1 25 1
M  V30 28 1 26 3
M  V30 29 1 27 3
M  V30 30 1 28 4
M  V30 31 1 29 4
M  V30 32 1 30 9
M  V30 33 1 15 31 CFG=1
M  V30 34 1 32 17
M  V30 35 1 33 18
M  V30 36 1 34 19
M  V30 37 1 35 20
M  V30 38 1 36 21
M  V30 39 1 37 22
M  V30 40 1 38 22
M  V30 41 1 2 39 CFG=1
M  V30 END BOND
M  V30 END CTAB
M  END
>  <b_m_subgroup_collapsed>  (2482) 
0

>  <r_i_docking_score>  (2482) 
-5.5453097496649297

>  <s_m_subgroup_title>  (2482) 
glide-dock_SP_D22_pv

>  <s_m_subgroupid>  (2482) 
glide-dock_SP_D22_pv

>  <Molecule ChEMBL ID>  (2482) 
CHEMBL544118

>  <Standard Type>  (2482) 
Ki

>  <Standard Value>  (2482) 
810000.0

>  <label>  (2482) 
0

$$$$
CHEMBL490533
     RDKit          3D

  0  0  0  0  0  0  0  0  0  0999 V3000
M  V30 BEGIN CTAB
M  V30 COUNTS 47 51 0 0 1
M  V30 BEGIN ATOM
M  V30 1 C 12.865421 8.310976 -19.537842 0
M  V30 2 O 13.090696 6.912171 -19.419519 0
M  V30 3 C 12.899074 6.335630 -18.181955 0
M  V30 4 C 12.893540 7.073668 -16.970358 0
M  V30 5 C 12.651618 6.432077 -15.740176 0
M  V30 6 C 12.395776 5.047821 -15.715974 0
M  V30 7 C 12.407772 4.303338 -16.910942 0
M  V30 8 C 12.681608 4.936819 -18.141912 0
M  V30 9 O 12.678036 4.185465 -19.290606 0
M  V30 10 C 13.959571 4.001583 -19.868885 0
M  V30 11 C 12.054574 2.826172 -16.819996 0
M  V30 12 N 10.860974 2.713088 -15.953133 0 CFG=1 CHG=1
M  V30 13 C 10.080867 1.451143 -16.073397 0
M  V30 14 C 8.977267 1.324774 -14.988649 0
M  V30 15 C 8.577667 2.664000 -14.383666 0
M  V30 16 C 7.231027 2.942882 -14.053450 0
M  V30 17 C 6.959359 4.170698 -13.432904 0
M  V30 18 C 7.956053 5.089732 -13.177860 0
M  V30 19 C 9.293842 4.858063 -13.527485 0
M  V30 20 C 9.607359 3.613920 -14.128699 0
M  V30 21 C 11.015724 3.215028 -14.558440 0 CFG=2
M  V30 22 C 12.137053 4.290911 -14.426615 0
M  V30 23 O 7.426080 6.179889 -12.575584 0
M  V30 24 C 6.074501 5.879364 -12.362700 0
M  V30 25 O 5.773354 4.659091 -12.991215 0
M  V30 26 H 12.912974 8.597533 -20.590925 0
M  V30 27 H 13.618728 8.895633 -19.005932 0
M  V30 28 H 11.869630 8.572882 -19.169710 0
M  V30 29 H 13.075392 8.137524 -16.962233 0
M  V30 30 H 12.656986 7.006761 -14.824162 0
M  V30 31 H 13.891800 3.263895 -20.671917 0
M  V30 32 H 14.673945 3.626182 -19.133213 0
M  V30 33 H 14.352733 4.921960 -20.301910 0
M  V30 34 H 11.824014 2.422255 -17.807306 0
M  V30 35 H 12.884662 2.247401 -16.414963 0
M  V30 36 H 9.621364 1.450950 -17.063097 0
M  V30 37 H 10.742343 0.583337 -16.034761 0
M  V30 38 H 8.106928 0.811308 -15.400010 0
M  V30 39 H 9.340439 0.696568 -14.175682 0
M  V30 40 H 6.440944 2.231662 -14.238984 0
M  V30 41 H 10.028444 5.619705 -13.319221 0
M  V30 42 H 11.310758 2.384281 -13.912764 0
M  V30 43 H 13.075379 3.773444 -14.239299 0
M  V30 44 H 12.019301 4.950443 -13.565825 0
M  V30 45 H 5.894944 5.772986 -11.293008 0
M  V30 46 H 5.451025 6.681965 -12.753150 0
M  V30 47 H 10.244260 3.406761 -16.348658 0
M  V30 END ATOM
M  V30 BEGIN BOND
M  V30 1 1 2 1
M  V30 2 1 3 2
M  V30 3 1 4 3
M  V30 4 2 5 4
M  V30 5 1 6 5
M  V30 6 2 7 6
M  V30 7 2 8 3
M  V30 8 1 8 7
M  V30 9 1 9 8
M  V30 10 1 10 9
M  V30 11 1 11 7
M  V30 12 1 12 11
M  V30 13 1 13 12
M  V30 14 1 14 13
M  V30 15 1 15 14
M  V30 16 2 16 15
M  V30 17 1 17 16
M  V30 18 2 18 17
M  V30 19 1 19 18
M  V30 20 1 20 15
M  V30 21 2 20 19
M  V30 22 1 21 12
M  V30 23 1 21 20
M  V30 24 1 22 6
M  V30 25 1 22 21
M  V30 26 1 23 18
M  V30 27 1 24 23
M  V30 28 1 25 17
M  V30 29 1 25 24
M  V30 30 1 26 1
M  V30 31 1 27 1
M  V30 32 1 28 1
M  V30 33 1 29 4
M  V30 34 1 30 5
M  V30 35 1 31 10
M  V30 36 1 32 10
M  V30 37 1 33 10
M  V30 38 1 34 11
M  V30 39 1 35 11
M  V30 40 1 36 13
M  V30 41 1 37 13
M  V30 42 1 38 14
M  V30 43 1 39 14
M  V30 44 1 40 16
M  V30 45 1 41 19
M  V30 46 1 21 42 CFG=1
M  V30 47 1 43 22
M  V30 48 1 44 22
M  V30 49 1 45 24
M  V30 50 1 46 24
M  V30 51 1 12 47 CFG=3
M  V30 END BOND
M  V30 END CTAB
M  END
>  <b_m_subgroup_collapsed>  (2483) 
0

>  <r_i_docking_score>  (2483) 
-5.54349355765497

>  <s_m_subgroup_title>  (2483) 
glide-dock_SP_D22_pv

>  <s_m_subgroupid>  (2483) 
glide-dock_SP_D22_pv

>  <Molecule ChEMBL ID>  (2483) 
CHEMBL490533

>  <Standard Type>  (2483) 
Ki

>  <Standard Value>  (2483) 
80.2

>  <label>  (2483) 
1

$$$$
CHEMBL3764833
     RDKit          3D

  0  0  0  0  0  0  0  0  0  0999 V3000
M  V30 BEGIN CTAB
M  V30 COUNTS 53 56 0 0 1
M  V30 BEGIN ATOM
M  V30 1 C 4.609926 0.011399 -19.434143 0
M  V30 2 C 4.639073 -0.492153 -18.022058 0
M  V30 3 N 3.688709 -1.387297 -17.559284 0
M  V30 4 C 4.007617 -1.589287 -16.284901 0
M  V30 5 O 5.089219 -0.881276 -15.870937 0
M  V30 6 C 5.496668 -0.195386 -16.985796 0
M  V30 7 C 6.661123 0.687287 -16.895327 0
M  V30 8 N 7.009287 1.467667 -17.923483 0
M  V30 9 N 8.113294 2.171199 -17.519928 0
M  V30 10 C 8.367306 1.755179 -16.280222 0
M  V30 11 S 9.762275 2.341600 -15.370998 0
M  V30 12 C 8.944107 3.032134 -13.903051 0
M  V30 13 C 9.161797 4.546531 -13.767426 0
M  V30 14 C 9.019162 4.999313 -12.304210 0
M  V30 15 N 9.298565 6.413247 -12.076025 0
M  V30 16 C 8.156649 7.259670 -12.408913 0
M  V30 17 C 8.426966 8.756683 -12.128107 0
M  V30 18 O 8.887343 8.969314 -10.796803 0
M  V30 19 C 9.995771 8.144322 -10.442587 0 CFG=1
M  V30 20 C 10.402133 8.369918 -9.001568 0
M  V30 21 C 11.714667 8.768400 -8.684173 0
M  V30 22 C 12.085967 8.972176 -7.341218 0
M  V30 23 C 11.157507 8.753737 -6.307874 0
M  V30 24 Br 11.684815 9.030128 -4.498011 0
M  V30 25 C 9.851068 8.334208 -6.624583 0
M  V30 26 C 9.473190 8.150132 -7.965290 0
M  V30 27 C 9.639161 6.665644 -10.685453 0
M  V30 28 N 7.492632 0.826089 -15.832356 0
M  V30 29 C 7.462132 0.143568 -14.544470 0
M  V30 30 H 4.536624 1.099407 -19.463673 0
M  V30 31 H 5.514663 -0.275051 -19.971792 0
M  V30 32 H 3.756061 -0.388975 -19.984442 0
M  V30 33 H 3.458278 -2.227399 -15.609793 0
M  V30 34 H 7.877831 2.805179 -13.890073 0
M  V30 35 H 9.384916 2.524117 -13.046779 0
M  V30 36 H 10.168015 4.797205 -14.103925 0
M  V30 37 H 8.473165 5.082074 -14.420559 0
M  V30 38 H 8.026926 4.746029 -11.925605 0
M  V30 39 H 9.718518 4.400304 -11.716924 0
M  V30 40 H 7.877126 7.125430 -13.447549 0
M  V30 41 H 7.284282 6.934603 -11.846956 0
M  V30 42 H 9.156660 9.157344 -12.831444 0
M  V30 43 H 7.510307 9.332577 -12.247820 0
M  V30 44 H 10.836757 8.414715 -11.084221 0
M  V30 45 H 12.439962 8.946487 -9.465629 0
M  V30 46 H 13.086358 9.302447 -7.102421 0
M  V30 47 H 9.127577 8.151682 -5.847600 0
M  V30 48 H 8.469599 7.828896 -8.202165 0
M  V30 49 H 8.806417 6.371222 -10.044477 0
M  V30 50 H 10.485949 6.043983 -10.395420 0
M  V30 51 H 8.409141 0.253904 -14.018214 0
M  V30 52 H 6.663229 0.555435 -13.928648 0
M  V30 53 H 7.283087 -0.921626 -14.680917 0
M  V30 END ATOM
M  V30 BEGIN BOND
M  V30 1 1 2 1
M  V30 2 1 3 2
M  V30 3 2 4 3
M  V30 4 1 5 4
M  V30 5 2 6 2
M  V30 6 1 6 5
M  V30 7 1 7 6
M  V30 8 2 8 7
M  V30 9 1 9 8
M  V30 10 2 10 9
M  V30 11 1 11 10
M  V30 12 1 12 11
M  V30 13 1 13 12
M  V30 14 1 14 13
M  V30 15 1 15 14
M  V30 16 1 16 15
M  V30 17 1 17 16
M  V30 18 1 18 17
M  V30 19 1 19 18
M  V30 20 1 20 19
M  V30 21 1 21 20
M  V30 22 2 22 21
M  V30 23 1 23 22
M  V30 24 1 24 23
M  V30 25 2 25 23
M  V30 26 2 26 20
M  V30 27 1 26 25
M  V30 28 1 27 15
M  V30 29 1 27 19
M  V30 30 1 28 7
M  V30 31 1 28 10
M  V30 32 1 29 28
M  V30 33 1 30 1
M  V30 34 1 31 1
M  V30 35 1 32 1
M  V30 36 1 33 4
M  V30 37 1 34 12
M  V30 38 1 35 12
M  V30 39 1 36 13
M  V30 40 1 37 13
M  V30 41 1 38 14
M  V30 42 1 39 14
M  V30 43 1 40 16
M  V30 44 1 41 16
M  V30 45 1 42 17
M  V30 46 1 43 17
M  V30 47 1 19 44 CFG=3
M  V30 48 1 45 21
M  V30 49 1 46 22
M  V30 50 1 47 25
M  V30 51 1 48 26
M  V30 52 1 49 27
M  V30 53 1 50 27
M  V30 54 1 51 29
M  V30 55 1 52 29
M  V30 56 1 53 29
M  V30 END BOND
M  V30 END CTAB
M  END
>  <b_m_subgroup_collapsed>  (2484) 
0

>  <r_i_docking_score>  (2484) 
-5.54158283108411

>  <s_m_subgroup_title>  (2484) 
glide-dock_SP_D22_pv

>  <s_m_subgroupid>  (2484) 
glide-dock_SP_D22_pv

>  <Molecule ChEMBL ID>  (2484) 
CHEMBL3764833

>  <Standard Type>  (2484) 
Ki

>  <Standard Value>  (2484) 
15136.0

>  <label>  (2484) 
0

$$$$
CHEMBL1188090
     RDKit          3D

  0  0  0  0  0  0  0  0  0  0999 V3000
M  V30 BEGIN CTAB
M  V30 COUNTS 47 48 0 0 1
M  V30 BEGIN ATOM
M  V30 1 C 8.487764 4.211449 -8.514277 0
M  V30 2 C 9.535027 5.309798 -8.457028 0
M  V30 3 C 8.923199 6.663232 -8.865355 0
M  V30 4 N 9.931145 7.742322 -9.100423 0 CFG=1 CHG=1
M  V30 5 C 10.815938 7.983101 -7.922062 0
M  V30 6 C 10.062716 8.375338 -6.634571 0
M  V30 7 C 10.943236 8.314762 -5.403550 0
M  V30 8 C 11.286340 7.057000 -4.859119 0
M  V30 9 C 12.012186 6.972449 -3.655592 0
M  V30 10 C 12.405137 8.149363 -2.992370 0
M  V30 11 C 12.084404 9.403284 -3.542100 0
M  V30 12 C 11.357459 9.492165 -4.746488 0
M  V30 13 C 10.745436 7.505755 -10.324841 0
M  V30 14 C 9.950541 7.487942 -11.648339 0
M  V30 15 C 10.592043 6.542629 -12.646813 0
M  V30 16 C 11.689064 6.956189 -13.431067 0
M  V30 17 C 12.264440 6.075549 -14.366263 0
M  V30 18 C 11.762295 4.768409 -14.507593 0
M  V30 19 C 10.676907 4.341524 -13.718588 0
M  V30 20 O 10.224645 3.060274 -13.847185 0
M  V30 21 C 10.085650 5.230510 -12.796279 0
M  V30 22 H 8.890877 3.235776 -8.246251 0
M  V30 23 H 7.686048 4.450935 -7.825381 0
M  V30 24 H 8.068480 4.155873 -9.516757 0
M  V30 25 H 10.351438 5.014308 -9.109087 0
M  V30 26 H 9.941751 5.372375 -7.448233 0
M  V30 27 H 8.216073 6.977995 -8.104241 0
M  V30 28 H 8.290071 6.517144 -9.734650 0
M  V30 29 H 11.424617 7.096504 -7.742845 0
M  V30 30 H 11.525243 8.778568 -8.154419 0
M  V30 31 H 9.639916 9.372024 -6.745860 0
M  V30 32 H 9.225861 7.714719 -6.418981 0
M  V30 33 H 10.959489 6.148667 -5.342140 0
M  V30 34 H 12.249964 6.005947 -3.233477 0
M  V30 35 H 12.941055 8.093124 -2.055890 0
M  V30 36 H 12.385919 10.300802 -3.024913 0
M  V30 37 H 11.095990 10.465636 -5.142577 0
M  V30 38 H 11.292329 6.572236 -10.207814 0
M  V30 39 H 11.516268 8.274284 -10.408936 0
M  V30 40 H 9.906610 8.495274 -12.065505 0
M  V30 41 H 8.911162 7.191226 -11.542539 0
M  V30 42 H 12.103801 7.945726 -13.330733 0
M  V30 43 H 13.106501 6.396632 -14.960874 0
M  V30 44 H 12.217158 4.092354 -15.215356 0
M  V30 45 H 9.676592 2.763171 -13.136019 0
M  V30 46 H 9.248356 4.902727 -12.196648 0
M  V30 47 H 9.401284 8.587617 -9.257870 0
M  V30 END ATOM
M  V30 BEGIN BOND
M  V30 1 1 2 1
M  V30 2 1 3 2
M  V30 3 1 4 3
M  V30 4 1 5 4
M  V30 5 1 6 5
M  V30 6 1 7 6
M  V30 7 2 8 7
M  V30 8 1 9 8
M  V30 9 2 10 9
M  V30 10 1 11 10
M  V30 11 1 12 7
M  V30 12 2 12 11
M  V30 13 1 13 4
M  V30 14 1 14 13
M  V30 15 1 15 14
M  V30 16 2 16 15
M  V30 17 1 17 16
M  V30 18 2 18 17
M  V30 19 1 19 18
M  V30 20 1 20 19
M  V30 21 1 21 15
M  V30 22 2 21 19
M  V30 23 1 22 1
M  V30 24 1 23 1
M  V30 25 1 24 1
M  V30 26 1 25 2
M  V30 27 1 26 2
M  V30 28 1 27 3
M  V30 29 1 28 3
M  V30 30 1 29 5
M  V30 31 1 30 5
M  V30 32 1 31 6
M  V30 33 1 32 6
M  V30 34 1 33 8
M  V30 35 1 34 9
M  V30 36 1 35 10
M  V30 37 1 36 11
M  V30 38 1 37 12
M  V30 39 1 38 13
M  V30 40 1 39 13
M  V30 41 1 40 14
M  V30 42 1 41 14
M  V30 43 1 42 16
M  V30 44 1 43 17
M  V30 45 1 44 18
M  V30 46 1 45 20
M  V30 47 1 46 21
M  V30 48 1 4 47 CFG=3
M  V30 END BOND
M  V30 END CTAB
M  END
>  <b_m_subgroup_collapsed>  (2485) 
0

>  <r_i_docking_score>  (2485) 
-5.5303708952530704

>  <s_m_subgroup_title>  (2485) 
glide-dock_SP_D22_pv

>  <s_m_subgroupid>  (2485) 
glide-dock_SP_D22_pv

>  <Molecule ChEMBL ID>  (2485) 
CHEMBL1188090

>  <Standard Type>  (2485) 
Ki

>  <Standard Value>  (2485) 
64.4

>  <label>  (2485) 
1

$$$$
CHEMBL2207486
     RDKit          3D

  0  0  0  0  0  0  0  0  0  0999 V3000
M  V30 BEGIN CTAB
M  V30 COUNTS 44 46 0 0 1
M  V30 BEGIN ATOM
M  V30 1 C 11.315871 8.296468 -5.048007 0
M  V30 2 C 10.642377 6.973189 -5.441403 0
M  V30 3 C 9.528671 7.133563 -6.494065 0
M  V30 4 N 10.007290 7.704574 -7.776408 0 CFG=2 CHG=1
M  V30 5 C 8.885966 8.141767 -8.632142 0
M  V30 6 C 9.343399 8.773758 -9.962869 0
M  V30 7 C 10.392159 7.931636 -10.717332 0 CFG=2
M  V30 8 C 9.849670 6.763388 -11.506829 0
M  V30 9 C 8.681005 6.061313 -11.331518 0
M  V30 10 N 8.550604 5.078524 -12.298022 0
M  V30 11 C 7.405953 4.196408 -12.405056 0
M  V30 12 C 9.660084 5.107874 -13.127024 0
M  V30 13 C 10.023887 4.330839 -14.244467 0
M  V30 14 C 11.225071 4.606073 -14.922213 0
M  V30 15 C 12.051419 5.656500 -14.484186 0
M  V30 16 F 13.199689 5.929362 -15.146240 0
M  V30 17 C 11.686069 6.426585 -13.362324 0
M  V30 18 C 10.485603 6.171700 -12.652487 0
M  V30 19 C 11.498639 7.529476 -9.735502 0
M  V30 20 C 10.902146 6.796316 -8.522889 0
M  V30 21 H 12.035338 8.136878 -4.243651 0
M  V30 22 H 11.857591 8.736290 -5.886239 0
M  V30 23 H 10.589231 9.029904 -4.698390 0
M  V30 24 H 10.200695 6.519612 -4.557351 0
M  V30 25 H 11.396468 6.253335 -5.756240 0
M  V30 26 H 8.758507 7.789664 -6.089788 0
M  V30 27 H 9.043227 6.173525 -6.678041 0
M  V30 28 H 8.269093 8.859761 -8.089288 0
M  V30 29 H 8.266379 7.266724 -8.811589 0
M  V30 30 H 9.787784 9.740846 -9.728488 0
M  V30 31 H 8.486151 8.987128 -10.603686 0
M  V30 32 H 10.858722 8.584812 -11.446754 0
M  V30 33 H 7.886046 6.172568 -10.608550 0
M  V30 34 H 7.147871 3.802137 -11.421717 0
M  V30 35 H 6.554236 4.753181 -12.794669 0
M  V30 36 H 7.620735 3.366671 -13.076008 0
M  V30 37 H 9.385969 3.529406 -14.585135 0
M  V30 38 H 11.511880 4.018013 -15.781892 0
M  V30 39 H 12.338720 7.224557 -13.042275 0
M  V30 40 H 12.259187 6.945841 -10.246864 0
M  V30 41 H 12.015927 8.425578 -9.387438 0
M  V30 42 H 11.687537 6.472754 -7.854761 0
M  V30 43 H 10.367651 5.895594 -8.830563 0
M  V30 44 H 10.539001 8.531409 -7.546910 0
M  V30 END ATOM
M  V30 BEGIN BOND
M  V30 1 1 2 1
M  V30 2 1 3 2
M  V30 3 1 4 3
M  V30 4 1 5 4
M  V30 5 1 6 5
M  V30 6 1 7 6
M  V30 7 1 8 7
M  V30 8 2 9 8
M  V30 9 1 10 9
M  V30 10 1 11 10
M  V30 11 1 12 10
M  V30 12 1 13 12
M  V30 13 2 14 13
M  V30 14 1 15 14
M  V30 15 1 16 15
M  V30 16 2 17 15
M  V30 17 1 18 8
M  V30 18 2 18 12
M  V30 19 1 18 17
M  V30 20 1 19 7
M  V30 21 1 20 4
M  V30 22 1 20 19
M  V30 23 1 21 1
M  V30 24 1 22 1
M  V30 25 1 23 1
M  V30 26 1 24 2
M  V30 27 1 25 2
M  V30 28 1 26 3
M  V30 29 1 27 3
M  V30 30 1 28 5
M  V30 31 1 29 5
M  V30 32 1 30 6
M  V30 33 1 31 6
M  V30 34 1 7 32 CFG=3
M  V30 35 1 33 9
M  V30 36 1 34 11
M  V30 37 1 35 11
M  V30 38 1 36 11
M  V30 39 1 37 13
M  V30 40 1 38 14
M  V30 41 1 39 17
M  V30 42 1 40 19
M  V30 43 1 41 19
M  V30 44 1 42 20
M  V30 45 1 43 20
M  V30 46 1 4 44 CFG=1
M  V30 END BOND
M  V30 END CTAB
M  END
>  <b_m_subgroup_collapsed>  (2486) 
0

>  <r_i_docking_score>  (2486) 
-5.5290351245751204

>  <s_m_subgroup_title>  (2486) 
glide-dock_SP_D22_pv

>  <s_m_subgroupid>  (2486) 
glide-dock_SP_D22_pv

>  <Molecule ChEMBL ID>  (2486) 
CHEMBL2207486

>  <Standard Type>  (2486) 
Ki

>  <Standard Value>  (2486) 
19.0

>  <label>  (2486) 
1

$$$$
CHEMBL544761
     RDKit          3D

  0  0  0  0  0  0  0  0  0  0999 V3000
M  V30 BEGIN CTAB
M  V30 COUNTS 46 49 0 0 1
M  V30 BEGIN ATOM
M  V30 1 O 8.871498 3.191350 -19.861204 0
M  V30 2 C 9.492688 3.405695 -18.823530 0
M  V30 3 C 10.108719 4.636516 -18.392298 0
M  V30 4 C 10.589156 4.421320 -17.160753 0
M  V30 5 C 11.352986 5.369152 -16.333485 0
M  V30 6 C 12.032062 6.464257 -16.915670 0
M  V30 7 C 12.736408 7.371908 -16.098707 0
M  V30 8 C 12.753698 7.195048 -14.701760 0
M  V30 9 C 12.085209 6.100544 -14.120105 0
M  V30 10 C 11.387534 5.186932 -14.934066 0
M  V30 11 O 10.389356 3.137995 -16.713877 0
M  V30 12 C 9.731441 2.375315 -17.730793 0 CFG=2
M  V30 13 C 10.654435 1.234726 -18.193142 0
M  V30 14 C 10.885817 0.232673 -17.049536 0
M  V30 15 C 9.566917 -0.226714 -16.394384 0
M  V30 16 N 8.734262 0.935474 -15.989092 0 CFG=2 CHG=1
M  V30 17 C 7.538956 0.563220 -15.189506 0
M  V30 18 C 6.976903 1.684806 -14.313870 0
M  V30 19 C 7.563845 2.972781 -14.245824 0
M  V30 20 C 7.010081 3.968488 -13.418834 0
M  V30 21 C 5.882970 3.684509 -12.627282 0
M  V30 22 C 5.305767 2.402088 -12.668796 0
M  V30 23 C 5.844506 1.409967 -13.513115 0
M  V30 24 C 8.421796 1.795447 -17.161123 0
M  V30 25 H 10.153415 5.537511 -18.986753 0
M  V30 26 H 12.023236 6.619218 -17.985744 0
M  V30 27 H 13.252706 8.210794 -16.543127 0
M  V30 28 H 13.287556 7.894530 -14.074681 0
M  V30 29 H 12.111436 5.964940 -13.049400 0
M  V30 30 H 10.870148 4.356389 -14.475332 0
M  V30 31 H 10.203963 0.718025 -19.039545 0
M  V30 32 H 11.610273 1.629540 -18.541901 0
M  V30 33 H 11.434906 -0.626261 -17.436413 0
M  V30 34 H 11.526349 0.686399 -16.290651 0
M  V30 35 H 9.001361 -0.858814 -17.081743 0
M  V30 36 H 9.796481 -0.839692 -15.522847 0
M  V30 37 H 6.755999 0.181661 -15.849099 0
M  V30 38 H 7.796765 -0.255925 -14.514568 0
M  V30 39 H 8.445587 3.230526 -14.811460 0
M  V30 40 H 7.464333 4.948675 -13.372869 0
M  V30 41 H 5.479060 4.441164 -11.968473 0
M  V30 42 H 4.475262 2.171035 -12.028765 0
M  V30 43 H 5.392298 0.429590 -13.533686 0
M  V30 44 H 7.735037 2.594147 -16.889580 0
M  V30 45 H 7.905066 1.201775 -17.918072 0
M  V30 46 H 9.314449 1.483869 -15.371268 0
M  V30 END ATOM
M  V30 BEGIN BOND
M  V30 1 2 2 1
M  V30 2 1 3 2
M  V30 3 2 4 3
M  V30 4 1 5 4
M  V30 5 2 6 5
M  V30 6 1 7 6
M  V30 7 2 8 7
M  V30 8 1 9 8
M  V30 9 1 10 5
M  V30 10 2 10 9
M  V30 11 1 11 4
M  V30 12 1 12 2
M  V30 13 1 12 11 CFG=1
M  V30 14 1 13 12
M  V30 15 1 14 13
M  V30 16 1 15 14
M  V30 17 1 16 15
M  V30 18 1 17 16
M  V30 19 1 18 17
M  V30 20 2 19 18
M  V30 21 1 20 19
M  V30 22 2 21 20
M  V30 23 1 22 21
M  V30 24 1 23 18
M  V30 25 2 23 22
M  V30 26 1 24 12
M  V30 27 1 24 16
M  V30 28 1 25 3
M  V30 29 1 26 6
M  V30 30 1 27 7
M  V30 31 1 28 8
M  V30 32 1 29 9
M  V30 33 1 30 10
M  V30 34 1 31 13
M  V30 35 1 32 13
M  V30 36 1 33 14
M  V30 37 1 34 14
M  V30 38 1 35 15
M  V30 39 1 36 15
M  V30 40 1 37 17
M  V30 41 1 38 17
M  V30 42 1 39 19
M  V30 43 1 40 20
M  V30 44 1 41 21
M  V30 45 1 42 22
M  V30 46 1 43 23
M  V30 47 1 44 24
M  V30 48 1 45 24
M  V30 49 1 16 46 CFG=1
M  V30 END BOND
M  V30 END CTAB
M  END
>  <b_m_subgroup_collapsed>  (2487) 
0

>  <r_i_docking_score>  (2487) 
-5.5256386809449998

>  <s_m_subgroup_title>  (2487) 
glide-dock_SP_D22_pv

>  <s_m_subgroupid>  (2487) 
glide-dock_SP_D22_pv

>  <Molecule ChEMBL ID>  (2487) 
CHEMBL544761

>  <Standard Type>  (2487) 
Ki

>  <Standard Value>  (2487) 
10000.0

>  <label>  (2487) 
0

$$$$
CHEMBL3976659
     RDKit          3D

  0  0  0  0  0  0  0  0  0  0999 V3000
M  V30 BEGIN CTAB
M  V30 COUNTS 52 55 0 0 1
M  V30 BEGIN ATOM
M  V30 1 C 13.161132 -0.783510 -19.595951 0
M  V30 2 C 11.708929 -0.321529 -19.407103 0
M  V30 3 C 11.618834 1.076397 -18.775066 0
M  V30 4 O 10.290511 1.593130 -18.825050 0
M  V30 5 C 9.544141 1.404591 -17.687317 0
M  V30 6 C 8.622642 0.340267 -17.631672 0
M  V30 7 O 8.481027 -0.513833 -18.687506 0
M  V30 8 C 7.832090 0.161067 -16.485903 0
M  V30 9 C 7.967817 1.007280 -15.374134 0
M  V30 10 Br 6.886098 0.616975 -13.851280 0
M  V30 11 C 8.875444 2.097814 -15.423312 0
M  V30 12 C 9.639935 2.309134 -16.600512 0
M  V30 13 C 10.509560 3.549409 -16.752718 0
M  V30 14 N 10.843863 4.223759 -15.478065 0 CFG=1 CHG=1
M  V30 15 C 11.570015 5.490170 -15.731645 0
M  V30 16 C 12.169237 6.025054 -14.436172 0
M  V30 17 C 11.136313 6.103868 -13.333044 0
M  V30 18 C 11.371359 6.972366 -12.247261 0
M  V30 19 C 10.479609 7.018699 -11.150211 0
M  V30 20 O 10.672355 7.807015 -10.033649 0
M  V30 21 C 11.890946 8.526603 -9.910883 0
M  V30 22 C 9.337098 6.192446 -11.180545 0
M  V30 23 O 8.486022 6.172323 -10.117138 0
M  V30 24 C 9.073837 5.358809 -12.284737 0
M  V30 25 C 9.970524 5.294882 -13.374886 0
M  V30 26 C 9.658140 4.408651 -14.596609 0 CFG=2
M  V30 27 C 9.062450 3.026322 -14.225852 0
M  V30 28 H 13.217987 -1.776573 -20.041670 0
M  V30 29 H 13.687543 -0.825594 -18.645197 0
M  V30 30 H 13.708082 -0.101925 -20.248003 0
M  V30 31 H 11.208752 -0.312951 -20.376083 0
M  V30 32 H 11.173235 -1.042212 -18.788891 0
M  V30 33 H 12.010081 1.051628 -17.755850 0
M  V30 34 H 12.253001 1.767628 -19.331003 0
M  V30 35 H 7.819739 -1.175438 -18.549641 0
M  V30 36 H 7.127528 -0.656298 -16.437933 0
M  V30 37 H 11.442337 3.296144 -17.254860 0
M  V30 38 H 9.978374 4.244033 -17.405817 0
M  V30 39 H 12.370183 5.335895 -16.457146 0
M  V30 40 H 10.886448 6.223190 -16.164125 0
M  V30 41 H 12.976762 5.373241 -14.100952 0
M  V30 42 H 12.608367 7.009068 -14.607892 0
M  V30 43 H 12.267076 7.574540 -12.258899 0
M  V30 44 H 11.925693 9.005542 -8.932557 0
M  V30 45 H 11.968483 9.312708 -10.661692 0
M  V30 46 H 12.758208 7.868746 -9.981722 0
M  V30 47 H 7.780909 6.822843 -10.171400 0
M  V30 48 H 8.171696 4.766546 -12.269704 0
M  V30 49 H 8.911111 4.955558 -15.174804 0
M  V30 50 H 8.095634 3.160589 -13.743318 0
M  V30 51 H 9.705973 2.519537 -13.505117 0
M  V30 52 H 11.476389 3.613078 -14.981301 0
M  V30 END ATOM
M  V30 BEGIN BOND
M  V30 1 1 2 1
M  V30 2 1 3 2
M  V30 3 1 4 3
M  V30 4 1 5 4
M  V30 5 1 6 5
M  V30 6 1 7 6
M  V30 7 2 8 6
M  V30 8 1 9 8
M  V30 9 1 10 9
M  V30 10 2 11 9
M  V30 11 2 12 5
M  V30 12 1 12 11
M  V30 13 1 13 12
M  V30 14 1 14 13
M  V30 15 1 15 14
M  V30 16 1 16 15
M  V30 17 1 17 16
M  V30 18 2 18 17
M  V30 19 1 19 18
M  V30 20 1 20 19
M  V30 21 1 21 20
M  V30 22 2 22 19
M  V30 23 1 23 22
M  V30 24 1 24 22
M  V30 25 1 25 17
M  V30 26 2 25 24
M  V30 27 1 26 14
M  V30 28 1 26 25
M  V30 29 1 27 11
M  V30 30 1 27 26
M  V30 31 1 28 1
M  V30 32 1 29 1
M  V30 33 1 30 1
M  V30 34 1 31 2
M  V30 35 1 32 2
M  V30 36 1 33 3
M  V30 37 1 34 3
M  V30 38 1 35 7
M  V30 39 1 36 8
M  V30 40 1 37 13
M  V30 41 1 38 13
M  V30 42 1 39 15
M  V30 43 1 40 15
M  V30 44 1 41 16
M  V30 45 1 42 16
M  V30 46 1 43 18
M  V30 47 1 44 21
M  V30 48 1 45 21
M  V30 49 1 46 21
M  V30 50 1 47 23
M  V30 51 1 48 24
M  V30 52 1 26 49 CFG=3
M  V30 53 1 50 27
M  V30 54 1 51 27
M  V30 55 1 14 52 CFG=1
M  V30 END BOND
M  V30 END CTAB
M  END
>  <b_m_subgroup_collapsed>  (2488) 
0

>  <r_i_docking_score>  (2488) 
-5.5172992320715304

>  <s_m_subgroup_title>  (2488) 
glide-dock_SP_D22_pv

>  <s_m_subgroupid>  (2488) 
glide-dock_SP_D22_pv

>  <Molecule ChEMBL ID>  (2488) 
CHEMBL3976659

>  <Standard Type>  (2488) 
Ki

>  <Standard Value>  (2488) 
70.0

>  <label>  (2488) 
1

$$$$
CHEMBL562384
     RDKit          3D

  0  0  0  0  0  0  0  0  0  0999 V3000
M  V30 BEGIN CTAB
M  V30 COUNTS 49 52 0 0 1
M  V30 BEGIN ATOM
M  V30 1 C 3.686454 -1.469622 -16.681763 0
M  V30 2 C 4.905278 -0.601816 -16.461164 0
M  V30 3 C 5.440993 0.130630 -17.491186 0
M  V30 4 C 6.565983 0.942154 -17.207146 0
M  V30 5 N 7.279333 1.749637 -17.986902 0
M  V30 6 C 8.273576 2.265886 -17.179951 0
M  V30 7 C 9.291100 3.207470 -17.750443 0
M  V30 8 C 8.170521 1.813524 -15.889319 0
M  V30 9 C 9.120605 2.144075 -14.768575 0
M  V30 10 N 9.238712 3.577734 -14.483078 0
M  V30 11 C 10.574572 3.830721 -13.933618 0
M  V30 12 C 10.762799 5.319743 -13.603379 0
M  V30 13 N 9.756644 5.715971 -12.629369 0
M  V30 14 C 10.067456 6.579141 -11.559530 0
M  V30 15 C 9.285531 6.575952 -10.383894 0
M  V30 16 C 9.638088 7.425487 -9.318959 0
M  V30 17 C 10.775320 8.240843 -9.446911 0
M  V30 18 C 11.501840 8.171701 -10.647523 0
M  V30 19 N 11.161886 7.372115 -11.680732 0
M  V30 20 C 8.384631 5.463228 -13.060523 0
M  V30 21 C 8.226299 3.987024 -13.494526 0
M  V30 22 N 7.069799 0.941226 -15.873601 0
M  V30 23 C 6.437704 0.153640 -14.933787 0
M  V30 24 C 6.901314 0.111002 -13.496260 0
M  V30 25 N 5.394524 -0.582919 -15.185497 0
M  V30 26 H 2.786920 -0.861731 -16.651731 0
M  V30 27 H 3.732870 -1.980104 -17.645069 0
M  V30 28 H 3.607679 -2.227065 -15.902198 0
M  V30 29 H 5.025771 0.103342 -18.492815 0
M  V30 30 H 10.298832 2.935136 -17.436598 0
M  V30 31 H 9.274984 3.205199 -18.842136 0
M  V30 32 H 9.107712 4.228938 -17.418695 0
M  V30 33 H 10.094876 1.770144 -15.082189 0
M  V30 34 H 8.905181 1.613950 -13.848068 0
M  V30 35 H 11.331550 3.531280 -14.662620 0
M  V30 36 H 10.730288 3.217292 -13.047703 0
M  V30 37 H 10.651738 5.921342 -14.506435 0
M  V30 38 H 11.772046 5.482384 -13.223023 0
M  V30 39 H 8.413930 5.942559 -10.279361 0
M  V30 40 H 9.039372 7.448103 -8.418912 0
M  V30 41 H 11.078379 8.903596 -8.651841 0
M  V30 42 H 12.381155 8.786637 -10.789303 0
M  V30 43 H 7.662538 5.693281 -12.279221 0
M  V30 44 H 8.149397 6.123647 -13.894970 0
M  V30 45 H 7.225669 3.815439 -13.896893 0
M  V30 46 H 8.320523 3.372393 -12.600467 0
M  V30 47 H 6.349945 -0.630226 -12.917892 0
M  V30 48 H 7.952905 -0.155274 -13.435653 0
M  V30 49 H 6.717947 1.082684 -13.047164 0
M  V30 END ATOM
M  V30 BEGIN BOND
M  V30 1 1 2 1
M  V30 2 2 3 2
M  V30 3 1 4 3
M  V30 4 2 5 4
M  V30 5 1 6 5
M  V30 6 1 7 6
M  V30 7 2 8 6
M  V30 8 1 9 8
M  V30 9 1 10 9
M  V30 10 1 11 10
M  V30 11 1 12 11
M  V30 12 1 13 12
M  V30 13 1 14 13
M  V30 14 2 15 14
M  V30 15 1 16 15
M  V30 16 2 17 16
M  V30 17 1 18 17
M  V30 18 1 19 14
M  V30 19 2 19 18
M  V30 20 1 20 13
M  V30 21 1 21 10
M  V30 22 1 21 20
M  V30 23 1 22 4
M  V30 24 1 22 8
M  V30 25 1 23 22
M  V30 26 1 24 23
M  V30 27 1 25 2
M  V30 28 2 25 23
M  V30 29 1 26 1
M  V30 30 1 27 1
M  V30 31 1 28 1
M  V30 32 1 29 3
M  V30 33 1 30 7
M  V30 34 1 31 7
M  V30 35 1 32 7
M  V30 36 1 33 9
M  V30 37 1 34 9
M  V30 38 1 35 11
M  V30 39 1 36 11
M  V30 40 1 37 12
M  V30 41 1 38 12
M  V30 42 1 39 15
M  V30 43 1 40 16
M  V30 44 1 41 17
M  V30 45 1 42 18
M  V30 46 1 43 20
M  V30 47 1 44 20
M  V30 48 1 45 21
M  V30 49 1 46 21
M  V30 50 1 47 24
M  V30 51 1 48 24
M  V30 52 1 49 24
M  V30 END BOND
M  V30 END CTAB
M  END
>  <b_m_subgroup_collapsed>  (2489) 
0

>  <r_i_docking_score>  (2489) 
-5.5152731924082001

>  <s_m_subgroup_title>  (2489) 
glide-dock_SP_D22_pv

>  <s_m_subgroupid>  (2489) 
glide-dock_SP_D22_pv

>  <Molecule ChEMBL ID>  (2489) 
CHEMBL562384

>  <Standard Type>  (2489) 
Ki

>  <Standard Value>  (2489) 
10000.0

>  <label>  (2489) 
0

$$$$
CHEMBL1223602
     RDKit          3D

  0  0  0  0  0  0  0  0  0  0999 V3000
M  V30 BEGIN CTAB
M  V30 COUNTS 56 59 0 0 1
M  V30 BEGIN ATOM
M  V30 1 C 12.847871 8.301350 -8.645154 0
M  V30 2 C 11.700974 8.873637 -7.789393 0
M  V30 3 C 10.565172 7.876389 -7.414770 0
M  V30 4 C 11.128633 6.885279 -6.364654 0
M  V30 5 C 9.422585 8.662501 -6.748236 0
M  V30 6 C 9.970472 7.157322 -8.640718 0
M  V30 7 C 9.842833 7.830719 -9.883267 0
M  V30 8 C 9.293513 7.181779 -11.005499 0
M  V30 9 C 8.843125 5.855337 -10.886271 0
M  V30 10 S 8.177246 4.998110 -12.300687 0
M  V30 11 O 8.070168 5.916805 -13.445625 0
M  V30 12 O 7.040292 4.172289 -11.873291 0
M  V30 13 N 9.446662 3.894786 -12.729029 0
M  V30 14 C 10.445660 4.131195 -13.674851 0
M  V30 15 C 10.854576 3.098298 -14.537451 0
M  V30 16 C 11.754273 3.371333 -15.586427 0
M  V30 17 C 12.265504 4.672580 -15.776637 0
M  V30 18 C 13.150908 4.997725 -16.943214 0 CFG=2
M  V30 19 C 14.484741 5.602211 -16.555779 0
M  V30 20 N 14.492436 6.951564 -17.161304 0 CHG=1
M  V30 21 C 13.570714 6.962166 -18.315428 0
M  V30 22 C 12.596200 5.839288 -18.059645 0 CFG=1
M  V30 23 C 12.927962 4.388251 -18.311180 0
M  V30 24 C 11.897736 5.687075 -14.870869 0
M  V30 25 C 11.005033 5.414683 -13.822307 0
M  V30 26 C 8.905787 5.185601 -9.652678 0
M  V30 27 C 9.469234 5.835407 -8.540029 0
M  V30 28 H 13.699867 8.972804 -8.648850 0
M  V30 29 H 13.227557 7.372325 -8.246400 0
M  V30 30 H 12.553364 8.128122 -9.679260 0
M  V30 31 H 11.285656 9.736048 -8.310708 0
M  V30 32 H 12.130237 9.285840 -6.875673 0
M  V30 33 H 11.636185 7.409863 -5.554837 0
M  V30 34 H 10.344136 6.295011 -5.891038 0
M  V30 35 H 11.845720 6.189645 -6.802686 0
M  V30 36 H 9.774899 9.221137 -5.879238 0
M  V30 37 H 8.978294 9.372162 -7.446997 0
M  V30 38 H 8.622811 7.997733 -6.415887 0
M  V30 39 H 10.163616 8.854787 -9.992627 0
M  V30 40 H 9.204703 7.707972 -11.944249 0
M  V30 41 H 9.240115 2.921607 -12.552295 0
M  V30 42 H 10.443841 2.105743 -14.430574 0
M  V30 43 H 12.032486 2.575261 -16.259331 0
M  V30 44 H 14.628900 5.653120 -15.474813 0
M  V30 45 H 15.287361 4.998278 -16.979425 0
M  V30 46 H 15.422846 7.234517 -17.428556 0
M  V30 47 H 14.112125 6.776905 -19.243504 0
M  V30 48 H 13.055957 7.920740 -18.396969 0
M  V30 49 H 11.543441 6.112161 -18.016121 0
M  V30 50 H 13.798147 4.181078 -18.930752 0
M  V30 51 H 12.091755 3.704548 -18.441343 0
M  V30 52 H 12.274924 6.692869 -14.988441 0
M  V30 53 H 10.720939 6.215720 -13.159944 0
M  V30 54 H 8.530823 4.177524 -9.560577 0
M  V30 55 H 9.490703 5.299233 -7.606857 0
M  V30 56 H 14.131822 7.599668 -16.476034 0
M  V30 END ATOM
M  V30 BEGIN BOND
M  V30 1 1 2 1
M  V30 2 1 3 2
M  V30 3 1 4 3
M  V30 4 1 5 3
M  V30 5 1 6 3
M  V30 6 1 7 6
M  V30 7 2 8 7
M  V30 8 1 9 8
M  V30 9 1 10 9
M  V30 10 2 11 10
M  V30 11 2 12 10
M  V30 12 1 13 10
M  V30 13 1 14 13
M  V30 14 1 15 14
M  V30 15 2 16 15
M  V30 16 1 17 16
M  V30 17 1 18 17 CFG=1
M  V30 18 1 19 18
M  V30 19 1 20 19
M  V30 20 1 21 20
M  V30 21 1 22 18
M  V30 22 1 22 21
M  V30 23 1 23 18
M  V30 24 1 23 22
M  V30 25 2 24 17
M  V30 26 2 25 14
M  V30 27 1 25 24
M  V30 28 2 26 9
M  V30 29 2 27 6
M  V30 30 1 27 26
M  V30 31 1 28 1
M  V30 32 1 29 1
M  V30 33 1 30 1
M  V30 34 1 31 2
M  V30 35 1 32 2
M  V30 36 1 33 4
M  V30 37 1 34 4
M  V30 38 1 35 4
M  V30 39 1 36 5
M  V30 40 1 37 5
M  V30 41 1 38 5
M  V30 42 1 39 7
M  V30 43 1 40 8
M  V30 44 1 41 13
M  V30 45 1 42 15
M  V30 46 1 43 16
M  V30 47 1 44 19
M  V30 48 1 45 19
M  V30 49 1 46 20
M  V30 50 1 47 21
M  V30 51 1 48 21
M  V30 52 1 22 49 CFG=1
M  V30 53 1 50 23
M  V30 54 1 51 23
M  V30 55 1 52 24
M  V30 56 1 53 25
M  V30 57 1 54 26
M  V30 58 1 55 27
M  V30 59 1 56 20
M  V30 END BOND
M  V30 END CTAB
M  END
>  <b_m_subgroup_collapsed>  (2490) 
0

>  <r_i_docking_score>  (2490) 
-5.5134234165500899

>  <s_m_subgroup_title>  (2490) 
glide-dock_SP_D22_pv

>  <s_m_subgroupid>  (2490) 
glide-dock_SP_D22_pv

>  <Molecule ChEMBL ID>  (2490) 
CHEMBL1223602

>  <Standard Type>  (2490) 
Ki

>  <Standard Value>  (2490) 
50.12

>  <label>  (2490) 
1

$$$$
CHEMBL43819
     RDKit          3D

  0  0  0  0  0  0  0  0  0  0999 V3000
M  V30 BEGIN CTAB
M  V30 COUNTS 45 48 0 0 1
M  V30 BEGIN ATOM
M  V30 1 C 8.425328 2.843270 -14.312823 0
M  V30 2 N 8.395597 4.113791 -13.549684 0 CFG=1 CHG=1
M  V30 3 C 7.030139 4.631550 -13.333051 0
M  V30 4 C 7.142035 6.078697 -12.857243 0
M  V30 5 C 7.890489 6.152246 -11.533723 0
M  V30 6 C 9.220983 5.382181 -11.500915 0 CFG=2
M  V30 7 C 10.369458 6.283709 -11.847048 0
M  V30 8 C 10.965789 7.182368 -10.970282 0
M  V30 9 C 10.769747 7.561400 -9.551240 0
M  V30 10 C 9.558753 7.356940 -8.843579 0
M  V30 11 C 9.405265 7.757549 -7.501945 0
M  V30 12 C 10.469599 8.372501 -6.823341 0
M  V30 13 C 11.685847 8.579780 -7.494082 0
M  V30 14 C 11.831360 8.176303 -8.835795 0
M  V30 15 N 12.014956 7.772399 -11.642588 0
M  V30 16 C 12.086419 7.367767 -12.950264 0
M  V30 17 C 12.886384 7.799217 -14.015826 0
M  V30 18 C 12.848458 7.123111 -15.244000 0
M  V30 19 C 12.007629 6.008223 -15.381073 0
M  V30 20 C 11.172731 5.615780 -14.316053 0
M  V30 21 C 11.139862 6.320096 -13.079479 0
M  V30 22 C 9.149723 4.047132 -12.272760 0
M  V30 23 H 7.820010 2.067391 -13.846222 0
M  V30 24 H 8.041818 2.989206 -15.322203 0
M  V30 25 H 9.445554 2.468322 -14.404549 0
M  V30 26 H 6.502393 4.022848 -12.595573 0
M  V30 27 H 6.445734 4.572462 -14.247519 0
M  V30 28 H 6.152825 6.525084 -12.744839 0
M  V30 29 H 7.686160 6.685206 -13.579211 0
M  V30 30 H 7.238678 5.772210 -10.746798 0
M  V30 31 H 8.086072 7.202545 -11.322422 0
M  V30 32 H 9.383937 5.083498 -10.464571 0
M  V30 33 H 8.698314 6.904229 -9.297200 0
M  V30 34 H 8.460254 7.596893 -7.000713 0
M  V30 35 H 10.352247 8.683546 -5.796030 0
M  V30 36 H 12.511449 9.052350 -6.982023 0
M  V30 37 H 12.787984 8.356131 -9.303250 0
M  V30 38 H 12.588099 8.490236 -11.221217 0
M  V30 39 H 13.558244 8.630677 -13.870186 0
M  V30 40 H 13.480927 7.437618 -16.061533 0
M  V30 41 H 11.995772 5.457848 -16.310667 0
M  V30 42 H 10.564962 4.752451 -14.492805 0
M  V30 43 H 10.139014 3.607897 -12.400708 0
M  V30 44 H 8.599085 3.372436 -11.647521 0
M  V30 45 H 8.863811 4.804464 -14.117994 0
M  V30 END ATOM
M  V30 BEGIN BOND
M  V30 1 1 2 1
M  V30 2 1 3 2
M  V30 3 1 4 3
M  V30 4 1 5 4
M  V30 5 1 6 5
M  V30 6 1 7 6
M  V30 7 2 8 7
M  V30 8 1 9 8
M  V30 9 2 10 9
M  V30 10 1 11 10
M  V30 11 2 12 11
M  V30 12 1 13 12
M  V30 13 1 14 9
M  V30 14 2 14 13
M  V30 15 1 15 8
M  V30 16 1 16 15
M  V30 17 2 17 16
M  V30 18 1 18 17
M  V30 19 2 19 18
M  V30 20 1 20 19
M  V30 21 1 21 7
M  V30 22 1 21 16
M  V30 23 2 21 20
M  V30 24 1 22 2
M  V30 25 1 22 6
M  V30 26 1 23 1
M  V30 27 1 24 1
M  V30 28 1 25 1
M  V30 29 1 26 3
M  V30 30 1 27 3
M  V30 31 1 28 4
M  V30 32 1 29 4
M  V30 33 1 30 5
M  V30 34 1 31 5
M  V30 35 1 6 32 CFG=1
M  V30 36 1 33 10
M  V30 37 1 34 11
M  V30 38 1 35 12
M  V30 39 1 36 13
M  V30 40 1 37 14
M  V30 41 1 38 15
M  V30 42 1 39 17
M  V30 43 1 40 18
M  V30 44 1 41 19
M  V30 45 1 42 20
M  V30 46 1 43 22
M  V30 47 1 44 22
M  V30 48 1 2 45 CFG=3
M  V30 END BOND
M  V30 END CTAB
M  END
>  <b_m_subgroup_collapsed>  (2491) 
0

>  <r_i_docking_score>  (2491) 
-5.5121764826160797

>  <s_m_subgroup_title>  (2491) 
glide-dock_SP_D22_pv

>  <s_m_subgroupid>  (2491) 
glide-dock_SP_D22_pv

>  <Molecule ChEMBL ID>  (2491) 
CHEMBL43819

>  <Standard Type>  (2491) 
Ki

>  <Standard Value>  (2491) 
28.0

>  <label>  (2491) 
1

$$$$
CHEMBL201788
     RDKit          3D

  0  0  0  0  0  0  0  0  0  0999 V3000
M  V30 BEGIN CTAB
M  V30 COUNTS 62 65 0 0 1
M  V30 BEGIN ATOM
M  V30 1 C 11.242149 0.788715 -21.671324 0
M  V30 2 O 10.347256 0.048036 -20.853996 0
M  V30 3 C 10.375336 0.253750 -19.490816 0
M  V30 4 C 11.311963 1.094009 -18.848637 0
M  V30 5 C 11.287883 1.293063 -17.454390 0
M  V30 6 C 10.322467 0.614242 -16.666073 0
M  V30 7 C 9.402803 -0.241645 -17.310106 0
M  V30 8 C 9.414636 -0.424550 -18.714188 0
M  V30 9 O 8.528013 -1.235983 -19.391279 0
M  V30 10 C 7.640953 -2.056254 -18.646147 0
M  V30 11 C 10.218949 0.751334 -15.144723 0
M  V30 12 C 9.125732 1.714820 -14.689565 0
M  V30 13 C 7.803370 1.220420 -14.656835 0
M  V30 14 C 6.734444 2.034394 -14.248200 0
M  V30 15 C 6.975818 3.357543 -13.848017 0
M  V30 16 C 8.287338 3.859998 -13.855278 0
M  V30 17 C 9.369875 3.058946 -14.284234 0
M  V30 18 C 10.754011 3.697005 -14.244221 0
M  V30 19 C 11.006684 4.827466 -15.281802 0
M  V30 20 N 11.002931 4.467825 -16.735062 0 CFG=2 CHG=1
M  V30 21 C 9.669963 4.116062 -17.309021 0
M  V30 22 C 9.579967 4.241774 -18.849524 0
M  V30 23 C 9.739298 5.648941 -19.409500 0
M  V30 24 C 11.012104 6.251235 -19.515135 0
M  V30 25 C 11.155657 7.512554 -20.124500 0
M  V30 26 C 10.028529 8.176999 -20.642708 0
M  V30 27 C 8.754144 7.590490 -20.527586 0
M  V30 28 C 8.610056 6.335937 -19.907854 0
M  V30 29 C 12.204676 3.724026 -17.236700 0
M  V30 30 C 12.343411 2.223307 -16.878786 0
M  V30 31 H 11.048355 0.553128 -22.718206 0
M  V30 32 H 12.281659 0.530031 -21.462917 0
M  V30 33 H 11.105024 1.864535 -21.546659 0
M  V30 34 H 12.068227 1.608371 -19.417629 0
M  V30 35 H 8.674965 -0.751543 -16.700926 0
M  V30 36 H 7.013310 -2.620565 -19.335451 0
M  V30 37 H 6.978918 -1.472860 -18.005621 0
M  V30 38 H 8.192496 -2.776549 -18.043041 0
M  V30 39 H 9.962505 -0.232452 -14.750006 0
M  V30 40 H 11.171247 0.947458 -14.666839 0
M  V30 41 H 7.596774 0.202872 -14.945527 0
M  V30 42 H 5.731692 1.638065 -14.229849 0
M  V30 43 H 6.158086 3.984639 -13.522491 0
M  V30 44 H 8.460636 4.874031 -13.528944 0
M  V30 45 H 10.832164 4.154160 -13.256040 0
M  V30 46 H 11.557199 2.973508 -14.221969 0
M  V30 47 H 10.270245 5.620225 -15.128811 0
M  V30 48 H 11.971322 5.290016 -15.057324 0
M  V30 49 H 9.392859 3.104536 -17.018137 0
M  V30 50 H 8.906635 4.766123 -16.871912 0
M  V30 51 H 10.297089 3.587075 -19.343969 0
M  V30 52 H 8.603075 3.865332 -19.156927 0
M  V30 53 H 11.892686 5.745226 -19.161013 0
M  V30 54 H 12.131055 7.966657 -20.212000 0
M  V30 55 H 10.138247 9.139015 -21.118755 0
M  V30 56 H 7.886728 8.103607 -20.914150 0
M  V30 57 H 7.628651 5.893247 -19.845760 0
M  V30 58 H 12.269086 3.834377 -18.319773 0
M  V30 59 H 13.088862 4.240212 -16.854170 0
M  V30 60 H 12.486049 2.078085 -15.823991 0
M  V30 61 H 13.285439 1.879920 -17.297203 0
M  V30 62 H 11.148502 5.378083 -17.151199 0
M  V30 END ATOM
M  V30 BEGIN BOND
M  V30 1 1 2 1
M  V30 2 1 3 2
M  V30 3 1 4 3
M  V30 4 2 5 4
M  V30 5 1 6 5
M  V30 6 2 7 6
M  V30 7 2 8 3
M  V30 8 1 8 7
M  V30 9 1 9 8
M  V30 10 1 10 9
M  V30 11 1 11 6
M  V30 12 1 12 11
M  V30 13 2 13 12
M  V30 14 1 14 13
M  V30 15 2 15 14
M  V30 16 1 16 15
M  V30 17 1 17 12
M  V30 18 2 17 16
M  V30 19 1 18 17
M  V30 20 1 19 18
M  V30 21 1 20 19
M  V30 22 1 21 20
M  V30 23 1 22 21
M  V30 24 1 23 22
M  V30 25 2 24 23
M  V30 26 1 25 24
M  V30 27 2 26 25
M  V30 28 1 27 26
M  V30 29 1 28 23
M  V30 30 2 28 27
M  V30 31 1 29 20
M  V30 32 1 30 5
M  V30 33 1 30 29
M  V30 34 1 31 1
M  V30 35 1 32 1
M  V30 36 1 33 1
M  V30 37 1 34 4
M  V30 38 1 35 7
M  V30 39 1 36 10
M  V30 40 1 37 10
M  V30 41 1 38 10
M  V30 42 1 39 11
M  V30 43 1 40 11
M  V30 44 1 41 13
M  V30 45 1 42 14
M  V30 46 1 43 15
M  V30 47 1 44 16
M  V30 48 1 45 18
M  V30 49 1 46 18
M  V30 50 1 47 19
M  V30 51 1 48 19
M  V30 52 1 49 21
M  V30 53 1 50 21
M  V30 54 1 51 22
M  V30 55 1 52 22
M  V30 56 1 53 24
M  V30 57 1 54 25
M  V30 58 1 55 26
M  V30 59 1 56 27
M  V30 60 1 57 28
M  V30 61 1 58 29
M  V30 62 1 59 29
M  V30 63 1 60 30
M  V30 64 1 61 30
M  V30 65 1 20 62 CFG=3
M  V30 END BOND
M  V30 END CTAB
M  END
>  <b_m_subgroup_collapsed>  (2492) 
0

>  <r_i_docking_score>  (2492) 
-5.5103470820840297

>  <s_m_subgroup_title>  (2492) 
glide-dock_SP_D22_pv

>  <s_m_subgroupid>  (2492) 
glide-dock_SP_D22_pv

>  <Molecule ChEMBL ID>  (2492) 
CHEMBL201788

>  <Standard Type>  (2492) 
Ki

>  <Standard Value>  (2492) 
10000.0

>  <label>  (2492) 
0

$$$$
CHEMBL593626
     RDKit          3D

  0  0  0  0  0  0  0  0  0  0999 V3000
M  V30 BEGIN CTAB
M  V30 COUNTS 37 40 0 0 1
M  V30 BEGIN ATOM
M  V30 1 O 8.085558 6.546906 -12.210858 0
M  V30 2 C 8.162719 5.337651 -12.841875 0
M  V30 3 C 6.996527 4.606329 -13.150896 0
M  V30 4 C 7.090027 3.380040 -13.844515 0
M  V30 5 C 8.356449 2.856115 -14.195271 0
M  V30 6 C 9.515840 3.586504 -13.865775 0
M  V30 7 C 9.424309 4.827451 -13.203946 0
M  V30 8 C 10.847163 2.984865 -14.267084 0
M  V30 9 C 10.774288 2.453528 -15.713845 0
M  V30 10 N 9.550371 1.636923 -16.015028 0 CFG=2 CHG=1
M  V30 11 C 8.884870 2.089367 -17.263611 0
M  V30 12 C 7.854394 1.062884 -17.747147 0
M  V30 13 C 6.940293 0.579025 -16.638348 0
M  V30 14 C 5.751154 -0.103493 -16.975025 0
M  V30 15 C 4.936663 -0.642863 -15.965798 0
M  V30 16 C 5.319828 -0.525499 -14.617629 0
M  V30 17 C 6.497679 0.161642 -14.276510 0
M  V30 18 C 7.306703 0.741665 -15.280760 0
M  V30 19 C 8.576284 1.500616 -14.882886 0 CFG=2
M  V30 20 H 7.303487 6.722528 -11.693117 0
M  V30 21 H 6.026370 4.994407 -12.876202 0
M  V30 22 H 6.178876 2.849335 -14.083152 0
M  V30 23 H 10.316742 5.385474 -12.963804 0
M  V30 24 H 11.646705 3.723338 -14.174226 0
M  V30 25 H 11.086415 2.173716 -13.575766 0
M  V30 26 H 10.808371 3.318769 -16.377594 0
M  V30 27 H 11.662674 1.864177 -15.944672 0
M  V30 28 H 8.403397 3.049284 -17.079285 0
M  V30 29 H 9.621667 2.251072 -18.053297 0
M  V30 30 H 7.257049 1.489960 -18.553988 0
M  V30 31 H 8.365206 0.195006 -18.167986 0
M  V30 32 H 5.471104 -0.233430 -18.009481 0
M  V30 33 H 4.034681 -1.177367 -16.226234 0
M  V30 34 H 4.708561 -0.968082 -13.846915 0
M  V30 35 H 6.780048 0.249722 -13.237041 0
M  V30 36 H 9.067575 0.868533 -14.139712 0
M  V30 37 H 9.873018 0.697209 -16.201273 0
M  V30 END ATOM
M  V30 BEGIN BOND
M  V30 1 1 2 1
M  V30 2 1 3 2
M  V30 3 2 4 3
M  V30 4 1 5 4
M  V30 5 2 6 5
M  V30 6 2 7 2
M  V30 7 1 7 6
M  V30 8 1 8 6
M  V30 9 1 9 8
M  V30 10 1 10 9
M  V30 11 1 11 10
M  V30 12 1 12 11
M  V30 13 1 13 12
M  V30 14 2 14 13
M  V30 15 1 15 14
M  V30 16 2 16 15
M  V30 17 1 17 16
M  V30 18 1 18 13
M  V30 19 2 18 17
M  V30 20 1 19 5
M  V30 21 1 19 10
M  V30 22 1 19 18
M  V30 23 1 20 1
M  V30 24 1 21 3
M  V30 25 1 22 4
M  V30 26 1 23 7
M  V30 27 1 24 8
M  V30 28 1 25 8
M  V30 29 1 26 9
M  V30 30 1 27 9
M  V30 31 1 28 11
M  V30 32 1 29 11
M  V30 33 1 30 12
M  V30 34 1 31 12
M  V30 35 1 32 14
M  V30 36 1 33 15
M  V30 37 1 34 16
M  V30 38 1 35 17
M  V30 39 1 19 36 CFG=1
M  V30 40 1 10 37 CFG=3
M  V30 END BOND
M  V30 END CTAB
M  END
>  <b_m_subgroup_collapsed>  (2493) 
0

>  <r_i_docking_score>  (2493) 
-5.5095771797151398

>  <s_m_subgroup_title>  (2493) 
glide-dock_SP_D22_pv

>  <s_m_subgroupid>  (2493) 
glide-dock_SP_D22_pv

>  <Molecule ChEMBL ID>  (2493) 
CHEMBL593626

>  <Standard Type>  (2493) 
Ki

>  <Standard Value>  (2493) 
10000.0

>  <label>  (2493) 
0

$$$$
CHEMBL2030629
     RDKit          3D

  0  0  0  0  0  0  0  0  0  0999 V3000
M  V30 BEGIN CTAB
M  V30 COUNTS 34 36 0 0 1
M  V30 BEGIN ATOM
M  V30 1 C 12.348353 8.097305 -2.076876 0
M  V30 2 C 12.214357 6.976417 -2.912058 0
M  V30 3 C 11.886794 7.192538 -4.260880 0
M  V30 4 C 11.704803 8.520314 -4.706669 0
M  V30 5 C 11.506063 8.837167 -6.172922 0
M  V30 6 C 10.293733 8.127508 -6.772373 0
M  V30 7 N 10.184889 8.445854 -8.213007 0 CFG=1 CHG=1
M  V30 8 C 11.005486 7.682642 -9.163188 0 CFG=1
M  V30 9 C 10.360572 6.279100 -9.170274 0
M  V30 10 C 8.881225 6.601305 -8.902858 0
M  V30 11 C 8.903398 8.141640 -8.839344 0 CFG=2
M  V30 12 C 9.136038 8.702392 -10.251884 0
M  V30 13 C 10.632760 8.391160 -10.477748 0
M  V30 14 N 11.757814 9.588257 -3.888937 0
M  V30 15 C 12.086042 9.371621 -2.602972 0
M  V30 16 H 12.632883 7.988469 -1.046472 0
M  V30 17 H 12.386580 5.978974 -2.534079 0
M  V30 18 H 11.825676 6.354020 -4.940860 0
M  V30 19 H 11.393121 9.915178 -6.298073 0
M  V30 20 H 12.413753 8.574596 -6.713090 0
M  V30 21 H 10.350429 7.052947 -6.603365 0
M  V30 22 H 9.392705 8.473229 -6.258073 0
M  V30 23 H 12.077218 7.685046 -8.959233 0
M  V30 24 H 10.766929 5.638388 -8.387693 0
M  V30 25 H 10.486275 5.768567 -10.124524 0
M  V30 26 H 8.545323 6.171583 -7.958922 0
M  V30 27 H 8.219737 6.224719 -9.683635 0
M  V30 28 H 8.086153 8.607071 -8.297687 0
M  V30 29 H 8.487482 8.244367 -11.000691 0
M  V30 30 H 8.937693 9.772554 -10.249374 0
M  V30 31 H 11.207374 9.310102 -10.596312 0
M  V30 32 H 10.806787 7.769777 -11.357245 0
M  V30 33 H 12.130744 10.237783 -1.966764 0
M  V30 34 H 10.360881 9.431582 -8.330359 0
M  V30 END ATOM
M  V30 BEGIN BOND
M  V30 1 2 2 1
M  V30 2 1 3 2
M  V30 3 2 4 3
M  V30 4 1 5 4
M  V30 5 1 6 5
M  V30 6 1 7 6
M  V30 7 1 8 7
M  V30 8 1 9 8
M  V30 9 1 10 9
M  V30 10 1 11 7
M  V30 11 1 11 10
M  V30 12 1 12 11
M  V30 13 1 13 8
M  V30 14 1 13 12
M  V30 15 1 14 4
M  V30 16 1 15 1
M  V30 17 2 15 14
M  V30 18 1 16 1
M  V30 19 1 17 2
M  V30 20 1 18 3
M  V30 21 1 19 5
M  V30 22 1 20 5
M  V30 23 1 21 6
M  V30 24 1 22 6
M  V30 25 1 8 23 CFG=1
M  V30 26 1 24 9
M  V30 27 1 25 9
M  V30 28 1 26 10
M  V30 29 1 27 10
M  V30 30 1 11 28 CFG=1
M  V30 31 1 29 12
M  V30 32 1 30 12
M  V30 33 1 31 13
M  V30 34 1 32 13
M  V30 35 1 33 15
M  V30 36 1 7 34 CFG=1
M  V30 END BOND
M  V30 END CTAB
M  END
>  <b_m_subgroup_collapsed>  (2494) 
0

>  <r_i_docking_score>  (2494) 
-5.5088905738386504

>  <s_m_subgroup_title>  (2494) 
glide-dock_SP_D22_pv

>  <s_m_subgroupid>  (2494) 
glide-dock_SP_D22_pv

>  <Molecule ChEMBL ID>  (2494) 
CHEMBL2030629

>  <Standard Type>  (2494) 
Ki

>  <Standard Value>  (2494) 
10000.0

>  <label>  (2494) 
0

$$$$
CHEMBL3221299
     RDKit          3D

  0  0  0  0  0  0  0  0  0  0999 V3000
M  V30 BEGIN CTAB
M  V30 COUNTS 49 51 0 0 1
M  V30 BEGIN ATOM
M  V30 1 C 12.887619 8.256617 -8.731801 0
M  V30 2 C 11.678289 8.799640 -7.965485 0
M  V30 3 N 10.707975 7.720132 -7.670701 0 CFG=1 CHG=1
M  V30 4 C 9.665947 8.049168 -6.688384 0
M  V30 5 C 8.717219 6.855683 -6.749789 0
M  V30 6 C 8.984514 6.168746 -8.097766 0
M  V30 7 C 10.030001 7.043814 -8.803121 0 CFG=1
M  V30 8 C 9.372206 8.020577 -9.815922 0
M  V30 9 N 8.886158 7.335489 -11.009848 0
M  V30 10 C 9.776428 6.769522 -11.935788 0
M  V30 11 N 10.994781 7.364438 -12.041618 0 CHG=1
M  V30 12 N 11.953217 6.971831 -12.888936 0
M  V30 13 C 11.694100 5.910632 -13.677930 0
M  V30 14 C 10.471898 5.214693 -13.656707 0
M  V30 15 C 10.264665 4.118454 -14.510474 0
M  V30 16 C 9.040668 3.433687 -14.479543 0
M  V30 17 C 8.005491 3.833174 -13.598112 0
M  V30 18 O 6.806283 3.153706 -13.525309 0
M  V30 19 C 6.646390 1.942388 -14.251168 0
M  V30 20 C 8.211547 4.956144 -12.741461 0
M  V30 21 O 7.261179 5.373429 -11.833821 0
M  V30 22 C 5.890615 5.371886 -12.207125 0
M  V30 23 C 9.461198 5.645961 -12.762211 0
M  V30 24 H 13.704024 8.971810 -8.740729 0
M  V30 25 H 13.283637 7.372690 -8.247245 0
M  V30 26 H 12.649832 8.005964 -9.764891 0
M  V30 27 H 11.214154 9.635734 -8.488841 0
M  V30 28 H 12.032381 9.202767 -7.014740 0
M  V30 29 H 9.146081 8.961864 -6.984013 0
M  V30 30 H 10.083582 8.199502 -5.691650 0
M  V30 31 H 7.686398 7.180042 -6.646883 0
M  V30 32 H 8.926606 6.172756 -5.929930 0
M  V30 33 H 8.076761 6.046443 -8.688803 0
M  V30 34 H 9.386572 5.169347 -7.926023 0
M  V30 35 H 10.758625 6.416356 -9.317399 0
M  V30 36 H 10.054515 8.809379 -10.124648 0
M  V30 37 H 8.517780 8.524524 -9.356570 0
M  V30 38 H 7.913330 7.026626 -10.972776 0
M  V30 39 H 12.493037 5.613434 -14.342181 0
M  V30 40 H 11.038733 3.795574 -15.191975 0
M  V30 41 H 8.919544 2.591619 -15.143696 0
M  V30 42 H 5.677377 1.506213 -14.007909 0
M  V30 43 H 6.666974 2.112784 -15.328156 0
M  V30 44 H 7.407144 1.206918 -13.984733 0
M  V30 45 H 5.379179 6.171530 -11.670177 0
M  V30 46 H 5.740916 5.546559 -13.273382 0
M  V30 47 H 5.411448 4.434227 -11.923119 0
M  V30 48 H 11.184493 8.181910 -11.461429 0
M  V30 49 H 11.244612 6.989303 -7.224280 0
M  V30 END ATOM
M  V30 BEGIN BOND
M  V30 1 1 2 1
M  V30 2 1 3 2
M  V30 3 1 4 3
M  V30 4 1 5 4
M  V30 5 1 6 5
M  V30 6 1 7 3
M  V30 7 1 7 6
M  V30 8 1 8 7
M  V30 9 1 9 8
M  V30 10 1 10 9
M  V30 11 1 11 10
M  V30 12 2 12 11
M  V30 13 1 13 12
M  V30 14 2 14 13
M  V30 15 1 15 14
M  V30 16 2 16 15
M  V30 17 1 17 16
M  V30 18 1 18 17
M  V30 19 1 19 18
M  V30 20 2 20 17
M  V30 21 1 21 20
M  V30 22 1 22 21
M  V30 23 2 23 10
M  V30 24 1 23 14
M  V30 25 1 23 20
M  V30 26 1 24 1
M  V30 27 1 25 1
M  V30 28 1 26 1
M  V30 29 1 27 2
M  V30 30 1 28 2
M  V30 31 1 29 4
M  V30 32 1 30 4
M  V30 33 1 31 5
M  V30 34 1 32 5
M  V30 35 1 33 6
M  V30 36 1 34 6
M  V30 37 1 7 35 CFG=3
M  V30 38 1 36 8
M  V30 39 1 37 8
M  V30 40 1 38 9
M  V30 41 1 39 13
M  V30 42 1 40 15
M  V30 43 1 41 16
M  V30 44 1 42 19
M  V30 45 1 43 19
M  V30 46 1 44 19
M  V30 47 1 45 22
M  V30 48 1 46 22
M  V30 49 1 47 22
M  V30 50 1 48 11
M  V30 51 1 3 49 CFG=1
M  V30 END BOND
M  V30 END CTAB
M  END
>  <b_m_subgroup_collapsed>  (2495) 
0

>  <r_i_docking_score>  (2495) 
-5.5084944730911998

>  <s_m_subgroup_title>  (2495) 
glide-dock_SP_D22_pv

>  <s_m_subgroupid>  (2495) 
glide-dock_SP_D22_pv

>  <Molecule ChEMBL ID>  (2495) 
CHEMBL3221299

>  <Standard Type>  (2495) 
Ki

>  <Standard Value>  (2495) 
3.9

>  <label>  (2495) 
1

$$$$
CHEMBL422344
     RDKit          3D

  0  0  0  0  0  0  0  0  0  0999 V3000
M  V30 BEGIN CTAB
M  V30 COUNTS 31 33 0 0 1
M  V30 BEGIN ATOM
M  V30 1 C 7.300298 5.370128 -12.028306 0
M  V30 2 N 8.421408 4.595454 -11.501879 0
M  V30 3 C 9.157638 3.986390 -12.603932 0
M  V30 4 C 9.305071 5.332408 -10.585655 0 CFG=2
M  V30 5 C 8.615840 5.647221 -9.229549 0
M  V30 6 C 9.440853 6.508005 -8.274424 0
M  V30 7 C 9.325978 6.688320 -6.878417 0
M  V30 8 C 10.235453 7.534621 -6.185685 0
M  V30 9 C 11.265523 8.237350 -6.865502 0
M  V30 10 C 11.362612 8.081068 -8.258468 0
M  V30 11 N 12.227611 8.571859 -9.228653 0
M  V30 12 C 11.893270 8.034243 -10.412622 0
M  V30 13 O 12.515905 8.172312 -11.458322 0
M  V30 14 N 10.785695 7.282918 -10.230000 0
M  V30 15 C 10.457310 7.249741 -8.875937 0
M  V30 16 C 10.002465 6.566047 -11.225846 0
M  V30 17 H 6.657866 4.732543 -12.636968 0
M  V30 18 H 6.677213 5.770839 -11.230873 0
M  V30 19 H 7.633282 6.197506 -12.655437 0
M  V30 20 H 8.497637 3.354258 -13.197762 0
M  V30 21 H 9.582763 4.735228 -13.273022 0
M  V30 22 H 9.966760 3.356976 -12.231216 0
M  V30 23 H 10.087306 4.623538 -10.324505 0
M  V30 24 H 8.351379 4.717690 -8.723005 0
M  V30 25 H 7.686018 6.172155 -9.391395 0
M  V30 26 H 8.546570 6.173622 -6.335994 0
M  V30 27 H 10.141487 7.641249 -5.117078 0
M  V30 28 H 11.953069 8.874120 -6.329168 0
M  V30 29 H 9.267414 7.270244 -11.614571 0
M  V30 30 H 10.642137 6.273867 -12.057863 0
M  V30 31 H 13.008818 9.194181 -9.064220 0
M  V30 END ATOM
M  V30 BEGIN BOND
M  V30 1 1 2 1
M  V30 2 1 3 2
M  V30 3 1 4 2
M  V30 4 1 5 4
M  V30 5 1 6 5
M  V30 6 1 7 6
M  V30 7 2 8 7
M  V30 8 1 9 8
M  V30 9 2 10 9
M  V30 10 1 11 10
M  V30 11 1 12 11
M  V30 12 2 13 12
M  V30 13 1 14 12
M  V30 14 2 15 6
M  V30 15 1 15 10
M  V30 16 1 15 14
M  V30 17 1 16 4
M  V30 18 1 16 14
M  V30 19 1 17 1
M  V30 20 1 18 1
M  V30 21 1 19 1
M  V30 22 1 20 3
M  V30 23 1 21 3
M  V30 24 1 22 3
M  V30 25 1 4 23 CFG=1
M  V30 26 1 24 5
M  V30 27 1 25 5
M  V30 28 1 26 7
M  V30 29 1 27 8
M  V30 30 1 28 9
M  V30 31 1 29 16
M  V30 32 1 30 16
M  V30 33 1 31 11
M  V30 END BOND
M  V30 END CTAB
M  END
>  <b_m_subgroup_collapsed>  (2496) 
0

>  <r_i_docking_score>  (2496) 
-5.5070285652142097

>  <s_m_subgroup_title>  (2496) 
glide-dock_SP_D22_pv

>  <s_m_subgroupid>  (2496) 
glide-dock_SP_D22_pv

>  <Molecule ChEMBL ID>  (2496) 
CHEMBL422344

>  <Standard Type>  (2496) 
Ki

>  <Standard Value>  (2496) 
12.0

>  <label>  (2496) 
1

$$$$
CHEMBL4228054
     RDKit          3D

  0  0  0  0  0  0  0  0  0  0999 V3000
M  V30 BEGIN CTAB
M  V30 COUNTS 41 42 0 0 1
M  V30 BEGIN ATOM
M  V30 1 C 5.430587 1.296891 -13.703799 0
M  V30 2 C 6.067708 2.685926 -13.610630 0
M  V30 3 C 5.461792 3.517284 -12.468002 0
M  V30 4 C 6.081273 4.910866 -12.292213 0
M  V30 5 C 7.596921 4.847314 -12.053877 0
M  V30 6 N 8.176234 6.113927 -11.565229 0 CFG=2 CHG=1
M  V30 7 C 7.939294 7.307635 -12.393336 0
M  V30 8 C 8.974017 8.329506 -11.897594 0
M  V30 9 C 10.114472 7.503060 -11.258223 0 CFG=1
M  V30 10 C 10.370039 7.864244 -9.801021 0
M  V30 11 C 11.647873 8.280283 -9.368616 0
M  V30 12 C 11.868649 8.573957 -8.007498 0
M  V30 13 C 10.810502 8.491955 -7.078662 0
M  V30 14 C 9.535259 8.078621 -7.511388 0
M  V30 15 O 8.486043 8.003709 -6.647048 0
M  V30 16 C 9.332642 7.744425 -8.855171 0
M  V30 17 C 9.640626 6.049848 -11.386724 0
M  V30 18 H 5.840612 0.733781 -14.541676 0
M  V30 19 H 5.612931 0.719947 -12.797215 0
M  V30 20 H 4.352710 1.369742 -13.842853 0
M  V30 21 H 5.942604 3.220632 -14.553362 0
M  V30 22 H 7.139513 2.562188 -13.466628 0
M  V30 23 H 5.557640 2.971814 -11.529594 0
M  V30 24 H 4.394998 3.631054 -12.650213 0
M  V30 25 H 5.597676 5.405387 -11.448070 0
M  V30 26 H 5.857656 5.522308 -13.165915 0
M  V30 27 H 8.106949 4.548768 -12.970554 0
M  V30 28 H 7.811935 4.084844 -11.305833 0
M  V30 29 H 6.918382 7.676087 -12.288689 0
M  V30 30 H 8.085985 7.053247 -13.442283 0
M  V30 31 H 8.506858 8.986333 -11.161409 0
M  V30 32 H 9.323901 8.972392 -12.704591 0
M  V30 33 H 11.039488 7.638054 -11.823868 0
M  V30 34 H 12.464510 8.370954 -10.070526 0
M  V30 35 H 12.847868 8.894210 -7.680933 0
M  V30 36 H 10.978226 8.742394 -6.041044 0
M  V30 37 H 7.650145 7.772621 -7.049627 0
M  V30 38 H 8.363371 7.392377 -9.157183 0
M  V30 39 H 10.085148 5.613625 -12.283854 0
M  V30 40 H 9.934573 5.421532 -10.543886 0
M  V30 41 H 7.747260 6.340776 -10.672434 0
M  V30 END ATOM
M  V30 BEGIN BOND
M  V30 1 1 2 1
M  V30 2 1 3 2
M  V30 3 1 4 3
M  V30 4 1 5 4
M  V30 5 1 6 5
M  V30 6 1 7 6
M  V30 7 1 8 7
M  V30 8 1 9 8
M  V30 9 1 10 9
M  V30 10 2 11 10
M  V30 11 1 12 11
M  V30 12 2 13 12
M  V30 13 1 14 13
M  V30 14 1 15 14
M  V30 15 1 16 10
M  V30 16 2 16 14
M  V30 17 1 17 6
M  V30 18 1 17 9
M  V30 19 1 18 1
M  V30 20 1 19 1
M  V30 21 1 20 1
M  V30 22 1 21 2
M  V30 23 1 22 2
M  V30 24 1 23 3
M  V30 25 1 24 3
M  V30 26 1 25 4
M  V30 27 1 26 4
M  V30 28 1 27 5
M  V30 29 1 28 5
M  V30 30 1 29 7
M  V30 31 1 30 7
M  V30 32 1 31 8
M  V30 33 1 32 8
M  V30 34 1 9 33 CFG=3
M  V30 35 1 34 11
M  V30 36 1 35 12
M  V30 37 1 36 13
M  V30 38 1 37 15
M  V30 39 1 38 16
M  V30 40 1 39 17
M  V30 41 1 40 17
M  V30 42 1 6 41 CFG=1
M  V30 END BOND
M  V30 END CTAB
M  END
>  <b_m_subgroup_collapsed>  (2497) 
0

>  <r_i_docking_score>  (2497) 
-5.50702586418595

>  <s_m_subgroup_title>  (2497) 
glide-dock_SP_D22_pv

>  <s_m_subgroupid>  (2497) 
glide-dock_SP_D22_pv

>  <Molecule ChEMBL ID>  (2497) 
CHEMBL4228054

>  <Standard Type>  (2497) 
Ki

>  <Standard Value>  (2497) 
10000.0

>  <label>  (2497) 
0

$$$$
CHEMBL596885
     RDKit          3D

  0  0  0  0  0  0  0  0  0  0999 V3000
M  V30 BEGIN CTAB
M  V30 COUNTS 42 45 0 0 1
M  V30 BEGIN ATOM
M  V30 1 C 11.586966 7.774133 -11.060948 0
M  V30 2 C 10.494903 7.248477 -11.219136 0
M  V30 3 C 9.173718 6.622288 -11.384878 0
M  V30 4 O 9.251604 5.626215 -12.396989 0
M  V30 5 C 8.130826 4.876062 -12.694544 0
M  V30 6 C 6.914365 5.039394 -11.981690 0
M  V30 7 C 5.799757 4.233351 -12.248907 0
M  V30 8 C 5.893184 3.226454 -13.213795 0
M  V30 9 C 7.092689 3.047694 -13.927347 0
M  V30 10 C 8.214605 3.889363 -13.721147 0
M  V30 11 C 9.421220 3.667729 -14.571104 0
M  V30 12 C 10.384194 4.675912 -14.842995 0
M  V30 13 C 11.527908 4.460198 -15.632074 0
M  V30 14 C 11.751725 3.206547 -16.216354 0
M  V30 15 C 10.827017 2.170538 -16.026007 0
M  V30 16 C 9.673991 2.429007 -15.226493 0
M  V30 17 C 8.613894 1.332834 -14.993775 0 CFG=1
M  V30 18 C 7.182785 1.905304 -14.912567 0
M  V30 19 N 8.701144 0.169856 -15.918104 0 CFG=1 CHG=1
M  V30 20 C 8.044390 0.339898 -17.243647 0
M  V30 21 C 10.097334 -0.293173 -16.024357 0
M  V30 22 C 10.955450 0.795192 -16.670649 0
M  V30 23 H 12.532051 8.253254 -10.925850 0
M  V30 24 H 8.892360 6.190609 -10.424528 0
M  V30 25 H 8.459889 7.402967 -11.648849 0
M  V30 26 H 6.807247 5.772583 -11.199833 0
M  V30 27 H 4.887698 4.375667 -11.691855 0
M  V30 28 H 5.046227 2.583377 -13.397385 0
M  V30 29 H 10.255191 5.672817 -14.453042 0
M  V30 30 H 12.229115 5.265453 -15.793470 0
M  V30 31 H 12.629021 3.046886 -16.827957 0
M  V30 32 H 8.846902 0.931906 -14.002862 0
M  V30 33 H 6.479976 1.116256 -14.638680 0
M  V30 34 H 6.866439 2.304822 -15.876775 0
M  V30 35 H 8.372430 1.253743 -17.744684 0
M  V30 36 H 6.958732 0.376211 -17.136835 0
M  V30 37 H 8.267687 -0.511123 -17.891319 0
M  V30 38 H 10.479594 -0.526405 -15.028896 0
M  V30 39 H 10.149540 -1.219184 -16.599928 0
M  V30 40 H 10.709942 0.897193 -17.730970 0
M  V30 41 H 12.007102 0.497802 -16.648054 0
M  V30 42 H 8.197385 -0.585914 -15.468042 0
M  V30 END ATOM
M  V30 BEGIN BOND
M  V30 1 3 2 1
M  V30 2 1 3 2
M  V30 3 1 4 3
M  V30 4 1 5 4
M  V30 5 2 6 5
M  V30 6 1 7 6
M  V30 7 2 8 7
M  V30 8 1 9 8
M  V30 9 1 10 5
M  V30 10 2 10 9
M  V30 11 1 11 10
M  V30 12 2 12 11
M  V30 13 1 13 12
M  V30 14 2 14 13
M  V30 15 1 15 14
M  V30 16 1 16 11
M  V30 17 2 16 15
M  V30 18 1 17 16
M  V30 19 1 18 9
M  V30 20 1 18 17
M  V30 21 1 19 17
M  V30 22 1 20 19
M  V30 23 1 21 19
M  V30 24 1 22 15
M  V30 25 1 22 21
M  V30 26 1 23 1
M  V30 27 1 24 3
M  V30 28 1 25 3
M  V30 29 1 26 6
M  V30 30 1 27 7
M  V30 31 1 28 8
M  V30 32 1 29 12
M  V30 33 1 30 13
M  V30 34 1 31 14
M  V30 35 1 17 32 CFG=1
M  V30 36 1 33 18
M  V30 37 1 34 18
M  V30 38 1 35 20
M  V30 39 1 36 20
M  V30 40 1 37 20
M  V30 41 1 38 21
M  V30 42 1 39 21
M  V30 43 1 40 22
M  V30 44 1 41 22
M  V30 45 1 19 42 CFG=1
M  V30 END BOND
M  V30 END CTAB
M  END
>  <b_m_subgroup_collapsed>  (2498) 
0

>  <r_i_docking_score>  (2498) 
-5.5054648275988596

>  <s_m_subgroup_title>  (2498) 
glide-dock_SP_D22_pv

>  <s_m_subgroupid>  (2498) 
glide-dock_SP_D22_pv

>  <Molecule ChEMBL ID>  (2498) 
CHEMBL596885

>  <Standard Type>  (2498) 
Ki

>  <Standard Value>  (2498) 
10000.0

>  <label>  (2498) 
0

$$$$
CHEMBL102162
     RDKit          3D

  0  0  0  0  0  0  0  0  0  0999 V3000
M  V30 BEGIN CTAB
M  V30 COUNTS 33 35 0 0 1
M  V30 BEGIN ATOM
M  V30 1 C 6.341643 5.218361 -12.434996 0
M  V30 2 C 6.528335 3.893886 -13.108518 0
M  V30 3 S 5.308957 2.670746 -12.930783 0
M  V30 4 C 6.251637 1.528735 -13.847199 0
M  V30 5 C 5.752646 0.127605 -13.968862 0
M  V30 6 C 7.425050 2.086637 -14.312052 0
M  V30 7 C 7.596973 3.436139 -13.846551 0
M  V30 8 C 8.855177 4.229618 -14.051855 0
M  V30 9 C 10.030087 3.553095 -13.323829 0
M  V30 10 C 10.719012 2.430182 -14.118561 0
M  V30 11 C 9.826155 1.594842 -14.988902 0
M  V30 12 N 10.389764 0.764440 -15.923659 0 CHG=1
M  V30 13 C 9.454321 0.161349 -16.660639 0
M  V30 14 N 8.270940 0.594976 -16.216715 0
M  V30 15 C 7.028023 0.191502 -16.881084 0
M  V30 16 C 8.459820 1.432872 -15.139945 0
M  V30 17 H 6.705823 6.047114 -13.046403 0
M  V30 18 H 6.873155 5.244800 -11.479242 0
M  V30 19 H 5.286257 5.407317 -12.225529 0
M  V30 20 H 6.570407 -0.577800 -14.104738 0
M  V30 21 H 5.060368 0.032901 -14.804532 0
M  V30 22 H 5.222164 -0.162457 -13.062985 0
M  V30 23 H 9.075136 4.353925 -15.112362 0
M  V30 24 H 8.744849 5.240674 -13.660513 0
M  V30 25 H 10.783185 4.302392 -13.075004 0
M  V30 26 H 9.683560 3.167741 -12.365699 0
M  V30 27 H 11.458871 2.893808 -14.771760 0
M  V30 28 H 11.282930 1.779768 -13.448142 0
M  V30 29 H 9.623789 -0.519657 -17.475761 0
M  V30 30 H 6.253536 0.935283 -16.699766 0
M  V30 31 H 6.716353 -0.783545 -16.502018 0
M  V30 32 H 7.194935 0.121311 -17.954699 0
M  V30 33 H 11.386664 0.641965 -16.050520 0
M  V30 END ATOM
M  V30 BEGIN BOND
M  V30 1 1 2 1
M  V30 2 1 3 2
M  V30 3 1 4 3
M  V30 4 1 5 4
M  V30 5 2 6 4
M  V30 6 2 7 2
M  V30 7 1 7 6
M  V30 8 1 8 7
M  V30 9 1 9 8
M  V30 10 1 10 9
M  V30 11 1 11 10
M  V30 12 1 12 11
M  V30 13 2 13 12
M  V30 14 1 14 13
M  V30 15 1 15 14
M  V30 16 1 16 6
M  V30 17 2 16 11
M  V30 18 1 16 14
M  V30 19 1 17 1
M  V30 20 1 18 1
M  V30 21 1 19 1
M  V30 22 1 20 5
M  V30 23 1 21 5
M  V30 24 1 22 5
M  V30 25 1 23 8
M  V30 26 1 24 8
M  V30 27 1 25 9
M  V30 28 1 26 9
M  V30 29 1 27 10
M  V30 30 1 28 10
M  V30 31 1 29 13
M  V30 32 1 30 15
M  V30 33 1 31 15
M  V30 34 1 32 15
M  V30 35 1 33 12
M  V30 END BOND
M  V30 END CTAB
M  END
>  <b_m_subgroup_collapsed>  (2499) 
0

>  <r_i_docking_score>  (2499) 
-5.4971089435672198

>  <s_m_subgroup_title>  (2499) 
glide-dock_SP_D22_pv

>  <s_m_subgroupid>  (2499) 
glide-dock_SP_D22_pv

>  <Molecule ChEMBL ID>  (2499) 
CHEMBL102162

>  <Standard Type>  (2499) 
Ki

>  <Standard Value>  (2499) 
10000.0

>  <label>  (2499) 
0

$$$$
CHEMBL99085
     RDKit          3D

  0  0  0  0  0  0  0  0  0  0999 V3000
M  V30 BEGIN CTAB
M  V30 COUNTS 32 34 0 0 1
M  V30 BEGIN ATOM
M  V30 1 C 9.392826 -0.115723 -16.208921 0
M  V30 2 C 8.940130 0.833718 -15.091193 0
M  V30 3 C 10.075908 1.594051 -14.376339 0
M  V30 4 N 10.658096 2.669995 -15.162266 0
M  V30 5 N 11.414559 2.350590 -16.237389 0
M  V30 6 C 11.884669 3.497840 -16.690199 0
M  V30 7 C 11.455892 4.604075 -15.909338 0
M  V30 8 C 10.659639 4.042259 -14.952762 0
M  V30 9 C 10.032480 4.751224 -13.837516 0
M  V30 10 C 8.751579 4.643490 -13.336911 0
M  V30 11 Cl 7.444338 3.653937 -13.846950 0
M  V30 12 S 8.423205 5.726050 -12.016462 0
M  V30 13 C 10.028293 6.366089 -12.147169 0
M  V30 14 Cl 10.496618 7.609200 -11.053080 0
M  V30 15 C 10.764194 5.772108 -13.142834 0
M  V30 16 C 12.197123 6.109054 -13.465044 0
M  V30 17 C 12.431338 6.741372 -14.856972 0
M  V30 18 C 11.772279 6.063861 -16.084490 0
M  V30 19 H 8.531862 -0.627050 -16.636408 0
M  V30 20 H 10.080466 -0.872528 -15.830430 0
M  V30 21 H 9.881702 0.414070 -17.025238 0
M  V30 22 H 8.217717 1.541555 -15.498222 0
M  V30 23 H 8.400642 0.247134 -14.346374 0
M  V30 24 H 9.700814 2.017216 -13.446870 0
M  V30 25 H 10.874434 0.904467 -14.097862 0
M  V30 26 H 12.527114 3.492507 -17.558170 0
M  V30 27 H 12.614745 6.773353 -12.708992 0
M  V30 28 H 12.796067 5.198971 -13.397162 0
M  V30 29 H 12.121943 7.786873 -14.837012 0
M  V30 30 H 13.510112 6.765412 -15.016318 0
M  V30 31 H 12.399255 6.228600 -16.960888 0
M  V30 32 H 10.845269 6.584393 -16.308432 0
M  V30 END ATOM
M  V30 BEGIN BOND
M  V30 1 1 2 1
M  V30 2 1 3 2
M  V30 3 1 4 3
M  V30 4 1 5 4
M  V30 5 2 6 5
M  V30 6 1 7 6
M  V30 7 1 8 4
M  V30 8 2 8 7
M  V30 9 1 9 8
M  V30 10 2 10 9
M  V30 11 1 11 10
M  V30 12 1 12 10
M  V30 13 1 13 12
M  V30 14 1 14 13
M  V30 15 1 15 9
M  V30 16 2 15 13
M  V30 17 1 16 15
M  V30 18 1 17 16
M  V30 19 1 18 7
M  V30 20 1 18 17
M  V30 21 1 19 1
M  V30 22 1 20 1
M  V30 23 1 21 1
M  V30 24 1 22 2
M  V30 25 1 23 2
M  V30 26 1 24 3
M  V30 27 1 25 3
M  V30 28 1 26 6
M  V30 29 1 27 16
M  V30 30 1 28 16
M  V30 31 1 29 17
M  V30 32 1 30 17
M  V30 33 1 31 18
M  V30 34 1 32 18
M  V30 END BOND
M  V30 END CTAB
M  END
>  <b_m_subgroup_collapsed>  (2500) 
0

>  <r_i_docking_score>  (2500) 
-5.4967564266415003

>  <s_m_subgroup_title>  (2500) 
glide-dock_SP_D22_pv

>  <s_m_subgroupid>  (2500) 
glide-dock_SP_D22_pv

>  <Molecule ChEMBL ID>  (2500) 
CHEMBL99085

>  <Standard Type>  (2500) 
Ki

>  <Standard Value>  (2500) 
10000.0

>  <label>  (2500) 
0

$$$$
CHEMBL280804
     RDKit          3D

  0  0  0  0  0  0  0  0  0  0999 V3000
M  V30 BEGIN CTAB
M  V30 COUNTS 50 54 0 0 1
M  V30 BEGIN ATOM
M  V30 1 C 9.194343 5.209644 -8.617462 0
M  V30 2 C 8.876852 4.773888 -10.047142 0
M  V30 3 O 8.648499 5.934122 -10.820615 0
M  V30 4 C 8.458665 5.784070 -12.225883 0 CFG=1
M  V30 5 C 7.793140 7.100004 -12.671023 0
M  V30 6 C 8.501737 8.401303 -12.245930 0
M  V30 7 C 9.778768 5.512265 -12.964657 0
M  V30 8 C 11.020877 6.172755 -13.048843 0
M  V30 9 C 12.045955 5.605439 -13.846098 0
M  V30 10 C 11.867420 4.358172 -14.499242 0
M  V30 11 C 10.631024 3.687040 -14.404455 0
M  V30 12 C 9.628506 4.326476 -13.674593 0
M  V30 13 C 8.292067 3.819680 -13.518738 0
M  V30 14 C 7.560971 4.599706 -12.630157 0
M  V30 15 C 6.228851 4.211407 -12.346029 0
M  V30 16 C 5.692340 3.028008 -12.933263 0
M  V30 17 C 6.453458 2.247929 -13.848331 0
M  V30 18 C 7.753540 2.699468 -14.145678 0
M  V30 19 C 8.712436 2.118483 -15.199850 0 CFG=1
M  V30 20 C 10.231318 2.297992 -14.887330 0
M  V30 21 N 8.349585 0.706901 -15.526228 0 CFG=2 CHG=1
M  V30 22 C 9.118549 0.137415 -16.661886 0
M  V30 23 C 6.886925 0.558544 -15.727414 0
M  V30 24 C 6.121187 0.883342 -14.434517 0
M  V30 25 H 9.286567 4.342912 -7.969506 0
M  V30 26 H 8.391619 5.829232 -8.213939 0
M  V30 27 H 10.120110 5.784237 -8.573813 0
M  V30 28 H 9.689792 4.173470 -10.460481 0
M  V30 29 H 7.973008 4.172335 -10.032423 0
M  V30 30 H 7.686343 7.078037 -13.747753 0
M  V30 31 H 6.781927 7.132309 -12.268067 0
M  V30 32 H 7.944716 9.274439 -12.585933 0
M  V30 33 H 9.509042 8.481913 -12.646626 0
M  V30 34 H 8.573804 8.471292 -11.160531 0
M  V30 35 H 11.196328 7.092721 -12.514801 0
M  V30 36 H 12.995649 6.111293 -13.919507 0
M  V30 37 H 12.686804 3.916848 -15.048886 0
M  V30 38 H 5.636504 4.798624 -11.658764 0
M  V30 39 H 4.696817 2.708901 -12.659980 0
M  V30 40 H 8.510676 2.709087 -16.096180 0
M  V30 41 H 10.837724 2.064312 -15.760812 0
M  V30 42 H 10.523267 1.596233 -14.106470 0
M  V30 43 H 9.050117 0.778403 -17.543493 0
M  V30 44 H 8.746342 -0.851369 -16.937288 0
M  V30 45 H 10.172032 0.012614 -16.406429 0
M  V30 46 H 6.557618 1.211805 -16.538242 0
M  V30 47 H 6.650507 -0.463708 -16.029499 0
M  V30 48 H 6.359147 0.134122 -13.677544 0
M  V30 49 H 5.047174 0.809607 -14.600019 0
M  V30 50 H 8.575134 0.148899 -14.713884 0
M  V30 END ATOM
M  V30 BEGIN BOND
M  V30 1 1 2 1
M  V30 2 1 3 2
M  V30 3 1 4 3 CFG=1
M  V30 4 1 5 4
M  V30 5 1 6 5
M  V30 6 1 7 4
M  V30 7 2 8 7
M  V30 8 1 9 8
M  V30 9 2 10 9
M  V30 10 1 11 10
M  V30 11 1 12 7
M  V30 12 2 12 11
M  V30 13 1 13 12
M  V30 14 1 14 4
M  V30 15 2 14 13
M  V30 16 1 15 14
M  V30 17 2 16 15
M  V30 18 1 17 16
M  V30 19 1 18 13
M  V30 20 2 18 17
M  V30 21 1 19 18
M  V30 22 1 20 11
M  V30 23 1 20 19
M  V30 24 1 21 19
M  V30 25 1 22 21
M  V30 26 1 23 21
M  V30 27 1 24 17
M  V30 28 1 24 23
M  V30 29 1 25 1
M  V30 30 1 26 1
M  V30 31 1 27 1
M  V30 32 1 28 2
M  V30 33 1 29 2
M  V30 34 1 30 5
M  V30 35 1 31 5
M  V30 36 1 32 6
M  V30 37 1 33 6
M  V30 38 1 34 6
M  V30 39 1 35 8
M  V30 40 1 36 9
M  V30 41 1 37 10
M  V30 42 1 38 15
M  V30 43 1 39 16
M  V30 44 1 19 40 CFG=3
M  V30 45 1 41 20
M  V30 46 1 42 20
M  V30 47 1 43 22
M  V30 48 1 44 22
M  V30 49 1 45 22
M  V30 50 1 46 23
M  V30 51 1 47 23
M  V30 52 1 48 24
M  V30 53 1 49 24
M  V30 54 1 21 50 CFG=1
M  V30 END BOND
M  V30 END CTAB
M  END
>  <b_m_subgroup_collapsed>  (2501) 
0

>  <r_i_docking_score>  (2501) 
-5.49527554986149

>  <s_m_subgroup_title>  (2501) 
glide-dock_SP_D22_pv

>  <s_m_subgroupid>  (2501) 
glide-dock_SP_D22_pv

>  <Molecule ChEMBL ID>  (2501) 
CHEMBL280804

>  <Standard Type>  (2501) 
Ki

>  <Standard Value>  (2501) 
24.5

>  <label>  (2501) 
1

$$$$
CHEMBL4104216
     RDKit          3D

  0  0  0  0  0  0  0  0  0  0999 V3000
M  V30 BEGIN CTAB
M  V30 COUNTS 56 60 0 0 1
M  V30 BEGIN ATOM
M  V30 1 O 8.992524 0.637432 -17.839010 0
M  V30 2 S 9.115008 0.402960 -16.392141 0
M  V30 3 O 10.028819 -0.627673 -15.877776 0
M  V30 4 N 9.646200 1.892355 -15.719632 0
M  V30 5 C 8.894265 3.097961 -16.041908 0
M  V30 6 C 9.820489 4.316976 -16.100567 0
M  V30 7 N 10.339303 4.716341 -14.792011 0
M  V30 8 C 9.253366 5.199620 -13.924961 0
M  V30 9 C 9.712440 6.074742 -12.767538 0
M  V30 10 C 10.957068 6.572333 -12.646866 0
M  V30 11 C 11.377228 7.347562 -11.463493 0
M  V30 12 C 12.485997 8.141556 -11.413436 0
M  V30 13 N 12.617264 8.572324 -10.112311 0
M  V30 14 C 11.621572 8.097622 -9.300557 0
M  V30 15 C 11.366383 8.281569 -7.930680 0
M  V30 16 C 10.305676 7.579268 -7.338909 0
M  V30 17 C 9.535563 6.715901 -8.136589 0
M  V30 18 Cl 8.303535 5.772325 -7.446890 0
M  V30 19 C 9.770999 6.572390 -9.508906 0
M  V30 20 C 10.818548 7.272107 -10.138586 0
M  V30 21 C 11.990040 6.182457 -13.691791 0
M  V30 22 C 11.349218 5.746847 -15.016396 0
M  V30 23 C 7.481592 0.172331 -15.628057 0
M  V30 24 C 7.370788 0.550889 -14.272025 0
M  V30 25 C 6.150183 0.427608 -13.585236 0
M  V30 26 C 5.024381 -0.086645 -14.246489 0
M  V30 27 C 5.117711 -0.492004 -15.591470 0
M  V30 28 C 3.970337 -1.027701 -16.213024 0
M  V30 29 C 4.022599 -1.451336 -17.550852 0
M  V30 30 C 5.228939 -1.356527 -18.263262 0
M  V30 31 C 6.379207 -0.830286 -17.644562 0
M  V30 32 C 6.345736 -0.369278 -16.304073 0
M  V30 33 H 9.930461 1.825512 -14.742480 0
M  V30 34 H 8.085998 3.218532 -15.323587 0
M  V30 35 H 8.426428 2.972682 -17.018545 0
M  V30 36 H 9.292792 5.156813 -16.555691 0
M  V30 37 H 10.651456 4.082905 -16.768305 0
M  V30 38 H 8.720850 4.344482 -13.508730 0
M  V30 39 H 8.529240 5.772368 -14.504061 0
M  V30 40 H 8.940454 6.329757 -12.060848 0
M  V30 41 H 13.196823 8.428227 -12.175590 0
M  V30 42 H 13.321031 9.264769 -9.850238 0
M  V30 43 H 11.997094 8.925941 -7.336674 0
M  V30 44 H 10.099495 7.675241 -6.282859 0
M  V30 45 H 9.148235 5.883640 -10.055238 0
M  V30 46 H 12.638336 7.031143 -13.906963 0
M  V30 47 H 12.623739 5.393125 -13.286436 0
M  V30 48 H 10.897255 6.598897 -15.522075 0
M  V30 49 H 12.128963 5.365873 -15.677524 0
M  V30 50 H 8.232222 0.934057 -13.747012 0
M  V30 51 H 6.079942 0.725308 -12.549510 0
M  V30 52 H 4.087123 -0.173847 -13.716947 0
M  V30 53 H 3.041553 -1.122417 -15.668570 0
M  V30 54 H 3.142934 -1.867119 -18.021029 0
M  V30 55 H 5.276900 -1.703196 -19.285091 0
M  V30 56 H 7.279333 -0.826200 -18.231905 0
M  V30 END ATOM
M  V30 BEGIN BOND
M  V30 1 2 2 1
M  V30 2 2 3 2
M  V30 3 1 4 2
M  V30 4 1 5 4
M  V30 5 1 6 5
M  V30 6 1 7 6
M  V30 7 1 8 7
M  V30 8 1 9 8
M  V30 9 2 10 9
M  V30 10 1 11 10
M  V30 11 2 12 11
M  V30 12 1 13 12
M  V30 13 1 14 13
M  V30 14 1 15 14
M  V30 15 2 16 15
M  V30 16 1 17 16
M  V30 17 1 18 17
M  V30 18 2 19 17
M  V30 19 1 20 11
M  V30 20 2 20 14
M  V30 21 1 20 19
M  V30 22 1 21 10
M  V30 23 1 22 7
M  V30 24 1 22 21
M  V30 25 1 23 2
M  V30 26 2 24 23
M  V30 27 1 25 24
M  V30 28 2 26 25
M  V30 29 1 27 26
M  V30 30 2 28 27
M  V30 31 1 29 28
M  V30 32 2 30 29
M  V30 33 1 31 30
M  V30 34 1 32 23
M  V30 35 1 32 27
M  V30 36 2 32 31
M  V30 37 1 33 4
M  V30 38 1 34 5
M  V30 39 1 35 5
M  V30 40 1 36 6
M  V30 41 1 37 6
M  V30 42 1 38 8
M  V30 43 1 39 8
M  V30 44 1 40 9
M  V30 45 1 41 12
M  V30 46 1 42 13
M  V30 47 1 43 15
M  V30 48 1 44 16
M  V30 49 1 45 19
M  V30 50 1 46 21
M  V30 51 1 47 21
M  V30 52 1 48 22
M  V30 53 1 49 22
M  V30 54 1 50 24
M  V30 55 1 51 25
M  V30 56 1 52 26
M  V30 57 1 53 28
M  V30 58 1 54 29
M  V30 59 1 55 30
M  V30 60 1 56 31
M  V30 END BOND
M  V30 END CTAB
M  END
>  <b_m_subgroup_collapsed>  (2502) 
0

>  <r_i_docking_score>  (2502) 
-5.4904605056907503

>  <s_m_subgroup_title>  (2502) 
glide-dock_SP_D22_pv

>  <s_m_subgroupid>  (2502) 
glide-dock_SP_D22_pv

>  <Molecule ChEMBL ID>  (2502) 
CHEMBL4104216

>  <Standard Type>  (2502) 
Ki

>  <Standard Value>  (2502) 
37.0

>  <label>  (2502) 
1

$$$$
CHEMBL440390
     RDKit          3D

  0  0  0  0  0  0  0  0  0  0999 V3000
M  V30 BEGIN CTAB
M  V30 COUNTS 33 33 0 0 1
M  V30 BEGIN ATOM
M  V30 1 C 9.037284 4.522156 -13.314696 0
M  V30 2 C 9.146741 4.743709 -11.803705 0
M  V30 3 O 9.496957 6.094615 -11.551330 0
M  V30 4 C 9.686228 6.498304 -10.284970 0
M  V30 5 O 9.625319 5.772910 -9.290816 0
M  V30 6 C 10.024907 7.990337 -10.189320 0
M  V30 7 C 11.399212 8.302899 -9.551099 0
M  V30 8 C 11.615892 7.897646 -8.073298 0
M  V30 9 C 10.811945 8.703421 -7.031075 0 CFG=1
M  V30 10 Br 8.894377 8.172155 -7.046816 0
M  V30 11 C 11.282498 8.474738 -5.601705 0
M  V30 12 C 11.285949 7.174929 -5.047115 0
M  V30 13 C 11.689885 6.972271 -3.713448 0
M  V30 14 C 12.086845 8.066377 -2.922694 0
M  V30 15 C 12.085960 9.363072 -3.469357 0
M  V30 16 C 11.684887 9.567300 -4.804803 0
M  V30 17 H 8.767774 3.488986 -13.535277 0
M  V30 18 H 8.275860 5.168691 -13.752007 0
M  V30 19 H 9.985332 4.733750 -13.810624 0
M  V30 20 H 9.899981 4.076688 -11.381445 0
M  V30 21 H 8.196067 4.513839 -11.320603 0
M  V30 22 H 9.220204 8.499286 -9.661448 0
M  V30 23 H 10.009226 8.401735 -11.198635 0
M  V30 24 H 11.592768 9.371327 -9.653707 0
M  V30 25 H 12.168913 7.816987 -10.152603 0
M  V30 26 H 12.673223 8.068692 -7.865489 0
M  V30 27 H 11.465622 6.829427 -7.926350 0
M  V30 28 H 10.851668 9.767052 -7.266789 0
M  V30 29 H 10.965757 6.328467 -5.637820 0
M  V30 30 H 11.685111 5.977231 -3.293808 0
M  V30 31 H 12.387838 7.913396 -1.896917 0
M  V30 32 H 12.389451 10.199602 -2.858026 0
M  V30 33 H 11.679810 10.568124 -5.211086 0
M  V30 END ATOM
M  V30 BEGIN BOND
M  V30 1 1 2 1
M  V30 2 1 3 2
M  V30 3 1 4 3
M  V30 4 2 5 4
M  V30 5 1 6 4
M  V30 6 1 7 6
M  V30 7 1 8 7
M  V30 8 1 9 8
M  V30 9 1 10 9
M  V30 10 1 11 9
M  V30 11 2 12 11
M  V30 12 1 13 12
M  V30 13 2 14 13
M  V30 14 1 15 14
M  V30 15 1 16 11
M  V30 16 2 16 15
M  V30 17 1 17 1
M  V30 18 1 18 1
M  V30 19 1 19 1
M  V30 20 1 20 2
M  V30 21 1 21 2
M  V30 22 1 22 6
M  V30 23 1 23 6
M  V30 24 1 24 7
M  V30 25 1 25 7
M  V30 26 1 26 8
M  V30 27 1 27 8
M  V30 28 1 9 28 CFG=3
M  V30 29 1 29 12
M  V30 30 1 30 13
M  V30 31 1 31 14
M  V30 32 1 32 15
M  V30 33 1 33 16
M  V30 END BOND
M  V30 END CTAB
M  END
>  <b_m_subgroup_collapsed>  (2503) 
0

>  <r_i_docking_score>  (2503) 
-5.4894798854063396

>  <s_m_subgroup_title>  (2503) 
glide-dock_SP_D22_pv

>  <s_m_subgroupid>  (2503) 
glide-dock_SP_D22_pv

>  <Molecule ChEMBL ID>  (2503) 
CHEMBL440390

>  <Standard Type>  (2503) 
Ki

>  <Standard Value>  (2503) 
10000.0

>  <label>  (2503) 
0

$$$$
CHEMBL1080556
     RDKit          3D

  0  0  0  0  0  0  0  0  0  0999 V3000
M  V30 BEGIN CTAB
M  V30 COUNTS 57 61 0 0 1
M  V30 BEGIN ATOM
M  V30 1 C 11.142141 1.539605 -16.432289 0
M  V30 2 C 10.547777 2.272774 -17.651455 0 CFG=1
M  V30 3 C 10.877205 3.784212 -17.722410 0
M  V30 4 N 12.303135 4.008282 -18.016357 0
M  V30 5 C 13.157530 4.812775 -17.325357 0
M  V30 6 O 14.281055 5.106784 -17.736399 0
M  V30 7 C 12.701883 5.379272 -16.007936 0
M  V30 8 C 12.737475 6.769054 -15.765313 0
M  V30 9 C 12.280833 7.288677 -14.534031 0
M  V30 10 C 11.753382 6.438366 -13.534545 0
M  V30 11 C 11.239451 6.972322 -12.252728 0
M  V30 12 C 12.085580 7.772382 -11.451429 0
M  V30 13 C 11.659989 8.275516 -10.207900 0
M  V30 14 C 10.365305 7.986819 -9.743619 0
M  V30 15 C 9.506041 7.193644 -10.524977 0
M  V30 16 C 9.933704 6.690828 -11.769387 0
M  V30 17 Cl 8.816019 5.732906 -12.676914 0
M  V30 18 C 11.769616 5.048569 -13.777656 0
M  V30 19 C 12.274042 4.526574 -14.975123 0
M  V30 20 C 12.667106 3.385571 -19.297359 0
M  V30 21 C 12.364955 1.873216 -19.260540 0
M  V30 22 N 10.952093 1.616017 -18.911930 0
M  V30 23 C 10.117592 0.954273 -19.761438 0
M  V30 24 O 10.448679 0.629095 -20.902508 0
M  V30 25 C 8.725540 0.599518 -19.301512 0
M  V30 26 C 8.516103 -0.141851 -18.116829 0
M  V30 27 C 7.215951 -0.483737 -17.697092 0
M  V30 28 C 6.086150 -0.151080 -18.473440 0
M  V30 29 C 4.674203 -0.376825 -18.343859 0
M  V30 30 C 4.085650 0.173028 -19.450373 0
M  V30 31 N 5.067652 0.734143 -20.251490 0
M  V30 32 C 6.315782 0.563323 -19.685625 0
M  V30 33 C 7.609669 0.938949 -20.097565 0
M  V30 34 H 10.700274 1.908758 -15.505545 0
M  V30 35 H 10.963935 0.465499 -16.464548 0
M  V30 36 H 12.222128 1.671071 -16.367302 0
M  V30 37 H 9.466333 2.241968 -17.527418 0
M  V30 38 H 10.520715 4.281559 -16.822403 0
M  V30 39 H 10.296494 4.238429 -18.527500 0
M  V30 40 H 13.102075 7.444024 -16.526901 0
M  V30 41 H 12.306990 8.356902 -14.372071 0
M  V30 42 H 13.082443 8.007950 -11.795976 0
M  V30 43 H 12.325414 8.887327 -9.615095 0
M  V30 44 H 10.024940 8.370313 -8.792662 0
M  V30 45 H 8.505448 6.974597 -10.173521 0
M  V30 46 H 11.394961 4.357394 -13.042552 0
M  V30 47 H 12.307552 3.461350 -15.099683 0
M  V30 48 H 12.103694 3.861737 -20.101198 0
M  V30 49 H 13.719814 3.526273 -19.544239 0
M  V30 50 H 12.647375 1.434981 -20.219442 0
M  V30 51 H 13.008101 1.384531 -18.527327 0
M  V30 52 H 9.351453 -0.462520 -17.515839 0
M  V30 53 H 7.080651 -1.029029 -16.774168 0
M  V30 54 H 4.182383 -0.893658 -17.531818 0
M  V30 55 H 3.040814 0.205711 -19.731068 0
M  V30 56 H 4.872090 1.167514 -21.142368 0
M  V30 57 H 7.747820 1.470405 -21.028509 0
M  V30 END ATOM
M  V30 BEGIN BOND
M  V30 1 1 2 1
M  V30 2 1 3 2
M  V30 3 1 4 3
M  V30 4 1 5 4
M  V30 5 2 6 5
M  V30 6 1 7 5
M  V30 7 1 8 7
M  V30 8 2 9 8
M  V30 9 1 10 9
M  V30 10 1 11 10
M  V30 11 2 12 11
M  V30 12 1 13 12
M  V30 13 2 14 13
M  V30 14 1 15 14
M  V30 15 1 16 11
M  V30 16 2 16 15
M  V30 17 1 17 16
M  V30 18 2 18 10
M  V30 19 2 19 7
M  V30 20 1 19 18
M  V30 21 1 20 4
M  V30 22 1 21 20
M  V30 23 1 22 2
M  V30 24 1 22 21
M  V30 25 1 23 22
M  V30 26 2 24 23
M  V30 27 1 25 23
M  V30 28 2 26 25
M  V30 29 1 27 26
M  V30 30 2 28 27
M  V30 31 1 29 28
M  V30 32 2 30 29
M  V30 33 1 31 30
M  V30 34 1 32 28
M  V30 35 1 32 31
M  V30 36 1 33 25
M  V30 37 2 33 32
M  V30 38 1 34 1
M  V30 39 1 35 1
M  V30 40 1 36 1
M  V30 41 1 2 37 CFG=1
M  V30 42 1 38 3
M  V30 43 1 39 3
M  V30 44 1 40 8
M  V30 45 1 41 9
M  V30 46 1 42 12
M  V30 47 1 43 13
M  V30 48 1 44 14
M  V30 49 1 45 15
M  V30 50 1 46 18
M  V30 51 1 47 19
M  V30 52 1 48 20
M  V30 53 1 49 20
M  V30 54 1 50 21
M  V30 55 1 51 21
M  V30 56 1 52 26
M  V30 57 1 53 27
M  V30 58 1 54 29
M  V30 59 1 55 30
M  V30 60 1 56 31
M  V30 61 1 57 33
M  V30 END BOND
M  V30 END CTAB
M  END
>  <b_m_subgroup_collapsed>  (2504) 
0

>  <r_i_docking_score>  (2504) 
-5.4875784632941302

>  <s_m_subgroup_title>  (2504) 
glide-dock_SP_D22_pv

>  <s_m_subgroupid>  (2504) 
glide-dock_SP_D22_pv

>  <Molecule ChEMBL ID>  (2504) 
CHEMBL1080556

>  <Standard Type>  (2504) 
Ki

>  <Standard Value>  (2504) 
10000.0

>  <label>  (2504) 
0

$$$$
CHEMBL241099
     RDKit          3D

  0  0  0  0  0  0  0  0  0  0999 V3000
M  V30 BEGIN CTAB
M  V30 COUNTS 40 43 0 0 1
M  V30 BEGIN ATOM
M  V30 1 C 7.496895 0.549679 -15.649002 0
M  V30 2 O 6.503026 1.267686 -14.931865 0
M  V30 3 C 6.885574 2.398876 -14.244597 0
M  V30 4 C 5.917262 2.992428 -13.407588 0
M  V30 5 C 6.229024 4.120035 -12.625496 0
M  V30 6 C 7.522253 4.662830 -12.686810 0
M  V30 7 N 8.121183 5.724569 -12.027247 0
M  V30 8 C 9.428784 5.854637 -12.464693 0
M  V30 9 C 9.708724 4.904067 -13.393429 0
M  V30 10 C 8.523973 4.110995 -13.546686 0
M  V30 11 C 8.180090 2.973252 -14.313622 0
M  V30 12 C 11.074502 4.850046 -13.994618 0
M  V30 13 C 11.719695 6.265042 -13.921568 0
M  V30 14 N 11.502947 6.972360 -12.646375 0
M  V30 15 C 10.401837 6.834474 -12.003653 0
M  V30 16 C 10.211071 7.547507 -10.753469 0
M  V30 17 C 10.866783 7.332789 -9.572970 0
M  V30 18 C 10.308500 8.221687 -8.622734 0
M  V30 19 N 10.709552 8.307778 -7.213166 0 CHG=1
M  V30 20 O 10.458835 9.340480 -6.601486 0
M  V30 21 O 11.285922 7.340451 -6.727875 0 CHG=-1
M  V30 22 C 9.346140 8.972460 -9.228277 0
M  V30 23 N 9.286068 8.571581 -10.555489 0
M  V30 24 C 8.383348 9.135616 -11.546860 0
M  V30 25 H 7.051815 -0.347433 -16.078588 0
M  V30 26 H 8.310938 0.232019 -14.994749 0
M  V30 27 H 7.902160 1.142578 -16.470575 0
M  V30 28 H 4.929203 2.560215 -13.348186 0
M  V30 29 H 5.491651 4.552526 -11.964602 0
M  V30 30 H 7.690227 6.328224 -11.331478 0
M  V30 31 H 8.946062 2.551025 -14.944673 0
M  V30 32 H 11.691024 4.136062 -13.448831 0
M  V30 33 H 11.036609 4.504430 -15.027910 0
M  V30 34 H 12.789271 6.182825 -14.116929 0
M  V30 35 H 11.322088 6.878307 -14.731104 0
M  V30 36 H 11.644238 6.604704 -9.415013 0
M  V30 37 H 8.707075 9.756839 -8.842588 0
M  V30 38 H 7.650763 9.773721 -11.054145 0
M  V30 39 H 7.838737 8.349244 -12.064989 0
M  V30 40 H 8.929002 9.718369 -12.286397 0
M  V30 END ATOM
M  V30 BEGIN BOND
M  V30 1 1 2 1
M  V30 2 1 3 2
M  V30 3 1 4 3
M  V30 4 2 5 4
M  V30 5 1 6 5
M  V30 6 1 7 6
M  V30 7 1 8 7
M  V30 8 2 9 8
M  V30 9 2 10 6
M  V30 10 1 10 9
M  V30 11 2 11 3
M  V30 12 1 11 10
M  V30 13 1 12 9
M  V30 14 1 13 12
M  V30 15 1 14 13
M  V30 16 1 15 8
M  V30 17 2 15 14
M  V30 18 1 16 15
M  V30 19 2 17 16
M  V30 20 1 18 17
M  V30 21 1 19 18
M  V30 22 2 20 19
M  V30 23 1 21 19
M  V30 24 2 22 18
M  V30 25 1 23 16
M  V30 26 1 23 22
M  V30 27 1 24 23
M  V30 28 1 25 1
M  V30 29 1 26 1
M  V30 30 1 27 1
M  V30 31 1 28 4
M  V30 32 1 29 5
M  V30 33 1 30 7
M  V30 34 1 31 11
M  V30 35 1 32 12
M  V30 36 1 33 12
M  V30 37 1 34 13
M  V30 38 1 35 13
M  V30 39 1 36 17
M  V30 40 1 37 22
M  V30 41 1 38 24
M  V30 42 1 39 24
M  V30 43 1 40 24
M  V30 END BOND
M  V30 END CTAB
M  END
>  <b_m_subgroup_collapsed>  (2505) 
0

>  <r_i_docking_score>  (2505) 
-5.4828314851863498

>  <s_m_subgroup_title>  (2505) 
glide-dock_SP_D22_pv

>  <s_m_subgroupid>  (2505) 
glide-dock_SP_D22_pv

>  <Molecule ChEMBL ID>  (2505) 
CHEMBL241099

>  <Standard Type>  (2505) 
Ki

>  <Standard Value>  (2505) 
200000.0

>  <label>  (2505) 
0

$$$$
CHEMBL300647
     RDKit          3D

  0  0  0  0  0  0  0  0  0  0999 V3000
M  V30 BEGIN CTAB
M  V30 COUNTS 47 50 0 0 1
M  V30 BEGIN ATOM
M  V30 1 C 12.282927 3.240175 -16.038120 0
M  V30 2 N 11.286066 2.564268 -15.175316 0 CHG=1
M  V30 3 C 10.637662 3.518255 -14.236935 0
M  V30 4 C 10.352842 1.689860 -15.944784 0 CFG=2
M  V30 5 C 9.316112 2.489076 -16.709358 0
M  V30 6 C 8.010013 2.173181 -16.762852 0
M  V30 7 C 7.327286 0.972547 -16.097677 0 CFG=2
M  V30 8 C 8.463103 -0.027328 -15.736143 0
M  V30 9 C 9.686768 0.619960 -15.055659 0
M  V30 10 C 6.298287 0.346194 -17.102325 0
M  V30 11 C 6.198528 0.821218 -18.445635 0
M  V30 12 C 5.246266 0.325989 -19.356279 0
M  V30 13 C 4.372680 -0.696958 -18.969378 0
M  V30 14 C 4.487572 -1.233649 -17.678082 0
M  V30 15 C 5.441210 -0.742442 -16.760059 0
M  V30 16 C 5.447365 -1.427753 -15.475217 0
M  V30 17 C 5.672980 -0.894008 -14.273956 0
M  V30 18 C 5.907937 0.512199 -13.956746 0
M  V30 19 C 5.308049 0.951315 -12.760306 0
M  V30 20 C 5.354551 2.295577 -12.371562 0
M  V30 21 C 6.086329 3.205390 -13.144045 0
M  V30 22 Cl 6.219960 4.849101 -12.646128 0
M  V30 23 C 6.743271 2.761503 -14.306754 0
M  V30 24 C 6.628895 1.422564 -14.779353 0
M  V30 25 H 11.813489 3.959020 -16.712334 0
M  V30 26 H 13.013038 3.779563 -15.432003 0
M  V30 27 H 12.835654 2.515786 -16.641453 0
M  V30 28 H 10.022583 4.249491 -14.763730 0
M  V30 29 H 10.011312 3.011890 -13.502080 0
M  V30 30 H 11.392588 4.070884 -13.673868 0
M  V30 31 H 10.936606 1.160305 -16.699085 0
M  V30 32 H 9.652372 3.372677 -17.228842 0
M  V30 33 H 7.366290 2.857566 -17.290457 0
M  V30 34 H 8.090014 -0.770459 -15.048126 0
M  V30 35 H 8.793104 -0.553398 -16.631500 0
M  V30 36 H 10.415744 -0.149993 -14.799630 0
M  V30 37 H 9.351351 1.042367 -14.110206 0
M  V30 38 H 6.854279 1.572918 -18.848101 0
M  V30 39 H 5.190122 0.726705 -20.359369 0
M  V30 40 H 3.635880 -1.079179 -19.657856 0
M  V30 41 H 3.825813 -2.041963 -17.393681 0
M  V30 42 H 5.308367 -2.501423 -15.523180 0
M  V30 43 H 5.703033 -1.583328 -13.446888 0
M  V30 44 H 4.813872 0.237682 -12.126801 0
M  V30 45 H 4.887148 2.619686 -11.456728 0
M  V30 46 H 7.333401 3.496427 -14.819537 0
M  V30 47 H 11.830441 1.932717 -14.602572 0
M  V30 END ATOM
M  V30 BEGIN BOND
M  V30 1 1 2 1
M  V30 2 1 3 2
M  V30 3 1 4 2
M  V30 4 1 5 4
M  V30 5 2 6 5
M  V30 6 1 7 6
M  V30 7 1 7 8 CFG=1
M  V30 8 1 9 4
M  V30 9 1 9 8
M  V30 10 1 10 7
M  V30 11 2 11 10
M  V30 12 1 12 11
M  V30 13 2 13 12
M  V30 14 1 14 13
M  V30 15 1 15 10
M  V30 16 2 15 14
M  V30 17 1 16 15
M  V30 18 2 17 16
M  V30 19 1 18 17
M  V30 20 1 19 18
M  V30 21 2 20 19
M  V30 22 1 21 20
M  V30 23 1 22 21
M  V30 24 2 23 21
M  V30 25 1 24 7
M  V30 26 2 24 18
M  V30 27 1 24 23
M  V30 28 1 25 1
M  V30 29 1 26 1
M  V30 30 1 27 1
M  V30 31 1 28 3
M  V30 32 1 29 3
M  V30 33 1 30 3
M  V30 34 1 4 31 CFG=3
M  V30 35 1 32 5
M  V30 36 1 33 6
M  V30 37 1 34 8
M  V30 38 1 35 8
M  V30 39 1 36 9
M  V30 40 1 37 9
M  V30 41 1 38 11
M  V30 42 1 39 12
M  V30 43 1 40 13
M  V30 44 1 41 14
M  V30 45 1 42 16
M  V30 46 1 43 17
M  V30 47 1 44 19
M  V30 48 1 45 20
M  V30 49 1 46 23
M  V30 50 1 47 2
M  V30 END BOND
M  V30 END CTAB
M  END
>  <b_m_subgroup_collapsed>  (2506) 
0

>  <r_i_docking_score>  (2506) 
-5.4814633415647496

>  <s_m_subgroup_title>  (2506) 
glide-dock_SP_D22_pv

>  <s_m_subgroupid>  (2506) 
glide-dock_SP_D22_pv

>  <Molecule ChEMBL ID>  (2506) 
CHEMBL300647

>  <Standard Type>  (2506) 
Ki

>  <Standard Value>  (2506) 
0.66

>  <label>  (2506) 
1

$$$$
CHEMBL10270
     RDKit          3D

  0  0  0  0  0  0  0  0  0  0999 V3000
M  V30 BEGIN CTAB
M  V30 COUNTS 40 42 0 0 1
M  V30 BEGIN ATOM
M  V30 1 C 5.148499 4.355803 -13.558111 0
M  V30 2 C 5.580146 4.560895 -12.306432 0
M  V30 3 C 6.981044 4.258953 -11.836970 0
M  V30 4 N 7.686005 5.477649 -11.373261 0 CFG=2 CHG=1
M  V30 5 C 7.861007 6.526926 -12.398528 0
M  V30 6 C 8.971832 7.412742 -11.855143 0
M  V30 7 C 9.909167 6.426995 -11.150527 0 CFG=1
M  V30 8 C 10.664185 7.069135 -9.988019 0
M  V30 9 C 10.161203 6.964582 -8.669896 0
M  V30 10 C 10.795309 7.627131 -7.602642 0
M  V30 11 C 11.956697 8.370872 -7.846766 0
M  V30 12 C 12.491446 8.423864 -9.142953 0
M  V30 13 C 11.859647 7.784580 -10.235683 0
M  V30 14 O 12.351431 7.785169 -11.526820 0
M  V30 15 C 13.498026 8.571714 -11.844889 0
M  V30 16 C 8.941157 6.120695 -8.402297 0
M  V30 17 C 8.946583 4.869114 -9.278258 0
M  V30 18 C 9.020807 5.212589 -10.781295 0 CFG=1
M  V30 19 H 5.804399 3.961487 -14.320484 0
M  V30 20 H 4.131647 4.572379 -13.846781 0
M  V30 21 H 4.909294 4.958680 -11.558382 0
M  V30 22 H 6.889126 3.546279 -11.019344 0
M  V30 23 H 7.548386 3.772307 -12.631281 0
M  V30 24 H 8.170856 6.077336 -13.341866 0
M  V30 25 H 6.939952 7.083093 -12.575426 0
M  V30 26 H 9.465679 8.005401 -12.628227 0
M  V30 27 H 8.541113 8.103902 -11.128620 0
M  V30 28 H 10.634656 6.082211 -11.887856 0
M  V30 29 H 10.399030 7.563856 -6.598839 0
M  V30 30 H 12.459962 8.881499 -7.036103 0
M  V30 31 H 13.409124 8.969030 -9.260523 0
M  V30 32 H 13.828127 8.317352 -12.850193 0
M  V30 33 H 14.337114 8.398999 -11.173553 0
M  V30 34 H 13.285994 9.636427 -11.847601 0
M  V30 35 H 8.879225 5.851326 -7.347357 0
M  V30 36 H 8.086046 6.746742 -8.630888 0
M  V30 37 H 9.822727 4.274301 -9.013855 0
M  V30 38 H 8.086272 4.241022 -9.054773 0
M  V30 39 H 9.440594 4.343089 -11.290939 0
M  V30 40 H 7.130005 5.922836 -10.647655 0
M  V30 END ATOM
M  V30 BEGIN BOND
M  V30 1 2 2 1
M  V30 2 1 3 2
M  V30 3 1 4 3
M  V30 4 1 5 4
M  V30 5 1 6 5
M  V30 6 1 7 6
M  V30 7 1 8 7
M  V30 8 2 9 8
M  V30 9 1 10 9
M  V30 10 2 11 10
M  V30 11 1 12 11
M  V30 12 1 13 8
M  V30 13 2 13 12
M  V30 14 1 14 13
M  V30 15 1 15 14
M  V30 16 1 16 9
M  V30 17 1 17 16
M  V30 18 1 18 4
M  V30 19 1 18 7
M  V30 20 1 18 17
M  V30 21 1 19 1
M  V30 22 1 20 1
M  V30 23 1 21 2
M  V30 24 1 22 3
M  V30 25 1 23 3
M  V30 26 1 24 5
M  V30 27 1 25 5
M  V30 28 1 26 6
M  V30 29 1 27 6
M  V30 30 1 7 28 CFG=3
M  V30 31 1 29 10
M  V30 32 1 30 11
M  V30 33 1 31 12
M  V30 34 1 32 15
M  V30 35 1 33 15
M  V30 36 1 34 15
M  V30 37 1 35 16
M  V30 38 1 36 16
M  V30 39 1 37 17
M  V30 40 1 38 17
M  V30 41 1 18 39 CFG=3
M  V30 42 1 4 40 CFG=1
M  V30 END BOND
M  V30 END CTAB
M  END
>  <b_m_subgroup_collapsed>  (2507) 
0

>  <r_i_docking_score>  (2507) 
-5.4756805099842198

>  <s_m_subgroup_title>  (2507) 
glide-dock_SP_D22_pv

>  <s_m_subgroupid>  (2507) 
glide-dock_SP_D22_pv

>  <Molecule ChEMBL ID>  (2507) 
CHEMBL10270

>  <Standard Type>  (2507) 
Ki

>  <Standard Value>  (2507) 
6.7

>  <label>  (2507) 
1

$$$$
CHEMBL440390
     RDKit          3D

  0  0  0  0  0  0  0  0  0  0999 V3000
M  V30 BEGIN CTAB
M  V30 COUNTS 33 33 0 0 1
M  V30 BEGIN ATOM
M  V30 1 C 7.163065 4.775721 -11.857917 0
M  V30 2 C 8.685506 4.846219 -12.013759 0
M  V30 3 O 9.286316 5.379588 -10.841762 0
M  V30 4 C 9.528052 6.702385 -10.742075 0
M  V30 5 O 9.292514 7.546469 -11.607725 0
M  V30 6 C 10.227639 7.083032 -9.437258 0
M  V30 7 C 9.423916 6.741415 -8.166052 0
M  V30 8 C 10.270913 6.725910 -6.875449 0
M  V30 9 C 10.669751 8.110844 -6.310700 0 CFG=2
M  V30 10 Br 12.054255 8.972140 -7.449260 0
M  V30 11 C 11.287210 8.111350 -4.915585 0
M  V30 12 C 11.685354 6.924088 -4.256908 0
M  V30 13 C 12.245409 6.973825 -2.966091 0
M  V30 14 C 12.446112 8.212712 -2.331663 0
M  V30 15 C 12.075438 9.398140 -2.989812 0
M  V30 16 C 11.493069 9.349662 -4.269484 0
M  V30 17 H 6.695534 4.405234 -12.769235 0
M  V30 18 H 6.888052 4.102442 -11.047533 0
M  V30 19 H 6.739816 5.756800 -11.638596 0
M  V30 20 H 8.954749 5.428976 -12.896193 0
M  V30 21 H 9.081814 3.843091 -12.173753 0
M  V30 22 H 10.438435 8.151000 -9.469330 0
M  V30 23 H 11.189254 6.571169 -9.418060 0
M  V30 24 H 8.978199 5.752013 -8.276823 0
M  V30 25 H 8.582218 7.428102 -8.059707 0
M  V30 26 H 11.154187 6.102202 -7.016455 0
M  V30 27 H 9.662761 6.224232 -6.121509 0
M  V30 28 H 9.798339 8.767262 -6.305140 0
M  V30 29 H 11.555165 5.958118 -4.719715 0
M  V30 30 H 12.527472 6.058040 -2.466304 0
M  V30 31 H 12.877795 8.256801 -1.342585 0
M  V30 32 H 12.216960 10.351829 -2.505103 0
M  V30 33 H 11.207855 10.270020 -4.758309 0
M  V30 END ATOM
M  V30 BEGIN BOND
M  V30 1 1 2 1
M  V30 2 1 3 2
M  V30 3 1 4 3
M  V30 4 2 5 4
M  V30 5 1 6 4
M  V30 6 1 7 6
M  V30 7 1 8 7
M  V30 8 1 9 8
M  V30 9 1 10 9
M  V30 10 1 11 9
M  V30 11 2 12 11
M  V30 12 1 13 12
M  V30 13 2 14 13
M  V30 14 1 15 14
M  V30 15 1 16 11
M  V30 16 2 16 15
M  V30 17 1 17 1
M  V30 18 1 18 1
M  V30 19 1 19 1
M  V30 20 1 20 2
M  V30 21 1 21 2
M  V30 22 1 22 6
M  V30 23 1 23 6
M  V30 24 1 24 7
M  V30 25 1 25 7
M  V30 26 1 26 8
M  V30 27 1 27 8
M  V30 28 1 9 28 CFG=1
M  V30 29 1 29 12
M  V30 30 1 30 13
M  V30 31 1 31 14
M  V30 32 1 32 15
M  V30 33 1 33 16
M  V30 END BOND
M  V30 END CTAB
M  END
>  <b_m_subgroup_collapsed>  (2508) 
0

>  <r_i_docking_score>  (2508) 
-5.4741017028772596

>  <s_m_subgroup_title>  (2508) 
glide-dock_SP_D22_pv

>  <s_m_subgroupid>  (2508) 
glide-dock_SP_D22_pv

>  <Molecule ChEMBL ID>  (2508) 
CHEMBL440390

>  <Standard Type>  (2508) 
Ki

>  <Standard Value>  (2508) 
10000.0

>  <label>  (2508) 
0

$$$$
CHEMBL1949726
     RDKit          3D

  0  0  0  0  0  0  0  0  0  0999 V3000
M  V30 BEGIN CTAB
M  V30 COUNTS 48 51 0 0 1
M  V30 BEGIN ATOM
M  V30 1 C 13.089175 6.239724 -17.150053 0
M  V30 2 C 11.920304 5.609939 -16.366179 0 CFG=2
M  V30 3 C 12.403584 5.028441 -15.018931 0
M  V30 4 C 11.282091 4.592123 -14.127852 0
M  V30 5 C 10.654730 3.366188 -14.075935 0
M  V30 6 N 9.718537 3.404366 -13.054905 0
M  V30 7 C 9.676160 4.640920 -12.455626 0
M  V30 8 C 8.895370 5.161358 -11.409716 0
M  V30 9 C 9.110946 6.484419 -10.983437 0
M  V30 10 C 10.108418 7.265673 -11.598087 0
M  V30 11 C 10.886272 6.731279 -12.644829 0
M  V30 12 C 10.677172 5.409623 -13.109642 0
M  V30 13 C 10.843307 2.108977 -14.879940 0
M  V30 14 C 9.694677 1.874576 -15.856442 0
M  V30 15 C 8.438535 1.537295 -15.298671 0
M  V30 16 C 7.311762 1.325548 -16.108244 0
M  V30 17 C 7.427473 1.436114 -17.501495 0
M  V30 18 C 8.671698 1.751289 -18.074137 0
M  V30 19 C 9.819522 1.966399 -17.274275 0
M  V30 20 C 11.130649 2.219875 -18.028210 0
M  V30 21 C 11.956038 3.472541 -17.666571 0
M  V30 22 N 11.145401 4.615083 -17.166122 0 CFG=2 CHG=1
M  V30 23 C 10.304829 5.241816 -18.215860 0
M  V30 24 H 13.580137 7.008579 -16.553585 0
M  V30 25 H 12.754292 6.720486 -18.068542 0
M  V30 26 H 13.850473 5.505015 -17.411678 0
M  V30 27 H 11.233415 6.421370 -16.119787 0
M  V30 28 H 13.121996 4.221183 -15.147622 0
M  V30 29 H 12.974180 5.801850 -14.503035 0
M  V30 30 H 9.194961 2.590744 -12.760798 0
M  V30 31 H 8.134352 4.559507 -10.933997 0
M  V30 32 H 8.504001 6.900976 -10.189948 0
M  V30 33 H 10.273495 8.279584 -11.263994 0
M  V30 34 H 11.647901 7.342718 -13.105055 0
M  V30 35 H 11.809177 2.093608 -15.370260 0
M  V30 36 H 10.875127 1.257332 -14.200072 0
M  V30 37 H 8.328714 1.436358 -14.229774 0
M  V30 38 H 6.363115 1.069247 -15.659917 0
M  V30 39 H 6.566535 1.258253 -18.128578 0
M  V30 40 H 8.739429 1.807325 -19.150888 0
M  V30 41 H 11.757545 1.334707 -17.911766 0
M  V30 42 H 10.915883 2.267139 -19.096792 0
M  V30 43 H 12.708995 3.182960 -16.940796 0
M  V30 44 H 12.540063 3.783441 -18.533245 0
M  V30 45 H 10.912726 5.664862 -19.015041 0
M  V30 46 H 9.690193 6.040075 -17.798161 0
M  V30 47 H 9.624468 4.517979 -18.664297 0
M  V30 48 H 10.494354 4.208477 -16.507065 0
M  V30 END ATOM
M  V30 BEGIN BOND
M  V30 1 1 2 1
M  V30 2 1 3 2
M  V30 3 1 4 3
M  V30 4 2 5 4
M  V30 5 1 6 5
M  V30 6 1 7 6
M  V30 7 2 8 7
M  V30 8 1 9 8
M  V30 9 2 10 9
M  V30 10 1 11 10
M  V30 11 1 12 4
M  V30 12 1 12 7
M  V30 13 2 12 11
M  V30 14 1 13 5
M  V30 15 1 14 13
M  V30 16 2 15 14
M  V30 17 1 16 15
M  V30 18 2 17 16
M  V30 19 1 18 17
M  V30 20 1 19 14
M  V30 21 2 19 18
M  V30 22 1 20 19
M  V30 23 1 21 20
M  V30 24 1 22 2
M  V30 25 1 22 21
M  V30 26 1 23 22
M  V30 27 1 24 1
M  V30 28 1 25 1
M  V30 29 1 26 1
M  V30 30 1 2 27 CFG=1
M  V30 31 1 28 3
M  V30 32 1 29 3
M  V30 33 1 30 6
M  V30 34 1 31 8
M  V30 35 1 32 9
M  V30 36 1 33 10
M  V30 37 1 34 11
M  V30 38 1 35 13
M  V30 39 1 36 13
M  V30 40 1 37 15
M  V30 41 1 38 16
M  V30 42 1 39 17
M  V30 43 1 40 18
M  V30 44 1 41 20
M  V30 45 1 42 20
M  V30 46 1 43 21
M  V30 47 1 44 21
M  V30 48 1 45 23
M  V30 49 1 46 23
M  V30 50 1 47 23
M  V30 51 1 22 48 CFG=1
M  V30 END BOND
M  V30 END CTAB
M  END
>  <b_m_subgroup_collapsed>  (2509) 
0

>  <r_i_docking_score>  (2509) 
-5.4729558394811502

>  <s_m_subgroup_title>  (2509) 
glide-dock_SP_D22_pv

>  <s_m_subgroupid>  (2509) 
glide-dock_SP_D22_pv

>  <Molecule ChEMBL ID>  (2509) 
CHEMBL1949726

>  <Standard Type>  (2509) 
Ki

>  <Standard Value>  (2509) 
10000.0

>  <label>  (2509) 
0

$$$$
CHEMBL5290570
     RDKit          3D

  0  0  0  0  0  0  0  0  0  0999 V3000
M  V30 BEGIN CTAB
M  V30 COUNTS 46 48 0 0 1
M  V30 BEGIN ATOM
M  V30 1 C 11.610707 0.775130 -19.231598 0
M  V30 2 C 12.085966 0.827399 -17.774305 0
M  V30 3 O 11.062735 1.327882 -16.923622 0
M  V30 4 C 10.134045 0.503526 -16.401096 0
M  V30 5 O 10.086021 -0.705875 -16.633064 0
M  V30 6 C 9.150139 1.194083 -15.551507 0
M  V30 7 S 7.688727 0.290496 -15.254810 0
M  V30 8 C 7.025497 1.592730 -14.306038 0
M  V30 9 N 5.803152 1.497740 -13.707272 0
M  V30 10 C 5.481947 2.607379 -13.046865 0
M  V30 11 N 6.192280 3.724646 -12.918857 0
M  V30 12 C 7.419161 3.803168 -13.485772 0
M  V30 13 N 8.162269 4.972815 -13.274714 0
M  V30 14 C 8.022566 5.659860 -11.993546 0 CFG=1
M  V30 15 C 8.475409 4.831967 -10.787225 0
M  V30 16 C 8.856841 5.868135 -9.724113 0
M  V30 17 N 8.886023 7.175031 -10.417187 0 CFG=1 CHG=1
M  V30 18 C 9.906178 8.133954 -9.942255 0
M  V30 19 C 9.580853 8.661451 -8.537712 0
M  V30 20 C 8.887979 6.909074 -11.866469 0
M  V30 21 C 7.921718 2.706548 -14.246850 0
M  V30 22 C 9.182712 2.438624 -14.938079 0
M  V30 23 C 10.360963 3.379625 -14.956190 0
M  V30 24 H 12.410562 0.428597 -19.885984 0
M  V30 25 H 10.767325 0.094373 -19.350138 0
M  V30 26 H 11.299363 1.760966 -19.577473 0
M  V30 27 H 12.945494 1.493065 -17.695360 0
M  V30 28 H 12.424741 -0.156308 -17.446865 0
M  V30 29 H 4.513993 2.603422 -12.568767 0
M  V30 30 H 6.981012 5.957429 -11.852205 0
M  V30 31 H 7.686018 4.172256 -10.433928 0
M  V30 32 H 9.344697 4.221499 -11.038428 0
M  V30 33 H 8.116825 5.907004 -8.922915 0
M  V30 34 H 9.821749 5.619020 -9.279816 0
M  V30 35 H 10.893310 7.669618 -9.960813 0
M  V30 36 H 9.943312 8.972324 -10.636819 0
M  V30 37 H 10.337816 9.372309 -8.207289 0
M  V30 38 H 8.615990 9.170630 -8.519788 0
M  V30 39 H 9.545273 7.857057 -7.802382 0
M  V30 40 H 9.906796 6.716087 -12.207603 0
M  V30 41 H 8.485583 7.752380 -12.429234 0
M  V30 42 H 10.321674 4.049656 -15.815217 0
M  V30 43 H 10.418211 3.985801 -14.055130 0
M  V30 44 H 11.310577 2.846507 -14.988783 0
M  V30 45 H 9.079638 4.982121 -13.693686 0
M  V30 46 H 7.948306 7.570777 -10.246868 0
M  V30 END ATOM
M  V30 BEGIN BOND
M  V30 1 1 2 1
M  V30 2 1 3 2
M  V30 3 1 4 3
M  V30 4 2 5 4
M  V30 5 1 6 4
M  V30 6 1 7 6
M  V30 7 1 8 7
M  V30 8 2 9 8
M  V30 9 1 10 9
M  V30 10 2 11 10
M  V30 11 1 12 11
M  V30 12 1 13 12
M  V30 13 1 14 13
M  V30 14 1 15 14
M  V30 15 1 16 15
M  V30 16 1 17 16
M  V30 17 1 18 17
M  V30 18 1 19 18
M  V30 19 1 20 14
M  V30 20 1 20 17
M  V30 21 1 21 8
M  V30 22 2 21 12
M  V30 23 2 22 6
M  V30 24 1 22 21
M  V30 25 1 23 22
M  V30 26 1 24 1
M  V30 27 1 25 1
M  V30 28 1 26 1
M  V30 29 1 27 2
M  V30 30 1 28 2
M  V30 31 1 29 10
M  V30 32 1 14 30 CFG=1
M  V30 33 1 31 15
M  V30 34 1 32 15
M  V30 35 1 33 16
M  V30 36 1 34 16
M  V30 37 1 35 18
M  V30 38 1 36 18
M  V30 39 1 37 19
M  V30 40 1 38 19
M  V30 41 1 39 19
M  V30 42 1 40 20
M  V30 43 1 41 20
M  V30 44 1 42 23
M  V30 45 1 43 23
M  V30 46 1 44 23
M  V30 47 1 45 13
M  V30 48 1 17 46 CFG=3
M  V30 END BOND
M  V30 END CTAB
M  END
>  <b_m_subgroup_collapsed>  (2510) 
0

>  <r_i_docking_score>  (2510) 
-5.4724014134489201

>  <s_m_subgroup_title>  (2510) 
glide-dock_SP_D22_pv

>  <s_m_subgroupid>  (2510) 
glide-dock_SP_D22_pv

>  <Molecule ChEMBL ID>  (2510) 
CHEMBL5290570

>  <Standard Type>  (2510) 
Ki

>  <Standard Value>  (2510) 
10000.0

>  <label>  (2510) 
0

$$$$
CHEMBL43819
     RDKit          3D

  0  0  0  0  0  0  0  0  0  0999 V3000
M  V30 BEGIN CTAB
M  V30 COUNTS 45 48 0 0 1
M  V30 BEGIN ATOM
M  V30 1 C 9.947369 5.515426 -18.397594 0
M  V30 2 N 10.729332 5.539254 -17.142067 0 CFG=2 CHG=1
M  V30 3 C 11.938082 6.393114 -17.232870 0
M  V30 4 C 12.563493 6.554937 -15.842542 0
M  V30 5 C 12.869213 5.182871 -15.205668 0
M  V30 6 C 11.652087 4.231255 -15.215595 0 CFG=1
M  V30 7 C 10.581266 4.473753 -14.152090 0
M  V30 8 C 9.473662 3.665361 -13.971244 0
M  V30 9 C 9.032868 2.449618 -14.649124 0
M  V30 10 C 9.930402 1.391842 -14.917811 0
M  V30 11 C 9.509373 0.260221 -15.639950 0
M  V30 12 C 8.179085 0.172431 -16.088022 0
M  V30 13 C 7.263055 1.191054 -15.779893 0
M  V30 14 C 7.687373 2.318928 -15.054624 0
M  V30 15 N 8.686472 4.175556 -12.959667 0
M  V30 16 C 9.271877 5.275596 -12.389359 0
M  V30 17 C 8.864666 6.089173 -11.318432 0
M  V30 18 C 9.684437 7.147173 -10.901510 0
M  V30 19 C 10.901521 7.375645 -11.562634 0
M  V30 20 C 11.286364 6.572763 -12.653489 0
M  V30 21 C 10.488698 5.488076 -13.108594 0
M  V30 22 C 11.082521 4.183949 -16.656395 0
M  V30 23 H 10.523426 5.073909 -19.212580 0
M  V30 24 H 9.031214 4.936406 -18.273222 0
M  V30 25 H 9.659176 6.525515 -18.690226 0
M  V30 26 H 11.685759 7.372097 -17.636497 0
M  V30 27 H 12.656284 5.948780 -17.924936 0
M  V30 28 H 11.876067 7.133451 -15.227592 0
M  V30 29 H 13.477856 7.146093 -15.910048 0
M  V30 30 H 13.286332 5.274226 -14.206166 0
M  V30 31 H 13.663184 4.722268 -15.797024 0
M  V30 32 H 12.074223 3.247869 -15.013787 0
M  V30 33 H 10.949389 1.438513 -14.568416 0
M  V30 34 H 10.203734 -0.540040 -15.847901 0
M  V30 35 H 7.848567 -0.688955 -16.648296 0
M  V30 36 H 6.236981 1.106136 -16.106562 0
M  V30 37 H 6.976120 3.100895 -14.836075 0
M  V30 38 H 7.827587 3.741995 -12.652562 0
M  V30 39 H 7.927333 5.910671 -10.808014 0
M  V30 40 H 9.376485 7.775045 -10.076879 0
M  V30 41 H 11.543852 8.179148 -11.233477 0
M  V30 42 H 12.238322 6.792440 -13.105308 0
M  V30 43 H 11.823801 3.751379 -17.330856 0
M  V30 44 H 10.213461 3.532541 -16.721268 0
M  V30 45 H 10.131481 5.950437 -16.437849 0
M  V30 END ATOM
M  V30 BEGIN BOND
M  V30 1 1 2 1
M  V30 2 1 3 2
M  V30 3 1 4 3
M  V30 4 1 5 4
M  V30 5 1 6 5
M  V30 6 1 7 6
M  V30 7 2 8 7
M  V30 8 1 9 8
M  V30 9 2 10 9
M  V30 10 1 11 10
M  V30 11 2 12 11
M  V30 12 1 13 12
M  V30 13 1 14 9
M  V30 14 2 14 13
M  V30 15 1 15 8
M  V30 16 1 16 15
M  V30 17 2 17 16
M  V30 18 1 18 17
M  V30 19 2 19 18
M  V30 20 1 20 19
M  V30 21 1 21 7
M  V30 22 1 21 16
M  V30 23 2 21 20
M  V30 24 1 22 2
M  V30 25 1 22 6
M  V30 26 1 23 1
M  V30 27 1 24 1
M  V30 28 1 25 1
M  V30 29 1 26 3
M  V30 30 1 27 3
M  V30 31 1 28 4
M  V30 32 1 29 4
M  V30 33 1 30 5
M  V30 34 1 31 5
M  V30 35 1 6 32 CFG=1
M  V30 36 1 33 10
M  V30 37 1 34 11
M  V30 38 1 35 12
M  V30 39 1 36 13
M  V30 40 1 37 14
M  V30 41 1 38 15
M  V30 42 1 39 17
M  V30 43 1 40 18
M  V30 44 1 41 19
M  V30 45 1 42 20
M  V30 46 1 43 22
M  V30 47 1 44 22
M  V30 48 1 2 45 CFG=1
M  V30 END BOND
M  V30 END CTAB
M  END
>  <b_m_subgroup_collapsed>  (2511) 
0

>  <r_i_docking_score>  (2511) 
-5.4712933968491404

>  <s_m_subgroup_title>  (2511) 
glide-dock_SP_D22_pv

>  <s_m_subgroupid>  (2511) 
glide-dock_SP_D22_pv

>  <Molecule ChEMBL ID>  (2511) 
CHEMBL43819

>  <Standard Type>  (2511) 
Ki

>  <Standard Value>  (2511) 
28.0

>  <label>  (2511) 
1

$$$$
CHEMBL76475
     RDKit          3D

  0  0  0  0  0  0  0  0  0  0999 V3000
M  V30 BEGIN CTAB
M  V30 COUNTS 49 50 0 0 1
M  V30 BEGIN ATOM
M  V30 1 C 5.243719 1.554184 -13.005994 0
M  V30 2 C 5.580995 3.027920 -13.062828 0
M  V30 3 C 5.986938 3.753519 -12.008682 0
M  V30 4 C 6.328764 5.226538 -12.053683 0
M  V30 5 N 7.772838 5.431458 -11.788088 0 CFG=2 CHG=1
M  V30 6 C 8.127046 5.372164 -10.341862 0
M  V30 7 C 9.636401 5.498927 -10.133848 0
M  V30 8 C 10.188122 6.794323 -10.761038 0 CFG=2
M  V30 9 C 9.717790 8.086864 -10.063674 0
M  V30 10 O 10.166471 8.124935 -8.728366 0
M  V30 11 C 11.419882 8.761855 -8.565177 0
M  V30 12 C 11.762414 8.844454 -7.099368 0
M  V30 13 C 11.286297 7.992877 -6.175646 0
M  V30 14 C 11.571106 8.078551 -4.746171 0
M  V30 15 C 11.703382 6.890938 -4.001951 0
M  V30 16 C 12.068296 6.940320 -2.645729 0
M  V30 17 C 12.263928 8.183622 -2.018700 0
M  V30 18 C 12.086250 9.372668 -2.745487 0
M  V30 19 C 11.767839 9.323404 -4.112278 0
M  V30 20 C 9.807144 6.822180 -12.241086 0
M  V30 21 C 8.289604 6.654242 -12.450982 0
M  V30 22 H 5.942509 0.984714 -13.620266 0
M  V30 23 H 5.291938 1.173239 -11.984598 0
M  V30 24 H 4.236156 1.385595 -13.388620 0
M  V30 25 H 5.483439 3.499053 -14.030074 0
M  V30 26 H 6.086150 3.278322 -11.048404 0
M  V30 27 H 5.714899 5.774106 -11.339693 0
M  V30 28 H 6.065108 5.608122 -13.041208 0
M  V30 29 H 7.789733 4.428311 -9.913772 0
M  V30 30 H 7.659992 6.170325 -9.774448 0
M  V30 31 H 10.090271 4.622810 -10.590511 0
M  V30 32 H 9.877574 5.456726 -9.071021 0
M  V30 33 H 11.275072 6.771909 -10.699906 0
M  V30 34 H 8.635099 8.150411 -10.037566 0
M  V30 35 H 10.043451 8.971167 -10.614759 0
M  V30 36 H 11.366652 9.772371 -8.967294 0
M  V30 37 H 12.215002 8.234256 -9.092831 0
M  V30 38 H 12.439322 9.634928 -6.813958 0
M  V30 39 H 10.630655 7.190996 -6.481526 0
M  V30 40 H 11.557446 5.932367 -4.478963 0
M  V30 41 H 12.188551 6.024200 -2.084436 0
M  V30 42 H 12.539124 8.229887 -0.978584 0
M  V30 43 H 12.206524 10.326065 -2.257506 0
M  V30 44 H 11.656180 10.242939 -4.665342 0
M  V30 45 H 10.144169 7.772889 -12.647079 0
M  V30 46 H 10.341745 6.037384 -12.776844 0
M  V30 47 H 8.086101 6.584504 -13.518892 0
M  V30 48 H 7.747317 7.529038 -12.089803 0
M  V30 49 H 8.248587 4.659138 -12.229167 0
M  V30 END ATOM
M  V30 BEGIN BOND
M  V30 1 1 2 1
M  V30 2 2 3 2
M  V30 3 1 4 3
M  V30 4 1 5 4
M  V30 5 1 6 5
M  V30 6 1 7 6
M  V30 7 1 8 7
M  V30 8 1 9 8
M  V30 9 1 10 9
M  V30 10 1 11 10
M  V30 11 1 12 11
M  V30 12 2 13 12
M  V30 13 1 14 13
M  V30 14 2 15 14
M  V30 15 1 16 15
M  V30 16 2 17 16
M  V30 17 1 18 17
M  V30 18 1 19 14
M  V30 19 2 19 18
M  V30 20 1 20 8
M  V30 21 1 21 5
M  V30 22 1 21 20
M  V30 23 1 22 1
M  V30 24 1 23 1
M  V30 25 1 24 1
M  V30 26 1 25 2
M  V30 27 1 26 3
M  V30 28 1 27 4
M  V30 29 1 28 4
M  V30 30 1 29 6
M  V30 31 1 30 6
M  V30 32 1 31 7
M  V30 33 1 32 7
M  V30 34 1 8 33 CFG=3
M  V30 35 1 34 9
M  V30 36 1 35 9
M  V30 37 1 36 11
M  V30 38 1 37 11
M  V30 39 1 38 12
M  V30 40 1 39 13
M  V30 41 1 40 15
M  V30 42 1 41 16
M  V30 43 1 42 17
M  V30 44 1 43 18
M  V30 45 1 44 19
M  V30 46 1 45 20
M  V30 47 1 46 20
M  V30 48 1 47 21
M  V30 49 1 48 21
M  V30 50 1 5 49 CFG=3
M  V30 END BOND
M  V30 END CTAB
M  END
>  <b_m_subgroup_collapsed>  (2512) 
0

>  <r_i_docking_score>  (2512) 
-5.4708211812467402

>  <s_m_subgroup_title>  (2512) 
glide-dock_SP_D22_pv

>  <s_m_subgroupid>  (2512) 
glide-dock_SP_D22_pv

>  <Molecule ChEMBL ID>  (2512) 
CHEMBL76475

>  <Standard Type>  (2512) 
Ki

>  <Standard Value>  (2512) 
10000.0

>  <label>  (2512) 
0

$$$$
CHEMBL404352
     RDKit          3D

  0  0  0  0  0  0  0  0  0  0999 V3000
M  V30 BEGIN CTAB
M  V30 COUNTS 33 35 0 0 1
M  V30 BEGIN ATOM
M  V30 1 C 8.114159 0.784495 -16.302328 0
M  V30 2 C 8.868466 2.031162 -15.745086 0 CFG=1
M  V30 3 C 8.048313 2.776322 -14.647014 0
M  V30 4 C 6.764669 2.319229 -14.246956 0
M  V30 5 C 6.006302 3.007837 -13.278931 0
M  V30 6 C 6.511659 4.170687 -12.673405 0
M  V30 7 C 7.784040 4.640135 -13.039477 0
M  V30 8 O 8.284227 5.770663 -12.458700 0
M  V30 9 C 8.541067 3.949053 -14.009280 0
M  V30 10 C 10.206841 1.531530 -15.132908 0
M  V30 11 O 10.290037 0.404947 -14.646931 0
M  V30 12 N 11.286119 2.327997 -15.170035 0
M  V30 13 C 11.366117 3.539311 -15.893294 0
M  V30 14 C 12.499993 4.355031 -15.718357 0
M  V30 15 C 12.626251 5.551757 -16.443354 0
M  V30 16 Cl 14.024719 6.541080 -16.246586 0
M  V30 17 C 11.614624 5.935174 -17.339533 0
M  V30 18 C 10.474287 5.128241 -17.525143 0
M  V30 19 Cl 9.286041 5.697828 -18.646990 0
M  V30 20 C 10.336960 3.915498 -16.791605 0
M  V30 21 C 9.185498 2.973284 -16.947462 0
M  V30 22 O 8.485988 2.927138 -17.961086 0
M  V30 23 H 8.700099 0.273193 -17.068230 0
M  V30 24 H 7.903921 0.044942 -15.527339 0
M  V30 25 H 7.160238 1.050436 -16.759855 0
M  V30 26 H 6.319680 1.432936 -14.670968 0
M  V30 27 H 5.030449 2.638599 -12.998500 0
M  V30 28 H 5.926122 4.690939 -11.928401 0
M  V30 29 H 7.706344 6.158604 -11.812800 0
M  V30 30 H 9.510466 4.350103 -14.253025 0
M  V30 31 H 12.124516 1.998236 -14.711740 0
M  V30 32 H 13.285323 4.065743 -15.035704 0
M  V30 33 H 11.715357 6.856840 -17.894007 0
M  V30 END ATOM
M  V30 BEGIN BOND
M  V30 1 1 2 1 CFG=3
M  V30 2 1 3 2
M  V30 3 2 4 3
M  V30 4 1 5 4
M  V30 5 2 6 5
M  V30 6 1 7 6
M  V30 7 1 8 7
M  V30 8 1 9 3
M  V30 9 2 9 7
M  V30 10 1 10 2
M  V30 11 2 11 10
M  V30 12 1 12 10
M  V30 13 1 13 12
M  V30 14 2 14 13
M  V30 15 1 15 14
M  V30 16 1 16 15
M  V30 17 2 17 15
M  V30 18 1 18 17
M  V30 19 1 19 18
M  V30 20 1 20 13
M  V30 21 2 20 18
M  V30 22 1 21 2
M  V30 23 1 21 20
M  V30 24 2 22 21
M  V30 25 1 23 1
M  V30 26 1 24 1
M  V30 27 1 25 1
M  V30 28 1 26 4
M  V30 29 1 27 5
M  V30 30 1 28 6
M  V30 31 1 29 8
M  V30 32 1 30 9
M  V30 33 1 31 12
M  V30 34 1 32 14
M  V30 35 1 33 17
M  V30 END BOND
M  V30 END CTAB
M  END
>  <b_m_subgroup_collapsed>  (2513) 
0

>  <r_i_docking_score>  (2513) 
-5.4689949406244098

>  <s_m_subgroup_title>  (2513) 
glide-dock_SP_D22_pv

>  <s_m_subgroupid>  (2513) 
glide-dock_SP_D22_pv

>  <Molecule ChEMBL ID>  (2513) 
CHEMBL404352

>  <Standard Type>  (2513) 
Ki

>  <Standard Value>  (2513) 
10000.0

>  <label>  (2513) 
0

$$$$
CHEMBL4452121
     RDKit          3D

  0  0  0  0  0  0  0  0  0  0999 V3000
M  V30 BEGIN CTAB
M  V30 COUNTS 29 31 0 0 1
M  V30 BEGIN ATOM
M  V30 1 C 3.969504 -0.049157 -14.082203 0
M  V30 2 C 5.463403 -0.056048 -13.721307 0
M  V30 3 N 6.278628 0.514807 -14.781324 0
M  V30 4 C 6.615575 -0.118422 -15.915165 0
M  V30 5 N 7.391613 0.576745 -16.735085 0
M  V30 6 C 7.579400 1.778804 -16.064384 0
M  V30 7 C 6.886110 1.772544 -14.873107 0
M  V30 8 C 6.771292 2.826766 -13.865199 0
M  V30 9 C 5.686553 3.146472 -13.081948 0
M  V30 10 N 6.008826 4.198890 -12.247003 0
M  V30 11 C 7.306445 4.604163 -12.455043 0
M  V30 12 C 8.096226 5.594043 -11.846979 0
M  V30 13 C 9.421054 5.784162 -12.279073 0
M  V30 14 C 9.941863 4.979454 -13.310757 0
M  V30 15 Cl 11.565430 5.207050 -13.848172 0
M  V30 16 C 9.142879 3.982369 -13.904615 0
M  V30 17 C 7.804962 3.766596 -13.493094 0
M  V30 18 H 3.367894 -0.528105 -13.310420 0
M  V30 19 H 3.594059 0.965117 -14.210751 0
M  V30 20 H 3.786748 -0.587346 -15.012757 0
M  V30 21 H 5.799137 -1.081600 -13.559930 0
M  V30 22 H 5.648340 0.471084 -12.786090 0
M  V30 23 H 6.289917 -1.123425 -16.141773 0
M  V30 24 H 8.179559 2.563942 -16.499924 0
M  V30 25 H 4.704591 2.700214 -13.042856 0
M  V30 26 H 5.391784 4.574739 -11.538090 0
M  V30 27 H 7.685968 6.196657 -11.048362 0
M  V30 28 H 10.034666 6.545128 -11.819941 0
M  V30 29 H 9.567685 3.362008 -14.678368 0
M  V30 END ATOM
M  V30 BEGIN BOND
M  V30 1 1 2 1
M  V30 2 1 3 2
M  V30 3 1 4 3
M  V30 4 2 5 4
M  V30 5 1 6 5
M  V30 6 1 7 3
M  V30 7 2 7 6
M  V30 8 1 8 7
M  V30 9 2 9 8
M  V30 10 1 10 9
M  V30 11 1 11 10
M  V30 12 1 12 11
M  V30 13 2 13 12
M  V30 14 1 14 13
M  V30 15 1 15 14
M  V30 16 2 16 14
M  V30 17 1 17 8
M  V30 18 2 17 11
M  V30 19 1 17 16
M  V30 20 1 18 1
M  V30 21 1 19 1
M  V30 22 1 20 1
M  V30 23 1 21 2
M  V30 24 1 22 2
M  V30 25 1 23 4
M  V30 26 1 24 6
M  V30 27 1 25 9
M  V30 28 1 26 10
M  V30 29 1 27 12
M  V30 30 1 28 13
M  V30 31 1 29 16
M  V30 END BOND
M  V30 END CTAB
M  END
>  <b_m_subgroup_collapsed>  (2514) 
0

>  <r_i_docking_score>  (2514) 
-5.4677521630038397

>  <s_m_subgroup_title>  (2514) 
glide-dock_SP_D22_pv

>  <s_m_subgroupid>  (2514) 
glide-dock_SP_D22_pv

>  <Molecule ChEMBL ID>  (2514) 
CHEMBL4452121

>  <Standard Type>  (2514) 
Ki

>  <Standard Value>  (2514) 
10000.0

>  <label>  (2514) 
0

$$$$
CHEMBL3745882
     RDKit          3D

  0  0  0  0  0  0  0  0  0  0999 V3000
M  V30 BEGIN CTAB
M  V30 COUNTS 69 72 0 0 1
M  V30 BEGIN ATOM
M  V30 1 C 11.343511 9.533232 -10.168018 0
M  V30 2 C 12.012017 8.670006 -9.113379 0
M  V30 3 C 13.077005 7.780859 -9.721377 0
M  V30 4 C 11.002265 7.881852 -8.305142 0
M  V30 5 C 11.021572 8.038324 -6.905655 0
M  V30 6 C 10.080291 7.371135 -6.115356 0
M  V30 7 C 9.099682 6.573543 -6.721224 0
M  V30 8 C 9.085555 6.382861 -8.109100 0
M  V30 9 C 10.049197 7.020997 -8.918743 0
M  V30 10 O 10.093867 6.852002 -10.284145 0
M  V30 11 C 9.306978 5.835484 -10.878404 0
M  V30 12 C 9.800845 5.690469 -12.323941 0
M  V30 13 N 9.276650 4.464928 -12.970669 0 CFG=2 CHG=1
M  V30 14 C 10.242999 3.852965 -13.924715 0
M  V30 15 C 9.713078 2.502997 -14.434217 0
M  V30 16 C 8.339415 2.691491 -15.099611 0 CFG=1
M  V30 17 N 7.772111 1.440012 -15.648366 0
M  V30 18 C 7.542967 0.286805 -14.757749 0
M  V30 19 C 6.193152 0.355567 -14.074690 0
M  V30 20 C 5.371578 -0.890650 -13.853953 0
M  V30 21 C 6.048934 -0.223640 -12.687712 0
M  V30 22 S 7.702117 1.184669 -17.361536 0
M  V30 23 O 7.817269 2.475139 -18.056143 0
M  V30 24 O 6.609150 0.246648 -17.656588 0
M  V30 25 C 9.218872 0.306320 -17.755959 0
M  V30 26 C 9.337304 -1.088101 -17.946495 0
M  V30 27 N 10.584683 -1.409281 -18.245647 0
M  V30 28 N 11.258644 -0.231192 -18.281523 0
M  V30 29 C 12.660441 -0.229410 -18.644028 0
M  V30 30 C 10.448248 0.845322 -17.975121 0
M  V30 31 C 7.359986 3.393488 -14.139575 0
M  V30 32 C 7.955958 4.701055 -13.606338 0
M  V30 33 H 10.598962 10.171606 -9.697518 0
M  V30 34 H 12.085906 10.169140 -10.644601 0
M  V30 35 H 10.858065 8.966304 -10.959088 0
M  V30 36 H 12.519404 9.355198 -8.434686 0
M  V30 37 H 13.699479 7.372548 -8.932409 0
M  V30 38 H 12.612462 6.972346 -10.280744 0
M  V30 39 H 13.731882 8.336818 -10.391516 0
M  V30 40 H 11.753329 8.676353 -6.431984 0
M  V30 41 H 10.095404 7.495094 -5.047356 0
M  V30 42 H 8.343860 6.093668 -6.124395 0
M  V30 43 H 8.305983 5.762392 -8.524165 0
M  V30 44 H 8.247328 6.095479 -10.844986 0
M  V30 45 H 9.452770 4.891969 -10.348154 0
M  V30 46 H 10.885960 5.657906 -12.307373 0
M  V30 47 H 9.544328 6.574454 -12.907868 0
M  V30 48 H 11.209020 3.696806 -13.443840 0
M  V30 49 H 10.416878 4.533132 -14.761934 0
M  V30 50 H 9.652661 1.818644 -13.591578 0
M  V30 51 H 10.420378 2.067564 -15.140907 0
M  V30 52 H 8.502170 3.372154 -15.931328 0
M  V30 53 H 7.582447 -0.626995 -15.350091 0
M  V30 54 H 8.334041 0.186295 -14.016803 0
M  V30 55 H 5.616771 1.254512 -14.277379 0
M  V30 56 H 4.291117 -0.790273 -13.942694 0
M  V30 57 H 5.779279 -1.838553 -14.206435 0
M  V30 58 H 6.886095 -0.760629 -12.247363 0
M  V30 59 H 5.422036 0.322343 -11.982045 0
M  V30 60 H 8.579864 -1.855053 -17.880098 0
M  V30 61 H 13.148456 0.659694 -18.245504 0
M  V30 62 H 13.154712 -1.115184 -18.247374 0
M  V30 63 H 12.755669 -0.228116 -19.729973 0
M  V30 64 H 10.801085 1.864864 -17.957306 0
M  V30 65 H 6.414725 3.599843 -14.645098 0
M  V30 66 H 7.118152 2.751998 -13.293813 0
M  V30 67 H 7.268919 5.155494 -12.892357 0
M  V30 68 H 8.085862 5.411762 -14.424808 0
M  V30 69 H 9.143257 3.782050 -12.235497 0
M  V30 END ATOM
M  V30 BEGIN BOND
M  V30 1 1 2 1
M  V30 2 1 3 2
M  V30 3 1 4 2
M  V30 4 2 5 4
M  V30 5 1 6 5
M  V30 6 2 7 6
M  V30 7 1 8 7
M  V30 8 1 9 4
M  V30 9 2 9 8
M  V30 10 1 10 9
M  V30 11 1 11 10
M  V30 12 1 12 11
M  V30 13 1 13 12
M  V30 14 1 14 13
M  V30 15 1 15 14
M  V30 16 1 16 15
M  V30 17 1 17 16
M  V30 18 1 18 17
M  V30 19 1 19 18
M  V30 20 1 20 19
M  V30 21 1 21 19
M  V30 22 1 21 20
M  V30 23 1 22 17
M  V30 24 2 23 22
M  V30 25 2 24 22
M  V30 26 1 25 22
M  V30 27 1 26 25
M  V30 28 2 27 26
M  V30 29 1 28 27
M  V30 30 1 29 28
M  V30 31 2 30 25
M  V30 32 1 30 28
M  V30 33 1 31 16
M  V30 34 1 32 13
M  V30 35 1 32 31
M  V30 36 1 33 1
M  V30 37 1 34 1
M  V30 38 1 35 1
M  V30 39 1 36 2
M  V30 40 1 37 3
M  V30 41 1 38 3
M  V30 42 1 39 3
M  V30 43 1 40 5
M  V30 44 1 41 6
M  V30 45 1 42 7
M  V30 46 1 43 8
M  V30 47 1 44 11
M  V30 48 1 45 11
M  V30 49 1 46 12
M  V30 50 1 47 12
M  V30 51 1 48 14
M  V30 52 1 49 14
M  V30 53 1 50 15
M  V30 54 1 51 15
M  V30 55 1 16 52 CFG=3
M  V30 56 1 53 18
M  V30 57 1 54 18
M  V30 58 1 55 19
M  V30 59 1 56 20
M  V30 60 1 57 20
M  V30 61 1 58 21
M  V30 62 1 59 21
M  V30 63 1 60 26
M  V30 64 1 61 29
M  V30 65 1 62 29
M  V30 66 1 63 29
M  V30 67 1 64 30
M  V30 68 1 65 31
M  V30 69 1 66 31
M  V30 70 1 67 32
M  V30 71 1 68 32
M  V30 72 1 13 69 CFG=1
M  V30 END BOND
M  V30 END CTAB
M  END
>  <b_m_subgroup_collapsed>  (2515) 
0

>  <r_i_docking_score>  (2515) 
-5.46498588461818

>  <s_m_subgroup_title>  (2515) 
glide-dock_SP_D22_pv

>  <s_m_subgroupid>  (2515) 
glide-dock_SP_D22_pv

>  <Molecule ChEMBL ID>  (2515) 
CHEMBL3745882

>  <Standard Type>  (2515) 
Ki

>  <Standard Value>  (2515) 
18.0

>  <label>  (2515) 
1

$$$$
CHEMBL394777
     RDKit          3D

  0  0  0  0  0  0  0  0  0  0999 V3000
M  V30 BEGIN CTAB
M  V30 COUNTS 43 46 0 0 1
M  V30 BEGIN ATOM
M  V30 1 C 12.676259 7.622005 -13.735404 0
M  V30 2 O 11.948107 7.371914 -12.539045 0
M  V30 3 C 10.886117 6.508943 -12.646886 0
M  V30 4 C 10.933392 5.344815 -13.451106 0
M  V30 5 C 9.820591 4.478896 -13.555430 0
M  V30 6 C 8.633927 4.810668 -12.856953 0
M  V30 7 C 8.596296 5.947139 -12.019113 0
M  V30 8 C 9.724770 6.782288 -11.897684 0
M  V30 9 Cl 9.685321 8.157037 -10.855633 0
M  V30 10 C 7.407725 3.928226 -12.954315 0
M  V30 11 C 7.505232 2.891240 -14.082359 0
M  V30 12 N 8.831634 2.228316 -14.124858 0 CFG=1 CHG=1
M  V30 13 C 8.792847 1.026088 -15.002637 0
M  V30 14 C 10.157569 0.335165 -15.208496 0
M  V30 15 C 11.196891 1.100614 -16.064352 0
M  V30 16 C 10.712525 2.397128 -16.692583 0
M  V30 17 C 10.861282 2.586939 -18.083504 0
M  V30 18 C 10.415615 3.775158 -18.691740 0
M  V30 19 C 9.826108 4.783523 -17.909721 0
M  V30 20 C 9.686882 4.601133 -16.520269 0
M  V30 21 C 10.128533 3.416152 -15.896180 0
M  V30 22 C 9.934758 3.194691 -14.394356 0 CFG=1
M  V30 23 H 13.345099 8.467922 -13.567677 0
M  V30 24 H 12.009822 7.888669 -14.558772 0
M  V30 25 H 13.285478 6.771154 -14.039649 0
M  V30 26 H 11.836209 5.092364 -13.987028 0
M  V30 27 H 7.704846 6.178469 -11.451422 0
M  V30 28 H 7.242736 3.448919 -11.989438 0
M  V30 29 H 6.535930 4.563553 -13.124108 0
M  V30 30 H 6.711481 2.154956 -13.952852 0
M  V30 31 H 7.329776 3.363899 -15.046115 0
M  V30 32 H 8.112569 0.303950 -14.545435 0
M  V30 33 H 8.352277 1.269736 -15.970864 0
M  V30 34 H 10.592249 0.072457 -14.246885 0
M  V30 35 H 9.958713 -0.620075 -15.703151 0
M  V30 36 H 12.048709 1.373938 -15.448844 0
M  V30 37 H 11.597847 0.436920 -16.832325 0
M  V30 38 H 11.312454 1.817999 -18.694752 0
M  V30 39 H 10.530951 3.914881 -19.759346 0
M  V30 40 H 9.476023 5.695933 -18.371502 0
M  V30 41 H 9.211240 5.372375 -15.937314 0
M  V30 42 H 10.845047 2.726393 -14.017750 0
M  V30 43 H 9.017698 1.884843 -13.190675 0
M  V30 END ATOM
M  V30 BEGIN BOND
M  V30 1 1 2 1
M  V30 2 1 3 2
M  V30 3 2 4 3
M  V30 4 1 5 4
M  V30 5 2 6 5
M  V30 6 1 7 6
M  V30 7 1 8 3
M  V30 8 2 8 7
M  V30 9 1 9 8
M  V30 10 1 10 6
M  V30 11 1 11 10
M  V30 12 1 12 11
M  V30 13 1 13 12
M  V30 14 1 14 13
M  V30 15 1 15 14
M  V30 16 1 16 15
M  V30 17 2 17 16
M  V30 18 1 18 17
M  V30 19 2 19 18
M  V30 20 1 20 19
M  V30 21 1 21 16
M  V30 22 2 21 20
M  V30 23 1 22 5
M  V30 24 1 22 12
M  V30 25 1 22 21
M  V30 26 1 23 1
M  V30 27 1 24 1
M  V30 28 1 25 1
M  V30 29 1 26 4
M  V30 30 1 27 7
M  V30 31 1 28 10
M  V30 32 1 29 10
M  V30 33 1 30 11
M  V30 34 1 31 11
M  V30 35 1 32 13
M  V30 36 1 33 13
M  V30 37 1 34 14
M  V30 38 1 35 14
M  V30 39 1 36 15
M  V30 40 1 37 15
M  V30 41 1 38 17
M  V30 42 1 39 18
M  V30 43 1 40 19
M  V30 44 1 41 20
M  V30 45 1 22 42 CFG=1
M  V30 46 1 12 43 CFG=1
M  V30 END BOND
M  V30 END CTAB
M  END
>  <b_m_subgroup_collapsed>  (2516) 
0

>  <r_i_docking_score>  (2516) 
-5.4631329682363701

>  <s_m_subgroup_title>  (2516) 
glide-dock_SP_D22_pv

>  <s_m_subgroupid>  (2516) 
glide-dock_SP_D22_pv

>  <Molecule ChEMBL ID>  (2516) 
CHEMBL394777

>  <Standard Type>  (2516) 
Ki

>  <Standard Value>  (2516) 
10000.0

>  <label>  (2516) 
0

$$$$
CHEMBL3759819
     RDKit          3D

  0  0  0  0  0  0  0  0  0  0999 V3000
M  V30 BEGIN CTAB
M  V30 COUNTS 64 68 0 0 1
M  V30 BEGIN ATOM
M  V30 1 O 10.551977 0.620745 -18.877485 0
M  V30 2 S 9.795317 -0.009056 -17.784552 0
M  V30 3 O 10.015158 -1.423097 -17.448095 0
M  V30 4 N 10.070838 0.905851 -16.345387 0
M  V30 5 C 10.417841 2.332019 -16.374924 0 CFG=1
M  V30 6 C 9.283570 3.223404 -15.815601 0
M  V30 7 C 9.801428 4.638007 -15.429831 0 CFG=2
M  V30 8 C 10.524411 5.332208 -16.604164 0
M  V30 9 C 11.991276 4.897800 -16.469334 0
M  V30 10 C 12.003144 3.994765 -15.225503 0 CFG=2
M  V30 11 C 11.731020 2.520223 -15.592669 0
M  V30 12 N 10.858676 4.451180 -14.413122 0 CFG=1 CHG=1
M  V30 13 C 11.131834 5.619258 -13.531629 0
M  V30 14 C 10.086203 5.724919 -12.410606 0
M  V30 15 O 10.485993 6.703868 -11.455001 0
M  V30 16 C 9.990694 6.572433 -10.170820 0
M  V30 17 C 8.909932 5.722507 -9.837002 0
M  V30 18 C 8.503466 5.581886 -8.501666 0
M  V30 19 C 9.142408 6.309396 -7.488958 0
M  V30 20 C 10.210344 7.181025 -7.787902 0
M  V30 21 C 10.865747 7.927255 -6.699075 0
M  V30 22 C 11.098310 7.312335 -5.446561 0
M  V30 23 C 11.686155 8.028766 -4.385270 0
M  V30 24 C 12.052751 9.371968 -4.563714 0
M  V30 25 C 11.836539 9.994748 -5.806596 0
M  V30 26 C 11.252572 9.274727 -6.866125 0
M  V30 27 C 10.614949 7.309178 -9.138965 0
M  V30 28 C 8.043398 0.223907 -18.062675 0
M  V30 29 C 7.582387 0.795953 -19.265915 0
M  V30 30 C 6.195335 0.929896 -19.481894 0
M  V30 31 C 5.281257 0.493139 -18.500027 0
M  V30 32 C 5.748573 -0.073134 -17.296955 0
M  V30 33 Cl 4.632813 -0.628164 -16.102896 0
M  V30 34 C 7.132273 -0.194525 -17.071745 0
M  V30 35 H 9.599890 0.558071 -15.510938 0
M  V30 36 H 10.599995 2.626009 -17.407417 0
M  V30 37 H 8.841626 2.755151 -14.934191 0
M  V30 38 H 8.486218 3.291687 -16.555548 0
M  V30 39 H 8.973728 5.240907 -15.055344 0
M  V30 40 H 10.094620 5.076644 -17.573301 0
M  V30 41 H 10.485950 6.417600 -16.508085 0
M  V30 42 H 12.363510 4.390053 -17.360527 0
M  V30 43 H 12.622579 5.773232 -16.309158 0
M  V30 44 H 12.947936 4.069454 -14.684505 0
M  V30 45 H 12.550345 2.114338 -16.182102 0
M  V30 46 H 11.686156 1.938066 -14.672194 0
M  V30 47 H 11.203443 6.543907 -14.103432 0
M  V30 48 H 12.105051 5.476035 -13.059407 0
M  V30 49 H 10.017207 4.739923 -11.946147 0
M  V30 50 H 9.104328 5.978343 -12.807274 0
M  V30 51 H 8.365236 5.163965 -10.582723 0
M  V30 52 H 7.687205 4.927980 -8.247222 0
M  V30 53 H 8.794049 6.193714 -6.471976 0
M  V30 54 H 10.823404 6.279106 -5.286870 0
M  V30 55 H 11.851137 7.544282 -3.434322 0
M  V30 56 H 12.502992 9.917201 -3.748195 0
M  V30 57 H 12.116948 11.026480 -5.952529 0
M  V30 58 H 11.080326 9.771271 -7.809074 0
M  V30 59 H 11.439745 7.961186 -9.390391 0
M  V30 60 H 8.282832 1.117180 -20.023117 0
M  V30 61 H 5.830476 1.356727 -20.404938 0
M  V30 62 H 4.217595 0.586958 -18.674507 0
M  V30 63 H 7.494432 -0.627681 -16.150705 0
M  V30 64 H 10.592697 3.688364 -13.805736 0
M  V30 END ATOM
M  V30 BEGIN BOND
M  V30 1 2 2 1
M  V30 2 2 3 2
M  V30 3 1 4 2
M  V30 4 1 5 4
M  V30 5 1 6 5
M  V30 6 1 7 6
M  V30 7 1 8 7
M  V30 8 1 9 8
M  V30 9 1 10 9
M  V30 10 1 11 5
M  V30 11 1 11 10
M  V30 12 1 12 7
M  V30 13 1 12 10
M  V30 14 1 13 12
M  V30 15 1 14 13
M  V30 16 1 15 14
M  V30 17 1 16 15
M  V30 18 1 17 16
M  V30 19 2 18 17
M  V30 20 1 19 18
M  V30 21 2 20 19
M  V30 22 1 21 20
M  V30 23 2 22 21
M  V30 24 1 23 22
M  V30 25 2 24 23
M  V30 26 1 25 24
M  V30 27 1 26 21
M  V30 28 2 26 25
M  V30 29 2 27 16
M  V30 30 1 27 20
M  V30 31 1 28 2
M  V30 32 2 29 28
M  V30 33 1 30 29
M  V30 34 2 31 30
M  V30 35 1 32 31
M  V30 36 1 33 32
M  V30 37 1 34 28
M  V30 38 2 34 32
M  V30 39 1 35 4
M  V30 40 1 5 36 CFG=3
M  V30 41 1 37 6
M  V30 42 1 38 6
M  V30 43 1 7 39 CFG=1
M  V30 44 1 40 8
M  V30 45 1 41 8
M  V30 46 1 42 9
M  V30 47 1 43 9
M  V30 48 1 10 44 CFG=1
M  V30 49 1 45 11
M  V30 50 1 46 11
M  V30 51 1 47 13
M  V30 52 1 48 13
M  V30 53 1 49 14
M  V30 54 1 50 14
M  V30 55 1 51 17
M  V30 56 1 52 18
M  V30 57 1 53 19
M  V30 58 1 54 22
M  V30 59 1 55 23
M  V30 60 1 56 24
M  V30 61 1 57 25
M  V30 62 1 58 26
M  V30 63 1 59 27
M  V30 64 1 60 29
M  V30 65 1 61 30
M  V30 66 1 62 31
M  V30 67 1 63 34
M  V30 68 1 12 64 CFG=1
M  V30 END BOND
M  V30 END CTAB
M  END
>  <b_m_subgroup_collapsed>  (2517) 
0

>  <r_i_docking_score>  (2517) 
-5.4476700302613699

>  <s_m_subgroup_title>  (2517) 
glide-dock_SP_D22_pv

>  <s_m_subgroupid>  (2517) 
glide-dock_SP_D22_pv

>  <Molecule ChEMBL ID>  (2517) 
CHEMBL3759819

>  <Standard Type>  (2517) 
Ki

>  <Standard Value>  (2517) 
94.0

>  <label>  (2517) 
1

$$$$
CHEMBL394777
     RDKit          3D

  0  0  0  0  0  0  0  0  0  0999 V3000
M  V30 BEGIN CTAB
M  V30 COUNTS 43 46 0 0 1
M  V30 BEGIN ATOM
M  V30 1 C 11.826788 7.020233 -18.332905 0
M  V30 2 O 12.299548 5.687029 -18.440956 0
M  V30 3 C 11.847163 4.754781 -17.530481 0
M  V30 4 C 10.835088 5.011582 -16.568413 0
M  V30 5 C 10.443468 4.021069 -15.636998 0
M  V30 6 C 11.042803 2.745161 -15.709118 0
M  V30 7 C 12.034905 2.474702 -16.669048 0
M  V30 8 C 12.443913 3.475947 -17.566420 0
M  V30 9 Cl 13.691546 3.120785 -18.708176 0
M  V30 10 C 10.584645 1.662290 -14.767279 0
M  V30 11 C 9.092870 1.836578 -14.495979 0
M  V30 12 N 8.815996 3.150548 -13.862252 0 CFG=2 CHG=1
M  V30 13 C 7.370175 3.315207 -13.566046 0
M  V30 14 C 7.156645 4.170846 -12.314903 0
M  V30 15 C 7.506078 5.642216 -12.533490 0
M  V30 16 C 8.996270 5.961345 -12.570304 0
M  V30 17 C 9.466410 6.939377 -11.667219 0
M  V30 18 C 10.802082 7.371498 -11.706323 0
M  V30 19 C 11.686925 6.822532 -12.646860 0
M  V30 20 C 11.250999 5.795075 -13.499156 0
M  V30 21 C 9.896502 5.370413 -13.504018 0
M  V30 22 C 9.405429 4.350162 -14.543880 0 CFG=1
M  V30 23 H 12.297986 7.633725 -19.101227 0
M  V30 24 H 12.085937 7.451797 -17.364571 0
M  V30 25 H 10.748145 7.075104 -18.485262 0
M  V30 26 H 10.371422 5.983374 -16.503479 0
M  V30 27 H 12.494080 1.497561 -16.714970 0
M  V30 28 H 10.775908 0.679612 -15.200858 0
M  V30 29 H 11.161172 1.725430 -13.843951 0
M  V30 30 H 8.530102 1.750441 -15.427433 0
M  V30 31 H 8.752123 1.030812 -13.845072 0
M  V30 32 H 6.836572 3.735605 -14.418780 0
M  V30 33 H 6.897072 2.343881 -13.413828 0
M  V30 34 H 6.099609 4.114085 -12.049788 0
M  V30 35 H 7.697750 3.773756 -11.455819 0
M  V30 36 H 7.047617 6.007198 -13.446632 0
M  V30 37 H 7.038789 6.203228 -11.725895 0
M  V30 38 H 8.789051 7.392509 -10.955376 0
M  V30 39 H 11.141532 8.138872 -11.025653 0
M  V30 40 H 12.714554 7.154666 -12.683309 0
M  V30 41 H 11.982917 5.377056 -14.173324 0
M  V30 42 H 8.607121 4.862678 -15.076806 0
M  V30 43 H 9.287031 3.099587 -12.969179 0
M  V30 END ATOM
M  V30 BEGIN BOND
M  V30 1 1 2 1
M  V30 2 1 3 2
M  V30 3 2 4 3
M  V30 4 1 5 4
M  V30 5 2 6 5
M  V30 6 1 7 6
M  V30 7 1 8 3
M  V30 8 2 8 7
M  V30 9 1 9 8
M  V30 10 1 10 6
M  V30 11 1 11 10
M  V30 12 1 12 11
M  V30 13 1 13 12
M  V30 14 1 14 13
M  V30 15 1 15 14
M  V30 16 1 16 15
M  V30 17 2 17 16
M  V30 18 1 18 17
M  V30 19 2 19 18
M  V30 20 1 20 19
M  V30 21 1 21 16
M  V30 22 2 21 20
M  V30 23 1 22 5
M  V30 24 1 22 12
M  V30 25 1 22 21
M  V30 26 1 23 1
M  V30 27 1 24 1
M  V30 28 1 25 1
M  V30 29 1 26 4
M  V30 30 1 27 7
M  V30 31 1 28 10
M  V30 32 1 29 10
M  V30 33 1 30 11
M  V30 34 1 31 11
M  V30 35 1 32 13
M  V30 36 1 33 13
M  V30 37 1 34 14
M  V30 38 1 35 14
M  V30 39 1 36 15
M  V30 40 1 37 15
M  V30 41 1 38 17
M  V30 42 1 39 18
M  V30 43 1 40 19
M  V30 44 1 41 20
M  V30 45 1 22 42 CFG=3
M  V30 46 1 12 43 CFG=1
M  V30 END BOND
M  V30 END CTAB
M  END
>  <b_m_subgroup_collapsed>  (2518) 
0

>  <r_i_docking_score>  (2518) 
-5.4462290766193497

>  <s_m_subgroup_title>  (2518) 
glide-dock_SP_D22_pv

>  <s_m_subgroupid>  (2518) 
glide-dock_SP_D22_pv

>  <Molecule ChEMBL ID>  (2518) 
CHEMBL394777

>  <Standard Type>  (2518) 
Ki

>  <Standard Value>  (2518) 
10000.0

>  <label>  (2518) 
0

$$$$
CHEMBL423198
     RDKit          3D

  0  0  0  0  0  0  0  0  0  0999 V3000
M  V30 BEGIN CTAB
M  V30 COUNTS 72 76 0 0 1
M  V30 BEGIN ATOM
M  V30 1 C 12.790068 7.616175 -14.050818 0
M  V30 2 O 11.855306 6.702948 -13.487441 0
M  V30 3 C 11.302854 6.972339 -12.247140 0
M  V30 4 C 11.958721 7.815891 -11.317806 0
M  V30 5 C 11.412889 8.063458 -10.050261 0
M  V30 6 C 10.209311 7.442195 -9.682644 0
M  V30 7 S 9.574342 7.648229 -8.025914 0
M  V30 8 O 8.946619 8.972491 -7.932384 0
M  V30 9 O 8.836792 6.429211 -7.661886 0
M  V30 10 N 11.029651 7.674823 -7.086344 0
M  V30 11 C 11.474141 6.453413 -6.416779 0
M  V30 12 C 11.339416 6.629190 -4.899720 0
M  V30 13 O 12.027366 7.798889 -4.464379 0
M  V30 14 C 11.519118 8.988507 -5.058711 0
M  V30 15 C 11.623666 8.928261 -6.592832 0
M  V30 16 C 9.549531 6.584574 -10.578265 0
M  V30 17 C 10.085989 6.327201 -11.860699 0
M  V30 18 C 9.392325 5.360305 -12.719167 0
M  V30 19 C 8.327993 4.521674 -12.526496 0
M  V30 20 C 8.127851 3.774002 -13.727417 0
M  V30 21 C 9.053519 4.183800 -14.648154 0
M  V30 22 C 9.285838 3.805969 -16.080296 0
M  V30 23 N 10.704687 3.476337 -16.400671 0 CFG=1 CHG=1
M  V30 24 C 10.830920 2.236414 -17.228056 0
M  V30 25 C 12.263852 1.710245 -17.429674 0
M  V30 26 C 13.086920 2.545444 -18.420107 0
M  V30 27 C 13.782780 3.760983 -17.793333 0
M  V30 28 C 13.048877 4.387992 -16.597328 0
M  V30 29 C 11.540567 4.664070 -16.789999 0 CFG=1
M  V30 30 C 11.188310 5.443323 -18.072296 0
M  V30 31 C 11.855882 6.670221 -18.300533 0
M  V30 32 C 11.562341 7.461711 -19.427261 0
M  V30 33 C 10.586618 7.040182 -20.347076 0
M  V30 34 C 9.905914 5.828048 -20.133512 0
M  V30 35 C 10.202682 5.036651 -19.006380 0
M  V30 36 N 9.804102 5.141253 -14.010549 0
M  V30 37 H 13.126282 7.227208 -15.010881 0
M  V30 38 H 12.315331 8.573203 -14.247519 0
M  V30 39 H 13.682616 7.772219 -13.445050 0
M  V30 40 H 12.891432 8.305007 -11.550599 0
M  V30 41 H 11.931726 8.717163 -9.365811 0
M  V30 42 H 10.881469 5.617867 -6.764585 0
M  V30 43 H 12.485971 6.200891 -6.709830 0
M  V30 44 H 10.281791 6.678212 -4.646889 0
M  V30 45 H 11.755844 5.772410 -4.376297 0
M  V30 46 H 10.486006 9.138006 -4.752213 0
M  V30 47 H 12.085897 9.838873 -4.680221 0
M  V30 48 H 12.669086 8.972240 -6.898710 0
M  V30 49 H 11.137178 9.792133 -7.045105 0
M  V30 50 H 8.631296 6.111021 -10.260015 0
M  V30 51 H 7.753248 4.437204 -11.614872 0
M  V30 52 H 7.366626 3.025985 -13.898740 0
M  V30 53 H 8.900160 4.598722 -16.722336 0
M  V30 54 H 8.651977 2.945475 -16.297499 0
M  V30 55 H 10.338120 2.330097 -18.192129 0
M  V30 56 H 10.284314 1.448182 -16.707500 0
M  V30 57 H 12.184809 0.701394 -17.837305 0
M  V30 58 H 12.784041 1.594486 -16.480072 0
M  V30 59 H 12.448760 2.869580 -19.243242 0
M  V30 60 H 13.850973 1.914882 -18.877699 0
M  V30 61 H 13.946629 4.511164 -18.567682 0
M  V30 62 H 14.777014 3.468225 -17.452353 0
M  V30 63 H 13.561518 5.321727 -16.366762 0
M  V30 64 H 13.196722 3.775187 -15.706327 0
M  V30 65 H 11.328836 5.402803 -16.020290 0
M  V30 66 H 12.596481 7.028509 -17.600681 0
M  V30 67 H 12.077573 8.400309 -19.577959 0
M  V30 68 H 10.354930 7.649122 -21.209185 0
M  V30 69 H 9.146134 5.508032 -20.832815 0
M  V30 70 H 9.626542 4.137469 -18.881172 0
M  V30 71 H 10.576022 5.661639 -14.406694 0
M  V30 72 H 11.082024 3.194635 -15.506478 0
M  V30 END ATOM
M  V30 BEGIN BOND
M  V30 1 1 2 1
M  V30 2 1 3 2
M  V30 3 1 4 3
M  V30 4 2 5 4
M  V30 5 1 6 5
M  V30 6 1 7 6
M  V30 7 2 8 7
M  V30 8 2 9 7
M  V30 9 1 10 7
M  V30 10 1 11 10
M  V30 11 1 12 11
M  V30 12 1 13 12
M  V30 13 1 14 13
M  V30 14 1 15 10
M  V30 15 1 15 14
M  V30 16 2 16 6
M  V30 17 2 17 3
M  V30 18 1 17 16
M  V30 19 1 18 17
M  V30 20 2 19 18
M  V30 21 1 20 19
M  V30 22 2 21 20
M  V30 23 1 22 21
M  V30 24 1 23 22
M  V30 25 1 24 23
M  V30 26 1 25 24
M  V30 27 1 26 25
M  V30 28 1 27 26
M  V30 29 1 28 27
M  V30 30 1 29 23
M  V30 31 1 29 28
M  V30 32 1 30 29
M  V30 33 2 31 30
M  V30 34 1 32 31
M  V30 35 2 33 32
M  V30 36 1 34 33
M  V30 37 1 35 30
M  V30 38 2 35 34
M  V30 39 1 36 18
M  V30 40 1 36 21
M  V30 41 1 37 1
M  V30 42 1 38 1
M  V30 43 1 39 1
M  V30 44 1 40 4
M  V30 45 1 41 5
M  V30 46 1 42 11
M  V30 47 1 43 11
M  V30 48 1 44 12
M  V30 49 1 45 12
M  V30 50 1 46 14
M  V30 51 1 47 14
M  V30 52 1 48 15
M  V30 53 1 49 15
M  V30 54 1 50 16
M  V30 55 1 51 19
M  V30 56 1 52 20
M  V30 57 1 53 22
M  V30 58 1 54 22
M  V30 59 1 55 24
M  V30 60 1 56 24
M  V30 61 1 57 25
M  V30 62 1 58 25
M  V30 63 1 59 26
M  V30 64 1 60 26
M  V30 65 1 61 27
M  V30 66 1 62 27
M  V30 67 1 63 28
M  V30 68 1 64 28
M  V30 69 1 29 65 CFG=1
M  V30 70 1 66 31
M  V30 71 1 67 32
M  V30 72 1 68 33
M  V30 73 1 69 34
M  V30 74 1 70 35
M  V30 75 1 71 36
M  V30 76 1 23 72 CFG=1
M  V30 END BOND
M  V30 END CTAB
M  END
>  <b_m_subgroup_collapsed>  (2519) 
0

>  <r_i_docking_score>  (2519) 
-5.4435390779308896

>  <s_m_subgroup_title>  (2519) 
glide-dock_SP_D22_pv

>  <s_m_subgroupid>  (2519) 
glide-dock_SP_D22_pv

>  <Molecule ChEMBL ID>  (2519) 
CHEMBL423198

>  <Standard Type>  (2519) 
Ki

>  <Standard Value>  (2519) 
100.0

>  <label>  (2519) 
1

$$$$
CHEMBL498775
     RDKit          3D

  0  0  0  0  0  0  0  0  0  0999 V3000
M  V30 BEGIN CTAB
M  V30 COUNTS 46 47 0 0 1
M  V30 BEGIN ATOM
M  V30 1 C 8.867252 8.430003 -7.754398 0
M  V30 2 N 10.291988 8.376730 -8.086495 0
M  V30 3 C 10.461863 7.477578 -9.232042 0
M  V30 4 C 9.886080 8.035522 -10.548355 0
M  V30 5 C 9.997975 7.022612 -11.669125 0
M  V30 6 C 11.168222 6.971548 -12.452546 0
M  V30 7 C 11.287069 5.994032 -13.457967 0
M  V30 8 C 10.226395 5.100672 -13.706386 0
M  V30 9 C 9.030286 5.162691 -12.961065 0
M  V30 10 O 8.033146 4.278713 -13.327342 0
M  V30 11 C 6.816094 4.254038 -12.714638 0
M  V30 12 F 5.990259 3.426840 -13.401886 0
M  V30 13 F 6.886318 3.774081 -11.449341 0
M  V30 14 F 6.221707 5.472950 -12.706663 0
M  V30 15 C 8.933844 6.121229 -11.918911 0
M  V30 16 C 11.058305 7.831673 -6.965107 0
M  V30 17 C 11.088846 8.795578 -5.759127 0
M  V30 18 N 11.944659 8.318858 -4.646960 0 CHG=1
M  V30 19 C 11.890469 9.178930 -3.446421 0
M  V30 20 C 12.308749 8.303037 -2.264490 0
M  V30 21 C 12.187881 6.850694 -2.749923 0
M  V30 22 C 11.685766 6.931679 -4.197053 0
M  V30 23 H 8.652957 8.972262 -6.839710 0
M  V30 24 H 8.308068 8.951518 -8.525002 0
M  V30 25 H 8.448190 7.431958 -7.643386 0
M  V30 26 H 10.008101 6.509333 -9.012341 0
M  V30 27 H 11.525857 7.292688 -9.389424 0
M  V30 28 H 10.409650 8.950009 -10.826751 0
M  V30 29 H 8.836057 8.303935 -10.458583 0
M  V30 30 H 11.983636 7.658690 -12.269567 0
M  V30 31 H 12.188943 5.937978 -14.050617 0
M  V30 32 H 10.323261 4.368209 -14.494601 0
M  V30 33 H 8.046136 6.191208 -11.306647 0
M  V30 34 H 10.645107 6.861458 -6.684625 0
M  V30 35 H 12.083911 7.656863 -7.291146 0
M  V30 36 H 11.450701 9.773529 -6.078961 0
M  V30 37 H 10.086038 8.946789 -5.371171 0
M  V30 38 H 12.535009 10.051161 -3.551595 0
M  V30 39 H 10.875024 9.540492 -3.283216 0
M  V30 40 H 13.331085 8.542576 -1.974611 0
M  V30 41 H 11.686402 8.490836 -1.390053 0
M  V30 42 H 13.161287 6.360557 -2.708804 0
M  V30 43 H 11.510020 6.265509 -2.127478 0
M  V30 44 H 10.620574 6.709980 -4.246043 0
M  V30 45 H 12.170221 6.201273 -4.843235 0
M  V30 46 H 12.903424 8.341002 -4.963930 0
M  V30 END ATOM
M  V30 BEGIN BOND
M  V30 1 1 2 1
M  V30 2 1 3 2
M  V30 3 1 4 3
M  V30 4 1 5 4
M  V30 5 1 6 5
M  V30 6 2 7 6
M  V30 7 1 8 7
M  V30 8 2 9 8
M  V30 9 1 10 9
M  V30 10 1 11 10
M  V30 11 1 12 11
M  V30 12 1 13 11
M  V30 13 1 14 11
M  V30 14 2 15 5
M  V30 15 1 15 9
M  V30 16 1 16 2
M  V30 17 1 17 16
M  V30 18 1 18 17
M  V30 19 1 19 18
M  V30 20 1 20 19
M  V30 21 1 21 20
M  V30 22 1 22 18
M  V30 23 1 22 21
M  V30 24 1 23 1
M  V30 25 1 24 1
M  V30 26 1 25 1
M  V30 27 1 26 3
M  V30 28 1 27 3
M  V30 29 1 28 4
M  V30 30 1 29 4
M  V30 31 1 30 6
M  V30 32 1 31 7
M  V30 33 1 32 8
M  V30 34 1 33 15
M  V30 35 1 34 16
M  V30 36 1 35 16
M  V30 37 1 36 17
M  V30 38 1 37 17
M  V30 39 1 38 19
M  V30 40 1 39 19
M  V30 41 1 40 20
M  V30 42 1 41 20
M  V30 43 1 42 21
M  V30 44 1 43 21
M  V30 45 1 44 22
M  V30 46 1 45 22
M  V30 47 1 46 18
M  V30 END BOND
M  V30 END CTAB
M  END
>  <b_m_subgroup_collapsed>  (2520) 
0

>  <r_i_docking_score>  (2520) 
-5.4388215121181203

>  <s_m_subgroup_title>  (2520) 
glide-dock_SP_D22_pv

>  <s_m_subgroupid>  (2520) 
glide-dock_SP_D22_pv

>  <Molecule ChEMBL ID>  (2520) 
CHEMBL498775

>  <Standard Type>  (2520) 
Ki

>  <Standard Value>  (2520) 
10000.0

>  <label>  (2520) 
0

$$$$
CHEMBL245570
     RDKit          3D

  0  0  0  0  0  0  0  0  0  0999 V3000
M  V30 BEGIN CTAB
M  V30 COUNTS 46 49 0 0 1
M  V30 BEGIN ATOM
M  V30 1 C 10.902947 5.654778 -16.917740 0
M  V30 2 N 12.332388 5.475840 -16.577282 0 CFG=2 CHG=1
M  V30 3 C 13.118518 4.563934 -17.458487 0
M  V30 4 C 12.759017 3.058423 -17.476677 0
M  V30 5 C 11.358932 2.696658 -17.961441 0
M  V30 6 C 11.045039 2.964431 -19.312691 0
M  V30 7 C 9.780962 2.642248 -19.839891 0
M  V30 8 C 8.814293 2.037772 -19.018330 0
M  V30 9 C 9.114116 1.762307 -17.671577 0
M  V30 10 C 10.380393 2.082501 -17.128317 0
M  V30 11 C 10.616982 1.766704 -15.653106 0
M  V30 12 C 10.166148 2.886081 -14.767759 0
M  V30 13 N 8.829882 3.003628 -14.427265 0
M  V30 14 C 8.615540 4.099914 -13.621241 0
M  V30 15 C 7.455261 4.626250 -13.034404 0
M  V30 16 C 7.545919 5.778936 -12.236596 0
M  V30 17 C 8.797611 6.397070 -12.037477 0
M  V30 18 O 8.885811 7.520761 -11.260838 0
M  V30 19 C 9.953776 5.860522 -12.639286 0
M  V30 20 C 9.894145 4.700237 -13.448269 0
M  V30 21 C 10.857258 3.933374 -14.196206 0
M  V30 22 C 12.322043 4.236447 -14.306200 0
M  V30 23 C 12.669449 5.493744 -15.126336 0
M  V30 24 H 10.290364 4.795031 -16.669588 0
M  V30 25 H 10.786956 5.854291 -17.982363 0
M  V30 26 H 10.500201 6.510059 -16.380898 0
M  V30 27 H 13.043108 4.949678 -18.474659 0
M  V30 28 H 14.172073 4.660525 -17.191133 0
M  V30 29 H 13.443424 2.582344 -18.179739 0
M  V30 30 H 13.009024 2.577781 -16.545790 0
M  V30 31 H 11.784668 3.413481 -19.960949 0
M  V30 32 H 9.558402 2.849856 -20.877760 0
M  V30 33 H 7.847435 1.775548 -19.424431 0
M  V30 34 H 8.360536 1.294893 -17.052483 0
M  V30 35 H 10.042585 0.874196 -15.403653 0
M  V30 36 H 11.644125 1.479404 -15.442680 0
M  V30 37 H 8.120627 2.357448 -14.741292 0
M  V30 38 H 6.500351 4.148163 -13.185024 0
M  V30 39 H 6.651572 6.170365 -11.773867 0
M  V30 40 H 8.025373 7.746474 -10.884314 0
M  V30 41 H 10.904796 6.343212 -12.476173 0
M  V30 42 H 12.710310 4.397508 -13.300033 0
M  V30 43 H 12.873108 3.381310 -14.667810 0
M  V30 44 H 13.740324 5.680647 -15.038570 0
M  V30 45 H 12.191146 6.360300 -14.669390 0
M  V30 46 H 12.706916 6.369716 -16.856127 0
M  V30 END ATOM
M  V30 BEGIN BOND
M  V30 1 1 2 1
M  V30 2 1 3 2
M  V30 3 1 4 3
M  V30 4 1 5 4
M  V30 5 2 6 5
M  V30 6 1 7 6
M  V30 7 2 8 7
M  V30 8 1 9 8
M  V30 9 1 10 5
M  V30 10 2 10 9
M  V30 11 1 11 10
M  V30 12 1 12 11
M  V30 13 1 13 12
M  V30 14 1 14 13
M  V30 15 1 15 14
M  V30 16 2 16 15
M  V30 17 1 17 16
M  V30 18 1 18 17
M  V30 19 2 19 17
M  V30 20 2 20 14
M  V30 21 1 20 19
M  V30 22 2 21 12
M  V30 23 1 21 20
M  V30 24 1 22 21
M  V30 25 1 23 2
M  V30 26 1 23 22
M  V30 27 1 24 1
M  V30 28 1 25 1
M  V30 29 1 26 1
M  V30 30 1 27 3
M  V30 31 1 28 3
M  V30 32 1 29 4
M  V30 33 1 30 4
M  V30 34 1 31 6
M  V30 35 1 32 7
M  V30 36 1 33 8
M  V30 37 1 34 9
M  V30 38 1 35 11
M  V30 39 1 36 11
M  V30 40 1 37 13
M  V30 41 1 38 15
M  V30 42 1 39 16
M  V30 43 1 40 18
M  V30 44 1 41 19
M  V30 45 1 42 22
M  V30 46 1 43 22
M  V30 47 1 44 23
M  V30 48 1 45 23
M  V30 49 1 2 46 CFG=3
M  V30 END BOND
M  V30 END CTAB
M  END
>  <b_m_subgroup_collapsed>  (2521) 
0

>  <r_i_docking_score>  (2521) 
-5.4374719273823402

>  <s_m_subgroup_title>  (2521) 
glide-dock_SP_D22_pv

>  <s_m_subgroupid>  (2521) 
glide-dock_SP_D22_pv

>  <Molecule ChEMBL ID>  (2521) 
CHEMBL245570

>  <Standard Type>  (2521) 
Ki

>  <Standard Value>  (2521) 
38.4

>  <label>  (2521) 
1

$$$$
CHEMBL300647
     RDKit          3D

  0  0  0  0  0  0  0  0  0  0999 V3000
M  V30 BEGIN CTAB
M  V30 COUNTS 47 50 0 0 1
M  V30 BEGIN ATOM
M  V30 1 C 10.533423 0.184886 -19.181087 0
M  V30 2 N 11.422763 0.296258 -17.995512 0 CHG=1
M  V30 3 C 12.627548 1.102806 -18.316622 0
M  V30 4 C 10.748723 0.718250 -16.731792 0 CFG=1
M  V30 5 C 10.100832 2.088038 -16.853651 0
M  V30 6 C 8.856586 2.373993 -16.436567 0
M  V30 7 C 7.883494 1.383894 -15.766932 0 CFG=2
M  V30 8 C 8.772032 0.241564 -15.178688 0
M  V30 9 C 9.757251 -0.344757 -16.203281 0
M  V30 10 C 6.909480 0.822252 -16.849867 0
M  V30 11 C 7.030399 1.221397 -18.212406 0
M  V30 12 C 6.203871 0.698881 -19.225046 0
M  V30 13 C 5.225752 -0.250376 -18.906027 0
M  V30 14 C 5.085615 -0.673403 -17.574636 0
M  V30 15 C 5.910822 -0.151349 -16.551712 0
M  V30 16 C 5.606810 -0.648407 -15.209981 0
M  V30 17 C 5.682159 0.025085 -14.056269 0
M  V30 18 C 6.099946 1.410676 -13.846735 0
M  V30 19 C 5.429317 2.090378 -12.804375 0
M  V30 20 C 5.777739 3.398311 -12.440413 0
M  V30 21 C 6.819698 4.040225 -13.118162 0
M  V30 22 Cl 7.312159 5.622776 -12.645772 0
M  V30 23 C 7.478273 3.383020 -14.173640 0
M  V30 24 C 7.114815 2.074598 -14.603581 0
M  V30 25 H 10.086808 1.145369 -19.440840 0
M  V30 26 H 11.100224 -0.155693 -20.047323 0
M  V30 27 H 9.728766 -0.531527 -19.036676 0
M  V30 28 H 12.357893 2.079664 -18.717035 0
M  V30 29 H 13.254628 1.269198 -17.443352 0
M  V30 30 H 13.238098 0.592488 -19.063061 0
M  V30 31 H 11.520603 0.828669 -15.968892 0
M  V30 32 H 10.684970 2.872750 -17.314108 0
M  V30 33 H 8.489082 3.371045 -16.628319 0
M  V30 34 H 9.344486 0.631206 -14.334719 0
M  V30 35 H 8.182383 -0.571976 -14.766597 0
M  V30 36 H 9.165378 -0.789436 -16.999783 0
M  V30 37 H 10.311196 -1.167037 -15.753665 0
M  V30 38 H 7.766947 1.935181 -18.545193 0
M  V30 39 H 6.323666 1.024013 -20.247793 0
M  V30 40 H 4.581289 -0.654882 -19.673641 0
M  V30 41 H 4.324937 -1.399190 -17.337650 0
M  V30 42 H 5.309052 -1.686569 -15.157077 0
M  V30 43 H 5.448650 -0.521163 -13.156013 0
M  V30 44 H 4.652745 1.592880 -12.246714 0
M  V30 45 H 5.286010 3.888987 -11.611378 0
M  V30 46 H 8.283739 3.937975 -14.625245 0
M  V30 47 H 11.768143 -0.635138 -17.813145 0
M  V30 END ATOM
M  V30 BEGIN BOND
M  V30 1 1 2 1
M  V30 2 1 3 2
M  V30 3 1 4 2
M  V30 4 1 5 4
M  V30 5 2 6 5
M  V30 6 1 7 6
M  V30 7 1 7 8 CFG=1
M  V30 8 1 9 4
M  V30 9 1 9 8
M  V30 10 1 10 7
M  V30 11 2 11 10
M  V30 12 1 12 11
M  V30 13 2 13 12
M  V30 14 1 14 13
M  V30 15 1 15 10
M  V30 16 2 15 14
M  V30 17 1 16 15
M  V30 18 2 17 16
M  V30 19 1 18 17
M  V30 20 1 19 18
M  V30 21 2 20 19
M  V30 22 1 21 20
M  V30 23 1 22 21
M  V30 24 2 23 21
M  V30 25 1 24 7
M  V30 26 2 24 18
M  V30 27 1 24 23
M  V30 28 1 25 1
M  V30 29 1 26 1
M  V30 30 1 27 1
M  V30 31 1 28 3
M  V30 32 1 29 3
M  V30 33 1 30 3
M  V30 34 1 4 31 CFG=1
M  V30 35 1 32 5
M  V30 36 1 33 6
M  V30 37 1 34 8
M  V30 38 1 35 8
M  V30 39 1 36 9
M  V30 40 1 37 9
M  V30 41 1 38 11
M  V30 42 1 39 12
M  V30 43 1 40 13
M  V30 44 1 41 14
M  V30 45 1 42 16
M  V30 46 1 43 17
M  V30 47 1 44 19
M  V30 48 1 45 20
M  V30 49 1 46 23
M  V30 50 1 47 2
M  V30 END BOND
M  V30 END CTAB
M  END
>  <b_m_subgroup_collapsed>  (2522) 
0

>  <r_i_docking_score>  (2522) 
-5.4365725758840604

>  <s_m_subgroup_title>  (2522) 
glide-dock_SP_D22_pv

>  <s_m_subgroupid>  (2522) 
glide-dock_SP_D22_pv

>  <Molecule ChEMBL ID>  (2522) 
CHEMBL300647

>  <Standard Type>  (2522) 
Ki

>  <Standard Value>  (2522) 
0.66

>  <label>  (2522) 
1

$$$$
CHEMBL3085215
     RDKit          3D

  0  0  0  0  0  0  0  0  0  0999 V3000
M  V30 BEGIN CTAB
M  V30 COUNTS 46 47 0 0 1
M  V30 BEGIN ATOM
M  V30 1 C 9.705757 5.275688 -8.862420 0
M  V30 2 C 8.490954 5.253612 -9.793780 0
M  V30 3 C 8.735026 5.942025 -11.148194 0
M  V30 4 N 7.461389 6.107561 -11.923956 0 CFG=1 CHG=1
M  V30 5 C 7.309552 7.357921 -12.742350 0
M  V30 6 C 8.111668 8.589681 -12.246303 0
M  V30 7 C 5.814013 7.716726 -12.936340 0
M  V30 8 C 6.964181 4.878317 -12.653192 0 CFG=2
M  V30 9 C 5.953909 4.060240 -11.852915 0
M  V30 10 O 5.287242 3.125036 -12.686082 0
M  V30 11 C 6.085723 2.314564 -13.459347 0
M  V30 12 C 5.546857 1.072286 -13.845110 0
M  V30 13 C 6.303629 0.171619 -14.608341 0
M  V30 14 C 7.607015 0.515001 -14.999036 0
M  V30 15 C 8.170175 1.761770 -14.647143 0
M  V30 16 C 9.584319 1.976562 -15.070812 0
M  V30 17 C 9.921017 3.270105 -15.805411 0
M  V30 18 O 10.462385 1.125663 -14.942617 0
M  V30 19 C 7.411062 2.673552 -13.849453 0
M  V30 20 C 8.025388 3.956541 -13.280408 0
M  V30 21 H 9.422308 4.958749 -7.859002 0
M  V30 22 H 10.486019 4.605126 -9.215079 0
M  V30 23 H 10.127380 6.277418 -8.775072 0
M  V30 24 H 7.685933 5.774520 -9.279282 0
M  V30 25 H 8.169527 4.223338 -9.926778 0
M  V30 26 H 9.515914 5.450743 -11.724691 0
M  V30 27 H 9.177808 6.895600 -10.882578 0
M  V30 28 H 7.686343 7.111785 -13.727891 0
M  V30 29 H 7.721362 9.514867 -12.651510 0
M  V30 30 H 8.086072 8.734445 -11.168147 0
M  V30 31 H 9.159986 8.524787 -12.538301 0
M  V30 32 H 5.656334 8.572324 -13.583246 0
M  V30 33 H 5.285796 6.911484 -13.426498 0
M  V30 34 H 5.285816 7.927459 -12.007275 0
M  V30 35 H 6.387704 5.197209 -13.513606 0
M  V30 36 H 6.432646 3.513905 -11.046821 0
M  V30 37 H 5.192615 4.721690 -11.445740 0
M  V30 38 H 4.543689 0.806871 -13.545498 0
M  V30 39 H 5.890070 -0.785637 -14.892465 0
M  V30 40 H 8.177777 -0.200735 -15.574961 0
M  V30 41 H 9.018895 3.774892 -16.147070 0
M  V30 42 H 10.487309 3.942554 -15.158898 0
M  V30 43 H 10.532414 3.047215 -16.680260 0
M  V30 44 H 8.756958 3.626935 -12.543830 0
M  V30 45 H 8.554901 4.522511 -14.042074 0
M  V30 46 H 6.796425 6.328404 -11.184077 0
M  V30 END ATOM
M  V30 BEGIN BOND
M  V30 1 1 2 1
M  V30 2 1 3 2
M  V30 3 1 4 3
M  V30 4 1 5 4
M  V30 5 1 6 5
M  V30 6 1 7 5
M  V30 7 1 8 4
M  V30 8 1 9 8
M  V30 9 1 10 9
M  V30 10 1 11 10
M  V30 11 1 12 11
M  V30 12 2 13 12
M  V30 13 1 14 13
M  V30 14 2 15 14
M  V30 15 1 16 15
M  V30 16 1 17 16
M  V30 17 2 18 16
M  V30 18 2 19 11
M  V30 19 1 19 15
M  V30 20 1 20 8
M  V30 21 1 20 19
M  V30 22 1 21 1
M  V30 23 1 22 1
M  V30 24 1 23 1
M  V30 25 1 24 2
M  V30 26 1 25 2
M  V30 27 1 26 3
M  V30 28 1 27 3
M  V30 29 1 28 5
M  V30 30 1 29 6
M  V30 31 1 30 6
M  V30 32 1 31 6
M  V30 33 1 32 7
M  V30 34 1 33 7
M  V30 35 1 34 7
M  V30 36 1 8 35 CFG=3
M  V30 37 1 36 9
M  V30 38 1 37 9
M  V30 39 1 38 12
M  V30 40 1 39 13
M  V30 41 1 40 14
M  V30 42 1 41 17
M  V30 43 1 42 17
M  V30 44 1 43 17
M  V30 45 1 44 20
M  V30 46 1 45 20
M  V30 47 1 4 46 CFG=1
M  V30 END BOND
M  V30 END CTAB
M  END
>  <b_m_subgroup_collapsed>  (2523) 
0

>  <r_i_docking_score>  (2523) 
-5.4364124772553897

>  <s_m_subgroup_title>  (2523) 
glide-dock_SP_D22_pv

>  <s_m_subgroupid>  (2523) 
glide-dock_SP_D22_pv

>  <Molecule ChEMBL ID>  (2523) 
CHEMBL3085215

>  <Standard Type>  (2523) 
Ki

>  <Standard Value>  (2523) 
30100.0

>  <label>  (2523) 
0

$$$$
CHEMBL317051
     RDKit          3D

  0  0  0  0  0  0  0  0  0  0999 V3000
M  V30 BEGIN CTAB
M  V30 COUNTS 31 33 0 0 1
M  V30 BEGIN ATOM
M  V30 1 C 7.162793 4.261472 -12.704790 0
M  V30 2 C 8.443927 4.020369 -13.438226 0
M  V30 3 S 9.845234 4.993127 -13.043868 0
M  V30 4 C 10.842772 4.171066 -14.210042 0
M  V30 5 C 12.296313 4.501905 -14.325393 0
M  V30 6 C 10.077635 3.249704 -14.878642 0
M  V30 7 C 8.735599 3.101432 -14.422093 0
M  V30 8 C 7.811824 2.059337 -14.999557 0
M  V30 9 C 8.271512 0.600216 -14.747498 0
M  V30 10 C 9.783615 0.300448 -14.902086 0
M  V30 11 C 10.475381 1.079349 -15.977351 0
M  V30 12 N 10.989511 0.553041 -17.090412 0
M  V30 13 N 11.454594 1.630438 -17.817949 0
M  V30 14 C 11.160028 2.711328 -17.088223 0
M  V30 15 C 11.354717 4.109668 -17.581156 0
M  V30 16 N 10.585229 2.419340 -15.902910 0
M  V30 17 H 6.336549 3.679795 -13.109472 0
M  V30 18 H 6.882391 5.314237 -12.762936 0
M  V30 19 H 7.267497 4.004393 -11.649999 0
M  V30 20 H 12.830215 3.772928 -14.933873 0
M  V30 21 H 12.769939 4.514031 -13.343921 0
M  V30 22 H 12.434708 5.486015 -14.771423 0
M  V30 23 H 6.791881 2.177001 -14.638335 0
M  V30 24 H 7.740146 2.215719 -16.077101 0
M  V30 25 H 7.977557 0.296310 -13.742322 0
M  V30 26 H 7.712087 -0.044371 -15.426921 0
M  V30 27 H 10.301576 0.509009 -13.968542 0
M  V30 28 H 9.928987 -0.763557 -15.086793 0
M  V30 29 H 10.430040 4.675572 -17.465359 0
M  V30 30 H 11.620922 4.102232 -18.637682 0
M  V30 31 H 12.151322 4.612500 -17.037523 0
M  V30 END ATOM
M  V30 BEGIN BOND
M  V30 1 1 2 1
M  V30 2 1 3 2
M  V30 3 1 4 3
M  V30 4 1 5 4
M  V30 5 2 6 4
M  V30 6 2 7 2
M  V30 7 1 7 6
M  V30 8 1 8 7
M  V30 9 1 9 8
M  V30 10 1 10 9
M  V30 11 1 11 10
M  V30 12 2 12 11
M  V30 13 1 13 12
M  V30 14 2 14 13
M  V30 15 1 15 14
M  V30 16 1 16 6
M  V30 17 1 16 11
M  V30 18 1 16 14
M  V30 19 1 17 1
M  V30 20 1 18 1
M  V30 21 1 19 1
M  V30 22 1 20 5
M  V30 23 1 21 5
M  V30 24 1 22 5
M  V30 25 1 23 8
M  V30 26 1 24 8
M  V30 27 1 25 9
M  V30 28 1 26 9
M  V30 29 1 27 10
M  V30 30 1 28 10
M  V30 31 1 29 15
M  V30 32 1 30 15
M  V30 33 1 31 15
M  V30 END BOND
M  V30 END CTAB
M  END
>  <b_m_subgroup_collapsed>  (2524) 
0

>  <r_i_docking_score>  (2524) 
-5.4340831035523998

>  <s_m_subgroup_title>  (2524) 
glide-dock_SP_D22_pv

>  <s_m_subgroupid>  (2524) 
glide-dock_SP_D22_pv

>  <Molecule ChEMBL ID>  (2524) 
CHEMBL317051

>  <Standard Type>  (2524) 
Ki

>  <Standard Value>  (2524) 
10000.0

>  <label>  (2524) 
0

$$$$
CHEMBL49
     RDKit          3D

  0  0  0  0  0  0  0  0  0  0999 V3000
M  V30 BEGIN CTAB
M  V30 COUNTS 59 62 0 0 1
M  V30 BEGIN ATOM
M  V30 1 O 12.774319 3.830872 -16.293386 0
M  V30 2 C 13.034752 5.012512 -16.522583 0
M  V30 3 C 13.545394 5.363861 -17.928835 0
M  V30 4 C 13.071781 6.755869 -18.381540 0
M  V30 5 C 11.554235 6.800211 -18.672626 0
M  V30 6 C 11.340300 7.896410 -19.728226 0
M  V30 7 C 12.726002 8.229735 -20.295069 0
M  V30 8 C 13.668274 7.158243 -19.739447 0
M  V30 9 C 13.488631 7.758005 -17.283138 0
M  V30 10 C 13.063421 7.318209 -15.873359 0
M  V30 11 O 12.885932 8.204478 -15.037119 0
M  V30 12 N 12.892007 5.995881 -15.591116 0
M  V30 13 C 12.440266 5.629557 -14.232827 0
M  V30 14 C 10.907911 5.720323 -14.114244 0
M  V30 15 C 10.230906 4.365764 -13.916734 0
M  V30 16 C 8.711667 4.484844 -14.116458 0
M  V30 17 N 8.040810 3.220962 -13.846774 0
M  V30 18 C 6.593021 3.413678 -13.706803 0
M  V30 19 C 5.896011 2.106491 -13.266828 0
M  V30 20 N 6.306368 0.979400 -14.105569 0
M  V30 21 C 5.388776 0.133798 -14.701088 0
M  V30 22 N 4.247180 -0.080820 -14.041368 0
M  V30 23 C 3.333415 -0.852768 -14.655117 0
M  V30 24 C 3.581865 -1.428247 -15.911042 0
M  V30 25 C 4.819945 -1.152792 -16.502039 0
M  V30 26 N 5.714170 -0.354863 -15.898067 0
M  V30 27 C 7.740502 0.870308 -14.362895 0
M  V30 28 C 8.288576 2.206752 -14.874615 0
M  V30 29 H 14.636214 5.324016 -17.908493 0
M  V30 30 H 13.221782 4.597188 -18.635103 0
M  V30 31 H 11.236563 5.849552 -19.100903 0
M  V30 32 H 10.941935 6.958436 -17.785419 0
M  V30 33 H 10.666067 7.549398 -20.511753 0
M  V30 34 H 10.886822 8.783419 -19.286900 0
M  V30 35 H 12.733576 8.257450 -21.385660 0
M  V30 36 H 13.035622 9.214389 -19.941172 0
M  V30 37 H 14.698943 7.508009 -19.668917 0
M  V30 38 H 13.665308 6.300786 -20.413826 0
M  V30 39 H 14.572902 7.875349 -17.272812 0
M  V30 40 H 13.074079 8.747029 -17.482718 0
M  V30 41 H 12.885954 6.291890 -13.488795 0
M  V30 42 H 12.799293 4.641329 -13.937614 0
M  V30 43 H 10.488490 6.172284 -15.014892 0
M  V30 44 H 10.642938 6.380019 -13.286979 0
M  V30 45 H 10.456572 3.976933 -12.922651 0
M  V30 46 H 10.655949 3.663402 -14.630978 0
M  V30 47 H 8.485846 4.835843 -15.120277 0
M  V30 48 H 8.334527 5.239927 -13.424781 0
M  V30 49 H 6.167703 3.766265 -14.646908 0
M  V30 50 H 6.392335 4.188552 -12.965788 0
M  V30 51 H 4.820202 2.263416 -13.333665 0
M  V30 52 H 6.085999 1.878136 -12.220812 0
M  V30 53 H 2.411572 -1.027300 -14.124090 0
M  V30 54 H 2.885918 -2.099646 -16.389275 0
M  V30 55 H 5.090326 -1.568632 -17.460867 0
M  V30 56 H 8.251102 0.579780 -13.446916 0
M  V30 57 H 7.970112 0.083975 -15.082099 0
M  V30 58 H 7.821010 2.487836 -15.819532 0
M  V30 59 H 9.352185 2.084010 -15.066675 0
M  V30 END ATOM
M  V30 BEGIN BOND
M  V30 1 2 2 1
M  V30 2 1 3 2
M  V30 3 1 4 3
M  V30 4 1 5 4
M  V30 5 1 6 5
M  V30 6 1 7 6
M  V30 7 1 8 4
M  V30 8 1 8 7
M  V30 9 1 9 4
M  V30 10 1 10 9
M  V30 11 2 11 10
M  V30 12 1 12 2
M  V30 13 1 12 10
M  V30 14 1 13 12
M  V30 15 1 14 13
M  V30 16 1 15 14
M  V30 17 1 16 15
M  V30 18 1 17 16
M  V30 19 1 18 17
M  V30 20 1 19 18
M  V30 21 1 20 19
M  V30 22 1 21 20
M  V30 23 2 22 21
M  V30 24 1 23 22
M  V30 25 2 24 23
M  V30 26 1 25 24
M  V30 27 1 26 21
M  V30 28 2 26 25
M  V30 29 1 27 20
M  V30 30 1 28 17
M  V30 31 1 28 27
M  V30 32 1 29 3
M  V30 33 1 30 3
M  V30 34 1 31 5
M  V30 35 1 32 5
M  V30 36 1 33 6
M  V30 37 1 34 6
M  V30 38 1 35 7
M  V30 39 1 36 7
M  V30 40 1 37 8
M  V30 41 1 38 8
M  V30 42 1 39 9
M  V30 43 1 40 9
M  V30 44 1 41 13
M  V30 45 1 42 13
M  V30 46 1 43 14
M  V30 47 1 44 14
M  V30 48 1 45 15
M  V30 49 1 46 15
M  V30 50 1 47 16
M  V30 51 1 48 16
M  V30 52 1 49 18
M  V30 53 1 50 18
M  V30 54 1 51 19
M  V30 55 1 52 19
M  V30 56 1 53 23
M  V30 57 1 54 24
M  V30 58 1 55 25
M  V30 59 1 56 27
M  V30 60 1 57 27
M  V30 61 1 58 28
M  V30 62 1 59 28
M  V30 END BOND
M  V30 END CTAB
M  END
>  <b_m_subgroup_collapsed>  (2525) 
0

>  <r_i_docking_score>  (2525) 
-5.4331986923885696

>  <s_m_subgroup_title>  (2525) 
glide-dock_SP_D22_pv

>  <s_m_subgroupid>  (2525) 
glide-dock_SP_D22_pv

>  <Molecule ChEMBL ID>  (2525) 
CHEMBL49

>  <Standard Type>  (2525) 
Ki

>  <Standard Value>  (2525) 
13.0

>  <label>  (2525) 
1

$$$$
CHEMBL243955
     RDKit          3D

  0  0  0  0  0  0  0  0  0  0999 V3000
M  V30 BEGIN CTAB
M  V30 COUNTS 74 77 0 0 1
M  V30 BEGIN ATOM
M  V30 1 C 9.763632 6.726112 -6.191328 0
M  V30 2 N 9.451614 7.385346 -7.447966 0
M  V30 3 C 8.500739 8.475852 -7.378309 0
M  V30 4 C 10.542872 7.646648 -8.289926 0
M  V30 5 C 11.691510 8.237885 -7.721424 0
M  V30 6 C 12.820935 8.504059 -8.506623 0
M  V30 7 C 12.818796 8.172221 -9.868488 0
M  V30 8 C 11.666410 7.640430 -10.460907 0
M  V30 9 C 10.513596 7.372454 -9.690631 0
M  V30 10 N 9.400720 6.824632 -10.358191 0
M  V30 11 C 8.942304 7.423576 -11.611936 0
M  V30 12 C 8.555576 6.332040 -12.613749 0
M  V30 13 N 7.641576 5.332998 -12.001403 0 CHG=1
M  V30 14 C 7.103209 4.335338 -12.967464 0
M  V30 15 C 8.213129 3.584471 -13.734384 0
M  V30 16 C 7.742696 2.386128 -14.569252 0
M  V30 17 C 8.903495 1.504847 -15.086059 0
M  V30 18 C 9.874137 2.171046 -16.093077 0
M  V30 19 C 10.953648 3.079391 -15.482101 0
M  V30 20 O 11.285541 2.965292 -14.302586 0
M  V30 21 N 11.487576 3.997924 -16.301170 0
M  V30 22 C 12.522919 4.965799 -15.937746 0 CFG=2
M  V30 23 C 11.869215 6.223638 -15.327364 0
M  V30 24 C 12.827374 7.416978 -15.280789 0
M  V30 25 C 13.305097 7.785455 -16.689453 0
M  V30 26 C 13.821126 6.586042 -17.467012 0
M  V30 27 C 14.678345 6.810977 -18.563885 0
M  V30 28 C 15.170462 5.731347 -19.319077 0
M  V30 29 C 14.806797 4.415992 -18.979185 0
M  V30 30 C 13.952874 4.183459 -17.885300 0
M  V30 31 C 13.443439 5.260715 -17.124260 0
M  V30 32 C 8.241008 4.709524 -10.795886 0
M  V30 33 C 8.598642 5.765326 -9.750473 0
M  V30 34 H 10.585894 6.018925 -6.307990 0
M  V30 35 H 10.036604 7.452917 -5.427435 0
M  V30 36 H 8.886222 6.181052 -5.844985 0
M  V30 37 H 8.086079 8.702811 -8.359201 0
M  V30 38 H 7.687185 8.195621 -6.707723 0
M  V30 39 H 8.988709 9.371825 -7.001472 0
M  V30 40 H 11.714010 8.495623 -6.673065 0
M  V30 41 H 13.687123 8.972202 -8.062494 0
M  V30 42 H 13.688838 8.379440 -10.472473 0
M  V30 43 H 11.694005 7.411692 -11.515657 0
M  V30 44 H 8.086093 8.071200 -11.440275 0
M  V30 45 H 9.696031 8.071489 -12.056677 0
M  V30 46 H 8.082500 6.786794 -13.479413 0
M  V30 47 H 9.468166 5.843917 -12.958096 0
M  V30 48 H 6.470476 3.629624 -12.427246 0
M  V30 49 H 6.447671 4.843487 -13.676319 0
M  V30 50 H 8.719800 4.284375 -14.397952 0
M  V30 51 H 8.964675 3.218598 -13.036360 0
M  V30 52 H 7.094839 1.759467 -13.954886 0
M  V30 53 H 7.127491 2.720811 -15.403520 0
M  V30 54 H 9.459474 1.094836 -14.240981 0
M  V30 55 H 8.464327 0.635833 -15.578122 0
M  V30 56 H 10.402342 1.385609 -16.634882 0
M  V30 57 H 9.305303 2.727704 -16.839550 0
M  V30 58 H 11.168264 4.023200 -17.258450 0
M  V30 59 H 13.172632 4.524717 -15.178976 0
M  V30 60 H 11.005052 6.510941 -15.928230 0
M  V30 61 H 11.489960 6.000568 -14.329612 0
M  V30 62 H 13.685036 7.157948 -14.658791 0
M  V30 63 H 12.350667 8.276269 -14.809135 0
M  V30 64 H 14.079436 8.552258 -16.643900 0
M  V30 65 H 12.486299 8.220696 -17.261471 0
M  V30 66 H 14.958923 7.818853 -18.833139 0
M  V30 67 H 15.825538 5.911897 -20.158920 0
M  V30 68 H 15.183891 3.585496 -19.557537 0
M  V30 69 H 13.694520 3.166446 -17.627209 0
M  V30 70 H 7.548946 3.987784 -10.364482 0
M  V30 71 H 9.149516 4.172120 -11.064279 0
M  V30 72 H 9.147902 5.280482 -8.943025 0
M  V30 73 H 7.686501 6.172791 -9.315465 0
M  V30 74 H 6.857780 5.868745 -11.645338 0
M  V30 END ATOM
M  V30 BEGIN BOND
M  V30 1 1 2 1
M  V30 2 1 3 2
M  V30 3 1 4 2
M  V30 4 2 5 4
M  V30 5 1 6 5
M  V30 6 2 7 6
M  V30 7 1 8 7
M  V30 8 1 9 4
M  V30 9 2 9 8
M  V30 10 1 10 9
M  V30 11 1 11 10
M  V30 12 1 12 11
M  V30 13 1 13 12
M  V30 14 1 14 13
M  V30 15 1 15 14
M  V30 16 1 16 15
M  V30 17 1 17 16
M  V30 18 1 18 17
M  V30 19 1 19 18
M  V30 20 2 20 19
M  V30 21 1 21 19
M  V30 22 1 22 21
M  V30 23 1 23 22
M  V30 24 1 24 23
M  V30 25 1 25 24
M  V30 26 1 26 25
M  V30 27 2 27 26
M  V30 28 1 28 27
M  V30 29 2 29 28
M  V30 30 1 30 29
M  V30 31 1 31 22
M  V30 32 1 31 26
M  V30 33 2 31 30
M  V30 34 1 32 13
M  V30 35 1 33 10
M  V30 36 1 33 32
M  V30 37 1 34 1
M  V30 38 1 35 1
M  V30 39 1 36 1
M  V30 40 1 37 3
M  V30 41 1 38 3
M  V30 42 1 39 3
M  V30 43 1 40 5
M  V30 44 1 41 6
M  V30 45 1 42 7
M  V30 46 1 43 8
M  V30 47 1 44 11
M  V30 48 1 45 11
M  V30 49 1 46 12
M  V30 50 1 47 12
M  V30 51 1 48 14
M  V30 52 1 49 14
M  V30 53 1 50 15
M  V30 54 1 51 15
M  V30 55 1 52 16
M  V30 56 1 53 16
M  V30 57 1 54 17
M  V30 58 1 55 17
M  V30 59 1 56 18
M  V30 60 1 57 18
M  V30 61 1 58 21
M  V30 62 1 22 59 CFG=1
M  V30 63 1 60 23
M  V30 64 1 61 23
M  V30 65 1 62 24
M  V30 66 1 63 24
M  V30 67 1 64 25
M  V30 68 1 65 25
M  V30 69 1 66 27
M  V30 70 1 67 28
M  V30 71 1 68 29
M  V30 72 1 69 30
M  V30 73 1 70 32
M  V30 74 1 71 32
M  V30 75 1 72 33
M  V30 76 1 73 33
M  V30 77 1 74 13
M  V30 END BOND
M  V30 END CTAB
M  END
>  <b_m_subgroup_collapsed>  (2526) 
0

>  <r_i_docking_score>  (2526) 
-5.4327438491403299

>  <s_m_subgroup_title>  (2526) 
glide-dock_SP_D22_pv

>  <s_m_subgroupid>  (2526) 
glide-dock_SP_D22_pv

>  <Molecule ChEMBL ID>  (2526) 
CHEMBL243955

>  <Standard Type>  (2526) 
Ki

>  <Standard Value>  (2526) 
32.0

>  <label>  (2526) 
1

$$$$
CHEMBL3797740
     RDKit          3D

  0  0  0  0  0  0  0  0  0  0999 V3000
M  V30 BEGIN CTAB
M  V30 COUNTS 37 39 0 0 1
M  V30 BEGIN ATOM
M  V30 1 C 8.152343 5.161539 -13.153185 0
M  V30 2 C 8.722304 4.153749 -14.158254 0
M  V30 3 C 7.762877 2.973120 -14.394923 0
M  V30 4 N 8.376836 1.868371 -15.136317 0
M  V30 5 C 9.273530 1.103231 -14.271721 0
M  V30 6 C 7.394542 0.957172 -15.742413 0 CFG=2
M  V30 7 C 6.921949 1.492594 -17.118299 0
M  V30 8 C 5.944349 0.552178 -17.816458 0
M  V30 9 C 5.655961 0.367915 -19.188326 0
M  V30 10 C 4.658772 -0.567523 -19.587845 0
M  V30 11 C 3.931684 -1.331477 -18.633955 0
M  V30 12 C 4.214345 -1.141623 -17.267740 0
M  V30 13 N 3.686000 -1.650554 -16.082962 0
M  V30 14 C 4.238913 -0.991482 -15.046960 0
M  V30 15 O 3.869466 -1.027393 -13.873587 0
M  V30 16 N 5.237599 -0.228744 -15.543779 0
M  V30 17 C 5.187931 -0.231326 -16.941780 0
M  V30 18 C 6.214458 0.558272 -14.807567 0
M  V30 19 H 8.801616 6.032343 -13.060767 0
M  V30 20 H 7.163668 5.511001 -13.445551 0
M  V30 21 H 8.058764 4.713080 -12.163651 0
M  V30 22 H 9.686679 3.817986 -13.780913 0
M  V30 23 H 8.923987 4.652717 -15.106228 0
M  V30 24 H 6.895428 3.347664 -14.937090 0
M  V30 25 H 7.381110 2.601471 -13.447457 0
M  V30 26 H 9.771584 0.312541 -14.834405 0
M  V30 27 H 10.059555 1.725219 -13.846653 0
M  V30 28 H 8.731150 0.636647 -13.450031 0
M  V30 29 H 7.923325 0.032041 -15.982195 0
M  V30 30 H 7.782243 1.645412 -17.770685 0
M  V30 31 H 6.434931 2.461083 -17.008829 0
M  V30 32 H 6.186850 0.939108 -19.935272 0
M  V30 33 H 4.442579 -0.695252 -20.639021 0
M  V30 34 H 3.166240 -2.026769 -18.945820 0
M  V30 35 H 2.976906 -2.376837 -16.043964 0
M  V30 36 H 5.687340 1.420532 -14.403213 0
M  V30 37 H 6.576664 -0.020960 -13.956920 0
M  V30 END ATOM
M  V30 BEGIN BOND
M  V30 1 1 2 1
M  V30 2 1 3 2
M  V30 3 1 4 3
M  V30 4 1 5 4
M  V30 5 1 6 4
M  V30 6 1 7 6
M  V30 7 1 8 7
M  V30 8 1 9 8
M  V30 9 2 10 9
M  V30 10 1 11 10
M  V30 11 2 12 11
M  V30 12 1 13 12
M  V30 13 1 14 13
M  V30 14 2 15 14
M  V30 15 1 16 14
M  V30 16 2 17 8
M  V30 17 1 17 12
M  V30 18 1 17 16
M  V30 19 1 18 6
M  V30 20 1 18 16
M  V30 21 1 19 1
M  V30 22 1 20 1
M  V30 23 1 21 1
M  V30 24 1 22 2
M  V30 25 1 23 2
M  V30 26 1 24 3
M  V30 27 1 25 3
M  V30 28 1 26 5
M  V30 29 1 27 5
M  V30 30 1 28 5
M  V30 31 1 6 29 CFG=3
M  V30 32 1 30 7
M  V30 33 1 31 7
M  V30 34 1 32 9
M  V30 35 1 33 10
M  V30 36 1 34 11
M  V30 37 1 35 13
M  V30 38 1 36 18
M  V30 39 1 37 18
M  V30 END BOND
M  V30 END CTAB
M  END
>  <b_m_subgroup_collapsed>  (2527) 
0

>  <r_i_docking_score>  (2527) 
-5.4305509221642003

>  <s_m_subgroup_title>  (2527) 
glide-dock_SP_D22_pv

>  <s_m_subgroupid>  (2527) 
glide-dock_SP_D22_pv

>  <Molecule ChEMBL ID>  (2527) 
CHEMBL3797740

>  <Standard Type>  (2527) 
Ki

>  <Standard Value>  (2527) 
12.5

>  <label>  (2527) 
1

$$$$
CHEMBL397103
     RDKit          3D

  0  0  0  0  0  0  0  0  0  0999 V3000
M  V30 BEGIN CTAB
M  V30 COUNTS 43 44 0 0 1
M  V30 BEGIN ATOM
M  V30 1 C 10.093679 6.610954 -6.834520 0
M  V30 2 C 8.997560 6.390064 -7.575941 0
M  V30 3 C 8.945403 5.469518 -8.782193 0
M  V30 4 N 8.486586 6.172396 -10.009604 0 CFG=1 CHG=1
M  V30 5 C 9.209950 7.412468 -10.369165 0
M  V30 6 C 8.889231 7.662039 -11.850803 0
M  V30 7 C 8.050660 6.455034 -12.294607 0
M  V30 8 C 8.369177 5.373905 -11.252314 0 CFG=1
M  V30 9 C 9.677410 4.610309 -11.605111 0
M  V30 10 N 9.501120 3.667050 -12.694743 0
M  V30 11 C 9.788306 3.842527 -13.990838 0
M  V30 12 O 10.253497 4.882864 -14.454141 0
M  V30 13 C 9.511147 2.630150 -14.836224 0
M  V30 14 C 8.296398 1.931910 -14.646482 0
M  V30 15 C 8.000484 0.782614 -15.396263 0
M  V30 16 I 6.200117 -0.227630 -15.064747 0
M  V30 17 C 8.915195 0.325009 -16.358908 0
M  V30 18 C 10.119184 1.022086 -16.572187 0
M  V30 19 C 10.435000 2.182829 -15.818585 0
M  V30 20 O 11.613375 2.883655 -15.980268 0
M  V30 21 C 12.486629 2.512793 -17.035915 0
M  V30 22 H 11.036912 6.132520 -7.054960 0
M  V30 23 H 10.056931 7.279312 -5.986677 0
M  V30 24 H 8.085708 6.896332 -7.305552 0
M  V30 25 H 9.939865 5.046265 -8.918214 0
M  V30 26 H 8.266752 4.642902 -8.564768 0
M  V30 27 H 8.889889 8.244538 -9.741673 0
M  V30 28 H 10.283946 7.278915 -10.230832 0
M  V30 29 H 8.342919 8.594200 -11.998648 0
M  V30 30 H 9.814644 7.723330 -12.423489 0
M  V30 31 H 6.989967 6.711315 -12.246563 0
M  V30 32 H 8.249102 6.160863 -13.323426 0
M  V30 33 H 7.540743 4.670053 -11.151254 0
M  V30 34 H 10.480494 5.306727 -11.846662 0
M  V30 35 H 10.023599 4.001339 -10.772954 0
M  V30 36 H 9.222291 2.732076 -12.428619 0
M  V30 37 H 7.575173 2.272592 -13.916421 0
M  V30 38 H 8.690549 -0.560440 -16.934433 0
M  V30 39 H 10.794815 0.633986 -17.318607 0
M  V30 40 H 13.334424 3.198146 -17.051863 0
M  V30 41 H 12.882218 1.507301 -16.893253 0
M  V30 42 H 11.991039 2.573792 -18.005610 0
M  V30 43 H 7.539816 6.516201 -9.838625 0
M  V30 END ATOM
M  V30 BEGIN BOND
M  V30 1 2 2 1
M  V30 2 1 3 2
M  V30 3 1 4 3
M  V30 4 1 5 4
M  V30 5 1 6 5
M  V30 6 1 7 6
M  V30 7 1 8 4
M  V30 8 1 8 7
M  V30 9 1 9 8
M  V30 10 1 10 9
M  V30 11 1 11 10
M  V30 12 2 12 11
M  V30 13 1 13 11
M  V30 14 1 14 13
M  V30 15 2 15 14
M  V30 16 1 16 15
M  V30 17 1 17 15
M  V30 18 2 18 17
M  V30 19 2 19 13
M  V30 20 1 19 18
M  V30 21 1 20 19
M  V30 22 1 21 20
M  V30 23 1 22 1
M  V30 24 1 23 1
M  V30 25 1 24 2
M  V30 26 1 25 3
M  V30 27 1 26 3
M  V30 28 1 27 5
M  V30 29 1 28 5
M  V30 30 1 29 6
M  V30 31 1 30 6
M  V30 32 1 31 7
M  V30 33 1 32 7
M  V30 34 1 8 33 CFG=1
M  V30 35 1 34 9
M  V30 36 1 35 9
M  V30 37 1 36 10
M  V30 38 1 37 14
M  V30 39 1 38 17
M  V30 40 1 39 18
M  V30 41 1 40 21
M  V30 42 1 41 21
M  V30 43 1 42 21
M  V30 44 1 4 43 CFG=1
M  V30 END BOND
M  V30 END CTAB
M  END
>  <b_m_subgroup_collapsed>  (2528) 
0

>  <r_i_docking_score>  (2528) 
-5.4293192741920402

>  <s_m_subgroup_title>  (2528) 
glide-dock_SP_D22_pv

>  <s_m_subgroupid>  (2528) 
glide-dock_SP_D22_pv

>  <Molecule ChEMBL ID>  (2528) 
CHEMBL397103

>  <Standard Type>  (2528) 
Ki

>  <Standard Value>  (2528) 
14.0

>  <label>  (2528) 
1

$$$$
CHEMBL594557
     RDKit          3D

  0  0  0  0  0  0  0  0  0  0999 V3000
M  V30 BEGIN CTAB
M  V30 COUNTS 40 43 0 0 1
M  V30 BEGIN ATOM
M  V30 1 C 10.488750 8.597774 -6.052871 0
M  V30 2 O 9.922483 8.962723 -7.302942 0
M  V30 3 C 9.842809 7.996225 -8.281704 0
M  V30 4 C 10.175376 6.636334 -8.082823 0
M  V30 5 C 10.085847 5.723529 -9.148417 0
M  V30 6 C 9.686248 6.137588 -10.436950 0
M  V30 7 C 9.286027 7.481121 -10.621474 0
M  V30 8 C 9.387856 8.398269 -9.551985 0
M  V30 9 C 8.690969 7.950771 -11.937860 0
M  V30 10 C 7.537341 7.082803 -12.511002 0
M  V30 11 C 7.239408 5.707386 -11.851726 0
M  V30 12 N 8.305002 4.694984 -12.050532 0 CFG=1 CHG=1
M  V30 13 C 8.435068 4.224094 -13.463596 0
M  V30 14 C 9.713952 4.866063 -13.930145 0
M  V30 15 C 10.200476 4.966794 -15.244999 0
M  V30 16 C 11.404923 5.676227 -15.453872 0
M  V30 17 C 12.081018 6.281689 -14.367253 0
M  V30 18 C 11.571737 6.171512 -13.054636 0
M  V30 19 C 10.391581 5.427697 -12.859153 0
M  V30 20 C 9.657966 5.105294 -11.572101 0 CFG=1
M  V30 21 H 10.523047 9.472092 -5.402954 0
M  V30 22 H 11.511628 8.237114 -6.170803 0
M  V30 23 H 9.893779 7.833323 -5.552226 0
M  V30 24 H 10.508128 6.267101 -7.124939 0
M  V30 25 H 10.360194 4.693928 -8.970666 0
M  V30 26 H 9.085744 9.424564 -9.695383 0
M  V30 27 H 8.328338 8.973680 -11.826502 0
M  V30 28 H 9.509926 8.025026 -12.646634 0
M  V30 29 H 6.622312 7.669962 -12.434710 0
M  V30 30 H 7.684359 6.965360 -13.578728 0
M  V30 31 H 7.049195 5.773948 -10.780751 0
M  V30 32 H 6.311095 5.311676 -12.265388 0
M  V30 33 H 8.547497 3.139573 -13.488411 0
M  V30 34 H 7.587766 4.501909 -14.091868 0
M  V30 35 H 9.666724 4.526360 -16.074638 0
M  V30 36 H 11.805328 5.772311 -16.452305 0
M  V30 37 H 12.995106 6.831441 -14.540854 0
M  V30 38 H 12.091750 6.633037 -12.229162 0
M  V30 39 H 10.106435 4.184727 -11.199168 0
M  V30 40 H 8.020120 3.906078 -11.488345 0
M  V30 END ATOM
M  V30 BEGIN BOND
M  V30 1 1 2 1
M  V30 2 1 3 2
M  V30 3 1 4 3
M  V30 4 2 5 4
M  V30 5 1 6 5
M  V30 6 2 7 6
M  V30 7 2 8 3
M  V30 8 1 8 7
M  V30 9 1 9 7
M  V30 10 1 10 9
M  V30 11 1 11 10
M  V30 12 1 12 11
M  V30 13 1 13 12
M  V30 14 1 14 13
M  V30 15 2 15 14
M  V30 16 1 16 15
M  V30 17 2 17 16
M  V30 18 1 18 17
M  V30 19 1 19 14
M  V30 20 2 19 18
M  V30 21 1 20 6
M  V30 22 1 20 12
M  V30 23 1 20 19
M  V30 24 1 21 1
M  V30 25 1 22 1
M  V30 26 1 23 1
M  V30 27 1 24 4
M  V30 28 1 25 5
M  V30 29 1 26 8
M  V30 30 1 27 9
M  V30 31 1 28 9
M  V30 32 1 29 10
M  V30 33 1 30 10
M  V30 34 1 31 11
M  V30 35 1 32 11
M  V30 36 1 33 13
M  V30 37 1 34 13
M  V30 38 1 35 15
M  V30 39 1 36 16
M  V30 40 1 37 17
M  V30 41 1 38 18
M  V30 42 1 20 39 CFG=1
M  V30 43 1 12 40 CFG=1
M  V30 END BOND
M  V30 END CTAB
M  END
>  <b_m_subgroup_collapsed>  (2529) 
0

>  <r_i_docking_score>  (2529) 
-5.4286688700317196

>  <s_m_subgroup_title>  (2529) 
glide-dock_SP_D22_pv

>  <s_m_subgroupid>  (2529) 
glide-dock_SP_D22_pv

>  <Molecule ChEMBL ID>  (2529) 
CHEMBL594557

>  <Standard Type>  (2529) 
Ki

>  <Standard Value>  (2529) 
10000.0

>  <label>  (2529) 
0

$$$$
CHEMBL285341
     RDKit          3D

  0  0  0  0  0  0  0  0  0  0999 V3000
M  V30 BEGIN CTAB
M  V30 COUNTS 55 58 0 0 1
M  V30 BEGIN ATOM
M  V30 1 C 12.402884 8.242780 -10.523372 0
M  V30 2 C 11.043417 8.766059 -10.030057 0
M  V30 3 N 10.406229 7.843341 -9.065782 0
M  V30 4 C 10.527779 8.357889 -7.680562 0
M  V30 5 C 9.927146 7.533454 -6.525416 0
M  V30 6 C 9.848702 6.654556 -9.441582 0
M  V30 7 O 9.471497 5.777595 -8.666341 0
M  V30 8 N 9.716372 6.495724 -10.769959 0
M  V30 9 C 9.127892 5.330683 -11.418920 0 CFG=2
M  V30 10 C 9.818303 5.030246 -12.755738 0
M  V30 11 C 9.193071 3.762918 -13.369148 0 CFG=2
M  V30 12 C 9.930199 3.316339 -14.642586 0
M  V30 13 C 11.271178 3.550813 -15.034894 0
M  V30 14 C 11.783246 3.005470 -16.241127 0
M  V30 15 C 10.979155 2.198274 -17.082909 0
M  V30 16 C 9.650385 1.948422 -16.700331 0
M  V30 17 C 9.173470 2.511925 -15.511362 0
M  V30 18 C 7.776328 2.172647 -15.337259 0
M  V30 19 C 7.375683 1.414974 -16.364138 0
M  V30 20 C 8.507002 1.165941 -17.331228 0
M  V30 21 C 6.981854 2.711161 -14.176529 0
M  V30 22 C 7.653826 3.959996 -13.549078 0 CFG=1
M  V30 23 N 6.993902 4.371841 -12.269177 0 CFG=2 CHG=1
M  V30 24 C 5.530301 4.565403 -12.381742 0
M  V30 25 C 7.629698 5.559662 -11.644326 0
M  V30 26 H 12.873652 8.969113 -11.186314 0
M  V30 27 H 12.311188 7.310721 -11.077399 0
M  V30 28 H 13.079650 8.072952 -9.686236 0
M  V30 29 H 11.200146 9.746990 -9.579134 0
M  V30 30 H 10.379736 8.957004 -10.874431 0
M  V30 31 H 11.588768 8.510742 -7.471973 0
M  V30 32 H 10.060267 9.345096 -7.647087 0
M  V30 33 H 10.085272 8.041213 -5.575870 0
M  V30 34 H 10.396966 6.552362 -6.435962 0
M  V30 35 H 8.850235 7.394356 -6.645976 0
M  V30 36 H 10.023340 7.257811 -11.353189 0
M  V30 37 H 9.263633 4.460486 -10.769659 0
M  V30 38 H 9.723302 5.870355 -13.443707 0
M  V30 39 H 10.885427 4.879199 -12.594430 0
M  V30 40 H 9.351858 2.951917 -12.656996 0
M  V30 41 H 11.925801 4.146386 -14.419077 0
M  V30 42 H 12.809472 3.201028 -16.517351 0
M  V30 43 H 11.381783 1.782885 -17.994574 0
M  V30 44 H 6.379221 1.025913 -16.518042 0
M  V30 45 H 8.269245 1.549587 -18.324297 0
M  V30 46 H 8.745518 0.103065 -17.395567 0
M  V30 47 H 5.970655 2.920688 -14.518308 0
M  V30 48 H 6.905690 1.908308 -13.446983 0
M  V30 49 H 7.519546 4.784770 -14.247845 0
M  V30 50 H 5.288567 5.278068 -13.169300 0
M  V30 51 H 5.117728 4.944896 -11.445654 0
M  V30 52 H 5.012040 3.630580 -12.589074 0
M  V30 53 H 7.153757 5.766881 -10.685637 0
M  V30 54 H 7.463966 6.437346 -12.271730 0
M  V30 55 H 7.125210 3.619934 -11.608751 0
M  V30 END ATOM
M  V30 BEGIN BOND
M  V30 1 1 2 1
M  V30 2 1 3 2
M  V30 3 1 4 3
M  V30 4 1 5 4
M  V30 5 1 6 3
M  V30 6 2 7 6
M  V30 7 1 8 6
M  V30 8 1 9 8
M  V30 9 1 10 9
M  V30 10 1 11 10
M  V30 11 1 12 11
M  V30 12 2 13 12
M  V30 13 1 14 13
M  V30 14 2 15 14
M  V30 15 1 16 15
M  V30 16 1 17 12
M  V30 17 2 17 16
M  V30 18 1 18 17
M  V30 19 2 19 18
M  V30 20 1 20 16
M  V30 21 1 20 19
M  V30 22 1 21 18
M  V30 23 1 22 11
M  V30 24 1 22 21
M  V30 25 1 23 22
M  V30 26 1 24 23
M  V30 27 1 25 9
M  V30 28 1 25 23
M  V30 29 1 26 1
M  V30 30 1 27 1
M  V30 31 1 28 1
M  V30 32 1 29 2
M  V30 33 1 30 2
M  V30 34 1 31 4
M  V30 35 1 32 4
M  V30 36 1 33 5
M  V30 37 1 34 5
M  V30 38 1 35 5
M  V30 39 1 36 8
M  V30 40 1 9 37 CFG=1
M  V30 41 1 38 10
M  V30 42 1 39 10
M  V30 43 1 11 40 CFG=1
M  V30 44 1 41 13
M  V30 45 1 42 14
M  V30 46 1 43 15
M  V30 47 1 44 19
M  V30 48 1 45 20
M  V30 49 1 46 20
M  V30 50 1 47 21
M  V30 51 1 48 21
M  V30 52 1 22 49 CFG=3
M  V30 53 1 50 24
M  V30 54 1 51 24
M  V30 55 1 52 24
M  V30 56 1 53 25
M  V30 57 1 54 25
M  V30 58 1 23 55 CFG=1
M  V30 END BOND
M  V30 END CTAB
M  END
>  <b_m_subgroup_collapsed>  (2530) 
0

>  <r_i_docking_score>  (2530) 
-5.42753114340612

>  <s_m_subgroup_title>  (2530) 
glide-dock_SP_D22_pv

>  <s_m_subgroupid>  (2530) 
glide-dock_SP_D22_pv

>  <Molecule ChEMBL ID>  (2530) 
CHEMBL285341

>  <Standard Type>  (2530) 
Ki

>  <Standard Value>  (2530) 
0.8

>  <label>  (2530) 
1

$$$$
CHEMBL379662
     RDKit          3D

  0  0  0  0  0  0  0  0  0  0999 V3000
M  V30 BEGIN CTAB
M  V30 COUNTS 45 47 0 0 1
M  V30 BEGIN ATOM
M  V30 1 C 5.249252 3.204854 -12.961246 0
M  V30 2 O 6.485554 2.901222 -13.595940 0
M  V30 3 C 7.539348 3.777019 -13.441550 0
M  V30 4 C 7.362410 5.053723 -12.854414 0
M  V30 5 C 8.454349 5.904817 -12.647088 0
M  V30 6 C 9.737935 5.487182 -13.018984 0
M  V30 7 C 9.948668 4.221929 -13.605433 0
M  V30 8 C 8.840427 3.353783 -13.844704 0
M  V30 9 C 9.012956 1.929603 -14.404191 0
M  V30 10 C 8.687095 1.752446 -15.894058 0
M  V30 11 C 7.332129 1.562540 -16.253326 0
M  V30 12 C 6.944539 1.372862 -17.591076 0
M  V30 13 C 7.916008 1.367722 -18.604298 0
M  V30 14 C 9.270500 1.521858 -18.266552 0
M  V30 15 C 9.672048 1.697925 -16.922642 0
M  V30 16 C 11.174757 1.777905 -16.672621 0
M  V30 17 C 11.782378 3.121521 -17.107687 0
M  V30 18 N 11.209057 4.283479 -16.372900 0 CFG=2 CHG=1
M  V30 19 C 11.034589 5.469349 -17.248720 0
M  V30 20 C 11.948077 4.616504 -15.127068 0
M  V30 21 C 11.397976 3.868561 -13.906671 0
M  V30 22 H 4.570688 2.357242 -13.049206 0
M  V30 23 H 4.765502 4.063532 -13.427687 0
M  V30 24 H 5.384085 3.399792 -11.896541 0
M  V30 25 H 6.395818 5.408097 -12.527822 0
M  V30 26 H 8.303402 6.870750 -12.184048 0
M  V30 27 H 10.572382 6.147981 -12.835749 0
M  V30 28 H 9.973167 1.500266 -14.148582 0
M  V30 29 H 8.337127 1.277751 -13.849022 0
M  V30 30 H 6.563487 1.537804 -15.499265 0
M  V30 31 H 5.903871 1.223296 -17.834454 0
M  V30 32 H 7.628600 1.215311 -19.633894 0
M  V30 33 H 10.010609 1.475740 -19.049093 0
M  V30 34 H 11.450100 1.516648 -15.655853 0
M  V30 35 H 11.639346 0.988837 -17.264160 0
M  V30 36 H 12.868848 3.096957 -17.006350 0
M  V30 37 H 11.596848 3.239006 -18.177092 0
M  V30 38 H 11.999600 5.835351 -17.610374 0
M  V30 39 H 10.537262 6.277327 -16.707409 0
M  V30 40 H 10.406410 5.226802 -18.108936 0
M  V30 41 H 13.018617 4.430982 -15.243520 0
M  V30 42 H 11.864984 5.686113 -14.923116 0
M  V30 43 H 11.991488 4.174960 -13.047279 0
M  V30 44 H 11.584230 2.800845 -13.966611 0
M  V30 45 H 10.268060 4.022426 -16.093750 0
M  V30 END ATOM
M  V30 BEGIN BOND
M  V30 1 1 2 1
M  V30 2 1 3 2
M  V30 3 2 4 3
M  V30 4 1 5 4
M  V30 5 2 6 5
M  V30 6 1 7 6
M  V30 7 1 8 3
M  V30 8 2 8 7
M  V30 9 1 9 8
M  V30 10 1 10 9
M  V30 11 2 11 10
M  V30 12 1 12 11
M  V30 13 2 13 12
M  V30 14 1 14 13
M  V30 15 1 15 10
M  V30 16 2 15 14
M  V30 17 1 16 15
M  V30 18 1 17 16
M  V30 19 1 18 17
M  V30 20 1 19 18
M  V30 21 1 20 18
M  V30 22 1 21 7
M  V30 23 1 21 20
M  V30 24 1 22 1
M  V30 25 1 23 1
M  V30 26 1 24 1
M  V30 27 1 25 4
M  V30 28 1 26 5
M  V30 29 1 27 6
M  V30 30 1 28 9
M  V30 31 1 29 9
M  V30 32 1 30 11
M  V30 33 1 31 12
M  V30 34 1 32 13
M  V30 35 1 33 14
M  V30 36 1 34 16
M  V30 37 1 35 16
M  V30 38 1 36 17
M  V30 39 1 37 17
M  V30 40 1 38 19
M  V30 41 1 39 19
M  V30 42 1 40 19
M  V30 43 1 41 20
M  V30 44 1 42 20
M  V30 45 1 43 21
M  V30 46 1 44 21
M  V30 47 1 18 45 CFG=1
M  V30 END BOND
M  V30 END CTAB
M  END
>  <b_m_subgroup_collapsed>  (2531) 
0

>  <r_i_docking_score>  (2531) 
-5.4213677575184596

>  <s_m_subgroup_title>  (2531) 
glide-dock_SP_D22_pv

>  <s_m_subgroupid>  (2531) 
glide-dock_SP_D22_pv

>  <Molecule ChEMBL ID>  (2531) 
CHEMBL379662

>  <Standard Type>  (2531) 
Ki

>  <Standard Value>  (2531) 
39.9

>  <label>  (2531) 
1

$$$$
CHEMBL455318
     RDKit          3D

  0  0  0  0  0  0  0  0  0  0999 V3000
M  V30 BEGIN CTAB
M  V30 COUNTS 94 101 0 0 1
M  V30 BEGIN ATOM
M  V30 1 C 5.419190 -7.703291 -16.487236 0
M  V30 2 C 4.775213 -6.600870 -17.329424 0
M  V30 3 C 5.527755 -5.265385 -17.198076 0
M  V30 4 N 4.886343 -4.138223 -17.934811 0 CFG=2 CHG=1
M  V30 5 C 5.017769 -4.333972 -19.396723 0
M  V30 6 C 4.333497 -3.218057 -20.166655 0
M  V30 7 C 4.858713 -1.837955 -19.836451 0
M  V30 8 C 4.883609 -0.748477 -20.722269 0
M  V30 9 C 5.221241 0.529208 -20.256670 0
M  V30 10 C 5.524421 0.717237 -18.900028 0
M  V30 11 C 5.566872 -0.346329 -17.965279 0
M  V30 12 C 5.245372 -1.626427 -18.492176 0
M  V30 13 C 5.404711 -2.805384 -17.504053 0 CFG=1
M  V30 14 C 4.893213 -2.412487 -16.102953 0
M  V30 15 C 5.553512 -1.145492 -15.612226 0
M  V30 16 C 5.869841 -1.000503 -14.246417 0
M  V30 17 C 6.437046 0.193053 -13.774001 0
M  V30 18 C 6.715623 1.241504 -14.675197 0
M  V30 19 O 7.223664 2.446531 -14.258349 0
M  V30 20 C 6.494427 3.252983 -13.446750 0
M  V30 21 O 5.347534 3.044324 -13.047240 0
M  V30 22 C 7.260313 4.509205 -13.032224 0
M  V30 23 C 8.622853 4.197956 -12.377305 0
M  V30 24 C 9.687801 5.194419 -12.820439 0
M  V30 25 O 9.753304 6.311372 -12.309262 0
M  V30 26 O 10.452076 4.711123 -13.834636 0
M  V30 27 C 11.264563 5.522231 -14.603462 0
M  V30 28 C 12.130402 6.465157 -14.002616 0
M  V30 29 C 12.884049 7.354409 -14.784182 0
M  V30 30 C 12.762093 7.329536 -16.181049 0
M  V30 31 C 11.911836 6.389392 -16.794691 0
M  V30 32 C 11.203389 5.434665 -16.025511 0
M  V30 33 C 10.427629 4.406279 -16.764030 0
M  V30 34 C 10.216895 3.095847 -16.262457 0
M  V30 35 C 9.549340 2.094705 -16.988529 0
M  V30 36 C 9.075084 2.364209 -18.280033 0
M  V30 37 C 9.283129 3.630220 -18.851522 0
M  V30 38 C 9.950683 4.624981 -18.084545 0
M  V30 39 C 10.233776 6.036874 -18.658377 0 CFG=1
M  V30 40 C 11.687608 6.449551 -18.296377 0
M  V30 41 N 9.938996 6.194760 -20.114092 0 CFG=2 CHG=1
M  V30 42 C 9.917629 7.597241 -20.614746 0
M  V30 43 C 10.297227 7.666687 -22.109571 0
M  V30 44 C 10.191968 9.078040 -22.699398 0
M  V30 45 C 8.688048 5.490969 -20.470242 0
M  V30 46 C 8.888097 4.000115 -20.266880 0
M  V30 47 C 6.486435 1.042192 -16.051746 0
M  V30 48 C 5.880489 -0.136209 -16.537537 0
M  V30 49 H 4.885215 -8.640339 -16.633781 0
M  V30 50 H 5.390250 -7.459244 -15.425654 0
M  V30 51 H 6.458987 -7.866919 -16.773417 0
M  V30 52 H 4.756307 -6.943870 -18.363522 0
M  V30 53 H 3.734375 -6.475036 -17.023590 0
M  V30 54 H 5.591643 -5.047994 -16.135181 0
M  V30 55 H 6.559309 -5.384695 -17.535406 0
M  V30 56 H 6.073256 -4.380015 -19.673416 0
M  V30 57 H 4.567008 -5.275832 -19.709463 0
M  V30 58 H 4.445141 -3.389310 -21.239376 0
M  V30 59 H 3.262079 -3.228631 -19.962219 0
M  V30 60 H 4.604702 -0.888122 -21.754061 0
M  V30 61 H 5.208249 1.368750 -20.937012 0
M  V30 62 H 5.716305 1.725542 -18.572407 0
M  V30 63 H 6.486600 -2.928516 -17.442001 0
M  V30 64 H 3.816626 -2.231954 -16.131571 0
M  V30 65 H 5.073991 -3.190650 -15.371974 0
M  V30 66 H 5.686072 -1.802545 -13.553869 0
M  V30 67 H 6.641417 0.304969 -12.721875 0
M  V30 68 H 7.397761 5.111590 -13.928666 0
M  V30 69 H 6.645623 5.096743 -12.349853 0
M  V30 70 H 8.537605 4.222132 -11.290735 0
M  V30 71 H 8.977308 3.201852 -12.647984 0
M  V30 72 H 12.220476 6.523430 -12.929384 0
M  V30 73 H 13.526422 8.075548 -14.302212 0
M  V30 74 H 13.301692 8.051208 -16.775291 0
M  V30 75 H 10.603542 2.814471 -15.296717 0
M  V30 76 H 9.416457 1.113304 -16.561136 0
M  V30 77 H 8.579215 1.588196 -18.842501 0
M  V30 78 H 9.550795 6.711207 -18.138237 0
M  V30 79 H 11.930026 7.454806 -18.633116 0
M  V30 80 H 12.399495 5.777421 -18.777102 0
M  V30 81 H 8.930587 8.030656 -20.451475 0
M  V30 82 H 10.605708 8.237983 -20.068470 0
M  V30 83 H 11.314229 7.296768 -22.248177 0
M  V30 84 H 9.657160 7.013280 -22.702610 0
M  V30 85 H 10.408407 9.066012 -23.768763 0
M  V30 86 H 10.898641 9.766704 -22.235365 0
M  V30 87 H 9.187481 9.484251 -22.572567 0
M  V30 88 H 7.860267 5.855820 -19.859861 0
M  V30 89 H 8.410101 5.665730 -21.509647 0
M  V30 90 H 9.659429 3.627962 -20.942881 0
M  V30 91 H 7.972480 3.468350 -20.530411 0
M  V30 92 H 6.735219 1.850959 -16.721582 0
M  V30 93 H 3.898461 -4.162070 -17.681715 0
M  V30 94 H 10.687344 5.722848 -20.600714 0
M  V30 END ATOM
M  V30 BEGIN BOND
M  V30 1 1 2 1
M  V30 2 1 3 2
M  V30 3 1 4 3
M  V30 4 1 5 4
M  V30 5 1 6 5
M  V30 6 1 7 6
M  V30 7 1 8 7
M  V30 8 2 9 8
M  V30 9 1 10 9
M  V30 10 2 11 10
M  V30 11 2 12 7
M  V30 12 1 12 11
M  V30 13 1 13 4
M  V30 14 1 13 12
M  V30 15 1 14 13
M  V30 16 1 15 14
M  V30 17 2 16 15
M  V30 18 1 17 16
M  V30 19 2 18 17
M  V30 20 1 19 18
M  V30 21 1 20 19
M  V30 22 2 21 20
M  V30 23 1 22 20
M  V30 24 1 23 22
M  V30 25 1 24 23
M  V30 26 2 25 24
M  V30 27 1 26 24
M  V30 28 1 27 26
M  V30 29 2 28 27
M  V30 30 1 29 28
M  V30 31 2 30 29
M  V30 32 1 31 30
M  V30 33 1 32 27
M  V30 34 2 32 31
M  V30 35 1 33 32
M  V30 36 2 34 33
M  V30 37 1 35 34
M  V30 38 2 36 35
M  V30 39 1 37 36
M  V30 40 1 38 33
M  V30 41 2 38 37
M  V30 42 1 39 38
M  V30 43 1 40 31
M  V30 44 1 40 39
M  V30 45 1 41 39
M  V30 46 1 42 41
M  V30 47 1 43 42
M  V30 48 1 44 43
M  V30 49 1 45 41
M  V30 50 1 46 37
M  V30 51 1 46 45
M  V30 52 1 47 18
M  V30 53 1 48 11
M  V30 54 1 48 15
M  V30 55 2 48 47
M  V30 56 1 49 1
M  V30 57 1 50 1
M  V30 58 1 51 1
M  V30 59 1 52 2
M  V30 60 1 53 2
M  V30 61 1 54 3
M  V30 62 1 55 3
M  V30 63 1 56 5
M  V30 64 1 57 5
M  V30 65 1 58 6
M  V30 66 1 59 6
M  V30 67 1 60 8
M  V30 68 1 61 9
M  V30 69 1 62 10
M  V30 70 1 13 63 CFG=1
M  V30 71 1 64 14
M  V30 72 1 65 14
M  V30 73 1 66 16
M  V30 74 1 67 17
M  V30 75 1 68 22
M  V30 76 1 69 22
M  V30 77 1 70 23
M  V30 78 1 71 23
M  V30 79 1 72 28
M  V30 80 1 73 29
M  V30 81 1 74 30
M  V30 82 1 75 34
M  V30 83 1 76 35
M  V30 84 1 77 36
M  V30 85 1 39 78 CFG=1
M  V30 86 1 79 40
M  V30 87 1 80 40
M  V30 88 1 81 42
M  V30 89 1 82 42
M  V30 90 1 83 43
M  V30 91 1 84 43
M  V30 92 1 85 44
M  V30 93 1 86 44
M  V30 94 1 87 44
M  V30 95 1 88 45
M  V30 96 1 89 45
M  V30 97 1 90 46
M  V30 98 1 91 46
M  V30 99 1 92 47
M  V30 100 1 4 93 CFG=3
M  V30 101 1 41 94 CFG=3
M  V30 END BOND
M  V30 END CTAB
M  END
>  <b_m_subgroup_collapsed>  (2532) 
0

>  <r_i_docking_score>  (2532) 
-5.4146129129174598

>  <s_m_subgroup_title>  (2532) 
glide-dock_SP_D22_pv

>  <s_m_subgroupid>  (2532) 
glide-dock_SP_D22_pv

>  <Molecule ChEMBL ID>  (2532) 
CHEMBL455318

>  <Standard Type>  (2532) 
Ki

>  <Standard Value>  (2532) 
10000.0

>  <label>  (2532) 
0

$$$$
CHEMBL1373
     RDKit          3D

  0  0  0  0  0  0  0  0  0  0999 V3000
M  V30 BEGIN CTAB
M  V30 COUNTS 34 35 0 0 1
M  V30 BEGIN ATOM
M  V30 1 N 8.486262 6.857921 -7.213915 0
M  V30 2 C 9.467219 6.263083 -7.891010 0
M  V30 3 O 10.600151 6.173087 -7.425946 0
M  V30 4 C 9.153111 5.679041 -9.266148 0
M  V30 5 S 9.898838 6.713128 -10.614770 0
M  V30 6 O 11.352334 6.998799 -10.232613 0
M  V30 7 C 9.868805 5.448685 -11.998633 0
M  V30 8 C 10.883669 5.737197 -13.120321 0
M  V30 9 C 11.201483 4.716057 -14.047557 0
M  V30 10 C 12.131599 4.934608 -15.082510 0
M  V30 11 C 12.767203 6.182870 -15.205471 0
M  V30 12 C 12.485793 7.200490 -14.277549 0
M  V30 13 C 11.566000 6.971239 -13.237135 0
M  V30 14 C 8.442713 5.190767 -12.489982 0
M  V30 15 C 7.418776 6.150662 -12.334889 0
M  V30 16 C 6.086278 5.829950 -12.646825 0
M  V30 17 C 5.765315 4.573634 -13.192404 0
M  V30 18 C 6.785686 3.634821 -13.417803 0
M  V30 19 C 8.111332 3.936909 -13.050847 0
M  V30 20 H 8.678479 7.226512 -6.295789 0
M  V30 21 H 7.540658 6.973431 -7.610207 0
M  V30 22 H 8.079103 5.587798 -9.426116 0
M  V30 23 H 9.574967 4.674456 -9.304501 0
M  V30 24 H 10.192213 4.511048 -11.547812 0
M  V30 25 H 10.744098 3.743069 -13.973014 0
M  V30 26 H 12.358338 4.143075 -15.781599 0
M  V30 27 H 13.480333 6.354642 -15.997907 0
M  V30 28 H 12.982903 8.156180 -14.357667 0
M  V30 29 H 11.381425 7.772211 -12.544534 0
M  V30 30 H 7.618908 7.130090 -11.928049 0
M  V30 31 H 5.312952 6.564794 -12.475483 0
M  V30 32 H 4.743044 4.335509 -13.444295 0
M  V30 33 H 6.547216 2.667804 -13.835549 0
M  V30 34 H 8.863829 3.172482 -13.167148 0
M  V30 END ATOM
M  V30 BEGIN BOND
M  V30 1 1 2 1
M  V30 2 2 3 2
M  V30 3 1 4 2
M  V30 4 1 5 4 CFG=1
M  V30 5 2 6 5
M  V30 6 1 7 5
M  V30 7 1 8 7
M  V30 8 2 9 8
M  V30 9 1 10 9
M  V30 10 2 11 10
M  V30 11 1 12 11
M  V30 12 1 13 8
M  V30 13 2 13 12
M  V30 14 1 14 7
M  V30 15 2 15 14
M  V30 16 1 16 15
M  V30 17 2 17 16
M  V30 18 1 18 17
M  V30 19 1 19 14
M  V30 20 2 19 18
M  V30 21 1 20 1
M  V30 22 1 21 1
M  V30 23 1 22 4
M  V30 24 1 23 4
M  V30 25 1 24 7
M  V30 26 1 25 9
M  V30 27 1 26 10
M  V30 28 1 27 11
M  V30 29 1 28 12
M  V30 30 1 29 13
M  V30 31 1 30 15
M  V30 32 1 31 16
M  V30 33 1 32 17
M  V30 34 1 33 18
M  V30 35 1 34 19
M  V30 END BOND
M  V30 END CTAB
M  END
>  <b_m_subgroup_collapsed>  (2533) 
0

>  <r_i_docking_score>  (2533) 
-5.4108928377098104

>  <s_m_subgroup_title>  (2533) 
glide-dock_SP_D22_pv

>  <s_m_subgroupid>  (2533) 
glide-dock_SP_D22_pv

>  <Molecule ChEMBL ID>  (2533) 
CHEMBL1373

>  <Standard Type>  (2533) 
Ki

>  <Standard Value>  (2533) 
100000.0

>  <label>  (2533) 
0

$$$$
CHEMBL1201192
     RDKit          3D

  0  0  0  0  0  0  0  0  0  0999 V3000
M  V30 BEGIN CTAB
M  V30 COUNTS 34 35 0 0 1
M  V30 BEGIN ATOM
M  V30 1 N 8.486262 6.857921 -7.213915 0
M  V30 2 C 9.467219 6.263083 -7.891010 0
M  V30 3 O 10.600151 6.173087 -7.425946 0
M  V30 4 C 9.153111 5.679041 -9.266148 0
M  V30 5 S 9.898838 6.713128 -10.614770 0
M  V30 6 O 11.352334 6.998799 -10.232613 0
M  V30 7 C 9.868805 5.448685 -11.998633 0
M  V30 8 C 10.883669 5.737197 -13.120321 0
M  V30 9 C 11.201483 4.716057 -14.047557 0
M  V30 10 C 12.131599 4.934608 -15.082510 0
M  V30 11 C 12.767203 6.182870 -15.205471 0
M  V30 12 C 12.485793 7.200490 -14.277549 0
M  V30 13 C 11.566000 6.971239 -13.237135 0
M  V30 14 C 8.442713 5.190767 -12.489982 0
M  V30 15 C 7.418776 6.150662 -12.334889 0
M  V30 16 C 6.086278 5.829950 -12.646825 0
M  V30 17 C 5.765315 4.573634 -13.192404 0
M  V30 18 C 6.785686 3.634821 -13.417803 0
M  V30 19 C 8.111332 3.936909 -13.050847 0
M  V30 20 H 8.678479 7.226512 -6.295789 0
M  V30 21 H 7.540658 6.973431 -7.610207 0
M  V30 22 H 8.079103 5.587798 -9.426116 0
M  V30 23 H 9.574967 4.674456 -9.304501 0
M  V30 24 H 10.192213 4.511048 -11.547812 0
M  V30 25 H 10.744098 3.743069 -13.973014 0
M  V30 26 H 12.358338 4.143075 -15.781599 0
M  V30 27 H 13.480333 6.354642 -15.997907 0
M  V30 28 H 12.982903 8.156180 -14.357667 0
M  V30 29 H 11.381425 7.772211 -12.544534 0
M  V30 30 H 7.618908 7.130090 -11.928049 0
M  V30 31 H 5.312952 6.564794 -12.475483 0
M  V30 32 H 4.743044 4.335509 -13.444295 0
M  V30 33 H 6.547216 2.667804 -13.835549 0
M  V30 34 H 8.863829 3.172482 -13.167148 0
M  V30 END ATOM
M  V30 BEGIN BOND
M  V30 1 1 2 1
M  V30 2 2 3 2
M  V30 3 1 4 2
M  V30 4 1 5 4 CFG=1
M  V30 5 2 6 5
M  V30 6 1 7 5
M  V30 7 1 8 7
M  V30 8 2 9 8
M  V30 9 1 10 9
M  V30 10 2 11 10
M  V30 11 1 12 11
M  V30 12 1 13 8
M  V30 13 2 13 12
M  V30 14 1 14 7
M  V30 15 2 15 14
M  V30 16 1 16 15
M  V30 17 2 17 16
M  V30 18 1 18 17
M  V30 19 1 19 14
M  V30 20 2 19 18
M  V30 21 1 20 1
M  V30 22 1 21 1
M  V30 23 1 22 4
M  V30 24 1 23 4
M  V30 25 1 24 7
M  V30 26 1 25 9
M  V30 27 1 26 10
M  V30 28 1 27 11
M  V30 29 1 28 12
M  V30 30 1 29 13
M  V30 31 1 30 15
M  V30 32 1 31 16
M  V30 33 1 32 17
M  V30 34 1 33 18
M  V30 35 1 34 19
M  V30 END BOND
M  V30 END CTAB
M  END
>  <b_m_subgroup_collapsed>  (2534) 
0

>  <r_i_docking_score>  (2534) 
-5.4108928377098104

>  <s_m_subgroup_title>  (2534) 
glide-dock_SP_D22_pv

>  <s_m_subgroupid>  (2534) 
glide-dock_SP_D22_pv

>  <Molecule ChEMBL ID>  (2534) 
CHEMBL1201192

>  <Standard Type>  (2534) 
Ki

>  <Standard Value>  (2534) 
100000.0

>  <label>  (2534) 
0

$$$$
CHEMBL542646
     RDKit          3D

  0  0  0  0  0  0  0  0  0  0999 V3000
M  V30 BEGIN CTAB
M  V30 COUNTS 43 46 0 0 1
M  V30 BEGIN ATOM
M  V30 1 C 10.755241 6.572424 -5.358888 0
M  V30 2 N 11.125191 7.617400 -6.329645 0 CFG=2 CHG=1
M  V30 3 C 10.090807 8.562213 -6.776703 0 CFG=1
M  V30 4 C 10.908281 9.442966 -7.723831 0
M  V30 5 C 12.068325 8.563426 -8.223250 0
M  V30 6 C 11.755519 7.207343 -7.593122 0 CFG=2
M  V30 7 C 10.800814 6.341031 -8.435975 0
M  V30 8 C 9.430161 6.982635 -8.751601 0 CFG=1
M  V30 9 C 9.419292 7.781610 -10.086425 0
M  V30 10 C 9.616465 6.873865 -11.289422 0
M  V30 11 O 10.271652 7.282215 -12.246840 0
M  V30 12 C 9.010066 5.537302 -11.215107 0
M  V30 13 C 8.825230 4.683724 -12.402794 0
M  V30 14 C 9.930307 4.309862 -13.198423 0
M  V30 15 C 9.747490 3.460939 -14.307178 0
M  V30 16 C 8.460290 2.988778 -14.629236 0
M  V30 17 C 7.352889 3.372324 -13.847008 0
M  V30 18 C 7.534386 4.214184 -12.732837 0
M  V30 19 C 8.485996 5.170451 -10.026407 0
M  V30 20 O 8.521599 5.883115 -8.846482 0
M  V30 21 C 8.944617 7.841084 -7.544051 0
M  V30 22 H 9.764882 6.172332 -5.549569 0
M  V30 23 H 11.491529 5.772118 -5.375236 0
M  V30 24 H 10.768601 6.983232 -4.351973 0
M  V30 25 H 9.692176 9.135653 -5.939373 0
M  V30 26 H 10.289467 9.772302 -8.548488 0
M  V30 27 H 11.290301 10.317151 -7.196246 0
M  V30 28 H 12.164892 8.525056 -9.308422 0
M  V30 29 H 13.013383 8.950813 -7.837864 0
M  V30 30 H 12.665826 6.640970 -7.446764 0
M  V30 31 H 10.650331 5.392077 -7.919108 0
M  V30 32 H 11.285982 6.094924 -9.372701 0
M  V30 33 H 10.202713 8.528849 -10.137245 0
M  V30 34 H 8.486537 8.321000 -10.212056 0
M  V30 35 H 10.921911 4.662681 -12.956924 0
M  V30 36 H 10.595775 3.169655 -14.909104 0
M  V30 37 H 8.321641 2.336069 -15.478489 0
M  V30 38 H 6.364805 3.014353 -14.096766 0
M  V30 39 H 6.681170 4.496896 -12.131908 0
M  V30 40 H 7.962312 4.236160 -9.886761 0
M  V30 41 H 8.211728 8.576355 -7.876569 0
M  V30 42 H 8.384547 7.212282 -6.852399 0
M  V30 43 H 11.822210 8.177062 -5.859750 0
M  V30 END ATOM
M  V30 BEGIN BOND
M  V30 1 1 2 1
M  V30 2 1 3 2
M  V30 3 1 4 3
M  V30 4 1 5 4
M  V30 5 1 6 2
M  V30 6 1 6 5
M  V30 7 1 7 6
M  V30 8 1 8 7
M  V30 9 1 9 8
M  V30 10 1 10 9
M  V30 11 2 11 10
M  V30 12 1 12 10
M  V30 13 1 13 12
M  V30 14 2 14 13
M  V30 15 1 15 14
M  V30 16 2 16 15
M  V30 17 1 17 16
M  V30 18 1 18 13
M  V30 19 2 18 17
M  V30 20 2 19 12
M  V30 21 1 8 20 CFG=3
M  V30 22 1 20 19
M  V30 23 1 21 3
M  V30 24 1 21 8
M  V30 25 1 22 1
M  V30 26 1 23 1
M  V30 27 1 24 1
M  V30 28 1 3 25 CFG=1
M  V30 29 1 26 4
M  V30 30 1 27 4
M  V30 31 1 28 5
M  V30 32 1 29 5
M  V30 33 1 6 30 CFG=1
M  V30 34 1 31 7
M  V30 35 1 32 7
M  V30 36 1 33 9
M  V30 37 1 34 9
M  V30 38 1 35 14
M  V30 39 1 36 15
M  V30 40 1 37 16
M  V30 41 1 38 17
M  V30 42 1 39 18
M  V30 43 1 40 19
M  V30 44 1 41 21
M  V30 45 1 42 21
M  V30 46 1 2 43 CFG=1
M  V30 END BOND
M  V30 END CTAB
M  END
>  <b_m_subgroup_collapsed>  (2535) 
0

>  <r_i_docking_score>  (2535) 
-5.4092270962799596

>  <s_m_subgroup_title>  (2535) 
glide-dock_SP_D22_pv

>  <s_m_subgroupid>  (2535) 
glide-dock_SP_D22_pv

>  <Molecule ChEMBL ID>  (2535) 
CHEMBL542646

>  <Standard Type>  (2535) 
Ki

>  <Standard Value>  (2535) 
10000.0

>  <label>  (2535) 
0

$$$$
CHEMBL10289
     RDKit          3D

  0  0  0  0  0  0  0  0  0  0999 V3000
M  V30 BEGIN CTAB
M  V30 COUNTS 37 39 0 0 1
M  V30 BEGIN ATOM
M  V30 1 C 11.684835 8.243644 -4.047568 0
M  V30 2 C 11.107783 7.349423 -4.866376 0
M  V30 3 C 11.286127 7.330607 -6.369984 0
M  V30 4 N 10.067094 7.706718 -7.139766 0 CFG=2 CHG=1
M  V30 5 C 8.910460 6.787272 -6.962220 0
M  V30 6 C 8.780627 5.924996 -8.236814 0
M  V30 7 C 10.002490 6.322692 -9.044691 0 CFG=1
M  V30 8 C 9.994100 6.171674 -10.547899 0
M  V30 9 C 9.252697 5.137509 -11.156677 0
M  V30 10 C 9.412664 4.866568 -12.527196 0
M  V30 11 C 10.330504 5.616480 -13.284542 0
M  V30 12 C 11.053752 6.669400 -12.687795 0
M  V30 13 O 11.947367 7.371808 -13.445189 0
M  V30 14 C 10.874312 6.973593 -11.318812 0
M  V30 15 C 11.634204 8.149007 -10.685911 0
M  V30 16 C 11.628709 8.203177 -9.148473 0
M  V30 17 C 10.265490 7.746737 -8.607602 0 CFG=2
M  V30 18 H 11.527752 8.202096 -2.978849 0
M  V30 19 H 12.323652 9.029271 -4.427477 0
M  V30 20 H 10.486369 6.573687 -4.442140 0
M  V30 21 H 11.643438 6.341746 -6.659054 0
M  V30 22 H 12.079358 8.041831 -6.600363 0
M  V30 23 H 8.021393 7.400428 -6.831193 0
M  V30 24 H 8.993739 6.172374 -6.070660 0
M  V30 25 H 7.866324 6.172629 -8.774369 0
M  V30 26 H 8.757788 4.855189 -8.027084 0
M  V30 27 H 10.824838 5.693296 -8.703741 0
M  V30 28 H 8.584908 4.524082 -10.571065 0
M  V30 29 H 8.855528 4.064390 -12.987997 0
M  V30 30 H 10.466577 5.385187 -14.331076 0
M  V30 31 H 12.041245 7.036018 -14.323032 0
M  V30 32 H 12.661395 8.178074 -11.052586 0
M  V30 33 H 11.148871 9.051147 -11.046292 0
M  V30 34 H 12.418018 7.541869 -8.793220 0
M  V30 35 H 11.882187 9.207425 -8.807413 0
M  V30 36 H 9.486327 8.395247 -9.018222 0
M  V30 37 H 9.792062 8.627940 -6.829798 0
M  V30 END ATOM
M  V30 BEGIN BOND
M  V30 1 2 2 1
M  V30 2 1 3 2
M  V30 3 1 4 3
M  V30 4 1 5 4
M  V30 5 1 6 5
M  V30 6 1 7 6
M  V30 7 1 8 7
M  V30 8 2 9 8
M  V30 9 1 10 9
M  V30 10 2 11 10
M  V30 11 1 12 11
M  V30 12 1 13 12
M  V30 13 1 14 8
M  V30 14 2 14 12
M  V30 15 1 15 14
M  V30 16 1 16 15
M  V30 17 1 17 4
M  V30 18 1 17 7
M  V30 19 1 17 16
M  V30 20 1 18 1
M  V30 21 1 19 1
M  V30 22 1 20 2
M  V30 23 1 21 3
M  V30 24 1 22 3
M  V30 25 1 23 5
M  V30 26 1 24 5
M  V30 27 1 25 6
M  V30 28 1 26 6
M  V30 29 1 7 27 CFG=1
M  V30 30 1 28 9
M  V30 31 1 29 10
M  V30 32 1 30 11
M  V30 33 1 31 13
M  V30 34 1 32 15
M  V30 35 1 33 15
M  V30 36 1 34 16
M  V30 37 1 35 16
M  V30 38 1 17 36 CFG=3
M  V30 39 1 4 37 CFG=1
M  V30 END BOND
M  V30 END CTAB
M  END
>  <b_m_subgroup_collapsed>  (2536) 
0

>  <r_i_docking_score>  (2536) 
-5.4083189046645499

>  <s_m_subgroup_title>  (2536) 
glide-dock_SP_D22_pv

>  <s_m_subgroupid>  (2536) 
glide-dock_SP_D22_pv

>  <Molecule ChEMBL ID>  (2536) 
CHEMBL10289

>  <Standard Type>  (2536) 
Ki

>  <Standard Value>  (2536) 
75.0

>  <label>  (2536) 
1

$$$$
CHEMBL561262
     RDKit          3D

  0  0  0  0  0  0  0  0  0  0999 V3000
M  V30 BEGIN CTAB
M  V30 COUNTS 51 54 0 0 1
M  V30 BEGIN ATOM
M  V30 1 C 5.306622 0.892057 -13.024426 0
M  V30 2 O 6.080644 2.004729 -13.443145 0
M  V30 3 C 6.975783 1.829238 -14.476070 0
M  V30 4 C 6.852958 0.749148 -15.388884 0
M  V30 5 C 7.780313 0.570872 -16.429441 0
M  V30 6 C 8.844304 1.473991 -16.578142 0
M  V30 7 C 8.975952 2.550026 -15.683147 0
M  V30 8 C 8.057570 2.745720 -14.624918 0
M  V30 9 N 8.288939 3.843913 -13.763761 0
M  V30 10 C 7.236248 4.476877 -12.971874 0
M  V30 11 C 7.643816 5.917765 -12.577233 0
M  V30 12 N 8.943566 5.967928 -11.893607 0
M  V30 13 C 9.280746 7.377982 -11.682009 0
M  V30 14 C 10.510847 7.654129 -10.864835 0
M  V30 15 C 11.828136 7.772295 -11.232213 0
M  V30 16 C 12.459576 7.586411 -12.579427 0
M  V30 17 N 12.612324 8.163814 -10.158874 0
M  V30 18 C 11.790444 8.281927 -9.125144 0
M  V30 19 C 11.996317 8.674778 -7.780400 0
M  V30 20 C 10.900764 8.698949 -6.955762 0
M  V30 21 C 11.029428 9.137572 -5.512898 0
M  V30 22 N 9.637851 8.349132 -7.353984 0
M  V30 23 C 9.458058 7.981957 -8.590704 0
M  V30 24 N 10.471891 7.948545 -9.505089 0
M  V30 25 C 9.936712 5.340304 -12.766213 0
M  V30 26 C 9.572419 3.882253 -13.076365 0
M  V30 27 H 4.886034 1.113962 -12.044765 0
M  V30 28 H 4.483181 0.698289 -13.712765 0
M  V30 29 H 5.912168 -0.009202 -12.916687 0
M  V30 30 H 6.045255 0.037207 -15.313203 0
M  V30 31 H 7.673584 -0.260756 -17.111204 0
M  V30 32 H 9.559598 1.342813 -17.376532 0
M  V30 33 H 9.796244 3.239373 -15.820628 0
M  V30 34 H 6.306686 4.508038 -13.541197 0
M  V30 35 H 7.050036 3.890088 -12.071159 0
M  V30 36 H 7.685914 6.544070 -13.466510 0
M  V30 37 H 6.877689 6.343522 -11.927827 0
M  V30 38 H 9.378655 7.877090 -12.646550 0
M  V30 39 H 8.442964 7.872886 -11.199154 0
M  V30 40 H 11.750124 7.771814 -13.385689 0
M  V30 41 H 13.301619 8.266085 -12.720742 0
M  V30 42 H 12.837441 6.572106 -12.699668 0
M  V30 43 H 12.987300 8.968987 -7.450364 0
M  V30 44 H 12.074285 9.217462 -5.210542 0
M  V30 45 H 10.554850 10.109035 -5.370980 0
M  V30 46 H 10.539522 8.416821 -4.858759 0
M  V30 47 H 8.484792 7.683598 -8.954110 0
M  V30 48 H 10.055082 5.901025 -13.694182 0
M  V30 49 H 10.886042 5.350167 -12.253761 0
M  V30 50 H 9.507456 3.309821 -12.150628 0
M  V30 51 H 10.366490 3.425803 -13.666084 0
M  V30 END ATOM
M  V30 BEGIN BOND
M  V30 1 1 2 1
M  V30 2 1 3 2
M  V30 3 2 4 3
M  V30 4 1 5 4
M  V30 5 2 6 5
M  V30 6 1 7 6
M  V30 7 1 8 3
M  V30 8 2 8 7
M  V30 9 1 9 8
M  V30 10 1 10 9
M  V30 11 1 11 10
M  V30 12 1 12 11
M  V30 13 1 13 12
M  V30 14 1 14 13
M  V30 15 2 15 14
M  V30 16 1 16 15
M  V30 17 1 17 15
M  V30 18 2 18 17
M  V30 19 1 19 18
M  V30 20 2 20 19
M  V30 21 1 21 20
M  V30 22 1 22 20
M  V30 23 2 23 22
M  V30 24 1 24 14
M  V30 25 1 24 18
M  V30 26 1 24 23
M  V30 27 1 25 12
M  V30 28 1 26 9
M  V30 29 1 26 25
M  V30 30 1 27 1
M  V30 31 1 28 1
M  V30 32 1 29 1
M  V30 33 1 30 4
M  V30 34 1 31 5
M  V30 35 1 32 6
M  V30 36 1 33 7
M  V30 37 1 34 10
M  V30 38 1 35 10
M  V30 39 1 36 11
M  V30 40 1 37 11
M  V30 41 1 38 13
M  V30 42 1 39 13
M  V30 43 1 40 16
M  V30 44 1 41 16
M  V30 45 1 42 16
M  V30 46 1 43 19
M  V30 47 1 44 21
M  V30 48 1 45 21
M  V30 49 1 46 21
M  V30 50 1 47 23
M  V30 51 1 48 25
M  V30 52 1 49 25
M  V30 53 1 50 26
M  V30 54 1 51 26
M  V30 END BOND
M  V30 END CTAB
M  END
>  <b_m_subgroup_collapsed>  (2537) 
0

>  <r_i_docking_score>  (2537) 
-5.4031949655769997

>  <s_m_subgroup_title>  (2537) 
glide-dock_SP_D22_pv

>  <s_m_subgroupid>  (2537) 
glide-dock_SP_D22_pv

>  <Molecule ChEMBL ID>  (2537) 
CHEMBL561262

>  <Standard Type>  (2537) 
Ki

>  <Standard Value>  (2537) 
40000.0

>  <label>  (2537) 
0

$$$$
CHEMBL93917
     RDKit          3D

  0  0  0  0  0  0  0  0  0  0999 V3000
M  V30 BEGIN CTAB
M  V30 COUNTS 41 42 0 0 1
M  V30 BEGIN ATOM
M  V30 1 C 6.525018 3.639507 -14.023587 0
M  V30 2 C 5.566606 4.572335 -13.275887 0
M  V30 3 C 6.001419 4.938104 -11.846864 0
M  V30 4 N 7.225077 5.772324 -11.681028 0 CFG=2 CHG=1
M  V30 5 C 7.408951 6.870412 -12.661033 0
M  V30 6 C 8.558284 7.802511 -12.246865 0
M  V30 7 C 9.845528 6.977293 -12.141874 0
M  V30 8 C 9.663330 5.866719 -11.085678 0 CFG=1
M  V30 9 C 9.702337 6.395332 -9.642930 0
M  V30 10 C 8.831812 5.902395 -8.646881 0
M  V30 11 C 8.886023 6.407464 -7.337052 0
M  V30 12 C 9.817471 7.395297 -6.986215 0
M  V30 13 C 10.711740 7.886930 -7.957576 0
M  V30 14 C 11.722551 8.972329 -7.630114 0
M  V30 15 C 11.480617 9.646393 -6.343858 0
M  V30 16 N 11.286030 10.172326 -5.331798 0
M  V30 17 C 10.659067 7.372342 -9.268779 0
M  V30 18 C 8.460015 4.980749 -11.477910 0
M  V30 19 H 6.086021 3.328573 -14.971256 0
M  V30 20 H 7.472342 4.126588 -14.246866 0
M  V30 21 H 6.733371 2.738104 -13.446893 0
M  V30 22 H 4.609339 4.055497 -13.200143 0
M  V30 23 H 5.343340 5.468007 -13.846865 0
M  V30 24 H 6.093482 4.015390 -11.273548 0
M  V30 25 H 5.194786 5.509936 -11.393944 0
M  V30 26 H 6.482835 7.435370 -12.777235 0
M  V30 27 H 7.686023 6.436439 -13.620617 0
M  V30 28 H 8.355762 8.298341 -11.299039 0
M  V30 29 H 8.668113 8.607813 -12.972705 0
M  V30 30 H 10.704553 7.618032 -11.956964 0
M  V30 31 H 10.055142 6.504817 -13.099785 0
M  V30 32 H 10.486020 5.182809 -11.171921 0
M  V30 33 H 8.086031 5.153274 -8.857629 0
M  V30 34 H 8.185740 6.047464 -6.598532 0
M  V30 35 H 9.823324 7.764250 -5.971411 0
M  V30 36 H 12.729769 8.557160 -7.620890 0
M  V30 37 H 11.686011 9.728033 -8.413626 0
M  V30 38 H 11.373827 7.750268 -9.982098 0
M  V30 39 H 8.699062 4.469831 -12.409605 0
M  V30 40 H 8.305688 4.184673 -10.751414 0
M  V30 41 H 7.060623 6.291906 -10.816621 0
M  V30 END ATOM
M  V30 BEGIN BOND
M  V30 1 1 2 1
M  V30 2 1 3 2
M  V30 3 1 4 3
M  V30 4 1 5 4
M  V30 5 1 6 5
M  V30 6 1 7 6
M  V30 7 1 8 7
M  V30 8 1 9 8
M  V30 9 2 10 9
M  V30 10 1 11 10
M  V30 11 2 12 11
M  V30 12 1 13 12
M  V30 13 1 14 13
M  V30 14 1 15 14
M  V30 15 3 16 15
M  V30 16 1 17 9
M  V30 17 2 17 13
M  V30 18 1 18 4
M  V30 19 1 18 8
M  V30 20 1 19 1
M  V30 21 1 20 1
M  V30 22 1 21 1
M  V30 23 1 22 2
M  V30 24 1 23 2
M  V30 25 1 24 3
M  V30 26 1 25 3
M  V30 27 1 26 5
M  V30 28 1 27 5
M  V30 29 1 28 6
M  V30 30 1 29 6
M  V30 31 1 30 7
M  V30 32 1 31 7
M  V30 33 1 8 32 CFG=1
M  V30 34 1 33 10
M  V30 35 1 34 11
M  V30 36 1 35 12
M  V30 37 1 36 14
M  V30 38 1 37 14
M  V30 39 1 38 17
M  V30 40 1 39 18
M  V30 41 1 40 18
M  V30 42 1 4 41 CFG=1
M  V30 END BOND
M  V30 END CTAB
M  END
>  <b_m_subgroup_collapsed>  (2538) 
0

>  <r_i_docking_score>  (2538) 
-5.4007269386850298

>  <s_m_subgroup_title>  (2538) 
glide-dock_SP_D22_pv

>  <s_m_subgroupid>  (2538) 
glide-dock_SP_D22_pv

>  <Molecule ChEMBL ID>  (2538) 
CHEMBL93917

>  <Standard Type>  (2538) 
Ki

>  <Standard Value>  (2538) 
69.0

>  <label>  (2538) 
1

$$$$
CHEMBL404352
     RDKit          3D

  0  0  0  0  0  0  0  0  0  0999 V3000
M  V30 BEGIN CTAB
M  V30 COUNTS 33 35 0 0 1
M  V30 BEGIN ATOM
M  V30 1 C 13.304264 3.814104 -18.006456 0
M  V30 2 C 12.540097 4.794613 -17.081787 0 CFG=2
M  V30 3 C 11.505746 5.574611 -17.938292 0
M  V30 4 C 10.177552 5.094704 -18.094719 0
M  V30 5 C 9.239069 5.783178 -18.885424 0
M  V30 6 C 9.610886 6.955903 -19.560204 0
M  V30 7 C 10.928373 7.430045 -19.451736 0
M  V30 8 O 11.287407 8.566893 -20.112198 0
M  V30 9 C 11.869349 6.743617 -18.658716 0
M  V30 10 C 13.556150 5.777738 -16.414452 0
M  V30 11 O 14.636175 6.031549 -16.948557 0
M  V30 12 N 13.226502 6.360111 -15.251530 0
M  V30 13 C 12.086157 6.011601 -14.493191 0
M  V30 14 C 11.719457 6.824885 -13.405637 0
M  V30 15 C 10.588397 6.498333 -12.636937 0
M  V30 16 Cl 10.132597 7.501954 -11.311045 0
M  V30 17 C 9.834252 5.350290 -12.943552 0
M  V30 18 C 10.205546 4.516055 -14.016354 0
M  V30 19 Cl 9.213123 3.135778 -14.339402 0
M  V30 20 C 11.341826 4.846519 -14.803929 0
M  V30 21 C 11.842072 4.009598 -15.933533 0
M  V30 22 O 11.684888 2.790387 -16.013472 0
M  V30 23 H 14.082457 3.274898 -17.462456 0
M  V30 24 H 12.635260 3.075569 -18.448486 0
M  V30 25 H 13.786880 4.339072 -18.832869 0
M  V30 26 H 9.844416 4.185349 -17.615160 0
M  V30 27 H 8.229379 5.410316 -18.974846 0
M  V30 28 H 8.886723 7.487377 -20.160152 0
M  V30 29 H 12.054765 8.986467 -19.750998 0
M  V30 30 H 12.879098 7.121581 -18.624313 0
M  V30 31 H 13.866244 7.035715 -14.858179 0
M  V30 32 H 12.296324 7.705032 -13.162130 0
M  V30 33 H 8.966615 5.107206 -12.346962 0
M  V30 END ATOM
M  V30 BEGIN BOND
M  V30 1 1 2 1 CFG=3
M  V30 2 1 3 2
M  V30 3 2 4 3
M  V30 4 1 5 4
M  V30 5 2 6 5
M  V30 6 1 7 6
M  V30 7 1 8 7
M  V30 8 1 9 3
M  V30 9 2 9 7
M  V30 10 1 10 2
M  V30 11 2 11 10
M  V30 12 1 12 10
M  V30 13 1 13 12
M  V30 14 2 14 13
M  V30 15 1 15 14
M  V30 16 1 16 15
M  V30 17 2 17 15
M  V30 18 1 18 17
M  V30 19 1 19 18
M  V30 20 1 20 13
M  V30 21 2 20 18
M  V30 22 1 21 2
M  V30 23 1 21 20
M  V30 24 2 22 21
M  V30 25 1 23 1
M  V30 26 1 24 1
M  V30 27 1 25 1
M  V30 28 1 26 4
M  V30 29 1 27 5
M  V30 30 1 28 6
M  V30 31 1 29 8
M  V30 32 1 30 9
M  V30 33 1 31 12
M  V30 34 1 32 14
M  V30 35 1 33 17
M  V30 END BOND
M  V30 END CTAB
M  END
>  <b_m_subgroup_collapsed>  (2539) 
0

>  <r_i_docking_score>  (2539) 
-5.3962596253077404

>  <s_m_subgroup_title>  (2539) 
glide-dock_SP_D22_pv

>  <s_m_subgroupid>  (2539) 
glide-dock_SP_D22_pv

>  <Molecule ChEMBL ID>  (2539) 
CHEMBL404352

>  <Standard Type>  (2539) 
Ki

>  <Standard Value>  (2539) 
10000.0

>  <label>  (2539) 
0

$$$$
CHEMBL113524
     RDKit          3D

  0  0  0  0  0  0  0  0  0  0999 V3000
M  V30 BEGIN CTAB
M  V30 COUNTS 65 68 0 0 1
M  V30 BEGIN ATOM
M  V30 1 C 7.364608 8.822613 -12.246897 0
M  V30 2 C 8.532905 8.267378 -11.452215 0
M  V30 3 N 8.494287 6.778149 -11.349212 0 CFG=1 CHG=1
M  V30 4 C 8.630439 6.055854 -12.637395 0
M  V30 5 C 7.668086 4.925941 -12.814284 0
M  V30 6 C 6.407825 4.676949 -12.344060 0
M  V30 7 C 5.933058 3.478139 -12.959308 0
M  V30 8 C 6.908584 3.003429 -13.799107 0
M  V30 9 C 7.009155 1.855560 -14.714212 0
M  V30 10 C 8.029156 1.851755 -15.699691 0
M  V30 11 C 8.103999 0.831096 -16.662687 0
M  V30 12 S 9.389098 0.857813 -17.906046 0
M  V30 13 O 8.859554 0.219877 -19.120743 0
M  V30 14 O 9.923532 2.226012 -17.983025 0
M  V30 15 C 10.713025 -0.227305 -17.232368 0
M  V30 16 C 11.870890 -0.345174 -18.230915 0
M  V30 17 C 7.187464 -0.227614 -16.643509 0
M  V30 18 C 6.196305 -0.263229 -15.649673 0
M  V30 19 C 6.086043 0.770556 -14.684631 0
M  V30 20 O 5.072455 0.768211 -13.747753 0
M  V30 21 C 3.893209 0.031851 -14.063378 0
M  V30 22 N 7.961160 3.890683 -13.675540 0
M  V30 23 C 9.333515 6.217604 -10.246924 0 CFG=2
M  V30 24 C 8.485034 6.147311 -8.985557 0
M  V30 25 C 9.231651 5.821561 -7.715252 0
M  V30 26 C 10.246339 6.914731 -7.427301 0
M  V30 27 C 11.045133 7.295030 -8.656843 0
M  V30 28 C 12.282639 7.911430 -8.443711 0
M  V30 29 C 13.119306 8.172338 -9.529842 0
M  V30 30 C 12.648605 8.034797 -10.843344 0
M  V30 31 C 11.440631 7.372458 -11.069144 0
M  V30 32 C 10.626805 6.985446 -9.981974 0
M  V30 33 H 7.036568 9.772325 -11.838832 0
M  V30 34 H 7.686255 8.972339 -13.265893 0
M  V30 35 H 6.500682 8.158318 -12.260961 0
M  V30 36 H 8.486810 8.697889 -10.451101 0
M  V30 37 H 9.445583 8.642136 -11.908855 0
M  V30 38 H 8.441077 6.745672 -13.446870 0
M  V30 39 H 9.653027 5.706625 -12.780777 0
M  V30 40 H 5.864157 5.302111 -11.649071 0
M  V30 41 H 4.963006 3.029394 -12.806951 0
M  V30 42 H 8.746939 2.654961 -15.758304 0
M  V30 43 H 11.052639 0.195403 -16.286804 0
M  V30 44 H 10.275957 -1.204426 -17.029024 0
M  V30 45 H 12.660865 -0.990249 -17.847301 0
M  V30 46 H 11.529934 -0.764491 -19.178017 0
M  V30 47 H 12.310006 0.631404 -18.436579 0
M  V30 48 H 7.253263 -1.023161 -17.371630 0
M  V30 49 H 5.522840 -1.107127 -15.651325 0
M  V30 50 H 3.064679 0.373437 -13.447046 0
M  V30 51 H 3.583178 0.172426 -15.099782 0
M  V30 52 H 4.032145 -1.033542 -13.878743 0
M  V30 53 H 8.830536 3.800738 -14.181048 0
M  V30 54 H 9.618337 5.193146 -10.493423 0
M  V30 55 H 7.686024 5.436212 -9.133511 0
M  V30 56 H 8.086021 7.136286 -8.808215 0
M  V30 57 H 9.704344 4.852736 -7.846816 0
M  V30 58 H 8.534510 5.772331 -6.879061 0
M  V30 59 H 10.914135 6.592617 -6.626958 0
M  V30 60 H 9.734951 7.809281 -7.068772 0
M  V30 61 H 12.617256 8.138954 -7.446990 0
M  V30 62 H 14.104258 8.572337 -9.357772 0
M  V30 63 H 13.276187 8.321616 -11.674999 0
M  V30 64 H 11.159742 7.165630 -12.089351 0
M  V30 65 H 7.534892 6.644697 -11.038638 0
M  V30 END ATOM
M  V30 BEGIN BOND
M  V30 1 1 2 1
M  V30 2 1 3 2
M  V30 3 1 4 3
M  V30 4 1 5 4
M  V30 5 2 6 5
M  V30 6 1 7 6
M  V30 7 2 8 7
M  V30 8 1 9 8
M  V30 9 1 10 9
M  V30 10 2 11 10
M  V30 11 1 12 11
M  V30 12 2 13 12
M  V30 13 2 14 12
M  V30 14 1 15 12
M  V30 15 1 16 15
M  V30 16 1 17 11
M  V30 17 2 18 17
M  V30 18 2 19 9
M  V30 19 1 19 18
M  V30 20 1 20 19
M  V30 21 1 21 20
M  V30 22 1 22 5
M  V30 23 1 22 8
M  V30 24 1 23 3
M  V30 25 1 24 23
M  V30 26 1 25 24
M  V30 27 1 26 25
M  V30 28 1 27 26
M  V30 29 2 28 27
M  V30 30 1 29 28
M  V30 31 2 30 29
M  V30 32 1 31 30
M  V30 33 1 32 23
M  V30 34 1 32 27
M  V30 35 2 32 31
M  V30 36 1 33 1
M  V30 37 1 34 1
M  V30 38 1 35 1
M  V30 39 1 36 2
M  V30 40 1 37 2
M  V30 41 1 38 4
M  V30 42 1 39 4
M  V30 43 1 40 6
M  V30 44 1 41 7
M  V30 45 1 42 10
M  V30 46 1 43 15
M  V30 47 1 44 15
M  V30 48 1 45 16
M  V30 49 1 46 16
M  V30 50 1 47 16
M  V30 51 1 48 17
M  V30 52 1 49 18
M  V30 53 1 50 21
M  V30 54 1 51 21
M  V30 55 1 52 21
M  V30 56 1 53 22
M  V30 57 1 23 54 CFG=3
M  V30 58 1 55 24
M  V30 59 1 56 24
M  V30 60 1 57 25
M  V30 61 1 58 25
M  V30 62 1 59 26
M  V30 63 1 60 26
M  V30 64 1 61 28
M  V30 65 1 62 29
M  V30 66 1 63 30
M  V30 67 1 64 31
M  V30 68 1 3 65 CFG=1
M  V30 END BOND
M  V30 END CTAB
M  END
>  <b_m_subgroup_collapsed>  (2540) 
0

>  <r_i_docking_score>  (2540) 
-5.3959087924148497

>  <s_m_subgroup_title>  (2540) 
glide-dock_SP_D22_pv

>  <s_m_subgroupid>  (2540) 
glide-dock_SP_D22_pv

>  <Molecule ChEMBL ID>  (2540) 
CHEMBL113524

>  <Standard Type>  (2540) 
Ki

>  <Standard Value>  (2540) 
12.59

>  <label>  (2540) 
1

$$$$
CHEMBL2368633
     RDKit          3D

  0  0  0  0  0  0  0  0  0  0999 V3000
M  V30 BEGIN CTAB
M  V30 COUNTS 76 79 0 0 1
M  V30 BEGIN ATOM
M  V30 1 C 8.978883 4.780382 -8.862987 0
M  V30 2 O 8.652031 6.155531 -8.965722 0
M  V30 3 C 9.636384 7.003783 -8.529201 0
M  V30 4 C 9.610807 7.435105 -7.187719 0
M  V30 5 C 10.607286 8.300106 -6.700768 0
M  V30 6 C 11.626527 8.743703 -7.561503 0
M  V30 7 C 11.640749 8.336995 -8.911414 0
M  V30 8 C 10.644757 7.466107 -9.412151 0
M  V30 9 C 10.652758 6.984416 -10.806919 0
M  V30 10 C 11.578007 7.228212 -11.755807 0
M  V30 11 C 11.460941 6.572126 -13.047561 0
M  V30 12 O 10.573516 5.775228 -13.360622 0
M  V30 13 N 12.483425 6.890851 -13.859857 0
M  V30 14 C 12.779157 6.277817 -15.154389 0 CFG=1
M  V30 15 C 12.936872 4.753644 -15.041548 0
M  V30 16 C 13.267504 4.119463 -16.393950 0
M  V30 17 C 12.223148 4.475150 -17.469969 0 CFG=2
M  V30 18 C 12.536513 3.818822 -18.830679 0
M  V30 19 C 12.722782 2.276539 -18.851851 0
M  V30 20 N 11.504966 1.451249 -18.600365 0 CFG=2 CHG=1
M  V30 21 C 10.353543 1.826174 -19.462072 0
M  V30 22 C 9.341586 0.686308 -19.650625 0
M  V30 23 C 8.381160 0.550344 -18.484989 0
M  V30 24 C 7.003617 0.758004 -18.710344 0
M  V30 25 C 6.086147 0.667768 -17.649349 0
M  V30 26 C 6.533843 0.351448 -16.351950 0
M  V30 27 O 5.658288 0.329882 -15.300518 0
M  V30 28 S 4.753071 -1.060336 -14.953707 0
M  V30 29 C 3.940096 -1.427588 -16.556656 0
M  V30 30 O 5.684762 -2.152450 -14.646962 0
M  V30 31 O 3.729489 -0.663764 -13.973448 0
M  V30 32 C 7.910357 0.172458 -16.119200 0
M  V30 33 C 8.840006 0.249306 -17.180597 0
M  V30 34 C 10.312783 0.007327 -16.893229 0
M  V30 35 C 11.200902 1.233639 -17.158819 0
M  V30 36 C 12.102957 6.008441 -17.588022 0
M  V30 37 C 11.743438 6.638225 -16.229912 0
M  V30 38 H 8.106762 4.174422 -9.111438 0
M  V30 39 H 9.789567 4.507037 -9.539712 0
M  V30 40 H 9.282554 4.530675 -7.850919 0
M  V30 41 H 8.822182 7.093454 -6.532654 0
M  V30 42 H 10.587546 8.618528 -5.669675 0
M  V30 43 H 12.399794 9.397137 -7.187381 0
M  V30 44 H 12.432055 8.701057 -9.548178 0
M  V30 45 H 9.818355 6.349229 -11.068717 0
M  V30 46 H 12.417217 7.878129 -11.556820 0
M  V30 47 H 13.185045 7.521543 -13.499043 0
M  V30 48 H 13.740338 6.690993 -15.464411 0
M  V30 49 H 13.706784 4.545354 -14.303669 0
M  V30 50 H 12.026590 4.282577 -14.672791 0
M  V30 51 H 14.262823 4.424192 -16.717253 0
M  V30 52 H 13.285933 3.043432 -16.249050 0
M  V30 53 H 11.247335 4.124358 -17.140526 0
M  V30 54 H 11.781205 4.117030 -19.558008 0
M  V30 55 H 13.463243 4.258142 -19.201357 0
M  V30 56 H 13.067182 2.009559 -19.851854 0
M  V30 57 H 13.536396 1.968500 -18.196058 0
M  V30 58 H 9.861165 2.726309 -19.088858 0
M  V30 59 H 10.742898 2.071994 -20.451599 0
M  V30 60 H 8.765674 0.880117 -20.556309 0
M  V30 61 H 9.846592 -0.265040 -19.822748 0
M  V30 62 H 6.637211 0.990572 -19.699852 0
M  V30 63 H 5.037934 0.848326 -17.836527 0
M  V30 64 H 3.289752 -2.278396 -16.405355 0
M  V30 65 H 3.309891 -0.618430 -16.889999 0
M  V30 66 H 4.681504 -1.686285 -17.309580 0
M  V30 67 H 8.244424 -0.047933 -15.115164 0
M  V30 68 H 10.421361 -0.276342 -15.845474 0
M  V30 69 H 10.654800 -0.856866 -17.463686 0
M  V30 70 H 12.143547 1.054110 -16.641764 0
M  V30 71 H 10.756522 2.112389 -16.696074 0
M  V30 72 H 13.039810 6.433408 -17.951998 0
M  V30 73 H 11.342299 6.271848 -18.323175 0
M  V30 74 H 10.753743 6.290059 -15.934277 0
M  V30 75 H 11.686212 7.720598 -16.311716 0
M  V30 76 H 11.779506 0.536203 -18.927797 0
M  V30 END ATOM
M  V30 BEGIN BOND
M  V30 1 1 2 1
M  V30 2 1 3 2
M  V30 3 2 4 3
M  V30 4 1 5 4
M  V30 5 2 6 5
M  V30 6 1 7 6
M  V30 7 1 8 3
M  V30 8 2 8 7
M  V30 9 1 9 8
M  V30 10 2 10 9
M  V30 11 1 11 10
M  V30 12 2 12 11
M  V30 13 1 13 11
M  V30 14 1 14 13
M  V30 15 1 15 14
M  V30 16 1 16 15
M  V30 17 1 17 16
M  V30 18 1 18 17
M  V30 19 1 19 18
M  V30 20 1 20 19
M  V30 21 1 21 20
M  V30 22 1 22 21
M  V30 23 1 23 22
M  V30 24 1 24 23
M  V30 25 2 25 24
M  V30 26 1 26 25
M  V30 27 1 27 26
M  V30 28 1 28 27
M  V30 29 1 29 28
M  V30 30 2 30 28
M  V30 31 2 31 28
M  V30 32 2 32 26
M  V30 33 2 33 23
M  V30 34 1 33 32
M  V30 35 1 34 33
M  V30 36 1 35 20
M  V30 37 1 35 34
M  V30 38 1 36 17
M  V30 39 1 37 14
M  V30 40 1 37 36
M  V30 41 1 38 1
M  V30 42 1 39 1
M  V30 43 1 40 1
M  V30 44 1 41 4
M  V30 45 1 42 5
M  V30 46 1 43 6
M  V30 47 1 44 7
M  V30 48 1 45 9
M  V30 49 1 46 10
M  V30 50 1 47 13
M  V30 51 1 14 48 CFG=3
M  V30 52 1 49 15
M  V30 53 1 50 15
M  V30 54 1 51 16
M  V30 55 1 52 16
M  V30 56 1 17 53 CFG=1
M  V30 57 1 54 18
M  V30 58 1 55 18
M  V30 59 1 56 19
M  V30 60 1 57 19
M  V30 61 1 58 21
M  V30 62 1 59 21
M  V30 63 1 60 22
M  V30 64 1 61 22
M  V30 65 1 62 24
M  V30 66 1 63 25
M  V30 67 1 64 29
M  V30 68 1 65 29
M  V30 69 1 66 29
M  V30 70 1 67 32
M  V30 71 1 68 34
M  V30 72 1 69 34
M  V30 73 1 70 35
M  V30 74 1 71 35
M  V30 75 1 72 36
M  V30 76 1 73 36
M  V30 77 1 74 37
M  V30 78 1 75 37
M  V30 79 1 20 76 CFG=3
M  V30 END BOND
M  V30 END CTAB
M  END
>  <b_m_subgroup_collapsed>  (2541) 
0

>  <r_i_docking_score>  (2541) 
-5.3944232147646201

>  <s_m_subgroup_title>  (2541) 
glide-dock_SP_D22_pv

>  <s_m_subgroupid>  (2541) 
glide-dock_SP_D22_pv

>  <Molecule ChEMBL ID>  (2541) 
CHEMBL2368633

>  <Standard Type>  (2541) 
Ki

>  <Standard Value>  (2541) 
100.0

>  <label>  (2541) 
1

$$$$
CHEMBL5273758
     RDKit          3D

  0  0  0  0  0  0  0  0  0  0999 V3000
M  V30 BEGIN CTAB
M  V30 COUNTS 43 46 0 0 1
M  V30 BEGIN ATOM
M  V30 1 C 5.984534 4.073486 -13.287170 0
M  V30 2 N 7.194409 4.915677 -13.115754 0 CFG=1 CHG=1
M  V30 3 C 6.889277 6.098232 -12.273664 0
M  V30 4 C 8.036968 7.103367 -12.378330 0
M  V30 5 C 9.331886 6.496439 -11.794774 0 CFG=2
M  V30 6 C 10.584619 7.349638 -11.986795 0
M  V30 7 C 11.613686 7.007429 -12.796239 0
M  V30 8 O 12.717443 7.772048 -12.810212 0
M  V30 9 C 11.534864 5.819865 -13.638948 0
M  V30 10 O 12.439349 5.620568 -14.608671 0
M  V30 11 C 10.522636 4.946515 -13.460865 0
M  V30 12 C 10.225714 3.672040 -14.233595 0 CFG=2
M  V30 13 C 10.058251 3.748214 -15.751930 0
M  V30 14 C 9.991849 4.972330 -16.451921 0
M  V30 15 C 9.807350 4.993139 -17.847933 0
M  V30 16 C 9.691604 3.785824 -18.561174 0
M  V30 17 C 9.768867 2.559149 -17.876032 0
M  V30 18 C 9.953732 2.542259 -16.479939 0
M  V30 19 C 8.948211 3.111652 -13.571405 0
M  V30 20 C 8.368175 4.170537 -12.583622 0 CFG=1
M  V30 21 C 9.577990 5.057080 -12.290242 0 CFG=2
M  V30 22 H 5.662680 3.655058 -12.331935 0
M  V30 23 H 6.144728 3.250344 -13.981170 0
M  V30 24 H 5.160421 4.664040 -13.689147 0
M  V30 25 H 5.966420 6.577028 -12.604818 0
M  V30 26 H 6.727639 5.772348 -11.243129 0
M  V30 27 H 8.086275 7.372650 -13.430358 0
M  V30 28 H 7.791308 8.022876 -11.847175 0
M  V30 29 H 9.177841 6.432494 -10.716027 0
M  V30 30 H 10.651838 8.239324 -11.376956 0
M  V30 31 H 13.449988 7.225190 -13.060914 0
M  V30 32 H 12.965487 6.400852 -14.683389 0
M  V30 33 H 11.055441 2.989941 -14.039012 0
M  V30 34 H 10.088155 5.908503 -15.929155 0
M  V30 35 H 9.756514 5.936906 -18.370584 0
M  V30 36 H 9.551472 3.801854 -19.632132 0
M  V30 37 H 9.687231 1.630302 -18.421349 0
M  V30 38 H 10.009289 1.594125 -15.964485 0
M  V30 39 H 8.223487 2.755365 -14.301155 0
M  V30 40 H 9.282230 2.220263 -13.046750 0
M  V30 41 H 8.039226 3.766308 -11.630650 0
M  V30 42 H 10.099597 4.543452 -11.482862 0
M  V30 43 H 7.455463 5.262780 -14.026997 0
M  V30 END ATOM
M  V30 BEGIN BOND
M  V30 1 1 2 1
M  V30 2 1 3 2
M  V30 3 1 4 3
M  V30 4 1 5 4
M  V30 5 1 6 5
M  V30 6 2 7 6
M  V30 7 1 8 7
M  V30 8 1 9 7
M  V30 9 1 10 9
M  V30 10 2 11 9
M  V30 11 1 12 11
M  V30 12 1 13 12
M  V30 13 2 14 13
M  V30 14 1 15 14
M  V30 15 2 16 15
M  V30 16 1 17 16
M  V30 17 1 18 13
M  V30 18 2 18 17
M  V30 19 1 19 12
M  V30 20 1 20 2
M  V30 21 1 20 19
M  V30 22 1 21 5
M  V30 23 1 21 11
M  V30 24 1 21 20
M  V30 25 1 22 1
M  V30 26 1 23 1
M  V30 27 1 24 1
M  V30 28 1 25 3
M  V30 29 1 26 3
M  V30 30 1 27 4
M  V30 31 1 28 4
M  V30 32 1 5 29 CFG=1
M  V30 33 1 30 6
M  V30 34 1 31 8
M  V30 35 1 32 10
M  V30 36 1 12 33 CFG=3
M  V30 37 1 34 14
M  V30 38 1 35 15
M  V30 39 1 36 16
M  V30 40 1 37 17
M  V30 41 1 38 18
M  V30 42 1 39 19
M  V30 43 1 40 19
M  V30 44 1 20 41 CFG=1
M  V30 45 1 21 42 CFG=1
M  V30 46 1 2 43 CFG=3
M  V30 END BOND
M  V30 END CTAB
M  END
>  <b_m_subgroup_collapsed>  (2542) 
0

>  <r_i_docking_score>  (2542) 
-5.3917432891625303

>  <s_m_subgroup_title>  (2542) 
glide-dock_SP_D22_pv

>  <s_m_subgroupid>  (2542) 
glide-dock_SP_D22_pv

>  <Molecule ChEMBL ID>  (2542) 
CHEMBL5273758

>  <Standard Type>  (2542) 
Ki

>  <Standard Value>  (2542) 
12.88

>  <label>  (2542) 
1

$$$$
CHEMBL116372
     RDKit          3D

  0  0  0  0  0  0  0  0  0  0999 V3000
M  V30 BEGIN CTAB
M  V30 COUNTS 45 47 0 0 1
M  V30 BEGIN ATOM
M  V30 1 C 5.285462 8.647316 -12.246864 0
M  V30 2 C 6.008744 7.619505 -13.095913 0
M  V30 3 C 7.269749 6.919792 -12.538490 0
M  V30 4 N 6.980216 5.727658 -11.687571 0 CHG=1
M  V30 5 C 6.025698 4.709577 -12.234789 0
M  V30 6 C 6.280100 4.260297 -13.694901 0
M  V30 7 C 6.439359 2.748816 -13.884068 0
M  V30 8 C 8.140622 5.060724 -11.009936 0 CFG=1
M  V30 9 C 9.365685 4.839336 -11.912700 0
M  V30 10 O 10.060629 6.052694 -12.161832 0
M  V30 11 C 10.349528 6.825462 -11.061657 0
M  V30 12 C 11.372323 7.772238 -11.191894 0
M  V30 13 C 11.730683 8.576680 -10.101102 0
M  V30 14 C 11.132311 8.424670 -8.836466 0
M  V30 15 N 11.472367 9.110102 -7.677313 0
M  V30 16 C 10.718151 8.686727 -6.667614 0
M  V30 17 N 10.885981 9.167844 -5.383973 0
M  V30 18 S 9.497603 7.466646 -7.047294 0
M  V30 19 C 10.085307 7.468483 -8.714999 0
M  V30 20 C 9.674905 6.696667 -9.823174 0
M  V30 21 C 8.539890 5.710733 -9.678036 0
M  V30 22 H 4.554356 9.201085 -12.835985 0
M  V30 23 H 4.712546 8.188760 -11.446865 0
M  V30 24 H 6.012882 9.356957 -11.846869 0
M  V30 25 H 6.324526 8.172299 -13.975132 0
M  V30 26 H 5.286019 6.894332 -13.447035 0
M  V30 27 H 7.855074 7.642507 -11.970201 0
M  V30 28 H 7.900164 6.629658 -13.377166 0
M  V30 29 H 5.951830 3.837030 -11.584538 0
M  V30 30 H 5.028818 5.116729 -12.151366 0
M  V30 31 H 5.428071 4.575664 -14.296144 0
M  V30 32 H 7.153222 4.740760 -14.129035 0
M  V30 33 H 6.485832 2.499563 -14.944572 0
M  V30 34 H 7.368038 2.392543 -13.446896 0
M  V30 35 H 5.608954 2.195173 -13.444541 0
M  V30 36 H 7.796824 4.078381 -10.701855 0
M  V30 37 H 10.055461 4.141581 -11.435104 0
M  V30 38 H 9.083892 4.382526 -12.860211 0
M  V30 39 H 11.888713 7.873433 -12.134902 0
M  V30 40 H 12.486017 9.329733 -10.226289 0
M  V30 41 H 11.714455 9.706985 -5.178188 0
M  V30 42 H 10.494347 8.649600 -4.613076 0
M  V30 43 H 8.892411 4.935412 -8.996242 0
M  V30 44 H 7.686217 6.172205 -9.185770 0
M  V30 45 H 6.487038 6.193793 -10.924286 0
M  V30 END ATOM
M  V30 BEGIN BOND
M  V30 1 1 2 1
M  V30 2 1 3 2
M  V30 3 1 4 3
M  V30 4 1 5 4
M  V30 5 1 6 5
M  V30 6 1 7 6
M  V30 7 1 8 4
M  V30 8 1 9 8
M  V30 9 1 10 9
M  V30 10 1 11 10
M  V30 11 1 12 11
M  V30 12 2 13 12
M  V30 13 1 14 13
M  V30 14 1 15 14
M  V30 15 2 16 15
M  V30 16 1 17 16
M  V30 17 1 18 16
M  V30 18 2 19 14
M  V30 19 1 19 18
M  V30 20 2 20 11
M  V30 21 1 20 19
M  V30 22 1 21 8
M  V30 23 1 21 20
M  V30 24 1 22 1
M  V30 25 1 23 1
M  V30 26 1 24 1
M  V30 27 1 25 2
M  V30 28 1 26 2
M  V30 29 1 27 3
M  V30 30 1 28 3
M  V30 31 1 29 5
M  V30 32 1 30 5
M  V30 33 1 31 6
M  V30 34 1 32 6
M  V30 35 1 33 7
M  V30 36 1 34 7
M  V30 37 1 35 7
M  V30 38 1 8 36 CFG=1
M  V30 39 1 37 9
M  V30 40 1 38 9
M  V30 41 1 39 12
M  V30 42 1 40 13
M  V30 43 1 41 17
M  V30 44 1 42 17
M  V30 45 1 43 21
M  V30 46 1 44 21
M  V30 47 1 45 4
M  V30 END BOND
M  V30 END CTAB
M  END
>  <b_m_subgroup_collapsed>  (2543) 
0

>  <r_i_docking_score>  (2543) 
-5.3913351760525403

>  <s_m_subgroup_title>  (2543) 
glide-dock_SP_D22_pv

>  <s_m_subgroupid>  (2543) 
glide-dock_SP_D22_pv

>  <Molecule ChEMBL ID>  (2543) 
CHEMBL116372

>  <Standard Type>  (2543) 
Ki

>  <Standard Value>  (2543) 
47.0

>  <label>  (2543) 
1

$$$$
CHEMBL5597355
     RDKit          3D

  0  0  0  0  0  0  0  0  0  0999 V3000
M  V30 BEGIN CTAB
M  V30 COUNTS 51 54 0 0 1
M  V30 BEGIN ATOM
M  V30 1 O 9.744781 4.172319 -10.721914 0
M  V30 2 S 9.152250 5.363314 -11.317977 0
M  V30 3 O 8.486024 6.310571 -10.437294 0
M  V30 4 C 8.005566 4.779618 -12.511393 0
M  V30 5 C 6.690401 5.270745 -12.549936 0
M  V30 6 C 5.760550 4.595197 -13.354426 0
M  V30 7 C 6.160907 3.464324 -14.081248 0
M  V30 8 C 7.490637 3.003902 -14.086784 0
M  V30 9 N 7.937263 1.895009 -14.820451 0
M  V30 10 C 7.041673 1.105978 -15.650490 0
M  V30 11 C 7.826602 0.333504 -16.721769 0
M  V30 12 C 6.873126 -0.510588 -17.584129 0
M  V30 13 N 6.085967 -1.427686 -16.732841 0 CHG=1
M  V30 14 C 5.291122 -0.731643 -15.698879 0
M  V30 15 C 6.204721 0.122805 -14.805239 0
M  V30 16 C 8.413050 3.680752 -13.286028 0
M  V30 17 N 10.418352 6.188093 -12.202778 0
M  V30 18 C 10.885634 5.772277 -13.446694 0
M  V30 19 C 11.993892 6.493020 -13.767976 0
M  V30 20 C 12.236254 7.372322 -12.686773 0
M  V30 21 C 11.234679 7.240119 -11.764235 0
M  V30 22 C 11.093670 7.900488 -10.463924 0
M  V30 23 C 12.175063 7.899259 -9.557966 0
M  V30 24 C 12.040396 8.430952 -8.261241 0
M  V30 25 C 10.799039 8.933905 -7.836847 0
M  V30 26 C 9.725309 8.972350 -8.743423 0
M  V30 27 C 9.904719 8.550286 -10.072220 0
M  V30 28 H 6.388481 6.109315 -11.935988 0
M  V30 29 H 4.741157 4.935600 -13.431394 0
M  V30 30 H 5.417183 2.972319 -14.646861 0
M  V30 31 H 8.892927 1.584843 -14.707172 0
M  V30 32 H 6.384144 1.789480 -16.184795 0
M  V30 33 H 8.378684 1.027862 -17.356579 0
M  V30 34 H 8.568946 -0.312600 -16.250244 0
M  V30 35 H 6.195989 0.132699 -18.148151 0
M  V30 36 H 7.438667 -1.094915 -18.310572 0
M  V30 37 H 5.467040 -1.983023 -17.307684 0
M  V30 38 H 4.535948 -0.108701 -16.180550 0
M  V30 39 H 4.758602 -1.471489 -15.099821 0
M  V30 40 H 6.867146 -0.529013 -14.232498 0
M  V30 41 H 5.598734 0.658088 -14.074032 0
M  V30 42 H 9.415755 3.290421 -13.188855 0
M  V30 43 H 10.426488 4.980445 -14.008731 0
M  V30 44 H 12.588567 6.374786 -14.662208 0
M  V30 45 H 13.062381 8.063474 -12.600396 0
M  V30 46 H 13.120097 7.470189 -9.846798 0
M  V30 47 H 12.882988 8.432629 -7.587757 0
M  V30 48 H 10.674442 9.304758 -6.830254 0
M  V30 49 H 8.769897 9.372119 -8.435498 0
M  V30 50 H 9.074674 8.629285 -10.760210 0
M  V30 51 H 6.739143 -2.055170 -16.262587 0
M  V30 END ATOM
M  V30 BEGIN BOND
M  V30 1 2 2 1
M  V30 2 2 3 2
M  V30 3 1 4 2
M  V30 4 2 5 4
M  V30 5 1 6 5
M  V30 6 2 7 6
M  V30 7 1 8 7
M  V30 8 1 9 8
M  V30 9 1 10 9
M  V30 10 1 11 10
M  V30 11 1 12 11
M  V30 12 1 13 12
M  V30 13 1 14 13
M  V30 14 1 15 10
M  V30 15 1 15 14
M  V30 16 1 16 4
M  V30 17 2 16 8
M  V30 18 1 17 2
M  V30 19 1 18 17
M  V30 20 2 19 18
M  V30 21 1 20 19
M  V30 22 1 21 17
M  V30 23 2 21 20
M  V30 24 1 22 21
M  V30 25 2 23 22
M  V30 26 1 24 23
M  V30 27 2 25 24
M  V30 28 1 26 25
M  V30 29 1 27 22
M  V30 30 2 27 26
M  V30 31 1 28 5
M  V30 32 1 29 6
M  V30 33 1 30 7
M  V30 34 1 31 9
M  V30 35 1 32 10
M  V30 36 1 33 11
M  V30 37 1 34 11
M  V30 38 1 35 12
M  V30 39 1 36 12
M  V30 40 1 37 13
M  V30 41 1 38 14
M  V30 42 1 39 14
M  V30 43 1 40 15
M  V30 44 1 41 15
M  V30 45 1 42 16
M  V30 46 1 43 18
M  V30 47 1 44 19
M  V30 48 1 45 20
M  V30 49 1 46 23
M  V30 50 1 47 24
M  V30 51 1 48 25
M  V30 52 1 49 26
M  V30 53 1 50 27
M  V30 54 1 51 13
M  V30 END BOND
M  V30 END CTAB
M  END
>  <b_m_subgroup_collapsed>  (2544) 
0

>  <r_i_docking_score>  (2544) 
-5.3894452350154696

>  <s_m_subgroup_title>  (2544) 
glide-dock_SP_D22_pv

>  <s_m_subgroupid>  (2544) 
glide-dock_SP_D22_pv

>  <Molecule ChEMBL ID>  (2544) 
CHEMBL5597355

>  <Standard Type>  (2544) 
Ki

>  <Standard Value>  (2544) 
10770.0

>  <label>  (2544) 
0

$$$$
CHEMBL104751
     RDKit          3D

  0  0  0  0  0  0  0  0  0  0999 V3000
M  V30 BEGIN CTAB
M  V30 COUNTS 58 61 0 0 1
M  V30 BEGIN ATOM
M  V30 1 C 12.712640 7.370146 -12.779319 0
M  V30 2 O 11.427600 7.663829 -12.287890 0
M  V30 3 C 11.235900 7.917476 -10.949623 0
M  V30 4 C 12.251662 7.938131 -9.967182 0
M  V30 5 C 11.930108 8.185670 -8.617828 0
M  V30 6 C 10.594592 8.422183 -8.242508 0
M  V30 7 Cl 10.204477 8.706059 -6.589315 0
M  V30 8 C 9.583800 8.430454 -9.219596 0
M  V30 9 C 9.906452 8.185500 -10.571861 0
M  V30 10 C 8.829122 8.229549 -11.641194 0
M  V30 11 N 8.180552 6.911576 -11.845701 0 CHG=1
M  V30 12 C 9.053688 5.809685 -12.320877 0
M  V30 13 C 8.267220 4.490015 -12.400913 0
M  V30 14 N 7.122495 4.670217 -13.300039 0
M  V30 15 C 6.394059 3.410823 -13.544095 0
M  V30 16 C 7.105982 2.405433 -14.480147 0
M  V30 17 O 8.193838 2.711568 -14.966830 0
M  V30 18 N 6.486690 1.226043 -14.737987 0
M  V30 19 C 6.679132 0.446657 -15.910416 0
M  V30 20 C 7.698519 0.512425 -16.888302 0
M  V30 21 C 7.618538 -0.345051 -18.005800 0
M  V30 22 C 6.541399 -1.253530 -18.144724 0
M  V30 23 C 5.534780 -1.319430 -17.158140 0
M  V30 24 C 5.631722 -0.458372 -16.051970 0
M  V30 25 C 4.665312 -0.356795 -14.911749 0
M  V30 26 C 5.296272 0.734229 -14.010409 0 CFG=1
M  V30 27 C 5.682305 0.172160 -12.642566 0
M  V30 28 C 6.225768 5.674708 -12.718774 0
M  V30 29 C 6.959960 7.023557 -12.651603 0
M  V30 30 H 12.726014 7.517108 -13.859509 0
M  V30 31 H 13.501740 7.992685 -12.361205 0
M  V30 32 H 12.885948 6.312963 -12.594528 0
M  V30 33 H 13.285820 7.772572 -10.213009 0
M  V30 34 H 12.710983 8.197449 -7.873188 0
M  V30 35 H 8.559281 8.623772 -8.931196 0
M  V30 36 H 9.224216 8.606568 -12.585185 0
M  V30 37 H 8.086395 8.967342 -11.332681 0
M  V30 38 H 9.888015 5.660895 -11.636053 0
M  V30 39 H 9.472578 6.060262 -13.296081 0
M  V30 40 H 7.930496 4.175170 -11.410963 0
M  V30 41 H 8.938789 3.709965 -12.761259 0
M  V30 42 H 5.452004 3.652437 -14.036823 0
M  V30 43 H 6.138984 2.960974 -12.586923 0
M  V30 44 H 8.527855 1.197832 -16.810051 0
M  V30 45 H 8.387043 -0.308246 -18.764355 0
M  V30 46 H 6.493502 -1.904297 -19.004570 0
M  V30 47 H 4.711619 -2.014226 -17.250454 0
M  V30 48 H 3.682791 -0.057745 -15.280906 0
M  V30 49 H 4.565830 -1.321635 -14.414908 0
M  V30 50 H 4.560023 1.520440 -13.846738 0
M  V30 51 H 4.794280 -0.225694 -12.165524 0
M  V30 52 H 6.415019 -0.632045 -12.728042 0
M  V30 53 H 6.085779 0.919523 -11.966752 0
M  V30 54 H 5.340455 5.791850 -13.343619 0
M  V30 55 H 5.877759 5.371327 -11.729623 0
M  V30 56 H 6.292958 7.785429 -12.247279 0
M  V30 57 H 7.285964 7.374760 -13.622833 0
M  V30 58 H 7.828684 6.671663 -10.923551 0
M  V30 END ATOM
M  V30 BEGIN BOND
M  V30 1 1 2 1
M  V30 2 1 3 2
M  V30 3 1 4 3
M  V30 4 2 5 4
M  V30 5 1 6 5
M  V30 6 1 7 6
M  V30 7 2 8 6
M  V30 8 2 9 3
M  V30 9 1 9 8
M  V30 10 1 10 9
M  V30 11 1 11 10
M  V30 12 1 12 11
M  V30 13 1 13 12
M  V30 14 1 14 13
M  V30 15 1 15 14
M  V30 16 1 16 15
M  V30 17 2 17 16
M  V30 18 1 18 16
M  V30 19 1 19 18
M  V30 20 2 20 19
M  V30 21 1 21 20
M  V30 22 2 22 21
M  V30 23 1 23 22
M  V30 24 1 24 19
M  V30 25 2 24 23
M  V30 26 1 25 24
M  V30 27 1 26 18
M  V30 28 1 26 25
M  V30 29 1 27 26
M  V30 30 1 28 14
M  V30 31 1 29 11
M  V30 32 1 29 28
M  V30 33 1 30 1
M  V30 34 1 31 1
M  V30 35 1 32 1
M  V30 36 1 33 4
M  V30 37 1 34 5
M  V30 38 1 35 8
M  V30 39 1 36 10
M  V30 40 1 37 10
M  V30 41 1 38 12
M  V30 42 1 39 12
M  V30 43 1 40 13
M  V30 44 1 41 13
M  V30 45 1 42 15
M  V30 46 1 43 15
M  V30 47 1 44 20
M  V30 48 1 45 21
M  V30 49 1 46 22
M  V30 50 1 47 23
M  V30 51 1 48 25
M  V30 52 1 49 25
M  V30 53 1 26 50 CFG=1
M  V30 54 1 51 27
M  V30 55 1 52 27
M  V30 56 1 53 27
M  V30 57 1 54 28
M  V30 58 1 55 28
M  V30 59 1 56 29
M  V30 60 1 57 29
M  V30 61 1 58 11
M  V30 END BOND
M  V30 END CTAB
M  END
>  <b_m_subgroup_collapsed>  (2545) 
0

>  <r_i_docking_score>  (2545) 
-5.38705229539746

>  <s_m_subgroup_title>  (2545) 
glide-dock_SP_D22_pv

>  <s_m_subgroupid>  (2545) 
glide-dock_SP_D22_pv

>  <Molecule ChEMBL ID>  (2545) 
CHEMBL104751

>  <Standard Type>  (2545) 
Ki

>  <Standard Value>  (2545) 
28.0

>  <label>  (2545) 
1

$$$$
CHEMBL137781
     RDKit          3D

  0  0  0  0  0  0  0  0  0  0999 V3000
M  V30 BEGIN CTAB
M  V30 COUNTS 50 54 0 0 1
M  V30 BEGIN ATOM
M  V30 1 C 10.549607 9.024100 -9.697921 0
M  V30 2 C 9.495767 8.175553 -8.987210 0 CFG=2
M  V30 3 C 9.454529 8.148578 -7.457706 0
M  V30 4 C 9.927145 6.692779 -7.468644 0 CFG=2
M  V30 5 C 11.331805 6.365369 -6.974463 0
M  V30 6 N 9.899878 6.770859 -8.926519 0
M  V30 7 C 9.302719 5.759309 -9.706309 0
M  V30 8 O 9.153365 4.622255 -9.255611 0
M  V30 9 C 8.762215 6.127959 -11.106549 0 CFG=2
M  V30 10 C 7.877655 5.089225 -11.764625 0
M  V30 11 C 8.200599 4.445128 -12.902318 0
M  V30 12 C 7.358922 3.371902 -13.446792 0
M  V30 13 C 6.023921 3.096459 -13.062224 0
M  V30 14 C 5.395979 1.897007 -13.446448 0
M  V30 15 C 6.088048 0.974275 -14.251637 0
M  V30 16 C 7.381006 1.242823 -14.657995 0
M  V30 17 N 8.268039 0.515518 -15.400843 0
M  V30 18 C 9.490622 1.167893 -15.462074 0
M  V30 19 C 9.322229 2.314593 -14.729841 0
M  V30 20 C 8.001521 2.411659 -14.247030 0
M  V30 21 C 10.203940 3.434194 -14.226110 0
M  V30 22 C 9.518877 4.719001 -13.644550 0 CFG=2
M  V30 23 N 10.485990 5.468036 -12.822486 0
M  V30 24 C 11.616251 5.977595 -13.597032 0
M  V30 25 C 9.882768 6.567125 -12.067020 0
M  V30 26 H 10.450189 10.075837 -9.446799 0
M  V30 27 H 11.565578 8.724535 -9.435347 0
M  V30 28 H 10.449779 8.970299 -10.779732 0
M  V30 29 H 8.486770 8.333920 -9.362774 0
M  V30 30 H 8.446736 8.267910 -7.053689 0
M  V30 31 H 10.155424 8.838044 -6.985553 0
M  V30 32 H 9.153168 6.034657 -7.068577 0
M  V30 33 H 11.379923 6.395896 -5.885417 0
M  V30 34 H 11.652071 5.372694 -7.284774 0
M  V30 35 H 12.064402 7.075261 -7.360147 0
M  V30 36 H 8.091815 6.972643 -11.001775 0
M  V30 37 H 6.971575 4.855460 -11.225936 0
M  V30 38 H 5.485499 3.780080 -12.422041 0
M  V30 39 H 4.386622 1.689782 -13.123288 0
M  V30 40 H 5.609268 0.053782 -14.550967 0
M  V30 41 H 8.083618 -0.399944 -15.792010 0
M  V30 42 H 10.356278 0.751691 -15.957417 0
M  V30 43 H 10.840465 3.012653 -13.447762 0
M  V30 44 H 10.881435 3.721564 -15.029496 0
M  V30 45 H 9.224027 5.337104 -14.493985 0
M  V30 46 H 12.295213 6.549869 -12.963848 0
M  V30 47 H 12.205760 5.168389 -14.025540 0
M  V30 48 H 11.286398 6.625454 -14.408636 0
M  V30 49 H 10.692894 7.013746 -11.495296 0
M  V30 50 H 9.495418 7.359629 -12.694557 0
M  V30 END ATOM
M  V30 BEGIN BOND
M  V30 1 1 2 1
M  V30 2 1 3 2
M  V30 3 1 4 3
M  V30 4 1 5 4
M  V30 5 1 6 2
M  V30 6 1 6 4
M  V30 7 1 7 6
M  V30 8 2 8 7
M  V30 9 1 9 7
M  V30 10 1 10 9
M  V30 11 2 11 10
M  V30 12 1 12 11
M  V30 13 1 13 12
M  V30 14 2 14 13
M  V30 15 1 15 14
M  V30 16 2 16 15
M  V30 17 1 17 16
M  V30 18 1 18 17
M  V30 19 2 19 18
M  V30 20 2 20 12
M  V30 21 1 20 16
M  V30 22 1 20 19
M  V30 23 1 21 19
M  V30 24 1 22 11
M  V30 25 1 22 21
M  V30 26 1 23 22
M  V30 27 1 24 23
M  V30 28 1 25 9
M  V30 29 1 25 23
M  V30 30 1 26 1
M  V30 31 1 27 1
M  V30 32 1 28 1
M  V30 33 1 2 29 CFG=3
M  V30 34 1 30 3
M  V30 35 1 31 3
M  V30 36 1 4 32 CFG=1
M  V30 37 1 33 5
M  V30 38 1 34 5
M  V30 39 1 35 5
M  V30 40 1 9 36 CFG=1
M  V30 41 1 37 10
M  V30 42 1 38 13
M  V30 43 1 39 14
M  V30 44 1 40 15
M  V30 45 1 41 17
M  V30 46 1 42 18
M  V30 47 1 43 21
M  V30 48 1 44 21
M  V30 49 1 22 45 CFG=3
M  V30 50 1 46 24
M  V30 51 1 47 24
M  V30 52 1 48 24
M  V30 53 1 49 25
M  V30 54 1 50 25
M  V30 END BOND
M  V30 END CTAB
M  END
>  <b_m_subgroup_collapsed>  (2546) 
0

>  <r_i_docking_score>  (2546) 
-5.3827702696613997

>  <s_m_subgroup_title>  (2546) 
glide-dock_SP_D22_pv

>  <s_m_subgroupid>  (2546) 
glide-dock_SP_D22_pv

>  <Molecule ChEMBL ID>  (2546) 
CHEMBL137781

>  <Standard Type>  (2546) 
Ki

>  <Standard Value>  (2546) 
60.0

>  <label>  (2546) 
1

$$$$
CHEMBL102175
     RDKit          3D

  0  0  0  0  0  0  0  0  0  0999 V3000
M  V30 BEGIN CTAB
M  V30 COUNTS 73 78 0 0 1
M  V30 BEGIN ATOM
M  V30 1 C 12.151958 9.350451 -4.591268 0
M  V30 2 C 10.994804 9.621544 -5.558790 0
M  V30 3 C 10.782207 8.497507 -6.586155 0
M  V30 4 C 9.537848 8.737814 -7.462934 0
M  V30 5 O 9.502573 7.909197 -8.614802 0
M  V30 6 C 10.250405 8.218673 -9.698852 0
M  V30 7 O 11.072778 9.130174 -9.744311 0
M  V30 8 C 10.045162 7.300975 -10.812641 0
M  V30 9 C 10.840482 7.027007 -11.896514 0
M  V30 10 C 10.178590 5.992963 -12.646744 0
M  V30 11 C 10.508201 5.243936 -13.798370 0
M  V30 12 C 9.633904 4.231222 -14.280452 0
M  V30 13 C 8.415356 3.978267 -13.620501 0
M  V30 14 C 8.060798 4.720241 -12.481792 0
M  V30 15 C 8.942188 5.701878 -11.997066 0
M  V30 16 N 8.881702 6.550710 -10.911490 0
M  V30 17 O 9.960569 3.466847 -15.376481 0
M  V30 18 C 11.041775 3.958789 -16.156229 0
M  V30 19 C 12.181252 4.462266 -15.246377 0 CFG=1
M  V30 20 C 13.431598 4.971307 -15.991574 0
M  V30 21 N 13.091355 5.847570 -17.141956 0 CFG=1 CHG=1
M  V30 22 C 13.711548 7.190058 -17.080153 0
M  V30 23 C 13.154098 8.091140 -18.199137 0
M  V30 24 C 13.230805 7.472419 -19.628288 0 CFG=1
M  V30 25 C 12.734653 6.004302 -19.590532 0
M  V30 26 C 13.345648 5.190962 -18.445721 0
M  V30 27 C 12.302547 8.236554 -20.570303 0
M  V30 28 O 11.104040 8.424935 -20.366007 0
M  V30 29 N 12.981610 8.648284 -21.633144 0
M  V30 30 C 14.381945 8.274109 -21.594299 0
M  V30 31 N 14.531114 7.583420 -20.311094 0
M  V30 32 C 15.728403 7.835357 -19.618706 0
M  V30 33 C 16.593561 6.761027 -19.316448 0
M  V30 34 C 17.815815 6.990918 -18.651669 0
M  V30 35 C 18.187614 8.299729 -18.295347 0
M  V30 36 C 17.339310 9.378825 -18.608057 0
M  V30 37 C 16.112791 9.148929 -19.260921 0
M  V30 38 O 11.698483 5.514498 -14.428953 0
M  V30 39 H 12.177947 10.102448 -3.801090 0
M  V30 40 H 12.048573 8.376859 -4.111304 0
M  V30 41 H 13.112971 9.377325 -5.108053 0
M  V30 42 H 11.175143 10.562753 -6.080445 0
M  V30 43 H 10.086071 9.772864 -4.980653 0
M  V30 44 H 10.680896 7.534410 -6.083115 0
M  V30 45 H 11.676957 8.425611 -7.205485 0
M  V30 46 H 9.490518 9.772141 -7.787949 0
M  V30 47 H 8.630767 8.564412 -6.883359 0
M  V30 48 H 11.804409 7.456731 -12.122740 0
M  V30 49 H 7.753739 3.207830 -13.988238 0
M  V30 50 H 7.131767 4.525070 -11.962660 0
M  V30 51 H 8.070396 6.705661 -10.311152 0
M  V30 52 H 10.663143 4.753382 -16.801767 0
M  V30 53 H 11.394053 3.156186 -16.804411 0
M  V30 54 H 12.486416 3.651040 -14.584026 0
M  V30 55 H 14.005384 4.120703 -16.355850 0
M  V30 56 H 14.089499 5.481792 -15.287960 0
M  V30 57 H 13.489924 7.647981 -16.115795 0
M  V30 58 H 14.796912 7.104315 -17.141943 0
M  V30 59 H 13.633893 9.068476 -18.166410 0
M  V30 60 H 12.108029 8.282951 -17.954142 0
M  V30 61 H 11.647882 5.976068 -19.469820 0
M  V30 62 H 12.940402 5.508955 -20.540764 0
M  V30 63 H 12.904946 4.191770 -18.452915 0
M  V30 64 H 14.418020 5.057821 -18.591591 0
M  V30 65 H 12.574061 9.174107 -22.390352 0
M  V30 66 H 15.003854 9.163885 -21.694939 0
M  V30 67 H 14.614854 7.598531 -22.418987 0
M  V30 68 H 16.330156 5.758419 -19.614103 0
M  V30 69 H 18.476124 6.166712 -18.426960 0
M  V30 70 H 19.126371 8.480051 -17.788351 0
M  V30 71 H 17.626833 10.383062 -18.334826 0
M  V30 72 H 15.470211 9.986151 -19.489412 0
M  V30 73 H 12.094675 6.009589 -17.083942 0
M  V30 END ATOM
M  V30 BEGIN BOND
M  V30 1 1 2 1
M  V30 2 1 3 2
M  V30 3 1 4 3
M  V30 4 1 5 4
M  V30 5 1 6 5
M  V30 6 2 7 6
M  V30 7 1 8 6
M  V30 8 2 9 8
M  V30 9 1 10 9
M  V30 10 1 11 10
M  V30 11 2 12 11
M  V30 12 1 13 12
M  V30 13 2 14 13
M  V30 14 2 15 10
M  V30 15 1 15 14
M  V30 16 1 16 8
M  V30 17 1 16 15
M  V30 18 1 17 12
M  V30 19 1 18 17
M  V30 20 1 19 18
M  V30 21 1 20 19
M  V30 22 1 21 20
M  V30 23 1 22 21
M  V30 24 1 23 22
M  V30 25 1 24 23
M  V30 26 1 25 24
M  V30 27 1 26 21
M  V30 28 1 26 25
M  V30 29 1 27 24
M  V30 30 2 28 27
M  V30 31 1 29 27
M  V30 32 1 30 29
M  V30 33 1 24 31 CFG=3
M  V30 34 1 31 30
M  V30 35 1 32 31
M  V30 36 2 33 32
M  V30 37 1 34 33
M  V30 38 2 35 34
M  V30 39 1 36 35
M  V30 40 1 37 32
M  V30 41 2 37 36
M  V30 42 1 38 11
M  V30 43 1 38 19
M  V30 44 1 39 1
M  V30 45 1 40 1
M  V30 46 1 41 1
M  V30 47 1 42 2
M  V30 48 1 43 2
M  V30 49 1 44 3
M  V30 50 1 45 3
M  V30 51 1 46 4
M  V30 52 1 47 4
M  V30 53 1 48 9
M  V30 54 1 49 13
M  V30 55 1 50 14
M  V30 56 1 51 16
M  V30 57 1 52 18
M  V30 58 1 53 18
M  V30 59 1 19 54 CFG=1
M  V30 60 1 55 20
M  V30 61 1 56 20
M  V30 62 1 57 22
M  V30 63 1 58 22
M  V30 64 1 59 23
M  V30 65 1 60 23
M  V30 66 1 61 25
M  V30 67 1 62 25
M  V30 68 1 63 26
M  V30 69 1 64 26
M  V30 70 1 65 29
M  V30 71 1 66 30
M  V30 72 1 67 30
M  V30 73 1 68 33
M  V30 74 1 69 34
M  V30 75 1 70 35
M  V30 76 1 71 36
M  V30 77 1 72 37
M  V30 78 1 21 73 CFG=1
M  V30 END BOND
M  V30 END CTAB
M  END
>  <b_m_subgroup_collapsed>  (2547) 
0

>  <r_i_docking_score>  (2547) 
-5.3803117844643999

>  <s_m_subgroup_title>  (2547) 
glide-dock_SP_D22_pv

>  <s_m_subgroupid>  (2547) 
glide-dock_SP_D22_pv

>  <Molecule ChEMBL ID>  (2547) 
CHEMBL102175

>  <Standard Type>  (2547) 
Ki

>  <Standard Value>  (2547) 
5.7

>  <label>  (2547) 
1

$$$$
CHEMBL5273758
     RDKit          3D

  0  0  0  0  0  0  0  0  0  0999 V3000
M  V30 BEGIN CTAB
M  V30 COUNTS 43 46 0 0 1
M  V30 BEGIN ATOM
M  V30 1 C 5.583134 3.988421 -13.462269 0
M  V30 2 N 6.999591 3.564636 -13.367136 0 CFG=1 CHG=1
M  V30 3 C 7.395550 2.585250 -14.427542 0
M  V30 4 C 8.880038 2.115746 -14.360038 0
M  V30 5 C 9.922830 3.084728 -13.735243 0 CFG=1
M  V30 6 C 11.093450 3.558306 -14.582505 0
M  V30 7 C 11.708579 4.744442 -14.391553 0
M  V30 8 O 12.847386 4.994727 -15.050068 0
M  V30 9 C 11.177059 5.735701 -13.460099 0
M  V30 10 O 11.688306 6.973598 -13.440572 0
M  V30 11 C 10.062096 5.463062 -12.750246 0
M  V30 12 C 9.130060 6.456511 -12.076726 0 CFG=2
M  V30 13 C 9.488768 6.779904 -10.629425 0
M  V30 14 C 10.032722 8.043875 -10.315742 0
M  V30 15 C 10.355824 8.372935 -8.985550 0
M  V30 16 C 10.142383 7.436857 -7.956354 0
M  V30 17 C 9.612411 6.168892 -8.260032 0
M  V30 18 C 9.290957 5.839818 -9.590746 0
M  V30 19 C 7.717575 5.830650 -12.292521 0
M  V30 20 C 7.961315 4.688628 -13.313244 0 CFG=1
M  V30 21 C 9.307090 4.172156 -12.852947 0 CFG=1
M  V30 22 H 5.392659 4.552297 -14.377155 0
M  V30 23 H 5.302071 4.616139 -12.614527 0
M  V30 24 H 4.923944 3.118278 -13.449393 0
M  V30 25 H 6.751013 1.707910 -14.344440 0
M  V30 26 H 7.198320 2.972361 -15.426794 0
M  V30 27 H 8.886744 1.205779 -13.755979 0
M  V30 28 H 9.211381 1.791245 -15.348615 0
M  V30 29 H 10.480053 2.459557 -13.046943 0
M  V30 30 H 11.523502 2.836654 -15.264094 0
M  V30 31 H 13.347632 5.618085 -14.541099 0
M  V30 32 H 12.251441 7.069090 -14.192562 0
M  V30 33 H 9.166998 7.385584 -12.645124 0
M  V30 34 H 10.197310 8.771467 -11.096536 0
M  V30 35 H 10.764748 9.344190 -8.755039 0
M  V30 36 H 10.387774 7.688275 -6.936238 0
M  V30 37 H 9.449017 5.447780 -7.472073 0
M  V30 38 H 8.877553 4.865695 -9.800382 0
M  V30 39 H 7.322191 5.422609 -11.361055 0
M  V30 40 H 6.992983 6.567435 -12.640981 0
M  V30 41 H 8.058688 5.121856 -14.311691 0
M  V30 42 H 9.207088 3.765838 -11.846749 0
M  V30 43 H 7.086236 3.086378 -12.482236 0
M  V30 END ATOM
M  V30 BEGIN BOND
M  V30 1 1 2 1
M  V30 2 1 3 2
M  V30 3 1 4 3
M  V30 4 1 5 4
M  V30 5 1 6 5
M  V30 6 2 7 6
M  V30 7 1 8 7
M  V30 8 1 9 7
M  V30 9 1 10 9
M  V30 10 2 11 9
M  V30 11 1 12 11
M  V30 12 1 13 12
M  V30 13 2 14 13
M  V30 14 1 15 14
M  V30 15 2 16 15
M  V30 16 1 17 16
M  V30 17 1 18 13
M  V30 18 2 18 17
M  V30 19 1 19 12
M  V30 20 1 20 2
M  V30 21 1 20 19
M  V30 22 1 21 5
M  V30 23 1 21 11
M  V30 24 1 21 20
M  V30 25 1 22 1
M  V30 26 1 23 1
M  V30 27 1 24 1
M  V30 28 1 25 3
M  V30 29 1 26 3
M  V30 30 1 27 4
M  V30 31 1 28 4
M  V30 32 1 5 29 CFG=1
M  V30 33 1 30 6
M  V30 34 1 31 8
M  V30 35 1 32 10
M  V30 36 1 12 33 CFG=3
M  V30 37 1 34 14
M  V30 38 1 35 15
M  V30 39 1 36 16
M  V30 40 1 37 17
M  V30 41 1 38 18
M  V30 42 1 39 19
M  V30 43 1 40 19
M  V30 44 1 20 41 CFG=3
M  V30 45 1 21 42 CFG=1
M  V30 46 1 2 43 CFG=1
M  V30 END BOND
M  V30 END CTAB
M  END
>  <b_m_subgroup_collapsed>  (2548) 
0

>  <r_i_docking_score>  (2548) 
-5.3735343341849804

>  <s_m_subgroup_title>  (2548) 
glide-dock_SP_D22_pv

>  <s_m_subgroupid>  (2548) 
glide-dock_SP_D22_pv

>  <Molecule ChEMBL ID>  (2548) 
CHEMBL5273758

>  <Standard Type>  (2548) 
Ki

>  <Standard Value>  (2548) 
12.88

>  <label>  (2548) 
1

$$$$
CHEMBL5273758
     RDKit          3D

  0  0  0  0  0  0  0  0  0  0999 V3000
M  V30 BEGIN CTAB
M  V30 COUNTS 43 46 0 0 1
M  V30 BEGIN ATOM
M  V30 1 C 9.716320 4.384907 -17.474710 0
M  V30 2 N 11.167686 4.234138 -17.769957 0 CFG=1 CHG=1
M  V30 3 C 11.811902 5.523767 -18.124435 0
M  V30 4 C 11.886918 6.461134 -16.907448 0
M  V30 5 C 12.627101 5.836295 -15.710666 0 CFG=1
M  V30 6 C 12.317021 6.626830 -14.447463 0
M  V30 7 C 11.534135 6.168219 -13.447411 0
M  V30 8 O 11.269058 6.972380 -12.410286 0
M  V30 9 C 10.926460 4.841400 -13.508990 0
M  V30 10 O 10.069442 4.478680 -12.543438 0
M  V30 11 C 11.251441 3.992678 -14.507487 0
M  V30 12 C 10.779942 2.559122 -14.776393 0 CFG=1
M  V30 13 C 9.300309 2.194298 -14.645990 0
M  V30 14 C 8.273830 3.153302 -14.507760 0
M  V30 15 C 6.938385 2.748340 -14.308827 0
M  V30 16 C 6.610182 1.381756 -14.288516 0
M  V30 17 C 7.616567 0.418610 -14.470958 0
M  V30 18 C 8.952931 0.824073 -14.646846 0
M  V30 19 C 11.326445 2.219825 -16.188694 0
M  V30 20 C 11.992749 3.491948 -16.765797 0 CFG=2
M  V30 21 C 12.319774 4.325541 -15.521441 0 CFG=1
M  V30 22 H 9.549351 4.886105 -16.519930 0
M  V30 23 H 9.204863 3.423675 -17.448565 0
M  V30 24 H 9.228222 4.978972 -18.248926 0
M  V30 25 H 12.815760 5.333299 -18.508224 0
M  V30 26 H 11.260765 6.004858 -18.934071 0
M  V30 27 H 12.375173 7.396332 -17.191315 0
M  V30 28 H 10.879824 6.740243 -16.605970 0
M  V30 29 H 13.699371 5.927054 -15.897743 0
M  V30 30 H 12.731283 7.623863 -14.389482 0
M  V30 31 H 10.628436 6.523468 -11.874578 0
M  V30 32 H 9.787462 3.590762 -12.724244 0
M  V30 33 H 11.304906 1.938684 -14.050714 0
M  V30 34 H 8.493577 4.209646 -14.530033 0
M  V30 35 H 6.163334 3.488134 -14.181471 0
M  V30 36 H 5.587170 1.070110 -14.141681 0
M  V30 37 H 7.366951 -0.631982 -14.466999 0
M  V30 38 H 9.719147 0.071460 -14.759310 0
M  V30 39 H 12.085163 1.441173 -16.085621 0
M  V30 40 H 10.577146 1.794936 -16.856331 0
M  V30 41 H 12.922149 3.217234 -17.268440 0
M  V30 42 H 13.219749 3.888491 -15.083897 0
M  V30 43 H 11.201088 3.673105 -18.611481 0
M  V30 END ATOM
M  V30 BEGIN BOND
M  V30 1 1 2 1
M  V30 2 1 3 2
M  V30 3 1 4 3
M  V30 4 1 5 4
M  V30 5 1 6 5
M  V30 6 2 7 6
M  V30 7 1 8 7
M  V30 8 1 9 7
M  V30 9 1 10 9
M  V30 10 2 11 9
M  V30 11 1 12 11
M  V30 12 1 13 12
M  V30 13 2 14 13
M  V30 14 1 15 14
M  V30 15 2 16 15
M  V30 16 1 17 16
M  V30 17 1 18 13
M  V30 18 2 18 17
M  V30 19 1 19 12
M  V30 20 1 20 2
M  V30 21 1 20 19
M  V30 22 1 21 5
M  V30 23 1 21 11
M  V30 24 1 21 20
M  V30 25 1 22 1
M  V30 26 1 23 1
M  V30 27 1 24 1
M  V30 28 1 25 3
M  V30 29 1 26 3
M  V30 30 1 27 4
M  V30 31 1 28 4
M  V30 32 1 5 29 CFG=3
M  V30 33 1 30 6
M  V30 34 1 31 8
M  V30 35 1 32 10
M  V30 36 1 12 33 CFG=1
M  V30 37 1 34 14
M  V30 38 1 35 15
M  V30 39 1 36 16
M  V30 40 1 37 17
M  V30 41 1 38 18
M  V30 42 1 39 19
M  V30 43 1 40 19
M  V30 44 1 20 41 CFG=3
M  V30 45 1 21 42 CFG=1
M  V30 46 1 2 43 CFG=3
M  V30 END BOND
M  V30 END CTAB
M  END
>  <b_m_subgroup_collapsed>  (2549) 
0

>  <r_i_docking_score>  (2549) 
-5.3716611716904703

>  <s_m_subgroup_title>  (2549) 
glide-dock_SP_D22_pv

>  <s_m_subgroupid>  (2549) 
glide-dock_SP_D22_pv

>  <Molecule ChEMBL ID>  (2549) 
CHEMBL5273758

>  <Standard Type>  (2549) 
Ki

>  <Standard Value>  (2549) 
12.88

>  <label>  (2549) 
1

$$$$
CHEMBL193639
     RDKit          3D

  0  0  0  0  0  0  0  0  0  0999 V3000
M  V30 BEGIN CTAB
M  V30 COUNTS 44 47 0 0 1
M  V30 BEGIN ATOM
M  V30 1 C 13.323694 1.776412 -19.147053 0
M  V30 2 N 12.489012 1.062273 -18.154263 0 CHG=1
M  V30 3 C 11.968370 -0.216714 -18.698288 0
M  V30 4 C 11.441954 1.947988 -17.582903 0
M  V30 5 C 10.709444 1.335792 -16.372656 0 CFG=1
M  V30 6 C 9.860602 2.343809 -15.609652 0
M  V30 7 C 8.876889 1.455942 -14.862566 0 CFG=1
M  V30 8 C 7.669197 2.183629 -14.247405 0
M  V30 9 C 7.790607 3.559834 -13.922490 0
M  V30 10 C 6.772906 4.241730 -13.233726 0
M  V30 11 C 5.609828 3.560971 -12.851593 0
M  V30 12 C 5.463889 2.197057 -13.160413 0
M  V30 13 C 6.485620 1.504375 -13.845496 0
M  V30 14 S 6.269565 -0.224413 -14.100649 0
M  V30 15 C 6.179887 -0.177763 -15.847870 0
M  V30 16 C 4.951166 -0.404035 -16.493557 0
M  V30 17 C 4.857367 -0.233034 -17.886942 0
M  V30 18 C 5.985338 0.164906 -18.626970 0
M  V30 19 F 5.883655 0.359722 -19.963799 0
M  V30 20 C 7.217273 0.362105 -17.978960 0
M  V30 21 C 7.329427 0.177125 -16.582964 0
M  V30 22 C 8.679629 0.298580 -15.879707 0 CFG=1
M  V30 23 O 9.750898 0.392349 -16.814833 0
M  V30 24 H 12.721023 2.097254 -20.001177 0
M  V30 25 H 14.126384 1.133892 -19.517782 0
M  V30 26 H 13.788689 2.660637 -18.699614 0
M  V30 27 H 11.192964 -0.043689 -19.448673 0
M  V30 28 H 11.550269 -0.838449 -17.905304 0
M  V30 29 H 12.770570 -0.795710 -19.161106 0
M  V30 30 H 11.932450 2.865985 -17.245565 0
M  V30 31 H 10.726969 2.239238 -18.357851 0
M  V30 32 H 11.413396 0.850413 -15.693928 0
M  V30 33 H 10.460252 2.978990 -14.957657 0
M  V30 34 H 9.322648 2.984978 -16.312189 0
M  V30 35 H 9.419583 1.041923 -14.012381 0
M  V30 36 H 8.683293 4.115073 -14.166092 0
M  V30 37 H 6.895066 5.285332 -12.982791 0
M  V30 38 H 4.843472 4.085580 -12.306427 0
M  V30 39 H 4.572405 1.677971 -12.848467 0
M  V30 40 H 4.076398 -0.687261 -15.924665 0
M  V30 41 H 3.912254 -0.396555 -18.386295 0
M  V30 42 H 8.074514 0.643255 -18.569435 0
M  V30 43 H 8.832865 -0.628837 -15.327392 0
M  V30 44 H 13.109525 0.818272 -17.391716 0
M  V30 END ATOM
M  V30 BEGIN BOND
M  V30 1 1 2 1
M  V30 2 1 3 2
M  V30 3 1 4 2
M  V30 4 1 5 4
M  V30 5 1 6 5
M  V30 6 1 7 6
M  V30 7 1 8 7
M  V30 8 2 9 8
M  V30 9 1 10 9
M  V30 10 2 11 10
M  V30 11 1 12 11
M  V30 12 1 13 8
M  V30 13 2 13 12
M  V30 14 1 14 13
M  V30 15 1 15 14
M  V30 16 1 16 15
M  V30 17 2 17 16
M  V30 18 1 18 17
M  V30 19 1 19 18
M  V30 20 2 20 18
M  V30 21 2 21 15
M  V30 22 1 21 20
M  V30 23 1 22 7
M  V30 24 1 22 21
M  V30 25 1 23 5
M  V30 26 1 23 22
M  V30 27 1 24 1
M  V30 28 1 25 1
M  V30 29 1 26 1
M  V30 30 1 27 3
M  V30 31 1 28 3
M  V30 32 1 29 3
M  V30 33 1 30 4
M  V30 34 1 31 4
M  V30 35 1 5 32 CFG=1
M  V30 36 1 33 6
M  V30 37 1 34 6
M  V30 38 1 7 35 CFG=1
M  V30 39 1 36 9
M  V30 40 1 37 10
M  V30 41 1 38 11
M  V30 42 1 39 12
M  V30 43 1 40 16
M  V30 44 1 41 17
M  V30 45 1 42 20
M  V30 46 1 22 43 CFG=1
M  V30 47 1 44 2
M  V30 END BOND
M  V30 END CTAB
M  END
>  <b_m_subgroup_collapsed>  (2550) 
0

>  <r_i_docking_score>  (2550) 
-5.3685221169786104

>  <s_m_subgroup_title>  (2550) 
glide-dock_SP_D22_pv

>  <s_m_subgroupid>  (2550) 
glide-dock_SP_D22_pv

>  <Molecule ChEMBL ID>  (2550) 
CHEMBL193639

>  <Standard Type>  (2550) 
Ki

>  <Standard Value>  (2550) 
2.3

>  <label>  (2550) 
1

$$$$
CHEMBL3906408
     RDKit          3D

  0  0  0  0  0  0  0  0  0  0999 V3000
M  V30 BEGIN CTAB
M  V30 COUNTS 92 96 0 0 1
M  V30 BEGIN ATOM
M  V30 1 O 4.989545 -2.818222 -18.905119 0
M  V30 2 C 4.531274 -1.759626 -19.330881 0
M  V30 3 C 3.424648 -1.026091 -18.575890 0
M  V30 4 C 3.477764 -1.188053 -17.044174 0
M  V30 5 C 4.793609 -0.740647 -16.394804 0
M  V30 6 C 4.732555 -0.834941 -14.863219 0
M  V30 7 C 6.104345 -0.606729 -14.210379 0
M  V30 8 N 6.630953 0.745935 -14.499789 0 CHG=1
M  V30 9 C 8.113470 0.808357 -14.449594 0
M  V30 10 C 8.645260 2.182431 -14.879720 0
M  V30 11 N 7.926602 3.272393 -14.224000 0
M  V30 12 C 8.624074 4.234427 -13.455156 0
M  V30 13 C 8.088924 4.620341 -12.198397 0
M  V30 14 C 8.723493 5.580949 -11.390620 0
M  V30 15 C 9.923606 6.165814 -11.819545 0
M  V30 16 C 10.485252 5.777893 -13.046840 0
M  V30 17 C 9.851402 4.834325 -13.887228 0
M  V30 18 C 10.502291 4.575607 -15.186442 0
M  V30 19 C 11.798674 4.020529 -15.245835 0
M  V30 20 C 12.426177 3.783615 -16.485170 0
M  V30 21 C 11.761043 4.096583 -17.685331 0
M  V30 22 C 10.473438 4.664561 -17.641697 0
M  V30 23 C 9.862736 4.913104 -16.399231 0
M  V30 24 C 6.462314 3.205656 -14.199818 0
M  V30 25 C 5.971275 1.830931 -13.722132 0
M  V30 26 N 4.962184 -1.174892 -20.456636 0
M  V30 27 C 6.058258 -1.663727 -21.280796 0
M  V30 28 C 7.407127 -1.107579 -20.849003 0
M  V30 29 C 8.067947 -0.156281 -21.652662 0
M  V30 30 C 9.326133 0.341469 -21.269234 0
M  V30 31 C 9.947041 -0.102052 -20.084396 0
M  V30 32 O 11.196675 0.401214 -19.807241 0
M  V30 33 C 12.059316 -0.371920 -18.982693 0
M  V30 34 C 13.479669 -0.249386 -19.535444 0
M  V30 35 C 14.081454 1.149008 -19.318405 0
M  V30 36 N 15.359441 1.410708 -19.978949 0
M  V30 37 C 16.387852 0.406920 -19.715654 0
M  V30 38 C 17.731434 0.831488 -20.315611 0
M  V30 39 O 17.574015 1.007753 -21.720583 0
M  V30 40 C 16.602671 2.001142 -22.043989 0
M  V30 41 C 15.244038 1.634369 -21.415840 0
M  V30 42 C 9.264452 -1.027380 -19.257153 0
M  V30 43 C 8.007848 -1.531216 -19.645472 0
M  V30 44 H 2.485123 -1.429821 -18.944592 0
M  V30 45 H 3.431815 0.031950 -18.833935 0
M  V30 46 H 3.285953 -2.227563 -16.787086 0
M  V30 47 H 2.655480 -0.628585 -16.601297 0
M  V30 48 H 5.015891 0.278921 -16.707306 0
M  V30 49 H 5.612999 -1.360649 -16.757254 0
M  V30 50 H 4.384945 -1.827393 -14.587946 0
M  V30 51 H 3.983649 -0.146589 -14.477050 0
M  V30 52 H 6.786797 -1.358499 -14.607152 0
M  V30 53 H 6.067994 -0.767651 -13.132435 0
M  V30 54 H 8.542622 0.045986 -15.100779 0
M  V30 55 H 8.453305 0.572099 -13.446124 0
M  V30 56 H 8.551150 2.302716 -15.959229 0
M  V30 57 H 9.708358 2.211754 -14.647087 0
M  V30 58 H 7.180338 4.179930 -11.818804 0
M  V30 59 H 8.287992 5.863253 -10.442452 0
M  V30 60 H 10.418402 6.900242 -11.200929 0
M  V30 61 H 11.409026 6.239583 -13.366067 0
M  V30 62 H 12.318222 3.773477 -14.332140 0
M  V30 63 H 13.423160 3.372426 -16.519318 0
M  V30 64 H 12.241880 3.914922 -18.636284 0
M  V30 65 H 9.962704 4.920190 -18.557775 0
M  V30 66 H 8.888112 5.369853 -16.373917 0
M  V30 67 H 6.015033 4.000636 -13.604275 0
M  V30 68 H 6.087366 3.372479 -15.209283 0
M  V30 69 H 4.889813 1.786934 -13.846589 0
M  V30 70 H 6.121679 1.697723 -12.649966 0
M  V30 71 H 4.500633 -0.332678 -20.766054 0
M  V30 72 H 6.099019 -2.755641 -21.271049 0
M  V30 73 H 5.854894 -1.381630 -22.314987 0
M  V30 74 H 7.619120 0.186336 -22.572451 0
M  V30 75 H 9.835019 1.054151 -21.901985 0
M  V30 76 H 12.006038 -0.039648 -17.946598 0
M  V30 77 H 11.804328 -1.428643 -19.002714 0
M  V30 78 H 14.107574 -0.995047 -19.046377 0
M  V30 79 H 13.470365 -0.504315 -20.596617 0
M  V30 80 H 13.366625 1.901957 -19.649969 0
M  V30 81 H 14.192282 1.318722 -18.248804 0
M  V30 82 H 16.503016 0.244580 -18.649036 0
M  V30 83 H 16.102636 -0.551920 -20.148512 0
M  V30 84 H 18.084610 1.752248 -19.858910 0
M  V30 85 H 18.489330 0.084036 -20.107000 0
M  V30 86 H 16.944563 2.973459 -21.684156 0
M  V30 87 H 16.515244 2.075078 -23.126945 0
M  V30 88 H 14.857687 0.737855 -21.904243 0
M  V30 89 H 14.529670 2.433693 -21.611635 0
M  V30 90 H 9.693014 -1.371252 -18.329006 0
M  V30 91 H 7.512806 -2.256060 -19.015377 0
M  V30 92 H 6.404353 0.920946 -15.469916 0
M  V30 END ATOM
M  V30 BEGIN BOND
M  V30 1 2 2 1
M  V30 2 1 3 2
M  V30 3 1 4 3
M  V30 4 1 5 4
M  V30 5 1 6 5
M  V30 6 1 7 6
M  V30 7 1 8 7
M  V30 8 1 9 8
M  V30 9 1 10 9
M  V30 10 1 11 10
M  V30 11 1 12 11
M  V30 12 2 13 12
M  V30 13 1 14 13
M  V30 14 2 15 14
M  V30 15 1 16 15
M  V30 16 1 17 12
M  V30 17 2 17 16
M  V30 18 1 18 17
M  V30 19 2 19 18
M  V30 20 1 20 19
M  V30 21 2 21 20
M  V30 22 1 22 21
M  V30 23 1 23 18
M  V30 24 2 23 22
M  V30 25 1 24 11
M  V30 26 1 25 8
M  V30 27 1 25 24
M  V30 28 1 26 2
M  V30 29 1 27 26
M  V30 30 1 28 27
M  V30 31 1 29 28
M  V30 32 2 30 29
M  V30 33 1 31 30
M  V30 34 1 32 31
M  V30 35 1 33 32
M  V30 36 1 34 33
M  V30 37 1 35 34
M  V30 38 1 36 35
M  V30 39 1 37 36
M  V30 40 1 38 37
M  V30 41 1 39 38
M  V30 42 1 40 39
M  V30 43 1 41 36
M  V30 44 1 41 40
M  V30 45 2 42 31
M  V30 46 2 43 28
M  V30 47 1 43 42
M  V30 48 1 44 3
M  V30 49 1 45 3
M  V30 50 1 46 4
M  V30 51 1 47 4
M  V30 52 1 48 5
M  V30 53 1 49 5
M  V30 54 1 50 6
M  V30 55 1 51 6
M  V30 56 1 52 7
M  V30 57 1 53 7
M  V30 58 1 54 9
M  V30 59 1 55 9
M  V30 60 1 56 10
M  V30 61 1 57 10
M  V30 62 1 58 13
M  V30 63 1 59 14
M  V30 64 1 60 15
M  V30 65 1 61 16
M  V30 66 1 62 19
M  V30 67 1 63 20
M  V30 68 1 64 21
M  V30 69 1 65 22
M  V30 70 1 66 23
M  V30 71 1 67 24
M  V30 72 1 68 24
M  V30 73 1 69 25
M  V30 74 1 70 25
M  V30 75 1 71 26
M  V30 76 1 72 27
M  V30 77 1 73 27
M  V30 78 1 74 29
M  V30 79 1 75 30
M  V30 80 1 76 33
M  V30 81 1 77 33
M  V30 82 1 78 34
M  V30 83 1 79 34
M  V30 84 1 80 35
M  V30 85 1 81 35
M  V30 86 1 82 37
M  V30 87 1 83 37
M  V30 88 1 84 38
M  V30 89 1 85 38
M  V30 90 1 86 40
M  V30 91 1 87 40
M  V30 92 1 88 41
M  V30 93 1 89 41
M  V30 94 1 90 42
M  V30 95 1 91 43
M  V30 96 1 92 8
M  V30 END BOND
M  V30 END CTAB
M  END
>  <b_m_subgroup_collapsed>  (2551) 
0

>  <r_i_docking_score>  (2551) 
-5.3638542210841402

>  <s_m_subgroup_title>  (2551) 
glide-dock_SP_D22_pv

>  <s_m_subgroupid>  (2551) 
glide-dock_SP_D22_pv

>  <Molecule ChEMBL ID>  (2551) 
CHEMBL3906408

>  <Standard Type>  (2551) 
Ki

>  <Standard Value>  (2551) 
64.0

>  <label>  (2551) 
1

$$$$
CHEMBL5273758
     RDKit          3D

  0  0  0  0  0  0  0  0  0  0999 V3000
M  V30 BEGIN CTAB
M  V30 COUNTS 43 46 0 0 1
M  V30 BEGIN ATOM
M  V30 1 C 12.474335 4.352221 -14.684302 0
M  V30 2 N 11.271049 3.612400 -14.242328 0 CFG=2 CHG=1
M  V30 3 C 10.529813 2.993514 -15.382156 0
M  V30 4 C 9.226466 2.286201 -14.948497 0
M  V30 5 C 8.349713 3.357092 -14.321563 0 CFG=1
M  V30 6 C 6.916848 3.008685 -13.956554 0
M  V30 7 C 6.236073 3.835156 -13.127373 0
M  V30 8 O 4.965292 3.588254 -12.813652 0
M  V30 9 C 6.887871 5.036776 -12.603404 0
M  V30 10 O 6.133680 6.087108 -12.247139 0
M  V30 11 C 8.239230 5.064995 -12.568218 0
M  V30 12 C 9.176564 6.239680 -12.361979 0 CFG=1
M  V30 13 C 9.645552 6.465698 -10.923638 0
M  V30 14 C 10.538582 7.526533 -10.655877 0
M  V30 15 C 11.002439 7.764633 -9.348351 0
M  V30 16 C 10.559081 6.949193 -8.289825 0
M  V30 17 C 9.661913 5.896117 -8.542399 0
M  V30 18 C 9.208221 5.650923 -9.853024 0
M  V30 19 C 10.351354 5.886038 -13.317986 0
M  V30 20 C 10.454932 4.360305 -13.228833 0 CFG=1
M  V30 21 C 9.028860 3.881447 -13.064103 0 CFG=2
M  V30 22 H 12.198812 5.247308 -15.245249 0
M  V30 23 H 13.098459 3.738014 -15.333164 0
M  V30 24 H 13.074526 4.654680 -13.824272 0
M  V30 25 H 10.295144 3.769819 -16.114006 0
M  V30 26 H 11.180549 2.273846 -15.883789 0
M  V30 27 H 8.726392 1.851540 -15.814411 0
M  V30 28 H 9.417177 1.471882 -14.248218 0
M  V30 29 H 8.280250 4.172856 -15.041704 0
M  V30 30 H 6.466583 2.120771 -14.375975 0
M  V30 31 H 4.705632 4.282839 -12.223068 0
M  V30 32 H 6.605997 6.639016 -11.628050 0
M  V30 33 H 8.679381 7.156742 -12.675744 0
M  V30 34 H 10.877276 8.163752 -11.457361 0
M  V30 35 H 11.694592 8.571476 -9.159597 0
M  V30 36 H 10.908870 7.129805 -7.284249 0
M  V30 37 H 9.313890 5.274998 -7.730998 0
M  V30 38 H 8.516374 4.838028 -10.010777 0
M  V30 39 H 10.099008 6.131182 -14.347670 0
M  V30 40 H 11.282138 6.396544 -13.069069 0
M  V30 41 H 10.896919 4.172249 -12.254786 0
M  V30 42 H 9.046737 3.111614 -12.299949 0
M  V30 43 H 11.608152 2.808639 -13.732125 0
M  V30 END ATOM
M  V30 BEGIN BOND
M  V30 1 1 2 1
M  V30 2 1 3 2
M  V30 3 1 4 3
M  V30 4 1 5 4
M  V30 5 1 6 5
M  V30 6 2 7 6
M  V30 7 1 8 7
M  V30 8 1 9 7
M  V30 9 1 10 9
M  V30 10 2 11 9
M  V30 11 1 12 11
M  V30 12 1 13 12
M  V30 13 2 14 13
M  V30 14 1 15 14
M  V30 15 2 16 15
M  V30 16 1 17 16
M  V30 17 1 18 13
M  V30 18 2 18 17
M  V30 19 1 19 12
M  V30 20 1 20 2
M  V30 21 1 20 19
M  V30 22 1 21 5
M  V30 23 1 21 11
M  V30 24 1 21 20
M  V30 25 1 22 1
M  V30 26 1 23 1
M  V30 27 1 24 1
M  V30 28 1 25 3
M  V30 29 1 26 3
M  V30 30 1 27 4
M  V30 31 1 28 4
M  V30 32 1 5 29 CFG=3
M  V30 33 1 30 6
M  V30 34 1 31 8
M  V30 35 1 32 10
M  V30 36 1 12 33 CFG=3
M  V30 37 1 34 14
M  V30 38 1 35 15
M  V30 39 1 36 16
M  V30 40 1 37 17
M  V30 41 1 38 18
M  V30 42 1 39 19
M  V30 43 1 40 19
M  V30 44 1 20 41 CFG=1
M  V30 45 1 21 42 CFG=1
M  V30 46 1 2 43 CFG=1
M  V30 END BOND
M  V30 END CTAB
M  END
>  <b_m_subgroup_collapsed>  (2552) 
0

>  <r_i_docking_score>  (2552) 
-5.3544335478602898

>  <s_m_subgroup_title>  (2552) 
glide-dock_SP_D22_pv

>  <s_m_subgroupid>  (2552) 
glide-dock_SP_D22_pv

>  <Molecule ChEMBL ID>  (2552) 
CHEMBL5273758

>  <Standard Type>  (2552) 
Ki

>  <Standard Value>  (2552) 
12.88

>  <label>  (2552) 
1

$$$$
CHEMBL5273758
     RDKit          3D

  0  0  0  0  0  0  0  0  0  0999 V3000
M  V30 BEGIN CTAB
M  V30 COUNTS 43 46 0 0 1
M  V30 BEGIN ATOM
M  V30 1 C 7.807585 0.628710 -18.608685 0
M  V30 2 N 8.720072 1.502093 -17.827627 0 CFG=2 CHG=1
M  V30 3 C 9.229369 2.615324 -18.670319 0
M  V30 4 C 9.998711 3.637619 -17.826847 0
M  V30 5 C 11.218019 2.991532 -17.153883 0 CFG=1
M  V30 6 C 11.837461 3.966943 -16.160711 0
M  V30 7 C 11.546067 3.946167 -14.843070 0
M  V30 8 O 12.111128 4.846891 -14.029946 0
M  V30 9 C 10.598592 2.971022 -14.313896 0
M  V30 10 O 10.086180 3.134092 -13.085552 0
M  V30 11 C 10.243931 1.909399 -15.071257 0
M  V30 12 C 9.274931 0.785307 -14.743227 0 CFG=1
M  V30 13 C 7.848584 1.183949 -14.361593 0
M  V30 14 C 6.972229 0.173400 -13.906897 0
M  V30 15 C 5.691587 0.504265 -13.424840 0
M  V30 16 C 5.285748 1.846538 -13.366133 0
M  V30 17 C 6.131046 2.859357 -13.847356 0
M  V30 18 C 7.393091 2.525926 -14.373867 0
M  V30 19 C 9.306958 -0.115900 -15.997335 0
M  V30 20 C 9.827085 0.749163 -17.168421 0 CFG=2
M  V30 21 C 10.824863 1.676551 -16.443611 0 CFG=1
M  V30 22 H 8.351439 0.112778 -19.402281 0
M  V30 23 H 7.012474 1.213172 -19.074711 0
M  V30 24 H 7.320036 -0.122756 -17.988745 0
M  V30 25 H 9.867249 2.219739 -19.462263 0
M  V30 26 H 8.398727 3.121363 -19.163687 0
M  V30 27 H 10.320815 4.471648 -18.452444 0
M  V30 28 H 9.333012 4.061571 -17.071270 0
M  V30 29 H 11.958218 2.757028 -17.918325 0
M  V30 30 H 12.512787 4.707365 -16.563066 0
M  V30 31 H 12.701318 5.373771 -14.545489 0
M  V30 32 H 9.722327 2.304536 -12.807765 0
M  V30 33 H 9.679392 0.224307 -13.900464 0
M  V30 34 H 7.284838 -0.859877 -13.907065 0
M  V30 35 H 5.025451 -0.269278 -13.084185 0
M  V30 36 H 4.309192 2.103045 -12.981440 0
M  V30 37 H 5.803608 3.889012 -13.827361 0
M  V30 38 H 8.014774 3.331707 -14.730947 0
M  V30 39 H 10.032081 -0.911889 -15.818668 0
M  V30 40 H 8.365665 -0.628146 -16.186459 0
M  V30 41 H 10.332746 0.141787 -17.919065 0
M  V30 42 H 11.740507 1.106270 -16.270565 0
M  V30 43 H 8.174817 1.916498 -17.083578 0
M  V30 END ATOM
M  V30 BEGIN BOND
M  V30 1 1 2 1
M  V30 2 1 3 2
M  V30 3 1 4 3
M  V30 4 1 5 4
M  V30 5 1 6 5
M  V30 6 2 7 6
M  V30 7 1 8 7
M  V30 8 1 9 7
M  V30 9 1 10 9
M  V30 10 2 11 9
M  V30 11 1 12 11
M  V30 12 1 13 12
M  V30 13 2 14 13
M  V30 14 1 15 14
M  V30 15 2 16 15
M  V30 16 1 17 16
M  V30 17 1 18 13
M  V30 18 2 18 17
M  V30 19 1 19 12
M  V30 20 1 20 2
M  V30 21 1 20 19
M  V30 22 1 21 5
M  V30 23 1 21 11
M  V30 24 1 21 20
M  V30 25 1 22 1
M  V30 26 1 23 1
M  V30 27 1 24 1
M  V30 28 1 25 3
M  V30 29 1 26 3
M  V30 30 1 27 4
M  V30 31 1 28 4
M  V30 32 1 5 29 CFG=3
M  V30 33 1 30 6
M  V30 34 1 31 8
M  V30 35 1 32 10
M  V30 36 1 12 33 CFG=1
M  V30 37 1 34 14
M  V30 38 1 35 15
M  V30 39 1 36 16
M  V30 40 1 37 17
M  V30 41 1 38 18
M  V30 42 1 39 19
M  V30 43 1 40 19
M  V30 44 1 20 41 CFG=3
M  V30 45 1 21 42 CFG=1
M  V30 46 1 2 43 CFG=1
M  V30 END BOND
M  V30 END CTAB
M  END
>  <b_m_subgroup_collapsed>  (2553) 
0

>  <r_i_docking_score>  (2553) 
-5.3537515482500897

>  <s_m_subgroup_title>  (2553) 
glide-dock_SP_D22_pv

>  <s_m_subgroupid>  (2553) 
glide-dock_SP_D22_pv

>  <Molecule ChEMBL ID>  (2553) 
CHEMBL5273758

>  <Standard Type>  (2553) 
Ki

>  <Standard Value>  (2553) 
12.88

>  <label>  (2553) 
1

$$$$
CHEMBL1259144
     RDKit          3D

  0  0  0  0  0  0  0  0  0  0999 V3000
M  V30 BEGIN CTAB
M  V30 COUNTS 55 58 0 0 1
M  V30 BEGIN ATOM
M  V30 1 C 4.889559 -3.185162 -21.399698 0
M  V30 2 C 5.598052 -2.000990 -20.752802 0
M  V30 3 O 6.756924 -2.115538 -20.348539 0
M  V30 4 N 4.886840 -0.866741 -20.655727 0
M  V30 5 C 5.376097 0.372488 -20.063858 0
M  V30 6 C 5.640666 0.246297 -18.573767 0
M  V30 7 C 4.649326 -0.294477 -17.728725 0
M  V30 8 C 4.886127 -0.406496 -16.349592 0
M  V30 9 C 6.132018 -0.016798 -15.825927 0
M  V30 10 C 7.163980 0.456629 -16.661720 0
M  V30 11 C 6.890087 0.629548 -18.040359 0
M  V30 12 C 8.550649 0.737953 -16.064129 0 CFG=1
M  V30 13 N 9.629519 0.494787 -17.071514 0 CHG=1
M  V30 14 C 10.961317 1.102644 -16.800829 0
M  V30 15 C 11.900328 0.877795 -18.002676 0
M  V30 16 N 12.066531 -0.553400 -18.246931 0
M  V30 17 C 12.988048 -0.762405 -19.355543 0
M  V30 18 C 10.767436 -1.154055 -18.537031 0
M  V30 19 C 9.803997 -0.949215 -17.362476 0
M  V30 20 C 8.639245 2.102147 -15.333097 0
M  V30 21 C 7.540088 2.533851 -14.357054 0
M  V30 22 C 7.628628 3.873811 -13.909307 0
M  V30 23 C 6.672408 4.424273 -13.038458 0
M  V30 24 C 5.606928 3.631121 -12.592438 0
M  V30 25 C 5.516129 2.288075 -12.993607 0
M  V30 26 C 6.485755 1.719639 -13.846472 0
M  V30 27 S 6.383512 -0.024818 -14.099615 0
M  V30 28 H 3.958885 -3.408599 -20.874132 0
M  V30 29 H 4.652770 -2.964481 -22.441235 0
M  V30 30 H 5.521231 -4.073609 -21.369156 0
M  V30 31 H 3.969918 -0.848726 -21.084389 0
M  V30 32 H 4.625625 1.150325 -20.219992 0
M  V30 33 H 6.275517 0.692476 -20.591965 0
M  V30 34 H 3.692476 -0.600434 -18.131174 0
M  V30 35 H 4.110272 -0.778351 -15.694686 0
M  V30 36 H 7.643260 1.011016 -18.714512 0
M  V30 37 H 8.740129 -0.013678 -15.296275 0
M  V30 38 H 10.881462 2.179856 -16.654860 0
M  V30 39 H 11.390892 0.684015 -15.887754 0
M  V30 40 H 11.508210 1.371103 -18.894308 0
M  V30 41 H 12.874121 1.324183 -17.791407 0
M  V30 42 H 12.610174 -0.325961 -20.281443 0
M  V30 43 H 13.956401 -0.311595 -19.137592 0
M  V30 44 H 13.161240 -1.825631 -19.525314 0
M  V30 45 H 10.346616 -0.760476 -19.464327 0
M  V30 46 H 10.884919 -2.227126 -18.647091 0
M  V30 47 H 10.182411 -1.455656 -16.473305 0
M  V30 48 H 8.849283 -1.420615 -17.605247 0
M  V30 49 H 8.691370 2.884958 -16.091318 0
M  V30 50 H 9.572959 2.153374 -14.770895 0
M  V30 51 H 8.435920 4.505240 -14.252825 0
M  V30 52 H 6.756027 5.452588 -12.714931 0
M  V30 53 H 4.886328 4.053473 -11.910847 0
M  V30 54 H 4.718467 1.673891 -12.606120 0
M  V30 55 H 9.309752 0.922226 -17.926931 0
M  V30 END ATOM
M  V30 BEGIN BOND
M  V30 1 1 2 1
M  V30 2 2 3 2
M  V30 3 1 4 2
M  V30 4 1 5 4
M  V30 5 1 6 5
M  V30 6 1 7 6
M  V30 7 2 8 7
M  V30 8 1 9 8
M  V30 9 2 10 9
M  V30 10 2 11 6
M  V30 11 1 11 10
M  V30 12 1 12 10
M  V30 13 1 13 12
M  V30 14 1 14 13
M  V30 15 1 15 14
M  V30 16 1 16 15
M  V30 17 1 17 16
M  V30 18 1 18 16
M  V30 19 1 19 13
M  V30 20 1 19 18
M  V30 21 1 20 12
M  V30 22 1 21 20
M  V30 23 2 22 21
M  V30 24 1 23 22
M  V30 25 2 24 23
M  V30 26 1 25 24
M  V30 27 1 26 21
M  V30 28 2 26 25
M  V30 29 1 27 9
M  V30 30 1 27 26
M  V30 31 1 28 1
M  V30 32 1 29 1
M  V30 33 1 30 1
M  V30 34 1 31 4
M  V30 35 1 32 5
M  V30 36 1 33 5
M  V30 37 1 34 7
M  V30 38 1 35 8
M  V30 39 1 36 11
M  V30 40 1 12 37 CFG=1
M  V30 41 1 38 14
M  V30 42 1 39 14
M  V30 43 1 40 15
M  V30 44 1 41 15
M  V30 45 1 42 17
M  V30 46 1 43 17
M  V30 47 1 44 17
M  V30 48 1 45 18
M  V30 49 1 46 18
M  V30 50 1 47 19
M  V30 51 1 48 19
M  V30 52 1 49 20
M  V30 53 1 50 20
M  V30 54 1 51 22
M  V30 55 1 52 23
M  V30 56 1 53 24
M  V30 57 1 54 25
M  V30 58 1 55 13
M  V30 END BOND
M  V30 END CTAB
M  END
>  <b_m_subgroup_collapsed>  (2554) 
0

>  <r_i_docking_score>  (2554) 
-5.3504829955806201

>  <s_m_subgroup_title>  (2554) 
glide-dock_SP_D22_pv

>  <s_m_subgroupid>  (2554) 
glide-dock_SP_D22_pv

>  <Molecule ChEMBL ID>  (2554) 
CHEMBL1259144

>  <Standard Type>  (2554) 
Ki

>  <Standard Value>  (2554) 
7.1

>  <label>  (2554) 
1

$$$$
CHEMBL514286
     RDKit          3D

  0  0  0  0  0  0  0  0  0  0999 V3000
M  V30 BEGIN CTAB
M  V30 COUNTS 67 70 0 0 1
M  V30 BEGIN ATOM
M  V30 1 C 8.802564 4.471222 -8.645823 0
M  V30 2 O 9.261771 5.664218 -8.027748 0
M  V30 3 C 9.967152 6.557135 -8.803855 0
M  V30 4 C 10.607421 7.621322 -8.138618 0
M  V30 5 C 11.370320 8.559874 -8.856710 0
M  V30 6 C 11.496130 8.443651 -10.253846 0
M  V30 7 C 10.853949 7.390880 -10.941077 0
M  V30 8 C 10.962705 7.260003 -12.454967 0
M  V30 9 C 12.412918 7.100242 -12.951856 0
M  V30 10 C 12.538392 6.911808 -14.458764 0
M  V30 11 C 12.885865 8.015781 -15.256734 0
M  V30 12 C 13.068032 7.881152 -16.642365 0
M  V30 13 C 12.918386 6.621082 -17.241119 0
M  V30 14 C 12.592043 5.503479 -16.450521 0
M  V30 15 C 12.386348 5.637316 -15.052705 0
M  V30 16 O 12.060728 4.585328 -14.221786 0
M  V30 17 C 11.681039 3.340477 -14.790878 0
M  V30 18 C 10.295250 3.442930 -15.466849 0
M  V30 19 N 9.751463 2.128490 -15.798430 0
M  V30 20 C 8.679976 2.292523 -16.791748 0
M  V30 21 C 8.029768 0.938436 -17.146206 0
M  V30 22 N 7.554890 0.309321 -15.925076 0
M  V30 23 C 6.236005 -0.156026 -15.789614 0
M  V30 24 C 5.682218 -0.943170 -16.823605 0
M  V30 25 C 4.357941 -1.408302 -16.739185 0
M  V30 26 C 3.575896 -1.080639 -15.620388 0
M  V30 27 C 4.114368 -0.302488 -14.581703 0
M  V30 28 C 5.449417 0.172307 -14.651792 0
M  V30 29 O 6.000192 0.997992 -13.692315 0
M  V30 30 C 5.169038 1.473135 -12.647088 0
M  V30 31 C 8.542194 0.172101 -14.868889 0
M  V30 32 C 9.179931 1.536385 -14.581507 0
M  V30 33 C 10.085327 6.460024 -10.212367 0
M  V30 34 H 8.296089 3.848360 -7.909596 0
M  V30 35 H 8.085421 4.677385 -9.442042 0
M  V30 36 H 9.636436 3.892685 -9.046686 0
M  V30 37 H 10.516721 7.709091 -7.065494 0
M  V30 38 H 11.861067 9.366862 -8.335323 0
M  V30 39 H 12.084326 9.173205 -10.789598 0
M  V30 40 H 10.485847 8.136229 -12.895206 0
M  V30 41 H 10.374308 6.404014 -12.785803 0
M  V30 42 H 12.886004 6.248122 -12.468194 0
M  V30 43 H 13.006096 7.965301 -12.657196 0
M  V30 44 H 13.032075 8.972353 -14.790474 0
M  V30 45 H 13.326344 8.741061 -17.243155 0
M  V30 46 H 13.060087 6.506148 -18.305916 0
M  V30 47 H 12.504016 4.553175 -16.952291 0
M  V30 48 H 11.666034 2.636354 -13.961683 0
M  V30 49 H 12.442037 2.957023 -15.472045 0
M  V30 50 H 10.386320 4.026944 -16.379089 0
M  V30 51 H 9.602098 3.988196 -14.826783 0
M  V30 52 H 9.084400 2.747379 -17.696747 0
M  V30 53 H 7.924383 2.969575 -16.398380 0
M  V30 54 H 8.749868 0.280174 -17.633593 0
M  V30 55 H 7.206491 1.094536 -17.843155 0
M  V30 56 H 6.280335 -1.207975 -17.682663 0
M  V30 57 H 3.940905 -2.020749 -17.524485 0
M  V30 58 H 2.555039 -1.425679 -15.564164 0
M  V30 59 H 3.468717 -0.065522 -13.750796 0
M  V30 60 H 5.707540 2.209774 -12.054126 0
M  V30 61 H 4.274971 1.961965 -13.037285 0
M  V30 62 H 4.888831 0.656146 -11.983645 0
M  V30 63 H 8.096734 -0.228867 -13.960140 0
M  V30 64 H 9.302610 -0.538973 -15.188993 0
M  V30 65 H 9.963807 1.388574 -13.846807 0
M  V30 66 H 8.439936 2.203025 -14.138147 0
M  V30 67 H 9.596255 5.666936 -10.754375 0
M  V30 END ATOM
M  V30 BEGIN BOND
M  V30 1 1 2 1
M  V30 2 1 3 2
M  V30 3 2 4 3
M  V30 4 1 5 4
M  V30 5 2 6 5
M  V30 6 1 7 6
M  V30 7 1 8 7
M  V30 8 1 9 8
M  V30 9 1 10 9
M  V30 10 2 11 10
M  V30 11 1 12 11
M  V30 12 2 13 12
M  V30 13 1 14 13
M  V30 14 1 15 10
M  V30 15 2 15 14
M  V30 16 1 16 15
M  V30 17 1 17 16
M  V30 18 1 18 17
M  V30 19 1 19 18
M  V30 20 1 20 19
M  V30 21 1 21 20
M  V30 22 1 22 21
M  V30 23 1 23 22
M  V30 24 2 24 23
M  V30 25 1 25 24
M  V30 26 2 26 25
M  V30 27 1 27 26
M  V30 28 1 28 23
M  V30 29 2 28 27
M  V30 30 1 29 28
M  V30 31 1 30 29
M  V30 32 1 31 22
M  V30 33 1 32 19
M  V30 34 1 32 31
M  V30 35 1 33 3
M  V30 36 2 33 7
M  V30 37 1 34 1
M  V30 38 1 35 1
M  V30 39 1 36 1
M  V30 40 1 37 4
M  V30 41 1 38 5
M  V30 42 1 39 6
M  V30 43 1 40 8
M  V30 44 1 41 8
M  V30 45 1 42 9
M  V30 46 1 43 9
M  V30 47 1 44 11
M  V30 48 1 45 12
M  V30 49 1 46 13
M  V30 50 1 47 14
M  V30 51 1 48 17
M  V30 52 1 49 17
M  V30 53 1 50 18
M  V30 54 1 51 18
M  V30 55 1 52 20
M  V30 56 1 53 20
M  V30 57 1 54 21
M  V30 58 1 55 21
M  V30 59 1 56 24
M  V30 60 1 57 25
M  V30 61 1 58 26
M  V30 62 1 59 27
M  V30 63 1 60 30
M  V30 64 1 61 30
M  V30 65 1 62 30
M  V30 66 1 63 31
M  V30 67 1 64 31
M  V30 68 1 65 32
M  V30 69 1 66 32
M  V30 70 1 67 33
M  V30 END BOND
M  V30 END CTAB
M  END
>  <b_m_subgroup_collapsed>  (2555) 
0

>  <r_i_docking_score>  (2555) 
-5.3475226449818498

>  <s_m_subgroup_title>  (2555) 
glide-dock_SP_D22_pv

>  <s_m_subgroupid>  (2555) 
glide-dock_SP_D22_pv

>  <Molecule ChEMBL ID>  (2555) 
CHEMBL514286

>  <Standard Type>  (2555) 
Ki

>  <Standard Value>  (2555) 
427000.0

>  <label>  (2555) 
0

$$$$
CHEMBL443843
     RDKit          3D

  0  0  0  0  0  0  0  0  0  0999 V3000
M  V30 BEGIN CTAB
M  V30 COUNTS 46 49 0 0 1
M  V30 BEGIN ATOM
M  V30 1 C 10.252831 7.093274 -6.046846 0
M  V30 2 O 10.230324 7.726399 -7.317206 0
M  V30 3 C 10.019397 6.932563 -8.423279 0
M  V30 4 C 9.685909 5.564505 -8.370705 0
M  V30 5 C 9.533313 4.809280 -9.540147 0
M  V30 6 C 9.685991 5.382969 -10.817058 0
M  V30 7 C 9.950045 6.778817 -10.869919 0
M  V30 8 C 10.133145 7.529851 -9.688580 0
M  V30 9 C 9.998652 7.516736 -12.176612 0
M  V30 10 C 11.128721 6.998421 -13.061136 0
M  V30 11 C 10.717345 5.760634 -13.873271 0
M  V30 12 N 10.624476 4.540695 -13.046794 0 CFG=2 CHG=1
M  V30 13 C 10.824316 3.296761 -13.839338 0
M  V30 14 C 9.720567 3.002401 -14.859096 0
M  V30 15 C 8.460909 2.463022 -14.182119 0
M  V30 16 C 7.595794 3.549773 -13.559362 0
M  V30 17 C 6.227920 3.549961 -13.898000 0
M  V30 18 C 5.370141 4.563270 -13.446962 0
M  V30 19 C 5.883549 5.585484 -12.639833 0
M  V30 20 C 7.210432 5.548233 -12.227367 0
M  V30 21 C 8.092012 4.536240 -12.660853 0
M  V30 22 C 9.499229 4.478035 -12.061581 0 CFG=2
M  V30 23 H 10.484153 7.832850 -5.281251 0
M  V30 24 H 11.020210 6.319867 -5.999780 0
M  V30 25 H 9.285331 6.652951 -5.804713 0
M  V30 26 H 9.535958 5.048889 -7.445587 0
M  V30 27 H 9.285979 3.772403 -9.430675 0
M  V30 28 H 10.345571 8.587129 -9.742467 0
M  V30 29 H 9.024743 7.438255 -12.646987 0
M  V30 30 H 10.095560 8.580793 -11.980392 0
M  V30 31 H 11.383749 7.776483 -13.778485 0
M  V30 32 H 12.041248 6.828698 -12.487003 0
M  V30 33 H 9.777066 5.880817 -14.405890 0
M  V30 34 H 11.478265 5.614130 -14.641646 0
M  V30 35 H 11.789325 3.352946 -14.343572 0
M  V30 36 H 10.885858 2.440999 -13.172803 0
M  V30 37 H 9.499098 3.850400 -15.507158 0
M  V30 38 H 10.094723 2.219918 -15.520018 0
M  V30 39 H 7.875956 1.939564 -14.940348 0
M  V30 40 H 8.721314 1.703002 -13.446878 0
M  V30 41 H 5.834948 2.784241 -14.547122 0
M  V30 42 H 4.335104 4.572094 -13.753368 0
M  V30 43 H 5.285900 6.406893 -12.285116 0
M  V30 44 H 7.497183 6.317114 -11.530130 0
M  V30 45 H 9.569393 3.469027 -11.657240 0
M  V30 46 H 11.444788 4.576165 -12.462001 0
M  V30 END ATOM
M  V30 BEGIN BOND
M  V30 1 1 2 1
M  V30 2 1 3 2
M  V30 3 1 4 3
M  V30 4 2 5 4
M  V30 5 1 6 5
M  V30 6 2 7 6
M  V30 7 2 8 3
M  V30 8 1 8 7
M  V30 9 1 9 7
M  V30 10 1 10 9
M  V30 11 1 11 10
M  V30 12 1 12 11
M  V30 13 1 13 12
M  V30 14 1 14 13
M  V30 15 1 15 14
M  V30 16 1 16 15
M  V30 17 2 17 16
M  V30 18 1 18 17
M  V30 19 2 19 18
M  V30 20 1 20 19
M  V30 21 1 21 16
M  V30 22 2 21 20
M  V30 23 1 22 6
M  V30 24 1 22 12
M  V30 25 1 22 21
M  V30 26 1 23 1
M  V30 27 1 24 1
M  V30 28 1 25 1
M  V30 29 1 26 4
M  V30 30 1 27 5
M  V30 31 1 28 8
M  V30 32 1 29 9
M  V30 33 1 30 9
M  V30 34 1 31 10
M  V30 35 1 32 10
M  V30 36 1 33 11
M  V30 37 1 34 11
M  V30 38 1 35 13
M  V30 39 1 36 13
M  V30 40 1 37 14
M  V30 41 1 38 14
M  V30 42 1 39 15
M  V30 43 1 40 15
M  V30 44 1 41 17
M  V30 45 1 42 18
M  V30 46 1 43 19
M  V30 47 1 44 20
M  V30 48 1 22 45 CFG=1
M  V30 49 1 12 46 CFG=1
M  V30 END BOND
M  V30 END CTAB
M  END
>  <b_m_subgroup_collapsed>  (2556) 
0

>  <r_i_docking_score>  (2556) 
-5.3442224385639001

>  <s_m_subgroup_title>  (2556) 
glide-dock_SP_D22_pv

>  <s_m_subgroupid>  (2556) 
glide-dock_SP_D22_pv

>  <Molecule ChEMBL ID>  (2556) 
CHEMBL443843

>  <Standard Type>  (2556) 
Ki

>  <Standard Value>  (2556) 
10000.0

>  <label>  (2556) 
0

$$$$
CHEMBL11493
     RDKit          3D

  0  0  0  0  0  0  0  0  0  0999 V3000
M  V30 BEGIN CTAB
M  V30 COUNTS 58 61 0 0 1
M  V30 BEGIN ATOM
M  V30 1 C 8.965017 7.893114 -6.884449 0
M  V30 2 C 9.299951 7.394336 -8.295180 0
M  V30 3 C 9.085829 5.879330 -8.449103 0
M  V30 4 C 9.469192 5.350144 -9.840493 0
M  V30 5 N 8.485903 5.781806 -10.865138 0 CFG=2 CHG=1
M  V30 6 C 7.716777 4.750229 -11.592806 0 CFG=1
M  V30 7 C 6.770794 5.633546 -12.421283 0
M  V30 8 C 7.596035 6.917000 -12.676113 0
M  V30 9 C 8.938025 6.678746 -11.946187 0 CFG=2
M  V30 10 C 10.000233 5.950023 -12.833691 0
M  V30 11 C 9.407699 4.732274 -13.543037 0 CFG=1
M  V30 12 O 10.487773 3.997188 -14.117258 0
M  V30 13 C 10.559119 3.979717 -15.547096 0
M  V30 14 C 10.102242 2.629633 -16.085428 0
M  V30 15 C 10.458788 1.437230 -15.417220 0
M  V30 16 C 10.115540 0.185670 -15.966765 0
M  V30 17 C 9.427911 0.121145 -17.194654 0
M  V30 18 F 9.151959 -1.077740 -17.757727 0
M  V30 19 C 9.041066 1.306167 -17.847635 0
M  V30 20 C 9.369504 2.557704 -17.291611 0
M  V30 21 C 11.940475 4.404100 -16.064787 0
M  V30 22 C 12.431430 3.961571 -17.317938 0
M  V30 23 C 13.658536 4.435162 -17.822428 0
M  V30 24 C 14.407226 5.370976 -17.087683 0
M  V30 25 F 15.586548 5.827473 -17.568563 0
M  V30 26 C 13.927876 5.826525 -15.846427 0
M  V30 27 C 12.709393 5.339689 -15.337455 0
M  V30 28 C 8.643938 3.890392 -12.509915 0
M  V30 29 H 9.154213 8.962174 -6.795663 0
M  V30 30 H 7.914630 7.725117 -6.647055 0
M  V30 31 H 9.564795 7.383774 -6.129563 0
M  V30 32 H 10.336915 7.642806 -8.524272 0
M  V30 33 H 8.686511 7.933694 -9.017261 0
M  V30 34 H 8.052449 5.621552 -8.218415 0
M  V30 35 H 9.697008 5.371222 -7.702818 0
M  V30 36 H 9.520660 4.262883 -9.800880 0
M  V30 37 H 10.472567 5.700315 -10.078978 0
M  V30 38 H 7.169203 4.104910 -10.907651 0
M  V30 39 H 6.437491 5.146548 -13.338078 0
M  V30 40 H 5.878421 5.879707 -11.841024 0
M  V30 41 H 7.693180 7.113088 -13.736766 0
M  V30 42 H 7.084003 7.780479 -12.247637 0
M  V30 43 H 9.344038 7.605266 -11.538847 0
M  V30 44 H 10.844842 5.619838 -12.242601 0
M  V30 45 H 10.479983 6.571867 -13.575142 0
M  V30 46 H 8.696384 5.053584 -14.303828 0
M  V30 47 H 9.896812 4.735761 -15.970289 0
M  V30 48 H 11.012965 1.483394 -14.489401 0
M  V30 49 H 10.401639 -0.724030 -15.460769 0
M  V30 50 H 8.508177 1.251981 -18.786665 0
M  V30 51 H 9.095438 3.462440 -17.814644 0
M  V30 52 H 11.871835 3.262042 -17.919239 0
M  V30 53 H 14.021152 4.085846 -18.778605 0
M  V30 54 H 14.499812 6.548075 -15.282188 0
M  V30 55 H 12.368867 5.705498 -14.383161 0
M  V30 56 H 8.058979 3.140520 -13.047470 0
M  V30 57 H 9.373061 3.364342 -11.898537 0
M  V30 58 H 7.793764 6.331547 -10.358989 0
M  V30 END ATOM
M  V30 BEGIN BOND
M  V30 1 1 2 1
M  V30 2 1 3 2
M  V30 3 1 4 3
M  V30 4 1 5 4
M  V30 5 1 6 5
M  V30 6 1 7 6
M  V30 7 1 8 7
M  V30 8 1 9 5
M  V30 9 1 9 8
M  V30 10 1 10 9
M  V30 11 1 11 10
M  V30 12 1 12 11
M  V30 13 1 13 12
M  V30 14 1 14 13
M  V30 15 1 15 14
M  V30 16 2 16 15
M  V30 17 1 17 16
M  V30 18 1 18 17
M  V30 19 2 19 17
M  V30 20 2 20 14
M  V30 21 1 20 19
M  V30 22 1 21 13
M  V30 23 1 22 21
M  V30 24 2 23 22
M  V30 25 1 24 23
M  V30 26 1 25 24
M  V30 27 2 26 24
M  V30 28 2 27 21
M  V30 29 1 27 26
M  V30 30 1 28 6
M  V30 31 1 28 11
M  V30 32 1 29 1
M  V30 33 1 30 1
M  V30 34 1 31 1
M  V30 35 1 32 2
M  V30 36 1 33 2
M  V30 37 1 34 3
M  V30 38 1 35 3
M  V30 39 1 36 4
M  V30 40 1 37 4
M  V30 41 1 6 38 CFG=1
M  V30 42 1 39 7
M  V30 43 1 40 7
M  V30 44 1 41 8
M  V30 45 1 42 8
M  V30 46 1 9 43 CFG=1
M  V30 47 1 44 10
M  V30 48 1 45 10
M  V30 49 1 11 46 CFG=3
M  V30 50 1 47 13
M  V30 51 1 48 15
M  V30 52 1 49 16
M  V30 53 1 50 19
M  V30 54 1 51 20
M  V30 55 1 52 22
M  V30 56 1 53 23
M  V30 57 1 54 26
M  V30 58 1 55 27
M  V30 59 1 56 28
M  V30 60 1 57 28
M  V30 61 1 5 58 CFG=1
M  V30 END BOND
M  V30 END CTAB
M  END
>  <b_m_subgroup_collapsed>  (2557) 
0

>  <r_i_docking_score>  (2557) 
-5.34213077662434

>  <s_m_subgroup_title>  (2557) 
glide-dock_SP_D22_pv

>  <s_m_subgroupid>  (2557) 
glide-dock_SP_D22_pv

>  <Molecule ChEMBL ID>  (2557) 
CHEMBL11493

>  <Standard Type>  (2557) 
Ki

>  <Standard Value>  (2557) 
68.1

>  <label>  (2557) 
1

$$$$
CHEMBL94015
     RDKit          3D

  0  0  0  0  0  0  0  0  0  0999 V3000
M  V30 BEGIN CTAB
M  V30 COUNTS 37 39 0 0 1
M  V30 BEGIN ATOM
M  V30 1 C 5.722760 5.010951 -13.076896 0
M  V30 2 C 7.252142 5.052932 -12.968436 0
M  V30 3 C 7.725490 5.982580 -11.841648 0
M  V30 4 N 9.129174 5.724598 -11.516295 0
M  V30 5 C 10.074478 6.293118 -12.452872 0
M  V30 6 O 10.297126 7.656393 -12.241424 0
M  V30 7 C 10.813113 7.960721 -10.947931 0
M  V30 8 C 9.779001 7.505618 -9.907080 0 CFG=2
M  V30 9 C 10.163406 7.758674 -8.448467 0
M  V30 10 C 10.764421 8.972333 -8.031398 0
M  V30 11 C 11.118851 9.169322 -6.677558 0
M  V30 12 O 11.685730 10.340597 -6.263630 0
M  V30 13 C 10.887403 8.152173 -5.736812 0
M  V30 14 C 10.275125 6.955242 -6.141964 0
M  V30 15 C 9.894176 6.753302 -7.482385 0
M  V30 16 O 9.292794 5.552352 -7.795543 0
M  V30 17 C 8.616512 5.459481 -9.035735 0
M  V30 18 C 9.530656 6.005434 -10.134804 0 CFG=1
M  V30 19 H 5.404295 4.358243 -13.889908 0
M  V30 20 H 5.303099 6.000922 -13.260312 0
M  V30 21 H 5.286366 4.630042 -12.152753 0
M  V30 22 H 7.609783 4.037777 -12.778256 0
M  V30 23 H 7.685195 5.364091 -13.917651 0
M  V30 24 H 7.574492 7.031172 -12.101231 0
M  V30 25 H 7.085649 5.772386 -10.989196 0
M  V30 26 H 11.028206 5.775367 -12.382237 0
M  V30 27 H 9.725632 6.162889 -13.474280 0
M  V30 28 H 11.778268 7.470776 -10.795505 0
M  V30 29 H 10.985036 9.032250 -10.885736 0
M  V30 30 H 8.854749 8.055893 -10.079123 0
M  V30 31 H 10.951574 9.770603 -8.740251 0
M  V30 32 H 11.945713 10.327852 -5.356765 0
M  V30 33 H 11.160450 8.287349 -4.700937 0
M  V30 34 H 10.087752 6.177545 -5.413024 0
M  V30 35 H 8.364260 4.414587 -9.215997 0
M  V30 36 H 7.686568 6.021954 -8.967690 0
M  V30 37 H 10.485127 5.492902 -10.004529 0
M  V30 END ATOM
M  V30 BEGIN BOND
M  V30 1 1 2 1
M  V30 2 1 3 2
M  V30 3 1 4 3
M  V30 4 1 5 4
M  V30 5 1 6 5
M  V30 6 1 7 6
M  V30 7 1 8 7
M  V30 8 1 9 8
M  V30 9 1 10 9
M  V30 10 2 11 10
M  V30 11 1 12 11
M  V30 12 1 13 11
M  V30 13 2 14 13
M  V30 14 2 15 9
M  V30 15 1 15 14
M  V30 16 1 16 15
M  V30 17 1 17 16
M  V30 18 1 18 4
M  V30 19 1 18 8
M  V30 20 1 18 17
M  V30 21 1 19 1
M  V30 22 1 20 1
M  V30 23 1 21 1
M  V30 24 1 22 2
M  V30 25 1 23 2
M  V30 26 1 24 3
M  V30 27 1 25 3
M  V30 28 1 26 5
M  V30 29 1 27 5
M  V30 30 1 28 7
M  V30 31 1 29 7
M  V30 32 1 8 30 CFG=3
M  V30 33 1 31 10
M  V30 34 1 32 12
M  V30 35 1 33 13
M  V30 36 1 34 14
M  V30 37 1 35 17
M  V30 38 1 36 17
M  V30 39 1 18 37 CFG=1
M  V30 END BOND
M  V30 END CTAB
M  END
>  <b_m_subgroup_collapsed>  (2558) 
0

>  <r_i_docking_score>  (2558) 
-5.3409367801842498

>  <s_m_subgroup_title>  (2558) 
glide-dock_SP_D22_pv

>  <s_m_subgroupid>  (2558) 
glide-dock_SP_D22_pv

>  <Molecule ChEMBL ID>  (2558) 
CHEMBL94015

>  <Standard Type>  (2558) 
Ki

>  <Standard Value>  (2558) 
42.0

>  <label>  (2558) 
1

$$$$
CHEMBL254298
     RDKit          3D

  0  0  0  0  0  0  0  0  0  0999 V3000
M  V30 BEGIN CTAB
M  V30 COUNTS 32 34 0 0 1
M  V30 BEGIN ATOM
M  V30 1 C 8.091636 0.784949 -16.311661 0
M  V30 2 C 8.862894 2.022156 -15.757969 0 CFG=1
M  V30 3 C 8.065605 2.769337 -14.647167 0
M  V30 4 C 6.772292 2.340838 -14.247154 0
M  V30 5 C 6.038277 3.036518 -13.266295 0
M  V30 6 C 6.582003 4.174200 -12.647282 0
M  V30 7 C 7.865934 4.609881 -13.012130 0
M  V30 8 C 8.596087 3.916081 -13.996149 0
M  V30 9 C 10.198899 1.507635 -15.154517 0
M  V30 10 O 10.268911 0.389346 -14.646950 0
M  V30 11 N 11.286026 2.291506 -15.207184 0
M  V30 12 C 11.367687 3.510868 -15.918470 0
M  V30 13 C 12.503094 4.322562 -15.738390 0
M  V30 14 C 12.630699 5.526054 -16.451876 0
M  V30 15 Cl 14.031355 6.510837 -16.247051 0
M  V30 16 C 11.618572 5.920168 -17.343006 0
M  V30 17 C 10.474750 5.119308 -17.531559 0
M  V30 18 Cl 9.286082 5.700011 -18.646849 0
M  V30 19 C 10.335820 3.902455 -16.805580 0
M  V30 20 C 9.179850 2.968879 -16.959297 0
M  V30 21 O 8.485230 2.923547 -17.975677 0
M  V30 22 H 8.667223 0.266558 -17.080276 0
M  V30 23 H 7.876081 0.048702 -15.535240 0
M  V30 24 H 7.138807 1.062772 -16.764637 0
M  V30 25 H 6.301607 1.474291 -14.683646 0
M  V30 26 H 5.053911 2.692255 -12.984802 0
M  V30 27 H 6.024020 4.705459 -11.888759 0
M  V30 28 H 8.292221 5.479594 -12.533310 0
M  V30 29 H 9.574947 4.295184 -14.234498 0
M  V30 30 H 12.124393 1.954615 -14.754473 0
M  V30 31 H 13.285798 4.024240 -15.057710 0
M  V30 32 H 11.721130 6.846266 -17.889889 0
M  V30 END ATOM
M  V30 BEGIN BOND
M  V30 1 1 2 1 CFG=3
M  V30 2 1 3 2
M  V30 3 2 4 3
M  V30 4 1 5 4
M  V30 5 2 6 5
M  V30 6 1 7 6
M  V30 7 1 8 3
M  V30 8 2 8 7
M  V30 9 1 9 2
M  V30 10 2 10 9
M  V30 11 1 11 9
M  V30 12 1 12 11
M  V30 13 2 13 12
M  V30 14 1 14 13
M  V30 15 1 15 14
M  V30 16 2 16 14
M  V30 17 1 17 16
M  V30 18 1 18 17
M  V30 19 1 19 12
M  V30 20 2 19 17
M  V30 21 1 20 2
M  V30 22 1 20 19
M  V30 23 2 21 20
M  V30 24 1 22 1
M  V30 25 1 23 1
M  V30 26 1 24 1
M  V30 27 1 25 4
M  V30 28 1 26 5
M  V30 29 1 27 6
M  V30 30 1 28 7
M  V30 31 1 29 8
M  V30 32 1 30 11
M  V30 33 1 31 13
M  V30 34 1 32 16
M  V30 END BOND
M  V30 END CTAB
M  END
>  <b_m_subgroup_collapsed>  (2559) 
0

>  <r_i_docking_score>  (2559) 
-5.3378095715703697

>  <s_m_subgroup_title>  (2559) 
glide-dock_SP_D22_pv

>  <s_m_subgroupid>  (2559) 
glide-dock_SP_D22_pv

>  <Molecule ChEMBL ID>  (2559) 
CHEMBL254298

>  <Standard Type>  (2559) 
Ki

>  <Standard Value>  (2559) 
10000.0

>  <label>  (2559) 
0

$$$$
CHEMBL24978
     RDKit          3D

  0  0  0  0  0  0  0  0  0  0999 V3000
M  V30 BEGIN CTAB
M  V30 COUNTS 46 48 0 0 1
M  V30 BEGIN ATOM
M  V30 1 C 11.223170 7.598142 -10.642560 0
M  V30 2 C 10.420161 6.815331 -11.691169 0
M  V30 3 C 9.265729 5.983229 -11.072913 0
M  V30 4 N 8.168711 5.609615 -12.017703 0 CHG=1
M  V30 5 C 7.533204 6.797740 -12.647056 0
M  V30 6 C 5.997905 6.765418 -12.646129 0
M  V30 7 C 5.429606 8.185560 -12.732096 0
M  V30 8 C 8.461948 4.435144 -12.906039 0 CFG=2
M  V30 9 C 9.256665 4.750262 -14.177104 0
M  V30 10 C 9.633416 3.499002 -14.943758 0
M  V30 11 C 10.835830 3.327711 -15.655898 0
M  V30 12 C 11.075101 2.140007 -16.366575 0
M  V30 13 C 10.102220 1.124226 -16.388041 0
M  V30 14 C 8.879992 1.259823 -15.695105 0
M  V30 15 C 7.855165 0.233820 -15.712632 0
M  V30 16 C 6.732898 0.366599 -14.994043 0
M  V30 17 C 6.490372 1.536591 -14.157631 0
M  V30 18 O 5.484711 1.607487 -13.447703 0
M  V30 19 N 7.441723 2.527554 -14.191143 0
M  V30 20 C 8.677031 2.446178 -14.956246 0
M  V30 21 C 7.183920 3.708115 -13.341381 0
M  V30 22 H 12.048798 8.136467 -11.109407 0
M  V30 23 H 10.594805 8.335162 -10.141432 0
M  V30 24 H 11.644374 6.950290 -9.876382 0
M  V30 25 H 11.102664 6.172685 -12.245260 0
M  V30 26 H 10.049385 7.539155 -12.414768 0
M  V30 27 H 8.800021 6.565671 -10.275360 0
M  V30 28 H 9.662780 5.094569 -10.580233 0
M  V30 29 H 7.833642 7.676121 -12.075374 0
M  V30 30 H 7.911790 6.971883 -13.644191 0
M  V30 31 H 5.571603 6.156329 -13.438931 0
M  V30 32 H 5.652002 6.306606 -11.719696 0
M  V30 33 H 4.486072 8.270100 -12.209833 0
M  V30 34 H 6.068434 8.923573 -12.246920 0
M  V30 35 H 5.283580 8.487206 -13.768345 0
M  V30 36 H 9.046413 3.731951 -12.310415 0
M  V30 37 H 10.171585 5.293773 -13.959543 0
M  V30 38 H 8.682124 5.370158 -14.864608 0
M  V30 39 H 11.580230 4.110632 -15.660914 0
M  V30 40 H 12.003128 2.010976 -16.904623 0
M  V30 41 H 10.298686 0.222615 -16.949532 0
M  V30 42 H 8.012196 -0.629014 -16.338425 0
M  V30 43 H 5.985609 -0.412946 -15.036066 0
M  V30 44 H 6.555769 4.360830 -13.942505 0
M  V30 45 H 6.618773 3.464802 -12.439033 0
M  V30 46 H 7.456851 5.273763 -11.380847 0
M  V30 END ATOM
M  V30 BEGIN BOND
M  V30 1 1 2 1
M  V30 2 1 3 2
M  V30 3 1 4 3
M  V30 4 1 5 4
M  V30 5 1 6 5
M  V30 6 1 7 6
M  V30 7 1 8 4
M  V30 8 1 9 8
M  V30 9 1 10 9
M  V30 10 1 11 10
M  V30 11 2 12 11
M  V30 12 1 13 12
M  V30 13 2 14 13
M  V30 14 1 15 14
M  V30 15 2 16 15
M  V30 16 1 17 16
M  V30 17 2 18 17
M  V30 18 1 19 17
M  V30 19 2 20 10
M  V30 20 1 20 14
M  V30 21 1 20 19
M  V30 22 1 21 8
M  V30 23 1 21 19
M  V30 24 1 22 1
M  V30 25 1 23 1
M  V30 26 1 24 1
M  V30 27 1 25 2
M  V30 28 1 26 2
M  V30 29 1 27 3
M  V30 30 1 28 3
M  V30 31 1 29 5
M  V30 32 1 30 5
M  V30 33 1 31 6
M  V30 34 1 32 6
M  V30 35 1 33 7
M  V30 36 1 34 7
M  V30 37 1 35 7
M  V30 38 1 8 36 CFG=1
M  V30 39 1 37 9
M  V30 40 1 38 9
M  V30 41 1 39 11
M  V30 42 1 40 12
M  V30 43 1 41 13
M  V30 44 1 42 15
M  V30 45 1 43 16
M  V30 46 1 44 21
M  V30 47 1 45 21
M  V30 48 1 46 4
M  V30 END BOND
M  V30 END CTAB
M  END
>  <b_m_subgroup_collapsed>  (2560) 
0

>  <r_i_docking_score>  (2560) 
-5.3363889105490401

>  <s_m_subgroup_title>  (2560) 
glide-dock_SP_D22_pv

>  <s_m_subgroupid>  (2560) 
glide-dock_SP_D22_pv

>  <Molecule ChEMBL ID>  (2560) 
CHEMBL24978

>  <Standard Type>  (2560) 
Ki

>  <Standard Value>  (2560) 
3.5

>  <label>  (2560) 
1

$$$$
CHEMBL4570209
     RDKit          3D

  0  0  0  0  0  0  0  0  0  0999 V3000
M  V30 BEGIN CTAB
M  V30 COUNTS 78 83 0 0 1
M  V30 BEGIN ATOM
M  V30 1 C 5.630778 0.575706 -12.566523 0
M  V30 2 O 4.536480 0.115178 -13.347550 0
M  V30 3 C 4.782234 -0.234991 -14.656691 0
M  V30 4 C 6.056170 -0.171269 -15.273163 0
M  V30 5 C 6.201540 -0.506006 -16.631746 0
M  V30 6 C 5.089347 -0.920280 -17.394230 0
M  V30 7 C 5.250268 -1.172945 -18.847660 0
M  V30 8 C 5.681571 -0.044884 -19.684809 0
M  V30 9 O 5.944993 1.070686 -19.225813 0
M  V30 10 N 5.821171 -0.310598 -21.063503 0
M  V30 11 C 6.285908 0.761747 -21.935232 0
M  V30 12 C 7.805622 0.738561 -22.210340 0
M  V30 13 C 8.678233 0.999477 -20.971640 0
M  V30 14 C 10.183348 0.933967 -21.280249 0
M  V30 15 N 11.011529 1.185601 -20.072443 0 CFG=1 CHG=1
M  V30 16 C 12.360054 0.563454 -20.173340 0
M  V30 17 C 13.164906 0.740595 -18.873377 0
M  V30 18 C 13.255718 2.219748 -18.465401 0
M  V30 19 C 11.868425 2.876866 -18.408598 0 CFG=2
M  V30 20 C 11.113592 2.494023 -17.158175 0
M  V30 21 C 10.425515 1.334999 -16.881691 0
M  V30 22 N 9.882759 1.414755 -15.612893 0
M  V30 23 C 10.204320 2.618591 -15.023546 0
M  V30 24 C 9.890068 3.170597 -13.773372 0
M  V30 25 C 10.392207 4.439768 -13.430773 0
M  V30 26 C 11.213949 5.152762 -14.326059 0
M  V30 27 O 11.686498 6.374442 -13.894804 0
M  V30 28 C 12.553321 7.102807 -14.753533 0
M  V30 29 C 11.505910 4.583782 -15.594692 0
M  V30 30 C 11.004542 3.313100 -15.974834 0
M  V30 31 C 11.099570 2.632017 -19.726326 0
M  V30 32 C 5.563039 -1.561871 -21.651127 0
M  V30 33 O 5.750162 -1.756393 -22.855551 0
M  V30 34 N 5.077307 -2.583996 -20.814594 0
M  V30 35 C 4.720553 -3.811604 -21.370319 0
M  V30 36 C 4.259673 -4.827211 -20.615587 0
M  V30 37 C 4.146397 -4.673234 -19.184601 0
M  V30 38 C 4.482705 -3.503536 -18.622780 0
M  V30 39 C 4.941290 -2.370444 -19.433563 0
M  V30 40 C 3.826733 -1.027551 -16.769318 0
M  V30 41 C 3.682167 -0.687085 -15.410022 0
M  V30 42 H 5.285826 0.777445 -11.550841 0
M  V30 43 H 6.423318 -0.175764 -12.499126 0
M  V30 44 H 6.042793 1.505687 -12.969596 0
M  V30 45 H 6.932498 0.151011 -14.733397 0
M  V30 46 H 7.176121 -0.428580 -17.094574 0
M  V30 47 H 5.716439 0.679421 -22.863667 0
M  V30 48 H 5.966161 1.715695 -21.511709 0
M  V30 49 H 8.079668 -0.215282 -22.663189 0
M  V30 50 H 8.025273 1.498526 -22.961855 0
M  V30 51 H 8.406706 1.971787 -20.559105 0
M  V30 52 H 8.448453 0.261799 -20.201891 0
M  V30 53 H 10.396914 -0.067266 -21.662121 0
M  V30 54 H 10.451860 1.633730 -22.077433 0
M  V30 55 H 12.256800 -0.503933 -20.380060 0
M  V30 56 H 12.905331 1.002735 -21.015265 0
M  V30 57 H 12.709334 0.163267 -18.067421 0
M  V30 58 H 14.169030 0.334715 -19.006737 0
M  V30 59 H 13.755512 2.330388 -17.503254 0
M  V30 60 H 13.875092 2.747225 -19.194050 0
M  V30 61 H 12.041039 3.951552 -18.358488 0
M  V30 62 H 10.268565 0.444019 -17.469376 0
M  V30 63 H 9.334926 0.678277 -15.188581 0
M  V30 64 H 9.287922 2.620027 -13.065493 0
M  V30 65 H 10.158105 4.865388 -12.466556 0
M  V30 66 H 12.848606 8.029044 -14.263111 0
M  V30 67 H 13.462024 6.540518 -14.969689 0
M  V30 68 H 12.059802 7.367876 -15.689230 0
M  V30 69 H 12.125054 5.109559 -16.304176 0
M  V30 70 H 11.613671 3.151155 -20.541515 0
M  V30 71 H 10.106785 3.080775 -19.647274 0
M  V30 72 H 4.793120 -3.970555 -22.435026 0
M  V30 73 H 3.983096 -5.762605 -21.078524 0
M  V30 74 H 3.804827 -5.489735 -18.563643 0
M  V30 75 H 4.404298 -3.432040 -17.547621 0
M  V30 76 H 2.959648 -1.333434 -17.338873 0
M  V30 77 H 2.704830 -0.749112 -14.950723 0
M  V30 78 H 10.545157 0.731297 -19.297750 0
M  V30 END ATOM
M  V30 BEGIN BOND
M  V30 1 1 2 1
M  V30 2 1 3 2
M  V30 3 1 4 3
M  V30 4 2 5 4
M  V30 5 1 6 5
M  V30 6 1 7 6
M  V30 7 1 8 7
M  V30 8 2 9 8
M  V30 9 1 10 8
M  V30 10 1 11 10
M  V30 11 1 12 11
M  V30 12 1 13 12
M  V30 13 1 14 13
M  V30 14 1 15 14
M  V30 15 1 16 15
M  V30 16 1 17 16
M  V30 17 1 18 17
M  V30 18 1 19 18
M  V30 19 1 20 19
M  V30 20 2 21 20
M  V30 21 1 22 21
M  V30 22 1 23 22
M  V30 23 1 24 23
M  V30 24 2 25 24
M  V30 25 1 26 25
M  V30 26 1 27 26
M  V30 27 1 28 27
M  V30 28 2 29 26
M  V30 29 1 30 20
M  V30 30 2 30 23
M  V30 31 1 30 29
M  V30 32 1 31 15
M  V30 33 1 31 19
M  V30 34 1 32 10
M  V30 35 2 33 32
M  V30 36 1 34 32
M  V30 37 1 35 34
M  V30 38 2 36 35
M  V30 39 1 37 36
M  V30 40 2 38 37
M  V30 41 2 39 7
M  V30 42 1 39 34
M  V30 43 1 39 38
M  V30 44 2 40 6
M  V30 45 2 41 3
M  V30 46 1 41 40
M  V30 47 1 42 1
M  V30 48 1 43 1
M  V30 49 1 44 1
M  V30 50 1 45 4
M  V30 51 1 46 5
M  V30 52 1 47 11
M  V30 53 1 48 11
M  V30 54 1 49 12
M  V30 55 1 50 12
M  V30 56 1 51 13
M  V30 57 1 52 13
M  V30 58 1 53 14
M  V30 59 1 54 14
M  V30 60 1 55 16
M  V30 61 1 56 16
M  V30 62 1 57 17
M  V30 63 1 58 17
M  V30 64 1 59 18
M  V30 65 1 60 18
M  V30 66 1 19 61 CFG=1
M  V30 67 1 62 21
M  V30 68 1 63 22
M  V30 69 1 64 24
M  V30 70 1 65 25
M  V30 71 1 66 28
M  V30 72 1 67 28
M  V30 73 1 68 28
M  V30 74 1 69 29
M  V30 75 1 70 31
M  V30 76 1 71 31
M  V30 77 1 72 35
M  V30 78 1 73 36
M  V30 79 1 74 37
M  V30 80 1 75 38
M  V30 81 1 76 40
M  V30 82 1 77 41
M  V30 83 1 15 78 CFG=1
M  V30 END BOND
M  V30 END CTAB
M  END
>  <b_m_subgroup_collapsed>  (2561) 
0

>  <r_i_docking_score>  (2561) 
-5.3363699770959299

>  <s_m_subgroup_title>  (2561) 
glide-dock_SP_D22_pv

>  <s_m_subgroupid>  (2561) 
glide-dock_SP_D22_pv

>  <Molecule ChEMBL ID>  (2561) 
CHEMBL4570209

>  <Standard Type>  (2561) 
Ki

>  <Standard Value>  (2561) 
11160.0

>  <label>  (2561) 
0

$$$$
CHEMBL1259144
     RDKit          3D

  0  0  0  0  0  0  0  0  0  0999 V3000
M  V30 BEGIN CTAB
M  V30 COUNTS 55 58 0 0 1
M  V30 BEGIN ATOM
M  V30 1 C 15.285975 10.529130 -18.322641 0
M  V30 2 C 14.978231 9.076328 -18.647072 0
M  V30 3 O 15.884730 8.246353 -18.684439 0
M  V30 4 N 13.691006 8.775837 -18.852497 0
M  V30 5 C 13.176409 7.426904 -19.036617 0
M  V30 6 C 12.832827 6.703934 -17.739140 0
M  V30 7 C 12.785556 7.372344 -16.500383 0
M  V30 8 C 12.420588 6.670136 -15.343622 0
M  V30 9 C 12.070124 5.306889 -15.399891 0
M  V30 10 C 12.100772 4.606671 -16.645435 0
M  V30 11 C 12.522571 5.332184 -17.788465 0
M  V30 12 C 11.702694 3.130107 -16.897863 0 CFG=2
M  V30 13 N 10.787789 3.042585 -18.081095 0 CHG=1
M  V30 14 C 10.487165 1.677855 -18.580341 0
M  V30 15 C 9.843082 1.766224 -19.977808 0
M  V30 16 N 8.624410 2.577353 -19.917633 0
M  V30 17 C 8.028455 2.639055 -21.246679 0
M  V30 18 C 8.970911 3.931742 -19.479311 0
M  V30 19 C 9.550375 3.867332 -18.056257 0
M  V30 20 C 11.234174 2.250362 -15.705329 0
M  V30 21 C 9.999284 2.752062 -14.980025 0
M  V30 22 C 8.752591 2.105618 -15.128368 0
M  V30 23 C 7.611784 2.617995 -14.480656 0
M  V30 24 C 7.712881 3.772565 -13.678512 0
M  V30 25 C 8.962622 4.399310 -13.500895 0
M  V30 26 C 10.101035 3.876056 -14.143014 0
M  V30 27 S 11.684581 4.571413 -13.847631 0
M  V30 28 H 14.546771 10.945604 -17.637224 0
M  V30 29 H 16.266098 10.592714 -17.848866 0
M  V30 30 H 15.285618 11.124933 -19.235857 0
M  V30 31 H 13.010767 9.524943 -18.756035 0
M  V30 32 H 13.881002 6.823936 -19.614376 0
M  V30 33 H 12.268964 7.498321 -19.638447 0
M  V30 34 H 13.018717 8.423495 -16.417183 0
M  V30 35 H 12.405184 7.190124 -14.396362 0
M  V30 36 H 12.584353 4.841355 -18.748531 0
M  V30 37 H 12.631082 2.666272 -17.233797 0
M  V30 38 H 11.403048 1.089308 -18.635954 0
M  V30 39 H 9.809105 1.160235 -17.900217 0
M  V30 40 H 10.545081 2.191212 -20.697086 0
M  V30 41 H 9.595940 0.763262 -20.328897 0
M  V30 42 H 7.111014 3.229350 -21.228458 0
M  V30 43 H 8.708462 3.091986 -21.973186 0
M  V30 44 H 7.770725 1.638530 -21.600843 0
M  V30 45 H 9.686769 4.389148 -20.165169 0
M  V30 46 H 8.087066 4.568215 -19.485727 0
M  V30 47 H 8.810266 3.442939 -17.380667 0
M  V30 48 H 9.745232 4.881682 -17.707388 0
M  V30 49 H 12.049853 2.171825 -14.992297 0
M  V30 50 H 11.071545 1.219182 -16.018309 0
M  V30 51 H 8.660569 1.224874 -15.746590 0
M  V30 52 H 6.656436 2.127871 -14.601028 0
M  V30 53 H 6.838235 4.165254 -13.181524 0
M  V30 54 H 9.047608 5.264110 -12.859096 0
M  V30 55 H 11.332600 3.458290 -18.822088 0
M  V30 END ATOM
M  V30 BEGIN BOND
M  V30 1 1 2 1
M  V30 2 2 3 2
M  V30 3 1 4 2
M  V30 4 1 5 4
M  V30 5 1 6 5
M  V30 6 1 7 6
M  V30 7 2 8 7
M  V30 8 1 9 8
M  V30 9 2 10 9
M  V30 10 2 11 6
M  V30 11 1 11 10
M  V30 12 1 12 10
M  V30 13 1 13 12
M  V30 14 1 14 13
M  V30 15 1 15 14
M  V30 16 1 16 15
M  V30 17 1 17 16
M  V30 18 1 18 16
M  V30 19 1 19 13
M  V30 20 1 19 18
M  V30 21 1 20 12
M  V30 22 1 21 20
M  V30 23 2 22 21
M  V30 24 1 23 22
M  V30 25 2 24 23
M  V30 26 1 25 24
M  V30 27 1 26 21
M  V30 28 2 26 25
M  V30 29 1 27 9
M  V30 30 1 27 26
M  V30 31 1 28 1
M  V30 32 1 29 1
M  V30 33 1 30 1
M  V30 34 1 31 4
M  V30 35 1 32 5
M  V30 36 1 33 5
M  V30 37 1 34 7
M  V30 38 1 35 8
M  V30 39 1 36 11
M  V30 40 1 12 37 CFG=3
M  V30 41 1 38 14
M  V30 42 1 39 14
M  V30 43 1 40 15
M  V30 44 1 41 15
M  V30 45 1 42 17
M  V30 46 1 43 17
M  V30 47 1 44 17
M  V30 48 1 45 18
M  V30 49 1 46 18
M  V30 50 1 47 19
M  V30 51 1 48 19
M  V30 52 1 49 20
M  V30 53 1 50 20
M  V30 54 1 51 22
M  V30 55 1 52 23
M  V30 56 1 53 24
M  V30 57 1 54 25
M  V30 58 1 55 13
M  V30 END BOND
M  V30 END CTAB
M  END
>  <b_m_subgroup_collapsed>  (2562) 
0

>  <r_i_docking_score>  (2562) 
-5.3264296339544899

>  <s_m_subgroup_title>  (2562) 
glide-dock_SP_D22_pv

>  <s_m_subgroupid>  (2562) 
glide-dock_SP_D22_pv

>  <Molecule ChEMBL ID>  (2562) 
CHEMBL1259144

>  <Standard Type>  (2562) 
Ki

>  <Standard Value>  (2562) 
7.1

>  <label>  (2562) 
1

$$$$
CHEMBL443843
     RDKit          3D

  0  0  0  0  0  0  0  0  0  0999 V3000
M  V30 BEGIN CTAB
M  V30 COUNTS 46 49 0 0 1
M  V30 BEGIN ATOM
M  V30 1 C 4.885915 2.125650 -13.047652 0
M  V30 2 O 4.886149 3.544520 -13.047441 0
M  V30 3 C 6.101011 4.185198 -13.045516 0
M  V30 4 C 6.111053 5.534989 -12.666145 0
M  V30 5 C 7.307736 6.248508 -12.577321 0
M  V30 6 C 8.540261 5.597595 -12.733604 0
M  V30 7 C 8.557453 4.235304 -13.130559 0
M  V30 8 C 7.334184 3.566737 -13.359008 0
M  V30 9 C 9.845392 3.427403 -13.163103 0
M  V30 10 C 10.915137 3.947028 -14.132806 0
M  V30 11 C 10.956313 5.470561 -14.280756 0
M  V30 12 N 11.062776 6.156409 -12.961517 0 CFG=1 CHG=1
M  V30 13 C 11.927063 7.371244 -13.039948 0
M  V30 14 C 12.302677 8.026052 -11.680018 0
M  V30 15 C 11.142070 8.558318 -10.828215 0
M  V30 16 C 10.496459 7.442923 -10.044305 0
M  V30 17 C 10.541513 7.469070 -8.634038 0
M  V30 18 C 9.942528 6.438920 -7.888546 0
M  V30 19 C 9.315953 5.372853 -8.554753 0
M  V30 20 C 9.285252 5.337662 -9.958963 0
M  V30 21 C 9.866709 6.376826 -10.727370 0
M  V30 22 C 9.758817 6.394511 -12.264358 0 CFG=2
M  V30 23 H 3.858713 1.773099 -13.047494 0
M  V30 24 H 5.387224 1.726252 -12.163639 0
M  V30 25 H 5.354202 1.710018 -13.938917 0
M  V30 26 H 5.215575 6.062359 -12.420050 0
M  V30 27 H 7.264517 7.277245 -12.245832 0
M  V30 28 H 7.368590 2.527455 -13.648605 0
M  V30 29 H 10.232250 3.434550 -12.143665 0
M  V30 30 H 9.634059 2.381019 -13.388961 0
M  V30 31 H 11.891358 3.558274 -13.846881 0
M  V30 32 H 10.713759 3.526450 -15.118079 0
M  V30 33 H 11.812376 5.713827 -14.910970 0
M  V30 34 H 10.087277 5.797238 -14.847901 0
M  V30 35 H 12.868449 7.085266 -13.511864 0
M  V30 36 H 11.470873 8.089103 -13.722732 0
M  V30 37 H 12.885985 7.360813 -11.061308 0
M  V30 38 H 12.975774 8.859142 -11.886778 0
M  V30 39 H 11.504908 9.329255 -10.146013 0
M  V30 40 H 10.368917 9.010306 -11.438456 0
M  V30 41 H 11.026421 8.283326 -8.115214 0
M  V30 42 H 9.963502 6.466465 -6.808270 0
M  V30 43 H 8.847513 4.581775 -7.986388 0
M  V30 44 H 8.778266 4.508380 -10.425106 0
M  V30 45 H 9.479670 7.407463 -12.550251 0
M  V30 46 H 11.560634 5.502066 -12.377185 0
M  V30 END ATOM
M  V30 BEGIN BOND
M  V30 1 1 2 1
M  V30 2 1 3 2
M  V30 3 1 4 3
M  V30 4 2 5 4
M  V30 5 1 6 5
M  V30 6 2 7 6
M  V30 7 2 8 3
M  V30 8 1 8 7
M  V30 9 1 9 7
M  V30 10 1 10 9
M  V30 11 1 11 10
M  V30 12 1 12 11
M  V30 13 1 13 12
M  V30 14 1 14 13
M  V30 15 1 15 14
M  V30 16 1 16 15
M  V30 17 2 17 16
M  V30 18 1 18 17
M  V30 19 2 19 18
M  V30 20 1 20 19
M  V30 21 1 21 16
M  V30 22 2 21 20
M  V30 23 1 22 6
M  V30 24 1 22 12
M  V30 25 1 22 21
M  V30 26 1 23 1
M  V30 27 1 24 1
M  V30 28 1 25 1
M  V30 29 1 26 4
M  V30 30 1 27 5
M  V30 31 1 28 8
M  V30 32 1 29 9
M  V30 33 1 30 9
M  V30 34 1 31 10
M  V30 35 1 32 10
M  V30 36 1 33 11
M  V30 37 1 34 11
M  V30 38 1 35 13
M  V30 39 1 36 13
M  V30 40 1 37 14
M  V30 41 1 38 14
M  V30 42 1 39 15
M  V30 43 1 40 15
M  V30 44 1 41 17
M  V30 45 1 42 18
M  V30 46 1 43 19
M  V30 47 1 44 20
M  V30 48 1 22 45 CFG=3
M  V30 49 1 12 46 CFG=1
M  V30 END BOND
M  V30 END CTAB
M  END
>  <b_m_subgroup_collapsed>  (2563) 
0

>  <r_i_docking_score>  (2563) 
-5.3250300709147798

>  <s_m_subgroup_title>  (2563) 
glide-dock_SP_D22_pv

>  <s_m_subgroupid>  (2563) 
glide-dock_SP_D22_pv

>  <Molecule ChEMBL ID>  (2563) 
CHEMBL443843

>  <Standard Type>  (2563) 
Ki

>  <Standard Value>  (2563) 
10000.0

>  <label>  (2563) 
0

$$$$
CHEMBL201561
     RDKit          3D

  0  0  0  0  0  0  0  0  0  0999 V3000
M  V30 BEGIN CTAB
M  V30 COUNTS 41 43 0 0 1
M  V30 BEGIN ATOM
M  V30 1 C 9.923274 4.785147 -18.602758 0
M  V30 2 N 10.628384 4.338114 -17.376526 0 CFG=2 CHG=1
M  V30 3 C 12.099876 4.544388 -17.459099 0
M  V30 4 C 12.506124 6.016756 -17.237291 0
M  V30 5 C 11.961909 6.684711 -15.954136 0
M  V30 6 C 12.674131 6.324415 -14.633489 0
M  V30 7 C 12.403226 4.923177 -14.047198 0
M  V30 8 C 10.951303 4.577841 -13.912628 0
M  V30 9 N 10.140406 5.300417 -13.053578 0
M  V30 10 C 8.844891 4.836441 -13.081418 0
M  V30 11 C 7.679814 5.244193 -12.410160 0
M  V30 12 C 6.471155 4.570109 -12.651544 0
M  V30 13 C 6.440100 3.495944 -13.561909 0
M  V30 14 C 7.617013 3.093513 -14.231229 0
M  V30 15 C 8.848994 3.754355 -14.008723 0
M  V30 16 C 10.187504 3.605581 -14.523539 0
M  V30 17 C 10.639377 2.591883 -15.538389 0
M  V30 18 C 10.228298 2.962679 -16.980219 0
M  V30 19 H 10.210565 4.180561 -19.464914 0
M  V30 20 H 10.146242 5.827064 -18.831657 0
M  V30 21 H 8.841850 4.707694 -18.482149 0
M  V30 22 H 12.629171 3.929348 -16.736164 0
M  V30 23 H 12.464854 4.201611 -18.428352 0
M  V30 24 H 13.594469 6.095727 -17.249245 0
M  V30 25 H 12.173344 6.607427 -18.091270 0
M  V30 26 H 12.089929 7.760964 -16.085320 0
M  V30 27 H 10.886200 6.546435 -15.864080 0
M  V30 28 H 13.746300 6.478724 -14.743409 0
M  V30 29 H 12.357728 7.056247 -13.888252 0
M  V30 30 H 12.930724 4.167421 -14.623646 0
M  V30 31 H 12.863819 4.875442 -13.059520 0
M  V30 32 H 10.477137 6.067095 -12.490168 0
M  V30 33 H 7.705888 6.069736 -11.712540 0
M  V30 34 H 5.574391 4.880776 -12.132732 0
M  V30 35 H 5.510589 2.979427 -13.748670 0
M  V30 36 H 7.576039 2.264441 -14.921427 0
M  V30 37 H 11.711639 2.413022 -15.468612 0
M  V30 38 H 10.191983 1.626374 -15.295765 0
M  V30 39 H 9.141152 2.887843 -17.046965 0
M  V30 40 H 10.623470 2.231638 -17.687841 0
M  V30 41 H 10.308313 4.928535 -16.621075 0
M  V30 END ATOM
M  V30 BEGIN BOND
M  V30 1 1 2 1
M  V30 2 1 3 2
M  V30 3 1 4 3
M  V30 4 1 5 4
M  V30 5 1 6 5
M  V30 6 1 7 6
M  V30 7 1 8 7
M  V30 8 1 9 8
M  V30 9 1 10 9
M  V30 10 2 11 10
M  V30 11 1 12 11
M  V30 12 2 13 12
M  V30 13 1 14 13
M  V30 14 1 15 10
M  V30 15 2 15 14
M  V30 16 2 16 8
M  V30 17 1 16 15
M  V30 18 1 17 16
M  V30 19 1 18 2
M  V30 20 1 18 17
M  V30 21 1 19 1
M  V30 22 1 20 1
M  V30 23 1 21 1
M  V30 24 1 22 3
M  V30 25 1 23 3
M  V30 26 1 24 4
M  V30 27 1 25 4
M  V30 28 1 26 5
M  V30 29 1 27 5
M  V30 30 1 28 6
M  V30 31 1 29 6
M  V30 32 1 30 7
M  V30 33 1 31 7
M  V30 34 1 32 9
M  V30 35 1 33 11
M  V30 36 1 34 12
M  V30 37 1 35 13
M  V30 38 1 36 14
M  V30 39 1 37 17
M  V30 40 1 38 17
M  V30 41 1 39 18
M  V30 42 1 40 18
M  V30 43 1 2 41 CFG=1
M  V30 END BOND
M  V30 END CTAB
M  END
>  <b_m_subgroup_collapsed>  (2564) 
0

>  <r_i_docking_score>  (2564) 
-5.3206436364611296

>  <s_m_subgroup_title>  (2564) 
glide-dock_SP_D22_pv

>  <s_m_subgroupid>  (2564) 
glide-dock_SP_D22_pv

>  <Molecule ChEMBL ID>  (2564) 
CHEMBL201561

>  <Standard Type>  (2564) 
Ki

>  <Standard Value>  (2564) 
10000.0

>  <label>  (2564) 
0

$$$$
CHEMBL5273758
     RDKit          3D

  0  0  0  0  0  0  0  0  0  0999 V3000
M  V30 BEGIN CTAB
M  V30 COUNTS 43 46 0 0 1
M  V30 BEGIN ATOM
M  V30 1 C 11.235380 1.792192 -16.059963 0
M  V30 2 N 10.553747 1.509765 -14.774026 0 CFG=2 CHG=1
M  V30 3 C 9.579153 0.384608 -14.853814 0
M  V30 4 C 8.277371 0.748039 -15.610086 0
M  V30 5 C 7.640819 2.105219 -15.215655 0 CFG=1
M  V30 6 C 6.486036 2.083712 -14.235199 0
M  V30 7 C 6.189610 3.116940 -13.419898 0
M  V30 8 O 5.099289 3.004676 -12.647986 0
M  V30 9 C 7.069773 4.283870 -13.307771 0
M  V30 10 O 6.749905 5.311562 -12.503036 0
M  V30 11 C 8.281447 4.247112 -13.908524 0
M  V30 12 C 9.565734 5.032848 -13.621017 0 CFG=1
M  V30 13 C 9.754465 5.702634 -12.255600 0
M  V30 14 C 10.464512 6.921401 -12.169645 0
M  V30 15 C 10.639061 7.563302 -10.926710 0
M  V30 16 C 10.116470 6.984971 -9.753577 0
M  V30 17 C 9.441917 5.753142 -9.822324 0
M  V30 18 C 9.282416 5.107757 -11.062941 0
M  V30 19 C 10.684707 3.974934 -13.873073 0
M  V30 20 C 9.907284 2.662499 -14.105012 0 CFG=1
M  V30 21 C 8.696444 3.157102 -14.854720 0 CFG=1
M  V30 22 H 10.547854 2.180655 -16.811216 0
M  V30 23 H 11.682270 0.879736 -16.455439 0
M  V30 24 H 12.045407 2.507829 -15.928856 0
M  V30 25 H 10.050138 -0.492655 -15.300529 0
M  V30 26 H 9.308037 0.096656 -13.842822 0
M  V30 27 H 8.516925 0.789521 -16.673328 0
M  V30 28 H 7.549553 -0.059298 -15.510768 0
M  V30 29 H 7.141210 2.459588 -16.118208 0
M  V30 30 H 5.833123 1.223736 -14.273597 0
M  V30 31 H 5.039444 3.768121 -12.098456 0
M  V30 32 H 6.089139 5.044020 -11.884238 0
M  V30 33 H 9.638908 5.773269 -14.412352 0
M  V30 34 H 10.883558 7.377814 -13.052615 0
M  V30 35 H 11.172991 8.501307 -10.871079 0
M  V30 36 H 10.234631 7.484650 -8.804002 0
M  V30 37 H 9.039434 5.306807 -8.923120 0
M  V30 38 H 8.759820 4.168472 -11.094155 0
M  V30 39 H 11.258657 4.266547 -14.753592 0
M  V30 40 H 11.384450 3.893898 -13.046974 0
M  V30 41 H 9.589286 2.306354 -13.123623 0
M  V30 42 H 9.011752 3.632858 -15.787817 0
M  V30 43 H 11.278762 1.201393 -14.141159 0
M  V30 END ATOM
M  V30 BEGIN BOND
M  V30 1 1 2 1
M  V30 2 1 3 2
M  V30 3 1 4 3
M  V30 4 1 5 4
M  V30 5 1 6 5
M  V30 6 2 7 6
M  V30 7 1 8 7
M  V30 8 1 9 7
M  V30 9 1 10 9
M  V30 10 2 11 9
M  V30 11 1 12 11
M  V30 12 1 13 12
M  V30 13 2 14 13
M  V30 14 1 15 14
M  V30 15 2 16 15
M  V30 16 1 17 16
M  V30 17 1 18 13
M  V30 18 2 18 17
M  V30 19 1 19 12
M  V30 20 1 20 2
M  V30 21 1 20 19
M  V30 22 1 21 5
M  V30 23 1 21 11
M  V30 24 1 21 20
M  V30 25 1 22 1
M  V30 26 1 23 1
M  V30 27 1 24 1
M  V30 28 1 25 3
M  V30 29 1 26 3
M  V30 30 1 27 4
M  V30 31 1 28 4
M  V30 32 1 5 29 CFG=3
M  V30 33 1 30 6
M  V30 34 1 31 8
M  V30 35 1 32 10
M  V30 36 1 12 33 CFG=3
M  V30 37 1 34 14
M  V30 38 1 35 15
M  V30 39 1 36 16
M  V30 40 1 37 17
M  V30 41 1 38 18
M  V30 42 1 39 19
M  V30 43 1 40 19
M  V30 44 1 20 41 CFG=1
M  V30 45 1 21 42 CFG=3
M  V30 46 1 2 43 CFG=1
M  V30 END BOND
M  V30 END CTAB
M  END
>  <b_m_subgroup_collapsed>  (2565) 
0

>  <r_i_docking_score>  (2565) 
-5.31605789096698

>  <s_m_subgroup_title>  (2565) 
glide-dock_SP_D22_pv

>  <s_m_subgroupid>  (2565) 
glide-dock_SP_D22_pv

>  <Molecule ChEMBL ID>  (2565) 
CHEMBL5273758

>  <Standard Type>  (2565) 
Ki

>  <Standard Value>  (2565) 
12.88

>  <label>  (2565) 
1

$$$$
CHEMBL379662
     RDKit          3D

  0  0  0  0  0  0  0  0  0  0999 V3000
M  V30 BEGIN CTAB
M  V30 COUNTS 45 47 0 0 1
M  V30 BEGIN ATOM
M  V30 1 C 5.228735 3.101760 -12.972136 0
M  V30 2 O 6.478954 2.758171 -13.550260 0
M  V30 3 C 7.526215 3.652930 -13.471199 0
M  V30 4 C 7.354910 4.970000 -12.982985 0
M  V30 5 C 8.448705 5.836829 -12.877001 0
M  V30 6 C 9.728050 5.392180 -13.241554 0
M  V30 7 C 9.931905 4.090408 -13.739915 0
M  V30 8 C 8.819136 3.207865 -13.876472 0
M  V30 9 C 8.972431 1.769472 -14.404279 0
M  V30 10 C 8.639124 1.596814 -15.891184 0
M  V30 11 C 7.278115 1.443204 -16.242119 0
M  V30 12 C 6.875226 1.286372 -17.578676 0
M  V30 13 C 7.838203 1.270546 -18.599236 0
M  V30 14 C 9.199149 1.395942 -18.269598 0
M  V30 15 C 9.617839 1.552122 -16.928465 0
M  V30 16 C 11.120653 1.609264 -16.680328 0
M  V30 17 C 11.841935 2.870086 -17.211128 0
M  V30 18 N 11.500809 4.179519 -16.588648 0 CFG=1 CHG=1
M  V30 19 C 10.149857 4.718922 -16.871534 0
M  V30 20 C 12.043854 4.437032 -15.228332 0
M  V30 21 C 11.377236 3.710675 -14.040743 0
M  V30 22 H 4.534752 2.273226 -13.113251 0
M  V30 23 H 4.790433 3.979419 -13.446946 0
M  V30 24 H 5.316129 3.275063 -11.898854 0
M  V30 25 H 6.391054 5.344743 -12.673805 0
M  V30 26 H 8.305386 6.840964 -12.503454 0
M  V30 27 H 10.563228 6.067352 -13.128445 0
M  V30 28 H 9.928939 1.331866 -14.146159 0
M  V30 29 H 8.287265 1.130435 -13.846243 0
M  V30 30 H 6.515462 1.426117 -15.480170 0
M  V30 31 H 5.827704 1.166204 -17.814631 0
M  V30 32 H 7.537453 1.134599 -19.628025 0
M  V30 33 H 9.932103 1.347722 -19.062437 0
M  V30 34 H 11.391706 1.378848 -15.661353 0
M  V30 35 H 11.537689 0.762166 -17.229033 0
M  V30 36 H 12.917893 2.717067 -17.105564 0
M  V30 37 H 11.668062 2.953835 -18.284262 0
M  V30 38 H 9.359457 4.175910 -16.362125 0
M  V30 39 H 9.942451 4.680511 -17.941174 0
M  V30 40 H 10.090342 5.762803 -16.562565 0
M  V30 41 H 13.105263 4.180564 -15.233313 0
M  V30 42 H 12.011665 5.511772 -15.046944 0
M  V30 43 H 11.938025 4.038195 -13.164963 0
M  V30 44 H 11.549247 2.644801 -14.056228 0
M  V30 45 H 12.076873 4.801907 -17.135929 0
M  V30 END ATOM
M  V30 BEGIN BOND
M  V30 1 1 2 1
M  V30 2 1 3 2
M  V30 3 2 4 3
M  V30 4 1 5 4
M  V30 5 2 6 5
M  V30 6 1 7 6
M  V30 7 1 8 3
M  V30 8 2 8 7
M  V30 9 1 9 8
M  V30 10 1 10 9
M  V30 11 2 11 10
M  V30 12 1 12 11
M  V30 13 2 13 12
M  V30 14 1 14 13
M  V30 15 1 15 10
M  V30 16 2 15 14
M  V30 17 1 16 15
M  V30 18 1 17 16
M  V30 19 1 18 17
M  V30 20 1 19 18
M  V30 21 1 20 18
M  V30 22 1 21 7
M  V30 23 1 21 20
M  V30 24 1 22 1
M  V30 25 1 23 1
M  V30 26 1 24 1
M  V30 27 1 25 4
M  V30 28 1 26 5
M  V30 29 1 27 6
M  V30 30 1 28 9
M  V30 31 1 29 9
M  V30 32 1 30 11
M  V30 33 1 31 12
M  V30 34 1 32 13
M  V30 35 1 33 14
M  V30 36 1 34 16
M  V30 37 1 35 16
M  V30 38 1 36 17
M  V30 39 1 37 17
M  V30 40 1 38 19
M  V30 41 1 39 19
M  V30 42 1 40 19
M  V30 43 1 41 20
M  V30 44 1 42 20
M  V30 45 1 43 21
M  V30 46 1 44 21
M  V30 47 1 18 45 CFG=3
M  V30 END BOND
M  V30 END CTAB
M  END
>  <b_m_subgroup_collapsed>  (2566) 
0

>  <r_i_docking_score>  (2566) 
-5.31512993328134

>  <s_m_subgroup_title>  (2566) 
glide-dock_SP_D22_pv

>  <s_m_subgroupid>  (2566) 
glide-dock_SP_D22_pv

>  <Molecule ChEMBL ID>  (2566) 
CHEMBL379662

>  <Standard Type>  (2566) 
Ki

>  <Standard Value>  (2566) 
39.9

>  <label>  (2566) 
1

$$$$
CHEMBL28437
     RDKit          3D

  0  0  0  0  0  0  0  0  0  0999 V3000
M  V30 BEGIN CTAB
M  V30 COUNTS 50 51 0 0 1
M  V30 BEGIN ATOM
M  V30 1 C 5.755530 4.009288 -12.570872 0
M  V30 2 C 6.520060 5.181640 -11.943999 0
M  V30 3 C 7.687203 4.712863 -11.054483 0
M  V30 4 N 8.485913 5.858469 -10.513012 0 CHG=1
M  V30 5 C 8.651464 5.713305 -9.030685 0
M  V30 6 C 9.147643 6.975180 -8.302291 0
M  V30 7 C 8.879345 6.942169 -6.802705 0
M  V30 8 C 9.779840 6.121663 -11.229591 0 CFG=2
M  V30 9 C 10.236795 7.598634 -11.242890 0
M  V30 10 C 11.725738 7.621924 -11.599028 0
M  V30 11 C 11.919506 7.105154 -13.012108 0
M  V30 12 C 12.885959 7.688434 -13.856308 0
M  V30 13 C 13.018944 7.245411 -15.186939 0
M  V30 14 C 12.185828 6.225548 -15.678709 0
M  V30 15 C 11.205978 5.651817 -14.845646 0
M  V30 16 O 10.302698 4.765476 -15.368348 0
M  V30 17 S 10.799326 3.164383 -15.549481 0
M  V30 18 O 11.645383 3.098935 -16.751768 0
M  V30 19 O 11.285788 2.698227 -14.243303 0
M  V30 20 C 9.154238 2.403118 -15.887554 0
M  V30 21 F 9.228594 1.098075 -15.631701 0
M  V30 22 F 8.248964 2.958818 -15.080945 0
M  V30 23 F 8.831245 2.599283 -17.165539 0
M  V30 24 C 11.073020 6.083895 -13.504877 0
M  V30 25 C 9.916655 5.539018 -12.668673 0
M  V30 26 H 4.942419 4.367240 -13.203050 0
M  V30 27 H 6.409747 3.394257 -13.188985 0
M  V30 28 H 5.318014 3.371868 -11.801976 0
M  V30 29 H 5.822872 5.772782 -11.351986 0
M  V30 30 H 6.873315 5.843539 -12.734530 0
M  V30 31 H 8.297218 3.984730 -11.579828 0
M  V30 32 H 7.286052 4.098951 -10.251798 0
M  V30 33 H 7.686058 5.468234 -8.597609 0
M  V30 34 H 9.298995 4.865203 -8.800672 0
M  V30 35 H 10.218760 7.108888 -8.446268 0
M  V30 36 H 8.633172 7.850936 -8.701231 0
M  V30 37 H 9.116954 7.899438 -6.337429 0
M  V30 38 H 7.818055 6.749217 -6.646131 0
M  V30 39 H 9.458190 6.172169 -6.297486 0
M  V30 40 H 10.485993 5.572443 -10.621665 0
M  V30 41 H 10.111434 8.123753 -10.306099 0
M  V30 42 H 9.656107 8.171669 -11.968247 0
M  V30 43 H 12.285290 6.974638 -10.922597 0
M  V30 44 H 12.146425 8.615695 -11.446815 0
M  V30 45 H 13.523596 8.474908 -13.481939 0
M  V30 46 H 13.755394 7.696376 -15.836812 0
M  V30 47 H 12.273036 5.911067 -16.709049 0
M  V30 48 H 9.015877 5.745454 -13.244217 0
M  V30 49 H 10.049020 4.457768 -12.633075 0
M  V30 50 H 7.881976 6.672247 -10.630895 0
M  V30 END ATOM
M  V30 BEGIN BOND
M  V30 1 1 2 1
M  V30 2 1 3 2
M  V30 3 1 4 3
M  V30 4 1 5 4
M  V30 5 1 6 5
M  V30 6 1 7 6
M  V30 7 1 8 4
M  V30 8 1 9 8
M  V30 9 1 10 9
M  V30 10 1 11 10
M  V30 11 1 12 11
M  V30 12 2 13 12
M  V30 13 1 14 13
M  V30 14 2 15 14
M  V30 15 1 16 15
M  V30 16 1 17 16
M  V30 17 2 18 17
M  V30 18 2 19 17
M  V30 19 1 20 17
M  V30 20 1 21 20
M  V30 21 1 22 20
M  V30 22 1 23 20
M  V30 23 2 24 11
M  V30 24 1 24 15
M  V30 25 1 25 8
M  V30 26 1 25 24
M  V30 27 1 26 1
M  V30 28 1 27 1
M  V30 29 1 28 1
M  V30 30 1 29 2
M  V30 31 1 30 2
M  V30 32 1 31 3
M  V30 33 1 32 3
M  V30 34 1 33 5
M  V30 35 1 34 5
M  V30 36 1 35 6
M  V30 37 1 36 6
M  V30 38 1 37 7
M  V30 39 1 38 7
M  V30 40 1 39 7
M  V30 41 1 8 40 CFG=1
M  V30 42 1 41 9
M  V30 43 1 42 9
M  V30 44 1 43 10
M  V30 45 1 44 10
M  V30 46 1 45 12
M  V30 47 1 46 13
M  V30 48 1 47 14
M  V30 49 1 48 25
M  V30 50 1 49 25
M  V30 51 1 50 4
M  V30 END BOND
M  V30 END CTAB
M  END
>  <b_m_subgroup_collapsed>  (2567) 
0

>  <r_i_docking_score>  (2567) 
-5.3131395692062497

>  <s_m_subgroup_title>  (2567) 
glide-dock_SP_D22_pv

>  <s_m_subgroupid>  (2567) 
glide-dock_SP_D22_pv

>  <Molecule ChEMBL ID>  (2567) 
CHEMBL28437

>  <Standard Type>  (2567) 
Ki

>  <Standard Value>  (2567) 
62.0

>  <label>  (2567) 
1

$$$$
CHEMBL300647
     RDKit          3D

  0  0  0  0  0  0  0  0  0  0999 V3000
M  V30 BEGIN CTAB
M  V30 COUNTS 47 50 0 0 1
M  V30 BEGIN ATOM
M  V30 1 C 12.425852 4.522523 -17.635031 0
M  V30 2 N 12.847845 4.185822 -16.252077 0 CHG=1
M  V30 3 C 13.658943 5.270185 -15.652222 0
M  V30 4 C 11.752530 3.717867 -15.349172 0 CFG=1
M  V30 5 C 10.581038 4.689663 -15.283267 0
M  V30 6 C 9.289109 4.313989 -15.343115 0
M  V30 7 C 8.787033 2.861843 -15.480846 0 CFG=1
M  V30 8 C 9.959640 1.960079 -14.976179 0
M  V30 9 C 11.281393 2.291938 -15.695248 0
M  V30 10 C 7.529441 2.645459 -14.580896 0
M  V30 11 C 7.081128 3.677813 -13.700230 0
M  V30 12 C 5.979320 3.514406 -12.844525 0
M  V30 13 C 5.290949 2.296831 -12.820965 0
M  V30 14 C 5.728696 1.246827 -13.643771 0
M  V30 15 C 6.832981 1.403661 -14.514776 0
M  V30 16 C 7.132778 0.226951 -15.331243 0
M  V30 17 C 7.653672 0.172429 -16.563980 0
M  V30 18 C 8.083015 1.266197 -17.434530 0
M  V30 19 C 8.007352 0.980291 -18.817467 0
M  V30 20 C 8.415608 1.913597 -19.781172 0
M  V30 21 C 8.885947 3.164549 -19.365160 0
M  V30 22 Cl 9.409904 4.327621 -20.524664 0
M  V30 23 C 8.923127 3.474625 -17.995239 0
M  V30 24 C 8.539761 2.540185 -16.987841 0
M  V30 25 H 11.751445 5.379929 -17.654305 0
M  V30 26 H 13.294099 4.773686 -18.244236 0
M  V30 27 H 11.927899 3.690258 -18.127686 0
M  V30 28 H 13.089580 6.190993 -15.544465 0
M  V30 29 H 14.021597 4.973197 -14.669692 0
M  V30 30 H 14.531309 5.484974 -16.268635 0
M  V30 31 H 12.148049 3.677182 -14.332419 0
M  V30 32 H 10.810362 5.742537 -15.197980 0
M  V30 33 H 8.558213 5.107717 -15.349617 0
M  V30 34 H 10.098746 2.098981 -13.902794 0
M  V30 35 H 9.748918 0.900423 -15.098613 0
M  V30 36 H 11.142796 2.163178 -16.767830 0
M  V30 37 H 12.053661 1.573285 -15.446754 0
M  V30 38 H 7.569939 4.633402 -13.615375 0
M  V30 39 H 5.677072 4.316972 -12.187303 0
M  V30 40 H 4.460867 2.170612 -12.150723 0
M  V30 41 H 5.193761 0.307126 -13.612052 0
M  V30 42 H 6.907007 -0.721480 -14.864931 0
M  V30 43 H 7.796677 -0.818526 -16.971180 0
M  V30 44 H 7.644005 0.018857 -19.150955 0
M  V30 45 H 8.371511 1.670177 -20.833527 0
M  V30 46 H 9.291701 4.459675 -17.758179 0
M  V30 47 H 13.481467 3.400520 -16.330276 0
M  V30 END ATOM
M  V30 BEGIN BOND
M  V30 1 1 2 1
M  V30 2 1 3 2
M  V30 3 1 4 2
M  V30 4 1 5 4
M  V30 5 2 6 5
M  V30 6 1 7 6
M  V30 7 1 7 8 CFG=1
M  V30 8 1 9 4
M  V30 9 1 9 8
M  V30 10 1 10 7
M  V30 11 2 11 10
M  V30 12 1 12 11
M  V30 13 2 13 12
M  V30 14 1 14 13
M  V30 15 1 15 10
M  V30 16 2 15 14
M  V30 17 1 16 15
M  V30 18 2 17 16
M  V30 19 1 18 17
M  V30 20 1 19 18
M  V30 21 2 20 19
M  V30 22 1 21 20
M  V30 23 1 22 21
M  V30 24 2 23 21
M  V30 25 1 24 7
M  V30 26 2 24 18
M  V30 27 1 24 23
M  V30 28 1 25 1
M  V30 29 1 26 1
M  V30 30 1 27 1
M  V30 31 1 28 3
M  V30 32 1 29 3
M  V30 33 1 30 3
M  V30 34 1 4 31 CFG=1
M  V30 35 1 32 5
M  V30 36 1 33 6
M  V30 37 1 34 8
M  V30 38 1 35 8
M  V30 39 1 36 9
M  V30 40 1 37 9
M  V30 41 1 38 11
M  V30 42 1 39 12
M  V30 43 1 40 13
M  V30 44 1 41 14
M  V30 45 1 42 16
M  V30 46 1 43 17
M  V30 47 1 44 19
M  V30 48 1 45 20
M  V30 49 1 46 23
M  V30 50 1 47 2
M  V30 END BOND
M  V30 END CTAB
M  END
>  <b_m_subgroup_collapsed>  (2568) 
0

>  <r_i_docking_score>  (2568) 
-5.3066977305665102

>  <s_m_subgroup_title>  (2568) 
glide-dock_SP_D22_pv

>  <s_m_subgroupid>  (2568) 
glide-dock_SP_D22_pv

>  <Molecule ChEMBL ID>  (2568) 
CHEMBL300647

>  <Standard Type>  (2568) 
Ki

>  <Standard Value>  (2568) 
0.66

>  <label>  (2568) 
1

$$$$
CHEMBL5273758
     RDKit          3D

  0  0  0  0  0  0  0  0  0  0999 V3000
M  V30 BEGIN CTAB
M  V30 COUNTS 43 46 0 0 1
M  V30 BEGIN ATOM
M  V30 1 C 12.588726 4.572943 -17.840939 0
M  V30 2 N 11.677673 3.509310 -17.352058 0 CFG=1 CHG=1
M  V30 3 C 11.811100 2.283380 -18.177029 0
M  V30 4 C 10.717778 1.269907 -17.827896 0
M  V30 5 C 10.808259 0.828974 -16.359930 0 CFG=2
M  V30 6 C 9.579298 0.011464 -15.991524 0
M  V30 7 C 8.500908 0.538460 -15.373699 0
M  V30 8 O 7.432545 -0.227617 -15.128690 0
M  V30 9 C 8.476144 1.949959 -15.016574 0
M  V30 10 O 7.326507 2.532333 -14.646450 0
M  V30 11 C 9.623430 2.654344 -15.042743 0
M  V30 12 C 9.805960 4.131924 -14.808673 0 CFG=1
M  V30 13 C 9.301752 4.645059 -13.473060 0
M  V30 14 C 8.438142 5.749322 -13.446960 0
M  V30 15 C 8.014485 6.302941 -12.232413 0
M  V30 16 C 8.453910 5.743878 -11.018753 0
M  V30 17 C 9.285607 4.611561 -11.030190 0
M  V30 18 C 9.686594 4.051061 -12.256984 0
M  V30 19 C 11.315320 4.375337 -15.010362 0
M  V30 20 C 11.833550 3.219959 -15.896230 0 CFG=1
M  V30 21 C 10.950994 2.046370 -15.417393 0 CFG=2
M  V30 22 H 13.633265 4.288252 -17.694597 0
M  V30 23 H 12.423588 5.525726 -17.339766 0
M  V30 24 H 12.436841 4.750742 -18.907887 0
M  V30 25 H 11.728466 2.539446 -19.234352 0
M  V30 26 H 12.799189 1.842513 -18.033165 0
M  V30 27 H 9.740450 1.713143 -18.027048 0
M  V30 28 H 10.796514 0.399319 -18.480505 0
M  V30 29 H 11.685873 0.195437 -16.242723 0
M  V30 30 H 9.590000 -1.027361 -16.281834 0
M  V30 31 H 7.638421 -1.120777 -15.395131 0
M  V30 32 H 7.538546 3.375028 -14.274093 0
M  V30 33 H 9.273156 4.637465 -15.615188 0
M  V30 34 H 8.102708 6.172359 -14.374349 0
M  V30 35 H 7.351591 7.157493 -12.232379 0
M  V30 36 H 8.126740 6.171838 -10.081635 0
M  V30 37 H 9.608540 4.172381 -10.098610 0
M  V30 38 H 10.313151 3.173968 -12.262655 0
M  V30 39 H 11.527553 5.380682 -15.371182 0
M  V30 40 H 11.823945 4.292961 -14.048118 0
M  V30 41 H 12.886012 3.013515 -15.704053 0
M  V30 42 H 11.351875 1.692388 -14.466022 0
M  V30 43 H 10.732993 3.844197 -17.485258 0
M  V30 END ATOM
M  V30 BEGIN BOND
M  V30 1 1 2 1
M  V30 2 1 3 2
M  V30 3 1 4 3
M  V30 4 1 5 4
M  V30 5 1 6 5
M  V30 6 2 7 6
M  V30 7 1 8 7
M  V30 8 1 9 7
M  V30 9 1 10 9
M  V30 10 2 11 9
M  V30 11 1 12 11
M  V30 12 1 13 12
M  V30 13 2 14 13
M  V30 14 1 15 14
M  V30 15 2 16 15
M  V30 16 1 17 16
M  V30 17 1 18 13
M  V30 18 2 18 17
M  V30 19 1 19 12
M  V30 20 1 20 2
M  V30 21 1 20 19
M  V30 22 1 21 5
M  V30 23 1 21 11
M  V30 24 1 21 20
M  V30 25 1 22 1
M  V30 26 1 23 1
M  V30 27 1 24 1
M  V30 28 1 25 3
M  V30 29 1 26 3
M  V30 30 1 27 4
M  V30 31 1 28 4
M  V30 32 1 5 29 CFG=3
M  V30 33 1 30 6
M  V30 34 1 31 8
M  V30 35 1 32 10
M  V30 36 1 12 33 CFG=3
M  V30 37 1 34 14
M  V30 38 1 35 15
M  V30 39 1 36 16
M  V30 40 1 37 17
M  V30 41 1 38 18
M  V30 42 1 39 19
M  V30 43 1 40 19
M  V30 44 1 20 41 CFG=3
M  V30 45 1 21 42 CFG=1
M  V30 46 1 2 43 CFG=1
M  V30 END BOND
M  V30 END CTAB
M  END
>  <b_m_subgroup_collapsed>  (2569) 
0

>  <r_i_docking_score>  (2569) 
-5.3059711706464601

>  <s_m_subgroup_title>  (2569) 
glide-dock_SP_D22_pv

>  <s_m_subgroupid>  (2569) 
glide-dock_SP_D22_pv

>  <Molecule ChEMBL ID>  (2569) 
CHEMBL5273758

>  <Standard Type>  (2569) 
Ki

>  <Standard Value>  (2569) 
12.88

>  <label>  (2569) 
1

$$$$
CHEMBL542646
     RDKit          3D

  0  0  0  0  0  0  0  0  0  0999 V3000
M  V30 BEGIN CTAB
M  V30 COUNTS 43 46 0 0 1
M  V30 BEGIN ATOM
M  V30 1 C 11.794394 9.849840 -6.900077 0
M  V30 2 N 11.447366 8.464628 -6.560939 0 CFG=1 CHG=1
M  V30 3 C 10.037269 8.173758 -6.280676 0 CFG=2
M  V30 4 C 10.086025 6.671027 -5.976966 0
M  V30 5 C 11.290293 6.167396 -6.805008 0
M  V30 6 C 11.818526 7.412500 -7.520236 0 CFG=1
M  V30 7 C 11.137112 7.637292 -8.872230 0
M  V30 8 C 9.592022 7.785501 -8.780021 0 CFG=1
M  V30 9 C 9.105173 8.582870 -9.986491 0
M  V30 10 C 9.286022 7.738954 -11.229430 0
M  V30 11 O 9.630491 8.309711 -12.246865 0
M  V30 12 C 9.080185 6.282323 -11.129491 0
M  V30 13 C 8.999938 5.413836 -12.313848 0
M  V30 14 C 10.085964 5.350219 -13.213851 0
M  V30 15 C 10.028921 4.493558 -14.329423 0
M  V30 16 C 8.886021 3.701627 -14.549500 0
M  V30 17 C 7.796377 3.772325 -13.658857 0
M  V30 18 C 7.854178 4.620955 -12.536338 0
M  V30 19 C 8.880919 5.779181 -9.894013 0
M  V30 20 O 8.988610 6.486397 -8.719076 0
M  V30 21 C 9.148371 8.510446 -7.494607 0
M  V30 22 H 11.286023 10.172324 -7.805810 0
M  V30 23 H 11.523112 10.528311 -6.090582 0
M  V30 24 H 12.872569 9.903107 -7.046779 0
M  V30 25 H 9.706880 8.768328 -5.446865 0
M  V30 26 H 9.150084 6.172324 -6.229682 0
M  V30 27 H 10.268842 6.498392 -4.915873 0
M  V30 28 H 11.021122 5.372324 -7.500504 0
M  V30 29 H 12.056816 5.772324 -6.137321 0
M  V30 30 H 12.885659 7.372324 -7.733994 0
M  V30 31 H 11.404304 6.823941 -9.546298 0
M  V30 32 H 11.575759 8.524591 -9.330526 0
M  V30 33 H 9.709945 9.481194 -10.088352 0
M  V30 34 H 8.086023 8.948038 -9.887130 0
M  V30 35 H 10.967941 5.951708 -13.047664 0
M  V30 36 H 10.862301 4.442745 -15.014666 0
M  V30 37 H 8.843170 3.042607 -15.404187 0
M  V30 38 H 6.918749 3.166604 -13.830392 0
M  V30 39 H 7.018785 4.665371 -11.851235 0
M  V30 40 H 8.672817 4.736264 -9.703914 0
M  V30 41 H 9.156244 9.584448 -7.665104 0
M  V30 42 H 8.106848 8.269559 -7.272693 0
M  V30 43 H 11.946958 8.255905 -5.708285 0
M  V30 END ATOM
M  V30 BEGIN BOND
M  V30 1 1 2 1
M  V30 2 1 3 2
M  V30 3 1 4 3
M  V30 4 1 5 4
M  V30 5 1 6 2
M  V30 6 1 6 5
M  V30 7 1 7 6
M  V30 8 1 8 7
M  V30 9 1 9 8
M  V30 10 1 10 9
M  V30 11 2 11 10
M  V30 12 1 12 10
M  V30 13 1 13 12
M  V30 14 2 14 13
M  V30 15 1 15 14
M  V30 16 2 16 15
M  V30 17 1 17 16
M  V30 18 1 18 13
M  V30 19 2 18 17
M  V30 20 2 19 12
M  V30 21 1 8 20 CFG=3
M  V30 22 1 20 19
M  V30 23 1 21 3
M  V30 24 1 21 8
M  V30 25 1 22 1
M  V30 26 1 23 1
M  V30 27 1 24 1
M  V30 28 1 3 25 CFG=1
M  V30 29 1 26 4
M  V30 30 1 27 4
M  V30 31 1 28 5
M  V30 32 1 29 5
M  V30 33 1 6 30 CFG=3
M  V30 34 1 31 7
M  V30 35 1 32 7
M  V30 36 1 33 9
M  V30 37 1 34 9
M  V30 38 1 35 14
M  V30 39 1 36 15
M  V30 40 1 37 16
M  V30 41 1 38 17
M  V30 42 1 39 18
M  V30 43 1 40 19
M  V30 44 1 41 21
M  V30 45 1 42 21
M  V30 46 1 2 43 CFG=1
M  V30 END BOND
M  V30 END CTAB
M  END
>  <b_m_subgroup_collapsed>  (2570) 
0

>  <r_i_docking_score>  (2570) 
-5.2870586646152997

>  <s_m_subgroup_title>  (2570) 
glide-dock_SP_D22_pv

>  <s_m_subgroupid>  (2570) 
glide-dock_SP_D22_pv

>  <Molecule ChEMBL ID>  (2570) 
CHEMBL542646

>  <Standard Type>  (2570) 
Ki

>  <Standard Value>  (2570) 
10000.0

>  <label>  (2570) 
0

$$$$
CHEMBL5761193
     RDKit          3D

  0  0  0  0  0  0  0  0  0  0999 V3000
M  V30 BEGIN CTAB
M  V30 COUNTS 56 60 0 0 1
M  V30 BEGIN ATOM
M  V30 1 C 2.990025 -1.060648 -14.781184 0
M  V30 2 N 4.324177 -0.536022 -14.927099 0
M  V30 3 N 4.990655 -0.121727 -13.823461 0
M  V30 4 C 6.151932 0.322814 -14.275372 0
M  V30 5 C 6.240132 0.171715 -15.684043 0
M  V30 6 C 5.049426 -0.354307 -16.090958 0
M  V30 7 C 4.518444 -0.649683 -17.460600 0
M  V30 8 C 5.005704 0.368920 -18.501593 0
M  V30 9 C 6.465938 0.182401 -18.961527 0
M  V30 10 C 7.523273 -0.164117 -17.878887 0 CFG=1
M  V30 11 C 8.966605 -0.110623 -18.439869 0
M  V30 12 C 9.398711 1.275592 -18.984278 0
M  V30 13 N 10.809403 1.577501 -18.746992 0
M  V30 14 C 11.156601 2.790514 -19.504168 0
M  V30 15 C 12.627138 3.192617 -19.267366 0
M  V30 16 N 12.863723 3.390795 -17.839695 0
M  V30 17 C 13.025009 4.685035 -17.279865 0
M  V30 18 N 13.729304 5.571321 -17.958595 0
M  V30 19 S 13.818598 7.017923 -17.125141 0
M  V30 20 C 12.854857 6.484372 -15.767104 0
M  V30 21 C 12.486488 7.194608 -14.609891 0
M  V30 22 C 11.687224 6.569992 -13.638942 0
M  V30 23 C 11.255564 5.249426 -13.843237 0
M  V30 24 C 11.632705 4.549119 -15.004605 0
M  V30 25 C 12.459128 5.131076 -16.004311 0
M  V30 26 C 12.503594 2.204094 -17.080307 0
M  V30 27 C 11.029363 1.860579 -17.320774 0
M  V30 28 C 7.364280 0.591520 -16.537796 0
M  V30 29 O 8.167910 1.452679 -16.180286 0
M  V30 30 H 2.886032 -1.915265 -15.447921 0
M  V30 31 H 2.819601 -1.400301 -13.757383 0
M  V30 32 H 2.261166 -0.293465 -15.043707 0
M  V30 33 H 6.876420 0.727160 -13.582726 0
M  V30 34 H 4.796566 -1.662146 -17.757515 0
M  V30 35 H 3.428905 -0.626509 -17.445652 0
M  V30 36 H 4.863047 1.379765 -18.115768 0
M  V30 37 H 4.367947 0.299911 -19.386158 0
M  V30 38 H 6.760985 1.078242 -19.510559 0
M  V30 39 H 6.483586 -0.624384 -19.696817 0
M  V30 40 H 7.347277 -1.205561 -17.608400 0
M  V30 41 H 9.642219 -0.473479 -17.666294 0
M  V30 42 H 9.068350 -0.843711 -19.241776 0
M  V30 43 H 9.203028 1.290685 -20.056395 0
M  V30 44 H 8.789874 2.075990 -18.560057 0
M  V30 45 H 10.999165 2.614501 -20.569290 0
M  V30 46 H 10.498447 3.615579 -19.214838 0
M  V30 47 H 13.295490 2.410334 -19.632938 0
M  V30 48 H 12.860808 4.091958 -19.839897 0
M  V30 49 H 12.816078 8.212915 -14.470634 0
M  V30 50 H 11.398742 7.104932 -12.746919 0
M  V30 51 H 10.630719 4.769206 -13.104268 0
M  V30 52 H 11.259972 3.544115 -15.111876 0
M  V30 53 H 13.129299 1.373991 -17.409613 0
M  V30 54 H 12.717848 2.333673 -16.022161 0
M  V30 55 H 10.388292 2.682474 -16.997780 0
M  V30 56 H 10.779572 1.000545 -16.703079 0
M  V30 END ATOM
M  V30 BEGIN BOND
M  V30 1 1 2 1
M  V30 2 1 3 2
M  V30 3 2 4 3
M  V30 4 1 5 4
M  V30 5 1 6 2
M  V30 6 2 6 5
M  V30 7 1 7 6
M  V30 8 1 8 7
M  V30 9 1 9 8
M  V30 10 1 10 9
M  V30 11 1 11 10
M  V30 12 1 12 11
M  V30 13 1 13 12
M  V30 14 1 14 13
M  V30 15 1 15 14
M  V30 16 1 16 15
M  V30 17 1 17 16
M  V30 18 2 18 17
M  V30 19 1 19 18
M  V30 20 1 20 19
M  V30 21 2 21 20
M  V30 22 1 22 21
M  V30 23 2 23 22
M  V30 24 1 24 23
M  V30 25 1 25 17
M  V30 26 1 25 20
M  V30 27 2 25 24
M  V30 28 1 26 16
M  V30 29 1 27 13
M  V30 30 1 27 26
M  V30 31 1 28 5
M  V30 32 1 28 10
M  V30 33 2 29 28
M  V30 34 1 30 1
M  V30 35 1 31 1
M  V30 36 1 32 1
M  V30 37 1 33 4
M  V30 38 1 34 7
M  V30 39 1 35 7
M  V30 40 1 36 8
M  V30 41 1 37 8
M  V30 42 1 38 9
M  V30 43 1 39 9
M  V30 44 1 10 40 CFG=1
M  V30 45 1 41 11
M  V30 46 1 42 11
M  V30 47 1 43 12
M  V30 48 1 44 12
M  V30 49 1 45 14
M  V30 50 1 46 14
M  V30 51 1 47 15
M  V30 52 1 48 15
M  V30 53 1 49 21
M  V30 54 1 50 22
M  V30 55 1 51 23
M  V30 56 1 52 24
M  V30 57 1 53 26
M  V30 58 1 54 26
M  V30 59 1 55 27
M  V30 60 1 56 27
M  V30 END BOND
M  V30 END CTAB
M  END
>  <b_m_subgroup_collapsed>  (2571) 
0

>  <r_i_docking_score>  (2571) 
-5.2736837972031099

>  <s_m_subgroup_title>  (2571) 
glide-dock_SP_D22_pv

>  <s_m_subgroupid>  (2571) 
glide-dock_SP_D22_pv

>  <Molecule ChEMBL ID>  (2571) 
CHEMBL5761193

>  <Standard Type>  (2571) 
Ki

>  <Standard Value>  (2571) 
99.0

>  <label>  (2571) 
1

$$$$
CHEMBL2336280
     RDKit          3D

  0  0  0  0  0  0  0  0  0  0999 V3000
M  V30 BEGIN CTAB
M  V30 COUNTS 41 42 0 0 1
M  V30 BEGIN ATOM
M  V30 1 C 11.329646 7.047603 -4.328351 0
M  V30 2 C 11.059903 7.934747 -5.552295 0
M  V30 3 C 11.115710 7.137888 -6.862143 0
M  V30 4 N 10.927198 8.004201 -8.057670 0 CFG=2 CHG=1
M  V30 5 C 9.502406 8.080225 -8.485621 0
M  V30 6 C 9.338172 8.849505 -9.817348 0
M  V30 7 C 10.239246 8.324209 -10.957480 0 CFG=2
M  V30 8 C 9.933643 6.937619 -11.549669 0
M  V30 9 C 8.856817 6.150767 -11.078551 0
M  V30 10 C 8.580740 4.886315 -11.622881 0
M  V30 11 C 9.366065 4.389933 -12.672935 0
M  V30 12 C 10.407533 5.175150 -13.192144 0
M  V30 13 C 10.699168 6.452969 -12.646242 0
M  V30 14 O 11.686986 7.268894 -13.161795 0
M  V30 15 C 12.373422 6.857908 -14.335302 0
M  V30 16 C 11.673471 8.470084 -10.416035 0
M  V30 17 C 11.851739 7.621261 -9.157850 0
M  V30 18 H 11.286098 7.629640 -3.406620 0
M  V30 19 H 10.599903 6.240582 -4.252345 0
M  V30 20 H 12.318782 6.592782 -4.379532 0
M  V30 21 H 11.797080 8.736397 -5.576281 0
M  V30 22 H 10.085475 8.414291 -5.448444 0
M  V30 23 H 10.384255 6.327418 -6.850648 0
M  V30 24 H 12.085332 6.641546 -6.912209 0
M  V30 25 H 8.920822 8.578793 -7.707263 0
M  V30 26 H 9.099215 7.070173 -8.551471 0
M  V30 27 H 9.648843 9.869112 -9.612086 0
M  V30 28 H 8.305691 8.966026 -10.129595 0
M  V30 29 H 10.085173 8.974931 -11.810909 0
M  V30 30 H 8.181431 6.509790 -10.318789 0
M  V30 31 H 7.754141 4.305479 -11.235795 0
M  V30 32 H 9.154504 3.417854 -13.093744 0
M  V30 33 H 10.970037 4.769950 -14.017685 0
M  V30 34 H 13.120223 7.607546 -14.594293 0
M  V30 35 H 12.893911 5.910188 -14.185725 0
M  V30 36 H 11.689157 6.766407 -15.179824 0
M  V30 37 H 12.430905 8.199605 -11.146981 0
M  V30 38 H 11.877008 9.514264 -10.178868 0
M  V30 39 H 12.879922 7.724816 -8.808324 0
M  V30 40 H 11.684508 6.576287 -9.417097 0
M  V30 41 H 11.199765 8.939292 -7.790559 0
M  V30 END ATOM
M  V30 BEGIN BOND
M  V30 1 1 2 1
M  V30 2 1 3 2
M  V30 3 1 4 3
M  V30 4 1 5 4
M  V30 5 1 6 5
M  V30 6 1 7 6
M  V30 7 1 8 7
M  V30 8 2 9 8
M  V30 9 1 10 9
M  V30 10 2 11 10
M  V30 11 1 12 11
M  V30 12 1 13 8
M  V30 13 2 13 12
M  V30 14 1 14 13
M  V30 15 1 15 14
M  V30 16 1 16 7
M  V30 17 1 17 4
M  V30 18 1 17 16
M  V30 19 1 18 1
M  V30 20 1 19 1
M  V30 21 1 20 1
M  V30 22 1 21 2
M  V30 23 1 22 2
M  V30 24 1 23 3
M  V30 25 1 24 3
M  V30 26 1 25 5
M  V30 27 1 26 5
M  V30 28 1 27 6
M  V30 29 1 28 6
M  V30 30 1 7 29 CFG=3
M  V30 31 1 30 9
M  V30 32 1 31 10
M  V30 33 1 32 11
M  V30 34 1 33 12
M  V30 35 1 34 15
M  V30 36 1 35 15
M  V30 37 1 36 15
M  V30 38 1 37 16
M  V30 39 1 38 16
M  V30 40 1 39 17
M  V30 41 1 40 17
M  V30 42 1 4 41 CFG=1
M  V30 END BOND
M  V30 END CTAB
M  END
>  <b_m_subgroup_collapsed>  (2572) 
0

>  <r_i_docking_score>  (2572) 
-5.2685262743294903

>  <s_m_subgroup_title>  (2572) 
glide-dock_SP_D22_pv

>  <s_m_subgroupid>  (2572) 
glide-dock_SP_D22_pv

>  <Molecule ChEMBL ID>  (2572) 
CHEMBL2336280

>  <Standard Type>  (2572) 
Ki

>  <Standard Value>  (2572) 
12.59

>  <label>  (2572) 
1

$$$$
CHEMBL208847
     RDKit          3D

  0  0  0  0  0  0  0  0  0  0999 V3000
M  V30 BEGIN CTAB
M  V30 COUNTS 80 85 0 0 1
M  V30 BEGIN ATOM
M  V30 1 C 8.390442 6.571629 -6.743234 0
M  V30 2 O 8.909505 6.450910 -8.052393 0
M  V30 3 C 10.064447 7.137772 -8.356780 0
M  V30 4 C 10.756976 7.907655 -7.386811 0
M  V30 5 C 11.945697 8.571828 -7.715183 0
M  V30 6 C 12.447424 8.486296 -9.019294 0
M  V30 7 C 11.753469 7.772665 -10.006936 0
M  V30 8 C 10.573784 7.068789 -9.685543 0
M  V30 9 N 9.981359 6.279537 -10.692539 0
M  V30 10 C 9.421946 4.971660 -10.393992 0
M  V30 11 C 7.915385 5.018071 -10.648022 0
M  V30 12 N 7.648633 5.380779 -12.064409 0 CHG=1
M  V30 13 C 6.213989 5.284677 -12.443924 0
M  V30 14 C 5.658388 3.845084 -12.444324 0
M  V30 15 C 6.273268 2.925019 -13.512026 0
M  V30 16 C 5.726050 1.490539 -13.412684 0
M  V30 17 N 6.086092 0.738299 -14.603926 0
M  V30 18 C 5.339936 -0.250114 -15.109991 0
M  V30 19 O 4.551315 -0.915753 -14.438560 0
M  V30 20 C 5.415539 -0.385648 -16.578785 0
M  V30 21 C 4.698139 -1.160817 -17.476398 0
M  V30 22 C 5.093428 -0.713817 -18.756132 0
M  V30 23 C 4.784635 -1.128578 -20.069109 0
M  V30 24 C 5.285632 -0.366185 -21.155504 0
M  V30 25 C 6.260031 0.642236 -20.951860 0
M  V30 26 C 6.750444 0.891671 -19.650299 0
M  V30 27 C 6.049871 0.266286 -18.599024 0
M  V30 28 O 6.281428 0.453965 -17.273502 0
M  V30 29 C 8.175998 1.339853 -19.297310 0
M  V30 30 C 9.277253 0.300078 -19.717737 0
M  V30 31 C 8.759841 -1.135653 -19.817408 0
M  V30 32 C 8.378413 -1.822963 -18.646986 0
M  V30 33 C 7.394326 -2.829564 -18.726961 0
M  V30 34 C 6.802592 -3.129647 -19.972828 0
M  V30 35 C 7.425728 -2.679003 -21.155718 0
M  V30 36 C 8.410726 -1.673743 -21.077240 0
M  V30 37 C 5.372192 -3.674977 -20.010859 0
M  V30 38 C 4.262280 -2.567288 -20.163090 0
M  V30 39 C 8.230057 6.714063 -12.388857 0
M  V30 40 C 9.732130 6.811278 -12.028348 0
M  V30 41 H 7.508782 5.942798 -6.648454 0
M  V30 42 H 9.105316 6.241094 -5.988832 0
M  V30 43 H 8.086339 7.600965 -6.547018 0
M  V30 44 H 10.409368 8.003131 -6.369905 0
M  V30 45 H 12.480832 9.137725 -6.965979 0
M  V30 46 H 13.378187 8.969400 -9.255187 0
M  V30 47 H 12.171818 7.714371 -11.000688 0
M  V30 48 H 9.885242 4.234165 -11.049207 0
M  V30 49 H 9.646142 4.646585 -9.379333 0
M  V30 50 H 7.495720 4.046691 -10.403195 0
M  V30 51 H 7.451655 5.769324 -10.006970 0
M  V30 52 H 5.628498 5.909827 -11.768220 0
M  V30 53 H 6.067091 5.692329 -13.446629 0
M  V30 54 H 5.733572 3.386960 -11.457802 0
M  V30 55 H 4.589314 3.901110 -12.655667 0
M  V30 56 H 6.046571 3.338867 -14.496511 0
M  V30 57 H 7.360208 2.908257 -13.446035 0
M  V30 58 H 6.084673 0.978664 -12.519899 0
M  V30 59 H 4.638423 1.528218 -13.332558 0
M  V30 60 H 6.712531 1.186817 -15.257399 0
M  V30 61 H 3.952867 -1.925927 -17.302082 0
M  V30 62 H 5.062294 -0.677801 -22.164307 0
M  V30 63 H 6.764946 1.061404 -21.809099 0
M  V30 64 H 8.378836 2.303505 -19.764534 0
M  V30 65 H 8.260597 1.515335 -18.225929 0
M  V30 66 H 10.130693 0.348562 -19.040966 0
M  V30 67 H 9.659907 0.575845 -20.701017 0
M  V30 68 H 8.655425 -1.434168 -17.676998 0
M  V30 69 H 6.944371 -3.194767 -17.814985 0
M  V30 70 H 7.007437 -2.930931 -22.120832 0
M  V30 71 H 8.723452 -1.182044 -21.985683 0
M  V30 72 H 5.192815 -4.224652 -19.084696 0
M  V30 73 H 5.281991 -4.409069 -20.812767 0
M  V30 74 H 3.451267 -2.733783 -19.453573 0
M  V30 75 H 3.804854 -2.666263 -21.148371 0
M  V30 76 H 8.085607 6.927778 -13.447021 0
M  V30 77 H 7.686586 7.485859 -11.847238 0
M  V30 78 H 10.059697 7.847921 -12.106502 0
M  V30 79 H 10.328932 6.236319 -12.737920 0
M  V30 80 H 8.146487 4.708433 -12.627675 0
M  V30 END ATOM
M  V30 BEGIN BOND
M  V30 1 1 2 1
M  V30 2 1 3 2
M  V30 3 2 4 3
M  V30 4 1 5 4
M  V30 5 2 6 5
M  V30 6 1 7 6
M  V30 7 1 8 3
M  V30 8 2 8 7
M  V30 9 1 9 8
M  V30 10 1 10 9
M  V30 11 1 11 10
M  V30 12 1 12 11
M  V30 13 1 13 12
M  V30 14 1 14 13
M  V30 15 1 15 14
M  V30 16 1 16 15
M  V30 17 1 17 16
M  V30 18 1 18 17
M  V30 19 2 19 18
M  V30 20 1 20 18
M  V30 21 2 21 20
M  V30 22 1 22 21
M  V30 23 2 23 22
M  V30 24 1 24 23
M  V30 25 2 25 24
M  V30 26 1 26 25
M  V30 27 1 27 22
M  V30 28 2 27 26
M  V30 29 1 28 20
M  V30 30 1 28 27
M  V30 31 1 29 26
M  V30 32 1 30 29
M  V30 33 1 31 30
M  V30 34 1 32 31
M  V30 35 2 33 32
M  V30 36 1 34 33
M  V30 37 2 35 34
M  V30 38 2 36 31
M  V30 39 1 36 35
M  V30 40 1 37 34
M  V30 41 1 38 23
M  V30 42 1 38 37
M  V30 43 1 39 12
M  V30 44 1 40 9
M  V30 45 1 40 39
M  V30 46 1 41 1
M  V30 47 1 42 1
M  V30 48 1 43 1
M  V30 49 1 44 4
M  V30 50 1 45 5
M  V30 51 1 46 6
M  V30 52 1 47 7
M  V30 53 1 48 10
M  V30 54 1 49 10
M  V30 55 1 50 11
M  V30 56 1 51 11
M  V30 57 1 52 13
M  V30 58 1 53 13
M  V30 59 1 54 14
M  V30 60 1 55 14
M  V30 61 1 56 15
M  V30 62 1 57 15
M  V30 63 1 58 16
M  V30 64 1 59 16
M  V30 65 1 60 17
M  V30 66 1 61 21
M  V30 67 1 62 24
M  V30 68 1 63 25
M  V30 69 1 64 29
M  V30 70 1 65 29
M  V30 71 1 66 30
M  V30 72 1 67 30
M  V30 73 1 68 32
M  V30 74 1 69 33
M  V30 75 1 70 35
M  V30 76 1 71 36
M  V30 77 1 72 37
M  V30 78 1 73 37
M  V30 79 1 74 38
M  V30 80 1 75 38
M  V30 81 1 76 39
M  V30 82 1 77 39
M  V30 83 1 78 40
M  V30 84 1 79 40
M  V30 85 1 80 12
M  V30 END BOND
M  V30 END CTAB
M  END
>  <b_m_subgroup_collapsed>  (2573) 
0

>  <r_i_docking_score>  (2573) 
-5.2669842790798898

>  <s_m_subgroup_title>  (2573) 
glide-dock_SP_D22_pv

>  <s_m_subgroupid>  (2573) 
glide-dock_SP_D22_pv

>  <Molecule ChEMBL ID>  (2573) 
CHEMBL208847

>  <Standard Type>  (2573) 
Ki

>  <Standard Value>  (2573) 
84.0

>  <label>  (2573) 
1

$$$$
CHEMBL5424897
     RDKit          3D

  0  0  0  0  0  0  0  0  0  0999 V3000
M  V30 BEGIN CTAB
M  V30 COUNTS 73 75 0 0 1
M  V30 BEGIN ATOM
M  V30 1 C 8.758642 -0.047237 -20.054411 0
M  V30 2 C 7.627693 0.929335 -19.711208 0
M  V30 3 C 7.071962 0.694699 -18.319897 0
M  V30 4 C 6.151592 -0.347910 -18.098568 0
M  V30 5 C 5.645636 -0.574391 -16.807787 0
M  V30 6 Cl 4.488142 -1.827939 -16.560595 0
M  V30 7 C 6.064325 0.223498 -15.723186 0
M  V30 8 O 5.565041 -0.059792 -14.479635 0
M  V30 9 C 6.476871 -0.775269 -13.667978 0
M  V30 10 C 6.949008 1.316785 -15.943015 0
M  V30 11 N 7.307765 2.231595 -14.928745 0
M  V30 12 C 8.724202 2.473240 -14.687159 0
M  V30 13 C 8.940804 3.907138 -14.177406 0
M  V30 14 N 8.084191 4.174842 -12.991405 0 CHG=1
M  V30 15 C 8.351101 5.467776 -12.313168 0
M  V30 16 C 9.815879 5.569144 -11.842231 0
M  V30 17 C 10.080399 6.482438 -10.632322 0 CFG=1
M  V30 18 C 9.568687 7.921029 -10.812378 0
M  V30 19 C 9.952706 8.788028 -9.601037 0
M  V30 20 C 9.486799 8.149703 -8.274601 0 CFG=2
M  V30 21 N 9.818079 8.955467 -7.104702 0
M  V30 22 C 11.041221 9.265750 -6.649463 0
M  V30 23 O 12.085498 8.972174 -7.229424 0
M  V30 24 C 11.096947 9.996013 -5.312593 0
M  V30 25 C 11.828794 9.146871 -4.266585 0
M  V30 26 O 11.686231 9.772278 -3.007457 0
M  V30 27 C 12.235103 9.003095 -1.953308 0
M  V30 28 C 9.979037 6.698987 -8.116302 0
M  V30 29 C 9.559186 5.856237 -9.323125 0
M  V30 30 C 6.643359 3.971146 -13.288399 0
M  V30 31 C 6.381926 2.560369 -13.846772 0
M  V30 32 C 7.458887 1.521570 -17.246254 0
M  V30 33 H 9.144942 0.143937 -21.056641 0
M  V30 34 H 9.587676 0.047357 -19.352306 0
M  V30 35 H 8.411210 -1.080240 -20.022980 0
M  V30 36 H 6.818670 0.831556 -20.438715 0
M  V30 37 H 7.993031 1.954437 -19.793547 0
M  V30 38 H 5.829505 -0.974132 -18.918793 0
M  V30 39 H 6.146269 -0.693021 -12.636112 0
M  V30 40 H 6.485941 -1.828253 -13.943527 0
M  V30 41 H 7.492274 -0.382677 -13.726114 0
M  V30 42 H 9.072719 1.757124 -13.942854 0
M  V30 43 H 9.328123 2.304228 -15.578691 0
M  V30 44 H 9.997793 4.020323 -13.939966 0
M  V30 45 H 8.714968 4.631387 -14.962901 0
M  V30 46 H 8.101802 6.303219 -12.970962 0
M  V30 47 H 7.680035 5.542930 -11.456422 0
M  V30 48 H 10.161906 4.568227 -11.582163 0
M  V30 49 H 10.439273 5.900012 -12.675193 0
M  V30 50 H 11.162621 6.572742 -10.533155 0
M  V30 51 H 9.982711 8.358377 -11.722124 0
M  V30 52 H 8.486484 7.927215 -10.936250 0
M  V30 53 H 9.504225 9.772130 -9.713127 0
M  V30 54 H 11.032925 8.935260 -9.603559 0
M  V30 55 H 8.400551 8.118910 -8.295151 0
M  V30 56 H 9.027207 9.239663 -6.543892 0
M  V30 57 H 11.602456 10.952673 -5.449664 0
M  V30 58 H 10.087255 10.220320 -4.966560 0
M  V30 59 H 11.403234 8.141864 -4.232049 0
M  V30 60 H 12.886158 9.052695 -4.519966 0
M  V30 61 H 12.121071 9.544590 -1.015924 0
M  V30 62 H 11.722648 8.045425 -1.854566 0
M  V30 63 H 13.298007 8.820833 -2.110294 0
M  V30 64 H 9.569899 6.262032 -7.205348 0
M  V30 65 H 11.063995 6.665962 -8.017404 0
M  V30 66 H 8.472062 5.773831 -9.341321 0
M  V30 67 H 9.946526 4.843845 -9.204712 0
M  V30 68 H 6.048718 4.119503 -12.385901 0
M  V30 69 H 6.311305 4.717528 -14.007837 0
M  V30 70 H 5.351552 2.496484 -14.189984 0
M  V30 71 H 6.485456 1.831474 -13.046855 0
M  V30 72 H 8.135002 2.341522 -17.437458 0
M  V30 73 H 8.322549 3.461001 -12.317789 0
M  V30 END ATOM
M  V30 BEGIN BOND
M  V30 1 1 2 1
M  V30 2 1 3 2
M  V30 3 2 4 3
M  V30 4 1 5 4
M  V30 5 1 6 5
M  V30 6 2 7 5
M  V30 7 1 8 7
M  V30 8 1 9 8
M  V30 9 1 10 7
M  V30 10 1 11 10
M  V30 11 1 12 11
M  V30 12 1 13 12
M  V30 13 1 14 13
M  V30 14 1 15 14
M  V30 15 1 16 15
M  V30 16 1 17 16
M  V30 17 1 18 17
M  V30 18 1 19 18
M  V30 19 1 20 19
M  V30 20 1 21 20
M  V30 21 1 22 21
M  V30 22 2 23 22
M  V30 23 1 24 22
M  V30 24 1 25 24
M  V30 25 1 26 25
M  V30 26 1 27 26
M  V30 27 1 28 20
M  V30 28 1 29 17
M  V30 29 1 29 28
M  V30 30 1 30 14
M  V30 31 1 31 11
M  V30 32 1 31 30
M  V30 33 1 32 3
M  V30 34 2 32 10
M  V30 35 1 33 1
M  V30 36 1 34 1
M  V30 37 1 35 1
M  V30 38 1 36 2
M  V30 39 1 37 2
M  V30 40 1 38 4
M  V30 41 1 39 9
M  V30 42 1 40 9
M  V30 43 1 41 9
M  V30 44 1 42 12
M  V30 45 1 43 12
M  V30 46 1 44 13
M  V30 47 1 45 13
M  V30 48 1 46 15
M  V30 49 1 47 15
M  V30 50 1 48 16
M  V30 51 1 49 16
M  V30 52 1 17 50 CFG=1
M  V30 53 1 51 18
M  V30 54 1 52 18
M  V30 55 1 53 19
M  V30 56 1 54 19
M  V30 57 1 20 55 CFG=3
M  V30 58 1 56 21
M  V30 59 1 57 24
M  V30 60 1 58 24
M  V30 61 1 59 25
M  V30 62 1 60 25
M  V30 63 1 61 27
M  V30 64 1 62 27
M  V30 65 1 63 27
M  V30 66 1 64 28
M  V30 67 1 65 28
M  V30 68 1 66 29
M  V30 69 1 67 29
M  V30 70 1 68 30
M  V30 71 1 69 30
M  V30 72 1 70 31
M  V30 73 1 71 31
M  V30 74 1 72 32
M  V30 75 1 73 14
M  V30 END BOND
M  V30 END CTAB
M  END
>  <b_m_subgroup_collapsed>  (2574) 
0

>  <r_i_docking_score>  (2574) 
-5.2664954923497298

>  <s_m_subgroup_title>  (2574) 
glide-dock_SP_D22_pv

>  <s_m_subgroupid>  (2574) 
glide-dock_SP_D22_pv

>  <Molecule ChEMBL ID>  (2574) 
CHEMBL5424897

>  <Standard Type>  (2574) 
Ki

>  <Standard Value>  (2574) 
15.2

>  <label>  (2574) 
1

$$$$
CHEMBL254298
     RDKit          3D

  0  0  0  0  0  0  0  0  0  0999 V3000
M  V30 BEGIN CTAB
M  V30 COUNTS 32 34 0 0 1
M  V30 BEGIN ATOM
M  V30 1 C 13.215135 3.654058 -18.050785 0
M  V30 2 C 12.483379 4.639093 -17.104982 0 CFG=2
M  V30 3 C 11.523526 5.519388 -17.952486 0
M  V30 4 C 12.012328 6.637229 -18.679905 0
M  V30 5 C 11.152211 7.434854 -19.459396 0
M  V30 6 C 9.785447 7.119349 -19.549454 0
M  V30 7 C 9.284311 6.001915 -18.863205 0
M  V30 8 C 10.144046 5.206018 -18.082874 0
M  V30 9 C 13.533061 5.537238 -16.374741 0
M  V30 10 O 14.628164 5.771689 -16.885262 0
M  V30 11 N 13.215281 6.070207 -15.185405 0
M  V30 12 C 12.034020 5.763694 -14.473757 0
M  V30 13 C 11.685129 6.556761 -13.365829 0
M  V30 14 C 10.510180 6.271569 -12.645904 0
M  V30 15 Cl 10.080178 7.253551 -11.296655 0
M  V30 16 C 9.694999 5.187734 -13.023564 0
M  V30 17 C 10.047848 4.375989 -14.120420 0
M  V30 18 Cl 8.979316 3.080484 -14.540900 0
M  V30 19 C 11.228456 4.663695 -14.855941 0
M  V30 20 C 11.714783 3.845025 -16.004761 0
M  V30 21 O 11.510042 2.635692 -16.127462 0
M  V30 22 H 13.939919 3.044306 -17.508760 0
M  V30 23 H 12.517636 2.975994 -18.544292 0
M  V30 24 H 13.754959 4.181470 -18.837582 0
M  V30 25 H 13.059093 6.901685 -18.658390 0
M  V30 26 H 11.542068 8.291247 -19.992226 0
M  V30 27 H 9.123518 7.731570 -20.144901 0
M  V30 28 H 8.235691 5.750956 -18.937931 0
M  V30 29 H 9.711209 4.345940 -17.594845 0
M  V30 30 H 13.884469 6.686623 -14.744877 0
M  V30 31 H 12.308098 7.388907 -13.070401 0
M  V30 32 H 8.792716 4.979910 -12.466171 0
M  V30 END ATOM
M  V30 BEGIN BOND
M  V30 1 1 2 1 CFG=3
M  V30 2 1 3 2
M  V30 3 2 4 3
M  V30 4 1 5 4
M  V30 5 2 6 5
M  V30 6 1 7 6
M  V30 7 1 8 3
M  V30 8 2 8 7
M  V30 9 1 9 2
M  V30 10 2 10 9
M  V30 11 1 11 9
M  V30 12 1 12 11
M  V30 13 2 13 12
M  V30 14 1 14 13
M  V30 15 1 15 14
M  V30 16 2 16 14
M  V30 17 1 17 16
M  V30 18 1 18 17
M  V30 19 1 19 12
M  V30 20 2 19 17
M  V30 21 1 20 2
M  V30 22 1 20 19
M  V30 23 2 21 20
M  V30 24 1 22 1
M  V30 25 1 23 1
M  V30 26 1 24 1
M  V30 27 1 25 4
M  V30 28 1 26 5
M  V30 29 1 27 6
M  V30 30 1 28 7
M  V30 31 1 29 8
M  V30 32 1 30 11
M  V30 33 1 31 13
M  V30 34 1 32 16
M  V30 END BOND
M  V30 END CTAB
M  END
>  <b_m_subgroup_collapsed>  (2575) 
0

>  <r_i_docking_score>  (2575) 
-5.2645073658245396

>  <s_m_subgroup_title>  (2575) 
glide-dock_SP_D22_pv

>  <s_m_subgroupid>  (2575) 
glide-dock_SP_D22_pv

>  <Molecule ChEMBL ID>  (2575) 
CHEMBL254298

>  <Standard Type>  (2575) 
Ki

>  <Standard Value>  (2575) 
10000.0

>  <label>  (2575) 
0

$$$$
CHEMBL4758966
     RDKit          3D

  0  0  0  0  0  0  0  0  0  0999 V3000
M  V30 BEGIN CTAB
M  V30 COUNTS 52 55 0 0 1
M  V30 BEGIN ATOM
M  V30 1 C 11.037063 -0.329850 -22.412823 0
M  V30 2 C 9.763183 0.506841 -22.224430 0
M  V30 3 O 9.914038 1.437033 -21.157728 0
M  V30 4 C 9.781223 1.008398 -19.854918 0
M  V30 5 C 9.442915 -0.308883 -19.467932 0
M  V30 6 C 9.277155 -0.615379 -18.108885 0
M  V30 7 C 9.477520 0.369289 -17.118614 0
M  V30 8 C 9.921010 1.673579 -17.475367 0
M  V30 9 C 10.007292 1.972997 -18.856220 0
M  V30 10 C 10.319766 2.705750 -16.449585 0
M  V30 11 C 11.534649 3.578572 -16.655636 0
M  V30 12 C 11.881037 4.506859 -15.728810 0
M  V30 13 C 13.072034 5.454114 -15.795649 0 CFG=2
M  V30 14 C 12.594015 6.883736 -15.481214 0
M  V30 15 N 13.790018 5.392335 -17.103487 0 CFG=1 CHG=1
M  V30 16 C 15.141201 5.999446 -17.047367 0
M  V30 17 C 13.841564 4.030482 -17.680855 0
M  V30 18 C 12.435942 3.450195 -17.881826 0
M  V30 19 N 9.656310 2.908042 -15.375655 0
M  V30 20 C 8.503309 2.238831 -14.948027 0
M  V30 21 C 7.559627 3.016893 -14.246138 0
M  V30 22 C 6.396107 2.441372 -13.712098 0
M  V30 23 Cl 5.286180 3.428878 -12.838921 0
M  V30 24 C 6.166996 1.060670 -13.851836 0
M  V30 25 C 7.109415 0.263828 -14.529980 0
M  V30 26 C 8.270870 0.846463 -15.085019 0
M  V30 27 N 9.141290 0.033697 -15.807830 0
M  V30 28 H 10.933931 -1.007114 -23.262163 0
M  V30 29 H 11.896166 0.312682 -22.604425 0
M  V30 30 H 11.263452 -0.936180 -21.535633 0
M  V30 31 H 8.878690 -0.117948 -22.100218 0
M  V30 32 H 9.589425 1.085694 -23.133385 0
M  V30 33 H 9.268116 -1.092090 -20.190439 0
M  V30 34 H 8.956236 -1.608466 -17.834036 0
M  V30 35 H 10.249874 2.972277 -19.175636 0
M  V30 36 H 11.291152 4.630891 -14.830654 0
M  V30 37 H 13.754301 5.134400 -15.005785 0
M  V30 38 H 12.057015 6.913542 -14.531283 0
M  V30 39 H 13.416251 7.591592 -15.396727 0
M  V30 40 H 11.910857 7.253497 -16.248032 0
M  V30 41 H 15.786101 5.460127 -16.349892 0
M  V30 42 H 15.614470 5.979773 -18.030169 0
M  V30 43 H 15.101041 7.041977 -16.736147 0
M  V30 44 H 14.433888 3.376136 -17.047258 0
M  V30 45 H 14.350588 4.062689 -18.644117 0
M  V30 46 H 12.540464 2.401209 -18.167747 0
M  V30 47 H 11.962675 3.974821 -18.712412 0
M  V30 48 H 7.736001 4.074178 -14.106287 0
M  V30 49 H 5.275599 0.612306 -13.438543 0
M  V30 50 H 6.923508 -0.793693 -14.646814 0
M  V30 51 H 8.903893 -0.943768 -15.696352 0
M  V30 52 H 13.244910 5.947150 -17.748232 0
M  V30 END ATOM
M  V30 BEGIN BOND
M  V30 1 1 2 1
M  V30 2 1 3 2
M  V30 3 1 4 3
M  V30 4 1 5 4
M  V30 5 2 6 5
M  V30 6 1 7 6
M  V30 7 2 8 7
M  V30 8 2 9 4
M  V30 9 1 9 8
M  V30 10 1 10 8
M  V30 11 1 11 10
M  V30 12 2 12 11
M  V30 13 1 13 12
M  V30 14 1 14 13
M  V30 15 1 15 13
M  V30 16 1 16 15
M  V30 17 1 17 15
M  V30 18 1 18 11
M  V30 19 1 18 17
M  V30 20 2 19 10
M  V30 21 1 20 19
M  V30 22 1 21 20
M  V30 23 2 22 21
M  V30 24 1 23 22
M  V30 25 1 24 22
M  V30 26 2 25 24
M  V30 27 2 26 20
M  V30 28 1 26 25
M  V30 29 1 27 7
M  V30 30 1 27 26
M  V30 31 1 28 1
M  V30 32 1 29 1
M  V30 33 1 30 1
M  V30 34 1 31 2
M  V30 35 1 32 2
M  V30 36 1 33 5
M  V30 37 1 34 6
M  V30 38 1 35 9
M  V30 39 1 36 12
M  V30 40 1 13 37 CFG=1
M  V30 41 1 38 14
M  V30 42 1 39 14
M  V30 43 1 40 14
M  V30 44 1 41 16
M  V30 45 1 42 16
M  V30 46 1 43 16
M  V30 47 1 44 17
M  V30 48 1 45 17
M  V30 49 1 46 18
M  V30 50 1 47 18
M  V30 51 1 48 21
M  V30 52 1 49 24
M  V30 53 1 50 25
M  V30 54 1 51 27
M  V30 55 1 15 52 CFG=3
M  V30 END BOND
M  V30 END CTAB
M  END
>  <b_m_subgroup_collapsed>  (2576) 
0

>  <r_i_docking_score>  (2576) 
-5.2465983595336496

>  <s_m_subgroup_title>  (2576) 
glide-dock_SP_D22_pv

>  <s_m_subgroupid>  (2576) 
glide-dock_SP_D22_pv

>  <Molecule ChEMBL ID>  (2576) 
CHEMBL4758966

>  <Standard Type>  (2576) 
Ki

>  <Standard Value>  (2576) 
47.0

>  <label>  (2576) 
1

$$$$
CHEMBL253708
     RDKit          3D

  0  0  0  0  0  0  0  0  0  0999 V3000
M  V30 BEGIN CTAB
M  V30 COUNTS 33 35 0 0 1
M  V30 BEGIN ATOM
M  V30 1 C 8.615110 0.725899 -14.584035 0
M  V30 2 C 8.780045 2.165831 -15.140124 0 CFG=2
M  V30 3 C 7.977563 3.157701 -14.247493 0
M  V30 4 C 6.578346 2.999987 -14.115007 0
M  V30 5 C 5.814701 3.872486 -13.312078 0
M  V30 6 C 6.437582 4.919320 -12.606443 0
M  V30 7 O 5.686318 5.771704 -11.850096 0
M  V30 8 C 7.829440 5.077325 -12.693891 0
M  V30 9 C 8.587846 4.206490 -13.499533 0
M  V30 10 C 8.249505 2.172430 -16.612982 0
M  V30 11 O 7.260849 1.512074 -16.928062 0
M  V30 12 N 8.854334 2.936728 -17.541042 0
M  V30 13 C 9.916798 3.819854 -17.260202 0
M  V30 14 C 10.233343 4.835256 -18.183462 0
M  V30 15 C 11.264020 5.747784 -17.892088 0
M  V30 16 Cl 11.651587 6.996455 -19.017416 0
M  V30 17 C 11.966514 5.648768 -16.676060 0
M  V30 18 C 11.658330 4.628190 -15.754083 0
M  V30 19 Cl 12.486694 4.617418 -14.240848 0
M  V30 20 C 10.640841 3.689216 -16.055246 0
M  V30 21 C 10.284549 2.542740 -15.170867 0
M  V30 22 O 11.084710 1.961642 -14.443964 0
M  V30 23 H 9.239130 0.007455 -15.118369 0
M  V30 24 H 8.885626 0.676728 -13.530314 0
M  V30 25 H 7.588421 0.365390 -14.649074 0
M  V30 26 H 6.085360 2.200001 -14.643873 0
M  V30 27 H 4.745591 3.739416 -13.239247 0
M  V30 28 H 6.141545 6.409702 -11.300775 0
M  V30 29 H 8.321619 5.867579 -12.144764 0
M  V30 30 H 9.651972 4.378722 -13.506462 0
M  V30 31 H 8.486850 2.930639 -18.480019 0
M  V30 32 H 9.681421 4.927903 -19.108044 0
M  V30 33 H 12.738906 6.367105 -16.443007 0
M  V30 END ATOM
M  V30 BEGIN BOND
M  V30 1 1 2 1 CFG=1
M  V30 2 1 3 2
M  V30 3 1 4 3
M  V30 4 2 5 4
M  V30 5 1 6 5
M  V30 6 1 7 6
M  V30 7 2 8 6
M  V30 8 2 9 3
M  V30 9 1 9 8
M  V30 10 1 10 2
M  V30 11 2 11 10
M  V30 12 1 12 10
M  V30 13 1 13 12
M  V30 14 2 14 13
M  V30 15 1 15 14
M  V30 16 1 16 15
M  V30 17 2 17 15
M  V30 18 1 18 17
M  V30 19 1 19 18
M  V30 20 1 20 13
M  V30 21 2 20 18
M  V30 22 1 21 2
M  V30 23 1 21 20
M  V30 24 2 22 21
M  V30 25 1 23 1
M  V30 26 1 24 1
M  V30 27 1 25 1
M  V30 28 1 26 4
M  V30 29 1 27 5
M  V30 30 1 28 7
M  V30 31 1 29 8
M  V30 32 1 30 9
M  V30 33 1 31 12
M  V30 34 1 32 14
M  V30 35 1 33 17
M  V30 END BOND
M  V30 END CTAB
M  END
>  <b_m_subgroup_collapsed>  (2577) 
0

>  <r_i_docking_score>  (2577) 
-5.2460791562034004

>  <s_m_subgroup_title>  (2577) 
glide-dock_SP_D22_pv

>  <s_m_subgroupid>  (2577) 
glide-dock_SP_D22_pv

>  <Molecule ChEMBL ID>  (2577) 
CHEMBL253708

>  <Standard Type>  (2577) 
Ki

>  <Standard Value>  (2577) 
10000.0

>  <label>  (2577) 
0

$$$$
CHEMBL3287398
     RDKit          3D

  0  0  0  0  0  0  0  0  0  0999 V3000
M  V30 BEGIN CTAB
M  V30 COUNTS 55 58 0 0 1
M  V30 BEGIN ATOM
M  V30 1 O 7.870460 1.484989 -19.334616 0
M  V30 2 C 7.493110 0.968944 -18.285166 0
M  V30 3 C 6.305307 0.149030 -18.147964 0
M  V30 4 C 5.531458 -0.475826 -19.151562 0
M  V30 5 N 4.501564 -1.138490 -18.678728 0
M  V30 6 N 4.571485 -0.942834 -17.322481 0
M  V30 7 C 3.686140 -1.427907 -16.416798 0
M  V30 8 C 3.845664 -1.123508 -15.089035 0
M  V30 9 C 4.943478 -0.344519 -14.663276 0
M  V30 10 C 5.863461 0.145841 -15.575706 0
M  V30 11 O 6.937183 0.934773 -15.232117 0
M  V30 12 C 7.015535 1.496935 -13.930575 0
M  V30 13 C 6.022648 2.663953 -13.767228 0
M  V30 14 C 6.298881 3.583028 -12.566041 0
M  V30 15 C 7.512251 4.489680 -12.836501 0
M  V30 16 N 7.763227 5.514647 -11.793458 0 CHG=1
M  V30 17 C 8.350183 4.934791 -10.557833 0
M  V30 18 C 8.623644 6.006825 -9.491168 0
M  V30 19 N 9.350330 7.131087 -10.069700 0
M  V30 20 C 10.487023 7.642189 -9.433372 0
M  V30 21 C 11.684583 7.706149 -10.177429 0
M  V30 22 C 12.865586 8.172119 -9.583575 0
M  V30 23 C 12.850486 8.572359 -8.242842 0
M  V30 24 C 11.660583 8.568325 -7.497923 0
M  V30 25 Cl 11.684705 9.184652 -5.881939 0
M  V30 26 C 10.467810 8.098404 -8.087751 0
M  V30 27 Cl 9.005231 8.159430 -7.163930 0
M  V30 28 C 8.931926 7.707253 -11.341316 0
M  V30 29 C 8.601475 6.607143 -12.355133 0
M  V30 30 C 5.682412 -0.150646 -16.961491 0
M  V30 31 H 8.051844 1.117318 -17.362677 0
M  V30 32 H 5.711903 -0.459319 -20.217581 0
M  V30 33 H 2.886098 -2.053747 -16.798292 0
M  V30 34 H 3.129451 -1.501842 -14.367509 0
M  V30 35 H 5.037449 -0.142359 -13.603097 0
M  V30 36 H 6.886802 0.740508 -13.155467 0
M  V30 37 H 8.040114 1.856913 -13.847075 0
M  V30 38 H 6.040560 3.264068 -14.675545 0
M  V30 39 H 5.011699 2.267780 -13.680228 0
M  V30 40 H 5.422106 4.210267 -12.394777 0
M  V30 41 H 6.424877 2.983361 -11.666916 0
M  V30 42 H 8.416019 3.896002 -12.969746 0
M  V30 43 H 7.342838 4.990465 -13.791278 0
M  V30 44 H 7.686565 4.172405 -10.149098 0
M  V30 45 H 9.285433 4.432165 -10.808807 0
M  V30 46 H 7.688144 6.346688 -9.049578 0
M  V30 47 H 9.197207 5.565178 -8.676209 0
M  V30 48 H 11.710840 7.373981 -11.202819 0
M  V30 49 H 13.778823 8.224788 -10.156165 0
M  V30 50 H 13.743595 8.971415 -7.795128 0
M  V30 51 H 8.086256 8.374007 -11.188706 0
M  V30 52 H 9.706559 8.352551 -11.755346 0
M  V30 53 H 9.531927 6.180126 -12.732466 0
M  V30 54 H 8.086297 7.050740 -13.206235 0
M  V30 55 H 6.887688 5.952355 -11.523072 0
M  V30 END ATOM
M  V30 BEGIN BOND
M  V30 1 2 2 1
M  V30 2 1 3 2
M  V30 3 1 4 3
M  V30 4 2 5 4
M  V30 5 1 6 5
M  V30 6 1 7 6
M  V30 7 2 8 7
M  V30 8 1 9 8
M  V30 9 2 10 9
M  V30 10 1 11 10
M  V30 11 1 12 11
M  V30 12 1 13 12
M  V30 13 1 14 13
M  V30 14 1 15 14
M  V30 15 1 16 15
M  V30 16 1 17 16
M  V30 17 1 18 17
M  V30 18 1 19 18
M  V30 19 1 20 19
M  V30 20 2 21 20
M  V30 21 1 22 21
M  V30 22 2 23 22
M  V30 23 1 24 23
M  V30 24 1 25 24
M  V30 25 1 26 20
M  V30 26 2 26 24
M  V30 27 1 27 26
M  V30 28 1 28 19
M  V30 29 1 29 16
M  V30 30 1 29 28
M  V30 31 2 30 3
M  V30 32 1 30 6
M  V30 33 1 30 10
M  V30 34 1 31 2
M  V30 35 1 32 4
M  V30 36 1 33 7
M  V30 37 1 34 8
M  V30 38 1 35 9
M  V30 39 1 36 12
M  V30 40 1 37 12
M  V30 41 1 38 13
M  V30 42 1 39 13
M  V30 43 1 40 14
M  V30 44 1 41 14
M  V30 45 1 42 15
M  V30 46 1 43 15
M  V30 47 1 44 17
M  V30 48 1 45 17
M  V30 49 1 46 18
M  V30 50 1 47 18
M  V30 51 1 48 21
M  V30 52 1 49 22
M  V30 53 1 50 23
M  V30 54 1 51 28
M  V30 55 1 52 28
M  V30 56 1 53 29
M  V30 57 1 54 29
M  V30 58 1 55 16
M  V30 END BOND
M  V30 END CTAB
M  END
>  <b_m_subgroup_collapsed>  (2578) 
0

>  <r_i_docking_score>  (2578) 
-5.2444186408387896

>  <s_m_subgroup_title>  (2578) 
glide-dock_SP_D22_pv

>  <s_m_subgroupid>  (2578) 
glide-dock_SP_D22_pv

>  <Molecule ChEMBL ID>  (2578) 
CHEMBL3287398

>  <Standard Type>  (2578) 
Ki

>  <Standard Value>  (2578) 
24.0

>  <label>  (2578) 
1

$$$$
CHEMBL201393
     RDKit          3D

  0  0  0  0  0  0  0  0  0  0999 V3000
M  V30 BEGIN CTAB
M  V30 COUNTS 43 47 0 0 1
M  V30 BEGIN ATOM
M  V30 1 C 9.287360 4.927328 -19.144226 0
M  V30 2 C 9.058441 3.606171 -19.568886 0
M  V30 3 C 9.587346 2.526055 -18.836426 0
M  V30 4 C 10.362346 2.752993 -17.673254 0
M  V30 5 C 10.982718 1.603237 -16.865547 0 CFG=2
M  V30 6 C 11.275191 0.336753 -17.683420 0
M  V30 7 C 10.070015 -0.590423 -17.463554 0
M  V30 8 N 9.321212 -0.068093 -16.295973 0 CFG=2 CHG=1
M  V30 9 C 7.894807 0.251989 -16.608395 0
M  V30 10 C 7.145209 0.787317 -15.375089 0
M  V30 11 C 7.913976 1.923892 -14.786027 0
M  V30 12 C 9.264534 2.026424 -14.954261 0
M  V30 13 N 9.726627 3.134046 -14.262809 0
M  V30 14 C 8.675255 3.788070 -13.649891 0
M  V30 15 C 8.622680 4.942163 -12.846704 0
M  V30 16 C 7.388095 5.353993 -12.316145 0
M  V30 17 C 6.221008 4.619291 -12.602479 0
M  V30 18 C 6.278313 3.475623 -13.423973 0
M  V30 19 C 7.505987 3.030172 -13.965226 0
M  V30 20 C 10.118879 1.052288 -15.710361 0 CFG=2
M  V30 21 C 10.602536 4.087455 -17.270855 0
M  V30 22 C 10.063392 5.168332 -17.996494 0
M  V30 23 H 8.874793 5.754824 -19.704058 0
M  V30 24 H 8.473804 3.423244 -20.458904 0
M  V30 25 H 9.393763 1.528667 -19.194862 0
M  V30 26 H 11.916911 1.991523 -16.456749 0
M  V30 27 H 11.498234 0.530454 -18.732958 0
M  V30 28 H 12.156640 -0.152846 -17.271027 0
M  V30 29 H 9.440856 -0.624112 -18.353580 0
M  V30 30 H 10.393466 -1.614370 -17.271191 0
M  V30 31 H 7.851703 0.996417 -17.404142 0
M  V30 32 H 7.393640 -0.639479 -16.987356 0
M  V30 33 H 6.134764 1.090705 -15.648444 0
M  V30 34 H 7.040730 -0.010120 -14.639107 0
M  V30 35 H 10.697669 3.405559 -14.212756 0
M  V30 36 H 9.519804 5.496815 -12.619833 0
M  V30 37 H 7.330905 6.222720 -11.674980 0
M  V30 38 H 5.285536 4.932450 -12.168716 0
M  V30 39 H 5.374926 2.921252 -13.621091 0
M  V30 40 H 10.795584 0.574519 -14.998796 0
M  V30 41 H 11.205468 4.293900 -16.399164 0
M  V30 42 H 10.247832 6.182863 -17.674000 0
M  V30 43 H 9.274130 -0.797511 -15.595865 0
M  V30 END ATOM
M  V30 BEGIN BOND
M  V30 1 2 2 1
M  V30 2 1 3 2
M  V30 3 2 4 3
M  V30 4 1 5 4
M  V30 5 1 6 5
M  V30 6 1 7 6
M  V30 7 1 8 7
M  V30 8 1 9 8
M  V30 9 1 10 9
M  V30 10 1 11 10
M  V30 11 2 12 11
M  V30 12 1 13 12
M  V30 13 1 14 13
M  V30 14 2 15 14
M  V30 15 1 16 15
M  V30 16 2 17 16
M  V30 17 1 18 17
M  V30 18 1 19 11
M  V30 19 1 19 14
M  V30 20 2 19 18
M  V30 21 1 20 5
M  V30 22 1 20 8
M  V30 23 1 20 12
M  V30 24 1 21 4
M  V30 25 1 22 1
M  V30 26 2 22 21
M  V30 27 1 23 1
M  V30 28 1 24 2
M  V30 29 1 25 3
M  V30 30 1 5 26 CFG=1
M  V30 31 1 27 6
M  V30 32 1 28 6
M  V30 33 1 29 7
M  V30 34 1 30 7
M  V30 35 1 31 9
M  V30 36 1 32 9
M  V30 37 1 33 10
M  V30 38 1 34 10
M  V30 39 1 35 13
M  V30 40 1 36 15
M  V30 41 1 37 16
M  V30 42 1 38 17
M  V30 43 1 39 18
M  V30 44 1 20 40 CFG=1
M  V30 45 1 41 21
M  V30 46 1 42 22
M  V30 47 1 8 43 CFG=1
M  V30 END BOND
M  V30 END CTAB
M  END
>  <b_m_subgroup_collapsed>  (2579) 
0

>  <r_i_docking_score>  (2579) 
-5.2415145378828303

>  <s_m_subgroup_title>  (2579) 
glide-dock_SP_D22_pv

>  <s_m_subgroupid>  (2579) 
glide-dock_SP_D22_pv

>  <Molecule ChEMBL ID>  (2579) 
CHEMBL201393

>  <Standard Type>  (2579) 
Ki

>  <Standard Value>  (2579) 
10000.0

>  <label>  (2579) 
0

$$$$
CHEMBL365697
     RDKit          3D

  0  0  0  0  0  0  0  0  0  0999 V3000
M  V30 BEGIN CTAB
M  V30 COUNTS 45 47 0 0 1
M  V30 BEGIN ATOM
M  V30 1 C 12.491517 7.136564 -17.617006 0
M  V30 2 C 11.857533 5.879855 -17.595222 0
M  V30 3 C 11.667133 5.208476 -16.371706 0
M  V30 4 C 12.106000 5.793575 -15.164689 0
M  V30 5 C 11.897358 5.068446 -13.848152 0
M  V30 6 C 10.453403 5.133754 -13.370433 0
M  V30 7 C 9.547099 4.123363 -13.759146 0
M  V30 8 C 8.209764 4.160428 -13.322618 0
M  V30 9 C 7.773177 5.203293 -12.487248 0
M  V30 10 C 8.669329 6.212228 -12.097737 0
M  V30 11 C 10.020354 6.185842 -12.527749 0
M  V30 12 O 10.942364 7.153153 -12.176309 0
M  V30 13 C 10.679818 7.976664 -11.044580 0
M  V30 14 C 10.736066 7.121825 -9.763101 0
M  V30 15 N 10.567354 7.857975 -8.517653 0
M  V30 16 C 11.746178 8.648860 -8.181901 0
M  V30 17 C 11.575211 9.391534 -6.844540 0
M  V30 18 O 11.267584 8.462474 -5.808518 0
M  V30 19 C 10.094228 7.702295 -6.090168 0
M  V30 20 C 10.266713 6.949698 -7.416665 0
M  V30 21 C 12.736530 7.054954 -15.190073 0
M  V30 22 C 12.928100 7.725820 -16.414181 0
M  V30 23 H 12.635441 7.655579 -18.553711 0
M  V30 24 H 11.516508 5.430676 -18.516657 0
M  V30 25 H 11.178568 4.245863 -16.361801 0
M  V30 26 H 12.198926 4.026838 -13.964873 0
M  V30 27 H 12.563637 5.482232 -13.089847 0
M  V30 28 H 9.877272 3.313758 -14.391543 0
M  V30 29 H 7.520051 3.384028 -13.615438 0
M  V30 30 H 6.752939 5.238626 -12.134221 0
M  V30 31 H 8.283689 6.991841 -11.455753 0
M  V30 32 H 11.463023 8.735401 -11.025112 0
M  V30 33 H 9.742386 8.524549 -11.142646 0
M  V30 34 H 9.963078 6.355185 -9.814414 0
M  V30 35 H 11.679822 6.579010 -9.740627 0
M  V30 36 H 12.622947 8.001891 -8.122776 0
M  V30 37 H 11.947248 9.371881 -8.967637 0
M  V30 38 H 12.490979 9.924169 -6.588606 0
M  V30 39 H 10.780083 10.135620 -6.916946 0
M  V30 40 H 9.922734 6.994693 -5.278819 0
M  V30 41 H 9.225526 8.361464 -6.145918 0
M  V30 42 H 9.348992 6.400146 -7.630235 0
M  V30 43 H 11.058925 6.208043 -7.312873 0
M  V30 44 H 13.072179 7.513188 -14.270463 0
M  V30 45 H 13.406071 8.694559 -16.433140 0
M  V30 END ATOM
M  V30 BEGIN BOND
M  V30 1 2 2 1
M  V30 2 1 3 2
M  V30 3 2 4 3
M  V30 4 1 5 4
M  V30 5 1 6 5
M  V30 6 2 7 6
M  V30 7 1 8 7
M  V30 8 2 9 8
M  V30 9 1 10 9
M  V30 10 1 11 6
M  V30 11 2 11 10
M  V30 12 1 12 11
M  V30 13 1 13 12
M  V30 14 1 14 13
M  V30 15 1 15 14
M  V30 16 1 16 15
M  V30 17 1 17 16
M  V30 18 1 18 17
M  V30 19 1 19 18
M  V30 20 1 20 15
M  V30 21 1 20 19
M  V30 22 1 21 4
M  V30 23 1 22 1
M  V30 24 2 22 21
M  V30 25 1 23 1
M  V30 26 1 24 2
M  V30 27 1 25 3
M  V30 28 1 26 5
M  V30 29 1 27 5
M  V30 30 1 28 7
M  V30 31 1 29 8
M  V30 32 1 30 9
M  V30 33 1 31 10
M  V30 34 1 32 13
M  V30 35 1 33 13
M  V30 36 1 34 14
M  V30 37 1 35 14
M  V30 38 1 36 16
M  V30 39 1 37 16
M  V30 40 1 38 17
M  V30 41 1 39 17
M  V30 42 1 40 19
M  V30 43 1 41 19
M  V30 44 1 42 20
M  V30 45 1 43 20
M  V30 46 1 44 21
M  V30 47 1 45 22
M  V30 END BOND
M  V30 END CTAB
M  END
>  <b_m_subgroup_collapsed>  (2580) 
0

>  <r_i_docking_score>  (2580) 
-5.2398061314579696

>  <s_m_subgroup_title>  (2580) 
glide-dock_SP_D22_pv

>  <s_m_subgroupid>  (2580) 
glide-dock_SP_D22_pv

>  <Molecule ChEMBL ID>  (2580) 
CHEMBL365697

>  <Standard Type>  (2580) 
Ki

>  <Standard Value>  (2580) 
10000.0

>  <label>  (2580) 
0

$$$$
CHEMBL5087408
     RDKit          3D

  0  0  0  0  0  0  0  0  0  0999 V3000
M  V30 BEGIN CTAB
M  V30 COUNTS 46 48 0 0 1
M  V30 BEGIN ATOM
M  V30 1 C 12.486155 6.756730 -15.617063 0
M  V30 2 C 12.922516 5.380279 -15.099793 0
M  V30 3 O 11.879501 4.423020 -15.205861 0
M  V30 4 C 10.985270 4.266734 -14.220909 0
M  V30 5 O 10.973003 4.953241 -13.201064 0
M  V30 6 C 9.949099 3.236317 -14.458122 0
M  V30 7 C 9.747959 2.401891 -15.515320 0
M  V30 8 C 10.711679 2.168478 -16.700081 0 CFG=2
M  V30 9 C 10.076224 2.507319 -18.067612 0
M  V30 10 C 8.581299 2.817779 -17.963352 0
M  V30 11 C 7.810659 1.821417 -17.069851 0
M  V30 12 C 8.473307 1.521255 -15.680760 0 CFG=2
M  V30 13 C 7.354990 1.688764 -14.607763 0
M  V30 14 C 6.700688 0.577801 -14.006496 0
M  V30 15 C 5.682827 0.760672 -13.050187 0
M  V30 16 C 5.299260 2.053160 -12.647747 0
M  V30 17 C 5.926101 3.164616 -13.236513 0
M  V30 18 O 5.626617 4.432617 -12.833441 0
M  V30 19 C 6.901338 2.978333 -14.231675 0
M  V30 20 C 8.997099 0.060957 -15.688450 0
M  V30 21 C 10.086446 -0.228753 -16.726765 0
M  V30 22 N 11.176533 0.763606 -16.650036 0 CHG=1
M  V30 23 H 13.318841 7.460342 -15.586530 0
M  V30 24 H 12.133192 6.696812 -16.647188 0
M  V30 25 H 11.685071 7.171156 -15.005241 0
M  V30 26 H 13.276035 5.451397 -14.070926 0
M  V30 27 H 13.764280 5.019742 -15.691907 0
M  V30 28 H 9.241235 3.219751 -13.647347 0
M  V30 29 H 11.644648 2.711826 -16.640364 0
M  V30 30 H 10.575398 3.381840 -18.486488 0
M  V30 31 H 10.244014 1.711589 -18.795544 0
M  V30 32 H 8.485696 3.821227 -17.549212 0
M  V30 33 H 8.137273 2.857975 -18.958426 0
M  V30 34 H 7.629841 0.897950 -17.621243 0
M  V30 35 H 6.810756 2.234422 -16.930042 0
M  V30 36 H 6.951465 -0.442563 -14.245167 0
M  V30 37 H 5.211774 -0.103059 -12.612589 0
M  V30 38 H 4.539486 2.172277 -11.891046 0
M  V30 39 H 5.283597 4.487730 -11.952269 0
M  V30 40 H 7.351950 3.864316 -14.646897 0
M  V30 41 H 9.372559 -0.202876 -14.696828 0
M  V30 42 H 8.185483 -0.626854 -15.913642 0
M  V30 43 H 9.664886 -0.236014 -17.731024 0
M  V30 44 H 10.486075 -1.229462 -16.567972 0
M  V30 45 H 11.828038 0.605572 -17.405581 0
M  V30 46 H 11.669695 0.632721 -15.776326 0
M  V30 END ATOM
M  V30 BEGIN BOND
M  V30 1 1 2 1
M  V30 2 1 3 2
M  V30 3 1 4 3
M  V30 4 2 5 4
M  V30 5 1 6 4
M  V30 6 2 7 6
M  V30 7 1 8 7
M  V30 8 1 9 8
M  V30 9 1 10 9
M  V30 10 1 11 10
M  V30 11 1 12 7
M  V30 12 1 12 11
M  V30 13 1 12 13 CFG=1
M  V30 14 2 14 13
M  V30 15 1 15 14
M  V30 16 2 16 15
M  V30 17 1 17 16
M  V30 18 1 18 17
M  V30 19 1 19 13
M  V30 20 2 19 17
M  V30 21 1 20 12
M  V30 22 1 21 20
M  V30 23 1 22 8
M  V30 24 1 22 21
M  V30 25 1 23 1
M  V30 26 1 24 1
M  V30 27 1 25 1
M  V30 28 1 26 2
M  V30 29 1 27 2
M  V30 30 1 28 6
M  V30 31 1 8 29 CFG=1
M  V30 32 1 30 9
M  V30 33 1 31 9
M  V30 34 1 32 10
M  V30 35 1 33 10
M  V30 36 1 34 11
M  V30 37 1 35 11
M  V30 38 1 36 14
M  V30 39 1 37 15
M  V30 40 1 38 16
M  V30 41 1 39 18
M  V30 42 1 40 19
M  V30 43 1 41 20
M  V30 44 1 42 20
M  V30 45 1 43 21
M  V30 46 1 44 21
M  V30 47 1 45 22
M  V30 48 1 46 22
M  V30 END BOND
M  V30 END CTAB
M  END
>  <b_m_subgroup_collapsed>  (2581) 
0

>  <r_i_docking_score>  (2581) 
-5.2388008964437702

>  <s_m_subgroup_title>  (2581) 
glide-dock_SP_D22_pv

>  <s_m_subgroupid>  (2581) 
glide-dock_SP_D22_pv

>  <Molecule ChEMBL ID>  (2581) 
CHEMBL5087408

>  <Standard Type>  (2581) 
Ki

>  <Standard Value>  (2581) 
100000.0

>  <label>  (2581) 
0

$$$$
CHEMBL494661
     RDKit          3D

  0  0  0  0  0  0  0  0  0  0999 V3000
M  V30 BEGIN CTAB
M  V30 COUNTS 75 77 0 0 1
M  V30 BEGIN ATOM
M  V30 1 C 8.978272 8.786566 -6.818477 0
M  V30 2 C 9.601313 7.472941 -7.241750 0
M  V30 3 C 10.114017 6.671122 -6.036932 0
M  V30 4 C 10.700572 7.704831 -8.274686 0
M  V30 5 C 11.888773 8.289909 -7.794944 0
M  V30 6 C 12.971155 8.515733 -8.647082 0
M  V30 7 C 12.885493 8.172357 -10.002057 0
M  V30 8 C 11.691575 7.659397 -10.515735 0
M  V30 9 C 10.588761 7.418132 -9.670824 0
M  V30 10 N 9.441243 6.910800 -10.293093 0
M  V30 11 C 8.883202 7.611567 -11.448317 0
M  V30 12 C 8.330122 6.616919 -12.483704 0
M  V30 13 N 7.547842 5.514294 -11.863493 0 CHG=1
M  V30 14 C 7.056509 4.559096 -12.878004 0
M  V30 15 C 5.969875 3.616498 -12.346722 0
M  V30 16 C 5.644694 2.569031 -13.398865 0
M  V30 17 C 4.586090 1.574380 -12.920769 0
M  V30 18 C 4.167867 0.463030 -13.914942 0
M  V30 19 C 5.349455 -0.216341 -14.618196 0
M  V30 20 O 6.041139 -1.027317 -14.006968 0
M  V30 21 N 5.587022 0.172197 -15.881499 0
M  V30 22 C 6.723111 -0.187084 -16.716030 0
M  V30 23 C 7.958468 0.662142 -16.434547 0
M  V30 24 C 8.382091 1.631994 -17.369543 0
M  V30 25 C 9.514082 2.429143 -17.105629 0
M  V30 26 C 10.232327 2.262766 -15.904601 0
M  V30 27 O 11.333824 3.029042 -15.644373 0
M  V30 28 S 11.059059 4.452185 -14.785886 0
M  V30 29 C 12.782171 5.049454 -14.650813 0
M  V30 30 O 10.294989 5.360563 -15.651813 0
M  V30 31 O 10.569380 4.091213 -13.447237 0
M  V30 32 C 9.818037 1.293283 -14.973309 0
M  V30 33 C 8.685263 0.501284 -15.235454 0
M  V30 34 C 8.304676 4.820908 -10.795311 0
M  V30 35 C 8.707898 5.799595 -9.720201 0
M  V30 36 H 8.668924 9.371767 -7.685808 0
M  V30 37 H 8.086072 8.572437 -6.236938 0
M  V30 38 H 9.675017 9.372214 -6.220022 0
M  V30 39 H 8.768563 6.910080 -7.622499 0
M  V30 40 H 10.625568 5.772507 -6.375930 0
M  V30 41 H 10.810632 7.235629 -5.418192 0
M  V30 42 H 9.285968 6.367396 -5.399549 0
M  V30 43 H 11.985997 8.574159 -6.758278 0
M  V30 44 H 13.869987 8.972093 -8.262776 0
M  V30 45 H 13.719284 8.362660 -10.660739 0
M  V30 46 H 11.640782 7.427539 -11.569416 0
M  V30 47 H 8.098063 8.292715 -11.123116 0
M  V30 48 H 9.620578 8.254927 -11.927547 0
M  V30 49 H 7.704845 7.152293 -13.198566 0
M  V30 50 H 9.160482 6.191859 -13.045752 0
M  V30 51 H 6.648235 5.101532 -13.727719 0
M  V30 52 H 7.900856 3.984503 -13.263826 0
M  V30 53 H 6.271235 3.091830 -11.445296 0
M  V30 54 H 5.077446 4.186483 -12.087346 0
M  V30 55 H 5.286235 3.113365 -14.257399 0
M  V30 56 H 6.558325 2.050421 -13.690104 0
M  V30 57 H 4.943052 1.103104 -12.004887 0
M  V30 58 H 3.712127 2.172269 -12.647185 0
M  V30 59 H 3.597626 -0.304430 -13.392466 0
M  V30 60 H 3.471789 0.862161 -14.646972 0
M  V30 61 H 4.934612 0.825069 -16.287613 0
M  V30 62 H 6.934259 -1.249005 -16.624811 0
M  V30 63 H 6.423350 -0.046008 -17.754116 0
M  V30 64 H 7.841897 1.768911 -18.294802 0
M  V30 65 H 9.832541 3.169476 -17.825413 0
M  V30 66 H 12.790910 6.024616 -14.165877 0
M  V30 67 H 13.350828 4.345813 -14.048883 0
M  V30 68 H 13.218058 5.130034 -15.645574 0
M  V30 69 H 10.364650 1.165511 -14.051477 0
M  V30 70 H 8.378341 -0.229334 -14.505470 0
M  V30 71 H 7.686189 4.079528 -10.300334 0
M  V30 72 H 9.179566 4.312062 -11.202925 0
M  V30 73 H 9.301533 5.281768 -8.964960 0
M  V30 74 H 7.795315 6.172251 -9.254180 0
M  V30 75 H 6.759844 5.963330 -11.409049 0
M  V30 END ATOM
M  V30 BEGIN BOND
M  V30 1 1 2 1
M  V30 2 1 3 2
M  V30 3 1 4 2
M  V30 4 2 5 4
M  V30 5 1 6 5
M  V30 6 2 7 6
M  V30 7 1 8 7
M  V30 8 1 9 4
M  V30 9 2 9 8
M  V30 10 1 10 9
M  V30 11 1 11 10
M  V30 12 1 12 11
M  V30 13 1 13 12
M  V30 14 1 14 13
M  V30 15 1 15 14
M  V30 16 1 16 15
M  V30 17 1 17 16
M  V30 18 1 18 17
M  V30 19 1 19 18
M  V30 20 2 20 19
M  V30 21 1 21 19
M  V30 22 1 22 21
M  V30 23 1 23 22
M  V30 24 1 24 23
M  V30 25 2 25 24
M  V30 26 1 26 25
M  V30 27 1 27 26
M  V30 28 1 28 27
M  V30 29 1 29 28
M  V30 30 2 30 28
M  V30 31 2 31 28
M  V30 32 2 32 26
M  V30 33 2 33 23
M  V30 34 1 33 32
M  V30 35 1 34 13
M  V30 36 1 35 10
M  V30 37 1 35 34
M  V30 38 1 36 1
M  V30 39 1 37 1
M  V30 40 1 38 1
M  V30 41 1 39 2
M  V30 42 1 40 3
M  V30 43 1 41 3
M  V30 44 1 42 3
M  V30 45 1 43 5
M  V30 46 1 44 6
M  V30 47 1 45 7
M  V30 48 1 46 8
M  V30 49 1 47 11
M  V30 50 1 48 11
M  V30 51 1 49 12
M  V30 52 1 50 12
M  V30 53 1 51 14
M  V30 54 1 52 14
M  V30 55 1 53 15
M  V30 56 1 54 15
M  V30 57 1 55 16
M  V30 58 1 56 16
M  V30 59 1 57 17
M  V30 60 1 58 17
M  V30 61 1 59 18
M  V30 62 1 60 18
M  V30 63 1 61 21
M  V30 64 1 62 22
M  V30 65 1 63 22
M  V30 66 1 64 24
M  V30 67 1 65 25
M  V30 68 1 66 29
M  V30 69 1 67 29
M  V30 70 1 68 29
M  V30 71 1 69 32
M  V30 72 1 70 33
M  V30 73 1 71 34
M  V30 74 1 72 34
M  V30 75 1 73 35
M  V30 76 1 74 35
M  V30 77 1 75 13
M  V30 END BOND
M  V30 END CTAB
M  END
>  <b_m_subgroup_collapsed>  (2582) 
0

>  <r_i_docking_score>  (2582) 
-5.2383685437837597

>  <s_m_subgroup_title>  (2582) 
glide-dock_SP_D22_pv

>  <s_m_subgroupid>  (2582) 
glide-dock_SP_D22_pv

>  <Molecule ChEMBL ID>  (2582) 
CHEMBL494661

>  <Standard Type>  (2582) 
Ki

>  <Standard Value>  (2582) 
7.8

>  <label>  (2582) 
1

$$$$
CHEMBL317825
     RDKit          3D

  0  0  0  0  0  0  0  0  0  0999 V3000
M  V30 BEGIN CTAB
M  V30 COUNTS 32 34 0 0 1
M  V30 BEGIN ATOM
M  V30 1 C 5.876333 0.885487 -18.744741 0
M  V30 2 C 6.870988 0.149190 -17.831320 0
M  V30 3 C 7.309184 -1.184573 -18.460468 0
M  V30 4 N 6.291984 -0.038402 -16.504292 0
M  V30 5 N 5.147901 -0.754580 -16.388325 0
M  V30 6 C 4.785111 -0.640834 -15.122210 0
M  V30 7 C 5.681166 0.172358 -14.376352 0
M  V30 8 C 6.656002 0.489812 -15.273680 0
M  V30 9 C 7.806266 1.343127 -14.999949 0
M  V30 10 C 9.130534 1.113866 -15.302628 0
M  V30 11 Cl 9.856295 -0.227367 -16.096333 0
M  V30 12 S 10.201002 2.357123 -14.727281 0
M  V30 13 C 8.846829 3.201413 -14.046758 0
M  V30 14 Cl 9.149135 4.683422 -13.229815 0
M  V30 15 C 7.650408 2.556918 -14.247134 0
M  V30 16 C 6.311467 3.070118 -13.773887 0
M  V30 17 C 5.534476 2.163475 -12.780622 0
M  V30 18 C 5.615610 0.623127 -12.945570 0
M  V30 19 H 6.345649 1.191348 -19.679916 0
M  V30 20 H 5.480291 1.772382 -18.253157 0
M  V30 21 H 5.024343 0.252232 -18.995144 0
M  V30 22 H 7.748364 0.785527 -17.727978 0
M  V30 23 H 7.756045 -1.024607 -19.441635 0
M  V30 24 H 6.463742 -1.861575 -18.588833 0
M  V30 25 H 8.048675 -1.695624 -17.846855 0
M  V30 26 H 3.873335 -1.120436 -14.797083 0
M  V30 27 H 6.416340 4.056194 -13.320852 0
M  V30 28 H 5.686094 3.248690 -14.646735 0
M  V30 29 H 5.845010 2.410071 -11.766356 0
M  V30 30 H 4.486730 2.462152 -12.829289 0
M  V30 31 H 4.768119 0.172350 -12.436034 0
M  V30 32 H 6.486019 0.246887 -12.410546 0
M  V30 END ATOM
M  V30 BEGIN BOND
M  V30 1 1 2 1
M  V30 2 1 3 2
M  V30 3 1 4 2
M  V30 4 1 5 4
M  V30 5 2 6 5
M  V30 6 1 7 6
M  V30 7 1 8 4
M  V30 8 2 8 7
M  V30 9 1 9 8
M  V30 10 2 10 9
M  V30 11 1 11 10
M  V30 12 1 12 10
M  V30 13 1 13 12
M  V30 14 1 14 13
M  V30 15 1 15 9
M  V30 16 2 15 13
M  V30 17 1 16 15
M  V30 18 1 17 16
M  V30 19 1 18 7
M  V30 20 1 18 17
M  V30 21 1 19 1
M  V30 22 1 20 1
M  V30 23 1 21 1
M  V30 24 1 22 2
M  V30 25 1 23 3
M  V30 26 1 24 3
M  V30 27 1 25 3
M  V30 28 1 26 6
M  V30 29 1 27 16
M  V30 30 1 28 16
M  V30 31 1 29 17
M  V30 32 1 30 17
M  V30 33 1 31 18
M  V30 34 1 32 18
M  V30 END BOND
M  V30 END CTAB
M  END
>  <b_m_subgroup_collapsed>  (2583) 
0

>  <r_i_docking_score>  (2583) 
-5.2368346252189699

>  <s_m_subgroup_title>  (2583) 
glide-dock_SP_D22_pv

>  <s_m_subgroupid>  (2583) 
glide-dock_SP_D22_pv

>  <Molecule ChEMBL ID>  (2583) 
CHEMBL317825

>  <Standard Type>  (2583) 
Ki

>  <Standard Value>  (2583) 
10000.0

>  <label>  (2583) 
0

$$$$
CHEMBL595609
     RDKit          3D

  0  0  0  0  0  0  0  0  0  0999 V3000
M  V30 BEGIN CTAB
M  V30 COUNTS 47 51 0 0 1
M  V30 BEGIN ATOM
M  V30 1 C 7.540104 -0.166396 -14.287116 0
M  V30 2 N 7.231902 0.423657 -15.577818 0
M  V30 3 C 7.865416 1.439723 -16.221525 0
M  V30 4 C 9.089483 2.131234 -15.671152 0
M  V30 5 N 8.816252 3.373296 -14.948740 0
M  V30 6 C 10.049842 4.117878 -14.687117 0
M  V30 7 C 9.662373 5.454864 -14.020204 0
M  V30 8 N 9.064336 5.254493 -12.703655 0
M  V30 9 C 9.464043 5.869155 -11.512141 0
M  V30 10 N 10.312171 6.908789 -11.461844 0
M  V30 11 C 10.527330 7.285001 -10.135777 0
M  V30 12 C 11.374740 8.318269 -9.671181 0
M  V30 13 C 11.515739 8.579140 -8.293299 0
M  V30 14 C 10.806307 7.815535 -7.347504 0
M  V30 15 C 9.961591 6.778051 -7.779942 0
M  V30 16 C 9.834950 6.514523 -9.155886 0
M  V30 17 S 8.886060 5.270088 -9.948545 0
M  V30 18 C 7.873357 4.427904 -12.907798 0
M  V30 19 C 8.202625 3.116701 -13.647879 0
M  V30 20 N 7.354280 1.774267 -17.410244 0
M  V30 21 C 6.314982 0.876342 -17.560633 0
M  V30 22 C 5.403610 0.699988 -18.627686 0
M  V30 23 C 4.415207 -0.306000 -18.566628 0
M  V30 24 C 4.320639 -1.142775 -17.433762 0
M  V30 25 C 5.215645 -0.980616 -16.357492 0
M  V30 26 C 6.205956 0.019629 -16.428673 0
M  V30 27 H 7.140971 -1.175030 -14.238280 0
M  V30 28 H 8.615057 -0.213801 -14.134715 0
M  V30 29 H 7.082164 0.410214 -13.487400 0
M  V30 30 H 9.724648 2.369141 -16.526278 0
M  V30 31 H 9.671367 1.447644 -15.051007 0
M  V30 32 H 10.561073 4.319966 -15.630754 0
M  V30 33 H 10.738932 3.551195 -14.058087 0
M  V30 34 H 8.918336 5.942303 -14.646979 0
M  V30 35 H 10.520441 6.133376 -13.957708 0
M  V30 36 H 11.923017 8.914972 -10.385482 0
M  V30 37 H 12.170490 9.371942 -7.959933 0
M  V30 38 H 10.909420 8.025046 -6.292953 0
M  V30 39 H 9.411067 6.184669 -7.063252 0
M  V30 40 H 7.405151 4.192946 -11.953364 0
M  V30 41 H 7.135569 5.002336 -13.468307 0
M  V30 42 H 7.279117 2.558074 -13.780389 0
M  V30 43 H 8.890285 2.522236 -13.049029 0
M  V30 44 H 5.466282 1.335334 -19.498173 0
M  V30 45 H 3.722993 -0.432078 -19.386955 0
M  V30 46 H 3.564701 -1.916341 -17.394033 0
M  V30 47 H 5.149960 -1.631665 -15.497917 0
M  V30 END ATOM
M  V30 BEGIN BOND
M  V30 1 1 2 1
M  V30 2 1 3 2
M  V30 3 1 4 3
M  V30 4 1 5 4
M  V30 5 1 6 5
M  V30 6 1 7 6
M  V30 7 1 8 7
M  V30 8 1 9 8
M  V30 9 2 10 9
M  V30 10 1 11 10
M  V30 11 2 12 11
M  V30 12 1 13 12
M  V30 13 2 14 13
M  V30 14 1 15 14
M  V30 15 1 16 11
M  V30 16 2 16 15
M  V30 17 1 17 9
M  V30 18 1 17 16
M  V30 19 1 18 8
M  V30 20 1 19 5
M  V30 21 1 19 18
M  V30 22 2 20 3
M  V30 23 1 21 20
M  V30 24 2 22 21
M  V30 25 1 23 22
M  V30 26 2 24 23
M  V30 27 1 25 24
M  V30 28 1 26 2
M  V30 29 1 26 21
M  V30 30 2 26 25
M  V30 31 1 27 1
M  V30 32 1 28 1
M  V30 33 1 29 1
M  V30 34 1 30 4
M  V30 35 1 31 4
M  V30 36 1 32 6
M  V30 37 1 33 6
M  V30 38 1 34 7
M  V30 39 1 35 7
M  V30 40 1 36 12
M  V30 41 1 37 13
M  V30 42 1 38 14
M  V30 43 1 39 15
M  V30 44 1 40 18
M  V30 45 1 41 18
M  V30 46 1 42 19
M  V30 47 1 43 19
M  V30 48 1 44 22
M  V30 49 1 45 23
M  V30 50 1 46 24
M  V30 51 1 47 25
M  V30 END BOND
M  V30 END CTAB
M  END
>  <b_m_subgroup_collapsed>  (2584) 
0

>  <r_i_docking_score>  (2584) 
-5.2359266629087298

>  <s_m_subgroup_title>  (2584) 
glide-dock_SP_D22_pv

>  <s_m_subgroupid>  (2584) 
glide-dock_SP_D22_pv

>  <Molecule ChEMBL ID>  (2584) 
CHEMBL595609

>  <Standard Type>  (2584) 
Ki

>  <Standard Value>  (2584) 
10000.0

>  <label>  (2584) 
0

$$$$
CHEMBL317488
     RDKit          3D

  0  0  0  0  0  0  0  0  0  0999 V3000
M  V30 BEGIN CTAB
M  V30 COUNTS 45 45 0 0 1
M  V30 BEGIN ATOM
M  V30 1 C 6.341307 6.172534 -12.487424 0
M  V30 2 C 6.741579 4.926978 -13.293027 0
M  V30 3 C 5.472173 4.258448 -13.840554 0
M  V30 4 C 7.562151 3.904705 -12.484680 0
M  V30 5 C 9.073380 4.188015 -12.275397 0 CFG=2
M  V30 6 N 9.285540 5.458351 -11.587933 0
M  V30 7 C 9.285818 5.633517 -10.257012 0
M  V30 8 O 9.260937 4.705884 -9.446765 0
M  V30 9 C 9.320229 7.077956 -9.753371 0 CFG=2
M  V30 10 C 10.738153 7.661584 -9.768247 0
M  V30 11 C 10.680099 8.724888 -8.680020 0
M  V30 12 C 9.728744 8.130228 -7.636977 0
M  V30 13 N 8.886025 7.145027 -8.343128 0 CHG=1
M  V30 14 C 9.899051 4.065253 -13.560097 0
M  V30 15 O 10.075841 5.046358 -14.280334 0
M  V30 16 N 10.359302 2.838853 -13.852107 0
M  V30 17 C 11.002579 2.449674 -15.107525 0
M  V30 18 C 10.475618 1.116585 -15.662148 0
M  V30 19 N 9.455551 0.513155 -15.045546 0
M  V30 20 O 10.995606 0.619636 -16.656033 0
M  V30 21 H 5.847336 5.898446 -11.554136 0
M  V30 22 H 7.195758 6.801270 -12.246827 0
M  V30 23 H 5.652805 6.806719 -13.044799 0
M  V30 24 H 7.351696 5.230925 -14.141188 0
M  V30 25 H 4.862902 3.847371 -13.034538 0
M  V30 26 H 4.854496 4.972354 -14.383499 0
M  V30 27 H 5.715802 3.445246 -14.523817 0
M  V30 28 H 7.489805 2.972462 -13.047190 0
M  V30 29 H 7.075488 3.741769 -11.521614 0
M  V30 30 H 9.467607 3.404186 -11.627258 0
M  V30 31 H 9.340879 6.271945 -12.184251 0
M  V30 32 H 8.659366 7.701917 -10.355115 0
M  V30 33 H 11.481015 6.908216 -9.504082 0
M  V30 34 H 11.012823 8.075662 -10.739761 0
M  V30 35 H 11.660592 8.973250 -8.271091 0
M  V30 36 H 10.250790 9.637709 -9.095656 0
M  V30 37 H 10.287115 7.611944 -6.856400 0
M  V30 38 H 9.116635 8.897333 -7.160220 0
M  V30 39 H 7.892528 7.371682 -8.298617 0
M  V30 40 H 10.227148 2.105977 -13.164371 0
M  V30 41 H 12.080737 2.384042 -14.960335 0
M  V30 42 H 10.845788 3.206959 -15.876908 0
M  V30 43 H 9.025624 0.936558 -14.237326 0
M  V30 44 H 9.101218 -0.357718 -15.417885 0
M  V30 45 H 9.026380 6.222661 -7.952963 0
M  V30 END ATOM
M  V30 BEGIN BOND
M  V30 1 1 2 1
M  V30 2 1 3 2
M  V30 3 1 4 2
M  V30 4 1 5 4
M  V30 5 1 6 5
M  V30 6 1 7 6
M  V30 7 2 8 7
M  V30 8 1 9 7
M  V30 9 1 10 9
M  V30 10 1 11 10
M  V30 11 1 12 11
M  V30 12 1 13 9
M  V30 13 1 13 12
M  V30 14 1 14 5
M  V30 15 2 15 14
M  V30 16 1 16 14
M  V30 17 1 17 16
M  V30 18 1 18 17
M  V30 19 1 19 18
M  V30 20 2 20 18
M  V30 21 1 21 1
M  V30 22 1 22 1
M  V30 23 1 23 1
M  V30 24 1 24 2
M  V30 25 1 25 3
M  V30 26 1 26 3
M  V30 27 1 27 3
M  V30 28 1 28 4
M  V30 29 1 29 4
M  V30 30 1 5 30 CFG=1
M  V30 31 1 31 6
M  V30 32 1 9 32 CFG=3
M  V30 33 1 33 10
M  V30 34 1 34 10
M  V30 35 1 35 11
M  V30 36 1 36 11
M  V30 37 1 37 12
M  V30 38 1 38 12
M  V30 39 1 39 13
M  V30 40 1 40 16
M  V30 41 1 41 17
M  V30 42 1 42 17
M  V30 43 1 43 19
M  V30 44 1 44 19
M  V30 45 1 45 13
M  V30 END BOND
M  V30 END CTAB
M  END
>  <b_m_subgroup_collapsed>  (2585) 
0

>  <r_i_docking_score>  (2585) 
-5.2338472256972004

>  <s_m_subgroup_title>  (2585) 
glide-dock_SP_D22_pv

>  <s_m_subgroupid>  (2585) 
glide-dock_SP_D22_pv

>  <Molecule ChEMBL ID>  (2585) 
CHEMBL317488

>  <Standard Type>  (2585) 
Ki

>  <Standard Value>  (2585) 
0.04

>  <label>  (2585) 
1

$$$$
CHEMBL2159477
     RDKit          3D

  0  0  0  0  0  0  0  0  0  0999 V3000
M  V30 BEGIN CTAB
M  V30 COUNTS 61 64 0 0 1
M  V30 BEGIN ATOM
M  V30 1 C 8.891370 8.571192 -7.095673 0
M  V30 2 C 9.652304 7.284302 -7.436890 0
M  V30 3 C 10.288546 6.672736 -6.176749 0
M  V30 4 C 10.657268 7.542881 -8.560979 0
M  V30 5 C 11.976098 7.938668 -8.257180 0
M  V30 6 C 12.898298 8.172394 -9.287572 0
M  V30 7 C 12.485624 8.145070 -10.629584 0
M  V30 8 C 11.171807 7.771018 -10.945806 0
M  V30 9 C 10.262669 7.422223 -9.918116 0
M  V30 10 O 8.981032 7.001262 -10.154577 0
M  V30 11 C 8.591647 6.528488 -11.434358 0
M  V30 12 C 7.912305 5.189287 -11.161886 0
M  V30 13 N 7.069729 4.716737 -12.286205 0 CFG=2 CHG=1
M  V30 14 C 6.084029 3.698575 -11.881220 0
M  V30 15 C 5.775682 2.873501 -13.131046 0
M  V30 16 C 6.962579 3.069505 -14.082013 0 CFG=2
M  V30 17 N 7.738454 1.831311 -14.247335 0
M  V30 18 S 7.988979 1.121038 -15.800426 0
M  V30 19 O 9.099155 0.172016 -15.645927 0
M  V30 20 O 8.086497 2.229719 -16.759434 0
M  V30 21 C 6.473649 0.186590 -16.069969 0
M  V30 22 C 5.943105 -0.485733 -14.947897 0
M  V30 23 C 4.778950 -1.260735 -15.071228 0
M  V30 24 C 4.139763 -1.371078 -16.316303 0
M  V30 25 C 4.666781 -0.704326 -17.439980 0
M  V30 26 C 4.015250 -0.831432 -18.683508 0
M  V30 27 C 4.553041 -0.173145 -19.801994 0
M  V30 28 C 5.720371 0.582035 -19.626764 0
M  V30 29 N 6.344729 0.716997 -18.440397 0
M  V30 30 C 5.847388 0.092256 -17.343487 0
M  V30 31 C 7.816139 4.188118 -13.454362 0
M  V30 32 H 8.381688 8.968997 -7.973139 0
M  V30 33 H 8.140045 8.386109 -6.329884 0
M  V30 34 H 9.573239 9.340881 -6.732721 0
M  V30 35 H 8.925469 6.553064 -7.791554 0
M  V30 36 H 10.877807 5.790723 -6.429018 0
M  V30 37 H 10.941602 7.375969 -5.657756 0
M  V30 38 H 9.522449 6.370518 -5.464161 0
M  V30 39 H 12.294162 8.065861 -7.235848 0
M  V30 40 H 13.906395 8.480145 -9.049583 0
M  V30 41 H 13.181898 8.408319 -11.414911 0
M  V30 42 H 10.895624 7.771451 -11.988305 0
M  V30 43 H 9.389869 6.363658 -12.154578 0
M  V30 44 H 7.894396 7.250781 -11.848673 0
M  V30 45 H 7.286219 5.349770 -10.290600 0
M  V30 46 H 8.644363 4.434448 -10.869467 0
M  V30 47 H 5.193400 4.172604 -11.468961 0
M  V30 48 H 6.486855 3.055874 -11.098884 0
M  V30 49 H 4.885413 3.281275 -13.604862 0
M  V30 50 H 5.567136 1.827987 -12.896276 0
M  V30 51 H 6.561976 3.372020 -15.046309 0
M  V30 52 H 8.585877 1.793006 -13.678631 0
M  V30 53 H 6.442002 -0.434013 -13.993340 0
M  V30 54 H 4.387572 -1.795886 -14.220222 0
M  V30 55 H 3.259510 -1.993856 -16.406891 0
M  V30 56 H 3.115174 -1.422700 -18.779524 0
M  V30 57 H 4.086279 -0.250826 -20.773417 0
M  V30 58 H 6.164908 1.102420 -20.463165 0
M  V30 59 H 8.777635 3.791532 -13.120482 0
M  V30 60 H 8.035151 4.985270 -14.169843 0
M  V30 61 H 6.529471 5.510194 -12.604812 0
M  V30 END ATOM
M  V30 BEGIN BOND
M  V30 1 1 2 1
M  V30 2 1 3 2
M  V30 3 1 4 2
M  V30 4 2 5 4
M  V30 5 1 6 5
M  V30 6 2 7 6
M  V30 7 1 8 7
M  V30 8 1 9 4
M  V30 9 2 9 8
M  V30 10 1 10 9
M  V30 11 1 11 10
M  V30 12 1 12 11
M  V30 13 1 13 12
M  V30 14 1 14 13
M  V30 15 1 15 14
M  V30 16 1 16 15
M  V30 17 1 17 16
M  V30 18 1 18 17
M  V30 19 2 19 18
M  V30 20 2 20 18
M  V30 21 1 21 18
M  V30 22 2 22 21
M  V30 23 1 23 22
M  V30 24 2 24 23
M  V30 25 1 25 24
M  V30 26 2 26 25
M  V30 27 1 27 26
M  V30 28 2 28 27
M  V30 29 1 29 28
M  V30 30 1 30 21
M  V30 31 1 30 25
M  V30 32 2 30 29
M  V30 33 1 31 13
M  V30 34 1 31 16
M  V30 35 1 32 1
M  V30 36 1 33 1
M  V30 37 1 34 1
M  V30 38 1 35 2
M  V30 39 1 36 3
M  V30 40 1 37 3
M  V30 41 1 38 3
M  V30 42 1 39 5
M  V30 43 1 40 6
M  V30 44 1 41 7
M  V30 45 1 42 8
M  V30 46 1 43 11
M  V30 47 1 44 11
M  V30 48 1 45 12
M  V30 49 1 46 12
M  V30 50 1 47 14
M  V30 51 1 48 14
M  V30 52 1 49 15
M  V30 53 1 50 15
M  V30 54 1 16 51 CFG=3
M  V30 55 1 52 17
M  V30 56 1 53 22
M  V30 57 1 54 23
M  V30 58 1 55 24
M  V30 59 1 56 26
M  V30 60 1 57 27
M  V30 61 1 58 28
M  V30 62 1 59 31
M  V30 63 1 60 31
M  V30 64 1 13 61 CFG=3
M  V30 END BOND
M  V30 END CTAB
M  END
>  <b_m_subgroup_collapsed>  (2586) 
0

>  <r_i_docking_score>  (2586) 
-5.22350951638981

>  <s_m_subgroup_title>  (2586) 
glide-dock_SP_D22_pv

>  <s_m_subgroupid>  (2586) 
glide-dock_SP_D22_pv

>  <Molecule ChEMBL ID>  (2586) 
CHEMBL2159477

>  <Standard Type>  (2586) 
Ki

>  <Standard Value>  (2586) 
10.0

>  <label>  (2586) 
1

$$$$
CHEMBL293158
     RDKit          3D

  0  0  0  0  0  0  0  0  0  0999 V3000
M  V30 BEGIN CTAB
M  V30 COUNTS 36 38 0 0 1
M  V30 BEGIN ATOM
M  V30 1 C 9.748079 6.517629 -11.710903 0
M  V30 2 N 8.989438 5.382999 -12.284749 0 CFG=1 CHG=1
M  V30 3 C 7.724263 5.829389 -12.899543 0
M  V30 4 C 6.777004 4.638280 -13.081815 0
M  V30 5 C 7.459502 3.432701 -13.704617 0
M  V30 6 C 6.670783 2.378358 -14.206430 0
M  V30 7 C 7.271719 1.209079 -14.707473 0
M  V30 8 Cl 6.274677 -0.085434 -15.265463 0
M  V30 9 C 8.676837 1.097909 -14.734256 0
M  V30 10 O 9.275517 -0.031397 -15.218392 0
M  V30 11 C 9.469391 2.157275 -14.246950 0
M  V30 12 C 8.872311 3.321628 -13.708750 0
M  V30 13 C 9.763239 4.442496 -13.162520 0 CFG=1
M  V30 14 C 10.575858 5.104617 -14.289104 0
M  V30 15 C 11.837611 5.685083 -14.018343 0
M  V30 16 C 12.604125 6.262293 -15.047230 0
M  V30 17 C 12.130222 6.252422 -16.370090 0
M  V30 18 C 10.887196 5.663191 -16.661425 0
M  V30 19 C 10.115667 5.097014 -15.629218 0
M  V30 20 H 10.071226 7.217787 -12.483078 0
M  V30 21 H 9.127617 7.066871 -10.999907 0
M  V30 22 H 10.620633 6.172505 -11.163189 0
M  V30 23 H 7.966444 6.302166 -13.846290 0
M  V30 24 H 7.232131 6.585528 -12.283753 0
M  V30 25 H 5.920320 4.935737 -13.687378 0
M  V30 26 H 6.379900 4.333577 -12.110998 0
M  V30 27 H 5.595269 2.450066 -14.173574 0
M  V30 28 H 8.656274 -0.715098 -15.445629 0
M  V30 29 H 10.545140 2.062095 -14.262531 0
M  V30 30 H 10.483981 3.953056 -12.507252 0
M  V30 31 H 12.238520 5.701947 -13.018263 0
M  V30 32 H 13.561220 6.710665 -14.819985 0
M  V30 33 H 12.719112 6.693149 -17.161135 0
M  V30 34 H 10.523293 5.652619 -17.678833 0
M  V30 35 H 9.164037 4.659139 -15.888126 0
M  V30 36 H 8.704426 4.828910 -11.489017 0
M  V30 END ATOM
M  V30 BEGIN BOND
M  V30 1 1 2 1
M  V30 2 1 3 2
M  V30 3 1 4 3
M  V30 4 1 5 4
M  V30 5 1 6 5
M  V30 6 2 7 6
M  V30 7 1 8 7
M  V30 8 1 9 7
M  V30 9 1 10 9
M  V30 10 2 11 9
M  V30 11 2 12 5
M  V30 12 1 12 11
M  V30 13 1 13 2
M  V30 14 1 13 12
M  V30 15 1 14 13
M  V30 16 2 15 14
M  V30 17 1 16 15
M  V30 18 2 17 16
M  V30 19 1 18 17
M  V30 20 1 19 14
M  V30 21 2 19 18
M  V30 22 1 20 1
M  V30 23 1 21 1
M  V30 24 1 22 1
M  V30 25 1 23 3
M  V30 26 1 24 3
M  V30 27 1 25 4
M  V30 28 1 26 4
M  V30 29 1 27 6
M  V30 30 1 28 10
M  V30 31 1 29 11
M  V30 32 1 13 30 CFG=1
M  V30 33 1 31 15
M  V30 34 1 32 16
M  V30 35 1 33 17
M  V30 36 1 34 18
M  V30 37 1 35 19
M  V30 38 1 2 36 CFG=1
M  V30 END BOND
M  V30 END CTAB
M  END
>  <b_m_subgroup_collapsed>  (2587) 
0

>  <r_i_docking_score>  (2587) 
-5.2219819754440797

>  <s_m_subgroup_title>  (2587) 
glide-dock_SP_D22_pv

>  <s_m_subgroupid>  (2587) 
glide-dock_SP_D22_pv

>  <Molecule ChEMBL ID>  (2587) 
CHEMBL293158

>  <Standard Type>  (2587) 
Ki

>  <Standard Value>  (2587) 
19054.61

>  <label>  (2587) 
0

$$$$
CHEMBL201010
     RDKit          3D

  0  0  0  0  0  0  0  0  0  0999 V3000
M  V30 BEGIN CTAB
M  V30 COUNTS 49 53 0 0 1
M  V30 BEGIN ATOM
M  V30 1 C 10.356646 5.093344 -16.843487 0
M  V30 2 N 11.022756 4.199288 -15.845662 0 CFG=2 CHG=1
M  V30 3 C 12.508320 4.325052 -15.973673 0
M  V30 4 C 13.065662 3.747025 -17.295677 0
M  V30 5 C 12.573347 2.314426 -17.596161 0
M  V30 6 C 11.056313 2.113481 -17.377302 0 CFG=2
M  V30 7 C 10.158754 2.401316 -18.598774 0
M  V30 8 C 8.906433 1.756575 -18.723219 0
M  V30 9 C 8.088816 1.960365 -19.851448 0
M  V30 10 C 8.509083 2.822069 -20.876545 0
M  V30 11 C 9.763961 3.449653 -20.787603 0
M  V30 12 C 10.587528 3.226383 -19.667236 0
M  V30 13 C 10.662350 2.735610 -15.997272 0 CFG=2
M  V30 14 C 9.300994 2.421383 -15.443519 0
M  V30 15 N 8.673795 1.186648 -15.485244 0
M  V30 16 C 7.485206 1.225344 -14.781737 0
M  V30 17 C 6.501123 0.250947 -14.530800 0
M  V30 18 C 5.395472 0.579831 -13.723308 0
M  V30 19 C 5.286103 1.874126 -13.175173 0
M  V30 20 C 6.266100 2.849376 -13.447960 0
M  V30 21 C 7.393538 2.545110 -14.245605 0
M  V30 22 C 8.584774 3.247532 -14.626585 0
M  V30 23 C 9.085150 4.597446 -14.234334 0
M  V30 24 C 10.614408 4.677242 -14.478741 0
M  V30 25 H 9.288391 4.900155 -16.925591 0
M  V30 26 H 10.763265 5.008934 -17.842552 0
M  V30 27 H 10.485086 6.141688 -16.571911 0
M  V30 28 H 12.808185 5.369196 -15.874599 0
M  V30 29 H 12.984107 3.799341 -15.146307 0
M  V30 30 H 12.844317 4.419388 -18.121723 0
M  V30 31 H 14.154854 3.741554 -17.244471 0
M  V30 32 H 12.887092 1.981758 -18.584909 0
M  V30 33 H 13.088626 1.655275 -16.901356 0
M  V30 34 H 10.948057 1.033793 -17.255293 0
M  V30 35 H 8.561312 1.069031 -17.971918 0
M  V30 36 H 7.139124 1.449333 -19.930643 0
M  V30 37 H 7.885078 2.984499 -21.742905 0
M  V30 38 H 10.103459 4.093793 -21.584824 0
M  V30 39 H 11.551796 3.704285 -19.658922 0
M  V30 40 H 11.327600 2.227138 -15.291986 0
M  V30 41 H 9.054160 0.370076 -15.941483 0
M  V30 42 H 6.594237 -0.744506 -14.946497 0
M  V30 43 H 4.629679 -0.158312 -13.529356 0
M  V30 44 H 4.442221 2.132221 -12.551520 0
M  V30 45 H 6.177957 3.833288 -13.010132 0
M  V30 46 H 8.557103 5.373628 -14.789156 0
M  V30 47 H 8.873490 4.789386 -13.181632 0
M  V30 48 H 11.118091 4.064363 -13.727262 0
M  V30 49 H 10.961491 5.697254 -14.307116 0
M  V30 END ATOM
M  V30 BEGIN BOND
M  V30 1 1 2 1 CFG=3
M  V30 2 1 3 2
M  V30 3 1 4 3
M  V30 4 1 5 4
M  V30 5 1 6 5
M  V30 6 1 7 6
M  V30 7 2 8 7
M  V30 8 1 9 8
M  V30 9 2 10 9
M  V30 10 1 11 10
M  V30 11 1 12 7
M  V30 12 2 12 11
M  V30 13 1 13 2
M  V30 14 1 13 6
M  V30 15 1 14 13
M  V30 16 1 15 14
M  V30 17 1 16 15
M  V30 18 2 17 16
M  V30 19 1 18 17
M  V30 20 2 19 18
M  V30 21 1 20 19
M  V30 22 1 21 16
M  V30 23 2 21 20
M  V30 24 2 22 14
M  V30 25 1 22 21
M  V30 26 1 23 22
M  V30 27 1 24 2
M  V30 28 1 24 23
M  V30 29 1 25 1
M  V30 30 1 26 1
M  V30 31 1 27 1
M  V30 32 1 28 3
M  V30 33 1 29 3
M  V30 34 1 30 4
M  V30 35 1 31 4
M  V30 36 1 32 5
M  V30 37 1 33 5
M  V30 38 1 6 34 CFG=1
M  V30 39 1 35 8
M  V30 40 1 36 9
M  V30 41 1 37 10
M  V30 42 1 38 11
M  V30 43 1 39 12
M  V30 44 1 13 40 CFG=1
M  V30 45 1 41 15
M  V30 46 1 42 17
M  V30 47 1 43 18
M  V30 48 1 44 19
M  V30 49 1 45 20
M  V30 50 1 46 23
M  V30 51 1 47 23
M  V30 52 1 48 24
M  V30 53 1 49 24
M  V30 END BOND
M  V30 END CTAB
M  END
>  <b_m_subgroup_collapsed>  (2588) 
0

>  <r_i_docking_score>  (2588) 
-5.2210607399705999

>  <s_m_subgroup_title>  (2588) 
glide-dock_SP_D22_pv

>  <s_m_subgroupid>  (2588) 
glide-dock_SP_D22_pv

>  <Molecule ChEMBL ID>  (2588) 
CHEMBL201010

>  <Standard Type>  (2588) 
Ki

>  <Standard Value>  (2588) 
10000.0

>  <label>  (2588) 
0

$$$$
CHEMBL485017
     RDKit          3D

  0  0  0  0  0  0  0  0  0  0999 V3000
M  V30 BEGIN CTAB
M  V30 COUNTS 43 46 0 0 1
M  V30 BEGIN ATOM
M  V30 1 C 9.459950 6.181238 -7.824194 0
M  V30 2 C 9.183414 6.726208 -9.231688 0
M  V30 3 C 8.626319 5.646038 -10.180708 0
M  V30 4 N 8.097469 6.172324 -11.476402 0 CFG=1 CHG=1
M  V30 5 C 9.034938 7.050189 -12.228790 0
M  V30 6 C 10.188665 6.227173 -12.844587 0
M  V30 7 O 9.646057 5.231490 -13.705449 0
M  V30 8 C 8.774281 4.327687 -13.029498 0 CFG=2
M  V30 9 C 8.325210 3.188698 -13.932731 0
M  V30 10 C 9.272882 2.579797 -14.782401 0
M  V30 11 C 8.951876 1.454140 -15.578121 0
M  V30 12 C 9.954194 0.843213 -16.490767 0
M  V30 13 N 9.776711 -0.350071 -17.078518 0
M  V30 14 N 10.871571 -0.472789 -17.843746 0
M  V30 15 N 11.658237 0.602036 -17.689337 0
M  V30 16 N 11.097341 1.463422 -16.824869 0 CHG=-1
M  V30 17 C 7.638779 0.935675 -15.473882 0
M  V30 18 C 6.685181 1.530396 -14.628886 0
M  V30 19 C 7.008803 2.667168 -13.863002 0
M  V30 20 C 5.941033 3.297113 -12.972935 0
M  V30 21 C 6.494876 4.217334 -11.871283 0
M  V30 22 C 7.596918 5.133348 -12.424343 0 CFG=1
M  V30 23 H 9.850321 6.962464 -7.171285 0
M  V30 24 H 10.190307 5.372815 -7.854057 0
M  V30 25 H 8.547284 5.795747 -7.366782 0
M  V30 26 H 8.486181 7.560259 -9.151703 0
M  V30 27 H 10.111289 7.136565 -9.631269 0
M  V30 28 H 9.395913 4.890810 -10.336311 0
M  V30 29 H 7.809575 5.144860 -9.666273 0
M  V30 30 H 8.478354 7.538433 -13.034039 0
M  V30 31 H 9.414592 7.863986 -11.609776 0
M  V30 32 H 10.875526 6.859922 -13.412189 0
M  V30 33 H 10.793419 5.772161 -12.066562 0
M  V30 34 H 9.338680 3.834124 -12.237947 0
M  V30 35 H 10.276641 2.981891 -14.815591 0
M  V30 36 H 7.356091 0.069453 -16.049770 0
M  V30 37 H 5.693362 1.108333 -14.579945 0
M  V30 38 H 5.281124 3.872891 -13.622419 0
M  V30 39 H 5.326767 2.514306 -12.525756 0
M  V30 40 H 5.682131 4.807078 -11.447024 0
M  V30 41 H 6.887635 3.601816 -11.060871 0
M  V30 42 H 7.126557 5.677749 -13.245662 0
M  V30 43 H 7.313864 6.765040 -11.194343 0
M  V30 END ATOM
M  V30 BEGIN BOND
M  V30 1 1 2 1
M  V30 2 1 3 2
M  V30 3 1 4 3
M  V30 4 1 5 4
M  V30 5 1 6 5
M  V30 6 1 7 6
M  V30 7 1 8 7
M  V30 8 1 9 8
M  V30 9 1 10 9
M  V30 10 2 11 10
M  V30 11 1 12 11
M  V30 12 2 13 12
M  V30 13 1 14 13
M  V30 14 2 15 14
M  V30 15 1 16 12
M  V30 16 1 16 15
M  V30 17 1 17 11
M  V30 18 2 18 17
M  V30 19 2 19 9
M  V30 20 1 19 18
M  V30 21 1 20 19
M  V30 22 1 21 20
M  V30 23 1 22 4
M  V30 24 1 22 8
M  V30 25 1 22 21
M  V30 26 1 23 1
M  V30 27 1 24 1
M  V30 28 1 25 1
M  V30 29 1 26 2
M  V30 30 1 27 2
M  V30 31 1 28 3
M  V30 32 1 29 3
M  V30 33 1 30 5
M  V30 34 1 31 5
M  V30 35 1 32 6
M  V30 36 1 33 6
M  V30 37 1 8 34 CFG=1
M  V30 38 1 35 10
M  V30 39 1 36 17
M  V30 40 1 37 18
M  V30 41 1 38 20
M  V30 42 1 39 20
M  V30 43 1 40 21
M  V30 44 1 41 21
M  V30 45 1 22 42 CFG=3
M  V30 46 1 4 43 CFG=1
M  V30 END BOND
M  V30 END CTAB
M  END
>  <b_m_subgroup_collapsed>  (2589) 
0

>  <r_i_docking_score>  (2589) 
-5.21738313445465

>  <s_m_subgroup_title>  (2589) 
glide-dock_SP_D22_pv

>  <s_m_subgroupid>  (2589) 
glide-dock_SP_D22_pv

>  <Molecule ChEMBL ID>  (2589) 
CHEMBL485017

>  <Standard Type>  (2589) 
Ki

>  <Standard Value>  (2589) 
10000.0

>  <label>  (2589) 
0

$$$$
CHEMBL1173711
     RDKit          3D

  0  0  0  0  0  0  0  0  0  0999 V3000
M  V30 BEGIN CTAB
M  V30 COUNTS 53 56 0 0 1
M  V30 BEGIN ATOM
M  V30 1 O 10.085999 -0.798209 -16.287975 0
M  V30 2 C 9.444326 0.403533 -15.933570 0 CFG=1
M  V30 3 C 7.951581 0.172344 -15.612189 0
M  V30 4 C 7.027283 -0.101538 -16.651329 0
M  V30 5 C 5.666463 -0.337797 -16.368967 0
M  V30 6 C 5.206857 -0.316389 -15.039453 0
M  V30 7 Br 3.372030 -0.627579 -14.647186 0
M  V30 8 C 6.111753 -0.059242 -13.995673 0
M  V30 9 C 7.469442 0.172358 -14.281393 0
M  V30 10 C 10.265064 0.978602 -14.759269 0
M  V30 11 C 9.830550 2.408658 -14.396290 0
M  V30 12 N 9.891781 3.295294 -15.587917 0 CFG=2 CHG=1
M  V30 13 C 9.492891 4.678240 -15.274512 0
M  V30 14 C 10.592937 5.373765 -14.552588 0
M  V30 15 C 11.785798 5.740882 -15.122754 0
M  V30 16 N 12.488576 6.507658 -14.222595 0
M  V30 17 C 11.785371 6.656589 -13.047000 0
M  V30 18 C 12.073006 7.373210 -11.874950 0
M  V30 19 C 11.131824 7.372711 -10.831094 0
M  V30 20 C 9.941228 6.630360 -10.952657 0
M  V30 21 C 9.657099 5.885568 -12.129696 0
M  V30 22 O 8.526537 5.112449 -12.324674 0
M  V30 23 C 7.415512 5.152445 -11.426284 0
M  V30 24 C 6.183934 5.699324 -12.152848 0
M  V30 25 F 5.804812 4.865569 -13.123842 0
M  V30 26 C 10.584590 5.902281 -13.209666 0
M  V30 27 C 9.155828 2.766422 -16.762371 0
M  V30 28 C 9.647728 1.362830 -17.122217 0
M  V30 29 H 9.877317 -1.428369 -15.614786 0
M  V30 30 H 7.355567 -0.162734 -17.677132 0
M  V30 31 H 4.976064 -0.551019 -17.173004 0
M  V30 32 H 5.768189 -0.049031 -12.971926 0
M  V30 33 H 8.129645 0.330150 -13.446072 0
M  V30 34 H 10.236897 0.320123 -13.893188 0
M  V30 35 H 11.310464 1.016582 -15.050419 0
M  V30 36 H 8.820704 2.430485 -13.986082 0
M  V30 37 H 10.481500 2.791689 -13.609512 0
M  V30 38 H 9.290749 5.222855 -16.198486 0
M  V30 39 H 8.557065 4.688697 -14.716037 0
M  V30 40 H 12.177956 5.558576 -16.111732 0
M  V30 41 H 13.409612 6.887120 -14.408183 0
M  V30 42 H 12.981311 7.948934 -11.790179 0
M  V30 43 H 11.328430 7.932125 -9.927733 0
M  V30 44 H 9.272669 6.659009 -10.107059 0
M  V30 45 H 7.219748 4.135150 -11.088961 0
M  V30 46 H 7.559671 5.732497 -10.523109 0
M  V30 47 H 5.343358 5.796601 -11.462566 0
M  V30 48 H 6.378263 6.680257 -12.588075 0
M  V30 49 H 8.086105 2.752693 -16.555086 0
M  V30 50 H 9.305103 3.424057 -17.620335 0
M  V30 51 H 10.708862 1.414922 -17.375710 0
M  V30 52 H 9.153096 1.005491 -18.023788 0
M  V30 53 H 10.863355 3.343503 -15.862800 0
M  V30 END ATOM
M  V30 BEGIN BOND
M  V30 1 1 2 1 CFG=3
M  V30 2 1 3 2
M  V30 3 1 4 3
M  V30 4 2 5 4
M  V30 5 1 6 5
M  V30 6 1 7 6
M  V30 7 2 8 6
M  V30 8 2 9 3
M  V30 9 1 9 8
M  V30 10 1 10 2
M  V30 11 1 11 10
M  V30 12 1 12 11
M  V30 13 1 13 12
M  V30 14 1 14 13
M  V30 15 2 15 14
M  V30 16 1 16 15
M  V30 17 1 17 16
M  V30 18 2 18 17
M  V30 19 1 19 18
M  V30 20 2 20 19
M  V30 21 1 21 20
M  V30 22 1 22 21
M  V30 23 1 23 22
M  V30 24 1 24 23
M  V30 25 1 25 24
M  V30 26 1 26 14
M  V30 27 1 26 17
M  V30 28 2 26 21
M  V30 29 1 27 12
M  V30 30 1 28 2
M  V30 31 1 28 27
M  V30 32 1 29 1
M  V30 33 1 30 4
M  V30 34 1 31 5
M  V30 35 1 32 8
M  V30 36 1 33 9
M  V30 37 1 34 10
M  V30 38 1 35 10
M  V30 39 1 36 11
M  V30 40 1 37 11
M  V30 41 1 38 13
M  V30 42 1 39 13
M  V30 43 1 40 15
M  V30 44 1 41 16
M  V30 45 1 42 18
M  V30 46 1 43 19
M  V30 47 1 44 20
M  V30 48 1 45 23
M  V30 49 1 46 23
M  V30 50 1 47 24
M  V30 51 1 48 24
M  V30 52 1 49 27
M  V30 53 1 50 27
M  V30 54 1 51 28
M  V30 55 1 52 28
M  V30 56 1 12 53 CFG=3
M  V30 END BOND
M  V30 END CTAB
M  END
>  <b_m_subgroup_collapsed>  (2590) 
0

>  <r_i_docking_score>  (2590) 
-5.2167253603319903

>  <s_m_subgroup_title>  (2590) 
glide-dock_SP_D22_pv

>  <s_m_subgroupid>  (2590) 
glide-dock_SP_D22_pv

>  <Molecule ChEMBL ID>  (2590) 
CHEMBL1173711

>  <Standard Type>  (2590) 
Ki

>  <Standard Value>  (2590) 
27.7

>  <label>  (2590) 
1

$$$$
CHEMBL346898
     RDKit          3D

  0  0  0  0  0  0  0  0  0  0999 V3000
M  V30 BEGIN CTAB
M  V30 COUNTS 41 42 0 0 1
M  V30 BEGIN ATOM
M  V30 1 C 5.286113 4.950861 -13.446308 0
M  V30 2 N 6.084054 5.007009 -12.202302 0 CHG=1
M  V30 3 C 6.506795 3.646111 -11.848166 0
M  V30 4 C 7.204164 5.979365 -12.300804 0
M  V30 5 C 8.231778 5.926036 -11.130017 0
M  V30 6 C 9.437697 6.907089 -11.266115 0
M  V30 7 C 8.900432 8.166661 -11.807878 0
M  V30 8 N 8.482491 9.148228 -12.246113 0
M  V30 9 C 10.082113 7.191168 -9.888830 0
M  V30 10 C 10.655820 8.457619 -9.605283 0
M  V30 11 C 11.206442 8.742859 -8.341777 0
M  V30 12 C 11.178818 7.775416 -7.326425 0
M  V30 13 C 10.612952 6.517053 -7.586489 0
M  V30 14 C 10.084765 6.218771 -8.858490 0
M  V30 15 C 10.484441 6.434762 -12.299345 0
M  V30 16 C 11.592780 7.266779 -12.587204 0
M  V30 17 C 12.480157 6.965884 -13.636250 0
M  V30 18 C 12.312783 5.787811 -14.383240 0
M  V30 19 C 11.256989 4.914013 -14.074495 0
M  V30 20 C 10.349838 5.234194 -13.046877 0
M  V30 21 H 5.895432 4.574210 -14.266572 0
M  V30 22 H 4.444743 4.266183 -13.343932 0
M  V30 23 H 4.893769 5.927049 -13.714002 0
M  V30 24 H 7.299169 3.372335 -12.544111 0
M  V30 25 H 6.885101 3.587507 -10.829280 0
M  V30 26 H 5.689099 2.928363 -11.927637 0
M  V30 27 H 6.744424 6.966824 -12.353949 0
M  V30 28 H 7.715069 5.832194 -13.251435 0
M  V30 29 H 8.614649 4.921750 -10.957472 0
M  V30 30 H 7.685693 6.171042 -10.220258 0
M  V30 31 H 10.680761 9.235781 -10.351297 0
M  V30 32 H 11.642456 9.709723 -8.145018 0
M  V30 33 H 11.590805 7.996007 -6.352953 0
M  V30 34 H 10.589727 5.775264 -6.804880 0
M  V30 35 H 9.668385 5.235616 -9.017807 0
M  V30 36 H 11.761559 8.168317 -12.020659 0
M  V30 37 H 13.302263 7.630937 -13.853228 0
M  V30 38 H 13.004209 5.547712 -15.177573 0
M  V30 39 H 11.135361 4.000086 -14.637002 0
M  V30 40 H 9.549777 4.534834 -12.869801 0
M  V30 41 H 5.492648 5.327959 -11.444002 0
M  V30 END ATOM
M  V30 BEGIN BOND
M  V30 1 1 2 1
M  V30 2 1 3 2
M  V30 3 1 4 2
M  V30 4 1 5 4
M  V30 5 1 6 5
M  V30 6 1 7 6
M  V30 7 3 8 7
M  V30 8 1 9 6
M  V30 9 2 10 9
M  V30 10 1 11 10
M  V30 11 2 12 11
M  V30 12 1 13 12
M  V30 13 1 14 9
M  V30 14 2 14 13
M  V30 15 1 15 6
M  V30 16 2 16 15
M  V30 17 1 17 16
M  V30 18 2 18 17
M  V30 19 1 19 18
M  V30 20 1 20 15
M  V30 21 2 20 19
M  V30 22 1 21 1
M  V30 23 1 22 1
M  V30 24 1 23 1
M  V30 25 1 24 3
M  V30 26 1 25 3
M  V30 27 1 26 3
M  V30 28 1 27 4
M  V30 29 1 28 4
M  V30 30 1 29 5
M  V30 31 1 30 5
M  V30 32 1 31 10
M  V30 33 1 32 11
M  V30 34 1 33 12
M  V30 35 1 34 13
M  V30 36 1 35 14
M  V30 37 1 36 16
M  V30 38 1 37 17
M  V30 39 1 38 18
M  V30 40 1 39 19
M  V30 41 1 40 20
M  V30 42 1 41 2
M  V30 END BOND
M  V30 END CTAB
M  END
>  <b_m_subgroup_collapsed>  (2591) 
0

>  <r_i_docking_score>  (2591) 
-5.1965981506599004

>  <s_m_subgroup_title>  (2591) 
glide-dock_SP_D22_pv

>  <s_m_subgroupid>  (2591) 
glide-dock_SP_D22_pv

>  <Molecule ChEMBL ID>  (2591) 
CHEMBL346898

>  <Standard Type>  (2591) 
Ki

>  <Standard Value>  (2591) 
17900.0

>  <label>  (2591) 
0

$$$$
CHEMBL38580
     RDKit          3D

  0  0  0  0  0  0  0  0  0  0999 V3000
M  V30 BEGIN CTAB
M  V30 COUNTS 48 50 0 0 1
M  V30 BEGIN ATOM
M  V30 1 C 9.572937 5.360684 -7.999979 0
M  V30 2 C 8.684677 6.002323 -9.055081 0
M  V30 3 C 8.617877 5.164936 -10.348177 0
M  V30 4 N 7.776451 5.772382 -11.420256 0 CHG=1
M  V30 5 C 8.346906 7.075684 -11.874475 0
M  V30 6 C 7.516951 7.826479 -12.922315 0
M  V30 7 C 6.001905 7.996938 -12.692906 0
M  V30 8 C 7.411015 4.821711 -12.523214 0 CFG=1
M  V30 9 C 8.600206 4.014819 -13.074923 0
M  V30 10 O 8.212281 3.218760 -14.186180 0
M  V30 11 C 7.114036 2.404053 -14.011987 0
M  V30 12 C 6.086108 2.732157 -13.088072 0
M  V30 13 C 4.968770 1.892380 -12.954475 0
M  V30 14 C 4.885538 0.699257 -13.694648 0
M  V30 15 C 5.924367 0.349999 -14.577131 0
M  V30 16 C 7.044940 1.192642 -14.746633 0
M  V30 17 C 8.143808 0.756650 -15.626934 0
M  V30 18 C 8.030383 0.172942 -16.918417 0
M  V30 19 C 9.313445 -0.096384 -17.309635 0
M  V30 20 O 10.208078 0.273756 -16.347124 0
M  V30 21 C 9.477332 0.795092 -15.322362 0
M  V30 22 C 6.241372 3.905114 -12.135967 0
M  V30 23 H 9.500732 5.887242 -7.047940 0
M  V30 24 H 9.262748 4.328233 -7.847073 0
M  V30 25 H 10.618324 5.359237 -8.308245 0
M  V30 26 H 9.069322 7.006200 -9.217007 0
M  V30 27 H 7.686077 6.114817 -8.646772 0
M  V30 28 H 8.227477 4.178379 -10.091128 0
M  V30 29 H 9.631419 5.007989 -10.720554 0
M  V30 30 H 8.486098 7.763720 -11.045690 0
M  V30 31 H 9.347304 6.903213 -12.274327 0
M  V30 32 H 7.958961 8.815560 -13.046700 0
M  V30 33 H 7.685981 7.299805 -13.846836 0
M  V30 34 H 5.495770 8.172453 -13.642340 0
M  V30 35 H 5.540422 7.117378 -12.246941 0
M  V30 36 H 5.778536 8.865774 -12.071821 0
M  V30 37 H 7.016805 5.371025 -13.372523 0
M  V30 38 H 9.044150 3.372402 -12.315596 0
M  V30 39 H 9.389404 4.687886 -13.410032 0
M  V30 40 H 4.191170 2.170642 -12.258826 0
M  V30 41 H 4.027037 0.052962 -13.588242 0
M  V30 42 H 5.864194 -0.581563 -15.122740 0
M  V30 43 H 7.131296 -0.035057 -17.480928 0
M  V30 44 H 9.749363 -0.538492 -18.193724 0
M  V30 45 H 10.044888 1.125980 -14.463946 0
M  V30 46 H 5.310650 4.472707 -12.087817 0
M  V30 47 H 6.396418 3.478288 -11.145601 0
M  V30 48 H 6.907690 6.049559 -10.970996 0
M  V30 END ATOM
M  V30 BEGIN BOND
M  V30 1 1 2 1
M  V30 2 1 3 2
M  V30 3 1 4 3
M  V30 4 1 5 4
M  V30 5 1 6 5
M  V30 6 1 7 6
M  V30 7 1 8 4
M  V30 8 1 9 8
M  V30 9 1 10 9
M  V30 10 1 11 10
M  V30 11 2 12 11
M  V30 12 1 13 12
M  V30 13 2 14 13
M  V30 14 1 15 14
M  V30 15 1 16 11
M  V30 16 2 16 15
M  V30 17 1 17 16
M  V30 18 1 18 17
M  V30 19 2 19 18
M  V30 20 1 20 19
M  V30 21 2 21 17
M  V30 22 1 21 20
M  V30 23 1 22 8
M  V30 24 1 22 12
M  V30 25 1 23 1
M  V30 26 1 24 1
M  V30 27 1 25 1
M  V30 28 1 26 2
M  V30 29 1 27 2
M  V30 30 1 28 3
M  V30 31 1 29 3
M  V30 32 1 30 5
M  V30 33 1 31 5
M  V30 34 1 32 6
M  V30 35 1 33 6
M  V30 36 1 34 7
M  V30 37 1 35 7
M  V30 38 1 36 7
M  V30 39 1 8 37 CFG=3
M  V30 40 1 38 9
M  V30 41 1 39 9
M  V30 42 1 40 13
M  V30 43 1 41 14
M  V30 44 1 42 15
M  V30 45 1 43 18
M  V30 46 1 44 19
M  V30 47 1 45 21
M  V30 48 1 46 22
M  V30 49 1 47 22
M  V30 50 1 48 4
M  V30 END BOND
M  V30 END CTAB
M  END
>  <b_m_subgroup_collapsed>  (2592) 
0

>  <r_i_docking_score>  (2592) 
-5.1934065147568802

>  <s_m_subgroup_title>  (2592) 
glide-dock_SP_D22_pv

>  <s_m_subgroupid>  (2592) 
glide-dock_SP_D22_pv

>  <Molecule ChEMBL ID>  (2592) 
CHEMBL38580

>  <Standard Type>  (2592) 
Ki

>  <Standard Value>  (2592) 
47.5

>  <label>  (2592) 
1

$$$$
CHEMBL383805
     RDKit          3D

  0  0  0  0  0  0  0  0  0  0999 V3000
M  V30 BEGIN CTAB
M  V30 COUNTS 37 38 0 0 1
M  V30 BEGIN ATOM
M  V30 1 C 5.652899 2.996704 -13.260365 0
M  V30 2 C 5.988229 3.924464 -12.088912 0
M  V30 3 C 7.372312 4.557127 -12.218172 0
M  V30 4 N 7.675107 5.406695 -11.047125 0 CHG=1
M  V30 5 C 9.076850 5.845927 -10.922133 0 CFG=1
M  V30 6 C 9.552543 6.658538 -12.147534 0
M  V30 7 C 11.032847 7.037139 -12.027375 0
M  V30 8 N 11.334400 7.518506 -10.686515 0
M  V30 9 N 12.487496 8.169480 -10.436851 0
M  V30 10 C 12.451433 8.440437 -9.138326 0
M  V30 11 C 11.251222 7.971873 -8.540219 0
M  V30 12 C 10.832622 8.146523 -7.132327 0
M  V30 13 O 9.825731 7.626993 -6.647787 0
M  V30 14 O 11.675691 8.947087 -6.452912 0
M  V30 15 C 11.418755 9.238817 -5.088874 0
M  V30 16 C 10.573612 7.346359 -9.546631 0
M  V30 17 C 9.258679 6.646597 -9.615290 0
M  V30 18 H 4.664748 2.554473 -13.130741 0
M  V30 19 H 6.370481 2.176725 -13.341508 0
M  V30 20 H 5.663830 3.538583 -14.206069 0
M  V30 21 H 5.241914 4.712932 -12.021100 0
M  V30 22 H 5.934006 3.370626 -11.155320 0
M  V30 23 H 8.126992 3.778996 -12.310419 0
M  V30 24 H 7.406263 5.156242 -13.127124 0
M  V30 25 H 7.091919 6.244277 -11.047379 0
M  V30 26 H 9.695310 4.947055 -10.855210 0
M  V30 27 H 9.418338 6.109354 -13.076472 0
M  V30 28 H 8.950660 7.565696 -12.233890 0
M  V30 29 H 11.653319 6.172332 -12.247322 0
M  V30 30 H 11.309622 7.772331 -12.775995 0
M  V30 31 H 13.275174 8.971614 -8.683382 0
M  V30 32 H 12.212404 9.868040 -4.687231 0
M  V30 33 H 11.377200 8.325205 -4.492293 0
M  V30 34 H 10.473466 9.773095 -4.975487 0
M  V30 35 H 8.487430 7.406385 -9.526953 0
M  V30 36 H 9.136552 5.988044 -8.754779 0
M  V30 37 H 7.421270 4.888593 -10.215608 0
M  V30 END ATOM
M  V30 BEGIN BOND
M  V30 1 1 2 1
M  V30 2 1 3 2
M  V30 3 1 4 3
M  V30 4 1 5 4
M  V30 5 1 6 5
M  V30 6 1 7 6
M  V30 7 1 8 7
M  V30 8 1 9 8
M  V30 9 2 10 9
M  V30 10 1 11 10
M  V30 11 1 12 11
M  V30 12 2 13 12
M  V30 13 1 14 12
M  V30 14 1 15 14
M  V30 15 1 16 8
M  V30 16 2 16 11
M  V30 17 1 17 5
M  V30 18 1 17 16
M  V30 19 1 18 1
M  V30 20 1 19 1
M  V30 21 1 20 1
M  V30 22 1 21 2
M  V30 23 1 22 2
M  V30 24 1 23 3
M  V30 25 1 24 3
M  V30 26 1 25 4
M  V30 27 1 5 26 CFG=1
M  V30 28 1 27 6
M  V30 29 1 28 6
M  V30 30 1 29 7
M  V30 31 1 30 7
M  V30 32 1 31 10
M  V30 33 1 32 15
M  V30 34 1 33 15
M  V30 35 1 34 15
M  V30 36 1 35 17
M  V30 37 1 36 17
M  V30 38 1 37 4
M  V30 END BOND
M  V30 END CTAB
M  END
>  <b_m_subgroup_collapsed>  (2593) 
0

>  <r_i_docking_score>  (2593) 
-5.1914126064948203

>  <s_m_subgroup_title>  (2593) 
glide-dock_SP_D22_pv

>  <s_m_subgroupid>  (2593) 
glide-dock_SP_D22_pv

>  <Molecule ChEMBL ID>  (2593) 
CHEMBL383805

>  <Standard Type>  (2593) 
Ki

>  <Standard Value>  (2593) 
100000.0

>  <label>  (2593) 
0

$$$$
CHEMBL3938498
     RDKit          3D

  0  0  0  0  0  0  0  0  0  0999 V3000
M  V30 BEGIN CTAB
M  V30 COUNTS 46 50 0 0 1
M  V30 BEGIN ATOM
M  V30 1 O 9.526945 8.071980 -12.246794 0
M  V30 2 S 9.928108 6.657132 -12.178178 0
M  V30 3 O 11.127542 6.148309 -12.859126 0
M  V30 4 C 9.984778 6.310295 -10.427098 0
M  V30 5 C 9.331173 5.186615 -9.880222 0
M  V30 6 C 9.180099 5.090115 -8.486419 0
M  V30 7 C 9.693984 6.099008 -7.644557 0
M  V30 8 C 10.390384 7.191113 -8.189352 0
M  V30 9 C 10.532399 7.298270 -9.584741 0
M  V30 10 N 8.578309 5.736501 -12.738874 0
M  V30 11 C 7.327411 6.073653 -12.294361 0
M  V30 12 C 6.400108 5.145886 -12.642657 0
M  V30 13 C 7.081206 4.228883 -13.493209 0
M  V30 14 C 6.592597 3.125179 -14.246689 0
M  V30 15 C 7.491261 2.567659 -15.149820 0
M  V30 16 C 8.847790 2.989375 -15.256864 0
M  V30 17 C 9.404663 3.989579 -14.456338 0
M  V30 18 C 8.477053 4.640243 -13.594008 0
M  V30 19 C 9.138706 2.058256 -16.410866 0 CFG=1
M  V30 20 C 10.308740 1.116134 -16.105593 0
M  V30 21 C 9.957124 -0.123838 -15.268661 0
M  V30 22 N 8.940363 0.172257 -14.241271 0 CHG=1
M  V30 23 C 7.528092 -0.190992 -14.523200 0
M  V30 24 C 7.126761 0.202700 -15.951792 0
M  V30 25 C 7.578938 1.616432 -16.313740 0 CFG=1
M  V30 26 H 8.898632 4.428246 -10.512853 0
M  V30 27 H 8.653037 4.246149 -8.065576 0
M  V30 28 H 9.555247 6.030932 -6.575884 0
M  V30 29 H 10.779837 7.960531 -7.539100 0
M  V30 30 H 11.010823 8.168187 -10.007987 0
M  V30 31 H 7.270165 6.971791 -11.726659 0
M  V30 32 H 5.351806 5.145796 -12.393597 0
M  V30 33 H 5.556402 2.835313 -14.209090 0
M  V30 34 H 10.431881 4.308051 -14.554409 0
M  V30 35 H 9.323004 2.672512 -17.293144 0
M  V30 36 H 10.757677 0.764907 -17.035538 0
M  V30 37 H 11.099076 1.677506 -15.601146 0
M  V30 38 H 9.672438 -0.980821 -15.875679 0
M  V30 39 H 10.858858 -0.424086 -14.741260 0
M  V30 40 H 9.215326 -0.198948 -13.341842 0
M  V30 41 H 7.290587 -1.232694 -14.315439 0
M  V30 42 H 6.905820 0.347521 -13.806464 0
M  V30 43 H 7.506020 -0.514819 -16.680716 0
M  V30 44 H 6.039649 0.138169 -16.023376 0
M  V30 45 H 7.021663 2.029264 -17.155806 0
M  V30 46 H 8.938851 1.180891 -14.142929 0
M  V30 END ATOM
M  V30 BEGIN BOND
M  V30 1 2 2 1
M  V30 2 2 3 2
M  V30 3 1 4 2
M  V30 4 2 5 4
M  V30 5 1 6 5
M  V30 6 2 7 6
M  V30 7 1 8 7
M  V30 8 1 9 4
M  V30 9 2 9 8
M  V30 10 1 10 2
M  V30 11 1 11 10
M  V30 12 2 12 11
M  V30 13 1 13 12
M  V30 14 2 14 13
M  V30 15 1 15 14
M  V30 16 2 16 15
M  V30 17 1 17 16
M  V30 18 1 18 10
M  V30 19 1 18 13
M  V30 20 2 18 17
M  V30 21 1 19 16
M  V30 22 1 20 19
M  V30 23 1 21 20
M  V30 24 1 22 21
M  V30 25 1 23 22
M  V30 26 1 24 23
M  V30 27 1 25 15
M  V30 28 1 25 19
M  V30 29 1 25 24
M  V30 30 1 26 5
M  V30 31 1 27 6
M  V30 32 1 28 7
M  V30 33 1 29 8
M  V30 34 1 30 9
M  V30 35 1 31 11
M  V30 36 1 32 12
M  V30 37 1 33 14
M  V30 38 1 34 17
M  V30 39 1 19 35 CFG=3
M  V30 40 1 36 20
M  V30 41 1 37 20
M  V30 42 1 38 21
M  V30 43 1 39 21
M  V30 44 1 40 22
M  V30 45 1 41 23
M  V30 46 1 42 23
M  V30 47 1 43 24
M  V30 48 1 44 24
M  V30 49 1 25 45 CFG=3
M  V30 50 1 46 22
M  V30 END BOND
M  V30 END CTAB
M  END
>  <b_m_subgroup_collapsed>  (2594) 
0

>  <r_i_docking_score>  (2594) 
-5.1906891477193797

>  <s_m_subgroup_title>  (2594) 
glide-dock_SP_D22_pv

>  <s_m_subgroupid>  (2594) 
glide-dock_SP_D22_pv

>  <Molecule ChEMBL ID>  (2594) 
CHEMBL3938498

>  <Standard Type>  (2594) 
Ki

>  <Standard Value>  (2594) 
10000.0

>  <label>  (2594) 
0

$$$$
CHEMBL276778
     RDKit          3D

  0  0  0  0  0  0  0  0  0  0999 V3000
M  V30 BEGIN CTAB
M  V30 COUNTS 48 50 0 0 1
M  V30 BEGIN ATOM
M  V30 1 C 8.872971 0.809554 -21.609726 0
M  V30 2 O 7.768093 0.937665 -20.726307 0
M  V30 3 C 8.002971 0.871280 -19.370335 0
M  V30 4 C 6.885110 0.979402 -18.526253 0
M  V30 5 C 7.032933 0.934131 -17.129827 0
M  V30 6 C 8.305058 0.779491 -16.531792 0
M  V30 7 C 9.443590 0.652258 -17.377092 0
M  V30 8 C 9.278457 0.699673 -18.782482 0
M  V30 9 C 10.863958 0.450748 -16.855303 0
M  V30 10 C 11.544469 1.719503 -16.308798 0
M  V30 11 N 11.257358 2.927166 -17.124722 0 CFG=2 CHG=1
M  V30 12 C 12.344425 3.227727 -18.086203 0
M  V30 13 C 10.860147 4.116944 -16.320045 0
M  V30 14 C 9.410390 4.023930 -15.797238 0
M  V30 15 C 9.261083 3.598845 -14.322062 0
M  V30 16 C 7.876803 3.061310 -13.982709 0
M  V30 17 C 6.980244 3.915894 -13.304719 0
M  V30 18 C 5.715810 3.455184 -12.892647 0
M  V30 19 C 5.336929 2.127985 -13.154301 0
M  V30 20 C 6.213569 1.271497 -13.847457 0
M  V30 21 C 7.484352 1.722133 -14.274879 0
M  V30 22 C 8.391457 0.726163 -15.003791 0
M  V30 23 H 8.515159 0.871439 -22.636904 0
M  V30 24 H 9.370255 -0.154175 -21.493090 0
M  V30 25 H 9.597418 1.611914 -21.464796 0
M  V30 26 H 5.900931 1.098595 -18.954994 0
M  V30 27 H 6.145122 1.014626 -16.521313 0
M  V30 28 H 10.152781 0.591605 -19.405914 0
M  V30 29 H 10.851494 -0.312127 -16.076529 0
M  V30 30 H 11.479451 0.031638 -17.653648 0
M  V30 31 H 11.251944 1.862148 -15.277881 0
M  V30 32 H 12.617567 1.552275 -16.250553 0
M  V30 33 H 13.256614 3.531847 -17.568901 0
M  V30 34 H 12.051775 4.032367 -18.761055 0
M  V30 35 H 12.572341 2.352714 -18.695835 0
M  V30 36 H 11.572712 4.319704 -15.518120 0
M  V30 37 H 10.899302 4.987997 -16.975912 0
M  V30 38 H 8.936521 5.001136 -15.899461 0
M  V30 39 H 8.840674 3.365316 -16.448570 0
M  V30 40 H 9.994507 2.866246 -14.006781 0
M  V30 41 H 9.476285 4.461837 -13.690264 0
M  V30 42 H 7.268144 4.930001 -13.067285 0
M  V30 43 H 5.047541 4.117990 -12.364536 0
M  V30 44 H 4.366851 1.773794 -12.846334 0
M  V30 45 H 5.905176 0.258105 -14.055299 0
M  V30 46 H 8.108192 -0.282575 -14.702477 0
M  V30 47 H 9.409387 0.831509 -14.642955 0
M  V30 48 H 10.445035 2.691286 -17.679462 0
M  V30 END ATOM
M  V30 BEGIN BOND
M  V30 1 1 2 1
M  V30 2 1 3 2
M  V30 3 1 4 3
M  V30 4 2 5 4
M  V30 5 1 6 5
M  V30 6 2 7 6
M  V30 7 2 8 3
M  V30 8 1 8 7
M  V30 9 1 9 7
M  V30 10 1 10 9
M  V30 11 1 11 10
M  V30 12 1 12 11
M  V30 13 1 13 11
M  V30 14 1 14 13
M  V30 15 1 15 14
M  V30 16 1 16 15
M  V30 17 2 17 16
M  V30 18 1 18 17
M  V30 19 2 19 18
M  V30 20 1 20 19
M  V30 21 1 21 16
M  V30 22 2 21 20
M  V30 23 1 22 6
M  V30 24 1 22 21
M  V30 25 1 23 1
M  V30 26 1 24 1
M  V30 27 1 25 1
M  V30 28 1 26 4
M  V30 29 1 27 5
M  V30 30 1 28 8
M  V30 31 1 29 9
M  V30 32 1 30 9
M  V30 33 1 31 10
M  V30 34 1 32 10
M  V30 35 1 33 12
M  V30 36 1 34 12
M  V30 37 1 35 12
M  V30 38 1 36 13
M  V30 39 1 37 13
M  V30 40 1 38 14
M  V30 41 1 39 14
M  V30 42 1 40 15
M  V30 43 1 41 15
M  V30 44 1 42 17
M  V30 45 1 43 18
M  V30 46 1 44 19
M  V30 47 1 45 20
M  V30 48 1 46 22
M  V30 49 1 47 22
M  V30 50 1 11 48 CFG=3
M  V30 END BOND
M  V30 END CTAB
M  END
>  <b_m_subgroup_collapsed>  (2595) 
0

>  <r_i_docking_score>  (2595) 
-5.1900296923338001

>  <s_m_subgroup_title>  (2595) 
glide-dock_SP_D22_pv

>  <s_m_subgroupid>  (2595) 
glide-dock_SP_D22_pv

>  <Molecule ChEMBL ID>  (2595) 
CHEMBL276778

>  <Standard Type>  (2595) 
Ki

>  <Standard Value>  (2595) 
86.7

>  <label>  (2595) 
1

$$$$
CHEMBL5094927
     RDKit          3D

  0  0  0  0  0  0  0  0  0  0999 V3000
M  V30 BEGIN CTAB
M  V30 COUNTS 42 44 0 0 1
M  V30 BEGIN ATOM
M  V30 1 C 12.310160 -0.485304 -18.638346 0
M  V30 2 C 10.855638 -0.719251 -18.208780 0
M  V30 3 C 10.150299 0.609000 -17.895945 0
M  V30 4 O 9.970088 1.404456 -18.818674 0
M  V30 5 N 9.740250 0.875497 -16.638048 0
M  V30 6 C 9.863737 0.012426 -15.463724 0
M  V30 7 C 9.222835 0.802789 -14.317624 0
M  V30 8 C 8.193216 1.714543 -15.011567 0
M  V30 9 C 7.863515 2.970059 -14.169229 0
M  V30 10 C 6.532973 3.337607 -13.850292 0
M  V30 11 C 6.262017 4.464877 -13.049109 0
M  V30 12 C 7.312765 5.253633 -12.555841 0
M  V30 13 C 8.639986 4.916183 -12.872350 0
M  V30 14 C 8.909589 3.788779 -13.671906 0
M  V30 15 C 6.952735 0.840320 -15.360205 0
M  V30 16 C 6.261567 0.161105 -14.326562 0
M  V30 17 C 5.173027 -0.686064 -14.615076 0
M  V30 18 C 4.756571 -0.887321 -15.940925 0
M  V30 19 C 5.428137 -0.225329 -16.981407 0
M  V30 20 C 6.506696 0.633792 -16.693777 0
M  V30 21 C 9.022989 2.092669 -16.260553 0
M  V30 22 H 12.815502 -1.424526 -18.861401 0
M  V30 23 H 12.365822 0.137680 -19.531996 0
M  V30 24 H 12.869081 0.016478 -17.848316 0
M  V30 25 H 10.821938 -1.418968 -17.376530 0
M  V30 26 H 10.313529 -1.202596 -19.021948 0
M  V30 27 H 9.313995 -0.912296 -15.632605 0
M  V30 28 H 10.901480 -0.233351 -15.243470 0
M  V30 29 H 10.016611 1.382854 -13.848242 0
M  V30 30 H 8.804503 0.187911 -13.522656 0
M  V30 31 H 5.695962 2.766798 -14.215450 0
M  V30 32 H 5.243207 4.723963 -12.809475 0
M  V30 33 H 7.100883 6.111985 -11.931875 0
M  V30 34 H 9.451968 5.519815 -12.494307 0
M  V30 35 H 9.942700 3.560628 -13.886686 0
M  V30 36 H 6.572845 0.280807 -13.299660 0
M  V30 37 H 4.661034 -1.205200 -13.825871 0
M  V30 38 H 3.934254 -1.553639 -16.158045 0
M  V30 39 H 5.114867 -0.381970 -18.003082 0
M  V30 40 H 6.990904 1.102348 -17.534107 0
M  V30 41 H 8.431941 2.551491 -17.053020 0
M  V30 42 H 9.795096 2.823355 -16.020426 0
M  V30 END ATOM
M  V30 BEGIN BOND
M  V30 1 1 2 1
M  V30 2 1 3 2
M  V30 3 2 4 3
M  V30 4 1 5 3
M  V30 5 1 6 5
M  V30 6 1 7 6
M  V30 7 1 8 7
M  V30 8 1 9 8
M  V30 9 2 10 9
M  V30 10 1 11 10
M  V30 11 2 12 11
M  V30 12 1 13 12
M  V30 13 1 14 9
M  V30 14 2 14 13
M  V30 15 1 15 8
M  V30 16 2 16 15
M  V30 17 1 17 16
M  V30 18 2 18 17
M  V30 19 1 19 18
M  V30 20 1 20 15
M  V30 21 2 20 19
M  V30 22 1 21 5
M  V30 23 1 21 8
M  V30 24 1 22 1
M  V30 25 1 23 1
M  V30 26 1 24 1
M  V30 27 1 25 2
M  V30 28 1 26 2
M  V30 29 1 27 6
M  V30 30 1 28 6
M  V30 31 1 29 7
M  V30 32 1 30 7
M  V30 33 1 31 10
M  V30 34 1 32 11
M  V30 35 1 33 12
M  V30 36 1 34 13
M  V30 37 1 35 14
M  V30 38 1 36 16
M  V30 39 1 37 17
M  V30 40 1 38 18
M  V30 41 1 39 19
M  V30 42 1 40 20
M  V30 43 1 41 21
M  V30 44 1 42 21
M  V30 END BOND
M  V30 END CTAB
M  END
>  <b_m_subgroup_collapsed>  (2596) 
0

>  <r_i_docking_score>  (2596) 
-5.1886982478666503

>  <s_m_subgroup_title>  (2596) 
glide-dock_SP_D22_pv

>  <s_m_subgroupid>  (2596) 
glide-dock_SP_D22_pv

>  <Molecule ChEMBL ID>  (2596) 
CHEMBL5094927

>  <Standard Type>  (2596) 
Ki

>  <Standard Value>  (2596) 
100000.0

>  <label>  (2596) 
0

$$$$
CHEMBL384248
     RDKit          3D

  0  0  0  0  0  0  0  0  0  0999 V3000
M  V30 BEGIN CTAB
M  V30 COUNTS 56 60 0 0 1
M  V30 BEGIN ATOM
M  V30 1 C 15.356475 10.740529 -21.969660 0
M  V30 2 N 15.240028 9.805353 -20.829000 0 CHG=1
M  V30 3 C 14.515881 8.565032 -21.205656 0
M  V30 4 C 14.385747 7.596278 -20.019869 0
M  V30 5 N 13.818826 8.269135 -18.857546 0
M  V30 6 C 12.956556 7.607140 -17.988571 0
M  V30 7 N 13.253676 7.460738 -16.732910 0
M  V30 8 C 12.480628 6.770119 -15.785723 0
M  V30 9 C 12.486217 7.300218 -14.477515 0
M  V30 10 C 11.801533 6.657046 -13.430203 0
M  V30 11 Cl 11.765660 7.372325 -11.859319 0
M  V30 12 C 11.133855 5.444169 -13.668449 0
M  V30 13 C 11.129319 4.892620 -14.962132 0
M  V30 14 C 11.781474 5.554863 -16.027609 0
M  V30 15 N 11.646160 5.051681 -17.325077 0
M  V30 16 N 11.842079 3.688143 -17.570229 0
M  V30 17 C 12.973356 3.204667 -18.112268 0
M  V30 18 O 13.978786 3.889237 -18.317808 0
M  V30 19 C 12.919335 1.765788 -18.548918 0
M  V30 20 C 13.869946 1.269052 -19.469387 0
M  V30 21 C 13.812254 -0.085110 -19.847591 0
M  V30 22 N 12.885923 -0.943303 -19.375624 0
M  V30 23 C 11.977086 -0.470575 -18.499434 0
M  V30 24 C 11.954139 0.862150 -18.046202 0
M  V30 25 C 11.119615 5.843154 -18.346916 0
M  V30 26 C 9.965758 5.405743 -19.037189 0
M  V30 27 C 9.364519 6.218037 -20.014425 0
M  V30 28 C 9.916489 7.475858 -20.307835 0
M  V30 29 C 11.068290 7.912020 -19.628477 0
M  V30 30 C 11.691528 7.102416 -18.646706 0
M  V30 31 C 14.564769 9.455622 -18.450859 0
M  V30 32 C 14.672294 10.449917 -19.618494 0
M  V30 33 H 14.370776 10.972742 -22.378838 0
M  V30 34 H 15.834754 11.675118 -21.670177 0
M  V30 35 H 15.953969 10.300834 -22.769787 0
M  V30 36 H 15.030921 8.071979 -22.031458 0
M  V30 37 H 13.519253 8.824340 -21.566933 0
M  V30 38 H 15.366276 7.203801 -19.746157 0
M  V30 39 H 13.783078 6.734858 -20.309984 0
M  V30 40 H 13.018049 8.217216 -14.272117 0
M  V30 41 H 10.606092 4.947520 -12.867916 0
M  V30 42 H 10.584943 3.977103 -15.138525 0
M  V30 43 H 11.027492 3.107158 -17.438873 0
M  V30 44 H 14.633613 1.912567 -19.882401 0
M  V30 45 H 14.527819 -0.488571 -20.549355 0
M  V30 46 H 11.254191 -1.184993 -18.133162 0
M  V30 47 H 11.210762 1.156680 -17.320908 0
M  V30 48 H 9.520978 4.451274 -18.801968 0
M  V30 49 H 8.477435 5.879282 -20.528959 0
M  V30 50 H 9.453251 8.108651 -21.050035 0
M  V30 51 H 11.467058 8.889006 -19.863819 0
M  V30 52 H 14.086425 9.942307 -17.600225 0
M  V30 53 H 15.557316 9.150634 -18.119003 0
M  V30 54 H 15.285820 11.301757 -19.326159 0
M  V30 55 H 13.686000 10.847696 -19.849569 0
M  V30 56 H 16.180483 9.527169 -20.585981 0
M  V30 END ATOM
M  V30 BEGIN BOND
M  V30 1 1 2 1
M  V30 2 1 3 2
M  V30 3 1 4 3
M  V30 4 1 5 4
M  V30 5 1 6 5
M  V30 6 2 7 6
M  V30 7 1 8 7
M  V30 8 1 9 8
M  V30 9 2 10 9
M  V30 10 1 11 10
M  V30 11 1 12 10
M  V30 12 2 13 12
M  V30 13 2 14 8
M  V30 14 1 14 13
M  V30 15 1 15 14
M  V30 16 1 16 15
M  V30 17 1 17 16
M  V30 18 2 18 17
M  V30 19 1 19 17
M  V30 20 1 20 19
M  V30 21 2 21 20
M  V30 22 1 22 21
M  V30 23 2 23 22
M  V30 24 2 24 19
M  V30 25 1 24 23
M  V30 26 1 25 15
M  V30 27 2 26 25
M  V30 28 1 27 26
M  V30 29 2 28 27
M  V30 30 1 29 28
M  V30 31 1 30 6
M  V30 32 1 30 25
M  V30 33 2 30 29
M  V30 34 1 31 5
M  V30 35 1 32 2
M  V30 36 1 32 31
M  V30 37 1 33 1
M  V30 38 1 34 1
M  V30 39 1 35 1
M  V30 40 1 36 3
M  V30 41 1 37 3
M  V30 42 1 38 4
M  V30 43 1 39 4
M  V30 44 1 40 9
M  V30 45 1 41 12
M  V30 46 1 42 13
M  V30 47 1 43 16
M  V30 48 1 44 20
M  V30 49 1 45 21
M  V30 50 1 46 23
M  V30 51 1 47 24
M  V30 52 1 48 26
M  V30 53 1 49 27
M  V30 54 1 50 28
M  V30 55 1 51 29
M  V30 56 1 52 31
M  V30 57 1 53 31
M  V30 58 1 54 32
M  V30 59 1 55 32
M  V30 60 1 56 2
M  V30 END BOND
M  V30 END CTAB
M  END
>  <b_m_subgroup_collapsed>  (2597) 
0

>  <r_i_docking_score>  (2597) 
-5.1843706990589604

>  <s_m_subgroup_title>  (2597) 
glide-dock_SP_D22_pv

>  <s_m_subgroupid>  (2597) 
glide-dock_SP_D22_pv

>  <Molecule ChEMBL ID>  (2597) 
CHEMBL384248

>  <Standard Type>  (2597) 
Ki

>  <Standard Value>  (2597) 
28425.0

>  <label>  (2597) 
0

$$$$
CHEMBL1626
     RDKit          3D

  0  0  0  0  0  0  0  0  0  0999 V3000
M  V30 BEGIN CTAB
M  V30 COUNTS 51 53 0 0 1
M  V30 BEGIN ATOM
M  V30 1 C 12.592030 4.471249 -15.658494 0
M  V30 2 N 13.351862 5.730361 -15.844468 0 CFG=1 CHG=1
M  V30 3 C 13.994002 5.786430 -17.172405 0
M  V30 4 C 14.294701 7.256728 -17.425112 0
M  V30 5 C 13.229818 8.014374 -16.632893 0
M  V30 6 C 12.569815 6.987271 -15.690169 0 CFG=2
M  V30 7 C 12.483974 7.500968 -14.231409 0
M  V30 8 C 11.554334 6.668125 -13.337668 0
M  V30 9 O 11.198097 7.367593 -12.144298 0
M  V30 10 C 9.905343 7.201558 -11.510658 0 CFG=2
M  V30 11 C 9.286586 8.598895 -11.704098 0
M  V30 12 C 10.096638 7.032341 -9.997106 0
M  V30 13 C 11.182443 7.673976 -9.353292 0
M  V30 14 C 11.319316 7.626125 -7.952271 0
M  V30 15 C 10.374547 6.933383 -7.174397 0
M  V30 16 C 9.286135 6.299272 -7.800642 0
M  V30 17 C 9.146762 6.349758 -9.200415 0
M  V30 18 C 9.009921 6.084030 -12.111350 0
M  V30 19 C 7.668897 6.317918 -12.505461 0
M  V30 20 C 6.878162 5.286658 -13.046211 0
M  V30 21 C 7.436155 4.020411 -13.272034 0
M  V30 22 Cl 6.486996 2.762935 -13.968917 0
M  V30 23 C 8.764949 3.772400 -12.895645 0
M  V30 24 C 9.508817 4.770740 -12.252069 0
M  V30 25 H 11.713962 4.438425 -16.305658 0
M  V30 26 H 13.218506 3.614703 -15.905775 0
M  V30 27 H 12.261699 4.329796 -14.633332 0
M  V30 28 H 13.299626 5.428365 -17.937063 0
M  V30 29 H 14.888333 5.162847 -17.214922 0
M  V30 30 H 14.286160 7.508968 -18.486164 0
M  V30 31 H 15.285988 7.492065 -17.046764 0
M  V30 32 H 12.486238 8.443260 -17.305311 0
M  V30 33 H 13.683389 8.845648 -16.094704 0
M  V30 34 H 11.561018 6.817736 -16.071486 0
M  V30 35 H 12.084496 8.513217 -14.262548 0
M  V30 36 H 13.473117 7.586124 -13.782173 0
M  V30 37 H 12.058774 5.750305 -13.046650 0
M  V30 38 H 10.693407 6.387778 -13.932811 0
M  V30 39 H 8.333473 8.704920 -11.190573 0
M  V30 40 H 9.932088 9.355417 -11.267307 0
M  V30 41 H 9.138060 8.855256 -12.751789 0
M  V30 42 H 11.907632 8.230659 -9.929237 0
M  V30 43 H 12.146229 8.128727 -7.474123 0
M  V30 44 H 10.473695 6.898812 -6.098495 0
M  V30 45 H 8.539989 5.793696 -7.206695 0
M  V30 46 H 8.271595 5.894705 -9.642171 0
M  V30 47 H 7.202805 7.281626 -12.372323 0
M  V30 48 H 5.846418 5.475157 -13.305812 0
M  V30 49 H 9.198011 2.792920 -13.046627 0
M  V30 50 H 10.486013 4.523720 -11.893525 0
M  V30 51 H 14.092869 5.766944 -15.157656 0
M  V30 END ATOM
M  V30 BEGIN BOND
M  V30 1 1 2 1
M  V30 2 1 3 2
M  V30 3 1 4 3
M  V30 4 1 5 4
M  V30 5 1 6 2
M  V30 6 1 6 5
M  V30 7 1 7 6
M  V30 8 1 8 7
M  V30 9 1 9 8
M  V30 10 1 10 9 CFG=3
M  V30 11 1 11 10
M  V30 12 1 12 10
M  V30 13 2 13 12
M  V30 14 1 14 13
M  V30 15 2 15 14
M  V30 16 1 16 15
M  V30 17 1 17 12
M  V30 18 2 17 16
M  V30 19 1 18 10
M  V30 20 1 19 18
M  V30 21 2 20 19
M  V30 22 1 21 20
M  V30 23 1 22 21
M  V30 24 2 23 21
M  V30 25 2 24 18
M  V30 26 1 24 23
M  V30 27 1 25 1
M  V30 28 1 26 1
M  V30 29 1 27 1
M  V30 30 1 28 3
M  V30 31 1 29 3
M  V30 32 1 30 4
M  V30 33 1 31 4
M  V30 34 1 32 5
M  V30 35 1 33 5
M  V30 36 1 6 34 CFG=3
M  V30 37 1 35 7
M  V30 38 1 36 7
M  V30 39 1 37 8
M  V30 40 1 38 8
M  V30 41 1 39 11
M  V30 42 1 40 11
M  V30 43 1 41 11
M  V30 44 1 42 13
M  V30 45 1 43 14
M  V30 46 1 44 15
M  V30 47 1 45 16
M  V30 48 1 46 17
M  V30 49 1 47 19
M  V30 50 1 48 20
M  V30 51 1 49 23
M  V30 52 1 50 24
M  V30 53 1 2 51 CFG=1
M  V30 END BOND
M  V30 END CTAB
M  END
>  <b_m_subgroup_collapsed>  (2598) 
0

>  <r_i_docking_score>  (2598) 
-5.1838126838048497

>  <s_m_subgroup_title>  (2598) 
glide-dock_SP_D22_pv

>  <s_m_subgroupid>  (2598) 
glide-dock_SP_D22_pv

>  <Molecule ChEMBL ID>  (2598) 
CHEMBL1626

>  <Standard Type>  (2598) 
Ki

>  <Standard Value>  (2598) 
45.0

>  <label>  (2598) 
1

$$$$
CHEMBL5273758
     RDKit          3D

  0  0  0  0  0  0  0  0  0  0999 V3000
M  V30 BEGIN CTAB
M  V30 COUNTS 43 46 0 0 1
M  V30 BEGIN ATOM
M  V30 1 C 8.645679 7.035175 -12.235159 0
M  V30 2 N 8.231505 5.621072 -12.362429 0 CFG=1 CHG=1
M  V30 3 C 6.764625 5.431582 -12.094790 0
M  V30 4 C 6.268587 3.959235 -12.246965 0
M  V30 5 C 6.750555 3.347880 -13.576329 0 CFG=2
M  V30 6 C 6.441034 1.879980 -13.846910 0
M  V30 7 C 7.283382 1.081148 -14.547431 0
M  V30 8 O 6.936393 -0.204710 -14.731261 0
M  V30 9 C 8.559074 1.608051 -15.064976 0
M  V30 10 O 9.270903 0.914679 -15.963449 0
M  V30 11 C 8.999489 2.806656 -14.615648 0
M  V30 12 C 10.274428 3.593147 -14.893433 0 CFG=1
M  V30 13 C 10.505649 3.905193 -16.366091 0
M  V30 14 C 9.687056 4.827246 -17.060818 0
M  V30 15 C 9.911400 5.087796 -18.426025 0
M  V30 16 C 10.951433 4.430792 -19.107521 0
M  V30 17 C 11.771123 3.515466 -18.423016 0
M  V30 18 C 11.550600 3.254716 -17.057144 0
M  V30 19 C 10.145322 4.868616 -13.991813 0
M  V30 20 C 8.639741 4.993967 -13.649921 0 CFG=1
M  V30 21 C 8.257423 3.547557 -13.565263 0 CFG=1
M  V30 22 H 8.077231 7.673746 -12.911842 0
M  V30 23 H 9.707103 7.158915 -12.445703 0
M  V30 24 H 8.485728 7.392573 -11.220599 0
M  V30 25 H 6.537244 5.771694 -11.085439 0
M  V30 26 H 6.196208 6.071275 -12.771751 0
M  V30 27 H 6.626523 3.373089 -11.400781 0
M  V30 28 H 5.180611 3.930379 -12.191842 0
M  V30 29 H 6.298999 3.904618 -14.397300 0
M  V30 30 H 5.504332 1.497842 -13.469579 0
M  V30 31 H 7.684237 -0.693600 -15.043993 0
M  V30 32 H 8.719098 0.223799 -16.294056 0
M  V30 33 H 11.115885 3.001821 -14.529495 0
M  V30 34 H 8.888658 5.342257 -16.558485 0
M  V30 35 H 9.279306 5.792645 -18.947296 0
M  V30 36 H 11.121564 4.633072 -20.155094 0
M  V30 37 H 12.569586 3.009169 -18.944735 0
M  V30 38 H 12.183468 2.544838 -16.544239 0
M  V30 39 H 10.707646 4.706358 -13.071644 0
M  V30 40 H 10.551614 5.768569 -14.453740 0
M  V30 41 H 8.114439 5.476667 -14.471501 0
M  V30 42 H 8.697494 3.159935 -12.647132 0
M  V30 43 H 8.714265 5.121433 -11.630309 0
M  V30 END ATOM
M  V30 BEGIN BOND
M  V30 1 1 2 1
M  V30 2 1 3 2
M  V30 3 1 4 3
M  V30 4 1 5 4
M  V30 5 1 6 5
M  V30 6 2 7 6
M  V30 7 1 8 7
M  V30 8 1 9 7
M  V30 9 1 10 9
M  V30 10 2 11 9
M  V30 11 1 12 11
M  V30 12 1 13 12
M  V30 13 2 14 13
M  V30 14 1 15 14
M  V30 15 2 16 15
M  V30 16 1 17 16
M  V30 17 1 18 13
M  V30 18 2 18 17
M  V30 19 1 19 12
M  V30 20 1 20 2
M  V30 21 1 20 19
M  V30 22 1 21 5
M  V30 23 1 21 11
M  V30 24 1 21 20
M  V30 25 1 22 1
M  V30 26 1 23 1
M  V30 27 1 24 1
M  V30 28 1 25 3
M  V30 29 1 26 3
M  V30 30 1 27 4
M  V30 31 1 28 4
M  V30 32 1 5 29 CFG=3
M  V30 33 1 30 6
M  V30 34 1 31 8
M  V30 35 1 32 10
M  V30 36 1 12 33 CFG=1
M  V30 37 1 34 14
M  V30 38 1 35 15
M  V30 39 1 36 16
M  V30 40 1 37 17
M  V30 41 1 38 18
M  V30 42 1 39 19
M  V30 43 1 40 19
M  V30 44 1 20 41 CFG=3
M  V30 45 1 21 42 CFG=1
M  V30 46 1 2 43 CFG=1
M  V30 END BOND
M  V30 END CTAB
M  END
>  <b_m_subgroup_collapsed>  (2599) 
0

>  <r_i_docking_score>  (2599) 
-5.1835107795042399

>  <s_m_subgroup_title>  (2599) 
glide-dock_SP_D22_pv

>  <s_m_subgroupid>  (2599) 
glide-dock_SP_D22_pv

>  <Molecule ChEMBL ID>  (2599) 
CHEMBL5273758

>  <Standard Type>  (2599) 
Ki

>  <Standard Value>  (2599) 
12.88

>  <label>  (2599) 
1

$$$$
CHEMBL77204
     RDKit          3D

  0  0  0  0  0  0  0  0  0  0999 V3000
M  V30 BEGIN CTAB
M  V30 COUNTS 49 51 0 0 1
M  V30 BEGIN ATOM
M  V30 1 C 11.893330 8.760524 -7.312369 0
M  V30 2 C 11.631378 7.824718 -6.381108 0
M  V30 3 C 11.685964 8.008602 -4.923587 0
M  V30 4 C 11.686204 6.862378 -4.100419 0
M  V30 5 C 11.886524 6.972165 -2.711904 0
M  V30 6 C 12.090750 8.237420 -2.134581 0
M  V30 7 C 12.085375 9.385846 -2.945029 0
M  V30 8 C 11.879213 9.275463 -4.331691 0
M  V30 9 C 11.885219 8.484725 -8.799093 0
M  V30 10 O 10.704622 8.975448 -9.420503 0
M  V30 11 C 9.551239 8.180916 -9.171165 0
M  V30 12 C 9.505134 6.979540 -10.135722 0 CFG=1
M  V30 13 C 8.647707 5.835593 -9.562611 0
M  V30 14 C 8.402834 4.716437 -10.576690 0
M  V30 15 N 7.869527 5.245181 -11.856663 0 CFG=2 CHG=1
M  V30 16 C 7.521389 4.170225 -12.816296 0
M  V30 17 C 6.177101 3.527955 -12.526842 0
M  V30 18 C 5.001147 3.773634 -13.443584 0
M  V30 19 C 5.688992 2.433980 -13.447142 0
M  V30 20 C 8.803139 6.224256 -12.459656 0
M  V30 21 C 9.016224 7.420952 -11.528017 0
M  V30 22 H 12.140966 9.773967 -7.033343 0
M  V30 23 H 11.367751 6.830484 -6.718364 0
M  V30 24 H 11.556942 5.882349 -4.536179 0
M  V30 25 H 11.888829 6.085365 -2.095571 0
M  V30 26 H 12.243412 8.333987 -1.069939 0
M  V30 27 H 12.227943 10.359646 -2.503166 0
M  V30 28 H 11.894864 10.172850 -4.930537 0
M  V30 29 H 12.753731 8.970617 -9.240003 0
M  V30 30 H 12.023075 7.419215 -8.976888 0
M  V30 31 H 9.508725 7.854239 -8.133156 0
M  V30 32 H 8.668927 8.808203 -9.309572 0
M  V30 33 H 10.504678 6.567159 -10.262519 0
M  V30 34 H 9.131385 5.421964 -8.676581 0
M  V30 35 H 7.686011 6.196415 -9.216122 0
M  V30 36 H 7.685980 4.020441 -10.144214 0
M  V30 37 H 9.330894 4.172225 -10.760028 0
M  V30 38 H 7.489369 4.564673 -13.833865 0
M  V30 39 H 8.300411 3.404883 -12.821062 0
M  V30 40 H 5.954912 3.372567 -11.473357 0
M  V30 41 H 3.995936 3.780097 -13.032313 0
M  V30 42 H 5.160681 4.442076 -14.284942 0
M  V30 43 H 6.297715 2.187163 -14.314790 0
M  V30 44 H 5.159330 1.597036 -12.994829 0
M  V30 45 H 8.395649 6.573112 -13.407642 0
M  V30 46 H 9.756345 5.741620 -12.683450 0
M  V30 47 H 8.087649 7.983789 -11.447055 0
M  V30 48 H 9.739034 8.109296 -11.968350 0
M  V30 49 H 7.021573 5.753958 -11.634022 0
M  V30 END ATOM
M  V30 BEGIN BOND
M  V30 1 2 2 1
M  V30 2 1 3 2
M  V30 3 2 4 3
M  V30 4 1 5 4
M  V30 5 2 6 5
M  V30 6 1 7 6
M  V30 7 1 8 3
M  V30 8 2 8 7
M  V30 9 1 9 1
M  V30 10 1 10 9
M  V30 11 1 11 10
M  V30 12 1 12 11
M  V30 13 1 13 12
M  V30 14 1 14 13
M  V30 15 1 15 14
M  V30 16 1 16 15
M  V30 17 1 17 16
M  V30 18 1 18 17
M  V30 19 1 19 17
M  V30 20 1 19 18
M  V30 21 1 20 15
M  V30 22 1 21 12
M  V30 23 1 21 20
M  V30 24 1 22 1
M  V30 25 1 23 2
M  V30 26 1 24 4
M  V30 27 1 25 5
M  V30 28 1 26 6
M  V30 29 1 27 7
M  V30 30 1 28 8
M  V30 31 1 29 9
M  V30 32 1 30 9
M  V30 33 1 31 11
M  V30 34 1 32 11
M  V30 35 1 12 33 CFG=3
M  V30 36 1 34 13
M  V30 37 1 35 13
M  V30 38 1 36 14
M  V30 39 1 37 14
M  V30 40 1 38 16
M  V30 41 1 39 16
M  V30 42 1 40 17
M  V30 43 1 41 18
M  V30 44 1 42 18
M  V30 45 1 43 19
M  V30 46 1 44 19
M  V30 47 1 45 20
M  V30 48 1 46 20
M  V30 49 1 47 21
M  V30 50 1 48 21
M  V30 51 1 15 49 CFG=1
M  V30 END BOND
M  V30 END CTAB
M  END
>  <b_m_subgroup_collapsed>  (2600) 
0

>  <r_i_docking_score>  (2600) 
-5.1709623335460098

>  <s_m_subgroup_title>  (2600) 
glide-dock_SP_D22_pv

>  <s_m_subgroupid>  (2600) 
glide-dock_SP_D22_pv

>  <Molecule ChEMBL ID>  (2600) 
CHEMBL77204

>  <Standard Type>  (2600) 
Ki

>  <Standard Value>  (2600) 
10000.0

>  <label>  (2600) 
0

$$$$
CHEMBL1949725
     RDKit          3D

  0  0  0  0  0  0  0  0  0  0999 V3000
M  V30 BEGIN CTAB
M  V30 COUNTS 48 51 0 0 1
M  V30 BEGIN ATOM
M  V30 1 C 11.845812 5.698137 -15.126107 0
M  V30 2 C 11.879282 4.206618 -15.503374 0 CFG=1
M  V30 3 C 11.292120 3.281727 -14.395946 0
M  V30 4 C 9.796416 3.237262 -14.226929 0
M  V30 5 C 8.953324 2.214406 -14.606459 0
M  V30 6 N 7.654252 2.565390 -14.277623 0
M  V30 7 C 7.621902 3.762445 -13.601246 0
M  V30 8 C 6.565902 4.483036 -13.017373 0
M  V30 9 C 6.845579 5.673486 -12.326734 0
M  V30 10 C 8.171309 6.134929 -12.243490 0
M  V30 11 C 9.222077 5.408423 -12.838184 0
M  V30 12 C 8.975901 4.202900 -13.537055 0
M  V30 13 C 9.239430 0.893837 -15.256224 0
M  V30 14 C 8.998548 0.931806 -16.759432 0
M  V30 15 C 7.674648 0.725393 -17.208517 0
M  V30 16 C 7.359888 0.773513 -18.578045 0
M  V30 17 C 8.373866 1.022174 -19.518209 0
M  V30 18 C 9.697282 1.219133 -19.085600 0
M  V30 19 C 10.025571 1.187274 -17.711712 0
M  V30 20 C 11.483974 1.429361 -17.331503 0
M  V30 21 C 12.019583 2.842817 -17.654329 0
M  V30 22 N 11.423025 3.993708 -16.913380 0 CFG=1 CHG=1
M  V30 23 C 10.013694 4.322281 -17.245010 0
M  V30 24 H 12.320364 5.866849 -14.157997 0
M  V30 25 H 10.831078 6.088837 -15.065371 0
M  V30 26 H 12.387329 6.301198 -15.856091 0
M  V30 27 H 12.944431 3.972272 -15.514099 0
M  V30 28 H 11.681465 2.275293 -14.513406 0
M  V30 29 H 11.724933 3.605582 -13.448729 0
M  V30 30 H 6.858713 1.972486 -14.465528 0
M  V30 31 H 5.552130 4.115619 -13.070542 0
M  V30 32 H 6.051596 6.226817 -11.846337 0
M  V30 33 H 8.373566 7.045529 -11.696153 0
M  V30 34 H 10.230381 5.775738 -12.738772 0
M  V30 35 H 10.232608 0.534591 -14.998417 0
M  V30 36 H 8.577414 0.139826 -14.828054 0
M  V30 37 H 6.885600 0.526789 -16.496126 0
M  V30 38 H 6.342936 0.610022 -18.906067 0
M  V30 39 H 8.138344 1.054156 -20.571220 0
M  V30 40 H 10.465918 1.398982 -19.823879 0
M  V30 41 H 11.712726 1.155919 -16.310074 0
M  V30 42 H 12.067920 0.718499 -17.916365 0
M  V30 43 H 13.098463 2.849782 -17.490166 0
M  V30 44 H 11.900833 3.033318 -18.721518 0
M  V30 45 H 9.297133 3.632983 -16.811729 0
M  V30 46 H 9.868888 4.300530 -18.326775 0
M  V30 47 H 9.750869 5.326040 -16.911787 0
M  V30 48 H 11.902175 4.757515 -17.368332 0
M  V30 END ATOM
M  V30 BEGIN BOND
M  V30 1 1 2 1
M  V30 2 1 3 2
M  V30 3 1 4 3
M  V30 4 2 5 4
M  V30 5 1 6 5
M  V30 6 1 7 6
M  V30 7 2 8 7
M  V30 8 1 9 8
M  V30 9 2 10 9
M  V30 10 1 11 10
M  V30 11 1 12 4
M  V30 12 1 12 7
M  V30 13 2 12 11
M  V30 14 1 13 5
M  V30 15 1 14 13
M  V30 16 2 15 14
M  V30 17 1 16 15
M  V30 18 2 17 16
M  V30 19 1 18 17
M  V30 20 1 19 14
M  V30 21 2 19 18
M  V30 22 1 20 19
M  V30 23 1 21 20
M  V30 24 1 22 2
M  V30 25 1 22 21
M  V30 26 1 23 22
M  V30 27 1 24 1
M  V30 28 1 25 1
M  V30 29 1 26 1
M  V30 30 1 2 27 CFG=3
M  V30 31 1 28 3
M  V30 32 1 29 3
M  V30 33 1 30 6
M  V30 34 1 31 8
M  V30 35 1 32 9
M  V30 36 1 33 10
M  V30 37 1 34 11
M  V30 38 1 35 13
M  V30 39 1 36 13
M  V30 40 1 37 15
M  V30 41 1 38 16
M  V30 42 1 39 17
M  V30 43 1 40 18
M  V30 44 1 41 20
M  V30 45 1 42 20
M  V30 46 1 43 21
M  V30 47 1 44 21
M  V30 48 1 45 23
M  V30 49 1 46 23
M  V30 50 1 47 23
M  V30 51 1 22 48 CFG=3
M  V30 END BOND
M  V30 END CTAB
M  END
>  <b_m_subgroup_collapsed>  (2601) 
0

>  <r_i_docking_score>  (2601) 
-5.1706407360634099

>  <s_m_subgroup_title>  (2601) 
glide-dock_SP_D22_pv

>  <s_m_subgroupid>  (2601) 
glide-dock_SP_D22_pv

>  <Molecule ChEMBL ID>  (2601) 
CHEMBL1949725

>  <Standard Type>  (2601) 
Ki

>  <Standard Value>  (2601) 
85.3

>  <label>  (2601) 
1

$$$$
CHEMBL5171721
     RDKit          3D

  0  0  0  0  0  0  0  0  0  0999 V3000
M  V30 BEGIN CTAB
M  V30 COUNTS 50 53 0 0 1
M  V30 BEGIN ATOM
M  V30 1 O 7.572375 -0.766723 -19.183895 0
M  V30 2 C 6.747869 -0.908944 -18.279335 0
M  V30 3 C 5.531678 -1.805210 -18.540327 0
M  V30 4 C 4.258468 -1.247235 -17.901215 0
M  V30 5 C 4.510201 -0.828138 -16.469751 0
M  V30 6 C 3.454611 -0.871118 -15.541211 0
M  V30 7 C 3.644715 -0.399769 -14.233081 0
M  V30 8 C 4.903648 0.090266 -13.846319 0
M  V30 9 C 5.972440 0.092101 -14.759641 0
M  V30 10 C 5.796473 -0.363687 -16.091900 0
M  V30 11 N 6.876845 -0.344000 -17.050795 0
M  V30 12 C 8.185891 0.216856 -16.664280 0
M  V30 13 C 8.181301 1.760262 -16.644913 0
M  V30 14 N 9.389440 2.248760 -15.986303 0
M  V30 15 C 9.690135 3.632382 -16.372572 0
M  V30 16 C 11.034491 4.068828 -15.750490 0
M  V30 17 N 11.004148 3.916549 -14.299808 0
M  V30 18 C 10.811943 5.058069 -13.505037 0
M  V30 19 C 11.797589 6.067199 -13.525142 0
M  V30 20 C 11.688913 7.193142 -12.689495 0
M  V30 21 C 10.568380 7.346042 -11.848820 0
M  V30 22 C 9.565275 6.355356 -11.838602 0
M  V30 23 C 9.690966 5.212664 -12.653579 0
M  V30 24 C 10.535544 2.613821 -13.843594 0
M  V30 25 C 9.221076 2.218967 -14.527914 0
M  V30 26 H 5.387880 -1.952613 -19.610971 0
M  V30 27 H 5.751947 -2.783744 -18.111935 0
M  V30 28 H 3.896836 -0.382927 -18.460732 0
M  V30 29 H 3.465830 -1.997105 -17.933603 0
M  V30 30 H 2.485975 -1.237888 -15.845283 0
M  V30 31 H 2.821381 -0.408142 -13.533892 0
M  V30 32 H 5.057722 0.462085 -12.844125 0
M  V30 33 H 6.916502 0.466841 -14.402548 0
M  V30 34 H 8.991864 -0.112608 -17.321682 0
M  V30 35 H 8.467847 -0.215471 -15.705533 0
M  V30 36 H 7.295149 2.164609 -16.155729 0
M  V30 37 H 8.150464 2.110903 -17.677286 0
M  V30 38 H 8.893064 4.300638 -16.046278 0
M  V30 39 H 9.753608 3.706785 -17.459509 0
M  V30 40 H 11.249166 5.100382 -16.028139 0
M  V30 41 H 11.845826 3.459371 -16.149206 0
M  V30 42 H 12.669088 5.956031 -14.153960 0
M  V30 43 H 12.474456 7.934193 -12.695033 0
M  V30 44 H 10.477415 8.215093 -11.215403 0
M  V30 45 H 8.699327 6.471727 -11.198815 0
M  V30 46 H 8.916475 4.460823 -12.619139 0
M  V30 47 H 11.299411 1.868237 -14.062799 0
M  V30 48 H 10.403896 2.614383 -12.762959 0
M  V30 49 H 8.413053 2.883993 -14.223142 0
M  V30 50 H 8.957875 1.221072 -14.184155 0
M  V30 END ATOM
M  V30 BEGIN BOND
M  V30 1 2 2 1
M  V30 2 1 3 2
M  V30 3 1 4 3
M  V30 4 1 5 4
M  V30 5 2 6 5
M  V30 6 1 7 6
M  V30 7 2 8 7
M  V30 8 1 9 8
M  V30 9 1 10 5
M  V30 10 2 10 9
M  V30 11 1 11 2
M  V30 12 1 11 10
M  V30 13 1 12 11
M  V30 14 1 13 12
M  V30 15 1 14 13
M  V30 16 1 15 14
M  V30 17 1 16 15
M  V30 18 1 17 16
M  V30 19 1 18 17
M  V30 20 2 19 18
M  V30 21 1 20 19
M  V30 22 2 21 20
M  V30 23 1 22 21
M  V30 24 1 23 18
M  V30 25 2 23 22
M  V30 26 1 24 17
M  V30 27 1 25 14
M  V30 28 1 25 24
M  V30 29 1 26 3
M  V30 30 1 27 3
M  V30 31 1 28 4
M  V30 32 1 29 4
M  V30 33 1 30 6
M  V30 34 1 31 7
M  V30 35 1 32 8
M  V30 36 1 33 9
M  V30 37 1 34 12
M  V30 38 1 35 12
M  V30 39 1 36 13
M  V30 40 1 37 13
M  V30 41 1 38 15
M  V30 42 1 39 15
M  V30 43 1 40 16
M  V30 44 1 41 16
M  V30 45 1 42 19
M  V30 46 1 43 20
M  V30 47 1 44 21
M  V30 48 1 45 22
M  V30 49 1 46 23
M  V30 50 1 47 24
M  V30 51 1 48 24
M  V30 52 1 49 25
M  V30 53 1 50 25
M  V30 END BOND
M  V30 END CTAB
M  END
>  <b_m_subgroup_collapsed>  (2602) 
0

>  <r_i_docking_score>  (2602) 
-5.1701061836873103

>  <s_m_subgroup_title>  (2602) 
glide-dock_SP_D22_pv

>  <s_m_subgroupid>  (2602) 
glide-dock_SP_D22_pv

>  <Molecule ChEMBL ID>  (2602) 
CHEMBL5171721

>  <Standard Type>  (2602) 
Ki

>  <Standard Value>  (2602) 
12882.5

>  <label>  (2602) 
0

$$$$
CHEMBL378358
     RDKit          3D

  0  0  0  0  0  0  0  0  0  0999 V3000
M  V30 BEGIN CTAB
M  V30 COUNTS 46 49 0 0 1
M  V30 BEGIN ATOM
M  V30 1 C 9.416100 3.122960 -18.145666 0
M  V30 2 N 9.820715 2.753475 -16.765793 0 CFG=2 CHG=1
M  V30 3 C 11.125141 2.035296 -16.724337 0
M  V30 4 C 12.324846 2.928318 -17.095976 0
M  V30 5 C 12.396801 4.275665 -16.412842 0
M  V30 6 C 12.065102 4.649755 -15.124472 0
M  V30 7 N 12.304823 6.008132 -14.987929 0
M  V30 8 C 12.803831 6.549151 -16.148983 0
M  V30 9 C 13.190621 7.857816 -16.490625 0
M  V30 10 C 13.678434 8.123731 -17.782240 0
M  V30 11 C 13.772098 7.074232 -18.715515 0
M  V30 12 C 13.378542 5.766099 -18.361115 0
M  V30 13 C 12.879777 5.469175 -17.068417 0
M  V30 14 C 11.535384 3.895919 -13.940969 0
M  V30 15 C 10.078146 4.204083 -13.669272 0
M  V30 16 C 9.583529 5.406183 -13.088856 0
M  V30 17 C 8.224632 5.329613 -13.015862 0
M  V30 18 N 7.841650 4.105894 -13.520309 0
M  V30 19 C 6.465302 3.648917 -13.598680 0
M  V30 20 C 8.982504 3.412957 -13.918921 0
M  V30 21 C 8.902389 2.037661 -14.513947 0
M  V30 22 C 8.728026 2.041317 -16.045982 0
M  V30 23 H 9.256292 2.235285 -18.761850 0
M  V30 24 H 10.169986 3.740726 -18.632496 0
M  V30 25 H 8.491638 3.701018 -18.141853 0
M  V30 26 H 11.304934 1.617049 -15.740807 0
M  V30 27 H 11.087052 1.169151 -17.388020 0
M  V30 28 H 13.248327 2.379715 -16.913950 0
M  V30 29 H 12.323889 3.072034 -18.176094 0
M  V30 30 H 12.133164 6.514762 -14.133196 0
M  V30 31 H 13.107641 8.657048 -15.771211 0
M  V30 32 H 13.969651 9.128771 -18.057194 0
M  V30 33 H 14.144431 7.276014 -19.709734 0
M  V30 34 H 13.460794 4.979756 -19.094728 0
M  V30 35 H 11.693650 2.825357 -14.038829 0
M  V30 36 H 12.110977 4.189610 -13.062393 0
M  V30 37 H 10.162896 6.257239 -12.767723 0
M  V30 38 H 7.496812 6.039348 -12.646070 0
M  V30 39 H 6.217742 3.375372 -14.623397 0
M  V30 40 H 5.782350 4.436541 -13.276709 0
M  V30 41 H 6.321086 2.783555 -12.952271 0
M  V30 42 H 9.777477 1.458823 -14.222116 0
M  V30 43 H 8.075953 1.489717 -14.063505 0
M  V30 44 H 7.780430 2.530342 -16.273495 0
M  V30 45 H 8.635065 1.022959 -16.427361 0
M  V30 46 H 9.959042 3.624675 -16.263668 0
M  V30 END ATOM
M  V30 BEGIN BOND
M  V30 1 1 2 1
M  V30 2 1 3 2
M  V30 3 1 4 3
M  V30 4 1 5 4
M  V30 5 2 6 5
M  V30 6 1 7 6
M  V30 7 1 8 7
M  V30 8 2 9 8
M  V30 9 1 10 9
M  V30 10 2 11 10
M  V30 11 1 12 11
M  V30 12 1 13 5
M  V30 13 1 13 8
M  V30 14 2 13 12
M  V30 15 1 14 6
M  V30 16 1 15 14
M  V30 17 1 16 15
M  V30 18 2 17 16
M  V30 19 1 18 17
M  V30 20 1 19 18
M  V30 21 2 20 15
M  V30 22 1 20 18
M  V30 23 1 21 20
M  V30 24 1 22 2
M  V30 25 1 22 21
M  V30 26 1 23 1
M  V30 27 1 24 1
M  V30 28 1 25 1
M  V30 29 1 26 3
M  V30 30 1 27 3
M  V30 31 1 28 4
M  V30 32 1 29 4
M  V30 33 1 30 7
M  V30 34 1 31 9
M  V30 35 1 32 10
M  V30 36 1 33 11
M  V30 37 1 34 12
M  V30 38 1 35 14
M  V30 39 1 36 14
M  V30 40 1 37 16
M  V30 41 1 38 17
M  V30 42 1 39 19
M  V30 43 1 40 19
M  V30 44 1 41 19
M  V30 45 1 42 21
M  V30 46 1 43 21
M  V30 47 1 44 22
M  V30 48 1 45 22
M  V30 49 1 2 46 CFG=1
M  V30 END BOND
M  V30 END CTAB
M  END
>  <b_m_subgroup_collapsed>  (2603) 
0

>  <r_i_docking_score>  (2603) 
-5.1686055875709904

>  <s_m_subgroup_title>  (2603) 
glide-dock_SP_D22_pv

>  <s_m_subgroupid>  (2603) 
glide-dock_SP_D22_pv

>  <Molecule ChEMBL ID>  (2603) 
CHEMBL378358

>  <Standard Type>  (2603) 
Ki

>  <Standard Value>  (2603) 
10000.0

>  <label>  (2603) 
0

$$$$
CHEMBL5421925
     RDKit          3D

  0  0  0  0  0  0  0  0  0  0999 V3000
M  V30 BEGIN CTAB
M  V30 COUNTS 75 79 0 0 1
M  V30 BEGIN ATOM
M  V30 1 C 10.909869 6.774248 -5.809963 0
M  V30 2 C 9.747855 6.885530 -6.810257 0
M  V30 3 C 10.194900 7.173827 -8.241601 0
M  V30 4 C 11.056014 8.265290 -8.466761 0
M  V30 5 C 11.483837 8.573244 -9.765242 0
M  V30 6 C 11.004108 7.851691 -10.865534 0
M  V30 7 C 10.136736 6.756515 -10.677586 0
M  V30 8 N 9.694693 6.026208 -11.799217 0
M  V30 9 C 8.268727 5.958018 -12.075780 0
M  V30 10 C 7.912158 4.565888 -12.623468 0
M  V30 11 N 8.796082 4.137274 -13.747552 0 CHG=1
M  V30 12 C 8.465853 2.750175 -14.171408 0
M  V30 13 C 8.965232 2.356664 -15.577077 0
M  V30 14 C 8.743343 0.850591 -15.863381 0 CFG=1
M  V30 15 C 7.255257 0.454944 -16.016172 0
M  V30 16 C 6.654947 0.893144 -17.366165 0
M  V30 17 C 7.474547 0.362874 -18.556461 0 CFG=2
M  V30 18 N 7.338073 -1.088923 -18.642138 0
M  V30 19 C 7.545128 -1.843035 -19.732210 0
M  V30 20 O 7.914062 -1.369922 -20.806236 0
M  V30 21 C 7.285980 -3.256055 -19.488689 0
M  V30 22 C 7.230501 -4.184273 -20.446318 0
M  V30 23 C 6.954679 -5.553446 -19.866741 0 CFG=2
M  V30 24 C 5.713112 -6.178300 -20.489279 0
M  V30 25 C 4.603692 -6.479285 -19.793596 0
M  V30 26 C 4.503666 -6.204377 -18.375736 0
M  V30 27 C 5.514095 -5.631389 -17.702568 0
M  V30 28 C 6.841489 -5.245009 -18.339609 0 CFG=2
M  V30 29 N 7.078153 -3.815471 -18.246840 0
M  V30 30 C 8.951770 0.784965 -18.420290 0
M  V30 31 C 9.557411 0.347004 -17.075315 0
M  V30 32 C 10.242517 4.298910 -13.423732 0
M  V30 33 C 10.583468 5.711679 -12.911690 0
M  V30 34 C 9.769213 6.389171 -9.349656 0
M  V30 35 Cl 8.884141 4.926979 -9.075071 0
M  V30 36 H 10.538877 6.490205 -4.824053 0
M  V30 37 H 11.635218 6.020338 -6.123810 0
M  V30 38 H 11.439908 7.722008 -5.693728 0
M  V30 39 H 9.078184 7.690331 -6.497202 0
M  V30 40 H 9.150298 5.977618 -6.747940 0
M  V30 41 H 11.407809 8.869745 -7.643683 0
M  V30 42 H 12.174341 9.377139 -9.928367 0
M  V30 43 H 11.314230 8.171366 -11.847836 0
M  V30 44 H 8.015244 6.729767 -12.802838 0
M  V30 45 H 7.683642 6.171939 -11.181977 0
M  V30 46 H 6.870303 4.560077 -12.944975 0
M  V30 47 H 7.989864 3.840185 -11.813411 0
M  V30 48 H 7.383335 2.625322 -14.136130 0
M  V30 49 H 8.883437 2.051014 -13.446892 0
M  V30 50 H 10.032658 2.556757 -15.656343 0
M  V30 51 H 8.488566 2.972929 -16.339287 0
M  V30 52 H 9.131097 0.309793 -14.999701 0
M  V30 53 H 7.173281 -0.627677 -15.929207 0
M  V30 54 H 6.650562 0.845100 -15.199077 0
M  V30 55 H 6.610544 1.981589 -17.408703 0
M  V30 56 H 5.620756 0.550375 -17.440405 0
M  V30 57 H 7.066233 0.793846 -19.473261 0
M  V30 58 H 7.010725 -1.563598 -17.814913 0
M  V30 59 H 7.365860 -4.011156 -21.503172 0
M  V30 60 H 7.811080 -6.199679 -20.062618 0
M  V30 61 H 5.753734 -6.384360 -21.549749 0
M  V30 62 H 3.760447 -6.923526 -20.303141 0
M  V30 63 H 3.585244 -6.433687 -17.850359 0
M  V30 64 H 5.393745 -5.416615 -16.649572 0
M  V30 65 H 7.638166 -5.758188 -17.799191 0
M  V30 66 H 7.281623 -3.376109 -17.355278 0
M  V30 67 H 9.537662 0.375478 -19.244291 0
M  V30 68 H 9.026004 1.868336 -18.515106 0
M  V30 69 H 9.596823 -0.741938 -17.047266 0
M  V30 70 H 10.593748 0.679017 -17.004372 0
M  V30 71 H 10.486681 3.572520 -12.648293 0
M  V30 72 H 10.866926 4.072400 -14.286786 0
M  V30 73 H 10.485035 6.444812 -13.704476 0
M  V30 74 H 11.636868 5.769959 -12.646375 0
M  V30 75 H 8.595886 4.758832 -14.517877 0
M  V30 END ATOM
M  V30 BEGIN BOND
M  V30 1 1 2 1
M  V30 2 1 3 2
M  V30 3 1 4 3
M  V30 4 2 5 4
M  V30 5 1 6 5
M  V30 6 2 7 6
M  V30 7 1 8 7
M  V30 8 1 9 8
M  V30 9 1 10 9
M  V30 10 1 11 10
M  V30 11 1 12 11
M  V30 12 1 13 12
M  V30 13 1 14 13
M  V30 14 1 15 14
M  V30 15 1 16 15
M  V30 16 1 17 16
M  V30 17 1 18 17
M  V30 18 1 19 18
M  V30 19 2 20 19
M  V30 20 1 21 19
M  V30 21 2 22 21
M  V30 22 1 23 22
M  V30 23 1 24 23
M  V30 24 2 25 24
M  V30 25 1 26 25
M  V30 26 2 27 26
M  V30 27 1 28 23
M  V30 28 1 28 27
M  V30 29 1 29 21
M  V30 30 1 29 28
M  V30 31 1 30 17
M  V30 32 1 31 14
M  V30 33 1 31 30
M  V30 34 1 32 11
M  V30 35 1 33 8
M  V30 36 1 33 32
M  V30 37 2 34 3
M  V30 38 1 34 7
M  V30 39 1 35 34
M  V30 40 1 36 1
M  V30 41 1 37 1
M  V30 42 1 38 1
M  V30 43 1 39 2
M  V30 44 1 40 2
M  V30 45 1 41 4
M  V30 46 1 42 5
M  V30 47 1 43 6
M  V30 48 1 44 9
M  V30 49 1 45 9
M  V30 50 1 46 10
M  V30 51 1 47 10
M  V30 52 1 48 12
M  V30 53 1 49 12
M  V30 54 1 50 13
M  V30 55 1 51 13
M  V30 56 1 14 52 CFG=1
M  V30 57 1 53 15
M  V30 58 1 54 15
M  V30 59 1 55 16
M  V30 60 1 56 16
M  V30 61 1 17 57 CFG=3
M  V30 62 1 58 18
M  V30 63 1 59 22
M  V30 64 1 23 60 CFG=1
M  V30 65 1 61 24
M  V30 66 1 62 25
M  V30 67 1 63 26
M  V30 68 1 64 27
M  V30 69 1 28 65 CFG=1
M  V30 70 1 66 29
M  V30 71 1 67 30
M  V30 72 1 68 30
M  V30 73 1 69 31
M  V30 74 1 70 31
M  V30 75 1 71 32
M  V30 76 1 72 32
M  V30 77 1 73 33
M  V30 78 1 74 33
M  V30 79 1 75 11
M  V30 END BOND
M  V30 END CTAB
M  END
>  <b_m_subgroup_collapsed>  (2604) 
0

>  <r_i_docking_score>  (2604) 
-5.1662408321425302

>  <s_m_subgroup_title>  (2604) 
glide-dock_SP_D22_pv

>  <s_m_subgroupid>  (2604) 
glide-dock_SP_D22_pv

>  <Molecule ChEMBL ID>  (2604) 
CHEMBL5421925

>  <Standard Type>  (2604) 
Ki

>  <Standard Value>  (2604) 
5.76

>  <label>  (2604) 
1

$$$$
CHEMBL4175327
     RDKit          3D

  0  0  0  0  0  0  0  0  0  0999 V3000
M  V30 BEGIN CTAB
M  V30 COUNTS 47 50 0 0 1
M  V30 BEGIN ATOM
M  V30 1 C 12.471770 5.981167 -15.092936 0
M  V30 2 C 11.287763 5.643459 -14.251698 0
M  V30 3 O 11.163439 6.279064 -13.046467 0
M  V30 4 C 10.019449 5.775321 -12.503249 0
M  V30 5 C 9.689474 6.137997 -11.128675 0
M  V30 6 C 9.081141 5.181611 -10.284667 0
M  V30 7 C 8.886167 5.460881 -8.918324 0
M  V30 8 C 9.285085 6.703617 -8.387978 0
M  V30 9 C 9.860862 7.673224 -9.230043 0
M  V30 10 F 10.228343 8.875534 -8.723134 0
M  V30 11 C 10.071070 7.391571 -10.594324 0
M  V30 12 F 10.650017 8.329364 -11.383064 0
M  V30 13 N 9.424150 4.886489 -13.294396 0
M  V30 14 C 10.236489 4.778070 -14.415890 0
M  V30 15 C 9.941451 3.843099 -15.562605 0
M  V30 16 N 9.640857 2.423572 -15.351915 0
M  V30 17 C 10.757048 1.785028 -14.663282 0
M  V30 18 C 8.374381 2.250480 -14.637691 0
M  V30 19 C 7.860488 0.801972 -14.617379 0 CFG=2
M  V30 20 C 7.480142 0.220906 -16.007069 0
M  V30 21 C 6.074531 -0.218816 -15.776084 0
M  V30 22 C 5.215580 -0.914199 -16.645456 0
M  V30 23 C 3.912870 -1.207655 -16.184183 0
M  V30 24 C 3.495958 -0.799405 -14.893362 0
M  V30 25 C 4.384266 -0.110446 -14.039358 0
M  V30 26 C 5.680197 0.163991 -14.508572 0
M  V30 27 O 6.667018 0.801015 -13.819320 0
M  V30 28 H 13.012555 5.079150 -15.383531 0
M  V30 29 H 12.162185 6.500014 -16.001373 0
M  V30 30 H 13.163951 6.627410 -14.554018 0
M  V30 31 H 8.788312 4.218920 -10.677964 0
M  V30 32 H 8.425111 4.723849 -8.277993 0
M  V30 33 H 9.123371 6.921925 -7.344023 0
M  V30 34 H 10.788417 3.870021 -16.251923 0
M  V30 35 H 9.120150 4.263339 -16.143488 0
M  V30 36 H 10.626311 0.706168 -14.599332 0
M  V30 37 H 11.685146 1.961240 -15.207465 0
M  V30 38 H 10.878304 2.173129 -13.650142 0
M  V30 39 H 7.613752 2.887020 -15.090204 0
M  V30 40 H 8.486841 2.583487 -13.606842 0
M  V30 41 H 8.565140 0.140775 -14.112093 0
M  V30 42 H 8.115425 -0.618559 -16.291065 0
M  V30 43 H 7.510387 0.974590 -16.795298 0
M  V30 44 H 5.539874 -1.217479 -17.628559 0
M  V30 45 H 3.229194 -1.750878 -16.821503 0
M  V30 46 H 2.494783 -1.024896 -14.558500 0
M  V30 47 H 4.085530 0.201343 -13.050191 0
M  V30 END ATOM
M  V30 BEGIN BOND
M  V30 1 1 2 1
M  V30 2 1 3 2
M  V30 3 1 4 3
M  V30 4 1 5 4
M  V30 5 2 6 5
M  V30 6 1 7 6
M  V30 7 2 8 7
M  V30 8 1 9 8
M  V30 9 1 10 9
M  V30 10 1 11 5
M  V30 11 2 11 9
M  V30 12 1 12 11
M  V30 13 2 13 4
M  V30 14 2 14 2
M  V30 15 1 14 13
M  V30 16 1 15 14
M  V30 17 1 16 15
M  V30 18 1 17 16
M  V30 19 1 18 16
M  V30 20 1 19 18
M  V30 21 1 20 19
M  V30 22 1 21 20
M  V30 23 2 22 21
M  V30 24 1 23 22
M  V30 25 2 24 23
M  V30 26 1 25 24
M  V30 27 1 26 21
M  V30 28 2 26 25
M  V30 29 1 27 19
M  V30 30 1 27 26
M  V30 31 1 28 1
M  V30 32 1 29 1
M  V30 33 1 30 1
M  V30 34 1 31 6
M  V30 35 1 32 7
M  V30 36 1 33 8
M  V30 37 1 34 15
M  V30 38 1 35 15
M  V30 39 1 36 17
M  V30 40 1 37 17
M  V30 41 1 38 17
M  V30 42 1 39 18
M  V30 43 1 40 18
M  V30 44 1 19 41 CFG=1
M  V30 45 1 42 20
M  V30 46 1 43 20
M  V30 47 1 44 22
M  V30 48 1 45 23
M  V30 49 1 46 24
M  V30 50 1 47 25
M  V30 END BOND
M  V30 END CTAB
M  END
>  <b_m_subgroup_collapsed>  (2605) 
0

>  <r_i_docking_score>  (2605) 
-5.1577696634386596

>  <s_m_subgroup_title>  (2605) 
glide-dock_SP_D22_pv

>  <s_m_subgroupid>  (2605) 
glide-dock_SP_D22_pv

>  <Molecule ChEMBL ID>  (2605) 
CHEMBL4175327

>  <Standard Type>  (2605) 
Ki

>  <Standard Value>  (2605) 
10000.0

>  <label>  (2605) 
0

$$$$
CHEMBL589
     RDKit          3D

  0  0  0  0  0  0  0  0  0  0999 V3000
M  V30 BEGIN CTAB
M  V30 COUNTS 44 45 0 0 1
M  V30 BEGIN ATOM
M  V30 1 C 8.499756 4.403955 -8.247317 0
M  V30 2 C 9.622470 5.442962 -8.246902 0
M  V30 3 C 9.066769 6.872794 -8.399519 0
M  V30 4 N 10.095586 7.932835 -8.630193 0 CHG=1
M  V30 5 C 11.043824 8.126929 -7.497581 0
M  V30 6 C 10.364879 8.530554 -6.176656 0
M  V30 7 C 11.383596 8.910625 -5.093240 0
M  V30 8 C 10.824080 7.775307 -9.917814 0
M  V30 9 C 9.943528 7.966357 -11.168245 0
M  V30 10 C 10.306364 6.962913 -12.246722 0
M  V30 11 C 11.583680 6.972234 -12.860616 0
M  V30 12 C 11.925837 5.997393 -13.831165 0
M  V30 13 C 11.006554 4.990591 -14.202034 0
M  V30 14 C 9.743542 5.006943 -13.588743 0
M  V30 15 C 9.392687 5.964042 -12.645275 0
M  V30 16 C 7.963154 5.747517 -12.196676 0
M  V30 17 C 7.615458 4.516564 -13.047066 0
M  V30 18 O 6.516461 3.967846 -13.036786 0
M  V30 19 N 8.662983 4.147889 -13.797257 0
M  V30 20 H 8.855769 3.424646 -7.926619 0
M  V30 21 H 7.686811 4.712957 -7.589996 0
M  V30 22 H 8.086204 4.280242 -9.246557 0
M  V30 23 H 10.307573 5.174201 -9.047748 0
M  V30 24 H 10.187612 5.372597 -7.321137 0
M  V30 25 H 8.474380 7.127985 -7.521883 0
M  V30 26 H 8.346705 6.873094 -9.210704 0
M  V30 27 H 11.645279 7.228117 -7.353477 0
M  V30 28 H 11.745052 8.918596 -7.768569 0
M  V30 29 H 9.693012 9.371051 -6.348763 0
M  V30 30 H 9.749658 7.712577 -5.799241 0
M  V30 31 H 10.886067 9.217748 -4.172842 0
M  V30 32 H 12.032311 8.068014 -4.849665 0
M  V30 33 H 12.017127 9.738452 -5.416265 0
M  V30 34 H 11.324708 6.809374 -9.935854 0
M  V30 35 H 11.635459 8.502697 -9.978784 0
M  V30 36 H 10.084069 8.971560 -11.560153 0
M  V30 37 H 8.879360 7.912522 -10.955204 0
M  V30 38 H 12.313511 7.719460 -12.584119 0
M  V30 39 H 12.907473 6.017693 -14.282413 0
M  V30 40 H 11.265244 4.242940 -14.936996 0
M  V30 41 H 7.891304 5.529727 -11.133691 0
M  V30 42 H 7.325477 6.596304 -12.445667 0
M  V30 43 H 8.685733 3.365657 -14.434279 0
M  V30 44 H 9.575186 8.795405 -8.711255 0
M  V30 END ATOM
M  V30 BEGIN BOND
M  V30 1 1 2 1
M  V30 2 1 3 2
M  V30 3 1 4 3
M  V30 4 1 5 4
M  V30 5 1 6 5
M  V30 6 1 7 6
M  V30 7 1 8 4
M  V30 8 1 9 8
M  V30 9 1 10 9
M  V30 10 1 11 10
M  V30 11 2 12 11
M  V30 12 1 13 12
M  V30 13 2 14 13
M  V30 14 2 15 10
M  V30 15 1 15 14
M  V30 16 1 16 15
M  V30 17 1 17 16
M  V30 18 2 18 17
M  V30 19 1 19 14
M  V30 20 1 19 17
M  V30 21 1 20 1
M  V30 22 1 21 1
M  V30 23 1 22 1
M  V30 24 1 23 2
M  V30 25 1 24 2
M  V30 26 1 25 3
M  V30 27 1 26 3
M  V30 28 1 27 5
M  V30 29 1 28 5
M  V30 30 1 29 6
M  V30 31 1 30 6
M  V30 32 1 31 7
M  V30 33 1 32 7
M  V30 34 1 33 7
M  V30 35 1 34 8
M  V30 36 1 35 8
M  V30 37 1 36 9
M  V30 38 1 37 9
M  V30 39 1 38 11
M  V30 40 1 39 12
M  V30 41 1 40 13
M  V30 42 1 41 16
M  V30 43 1 42 16
M  V30 44 1 43 19
M  V30 45 1 44 4
M  V30 END BOND
M  V30 END CTAB
M  END
>  <b_m_subgroup_collapsed>  (2606) 
0

>  <r_i_docking_score>  (2606) 
-5.1570793768738099

>  <s_m_subgroup_title>  (2606) 
glide-dock_SP_D22_pv

>  <s_m_subgroupid>  (2606) 
glide-dock_SP_D22_pv

>  <Molecule ChEMBL ID>  (2606) 
CHEMBL589

>  <Standard Type>  (2606) 
Ki

>  <Standard Value>  (2606) 
3.7

>  <label>  (2606) 
1

$$$$
CHEMBL1949725
     RDKit          3D

  0  0  0  0  0  0  0  0  0  0999 V3000
M  V30 BEGIN CTAB
M  V30 COUNTS 48 51 0 0 1
M  V30 BEGIN ATOM
M  V30 1 C 11.364304 4.810015 -15.195967 0
M  V30 2 C 11.417155 3.295793 -15.507059 0 CFG=1
M  V30 3 C 10.713129 2.465929 -14.409084 0
M  V30 4 C 9.212727 2.604024 -14.361446 0
M  V30 5 C 8.282177 1.726280 -14.875804 0
M  V30 6 N 7.014405 2.211917 -14.602390 0
M  V30 7 C 7.074832 3.362656 -13.846858 0
M  V30 8 C 6.073380 4.174634 -13.285057 0
M  V30 9 C 6.442744 5.287996 -12.510263 0
M  V30 10 C 7.805017 5.577066 -12.311802 0
M  V30 11 C 8.800513 4.759956 -12.885839 0
M  V30 12 C 8.463968 3.630324 -13.671990 0
M  V30 13 C 8.447469 0.410463 -15.576932 0
M  V30 14 C 8.410640 0.520306 -17.098272 0
M  V30 15 C 7.141033 0.631627 -17.709143 0
M  V30 16 C 7.013999 0.703520 -19.107613 0
M  V30 17 C 8.162668 0.663960 -19.916616 0
M  V30 18 C 9.432233 0.558866 -19.322702 0
M  V30 19 C 9.574698 0.492354 -17.918015 0
M  V30 20 C 10.994299 0.442679 -17.362974 0
M  V30 21 C 11.708352 1.798682 -17.497179 0
M  V30 22 N 10.924532 2.902141 -16.867710 0 CFG=2 CHG=1
M  V30 23 C 10.670568 4.013936 -17.824621 0
M  V30 24 H 11.753489 5.013546 -14.196756 0
M  V30 25 H 10.351104 5.210413 -15.233294 0
M  V30 26 H 11.982480 5.389338 -15.885541 0
M  V30 27 H 12.480367 3.056828 -15.446697 0
M  V30 28 H 10.985758 1.415922 -14.506245 0
M  V30 29 H 11.126742 2.758316 -13.446820 0
M  V30 30 H 6.169013 1.729144 -14.871191 0
M  V30 31 H 5.030886 3.939965 -13.433789 0
M  V30 32 H 5.689251 5.914552 -12.052400 0
M  V30 33 H 8.078155 6.426808 -11.702287 0
M  V30 34 H 9.837638 4.993923 -12.700952 0
M  V30 35 H 9.324929 -0.113677 -15.209547 0
M  V30 36 H 7.626190 -0.246066 -15.283250 0
M  V30 37 H 6.247759 0.648376 -17.101139 0
M  V30 38 H 6.036798 0.778559 -19.559826 0
M  V30 39 H 8.068989 0.713904 -20.991171 0
M  V30 40 H 10.306063 0.533895 -19.958372 0
M  V30 41 H 11.039831 0.092619 -16.335680 0
M  V30 42 H 11.549276 -0.309783 -17.927223 0
M  V30 43 H 12.719790 1.727473 -17.092400 0
M  V30 44 H 11.853064 2.000806 -18.560944 0
M  V30 45 H 11.595370 4.541092 -18.077066 0
M  V30 46 H 9.945106 4.727600 -17.428949 0
M  V30 47 H 10.239274 3.625148 -18.750515 0
M  V30 48 H 10.001122 2.514365 -16.707357 0
M  V30 END ATOM
M  V30 BEGIN BOND
M  V30 1 1 2 1
M  V30 2 1 3 2
M  V30 3 1 4 3
M  V30 4 2 5 4
M  V30 5 1 6 5
M  V30 6 1 7 6
M  V30 7 2 8 7
M  V30 8 1 9 8
M  V30 9 2 10 9
M  V30 10 1 11 10
M  V30 11 1 12 4
M  V30 12 1 12 7
M  V30 13 2 12 11
M  V30 14 1 13 5
M  V30 15 1 14 13
M  V30 16 2 15 14
M  V30 17 1 16 15
M  V30 18 2 17 16
M  V30 19 1 18 17
M  V30 20 1 19 14
M  V30 21 2 19 18
M  V30 22 1 20 19
M  V30 23 1 21 20
M  V30 24 1 22 2
M  V30 25 1 22 21
M  V30 26 1 23 22
M  V30 27 1 24 1
M  V30 28 1 25 1
M  V30 29 1 26 1
M  V30 30 1 2 27 CFG=3
M  V30 31 1 28 3
M  V30 32 1 29 3
M  V30 33 1 30 6
M  V30 34 1 31 8
M  V30 35 1 32 9
M  V30 36 1 33 10
M  V30 37 1 34 11
M  V30 38 1 35 13
M  V30 39 1 36 13
M  V30 40 1 37 15
M  V30 41 1 38 16
M  V30 42 1 39 17
M  V30 43 1 40 18
M  V30 44 1 41 20
M  V30 45 1 42 20
M  V30 46 1 43 21
M  V30 47 1 44 21
M  V30 48 1 45 23
M  V30 49 1 46 23
M  V30 50 1 47 23
M  V30 51 1 22 48 CFG=1
M  V30 END BOND
M  V30 END CTAB
M  END
>  <b_m_subgroup_collapsed>  (2607) 
0

>  <r_i_docking_score>  (2607) 
-5.1532289019209303

>  <s_m_subgroup_title>  (2607) 
glide-dock_SP_D22_pv

>  <s_m_subgroupid>  (2607) 
glide-dock_SP_D22_pv

>  <Molecule ChEMBL ID>  (2607) 
CHEMBL1949725

>  <Standard Type>  (2607) 
Ki

>  <Standard Value>  (2607) 
85.3

>  <label>  (2607) 
1

$$$$
CHEMBL418802
     RDKit          3D

  0  0  0  0  0  0  0  0  0  0999 V3000
M  V30 BEGIN CTAB
M  V30 COUNTS 60 65 0 0 1
M  V30 BEGIN ATOM
M  V30 1 C 4.203324 -7.597582 -17.467567 0
M  V30 2 O 4.489389 -6.254944 -17.820499 0
M  V30 3 C 5.764114 -5.828397 -17.866554 0
M  V30 4 O 6.752275 -6.535122 -17.655401 0
M  V30 5 C 5.871267 -4.417252 -18.230461 0
M  V30 6 C 6.967181 -3.672434 -18.583397 0
M  V30 7 C 6.511655 -2.319866 -18.751537 0
M  V30 8 C 7.152199 -1.091078 -19.037289 0
M  V30 9 C 6.402020 0.111361 -19.150690 0
M  V30 10 C 5.010876 0.099635 -18.934841 0
M  V30 11 C 4.356866 -1.103955 -18.615910 0
M  V30 12 C 5.102246 -2.293978 -18.529097 0
M  V30 13 N 4.755599 -3.593906 -18.217604 0
M  V30 14 O 7.018582 1.309021 -19.435913 0
M  V30 15 C 8.364769 1.178304 -19.879904 0
M  V30 16 C 9.133726 0.198598 -18.966246 0 CFG=1
M  V30 17 C 9.115771 0.470107 -17.436584 0
M  V30 18 N 9.950379 1.576457 -16.952946 0
M  V30 19 C 9.219810 2.842920 -17.090721 0
M  V30 20 C 9.976915 4.041551 -16.498186 0
M  V30 21 C 10.507771 3.822891 -15.071310 0
M  V30 22 N 9.643113 4.349149 -13.986941 0
M  V30 23 C 9.991158 5.397418 -13.189270 0
M  V30 24 O 11.085456 5.955016 -13.132248 0
M  V30 25 N 8.918993 5.769718 -12.474584 0
M  V30 26 C 7.848403 4.943606 -12.773334 0
M  V30 27 C 6.545525 4.960337 -12.260530 0
M  V30 28 C 5.673450 3.942258 -12.697287 0
M  V30 29 C 6.108815 2.964081 -13.621597 0
M  V30 30 C 7.423984 2.995560 -14.144113 0
M  V30 31 C 8.289557 4.019914 -13.703484 0
M  V30 32 C 11.069957 2.405917 -14.871207 0
M  V30 33 C 10.251536 1.293263 -15.543063 0
M  V30 34 O 8.526226 -1.076973 -19.170511 0
M  V30 35 H 3.131419 -7.778629 -17.538757 0
M  V30 36 H 4.709332 -8.296001 -18.134094 0
M  V30 37 H 4.514738 -7.800949 -16.441896 0
M  V30 38 H 7.987643 -4.012147 -18.673557 0
M  V30 39 H 4.456922 1.022709 -19.003738 0
M  V30 40 H 3.291033 -1.114647 -18.436588 0
M  V30 41 H 3.848107 -3.927620 -17.899475 0
M  V30 42 H 8.841477 2.152526 -19.939766 0
M  V30 43 H 8.361144 0.800326 -20.903942 0
M  V30 44 H 10.167440 0.123285 -19.305216 0
M  V30 45 H 8.096979 0.576232 -17.059299 0
M  V30 46 H 9.487616 -0.451692 -16.983873 0
M  V30 47 H 9.072021 3.067514 -18.141008 0
M  V30 48 H 8.218830 2.773797 -16.677343 0
M  V30 49 H 10.831564 4.234124 -17.147833 0
M  V30 50 H 9.363273 4.941554 -16.548662 0
M  V30 51 H 11.402061 4.448565 -15.043023 0
M  V30 52 H 6.229502 5.701805 -11.539814 0
M  V30 53 H 4.670275 3.898281 -12.308068 0
M  V30 54 H 5.433090 2.177158 -13.919931 0
M  V30 55 H 7.721955 2.224447 -14.824578 0
M  V30 56 H 12.065189 2.379077 -15.318287 0
M  V30 57 H 11.219729 2.191510 -13.813011 0
M  V30 58 H 9.350381 1.087056 -14.974560 0
M  V30 59 H 10.835303 0.373139 -15.493042 0
M  V30 60 H 8.872383 6.524601 -11.805678 0
M  V30 END ATOM
M  V30 BEGIN BOND
M  V30 1 1 2 1
M  V30 2 1 3 2
M  V30 3 2 4 3
M  V30 4 1 5 3
M  V30 5 2 6 5
M  V30 6 1 7 6
M  V30 7 1 8 7
M  V30 8 2 9 8
M  V30 9 1 10 9
M  V30 10 2 11 10
M  V30 11 2 12 7
M  V30 12 1 12 11
M  V30 13 1 13 5
M  V30 14 1 13 12
M  V30 15 1 14 9
M  V30 16 1 15 14
M  V30 17 1 16 15
M  V30 18 1 17 16
M  V30 19 1 18 17
M  V30 20 1 19 18
M  V30 21 1 20 19
M  V30 22 1 21 20
M  V30 23 1 22 21
M  V30 24 1 23 22
M  V30 25 2 24 23
M  V30 26 1 25 23
M  V30 27 1 26 25
M  V30 28 2 27 26
M  V30 29 1 28 27
M  V30 30 2 29 28
M  V30 31 1 30 29
M  V30 32 1 31 22
M  V30 33 1 31 26
M  V30 34 2 31 30
M  V30 35 1 32 21
M  V30 36 1 33 18
M  V30 37 1 33 32
M  V30 38 1 34 8
M  V30 39 1 34 16
M  V30 40 1 35 1
M  V30 41 1 36 1
M  V30 42 1 37 1
M  V30 43 1 38 6
M  V30 44 1 39 10
M  V30 45 1 40 11
M  V30 46 1 41 13
M  V30 47 1 42 15
M  V30 48 1 43 15
M  V30 49 1 16 44 CFG=3
M  V30 50 1 45 17
M  V30 51 1 46 17
M  V30 52 1 47 19
M  V30 53 1 48 19
M  V30 54 1 49 20
M  V30 55 1 50 20
M  V30 56 1 51 21
M  V30 57 1 52 27
M  V30 58 1 53 28
M  V30 59 1 54 29
M  V30 60 1 55 30
M  V30 61 1 56 32
M  V30 62 1 57 32
M  V30 63 1 58 33
M  V30 64 1 59 33
M  V30 65 1 60 25
M  V30 END BOND
M  V30 END CTAB
M  END
>  <b_m_subgroup_collapsed>  (2608) 
0

>  <r_i_docking_score>  (2608) 
-5.1443350585015999

>  <s_m_subgroup_title>  (2608) 
glide-dock_SP_D22_pv

>  <s_m_subgroupid>  (2608) 
glide-dock_SP_D22_pv

>  <Molecule ChEMBL ID>  (2608) 
CHEMBL418802

>  <Standard Type>  (2608) 
Ki

>  <Standard Value>  (2608) 
6.7

>  <label>  (2608) 
1

$$$$
CHEMBL201575
     RDKit          3D

  0  0  0  0  0  0  0  0  0  0999 V3000
M  V30 BEGIN CTAB
M  V30 COUNTS 33 33 0 0 1
M  V30 BEGIN ATOM
M  V30 1 C 11.784076 9.225550 -2.891916 0
M  V30 2 C 12.508963 8.888209 -4.200367 0
M  V30 3 O 11.614152 8.370257 -5.176130 0
M  V30 4 C 10.886113 9.206154 -5.945619 0
M  V30 5 O 10.888086 10.432811 -5.842195 0
M  V30 6 C 10.084724 8.499316 -7.062011 0 CFG=2
M  V30 7 C 9.596185 7.069968 -6.682173 0
M  V30 8 C 8.851090 6.291933 -7.794519 0
M  V30 9 C 9.766502 5.474079 -8.723741 0
M  V30 10 Br 8.801527 4.972672 -10.387443 0
M  V30 11 C 10.819165 8.506085 -8.396158 0
M  V30 12 C 10.064990 8.586183 -9.586955 0
M  V30 13 C 10.681652 8.368284 -10.829335 0
M  V30 14 C 12.072899 8.171138 -10.903047 0
M  V30 15 C 12.840249 8.172000 -9.726357 0
M  V30 16 C 12.216618 8.317657 -8.477380 0
M  V30 17 H 12.485220 9.598408 -2.145519 0
M  V30 18 H 11.028765 9.996222 -3.045904 0
M  V30 19 H 11.295233 8.344619 -2.475757 0
M  V30 20 H 13.272470 8.133017 -4.008864 0
M  V30 21 H 13.033747 9.764396 -4.586108 0
M  V30 22 H 9.190873 9.105621 -7.211180 0
M  V30 23 H 10.421118 6.452124 -6.324511 0
M  V30 24 H 8.911074 7.173468 -5.846939 0
M  V30 25 H 8.123077 5.615310 -7.347727 0
M  V30 26 H 8.251348 6.982650 -8.381298 0
M  V30 27 H 10.664099 6.002934 -9.028878 0
M  V30 28 H 10.094515 4.562242 -8.246881 0
M  V30 29 H 8.994440 8.733587 -9.552810 0
M  V30 30 H 10.085631 8.374371 -11.730113 0
M  V30 31 H 12.552456 8.035338 -11.861394 0
M  V30 32 H 13.912001 8.059494 -9.779589 0
M  V30 33 H 12.827200 8.271938 -7.591073 0
M  V30 END ATOM
M  V30 BEGIN BOND
M  V30 1 1 2 1
M  V30 2 1 3 2
M  V30 3 1 4 3
M  V30 4 2 5 4
M  V30 5 1 6 4
M  V30 6 1 7 6
M  V30 7 1 8 7
M  V30 8 1 9 8
M  V30 9 1 10 9
M  V30 10 1 11 6
M  V30 11 2 12 11
M  V30 12 1 13 12
M  V30 13 2 14 13
M  V30 14 1 15 14
M  V30 15 1 16 11
M  V30 16 2 16 15
M  V30 17 1 17 1
M  V30 18 1 18 1
M  V30 19 1 19 1
M  V30 20 1 20 2
M  V30 21 1 21 2
M  V30 22 1 6 22 CFG=3
M  V30 23 1 23 7
M  V30 24 1 24 7
M  V30 25 1 25 8
M  V30 26 1 26 8
M  V30 27 1 27 9
M  V30 28 1 28 9
M  V30 29 1 29 12
M  V30 30 1 30 13
M  V30 31 1 31 14
M  V30 32 1 32 15
M  V30 33 1 33 16
M  V30 END BOND
M  V30 END CTAB
M  END
>  <b_m_subgroup_collapsed>  (2609) 
0

>  <r_i_docking_score>  (2609) 
-5.1423915622055096

>  <s_m_subgroup_title>  (2609) 
glide-dock_SP_D22_pv

>  <s_m_subgroupid>  (2609) 
glide-dock_SP_D22_pv

>  <Molecule ChEMBL ID>  (2609) 
CHEMBL201575

>  <Standard Type>  (2609) 
Ki

>  <Standard Value>  (2609) 
10000.0

>  <label>  (2609) 
0

$$$$
CHEMBL392970
     RDKit          3D

  0  0  0  0  0  0  0  0  0  0999 V3000
M  V30 BEGIN CTAB
M  V30 COUNTS 62 65 0 0 1
M  V30 BEGIN ATOM
M  V30 1 C 8.261566 8.858771 -12.246647 0
M  V30 2 O 9.148324 7.844163 -11.785623 0
M  V30 3 C 8.911057 6.569687 -12.247252 0
M  V30 4 C 7.617417 5.998175 -12.266309 0
M  V30 5 C 7.397971 4.731489 -12.849405 0
M  V30 6 C 8.493556 4.000371 -13.348687 0
M  V30 7 C 9.789242 4.550714 -13.294786 0
M  V30 8 C 10.003333 5.847006 -12.771207 0
M  V30 9 O 11.225658 6.483972 -12.800595 0
M  V30 10 C 12.175365 6.027839 -13.753129 0
M  V30 11 C 8.319033 2.638103 -13.989418 0
M  V30 12 N 6.929075 2.133684 -14.131628 0 CHG=1
M  V30 13 C 6.614806 0.966868 -14.762910 0
M  V30 14 N 7.398629 0.172134 -15.535615 0
M  V30 15 C 8.514101 0.666777 -16.286785 0
M  V30 16 C 9.771283 0.057759 -16.136536 0
M  V30 17 C 10.885839 0.620892 -16.783966 0
M  V30 18 C 10.750559 1.785159 -17.572041 0
M  V30 19 C 9.468069 2.364585 -17.754526 0
M  V30 20 C 8.347029 1.781996 -17.126675 0
M  V30 21 C 9.245812 3.626272 -18.581894 0 CFG=2
M  V30 22 O 9.545884 3.450698 -19.962194 0
M  V30 23 C 8.721573 2.740087 -20.754507 0
M  V30 24 C 9.204630 2.686706 -22.196711 0
M  V30 25 O 7.687406 2.172652 -20.399105 0
M  V30 26 C 9.974625 4.861738 -18.017031 0
M  V30 27 C 11.489779 4.917449 -18.280386 0
M  V30 28 C 12.305748 3.796604 -17.619358 0
M  V30 29 C 12.000217 2.399917 -18.181665 0
M  V30 30 C 5.914448 2.665206 -13.194617 0
M  V30 31 C 5.987117 4.187431 -12.977590 0
M  V30 32 H 8.854161 9.645676 -12.712296 0
M  V30 33 H 7.544265 8.520378 -12.994829 0
M  V30 34 H 7.709104 9.309875 -11.422364 0
M  V30 35 H 6.787096 6.556265 -11.853821 0
M  V30 36 H 10.610328 3.974490 -13.694125 0
M  V30 37 H 12.968465 6.768392 -13.845993 0
M  V30 38 H 12.629290 5.085033 -13.445737 0
M  V30 39 H 11.731153 5.907164 -14.742646 0
M  V30 40 H 8.914591 1.904001 -13.447314 0
M  V30 41 H 8.786765 2.762065 -14.956500 0
M  V30 42 H 5.611520 0.587426 -14.604774 0
M  V30 43 H 9.894986 -0.806481 -15.499795 0
M  V30 44 H 11.858221 0.172188 -16.648367 0
M  V30 45 H 7.368580 2.224913 -17.239206 0
M  V30 46 H 8.183264 3.861483 -18.512596 0
M  V30 47 H 9.219326 3.687938 -22.626375 0
M  V30 48 H 10.212019 2.272813 -22.243696 0
M  V30 49 H 8.544017 2.061665 -22.796955 0
M  V30 50 H 9.531580 5.748424 -18.472490 0
M  V30 51 H 9.775908 4.951759 -16.948198 0
M  V30 52 H 11.678236 4.923413 -19.354580 0
M  V30 53 H 11.863560 5.874261 -17.913774 0
M  V30 54 H 13.359290 4.010806 -17.803419 0
M  V30 55 H 12.186581 3.810108 -16.534798 0
M  V30 56 H 12.850427 1.749226 -17.972277 0
M  V30 57 H 11.911781 2.425045 -19.268137 0
M  V30 58 H 4.909579 2.387543 -13.512072 0
M  V30 59 H 6.075082 2.167143 -12.239023 0
M  V30 60 H 5.433224 4.447103 -12.073821 0
M  V30 61 H 5.491808 4.701622 -13.802110 0
M  V30 62 H 7.285463 -0.830822 -15.426484 0
M  V30 END ATOM
M  V30 BEGIN BOND
M  V30 1 1 2 1
M  V30 2 1 3 2
M  V30 3 1 4 3
M  V30 4 2 5 4
M  V30 5 1 6 5
M  V30 6 2 7 6
M  V30 7 2 8 3
M  V30 8 1 8 7
M  V30 9 1 9 8
M  V30 10 1 10 9
M  V30 11 1 11 6
M  V30 12 1 12 11
M  V30 13 2 13 12 CFG=2
M  V30 14 1 14 13
M  V30 15 1 15 14
M  V30 16 1 16 15
M  V30 17 2 17 16
M  V30 18 1 18 17
M  V30 19 2 19 18
M  V30 20 2 20 15
M  V30 21 1 20 19
M  V30 22 1 21 19
M  V30 23 1 22 21
M  V30 24 1 23 22
M  V30 25 1 24 23
M  V30 26 2 25 23
M  V30 27 1 26 21
M  V30 28 1 27 26
M  V30 29 1 28 27
M  V30 30 1 29 18
M  V30 31 1 29 28
M  V30 32 1 30 12
M  V30 33 1 31 5
M  V30 34 1 31 30
M  V30 35 1 32 1
M  V30 36 1 33 1
M  V30 37 1 34 1
M  V30 38 1 35 4
M  V30 39 1 36 7
M  V30 40 1 37 10
M  V30 41 1 38 10
M  V30 42 1 39 10
M  V30 43 1 40 11
M  V30 44 1 41 11
M  V30 45 1 42 13
M  V30 46 1 43 16
M  V30 47 1 44 17
M  V30 48 1 45 20
M  V30 49 1 21 46 CFG=3
M  V30 50 1 47 24
M  V30 51 1 48 24
M  V30 52 1 49 24
M  V30 53 1 50 26
M  V30 54 1 51 26
M  V30 55 1 52 27
M  V30 56 1 53 27
M  V30 57 1 54 28
M  V30 58 1 55 28
M  V30 59 1 56 29
M  V30 60 1 57 29
M  V30 61 1 58 30
M  V30 62 1 59 30
M  V30 63 1 60 31
M  V30 64 1 61 31
M  V30 65 1 62 14
M  V30 END BOND
M  V30 END CTAB
M  END
>  <b_m_subgroup_collapsed>  (2610) 
0

>  <r_i_docking_score>  (2610) 
-5.1418515767954096

>  <s_m_subgroup_title>  (2610) 
glide-dock_SP_D22_pv

>  <s_m_subgroupid>  (2610) 
glide-dock_SP_D22_pv

>  <Molecule ChEMBL ID>  (2610) 
CHEMBL392970

>  <Standard Type>  (2610) 
Ki

>  <Standard Value>  (2610) 
14000.0

>  <label>  (2610) 
0

$$$$
CHEMBL201142
     RDKit          3D

  0  0  0  0  0  0  0  0  0  0999 V3000
M  V30 BEGIN CTAB
M  V30 COUNTS 42 44 0 0 1
M  V30 BEGIN ATOM
M  V30 1 C 6.948209 7.697229 -12.989111 0
M  V30 2 C 7.754746 8.501910 -12.284141 0
M  V30 3 C 9.241216 8.303185 -12.062303 0
M  V30 4 N 9.718138 6.898565 -12.246867 0 CFG=1 CHG=1
M  V30 5 C 11.164654 6.866942 -12.646906 0
M  V30 6 C 11.671364 5.627126 -13.446662 0
M  V30 7 C 11.136100 5.408335 -14.850963 0
M  V30 8 C 11.633898 6.254099 -15.866940 0
M  V30 9 C 11.232300 6.089005 -17.204140 0
M  V30 10 C 10.327868 5.067543 -17.539391 0
M  V30 11 C 9.852413 4.197670 -16.541473 0
M  V30 12 C 10.257665 4.341555 -15.195396 0
M  V30 13 C 9.761577 3.294852 -14.198017 0
M  V30 14 C 8.426239 3.636809 -13.602430 0
M  V30 15 C 7.204984 3.279094 -14.246870 0
M  V30 16 C 6.085929 3.674130 -13.573562 0
M  V30 17 S 6.496946 4.464188 -12.095848 0
M  V30 18 C 8.203644 4.239765 -12.384720 0
M  V30 19 C 9.183786 4.596528 -11.311834 0
M  V30 20 C 9.371656 6.093060 -11.045177 0
M  V30 21 H 7.325659 6.800753 -13.446832 0
M  V30 22 H 5.896894 7.921387 -13.100119 0
M  V30 23 H 7.324828 9.385285 -11.836937 0
M  V30 24 H 9.685990 8.972522 -12.790648 0
M  V30 25 H 9.519751 8.672690 -11.073961 0
M  V30 26 H 11.392307 7.735252 -13.266346 0
M  V30 27 H 11.773423 6.991423 -11.750336 0
M  V30 28 H 12.750592 5.741664 -13.557636 0
M  V30 29 H 11.584431 4.721236 -12.868666 0
M  V30 30 H 12.330081 7.044047 -15.623587 0
M  V30 31 H 11.612259 6.749636 -17.969685 0
M  V30 32 H 10.011509 4.940584 -18.564415 0
M  V30 33 H 9.181328 3.398808 -16.820894 0
M  V30 34 H 9.670890 2.351595 -14.739168 0
M  V30 35 H 10.498820 3.057637 -13.436837 0
M  V30 36 H 7.189348 2.756370 -15.192066 0
M  V30 37 H 5.050405 3.544818 -13.847071 0
M  V30 38 H 8.820298 4.172348 -10.376757 0
M  V30 39 H 10.127644 4.091528 -11.471315 0
M  V30 40 H 10.113420 6.248216 -10.260519 0
M  V30 41 H 8.430471 6.455308 -10.627791 0
M  V30 42 H 9.186325 6.523997 -13.020262 0
M  V30 END ATOM
M  V30 BEGIN BOND
M  V30 1 2 2 1
M  V30 2 1 3 2
M  V30 3 1 4 3
M  V30 4 1 5 4
M  V30 5 1 6 5
M  V30 6 1 7 6
M  V30 7 2 8 7
M  V30 8 1 9 8
M  V30 9 2 10 9
M  V30 10 1 11 10
M  V30 11 1 12 7
M  V30 12 2 12 11
M  V30 13 1 13 12
M  V30 14 1 14 13
M  V30 15 1 15 14
M  V30 16 2 16 15
M  V30 17 1 17 16
M  V30 18 2 18 14
M  V30 19 1 18 17
M  V30 20 1 19 18
M  V30 21 1 20 4
M  V30 22 1 20 19
M  V30 23 1 21 1
M  V30 24 1 22 1
M  V30 25 1 23 2
M  V30 26 1 24 3
M  V30 27 1 25 3
M  V30 28 1 26 5
M  V30 29 1 27 5
M  V30 30 1 28 6
M  V30 31 1 29 6
M  V30 32 1 30 8
M  V30 33 1 31 9
M  V30 34 1 32 10
M  V30 35 1 33 11
M  V30 36 1 34 13
M  V30 37 1 35 13
M  V30 38 1 36 15
M  V30 39 1 37 16
M  V30 40 1 38 19
M  V30 41 1 39 19
M  V30 42 1 40 20
M  V30 43 1 41 20
M  V30 44 1 4 42 CFG=3
M  V30 END BOND
M  V30 END CTAB
M  END
>  <b_m_subgroup_collapsed>  (2611) 
0

>  <r_i_docking_score>  (2611) 
-5.1416338516111102

>  <s_m_subgroup_title>  (2611) 
glide-dock_SP_D22_pv

>  <s_m_subgroupid>  (2611) 
glide-dock_SP_D22_pv

>  <Molecule ChEMBL ID>  (2611) 
CHEMBL201142

>  <Standard Type>  (2611) 
Ki

>  <Standard Value>  (2611) 
10000.0

>  <label>  (2611) 
0

$$$$
CHEMBL6025845
     RDKit          3D

  0  0  0  0  0  0  0  0  0  0999 V3000
M  V30 BEGIN CTAB
M  V30 COUNTS 70 73 0 0 1
M  V30 BEGIN ATOM
M  V30 1 C 10.600882 6.671869 -5.315049 0
M  V30 2 C 10.624870 7.304770 -6.660782 0
M  V30 3 N 11.685843 7.967272 -7.116859 0
M  V30 4 C 11.512482 8.441852 -8.413159 0
M  V30 5 C 10.271615 8.177870 -8.931540 0
M  V30 6 C 9.765723 8.631883 -10.257218 0
M  V30 7 C 9.690446 7.510559 -11.288061 0
M  V30 8 O 10.687555 7.199317 -11.939166 0
M  V30 9 N 8.486178 6.951402 -11.447398 0
M  V30 10 C 8.072463 5.966583 -12.436953 0 CFG=1
M  V30 11 C 8.835179 4.644987 -12.268251 0
M  V30 12 C 8.348093 3.613834 -13.285609 0
M  V30 13 C 6.835600 3.317004 -13.137022 0 CFG=2
M  V30 14 C 6.358629 2.261784 -14.171107 0
M  V30 15 C 7.037197 0.863368 -14.099005 0
M  V30 16 N 6.848620 0.007588 -15.306318 0 CFG=2 CHG=1
M  V30 17 C 7.583848 0.478043 -16.510798 0
M  V30 18 C 7.513127 -0.554462 -17.655954 0
M  V30 19 N 6.144260 -0.993865 -17.910185 0
M  V30 20 C 5.520490 -0.225669 -18.903166 0
M  V30 21 N 4.920339 0.927993 -18.670820 0
M  V30 22 O 4.491251 1.365695 -19.928478 0
M  V30 23 C 4.885654 0.457346 -20.858614 0
M  V30 24 C 5.537466 -0.593740 -20.277689 0
M  V30 25 C 6.126332 -1.824938 -20.923721 0
M  V30 26 C 5.568383 -2.099283 -22.328381 0
M  V30 27 F 7.447278 -1.672878 -21.008671 0
M  V30 28 F 5.870236 -2.892706 -20.168489 0
M  V30 29 C 5.374393 -1.404701 -16.728714 0 CFG=2
M  V30 30 C 3.928203 -1.828324 -17.048891 0
M  V30 31 C 5.440310 -0.343724 -15.611520 0
M  V30 32 C 6.024722 4.618053 -13.229119 0
M  V30 33 C 6.555799 5.719905 -12.291059 0
M  V30 34 S 9.288677 7.266955 -7.806436 0
M  V30 35 H 10.885942 7.401284 -4.558234 0
M  V30 36 H 9.606213 6.294544 -5.088754 0
M  V30 37 H 11.310525 5.845535 -5.279398 0
M  V30 38 H 12.320809 8.978847 -8.888235 0
M  V30 39 H 8.796604 9.121869 -10.149318 0
M  V30 40 H 10.457921 9.372304 -10.643764 0
M  V30 41 H 7.731161 7.322196 -10.858394 0
M  V30 42 H 8.269444 6.373834 -13.429450 0
M  V30 43 H 9.906486 4.791484 -12.402863 0
M  V30 44 H 8.700602 4.260315 -11.256349 0
M  V30 45 H 8.559505 3.970354 -14.294622 0
M  V30 46 H 8.953901 2.722264 -13.145617 0
M  V30 47 H 6.610085 2.972304 -12.131238 0
M  V30 48 H 5.287495 2.120045 -14.033118 0
M  V30 49 H 6.485887 2.691267 -15.163532 0
M  V30 50 H 8.111324 0.947815 -13.949571 0
M  V30 51 H 6.663417 0.327971 -13.225092 0
M  V30 52 H 7.163986 1.422606 -16.854994 0
M  V30 53 H 8.627573 0.669743 -16.259377 0
M  V30 54 H 7.946512 -0.122636 -18.559875 0
M  V30 55 H 8.124347 -1.427693 -17.439331 0
M  V30 56 H 4.613006 0.681762 -21.879005 0
M  V30 57 H 6.005223 -3.004159 -22.750845 0
M  V30 58 H 4.486974 -2.234965 -22.303148 0
M  V30 59 H 5.786573 -1.279019 -23.012642 0
M  V30 60 H 5.871974 -2.300448 -16.355480 0
M  V30 61 H 3.438794 -2.227226 -16.159737 0
M  V30 62 H 3.317991 -0.998088 -17.405397 0
M  V30 63 H 3.904104 -2.612900 -17.806288 0
M  V30 64 H 4.951979 -0.720500 -14.711580 0
M  V30 65 H 4.900279 0.545924 -15.923508 0
M  V30 66 H 6.038974 4.972336 -14.246819 0
M  V30 67 H 4.977389 4.419377 -12.999354 0
M  V30 68 H 6.341936 5.436089 -11.261740 0
M  V30 69 H 6.006526 6.646393 -12.464966 0
M  V30 70 H 7.283237 -0.879916 -15.083323 0
M  V30 END ATOM
M  V30 BEGIN BOND
M  V30 1 1 2 1
M  V30 2 2 3 2
M  V30 3 1 4 3
M  V30 4 2 5 4
M  V30 5 1 6 5
M  V30 6 1 7 6
M  V30 7 2 8 7
M  V30 8 1 9 7
M  V30 9 1 10 9
M  V30 10 1 11 10
M  V30 11 1 12 11
M  V30 12 1 13 12
M  V30 13 1 14 13
M  V30 14 1 15 14
M  V30 15 1 16 15
M  V30 16 1 17 16
M  V30 17 1 18 17
M  V30 18 1 19 18
M  V30 19 1 20 19
M  V30 20 2 21 20
M  V30 21 1 22 21
M  V30 22 1 23 22
M  V30 23 1 24 20
M  V30 24 2 24 23
M  V30 25 1 25 24
M  V30 26 1 26 25
M  V30 27 1 27 25
M  V30 28 1 28 25
M  V30 29 1 29 19
M  V30 30 1 30 29
M  V30 31 1 31 16
M  V30 32 1 31 29
M  V30 33 1 32 13
M  V30 34 1 33 10
M  V30 35 1 33 32
M  V30 36 1 34 2
M  V30 37 1 34 5
M  V30 38 1 35 1
M  V30 39 1 36 1
M  V30 40 1 37 1
M  V30 41 1 38 4
M  V30 42 1 39 6
M  V30 43 1 40 6
M  V30 44 1 41 9
M  V30 45 1 10 42 CFG=3
M  V30 46 1 43 11
M  V30 47 1 44 11
M  V30 48 1 45 12
M  V30 49 1 46 12
M  V30 50 1 13 47 CFG=1
M  V30 51 1 48 14
M  V30 52 1 49 14
M  V30 53 1 50 15
M  V30 54 1 51 15
M  V30 55 1 52 17
M  V30 56 1 53 17
M  V30 57 1 54 18
M  V30 58 1 55 18
M  V30 59 1 56 23
M  V30 60 1 57 26
M  V30 61 1 58 26
M  V30 62 1 59 26
M  V30 63 1 29 60 CFG=1
M  V30 64 1 61 30
M  V30 65 1 62 30
M  V30 66 1 63 30
M  V30 67 1 64 31
M  V30 68 1 65 31
M  V30 69 1 66 32
M  V30 70 1 67 32
M  V30 71 1 68 33
M  V30 72 1 69 33
M  V30 73 1 16 70 CFG=1
M  V30 END BOND
M  V30 END CTAB
M  END
>  <b_m_subgroup_collapsed>  (2612) 
0

>  <r_i_docking_score>  (2612) 
-5.1395220281321103

>  <s_m_subgroup_title>  (2612) 
glide-dock_SP_D22_pv

>  <s_m_subgroupid>  (2612) 
glide-dock_SP_D22_pv

>  <Molecule ChEMBL ID>  (2612) 
CHEMBL6025845

>  <Standard Type>  (2612) 
Ki

>  <Standard Value>  (2612) 
68.0

>  <label>  (2612) 
1

$$$$
CHEMBL1742470
     RDKit          3D

  0  0  0  0  0  0  0  0  0  0999 V3000
M  V30 BEGIN CTAB
M  V30 COUNTS 54 55 0 0 1
M  V30 BEGIN ATOM
M  V30 1 C 5.369195 8.336164 -12.726503 0
M  V30 2 C 5.723008 6.864639 -12.601457 0
M  V30 3 C 7.224798 6.571851 -12.481305 0
M  V30 4 N 7.470438 5.388624 -11.607700 0 CFG=2 CHG=1
M  V30 5 C 8.816673 5.311217 -10.936414 0
M  V30 6 C 8.633291 5.089244 -9.426675 0
M  V30 7 C 9.765844 6.509786 -11.162713 0
M  V30 8 C 7.023661 4.068025 -12.162323 0 CFG=1
M  V30 9 C 5.513299 3.826714 -12.300893 0
M  V30 10 O 5.282951 2.430996 -12.422164 0
M  V30 11 C 5.953734 1.801698 -13.446959 0
M  V30 12 C 5.455587 0.558682 -13.878839 0
M  V30 13 C 6.083019 -0.131201 -14.929804 0
M  V30 14 C 7.217764 0.420677 -15.549590 0
M  V30 15 C 7.758250 1.645155 -15.103601 0
M  V30 16 C 8.972687 2.180539 -15.798775 0
M  V30 17 O 8.894645 2.571260 -16.962582 0
M  V30 18 N 10.096054 2.196047 -15.060228 0
M  V30 19 C 11.393785 2.759074 -15.441550 0
M  V30 20 C 11.317430 4.284500 -15.624374 0
M  V30 21 C 12.005135 2.049303 -16.662224 0
M  V30 22 C 7.127525 2.345754 -14.038999 0
M  V30 23 C 7.700231 3.653790 -13.483449 0
M  V30 24 H 4.422336 8.573077 -12.248040 0
M  V30 25 H 6.112266 8.972078 -12.246937 0
M  V30 26 H 5.285924 8.572216 -13.784610 0
M  V30 27 H 5.285706 6.335684 -13.442695 0
M  V30 28 H 5.250866 6.513008 -11.687324 0
M  V30 29 H 7.674706 7.454607 -12.035168 0
M  V30 30 H 7.706632 6.470116 -13.448775 0
M  V30 31 H 9.350386 4.442666 -11.323551 0
M  V30 32 H 9.595487 5.005809 -8.920081 0
M  V30 33 H 8.087642 5.915972 -8.967628 0
M  V30 34 H 8.085985 4.172534 -9.216600 0
M  V30 35 H 10.725795 6.336609 -10.679891 0
M  V30 36 H 9.967031 6.679163 -12.220509 0
M  V30 37 H 9.377456 7.429939 -10.724154 0
M  V30 38 H 7.286653 3.372430 -11.375507 0
M  V30 39 H 4.962842 4.208360 -11.446802 0
M  V30 40 H 5.094349 4.285399 -13.193422 0
M  V30 41 H 4.573589 0.143923 -13.416220 0
M  V30 42 H 5.692487 -1.080103 -15.269274 0
M  V30 43 H 7.686263 -0.117686 -16.361860 0
M  V30 44 H 10.030555 1.809475 -14.128140 0
M  V30 45 H 12.059566 2.574689 -14.598220 0
M  V30 46 H 12.309473 4.704666 -15.793704 0
M  V30 47 H 10.694681 4.560617 -16.476435 0
M  V30 48 H 10.904153 4.767914 -14.738170 0
M  V30 49 H 13.012750 2.415446 -16.855618 0
M  V30 50 H 12.072839 0.973484 -16.502747 0
M  V30 51 H 11.423479 2.215344 -17.568186 0
M  V30 52 H 8.771872 3.562761 -13.321481 0
M  V30 53 H 7.552992 4.414944 -14.247139 0
M  V30 54 H 6.856661 5.575362 -10.821923 0
M  V30 END ATOM
M  V30 BEGIN BOND
M  V30 1 1 2 1
M  V30 2 1 3 2
M  V30 3 1 4 3
M  V30 4 1 5 4
M  V30 5 1 6 5
M  V30 6 1 7 5
M  V30 7 1 8 4
M  V30 8 1 9 8
M  V30 9 1 10 9
M  V30 10 1 11 10
M  V30 11 1 12 11
M  V30 12 2 13 12
M  V30 13 1 14 13
M  V30 14 2 15 14
M  V30 15 1 16 15
M  V30 16 2 17 16
M  V30 17 1 18 16
M  V30 18 1 19 18
M  V30 19 1 20 19
M  V30 20 1 21 19
M  V30 21 2 22 11
M  V30 22 1 22 15
M  V30 23 1 23 8
M  V30 24 1 23 22
M  V30 25 1 24 1
M  V30 26 1 25 1
M  V30 27 1 26 1
M  V30 28 1 27 2
M  V30 29 1 28 2
M  V30 30 1 29 3
M  V30 31 1 30 3
M  V30 32 1 31 5
M  V30 33 1 32 6
M  V30 34 1 33 6
M  V30 35 1 34 6
M  V30 36 1 35 7
M  V30 37 1 36 7
M  V30 38 1 37 7
M  V30 39 1 8 38 CFG=1
M  V30 40 1 39 9
M  V30 41 1 40 9
M  V30 42 1 41 12
M  V30 43 1 42 13
M  V30 44 1 43 14
M  V30 45 1 44 18
M  V30 46 1 45 19
M  V30 47 1 46 20
M  V30 48 1 47 20
M  V30 49 1 48 20
M  V30 50 1 49 21
M  V30 51 1 50 21
M  V30 52 1 51 21
M  V30 53 1 52 23
M  V30 54 1 53 23
M  V30 55 1 4 54 CFG=1
M  V30 END BOND
M  V30 END CTAB
M  END
>  <b_m_subgroup_collapsed>  (2613) 
0

>  <r_i_docking_score>  (2613) 
-5.1391428317741203

>  <s_m_subgroup_title>  (2613) 
glide-dock_SP_D22_pv

>  <s_m_subgroupid>  (2613) 
glide-dock_SP_D22_pv

>  <Molecule ChEMBL ID>  (2613) 
CHEMBL1742470

>  <Standard Type>  (2613) 
Ki

>  <Standard Value>  (2613) 
50000.0

>  <label>  (2613) 
0

$$$$
CHEMBL1258988
     RDKit          3D

  0  0  0  0  0  0  0  0  0  0999 V3000
M  V30 BEGIN CTAB
M  V30 COUNTS 54 58 0 0 1
M  V30 BEGIN ATOM
M  V30 1 C 13.102332 -0.438827 -19.365189 0
M  V30 2 N 12.172895 -0.360818 -18.247427 0
M  V30 3 C 12.086088 1.019117 -17.770401 0
M  V30 4 C 11.128698 1.107272 -16.563341 0
M  V30 5 N 9.782475 0.607497 -16.950344 0 CHG=1
M  V30 6 C 8.667638 0.790552 -15.968488 0 CFG=1
M  V30 7 C 8.732319 2.137198 -15.204707 0
M  V30 8 C 7.583380 2.590807 -14.298450 0
M  V30 9 C 7.679301 3.928714 -13.846870 0
M  V30 10 C 6.704066 4.493034 -13.009628 0
M  V30 11 C 5.610764 3.716805 -12.606543 0
M  V30 12 C 5.495921 2.379912 -13.031246 0
M  V30 13 C 6.486907 1.797547 -13.846862 0
M  V30 14 S 6.371206 0.055606 -14.125771 0
M  V30 15 C 6.227368 0.072706 -15.867589 0
M  V30 16 C 5.023698 -0.321167 -16.476631 0
M  V30 17 C 4.885926 -0.225966 -17.872948 0
M  V30 18 C 5.924676 0.315410 -18.661737 0
M  V30 19 C 5.793921 0.425049 -20.123106 0
M  V30 20 N 5.066991 -0.478456 -20.838945 0
M  V30 21 C 5.286063 0.004817 -22.055218 0
M  V30 22 N 6.067514 1.089749 -22.078457 0
M  V30 23 C 6.527011 1.900845 -23.185469 0
M  V30 24 N 6.434123 1.372515 -20.808168 0
M  V30 25 C 7.118209 0.720419 -18.025957 0
M  V30 26 C 7.308634 0.542379 -16.635469 0
M  V30 27 C 9.912921 -0.788953 -17.444321 0
M  V30 28 C 10.847541 -0.814381 -18.660250 0
M  V30 29 H 12.773564 0.172127 -20.206667 0
M  V30 30 H 14.091216 -0.095036 -19.061533 0
M  V30 31 H 13.204063 -1.468154 -19.709446 0
M  V30 32 H 11.747735 1.676752 -18.573456 0
M  V30 33 H 13.075570 1.371608 -17.473116 0
M  V30 34 H 11.097378 2.152647 -16.257521 0
M  V30 35 H 11.511310 0.532521 -15.719968 0
M  V30 36 H 8.823571 0.003169 -15.228872 0
M  V30 37 H 8.853178 2.930789 -15.943254 0
M  V30 38 H 9.625239 2.156119 -14.577721 0
M  V30 39 H 8.515886 4.542052 -14.150086 0
M  V30 40 H 6.799628 5.514524 -12.666753 0
M  V30 41 H 4.885557 4.150710 -11.938530 0
M  V30 42 H 4.671852 1.781059 -12.677085 0
M  V30 43 H 4.205841 -0.694480 -15.877637 0
M  V30 44 H 3.963053 -0.545250 -18.336828 0
M  V30 45 H 4.885512 -0.446383 -22.950794 0
M  V30 46 H 6.200226 1.464087 -24.129383 0
M  V30 47 H 6.114500 2.907873 -23.099764 0
M  V30 48 H 7.616765 1.955816 -23.178871 0
M  V30 49 H 7.912446 1.110758 -18.642925 0
M  V30 50 H 10.293781 -1.432276 -16.649675 0
M  V30 51 H 8.951393 -1.207413 -17.741680 0
M  V30 52 H 10.458164 -0.190650 -19.467354 0
M  V30 53 H 10.909077 -1.827537 -19.046391 0
M  V30 54 H 9.521705 1.163149 -17.750582 0
M  V30 END ATOM
M  V30 BEGIN BOND
M  V30 1 1 2 1
M  V30 2 1 3 2
M  V30 3 1 4 3
M  V30 4 1 5 4
M  V30 5 1 6 5
M  V30 6 1 7 6
M  V30 7 1 8 7
M  V30 8 2 9 8
M  V30 9 1 10 9
M  V30 10 2 11 10
M  V30 11 1 12 11
M  V30 12 1 13 8
M  V30 13 2 13 12
M  V30 14 1 14 13
M  V30 15 1 15 14
M  V30 16 1 16 15
M  V30 17 2 17 16
M  V30 18 1 18 17
M  V30 19 1 19 18
M  V30 20 1 20 19
M  V30 21 2 21 20
M  V30 22 1 22 21
M  V30 23 1 23 22
M  V30 24 2 24 19
M  V30 25 1 24 22
M  V30 26 2 25 18
M  V30 27 1 26 6
M  V30 28 2 26 15
M  V30 29 1 26 25
M  V30 30 1 27 5
M  V30 31 1 28 2
M  V30 32 1 28 27
M  V30 33 1 29 1
M  V30 34 1 30 1
M  V30 35 1 31 1
M  V30 36 1 32 3
M  V30 37 1 33 3
M  V30 38 1 34 4
M  V30 39 1 35 4
M  V30 40 1 6 36 CFG=1
M  V30 41 1 37 7
M  V30 42 1 38 7
M  V30 43 1 39 9
M  V30 44 1 40 10
M  V30 45 1 41 11
M  V30 46 1 42 12
M  V30 47 1 43 16
M  V30 48 1 44 17
M  V30 49 1 45 21
M  V30 50 1 46 23
M  V30 51 1 47 23
M  V30 52 1 48 23
M  V30 53 1 49 25
M  V30 54 1 50 27
M  V30 55 1 51 27
M  V30 56 1 52 28
M  V30 57 1 53 28
M  V30 58 1 54 5
M  V30 END BOND
M  V30 END CTAB
M  END
>  <b_m_subgroup_collapsed>  (2614) 
0

>  <r_i_docking_score>  (2614) 
-5.1365800580823198

>  <s_m_subgroup_title>  (2614) 
glide-dock_SP_D22_pv

>  <s_m_subgroupid>  (2614) 
glide-dock_SP_D22_pv

>  <Molecule ChEMBL ID>  (2614) 
CHEMBL1258988

>  <Standard Type>  (2614) 
Ki

>  <Standard Value>  (2614) 
5.9

>  <label>  (2614) 
1

$$$$
CHEMBL203734
     RDKit          3D

  0  0  0  0  0  0  0  0  0  0999 V3000
M  V30 BEGIN CTAB
M  V30 COUNTS 45 47 0 0 1
M  V30 BEGIN ATOM
M  V30 1 C 6.199443 -0.064025 -17.959614 0
M  V30 2 O 6.449058 1.325024 -17.794201 0
M  V30 3 C 7.758668 1.626292 -17.517786 0
M  V30 4 C 8.652661 1.880616 -18.572248 0
M  V30 5 Cl 8.119151 1.818401 -20.212776 0
M  V30 6 C 9.994683 2.173491 -18.289646 0
M  V30 7 C 10.460401 2.268304 -16.961853 0
M  V30 8 C 9.543197 2.104002 -15.877762 0
M  V30 9 C 8.201462 1.723297 -16.181223 0
M  V30 10 Cl 7.057570 1.323156 -14.943142 0
M  V30 11 C 9.965627 2.284294 -14.408992 0
M  V30 12 C 9.740522 3.690186 -13.820449 0
M  V30 13 C 8.434287 4.020399 -13.385256 0
M  V30 14 C 8.147780 5.240830 -12.749101 0
M  V30 15 C 9.174582 6.169943 -12.541679 0
M  V30 16 C 10.475691 5.876053 -12.983953 0
M  V30 17 C 10.777142 4.644452 -13.607550 0
M  V30 18 C 12.241559 4.414370 -13.958727 0
M  V30 19 C 12.711646 5.246545 -15.155971 0
M  V30 20 N 11.928515 4.967818 -16.388048 0 CFG=1 CHG=1
M  V30 21 C 11.738754 6.200562 -17.185081 0
M  V30 22 C 12.476976 3.857171 -17.211266 0
M  V30 23 C 11.966125 2.465425 -16.795835 0
M  V30 24 H 5.144549 -0.217130 -18.189228 0
M  V30 25 H 6.427458 -0.625518 -17.052286 0
M  V30 26 H 6.784075 -0.481263 -18.780540 0
M  V30 27 H 10.677449 2.315368 -19.115593 0
M  V30 28 H 9.378380 1.597651 -13.803273 0
M  V30 29 H 10.967790 1.915048 -14.224554 0
M  V30 30 H 7.622882 3.322861 -13.483231 0
M  V30 31 H 7.148139 5.454035 -12.397888 0
M  V30 32 H 8.962572 7.102424 -12.037142 0
M  V30 33 H 11.255279 6.604037 -12.815000 0
M  V30 34 H 12.838557 4.703364 -13.093369 0
M  V30 35 H 12.472623 3.372668 -14.099389 0
M  V30 36 H 12.612508 6.298804 -14.883702 0
M  V30 37 H 13.777489 5.099418 -15.332760 0
M  V30 38 H 12.698756 6.590173 -17.525311 0
M  V30 39 H 11.256439 6.971267 -16.584745 0
M  V30 40 H 11.110592 6.018820 -18.057993 0
M  V30 41 H 12.206959 4.009263 -18.257053 0
M  V30 42 H 13.567721 3.877110 -17.192604 0
M  V30 43 H 12.322659 2.175641 -15.818251 0
M  V30 44 H 12.449388 1.739258 -17.451939 0
M  V30 45 H 11.001948 4.690408 -16.088409 0
M  V30 END ATOM
M  V30 BEGIN BOND
M  V30 1 1 2 1
M  V30 2 1 3 2
M  V30 3 1 4 3
M  V30 4 1 5 4
M  V30 5 2 6 4
M  V30 6 1 7 6
M  V30 7 2 8 7
M  V30 8 2 9 3
M  V30 9 1 9 8
M  V30 10 1 10 9
M  V30 11 1 11 8
M  V30 12 1 12 11
M  V30 13 2 13 12
M  V30 14 1 14 13
M  V30 15 2 15 14
M  V30 16 1 16 15
M  V30 17 1 17 12
M  V30 18 2 17 16
M  V30 19 1 18 17
M  V30 20 1 19 18
M  V30 21 1 20 19
M  V30 22 1 21 20
M  V30 23 1 22 20
M  V30 24 1 23 7
M  V30 25 1 23 22
M  V30 26 1 24 1
M  V30 27 1 25 1
M  V30 28 1 26 1
M  V30 29 1 27 6
M  V30 30 1 28 11
M  V30 31 1 29 11
M  V30 32 1 30 13
M  V30 33 1 31 14
M  V30 34 1 32 15
M  V30 35 1 33 16
M  V30 36 1 34 18
M  V30 37 1 35 18
M  V30 38 1 36 19
M  V30 39 1 37 19
M  V30 40 1 38 21
M  V30 41 1 39 21
M  V30 42 1 40 21
M  V30 43 1 41 22
M  V30 44 1 42 22
M  V30 45 1 43 23
M  V30 46 1 44 23
M  V30 47 1 20 45 CFG=1
M  V30 END BOND
M  V30 END CTAB
M  END
>  <b_m_subgroup_collapsed>  (2615) 
0

>  <r_i_docking_score>  (2615) 
-5.1237757167904396

>  <s_m_subgroup_title>  (2615) 
glide-dock_SP_D22_pv

>  <s_m_subgroupid>  (2615) 
glide-dock_SP_D22_pv

>  <Molecule ChEMBL ID>  (2615) 
CHEMBL203734

>  <Standard Type>  (2615) 
Ki

>  <Standard Value>  (2615) 
2.5

>  <label>  (2615) 
1

$$$$
CHEMBL2062852
     RDKit          3D

  0  0  0  0  0  0  0  0  0  0999 V3000
M  V30 BEGIN CTAB
M  V30 COUNTS 54 56 0 0 1
M  V30 BEGIN ATOM
M  V30 1 C 9.982821 3.772936 -9.038334 0
M  V30 2 C 8.666715 4.506747 -8.706246 0
M  V30 3 N 8.825023 5.972287 -8.498645 0 CHG=1
M  V30 4 C 9.322431 6.254662 -7.130292 0
M  V30 5 C 9.360114 7.719327 -6.703403 0
M  V30 6 C 9.607235 6.560000 -9.609167 0 CFG=2
M  V30 7 C 9.490792 8.083097 -9.791519 0 CFG=1
M  V30 8 C 10.675093 9.019592 -9.467380 0
M  V30 9 O 11.911059 8.342637 -9.345881 0
M  V30 10 C 9.167768 7.785582 -11.258460 0 CFG=1
M  V30 11 C 10.291292 7.771930 -12.247890 0
M  V30 12 N 10.297181 6.438650 -12.911321 0 CFG=1 CHG=1
M  V30 13 C 11.612358 5.963203 -13.433376 0
M  V30 14 C 11.893635 6.399888 -14.855618 0
M  V30 15 C 12.796188 7.449962 -15.112985 0
M  V30 16 C 13.098359 7.815657 -16.439507 0
M  V30 17 C 12.485375 7.143926 -17.511362 0
M  V30 18 C 11.576384 6.098282 -17.259027 0
M  V30 19 C 11.285611 5.722889 -15.934567 0
M  V30 20 C 9.544170 5.491687 -12.064088 0 CFG=2
M  V30 21 C 8.516551 4.713986 -12.891833 0
M  V30 22 C 8.899040 6.336170 -10.962968 0 CFG=1
M  V30 23 H 9.950717 2.759160 -8.645287 0
M  V30 24 H 10.885879 4.242068 -8.648914 0
M  V30 25 H 10.089044 3.606501 -10.096921 0
M  V30 26 H 7.968527 4.319092 -9.519900 0
M  V30 27 H 8.186924 4.047622 -7.847115 0
M  V30 28 H 8.622335 5.772381 -6.452769 0
M  V30 29 H 10.294533 5.787978 -6.968890 0
M  V30 30 H 9.316907 7.771966 -5.621644 0
M  V30 31 H 8.527543 8.303554 -7.086992 0
M  V30 32 H 10.302581 8.174549 -6.968443 0
M  V30 33 H 10.643891 6.224412 -9.640916 0
M  V30 34 H 8.565772 8.460979 -9.352618 0
M  V30 35 H 10.808830 9.771878 -10.240261 0
M  V30 36 H 10.498746 9.585201 -8.557899 0
M  V30 37 H 12.609443 8.986465 -9.341696 0
M  V30 38 H 8.216338 8.243843 -11.600120 0
M  V30 39 H 10.086142 8.559132 -12.975935 0
M  V30 40 H 11.263444 7.962297 -11.798349 0
M  V30 41 H 12.414450 6.302614 -12.774054 0
M  V30 42 H 11.650590 4.872613 -13.424443 0
M  V30 43 H 13.270593 7.970342 -14.296133 0
M  V30 44 H 13.792400 8.617499 -16.637838 0
M  V30 45 H 12.707977 7.432579 -18.527725 0
M  V30 46 H 11.105892 5.581991 -18.082367 0
M  V30 47 H 10.596789 4.911472 -15.751258 0
M  V30 48 H 10.269571 4.803061 -11.663407 0
M  V30 49 H 7.985508 3.995389 -12.267338 0
M  V30 50 H 8.990972 4.157376 -13.701527 0
M  V30 51 H 7.772426 5.380670 -13.330873 0
M  V30 52 H 7.824676 6.168484 -10.848174 0
M  V30 53 H 7.896585 6.383538 -8.543345 0
M  V30 54 H 9.712360 6.548196 -13.729275 0
M  V30 END ATOM
M  V30 BEGIN BOND
M  V30 1 1 2 1
M  V30 2 1 3 2
M  V30 3 1 4 3
M  V30 4 1 5 4
M  V30 5 1 6 3
M  V30 6 1 7 6
M  V30 7 1 8 7
M  V30 8 1 9 8
M  V30 9 1 10 7
M  V30 10 1 11 10
M  V30 11 1 12 11
M  V30 12 1 13 12
M  V30 13 1 14 13
M  V30 14 2 15 14
M  V30 15 1 16 15
M  V30 16 2 17 16
M  V30 17 1 18 17
M  V30 18 1 19 14
M  V30 19 2 19 18
M  V30 20 1 20 12
M  V30 21 1 21 20
M  V30 22 1 22 6
M  V30 23 1 22 10
M  V30 24 1 22 20
M  V30 25 1 23 1
M  V30 26 1 24 1
M  V30 27 1 25 1
M  V30 28 1 26 2
M  V30 29 1 27 2
M  V30 30 1 28 4
M  V30 31 1 29 4
M  V30 32 1 30 5
M  V30 33 1 31 5
M  V30 34 1 32 5
M  V30 35 1 6 33 CFG=3
M  V30 36 1 7 34 CFG=1
M  V30 37 1 35 8
M  V30 38 1 36 8
M  V30 39 1 37 9
M  V30 40 1 10 38 CFG=3
M  V30 41 1 39 11
M  V30 42 1 40 11
M  V30 43 1 41 13
M  V30 44 1 42 13
M  V30 45 1 43 15
M  V30 46 1 44 16
M  V30 47 1 45 17
M  V30 48 1 46 18
M  V30 49 1 47 19
M  V30 50 1 20 48 CFG=1
M  V30 51 1 49 21
M  V30 52 1 50 21
M  V30 53 1 51 21
M  V30 54 1 22 52 CFG=1
M  V30 55 1 53 3
M  V30 56 1 12 54 CFG=3
M  V30 END BOND
M  V30 END CTAB
M  END
>  <b_m_subgroup_collapsed>  (2616) 
0

>  <r_i_docking_score>  (2616) 
-5.1209961633207799

>  <s_m_subgroup_title>  (2616) 
glide-dock_SP_D22_pv

>  <s_m_subgroupid>  (2616) 
glide-dock_SP_D22_pv

>  <Molecule ChEMBL ID>  (2616) 
CHEMBL2062852

>  <Standard Type>  (2616) 
Ki

>  <Standard Value>  (2616) 
38000.0

>  <label>  (2616) 
0

$$$$
CHEMBL423198
     RDKit          3D

  0  0  0  0  0  0  0  0  0  0999 V3000
M  V30 BEGIN CTAB
M  V30 COUNTS 72 76 0 0 1
M  V30 BEGIN ATOM
M  V30 1 C 16.091763 5.659232 -16.889647 0
M  V30 2 O 14.824430 5.771602 -16.263662 0
M  V30 3 C 13.743576 5.091256 -16.788961 0
M  V30 4 C 13.864321 4.233735 -17.912821 0
M  V30 5 C 12.742292 3.576927 -18.440100 0
M  V30 6 C 11.487955 3.776736 -17.842340 0
M  V30 7 S 10.035214 3.006097 -18.539150 0
M  V30 8 O 8.884446 3.862614 -18.224421 0
M  V30 9 O 10.314757 2.616327 -19.929987 0
M  V30 10 N 9.879928 1.565946 -17.600283 0
M  V30 11 C 9.660177 1.711387 -16.152283 0
M  V30 12 C 9.204970 0.395902 -15.502798 0
M  V30 13 O 10.083038 -0.647222 -15.880795 0
M  V30 14 C 10.045300 -0.866490 -17.282070 0
M  V30 15 C 10.623778 0.362143 -17.997206 0
M  V30 16 C 11.352193 4.603143 -16.710091 0
M  V30 17 C 12.473258 5.266403 -16.168068 0
M  V30 18 C 12.313672 6.158976 -15.014293 0
M  V30 19 C 13.036140 7.249734 -14.633305 0
M  V30 20 C 12.512772 7.733552 -13.404648 0
M  V30 21 C 11.352633 7.066689 -13.144571 0
M  V30 22 C 10.219592 7.440488 -12.230340 0
M  V30 23 N 10.384456 6.984268 -10.820842 0 CFG=1 CHG=1
M  V30 24 C 10.679261 8.145082 -9.924238 0
M  V30 25 C 11.600983 7.811380 -8.741160 0
M  V30 26 C 11.008600 6.977385 -7.584339 0
M  V30 27 C 9.626581 6.346013 -7.809562 0
M  V30 28 C 9.550020 5.402558 -9.021794 0
M  V30 29 C 9.244011 6.144598 -10.335546 0 CFG=2
M  V30 30 C 8.671371 5.209246 -11.408813 0
M  V30 31 C 7.357160 5.412216 -11.888356 0
M  V30 32 C 6.872613 4.690611 -12.992484 0
M  V30 33 C 7.710194 3.772036 -13.644594 0
M  V30 34 C 9.016093 3.548379 -13.167817 0
M  V30 35 C 9.484097 4.244778 -12.040630 0
M  V30 36 N 11.289048 6.045842 -14.085656 0
M  V30 37 H 16.806202 6.290888 -16.363914 0
M  V30 38 H 16.467972 4.638939 -16.838675 0
M  V30 39 H 16.058434 5.991081 -17.925756 0
M  V30 40 H 14.812531 4.070816 -18.402172 0
M  V30 41 H 12.843038 2.939728 -19.307701 0
M  V30 42 H 10.595344 2.028174 -15.695084 0
M  V30 43 H 8.926896 2.495190 -15.974628 0
M  V30 44 H 9.228120 0.486020 -14.417889 0
M  V30 45 H 8.179703 0.155389 -15.779027 0
M  V30 46 H 10.614097 -1.762415 -17.525093 0
M  V30 47 H 9.021625 -1.056744 -17.612356 0
M  V30 48 H 10.559600 0.223129 -19.074841 0
M  V30 49 H 11.677795 0.489938 -17.748823 0
M  V30 50 H 10.373660 4.743767 -16.275797 0
M  V30 51 H 13.885555 7.638133 -15.170143 0
M  V30 52 H 12.891663 8.569074 -12.841340 0
M  V30 53 H 9.280045 7.128132 -12.666712 0
M  V30 54 H 10.072843 8.521154 -12.257439 0
M  V30 55 H 9.761054 8.632530 -9.590390 0
M  V30 56 H 11.223366 8.903193 -10.491292 0
M  V30 57 H 11.937805 8.758780 -8.311288 0
M  V30 58 H 12.518652 7.372431 -9.124214 0
M  V30 59 H 10.930857 7.623189 -6.705930 0
M  V30 60 H 11.714931 6.197959 -7.300395 0
M  V30 61 H 8.858683 7.119671 -7.871526 0
M  V30 62 H 9.375903 5.784297 -6.911337 0
M  V30 63 H 8.721902 4.715736 -8.833524 0
M  V30 64 H 10.437613 4.775920 -9.099514 0
M  V30 65 H 8.469667 6.866234 -10.114962 0
M  V30 66 H 6.717755 6.162072 -11.446819 0
M  V30 67 H 5.870432 4.861263 -13.351500 0
M  V30 68 H 7.335070 3.217986 -14.491778 0
M  V30 69 H 9.654092 2.816477 -13.638738 0
M  V30 70 H 10.486014 4.060226 -11.697850 0
M  V30 71 H 10.537003 5.372247 -14.150578 0
M  V30 72 H 11.201090 6.393012 -10.825819 0
M  V30 END ATOM
M  V30 BEGIN BOND
M  V30 1 1 2 1
M  V30 2 1 3 2
M  V30 3 1 4 3
M  V30 4 2 5 4
M  V30 5 1 6 5
M  V30 6 1 7 6
M  V30 7 2 8 7
M  V30 8 2 9 7
M  V30 9 1 10 7
M  V30 10 1 11 10
M  V30 11 1 12 11
M  V30 12 1 13 12
M  V30 13 1 14 13
M  V30 14 1 15 10
M  V30 15 1 15 14
M  V30 16 2 16 6
M  V30 17 2 17 3
M  V30 18 1 17 16
M  V30 19 1 18 17
M  V30 20 2 19 18
M  V30 21 1 20 19
M  V30 22 2 21 20
M  V30 23 1 22 21
M  V30 24 1 23 22
M  V30 25 1 24 23
M  V30 26 1 25 24
M  V30 27 1 26 25
M  V30 28 1 27 26
M  V30 29 1 28 27
M  V30 30 1 29 23
M  V30 31 1 29 28
M  V30 32 1 30 29
M  V30 33 2 31 30
M  V30 34 1 32 31
M  V30 35 2 33 32
M  V30 36 1 34 33
M  V30 37 1 35 30
M  V30 38 2 35 34
M  V30 39 1 36 18
M  V30 40 1 36 21
M  V30 41 1 37 1
M  V30 42 1 38 1
M  V30 43 1 39 1
M  V30 44 1 40 4
M  V30 45 1 41 5
M  V30 46 1 42 11
M  V30 47 1 43 11
M  V30 48 1 44 12
M  V30 49 1 45 12
M  V30 50 1 46 14
M  V30 51 1 47 14
M  V30 52 1 48 15
M  V30 53 1 49 15
M  V30 54 1 50 16
M  V30 55 1 51 19
M  V30 56 1 52 20
M  V30 57 1 53 22
M  V30 58 1 54 22
M  V30 59 1 55 24
M  V30 60 1 56 24
M  V30 61 1 57 25
M  V30 62 1 58 25
M  V30 63 1 59 26
M  V30 64 1 60 26
M  V30 65 1 61 27
M  V30 66 1 62 27
M  V30 67 1 63 28
M  V30 68 1 64 28
M  V30 69 1 29 65 CFG=1
M  V30 70 1 66 31
M  V30 71 1 67 32
M  V30 72 1 68 33
M  V30 73 1 69 34
M  V30 74 1 70 35
M  V30 75 1 71 36
M  V30 76 1 23 72 CFG=3
M  V30 END BOND
M  V30 END CTAB
M  END
>  <b_m_subgroup_collapsed>  (2617) 
0

>  <r_i_docking_score>  (2617) 
-5.1197141081115598

>  <s_m_subgroup_title>  (2617) 
glide-dock_SP_D22_pv

>  <s_m_subgroupid>  (2617) 
glide-dock_SP_D22_pv

>  <Molecule ChEMBL ID>  (2617) 
CHEMBL423198

>  <Standard Type>  (2617) 
Ki

>  <Standard Value>  (2617) 
100.0

>  <label>  (2617) 
1

$$$$
CHEMBL2030624
     RDKit          3D

  0  0  0  0  0  0  0  0  0  0999 V3000
M  V30 BEGIN CTAB
M  V30 COUNTS 40 42 0 0 1
M  V30 BEGIN ATOM
M  V30 1 C 11.080992 9.119974 -5.499722 0
M  V30 2 O 11.482940 8.824769 -6.828241 0
M  V30 3 C 10.753815 7.899451 -7.546599 0
M  V30 4 C 9.607813 7.228147 -7.044095 0
M  V30 5 C 8.904549 6.300984 -7.840728 0
M  V30 6 C 9.347472 6.018999 -9.147435 0
M  V30 7 C 8.618524 5.040385 -10.049014 0
M  V30 8 N 7.752140 5.759691 -11.020823 0 CFG=2 CHG=1
M  V30 9 C 6.885292 4.946873 -11.885434 0 CFG=1
M  V30 10 C 6.067111 6.069016 -12.535025 0
M  V30 11 C 7.143940 7.155833 -12.742251 0
M  V30 12 C 8.382922 6.519392 -12.108411 0 CFG=2
M  V30 13 C 8.923782 5.431713 -13.059041 0
M  V30 14 C 7.840045 4.347511 -12.944404 0
M  V30 15 C 10.486071 6.671850 -9.637719 0
M  V30 16 C 11.182992 7.627860 -8.865211 0
M  V30 17 O 12.279946 8.301564 -9.356860 0
M  V30 18 C 12.462701 8.290784 -10.769737 0
M  V30 19 H 11.774529 9.843030 -5.070389 0
M  V30 20 H 10.086853 9.566065 -5.472669 0
M  V30 21 H 11.097712 8.232989 -4.864653 0
M  V30 22 H 9.239124 7.416408 -6.046794 0
M  V30 23 H 8.024064 5.814522 -7.445221 0
M  V30 24 H 9.343281 4.403436 -10.553816 0
M  V30 25 H 8.015992 4.376971 -9.432488 0
M  V30 26 H 6.265205 4.200036 -11.395662 0
M  V30 27 H 5.565591 5.753159 -13.447196 0
M  V30 28 H 5.300233 6.429399 -11.847439 0
M  V30 29 H 6.869760 8.088614 -12.250921 0
M  V30 30 H 7.331586 7.372456 -13.783145 0
M  V30 31 H 9.113315 7.270998 -11.812919 0
M  V30 32 H 9.889395 5.055124 -12.718026 0
M  V30 33 H 9.050305 5.772356 -14.086328 0
M  V30 34 H 8.281301 3.400953 -12.631118 0
M  V30 35 H 7.332618 4.167606 -13.893593 0
M  V30 36 H 10.807699 6.425537 -10.635630 0
M  V30 37 H 13.253078 8.970315 -11.072636 0
M  V30 38 H 12.751767 7.315312 -11.140224 0
M  V30 39 H 11.545760 8.571856 -11.286206 0
M  V30 40 H 7.169449 6.424260 -10.501839 0
M  V30 END ATOM
M  V30 BEGIN BOND
M  V30 1 1 2 1
M  V30 2 1 3 2
M  V30 3 1 4 3
M  V30 4 2 5 4
M  V30 5 1 6 5
M  V30 6 1 7 6
M  V30 7 1 8 7
M  V30 8 1 9 8
M  V30 9 1 10 9
M  V30 10 1 11 10
M  V30 11 1 12 8
M  V30 12 1 12 11
M  V30 13 1 13 12
M  V30 14 1 14 9
M  V30 15 1 14 13
M  V30 16 2 15 6
M  V30 17 2 16 3
M  V30 18 1 16 15
M  V30 19 1 17 16
M  V30 20 1 18 17
M  V30 21 1 19 1
M  V30 22 1 20 1
M  V30 23 1 21 1
M  V30 24 1 22 4
M  V30 25 1 23 5
M  V30 26 1 24 7
M  V30 27 1 25 7
M  V30 28 1 9 26 CFG=1
M  V30 29 1 27 10
M  V30 30 1 28 10
M  V30 31 1 29 11
M  V30 32 1 30 11
M  V30 33 1 12 31 CFG=1
M  V30 34 1 32 13
M  V30 35 1 33 13
M  V30 36 1 34 14
M  V30 37 1 35 14
M  V30 38 1 36 15
M  V30 39 1 37 18
M  V30 40 1 38 18
M  V30 41 1 39 18
M  V30 42 1 8 40 CFG=1
M  V30 END BOND
M  V30 END CTAB
M  END
>  <b_m_subgroup_collapsed>  (2618) 
0

>  <r_i_docking_score>  (2618) 
-5.1136509824152601

>  <s_m_subgroup_title>  (2618) 
glide-dock_SP_D22_pv

>  <s_m_subgroupid>  (2618) 
glide-dock_SP_D22_pv

>  <Molecule ChEMBL ID>  (2618) 
CHEMBL2030624

>  <Standard Type>  (2618) 
Ki

>  <Standard Value>  (2618) 
10000.0

>  <label>  (2618) 
0

$$$$
CHEMBL543109
     RDKit          3D

  0  0  0  0  0  0  0  0  0  0999 V3000
M  V30 BEGIN CTAB
M  V30 COUNTS 37 40 0 0 1
M  V30 BEGIN ATOM
M  V30 1 O 12.059666 8.027513 -10.674799 0
M  V30 2 C 10.990689 7.420397 -10.733822 0
M  V30 3 C 10.470882 6.677007 -11.849415 0
M  V30 4 C 9.272030 6.210987 -11.485994 0
M  V30 5 C 8.412108 5.300801 -12.260981 0
M  V30 6 C 8.933987 4.539194 -13.331087 0
M  V30 7 C 8.097045 3.657310 -14.041104 0
M  V30 8 C 6.732933 3.549077 -13.701979 0
M  V30 9 C 6.207850 4.317092 -12.647079 0
M  V30 10 C 7.046917 5.190795 -11.926891 0
M  V30 11 O 8.914785 6.571400 -10.209222 0
M  V30 12 C 9.959063 7.344140 -9.611005 0 CFG=2
M  V30 13 C 9.459954 8.757955 -9.178309 0
M  V30 14 N 9.682886 8.972264 -7.720503 0 CFG=1 CHG=1
M  V30 15 C 8.900243 7.994932 -6.920834 0
M  V30 16 C 9.282168 6.554648 -7.337180 0
M  V30 17 C 10.455903 6.588444 -8.341944 0 CFG=2
M  V30 18 C 11.587836 7.382794 -7.642358 0
M  V30 19 C 11.127290 8.842070 -7.397360 0
M  V30 20 H 11.005530 6.515512 -12.774878 0
M  V30 21 H 9.976832 4.604626 -13.602483 0
M  V30 22 H 8.499706 3.063513 -14.848018 0
M  V30 23 H 6.089797 2.876869 -14.251389 0
M  V30 24 H 5.165343 4.232843 -12.380335 0
M  V30 25 H 6.637236 5.772213 -11.112586 0
M  V30 26 H 9.966137 9.549079 -9.731441 0
M  V30 27 H 8.406297 8.884018 -9.403722 0
M  V30 28 H 9.110750 8.142080 -5.856020 0
M  V30 29 H 7.834345 8.172371 -7.046922 0
M  V30 30 H 8.416065 6.046793 -7.765244 0
M  V30 31 H 9.559803 5.986846 -6.451162 0
M  V30 32 H 10.778316 5.575458 -8.584037 0
M  V30 33 H 12.511247 7.373340 -8.219773 0
M  V30 34 H 11.825769 6.903665 -6.691094 0
M  V30 35 H 11.686891 9.530358 -8.028184 0
M  V30 36 H 11.312348 9.138019 -6.364249 0
M  V30 37 H 9.373414 9.902651 -7.484745 0
M  V30 END ATOM
M  V30 BEGIN BOND
M  V30 1 2 2 1
M  V30 2 1 3 2
M  V30 3 2 4 3
M  V30 4 1 5 4
M  V30 5 2 6 5
M  V30 6 1 7 6
M  V30 7 2 8 7
M  V30 8 1 9 8
M  V30 9 1 10 5
M  V30 10 2 10 9
M  V30 11 1 11 4
M  V30 12 1 12 2
M  V30 13 1 12 11 CFG=3
M  V30 14 1 13 12
M  V30 15 1 14 13
M  V30 16 1 15 14
M  V30 17 1 16 15
M  V30 18 1 17 12
M  V30 19 1 17 16
M  V30 20 1 18 17
M  V30 21 1 19 14
M  V30 22 1 19 18
M  V30 23 1 20 3
M  V30 24 1 21 6
M  V30 25 1 22 7
M  V30 26 1 23 8
M  V30 27 1 24 9
M  V30 28 1 25 10
M  V30 29 1 26 13
M  V30 30 1 27 13
M  V30 31 1 28 15
M  V30 32 1 29 15
M  V30 33 1 30 16
M  V30 34 1 31 16
M  V30 35 1 17 32 CFG=3
M  V30 36 1 33 18
M  V30 37 1 34 18
M  V30 38 1 35 19
M  V30 39 1 36 19
M  V30 40 1 14 37 CFG=1
M  V30 END BOND
M  V30 END CTAB
M  END
>  <b_m_subgroup_collapsed>  (2619) 
0

>  <r_i_docking_score>  (2619) 
-5.1131292177727099

>  <s_m_subgroup_title>  (2619) 
glide-dock_SP_D22_pv

>  <s_m_subgroupid>  (2619) 
glide-dock_SP_D22_pv

>  <Molecule ChEMBL ID>  (2619) 
CHEMBL543109

>  <Standard Type>  (2619) 
Ki

>  <Standard Value>  (2619) 
10000.0

>  <label>  (2619) 
0

$$$$
CHEMBL5425944
     RDKit          3D

  0  0  0  0  0  0  0  0  0  0999 V3000
M  V30 BEGIN CTAB
M  V30 COUNTS 59 62 0 0 1
M  V30 BEGIN ATOM
M  V30 1 Cl 9.917157 7.197150 -6.786819 0
M  V30 2 C 10.275652 7.367751 -8.469089 0
M  V30 3 C 11.094501 8.435070 -8.881948 0
M  V30 4 C 11.438961 8.572776 -10.237294 0
M  V30 5 C 10.937409 7.665081 -11.185873 0
M  V30 6 C 10.087485 6.608614 -10.795423 0
M  V30 7 N 9.594062 5.712002 -11.757373 0
M  V30 8 C 8.186119 5.850810 -12.094971 0
M  V30 9 C 7.691558 4.531003 -12.703009 0
M  V30 10 N 8.483809 4.117084 -13.877933 0
M  V30 11 C 8.019137 2.777347 -14.230754 0
M  V30 12 C 8.436803 2.246677 -15.614916 0
M  V30 13 C 7.872952 0.828844 -15.835492 0
M  V30 14 O 6.466475 0.864283 -15.584459 0
M  V30 15 C 5.736674 -0.362834 -15.382761 0
M  V30 16 C 5.633635 -1.186346 -16.674534 0
M  V30 17 C 5.285940 -2.555433 -16.660458 0
M  V30 18 C 5.069594 -3.217563 -17.881868 0
M  V30 19 C 5.197483 -2.492616 -19.079952 0
M  V30 20 C 5.529780 -1.128843 -18.999092 0
M  V30 21 N 5.733574 -0.485701 -17.831163 0
M  V30 22 C 4.311139 0.049176 -14.981600 0
M  V30 23 C 4.307092 0.908646 -13.708843 0
M  V30 24 O 4.886353 0.172553 -12.645253 0
M  V30 25 C 6.220685 -0.226077 -12.897640 0
M  V30 26 C 6.269170 -1.114537 -14.138091 0
M  V30 27 C 9.904937 4.043511 -13.509012 0
M  V30 28 C 10.387487 5.386769 -12.936852 0
M  V30 29 C 9.782461 6.442336 -9.418720 0
M  V30 30 Cl 8.891692 5.060264 -8.876493 0
M  V30 31 H 11.478889 9.135118 -8.154995 0
M  V30 32 H 12.087040 9.376519 -10.552086 0
M  V30 33 H 11.215266 7.774249 -12.222627 0
M  V30 34 H 8.053314 6.670504 -12.802888 0
M  V30 35 H 7.598027 6.097620 -11.210015 0
M  V30 36 H 6.643768 4.638036 -12.983404 0
M  V30 37 H 7.736209 3.772696 -11.923004 0
M  V30 38 H 6.930764 2.779679 -14.192115 0
M  V30 39 H 8.366181 2.079334 -13.472448 0
M  V30 40 H 9.523420 2.212177 -15.703601 0
M  V30 41 H 8.086098 2.915377 -16.400373 0
M  V30 42 H 8.391232 0.152057 -15.157981 0
M  V30 43 H 8.076962 0.483730 -16.849829 0
M  V30 44 H 5.150308 -3.102255 -15.741016 0
M  V30 45 H 4.789643 -4.261069 -17.893217 0
M  V30 46 H 5.029611 -2.966099 -20.035179 0
M  V30 47 H 5.624256 -0.535226 -19.896654 0
M  V30 48 H 3.831196 0.567618 -15.798064 0
M  V30 49 H 3.700961 -0.840158 -14.812733 0
M  V30 50 H 4.857895 1.839694 -13.844399 0
M  V30 51 H 3.284326 1.180715 -13.447119 0
M  V30 52 H 6.845838 0.644203 -13.046597 0
M  V30 53 H 6.614903 -0.751225 -12.029061 0
M  V30 54 H 5.690154 -2.015247 -13.940364 0
M  V30 55 H 7.287883 -1.427666 -14.248040 0
M  V30 56 H 10.073141 3.259316 -12.768635 0
M  V30 57 H 10.501933 3.786267 -14.384313 0
M  V30 58 H 10.287978 6.171006 -13.687123 0
M  V30 59 H 11.442801 5.322882 -12.683255 0
M  V30 END ATOM
M  V30 BEGIN BOND
M  V30 1 1 2 1
M  V30 2 1 3 2
M  V30 3 2 4 3
M  V30 4 1 5 4
M  V30 5 2 6 5
M  V30 6 1 7 6
M  V30 7 1 8 7
M  V30 8 1 9 8
M  V30 9 1 10 9
M  V30 10 1 11 10
M  V30 11 1 12 11
M  V30 12 1 13 12
M  V30 13 1 14 13
M  V30 14 1 15 14
M  V30 15 1 16 15
M  V30 16 2 17 16
M  V30 17 1 18 17
M  V30 18 2 19 18
M  V30 19 1 20 19
M  V30 20 1 21 16
M  V30 21 2 21 20
M  V30 22 1 22 15
M  V30 23 1 23 22
M  V30 24 1 24 23
M  V30 25 1 25 24
M  V30 26 1 26 15
M  V30 27 1 26 25
M  V30 28 1 27 10
M  V30 29 1 28 7
M  V30 30 1 28 27
M  V30 31 2 29 2
M  V30 32 1 29 6
M  V30 33 1 30 29
M  V30 34 1 31 3
M  V30 35 1 32 4
M  V30 36 1 33 5
M  V30 37 1 34 8
M  V30 38 1 35 8
M  V30 39 1 36 9
M  V30 40 1 37 9
M  V30 41 1 38 11
M  V30 42 1 39 11
M  V30 43 1 40 12
M  V30 44 1 41 12
M  V30 45 1 42 13
M  V30 46 1 43 13
M  V30 47 1 44 17
M  V30 48 1 45 18
M  V30 49 1 46 19
M  V30 50 1 47 20
M  V30 51 1 48 22
M  V30 52 1 49 22
M  V30 53 1 50 23
M  V30 54 1 51 23
M  V30 55 1 52 25
M  V30 56 1 53 25
M  V30 57 1 54 26
M  V30 58 1 55 26
M  V30 59 1 56 27
M  V30 60 1 57 27
M  V30 61 1 58 28
M  V30 62 1 59 28
M  V30 END BOND
M  V30 END CTAB
M  END
>  <b_m_subgroup_collapsed>  (2620) 
0

>  <r_i_docking_score>  (2620) 
-5.1056757457885

>  <s_m_subgroup_title>  (2620) 
glide-dock_SP_D22_pv

>  <s_m_subgroupid>  (2620) 
glide-dock_SP_D22_pv

>  <Molecule ChEMBL ID>  (2620) 
CHEMBL5425944

>  <Standard Type>  (2620) 
Ki

>  <Standard Value>  (2620) 
58.8

>  <label>  (2620) 
1

$$$$
CHEMBL203734
     RDKit          3D

  0  0  0  0  0  0  0  0  0  0999 V3000
M  V30 BEGIN CTAB
M  V30 COUNTS 45 47 0 0 1
M  V30 BEGIN ATOM
M  V30 1 C 5.379082 2.236397 -12.360787 0
M  V30 2 O 5.687231 2.817207 -13.617706 0
M  V30 3 C 7.027814 2.971700 -13.846878 0
M  V30 4 C 7.670056 4.154922 -13.436877 0
M  V30 5 Cl 6.785433 5.401993 -12.640635 0
M  V30 6 C 9.049824 4.296336 -13.640882 0
M  V30 7 C 9.800563 3.290078 -14.287968 0
M  V30 8 C 9.156993 2.102051 -14.753349 0
M  V30 9 C 7.765280 1.946483 -14.479300 0
M  V30 10 Cl 6.923463 0.471150 -14.821772 0
M  V30 11 C 9.923391 0.979527 -15.479662 0
M  V30 12 C 9.892401 1.064238 -17.016653 0
M  V30 13 C 8.736847 0.588952 -17.680155 0
M  V30 14 C 8.630035 0.596500 -19.080692 0
M  V30 15 C 9.695724 1.071521 -19.858164 0
M  V30 16 C 10.862079 1.532160 -19.225258 0
M  V30 17 C 10.975331 1.535966 -17.816227 0
M  V30 18 C 12.303302 2.022364 -17.249960 0
M  V30 19 C 12.511319 3.539503 -17.394890 0
M  V30 20 N 11.453326 4.359838 -16.742823 0 CFG=2 CHG=1
M  V30 21 C 11.203561 5.611765 -17.500008 0
M  V30 22 C 11.728143 4.653273 -15.312377 0
M  V30 23 C 11.305920 3.531849 -14.352619 0
M  V30 24 H 4.298630 2.174638 -12.255603 0
M  V30 25 H 5.771246 2.836522 -11.537744 0
M  V30 26 H 5.766480 1.220582 -12.279251 0
M  V30 27 H 9.538447 5.185962 -13.263819 0
M  V30 28 H 10.929756 0.868956 -15.092783 0
M  V30 29 H 9.487693 0.019233 -15.203229 0
M  V30 30 H 7.911311 0.181833 -17.124542 0
M  V30 31 H 7.735561 0.219413 -19.555164 0
M  V30 32 H 9.626391 1.065976 -20.936403 0
M  V30 33 H 11.688170 1.869516 -19.836845 0
M  V30 34 H 12.483898 1.682916 -16.241714 0
M  V30 35 H 13.090345 1.531511 -17.822306 0
M  V30 36 H 13.502625 3.822558 -17.034241 0
M  V30 37 H 12.523999 3.759836 -18.462967 0
M  V30 38 H 12.085752 6.255834 -17.508451 0
M  V30 39 H 10.380096 6.176713 -17.062538 0
M  V30 40 H 10.930420 5.400730 -18.534801 0
M  V30 41 H 12.783403 4.893610 -15.166951 0
M  V30 42 H 11.190511 5.554813 -15.015406 0
M  V30 43 H 11.601672 3.859493 -13.359053 0
M  V30 44 H 11.878521 2.628566 -14.499488 0
M  V30 45 H 10.590933 3.831595 -16.787025 0
M  V30 END ATOM
M  V30 BEGIN BOND
M  V30 1 1 2 1
M  V30 2 1 3 2
M  V30 3 1 4 3
M  V30 4 1 5 4
M  V30 5 2 6 4
M  V30 6 1 7 6
M  V30 7 2 8 7
M  V30 8 2 9 3
M  V30 9 1 9 8
M  V30 10 1 10 9
M  V30 11 1 11 8
M  V30 12 1 12 11
M  V30 13 2 13 12
M  V30 14 1 14 13
M  V30 15 2 15 14
M  V30 16 1 16 15
M  V30 17 1 17 12
M  V30 18 2 17 16
M  V30 19 1 18 17
M  V30 20 1 19 18
M  V30 21 1 20 19
M  V30 22 1 21 20
M  V30 23 1 22 20
M  V30 24 1 23 7
M  V30 25 1 23 22
M  V30 26 1 24 1
M  V30 27 1 25 1
M  V30 28 1 26 1
M  V30 29 1 27 6
M  V30 30 1 28 11
M  V30 31 1 29 11
M  V30 32 1 30 13
M  V30 33 1 31 14
M  V30 34 1 32 15
M  V30 35 1 33 16
M  V30 36 1 34 18
M  V30 37 1 35 18
M  V30 38 1 36 19
M  V30 39 1 37 19
M  V30 40 1 38 21
M  V30 41 1 39 21
M  V30 42 1 40 21
M  V30 43 1 41 22
M  V30 44 1 42 22
M  V30 45 1 43 23
M  V30 46 1 44 23
M  V30 47 1 20 45 CFG=1
M  V30 END BOND
M  V30 END CTAB
M  END
>  <b_m_subgroup_collapsed>  (2621) 
0

>  <r_i_docking_score>  (2621) 
-5.1047317096642697

>  <s_m_subgroup_title>  (2621) 
glide-dock_SP_D22_pv

>  <s_m_subgroupid>  (2621) 
glide-dock_SP_D22_pv

>  <Molecule ChEMBL ID>  (2621) 
CHEMBL203734

>  <Standard Type>  (2621) 
Ki

>  <Standard Value>  (2621) 
2.5

>  <label>  (2621) 
1

$$$$
CHEMBL4243036
     RDKit          3D

  0  0  0  0  0  0  0  0  0  0999 V3000
M  V30 BEGIN CTAB
M  V30 COUNTS 65 70 0 0 1
M  V30 BEGIN ATOM
M  V30 1 O 4.084821 -0.227740 -13.446883 0
M  V30 2 C 5.100206 0.172304 -14.005569 0
M  V30 3 N 5.862039 1.280445 -13.674861 0
M  V30 4 C 6.902927 1.425807 -14.581302 0
M  V30 5 C 7.926589 2.393168 -14.694571 0
M  V30 6 N 8.060323 3.510875 -13.846801 0
M  V30 7 C 6.950500 3.982218 -13.021912 0
M  V30 8 C 7.174245 5.438305 -12.588872 0
M  V30 9 N 8.469788 5.623619 -11.932795 0
M  V30 10 C 8.626601 7.054644 -11.676766 0
M  V30 11 C 9.023083 7.335658 -10.221325 0
M  V30 12 C 10.500250 7.128474 -9.889094 0 CFG=1
M  V30 13 C 11.456016 7.711527 -10.932178 0
M  V30 14 C 12.635555 8.182179 -10.120574 0
M  V30 15 C 12.010511 8.666495 -8.832092 0
M  V30 16 N 10.823796 7.822585 -8.632593 0
M  V30 17 S 10.605815 6.958931 -7.142797 0
M  V30 18 O 11.686028 5.974890 -7.046865 0
M  V30 19 O 9.202556 6.534450 -7.060942 0
M  V30 20 C 10.884377 8.176449 -5.886766 0
M  V30 21 C 10.595338 9.512833 -6.190954 0
M  V30 22 N 10.816999 10.522817 -5.333551 0
M  V30 23 C 11.286048 10.194756 -4.122656 0
M  V30 24 C 11.658861 8.928129 -3.728104 0
M  V30 25 C 12.195910 8.753059 -2.447433 0
M  V30 26 C 12.486003 7.459522 -2.026781 0
M  V30 27 C 12.224521 6.371418 -2.864601 0
M  V30 28 C 11.685999 6.572325 -4.147311 0
M  V30 29 C 11.423327 7.865891 -4.617996 0
M  V30 30 C 9.539480 5.168962 -12.826016 0
M  V30 31 C 9.353552 3.690636 -13.196403 0
M  V30 32 C 8.842595 2.200502 -15.761970 0
M  V30 33 C 8.720037 1.107961 -16.656214 0
M  V30 34 C 7.672534 0.172500 -16.511292 0
M  V30 35 C 6.774953 0.359971 -15.449706 0
M  V30 36 O 5.690316 -0.393041 -15.100371 0
M  V30 37 H 5.648193 1.893532 -12.903641 0
M  V30 38 H 6.853460 3.372350 -12.126217 0
M  V30 39 H 6.013376 3.918296 -13.575609 0
M  V30 40 H 6.377547 5.740172 -11.906142 0
M  V30 41 H 7.120241 6.098238 -13.446866 0
M  V30 42 H 7.686146 7.576455 -11.846969 0
M  V30 43 H 9.307822 7.523164 -12.385192 0
M  V30 44 H 8.412780 6.739390 -9.543196 0
M  V30 45 H 8.774340 8.377647 -10.014058 0
M  V30 46 H 10.706898 6.065114 -9.767010 0
M  V30 47 H 10.999788 8.572272 -11.416884 0
M  V30 48 H 11.744697 7.003738 -11.707548 0
M  V30 49 H 13.209945 8.924496 -10.666149 0
M  V30 50 H 13.286028 7.372358 -9.846820 0
M  V30 51 H 11.685890 9.700034 -8.945261 0
M  V30 52 H 12.705001 8.606187 -7.993093 0
M  V30 53 H 10.153127 9.778909 -7.136859 0
M  V30 54 H 11.391888 10.972324 -3.398288 0
M  V30 55 H 12.369284 9.592684 -1.787899 0
M  V30 56 H 12.885998 7.300016 -1.046847 0
M  V30 57 H 12.432529 5.373144 -2.514507 0
M  V30 58 H 11.461506 5.715493 -4.748982 0
M  V30 59 H 9.563047 5.772174 -13.735136 0
M  V30 60 H 10.497900 5.290842 -12.327992 0
M  V30 61 H 9.402462 3.071319 -12.300329 0
M  V30 62 H 10.177148 3.373207 -13.834533 0
M  V30 63 H 9.642726 2.908295 -15.920534 0
M  V30 64 H 9.431561 0.992757 -17.460560 0
M  V30 65 H 7.567287 -0.664554 -17.185913 0
M  V30 END ATOM
M  V30 BEGIN BOND
M  V30 1 2 2 1
M  V30 2 1 3 2
M  V30 3 1 4 3
M  V30 4 2 5 4
M  V30 5 1 6 5
M  V30 6 1 7 6
M  V30 7 1 8 7
M  V30 8 1 9 8
M  V30 9 1 10 9
M  V30 10 1 11 10
M  V30 11 1 12 11
M  V30 12 1 13 12
M  V30 13 1 14 13
M  V30 14 1 15 14
M  V30 15 1 16 12
M  V30 16 1 16 15
M  V30 17 1 17 16
M  V30 18 2 18 17
M  V30 19 2 19 17
M  V30 20 1 20 17
M  V30 21 2 21 20
M  V30 22 1 22 21
M  V30 23 2 23 22
M  V30 24 1 24 23
M  V30 25 2 25 24
M  V30 26 1 26 25
M  V30 27 2 27 26
M  V30 28 1 28 27
M  V30 29 1 29 20
M  V30 30 1 29 24
M  V30 31 2 29 28
M  V30 32 1 30 9
M  V30 33 1 31 6
M  V30 34 1 31 30
M  V30 35 1 32 5
M  V30 36 2 33 32
M  V30 37 1 34 33
M  V30 38 1 35 4
M  V30 39 2 35 34
M  V30 40 1 36 2
M  V30 41 1 36 35
M  V30 42 1 37 3
M  V30 43 1 38 7
M  V30 44 1 39 7
M  V30 45 1 40 8
M  V30 46 1 41 8
M  V30 47 1 42 10
M  V30 48 1 43 10
M  V30 49 1 44 11
M  V30 50 1 45 11
M  V30 51 1 12 46 CFG=1
M  V30 52 1 47 13
M  V30 53 1 48 13
M  V30 54 1 49 14
M  V30 55 1 50 14
M  V30 56 1 51 15
M  V30 57 1 52 15
M  V30 58 1 53 21
M  V30 59 1 54 23
M  V30 60 1 55 25
M  V30 61 1 56 26
M  V30 62 1 57 27
M  V30 63 1 58 28
M  V30 64 1 59 30
M  V30 65 1 60 30
M  V30 66 1 61 31
M  V30 67 1 62 31
M  V30 68 1 63 32
M  V30 69 1 64 33
M  V30 70 1 65 34
M  V30 END BOND
M  V30 END CTAB
M  END
>  <b_m_subgroup_collapsed>  (2622) 
0

>  <r_i_docking_score>  (2622) 
-5.1034084158192101

>  <s_m_subgroup_title>  (2622) 
glide-dock_SP_D22_pv

>  <s_m_subgroupid>  (2622) 
glide-dock_SP_D22_pv

>  <Molecule ChEMBL ID>  (2622) 
CHEMBL4243036

>  <Standard Type>  (2622) 
Ki

>  <Standard Value>  (2622) 
12.0

>  <label>  (2622) 
1

$$$$
CHEMBL5191141
     RDKit          3D

  0  0  0  0  0  0  0  0  0  0999 V3000
M  V30 BEGIN CTAB
M  V30 COUNTS 53 56 0 0 1
M  V30 BEGIN ATOM
M  V30 1 H 4.564112 -2.002953 -15.296332 0 MASS=2
M  V30 2 C 5.286993 -1.200608 -15.347010 0
M  V30 3 C 6.119803 -0.924395 -14.245339 0
M  V30 4 H 6.077685 -1.523292 -13.348858 0 MASS=2
M  V30 5 C 7.070364 0.111241 -14.314835 0
M  V30 6 H 7.695008 0.315167 -13.458766 0 MASS=2
M  V30 7 C 7.213491 0.867869 -15.496901 0
M  V30 8 C 8.215821 2.010283 -15.567265 0 CFG=2
M  V30 9 C 9.705091 1.560961 -15.530794 0
M  V30 10 C 10.476341 2.595993 -14.664186 0 CFG=1
M  V30 11 N 11.299524 3.540539 -15.482415 0 CFG=2 CHG=1
M  V30 12 C 12.136576 4.454865 -14.666940 0
M  V30 13 C 13.110988 5.236036 -15.562105 0
M  V30 14 N 12.363489 5.997427 -16.564947 0
M  V30 15 C 13.297830 6.872564 -17.276024 0
M  V30 16 H 14.036668 6.303759 -17.841970 0 MASS=2
M  V30 17 H 12.780482 7.549484 -17.956417 0 MASS=2
M  V30 18 H 13.838475 7.501406 -16.565947 0 MASS=2
M  V30 19 C 11.531686 5.125514 -17.426947 0
M  V30 20 C 10.673937 6.002951 -18.365814 0
M  V30 21 C 12.371425 4.155335 -18.298590 0
M  V30 22 C 10.564253 4.331754 -16.506987 0
M  V30 23 C 9.373147 3.277004 -13.891234 0
M  V30 24 C 9.507032 4.067586 -12.736022 0
M  V30 25 C 8.343703 4.580117 -12.132801 0
M  V30 26 Cl 8.488098 5.502074 -10.683523 0
M  V30 27 C 7.067371 4.326406 -12.693896 0
M  V30 28 C 6.945626 3.508542 -13.840263 0
M  V30 29 C 8.118592 2.972956 -14.408386 0
M  V30 30 C 6.398538 0.570496 -16.608927 0
M  V30 31 H 6.496563 1.136035 -17.523390 0 MASS=2
M  V30 32 C 5.431472 -0.455661 -16.533371 0
M  V30 33 H 4.804843 -0.673275 -17.385931 0 MASS=2
M  V30 34 H 8.030626 2.574247 -16.478983 0
M  V30 35 H 10.132377 1.368447 -16.514332 0
M  V30 36 H 9.760378 0.614073 -14.992335 0
M  V30 37 H 11.131803 2.070382 -13.968061 0
M  V30 38 H 11.509560 5.164186 -14.123289 0
M  V30 39 H 12.695455 3.884777 -13.923524 0
M  V30 40 H 13.680083 5.925037 -14.935185 0
M  V30 41 H 13.838085 4.571607 -16.028988 0
M  V30 42 H 9.962540 5.396106 -18.931839 0
M  V30 43 H 10.095210 6.744351 -17.812128 0
M  V30 44 H 11.278788 6.534766 -19.103481 0
M  V30 45 H 11.723105 3.540920 -18.928150 0
M  V30 46 H 13.038446 4.690138 -18.978046 0
M  V30 47 H 12.982450 3.468077 -17.714819 0
M  V30 48 H 9.959000 3.673650 -17.132034 0
M  V30 49 H 9.870192 5.014121 -16.011856 0
M  V30 50 H 10.476043 4.257359 -12.295748 0
M  V30 51 H 6.183853 4.733068 -12.218408 0
M  V30 52 H 5.973633 3.278216 -14.252204 0
M  V30 53 H 11.949807 2.962091 -15.992664 0
M  V30 END ATOM
M  V30 BEGIN BOND
M  V30 1 1 2 1
M  V30 2 2 3 2
M  V30 3 1 4 3
M  V30 4 1 5 3
M  V30 5 1 6 5
M  V30 6 2 7 5
M  V30 7 1 8 7
M  V30 8 1 9 8
M  V30 9 1 10 9
M  V30 10 1 11 10
M  V30 11 1 12 11
M  V30 12 1 13 12
M  V30 13 1 14 13
M  V30 14 1 15 14
M  V30 15 1 16 15
M  V30 16 1 17 15
M  V30 17 1 18 15
M  V30 18 1 19 14
M  V30 19 1 20 19
M  V30 20 1 21 19
M  V30 21 1 22 11
M  V30 22 1 22 19
M  V30 23 1 23 10
M  V30 24 1 24 23
M  V30 25 2 25 24
M  V30 26 1 26 25
M  V30 27 1 27 25
M  V30 28 2 28 27
M  V30 29 1 29 8
M  V30 30 2 29 23
M  V30 31 1 29 28
M  V30 32 1 30 7
M  V30 33 1 31 30
M  V30 34 1 32 2
M  V30 35 2 32 30
M  V30 36 1 33 32
M  V30 37 1 8 34 CFG=3
M  V30 38 1 35 9
M  V30 39 1 36 9
M  V30 40 1 10 37 CFG=1
M  V30 41 1 38 12
M  V30 42 1 39 12
M  V30 43 1 40 13
M  V30 44 1 41 13
M  V30 45 1 42 20
M  V30 46 1 43 20
M  V30 47 1 44 20
M  V30 48 1 45 21
M  V30 49 1 46 21
M  V30 50 1 47 21
M  V30 51 1 48 22
M  V30 52 1 49 22
M  V30 53 1 50 24
M  V30 54 1 51 27
M  V30 55 1 52 28
M  V30 56 1 11 53 CFG=3
M  V30 END BOND
M  V30 END CTAB
M  END
>  <b_m_subgroup_collapsed>  (2623) 
0

>  <r_i_docking_score>  (2623) 
-5.1014541345417896

>  <s_m_subgroup_title>  (2623) 
glide-dock_SP_D22_pv

>  <s_m_subgroupid>  (2623) 
glide-dock_SP_D22_pv

>  <Molecule ChEMBL ID>  (2623) 
CHEMBL5191141

>  <Standard Type>  (2623) 
Ki

>  <Standard Value>  (2623) 
4.1

>  <label>  (2623) 
1

$$$$
CHEMBL293158
     RDKit          3D

  0  0  0  0  0  0  0  0  0  0999 V3000
M  V30 BEGIN CTAB
M  V30 COUNTS 36 38 0 0 1
M  V30 BEGIN ATOM
M  V30 1 C 12.885600 8.388182 -11.124431 0
M  V30 2 N 12.037055 7.372399 -11.790698 0 CFG=2 CHG=1
M  V30 3 C 12.269265 7.256576 -13.251950 0
M  V30 4 C 11.796793 5.878897 -13.729836 0
M  V30 5 C 10.386839 5.572628 -13.259086 0
M  V30 6 C 9.649605 4.547815 -13.889576 0
M  V30 7 C 8.339910 4.245502 -13.468092 0
M  V30 8 Cl 7.467831 2.971666 -14.246808 0
M  V30 9 C 7.756367 4.982764 -12.415467 0
M  V30 10 O 6.486914 4.710747 -11.986415 0
M  V30 11 C 8.497312 6.003947 -11.791039 0
M  V30 12 C 9.814426 6.302643 -12.188064 0
M  V30 13 C 10.582607 7.421587 -11.463059 0 CFG=1
M  V30 14 C 10.319921 7.459522 -9.949703 0
M  V30 15 C 10.202981 6.271864 -9.191323 0
M  V30 16 C 9.888015 6.322233 -7.821069 0
M  V30 17 C 9.701460 7.561016 -7.183098 0
M  V30 18 C 9.835416 8.749044 -7.923049 0
M  V30 19 C 10.138974 8.699997 -9.296772 0
M  V30 20 H 12.485201 9.387575 -11.228745 0
M  V30 21 H 12.970574 8.175999 -10.059117 0
M  V30 22 H 13.896636 8.401476 -11.527781 0
M  V30 23 H 13.321640 7.375110 -13.494384 0
M  V30 24 H 11.740254 8.040548 -13.797435 0
M  V30 25 H 12.461559 5.096999 -13.360386 0
M  V30 26 H 11.839202 5.832078 -14.820685 0
M  V30 27 H 10.087323 3.981005 -14.699218 0
M  V30 28 H 6.238795 5.178068 -11.196889 0
M  V30 29 H 8.080791 6.571218 -10.976031 0
M  V30 30 H 10.181376 8.351723 -11.868524 0
M  V30 31 H 10.321324 5.306544 -9.661391 0
M  V30 32 H 9.774782 5.405643 -7.262194 0
M  V30 33 H 9.446844 7.597240 -6.134238 0
M  V30 34 H 9.686020 9.701975 -7.440532 0
M  V30 35 H 10.214770 9.625623 -9.846351 0
M  V30 36 H 12.359518 6.497163 -11.413169 0
M  V30 END ATOM
M  V30 BEGIN BOND
M  V30 1 1 2 1
M  V30 2 1 3 2
M  V30 3 1 4 3
M  V30 4 1 5 4
M  V30 5 1 6 5
M  V30 6 2 7 6
M  V30 7 1 8 7
M  V30 8 1 9 7
M  V30 9 1 10 9
M  V30 10 2 11 9
M  V30 11 2 12 5
M  V30 12 1 12 11
M  V30 13 1 13 2
M  V30 14 1 13 12
M  V30 15 1 14 13
M  V30 16 2 15 14
M  V30 17 1 16 15
M  V30 18 2 17 16
M  V30 19 1 18 17
M  V30 20 1 19 14
M  V30 21 2 19 18
M  V30 22 1 20 1
M  V30 23 1 21 1
M  V30 24 1 22 1
M  V30 25 1 23 3
M  V30 26 1 24 3
M  V30 27 1 25 4
M  V30 28 1 26 4
M  V30 29 1 27 6
M  V30 30 1 28 10
M  V30 31 1 29 11
M  V30 32 1 13 30 CFG=3
M  V30 33 1 31 15
M  V30 34 1 32 16
M  V30 35 1 33 17
M  V30 36 1 34 18
M  V30 37 1 35 19
M  V30 38 1 2 36 CFG=1
M  V30 END BOND
M  V30 END CTAB
M  END
>  <b_m_subgroup_collapsed>  (2624) 
0

>  <r_i_docking_score>  (2624) 
-5.0964464123889197

>  <s_m_subgroup_title>  (2624) 
glide-dock_SP_D22_pv

>  <s_m_subgroupid>  (2624) 
glide-dock_SP_D22_pv

>  <Molecule ChEMBL ID>  (2624) 
CHEMBL293158

>  <Standard Type>  (2624) 
Ki

>  <Standard Value>  (2624) 
19054.61

>  <label>  (2624) 
0

$$$$
CHEMBL2368633
     RDKit          3D

  0  0  0  0  0  0  0  0  0  0999 V3000
M  V30 BEGIN CTAB
M  V30 COUNTS 76 79 0 0 1
M  V30 BEGIN ATOM
M  V30 1 C 3.299710 -2.160208 -18.635370 0
M  V30 2 O 4.513910 -1.564060 -18.210993 0
M  V30 3 C 4.622174 -1.122598 -16.906290 0
M  V30 4 C 3.531370 -1.095900 -16.000025 0
M  V30 5 C 3.689932 -0.628623 -14.683348 0
M  V30 6 C 4.953243 -0.201738 -14.247767 0
M  V30 7 C 6.043723 -0.224499 -15.133425 0
M  V30 8 C 5.891682 -0.665368 -16.472723 0
M  V30 9 C 7.025661 -0.662460 -17.426884 0
M  V30 10 C 8.271674 -0.234766 -17.157829 0
M  V30 11 C 9.321819 -0.247548 -18.170473 0
M  V30 12 O 9.373383 -1.026916 -19.118961 0
M  V30 13 N 10.283806 0.681040 -17.994061 0
M  V30 14 C 10.342932 1.715055 -16.958733 0 CFG=1
M  V30 15 C 10.975350 1.168460 -15.670983 0
M  V30 16 C 10.808187 2.187206 -14.543406 0
M  V30 17 C 11.415409 3.557756 -14.920109 0 CFG=2
M  V30 18 C 11.171866 4.606492 -13.810946 0
M  V30 19 C 9.709128 5.096812 -13.699538 0
M  V30 20 N 9.373776 5.757445 -12.405888 0 CFG=1 CHG=1
M  V30 21 C 9.159560 4.773055 -11.319128 0
M  V30 22 C 8.289804 5.312950 -10.190212 0
M  V30 23 C 8.963193 6.284502 -9.232703 0
M  V30 24 C 8.882957 5.996788 -7.856466 0
M  V30 25 C 9.288721 6.934581 -6.896849 0
M  V30 26 C 9.832095 8.166833 -7.297805 0
M  V30 27 O 10.086908 9.142512 -6.368917 0
M  V30 28 S 11.286117 8.896040 -5.200325 0
M  V30 29 C 12.712500 9.601318 -6.077780 0
M  V30 30 O 10.974596 9.772250 -4.062847 0
M  V30 31 O 11.497033 7.453311 -5.004857 0
M  V30 32 C 9.981469 8.437122 -8.674709 0
M  V30 33 C 9.536090 7.512372 -9.650886 0
M  V30 34 C 9.583888 7.919053 -11.117650 0
M  V30 35 C 10.257047 6.901046 -12.056026 0
M  V30 36 C 10.977346 4.050889 -16.324961 0
M  V30 37 C 11.116566 2.962554 -17.404642 0
M  V30 38 H 3.412220 -2.511958 -19.660503 0
M  V30 39 H 3.036832 -3.023586 -18.023350 0
M  V30 40 H 2.486140 -1.436588 -18.625498 0
M  V30 41 H 2.549544 -1.426460 -16.292072 0
M  V30 42 H 2.842767 -0.608288 -14.013623 0
M  V30 43 H 5.090057 0.152468 -13.238476 0
M  V30 44 H 6.993523 0.110867 -14.753935 0
M  V30 45 H 6.819283 -1.031997 -18.423311 0
M  V30 46 H 8.494316 0.116426 -16.166924 0
M  V30 47 H 11.028426 0.683154 -18.675446 0
M  V30 48 H 9.327667 2.055548 -16.754192 0
M  V30 49 H 10.536175 0.217831 -15.367403 0
M  V30 50 H 12.030816 0.972952 -15.848606 0
M  V30 51 H 9.748307 2.273290 -14.307430 0
M  V30 52 H 11.285832 1.802497 -13.640876 0
M  V30 53 H 12.490884 3.382631 -14.973486 0
M  V30 54 H 11.481884 4.172350 -12.866297 0
M  V30 55 H 11.830161 5.461041 -13.974763 0
M  V30 56 H 9.500882 5.772329 -14.523337 0
M  V30 57 H 9.009437 4.277594 -13.857027 0
M  V30 58 H 8.624801 3.917705 -11.735435 0
M  V30 59 H 10.086871 4.374961 -10.924655 0
M  V30 60 H 7.387307 5.772365 -10.595836 0
M  V30 61 H 7.950175 4.450222 -9.616232 0
M  V30 62 H 8.418148 5.082721 -7.523027 0
M  V30 63 H 9.143805 6.717275 -5.849817 0
M  V30 64 H 13.592362 9.471561 -5.446540 0
M  V30 65 H 12.855296 9.090337 -7.030040 0
M  V30 66 H 12.540626 10.662239 -6.247695 0
M  V30 67 H 10.368409 9.398378 -8.978468 0
M  V30 68 H 8.566730 8.131454 -11.451183 0
M  V30 69 H 10.119745 8.867303 -11.194256 0
M  V30 70 H 11.210429 6.572456 -11.643395 0
M  V30 71 H 10.503304 7.421823 -12.979913 0
M  V30 72 H 9.936878 4.370877 -16.307158 0
M  V30 73 H 11.559486 4.927393 -16.610004 0
M  V30 74 H 12.166059 2.726466 -17.573702 0
M  V30 75 H 10.721729 3.332674 -18.350632 0
M  V30 76 H 8.460305 6.165833 -12.556456 0
M  V30 END ATOM
M  V30 BEGIN BOND
M  V30 1 1 2 1
M  V30 2 1 3 2
M  V30 3 2 4 3
M  V30 4 1 5 4
M  V30 5 2 6 5
M  V30 6 1 7 6
M  V30 7 1 8 3
M  V30 8 2 8 7
M  V30 9 1 9 8
M  V30 10 2 10 9
M  V30 11 1 11 10
M  V30 12 2 12 11
M  V30 13 1 13 11
M  V30 14 1 14 13
M  V30 15 1 15 14
M  V30 16 1 16 15
M  V30 17 1 17 16
M  V30 18 1 18 17
M  V30 19 1 19 18
M  V30 20 1 20 19
M  V30 21 1 21 20
M  V30 22 1 22 21
M  V30 23 1 23 22
M  V30 24 1 24 23
M  V30 25 2 25 24
M  V30 26 1 26 25
M  V30 27 1 27 26
M  V30 28 1 28 27
M  V30 29 1 29 28
M  V30 30 2 30 28
M  V30 31 2 31 28
M  V30 32 2 32 26
M  V30 33 2 33 23
M  V30 34 1 33 32
M  V30 35 1 34 33
M  V30 36 1 35 20
M  V30 37 1 35 34
M  V30 38 1 36 17
M  V30 39 1 37 14
M  V30 40 1 37 36
M  V30 41 1 38 1
M  V30 42 1 39 1
M  V30 43 1 40 1
M  V30 44 1 41 4
M  V30 45 1 42 5
M  V30 46 1 43 6
M  V30 47 1 44 7
M  V30 48 1 45 9
M  V30 49 1 46 10
M  V30 50 1 47 13
M  V30 51 1 14 48 CFG=1
M  V30 52 1 49 15
M  V30 53 1 50 15
M  V30 54 1 51 16
M  V30 55 1 52 16
M  V30 56 1 17 53 CFG=3
M  V30 57 1 54 18
M  V30 58 1 55 18
M  V30 59 1 56 19
M  V30 60 1 57 19
M  V30 61 1 58 21
M  V30 62 1 59 21
M  V30 63 1 60 22
M  V30 64 1 61 22
M  V30 65 1 62 24
M  V30 66 1 63 25
M  V30 67 1 64 29
M  V30 68 1 65 29
M  V30 69 1 66 29
M  V30 70 1 67 32
M  V30 71 1 68 34
M  V30 72 1 69 34
M  V30 73 1 70 35
M  V30 74 1 71 35
M  V30 75 1 72 36
M  V30 76 1 73 36
M  V30 77 1 74 37
M  V30 78 1 75 37
M  V30 79 1 20 76 CFG=3
M  V30 END BOND
M  V30 END CTAB
M  END
>  <b_m_subgroup_collapsed>  (2625) 
0

>  <r_i_docking_score>  (2625) 
-5.0879890894090396

>  <s_m_subgroup_title>  (2625) 
glide-dock_SP_D22_pv

>  <s_m_subgroupid>  (2625) 
glide-dock_SP_D22_pv

>  <Molecule ChEMBL ID>  (2625) 
CHEMBL2368633

>  <Standard Type>  (2625) 
Ki

>  <Standard Value>  (2625) 
100.0

>  <label>  (2625) 
1

$$$$
CHEMBL5273758
     RDKit          3D

  0  0  0  0  0  0  0  0  0  0999 V3000
M  V30 BEGIN CTAB
M  V30 COUNTS 43 46 0 0 1
M  V30 BEGIN ATOM
M  V30 1 C 8.731528 3.484683 -13.944336 0
M  V30 2 N 10.118905 2.971141 -14.057709 0 CFG=2 CHG=1
M  V30 3 C 11.042866 3.987872 -14.615029 0
M  V30 4 C 10.699982 4.279231 -16.084410 0
M  V30 5 C 10.801151 3.015566 -16.956890 0 CFG=2
M  V30 6 C 10.141171 3.253582 -18.303539 0
M  V30 7 C 8.970975 2.696801 -18.672537 0
M  V30 8 O 8.486004 2.972145 -19.888388 0
M  V30 9 C 8.234570 1.802972 -17.780392 0
M  V30 10 O 7.000970 1.403823 -18.117983 0
M  V30 11 C 8.822181 1.359754 -16.649151 0
M  V30 12 C 8.336222 0.346401 -15.617432 0 CFG=2
M  V30 13 C 6.837059 0.216638 -15.299650 0
M  V30 14 C 6.235257 0.829522 -14.177117 0
M  V30 15 C 4.891860 0.573147 -13.846708 0
M  V30 16 C 4.112024 -0.279620 -14.647018 0
M  V30 17 C 4.687844 -0.880167 -15.781946 0
M  V30 18 C 6.038066 -0.631294 -16.100662 0
M  V30 19 C 9.271442 0.558600 -14.394252 0
M  V30 20 C 10.301481 1.655609 -14.745798 0 CFG=1
M  V30 21 C 10.235705 1.741555 -16.276541 0 CFG=2
M  V30 22 H 8.164968 3.367264 -14.868371 0
M  V30 23 H 8.718476 4.541748 -13.678553 0
M  V30 24 H 8.213158 2.972953 -13.140688 0
M  V30 25 H 10.990629 4.905040 -14.027016 0
M  V30 26 H 12.072336 3.633702 -14.530779 0
M  V30 27 H 9.698129 4.706013 -16.155390 0
M  V30 28 H 11.371895 5.045715 -16.472960 0
M  V30 29 H 11.859947 2.832862 -17.140841 0
M  V30 30 H 10.667245 3.917576 -18.975317 0
M  V30 31 H 9.090655 3.557296 -20.315870 0
M  V30 32 H 6.676834 0.852748 -17.419685 0
M  V30 33 H 8.623440 -0.616328 -16.044147 0
M  V30 34 H 6.780356 1.482771 -13.524797 0
M  V30 35 H 4.467407 1.051839 -12.979939 0
M  V30 36 H 3.077838 -0.468663 -14.399386 0
M  V30 37 H 4.101095 -1.549752 -16.396591 0
M  V30 38 H 6.472410 -1.142828 -16.948219 0
M  V30 39 H 8.769810 0.742728 -13.449927 0
M  V30 40 H 9.826325 -0.364850 -14.246585 0
M  V30 41 H 11.288870 1.307290 -14.451762 0
M  V30 42 H 10.823361 0.903871 -16.657148 0
M  V30 43 H 10.411045 2.814434 -13.101974 0
M  V30 END ATOM
M  V30 BEGIN BOND
M  V30 1 1 2 1
M  V30 2 1 3 2
M  V30 3 1 4 3
M  V30 4 1 5 4
M  V30 5 1 6 5
M  V30 6 2 7 6
M  V30 7 1 8 7
M  V30 8 1 9 7
M  V30 9 1 10 9
M  V30 10 2 11 9
M  V30 11 1 12 11
M  V30 12 1 13 12
M  V30 13 2 14 13
M  V30 14 1 15 14
M  V30 15 2 16 15
M  V30 16 1 17 16
M  V30 17 1 18 13
M  V30 18 2 18 17
M  V30 19 1 19 12
M  V30 20 1 20 2
M  V30 21 1 20 19
M  V30 22 1 21 5
M  V30 23 1 21 11
M  V30 24 1 21 20
M  V30 25 1 22 1
M  V30 26 1 23 1
M  V30 27 1 24 1
M  V30 28 1 25 3
M  V30 29 1 26 3
M  V30 30 1 27 4
M  V30 31 1 28 4
M  V30 32 1 5 29 CFG=3
M  V30 33 1 30 6
M  V30 34 1 31 8
M  V30 35 1 32 10
M  V30 36 1 12 33 CFG=3
M  V30 37 1 34 14
M  V30 38 1 35 15
M  V30 39 1 36 16
M  V30 40 1 37 17
M  V30 41 1 38 18
M  V30 42 1 39 19
M  V30 43 1 40 19
M  V30 44 1 20 41 CFG=3
M  V30 45 1 21 42 CFG=3
M  V30 46 1 2 43 CFG=1
M  V30 END BOND
M  V30 END CTAB
M  END
>  <b_m_subgroup_collapsed>  (2626) 
0

>  <r_i_docking_score>  (2626) 
-5.0808864845103798

>  <s_m_subgroup_title>  (2626) 
glide-dock_SP_D22_pv

>  <s_m_subgroupid>  (2626) 
glide-dock_SP_D22_pv

>  <Molecule ChEMBL ID>  (2626) 
CHEMBL5273758

>  <Standard Type>  (2626) 
Ki

>  <Standard Value>  (2626) 
12.88

>  <label>  (2626) 
1

$$$$
CHEMBL594799
     RDKit          3D

  0  0  0  0  0  0  0  0  0  0999 V3000
M  V30 BEGIN CTAB
M  V30 COUNTS 45 47 0 0 1
M  V30 BEGIN ATOM
M  V30 1 C 5.120364 0.254196 -12.757274 0
M  V30 2 C 6.355166 -0.275060 -13.503434 0
M  V30 3 C 6.200684 -0.125137 -15.009502 0
M  V30 4 C 5.291555 -1.005127 -15.637130 0
M  V30 5 C 5.028191 -0.940704 -17.014750 0
M  V30 6 O 4.095912 -1.823817 -17.509041 0
M  V30 7 C 3.665874 -1.663260 -18.851187 0
M  V30 8 C 5.722773 0.011275 -17.792721 0
M  V30 9 C 6.643544 0.885160 -17.186117 0
M  V30 10 C 6.885554 0.850866 -15.792108 0
M  V30 11 C 7.836855 1.915169 -15.219986 0 CFG=1
M  V30 12 C 7.118003 2.882567 -14.263302 0
M  V30 13 C 8.042204 3.911047 -13.649508 0
M  V30 14 C 7.488243 5.026772 -12.991145 0
M  V30 15 C 8.326892 5.963757 -12.361678 0
M  V30 16 C 9.721977 5.784690 -12.392878 0
M  V30 17 C 10.278682 4.667907 -13.048753 0
M  V30 18 C 9.443367 3.718857 -13.671368 0
M  V30 19 C 10.060888 2.504157 -14.358635 0
M  V30 20 N 9.091719 1.401315 -14.602503 0 CFG=2 CHG=1
M  V30 21 C 9.722711 0.270595 -15.325762 0
M  V30 22 H 5.250950 0.172257 -11.678191 0
M  V30 23 H 4.907555 1.297695 -12.982056 0
M  V30 24 H 4.224894 -0.296802 -13.046988 0
M  V30 25 H 6.483445 -1.335764 -13.282031 0
M  V30 26 H 7.262796 0.187783 -13.130794 0
M  V30 27 H 4.764179 -1.743255 -15.048360 0
M  V30 28 H 2.886106 -2.395739 -19.049091 0
M  V30 29 H 3.240684 -0.672684 -19.017624 0
M  V30 30 H 4.477355 -1.837391 -19.560572 0
M  V30 31 H 5.559252 0.090216 -18.856619 0
M  V30 32 H 7.149040 1.608268 -17.808119 0
M  V30 33 H 8.164656 2.518476 -16.067820 0
M  V30 34 H 6.687872 2.358183 -13.423284 0
M  V30 35 H 6.290047 3.375013 -14.771593 0
M  V30 36 H 6.415808 5.164095 -12.951179 0
M  V30 37 H 7.896585 6.812737 -11.846973 0
M  V30 38 H 10.363416 6.506104 -11.908681 0
M  V30 39 H 11.352139 4.540614 -13.061304 0
M  V30 40 H 10.489969 2.831203 -15.305859 0
M  V30 41 H 10.886446 2.131962 -13.750715 0
M  V30 42 H 9.954390 0.542736 -16.356951 0
M  V30 43 H 10.652625 -0.027592 -14.837086 0
M  V30 44 H 9.076024 -0.608720 -15.340118 0
M  V30 45 H 8.846968 1.050166 -13.687660 0
M  V30 END ATOM
M  V30 BEGIN BOND
M  V30 1 1 2 1
M  V30 2 1 3 2
M  V30 3 1 4 3
M  V30 4 2 5 4
M  V30 5 1 6 5
M  V30 6 1 7 6
M  V30 7 1 8 5
M  V30 8 2 9 8
M  V30 9 2 10 3
M  V30 10 1 10 9
M  V30 11 1 11 10
M  V30 12 1 12 11
M  V30 13 1 13 12
M  V30 14 2 14 13
M  V30 15 1 15 14
M  V30 16 2 16 15
M  V30 17 1 17 16
M  V30 18 1 18 13
M  V30 19 2 18 17
M  V30 20 1 19 18
M  V30 21 1 20 11
M  V30 22 1 20 19
M  V30 23 1 21 20
M  V30 24 1 22 1
M  V30 25 1 23 1
M  V30 26 1 24 1
M  V30 27 1 25 2
M  V30 28 1 26 2
M  V30 29 1 27 4
M  V30 30 1 28 7
M  V30 31 1 29 7
M  V30 32 1 30 7
M  V30 33 1 31 8
M  V30 34 1 32 9
M  V30 35 1 11 33 CFG=3
M  V30 36 1 34 12
M  V30 37 1 35 12
M  V30 38 1 36 14
M  V30 39 1 37 15
M  V30 40 1 38 16
M  V30 41 1 39 17
M  V30 42 1 40 19
M  V30 43 1 41 19
M  V30 44 1 42 21
M  V30 45 1 43 21
M  V30 46 1 44 21
M  V30 47 1 20 45 CFG=1
M  V30 END BOND
M  V30 END CTAB
M  END
>  <b_m_subgroup_collapsed>  (2627) 
0

>  <r_i_docking_score>  (2627) 
-5.0796927630086799

>  <s_m_subgroup_title>  (2627) 
glide-dock_SP_D22_pv

>  <s_m_subgroupid>  (2627) 
glide-dock_SP_D22_pv

>  <Molecule ChEMBL ID>  (2627) 
CHEMBL594799

>  <Standard Type>  (2627) 
Ki

>  <Standard Value>  (2627) 
10000.0

>  <label>  (2627) 
0

$$$$
CHEMBL443843
     RDKit          3D

  0  0  0  0  0  0  0  0  0  0999 V3000
M  V30 BEGIN CTAB
M  V30 COUNTS 46 49 0 0 1
M  V30 BEGIN ATOM
M  V30 1 C 10.523889 7.089572 -6.725386 0
M  V30 2 O 10.401910 7.573191 -8.055668 0
M  V30 3 C 9.743779 6.782612 -8.973653 0
M  V30 4 C 9.218738 5.501770 -8.690218 0
M  V30 5 C 8.564445 4.761575 -9.691398 0
M  V30 6 C 8.415681 5.259570 -11.006271 0
M  V30 7 C 8.886023 6.569439 -11.263449 0
M  V30 8 C 9.565942 7.304594 -10.267694 0
M  V30 9 C 8.586387 7.226032 -12.584356 0
M  V30 10 C 7.087530 7.475315 -12.788725 0
M  V30 11 C 6.165065 6.303737 -12.386773 0
M  V30 12 N 6.618520 4.982120 -12.856255 0 CFG=2 CHG=1
M  V30 13 C 5.452967 4.073370 -13.004999 0
M  V30 14 C 5.805346 2.617294 -13.336768 0
M  V30 15 C 6.840860 2.461303 -14.457618 0
M  V30 16 C 8.283135 2.909878 -14.200478 0
M  V30 17 C 9.226687 2.418998 -15.131104 0
M  V30 18 C 10.583951 2.766208 -15.050890 0
M  V30 19 C 11.017210 3.616461 -14.025714 0
M  V30 20 C 10.097282 4.099515 -13.080224 0
M  V30 21 C 8.720587 3.772326 -13.142004 0
M  V30 22 C 7.753911 4.376344 -12.101851 0 CFG=1
M  V30 23 H 11.037317 7.834418 -6.117620 0
M  V30 24 H 11.112738 6.172318 -6.687909 0
M  V30 25 H 9.547073 6.912169 -6.272321 0
M  V30 26 H 9.296023 5.064982 -7.707954 0
M  V30 27 H 8.153212 3.802940 -9.416293 0
M  V30 28 H 9.920012 8.302716 -10.479270 0
M  V30 29 H 9.131969 8.168055 -12.646865 0
M  V30 30 H 8.954618 6.572324 -13.371434 0
M  V30 31 H 6.791729 8.369056 -12.246864 0
M  V30 32 H 6.886025 7.772325 -13.813151 0
M  V30 33 H 5.951473 6.172324 -11.328813 0
M  V30 34 H 5.224232 6.540776 -12.860571 0
M  V30 35 H 4.886022 4.084996 -12.074787 0
M  V30 36 H 4.801884 4.471868 -13.784825 0
M  V30 37 H 6.086022 2.060384 -12.445804 0
M  V30 38 H 4.886024 2.125607 -13.655069 0
M  V30 39 H 6.873243 1.403246 -14.723015 0
M  V30 40 H 6.486022 2.972325 -15.351564 0
M  V30 41 H 8.906528 1.766688 -15.930996 0
M  V30 42 H 11.289769 2.382245 -15.773243 0
M  V30 43 H 12.060222 3.888788 -13.953573 0
M  V30 44 H 10.486025 4.736166 -12.303005 0
M  V30 45 H 7.333371 3.569010 -11.511301 0
M  V30 46 H 6.984324 5.124683 -13.785589 0
M  V30 END ATOM
M  V30 BEGIN BOND
M  V30 1 1 2 1
M  V30 2 1 3 2
M  V30 3 1 4 3
M  V30 4 2 5 4
M  V30 5 1 6 5
M  V30 6 2 7 6
M  V30 7 2 8 3
M  V30 8 1 8 7
M  V30 9 1 9 7
M  V30 10 1 10 9
M  V30 11 1 11 10
M  V30 12 1 12 11
M  V30 13 1 13 12
M  V30 14 1 14 13
M  V30 15 1 15 14
M  V30 16 1 16 15
M  V30 17 2 17 16
M  V30 18 1 18 17
M  V30 19 2 19 18
M  V30 20 1 20 19
M  V30 21 1 21 16
M  V30 22 2 21 20
M  V30 23 1 22 6
M  V30 24 1 22 12
M  V30 25 1 22 21
M  V30 26 1 23 1
M  V30 27 1 24 1
M  V30 28 1 25 1
M  V30 29 1 26 4
M  V30 30 1 27 5
M  V30 31 1 28 8
M  V30 32 1 29 9
M  V30 33 1 30 9
M  V30 34 1 31 10
M  V30 35 1 32 10
M  V30 36 1 33 11
M  V30 37 1 34 11
M  V30 38 1 35 13
M  V30 39 1 36 13
M  V30 40 1 37 14
M  V30 41 1 38 14
M  V30 42 1 39 15
M  V30 43 1 40 15
M  V30 44 1 41 17
M  V30 45 1 42 18
M  V30 46 1 43 19
M  V30 47 1 44 20
M  V30 48 1 22 45 CFG=1
M  V30 49 1 12 46 CFG=3
M  V30 END BOND
M  V30 END CTAB
M  END
>  <b_m_subgroup_collapsed>  (2628) 
0

>  <r_i_docking_score>  (2628) 
-5.0745702989737298

>  <s_m_subgroup_title>  (2628) 
glide-dock_SP_D22_pv

>  <s_m_subgroupid>  (2628) 
glide-dock_SP_D22_pv

>  <Molecule ChEMBL ID>  (2628) 
CHEMBL443843

>  <Standard Type>  (2628) 
Ki

>  <Standard Value>  (2628) 
10000.0

>  <label>  (2628) 
0

$$$$
CHEMBL381912
     RDKit          3D

  0  0  0  0  0  0  0  0  0  0999 V3000
M  V30 BEGIN CTAB
M  V30 COUNTS 46 50 0 0 1
M  V30 BEGIN ATOM
M  V30 1 C 13.094023 0.646358 -19.156893 0
M  V30 2 C 12.252704 -0.475955 -19.045998 0
M  V30 3 C 10.980363 -0.353809 -18.452671 0
M  V30 4 C 10.540598 0.900113 -17.970591 0
M  V30 5 C 9.173551 1.054975 -17.309505 0 CFG=1
M  V30 6 C 8.028343 0.636388 -18.251644 0
M  V30 7 C 6.668538 0.892736 -17.595123 0
M  V30 8 C 6.595833 0.122989 -16.274408 0
M  V30 9 C 7.760482 0.471694 -15.322110 0 CFG=2
M  V30 10 C 7.659356 1.809286 -14.647396 0
M  V30 11 N 6.493189 2.410419 -14.209286 0
M  V30 12 C 6.777884 3.609739 -13.583843 0
M  V30 13 C 5.954927 4.569724 -12.974670 0
M  V30 14 C 6.539384 5.709176 -12.394361 0
M  V30 15 C 7.935616 5.883301 -12.439816 0
M  V30 16 C 8.756192 4.917500 -13.057570 0
M  V30 17 C 8.198041 3.755075 -13.638765 0
M  V30 18 C 8.725358 2.593008 -14.300072 0
M  V30 19 C 10.135728 2.198067 -14.616692 0
M  V30 20 C 10.198453 0.709150 -15.046872 0
M  V30 21 N 9.096554 0.344052 -15.992802 0 CFG=2 CHG=1
M  V30 22 C 11.390676 2.022815 -18.088621 0
M  V30 23 C 12.663228 1.896250 -18.675903 0
M  V30 24 H 14.069666 0.548151 -19.610352 0
M  V30 25 H 12.591005 -1.429413 -19.420006 0
M  V30 26 H 10.350236 -1.227571 -18.372633 0
M  V30 27 H 9.031844 2.119792 -17.119278 0
M  V30 28 H 8.092710 1.197306 -19.184906 0
M  V30 29 H 8.112812 -0.417723 -18.518799 0
M  V30 30 H 6.527232 1.959362 -17.415352 0
M  V30 31 H 5.862571 0.577160 -18.258825 0
M  V30 32 H 5.634925 0.285590 -15.786582 0
M  V30 33 H 6.631372 -0.944861 -16.497316 0
M  V30 34 H 7.741414 -0.277694 -14.529284 0
M  V30 35 H 5.574968 2.005120 -14.319334 0
M  V30 36 H 4.886476 4.429786 -12.938629 0
M  V30 37 H 5.921170 6.449657 -11.905278 0
M  V30 38 H 8.371185 6.760497 -11.982047 0
M  V30 39 H 9.826417 5.059468 -13.073014 0
M  V30 40 H 10.532125 2.840721 -15.401878 0
M  V30 41 H 10.778174 2.354670 -13.749871 0
M  V30 42 H 11.179984 0.470746 -15.457376 0
M  V30 43 H 10.096015 0.075617 -14.165553 0
M  V30 44 H 11.075546 2.991874 -17.729458 0
M  V30 45 H 13.308069 2.758977 -18.759464 0
M  V30 46 H 9.202285 -0.638147 -16.201551 0
M  V30 END ATOM
M  V30 BEGIN BOND
M  V30 1 2 2 1
M  V30 2 1 3 2
M  V30 3 2 4 3
M  V30 4 1 5 4
M  V30 5 1 6 5
M  V30 6 1 7 6
M  V30 7 1 8 7
M  V30 8 1 9 8
M  V30 9 1 10 9
M  V30 10 1 11 10
M  V30 11 1 12 11
M  V30 12 2 13 12
M  V30 13 1 14 13
M  V30 14 2 15 14
M  V30 15 1 16 15
M  V30 16 1 17 12
M  V30 17 2 17 16
M  V30 18 2 18 10
M  V30 19 1 18 17
M  V30 20 1 19 18
M  V30 21 1 20 19
M  V30 22 1 21 5
M  V30 23 1 21 9
M  V30 24 1 21 20
M  V30 25 1 22 4
M  V30 26 1 23 1
M  V30 27 2 23 22
M  V30 28 1 24 1
M  V30 29 1 25 2
M  V30 30 1 26 3
M  V30 31 1 5 27 CFG=1
M  V30 32 1 28 6
M  V30 33 1 29 6
M  V30 34 1 30 7
M  V30 35 1 31 7
M  V30 36 1 32 8
M  V30 37 1 33 8
M  V30 38 1 9 34 CFG=1
M  V30 39 1 35 11
M  V30 40 1 36 13
M  V30 41 1 37 14
M  V30 42 1 38 15
M  V30 43 1 39 16
M  V30 44 1 40 19
M  V30 45 1 41 19
M  V30 46 1 42 20
M  V30 47 1 43 20
M  V30 48 1 44 22
M  V30 49 1 45 23
M  V30 50 1 21 46 CFG=3
M  V30 END BOND
M  V30 END CTAB
M  END
>  <b_m_subgroup_collapsed>  (2629) 
0

>  <r_i_docking_score>  (2629) 
-5.0719435629802501

>  <s_m_subgroup_title>  (2629) 
glide-dock_SP_D22_pv

>  <s_m_subgroupid>  (2629) 
glide-dock_SP_D22_pv

>  <Molecule ChEMBL ID>  (2629) 
CHEMBL381912

>  <Standard Type>  (2629) 
Ki

>  <Standard Value>  (2629) 
10000.0

>  <label>  (2629) 
0

$$$$
CHEMBL243712
     RDKit          3D

  0  0  0  0  0  0  0  0  0  0999 V3000
M  V30 BEGIN CTAB
M  V30 COUNTS 53 54 0 0 1
M  V30 BEGIN ATOM
M  V30 1 C 6.339892 0.762111 -14.692001 0
M  V30 2 C 7.796587 0.323909 -14.501186 0
M  V30 3 N 8.757725 1.209276 -15.204456 0 CFG=2 CHG=1
M  V30 4 C 9.860473 0.484905 -15.868912 0
M  V30 5 C 10.898370 1.555887 -16.200474 0
M  V30 6 C 10.685062 2.648213 -15.147537 0
M  V30 7 C 9.417298 2.241075 -14.372541 0 CFG=1
M  V30 8 C 8.491527 3.412360 -14.016488 0
M  V30 9 N 9.199548 4.397844 -13.216949 0
M  V30 10 C 8.627539 5.216744 -12.327053 0
M  V30 11 O 7.417682 5.214033 -12.103639 0
M  V30 12 C 9.568492 6.090742 -11.542687 0
M  V30 13 C 9.286219 6.306906 -10.174349 0
M  V30 14 C 10.116142 7.119550 -9.381905 0
M  V30 15 S 9.747890 7.278267 -7.621490 0
M  V30 16 O 9.686149 8.709950 -7.286438 0
M  V30 17 O 8.619809 6.397204 -7.290598 0
M  V30 18 C 11.206997 6.570064 -6.757013 0
M  V30 19 C 11.037766 6.663222 -5.237593 0
M  V30 20 C 11.229294 7.762177 -9.969980 0
M  V30 21 N 12.086518 8.572754 -9.228901 0
M  V30 22 C 11.511844 7.556903 -11.334017 0
M  V30 23 C 10.708024 6.706248 -12.135615 0
M  V30 24 O 11.029859 6.402943 -13.445184 0
M  V30 25 C 12.086739 7.107642 -14.083114 0
M  V30 26 H 5.662632 0.042652 -14.227398 0
M  V30 27 H 6.121778 1.733459 -14.249684 0
M  V30 28 H 6.084578 0.811799 -15.751317 0
M  V30 29 H 7.876223 -0.663350 -14.937599 0
M  V30 30 H 8.046567 0.204972 -13.447415 0
M  V30 31 H 9.520623 -0.055498 -16.754530 0
M  V30 32 H 10.291238 -0.241005 -15.175099 0
M  V30 33 H 10.704746 1.962370 -17.193951 0
M  V30 34 H 11.915575 1.163989 -16.202570 0
M  V30 35 H 10.564675 3.614970 -15.638890 0
M  V30 36 H 11.539101 2.729212 -14.475509 0
M  V30 37 H 9.741768 1.772242 -13.447178 0
M  V30 38 H 7.639297 3.047457 -13.447071 0
M  V30 39 H 8.096392 3.887973 -14.911425 0
M  V30 40 H 10.198478 4.493198 -13.344819 0
M  V30 41 H 8.415262 5.844165 -9.727454 0
M  V30 42 H 11.320824 5.538669 -7.082027 0
M  V30 43 H 12.085982 7.117616 -7.074002 0
M  V30 44 H 11.869430 6.186383 -4.718412 0
M  V30 45 H 10.985229 7.702214 -4.914486 0
M  V30 46 H 10.118198 6.174143 -4.916157 0
M  V30 47 H 11.724415 8.978131 -8.375521 0
M  V30 48 H 12.727004 9.190447 -9.720333 0
M  V30 49 H 12.386235 8.040711 -11.741384 0
M  V30 50 H 12.198380 6.738016 -15.103307 0
M  V30 51 H 11.870913 8.172441 -14.146294 0
M  V30 52 H 13.039903 6.964078 -13.576031 0
M  V30 53 H 8.256642 1.686050 -15.940385 0
M  V30 END ATOM
M  V30 BEGIN BOND
M  V30 1 1 2 1
M  V30 2 1 3 2
M  V30 3 1 4 3
M  V30 4 1 5 4
M  V30 5 1 6 5
M  V30 6 1 7 3
M  V30 7 1 7 6
M  V30 8 1 8 7
M  V30 9 1 9 8
M  V30 10 1 10 9
M  V30 11 2 11 10
M  V30 12 1 12 10
M  V30 13 1 13 12
M  V30 14 2 14 13
M  V30 15 1 15 14
M  V30 16 2 16 15
M  V30 17 2 17 15
M  V30 18 1 18 15
M  V30 19 1 19 18
M  V30 20 1 20 14
M  V30 21 1 21 20
M  V30 22 2 22 20
M  V30 23 2 23 12
M  V30 24 1 23 22
M  V30 25 1 24 23
M  V30 26 1 25 24
M  V30 27 1 26 1
M  V30 28 1 27 1
M  V30 29 1 28 1
M  V30 30 1 29 2
M  V30 31 1 30 2
M  V30 32 1 31 4
M  V30 33 1 32 4
M  V30 34 1 33 5
M  V30 35 1 34 5
M  V30 36 1 35 6
M  V30 37 1 36 6
M  V30 38 1 7 37 CFG=1
M  V30 39 1 38 8
M  V30 40 1 39 8
M  V30 41 1 40 9
M  V30 42 1 41 13
M  V30 43 1 42 18
M  V30 44 1 43 18
M  V30 45 1 44 19
M  V30 46 1 45 19
M  V30 47 1 46 19
M  V30 48 1 47 21
M  V30 49 1 48 21
M  V30 50 1 49 22
M  V30 51 1 50 25
M  V30 52 1 51 25
M  V30 53 1 52 25
M  V30 54 1 3 53 CFG=3
M  V30 END BOND
M  V30 END CTAB
M  END
>  <b_m_subgroup_collapsed>  (2630) 
0

>  <r_i_docking_score>  (2630) 
-5.0692776004426596

>  <s_m_subgroup_title>  (2630) 
glide-dock_SP_D22_pv

>  <s_m_subgroupid>  (2630) 
glide-dock_SP_D22_pv

>  <Molecule ChEMBL ID>  (2630) 
CHEMBL243712

>  <Standard Type>  (2630) 
Ki

>  <Standard Value>  (2630) 
3.0

>  <label>  (2630) 
1

$$$$
CHEMBL76402
     RDKit          3D

  0  0  0  0  0  0  0  0  0  0999 V3000
M  V30 BEGIN CTAB
M  V30 COUNTS 46 47 0 0 1
M  V30 BEGIN ATOM
M  V30 1 C 9.802745 7.538382 -10.873731 0
M  V30 2 C 9.414973 6.314346 -11.715646 0
M  V30 3 N 7.944900 6.171448 -11.847450 0 CFG=1 CHG=1
M  V30 4 C 7.261530 7.201705 -12.647143 0
M  V30 5 C 5.833079 6.691091 -12.730070 0
M  V30 6 C 5.972201 5.167149 -12.771664 0
M  V30 7 C 7.427135 4.868020 -12.346304 0 CFG=1
M  V30 8 C 8.280711 4.257593 -13.493887 0
M  V30 9 N 7.617606 3.114179 -14.106373 0
M  V30 10 C 8.163589 2.246805 -14.970649 0
M  V30 11 O 9.364492 2.217793 -15.239478 0
M  V30 12 C 7.154439 1.337573 -15.627951 0
M  V30 13 C 6.961671 1.348776 -17.039785 0
M  V30 14 O 7.685874 2.172302 -17.860456 0 CHG=-1
M  V30 15 C 5.962768 0.537462 -17.622280 0
M  V30 16 Br 5.630234 0.572653 -19.500360 0
M  V30 17 C 5.156709 -0.280780 -16.815239 0
M  V30 18 C 5.310446 -0.278488 -15.413031 0
M  V30 19 O 4.492018 -1.026299 -14.600478 0
M  V30 20 C 3.115479 -1.027502 -14.949354 0
M  V30 21 C 6.315104 0.522146 -14.819997 0
M  V30 22 O 6.456051 0.542374 -13.451104 0
M  V30 23 C 5.345039 1.089269 -12.752099 0
M  V30 24 H 10.882965 7.580990 -10.726901 0
M  V30 25 H 9.502793 8.471035 -11.353485 0
M  V30 26 H 9.335258 7.504991 -9.888163 0
M  V30 27 H 9.806948 5.420753 -11.227799 0
M  V30 28 H 9.883538 6.373592 -12.698613 0
M  V30 29 H 7.686149 7.228747 -13.641799 0
M  V30 30 H 7.323458 8.211658 -12.246449 0
M  V30 31 H 5.286066 7.112576 -13.568489 0
M  V30 32 H 5.285522 6.979484 -11.846728 0
M  V30 33 H 5.726765 4.795249 -13.767016 0
M  V30 34 H 5.277853 4.702509 -12.072142 0
M  V30 35 H 7.423499 4.166141 -11.509937 0
M  V30 36 H 9.256124 3.941129 -13.119118 0
M  V30 37 H 8.460685 4.996336 -14.276514 0
M  V30 38 H 6.624719 3.020298 -13.958333 0
M  V30 39 H 4.399568 -0.890788 -17.284365 0
M  V30 40 H 2.527262 -1.183113 -14.045218 0
M  V30 41 H 2.791893 -0.076601 -15.374015 0
M  V30 42 H 2.890321 -1.825775 -15.656926 0
M  V30 43 H 5.656601 1.381364 -11.751164 0
M  V30 44 H 4.950883 1.979004 -13.246876 0
M  V30 45 H 4.540245 0.364844 -12.646334 0
M  V30 46 H 7.545976 6.312328 -10.923035 0
M  V30 END ATOM
M  V30 BEGIN BOND
M  V30 1 1 2 1
M  V30 2 1 3 2
M  V30 3 1 4 3
M  V30 4 1 5 4
M  V30 5 1 6 5
M  V30 6 1 7 3
M  V30 7 1 7 6
M  V30 8 1 8 7
M  V30 9 1 9 8
M  V30 10 1 10 9
M  V30 11 2 11 10
M  V30 12 1 12 10
M  V30 13 2 13 12
M  V30 14 1 14 13
M  V30 15 1 15 13
M  V30 16 1 16 15
M  V30 17 2 17 15
M  V30 18 1 18 17
M  V30 19 1 19 18
M  V30 20 1 20 19
M  V30 21 1 21 12
M  V30 22 2 21 18
M  V30 23 1 22 21
M  V30 24 1 23 22
M  V30 25 1 24 1
M  V30 26 1 25 1
M  V30 27 1 26 1
M  V30 28 1 27 2
M  V30 29 1 28 2
M  V30 30 1 29 4
M  V30 31 1 30 4
M  V30 32 1 31 5
M  V30 33 1 32 5
M  V30 34 1 33 6
M  V30 35 1 34 6
M  V30 36 1 7 35 CFG=1
M  V30 37 1 36 8
M  V30 38 1 37 8
M  V30 39 1 38 9
M  V30 40 1 39 17
M  V30 41 1 40 20
M  V30 42 1 41 20
M  V30 43 1 42 20
M  V30 44 1 43 23
M  V30 45 1 44 23
M  V30 46 1 45 23
M  V30 47 1 3 46 CFG=1
M  V30 END BOND
M  V30 END CTAB
M  END
>  <b_m_subgroup_collapsed>  (2631) 
0

>  <r_i_docking_score>  (2631) 
-5.0677993574090303

>  <s_m_subgroup_title>  (2631) 
glide-dock_SP_D22_pv

>  <s_m_subgroupid>  (2631) 
glide-dock_SP_D22_pv

>  <Molecule ChEMBL ID>  (2631) 
CHEMBL76402

>  <Standard Type>  (2631) 
Ki

>  <Standard Value>  (2631) 
0.65

>  <label>  (2631) 
1

$$$$
CHEMBL392377
     RDKit          3D

  0  0  0  0  0  0  0  0  0  0999 V3000
M  V30 BEGIN CTAB
M  V30 COUNTS 72 75 0 0 1
M  V30 BEGIN ATOM
M  V30 1 C 10.099557 6.331769 -8.485899 0
M  V30 2 C 10.392624 7.352891 -9.606935 0
M  V30 3 C 9.476174 8.582710 -9.626991 0
M  V30 4 O 10.614488 6.806717 -10.909977 0
M  V30 5 C 9.685915 6.054813 -11.616058 0
M  V30 6 C 8.385751 5.773687 -11.131776 0
M  V30 7 C 7.482174 4.982894 -11.861947 0
M  V30 8 C 7.854711 4.470980 -13.111381 0
M  V30 9 C 9.139236 4.738832 -13.613350 0
M  V30 10 C 10.071933 5.516249 -12.882334 0
M  V30 11 N 11.350207 5.726000 -13.446708 0
M  V30 12 C 12.060804 4.645548 -14.117921 0
M  V30 13 C 12.526082 5.106786 -15.508585 0
M  V30 14 N 13.322758 6.366153 -15.424171 0 CHG=1
M  V30 15 C 13.908852 6.843324 -16.717993 0 CFG=1
M  V30 16 C 14.932156 5.845031 -17.324448 0
M  V30 17 C 15.531032 6.364068 -18.648062 0
M  V30 18 C 14.410774 6.711586 -19.644295 0 CFG=2
M  V30 19 N 14.948117 7.190320 -20.919275 0
M  V30 20 S 14.272064 6.582314 -22.388807 0
M  V30 21 O 14.901940 7.317050 -23.496532 0
M  V30 22 O 14.341640 5.113290 -22.325298 0
M  V30 23 C 12.555461 7.078666 -22.256552 0
M  V30 24 C 12.167155 8.370783 -22.654448 0
M  V30 25 C 10.831026 8.778138 -22.472443 0
M  V30 26 C 9.879183 7.917522 -21.885859 0
M  V30 27 O 8.602324 8.419738 -21.710880 0
M  V30 28 C 7.635875 7.693613 -21.083969 0
M  V30 29 F 6.501079 8.428943 -20.996399 0
M  V30 30 F 7.325459 6.565970 -21.768883 0
M  V30 31 F 7.992286 7.367999 -19.815601 0
M  V30 32 C 10.281148 6.610358 -21.512245 0
M  V30 33 C 11.613762 6.190324 -21.702459 0
M  V30 34 C 13.477603 7.771854 -19.041498 0
M  V30 35 C 12.835670 7.244587 -17.758207 0
M  V30 36 C 12.598354 7.445185 -14.689532 0
M  V30 37 C 12.065748 6.989009 -13.321632 0
M  V30 38 H 10.215901 6.803885 -7.509509 0
M  V30 39 H 9.096276 5.912751 -8.499790 0
M  V30 40 H 10.805662 5.501026 -8.527078 0
M  V30 41 H 11.377074 7.749258 -9.353423 0
M  V30 42 H 9.342916 8.992768 -8.625387 0
M  V30 43 H 9.897800 9.371508 -10.247105 0
M  V30 44 H 8.488564 8.357915 -10.022573 0
M  V30 45 H 8.024578 6.172272 -10.203165 0
M  V30 46 H 6.499824 4.790973 -11.449349 0
M  V30 47 H 7.156189 3.879722 -13.685270 0
M  V30 48 H 9.397748 4.345974 -14.584105 0
M  V30 49 H 12.923925 4.383797 -13.507299 0
M  V30 50 H 11.463908 3.736668 -14.193330 0
M  V30 51 H 13.106573 4.300367 -15.955235 0
M  V30 52 H 11.649196 5.258367 -16.138784 0
M  V30 53 H 14.474491 7.750376 -16.484529 0
M  V30 54 H 15.733325 5.648458 -16.611120 0
M  V30 55 H 14.462093 4.884387 -17.529100 0
M  V30 56 H 16.188860 5.608238 -19.075979 0
M  V30 57 H 16.147661 7.241611 -18.455929 0
M  V30 58 H 13.839038 5.802051 -19.833427 0
M  V30 59 H 15.965570 7.164684 -20.947514 0
M  V30 60 H 12.891424 9.051895 -23.076389 0
M  V30 61 H 10.535009 9.772266 -22.774620 0
M  V30 62 H 9.590953 5.912148 -21.064991 0
M  V30 63 H 11.912148 5.199191 -21.395317 0
M  V30 64 H 12.691414 8.052733 -19.741898 0
M  V30 65 H 14.032580 8.688583 -18.831741 0
M  V30 66 H 12.192551 6.400063 -18.007431 0
M  V30 67 H 12.187878 8.029664 -17.375546 0
M  V30 68 H 13.254548 8.308967 -14.556822 0
M  V30 69 H 11.743724 7.772687 -15.280131 0
M  V30 70 H 11.412004 7.767246 -12.931063 0
M  V30 71 H 12.880843 6.864474 -12.611255 0
M  V30 72 H 14.108458 6.145193 -14.822454 0
M  V30 END ATOM
M  V30 BEGIN BOND
M  V30 1 1 2 1
M  V30 2 1 3 2
M  V30 3 1 4 2
M  V30 4 1 5 4
M  V30 5 2 6 5
M  V30 6 1 7 6
M  V30 7 2 8 7
M  V30 8 1 9 8
M  V30 9 1 10 5
M  V30 10 2 10 9
M  V30 11 1 11 10
M  V30 12 1 12 11
M  V30 13 1 13 12
M  V30 14 1 14 13
M  V30 15 1 15 14
M  V30 16 1 16 15
M  V30 17 1 17 16
M  V30 18 1 18 17
M  V30 19 1 19 18
M  V30 20 1 20 19
M  V30 21 2 21 20
M  V30 22 2 22 20
M  V30 23 1 23 20
M  V30 24 1 24 23
M  V30 25 2 25 24
M  V30 26 1 26 25
M  V30 27 1 27 26
M  V30 28 1 28 27
M  V30 29 1 29 28
M  V30 30 1 30 28
M  V30 31 1 31 28
M  V30 32 2 32 26
M  V30 33 2 33 23
M  V30 34 1 33 32
M  V30 35 1 34 18
M  V30 36 1 35 15
M  V30 37 1 35 34
M  V30 38 1 36 14
M  V30 39 1 37 11
M  V30 40 1 37 36
M  V30 41 1 38 1
M  V30 42 1 39 1
M  V30 43 1 40 1
M  V30 44 1 41 2
M  V30 45 1 42 3
M  V30 46 1 43 3
M  V30 47 1 44 3
M  V30 48 1 45 6
M  V30 49 1 46 7
M  V30 50 1 47 8
M  V30 51 1 48 9
M  V30 52 1 49 12
M  V30 53 1 50 12
M  V30 54 1 51 13
M  V30 55 1 52 13
M  V30 56 1 15 53 CFG=1
M  V30 57 1 54 16
M  V30 58 1 55 16
M  V30 59 1 56 17
M  V30 60 1 57 17
M  V30 61 1 18 58 CFG=3
M  V30 62 1 59 19
M  V30 63 1 60 24
M  V30 64 1 61 25
M  V30 65 1 62 32
M  V30 66 1 63 33
M  V30 67 1 64 34
M  V30 68 1 65 34
M  V30 69 1 66 35
M  V30 70 1 67 35
M  V30 71 1 68 36
M  V30 72 1 69 36
M  V30 73 1 70 37
M  V30 74 1 71 37
M  V30 75 1 72 14
M  V30 END BOND
M  V30 END CTAB
M  END
>  <b_m_subgroup_collapsed>  (2632) 
0

>  <r_i_docking_score>  (2632) 
-5.06539151302968

>  <s_m_subgroup_title>  (2632) 
glide-dock_SP_D22_pv

>  <s_m_subgroupid>  (2632) 
glide-dock_SP_D22_pv

>  <Molecule ChEMBL ID>  (2632) 
CHEMBL392377

>  <Standard Type>  (2632) 
Ki

>  <Standard Value>  (2632) 
58.0

>  <label>  (2632) 
1

$$$$
CHEMBL544115
     RDKit          3D

  0  0  0  0  0  0  0  0  0  0999 V3000
M  V30 BEGIN CTAB
M  V30 COUNTS 44 46 0 0 1
M  V30 BEGIN ATOM
M  V30 1 C 6.081302 5.487819 -12.642377 0
M  V30 2 C 5.521032 4.468655 -13.314155 0
M  V30 3 C 5.537671 3.028970 -12.835239 0
M  V30 4 N 6.086411 2.062048 -13.830986 0 CFG=2 CHG=1
M  V30 5 C 5.799150 0.660945 -13.394303 0
M  V30 6 C 6.107620 -0.458633 -14.412411 0
M  V30 7 C 6.082990 0.004910 -15.864971 0
M  V30 8 C 7.097416 0.896319 -16.299519 0
M  V30 9 C 7.119671 1.319731 -17.647638 0
M  V30 10 C 6.132996 0.877211 -18.547546 0
M  V30 11 O 6.154225 1.292532 -19.845528 0
M  V30 12 C 5.103127 0.026468 -18.108364 0
M  V30 13 O 4.125384 -0.349621 -18.987272 0
M  V30 14 C 5.073527 -0.416242 -16.768188 0
M  V30 15 Cl 3.769911 -1.426918 -16.249586 0
M  V30 16 C 8.119640 1.410128 -15.279945 0 CFG=1
M  V30 17 C 9.432767 1.891576 -15.908899 0
M  V30 18 C 10.386692 0.925226 -16.302797 0
M  V30 19 C 11.595180 1.319877 -16.913076 0
M  V30 20 C 11.869856 2.682967 -17.124424 0
M  V30 21 C 10.925336 3.653277 -16.741545 0
M  V30 22 C 9.712520 3.261546 -16.142019 0
M  V30 23 C 7.470047 2.405560 -14.287146 0
M  V30 24 H 6.590253 5.334139 -11.701252 0
M  V30 25 H 6.035670 6.501964 -13.015323 0
M  V30 26 H 5.014164 4.667319 -14.247735 0
M  V30 27 H 6.086129 2.968338 -11.894629 0
M  V30 28 H 4.501811 2.765907 -12.620981 0
M  V30 29 H 6.284552 0.441379 -12.445326 0
M  V30 30 H 4.726523 0.610384 -13.197987 0
M  V30 31 H 7.072014 -0.916771 -14.197752 0
M  V30 32 H 5.417097 -1.286627 -14.247910 0
M  V30 33 H 7.887152 1.991730 -18.006371 0
M  V30 34 H 5.442349 0.880356 -20.317753 0
M  V30 35 H 3.461113 -0.894410 -18.584709 0
M  V30 36 H 8.456727 0.564819 -14.685168 0
M  V30 37 H 10.190476 -0.126925 -16.148375 0
M  V30 38 H 12.318359 0.573339 -17.208372 0
M  V30 39 H 12.801666 2.980614 -17.582363 0
M  V30 40 H 11.134558 4.701045 -16.910496 0
M  V30 41 H 9.018048 4.042122 -15.877382 0
M  V30 42 H 7.365264 3.367965 -14.779586 0
M  V30 43 H 8.141350 2.573918 -13.447001 0
M  V30 44 H 5.523310 2.178205 -14.659441 0
M  V30 END ATOM
M  V30 BEGIN BOND
M  V30 1 2 2 1
M  V30 2 1 3 2
M  V30 3 1 4 3
M  V30 4 1 5 4
M  V30 5 1 6 5
M  V30 6 1 7 6
M  V30 7 2 8 7
M  V30 8 1 9 8
M  V30 9 2 10 9
M  V30 10 1 11 10
M  V30 11 1 12 10
M  V30 12 1 13 12
M  V30 13 1 14 7
M  V30 14 2 14 12
M  V30 15 1 15 14
M  V30 16 1 16 8
M  V30 17 1 17 16
M  V30 18 2 18 17
M  V30 19 1 19 18
M  V30 20 2 20 19
M  V30 21 1 21 20
M  V30 22 1 22 17
M  V30 23 2 22 21
M  V30 24 1 23 4
M  V30 25 1 23 16
M  V30 26 1 24 1
M  V30 27 1 25 1
M  V30 28 1 26 2
M  V30 29 1 27 3
M  V30 30 1 28 3
M  V30 31 1 29 5
M  V30 32 1 30 5
M  V30 33 1 31 6
M  V30 34 1 32 6
M  V30 35 1 33 9
M  V30 36 1 34 11
M  V30 37 1 35 13
M  V30 38 1 16 36 CFG=1
M  V30 39 1 37 18
M  V30 40 1 38 19
M  V30 41 1 39 20
M  V30 42 1 40 21
M  V30 43 1 41 22
M  V30 44 1 42 23
M  V30 45 1 43 23
M  V30 46 1 4 44 CFG=3
M  V30 END BOND
M  V30 END CTAB
M  END
>  <b_m_subgroup_collapsed>  (2633) 
0

>  <r_i_docking_score>  (2633) 
-5.0619382394754497

>  <s_m_subgroup_title>  (2633) 
glide-dock_SP_D22_pv

>  <s_m_subgroupid>  (2633) 
glide-dock_SP_D22_pv

>  <Molecule ChEMBL ID>  (2633) 
CHEMBL544115

>  <Standard Type>  (2633) 
Ki

>  <Standard Value>  (2633) 
55.0

>  <label>  (2633) 
1

$$$$
CHEMBL5091479
     RDKit          3D

  0  0  0  0  0  0  0  0  0  0999 V3000
M  V30 BEGIN CTAB
M  V30 COUNTS 38 40 0 0 1
M  V30 BEGIN ATOM
M  V30 1 C 5.909035 4.299637 -11.847139 0
M  V30 2 N 6.974229 5.287801 -11.572679 0 CFG=2 CHG=1
M  V30 3 C 6.952346 6.484563 -12.415001 0
M  V30 4 C 8.313533 7.138053 -12.165002 0
M  V30 5 C 9.279259 6.013530 -11.685350 0
M  V30 6 C 10.486074 5.829335 -12.646952 0
M  V30 7 C 11.257611 6.943734 -13.047935 0
M  V30 8 C 12.258666 6.837904 -14.030569 0
M  V30 9 C 12.531530 5.592838 -14.621017 0
M  V30 10 C 11.823443 4.455690 -14.200636 0
M  V30 11 C 10.817320 4.572343 -13.222279 0
M  V30 12 C 9.685976 6.341291 -10.215574 0
M  V30 13 C 8.978046 5.797313 -9.109773 0
M  V30 14 C 9.281188 6.172698 -7.787739 0
M  V30 15 C 10.313348 7.085618 -7.522799 0
M  V30 16 C 11.032958 7.636694 -8.593531 0
M  V30 17 C 10.717411 7.273441 -9.916469 0
M  V30 18 C 8.336738 4.780680 -11.768503 0
M  V30 19 H 5.859170 4.044055 -12.906326 0
M  V30 20 H 6.085216 3.379058 -11.287848 0
M  V30 21 H 4.941166 4.692937 -11.538695 0
M  V30 22 H 6.097830 7.139464 -12.246870 0
M  V30 23 H 6.915574 6.147208 -13.446644 0
M  V30 24 H 8.219954 7.927951 -11.424116 0
M  V30 25 H 8.632125 7.660209 -13.046862 0
M  V30 26 H 11.003199 7.918240 -12.679196 0
M  V30 27 H 12.803883 7.714919 -14.347078 0
M  V30 28 H 13.299116 5.507726 -15.376204 0
M  V30 29 H 12.048501 3.491196 -14.632416 0
M  V30 30 H 10.315329 3.661614 -12.934332 0
M  V30 31 H 8.157933 5.108763 -9.230006 0
M  V30 32 H 8.700460 5.772571 -6.971173 0
M  V30 33 H 10.540719 7.369632 -6.505868 0
M  V30 34 H 11.823438 8.348965 -8.403170 0
M  V30 35 H 11.299291 7.754533 -10.678316 0
M  V30 36 H 8.315305 4.357106 -12.773815 0
M  V30 37 H 8.621899 3.977061 -11.096307 0
M  V30 38 H 6.876707 5.607513 -10.615380 0
M  V30 END ATOM
M  V30 BEGIN BOND
M  V30 1 1 2 1
M  V30 2 1 3 2
M  V30 3 1 4 3
M  V30 4 1 5 4
M  V30 5 1 6 5
M  V30 6 2 7 6
M  V30 7 1 8 7
M  V30 8 2 9 8
M  V30 9 1 10 9
M  V30 10 1 11 6
M  V30 11 2 11 10
M  V30 12 1 12 5
M  V30 13 2 13 12
M  V30 14 1 14 13
M  V30 15 2 15 14
M  V30 16 1 16 15
M  V30 17 1 17 12
M  V30 18 2 17 16
M  V30 19 1 18 2
M  V30 20 1 18 5
M  V30 21 1 19 1
M  V30 22 1 20 1
M  V30 23 1 21 1
M  V30 24 1 22 3
M  V30 25 1 23 3
M  V30 26 1 24 4
M  V30 27 1 25 4
M  V30 28 1 26 7
M  V30 29 1 27 8
M  V30 30 1 28 9
M  V30 31 1 29 10
M  V30 32 1 30 11
M  V30 33 1 31 13
M  V30 34 1 32 14
M  V30 35 1 33 15
M  V30 36 1 34 16
M  V30 37 1 35 17
M  V30 38 1 36 18
M  V30 39 1 37 18
M  V30 40 1 2 38 CFG=1
M  V30 END BOND
M  V30 END CTAB
M  END
>  <b_m_subgroup_collapsed>  (2634) 
0

>  <r_i_docking_score>  (2634) 
-5.0611802310071399

>  <s_m_subgroup_title>  (2634) 
glide-dock_SP_D22_pv

>  <s_m_subgroupid>  (2634) 
glide-dock_SP_D22_pv

>  <Molecule ChEMBL ID>  (2634) 
CHEMBL5091479

>  <Standard Type>  (2634) 
Ki

>  <Standard Value>  (2634) 
100000.0

>  <label>  (2634) 
0

$$$$
CHEMBL4435946
     RDKit          3D

  0  0  0  0  0  0  0  0  0  0999 V3000
M  V30 BEGIN CTAB
M  V30 COUNTS 61 64 0 0 1
M  V30 BEGIN ATOM
M  V30 1 C 6.002975 6.944656 -12.833673 0
M  V30 2 C 7.522580 6.668607 -12.823353 0 CFG=1
M  V30 3 C 8.318556 7.849638 -12.209981 0
M  V30 4 O 9.707861 7.597610 -12.245538 0
M  V30 5 C 10.075960 6.419706 -11.557372 0 CFG=1
M  V30 6 C 9.988794 6.579577 -10.041085 0
M  V30 7 C 9.058293 5.888436 -9.232579 0
M  V30 8 C 9.084060 6.090048 -7.842894 0
M  V30 9 C 10.047962 6.958833 -7.307250 0
M  V30 10 N 10.132892 7.139420 -5.934765 0
M  V30 11 N 10.939528 7.629176 -8.059725 0
M  V30 12 C 10.896166 7.446915 -9.396003 0
M  V30 13 C 9.345201 5.199300 -12.151623 0
M  V30 14 N 7.867146 5.363101 -12.192376 0 CFG=2 CHG=1
M  V30 15 C 7.241002 4.184523 -12.866254 0
M  V30 16 C 5.994174 3.634548 -12.145487 0
M  V30 17 C 5.255828 2.543725 -12.956278 0
M  V30 18 C 5.762313 1.095845 -12.780268 0
M  V30 19 O 4.976465 0.169307 -13.520985 0
M  V30 20 C 5.291765 -0.071728 -14.844942 0
M  V30 21 C 6.342955 0.571649 -15.554574 0
M  V30 22 C 6.557815 0.308503 -16.920296 0
M  V30 23 C 5.732401 -0.607009 -17.595705 0
M  V30 24 C 4.704057 -1.275736 -16.895990 0
M  V30 25 C 4.489328 -1.008761 -15.529343 0
M  V30 26 N 3.901162 -2.230018 -17.567497 0
M  V30 27 C 3.877310 -2.388811 -18.900993 0
M  V30 28 O 3.285942 -3.318427 -19.444481 0
M  V30 29 C 4.631247 -1.354043 -19.745743 0
M  V30 30 C 5.943863 -0.917042 -19.067324 0
M  V30 31 H 5.784519 7.937618 -13.227337 0
M  V30 32 H 5.454374 6.232131 -13.447469 0
M  V30 33 H 5.556261 6.882508 -11.847462 0
M  V30 34 H 7.873429 6.589163 -13.846451 0
M  V30 35 H 8.086756 8.063069 -11.179636 0
M  V30 36 H 8.120176 8.767880 -12.763337 0
M  V30 37 H 11.122236 6.314252 -11.837819 0
M  V30 38 H 8.328187 5.208975 -9.642556 0
M  V30 39 H 8.372642 5.583502 -7.206897 0
M  V30 40 H 9.431217 6.757428 -5.319392 0
M  V30 41 H 10.755565 7.834352 -5.552958 0
M  V30 42 H 11.625542 7.999193 -9.969971 0
M  V30 43 H 9.700067 5.055313 -13.174010 0
M  V30 44 H 9.619049 4.296310 -11.601938 0
M  V30 45 H 7.004441 4.434515 -13.901242 0
M  V30 46 H 7.964989 3.374179 -12.932527 0
M  V30 47 H 6.255126 3.271782 -11.152499 0
M  V30 48 H 5.293688 4.450068 -11.971420 0
M  V30 49 H 4.203762 2.557155 -12.670746 0
M  V30 50 H 5.285247 2.817416 -14.008684 0
M  V30 51 H 6.811211 0.974809 -13.046724 0
M  V30 52 H 5.682186 0.814525 -11.730227 0
M  V30 53 H 6.990042 1.300709 -15.094836 0
M  V30 54 H 7.355501 0.812764 -17.445328 0
M  V30 55 H 3.692729 -1.514606 -15.003446 0
M  V30 56 H 3.367751 -2.897448 -17.009928 0
M  V30 57 H 4.825706 -1.748700 -20.744284 0
M  V30 58 H 3.973034 -0.493344 -19.869543 0
M  V30 59 H 6.349862 -0.039722 -19.573090 0
M  V30 60 H 6.689038 -1.708666 -19.149397 0
M  V30 61 H 7.528772 5.405176 -11.239441 0
M  V30 END ATOM
M  V30 BEGIN BOND
M  V30 1 1 2 1
M  V30 2 1 3 2
M  V30 3 1 4 3
M  V30 4 1 5 4
M  V30 5 1 6 5
M  V30 6 1 7 6
M  V30 7 2 8 7
M  V30 8 1 9 8
M  V30 9 1 10 9
M  V30 10 2 11 9
M  V30 11 2 12 6
M  V30 12 1 12 11
M  V30 13 1 13 5
M  V30 14 1 14 2
M  V30 15 1 14 13
M  V30 16 1 15 14
M  V30 17 1 16 15
M  V30 18 1 17 16
M  V30 19 1 18 17
M  V30 20 1 19 18
M  V30 21 1 20 19
M  V30 22 1 21 20
M  V30 23 2 22 21
M  V30 24 1 23 22
M  V30 25 2 24 23
M  V30 26 2 25 20
M  V30 27 1 25 24
M  V30 28 1 26 24
M  V30 29 1 27 26
M  V30 30 2 28 27
M  V30 31 1 29 27
M  V30 32 1 30 23
M  V30 33 1 30 29
M  V30 34 1 31 1
M  V30 35 1 32 1
M  V30 36 1 33 1
M  V30 37 1 2 34 CFG=3
M  V30 38 1 35 3
M  V30 39 1 36 3
M  V30 40 1 5 37 CFG=1
M  V30 41 1 38 7
M  V30 42 1 39 8
M  V30 43 1 40 10
M  V30 44 1 41 10
M  V30 45 1 42 12
M  V30 46 1 43 13
M  V30 47 1 44 13
M  V30 48 1 45 15
M  V30 49 1 46 15
M  V30 50 1 47 16
M  V30 51 1 48 16
M  V30 52 1 49 17
M  V30 53 1 50 17
M  V30 54 1 51 18
M  V30 55 1 52 18
M  V30 56 1 53 21
M  V30 57 1 54 22
M  V30 58 1 55 25
M  V30 59 1 56 26
M  V30 60 1 57 29
M  V30 61 1 58 29
M  V30 62 1 59 30
M  V30 63 1 60 30
M  V30 64 1 14 61 CFG=1
M  V30 END BOND
M  V30 END CTAB
M  END
>  <b_m_subgroup_collapsed>  (2635) 
0

>  <r_i_docking_score>  (2635) 
-5.0592473601519101

>  <s_m_subgroup_title>  (2635) 
glide-dock_SP_D22_pv

>  <s_m_subgroupid>  (2635) 
glide-dock_SP_D22_pv

>  <Molecule ChEMBL ID>  (2635) 
CHEMBL4435946

>  <Standard Type>  (2635) 
Ki

>  <Standard Value>  (2635) 
34.6

>  <label>  (2635) 
1

$$$$
CHEMBL1644980
     RDKit          3D

  0  0  0  0  0  0  0  0  0  0999 V3000
M  V30 BEGIN CTAB
M  V30 COUNTS 64 67 0 0 1
M  V30 BEGIN ATOM
M  V30 1 O 4.124872 -4.677914 -19.116096 0
M  V30 2 C 4.652392 -3.408527 -18.782379 0 CFG=1
M  V30 3 C 5.470453 -2.842600 -19.957933 0
M  V30 4 C 4.867944 -2.785581 -21.235910 0
M  V30 5 C 5.537438 -2.219753 -22.332354 0
M  V30 6 C 6.832155 -1.696833 -22.179676 0
M  V30 7 Cl 7.598231 -0.977162 -23.553101 0
M  V30 8 C 7.472301 -1.768705 -20.918800 0
M  V30 9 C 8.874845 -1.205034 -20.731522 0
M  V30 10 F 9.338115 -1.425003 -19.499680 0
M  V30 11 F 9.709803 -1.778046 -21.597828 0
M  V30 12 F 8.867037 0.112527 -20.938276 0
M  V30 13 C 6.790418 -2.351855 -19.823385 0
M  V30 14 C 3.437248 -2.507087 -18.490177 0
M  V30 15 C 3.810696 -1.215404 -17.760830 0
M  V30 16 N 4.479157 -1.499665 -16.466326 0 CFG=2 CHG=1
M  V30 17 C 4.750330 -0.228201 -15.739140 0
M  V30 18 C 5.639521 -0.347700 -14.479156 0
M  V30 19 C 5.925439 1.002884 -13.782810 0
M  V30 20 C 6.739729 2.051594 -14.595961 0
M  V30 21 C 7.915963 1.429772 -15.347906 0
M  V30 22 C 8.936526 0.752751 -14.647822 0
M  V30 23 C 10.042757 0.220616 -15.337760 0
M  V30 24 C 10.118123 0.325839 -16.738220 0
M  V30 25 C 9.093424 0.980498 -17.448208 0
M  V30 26 C 7.997969 1.531808 -16.755604 0
M  V30 27 C 7.090725 3.316219 -13.797658 0
M  V30 28 C 6.088298 3.964707 -13.038370 0
M  V30 29 C 6.389360 5.118450 -12.288137 0
M  V30 30 C 7.690535 5.653855 -12.300740 0
M  V30 31 C 8.690486 5.034907 -13.072046 0
M  V30 32 C 8.393280 3.877065 -13.816920 0
M  V30 33 C 5.685355 -2.347584 -16.642120 0
M  V30 34 C 5.438320 -3.626369 -17.466267 0
M  V30 35 H 3.589451 -4.980045 -18.390659 0
M  V30 36 H 3.863278 -3.162276 -21.377077 0
M  V30 37 H 5.045221 -2.171951 -23.293591 0
M  V30 38 H 7.304435 -2.415631 -18.880407 0
M  V30 39 H 2.898781 -2.274243 -19.406496 0
M  V30 40 H 2.727541 -3.027863 -17.857279 0
M  V30 41 H 4.455248 -0.602851 -18.395300 0
M  V30 42 H 2.901553 -0.640050 -17.577650 0
M  V30 43 H 5.215008 0.470746 -16.434973 0
M  V30 44 H 3.782537 0.179181 -15.451364 0
M  V30 45 H 5.156504 -1.019430 -13.769292 0
M  V30 46 H 6.599877 -0.806981 -14.712485 0
M  V30 47 H 4.979671 1.429308 -13.446104 0
M  V30 48 H 6.480927 0.774120 -12.874851 0
M  V30 49 H 6.087308 2.442159 -15.367282 0
M  V30 50 H 8.885006 0.665798 -13.573158 0
M  V30 51 H 10.841363 -0.253141 -14.787682 0
M  V30 52 H 10.964677 -0.085715 -17.270567 0
M  V30 53 H 9.155634 1.070201 -18.522177 0
M  V30 54 H 7.227201 2.046497 -17.309519 0
M  V30 55 H 5.078056 3.585784 -13.013355 0
M  V30 56 H 5.625229 5.602570 -11.695220 0
M  V30 57 H 7.910118 6.540229 -11.721057 0
M  V30 58 H 9.688013 5.446536 -13.085732 0
M  V30 59 H 9.190826 3.438757 -14.394805 0
M  V30 60 H 6.489100 -1.740109 -17.053963 0
M  V30 61 H 6.002066 -2.679621 -15.654682 0
M  V30 62 H 4.886448 -4.303197 -16.819902 0
M  V30 63 H 6.376221 -4.149297 -17.656466 0
M  V30 64 H 3.826730 -2.047990 -15.917274 0
M  V30 END ATOM
M  V30 BEGIN BOND
M  V30 1 1 2 1 CFG=3
M  V30 2 1 3 2
M  V30 3 1 4 3
M  V30 4 2 5 4
M  V30 5 1 6 5
M  V30 6 1 7 6
M  V30 7 2 8 6
M  V30 8 1 9 8
M  V30 9 1 10 9
M  V30 10 1 11 9
M  V30 11 1 12 9
M  V30 12 2 13 3
M  V30 13 1 13 8
M  V30 14 1 14 2
M  V30 15 1 15 14
M  V30 16 1 16 15
M  V30 17 1 17 16
M  V30 18 1 18 17
M  V30 19 1 19 18
M  V30 20 1 20 19
M  V30 21 1 21 20
M  V30 22 2 22 21
M  V30 23 1 23 22
M  V30 24 2 24 23
M  V30 25 1 25 24
M  V30 26 1 26 21
M  V30 27 2 26 25
M  V30 28 1 27 20
M  V30 29 2 28 27
M  V30 30 1 29 28
M  V30 31 2 30 29
M  V30 32 1 31 30
M  V30 33 1 32 27
M  V30 34 2 32 31
M  V30 35 1 33 16
M  V30 36 1 34 2
M  V30 37 1 34 33
M  V30 38 1 35 1
M  V30 39 1 36 4
M  V30 40 1 37 5
M  V30 41 1 38 13
M  V30 42 1 39 14
M  V30 43 1 40 14
M  V30 44 1 41 15
M  V30 45 1 42 15
M  V30 46 1 43 17
M  V30 47 1 44 17
M  V30 48 1 45 18
M  V30 49 1 46 18
M  V30 50 1 47 19
M  V30 51 1 48 19
M  V30 52 1 49 20
M  V30 53 1 50 22
M  V30 54 1 51 23
M  V30 55 1 52 24
M  V30 56 1 53 25
M  V30 57 1 54 26
M  V30 58 1 55 28
M  V30 59 1 56 29
M  V30 60 1 57 30
M  V30 61 1 58 31
M  V30 62 1 59 32
M  V30 63 1 60 33
M  V30 64 1 61 33
M  V30 65 1 62 34
M  V30 66 1 63 34
M  V30 67 1 16 64 CFG=1
M  V30 END BOND
M  V30 END CTAB
M  END
>  <b_m_subgroup_collapsed>  (2636) 
0

>  <r_i_docking_score>  (2636) 
-5.0588971093936301

>  <s_m_subgroup_title>  (2636) 
glide-dock_SP_D22_pv

>  <s_m_subgroupid>  (2636) 
glide-dock_SP_D22_pv

>  <Molecule ChEMBL ID>  (2636) 
CHEMBL1644980

>  <Standard Type>  (2636) 
Ki

>  <Standard Value>  (2636) 
38.0

>  <label>  (2636) 
1

$$$$
CHEMBL5990865
     RDKit          3D

  0  0  0  0  0  0  0  0  0  0999 V3000
M  V30 BEGIN CTAB
M  V30 COUNTS 64 67 0 0 1
M  V30 BEGIN ATOM
M  V30 1 C 12.129287 7.646876 -3.604805 0
M  V30 2 C 11.857272 9.058260 -4.144900 0
M  V30 3 F 12.968911 9.772410 -3.983500 0
M  V30 4 F 10.886113 9.633065 -3.442524 0
M  V30 5 C 11.476178 9.090686 -5.631299 0
M  V30 6 O 10.485283 8.102323 -5.887244 0
M  V30 7 C 10.219646 7.816734 -7.178814 0
M  V30 8 N 9.652818 6.686427 -7.611266 0
M  V30 9 C 9.508070 6.702610 -9.000724 0
M  V30 10 C 9.959130 7.841060 -9.602396 0
M  V30 11 S 10.620412 8.972142 -8.465309 0
M  V30 12 C 9.921368 8.019506 -11.076304 0
M  V30 13 C 9.918330 6.653738 -11.790578 0
M  V30 14 N 8.877484 5.753105 -11.271154 0
M  V30 15 C 8.848828 4.447518 -11.936502 0
M  V30 16 C 8.909035 4.516492 -13.476078 0
M  V30 17 C 8.896143 3.129196 -14.132071 0 CFG=1
M  V30 18 C 7.466693 2.632400 -14.408800 0
M  V30 19 C 7.486368 1.224059 -15.040488 0
M  V30 20 C 8.377635 1.157950 -16.298735 0 CFG=2
M  V30 21 N 8.506635 -0.226929 -16.754396 0
M  V30 22 S 8.576295 -0.606143 -18.432720 0
M  V30 23 O 8.827209 -2.049371 -18.541029 0
M  V30 24 O 9.475986 0.360753 -19.077681 0
M  V30 25 C 6.902130 -0.299148 -18.981627 0
M  V30 26 C 5.808655 -0.750365 -18.214172 0
M  V30 27 C 4.496688 -0.476755 -18.650869 0
M  V30 28 C 4.289303 0.242333 -19.844969 0
M  V30 29 C 5.387680 0.686286 -20.606886 0
M  V30 30 F 5.186635 1.372157 -21.756248 0
M  V30 31 C 6.697545 0.421804 -20.173746 0
M  V30 32 C 9.783836 1.717703 -16.033073 0
M  V30 33 C 9.717483 3.125232 -15.435595 0
M  V30 34 C 9.040869 5.538093 -9.819873 0
M  V30 35 H 12.461783 7.679056 -2.567004 0
M  V30 36 H 11.244702 7.013682 -3.648977 0
M  V30 37 H 12.898360 7.151868 -4.191288 0
M  V30 38 H 12.366321 8.900044 -6.233510 0
M  V30 39 H 11.109150 10.085154 -5.895170 0
M  V30 40 H 9.028891 8.585195 -11.350575 0
M  V30 41 H 10.784414 8.581477 -11.425406 0
M  V30 42 H 10.886797 6.172450 -11.697433 0
M  V30 43 H 9.762813 6.854680 -12.845457 0
M  V30 44 H 7.943099 3.928324 -11.626464 0
M  V30 45 H 9.689533 3.838685 -11.596328 0
M  V30 46 H 9.841685 4.991235 -13.775260 0
M  V30 47 H 8.108241 5.144247 -13.868475 0
M  V30 48 H 9.377452 2.427591 -13.447400 0
M  V30 49 H 6.896955 2.599069 -13.478530 0
M  V30 50 H 6.955996 3.359999 -15.046051 0
M  V30 51 H 6.470684 0.911589 -15.286780 0
M  V30 52 H 7.852510 0.511460 -14.296613 0
M  V30 53 H 7.905035 1.746192 -17.089083 0
M  V30 54 H 8.016541 -0.926995 -16.191607 0
M  V30 55 H 5.968816 -1.304712 -17.300951 0
M  V30 56 H 3.648267 -0.818820 -18.073185 0
M  V30 57 H 3.286348 0.454193 -20.182425 0
M  V30 58 H 7.537508 0.768273 -20.759516 0
M  V30 59 H 10.320808 1.057758 -15.347805 0
M  V30 60 H 10.363667 1.738721 -16.956095 0
M  V30 61 H 10.733284 3.472325 -15.248267 0
M  V30 62 H 9.277775 3.816256 -16.156595 0
M  V30 63 H 8.088378 5.175054 -9.429955 0
M  V30 64 H 9.753595 4.729454 -9.655287 0
M  V30 END ATOM
M  V30 BEGIN BOND
M  V30 1 1 2 1
M  V30 2 1 3 2
M  V30 3 1 4 2
M  V30 4 1 5 2
M  V30 5 1 6 5
M  V30 6 1 7 6
M  V30 7 2 8 7
M  V30 8 1 9 8
M  V30 9 2 10 9
M  V30 10 1 11 7
M  V30 11 1 11 10
M  V30 12 1 12 10
M  V30 13 1 13 12
M  V30 14 1 14 13
M  V30 15 1 15 14
M  V30 16 1 16 15
M  V30 17 1 17 16
M  V30 18 1 18 17
M  V30 19 1 19 18
M  V30 20 1 20 19
M  V30 21 1 21 20
M  V30 22 1 22 21
M  V30 23 2 23 22
M  V30 24 2 24 22
M  V30 25 1 25 22
M  V30 26 2 26 25
M  V30 27 1 27 26
M  V30 28 2 28 27
M  V30 29 1 29 28
M  V30 30 1 30 29
M  V30 31 1 31 25
M  V30 32 2 31 29
M  V30 33 1 32 20
M  V30 34 1 33 17
M  V30 35 1 33 32
M  V30 36 1 34 9
M  V30 37 1 34 14
M  V30 38 1 35 1
M  V30 39 1 36 1
M  V30 40 1 37 1
M  V30 41 1 38 5
M  V30 42 1 39 5
M  V30 43 1 40 12
M  V30 44 1 41 12
M  V30 45 1 42 13
M  V30 46 1 43 13
M  V30 47 1 44 15
M  V30 48 1 45 15
M  V30 49 1 46 16
M  V30 50 1 47 16
M  V30 51 1 17 48 CFG=1
M  V30 52 1 49 18
M  V30 53 1 50 18
M  V30 54 1 51 19
M  V30 55 1 52 19
M  V30 56 1 20 53 CFG=3
M  V30 57 1 54 21
M  V30 58 1 55 26
M  V30 59 1 56 27
M  V30 60 1 57 28
M  V30 61 1 58 31
M  V30 62 1 59 32
M  V30 63 1 60 32
M  V30 64 1 61 33
M  V30 65 1 62 33
M  V30 66 1 63 34
M  V30 67 1 64 34
M  V30 END BOND
M  V30 END CTAB
M  END
>  <b_m_subgroup_collapsed>  (2637) 
0

>  <r_i_docking_score>  (2637) 
-5.0562802444658503

>  <s_m_subgroup_title>  (2637) 
glide-dock_SP_D22_pv

>  <s_m_subgroupid>  (2637) 
glide-dock_SP_D22_pv

>  <Molecule ChEMBL ID>  (2637) 
CHEMBL5990865

>  <Standard Type>  (2637) 
Ki

>  <Standard Value>  (2637) 
79.0

>  <label>  (2637) 
1

$$$$
CHEMBL5273758
     RDKit          3D

  0  0  0  0  0  0  0  0  0  0999 V3000
M  V30 BEGIN CTAB
M  V30 COUNTS 43 46 0 0 1
M  V30 BEGIN ATOM
M  V30 1 C 7.633100 2.292104 -15.264993 0
M  V30 2 N 8.689267 2.071952 -14.247838 0 CFG=1 CHG=1
M  V30 3 C 9.819809 1.242987 -14.785006 0
M  V30 4 C 10.878446 2.047384 -15.596539 0
M  V30 5 C 11.363001 3.244344 -14.761867 0 CFG=1
M  V30 6 C 12.415797 4.172432 -15.337209 0
M  V30 7 C 12.498716 5.463667 -14.944609 0
M  V30 8 O 13.458478 6.236866 -15.468017 0
M  V30 9 C 11.528227 6.025640 -13.997278 0
M  V30 10 O 11.787410 7.193505 -13.399411 0
M  V30 11 C 10.379601 5.350804 -13.759951 0
M  V30 12 C 9.128442 5.685025 -12.939210 0 CFG=2
M  V30 13 C 9.362764 6.124099 -11.491607 0
M  V30 14 C 9.291122 5.219486 -10.407907 0
M  V30 15 C 9.458353 5.670414 -9.081717 0
M  V30 16 C 9.704244 7.033942 -8.827805 0
M  V30 17 C 9.782680 7.942940 -9.897741 0
M  V30 18 C 9.609651 7.489812 -11.220613 0
M  V30 19 C 8.214454 4.420420 -13.106503 0
M  V30 20 C 9.183318 3.299445 -13.549667 0 CFG=2
M  V30 21 C 10.119733 4.053857 -14.448311 0 CFG=2
M  V30 22 H 8.013635 2.878172 -16.104202 0
M  V30 23 H 6.765503 2.798728 -14.844220 0
M  V30 24 H 7.276919 1.342027 -15.660872 0
M  V30 25 H 10.323201 0.776930 -13.940992 0
M  V30 26 H 9.433203 0.414869 -15.383968 0
M  V30 27 H 11.715012 1.401145 -15.854149 0
M  V30 28 H 10.454844 2.387192 -16.542109 0
M  V30 29 H 11.799103 2.855030 -13.845127 0
M  V30 30 H 13.130365 3.761048 -16.035355 0
M  V30 31 H 13.257062 7.136178 -15.257801 0
M  V30 32 H 12.722282 7.328623 -13.442875 0
M  V30 33 H 8.613724 6.508164 -13.434530 0
M  V30 34 H 9.111098 4.173154 -10.573492 0
M  V30 35 H 9.390459 4.974354 -8.259687 0
M  V30 36 H 9.821915 7.382316 -7.810383 0
M  V30 37 H 9.958795 8.992304 -9.705373 0
M  V30 38 H 9.654408 8.203587 -12.030174 0
M  V30 39 H 7.618720 4.168822 -12.227937 0
M  V30 40 H 7.502831 4.643155 -13.899418 0
M  V30 41 H 9.725835 2.971891 -12.662604 0
M  V30 42 H 9.613768 4.331227 -15.378116 0
M  V30 43 H 8.251031 1.504590 -13.534958 0
M  V30 END ATOM
M  V30 BEGIN BOND
M  V30 1 1 2 1
M  V30 2 1 3 2
M  V30 3 1 4 3
M  V30 4 1 5 4
M  V30 5 1 6 5
M  V30 6 2 7 6
M  V30 7 1 8 7
M  V30 8 1 9 7
M  V30 9 1 10 9
M  V30 10 2 11 9
M  V30 11 1 12 11
M  V30 12 1 13 12
M  V30 13 2 14 13
M  V30 14 1 15 14
M  V30 15 2 16 15
M  V30 16 1 17 16
M  V30 17 1 18 13
M  V30 18 2 18 17
M  V30 19 1 19 12
M  V30 20 1 20 2
M  V30 21 1 20 19
M  V30 22 1 21 5
M  V30 23 1 21 11
M  V30 24 1 21 20
M  V30 25 1 22 1
M  V30 26 1 23 1
M  V30 27 1 24 1
M  V30 28 1 25 3
M  V30 29 1 26 3
M  V30 30 1 27 4
M  V30 31 1 28 4
M  V30 32 1 5 29 CFG=1
M  V30 33 1 30 6
M  V30 34 1 31 8
M  V30 35 1 32 10
M  V30 36 1 12 33 CFG=3
M  V30 37 1 34 14
M  V30 38 1 35 15
M  V30 39 1 36 16
M  V30 40 1 37 17
M  V30 41 1 38 18
M  V30 42 1 39 19
M  V30 43 1 40 19
M  V30 44 1 20 41 CFG=1
M  V30 45 1 21 42 CFG=3
M  V30 46 1 2 43 CFG=1
M  V30 END BOND
M  V30 END CTAB
M  END
>  <b_m_subgroup_collapsed>  (2638) 
0

>  <r_i_docking_score>  (2638) 
-5.0559240163379702

>  <s_m_subgroup_title>  (2638) 
glide-dock_SP_D22_pv

>  <s_m_subgroupid>  (2638) 
glide-dock_SP_D22_pv

>  <Molecule ChEMBL ID>  (2638) 
CHEMBL5273758

>  <Standard Type>  (2638) 
Ki

>  <Standard Value>  (2638) 
12.88

>  <label>  (2638) 
1

$$$$
CHEMBL346331
     RDKit          3D

  0  0  0  0  0  0  0  0  0  0999 V3000
M  V30 BEGIN CTAB
M  V30 COUNTS 48 49 0 0 1
M  V30 BEGIN ATOM
M  V30 1 C 5.938299 7.958441 -12.887037 0
M  V30 2 C 6.402679 6.529521 -12.643125 0
M  V30 3 C 7.925702 6.398035 -12.521313 0
M  V30 4 O 8.584744 7.405723 -12.247182 0
M  V30 5 C 8.657854 5.022774 -12.639255 0
M  V30 6 C 9.165354 4.625818 -11.203405 0
M  V30 7 C 9.736256 5.661682 -10.185638 0
M  V30 8 N 8.751017 6.246399 -9.241612 0 CHG=1
M  V30 9 C 8.447929 5.348313 -8.103639 0
M  V30 10 C 9.178428 7.581776 -8.761600 0
M  V30 11 C 7.763870 3.802682 -13.080552 0
M  V30 12 C 6.438489 3.592496 -12.600819 0
M  V30 13 C 5.659163 2.492412 -13.002830 0
M  V30 14 C 6.199532 1.513326 -13.847396 0
M  V30 15 C 7.535430 1.631716 -14.262657 0
M  V30 16 C 8.307576 2.740738 -13.860038 0
M  V30 17 C 9.817396 5.277936 -13.669433 0
M  V30 18 C 9.625464 5.043892 -15.059934 0
M  V30 19 C 10.641802 5.256437 -16.010180 0
M  V30 20 C 11.885892 5.758924 -15.603724 0
M  V30 21 C 12.087868 6.065226 -14.250670 0
M  V30 22 C 11.072451 5.832938 -13.305478 0
M  V30 23 H 4.885500 8.074991 -12.662337 0
M  V30 24 H 6.450277 8.686784 -12.251178 0
M  V30 25 H 6.086333 8.172799 -13.938778 0
M  V30 26 H 6.012869 5.891737 -13.436138 0
M  V30 27 H 5.963315 6.205727 -11.702163 0
M  V30 28 H 8.323436 4.172508 -10.682992 0
M  V30 29 H 9.890696 3.819101 -11.326264 0
M  V30 30 H 10.485981 5.166606 -9.574059 0
M  V30 31 H 10.259618 6.479406 -10.666868 0
M  V30 32 H 9.338913 5.190021 -7.494760 0
M  V30 33 H 7.685770 5.777840 -7.455605 0
M  V30 34 H 8.087246 4.376995 -8.441371 0
M  V30 35 H 10.166343 7.536638 -8.299030 0
M  V30 36 H 9.215456 8.290017 -9.591125 0
M  V30 37 H 8.485248 7.980127 -8.021448 0
M  V30 38 H 5.990585 4.230019 -11.862090 0
M  V30 39 H 4.648978 2.383018 -12.631068 0
M  V30 40 H 5.607548 0.658644 -14.143811 0
M  V30 41 H 7.980727 0.856623 -14.868316 0
M  V30 42 H 9.347568 2.732704 -14.149874 0
M  V30 43 H 8.672034 4.709679 -15.427824 0
M  V30 44 H 10.459078 5.050372 -17.055479 0
M  V30 45 H 12.666690 5.939095 -16.326048 0
M  V30 46 H 13.025868 6.496300 -13.934523 0
M  V30 47 H 11.294464 6.157353 -12.310735 0
M  V30 48 H 7.883651 6.427807 -9.742461 0
M  V30 END ATOM
M  V30 BEGIN BOND
M  V30 1 1 2 1
M  V30 2 1 3 2
M  V30 3 2 4 3
M  V30 4 1 5 3
M  V30 5 1 6 5
M  V30 6 1 7 6
M  V30 7 1 8 7
M  V30 8 1 9 8
M  V30 9 1 10 8
M  V30 10 1 11 5
M  V30 11 2 12 11
M  V30 12 1 13 12
M  V30 13 2 14 13
M  V30 14 1 15 14
M  V30 15 1 16 11
M  V30 16 2 16 15
M  V30 17 1 17 5
M  V30 18 2 18 17
M  V30 19 1 19 18
M  V30 20 2 20 19
M  V30 21 1 21 20
M  V30 22 1 22 17
M  V30 23 2 22 21
M  V30 24 1 23 1
M  V30 25 1 24 1
M  V30 26 1 25 1
M  V30 27 1 26 2
M  V30 28 1 27 2
M  V30 29 1 28 6
M  V30 30 1 29 6
M  V30 31 1 30 7
M  V30 32 1 31 7
M  V30 33 1 32 9
M  V30 34 1 33 9
M  V30 35 1 34 9
M  V30 36 1 35 10
M  V30 37 1 36 10
M  V30 38 1 37 10
M  V30 39 1 38 12
M  V30 40 1 39 13
M  V30 41 1 40 14
M  V30 42 1 41 15
M  V30 43 1 42 16
M  V30 44 1 43 18
M  V30 45 1 44 19
M  V30 46 1 45 20
M  V30 47 1 46 21
M  V30 48 1 47 22
M  V30 49 1 48 8
M  V30 END BOND
M  V30 END CTAB
M  END
>  <b_m_subgroup_collapsed>  (2639) 
0

>  <r_i_docking_score>  (2639) 
-5.0520875494425299

>  <s_m_subgroup_title>  (2639) 
glide-dock_SP_D22_pv

>  <s_m_subgroupid>  (2639) 
glide-dock_SP_D22_pv

>  <Molecule ChEMBL ID>  (2639) 
CHEMBL346331

>  <Standard Type>  (2639) 
Ki

>  <Standard Value>  (2639) 
34900.0

>  <label>  (2639) 
0

$$$$
CHEMBL201177
     RDKit          3D

  0  0  0  0  0  0  0  0  0  0999 V3000
M  V30 BEGIN CTAB
M  V30 COUNTS 48 51 0 0 1
M  V30 BEGIN ATOM
M  V30 1 C 11.071035 3.635794 -18.190763 0
M  V30 2 N 10.921666 2.837890 -16.952950 0 CFG=1 CHG=1
M  V30 3 C 11.577238 1.509493 -17.043682 0
M  V30 4 C 10.555248 0.374032 -17.179346 0
M  V30 5 C 9.588986 0.194154 -15.988028 0
M  V30 6 C 8.331693 1.102549 -16.021151 0 CFG=1
M  V30 7 C 7.053669 0.253309 -16.000502 0
M  V30 8 C 6.528342 -0.239677 -14.783967 0
M  V30 9 C 5.361413 -1.028049 -14.777603 0
M  V30 10 C 4.711239 -1.340868 -15.985520 0
M  V30 11 C 5.230429 -0.860978 -17.201086 0
M  V30 12 C 6.394214 -0.067617 -17.208086 0
M  V30 13 C 8.285838 2.234352 -15.009945 0
M  V30 14 N 7.043378 2.728947 -14.637211 0
M  V30 15 C 7.146402 3.758385 -13.736001 0
M  V30 16 C 6.176755 4.538230 -13.084471 0
M  V30 17 C 6.597128 5.558372 -12.218143 0
M  V30 18 C 7.970587 5.772140 -11.997378 0
M  V30 19 C 8.932899 4.978675 -12.655922 0
M  V30 20 C 8.541964 3.950326 -13.546711 0
M  V30 21 C 9.248371 2.996523 -14.367626 0
M  V30 22 C 10.749601 2.944754 -14.453632 0
M  V30 23 C 11.299366 3.592225 -15.735360 0
M  V30 24 H 12.113563 3.916032 -18.348593 0
M  V30 25 H 10.474433 4.547662 -18.138405 0
M  V30 26 H 10.733943 3.066035 -19.058208 0
M  V30 27 H 12.261683 1.481520 -17.892750 0
M  V30 28 H 12.205236 1.321988 -16.177017 0
M  V30 29 H 9.992071 0.476013 -18.107952 0
M  V30 30 H 11.122455 -0.549982 -17.291880 0
M  V30 31 H 9.255733 -0.838518 -16.066128 0
M  V30 32 H 10.090235 0.209517 -15.023302 0
M  V30 33 H 8.317317 1.589654 -16.996347 0
M  V30 34 H 7.025275 -0.021633 -13.850119 0
M  V30 35 H 4.973395 -1.413876 -13.847360 0
M  V30 36 H 3.829927 -1.966497 -15.980131 0
M  V30 37 H 4.739111 -1.115067 -18.128513 0
M  V30 38 H 6.785429 0.279319 -18.152601 0
M  V30 39 H 6.179812 2.330422 -14.980661 0
M  V30 40 H 5.124972 4.362856 -13.255820 0
M  V30 41 H 5.870517 6.172734 -11.705140 0
M  V30 42 H 8.273462 6.553709 -11.315336 0
M  V30 43 H 9.980208 5.161206 -12.469560 0
M  V30 44 H 11.171408 3.496400 -13.615541 0
M  V30 45 H 11.126034 1.934914 -14.309982 0
M  V30 46 H 12.385131 3.682815 -15.681316 0
M  V30 47 H 10.903131 4.607165 -15.798266 0
M  V30 48 H 9.933296 2.659037 -16.847984 0
M  V30 END ATOM
M  V30 BEGIN BOND
M  V30 1 1 2 1
M  V30 2 1 3 2
M  V30 3 1 4 3
M  V30 4 1 5 4
M  V30 5 1 6 5
M  V30 6 1 7 6
M  V30 7 2 8 7
M  V30 8 1 9 8
M  V30 9 2 10 9
M  V30 10 1 11 10
M  V30 11 1 12 7
M  V30 12 2 12 11
M  V30 13 1 13 6
M  V30 14 1 14 13
M  V30 15 1 15 14
M  V30 16 2 16 15
M  V30 17 1 17 16
M  V30 18 2 18 17
M  V30 19 1 19 18
M  V30 20 1 20 15
M  V30 21 2 20 19
M  V30 22 2 21 13
M  V30 23 1 21 20
M  V30 24 1 22 21
M  V30 25 1 23 2
M  V30 26 1 23 22
M  V30 27 1 24 1
M  V30 28 1 25 1
M  V30 29 1 26 1
M  V30 30 1 27 3
M  V30 31 1 28 3
M  V30 32 1 29 4
M  V30 33 1 30 4
M  V30 34 1 31 5
M  V30 35 1 32 5
M  V30 36 1 6 33 CFG=3
M  V30 37 1 34 8
M  V30 38 1 35 9
M  V30 39 1 36 10
M  V30 40 1 37 11
M  V30 41 1 38 12
M  V30 42 1 39 14
M  V30 43 1 40 16
M  V30 44 1 41 17
M  V30 45 1 42 18
M  V30 46 1 43 19
M  V30 47 1 44 22
M  V30 48 1 45 22
M  V30 49 1 46 23
M  V30 50 1 47 23
M  V30 51 1 2 48 CFG=1
M  V30 END BOND
M  V30 END CTAB
M  END
>  <b_m_subgroup_collapsed>  (2640) 
0

>  <r_i_docking_score>  (2640) 
-5.05127470507448

>  <s_m_subgroup_title>  (2640) 
glide-dock_SP_D22_pv

>  <s_m_subgroupid>  (2640) 
glide-dock_SP_D22_pv

>  <Molecule ChEMBL ID>  (2640) 
CHEMBL201177

>  <Standard Type>  (2640) 
Ki

>  <Standard Value>  (2640) 
10000.0

>  <label>  (2640) 
0

$$$$
CHEMBL3759205
     RDKit          3D

  0  0  0  0  0  0  0  0  0  0999 V3000
M  V30 BEGIN CTAB
M  V30 COUNTS 63 66 0 0 1
M  V30 BEGIN ATOM
M  V30 1 C 10.498869 2.348350 -14.780931 0
M  V30 2 C 9.448419 1.662912 -15.671102 0
M  V30 3 C 9.280106 2.388605 -17.015678 0
M  V30 4 C 8.118464 1.507959 -14.942687 0
M  V30 5 C 7.631146 0.227824 -14.631835 0
M  V30 6 C 6.418788 0.068066 -13.935174 0
M  V30 7 C 5.684926 1.202032 -13.536473 0
M  V30 8 C 6.159108 2.494184 -13.842829 0
M  V30 9 O 5.447199 3.589179 -13.408574 0
M  V30 10 C 5.951838 4.179196 -12.213226 0
M  V30 11 C 6.918828 5.326336 -12.572036 0
M  V30 12 N 7.685840 5.931147 -11.447633 0 CFG=2 CHG=1
M  V30 13 C 8.808383 6.758816 -11.931929 0 CFG=2
M  V30 14 C 9.938987 5.749462 -12.195822 0
M  V30 15 C 9.627715 4.580239 -11.242633 0
M  V30 16 C 8.354352 5.017340 -10.506503 0 CFG=1
M  V30 17 C 8.645357 5.810222 -9.215118 0
M  V30 18 C 9.430945 7.127561 -9.445311 0 CFG=1
M  V30 19 N 10.852676 6.895748 -9.219535 0
M  V30 20 S 11.863020 8.181593 -8.705766 0
M  V30 21 O 13.236197 7.782215 -9.046537 0
M  V30 22 O 11.285828 9.424272 -9.231113 0
M  V30 23 C 11.685330 8.189835 -6.921193 0
M  V30 24 C 11.284764 7.015062 -6.247393 0
M  V30 25 C 11.286013 6.980883 -4.840227 0
M  V30 26 C 11.686053 8.115803 -4.106842 0
M  V30 27 F 11.714125 8.071035 -2.754371 0
M  V30 28 C 12.025376 9.305012 -4.778270 0
M  V30 29 C 12.022548 9.349803 -6.187568 0
M  V30 30 C 9.224408 7.769223 -10.843668 0
M  V30 31 C 7.367562 2.634854 -14.559635 0
M  V30 32 H 10.636928 1.801691 -13.847342 0
M  V30 33 H 11.467281 2.395056 -15.280705 0
M  V30 34 H 10.206928 3.368127 -14.530920 0
M  V30 35 H 9.822140 0.662971 -15.896039 0
M  V30 36 H 8.564358 1.869259 -17.652796 0
M  V30 37 H 8.928762 3.410705 -16.884171 0
M  V30 38 H 10.225060 2.434559 -17.556345 0
M  V30 39 H 8.201081 -0.628899 -14.935615 0
M  V30 40 H 6.057563 -0.923473 -13.704180 0
M  V30 41 H 4.759575 1.085011 -12.994758 0
M  V30 42 H 5.119025 4.566259 -11.625836 0
M  V30 43 H 6.418862 3.398201 -11.612973 0
M  V30 44 H 7.631687 4.985023 -13.311868 0
M  V30 45 H 6.347798 6.125503 -13.045867 0
M  V30 46 H 8.529353 7.305166 -12.833676 0
M  V30 47 H 10.918770 6.191605 -12.033444 0
M  V30 48 H 9.914130 5.406111 -13.230514 0
M  V30 49 H 10.427338 4.360012 -10.539250 0
M  V30 50 H 9.443562 3.674847 -11.822685 0
M  V30 51 H 7.742993 4.172119 -10.216025 0
M  V30 52 H 7.686535 6.054745 -8.758887 0
M  V30 53 H 9.149767 5.178616 -8.483806 0
M  V30 54 H 9.104496 7.838785 -8.684564 0
M  V30 55 H 11.294217 6.342842 -9.951262 0
M  V30 56 H 11.019600 6.123297 -6.793676 0
M  V30 57 H 11.008509 6.076622 -4.319569 0
M  V30 58 H 12.307095 10.171289 -4.202430 0
M  V30 59 H 12.330850 10.251214 -6.691726 0
M  V30 60 H 10.121024 8.292761 -11.176957 0
M  V30 61 H 8.485589 8.558523 -10.765285 0
M  V30 62 H 7.744067 3.607361 -14.815155 0
M  V30 63 H 7.049261 6.536748 -10.920065 0
M  V30 END ATOM
M  V30 BEGIN BOND
M  V30 1 1 2 1
M  V30 2 1 3 2
M  V30 3 1 4 2
M  V30 4 2 5 4
M  V30 5 1 6 5
M  V30 6 2 7 6
M  V30 7 1 8 7
M  V30 8 1 9 8
M  V30 9 1 10 9
M  V30 10 1 11 10
M  V30 11 1 12 11
M  V30 12 1 13 12
M  V30 13 1 14 13
M  V30 14 1 15 14
M  V30 15 1 16 12
M  V30 16 1 16 15
M  V30 17 1 17 16
M  V30 18 1 18 17
M  V30 19 1 19 18
M  V30 20 1 20 19
M  V30 21 2 21 20
M  V30 22 2 22 20
M  V30 23 1 23 20
M  V30 24 1 24 23
M  V30 25 2 25 24
M  V30 26 1 26 25
M  V30 27 1 27 26
M  V30 28 2 28 26
M  V30 29 2 29 23
M  V30 30 1 29 28
M  V30 31 1 30 13
M  V30 32 1 30 18
M  V30 33 1 31 4
M  V30 34 2 31 8
M  V30 35 1 32 1
M  V30 36 1 33 1
M  V30 37 1 34 1
M  V30 38 1 35 2
M  V30 39 1 36 3
M  V30 40 1 37 3
M  V30 41 1 38 3
M  V30 42 1 39 5
M  V30 43 1 40 6
M  V30 44 1 41 7
M  V30 45 1 42 10
M  V30 46 1 43 10
M  V30 47 1 44 11
M  V30 48 1 45 11
M  V30 49 1 13 46 CFG=3
M  V30 50 1 47 14
M  V30 51 1 48 14
M  V30 52 1 49 15
M  V30 53 1 50 15
M  V30 54 1 16 51 CFG=1
M  V30 55 1 52 17
M  V30 56 1 53 17
M  V30 57 1 18 54 CFG=1
M  V30 58 1 55 19
M  V30 59 1 56 24
M  V30 60 1 57 25
M  V30 61 1 58 28
M  V30 62 1 59 29
M  V30 63 1 60 30
M  V30 64 1 61 30
M  V30 65 1 62 31
M  V30 66 1 12 63 CFG=1
M  V30 END BOND
M  V30 END CTAB
M  END
>  <b_m_subgroup_collapsed>  (2641) 
0

>  <r_i_docking_score>  (2641) 
-5.0392125101502803

>  <s_m_subgroup_title>  (2641) 
glide-dock_SP_D22_pv

>  <s_m_subgroupid>  (2641) 
glide-dock_SP_D22_pv

>  <Molecule ChEMBL ID>  (2641) 
CHEMBL3759205

>  <Standard Type>  (2641) 
Ki

>  <Standard Value>  (2641) 
60.0

>  <label>  (2641) 
1

$$$$
CHEMBL1258988
     RDKit          3D

  0  0  0  0  0  0  0  0  0  0999 V3000
M  V30 BEGIN CTAB
M  V30 COUNTS 54 58 0 0 1
M  V30 BEGIN ATOM
M  V30 1 C 16.638683 6.636121 -19.078016 0
M  V30 2 N 15.295779 6.404294 -18.561897 0
M  V30 3 C 15.352603 5.530262 -17.391218 0
M  V30 4 C 13.926147 5.243048 -16.896484 0
M  V30 5 N 13.259263 6.512450 -16.514761 0 CHG=1
M  V30 6 C 11.948553 6.333336 -15.821919 0 CFG=2
M  V30 7 C 12.207677 6.125610 -14.297068 0
M  V30 8 C 11.010509 5.696501 -13.466036 0
M  V30 9 C 10.412660 6.571981 -12.536249 0
M  V30 10 C 9.282621 6.156765 -11.801344 0
M  V30 11 C 8.760284 4.860616 -11.983118 0
M  V30 12 C 9.371219 3.976223 -12.891959 0
M  V30 13 C 10.503344 4.393136 -13.615466 0
M  V30 14 S 11.285502 3.297410 -14.745477 0
M  V30 15 C 10.709145 4.025234 -16.232517 0
M  V30 16 C 9.892747 3.227076 -17.053930 0
M  V30 17 C 9.325115 3.753661 -18.227795 0
M  V30 18 C 9.540095 5.097592 -18.585032 0
M  V30 19 C 8.910526 5.671426 -19.794254 0
M  V30 20 N 8.490129 4.882430 -20.828953 0
M  V30 21 C 8.007979 5.829268 -21.625084 0
M  V30 22 N 8.129317 7.066151 -21.135193 0
M  V30 23 C 7.741801 8.345211 -21.687864 0
M  V30 24 N 8.732170 6.984412 -19.925028 0
M  V30 25 C 10.365988 5.883123 -17.752451 0
M  V30 26 C 10.990088 5.375554 -16.585625 0
M  V30 27 C 13.252238 7.450521 -17.673052 0
M  V30 28 C 14.682641 7.683043 -18.192625 0
M  V30 29 H 16.611187 7.289604 -19.948612 0
M  V30 30 H 17.287096 7.095870 -18.329880 0
M  V30 31 H 17.096411 5.698865 -19.391941 0
M  V30 32 H 15.955380 5.980278 -16.599495 0
M  V30 33 H 15.820840 4.586578 -17.664122 0
M  V30 34 H 13.966731 4.571659 -16.044773 0
M  V30 35 H 13.363104 4.730931 -17.677513 0
M  V30 36 H 11.443724 7.298187 -15.852438 0
M  V30 37 H 12.634134 7.033628 -13.872061 0
M  V30 38 H 12.979630 5.372005 -14.141760 0
M  V30 39 H 10.796672 7.571517 -12.397027 0
M  V30 40 H 8.808430 6.831436 -11.102831 0
M  V30 41 H 7.891621 4.546268 -11.421015 0
M  V30 42 H 8.983198 2.979114 -13.034799 0
M  V30 43 H 9.690476 2.201378 -16.782883 0
M  V30 44 H 8.701600 3.120742 -18.842676 0
M  V30 45 H 7.558283 5.617773 -22.585081 0
M  V30 46 H 7.357337 8.214775 -22.700945 0
M  V30 47 H 6.966607 8.797067 -21.067938 0
M  V30 48 H 8.606237 9.009331 -21.721014 0
M  V30 49 H 10.521733 6.917484 -18.024055 0
M  V30 50 H 12.655725 7.048166 -18.493057 0
M  V30 51 H 12.807186 8.404164 -17.390238 0
M  V30 52 H 15.285297 8.200240 -17.447142 0
M  V30 53 H 14.652330 8.331223 -19.071505 0
M  V30 54 H 13.861440 6.948487 -15.831265 0
M  V30 END ATOM
M  V30 BEGIN BOND
M  V30 1 1 2 1
M  V30 2 1 3 2
M  V30 3 1 4 3
M  V30 4 1 5 4
M  V30 5 1 6 5
M  V30 6 1 7 6
M  V30 7 1 8 7
M  V30 8 2 9 8
M  V30 9 1 10 9
M  V30 10 2 11 10
M  V30 11 1 12 11
M  V30 12 1 13 8
M  V30 13 2 13 12
M  V30 14 1 14 13
M  V30 15 1 15 14
M  V30 16 1 16 15
M  V30 17 2 17 16
M  V30 18 1 18 17
M  V30 19 1 19 18
M  V30 20 1 20 19
M  V30 21 2 21 20
M  V30 22 1 22 21
M  V30 23 1 23 22
M  V30 24 2 24 19
M  V30 25 1 24 22
M  V30 26 2 25 18
M  V30 27 1 26 6
M  V30 28 2 26 15
M  V30 29 1 26 25
M  V30 30 1 27 5
M  V30 31 1 28 2
M  V30 32 1 28 27
M  V30 33 1 29 1
M  V30 34 1 30 1
M  V30 35 1 31 1
M  V30 36 1 32 3
M  V30 37 1 33 3
M  V30 38 1 34 4
M  V30 39 1 35 4
M  V30 40 1 6 36 CFG=1
M  V30 41 1 37 7
M  V30 42 1 38 7
M  V30 43 1 39 9
M  V30 44 1 40 10
M  V30 45 1 41 11
M  V30 46 1 42 12
M  V30 47 1 43 16
M  V30 48 1 44 17
M  V30 49 1 45 21
M  V30 50 1 46 23
M  V30 51 1 47 23
M  V30 52 1 48 23
M  V30 53 1 49 25
M  V30 54 1 50 27
M  V30 55 1 51 27
M  V30 56 1 52 28
M  V30 57 1 53 28
M  V30 58 1 54 5
M  V30 END BOND
M  V30 END CTAB
M  END
>  <b_m_subgroup_collapsed>  (2642) 
0

>  <r_i_docking_score>  (2642) 
-5.0363189639396202

>  <s_m_subgroup_title>  (2642) 
glide-dock_SP_D22_pv

>  <s_m_subgroupid>  (2642) 
glide-dock_SP_D22_pv

>  <Molecule ChEMBL ID>  (2642) 
CHEMBL1258988

>  <Standard Type>  (2642) 
Ki

>  <Standard Value>  (2642) 
5.9

>  <label>  (2642) 
1

$$$$
CHEMBL92416
     RDKit          3D

  0  0  0  0  0  0  0  0  0  0999 V3000
M  V30 BEGIN CTAB
M  V30 COUNTS 41 43 0 0 1
M  V30 BEGIN ATOM
M  V30 1 C 9.196997 7.509397 -11.894904 0
M  V30 2 C 7.893509 7.213685 -12.646030 0
M  V30 3 N 7.152070 6.090101 -12.044264 0 CFG=1 CHG=1
M  V30 4 C 5.687442 6.171462 -12.245724 0
M  V30 5 C 7.688684 4.742632 -12.349002 0
M  V30 6 C 7.589203 4.392908 -13.847713 0
M  V30 7 C 7.853841 2.959636 -14.099935 0
M  V30 8 C 9.001139 2.370780 -14.561581 0
M  V30 9 C 10.257699 2.985874 -14.926685 0
M  V30 10 C 11.002575 2.762078 -16.055506 0
M  V30 11 C 12.163641 3.586335 -16.127607 0
M  V30 12 C 12.308790 4.403292 -15.035797 0
M  V30 13 S 11.018128 4.172492 -13.892190 0
M  V30 14 N 8.779699 1.004916 -14.651471 0
M  V30 15 C 7.482282 0.697211 -14.289589 0
M  V30 16 C 6.761711 -0.504051 -14.245073 0
M  V30 17 C 5.414394 -0.501236 -13.866318 0
M  V30 18 C 4.810834 0.699334 -13.459307 0
M  V30 19 C 5.549146 1.896109 -13.447344 0
M  V30 20 C 6.885017 1.925924 -13.912525 0
M  V30 21 H 9.686823 8.388409 -12.313060 0
M  V30 22 H 9.003772 7.714592 -10.841434 0
M  V30 23 H 9.902089 6.680124 -11.954763 0
M  V30 24 H 8.084588 6.972678 -13.682026 0
M  V30 25 H 7.276819 8.113536 -12.634903 0
M  V30 26 H 5.381822 6.108135 -13.289248 0
M  V30 27 H 5.237909 5.352017 -11.688272 0
M  V30 28 H 5.286185 7.099959 -11.847054 0
M  V30 29 H 7.129798 4.014599 -11.755700 0
M  V30 30 H 8.720695 4.664962 -12.008054 0
M  V30 31 H 8.269884 4.995478 -14.444544 0
M  V30 32 H 6.594230 4.593498 -14.235345 0
M  V30 33 H 10.741001 2.063631 -16.836777 0
M  V30 34 H 12.850922 3.544255 -16.960291 0
M  V30 35 H 13.095369 5.114002 -14.827187 0
M  V30 36 H 9.483325 0.349991 -14.960554 0
M  V30 37 H 7.226484 -1.427658 -14.524536 0
M  V30 38 H 4.850048 -1.423304 -13.883226 0
M  V30 39 H 3.767014 0.706480 -13.200632 0
M  V30 40 H 5.067848 2.813509 -13.145193 0
M  V30 41 H 7.238416 6.258339 -11.045887 0
M  V30 END ATOM
M  V30 BEGIN BOND
M  V30 1 1 2 1
M  V30 2 1 3 2
M  V30 3 1 4 3
M  V30 4 1 5 3
M  V30 5 1 6 5
M  V30 6 1 7 6
M  V30 7 2 8 7
M  V30 8 1 9 8
M  V30 9 2 10 9
M  V30 10 1 11 10
M  V30 11 2 12 11
M  V30 12 1 13 9
M  V30 13 1 13 12
M  V30 14 1 14 8
M  V30 15 1 15 14
M  V30 16 2 16 15
M  V30 17 1 17 16
M  V30 18 2 18 17
M  V30 19 1 19 18
M  V30 20 1 20 7
M  V30 21 1 20 15
M  V30 22 2 20 19
M  V30 23 1 21 1
M  V30 24 1 22 1
M  V30 25 1 23 1
M  V30 26 1 24 2
M  V30 27 1 25 2
M  V30 28 1 26 4
M  V30 29 1 27 4
M  V30 30 1 28 4
M  V30 31 1 29 5
M  V30 32 1 30 5
M  V30 33 1 31 6
M  V30 34 1 32 6
M  V30 35 1 33 10
M  V30 36 1 34 11
M  V30 37 1 35 12
M  V30 38 1 36 14
M  V30 39 1 37 16
M  V30 40 1 38 17
M  V30 41 1 39 18
M  V30 42 1 40 19
M  V30 43 1 3 41 CFG=1
M  V30 END BOND
M  V30 END CTAB
M  END
>  <b_m_subgroup_collapsed>  (2643) 
0

>  <r_i_docking_score>  (2643) 
-5.0259708054187797

>  <s_m_subgroup_title>  (2643) 
glide-dock_SP_D22_pv

>  <s_m_subgroupid>  (2643) 
glide-dock_SP_D22_pv

>  <Molecule ChEMBL ID>  (2643) 
CHEMBL92416

>  <Standard Type>  (2643) 
Ki

>  <Standard Value>  (2643) 
78.0

>  <label>  (2643) 
1

$$$$
CHEMBL5273758
     RDKit          3D

  0  0  0  0  0  0  0  0  0  0999 V3000
M  V30 BEGIN CTAB
M  V30 COUNTS 43 46 0 0 1
M  V30 BEGIN ATOM
M  V30 1 C 11.917068 5.500364 -15.374366 0
M  V30 2 N 11.719032 4.546843 -14.252152 0 CFG=2 CHG=1
M  V30 3 C 11.425216 3.148214 -14.727211 0
M  V30 4 C 9.927314 2.885752 -15.096107 0
M  V30 5 C 9.015836 3.329243 -13.936512 0 CFG=2
M  V30 6 C 7.508748 3.163491 -14.069779 0
M  V30 7 C 6.660420 3.999294 -13.426537 0
M  V30 8 O 5.345611 3.760543 -13.446779 0
M  V30 9 C 7.151231 5.128840 -12.638263 0
M  V30 10 O 6.284325 5.772175 -11.846885 0
M  V30 11 C 8.449956 5.488295 -12.741901 0
M  V30 12 C 9.278852 6.576766 -12.059302 0 CFG=1
M  V30 13 C 9.306332 6.535888 -10.532969 0
M  V30 14 C 9.685920 7.699083 -9.828724 0
M  V30 15 C 9.703318 7.709355 -8.421371 0
M  V30 16 C 9.345907 6.550828 -7.706740 0
M  V30 17 C 8.982707 5.379784 -8.399850 0
M  V30 18 C 8.968885 5.370718 -9.807031 0
M  V30 19 C 10.720175 6.401834 -12.646425 0
M  V30 20 C 10.738539 4.963887 -13.203061 0 CFG=1
M  V30 21 C 9.337707 4.796529 -13.717082 0 CFG=1
M  V30 22 H 11.000917 5.665794 -15.940914 0
M  V30 23 H 12.669167 5.117642 -16.064697 0
M  V30 24 H 12.284679 6.462268 -15.019982 0
M  V30 25 H 12.076506 2.885088 -15.562606 0
M  V30 26 H 11.686222 2.467451 -13.916337 0
M  V30 27 H 9.664186 3.424171 -16.008455 0
M  V30 28 H 9.773476 1.828013 -15.308681 0
M  V30 29 H 9.286533 2.750632 -13.049592 0
M  V30 30 H 7.140724 2.309805 -14.619362 0
M  V30 31 H 4.953543 4.397710 -12.867177 0
M  V30 32 H 6.731330 6.438784 -11.328976 0
M  V30 33 H 8.874429 7.545389 -12.356778 0
M  V30 34 H 9.950133 8.596084 -10.367530 0
M  V30 35 H 9.978915 8.607236 -7.890206 0
M  V30 36 H 9.344259 6.561090 -6.626941 0
M  V30 37 H 8.701571 4.495711 -7.848756 0
M  V30 38 H 8.680420 4.464725 -10.313622 0
M  V30 39 H 10.886472 7.128854 -13.440074 0
M  V30 40 H 11.503030 6.578201 -11.910092 0
M  V30 41 H 10.872010 4.290752 -12.356595 0
M  V30 42 H 9.203616 5.352293 -14.647285 0
M  V30 43 H 12.618055 4.507412 -13.790482 0
M  V30 END ATOM
M  V30 BEGIN BOND
M  V30 1 1 2 1
M  V30 2 1 3 2
M  V30 3 1 4 3
M  V30 4 1 5 4
M  V30 5 1 6 5
M  V30 6 2 7 6
M  V30 7 1 8 7
M  V30 8 1 9 7
M  V30 9 1 10 9
M  V30 10 2 11 9
M  V30 11 1 12 11
M  V30 12 1 13 12
M  V30 13 2 14 13
M  V30 14 1 15 14
M  V30 15 2 16 15
M  V30 16 1 17 16
M  V30 17 1 18 13
M  V30 18 2 18 17
M  V30 19 1 19 12
M  V30 20 1 20 2
M  V30 21 1 20 19
M  V30 22 1 21 5
M  V30 23 1 21 11
M  V30 24 1 21 20
M  V30 25 1 22 1
M  V30 26 1 23 1
M  V30 27 1 24 1
M  V30 28 1 25 3
M  V30 29 1 26 3
M  V30 30 1 27 4
M  V30 31 1 28 4
M  V30 32 1 5 29 CFG=1
M  V30 33 1 30 6
M  V30 34 1 31 8
M  V30 35 1 32 10
M  V30 36 1 12 33 CFG=1
M  V30 37 1 34 14
M  V30 38 1 35 15
M  V30 39 1 36 16
M  V30 40 1 37 17
M  V30 41 1 38 18
M  V30 42 1 39 19
M  V30 43 1 40 19
M  V30 44 1 20 41 CFG=1
M  V30 45 1 21 42 CFG=3
M  V30 46 1 2 43 CFG=1
M  V30 END BOND
M  V30 END CTAB
M  END
>  <b_m_subgroup_collapsed>  (2644) 
0

>  <r_i_docking_score>  (2644) 
-5.0252994755790104

>  <s_m_subgroup_title>  (2644) 
glide-dock_SP_D22_pv

>  <s_m_subgroupid>  (2644) 
glide-dock_SP_D22_pv

>  <Molecule ChEMBL ID>  (2644) 
CHEMBL5273758

>  <Standard Type>  (2644) 
Ki

>  <Standard Value>  (2644) 
12.88

>  <label>  (2644) 
1

$$$$
CHEMBL201010
     RDKit          3D

  0  0  0  0  0  0  0  0  0  0999 V3000
M  V30 BEGIN CTAB
M  V30 COUNTS 49 53 0 0 1
M  V30 BEGIN ATOM
M  V30 1 C 9.867916 5.370181 -16.869228 0
M  V30 2 N 10.799932 4.217806 -17.000973 0 CFG=1 CHG=1
M  V30 3 C 12.184428 4.750915 -17.211920 0
M  V30 4 C 12.785109 5.426283 -15.954306 0
M  V30 5 C 12.710954 4.485085 -14.748854 0
M  V30 6 C 11.274934 3.991167 -14.468979 0 CFG=1
M  V30 7 C 10.352617 5.003913 -13.748807 0
M  V30 8 C 10.904765 6.092196 -13.023378 0
M  V30 9 C 10.096227 6.946418 -12.246859 0
M  V30 10 C 8.704062 6.769788 -12.241349 0
M  V30 11 C 8.128047 5.714964 -12.967535 0
M  V30 12 C 8.945096 4.836980 -13.703262 0
M  V30 13 C 10.796304 3.304389 -15.789512 0 CFG=1
M  V30 14 C 9.578957 2.424410 -15.728208 0
M  V30 15 N 9.176502 1.653158 -14.646609 0
M  V30 16 C 8.022078 0.958034 -14.959973 0
M  V30 17 C 7.204031 0.099871 -14.206597 0
M  V30 18 C 6.083833 -0.497023 -14.812275 0
M  V30 19 C 5.790709 -0.227610 -16.163200 0
M  V30 20 C 6.610131 0.644105 -16.910364 0
M  V30 21 C 7.741180 1.262206 -16.326994 0
M  V30 22 C 8.752554 2.174945 -16.785574 0
M  V30 23 C 8.967658 2.821489 -18.117865 0
M  V30 24 C 10.397868 3.420888 -18.212402 0
M  V30 25 H 8.886174 5.049199 -16.542839 0
M  V30 26 H 9.751571 5.900014 -17.816154 0
M  V30 27 H 10.211603 6.101984 -16.143764 0
M  V30 28 H 12.843477 3.932259 -17.506607 0
M  V30 29 H 12.195213 5.454638 -18.046070 0
M  V30 30 H 13.829519 5.674733 -16.149519 0
M  V30 31 H 12.300440 6.375465 -15.728613 0
M  V30 32 H 13.286163 3.612521 -15.026235 0
M  V30 33 H 13.217493 4.881361 -13.871153 0
M  V30 34 H 11.380892 3.191003 -13.738212 0
M  V30 35 H 11.965822 6.282035 -12.998424 0
M  V30 36 H 10.539000 7.752633 -11.681290 0
M  V30 37 H 8.085934 7.435969 -11.658806 0
M  V30 38 H 7.058583 5.569111 -12.943212 0
M  V30 39 H 8.441050 4.040673 -14.219009 0
M  V30 40 H 11.581949 2.579409 -16.010935 0
M  V30 41 H 9.649947 1.632094 -13.749583 0
M  V30 42 H 7.440695 -0.116265 -13.175341 0
M  V30 43 H 5.462016 -1.176333 -14.248565 0
M  V30 44 H 4.935492 -0.697692 -16.629225 0
M  V30 45 H 6.367858 0.838743 -17.944416 0
M  V30 46 H 8.820169 2.098544 -18.919863 0
M  V30 47 H 8.223282 3.600684 -18.274458 0
M  V30 48 H 10.478481 4.027926 -19.115702 0
M  V30 49 H 11.105923 2.599274 -18.340891 0
M  V30 END ATOM
M  V30 BEGIN BOND
M  V30 1 1 2 1 CFG=1
M  V30 2 1 3 2
M  V30 3 1 4 3
M  V30 4 1 5 4
M  V30 5 1 6 5
M  V30 6 1 7 6
M  V30 7 2 8 7
M  V30 8 1 9 8
M  V30 9 2 10 9
M  V30 10 1 11 10
M  V30 11 1 12 7
M  V30 12 2 12 11
M  V30 13 1 13 2
M  V30 14 1 13 6
M  V30 15 1 14 13
M  V30 16 1 15 14
M  V30 17 1 16 15
M  V30 18 2 17 16
M  V30 19 1 18 17
M  V30 20 2 19 18
M  V30 21 1 20 19
M  V30 22 1 21 16
M  V30 23 2 21 20
M  V30 24 2 22 14
M  V30 25 1 22 21
M  V30 26 1 23 22
M  V30 27 1 24 2
M  V30 28 1 24 23
M  V30 29 1 25 1
M  V30 30 1 26 1
M  V30 31 1 27 1
M  V30 32 1 28 3
M  V30 33 1 29 3
M  V30 34 1 30 4
M  V30 35 1 31 4
M  V30 36 1 32 5
M  V30 37 1 33 5
M  V30 38 1 6 34 CFG=1
M  V30 39 1 35 8
M  V30 40 1 36 9
M  V30 41 1 37 10
M  V30 42 1 38 11
M  V30 43 1 39 12
M  V30 44 1 13 40 CFG=3
M  V30 45 1 41 15
M  V30 46 1 42 17
M  V30 47 1 43 18
M  V30 48 1 44 19
M  V30 49 1 45 20
M  V30 50 1 46 23
M  V30 51 1 47 23
M  V30 52 1 48 24
M  V30 53 1 49 24
M  V30 END BOND
M  V30 END CTAB
M  END
>  <b_m_subgroup_collapsed>  (2645) 
0

>  <r_i_docking_score>  (2645) 
-5.0198282008624204

>  <s_m_subgroup_title>  (2645) 
glide-dock_SP_D22_pv

>  <s_m_subgroupid>  (2645) 
glide-dock_SP_D22_pv

>  <Molecule ChEMBL ID>  (2645) 
CHEMBL201010

>  <Standard Type>  (2645) 
Ki

>  <Standard Value>  (2645) 
10000.0

>  <label>  (2645) 
0

$$$$
CHEMBL14998
     RDKit          3D

  0  0  0  0  0  0  0  0  0  0999 V3000
M  V30 BEGIN CTAB
M  V30 COUNTS 42 44 0 0 1
M  V30 BEGIN ATOM
M  V30 1 C 5.155871 0.929345 -13.857988 0
M  V30 2 C 6.489233 1.604941 -14.096045 0
M  V30 3 N 7.440789 0.863913 -14.656266 0
M  V30 4 C 8.677680 1.395151 -14.733376 0
M  V30 5 Cl 9.929042 0.428881 -15.433521 0
M  V30 6 C 8.956479 2.684451 -14.222401 0
M  V30 7 S 10.604775 3.356905 -14.275052 0
M  V30 8 C 10.618654 4.350635 -15.740624 0
M  V30 9 C 11.603868 5.351873 -15.862652 0
M  V30 10 C 11.649872 6.166705 -17.011404 0
M  V30 11 C 10.708864 5.980547 -18.044308 0
M  V30 12 Cl 10.746170 6.990149 -19.443689 0
M  V30 13 C 9.730886 4.973127 -17.931677 0
M  V30 14 C 9.687780 4.155034 -16.785664 0
M  V30 15 C 7.870251 3.372179 -13.618908 0
M  V30 16 N 8.045181 4.556406 -12.887452 0
M  V30 17 C 8.909703 4.538407 -11.711476 0
M  V30 18 C 9.516559 5.939982 -11.495758 0
M  V30 19 N 8.486075 7.015026 -11.546669 0 CHG=1
M  V30 20 C 9.069451 8.371533 -11.487453 0
M  V30 21 C 7.532578 6.875104 -12.679173 0
M  V30 22 C 6.930889 5.473110 -12.742094 0
M  V30 23 N 6.627371 2.839416 -13.617023 0
M  V30 24 H 4.424653 1.626024 -13.445628 0
M  V30 25 H 4.761611 0.517541 -14.785800 0
M  V30 26 H 5.278013 0.110050 -13.149556 0
M  V30 27 H 12.327122 5.498552 -15.072936 0
M  V30 28 H 12.401797 6.937637 -17.098375 0
M  V30 29 H 9.011266 4.825428 -18.723585 0
M  V30 30 H 8.934722 3.382458 -16.732504 0
M  V30 31 H 8.303617 4.267562 -10.845032 0
M  V30 32 H 9.690506 3.781538 -11.775124 0
M  V30 33 H 10.049098 5.980694 -10.543421 0
M  V30 34 H 10.257219 6.126468 -12.277762 0
M  V30 35 H 9.652471 8.579845 -12.383743 0
M  V30 36 H 8.282020 9.122045 -11.419495 0
M  V30 37 H 9.714876 8.483746 -10.615788 0
M  V30 38 H 6.750412 7.634826 -12.642746 0
M  V30 39 H 8.085124 7.002462 -13.604286 0
M  V30 40 H 6.229632 5.373125 -13.570367 0
M  V30 41 H 6.373854 5.247200 -11.830827 0
M  V30 42 H 7.885613 6.951281 -10.724511 0
M  V30 END ATOM
M  V30 BEGIN BOND
M  V30 1 1 2 1
M  V30 2 2 3 2
M  V30 3 1 4 3
M  V30 4 1 5 4
M  V30 5 2 6 4
M  V30 6 1 7 6
M  V30 7 1 8 7
M  V30 8 1 9 8
M  V30 9 2 10 9
M  V30 10 1 11 10
M  V30 11 1 12 11
M  V30 12 2 13 11
M  V30 13 2 14 8
M  V30 14 1 14 13
M  V30 15 1 15 6
M  V30 16 1 16 15
M  V30 17 1 17 16
M  V30 18 1 18 17
M  V30 19 1 19 18
M  V30 20 1 20 19
M  V30 21 1 21 19
M  V30 22 1 22 16
M  V30 23 1 22 21
M  V30 24 1 23 2
M  V30 25 2 23 15
M  V30 26 1 24 1
M  V30 27 1 25 1
M  V30 28 1 26 1
M  V30 29 1 27 9
M  V30 30 1 28 10
M  V30 31 1 29 13
M  V30 32 1 30 14
M  V30 33 1 31 17
M  V30 34 1 32 17
M  V30 35 1 33 18
M  V30 36 1 34 18
M  V30 37 1 35 20
M  V30 38 1 36 20
M  V30 39 1 37 20
M  V30 40 1 38 21
M  V30 41 1 39 21
M  V30 42 1 40 22
M  V30 43 1 41 22
M  V30 44 1 42 19
M  V30 END BOND
M  V30 END CTAB
M  END
>  <b_m_subgroup_collapsed>  (2646) 
0

>  <r_i_docking_score>  (2646) 
-5.0129394193523904

>  <s_m_subgroup_title>  (2646) 
glide-dock_SP_D22_pv

>  <s_m_subgroupid>  (2646) 
glide-dock_SP_D22_pv

>  <Molecule ChEMBL ID>  (2646) 
CHEMBL14998

>  <Standard Type>  (2646) 
Ki

>  <Standard Value>  (2646) 
62.0

>  <label>  (2646) 
1

$$$$
CHEMBL352207
     RDKit          3D

  0  0  0  0  0  0  0  0  0  0999 V3000
M  V30 BEGIN CTAB
M  V30 COUNTS 55 59 0 0 1
M  V30 BEGIN ATOM
M  V30 1 O 10.884860 0.474913 -15.951929 0
M  V30 2 C 10.351852 1.491658 -16.400742 0
M  V30 3 C 8.889122 1.799982 -15.986275 0 CFG=1
M  V30 4 N 8.691288 2.972598 -15.057821 0
M  V30 5 C 9.795805 3.267674 -14.127535 0
M  V30 6 C 9.517657 4.582732 -13.367366 0
M  V30 7 N 8.257231 4.506276 -12.588758 0 CHG=1
M  V30 8 C 7.926095 5.765416 -11.871588 0
M  V30 9 C 8.885964 6.108957 -10.743891 0
M  V30 10 C 9.766861 7.203801 -10.872687 0
M  V30 11 C 10.530050 7.630209 -9.768369 0
M  V30 12 C 10.417110 6.961348 -8.535653 0
M  V30 13 Cl 11.285411 7.529653 -7.158202 0
M  V30 14 C 9.576858 5.838758 -8.417039 0
M  V30 15 C 8.819366 5.405798 -9.521530 0
M  V30 16 C 7.142201 4.087187 -13.470317 0
M  V30 17 C 7.473411 2.800125 -14.249316 0
M  V30 18 C 7.929832 1.851879 -17.211557 0
M  V30 19 C 8.505357 2.418963 -18.523588 0
M  V30 20 C 9.285861 3.715956 -18.363346 0
M  V30 21 C 9.006862 4.987858 -18.913437 0
M  V30 22 C 9.942858 6.045718 -18.813494 0
M  V30 23 C 11.210079 5.839346 -18.222681 0
M  V30 24 C 11.508861 4.567817 -17.699236 0
M  V30 25 C 10.540076 3.563520 -17.743959 0
M  V30 26 N 11.037554 2.374823 -17.168045 0
M  V30 27 C 12.484809 2.445743 -17.125277 0
M  V30 28 C 12.774035 3.953727 -17.146950 0
M  V30 29 H 8.598167 0.913318 -15.419781 0
M  V30 30 H 9.949559 2.433851 -13.441911 0
M  V30 31 H 10.735682 3.416227 -14.659338 0
M  V30 32 H 10.351999 4.792223 -12.697380 0
M  V30 33 H 9.466375 5.412590 -14.076736 0
M  V30 34 H 7.873446 6.592684 -12.580927 0
M  V30 35 H 6.929310 5.690351 -11.429378 0
M  V30 36 H 9.820176 7.757733 -11.798649 0
M  V30 37 H 11.178072 8.490615 -9.856784 0
M  V30 38 H 9.485425 5.334287 -7.465818 0
M  V30 39 H 8.136044 4.579449 -9.402867 0
M  V30 40 H 6.240382 3.933563 -12.878369 0
M  V30 41 H 6.922678 4.883619 -14.178877 0
M  V30 42 H 6.614190 2.559707 -14.872947 0
M  V30 43 H 7.577352 1.950533 -13.577134 0
M  V30 44 H 7.045082 2.439539 -16.975121 0
M  V30 45 H 7.556273 0.843720 -17.410164 0
M  V30 46 H 7.700862 2.576015 -19.238321 0
M  V30 47 H 9.147457 1.676474 -19.001648 0
M  V30 48 H 8.082705 5.154812 -19.444128 0
M  V30 49 H 9.703161 7.010600 -19.240330 0
M  V30 50 H 11.944247 6.631138 -18.201271 0
M  V30 51 H 12.886334 1.958556 -16.247063 0
M  V30 52 H 12.883026 1.953210 -18.011480 0
M  V30 53 H 13.638357 4.196042 -17.766376 0
M  V30 54 H 12.951113 4.337656 -16.142475 0
M  V30 55 H 8.377695 3.787022 -11.889438 0
M  V30 END ATOM
M  V30 BEGIN BOND
M  V30 1 2 2 1
M  V30 2 1 3 2
M  V30 3 1 4 3
M  V30 4 1 5 4
M  V30 5 1 6 5
M  V30 6 1 7 6
M  V30 7 1 8 7
M  V30 8 1 9 8
M  V30 9 1 10 9
M  V30 10 2 11 10
M  V30 11 1 12 11
M  V30 12 1 13 12
M  V30 13 2 14 12
M  V30 14 2 15 9
M  V30 15 1 15 14
M  V30 16 1 16 7
M  V30 17 1 17 4
M  V30 18 1 17 16
M  V30 19 1 18 3
M  V30 20 1 19 18
M  V30 21 1 20 19
M  V30 22 1 21 20
M  V30 23 2 22 21
M  V30 24 1 23 22
M  V30 25 2 24 23
M  V30 26 2 25 20
M  V30 27 1 25 24
M  V30 28 1 26 2
M  V30 29 1 26 25
M  V30 30 1 27 26
M  V30 31 1 28 24
M  V30 32 1 28 27
M  V30 33 1 3 29 CFG=1
M  V30 34 1 30 5
M  V30 35 1 31 5
M  V30 36 1 32 6
M  V30 37 1 33 6
M  V30 38 1 34 8
M  V30 39 1 35 8
M  V30 40 1 36 10
M  V30 41 1 37 11
M  V30 42 1 38 14
M  V30 43 1 39 15
M  V30 44 1 40 16
M  V30 45 1 41 16
M  V30 46 1 42 17
M  V30 47 1 43 17
M  V30 48 1 44 18
M  V30 49 1 45 18
M  V30 50 1 46 19
M  V30 51 1 47 19
M  V30 52 1 48 21
M  V30 53 1 49 22
M  V30 54 1 50 23
M  V30 55 1 51 27
M  V30 56 1 52 27
M  V30 57 1 53 28
M  V30 58 1 54 28
M  V30 59 1 55 7
M  V30 END BOND
M  V30 END CTAB
M  END
>  <b_m_subgroup_collapsed>  (2647) 
0

>  <r_i_docking_score>  (2647) 
-5.01063340994983

>  <s_m_subgroup_title>  (2647) 
glide-dock_SP_D22_pv

>  <s_m_subgroupid>  (2647) 
glide-dock_SP_D22_pv

>  <Molecule ChEMBL ID>  (2647) 
CHEMBL352207

>  <Standard Type>  (2647) 
Ki

>  <Standard Value>  (2647) 
62.0

>  <label>  (2647) 
1

$$$$
CHEMBL4238479
     RDKit          3D

  0  0  0  0  0  0  0  0  0  0999 V3000
M  V30 BEGIN CTAB
M  V30 COUNTS 65 70 0 0 1
M  V30 BEGIN ATOM
M  V30 1 O 9.963132 3.340441 -19.542856 0
M  V30 2 S 9.742637 1.904790 -19.768858 0
M  V30 3 O 8.615901 1.479525 -20.613905 0
M  V30 4 C 11.249840 1.123061 -20.404858 0
M  V30 5 C 11.047742 0.028964 -21.276148 0
M  V30 6 C 12.135801 -0.689999 -21.799667 0
M  V30 7 C 13.446893 -0.332897 -21.447351 0
M  V30 8 C 13.666860 0.765702 -20.594032 0
M  V30 9 C 14.984374 1.128268 -20.247795 0
M  V30 10 N 15.280976 2.168727 -19.446959 0
M  V30 11 C 14.256731 2.903688 -18.971891 0
M  V30 12 C 12.908615 2.623423 -19.251675 0
M  V30 13 C 12.579174 1.520908 -20.074997 0
M  V30 14 N 9.514296 1.131689 -18.227758 0
M  V30 15 C 9.247081 -0.312256 -18.196007 0
M  V30 16 C 10.292963 -0.870089 -17.235031 0
M  V30 17 C 10.389270 0.236761 -16.199974 0
M  V30 18 C 10.335053 1.502761 -17.060814 0 CFG=2
M  V30 19 C 9.770296 2.729619 -16.326513 0
M  V30 20 C 10.704589 3.189881 -15.193987 0
M  V30 21 N 10.246580 4.421502 -14.554271 0
M  V30 22 C 9.090181 4.152366 -13.689015 0
M  V30 23 C 8.615160 5.467717 -13.052968 0
M  V30 24 N 9.680926 6.039591 -12.238937 0
M  V30 25 C 9.615376 6.013601 -10.827156 0
M  V30 26 C 8.914380 4.970814 -10.177801 0
M  V30 27 C 8.836452 4.902155 -8.777780 0
M  V30 28 C 9.437971 5.893976 -7.993332 0
M  V30 29 C 10.139845 6.934603 -8.615831 0
M  V30 30 S 10.994267 8.253794 -7.824132 0
M  V30 31 C 11.466717 8.894173 -9.363108 0
M  V30 32 C 10.993508 8.193871 -10.434526 0
M  V30 33 C 10.240163 7.026492 -10.043758 0
M  V30 34 C 10.955423 6.202999 -12.936559 0
M  V30 35 C 11.344349 4.931571 -13.724039 0
M  V30 36 H 10.047479 -0.278573 -21.544540 0
M  V30 37 H 11.962768 -1.527147 -22.460705 0
M  V30 38 H 14.279957 -0.898738 -21.841110 0
M  V30 39 H 15.828434 0.567588 -20.623095 0
M  V30 40 H 14.520082 3.737848 -18.338846 0
M  V30 41 H 12.165428 3.272174 -18.821371 0
M  V30 42 H 8.239172 -0.475283 -17.812235 0
M  V30 43 H 9.308252 -0.764985 -19.185518 0
M  V30 44 H 10.023206 -1.827570 -16.801334 0
M  V30 45 H 11.246318 -0.991966 -17.752768 0
M  V30 46 H 9.530476 0.186533 -15.528893 0
M  V30 47 H 11.286852 0.177946 -15.589363 0
M  V30 48 H 11.345859 1.708598 -17.399403 0
M  V30 49 H 9.638788 3.555142 -17.024244 0
M  V30 50 H 8.777239 2.490207 -15.948722 0
M  V30 51 H 10.830292 2.402194 -14.448733 0
M  V30 52 H 11.690218 3.365287 -15.627907 0
M  V30 53 H 8.267661 3.734667 -14.266831 0
M  V30 54 H 9.345067 3.421517 -12.919539 0
M  V30 55 H 8.352731 6.174809 -13.838623 0
M  V30 56 H 7.703278 5.317753 -12.474133 0
M  V30 57 H 8.444139 4.177665 -10.742311 0
M  V30 58 H 8.291892 4.094419 -8.309921 0
M  V30 59 H 9.366739 5.858888 -6.916580 0
M  V30 60 H 12.084736 9.772538 -9.428047 0
M  V30 61 H 11.175102 8.472209 -11.452134 0
M  V30 62 H 10.886253 7.050196 -13.610860 0
M  V30 63 H 11.760319 6.449340 -12.247554 0
M  V30 64 H 11.669574 4.151348 -13.044238 0
M  V30 65 H 12.204120 5.159465 -14.355769 0
M  V30 END ATOM
M  V30 BEGIN BOND
M  V30 1 2 2 1
M  V30 2 2 3 2
M  V30 3 1 4 2
M  V30 4 1 5 4
M  V30 5 2 6 5
M  V30 6 1 7 6
M  V30 7 2 8 7
M  V30 8 1 9 8
M  V30 9 2 10 9
M  V30 10 1 11 10
M  V30 11 2 12 11
M  V30 12 2 13 4
M  V30 13 1 13 8
M  V30 14 1 13 12
M  V30 15 1 14 2
M  V30 16 1 15 14
M  V30 17 1 16 15
M  V30 18 1 17 16
M  V30 19 1 18 14
M  V30 20 1 18 17
M  V30 21 1 19 18
M  V30 22 1 20 19
M  V30 23 1 21 20
M  V30 24 1 22 21
M  V30 25 1 23 22
M  V30 26 1 24 23
M  V30 27 1 25 24
M  V30 28 1 26 25
M  V30 29 2 27 26
M  V30 30 1 28 27
M  V30 31 2 29 28
M  V30 32 1 30 29
M  V30 33 1 31 30
M  V30 34 2 32 31
M  V30 35 2 33 25
M  V30 36 1 33 29
M  V30 37 1 33 32
M  V30 38 1 34 24
M  V30 39 1 35 21
M  V30 40 1 35 34
M  V30 41 1 36 5
M  V30 42 1 37 6
M  V30 43 1 38 7
M  V30 44 1 39 9
M  V30 45 1 40 11
M  V30 46 1 41 12
M  V30 47 1 42 15
M  V30 48 1 43 15
M  V30 49 1 44 16
M  V30 50 1 45 16
M  V30 51 1 46 17
M  V30 52 1 47 17
M  V30 53 1 18 48 CFG=3
M  V30 54 1 49 19
M  V30 55 1 50 19
M  V30 56 1 51 20
M  V30 57 1 52 20
M  V30 58 1 53 22
M  V30 59 1 54 22
M  V30 60 1 55 23
M  V30 61 1 56 23
M  V30 62 1 57 26
M  V30 63 1 58 27
M  V30 64 1 59 28
M  V30 65 1 60 31
M  V30 66 1 61 32
M  V30 67 1 62 34
M  V30 68 1 63 34
M  V30 69 1 64 35
M  V30 70 1 65 35
M  V30 END BOND
M  V30 END CTAB
M  END
>  <b_m_subgroup_collapsed>  (2648) 
0

>  <r_i_docking_score>  (2648) 
-4.9973113576020403

>  <s_m_subgroup_title>  (2648) 
glide-dock_SP_D22_pv

>  <s_m_subgroupid>  (2648) 
glide-dock_SP_D22_pv

>  <Molecule ChEMBL ID>  (2648) 
CHEMBL4238479

>  <Standard Type>  (2648) 
Ki

>  <Standard Value>  (2648) 
5.0

>  <label>  (2648) 
1

$$$$
CHEMBL201287
     RDKit          3D

  0  0  0  0  0  0  0  0  0  0999 V3000
M  V30 BEGIN CTAB
M  V30 COUNTS 53 55 0 0 1
M  V30 BEGIN ATOM
M  V30 1 C 9.047471 6.026628 -19.335154 0
M  V30 2 C 10.120946 5.670670 -18.614645 0
M  V30 3 C 10.076043 4.777021 -17.387156 0
M  V30 4 N 10.731671 3.463150 -17.620037 0 CFG=1 CHG=1
M  V30 5 C 12.157581 3.454189 -18.070988 0
M  V30 6 C 13.236942 3.908185 -17.061869 0
M  V30 7 C 13.149092 5.368365 -16.638090 0
M  V30 8 C 13.461314 6.337222 -17.618629 0
M  V30 9 C 13.354718 7.710603 -17.339882 0
M  V30 10 C 12.955374 8.129690 -16.061949 0
M  V30 11 C 12.680544 7.178553 -15.064663 0
M  V30 12 C 12.770076 5.791882 -15.333376 0
M  V30 13 C 12.443296 4.830516 -14.187344 0
M  V30 14 C 10.946597 4.670146 -13.929014 0
M  V30 15 C 10.312716 5.673409 -13.165267 0
M  V30 16 C 8.920608 5.649244 -12.919253 0
M  V30 17 O 8.250372 6.647943 -12.247719 0
M  V30 18 C 8.974753 7.795504 -11.824154 0
M  V30 19 C 8.151011 4.569956 -13.397546 0
M  V30 20 O 6.801554 4.589241 -13.116014 0
M  V30 21 C 6.000781 3.506724 -13.562629 0
M  V30 22 C 8.788545 3.541290 -14.132753 0
M  V30 23 C 10.170434 3.583023 -14.419969 0
M  V30 24 C 10.745593 2.424203 -15.223480 0
M  V30 25 C 10.311889 2.356275 -16.710751 0
M  V30 26 H 8.058022 5.684027 -19.073305 0
M  V30 27 H 9.142293 6.669383 -20.200094 0
M  V30 28 H 11.088981 6.044530 -18.915144 0
M  V30 29 H 10.499207 5.311778 -16.544615 0
M  V30 30 H 9.030579 4.608320 -17.134026 0
M  V30 31 H 12.398569 2.437032 -18.389778 0
M  V30 32 H 12.248221 4.049886 -18.980244 0
M  V30 33 H 13.285926 3.229564 -16.227015 0
M  V30 34 H 14.211346 3.786765 -17.537018 0
M  V30 35 H 13.767605 6.028006 -18.608149 0
M  V30 36 H 13.579607 8.442325 -18.102816 0
M  V30 37 H 12.879152 9.184388 -15.846767 0
M  V30 38 H 12.396267 7.525961 -14.083196 0
M  V30 39 H 12.950335 3.878549 -14.276239 0
M  V30 40 H 12.885845 5.250035 -13.284421 0
M  V30 41 H 10.918245 6.480381 -12.787075 0
M  V30 42 H 8.278252 8.545555 -11.446706 0
M  V30 43 H 9.519799 8.263890 -12.644165 0
M  V30 44 H 9.670918 7.545465 -11.021449 0
M  V30 45 H 4.962252 3.687650 -13.281364 0
M  V30 46 H 6.308273 2.566522 -13.103021 0
M  V30 47 H 6.038581 3.408606 -14.646921 0
M  V30 48 H 8.222029 2.697895 -14.495608 0
M  V30 49 H 11.812663 2.320956 -15.106748 0
M  V30 50 H 10.368983 1.521346 -14.741293 0
M  V30 51 H 9.224582 2.279922 -16.755697 0
M  V30 52 H 10.677178 1.416834 -17.130371 0
M  V30 53 H 10.270598 3.181213 -18.475340 0
M  V30 END ATOM
M  V30 BEGIN BOND
M  V30 1 2 2 1
M  V30 2 1 3 2
M  V30 3 1 4 3
M  V30 4 1 5 4
M  V30 5 1 6 5
M  V30 6 1 7 6
M  V30 7 2 8 7
M  V30 8 1 9 8
M  V30 9 2 10 9
M  V30 10 1 11 10
M  V30 11 1 12 7
M  V30 12 2 12 11
M  V30 13 1 13 12
M  V30 14 1 14 13
M  V30 15 2 15 14
M  V30 16 1 16 15
M  V30 17 1 17 16
M  V30 18 1 18 17
M  V30 19 2 19 16
M  V30 20 1 20 19
M  V30 21 1 21 20
M  V30 22 1 22 19
M  V30 23 1 23 14
M  V30 24 2 23 22
M  V30 25 1 24 23
M  V30 26 1 25 4
M  V30 27 1 25 24
M  V30 28 1 26 1
M  V30 29 1 27 1
M  V30 30 1 28 2
M  V30 31 1 29 3
M  V30 32 1 30 3
M  V30 33 1 31 5
M  V30 34 1 32 5
M  V30 35 1 33 6
M  V30 36 1 34 6
M  V30 37 1 35 8
M  V30 38 1 36 9
M  V30 39 1 37 10
M  V30 40 1 38 11
M  V30 41 1 39 13
M  V30 42 1 40 13
M  V30 43 1 41 15
M  V30 44 1 42 18
M  V30 45 1 43 18
M  V30 46 1 44 18
M  V30 47 1 45 21
M  V30 48 1 46 21
M  V30 49 1 47 21
M  V30 50 1 48 22
M  V30 51 1 49 24
M  V30 52 1 50 24
M  V30 53 1 51 25
M  V30 54 1 52 25
M  V30 55 1 4 53 CFG=3
M  V30 END BOND
M  V30 END CTAB
M  END
>  <b_m_subgroup_collapsed>  (2649) 
0

>  <r_i_docking_score>  (2649) 
-4.9934038068321298

>  <s_m_subgroup_title>  (2649) 
glide-dock_SP_D22_pv

>  <s_m_subgroupid>  (2649) 
glide-dock_SP_D22_pv

>  <Molecule ChEMBL ID>  (2649) 
CHEMBL201287

>  <Standard Type>  (2649) 
Ki

>  <Standard Value>  (2649) 
10000.0

>  <label>  (2649) 
0

$$$$
CHEMBL241282
     RDKit          3D

  0  0  0  0  0  0  0  0  0  0999 V3000
M  V30 BEGIN CTAB
M  V30 COUNTS 59 63 0 0 1
M  V30 BEGIN ATOM
M  V30 1 C 10.978679 8.748034 -23.201509 0
M  V30 2 O 12.247268 9.009907 -22.621210 0
M  V30 3 C 12.484065 8.572596 -21.334171 0
M  V30 4 C 11.576072 7.771869 -20.600096 0
M  V30 5 C 11.866112 7.380500 -19.278719 0
M  V30 6 C 13.082610 7.768136 -18.683998 0
M  V30 7 C 13.987643 8.568334 -19.407047 0
M  V30 8 C 13.689594 8.989351 -20.725458 0
M  V30 9 O 14.514087 9.813084 -21.461109 0
M  V30 10 C 15.499702 10.563371 -20.768509 0
M  V30 11 C 13.443948 7.360645 -17.268690 0
M  V30 12 N 12.440289 6.581012 -16.517384 0 CHG=1
M  V30 13 C 12.703137 6.464252 -15.187567 0
M  V30 14 N 12.120657 5.714555 -14.220076 0
M  V30 15 C 11.262608 4.579549 -14.415609 0
M  V30 16 C 10.076113 4.505906 -13.664836 0
M  V30 17 C 9.204669 3.418242 -13.852433 0
M  V30 18 C 9.505137 2.413437 -14.796753 0
M  V30 19 C 10.713755 2.482795 -15.539887 0
M  V30 20 C 11.611258 3.548979 -15.310034 0
M  V30 21 C 11.020635 1.489790 -16.656326 0 CFG=2
M  V30 22 S 10.677130 2.380530 -18.212860 0
M  V30 23 C 11.073547 1.128728 -19.454596 0
M  V30 24 C 10.133006 -0.069327 -19.338554 0
M  V30 25 S 10.486008 -1.027783 -17.846346 0
M  V30 26 C 10.204962 0.183029 -16.511372 0 CFG=2
M  V30 27 C 8.717742 0.468728 -16.272943 0
M  V30 28 C 8.518002 1.267132 -14.977135 0
M  V30 29 C 11.389439 5.854961 -17.266460 0
M  V30 30 C 10.842453 6.575980 -18.507921 0
M  V30 31 H 10.926386 9.225204 -24.178690 0
M  V30 32 H 10.170154 9.158177 -22.594986 0
M  V30 33 H 10.819086 7.679550 -23.343966 0
M  V30 34 H 10.637099 7.456759 -21.029572 0
M  V30 35 H 14.906030 8.867187 -18.925415 0
M  V30 36 H 15.947824 11.285963 -21.450861 0
M  V30 37 H 16.299290 9.922049 -20.397158 0
M  V30 38 H 15.066557 11.124277 -19.939083 0
M  V30 39 H 14.367601 6.782158 -17.301781 0
M  V30 40 H 13.662530 8.271295 -16.709599 0
M  V30 41 H 13.506220 7.089957 -14.813089 0
M  V30 42 H 9.820118 5.279968 -12.955376 0
M  V30 43 H 8.290766 3.369236 -13.278610 0
M  V30 44 H 12.536527 3.600870 -15.865212 0
M  V30 45 H 12.084486 1.249419 -16.631742 0
M  V30 46 H 10.969292 1.585024 -20.439039 0
M  V30 47 H 12.115155 0.822251 -19.352129 0
M  V30 48 H 9.089858 0.248372 -19.338617 0
M  V30 49 H 10.265126 -0.727158 -20.198090 0
M  V30 50 H 10.566947 -0.318845 -15.612628 0
M  V30 51 H 8.313354 1.033873 -17.112122 0
M  V30 52 H 8.146005 -0.458360 -16.225328 0
M  V30 53 H 8.635636 0.599986 -14.122066 0
M  V30 54 H 7.497223 1.648915 -14.933108 0
M  V30 55 H 11.843871 4.922616 -17.597424 0
M  V30 56 H 10.545390 5.605010 -16.626530 0
M  V30 57 H 10.007838 7.225654 -18.247168 0
M  V30 58 H 10.426346 5.825357 -19.180929 0
M  V30 59 H 12.178226 6.119174 -13.295924 0
M  V30 END ATOM
M  V30 BEGIN BOND
M  V30 1 1 2 1
M  V30 2 1 3 2
M  V30 3 1 4 3
M  V30 4 2 5 4
M  V30 5 1 6 5
M  V30 6 2 7 6
M  V30 7 2 8 3
M  V30 8 1 8 7
M  V30 9 1 9 8
M  V30 10 1 10 9
M  V30 11 1 11 6
M  V30 12 1 12 11
M  V30 13 2 13 12 CFG=2
M  V30 14 1 14 13
M  V30 15 1 15 14
M  V30 16 1 16 15
M  V30 17 2 17 16
M  V30 18 1 18 17
M  V30 19 2 19 18
M  V30 20 2 20 15
M  V30 21 1 20 19
M  V30 22 1 21 19
M  V30 23 1 22 21
M  V30 24 1 23 22
M  V30 25 1 24 23
M  V30 26 1 25 24
M  V30 27 1 26 21
M  V30 28 1 26 25
M  V30 29 1 27 26
M  V30 30 1 28 18
M  V30 31 1 28 27
M  V30 32 1 29 12
M  V30 33 1 30 5
M  V30 34 1 30 29
M  V30 35 1 31 1
M  V30 36 1 32 1
M  V30 37 1 33 1
M  V30 38 1 34 4
M  V30 39 1 35 7
M  V30 40 1 36 10
M  V30 41 1 37 10
M  V30 42 1 38 10
M  V30 43 1 39 11
M  V30 44 1 40 11
M  V30 45 1 41 13
M  V30 46 1 42 16
M  V30 47 1 43 17
M  V30 48 1 44 20
M  V30 49 1 21 45 CFG=3
M  V30 50 1 46 23
M  V30 51 1 47 23
M  V30 52 1 48 24
M  V30 53 1 49 24
M  V30 54 1 26 50 CFG=1
M  V30 55 1 51 27
M  V30 56 1 52 27
M  V30 57 1 53 28
M  V30 58 1 54 28
M  V30 59 1 55 29
M  V30 60 1 56 29
M  V30 61 1 57 30
M  V30 62 1 58 30
M  V30 63 1 59 14
M  V30 END BOND
M  V30 END CTAB
M  END
>  <b_m_subgroup_collapsed>  (2650) 
0

>  <r_i_docking_score>  (2650) 
-4.9896099324365899

>  <s_m_subgroup_title>  (2650) 
glide-dock_SP_D22_pv

>  <s_m_subgroupid>  (2650) 
glide-dock_SP_D22_pv

>  <Molecule ChEMBL ID>  (2650) 
CHEMBL241282

>  <Standard Type>  (2650) 
Ki

>  <Standard Value>  (2650) 
100000.0

>  <label>  (2650) 
0

$$$$
CHEMBL238401
     RDKit          3D

  0  0  0  0  0  0  0  0  0  0999 V3000
M  V30 BEGIN CTAB
M  V30 COUNTS 82 85 0 0 1
M  V30 BEGIN ATOM
M  V30 1 C 12.486341 7.735933 -11.830772 0
M  V30 2 C 11.644150 7.188406 -12.984017 0
M  V30 3 N 10.491168 6.372765 -12.516435 0
M  V30 4 C 10.098651 5.308152 -13.511799 0 CFG=1
M  V30 5 C 11.195303 4.235832 -13.624100 0
M  V30 6 C 10.907867 3.225144 -14.745854 0
M  V30 7 C 9.581843 2.473928 -14.520596 0 CFG=2
M  V30 8 N 9.233420 1.556373 -15.652410 0 CHG=1
M  V30 9 C 9.017418 2.229918 -16.976933 0
M  V30 10 C 8.598742 1.258624 -18.094763 0
M  V30 11 N 7.490098 0.439849 -17.635664 0
M  V30 12 C 6.521410 -0.101710 -18.503674 0
M  V30 13 C 5.217953 -0.272234 -17.982195 0
M  V30 14 C 4.197773 -0.852363 -18.751690 0
M  V30 15 C 4.477035 -1.267714 -20.061842 0
M  V30 16 C 5.759774 -1.084753 -20.607117 0
M  V30 17 C 6.801101 -0.498234 -19.842186 0
M  V30 18 O 8.087132 -0.330698 -20.323860 0
M  V30 19 C 8.394381 -0.577391 -21.692728 0
M  V30 20 C 9.922297 -0.649623 -21.781698 0
M  V30 21 C 7.847146 0.552954 -22.583780 0
M  V30 22 C 7.768991 -0.322070 -16.434069 0
M  V30 23 C 8.130343 0.621022 -15.285970 0
M  V30 24 C 8.435239 3.445946 -14.173998 0
M  V30 25 C 8.792389 4.545125 -13.187865 0
M  V30 26 S 9.318036 7.231932 -11.509056 0
M  V30 27 O 9.284904 8.621726 -11.985966 0
M  V30 28 O 8.086028 6.446471 -11.446938 0
M  V30 29 C 9.937312 7.226416 -9.818373 0
M  V30 30 C 9.620983 6.156546 -8.960793 0
M  V30 31 C 9.982558 6.216024 -7.599240 0
M  V30 32 C 10.704551 7.323741 -7.085737 0
M  V30 33 O 11.111669 7.491700 -5.780333 0
M  V30 34 C 10.885522 6.478417 -4.838923 0
M  V30 35 C 11.051131 8.361043 -7.970310 0
M  V30 36 O 11.880824 9.372289 -7.583062 0
M  V30 37 C 11.531285 10.127678 -6.430061 0
M  V30 38 C 10.621102 8.343401 -9.306899 0
M  V30 39 H 13.506636 7.931271 -12.158169 0
M  V30 40 H 12.113304 8.676631 -11.446769 0
M  V30 41 H 12.486184 7.028534 -11.002360 0
M  V30 42 H 12.315456 6.623591 -13.622109 0
M  V30 43 H 11.287099 7.987401 -13.631960 0
M  V30 44 H 9.976460 5.772168 -14.489623 0
M  V30 45 H 12.199863 4.616333 -13.785760 0
M  V30 46 H 11.204403 3.772411 -12.651716 0
M  V30 47 H 11.722713 2.504990 -14.816087 0
M  V30 48 H 10.900612 3.779152 -15.683820 0
M  V30 49 H 9.738591 1.849675 -13.640844 0
M  V30 50 H 9.912047 2.755910 -17.302885 0
M  V30 51 H 8.228390 2.972584 -16.896637 0
M  V30 52 H 9.438635 0.618395 -18.369055 0
M  V30 53 H 8.315726 1.819249 -18.987436 0
M  V30 54 H 4.992723 0.036768 -16.971220 0
M  V30 55 H 3.208490 -0.986773 -18.336834 0
M  V30 56 H 3.694375 -1.725520 -20.647583 0
M  V30 57 H 5.911082 -1.416579 -21.621613 0
M  V30 58 H 8.008636 -1.545863 -22.011208 0
M  V30 59 H 10.245914 -0.871708 -22.797138 0
M  V30 60 H 10.379121 0.293201 -21.481367 0
M  V30 61 H 10.314289 -1.428163 -21.129019 0
M  V30 62 H 8.112569 0.393031 -23.628839 0
M  V30 63 H 6.761428 0.624025 -22.534569 0
M  V30 64 H 8.253603 1.518714 -22.282635 0
M  V30 65 H 6.925619 -0.952758 -16.144825 0
M  V30 66 H 8.602310 -0.992095 -16.650341 0
M  V30 67 H 8.406154 0.038079 -14.405659 0
M  V30 68 H 7.227829 1.174219 -15.028192 0
M  V30 69 H 8.086853 3.968866 -15.046063 0
M  V30 70 H 7.572613 2.912129 -13.777968 0
M  V30 71 H 7.937661 5.210073 -13.289332 0
M  V30 72 H 8.815435 4.140775 -12.174408 0
M  V30 73 H 9.059325 5.313381 -9.336036 0
M  V30 74 H 9.685909 5.392980 -6.976586 0
M  V30 75 H 11.165061 6.838088 -3.849862 0
M  V30 76 H 9.840442 6.173047 -4.809501 0
M  V30 77 H 11.546309 5.654516 -5.074704 0
M  V30 78 H 11.716342 11.183926 -6.619748 0
M  V30 79 H 10.484216 10.021286 -6.150566 0
M  V30 80 H 12.150298 9.833257 -5.582063 0
M  V30 81 H 10.818739 9.202989 -9.928465 0
M  V30 82 H 10.039144 0.964064 -15.788417 0
M  V30 END ATOM
M  V30 BEGIN BOND
M  V30 1 1 2 1
M  V30 2 1 3 2
M  V30 3 1 4 3
M  V30 4 1 5 4
M  V30 5 1 6 5
M  V30 6 1 7 6
M  V30 7 1 8 7
M  V30 8 1 9 8
M  V30 9 1 10 9
M  V30 10 1 11 10
M  V30 11 1 12 11
M  V30 12 2 13 12
M  V30 13 1 14 13
M  V30 14 2 15 14
M  V30 15 1 16 15
M  V30 16 1 17 12
M  V30 17 2 17 16
M  V30 18 1 18 17
M  V30 19 1 19 18
M  V30 20 1 20 19
M  V30 21 1 21 19
M  V30 22 1 22 11
M  V30 23 1 23 8
M  V30 24 1 23 22
M  V30 25 1 24 7
M  V30 26 1 25 4
M  V30 27 1 25 24
M  V30 28 1 26 3
M  V30 29 2 27 26
M  V30 30 2 28 26
M  V30 31 1 29 26
M  V30 32 1 30 29
M  V30 33 2 31 30
M  V30 34 1 32 31
M  V30 35 1 33 32
M  V30 36 1 34 33
M  V30 37 2 35 32
M  V30 38 1 36 35
M  V30 39 1 37 36
M  V30 40 2 38 29
M  V30 41 1 38 35
M  V30 42 1 39 1
M  V30 43 1 40 1
M  V30 44 1 41 1
M  V30 45 1 42 2
M  V30 46 1 43 2
M  V30 47 1 4 44 CFG=3
M  V30 48 1 45 5
M  V30 49 1 46 5
M  V30 50 1 47 6
M  V30 51 1 48 6
M  V30 52 1 7 49 CFG=1
M  V30 53 1 50 9
M  V30 54 1 51 9
M  V30 55 1 52 10
M  V30 56 1 53 10
M  V30 57 1 54 13
M  V30 58 1 55 14
M  V30 59 1 56 15
M  V30 60 1 57 16
M  V30 61 1 58 19
M  V30 62 1 59 20
M  V30 63 1 60 20
M  V30 64 1 61 20
M  V30 65 1 62 21
M  V30 66 1 63 21
M  V30 67 1 64 21
M  V30 68 1 65 22
M  V30 69 1 66 22
M  V30 70 1 67 23
M  V30 71 1 68 23
M  V30 72 1 69 24
M  V30 73 1 70 24
M  V30 74 1 71 25
M  V30 75 1 72 25
M  V30 76 1 73 30
M  V30 77 1 74 31
M  V30 78 1 75 34
M  V30 79 1 76 34
M  V30 80 1 77 34
M  V30 81 1 78 37
M  V30 82 1 79 37
M  V30 83 1 80 37
M  V30 84 1 81 38
M  V30 85 1 82 8
M  V30 END BOND
M  V30 END CTAB
M  END
>  <b_m_subgroup_collapsed>  (2651) 
0

>  <r_i_docking_score>  (2651) 
-4.9871703341953104

>  <s_m_subgroup_title>  (2651) 
glide-dock_SP_D22_pv

>  <s_m_subgroupid>  (2651) 
glide-dock_SP_D22_pv

>  <Molecule ChEMBL ID>  (2651) 
CHEMBL238401

>  <Standard Type>  (2651) 
Ki

>  <Standard Value>  (2651) 
2.7

>  <label>  (2651) 
1

$$$$
CHEMBL102175
     RDKit          3D

  0  0  0  0  0  0  0  0  0  0999 V3000
M  V30 BEGIN CTAB
M  V30 COUNTS 73 78 0 0 1
M  V30 BEGIN ATOM
M  V30 1 C 11.285920 8.434158 -4.667055 0
M  V30 2 C 11.076744 6.973161 -5.085767 0
M  V30 3 C 11.008313 6.794144 -6.603304 0
M  V30 4 C 9.617089 7.091504 -7.200965 0
M  V30 5 O 9.645486 6.853230 -8.601619 0
M  V30 6 C 10.209776 7.762274 -9.414420 0
M  V30 7 O 10.599355 8.878864 -9.063256 0
M  V30 8 C 10.460741 7.235613 -10.749099 0
M  V30 9 C 9.883072 6.235386 -11.494534 0
M  V30 10 C 10.610406 6.167239 -12.738040 0
M  V30 11 C 10.547476 5.368497 -13.915889 0
M  V30 12 C 11.420185 5.622149 -15.010262 0
M  V30 13 C 12.410148 6.615990 -14.922075 0
M  V30 14 C 12.513448 7.386294 -13.755517 0
M  V30 15 C 11.632625 7.164491 -12.690378 0
M  V30 16 N 11.515077 7.772107 -11.458467 0
M  V30 17 O 11.314515 4.929384 -16.190405 0
M  V30 18 C 10.067638 4.283928 -16.363375 0
M  V30 19 C 9.752234 3.460129 -15.100728 0 CFG=2
M  V30 20 C 8.430016 2.674618 -15.201923 0
M  V30 21 N 8.219450 1.988405 -16.507849 0 CFG=1 CHG=1
M  V30 22 C 8.905691 0.669323 -16.569742 0
M  V30 23 C 8.618165 -0.091559 -17.875217 0
M  V30 24 C 7.110033 -0.229942 -18.216236 0 CFG=1
M  V30 25 C 6.462117 1.172284 -18.145761 0
M  V30 26 C 6.771422 1.941914 -16.849438 0
M  V30 27 C 6.998725 -0.782264 -19.635983 0
M  V30 28 O 7.338858 -0.169739 -20.646683 0
M  V30 29 N 6.491753 -2.009016 -19.607616 0
M  V30 30 C 6.183028 -2.460339 -18.263880 0
M  V30 31 N 6.440024 -1.282981 -17.437243 0
M  V30 32 C 5.549136 -1.028446 -16.374752 0
M  V30 33 C 4.152698 -1.003196 -16.582870 0
M  V30 34 C 3.285204 -0.703303 -15.516684 0
M  V30 35 C 3.785138 -0.399323 -14.242051 0
M  V30 36 C 5.171326 -0.444929 -14.016492 0
M  V30 37 C 6.035964 -0.793200 -15.067460 0
M  V30 38 O 9.611495 4.357298 -13.995324 0
M  V30 39 H 11.303390 8.531900 -3.581520 0
M  V30 40 H 12.228053 8.827150 -5.054285 0
M  V30 41 H 10.485690 9.070067 -5.043044 0
M  V30 42 H 10.165382 6.569027 -4.646997 0
M  V30 43 H 11.897146 6.375339 -4.689048 0
M  V30 44 H 11.275563 5.770586 -6.852819 0
M  V30 45 H 11.772175 7.415513 -7.070945 0
M  V30 46 H 9.302451 8.112633 -6.987364 0
M  V30 47 H 8.870621 6.432757 -6.756519 0
M  V30 48 H 9.045218 5.616077 -11.208354 0
M  V30 49 H 13.077850 6.790348 -15.751863 0
M  V30 50 H 13.281355 8.143530 -13.679904 0
M  V30 51 H 12.087666 8.521567 -11.093213 0
M  V30 52 H 10.148435 3.646390 -17.243765 0
M  V30 53 H 9.286113 5.020008 -16.562868 0
M  V30 54 H 10.576234 2.769475 -14.899976 0
M  V30 55 H 7.611021 3.372439 -15.044668 0
M  V30 56 H 8.352126 1.963854 -14.377817 0
M  V30 57 H 9.980816 0.836019 -16.489328 0
M  V30 58 H 8.648358 0.056661 -15.714657 0
M  V30 59 H 9.088582 -1.074722 -17.833076 0
M  V30 60 H 9.124680 0.442749 -18.682133 0
M  V30 61 H 6.833809 1.767557 -18.979290 0
M  V30 62 H 5.380666 1.109552 -18.289976 0
M  V30 63 H 6.391742 2.964039 -16.957510 0
M  V30 64 H 6.231392 1.520551 -16.010038 0
M  V30 65 H 6.319110 -2.568259 -20.429113 0
M  V30 66 H 6.851577 -3.272721 -17.970589 0
M  V30 67 H 5.159160 -2.833800 -18.212582 0
M  V30 68 H 3.734410 -1.193949 -17.561832 0
M  V30 69 H 2.220821 -0.684885 -15.680603 0
M  V30 70 H 3.097554 -0.149531 -13.447374 0
M  V30 71 H 5.571180 -0.234650 -13.034214 0
M  V30 72 H 7.081672 -0.886074 -14.843353 0
M  V30 73 H 8.645570 2.559685 -17.223671 0
M  V30 END ATOM
M  V30 BEGIN BOND
M  V30 1 1 2 1
M  V30 2 1 3 2
M  V30 3 1 4 3
M  V30 4 1 5 4
M  V30 5 1 6 5
M  V30 6 2 7 6
M  V30 7 1 8 6
M  V30 8 2 9 8
M  V30 9 1 10 9
M  V30 10 1 11 10
M  V30 11 2 12 11
M  V30 12 1 13 12
M  V30 13 2 14 13
M  V30 14 2 15 10
M  V30 15 1 15 14
M  V30 16 1 16 8
M  V30 17 1 16 15
M  V30 18 1 17 12
M  V30 19 1 18 17
M  V30 20 1 19 18
M  V30 21 1 20 19
M  V30 22 1 21 20
M  V30 23 1 22 21
M  V30 24 1 23 22
M  V30 25 1 24 23
M  V30 26 1 25 24
M  V30 27 1 26 21
M  V30 28 1 26 25
M  V30 29 1 27 24
M  V30 30 2 28 27
M  V30 31 1 29 27
M  V30 32 1 30 29
M  V30 33 1 24 31 CFG=1
M  V30 34 1 31 30
M  V30 35 1 32 31
M  V30 36 2 33 32
M  V30 37 1 34 33
M  V30 38 2 35 34
M  V30 39 1 36 35
M  V30 40 1 37 32
M  V30 41 2 37 36
M  V30 42 1 38 11
M  V30 43 1 38 19
M  V30 44 1 39 1
M  V30 45 1 40 1
M  V30 46 1 41 1
M  V30 47 1 42 2
M  V30 48 1 43 2
M  V30 49 1 44 3
M  V30 50 1 45 3
M  V30 51 1 46 4
M  V30 52 1 47 4
M  V30 53 1 48 9
M  V30 54 1 49 13
M  V30 55 1 50 14
M  V30 56 1 51 16
M  V30 57 1 52 18
M  V30 58 1 53 18
M  V30 59 1 19 54 CFG=1
M  V30 60 1 55 20
M  V30 61 1 56 20
M  V30 62 1 57 22
M  V30 63 1 58 22
M  V30 64 1 59 23
M  V30 65 1 60 23
M  V30 66 1 61 25
M  V30 67 1 62 25
M  V30 68 1 63 26
M  V30 69 1 64 26
M  V30 70 1 65 29
M  V30 71 1 66 30
M  V30 72 1 67 30
M  V30 73 1 68 33
M  V30 74 1 69 34
M  V30 75 1 70 35
M  V30 76 1 71 36
M  V30 77 1 72 37
M  V30 78 1 21 73 CFG=3
M  V30 END BOND
M  V30 END CTAB
M  END
>  <b_m_subgroup_collapsed>  (2652) 
0

>  <r_i_docking_score>  (2652) 
-4.98130648043617

>  <s_m_subgroup_title>  (2652) 
glide-dock_SP_D22_pv

>  <s_m_subgroupid>  (2652) 
glide-dock_SP_D22_pv

>  <Molecule ChEMBL ID>  (2652) 
CHEMBL102175

>  <Standard Type>  (2652) 
Ki

>  <Standard Value>  (2652) 
5.7

>  <label>  (2652) 
1

$$$$
CHEMBL5191141
     RDKit          3D

  0  0  0  0  0  0  0  0  0  0999 V3000
M  V30 BEGIN CTAB
M  V30 COUNTS 53 56 0 0 1
M  V30 BEGIN ATOM
M  V30 1 H 4.896308 -2.213944 -14.585900 0 MASS=2
M  V30 2 C 5.524231 -1.359757 -14.800994 0
M  V30 3 C 5.443727 -0.740487 -16.061941 0
M  V30 4 H 4.737415 -1.104976 -16.793028 0 MASS=2
M  V30 5 C 6.285411 0.346488 -16.372807 0
M  V30 6 H 6.207958 0.819168 -17.340002 0 MASS=2
M  V30 7 C 7.215405 0.818194 -15.421666 0
M  V30 8 C 8.084792 2.032020 -15.720599 0 CFG=2
M  V30 9 C 9.574848 1.691460 -15.989692 0
M  V30 10 C 10.445770 2.740670 -15.242134 0 CFG=1
M  V30 11 N 11.062678 3.723933 -16.182787 0 CFG=1 CHG=1
M  V30 12 C 10.124611 4.710519 -16.782459 0
M  V30 13 C 10.836380 5.572254 -17.835739 0
M  V30 14 N 11.996996 6.243863 -17.246202 0
M  V30 15 C 12.536695 7.194572 -18.217661 0
M  V30 16 H 12.922819 6.690832 -19.105268 0 MASS=2
M  V30 17 H 11.758127 7.886490 -18.543480 0 MASS=2
M  V30 18 H 13.329252 7.805845 -17.785620 0 MASS=2
M  V30 19 C 12.974755 5.283793 -16.683395 0
M  V30 20 C 13.617265 4.373705 -17.758675 0
M  V30 21 C 14.101211 6.059479 -15.967080 0
M  V30 22 C 12.233776 4.436711 -15.611507 0
M  V30 23 C 9.467199 3.370846 -14.279643 0
M  V30 24 C 9.761441 4.222926 -13.199861 0
M  V30 25 C 8.691061 4.742880 -12.441971 0
M  V30 26 Cl 9.022211 5.799700 -11.119828 0
M  V30 27 C 7.352968 4.407800 -12.765112 0
M  V30 28 C 7.074685 3.531049 -13.836669 0
M  V30 29 C 8.156474 3.009162 -14.570942 0
M  V30 30 C 7.304706 0.172678 -14.166234 0
M  V30 31 H 8.029755 0.514292 -13.444916 0 MASS=2
M  V30 32 C 6.453166 -0.900445 -13.846931 0
M  V30 33 H 6.531699 -1.387824 -12.883726 0 MASS=2
M  V30 34 H 7.668814 2.569246 -16.571375 0
M  V30 35 H 9.808094 1.574839 -17.047682 0
M  V30 36 H 9.793767 0.728612 -15.525196 0
M  V30 37 H 11.228687 2.225129 -14.684200 0
M  V30 38 H 9.288095 4.196095 -17.254278 0
M  V30 39 H 9.702841 5.361546 -16.012922 0
M  V30 40 H 11.126401 4.974062 -18.699183 0
M  V30 41 H 10.133291 6.322909 -18.202555 0
M  V30 42 H 14.336006 3.691640 -17.302578 0
M  V30 43 H 12.894585 3.752694 -18.289227 0
M  V30 44 H 14.169967 4.946451 -18.506660 0
M  V30 45 H 14.768490 5.373723 -15.446458 0
M  V30 46 H 14.722842 6.626054 -16.661583 0
M  V30 47 H 13.707963 6.757661 -15.224954 0
M  V30 48 H 11.904286 5.081568 -14.795074 0
M  V30 49 H 12.921550 3.714578 -15.174655 0
M  V30 50 H 10.780522 4.480244 -12.953337 0
M  V30 51 H 6.541873 4.813120 -12.176224 0
M  V30 52 H 6.057513 3.252534 -14.072400 0
M  V30 53 H 11.434857 3.183996 -16.949610 0
M  V30 END ATOM
M  V30 BEGIN BOND
M  V30 1 1 2 1
M  V30 2 2 3 2
M  V30 3 1 4 3
M  V30 4 1 5 3
M  V30 5 1 6 5
M  V30 6 2 7 5
M  V30 7 1 8 7
M  V30 8 1 9 8
M  V30 9 1 10 9
M  V30 10 1 11 10
M  V30 11 1 12 11
M  V30 12 1 13 12
M  V30 13 1 14 13
M  V30 14 1 15 14
M  V30 15 1 16 15
M  V30 16 1 17 15
M  V30 17 1 18 15
M  V30 18 1 19 14
M  V30 19 1 20 19
M  V30 20 1 21 19
M  V30 21 1 22 11
M  V30 22 1 22 19
M  V30 23 1 23 10
M  V30 24 1 24 23
M  V30 25 2 25 24
M  V30 26 1 26 25
M  V30 27 1 27 25
M  V30 28 2 28 27
M  V30 29 1 29 8
M  V30 30 2 29 23
M  V30 31 1 29 28
M  V30 32 1 30 7
M  V30 33 1 31 30
M  V30 34 1 32 2
M  V30 35 2 32 30
M  V30 36 1 33 32
M  V30 37 1 8 34 CFG=3
M  V30 38 1 35 9
M  V30 39 1 36 9
M  V30 40 1 10 37 CFG=1
M  V30 41 1 38 12
M  V30 42 1 39 12
M  V30 43 1 40 13
M  V30 44 1 41 13
M  V30 45 1 42 20
M  V30 46 1 43 20
M  V30 47 1 44 20
M  V30 48 1 45 21
M  V30 49 1 46 21
M  V30 50 1 47 21
M  V30 51 1 48 22
M  V30 52 1 49 22
M  V30 53 1 50 24
M  V30 54 1 51 27
M  V30 55 1 52 28
M  V30 56 1 11 53 CFG=3
M  V30 END BOND
M  V30 END CTAB
M  END
>  <b_m_subgroup_collapsed>  (2653) 
0

>  <r_i_docking_score>  (2653) 
-4.9697381668732996

>  <s_m_subgroup_title>  (2653) 
glide-dock_SP_D22_pv

>  <s_m_subgroupid>  (2653) 
glide-dock_SP_D22_pv

>  <Molecule ChEMBL ID>  (2653) 
CHEMBL5191141

>  <Standard Type>  (2653) 
Ki

>  <Standard Value>  (2653) 
4.1

>  <label>  (2653) 
1

$$$$
CHEMBL40650
     RDKit          3D

  0  0  0  0  0  0  0  0  0  0999 V3000
M  V30 BEGIN CTAB
M  V30 COUNTS 55 60 0 0 1
M  V30 BEGIN ATOM
M  V30 1 C 5.172717 4.189396 -12.962884 0
M  V30 2 O 6.086638 3.313705 -13.593929 0
M  V30 3 C 7.417557 3.666540 -13.626230 0
M  V30 4 C 7.934045 4.854793 -13.049705 0
M  V30 5 C 9.309967 5.142385 -13.120898 0
M  V30 6 C 10.185368 4.255585 -13.773361 0
M  V30 7 C 9.688909 3.067801 -14.344678 0
M  V30 8 C 8.308770 2.771141 -14.263774 0
M  V30 9 C 7.806414 1.459966 -14.849560 0
M  V30 10 C 8.804388 0.327145 -14.591390 0
M  V30 11 C 10.217621 0.633474 -15.113437 0 CFG=1
M  V30 12 C 10.420027 0.216620 -16.573723 0
M  V30 13 N 11.282635 1.253995 -17.121595 0
M  V30 14 C 11.468698 1.235656 -18.574184 0
M  V30 15 C 10.275385 1.686330 -19.466146 0
M  V30 16 N 9.154969 0.715404 -19.543655 0
M  V30 17 C 9.361817 -0.504727 -20.157091 0
M  V30 18 O 10.442625 -0.709457 -20.708397 0
M  V30 19 N 8.374413 -1.459072 -20.150375 0 CHG=-1
M  V30 20 C 7.167999 -1.199995 -19.595434 0
M  V30 21 C 6.927497 0.022229 -19.044443 0
M  V30 22 S 5.342078 0.253486 -18.381559 0
M  V30 23 C 4.922699 -1.398188 -18.829660 0
M  V30 24 C 3.708549 -2.068675 -18.615465 0
M  V30 25 C 3.603900 -3.397378 -19.047537 0
M  V30 26 C 4.720485 -3.982823 -19.669437 0
M  V30 27 N 5.892896 -3.348868 -19.892382 0
M  V30 28 C 6.012624 -2.076672 -19.480022 0
M  V30 29 C 7.946303 1.075313 -19.010258 0
M  V30 30 O 7.687936 2.172323 -18.511799 0
M  V30 31 C 10.811014 2.497480 -16.536631 0
M  V30 32 C 10.636866 2.116894 -15.064242 0 CFG=1
M  V30 33 H 4.169285 3.772367 -13.047110 0
M  V30 34 H 5.168322 5.167027 -13.447145 0
M  V30 35 H 5.396770 4.308204 -11.901961 0
M  V30 36 H 7.296301 5.561165 -12.538160 0
M  V30 37 H 9.691889 6.049380 -12.673518 0
M  V30 38 H 11.239505 4.489581 -13.831298 0
M  V30 39 H 6.843885 1.180789 -14.421224 0
M  V30 40 H 7.645561 1.592514 -15.918328 0
M  V30 41 H 8.872364 0.172055 -13.514742 0
M  V30 42 H 8.433408 -0.605249 -15.017591 0
M  V30 43 H 10.910195 0.056969 -14.502422 0
M  V30 44 H 10.867825 -0.769071 -16.675171 0
M  V30 45 H 9.458315 0.191811 -17.073301 0
M  V30 46 H 12.300427 1.909894 -18.779148 0
M  V30 47 H 11.826668 0.246437 -18.860727 0
M  V30 48 H 9.958698 2.689071 -19.182241 0
M  V30 49 H 10.652191 1.827707 -20.481098 0
M  V30 50 H 2.885450 -1.576663 -18.117605 0
M  V30 51 H 2.703487 -3.969201 -18.866594 0
M  V30 52 H 4.675047 -5.010203 -19.997746 0
M  V30 53 H 11.507630 3.322928 -16.682289 0
M  V30 54 H 9.847507 2.775186 -16.965946 0
M  V30 55 H 11.610941 2.175375 -14.575806 0
M  V30 END ATOM
M  V30 BEGIN BOND
M  V30 1 1 2 1
M  V30 2 1 3 2
M  V30 3 1 4 3
M  V30 4 2 5 4
M  V30 5 1 6 5
M  V30 6 2 7 6
M  V30 7 2 8 3
M  V30 8 1 8 7
M  V30 9 1 9 8
M  V30 10 1 10 9
M  V30 11 1 11 10
M  V30 12 1 12 11
M  V30 13 1 13 12
M  V30 14 1 14 13
M  V30 15 1 15 14
M  V30 16 1 16 15
M  V30 17 1 17 16
M  V30 18 2 18 17
M  V30 19 1 19 17
M  V30 20 1 20 19
M  V30 21 2 21 20
M  V30 22 1 22 21
M  V30 23 1 23 22
M  V30 24 2 24 23
M  V30 25 1 25 24
M  V30 26 2 26 25
M  V30 27 1 27 26
M  V30 28 1 28 20
M  V30 29 1 28 23
M  V30 30 2 28 27
M  V30 31 1 29 16
M  V30 32 1 29 21
M  V30 33 2 30 29
M  V30 34 1 31 13
M  V30 35 1 32 7
M  V30 36 1 32 11
M  V30 37 1 32 31
M  V30 38 1 33 1
M  V30 39 1 34 1
M  V30 40 1 35 1
M  V30 41 1 36 4
M  V30 42 1 37 5
M  V30 43 1 38 6
M  V30 44 1 39 9
M  V30 45 1 40 9
M  V30 46 1 41 10
M  V30 47 1 42 10
M  V30 48 1 11 43 CFG=1
M  V30 49 1 44 12
M  V30 50 1 45 12
M  V30 51 1 46 14
M  V30 52 1 47 14
M  V30 53 1 48 15
M  V30 54 1 49 15
M  V30 55 1 50 24
M  V30 56 1 51 25
M  V30 57 1 52 26
M  V30 58 1 53 31
M  V30 59 1 54 31
M  V30 60 1 32 55 CFG=1
M  V30 END BOND
M  V30 END CTAB
M  END
>  <b_m_subgroup_collapsed>  (2654) 
0

>  <r_i_docking_score>  (2654) 
-4.9596638761219198

>  <s_m_subgroup_title>  (2654) 
glide-dock_SP_D22_pv

>  <s_m_subgroupid>  (2654) 
glide-dock_SP_D22_pv

>  <Molecule ChEMBL ID>  (2654) 
CHEMBL40650

>  <Standard Type>  (2654) 
Ki

>  <Standard Value>  (2654) 
19.7

>  <label>  (2654) 
1

$$$$
CHEMBL574595
     RDKit          3D

  0  0  0  0  0  0  0  0  0  0999 V3000
M  V30 BEGIN CTAB
M  V30 COUNTS 92 97 0 0 1
M  V30 BEGIN ATOM
M  V30 1 C 8.056994 7.182238 -12.224776 0
M  V30 2 O 9.465243 7.156370 -12.246896 0
M  V30 3 C 10.167408 7.593610 -11.145831 0
M  V30 4 C 9.565896 7.946130 -9.912558 0
M  V30 5 C 10.353682 8.405765 -8.840919 0
M  V30 6 C 11.747496 8.518682 -8.991373 0
M  V30 7 C 12.352545 8.172408 -10.214227 0
M  V30 8 C 11.570792 7.706652 -11.293673 0
M  V30 9 N 12.163084 7.372243 -12.524277 0
M  V30 10 C 12.010334 6.029377 -13.079799 0
M  V30 11 C 11.883018 6.075487 -14.614189 0
M  V30 12 N 13.021594 6.807432 -15.184815 0
M  V30 13 C 12.999124 6.852578 -16.645575 0
M  V30 14 C 13.157219 5.446658 -17.245987 0
M  V30 15 C 13.575427 5.456214 -18.723536 0
M  V30 16 N 13.485564 4.121837 -19.280111 0
M  V30 17 C 12.529123 3.621428 -20.135525 0
M  V30 18 C 12.840038 2.294506 -20.210951 0
M  V30 19 C 12.082634 1.187094 -20.878292 0
M  V30 20 C 11.151748 0.453465 -19.894037 0
M  V30 21 C 10.065938 1.360704 -19.282387 0
M  V30 22 N 9.315362 0.652174 -18.211288 0 CFG=1 CHG=1
M  V30 23 C 9.415624 1.350239 -16.908386 0
M  V30 24 C 9.086384 0.433963 -15.732355 0
M  V30 25 C 7.599624 0.265345 -15.486961 0
M  V30 26 C 7.100432 0.693646 -14.243027 0
M  V30 27 C 5.764611 0.465167 -13.880939 0
M  V30 28 O 5.286035 0.903107 -12.683712 0
M  V30 29 C 4.918620 -0.227460 -14.757895 0
M  V30 30 O 3.633779 -0.502221 -14.382531 0
M  V30 31 C 5.398548 -0.627566 -16.017605 0
M  V30 32 C 6.734598 -0.353163 -16.425900 0
M  V30 33 C 7.260778 -0.820623 -17.797934 0 CFG=1
M  V30 34 C 6.183049 -1.491492 -18.655128 0
M  V30 35 C 5.131340 -0.686020 -19.147520 0
M  V30 36 C 4.086224 -1.249507 -19.889477 0
M  V30 37 C 4.090624 -2.622255 -20.188337 0
M  V30 38 C 5.143993 -3.431731 -19.729954 0
M  V30 39 C 6.196360 -2.881025 -18.966976 0
M  V30 40 C 7.293149 -3.822519 -18.499865 0
M  V30 41 C 7.939609 0.290670 -18.637157 0
M  V30 42 N 13.981796 2.055842 -19.448227 0
M  V30 43 N 14.369022 3.165789 -18.904665 0
M  V30 44 C 12.979096 8.172011 -14.658075 0
M  V30 45 C 13.215055 8.173306 -13.136014 0
M  V30 46 H 7.672445 6.822751 -13.176722 0
M  V30 47 H 7.684942 6.518600 -11.447088 0
M  V30 48 H 7.687443 8.196336 -12.074871 0
M  V30 49 H 8.496396 7.871328 -9.765027 0
M  V30 50 H 9.882819 8.669450 -7.905435 0
M  V30 51 H 12.352077 8.873849 -8.170073 0
M  V30 52 H 13.422675 8.266233 -10.317959 0
M  V30 53 H 11.157556 5.509537 -12.647038 0
M  V30 54 H 12.886039 5.442537 -12.815889 0
M  V30 55 H 10.933890 6.528608 -14.908113 0
M  V30 56 H 11.868973 5.049510 -14.977254 0
M  V30 57 H 13.838492 7.465176 -16.975967 0
M  V30 58 H 12.093829 7.341805 -17.007866 0
M  V30 59 H 12.215983 4.906275 -17.150452 0
M  V30 60 H 13.897755 4.884817 -16.675087 0
M  V30 61 H 14.595120 5.824839 -18.841757 0
M  V30 62 H 12.925332 6.115274 -19.299547 0
M  V30 63 H 11.721927 4.211257 -20.545206 0
M  V30 64 H 12.782285 0.472800 -21.314325 0
M  V30 65 H 11.499617 1.580180 -21.711336 0
M  V30 66 H 11.760764 0.021446 -19.098579 0
M  V30 67 H 10.678254 -0.384523 -20.406853 0
M  V30 68 H 9.395916 1.716868 -20.066589 0
M  V30 69 H 10.521875 2.263827 -18.877941 0
M  V30 70 H 10.451740 1.666240 -16.770699 0
M  V30 71 H 8.807061 2.256087 -16.892277 0
M  V30 72 H 9.550406 0.848276 -14.835567 0
M  V30 73 H 9.544601 -0.547744 -15.858896 0
M  V30 74 H 7.759386 1.177851 -13.541270 0
M  V30 75 H 4.344680 0.808910 -12.672288 0
M  V30 76 H 3.154864 -0.991682 -15.036491 0
M  V30 77 H 4.710747 -1.165579 -16.651100 0
M  V30 78 H 8.029419 -1.549478 -17.572351 0
M  V30 79 H 5.094123 0.368781 -18.916414 0
M  V30 80 H 3.285931 -0.616610 -20.238997 0
M  V30 81 H 3.286422 -3.051529 -20.768660 0
M  V30 82 H 5.133308 -4.486070 -19.964643 0
M  V30 83 H 7.266495 -4.760563 -19.054310 0
M  V30 84 H 8.284369 -3.397958 -18.646759 0
M  V30 85 H 7.156315 -4.063901 -17.447048 0
M  V30 86 H 8.031967 -0.089159 -19.657049 0
M  V30 87 H 7.313012 1.180197 -18.700991 0
M  V30 88 H 13.686010 8.818073 -15.169896 0
M  V30 89 H 12.002034 8.572335 -14.870325 0
M  V30 90 H 13.285981 9.185119 -12.740958 0
M  V30 91 H 14.183682 7.772362 -12.902895 0
M  V30 92 H 9.805719 -0.223027 -18.085106 0
M  V30 END ATOM
M  V30 BEGIN BOND
M  V30 1 1 2 1
M  V30 2 1 3 2
M  V30 3 2 4 3
M  V30 4 1 5 4
M  V30 5 2 6 5
M  V30 6 1 7 6
M  V30 7 1 8 3
M  V30 8 2 8 7
M  V30 9 1 9 8
M  V30 10 1 10 9
M  V30 11 1 11 10
M  V30 12 1 12 11
M  V30 13 1 13 12
M  V30 14 1 14 13
M  V30 15 1 15 14
M  V30 16 1 16 15
M  V30 17 1 17 16
M  V30 18 2 18 17
M  V30 19 1 19 18
M  V30 20 1 20 19
M  V30 21 1 21 20
M  V30 22 1 22 21
M  V30 23 1 23 22
M  V30 24 1 24 23
M  V30 25 1 25 24
M  V30 26 1 26 25
M  V30 27 2 27 26
M  V30 28 1 28 27
M  V30 29 1 29 27
M  V30 30 1 30 29
M  V30 31 2 31 29
M  V30 32 2 32 25
M  V30 33 1 32 31
M  V30 34 1 33 32
M  V30 35 1 34 33
M  V30 36 2 35 34
M  V30 37 1 36 35
M  V30 38 2 37 36
M  V30 39 1 38 37
M  V30 40 1 39 34
M  V30 41 2 39 38
M  V30 42 1 40 39
M  V30 43 1 41 22
M  V30 44 1 41 33
M  V30 45 1 42 18
M  V30 46 1 43 16
M  V30 47 2 43 42
M  V30 48 1 44 12
M  V30 49 1 45 9
M  V30 50 1 45 44
M  V30 51 1 46 1
M  V30 52 1 47 1
M  V30 53 1 48 1
M  V30 54 1 49 4
M  V30 55 1 50 5
M  V30 56 1 51 6
M  V30 57 1 52 7
M  V30 58 1 53 10
M  V30 59 1 54 10
M  V30 60 1 55 11
M  V30 61 1 56 11
M  V30 62 1 57 13
M  V30 63 1 58 13
M  V30 64 1 59 14
M  V30 65 1 60 14
M  V30 66 1 61 15
M  V30 67 1 62 15
M  V30 68 1 63 17
M  V30 69 1 64 19
M  V30 70 1 65 19
M  V30 71 1 66 20
M  V30 72 1 67 20
M  V30 73 1 68 21
M  V30 74 1 69 21
M  V30 75 1 70 23
M  V30 76 1 71 23
M  V30 77 1 72 24
M  V30 78 1 73 24
M  V30 79 1 74 26
M  V30 80 1 75 28
M  V30 81 1 76 30
M  V30 82 1 77 31
M  V30 83 1 33 78 CFG=1
M  V30 84 1 79 35
M  V30 85 1 80 36
M  V30 86 1 81 37
M  V30 87 1 82 38
M  V30 88 1 83 40
M  V30 89 1 84 40
M  V30 90 1 85 40
M  V30 91 1 86 41
M  V30 92 1 87 41
M  V30 93 1 88 44
M  V30 94 1 89 44
M  V30 95 1 90 45
M  V30 96 1 91 45
M  V30 97 1 22 92 CFG=1
M  V30 END BOND
M  V30 END CTAB
M  END
>  <b_m_subgroup_collapsed>  (2655) 
0

>  <r_i_docking_score>  (2655) 
-4.9593910580228702

>  <s_m_subgroup_title>  (2655) 
glide-dock_SP_D22_pv

>  <s_m_subgroupid>  (2655) 
glide-dock_SP_D22_pv

>  <Molecule ChEMBL ID>  (2655) 
CHEMBL574595

>  <Standard Type>  (2655) 
Ki

>  <Standard Value>  (2655) 
39.1

>  <label>  (2655) 
1

$$$$
CHEMBL5091656
     RDKit          3D

  0  0  0  0  0  0  0  0  0  0999 V3000
M  V30 BEGIN CTAB
M  V30 COUNTS 73 76 0 0 1
M  V30 BEGIN ATOM
M  V30 1 C 4.118106 -1.114193 -19.960756 0
M  V30 2 C 5.361820 -0.344290 -19.490110 0
M  V30 3 C 5.566594 -0.286925 -17.977528 0
M  V30 4 C 4.526073 -0.632338 -17.091778 0
M  V30 5 C 4.722800 -0.603163 -15.703739 0
M  V30 6 Cl 3.384958 -1.027797 -14.696741 0
M  V30 7 C 5.977015 -0.218723 -15.168159 0
M  V30 8 O 6.202353 -0.276862 -13.813607 0
M  V30 9 C 5.550302 0.726935 -13.058578 0
M  V30 10 C 7.026819 0.171283 -16.045397 0
M  V30 11 C 8.360486 0.624994 -15.507573 0
M  V30 12 O 9.411679 0.139042 -15.925576 0
M  V30 13 N 8.316110 1.653674 -14.647988 0
M  V30 14 C 9.461351 2.373484 -14.093615 0
M  V30 15 C 9.976393 3.488494 -15.032183 0 CFG=2
M  V30 16 C 10.735108 2.962909 -16.260387 0
M  V30 17 C 11.707088 4.084325 -16.589003 0
M  V30 18 C 12.118632 4.575859 -15.205401 0
M  V30 19 N 10.927976 4.402594 -14.333216 0 CFG=1 CHG=1
M  V30 20 C 10.320492 5.677573 -13.846237 0
M  V30 21 C 10.370962 5.783077 -12.311306 0
M  V30 22 C 9.207846 6.493430 -11.552952 0
M  V30 23 C 9.039088 7.892475 -11.946865 0
M  V30 24 N 8.885966 8.990950 -12.247274 0
M  V30 25 C 7.882131 5.777744 -11.894225 0
M  V30 26 C 7.682458 4.446157 -11.519030 0
M  V30 27 C 6.492142 3.772196 -11.846512 0
M  V30 28 C 5.507651 4.365048 -12.631877 0
M  V30 29 C 5.687009 5.691157 -13.019411 0
M  V30 30 C 6.848685 6.395955 -12.646813 0
M  V30 31 C 9.614168 6.590132 -10.063850 0
M  V30 32 C 10.747359 7.373285 -9.718462 0
M  V30 33 C 11.135322 7.557501 -8.377837 0
M  V30 34 C 10.387876 6.966115 -7.346165 0
M  V30 35 C 9.257957 6.194764 -7.667329 0
M  V30 36 C 8.883360 5.999252 -9.009790 0
M  V30 37 C 6.815915 0.116872 -17.450024 0
M  V30 38 O 7.817966 0.464714 -18.317719 0
M  V30 39 H 4.097902 -1.177150 -21.047068 0
M  V30 40 H 4.108698 -2.133989 -19.575914 0
M  V30 41 H 3.198574 -0.620255 -19.647573 0
M  V30 42 H 5.323408 0.676353 -19.870701 0
M  V30 43 H 6.239480 -0.810046 -19.939817 0
M  V30 44 H 3.555294 -0.934037 -17.455378 0
M  V30 45 H 5.887306 0.664900 -12.025600 0
M  V30 46 H 5.791888 1.709484 -13.457278 0
M  V30 47 H 4.468785 0.634627 -13.046900 0
M  V30 48 H 7.399689 1.977338 -14.374270 0
M  V30 49 H 9.145843 2.808220 -13.147421 0
M  V30 50 H 10.263535 1.676432 -13.847924 0
M  V30 51 H 9.126838 4.057653 -15.410559 0
M  V30 52 H 11.300226 2.064220 -16.007877 0
M  V30 53 H 10.073864 2.720518 -17.093863 0
M  V30 54 H 12.553110 3.752257 -17.190912 0
M  V30 55 H 11.193860 4.878660 -17.131760 0
M  V30 56 H 12.907132 3.931593 -14.815379 0
M  V30 57 H 12.526975 5.586587 -15.235276 0
M  V30 58 H 10.886005 6.523119 -14.251387 0
M  V30 59 H 9.294250 5.772442 -14.198222 0
M  V30 60 H 10.476824 4.782699 -11.890083 0
M  V30 61 H 11.293954 6.310419 -12.095282 0
M  V30 62 H 8.443954 3.950278 -10.948230 0
M  V30 63 H 6.316588 2.787474 -11.458863 0
M  V30 64 H 4.604706 3.830655 -12.888497 0
M  V30 65 H 4.922010 6.175327 -13.598950 0
M  V30 66 H 6.910773 7.422353 -12.970672 0
M  V30 67 H 11.325886 7.868002 -10.484140 0
M  V30 68 H 11.997964 8.163830 -8.143074 0
M  V30 69 H 10.667263 7.114120 -6.313457 0
M  V30 70 H 8.655176 5.772376 -6.878178 0
M  V30 71 H 7.982942 5.438856 -9.198432 0
M  V30 72 H 8.670328 0.447601 -17.903971 0
M  V30 73 H 11.260468 3.909663 -13.517056 0
M  V30 END ATOM
M  V30 BEGIN BOND
M  V30 1 1 2 1
M  V30 2 1 3 2
M  V30 3 1 4 3
M  V30 4 2 5 4
M  V30 5 1 6 5
M  V30 6 1 7 5
M  V30 7 1 8 7
M  V30 8 1 9 8
M  V30 9 2 10 7
M  V30 10 1 11 10
M  V30 11 2 12 11
M  V30 12 1 13 11
M  V30 13 1 14 13
M  V30 14 1 15 14
M  V30 15 1 16 15
M  V30 16 1 17 16
M  V30 17 1 18 17
M  V30 18 1 19 15
M  V30 19 1 19 18
M  V30 20 1 20 19
M  V30 21 1 21 20
M  V30 22 1 22 21
M  V30 23 1 23 22
M  V30 24 3 24 23
M  V30 25 1 25 22
M  V30 26 2 26 25
M  V30 27 1 27 26
M  V30 28 2 28 27
M  V30 29 1 29 28
M  V30 30 1 30 25
M  V30 31 2 30 29
M  V30 32 1 31 22
M  V30 33 2 32 31
M  V30 34 1 33 32
M  V30 35 2 34 33
M  V30 36 1 35 34
M  V30 37 1 36 31
M  V30 38 2 36 35
M  V30 39 2 37 3
M  V30 40 1 37 10
M  V30 41 1 38 37
M  V30 42 1 39 1
M  V30 43 1 40 1
M  V30 44 1 41 1
M  V30 45 1 42 2
M  V30 46 1 43 2
M  V30 47 1 44 4
M  V30 48 1 45 9
M  V30 49 1 46 9
M  V30 50 1 47 9
M  V30 51 1 48 13
M  V30 52 1 49 14
M  V30 53 1 50 14
M  V30 54 1 15 51 CFG=3
M  V30 55 1 52 16
M  V30 56 1 53 16
M  V30 57 1 54 17
M  V30 58 1 55 17
M  V30 59 1 56 18
M  V30 60 1 57 18
M  V30 61 1 58 20
M  V30 62 1 59 20
M  V30 63 1 60 21
M  V30 64 1 61 21
M  V30 65 1 62 26
M  V30 66 1 63 27
M  V30 67 1 64 28
M  V30 68 1 65 29
M  V30 69 1 66 30
M  V30 70 1 67 32
M  V30 71 1 68 33
M  V30 72 1 69 34
M  V30 73 1 70 35
M  V30 74 1 71 36
M  V30 75 1 72 38
M  V30 76 1 19 73 CFG=1
M  V30 END BOND
M  V30 END CTAB
M  END
>  <b_m_subgroup_collapsed>  (2656) 
0

>  <r_i_docking_score>  (2656) 
-4.9293328025167504

>  <s_m_subgroup_title>  (2656) 
glide-dock_SP_D22_pv

>  <s_m_subgroupid>  (2656) 
glide-dock_SP_D22_pv

>  <Molecule ChEMBL ID>  (2656) 
CHEMBL5091656

>  <Standard Type>  (2656) 
Ki

>  <Standard Value>  (2656) 
12400.0

>  <label>  (2656) 
0

$$$$
CHEMBL154274
     RDKit          3D

  0  0  0  0  0  0  0  0  0  0999 V3000
M  V30 BEGIN CTAB
M  V30 COUNTS 45 47 0 0 1
M  V30 BEGIN ATOM
M  V30 1 C 12.414344 6.894050 -15.062998 0
M  V30 2 O 11.342484 6.172330 -14.473421 0
M  V30 3 C 11.080644 4.891333 -14.911318 0
M  V30 4 C 11.848009 4.254656 -15.919393 0
M  V30 5 C 11.548608 2.945426 -16.331623 0
M  V30 6 C 10.486010 2.246849 -15.729821 0
M  V30 7 S 10.189446 0.531276 -16.197168 0
M  V30 8 O 10.086022 -0.220247 -14.937745 0
M  V30 9 O 11.286020 0.172325 -17.110273 0
M  V30 10 N 8.780002 0.693910 -16.995050 0 CHG=-1
M  V30 11 C 7.527575 0.409098 -16.583223 0
M  V30 12 C 7.130193 0.443291 -15.224921 0
M  V30 13 C 5.806293 0.189897 -14.834200 0
M  V30 14 Br 5.286022 0.572324 -13.046865 0
M  V30 15 C 4.860504 -0.227676 -15.783593 0
M  V30 16 C 5.234402 -0.300041 -17.136690 0
M  V30 17 C 6.542042 0.043652 -17.535677 0
M  V30 18 Br 6.954438 -0.007042 -19.397549 0
M  V30 19 C 9.719162 2.870979 -14.725345 0
M  V30 20 C 9.990349 4.197478 -14.320215 0
M  V30 21 N 9.198523 4.825353 -13.332613 0
M  V30 22 C 7.793102 4.445148 -13.210153 0
M  V30 23 C 7.017801 5.490749 -12.383082 0
M  V30 24 N 7.686022 5.772324 -11.092239 0 CHG=1
M  V30 25 C 9.113099 6.128578 -11.234941 0
M  V30 26 C 9.876731 5.085326 -12.068442 0
M  V30 27 H 12.475823 7.881367 -14.605210 0
M  V30 28 H 13.370551 6.395593 -14.899032 0
M  V30 29 H 12.257052 7.038316 -16.132721 0
M  V30 30 H 12.682178 4.747780 -16.393728 0
M  V30 31 H 12.156608 2.475561 -17.091051 0
M  V30 32 H 7.823090 0.687826 -14.441439 0
M  V30 33 H 3.842407 -0.434377 -15.488640 0
M  V30 34 H 4.504841 -0.589304 -17.878590 0
M  V30 35 H 8.938242 2.322882 -14.236598 0
M  V30 36 H 7.344063 4.345907 -14.199501 0
M  V30 37 H 7.722580 3.470793 -12.726888 0
M  V30 38 H 6.946904 6.424816 -12.941788 0
M  V30 39 H 5.997117 5.155961 -12.195489 0
M  V30 40 H 7.207715 6.583690 -10.666078 0
M  V30 41 H 9.176922 7.103509 -11.720627 0
M  V30 42 H 9.561273 6.237133 -10.247038 0
M  V30 43 H 9.966341 4.148156 -11.516510 0
M  V30 44 H 10.886022 5.447865 -12.246865 0
M  V30 45 H 7.579577 4.976099 -10.480431 0
M  V30 END ATOM
M  V30 BEGIN BOND
M  V30 1 1 2 1
M  V30 2 1 3 2
M  V30 3 1 4 3
M  V30 4 2 5 4
M  V30 5 1 6 5
M  V30 6 1 7 6
M  V30 7 2 8 7
M  V30 8 2 9 7
M  V30 9 1 10 7
M  V30 10 1 11 10
M  V30 11 1 12 11
M  V30 12 2 13 12
M  V30 13 1 14 13
M  V30 14 1 15 13
M  V30 15 2 16 15
M  V30 16 2 17 11
M  V30 17 1 17 16
M  V30 18 1 18 17
M  V30 19 2 19 6
M  V30 20 2 20 3
M  V30 21 1 20 19
M  V30 22 1 21 20
M  V30 23 1 22 21
M  V30 24 1 23 22
M  V30 25 1 24 23
M  V30 26 1 25 24
M  V30 27 1 26 21
M  V30 28 1 26 25
M  V30 29 1 27 1
M  V30 30 1 28 1
M  V30 31 1 29 1
M  V30 32 1 30 4
M  V30 33 1 31 5
M  V30 34 1 32 12
M  V30 35 1 33 15
M  V30 36 1 34 16
M  V30 37 1 35 19
M  V30 38 1 36 22
M  V30 39 1 37 22
M  V30 40 1 38 23
M  V30 41 1 39 23
M  V30 42 1 40 24
M  V30 43 1 41 25
M  V30 44 1 42 25
M  V30 45 1 43 26
M  V30 46 1 44 26
M  V30 47 1 45 24
M  V30 END BOND
M  V30 END CTAB
M  END
>  <b_m_subgroup_collapsed>  (2657) 
0

>  <r_i_docking_score>  (2657) 
-4.9257945740627402

>  <s_m_subgroup_title>  (2657) 
glide-dock_SP_D22_pv

>  <s_m_subgroupid>  (2657) 
glide-dock_SP_D22_pv

>  <Molecule ChEMBL ID>  (2657) 
CHEMBL154274

>  <Standard Type>  (2657) 
Ki

>  <Standard Value>  (2657) 
10000.0

>  <label>  (2657) 
0

$$$$
CHEMBL390473
     RDKit          3D

  0  0  0  0  0  0  0  0  0  0999 V3000
M  V30 BEGIN CTAB
M  V30 COUNTS 77 80 0 0 1
M  V30 BEGIN ATOM
M  V30 1 C 3.822603 0.001763 -19.365273 0
M  V30 2 O 4.878396 0.784824 -19.906891 0
M  V30 3 C 6.131994 0.676607 -19.339607 0
M  V30 4 C 6.393230 -0.069323 -18.161337 0
M  V30 5 C 7.687840 -0.114797 -17.616745 0
M  V30 6 C 8.733236 0.576609 -18.251574 0
M  V30 7 S 10.386869 0.497722 -17.578688 0
M  V30 8 O 11.145718 1.673160 -18.033566 0
M  V30 9 O 10.886422 -0.861248 -17.838705 0
M  V30 10 N 10.132874 0.665602 -15.873087 0
M  V30 11 C 9.738061 1.963418 -15.306110 0 CFG=1
M  V30 12 C 8.403689 1.841890 -14.545860 0
M  V30 13 C 8.001730 3.173018 -13.875411 0
M  V30 14 C 9.112597 3.716046 -12.951967 0 CFG=2
M  V30 15 N 8.664450 4.954476 -12.232937 0 CFG=2 CHG=1
M  V30 16 C 8.985309 6.215097 -12.940528 0
M  V30 17 C 8.570565 7.492736 -12.167184 0
M  V30 18 C 8.976392 7.490772 -10.668264 0 CFG=2
M  V30 19 C 10.441342 7.747409 -10.320338 0
M  V30 20 C 11.418902 7.837978 -11.329458 0
M  V30 21 C 12.737424 8.172339 -11.012047 0
M  V30 22 F 13.621868 8.452686 -11.999023 0
M  V30 23 C 13.139404 8.172318 -9.670293 0
M  V30 24 C 12.183731 8.097320 -8.649347 0
M  V30 25 C 10.815241 7.945237 -8.961586 0
M  V30 26 O 9.803458 8.007514 -8.023651 0
M  V30 27 C 10.028900 7.939362 -6.613614 0
M  V30 28 C 10.690969 9.188092 -5.990955 0
M  V30 29 C 10.640491 6.596148 -6.182470 0
M  V30 30 C 8.486096 6.172868 -10.061086 0
M  V30 31 C 9.065702 4.987266 -10.802794 0
M  V30 32 C 10.446194 3.834864 -13.739100 0
M  V30 33 C 10.850876 2.499250 -14.387064 0
M  V30 34 C 8.494115 1.319912 -19.420506 0
M  V30 35 C 7.191361 1.371960 -19.974836 0
M  V30 36 O 6.885941 2.075273 -21.120913 0
M  V30 37 C 7.901314 2.859974 -21.728319 0
M  V30 38 H 2.885447 0.272440 -19.846912 0
M  V30 39 H 3.995786 -1.061033 -19.536261 0
M  V30 40 H 3.685714 0.172361 -18.299007 0
M  V30 41 H 5.617746 -0.617972 -17.648746 0
M  V30 42 H 7.873742 -0.684942 -16.719536 0
M  V30 43 H 9.655954 -0.134887 -15.458953 0
M  V30 44 H 9.599603 2.672250 -16.124659 0
M  V30 45 H 8.485561 1.059492 -13.790642 0
M  V30 46 H 7.611573 1.527092 -15.225275 0
M  V30 47 H 7.077530 3.029074 -13.314718 0
M  V30 48 H 7.776677 3.908313 -14.646490 0
M  V30 49 H 9.293240 2.972289 -12.186648 0
M  V30 50 H 8.486609 6.172385 -13.909114 0
M  V30 51 H 10.050724 6.251624 -13.135792 0
M  V30 52 H 7.485155 7.573995 -12.246807 0
M  V30 53 H 8.949912 8.393943 -12.646578 0
M  V30 54 H 8.486048 8.334455 -10.188635 0
M  V30 55 H 11.174991 7.772454 -12.373715 0
M  V30 56 H 14.176122 8.362825 -9.438915 0
M  V30 57 H 12.541312 8.187266 -7.643197 0
M  V30 58 H 9.007545 7.935172 -6.231990 0
M  V30 59 H 10.485924 9.237196 -4.921386 0
M  V30 60 H 11.773443 9.213002 -6.078283 0
M  V30 61 H 10.311195 10.100507 -6.445449 0
M  V30 62 H 10.577600 6.467712 -5.101247 0
M  V30 63 H 10.097336 5.772774 -6.647676 0
M  V30 64 H 11.686754 6.494352 -6.462873 0
M  V30 65 H 8.707271 6.097519 -8.998287 0
M  V30 66 H 7.408589 6.086086 -10.129450 0
M  V30 67 H 8.630987 4.165252 -10.272468 0
M  V30 68 H 10.140402 4.932587 -10.689255 0
M  V30 69 H 10.360570 4.569443 -14.540229 0
M  V30 70 H 11.246338 4.174593 -13.080624 0
M  V30 71 H 11.082808 1.772142 -13.608611 0
M  V30 72 H 11.767647 2.633887 -14.962075 0
M  V30 73 H 9.325894 1.830423 -19.880857 0
M  V30 74 H 7.482005 3.385426 -22.585695 0
M  V30 75 H 8.290253 3.612498 -21.040895 0
M  V30 76 H 8.722296 2.241008 -22.090370 0
M  V30 77 H 7.655218 4.909409 -12.197350 0
M  V30 END ATOM
M  V30 BEGIN BOND
M  V30 1 1 2 1
M  V30 2 1 3 2
M  V30 3 1 4 3
M  V30 4 2 5 4
M  V30 5 1 6 5
M  V30 6 1 7 6
M  V30 7 2 8 7
M  V30 8 2 9 7
M  V30 9 1 10 7
M  V30 10 1 11 10
M  V30 11 1 12 11
M  V30 12 1 13 12
M  V30 13 1 14 13
M  V30 14 1 15 14
M  V30 15 1 16 15
M  V30 16 1 17 16
M  V30 17 1 18 17
M  V30 18 1 19 18
M  V30 19 1 20 19
M  V30 20 2 21 20
M  V30 21 1 22 21
M  V30 22 1 23 21
M  V30 23 2 24 23
M  V30 24 2 25 19
M  V30 25 1 25 24
M  V30 26 1 26 25
M  V30 27 1 27 26
M  V30 28 1 28 27
M  V30 29 1 29 27
M  V30 30 1 30 18
M  V30 31 1 31 15
M  V30 32 1 31 30
M  V30 33 1 32 14
M  V30 34 1 33 11
M  V30 35 1 33 32
M  V30 36 2 34 6
M  V30 37 2 35 3
M  V30 38 1 35 34
M  V30 39 1 36 35
M  V30 40 1 37 36
M  V30 41 1 38 1
M  V30 42 1 39 1
M  V30 43 1 40 1
M  V30 44 1 41 4
M  V30 45 1 42 5
M  V30 46 1 43 10
M  V30 47 1 11 44 CFG=3
M  V30 48 1 45 12
M  V30 49 1 46 12
M  V30 50 1 47 13
M  V30 51 1 48 13
M  V30 52 1 14 49 CFG=1
M  V30 53 1 50 16
M  V30 54 1 51 16
M  V30 55 1 52 17
M  V30 56 1 53 17
M  V30 57 1 18 54 CFG=1
M  V30 58 1 55 20
M  V30 59 1 56 23
M  V30 60 1 57 24
M  V30 61 1 58 27
M  V30 62 1 59 28
M  V30 63 1 60 28
M  V30 64 1 61 28
M  V30 65 1 62 29
M  V30 66 1 63 29
M  V30 67 1 64 29
M  V30 68 1 65 30
M  V30 69 1 66 30
M  V30 70 1 67 31
M  V30 71 1 68 31
M  V30 72 1 69 32
M  V30 73 1 70 32
M  V30 74 1 71 33
M  V30 75 1 72 33
M  V30 76 1 73 34
M  V30 77 1 74 37
M  V30 78 1 75 37
M  V30 79 1 76 37
M  V30 80 1 15 77 CFG=1
M  V30 END BOND
M  V30 END CTAB
M  END
>  <b_m_subgroup_collapsed>  (2658) 
0

>  <r_i_docking_score>  (2658) 
-4.9256579712420301

>  <s_m_subgroup_title>  (2658) 
glide-dock_SP_D22_pv

>  <s_m_subgroupid>  (2658) 
glide-dock_SP_D22_pv

>  <Molecule ChEMBL ID>  (2658) 
CHEMBL390473

>  <Standard Type>  (2658) 
Ki

>  <Standard Value>  (2658) 
94.0

>  <label>  (2658) 
1

$$$$
CHEMBL38580
     RDKit          3D

  0  0  0  0  0  0  0  0  0  0999 V3000
M  V30 BEGIN CTAB
M  V30 COUNTS 48 50 0 0 1
M  V30 BEGIN ATOM
M  V30 1 C 10.286595 6.327650 -8.894450 0
M  V30 2 C 9.030981 6.401288 -9.772003 0
M  V30 3 C 9.144218 5.534943 -11.041984 0
M  V30 4 N 7.847332 5.380382 -11.767102 0 CHG=1
M  V30 5 C 7.430419 6.620832 -12.481849 0
M  V30 6 C 5.901085 6.739190 -12.612081 0
M  V30 7 C 5.428215 8.184846 -12.724931 0
M  V30 8 C 7.793201 4.124225 -12.579507 0 CFG=2
M  V30 9 C 8.368325 4.219862 -13.997793 0
M  V30 10 O 8.536657 2.913997 -14.540952 0
M  V30 11 C 7.487108 2.022088 -14.417936 0
M  V30 12 C 6.391222 2.267992 -13.545460 0
M  V30 13 C 5.334857 1.340822 -13.446945 0
M  V30 14 C 5.364254 0.168693 -14.220176 0
M  V30 15 C 6.463783 -0.096585 -15.056249 0
M  V30 16 C 7.546248 0.807754 -15.148464 0
M  V30 17 C 8.717644 0.450410 -15.973395 0
M  V30 18 C 8.715171 -0.222596 -17.227556 0
M  V30 19 C 10.031653 -0.361459 -17.570562 0
M  V30 20 O 10.844588 0.172445 -16.613634 0
M  V30 21 C 10.026799 0.663128 -15.641458 0
M  V30 22 C 6.397200 3.476864 -12.631351 0
M  V30 23 H 10.181632 6.961955 -8.011894 0
M  V30 24 H 10.469396 5.309640 -8.551592 0
M  V30 25 H 11.169661 6.662291 -9.438422 0
M  V30 26 H 8.864736 7.447592 -10.023718 0
M  V30 27 H 8.166069 6.087094 -9.183793 0
M  V30 28 H 9.510008 4.561718 -10.714129 0
M  V30 29 H 9.903243 5.932988 -11.716384 0
M  V30 30 H 7.780746 7.475540 -11.907134 0
M  V30 31 H 7.921782 6.736077 -13.445915 0
M  V30 32 H 5.503552 6.172533 -13.446816 0
M  V30 33 H 5.441646 6.313711 -11.718508 0
M  V30 34 H 4.486173 8.338220 -12.208590 0
M  V30 35 H 6.118800 8.882879 -12.247064 0
M  V30 36 H 5.285433 8.478457 -13.764258 0
M  V30 37 H 8.437643 3.401652 -12.086580 0
M  V30 38 H 9.342852 4.707947 -13.989166 0
M  V30 39 H 7.718365 4.803336 -14.646696 0
M  V30 40 H 4.501034 1.531009 -12.786021 0
M  V30 41 H 4.551934 -0.540478 -14.163438 0
M  V30 42 H 6.486943 -1.024107 -15.611228 0
M  V30 43 H 7.864513 -0.568665 -17.796110 0
M  V30 44 H 10.544624 -0.801193 -18.413292 0
M  V30 45 H 10.526347 1.112110 -14.795733 0
M  V30 46 H 5.629341 4.142913 -13.010379 0
M  V30 47 H 6.084573 3.180396 -11.628955 0
M  V30 48 H 7.172838 5.260554 -11.020815 0
M  V30 END ATOM
M  V30 BEGIN BOND
M  V30 1 1 2 1
M  V30 2 1 3 2
M  V30 3 1 4 3
M  V30 4 1 5 4
M  V30 5 1 6 5
M  V30 6 1 7 6
M  V30 7 1 8 4
M  V30 8 1 9 8
M  V30 9 1 10 9
M  V30 10 1 11 10
M  V30 11 2 12 11
M  V30 12 1 13 12
M  V30 13 2 14 13
M  V30 14 1 15 14
M  V30 15 1 16 11
M  V30 16 2 16 15
M  V30 17 1 17 16
M  V30 18 1 18 17
M  V30 19 2 19 18
M  V30 20 1 20 19
M  V30 21 2 21 17
M  V30 22 1 21 20
M  V30 23 1 22 8
M  V30 24 1 22 12
M  V30 25 1 23 1
M  V30 26 1 24 1
M  V30 27 1 25 1
M  V30 28 1 26 2
M  V30 29 1 27 2
M  V30 30 1 28 3
M  V30 31 1 29 3
M  V30 32 1 30 5
M  V30 33 1 31 5
M  V30 34 1 32 6
M  V30 35 1 33 6
M  V30 36 1 34 7
M  V30 37 1 35 7
M  V30 38 1 36 7
M  V30 39 1 8 37 CFG=1
M  V30 40 1 38 9
M  V30 41 1 39 9
M  V30 42 1 40 13
M  V30 43 1 41 14
M  V30 44 1 42 15
M  V30 45 1 43 18
M  V30 46 1 44 19
M  V30 47 1 45 21
M  V30 48 1 46 22
M  V30 49 1 47 22
M  V30 50 1 48 4
M  V30 END BOND
M  V30 END CTAB
M  END
>  <b_m_subgroup_collapsed>  (2659) 
0

>  <r_i_docking_score>  (2659) 
-4.9247149912425003

>  <s_m_subgroup_title>  (2659) 
glide-dock_SP_D22_pv

>  <s_m_subgroupid>  (2659) 
glide-dock_SP_D22_pv

>  <Molecule ChEMBL ID>  (2659) 
CHEMBL38580

>  <Standard Type>  (2659) 
Ki

>  <Standard Value>  (2659) 
47.5

>  <label>  (2659) 
1

$$$$
CHEMBL5283608
     RDKit          3D

  0  0  0  0  0  0  0  0  0  0999 V3000
M  V30 BEGIN CTAB
M  V30 COUNTS 47 49 0 0 1
M  V30 BEGIN ATOM
M  V30 1 C 12.870927 5.540619 -14.644895 0
M  V30 2 C 12.694073 6.954161 -14.082441 0
M  V30 3 O 11.992875 6.932284 -12.840164 0
M  V30 4 C 12.356543 7.772316 -11.846647 0
M  V30 5 O 13.296197 8.569036 -11.931842 0
M  V30 6 C 11.512885 7.698373 -10.623744 0
M  V30 7 N 11.971505 8.030740 -9.426601 0
M  V30 8 N 10.940352 7.849780 -8.585923 0
M  V30 9 C 11.126399 8.052261 -7.207516 0
M  V30 10 C 10.985909 6.972006 -6.313858 0
M  V30 11 C 11.285983 7.145398 -4.948210 0
M  V30 12 C 11.685847 8.409069 -4.467862 0
M  V30 13 C 11.787000 9.496205 -5.357590 0
M  V30 14 C 11.521373 9.316172 -6.726601 0
M  V30 15 C 9.807299 7.459610 -9.261080 0
M  V30 16 C 10.127632 7.313932 -10.586505 0
M  V30 17 C 9.181108 6.916768 -11.705645 0
M  V30 18 N 8.888767 5.472522 -11.803542 0
M  V30 19 C 8.086200 5.135718 -10.626831 0
M  V30 20 C 8.142782 5.195412 -13.052264 0 CFG=2
M  V30 21 C 7.519885 3.785537 -13.178592 0
M  V30 22 C 8.640653 2.837504 -13.596076 0
M  V30 23 S 9.531851 3.664566 -14.905883 0
M  V30 24 C 9.056421 5.303899 -14.297235 0
M  V30 25 H 13.547546 5.548872 -15.498860 0
M  V30 26 H 13.285333 4.866611 -13.895881 0
M  V30 27 H 11.929395 5.121732 -14.983709 0
M  V30 28 H 12.151830 7.581421 -14.790904 0
M  V30 29 H 13.685952 7.390759 -13.971148 0
M  V30 30 H 10.689497 6.000573 -6.681121 0
M  V30 31 H 11.200758 6.308469 -4.269694 0
M  V30 32 H 11.906797 8.545221 -3.419025 0
M  V30 33 H 12.085630 10.468448 -5.003798 0
M  V30 34 H 11.635423 10.142965 -7.410106 0
M  V30 35 H 8.867949 7.307152 -8.746397 0
M  V30 36 H 8.236350 7.451320 -11.592819 0
M  V30 37 H 9.566074 7.293929 -12.646781 0
M  V30 38 H 7.763871 4.101795 -10.601709 0
M  V30 39 H 8.655410 5.256814 -9.708877 0
M  V30 40 H 7.202204 5.771947 -10.570689 0
M  V30 41 H 7.336936 5.928785 -13.115863 0
M  V30 42 H 6.953403 3.428837 -12.321983 0
M  V30 43 H 6.788712 3.814615 -13.988285 0
M  V30 44 H 8.275201 1.862918 -13.919736 0
M  V30 45 H 9.336522 2.690728 -12.769779 0
M  V30 46 H 8.496064 5.772200 -15.098611 0
M  V30 47 H 9.965596 5.870051 -14.131145 0
M  V30 END ATOM
M  V30 BEGIN BOND
M  V30 1 1 2 1
M  V30 2 1 3 2
M  V30 3 1 4 3
M  V30 4 2 5 4
M  V30 5 1 6 4
M  V30 6 2 7 6
M  V30 7 1 8 7
M  V30 8 1 9 8
M  V30 9 2 10 9
M  V30 10 1 11 10
M  V30 11 2 12 11
M  V30 12 1 13 12
M  V30 13 1 14 9
M  V30 14 2 14 13
M  V30 15 1 15 8
M  V30 16 1 16 6
M  V30 17 2 16 15
M  V30 18 1 17 16
M  V30 19 1 18 17
M  V30 20 1 19 18
M  V30 21 1 20 18
M  V30 22 1 21 20
M  V30 23 1 22 21
M  V30 24 1 23 22
M  V30 25 1 24 20
M  V30 26 1 24 23
M  V30 27 1 25 1
M  V30 28 1 26 1
M  V30 29 1 27 1
M  V30 30 1 28 2
M  V30 31 1 29 2
M  V30 32 1 30 10
M  V30 33 1 31 11
M  V30 34 1 32 12
M  V30 35 1 33 13
M  V30 36 1 34 14
M  V30 37 1 35 15
M  V30 38 1 36 17
M  V30 39 1 37 17
M  V30 40 1 38 19
M  V30 41 1 39 19
M  V30 42 1 40 19
M  V30 43 1 20 41 CFG=3
M  V30 44 1 42 21
M  V30 45 1 43 21
M  V30 46 1 44 22
M  V30 47 1 45 22
M  V30 48 1 46 24
M  V30 49 1 47 24
M  V30 END BOND
M  V30 END CTAB
M  END
>  <b_m_subgroup_collapsed>  (2660) 
0

>  <r_i_docking_score>  (2660) 
-4.9221005085038998

>  <s_m_subgroup_title>  (2660) 
glide-dock_SP_D22_pv

>  <s_m_subgroupid>  (2660) 
glide-dock_SP_D22_pv

>  <Molecule ChEMBL ID>  (2660) 
CHEMBL5283608

>  <Standard Type>  (2660) 
Ki

>  <Standard Value>  (2660) 
10000.0

>  <label>  (2660) 
0

$$$$
CHEMBL4245622
     RDKit          3D

  0  0  0  0  0  0  0  0  0  0999 V3000
M  V30 BEGIN CTAB
M  V30 COUNTS 66 71 0 0 1
M  V30 BEGIN ATOM
M  V30 1 O 10.421994 6.289395 -19.239101 0
M  V30 2 S 11.328311 5.158886 -19.496769 0
M  V30 3 O 11.466374 4.645427 -20.867130 0
M  V30 4 C 10.870990 3.799152 -18.378912 0
M  V30 5 C 9.993181 4.134978 -17.325659 0
M  V30 6 C 9.598066 3.171247 -16.385662 0
M  V30 7 C 10.061193 1.852972 -16.504875 0
M  V30 8 C 10.905114 1.467544 -17.564238 0
M  V30 9 N 11.286196 0.172486 -17.637012 0
M  V30 10 C 12.084566 -0.220075 -18.645947 0
M  V30 11 C 12.544604 0.658019 -19.637381 0
M  V30 12 C 12.151302 2.005801 -19.573870 0
M  V30 13 C 11.316518 2.448987 -18.518030 0
M  V30 14 N 12.909050 5.650468 -18.950865 0
M  V30 15 C 14.128764 4.885796 -19.228626 0
M  V30 16 C 15.156979 5.389319 -18.216486 0
M  V30 17 C 14.681437 6.796748 -17.886236 0
M  V30 18 C 13.148507 6.710262 -17.954302 0 CFG=2
M  V30 19 C 12.447604 6.355803 -16.628677 0
M  V30 20 C 12.888325 7.149158 -15.381953 0
M  V30 21 N 11.918199 7.077542 -14.254247 0 CFG=1 CHG=1
M  V30 22 C 11.288445 5.745666 -14.059661 0
M  V30 23 C 10.419765 5.682963 -12.820570 0
M  V30 24 C 10.485998 6.544486 -11.784089 0
M  V30 25 C 9.732393 6.284795 -10.538882 0
M  V30 26 C 8.869020 5.233030 -10.376359 0
M  V30 27 N 8.486005 5.198976 -9.055644 0
M  V30 28 C 9.060264 6.228859 -8.345225 0
M  V30 29 C 8.959700 6.572999 -6.992929 0
M  V30 30 C 9.703476 7.649000 -6.494187 0
M  V30 31 C 10.496425 8.415470 -7.356168 0
M  V30 32 Cl 11.383470 9.741773 -6.694815 0
M  V30 33 C 10.561581 8.092330 -8.729178 0
M  V30 34 C 9.865372 6.968196 -9.264994 0
M  V30 35 C 11.453945 7.697818 -11.848127 0
M  V30 36 C 12.481099 7.616425 -12.996713 0
M  V30 37 H 9.613885 5.141432 -17.228106 0
M  V30 38 H 8.934135 3.439181 -15.576381 0
M  V30 39 H 9.749759 1.112562 -15.782062 0
M  V30 40 H 12.364799 -1.262732 -18.662029 0
M  V30 41 H 13.183681 0.303600 -20.433289 0
M  V30 42 H 12.514761 2.659122 -20.347019 0
M  V30 43 H 13.972389 3.818629 -19.102816 0
M  V30 44 H 14.444318 5.075930 -20.255165 0
M  V30 45 H 15.129487 4.769264 -17.318918 0
M  V30 46 H 16.173677 5.373155 -18.608133 0
M  V30 47 H 15.033109 7.479853 -18.660946 0
M  V30 48 H 15.075957 7.163175 -16.941343 0
M  V30 49 H 12.749126 7.655906 -18.325567 0
M  V30 50 H 12.572367 5.290134 -16.429298 0
M  V30 51 H 11.384264 6.531285 -16.784382 0
M  V30 52 H 13.030704 8.199725 -15.640495 0
M  V30 53 H 13.854912 6.771075 -15.045546 0
M  V30 54 H 12.051440 4.968738 -13.988153 0
M  V30 55 H 10.645422 5.505222 -14.903913 0
M  V30 56 H 9.783258 4.812840 -12.777342 0
M  V30 57 H 8.499717 4.489476 -11.066429 0
M  V30 58 H 7.798066 4.546997 -8.703078 0
M  V30 59 H 8.319153 6.009676 -6.333552 0
M  V30 60 H 9.667536 7.891836 -5.446935 0
M  V30 61 H 11.163411 8.726889 -9.356634 0
M  V30 62 H 10.813510 8.572317 -11.845292 0
M  V30 63 H 12.051517 7.709032 -10.939821 0
M  V30 64 H 12.948164 8.580264 -13.175056 0
M  V30 65 H 13.285829 6.972335 -12.677110 0
M  V30 66 H 11.159670 7.696084 -14.504403 0
M  V30 END ATOM
M  V30 BEGIN BOND
M  V30 1 2 2 1
M  V30 2 2 3 2
M  V30 3 1 4 2
M  V30 4 1 5 4
M  V30 5 2 6 5
M  V30 6 1 7 6
M  V30 7 2 8 7
M  V30 8 1 9 8
M  V30 9 2 10 9
M  V30 10 1 11 10
M  V30 11 2 12 11
M  V30 12 2 13 4
M  V30 13 1 13 8
M  V30 14 1 13 12
M  V30 15 1 14 2
M  V30 16 1 15 14
M  V30 17 1 16 15
M  V30 18 1 17 16
M  V30 19 1 18 14
M  V30 20 1 18 17
M  V30 21 1 19 18
M  V30 22 1 20 19
M  V30 23 1 21 20
M  V30 24 1 22 21
M  V30 25 1 23 22
M  V30 26 2 24 23
M  V30 27 1 25 24
M  V30 28 2 26 25
M  V30 29 1 27 26
M  V30 30 1 28 27
M  V30 31 1 29 28
M  V30 32 2 30 29
M  V30 33 1 31 30
M  V30 34 1 32 31
M  V30 35 2 33 31
M  V30 36 1 34 25
M  V30 37 2 34 28
M  V30 38 1 34 33
M  V30 39 1 35 24
M  V30 40 1 36 21
M  V30 41 1 36 35
M  V30 42 1 37 5
M  V30 43 1 38 6
M  V30 44 1 39 7
M  V30 45 1 40 10
M  V30 46 1 41 11
M  V30 47 1 42 12
M  V30 48 1 43 15
M  V30 49 1 44 15
M  V30 50 1 45 16
M  V30 51 1 46 16
M  V30 52 1 47 17
M  V30 53 1 48 17
M  V30 54 1 18 49 CFG=3
M  V30 55 1 50 19
M  V30 56 1 51 19
M  V30 57 1 52 20
M  V30 58 1 53 20
M  V30 59 1 54 22
M  V30 60 1 55 22
M  V30 61 1 56 23
M  V30 62 1 57 26
M  V30 63 1 58 27
M  V30 64 1 59 29
M  V30 65 1 60 30
M  V30 66 1 61 33
M  V30 67 1 62 35
M  V30 68 1 63 35
M  V30 69 1 64 36
M  V30 70 1 65 36
M  V30 71 1 21 66 CFG=3
M  V30 END BOND
M  V30 END CTAB
M  END
>  <b_m_subgroup_collapsed>  (2661) 
0

>  <r_i_docking_score>  (2661) 
-4.9190100366473501

>  <s_m_subgroup_title>  (2661) 
glide-dock_SP_D22_pv

>  <s_m_subgroupid>  (2661) 
glide-dock_SP_D22_pv

>  <Molecule ChEMBL ID>  (2661) 
CHEMBL4245622

>  <Standard Type>  (2661) 
Ki

>  <Standard Value>  (2661) 
15.0

>  <label>  (2661) 
1

$$$$
CHEMBL5091479
     RDKit          3D

  0  0  0  0  0  0  0  0  0  0999 V3000
M  V30 BEGIN CTAB
M  V30 COUNTS 38 40 0 0 1
M  V30 BEGIN ATOM
M  V30 1 C 10.979052 0.909261 -17.472992 0
M  V30 2 N 9.758433 0.756638 -16.651228 0 CFG=1 CHG=1
M  V30 3 C 9.948396 -0.025255 -15.410504 0
M  V30 4 C 9.284243 0.788355 -14.296489 0
M  V30 5 C 8.243696 1.676159 -15.014352 0
M  V30 6 C 7.015543 0.792627 -15.365293 0
M  V30 7 C 6.545466 0.625998 -16.696417 0
M  V30 8 C 5.455660 -0.219961 -16.982960 0
M  V30 9 C 4.799093 -0.903883 -15.944926 0
M  V30 10 C 5.237772 -0.735347 -14.620724 0
M  V30 11 C 6.338250 0.095600 -14.334711 0
M  V30 12 C 7.876522 2.940407 -14.192245 0
M  V30 13 C 8.904943 3.801825 -13.728470 0
M  V30 14 C 8.611112 4.934302 -12.941356 0
M  V30 15 C 7.280064 5.231010 -12.599661 0
M  V30 16 C 6.244646 4.399431 -13.055947 0
M  V30 17 C 6.537361 3.268500 -13.848129 0
M  V30 18 C 9.104126 2.025253 -16.256107 0
M  V30 19 H 11.751098 1.461312 -16.935360 0
M  V30 20 H 11.384245 -0.066978 -17.743721 0
M  V30 21 H 10.757460 1.445317 -18.396170 0
M  V30 22 H 10.997707 -0.216004 -15.185268 0
M  V30 23 H 9.447497 -0.983773 -15.529698 0
M  V30 24 H 10.069199 1.395708 -13.848221 0
M  V30 25 H 8.881605 0.172376 -13.494861 0
M  V30 26 H 7.002506 1.128596 -17.532633 0
M  V30 27 H 5.118146 -0.345967 -18.002035 0
M  V30 28 H 3.970639 -1.563090 -16.163115 0
M  V30 29 H 4.734649 -1.264470 -13.829625 0
M  V30 30 H 6.656973 0.194405 -13.307203 0
M  V30 31 H 9.943789 3.603184 -13.957026 0
M  V30 32 H 9.410272 5.572127 -12.588900 0
M  V30 33 H 7.052695 6.090105 -11.981359 0
M  V30 34 H 5.223854 4.628560 -12.794446 0
M  V30 35 H 5.702593 2.671547 -14.177432 0
M  V30 36 H 8.555939 2.498366 -17.072361 0
M  V30 37 H 9.891888 2.726290 -15.980605 0
M  V30 38 H 9.078724 0.242592 -17.193821 0
M  V30 END ATOM
M  V30 BEGIN BOND
M  V30 1 1 2 1
M  V30 2 1 3 2
M  V30 3 1 4 3
M  V30 4 1 5 4
M  V30 5 1 6 5
M  V30 6 2 7 6
M  V30 7 1 8 7
M  V30 8 2 9 8
M  V30 9 1 10 9
M  V30 10 1 11 6
M  V30 11 2 11 10
M  V30 12 1 12 5
M  V30 13 2 13 12
M  V30 14 1 14 13
M  V30 15 2 15 14
M  V30 16 1 16 15
M  V30 17 1 17 12
M  V30 18 2 17 16
M  V30 19 1 18 2
M  V30 20 1 18 5
M  V30 21 1 19 1
M  V30 22 1 20 1
M  V30 23 1 21 1
M  V30 24 1 22 3
M  V30 25 1 23 3
M  V30 26 1 24 4
M  V30 27 1 25 4
M  V30 28 1 26 7
M  V30 29 1 27 8
M  V30 30 1 28 9
M  V30 31 1 29 10
M  V30 32 1 30 11
M  V30 33 1 31 13
M  V30 34 1 32 14
M  V30 35 1 33 15
M  V30 36 1 34 16
M  V30 37 1 35 17
M  V30 38 1 36 18
M  V30 39 1 37 18
M  V30 40 1 2 38 CFG=3
M  V30 END BOND
M  V30 END CTAB
M  END
>  <b_m_subgroup_collapsed>  (2662) 
0

>  <r_i_docking_score>  (2662) 
-4.9035226553857196

>  <s_m_subgroup_title>  (2662) 
glide-dock_SP_D22_pv

>  <s_m_subgroupid>  (2662) 
glide-dock_SP_D22_pv

>  <Molecule ChEMBL ID>  (2662) 
CHEMBL5091479

>  <Standard Type>  (2662) 
Ki

>  <Standard Value>  (2662) 
100000.0

>  <label>  (2662) 
0

$$$$
CHEMBL4636778
     RDKit          3D

  0  0  0  0  0  0  0  0  0  0999 V3000
M  V30 BEGIN CTAB
M  V30 COUNTS 63 65 0 0 1
M  V30 BEGIN ATOM
M  V30 1 C 10.709558 9.166680 -7.790712 0
M  V30 2 C 9.513732 8.486191 -8.466716 0 CFG=2
M  V30 3 O 8.885365 7.727908 -7.454003 0
M  V30 4 C 9.999669 7.588814 -9.622227 0
M  V30 5 N 8.888810 6.935326 -10.376748 0 CFG=1 CHG=1
M  V30 6 C 8.817221 7.344942 -11.819842 0 CFG=2
M  V30 7 C 8.586309 8.849055 -11.991036 0
M  V30 8 C 7.705619 6.588316 -12.578400 0
M  V30 9 N 7.973449 5.162504 -12.470106 0
M  V30 10 C 7.022296 4.381472 -13.245393 0
M  V30 11 C 7.733436 3.153920 -13.829739 0
M  V30 12 S 6.486380 1.901641 -14.249010 0
M  V30 13 C 7.293863 0.553824 -15.184922 0
M  V30 14 C 8.526029 1.010009 -15.967415 0
M  V30 15 C 8.478685 2.103610 -16.860645 0
M  V30 16 C 9.623415 2.504458 -17.573774 0
M  V30 17 C 10.831201 1.803934 -17.405321 0
M  V30 18 F 11.936142 2.179602 -18.091139 0
M  V30 19 C 10.886312 0.708260 -16.525579 0
M  V30 20 C 9.743085 0.313831 -15.805807 0
M  V30 21 C 6.222615 -0.163443 -16.019114 0
M  V30 22 C 5.421675 -1.155262 -15.408591 0
M  V30 23 C 4.436716 -1.837571 -16.150967 0
M  V30 24 C 4.222500 -1.524068 -17.506124 0
M  V30 25 F 3.286401 -2.181225 -18.229097 0
M  V30 26 C 4.994328 -0.523938 -18.117687 0
M  V30 27 C 5.986504 0.148512 -17.381689 0
M  V30 28 C 7.807272 4.844119 -11.057270 0
M  V30 29 C 8.942867 5.448647 -10.242821 0 CFG=2
M  V30 30 C 8.821765 4.957778 -8.783447 0
M  V30 31 H 11.264277 9.775356 -8.502942 0
M  V30 32 H 10.390263 9.804011 -6.967556 0
M  V30 33 H 11.404300 8.432364 -7.380290 0
M  V30 34 H 8.817380 9.242240 -8.832563 0
M  V30 35 H 7.953259 7.636730 -7.641562 0
M  V30 36 H 10.621804 8.178442 -10.293774 0
M  V30 37 H 10.703567 6.850806 -9.236324 0
M  V30 38 H 9.771469 7.092553 -12.286292 0
M  V30 39 H 8.474442 9.124535 -13.040527 0
M  V30 40 H 7.707898 9.208009 -11.451235 0
M  V30 41 H 9.454292 9.371387 -11.624278 0
M  V30 42 H 7.709100 6.881254 -13.625671 0
M  V30 43 H 6.705158 6.837520 -12.223439 0
M  V30 44 H 6.164864 4.094539 -12.634329 0
M  V30 45 H 6.620014 4.961615 -14.074359 0
M  V30 46 H 8.285971 3.481507 -14.702852 0
M  V30 47 H 8.489954 2.753039 -13.157518 0
M  V30 48 H 7.644347 -0.154088 -14.433047 0
M  V30 49 H 7.550754 2.634938 -16.996441 0
M  V30 50 H 9.577319 3.343168 -18.252142 0
M  V30 51 H 11.814811 0.175484 -16.402056 0
M  V30 52 H 9.804042 -0.531407 -15.134627 0
M  V30 53 H 5.577390 -1.415567 -14.371499 0
M  V30 54 H 3.847125 -2.613407 -15.686207 0
M  V30 55 H 4.828281 -0.279353 -19.156525 0
M  V30 56 H 6.552527 0.899355 -17.901615 0
M  V30 57 H 7.757205 3.772190 -10.920577 0
M  V30 58 H 6.885847 5.259407 -10.666191 0
M  V30 59 H 9.890246 5.087936 -10.647677 0
M  V30 60 H 8.759212 3.870874 -8.737995 0
M  V30 61 H 9.676125 5.236552 -8.169637 0
M  V30 62 H 7.924200 5.350029 -8.303815 0
M  V30 63 H 7.987038 7.242098 -9.999185 0
M  V30 END ATOM
M  V30 BEGIN BOND
M  V30 1 1 2 1
M  V30 2 1 3 2
M  V30 3 1 4 2
M  V30 4 1 5 4
M  V30 5 1 6 5
M  V30 6 1 7 6
M  V30 7 1 8 6
M  V30 8 1 9 8
M  V30 9 1 10 9
M  V30 10 1 11 10
M  V30 11 1 12 11
M  V30 12 1 13 12
M  V30 13 1 14 13
M  V30 14 1 15 14
M  V30 15 2 16 15
M  V30 16 1 17 16
M  V30 17 1 18 17
M  V30 18 2 19 17
M  V30 19 2 20 14
M  V30 20 1 20 19
M  V30 21 1 21 13
M  V30 22 1 22 21
M  V30 23 2 23 22
M  V30 24 1 24 23
M  V30 25 1 25 24
M  V30 26 2 26 24
M  V30 27 2 27 21
M  V30 28 1 27 26
M  V30 29 1 28 9
M  V30 30 1 29 5
M  V30 31 1 29 28
M  V30 32 1 30 29
M  V30 33 1 31 1
M  V30 34 1 32 1
M  V30 35 1 33 1
M  V30 36 1 2 34 CFG=3
M  V30 37 1 35 3
M  V30 38 1 36 4
M  V30 39 1 37 4
M  V30 40 1 6 38 CFG=3
M  V30 41 1 39 7
M  V30 42 1 40 7
M  V30 43 1 41 7
M  V30 44 1 42 8
M  V30 45 1 43 8
M  V30 46 1 44 10
M  V30 47 1 45 10
M  V30 48 1 46 11
M  V30 49 1 47 11
M  V30 50 1 48 13
M  V30 51 1 49 15
M  V30 52 1 50 16
M  V30 53 1 51 19
M  V30 54 1 52 20
M  V30 55 1 53 22
M  V30 56 1 54 23
M  V30 57 1 55 26
M  V30 58 1 56 27
M  V30 59 1 57 28
M  V30 60 1 58 28
M  V30 61 1 29 59 CFG=3
M  V30 62 1 60 30
M  V30 63 1 61 30
M  V30 64 1 62 30
M  V30 65 1 5 63 CFG=1
M  V30 END BOND
M  V30 END CTAB
M  END
>  <b_m_subgroup_collapsed>  (2663) 
0

>  <r_i_docking_score>  (2663) 
-4.8962695773218297

>  <s_m_subgroup_title>  (2663) 
glide-dock_SP_D22_pv

>  <s_m_subgroupid>  (2663) 
glide-dock_SP_D22_pv

>  <Molecule ChEMBL ID>  (2663) 
CHEMBL4636778

>  <Standard Type>  (2663) 
Ki

>  <Standard Value>  (2663) 
11900.0

>  <label>  (2663) 
0

$$$$
CHEMBL75678
     RDKit          3D

  0  0  0  0  0  0  0  0  0  0999 V3000
M  V30 BEGIN CTAB
M  V30 COUNTS 50 52 0 0 1
M  V30 BEGIN ATOM
M  V30 1 C 10.509519 8.735642 -7.597605 0
M  V30 2 C 10.914062 8.632980 -6.450469 0
M  V30 3 C 11.390923 8.446120 -5.091492 0
M  V30 4 C 11.615834 9.560040 -4.261482 0
M  V30 5 C 12.085143 9.372334 -2.947177 0
M  V30 6 C 12.318235 8.075667 -2.455729 0
M  V30 7 C 12.085630 6.960989 -3.282050 0
M  V30 8 C 11.628942 7.144525 -4.601895 0
M  V30 9 C 10.018094 8.758947 -8.980345 0
M  V30 10 O 10.812490 7.872076 -9.759262 0
M  V30 11 C 10.200237 7.473437 -10.974144 0
M  V30 12 C 9.242220 6.299055 -10.707174 0
M  V30 13 C 8.526630 5.771358 -11.962695 0 CFG=1
M  V30 14 C 9.450510 4.916648 -12.852891 0
M  V30 15 C 8.677181 4.303581 -14.033462 0
M  V30 16 N 7.545210 3.482656 -13.537871 0 CFG=2 CHG=1
M  V30 17 C 6.888742 2.663812 -14.583668 0
M  V30 18 C 6.327426 1.377129 -14.004291 0
M  V30 19 C 6.068511 0.188190 -14.897825 0
M  V30 20 C 7.186585 0.139234 -13.884120 0
M  V30 21 C 6.588312 4.304240 -12.755595 0
M  V30 22 C 7.292093 4.949245 -11.555037 0
M  V30 23 H 11.426303 10.558700 -4.626655 0
M  V30 24 H 12.247088 10.222803 -2.303707 0
M  V30 25 H 12.667786 7.937655 -1.444990 0
M  V30 26 H 12.256605 5.963795 -2.905144 0
M  V30 27 H 11.453678 6.281413 -5.230161 0
M  V30 28 H 8.966033 8.474227 -8.953329 0
M  V30 29 H 10.080835 9.770643 -9.383116 0
M  V30 30 H 9.682899 8.312176 -11.447095 0
M  V30 31 H 10.991354 7.158722 -11.655590 0
M  V30 32 H 9.781398 5.487698 -10.214665 0
M  V30 33 H 8.486513 6.616946 -9.988209 0
M  V30 34 H 8.171235 6.625877 -12.541661 0
M  V30 35 H 10.273700 5.522296 -13.232599 0
M  V30 36 H 9.904682 4.118118 -12.261940 0
M  V30 37 H 9.358835 3.691004 -14.625102 0
M  V30 38 H 8.306638 5.096294 -14.684154 0
M  V30 39 H 6.085596 3.235423 -15.047690 0
M  V30 40 H 7.597627 2.406188 -15.372182 0
M  V30 41 H 5.591609 1.525941 -13.217288 0
M  V30 42 H 5.183622 -0.412434 -14.696764 0
M  V30 43 H 6.345414 0.265804 -15.947550 0
M  V30 44 H 8.205733 0.179262 -14.263289 0
M  V30 45 H 7.038819 -0.496449 -13.014172 0
M  V30 46 H 5.763286 3.691145 -12.395658 0
M  V30 47 H 6.152218 5.073013 -13.395275 0
M  V30 48 H 7.576181 4.174971 -10.840674 0
M  V30 49 H 6.578718 5.600748 -11.047776 0
M  V30 50 H 7.960948 2.822425 -12.895988 0
M  V30 END ATOM
M  V30 BEGIN BOND
M  V30 1 3 2 1
M  V30 2 1 3 2
M  V30 3 2 4 3
M  V30 4 1 5 4
M  V30 5 2 6 5
M  V30 6 1 7 6
M  V30 7 1 8 3
M  V30 8 2 8 7
M  V30 9 1 9 1
M  V30 10 1 10 9
M  V30 11 1 11 10
M  V30 12 1 12 11
M  V30 13 1 13 12
M  V30 14 1 14 13
M  V30 15 1 15 14
M  V30 16 1 16 15
M  V30 17 1 17 16
M  V30 18 1 18 17
M  V30 19 1 19 18
M  V30 20 1 20 18
M  V30 21 1 20 19
M  V30 22 1 21 16
M  V30 23 1 22 13
M  V30 24 1 22 21
M  V30 25 1 23 4
M  V30 26 1 24 5
M  V30 27 1 25 6
M  V30 28 1 26 7
M  V30 29 1 27 8
M  V30 30 1 28 9
M  V30 31 1 29 9
M  V30 32 1 30 11
M  V30 33 1 31 11
M  V30 34 1 32 12
M  V30 35 1 33 12
M  V30 36 1 13 34 CFG=3
M  V30 37 1 35 14
M  V30 38 1 36 14
M  V30 39 1 37 15
M  V30 40 1 38 15
M  V30 41 1 39 17
M  V30 42 1 40 17
M  V30 43 1 41 18
M  V30 44 1 42 19
M  V30 45 1 43 19
M  V30 46 1 44 20
M  V30 47 1 45 20
M  V30 48 1 46 21
M  V30 49 1 47 21
M  V30 50 1 48 22
M  V30 51 1 49 22
M  V30 52 1 16 50 CFG=1
M  V30 END BOND
M  V30 END CTAB
M  END
>  <b_m_subgroup_collapsed>  (2664) 
0

>  <r_i_docking_score>  (2664) 
-4.8875413270221602

>  <s_m_subgroup_title>  (2664) 
glide-dock_SP_D22_pv

>  <s_m_subgroupid>  (2664) 
glide-dock_SP_D22_pv

>  <Molecule ChEMBL ID>  (2664) 
CHEMBL75678

>  <Standard Type>  (2664) 
Ki

>  <Standard Value>  (2664) 
10000.0

>  <label>  (2664) 
0

$$$$
CHEMBL276778
     RDKit          3D

  0  0  0  0  0  0  0  0  0  0999 V3000
M  V30 BEGIN CTAB
M  V30 COUNTS 48 50 0 0 1
M  V30 BEGIN ATOM
M  V30 1 C 7.044103 6.192183 -12.443036 0
M  V30 2 O 8.064338 5.461787 -13.110276 0
M  V30 3 C 7.800946 4.161191 -13.479505 0
M  V30 4 C 6.518858 3.567669 -13.448385 0
M  V30 5 C 6.352629 2.230108 -13.847015 0
M  V30 6 C 7.450091 1.445591 -14.266722 0
M  V30 7 C 8.748991 2.037373 -14.307926 0
M  V30 8 C 8.895057 3.389014 -13.913408 0
M  V30 9 C 10.022490 1.289511 -14.721645 0
M  V30 10 C 10.823480 1.971919 -15.848251 0
M  V30 11 N 9.983026 2.349334 -17.017662 0 CFG=1 CHG=1
M  V30 12 C 10.446985 3.613717 -17.639236 0
M  V30 13 C 9.792834 1.269296 -18.029802 0
M  V30 14 C 8.633098 0.315239 -17.692308 0
M  V30 15 C 7.291946 1.045622 -17.493505 0
M  V30 16 C 6.168485 0.150853 -16.991827 0
M  V30 17 C 5.171682 -0.234792 -17.915512 0
M  V30 18 C 4.083323 -1.027741 -17.511881 0
M  V30 19 C 3.974145 -1.428788 -16.170055 0
M  V30 20 C 4.968821 -1.067818 -15.245904 0
M  V30 21 C 6.078657 -0.285190 -15.637861 0
M  V30 22 C 7.163589 -0.023494 -14.588326 0
M  V30 23 H 7.412197 7.197949 -12.246675 0
M  V30 24 H 6.785784 5.732663 -11.488994 0
M  V30 25 H 6.140882 6.298595 -13.044388 0
M  V30 26 H 5.646097 4.115488 -13.122416 0
M  V30 27 H 5.364012 1.793637 -13.803873 0
M  V30 28 H 9.873518 3.848851 -13.916889 0
M  V30 29 H 10.668113 1.254576 -13.847563 0
M  V30 30 H 9.864776 0.246532 -14.966014 0
M  V30 31 H 11.277579 2.870838 -15.430052 0
M  V30 32 H 11.666554 1.352660 -16.156574 0
M  V30 33 H 11.446880 3.499276 -18.063997 0
M  V30 34 H 10.474610 4.418869 -16.903151 0
M  V30 35 H 9.767421 3.934345 -18.430338 0
M  V30 36 H 9.568776 1.714952 -18.999533 0
M  V30 37 H 10.719758 0.712173 -18.171598 0
M  V30 38 H 8.516582 -0.408944 -18.498688 0
M  V30 39 H 8.888945 -0.282555 -16.823885 0
M  V30 40 H 7.380723 1.889903 -16.814610 0
M  V30 41 H 6.991197 1.485867 -18.445595 0
M  V30 42 H 5.234351 0.074796 -18.948669 0
M  V30 43 H 3.326099 -1.318892 -18.225567 0
M  V30 44 H 3.143372 -2.044509 -15.857487 0
M  V30 45 H 4.888702 -1.427353 -14.231002 0
M  V30 46 H 8.029260 -0.620789 -14.848296 0
M  V30 47 H 6.840160 -0.462882 -13.642940 0
M  V30 48 H 9.068382 2.563228 -16.640656 0
M  V30 END ATOM
M  V30 BEGIN BOND
M  V30 1 1 2 1
M  V30 2 1 3 2
M  V30 3 1 4 3
M  V30 4 2 5 4
M  V30 5 1 6 5
M  V30 6 2 7 6
M  V30 7 2 8 3
M  V30 8 1 8 7
M  V30 9 1 9 7
M  V30 10 1 10 9
M  V30 11 1 11 10
M  V30 12 1 12 11
M  V30 13 1 13 11
M  V30 14 1 14 13
M  V30 15 1 15 14
M  V30 16 1 16 15
M  V30 17 2 17 16
M  V30 18 1 18 17
M  V30 19 2 19 18
M  V30 20 1 20 19
M  V30 21 1 21 16
M  V30 22 2 21 20
M  V30 23 1 22 6
M  V30 24 1 22 21
M  V30 25 1 23 1
M  V30 26 1 24 1
M  V30 27 1 25 1
M  V30 28 1 26 4
M  V30 29 1 27 5
M  V30 30 1 28 8
M  V30 31 1 29 9
M  V30 32 1 30 9
M  V30 33 1 31 10
M  V30 34 1 32 10
M  V30 35 1 33 12
M  V30 36 1 34 12
M  V30 37 1 35 12
M  V30 38 1 36 13
M  V30 39 1 37 13
M  V30 40 1 38 14
M  V30 41 1 39 14
M  V30 42 1 40 15
M  V30 43 1 41 15
M  V30 44 1 42 17
M  V30 45 1 43 18
M  V30 46 1 44 19
M  V30 47 1 45 20
M  V30 48 1 46 22
M  V30 49 1 47 22
M  V30 50 1 11 48 CFG=1
M  V30 END BOND
M  V30 END CTAB
M  END
>  <b_m_subgroup_collapsed>  (2665) 
0

>  <r_i_docking_score>  (2665) 
-4.8780003360669504

>  <s_m_subgroup_title>  (2665) 
glide-dock_SP_D22_pv

>  <s_m_subgroupid>  (2665) 
glide-dock_SP_D22_pv

>  <Molecule ChEMBL ID>  (2665) 
CHEMBL276778

>  <Standard Type>  (2665) 
Ki

>  <Standard Value>  (2665) 
86.7

>  <label>  (2665) 
1

$$$$
CHEMBL544761
     RDKit          3D

  0  0  0  0  0  0  0  0  0  0999 V3000
M  V30 BEGIN CTAB
M  V30 COUNTS 46 49 0 0 1
M  V30 BEGIN ATOM
M  V30 1 O 10.174414 -0.049737 -16.278065 0
M  V30 2 C 9.766835 1.052709 -15.911808 0
M  V30 3 C 8.777138 1.343473 -14.906991 0
M  V30 4 C 8.697557 2.677948 -14.814869 0
M  V30 5 C 7.787541 3.446464 -13.957496 0
M  V30 6 C 8.235942 4.661807 -13.400075 0
M  V30 7 C 7.387093 5.405260 -12.556773 0
M  V30 8 C 6.086239 4.942791 -12.285904 0
M  V30 9 C 5.634401 3.733625 -12.849923 0
M  V30 10 C 6.486168 2.976097 -13.678019 0
M  V30 11 O 9.498792 3.339942 -15.710158 0
M  V30 12 C 10.248347 2.389918 -16.468287 0 CFG=1
M  V30 13 C 11.744955 2.616199 -16.212706 0
M  V30 14 C 12.184855 3.972858 -16.780504 0
M  V30 15 C 11.816329 4.098104 -18.267918 0
M  V30 16 N 10.360214 3.878060 -18.489914 0 CFG=1 CHG=1
M  V30 17 C 9.952334 4.083349 -19.904736 0
M  V30 18 C 9.865897 5.552082 -20.286551 0
M  V30 19 C 8.648659 6.251623 -20.133278 0
M  V30 20 C 8.553132 7.600114 -20.523397 0
M  V30 21 C 9.678004 8.265183 -21.047823 0
M  V30 22 C 10.893179 7.573502 -21.203190 0
M  V30 23 C 10.984329 6.218287 -20.833477 0
M  V30 24 C 9.911503 2.556279 -17.967312 0
M  V30 25 H 8.233505 0.599903 -14.345646 0
M  V30 26 H 9.232689 5.022977 -13.604217 0
M  V30 27 H 7.728698 6.328537 -12.111265 0
M  V30 28 H 5.442869 5.518578 -11.636128 0
M  V30 29 H 4.634128 3.382592 -12.646941 0
M  V30 30 H 6.132468 2.048006 -14.104604 0
M  V30 31 H 11.958923 2.576270 -15.143868 0
M  V30 32 H 12.331593 1.819939 -16.675619 0
M  V30 33 H 11.714388 4.778798 -16.213797 0
M  V30 34 H 13.260880 4.095778 -16.649961 0
M  V30 35 H 12.109069 5.087925 -18.614368 0
M  V30 36 H 12.389617 3.376618 -18.853392 0
M  V30 37 H 10.634332 3.560745 -20.577597 0
M  V30 38 H 8.966362 3.644917 -20.075800 0
M  V30 39 H 7.775498 5.759151 -19.729752 0
M  V30 40 H 7.617371 8.129219 -20.410950 0
M  V30 41 H 9.606454 9.304254 -21.338062 0
M  V30 42 H 11.752992 8.081939 -21.615589 0
M  V30 43 H 11.919538 5.693898 -20.973181 0
M  V30 44 H 10.390432 1.764662 -18.549492 0
M  V30 45 H 8.836392 2.447992 -18.115982 0
M  V30 46 H 9.874252 4.580529 -17.948080 0
M  V30 END ATOM
M  V30 BEGIN BOND
M  V30 1 2 2 1
M  V30 2 1 3 2
M  V30 3 2 4 3
M  V30 4 1 5 4
M  V30 5 2 6 5
M  V30 6 1 7 6
M  V30 7 2 8 7
M  V30 8 1 9 8
M  V30 9 1 10 5
M  V30 10 2 10 9
M  V30 11 1 11 4
M  V30 12 1 12 2
M  V30 13 1 12 11 CFG=1
M  V30 14 1 13 12
M  V30 15 1 14 13
M  V30 16 1 15 14
M  V30 17 1 16 15
M  V30 18 1 17 16
M  V30 19 1 18 17
M  V30 20 2 19 18
M  V30 21 1 20 19
M  V30 22 2 21 20
M  V30 23 1 22 21
M  V30 24 1 23 18
M  V30 25 2 23 22
M  V30 26 1 24 12
M  V30 27 1 24 16
M  V30 28 1 25 3
M  V30 29 1 26 6
M  V30 30 1 27 7
M  V30 31 1 28 8
M  V30 32 1 29 9
M  V30 33 1 30 10
M  V30 34 1 31 13
M  V30 35 1 32 13
M  V30 36 1 33 14
M  V30 37 1 34 14
M  V30 38 1 35 15
M  V30 39 1 36 15
M  V30 40 1 37 17
M  V30 41 1 38 17
M  V30 42 1 39 19
M  V30 43 1 40 20
M  V30 44 1 41 21
M  V30 45 1 42 22
M  V30 46 1 43 23
M  V30 47 1 44 24
M  V30 48 1 45 24
M  V30 49 1 16 46 CFG=1
M  V30 END BOND
M  V30 END CTAB
M  END
>  <b_m_subgroup_collapsed>  (2666) 
0

>  <r_i_docking_score>  (2666) 
-4.8755989927669301

>  <s_m_subgroup_title>  (2666) 
glide-dock_SP_D22_pv

>  <s_m_subgroupid>  (2666) 
glide-dock_SP_D22_pv

>  <Molecule ChEMBL ID>  (2666) 
CHEMBL544761

>  <Standard Type>  (2666) 
Ki

>  <Standard Value>  (2666) 
10000.0

>  <label>  (2666) 
0

$$$$
CHEMBL184724
     RDKit          3D

  0  0  0  0  0  0  0  0  0  0999 V3000
M  V30 BEGIN CTAB
M  V30 COUNTS 48 50 0 0 1
M  V30 BEGIN ATOM
M  V30 1 C 14.333413 4.108312 -18.138613 0
M  V30 2 C 14.384948 5.545427 -17.603149 0 CFG=2
M  V30 3 C 13.320178 5.807113 -16.514963 0
M  V30 4 N 13.267690 7.214456 -16.113129 0
M  V30 5 C 12.237946 7.468333 -15.107655 0
M  V30 6 C 12.578545 6.973747 -13.695408 0
M  V30 7 O 11.530460 7.229784 -12.771923 0
M  V30 8 C 10.488070 6.332780 -12.646682 0
M  V30 9 C 10.387315 5.125360 -13.387873 0
M  V30 10 C 9.303401 4.251299 -13.186282 0
M  V30 11 C 8.301767 4.572018 -12.253281 0
M  V30 12 C 8.387221 5.769620 -11.524196 0
M  V30 13 C 9.470074 6.653278 -11.716290 0
M  V30 14 C 9.501493 7.969508 -10.950237 0
M  V30 15 C 10.135104 7.870425 -9.572493 0
M  V30 16 C 9.412437 7.314664 -8.495483 0
M  V30 17 C 9.972730 7.278143 -7.205082 0
M  V30 18 C 11.261145 7.799059 -6.984102 0
M  V30 19 C 11.993670 8.348226 -8.057629 0
M  V30 20 C 11.432078 8.380304 -9.349779 0
M  V30 21 C 13.062422 8.032787 -17.304283 0
M  V30 22 C 14.154105 7.793096 -18.355097 0
M  V30 23 O 14.168519 6.414074 -18.713289 0
M  V30 24 H 14.493956 3.375766 -17.348732 0
M  V30 25 H 13.365022 3.895701 -18.593683 0
M  V30 26 H 15.098233 3.952328 -18.900280 0
M  V30 27 H 15.377520 5.741068 -17.190861 0
M  V30 28 H 13.534823 5.175138 -15.653017 0
M  V30 29 H 12.343539 5.499639 -16.893188 0
M  V30 30 H 11.288034 7.045631 -15.435777 0
M  V30 31 H 12.086026 8.545423 -15.023360 0
M  V30 32 H 13.434308 7.546206 -13.338205 0
M  V30 33 H 12.885931 5.930460 -13.667395 0
M  V30 34 H 11.124236 4.836616 -14.120088 0
M  V30 35 H 9.240956 3.330045 -13.745936 0
M  V30 36 H 7.466752 3.906112 -12.097727 0
M  V30 37 H 7.612152 6.014068 -10.812860 0
M  V30 38 H 8.486064 8.343471 -10.843384 0
M  V30 39 H 10.015475 8.731227 -11.533390 0
M  V30 40 H 8.415265 6.930296 -8.652860 0
M  V30 41 H 9.408388 6.861101 -6.383590 0
M  V30 42 H 11.685221 7.781590 -5.990961 0
M  V30 43 H 12.980390 8.753004 -7.890562 0
M  V30 44 H 11.997722 8.814537 -10.162669 0
M  V30 45 H 12.084120 7.817603 -17.744556 0
M  V30 46 H 13.059727 9.089281 -17.039841 0
M  V30 47 H 13.957991 8.392829 -19.242971 0
M  V30 48 H 15.131171 8.093268 -17.971243 0
M  V30 END ATOM
M  V30 BEGIN BOND
M  V30 1 1 2 1
M  V30 2 1 3 2
M  V30 3 1 4 3
M  V30 4 1 5 4
M  V30 5 1 6 5
M  V30 6 1 7 6
M  V30 7 1 8 7
M  V30 8 2 9 8
M  V30 9 1 10 9
M  V30 10 2 11 10
M  V30 11 1 12 11
M  V30 12 1 13 8
M  V30 13 2 13 12
M  V30 14 1 14 13
M  V30 15 1 15 14
M  V30 16 2 16 15
M  V30 17 1 17 16
M  V30 18 2 18 17
M  V30 19 1 19 18
M  V30 20 1 20 15
M  V30 21 2 20 19
M  V30 22 1 21 4
M  V30 23 1 22 21
M  V30 24 1 23 2
M  V30 25 1 23 22
M  V30 26 1 24 1
M  V30 27 1 25 1
M  V30 28 1 26 1
M  V30 29 1 2 27 CFG=1
M  V30 30 1 28 3
M  V30 31 1 29 3
M  V30 32 1 30 5
M  V30 33 1 31 5
M  V30 34 1 32 6
M  V30 35 1 33 6
M  V30 36 1 34 9
M  V30 37 1 35 10
M  V30 38 1 36 11
M  V30 39 1 37 12
M  V30 40 1 38 14
M  V30 41 1 39 14
M  V30 42 1 40 16
M  V30 43 1 41 17
M  V30 44 1 42 18
M  V30 45 1 43 19
M  V30 46 1 44 20
M  V30 47 1 45 21
M  V30 48 1 46 21
M  V30 49 1 47 22
M  V30 50 1 48 22
M  V30 END BOND
M  V30 END CTAB
M  END
>  <b_m_subgroup_collapsed>  (2667) 
0

>  <r_i_docking_score>  (2667) 
-4.8692832339351204

>  <s_m_subgroup_title>  (2667) 
glide-dock_SP_D22_pv

>  <s_m_subgroupid>  (2667) 
glide-dock_SP_D22_pv

>  <Molecule ChEMBL ID>  (2667) 
CHEMBL184724

>  <Standard Type>  (2667) 
Ki

>  <Standard Value>  (2667) 
10000.0

>  <label>  (2667) 
0

$$$$
CHEMBL381573
     RDKit          3D

  0  0  0  0  0  0  0  0  0  0999 V3000
M  V30 BEGIN CTAB
M  V30 COUNTS 51 54 0 0 1
M  V30 BEGIN ATOM
M  V30 1 C 12.246086 6.841700 -15.467610 0
M  V30 2 N 12.086023 6.120562 -14.183847 0 CFG=1 CHG=1
M  V30 3 C 12.823329 4.836033 -14.160133 0
M  V30 4 C 11.905807 3.720449 -14.645848 0
M  V30 5 C 10.817808 3.325483 -13.617891 0
M  V30 6 C 9.357436 3.650338 -13.962525 0 CFG=2
M  V30 7 C 8.975330 3.075698 -15.329623 0
M  V30 8 C 9.286020 3.735973 -16.544018 0
M  V30 9 C 8.991510 3.130228 -17.782194 0
M  V30 10 C 8.377365 1.864319 -17.820948 0
M  V30 11 C 8.056046 1.204648 -16.620359 0
M  V30 12 C 8.357601 1.805692 -15.383394 0
M  V30 13 C 8.980215 5.132300 -13.690426 0
M  V30 14 C 9.252423 5.596622 -12.269105 0
M  V30 15 N 8.562376 5.017834 -11.208607 0
M  V30 16 C 8.910090 5.587734 -9.998088 0
M  V30 17 C 8.486085 5.370382 -8.674561 0
M  V30 18 C 8.996270 6.172309 -7.637254 0
M  V30 19 C 9.965285 7.149046 -7.918657 0
M  V30 20 C 10.406270 7.338744 -9.241133 0
M  V30 21 C 9.880750 6.572299 -10.313710 0
M  V30 22 C 10.099322 6.555395 -11.736223 0
M  V30 23 C 11.041137 7.525432 -12.384806 0
M  V30 24 C 12.335029 6.981465 -13.011300 0
M  V30 25 H 13.292823 7.089190 -15.651444 0
M  V30 26 H 11.686023 7.772306 -15.455814 0
M  V30 27 H 11.884098 6.244216 -16.304459 0
M  V30 28 H 13.708104 4.904298 -14.793151 0
M  V30 29 H 13.184169 4.572109 -13.165843 0
M  V30 30 H 11.525588 4.001853 -15.615705 0
M  V30 31 H 12.486017 2.839301 -14.880566 0
M  V30 32 H 10.886054 2.247444 -13.462602 0
M  V30 33 H 11.019766 3.772333 -12.648666 0
M  V30 34 H 8.763335 3.088094 -13.241352 0
M  V30 35 H 9.733674 4.718056 -16.541357 0
M  V30 36 H 9.232527 3.641315 -18.702938 0
M  V30 37 H 8.154467 1.397563 -18.769361 0
M  V30 38 H 7.588868 0.230526 -16.646378 0
M  V30 39 H 8.125298 1.273258 -14.472157 0
M  V30 40 H 9.483618 5.772326 -14.407110 0
M  V30 41 H 7.916408 5.261212 -13.892437 0
M  V30 42 H 7.847006 4.315060 -11.325933 0
M  V30 43 H 7.742941 4.620941 -8.455503 0
M  V30 44 H 8.638955 6.044775 -6.626513 0
M  V30 45 H 10.359174 7.761686 -7.121203 0
M  V30 46 H 11.143964 8.102674 -9.430861 0
M  V30 47 H 10.486016 8.172306 -13.046865 0
M  V30 48 H 11.392109 8.196244 -11.607270 0
M  V30 49 H 12.886012 6.450294 -12.246587 0
M  V30 50 H 12.985748 7.810590 -13.295309 0
M  V30 51 H 11.113404 5.861837 -14.099922 0
M  V30 END ATOM
M  V30 BEGIN BOND
M  V30 1 1 2 1
M  V30 2 1 3 2
M  V30 3 1 4 3
M  V30 4 1 5 4
M  V30 5 1 6 5
M  V30 6 1 7 6
M  V30 7 2 8 7
M  V30 8 1 9 8
M  V30 9 2 10 9
M  V30 10 1 11 10
M  V30 11 1 12 7
M  V30 12 2 12 11
M  V30 13 1 13 6
M  V30 14 1 14 13
M  V30 15 1 15 14
M  V30 16 1 16 15
M  V30 17 2 17 16
M  V30 18 1 18 17
M  V30 19 2 19 18
M  V30 20 1 20 19
M  V30 21 1 21 16
M  V30 22 2 21 20
M  V30 23 2 22 14
M  V30 24 1 22 21
M  V30 25 1 23 22
M  V30 26 1 24 2
M  V30 27 1 24 23
M  V30 28 1 25 1
M  V30 29 1 26 1
M  V30 30 1 27 1
M  V30 31 1 28 3
M  V30 32 1 29 3
M  V30 33 1 30 4
M  V30 34 1 31 4
M  V30 35 1 32 5
M  V30 36 1 33 5
M  V30 37 1 6 34 CFG=1
M  V30 38 1 35 8
M  V30 39 1 36 9
M  V30 40 1 37 10
M  V30 41 1 38 11
M  V30 42 1 39 12
M  V30 43 1 40 13
M  V30 44 1 41 13
M  V30 45 1 42 15
M  V30 46 1 43 17
M  V30 47 1 44 18
M  V30 48 1 45 19
M  V30 49 1 46 20
M  V30 50 1 47 23
M  V30 51 1 48 23
M  V30 52 1 49 24
M  V30 53 1 50 24
M  V30 54 1 2 51 CFG=1
M  V30 END BOND
M  V30 END CTAB
M  END
>  <b_m_subgroup_collapsed>  (2668) 
0

>  <r_i_docking_score>  (2668) 
-4.8685348166811702

>  <s_m_subgroup_title>  (2668) 
glide-dock_SP_D22_pv

>  <s_m_subgroupid>  (2668) 
glide-dock_SP_D22_pv

>  <Molecule ChEMBL ID>  (2668) 
CHEMBL381573

>  <Standard Type>  (2668) 
Ki

>  <Standard Value>  (2668) 
10000.0

>  <label>  (2668) 
0

$$$$
CHEMBL75678
     RDKit          3D

  0  0  0  0  0  0  0  0  0  0999 V3000
M  V30 BEGIN CTAB
M  V30 COUNTS 50 52 0 0 1
M  V30 BEGIN ATOM
M  V30 1 C 10.549973 8.810388 -7.121315 0
M  V30 2 C 10.940569 8.624056 -5.982889 0
M  V30 3 C 11.445312 8.408874 -4.646666 0
M  V30 4 C 11.686200 9.518579 -3.817154 0
M  V30 5 C 12.199987 9.324917 -2.523739 0
M  V30 6 C 12.476978 8.028081 -2.060161 0
M  V30 7 C 12.202188 6.914466 -2.877488 0
M  V30 8 C 11.686148 7.103211 -4.174169 0
M  V30 9 C 10.110353 8.972293 -8.505803 0
M  V30 10 O 10.153701 7.709941 -9.128338 0
M  V30 11 C 9.794153 7.791094 -10.488330 0
M  V30 12 C 9.578644 6.363834 -10.988979 0
M  V30 13 C 9.219763 6.308470 -12.483168 0 CFG=1
M  V30 14 C 9.365917 4.902699 -13.082331 0
M  V30 15 C 8.277081 3.953904 -12.572043 0
M  V30 16 N 6.912255 4.483048 -12.844818 0 CFG=1 CHG=1
M  V30 17 C 5.833937 3.563541 -12.413020 0
M  V30 18 C 5.804918 2.245940 -13.172009 0
M  V30 19 C 5.524020 0.950405 -12.431056 0
M  V30 20 C 4.486558 1.529254 -13.346475 0
M  V30 21 C 6.717348 5.840545 -12.268223 0
M  V30 22 C 7.794155 6.822700 -12.761974 0
M  V30 23 H 11.473833 10.519744 -4.165102 0
M  V30 24 H 12.387600 10.172325 -1.883707 0
M  V30 25 H 12.885309 7.890961 -1.068938 0
M  V30 26 H 12.390938 5.915565 -2.511438 0
M  V30 27 H 11.487281 6.245775 -4.801815 0
M  V30 28 H 9.095132 9.371729 -8.502286 0
M  V30 29 H 10.772982 9.682370 -9.004107 0
M  V30 30 H 8.884517 8.381068 -10.600385 0
M  V30 31 H 10.586169 8.290030 -11.049945 0
M  V30 32 H 10.486000 5.797962 -10.810110 0
M  V30 33 H 8.814067 5.881704 -10.380166 0
M  V30 34 H 9.938315 6.940827 -13.006261 0
M  V30 35 H 9.306617 4.965847 -14.169877 0
M  V30 36 H 10.353855 4.498007 -12.856380 0
M  V30 37 H 8.391968 3.794164 -11.499149 0
M  V30 38 H 8.419723 2.985570 -13.048662 0
M  V30 39 H 5.919229 3.372973 -11.343693 0
M  V30 40 H 4.878715 4.062750 -12.566061 0
M  V30 41 H 6.459446 2.193449 -14.039526 0
M  V30 42 H 6.056293 0.061227 -12.766369 0
M  V30 43 H 5.287035 0.972204 -11.371808 0
M  V30 44 H 3.625295 2.061307 -12.953178 0
M  V30 45 H 4.300695 0.970336 -14.251761 0
M  V30 46 H 6.727150 5.772079 -11.179341 0
M  V30 47 H 5.733636 6.225062 -12.540606 0
M  V30 48 H 7.629689 7.805429 -12.321248 0
M  V30 49 H 7.686265 6.970013 -13.831035 0
M  V30 50 H 6.827928 4.582718 -13.847181 0
M  V30 END ATOM
M  V30 BEGIN BOND
M  V30 1 3 2 1
M  V30 2 1 3 2
M  V30 3 2 4 3
M  V30 4 1 5 4
M  V30 5 2 6 5
M  V30 6 1 7 6
M  V30 7 1 8 3
M  V30 8 2 8 7
M  V30 9 1 9 1
M  V30 10 1 10 9
M  V30 11 1 11 10
M  V30 12 1 12 11
M  V30 13 1 13 12
M  V30 14 1 14 13
M  V30 15 1 15 14
M  V30 16 1 16 15
M  V30 17 1 17 16
M  V30 18 1 18 17
M  V30 19 1 19 18
M  V30 20 1 20 18
M  V30 21 1 20 19
M  V30 22 1 21 16
M  V30 23 1 22 13
M  V30 24 1 22 21
M  V30 25 1 23 4
M  V30 26 1 24 5
M  V30 27 1 25 6
M  V30 28 1 26 7
M  V30 29 1 27 8
M  V30 30 1 28 9
M  V30 31 1 29 9
M  V30 32 1 30 11
M  V30 33 1 31 11
M  V30 34 1 32 12
M  V30 35 1 33 12
M  V30 36 1 13 34 CFG=3
M  V30 37 1 35 14
M  V30 38 1 36 14
M  V30 39 1 37 15
M  V30 40 1 38 15
M  V30 41 1 39 17
M  V30 42 1 40 17
M  V30 43 1 41 18
M  V30 44 1 42 19
M  V30 45 1 43 19
M  V30 46 1 44 20
M  V30 47 1 45 20
M  V30 48 1 46 21
M  V30 49 1 47 21
M  V30 50 1 48 22
M  V30 51 1 49 22
M  V30 52 1 16 50 CFG=3
M  V30 END BOND
M  V30 END CTAB
M  END
>  <b_m_subgroup_collapsed>  (2669) 
0

>  <r_i_docking_score>  (2669) 
-4.8672866144684601

>  <s_m_subgroup_title>  (2669) 
glide-dock_SP_D22_pv

>  <s_m_subgroupid>  (2669) 
glide-dock_SP_D22_pv

>  <Molecule ChEMBL ID>  (2669) 
CHEMBL75678

>  <Standard Type>  (2669) 
Ki

>  <Standard Value>  (2669) 
10000.0

>  <label>  (2669) 
0

$$$$
CHEMBL212292
     RDKit          3D

  0  0  0  0  0  0  0  0  0  0999 V3000
M  V30 BEGIN CTAB
M  V30 COUNTS 51 53 0 0 1
M  V30 BEGIN ATOM
M  V30 1 C 11.912461 0.406589 -18.024687 0
M  V30 2 O 11.289943 1.045472 -16.925632 0
M  V30 3 N 10.052615 0.423497 -16.707342 0
M  V30 4 C 9.321634 1.049254 -15.873417 0
M  V30 5 C 9.778709 2.373468 -15.222812 0
M  V30 6 C 8.839220 2.982828 -14.154529 0
M  V30 7 N 9.111396 4.379266 -13.792088 0
M  V30 8 C 10.497954 4.547441 -13.323228 0
M  V30 9 C 10.836805 6.030124 -13.058816 0
M  V30 10 N 9.846081 6.627098 -12.166374 0
M  V30 11 C 10.216436 7.081897 -10.884794 0
M  V30 12 C 9.391835 6.879459 -9.753358 0
M  V30 13 C 9.788513 7.403179 -8.509961 0
M  V30 14 C 11.004825 8.105196 -8.428886 0
M  V30 15 C 11.769676 8.245274 -9.600938 0
M  V30 16 N 11.395317 7.742024 -10.795776 0
M  V30 17 C 8.455340 6.354257 -12.513327 0
M  V30 18 C 8.232693 4.839270 -12.690301 0 CFG=1
M  V30 19 C 6.730484 4.564399 -12.908403 0
M  V30 20 C 7.968246 0.521128 -15.564089 0
M  V30 21 C 7.030710 0.314975 -16.602465 0
M  V30 22 C 5.746203 -0.194193 -16.322701 0
M  V30 23 C 5.375802 -0.483205 -14.995842 0
M  V30 24 Cl 3.775039 -1.027925 -14.647635 0
M  V30 25 C 6.311389 -0.310841 -13.956991 0
M  V30 26 C 7.602036 0.173065 -14.245665 0
M  V30 27 H 12.888809 0.858147 -18.198223 0
M  V30 28 H 12.062722 -0.658636 -17.846699 0
M  V30 29 H 11.322518 0.526756 -18.933208 0
M  V30 30 H 9.925213 3.100682 -16.022039 0
M  V30 31 H 10.754833 2.194051 -14.772630 0
M  V30 32 H 8.888745 2.380057 -13.252493 0
M  V30 33 H 7.821182 2.936354 -14.538586 0
M  V30 34 H 11.208255 4.181660 -14.062715 0
M  V30 35 H 10.646820 3.958263 -12.418839 0
M  V30 36 H 10.883899 6.572347 -14.000909 0
M  V30 37 H 11.842373 6.102847 -12.646416 0
M  V30 38 H 8.452024 6.350546 -9.814997 0
M  V30 39 H 9.164350 7.272879 -7.637598 0
M  V30 40 H 11.342549 8.527852 -7.495148 0
M  V30 41 H 12.706380 8.782670 -9.578229 0
M  V30 42 H 7.767229 6.767140 -11.777572 0
M  V30 43 H 8.207206 6.863846 -13.444634 0
M  V30 44 H 8.518744 4.330791 -11.767167 0
M  V30 45 H 6.140052 5.031048 -12.117307 0
M  V30 46 H 6.376369 4.967951 -13.854441 0
M  V30 47 H 6.494153 3.500545 -12.876789 0
M  V30 48 H 7.294386 0.546462 -17.624222 0
M  V30 49 H 5.035378 -0.338274 -17.123024 0
M  V30 50 H 6.049794 -0.555999 -12.938754 0
M  V30 51 H 8.320288 0.269928 -13.446039 0
M  V30 END ATOM
M  V30 BEGIN BOND
M  V30 1 1 2 1
M  V30 2 1 3 2
M  V30 3 2 4 3
M  V30 4 1 5 4
M  V30 5 1 6 5
M  V30 6 1 7 6
M  V30 7 1 8 7
M  V30 8 1 9 8
M  V30 9 1 10 9
M  V30 10 1 11 10
M  V30 11 2 12 11
M  V30 12 1 13 12
M  V30 13 2 14 13
M  V30 14 1 15 14
M  V30 15 1 16 11
M  V30 16 2 16 15
M  V30 17 1 17 10
M  V30 18 1 18 7
M  V30 19 1 18 17
M  V30 20 1 19 18
M  V30 21 1 20 4
M  V30 22 1 21 20
M  V30 23 2 22 21
M  V30 24 1 23 22
M  V30 25 1 24 23
M  V30 26 2 25 23
M  V30 27 2 26 20
M  V30 28 1 26 25
M  V30 29 1 27 1
M  V30 30 1 28 1
M  V30 31 1 29 1
M  V30 32 1 30 5
M  V30 33 1 31 5
M  V30 34 1 32 6
M  V30 35 1 33 6
M  V30 36 1 34 8
M  V30 37 1 35 8
M  V30 38 1 36 9
M  V30 39 1 37 9
M  V30 40 1 38 12
M  V30 41 1 39 13
M  V30 42 1 40 14
M  V30 43 1 41 15
M  V30 44 1 42 17
M  V30 45 1 43 17
M  V30 46 1 18 44 CFG=1
M  V30 47 1 45 19
M  V30 48 1 46 19
M  V30 49 1 47 19
M  V30 50 1 48 21
M  V30 51 1 49 22
M  V30 52 1 50 25
M  V30 53 1 51 26
M  V30 END BOND
M  V30 END CTAB
M  END
>  <b_m_subgroup_collapsed>  (2670) 
0

>  <r_i_docking_score>  (2670) 
-4.8666500201743697

>  <s_m_subgroup_title>  (2670) 
glide-dock_SP_D22_pv

>  <s_m_subgroupid>  (2670) 
glide-dock_SP_D22_pv

>  <Molecule ChEMBL ID>  (2670) 
CHEMBL212292

>  <Standard Type>  (2670) 
Ki

>  <Standard Value>  (2670) 
76.5

>  <label>  (2670) 
1

$$$$
CHEMBL215997
     RDKit          3D

  0  0  0  0  0  0  0  0  0  0999 V3000
M  V30 BEGIN CTAB
M  V30 COUNTS 56 60 0 0 1
M  V30 BEGIN ATOM
M  V30 1 C 10.841397 8.349088 -20.899153 0
M  V30 2 N 11.436958 7.682069 -19.719639 0 CHG=1
M  V30 3 C 12.695141 6.967431 -20.050114 0
M  V30 4 C 13.313644 6.339901 -18.789347 0
M  V30 5 N 12.358710 5.467313 -18.109007 0
M  V30 6 C 12.539602 4.081824 -18.019251 0
M  V30 7 N 13.093673 3.423575 -18.990164 0
M  V30 8 C 13.290998 2.034912 -19.058649 0
M  V30 9 C 14.425483 1.619399 -19.792835 0
M  V30 10 C 14.683083 0.257363 -20.035448 0
M  V30 11 Cl 16.086372 -0.223112 -20.915092 0
M  V30 12 C 13.790679 -0.717123 -19.566147 0
M  V30 13 C 12.652187 -0.323190 -18.844408 0
M  V30 14 C 12.391917 1.041696 -18.574762 0
M  V30 15 N 11.272379 1.370911 -17.801401 0
M  V30 16 N 9.999760 1.018091 -18.272535 0
M  V30 17 C 9.339254 -0.102417 -17.920094 0
M  V30 18 O 9.842628 -1.027094 -17.280893 0
M  V30 19 C 7.919426 -0.185877 -18.398842 0
M  V30 20 C 7.309520 -1.433513 -18.650923 0
M  V30 21 C 5.964343 -1.462087 -19.065842 0
M  V30 22 C 5.274626 -0.241904 -19.205442 0
M  V30 23 N 5.839929 0.958896 -18.954050 0
M  V30 24 C 7.124980 0.972401 -18.545420 0
M  V30 25 C 11.354347 2.215034 -16.686350 0
M  V30 26 C 10.778069 1.786907 -15.470161 0
M  V30 27 C 10.884041 2.568344 -14.307608 0
M  V30 28 C 11.602564 3.772829 -14.337117 0
M  V30 29 C 12.180074 4.206362 -15.540830 0
M  V30 30 C 12.031330 3.462387 -16.739054 0
M  V30 31 C 11.102150 6.144302 -17.778454 0
M  V30 32 C 10.468325 6.797673 -19.019835 0
M  V30 33 H 10.474680 7.617479 -21.620049 0
M  V30 34 H 10.006949 8.986468 -20.603193 0
M  V30 35 H 11.578477 8.973155 -21.401817 0
M  V30 36 H 13.406258 7.662963 -20.499313 0
M  V30 37 H 12.492462 6.191766 -20.790289 0
M  V30 38 H 13.619200 7.122576 -18.093697 0
M  V30 39 H 14.223859 5.798801 -19.051798 0
M  V30 40 H 15.106048 2.357914 -20.189840 0
M  V30 41 H 13.984166 -1.765659 -19.748383 0
M  V30 42 H 11.993461 -1.090705 -18.475563 0
M  V30 43 H 9.566770 1.723749 -18.848621 0
M  V30 44 H 7.857195 -2.356403 -18.527346 0
M  V30 45 H 5.467330 -2.399302 -19.266958 0
M  V30 46 H 4.241711 -0.229244 -19.521231 0
M  V30 47 H 7.526693 1.952264 -18.335340 0
M  V30 48 H 10.262191 0.840002 -15.409365 0
M  V30 49 H 10.430985 2.224273 -13.391330 0
M  V30 50 H 11.705558 4.368457 -13.441112 0
M  V30 51 H 12.714882 5.145153 -15.537887 0
M  V30 52 H 10.385330 5.450608 -17.337679 0
M  V30 53 H 11.301558 6.899832 -17.017694 0
M  V30 54 H 9.588934 7.372321 -18.724199 0
M  V30 55 H 10.127051 6.021543 -19.705235 0
M  V30 56 H 11.686205 8.417586 -19.070559 0
M  V30 END ATOM
M  V30 BEGIN BOND
M  V30 1 1 2 1
M  V30 2 1 3 2
M  V30 3 1 4 3
M  V30 4 1 5 4
M  V30 5 1 6 5
M  V30 6 2 7 6
M  V30 7 1 8 7
M  V30 8 1 9 8
M  V30 9 2 10 9
M  V30 10 1 11 10
M  V30 11 1 12 10
M  V30 12 2 13 12
M  V30 13 2 14 8
M  V30 14 1 14 13
M  V30 15 1 15 14
M  V30 16 1 16 15
M  V30 17 1 17 16
M  V30 18 2 18 17
M  V30 19 1 19 17
M  V30 20 2 20 19
M  V30 21 1 21 20
M  V30 22 2 22 21
M  V30 23 1 23 22
M  V30 24 1 24 19
M  V30 25 2 24 23
M  V30 26 1 25 15
M  V30 27 2 26 25
M  V30 28 1 27 26
M  V30 29 2 28 27
M  V30 30 1 29 28
M  V30 31 1 30 6
M  V30 32 1 30 25
M  V30 33 2 30 29
M  V30 34 1 31 5
M  V30 35 1 32 2
M  V30 36 1 32 31
M  V30 37 1 33 1
M  V30 38 1 34 1
M  V30 39 1 35 1
M  V30 40 1 36 3
M  V30 41 1 37 3
M  V30 42 1 38 4
M  V30 43 1 39 4
M  V30 44 1 40 9
M  V30 45 1 41 12
M  V30 46 1 42 13
M  V30 47 1 43 16
M  V30 48 1 44 20
M  V30 49 1 45 21
M  V30 50 1 46 22
M  V30 51 1 47 24
M  V30 52 1 48 26
M  V30 53 1 49 27
M  V30 54 1 50 28
M  V30 55 1 51 29
M  V30 56 1 52 31
M  V30 57 1 53 31
M  V30 58 1 54 32
M  V30 59 1 55 32
M  V30 60 1 56 2
M  V30 END BOND
M  V30 END CTAB
M  END
>  <b_m_subgroup_collapsed>  (2671) 
0

>  <r_i_docking_score>  (2671) 
-4.86246740704581

>  <s_m_subgroup_title>  (2671) 
glide-dock_SP_D22_pv

>  <s_m_subgroupid>  (2671) 
glide-dock_SP_D22_pv

>  <Molecule ChEMBL ID>  (2671) 
CHEMBL215997

>  <Standard Type>  (2671) 
Ki

>  <Standard Value>  (2671) 
12710.0

>  <label>  (2671) 
0

$$$$
CHEMBL184724
     RDKit          3D

  0  0  0  0  0  0  0  0  0  0999 V3000
M  V30 BEGIN CTAB
M  V30 COUNTS 48 50 0 0 1
M  V30 BEGIN ATOM
M  V30 1 C 11.741033 8.339742 -5.022734 0
M  V30 2 C 10.782331 8.387955 -6.214094 0 CFG=1
M  V30 3 C 11.410190 7.898478 -7.534070 0
M  V30 4 N 10.445851 7.955916 -8.628284 0
M  V30 5 C 11.021183 7.479285 -9.878218 0
M  V30 6 C 10.255915 7.924128 -11.130250 0
M  V30 7 O 10.714560 7.166785 -12.247232 0
M  V30 8 C 10.041306 6.025798 -12.644965 0
M  V30 9 C 8.680792 5.758595 -12.338862 0
M  V30 10 C 8.046494 4.601012 -12.823499 0
M  V30 11 C 8.757341 3.688397 -13.618813 0
M  V30 12 C 10.106814 3.930389 -13.924280 0
M  V30 13 C 10.749157 5.092926 -13.447159 0
M  V30 14 C 12.218288 5.303011 -13.786812 0
M  V30 15 C 12.433472 6.003034 -15.111726 0
M  V30 16 C 12.675172 7.392524 -15.142403 0
M  V30 17 C 12.887396 8.046497 -16.370682 0
M  V30 18 C 12.866270 7.314843 -17.575018 0
M  V30 19 C 12.624854 5.925569 -17.548874 0
M  V30 20 C 12.408629 5.271848 -16.319048 0
M  V30 21 C 9.261668 7.172752 -8.271038 0
M  V30 22 C 8.669618 7.584734 -6.918818 0
M  V30 23 O 9.685986 7.537148 -5.922474 0
M  V30 24 H 12.611478 8.973082 -5.192106 0
M  V30 25 H 11.249696 8.692988 -4.116689 0
M  V30 26 H 12.084983 7.320827 -4.838489 0
M  V30 27 H 10.426959 9.414391 -6.332398 0
M  V30 28 H 11.771039 6.876002 -7.409433 0
M  V30 29 H 12.276710 8.516895 -7.771482 0
M  V30 30 H 11.085326 6.393409 -9.848004 0
M  V30 31 H 12.047930 7.834993 -9.975341 0
M  V30 32 H 10.485235 8.970561 -11.314730 0
M  V30 33 H 9.182837 7.921816 -10.987349 0
M  V30 34 H 8.068020 6.426315 -11.754662 0
M  V30 35 H 7.009593 4.415474 -12.581042 0
M  V30 36 H 8.269943 2.797585 -13.986703 0
M  V30 37 H 10.648351 3.216191 -14.526894 0
M  V30 38 H 12.728427 4.339283 -13.809572 0
M  V30 39 H 12.709018 5.873816 -13.002142 0
M  V30 40 H 12.688785 7.961990 -14.223280 0
M  V30 41 H 13.059639 9.114477 -16.396009 0
M  V30 42 H 13.023562 7.821524 -18.516457 0
M  V30 43 H 12.602549 5.363076 -18.471100 0
M  V30 44 H 12.228046 4.206944 -16.304506 0
M  V30 45 H 8.487137 7.269744 -9.030601 0
M  V30 46 H 9.515713 6.113246 -8.227986 0
M  V30 47 H 8.240028 8.583153 -6.973416 0
M  V30 48 H 7.866282 6.901377 -6.646830 0
M  V30 END ATOM
M  V30 BEGIN BOND
M  V30 1 1 2 1
M  V30 2 1 3 2
M  V30 3 1 4 3
M  V30 4 1 5 4
M  V30 5 1 6 5
M  V30 6 1 7 6
M  V30 7 1 8 7
M  V30 8 2 9 8
M  V30 9 1 10 9
M  V30 10 2 11 10
M  V30 11 1 12 11
M  V30 12 1 13 8
M  V30 13 2 13 12
M  V30 14 1 14 13
M  V30 15 1 15 14
M  V30 16 2 16 15
M  V30 17 1 17 16
M  V30 18 2 18 17
M  V30 19 1 19 18
M  V30 20 1 20 15
M  V30 21 2 20 19
M  V30 22 1 21 4
M  V30 23 1 22 21
M  V30 24 1 23 2
M  V30 25 1 23 22
M  V30 26 1 24 1
M  V30 27 1 25 1
M  V30 28 1 26 1
M  V30 29 1 2 27 CFG=3
M  V30 30 1 28 3
M  V30 31 1 29 3
M  V30 32 1 30 5
M  V30 33 1 31 5
M  V30 34 1 32 6
M  V30 35 1 33 6
M  V30 36 1 34 9
M  V30 37 1 35 10
M  V30 38 1 36 11
M  V30 39 1 37 12
M  V30 40 1 38 14
M  V30 41 1 39 14
M  V30 42 1 40 16
M  V30 43 1 41 17
M  V30 44 1 42 18
M  V30 45 1 43 19
M  V30 46 1 44 20
M  V30 47 1 45 21
M  V30 48 1 46 21
M  V30 49 1 47 22
M  V30 50 1 48 22
M  V30 END BOND
M  V30 END CTAB
M  END
>  <b_m_subgroup_collapsed>  (2672) 
0

>  <r_i_docking_score>  (2672) 
-4.85662319248737

>  <s_m_subgroup_title>  (2672) 
glide-dock_SP_D22_pv

>  <s_m_subgroupid>  (2672) 
glide-dock_SP_D22_pv

>  <Molecule ChEMBL ID>  (2672) 
CHEMBL184724

>  <Standard Type>  (2672) 
Ki

>  <Standard Value>  (2672) 
10000.0

>  <label>  (2672) 
0

$$$$
CHEMBL165022
     RDKit          3D

  0  0  0  0  0  0  0  0  0  0999 V3000
M  V30 BEGIN CTAB
M  V30 COUNTS 44 44 0 0 1
M  V30 BEGIN ATOM
M  V30 1 C 9.251401 0.173900 -15.073576 0
M  V30 2 C 8.286947 0.828105 -14.707894 0
M  V30 3 C 7.194983 1.627568 -14.244912 0
M  V30 4 C 5.941869 0.978346 -14.013508 0
M  V30 5 C 4.853305 0.436087 -13.889528 0
M  V30 6 C 7.353014 2.964884 -14.014540 0
M  V30 7 C 6.253820 3.893332 -13.478183 0
M  V30 8 C 6.713134 4.688027 -12.241829 0
M  V30 9 C 8.041899 5.445396 -12.484324 0
M  V30 10 N 8.484837 6.230500 -11.289364 0 CHG=1
M  V30 11 C 8.873475 5.382851 -10.143612 0
M  V30 12 C 9.149121 6.189785 -8.879451 0
M  V30 13 C 9.685661 5.264516 -7.842844 0
M  V30 14 C 9.530649 7.244407 -11.587982 0
M  V30 15 C 9.223406 8.602742 -10.950687 0
M  V30 16 C 8.145922 9.371962 -11.701026 0
M  V30 17 C 9.122827 4.466867 -12.999426 0
M  V30 18 C 8.657333 3.738624 -14.262514 0
M  V30 19 H 10.093111 -0.392106 -15.402957 0
M  V30 20 H 3.892397 -0.026094 -13.837543 0
M  V30 21 H 5.972098 4.577763 -14.271311 0
M  V30 22 H 5.335715 3.368731 -13.221708 0
M  V30 23 H 5.932845 5.387589 -11.935628 0
M  V30 24 H 6.809814 3.967721 -11.432487 0
M  V30 25 H 7.837632 6.170462 -13.274474 0
M  V30 26 H 8.086787 4.668937 -9.911857 0
M  V30 27 H 9.762511 4.804486 -10.389968 0
M  V30 28 H 9.920755 6.946199 -9.006859 0
M  V30 29 H 8.239129 6.674389 -8.526868 0
M  V30 30 H 9.675459 5.756346 -6.867882 0
M  V30 31 H 9.073536 4.362653 -7.841057 0
M  V30 32 H 10.709461 4.974179 -8.078124 0
M  V30 33 H 10.510325 6.887623 -11.266312 0
M  V30 34 H 9.639438 7.396932 -12.647125 0
M  V30 35 H 8.885835 8.519794 -9.921140 0
M  V30 36 H 10.145597 9.177481 -10.904580 0
M  V30 37 H 7.788367 10.170830 -11.047102 0
M  V30 38 H 8.535116 9.772230 -12.634644 0
M  V30 39 H 7.287663 8.756554 -11.959512 0
M  V30 40 H 10.054459 4.993997 -13.210244 0
M  V30 41 H 9.356178 3.708598 -12.250406 0
M  V30 42 H 9.473123 3.112842 -14.619558 0
M  V30 43 H 8.485975 4.473002 -15.046381 0
M  V30 44 H 7.666473 6.762430 -10.984764 0
M  V30 END ATOM
M  V30 BEGIN BOND
M  V30 1 3 2 1
M  V30 2 1 3 2
M  V30 3 1 4 3
M  V30 4 3 5 4
M  V30 5 2 6 3 CFG=2
M  V30 6 1 7 6
M  V30 7 1 8 7
M  V30 8 1 9 8
M  V30 9 1 10 9
M  V30 10 1 11 10
M  V30 11 1 12 11
M  V30 12 1 13 12
M  V30 13 1 14 10
M  V30 14 1 15 14
M  V30 15 1 16 15
M  V30 16 1 17 9
M  V30 17 1 18 6
M  V30 18 1 18 17
M  V30 19 1 19 1
M  V30 20 1 20 5
M  V30 21 1 21 7
M  V30 22 1 22 7
M  V30 23 1 23 8
M  V30 24 1 24 8
M  V30 25 1 25 9
M  V30 26 1 26 11
M  V30 27 1 27 11
M  V30 28 1 28 12
M  V30 29 1 29 12
M  V30 30 1 30 13
M  V30 31 1 31 13
M  V30 32 1 32 13
M  V30 33 1 33 14
M  V30 34 1 34 14
M  V30 35 1 35 15
M  V30 36 1 36 15
M  V30 37 1 37 16
M  V30 38 1 38 16
M  V30 39 1 39 16
M  V30 40 1 40 17
M  V30 41 1 41 17
M  V30 42 1 42 18
M  V30 43 1 43 18
M  V30 44 1 44 10
M  V30 END BOND
M  V30 END CTAB
M  END
>  <b_m_subgroup_collapsed>  (2673) 
0

>  <r_i_docking_score>  (2673) 
-4.8499094112863599

>  <s_m_subgroup_title>  (2673) 
glide-dock_SP_D22_pv

>  <s_m_subgroupid>  (2673) 
glide-dock_SP_D22_pv

>  <Molecule ChEMBL ID>  (2673) 
CHEMBL165022

>  <Standard Type>  (2673) 
Ki

>  <Standard Value>  (2673) 
12000.0

>  <label>  (2673) 
0

$$$$
CHEMBL5273758
     RDKit          3D

  0  0  0  0  0  0  0  0  0  0999 V3000
M  V30 BEGIN CTAB
M  V30 COUNTS 43 46 0 0 1
M  V30 BEGIN ATOM
M  V30 1 C 12.890040 4.799342 -14.644390 0
M  V30 2 N 11.497922 4.393073 -14.932833 0 CFG=1 CHG=1
M  V30 3 C 11.286281 2.919522 -14.847219 0
M  V30 4 C 9.835309 2.509265 -15.184505 0
M  V30 5 C 8.933253 3.176134 -14.153812 0 CFG=2
M  V30 6 C 7.444135 2.860555 -14.173647 0
M  V30 7 C 6.580387 3.680925 -13.528070 0
M  V30 8 O 5.286091 3.357109 -13.445825 0
M  V30 9 C 7.088784 4.856113 -12.812617 0
M  V30 10 O 6.340816 5.393966 -11.846908 0
M  V30 11 C 8.343261 5.284512 -13.086836 0
M  V30 12 C 9.301053 6.198237 -12.319734 0 CFG=1
M  V30 13 C 9.271650 6.199783 -10.793793 0
M  V30 14 C 9.683600 7.359251 -10.099305 0
M  V30 15 C 9.686090 7.385258 -8.691011 0
M  V30 16 C 9.287799 6.247225 -7.964406 0
M  V30 17 C 8.888456 5.085241 -8.649665 0
M  V30 18 C 8.886042 5.062179 -10.056301 0
M  V30 19 C 10.675340 5.664899 -12.799608 0
M  V30 20 C 10.477657 5.255013 -14.259446 0 CFG=2
M  V30 21 C 9.065419 4.691009 -14.270049 0 CFG=1
M  V30 22 H 13.170991 4.550842 -13.619947 0
M  V30 23 H 13.020035 5.873979 -14.782275 0
M  V30 24 H 13.579848 4.296784 -15.321494 0
M  V30 25 H 11.970427 2.423139 -15.537004 0
M  V30 26 H 11.548241 2.571799 -13.847013 0
M  V30 27 H 9.564011 2.809660 -16.197493 0
M  V30 28 H 9.732750 1.425674 -15.131674 0
M  V30 29 H 9.285696 2.854764 -13.170382 0
M  V30 30 H 7.118824 1.953291 -14.663206 0
M  V30 31 H 5.169887 2.526921 -13.879246 0
M  V30 32 H 6.835086 6.074107 -11.405617 0
M  V30 33 H 9.141912 7.223834 -12.646681 0
M  V30 34 H 9.988304 8.239533 -10.644615 0
M  V30 35 H 9.985054 8.281116 -8.167368 0
M  V30 36 H 9.275880 6.269454 -6.884508 0
M  V30 37 H 8.571376 4.211595 -8.100680 0
M  V30 38 H 8.571273 4.172522 -10.571493 0
M  V30 39 H 11.489307 6.374685 -12.646807 0
M  V30 40 H 10.885916 4.750300 -12.248578 0
M  V30 41 H 10.486327 6.172166 -14.843599 0
M  V30 42 H 8.570163 5.032939 -15.178945 0
M  V30 43 H 11.365355 4.592104 -15.914448 0
M  V30 END ATOM
M  V30 BEGIN BOND
M  V30 1 1 2 1
M  V30 2 1 3 2
M  V30 3 1 4 3
M  V30 4 1 5 4
M  V30 5 1 6 5
M  V30 6 2 7 6
M  V30 7 1 8 7
M  V30 8 1 9 7
M  V30 9 1 10 9
M  V30 10 2 11 9
M  V30 11 1 12 11
M  V30 12 1 13 12
M  V30 13 2 14 13
M  V30 14 1 15 14
M  V30 15 2 16 15
M  V30 16 1 17 16
M  V30 17 1 18 13
M  V30 18 2 18 17
M  V30 19 1 19 12
M  V30 20 1 20 2
M  V30 21 1 20 19
M  V30 22 1 21 5
M  V30 23 1 21 11
M  V30 24 1 21 20
M  V30 25 1 22 1
M  V30 26 1 23 1
M  V30 27 1 24 1
M  V30 28 1 25 3
M  V30 29 1 26 3
M  V30 30 1 27 4
M  V30 31 1 28 4
M  V30 32 1 5 29 CFG=1
M  V30 33 1 30 6
M  V30 34 1 31 8
M  V30 35 1 32 10
M  V30 36 1 12 33 CFG=3
M  V30 37 1 34 14
M  V30 38 1 35 15
M  V30 39 1 36 16
M  V30 40 1 37 17
M  V30 41 1 38 18
M  V30 42 1 39 19
M  V30 43 1 40 19
M  V30 44 1 20 41 CFG=3
M  V30 45 1 21 42 CFG=3
M  V30 46 1 2 43 CFG=3
M  V30 END BOND
M  V30 END CTAB
M  END
>  <b_m_subgroup_collapsed>  (2674) 
0

>  <r_i_docking_score>  (2674) 
-4.8459464707094702

>  <s_m_subgroup_title>  (2674) 
glide-dock_SP_D22_pv

>  <s_m_subgroupid>  (2674) 
glide-dock_SP_D22_pv

>  <Molecule ChEMBL ID>  (2674) 
CHEMBL5273758

>  <Standard Type>  (2674) 
Ki

>  <Standard Value>  (2674) 
12.88

>  <label>  (2674) 
1

$$$$
CHEMBL541055
     RDKit          3D

  0  0  0  0  0  0  0  0  0  0999 V3000
M  V30 BEGIN CTAB
M  V30 COUNTS 39 42 0 0 1
M  V30 BEGIN ATOM
M  V30 1 C 10.484234 1.068410 -17.640329 0
M  V30 2 N 10.504229 2.116855 -16.624197 0
M  V30 3 C 9.319558 2.974722 -16.677338 0 CFG=1
M  V30 4 C 8.211073 2.151480 -15.990580 0
M  V30 5 C 8.964804 1.201095 -15.059839 0
M  V30 6 C 10.440611 1.575767 -15.267005 0 CFG=2
M  V30 7 C 10.916300 2.700412 -14.318867 0
M  V30 8 C 10.081976 4.001312 -14.442177 0 CFG=1
M  V30 9 C 9.697160 4.271004 -15.916891 0
M  V30 10 O 8.900124 3.894851 -13.648186 0
M  V30 11 C 8.953040 4.845606 -12.664985 0
M  V30 12 C 10.028166 5.646760 -12.663633 0
M  V30 13 C 10.329196 6.716987 -11.680459 0
M  V30 14 C 9.382492 7.039829 -10.680887 0
M  V30 15 C 9.685859 7.980540 -9.678507 0
M  V30 16 C 10.946134 8.602186 -9.654079 0
M  V30 17 C 11.894253 8.293963 -10.646316 0
M  V30 18 C 11.584111 7.372336 -11.663017 0
M  V30 19 C 10.804387 5.190803 -13.811726 0
M  V30 20 O 11.863019 5.646726 -14.242146 0
M  V30 21 H 11.367003 0.437847 -17.541494 0
M  V30 22 H 9.602792 0.432574 -17.576670 0
M  V30 23 H 10.507482 1.515650 -18.635885 0
M  V30 24 H 9.056235 3.224743 -17.706177 0
M  V30 25 H 7.497227 2.774115 -15.448427 0
M  V30 26 H 7.644680 1.580793 -16.726959 0
M  V30 27 H 8.786407 0.164536 -15.350331 0
M  V30 28 H 8.657248 1.300914 -14.016848 0
M  V30 29 H 11.092565 0.708693 -15.152312 0
M  V30 30 H 11.964767 2.912253 -14.537737 0
M  V30 31 H 10.885166 2.341100 -13.293913 0
M  V30 32 H 8.887946 4.998575 -15.958518 0
M  V30 33 H 10.533532 4.737042 -16.440708 0
M  V30 34 H 8.119793 4.823775 -11.978346 0
M  V30 35 H 8.410585 6.570145 -10.655479 0
M  V30 36 H 8.944538 8.213467 -8.925837 0
M  V30 37 H 11.184045 9.318731 -8.882860 0
M  V30 38 H 12.860998 8.775329 -10.636079 0
M  V30 39 H 12.342201 7.156008 -12.398722 0
M  V30 END ATOM
M  V30 BEGIN BOND
M  V30 1 1 2 1
M  V30 2 1 3 2
M  V30 3 1 4 3
M  V30 4 1 5 4
M  V30 5 1 6 2
M  V30 6 1 6 5
M  V30 7 1 7 6
M  V30 8 1 8 7
M  V30 9 1 9 3
M  V30 10 1 9 8
M  V30 11 1 8 10 CFG=1
M  V30 12 1 11 10
M  V30 13 2 12 11
M  V30 14 1 13 12
M  V30 15 2 14 13
M  V30 16 1 15 14
M  V30 17 2 16 15
M  V30 18 1 17 16
M  V30 19 1 18 13
M  V30 20 2 18 17
M  V30 21 1 19 8
M  V30 22 1 19 12
M  V30 23 2 20 19
M  V30 24 1 21 1
M  V30 25 1 22 1
M  V30 26 1 23 1
M  V30 27 1 3 24 CFG=3
M  V30 28 1 25 4
M  V30 29 1 26 4
M  V30 30 1 27 5
M  V30 31 1 28 5
M  V30 32 1 6 29 CFG=3
M  V30 33 1 30 7
M  V30 34 1 31 7
M  V30 35 1 32 9
M  V30 36 1 33 9
M  V30 37 1 34 11
M  V30 38 1 35 14
M  V30 39 1 36 15
M  V30 40 1 37 16
M  V30 41 1 38 17
M  V30 42 1 39 18
M  V30 END BOND
M  V30 END CTAB
M  END
>  <b_m_subgroup_collapsed>  (2675) 
0

>  <r_i_docking_score>  (2675) 
-4.8377144404545698

>  <s_m_subgroup_title>  (2675) 
glide-dock_SP_D22_pv

>  <s_m_subgroupid>  (2675) 
glide-dock_SP_D22_pv

>  <Molecule ChEMBL ID>  (2675) 
CHEMBL541055

>  <Standard Type>  (2675) 
Ki

>  <Standard Value>  (2675) 
10000.0

>  <label>  (2675) 
0

$$$$
CHEMBL382642
     RDKit          3D

  0  0  0  0  0  0  0  0  0  0999 V3000
M  V30 BEGIN CTAB
M  V30 COUNTS 46 50 0 0 1
M  V30 BEGIN ATOM
M  V30 1 C 6.330893 4.525627 -12.453059 0
M  V30 2 C 6.010348 3.265976 -12.984599 0
M  V30 3 C 6.830097 2.677523 -13.967521 0
M  V30 4 C 7.978566 3.348356 -14.469189 0
M  V30 5 C 8.883484 2.702081 -15.562926 0 CFG=2
M  V30 6 C 8.021749 1.876518 -16.578756 0
M  V30 7 C 8.859521 1.025025 -17.536745 0
M  V30 8 C 9.699698 0.059807 -16.700994 0
M  V30 9 C 10.604390 0.846652 -15.747035 0
M  V30 10 N 9.867949 1.802599 -14.862328 0 CFG=1 CHG=1
M  V30 11 C 10.820786 2.569776 -14.005215 0
M  V30 12 C 11.687815 3.573336 -14.809291 0
M  V30 13 C 10.933708 4.189575 -15.940838 0
M  V30 14 C 9.686274 3.761878 -16.297977 0
M  V30 15 N 9.286655 4.467812 -17.424608 0
M  V30 16 C 10.255229 5.373339 -17.806084 0
M  V30 17 C 10.321682 6.297922 -18.862127 0
M  V30 18 C 11.466887 7.100819 -19.008068 0
M  V30 19 C 12.529003 6.975419 -18.089628 0
M  V30 20 C 12.453794 6.045140 -17.031872 0
M  V30 21 C 11.317365 5.219952 -16.866152 0
M  V30 22 C 8.279295 4.623169 -13.912857 0
M  V30 23 C 7.473735 5.198983 -12.912181 0
M  V30 24 H 5.712519 4.968493 -11.685403 0
M  V30 25 H 5.142860 2.737291 -12.621018 0
M  V30 26 H 6.543856 1.695027 -14.301676 0
M  V30 27 H 7.373429 1.162273 -16.077524 0
M  V30 28 H 7.355845 2.532861 -17.139849 0
M  V30 29 H 8.207942 0.465156 -18.211018 0
M  V30 30 H 9.498350 1.652889 -18.162767 0
M  V30 31 H 9.056723 -0.621123 -16.138218 0
M  V30 32 H 10.307444 -0.562408 -17.359037 0
M  V30 33 H 11.158387 0.143441 -15.124846 0
M  V30 34 H 11.348622 1.376125 -16.345270 0
M  V30 35 H 10.275995 3.091881 -13.221496 0
M  V30 36 H 11.461432 1.872113 -13.463775 0
M  V30 37 H 12.091939 4.337274 -14.144824 0
M  V30 38 H 12.541940 3.051194 -15.228445 0
M  V30 39 H 8.389235 4.350418 -17.873806 0
M  V30 40 H 9.500477 6.394591 -19.555613 0
M  V30 41 H 11.529086 7.820963 -19.810253 0
M  V30 42 H 13.402657 7.600292 -18.196760 0
M  V30 43 H 13.277393 5.960703 -16.337568 0
M  V30 44 H 9.136893 5.191401 -14.237521 0
M  V30 45 H 7.725420 6.163464 -12.495991 0
M  V30 46 H 9.315343 1.233198 -14.231219 0
M  V30 END ATOM
M  V30 BEGIN BOND
M  V30 1 2 2 1
M  V30 2 1 3 2
M  V30 3 2 4 3
M  V30 4 1 5 4 CFG=1
M  V30 5 1 6 5
M  V30 6 1 7 6
M  V30 7 1 8 7
M  V30 8 1 9 8
M  V30 9 1 10 5
M  V30 10 1 10 9
M  V30 11 1 11 10
M  V30 12 1 12 11
M  V30 13 1 13 12
M  V30 14 1 14 5
M  V30 15 2 14 13
M  V30 16 1 15 14
M  V30 17 1 16 15
M  V30 18 2 17 16
M  V30 19 1 18 17
M  V30 20 2 19 18
M  V30 21 1 20 19
M  V30 22 1 21 13
M  V30 23 1 21 16
M  V30 24 2 21 20
M  V30 25 1 22 4
M  V30 26 1 23 1
M  V30 27 2 23 22
M  V30 28 1 24 1
M  V30 29 1 25 2
M  V30 30 1 26 3
M  V30 31 1 27 6
M  V30 32 1 28 6
M  V30 33 1 29 7
M  V30 34 1 30 7
M  V30 35 1 31 8
M  V30 36 1 32 8
M  V30 37 1 33 9
M  V30 38 1 34 9
M  V30 39 1 35 11
M  V30 40 1 36 11
M  V30 41 1 37 12
M  V30 42 1 38 12
M  V30 43 1 39 15
M  V30 44 1 40 17
M  V30 45 1 41 18
M  V30 46 1 42 19
M  V30 47 1 43 20
M  V30 48 1 44 22
M  V30 49 1 45 23
M  V30 50 1 10 46 CFG=1
M  V30 END BOND
M  V30 END CTAB
M  END
>  <b_m_subgroup_collapsed>  (2676) 
0

>  <r_i_docking_score>  (2676) 
-4.8360442861071702

>  <s_m_subgroup_title>  (2676) 
glide-dock_SP_D22_pv

>  <s_m_subgroupid>  (2676) 
glide-dock_SP_D22_pv

>  <Molecule ChEMBL ID>  (2676) 
CHEMBL382642

>  <Standard Type>  (2676) 
Ki

>  <Standard Value>  (2676) 
10000.0

>  <label>  (2676) 
0

$$$$
CHEMBL201142
     RDKit          3D

  0  0  0  0  0  0  0  0  0  0999 V3000
M  V30 BEGIN CTAB
M  V30 COUNTS 42 44 0 0 1
M  V30 BEGIN ATOM
M  V30 1 C 7.333269 6.476778 -12.802247 0
M  V30 2 C 8.486316 6.063206 -13.345212 0
M  V30 3 C 8.610895 4.942865 -14.361972 0
M  V30 4 N 9.188396 3.721847 -13.774883 0 CFG=2 CHG=1
M  V30 5 C 10.462989 3.879266 -13.046883 0
M  V30 6 C 11.781054 4.045531 -13.846717 0
M  V30 7 C 11.981969 5.277700 -14.707997 0
M  V30 8 C 12.089112 6.524439 -14.055450 0
M  V30 9 C 12.486066 7.671432 -14.764290 0
M  V30 10 C 12.737257 7.591952 -16.144278 0
M  V30 11 C 12.589756 6.363226 -16.811174 0
M  V30 12 C 12.230851 5.194520 -16.103481 0
M  V30 13 C 12.177368 3.882158 -16.875534 0
M  V30 14 C 10.810295 3.585237 -17.416880 0
M  V30 15 C 10.367066 4.150738 -18.651617 0
M  V30 16 C 9.133759 3.711956 -19.040760 0
M  V30 17 S 8.485846 2.572762 -17.903128 0
M  V30 18 C 9.864008 2.752448 -16.855293 0
M  V30 19 C 9.885674 1.953764 -15.590506 0
M  V30 20 C 8.925597 2.421613 -14.468144 0
M  V30 21 H 6.384326 6.021323 -13.045287 0
M  V30 22 H 7.327166 7.292785 -12.097680 0
M  V30 23 H 9.396775 6.561596 -13.046404 0
M  V30 24 H 7.594788 4.691185 -14.646635 0
M  V30 25 H 9.155603 5.270333 -15.248174 0
M  V30 26 H 10.389489 4.677998 -12.310667 0
M  V30 27 H 10.485460 2.974513 -12.446643 0
M  V30 28 H 12.559616 4.168684 -13.091980 0
M  V30 29 H 12.086427 3.128165 -14.320303 0
M  V30 30 H 11.934890 6.596300 -12.989005 0
M  V30 31 H 12.603552 8.610080 -14.246936 0
M  V30 32 H 13.031071 8.475297 -16.693663 0
M  V30 33 H 12.785504 6.317493 -17.872694 0
M  V30 34 H 12.874620 3.966218 -17.710440 0
M  V30 35 H 12.581323 3.044457 -16.313208 0
M  V30 36 H 10.973916 4.842243 -19.217867 0
M  V30 37 H 8.580214 3.975534 -19.931051 0
M  V30 38 H 9.564244 0.945464 -15.855391 0
M  V30 39 H 10.894810 1.781403 -15.239017 0
M  V30 40 H 8.936011 1.651111 -13.697064 0
M  V30 41 H 7.902477 2.422443 -14.846465 0
M  V30 42 H 8.558839 3.617825 -12.990958 0
M  V30 END ATOM
M  V30 BEGIN BOND
M  V30 1 2 2 1
M  V30 2 1 3 2
M  V30 3 1 4 3
M  V30 4 1 5 4
M  V30 5 1 6 5
M  V30 6 1 7 6
M  V30 7 2 8 7
M  V30 8 1 9 8
M  V30 9 2 10 9
M  V30 10 1 11 10
M  V30 11 1 12 7
M  V30 12 2 12 11
M  V30 13 1 13 12
M  V30 14 1 14 13
M  V30 15 1 15 14
M  V30 16 2 16 15
M  V30 17 1 17 16
M  V30 18 2 18 14
M  V30 19 1 18 17
M  V30 20 1 19 18
M  V30 21 1 20 4
M  V30 22 1 20 19
M  V30 23 1 21 1
M  V30 24 1 22 1
M  V30 25 1 23 2
M  V30 26 1 24 3
M  V30 27 1 25 3
M  V30 28 1 26 5
M  V30 29 1 27 5
M  V30 30 1 28 6
M  V30 31 1 29 6
M  V30 32 1 30 8
M  V30 33 1 31 9
M  V30 34 1 32 10
M  V30 35 1 33 11
M  V30 36 1 34 13
M  V30 37 1 35 13
M  V30 38 1 36 15
M  V30 39 1 37 16
M  V30 40 1 38 19
M  V30 41 1 39 19
M  V30 42 1 40 20
M  V30 43 1 41 20
M  V30 44 1 4 42 CFG=1
M  V30 END BOND
M  V30 END CTAB
M  END
>  <b_m_subgroup_collapsed>  (2677) 
0

>  <r_i_docking_score>  (2677) 
-4.8316517122054803

>  <s_m_subgroup_title>  (2677) 
glide-dock_SP_D22_pv

>  <s_m_subgroupid>  (2677) 
glide-dock_SP_D22_pv

>  <Molecule ChEMBL ID>  (2677) 
CHEMBL201142

>  <Standard Type>  (2677) 
Ki

>  <Standard Value>  (2677) 
10000.0

>  <label>  (2677) 
0

$$$$
CHEMBL4171581
     RDKit          3D

  0  0  0  0  0  0  0  0  0  0999 V3000
M  V30 BEGIN CTAB
M  V30 COUNTS 47 50 0 0 1
M  V30 BEGIN ATOM
M  V30 1 C 11.827519 9.889678 -6.316919 0
M  V30 2 C 11.001534 8.971720 -7.153154 0
M  V30 3 C 9.833009 8.347211 -6.802660 0
M  V30 4 C 9.286104 7.549800 -7.845307 0
M  V30 5 C 10.039903 7.578495 -8.987081 0
M  V30 6 C 9.781150 6.903594 -10.247483 0
M  V30 7 N 10.485788 6.908077 -11.378290 0
M  V30 8 C 9.794516 6.052018 -12.228312 0
M  V30 9 C 10.299032 5.726913 -13.603239 0
M  V30 10 N 11.085284 4.513704 -13.844748 0
M  V30 11 C 10.274235 3.335420 -13.553711 0
M  V30 12 C 11.552788 4.434837 -15.231630 0
M  V30 13 C 12.818750 5.278293 -15.486796 0 CFG=2
M  V30 14 C 12.562578 6.775860 -15.808536 0
M  V30 15 C 13.412926 6.978693 -17.009604 0
M  V30 16 C 13.691769 8.173037 -17.691971 0
M  V30 17 C 14.521334 8.101914 -18.832464 0
M  V30 18 C 15.039306 6.857093 -19.265205 0
M  V30 19 C 14.734366 5.669530 -18.562054 0
M  V30 20 C 13.914047 5.759836 -17.424112 0
M  V30 21 O 13.512800 4.728849 -16.624054 0
M  V30 22 C 8.660730 5.632547 -11.579610 0
M  V30 23 C 7.494276 4.791754 -11.968136 0
M  V30 24 O 8.670324 6.125407 -10.307820 0
M  V30 25 S 11.459928 8.572297 -8.791418 0
M  V30 26 H 11.564537 9.804977 -5.262364 0
M  V30 27 H 12.886058 9.657933 -6.418738 0
M  V30 28 H 11.679872 10.926527 -6.619558 0
M  V30 29 H 9.344707 8.434398 -5.847271 0
M  V30 30 H 8.363950 6.997997 -7.729994 0
M  V30 31 H 9.455410 5.730616 -14.294559 0
M  V30 32 H 10.914765 6.569883 -13.901614 0
M  V30 33 H 10.839835 2.419211 -13.729653 0
M  V30 34 H 9.974010 3.318964 -12.505693 0
M  V30 35 H 9.374447 3.304005 -14.170017 0
M  V30 36 H 11.835197 3.399079 -15.429354 0
M  V30 37 H 10.757741 4.669609 -15.940557 0
M  V30 38 H 13.508832 5.191315 -14.646700 0
M  V30 39 H 11.524582 6.971665 -16.078007 0
M  V30 40 H 12.855570 7.434240 -14.990334 0
M  V30 41 H 13.286081 9.115268 -17.355143 0
M  V30 42 H 14.756267 9.002361 -19.380907 0
M  V30 43 H 15.668972 6.813987 -20.141243 0
M  V30 44 H 15.119903 4.715333 -18.888540 0
M  V30 45 H 7.370547 4.765965 -13.051755 0
M  V30 46 H 7.618286 3.772327 -11.608066 0
M  V30 47 H 6.576412 5.188853 -11.529625 0
M  V30 END ATOM
M  V30 BEGIN BOND
M  V30 1 1 2 1
M  V30 2 2 3 2
M  V30 3 1 4 3
M  V30 4 2 5 4
M  V30 5 1 6 5
M  V30 6 2 7 6
M  V30 7 1 8 7
M  V30 8 1 9 8
M  V30 9 1 10 9
M  V30 10 1 11 10
M  V30 11 1 12 10
M  V30 12 1 13 12
M  V30 13 1 14 13
M  V30 14 1 15 14
M  V30 15 2 16 15
M  V30 16 1 17 16
M  V30 17 2 18 17
M  V30 18 1 19 18
M  V30 19 1 20 15
M  V30 20 2 20 19
M  V30 21 1 21 13
M  V30 22 1 21 20
M  V30 23 2 22 8
M  V30 24 1 23 22
M  V30 25 1 24 6
M  V30 26 1 24 22
M  V30 27 1 25 2
M  V30 28 1 25 5
M  V30 29 1 26 1
M  V30 30 1 27 1
M  V30 31 1 28 1
M  V30 32 1 29 3
M  V30 33 1 30 4
M  V30 34 1 31 9
M  V30 35 1 32 9
M  V30 36 1 33 11
M  V30 37 1 34 11
M  V30 38 1 35 11
M  V30 39 1 36 12
M  V30 40 1 37 12
M  V30 41 1 13 38 CFG=1
M  V30 42 1 39 14
M  V30 43 1 40 14
M  V30 44 1 41 16
M  V30 45 1 42 17
M  V30 46 1 43 18
M  V30 47 1 44 19
M  V30 48 1 45 23
M  V30 49 1 46 23
M  V30 50 1 47 23
M  V30 END BOND
M  V30 END CTAB
M  END
>  <b_m_subgroup_collapsed>  (2678) 
0

>  <r_i_docking_score>  (2678) 
-4.8214218282551098

>  <s_m_subgroup_title>  (2678) 
glide-dock_SP_D22_pv

>  <s_m_subgroupid>  (2678) 
glide-dock_SP_D22_pv

>  <Molecule ChEMBL ID>  (2678) 
CHEMBL4171581

>  <Standard Type>  (2678) 
Ki

>  <Standard Value>  (2678) 
10000.0

>  <label>  (2678) 
0

$$$$
CHEMBL396561
     RDKit          3D

  0  0  0  0  0  0  0  0  0  0999 V3000
M  V30 BEGIN CTAB
M  V30 COUNTS 49 52 0 0 1
M  V30 BEGIN ATOM
M  V30 1 C 4.975590 0.813627 -21.228706 0
M  V30 2 O 6.352223 0.799780 -20.876751 0
M  V30 3 C 6.677000 0.633269 -19.547440 0
M  V30 4 C 5.729900 0.566417 -18.500437 0
M  V30 5 C 6.156800 0.400745 -17.171423 0
M  V30 6 C 7.528693 0.306981 -16.849665 0
M  V30 7 C 8.489407 0.369274 -17.896708 0
M  V30 8 C 8.045869 0.529842 -19.228954 0
M  V30 9 C 9.992516 0.250356 -17.659298 0
M  V30 10 C 10.837506 1.499026 -18.011946 0
M  V30 11 N 10.586511 2.760282 -17.254755 0 CFG=1 CHG=1
M  V30 12 C 9.275492 3.419464 -17.474440 0
M  V30 13 C 11.166101 2.868387 -15.883756 0
M  V30 14 C 10.544730 2.002399 -14.765153 0
M  V30 15 C 9.107051 2.306213 -14.466094 0
M  V30 16 C 8.008406 1.517449 -14.718632 0
M  V30 17 N 6.877072 2.179628 -14.270583 0
M  V30 18 C 7.200674 3.395742 -13.711362 0
M  V30 19 C 6.421772 4.399786 -13.107934 0
M  V30 20 C 7.053866 5.546054 -12.593698 0
M  V30 21 C 8.451517 5.676218 -12.690701 0
M  V30 22 C 9.222381 4.666005 -13.299372 0
M  V30 23 C 8.616712 3.499091 -13.825072 0
M  V30 24 C 7.894208 0.175192 -15.373955 0
M  V30 25 H 4.881403 0.938804 -22.307209 0
M  V30 26 H 4.449805 1.642708 -20.752802 0
M  V30 27 H 4.486038 -0.124840 -20.962761 0
M  V30 28 H 4.668835 0.637879 -18.687597 0
M  V30 29 H 5.415318 0.349147 -16.387993 0
M  V30 30 H 8.766764 0.570133 -20.033283 0
M  V30 31 H 10.235611 -0.125218 -16.675392 0
M  V30 32 H 10.328292 -0.555840 -18.314053 0
M  V30 33 H 11.890173 1.243016 -17.891670 0
M  V30 34 H 10.717472 1.719084 -19.073654 0
M  V30 35 H 8.453510 2.905286 -16.984406 0
M  V30 36 H 9.044209 3.465761 -18.540083 0
M  V30 37 H 9.291422 4.444744 -17.099754 0
M  V30 38 H 12.228475 2.632958 -15.951777 0
M  V30 39 H 11.122337 3.916519 -15.582920 0
M  V30 40 H 10.700451 0.942900 -14.941179 0
M  V30 41 H 11.120455 2.192048 -13.857074 0
M  V30 42 H 5.948350 1.789515 -14.330709 0
M  V30 43 H 5.351861 4.291186 -13.022311 0
M  V30 44 H 6.471958 6.320654 -12.112294 0
M  V30 45 H 8.930802 6.552842 -12.280785 0
M  V30 46 H 10.294247 4.777107 -13.342775 0
M  V30 47 H 7.109808 -0.398501 -14.877518 0
M  V30 48 H 8.790915 -0.416333 -15.212024 0
M  V30 49 H 11.193762 3.394111 -17.754557 0
M  V30 END ATOM
M  V30 BEGIN BOND
M  V30 1 1 2 1
M  V30 2 1 3 2
M  V30 3 1 4 3
M  V30 4 2 5 4
M  V30 5 1 6 5
M  V30 6 2 7 6
M  V30 7 2 8 3
M  V30 8 1 8 7
M  V30 9 1 9 7
M  V30 10 1 10 9
M  V30 11 1 11 10
M  V30 12 1 12 11
M  V30 13 1 13 11
M  V30 14 1 14 13
M  V30 15 1 15 14
M  V30 16 2 16 15
M  V30 17 1 17 16
M  V30 18 1 18 17
M  V30 19 2 19 18
M  V30 20 1 20 19
M  V30 21 2 21 20
M  V30 22 1 22 21
M  V30 23 1 23 15
M  V30 24 1 23 18
M  V30 25 2 23 22
M  V30 26 1 24 6
M  V30 27 1 24 16
M  V30 28 1 25 1
M  V30 29 1 26 1
M  V30 30 1 27 1
M  V30 31 1 28 4
M  V30 32 1 29 5
M  V30 33 1 30 8
M  V30 34 1 31 9
M  V30 35 1 32 9
M  V30 36 1 33 10
M  V30 37 1 34 10
M  V30 38 1 35 12
M  V30 39 1 36 12
M  V30 40 1 37 12
M  V30 41 1 38 13
M  V30 42 1 39 13
M  V30 43 1 40 14
M  V30 44 1 41 14
M  V30 45 1 42 17
M  V30 46 1 43 19
M  V30 47 1 44 20
M  V30 48 1 45 21
M  V30 49 1 46 22
M  V30 50 1 47 24
M  V30 51 1 48 24
M  V30 52 1 11 49 CFG=3
M  V30 END BOND
M  V30 END CTAB
M  END
>  <b_m_subgroup_collapsed>  (2679) 
0

>  <r_i_docking_score>  (2679) 
-4.8137778498820296

>  <s_m_subgroup_title>  (2679) 
glide-dock_SP_D22_pv

>  <s_m_subgroupid>  (2679) 
glide-dock_SP_D22_pv

>  <Molecule ChEMBL ID>  (2679) 
CHEMBL396561

>  <Standard Type>  (2679) 
Ki

>  <Standard Value>  (2679) 
22.8

>  <label>  (2679) 
1

$$$$
CHEMBL5273758
     RDKit          3D

  0  0  0  0  0  0  0  0  0  0999 V3000
M  V30 BEGIN CTAB
M  V30 COUNTS 43 46 0 0 1
M  V30 BEGIN ATOM
M  V30 1 C 9.845458 4.961111 -16.577881 0
M  V30 2 N 10.499943 3.717870 -16.096857 0 CFG=2 CHG=1
M  V30 3 C 9.969114 2.488116 -16.737638 0
M  V30 4 C 8.544342 2.171559 -16.258501 0
M  V30 5 C 8.473165 1.974438 -14.735741 0 CFG=2
M  V30 6 C 7.026909 1.977633 -14.247539 0
M  V30 7 C 6.486341 2.975143 -13.514310 0
M  V30 8 O 5.237700 2.868637 -13.047260 0
M  V30 9 C 7.250564 4.172233 -13.197853 0
M  V30 10 O 6.622872 5.227996 -12.655756 0
M  V30 11 C 8.581274 4.185936 -13.412698 0
M  V30 12 C 9.539551 5.345947 -13.231992 0 CFG=1
M  V30 13 C 9.684694 5.904932 -11.820472 0
M  V30 14 C 10.219918 7.200236 -11.651121 0
M  V30 15 C 10.344833 7.761604 -10.365136 0
M  V30 16 C 9.931226 7.028914 -9.236285 0
M  V30 17 C 9.401930 5.733331 -9.394076 0
M  V30 18 C 9.286221 5.169201 -10.680264 0
M  V30 19 C 10.883288 4.860230 -13.835019 0
M  V30 20 C 10.608722 3.553363 -14.616882 0 CFG=1
M  V30 21 C 9.336137 2.998432 -13.952287 0 CFG=2
M  V30 22 H 8.886482 5.119610 -16.092018 0
M  V30 23 H 9.675385 4.925087 -17.654318 0
M  V30 24 H 10.468146 5.834875 -16.387918 0
M  V30 25 H 9.982475 2.602099 -17.822073 0
M  V30 26 H 10.628604 1.648992 -16.510344 0
M  V30 27 H 7.876828 2.970373 -16.565687 0
M  V30 28 H 8.174562 1.275660 -16.758940 0
M  V30 29 H 8.882812 0.987027 -14.515538 0
M  V30 30 H 6.439744 1.100187 -14.476551 0
M  V30 31 H 5.070832 3.659005 -12.552285 0
M  V30 32 H 7.275535 5.820047 -12.307343 0
M  V30 33 H 9.132511 6.146753 -13.845512 0
M  V30 34 H 10.528825 7.772112 -12.513386 0
M  V30 35 H 10.746354 8.756900 -10.245248 0
M  V30 36 H 10.011159 7.461166 -8.249558 0
M  V30 37 H 9.082200 5.173466 -8.526478 0
M  V30 38 H 8.880914 4.172627 -10.777456 0
M  V30 39 H 11.408684 5.633286 -14.394686 0
M  V30 40 H 11.560317 4.591070 -13.029044 0
M  V30 41 H 11.426771 2.849603 -14.451103 0
M  V30 42 H 9.671241 2.496841 -13.046906 0
M  V30 43 H 11.452453 3.794599 -16.426197 0
M  V30 END ATOM
M  V30 BEGIN BOND
M  V30 1 1 2 1
M  V30 2 1 3 2
M  V30 3 1 4 3
M  V30 4 1 5 4
M  V30 5 1 6 5
M  V30 6 2 7 6
M  V30 7 1 8 7
M  V30 8 1 9 7
M  V30 9 1 10 9
M  V30 10 2 11 9
M  V30 11 1 12 11
M  V30 12 1 13 12
M  V30 13 2 14 13
M  V30 14 1 15 14
M  V30 15 2 16 15
M  V30 16 1 17 16
M  V30 17 1 18 13
M  V30 18 2 18 17
M  V30 19 1 19 12
M  V30 20 1 20 2
M  V30 21 1 20 19
M  V30 22 1 21 5
M  V30 23 1 21 11
M  V30 24 1 21 20
M  V30 25 1 22 1
M  V30 26 1 23 1
M  V30 27 1 24 1
M  V30 28 1 25 3
M  V30 29 1 26 3
M  V30 30 1 27 4
M  V30 31 1 28 4
M  V30 32 1 5 29 CFG=3
M  V30 33 1 30 6
M  V30 34 1 31 8
M  V30 35 1 32 10
M  V30 36 1 12 33 CFG=3
M  V30 37 1 34 14
M  V30 38 1 35 15
M  V30 39 1 36 16
M  V30 40 1 37 17
M  V30 41 1 38 18
M  V30 42 1 39 19
M  V30 43 1 40 19
M  V30 44 1 20 41 CFG=3
M  V30 45 1 21 42 CFG=1
M  V30 46 1 2 43 CFG=3
M  V30 END BOND
M  V30 END CTAB
M  END
>  <b_m_subgroup_collapsed>  (2680) 
0

>  <r_i_docking_score>  (2680) 
-4.8136362315833399

>  <s_m_subgroup_title>  (2680) 
glide-dock_SP_D22_pv

>  <s_m_subgroupid>  (2680) 
glide-dock_SP_D22_pv

>  <Molecule ChEMBL ID>  (2680) 
CHEMBL5273758

>  <Standard Type>  (2680) 
Ki

>  <Standard Value>  (2680) 
12.88

>  <label>  (2680) 
1

$$$$
CHEMBL245764
     RDKit          3D

  0  0  0  0  0  0  0  0  0  0999 V3000
M  V30 BEGIN CTAB
M  V30 COUNTS 52 55 0 0 1
M  V30 BEGIN ATOM
M  V30 1 C 9.750909 8.170716 -10.921730 0
M  V30 2 O 10.402611 7.219009 -11.754656 0
M  V30 3 C 9.644572 6.196648 -12.282175 0
M  V30 4 C 8.254541 6.048944 -12.059980 0
M  V30 5 C 7.552027 4.976295 -12.632255 0
M  V30 6 C 8.241167 4.031981 -13.415508 0
M  V30 7 C 9.631233 4.153458 -13.667206 0
M  V30 8 C 10.307532 5.254451 -13.095190 0
M  V30 9 C 10.031289 3.041817 -14.478190 0
M  V30 10 C 8.914066 2.255957 -14.667484 0
M  V30 11 N 7.823994 2.869630 -14.036225 0
M  V30 12 C 6.455914 2.391656 -13.949411 0
M  V30 13 C 8.818502 0.925647 -15.378105 0
M  V30 14 C 8.338930 1.014307 -16.830057 0
M  V30 15 C 6.947426 0.921051 -17.066582 0
M  V30 16 C 6.423598 0.972244 -18.370022 0
M  V30 17 C 7.289266 1.125643 -19.464436 0
M  V30 18 C 8.675469 1.211626 -19.249022 0
M  V30 19 C 9.216171 1.145273 -17.945286 0
M  V30 20 C 10.737226 1.150428 -17.830475 0
M  V30 21 C 11.447629 2.470141 -18.223913 0
M  V30 22 N 11.211434 3.677356 -17.381744 0 CFG=1 CHG=1
M  V30 23 C 9.850415 4.263769 -17.432230 0
M  V30 24 C 11.918618 3.743536 -16.069382 0
M  V30 25 C 11.432871 2.803270 -14.943981 0
M  V30 26 H 10.476144 8.909025 -10.582329 0
M  V30 27 H 9.321445 7.699836 -10.035674 0
M  V30 28 H 8.964380 8.702248 -11.461440 0
M  V30 29 H 7.700935 6.742836 -11.447217 0
M  V30 30 H 6.496699 4.868592 -12.437537 0
M  V30 31 H 11.368020 5.368320 -13.261845 0
M  V30 32 H 6.379607 1.328801 -14.150922 0
M  V30 33 H 5.841807 2.957803 -14.646576 0
M  V30 34 H 6.070359 2.559399 -12.943743 0
M  V30 35 H 9.762413 0.392847 -15.310120 0
M  V30 36 H 8.143477 0.263339 -14.834506 0
M  V30 37 H 6.261066 0.776167 -16.248461 0
M  V30 38 H 5.357080 0.887117 -18.527384 0
M  V30 39 H 6.891693 1.159096 -20.469814 0
M  V30 40 H 9.328363 1.299750 -20.104893 0
M  V30 41 H 11.090582 0.758098 -16.887619 0
M  V30 42 H 11.079982 0.391078 -18.534721 0
M  V30 43 H 12.524101 2.286337 -18.242870 0
M  V30 44 H 11.182177 2.723811 -19.251909 0
M  V30 45 H 9.101808 3.652508 -16.939449 0
M  V30 46 H 9.533398 4.396372 -18.467426 0
M  V30 47 H 9.839546 5.246863 -16.959389 0
M  V30 48 H 12.977744 3.547189 -16.249311 0
M  V30 49 H 11.873823 4.774623 -15.717077 0
M  V30 50 H 12.085525 2.974825 -14.090103 0
M  V30 51 H 11.611382 1.762015 -15.181076 0
M  V30 52 H 11.730775 4.372063 -17.901667 0
M  V30 END ATOM
M  V30 BEGIN BOND
M  V30 1 1 2 1
M  V30 2 1 3 2
M  V30 3 1 4 3
M  V30 4 2 5 4
M  V30 5 1 6 5
M  V30 6 2 7 6
M  V30 7 2 8 3
M  V30 8 1 8 7
M  V30 9 1 9 7
M  V30 10 2 10 9
M  V30 11 1 11 6
M  V30 12 1 11 10
M  V30 13 1 12 11
M  V30 14 1 13 10
M  V30 15 1 14 13
M  V30 16 2 15 14
M  V30 17 1 16 15
M  V30 18 2 17 16
M  V30 19 1 18 17
M  V30 20 1 19 14
M  V30 21 2 19 18
M  V30 22 1 20 19
M  V30 23 1 21 20
M  V30 24 1 22 21
M  V30 25 1 23 22
M  V30 26 1 24 22
M  V30 27 1 25 9
M  V30 28 1 25 24
M  V30 29 1 26 1
M  V30 30 1 27 1
M  V30 31 1 28 1
M  V30 32 1 29 4
M  V30 33 1 30 5
M  V30 34 1 31 8
M  V30 35 1 32 12
M  V30 36 1 33 12
M  V30 37 1 34 12
M  V30 38 1 35 13
M  V30 39 1 36 13
M  V30 40 1 37 15
M  V30 41 1 38 16
M  V30 42 1 39 17
M  V30 43 1 40 18
M  V30 44 1 41 20
M  V30 45 1 42 20
M  V30 46 1 43 21
M  V30 47 1 44 21
M  V30 48 1 45 23
M  V30 49 1 46 23
M  V30 50 1 47 23
M  V30 51 1 48 24
M  V30 52 1 49 24
M  V30 53 1 50 25
M  V30 54 1 51 25
M  V30 55 1 22 52 CFG=3
M  V30 END BOND
M  V30 END CTAB
M  END
>  <b_m_subgroup_collapsed>  (2681) 
0

>  <r_i_docking_score>  (2681) 
-4.8103287255511002

>  <s_m_subgroup_title>  (2681) 
glide-dock_SP_D22_pv

>  <s_m_subgroupid>  (2681) 
glide-dock_SP_D22_pv

>  <Molecule ChEMBL ID>  (2681) 
CHEMBL245764

>  <Standard Type>  (2681) 
Ki

>  <Standard Value>  (2681) 
1.7

>  <label>  (2681) 
1

$$$$
CHEMBL383451
     RDKit          3D

  0  0  0  0  0  0  0  0  0  0999 V3000
M  V30 BEGIN CTAB
M  V30 COUNTS 41 43 0 0 1
M  V30 BEGIN ATOM
M  V30 1 C 10.800646 5.233879 -16.938459 0
M  V30 2 N 10.884223 4.157372 -15.921975 0 CFG=2 CHG=1
M  V30 3 C 11.201687 4.679463 -14.568093 0
M  V30 4 C 10.543786 3.858665 -13.444316 0
M  V30 5 C 9.029197 3.987763 -13.405413 0
M  V30 6 C 8.505085 5.159095 -12.811520 0
M  V30 7 C 7.119551 5.343690 -12.663325 0
M  V30 8 C 6.236634 4.361938 -13.142107 0
M  V30 9 C 6.743377 3.196693 -13.745156 0
M  V30 10 C 8.136678 2.979686 -13.863258 0
M  V30 11 C 8.602723 1.621589 -14.393429 0
M  V30 12 C 8.587732 1.504964 -15.915619 0
M  V30 13 C 7.324536 1.322628 -16.514288 0
M  V30 14 C 7.183088 1.214245 -17.903818 0
M  V30 15 Cl 5.605396 0.971408 -18.569532 0
M  V30 16 C 8.320601 1.299633 -18.726572 0
M  V30 17 O 8.177787 1.259347 -20.086771 0 CHG=-1
M  V30 18 C 9.603533 1.419876 -18.146925 0
M  V30 19 Cl 10.994544 1.420598 -19.184752 0
M  V30 20 C 9.753066 1.526810 -16.735668 0
M  V30 21 C 11.162257 1.664362 -16.147877 0
M  V30 22 C 11.781459 3.056722 -16.365372 0
M  V30 23 H 11.765985 5.723132 -17.081602 0
M  V30 24 H 10.084529 5.997111 -16.640648 0
M  V30 25 H 10.465119 4.834050 -17.900146 0
M  V30 26 H 12.282127 4.726630 -14.425217 0
M  V30 27 H 10.856183 5.710122 -14.475644 0
M  V30 28 H 10.884362 2.828047 -13.449681 0
M  V30 29 H 10.886067 4.243759 -12.488989 0
M  V30 30 H 9.170046 5.923948 -12.435586 0
M  V30 31 H 6.735921 6.233451 -12.183778 0
M  V30 32 H 5.170213 4.499312 -13.038651 0
M  V30 33 H 6.043757 2.441300 -14.071006 0
M  V30 34 H 9.526267 1.293624 -13.932947 0
M  V30 35 H 7.895581 0.877566 -14.023289 0
M  V30 36 H 6.440976 1.258032 -15.899919 0
M  V30 37 H 11.211202 1.392312 -15.101131 0
M  V30 38 H 11.800467 0.916455 -16.621449 0
M  V30 39 H 12.004586 3.174176 -17.426455 0
M  V30 40 H 12.756992 3.117481 -15.878044 0
M  V30 41 H 9.952026 3.764692 -15.870023 0
M  V30 END ATOM
M  V30 BEGIN BOND
M  V30 1 1 2 1
M  V30 2 1 3 2
M  V30 3 1 4 3
M  V30 4 1 5 4
M  V30 5 2 6 5
M  V30 6 1 7 6
M  V30 7 2 8 7
M  V30 8 1 9 8
M  V30 9 1 10 5
M  V30 10 2 10 9
M  V30 11 1 11 10
M  V30 12 1 12 11
M  V30 13 1 13 12
M  V30 14 2 14 13
M  V30 15 1 15 14
M  V30 16 1 16 14
M  V30 17 1 17 16
M  V30 18 2 18 16
M  V30 19 1 19 18
M  V30 20 2 20 12
M  V30 21 1 20 18
M  V30 22 1 21 20
M  V30 23 1 22 2
M  V30 24 1 22 21
M  V30 25 1 23 1
M  V30 26 1 24 1
M  V30 27 1 25 1
M  V30 28 1 26 3
M  V30 29 1 27 3
M  V30 30 1 28 4
M  V30 31 1 29 4
M  V30 32 1 30 6
M  V30 33 1 31 7
M  V30 34 1 32 8
M  V30 35 1 33 9
M  V30 36 1 34 11
M  V30 37 1 35 11
M  V30 38 1 36 13
M  V30 39 1 37 21
M  V30 40 1 38 21
M  V30 41 1 39 22
M  V30 42 1 40 22
M  V30 43 1 2 41 CFG=1
M  V30 END BOND
M  V30 END CTAB
M  END
>  <b_m_subgroup_collapsed>  (2682) 
0

>  <r_i_docking_score>  (2682) 
-4.7941790808515803

>  <s_m_subgroup_title>  (2682) 
glide-dock_SP_D22_pv

>  <s_m_subgroupid>  (2682) 
glide-dock_SP_D22_pv

>  <Molecule ChEMBL ID>  (2682) 
CHEMBL383451

>  <Standard Type>  (2682) 
Ki

>  <Standard Value>  (2682) 
37.5

>  <label>  (2682) 
1

$$$$
CHEMBL383451
     RDKit          3D

  0  0  0  0  0  0  0  0  0  0999 V3000
M  V30 BEGIN CTAB
M  V30 COUNTS 41 43 0 0 1
M  V30 BEGIN ATOM
M  V30 1 C 10.638944 5.391870 -16.757137 0
M  V30 2 N 12.062386 5.034883 -16.558004 0 CFG=1 CHG=1
M  V30 3 C 12.645893 5.310505 -15.211370 0
M  V30 4 C 12.187421 4.418297 -14.036383 0
M  V30 5 C 10.722243 4.555322 -13.648662 0
M  V30 6 C 10.331207 5.771440 -13.046339 0
M  V30 7 C 9.001492 5.987570 -12.643850 0
M  V30 8 C 8.039453 4.988493 -12.851785 0
M  V30 9 C 8.415958 3.772189 -13.446997 0
M  V30 10 C 9.753627 3.527375 -13.838657 0
M  V30 11 C 10.071507 2.154186 -14.425929 0
M  V30 12 C 9.615730 2.000244 -15.875014 0
M  V30 13 C 8.268204 1.621446 -16.069031 0
M  V30 14 C 7.724206 1.500400 -17.354589 0
M  V30 15 Cl 6.086218 0.974025 -17.531981 0
M  V30 16 C 8.521766 1.793701 -18.476597 0
M  V30 17 O 7.957259 1.774739 -19.723122 0 CHG=-1
M  V30 18 C 9.894323 2.095845 -18.307098 0
M  V30 19 Cl 10.878221 2.308609 -19.719660 0
M  V30 20 C 10.461415 2.199601 -17.006310 0
M  V30 21 C 11.970383 2.441632 -16.853205 0
M  V30 22 C 12.540052 3.820971 -17.274117 0
M  V30 23 H 9.953904 4.755409 -16.205975 0
M  V30 24 H 10.374090 5.333739 -17.813721 0
M  V30 25 H 10.486386 6.422657 -16.437050 0
M  V30 26 H 13.731782 5.233263 -15.299932 0
M  V30 27 H 12.453320 6.356842 -14.965059 0
M  V30 28 H 12.484266 3.391294 -14.188903 0
M  V30 29 H 12.764909 4.718318 -13.160492 0
M  V30 30 H 11.057995 6.549228 -12.881936 0
M  V30 31 H 8.718115 6.920518 -12.180288 0
M  V30 32 H 7.019458 5.151648 -12.540398 0
M  V30 33 H 7.664857 3.007849 -13.574787 0
M  V30 34 H 11.091743 1.833118 -14.247789 0
M  V30 35 H 9.506066 1.422926 -13.847095 0
M  V30 36 H 7.629027 1.418691 -15.222400 0
M  V30 37 H 12.330702 2.169305 -15.871734 0
M  V30 38 H 12.451900 1.694297 -17.482756 0
M  V30 39 H 12.367730 3.994377 -18.334713 0
M  V30 40 H 13.627154 3.784182 -17.173626 0
M  V30 41 H 12.512587 5.755934 -17.101904 0
M  V30 END ATOM
M  V30 BEGIN BOND
M  V30 1 1 2 1
M  V30 2 1 3 2
M  V30 3 1 4 3
M  V30 4 1 5 4
M  V30 5 2 6 5
M  V30 6 1 7 6
M  V30 7 2 8 7
M  V30 8 1 9 8
M  V30 9 1 10 5
M  V30 10 2 10 9
M  V30 11 1 11 10
M  V30 12 1 12 11
M  V30 13 1 13 12
M  V30 14 2 14 13
M  V30 15 1 15 14
M  V30 16 1 16 14
M  V30 17 1 17 16
M  V30 18 2 18 16
M  V30 19 1 19 18
M  V30 20 2 20 12
M  V30 21 1 20 18
M  V30 22 1 21 20
M  V30 23 1 22 2
M  V30 24 1 22 21
M  V30 25 1 23 1
M  V30 26 1 24 1
M  V30 27 1 25 1
M  V30 28 1 26 3
M  V30 29 1 27 3
M  V30 30 1 28 4
M  V30 31 1 29 4
M  V30 32 1 30 6
M  V30 33 1 31 7
M  V30 34 1 32 8
M  V30 35 1 33 9
M  V30 36 1 34 11
M  V30 37 1 35 11
M  V30 38 1 36 13
M  V30 39 1 37 21
M  V30 40 1 38 21
M  V30 41 1 39 22
M  V30 42 1 40 22
M  V30 43 1 2 41 CFG=3
M  V30 END BOND
M  V30 END CTAB
M  END
>  <b_m_subgroup_collapsed>  (2683) 
0

>  <r_i_docking_score>  (2683) 
-4.7888706771767504

>  <s_m_subgroup_title>  (2683) 
glide-dock_SP_D22_pv

>  <s_m_subgroupid>  (2683) 
glide-dock_SP_D22_pv

>  <Molecule ChEMBL ID>  (2683) 
CHEMBL383451

>  <Standard Type>  (2683) 
Ki

>  <Standard Value>  (2683) 
37.5

>  <label>  (2683) 
1

$$$$
CHEMBL382642
     RDKit          3D

  0  0  0  0  0  0  0  0  0  0999 V3000
M  V30 BEGIN CTAB
M  V30 COUNTS 46 50 0 0 1
M  V30 BEGIN ATOM
M  V30 1 C 8.910135 5.634327 -19.890722 0
M  V30 2 C 9.294196 6.163020 -18.649298 0
M  V30 3 C 9.686954 5.305265 -17.604788 0
M  V30 4 C 9.693316 3.891695 -17.760199 0
M  V30 5 C 10.153043 2.962932 -16.590578 0 CFG=1
M  V30 6 C 9.518620 1.529912 -16.617769 0
M  V30 7 C 10.164369 0.481484 -17.554640 0
M  V30 8 C 11.691207 0.581072 -17.575035 0
M  V30 9 C 12.182843 2.025626 -17.705828 0
M  V30 10 N 11.649187 2.813414 -16.573383 0 CFG=1 CHG=1
M  V30 11 C 12.403975 4.066523 -16.264418 0
M  V30 12 C 12.076613 4.576183 -14.839766 0
M  V30 13 C 10.628682 4.377798 -14.504874 0
M  V30 14 C 9.796237 3.606327 -15.269908 0
M  V30 15 N 8.560454 3.532586 -14.646754 0
M  V30 16 C 8.542159 4.314380 -13.509396 0
M  V30 17 C 7.534853 4.587064 -12.569837 0
M  V30 18 C 7.811491 5.458872 -11.503278 0
M  V30 19 C 9.081593 6.055246 -11.390274 0
M  V30 20 C 10.084928 5.774262 -12.339536 0
M  V30 21 C 9.845525 4.887093 -13.414834 0
M  V30 22 C 9.284575 3.386414 -19.021727 0
M  V30 23 C 8.908669 4.242785 -20.074682 0
M  V30 24 H 8.614432 6.290256 -20.694651 0
M  V30 25 H 9.294347 7.233459 -18.498260 0
M  V30 26 H 9.985726 5.768484 -16.676437 0
M  V30 27 H 9.631692 1.106504 -15.617223 0
M  V30 28 H 8.443740 1.584517 -16.782528 0
M  V30 29 H 9.873562 -0.516584 -17.221100 0
M  V30 30 H 9.784598 0.534582 -18.568621 0
M  V30 31 H 12.084272 0.171893 -16.647423 0
M  V30 32 H 12.095185 -0.037013 -18.376757 0
M  V30 33 H 13.271693 2.025937 -17.676811 0
M  V30 34 H 11.903101 2.464781 -18.661856 0
M  V30 35 H 13.478189 3.892820 -16.330296 0
M  V30 36 H 12.189227 4.828306 -17.009550 0
M  V30 37 H 12.685386 4.044032 -14.110868 0
M  V30 38 H 12.353291 5.627280 -14.747534 0
M  V30 39 H 7.778719 2.995932 -15.000202 0
M  V30 40 H 6.553219 4.146355 -12.663320 0
M  V30 41 H 7.046765 5.699635 -10.778383 0
M  V30 42 H 9.275348 6.740363 -10.579703 0
M  V30 43 H 11.049529 6.248198 -12.246578 0
M  V30 44 H 9.248437 2.338310 -19.235409 0
M  V30 45 H 8.611871 3.829536 -21.026983 0
M  V30 46 H 11.827217 2.233382 -15.768579 0
M  V30 END ATOM
M  V30 BEGIN BOND
M  V30 1 2 2 1
M  V30 2 1 3 2
M  V30 3 2 4 3
M  V30 4 1 5 4 CFG=3
M  V30 5 1 6 5
M  V30 6 1 7 6
M  V30 7 1 8 7
M  V30 8 1 9 8
M  V30 9 1 10 5
M  V30 10 1 10 9
M  V30 11 1 11 10
M  V30 12 1 12 11
M  V30 13 1 13 12
M  V30 14 1 14 5
M  V30 15 2 14 13
M  V30 16 1 15 14
M  V30 17 1 16 15
M  V30 18 2 17 16
M  V30 19 1 18 17
M  V30 20 2 19 18
M  V30 21 1 20 19
M  V30 22 1 21 13
M  V30 23 1 21 16
M  V30 24 2 21 20
M  V30 25 1 22 4
M  V30 26 1 23 1
M  V30 27 2 23 22
M  V30 28 1 24 1
M  V30 29 1 25 2
M  V30 30 1 26 3
M  V30 31 1 27 6
M  V30 32 1 28 6
M  V30 33 1 29 7
M  V30 34 1 30 7
M  V30 35 1 31 8
M  V30 36 1 32 8
M  V30 37 1 33 9
M  V30 38 1 34 9
M  V30 39 1 35 11
M  V30 40 1 36 11
M  V30 41 1 37 12
M  V30 42 1 38 12
M  V30 43 1 39 15
M  V30 44 1 40 17
M  V30 45 1 41 18
M  V30 46 1 42 19
M  V30 47 1 43 20
M  V30 48 1 44 22
M  V30 49 1 45 23
M  V30 50 1 10 46 CFG=1
M  V30 END BOND
M  V30 END CTAB
M  END
>  <b_m_subgroup_collapsed>  (2684) 
0

>  <r_i_docking_score>  (2684) 
-4.7793622079679103

>  <s_m_subgroup_title>  (2684) 
glide-dock_SP_D22_pv

>  <s_m_subgroupid>  (2684) 
glide-dock_SP_D22_pv

>  <Molecule ChEMBL ID>  (2684) 
CHEMBL382642

>  <Standard Type>  (2684) 
Ki

>  <Standard Value>  (2684) 
10000.0

>  <label>  (2684) 
0

$$$$
CHEMBL228445
     RDKit          3D

  0  0  0  0  0  0  0  0  0  0999 V3000
M  V30 BEGIN CTAB
M  V30 COUNTS 66 69 0 0 1
M  V30 BEGIN ATOM
M  V30 1 O 15.093435 -0.624768 -19.891680 0
M  V30 2 S 14.810065 0.713309 -20.430361 0
M  V30 3 O 13.747462 0.906276 -21.428822 0
M  V30 4 N 14.468401 1.730808 -19.080238 0
M  V30 5 C 13.365222 2.685293 -19.126156 0 CFG=1
M  V30 6 C 12.072210 1.966158 -18.710478 0
M  V30 7 C 10.886471 2.941188 -18.607834 0
M  V30 8 C 11.169488 4.157356 -17.685604 0 CFG=1
M  V30 9 N 11.202379 3.874519 -16.211893 0 CFG=2 CHG=1
M  V30 10 C 10.389686 2.714792 -15.745967 0
M  V30 11 C 10.529267 2.478274 -14.222832 0
M  V30 12 C 10.197911 3.730444 -13.380436 0 CFG=2
M  V30 13 C 8.702895 4.087434 -13.272125 0
M  V30 14 C 7.711155 3.290562 -13.893634 0
M  V30 15 C 6.348371 3.596770 -13.774991 0
M  V30 16 C 5.946340 4.722503 -13.045784 0
M  V30 17 C 6.911962 5.514913 -12.400661 0
M  V30 18 C 8.291240 5.187144 -12.471672 0
M  V30 19 O 9.266465 5.870934 -11.774039 0
M  V30 20 C 8.885938 6.929615 -10.903872 0
M  V30 21 C 10.114921 7.473018 -10.167674 0
M  V30 22 F 9.820574 8.644821 -9.604472 0
M  V30 23 F 10.486540 6.617730 -9.214990 0
M  V30 24 F 11.124395 7.657450 -11.020313 0
M  V30 25 C 11.094687 4.866310 -13.920919 0
M  V30 26 C 10.875602 5.092610 -15.420843 0
M  V30 27 C 12.476615 4.845895 -18.148504 0
M  V30 28 C 13.665055 3.870916 -18.195637 0
M  V30 29 C 16.317070 1.448610 -21.057814 0
M  V30 30 C 16.220097 2.531595 -21.954767 0
M  V30 31 C 17.390015 3.147554 -22.439064 0
M  V30 32 Cl 17.269821 4.478934 -23.529060 0
M  V30 33 C 18.654125 2.678799 -22.031536 0
M  V30 34 C 18.746506 1.596193 -21.134232 0
M  V30 35 C 17.580362 0.974642 -20.647194 0
M  V30 36 F 17.685623 -0.056353 -19.777580 0
M  V30 37 H 14.520911 1.216401 -18.198706 0
M  V30 38 H 13.264018 3.064361 -20.144253 0
M  V30 39 H 12.232504 1.458679 -17.758465 0
M  V30 40 H 11.832028 1.183579 -19.432934 0
M  V30 41 H 9.974578 2.415008 -18.328117 0
M  V30 42 H 10.683552 3.318665 -19.611557 0
M  V30 43 H 10.343561 4.851922 -17.853228 0
M  V30 44 H 10.701573 1.795885 -16.236601 0
M  V30 45 H 9.352615 2.882773 -16.032282 0
M  V30 46 H 11.561228 2.191333 -14.019610 0
M  V30 47 H 9.935349 1.623667 -13.900087 0
M  V30 48 H 10.485973 3.527720 -12.351439 0
M  V30 49 H 7.958167 2.402251 -14.452633 0
M  V30 50 H 5.611360 2.967259 -14.246271 0
M  V30 51 H 4.895281 4.966974 -12.982261 0
M  V30 52 H 6.558599 6.368685 -11.846825 0
M  V30 53 H 8.419722 7.733669 -11.474761 0
M  V30 54 H 8.166921 6.570250 -10.167668 0
M  V30 55 H 10.949796 5.804043 -13.389637 0
M  V30 56 H 12.141638 4.609245 -13.749573 0
M  V30 57 H 11.486070 5.937536 -15.736048 0
M  V30 58 H 9.837074 5.373940 -15.600553 0
M  V30 59 H 12.323262 5.251572 -19.151011 0
M  V30 60 H 12.727381 5.704408 -17.526993 0
M  V30 61 H 13.892824 3.514005 -17.189663 0
M  V30 62 H 14.555887 4.395959 -18.544235 0
M  V30 63 H 15.250746 2.893257 -22.263697 0
M  V30 64 H 19.555159 3.148700 -22.401812 0
M  V30 65 H 19.716658 1.242778 -20.817616 0
M  V30 66 H 12.160261 3.636113 -15.999786 0
M  V30 END ATOM
M  V30 BEGIN BOND
M  V30 1 2 2 1
M  V30 2 2 3 2
M  V30 3 1 4 2
M  V30 4 1 5 4
M  V30 5 1 6 5
M  V30 6 1 7 6
M  V30 7 1 8 7
M  V30 8 1 9 8
M  V30 9 1 10 9
M  V30 10 1 11 10
M  V30 11 1 12 11
M  V30 12 1 13 12
M  V30 13 2 14 13
M  V30 14 1 15 14
M  V30 15 2 16 15
M  V30 16 1 17 16
M  V30 17 1 18 13
M  V30 18 2 18 17
M  V30 19 1 19 18
M  V30 20 1 20 19
M  V30 21 1 21 20
M  V30 22 1 22 21
M  V30 23 1 23 21
M  V30 24 1 24 21
M  V30 25 1 25 12
M  V30 26 1 26 9
M  V30 27 1 26 25
M  V30 28 1 27 8
M  V30 29 1 28 5
M  V30 30 1 28 27
M  V30 31 1 29 2
M  V30 32 1 30 29
M  V30 33 2 31 30
M  V30 34 1 32 31
M  V30 35 1 33 31
M  V30 36 2 34 33
M  V30 37 2 35 29
M  V30 38 1 35 34
M  V30 39 1 36 35
M  V30 40 1 37 4
M  V30 41 1 5 38 CFG=3
M  V30 42 1 39 6
M  V30 43 1 40 6
M  V30 44 1 41 7
M  V30 45 1 42 7
M  V30 46 1 8 43 CFG=1
M  V30 47 1 44 10
M  V30 48 1 45 10
M  V30 49 1 46 11
M  V30 50 1 47 11
M  V30 51 1 12 48 CFG=1
M  V30 52 1 49 14
M  V30 53 1 50 15
M  V30 54 1 51 16
M  V30 55 1 52 17
M  V30 56 1 53 20
M  V30 57 1 54 20
M  V30 58 1 55 25
M  V30 59 1 56 25
M  V30 60 1 57 26
M  V30 61 1 58 26
M  V30 62 1 59 27
M  V30 63 1 60 27
M  V30 64 1 61 28
M  V30 65 1 62 28
M  V30 66 1 63 30
M  V30 67 1 64 33
M  V30 68 1 65 34
M  V30 69 1 9 66 CFG=1
M  V30 END BOND
M  V30 END CTAB
M  END
>  <b_m_subgroup_collapsed>  (2685) 
0

>  <r_i_docking_score>  (2685) 
-4.77815834133294

>  <s_m_subgroup_title>  (2685) 
glide-dock_SP_D22_pv

>  <s_m_subgroupid>  (2685) 
glide-dock_SP_D22_pv

>  <Molecule ChEMBL ID>  (2685) 
CHEMBL228445

>  <Standard Type>  (2685) 
Ki

>  <Standard Value>  (2685) 
78.0

>  <label>  (2685) 
1

$$$$
CHEMBL3745882
     RDKit          3D

  0  0  0  0  0  0  0  0  0  0999 V3000
M  V30 BEGIN CTAB
M  V30 COUNTS 69 72 0 0 1
M  V30 BEGIN ATOM
M  V30 1 C 12.309218 8.239873 -7.846521 0
M  V30 2 C 10.805337 8.506024 -7.841899 0
M  V30 3 C 10.300517 8.822494 -6.422181 0
M  V30 4 C 10.054521 7.366930 -8.530168 0
M  V30 5 C 9.382867 6.374114 -7.776648 0
M  V30 6 C 8.633889 5.373165 -8.418792 0
M  V30 7 C 8.502403 5.378747 -9.814790 0
M  V30 8 C 9.163899 6.360119 -10.565410 0
M  V30 9 C 10.012899 7.306571 -9.943232 0
M  V30 10 O 10.764127 8.190763 -10.690974 0
M  V30 11 C 11.881474 7.633152 -11.399424 0
M  V30 12 C 11.397317 6.837426 -12.621121 0
M  V30 13 N 12.432490 6.432085 -13.620277 0 CFG=2 CHG=1
M  V30 14 C 12.646110 7.439532 -14.694599 0
M  V30 15 C 13.586370 6.949893 -15.832604 0
M  V30 16 C 13.386549 5.489212 -16.312273 0 CFG=2
M  V30 17 N 12.379265 5.236483 -17.381647 0
M  V30 18 C 11.444271 6.287776 -17.813362 0
M  V30 19 C 11.993944 7.054753 -19.002739 0
M  V30 20 C 11.499500 6.782614 -20.407726 0
M  V30 21 C 11.121416 8.062989 -19.713079 0
M  V30 22 S 12.276593 3.664253 -18.127466 0
M  V30 23 O 13.564112 2.973093 -17.969915 0
M  V30 24 O 11.626804 3.787418 -19.439047 0
M  V30 25 C 11.105661 2.735858 -17.115372 0
M  V30 26 C 9.872011 3.211275 -16.609291 0
M  V30 27 N 9.301210 2.292600 -15.846444 0
M  V30 28 N 10.156541 1.237620 -15.856440 0
M  V30 29 C 9.817575 0.053186 -15.097640 0
M  V30 30 C 11.277108 1.477020 -16.628756 0
M  V30 31 C 13.171275 4.584339 -15.096103 0
M  V30 32 C 12.071640 5.105885 -14.188196 0
M  V30 33 H 12.727937 8.277028 -8.849086 0
M  V30 34 H 12.850822 8.972431 -7.247751 0
M  V30 35 H 12.486361 7.243072 -7.446635 0
M  V30 36 H 10.625154 9.401310 -8.435302 0
M  V30 37 H 9.219509 8.971214 -6.413708 0
M  V30 38 H 10.530050 8.023578 -5.717033 0
M  V30 39 H 10.762232 9.731188 -6.037032 0
M  V30 40 H 9.414267 6.370138 -6.697827 0
M  V30 41 H 8.107302 4.624251 -7.846938 0
M  V30 42 H 7.868661 4.652754 -10.301999 0
M  V30 43 H 8.994687 6.376595 -11.629511 0
M  V30 44 H 12.484879 7.003277 -10.743210 0
M  V30 45 H 12.522222 8.456448 -11.714050 0
M  V30 46 H 10.582662 7.409832 -13.046915 0
M  V30 47 H 10.936109 5.924240 -12.257699 0
M  V30 48 H 13.058635 8.346173 -14.249109 0
M  V30 49 H 11.685555 7.732651 -15.105745 0
M  V30 50 H 14.603200 6.972066 -15.444518 0
M  V30 51 H 13.585847 7.657139 -16.664141 0
M  V30 52 H 14.339499 5.190302 -16.751904 0
M  V30 53 H 10.491328 5.836595 -18.088396 0
M  V30 54 H 11.219072 6.971725 -17.006254 0
M  V30 55 H 13.039747 7.337674 -18.906958 0
M  V30 56 H 12.226409 6.844213 -21.215868 0
M  V30 57 H 10.716827 6.037884 -20.541237 0
M  V30 58 H 10.089939 8.168457 -19.383453 0
M  V30 59 H 11.596047 8.974169 -20.064234 0
M  V30 60 H 9.390971 4.166737 -16.751778 0
M  V30 61 H 10.670002 -0.625091 -15.061157 0
M  V30 62 H 9.538412 0.332256 -14.080474 0
M  V30 63 H 8.978350 -0.458692 -15.568605 0
M  V30 64 H 12.080026 0.764182 -16.745630 0
M  V30 65 H 12.976847 3.552452 -15.380374 0
M  V30 66 H 14.084108 4.572275 -14.509534 0
M  V30 67 H 11.928138 4.375544 -13.391137 0
M  V30 68 H 11.125015 5.172451 -14.729609 0
M  V30 69 H 13.324771 6.301304 -13.150066 0
M  V30 END ATOM
M  V30 BEGIN BOND
M  V30 1 1 2 1
M  V30 2 1 3 2
M  V30 3 1 4 2
M  V30 4 2 5 4
M  V30 5 1 6 5
M  V30 6 2 7 6
M  V30 7 1 8 7
M  V30 8 1 9 4
M  V30 9 2 9 8
M  V30 10 1 10 9
M  V30 11 1 11 10
M  V30 12 1 12 11
M  V30 13 1 13 12
M  V30 14 1 14 13
M  V30 15 1 15 14
M  V30 16 1 16 15
M  V30 17 1 17 16
M  V30 18 1 18 17
M  V30 19 1 19 18
M  V30 20 1 20 19
M  V30 21 1 21 19
M  V30 22 1 21 20
M  V30 23 1 22 17
M  V30 24 2 23 22
M  V30 25 2 24 22
M  V30 26 1 25 22
M  V30 27 1 26 25
M  V30 28 2 27 26
M  V30 29 1 28 27
M  V30 30 1 29 28
M  V30 31 2 30 25
M  V30 32 1 30 28
M  V30 33 1 31 16
M  V30 34 1 32 13
M  V30 35 1 32 31
M  V30 36 1 33 1
M  V30 37 1 34 1
M  V30 38 1 35 1
M  V30 39 1 36 2
M  V30 40 1 37 3
M  V30 41 1 38 3
M  V30 42 1 39 3
M  V30 43 1 40 5
M  V30 44 1 41 6
M  V30 45 1 42 7
M  V30 46 1 43 8
M  V30 47 1 44 11
M  V30 48 1 45 11
M  V30 49 1 46 12
M  V30 50 1 47 12
M  V30 51 1 48 14
M  V30 52 1 49 14
M  V30 53 1 50 15
M  V30 54 1 51 15
M  V30 55 1 16 52 CFG=3
M  V30 56 1 53 18
M  V30 57 1 54 18
M  V30 58 1 55 19
M  V30 59 1 56 20
M  V30 60 1 57 20
M  V30 61 1 58 21
M  V30 62 1 59 21
M  V30 63 1 60 26
M  V30 64 1 61 29
M  V30 65 1 62 29
M  V30 66 1 63 29
M  V30 67 1 64 30
M  V30 68 1 65 31
M  V30 69 1 66 31
M  V30 70 1 67 32
M  V30 71 1 68 32
M  V30 72 1 13 69 CFG=1
M  V30 END BOND
M  V30 END CTAB
M  END
>  <b_m_subgroup_collapsed>  (2686) 
0

>  <r_i_docking_score>  (2686) 
-4.7639227427282602

>  <s_m_subgroup_title>  (2686) 
glide-dock_SP_D22_pv

>  <s_m_subgroupid>  (2686) 
glide-dock_SP_D22_pv

>  <Molecule ChEMBL ID>  (2686) 
CHEMBL3745882

>  <Standard Type>  (2686) 
Ki

>  <Standard Value>  (2686) 
18.0

>  <label>  (2686) 
1

$$$$
CHEMBL544118
     RDKit          3D

  0  0  0  0  0  0  0  0  0  0999 V3000
M  V30 BEGIN CTAB
M  V30 COUNTS 39 41 0 0 1
M  V30 BEGIN ATOM
M  V30 1 C 3.533224 -1.518268 -16.369396 0
M  V30 2 N 4.679394 -0.605721 -16.568192 0 CFG=2 CHG=1
M  V30 3 C 4.802339 -0.212797 -17.989897 0
M  V30 4 C 5.704926 1.006662 -18.188534 0
M  V30 5 C 7.200693 0.698904 -18.153172 0
M  V30 6 C 7.978220 0.857838 -19.332092 0
M  V30 7 Cl 7.260992 1.329263 -20.839155 0
M  V30 8 C 9.366261 0.619482 -19.311901 0
M  V30 9 O 10.086616 0.754339 -20.467880 0
M  V30 10 C 10.004052 0.261212 -18.108477 0
M  V30 11 O 11.355237 0.036134 -18.089567 0 CHG=-1
M  V30 12 C 9.247062 0.122964 -16.925394 0
M  V30 13 Cl 10.085919 -0.217202 -15.446533 0
M  V30 14 C 7.832360 0.276191 -16.948385 0
M  V30 15 C 7.017877 -0.089028 -15.691727 0 CFG=1
M  V30 16 C 6.615049 1.077111 -14.780700 0
M  V30 17 C 7.296099 2.314776 -14.853833 0
M  V30 18 C 6.966760 3.372478 -13.983387 0
M  V30 19 C 5.948685 3.211058 -13.028300 0
M  V30 20 C 5.285496 1.975885 -12.924228 0
M  V30 21 C 5.621459 0.913252 -13.785729 0
M  V30 22 C 5.925513 -1.147552 -15.983495 0
M  V30 23 H 3.665730 -2.423292 -16.964403 0
M  V30 24 H 2.608512 -1.027646 -16.673592 0
M  V30 25 H 3.418599 -1.805614 -15.323936 0
M  V30 26 H 5.135870 -1.051615 -18.603844 0
M  V30 27 H 3.808882 0.050852 -18.356251 0
M  V30 28 H 5.411918 1.472488 -19.125631 0
M  V30 29 H 5.492770 1.772677 -17.447058 0
M  V30 30 H 9.547948 1.017488 -21.197208 0
M  V30 31 H 7.677688 -0.628052 -15.023838 0
M  V30 32 H 8.091389 2.468665 -15.568460 0
M  V30 33 H 7.497325 4.311236 -14.049767 0
M  V30 34 H 5.695968 4.022431 -12.359796 0
M  V30 35 H 4.522925 1.846304 -12.172715 0
M  V30 36 H 5.106596 -0.026173 -13.659588 0
M  V30 37 H 5.686728 -1.660632 -15.051178 0
M  V30 38 H 6.314855 -1.919588 -16.647097 0
M  V30 39 H 4.462926 0.232482 -16.046867 0
M  V30 END ATOM
M  V30 BEGIN BOND
M  V30 1 1 2 1
M  V30 2 1 3 2
M  V30 3 1 4 3
M  V30 4 1 5 4
M  V30 5 2 6 5
M  V30 6 1 7 6
M  V30 7 1 8 6
M  V30 8 1 9 8
M  V30 9 2 10 8
M  V30 10 1 11 10
M  V30 11 1 12 10
M  V30 12 1 13 12
M  V30 13 1 14 5
M  V30 14 2 14 12
M  V30 15 1 15 14
M  V30 16 1 16 15
M  V30 17 2 17 16
M  V30 18 1 18 17
M  V30 19 2 19 18
M  V30 20 1 20 19
M  V30 21 1 21 16
M  V30 22 2 21 20
M  V30 23 1 22 2
M  V30 24 1 22 15
M  V30 25 1 23 1
M  V30 26 1 24 1
M  V30 27 1 25 1
M  V30 28 1 26 3
M  V30 29 1 27 3
M  V30 30 1 28 4
M  V30 31 1 29 4
M  V30 32 1 30 9
M  V30 33 1 15 31 CFG=1
M  V30 34 1 32 17
M  V30 35 1 33 18
M  V30 36 1 34 19
M  V30 37 1 35 20
M  V30 38 1 36 21
M  V30 39 1 37 22
M  V30 40 1 38 22
M  V30 41 1 2 39 CFG=1
M  V30 END BOND
M  V30 END CTAB
M  END
>  <b_m_subgroup_collapsed>  (2687) 
0

>  <r_i_docking_score>  (2687) 
-4.74230259355783

>  <s_m_subgroup_title>  (2687) 
glide-dock_SP_D22_pv

>  <s_m_subgroupid>  (2687) 
glide-dock_SP_D22_pv

>  <Molecule ChEMBL ID>  (2687) 
CHEMBL544118

>  <Standard Type>  (2687) 
Ki

>  <Standard Value>  (2687) 
810000.0

>  <label>  (2687) 
0

$$$$
CHEMBL5646887
     RDKit          3D

  0  0  0  0  0  0  0  0  0  0999 V3000
M  V30 BEGIN CTAB
M  V30 COUNTS 69 70 0 0 1
M  V30 BEGIN ATOM
M  V30 1 C 10.472362 7.192835 -6.005864 0
M  V30 2 C 10.501594 8.022013 -7.060307 0
M  V30 3 C 11.022523 7.639489 -8.431655 0
M  V30 4 N 9.962194 7.743356 -9.463424 0 CFG=1 CHG=1
M  V30 5 C 9.462263 9.102947 -9.755801 0
M  V30 6 C 8.749591 9.019481 -11.112754 0
M  V30 7 C 9.128026 7.644054 -11.654288 0 CFG=2
M  V30 8 O 8.090178 6.686436 -11.644721 0
M  V30 9 C 7.146986 6.923943 -12.660166 0
M  V30 10 C 5.967704 5.952142 -12.558427 0
M  V30 11 C 6.399007 4.484962 -12.611523 0
M  V30 12 N 7.239681 4.172852 -11.448895 0 CHG=1
M  V30 13 C 10.240056 7.096254 -10.766510 0 CFG=1
M  V30 14 C 11.660750 7.381452 -11.347624 0
M  V30 15 N 11.976238 6.866404 -12.696891 0
M  V30 16 C 11.367323 5.920152 -13.446811 0
M  V30 17 O 10.340119 5.335689 -13.095079 0
M  V30 18 C 12.046609 5.577127 -14.749610 0
M  V30 19 C 12.730556 6.590586 -15.458110 0
M  V30 20 C 13.362414 6.311046 -16.681513 0
M  V30 21 C 14.148079 7.393701 -17.397299 0
M  V30 22 C 13.316132 8.128492 -18.455296 0
M  V30 23 C 14.087309 9.250323 -19.160925 0
M  V30 24 F 15.117748 8.750399 -19.839607 0
M  V30 25 C 13.276302 5.019097 -17.228424 0
M  V30 26 C 12.583133 3.982743 -16.553726 0
M  V30 27 O 12.519370 2.698025 -17.056950 0
M  V30 28 C 13.172692 2.399618 -18.282969 0
M  V30 29 C 11.967157 4.263741 -15.297539 0
M  V30 30 O 11.336265 3.298105 -14.533398 0
M  V30 31 C 10.588237 2.273407 -15.173231 0
M  V30 32 H 10.829022 6.175369 -6.075974 0
M  V30 33 H 10.088025 7.520743 -5.051721 0
M  V30 34 H 10.135551 9.031349 -6.938286 0
M  V30 35 H 11.876840 8.271784 -8.679476 0
M  V30 36 H 11.369894 6.605900 -8.392760 0
M  V30 37 H 8.798630 9.448524 -8.964472 0
M  V30 38 H 10.314309 9.775598 -9.826361 0
M  V30 39 H 7.686227 9.216552 -11.046310 0
M  V30 40 H 9.039798 9.772351 -11.841753 0
M  V30 41 H 9.502215 7.782160 -12.647343 0
M  V30 42 H 6.773250 7.948286 -12.652894 0
M  V30 43 H 7.685005 6.776538 -13.595926 0
M  V30 44 H 5.390283 6.151765 -11.652355 0
M  V30 45 H 5.300812 6.148892 -13.392554 0
M  V30 46 H 5.526964 3.830097 -12.616232 0
M  V30 47 H 6.962459 4.285500 -13.525523 0
M  V30 48 H 7.641392 3.250329 -11.525295 0
M  V30 49 H 7.971295 4.873141 -11.411333 0
M  V30 50 H 10.135651 6.018989 -10.629705 0
M  V30 51 H 11.843085 8.454936 -11.374367 0
M  V30 52 H 12.412007 6.975912 -10.672826 0
M  V30 53 H 12.840569 7.210975 -13.092450 0
M  V30 54 H 12.784291 7.595092 -15.065197 0
M  V30 55 H 14.501952 8.107747 -16.660200 0
M  V30 56 H 15.034820 6.951831 -17.847389 0
M  V30 57 H 12.936396 7.420479 -19.194801 0
M  V30 58 H 12.445637 8.572315 -17.970695 0
M  V30 59 H 13.451380 9.778293 -19.871164 0
M  V30 60 H 14.478206 9.980392 -18.456459 0
M  V30 61 H 13.771850 4.844216 -18.171993 0
M  V30 62 H 13.040174 1.342650 -18.508736 0
M  V30 63 H 12.752913 2.971179 -19.112305 0
M  V30 64 H 14.244236 2.586519 -18.220421 0
M  V30 65 H 9.815031 1.918877 -14.489626 0
M  V30 66 H 10.092966 2.628111 -16.078705 0
M  V30 67 H 11.218204 1.417665 -15.414408 0
M  V30 68 H 6.685081 4.246640 -10.597357 0
M  V30 69 H 9.153613 7.254314 -9.098777 0
M  V30 END ATOM
M  V30 BEGIN BOND
M  V30 1 2 2 1
M  V30 2 1 3 2
M  V30 3 1 4 3
M  V30 4 1 5 4
M  V30 5 1 6 5
M  V30 6 1 7 6
M  V30 7 1 8 7
M  V30 8 1 9 8
M  V30 9 1 10 9
M  V30 10 1 11 10
M  V30 11 1 12 11
M  V30 12 1 13 4
M  V30 13 1 13 7
M  V30 14 1 14 13
M  V30 15 1 15 14
M  V30 16 1 16 15
M  V30 17 2 17 16
M  V30 18 1 18 16
M  V30 19 2 19 18
M  V30 20 1 20 19
M  V30 21 1 21 20
M  V30 22 1 22 21
M  V30 23 1 23 22
M  V30 24 1 24 23
M  V30 25 2 25 20
M  V30 26 1 26 25
M  V30 27 1 27 26
M  V30 28 1 28 27
M  V30 29 1 29 18
M  V30 30 2 29 26
M  V30 31 1 30 29
M  V30 32 1 31 30
M  V30 33 1 32 1
M  V30 34 1 33 1
M  V30 35 1 34 2
M  V30 36 1 35 3
M  V30 37 1 36 3
M  V30 38 1 37 5
M  V30 39 1 38 5
M  V30 40 1 39 6
M  V30 41 1 40 6
M  V30 42 1 7 41 CFG=3
M  V30 43 1 42 9
M  V30 44 1 43 9
M  V30 45 1 44 10
M  V30 46 1 45 10
M  V30 47 1 46 11
M  V30 48 1 47 11
M  V30 49 1 48 12
M  V30 50 1 49 12
M  V30 51 1 13 50 CFG=1
M  V30 52 1 51 14
M  V30 53 1 52 14
M  V30 54 1 53 15
M  V30 55 1 54 19
M  V30 56 1 55 21
M  V30 57 1 56 21
M  V30 58 1 57 22
M  V30 59 1 58 22
M  V30 60 1 59 23
M  V30 61 1 60 23
M  V30 62 1 61 25
M  V30 63 1 62 28
M  V30 64 1 63 28
M  V30 65 1 64 28
M  V30 66 1 65 31
M  V30 67 1 66 31
M  V30 68 1 67 31
M  V30 69 1 68 12
M  V30 70 1 4 69 CFG=1
M  V30 END BOND
M  V30 END CTAB
M  END
>  <b_m_subgroup_collapsed>  (2688) 
0

>  <r_i_docking_score>  (2688) 
-4.7402334870623397

>  <s_m_subgroup_title>  (2688) 
glide-dock_SP_D22_pv

>  <s_m_subgroupid>  (2688) 
glide-dock_SP_D22_pv

>  <Molecule ChEMBL ID>  (2688) 
CHEMBL5646887

>  <Standard Type>  (2688) 
Ki

>  <Standard Value>  (2688) 
21.4

>  <label>  (2688) 
1

$$$$
CHEMBL544118
     RDKit          3D

  0  0  0  0  0  0  0  0  0  0999 V3000
M  V30 BEGIN CTAB
M  V30 COUNTS 39 41 0 0 1
M  V30 BEGIN ATOM
M  V30 1 C 11.814722 1.090724 -17.058851 0
M  V30 2 N 10.395405 1.323732 -16.699369 0 CFG=1 CHG=1
M  V30 3 C 9.514153 1.179520 -17.878942 0
M  V30 4 C 8.145906 1.818312 -17.651146 0
M  V30 5 C 7.177856 0.936209 -16.872290 0
M  V30 6 C 6.042144 0.384505 -17.527122 0
M  V30 7 Cl 5.790737 0.571483 -19.232506 0
M  V30 8 C 5.084330 -0.331389 -16.784277 0
M  V30 9 O 4.000329 -0.913437 -17.365686 0
M  V30 10 C 5.207027 -0.453143 -15.395679 0
M  V30 11 O 4.183150 -1.028376 -14.689787 0 CHG=-1
M  V30 12 C 6.367244 0.016465 -14.751348 0
M  V30 13 Cl 6.486187 -0.227064 -13.046914 0
M  V30 14 C 7.390492 0.678873 -15.488067 0
M  V30 15 C 8.707844 1.075850 -14.788665 0 CFG=2
M  V30 16 C 8.779758 2.536926 -14.310008 0
M  V30 17 C 7.594496 3.241303 -13.984344 0
M  V30 18 C 7.649932 4.542107 -13.447155 0
M  V30 19 C 8.891948 5.167590 -13.242174 0
M  V30 20 C 10.078537 4.484374 -13.563453 0
M  V30 21 C 10.023810 3.176764 -14.083726 0
M  V30 22 C 9.969366 0.532342 -15.515848 0
M  V30 23 H 11.990857 0.043354 -17.306192 0
M  V30 24 H 12.483843 1.372284 -16.247324 0
M  V30 25 H 12.107732 1.692867 -17.919369 0
M  V30 26 H 9.978354 1.705702 -18.714500 0
M  V30 27 H 9.421329 0.135866 -18.184824 0
M  V30 28 H 8.254963 2.767458 -17.125866 0
M  V30 29 H 7.736175 2.099937 -18.617138 0
M  V30 30 H 3.537202 -1.333198 -16.647663 0
M  V30 31 H 8.748895 0.527205 -13.851140 0
M  V30 32 H 6.624778 2.782343 -14.110446 0
M  V30 33 H 6.736929 5.057806 -13.185999 0
M  V30 34 H 8.931900 6.164165 -12.826073 0
M  V30 35 H 11.034473 4.956543 -13.388980 0
M  V30 36 H 10.959312 2.673239 -14.269836 0
M  V30 37 H 9.822125 -0.512347 -15.796310 0
M  V30 38 H 10.792063 0.518699 -14.799177 0
M  V30 39 H 10.339293 2.293893 -16.419889 0
M  V30 END ATOM
M  V30 BEGIN BOND
M  V30 1 1 2 1
M  V30 2 1 3 2
M  V30 3 1 4 3
M  V30 4 1 5 4
M  V30 5 2 6 5
M  V30 6 1 7 6
M  V30 7 1 8 6
M  V30 8 1 9 8
M  V30 9 2 10 8
M  V30 10 1 11 10
M  V30 11 1 12 10
M  V30 12 1 13 12
M  V30 13 1 14 5
M  V30 14 2 14 12
M  V30 15 1 15 14
M  V30 16 1 16 15
M  V30 17 2 17 16
M  V30 18 1 18 17
M  V30 19 2 19 18
M  V30 20 1 20 19
M  V30 21 1 21 16
M  V30 22 2 21 20
M  V30 23 1 22 2
M  V30 24 1 22 15
M  V30 25 1 23 1
M  V30 26 1 24 1
M  V30 27 1 25 1
M  V30 28 1 26 3
M  V30 29 1 27 3
M  V30 30 1 28 4
M  V30 31 1 29 4
M  V30 32 1 30 9
M  V30 33 1 15 31 CFG=1
M  V30 34 1 32 17
M  V30 35 1 33 18
M  V30 36 1 34 19
M  V30 37 1 35 20
M  V30 38 1 36 21
M  V30 39 1 37 22
M  V30 40 1 38 22
M  V30 41 1 2 39 CFG=1
M  V30 END BOND
M  V30 END CTAB
M  END
>  <b_m_subgroup_collapsed>  (2689) 
0

>  <r_i_docking_score>  (2689) 
-4.72884626237337

>  <s_m_subgroup_title>  (2689) 
glide-dock_SP_D22_pv

>  <s_m_subgroupid>  (2689) 
glide-dock_SP_D22_pv

>  <Molecule ChEMBL ID>  (2689) 
CHEMBL544118

>  <Standard Type>  (2689) 
Ki

>  <Standard Value>  (2689) 
810000.0

>  <label>  (2689) 
0

$$$$
CHEMBL170923
     RDKit          3D

  0  0  0  0  0  0  0  0  0  0999 V3000
M  V30 BEGIN CTAB
M  V30 COUNTS 41 44 0 0 1
M  V30 BEGIN ATOM
M  V30 1 C 9.218276 8.830134 -9.384305 0
M  V30 2 C 10.130293 7.973728 -10.267000 0
M  V30 3 C 9.347594 7.210645 -11.351755 0
M  V30 4 N 10.129514 6.200308 -12.079008 0
M  V30 5 C 11.257783 6.804966 -12.806458 0
M  V30 6 C 12.071426 5.811336 -13.663943 0
M  V30 7 O 11.209759 5.007281 -14.458537 0
M  V30 8 C 10.245674 4.326650 -13.663033 0 CFG=2
M  V30 9 C 9.481555 3.279324 -14.444128 0
M  V30 10 C 10.180095 2.419522 -15.323210 0
M  V30 11 C 9.456543 1.434202 -16.013781 0
M  V30 12 C 8.090982 1.308280 -15.835292 0
M  V30 13 C 7.373290 2.137504 -14.959199 0
M  V30 14 C 8.081700 3.129099 -14.246235 0
M  V30 15 O 7.374802 3.932216 -13.380733 0
M  V30 16 C 8.123718 4.633740 -12.390306 0
M  V30 17 C 9.330057 5.377617 -13.002007 0 CFG=1
M  V30 18 C 7.586928 0.177057 -16.659590 0
M  V30 19 C 8.856647 -0.204198 -17.458241 0
M  V30 20 O 9.963805 0.516961 -16.890095 0
M  V30 21 H 9.797178 9.372478 -8.637829 0
M  V30 22 H 8.487487 8.214224 -8.857558 0
M  V30 23 H 8.665954 9.555973 -9.980743 0
M  V30 24 H 10.881040 8.622141 -10.718839 0
M  V30 25 H 10.666010 7.263948 -9.636022 0
M  V30 26 H 8.516889 6.731100 -10.836619 0
M  V30 27 H 8.902260 7.918136 -12.052785 0
M  V30 28 H 10.889121 7.601710 -13.446739 0
M  V30 29 H 11.944846 7.280831 -12.107366 0
M  V30 30 H 12.757718 6.351913 -14.316738 0
M  V30 31 H 12.684561 5.157659 -13.046948 0
M  V30 32 H 10.767999 3.772740 -12.881867 0
M  V30 33 H 11.247101 2.513588 -15.462777 0
M  V30 34 H 6.310778 2.009613 -14.818541 0
M  V30 35 H 7.422754 5.322532 -11.921741 0
M  V30 36 H 8.451552 3.938991 -11.615873 0
M  V30 37 H 8.926889 6.021012 -13.784512 0
M  V30 38 H 7.259395 -0.628353 -16.004084 0
M  V30 39 H 6.760606 0.480789 -17.302633 0
M  V30 40 H 9.038786 -1.279333 -17.447151 0
M  V30 41 H 8.754011 0.099835 -18.500610 0
M  V30 END ATOM
M  V30 BEGIN BOND
M  V30 1 1 2 1
M  V30 2 1 3 2
M  V30 3 1 4 3
M  V30 4 1 5 4
M  V30 5 1 6 5
M  V30 6 1 7 6
M  V30 7 1 8 7
M  V30 8 1 9 8
M  V30 9 1 10 9
M  V30 10 2 11 10
M  V30 11 1 12 11
M  V30 12 2 13 12
M  V30 13 2 14 9
M  V30 14 1 14 13
M  V30 15 1 15 14
M  V30 16 1 16 15
M  V30 17 1 17 4
M  V30 18 1 17 8
M  V30 19 1 17 16
M  V30 20 1 18 12
M  V30 21 1 19 18
M  V30 22 1 20 11
M  V30 23 1 20 19
M  V30 24 1 21 1
M  V30 25 1 22 1
M  V30 26 1 23 1
M  V30 27 1 24 2
M  V30 28 1 25 2
M  V30 29 1 26 3
M  V30 30 1 27 3
M  V30 31 1 28 5
M  V30 32 1 29 5
M  V30 33 1 30 6
M  V30 34 1 31 6
M  V30 35 1 8 32 CFG=1
M  V30 36 1 33 10
M  V30 37 1 34 13
M  V30 38 1 35 16
M  V30 39 1 36 16
M  V30 40 1 17 37 CFG=3
M  V30 41 1 38 18
M  V30 42 1 39 18
M  V30 43 1 40 19
M  V30 44 1 41 19
M  V30 END BOND
M  V30 END CTAB
M  END
>  <b_m_subgroup_collapsed>  (2690) 
0

>  <r_i_docking_score>  (2690) 
-4.7174760771584197

>  <s_m_subgroup_title>  (2690) 
glide-dock_SP_D22_pv

>  <s_m_subgroupid>  (2690) 
glide-dock_SP_D22_pv

>  <Molecule ChEMBL ID>  (2690) 
CHEMBL170923

>  <Standard Type>  (2690) 
Ki

>  <Standard Value>  (2690) 
12589.25

>  <label>  (2690) 
0

$$$$
CHEMBL1949727
     RDKit          3D

  0  0  0  0  0  0  0  0  0  0999 V3000
M  V30 BEGIN CTAB
M  V30 COUNTS 47 50 0 0 1
M  V30 BEGIN ATOM
M  V30 1 C 11.648317 1.256998 -17.576807 0
M  V30 2 N 10.262865 1.206667 -17.045998 0 CFG=2 CHG=1
M  V30 3 C 10.088351 0.172432 -16.001493 0
M  V30 4 C 10.242802 0.787534 -14.609488 0
M  V30 5 C 9.358878 2.007713 -14.372534 0
M  V30 6 C 9.982082 3.260396 -14.190558 0
M  V30 7 C 9.219246 4.412620 -13.922591 0
M  V30 8 C 7.820492 4.319412 -13.842573 0
M  V30 9 C 7.183721 3.082455 -14.045827 0
M  V30 10 C 7.941580 1.922078 -14.309561 0
M  V30 11 C 7.202401 0.601648 -14.439105 0
M  V30 12 C 6.544954 0.285637 -15.777624 0
M  V30 13 N 5.497860 -0.619559 -15.852081 0
M  V30 14 C 5.004605 -0.797721 -17.116297 0
M  V30 15 C 3.970942 -1.584211 -17.646324 0
M  V30 16 C 3.712936 -1.529894 -19.025686 0
M  V30 17 C 4.486023 -0.688644 -19.850183 0
M  V30 18 C 5.520585 0.093603 -19.300915 0
M  V30 19 C 5.812644 0.053819 -17.915197 0
M  V30 20 C 6.799947 0.709157 -17.056416 0
M  V30 21 C 7.817995 1.716787 -17.543404 0
M  V30 22 C 9.203397 1.266964 -18.094807 0 CFG=2
M  V30 23 C 9.155284 0.063813 -19.063784 0
M  V30 24 O 8.816660 0.316135 -20.240145 0
M  V30 25 O 9.472170 -1.070757 -18.639914 0 CHG=-1
M  V30 26 H 11.895400 0.348758 -18.130959 0
M  V30 27 H 12.367199 1.363642 -16.762253 0
M  V30 28 H 11.781787 2.109464 -18.246269 0
M  V30 29 H 9.122505 -0.311535 -16.090374 0
M  V30 30 H 10.810889 -0.627885 -16.138016 0
M  V30 31 H 10.039156 0.037429 -13.846990 0
M  V30 32 H 11.285155 1.071931 -14.462370 0
M  V30 33 H 11.057911 3.345491 -14.230171 0
M  V30 34 H 9.708219 5.364177 -13.767466 0
M  V30 35 H 7.233125 5.197232 -13.617236 0
M  V30 36 H 6.107522 3.022441 -13.979477 0
M  V30 37 H 7.841624 -0.227732 -14.154422 0
M  V30 38 H 6.412077 0.603695 -13.686672 0
M  V30 39 H 5.159764 -1.117769 -15.041832 0
M  V30 40 H 3.379282 -2.225295 -17.005033 0
M  V30 41 H 2.927207 -2.134867 -19.446926 0
M  V30 42 H 4.286045 -0.646035 -20.910784 0
M  V30 43 H 6.105552 0.725231 -19.952188 0
M  V30 44 H 7.315406 2.206809 -18.373522 0
M  V30 45 H 7.946158 2.516409 -16.817364 0
M  V30 46 H 9.519249 2.109464 -18.716362 0
M  V30 47 H 10.140128 2.076243 -16.548489 0
M  V30 END ATOM
M  V30 BEGIN BOND
M  V30 1 1 2 1
M  V30 2 1 3 2
M  V30 3 1 4 3
M  V30 4 1 5 4
M  V30 5 2 6 5
M  V30 6 1 7 6
M  V30 7 2 8 7
M  V30 8 1 9 8
M  V30 9 1 10 5
M  V30 10 2 10 9
M  V30 11 1 11 10
M  V30 12 1 12 11
M  V30 13 1 13 12
M  V30 14 1 14 13
M  V30 15 2 15 14
M  V30 16 1 16 15
M  V30 17 2 17 16
M  V30 18 1 18 17
M  V30 19 1 19 14
M  V30 20 2 19 18
M  V30 21 2 20 12
M  V30 22 1 20 19
M  V30 23 1 21 20
M  V30 24 1 22 2
M  V30 25 1 22 21
M  V30 26 1 23 22
M  V30 27 2 24 23
M  V30 28 1 25 23
M  V30 29 1 26 1
M  V30 30 1 27 1
M  V30 31 1 28 1
M  V30 32 1 29 3
M  V30 33 1 30 3
M  V30 34 1 31 4
M  V30 35 1 32 4
M  V30 36 1 33 6
M  V30 37 1 34 7
M  V30 38 1 35 8
M  V30 39 1 36 9
M  V30 40 1 37 11
M  V30 41 1 38 11
M  V30 42 1 39 13
M  V30 43 1 40 15
M  V30 44 1 41 16
M  V30 45 1 42 17
M  V30 46 1 43 18
M  V30 47 1 44 21
M  V30 48 1 45 21
M  V30 49 1 22 46 CFG=3
M  V30 50 1 2 47 CFG=1
M  V30 END BOND
M  V30 END CTAB
M  END
>  <b_m_subgroup_collapsed>  (2691) 
0

>  <r_i_docking_score>  (2691) 
-4.7087712315289796

>  <s_m_subgroup_title>  (2691) 
glide-dock_SP_D22_pv

>  <s_m_subgroupid>  (2691) 
glide-dock_SP_D22_pv

>  <Molecule ChEMBL ID>  (2691) 
CHEMBL1949727

>  <Standard Type>  (2691) 
Ki

>  <Standard Value>  (2691) 
10000.0

>  <label>  (2691) 
0

$$$$
CHEMBL4225278
     RDKit          3D

  0  0  0  0  0  0  0  0  0  0999 V3000
M  V30 BEGIN CTAB
M  V30 COUNTS 53 54 0 0 1
M  V30 BEGIN ATOM
M  V30 1 C 11.231683 6.671016 -1.998689 0
M  V30 2 C 12.519183 7.475146 -2.050920 0
M  V30 3 C 12.360762 8.811081 -2.751749 0
M  V30 4 C 12.029265 8.571216 -4.215468 0
M  V30 5 C 12.242391 9.806836 -5.069237 0
M  V30 6 C 12.024495 9.564547 -6.556936 0
M  V30 7 C 10.726348 8.816911 -6.846577 0
M  V30 8 C 10.523778 8.606215 -8.331935 0
M  V30 9 C 9.177002 7.916225 -8.569895 0
M  V30 10 N 8.887671 7.658908 -9.990219 0 CFG=1 CHG=1
M  V30 11 C 8.885268 8.825229 -10.883565 0
M  V30 12 C 8.697875 8.194257 -12.253198 0
M  V30 13 C 9.412011 6.821829 -12.157973 0 CFG=2
M  V30 14 C 8.596562 5.664011 -12.711288 0
M  V30 15 C 9.075855 4.904759 -13.799326 0
M  V30 16 C 8.357202 3.777824 -14.246741 0
M  V30 17 C 7.149751 3.411192 -13.620338 0
M  V30 18 C 6.681375 4.161043 -12.525216 0
M  V30 19 O 5.568221 3.770127 -11.847038 0
M  V30 20 C 7.391907 5.286095 -12.082197 0
M  V30 21 C 9.691006 6.624322 -10.658973 0
M  V30 22 H 11.424254 5.771655 -1.446851 0
M  V30 23 H 10.444651 7.197280 -1.471001 0
M  V30 24 H 10.886794 6.372024 -2.986599 0
M  V30 25 H 13.278678 6.884182 -2.569887 0
M  V30 26 H 12.886092 7.660207 -1.046819 0
M  V30 27 H 13.286333 9.372647 -2.656027 0
M  V30 28 H 11.587908 9.416529 -2.276242 0
M  V30 29 H 10.988436 8.259600 -4.270682 0
M  V30 30 H 12.626015 7.751801 -4.613800 0
M  V30 31 H 13.259731 10.172297 -4.924623 0
M  V30 32 H 11.553708 10.572892 -4.721493 0
M  V30 33 H 12.875039 9.029141 -6.981600 0
M  V30 34 H 11.983015 10.531186 -7.046837 0
M  V30 35 H 9.886751 9.369928 -6.420703 0
M  V30 36 H 10.733015 7.832338 -6.382310 0
M  V30 37 H 11.348094 8.010496 -8.721411 0
M  V30 38 H 10.569529 9.573944 -8.827457 0
M  V30 39 H 8.382624 8.545324 -8.167988 0
M  V30 40 H 9.122311 6.972789 -8.024537 0
M  V30 41 H 9.840695 9.343160 -10.847508 0
M  V30 42 H 8.088953 9.532489 -10.639290 0
M  V30 43 H 9.067967 8.845490 -13.045428 0
M  V30 44 H 7.629471 8.059554 -12.426250 0
M  V30 45 H 10.368365 6.870172 -12.681647 0
M  V30 46 H 10.004096 5.168680 -14.284348 0
M  V30 47 H 8.733160 3.191488 -15.072134 0
M  V30 48 H 6.605021 2.541724 -13.957437 0
M  V30 49 H 5.505337 4.168533 -10.981353 0
M  V30 50 H 7.019792 5.835275 -11.231169 0
M  V30 51 H 9.454383 5.625984 -10.287302 0
M  V30 52 H 10.751143 6.791136 -10.472209 0
M  V30 53 H 7.902197 7.372214 -10.020867 0
M  V30 END ATOM
M  V30 BEGIN BOND
M  V30 1 1 2 1
M  V30 2 1 3 2
M  V30 3 1 4 3
M  V30 4 1 5 4
M  V30 5 1 6 5
M  V30 6 1 7 6
M  V30 7 1 8 7
M  V30 8 1 9 8
M  V30 9 1 10 9
M  V30 10 1 11 10
M  V30 11 1 12 11
M  V30 12 1 13 12
M  V30 13 1 14 13
M  V30 14 2 15 14
M  V30 15 1 16 15
M  V30 16 2 17 16
M  V30 17 1 18 17
M  V30 18 1 19 18
M  V30 19 1 20 14
M  V30 20 2 20 18
M  V30 21 1 21 10
M  V30 22 1 21 13
M  V30 23 1 22 1
M  V30 24 1 23 1
M  V30 25 1 24 1
M  V30 26 1 25 2
M  V30 27 1 26 2
M  V30 28 1 27 3
M  V30 29 1 28 3
M  V30 30 1 29 4
M  V30 31 1 30 4
M  V30 32 1 31 5
M  V30 33 1 32 5
M  V30 34 1 33 6
M  V30 35 1 34 6
M  V30 36 1 35 7
M  V30 37 1 36 7
M  V30 38 1 37 8
M  V30 39 1 38 8
M  V30 40 1 39 9
M  V30 41 1 40 9
M  V30 42 1 41 11
M  V30 43 1 42 11
M  V30 44 1 43 12
M  V30 45 1 44 12
M  V30 46 1 13 45 CFG=3
M  V30 47 1 46 15
M  V30 48 1 47 16
M  V30 49 1 48 17
M  V30 50 1 49 19
M  V30 51 1 50 20
M  V30 52 1 51 21
M  V30 53 1 52 21
M  V30 54 1 10 53 CFG=1
M  V30 END BOND
M  V30 END CTAB
M  END
>  <b_m_subgroup_collapsed>  (2692) 
0

>  <r_i_docking_score>  (2692) 
-4.7003583621704896

>  <s_m_subgroup_title>  (2692) 
glide-dock_SP_D22_pv

>  <s_m_subgroupid>  (2692) 
glide-dock_SP_D22_pv

>  <Molecule ChEMBL ID>  (2692) 
CHEMBL4225278

>  <Standard Type>  (2692) 
Ki

>  <Standard Value>  (2692) 
42.0

>  <label>  (2692) 
1

$$$$
CHEMBL540799
     RDKit          3D

  0  0  0  0  0  0  0  0  0  0999 V3000
M  V30 BEGIN CTAB
M  V30 COUNTS 53 56 0 0 1
M  V30 BEGIN ATOM
M  V30 1 O 16.346361 5.769223 -17.412338 0
M  V30 2 C 15.423793 6.573355 -17.517950 0
M  V30 3 C 14.434136 6.712444 -16.356815 0
M  V30 4 C 13.084282 6.015403 -16.589071 0
M  V30 5 C 13.132446 4.488196 -16.375313 0
M  V30 6 N 11.836293 3.874394 -16.660797 0
M  V30 7 C 10.872963 4.138148 -15.588573 0
M  V30 8 C 9.487194 3.635109 -16.013220 0
M  V30 9 C 9.504458 2.126700 -16.314568 0
M  V30 10 C 10.667359 1.793877 -17.270689 0
M  V30 11 C 11.991894 2.424871 -16.799574 0
M  V30 12 O 9.636547 1.395464 -15.095164 0
M  V30 13 C 8.514265 0.634329 -14.931563 0
M  V30 14 C 7.610726 0.685073 -15.918752 0
M  V30 15 C 6.293379 0.014960 -15.953756 0
M  V30 16 C 5.688518 -0.321883 -17.186413 0
M  V30 17 C 4.461301 -1.015360 -17.210072 0
M  V30 18 C 3.825037 -1.362265 -16.003979 0
M  V30 19 C 4.420011 -1.023518 -14.774549 0
M  V30 20 C 5.650697 -0.343183 -14.746524 0
M  V30 21 C 8.161563 1.646587 -16.859068 0
M  V30 22 O 7.668047 2.054908 -17.913383 0
M  V30 23 C 15.279346 7.487615 -18.691597 0
M  V30 24 C 16.227184 7.409724 -19.739441 0
M  V30 25 C 16.147762 8.274393 -20.848885 0
M  V30 26 C 15.119540 9.230559 -20.925812 0
M  V30 27 F 15.046858 10.068677 -21.984526 0
M  V30 28 C 14.166244 9.315421 -19.891933 0
M  V30 29 C 14.242451 8.447659 -18.786079 0
M  V30 30 H 14.260695 7.772151 -16.179298 0
M  V30 31 H 14.895716 6.332102 -15.445911 0
M  V30 32 H 12.714607 6.228131 -17.593388 0
M  V30 33 H 12.370003 6.476304 -15.906931 0
M  V30 34 H 13.450795 4.243866 -15.359601 0
M  V30 35 H 13.884147 4.071561 -17.050552 0
M  V30 36 H 10.791208 5.203372 -15.382493 0
M  V30 37 H 11.190742 3.659915 -14.660087 0
M  V30 38 H 9.168712 4.192415 -16.896227 0
M  V30 39 H 8.764799 3.850300 -15.224925 0
M  V30 40 H 10.785409 0.712458 -17.361975 0
M  V30 41 H 10.442677 2.161058 -18.274479 0
M  V30 42 H 12.769639 2.203883 -17.533333 0
M  V30 43 H 12.310901 1.984426 -15.852771 0
M  V30 44 H 8.479513 0.080952 -14.005178 0
M  V30 45 H 6.165771 -0.070208 -18.123741 0
M  V30 46 H 4.006914 -1.278398 -18.154724 0
M  V30 47 H 2.886455 -1.897829 -16.027294 0
M  V30 48 H 3.927520 -1.296041 -13.855159 0
M  V30 49 H 6.096078 -0.101837 -13.792943 0
M  V30 50 H 17.031488 6.690921 -19.700710 0
M  V30 51 H 16.878580 8.208396 -21.641701 0
M  V30 52 H 13.376394 10.050097 -19.944086 0
M  V30 53 H 13.488018 8.550539 -18.019081 0
M  V30 END ATOM
M  V30 BEGIN BOND
M  V30 1 2 2 1
M  V30 2 1 3 2
M  V30 3 1 4 3
M  V30 4 1 5 4
M  V30 5 1 6 5
M  V30 6 1 7 6
M  V30 7 1 8 7
M  V30 8 1 9 8
M  V30 9 1 10 9
M  V30 10 1 11 6
M  V30 11 1 11 10
M  V30 12 1 12 9
M  V30 13 1 13 12
M  V30 14 2 14 13
M  V30 15 1 15 14
M  V30 16 2 16 15
M  V30 17 1 17 16
M  V30 18 2 18 17
M  V30 19 1 19 18
M  V30 20 1 20 15
M  V30 21 2 20 19
M  V30 22 1 21 9
M  V30 23 1 21 14
M  V30 24 2 22 21
M  V30 25 1 23 2
M  V30 26 1 24 23
M  V30 27 2 25 24
M  V30 28 1 26 25
M  V30 29 1 27 26
M  V30 30 2 28 26
M  V30 31 2 29 23
M  V30 32 1 29 28
M  V30 33 1 30 3
M  V30 34 1 31 3
M  V30 35 1 32 4
M  V30 36 1 33 4
M  V30 37 1 34 5
M  V30 38 1 35 5
M  V30 39 1 36 7
M  V30 40 1 37 7
M  V30 41 1 38 8
M  V30 42 1 39 8
M  V30 43 1 40 10
M  V30 44 1 41 10
M  V30 45 1 42 11
M  V30 46 1 43 11
M  V30 47 1 44 13
M  V30 48 1 45 16
M  V30 49 1 46 17
M  V30 50 1 47 18
M  V30 51 1 48 19
M  V30 52 1 49 20
M  V30 53 1 50 24
M  V30 54 1 51 25
M  V30 55 1 52 28
M  V30 56 1 53 29
M  V30 END BOND
M  V30 END CTAB
M  END
>  <b_m_subgroup_collapsed>  (2693) 
0

>  <r_i_docking_score>  (2693) 
-4.6916587022112601

>  <s_m_subgroup_title>  (2693) 
glide-dock_SP_D22_pv

>  <s_m_subgroupid>  (2693) 
glide-dock_SP_D22_pv

>  <Molecule ChEMBL ID>  (2693) 
CHEMBL540799

>  <Standard Type>  (2693) 
Ki

>  <Standard Value>  (2693) 
70.0

>  <label>  (2693) 
1

$$$$
CHEMBL198303
     RDKit          3D

  0  0  0  0  0  0  0  0  0  0999 V3000
M  V30 BEGIN CTAB
M  V30 COUNTS 46 47 0 0 1
M  V30 BEGIN ATOM
M  V30 1 C 8.485313 4.173404 -8.463794 0
M  V30 2 C 9.246593 4.785454 -9.629930 0
M  V30 3 C 8.288455 5.372955 -10.691542 0
M  V30 4 N 8.980091 5.864641 -11.922883 0 CHG=1
M  V30 5 C 10.010920 6.911751 -11.629385 0
M  V30 6 C 9.567069 8.076086 -10.713827 0
M  V30 7 C 10.770532 8.889019 -10.219037 0
M  V30 8 C 9.469192 4.727042 -12.789191 0 CFG=2
M  V30 9 C 10.489851 5.113916 -13.897321 0
M  V30 10 C 11.066252 3.885591 -14.637616 0
M  V30 11 N 10.086370 2.828085 -14.799835 0
M  V30 12 N 10.414971 1.702707 -15.472861 0
M  V30 13 C 9.341666 0.932071 -15.379657 0
M  V30 14 C 8.302740 1.568695 -14.646955 0
M  V30 15 C 6.986460 0.956435 -14.343100 0
M  V30 16 O 6.730461 -0.227917 -14.553123 0
M  V30 17 O 6.113384 1.828041 -13.812577 0
M  V30 18 C 4.835555 1.370695 -13.405592 0
M  V30 19 C 8.810416 2.786861 -14.274892 0
M  V30 20 C 8.308137 3.935936 -13.452312 0
M  V30 21 H 9.141499 3.571218 -7.848320 0
M  V30 22 H 7.693820 3.509869 -8.810787 0
M  V30 23 H 8.031137 4.948767 -7.846680 0
M  V30 24 H 9.924299 5.545299 -9.241936 0
M  V30 25 H 9.877562 4.005026 -10.048593 0
M  V30 26 H 7.539200 4.628066 -10.943928 0
M  V30 27 H 7.688241 6.171895 -10.259028 0
M  V30 28 H 10.885477 6.436747 -11.192279 0
M  V30 29 H 10.340893 7.367015 -12.561955 0
M  V30 30 H 8.866490 8.720595 -11.246645 0
M  V30 31 H 9.046963 7.736941 -9.820178 0
M  V30 32 H 10.448616 9.765329 -9.655746 0
M  V30 33 H 11.400766 9.221037 -11.042060 0
M  V30 34 H 11.397351 8.291010 -9.557181 0
M  V30 35 H 10.009739 4.031246 -12.150248 0
M  V30 36 H 10.000297 5.762877 -14.623329 0
M  V30 37 H 11.341925 5.666197 -13.502753 0
M  V30 38 H 11.456397 4.168429 -15.616225 0
M  V30 39 H 11.900078 3.472243 -14.068609 0
M  V30 40 H 9.351590 -0.048650 -15.833276 0
M  V30 41 H 4.247377 2.204136 -13.021433 0
M  V30 42 H 4.927244 0.626260 -12.613830 0
M  V30 43 H 4.292571 0.924889 -14.239761 0
M  V30 44 H 7.619177 3.545321 -12.710141 0
M  V30 45 H 7.721899 4.599307 -14.088965 0
M  V30 46 H 8.263910 6.341199 -12.453450 0
M  V30 END ATOM
M  V30 BEGIN BOND
M  V30 1 1 2 1
M  V30 2 1 3 2
M  V30 3 1 4 3
M  V30 4 1 5 4
M  V30 5 1 6 5
M  V30 6 1 7 6
M  V30 7 1 8 4
M  V30 8 1 9 8
M  V30 9 1 10 9
M  V30 10 1 11 10
M  V30 11 1 12 11
M  V30 12 2 13 12
M  V30 13 1 14 13
M  V30 14 1 15 14
M  V30 15 2 16 15
M  V30 16 1 17 15
M  V30 17 1 18 17
M  V30 18 1 19 11
M  V30 19 2 19 14
M  V30 20 1 20 8
M  V30 21 1 20 19
M  V30 22 1 21 1
M  V30 23 1 22 1
M  V30 24 1 23 1
M  V30 25 1 24 2
M  V30 26 1 25 2
M  V30 27 1 26 3
M  V30 28 1 27 3
M  V30 29 1 28 5
M  V30 30 1 29 5
M  V30 31 1 30 6
M  V30 32 1 31 6
M  V30 33 1 32 7
M  V30 34 1 33 7
M  V30 35 1 34 7
M  V30 36 1 8 35 CFG=1
M  V30 37 1 36 9
M  V30 38 1 37 9
M  V30 39 1 38 10
M  V30 40 1 39 10
M  V30 41 1 40 13
M  V30 42 1 41 18
M  V30 43 1 42 18
M  V30 44 1 43 18
M  V30 45 1 44 20
M  V30 46 1 45 20
M  V30 47 1 46 4
M  V30 END BOND
M  V30 END CTAB
M  END
>  <b_m_subgroup_collapsed>  (2694) 
0

>  <r_i_docking_score>  (2694) 
-4.68236717568334

>  <s_m_subgroup_title>  (2694) 
glide-dock_SP_D22_pv

>  <s_m_subgroupid>  (2694) 
glide-dock_SP_D22_pv

>  <Molecule ChEMBL ID>  (2694) 
CHEMBL198303

>  <Standard Type>  (2694) 
Ki

>  <Standard Value>  (2694) 
20000.0

>  <label>  (2694) 
0

$$$$
CHEMBL13647
     RDKit          3D

  0  0  0  0  0  0  0  0  0  0999 V3000
M  V30 BEGIN CTAB
M  V30 COUNTS 59 62 0 0 1
M  V30 BEGIN ATOM
M  V30 1 C 8.485813 6.173514 -7.224182 0
M  V30 2 O 8.908092 5.928181 -8.552084 0
M  V30 3 C 9.837372 6.789656 -9.094908 0
M  V30 4 C 10.612923 7.674371 -8.302972 0
M  V30 5 C 11.536372 8.550035 -8.899058 0
M  V30 6 C 11.685965 8.563303 -10.293249 0
M  V30 7 C 10.922742 7.690672 -11.089464 0
M  V30 8 C 10.008402 6.792613 -10.503169 0
M  V30 9 N 9.287722 5.914754 -11.327030 0
M  V30 10 C 9.277120 4.479544 -11.102431 0
M  V30 11 C 9.703834 3.755978 -12.397020 0
M  V30 12 N 8.821908 4.120362 -13.511196 0
M  V30 13 C 9.176560 3.359451 -14.709998 0
M  V30 14 C 8.431975 2.004596 -14.728606 0
M  V30 15 N 8.767722 1.204522 -15.925738 0
M  V30 16 C 9.822390 0.346777 -15.857763 0
M  V30 17 O 10.484233 0.174260 -14.835411 0
M  V30 18 C 10.233377 -0.461997 -17.094576 0
M  V30 19 C 9.847219 0.227196 -18.415920 0
M  V30 20 C 10.145579 -0.695412 -19.607477 0
M  V30 21 C 11.624809 -0.472882 -19.912537 0
M  V30 22 C 11.839358 1.021918 -19.674179 0
M  V30 23 C 10.734969 1.466962 -18.704557 0
M  V30 24 C 8.351440 0.569354 -18.318638 0
M  V30 25 C 8.026946 1.378396 -17.056158 0
M  V30 26 O 7.087727 2.172244 -17.123621 0
M  V30 27 C 8.989885 5.556047 -13.744889 0
M  V30 28 C 8.557558 6.369416 -12.499117 0
M  V30 29 H 7.686319 5.477309 -6.992742 0
M  V30 30 H 9.289884 6.009903 -6.508297 0
M  V30 31 H 8.090772 7.184177 -7.091492 0
M  V30 32 H 10.520389 7.705046 -7.228482 0
M  V30 33 H 12.125902 9.216171 -8.286840 0
M  V30 34 H 12.392164 9.232813 -10.755890 0
M  V30 35 H 11.058555 7.698410 -12.160562 0
M  V30 36 H 9.947420 4.210495 -10.285411 0
M  V30 37 H 8.272993 4.172756 -10.806984 0
M  V30 38 H 10.732950 4.018222 -12.646784 0
M  V30 39 H 9.685135 2.679570 -12.247437 0
M  V30 40 H 8.885052 3.918444 -15.599473 0
M  V30 41 H 10.256964 3.222323 -14.777830 0
M  V30 42 H 8.656578 1.433992 -13.833972 0
M  V30 43 H 7.356462 2.184361 -14.659852 0
M  V30 44 H 11.307534 -0.627534 -17.046696 0
M  V30 45 H 9.762807 -1.441871 -17.024155 0
M  V30 46 H 9.914084 -1.741353 -19.400393 0
M  V30 47 H 9.551738 -0.402479 -20.475145 0
M  V30 48 H 12.238490 -1.042155 -19.214067 0
M  V30 49 H 11.901520 -0.780483 -20.921349 0
M  V30 50 H 12.840439 1.231217 -19.286140 0
M  V30 51 H 11.738903 1.566655 -20.616566 0
M  V30 52 H 10.151531 2.264775 -19.171549 0
M  V30 53 H 11.165186 1.894681 -17.795328 0
M  V30 54 H 8.027404 1.126182 -19.198242 0
M  V30 55 H 7.756788 -0.344021 -18.294409 0
M  V30 56 H 10.028909 5.772140 -14.002542 0
M  V30 57 H 8.378610 5.839657 -14.601142 0
M  V30 58 H 7.492315 6.230094 -12.311362 0
M  V30 59 H 8.704135 7.437897 -12.646930 0
M  V30 END ATOM
M  V30 BEGIN BOND
M  V30 1 1 2 1
M  V30 2 1 3 2
M  V30 3 2 4 3
M  V30 4 1 5 4
M  V30 5 2 6 5
M  V30 6 1 7 6
M  V30 7 1 8 3
M  V30 8 2 8 7
M  V30 9 1 9 8
M  V30 10 1 10 9
M  V30 11 1 11 10
M  V30 12 1 12 11
M  V30 13 1 13 12
M  V30 14 1 14 13
M  V30 15 1 15 14
M  V30 16 1 16 15
M  V30 17 2 17 16
M  V30 18 1 18 16
M  V30 19 1 19 18
M  V30 20 1 20 19
M  V30 21 1 21 20
M  V30 22 1 22 21
M  V30 23 1 23 19
M  V30 24 1 23 22
M  V30 25 1 24 19
M  V30 26 1 25 15
M  V30 27 1 25 24
M  V30 28 2 26 25
M  V30 29 1 27 12
M  V30 30 1 28 9
M  V30 31 1 28 27
M  V30 32 1 29 1
M  V30 33 1 30 1
M  V30 34 1 31 1
M  V30 35 1 32 4
M  V30 36 1 33 5
M  V30 37 1 34 6
M  V30 38 1 35 7
M  V30 39 1 36 10
M  V30 40 1 37 10
M  V30 41 1 38 11
M  V30 42 1 39 11
M  V30 43 1 40 13
M  V30 44 1 41 13
M  V30 45 1 42 14
M  V30 46 1 43 14
M  V30 47 1 44 18
M  V30 48 1 45 18
M  V30 49 1 46 20
M  V30 50 1 47 20
M  V30 51 1 48 21
M  V30 52 1 49 21
M  V30 53 1 50 22
M  V30 54 1 51 22
M  V30 55 1 52 23
M  V30 56 1 53 23
M  V30 57 1 54 24
M  V30 58 1 55 24
M  V30 59 1 56 27
M  V30 60 1 57 27
M  V30 61 1 58 28
M  V30 62 1 59 28
M  V30 END BOND
M  V30 END CTAB
M  END
>  <b_m_subgroup_collapsed>  (2695) 
0

>  <r_i_docking_score>  (2695) 
-4.6757743976689303

>  <s_m_subgroup_title>  (2695) 
glide-dock_SP_D22_pv

>  <s_m_subgroupid>  (2695) 
glide-dock_SP_D22_pv

>  <Molecule ChEMBL ID>  (2695) 
CHEMBL13647

>  <Standard Type>  (2695) 
Ki

>  <Standard Value>  (2695) 
14.0

>  <label>  (2695) 
1

$$$$
CHEMBL228333
     RDKit          3D

  0  0  0  0  0  0  0  0  0  0999 V3000
M  V30 BEGIN CTAB
M  V30 COUNTS 70 75 0 0 1
M  V30 BEGIN ATOM
M  V30 1 O 13.689166 -2.059741 -21.102192 0
M  V30 2 S 13.958176 -0.980857 -22.063244 0
M  V30 3 O 13.896222 -1.228349 -23.510939 0
M  V30 4 N 12.870071 0.312843 -21.714235 0
M  V30 5 C 12.752088 0.830351 -20.347841 0 CFG=1
M  V30 6 C 13.636915 2.084486 -20.170013 0
M  V30 7 C 13.503448 2.651126 -18.753134 0
M  V30 8 C 12.039269 3.007997 -18.467546 0 CFG=2
M  V30 9 N 11.926629 3.713334 -17.160013 0 CFG=2 CHG=1
M  V30 10 C 11.635622 2.865084 -15.968836 0
M  V30 11 C 11.682879 3.679640 -14.657047 0
M  V30 12 C 10.731358 4.881807 -14.740079 0 CFG=1
M  V30 13 C 10.636636 5.695863 -13.445935 0
M  V30 14 C 11.687515 6.571900 -13.082788 0
M  V30 15 C 11.591776 7.372292 -11.929483 0
M  V30 16 C 10.442326 7.308760 -11.125941 0
M  V30 17 C 9.396328 6.431770 -11.465588 0
M  V30 18 C 9.481333 5.612069 -12.621120 0
M  V30 19 O 8.478478 4.737457 -12.989405 0
M  V30 20 C 7.376075 4.572537 -12.107204 0
M  V30 21 C 6.244804 5.544416 -12.320609 0
M  V30 22 C 6.129913 4.124739 -12.829535 0
M  V30 23 C 11.143976 5.722194 -15.957129 0
M  V30 24 C 11.042035 4.899542 -17.239769 0
M  V30 25 C 11.126925 1.766914 -18.631529 0
M  V30 26 C 11.279178 1.154413 -20.036348 0
M  V30 27 C 15.535524 -0.233613 -21.686357 0
M  V30 28 C 16.082693 -0.394867 -20.388447 0
M  V30 29 C 17.266232 0.284030 -20.031754 0
M  V30 30 C 17.884800 1.086087 -21.008263 0
M  V30 31 C 17.362934 1.216324 -22.280275 0
M  V30 32 C 16.171680 0.573953 -22.656832 0
M  V30 33 O 18.181383 1.998633 -23.027750 0
M  V30 34 C 19.276796 2.314729 -22.202890 0
M  V30 35 O 19.051569 1.775037 -20.925486 0
M  V30 36 H 12.908502 1.044509 -22.421869 0
M  V30 37 H 13.084339 0.056798 -19.651796 0
M  V30 38 H 13.354420 2.848383 -20.899427 0
M  V30 39 H 14.686057 1.872958 -20.358292 0
M  V30 40 H 14.137973 3.534947 -18.655453 0
M  V30 41 H 13.861609 1.921289 -18.025011 0
M  V30 42 H 11.752434 3.712605 -19.251980 0
M  V30 43 H 12.353957 2.047129 -15.919196 0
M  V30 44 H 10.647036 2.413460 -16.064915 0
M  V30 45 H 12.699838 4.016208 -14.455199 0
M  V30 46 H 11.393517 3.035264 -13.827477 0
M  V30 47 H 9.736469 4.495594 -14.961840 0
M  V30 48 H 12.577798 6.640487 -13.689060 0
M  V30 49 H 12.398623 8.041721 -11.664622 0
M  V30 50 H 10.358380 7.928380 -10.244275 0
M  V30 51 H 8.528646 6.417321 -10.821730 0
M  V30 52 H 7.597289 4.173550 -11.118151 0
M  V30 53 H 5.653399 5.816847 -11.448019 0
M  V30 54 H 6.394676 6.340788 -13.046669 0
M  V30 55 H 6.190053 3.972848 -13.905043 0
M  V30 56 H 5.454259 3.457661 -12.296712 0
M  V30 57 H 10.486198 6.572394 -16.057093 0
M  V30 58 H 12.154324 6.119426 -15.846867 0
M  V30 59 H 11.333037 5.534331 -18.078691 0
M  V30 60 H 10.011765 4.587257 -17.416698 0
M  V30 61 H 11.374217 1.000867 -17.893919 0
M  V30 62 H 10.084227 2.040335 -18.467731 0
M  V30 63 H 10.887880 1.850204 -20.780769 0
M  V30 64 H 10.674924 0.248694 -20.111496 0
M  V30 65 H 15.582143 -1.019376 -19.662422 0
M  V30 66 H 17.691275 0.172865 -19.046015 0
M  V30 67 H 15.762116 0.694643 -23.648876 0
M  V30 68 H 20.190382 1.890178 -22.624399 0
M  V30 69 H 19.396887 3.396813 -22.135887 0
M  V30 70 H 12.846735 4.097033 -16.995638 0
M  V30 END ATOM
M  V30 BEGIN BOND
M  V30 1 2 2 1
M  V30 2 2 3 2
M  V30 3 1 4 2
M  V30 4 1 5 4
M  V30 5 1 6 5
M  V30 6 1 7 6
M  V30 7 1 8 7
M  V30 8 1 9 8
M  V30 9 1 10 9
M  V30 10 1 11 10
M  V30 11 1 12 11
M  V30 12 1 13 12
M  V30 13 2 14 13
M  V30 14 1 15 14
M  V30 15 2 16 15
M  V30 16 1 17 16
M  V30 17 1 18 13
M  V30 18 2 18 17
M  V30 19 1 19 18
M  V30 20 1 20 19
M  V30 21 1 21 20
M  V30 22 1 22 20
M  V30 23 1 22 21
M  V30 24 1 23 12
M  V30 25 1 24 9
M  V30 26 1 24 23
M  V30 27 1 25 8
M  V30 28 1 26 5
M  V30 29 1 26 25
M  V30 30 1 27 2
M  V30 31 1 28 27
M  V30 32 2 29 28
M  V30 33 1 30 29
M  V30 34 2 31 30
M  V30 35 2 32 27
M  V30 36 1 32 31
M  V30 37 1 33 31
M  V30 38 1 34 33
M  V30 39 1 35 30
M  V30 40 1 35 34
M  V30 41 1 36 4
M  V30 42 1 5 37 CFG=1
M  V30 43 1 38 6
M  V30 44 1 39 6
M  V30 45 1 40 7
M  V30 46 1 41 7
M  V30 47 1 8 42 CFG=3
M  V30 48 1 43 10
M  V30 49 1 44 10
M  V30 50 1 45 11
M  V30 51 1 46 11
M  V30 52 1 12 47 CFG=3
M  V30 53 1 48 14
M  V30 54 1 49 15
M  V30 55 1 50 16
M  V30 56 1 51 17
M  V30 57 1 52 20
M  V30 58 1 53 21
M  V30 59 1 54 21
M  V30 60 1 55 22
M  V30 61 1 56 22
M  V30 62 1 57 23
M  V30 63 1 58 23
M  V30 64 1 59 24
M  V30 65 1 60 24
M  V30 66 1 61 25
M  V30 67 1 62 25
M  V30 68 1 63 26
M  V30 69 1 64 26
M  V30 70 1 65 28
M  V30 71 1 66 29
M  V30 72 1 67 32
M  V30 73 1 68 34
M  V30 74 1 69 34
M  V30 75 1 9 70 CFG=1
M  V30 END BOND
M  V30 END CTAB
M  END
>  <b_m_subgroup_collapsed>  (2696) 
0

>  <r_i_docking_score>  (2696) 
-4.6691820923297804

>  <s_m_subgroup_title>  (2696) 
glide-dock_SP_D22_pv

>  <s_m_subgroupid>  (2696) 
glide-dock_SP_D22_pv

>  <Molecule ChEMBL ID>  (2696) 
CHEMBL228333

>  <Standard Type>  (2696) 
Ki

>  <Standard Value>  (2696) 
71.0

>  <label>  (2696) 
1

$$$$
CHEMBL3976659
     RDKit          3D

  0  0  0  0  0  0  0  0  0  0999 V3000
M  V30 BEGIN CTAB
M  V30 COUNTS 52 55 0 0 1
M  V30 BEGIN ATOM
M  V30 1 C 12.755781 4.701236 -16.694054 0
M  V30 2 C 11.817715 5.696519 -15.998034 0
M  V30 3 C 12.131625 5.877773 -14.505192 0
M  V30 4 O 11.699304 4.753582 -13.738151 0
M  V30 5 C 10.353512 4.707211 -13.445663 0
M  V30 6 C 9.724961 5.696853 -12.647359 0
M  V30 7 O 10.439254 6.708797 -12.067507 0
M  V30 8 C 8.341442 5.633288 -12.400308 0
M  V30 9 C 7.573441 4.589695 -12.943394 0
M  V30 10 Br 5.695644 4.570630 -12.647763 0
M  V30 11 C 8.193661 3.573225 -13.695419 0
M  V30 12 C 9.592007 3.610715 -13.918703 0
M  V30 13 C 10.281961 2.446481 -14.621771 0
M  V30 14 N 9.390316 1.653705 -15.502508 0 CFG=2 CHG=1
M  V30 15 C 9.170578 2.240723 -16.846510 0
M  V30 16 C 8.575049 1.176677 -17.780437 0
M  V30 17 C 7.422091 0.413982 -17.148136 0
M  V30 18 C 6.569922 -0.353772 -17.968916 0
M  V30 19 C 5.518262 -1.103720 -17.408739 0
M  V30 20 O 4.750350 -1.882570 -18.235741 0
M  V30 21 C 3.427888 -1.402271 -18.424076 0
M  V30 22 C 5.310727 -1.082539 -16.013536 0
M  V30 23 O 4.318792 -1.827514 -15.446351 0
M  V30 24 C 6.157542 -0.315532 -15.188235 0
M  V30 25 C 7.222195 0.424316 -15.744197 0
M  V30 26 C 8.122604 1.258286 -14.830721 0 CFG=2
M  V30 27 C 7.339867 2.478761 -14.313241 0
M  V30 28 H 12.469623 4.565406 -17.739344 0
M  V30 29 H 12.740846 3.726700 -16.212339 0
M  V30 30 H 13.785766 5.056900 -16.669466 0
M  V30 31 H 11.917900 6.661265 -16.493763 0
M  V30 32 H 10.776608 5.399355 -16.128403 0
M  V30 33 H 13.206500 5.995799 -14.368479 0
M  V30 34 H 11.692093 6.813181 -14.161305 0
M  V30 35 H 9.908677 7.270360 -11.522653 0
M  V30 36 H 7.856706 6.392147 -11.800336 0
M  V30 37 H 11.148351 2.779373 -15.185601 0
M  V30 38 H 10.673871 1.785386 -13.847800 0
M  V30 39 H 8.507435 3.102539 -16.773867 0
M  V30 40 H 10.110407 2.604985 -17.265875 0
M  V30 41 H 8.243709 1.642561 -18.710131 0
M  V30 42 H 9.343879 0.451012 -18.049694 0
M  V30 43 H 6.728765 -0.384558 -19.038179 0
M  V30 44 H 2.883993 -2.114566 -19.044096 0
M  V30 45 H 3.430955 -0.436663 -18.936918 0
M  V30 46 H 2.885129 -1.291394 -17.486362 0
M  V30 47 H 3.928146 -2.460171 -16.037533 0
M  V30 48 H 5.994291 -0.311563 -14.120046 0
M  V30 49 H 8.407057 0.637696 -13.977765 0
M  V30 50 H 6.599647 2.129991 -13.588630 0
M  V30 51 H 6.775542 2.936110 -15.127305 0
M  V30 52 H 9.884825 0.789426 -15.680140 0
M  V30 END ATOM
M  V30 BEGIN BOND
M  V30 1 1 2 1
M  V30 2 1 3 2
M  V30 3 1 4 3
M  V30 4 1 5 4
M  V30 5 1 6 5
M  V30 6 1 7 6
M  V30 7 2 8 6
M  V30 8 1 9 8
M  V30 9 1 10 9
M  V30 10 2 11 9
M  V30 11 2 12 5
M  V30 12 1 12 11
M  V30 13 1 13 12
M  V30 14 1 14 13
M  V30 15 1 15 14
M  V30 16 1 16 15
M  V30 17 1 17 16
M  V30 18 2 18 17
M  V30 19 1 19 18
M  V30 20 1 20 19
M  V30 21 1 21 20
M  V30 22 2 22 19
M  V30 23 1 23 22
M  V30 24 1 24 22
M  V30 25 1 25 17
M  V30 26 2 25 24
M  V30 27 1 26 14
M  V30 28 1 26 25
M  V30 29 1 27 11
M  V30 30 1 27 26
M  V30 31 1 28 1
M  V30 32 1 29 1
M  V30 33 1 30 1
M  V30 34 1 31 2
M  V30 35 1 32 2
M  V30 36 1 33 3
M  V30 37 1 34 3
M  V30 38 1 35 7
M  V30 39 1 36 8
M  V30 40 1 37 13
M  V30 41 1 38 13
M  V30 42 1 39 15
M  V30 43 1 40 15
M  V30 44 1 41 16
M  V30 45 1 42 16
M  V30 46 1 43 18
M  V30 47 1 44 21
M  V30 48 1 45 21
M  V30 49 1 46 21
M  V30 50 1 47 23
M  V30 51 1 48 24
M  V30 52 1 26 49 CFG=1
M  V30 53 1 50 27
M  V30 54 1 51 27
M  V30 55 1 14 52 CFG=3
M  V30 END BOND
M  V30 END CTAB
M  END
>  <b_m_subgroup_collapsed>  (2697) 
0

>  <r_i_docking_score>  (2697) 
-4.6478711033663798

>  <s_m_subgroup_title>  (2697) 
glide-dock_SP_D22_pv

>  <s_m_subgroupid>  (2697) 
glide-dock_SP_D22_pv

>  <Molecule ChEMBL ID>  (2697) 
CHEMBL3976659

>  <Standard Type>  (2697) 
Ki

>  <Standard Value>  (2697) 
70.0

>  <label>  (2697) 
1

$$$$
CHEMBL2159486
     RDKit          3D

  0  0  0  0  0  0  0  0  0  0999 V3000
M  V30 BEGIN CTAB
M  V30 COUNTS 51 53 0 0 1
M  V30 BEGIN ATOM
M  V30 1 C 9.919202 1.130255 -15.824141 0
M  V30 2 S 8.506101 2.270478 -15.742614 0
M  V30 3 C 7.336517 1.593301 -14.602792 0
M  V30 4 C 7.310216 0.199572 -14.386436 0
M  V30 5 C 6.427256 -0.350666 -13.446148 0
M  V30 6 C 5.552539 0.492356 -12.740576 0
M  V30 7 C 5.539215 1.869323 -12.977977 0
M  V30 8 C 6.448931 2.443388 -13.892012 0
M  V30 9 O 6.469966 3.799334 -14.123903 0
M  V30 10 C 6.188723 4.675983 -13.033207 0
M  V30 11 C 7.416909 4.724569 -12.111520 0
M  V30 12 N 7.713528 6.088342 -11.617690 0 CFG=2 CHG=1
M  V30 13 C 8.113063 7.064795 -12.647617 0
M  V30 14 C 8.902280 8.154458 -11.918839 0
M  V30 15 C 9.420003 7.498452 -10.635718 0 CFG=2
M  V30 16 N 10.889524 7.372905 -10.641293 0
M  V30 17 S 11.820966 8.435560 -9.641018 0
M  V30 18 O 13.247241 8.171876 -9.860340 0
M  V30 19 O 11.284255 9.774960 -9.846070 0
M  V30 20 C 11.417194 8.001604 -7.969067 0
M  V30 21 C 10.632901 6.865746 -7.718026 0
M  V30 22 C 10.253384 6.574714 -6.410166 0
M  V30 23 C 10.760321 7.323090 -5.343866 0
M  V30 24 C 11.540028 8.465233 -5.584933 0
M  V30 25 Cl 12.129731 9.371702 -4.246343 0
M  V30 26 C 11.845991 8.833561 -6.911371 0
M  V30 27 C 8.745176 6.118031 -10.566684 0
M  V30 28 H 10.723949 1.576898 -16.408295 0
M  V30 29 H 10.298374 0.914517 -14.824794 0
M  V30 30 H 9.634957 0.194296 -16.306004 0
M  V30 31 H 7.969855 -0.464361 -14.923681 0
M  V30 32 H 6.430992 -1.416607 -13.264692 0
M  V30 33 H 4.885141 0.103107 -11.994803 0
M  V30 34 H 4.821640 2.453962 -12.425958 0
M  V30 35 H 5.979221 5.656408 -13.446730 0
M  V30 36 H 5.282466 4.448289 -12.476986 0
M  V30 37 H 7.257044 4.053034 -11.266439 0
M  V30 38 H 8.297698 4.353146 -12.638675 0
M  V30 39 H 8.730688 6.566300 -13.397139 0
M  V30 40 H 7.247181 7.489529 -13.153616 0
M  V30 41 H 9.689631 8.577587 -12.541896 0
M  V30 42 H 8.231940 8.973577 -11.653303 0
M  V30 43 H 9.102947 8.097013 -9.779662 0
M  V30 44 H 11.268608 7.330138 -11.586868 0
M  V30 45 H 10.301108 6.211742 -8.502047 0
M  V30 46 H 9.570148 5.772504 -6.234070 0
M  V30 47 H 10.509072 7.016420 -4.341232 0
M  V30 48 H 12.446259 9.709973 -7.103945 0
M  V30 49 H 8.282056 5.938529 -9.594629 0
M  V30 50 H 9.474584 5.323419 -10.737694 0
M  V30 51 H 6.896268 6.494147 -11.157061 0
M  V30 END ATOM
M  V30 BEGIN BOND
M  V30 1 1 2 1
M  V30 2 1 3 2
M  V30 3 2 4 3
M  V30 4 1 5 4
M  V30 5 2 6 5
M  V30 6 1 7 6
M  V30 7 1 8 3
M  V30 8 2 8 7
M  V30 9 1 9 8
M  V30 10 1 10 9
M  V30 11 1 11 10
M  V30 12 1 12 11
M  V30 13 1 13 12
M  V30 14 1 14 13
M  V30 15 1 15 14
M  V30 16 1 16 15
M  V30 17 1 17 16
M  V30 18 2 18 17
M  V30 19 2 19 17
M  V30 20 1 20 17
M  V30 21 2 21 20
M  V30 22 1 22 21
M  V30 23 2 23 22
M  V30 24 1 24 23
M  V30 25 1 25 24
M  V30 26 1 26 20
M  V30 27 2 26 24
M  V30 28 1 27 12
M  V30 29 1 27 15
M  V30 30 1 28 1
M  V30 31 1 29 1
M  V30 32 1 30 1
M  V30 33 1 31 4
M  V30 34 1 32 5
M  V30 35 1 33 6
M  V30 36 1 34 7
M  V30 37 1 35 10
M  V30 38 1 36 10
M  V30 39 1 37 11
M  V30 40 1 38 11
M  V30 41 1 39 13
M  V30 42 1 40 13
M  V30 43 1 41 14
M  V30 44 1 42 14
M  V30 45 1 15 43 CFG=1
M  V30 46 1 44 16
M  V30 47 1 45 21
M  V30 48 1 46 22
M  V30 49 1 47 23
M  V30 50 1 48 26
M  V30 51 1 49 27
M  V30 52 1 50 27
M  V30 53 1 12 51 CFG=1
M  V30 END BOND
M  V30 END CTAB
M  END
>  <b_m_subgroup_collapsed>  (2698) 
0

>  <r_i_docking_score>  (2698) 
-4.6394972948712097

>  <s_m_subgroup_title>  (2698) 
glide-dock_SP_D22_pv

>  <s_m_subgroupid>  (2698) 
glide-dock_SP_D22_pv

>  <Molecule ChEMBL ID>  (2698) 
CHEMBL2159486

>  <Standard Type>  (2698) 
Ki

>  <Standard Value>  (2698) 
36.0

>  <label>  (2698) 
1

$$$$
CHEMBL555744
     RDKit          3D

  0  0  0  0  0  0  0  0  0  0999 V3000
M  V30 BEGIN CTAB
M  V30 COUNTS 41 43 0 0 1
M  V30 BEGIN ATOM
M  V30 1 C 10.558812 -0.736067 -17.441780 0
M  V30 2 O 10.182189 -0.282766 -16.146914 0
M  V30 3 C 9.661757 1.039955 -16.174940 0
M  V30 4 C 8.897426 1.401730 -14.876336 0 CFG=2
M  V30 5 C 7.831327 0.354328 -14.526099 0
M  V30 6 C 6.533548 0.851121 -15.165758 0
M  V30 7 C 6.886031 2.247082 -15.681780 0
M  V30 8 N 8.149426 2.658523 -15.047339 0
M  V30 9 N 8.013545 3.414849 -13.846819 0
M  V30 10 C 6.738175 3.534918 -13.151030 0
M  V30 11 C 7.122844 4.374732 -11.941080 0
M  V30 12 N 8.494174 4.789883 -12.220459 0
M  V30 13 C 9.189510 5.706143 -11.371824 0
M  V30 14 C 10.156422 6.601572 -11.888947 0
M  V30 15 C 10.833106 7.497920 -11.040172 0
M  V30 16 C 10.557034 7.506968 -9.663337 0
M  V30 17 C 9.594011 6.626409 -9.135929 0
M  V30 18 Cl 9.285522 6.621710 -7.440592 0
M  V30 19 C 8.898322 5.742649 -9.986049 0
M  V30 20 C 8.987656 4.172678 -13.316677 0
M  V30 21 O 10.135368 4.261526 -13.759670 0
M  V30 22 H 10.885202 -1.777052 -17.406782 0
M  V30 23 H 9.719755 -0.692391 -18.140467 0
M  V30 24 H 11.377130 -0.134794 -17.844196 0
M  V30 25 H 8.995572 1.140183 -17.032339 0
M  V30 26 H 10.476347 1.746485 -16.335564 0
M  V30 27 H 9.622875 1.489574 -14.066328 0
M  V30 28 H 7.712634 0.287805 -13.446393 0
M  V30 29 H 8.098196 -0.627707 -14.883532 0
M  V30 30 H 5.726837 0.885439 -14.430968 0
M  V30 31 H 6.210572 0.202084 -15.979719 0
M  V30 32 H 6.089846 2.972336 -15.551681 0
M  V30 33 H 7.053067 2.185755 -16.756067 0
M  V30 34 H 6.010092 4.080674 -13.749409 0
M  V30 35 H 6.318709 2.573052 -12.863239 0
M  V30 36 H 7.077601 3.772259 -11.034463 0
M  V30 37 H 6.466952 5.238148 -11.816017 0
M  V30 38 H 10.388766 6.616489 -12.943579 0
M  V30 39 H 11.572178 8.171645 -11.446330 0
M  V30 40 H 11.084698 8.185591 -9.010726 0
M  V30 41 H 8.160894 5.082516 -9.555007 0
M  V30 END ATOM
M  V30 BEGIN BOND
M  V30 1 1 2 1
M  V30 2 1 3 2
M  V30 3 1 4 3
M  V30 4 1 5 4
M  V30 5 1 6 5
M  V30 6 1 7 6
M  V30 7 1 8 4
M  V30 8 1 8 7
M  V30 9 1 9 8
M  V30 10 1 10 9
M  V30 11 1 11 10
M  V30 12 1 12 11
M  V30 13 1 13 12
M  V30 14 2 14 13
M  V30 15 1 15 14
M  V30 16 2 16 15
M  V30 17 1 17 16
M  V30 18 1 18 17
M  V30 19 1 19 13
M  V30 20 2 19 17
M  V30 21 1 20 9
M  V30 22 1 20 12
M  V30 23 2 21 20
M  V30 24 1 22 1
M  V30 25 1 23 1
M  V30 26 1 24 1
M  V30 27 1 25 3
M  V30 28 1 26 3
M  V30 29 1 4 27 CFG=1
M  V30 30 1 28 5
M  V30 31 1 29 5
M  V30 32 1 30 6
M  V30 33 1 31 6
M  V30 34 1 32 7
M  V30 35 1 33 7
M  V30 36 1 34 10
M  V30 37 1 35 10
M  V30 38 1 36 11
M  V30 39 1 37 11
M  V30 40 1 38 14
M  V30 41 1 39 15
M  V30 42 1 40 16
M  V30 43 1 41 19
M  V30 END BOND
M  V30 END CTAB
M  END
>  <b_m_subgroup_collapsed>  (2699) 
0

>  <r_i_docking_score>  (2699) 
-4.6147819574672901

>  <s_m_subgroup_title>  (2699) 
glide-dock_SP_D22_pv

>  <s_m_subgroupid>  (2699) 
glide-dock_SP_D22_pv

>  <Molecule ChEMBL ID>  (2699) 
CHEMBL555744

>  <Standard Type>  (2699) 
Ki

>  <Standard Value>  (2699) 
79.43

>  <label>  (2699) 
1

$$$$
CHEMBL1201087
     RDKit          3D

  0  0  0  0  0  0  0  0  0  0999 V3000
M  V30 BEGIN CTAB
M  V30 COUNTS 71 74 0 0 1
M  V30 BEGIN ATOM
M  V30 1 C 9.369396 0.913950 -15.324706 0
M  V30 2 C 8.991369 2.183945 -15.110055 0
M  V30 3 C 9.116384 2.898001 -13.777126 0
M  V30 4 N 9.697097 4.244041 -13.849884 0
M  V30 5 C 10.980027 4.229026 -14.568151 0
M  V30 6 C 11.350628 5.679614 -14.909712 0 CFG=2
M  V30 7 C 12.490883 5.763275 -15.953695 0
M  V30 8 O 13.640095 5.798629 -15.504646 0
M  V30 9 N 12.244869 5.870466 -17.303783 0
M  V30 10 C 13.416951 6.169673 -18.170679 0
M  V30 11 C 13.636795 7.683434 -18.362593 0
M  V30 12 C 14.902461 7.978415 -19.194971 0
M  V30 13 N 15.032442 9.388550 -19.652300 0 CHG=1
M  V30 14 C 15.048936 10.381513 -18.559181 0
M  V30 15 C 14.080969 9.754316 -20.724054 0
M  V30 16 C 11.040252 5.574708 -17.894018 0
M  V30 17 O 10.147157 4.895018 -17.391155 0
M  V30 18 N 10.856587 6.117826 -19.111963 0
M  V30 19 C 9.700265 5.871100 -19.972050 0
M  V30 20 C 8.518435 6.783305 -19.628820 0
M  V30 21 C 11.660312 6.411305 -13.589229 0
M  V30 22 C 10.449792 6.302769 -12.631652 0 CFG=2
M  V30 23 C 10.717155 6.972386 -11.278148 0
M  V30 24 C 11.672267 7.950640 -10.943709 0
M  V30 25 C 11.761511 8.404262 -9.615815 0
M  V30 26 C 10.925656 7.851678 -8.628161 0
M  V30 27 C 10.022324 6.854616 -8.949894 0
M  V30 28 N 9.162436 6.134408 -8.171813 0
M  V30 29 C 8.486112 5.204387 -8.943665 0
M  V30 30 C 8.933571 5.395210 -10.224120 0
M  V30 31 C 9.909773 6.418536 -10.263549 0
M  V30 32 C 8.677544 4.799547 -11.584723 0
M  V30 33 C 9.922366 4.832636 -12.514210 0 CFG=1
M  V30 34 H 9.800693 0.314315 -14.534182 0
M  V30 35 H 9.254256 0.458126 -16.296242 0
M  V30 36 H 8.561421 2.754871 -15.921302 0
M  V30 37 H 8.096309 2.976083 -13.404756 0
M  V30 38 H 9.683190 2.282294 -13.079339 0
M  V30 39 H 11.754344 3.753020 -13.965119 0
M  V30 40 H 10.928372 3.647144 -15.484303 0
M  V30 41 H 10.484975 6.173354 -15.337095 0
M  V30 42 H 14.330166 5.720887 -17.777155 0
M  V30 43 H 13.324940 5.686656 -19.144442 0
M  V30 44 H 12.756543 8.113133 -18.839767 0
M  V30 45 H 13.718923 8.164942 -17.386925 0
M  V30 46 H 15.787377 7.721147 -18.607561 0
M  V30 47 H 14.931221 7.331227 -20.074003 0
M  V30 48 H 14.088010 10.436024 -18.039490 0
M  V30 49 H 15.270032 11.371294 -18.957829 0
M  V30 50 H 15.829893 10.140540 -17.843382 0
M  V30 51 H 13.064841 9.772061 -20.336452 0
M  V30 52 H 14.123284 9.042670 -21.549425 0
M  V30 53 H 14.314684 10.741289 -21.123842 0
M  V30 54 H 11.597234 6.685623 -19.490761 0
M  V30 55 H 9.998749 6.032159 -21.008863 0
M  V30 56 H 9.397722 4.825132 -19.901581 0
M  V30 57 H 7.643439 6.523299 -20.225048 0
M  V30 58 H 8.758003 7.821453 -19.844994 0
M  V30 59 H 8.233539 6.703238 -18.578796 0
M  V30 60 H 12.537944 5.974312 -13.108659 0
M  V30 61 H 11.894569 7.456287 -13.787901 0
M  V30 62 H 9.625414 6.878958 -13.046687 0
M  V30 63 H 12.341110 8.356191 -11.688315 0
M  V30 64 H 12.485902 9.161243 -9.354351 0
M  V30 65 H 11.009167 8.191866 -7.607292 0
M  V30 66 H 9.004599 6.276139 -7.183874 0
M  V30 67 H 7.758551 4.526962 -8.529686 0
M  V30 68 H 8.330696 3.774889 -11.446607 0
M  V30 69 H 7.852192 5.330165 -12.060752 0
M  V30 70 H 10.675053 4.209409 -12.038260 0
M  V30 71 H 15.943481 9.445045 -20.083220 0
M  V30 END ATOM
M  V30 BEGIN BOND
M  V30 1 2 2 1
M  V30 2 1 3 2
M  V30 3 1 4 3
M  V30 4 1 5 4
M  V30 5 1 6 5
M  V30 6 1 7 6
M  V30 7 2 8 7
M  V30 8 1 9 7
M  V30 9 1 10 9
M  V30 10 1 11 10
M  V30 11 1 12 11
M  V30 12 1 13 12
M  V30 13 1 14 13
M  V30 14 1 15 13
M  V30 15 1 16 9
M  V30 16 2 17 16
M  V30 17 1 18 16
M  V30 18 1 19 18
M  V30 19 1 20 19
M  V30 20 1 21 6
M  V30 21 1 22 21
M  V30 22 1 23 22
M  V30 23 1 24 23
M  V30 24 2 25 24
M  V30 25 1 26 25
M  V30 26 2 27 26
M  V30 27 1 28 27
M  V30 28 1 29 28
M  V30 29 2 30 29
M  V30 30 2 31 23
M  V30 31 1 31 27
M  V30 32 1 31 30
M  V30 33 1 32 30
M  V30 34 1 33 4
M  V30 35 1 33 22
M  V30 36 1 33 32
M  V30 37 1 34 1
M  V30 38 1 35 1
M  V30 39 1 36 2
M  V30 40 1 37 3
M  V30 41 1 38 3
M  V30 42 1 39 5
M  V30 43 1 40 5
M  V30 44 1 6 41 CFG=3
M  V30 45 1 42 10
M  V30 46 1 43 10
M  V30 47 1 44 11
M  V30 48 1 45 11
M  V30 49 1 46 12
M  V30 50 1 47 12
M  V30 51 1 48 14
M  V30 52 1 49 14
M  V30 53 1 50 14
M  V30 54 1 51 15
M  V30 55 1 52 15
M  V30 56 1 53 15
M  V30 57 1 54 18
M  V30 58 1 55 19
M  V30 59 1 56 19
M  V30 60 1 57 20
M  V30 61 1 58 20
M  V30 62 1 59 20
M  V30 63 1 60 21
M  V30 64 1 61 21
M  V30 65 1 22 62 CFG=3
M  V30 66 1 63 24
M  V30 67 1 64 25
M  V30 68 1 65 26
M  V30 69 1 66 28
M  V30 70 1 67 29
M  V30 71 1 68 32
M  V30 72 1 69 32
M  V30 73 1 33 70 CFG=1
M  V30 74 1 71 13
M  V30 END BOND
M  V30 END CTAB
M  END
>  <b_m_subgroup_collapsed>  (2700) 
0

>  <r_i_docking_score>  (2700) 
-4.61244603646667

>  <s_m_subgroup_title>  (2700) 
glide-dock_SP_D22_pv

>  <s_m_subgroupid>  (2700) 
glide-dock_SP_D22_pv

>  <Molecule ChEMBL ID>  (2700) 
CHEMBL1201087

>  <Standard Type>  (2700) 
Ki

>  <Standard Value>  (2700) 
0.36

>  <label>  (2700) 
1

$$$$
CHEMBL228445
     RDKit          3D

  0  0  0  0  0  0  0  0  0  0999 V3000
M  V30 BEGIN CTAB
M  V30 COUNTS 66 69 0 0 1
M  V30 BEGIN ATOM
M  V30 1 O 8.888991 8.879859 -11.964010 0
M  V30 2 S 8.967690 7.415268 -11.846979 0
M  V30 3 O 7.893796 6.570729 -12.391189 0
M  V30 4 N 10.449179 6.960408 -12.598205 0
M  V30 5 C 10.814295 5.623413 -13.082405 0 CFG=1
M  V30 6 C 9.803872 5.028228 -14.092642 0
M  V30 7 C 10.355362 3.770960 -14.787951 0
M  V30 8 C 11.691622 4.048925 -15.517183 0 CFG=1
M  V30 9 N 11.499588 4.981960 -16.678970 0 CFG=2 CHG=1
M  V30 10 C 10.788099 4.337892 -17.821999 0
M  V30 11 C 10.393951 5.372743 -18.885740 0
M  V30 12 C 11.637646 6.104944 -19.428476 0 CFG=1
M  V30 13 C 11.352429 7.131084 -20.531887 0
M  V30 14 C 10.043781 7.625770 -20.755728 0
M  V30 15 C 9.785896 8.540251 -21.792234 0
M  V30 16 C 10.839447 8.973345 -22.616299 0
M  V30 17 C 12.147999 8.509711 -22.392382 0
M  V30 18 C 12.421950 7.591457 -21.347063 0
M  V30 19 O 13.685076 7.097718 -21.085432 0
M  V30 20 C 14.833953 7.812311 -21.536207 0
M  V30 21 C 15.128652 9.058519 -20.679121 0
M  V30 22 F 15.242836 8.710657 -19.397701 0
M  V30 23 F 16.284193 9.593553 -21.069351 0
M  V30 24 F 14.178473 9.979382 -20.804522 0
M  V30 25 C 12.395314 6.723895 -18.240374 0
M  V30 26 C 12.729797 5.672544 -17.168159 0
M  V30 27 C 12.688783 4.545949 -14.444468 0
M  V30 28 C 12.190122 5.806104 -13.730131 0
M  V30 29 C 9.283756 7.013800 -10.131400 0
M  V30 30 C 9.733205 8.031273 -9.264176 0
M  V30 31 C 9.923070 7.749948 -7.897672 0
M  V30 32 Cl 10.483129 8.975299 -6.823230 0
M  V30 33 C 9.653093 6.461039 -7.404887 0
M  V30 34 C 9.208821 5.447346 -8.275784 0
M  V30 35 C 9.035009 5.713523 -9.645541 0
M  V30 36 F 8.644949 4.715347 -10.473882 0
M  V30 37 H 11.215087 7.641985 -12.502579 0
M  V30 38 H 10.884706 4.931140 -12.247966 0
M  V30 39 H 9.520557 5.763757 -14.841562 0
M  V30 40 H 8.885279 4.739417 -13.583889 0
M  V30 41 H 9.598117 3.350561 -15.445238 0
M  V30 42 H 10.520914 3.001957 -14.033121 0
M  V30 43 H 12.083926 3.108164 -15.909448 0
M  V30 44 H 9.880912 3.835601 -17.494263 0
M  V30 45 H 11.422635 3.567932 -18.265812 0
M  V30 46 H 9.691586 6.079762 -18.437557 0
M  V30 47 H 9.866920 4.877139 -19.703180 0
M  V30 48 H 12.281909 5.345763 -19.881626 0
M  V30 49 H 9.208436 7.311311 -20.151266 0
M  V30 50 H 8.783211 8.906684 -21.959843 0
M  V30 51 H 10.643835 9.676901 -23.413416 0
M  V30 52 H 12.920202 8.878570 -23.046595 0
M  V30 53 H 15.677814 7.128044 -21.439438 0
M  V30 54 H 14.797751 8.045458 -22.600443 0
M  V30 55 H 13.324278 7.181544 -18.581055 0
M  V30 56 H 11.807589 7.533996 -17.804148 0
M  V30 57 H 13.244026 6.202278 -16.368734 0
M  V30 58 H 13.434472 4.936801 -17.560101 0
M  V30 59 H 12.809636 3.772079 -13.689610 0
M  V30 60 H 13.684529 4.693346 -14.856183 0
M  V30 61 H 12.160691 6.639582 -14.432731 0
M  V30 62 H 12.886500 6.099940 -12.949694 0
M  V30 63 H 9.917788 9.027637 -9.638254 0
M  V30 64 H 9.785447 6.246801 -6.355389 0
M  V30 65 H 8.999998 4.463241 -7.881821 0
M  V30 66 H 10.897999 5.716471 -16.333965 0
M  V30 END ATOM
M  V30 BEGIN BOND
M  V30 1 2 2 1
M  V30 2 2 3 2
M  V30 3 1 4 2
M  V30 4 1 5 4
M  V30 5 1 6 5
M  V30 6 1 7 6
M  V30 7 1 8 7
M  V30 8 1 9 8
M  V30 9 1 10 9
M  V30 10 1 11 10
M  V30 11 1 12 11
M  V30 12 1 13 12
M  V30 13 2 14 13
M  V30 14 1 15 14
M  V30 15 2 16 15
M  V30 16 1 17 16
M  V30 17 1 18 13
M  V30 18 2 18 17
M  V30 19 1 19 18
M  V30 20 1 20 19
M  V30 21 1 21 20
M  V30 22 1 22 21
M  V30 23 1 23 21
M  V30 24 1 24 21
M  V30 25 1 25 12
M  V30 26 1 26 9
M  V30 27 1 26 25
M  V30 28 1 27 8
M  V30 29 1 28 5
M  V30 30 1 28 27
M  V30 31 1 29 2
M  V30 32 1 30 29
M  V30 33 2 31 30
M  V30 34 1 32 31
M  V30 35 1 33 31
M  V30 36 2 34 33
M  V30 37 2 35 29
M  V30 38 1 35 34
M  V30 39 1 36 35
M  V30 40 1 37 4
M  V30 41 1 5 38 CFG=1
M  V30 42 1 39 6
M  V30 43 1 40 6
M  V30 44 1 41 7
M  V30 45 1 42 7
M  V30 46 1 8 43 CFG=3
M  V30 47 1 44 10
M  V30 48 1 45 10
M  V30 49 1 46 11
M  V30 50 1 47 11
M  V30 51 1 12 48 CFG=3
M  V30 52 1 49 14
M  V30 53 1 50 15
M  V30 54 1 51 16
M  V30 55 1 52 17
M  V30 56 1 53 20
M  V30 57 1 54 20
M  V30 58 1 55 25
M  V30 59 1 56 25
M  V30 60 1 57 26
M  V30 61 1 58 26
M  V30 62 1 59 27
M  V30 63 1 60 27
M  V30 64 1 61 28
M  V30 65 1 62 28
M  V30 66 1 63 30
M  V30 67 1 64 33
M  V30 68 1 65 34
M  V30 69 1 9 66 CFG=1
M  V30 END BOND
M  V30 END CTAB
M  END
>  <b_m_subgroup_collapsed>  (2701) 
0

>  <r_i_docking_score>  (2701) 
-4.6031147523195601

>  <s_m_subgroup_title>  (2701) 
glide-dock_SP_D22_pv

>  <s_m_subgroupid>  (2701) 
glide-dock_SP_D22_pv

>  <Molecule ChEMBL ID>  (2701) 
CHEMBL228445

>  <Standard Type>  (2701) 
Ki

>  <Standard Value>  (2701) 
78.0

>  <label>  (2701) 
1

$$$$
CHEMBL4579883
     RDKit          3D

  0  0  0  0  0  0  0  0  0  0999 V3000
M  V30 BEGIN CTAB
M  V30 COUNTS 55 58 0 0 1
M  V30 BEGIN ATOM
M  V30 1 C 12.614909 9.238430 -1.252035 0
M  V30 2 C 12.111778 9.374756 -2.682090 0
M  V30 3 C 12.235726 8.058807 -3.460896 0
M  V30 4 N 11.361737 8.035333 -4.653252 0 CHG=1
M  V30 5 C 11.248501 6.666547 -5.225502 0
M  V30 6 C 10.310744 6.616457 -6.437655 0
M  V30 7 N 10.599236 7.701928 -7.356902 0
M  V30 8 C 10.718652 7.496563 -8.742099 0
M  V30 9 C 11.681763 8.229547 -9.477260 0
M  V30 10 C 11.795683 8.084236 -10.874090 0
M  V30 11 C 10.944309 7.205256 -11.571201 0
M  V30 12 C 10.016589 6.436357 -10.840693 0
M  V30 13 C 9.907930 6.585343 -9.461563 0
M  V30 14 C 8.807586 5.699572 -8.964621 0
M  V30 15 C 8.195789 5.216116 -10.281073 0
M  V30 16 N 9.126114 5.495909 -11.376117 0
M  V30 17 S 8.539786 5.509472 -13.001370 0
M  V30 18 O 9.728971 5.372844 -13.858833 0
M  V30 19 O 7.685513 6.702604 -13.046936 0
M  V30 20 C 7.531759 4.042243 -13.223873 0
M  V30 21 C 6.245778 3.957237 -12.651661 0
M  V30 22 C 5.470304 2.798715 -12.862434 0
M  V30 23 C 5.968671 1.741273 -13.651065 0
M  V30 24 C 7.238432 1.844293 -14.248645 0
M  V30 25 C 8.024258 2.993574 -14.031979 0
M  V30 26 C 10.673576 9.047461 -6.813687 0
M  V30 27 C 11.675125 9.088223 -5.658123 0
M  V30 28 H 12.486113 10.172387 -0.715158 0
M  V30 29 H 12.047112 8.488850 -0.710377 0
M  V30 30 H 13.672058 8.972348 -1.218809 0
M  V30 31 H 12.664470 10.171610 -3.178251 0
M  V30 32 H 11.071296 9.695860 -2.654684 0
M  V30 33 H 11.935250 7.237602 -2.806376 0
M  V30 34 H 13.272676 7.867478 -3.743193 0
M  V30 35 H 10.886470 5.976859 -4.462380 0
M  V30 36 H 12.229631 6.298965 -5.516843 0
M  V30 37 H 9.265426 6.672364 -6.128197 0
M  V30 38 H 10.463880 5.665510 -6.935338 0
M  V30 39 H 12.353183 8.916301 -8.981161 0
M  V30 40 H 12.533943 8.659307 -11.415131 0
M  V30 41 H 11.031048 7.115028 -12.642173 0
M  V30 42 H 9.215580 4.848744 -8.420574 0
M  V30 43 H 8.086091 6.226838 -8.338480 0
M  V30 44 H 7.285980 5.772321 -10.481350 0
M  V30 45 H 7.911798 4.172417 -10.235458 0
M  V30 46 H 5.857232 4.770998 -12.055558 0
M  V30 47 H 4.487261 2.716457 -12.425393 0
M  V30 48 H 5.367962 0.855916 -13.809640 0
M  V30 49 H 7.612711 1.038033 -14.864024 0
M  V30 50 H 9.001274 3.063279 -14.489136 0
M  V30 51 H 10.931845 9.779634 -7.574163 0
M  V30 52 H 9.684825 9.322471 -6.451499 0
M  V30 53 H 11.626724 10.077951 -5.205850 0
M  V30 54 H 12.688960 8.972533 -6.038854 0
M  V30 55 H 10.431953 8.254430 -4.329587 0
M  V30 END ATOM
M  V30 BEGIN BOND
M  V30 1 1 2 1
M  V30 2 1 3 2
M  V30 3 1 4 3
M  V30 4 1 5 4
M  V30 5 1 6 5
M  V30 6 1 7 6
M  V30 7 1 8 7
M  V30 8 1 9 8
M  V30 9 2 10 9
M  V30 10 1 11 10
M  V30 11 2 12 11
M  V30 12 2 13 8
M  V30 13 1 13 12
M  V30 14 1 14 13
M  V30 15 1 15 14
M  V30 16 1 16 12
M  V30 17 1 16 15
M  V30 18 1 17 16
M  V30 19 2 18 17
M  V30 20 2 19 17
M  V30 21 1 20 17
M  V30 22 2 21 20
M  V30 23 1 22 21
M  V30 24 2 23 22
M  V30 25 1 24 23
M  V30 26 1 25 20
M  V30 27 2 25 24
M  V30 28 1 26 7
M  V30 29 1 27 4
M  V30 30 1 27 26
M  V30 31 1 28 1
M  V30 32 1 29 1
M  V30 33 1 30 1
M  V30 34 1 31 2
M  V30 35 1 32 2
M  V30 36 1 33 3
M  V30 37 1 34 3
M  V30 38 1 35 5
M  V30 39 1 36 5
M  V30 40 1 37 6
M  V30 41 1 38 6
M  V30 42 1 39 9
M  V30 43 1 40 10
M  V30 44 1 41 11
M  V30 45 1 42 14
M  V30 46 1 43 14
M  V30 47 1 44 15
M  V30 48 1 45 15
M  V30 49 1 46 21
M  V30 50 1 47 22
M  V30 51 1 48 23
M  V30 52 1 49 24
M  V30 53 1 50 25
M  V30 54 1 51 26
M  V30 55 1 52 26
M  V30 56 1 53 27
M  V30 57 1 54 27
M  V30 58 1 55 4
M  V30 END BOND
M  V30 END CTAB
M  END
>  <b_m_subgroup_collapsed>  (2702) 
0

>  <r_i_docking_score>  (2702) 
-4.57165976266469

>  <s_m_subgroup_title>  (2702) 
glide-dock_SP_D22_pv

>  <s_m_subgroupid>  (2702) 
glide-dock_SP_D22_pv

>  <Molecule ChEMBL ID>  (2702) 
CHEMBL4579883

>  <Standard Type>  (2702) 
Ki

>  <Standard Value>  (2702) 
42.0

>  <label>  (2702) 
1

$$$$
CHEMBL4250274
     RDKit          3D

  0  0  0  0  0  0  0  0  0  0999 V3000
M  V30 BEGIN CTAB
M  V30 COUNTS 70 75 0 0 1
M  V30 BEGIN ATOM
M  V30 1 O 9.590383 5.071278 -17.618380 0
M  V30 2 S 9.615319 3.742535 -18.247969 0
M  V30 3 O 8.887146 3.557382 -19.512934 0
M  V30 4 C 11.351687 3.279972 -18.487738 0
M  V30 5 C 12.307472 4.098763 -17.850273 0
M  V30 6 C 13.665549 3.772334 -17.963234 0
M  V30 7 N 14.106107 2.701808 -18.647253 0
M  V30 8 C 13.210115 1.897261 -19.257450 0
M  V30 9 C 13.687988 0.760144 -19.941532 0
M  V30 10 C 12.812953 -0.111403 -20.611776 0
M  V30 11 C 11.436625 0.160050 -20.618177 0
M  V30 12 C 10.938993 1.288026 -19.940643 0
M  V30 13 C 11.806454 2.153570 -19.232748 0
M  V30 14 N 8.977752 2.577947 -17.087757 0
M  V30 15 C 8.124129 1.467183 -17.581335 0
M  V30 16 C 8.345772 0.093953 -16.911364 0
M  V30 17 C 9.814408 -0.342732 -16.801710 0
M  V30 18 C 10.491793 0.194148 -15.536777 0
M  V30 19 C 10.713918 1.698177 -15.522954 0
M  V30 20 C 9.412859 2.506528 -15.662418 0 CFG=1
M  V30 21 C 9.526175 3.873751 -14.970630 0
M  V30 22 C 9.598218 3.733903 -13.437724 0
M  V30 23 N 9.264937 4.976976 -12.759835 0
M  V30 24 C 9.166994 4.716510 -11.318989 0
M  V30 25 C 8.827904 5.998620 -10.537894 0
M  V30 26 N 9.739019 7.085472 -10.886244 0
M  V30 27 C 10.764527 7.520855 -10.030294 0
M  V30 28 N 12.010706 7.626982 -10.444841 0
M  V30 29 S 12.968786 8.172327 -9.189137 0
M  V30 30 C 11.670605 8.419777 -8.063226 0
M  V30 31 C 11.686272 8.958999 -6.766707 0
M  V30 32 C 10.485608 9.026773 -6.047533 0
M  V30 33 C 9.291045 8.572398 -6.646907 0
M  V30 34 C 9.288361 8.054701 -7.944588 0
M  V30 35 C 10.477479 7.964617 -8.689939 0
M  V30 36 C 9.827571 7.295193 -12.310771 0
M  V30 37 C 10.282013 6.001077 -13.003206 0
M  V30 38 H 12.010655 4.962937 -17.274744 0
M  V30 39 H 14.418432 4.379067 -17.480820 0
M  V30 40 H 14.748362 0.556747 -19.951778 0
M  V30 41 H 13.197862 -0.978962 -21.128799 0
M  V30 42 H 10.758450 -0.495474 -21.144772 0
M  V30 43 H 9.880759 1.458265 -19.988102 0
M  V30 44 H 7.082334 1.758781 -17.450226 0
M  V30 45 H 8.248620 1.342787 -18.652508 0
M  V30 46 H 7.866423 0.052653 -15.932363 0
M  V30 47 H 7.812551 -0.648273 -17.506716 0
M  V30 48 H 9.852156 -1.428870 -16.764355 0
M  V30 49 H 10.375649 -0.060616 -17.689404 0
M  V30 50 H 9.940673 -0.118660 -14.648614 0
M  V30 51 H 11.480659 -0.227809 -15.450377 0
M  V30 52 H 11.208449 1.928214 -14.580800 0
M  V30 53 H 11.440946 1.968000 -16.281614 0
M  V30 54 H 8.626432 1.992646 -15.108924 0
M  V30 55 H 10.407132 4.400375 -15.336275 0
M  V30 56 H 8.661340 4.483850 -15.216768 0
M  V30 57 H 8.873731 2.983955 -13.123894 0
M  V30 58 H 10.579006 3.385778 -13.112734 0
M  V30 59 H 8.367730 3.996537 -11.149770 0
M  V30 60 H 10.085967 4.274308 -10.940013 0
M  V30 61 H 7.808065 6.285362 -10.787452 0
M  V30 62 H 8.846548 5.792728 -9.467458 0
M  V30 63 H 12.608528 9.314026 -6.330697 0
M  V30 64 H 10.482383 9.434678 -5.047799 0
M  V30 65 H 8.346943 8.616029 -6.129879 0
M  V30 66 H 8.359330 7.729600 -8.382627 0
M  V30 67 H 8.834738 7.593550 -12.646861 0
M  V30 68 H 10.493029 8.123430 -12.543381 0
M  V30 69 H 11.261741 5.683864 -12.646754 0
M  V30 70 H 10.392846 6.172115 -14.070849 0
M  V30 END ATOM
M  V30 BEGIN BOND
M  V30 1 2 2 1
M  V30 2 2 3 2
M  V30 3 1 4 2
M  V30 4 2 5 4
M  V30 5 1 6 5
M  V30 6 2 7 6
M  V30 7 1 8 7
M  V30 8 2 9 8
M  V30 9 1 10 9
M  V30 10 2 11 10
M  V30 11 1 12 11
M  V30 12 1 13 4
M  V30 13 1 13 8
M  V30 14 2 13 12
M  V30 15 1 14 2
M  V30 16 1 15 14
M  V30 17 1 16 15
M  V30 18 1 17 16
M  V30 19 1 18 17
M  V30 20 1 19 18
M  V30 21 1 20 14
M  V30 22 1 20 19
M  V30 23 1 21 20
M  V30 24 1 22 21
M  V30 25 1 23 22
M  V30 26 1 24 23
M  V30 27 1 25 24
M  V30 28 1 26 25
M  V30 29 1 27 26
M  V30 30 2 28 27
M  V30 31 1 29 28
M  V30 32 1 30 29
M  V30 33 2 31 30
M  V30 34 1 32 31
M  V30 35 2 33 32
M  V30 36 1 34 33
M  V30 37 1 35 27
M  V30 38 1 35 30
M  V30 39 2 35 34
M  V30 40 1 36 26
M  V30 41 1 37 23
M  V30 42 1 37 36
M  V30 43 1 38 5
M  V30 44 1 39 6
M  V30 45 1 40 9
M  V30 46 1 41 10
M  V30 47 1 42 11
M  V30 48 1 43 12
M  V30 49 1 44 15
M  V30 50 1 45 15
M  V30 51 1 46 16
M  V30 52 1 47 16
M  V30 53 1 48 17
M  V30 54 1 49 17
M  V30 55 1 50 18
M  V30 56 1 51 18
M  V30 57 1 52 19
M  V30 58 1 53 19
M  V30 59 1 20 54 CFG=1
M  V30 60 1 55 21
M  V30 61 1 56 21
M  V30 62 1 57 22
M  V30 63 1 58 22
M  V30 64 1 59 24
M  V30 65 1 60 24
M  V30 66 1 61 25
M  V30 67 1 62 25
M  V30 68 1 63 31
M  V30 69 1 64 32
M  V30 70 1 65 33
M  V30 71 1 66 34
M  V30 72 1 67 36
M  V30 73 1 68 36
M  V30 74 1 69 37
M  V30 75 1 70 37
M  V30 END BOND
M  V30 END CTAB
M  END
>  <b_m_subgroup_collapsed>  (2703) 
0

>  <r_i_docking_score>  (2703) 
-4.5679996438031196

>  <s_m_subgroup_title>  (2703) 
glide-dock_SP_D22_pv

>  <s_m_subgroupid>  (2703) 
glide-dock_SP_D22_pv

>  <Molecule ChEMBL ID>  (2703) 
CHEMBL4250274

>  <Standard Type>  (2703) 
Ki

>  <Standard Value>  (2703) 
3.0

>  <label>  (2703) 
1

$$$$
CHEMBL245764
     RDKit          3D

  0  0  0  0  0  0  0  0  0  0999 V3000
M  V30 BEGIN CTAB
M  V30 COUNTS 52 55 0 0 1
M  V30 BEGIN ATOM
M  V30 1 C 10.707977 7.667475 -11.431055 0
M  V30 2 O 9.351410 7.251431 -11.466828 0
M  V30 3 C 9.032173 6.104420 -12.161007 0
M  V30 4 C 7.702080 5.646610 -12.068460 0
M  V30 5 C 7.290792 4.490495 -12.752285 0
M  V30 6 C 8.224264 3.770471 -13.519879 0
M  V30 7 C 9.571130 4.197352 -13.635921 0
M  V30 8 C 9.954473 5.371894 -12.947708 0
M  V30 9 C 10.262654 3.269396 -14.477228 0
M  V30 10 C 9.361651 2.291246 -14.834009 0
M  V30 11 N 8.124535 2.589989 -14.247160 0
M  V30 12 C 6.911272 1.798090 -14.339110 0
M  V30 13 C 9.597264 1.054257 -15.667077 0
M  V30 14 C 9.167492 1.192275 -17.129011 0
M  V30 15 C 7.831529 0.850205 -17.450739 0
M  V30 16 C 7.343008 0.955925 -18.765568 0
M  V30 17 C 8.196317 1.395423 -19.790983 0
M  V30 18 C 9.534995 1.706817 -19.495892 0
M  V30 19 C 10.039531 1.603347 -18.178202 0
M  V30 20 C 11.523638 1.894535 -17.984102 0
M  V30 21 C 11.883380 3.384941 -18.134415 0
M  V30 22 N 11.182319 4.256552 -17.152180 0 CFG=2 CHG=1
M  V30 23 C 10.733818 5.530691 -17.761694 0
M  V30 24 C 11.948033 4.487077 -15.895929 0
M  V30 25 C 11.706793 3.386054 -14.851409 0
M  V30 26 H 10.772391 8.639132 -10.940505 0
M  V30 27 H 11.127601 7.773706 -12.430917 0
M  V30 28 H 11.319981 6.971615 -10.857951 0
M  V30 29 H 6.991580 6.172622 -11.448270 0
M  V30 30 H 6.270327 4.153332 -12.662419 0
M  V30 31 H 10.981964 5.683342 -13.036527 0
M  V30 32 H 7.134141 0.732689 -14.271627 0
M  V30 33 H 6.418144 2.016924 -15.283589 0
M  V30 34 H 6.229122 2.039427 -13.524438 0
M  V30 35 H 10.631536 0.731761 -15.588819 0
M  V30 36 H 9.055123 0.213987 -15.233607 0
M  V30 37 H 7.164733 0.476738 -16.687860 0
M  V30 38 H 6.321070 0.684168 -18.988012 0
M  V30 39 H 7.831610 1.468891 -20.806900 0
M  V30 40 H 10.186583 2.013269 -20.302155 0
M  V30 41 H 11.918498 1.474334 -17.067694 0
M  V30 42 H 12.055318 1.344044 -18.761839 0
M  V30 43 H 12.964046 3.522542 -18.063555 0
M  V30 44 H 11.623068 3.689001 -19.148457 0
M  V30 45 H 11.584142 6.142458 -18.069199 0
M  V30 46 H 10.135117 6.112357 -17.058851 0
M  V30 47 H 10.109717 5.348800 -18.638296 0
M  V30 48 H 13.013227 4.591287 -16.103464 0
M  V30 49 H 11.645410 5.436829 -15.450621 0
M  V30 50 H 12.287490 3.622586 -13.962137 0
M  V30 51 H 12.086835 2.429228 -15.189476 0
M  V30 52 H 10.331077 3.777100 -16.891760 0
M  V30 END ATOM
M  V30 BEGIN BOND
M  V30 1 1 2 1
M  V30 2 1 3 2
M  V30 3 1 4 3
M  V30 4 2 5 4
M  V30 5 1 6 5
M  V30 6 2 7 6
M  V30 7 2 8 3
M  V30 8 1 8 7
M  V30 9 1 9 7
M  V30 10 2 10 9
M  V30 11 1 11 6
M  V30 12 1 11 10
M  V30 13 1 12 11
M  V30 14 1 13 10
M  V30 15 1 14 13
M  V30 16 2 15 14
M  V30 17 1 16 15
M  V30 18 2 17 16
M  V30 19 1 18 17
M  V30 20 1 19 14
M  V30 21 2 19 18
M  V30 22 1 20 19
M  V30 23 1 21 20
M  V30 24 1 22 21
M  V30 25 1 23 22
M  V30 26 1 24 22
M  V30 27 1 25 9
M  V30 28 1 25 24
M  V30 29 1 26 1
M  V30 30 1 27 1
M  V30 31 1 28 1
M  V30 32 1 29 4
M  V30 33 1 30 5
M  V30 34 1 31 8
M  V30 35 1 32 12
M  V30 36 1 33 12
M  V30 37 1 34 12
M  V30 38 1 35 13
M  V30 39 1 36 13
M  V30 40 1 37 15
M  V30 41 1 38 16
M  V30 42 1 39 17
M  V30 43 1 40 18
M  V30 44 1 41 20
M  V30 45 1 42 20
M  V30 46 1 43 21
M  V30 47 1 44 21
M  V30 48 1 45 23
M  V30 49 1 46 23
M  V30 50 1 47 23
M  V30 51 1 48 24
M  V30 52 1 49 24
M  V30 53 1 50 25
M  V30 54 1 51 25
M  V30 55 1 22 52 CFG=1
M  V30 END BOND
M  V30 END CTAB
M  END
>  <b_m_subgroup_collapsed>  (2704) 
0

>  <r_i_docking_score>  (2704) 
-4.5644948029801498

>  <s_m_subgroup_title>  (2704) 
glide-dock_SP_D22_pv

>  <s_m_subgroupid>  (2704) 
glide-dock_SP_D22_pv

>  <Molecule ChEMBL ID>  (2704) 
CHEMBL245764

>  <Standard Type>  (2704) 
Ki

>  <Standard Value>  (2704) 
1.7

>  <label>  (2704) 
1

$$$$
CHEMBL426662
     RDKit          3D

  0  0  0  0  0  0  0  0  0  0999 V3000
M  V30 BEGIN CTAB
M  V30 COUNTS 51 54 0 0 1
M  V30 BEGIN ATOM
M  V30 1 C 10.590482 2.873163 -18.963446 0
M  V30 2 N 9.962094 1.628701 -18.456078 0 CFG=2 CHG=1
M  V30 3 C 10.905856 0.503222 -18.329279 0
M  V30 4 C 11.611895 0.552864 -16.973906 0
M  V30 5 C 10.698636 0.258548 -15.753370 0
M  V30 6 C 10.234490 1.482387 -14.924577 0
M  V30 7 C 8.995529 2.283813 -15.408357 0 CFG=2
M  V30 8 C 8.599248 3.365925 -14.384655 0
M  V30 9 C 9.577200 4.301225 -13.962276 0
M  V30 10 C 9.268956 5.296128 -13.012418 0
M  V30 11 C 7.970302 5.386643 -12.476530 0
M  V30 12 C 6.979744 4.485345 -12.902448 0
M  V30 13 C 7.290493 3.486090 -13.846936 0
M  V30 14 C 7.854589 1.386595 -15.835720 0
M  V30 15 N 7.257283 0.523320 -14.925680 0
M  V30 16 C 6.188301 -0.139338 -15.492772 0
M  V30 17 C 5.242632 -1.040710 -14.973614 0
M  V30 18 C 4.232220 -1.538630 -15.817505 0
M  V30 19 C 4.189856 -1.152533 -17.168476 0
M  V30 20 C 5.150150 -0.257454 -17.679052 0
M  V30 21 C 6.165126 0.279784 -16.852146 0
M  V30 22 C 7.237761 1.218144 -17.057924 0
M  V30 23 C 7.518643 1.886803 -18.374388 0
M  V30 24 C 8.696646 1.291219 -19.146326 0
M  V30 25 H 10.932842 2.750149 -19.993305 0
M  V30 26 H 11.447556 3.155427 -18.352253 0
M  V30 27 H 9.883704 3.702873 -18.937948 0
M  V30 28 H 10.398616 -0.461026 -18.407482 0
M  V30 29 H 11.630727 0.530137 -19.145966 0
M  V30 30 H 12.370197 -0.225440 -17.046907 0
M  V30 31 H 12.167610 1.478423 -16.831631 0
M  V30 32 H 9.867806 -0.395014 -16.024433 0
M  V30 33 H 11.285483 -0.333169 -15.049922 0
M  V30 34 H 9.984797 1.103546 -13.934392 0
M  V30 35 H 11.087981 2.140644 -14.767811 0
M  V30 36 H 9.302468 2.863617 -16.274061 0
M  V30 37 H 10.579491 4.266007 -14.363809 0
M  V30 38 H 10.029572 5.993665 -12.692966 0
M  V30 39 H 7.731826 6.146532 -11.742507 0
M  V30 40 H 5.983162 4.556116 -12.493351 0
M  V30 41 H 6.490369 2.825949 -14.149952 0
M  V30 42 H 7.548427 0.457796 -13.962404 0
M  V30 43 H 5.293671 -1.351113 -13.941089 0
M  V30 44 H 3.490584 -2.226938 -15.445782 0
M  V30 45 H 3.414989 -1.546335 -17.809656 0
M  V30 46 H 5.091509 0.030315 -18.717421 0
M  V30 47 H 6.641058 1.772748 -19.009890 0
M  V30 48 H 7.685743 2.953519 -18.223822 0
M  V30 49 H 8.719648 1.676456 -20.167747 0
M  V30 50 H 8.543906 0.215490 -19.238348 0
M  V30 51 H 9.676606 1.807407 -17.503822 0
M  V30 END ATOM
M  V30 BEGIN BOND
M  V30 1 1 2 1
M  V30 2 1 3 2
M  V30 3 1 4 3
M  V30 4 1 5 4
M  V30 5 1 6 5
M  V30 6 1 7 6
M  V30 7 1 8 7
M  V30 8 2 9 8
M  V30 9 1 10 9
M  V30 10 2 11 10
M  V30 11 1 12 11
M  V30 12 1 13 8
M  V30 13 2 13 12
M  V30 14 1 14 7
M  V30 15 1 15 14
M  V30 16 1 16 15
M  V30 17 2 17 16
M  V30 18 1 18 17
M  V30 19 2 19 18
M  V30 20 1 20 19
M  V30 21 1 21 16
M  V30 22 2 21 20
M  V30 23 2 22 14
M  V30 24 1 22 21
M  V30 25 1 23 22
M  V30 26 1 24 2
M  V30 27 1 24 23
M  V30 28 1 25 1
M  V30 29 1 26 1
M  V30 30 1 27 1
M  V30 31 1 28 3
M  V30 32 1 29 3
M  V30 33 1 30 4
M  V30 34 1 31 4
M  V30 35 1 32 5
M  V30 36 1 33 5
M  V30 37 1 34 6
M  V30 38 1 35 6
M  V30 39 1 7 36 CFG=3
M  V30 40 1 37 9
M  V30 41 1 38 10
M  V30 42 1 39 11
M  V30 43 1 40 12
M  V30 44 1 41 13
M  V30 45 1 42 15
M  V30 46 1 43 17
M  V30 47 1 44 18
M  V30 48 1 45 19
M  V30 49 1 46 20
M  V30 50 1 47 23
M  V30 51 1 48 23
M  V30 52 1 49 24
M  V30 53 1 50 24
M  V30 54 1 2 51 CFG=1
M  V30 END BOND
M  V30 END CTAB
M  END
>  <b_m_subgroup_collapsed>  (2705) 
0

>  <r_i_docking_score>  (2705) 
-4.5578099983553297

>  <s_m_subgroup_title>  (2705) 
glide-dock_SP_D22_pv

>  <s_m_subgroupid>  (2705) 
glide-dock_SP_D22_pv

>  <Molecule ChEMBL ID>  (2705) 
CHEMBL426662

>  <Standard Type>  (2705) 
Ki

>  <Standard Value>  (2705) 
10000.0

>  <label>  (2705) 
0

$$$$
CHEMBL4225278
     RDKit          3D

  0  0  0  0  0  0  0  0  0  0999 V3000
M  V30 BEGIN CTAB
M  V30 COUNTS 53 54 0 0 1
M  V30 BEGIN ATOM
M  V30 1 C 12.378123 6.112182 -14.842527 0
M  V30 2 C 12.318357 4.611176 -14.534893 0
M  V30 3 C 11.231791 3.853796 -15.319606 0
M  V30 4 C 9.769842 4.242059 -15.008803 0
M  V30 5 C 9.307108 3.891493 -13.581785 0
M  V30 6 C 9.460682 5.049085 -12.581883 0
M  V30 7 C 9.292923 4.584502 -11.130709 0
M  V30 8 C 9.540672 5.707703 -10.117498 0
M  V30 9 C 9.647848 5.152031 -8.677031 0
M  V30 10 N 9.819080 6.174317 -7.603922 0 CFG=2 CHG=1
M  V30 11 C 8.643086 7.031763 -7.368433 0
M  V30 12 C 9.162333 8.376595 -6.858151 0
M  V30 13 C 10.695209 8.298306 -6.845544 0 CFG=1
M  V30 14 C 11.233974 8.352899 -5.414283 0
M  V30 15 C 11.287566 9.617459 -4.786875 0
M  V30 16 C 11.704048 9.738709 -3.448985 0
M  V30 17 C 12.118835 8.600609 -2.736280 0
M  V30 18 C 12.085989 7.335510 -3.349937 0
M  V30 19 O 12.485628 6.242219 -2.641768 0
M  V30 20 C 11.630525 7.206455 -4.680232 0
M  V30 21 C 11.013867 7.046444 -7.681850 0
M  V30 22 H 13.169217 6.591802 -14.269004 0
M  V30 23 H 12.580861 6.289990 -15.898792 0
M  V30 24 H 11.441097 6.608549 -14.597715 0
M  V30 25 H 12.196388 4.447730 -13.463162 0
M  V30 26 H 13.286166 4.172970 -14.783449 0
M  V30 27 H 11.357706 2.783590 -15.146867 0
M  V30 28 H 11.409419 3.998862 -16.384743 0
M  V30 29 H 9.138095 3.693781 -15.710724 0
M  V30 30 H 9.585200 5.295750 -15.225596 0
M  V30 31 H 9.839988 3.003543 -13.233016 0
M  V30 32 H 8.252946 3.604825 -13.612086 0
M  V30 33 H 8.730965 5.828777 -12.810231 0
M  V30 34 H 10.442311 5.513768 -12.688032 0
M  V30 35 H 10.000484 3.772912 -10.943795 0
M  V30 36 H 8.292624 4.173095 -10.990015 0
M  V30 37 H 8.736245 6.439102 -10.213586 0
M  V30 38 H 10.460779 6.221205 -10.392594 0
M  V30 39 H 10.486615 4.456757 -8.647061 0
M  V30 40 H 8.757152 4.565455 -8.444539 0
M  V30 41 H 7.964707 6.557662 -6.656952 0
M  V30 42 H 8.092115 7.185105 -8.289963 0
M  V30 43 H 8.758760 8.582319 -5.866374 0
M  V30 44 H 8.825124 9.172282 -7.519467 0
M  V30 45 H 11.109666 9.164655 -7.360466 0
M  V30 46 H 10.970194 10.500240 -5.322802 0
M  V30 47 H 11.710625 10.703491 -2.965479 0
M  V30 48 H 12.450190 8.698649 -1.710816 0
M  V30 49 H 12.171891 5.416875 -2.984971 0
M  V30 50 H 11.592701 6.223022 -5.125373 0
M  V30 51 H 11.164939 7.374411 -8.708494 0
M  V30 52 H 11.930317 6.539018 -7.380272 0
M  V30 53 H 9.932337 5.655543 -6.742913 0
M  V30 END ATOM
M  V30 BEGIN BOND
M  V30 1 1 2 1
M  V30 2 1 3 2
M  V30 3 1 4 3
M  V30 4 1 5 4
M  V30 5 1 6 5
M  V30 6 1 7 6
M  V30 7 1 8 7
M  V30 8 1 9 8
M  V30 9 1 10 9
M  V30 10 1 11 10
M  V30 11 1 12 11
M  V30 12 1 13 12
M  V30 13 1 14 13
M  V30 14 2 15 14
M  V30 15 1 16 15
M  V30 16 2 17 16
M  V30 17 1 18 17
M  V30 18 1 19 18
M  V30 19 1 20 14
M  V30 20 2 20 18
M  V30 21 1 21 10
M  V30 22 1 21 13
M  V30 23 1 22 1
M  V30 24 1 23 1
M  V30 25 1 24 1
M  V30 26 1 25 2
M  V30 27 1 26 2
M  V30 28 1 27 3
M  V30 29 1 28 3
M  V30 30 1 29 4
M  V30 31 1 30 4
M  V30 32 1 31 5
M  V30 33 1 32 5
M  V30 34 1 33 6
M  V30 35 1 34 6
M  V30 36 1 35 7
M  V30 37 1 36 7
M  V30 38 1 37 8
M  V30 39 1 38 8
M  V30 40 1 39 9
M  V30 41 1 40 9
M  V30 42 1 41 11
M  V30 43 1 42 11
M  V30 44 1 43 12
M  V30 45 1 44 12
M  V30 46 1 13 45 CFG=3
M  V30 47 1 46 15
M  V30 48 1 47 16
M  V30 49 1 48 17
M  V30 50 1 49 19
M  V30 51 1 50 20
M  V30 52 1 51 21
M  V30 53 1 52 21
M  V30 54 1 10 53 CFG=1
M  V30 END BOND
M  V30 END CTAB
M  END
>  <b_m_subgroup_collapsed>  (2706) 
0

>  <r_i_docking_score>  (2706) 
-4.5475031108311796

>  <s_m_subgroup_title>  (2706) 
glide-dock_SP_D22_pv

>  <s_m_subgroupid>  (2706) 
glide-dock_SP_D22_pv

>  <Molecule ChEMBL ID>  (2706) 
CHEMBL4225278

>  <Standard Type>  (2706) 
Ki

>  <Standard Value>  (2706) 
42.0

>  <label>  (2706) 
1

$$$$
CHEMBL329443
     RDKit          3D

  0  0  0  0  0  0  0  0  0  0999 V3000
M  V30 BEGIN CTAB
M  V30 COUNTS 48 49 0 0 1
M  V30 BEGIN ATOM
M  V30 1 C 11.840553 7.402713 -4.110165 0
M  V30 2 C 10.913145 6.824662 -5.189561 0
M  V30 3 C 10.178349 7.910053 -6.005477 0
M  V30 4 N 10.460141 7.862540 -7.465329 0 CFG=2 CHG=1
M  V30 5 C 11.889124 8.131583 -7.797460 0
M  V30 6 C 12.180877 8.172328 -9.296819 0
M  V30 7 C 11.181333 9.044101 -10.039296 0
M  V30 8 C 9.748637 8.569551 -9.761317 0 CFG=1
M  V30 9 C 9.493728 7.156527 -10.307466 0
M  V30 10 C 8.876849 6.166978 -9.507412 0
M  V30 11 C 8.611954 4.893123 -10.020478 0
M  V30 12 C 8.970262 4.572475 -11.337914 0
M  V30 13 C 9.584928 5.534821 -12.146544 0
M  V30 14 S 10.001441 5.125481 -13.838527 0
M  V30 15 O 8.803435 5.372099 -14.647288 0
M  V30 16 O 11.280285 5.780575 -14.155895 0
M  V30 17 N 10.258422 3.412471 -13.856365 0
M  V30 18 C 9.140383 2.531983 -14.220232 0
M  V30 19 C 11.572735 2.911461 -14.247128 0
M  V30 20 C 9.840901 6.827371 -11.643254 0
M  V30 21 C 9.519289 8.721095 -8.238130 0
M  V30 22 H 12.353274 6.602337 -3.575124 0
M  V30 23 H 12.599202 8.057525 -4.541376 0
M  V30 24 H 11.286390 7.986120 -3.373728 0
M  V30 25 H 10.176975 6.185056 -4.701498 0
M  V30 26 H 11.477831 6.154711 -5.835481 0
M  V30 27 H 10.406761 8.907116 -5.622801 0
M  V30 28 H 9.107396 7.771674 -5.852549 0
M  V30 29 H 12.485962 7.301243 -7.445263 0
M  V30 30 H 12.230191 9.048283 -7.313834 0
M  V30 31 H 12.143554 7.164515 -9.710763 0
M  V30 32 H 13.196162 8.535671 -9.466631 0
M  V30 33 H 11.423288 8.972861 -11.087492 0
M  V30 34 H 11.292013 10.091857 -9.755414 0
M  V30 35 H 9.054113 9.229683 -10.280484 0
M  V30 36 H 8.528503 6.360886 -8.505862 0
M  V30 37 H 8.100017 4.172121 -9.402707 0
M  V30 38 H 8.757047 3.598658 -11.735765 0
M  V30 39 H 9.307422 1.520852 -13.847547 0
M  V30 40 H 8.203669 2.900039 -13.805079 0
M  V30 41 H 9.035004 2.491717 -15.304159 0
M  V30 42 H 11.682178 1.874931 -13.929285 0
M  V30 43 H 11.690484 2.961423 -15.329177 0
M  V30 44 H 12.363370 3.505975 -13.791290 0
M  V30 45 H 10.287783 7.558205 -12.298438 0
M  V30 46 H 9.653643 9.758910 -7.932055 0
M  V30 47 H 8.486141 8.483364 -7.988416 0
M  V30 48 H 10.269755 6.918507 -7.773561 0
M  V30 END ATOM
M  V30 BEGIN BOND
M  V30 1 1 2 1
M  V30 2 1 3 2
M  V30 3 1 4 3
M  V30 4 1 5 4
M  V30 5 1 6 5
M  V30 6 1 7 6
M  V30 7 1 8 7
M  V30 8 1 9 8
M  V30 9 1 10 9
M  V30 10 2 11 10
M  V30 11 1 12 11
M  V30 12 2 13 12
M  V30 13 1 14 13
M  V30 14 2 15 14
M  V30 15 2 16 14
M  V30 16 1 17 14
M  V30 17 1 18 17
M  V30 18 1 19 17
M  V30 19 2 20 9
M  V30 20 1 20 13
M  V30 21 1 21 4
M  V30 22 1 21 8
M  V30 23 1 22 1
M  V30 24 1 23 1
M  V30 25 1 24 1
M  V30 26 1 25 2
M  V30 27 1 26 2
M  V30 28 1 27 3
M  V30 29 1 28 3
M  V30 30 1 29 5
M  V30 31 1 30 5
M  V30 32 1 31 6
M  V30 33 1 32 6
M  V30 34 1 33 7
M  V30 35 1 34 7
M  V30 36 1 8 35 CFG=3
M  V30 37 1 36 10
M  V30 38 1 37 11
M  V30 39 1 38 12
M  V30 40 1 39 18
M  V30 41 1 40 18
M  V30 42 1 41 18
M  V30 43 1 42 19
M  V30 44 1 43 19
M  V30 45 1 44 19
M  V30 46 1 45 20
M  V30 47 1 46 21
M  V30 48 1 47 21
M  V30 49 1 4 48 CFG=3
M  V30 END BOND
M  V30 END CTAB
M  END
>  <b_m_subgroup_collapsed>  (2707) 
0

>  <r_i_docking_score>  (2707) 
-4.5404911299867701

>  <s_m_subgroup_title>  (2707) 
glide-dock_SP_D22_pv

>  <s_m_subgroupid>  (2707) 
glide-dock_SP_D22_pv

>  <Molecule ChEMBL ID>  (2707) 
CHEMBL329443

>  <Standard Type>  (2707) 
Ki

>  <Standard Value>  (2707) 
91.0

>  <label>  (2707) 
1

$$$$
CHEMBL596
     RDKit          3D

  0  0  0  0  0  0  0  0  0  0999 V3000
M  V30 BEGIN CTAB
M  V30 COUNTS 54 56 0 0 1
M  V30 BEGIN ATOM
M  V30 1 C 8.108441 0.230734 -14.994029 0
M  V30 2 C 8.680297 1.655164 -14.919762 0
M  V30 3 C 7.731071 2.668233 -14.247329 0
M  V30 4 O 6.549420 2.352830 -14.088023 0
M  V30 5 N 8.214371 3.882282 -13.863073 0
M  V30 6 C 9.519196 4.287319 -14.270336 0
M  V30 7 C 10.630473 3.993556 -13.457485 0
M  V30 8 C 11.922647 4.401537 -13.846749 0
M  V30 9 C 12.112772 5.094179 -15.055977 0
M  V30 10 C 11.008718 5.371818 -15.882963 0
M  V30 11 C 9.717962 4.967868 -15.492799 0
M  V30 12 C 7.320012 4.837929 -13.150537 0 CFG=1
M  V30 13 C 6.959233 4.415329 -11.724772 0
M  V30 14 C 8.101826 4.694098 -10.731766 0
M  V30 15 N 8.485744 6.130205 -10.685820 0 CFG=1 CHG=1
M  V30 16 C 9.491361 6.383652 -9.622757 0
M  V30 17 C 9.494971 7.843120 -9.139735 0
M  V30 18 C 10.308154 8.065827 -7.876762 0
M  V30 19 C 11.284474 9.079000 -7.837787 0
M  V30 20 C 11.958685 9.372153 -6.636330 0
M  V30 21 C 11.685946 8.624544 -5.475154 0
M  V30 22 C 10.758958 7.568547 -5.525633 0
M  V30 23 C 10.049425 7.309798 -6.712293 0
M  V30 24 C 8.865444 6.632047 -12.029045 0
M  V30 25 C 7.779591 6.306422 -13.083232 0
M  V30 26 H 8.835685 -0.453086 -15.431668 0
M  V30 27 H 7.855796 -0.148087 -14.003826 0
M  V30 28 H 7.208780 0.192204 -15.608057 0
M  V30 29 H 8.921408 2.004656 -15.923474 0
M  V30 30 H 9.615730 1.606413 -14.364021 0
M  V30 31 H 10.485787 3.449484 -12.537409 0
M  V30 32 H 12.773493 4.182798 -13.218880 0
M  V30 33 H 13.104381 5.406184 -15.351689 0
M  V30 34 H 11.150090 5.898522 -16.815243 0
M  V30 35 H 8.886119 5.195827 -16.139021 0
M  V30 36 H 6.390905 4.855208 -13.724910 0
M  V30 37 H 6.074141 4.987054 -11.446142 0
M  V30 38 H 6.651396 3.373377 -11.672531 0
M  V30 39 H 8.985875 4.121944 -11.004002 0
M  V30 40 H 7.796643 4.350820 -9.744048 0
M  V30 41 H 9.248107 5.742371 -8.776581 0
M  V30 42 H 10.485566 6.082399 -9.952884 0
M  V30 43 H 9.859681 8.498484 -9.930797 0
M  V30 44 H 8.486408 8.171383 -8.913424 0
M  V30 45 H 11.489943 9.662149 -8.723764 0
M  V30 46 H 12.690427 10.166183 -6.607259 0
M  V30 47 H 12.209448 8.842566 -4.555792 0
M  V30 48 H 10.563776 6.970696 -4.648487 0
M  V30 49 H 9.294534 6.537743 -6.710054 0
M  V30 50 H 9.829122 6.218208 -12.316008 0
M  V30 51 H 9.002274 7.712763 -11.984975 0
M  V30 52 H 8.086071 6.572373 -14.082113 0
M  V30 53 H 6.910106 6.929632 -12.865973 0
M  V30 54 H 7.644049 6.653023 -10.420056 0
M  V30 END ATOM
M  V30 BEGIN BOND
M  V30 1 1 2 1
M  V30 2 1 3 2
M  V30 3 2 4 3
M  V30 4 1 5 3
M  V30 5 1 6 5
M  V30 6 2 7 6
M  V30 7 1 8 7
M  V30 8 2 9 8
M  V30 9 1 10 9
M  V30 10 1 11 6
M  V30 11 2 11 10
M  V30 12 1 12 5
M  V30 13 1 13 12
M  V30 14 1 14 13
M  V30 15 1 15 14
M  V30 16 1 16 15
M  V30 17 1 17 16
M  V30 18 1 18 17
M  V30 19 2 19 18
M  V30 20 1 20 19
M  V30 21 2 21 20
M  V30 22 1 22 21
M  V30 23 1 23 18
M  V30 24 2 23 22
M  V30 25 1 24 15
M  V30 26 1 25 12
M  V30 27 1 25 24
M  V30 28 1 26 1
M  V30 29 1 27 1
M  V30 30 1 28 1
M  V30 31 1 29 2
M  V30 32 1 30 2
M  V30 33 1 31 7
M  V30 34 1 32 8
M  V30 35 1 33 9
M  V30 36 1 34 10
M  V30 37 1 35 11
M  V30 38 1 12 36 CFG=3
M  V30 39 1 37 13
M  V30 40 1 38 13
M  V30 41 1 39 14
M  V30 42 1 40 14
M  V30 43 1 41 16
M  V30 44 1 42 16
M  V30 45 1 43 17
M  V30 46 1 44 17
M  V30 47 1 45 19
M  V30 48 1 46 20
M  V30 49 1 47 21
M  V30 50 1 48 22
M  V30 51 1 49 23
M  V30 52 1 50 24
M  V30 53 1 51 24
M  V30 54 1 52 25
M  V30 55 1 53 25
M  V30 56 1 15 54 CFG=1
M  V30 END BOND
M  V30 END CTAB
M  END
>  <b_m_subgroup_collapsed>  (2708) 
0

>  <r_i_docking_score>  (2708) 
-4.5173218118123302

>  <s_m_subgroup_title>  (2708) 
glide-dock_SP_D22_pv

>  <s_m_subgroupid>  (2708) 
glide-dock_SP_D22_pv

>  <Molecule ChEMBL ID>  (2708) 
CHEMBL596

>  <Standard Type>  (2708) 
Ki

>  <Standard Value>  (2708) 
21000.0

>  <label>  (2708) 
0

$$$$
CHEMBL25074
     RDKit          3D

  0  0  0  0  0  0  0  0  0  0999 V3000
M  V30 BEGIN CTAB
M  V30 COUNTS 52 55 0 0 1
M  V30 BEGIN ATOM
M  V30 1 C 13.936815 2.298238 -19.552803 0
M  V30 2 N 12.607622 2.827780 -19.160580 0 CFG=2 CHG=1
M  V30 3 C 11.517676 1.900733 -19.565765 0
M  V30 4 C 10.153590 2.304247 -18.972771 0 CFG=1
M  V30 5 N 10.053205 1.897491 -17.571093 0
M  V30 6 C 8.902591 1.715920 -16.900518 0
M  V30 7 O 7.812370 2.042804 -17.374577 0
M  V30 8 C 8.997965 1.067254 -15.497516 0
M  V30 9 C 10.088038 -0.029939 -15.468174 0
M  V30 10 C 9.327826 2.160490 -14.463988 0
M  V30 11 C 7.646038 0.419957 -15.122542 0
M  V30 12 C 9.847351 3.802218 -19.207146 0
M  V30 13 C 11.040518 4.733827 -18.897505 0 CFG=1
M  V30 14 C 11.261076 4.995285 -17.402781 0
M  V30 15 C 10.322947 4.972653 -16.351091 0
M  V30 16 C 10.741754 5.278503 -15.043030 0
M  V30 17 C 12.086558 5.614832 -14.798501 0
M  V30 18 C 13.002076 5.659724 -15.835035 0
M  V30 19 N 14.334460 5.962697 -15.846771 0
M  V30 20 C 14.819111 5.855192 -17.132956 0
M  V30 21 Cl 16.476667 6.172529 -17.447628 0
M  V30 22 C 13.765372 5.486782 -17.920137 0
M  V30 23 C 12.597643 5.355185 -17.129187 0
M  V30 24 C 13.490602 5.218606 -19.373087 0
M  V30 25 C 12.321854 4.224101 -19.616816 0 CFG=1
M  V30 26 H 14.081879 2.355511 -20.632078 0
M  V30 27 H 14.043874 1.256039 -19.251221 0
M  V30 28 H 14.743278 2.843064 -19.062193 0
M  V30 29 H 11.452902 1.885599 -20.655302 0
M  V30 30 H 11.757338 0.880544 -19.262274 0
M  V30 31 H 9.395971 1.727376 -19.507191 0
M  V30 32 H 10.897614 1.621446 -17.094122 0
M  V30 33 H 11.090713 0.379769 -15.594538 0
M  V30 34 H 9.929216 -0.774294 -16.249750 0
M  V30 35 H 10.085656 -0.560440 -14.517162 0
M  V30 36 H 9.284047 1.773045 -13.447390 0
M  V30 37 H 8.629212 2.996734 -14.521360 0
M  V30 38 H 10.333915 2.552398 -14.609718 0
M  V30 39 H 7.697749 -0.075190 -14.152608 0
M  V30 40 H 7.344386 -0.331339 -15.853403 0
M  V30 41 H 6.846245 1.159350 -15.062034 0
M  V30 42 H 9.614656 3.917417 -20.266399 0
M  V30 43 H 8.941612 4.121121 -18.691061 0
M  V30 44 H 10.792594 5.711254 -19.314444 0
M  V30 45 H 9.286231 4.730925 -16.534910 0
M  V30 46 H 10.029983 5.261448 -14.229814 0
M  V30 47 H 12.403922 5.850374 -13.793134 0
M  V30 48 H 14.880551 6.205250 -15.027679 0
M  V30 49 H 13.232519 6.164531 -19.850771 0
M  V30 50 H 14.399649 4.903718 -19.884544 0
M  V30 51 H 12.140967 4.190218 -20.692644 0
M  V30 52 H 12.601441 2.860938 -18.150734 0
M  V30 END ATOM
M  V30 BEGIN BOND
M  V30 1 1 2 1
M  V30 2 1 3 2
M  V30 3 1 4 3
M  V30 4 1 5 4
M  V30 5 1 6 5
M  V30 6 2 7 6
M  V30 7 1 8 6
M  V30 8 1 9 8
M  V30 9 1 10 8
M  V30 10 1 11 8
M  V30 11 1 12 4
M  V30 12 1 13 12
M  V30 13 1 14 13
M  V30 14 1 15 14
M  V30 15 2 16 15
M  V30 16 1 17 16
M  V30 17 2 18 17
M  V30 18 1 19 18
M  V30 19 1 20 19
M  V30 20 1 21 20
M  V30 21 2 22 20
M  V30 22 2 23 14
M  V30 23 1 23 18
M  V30 24 1 23 22
M  V30 25 1 24 22
M  V30 26 1 25 2
M  V30 27 1 25 13
M  V30 28 1 25 24
M  V30 29 1 26 1
M  V30 30 1 27 1
M  V30 31 1 28 1
M  V30 32 1 29 3
M  V30 33 1 30 3
M  V30 34 1 4 31 CFG=3
M  V30 35 1 32 5
M  V30 36 1 33 9
M  V30 37 1 34 9
M  V30 38 1 35 9
M  V30 39 1 36 10
M  V30 40 1 37 10
M  V30 41 1 38 10
M  V30 42 1 39 11
M  V30 43 1 40 11
M  V30 44 1 41 11
M  V30 45 1 42 12
M  V30 46 1 43 12
M  V30 47 1 13 44 CFG=3
M  V30 48 1 45 15
M  V30 49 1 46 16
M  V30 50 1 47 17
M  V30 51 1 48 19
M  V30 52 1 49 24
M  V30 53 1 50 24
M  V30 54 1 25 51 CFG=3
M  V30 55 1 2 52 CFG=1
M  V30 END BOND
M  V30 END CTAB
M  END
>  <b_m_subgroup_collapsed>  (2709) 
0

>  <r_i_docking_score>  (2709) 
-4.5017232857560199

>  <s_m_subgroup_title>  (2709) 
glide-dock_SP_D22_pv

>  <s_m_subgroupid>  (2709) 
glide-dock_SP_D22_pv

>  <Molecule ChEMBL ID>  (2709) 
CHEMBL25074

>  <Standard Type>  (2709) 
Ki

>  <Standard Value>  (2709) 
3.6

>  <label>  (2709) 
1

$$$$
CHEMBL4225278
     RDKit          3D

  0  0  0  0  0  0  0  0  0  0999 V3000
M  V30 BEGIN CTAB
M  V30 COUNTS 53 54 0 0 1
M  V30 BEGIN ATOM
M  V30 1 C 11.094976 0.862537 -16.427795 0
M  V30 2 C 10.400341 1.337706 -15.146744 0
M  V30 3 C 10.403728 2.867106 -15.008301 0
M  V30 4 C 9.627326 3.346041 -13.775661 0
M  V30 5 C 9.563370 4.877619 -13.663746 0
M  V30 6 C 8.689787 5.347087 -12.494183 0
M  V30 7 C 9.366413 5.214239 -11.119308 0
M  V30 8 C 8.336015 5.314436 -9.988482 0
M  V30 9 C 8.918703 5.326193 -8.568885 0
M  V30 10 N 9.720792 6.540265 -8.273482 0 CFG=1 CHG=1
M  V30 11 C 8.959368 7.799088 -8.144727 0
M  V30 12 C 9.867066 8.761931 -7.365625 0
M  V30 13 C 10.958719 7.884882 -6.733237 0 CFG=1
M  V30 14 C 11.310126 8.175604 -5.272107 0
M  V30 15 C 11.318172 9.503763 -4.784263 0
M  V30 16 C 11.686351 9.772876 -3.449513 0
M  V30 17 C 12.086324 8.727406 -2.600469 0
M  V30 18 C 12.085651 7.406017 -3.075513 0
M  V30 19 O 12.474549 6.399415 -2.247477 0
M  V30 20 C 11.686164 7.128792 -4.397071 0
M  V30 21 C 10.474882 6.458552 -7.012511 0
M  V30 22 H 11.081816 -0.224431 -16.495499 0
M  V30 23 H 10.602432 1.255818 -17.317673 0
M  V30 24 H 12.135746 1.183278 -16.454424 0
M  V30 25 H 10.886086 0.889211 -14.280829 0
M  V30 26 H 9.373951 0.969508 -15.144712 0
M  V30 27 H 9.963744 3.310987 -15.900728 0
M  V30 28 H 11.430317 3.231073 -14.959108 0
M  V30 29 H 10.086123 2.927778 -12.880450 0
M  V30 30 H 8.612146 2.945870 -13.816699 0
M  V30 31 H 9.143342 5.276653 -14.587676 0
M  V30 32 H 10.567196 5.296943 -13.575798 0
M  V30 33 H 7.748035 4.797146 -12.507367 0
M  V30 34 H 8.419197 6.394063 -12.641524 0
M  V30 35 H 10.121941 5.993367 -11.020913 0
M  V30 36 H 9.885499 4.257383 -11.035234 0
M  V30 37 H 7.686266 4.444249 -10.077931 0
M  V30 38 H 7.686575 6.172185 -10.136399 0
M  V30 39 H 9.543867 4.441584 -8.442254 0
M  V30 40 H 8.107303 5.240236 -7.844099 0
M  V30 41 H 8.086149 7.609900 -7.523421 0
M  V30 42 H 8.617666 8.197184 -9.101797 0
M  V30 43 H 9.280337 9.289539 -6.616949 0
M  V30 44 H 10.317037 9.503757 -8.025340 0
M  V30 45 H 11.873090 8.037397 -7.308544 0
M  V30 46 H 11.051936 10.327135 -5.430967 0
M  V30 47 H 11.684845 10.782700 -3.066225 0
M  V30 48 H 12.381786 8.940454 -1.583450 0
M  V30 49 H 12.221882 5.537792 -2.546231 0
M  V30 50 H 11.706277 6.103952 -4.736002 0
M  V30 51 H 11.292116 5.741158 -7.063951 0
M  V30 52 H 9.782394 6.155343 -6.226295 0
M  V30 53 H 10.386992 6.661341 -9.022266 0
M  V30 END ATOM
M  V30 BEGIN BOND
M  V30 1 1 2 1
M  V30 2 1 3 2
M  V30 3 1 4 3
M  V30 4 1 5 4
M  V30 5 1 6 5
M  V30 6 1 7 6
M  V30 7 1 8 7
M  V30 8 1 9 8
M  V30 9 1 10 9
M  V30 10 1 11 10
M  V30 11 1 12 11
M  V30 12 1 13 12
M  V30 13 1 14 13
M  V30 14 2 15 14
M  V30 15 1 16 15
M  V30 16 2 17 16
M  V30 17 1 18 17
M  V30 18 1 19 18
M  V30 19 1 20 14
M  V30 20 2 20 18
M  V30 21 1 21 10
M  V30 22 1 21 13
M  V30 23 1 22 1
M  V30 24 1 23 1
M  V30 25 1 24 1
M  V30 26 1 25 2
M  V30 27 1 26 2
M  V30 28 1 27 3
M  V30 29 1 28 3
M  V30 30 1 29 4
M  V30 31 1 30 4
M  V30 32 1 31 5
M  V30 33 1 32 5
M  V30 34 1 33 6
M  V30 35 1 34 6
M  V30 36 1 35 7
M  V30 37 1 36 7
M  V30 38 1 37 8
M  V30 39 1 38 8
M  V30 40 1 39 9
M  V30 41 1 40 9
M  V30 42 1 41 11
M  V30 43 1 42 11
M  V30 44 1 43 12
M  V30 45 1 44 12
M  V30 46 1 13 45 CFG=3
M  V30 47 1 46 15
M  V30 48 1 47 16
M  V30 49 1 48 17
M  V30 50 1 49 19
M  V30 51 1 50 20
M  V30 52 1 51 21
M  V30 53 1 52 21
M  V30 54 1 10 53 CFG=3
M  V30 END BOND
M  V30 END CTAB
M  END
>  <b_m_subgroup_collapsed>  (2710) 
0

>  <r_i_docking_score>  (2710) 
-4.47844023155975

>  <s_m_subgroup_title>  (2710) 
glide-dock_SP_D22_pv

>  <s_m_subgroupid>  (2710) 
glide-dock_SP_D22_pv

>  <Molecule ChEMBL ID>  (2710) 
CHEMBL4225278

>  <Standard Type>  (2710) 
Ki

>  <Standard Value>  (2710) 
42.0

>  <label>  (2710) 
1

$$$$
CHEMBL593394
     RDKit          3D

  0  0  0  0  0  0  0  0  0  0999 V3000
M  V30 BEGIN CTAB
M  V30 COUNTS 45 47 0 0 1
M  V30 BEGIN ATOM
M  V30 1 C 11.499907 6.991159 -19.050009 0
M  V30 2 O 10.481686 6.128190 -18.563297 0
M  V30 3 C 10.567501 5.678501 -17.263008 0
M  V30 4 C 11.469340 6.179430 -16.299454 0
M  V30 5 C 11.488733 5.634815 -15.002538 0
M  V30 6 C 10.631788 4.570687 -14.635148 0
M  V30 7 C 9.694642 4.080439 -15.590203 0
M  V30 8 C 9.686827 4.649539 -16.884970 0
M  V30 9 C 8.759454 2.888766 -15.366529 0
M  V30 10 C 7.913674 2.856288 -14.081090 0
M  V30 11 N 7.076732 4.078153 -13.855302 0 CFG=1 CHG=1
M  V30 12 C 5.685697 3.811142 -14.246722 0
M  V30 13 C 7.107066 4.738045 -12.529797 0
M  V30 14 C 8.071221 5.917778 -12.480524 0
M  V30 15 C 7.578768 7.231343 -12.646952 0
M  V30 16 C 8.364082 8.335827 -12.246905 0
M  V30 17 C 9.681549 8.139548 -11.804398 0
M  V30 18 C 10.232262 6.849144 -11.816181 0
M  V30 19 C 9.428437 5.737365 -12.144086 0
M  V30 20 C 10.018191 4.354167 -12.056380 0
M  V30 21 C 10.886092 3.917295 -13.276895 0
M  V30 22 H 11.406966 7.070461 -20.132921 0
M  V30 23 H 12.498255 6.606335 -18.837801 0
M  V30 24 H 11.406120 7.998207 -18.646536 0
M  V30 25 H 12.154741 6.980075 -16.533274 0
M  V30 26 H 12.209739 6.019601 -14.295406 0
M  V30 27 H 9.007143 4.272019 -17.635126 0
M  V30 28 H 8.086608 2.794781 -16.218655 0
M  V30 29 H 9.375714 1.989220 -15.399110 0
M  V30 30 H 7.267145 1.977846 -14.127631 0
M  V30 31 H 8.581333 2.587243 -13.292628 0
M  V30 32 H 5.218955 3.102358 -13.561237 0
M  V30 33 H 5.686622 3.378611 -15.239460 0
M  V30 34 H 5.085251 4.721702 -14.260771 0
M  V30 35 H 6.126801 5.162558 -12.302217 0
M  V30 36 H 7.248028 4.026062 -11.717851 0
M  V30 37 H 6.544528 7.401447 -12.908499 0
M  V30 38 H 7.937979 9.328116 -12.251639 0
M  V30 39 H 10.268595 8.971548 -11.446630 0
M  V30 40 H 11.259362 6.716825 -11.512724 0
M  V30 41 H 10.486019 4.279938 -11.092663 0
M  V30 42 H 9.270758 3.623536 -11.818217 0
M  V30 43 H 10.882260 2.834728 -13.412885 0
M  V30 44 H 11.920811 4.172373 -13.047022 0
M  V30 45 H 7.434935 4.777643 -14.490866 0
M  V30 END ATOM
M  V30 BEGIN BOND
M  V30 1 1 2 1
M  V30 2 1 3 2
M  V30 3 1 4 3
M  V30 4 2 5 4
M  V30 5 1 6 5
M  V30 6 2 7 6
M  V30 7 2 8 3
M  V30 8 1 8 7
M  V30 9 1 9 7
M  V30 10 1 10 9
M  V30 11 1 11 10
M  V30 12 1 12 11
M  V30 13 1 13 11
M  V30 14 1 14 13
M  V30 15 2 15 14
M  V30 16 1 16 15
M  V30 17 2 17 16
M  V30 18 1 18 17
M  V30 19 1 19 14
M  V30 20 2 19 18
M  V30 21 1 20 19
M  V30 22 1 21 6
M  V30 23 1 21 20
M  V30 24 1 22 1
M  V30 25 1 23 1
M  V30 26 1 24 1
M  V30 27 1 25 4
M  V30 28 1 26 5
M  V30 29 1 27 8
M  V30 30 1 28 9
M  V30 31 1 29 9
M  V30 32 1 30 10
M  V30 33 1 31 10
M  V30 34 1 32 12
M  V30 35 1 33 12
M  V30 36 1 34 12
M  V30 37 1 35 13
M  V30 38 1 36 13
M  V30 39 1 37 15
M  V30 40 1 38 16
M  V30 41 1 39 17
M  V30 42 1 40 18
M  V30 43 1 41 20
M  V30 44 1 42 20
M  V30 45 1 43 21
M  V30 46 1 44 21
M  V30 47 1 11 45 CFG=3
M  V30 END BOND
M  V30 END CTAB
M  END
>  <b_m_subgroup_collapsed>  (2711) 
0

>  <r_i_docking_score>  (2711) 
-4.4544735532144699

>  <s_m_subgroup_title>  (2711) 
glide-dock_SP_D22_pv

>  <s_m_subgroupid>  (2711) 
glide-dock_SP_D22_pv

>  <Molecule ChEMBL ID>  (2711) 
CHEMBL593394

>  <Standard Type>  (2711) 
Ki

>  <Standard Value>  (2711) 
10000.0

>  <label>  (2711) 
0

$$$$
CHEMBL595720
     RDKit          3D

  0  0  0  0  0  0  0  0  0  0999 V3000
M  V30 BEGIN CTAB
M  V30 COUNTS 42 44 0 0 1
M  V30 BEGIN ATOM
M  V30 1 C 5.424716 4.332686 -13.993667 0
M  V30 2 N 6.785577 3.876965 -13.669202 0 CFG=2 CHG=1
M  V30 3 C 6.977036 2.439227 -14.047903 0
M  V30 4 C 8.417385 1.968549 -14.421424 0
M  V30 5 C 9.219354 2.907569 -15.329229 0
M  V30 6 C 8.884495 2.969736 -16.697384 0
M  V30 7 C 9.533439 3.856679 -17.574238 0
M  V30 8 O 9.148910 3.919244 -18.880371 0
M  V30 9 C 10.560536 4.687482 -17.091829 0
M  V30 10 C 10.957053 4.587007 -15.748069 0
M  V30 11 C 10.318604 3.685079 -14.867908 0
M  V30 12 C 10.933822 3.482291 -13.493231 0
M  V30 13 C 10.045856 3.854425 -12.295046 0
M  V30 14 C 9.477146 5.249878 -12.329509 0
M  V30 15 C 10.353540 6.353942 -12.247028 0
M  V30 16 C 9.842850 7.654298 -12.115160 0
M  V30 17 C 8.466215 7.871383 -12.246552 0
M  V30 18 C 7.600833 6.775853 -12.394808 0
M  V30 19 C 8.084105 5.456711 -12.343906 0
M  V30 20 C 7.090512 4.307408 -12.287640 0
M  V30 21 H 4.665642 3.775370 -13.446359 0
M  V30 22 H 5.296058 4.174866 -15.046881 0
M  V30 23 H 5.286824 5.396254 -13.803351 0
M  V30 24 H 6.511065 1.784537 -13.309296 0
M  V30 25 H 6.404261 2.269922 -14.958913 0
M  V30 26 H 8.986262 1.633963 -13.562928 0
M  V30 27 H 8.308183 1.037735 -14.980308 0
M  V30 28 H 8.084270 2.351602 -17.081255 0
M  V30 29 H 9.642390 4.545881 -19.387680 0
M  V30 30 H 11.068388 5.377942 -17.750187 0
M  V30 31 H 11.787837 5.186719 -15.402457 0
M  V30 32 H 11.223753 2.431471 -13.447042 0
M  V30 33 H 11.867023 4.045551 -13.441733 0
M  V30 34 H 9.285978 3.104783 -12.217444 0
M  V30 35 H 10.485444 3.757051 -11.318544 0
M  V30 36 H 11.421617 6.204700 -12.246390 0
M  V30 37 H 10.486137 8.495897 -11.933359 0
M  V30 38 H 8.061231 8.871752 -12.176521 0
M  V30 39 H 6.538201 6.968948 -12.420197 0
M  V30 40 H 6.197323 4.682649 -11.782659 0
M  V30 41 H 7.380271 3.502635 -11.625588 0
M  V30 42 H 7.421223 4.401584 -14.255204 0
M  V30 END ATOM
M  V30 BEGIN BOND
M  V30 1 1 2 1
M  V30 2 1 3 2
M  V30 3 1 4 3
M  V30 4 1 5 4
M  V30 5 1 6 5
M  V30 6 2 7 6
M  V30 7 1 8 7
M  V30 8 1 9 7
M  V30 9 2 10 9
M  V30 10 2 11 5
M  V30 11 1 11 10
M  V30 12 1 12 11
M  V30 13 1 13 12
M  V30 14 1 14 13
M  V30 15 2 15 14
M  V30 16 1 16 15
M  V30 17 2 17 16
M  V30 18 1 18 17
M  V30 19 1 19 14
M  V30 20 2 19 18
M  V30 21 1 20 2
M  V30 22 1 20 19
M  V30 23 1 21 1
M  V30 24 1 22 1
M  V30 25 1 23 1
M  V30 26 1 24 3
M  V30 27 1 25 3
M  V30 28 1 26 4
M  V30 29 1 27 4
M  V30 30 1 28 6
M  V30 31 1 29 8
M  V30 32 1 30 9
M  V30 33 1 31 10
M  V30 34 1 32 12
M  V30 35 1 33 12
M  V30 36 1 34 13
M  V30 37 1 35 13
M  V30 38 1 36 15
M  V30 39 1 37 16
M  V30 40 1 38 17
M  V30 41 1 39 18
M  V30 42 1 40 20
M  V30 43 1 41 20
M  V30 44 1 2 42 CFG=3
M  V30 END BOND
M  V30 END CTAB
M  END
>  <b_m_subgroup_collapsed>  (2712) 
0

>  <r_i_docking_score>  (2712) 
-4.4444694927432398

>  <s_m_subgroup_title>  (2712) 
glide-dock_SP_D22_pv

>  <s_m_subgroupid>  (2712) 
glide-dock_SP_D22_pv

>  <Molecule ChEMBL ID>  (2712) 
CHEMBL595720

>  <Standard Type>  (2712) 
Ki

>  <Standard Value>  (2712) 
10000.0

>  <label>  (2712) 
0

$$$$
CHEMBL2391541
     RDKit          3D

  0  0  0  0  0  0  0  0  0  0999 V3000
M  V30 BEGIN CTAB
M  V30 COUNTS 43 44 0 0 1
M  V30 BEGIN ATOM
M  V30 1 C 8.810549 3.790220 -8.247073 0
M  V30 2 C 9.438516 4.972301 -8.156534 0
M  V30 3 C 8.741375 6.315714 -8.045426 0
M  V30 4 N 8.886031 7.193374 -9.247873 0 CHG=1
M  V30 5 C 9.185350 8.608855 -8.899860 0
M  V30 6 C 10.617363 8.820274 -8.438169 0
M  V30 7 C 10.966969 9.197131 -7.199207 0
M  V30 8 C 9.711959 6.611704 -10.338102 0
M  V30 9 C 9.699589 7.369502 -11.662451 0
M  V30 10 C 10.489229 6.569381 -12.646947 0
M  V30 11 C 11.776016 6.810371 -13.050357 0
M  V30 12 N 12.166836 5.811024 -13.923326 0
M  V30 13 C 11.146981 4.903002 -14.120910 0
M  V30 14 C 11.054351 3.729264 -14.886015 0
M  V30 15 C 9.846562 3.007836 -14.897854 0
M  V30 16 C 8.734164 3.455073 -14.155837 0
M  V30 17 O 7.578897 2.707118 -14.246796 0
M  V30 18 C 6.397199 3.219175 -13.643847 0
M  V30 19 C 8.856292 4.629753 -13.370785 0
M  V30 20 C 10.060065 5.373196 -13.332695 0
M  V30 21 H 7.735961 3.725899 -8.257638 0
M  V30 22 H 9.357521 2.861049 -8.304318 0
M  V30 23 H 10.518886 4.989270 -8.162365 0
M  V30 24 H 7.686064 6.126333 -7.875190 0
M  V30 25 H 9.106369 6.810030 -7.144525 0
M  V30 26 H 8.986400 9.254501 -9.755373 0
M  V30 27 H 8.492406 8.934766 -8.122509 0
M  V30 28 H 11.394513 8.657713 -9.171458 0
M  V30 29 H 12.004769 9.335146 -6.931165 0
M  V30 30 H 10.223710 9.371923 -6.435369 0
M  V30 31 H 10.742634 6.492306 -10.000278 0
M  V30 32 H 9.326207 5.616166 -10.562869 0
M  V30 33 H 8.675998 7.507933 -12.014201 0
M  V30 34 H 10.133212 8.362963 -11.549975 0
M  V30 35 H 12.460258 7.599954 -12.775330 0
M  V30 36 H 13.094825 5.767188 -14.321082 0
M  V30 37 H 11.898754 3.386057 -15.465335 0
M  V30 38 H 9.764370 2.106075 -15.488207 0
M  V30 39 H 5.569914 2.539412 -13.844812 0
M  V30 40 H 6.492626 3.301394 -12.561294 0
M  V30 41 H 6.131212 4.192102 -14.057312 0
M  V30 42 H 8.028923 4.994430 -12.784007 0
M  V30 43 H 7.936466 7.253973 -9.629689 0
M  V30 END ATOM
M  V30 BEGIN BOND
M  V30 1 2 2 1
M  V30 2 1 3 2
M  V30 3 1 4 3
M  V30 4 1 5 4
M  V30 5 1 6 5
M  V30 6 2 7 6
M  V30 7 1 8 4
M  V30 8 1 9 8
M  V30 9 1 10 9
M  V30 10 2 11 10
M  V30 11 1 12 11
M  V30 12 1 13 12
M  V30 13 1 14 13
M  V30 14 2 15 14
M  V30 15 1 16 15
M  V30 16 1 17 16
M  V30 17 1 18 17
M  V30 18 2 19 16
M  V30 19 1 20 10
M  V30 20 2 20 13
M  V30 21 1 20 19
M  V30 22 1 21 1
M  V30 23 1 22 1
M  V30 24 1 23 2
M  V30 25 1 24 3
M  V30 26 1 25 3
M  V30 27 1 26 5
M  V30 28 1 27 5
M  V30 29 1 28 6
M  V30 30 1 29 7
M  V30 31 1 30 7
M  V30 32 1 31 8
M  V30 33 1 32 8
M  V30 34 1 33 9
M  V30 35 1 34 9
M  V30 36 1 35 11
M  V30 37 1 36 12
M  V30 38 1 37 14
M  V30 39 1 38 15
M  V30 40 1 39 18
M  V30 41 1 40 18
M  V30 42 1 41 18
M  V30 43 1 42 19
M  V30 44 1 43 4
M  V30 END BOND
M  V30 END CTAB
M  END
>  <b_m_subgroup_collapsed>  (2713) 
0

>  <r_i_docking_score>  (2713) 
-4.4376925344071303

>  <s_m_subgroup_title>  (2713) 
glide-dock_SP_D22_pv

>  <s_m_subgroupid>  (2713) 
glide-dock_SP_D22_pv

>  <Molecule ChEMBL ID>  (2713) 
CHEMBL2391541

>  <Standard Type>  (2713) 
Ki

>  <Standard Value>  (2713) 
10000.0

>  <label>  (2713) 
0

$$$$
CHEMBL212861
     RDKit          3D

  0  0  0  0  0  0  0  0  0  0999 V3000
M  V30 BEGIN CTAB
M  V30 COUNTS 51 53 0 0 1
M  V30 BEGIN ATOM
M  V30 1 C 14.112612 5.818489 -16.605263 0
M  V30 2 O 13.026204 5.077058 -16.080153 0
M  V30 3 N 12.436584 5.846797 -15.068385 0
M  V30 4 C 11.620236 5.192420 -14.340176 0
M  V30 5 C 11.328548 3.702792 -14.538999 0
M  V30 6 C 10.210479 3.477494 -15.573896 0
M  V30 7 N 9.677612 2.114330 -15.534654 0
M  V30 8 C 8.790103 1.941944 -14.373499 0
M  V30 9 C 8.251257 0.503375 -14.334900 0
M  V30 10 N 7.515816 0.225073 -15.560105 0
M  V30 11 C 6.176814 -0.216472 -15.557524 0
M  V30 12 C 5.641423 -0.926225 -16.657654 0
M  V30 13 C 4.298830 -1.346838 -16.618816 0
M  V30 14 C 3.525491 -1.026012 -15.491634 0
M  V30 15 C 4.133408 -0.314592 -14.445455 0
M  V30 16 N 5.426123 0.073181 -14.466946 0
M  V30 17 C 8.273436 0.472489 -16.782078 0
M  V30 18 C 8.885974 1.891235 -16.750874 0
M  V30 19 C 10.931856 5.837751 -13.187252 0
M  V30 20 C 11.503251 6.973284 -12.563237 0
M  V30 21 C 10.886034 7.570331 -11.446621 0
M  V30 22 C 9.679017 7.054060 -10.947831 0
M  V30 23 C 9.087478 5.938283 -11.567331 0
M  V30 24 C 7.792944 5.372582 -11.028588 0
M  V30 25 C 9.703933 5.344285 -12.683914 0
M  V30 26 H 14.610342 5.239806 -17.382908 0
M  V30 27 H 13.776316 6.758186 -17.046766 0
M  V30 28 H 14.850603 6.039575 -15.832022 0
M  V30 29 H 11.095356 3.258272 -13.572495 0
M  V30 30 H 12.226373 3.178317 -14.861185 0
M  V30 31 H 10.629625 3.682236 -16.561247 0
M  V30 32 H 9.396480 4.192057 -15.435787 0
M  V30 33 H 7.960703 2.651024 -14.410140 0
M  V30 34 H 9.324252 2.133828 -13.446409 0
M  V30 35 H 7.643137 0.350009 -13.446252 0
M  V30 36 H 9.081634 -0.199767 -14.263764 0
M  V30 37 H 6.242072 -1.184445 -17.515059 0
M  V30 38 H 3.867344 -1.901789 -17.438536 0
M  V30 39 H 2.487767 -1.316306 -15.442770 0
M  V30 40 H 3.566086 -0.050945 -13.564014 0
M  V30 41 H 9.057148 -0.280521 -16.873196 0
M  V30 42 H 7.646741 0.389617 -17.668673 0
M  V30 43 H 8.090978 2.635936 -16.817406 0
M  V30 44 H 9.523137 2.028980 -17.625788 0
M  V30 45 H 12.437247 7.383430 -12.921867 0
M  V30 46 H 11.340669 8.427275 -10.970764 0
M  V30 47 H 9.198871 7.514399 -10.094892 0
M  V30 48 H 7.772857 4.285422 -11.104441 0
M  V30 49 H 7.685792 5.639947 -9.977067 0
M  V30 50 H 6.939348 5.774872 -11.575422 0
M  V30 51 H 9.217636 4.497325 -13.138876 0
M  V30 END ATOM
M  V30 BEGIN BOND
M  V30 1 1 2 1
M  V30 2 1 3 2
M  V30 3 2 4 3
M  V30 4 1 5 4
M  V30 5 1 6 5
M  V30 6 1 7 6
M  V30 7 1 8 7
M  V30 8 1 9 8
M  V30 9 1 10 9
M  V30 10 1 11 10
M  V30 11 2 12 11
M  V30 12 1 13 12
M  V30 13 2 14 13
M  V30 14 1 15 14
M  V30 15 1 16 11
M  V30 16 2 16 15
M  V30 17 1 17 10
M  V30 18 1 18 7
M  V30 19 1 18 17
M  V30 20 1 19 4
M  V30 21 2 20 19
M  V30 22 1 21 20
M  V30 23 2 22 21
M  V30 24 1 23 22
M  V30 25 1 24 23
M  V30 26 1 25 19
M  V30 27 2 25 23
M  V30 28 1 26 1
M  V30 29 1 27 1
M  V30 30 1 28 1
M  V30 31 1 29 5
M  V30 32 1 30 5
M  V30 33 1 31 6
M  V30 34 1 32 6
M  V30 35 1 33 8
M  V30 36 1 34 8
M  V30 37 1 35 9
M  V30 38 1 36 9
M  V30 39 1 37 12
M  V30 40 1 38 13
M  V30 41 1 39 14
M  V30 42 1 40 15
M  V30 43 1 41 17
M  V30 44 1 42 17
M  V30 45 1 43 18
M  V30 46 1 44 18
M  V30 47 1 45 20
M  V30 48 1 46 21
M  V30 49 1 47 22
M  V30 50 1 48 24
M  V30 51 1 49 24
M  V30 52 1 50 24
M  V30 53 1 51 25
M  V30 END BOND
M  V30 END CTAB
M  END
>  <b_m_subgroup_collapsed>  (2714) 
0

>  <r_i_docking_score>  (2714) 
-4.4342016790042198

>  <s_m_subgroup_title>  (2714) 
glide-dock_SP_D22_pv

>  <s_m_subgroupid>  (2714) 
glide-dock_SP_D22_pv

>  <Molecule ChEMBL ID>  (2714) 
CHEMBL212861

>  <Standard Type>  (2714) 
Ki

>  <Standard Value>  (2714) 
68.4

>  <label>  (2714) 
1

$$$$
CHEMBL2111582
     RDKit          3D

  0  0  0  0  0  0  0  0  0  0999 V3000
M  V30 BEGIN CTAB
M  V30 COUNTS 54 55 0 0 1
M  V30 BEGIN ATOM
M  V30 1 C 9.265376 6.618720 -18.968590 0
M  V30 2 C 9.547617 5.283369 -18.272100 0
M  V30 3 C 10.686324 5.389931 -17.241146 0
M  V30 4 N 11.007129 4.091399 -16.561708 0 CFG=1 CHG=1
M  V30 5 C 12.438227 3.970072 -16.143679 0
M  V30 6 C 12.882101 5.089525 -15.180362 0
M  V30 7 C 13.377700 3.846538 -17.360596 0
M  V30 8 C 10.028044 3.597247 -15.526006 0 CFG=2
M  V30 9 C 9.030129 2.587207 -16.117973 0
M  V30 10 O 8.170432 2.035273 -15.131523 0
M  V30 11 C 7.572448 2.905597 -14.246869 0
M  V30 12 C 6.380528 2.476957 -13.633554 0
M  V30 13 C 5.717910 3.297766 -12.705317 0
M  V30 14 C 6.252133 4.554503 -12.373433 0
M  V30 15 C 7.445411 5.007318 -12.973577 0
M  V30 16 C 7.918367 6.395703 -12.646888 0
M  V30 17 O 7.286547 7.372512 -13.046479 0
M  V30 18 N 9.076218 6.473060 -11.971876 0
M  V30 19 C 9.821736 7.707463 -11.712594 0
M  V30 20 C 11.287805 7.372250 -11.418034 0
M  V30 21 C 9.206408 8.517945 -10.564103 0
M  V30 22 C 8.105738 4.182724 -13.931436 0
M  V30 23 C 9.284765 4.698879 -14.746159 0
M  V30 24 H 8.468278 6.512385 -19.704676 0
M  V30 25 H 8.945445 7.372314 -18.247366 0
M  V30 26 H 10.148648 6.996998 -19.483639 0
M  V30 27 H 9.800089 4.534138 -19.023560 0
M  V30 28 H 8.620635 4.958450 -17.810743 0
M  V30 29 H 10.494000 6.184494 -16.522402 0
M  V30 30 H 11.555485 5.742240 -17.791639 0
M  V30 31 H 12.545645 3.022489 -15.615121 0
M  V30 32 H 13.929404 4.972198 -14.904634 0
M  V30 33 H 12.786657 6.081177 -15.624645 0
M  V30 34 H 12.303444 5.077482 -14.256182 0
M  V30 35 H 14.390710 3.597946 -17.046898 0
M  V30 36 H 13.047684 3.059303 -18.040756 0
M  V30 37 H 13.459763 4.771582 -17.932119 0
M  V30 38 H 10.574546 3.024736 -14.775388 0
M  V30 39 H 8.415606 3.014041 -16.905558 0
M  V30 40 H 9.572902 1.760312 -16.576971 0
M  V30 41 H 5.972090 1.507740 -13.875525 0
M  V30 42 H 4.805505 2.954967 -12.246596 0
M  V30 43 H 5.734696 5.183259 -11.659963 0
M  V30 44 H 9.485478 5.608658 -11.650920 0
M  V30 45 H 9.793319 8.318744 -12.615808 0
M  V30 46 H 11.884056 8.277734 -11.306557 0
M  V30 47 H 11.373120 6.813543 -10.486228 0
M  V30 48 H 11.733008 6.784725 -12.221900 0
M  V30 49 H 9.863056 9.327991 -10.246737 0
M  V30 50 H 8.265390 8.972792 -10.874572 0
M  V30 51 H 9.008615 7.893071 -9.691213 0
M  V30 52 H 8.817410 5.396273 -15.431395 0
M  V30 53 H 9.986984 5.256026 -14.129998 0
M  V30 54 H 10.943206 3.402749 -17.298763 0
M  V30 END ATOM
M  V30 BEGIN BOND
M  V30 1 1 2 1
M  V30 2 1 3 2
M  V30 3 1 4 3
M  V30 4 1 5 4
M  V30 5 1 6 5
M  V30 6 1 7 5
M  V30 7 1 8 4
M  V30 8 1 9 8
M  V30 9 1 10 9
M  V30 10 1 11 10
M  V30 11 1 12 11
M  V30 12 2 13 12
M  V30 13 1 14 13
M  V30 14 2 15 14
M  V30 15 1 16 15
M  V30 16 2 17 16
M  V30 17 1 18 16
M  V30 18 1 19 18
M  V30 19 1 20 19
M  V30 20 1 21 19
M  V30 21 2 22 11
M  V30 22 1 22 15
M  V30 23 1 23 8
M  V30 24 1 23 22
M  V30 25 1 24 1
M  V30 26 1 25 1
M  V30 27 1 26 1
M  V30 28 1 27 2
M  V30 29 1 28 2
M  V30 30 1 29 3
M  V30 31 1 30 3
M  V30 32 1 31 5
M  V30 33 1 32 6
M  V30 34 1 33 6
M  V30 35 1 34 6
M  V30 36 1 35 7
M  V30 37 1 36 7
M  V30 38 1 37 7
M  V30 39 1 8 38 CFG=1
M  V30 40 1 39 9
M  V30 41 1 40 9
M  V30 42 1 41 12
M  V30 43 1 42 13
M  V30 44 1 43 14
M  V30 45 1 44 18
M  V30 46 1 45 19
M  V30 47 1 46 20
M  V30 48 1 47 20
M  V30 49 1 48 20
M  V30 50 1 49 21
M  V30 51 1 50 21
M  V30 52 1 51 21
M  V30 53 1 52 23
M  V30 54 1 53 23
M  V30 55 1 4 54 CFG=3
M  V30 END BOND
M  V30 END CTAB
M  END
>  <b_m_subgroup_collapsed>  (2715) 
0

>  <r_i_docking_score>  (2715) 
-4.3904920952950102

>  <s_m_subgroup_title>  (2715) 
glide-dock_SP_D22_pv

>  <s_m_subgroupid>  (2715) 
glide-dock_SP_D22_pv

>  <Molecule ChEMBL ID>  (2715) 
CHEMBL2111582

>  <Standard Type>  (2715) 
Ki

>  <Standard Value>  (2715) 
50000.0

>  <label>  (2715) 
0

$$$$
CHEMBL382642
     RDKit          3D

  0  0  0  0  0  0  0  0  0  0999 V3000
M  V30 BEGIN CTAB
M  V30 COUNTS 46 50 0 0 1
M  V30 BEGIN ATOM
M  V30 1 C 12.486035 6.227492 -14.752730 0
M  V30 2 C 11.397781 5.395622 -15.064775 0
M  V30 3 C 10.266569 5.372331 -14.227825 0
M  V30 4 C 10.207382 6.172339 -13.046865 0
M  V30 5 C 8.948042 6.144841 -12.142966 0 CFG=1
M  V30 6 C 7.771995 6.949436 -12.788251 0
M  V30 7 C 6.314142 6.434487 -12.646866 0
M  V30 8 C 6.229973 4.918764 -12.605399 0
M  V30 9 C 7.251499 4.423567 -11.598319 0
M  V30 10 N 8.615830 4.694758 -12.084952 0 CFG=2 CHG=1
M  V30 11 C 9.686022 3.961521 -11.373263 0
M  V30 12 C 9.686021 4.319956 -9.862206 0
M  V30 13 C 9.686020 5.789278 -9.716381 0
M  V30 14 C 9.286130 6.610205 -10.732768 0
M  V30 15 N 9.286025 7.910390 -10.252401 0
M  V30 16 C 9.627727 7.924530 -8.910590 0
M  V30 17 C 9.622439 8.928003 -7.936516 0
M  V30 18 C 10.117725 8.669153 -6.646553 0
M  V30 19 C 10.602328 7.387198 -6.335198 0
M  V30 20 C 10.532001 6.363840 -7.299050 0
M  V30 21 C 10.010503 6.599086 -8.589059 0
M  V30 22 C 11.328384 6.983220 -12.741234 0
M  V30 23 C 12.445698 7.024633 -13.596131 0
M  V30 24 H 13.353212 6.254117 -15.396558 0
M  V30 25 H 11.424610 4.787018 -15.956908 0
M  V30 26 H 9.436603 4.750508 -14.528244 0
M  V30 27 H 7.841985 8.017830 -12.582708 0
M  V30 28 H 7.945465 6.863920 -13.846864 0
M  V30 29 H 5.769110 6.878738 -11.846865 0
M  V30 30 H 5.686094 6.807372 -13.446862 0
M  V30 31 H 5.229664 4.603227 -12.310927 0
M  V30 32 H 6.419869 4.491520 -13.591059 0
M  V30 33 H 7.124915 4.930982 -10.646996 0
M  V30 34 H 7.079675 3.372325 -11.418373 0
M  V30 35 H 9.686021 2.906450 -11.561901 0
M  V30 36 H 10.637149 4.172329 -11.843204 0
M  V30 37 H 8.786690 3.951417 -9.369792 0
M  V30 38 H 10.486023 3.840881 -9.314250 0
M  V30 39 H 8.910868 8.687639 -10.775254 0
M  V30 40 H 9.181339 9.864954 -8.183852 0
M  V30 41 H 10.115527 9.445711 -5.896007 0
M  V30 42 H 10.987926 7.175569 -5.348451 0
M  V30 43 H 10.864218 5.372363 -7.046922 0
M  V30 44 H 11.349165 7.612130 -11.864680 0
M  V30 45 H 13.285752 7.660272 -13.355348 0
M  V30 46 H 8.637666 4.366031 -13.037174 0
M  V30 END ATOM
M  V30 BEGIN BOND
M  V30 1 2 2 1
M  V30 2 1 3 2
M  V30 3 2 4 3
M  V30 4 1 5 4 CFG=3
M  V30 5 1 6 5
M  V30 6 1 7 6
M  V30 7 1 8 7
M  V30 8 1 9 8
M  V30 9 1 10 5
M  V30 10 1 10 9
M  V30 11 1 11 10
M  V30 12 1 12 11
M  V30 13 1 13 12
M  V30 14 1 14 5
M  V30 15 2 14 13
M  V30 16 1 15 14
M  V30 17 1 16 15
M  V30 18 2 17 16
M  V30 19 1 18 17
M  V30 20 2 19 18
M  V30 21 1 20 19
M  V30 22 1 21 13
M  V30 23 1 21 16
M  V30 24 2 21 20
M  V30 25 1 22 4
M  V30 26 1 23 1
M  V30 27 2 23 22
M  V30 28 1 24 1
M  V30 29 1 25 2
M  V30 30 1 26 3
M  V30 31 1 27 6
M  V30 32 1 28 6
M  V30 33 1 29 7
M  V30 34 1 30 7
M  V30 35 1 31 8
M  V30 36 1 32 8
M  V30 37 1 33 9
M  V30 38 1 34 9
M  V30 39 1 35 11
M  V30 40 1 36 11
M  V30 41 1 37 12
M  V30 42 1 38 12
M  V30 43 1 39 15
M  V30 44 1 40 17
M  V30 45 1 41 18
M  V30 46 1 42 19
M  V30 47 1 43 20
M  V30 48 1 44 22
M  V30 49 1 45 23
M  V30 50 1 10 46 CFG=3
M  V30 END BOND
M  V30 END CTAB
M  END
>  <b_m_subgroup_collapsed>  (2716) 
0

>  <r_i_docking_score>  (2716) 
-4.3898291664997799

>  <s_m_subgroup_title>  (2716) 
glide-dock_SP_D22_pv

>  <s_m_subgroupid>  (2716) 
glide-dock_SP_D22_pv

>  <Molecule ChEMBL ID>  (2716) 
CHEMBL382642

>  <Standard Type>  (2716) 
Ki

>  <Standard Value>  (2716) 
10000.0

>  <label>  (2716) 
0

$$$$
CHEMBL423198
     RDKit          3D

  0  0  0  0  0  0  0  0  0  0999 V3000
M  V30 BEGIN CTAB
M  V30 COUNTS 72 76 0 0 1
M  V30 BEGIN ATOM
M  V30 1 C 15.006875 5.078182 -17.343657 0
M  V30 2 O 13.866844 5.163096 -16.502989 0
M  V30 3 C 12.722700 4.477282 -16.853291 0
M  V30 4 C 12.656478 3.677503 -18.024824 0
M  V30 5 C 11.467170 3.030512 -18.392096 0
M  V30 6 C 10.332928 3.153017 -17.578424 0
M  V30 7 S 8.784092 2.416231 -18.112459 0
M  V30 8 O 7.790808 2.572298 -17.043604 0
M  V30 9 O 8.488138 2.918293 -19.463184 0
M  V30 10 N 9.088142 0.719461 -18.237211 0
M  V30 11 C 9.758370 0.141828 -19.413574 0
M  V30 12 C 11.098762 -0.498531 -19.020868 0
M  V30 13 O 10.890726 -1.404439 -17.947134 0
M  V30 14 C 10.466300 -0.719220 -16.778484 0
M  V30 15 C 9.078602 -0.124353 -17.031895 0
M  V30 16 C 10.389248 3.925532 -16.400661 0
M  V30 17 C 11.575253 4.605763 -16.019741 0
M  V30 18 C 11.581038 5.466985 -14.819458 0
M  V30 19 C 12.495811 6.299082 -14.238363 0
M  V30 20 C 11.926212 6.945116 -13.102381 0
M  V30 21 C 10.618199 6.572069 -13.046849 0
M  V30 22 C 9.426112 7.197090 -12.369049 0
M  V30 23 N 9.180503 6.781381 -10.977098 0 CFG=2 CHG=1
M  V30 24 C 10.196494 7.382889 -10.071354 0
M  V30 25 C 9.796097 7.381363 -8.592187 0
M  V30 26 C 10.077488 6.030942 -7.934715 0
M  V30 27 C 9.045004 4.941560 -8.246544 0
M  V30 28 C 8.216949 5.061306 -9.510052 0
M  V30 29 C 8.948854 5.314905 -10.820490 0 CFG=1
M  V30 30 C 8.099469 4.714216 -11.952125 0
M  V30 31 C 6.734299 5.053973 -12.086752 0
M  V30 32 C 5.934052 4.422126 -13.053576 0
M  V30 33 C 6.497445 3.469654 -13.918698 0
M  V30 34 C 7.868002 3.170101 -13.846718 0
M  V30 35 C 8.655788 3.772340 -12.845442 0
M  V30 36 N 10.455519 5.633292 -14.048521 0
M  V30 37 H 15.821882 5.649545 -16.899393 0
M  V30 38 H 15.344119 4.047105 -17.446768 0
M  V30 39 H 14.806427 5.497128 -18.331064 0
M  V30 40 H 13.502112 3.565785 -18.685514 0
M  V30 41 H 11.422051 2.471047 -19.313099 0
M  V30 42 H 9.102554 -0.618381 -19.839211 0
M  V30 43 H 9.901470 0.896626 -20.186382 0
M  V30 44 H 11.517705 -1.027624 -19.875565 0
M  V30 45 H 11.833829 0.254881 -18.737009 0
M  V30 46 H 10.416188 -1.426184 -15.951187 0
M  V30 47 H 11.183485 0.054562 -16.496359 0
M  V30 48 H 8.747302 0.440474 -16.160944 0
M  V30 49 H 8.353207 -0.926008 -17.177156 0
M  V30 50 H 9.489989 4.027953 -15.816831 0
M  V30 51 H 13.502145 6.462558 -14.590739 0
M  V30 52 H 12.396954 7.696477 -12.485555 0
M  V30 53 H 8.525825 7.021350 -12.959890 0
M  V30 54 H 9.533000 8.283099 -12.397405 0
M  V30 55 H 10.333858 8.428356 -10.351654 0
M  V30 56 H 11.168511 6.908915 -10.214079 0
M  V30 57 H 8.759549 7.690277 -8.450346 0
M  V30 58 H 10.400804 8.129587 -8.078951 0
M  V30 59 H 10.121095 6.163564 -6.851700 0
M  V30 60 H 11.070762 5.690728 -8.216823 0
M  V30 61 H 8.309297 4.967691 -7.446894 0
M  V30 62 H 9.512164 3.959072 -8.247327 0
M  V30 63 H 7.454648 5.820271 -9.369949 0
M  V30 64 H 7.692422 4.110662 -9.589134 0
M  V30 65 H 9.908587 4.796554 -10.810479 0
M  V30 66 H 6.276890 5.771131 -11.421324 0
M  V30 67 H 4.885095 4.660846 -13.129726 0
M  V30 68 H 5.878746 2.974247 -14.646805 0
M  V30 69 H 8.298521 2.431720 -14.507190 0
M  V30 70 H 9.689690 3.471165 -12.742377 0
M  V30 71 H 9.567279 5.200018 -14.264476 0
M  V30 72 H 8.293702 7.211508 -10.720606 0
M  V30 END ATOM
M  V30 BEGIN BOND
M  V30 1 1 2 1
M  V30 2 1 3 2
M  V30 3 1 4 3
M  V30 4 2 5 4
M  V30 5 1 6 5
M  V30 6 1 7 6
M  V30 7 2 8 7
M  V30 8 2 9 7
M  V30 9 1 10 7
M  V30 10 1 11 10
M  V30 11 1 12 11
M  V30 12 1 13 12
M  V30 13 1 14 13
M  V30 14 1 15 10
M  V30 15 1 15 14
M  V30 16 2 16 6
M  V30 17 2 17 3
M  V30 18 1 17 16
M  V30 19 1 18 17
M  V30 20 2 19 18
M  V30 21 1 20 19
M  V30 22 2 21 20
M  V30 23 1 22 21
M  V30 24 1 23 22
M  V30 25 1 24 23
M  V30 26 1 25 24
M  V30 27 1 26 25
M  V30 28 1 27 26
M  V30 29 1 28 27
M  V30 30 1 29 23
M  V30 31 1 29 28
M  V30 32 1 30 29
M  V30 33 2 31 30
M  V30 34 1 32 31
M  V30 35 2 33 32
M  V30 36 1 34 33
M  V30 37 1 35 30
M  V30 38 2 35 34
M  V30 39 1 36 18
M  V30 40 1 36 21
M  V30 41 1 37 1
M  V30 42 1 38 1
M  V30 43 1 39 1
M  V30 44 1 40 4
M  V30 45 1 41 5
M  V30 46 1 42 11
M  V30 47 1 43 11
M  V30 48 1 44 12
M  V30 49 1 45 12
M  V30 50 1 46 14
M  V30 51 1 47 14
M  V30 52 1 48 15
M  V30 53 1 49 15
M  V30 54 1 50 16
M  V30 55 1 51 19
M  V30 56 1 52 20
M  V30 57 1 53 22
M  V30 58 1 54 22
M  V30 59 1 55 24
M  V30 60 1 56 24
M  V30 61 1 57 25
M  V30 62 1 58 25
M  V30 63 1 59 26
M  V30 64 1 60 26
M  V30 65 1 61 27
M  V30 66 1 62 27
M  V30 67 1 63 28
M  V30 68 1 64 28
M  V30 69 1 29 65 CFG=1
M  V30 70 1 66 31
M  V30 71 1 67 32
M  V30 72 1 68 33
M  V30 73 1 69 34
M  V30 74 1 70 35
M  V30 75 1 71 36
M  V30 76 1 23 72 CFG=1
M  V30 END BOND
M  V30 END CTAB
M  END
>  <b_m_subgroup_collapsed>  (2717) 
0

>  <r_i_docking_score>  (2717) 
-4.3784213398916698

>  <s_m_subgroup_title>  (2717) 
glide-dock_SP_D22_pv

>  <s_m_subgroupid>  (2717) 
glide-dock_SP_D22_pv

>  <Molecule ChEMBL ID>  (2717) 
CHEMBL423198

>  <Standard Type>  (2717) 
Ki

>  <Standard Value>  (2717) 
100.0

>  <label>  (2717) 
1

$$$$
CHEMBL228333
     RDKit          3D

  0  0  0  0  0  0  0  0  0  0999 V3000
M  V30 BEGIN CTAB
M  V30 COUNTS 70 75 0 0 1
M  V30 BEGIN ATOM
M  V30 1 O 10.091146 1.760003 -18.959381 0
M  V30 2 S 9.964730 0.310110 -18.753460 0
M  V30 3 O 10.658657 -0.627518 -19.647066 0
M  V30 4 N 10.480461 -0.080680 -17.137634 0
M  V30 5 C 10.225671 0.727969 -15.930322 0 CFG=1
M  V30 6 C 10.939882 2.097358 -15.978306 0
M  V30 7 C 10.668237 2.921750 -14.711668 0
M  V30 8 C 9.145117 3.085561 -14.482905 0 CFG=2
M  V30 9 N 8.772500 3.989477 -13.347792 0 CFG=2 CHG=1
M  V30 10 C 8.500092 5.374218 -13.801246 0
M  V30 11 C 8.098147 6.339791 -12.657465 0
M  V30 12 C 8.949978 6.238453 -11.378110 0 CFG=2
M  V30 13 C 10.288524 6.996223 -11.349484 0
M  V30 14 C 11.189561 6.972422 -12.443995 0
M  V30 15 C 12.469412 7.541269 -12.346525 0
M  V30 16 C 12.850437 8.172645 -11.155805 0
M  V30 17 C 11.967715 8.230542 -10.066247 0
M  V30 18 C 10.681278 7.645432 -10.149741 0
M  V30 19 O 9.791728 7.657671 -9.098280 0
M  V30 20 C 10.232367 8.154977 -7.847342 0
M  V30 21 C 9.488684 7.504427 -6.712681 0
M  V30 22 C 10.928773 7.128356 -6.986479 0
M  V30 23 C 9.122562 4.768837 -11.006536 0
M  V30 24 C 9.686006 3.966434 -12.182201 0
M  V30 25 C 8.481786 1.701251 -14.357848 0
M  V30 26 C 8.722411 0.872250 -15.630016 0
M  V30 27 C 8.226558 -0.124013 -18.783812 0
M  V30 28 C 7.256175 0.868553 -19.075722 0
M  V30 29 C 5.879769 0.544525 -19.073984 0
M  V30 30 C 5.521808 -0.783218 -18.788357 0
M  V30 31 C 6.471099 -1.751284 -18.528540 0
M  V30 32 C 7.845346 -1.457456 -18.520437 0
M  V30 33 O 5.857251 -2.940284 -18.298164 0
M  V30 34 C 4.478044 -2.685869 -18.397013 0
M  V30 35 O 4.283106 -1.332124 -18.718157 0
M  V30 36 H 10.474099 -1.084317 -16.965305 0
M  V30 37 H 10.666241 0.174222 -15.099616 0
M  V30 38 H 10.607732 2.687396 -16.828304 0
M  V30 39 H 12.013456 1.954588 -16.107113 0
M  V30 40 H 11.148411 3.896352 -14.803766 0
M  V30 41 H 11.135711 2.417375 -13.864258 0
M  V30 42 H 8.732729 3.523093 -15.394551 0
M  V30 43 H 7.686344 5.331060 -14.516036 0
M  V30 44 H 9.339401 5.763484 -14.370335 0
M  V30 45 H 7.069443 6.096252 -12.380869 0
M  V30 46 H 8.062831 7.370276 -13.010488 0
M  V30 47 H 8.325448 6.673152 -10.601139 0
M  V30 48 H 10.955649 6.473692 -13.362982 0
M  V30 49 H 13.157456 7.488646 -13.178550 0
M  V30 50 H 13.843382 8.586096 -11.068680 0
M  V30 51 H 12.309509 8.725791 -9.169803 0
M  V30 52 H 10.458642 9.218436 -7.789747 0
M  V30 53 H 9.285148 8.124056 -5.847072 0
M  V30 54 H 8.712899 6.783796 -6.966234 0
M  V30 55 H 11.118878 6.147055 -7.415623 0
M  V30 56 H 11.682292 7.489007 -6.290255 0
M  V30 57 H 9.763430 4.673726 -10.126273 0
M  V30 58 H 8.153152 4.355368 -10.722911 0
M  V30 59 H 9.817017 2.951423 -11.848467 0
M  V30 60 H 10.673621 4.328479 -12.457385 0
M  V30 61 H 8.885583 1.168732 -13.498500 0
M  V30 62 H 7.408632 1.807525 -14.192184 0
M  V30 63 H 8.226916 1.372756 -16.459791 0
M  V30 64 H 8.260437 -0.110843 -15.526465 0
M  V30 65 H 7.571019 1.877523 -19.297083 0
M  V30 66 H 5.123728 1.286109 -19.284105 0
M  V30 67 H 8.577024 -2.222943 -18.312956 0
M  V30 68 H 4.041299 -3.313651 -19.173544 0
M  V30 69 H 3.997330 -2.911129 -17.446289 0
M  V30 70 H 7.885436 3.649595 -13.004373 0
M  V30 END ATOM
M  V30 BEGIN BOND
M  V30 1 2 2 1
M  V30 2 2 3 2
M  V30 3 1 4 2
M  V30 4 1 5 4
M  V30 5 1 6 5
M  V30 6 1 7 6
M  V30 7 1 8 7
M  V30 8 1 9 8
M  V30 9 1 10 9
M  V30 10 1 11 10
M  V30 11 1 12 11
M  V30 12 1 13 12
M  V30 13 2 14 13
M  V30 14 1 15 14
M  V30 15 2 16 15
M  V30 16 1 17 16
M  V30 17 1 18 13
M  V30 18 2 18 17
M  V30 19 1 19 18
M  V30 20 1 20 19
M  V30 21 1 21 20
M  V30 22 1 22 20
M  V30 23 1 22 21
M  V30 24 1 23 12
M  V30 25 1 24 9
M  V30 26 1 24 23
M  V30 27 1 25 8
M  V30 28 1 26 5
M  V30 29 1 26 25
M  V30 30 1 27 2
M  V30 31 1 28 27
M  V30 32 2 29 28
M  V30 33 1 30 29
M  V30 34 2 31 30
M  V30 35 2 32 27
M  V30 36 1 32 31
M  V30 37 1 33 31
M  V30 38 1 34 33
M  V30 39 1 35 30
M  V30 40 1 35 34
M  V30 41 1 36 4
M  V30 42 1 5 37 CFG=1
M  V30 43 1 38 6
M  V30 44 1 39 6
M  V30 45 1 40 7
M  V30 46 1 41 7
M  V30 47 1 8 42 CFG=3
M  V30 48 1 43 10
M  V30 49 1 44 10
M  V30 50 1 45 11
M  V30 51 1 46 11
M  V30 52 1 12 47 CFG=1
M  V30 53 1 48 14
M  V30 54 1 49 15
M  V30 55 1 50 16
M  V30 56 1 51 17
M  V30 57 1 52 20
M  V30 58 1 53 21
M  V30 59 1 54 21
M  V30 60 1 55 22
M  V30 61 1 56 22
M  V30 62 1 57 23
M  V30 63 1 58 23
M  V30 64 1 59 24
M  V30 65 1 60 24
M  V30 66 1 61 25
M  V30 67 1 62 25
M  V30 68 1 63 26
M  V30 69 1 64 26
M  V30 70 1 65 28
M  V30 71 1 66 29
M  V30 72 1 67 32
M  V30 73 1 68 34
M  V30 74 1 69 34
M  V30 75 1 9 70 CFG=1
M  V30 END BOND
M  V30 END CTAB
M  END
>  <b_m_subgroup_collapsed>  (2718) 
0

>  <r_i_docking_score>  (2718) 
-4.3568022905532402

>  <s_m_subgroup_title>  (2718) 
glide-dock_SP_D22_pv

>  <s_m_subgroupid>  (2718) 
glide-dock_SP_D22_pv

>  <Molecule ChEMBL ID>  (2718) 
CHEMBL228333

>  <Standard Type>  (2718) 
Ki

>  <Standard Value>  (2718) 
71.0

>  <label>  (2718) 
1

$$$$
CHEMBL104160
     RDKit          3D

  0  0  0  0  0  0  0  0  0  0999 V3000
M  V30 BEGIN CTAB
M  V30 COUNTS 63 66 0 0 1
M  V30 BEGIN ATOM
M  V30 1 C 6.879326 -0.344214 -13.743882 0
M  V30 2 C 7.257258 0.910161 -14.549100 0 CFG=2
M  V30 3 C 8.765197 0.938423 -14.856704 0
M  V30 4 C 9.299891 2.299435 -15.362411 0
M  V30 5 C 8.697188 2.634132 -16.744390 0
M  V30 6 C 10.832898 2.118908 -15.539667 0
M  V30 7 N 8.923139 3.344931 -14.365007 0
M  V30 8 C 9.824035 4.233827 -13.874955 0
M  V30 9 O 10.499265 4.980736 -14.581696 0
M  V30 10 C 10.016167 4.237891 -12.351562 0
M  V30 11 N 9.448854 5.359179 -11.543746 0
M  V30 12 C 10.118216 6.659941 -11.712709 0
M  V30 13 C 9.515759 7.742848 -10.770902 0
M  V30 14 N 9.555542 7.278856 -9.358882 0 CHG=1
M  V30 15 C 9.181503 8.281343 -8.326958 0
M  V30 16 C 10.095519 8.209968 -7.099945 0
M  V30 17 C 10.091193 7.089009 -6.234859 0
M  V30 18 C 10.887743 7.073369 -5.070534 0
M  V30 19 C 11.645606 8.204660 -4.724100 0
M  V30 20 Cl 12.485825 8.236814 -3.219481 0
M  V30 21 C 11.691301 9.309046 -5.593417 0
M  V30 22 C 10.939076 9.298543 -6.783667 0
M  V30 23 C 8.776868 6.028714 -9.269896 0
M  V30 24 C 9.472208 4.982534 -10.128132 0
M  V30 25 C 7.576849 3.367216 -13.866120 0
M  V30 26 C 7.017567 4.573164 -13.372435 0
M  V30 27 C 5.691195 4.634337 -12.933603 0
M  V30 28 C 4.898253 3.483966 -12.993855 0
M  V30 29 C 5.434153 2.270110 -13.446752 0
M  V30 30 C 6.759869 2.206996 -13.923018 0
M  V30 31 H 5.803781 -0.487547 -13.663883 0
M  V30 32 H 7.265749 -1.228714 -14.239575 0
M  V30 33 H 7.285831 -0.312154 -12.735138 0
M  V30 34 H 6.736662 0.834280 -15.503013 0
M  V30 35 H 9.006994 0.137299 -15.554239 0
M  V30 36 H 9.303946 0.696695 -13.942967 0
M  V30 37 H 9.043642 1.933228 -17.503981 0
M  V30 38 H 7.611500 2.578885 -16.746822 0
M  V30 39 H 8.984927 3.632895 -17.069277 0
M  V30 40 H 11.057597 1.278564 -16.199968 0
M  V30 41 H 11.304769 2.992912 -15.988446 0
M  V30 42 H 11.327743 1.919971 -14.588449 0
M  V30 43 H 9.645407 3.284636 -11.974912 0
M  V30 44 H 11.086174 4.172488 -12.247586 0
M  V30 45 H 11.186678 6.572922 -11.520651 0
M  V30 46 H 10.023509 6.980757 -12.747097 0
M  V30 47 H 10.089835 8.664967 -10.872495 0
M  V30 48 H 8.487278 7.974630 -11.059365 0
M  V30 49 H 9.236654 9.282780 -8.754154 0
M  V30 50 H 8.142992 8.155611 -8.006139 0
M  V30 51 H 9.453419 6.239937 -6.411170 0
M  V30 52 H 10.855248 6.219580 -4.406527 0
M  V30 53 H 12.296305 10.168997 -5.343803 0
M  V30 54 H 10.993877 10.151516 -7.436857 0
M  V30 55 H 8.713661 5.657931 -8.251460 0
M  V30 56 H 7.745827 6.171858 -9.600760 0
M  V30 57 H 8.920703 4.070117 -9.980853 0
M  V30 58 H 10.484834 4.812541 -9.765079 0
M  V30 59 H 7.582921 5.492533 -13.351464 0
M  V30 60 H 5.287290 5.570734 -12.580007 0
M  V30 61 H 3.860213 3.543703 -12.726416 0
M  V30 62 H 4.782341 1.412373 -13.501702 0
M  V30 63 H 10.517756 7.040147 -9.171139 0
M  V30 END ATOM
M  V30 BEGIN BOND
M  V30 1 1 2 1
M  V30 2 1 3 2
M  V30 3 1 4 3
M  V30 4 1 5 4
M  V30 5 1 6 4
M  V30 6 1 7 4
M  V30 7 1 8 7
M  V30 8 2 9 8
M  V30 9 1 10 8
M  V30 10 1 11 10
M  V30 11 1 12 11
M  V30 12 1 13 12
M  V30 13 1 14 13
M  V30 14 1 15 14
M  V30 15 1 16 15
M  V30 16 1 17 16
M  V30 17 2 18 17
M  V30 18 1 19 18
M  V30 19 1 20 19
M  V30 20 2 21 19
M  V30 21 2 22 16
M  V30 22 1 22 21
M  V30 23 1 23 14
M  V30 24 1 24 11
M  V30 25 1 24 23
M  V30 26 1 25 7
M  V30 27 2 26 25
M  V30 28 1 27 26
M  V30 29 2 28 27
M  V30 30 1 29 28
M  V30 31 1 30 2
M  V30 32 1 30 25
M  V30 33 2 30 29
M  V30 34 1 31 1
M  V30 35 1 32 1
M  V30 36 1 33 1
M  V30 37 1 2 34 CFG=3
M  V30 38 1 35 3
M  V30 39 1 36 3
M  V30 40 1 37 5
M  V30 41 1 38 5
M  V30 42 1 39 5
M  V30 43 1 40 6
M  V30 44 1 41 6
M  V30 45 1 42 6
M  V30 46 1 43 10
M  V30 47 1 44 10
M  V30 48 1 45 12
M  V30 49 1 46 12
M  V30 50 1 47 13
M  V30 51 1 48 13
M  V30 52 1 49 15
M  V30 53 1 50 15
M  V30 54 1 51 17
M  V30 55 1 52 18
M  V30 56 1 53 21
M  V30 57 1 54 22
M  V30 58 1 55 23
M  V30 59 1 56 23
M  V30 60 1 57 24
M  V30 61 1 58 24
M  V30 62 1 59 26
M  V30 63 1 60 27
M  V30 64 1 61 28
M  V30 65 1 62 29
M  V30 66 1 63 14
M  V30 END BOND
M  V30 END CTAB
M  END
>  <b_m_subgroup_collapsed>  (2719) 
0

>  <r_i_docking_score>  (2719) 
-4.3431598526413504

>  <s_m_subgroup_title>  (2719) 
glide-dock_SP_D22_pv

>  <s_m_subgroupid>  (2719) 
glide-dock_SP_D22_pv

>  <Molecule ChEMBL ID>  (2719) 
CHEMBL104160

>  <Standard Type>  (2719) 
Ki

>  <Standard Value>  (2719) 
35.0

>  <label>  (2719) 
1

$$$$
CHEMBL274585
     RDKit          3D

  0  0  0  0  0  0  0  0  0  0999 V3000
M  V30 BEGIN CTAB
M  V30 COUNTS 39 40 0 0 1
M  V30 BEGIN ATOM
M  V30 1 N 10.340017 -0.704113 -17.445379 0
M  V30 2 C 10.093139 0.168363 -16.726702 0
M  V30 3 C 9.783735 1.268365 -15.826725 0
M  V30 4 C 8.484638 1.403945 -15.295534 0
M  V30 5 C 8.184397 2.477675 -14.435823 0
M  V30 6 C 9.169224 3.424245 -14.084407 0
M  V30 7 O 8.785879 4.426077 -13.218754 0
M  V30 8 C 9.777534 5.306794 -12.702929 0
M  V30 9 C 9.250566 5.952491 -11.411789 0
M  V30 10 C 10.177325 7.068319 -10.897539 0
M  V30 11 C 9.710975 7.615895 -9.533427 0
M  V30 12 N 9.640748 6.537317 -8.540144 0
M  V30 13 C 9.191038 7.022932 -7.233657 0
M  V30 14 C 10.122499 8.037298 -6.601316 0
M  V30 15 C 10.769578 7.826541 -5.447265 0
M  V30 16 I 12.017586 9.371861 -4.617294 0
M  V30 17 C 8.657318 5.547493 -8.981961 0
M  V30 18 C 9.085428 4.901315 -10.303795 0
M  V30 19 C 10.470404 3.286593 -14.631893 0
M  V30 20 C 10.775626 2.212805 -15.491975 0
M  V30 21 H 7.715304 0.685638 -15.545507 0
M  V30 22 H 7.187214 2.570283 -14.029338 0
M  V30 23 H 10.005230 6.068260 -13.447604 0
M  V30 24 H 10.700307 4.776078 -12.473496 0
M  V30 25 H 8.274212 6.394591 -11.616544 0
M  V30 26 H 10.211138 7.883043 -11.622272 0
M  V30 27 H 11.197879 6.700945 -10.799865 0
M  V30 28 H 8.738752 8.103121 -9.630728 0
M  V30 29 H 10.420716 8.378917 -9.215261 0
M  V30 30 H 9.091184 6.176893 -6.552552 0
M  V30 31 H 8.201062 7.474874 -7.318409 0
M  V30 32 H 10.245726 8.982306 -7.109343 0
M  V30 33 H 10.701302 6.911973 -4.876983 0
M  V30 34 H 8.542182 4.768731 -8.228147 0
M  V30 35 H 7.685693 6.025085 -9.099594 0
M  V30 36 H 8.330409 4.172672 -10.603535 0
M  V30 37 H 10.015536 4.349725 -10.154798 0
M  V30 38 H 11.254397 3.994099 -14.411015 0
M  V30 39 H 11.776149 2.120210 -15.893216 0
M  V30 END ATOM
M  V30 BEGIN BOND
M  V30 1 3 2 1
M  V30 2 1 3 2
M  V30 3 1 4 3
M  V30 4 2 5 4
M  V30 5 1 6 5
M  V30 6 1 7 6
M  V30 7 1 8 7
M  V30 8 1 9 8
M  V30 9 1 10 9
M  V30 10 1 11 10
M  V30 11 1 12 11
M  V30 12 1 13 12
M  V30 13 1 14 13
M  V30 14 2 15 14
M  V30 15 1 16 15
M  V30 16 1 17 12
M  V30 17 1 18 9
M  V30 18 1 18 17
M  V30 19 2 19 6
M  V30 20 2 20 3
M  V30 21 1 20 19
M  V30 22 1 21 4
M  V30 23 1 22 5
M  V30 24 1 23 8
M  V30 25 1 24 8
M  V30 26 1 25 9
M  V30 27 1 26 10
M  V30 28 1 27 10
M  V30 29 1 28 11
M  V30 30 1 29 11
M  V30 31 1 30 13
M  V30 32 1 31 13
M  V30 33 1 32 14
M  V30 34 1 33 15
M  V30 35 1 34 17
M  V30 36 1 35 17
M  V30 37 1 36 18
M  V30 38 1 37 18
M  V30 39 1 38 19
M  V30 40 1 39 20
M  V30 END BOND
M  V30 END CTAB
M  END
>  <b_m_subgroup_collapsed>  (2720) 
0

>  <r_i_docking_score>  (2720) 
-4.2779542944679401

>  <s_m_subgroup_title>  (2720) 
glide-dock_SP_D22_pv

>  <s_m_subgroupid>  (2720) 
glide-dock_SP_D22_pv

>  <Molecule ChEMBL ID>  (2720) 
CHEMBL274585

>  <Standard Type>  (2720) 
Ki

>  <Standard Value>  (2720) 
10000.0

>  <label>  (2720) 
0

$$$$
CHEMBL610449
     RDKit          3D

  0  0  0  0  0  0  0  0  0  0999 V3000
M  V30 BEGIN CTAB
M  V30 COUNTS 44 47 0 0 1
M  V30 BEGIN ATOM
M  V30 1 C 10.273396 -0.717767 -19.408197 0
M  V30 2 N 9.838546 0.223793 -18.350700 0 CFG=1 CHG=1
M  V30 3 C 8.507281 0.832938 -18.604624 0
M  V30 4 C 8.544356 1.915012 -19.703562 0
M  V30 5 C 9.269153 3.212729 -19.296291 0
M  V30 6 C 10.777202 3.046126 -19.118505 0
M  V30 7 C 11.568069 2.942588 -20.288471 0
M  V30 8 C 12.952677 2.781751 -20.145899 0
M  V30 9 C 13.547301 2.734553 -18.906118 0
M  V30 10 C 12.795319 2.838355 -17.729467 0
M  V30 11 C 11.388718 2.979591 -17.825939 0
M  V30 12 C 10.601132 3.047917 -16.581758 0
M  V30 13 C 10.100904 4.302697 -16.165861 0
M  V30 14 C 9.316345 4.423654 -15.004973 0
M  V30 15 C 9.012522 3.282731 -14.246203 0
M  V30 16 C 9.513670 2.029770 -14.640070 0
M  V30 17 C 10.322568 1.901468 -15.787621 0
M  V30 18 C 10.884737 0.519383 -16.105997 0
M  V30 19 C 9.972799 -0.347557 -16.987062 0
M  V30 20 O 14.885809 2.571539 -19.048191 0
M  V30 21 C 15.121294 2.525487 -20.433304 0
M  V30 22 O 13.897152 2.648289 -21.109602 0
M  V30 23 H 9.638805 -1.605849 -19.429342 0
M  V30 24 H 11.302525 -1.031457 -19.226385 0
M  V30 25 H 10.253290 -0.258902 -20.395527 0
M  V30 26 H 7.796369 0.047810 -18.866676 0
M  V30 27 H 8.129416 1.292228 -17.689169 0
M  V30 28 H 8.957736 1.527495 -20.634905 0
M  V30 29 H 7.512573 2.173073 -19.943802 0
M  V30 30 H 9.110741 3.961384 -20.074022 0
M  V30 31 H 8.800426 3.631730 -18.407543 0
M  V30 32 H 11.121689 2.984460 -21.271059 0
M  V30 33 H 13.284768 2.795560 -16.766895 0
M  V30 34 H 10.316020 5.186266 -16.750795 0
M  V30 35 H 8.941273 5.389698 -14.700773 0
M  V30 36 H 8.407568 3.371635 -13.354992 0
M  V30 37 H 9.292442 1.166399 -14.028624 0
M  V30 38 H 11.873055 0.600292 -16.555454 0
M  V30 39 H 11.044669 -0.000920 -15.160639 0
M  V30 40 H 8.999128 -0.478860 -16.512104 0
M  V30 41 H 10.405005 -1.349235 -17.039995 0
M  V30 42 H 15.779732 3.345791 -20.720514 0
M  V30 43 H 15.590932 1.577894 -20.695465 0
M  V30 44 H 10.491692 0.996514 -18.378647 0
M  V30 END ATOM
M  V30 BEGIN BOND
M  V30 1 1 2 1
M  V30 2 1 3 2
M  V30 3 1 4 3
M  V30 4 1 5 4
M  V30 5 1 6 5
M  V30 6 2 7 6
M  V30 7 1 8 7
M  V30 8 2 9 8
M  V30 9 1 10 9
M  V30 10 1 11 6
M  V30 11 2 11 10
M  V30 12 1 12 11
M  V30 13 2 13 12
M  V30 14 1 14 13
M  V30 15 2 15 14
M  V30 16 1 16 15
M  V30 17 1 17 12
M  V30 18 2 17 16
M  V30 19 1 18 17
M  V30 20 1 19 2
M  V30 21 1 19 18
M  V30 22 1 20 9
M  V30 23 1 21 20
M  V30 24 1 22 8
M  V30 25 1 22 21
M  V30 26 1 23 1
M  V30 27 1 24 1
M  V30 28 1 25 1
M  V30 29 1 26 3
M  V30 30 1 27 3
M  V30 31 1 28 4
M  V30 32 1 29 4
M  V30 33 1 30 5
M  V30 34 1 31 5
M  V30 35 1 32 7
M  V30 36 1 33 10
M  V30 37 1 34 13
M  V30 38 1 35 14
M  V30 39 1 36 15
M  V30 40 1 37 16
M  V30 41 1 38 18
M  V30 42 1 39 18
M  V30 43 1 40 19
M  V30 44 1 41 19
M  V30 45 1 42 21
M  V30 46 1 43 21
M  V30 47 1 2 44 CFG=1
M  V30 END BOND
M  V30 END CTAB
M  END
>  <b_m_subgroup_collapsed>  (2721) 
0

>  <r_i_docking_score>  (2721) 
-4.2033822391162001

>  <s_m_subgroup_title>  (2721) 
glide-dock_SP_D22_pv

>  <s_m_subgroupid>  (2721) 
glide-dock_SP_D22_pv

>  <Molecule ChEMBL ID>  (2721) 
CHEMBL610449

>  <Standard Type>  (2721) 
Ki

>  <Standard Value>  (2721) 
10000.0

>  <label>  (2721) 
0

$$$$
CHEMBL300555
     RDKit          3D

  0  0  0  0  0  0  0  0  0  0999 V3000
M  V30 BEGIN CTAB
M  V30 COUNTS 54 58 0 0 1
M  V30 BEGIN ATOM
M  V30 1 O 6.233620 -0.354296 -13.462593 0
M  V30 2 C 6.485133 -0.088684 -14.637636 0
M  V30 3 N 5.897497 -0.624879 -15.698357 0
M  V30 4 C 6.423120 -0.120487 -16.952431 0
M  V30 5 N 7.428290 0.871408 -16.555885 0
M  V30 6 C 8.568230 0.958481 -17.374672 0
M  V30 7 C 9.404116 -0.161107 -17.601351 0
M  V30 8 C 10.561297 -0.040557 -18.397034 0
M  V30 9 C 10.885613 1.196419 -18.985657 0
M  V30 10 C 10.044827 2.308444 -18.787582 0
M  V30 11 C 8.887657 2.187627 -17.992985 0
M  V30 12 C 7.526644 0.936962 -15.084931 0 CFG=2
M  V30 13 C 8.912660 0.562639 -14.479732 0
M  V30 14 C 9.958607 1.700702 -14.481393 0
M  V30 15 N 9.419170 2.964087 -13.914064 0 CFG=1 CHG=1
M  V30 16 C 10.440024 4.042941 -13.872784 0
M  V30 17 C 10.007790 5.266774 -13.034788 0 CFG=2
M  V30 18 C 11.125736 6.324655 -12.990179 0
M  V30 19 O 10.749664 7.403267 -12.150127 0
M  V30 20 C 10.210177 7.038529 -10.940444 0
M  V30 21 C 10.187073 7.983181 -9.895032 0
M  V30 22 C 9.671775 7.629728 -8.632768 0
M  V30 23 C 9.171068 6.332709 -8.417625 0
M  V30 24 C 9.175441 5.390194 -9.464005 0
M  V30 25 C 9.684782 5.737864 -10.730610 0
M  V30 26 O 9.685963 4.790997 -11.730433 0
M  V30 27 C 8.198139 3.375021 -14.640635 0
M  V30 28 C 7.097280 2.317458 -14.538578 0
M  V30 29 H 5.194880 -1.349773 -15.651943 0
M  V30 30 H 5.627990 0.357259 -17.525625 0
M  V30 31 H 6.825607 -0.943776 -17.544144 0
M  V30 32 H 9.173445 -1.116041 -17.150620 0
M  V30 33 H 11.198692 -0.897295 -18.557396 0
M  V30 34 H 11.773518 1.290951 -19.596132 0
M  V30 35 H 10.287189 3.255124 -19.248188 0
M  V30 36 H 8.249988 3.047878 -17.859699 0
M  V30 37 H 8.766804 0.266153 -13.446736 0
M  V30 38 H 9.324749 -0.328544 -14.952599 0
M  V30 39 H 10.324469 1.882173 -15.491957 0
M  V30 40 H 10.828690 1.390755 -13.900843 0
M  V30 41 H 11.359000 3.637611 -13.447760 0
M  V30 42 H 10.688754 4.352759 -14.889855 0
M  V30 43 H 9.128057 5.751241 -13.454441 0
M  V30 44 H 12.071700 5.908008 -12.650829 0
M  V30 45 H 11.303490 6.717493 -13.992036 0
M  V30 46 H 10.572613 8.978681 -10.058587 0
M  V30 47 H 9.646371 8.357380 -7.835033 0
M  V30 48 H 8.755200 6.069028 -7.456620 0
M  V30 49 H 8.772412 4.402996 -9.296317 0
M  V30 50 H 8.486161 3.560695 -15.672046 0
M  V30 51 H 7.789990 4.303232 -14.246443 0
M  V30 52 H 6.207737 2.675707 -15.051901 0
M  V30 53 H 6.808476 2.237812 -13.487080 0
M  V30 54 H 9.162860 2.768372 -12.954646 0
M  V30 END ATOM
M  V30 BEGIN BOND
M  V30 1 2 2 1
M  V30 2 1 3 2
M  V30 3 1 4 3
M  V30 4 1 5 4
M  V30 5 1 6 5
M  V30 6 2 7 6
M  V30 7 1 8 7
M  V30 8 2 9 8
M  V30 9 1 10 9
M  V30 10 1 11 6
M  V30 11 2 11 10
M  V30 12 1 12 2
M  V30 13 1 12 5 CFG=3
M  V30 14 1 13 12
M  V30 15 1 14 13
M  V30 16 1 15 14
M  V30 17 1 16 15
M  V30 18 1 17 16
M  V30 19 1 18 17
M  V30 20 1 19 18
M  V30 21 1 20 19
M  V30 22 2 21 20
M  V30 23 1 22 21
M  V30 24 2 23 22
M  V30 25 1 24 23
M  V30 26 1 25 20
M  V30 27 2 25 24
M  V30 28 1 26 17
M  V30 29 1 26 25
M  V30 30 1 27 15
M  V30 31 1 28 12
M  V30 32 1 28 27
M  V30 33 1 29 3
M  V30 34 1 30 4
M  V30 35 1 31 4
M  V30 36 1 32 7
M  V30 37 1 33 8
M  V30 38 1 34 9
M  V30 39 1 35 10
M  V30 40 1 36 11
M  V30 41 1 37 13
M  V30 42 1 38 13
M  V30 43 1 39 14
M  V30 44 1 40 14
M  V30 45 1 41 16
M  V30 46 1 42 16
M  V30 47 1 17 43 CFG=3
M  V30 48 1 44 18
M  V30 49 1 45 18
M  V30 50 1 46 21
M  V30 51 1 47 22
M  V30 52 1 48 23
M  V30 53 1 49 24
M  V30 54 1 50 27
M  V30 55 1 51 27
M  V30 56 1 52 28
M  V30 57 1 53 28
M  V30 58 1 15 54 CFG=1
M  V30 END BOND
M  V30 END CTAB
M  END
>  <b_m_subgroup_collapsed>  (2722) 
0

>  <r_i_docking_score>  (2722) 
-4.1503399140050004

>  <s_m_subgroup_title>  (2722) 
glide-dock_SP_D22_pv

>  <s_m_subgroupid>  (2722) 
glide-dock_SP_D22_pv

>  <Molecule ChEMBL ID>  (2722) 
CHEMBL300555

>  <Standard Type>  (2722) 
Ki

>  <Standard Value>  (2722) 
6.711

>  <label>  (2722) 
1

$$$$
CHEMBL164736
     RDKit          3D

  0  0  0  0  0  0  0  0  0  0999 V3000
M  V30 BEGIN CTAB
M  V30 COUNTS 68 68 0 0 1
M  V30 BEGIN ATOM
M  V30 1 C 14.619418 2.093961 -19.901777 0
M  V30 2 C 14.206431 2.891031 -18.660782 0
M  V30 3 C 14.209859 4.410868 -18.902262 0
M  V30 4 N 13.976703 5.188201 -17.648165 0 CHG=1
M  V30 5 C 15.087687 6.152823 -17.370058 0
M  V30 6 C 15.274142 7.286832 -18.411890 0
M  V30 7 C 14.408126 8.539163 -18.206434 0
M  V30 8 C 12.584335 5.729836 -17.503984 0
M  V30 9 C 11.503532 4.622491 -17.547472 0
M  V30 10 C 11.511028 3.733505 -16.288784 0
M  V30 11 C 11.324637 4.587098 -15.032378 0
M  V30 12 C 10.292355 4.464054 -14.153692 0
M  V30 13 C 10.170005 5.350572 -13.041047 0
M  V30 14 C 10.085046 6.168872 -12.139129 0
M  V30 15 Si 9.971774 7.456933 -10.842062 0 VAL=4
M  V30 16 C 9.283332 6.663821 -9.263490 0
M  V30 17 C 11.722545 8.117460 -10.523372 0
M  V30 18 C 8.841710 8.834127 -11.497295 0
M  V30 19 C 9.273311 3.484080 -14.350390 0
M  V30 20 C 8.378290 2.681073 -14.559788 0
M  V30 21 Si 7.025392 1.479472 -14.827134 0 VAL=4
M  V30 22 C 6.498439 1.521323 -16.657446 0
M  V30 23 C 7.678185 -0.227716 -14.369978 0
M  V30 24 C 5.604952 1.962075 -13.669471 0
M  V30 25 C 12.416560 5.655110 -14.947936 0
M  V30 26 C 12.365848 6.539825 -16.201328 0
M  V30 27 H 14.625090 1.023939 -19.690941 0
M  V30 28 H 15.617598 2.371264 -20.240763 0
M  V30 29 H 13.926482 2.266119 -20.726267 0
M  V30 30 H 13.226521 2.542537 -18.341862 0
M  V30 31 H 14.886005 2.652232 -17.847496 0
M  V30 32 H 15.182662 4.661328 -19.326735 0
M  V30 33 H 13.484365 4.684875 -19.668777 0
M  V30 34 H 15.029860 6.557108 -16.359718 0
M  V30 35 H 16.005903 5.563076 -17.351608 0
M  V30 36 H 16.314249 7.612628 -18.346813 0
M  V30 37 H 15.152593 6.925393 -19.433483 0
M  V30 38 H 14.728786 9.341029 -18.873240 0
M  V30 39 H 13.355189 8.361450 -18.417337 0
M  V30 40 H 14.485784 8.916295 -17.188021 0
M  V30 41 H 12.402139 6.386764 -18.354380 0
M  V30 42 H 10.524200 5.101312 -17.615515 0
M  V30 43 H 11.574024 4.018382 -18.450638 0
M  V30 44 H 10.756559 2.957398 -16.400526 0
M  V30 45 H 12.459562 3.204429 -16.196096 0
M  V30 46 H 9.181188 7.391296 -8.457877 0
M  V30 47 H 8.290815 6.246142 -9.435953 0
M  V30 48 H 9.918176 5.855371 -8.902963 0
M  V30 49 H 11.707827 9.000491 -9.887234 0
M  V30 50 H 12.341384 7.373528 -10.025566 0
M  V30 51 H 12.228910 8.391682 -11.446724 0
M  V30 52 H 8.594308 9.553188 -10.716664 0
M  V30 53 H 9.284796 9.371538 -12.334671 0
M  V30 54 H 7.893728 8.423733 -11.847595 0
M  V30 55 H 5.727595 0.778896 -16.862192 0
M  V30 56 H 6.100723 2.492972 -16.952114 0
M  V30 57 H 7.337353 1.297990 -17.316063 0
M  V30 58 H 6.896822 -0.985689 -14.417101 0
M  V30 59 H 8.478555 -0.541191 -15.041451 0
M  V30 60 H 8.080840 -0.227539 -13.360498 0
M  V30 61 H 4.736665 1.318716 -13.805725 0
M  V30 62 H 5.899142 1.894872 -12.623285 0
M  V30 63 H 5.285736 2.989372 -13.846275 0
M  V30 64 H 12.344338 6.289381 -14.065991 0
M  V30 65 H 13.385307 5.160362 -14.868044 0
M  V30 66 H 13.045889 7.382846 -16.102987 0
M  V30 67 H 11.374626 6.990674 -16.242800 0
M  V30 68 H 14.056570 4.510244 -16.902348 0
M  V30 END ATOM
M  V30 BEGIN BOND
M  V30 1 1 2 1
M  V30 2 1 3 2
M  V30 3 1 4 3
M  V30 4 1 5 4
M  V30 5 1 6 5
M  V30 6 1 7 6
M  V30 7 1 8 4
M  V30 8 1 9 8
M  V30 9 1 10 9
M  V30 10 1 11 10
M  V30 11 2 12 11 CFG=2
M  V30 12 1 13 12
M  V30 13 3 14 13
M  V30 14 1 15 14
M  V30 15 1 16 15
M  V30 16 1 17 15
M  V30 17 1 18 15
M  V30 18 1 19 12
M  V30 19 3 20 19
M  V30 20 1 21 20
M  V30 21 1 22 21
M  V30 22 1 23 21
M  V30 23 1 24 21
M  V30 24 1 25 11
M  V30 25 1 26 8
M  V30 26 1 26 25
M  V30 27 1 27 1
M  V30 28 1 28 1
M  V30 29 1 29 1
M  V30 30 1 30 2
M  V30 31 1 31 2
M  V30 32 1 32 3
M  V30 33 1 33 3
M  V30 34 1 34 5
M  V30 35 1 35 5
M  V30 36 1 36 6
M  V30 37 1 37 6
M  V30 38 1 38 7
M  V30 39 1 39 7
M  V30 40 1 40 7
M  V30 41 1 41 8
M  V30 42 1 42 9
M  V30 43 1 43 9
M  V30 44 1 44 10
M  V30 45 1 45 10
M  V30 46 1 46 16
M  V30 47 1 47 16
M  V30 48 1 48 16
M  V30 49 1 49 17
M  V30 50 1 50 17
M  V30 51 1 51 17
M  V30 52 1 52 18
M  V30 53 1 53 18
M  V30 54 1 54 18
M  V30 55 1 55 22
M  V30 56 1 56 22
M  V30 57 1 57 22
M  V30 58 1 58 23
M  V30 59 1 59 23
M  V30 60 1 60 23
M  V30 61 1 61 24
M  V30 62 1 62 24
M  V30 63 1 63 24
M  V30 64 1 64 25
M  V30 65 1 65 25
M  V30 66 1 66 26
M  V30 67 1 67 26
M  V30 68 1 68 4
M  V30 END BOND
M  V30 END CTAB
M  END
>  <b_m_subgroup_collapsed>  (2723) 
0

>  <r_i_docking_score>  (2723) 
-4.1375642341642003

>  <s_m_subgroup_title>  (2723) 
glide-dock_SP_D22_pv

>  <s_m_subgroupid>  (2723) 
glide-dock_SP_D22_pv

>  <Molecule ChEMBL ID>  (2723) 
CHEMBL164736

>  <Standard Type>  (2723) 
Ki

>  <Standard Value>  (2723) 
11000.0

>  <label>  (2723) 
0

$$$$
CHEMBL437888
     RDKit          3D

  0  0  0  0  0  0  0  0  0  0999 V3000
M  V30 BEGIN CTAB
M  V30 COUNTS 48 51 0 0 1
M  V30 BEGIN ATOM
M  V30 1 C 13.685921 8.467460 -12.792033 0
M  V30 2 C 12.826008 7.772337 -13.652940 0
M  V30 3 C 11.580256 7.372231 -13.147710 0
M  V30 4 C 11.172865 7.759606 -11.846592 0
M  V30 5 C 9.927032 7.898412 -11.182477 0
M  V30 6 C 10.214490 8.203728 -9.866441 0
M  V30 7 N 11.574161 8.394135 -9.749233 0
M  V30 8 C 12.163706 8.251752 -10.972801 0
M  V30 9 C 13.422216 8.572351 -11.446784 0
M  V30 10 C 9.370923 8.329166 -8.650090 0
M  V30 11 C 8.886034 6.973779 -8.131342 0
M  V30 12 C 9.836239 5.772305 -8.188638 0
M  V30 13 C 9.273924 4.618458 -9.045424 0
M  V30 14 C 9.328737 4.879646 -10.565103 0
M  V30 15 N 8.052588 5.366437 -11.177744 0 CFG=2 CHG=1
M  V30 16 C 7.284681 4.172387 -11.608393 0
M  V30 17 C 5.932653 4.391440 -12.247177 0
M  V30 18 C 5.730330 4.177981 -13.728951 0
M  V30 19 C 5.231304 3.150057 -12.761067 0
M  V30 20 C 8.263054 6.311228 -12.308381 0
M  V30 21 C 8.643451 7.754440 -11.913445 0
M  V30 22 H 14.633222 8.836238 -13.045980 0
M  V30 23 H 13.099501 7.582316 -14.681190 0
M  V30 24 H 10.887726 6.891486 -13.817766 0
M  V30 25 H 12.027976 8.709407 -8.903596 0
M  V30 26 H 14.204714 8.939734 -10.812117 0
M  V30 27 H 9.934346 8.827251 -7.859442 0
M  V30 28 H 8.515684 8.973781 -8.856018 0
M  V30 29 H 8.432186 7.076304 -7.143570 0
M  V30 30 H 8.085662 6.715288 -8.804340 0
M  V30 31 H 10.837513 6.040749 -8.518520 0
M  V30 32 H 9.967406 5.414854 -7.169702 0
M  V30 33 H 9.887903 3.740105 -8.846236 0
M  V30 34 H 8.268743 4.343263 -8.723141 0
M  V30 35 H 10.167396 5.524860 -10.769800 0
M  V30 36 H 9.644820 3.957282 -11.057786 0
M  V30 37 H 7.889961 3.606679 -12.317180 0
M  V30 38 H 7.109962 3.549749 -10.732536 0
M  V30 39 H 5.296490 5.119175 -11.744709 0
M  V30 40 H 4.988225 4.800716 -14.225554 0
M  V30 41 H 6.598525 3.916488 -14.328566 0
M  V30 42 H 5.765138 2.202105 -12.726534 0
M  V30 43 H 4.153667 3.074606 -12.646934 0
M  V30 44 H 8.998291 5.889574 -12.995119 0
M  V30 45 H 7.344256 6.407594 -12.886170 0
M  V30 46 H 7.862357 8.327497 -11.446877 0
M  V30 47 H 8.737328 8.320635 -12.836111 0
M  V30 48 H 7.512599 5.877178 -10.485986 0
M  V30 END ATOM
M  V30 BEGIN BOND
M  V30 1 2 2 1
M  V30 2 1 3 2
M  V30 3 2 4 3
M  V30 4 1 5 4
M  V30 5 2 6 5
M  V30 6 1 7 6
M  V30 7 1 8 4
M  V30 8 1 8 7
M  V30 9 1 9 1
M  V30 10 2 9 8
M  V30 11 1 10 6
M  V30 12 1 11 10
M  V30 13 1 12 11
M  V30 14 1 13 12
M  V30 15 1 14 13
M  V30 16 1 15 14
M  V30 17 1 16 15
M  V30 18 1 17 16
M  V30 19 1 18 17
M  V30 20 1 19 17
M  V30 21 1 19 18
M  V30 22 1 20 15
M  V30 23 1 21 5
M  V30 24 1 21 20
M  V30 25 1 22 1
M  V30 26 1 23 2
M  V30 27 1 24 3
M  V30 28 1 25 7
M  V30 29 1 26 9
M  V30 30 1 27 10
M  V30 31 1 28 10
M  V30 32 1 29 11
M  V30 33 1 30 11
M  V30 34 1 31 12
M  V30 35 1 32 12
M  V30 36 1 33 13
M  V30 37 1 34 13
M  V30 38 1 35 14
M  V30 39 1 36 14
M  V30 40 1 37 16
M  V30 41 1 38 16
M  V30 42 1 39 17
M  V30 43 1 40 18
M  V30 44 1 41 18
M  V30 45 1 42 19
M  V30 46 1 43 19
M  V30 47 1 44 20
M  V30 48 1 45 20
M  V30 49 1 46 21
M  V30 50 1 47 21
M  V30 51 1 15 48 CFG=1
M  V30 END BOND
M  V30 END CTAB
M  END
>  <b_m_subgroup_collapsed>  (2724) 
0

>  <r_i_docking_score>  (2724) 
-4.1283299551354302

>  <s_m_subgroup_title>  (2724) 
glide-dock_SP_D22_pv

>  <s_m_subgroupid>  (2724) 
glide-dock_SP_D22_pv

>  <Molecule ChEMBL ID>  (2724) 
CHEMBL437888

>  <Standard Type>  (2724) 
Ki

>  <Standard Value>  (2724) 
10000.0

>  <label>  (2724) 
0

$$$$
CHEMBL5091656
     RDKit          3D

  0  0  0  0  0  0  0  0  0  0999 V3000
M  V30 BEGIN CTAB
M  V30 COUNTS 73 76 0 0 1
M  V30 BEGIN ATOM
M  V30 1 C 1.825238 -5.269511 -20.055973 0
M  V30 2 C 2.635312 -4.438415 -19.046772 0
M  V30 3 C 3.616382 -3.423848 -19.630680 0
M  V30 4 C 4.055884 -3.554615 -20.964552 0
M  V30 5 C 4.886510 -2.585083 -21.542992 0
M  V30 6 Cl 5.411123 -2.804815 -23.173323 0
M  V30 7 C 5.288076 -1.458746 -20.795958 0
M  V30 8 O 6.069494 -0.498486 -21.391640 0
M  V30 9 C 5.318301 0.424064 -22.169783 0
M  V30 10 C 4.922091 -1.346352 -19.429029 0
M  V30 11 C 5.454504 -0.186811 -18.627943 0
M  V30 12 O 5.339642 0.973679 -19.025249 0
M  V30 13 N 6.172319 -0.510116 -17.541386 0
M  V30 14 C 7.083918 0.412566 -16.868561 0
M  V30 15 C 8.375433 0.632869 -17.710001 0 CFG=2
M  V30 16 C 9.201054 -0.654266 -17.863726 0
M  V30 17 C 10.240747 -0.603442 -16.733999 0
M  V30 18 C 10.095626 0.781042 -16.093246 0
M  V30 19 N 9.347401 1.564182 -17.092911 0 CFG=2 CHG=1
M  V30 20 C 8.851944 2.903545 -16.684986 0
M  V30 21 C 9.988968 3.939718 -16.480677 0
M  V30 22 C 10.678753 4.484406 -17.773270 0
M  V30 23 C 9.649430 5.177005 -18.572889 0
M  V30 24 N 8.849859 5.723247 -19.204287 0
M  V30 25 C 11.768361 5.534301 -17.489449 0
M  V30 26 C 12.361213 5.703235 -16.211397 0
M  V30 27 C 13.341732 6.693646 -16.004850 0
M  V30 28 C 13.739473 7.528964 -17.065048 0
M  V30 29 C 13.166917 7.366634 -18.339216 0
M  V30 30 C 12.200080 6.367278 -18.551031 0
M  V30 31 C 11.285169 3.310591 -18.557570 0
M  V30 32 C 10.712036 2.848865 -19.769024 0
M  V30 33 C 11.225328 1.710884 -20.418882 0
M  V30 34 C 12.314912 1.014822 -19.866379 0
M  V30 35 C 12.899585 1.471962 -18.672283 0
M  V30 36 C 12.396186 2.615269 -18.025854 0
M  V30 37 C 4.078045 -2.333785 -18.844904 0
M  V30 38 O 3.693668 -2.227697 -17.531025 0
M  V30 39 H 1.100718 -5.894736 -19.531404 0
M  V30 40 H 1.266986 -4.628589 -20.739887 0
M  V30 41 H 2.460208 -5.936575 -20.640066 0
M  V30 42 H 3.186782 -5.108290 -18.385065 0
M  V30 43 H 1.917398 -3.894407 -18.433260 0
M  V30 44 H 3.749258 -4.386310 -21.576632 0
M  V30 45 H 5.961879 1.245356 -22.483654 0
M  V30 46 H 4.907617 -0.037995 -23.067743 0
M  V30 47 H 4.489378 0.845080 -21.596918 0
M  V30 48 H 6.183832 -1.480669 -17.251972 0
M  V30 49 H 6.559754 1.352925 -16.686613 0
M  V30 50 H 7.320621 -0.005022 -15.888759 0
M  V30 51 H 8.104011 1.021660 -18.693399 0
M  V30 52 H 8.603279 -1.566996 -17.847549 0
M  V30 53 H 9.719312 -0.638650 -18.824121 0
M  V30 54 H 10.086743 -1.394096 -15.999481 0
M  V30 55 H 11.237406 -0.712775 -17.160215 0
M  V30 56 H 9.525354 0.715603 -15.164083 0
M  V30 57 H 11.067399 1.218472 -15.858630 0
M  V30 58 H 8.159142 3.265507 -17.447081 0
M  V30 59 H 8.281583 2.801578 -15.760448 0
M  V30 60 H 9.568711 4.791115 -15.943961 0
M  V30 61 H 10.724919 3.503466 -15.805500 0
M  V30 62 H 12.082429 5.094959 -15.365041 0
M  V30 63 H 13.791021 6.811542 -15.030088 0
M  V30 64 H 14.486189 8.292760 -16.910578 0
M  V30 65 H 13.471606 8.006838 -19.155066 0
M  V30 66 H 11.780220 6.258419 -19.541210 0
M  V30 67 H 9.861983 3.341772 -20.217899 0
M  V30 68 H 10.776025 1.369464 -21.341131 0
M  V30 69 H 12.709157 0.140316 -20.362942 0
M  V30 70 H 13.736911 0.941981 -18.247370 0
M  V30 71 H 12.856972 2.938374 -17.101898 0
M  V30 72 H 3.286094 -3.012231 -17.160629 0
M  V30 73 H 10.017726 1.739091 -17.832695 0
M  V30 END ATOM
M  V30 BEGIN BOND
M  V30 1 1 2 1
M  V30 2 1 3 2
M  V30 3 1 4 3
M  V30 4 2 5 4
M  V30 5 1 6 5
M  V30 6 1 7 5
M  V30 7 1 8 7
M  V30 8 1 9 8
M  V30 9 2 10 7
M  V30 10 1 11 10
M  V30 11 2 12 11
M  V30 12 1 13 11
M  V30 13 1 14 13
M  V30 14 1 15 14
M  V30 15 1 16 15
M  V30 16 1 17 16
M  V30 17 1 18 17
M  V30 18 1 19 15
M  V30 19 1 19 18
M  V30 20 1 20 19
M  V30 21 1 21 20
M  V30 22 1 22 21
M  V30 23 1 23 22
M  V30 24 3 24 23
M  V30 25 1 25 22
M  V30 26 2 26 25
M  V30 27 1 27 26
M  V30 28 2 28 27
M  V30 29 1 29 28
M  V30 30 1 30 25
M  V30 31 2 30 29
M  V30 32 1 31 22
M  V30 33 2 32 31
M  V30 34 1 33 32
M  V30 35 2 34 33
M  V30 36 1 35 34
M  V30 37 1 36 31
M  V30 38 2 36 35
M  V30 39 2 37 3
M  V30 40 1 37 10
M  V30 41 1 38 37
M  V30 42 1 39 1
M  V30 43 1 40 1
M  V30 44 1 41 1
M  V30 45 1 42 2
M  V30 46 1 43 2
M  V30 47 1 44 4
M  V30 48 1 45 9
M  V30 49 1 46 9
M  V30 50 1 47 9
M  V30 51 1 48 13
M  V30 52 1 49 14
M  V30 53 1 50 14
M  V30 54 1 15 51 CFG=3
M  V30 55 1 52 16
M  V30 56 1 53 16
M  V30 57 1 54 17
M  V30 58 1 55 17
M  V30 59 1 56 18
M  V30 60 1 57 18
M  V30 61 1 58 20
M  V30 62 1 59 20
M  V30 63 1 60 21
M  V30 64 1 61 21
M  V30 65 1 62 26
M  V30 66 1 63 27
M  V30 67 1 64 28
M  V30 68 1 65 29
M  V30 69 1 66 30
M  V30 70 1 67 32
M  V30 71 1 68 33
M  V30 72 1 69 34
M  V30 73 1 70 35
M  V30 74 1 71 36
M  V30 75 1 72 38
M  V30 76 1 19 73 CFG=3
M  V30 END BOND
M  V30 END CTAB
M  END
>  <b_m_subgroup_collapsed>  (2725) 
0

>  <r_i_docking_score>  (2725) 
-4.0935526289534803

>  <s_m_subgroup_title>  (2725) 
glide-dock_SP_D22_pv

>  <s_m_subgroupid>  (2725) 
glide-dock_SP_D22_pv

>  <Molecule ChEMBL ID>  (2725) 
CHEMBL5091656

>  <Standard Type>  (2725) 
Ki

>  <Standard Value>  (2725) 
12400.0

>  <label>  (2725) 
0

$$$$
CHEMBL1224699
     RDKit          3D

  0  0  0  0  0  0  0  0  0  0999 V3000
M  V30 BEGIN CTAB
M  V30 COUNTS 54 57 0 0 1
M  V30 BEGIN ATOM
M  V30 1 C 5.554481 4.489842 -12.179450 0
M  V30 2 O 6.802695 5.152417 -12.097962 0
M  V30 3 C 7.846845 4.645390 -12.837058 0
M  V30 4 C 7.688948 3.671520 -13.848183 0
M  V30 5 C 8.797849 3.171950 -14.561234 0
M  V30 6 C 8.580561 2.092652 -15.581852 0 CFG=2
M  V30 7 C 8.041624 0.818560 -14.968347 0
M  V30 8 N 8.993010 -0.227657 -15.375136 0 CHG=1
M  V30 9 C 9.681065 0.190303 -16.613930 0
M  V30 10 C 9.596294 1.695531 -16.620415 0 CFG=1
M  V30 11 C 8.348317 2.433205 -17.037209 0
M  V30 12 C 10.083154 3.666419 -14.259048 0
M  V30 13 C 10.249289 4.650547 -13.269650 0
M  V30 14 C 9.135212 5.142192 -12.560317 0
M  V30 15 N 9.271872 6.099919 -11.555301 0
M  V30 16 S 10.100661 7.609035 -11.659431 0
M  V30 17 O 11.340526 7.372030 -12.415532 0
M  V30 18 O 9.097142 8.580564 -12.116890 0
M  V30 19 C 10.515709 7.950619 -9.961612 0
M  V30 20 C 11.848016 8.244965 -9.610865 0
M  V30 21 C 12.170997 8.500697 -8.265163 0
M  V30 22 C 11.168076 8.451008 -7.274650 0
M  V30 23 C 11.514616 8.712226 -5.819211 0
M  V30 24 C 11.287365 7.450241 -4.971119 0
M  V30 25 C 10.749202 9.926677 -5.289194 0
M  V30 26 C 9.834915 8.153054 -7.641270 0
M  V30 27 C 9.506940 7.910558 -8.984873 0
M  V30 28 H 4.886075 4.934152 -11.446897 0
M  V30 29 H 5.099817 4.601592 -13.164775 0
M  V30 30 H 5.646673 3.430984 -11.935161 0
M  V30 31 H 6.713105 3.282361 -14.093652 0
M  V30 32 H 7.983313 0.866389 -13.879274 0
M  V30 33 H 7.046536 0.609677 -15.364605 0
M  V30 34 H 8.531401 -1.133552 -15.464452 0
M  V30 35 H 9.174300 -0.213304 -17.491514 0
M  V30 36 H 10.718864 -0.145805 -16.618797 0
M  V30 37 H 10.536299 2.236221 -16.698431 0
M  V30 38 H 7.594917 1.869872 -17.584274 0
M  V30 39 H 8.489444 3.461373 -17.363146 0
M  V30 40 H 10.956235 3.289929 -14.770226 0
M  V30 41 H 11.243521 5.004135 -13.047534 0
M  V30 42 H 8.387259 6.218511 -11.073486 0
M  V30 43 H 12.618186 8.286741 -10.367908 0
M  V30 44 H 13.192012 8.735147 -8.001702 0
M  V30 45 H 12.569719 8.973163 -5.754734 0
M  V30 46 H 11.923467 6.630074 -5.307880 0
M  V30 47 H 11.513730 7.629858 -3.919925 0
M  V30 48 H 10.256286 7.105048 -5.046351 0
M  V30 49 H 11.032478 10.834625 -5.822286 0
M  V30 50 H 9.686020 9.776103 -5.444870 0
M  V30 51 H 10.928532 10.091887 -4.226571 0
M  V30 52 H 9.051363 8.107043 -6.898197 0
M  V30 53 H 8.487120 7.686427 -9.259284 0
M  V30 54 H 9.689279 -0.285016 -14.645740 0
M  V30 END ATOM
M  V30 BEGIN BOND
M  V30 1 1 2 1
M  V30 2 1 3 2
M  V30 3 1 4 3
M  V30 4 2 5 4
M  V30 5 1 6 5 CFG=1
M  V30 6 1 7 6
M  V30 7 1 8 7
M  V30 8 1 9 8
M  V30 9 1 10 6
M  V30 10 1 10 9
M  V30 11 1 11 6
M  V30 12 1 11 10
M  V30 13 1 12 5
M  V30 14 2 13 12
M  V30 15 2 14 3
M  V30 16 1 14 13
M  V30 17 1 15 14
M  V30 18 1 16 15
M  V30 19 2 17 16
M  V30 20 2 18 16
M  V30 21 1 19 16
M  V30 22 1 20 19
M  V30 23 2 21 20
M  V30 24 1 22 21
M  V30 25 1 23 22
M  V30 26 1 24 23
M  V30 27 1 25 23
M  V30 28 2 26 22
M  V30 29 2 27 19
M  V30 30 1 27 26
M  V30 31 1 28 1
M  V30 32 1 29 1
M  V30 33 1 30 1
M  V30 34 1 31 4
M  V30 35 1 32 7
M  V30 36 1 33 7
M  V30 37 1 34 8
M  V30 38 1 35 9
M  V30 39 1 36 9
M  V30 40 1 10 37 CFG=1
M  V30 41 1 38 11
M  V30 42 1 39 11
M  V30 43 1 40 12
M  V30 44 1 41 13
M  V30 45 1 42 15
M  V30 46 1 43 20
M  V30 47 1 44 21
M  V30 48 1 45 23
M  V30 49 1 46 24
M  V30 50 1 47 24
M  V30 51 1 48 24
M  V30 52 1 49 25
M  V30 53 1 50 25
M  V30 54 1 51 25
M  V30 55 1 52 26
M  V30 56 1 53 27
M  V30 57 1 54 8
M  V30 END BOND
M  V30 END CTAB
M  END
>  <b_m_subgroup_collapsed>  (2726) 
0

>  <r_i_docking_score>  (2726) 
-4.0644508992241297

>  <s_m_subgroup_title>  (2726) 
glide-dock_SP_D22_pv

>  <s_m_subgroupid>  (2726) 
glide-dock_SP_D22_pv

>  <Molecule ChEMBL ID>  (2726) 
CHEMBL1224699

>  <Standard Type>  (2726) 
Ki

>  <Standard Value>  (2726) 
50.12

>  <label>  (2726) 
1

$$$$
CHEMBL651
     RDKit          3D

  0  0  0  0  0  0  0  0  0  0999 V3000
M  V30 BEGIN CTAB
M  V30 COUNTS 51 52 0 0 1
M  V30 BEGIN ATOM
M  V30 1 C 10.677102 1.472819 -14.726436 0
M  V30 2 C 10.566731 2.999345 -14.835350 0
M  V30 3 C 10.056907 3.696353 -13.550292 0
M  V30 4 O 9.683831 2.981417 -12.646694 0
M  V30 5 C 9.888624 5.249349 -13.476965 0
M  V30 6 C 8.398015 5.573661 -13.855129 0
M  V30 7 C 7.255191 5.777359 -12.814053 0 CFG=2
M  V30 8 C 6.091380 4.793110 -13.047660 0
M  V30 9 N 6.833178 7.215278 -12.646509 0 CHG=1
M  V30 10 C 7.837123 8.256371 -12.315192 0
M  V30 11 C 5.650803 7.746265 -13.312640 0
M  V30 12 C 10.096966 5.891308 -12.056470 0
M  V30 13 C 9.674766 5.277637 -10.840302 0
M  V30 14 C 9.781301 5.921875 -9.593610 0
M  V30 15 C 10.420022 7.167281 -9.500243 0
M  V30 16 C 10.901679 7.780160 -10.667113 0
M  V30 17 C 10.710252 7.168432 -11.920273 0
M  V30 18 C 10.884698 5.770898 -14.574903 0
M  V30 19 C 10.488420 5.770255 -15.943488 0
M  V30 20 C 11.365503 6.172188 -16.969328 0
M  V30 21 C 12.660130 6.611360 -16.654594 0
M  V30 22 C 13.088138 6.592729 -15.316273 0
M  V30 23 C 12.227984 6.128803 -14.296134 0
M  V30 24 H 11.176408 1.058258 -15.600008 0
M  V30 25 H 11.254683 1.187930 -13.851172 0
M  V30 26 H 9.695718 1.006599 -14.646748 0
M  V30 27 H 9.894174 3.240140 -15.657471 0
M  V30 28 H 11.554077 3.387941 -15.085615 0
M  V30 29 H 8.441260 6.555523 -14.251026 0
M  V30 30 H 8.048518 4.923775 -14.650989 0
M  V30 31 H 7.546965 5.499628 -11.815989 0
M  V30 32 H 6.450237 3.764369 -12.989629 0
M  V30 33 H 5.320363 4.903106 -12.284571 0
M  V30 34 H 5.623196 4.912328 -14.024010 0
M  V30 35 H 8.613242 8.409004 -13.042506 0
M  V30 36 H 7.354140 9.224971 -12.187252 0
M  V30 37 H 8.317781 8.019615 -11.371676 0
M  V30 38 H 5.937178 8.175050 -14.247847 0
M  V30 39 H 4.927582 6.962227 -13.472798 0
M  V30 40 H 5.181518 8.520129 -12.705112 0
M  V30 41 H 9.177138 4.323071 -10.828913 0
M  V30 42 H 9.400501 5.443775 -8.702945 0
M  V30 43 H 10.534347 7.654034 -8.543307 0
M  V30 44 H 11.381510 8.745136 -10.610546 0
M  V30 45 H 11.024508 7.734976 -12.783380 0
M  V30 46 H 9.508530 5.422832 -16.235945 0
M  V30 47 H 11.038041 6.160529 -17.999344 0
M  V30 48 H 13.326986 6.945594 -17.435915 0
M  V30 49 H 14.090047 6.922960 -15.086233 0
M  V30 50 H 12.614897 6.071400 -13.289850 0
M  V30 51 H 6.466917 7.171971 -11.689432 0
M  V30 END ATOM
M  V30 BEGIN BOND
M  V30 1 1 2 1
M  V30 2 1 3 2
M  V30 3 2 4 3
M  V30 4 1 5 3
M  V30 5 1 6 5
M  V30 6 1 7 6
M  V30 7 1 8 7
M  V30 8 1 9 7
M  V30 9 1 10 9
M  V30 10 1 11 9
M  V30 11 1 12 5
M  V30 12 2 13 12
M  V30 13 1 14 13
M  V30 14 2 15 14
M  V30 15 1 16 15
M  V30 16 1 17 12
M  V30 17 2 17 16
M  V30 18 1 18 5
M  V30 19 2 19 18
M  V30 20 1 20 19
M  V30 21 2 21 20
M  V30 22 1 22 21
M  V30 23 1 23 18
M  V30 24 2 23 22
M  V30 25 1 24 1
M  V30 26 1 25 1
M  V30 27 1 26 1
M  V30 28 1 27 2
M  V30 29 1 28 2
M  V30 30 1 29 6
M  V30 31 1 30 6
M  V30 32 1 7 31 CFG=1
M  V30 33 1 32 8
M  V30 34 1 33 8
M  V30 35 1 34 8
M  V30 36 1 35 10
M  V30 37 1 36 10
M  V30 38 1 37 10
M  V30 39 1 38 11
M  V30 40 1 39 11
M  V30 41 1 40 11
M  V30 42 1 41 13
M  V30 43 1 42 14
M  V30 44 1 43 15
M  V30 45 1 44 16
M  V30 46 1 45 17
M  V30 47 1 46 19
M  V30 48 1 47 20
M  V30 49 1 48 21
M  V30 50 1 49 22
M  V30 51 1 50 23
M  V30 52 1 51 9
M  V30 END BOND
M  V30 END CTAB
M  END
>  <b_m_subgroup_collapsed>  (2727) 
0

>  <r_i_docking_score>  (2727) 
-4.0551746356813396

>  <s_m_subgroup_title>  (2727) 
glide-dock_SP_D22_pv

>  <s_m_subgroupid>  (2727) 
glide-dock_SP_D22_pv

>  <Molecule ChEMBL ID>  (2727) 
CHEMBL651

>  <Standard Type>  (2727) 
Ki

>  <Standard Value>  (2727) 
100000.0

>  <label>  (2727) 
0

$$$$
CHEMBL2159477
     RDKit          3D

  0  0  0  0  0  0  0  0  0  0999 V3000
M  V30 BEGIN CTAB
M  V30 COUNTS 61 64 0 0 1
M  V30 BEGIN ATOM
M  V30 1 C 10.214279 6.572864 -5.798619 0
M  V30 2 C 10.076162 7.921619 -6.508401 0
M  V30 3 C 8.621832 8.327249 -6.757315 0
M  V30 4 C 10.862196 7.908308 -7.804628 0
M  V30 5 C 12.099419 8.571439 -7.817101 0
M  V30 6 C 12.878444 8.570065 -8.976381 0
M  V30 7 C 12.372494 8.038001 -10.172265 0
M  V30 8 C 11.139482 7.368789 -10.167284 0
M  V30 9 C 10.409826 7.222239 -8.962614 0
M  V30 10 O 9.289305 6.424408 -8.858017 0
M  V30 11 C 9.119726 5.347034 -9.764161 0
M  V30 12 C 8.268078 5.786273 -10.958001 0
M  V30 13 N 8.525691 4.930234 -12.138361 0 CFG=2 CHG=1
M  V30 14 C 9.059150 5.652458 -13.307863 0
M  V30 15 C 8.821725 4.739336 -14.511881 0
M  V30 16 C 7.772788 3.710531 -14.043431 0 CFG=1
M  V30 17 N 8.365407 2.365740 -14.030968 0
M  V30 18 S 8.262505 1.313572 -15.398924 0
M  V30 19 O 9.287628 0.277619 -15.201187 0
M  V30 20 O 8.279999 2.173733 -16.591970 0
M  V30 21 C 6.639378 0.537620 -15.271488 0
M  V30 22 C 5.916727 0.643160 -14.062657 0
M  V30 23 C 4.638190 0.070460 -13.953498 0
M  V30 24 C 4.088191 -0.640757 -15.031042 0
M  V30 25 C 4.815474 -0.765842 -16.229961 0
M  V30 26 C 4.253576 -1.487706 -17.302187 0
M  V30 27 C 4.978448 -1.587620 -18.501217 0
M  V30 28 C 6.237438 -0.968521 -18.572119 0
M  V30 29 N 6.781553 -0.280129 -17.549049 0
M  V30 30 C 6.103448 -0.172173 -16.380699 0
M  V30 31 C 7.365047 4.174687 -12.638621 0
M  V30 32 H 11.260069 6.339464 -5.593195 0
M  V30 33 H 9.686431 6.568767 -4.850090 0
M  V30 34 H 9.810719 5.772573 -6.417579 0
M  V30 35 H 10.505753 8.684838 -5.857778 0
M  V30 36 H 8.549445 9.189933 -7.421018 0
M  V30 37 H 8.085995 7.508615 -7.216086 0
M  V30 38 H 8.087132 8.563843 -5.846982 0
M  V30 39 H 12.485108 9.039180 -6.923357 0
M  V30 40 H 13.876006 8.972301 -8.944509 0
M  V30 41 H 12.954300 8.098390 -11.079925 0
M  V30 42 H 10.803503 6.924185 -11.089059 0
M  V30 43 H 8.616071 4.534609 -9.239269 0
M  V30 44 H 10.083771 4.943248 -10.075718 0
M  V30 45 H 8.486530 6.828574 -11.194058 0
M  V30 46 H 7.216202 5.771745 -10.675166 0
M  V30 47 H 10.109770 5.917248 -13.182810 0
M  V30 48 H 8.487773 6.572177 -13.443849 0
M  V30 49 H 9.752970 4.255205 -14.810835 0
M  V30 50 H 8.487188 5.328363 -15.364740 0
M  V30 51 H 6.870237 3.693110 -14.647024 0
M  V30 52 H 9.264741 2.289416 -13.553926 0
M  V30 53 H 6.320568 1.170173 -13.213538 0
M  V30 54 H 4.071950 0.178319 -13.046597 0
M  V30 55 H 3.107112 -1.086036 -14.937518 0
M  V30 56 H 3.286618 -1.962927 -17.209629 0
M  V30 57 H 4.580697 -2.134537 -19.343767 0
M  V30 58 H 6.825902 -1.027617 -19.476156 0
M  V30 59 H 6.517747 4.858429 -12.726535 0
M  V30 60 H 7.048672 3.374299 -11.971786 0
M  V30 61 H 9.218256 4.242893 -11.877202 0
M  V30 END ATOM
M  V30 BEGIN BOND
M  V30 1 1 2 1
M  V30 2 1 3 2
M  V30 3 1 4 2
M  V30 4 2 5 4
M  V30 5 1 6 5
M  V30 6 2 7 6
M  V30 7 1 8 7
M  V30 8 1 9 4
M  V30 9 2 9 8
M  V30 10 1 10 9
M  V30 11 1 11 10
M  V30 12 1 12 11
M  V30 13 1 13 12
M  V30 14 1 14 13
M  V30 15 1 15 14
M  V30 16 1 16 15
M  V30 17 1 17 16
M  V30 18 1 18 17
M  V30 19 2 19 18
M  V30 20 2 20 18
M  V30 21 1 21 18
M  V30 22 2 22 21
M  V30 23 1 23 22
M  V30 24 2 24 23
M  V30 25 1 25 24
M  V30 26 2 26 25
M  V30 27 1 27 26
M  V30 28 2 28 27
M  V30 29 1 29 28
M  V30 30 1 30 21
M  V30 31 1 30 25
M  V30 32 2 30 29
M  V30 33 1 31 13
M  V30 34 1 31 16
M  V30 35 1 32 1
M  V30 36 1 33 1
M  V30 37 1 34 1
M  V30 38 1 35 2
M  V30 39 1 36 3
M  V30 40 1 37 3
M  V30 41 1 38 3
M  V30 42 1 39 5
M  V30 43 1 40 6
M  V30 44 1 41 7
M  V30 45 1 42 8
M  V30 46 1 43 11
M  V30 47 1 44 11
M  V30 48 1 45 12
M  V30 49 1 46 12
M  V30 50 1 47 14
M  V30 51 1 48 14
M  V30 52 1 49 15
M  V30 53 1 50 15
M  V30 54 1 16 51 CFG=3
M  V30 55 1 52 17
M  V30 56 1 53 22
M  V30 57 1 54 23
M  V30 58 1 55 24
M  V30 59 1 56 26
M  V30 60 1 57 27
M  V30 61 1 58 28
M  V30 62 1 59 31
M  V30 63 1 60 31
M  V30 64 1 13 61 CFG=1
M  V30 END BOND
M  V30 END CTAB
M  END
>  <b_m_subgroup_collapsed>  (2728) 
0

>  <r_i_docking_score>  (2728) 
-4.0515285027807204

>  <s_m_subgroup_title>  (2728) 
glide-dock_SP_D22_pv

>  <s_m_subgroupid>  (2728) 
glide-dock_SP_D22_pv

>  <Molecule ChEMBL ID>  (2728) 
CHEMBL2159477

>  <Standard Type>  (2728) 
Ki

>  <Standard Value>  (2728) 
10.0

>  <label>  (2728) 
1

$$$$
CHEMBL377452
     RDKit          3D

  0  0  0  0  0  0  0  0  0  0999 V3000
M  V30 BEGIN CTAB
M  V30 COUNTS 59 63 0 0 1
M  V30 BEGIN ATOM
M  V30 1 C 10.774907 0.727916 -15.744753 0
M  V30 2 C 9.283464 0.692371 -16.027386 0
M  V30 3 C 8.410880 1.223190 -15.052244 0
M  V30 4 C 7.017436 1.179719 -15.238865 0
M  V30 5 C 6.486027 0.620614 -16.413702 0
M  V30 6 C 7.339461 0.108190 -17.403669 0
M  V30 7 C 8.735522 0.124062 -17.210110 0
M  V30 8 S 9.740852 -0.663693 -18.479218 0
M  V30 9 O 8.864472 -1.428198 -19.379597 0
M  V30 10 O 10.885859 -1.330267 -17.846914 0
M  V30 11 N 10.381613 0.673029 -19.419991 0
M  V30 12 C 9.569092 1.480095 -20.227667 0
M  V30 13 C 8.848035 0.887892 -21.288139 0
M  V30 14 C 8.065501 1.669073 -22.156549 0
M  V30 15 C 8.000211 3.060383 -21.974920 0
M  V30 16 Cl 7.050497 4.025279 -23.047007 0
M  V30 17 C 8.717029 3.661092 -20.924122 0
M  V30 18 C 9.518929 2.890698 -20.052599 0
M  V30 19 N 10.162210 3.591303 -19.022898 0
M  V30 20 C 11.373297 3.359862 -18.618982 0
M  V30 21 N 11.945086 4.146673 -17.613033 0
M  V30 22 C 11.791897 5.601024 -17.596361 0
M  V30 23 C 11.294353 6.101478 -16.229340 0
M  V30 24 N 12.159327 5.600004 -15.134425 0 CHG=1
M  V30 25 C 11.765257 6.129092 -13.811055 0
M  V30 26 C 12.246085 4.122614 -15.158077 0
M  V30 27 C 12.768865 3.630718 -16.519880 0
M  V30 28 C 12.250746 2.255638 -19.165894 0
M  V30 29 C 13.631445 2.512226 -19.359215 0
M  V30 30 C 14.504850 1.504175 -19.809893 0
M  V30 31 C 14.008385 0.218584 -20.076357 0
M  V30 32 C 12.637215 -0.045773 -19.915281 0
M  V30 33 C 11.751457 0.961294 -19.472387 0
M  V30 34 H 11.348531 0.946195 -16.641012 0
M  V30 35 H 11.017900 1.481576 -14.997849 0
M  V30 36 H 11.100960 -0.229986 -15.347640 0
M  V30 37 H 8.808224 1.647037 -14.140773 0
M  V30 38 H 6.358869 1.570888 -14.478008 0
M  V30 39 H 5.418358 0.572903 -16.560261 0
M  V30 40 H 6.915069 -0.324292 -18.297945 0
M  V30 41 H 8.910745 -0.173750 -21.466719 0
M  V30 42 H 7.527165 1.200415 -22.967363 0
M  V30 43 H 8.650540 4.732141 -20.790356 0
M  V30 44 H 12.761759 6.050515 -17.825953 0
M  V30 45 H 11.110139 5.936043 -18.383730 0
M  V30 46 H 11.289797 7.187603 -16.218433 0
M  V30 47 H 10.267313 5.771056 -16.068529 0
M  V30 48 H 10.778635 5.765581 -13.522784 0
M  V30 49 H 12.483175 5.822365 -13.047482 0
M  V30 50 H 11.738625 7.218278 -13.823386 0
M  V30 51 H 12.896902 3.773555 -14.357716 0
M  V30 52 H 11.257944 3.705709 -14.968001 0
M  V30 53 H 12.806391 2.542364 -16.533392 0
M  V30 54 H 13.795680 3.971413 -16.661081 0
M  V30 55 H 14.037910 3.492840 -19.158075 0
M  V30 56 H 15.555399 1.717269 -19.950655 0
M  V30 57 H 14.672642 -0.561189 -20.419945 0
M  V30 58 H 12.259067 -1.027994 -20.155666 0
M  V30 59 H 13.091022 5.950454 -15.316869 0
M  V30 END ATOM
M  V30 BEGIN BOND
M  V30 1 1 2 1
M  V30 2 2 3 2
M  V30 3 1 4 3
M  V30 4 2 5 4
M  V30 5 1 6 5
M  V30 6 1 7 2
M  V30 7 2 7 6
M  V30 8 1 8 7
M  V30 9 2 9 8
M  V30 10 2 10 8
M  V30 11 1 11 8
M  V30 12 1 12 11
M  V30 13 1 13 12
M  V30 14 2 14 13
M  V30 15 1 15 14
M  V30 16 1 16 15
M  V30 17 2 17 15
M  V30 18 2 18 12
M  V30 19 1 18 17
M  V30 20 1 19 18
M  V30 21 2 20 19
M  V30 22 1 21 20
M  V30 23 1 22 21
M  V30 24 1 23 22
M  V30 25 1 24 23
M  V30 26 1 25 24
M  V30 27 1 26 24
M  V30 28 1 27 21
M  V30 29 1 27 26
M  V30 30 1 28 20
M  V30 31 2 29 28
M  V30 32 1 30 29
M  V30 33 2 31 30
M  V30 34 1 32 31
M  V30 35 1 33 11
M  V30 36 1 33 28
M  V30 37 2 33 32
M  V30 38 1 34 1
M  V30 39 1 35 1
M  V30 40 1 36 1
M  V30 41 1 37 3
M  V30 42 1 38 4
M  V30 43 1 39 5
M  V30 44 1 40 6
M  V30 45 1 41 13
M  V30 46 1 42 14
M  V30 47 1 43 17
M  V30 48 1 44 22
M  V30 49 1 45 22
M  V30 50 1 46 23
M  V30 51 1 47 23
M  V30 52 1 48 25
M  V30 53 1 49 25
M  V30 54 1 50 25
M  V30 55 1 51 26
M  V30 56 1 52 26
M  V30 57 1 53 27
M  V30 58 1 54 27
M  V30 59 1 55 29
M  V30 60 1 56 30
M  V30 61 1 57 31
M  V30 62 1 58 32
M  V30 63 1 59 24
M  V30 END BOND
M  V30 END CTAB
M  END
>  <b_m_subgroup_collapsed>  (2729) 
0

>  <r_i_docking_score>  (2729) 
-3.7721199437904001

>  <s_m_subgroup_title>  (2729) 
glide-dock_SP_D22_pv

>  <s_m_subgroupid>  (2729) 
glide-dock_SP_D22_pv

>  <Molecule ChEMBL ID>  (2729) 
CHEMBL377452

>  <Standard Type>  (2729) 
Ki

>  <Standard Value>  (2729) 
63.0

>  <label>  (2729) 
1

$$$$
CHEMBL4238124
     RDKit          3D

  0  0  0  0  0  0  0  0  0  0999 V3000
M  V30 BEGIN CTAB
M  V30 COUNTS 68 73 0 0 1
M  V30 BEGIN ATOM
M  V30 1 O 7.094554 2.572251 -14.918934 0
M  V30 2 S 7.713976 1.260924 -15.150742 0
M  V30 3 O 7.573270 0.190374 -14.149184 0
M  V30 4 C 7.128840 0.634149 -16.758701 0
M  V30 5 C 7.867515 0.926624 -17.927248 0
M  V30 6 C 7.474116 0.442069 -19.180407 0
M  V30 7 C 6.327918 -0.354405 -19.282352 0
M  V30 8 C 5.561960 -0.674101 -18.145458 0
M  V30 9 N 4.475834 -1.453539 -18.318521 0
M  V30 10 C 3.732358 -1.779888 -17.250332 0
M  V30 11 C 4.010490 -1.314017 -15.955080 0
M  V30 12 C 5.135800 -0.493026 -15.762854 0
M  V30 13 C 5.957637 -0.167908 -16.869556 0
M  V30 14 N 9.426025 1.516186 -15.317865 0
M  V30 15 C 10.283036 0.342883 -15.502092 0
M  V30 16 C 11.144446 0.686403 -16.706793 0
M  V30 17 C 11.309189 2.194958 -16.621960 0
M  V30 18 C 10.013088 2.710199 -15.965622 0 CFG=2
M  V30 19 C 10.254814 3.868107 -14.970498 0
M  V30 20 C 10.574903 5.221134 -15.649039 0
M  V30 21 N 11.936209 5.242502 -16.190941 0
M  V30 22 C 12.765840 6.289473 -15.582957 0
M  V30 23 C 14.231820 6.150759 -16.056887 0
M  V30 24 N 14.332625 6.120438 -17.514359 0
M  V30 25 C 14.845202 7.257147 -18.165451 0
M  V30 26 C 13.975104 8.219544 -18.723995 0
M  V30 27 C 14.486401 9.370748 -19.347990 0
M  V30 28 C 15.874717 9.564023 -19.439346 0
M  V30 29 C 16.759329 8.609286 -18.904558 0
M  V30 30 C 16.248020 7.457215 -18.246916 0
M  V30 31 O 17.108644 6.538899 -17.679031 0
M  V30 32 C 18.440716 7.008500 -17.488564 0
M  V30 33 C 18.924389 7.691867 -18.772476 0
M  V30 34 O 18.112083 8.828936 -19.024933 0
M  V30 35 C 13.359207 5.271110 -18.195351 0
M  V30 36 C 11.931076 5.478929 -17.638889 0
M  V30 37 H 8.758366 1.518532 -17.902452 0
M  V30 38 H 8.054433 0.671598 -20.061937 0
M  V30 39 H 6.024385 -0.735712 -20.246246 0
M  V30 40 H 2.893794 -2.424665 -17.446587 0
M  V30 41 H 3.374371 -1.596032 -15.129054 0
M  V30 42 H 5.328223 -0.127549 -14.766316 0
M  V30 43 H 10.886818 0.205859 -14.603061 0
M  V30 44 H 9.699164 -0.566689 -15.660582 0
M  V30 45 H 12.095945 0.166927 -16.691822 0
M  V30 46 H 10.644768 0.405081 -17.634596 0
M  V30 47 H 12.170581 2.423527 -15.993317 0
M  V30 48 H 11.492350 2.631086 -17.606270 0
M  V30 49 H 9.325462 3.083868 -16.719280 0
M  V30 50 H 9.347982 4.005990 -14.383627 0
M  V30 51 H 11.029414 3.604080 -14.250643 0
M  V30 52 H 9.835141 5.423999 -16.427574 0
M  V30 53 H 10.451891 6.013249 -14.911938 0
M  V30 54 H 12.372608 7.276618 -15.833411 0
M  V30 55 H 12.733879 6.195346 -14.496286 0
M  V30 56 H 14.829153 6.969931 -15.657579 0
M  V30 57 H 14.658613 5.230924 -15.664752 0
M  V30 58 H 12.906529 8.100668 -18.654594 0
M  V30 59 H 13.810989 10.108304 -19.756174 0
M  V30 60 H 16.263296 10.448050 -19.921427 0
M  V30 61 H 18.485081 7.700837 -16.648321 0
M  V30 62 H 19.089283 6.172224 -17.238434 0
M  V30 63 H 19.958767 8.015395 -18.665705 0
M  V30 64 H 18.884546 7.007597 -19.621141 0
M  V30 65 H 13.381834 5.456593 -19.271353 0
M  V30 66 H 13.659408 4.231153 -18.049936 0
M  V30 67 H 11.254110 4.783051 -18.134811 0
M  V30 68 H 11.555063 6.478435 -17.865200 0
M  V30 END ATOM
M  V30 BEGIN BOND
M  V30 1 2 2 1
M  V30 2 2 3 2
M  V30 3 1 4 2
M  V30 4 1 5 4
M  V30 5 2 6 5
M  V30 6 1 7 6
M  V30 7 2 8 7
M  V30 8 1 9 8
M  V30 9 2 10 9
M  V30 10 1 11 10
M  V30 11 2 12 11
M  V30 12 2 13 4
M  V30 13 1 13 8
M  V30 14 1 13 12
M  V30 15 1 14 2
M  V30 16 1 15 14
M  V30 17 1 16 15
M  V30 18 1 17 16
M  V30 19 1 18 14
M  V30 20 1 18 17
M  V30 21 1 19 18
M  V30 22 1 20 19
M  V30 23 1 21 20
M  V30 24 1 22 21
M  V30 25 1 23 22
M  V30 26 1 24 23
M  V30 27 1 25 24
M  V30 28 2 26 25
M  V30 29 1 27 26
M  V30 30 2 28 27
M  V30 31 1 29 28
M  V30 32 1 30 25
M  V30 33 2 30 29
M  V30 34 1 31 30
M  V30 35 1 32 31
M  V30 36 1 33 32
M  V30 37 1 34 29
M  V30 38 1 34 33
M  V30 39 1 35 24
M  V30 40 1 36 21
M  V30 41 1 36 35
M  V30 42 1 37 5
M  V30 43 1 38 6
M  V30 44 1 39 7
M  V30 45 1 40 10
M  V30 46 1 41 11
M  V30 47 1 42 12
M  V30 48 1 43 15
M  V30 49 1 44 15
M  V30 50 1 45 16
M  V30 51 1 46 16
M  V30 52 1 47 17
M  V30 53 1 48 17
M  V30 54 1 18 49 CFG=3
M  V30 55 1 50 19
M  V30 56 1 51 19
M  V30 57 1 52 20
M  V30 58 1 53 20
M  V30 59 1 54 22
M  V30 60 1 55 22
M  V30 61 1 56 23
M  V30 62 1 57 23
M  V30 63 1 58 26
M  V30 64 1 59 27
M  V30 65 1 60 28
M  V30 66 1 61 32
M  V30 67 1 62 32
M  V30 68 1 63 33
M  V30 69 1 64 33
M  V30 70 1 65 35
M  V30 71 1 66 35
M  V30 72 1 67 36
M  V30 73 1 68 36
M  V30 END BOND
M  V30 END CTAB
M  END
>  <b_m_subgroup_collapsed>  (2730) 
0

>  <r_i_docking_score>  (2730) 
-3.4828821991749299

>  <s_m_subgroup_title>  (2730) 
glide-dock_SP_D22_pv

>  <s_m_subgroupid>  (2730) 
glide-dock_SP_D22_pv

>  <Molecule ChEMBL ID>  (2730) 
CHEMBL4238124

>  <Standard Type>  (2730) 
Ki

>  <Standard Value>  (2730) 
12.0

>  <label>  (2730) 
1

$$$$
CHEMBL455318
     RDKit          3D

  0  0  0  0  0  0  0  0  0  0999 V3000
M  V30 BEGIN CTAB
M  V30 COUNTS 94 101 0 0 1
M  V30 BEGIN ATOM
M  V30 1 C 8.910033 8.324646 -7.683525 0
M  V30 2 C 9.878534 7.292207 -8.277742 0
M  V30 3 C 9.268261 6.419318 -9.400416 0
M  V30 4 N 8.885959 7.133763 -10.660707 0 CFG=1 CHG=1
M  V30 5 C 9.834634 8.172218 -11.116802 0
M  V30 6 C 11.129942 7.481322 -11.539335 0
M  V30 7 C 10.949785 6.462049 -12.647027 0
M  V30 8 C 11.968519 6.085176 -13.533030 0
M  V30 9 C 11.788150 4.979318 -14.369274 0
M  V30 10 C 10.584908 4.255670 -14.325327 0
M  V30 11 C 9.497934 4.603922 -13.477229 0
M  V30 12 C 9.730985 5.733465 -12.648087 0
M  V30 13 C 8.536137 6.246567 -11.811608 0 CFG=1
M  V30 14 C 7.483331 5.180456 -11.448040 0
M  V30 15 C 7.210396 4.172057 -12.543137 0
M  V30 16 C 5.983214 3.477078 -12.540226 0
M  V30 17 C 5.761228 2.425806 -13.447207 0
M  V30 18 C 6.760613 2.071859 -14.375448 0
M  V30 19 O 6.522123 1.022423 -15.236787 0
M  V30 20 C 6.833785 1.092930 -16.557095 0
M  V30 21 O 7.287476 2.073702 -17.158672 0
M  V30 22 C 6.511824 -0.206409 -17.295076 0
M  V30 23 C 7.524208 -0.474931 -18.425320 0
M  V30 24 C 7.054529 -0.014057 -19.824547 0
M  V30 25 O 5.856814 0.098725 -20.088200 0
M  V30 26 O 8.026455 0.176631 -20.760418 0
M  V30 27 C 9.307742 0.521449 -20.401163 0
M  V30 28 C 10.205171 -0.503023 -20.023886 0
M  V30 29 C 11.495047 -0.194259 -19.558464 0
M  V30 30 C 11.887158 1.149855 -19.459642 0
M  V30 31 C 11.013567 2.177685 -19.878853 0
M  V30 32 C 9.736802 1.880216 -20.413931 0
M  V30 33 C 8.945460 3.011212 -20.975445 0
M  V30 34 C 8.009320 2.851035 -22.032196 0
M  V30 35 C 7.342436 3.930301 -22.644129 0
M  V30 36 C 7.604580 5.241198 -22.222605 0
M  V30 37 C 8.521559 5.471979 -21.179903 0
M  V30 38 C 9.171455 4.358735 -20.579742 0
M  V30 39 C 10.211334 4.540425 -19.444998 0 CFG=1
M  V30 40 C 11.434478 3.628310 -19.718885 0
M  V30 41 N 10.626413 5.950072 -19.177917 0 CFG=2 CHG=1
M  V30 42 C 11.353842 6.154673 -17.892740 0
M  V30 43 C 12.457937 7.220430 -18.030369 0
M  V30 44 C 13.163013 7.516715 -16.700182 0
M  V30 45 C 9.485136 6.878110 -19.286114 0
M  V30 46 C 8.948101 6.849648 -20.706831 0
M  V30 47 C 7.978394 2.788085 -14.374897 0
M  V30 48 C 8.220680 3.852822 -13.475902 0
M  V30 49 H 9.418113 8.946758 -6.947642 0
M  V30 50 H 8.086864 7.830582 -7.166444 0
M  V30 51 H 8.487465 8.985363 -8.442760 0
M  V30 52 H 10.797759 7.780687 -8.602383 0
M  V30 53 H 10.189994 6.628971 -7.468514 0
M  V30 54 H 9.967892 5.616597 -9.643230 0
M  V30 55 H 8.380894 5.939296 -8.990029 0
M  V30 56 H 9.402873 8.699024 -11.968482 0
M  V30 57 H 10.009083 8.943385 -10.361492 0
M  V30 58 H 11.899107 8.172830 -11.855795 0
M  V30 59 H 11.581976 6.971255 -10.690623 0
M  V30 60 H 12.903786 6.622705 -13.537402 0
M  V30 61 H 12.580141 4.669994 -15.034282 0
M  V30 62 H 10.527432 3.411311 -14.989258 0
M  V30 63 H 8.023116 6.901833 -12.516983 0
M  V30 64 H 7.815571 4.572807 -10.608003 0
M  V30 65 H 6.554832 5.665089 -11.142283 0
M  V30 66 H 5.229947 3.723471 -11.807370 0
M  V30 67 H 4.824799 1.884870 -13.425095 0
M  V30 68 H 6.551587 -1.032387 -16.581776 0
M  V30 69 H 5.485038 -0.169978 -17.665106 0
M  V30 70 H 8.483062 -0.040344 -18.147511 0
M  V30 71 H 7.693998 -1.551273 -18.488487 0
M  V30 72 H 9.886135 -1.536190 -20.062962 0
M  V30 73 H 12.169479 -0.983177 -19.254883 0
M  V30 74 H 12.867236 1.390249 -19.072453 0
M  V30 75 H 7.815553 1.870060 -22.437454 0
M  V30 76 H 6.652045 3.753788 -23.457403 0
M  V30 77 H 7.109759 6.070807 -22.704512 0
M  V30 78 H 9.712848 4.187596 -18.536703 0
M  V30 79 H 12.177132 3.682424 -18.924530 0
M  V30 80 H 11.935439 3.943580 -20.636454 0
M  V30 81 H 10.651744 6.437314 -17.106501 0
M  V30 82 H 11.810919 5.233911 -17.530304 0
M  V30 83 H 13.194985 6.892210 -18.764948 0
M  V30 84 H 12.043549 8.154972 -18.412382 0
M  V30 85 H 13.920455 8.290751 -16.827854 0
M  V30 86 H 13.650781 6.625234 -16.303778 0
M  V30 87 H 12.459521 7.880122 -15.949737 0
M  V30 88 H 8.702924 6.611585 -18.572641 0
M  V30 89 H 9.803081 7.892592 -19.046850 0
M  V30 90 H 9.700454 7.227973 -21.402292 0
M  V30 91 H 8.092714 7.524180 -20.784927 0
M  V30 92 H 8.729657 2.484596 -15.085379 0
M  V30 93 H 7.990944 7.592823 -10.435345 0
M  V30 94 H 11.265510 6.194548 -19.921812 0
M  V30 END ATOM
M  V30 BEGIN BOND
M  V30 1 1 2 1
M  V30 2 1 3 2
M  V30 3 1 4 3
M  V30 4 1 5 4
M  V30 5 1 6 5
M  V30 6 1 7 6
M  V30 7 1 8 7
M  V30 8 2 9 8
M  V30 9 1 10 9
M  V30 10 2 11 10
M  V30 11 2 12 7
M  V30 12 1 12 11
M  V30 13 1 13 4
M  V30 14 1 13 12
M  V30 15 1 14 13
M  V30 16 1 15 14
M  V30 17 2 16 15
M  V30 18 1 17 16
M  V30 19 2 18 17
M  V30 20 1 19 18
M  V30 21 1 20 19
M  V30 22 2 21 20
M  V30 23 1 22 20
M  V30 24 1 23 22
M  V30 25 1 24 23
M  V30 26 2 25 24
M  V30 27 1 26 24
M  V30 28 1 27 26
M  V30 29 2 28 27
M  V30 30 1 29 28
M  V30 31 2 30 29
M  V30 32 1 31 30
M  V30 33 1 32 27
M  V30 34 2 32 31
M  V30 35 1 33 32
M  V30 36 2 34 33
M  V30 37 1 35 34
M  V30 38 2 36 35
M  V30 39 1 37 36
M  V30 40 1 38 33
M  V30 41 2 38 37
M  V30 42 1 39 38
M  V30 43 1 40 31
M  V30 44 1 40 39
M  V30 45 1 41 39
M  V30 46 1 42 41
M  V30 47 1 43 42
M  V30 48 1 44 43
M  V30 49 1 45 41
M  V30 50 1 46 37
M  V30 51 1 46 45
M  V30 52 1 47 18
M  V30 53 1 48 11
M  V30 54 1 48 15
M  V30 55 2 48 47
M  V30 56 1 49 1
M  V30 57 1 50 1
M  V30 58 1 51 1
M  V30 59 1 52 2
M  V30 60 1 53 2
M  V30 61 1 54 3
M  V30 62 1 55 3
M  V30 63 1 56 5
M  V30 64 1 57 5
M  V30 65 1 58 6
M  V30 66 1 59 6
M  V30 67 1 60 8
M  V30 68 1 61 9
M  V30 69 1 62 10
M  V30 70 1 13 63 CFG=3
M  V30 71 1 64 14
M  V30 72 1 65 14
M  V30 73 1 66 16
M  V30 74 1 67 17
M  V30 75 1 68 22
M  V30 76 1 69 22
M  V30 77 1 70 23
M  V30 78 1 71 23
M  V30 79 1 72 28
M  V30 80 1 73 29
M  V30 81 1 74 30
M  V30 82 1 75 34
M  V30 83 1 76 35
M  V30 84 1 77 36
M  V30 85 1 39 78 CFG=1
M  V30 86 1 79 40
M  V30 87 1 80 40
M  V30 88 1 81 42
M  V30 89 1 82 42
M  V30 90 1 83 43
M  V30 91 1 84 43
M  V30 92 1 85 44
M  V30 93 1 86 44
M  V30 94 1 87 44
M  V30 95 1 88 45
M  V30 96 1 89 45
M  V30 97 1 90 46
M  V30 98 1 91 46
M  V30 99 1 92 47
M  V30 100 1 4 93 CFG=1
M  V30 101 1 41 94 CFG=3
M  V30 END BOND
M  V30 END CTAB
M  END
>  <b_m_subgroup_collapsed>  (2731) 
0

>  <r_i_docking_score>  (2731) 
-3.4319948306555998

>  <s_m_subgroup_title>  (2731) 
glide-dock_SP_D22_pv

>  <s_m_subgroupid>  (2731) 
glide-dock_SP_D22_pv

>  <Molecule ChEMBL ID>  (2731) 
CHEMBL455318

>  <Standard Type>  (2731) 
Ki

>  <Standard Value>  (2731) 
10000.0

>  <label>  (2731) 
0

$$$$
CHEMBL5094044
     RDKit          3D

  0  0  0  0  0  0  0  0  0  0999 V3000
M  V30 BEGIN CTAB
M  V30 COUNTS 50 51 0 0 1
M  V30 BEGIN ATOM
M  V30 1 C 10.182433 5.358707 -8.680044 0
M  V30 2 N 9.428975 4.199203 -9.223065 0 CHG=1
M  V30 3 C 8.458609 3.649553 -8.247510 0
M  V30 4 C 8.723836 4.539050 -10.480272 0
M  V30 5 C 9.442652 4.043580 -11.796597 0
M  V30 6 C 8.805386 4.526347 -13.135429 0
M  V30 7 C 9.790117 4.478593 -14.365974 0
M  V30 8 O 9.697888 5.372032 -15.201264 0
M  V30 9 N 10.703127 3.496065 -14.589218 0
M  V30 10 C 10.677478 2.144294 -14.040919 0
M  V30 11 C 11.709682 3.670525 -15.645002 0
M  V30 12 C 7.528874 3.647219 -13.448597 0
M  V30 13 C 7.488245 2.687844 -14.502563 0
M  V30 14 C 6.526883 1.660366 -14.539871 0
M  V30 15 C 5.526577 1.593600 -13.557809 0
M  V30 16 C 5.434862 2.623683 -12.613089 0
M  V30 17 C 6.400436 3.650585 -12.583482 0
M  V30 18 C 8.557176 6.021732 -12.838870 0
M  V30 19 C 9.575062 6.838349 -12.248081 0
M  V30 20 C 9.325153 8.178173 -11.901267 0
M  V30 21 C 8.087971 8.738047 -12.252185 0
M  V30 22 C 7.058578 7.929660 -12.751232 0
M  V30 23 C 7.291159 6.586605 -13.031599 0
M  V30 24 H 9.499507 6.131623 -8.322933 0
M  V30 25 H 10.822180 5.069085 -7.846634 0
M  V30 26 H 10.813479 5.816870 -9.441434 0
M  V30 27 H 7.895463 4.480386 -7.828169 0
M  V30 28 H 7.710692 2.968988 -8.646154 0
M  V30 29 H 8.886282 3.045365 -7.456266 0
M  V30 30 H 8.482326 5.597618 -10.416371 0
M  V30 31 H 7.737803 4.093136 -10.447426 0
M  V30 32 H 9.489010 2.971700 -11.849697 0
M  V30 33 H 10.484610 4.347538 -11.757493 0
M  V30 34 H 11.066557 2.168051 -13.046821 0
M  V30 35 H 9.694489 1.700563 -13.956462 0
M  V30 36 H 11.276631 1.445285 -14.623568 0
M  V30 37 H 11.259589 3.498274 -16.625162 0
M  V30 38 H 12.125238 4.681866 -15.639568 0
M  V30 39 H 12.554754 2.989794 -15.542921 0
M  V30 40 H 8.237508 2.643693 -15.276622 0
M  V30 41 H 6.570728 0.910210 -15.315371 0
M  V30 42 H 4.804710 0.790483 -13.567062 0
M  V30 43 H 4.672272 2.573716 -11.860480 0
M  V30 44 H 6.287166 4.398468 -11.813813 0
M  V30 45 H 10.565832 6.453075 -12.060963 0
M  V30 46 H 10.097342 8.789405 -11.462082 0
M  V30 47 H 7.885188 9.772572 -12.115242 0
M  V30 48 H 6.071913 8.332705 -12.920663 0
M  V30 49 H 6.462388 6.011685 -13.410254 0
M  V30 50 H 10.084372 3.464633 -9.449426 0
M  V30 END ATOM
M  V30 BEGIN BOND
M  V30 1 1 2 1
M  V30 2 1 3 2
M  V30 3 1 4 2
M  V30 4 1 5 4
M  V30 5 1 6 5
M  V30 6 1 7 6
M  V30 7 2 8 7
M  V30 8 1 9 7
M  V30 9 1 10 9
M  V30 10 1 11 9
M  V30 11 1 12 6
M  V30 12 2 13 12
M  V30 13 1 14 13
M  V30 14 2 15 14
M  V30 15 1 16 15
M  V30 16 1 17 12
M  V30 17 2 17 16
M  V30 18 1 18 6
M  V30 19 2 19 18
M  V30 20 1 20 19
M  V30 21 2 21 20
M  V30 22 1 22 21
M  V30 23 1 23 18
M  V30 24 2 23 22
M  V30 25 1 24 1
M  V30 26 1 25 1
M  V30 27 1 26 1
M  V30 28 1 27 3
M  V30 29 1 28 3
M  V30 30 1 29 3
M  V30 31 1 30 4
M  V30 32 1 31 4
M  V30 33 1 32 5
M  V30 34 1 33 5
M  V30 35 1 34 10
M  V30 36 1 35 10
M  V30 37 1 36 10
M  V30 38 1 37 11
M  V30 39 1 38 11
M  V30 40 1 39 11
M  V30 41 1 40 13
M  V30 42 1 41 14
M  V30 43 1 42 15
M  V30 44 1 43 16
M  V30 45 1 44 17
M  V30 46 1 45 19
M  V30 47 1 46 20
M  V30 48 1 47 21
M  V30 49 1 48 22
M  V30 50 1 49 23
M  V30 51 1 50 2
M  V30 END BOND
M  V30 END CTAB
M  END
>  <b_m_subgroup_collapsed>  (2732) 
0

>  <r_i_docking_score>  (2732) 
-3.4312002649759199

>  <s_m_subgroup_title>  (2732) 
glide-dock_SP_D22_pv

>  <s_m_subgroupid>  (2732) 
glide-dock_SP_D22_pv

>  <Molecule ChEMBL ID>  (2732) 
CHEMBL5094044

>  <Standard Type>  (2732) 
Ki

>  <Standard Value>  (2732) 
100000.0

>  <label>  (2732) 
0

$$$$
CHEMBL2111582
     RDKit          3D

  0  0  0  0  0  0  0  0  0  0999 V3000
M  V30 BEGIN CTAB
M  V30 COUNTS 54 55 0 0 1
M  V30 BEGIN ATOM
M  V30 1 C 12.100039 7.642098 -3.941870 0
M  V30 2 C 11.610482 6.410236 -4.721867 0
M  V30 3 C 10.683280 6.649193 -5.926017 0
M  V30 4 N 11.100492 7.843427 -6.704496 0 CFG=2 CHG=1
M  V30 5 C 10.183573 8.994377 -6.525623 0
M  V30 6 C 9.066828 9.021194 -7.594182 0
M  V30 7 C 11.013486 10.266992 -6.279223 0
M  V30 8 C 11.602203 7.562064 -8.084076 0 CFG=2
M  V30 9 C 12.282124 8.714179 -8.820221 0
M  V30 10 O 12.921645 8.186977 -9.970929 0
M  V30 11 C 12.078732 7.634358 -10.896149 0
M  V30 12 C 12.485955 7.636951 -12.244541 0
M  V30 13 C 11.725855 6.948830 -13.205401 0
M  V30 14 C 10.551324 6.283272 -12.821251 0
M  V30 15 C 10.085370 6.338532 -11.491128 0
M  V30 16 C 8.761971 5.709576 -11.162148 0
M  V30 17 O 8.685517 4.857281 -10.282543 0
M  V30 18 N 7.686436 6.124555 -11.846571 0
M  V30 19 C 7.516120 7.245686 -12.782378 0
M  V30 20 C 8.161900 8.583864 -12.316833 0
M  V30 21 C 6.006597 7.427098 -13.046833 0
M  V30 22 C 10.892334 6.970348 -10.502047 0
M  V30 23 C 10.641326 6.759493 -9.011545 0
M  V30 24 H 12.635693 7.327265 -3.045749 0
M  V30 25 H 12.790093 8.247657 -4.526560 0
M  V30 26 H 11.282968 8.282148 -3.617839 0
M  V30 27 H 11.079856 5.770939 -4.018152 0
M  V30 28 H 12.467219 5.838624 -5.069090 0
M  V30 29 H 9.645509 6.727901 -5.588513 0
M  V30 30 H 10.696165 5.764891 -6.555068 0
M  V30 31 H 9.685727 8.855909 -5.571706 0
M  V30 32 H 8.319210 9.770451 -7.446841 0
M  V30 33 H 9.434250 9.180202 -8.606821 0
M  V30 34 H 8.483857 8.101851 -7.559282 0
M  V30 35 H 10.433862 11.079439 -5.869520 0
M  V30 36 H 11.797402 10.091804 -5.542320 0
M  V30 37 H 11.502913 10.626531 -7.168797 0
M  V30 38 H 12.475556 6.972146 -7.858776 0
M  V30 39 H 11.587109 9.497068 -9.123523 0
M  V30 40 H 13.050157 9.157506 -8.187737 0
M  V30 41 H 13.401621 8.135643 -12.533365 0
M  V30 42 H 12.053497 6.930848 -14.234933 0
M  V30 43 H 9.979096 5.764542 -13.579086 0
M  V30 44 H 6.821791 5.714427 -11.529328 0
M  V30 45 H 7.988763 6.922616 -13.708371 0
M  V30 46 H 8.091290 9.368065 -13.056259 0
M  V30 47 H 7.682427 8.982277 -11.438352 0
M  V30 48 H 9.221583 8.537227 -12.090286 0
M  V30 49 H 5.834864 8.161929 -13.836315 0
M  V30 50 H 5.548182 6.485122 -13.359098 0
M  V30 51 H 5.436667 7.775412 -12.196932 0
M  V30 52 H 9.591336 6.924776 -8.825838 0
M  V30 53 H 10.786560 5.699012 -8.815922 0
M  V30 54 H 11.926339 8.144149 -6.206325 0
M  V30 END ATOM
M  V30 BEGIN BOND
M  V30 1 1 2 1
M  V30 2 1 3 2
M  V30 3 1 4 3
M  V30 4 1 5 4
M  V30 5 1 6 5
M  V30 6 1 7 5
M  V30 7 1 8 4
M  V30 8 1 9 8
M  V30 9 1 10 9
M  V30 10 1 11 10
M  V30 11 1 12 11
M  V30 12 2 13 12
M  V30 13 1 14 13
M  V30 14 2 15 14
M  V30 15 1 16 15
M  V30 16 2 17 16
M  V30 17 1 18 16
M  V30 18 1 19 18
M  V30 19 1 20 19
M  V30 20 1 21 19
M  V30 21 2 22 11
M  V30 22 1 22 15
M  V30 23 1 23 8
M  V30 24 1 23 22
M  V30 25 1 24 1
M  V30 26 1 25 1
M  V30 27 1 26 1
M  V30 28 1 27 2
M  V30 29 1 28 2
M  V30 30 1 29 3
M  V30 31 1 30 3
M  V30 32 1 31 5
M  V30 33 1 32 6
M  V30 34 1 33 6
M  V30 35 1 34 6
M  V30 36 1 35 7
M  V30 37 1 36 7
M  V30 38 1 37 7
M  V30 39 1 8 38 CFG=1
M  V30 40 1 39 9
M  V30 41 1 40 9
M  V30 42 1 41 12
M  V30 43 1 42 13
M  V30 44 1 43 14
M  V30 45 1 44 18
M  V30 46 1 45 19
M  V30 47 1 46 20
M  V30 48 1 47 20
M  V30 49 1 48 20
M  V30 50 1 49 21
M  V30 51 1 50 21
M  V30 52 1 51 21
M  V30 53 1 52 23
M  V30 54 1 53 23
M  V30 55 1 4 54 CFG=1
M  V30 END BOND
M  V30 END CTAB
M  END
>  <b_m_subgroup_collapsed>  (2733) 
0

>  <r_i_docking_score>  (2733) 
-3.3314142289516799

>  <s_m_subgroup_title>  (2733) 
glide-dock_SP_D22_pv

>  <s_m_subgroupid>  (2733) 
glide-dock_SP_D22_pv

>  <Molecule ChEMBL ID>  (2733) 
CHEMBL2111582

>  <Standard Type>  (2733) 
Ki

>  <Standard Value>  (2733) 
50000.0

>  <label>  (2733) 
0

$$$$
CHEMBL137781
     RDKit          3D

  0  0  0  0  0  0  0  0  0  0999 V3000
M  V30 BEGIN CTAB
M  V30 COUNTS 50 54 0 0 1
M  V30 BEGIN ATOM
M  V30 1 C 4.802647 -1.862555 -15.547206 0
M  V30 2 C 4.575762 -0.886091 -16.693598 0 CFG=2
M  V30 3 C 3.901284 -1.396142 -17.967779 0
M  V30 4 C 4.962952 -0.641529 -18.764116 0 CFG=2
M  V30 5 C 5.695395 -1.322010 -19.917049 0
M  V30 6 N 5.753213 -0.656808 -17.529402 0
M  V30 7 C 6.625287 0.407540 -17.253901 0
M  V30 8 O 6.730591 1.372360 -18.016748 0
M  V30 9 C 7.488787 0.302232 -15.980110 0 CFG=2
M  V30 10 C 7.229276 1.419059 -14.993710 0
M  V30 11 C 8.053970 2.475281 -14.881908 0
M  V30 12 C 7.847965 3.555183 -13.910143 0
M  V30 13 C 6.632386 3.897605 -13.274808 0
M  V30 14 C 6.578134 4.983912 -12.380484 0
M  V30 15 C 7.741784 5.731790 -12.124957 0
M  V30 16 C 8.940117 5.391089 -12.721036 0
M  V30 17 N 10.191376 5.936078 -12.646243 0
M  V30 18 C 11.078409 5.226966 -13.447636 0
M  V30 19 C 10.330793 4.222263 -14.003271 0
M  V30 20 C 8.984424 4.314346 -13.584875 0
M  V30 21 C 10.552540 3.045923 -14.932544 0
M  V30 22 C 9.295958 2.651974 -15.776299 0 CFG=1
M  V30 23 N 9.490973 1.547300 -16.737391 0
M  V30 24 C 10.800893 1.477163 -17.370264 0
M  V30 25 C 9.007002 0.245927 -16.279348 0
M  V30 26 H 3.844337 -2.227131 -15.182789 0
M  V30 27 H 5.379738 -2.732240 -15.861357 0
M  V30 28 H 5.312217 -1.401119 -14.704123 0
M  V30 29 H 4.131676 0.056150 -16.367243 0
M  V30 30 H 2.886007 -1.028141 -18.110922 0
M  V30 31 H 3.954736 -2.480750 -18.079355 0
M  V30 32 H 4.603125 0.364357 -19.012342 0
M  V30 33 H 5.053313 -1.391302 -20.797432 0
M  V30 34 H 6.587111 -0.762747 -20.202787 0
M  V30 35 H 6.006495 -2.334901 -19.650415 0
M  V30 36 H 7.253085 -0.628223 -15.471971 0
M  V30 37 H 6.357347 1.317677 -14.366001 0
M  V30 38 H 5.729519 3.343409 -13.481400 0
M  V30 39 H 5.652576 5.254757 -11.893273 0
M  V30 40 H 7.686925 6.571875 -11.447371 0
M  V30 41 H 10.437607 6.738547 -12.085564 0
M  V30 42 H 12.126766 5.477845 -13.535682 0
M  V30 43 H 11.386551 3.290823 -15.588917 0
M  V30 44 H 10.873543 2.182964 -14.349072 0
M  V30 45 H 9.083426 3.523767 -16.398645 0
M  V30 46 H 10.786993 0.759500 -18.191093 0
M  V30 47 H 11.079261 2.446882 -17.786762 0
M  V30 48 H 11.570591 1.165589 -16.661734 0
M  V30 49 H 9.198504 -0.505202 -17.045898 0
M  V30 50 H 9.564992 -0.058657 -15.393754 0
M  V30 END ATOM
M  V30 BEGIN BOND
M  V30 1 1 2 1
M  V30 2 1 3 2
M  V30 3 1 4 3
M  V30 4 1 5 4
M  V30 5 1 6 2
M  V30 6 1 6 4
M  V30 7 1 7 6
M  V30 8 2 8 7
M  V30 9 1 9 7
M  V30 10 1 10 9
M  V30 11 2 11 10
M  V30 12 1 12 11
M  V30 13 1 13 12
M  V30 14 2 14 13
M  V30 15 1 15 14
M  V30 16 2 16 15
M  V30 17 1 17 16
M  V30 18 1 18 17
M  V30 19 2 19 18
M  V30 20 2 20 12
M  V30 21 1 20 16
M  V30 22 1 20 19
M  V30 23 1 21 19
M  V30 24 1 22 11
M  V30 25 1 22 21
M  V30 26 1 23 22
M  V30 27 1 24 23
M  V30 28 1 25 9
M  V30 29 1 25 23
M  V30 30 1 26 1
M  V30 31 1 27 1
M  V30 32 1 28 1
M  V30 33 1 2 29 CFG=1
M  V30 34 1 30 3
M  V30 35 1 31 3
M  V30 36 1 4 32 CFG=3
M  V30 37 1 33 5
M  V30 38 1 34 5
M  V30 39 1 35 5
M  V30 40 1 9 36 CFG=1
M  V30 41 1 37 10
M  V30 42 1 38 13
M  V30 43 1 39 14
M  V30 44 1 40 15
M  V30 45 1 41 17
M  V30 46 1 42 18
M  V30 47 1 43 21
M  V30 48 1 44 21
M  V30 49 1 22 45 CFG=3
M  V30 50 1 46 24
M  V30 51 1 47 24
M  V30 52 1 48 24
M  V30 53 1 49 25
M  V30 54 1 50 25
M  V30 END BOND
M  V30 END CTAB
M  END
>  <b_m_subgroup_collapsed>  (2734) 
0

>  <r_i_docking_score>  (2734) 
-3.0709516124484399

>  <s_m_subgroup_title>  (2734) 
glide-dock_SP_D22_pv

>  <s_m_subgroupid>  (2734) 
glide-dock_SP_D22_pv

>  <Molecule ChEMBL ID>  (2734) 
CHEMBL137781

>  <Standard Type>  (2734) 
Ki

>  <Standard Value>  (2734) 
60.0

>  <label>  (2734) 
1

$$$$
CHEMBL1742470
     RDKit          3D

  0  0  0  0  0  0  0  0  0  0999 V3000
M  V30 BEGIN CTAB
M  V30 COUNTS 54 55 0 0 1
M  V30 BEGIN ATOM
M  V30 1 C 9.548227 5.600868 -9.099045 0
M  V30 2 C 8.515832 5.132735 -10.131786 0
M  V30 3 C 9.094839 5.054006 -11.560410 0
M  V30 4 N 8.337054 4.176309 -12.511198 0 CFG=1 CHG=1
M  V30 5 C 7.067614 4.722311 -13.113147 0
M  V30 6 C 6.508723 6.004235 -12.467214 0
M  V30 7 C 5.937698 3.672938 -13.067841 0
M  V30 8 C 9.274180 3.525160 -13.496549 0 CFG=1
M  V30 9 C 8.655297 2.449279 -14.406231 0
M  V30 10 O 9.676684 1.710574 -15.056664 0
M  V30 11 C 10.648805 2.434656 -15.707552 0
M  V30 12 C 11.428949 1.741668 -16.650875 0
M  V30 13 C 12.452564 2.399350 -17.349754 0
M  V30 14 C 12.690686 3.762416 -17.113241 0
M  V30 15 C 11.901342 4.491742 -16.195631 0
M  V30 16 C 12.179268 5.962388 -16.016573 0
M  V30 17 O 12.481774 6.409970 -14.913219 0
M  V30 18 N 12.086382 6.771864 -17.089403 0
M  V30 19 C 11.622217 6.483047 -18.450178 0
M  V30 20 C 11.961028 7.674806 -19.355265 0
M  V30 21 C 10.113513 6.175947 -18.496227 0
M  V30 22 C 10.894078 3.811686 -15.448994 0
M  V30 23 C 10.060740 4.521034 -14.378597 0
M  V30 24 H 9.092854 5.684302 -8.111511 0
M  V30 25 H 10.380937 4.901702 -9.021012 0
M  V30 26 H 9.949879 6.580379 -9.360040 0
M  V30 27 H 7.685565 5.828294 -10.083155 0
M  V30 28 H 8.117594 4.172500 -9.818113 0
M  V30 29 H 10.086110 4.623559 -11.440465 0
M  V30 30 H 9.266802 6.046353 -11.978103 0
M  V30 31 H 7.267232 4.970327 -14.154666 0
M  V30 32 H 5.677059 6.400843 -13.047009 0
M  V30 33 H 6.095176 5.790517 -11.481763 0
M  V30 34 H 7.233842 6.812860 -12.388775 0
M  V30 35 H 5.009321 4.086565 -13.464408 0
M  V30 36 H 6.143575 2.781552 -13.653625 0
M  V30 37 H 5.735150 3.356844 -12.043199 0
M  V30 38 H 10.005061 2.981575 -12.893580 0
M  V30 39 H 8.069201 1.724752 -13.845980 0
M  V30 40 H 7.997652 2.888867 -15.156891 0
M  V30 41 H 11.248219 0.691812 -16.830021 0
M  V30 42 H 13.060776 1.855967 -18.057959 0
M  V30 43 H 13.492662 4.250460 -17.647661 0
M  V30 44 H 12.317084 7.738737 -16.913225 0
M  V30 45 H 12.163789 5.626506 -18.847246 0
M  V30 46 H 11.691317 7.469284 -20.391138 0
M  V30 47 H 11.424099 8.572056 -19.048542 0
M  V30 48 H 13.027450 7.900980 -19.332321 0
M  V30 49 H 9.810770 5.896548 -19.505556 0
M  V30 50 H 9.839772 5.349879 -17.840611 0
M  V30 51 H 9.516569 7.041203 -18.211603 0
M  V30 52 H 10.714789 5.113181 -13.741541 0
M  V30 53 H 9.392157 5.217288 -14.884708 0
M  V30 54 H 8.022417 3.420368 -11.919373 0
M  V30 END ATOM
M  V30 BEGIN BOND
M  V30 1 1 2 1
M  V30 2 1 3 2
M  V30 3 1 4 3
M  V30 4 1 5 4
M  V30 5 1 6 5
M  V30 6 1 7 5
M  V30 7 1 8 4
M  V30 8 1 9 8
M  V30 9 1 10 9
M  V30 10 1 11 10
M  V30 11 1 12 11
M  V30 12 2 13 12
M  V30 13 1 14 13
M  V30 14 2 15 14
M  V30 15 1 16 15
M  V30 16 2 17 16
M  V30 17 1 18 16
M  V30 18 1 19 18
M  V30 19 1 20 19
M  V30 20 1 21 19
M  V30 21 2 22 11
M  V30 22 1 22 15
M  V30 23 1 23 8
M  V30 24 1 23 22
M  V30 25 1 24 1
M  V30 26 1 25 1
M  V30 27 1 26 1
M  V30 28 1 27 2
M  V30 29 1 28 2
M  V30 30 1 29 3
M  V30 31 1 30 3
M  V30 32 1 31 5
M  V30 33 1 32 6
M  V30 34 1 33 6
M  V30 35 1 34 6
M  V30 36 1 35 7
M  V30 37 1 36 7
M  V30 38 1 37 7
M  V30 39 1 8 38 CFG=1
M  V30 40 1 39 9
M  V30 41 1 40 9
M  V30 42 1 41 12
M  V30 43 1 42 13
M  V30 44 1 43 14
M  V30 45 1 44 18
M  V30 46 1 45 19
M  V30 47 1 46 20
M  V30 48 1 47 20
M  V30 49 1 48 20
M  V30 50 1 49 21
M  V30 51 1 50 21
M  V30 52 1 51 21
M  V30 53 1 52 23
M  V30 54 1 53 23
M  V30 55 1 4 54 CFG=1
M  V30 END BOND
M  V30 END CTAB
M  END
>  <b_m_subgroup_collapsed>  (2735) 
0

>  <r_i_docking_score>  (2735) 
-3.03641926672872

>  <s_m_subgroup_title>  (2735) 
glide-dock_SP_D22_pv

>  <s_m_subgroupid>  (2735) 
glide-dock_SP_D22_pv

>  <Molecule ChEMBL ID>  (2735) 
CHEMBL1742470

>  <Standard Type>  (2735) 
Ki

>  <Standard Value>  (2735) 
50000.0

>  <label>  (2735) 
0

$$$$
CHEMBL651
     RDKit          3D

  0  0  0  0  0  0  0  0  0  0999 V3000
M  V30 BEGIN CTAB
M  V30 COUNTS 51 52 0 0 1
M  V30 BEGIN ATOM
M  V30 1 C 10.051675 3.623554 -9.046771 0
M  V30 2 C 9.705192 4.149052 -10.440136 0
M  V30 3 C 9.685590 5.652991 -10.484207 0
M  V30 4 O 9.369459 6.221630 -9.438085 0
M  V30 5 C 9.925837 6.457917 -11.813289 0
M  V30 6 C 10.366309 7.874552 -11.258674 0
M  V30 7 C 11.614783 7.957892 -10.283628 0 CFG=1
M  V30 8 C 12.905344 8.286385 -11.050417 0
M  V30 9 N 11.501713 8.916530 -9.126087 0 CHG=1
M  V30 10 C 10.153412 9.155161 -8.542659 0
M  V30 11 C 12.451580 8.593243 -8.029070 0
M  V30 12 C 10.884070 5.920060 -12.958447 0
M  V30 13 C 11.686717 6.816637 -13.717888 0
M  V30 14 C 12.490712 6.403922 -14.796207 0
M  V30 15 C 12.515874 5.057521 -15.180644 0
M  V30 16 C 11.707390 4.143010 -14.494084 0
M  V30 17 C 10.902381 4.570913 -13.422382 0
M  V30 18 C 8.521323 6.463636 -12.423306 0
M  V30 19 C 7.786088 7.655334 -12.644535 0
M  V30 20 C 6.435863 7.584437 -13.015931 0
M  V30 21 C 5.837942 6.314851 -13.046876 0
M  V30 22 C 6.545244 5.127091 -12.951658 0
M  V30 23 C 7.900198 5.217087 -12.698287 0
M  V30 24 H 10.364338 2.580358 -9.060641 0
M  V30 25 H 10.881252 4.196183 -8.646590 0
M  V30 26 H 9.205153 3.717371 -8.364360 0
M  V30 27 H 8.742350 3.772967 -10.768358 0
M  V30 28 H 10.472434 3.771921 -11.098010 0
M  V30 29 H 10.451800 8.571894 -12.066423 0
M  V30 30 H 9.494406 8.262267 -10.744128 0
M  V30 31 H 11.787514 6.979572 -9.840614 0
M  V30 32 H 13.096014 7.603949 -11.865714 0
M  V30 33 H 12.885985 9.295665 -11.455545 0
M  V30 34 H 13.789434 8.205486 -10.422202 0
M  V30 35 H 9.661802 8.240996 -8.220403 0
M  V30 36 H 10.227520 9.769532 -7.645629 0
M  V30 37 H 9.500256 9.698834 -9.225132 0
M  V30 38 H 12.234475 7.611385 -7.607284 0
M  V30 39 H 13.488859 8.607157 -8.354578 0
M  V30 40 H 12.384507 9.322963 -7.221384 0
M  V30 41 H 11.692957 7.871593 -13.530643 0
M  V30 42 H 13.084248 7.127964 -15.333198 0
M  V30 43 H 13.133018 4.734251 -16.005381 0
M  V30 44 H 11.694383 3.105964 -14.796906 0
M  V30 45 H 10.297624 3.791879 -13.002897 0
M  V30 46 H 8.214892 8.634708 -12.503787 0
M  V30 47 H 5.838535 8.475869 -13.153665 0
M  V30 48 H 4.886137 6.217947 -13.441751 0
M  V30 49 H 6.066469 4.173728 -13.120313 0
M  V30 50 H 8.404841 4.275793 -12.652418 0
M  V30 51 H 11.802070 9.808187 -9.495235 0
M  V30 END ATOM
M  V30 BEGIN BOND
M  V30 1 1 2 1
M  V30 2 1 3 2
M  V30 3 2 4 3
M  V30 4 1 5 3
M  V30 5 1 6 5
M  V30 6 1 7 6
M  V30 7 1 8 7
M  V30 8 1 9 7
M  V30 9 1 10 9
M  V30 10 1 11 9
M  V30 11 1 12 5
M  V30 12 2 13 12
M  V30 13 1 14 13
M  V30 14 2 15 14
M  V30 15 1 16 15
M  V30 16 1 17 12
M  V30 17 2 17 16
M  V30 18 1 18 5
M  V30 19 2 19 18
M  V30 20 1 20 19
M  V30 21 2 21 20
M  V30 22 1 22 21
M  V30 23 1 23 18
M  V30 24 2 23 22
M  V30 25 1 24 1
M  V30 26 1 25 1
M  V30 27 1 26 1
M  V30 28 1 27 2
M  V30 29 1 28 2
M  V30 30 1 29 6
M  V30 31 1 30 6
M  V30 32 1 7 31 CFG=1
M  V30 33 1 32 8
M  V30 34 1 33 8
M  V30 35 1 34 8
M  V30 36 1 35 10
M  V30 37 1 36 10
M  V30 38 1 37 10
M  V30 39 1 38 11
M  V30 40 1 39 11
M  V30 41 1 40 11
M  V30 42 1 41 13
M  V30 43 1 42 14
M  V30 44 1 43 15
M  V30 45 1 44 16
M  V30 46 1 45 17
M  V30 47 1 46 19
M  V30 48 1 47 20
M  V30 49 1 48 21
M  V30 50 1 49 22
M  V30 51 1 50 23
M  V30 52 1 51 9
M  V30 END BOND
M  V30 END CTAB
M  END
>  <b_m_subgroup_collapsed>  (2736) 
0

>  <r_i_docking_score>  (2736) 
-2.8841558767559401

>  <s_m_subgroup_title>  (2736) 
glide-dock_SP_D22_pv

>  <s_m_subgroupid>  (2736) 
glide-dock_SP_D22_pv

>  <Molecule ChEMBL ID>  (2736) 
CHEMBL651

>  <Standard Type>  (2736) 
Ki

>  <Standard Value>  (2736) 
100000.0

>  <label>  (2736) 
0

$$$$
